
#######################################################################
#
#                 Cambridge Crystallographic Data Centre
#                                CCDC 
#
#######################################################################
#
# If this CIF has been generated from an entry in the Cambridge 
# Structural Database, then it will include bibliographic, chemical, 
# crystal, experimental, refinement or atomic coordinate data resulting 
# from the CCDC's data processing and validation procedures.
#
#######################################################################

data_VEVHOV
_symmetry_cell_setting           monoclinic
_symmetry_space_group_name_H-M   'P 21/n'
_symmetry_Int_Tables_number      14
_space_group_name_Hall           '-P 2yn'
loop_
_symmetry_equiv_pos_site_id
_symmetry_equiv_pos_as_xyz
1 x,y,z
2 1/2-x,1/2+y,1/2-z
3 -x,-y,-z
4 1/2+x,1/2-y,1/2+z
_cell_length_a                   7.8525(12)
_cell_length_b                   18.3536(17)
_cell_length_c                   8.9918(12)
_cell_angle_alpha                90
_cell_angle_beta                 114.243(7)
_cell_angle_gamma                90
_cell_volume                     1181.63
loop_
_atom_site_label
_atom_site_type_symbol
_atom_site_fract_x
_atom_site_fract_y
_atom_site_fract_z
Cd1 Cd 0.0000 0.0000 0.0000
Br1 Br 0.19770(4) 0.040854(19) -0.18764(3)
N1 N 0.2432(3) 0.04785(12) 0.2313(3)
N2 N 0.5189(3) 0.08989(13) 0.3973(3)
N3 N 1.1253(3) 0.30246(13) 0.3664(3)
N4 N 1.3477(3) 0.38553(13) 0.4467(3)
C1 C 0.4103(4) 0.06664(16) 0.2456(3)
H1 H 0.4493 0.0642 0.1610
C2 C 0.2437(4) 0.05942(15) 0.3821(3)
H2 H 0.1433 0.0508 0.4094
C3 C 0.4127(4) 0.08525(15) 0.4855(3)
H3 H 0.4492 0.0974 0.5947
C4 C 0.7127(4) 0.1146(2) 0.4559(4)
H4 H 0.7901 0.0743 0.4507
H5 H 0.7557 0.1291 0.5693
C5 C 0.7365(4) 0.17600(16) 0.3614(4)
H6 H 0.6458 0.2132 0.3545
H7 H 0.7071 0.1591 0.2513
C6 C 0.9276(4) 0.21103(16) 0.4263(3)
H8 H 0.9552 0.2315 0.5331
H9 H 1.0208 0.1741 0.4384
C7 C 0.9391(4) 0.2696(2) 0.3159(4)
H10 H 0.9015 0.2495 0.2073
H11 H 0.8507 0.3076 0.3098
C8 C 1.1737(4) 0.37117(16) 0.4203(3)
H12 H 1.0937 0.4044 0.4369
C9 C 1.4141(5) 0.32237(17) 0.4076(4)
H13 H 1.5346 0.3158 0.4146
C10 C 1.2787(5) 0.27122(17) 0.3575(4)
H14 H 1.2879 0.2241 0.3238
Br1B Br -0.19770(4) -0.040854(19) 0.18764(3)
N1B N -0.2432(3) -0.04785(12) -0.2313(3)
N2B N -0.5189(3) -0.08989(13) -0.3973(3)
N3B N -1.1253(3) -0.30246(13) -0.3664(3)
N4B N -1.3477(3) -0.38553(13) -0.4467(3)
C1B C -0.4103(4) -0.06664(16) -0.2456(3)
H1B H -0.4493 -0.0642 -0.1610
C2B C -0.2437(4) -0.05942(15) -0.3821(3)
H2B H -0.1433 -0.0508 -0.4094
C3B C -0.4127(4) -0.08525(15) -0.4855(3)
H3B H -0.4492 -0.0974 -0.5947
C4B C -0.7127(4) -0.1146(2) -0.4559(4)
H4B H -0.7901 -0.0743 -0.4507
H5B H -0.7557 -0.1291 -0.5693
C5B C -0.7365(4) -0.17600(16) -0.3614(4)
H6B H -0.6458 -0.2132 -0.3545
H7B H -0.7071 -0.1591 -0.2513
C6B C -0.9276(4) -0.21103(16) -0.4263(3)
H8B H -0.9552 -0.2315 -0.5331
H9B H -1.0208 -0.1741 -0.4384
C7B C -0.9391(4) -0.2696(2) -0.3159(4)
H10B H -0.9015 -0.2495 -0.2073
H11B H -0.8507 -0.3076 -0.3098
C8B C -1.1737(4) -0.37117(16) -0.4203(3)
H12B H -1.0937 -0.4044 -0.4369
C9B C -1.4141(5) -0.32237(17) -0.4076(4)
H13B H -1.5346 -0.3158 -0.4146
C10B C -1.2787(5) -0.27122(17) -0.3575(4)
H14B H -1.2879 -0.2241 -0.3238
Cd1A Cd -1.5000 -0.5000 -0.5000
Cd1A_2 Cd 1.5000 0.5000 0.5000
N4A N 0.1523(3) -0.11447(13) 0.0533(3)
N4C N -0.1523(3) 0.11447(13) -0.0533(3)
loop_
_geom_bond_atom_site_label_1
_geom_bond_atom_site_label_2
_geom_bond_site_symmetry_1
_geom_bond_site_symmetry_2
Cd1 Br1 1_555 1_555
N1 Cd1 1_555 1_555
N2 C1 1_555 1_555
N3 C7 1_555 1_555
N4 C8 1_555 1_555
C1 N1 1_555 1_555
H1 C1 1_555 1_555
C2 N1 1_555 1_555
H2 C2 1_555 1_555
C3 N2 1_555 1_555
H3 C3 1_555 1_555
C4 N2 1_555 1_555
H4 C4 1_555 1_555
H5 C4 1_555 1_555
C5 C4 1_555 1_555
H6 C5 1_555 1_555
H7 C5 1_555 1_555
C6 C5 1_555 1_555
H8 C6 1_555 1_555
H9 C6 1_555 1_555
C7 C6 1_555 1_555
H10 C7 1_555 1_555
H11 C7 1_555 1_555
C8 N3 1_555 1_555
H12 C8 1_555 1_555
C9 N4 1_555 1_555
H13 C9 1_555 1_555
C10 N3 1_555 1_555
H14 C10 1_555 1_555
Br1B Cd1 1_555 1_555
N1B Cd1 1_555 1_555
N2B C1B 1_555 1_555
N3B C7B 1_555 1_555
N4B C8B 1_555 1_555
C1B N1B 1_555 1_555
H1B C1B 1_555 1_555
C2B N1B 1_555 1_555
H2B C2B 1_555 1_555
C3B N2B 1_555 1_555
H3B C3B 1_555 1_555
C4B N2B 1_555 1_555
H4B C4B 1_555 1_555
H5B C4B 1_555 1_555
C5B C4B 1_555 1_555
H6B C5B 1_555 1_555
H7B C5B 1_555 1_555
C6B C5B 1_555 1_555
H8B C6B 1_555 1_555
H9B C6B 1_555 1_555
C7B C6B 1_555 1_555
H10B C7B 1_555 1_555
H11B C7B 1_555 1_555
C8B N3B 1_555 1_555
H12B C8B 1_555 1_555
C9B N4B 1_555 1_555
H13B C9B 1_555 1_555
C10B N3B 1_555 1_555
H14B C10B 1_555 1_555
Cd1A N4B 1_555 1_555
Cd1A_2 N4 1_555 1_555
N4A Cd1 1_555 1_555
N4C Cd1 1_555 1_555
C2 C3 1_555 1_555
C9 C10 1_555 1_555
C2B C3B 1_555 1_555
C9B C10B 1_555 1_555

#END
