
#######################################################################
#
#                 Cambridge Crystallographic Data Centre
#                                CCDC 
#
#######################################################################
#
# If this CIF has been generated from an entry in the Cambridge 
# Structural Database, then it will include bibliographic, chemical, 
# crystal, experimental, refinement or atomic coordinate data resulting 
# from the CCDC's data processing and validation procedures.
#
#######################################################################

data_VEVHEJ
_symmetry_cell_setting           triclinic
_symmetry_space_group_name_H-M   'P -1'
_symmetry_Int_Tables_number      2
_space_group_name_Hall           '-P 1'
loop_
_symmetry_equiv_pos_site_id
_symmetry_equiv_pos_as_xyz
1 x,y,z
2 -x,-y,-z
_cell_length_a                   9.356(3)
_cell_length_b                   13.298(4)
_cell_length_c                   9.446(3)
_cell_angle_alpha                105.51(2)
_cell_angle_beta                 96.29(3)
_cell_angle_gamma                70.38(2)
_cell_volume                     1066.43
loop_
_atom_site_label
_atom_site_type_symbol
_atom_site_fract_x
_atom_site_fract_y
_atom_site_fract_z
Br1 Br 0.35445(6) 0.53155(5) 0.65856(6)
Cu1 Cu 0.45156(7) 0.40045(5) 0.42363(7)
P1 P 0.5517(2) 0.2265(1) 0.4181(2)
O1 O 0.7000(4) 0.1761(3) 0.5108(4)
O2 O 0.4533(4) 0.1592(3) 0.4562(4)
O3 O 0.6123(4) 0.1593(3) 0.2558(4)
N1 N 0.2856(5) 0.4454(3) 0.2726(5)
C1 C 0.1419(6) 0.4847(5) 0.3057(6)
C2 C 0.0275(6) 0.5069(5) 0.2036(7)
C3 C 0.0591(6) 0.4894(4) 0.0568(6)
C4 C 0.2105(6) 0.4493(4) 0.0227(6)
C5 C 0.3173(6) 0.4286(4) 0.1311(6)
C6 C 0.6981(5) 0.1899(4) 0.6635(5)
C7 C 0.6764(6) 0.2927(4) 0.7587(6)
C8 C 0.6821(6) 0.3015(5) 0.9081(6)
C9 C 0.7107(6) 0.2093(5) 0.9618(6)
C10 C 0.7336(6) 0.1069(5) 0.8640(7)
C11 C 0.7259(6) 0.0960(4) 0.7148(6)
C12 C 0.2982(6) 0.1898(4) 0.4334(6)
C13 C 0.2155(6) 0.1950(5) 0.5468(6)
C14 C 0.0620(7) 0.2190(5) 0.5257(7)
C15 C -0.0045(6) 0.2392(5) 0.3956(7)
C16 C 0.0803(6) 0.2328(5) 0.2819(6)
C17 C 0.2338(6) 0.2070(5) 0.3007(6)
C18 C 0.6805(6) 0.0445(4) 0.2109(5)
C19 C 0.8345(6) 0.0010(5) 0.2098(6)
C20 C 0.9000(6) -0.1108(5) 0.1510(6)
C21 C 0.8123(7) -0.1776(4) 0.0951(6)
C22 C 0.6576(7) -0.1330(5) 0.0995(6)
C23 C 0.5911(6) -0.0210(4) 0.1574(6)
H1 H 0.1267 0.4991 0.4214
H2 H -0.0862 0.5492 0.2411
H3 H 0.2348 0.4433 -0.0909
H4 H 0.4301 0.3973 0.1009
H5 H 0.6378 0.3672 0.7259
H6 H 0.6665 0.3804 0.9852
H7 H 0.7347 0.2092 1.0718
H8 H 0.7660 0.0327 0.8965
H9 H 0.7607 0.0221 0.6296
H10 H 0.2644 0.1721 0.6486
H11 H 0.0001 0.2277 0.6206
H12 H -0.1104 0.2556 0.3713
H13 H 0.0380 0.2306 0.1709
H14 H 0.2992 0.1994 0.2049
H15 H 0.8990 0.0537 0.2603
H16 H 1.0280 -0.1464 0.1691
H17 H 0.8666 -0.2617 0.0616
H18 H 0.6085 -0.1855 0.0411
H19 H 0.4810 0.0193 0.1688
C3A C -0.0591(6) 0.5106(4) -0.0568(6)
C2A C -0.0275(6) 0.4931(5) -0.2036(7)
C1A C -0.1419(6) 0.5153(5) -0.3057(6)
N1A N -0.2856(5) 0.5546(3) -0.2726(5)
C5A C -0.3173(6) 0.5714(4) -0.1311(6)
C4A C -0.2105(6) 0.5507(4) -0.0227(6)
H3A H -0.2348 0.5567 0.0909
H4A H -0.4301 0.6027 -0.1009
H1A H -0.1267 0.5009 -0.4214
H2A H 0.0862 0.4508 -0.2411
Br1A Br 0.64555(6) 0.46845(5) 0.34144(6)
Cu1A Cu 0.54844(7) 0.59955(5) 0.57637(7)
P1A P 0.4483(2) 0.7735(1) 0.5819(2)
O1A O 0.3000(4) 0.8239(3) 0.4892(4)
O2A O 0.5467(4) 0.8408(3) 0.5438(4)
O3A O 0.3877(4) 0.8407(3) 0.7442(4)
C6A C 0.3019(5) 0.8101(4) 0.3365(5)
C7A C 0.3236(6) 0.7073(4) 0.2413(6)
C8A C 0.3179(6) 0.6985(5) 0.0919(6)
C9A C 0.2893(6) 0.7907(5) 0.0382(6)
C10A C 0.2664(6) 0.8931(5) 0.1360(7)
C11A C 0.2741(6) 0.9040(4) 0.2852(6)
C12A C 0.7018(6) 0.8102(4) 0.5666(6)
C13A C 0.7845(6) 0.8050(5) 0.4532(6)
C14A C 0.9380(7) 0.7810(5) 0.4743(7)
C15A C 1.0045(6) 0.7608(5) 0.6044(7)
C16A C 0.9197(6) 0.7672(5) 0.7181(6)
C17A C 0.7662(6) 0.7930(5) 0.6993(6)
C18A C 0.3195(6) 0.9555(4) 0.7891(5)
C19A C 0.1655(6) 0.9990(5) 0.7902(6)
C20A C 0.1000(6) 1.1108(5) 0.8490(6)
C21A C 0.1877(7) 1.1776(4) 0.9049(6)
C22A C 0.3424(7) 1.1330(5) 0.9005(6)
C23A C 0.4089(6) 1.0210(4) 0.8426(6)
H5A H 0.3622 0.6328 0.2741
H6A H 0.3335 0.6196 0.0148
H7A H 0.2653 0.7908 -0.0718
H8A H 0.2340 0.9673 0.1035
H9A H 0.2393 0.9779 0.3704
H10A H 0.7356 0.8279 0.3514
H11A H 0.9999 0.7723 0.3794
H12A H 1.1104 0.7444 0.6287
H13A H 0.9620 0.7694 0.8291
H14A H 0.7008 0.8006 0.7951
H15A H 0.1010 0.9463 0.7397
H16A H -0.0280 1.1464 0.8309
H17A H 0.1334 1.2617 0.9384
H18A H 0.3915 1.1855 0.9589
H19A H 0.5190 0.9807 0.8312
Cu1A_2 Cu -0.45156(7) 0.59955(5) -0.42363(7)
N1A_2 N 0.7144(5) 0.5546(3) 0.7274(5)
loop_
_geom_bond_atom_site_label_1
_geom_bond_atom_site_label_2
_geom_bond_site_symmetry_1
_geom_bond_site_symmetry_2
Br1 Cu1 1_555 1_555
Cu1 P1 1_555 1_555
P1 O1 1_555 1_555
O1 C6 1_555 1_555
O2 P1 1_555 1_555
O3 P1 1_555 1_555
N1 Cu1 1_555 1_555
C1 N1 1_555 1_555
C2 C1 1_555 1_555
C3 C2 1_555 1_555
C4 C3 1_555 1_555
C5 N1 1_555 1_555
C6 C7 1_555 1_555
C7 C8 1_555 1_555
C8 C9 1_555 1_555
C9 C10 1_555 1_555
C10 C11 1_555 1_555
C11 C6 1_555 1_555
C12 O2 1_555 1_555
C13 C12 1_555 1_555
C14 C13 1_555 1_555
C15 C14 1_555 1_555
C16 C15 1_555 1_555
C17 C12 1_555 1_555
C18 O3 1_555 1_555
C19 C18 1_555 1_555
C20 C19 1_555 1_555
C21 C20 1_555 1_555
C22 C21 1_555 1_555
C23 C18 1_555 1_555
H1 C1 1_555 1_555
H2 C2 1_555 1_555
H3 C4 1_555 1_555
H4 C5 1_555 1_555
H5 C7 1_555 1_555
H6 C8 1_555 1_555
H7 C9 1_555 1_555
H8 C10 1_555 1_555
H9 C11 1_555 1_555
H10 C13 1_555 1_555
H11 C14 1_555 1_555
H12 C15 1_555 1_555
H13 C16 1_555 1_555
H14 C17 1_555 1_555
H15 C19 1_555 1_555
H16 C20 1_555 1_555
H17 C21 1_555 1_555
H18 C22 1_555 1_555
H19 C23 1_555 1_555
C3A C3 1_555 1_555
C2A C3A 1_555 1_555
C1A C2A 1_555 1_555
N1A C1A 1_555 1_555
C5A N1A 1_555 1_555
C4A C3A 1_555 1_555
H3A C4A 1_555 1_555
H4A C5A 1_555 1_555
H1A C1A 1_555 1_555
H2A C2A 1_555 1_555
Br1A Cu1 1_555 1_555
Cu1A Br1 1_555 1_555
P1A Cu1A 1_555 1_555
O1A P1A 1_555 1_555
O2A P1A 1_555 1_555
O3A P1A 1_555 1_555
C6A O1A 1_555 1_555
C7A C6A 1_555 1_555
C8A C7A 1_555 1_555
C9A C8A 1_555 1_555
C10A C9A 1_555 1_555
C11A C6A 1_555 1_555
C12A O2A 1_555 1_555
C13A C12A 1_555 1_555
C14A C13A 1_555 1_555
C15A C14A 1_555 1_555
C16A C15A 1_555 1_555
C17A C12A 1_555 1_555
C18A O3A 1_555 1_555
C19A C18A 1_555 1_555
C20A C19A 1_555 1_555
C21A C20A 1_555 1_555
C22A C21A 1_555 1_555
C23A C18A 1_555 1_555
H5A C7A 1_555 1_555
H6A C8A 1_555 1_555
H7A C9A 1_555 1_555
H8A C10A 1_555 1_555
H9A C11A 1_555 1_555
H10A C13A 1_555 1_555
H11A C14A 1_555 1_555
H12A C15A 1_555 1_555
H13A C16A 1_555 1_555
H14A C17A 1_555 1_555
H15A C19A 1_555 1_555
H16A C20A 1_555 1_555
H17A C21A 1_555 1_555
H18A C22A 1_555 1_555
H19A C23A 1_555 1_555
Cu1A_2 N1A 1_555 1_555
N1A_2 Cu1A 1_555 1_555
C4 C5 1_555 1_555
C16 C17 1_555 1_555
C22 C23 1_555 1_555
C5A C4A 1_555 1_555
Br1A Cu1A 1_555 1_555
C10A C11A 1_555 1_555
C16A C17A 1_555 1_555
C22A C23A 1_555 1_555

#END
