
#######################################################################
#
#                 Cambridge Crystallographic Data Centre
#                                CCDC 
#
#######################################################################
#
# If this CIF has been generated from an entry in the Cambridge 
# Structural Database, then it will include bibliographic, chemical, 
# crystal, experimental, refinement or atomic coordinate data resulting 
# from the CCDC's data processing and validation procedures.
#
#######################################################################

data_VEVWOJ
_symmetry_cell_setting           orthorhombic
_symmetry_space_group_name_H-M   'P n a 21'
_symmetry_Int_Tables_number      33
_space_group_name_Hall           'P 2c -2n'
loop_
_symmetry_equiv_pos_site_id
_symmetry_equiv_pos_as_xyz
1 x,y,z
2 -x,-y,1/2+z
3 1/2+x,1/2-y,z
4 1/2-x,1/2+y,1/2+z
_cell_length_a                   7.912(3)
_cell_length_b                   13.603(4)
_cell_length_c                   15.162(5)
_cell_angle_alpha                90
_cell_angle_beta                 90
_cell_angle_gamma                90
_cell_volume                     1631.84
loop_
_atom_site_label
_atom_site_type_symbol
_atom_site_fract_x
_atom_site_fract_y
_atom_site_fract_z
Mn1 Mn 0.93824(5) 0.98790(3) 0.30939(3)
Na1 Na 0.56860(18) 0.77785(9) 0.04846(8)
Na2 Na 0.76616(16) 0.55987(10) 0.07359(10)
N1 N 0.9790(3) 0.83819(17) 0.34956(15)
N2 N 0.9271(3) 1.14245(16) 0.27554(14)
O1 O 0.7859(3) 0.89008(15) 0.21970(14)
O2 O 0.7592(3) 0.73595(16) 0.17037(14)
O3 O 1.1198(3) 0.99149(15) 0.42112(15)
O4 O 1.2328(3) 0.90316(16) 0.53076(15)
O5 O 1.1074(4) 1.01061(16) 0.19672(16)
O6 O 1.1764(3) 1.11058(16) 0.08698(14)
O7 O 0.7514(3) 1.06214(14) 0.40103(14)
O8 O 0.6937(3) 1.20639(15) 0.46372(14)
C1 C 0.9135(3) 0.76415(19) 0.3023(2)
C2 C 0.9405(4) 0.6675(2) 0.3260(2)
H1 H 0.8967 0.6164 0.2923
C3 C 1.0339(4) 0.6486(2) 0.4008(2)
H2 H 1.0516 0.5840 0.4186
C4 C 1.1011(4) 0.7249(2) 0.4492(2)
H3 H 1.1639 0.7126 0.4999
C5 C 1.0733(4) 0.8199(2) 0.42094(18)
C6 C 0.8105(4) 0.7975(2) 0.22432(19)
C7 C 1.1484(4) 0.9118(2) 0.4624(2)
C8 C 1.0143(4) 1.1751(2) 0.20644(18)
C9 C 1.0270(4) 1.2743(2) 0.1872(2)
H4 H 1.0856 1.2960 0.1377
C10 C 0.9501(4) 1.3399(2) 0.2435(2)
H5 H 0.9581 1.4070 0.2327
C11 C 0.8610(4) 1.3063(2) 0.3161(2)
H6 H 0.8098 1.3502 0.3549
C12 C 0.8499(4) 1.2051(2) 0.32979(18)
C13 C 1.1071(4) 1.0932(2) 0.1576(2)
C14 C 0.7566(4) 1.1553(2) 0.4035(2)
O9 O 0.4833(3) 0.61696(14) 0.05108(15)
H7 H 0.4424 0.5846 0.0081
H8 H 0.4619 0.5885 0.0994
O10 O 0.5599(3) 0.94704(15) 0.09199(14)
H9 H 0.6206 0.9310 0.1353
H10 H 0.6087 0.9914 0.0615
Na1B Na 1.06860(18) 0.72215(9) 0.04846(8)
Na1A Na 0.43140(18) 1.22215(9) 0.54846(8)
Na1C Na 0.93140(18) 1.27785(9) 0.54846(8)
Na2B Na 0.26616(16) 0.94013(10) 0.07359(10)
Na2B_2 Na 1.26616(16) 0.94013(10) 0.07359(10)
Na2C Na 0.73384(16) 1.05987(10) 0.57359(10)
O5B O 0.6074(4) 0.48939(16) 0.19672(16)
O6B O 0.6764(3) 0.38942(16) 0.08698(14)
O7C O 0.7486(3) 0.56214(14) -0.09897(14)
O8A O 0.3063(3) 0.79361(15) -0.03628(14)
O8C O 0.8063(3) 0.70639(15) -0.03628(14)
O10B O 1.0599(3) 0.55296(15) 0.09199(14)
H9B H 1.1206 0.5690 0.1353
H10B H 1.1087 0.5086 0.0615
loop_
_geom_bond_atom_site_label_1
_geom_bond_atom_site_label_2
_geom_bond_site_symmetry_1
_geom_bond_site_symmetry_2
Mn1 N1 1_555 1_555
Na1 O2 1_555 1_555
Na2 O2 1_555 1_555
N1 C1 1_555 1_555
N2 Mn1 1_555 1_555
O1 Mn1 1_555 1_555
O2 C6 1_555 1_555
O3 Mn1 1_555 1_555
O4 C7 1_555 1_555
O5 Mn1 1_555 1_555
O6 C13 1_555 1_555
O7 Mn1 1_555 1_555
O8 C14 1_555 1_555
C1 C2 1_555 1_555
C2 H1 1_555 1_555
C3 C2 1_555 1_555
H2 C3 1_555 1_555
C4 C3 1_555 1_555
H3 C4 1_555 1_555
C5 N1 1_555 1_555
C6 O1 1_555 1_555
C7 O3 1_555 1_555
C8 N2 1_555 1_555
C9 C8 1_555 1_555
H4 C9 1_555 1_555
C10 C9 1_555 1_555
H5 C10 1_555 1_555
C11 C10 1_555 1_555
H6 C11 1_555 1_555
C12 N2 1_555 1_555
C13 O5 1_555 1_555
C14 O7 1_555 1_555
O9 Na1 1_555 1_555
H7 O9 1_555 1_555
H8 O9 1_555 1_555
O10 Na1 1_555 1_555
H9 O10 1_555 1_555
H10 O10 1_555 1_555
Na1B O8C 1_555 1_555
Na1A O8 1_555 1_555
Na1C O8 1_555 1_555
Na2B O10 1_555 1_555
Na2B_2 O5 1_555 1_555
Na2C O7 1_555 1_555
O5B Na2 1_555 1_555
O6B Na2 1_555 1_555
O7C Na2 1_555 1_555
O8A Na1 1_555 1_555
O8C Na1 1_555 1_555
O10B Na2 1_555 1_555
H9B O10B 1_555 1_555
H10B O10B 1_555 1_555
Na2 O9 1_555 1_555
Na2 O8C 1_555 1_555
O6 Na2B_2 1_555 1_555
O8 Na2C 1_555 1_555
C1 C6 1_555 1_555
C4 C5 1_555 1_555
C5 C7 1_555 1_555
C8 C13 1_555 1_555
C11 C12 1_555 1_555
C12 C14 1_555 1_555
Na1B O10B 1_555 1_555
Na2B O8A 1_555 1_555

#END
