
#######################################################################
#
#                 Cambridge Crystallographic Data Centre
#                                CCDC 
#
#######################################################################
#
# If this CIF has been generated from an entry in the Cambridge 
# Structural Database, then it will include bibliographic, chemical, 
# crystal, experimental, refinement or atomic coordinate data resulting 
# from the CCDC's data processing and validation procedures.
#
#######################################################################

data_VEVXUQ
_symmetry_cell_setting           monoclinic
_symmetry_space_group_name_H-M   'P 21/c'
_symmetry_Int_Tables_number      14
_space_group_name_Hall           '-P 2ybc'
loop_
_symmetry_equiv_pos_site_id
_symmetry_equiv_pos_as_xyz
1 x,y,z
2 -x,1/2+y,1/2-z
3 -x,-y,-z
4 x,1/2-y,1/2+z
_cell_length_a                   8.0789(6)
_cell_length_b                   14.6234(10)
_cell_length_c                   8.1001(4)
_cell_angle_alpha                90
_cell_angle_beta                 92.801(3)
_cell_angle_gamma                90
_cell_volume                     955.811
loop_
_atom_site_label
_atom_site_type_symbol
_atom_site_fract_x
_atom_site_fract_y
_atom_site_fract_z
Mo1 Mo 0.04936(3) 0.58427(2) 1.11963(3)
Mo2 Mo -0.35516(3) 0.57338(2) 1.13552(4)
K1 K 0.34181(10) 0.68925(6) 0.82773(10)
O1 O 0.1044(3) 0.53100(17) 1.3028(3)
O2 O -0.1503(3) 0.64193(16) 1.1902(3)
O3 O 0.1675(3) 0.68293(17) 1.1216(3)
O4 O -0.4828(3) 0.66369(18) 1.1765(3)
O5 O -0.5000 0.5000 1.0000
O6 O 0.1494(3) 0.50774(16) 0.9631(3)
O7 O -0.3547(3) 0.50936(19) 1.3126(3)
O8 O -0.0507(3) 0.65207(17) 0.8612(3)
O9 O -0.3266(3) 0.63982(18) 0.8845(3)
O10 O 0.3564(4) 0.6430(2) 0.4895(4)
H1 H 0.370(6) 0.636(4) 0.403(7)
H2 H 0.357(6) 0.590(4) 0.531(6)
C1 C -0.1983(4) 0.6492(2) 0.8031(4)
C2 C -0.2310(4) 0.6567(2) 0.6186(4)
H3 H -0.2991 0.6056 0.5801
H4 H -0.2916 0.7126 0.5933
N1 N -0.0732(4) 0.6568(2) 0.5311(4)
H5 H 0.003(6) 0.701(3) 0.558(6)
H6 H -0.082(6) 0.663(3) 0.416(6)
H7 H -0.011(6) 0.600(3) 0.553(6)
Mo1B Mo -0.04936(3) 0.41573(2) 0.88037(3)
Mo1C Mo 0.04936(3) 0.91573(2) 0.61963(3)
Mo1_2 Mo 1.04936(3) 0.58427(2) 1.11963(3)
Mo2B Mo 0.35516(3) 0.42662(2) 0.86448(4)
Mo2B_2 Mo -0.64484(3) 0.42662(2) 0.86448(4)
Mo2_2 Mo 0.64484(3) 0.57338(2) 1.13552(4)
K1C K 0.34181(10) 0.81075(6) 1.32773(10)
K1C_2 K 0.34181(10) 0.81075(6) 0.32773(10)
K1_2 K -0.65819(10) 0.68925(6) 0.82773(10)
K1C_3 K -0.65819(10) 0.81075(6) 1.32773(10)
K1B K -0.34181(10) 0.31075(6) 1.17227(10)
K1_3 K 0.34181(10) 0.68925(6) 1.82773(10)
K1_4 K 1.34181(10) 0.68925(6) 0.82773(10)
O1B O -0.1044(3) 0.46900(17) 0.6972(3)
O2B O 0.1503(3) 0.35807(16) 0.8098(3)
O3C O 0.1675(3) 0.81707(17) 0.6216(3)
O3B O -0.1675(3) 0.31707(17) 0.8784(3)
O3C_2 O 0.1675(3) 0.81707(17) 1.6216(3)
O4_2 O 0.5172(3) 0.66369(18) 1.1765(3)
O4C O 0.5172(3) 0.83631(18) 0.6765(3)
O4B O 0.4828(3) 0.33631(18) 0.8235(3)
O4C_2 O 0.5172(3) 0.83631(18) 1.6765(3)
O5_2 O 0.5000 0.5000 1.0000
O5C O 0.5000 1.0000 1.5000
O6B O -0.1494(3) 0.49226(16) 1.0369(3)
O6C O 0.1494(3) 0.99226(16) 1.4631(3)
O7B O 0.3547(3) 0.49064(19) 0.6874(3)
O7A O 0.3547(3) 1.00936(19) 1.1874(3)
O8_2 O 0.9493(3) 0.65207(17) 0.8612(3)
O8B O 0.0507(3) 0.34793(17) 1.1388(3)
O8C O -0.0507(3) 0.84793(17) 1.3612(3)
O9_2 O 0.6734(3) 0.63982(18) 0.8845(3)
O9B O 0.3266(3) 0.36018(18) 1.1155(3)
O9C O 0.6734(3) 0.86018(18) 1.3845(3)
O10C O 0.3564(4) 0.8570(2) 0.9895(4)
O10_2 O 0.3564(4) 0.6430(2) 1.4895(4)
H1C H 0.370(6) 0.864(4) 0.903(7)
H1_2 H 0.370(6) 0.636(4) 1.403(7)
H2C H 0.357(6) 0.910(4) 1.031(6)
H2_2 H 0.357(6) 0.590(4) 1.531(6)
C1_2 C 0.8017(4) 0.6492(2) 0.8031(4)
C2_2 C 0.7690(4) 0.6567(2) 0.6186(4)
H3_2 H 0.7009 0.6056 0.5801
H4_2 H 0.7084 0.7126 0.5933
N1_2 N 0.9268(4) 0.6568(2) 0.5311(4)
H5_2 H 1.003(6) 0.701(3) 0.558(6)
H6_2 H 0.918(6) 0.663(3) 0.416(6)
H7_2 H 0.989(6) 0.600(3) 0.553(6)
loop_
_geom_bond_atom_site_label_1
_geom_bond_atom_site_label_2
_geom_bond_site_symmetry_1
_geom_bond_site_symmetry_2
Mo1 O1 1_555 1_555
Mo2 O2 1_555 1_555
K1 O3 1_555 1_555
O2 Mo1 1_555 1_555
O3 Mo1 1_555 1_555
O4 Mo2 1_555 1_555
O5 Mo2 1_555 1_555
O6 Mo1 1_555 1_555
O7 Mo2 1_555 1_555
O8 Mo1 1_555 1_555
O9 Mo2 1_555 1_555
O10 K1 1_555 1_555
H1 O10 1_555 1_555
H2 O10 1_555 1_555
C1 O8 1_555 1_555
C2 C1 1_555 1_555
H3 C2 1_555 1_555
H4 C2 1_555 1_555
N1 C2 1_555 1_555
H5 N1 1_555 1_555
H6 N1 1_555 1_555
H7 N1 1_555 1_555
Mo1B O6 1_555 1_555
Mo1C O3C 1_555 1_555
Mo1_2 O8_2 1_555 1_555
Mo2B O6 1_555 1_555
Mo2B_2 O5 1_555 1_555
Mo2_2 O4_2 1_555 1_555
K1C O3 1_555 1_555
K1C_2 O10 1_555 1_555
K1_2 O4 1_555 1_555
K1C_3 O4 1_555 1_555
K1B O5 1_555 1_555
K1_3 O3C_2 1_555 1_555
K1_4 O8_2 1_555 1_555
O1B Mo1B 1_555 1_555
O2B Mo1B 1_555 1_555
O3C K1 1_555 1_555
O3B Mo1B 1_555 1_555
O3C_2 K1C 1_555 1_555
O4_2 K1 1_555 1_555
O4C K1 1_555 1_555
O4B Mo2B 1_555 1_555
O4C_2 K1C 1_555 1_555
O5_2 K1 1_555 1_555
O5C K1C 1_555 1_555
O6B Mo1 1_555 1_555
O6C K1C 1_555 1_555
O7B K1 1_555 1_555
O7A K1C 1_555 1_555
O8_2 C1_2 1_555 1_555
O8B Mo1B 1_555 1_555
O8C K1C 1_555 1_555
O9_2 K1 1_555 1_555
O9B Mo2B 1_555 1_555
O9C K1C 1_555 1_555
O10C K1 1_555 1_555
O10_2 K1C 1_555 1_555
H1C O10C 1_555 1_555
H1_2 O10_2 1_555 1_555
H2C O10C 1_555 1_555
H2_2 O10_2 1_555 1_555
C1_2 O9_2 1_555 1_555
C2_2 C1_2 1_555 1_555
H3_2 C2_2 1_555 1_555
H4_2 C2_2 1_555 1_555
N1_2 C2_2 1_555 1_555
H5_2 N1_2 1_555 1_555
H6_2 N1_2 1_555 1_555
H7_2 N1_2 1_555 1_555
Mo2 O6B 1_555 1_555
K1 O6 1_555 1_555
K1 O8 1_555 1_555
O5 K1_2 1_555 1_555
O7 K1B 1_555 1_555
O9 C1 1_555 1_555
O9 K1_2 1_555 1_555
Mo1B O6B 1_555 1_555
Mo2B O2B 1_555 1_555
Mo2B O5_2 1_555 1_555
Mo2B O7B 1_555 1_555
Mo2_2 O5_2 1_555 1_555
Mo2_2 O9_2 1_555 1_555
K1C O4_2 1_555 1_555
K1C O10C 1_555 1_555
K1C_2 O3C 1_555 1_555
K1C_2 O4C 1_555 1_555
K1B O3B 1_555 1_555
K1B O6B 1_555 1_555
K1B O8B 1_555 1_555
K1_3 O4C_2 1_555 1_555
K1_3 O10_2 1_555 1_555

#END
