
#######################################################################
#
#                 Cambridge Crystallographic Data Centre
#                                CCDC 
#
#######################################################################
#
# If this CIF has been generated from an entry in the Cambridge 
# Structural Database, then it will include bibliographic, chemical, 
# crystal, experimental, refinement or atomic coordinate data resulting 
# from the CCDC's data processing and validation procedures.
#
#######################################################################

data_VEVYOL
_symmetry_cell_setting           monoclinic
_symmetry_space_group_name_H-M   'P 21/c'
_symmetry_Int_Tables_number      14
_space_group_name_Hall           '-P 2ybc'
loop_
_symmetry_equiv_pos_site_id
_symmetry_equiv_pos_as_xyz
1 x,y,z
2 -x,1/2+y,1/2-z
3 -x,-y,-z
4 x,1/2-y,1/2+z
_cell_length_a                   15.084(5)
_cell_length_b                   17.211(5)
_cell_length_c                   14.151(4)
_cell_angle_alpha                90
_cell_angle_beta                 116.946(4)
_cell_angle_gamma                90
_cell_volume                     3274.91
loop_
_atom_site_label
_atom_site_type_symbol
_atom_site_fract_x
_atom_site_fract_y
_atom_site_fract_z
Tb1 Tb 0.63083(3) 0.56497(2) 0.60795(3)
C1 C 0.7367(6) 0.4242(4) 0.8136(6)
H1 H 0.6692 0.4193 0.7942
C2 C 0.8038(7) 0.3773(5) 0.8950(8)
H2 H 0.7804 0.3425 0.9288
C3 C 0.9022(7) 0.3820(6) 0.9253(8)
H3 H 0.9469 0.3499 0.9785
C4 C 0.9354(6) 0.4363(5) 0.8746(7)
C5 C 1.0410(6) 0.4491(6) 0.9047(8)
H4 H 1.0888 0.4192 0.9584
C6 C 1.0698(6) 0.5031(4) 0.8560(6)
H5 H 1.1374 0.5104 0.8780
C7 C 1.0002(6) 0.5497(4) 0.7718(7)
C8 C 1.0275(6) 0.6055(4) 0.7200(6)
H6 H 1.0946 0.6150 0.7415
C9 C 0.9561(6) 0.6479(4) 0.6358(6)
H7 H 0.9744 0.6854 0.6006
C10 C 0.8545(5) 0.6317(5) 0.6059(6)
H8 H 0.8059 0.6580 0.5483
C11 C 0.8950(6) 0.5384(4) 0.7363(6)
C12 C 0.8658(5) 0.4826(4) 0.7937(6)
C13 C 0.6199(6) 0.3792(4) 0.4859(6)
C14 C 0.6753(5) 0.3258(4) 0.4453(6)
H9 H 0.6719 0.2731 0.4675
H10 H 0.6425 0.3268 0.3684
C15 C 0.8485(5) 0.3213(4) 0.5808(6)
H11 H 0.8296 0.2840 0.6156
C16 C 0.9410(6) 0.3484(5) 0.6261(7)
C17 C 0.9744(6) 0.4082(5) 0.5759(6)
C18 C 0.8020(6) 0.4059(4) 0.4314(6)
C19 C 0.6542(6) 0.6347(4) 0.8165(6)
C20 C 0.6517(6) 0.6742(4) 0.9132(6)
H12 H 0.7018 0.6507 0.9776
H13 H 0.6681 0.7287 0.9141
C21 C 0.4843(5) 0.7273(4) 0.8710(6)
H14 H 0.5025 0.7738 0.8512
C22 C 0.3936(6) 0.7181(5) 0.8607(6)
C23 C 0.3612(6) 0.6487(5) 0.8954(6)
C24 C 0.5290(5) 0.5982(4) 0.9411(5)
C25 C 0.5580(6) 0.5613(4) 0.3714(6)
C26 C 0.5499(6) 0.5391(4) 0.2617(6)
H15 H 0.4811 0.5277 0.2131
H16 H 0.5888 0.4926 0.2686
C27 C 0.6787(6) 0.6023(4) 0.2232(5)
H17 H 0.7206 0.5599 0.2522
C28 C 0.7093(5) 0.6634(4) 0.1862(5)
C29 C 0.6482(5) 0.7302(4) 0.1414(5)
C30 C 0.5205(6) 0.6655(4) 0.1769(6)
F1 F 1.0079(3) 0.3223(3) 0.7209(4)
F2 F 0.3259(4) 0.7762(3) 0.8238(4)
F3 F 0.7980(3) 0.6622(3) 0.1860(3)
N1 N 0.7654(4) 0.4758(3) 0.7624(4)
N2 N 0.8262(5) 0.5802(3) 0.6571(5)
N3 N 0.7808(4) 0.3477(4) 0.4836(5)
N4 N 0.8985(5) 0.4327(4) 0.4824(5)
H18 H 0.9129 0.4699 0.4511
N5 N 0.5524(5) 0.6671(4) 0.9117(5)
N6 N 0.4345(5) 0.5923(4) 0.9331(5)
H19 H 0.4198 0.5493 0.9535
N7 N 0.5863(4) 0.6027(3) 0.2179(4)
N8 N 0.5582(4) 0.7244(3) 0.1411(5)
H20 H 0.5193 0.7635 0.1145
O1 O 0.6636(4) 0.4393(3) 0.5357(4)
O2 O 0.5336(4) 0.3583(3) 0.4639(4)
O3 O 0.7413(4) 0.4313(3) 0.3452(5)
O4 O 1.0566(4) 0.4359(3) 0.6132(4)
O5 O 0.5772(4) 0.6027(3) 0.7504(4)
O6 O 0.7308(5) 0.6394(3) 0.8082(5)
O7 O 0.5890(4) 0.5445(3) 0.9754(4)
O8 O 0.2795(4) 0.6397(3) 0.8939(5)
O9 O 0.6243(4) 0.6054(3) 0.4283(4)
O10 O 0.4984(3) 0.5290(3) 0.3978(4)
O11 O 0.4398(3) 0.6673(3) 0.1738(4)
O12 O 0.6721(4) 0.7873(3) 0.1057(4)
Tb1B Tb 0.36917(3) 0.43503(2) 0.39205(3)
Tb1C Tb 0.63083(3) 0.93503(2) 0.10795(3)
O2B O 0.4664(4) 0.6417(3) 0.5361(4)
O10B O 0.5016(3) 0.4710(3) 0.6022(4)
O12C O 0.6721(4) 0.7127(3) 0.6057(4)
O13 O 0.8973(4) 0.7350(4) 0.9116(5)
H21 H 0.8520 0.7006 0.8921
H22 H 0.8824 0.7668 0.8607
loop_
_geom_bond_atom_site_label_1
_geom_bond_atom_site_label_2
_geom_bond_site_symmetry_1
_geom_bond_site_symmetry_2
Tb1 N1 1_555 1_555
C1 H1 1_555 1_555
C2 C1 1_555 1_555
H2 C2 1_555 1_555
C3 C2 1_555 1_555
H3 C3 1_555 1_555
C4 C3 1_555 1_555
C5 C4 1_555 1_555
H4 C5 1_555 1_555
C6 C5 1_555 1_555
H5 C6 1_555 1_555
C7 C6 1_555 1_555
C8 C7 1_555 1_555
H6 C8 1_555 1_555
C9 C8 1_555 1_555
H7 C9 1_555 1_555
C10 C9 1_555 1_555
H8 C10 1_555 1_555
C11 C7 1_555 1_555
C12 C4 1_555 1_555
C13 C14 1_555 1_555
C14 H9 1_555 1_555
H10 C14 1_555 1_555
C15 H11 1_555 1_555
C16 C15 1_555 1_555
C17 C16 1_555 1_555
C18 N3 1_555 1_555
C19 C20 1_555 1_555
C20 H12 1_555 1_555
H13 C20 1_555 1_555
C21 H14 1_555 1_555
C22 C21 1_555 1_555
C23 C22 1_555 1_555
C24 N5 1_555 1_555
C25 C26 1_555 1_555
C26 H15 1_555 1_555
H16 C26 1_555 1_555
C27 H17 1_555 1_555
C28 C27 1_555 1_555
C29 C28 1_555 1_555
C30 N7 1_555 1_555
F1 C16 1_555 1_555
F2 C22 1_555 1_555
F3 C28 1_555 1_555
N1 C1 1_555 1_555
N2 Tb1 1_555 1_555
N3 C14 1_555 1_555
N4 C17 1_555 1_555
H18 N4 1_555 1_555
N5 C20 1_555 1_555
N6 C23 1_555 1_555
H19 N6 1_555 1_555
N7 C26 1_555 1_555
N8 C29 1_555 1_555
H20 N8 1_555 1_555
O1 Tb1 1_555 1_555
O2 C13 1_555 1_555
O3 C18 1_555 1_555
O4 C17 1_555 1_555
O5 Tb1 1_555 1_555
O6 Tb1 1_555 1_555
O7 C24 1_555 1_555
O8 C23 1_555 1_555
O9 Tb1 1_555 1_555
O10 Tb1 1_555 1_555
O11 C30 1_555 1_555
O12 C29 1_555 1_555
O13 H21 1_555 1_555
H22 O13 1_555 1_555
Tb1B O2 1_555 1_555
Tb1C O12 1_555 1_555
O2B Tb1 1_555 1_555
O10B Tb1 1_555 1_555
O12C Tb1 1_555 1_555
C10 N2 1_555 1_555
C11 C12 1_555 1_555
C11 N2 1_555 1_555
C12 N1 1_555 1_555
C13 O1 1_555 1_555
C15 N3 1_555 1_555
C18 N4 1_555 1_555
C19 O5 1_555 1_555
C19 O6 1_555 1_555
C21 N5 1_555 1_555
C24 N6 1_555 1_555
C25 O9 1_555 1_555
C25 O10 1_555 1_555
C27 N7 1_555 1_555
C30 N8 1_555 1_555
O10 Tb1B 1_555 1_555
Tb1B O10B 1_555 1_555

#END
