
#######################################################################
#
#                 Cambridge Crystallographic Data Centre
#                                CCDC 
#
#######################################################################
#
# If this CIF has been generated from an entry in the Cambridge 
# Structural Database, then it will include bibliographic, chemical, 
# crystal, experimental, refinement or atomic coordinate data resulting 
# from the CCDC's data processing and validation procedures.
#
#######################################################################

data_VEVZOM
_symmetry_cell_setting           triclinic
_symmetry_space_group_name_H-M   'P -1'
_symmetry_Int_Tables_number      2
_space_group_name_Hall           '-P 1'
loop_
_symmetry_equiv_pos_site_id
_symmetry_equiv_pos_as_xyz
1 x,y,z
2 -x,-y,-z
_cell_length_a                   9.6894(9)
_cell_length_b                   10.5183(10)
_cell_length_c                   13.5770(13)
_cell_angle_alpha                67.9480(10)
_cell_angle_beta                 70.1000(10)
_cell_angle_gamma                65.1870(10)
_cell_volume                     1136.27
loop_
_atom_site_label
_atom_site_type_symbol
_atom_site_fract_x
_atom_site_fract_y
_atom_site_fract_z
Sm1 Sm 0.722604(13) 0.530410(12) 0.513070(10)
N1 N 0.6141(4) 1.0923(4) -0.0158(3)
N2 N 0.7926(3) -0.1075(3) 0.7120(2)
O1 O 0.6433(2) 0.6828(2) 0.33649(16)
O2 O 0.8920(2) 0.5494(2) 0.32292(16)
O3 O 1.2713(4) 0.6724(5) -0.0327(3)
O4 O 1.1793(3) 0.8734(4) -0.1567(2)
H1 H 1.2712 0.8534 -0.1884
O5 O 0.6448(5) 1.1575(4) -0.1117(3)
O6 O 0.4898(4) 1.1288(3) 0.0441(3)
O7 O 0.9561(2) 0.3435(2) 0.53369(19)
O8 O 1.2052(2) 0.2583(2) 0.5387(2)
O9 O 1.4877(2) -0.2830(2) 0.57233(18)
O10 O 1.3530(3) -0.3833(2) 0.54137(17)
O11 O 0.7952(3) -0.2313(3) 0.7537(3)
O12 O 0.6721(3) -0.0045(3) 0.7051(3)
C1 C 0.7820(3) 0.6526(3) 0.2824(2)
C2 C 0.8184(4) 0.7475(3) 0.1685(2)
C3 C 0.7006(4) 0.8718(4) 0.1298(3)
H2 H 0.6001 0.8954 0.1722
C4 C 0.7374(4) 0.9594(4) 0.0262(3)
C5 C 0.8850(4) 0.9300(4) -0.0388(3)
H3 H 0.9059 0.9914 -0.1080
C6 C 1.0016(4) 0.8068(4) 0.0014(3)
C7 C 0.9677(4) 0.7157(4) 0.1047(3)
H4 H 1.0462 0.6326 0.1312
C8 C 1.1643(4) 0.7753(5) -0.0647(3)
C9 C 1.0802(3) 0.2424(3) 0.5510(2)
C10 C 1.0782(3) 0.0891(3) 0.5871(2)
C11 C 0.9382(3) 0.0622(3) 0.6334(2)
H5 H 0.8448 0.1377 0.6441
C12 C 0.9412(3) -0.0791(3) 0.6631(2)
C13 C 1.0753(3) -0.1944(3) 0.6439(2)
H6 H 1.0723 -0.2880 0.6623
C14 C 1.2139(3) -0.1660(3) 0.5965(2)
C15 C 1.2169(3) -0.0254(3) 0.5703(2)
H7 H 1.3113 -0.0081 0.5418
C16 C 1.3615(3) -0.2861(3) 0.5684(2)
O13 O 0.7848(3) 0.5331(3) 0.67256(19)
H8 H 0.7244 0.5966 0.7067
H9 H 0.8668 0.4705 0.6938
O14 O 0.6016(3) 0.3782(2) 0.67698(17)
H10 H 0.5450 0.4124 0.7308
H11 H 0.5269 0.3592 0.6729
Sm1A Sm 1.277396(13) 0.469590(12) 0.486930(10)
Sm1_2 Sm 1.722604(13) -0.469590(12) 0.513070(10)
Sm1A_2 Sm 1.277396(13) -0.530410(12) 0.486930(10)
O8A O 0.7948(2) 0.7417(2) 0.4613(2)
O9_2 O 0.4877(2) 0.7170(2) 0.57233(18)
O10A O 0.6470(3) 0.3833(2) 0.45863(17)
O15 O 0.4593(3) 0.8329(4) 0.7330(2)
H12 H 0.4429 0.7977 0.8018
H13 H 0.4680 0.7977 0.6834
O16 O 0.5705(4) 0.4921(5) 0.8558(3)
H14 H 0.5207 0.5681 0.8781
H15 H 0.5902 0.4085 0.9013
loop_
_geom_bond_atom_site_label_1
_geom_bond_atom_site_label_2
_geom_bond_site_symmetry_1
_geom_bond_site_symmetry_2
Sm1 O1 1_555 1_555
N1 O5 1_555 1_555
N2 O11 1_555 1_555
O1 C1 1_555 1_555
O2 Sm1 1_555 1_555
O3 C8 1_555 1_555
O4 H1 1_555 1_555
O6 N1 1_555 1_555
O7 Sm1 1_555 1_555
O8 C9 1_555 1_555
O9 C16 1_555 1_555
O10 C16 1_555 1_555
O12 N2 1_555 1_555
C1 O2 1_555 1_555
C2 C1 1_555 1_555
C3 C2 1_555 1_555
H2 C3 1_555 1_555
C4 N1 1_555 1_555
C5 C4 1_555 1_555
H3 C5 1_555 1_555
C6 C5 1_555 1_555
C7 C2 1_555 1_555
H4 C7 1_555 1_555
C8 O4 1_555 1_555
C9 O7 1_555 1_555
C10 C9 1_555 1_555
C11 C10 1_555 1_555
H5 C11 1_555 1_555
C12 N2 1_555 1_555
C13 C12 1_555 1_555
H6 C13 1_555 1_555
C14 C13 1_555 1_555
C15 C10 1_555 1_555
H7 C15 1_555 1_555
C16 C14 1_555 1_555
O13 Sm1 1_555 1_555
H8 O13 1_555 1_555
H9 O13 1_555 1_555
O14 Sm1 1_555 1_555
H10 O14 1_555 1_555
H11 O14 1_555 1_555
O15 H12 1_555 1_555
H13 O15 1_555 1_555
O16 H14 1_555 1_555
H15 O16 1_555 1_555
Sm1A O8 1_555 1_555
Sm1_2 O9 1_555 1_555
Sm1A_2 O10 1_555 1_555
O8A Sm1 1_555 1_555
O9_2 Sm1 1_555 1_555
O10A Sm1 1_555 1_555
C3 C4 1_555 1_555
C6 C7 1_555 1_555
C6 C8 1_555 1_555
C11 C12 1_555 1_555
C14 C15 1_555 1_555

#END
