
#######################################################################
#
#                 Cambridge Crystallographic Data Centre
#                                CCDC 
#
#######################################################################
#
# If this CIF has been generated from an entry in the Cambridge 
# Structural Database, then it will include bibliographic, chemical, 
# crystal, experimental, refinement or atomic coordinate data resulting 
# from the CCDC's data processing and validation procedures.
#
#######################################################################

data_VEWHIP
_symmetry_cell_setting           monoclinic
_symmetry_space_group_name_H-M   'P 21/m'
_symmetry_Int_Tables_number      11
_space_group_name_Hall           '-P 2yb'
loop_
_symmetry_equiv_pos_site_id
_symmetry_equiv_pos_as_xyz
1 x,y,z
2 -x,1/2+y,-z
3 -x,-y,-z
4 x,1/2-y,z
_cell_length_a                   3.5874(7)
_cell_length_b                   8.6740(17)
_cell_length_c                   9.791(2)
_cell_angle_alpha                90
_cell_angle_beta                 97.989(4)
_cell_angle_gamma                90
_cell_volume                     301.711
loop_
_atom_site_label
_atom_site_type_symbol
_atom_site_fract_x
_atom_site_fract_y
_atom_site_fract_z
Cu1 Cu -0.0491(2) 0.41885(8) 1.11146(8)
Cl1 Cl -0.4985(4) 0.2500 1.24835(17)
C1 C -0.0238(17) 0.7500 1.1455(7)
C2 C -0.1587(14) 0.6154(6) 1.3346(5)
H1 H -0.1937 0.5223 1.3780
N1 N -0.0759(11) 0.6126(4) 1.2052(4)
C3 C -0.194(2) 0.7500 1.4060(8)
H2 H -0.2393 0.7500 1.4972
O1 O 0.0821(14) 0.7500 1.0248(5)
Cu1_2 Cu -1.0491(2) 0.41885(8) 1.11146(8)
Cu1C Cu -1.0491(2) 0.08115(8) 1.11146(8)
Cu1C_2 Cu -0.0491(2) 0.08115(8) 1.11146(8)
Cu1B Cu 0.0491(2) 0.58115(8) 0.88854(8)
Cu1A Cu 0.0491(2) 0.91885(8) 0.88854(8)
Cu1C_3 Cu -0.0491(2) 1.08115(8) 1.11146(8)
Cl1_2 Cl 0.5015(4) 0.2500 1.24835(17)
Cl1_3 Cl -1.4985(4) 0.2500 1.24835(17)
C2C C -0.1587(14) 0.8846(6) 1.3346(5)
H1C H -0.1937 0.9777 1.3780
N1C N -0.0759(11) 0.8874(4) 1.2052(4)
N1_2 N -1.0759(11) 0.6126(4) 1.2052(4)
O1B O -0.0821(14) 0.2500 0.9752(5)
O1B_2 O -1.0821(14) 0.2500 0.9752(5)
loop_
_geom_bond_atom_site_label_1
_geom_bond_atom_site_label_2
_geom_bond_site_symmetry_1
_geom_bond_site_symmetry_2
Cu1 Cl1 1_555 1_555
Cl1 Cu1_2 1_555 1_555
C1 N1 1_555 1_555
C2 H1 1_555 1_555
N1 Cu1 1_555 1_555
C3 C2 1_555 1_555
H2 C3 1_555 1_555
O1 C1 1_555 1_555
Cu1_2 Cl1_3 1_555 1_555
Cu1C Cl1 1_555 1_555
Cu1C_2 Cl1 1_555 1_555
Cu1B O1 1_555 1_555
Cu1A O1 1_555 1_555
Cu1C_3 N1C 1_555 1_555
Cl1_2 Cu1 1_555 1_555
Cl1_3 Cu1C 1_555 1_555
C2C C3 1_555 1_555
H1C C2C 1_555 1_555
N1C C1 1_555 1_555
N1_2 Cu1_2 1_555 1_555
O1B Cu1 1_555 1_555
O1B_2 Cu1_2 1_555 1_555
C2 N1 1_555 1_555
Cu1C O1B_2 1_555 1_555
Cu1C_2 Cl1_2 1_555 1_555
Cu1C_2 O1B 1_555 1_555
C2C N1C 1_555 1_555

#END
