
#######################################################################
#
#                 Cambridge Crystallographic Data Centre
#                                CCDC 
#
#######################################################################
#
# If this CIF has been generated from an entry in the Cambridge 
# Structural Database, then it will include bibliographic, chemical, 
# crystal, experimental, refinement or atomic coordinate data resulting 
# from the CCDC's data processing and validation procedures.
#
#######################################################################

data_VEWKIT
_symmetry_cell_setting           monoclinic
_symmetry_space_group_name_H-M   'P 21/c'
_symmetry_Int_Tables_number      14
_space_group_name_Hall           '-P 2ybc'
loop_
_symmetry_equiv_pos_site_id
_symmetry_equiv_pos_as_xyz
1 x,y,z
2 -x,1/2+y,1/2-z
3 -x,-y,-z
4 x,1/2-y,1/2+z
_cell_length_a                   14.1863(18)
_cell_length_b                   21.024(3)
_cell_length_c                   11.6070(15)
_cell_angle_alpha                90
_cell_angle_beta                 94.390(2)
_cell_angle_gamma                90
_cell_volume                     3451.66
loop_
_atom_site_label
_atom_site_type_symbol
_atom_site_fract_x
_atom_site_fract_y
_atom_site_fract_z
C1 C 0.12133(18) 0.90295(13) 0.7592(2)
H1 H 0.0971 0.8716 0.8052
C2 C 0.20421(18) 0.89085(14) 0.7106(2)
H2 H 0.2347 0.8520 0.7235
C3 C 0.24293(17) 0.93677(13) 0.6419(2)
C4 C 0.19471(18) 0.99350(14) 0.6280(2)
H3 H 0.2185 1.0260 0.5843
C5 C 0.11063(17) 1.00201(12) 0.6794(2)
H4 H 0.0789 1.0405 0.6684
C6 C 0.33176(17) 0.92516(14) 0.5854(2)
C7 C 0.39833(18) 0.88248(15) 0.6356(3)
H5 H 0.3876 0.8634 0.7057
C8 C 0.48058(19) 0.86790(15) 0.5824(3)
C9 C 0.49795(19) 0.89905(15) 0.4814(3)
H6 H 0.5535 0.8912 0.4461
C10 C 0.43241(19) 0.94199(14) 0.4331(2)
C11 C 0.34932(19) 0.95527(14) 0.4822(2)
H7 H 0.3058 0.9837 0.4472
C12 C 0.5451(2) 0.81913(17) 0.6383(3)
C13 C 0.5136(3) 0.7733(2) 0.7087(4)
H8 H 0.4498 0.7714 0.7218
C14 C 0.5756(3) 0.7295(2) 0.7609(4)
H9 H 0.5517 0.7006 0.8118
C15 C 0.6945(3) 0.7694(3) 0.6759(5)
H10 H 0.7581 0.7686 0.6616
C16 C 0.6392(2) 0.8169(2) 0.6226(4)
H11 H 0.6662 0.8471 0.5766
C17 C 0.46309(19) 0.94340(13) 0.2340(2)
C18 C 0.5419(2) 0.95763(14) 0.1769(2)
H12 H 0.5866 0.9863 0.2086
C19 C 0.55429(18) 0.92851(13) 0.0707(2)
C20 C 0.48659(18) 0.88532(14) 0.0267(2)
H13 H 0.4945 0.8658 -0.0438
C21 C 0.40744(18) 0.87047(13) 0.0850(3)
C22 C 0.39556(18) 0.90097(13) 0.1894(2)
H14 H 0.3423 0.8928 0.2290
C23 C 0.33855(19) 0.82199(14) 0.0372(3)
C24 C 0.3653(2) 0.77267(16) -0.0307(3)
H15 H 0.4276 0.7702 -0.0503
C25 C 0.3015(2) 0.72699(17) -0.0702(3)
H16 H 0.3221 0.6951 -0.1177
C26 C 0.1860(2) 0.77391(18) 0.0195(4)
H17 H 0.1234 0.7752 0.0380
C27 C 0.2446(2) 0.82235(17) 0.0607(3)
H18 H 0.2210 0.8551 0.1040
C28 C 0.63979(17) 0.94241(13) 0.0077(2)
C29 C 0.7184(2) 0.97175(16) 0.0601(3)
H19 H 0.7180 0.9851 0.1364
C30 C 0.79750(19) 0.98163(16) 0.0014(3)
H20 H 0.8490 1.0019 0.0398
C31 C 0.7272(2) 0.93817(17) -0.1606(3)
H21 H 0.7286 0.9271 -0.2380
C32 C 0.6451(2) 0.92701(17) -0.1077(3)
H22 H 0.5932 0.9091 -0.1495
C33 C -0.08588(17) 0.85609(10) 0.63777(19)
C34 C -0.06664(17) 0.78634(10) 0.61966(19)
C35 C -0.08776(19) 0.75840(11) 0.5126(2)
H23 H -0.1143 0.7827 0.4516
C36 C -0.06949(18) 0.69435(11) 0.4961(2)
H24 H -0.0859 0.6756 0.4248
C37 C -0.02689(16) 0.65816(10) 0.58540(19)
C38 C -0.00655(19) 0.68584(11) 0.6935(2)
H25 H 0.0205 0.6617 0.7545
C39 C -0.02689(19) 0.74945(11) 0.7096(2)
H26 H -0.0136 0.7677 0.7819
C40 C 0.00420(15) 0.59093(10) 0.56405(19)
Co1 Co -0.063264(19) 0.965801(13) 0.81427(2)
N1 N 0.07298(14) 0.95752(10) 0.74412(18)
N2 N 0.6649(2) 0.7258(2) 0.7440(4)
N3 N 0.21163(19) 0.72586(14) -0.0441(3)
N4 N 0.80440(15) 0.96376(9) -0.10786(19)
O1 O 0.45120(15) 0.97661(10) 0.33510(19)
O2 O -0.09107(12) 0.87479(7) 0.73966(14)
O3 O -0.09424(17) 0.89089(8) 0.54944(16)
O4 O 0.00188(12) 0.57223(7) 0.46177(14)
O5 O 0.03434(13) 0.55958(7) 0.65048(14)
O6 O -0.13132(12) 1.00018(8) 0.65774(14)
H27 H -0.1248 0.9744 0.6060
H28 H -0.1194 1.0399 0.6578
Co1_2 Co 0.936736(19) 0.965801(13) -0.18573(2)
Co1A Co 0.063264(19) 0.465801(13) 0.68573(2)
Co1C Co -0.063264(19) 0.534199(13) 0.31427(2)
N4_2 N -0.19560(15) 0.96376(9) 0.89214(19)
O4C O 0.00188(12) 0.92777(7) 0.96177(14)
O5A O -0.03434(13) 1.05958(7) 0.84952(14)
O7 O 0.91636(15) 0.38563(9) 0.06460(18)
H29 H 0.8901 0.3494 0.0683
H30 H 0.9228 0.3949 -0.0056
O8 O 0.2714(3) 0.37060(18) 0.1117(4)
H31 H 0.2683 0.3422 0.1634
H32 H 0.2264 0.3654 0.0598
loop_
_geom_bond_atom_site_label_1
_geom_bond_atom_site_label_2
_geom_bond_site_symmetry_1
_geom_bond_site_symmetry_2
C1 H1 1_555 1_555
C2 C1 1_555 1_555
H2 C2 1_555 1_555
C3 C2 1_555 1_555
C4 C3 1_555 1_555
H3 C4 1_555 1_555
C5 C4 1_555 1_555
H4 C5 1_555 1_555
C6 C3 1_555 1_555
C7 C6 1_555 1_555
H5 C7 1_555 1_555
C8 C7 1_555 1_555
C9 C8 1_555 1_555
H6 C9 1_555 1_555
C10 C9 1_555 1_555
C11 C6 1_555 1_555
H7 C11 1_555 1_555
C12 C8 1_555 1_555
C13 C12 1_555 1_555
H8 C13 1_555 1_555
C14 C13 1_555 1_555
H9 C14 1_555 1_555
C15 H10 1_555 1_555
C16 C12 1_555 1_555
H11 C16 1_555 1_555
C17 C18 1_555 1_555
C18 H12 1_555 1_555
C19 C18 1_555 1_555
C20 C19 1_555 1_555
H13 C20 1_555 1_555
C21 C20 1_555 1_555
C22 C17 1_555 1_555
H14 C22 1_555 1_555
C23 C21 1_555 1_555
C24 C23 1_555 1_555
H15 C24 1_555 1_555
C25 C24 1_555 1_555
H16 C25 1_555 1_555
C26 H17 1_555 1_555
C27 C23 1_555 1_555
H18 C27 1_555 1_555
C28 C19 1_555 1_555
C29 C28 1_555 1_555
H19 C29 1_555 1_555
C30 C29 1_555 1_555
H20 C30 1_555 1_555
C31 H21 1_555 1_555
C32 C28 1_555 1_555
H22 C32 1_555 1_555
C33 C34 1_555 1_555
C34 C35 1_555 1_555
C35 H23 1_555 1_555
C36 C35 1_555 1_555
H24 C36 1_555 1_555
C37 C36 1_555 1_555
C38 C37 1_555 1_555
H25 C38 1_555 1_555
C39 C34 1_555 1_555
H26 C39 1_555 1_555
C40 C37 1_555 1_555
Co1 N1 1_555 1_555
N1 C1 1_555 1_555
N2 C14 1_555 1_555
N3 C25 1_555 1_555
N4 C30 1_555 1_555
O1 C10 1_555 1_555
O2 C33 1_555 1_555
O3 C33 1_555 1_555
O4 C40 1_555 1_555
O5 C40 1_555 1_555
O6 Co1 1_555 1_555
H27 O6 1_555 1_555
H28 O6 1_555 1_555
O7 H29 1_555 1_555
H30 O7 1_555 1_555
O8 H31 1_555 1_555
H32 O8 1_555 1_555
Co1_2 N4 1_555 1_555
Co1A O5 1_555 1_555
Co1C O4 1_555 1_555
N4_2 Co1 1_555 1_555
O4C Co1 1_555 1_555
O5A Co1 1_555 1_555
C5 N1 1_555 1_555
C10 C11 1_555 1_555
C15 C16 1_555 1_555
C15 N2 1_555 1_555
C17 O1 1_555 1_555
C21 C22 1_555 1_555
C26 C27 1_555 1_555
C26 N3 1_555 1_555
C31 C32 1_555 1_555
C31 N4 1_555 1_555
C38 C39 1_555 1_555
Co1 O2 1_555 1_555

#END
