
#######################################################################
#
#                 Cambridge Crystallographic Data Centre
#                                CCDC 
#
#######################################################################
#
# If this CIF has been generated from an entry in the Cambridge 
# Structural Database, then it will include bibliographic, chemical, 
# crystal, experimental, refinement or atomic coordinate data resulting 
# from the CCDC's data processing and validation procedures.
#
#######################################################################

data_VEWXAY
_symmetry_cell_setting           orthorhombic
_symmetry_space_group_name_H-M   'C c c a'
_symmetry_Int_Tables_number      68
_space_group_name_Hall           '-C 2b 2bc'
loop_
_symmetry_equiv_pos_site_id
_symmetry_equiv_pos_as_xyz
1 x,y,z
2 1/2-x,-y,z
3 -x,y,1/2-z
4 1/2+x,-y,1/2-z
5 1/2+x,1/2+y,z
6 -x,1/2-y,z
7 1/2-x,1/2+y,1/2-z
8 x,1/2-y,1/2-z
9 -x,-y,-z
10 1/2+x,y,-z
11 x,-y,1/2+z
12 1/2-x,y,1/2+z
13 1/2-x,1/2-y,-z
14 x,1/2+y,-z
15 1/2+x,1/2-y,1/2+z
16 -x,1/2+y,1/2+z
_cell_length_a                   17.125(2)
_cell_length_b                   40.751(3)
_cell_length_c                   24.938(2)
_cell_angle_alpha                90
_cell_angle_beta                 90
_cell_angle_gamma                90
_cell_volume                     17403.3
loop_
_atom_site_label
_atom_site_type_symbol
_atom_site_fract_x
_atom_site_fract_y
_atom_site_fract_z
C1 C 0.2077(2) 0.06110(8) 0.48394(14)
H1 H 0.1633 0.0614 0.5055
C2 C 0.2135(2) 0.08419(9) 0.44309(14)
H2 H 0.1744 0.0998 0.4383
C3 C 0.2763(2) 0.08380(9) 0.41036(15)
C4 C 0.3323(2) 0.06089(9) 0.42106(16)
H3 H 0.3772 0.0599 0.4002
C5 C 0.3222(2) 0.03928(9) 0.46272(14)
H4 H 0.3613 0.0239 0.4691
C6 C 0.2262(2) 0.12659(9) 0.35441(15)
H5 H 0.2108 0.1393 0.3855
H6 H 0.1809 0.1150 0.3409
C7 C 0.25963(19) 0.14872(8) 0.31155(13)
C8 C 0.3266(2) 0.16916(9) 0.33364(14)
H7 H 0.3687 0.1551 0.3460
H8 H 0.3468 0.1838 0.3063
C9 C 0.3428(2) 0.19909(9) 0.41584(15)
C10 C 0.4224(2) 0.19914(9) 0.41355(16)
H9 H 0.4483 0.1908 0.3837
C11 C 0.4636(2) 0.21171(9) 0.45622(15)
H10 H 0.5179 0.2119 0.4543
C12 C 0.3525(2) 0.22296(8) 0.50193(15)
H11 H 0.3279 0.2307 0.5327
C13 C 0.3059(2) 0.21143(8) 0.46034(15)
H12 H 0.2517 0.2120 0.4626
C14 C 0.2955(2) 0.12829(9) 0.26441(14)
H13 H 0.3161 0.1424 0.2365
H14 H 0.3366 0.1138 0.2770
C15 C 0.2403(2) 0.08732(9) 0.20658(15)
C16 C 0.3071(2) 0.07962(9) 0.18490(15)
H15 H 0.3529 0.0895 0.1968
C17 C 0.3094(2) 0.05623(9) 0.14329(15)
H16 H 0.3570 0.0521 0.1267
C18 C 0.1851(2) 0.04664(9) 0.15010(15)
H17 H 0.1406 0.0352 0.1396
C19 C 0.1767(2) 0.07007(9) 0.19116(15)
H18 H 0.1285 0.0736 0.2073
C20 C 0.1938(2) 0.16981(9) 0.29214(15)
H19 H 0.1544 0.1563 0.2750
H20 H 0.1698 0.1810 0.3222
C21 C 0.17460(19) 0.20651(8) 0.21815(13)
C22 C 0.0981(2) 0.19846(10) 0.21303(16)
H21 H 0.0752 0.1834 0.2363
C23 C 0.0548(2) 0.21285(9) 0.17304(15)
H22 H 0.0022 0.2074 0.1707
C24 C 0.1561(2) 0.24356(9) 0.14550(14)
H23 H 0.1765 0.2598 0.1233
C25 C 0.2027(2) 0.23051(9) 0.18487(14)
H24 H 0.2537 0.2380 0.1890
C26 C 0.4446(2) 0.02211(9) 0.55671(15)
H25 H 0.4774 0.0188 0.5260
H26 H 0.4762 0.0232 0.5884
H27 H 0.4161 0.0422 0.5526
Cd1 Cd 0.0000 0.2500 0.067738(13)
Cd2 Cd 0.2500 0.0000 0.560708(14)
N1 N 0.26133(17) 0.03901(7) 0.49365(13)
N2 N 0.42910(17) 0.22368(7) 0.50050(12)
N3 N 0.08271(17) 0.23377(7) 0.13790(11)
N4 N 0.24741(17) 0.03997(7) 0.12671(12)
N5 N -0.09365(19) 0.18245(8) 0.05952(12)
O1 O 0.28773(14) 0.10362(6) 0.36851(10)
O2 O 0.29445(14) 0.18742(6) 0.37729(10)
O3 O 0.22589(16) 0.10928(6) 0.24520(11)
O4 O 0.22420(15) 0.19377(6) 0.25393(10)
O5 O 0.38999(15) -0.00511(6) 0.56141(10)
O6 O -0.05204(15) 0.17851(6) 0.09135(11)
O7 O -0.12531(16) 0.15886(6) 0.04365(11)
O8 O -0.10092(14) 0.20992(6) 0.04693(10)
C1A C 0.2923(2) -0.06110(8) 0.48394(14)
H1A H 0.3367 -0.0614 0.5055
C2A C 0.2865(2) -0.08419(9) 0.44309(14)
H2A H 0.3256 -0.0998 0.4383
C3A C 0.2237(2) -0.08380(9) 0.41036(15)
C4A C 0.1677(2) -0.06089(9) 0.42106(16)
H3A H 0.1228 -0.0599 0.4002
C5A C 0.1778(2) -0.03928(9) 0.46272(14)
H4A H 0.1387 -0.0239 0.4691
C6A C 0.2738(2) -0.12659(9) 0.35441(15)
H5A H 0.2892 -0.1393 0.3855
H6A H 0.3191 -0.1150 0.3409
C7A C 0.24037(19) -0.14872(8) 0.31155(13)
C8A C 0.1734(2) -0.16916(9) 0.33364(14)
H7A H 0.1313 -0.1551 0.3460
H8A H 0.1532 -0.1838 0.3063
C9A C 0.1572(2) -0.19909(9) 0.41584(15)
C10A C 0.0776(2) -0.19914(9) 0.41355(16)
H9A H 0.0517 -0.1908 0.3837
C11A C 0.0364(2) -0.21171(9) 0.45622(15)
H10A H -0.0179 -0.2119 0.4543
C12A C 0.1475(2) -0.22296(8) 0.50193(15)
H11A H 0.1721 -0.2307 0.5327
C13A C 0.1941(2) -0.21143(8) 0.46034(15)
H12A H 0.2483 -0.2120 0.4626
C14A C 0.2045(2) -0.12829(9) 0.26441(14)
H13A H 0.1839 -0.1424 0.2365
H14A H 0.1634 -0.1138 0.2770
C15A C 0.2597(2) -0.08732(9) 0.20658(15)
C16A C 0.1929(2) -0.07962(9) 0.18490(15)
H15A H 0.1471 -0.0895 0.1968
C17A C 0.1906(2) -0.05623(9) 0.14329(15)
H16A H 0.1430 -0.0521 0.1267
C18A C 0.3149(2) -0.04664(9) 0.15010(15)
H17A H 0.3594 -0.0352 0.1396
C19A C 0.3233(2) -0.07007(9) 0.19116(15)
H18A H 0.3715 -0.0736 0.2073
C20A C 0.3062(2) -0.16981(9) 0.29214(15)
H19A H 0.3456 -0.1563 0.2750
H20A H 0.3302 -0.1810 0.3222
C21A C 0.32540(19) -0.20651(8) 0.21815(13)
C22A C 0.4019(2) -0.19846(10) 0.21303(16)
H21A H 0.4248 -0.1834 0.2363
C23A C 0.4452(2) -0.21285(9) 0.17304(15)
H22A H 0.4978 -0.2074 0.1707
C24A C 0.3439(2) -0.24356(9) 0.14550(14)
H23A H 0.3235 -0.2598 0.1233
C25A C 0.2973(2) -0.23051(9) 0.18487(14)
H24A H 0.2463 -0.2380 0.1890
C26A C 0.0554(2) -0.02211(9) 0.55671(15)
H25A H 0.0226 -0.0188 0.5260
H26A H 0.0238 -0.0232 0.5884
H27A H 0.0839 -0.0422 0.5526
N1A N 0.23867(17) -0.03901(7) 0.49365(13)
N2A N 0.07090(17) -0.22368(7) 0.50050(12)
N3A N 0.41729(17) -0.23377(7) 0.13790(11)
N4A N 0.25259(17) -0.03997(7) 0.12671(12)
O1A O 0.21227(14) -0.10362(6) 0.36851(10)
O2A O 0.20555(14) -0.18742(6) 0.37729(10)
O3A O 0.27411(16) -0.10928(6) 0.24520(11)
O4A O 0.27580(15) -0.19377(6) 0.25393(10)
O5A O 0.11001(15) 0.00511(6) 0.56141(10)
N5E N 0.09365(19) 0.31755(8) 0.05952(12)
O6E O 0.05204(15) 0.32149(6) 0.09135(11)
O7E O 0.12531(16) 0.34114(6) 0.04365(11)
O8E O 0.10092(14) 0.29008(6) 0.04693(10)
Cd1A Cd 0.5000 -0.2500 0.067738(13)
Cd1J Cd 0.0000 -0.2500 0.567738(13)
Cd1K Cd 0.5000 0.2500 0.567738(13)
Cd2J Cd 0.2500 0.0000 0.060708(14)
N2K N 0.07090(17) 0.22368(7) 0.00050(12)
N2N N -0.07090(17) 0.27632(7) 0.00050(12)
N3E N -0.08271(17) 0.26623(7) 0.13790(11)
N4J N 0.24741(17) -0.03997(7) 0.62671(12)
N4K N 0.25259(17) 0.03997(7) 0.62671(12)
loop_
_geom_bond_atom_site_label_1
_geom_bond_atom_site_label_2
_geom_bond_site_symmetry_1
_geom_bond_site_symmetry_2
C1 H1 1_555 1_555
C2 C1 1_555 1_555
H2 C2 1_555 1_555
C3 C2 1_555 1_555
C4 C3 1_555 1_555
H3 C4 1_555 1_555
C5 C4 1_555 1_555
H4 C5 1_555 1_555
C6 H5 1_555 1_555
H6 C6 1_555 1_555
C7 C6 1_555 1_555
C8 C7 1_555 1_555
H7 C8 1_555 1_555
H8 C8 1_555 1_555
C9 C10 1_555 1_555
C10 H9 1_555 1_555
C11 C10 1_555 1_555
H10 C11 1_555 1_555
C12 H11 1_555 1_555
C13 C9 1_555 1_555
H12 C13 1_555 1_555
C14 C7 1_555 1_555
H13 C14 1_555 1_555
H14 C14 1_555 1_555
C15 C16 1_555 1_555
C16 H15 1_555 1_555
C17 C16 1_555 1_555
H16 C17 1_555 1_555
C18 H17 1_555 1_555
C19 C15 1_555 1_555
H18 C19 1_555 1_555
C20 C7 1_555 1_555
H19 C20 1_555 1_555
H20 C20 1_555 1_555
C21 C22 1_555 1_555
C22 H21 1_555 1_555
C23 C22 1_555 1_555
H22 C23 1_555 1_555
C24 H23 1_555 1_555
C25 C21 1_555 1_555
H24 C25 1_555 1_555
C26 H25 1_555 1_555
H26 C26 1_555 1_555
H27 C26 1_555 1_555
Cd1 N3 1_555 1_555
Cd2 N1 1_555 1_555
N1 C1 1_555 1_555
N2 C11 1_555 1_555
N3 C23 1_555 1_555
N4 C17 1_555 1_555
N5 O6 1_555 1_555
O1 C3 1_555 1_555
O2 C8 1_555 1_555
O3 C14 1_555 1_555
O4 C20 1_555 1_555
O5 C26 1_555 1_555
O7 N5 1_555 1_555
O8 Cd1 1_555 1_555
C1A H1A 1_555 1_555
C2A C1A 1_555 1_555
H2A C2A 1_555 1_555
C3A C2A 1_555 1_555
C4A C3A 1_555 1_555
H3A C4A 1_555 1_555
C5A C4A 1_555 1_555
H4A C5A 1_555 1_555
C6A H5A 1_555 1_555
H6A C6A 1_555 1_555
C7A C6A 1_555 1_555
C8A C7A 1_555 1_555
H7A C8A 1_555 1_555
H8A C8A 1_555 1_555
C9A C10A 1_555 1_555
C10A H9A 1_555 1_555
C11A C10A 1_555 1_555
H10A C11A 1_555 1_555
C12A H11A 1_555 1_555
C13A C9A 1_555 1_555
H12A C13A 1_555 1_555
C14A C7A 1_555 1_555
H13A C14A 1_555 1_555
H14A C14A 1_555 1_555
C15A C16A 1_555 1_555
C16A H15A 1_555 1_555
C17A C16A 1_555 1_555
H16A C17A 1_555 1_555
C18A H17A 1_555 1_555
C19A C15A 1_555 1_555
H18A C19A 1_555 1_555
C20A C7A 1_555 1_555
H19A C20A 1_555 1_555
H20A C20A 1_555 1_555
C21A C22A 1_555 1_555
C22A H21A 1_555 1_555
C23A C22A 1_555 1_555
H22A C23A 1_555 1_555
C24A H23A 1_555 1_555
C25A C21A 1_555 1_555
H24A C25A 1_555 1_555
C26A H25A 1_555 1_555
H26A C26A 1_555 1_555
H27A C26A 1_555 1_555
N1A Cd2 1_555 1_555
N2A C11A 1_555 1_555
N3A C23A 1_555 1_555
N4A C17A 1_555 1_555
O1A C3A 1_555 1_555
O2A C8A 1_555 1_555
O3A C14A 1_555 1_555
O4A C20A 1_555 1_555
O5A Cd2 1_555 1_555
N5E O6E 1_555 1_555
O7E N5E 1_555 1_555
O8E Cd1 1_555 1_555
Cd1A N3A 1_555 1_555
Cd1J N2A 1_555 1_555
Cd1K N2 1_555 1_555
Cd2J N4 1_555 1_555
N2K Cd1 1_555 1_555
N2N Cd1 1_555 1_555
N3E Cd1 1_555 1_555
N4J Cd2 1_555 1_555
N4K Cd2 1_555 1_555
C5 N1 1_555 1_555
C6 O1 1_555 1_555
C9 O2 1_555 1_555
C12 C13 1_555 1_555
C12 N2 1_555 1_555
C15 O3 1_555 1_555
C18 C19 1_555 1_555
C18 N4 1_555 1_555
C21 O4 1_555 1_555
C24 C25 1_555 1_555
C24 N3 1_555 1_555
Cd2 O5 1_555 1_555
N5 O8 1_555 1_555
C1A N1A 1_555 1_555
C5A N1A 1_555 1_555
C6A O1A 1_555 1_555
C9A O2A 1_555 1_555
C12A C13A 1_555 1_555
C12A N2A 1_555 1_555
C15A O3A 1_555 1_555
C18A C19A 1_555 1_555
C18A N4A 1_555 1_555
C21A O4A 1_555 1_555
C24A C25A 1_555 1_555
C24A N3A 1_555 1_555
C26A O5A 1_555 1_555
N4A Cd2J 1_555 1_555
N5E O8E 1_555 1_555

#END
