
#######################################################################
#
#                 Cambridge Crystallographic Data Centre
#                                CCDC 
#
#######################################################################
#
# If this CIF has been generated from an entry in the Cambridge 
# Structural Database, then it will include bibliographic, chemical, 
# crystal, experimental, refinement or atomic coordinate data resulting 
# from the CCDC's data processing and validation procedures.
#
#######################################################################

data_VEWXIG
_symmetry_cell_setting           triclinic
_symmetry_space_group_name_H-M   'P -1'
_symmetry_Int_Tables_number      2
_space_group_name_Hall           '-P 1'
loop_
_symmetry_equiv_pos_site_id
_symmetry_equiv_pos_as_xyz
1 x,y,z
2 -x,-y,-z
_cell_length_a                   10.3619(5)
_cell_length_b                   12.0360(5)
_cell_length_c                   12.3670(6)
_cell_angle_alpha                109.019(4)
_cell_angle_beta                 91.090(4)
_cell_angle_gamma                99.812(4)
_cell_volume                     1432.23
loop_
_atom_site_label
_atom_site_type_symbol
_atom_site_fract_x
_atom_site_fract_y
_atom_site_fract_z
Ag1 Ag 0.03549(3) 0.26872(2) 1.03740(2)
Ag2 Ag 0.0000 0.5000 1.0000
Ag3 Ag 0.0000 0.0000 1.0000
Zn1 Zn 0.33985(4) 0.26379(4) 0.70151(3)
O1 O 0.5025(3) 0.2077(2) 0.7522(2)
N1 N 0.1653(3) 0.2950(3) 0.6257(2)
N2 N 0.2726(3) 0.0947(3) 0.5666(2)
N3 N 0.4209(3) 0.4490(3) 0.7901(2)
N4 N 0.4665(3) 0.3181(3) 0.5750(3)
N5 N 0.2333(3) 0.2420(3) 0.8379(3)
N6 N -0.1660(4) 0.3128(3) 1.2338(3)
N7 N 0.2513(3) 0.6399(3) 1.1770(3)
N8 N 0.2764(4) 0.0266(4) 1.1324(4)
C1 C 0.1097(4) 0.3898(3) 0.6600(3)
H1 H 0.1427 0.4501 0.7285
C2 C 0.0029(4) 0.4035(3) 0.5978(3)
H2 H -0.0348 0.4712 0.6249
C3 C -0.0454(4) 0.3154(3) 0.4959(3)
H3 H -0.1144 0.3243 0.4522
C4 C 0.0094(3) 0.2123(3) 0.4579(3)
C5 C -0.0354(4) 0.1145(3) 0.3542(3)
H4 H -0.1034 0.1194 0.3067
C6 C 0.0186(4) 0.0165(3) 0.3241(3)
H5 H -0.0137 -0.0457 0.2566
C7 C 0.1247(4) 0.0049(3) 0.3930(3)
C8 C 0.1846(4) -0.0974(3) 0.3655(3)
H6 H 0.1572 -0.1614 0.2982
C9 C 0.2827(4) -0.1009(3) 0.4385(3)
H7 H 0.3216 -0.1680 0.4223
C10 C 0.3243(4) -0.0029(3) 0.5380(3)
H8 H 0.3919 -0.0066 0.5866
C11 C 0.1729(3) 0.0992(3) 0.4955(3)
C12 C 0.1155(3) 0.2055(3) 0.5280(3)
C13 C 0.3932(4) 0.5166(3) 0.8926(3)
H9 H 0.3264 0.4843 0.9288
C14 C 0.4588(4) 0.6327(4) 0.9480(3)
H10 H 0.4349 0.6772 1.0190
C15 C 0.5593(4) 0.6812(4) 0.8972(3)
H11 H 0.6049 0.7587 0.9339
C16 C 0.5926(4) 0.6138(3) 0.7905(3)
C17 C 0.6959(4) 0.6578(4) 0.7299(4)
H12 H 0.7476 0.7331 0.7648
C18 C 0.7182(4) 0.5916(4) 0.6240(4)
H13 H 0.7854 0.6221 0.5868
C19 C 0.6418(4) 0.4758(3) 0.5670(3)
C20 C 0.6575(4) 0.4047(4) 0.4531(4)
H14 H 0.7210 0.4332 0.4116
C21 C 0.5807(4) 0.2958(4) 0.4045(3)
H15 H 0.5910 0.2489 0.3299
C22 C 0.4854(4) 0.2546(3) 0.4684(3)
H16 H 0.4330 0.1794 0.4346
C23 C 0.5427(3) 0.4276(3) 0.6235(3)
C24 C 0.5188(3) 0.4980(3) 0.7380(3)
C25 C 0.1637(4) 0.2484(3) 0.9096(3)
C26 C -0.0928(4) 0.2960(3) 1.1650(4)
C27 C 0.1596(4) 0.5892(3) 1.1157(3)
C28 C 0.1791(6) 0.0165(4) 1.0848(4)
H17 H 0.502(6) 0.150(4) 0.776(6)
H18 H 0.575(4) 0.255(5) 0.755(6)
Ag1A Ag -0.03549(3) -0.26872(2) 0.96260(2)
Zn1A Zn -0.33985(4) -0.26379(4) 1.29849(3)
O1A O -0.5025(3) -0.2077(2) 1.2478(2)
N1A N -0.1653(3) -0.2950(3) 1.3743(2)
N2A N -0.2726(3) -0.0947(3) 1.4334(2)
N3A N -0.4209(3) -0.4490(3) 1.2099(2)
N4A N -0.4665(3) -0.3181(3) 1.4250(3)
N5A N -0.2333(3) -0.2420(3) 1.1621(3)
N6A N 0.1660(4) -0.3128(3) 0.7662(3)
N8A N -0.2764(4) -0.0266(4) 0.8676(4)
C1A C -0.1097(4) -0.3898(3) 1.3400(3)
H1A H -0.1427 -0.4501 1.2715
C2A C -0.0029(4) -0.4035(3) 1.4022(3)
H2A H 0.0348 -0.4712 1.3751
C3A C 0.0454(4) -0.3154(3) 1.5041(3)
H3A H 0.1144 -0.3243 1.5478
C4A C -0.0094(3) -0.2123(3) 1.5421(3)
C5A C 0.0354(4) -0.1145(3) 1.6458(3)
H4A H 0.1034 -0.1194 1.6933
C6A C -0.0186(4) -0.0165(3) 1.6759(3)
H5A H 0.0137 0.0457 1.7434
C7A C -0.1247(4) -0.0049(3) 1.6070(3)
C8A C -0.1846(4) 0.0974(3) 1.6345(3)
H6A H -0.1572 0.1614 1.7018
C9A C -0.2827(4) 0.1009(3) 1.5615(3)
H7A H -0.3216 0.1680 1.5777
C10A C -0.3243(4) 0.0029(3) 1.4620(3)
H8A H -0.3919 0.0066 1.4134
C11A C -0.1729(3) -0.0992(3) 1.5045(3)
C12A C -0.1155(3) -0.2055(3) 1.4720(3)
C13A C -0.3932(4) -0.5166(3) 1.1074(3)
H9A H -0.3264 -0.4843 1.0712
C14A C -0.4588(4) -0.6327(4) 1.0520(3)
H10A H -0.4349 -0.6772 0.9810
C15A C -0.5593(4) -0.6812(4) 1.1028(3)
H11A H -0.6049 -0.7587 1.0661
C16A C -0.5926(4) -0.6138(3) 1.2095(3)
C17A C -0.6959(4) -0.6578(4) 1.2701(4)
H12A H -0.7476 -0.7331 1.2352
C18A C -0.7182(4) -0.5916(4) 1.3760(4)
H13A H -0.7854 -0.6221 1.4132
C19A C -0.6418(4) -0.4758(3) 1.4330(3)
C20A C -0.6575(4) -0.4047(4) 1.5469(4)
H14A H -0.7210 -0.4332 1.5884
C21A C -0.5807(4) -0.2958(4) 1.5955(3)
H15A H -0.5910 -0.2489 1.6701
C22A C -0.4854(4) -0.2546(3) 1.5316(3)
H16A H -0.4330 -0.1794 1.5654
C23A C -0.5427(3) -0.4276(3) 1.3765(3)
C24A C -0.5188(3) -0.4980(3) 1.2620(3)
C25A C -0.1637(4) -0.2484(3) 1.0904(3)
C26A C 0.0928(4) -0.2960(3) 0.8350(4)
C28A C -0.1791(6) -0.0165(4) 0.9152(4)
H17A H -0.502(6) -0.150(4) 1.224(6)
H18A H -0.575(4) -0.255(5) 1.245(6)
N7A N -0.2513(3) 0.3601(3) 0.8230(3)
C27A C -0.1596(4) 0.4108(3) 0.8843(3)
Ag1A_2 Ag -0.03549(3) 0.73128(2) 0.96260(2)
Ag2_2 Ag 0.0000 -0.5000 1.0000
O2 O 0.5112(3) 0.0046(3) 0.2236(3)
H19 H 0.4371 -0.0028 0.1944
C29 C 0.6072(6) 0.0141(5) 0.1408(5)
H20 H 0.6289 0.0956 0.1431
H21 H 0.5707 -0.0360 0.0652
H22 H 0.6851 -0.0112 0.1597
loop_
_geom_bond_atom_site_label_1
_geom_bond_atom_site_label_2
_geom_bond_site_symmetry_1
_geom_bond_site_symmetry_2
Ag1 Ag2 1_555 1_555
Ag2 C27 1_555 1_555
Ag3 Ag1 1_555 1_555
Zn1 O1 1_555 1_555
O1 H17 1_555 1_555
N1 Zn1 1_555 1_555
N2 Zn1 1_555 1_555
N3 Zn1 1_555 1_555
N4 Zn1 1_555 1_555
N5 Zn1 1_555 1_555
N6 C26 1_555 1_555
N7 C27 1_555 1_555
N8 C28 1_555 1_555
C1 N1 1_555 1_555
H1 C1 1_555 1_555
C2 C1 1_555 1_555
H2 C2 1_555 1_555
C3 C2 1_555 1_555
H3 C3 1_555 1_555
C4 C3 1_555 1_555
C5 C4 1_555 1_555
H4 C5 1_555 1_555
C6 C5 1_555 1_555
H5 C6 1_555 1_555
C7 C6 1_555 1_555
C8 C7 1_555 1_555
H6 C8 1_555 1_555
C9 C8 1_555 1_555
H7 C9 1_555 1_555
C10 N2 1_555 1_555
H8 C10 1_555 1_555
C11 N2 1_555 1_555
C12 N1 1_555 1_555
C13 N3 1_555 1_555
H9 C13 1_555 1_555
C14 C13 1_555 1_555
H10 C14 1_555 1_555
C15 C14 1_555 1_555
H11 C15 1_555 1_555
C16 C15 1_555 1_555
C17 C16 1_555 1_555
H12 C17 1_555 1_555
C18 C17 1_555 1_555
H13 C18 1_555 1_555
C19 C18 1_555 1_555
C20 C19 1_555 1_555
H14 C20 1_555 1_555
C21 C20 1_555 1_555
H15 C21 1_555 1_555
C22 N4 1_555 1_555
H16 C22 1_555 1_555
C23 N4 1_555 1_555
C24 N3 1_555 1_555
C25 Ag1 1_555 1_555
C26 Ag1 1_555 1_555
C28 Ag3 1_555 1_555
H18 O1 1_555 1_555
O2 H19 1_555 1_555
C29 O2 1_555 1_555
H20 C29 1_555 1_555
H21 C29 1_555 1_555
H22 C29 1_555 1_555
Ag1A Ag3 1_555 1_555
Zn1A O1A 1_555 1_555
O1A H17A 1_555 1_555
N1A Zn1A 1_555 1_555
N2A Zn1A 1_555 1_555
N3A Zn1A 1_555 1_555
N4A Zn1A 1_555 1_555
N5A Zn1A 1_555 1_555
N6A C26A 1_555 1_555
N8A C28A 1_555 1_555
C1A N1A 1_555 1_555
H1A C1A 1_555 1_555
C2A C1A 1_555 1_555
H2A C2A 1_555 1_555
C3A C2A 1_555 1_555
H3A C3A 1_555 1_555
C4A C3A 1_555 1_555
C5A C4A 1_555 1_555
H4A C5A 1_555 1_555
C6A C5A 1_555 1_555
H5A C6A 1_555 1_555
C7A C6A 1_555 1_555
C8A C7A 1_555 1_555
H6A C8A 1_555 1_555
C9A C8A 1_555 1_555
H7A C9A 1_555 1_555
C10A N2A 1_555 1_555
H8A C10A 1_555 1_555
C11A N2A 1_555 1_555
C12A N1A 1_555 1_555
C13A N3A 1_555 1_555
H9A C13A 1_555 1_555
C14A C13A 1_555 1_555
H10A C14A 1_555 1_555
C15A C14A 1_555 1_555
H11A C15A 1_555 1_555
C16A C15A 1_555 1_555
C17A C16A 1_555 1_555
H12A C17A 1_555 1_555
C18A C17A 1_555 1_555
H13A C18A 1_555 1_555
C19A C18A 1_555 1_555
C20A C19A 1_555 1_555
H14A C20A 1_555 1_555
C21A C20A 1_555 1_555
H15A C21A 1_555 1_555
C22A N4A 1_555 1_555
H16A C22A 1_555 1_555
C23A N4A 1_555 1_555
C24A N3A 1_555 1_555
C25A Ag1A 1_555 1_555
C26A Ag1A 1_555 1_555
C28A Ag3 1_555 1_555
H18A O1A 1_555 1_555
N7A C27A 1_555 1_555
C27A Ag2 1_555 1_555
Ag1A_2 Ag2 1_555 1_555
Ag2_2 Ag1A 1_555 1_555
N5 C25 1_555 1_555
C4 C12 1_555 1_555
C7 C11 1_555 1_555
C9 C10 1_555 1_555
C11 C12 1_555 1_555
C16 C24 1_555 1_555
C19 C23 1_555 1_555
C21 C22 1_555 1_555
C23 C24 1_555 1_555
N5A C25A 1_555 1_555
C4A C12A 1_555 1_555
C7A C11A 1_555 1_555
C9A C10A 1_555 1_555
C11A C12A 1_555 1_555
C16A C24A 1_555 1_555
C19A C23A 1_555 1_555
C21A C22A 1_555 1_555
C23A C24A 1_555 1_555

#END
