
#######################################################################
#
#                 Cambridge Crystallographic Data Centre
#                                CCDC 
#
#######################################################################
#
# If this CIF has been generated from an entry in the Cambridge 
# Structural Database, then it will include bibliographic, chemical, 
# crystal, experimental, refinement or atomic coordinate data resulting 
# from the CCDC's data processing and validation procedures.
#
#######################################################################

data_VEXKUF
_symmetry_cell_setting           orthorhombic
_symmetry_space_group_name_H-M   'P 21 21 21'
_symmetry_Int_Tables_number      19
_space_group_name_Hall           'P 2ac 2ab'
loop_
_symmetry_equiv_pos_site_id
_symmetry_equiv_pos_as_xyz
1 x,y,z
2 1/2-x,-y,1/2+z
3 -x,1/2+y,1/2-z
4 1/2+x,1/2-y,-z
_cell_length_a                   10.509(2)
_cell_length_b                   11.628(2)
_cell_length_c                   16.495(3)
_cell_angle_alpha                90
_cell_angle_beta                 90
_cell_angle_gamma                90
_cell_volume                     2015.67
loop_
_atom_site_label
_atom_site_type_symbol
_atom_site_fract_x
_atom_site_fract_y
_atom_site_fract_z
Cd1 Cd 0.55128(4) 0.66499(3) 0.52563(3)
S1 S 0.39714(17) 0.68097(17) 0.65878(11)
C1 C 0.2781(6) 0.7518(5) 0.6142(4)
N1 N 0.1932(5) 0.7972(5) 0.5835(3)
S2 S 0.4625(2) 0.29439(16) 0.38312(15)
C2 C 0.5005(7) 0.4026(6) 0.4419(5)
N2 N 0.5284(6) 0.4782(5) 0.4823(4)
O1 O 0.7277(4) 0.6271(4) 0.5968(3)
O2 O 0.6355(5) 0.5007(5) 0.6798(3)
C3 C 0.7283(6) 0.5499(5) 0.6506(4)
C4 C 0.8598(6) 0.5189(5) 0.6821(4)
C5 C 0.9678(6) 0.5623(6) 0.6456(4)
H1 H 0.9605 0.6102 0.6006
C6 C 1.0861(6) 0.5351(6) 0.6755(5)
H2 H 1.1587 0.5648 0.6509
N3 N 1.0974(5) 0.4649(4) 0.7409(3)
C7 C 0.9933(6) 0.4202(6) 0.7760(4)
H3 H 1.0020 0.3709 0.8201
C8 C 0.8742(7) 0.4466(6) 0.7476(5)
H4 H 0.8028 0.4155 0.7727
C9 C 1.2256(6) 0.4416(6) 0.7726(4)
H5 H 1.2207 0.4308 0.8308
H6 H 1.2795 0.5078 0.7623
C10 C 1.2864(7) 0.3353(6) 0.7343(4)
H7 H 1.2273 0.2714 0.7381
H8 H 1.3621 0.3150 0.7648
C11 C 1.3224(8) 0.3536(6) 0.6456(5)
H9 H 1.2462 0.3646 0.6134
H10 H 1.3748 0.4219 0.6404
N4 N 1.3939(6) 0.2512(4) 0.6156(4)
C12 C 1.5204(7) 0.2534(5) 0.6152(5)
H11 H 1.5629 0.3194 0.6320
C13 C 1.5889(6) 0.1596(6) 0.5902(4)
H12 H 1.6773 0.1614 0.5902
C14 C 1.5242(5) 0.0618(5) 0.5650(4)
C15 C 1.3938(7) 0.0607(6) 0.5678(6)
H13 H 1.3491 -0.0053 0.5534
C16 C 1.3301(6) 0.1569(6) 0.5917(5)
H14 H 1.2416 0.1573 0.5916
C17 C 1.5987(6) -0.0452(5) 0.5391(4)
O3 O 1.5388(5) -0.1377(3) 0.5417(3)
O4 O 1.7103(4) -0.0283(4) 0.5168(4)
O5 O 0.3770(3) 0.6867(3) 0.4419(3)
H15 H 0.3244 0.7524 0.4282
H16 H 0.3156 0.6282 0.4571
Cd1C Cd 0.05128(4) 0.83501(3) 0.47437(3)
Cd1_2 Cd 1.55128(4) -0.33501(3) 0.52563(3)
N1C N 0.6932(5) 0.7028(5) 0.4165(3)
O3_2 O 0.5388(5) 0.8623(3) 0.5417(3)
loop_
_geom_bond_atom_site_label_1
_geom_bond_atom_site_label_2
_geom_bond_site_symmetry_1
_geom_bond_site_symmetry_2
Cd1 S1 1_555 1_555
S1 C1 1_555 1_555
C1 N1 1_555 1_555
N1 Cd1C 1_555 1_555
S2 C2 1_555 1_555
C2 N2 1_555 1_555
N2 Cd1 1_555 1_555
O1 Cd1 1_555 1_555
O2 C3 1_555 1_555
C3 O1 1_555 1_555
C4 C3 1_555 1_555
C5 C4 1_555 1_555
H1 C5 1_555 1_555
C6 C5 1_555 1_555
H2 C6 1_555 1_555
N3 C6 1_555 1_555
C7 N3 1_555 1_555
H3 C7 1_555 1_555
C8 C4 1_555 1_555
H4 C8 1_555 1_555
C9 N3 1_555 1_555
H5 C9 1_555 1_555
H6 C9 1_555 1_555
C10 C9 1_555 1_555
H7 C10 1_555 1_555
H8 C10 1_555 1_555
C11 C10 1_555 1_555
H9 C11 1_555 1_555
H10 C11 1_555 1_555
N4 C11 1_555 1_555
C12 N4 1_555 1_555
H11 C12 1_555 1_555
C13 C12 1_555 1_555
H12 C13 1_555 1_555
C14 C13 1_555 1_555
C15 C14 1_555 1_555
H13 C15 1_555 1_555
C16 N4 1_555 1_555
H14 C16 1_555 1_555
C17 C14 1_555 1_555
O3 C17 1_555 1_555
O4 C17 1_555 1_555
O5 Cd1 1_555 1_555
H15 O5 1_555 1_555
H16 O5 1_555 1_555
Cd1_2 O3 1_555 1_555
N1C Cd1 1_555 1_555
O3_2 Cd1 1_555 1_555
C7 C8 1_555 1_555
C15 C16 1_555 1_555

#END
