
#######################################################################
#
#                 Cambridge Crystallographic Data Centre
#                                CCDC 
#
#######################################################################
#
# If this CIF has been generated from an entry in the Cambridge 
# Structural Database, then it will include bibliographic, chemical, 
# crystal, experimental, refinement or atomic coordinate data resulting 
# from the CCDC's data processing and validation procedures.
#
#######################################################################

data_VEXMOC
_symmetry_cell_setting           monoclinic
_symmetry_space_group_name_H-M   'C 2/c'
_symmetry_Int_Tables_number      15
_space_group_name_Hall           '-C 2yn'
loop_
_symmetry_equiv_pos_site_id
_symmetry_equiv_pos_as_xyz
1 x,y,z
2 -x,y,1/2-z
3 1/2+x,1/2+y,z
4 1/2-x,1/2+y,1/2-z
5 -x,-y,-z
6 x,-y,1/2+z
7 1/2-x,1/2-y,-z
8 1/2+x,1/2-y,1/2+z
_cell_length_a                   23.5790(11)
_cell_length_b                   9.9671(2)
_cell_length_c                   20.2015(18)
_cell_angle_alpha                90
_cell_angle_beta                 114.428(4)
_cell_angle_gamma                90
_cell_volume                     4322.64
loop_
_atom_site_label
_atom_site_type_symbol
_atom_site_fract_x
_atom_site_fract_y
_atom_site_fract_z
Co1 Co 0.89978(5) 0.19945(10) 0.39217(5)
Co2 Co 0.94846(4) -0.11622(9) 0.44481(4)
C1 C 1.1950(5) -0.0191(12) 0.3863(5)
H1 H 1.1871 -0.0933 0.3533
H2 H 1.2284 -0.0416 0.4319
H3 H 1.2063 0.0584 0.3662
C2 C 1.1394(4) 0.0096(9) 0.3974(4)
C3 C 1.0751(4) -0.0619(8) 0.3614(4)
H4 H 1.0723 -0.1283 0.3278
C4 C 1.0235(3) -0.0413(7) 0.3720(3)
C5 C 1.0421(3) 0.0537(7) 0.4252(3)
C6 C 1.1026(3) 0.1373(7) 0.4568(3)
C7 C 1.1517(3) 0.1130(6) 0.4433(3)
H5 H 1.1891 0.1603 0.4627
C8 C 0.8582(3) -0.2577(6) 0.2984(3)
H6 H 0.8316 -0.1807 0.2938
H7 H 0.8568 -0.2758 0.2506
C9 C 0.8321(4) -0.3717(7) 0.3200(4)
H8 H 0.7871 -0.3635 0.3011
H9 H 0.8421 -0.4541 0.3016
C10 C 0.8589(4) -0.3724(7) 0.3975(4)
H10 H 0.9003 -0.4114 0.4152
H11 H 0.8338 -0.4283 0.4142
C11 C 0.8877(4) -0.2624(7) 0.5028(3)
H12 H 0.9271 -0.3095 0.5179
H13 H 0.8593 -0.3190 0.5138
C12 C 0.7919(4) -0.1679(8) 0.3832(4)
H14 H 0.7719 -0.2041 0.3343
H15 H 0.7658 -0.1875 0.4086
C13 C 0.8002(3) -0.0193(8) 0.3802(3)
C14 C 0.9898(4) -0.3215(7) 0.3833(3)
H16 H 1.0051 -0.3264 0.3456
H17 H 0.9708 -0.4077 0.3835
C15 C 1.0529(4) -0.3106(7) 0.4627(4)
C16 C 0.9934(4) 0.3200(11) 0.2776(4)
H18 H 1.0112 0.3983 0.3075
H19 H 1.0102 0.2403 0.3068
C17 C 0.9164(4) 0.3222(11) 0.2466(4)
H20 H 0.9004 0.4121 0.2316
H21 H 0.8977 0.2622 0.2053
C18 C 0.9045(4) 0.2830(8) 0.2996(4)
N1 N 0.9343(3) -0.2142(6) 0.3560(3)
N2 N 0.8633(3) -0.2389(6) 0.4277(3)
O1 O 0.9980(2) 0.0642(5) 0.4443(2)
O2 O 0.8622(2) 0.0183(5) 0.3973(2)
O3 O 0.7494(3) 0.0567(6) 0.3597(3)
O4 O 1.0401(2) -0.2391(5) 0.4999(2)
O5 O 1.1110(3) -0.3687(6) 0.4903(3)
O6 O 0.9398(3) 0.3412(6) 0.3600(3)
O7 O 0.8622(3) 0.1883(6) 0.2849(3)
C19 C 0.9515(4) -0.1002(7) 0.3215(3)
H22 H 0.9216 -0.0284 0.3132
H23 H 0.9493 -0.1284 0.2745
O8 O 0.8067(3) 0.3009(5) 0.3660(3)
H24 H 0.8205(16) 0.347(6) 0.405(2)
H25 H 0.780(3) 0.241(7) 0.362(4)
C1D C 0.8050(5) 0.0191(12) 0.6137(5)
H1D H 0.8129 0.0933 0.6467
H2D H 0.7716 0.0416 0.5681
H3D H 0.7937 -0.0584 0.6338
C2D C 0.8606(4) -0.0096(9) 0.6026(4)
C3D C 0.9249(4) 0.0619(8) 0.6386(4)
H4D H 0.9277 0.1283 0.6722
C4D C 0.9765(3) 0.0413(7) 0.6280(3)
C5D C 0.9579(3) -0.0537(7) 0.5748(3)
C6D C 0.8974(3) -0.1373(7) 0.5432(3)
C7D C 0.8483(3) -0.1130(6) 0.5567(3)
H5D H 0.8109 -0.1603 0.5373
C8D C 1.1418(3) 0.2577(6) 0.7016(3)
H6D H 1.1684 0.1807 0.7062
H7D H 1.1432 0.2758 0.7494
C9D C 1.1679(4) 0.3717(7) 0.6800(4)
H8D H 1.2129 0.3635 0.6989
H9D H 1.1579 0.4541 0.6984
C10D C 1.1411(4) 0.3724(7) 0.6025(4)
H10D H 1.0997 0.4114 0.5848
H11D H 1.1662 0.4283 0.5858
C11D C 1.1123(4) 0.2624(7) 0.4972(3)
H12D H 1.0729 0.3095 0.4821
H13D H 1.1407 0.3190 0.4862
C12D C 1.2081(4) 0.1679(8) 0.6168(4)
H14D H 1.2281 0.2041 0.6657
H15D H 1.2342 0.1875 0.5914
C13D C 1.1998(3) 0.0193(8) 0.6198(3)
C14D C 1.0102(4) 0.3215(7) 0.6167(3)
H16D H 0.9949 0.3264 0.6544
H17D H 1.0292 0.4077 0.6165
C15D C 0.9471(4) 0.3106(7) 0.5373(4)
N1D N 1.0657(3) 0.2142(6) 0.6440(3)
N2D N 1.1367(3) 0.2389(6) 0.5723(3)
O1D O 1.0020(2) -0.0642(5) 0.5557(2)
O2D O 1.1378(2) -0.0183(5) 0.6027(2)
O3D O 1.2506(3) -0.0567(6) 0.6403(3)
O4D O 0.9599(2) 0.2391(5) 0.5001(2)
O5D O 0.8890(3) 0.3687(6) 0.5097(3)
C19D C 1.0485(4) 0.1002(7) 0.6785(3)
H22D H 1.0784 0.0284 0.6868
H23D H 1.0507 0.1284 0.7255
C16A C 1.0066(4) 0.3200(11) 0.2224(4)
H18A H 0.9888 0.3983 0.1925
H19A H 0.9898 0.2403 0.1932
C17A C 1.0836(4) 0.3222(11) 0.2534(4)
H20A H 1.0996 0.4121 0.2684
H21A H 1.1023 0.2622 0.2947
C18A C 1.0955(4) 0.2830(8) 0.2004(4)
O6A O 1.0602(3) 0.3412(6) 0.1400(3)
O7A O 1.1378(3) 0.1883(6) 0.2151(3)
Co1A Co 1.10022(5) 0.19945(10) 0.10783(5)
O8A O 1.1933(3) 0.3009(5) 0.1340(3)
H24A H 1.1795(16) 0.347(6) 0.095(2)
H25A H 1.220(3) 0.241(7) 0.138(4)
Co2D Co 1.05154(4) 0.11622(9) 0.55519(4)
Co1D Co 1.10022(5) -0.19945(10) 0.60783(5)
O2A O 1.1378(2) 0.0183(5) 0.1027(2)
O4E O 1.0401(2) 0.2391(5) -0.0001(2)
O9 O 1.1400(9) -0.430(3) 0.3855(11)
H26 H 1.148(11) -0.351(9) 0.376(12)
O10 O 1.0000 -0.347(4) 0.2500
loop_
_geom_bond_atom_site_label_1
_geom_bond_atom_site_label_2
_geom_bond_site_symmetry_1
_geom_bond_site_symmetry_2
Co1 O2 1_555 1_555
Co2 N1 1_555 1_555
C1 H1 1_555 1_555
H2 C1 1_555 1_555
H3 C1 1_555 1_555
C2 C1 1_555 1_555
C3 C2 1_555 1_555
H4 C3 1_555 1_555
C4 C3 1_555 1_555
C5 C4 1_555 1_555
C6 C5 1_555 1_555
C7 C2 1_555 1_555
H5 C7 1_555 1_555
C8 H6 1_555 1_555
H7 C8 1_555 1_555
C9 C8 1_555 1_555
H8 C9 1_555 1_555
H9 C9 1_555 1_555
C10 C9 1_555 1_555
H10 C10 1_555 1_555
H11 C10 1_555 1_555
C11 H12 1_555 1_555
H13 C11 1_555 1_555
C12 H14 1_555 1_555
H15 C12 1_555 1_555
C13 C12 1_555 1_555
C14 H16 1_555 1_555
H17 C14 1_555 1_555
C15 C14 1_555 1_555
C16 H18 1_555 1_555
H19 C16 1_555 1_555
C17 C16 1_555 1_555
H20 C17 1_555 1_555
H21 C17 1_555 1_555
C18 C17 1_555 1_555
N1 C8 1_555 1_555
N2 Co2 1_555 1_555
O1 Co2 1_555 1_555
O2 Co2 1_555 1_555
O3 C13 1_555 1_555
O4 Co2 1_555 1_555
O5 C15 1_555 1_555
O6 Co1 1_555 1_555
O7 Co1 1_555 1_555
C19 C4 1_555 1_555
H22 C19 1_555 1_555
H23 C19 1_555 1_555
O8 Co1 1_555 1_555
H24 O8 1_555 1_555
H25 O8 1_555 1_555
O9 H26 1_555 1_555
C1D H1D 1_555 1_555
H2D C1D 1_555 1_555
H3D C1D 1_555 1_555
C2D C1D 1_555 1_555
C3D C2D 1_555 1_555
H4D C3D 1_555 1_555
C4D C3D 1_555 1_555
C5D C4D 1_555 1_555
C6D C11 1_555 1_555
C7D C2D 1_555 1_555
H5D C7D 1_555 1_555
C8D H6D 1_555 1_555
H7D C8D 1_555 1_555
C9D C8D 1_555 1_555
H8D C9D 1_555 1_555
H9D C9D 1_555 1_555
C10D C9D 1_555 1_555
H10D C10D 1_555 1_555
H11D C10D 1_555 1_555
C11D C6 1_555 1_555
H12D C11D 1_555 1_555
H13D C11D 1_555 1_555
C12D H14D 1_555 1_555
H15D C12D 1_555 1_555
C13D C12D 1_555 1_555
C14D H16D 1_555 1_555
H17D C14D 1_555 1_555
C15D C14D 1_555 1_555
N1D C8D 1_555 1_555
N2D C10D 1_555 1_555
O1D Co2 1_555 1_555
O2D C13D 1_555 1_555
O3D C13D 1_555 1_555
O4D Co1 1_555 1_555
O5D C15D 1_555 1_555
C19D C4D 1_555 1_555
H22D C19D 1_555 1_555
H23D C19D 1_555 1_555
C16A C16 1_555 1_555
H18A C16A 1_555 1_555
H19A C16A 1_555 1_555
C17A C16A 1_555 1_555
H20A C17A 1_555 1_555
H21A C17A 1_555 1_555
C18A C17A 1_555 1_555
O6A C18A 1_555 1_555
O7A C18A 1_555 1_555
Co1A O6A 1_555 1_555
O8A Co1A 1_555 1_555
H24A O8A 1_555 1_555
H25A O8A 1_555 1_555
Co2D O1 1_555 1_555
Co1D O4 1_555 1_555
O2A Co1A 1_555 1_555
O4E Co1A 1_555 1_555
C5 O1 1_555 1_555
C6 C7 1_555 1_555
C10 N2 1_555 1_555
C11 N2 1_555 1_555
C12 N2 1_555 1_555
C13 O2 1_555 1_555
C14 N1 1_555 1_555
C15 O4 1_555 1_555
C18 O6 1_555 1_555
C18 O7 1_555 1_555
N1 C19 1_555 1_555
C5D C6D 1_555 1_555
C5D O1D 1_555 1_555
C6D C7D 1_555 1_555
C11D N2D 1_555 1_555
C12D N2D 1_555 1_555
C14D N1D 1_555 1_555
C15D O4D 1_555 1_555
N1D C19D 1_555 1_555
N1D Co2D 1_555 1_555
N2D Co2D 1_555 1_555
O1D Co2D 1_555 1_555
O2D Co2D 1_555 1_555
O2D Co1D 1_555 1_555
O4D Co2D 1_555 1_555
O7A Co1A 1_555 1_555

#END
