
#######################################################################
#
#                 Cambridge Crystallographic Data Centre
#                                CCDC 
#
#######################################################################
#
# If this CIF has been generated from an entry in the Cambridge 
# Structural Database, then it will include bibliographic, chemical, 
# crystal, experimental, refinement or atomic coordinate data resulting 
# from the CCDC's data processing and validation procedures.
#
#######################################################################

data_VEXQIA
_symmetry_cell_setting           monoclinic
_symmetry_space_group_name_H-M   'P 21/c'
_symmetry_Int_Tables_number      14
_space_group_name_Hall           '-P 2ybc'
loop_
_symmetry_equiv_pos_site_id
_symmetry_equiv_pos_as_xyz
1 x,y,z
2 -x,1/2+y,1/2-z
3 -x,-y,-z
4 x,1/2-y,1/2+z
_cell_length_a                   16.354(3)
_cell_length_b                   24.747(5)
_cell_length_c                   19.137(4)
_cell_angle_alpha                90
_cell_angle_beta                 112.85(3)
_cell_angle_gamma                90
_cell_volume                     7137.19
loop_
_atom_site_label
_atom_site_type_symbol
_atom_site_fract_x
_atom_site_fract_y
_atom_site_fract_z
O2 O 0.8865(5) 0.1350(2) 0.7835(4)
Cl4 Cl 0.89515(14) 0.20191(8) 1.03726(12)
K1 K 0.87670(8) 0.25003(5) 1.21615(7)
K2 K 0.90192(9) 0.16354(5) 0.90582(8)
C1 C 1.0991(3) 0.23472(19) 1.2160(2)
C2 C 1.1800(3) 0.17911(19) 1.1674(3)
C3 C 1.1804(3) 0.23797(18) 1.1386(2)
C4 C 1.1105(3) 0.18057(19) 1.0345(3)
C5 C 1.1121(3) 0.32551(19) 1.1660(3)
H1 H 1.1072 0.3389 1.2124
H2 H 1.1634 0.3433 1.1615
C6 C 1.1179(3) 0.27557(19) 0.9995(3)
H3 H 1.1687 0.3003 1.0170
H4 H 1.1151 0.2592 0.9519
C7 C 0.9520(3) 0.34705(17) 1.1074(3)
C8 C 1.0290(3) 0.35481(17) 1.0268(2)
C9 C 0.9303(3) 0.37179(18) 0.9829(3)
C10 C 0.9615(3) 0.29493(18) 0.9234(3)
C11 C 0.7990(3) 0.37565(18) 1.0281(3)
H5 H 0.7978 0.3855 1.0773
H6 H 0.7799 0.4073 0.9950
C12 C 0.8091(3) 0.33307(18) 0.8608(2)
H7 H 0.7882 0.3705 0.8513
H8 H 0.8118 0.3190 0.8139
C13 C 0.7105(3) 0.29833(18) 1.0400(3)
C14 C 0.6871(3) 0.32332(18) 0.9138(2)
C15 C 0.6272(3) 0.27271(18) 0.9125(2)
C16 C 0.7276(3) 0.24848(19) 0.8570(2)
C17 C 0.6067(3) 0.22282(18) 1.0229(3)
H9 H 0.5450 0.2186 0.9873
H10 H 0.6059 0.2360 1.0710
C18 C 0.6238(3) 0.17670(17) 0.8575(2)
H11 H 0.5595 0.1790 0.8435
H12 H 0.6338 0.1639 0.8131
C19 C 0.7089(3) 0.15422(19) 1.1040(3)
C20 C 0.6280(3) 0.12664(17) 0.9789(2)
C21 C 0.6905(3) 0.07925(17) 1.0242(2)
C22 C 0.7290(3) 0.10485(18) 0.9221(3)
C23 C 0.7982(3) 0.07304(18) 1.1638(2)
H13 H 0.7786 0.0353 1.1600
H14 H 0.7949 0.0882 1.2100
C24 C 0.8156(3) 0.02870(18) 0.9971(3)
H15 H 0.7957 -0.0041 1.0144
H16 H 0.8220 0.0202 0.9495
C25 C 0.9494(3) 0.11338(18) 1.2136(2)
C26 C 0.9338(3) 0.03702(18) 1.1356(2)
C27 C 1.0323(3) 0.05736(17) 1.1652(2)
C28 C 0.9681(3) 0.06304(18) 1.0317(3)
C29 C 1.1063(3) 0.13877(19) 1.2536(3)
H17 H 1.1593 0.1159 1.2736
H18 H 1.0966 0.1542 1.2970
C30 C 1.1261(3) 0.08956(17) 1.0901(3)
H19 H 1.1268 0.0778 1.0415
H20 H 1.1764 0.0723 1.1304
C31 C 1.2737(3) 0.1585(2) 1.2183(3)
H21 H 1.2953 0.1787 1.2660
H22 H 1.2700 0.1203 1.2302
C32 C 1.3392(4) 0.1646(2) 1.1805(3)
H23 H 1.3278 0.1365 1.1418
H24 H 1.3995 0.1593 1.2184
C33 C 1.3339(4) 0.2207(3) 1.1428(3)
H25 H 1.3938 0.2360 1.1598
H26 H 1.3121 0.2159 1.0877
C34 C 1.2749(3) 0.2601(2) 1.1603(3)
H27 H 1.2723 0.2937 1.1325
H28 H 1.3003 0.2684 1.2146
C35 C 1.0953(3) 0.39866(19) 1.0267(3)
H29 H 1.0948 0.4280 1.0609
H30 H 1.1553 0.3833 1.0453
C36 C 1.0718(4) 0.4211(2) 0.9470(3)
H31 H 1.1119 0.4512 0.9498
H32 H 1.0823 0.3929 0.9155
C37 C 0.9773(4) 0.4406(2) 0.9088(3)
H33 H 0.9495 0.4223 0.8598
H34 H 0.9778 0.4795 0.8988
C38 C 0.9211(4) 0.43070(18) 0.9555(3)
H35 H 0.8587 0.4385 0.9245
H36 H 0.9404 0.4550 0.9994
C39 C 0.6327(4) 0.37204(19) 0.8736(3)
H37 H 0.6062 0.3651 0.8189
H38 H 0.6718 0.4035 0.8823
C40 C 0.5594(4) 0.3845(2) 0.9018(4)
H39 H 0.5225 0.4138 0.8711
H40 H 0.5865 0.3973 0.9543
C41 C 0.4993(3) 0.3356(2) 0.8986(3)
H41 H 0.5017 0.3281 0.9496
H42 H 0.4378 0.3445 0.8661
C42 C 0.5282(3) 0.2847(2) 0.8674(3)
H43 H 0.4926 0.2538 0.8708
H44 H 0.5177 0.2903 0.8139
C43 C 0.5302(3) 0.1113(2) 0.9471(3)
H45 H 0.4956 0.1404 0.9140
H46 H 0.5102 0.1074 0.9889
C44 C 0.5132(4) 0.0583(2) 0.9019(3)
H47 H 0.5227 0.0643 0.8550
H48 H 0.4511 0.0476 0.8879
C45 C 0.5742(3) 0.0121(2) 0.9471(3)
H49 H 0.5373 -0.0179 0.9514
H50 H 0.6089 -0.0010 0.9188
C46 C 0.6385(3) 0.02878(18) 1.0273(3)
H51 H 0.6047 0.0359 1.0590
H52 H 0.6798 -0.0009 1.0505
C47 C 0.9268(3) -0.02208(17) 1.1566(3)
H53 H 0.8641 -0.0319 1.1405
H54 H 0.9532 -0.0454 1.1296
C48 C 0.9738(3) -0.0315(2) 1.2418(3)
H55 H 0.9769 -0.0704 1.2521
H56 H 0.9393 -0.0148 1.2680
C49 C 1.0686(4) -0.0077(2) 1.2732(3)
H57 H 1.0714 0.0214 1.3088
H58 H 1.1102 -0.0359 1.3018
C50 C 1.0989(3) 0.0145(2) 1.2128(3)
H59 H 1.1026 -0.0150 1.1799
H60 H 1.1579 0.0307 1.2370
N1 N 1.1227(3) 0.18302(15) 1.2092(2)
N2 N 1.1289(3) 0.26728(15) 1.1738(2)
N3 N 1.1384(2) 0.14815(15) 1.0963(2)
N4 N 1.1332(3) 0.23281(15) 1.0559(2)
N5 N 1.0330(3) 0.34108(15) 1.1018(2)
N6 N 0.8907(3) 0.36280(15) 1.0390(2)
N7 N 1.0375(3) 0.30670(15) 0.9841(2)
N8 N 0.8986(3) 0.33308(14) 0.9194(2)
N9 N 0.7359(3) 0.33254(15) 0.9957(2)
N10 N 0.6489(3) 0.26277(15) 0.9935(2)
N11 N 0.7451(2) 0.30220(15) 0.8778(2)
N12 N 0.6619(2) 0.23056(14) 0.8774(2)
N13 N 0.6499(2) 0.17019(15) 1.0357(2)
N14 N 0.7380(2) 0.10230(15) 1.0996(2)
N15 N 0.6603(3) 0.13746(15) 0.9182(2)
N16 N 0.7477(2) 0.07083(14) 0.9828(2)
N17 N 0.8908(2) 0.07409(14) 1.1715(2)
N18 N 1.0304(2) 0.10528(14) 1.2101(2)
N19 N 0.9023(2) 0.04452(14) 1.0539(2)
N20 N 1.0440(3) 0.07073(15) 1.0954(2)
O3 O 1.0598(2) 0.24979(13) 1.25691(17)
O4 O 0.9390(2) 0.34070(13) 1.16579(17)
O5 O 0.7370(2) 0.30062(14) 1.10865(18)
O6 O 0.7334(2) 0.18074(13) 1.16406(17)
O7 O 0.9315(2) 0.14772(13) 1.25126(18)
O8 O 1.0701(2) 0.16513(13) 0.96791(18)
O9 O 0.9509(2) 0.25807(13) 0.87830(18)
O10 O 0.7640(2) 0.22251(13) 0.8228(2)
O11 O 0.7670(2) 0.10609(14) 0.87788(18)
O12 O 0.9601(2) 0.07053(14) 0.96604(18)
O2C O 0.8865(5) 0.3650(2) 1.2835(4)
K1C K 0.87670(8) 0.24997(5) 0.71615(7)
O9C O 0.9509(2) 0.24193(13) 1.37830(18)
O10C O 0.7640(2) 0.27749(13) 1.3228(2)
O1 O 1.1272(2) 0.33448(14) 1.35216(18)
Cl1 Cl 1.28838(10) 0.39232(6) 1.49476(7)
Cl2 Cl 1.26089(12) 0.41639(7) 1.29531(9)
Cl3 Cl 1.32683(13) 0.27769(8) 1.37793(13)
Zn1 Zn 1.25815(4) 0.35463(3) 1.38171(3)
loop_
_geom_bond_atom_site_label_1
_geom_bond_atom_site_label_2
_geom_bond_site_symmetry_1
_geom_bond_site_symmetry_2
O1 Zn1 1_555 1_555
Cl1 Zn1 1_555 1_555
Cl2 Zn1 1_555 1_555
Cl3 Zn1 1_555 1_555
O2 K2 1_555 1_555
Cl4 K2 1_555 1_555
K1 O3 1_555 1_555
K2 O8 1_555 1_555
C1 N1 1_555 1_555
C2 C3 1_555 1_555
C3 C34 1_555 1_555
C4 N3 1_555 1_555
C5 H1 1_555 1_555
H2 C5 1_555 1_555
C6 H3 1_555 1_555
H4 C6 1_555 1_555
C7 N5 1_555 1_555
C8 C9 1_555 1_555
C9 C38 1_555 1_555
C10 N7 1_555 1_555
C11 H5 1_555 1_555
H6 C11 1_555 1_555
C12 H7 1_555 1_555
H8 C12 1_555 1_555
C13 N9 1_555 1_555
C14 C15 1_555 1_555
C15 C42 1_555 1_555
C16 N11 1_555 1_555
C17 H9 1_555 1_555
H10 C17 1_555 1_555
C18 H11 1_555 1_555
H12 C18 1_555 1_555
C19 N13 1_555 1_555
C20 C21 1_555 1_555
C21 C46 1_555 1_555
C22 N15 1_555 1_555
C23 H13 1_555 1_555
H14 C23 1_555 1_555
C24 H15 1_555 1_555
H16 C24 1_555 1_555
C25 N17 1_555 1_555
C26 C27 1_555 1_555
C27 C50 1_555 1_555
C28 N19 1_555 1_555
C29 H17 1_555 1_555
H18 C29 1_555 1_555
C30 H19 1_555 1_555
H20 C30 1_555 1_555
C31 C2 1_555 1_555
H21 C31 1_555 1_555
H22 C31 1_555 1_555
C32 C31 1_555 1_555
H23 C32 1_555 1_555
H24 C32 1_555 1_555
C33 C32 1_555 1_555
H25 C33 1_555 1_555
H26 C33 1_555 1_555
C34 C33 1_555 1_555
H27 C34 1_555 1_555
H28 C34 1_555 1_555
C35 C8 1_555 1_555
H29 C35 1_555 1_555
H30 C35 1_555 1_555
C36 C35 1_555 1_555
H31 C36 1_555 1_555
H32 C36 1_555 1_555
C37 C36 1_555 1_555
H33 C37 1_555 1_555
H34 C37 1_555 1_555
C38 C37 1_555 1_555
H35 C38 1_555 1_555
H36 C38 1_555 1_555
C39 C14 1_555 1_555
H37 C39 1_555 1_555
H38 C39 1_555 1_555
C40 C39 1_555 1_555
H39 C40 1_555 1_555
H40 C40 1_555 1_555
C41 C40 1_555 1_555
H41 C41 1_555 1_555
H42 C41 1_555 1_555
C42 C41 1_555 1_555
H43 C42 1_555 1_555
H44 C42 1_555 1_555
C43 C20 1_555 1_555
H45 C43 1_555 1_555
H46 C43 1_555 1_555
C44 C43 1_555 1_555
H47 C44 1_555 1_555
H48 C44 1_555 1_555
C45 C44 1_555 1_555
H49 C45 1_555 1_555
H50 C45 1_555 1_555
C46 C45 1_555 1_555
H51 C46 1_555 1_555
H52 C46 1_555 1_555
C47 C26 1_555 1_555
H53 C47 1_555 1_555
H54 C47 1_555 1_555
C48 C47 1_555 1_555
H55 C48 1_555 1_555
H56 C48 1_555 1_555
C49 C48 1_555 1_555
H57 C49 1_555 1_555
H58 C49 1_555 1_555
C50 C49 1_555 1_555
H59 C50 1_555 1_555
H60 C50 1_555 1_555
N1 C2 1_555 1_555
N2 C1 1_555 1_555
N3 C2 1_555 1_555
N4 C3 1_555 1_555
N5 C5 1_555 1_555
N6 C7 1_555 1_555
N7 C6 1_555 1_555
N8 C9 1_555 1_555
N9 C11 1_555 1_555
N10 C13 1_555 1_555
N11 C12 1_555 1_555
N12 C15 1_555 1_555
N13 C17 1_555 1_555
N14 C19 1_555 1_555
N15 C18 1_555 1_555
N16 C21 1_555 1_555
N17 C23 1_555 1_555
N18 C25 1_555 1_555
N19 C24 1_555 1_555
N20 C27 1_555 1_555
O3 C1 1_555 1_555
O4 K1 1_555 1_555
O5 K1 1_555 1_555
O6 K1 1_555 1_555
O7 K1 1_555 1_555
O8 C4 1_555 1_555
O9 K2 1_555 1_555
O10 K2 1_555 1_555
O11 K2 1_555 1_555
O12 K2 1_555 1_555
O2C K1 1_555 1_555
K1C O2 1_555 1_555
O9C K1 1_555 1_555
O10C K1 1_555 1_555
C3 N2 1_555 1_555
C4 N4 1_555 1_555
C5 N2 1_555 1_555
C6 N4 1_555 1_555
C7 O4 1_555 1_555
C8 N5 1_555 1_555
C8 N7 1_555 1_555
C9 N6 1_555 1_555
C10 N8 1_555 1_555
C10 O9 1_555 1_555
C11 N6 1_555 1_555
C12 N8 1_555 1_555
C13 O5 1_555 1_555
C14 N9 1_555 1_555
C14 N11 1_555 1_555
C15 N10 1_555 1_555
C16 N12 1_555 1_555
C16 O10 1_555 1_555
C17 N10 1_555 1_555
C18 N12 1_555 1_555
C19 O6 1_555 1_555
C20 N13 1_555 1_555
C20 N15 1_555 1_555
C21 N14 1_555 1_555
C22 N16 1_555 1_555
C22 O11 1_555 1_555
C23 N14 1_555 1_555
C24 N16 1_555 1_555
C25 O7 1_555 1_555
C26 N17 1_555 1_555
C26 N19 1_555 1_555
C27 N18 1_555 1_555
C28 N20 1_555 1_555
C28 O12 1_555 1_555
C29 N1 1_555 1_555
C29 N18 1_555 1_555
C30 N3 1_555 1_555
C30 N20 1_555 1_555
O9 K1C 1_555 1_555
O10 K1C 1_555 1_555

#END
