
#######################################################################
#
#                 Cambridge Crystallographic Data Centre
#                                CCDC 
#
#######################################################################
#
# If this CIF has been generated from an entry in the Cambridge 
# Structural Database, then it will include bibliographic, chemical, 
# crystal, experimental, refinement or atomic coordinate data resulting 
# from the CCDC's data processing and validation procedures.
#
#######################################################################

data_VEXYIG
_symmetry_cell_setting           triclinic
_symmetry_space_group_name_H-M   'P -1'
_symmetry_Int_Tables_number      2
_space_group_name_Hall           '-P 1'
loop_
_symmetry_equiv_pos_site_id
_symmetry_equiv_pos_as_xyz
1 x,y,z
2 -x,-y,-z
_cell_length_a                   12.426(2)
_cell_length_b                   15.279(4)
_cell_length_c                   16.840(3)
_cell_angle_alpha                100.23(2)
_cell_angle_beta                 108.46(2)
_cell_angle_gamma                92.86(2)
_cell_volume                     2965.11
loop_
_atom_site_label
_atom_site_type_symbol
_atom_site_fract_x
_atom_site_fract_y
_atom_site_fract_z
Ca1 Ca -0.0255(1) 0.1223(1) 0.4795(1)
Ca2 Ca 0.0357(1) 0.3816(1) 0.5169(1)
P1 P 0.3919(2) 0.3095(1) 0.6385(1)
P2 P -0.4162(2) 0.3168(1) 0.3487(2)
P3 P 0.0709(2) 0.0444(1) 0.8001(1)
P4 P -0.0488(2) 0.4773(1) 0.2023(1)
O1 O -0.2034(5) 0.0581(3) 0.4909(4)
O2 O 0.2238(5) 0.4563(4) 0.5578(5)
O3 O -0.0564(7) 0.1523(4) 0.3385(5)
O4 O 0.0605(6) 0.3481(4) 0.6552(4)
O5 O 0.1308(4) 0.2525(3) 0.5128(3)
O6 O 0.1806(4) 0.1165(3) 0.4975(3)
O7 O -0.1216(4) 0.2485(3) 0.4809(3)
O8 O -0.1738(4) 0.3786(3) 0.4593(3)
O9 O 0.0502(4) 0.0243(3) 0.5971(3)
O10 O 0.0443(5) 0.1671(3) 0.6360(3)
O11 O -0.0024(4) 0.4797(3) 0.4086(3)
O12 O -0.0097(5) 0.3355(3) 0.3584(3)
C1 C -0.2368(8) 0.0906(7) 0.5633(7)
C2 C -0.3602(10) 0.0657(9) 0.5469(9)
C3 C 0.3266(7) 0.2386(6) 0.5313(5)
C4 C 0.2060(6) 0.1995(6) 0.5129(5)
C5 C -0.3217(7) 0.2594(5) 0.4257(6)
C6 C -0.1985(6) 0.2972(5) 0.4570(5)
C7 C 0.1536(7) 0.0932(6) 0.7419(5)
C8 C 0.0783(6) 0.0957(6) 0.6532(5)
C9 C -0.1197(7) 0.4218(6) 0.2642(6)
C10 C -0.0380(6) 0.4117(6) 0.3485(5)
C11 C 0.5318(4) 0.3477(4) 0.6330(4)
C12 C 0.6320(8) 0.3126(9) 0.6680(7)
C13 C 0.7340(6) 0.3487(14) 0.6635(7)
C14 C 0.7371(10) 0.4192(15) 0.6254(11)
C15 C 0.6400(15) 0.4547(12) 0.5902(14)
C16 C 0.5365(11) 0.4187(8) 0.5937(10)
C17 C 0.4281(5) 0.2294(4) 0.7078(4)
C18 C 0.4185(10) 0.1379(5) 0.6808(8)
C19 C 0.4500(15) 0.0833(7) 0.7399(11)
C20 C 0.4898(17) 0.1187(10) 0.8249(11)
C21 C 0.5004(15) 0.2082(11) 0.8530(8)
C22 C 0.4698(10) 0.2642(7) 0.7943(6)
C23 C -0.5544(5) 0.2517(4) 0.3278(4)
C24 C -0.5682(17) 0.1604(6) 0.3213(7)
C25 C -0.6745(24) 0.1165(12) 0.3087(11)
C26 C -0.7664(17) 0.1624(22) 0.3020(12)
C27 C -0.7551(10) 0.2520(22) 0.3084(11)
C28 C -0.6485(11) 0.2973(12) 0.3217(8)
C29 C -0.3861(5) 0.2737(4) 0.2504(4)
C30 C -0.3295(10) 0.2003(8) 0.2365(8)
C31 C -0.3086(14) 0.1759(13) 0.1598(10)
C32 C -0.3426(15) 0.2240(16) 0.0978(9)
C33 C -0.3987(14) 0.2961(13) 0.1098(9)
C34 C -0.4211(10) 0.3212(7) 0.1863(7)
C35 C 0.1751(5) 0.0544(4) 0.9061(3)
C36 C 0.1431(11) 0.0123(7) 0.9623(6)
C37 C 0.2173(16) 0.0178(11) 1.0447(6)
C38 C 0.3219(15) 0.0650(14) 1.0714(7)
C39 C 0.3557(12) 0.1066(12) 1.0175(9)
C40 C 0.2822(9) 0.1013(8) 0.9342(7)
C41 C -0.0142(5) 0.1339(4) 0.8209(4)
C42 C -0.1276(9) 0.1097(25) 0.8083(8)
C43 C -0.1966(17) 0.1740(44) 0.8256(11)
C44 C -0.1541(43) 0.2613(39) 0.8544(13)
C45 C -0.0431(49) 0.2868(16) 0.8676(11)
C46 C 0.0278(28) 0.2229(8) 0.8511(8)
C47 C -0.1726(5) 0.4877(4) 0.1110(4)
C48 C -0.2436(10) 0.5503(8) 0.1261(8)
C49 C -0.3366(12) 0.5642(14) 0.0596(11)
C50 C -0.3597(12) 0.5162(16) -0.0208(11)
C51 C -0.2911(12) 0.4546(12) -0.0373(8)
C52 C -0.1967(10) 0.4402(7) 0.0288(6)
C53 C 0.0192(5) 0.3891(4) 0.1574(4)
C54 C -0.0230(14) 0.2998(6) 0.1320(8)
C55 C 0.0350(24) 0.2384(7) 0.0954(11)
C56 C 0.1341(23) 0.2650(15) 0.0845(12)
C57 C 0.1771(13) 0.3522(18) 0.1085(11)
C58 C 0.1194(8) 0.4150(11) 0.1450(8)
H1 H -0.188(8) 0.064(7) 0.617(7)
H2 H -0.232(8) 0.166(7) 0.578(6)
H3 H -0.376(9) 0.077(7) 0.600(7)
H4 H -0.382(9) -0.003(7) 0.529(7)
H5 H -0.417(9) 0.074(7) 0.491(7)
H6 H 0.380(7) 0.199(5) 0.523(5)
H7 H 0.322(7) 0.266(5) 0.490(5)
H8 H -0.331(6) 0.190(5) 0.407(5)
H9 H -0.348(7) 0.268(5) 0.472(5)
H10 H 0.188(6) 0.162(5) 0.779(5)
H11 H 0.204(7) 0.052(5) 0.735(5)
H12 H -0.158(7) 0.368(5) 0.234(5)
H13 H -0.175(7) 0.458(5) 0.275(5)
H14 H -0.208(7) 0.014(5) 0.479(6)
H15 H 0.268(7) 0.444(5) 0.600(5)
H16 H 0.237(6) 0.506(5) 0.551(5)
H17 H -0.021(8) 0.192(5) 0.335(6)
H18 H -0.041(7) 0.123(6) 0.305(5)
H19 H 0.028(6) 0.375(5) 0.693(5)
H20 H 0.072(7) 0.309(5) 0.671(6)
H21 H 0.625(1) 0.257(1) 0.700(1)
H22 H 0.808(1) 0.321(2) 0.693(1)
H23 H 0.813(1) 0.449(2) 0.622(1)
H24 H 0.635(2) 0.513(1) 0.558(2)
H25 H 0.452(1) 0.450(1) 0.564(1)
H26 H 0.384(1) 0.113(1) 0.612(1)
H27 H 0.438(2) 0.014(1) 0.716(1)
H28 H 0.513(2) 0.079(1) 0.871(1)
H29 H 0.532(2) 0.243(1) 0.922(1)
H30 H 0.477(1) 0.342(1) 0.818(1)
H31 H -0.492(2) 0.127(1) 0.325(1)
H32 H -0.681(3) 0.047(1) 0.302(1)
H33 H -0.848(2) 0.131(1) 0.291(1)
H34 H -0.827(1) 0.295(3) 0.303(1)
H35 H -0.638(2) 0.375(1) 0.326(1)
H36 H -0.302(1) 0.165(1) 0.289(1)
H37 H -0.263(2) 0.121(1) 0.153(1)
H38 H -0.326(2) 0.208(2) 0.040(1)
H39 H -0.429(2) 0.340(1) 0.062(1)
H40 H -0.468(1) 0.385(1) 0.198(1)
H41 H 0.057(1) -0.023(1) 0.938(1)
H42 H 0.187(2) -0.014(1) 1.085(1)
H43 H 0.379(1) 0.071(2) 1.134(1)
H44 H 0.441(1) 0.147(1) 1.035(1)
H45 H 0.310(1) 0.138(1) 0.887(1)
H46 H -0.157(3) 0.039(3) 0.783(1)
H47 H -0.283(1) 0.152(6) 0.813(1)
H48 H -0.205(6) 0.312(5) 0.867(1)
H49 H -0.001(7) 0.358(1) 0.891(1)
H50 H 0.124(3) 0.245(3) 0.861(1)
H51 H -0.222(1) 0.585(1) 0.192(1)
H52 H -0.389(2) 0.611(2) 0.075(1)
H53 H -0.430(1) 0.524(2) -0.072(1)
H54 H -0.305(2) 0.412(1) -0.102(1)
H55 H -0.138(1) 0.386(1) 0.015(1)
H56 H -0.102(1) 0.282(1) 0.144(1)
H57 H 0.000(3) 0.171(1) 0.079(1)
H58 H 0.181(3) 0.220(2) 0.058(1)
H59 H 0.259(1) 0.380(2) 0.102(1)
H60 H 0.157(1) 0.491(1) 0.167(1)
O9A O -0.0502(4) -0.0243(3) 0.4029(3)
O11A O 0.0024(4) 0.5203(3) 0.5914(3)
Ca1A Ca 0.0255(1) -0.1223(1) 0.5205(1)
Ca2A Ca -0.0357(1) 0.6184(1) 0.4831(1)
loop_
_geom_bond_atom_site_label_1
_geom_bond_atom_site_label_2
_geom_bond_site_symmetry_1
_geom_bond_site_symmetry_2
Ca1 O1 1_555 1_555
Ca2 O2 1_555 1_555
P1 C3 1_555 1_555
P2 C5 1_555 1_555
P3 C7 1_555 1_555
P4 C9 1_555 1_555
O1 C1 1_555 1_555
O2 H15 1_555 1_555
O3 Ca1 1_555 1_555
O4 Ca2 1_555 1_555
O5 Ca1 1_555 1_555
O6 Ca1 1_555 1_555
O7 Ca1 1_555 1_555
O8 Ca2 1_555 1_555
O9 Ca1 1_555 1_555
O10 Ca1 1_555 1_555
O11 Ca2 1_555 1_555
O12 Ca2 1_555 1_555
C1 C2 1_555 1_555
C2 H3 1_555 1_555
C3 C4 1_555 1_555
C4 O5 1_555 1_555
C5 C6 1_555 1_555
C6 O7 1_555 1_555
C7 C8 1_555 1_555
C8 O9 1_555 1_555
C9 C10 1_555 1_555
C10 O11 1_555 1_555
C11 P1 1_555 1_555
C12 C11 1_555 1_555
C13 C12 1_555 1_555
C14 C13 1_555 1_555
C15 C14 1_555 1_555
C16 C11 1_555 1_555
C17 P1 1_555 1_555
C18 C17 1_555 1_555
C19 C18 1_555 1_555
C20 C19 1_555 1_555
C21 C20 1_555 1_555
C22 C17 1_555 1_555
C23 P2 1_555 1_555
C24 C23 1_555 1_555
C25 C24 1_555 1_555
C26 C25 1_555 1_555
C27 C26 1_555 1_555
C28 C23 1_555 1_555
C29 P2 1_555 1_555
C30 C29 1_555 1_555
C31 C30 1_555 1_555
C32 C31 1_555 1_555
C33 C32 1_555 1_555
C34 C29 1_555 1_555
C35 P3 1_555 1_555
C36 C35 1_555 1_555
C37 C36 1_555 1_555
C38 C37 1_555 1_555
C39 C38 1_555 1_555
C40 C35 1_555 1_555
C41 P3 1_555 1_555
C42 C41 1_555 1_555
C43 C42 1_555 1_555
C44 C43 1_555 1_555
C45 C44 1_555 1_555
C46 C41 1_555 1_555
C47 P4 1_555 1_555
C48 C47 1_555 1_555
C49 C48 1_555 1_555
C50 C49 1_555 1_555
C51 C50 1_555 1_555
C52 C47 1_555 1_555
C53 P4 1_555 1_555
C54 C53 1_555 1_555
C55 C54 1_555 1_555
C56 C55 1_555 1_555
C57 C56 1_555 1_555
C58 C53 1_555 1_555
H1 C1 1_555 1_555
H2 C1 1_555 1_555
H4 C2 1_555 1_555
H5 C2 1_555 1_555
H6 C3 1_555 1_555
H7 C3 1_555 1_555
H8 C5 1_555 1_555
H9 C5 1_555 1_555
H10 C7 1_555 1_555
H11 C7 1_555 1_555
H12 C9 1_555 1_555
H13 C9 1_555 1_555
H14 O1 1_555 1_555
H16 O2 1_555 1_555
H17 O3 1_555 1_555
H18 O3 1_555 1_555
H19 O4 1_555 1_555
H20 O4 1_555 1_555
H21 C12 1_555 1_555
H22 C13 1_555 1_555
H23 C14 1_555 1_555
H24 C15 1_555 1_555
H25 C16 1_555 1_555
H26 C18 1_555 1_555
H27 C19 1_555 1_555
H28 C20 1_555 1_555
H29 C21 1_555 1_555
H30 C22 1_555 1_555
H31 C24 1_555 1_555
H32 C25 1_555 1_555
H33 C26 1_555 1_555
H34 C27 1_555 1_555
H35 C28 1_555 1_555
H36 C30 1_555 1_555
H37 C31 1_555 1_555
H38 C32 1_555 1_555
H39 C33 1_555 1_555
H40 C34 1_555 1_555
H41 C36 1_555 1_555
H42 C37 1_555 1_555
H43 C38 1_555 1_555
H44 C39 1_555 1_555
H45 C40 1_555 1_555
H46 C42 1_555 1_555
H47 C43 1_555 1_555
H48 C44 1_555 1_555
H49 C45 1_555 1_555
H50 C46 1_555 1_555
H51 C48 1_555 1_555
H52 C49 1_555 1_555
H53 C50 1_555 1_555
H54 C51 1_555 1_555
H55 C52 1_555 1_555
H56 C54 1_555 1_555
H57 C55 1_555 1_555
H58 C56 1_555 1_555
H59 C57 1_555 1_555
H60 C58 1_555 1_555
O9A Ca1 1_555 1_555
O11A Ca2 1_555 1_555
Ca1A O9 1_555 1_555
Ca2A O11 1_555 1_555
Ca2 O5 1_555 1_555
Ca2 O7 1_555 1_555
O6 C4 1_555 1_555
O8 C6 1_555 1_555
O10 C8 1_555 1_555
O12 C10 1_555 1_555
C15 C16 1_555 1_555
C21 C22 1_555 1_555
C27 C28 1_555 1_555
C33 C34 1_555 1_555
C39 C40 1_555 1_555
C45 C46 1_555 1_555
C51 C52 1_555 1_555
C57 C58 1_555 1_555
O9A Ca1A 1_555 1_555
O11A Ca2A 1_555 1_555

#END
