
#######################################################################
#
#                 Cambridge Crystallographic Data Centre
#                                CCDC 
#
#######################################################################
#
# If this CIF has been generated from an entry in the Cambridge 
# Structural Database, then it will include bibliographic, chemical, 
# crystal, experimental, refinement or atomic coordinate data resulting 
# from the CCDC's data processing and validation procedures.
#
#######################################################################

data_VEYHUC
_symmetry_cell_setting           triclinic
_symmetry_space_group_name_H-M   'P -1'
_symmetry_Int_Tables_number      2
_space_group_name_Hall           '-P 1'
loop_
_symmetry_equiv_pos_site_id
_symmetry_equiv_pos_as_xyz
1 x,y,z
2 -x,-y,-z
_cell_length_a                   7.499(1)
_cell_length_b                   11.015(2)
_cell_length_c                   6.679(3)
_cell_angle_alpha                101.92(3)
_cell_angle_beta                 109.92(3)
_cell_angle_gamma                78.03(1)
_cell_volume                     501.84
loop_
_atom_site_label
_atom_site_type_symbol
_atom_site_fract_x
_atom_site_fract_y
_atom_site_fract_z
K1 K 0.2588(1) -0.0706(1) -0.2650(1)
P1 P -0.0303(1) 0.2492(1) -0.1503(1)
P2 P 0.2294(1) 0.1417(1) 0.2588(1)
O1 O -0.0054(4) 0.3202(2) -0.3189(4)
O2 O -0.0662(4) 0.1178(2) -0.2642(4)
O3 O -0.1788(4) 0.3236(3) -0.0553(4)
O4 O 0.4333(4) 0.1528(2) 0.4245(4)
O5 O 0.2394(4) 0.0064(2) 0.1474(4)
O6 O 0.0721(4) 0.1828(2) 0.3580(4)
O7 O 0.3492(3) 0.1768(2) -0.0435(4)
C1 C 0.2055(4) 0.2394(3) 0.0578(5)
C2 C 0.2414(5) 0.3727(3) 0.1662(6)
H1 H 0.037(6) 0.267(4) -0.380(7)
H2 H -0.116(11) 0.090(7) -0.232(11)
H3 H 0.424(9) 0.220(5) 0.483(9)
H4 H 0.191(10) -0.035(6) 0.185(9)
H5 H 0.373(11) 0.235(7) -0.086(11)
H10 H 0.126(8) 0.404(4) 0.241(7)
H11 H 0.365(6) 0.380(3) 0.250(6)
H12 H 0.212(7) 0.424(5) 0.054(7)
O2A O 0.0662(4) -0.1178(2) -0.7358(4)
O4A O 0.5667(4) -0.1528(2) -0.4245(4)
O6A O -0.0721(4) -0.1828(2) -0.3580(4)
O7A O 0.6508(3) -0.1768(2) 0.0435(4)
K1A K -0.2588(1) 0.0706(1) -0.7350(1)
K1A_2 K 0.7412(1) 0.0706(1) 0.2650(1)
K1A_3 K -0.2588(1) 0.0706(1) 0.2650(1)
H2A H 0.116(11) -0.090(7) -0.768(11)
H3A H 0.576(9) -0.220(5) -0.483(9)
H5A H 0.627(11) -0.235(7) 0.086(11)
O8 O 0.4530(4) 0.3276(3) -0.2578(4)
H6 H 0.570(10) 0.336(6) -0.210(9)
O9 O 0.7275(5) 0.4379(3) 0.3086(5)
H7 H 0.622(5) 0.401(3) 0.283(5)
H9 H 0.784(5) 0.403(4) 0.189(5)
H8? H 0.772(6) 0.406(4) -0.376(6)
loop_
_geom_bond_atom_site_label_1
_geom_bond_atom_site_label_2
_geom_bond_site_symmetry_1
_geom_bond_site_symmetry_2
K1 O2 1_555 1_555
P1 O1 1_555 1_555
P2 O4 1_555 1_555
O1 H1 1_555 1_555
O2 P1 1_555 1_555
O3 P1 1_555 1_555
O4 H3 1_555 1_555
O5 K1 1_555 1_555
O6 P2 1_555 1_555
O7 K1 1_555 1_555
O8 H6 1_555 1_555
O9 H7 1_555 1_555
C1 P1 1_555 1_555
C2 C1 1_555 1_555
H2 O2 1_555 1_555
H4 O5 1_555 1_555
H5 O7 1_555 1_555
H9 O9 1_555 1_555
H10 C2 1_555 1_555
H11 C2 1_555 1_555
H12 C2 1_555 1_555
O2A K1 1_555 1_555
O4A K1 1_555 1_555
O6A K1 1_555 1_555
O7A K1 1_555 1_555
K1A O2 1_555 1_555
K1A_2 O4 1_555 1_555
K1A_3 O6 1_555 1_555
H2A O2A 1_555 1_555
H3A O4A 1_555 1_555
H5A O7A 1_555 1_555
P2 C1 1_555 1_555
P2 O5 1_555 1_555
O7 C1 1_555 1_555
O7 K1A_2 1_555 1_555
O2A K1A 1_555 1_555
O7A K1A_2 1_555 1_555

#END
