
#######################################################################
#
#                 Cambridge Crystallographic Data Centre
#                                CCDC 
#
#######################################################################
#
# If this CIF has been generated from an entry in the Cambridge 
# Structural Database, then it will include bibliographic, chemical, 
# crystal, experimental, refinement or atomic coordinate data resulting 
# from the CCDC's data processing and validation procedures.
#
#######################################################################

data_VEYPOG
_symmetry_cell_setting           monoclinic
_symmetry_space_group_name_H-M   'P 21/n'
_symmetry_Int_Tables_number      14
_space_group_name_Hall           '-P 2yn'
loop_
_symmetry_equiv_pos_site_id
_symmetry_equiv_pos_as_xyz
1 x,y,z
2 1/2-x,1/2+y,1/2-z
3 -x,-y,-z
4 1/2+x,1/2-y,1/2+z
_cell_length_a                   15.0825(6)
_cell_length_b                   8.2354(3)
_cell_length_c                   15.4752(7)
_cell_angle_alpha                90
_cell_angle_beta                 107.587(2)
_cell_angle_gamma                90
_cell_volume                     1832.34
loop_
_atom_site_label
_atom_site_type_symbol
_atom_site_fract_x
_atom_site_fract_y
_atom_site_fract_z
Cu1 Cu 0.816444(14) 0.26364(2) 0.637709(16)
O1 O 0.80750(8) 0.05389(14) 0.68591(9)
N1 N 0.67999(10) 0.27127(15) 0.61375(10)
O2 O 0.70063(9) -0.11030(16) 0.71141(9)
O3 O 0.58589(8) 0.64349(15) 0.51511(9)
N2 N 0.81309(9) 0.48082(16) 0.59789(9)
N3 N 0.89363(9) 0.55044(15) 0.59792(9)
C1 C 0.51421(15) 0.2479(2) 0.68960(13)
H1 H 0.5484 0.3395 0.7148
O4 O 0.81334(12) 0.1462(2) 0.49408(10)
N4 N 0.62103(9) 0.39550(17) 0.57317(9)
H2 H 0.5624 0.3778 0.5615
N5 N 0.95325(10) 0.30460(18) 0.66056(9)
C2 C 1.11344(14) 0.2316(2) 0.69619(14)
H3 H 1.1607 0.1567 0.7199
C3 C 0.74568(11) 0.58716(19) 0.56467(10)
C4 C 0.55430(11) 0.1274(2) 0.65044(10)
C5 C 0.42369(16) 0.2313(3) 0.69096(15)
H4 H 0.3971 0.3111 0.7177
O5 O 0.81517(13) 0.1563(3) 0.35504(12)
C6 C 0.64979(11) 0.14678(19) 0.64666(10)
N6 N 0.79271(12) 0.2178(2) 0.41871(12)
O6 O 0.74876(15) 0.3456(2) 0.40848(11)
C7 C 0.72433(12) 0.01689(19) 0.68478(10)
C8 C 0.78385(13) 0.73117(18) 0.54358(12)
H5 H 0.7517 0.8255 0.5200
C9 C 0.97317(11) 0.44842(19) 0.63017(10)
C10 C 0.87792(12) 0.70622(19) 0.56441(11)
C11 C 1.02279(13) 0.1985(2) 0.69322(13)
H6 H 1.0095 0.0988 0.7147
C12 C 0.64676(11) 0.54468(19) 0.54960(10)
C13 C 0.50323(13) -0.0107(2) 0.61453(12)
H7 H 0.5304 -0.0933 0.5903
C14 C 1.06139(11) 0.4899(2) 0.62961(12)
H8 H 1.0733 0.5899 0.6074
C15 C 0.95111(13) 0.8206(2) 0.55518(13)
H9 H 0.9971 0.8346 0.6131
H10 H 0.9233 0.9237 0.5337
H11 H 0.9800 0.7773 0.5128
C16 C 0.41214(15) -0.0247(3) 0.61504(14)
H12 H 0.3775 -0.1159 0.5900
C17 C 1.13180(12) 0.3781(2) 0.66320(13)
H13 H 1.1921 0.4025 0.6634
C18 C 0.37247(14) 0.0967(3) 0.65279(14)
H14 H 0.3109 0.0875 0.6524
Cu1A Cu 0.683556(14) -0.23636(2) 0.862291(16)
O2A O 0.79937(9) 0.38970(16) 0.78859(9)
loop_
_geom_bond_atom_site_label_1
_geom_bond_atom_site_label_2
_geom_bond_site_symmetry_1
_geom_bond_site_symmetry_2
Cu1 O1 1_555 1_555
O1 C7 1_555 1_555
N1 Cu1 1_555 1_555
O2 C7 1_555 1_555
O3 C12 1_555 1_555
N2 Cu1 1_555 1_555
N3 N2 1_555 1_555
C1 H1 1_555 1_555
O4 Cu1 1_555 1_555
N4 N1 1_555 1_555
H2 N4 1_555 1_555
N5 Cu1 1_555 1_555
C2 H3 1_555 1_555
C3 N2 1_555 1_555
C4 C1 1_555 1_555
C5 C1 1_555 1_555
H4 C5 1_555 1_555
O5 N6 1_555 1_555
C6 N1 1_555 1_555
N6 O4 1_555 1_555
O6 N6 1_555 1_555
C7 C6 1_555 1_555
C8 C3 1_555 1_555
H5 C8 1_555 1_555
C9 N3 1_555 1_555
C10 N3 1_555 1_555
C11 N5 1_555 1_555
H6 C11 1_555 1_555
C12 N4 1_555 1_555
C13 C4 1_555 1_555
H7 C13 1_555 1_555
C14 C9 1_555 1_555
H8 C14 1_555 1_555
C15 C10 1_555 1_555
H9 C15 1_555 1_555
H10 C15 1_555 1_555
H11 C15 1_555 1_555
C16 C13 1_555 1_555
H12 C16 1_555 1_555
C17 C2 1_555 1_555
H13 C17 1_555 1_555
C18 C5 1_555 1_555
H14 C18 1_555 1_555
Cu1A O2 1_555 1_555
O2A Cu1 1_555 1_555
N5 C9 1_555 1_555
C2 C11 1_555 1_555
C3 C12 1_555 1_555
C4 C6 1_555 1_555
C8 C10 1_555 1_555
C14 C17 1_555 1_555
C16 C18 1_555 1_555

#END
