
#######################################################################
#
#                 Cambridge Crystallographic Data Centre
#                                CCDC 
#
#######################################################################
#
# If this CIF has been generated from an entry in the Cambridge 
# Structural Database, then it will include bibliographic, chemical, 
# crystal, experimental, refinement or atomic coordinate data resulting 
# from the CCDC's data processing and validation procedures.
#
#######################################################################

data_VEYRIB
_symmetry_cell_setting           monoclinic
_symmetry_space_group_name_H-M   'P 21/n'
_symmetry_Int_Tables_number      14
_space_group_name_Hall           '-P 2yn'
loop_
_symmetry_equiv_pos_site_id
_symmetry_equiv_pos_as_xyz
1 x,y,z
2 1/2-x,1/2+y,1/2-z
3 -x,-y,-z
4 1/2+x,1/2-y,1/2+z
_cell_length_a                   9.3710(2)
_cell_length_b                   15.0690(3)
_cell_length_c                   9.8920(2)
_cell_angle_alpha                90
_cell_angle_beta                 92.4780(10)
_cell_angle_gamma                90
_cell_volume                     1395.56
loop_
_atom_site_label
_atom_site_type_symbol
_atom_site_fract_x
_atom_site_fract_y
_atom_site_fract_z
Co1 Co 0.56083(3) 0.08965(2) 0.25159(3)
N1 N 0.7476(3) 0.1377(2) 0.3449(2)
N2 N 0.9026(4) 0.1612(2) 0.5463(3)
N3 N 0.9831(2) 0.2946(2) 0.6665(2)
N4 N 0.6592(2) 0.05185(14) 0.0694(2)
N5 N 0.6069(2) -0.01498(14) -0.1443(2)
N6 N 0.6024(2) -0.03469(14) 0.3604(2)
N7 N 0.5551(2) -0.10580(13) 0.5677(2)
C1 C 0.8193(3) 0.1546(2) 0.4384(3)
C2 C 0.9402(3) 0.2355(2) 0.6035(3)
C3 C 0.5737(2) 0.0100(2) -0.0203(2)
C4 C 0.7905(3) 0.0715(2) 0.0307(3)
H1 H 0.8540(3) 0.0999(2) 0.0912(3)
C5 C 0.8336(3) 0.0507(2) -0.0968(3)
H2 H 0.9242(3) 0.0657(2) -0.1240(3)
C6 C 0.7375(3) 0.0068(2) -0.1826(3)
H3 H 0.7642(3) -0.0081(2) -0.2691(3)
C7 C 0.5433(2) -0.0386(2) 0.4798(2)
C8 C 0.6805(3) -0.1051(2) 0.3250(3)
H4 H 0.7226(3) -0.1053(2) 0.2416(3)
C9 C 0.6992(3) -0.1768(2) 0.4098(3)
H5 H 0.7540(3) -0.2252(2) 0.3853(3)
C10 C 0.6344(3) -0.1748(2) 0.5322(3)
H6 H 0.6462(3) -0.2226(2) 0.5912(3)
Co1C Co 0.06083(3) 0.41035(2) -0.24841(3)
Co1C_2 Co 1.06083(3) 0.41035(2) 0.75159(3)
Co1B Co 0.43917(3) -0.08965(2) -0.25159(3)
Co1B_2 Co 0.43917(3) -0.08965(2) 0.74841(3)
N1C N 0.2476(3) 0.3623(2) -0.1551(2)
N2C N 0.4026(4) 0.3388(2) 0.0463(3)
N3C N 0.4831(2) 0.2054(2) 0.1665(2)
N3_2 N -0.0169(2) 0.2946(2) -0.3335(2)
N4B N 0.3408(2) -0.05185(14) -0.0694(2)
N4C N 0.1592(2) 0.44815(14) -0.4306(2)
N5B N 0.3931(2) 0.01498(14) 0.1443(2)
N5A N -0.1069(2) 0.48502(14) -0.3557(2)
N6B N 0.3976(2) 0.03469(14) 0.6396(2)
N6C N 0.1024(2) 0.53469(14) -0.1396(2)
N7B N 0.4449(2) 0.10580(13) 0.4323(2)
N7A N -0.0551(2) 0.39420(13) -0.0677(2)
C1C C 0.3193(3) 0.3454(2) -0.0616(3)
C2C C 0.4402(3) 0.2645(2) 0.1035(3)
C3B C 0.4263(2) -0.0100(2) 0.0203(2)
C4B C 0.2095(3) -0.0715(2) -0.0307(3)
H1B H 0.1460(3) -0.0999(2) -0.0912(3)
C5B C 0.1664(3) -0.0507(2) 0.0968(3)
H2B H 0.0758(3) -0.0657(2) 0.1240(3)
C6B C 0.2625(3) -0.0068(2) 0.1826(3)
H3B H 0.2358(3) 0.0081(2) 0.2691(3)
C7B C 0.4567(2) 0.0386(2) 0.5202(2)
C8B C 0.3195(3) 0.1051(2) 0.6750(3)
H4B H 0.2774(3) 0.1053(2) 0.7584(3)
C9B C 0.3008(3) 0.1768(2) 0.5902(3)
H5B H 0.2460(3) 0.2252(2) 0.6147(3)
C10B C 0.3656(3) 0.1748(2) 0.4678(3)
H6B H 0.3538(3) 0.2226(2) 0.4088(3)
N8 N 0.1517(4) 0.1561(2) -0.0504(3)
N9 N 0.0886(4) 0.1714(2) 0.1850(3)
N10 N 0.0894(4) 0.3041(2) 0.3266(3)
C11 C 0.1253(3) 0.1691(2) 0.0594(4)
C12 C 0.0914(3) 0.2449(2) 0.2546(3)
loop_
_geom_bond_atom_site_label_1
_geom_bond_atom_site_label_2
_geom_bond_site_symmetry_1
_geom_bond_site_symmetry_2
Co1 N1 1_555 1_555
N1 C1 1_555 1_555
N2 C1 1_555 1_555
N3 C2 1_555 1_555
N4 Co1 1_555 1_555
N5 C3 1_555 1_555
N6 Co1 1_555 1_555
N7 C7 1_555 1_555
C2 N2 1_555 1_555
C3 N4 1_555 1_555
C4 N4 1_555 1_555
H1 C4 1_555 1_555
C5 C4 1_555 1_555
H2 C5 1_555 1_555
C6 N5 1_555 1_555
H3 C6 1_555 1_555
C7 N6 1_555 1_555
C8 N6 1_555 1_555
H4 C8 1_555 1_555
C9 C8 1_555 1_555
H5 C9 1_555 1_555
C10 N7 1_555 1_555
H6 C10 1_555 1_555
N8 C11 1_555 1_555
N9 C11 1_555 1_555
N10 C12 1_555 1_555
C12 N9 1_555 1_555
Co1C N1C 1_555 1_555
Co1C_2 N3 1_555 1_555
Co1B N5 1_555 1_555
Co1B_2 N7 1_555 1_555
N1C C1C 1_555 1_555
N2C C1C 1_555 1_555
N3C Co1 1_555 1_555
N3_2 Co1C 1_555 1_555
N4B Co1B 1_555 1_555
N4C Co1C 1_555 1_555
N5B Co1 1_555 1_555
N5A Co1C 1_555 1_555
N6B Co1B_2 1_555 1_555
N6C Co1C 1_555 1_555
N7B Co1 1_555 1_555
N7A Co1C 1_555 1_555
C2C N2C 1_555 1_555
C3B C3 1_555 1_555
C4B N4B 1_555 1_555
H1B C4B 1_555 1_555
C5B C4B 1_555 1_555
H2B C5B 1_555 1_555
C6B N5B 1_555 1_555
H3B C6B 1_555 1_555
C7B C7 1_555 1_555
C8B N6B 1_555 1_555
H4B C8B 1_555 1_555
C9B C8B 1_555 1_555
H5B C9B 1_555 1_555
C10B N7B 1_555 1_555
H6B C10B 1_555 1_555
C5 C6 1_555 1_555
C9 C10 1_555 1_555
N3C C2C 1_555 1_555
N4B C3B 1_555 1_555
N5B C3B 1_555 1_555
N6B C7B 1_555 1_555
N7B C7B 1_555 1_555
C5B C6B 1_555 1_555
C9B C10B 1_555 1_555

#END
