
#######################################################################
#
#                 Cambridge Crystallographic Data Centre
#                                CCDC 
#
#######################################################################
#
# If this CIF has been generated from an entry in the Cambridge 
# Structural Database, then it will include bibliographic, chemical, 
# crystal, experimental, refinement or atomic coordinate data resulting 
# from the CCDC's data processing and validation procedures.
#
#######################################################################

data_VEYTAU
_symmetry_cell_setting           triclinic
_symmetry_space_group_name_H-M   'P -1'
_symmetry_Int_Tables_number      2
_space_group_name_Hall           '-P 1'
loop_
_symmetry_equiv_pos_site_id
_symmetry_equiv_pos_as_xyz
1 x,y,z
2 -x,-y,-z
_cell_length_a                   11.552(6)
_cell_length_b                   12.494(5)
_cell_length_c                   15.494(5)
_cell_angle_alpha                112.56(3)
_cell_angle_beta                 91.42(4)
_cell_angle_gamma                106.02(4)
_cell_volume                     1963.32
loop_
_atom_site_label
_atom_site_type_symbol
_atom_site_fract_x
_atom_site_fract_y
_atom_site_fract_z
Ni1 Ni 0.2409(1) 0.3452(1) 0.0511(1)
S1 S 0.1805(2) 0.2216(2) 0.1198(2)
S2 S 0.2462(2) 0.4995(2) 0.1823(2)
S3 S 0.2427(2) 0.2030(2) -0.0815(2)
S4 S 0.2946(2) 0.4774(2) -0.0108(2)
S5 S 0.5050(4) 0.0250(3) -0.1863(3)
Na1 Na 0.0651(3) -0.0575(3) 0.0724(2)
Na2 Na 0.3699(3) 0.0460(3) 0.0099(2)
O1 O 0.2524(5) 0.1385(5) 0.1157(4)
O2 O 0.0501(5) 0.1494(5) 0.0875(4)
O3 O 0.3373(6) 0.1470(6) -0.0756(4)
O4 O 0.1219(5) 0.1121(5) -0.1228(4)
O5 O 0.2124(5) -0.1373(5) -0.0295(4)
O6 O 0.1287(6) -0.1265(6) 0.1837(5)
O7 O 0.5033(6) -0.0092(6) -0.1026(5)
C1 C 0.1943(7) 0.3148(7) 0.2440(6)
C2 C 0.2203(8) 0.4358(8) 0.2662(6)
C3 C 0.2853(7) 0.2692(7) -0.1644(6)
C4 C 0.3082(8) 0.3923(7) -0.1291(6)
C5 C 0.1169(10) -0.3486(8) -0.1200(8)
C6 C 0.1763(8) -0.2208(8) -0.1080(7)
C7 C 0.1896(10) -0.2004(9) -0.1970(7)
C8 C 0.0249(10) -0.3369(10) 0.1374(9)
C9 C 0.0965(9) -0.2121(10) 0.2075(8)
C10 C 0.1339(13) -0.2003(11) 0.3042(8)
C11 C 0.1925(5) 0.2591(5) 0.3141(3)
C12 C 0.0919 0.1654 0.3125
C13 C 0.0918 0.1189 0.3819
C14 C 0.1921 0.1662 0.4529
C15 C 0.2926 0.2599 0.4545
C16 C 0.2928 0.3064 0.3851
C17 C 0.2278(6) 0.5275(5) 0.3641(3)
C18 C 0.1227 0.5362 0.4053
C19 C 0.1308 0.6260 0.4960
C20 C 0.2440 0.7072 0.5456
C21 C 0.3492 0.6985 0.5044
C22 C 0.3411 0.6087 0.4136
C23 C 0.3110(5) 0.1892(5) -0.2585(3)
C24 C 0.2254 0.0768 -0.3136
C25 C 0.2506 0.0005 -0.3997
C26 C 0.3615 0.0365 -0.4306
C27 C 0.4472 0.1489 -0.3756
C28 C 0.4219 0.2252 -0.2895
C29 C 0.3384(5) 0.4636(4) -0.1884(3)
C30 C 0.2676 0.4246 -0.2762
C31 C 0.2957 0.4920 -0.3315
C32 C 0.3947 0.5984 -0.2990
C33 C 0.4655 0.6374 -0.2112
C34 C 0.4373 0.5700 -0.1559
C35 C 0.5811(12) -0.0472(11) -0.2633(8)
C36 C 0.6033(9) 0.1787(8) -0.1317(8)
H1 H 0.0949 -0.4012 -0.1866
H2 H 0.1722 -0.3745 -0.0911
H3 H 0.0450 -0.3523 -0.0897
H4 H 0.1561 -0.2764 -0.2514
H5 H 0.1470 -0.1447 -0.1977
H6 H 0.2743 -0.1666 -0.1992
H7 H 0.0082 -0.3919 0.1685
H8 H -0.0505 -0.3344 0.1116
H9 H 0.0709 -0.3643 0.0867
H10 H 0.1000 -0.2769 0.3090
H11 H 0.2211 -0.1762 0.3168
H12 H 0.1051 -0.1396 0.3499
H13 H 0.0229 0.1329 0.2637
H14 H 0.0226 0.0544 0.3808
H15 H 0.1920 0.1342 0.5006
H16 H 0.3617 0.2924 0.5034
H17 H 0.3620 0.3709 0.3862
H18 H 0.0447 0.4803 0.3711
H19 H 0.0584 0.6320 0.5244
H20 H 0.2496 0.7690 0.6081
H21 H 0.4272 0.7543 0.5385
H22 H 0.4135 0.6027 0.3853
H23 H 0.1491 0.0520 -0.2923
H24 H 0.1917 -0.0769 -0.4375
H25 H 0.3789 -0.0160 -0.4899
H26 H 0.5234 0.1737 -0.3969
H27 H 0.4809 0.3026 -0.2516
H28 H 0.1995 0.3514 -0.2986
H29 H 0.2470 0.4652 -0.3920
H30 H 0.4140 0.6448 -0.3370
H31 H 0.5336 0.7106 -0.1887
H32 H 0.4861 0.5968 -0.0954
H33 H 0.5820 -0.0249 -0.3166
H34 H 0.5431 -0.1335 -0.2850
H35 H 0.6631 -0.0258 -0.2337
H36 H 0.6131 0.2131 -0.1783
H37 H 0.6812 0.1799 -0.1074
H38 H 0.5683 0.2257 -0.0803
O2A O -0.0501(5) -0.1494(5) -0.0875(4)
O4A O -0.1219(5) -0.1121(5) 0.1228(4)
O7A O 0.4967(6) 0.0092(6) 0.1026(5)
Na1A Na -0.0651(3) 0.0575(3) -0.0724(2)
Na2A Na 0.6301(3) -0.0460(3) -0.0099(2)
loop_
_geom_bond_atom_site_label_1
_geom_bond_atom_site_label_2
_geom_bond_site_symmetry_1
_geom_bond_site_symmetry_2
Ni1 S1 1_555 1_555
S1 O1 1_555 1_555
S2 Ni1 1_555 1_555
S3 Ni1 1_555 1_555
S4 Ni1 1_555 1_555
S5 O7 1_555 1_555
Na1 O1 1_555 1_555
Na2 O1 1_555 1_555
O2 S1 1_555 1_555
O3 S3 1_555 1_555
O4 S3 1_555 1_555
O5 Na1 1_555 1_555
O6 Na1 1_555 1_555
O7 Na2 1_555 1_555
C1 S1 1_555 1_555
C2 S2 1_555 1_555
C3 S3 1_555 1_555
C4 S4 1_555 1_555
C5 C6 1_555 1_555
C6 O5 1_555 1_555
C7 C6 1_555 1_555
C8 C9 1_555 1_555
C9 O6 1_555 1_555
C10 C9 1_555 1_555
C11 C1 1_555 1_555
C12 C11 1_555 1_555
C13 C12 1_555 1_555
C14 C13 1_555 1_555
C15 C14 1_555 1_555
C16 C11 1_555 1_555
C17 C2 1_555 1_555
C18 C17 1_555 1_555
C19 C18 1_555 1_555
C20 C19 1_555 1_555
C21 C20 1_555 1_555
C22 C17 1_555 1_555
C23 C3 1_555 1_555
C24 C23 1_555 1_555
C25 C24 1_555 1_555
C26 C25 1_555 1_555
C27 C26 1_555 1_555
C28 C23 1_555 1_555
C29 C4 1_555 1_555
C30 C29 1_555 1_555
C31 C30 1_555 1_555
C32 C31 1_555 1_555
C33 C32 1_555 1_555
C34 C29 1_555 1_555
C35 S5 1_555 1_555
C36 S5 1_555 1_555
H1 C5 1_555 1_555
H2 C5 1_555 1_555
H3 C5 1_555 1_555
H4 C7 1_555 1_555
H5 C7 1_555 1_555
H6 C7 1_555 1_555
H7 C8 1_555 1_555
H8 C8 1_555 1_555
H9 C8 1_555 1_555
H10 C10 1_555 1_555
H11 C10 1_555 1_555
H12 C10 1_555 1_555
H13 C12 1_555 1_555
H14 C13 1_555 1_555
H15 C14 1_555 1_555
H16 C15 1_555 1_555
H17 C16 1_555 1_555
H18 C18 1_555 1_555
H19 C19 1_555 1_555
H20 C20 1_555 1_555
H21 C21 1_555 1_555
H22 C22 1_555 1_555
H23 C24 1_555 1_555
H24 C25 1_555 1_555
H25 C26 1_555 1_555
H26 C27 1_555 1_555
H27 C28 1_555 1_555
H28 C30 1_555 1_555
H29 C31 1_555 1_555
H30 C32 1_555 1_555
H31 C33 1_555 1_555
H32 C34 1_555 1_555
H33 C35 1_555 1_555
H34 C35 1_555 1_555
H35 C35 1_555 1_555
H36 C36 1_555 1_555
H37 C36 1_555 1_555
H38 C36 1_555 1_555
O2A Na1 1_555 1_555
O4A Na1 1_555 1_555
O7A Na2 1_555 1_555
Na1A O2 1_555 1_555
Na2A O7 1_555 1_555
Na1 O2 1_555 1_555
Na2 O3 1_555 1_555
Na2 O5 1_555 1_555
O4 Na1A 1_555 1_555
C1 C2 1_555 1_555
C3 C4 1_555 1_555
C15 C16 1_555 1_555
C21 C22 1_555 1_555
C27 C28 1_555 1_555
C33 C34 1_555 1_555
O2A Na1A 1_555 1_555
O7A Na2A 1_555 1_555

#END
