
#######################################################################
#
#                 Cambridge Crystallographic Data Centre
#                                CCDC 
#
#######################################################################
#
# If this CIF has been generated from an entry in the Cambridge 
# Structural Database, then it will include bibliographic, chemical, 
# crystal, experimental, refinement or atomic coordinate data resulting 
# from the CCDC's data processing and validation procedures.
#
#######################################################################

data_VEZKOC
_symmetry_cell_setting           monoclinic
_symmetry_space_group_name_H-M   'P 21/c'
_symmetry_Int_Tables_number      14
_space_group_name_Hall           '-P 2ybc'
loop_
_symmetry_equiv_pos_site_id
_symmetry_equiv_pos_as_xyz
1 x,y,z
2 -x,1/2+y,1/2-z
3 -x,-y,-z
4 x,1/2-y,1/2+z
_cell_length_a                   9.000(5)
_cell_length_b                   18.635(5)
_cell_length_c                   13.185(5)
_cell_angle_alpha                90
_cell_angle_beta                 90.057(5)
_cell_angle_gamma                90
_cell_volume                     2211.32
loop_
_atom_site_label
_atom_site_type_symbol
_atom_site_fract_x
_atom_site_fract_y
_atom_site_fract_z
Bi1 Bi 0.07646(3) 0.209858(14) 0.898173(19)
P1 P 0.0128(2) 0.27871(10) 0.65394(15)
O1 O 0.0705(7) 0.2189(3) 0.7191(5)
O2 O -0.1305(6) 0.2548(3) 0.5919(4)
O3 O -0.0345(6) 0.3397(2) 0.7303(4)
O4 O 0.1166(6) 0.3062(3) 0.5733(4)
C1 C 0.2200(9) 0.3081(4) 0.9041(6)
C2 C 0.3283(9) 0.3203(4) 0.8336(6)
H1 H 0.3434 0.2870 0.7820
C3 C 0.4159(9) 0.3811(4) 0.8377(6)
H2 H 0.4889 0.3884 0.7888
C4 C 0.3960(10) 0.4312(5) 0.9138(6)
H3 H 0.4566 0.4715 0.9175
C5 C 0.2837(11) 0.4203(4) 0.9850(6)
H4 H 0.2670 0.4543 1.0353
C6 C 0.1965(9) 0.3586(4) 0.9808(6)
H5 H 0.1228 0.3511 1.0290
C7 C 0.2761(8) 0.1393(4) 0.8734(6)
C8 C 0.3105(9) 0.1144(4) 0.7774(6)
H6 H 0.2506 0.1267 0.7226
C9 C 0.5271(9) 0.0544(4) 0.8433(7)
H7 H 0.6106 0.0260 0.8331
C10 C 0.4945(9) 0.0804(4) 0.9382(7)
H8 H 0.5571 0.0695 0.9922
C11 C 0.3696(9) 0.1226(4) 0.9550(6)
H9 H 0.3485 0.1396 1.0197
C12 C 0.4341(9) 0.0711(4) 0.7625(6)
H10 H 0.4547 0.0532 0.6982
C13 C -0.2545(10) 0.2082(4) 0.6247(7)
C14 C -0.3756(11) 0.2226(5) 0.5448(8)
H11 H -0.4058 0.2719 0.5484
H12 H -0.4596 0.1922 0.5577
H13 H -0.3370 0.2126 0.4784
C15 C -0.2010(11) 0.1315(5) 0.6231(7)
H14 H -0.1658 0.1198 0.5564
H15 H -0.2814 0.1001 0.6408
H16 H -0.1216 0.1258 0.6711
C16 C -0.3106(10) 0.2295(5) 0.7299(7)
H17 H -0.2416 0.2132 0.7805
H18 H -0.4060 0.2080 0.7416
H19 H -0.3195 0.2808 0.7337
C17 C -0.0623(9) 0.4167(4) 0.7113(6)
C18 C 0.0820(9) 0.4546(4) 0.6866(7)
H20 H 0.1538 0.4447 0.7386
H21 H 0.0649 0.5054 0.6830
H22 H 0.1187 0.4378 0.6226
C19 C -0.1759(10) 0.4248(4) 0.6244(6)
H23 H -0.1375 0.4026 0.5641
H24 H -0.1935 0.4748 0.6117
H25 H -0.2675 0.4020 0.6432
C20 C -0.1292(11) 0.4420(5) 0.8111(7)
H26 H -0.2208 0.4170 0.8231
H27 H -0.1478 0.4926 0.8077
H28 H -0.0610 0.4322 0.8654
Bi1C Bi 0.07646(3) 0.290142(14) 0.398173(19)
O4C O 0.1166(6) 0.1938(3) 1.0733(4)
loop_
_geom_bond_atom_site_label_1
_geom_bond_atom_site_label_2
_geom_bond_site_symmetry_1
_geom_bond_site_symmetry_2
Bi1 O1 1_555 1_555
P1 O1 1_555 1_555
O2 P1 1_555 1_555
O3 P1 1_555 1_555
O4 P1 1_555 1_555
C1 Bi1 1_555 1_555
C2 C1 1_555 1_555
H1 C2 1_555 1_555
C3 C2 1_555 1_555
H2 C3 1_555 1_555
C4 C3 1_555 1_555
H3 C4 1_555 1_555
C5 C4 1_555 1_555
H4 C5 1_555 1_555
C6 C1 1_555 1_555
H5 C6 1_555 1_555
C7 Bi1 1_555 1_555
C8 C7 1_555 1_555
H6 C8 1_555 1_555
C9 H7 1_555 1_555
C10 C9 1_555 1_555
H8 C10 1_555 1_555
C11 C7 1_555 1_555
H9 C11 1_555 1_555
C12 C8 1_555 1_555
H10 C12 1_555 1_555
C13 O2 1_555 1_555
C14 C13 1_555 1_555
H11 C14 1_555 1_555
H12 C14 1_555 1_555
H13 C14 1_555 1_555
C15 C13 1_555 1_555
H14 C15 1_555 1_555
H15 C15 1_555 1_555
H16 C15 1_555 1_555
C16 C13 1_555 1_555
H17 C16 1_555 1_555
H18 C16 1_555 1_555
H19 C16 1_555 1_555
C17 O3 1_555 1_555
C18 C17 1_555 1_555
H20 C18 1_555 1_555
H21 C18 1_555 1_555
H22 C18 1_555 1_555
C19 C17 1_555 1_555
H23 C19 1_555 1_555
H24 C19 1_555 1_555
H25 C19 1_555 1_555
C20 C17 1_555 1_555
H26 C20 1_555 1_555
H27 C20 1_555 1_555
H28 C20 1_555 1_555
Bi1C O4 1_555 1_555
O4C Bi1 1_555 1_555
C5 C6 1_555 1_555
C9 C12 1_555 1_555
C10 C11 1_555 1_555

#END
