
#######################################################################
#
#                 Cambridge Crystallographic Data Centre
#                                CCDC 
#
#######################################################################
#
# If this CIF has been generated from an entry in the Cambridge 
# Structural Database, then it will include bibliographic, chemical, 
# crystal, experimental, refinement or atomic coordinate data resulting 
# from the CCDC's data processing and validation procedures.
#
#######################################################################

data_VEZMOE
_symmetry_cell_setting           hexagonal
_symmetry_space_group_name_H-M   'P 65'
_symmetry_Int_Tables_number      170
_space_group_name_Hall           'P 65'
loop_
_symmetry_equiv_pos_site_id
_symmetry_equiv_pos_as_xyz
1 x,y,z
2 -y,x-y,2/3+z
3 -x+y,-x,1/3+z
4 -x,-y,1/2+z
5 y,-x+y,1/6+z
6 x-y,x,5/6+z
_cell_length_a                   20.5909(4)
_cell_length_b                   20.5909(4)
_cell_length_c                   28.3082(9)
_cell_angle_alpha                90
_cell_angle_beta                 90
_cell_angle_gamma                120
_cell_volume                     10394.3
loop_
_atom_site_label
_atom_site_type_symbol
_atom_site_fract_x
_atom_site_fract_y
_atom_site_fract_z
Cd1 Cd 0.887997(13) 0.331248(13) -0.155598(9)
Cd2 Cd 0.996989(13) 0.767497(13) 0.018009(7)
Cd3 Cd 0.576462(12) 0.663827(12) -0.156460(8)
K1 K 0.84955(5) 0.24554(5) -0.02815(3)
K2 K 1.07441(6) 0.80244(6) -0.11036(4)
K3 K 0.42519(5) 0.48268(5) -0.11394(3)
N1 N 1.08886(18) 0.36947(19) 0.02611(13)
H1 H 1.0972 0.3904 0.0546
H2 H 1.0534 0.3746 0.0116
H3 H 1.1309 0.3920 0.0092
N2 N 0.9567(2) 0.5746(2) -0.17014(13)
H4 H 0.9379 0.5653 -0.1993
H5 H 0.9498 0.6101 -0.1570
H6 H 0.9334 0.5330 -0.1529
N3 N 0.3018(2) 0.2342(3) -0.16820(15)
H7 H 0.2817 0.2254 -0.1970
H8 H 0.2924 0.2667 -0.1533
H9 H 0.2818 0.1914 -0.1520
O1 O 0.57940(16) 0.01657(16) -0.36255(10)
O2 O 0.60321(15) 0.00333(13) -0.28823(9)
O3 O 0.82951(15) 0.33428(13) -0.22448(10)
O4 O 0.77279(14) 0.22267(14) -0.19114(9)
O5 O 1.18704(15) 0.18093(15) -0.24020(9)
O6 O 1.11979(15) 0.22010(16) -0.27876(9)
O7 O 0.91573(15) 0.22853(15) -0.11149(10)
O8 O 0.94196(16) 0.26641(16) -0.18562(9)
O9 O 0.81978(15) 0.32777(14) -0.09014(10)
O10 O 0.87752(16) 0.43965(15) -0.12265(10)
O11 O 0.8647(2) 0.64142(18) 0.04376(12)
O12 O 0.92353(17) 0.65796(16) -0.02330(11)
O13 O 0.25431(17) 0.35127(16) -0.34956(12)
O14 O 0.30079(17) 0.34749(15) -0.28005(10)
O15 O 0.52921(14) 0.67693(14) -0.23126(9)
O16 O 0.45538(15) 0.57824(16) -0.18819(9)
O17 O 0.50792(15) 0.64558(13) -0.08295(9)
O18 O 0.53246(16) 0.74320(15) -0.12773(9)
O19 O 0.54306(17) 0.96964(15) 0.02848(10)
O20 O 0.61086(15) 0.97349(14) -0.03242(10)
O21 O 0.68991(15) 0.78810(17) -0.17194(10)
O22 O 0.68420(15) 0.72377(15) -0.10836(10)
O23 O 0.90630(17) 0.80296(17) -0.00771(9)
O24 O 1.01050(15) 0.84434(16) -0.04713(10)
O25 O 0.94313(18) 0.2698(2) 0.05095(12)
H10 H 0.9362 0.2972 0.0746
O26 O 0.98528(17) 0.39598(17) -0.02773(11)
H11 H 1.0277 0.3965 -0.0395
O27 O 1.0595(3) 0.7215(2) -0.19250(14)
H12 H 1.0377 0.7332 -0.2174
O28 O 0.92365(17) 0.67307(17) -0.11624(11)
H13 H 0.9229 0.6292 -0.1074
O29 O 0.3981(3) 0.3851(3) -0.19021(17)
H14 H 0.3661 0.3869 -0.2126
O30 O 0.2777(2) 0.3363(2) -0.11234(12)
H15 H 0.2789 0.2941 -0.1018
C1 C 0.68873(18) 0.15751(19) -0.27437(13)
H16 H 0.6859 0.1255 -0.2502
C2 C 0.64965(18) 0.12720(17) -0.31651(13)
C3 C 0.6518(2) 0.1756(2) -0.35104(14)
H17 H 0.6255 0.1562 -0.3790
C4 C 0.6922(3) 0.2525(2) -0.34477(15)
H18 H 0.6920 0.2841 -0.3682
C5 C 0.7329(2) 0.2824(2) -0.30393(14)
H19 H 0.7611 0.3341 -0.3001
C6 C 0.73161(19) 0.23434(18) -0.26798(13)
C7 C 0.60728(17) 0.04354(18) -0.32312(14)
C8 C 0.77969(18) 0.26520(18) -0.22486(13)
C9 C 1.03513(19) 0.20466(19) -0.19627(13)
H20 H 1.0333 0.2339 -0.2207
C10 C 1.08048(18) 0.17313(18) -0.20062(12)
C11 C 1.0818(2) 0.1270(2) -0.16511(13)
H21 H 1.1122 0.1057 -0.1679
C12 C 1.0369(2) 0.1133(2) -0.12534(14)
H22 H 1.0364 0.0817 -0.1017
C13 C 0.9931(2) 0.1463(2) -0.12063(14)
H23 H 0.9639 0.1371 -0.0937
C14 C 0.99228(17) 0.19333(18) -0.15587(13)
C15 C 1.13206(19) 0.19252(18) -0.24294(12)
C16 C 0.94673(18) 0.23162(19) -0.15007(14)
C17 C 0.84788(19) 0.5035(2) -0.04277(14)
H24 H 0.8803 0.5358 -0.0657
C18 C 0.81528(19) 0.4262(2) -0.04890(13)
C19 C 0.7643(2) 0.3780(2) -0.01607(16)
H25 H 0.7413 0.3264 -0.0204
C20 C 0.7479(2) 0.4068(3) 0.02334(17)
H26 H 0.7144 0.3744 0.0458
C21 C 0.7811(2) 0.4843(2) 0.02964(16)
H27 H 0.7686 0.5033 0.0557
C22 C 0.8327(2) 0.5327(2) -0.00307(14)
C23 C 0.83862(18) 0.3965(2) -0.09016(13)
C24 C 0.8753(2) 0.6167(2) 0.00641(16)
C25 C 0.3750(2) 0.50222(19) -0.27018(13)
H28 H 0.3751 0.4734 -0.2449
C26 C 0.33228(18) 0.46664(19) -0.30992(13)
C27 C 0.3305(2) 0.5109(2) -0.34649(14)
H29 H 0.3027 0.4883 -0.3736
C28 C 0.3699(2) 0.5886(2) -0.34282(15)
H30 H 0.3661 0.6177 -0.3666
C29 C 0.4147(2) 0.6229(2) -0.30377(13)
H31 H 0.4430 0.6749 -0.3022
C30 C 0.41769(18) 0.58015(18) -0.26726(12)
C31 C 0.2927(2) 0.3830(2) -0.31359(14)
C32 C 0.46977(19) 0.61380(19) -0.22622(12)
C33 C 0.52242(19) 0.81879(19) -0.04767(12)
H32 H 0.5556 0.8477 -0.0714
C34 C 0.48680(18) 0.74091(18) -0.05075(12)
C35 C 0.4350(2) 0.6974(2) -0.01660(13)
H33 H 0.4114 0.6454 -0.0180
C36 C 0.4187(2) 0.7327(2) 0.01989(15)
H34 H 0.3825 0.7040 0.0422
C37 C 0.4563(2) 0.8104(2) 0.02293(14)
H35 H 0.4454 0.8334 0.0475
C38 C 0.5097(2) 0.85399(19) -0.01031(13)
C39 C 0.50938(19) 0.70702(19) -0.08953(12)
C40 C 0.5568(2) 0.93785(19) -0.00483(13)
C41 C 0.8361(2) 0.8193(2) -0.08810(13)
H36 H 0.812(2) 0.7894(19) -0.0659(11)
C42 C 0.8024(2) 0.82949(19) -0.12795(13)
C43 C 0.8477(2) 0.8813(2) -0.16151(14)
H37 H 0.8261 0.8900 -0.1878
C44 C 0.9250(2) 0.9202(2) -0.15623(16)
H38 H 0.9549 0.9552 -0.1789
C45 C 0.9581(2) 0.9074(2) -0.11733(14)
H39 H 1.0100 0.9327 -0.1144
C46 C 0.91345(19) 0.85668(19) -0.08284(12)
C47 C 0.7199(2) 0.7777(2) -0.13597(14)
C48 C 0.9453(2) 0.83399(19) -0.04265(13)
C49 C 1.0503(3) 0.2543(3) -0.01839(17)
H40 H 1.0344 0.2020 -0.0161
H41 H 1.0959 0.2795 -0.0364
H42 H 1.0121 0.2603 -0.0338
C50 C 1.0639(2) 0.2881(2) 0.03100(14)
H43 H 1.1049 0.2838 0.0454
C51 C 0.9972(2) 0.2506(3) 0.06317(16)
H44 H 0.9755 0.1967 0.0612
H45 H 1.0132 0.2657 0.0955
C52 C 0.9628(3) 0.4609(3) 0.03432(17)
H46 H 0.9710 0.5090 0.0443
H47 H 0.9847 0.4426 0.0569
H48 H 0.9100 0.4263 0.0320
C53 C 0.9986(2) 0.4684(2) -0.01293(15)
H49 H 0.9775 0.4878 -0.0358
H50 H 1.0521 0.5031 -0.0108
C54 C 1.0682(3) 0.6152(3) -0.12174(19)
H51 H 1.1209 0.6321 -0.1216
H52 H 1.0420 0.5696 -0.1039
H53 H 1.0598 0.6529 -0.1078
C55 C 1.0397(3) 0.6012(2) -0.17209(17)
H54 H 1.0462 0.5608 -0.1853
C56 C 1.0780(3) 0.6674(3) -0.20353(17)
H55 H 1.1319 0.6888 -0.2007
H56 H 1.0641 0.6517 -0.2360
C57 C 0.8547(3) 0.6962(3) -0.17500(18)
H57 H 0.8059 0.6874 -0.1839
H58 H 0.8731 0.6764 -0.1988
H59 H 0.8884 0.7492 -0.1719
C58 C 0.8494(3) 0.6588(3) -0.12925(17)
H60 H 0.8302 0.6782 -0.1051
H61 H 0.8153 0.6052 -0.1321
C59 C 0.4162(4) 0.2794(3) -0.1224(2)
H62 H 0.4694 0.2992 -0.1238
H63 H 0.3932 0.2329 -0.1052
H64 H 0.4060 0.3146 -0.1066
C60 C 0.3844(3) 0.2659(3) -0.17210(18)
H65 H 0.3930 0.2278 -0.1867
C61 C 0.4218(4) 0.3346(3) -0.2021(2)
H66 H 0.4757 0.3585 -0.1981
H67 H 0.4104 0.3205 -0.2351
C62 C 0.2145(4) 0.3595(3) -0.17527(19)
H68 H 0.1673 0.3537 -0.1850
H69 H 0.2298 0.3341 -0.1972
H70 H 0.2516 0.4118 -0.1744
C63 C 0.2065(3) 0.3258(3) -0.12633(17)
H71 H 0.1900 0.3504 -0.1040
H72 H 0.1695 0.2728 -0.1269
Cd1E Cd 0.556749(18) -0.112003(13) -0.322265(9)
Cd2A Cd 0.232503(13) 0.229492(18) -0.315324(7)
Cd2A_2 Cd 1.232503(13) 0.229492(18) -0.315324(7)
Cd3D Cd 0.663827(12) 1.087365(17) 0.010207(8)
K1E K 0.60401(7) 0.84955(5) -0.19482(3)
K2A K 0.19756(6) 0.27197(8) -0.44369(4)
K2D K 0.80244(6) 0.72803(8) 0.05631(4)
K3A K 0.51732(5) -0.05749(7) -0.44727(3)
K3D K 0.48268(5) 1.05749(7) 0.05273(3)
K3E K 0.94251(7) 0.42519(5) -0.28061(3)
O1B O 0.43717(23) 0.42060(16) -0.02922(10)
O1D O 1.01657(16) 0.43717(23) -0.19588(10)
O2D O 1.00333(13) 0.40012(20) -0.12156(9)
O3D O 0.33428(13) 0.50477(20) -0.05781(10)
O5B O 0.99389(21) 0.81296(15) 0.09313(9)
O6B O 1.10031(22) 0.88021(15) 0.05457(9)
O11E O 1.22328(27) 0.8647(2) -0.12291(12)
O13B O 1.09696(23) 0.74569(17) -0.01623(12)
O14B O 1.04670(23) 0.69921(17) 0.05328(10)
O15D O 0.67693(14) 0.14772(20) -0.06459(9)
O18D O 0.74320(15) 0.21074(22) 0.03894(9)
O19E O 0.57342(23) 0.54306(17) -0.13819(10)
O20E O 0.63737(21) 0.61086(15) -0.19909(10)
O21D O 0.78810(17) 0.09819(23) -0.00527(10)
O23E O 1.10334(24) 0.90630(17) -0.17438(9)
loop_
_geom_bond_atom_site_label_1
_geom_bond_atom_site_label_2
_geom_bond_site_symmetry_1
_geom_bond_site_symmetry_2
Cd1 O3 1_555 1_555
Cd2 O11 1_555 1_555
Cd3 O15 1_555 1_555
K1 O7 1_555 1_555
K2 O24 1_555 1_555
K3 O16 1_555 1_555
N1 H1 1_555 1_555
H2 N1 1_555 1_555
H3 N1 1_555 1_555
N2 H4 1_555 1_555
H5 N2 1_555 1_555
H6 N2 1_555 1_555
N3 H7 1_555 1_555
H8 N3 1_555 1_555
H9 N3 1_555 1_555
O1 C7 1_555 1_555
O2 C7 1_555 1_555
O3 C8 1_555 1_555
O4 Cd1 1_555 1_555
O5 C15 1_555 1_555
O6 C15 1_555 1_555
O7 Cd1 1_555 1_555
O8 Cd1 1_555 1_555
O9 Cd1 1_555 1_555
O10 Cd1 1_555 1_555
O11 C24 1_555 1_555
O12 Cd2 1_555 1_555
O13 C31 1_555 1_555
O14 C31 1_555 1_555
O15 C32 1_555 1_555
O16 Cd3 1_555 1_555
O17 Cd3 1_555 1_555
O18 Cd3 1_555 1_555
O19 C40 1_555 1_555
O20 C40 1_555 1_555
O21 Cd3 1_555 1_555
O22 Cd3 1_555 1_555
O23 Cd2 1_555 1_555
O24 Cd2 1_555 1_555
O25 K1 1_555 1_555
H10 O25 1_555 1_555
O26 K1 1_555 1_555
H11 O26 1_555 1_555
O27 K2 1_555 1_555
H12 O27 1_555 1_555
O28 K2 1_555 1_555
H13 O28 1_555 1_555
O29 K3 1_555 1_555
H14 O29 1_555 1_555
O30 K3 1_555 1_555
H15 O30 1_555 1_555
C1 H16 1_555 1_555
C2 C1 1_555 1_555
C3 C2 1_555 1_555
H17 C3 1_555 1_555
C4 C3 1_555 1_555
H18 C4 1_555 1_555
C5 C4 1_555 1_555
H19 C5 1_555 1_555
C6 C1 1_555 1_555
C7 C2 1_555 1_555
C8 O4 1_555 1_555
C9 H20 1_555 1_555
C10 C9 1_555 1_555
C11 C10 1_555 1_555
H21 C11 1_555 1_555
C12 C11 1_555 1_555
H22 C12 1_555 1_555
C13 C12 1_555 1_555
H23 C13 1_555 1_555
C14 C9 1_555 1_555
C15 C10 1_555 1_555
C16 O7 1_555 1_555
C17 H24 1_555 1_555
C18 C17 1_555 1_555
C19 C18 1_555 1_555
H25 C19 1_555 1_555
C20 C19 1_555 1_555
H26 C20 1_555 1_555
C21 C20 1_555 1_555
H27 C21 1_555 1_555
C22 C17 1_555 1_555
C23 O9 1_555 1_555
C24 O12 1_555 1_555
C25 H28 1_555 1_555
C26 C25 1_555 1_555
C27 C26 1_555 1_555
H29 C27 1_555 1_555
C28 C27 1_555 1_555
H30 C28 1_555 1_555
C29 C28 1_555 1_555
H31 C29 1_555 1_555
C30 C25 1_555 1_555
C31 C26 1_555 1_555
C32 O16 1_555 1_555
C33 H32 1_555 1_555
C34 C33 1_555 1_555
C35 C34 1_555 1_555
H33 C35 1_555 1_555
C36 C35 1_555 1_555
H34 C36 1_555 1_555
C37 C36 1_555 1_555
H35 C37 1_555 1_555
C38 C33 1_555 1_555
C39 O17 1_555 1_555
C40 C38 1_555 1_555
C41 H36 1_555 1_555
C42 C41 1_555 1_555
C43 C42 1_555 1_555
H37 C43 1_555 1_555
C44 C43 1_555 1_555
H38 C44 1_555 1_555
C45 C44 1_555 1_555
H39 C45 1_555 1_555
C46 C41 1_555 1_555
C47 O21 1_555 1_555
C48 O23 1_555 1_555
C49 H40 1_555 1_555
H41 C49 1_555 1_555
H42 C49 1_555 1_555
C50 N1 1_555 1_555
H43 C50 1_555 1_555
C51 O25 1_555 1_555
H44 C51 1_555 1_555
H45 C51 1_555 1_555
C52 H46 1_555 1_555
H47 C52 1_555 1_555
H48 C52 1_555 1_555
C53 O26 1_555 1_555
H49 C53 1_555 1_555
H50 C53 1_555 1_555
C54 H51 1_555 1_555
H52 C54 1_555 1_555
H53 C54 1_555 1_555
C55 N2 1_555 1_555
H54 C55 1_555 1_555
C56 O27 1_555 1_555
H55 C56 1_555 1_555
H56 C56 1_555 1_555
C57 H57 1_555 1_555
H58 C57 1_555 1_555
H59 C57 1_555 1_555
C58 O28 1_555 1_555
H60 C58 1_555 1_555
H61 C58 1_555 1_555
C59 H62 1_555 1_555
H63 C59 1_555 1_555
H64 C59 1_555 1_555
C60 N3 1_555 1_555
H65 C60 1_555 1_555
C61 O29 1_555 1_555
H66 C61 1_555 1_555
H67 C61 1_555 1_555
C62 H68 1_555 1_555
H69 C62 1_555 1_555
H70 C62 1_555 1_555
C63 O30 1_555 1_555
H71 C63 1_555 1_555
H72 C63 1_555 1_555
Cd1E O1 1_555 1_555
Cd2A O13 1_555 1_555
Cd2A_2 O5 1_555 1_555
Cd3D O19 1_555 1_555
K1E O15 1_555 1_555
K2A O13 1_555 1_555
K2D O11 1_555 1_555
K3A O1 1_555 1_555
K3D O19 1_555 1_555
K3E O3 1_555 1_555
O1B K3 1_555 1_555
O1D Cd1 1_555 1_555
O2D Cd1 1_555 1_555
O3D K3 1_555 1_555
O5B Cd2 1_555 1_555
O6B Cd2 1_555 1_555
O11E K2 1_555 1_555
O13B Cd2 1_555 1_555
O14B Cd2 1_555 1_555
O15D K1 1_555 1_555
O18D K1 1_555 1_555
O19E Cd3 1_555 1_555
O20E Cd3 1_555 1_555
O21D K1 1_555 1_555
O23E K2 1_555 1_555
K1 O9 1_555 1_555
K2 O13B 1_555 1_555
K3 O17 1_555 1_555
K3 O19E 1_555 1_555
O2 Cd1E 1_555 1_555
O6 Cd2A_2 1_555 1_555
O8 C16 1_555 1_555
O10 C23 1_555 1_555
O14 Cd2A 1_555 1_555
O18 C39 1_555 1_555
O18 K1E 1_555 1_555
O20 Cd3D 1_555 1_555
O21 K1E 1_555 1_555
O22 C47 1_555 1_555
O23 K2D 1_555 1_555
O24 C48 1_555 1_555
C5 C6 1_555 1_555
C6 C8 1_555 1_555
C13 C14 1_555 1_555
C14 C16 1_555 1_555
C18 C23 1_555 1_555
C21 C22 1_555 1_555
C22 C24 1_555 1_555
C29 C30 1_555 1_555
C30 C32 1_555 1_555
C34 C39 1_555 1_555
C37 C38 1_555 1_555
C42 C47 1_555 1_555
C45 C46 1_555 1_555
C46 C48 1_555 1_555
C49 C50 1_555 1_555
C50 C51 1_555 1_555
C52 C53 1_555 1_555
C54 C55 1_555 1_555
C55 C56 1_555 1_555
C57 C58 1_555 1_555
C59 C60 1_555 1_555
C60 C61 1_555 1_555
C62 C63 1_555 1_555
K3E O1D 1_555 1_555

#END
