
#######################################################################
#
#                 Cambridge Crystallographic Data Centre
#                                CCDC 
#
#######################################################################
#
# If this CIF has been generated from an entry in the Cambridge 
# Structural Database, then it will include bibliographic, chemical, 
# crystal, experimental, refinement or atomic coordinate data resulting 
# from the CCDC's data processing and validation procedures.
#
#######################################################################

data_VEZPEX
_symmetry_cell_setting           monoclinic
_symmetry_space_group_name_H-M   'P 21/m'
_symmetry_Int_Tables_number      11
_space_group_name_Hall           '-P 2yb'
loop_
_symmetry_equiv_pos_site_id
_symmetry_equiv_pos_as_xyz
1 x,y,z
2 -x,1/2+y,-z
3 -x,-y,-z
4 x,1/2-y,z
_cell_length_a                   4.8692(8)
_cell_length_b                   47.735(8)
_cell_length_c                   6.2805(10)
_cell_angle_alpha                90
_cell_angle_beta                 91.129(4)
_cell_angle_gamma                90
_cell_volume                     1459.5
loop_
_atom_site_label
_atom_site_type_symbol
_atom_site_fract_x
_atom_site_fract_y
_atom_site_fract_z
Cu1 Cu 0.9089(3) 0.2500 0.5075(2)
S1 S 1.4665(6) 0.2500 0.8202(4)
F1 F 0.6519(15) 0.07904(12) 0.2964(11)
F2 F 0.8394(18) 0.03006(16) 0.1631(16)
F3 F 0.684(2) 0.00918(15) -0.2150(17)
F4 F 0.311(2) 0.03759(17) -0.4641(14)
F5 F 0.1323(16) 0.08762(15) -0.3379(12)
N1 N 0.8413(13) 0.20814(15) 0.4977(10)
C1 C 0.941(2) 0.19117(19) 0.6509(15)
H1 H 1.0632 0.1982 0.7536
C2 C 0.866(2) 0.1636(2) 0.6567(16)
H2 H 0.9303 0.1524 0.7677
C3 C 0.700(2) 0.1525(2) 0.5066(16)
H3 H 0.6592 0.1334 0.5090
C4 C 0.5913(18) 0.16952(18) 0.3473(15)
C5 C 0.6798(18) 0.19724(17) 0.3489(13)
H4 H 0.6211 0.2088 0.2379
C6 C 0.391(2) 0.15971(19) 0.1792(17)
H5 H 0.2079 0.1593 0.2376
H6 H 0.3893 0.1728 0.0613
N2 N 0.4609(13) 0.13186(14) 0.1012(12)
H7 H 0.6310 0.1276 0.0859
C7 C 0.2689(16) 0.11276(17) 0.0529(15)
O1 O 0.0285(12) 0.11678(14) 0.0573(12)
C8 C 0.3849(18) 0.08492(18) -0.0175(14)
C9 C 0.565(2) 0.0701(2) 0.1069(17)
C10 C 0.671(3) 0.0444(2) 0.039(2)
C11 C 0.584(3) 0.0339(2) -0.149(3)
C12 C 0.401(3) 0.0479(2) -0.280(2)
C13 C 0.297(2) 0.0737(2) -0.2093(16)
O2 O 1.3423(16) 0.2500 0.6053(12)
O3 O 1.3910(15) 0.22517(19) 0.9362(13)
O4 O 1.7749(14) 0.2500 0.8004(12)
O5 O 0.9965(18) 0.2500 0.2040(13)
O3C O 1.3910(15) 0.27483(19) 0.9362(13)
F1C F 0.6519(15) 0.42096(12) 0.2964(11)
F2C F 0.8394(18) 0.46994(16) 0.1631(16)
F3C F 0.684(2) 0.49082(15) -0.2150(17)
F4C F 0.311(2) 0.46241(17) -0.4641(14)
F5C F 0.1323(16) 0.41238(15) -0.3379(12)
N1C N 0.8413(13) 0.29186(15) 0.4977(10)
C1C C 0.941(2) 0.30883(19) 0.6509(15)
H1C H 1.0632 0.3018 0.7536
C2C C 0.866(2) 0.3364(2) 0.6567(16)
H2C H 0.9303 0.3476 0.7677
C3C C 0.700(2) 0.3475(2) 0.5066(16)
H3C H 0.6592 0.3666 0.5090
C4C C 0.5913(18) 0.33048(18) 0.3473(15)
C5C C 0.6798(18) 0.30276(17) 0.3489(13)
H4C H 0.6211 0.2912 0.2379
C6C C 0.391(2) 0.34029(19) 0.1792(17)
H5C H 0.2079 0.3407 0.2376
H6C H 0.3893 0.3272 0.0613
N2C N 0.4609(13) 0.36814(14) 0.1012(12)
H7C H 0.6310 0.3724 0.0859
C7C C 0.2689(16) 0.38724(17) 0.0529(15)
O1C O 0.0285(12) 0.38322(14) 0.0573(12)
C8C C 0.3849(18) 0.41508(18) -0.0175(14)
C9C C 0.565(2) 0.4299(2) 0.1069(17)
C10C C 0.671(3) 0.4556(2) 0.039(2)
C11C C 0.584(3) 0.4661(2) -0.149(3)
C12C C 0.401(3) 0.4521(2) -0.280(2)
C13C C 0.297(2) 0.4263(2) -0.2093(16)
Cu1_2 Cu 1.9089(3) 0.2500 0.5075(2)
O4_2 O 0.7749(14) 0.2500 0.8004(12)
loop_
_geom_bond_atom_site_label_1
_geom_bond_atom_site_label_2
_geom_bond_site_symmetry_1
_geom_bond_site_symmetry_2
Cu1 N1 1_555 1_555
S1 O2 1_555 1_555
F1 C9 1_555 1_555
F2 C10 1_555 1_555
F3 C11 1_555 1_555
F4 C12 1_555 1_555
F5 C13 1_555 1_555
N1 C1 1_555 1_555
C1 H1 1_555 1_555
C2 C1 1_555 1_555
H2 C2 1_555 1_555
C3 C2 1_555 1_555
H3 C3 1_555 1_555
C4 C3 1_555 1_555
C5 N1 1_555 1_555
H4 C5 1_555 1_555
C6 C4 1_555 1_555
H5 C6 1_555 1_555
H6 C6 1_555 1_555
N2 C6 1_555 1_555
H7 N2 1_555 1_555
C7 N2 1_555 1_555
O1 C7 1_555 1_555
C8 C7 1_555 1_555
C9 C8 1_555 1_555
C10 C9 1_555 1_555
C11 C10 1_555 1_555
C12 C11 1_555 1_555
C13 C8 1_555 1_555
O2 Cu1 1_555 1_555
O3 S1 1_555 1_555
O4 S1 1_555 1_555
O5 Cu1 1_555 1_555
O3C S1 1_555 1_555
F1C C9C 1_555 1_555
F2C C10C 1_555 1_555
F3C C11C 1_555 1_555
F4C C12C 1_555 1_555
F5C C13C 1_555 1_555
N1C Cu1 1_555 1_555
C1C N1C 1_555 1_555
H1C C1C 1_555 1_555
C2C C1C 1_555 1_555
H2C C2C 1_555 1_555
C3C C2C 1_555 1_555
H3C C3C 1_555 1_555
C4C C3C 1_555 1_555
C5C N1C 1_555 1_555
H4C C5C 1_555 1_555
C6C C4C 1_555 1_555
H5C C6C 1_555 1_555
H6C C6C 1_555 1_555
N2C C6C 1_555 1_555
H7C N2C 1_555 1_555
C7C N2C 1_555 1_555
O1C C7C 1_555 1_555
C8C C7C 1_555 1_555
C9C C8C 1_555 1_555
C10C C9C 1_555 1_555
C11C C10C 1_555 1_555
C12C C11C 1_555 1_555
C13C C8C 1_555 1_555
Cu1_2 O4 1_555 1_555
O4_2 Cu1 1_555 1_555
C4 C5 1_555 1_555
C12 C13 1_555 1_555
C4C C5C 1_555 1_555
C12C C13C 1_555 1_555

#END
