
#######################################################################
#
#                 Cambridge Crystallographic Data Centre
#                                CCDC 
#
#######################################################################
#
# If this CIF has been generated from an entry in the Cambridge 
# Structural Database, then it will include bibliographic, chemical, 
# crystal, experimental, refinement or atomic coordinate data resulting 
# from the CCDC's data processing and validation procedures.
#
#######################################################################

data_VEZPAT
_symmetry_cell_setting           monoclinic
_symmetry_space_group_name_H-M   'C 2/c'
_symmetry_Int_Tables_number      15
_space_group_name_Hall           '-C 2yn'
loop_
_symmetry_equiv_pos_site_id
_symmetry_equiv_pos_as_xyz
1 x,y,z
2 -x,y,1/2-z
3 1/2+x,1/2+y,z
4 1/2-x,1/2+y,1/2-z
5 -x,-y,-z
6 x,-y,1/2+z
7 1/2-x,1/2-y,-z
8 1/2+x,1/2-y,1/2+z
_cell_length_a                   42.460(15)
_cell_length_b                   8.054(3)
_cell_length_c                   18.087(6)
_cell_angle_alpha                90
_cell_angle_beta                 98.341(6)
_cell_angle_gamma                90
_cell_volume                     6119.84
loop_
_atom_site_label
_atom_site_type_symbol
_atom_site_fract_x
_atom_site_fract_y
_atom_site_fract_z
Cu1 Cu 0.5000 0.53913(13) 0.7500
Si1 Si 0.5000 0.0462(3) 0.7500
F1 F 0.65726(19) 0.4240(10) 0.8521(5)
F2 F 0.7033(2) 0.4600(18) 0.7706(6)
F3 F 0.7317(2) 0.7538(18) 0.7560(6)
F4 F 0.7120(2) 1.0181(15) 0.8250(7)
F5 F 0.66665(16) 0.9914(10) 0.9131(5)
F6 F 0.33352(17) 1.3004(9) 0.8626(4)
F7 F 0.2769(2) 1.3424(13) 0.9111(5)
F8 F 0.24411(17) 1.0826(16) 0.9484(5)
F9 F 0.26781(18) 0.7721(14) 0.9359(5)
F10 F 0.32370(15) 0.7263(9) 0.8879(4)
F11 F 0.5000 0.2549(6) 0.7500
F12 F 0.46201(13) 0.0446(6) 0.7161(5)
F13 F 0.5000 -0.1630(6) 0.7500
F14 F 0.4898(2) 0.0442(6) 0.8343(3)
N1 N 0.52298(12) 0.5399(6) 0.8558(3)
C1 C 0.51803(18) 0.4163(9) 0.9025(4)
H1 H 0.5034 0.3337 0.8859
C2 C 0.5339(2) 0.4081(11) 0.9737(5)
H2 H 0.5295 0.3238 1.0059
C3 C 0.5567(2) 0.5284(12) 0.9974(5)
H3 H 0.5682 0.5228 1.0452
C4 C 0.56225(18) 0.6554(9) 0.9500(4)
C5 C 0.54419(17) 0.6574(8) 0.8805(4)
H4 H 0.5469 0.7456 0.8489
C6 C 0.5858(2) 0.7897(11) 0.9736(5)
H5 H 0.5748 0.8956 0.9710
H6 H 0.5951 0.7713 1.0251
N2 N 0.61113(18) 0.7977(9) 0.9275(4)
H7 H 0.6110 0.8769 0.8956
C7 C 0.6348(3) 0.6842(14) 0.9334(6)
O1 O 0.63612(19) 0.5704(9) 0.9797(5)
C8 C 0.6600(2) 0.7102(17) 0.8847(6)
C9 C 0.6703(3) 0.578(2) 0.8474(8)
C10 C 0.6937(5) 0.593(3) 0.8045(10)
C11 C 0.7067(4) 0.741(4) 0.7985(10)
C12 C 0.6977(4) 0.873(3) 0.8315(12)
C13 C 0.6748(3) 0.8547(18) 0.8751(8)
N3 N 0.45755(13) 0.5495(6) 0.7868(3)
C14 C 0.44993(17) 0.6892(8) 0.8206(4)
H8 H 0.4659 0.7673 0.8336
C15 C 0.41973(16) 0.7248(8) 0.8377(4)
C16 C 0.39652(18) 0.6055(10) 0.8201(5)
H9 H 0.3760 0.6251 0.8301
C17 C 0.40368(18) 0.4555(10) 0.7874(4)
H10 H 0.3884 0.3725 0.7774
C18 C 0.43455(18) 0.4345(9) 0.7702(4)
H11 H 0.4394 0.3373 0.7464
C19 C 0.41482(17) 0.8881(9) 0.8753(4)
H12 H 0.4296 0.8939 0.9215
H13 H 0.4202 0.9773 0.8433
N4 N 0.38291(14) 0.9160(7) 0.8922(4)
H14 H 0.3782 0.8800 0.9340
C20 C 0.36096(19) 0.9930(11) 0.8471(5)
O2 O 0.36501(15) 1.0465(10) 0.7836(4)
C21 C 0.3305(2) 1.0148(14) 0.8747(5)
C22 C 0.3171(3) 1.1662(18) 0.8804(6)
C23 C 0.2895(4) 1.199(2) 0.9046(8)
C24 C 0.2726(4) 1.075(3) 0.9238(9)
C25 C 0.2834(3) 0.915(3) 0.9189(7)
C26 C 0.3134(3) 0.8901(19) 0.8937(6)
F12A F 0.53799(13) 0.0446(6) 0.7839(5)
F14A F 0.5102(2) 0.0442(6) 0.6657(3)
F1A F 0.34274(19) 0.4240(10) 0.6479(5)
F2A F 0.2967(2) 0.4600(18) 0.7294(6)
F3A F 0.2683(2) 0.7538(18) 0.7440(6)
F4A F 0.2880(2) 1.0181(15) 0.6750(7)
F5A F 0.33335(16) 0.9914(10) 0.5869(5)
F6A F 0.66648(17) 1.3004(9) 0.6374(4)
F7A F 0.7231(2) 1.3424(13) 0.5889(5)
F8A F 0.75589(17) 1.0826(16) 0.5516(5)
F9A F 0.73219(18) 0.7721(14) 0.5641(5)
F10A F 0.67630(15) 0.7263(9) 0.6121(4)
N1A N 0.47702(12) 0.5399(6) 0.6442(3)
C1A C 0.48197(18) 0.4163(9) 0.5975(4)
H1A H 0.4966 0.3337 0.6141
C2A C 0.4661(2) 0.4081(11) 0.5263(5)
H2A H 0.4705 0.3238 0.4941
C3A C 0.4433(2) 0.5284(12) 0.5026(5)
H3A H 0.4318 0.5228 0.4548
C4A C 0.43775(18) 0.6554(9) 0.5500(4)
C5A C 0.45581(17) 0.6574(8) 0.6195(4)
H4A H 0.4531 0.7456 0.6511
C6A C 0.4142(2) 0.7897(11) 0.5264(5)
H5A H 0.4252 0.8956 0.5290
H6A H 0.4049 0.7713 0.4749
N2A N 0.38887(18) 0.7977(9) 0.5725(4)
H7A H 0.3890 0.8769 0.6044
C7A C 0.3652(3) 0.6842(14) 0.5666(6)
O1A O 0.36388(19) 0.5704(9) 0.5203(5)
C8A C 0.3400(2) 0.7102(17) 0.6153(6)
C9A C 0.3297(3) 0.578(2) 0.6526(8)
C10A C 0.3063(5) 0.593(3) 0.6955(10)
C11A C 0.2933(4) 0.741(4) 0.7015(10)
C12A C 0.3023(4) 0.873(3) 0.6685(12)
C13A C 0.3252(3) 0.8547(18) 0.6249(8)
N3A N 0.54245(13) 0.5495(6) 0.7132(3)
C14A C 0.55007(17) 0.6892(8) 0.6794(4)
H8A H 0.5341 0.7673 0.6664
C15A C 0.58027(16) 0.7248(8) 0.6623(4)
C16A C 0.60348(18) 0.6055(10) 0.6799(5)
H9A H 0.6240 0.6251 0.6699
C17A C 0.59632(18) 0.4555(10) 0.7126(4)
H10A H 0.6116 0.3725 0.7226
C18A C 0.56545(18) 0.4345(9) 0.7298(4)
H11A H 0.5606 0.3373 0.7536
C19A C 0.58518(17) 0.8881(9) 0.6247(4)
H12A H 0.5704 0.8939 0.5785
H13A H 0.5798 0.9773 0.6567
N4A N 0.61709(14) 0.9160(7) 0.6078(4)
H14A H 0.6218 0.8800 0.5660
C20A C 0.63904(19) 0.9930(11) 0.6529(5)
O2A O 0.63499(15) 1.0465(10) 0.7164(4)
C21A C 0.6695(2) 1.0148(14) 0.6253(5)
C22A C 0.6829(3) 1.1662(18) 0.6196(6)
C23A C 0.7105(4) 1.199(2) 0.5954(8)
C24A C 0.7274(4) 1.075(3) 0.5762(9)
C25A C 0.7166(3) 0.915(3) 0.5811(7)
C26A C 0.6866(3) 0.8901(19) 0.6063(6)
Cu1_2 Cu 0.5000 -0.46087(13) 0.7500
F13_2 F 0.5000 0.8370(6) 0.7500
O3 O 0.40088(14) 0.0738(8) 0.6715(3)
O4 O 0.3836(2) 0.7629(10) 0.0291(4)
loop_
_geom_bond_atom_site_label_1
_geom_bond_atom_site_label_2
_geom_bond_site_symmetry_1
_geom_bond_site_symmetry_2
Cu1 F11 1_555 1_555
Si1 F11 1_555 1_555
F1 C9 1_555 1_555
F2 C10 1_555 1_555
F3 C11 1_555 1_555
F4 C12 1_555 1_555
F5 C13 1_555 1_555
F6 C22 1_555 1_555
F7 C23 1_555 1_555
F8 C24 1_555 1_555
F9 C25 1_555 1_555
F10 C26 1_555 1_555
F12 Si1 1_555 1_555
F13 Si1 1_555 1_555
F14 Si1 1_555 1_555
N1 Cu1 1_555 1_555
C1 N1 1_555 1_555
H1 C1 1_555 1_555
C2 C1 1_555 1_555
H2 C2 1_555 1_555
C3 C2 1_555 1_555
H3 C3 1_555 1_555
C4 C3 1_555 1_555
C5 N1 1_555 1_555
H4 C5 1_555 1_555
C6 C4 1_555 1_555
H5 C6 1_555 1_555
H6 C6 1_555 1_555
N2 C6 1_555 1_555
H7 N2 1_555 1_555
C7 N2 1_555 1_555
O1 C7 1_555 1_555
C8 C7 1_555 1_555
C9 C8 1_555 1_555
C10 C9 1_555 1_555
C11 C10 1_555 1_555
C12 C11 1_555 1_555
C13 C8 1_555 1_555
N3 Cu1 1_555 1_555
C14 N3 1_555 1_555
H8 C14 1_555 1_555
C15 C14 1_555 1_555
C16 C15 1_555 1_555
H9 C16 1_555 1_555
C17 C16 1_555 1_555
H10 C17 1_555 1_555
C18 N3 1_555 1_555
H11 C18 1_555 1_555
C19 C15 1_555 1_555
H12 C19 1_555 1_555
H13 C19 1_555 1_555
N4 C19 1_555 1_555
H14 N4 1_555 1_555
C20 N4 1_555 1_555
O2 C20 1_555 1_555
C21 C20 1_555 1_555
C22 C21 1_555 1_555
C23 C22 1_555 1_555
C24 C23 1_555 1_555
C25 C24 1_555 1_555
C26 C21 1_555 1_555
F12A Si1 1_555 1_555
F14A Si1 1_555 1_555
F1A C9A 1_555 1_555
F2A C10A 1_555 1_555
F3A C11A 1_555 1_555
F4A C12A 1_555 1_555
F5A C13A 1_555 1_555
F6A C22A 1_555 1_555
F7A C23A 1_555 1_555
F8A C24A 1_555 1_555
F9A C25A 1_555 1_555
F10A C26A 1_555 1_555
N1A Cu1 1_555 1_555
C1A N1A 1_555 1_555
H1A C1A 1_555 1_555
C2A C1A 1_555 1_555
H2A C2A 1_555 1_555
C3A C2A 1_555 1_555
H3A C3A 1_555 1_555
C4A C3A 1_555 1_555
C5A N1A 1_555 1_555
H4A C5A 1_555 1_555
C6A C4A 1_555 1_555
H5A C6A 1_555 1_555
H6A C6A 1_555 1_555
N2A C6A 1_555 1_555
H7A N2A 1_555 1_555
C7A N2A 1_555 1_555
O1A C7A 1_555 1_555
C8A C7A 1_555 1_555
C9A C8A 1_555 1_555
C10A C9A 1_555 1_555
C11A C10A 1_555 1_555
C12A C11A 1_555 1_555
C13A C8A 1_555 1_555
N3A Cu1 1_555 1_555
C14A N3A 1_555 1_555
H8A C14A 1_555 1_555
C15A C14A 1_555 1_555
C16A C15A 1_555 1_555
H9A C16A 1_555 1_555
C17A C16A 1_555 1_555
H10A C17A 1_555 1_555
C18A N3A 1_555 1_555
H11A C18A 1_555 1_555
C19A C15A 1_555 1_555
H12A C19A 1_555 1_555
H13A C19A 1_555 1_555
N4A C19A 1_555 1_555
H14A N4A 1_555 1_555
C20A N4A 1_555 1_555
O2A C20A 1_555 1_555
C21A C20A 1_555 1_555
C22A C21A 1_555 1_555
C23A C22A 1_555 1_555
C24A C23A 1_555 1_555
C25A C24A 1_555 1_555
C26A C21A 1_555 1_555
Cu1_2 F13 1_555 1_555
F13_2 Cu1 1_555 1_555
C4 C5 1_555 1_555
C12 C13 1_555 1_555
C17 C18 1_555 1_555
C25 C26 1_555 1_555
C4A C5A 1_555 1_555
C12A C13A 1_555 1_555
C17A C18A 1_555 1_555
C25A C26A 1_555 1_555

#END
