
#######################################################################
#
#                 Cambridge Crystallographic Data Centre
#                                CCDC 
#
#######################################################################
#
# If this CIF has been generated from an entry in the Cambridge 
# Structural Database, then it will include bibliographic, chemical, 
# crystal, experimental, refinement or atomic coordinate data resulting 
# from the CCDC's data processing and validation procedures.
#
#######################################################################

data_VEZTUR
_symmetry_cell_setting           monoclinic
_symmetry_space_group_name_H-M   'C 2/c'
_symmetry_Int_Tables_number      15
_space_group_name_Hall           '-C 2yn'
loop_
_symmetry_equiv_pos_site_id
_symmetry_equiv_pos_as_xyz
1 x,y,z
2 -x,y,1/2-z
3 1/2+x,1/2+y,z
4 1/2-x,1/2+y,1/2-z
5 -x,-y,-z
6 x,-y,1/2+z
7 1/2-x,1/2-y,-z
8 1/2+x,1/2-y,1/2+z
_cell_length_a                   24.3069(17)
_cell_length_b                   9.3535(6)
_cell_length_c                   25.2396(18)
_cell_angle_alpha                90
_cell_angle_beta                 101.6200(10)
_cell_angle_gamma                90
_cell_volume                     5620.73
loop_
_atom_site_label
_atom_site_type_symbol
_atom_site_fract_x
_atom_site_fract_y
_atom_site_fract_z
Cd1 Cd 0.227770(11) 0.82287(3) 0.082449(12)
Cd2 Cd 0.071909(11) 0.93098(3) -0.003669(12)
S1 S 0.04848(4) 1.16990(10) 0.09358(4)
N1 N 0.30472(13) 0.7518(4) 0.14970(14)
N2 N 0.17280(13) 0.6959(3) 0.13230(13)
N3 N 0.09191(13) 0.8995(3) 0.44032(13)
O1 O 0.05389(11) 1.7059(3) 0.02656(12)
O2 O 0.12701(12) 1.7325(3) -0.01097(12)
O3 O 0.21451(11) 1.5356(3) -0.04584(12)
O4 O 0.24379(10) 1.6203(3) 0.03770(12)
O5 O 0.15414(10) 0.9794(3) 0.05785(12)
O6 O 0.21481(12) 1.0841(3) 0.12308(13)
O7 O 0.02489(10) 1.0692(3) 0.04847(11)
O8 O 0.08162(12) 1.0949(3) 0.13874(12)
O9 O 0.00495(11) 1.2604(3) 0.10510(13)
C1 C 0.11424(14) 1.5050(4) 0.02602(15)
C2 C 0.16788(14) 1.4572(4) 0.02241(15)
C3 C 0.18466(15) 1.3216(4) 0.04229(15)
H1 H 0.2205 1.2898 0.0404
C4 C 0.14995(14) 1.2330(4) 0.06465(15)
C5 C 0.09529(15) 1.2791(4) 0.06578(15)
C6 C 0.07808(14) 1.4145(4) 0.04702(15)
H2 H 0.0420 1.4455 0.0484
C7 C 0.09667(15) 1.6563(4) 0.01211(16)
C8 C 0.21125(15) 1.5483(4) 0.00275(17)
C9 C 0.17373(15) 1.0896(4) 0.08659(18)
C10 C 0.30489(17) 0.6901(5) 0.19767(17)
H3 H 0.2732 0.7005 0.2127
C11 C 0.34934(17) 0.6123(5) 0.22601(18)
H4 H 0.3470 0.5702 0.2589
C12 C 0.39763(16) 0.5972(4) 0.20521(18)
C13 C 0.39861(17) 0.6657(4) 0.15688(17)
H5 H 0.4307 0.6620 0.1422
C14 C 0.35234(17) 0.7392(5) 0.13069(18)
H6 H 0.3539 0.7828 0.0979
C15 C 0.44795(17) 0.5118(5) 0.2329(2)
H7 H 0.4391 0.4656 0.2646
H8 H 0.4555 0.4375 0.2086
C16 C 0.5000 0.6015(6) 0.2500
H9 H 0.4953 0.6627 0.2798
C17 C 0.13020(17) 0.7542(4) 0.14993(18)
H10 H 0.1199 0.8477 0.1399
C18 C 0.10056(18) 0.6816(4) 0.18248(18)
H11 H 0.0705 0.7260 0.1935
C19 C 0.11510(17) 0.5434(4) 0.19901(16)
C20 C 0.15896(17) 0.4825(4) 0.18021(17)
H12 H 0.1700 0.3891 0.1896
C21 C 0.18637(16) 0.5606(4) 0.14742(16)
H13 H 0.2159 0.5177 0.1350
C22 C 0.0850(2) 0.4593(4) 0.23621(18)
H14 H 0.1074 0.3761 0.2495
H15 H 0.0494 0.4254 0.2154
C23 C 0.07373(19) 0.5448(5) 0.28460(18)
H16 H 0.0500 0.6258 0.2712
H17 H 0.0530 0.4849 0.3051
C24 C 0.12617(18) 0.5995(5) 0.32234(18)
H18 H 0.1473 0.5184 0.3397
H19 H 0.1495 0.6483 0.3010
C25 C 0.14160(17) 0.8979(4) 0.42473(18)
H20 H 0.1689 0.9640 0.4398
C26 C 0.15364(17) 0.8023(4) 0.38734(18)
H21 H 0.1881 0.8065 0.3767
C27 C 0.11476(17) 0.7002(4) 0.36553(16)
C28 C 0.06538(19) 0.6979(5) 0.3843(2)
H22 H 0.0387 0.6275 0.3724
C29 C 0.05526(18) 0.7990(4) 0.42058(19)
H23 H 0.0211 0.7968 0.4317
N1A N 0.69528(13) 0.7518(4) 0.35030(14)
C10A C 0.69511(17) 0.6901(5) 0.30233(17)
H3A H 0.7268 0.7005 0.2873
C11A C 0.65066(17) 0.6123(5) 0.27399(18)
H4A H 0.6530 0.5702 0.2411
C12A C 0.60237(16) 0.5972(4) 0.29479(18)
C13A C 0.60139(17) 0.6657(4) 0.34312(17)
H5A H 0.5693 0.6620 0.3578
C14A C 0.64766(17) 0.7392(5) 0.36931(18)
H6A H 0.6461 0.7828 0.4021
C15A C 0.55205(17) 0.5118(5) 0.2671(2)
H7A H 0.5609 0.4656 0.2354
H8A H 0.5445 0.4375 0.2914
H9A H 0.5047 0.6627 0.2202
Cd1A Cd 0.772230(11) 0.82287(3) 0.417551(12)
Cd2A Cd 0.928091(11) 0.93098(3) 0.503669(12)
S1A S 0.95152(4) 1.16990(10) 0.40642(4)
N2A N 0.82720(13) 0.6959(3) 0.36770(13)
N3A N 0.90809(13) 0.8995(3) 0.05968(13)
O1A O 0.94611(11) 1.7059(3) 0.47344(12)
O2A O 0.87299(12) 1.7325(3) 0.51097(12)
O3A O 0.78549(11) 1.5356(3) 0.54584(12)
O4A O 0.75621(10) 1.6203(3) 0.46230(12)
O5A O 0.84586(10) 0.9794(3) 0.44215(12)
O6A O 0.78519(12) 1.0841(3) 0.37692(13)
O7A O 0.97511(10) 1.0692(3) 0.45153(11)
O8A O 0.91838(12) 1.0949(3) 0.36126(12)
O9A O 0.99505(11) 1.2604(3) 0.39490(13)
C1A C 0.88576(14) 1.5050(4) 0.47398(15)
C2A C 0.83212(14) 1.4572(4) 0.47759(15)
C3A C 0.81534(15) 1.3216(4) 0.45771(15)
H1A H 0.7795 1.2898 0.4596
C4A C 0.85005(14) 1.2330(4) 0.43535(15)
C5A C 0.90471(15) 1.2791(4) 0.43422(15)
C6A C 0.92192(14) 1.4145(4) 0.45298(15)
H2A H 0.9580 1.4455 0.4516
C7A C 0.90333(15) 1.6563(4) 0.48789(16)
C8A C 0.78875(15) 1.5483(4) 0.49725(17)
C9A C 0.82627(15) 1.0896(4) 0.41341(18)
C17A C 0.86980(17) 0.7542(4) 0.35007(18)
H10A H 0.8801 0.8477 0.3601
C18A C 0.89944(18) 0.6816(4) 0.31752(18)
H11A H 0.9295 0.7260 0.3065
C19A C 0.88490(17) 0.5434(4) 0.30099(16)
C20A C 0.84104(17) 0.4825(4) 0.31979(17)
H12A H 0.8300 0.3891 0.3104
C21A C 0.81363(16) 0.5606(4) 0.35258(16)
H13A H 0.7841 0.5177 0.3650
C22A C 0.9150(2) 0.4593(4) 0.26379(18)
H14A H 0.8926 0.3761 0.2505
H15A H 0.9506 0.4254 0.2846
C23A C 0.92627(19) 0.5448(5) 0.21540(18)
H16A H 0.9500 0.6258 0.2288
H17A H 0.9470 0.4849 0.1949
C24A C 0.87383(18) 0.5995(5) 0.17766(18)
H18A H 0.8527 0.5184 0.1603
H19A H 0.8505 0.6483 0.1990
C25A C 0.85840(17) 0.8979(4) 0.07527(18)
H20A H 0.8311 0.9640 0.0602
C26A C 0.84636(17) 0.8023(4) 0.11266(18)
H21A H 0.8119 0.8065 0.1233
C27A C 0.88524(17) 0.7002(4) 0.13447(16)
C28A C 0.93462(19) 0.6979(5) 0.1157(2)
H22A H 0.9613 0.6275 0.1276
C29A C 0.94474(18) 0.7990(4) 0.07942(19)
H23A H 0.9789 0.7968 0.0683
Cd1_2 Cd 0.227770(11) 1.82287(3) 0.082449(12)
Cd1A_2 Cd 0.772230(11) 1.82287(3) 0.417551(12)
Cd1F Cd 0.272230(11) 1.67713(3) -0.082449(12)
Cd1G Cd 0.727770(11) 1.67713(3) 0.582449(12)
Cd2_2 Cd 0.071909(11) 1.93098(3) -0.003669(12)
Cd2A_2 Cd 0.928091(11) 1.93098(3) 0.503669(12)
Cd2D Cd -0.071909(11) 1.06902(3) 0.003669(12)
Cd2D_2 Cd 0.928091(11) 1.06902(3) 0.003669(12)
Cd2E Cd 0.071909(11) 1.06902(3) 0.496331(12)
Cd2E_2 Cd 1.071909(11) 1.06902(3) 0.496331(12)
N3D N 0.90809(13) 1.1005(3) 0.55968(13)
N3E N 0.09191(13) 1.1005(3) -0.05968(13)
O1_2 O 0.05389(11) 0.7059(3) 0.02656(12)
O1A_2 O 0.94611(11) 0.7059(3) 0.47344(12)
O2_2 O 0.12701(12) 0.7325(3) -0.01097(12)
O2A_2 O 0.87299(12) 0.7325(3) 0.51097(12)
O3F O 0.28549(11) 0.9644(3) 0.04584(12)
O3G O 0.71451(11) 0.9644(3) 0.45416(12)
O4_2 O 0.24379(10) 0.6203(3) 0.03770(12)
O4A_2 O 0.75621(10) 0.6203(3) 0.46230(12)
O7D O -0.02489(10) 0.9308(3) -0.04847(11)
O7E O 1.02489(10) 0.9308(3) 0.54847(11)
loop_
_geom_bond_atom_site_label_1
_geom_bond_atom_site_label_2
_geom_bond_site_symmetry_1
_geom_bond_site_symmetry_2
Cd1 N1 1_555 1_555
Cd2 O5 1_555 1_555
S1 O7 1_555 1_555
N1 C10 1_555 1_555
N2 Cd1 1_555 1_555
N3 C25 1_555 1_555
O1 C7 1_555 1_555
O2 C7 1_555 1_555
O3 C8 1_555 1_555
O4 C8 1_555 1_555
O5 Cd1 1_555 1_555
O6 Cd1 1_555 1_555
O7 Cd2 1_555 1_555
O8 S1 1_555 1_555
O9 S1 1_555 1_555
C1 C2 1_555 1_555
C2 C3 1_555 1_555
C3 H1 1_555 1_555
C4 C3 1_555 1_555
C5 S1 1_555 1_555
C6 C1 1_555 1_555
H2 C6 1_555 1_555
C7 C1 1_555 1_555
C8 C2 1_555 1_555
C9 O5 1_555 1_555
C10 H3 1_555 1_555
C11 C10 1_555 1_555
H4 C11 1_555 1_555
C12 C11 1_555 1_555
C13 C12 1_555 1_555
H5 C13 1_555 1_555
C14 N1 1_555 1_555
H6 C14 1_555 1_555
C15 C12 1_555 1_555
H7 C15 1_555 1_555
H8 C15 1_555 1_555
C16 C15 1_555 1_555
H9 C16 1_555 1_555
C17 N2 1_555 1_555
H10 C17 1_555 1_555
C18 C17 1_555 1_555
H11 C18 1_555 1_555
C19 C18 1_555 1_555
C20 C19 1_555 1_555
H12 C20 1_555 1_555
C21 N2 1_555 1_555
H13 C21 1_555 1_555
C22 C19 1_555 1_555
H14 C22 1_555 1_555
H15 C22 1_555 1_555
C23 C22 1_555 1_555
H16 C23 1_555 1_555
H17 C23 1_555 1_555
C24 C23 1_555 1_555
H18 C24 1_555 1_555
H19 C24 1_555 1_555
C25 H20 1_555 1_555
C26 C25 1_555 1_555
H21 C26 1_555 1_555
C27 C24 1_555 1_555
C28 C27 1_555 1_555
H22 C28 1_555 1_555
C29 N3 1_555 1_555
H23 C29 1_555 1_555
N1A C10A 1_555 1_555
C10A H3A 1_555 1_555
C11A C10A 1_555 1_555
H4A C11A 1_555 1_555
C12A C11A 1_555 1_555
C13A C12A 1_555 1_555
H5A C13A 1_555 1_555
C14A N1A 1_555 1_555
H6A C14A 1_555 1_555
C15A C16 1_555 1_555
H7A C15A 1_555 1_555
H8A C15A 1_555 1_555
H9A C16 1_555 1_555
Cd1A N1A 1_555 1_555
Cd2A O5A 1_555 1_555
S1A O7A 1_555 1_555
N2A Cd1A 1_555 1_555
N3A C25A 1_555 1_555
O1A C7A 1_555 1_555
O2A C7A 1_555 1_555
O3A C8A 1_555 1_555
O4A C8A 1_555 1_555
O5A Cd1A 1_555 1_555
O6A Cd1A 1_555 1_555
O7A Cd2A 1_555 1_555
O8A S1A 1_555 1_555
O9A S1A 1_555 1_555
C1A C2A 1_555 1_555
C2A C3A 1_555 1_555
C3A H1A 1_555 1_555
C4A C3A 1_555 1_555
C5A S1A 1_555 1_555
C6A C1A 1_555 1_555
H2A C6A 1_555 1_555
C7A C1A 1_555 1_555
C8A C2A 1_555 1_555
C9A O5A 1_555 1_555
C17A N2A 1_555 1_555
H10A C17A 1_555 1_555
C18A C17A 1_555 1_555
H11A C18A 1_555 1_555
C19A C18A 1_555 1_555
C20A C19A 1_555 1_555
H12A C20A 1_555 1_555
C21A N2A 1_555 1_555
H13A C21A 1_555 1_555
C22A C19A 1_555 1_555
H14A C22A 1_555 1_555
H15A C22A 1_555 1_555
C23A C22A 1_555 1_555
H16A C23A 1_555 1_555
H17A C23A 1_555 1_555
C24A C23A 1_555 1_555
H18A C24A 1_555 1_555
H19A C24A 1_555 1_555
C25A H20A 1_555 1_555
C26A C25A 1_555 1_555
H21A C26A 1_555 1_555
C27A C24A 1_555 1_555
C28A C27A 1_555 1_555
H22A C28A 1_555 1_555
C29A N3A 1_555 1_555
H23A C29A 1_555 1_555
Cd1_2 O4 1_555 1_555
Cd1A_2 O4A 1_555 1_555
Cd1F O3 1_555 1_555
Cd1G O3A 1_555 1_555
Cd2_2 O1 1_555 1_555
Cd2A_2 O1A 1_555 1_555
Cd2D O7 1_555 1_555
Cd2D_2 N3A 1_555 1_555
Cd2E N3 1_555 1_555
Cd2E_2 O7A 1_555 1_555
N3D Cd2A 1_555 1_555
N3E Cd2 1_555 1_555
O1_2 Cd2 1_555 1_555
O1A_2 Cd2A 1_555 1_555
O2_2 Cd2 1_555 1_555
O2A_2 Cd2A 1_555 1_555
O3F Cd1 1_555 1_555
O3G Cd1A 1_555 1_555
O4_2 Cd1 1_555 1_555
O4A_2 Cd1A 1_555 1_555
O7D Cd2 1_555 1_555
O7E Cd2A 1_555 1_555
O2 Cd2_2 1_555 1_555
O6 C9 1_555 1_555
C4 C5 1_555 1_555
C4 C9 1_555 1_555
C5 C6 1_555 1_555
C13 C14 1_555 1_555
C20 C21 1_555 1_555
C26 C27 1_555 1_555
C28 C29 1_555 1_555
C12A C15A 1_555 1_555
C13A C14A 1_555 1_555
O2A Cd2A_2 1_555 1_555
O6A C9A 1_555 1_555
C4A C5A 1_555 1_555
C4A C9A 1_555 1_555
C5A C6A 1_555 1_555
C20A C21A 1_555 1_555
C26A C27A 1_555 1_555
C28A C29A 1_555 1_555
Cd2D O7D 1_555 1_555
Cd2E_2 O7E 1_555 1_555

#END
