
#######################################################################
#
#                 Cambridge Crystallographic Data Centre
#                                CCDC 
#
#######################################################################
#
# If this CIF has been generated from an entry in the Cambridge 
# Structural Database, then it will include bibliographic, chemical, 
# crystal, experimental, refinement or atomic coordinate data resulting 
# from the CCDC's data processing and validation procedures.
#
#######################################################################

data_VEZVAZ
_symmetry_cell_setting           monoclinic
_symmetry_space_group_name_H-M   'C 2/c'
_symmetry_Int_Tables_number      15
_space_group_name_Hall           '-C 2yn'
loop_
_symmetry_equiv_pos_site_id
_symmetry_equiv_pos_as_xyz
1 x,y,z
2 -x,y,1/2-z
3 1/2+x,1/2+y,z
4 1/2-x,1/2+y,1/2-z
5 -x,-y,-z
6 x,-y,1/2+z
7 1/2-x,1/2-y,-z
8 1/2+x,1/2-y,1/2+z
_cell_length_a                   20.440(5)
_cell_length_b                   8.974(3)
_cell_length_c                   18.728(5)
_cell_angle_alpha                90
_cell_angle_beta                 95.099(5)
_cell_angle_gamma                90
_cell_volume                     3421.66
loop_
_atom_site_label
_atom_site_type_symbol
_atom_site_fract_x
_atom_site_fract_y
_atom_site_fract_z
Zn1 Zn 0.0000 0.67396(9) 0.2500
Zn2 Zn 0.0000 0.5000 0.0000
S1 S -0.11150(14) 0.7613(3) -0.02740(12)
O1 O -0.0026(2) 0.8197(4) 0.17129(19)
O2 O -0.0816(2) 0.6230(4) -0.0407(2)
O3 O 0.0049(2) 0.6347(4) 0.09448(19)
O4 O -0.1440(3) 0.7568(10) 0.0356(4)
O5 O -0.1551(3) 0.8152(7) -0.0780(5)
N1 N 0.0897(2) 0.5733(5) 0.2601(2)
N2 N 0.4379(2) 0.8555(5) 0.0565(2)
C1 C 0.3790(3) 0.8116(7) 0.0287(3)
H1 H 0.3632 0.8490 -0.0158
C2 C -0.0460(3) 0.8848(6) -0.0108(3)
C3 C -0.0003(3) 0.7700(6) 0.1088(3)
C4 C 0.1141(3) 0.5007(6) 0.2051(3)
H2 H 0.0875 0.4897 0.1625
C5 C 0.3622(3) 0.6537(6) 0.1286(3)
C6 C 0.3361(3) 0.5179(7) 0.2442(3)
H3 H 0.3344 0.6122 0.2693
H4 H 0.3806 0.4797 0.2523
C7 C -0.0025(3) 0.8863(6) 0.0507(2)
C8 C 0.2188(3) 0.4617(6) 0.2704(3)
C9 C 0.1294(3) 0.5882(7) 0.3197(3)
H5 H 0.1134 0.6363 0.3586
C10 C -0.0431(3) 0.9977(6) -0.0602(3)
H6 H -0.0724 0.9968 -0.1012
C11 C 0.4235(3) 0.7005(7) 0.1577(3)
H7 H 0.4405 0.6649 0.2022
C12 C 0.4591(3) 0.7997(7) 0.1207(3)
H8 H 0.5001 0.8295 0.1414
C13 C 0.1764(3) 0.4424(7) 0.2093(3)
H9 H 0.1903 0.3895 0.1707
C14 C 0.3200(3) 0.5441(8) 0.1645(3)
H10 H 0.3224 0.4491 0.1402
H11 H 0.2748 0.5779 0.1571
C15 C 0.2888(3) 0.4078(7) 0.2754(3)
H12 H 0.2905 0.3137 0.2501
H13 H 0.3034 0.3897 0.3254
C16 C 0.1937(3) 0.5357(7) 0.3273(3)
H14 H 0.2197 0.5500 0.3700
C17 C 0.3406(3) 0.7138(8) 0.0624(3)
H15 H 0.2995 0.6874 0.0408
S1D S 0.11150(14) 1.2387(3) 0.02740(12)
O1D O 0.0026(2) 1.1803(4) -0.17129(19)
O2D O 0.0816(2) 1.3770(4) 0.0407(2)
O3D O -0.0049(2) 1.3653(4) -0.09448(19)
O4D O 0.1440(3) 1.2432(10) -0.0356(4)
O5D O 0.1551(3) 1.1848(7) 0.0780(5)
C2D C 0.0460(3) 1.1152(6) 0.0108(3)
C3D C 0.0003(3) 1.2300(6) -0.1088(3)
C7D C 0.0025(3) 1.1137(6) -0.0507(2)
C10D C 0.0431(3) 1.0023(6) 0.0602(3)
H6D H 0.0724 1.0032 0.1012
N1A N -0.0897(2) 0.5733(5) 0.2399(2)
N2A N -0.4379(2) 0.8555(5) 0.4435(2)
C1A C -0.3790(3) 0.8116(7) 0.4713(3)
H1A H -0.3632 0.8490 0.5158
C4A C -0.1141(3) 0.5007(6) 0.2949(3)
H2A H -0.0875 0.4897 0.3375
C5A C -0.3622(3) 0.6537(6) 0.3714(3)
C6A C -0.3361(3) 0.5179(7) 0.2558(3)
H3A H -0.3344 0.6122 0.2307
H4A H -0.3806 0.4797 0.2477
C8A C -0.2188(3) 0.4617(6) 0.2296(3)
C9A C -0.1294(3) 0.5882(7) 0.1803(3)
H5A H -0.1134 0.6363 0.1414
C11A C -0.4235(3) 0.7005(7) 0.3423(3)
H7A H -0.4405 0.6649 0.2978
C12A C -0.4591(3) 0.7997(7) 0.3793(3)
H8A H -0.5001 0.8295 0.3586
C13A C -0.1764(3) 0.4424(7) 0.2907(3)
H9A H -0.1903 0.3895 0.3293
C14A C -0.3200(3) 0.5441(8) 0.3355(3)
H10A H -0.3224 0.4491 0.3598
H11A H -0.2748 0.5779 0.3429
C15A C -0.2888(3) 0.4078(7) 0.2246(3)
H12A H -0.2905 0.3137 0.2499
H13A H -0.3034 0.3897 0.1746
C16A C -0.1937(3) 0.5357(7) 0.1727(3)
H14A H -0.2197 0.5500 0.1300
C17A C -0.3406(3) 0.7138(8) 0.4376(3)
H15A H -0.2995 0.6874 0.4592
Zn1D Zn 0.0000 1.32604(9) -0.2500
Zn2_2 Zn 0.0000 1.5000 0.0000
Zn2B Zn 0.5000 1.0000 0.0000
Zn2C Zn -0.5000 1.0000 0.5000
O1A O 0.0026(2) 0.8197(4) 0.32871(19)
O2D_2 O 0.0816(2) 0.3770(4) 0.0407(2)
O3D_2 O -0.0049(2) 0.3653(4) -0.09448(19)
N2B N -0.0621(2) 0.3555(5) 0.0565(2)
N2F N 0.0621(2) 0.6445(5) -0.0565(2)
O6 O 0.2378(4) 0.4514(9) 0.0099(5)
loop_
_geom_bond_atom_site_label_1
_geom_bond_atom_site_label_2
_geom_bond_site_symmetry_1
_geom_bond_site_symmetry_2
Zn1 O1 1_555 1_555
Zn2 O2 1_555 1_555
S1 O2 1_555 1_555
O1 C3 1_555 1_555
O3 Zn2 1_555 1_555
O4 S1 1_555 1_555
O5 S1 1_555 1_555
N1 Zn1 1_555 1_555
N2 C1 1_555 1_555
C1 H1 1_555 1_555
C2 S1 1_555 1_555
C3 O3 1_555 1_555
C4 N1 1_555 1_555
H2 C4 1_555 1_555
C5 C11 1_555 1_555
C6 H3 1_555 1_555
H4 C6 1_555 1_555
C7 C2 1_555 1_555
C8 C13 1_555 1_555
C9 N1 1_555 1_555
H5 C9 1_555 1_555
C10 C2 1_555 1_555
H6 C10 1_555 1_555
C11 H7 1_555 1_555
C12 N2 1_555 1_555
H8 C12 1_555 1_555
C13 C4 1_555 1_555
H9 C13 1_555 1_555
C14 C5 1_555 1_555
H10 C14 1_555 1_555
H11 C14 1_555 1_555
C15 C6 1_555 1_555
H12 C15 1_555 1_555
H13 C15 1_555 1_555
C16 C8 1_555 1_555
H14 C16 1_555 1_555
C17 C1 1_555 1_555
H15 C17 1_555 1_555
S1D O2D 1_555 1_555
O1D C3D 1_555 1_555
O2D Zn2_2 1_555 1_555
O3D C3D 1_555 1_555
O4D S1D 1_555 1_555
O5D S1D 1_555 1_555
C2D S1D 1_555 1_555
C3D C7D 1_555 1_555
C7D C10 1_555 1_555
C10D C7 1_555 1_555
H6D C10D 1_555 1_555
N1A Zn1 1_555 1_555
N2A C1A 1_555 1_555
C1A H1A 1_555 1_555
C4A N1A 1_555 1_555
H2A C4A 1_555 1_555
C5A C11A 1_555 1_555
C6A H3A 1_555 1_555
H4A C6A 1_555 1_555
C8A C13A 1_555 1_555
C9A N1A 1_555 1_555
H5A C9A 1_555 1_555
C11A H7A 1_555 1_555
C12A N2A 1_555 1_555
H8A C12A 1_555 1_555
C13A C4A 1_555 1_555
H9A C13A 1_555 1_555
C14A C5A 1_555 1_555
H10A C14A 1_555 1_555
H11A C14A 1_555 1_555
C15A C6A 1_555 1_555
H12A C15A 1_555 1_555
H13A C15A 1_555 1_555
C16A C8A 1_555 1_555
H14A C16A 1_555 1_555
C17A C1A 1_555 1_555
H15A C17A 1_555 1_555
Zn1D O1D 1_555 1_555
Zn2_2 O3D 1_555 1_555
Zn2B N2 1_555 1_555
Zn2C N2A 1_555 1_555
O1A Zn1 1_555 1_555
O2D_2 Zn2 1_555 1_555
O3D_2 Zn2 1_555 1_555
N2B Zn2 1_555 1_555
N2F Zn2 1_555 1_555
C3 C7 1_555 1_555
C5 C17 1_555 1_555
C6 C14 1_555 1_555
C8 C15 1_555 1_555
C9 C16 1_555 1_555
C11 C12 1_555 1_555
C2D C7D 1_555 1_555
C2D C10D 1_555 1_555
C5A C17A 1_555 1_555
C6A C14A 1_555 1_555
C8A C15A 1_555 1_555
C9A C16A 1_555 1_555
C11A C12A 1_555 1_555

#END
