
#######################################################################
#
#                 Cambridge Crystallographic Data Centre
#                                CCDC 
#
#######################################################################
#
# If this CIF has been generated from an entry in the Cambridge 
# Structural Database, then it will include bibliographic, chemical, 
# crystal, experimental, refinement or atomic coordinate data resulting 
# from the CCDC's data processing and validation procedures.
#
#######################################################################

data_VEZZOR
_symmetry_cell_setting           triclinic
_symmetry_space_group_name_H-M   'P -1'
_symmetry_Int_Tables_number      2
_space_group_name_Hall           '-P 1'
loop_
_symmetry_equiv_pos_site_id
_symmetry_equiv_pos_as_xyz
1 x,y,z
2 -x,-y,-z
_cell_length_a                   9.364(2)
_cell_length_b                   10.719(3)
_cell_length_c                   11.179(3)
_cell_angle_alpha                76.506(5)
_cell_angle_beta                 85.625(5)
_cell_angle_gamma                69.340(5)
_cell_volume                     1020.9
loop_
_atom_site_label
_atom_site_type_symbol
_atom_site_fract_x
_atom_site_fract_y
_atom_site_fract_z
Cu1 Cu 0.41368(6) 0.27607(5) 0.76535(5)
Cu2 Cu 0.10558(6) 0.49418(6) 0.59015(5)
Cu3 Cu 0.20994(6) 0.18139(5) 0.69162(5)
I1 I 0.50552(3) 0.04667(3) 0.70647(3)
I2 I 0.12050(3) 0.36705(3) 0.83514(2)
I3 I 0.15874(3) 0.31531(3) 0.45281(2)
S1 S 0.20884(12) 0.95459(10) 0.55366(9)
N1 N 0.5474(4) 0.2985(4) 0.8932(3)
N2 N 0.5112(4) 0.5162(4) 0.6617(3)
N3 N 0.4107(4) 0.4581(4) 0.6482(3)
N4 N 0.2889(4) 0.5567(4) 0.5913(3)
N5 N 0.0760(4) 1.0607(4) 0.7378(3)
C1 C 0.5389(5) 0.2413(4) 1.0129(4)
H1 H 0.4799 0.1833 1.0353
C2 C 0.6123(5) 0.2631(4) 1.1050(4)
H2 H 0.6073 0.2176 1.1882
C3 C 0.6929(5) 0.3518(4) 1.0741(4)
H3 H 0.7399 0.3720 1.1360
C4 C 0.7038(5) 0.4106(4) 0.9512(4)
H4 H 0.7596 0.4711 0.9272
C5 C 0.6322(4) 0.3802(4) 0.8638(4)
C6 C 0.6544(4) 0.4314(4) 0.7279(4)
H5 H 0.7229 0.4854 0.7183
H6 H 0.7052 0.3520 0.6902
C7 C 0.4584(5) 0.6506(4) 0.6133(4)
H7 H 0.5086 0.7143 0.6106
C8 C 0.3153(4) 0.6767(4) 0.5681(4)
C9 C 0.2065(5) 0.8083(4) 0.4997(4)
H8 H 0.1020 0.8044 0.5083
H9 H 0.2325 0.8204 0.4112
C10 C 0.0898(4) 0.9564(4) 0.6833(4)
C11 C 0.0129(5) 0.8647(4) 0.7259(4)
H10 H 0.0284 0.7898 0.6888
C12 C -0.0871(5) 0.8852(5) 0.8240(4)
H11 H -0.1408 0.8241 0.8549
C13 C -0.1076(5) 0.9952(5) 0.8761(4)
H12 H -0.1784 1.0131 0.9408
C14 C -0.0227(5) 1.0783(5) 0.8317(4)
H13 H -0.0346 1.1520 0.8696
Cu2A Cu -0.10558(6) 0.50582(6) 0.40985(5)
Cu3_2 Cu 0.20994(6) 1.18139(5) 0.69162(5)
I3A I -0.15874(3) 0.68469(3) 0.54719(2)
N5_2 N 0.0760(4) 0.0607(4) 0.7378(3)
loop_
_geom_bond_atom_site_label_1
_geom_bond_atom_site_label_2
_geom_bond_site_symmetry_1
_geom_bond_site_symmetry_2
Cu1 Cu3 1_555 1_555
Cu2 I2 1_555 1_555
Cu3 I1 1_555 1_555
I1 Cu1 1_555 1_555
I2 Cu1 1_555 1_555
I3 Cu2 1_555 1_555
S1 C9 1_555 1_555
N1 Cu1 1_555 1_555
N2 N3 1_555 1_555
N3 Cu1 1_555 1_555
N4 Cu2 1_555 1_555
N5 C10 1_555 1_555
C1 N1 1_555 1_555
H1 C1 1_555 1_555
C2 C1 1_555 1_555
H2 C2 1_555 1_555
C3 C2 1_555 1_555
H3 C3 1_555 1_555
C4 C3 1_555 1_555
H4 C4 1_555 1_555
C5 N1 1_555 1_555
C6 N2 1_555 1_555
H5 C6 1_555 1_555
H6 C6 1_555 1_555
C7 N2 1_555 1_555
H7 C7 1_555 1_555
C8 N4 1_555 1_555
C9 C8 1_555 1_555
H8 C9 1_555 1_555
H9 C9 1_555 1_555
C10 S1 1_555 1_555
C11 C10 1_555 1_555
H10 C11 1_555 1_555
C12 C11 1_555 1_555
H11 C12 1_555 1_555
C13 C12 1_555 1_555
H12 C13 1_555 1_555
C14 N5 1_555 1_555
H13 C14 1_555 1_555
Cu2A Cu2 1_555 1_555
Cu3_2 N5 1_555 1_555
I3A Cu2 1_555 1_555
N5_2 Cu3 1_555 1_555
Cu3 I2 1_555 1_555
Cu3 I3 1_555 1_555
I3 Cu2A 1_555 1_555
N3 N4 1_555 1_555
C4 C5 1_555 1_555
C5 C6 1_555 1_555
C7 C8 1_555 1_555
C13 C14 1_555 1_555
Cu2A I3A 1_555 1_555

#END
