
#######################################################################
#
#                 Cambridge Crystallographic Data Centre
#                                CCDC 
#
#######################################################################
#
# If this CIF has been generated from an entry in the Cambridge 
# Structural Database, then it will include bibliographic, chemical, 
# crystal, experimental, refinement or atomic coordinate data resulting 
# from the CCDC's data processing and validation procedures.
#
#######################################################################

data_VIBTUX
_symmetry_cell_setting           orthorhombic
_symmetry_space_group_name_H-M   'P b c a'
_symmetry_Int_Tables_number      61
_space_group_name_Hall           '-P 2ac 2ab'
loop_
_symmetry_equiv_pos_site_id
_symmetry_equiv_pos_as_xyz
1 x,y,z
2 1/2-x,-y,1/2+z
3 -x,1/2+y,1/2-z
4 1/2+x,1/2-y,-z
5 -x,-y,-z
6 1/2+x,y,1/2-z
7 x,1/2-y,1/2+z
8 1/2-x,1/2+y,z
_cell_length_a                   21.156(4)
_cell_length_b                   9.7332(19)
_cell_length_c                   23.917(5)
_cell_angle_alpha                90
_cell_angle_beta                 90
_cell_angle_gamma                90
_cell_volume                     4924.88
loop_
_atom_site_label
_atom_site_type_symbol
_atom_site_fract_x
_atom_site_fract_y
_atom_site_fract_z
Pb1 Pb 0.039119(6) 0.433372(14) 0.061916(6)
O1 O -0.06018(13) 0.5736(3) 0.08455(14)
O2 O -0.27954(12) 0.3504(3) 0.01864(11)
O3 O -0.18226(12) 0.3106(3) 0.42476(11)
O4 O -0.40129(11) 0.5401(3) 0.36322(11)
O5 O -0.16837(12) 0.8690(2) 0.23140(10)
O6 O -0.28620(13) 0.8708(2) 0.22845(11)
S1 S -0.22746(4) 0.79665(8) 0.22909(3)
N1 N -0.11450(14) 0.4260(3) 0.02976(13)
N2 N -0.17312(14) 0.3723(3) 0.01559(13)
H1 H -0.1729 0.3108 -0.0102
N3 N -0.28781(14) 0.3367(3) 0.42940(12)
H2 H -0.2888 0.2745 0.4549
N4 N -0.34533(14) 0.3913(3) 0.41336(13)
N5 N 0.05155(14) 0.1694(3) 0.05407(12)
N6 N -0.00619(15) 0.2983(3) 0.14154(12)
C1 C -0.28524(17) 0.5401(4) 0.10882(15)
H3 H -0.3233 0.5024 0.0969
C2 C -0.28423(17) 0.6324(4) 0.15237(15)
H4 H -0.3216 0.6584 0.1699
C3 C -0.22665(17) 0.6866(3) 0.16996(13)
C4 C -0.17061(16) 0.6519(3) 0.14454(14)
H5 H -0.1327 0.6897 0.1569
C5 C -0.17120(16) 0.5583(3) 0.09946(14)
C6 C -0.22872(16) 0.5031(3) 0.08256(13)
C7 C -0.11290(17) 0.5183(4) 0.07047(15)
C8 C -0.22993(17) 0.4033(4) 0.03657(15)
C9 C -0.28669(16) 0.6404(3) 0.30820(14)
H6 H -0.3240 0.6803 0.2957
C10 C -0.22920(16) 0.6797(3) 0.28601(13)
C11 C -0.17224(17) 0.6241(4) 0.30469(15)
H7 H -0.1341 0.6544 0.2899
C12 C -0.17316(17) 0.5247(4) 0.34499(15)
H8 H -0.1355 0.4860 0.3574
C13 C -0.23091(16) 0.4807(3) 0.36763(13)
C14 C -0.28775(16) 0.5385(3) 0.35029(14)
C15 C -0.23087(17) 0.3700(4) 0.40962(14)
C16 C -0.34638(17) 0.4897(4) 0.37562(14)
C17 C 0.08090(19) 0.1082(5) 0.01219(17)
H9 H 0.1005 0.1624 -0.0147
C18 C 0.0837(2) -0.0339(5) 0.00656(19)
H10 H 0.1052 -0.0730 -0.0234
C19 C 0.0548(2) -0.1152(5) 0.0451(2)
H11 H 0.0555 -0.2103 0.0411
C20 C 0.02372(18) -0.0542(4) 0.09105(18)
C21 C -0.0063(2) -0.1315(5) 0.1336(2)
H12 H -0.0073 -0.2268 0.1313
C22 C -0.0335(2) -0.0677(5) 0.1775(2)
H13 H -0.0525 -0.1203 0.2053
C23 C -0.03380(18) 0.0789(4) 0.18240(18)
C24 C -0.0611(2) 0.1474(5) 0.22772(18)
H14 H -0.0786 0.0979 0.2572
C25 C -0.0620(2) 0.2874(5) 0.22846(17)
H15 H -0.0810 0.3344 0.2578
C26 C -0.0338(2) 0.3592(5) 0.18440(17)
H16 H -0.0346 0.4547 0.1853
C27 C 0.02357(16) 0.0913(4) 0.09389(16)
C28 C -0.00580(17) 0.1586(4) 0.14002(15)
Pb1E Pb -0.460881(6) 0.433372(14) 0.438084(6)
O4E O 0.09871(11) 0.5401(3) 0.13678(11)
N4E N 0.15467(14) 0.3913(3) 0.08664(13)
loop_
_geom_bond_atom_site_label_1
_geom_bond_atom_site_label_2
_geom_bond_site_symmetry_1
_geom_bond_site_symmetry_2
Pb1 O1 1_555 1_555
O1 C7 1_555 1_555
O2 C8 1_555 1_555
O3 C15 1_555 1_555
O4 C16 1_555 1_555
O5 S1 1_555 1_555
O6 S1 1_555 1_555
S1 C3 1_555 1_555
N1 N2 1_555 1_555
N2 H1 1_555 1_555
N3 H2 1_555 1_555
N4 N3 1_555 1_555
N5 Pb1 1_555 1_555
N6 Pb1 1_555 1_555
C1 H3 1_555 1_555
C2 C1 1_555 1_555
H4 C2 1_555 1_555
C3 C2 1_555 1_555
C4 C3 1_555 1_555
H5 C4 1_555 1_555
C5 C4 1_555 1_555
C6 C1 1_555 1_555
C7 N1 1_555 1_555
C8 N2 1_555 1_555
C9 H6 1_555 1_555
C10 S1 1_555 1_555
C11 C10 1_555 1_555
H7 C11 1_555 1_555
C12 C11 1_555 1_555
H8 C12 1_555 1_555
C13 C12 1_555 1_555
C14 C9 1_555 1_555
C15 N3 1_555 1_555
C16 N4 1_555 1_555
C17 N5 1_555 1_555
H9 C17 1_555 1_555
C18 C17 1_555 1_555
H10 C18 1_555 1_555
C19 C18 1_555 1_555
H11 C19 1_555 1_555
C20 C19 1_555 1_555
C21 C20 1_555 1_555
H12 C21 1_555 1_555
C22 C21 1_555 1_555
H13 C22 1_555 1_555
C23 C22 1_555 1_555
C24 C23 1_555 1_555
H14 C24 1_555 1_555
C25 C24 1_555 1_555
H15 C25 1_555 1_555
C26 N6 1_555 1_555
H16 C26 1_555 1_555
C27 N5 1_555 1_555
C28 N6 1_555 1_555
Pb1E O4 1_555 1_555
O4E Pb1 1_555 1_555
N4E Pb1 1_555 1_555
N4 Pb1E 1_555 1_555
C5 C6 1_555 1_555
C5 C7 1_555 1_555
C6 C8 1_555 1_555
C9 C10 1_555 1_555
C13 C14 1_555 1_555
C13 C15 1_555 1_555
C14 C16 1_555 1_555
C20 C27 1_555 1_555
C23 C28 1_555 1_555
C25 C26 1_555 1_555
C27 C28 1_555 1_555

#END
