
#######################################################################
#
#                 Cambridge Crystallographic Data Centre
#                                CCDC 
#
#######################################################################
#
# If this CIF has been generated from an entry in the Cambridge 
# Structural Database, then it will include bibliographic, chemical, 
# crystal, experimental, refinement or atomic coordinate data resulting 
# from the CCDC's data processing and validation procedures.
#
#######################################################################

data_VIBZAJ
_symmetry_cell_setting           monoclinic
_symmetry_space_group_name_H-M   'C 2/c'
_symmetry_Int_Tables_number      15
_space_group_name_Hall           '-C 2yn'
loop_
_symmetry_equiv_pos_site_id
_symmetry_equiv_pos_as_xyz
1 x,y,z
2 -x,y,1/2-z
3 1/2+x,1/2+y,z
4 1/2-x,1/2+y,1/2-z
5 -x,-y,-z
6 x,-y,1/2+z
7 1/2-x,1/2-y,-z
8 1/2+x,1/2-y,1/2+z
_cell_length_a                   13.777(4)
_cell_length_b                   12.017(3)
_cell_length_c                   18.451(5)
_cell_angle_alpha                90
_cell_angle_beta                 101.020(4)
_cell_angle_gamma                90
_cell_volume                     2998.39
loop_
_atom_site_label
_atom_site_type_symbol
_atom_site_fract_x
_atom_site_fract_y
_atom_site_fract_z
Cd1 Cd 1.0000 0.465606(13) 0.7500
Cd2 Cd 0.7500 0.2500 1.0000
O1 O 0.99575(9) 0.61489(10) 0.83006(7)
O2 O 0.87274(10) -0.09711(10) 0.70678(7)
N1 N 0.92446(10) 0.40149(11) 0.83907(8)
O3 O 0.85420(10) 0.08536(10) 0.63289(7)
C1 C 0.88151(12) 0.30920(13) 0.86053(9)
C2 C 0.86698(12) 0.09788(14) 0.70756(9)
O4 O 0.94532(9) 0.66859(10) 0.93172(7)
H1 H 0.9197 0.6404 0.9639
N2 N 0.84354(10) 0.32626(12) 0.92220(8)
C3 C 0.91280(12) 0.48197(14) 0.88899(9)
C4 C 0.88061(12) 0.20114(14) 0.82238(9)
C5 C 0.86328(12) 0.43562(14) 0.94039(9)
C6 C 0.95375(12) 0.59458(14) 0.88255(9)
C7 C 0.89216(12) 0.10270(14) 0.86194(10)
H2 H 0.9005 0.1042 0.9131
C8 C 0.89138(12) 0.00084(14) 0.82505(10)
H3 H 0.9001 -0.0651 0.8519
C9 C 0.87754(12) -0.00234(14) 0.74813(10)
C10 C 0.86939(12) 0.19892(14) 0.74461(9)
H4 H 0.8636 0.2652 0.7181
O5 O 0.89715(10) 0.16665(11) 1.06173(8)
C11 C 0.84780(14) 0.18546(15) 0.59005(10)
H5 H 0.7920 0.2284 0.5980
H6 H 0.8399 0.1669 0.5386
H7 H 0.9072 0.2281 0.6048
C12 C 0.87079(14) -0.20040(15) 0.74556(11)
H8 H 0.9312 -0.2088 0.7809
H9 H 0.8640 -0.2609 0.7110
H10 H 0.8159 -0.2005 0.7707
O6 O 0.85872(9) 0.58641(11) 1.02243(7)
O7 O 0.83472(10) 0.46801(12) 0.68404(8)
C13 C 0.83580(12) 0.48471(15) 1.00658(10)
O8 O 0.79345(9) 0.42560(11) 1.04725(7)
H11 H 0.942(2) 0.223(3) 1.0692(18)
H12 H 0.825(3) 0.483(3) 0.651(2)
H13 H 0.897(2) 0.129(3) 1.0959(18)
H14 H 0.7889(19) 0.488(2) 0.7059(13)
O1A O 1.00425(9) 0.61489(10) 0.66994(7)
O2A O 1.12726(10) -0.09711(10) 0.79322(7)
N1A N 1.07554(10) 0.40149(11) 0.66093(8)
O3A O 1.14580(10) 0.08536(10) 0.86711(7)
C1A C 1.11849(12) 0.30920(13) 0.63947(9)
C2A C 1.13302(12) 0.09788(14) 0.79244(9)
O4A O 1.05468(9) 0.66859(10) 0.56828(7)
H1A H 1.0803 0.6404 0.5361
N2A N 1.15646(10) 0.32626(12) 0.57780(8)
C3A C 1.08720(12) 0.48197(14) 0.61101(9)
C4A C 1.11939(12) 0.20114(14) 0.67762(9)
C5A C 1.13672(12) 0.43562(14) 0.55961(9)
C6A C 1.04625(12) 0.59458(14) 0.61745(9)
C7A C 1.10784(12) 0.10270(14) 0.63806(10)
H2A H 1.0995 0.1042 0.5869
C8A C 1.10862(12) 0.00084(14) 0.67495(10)
H3A H 1.0999 -0.0651 0.6481
C9A C 1.12246(12) -0.00234(14) 0.75187(10)
C10A C 1.13061(12) 0.19892(14) 0.75539(9)
H4A H 1.1364 0.2652 0.7819
C11A C 1.15220(14) 0.18546(15) 0.90995(10)
H5A H 1.2080 0.2284 0.9020
H6A H 1.1601 0.1669 0.9614
H7A H 1.0928 0.2281 0.8952
C12A C 1.12921(14) -0.20040(15) 0.75444(11)
H8A H 1.0688 -0.2088 0.7191
H9A H 1.1360 -0.2609 0.7890
H10A H 1.1841 -0.2005 0.7293
O6A O 1.14128(9) 0.58641(11) 0.47757(7)
O7A O 1.16528(10) 0.46801(12) 0.81596(8)
C13A C 1.16420(12) 0.48471(15) 0.49342(10)
O8A O 1.20655(9) 0.42560(11) 0.45275(7)
H12A H 1.175(3) 0.483(3) 0.849(2)
H14A H 1.2111(19) 0.488(2) 0.7941(13)
O5F O 0.60285(10) 0.33335(11) 0.93827(8)
H11F H 0.558(2) 0.277(3) 0.9308(18)
H13F H 0.603(2) 0.371(3) 0.9041(18)
Cd2A Cd 1.2500 0.2500 0.5000
N2F N 0.65646(10) 0.17374(12) 1.07780(8)
O8F O 0.70655(9) 0.07440(11) 0.95275(7)
loop_
_geom_bond_atom_site_label_1
_geom_bond_atom_site_label_2
_geom_bond_site_symmetry_1
_geom_bond_site_symmetry_2
Cd1 O1 1_555 1_555
Cd2 N2 1_555 1_555
O1 C6 1_555 1_555
O2 C9 1_555 1_555
N1 Cd1 1_555 1_555
O3 C2 1_555 1_555
C1 N1 1_555 1_555
C2 C9 1_555 1_555
O4 H1 1_555 1_555
N2 C1 1_555 1_555
C3 N1 1_555 1_555
C4 C1 1_555 1_555
C5 N2 1_555 1_555
C6 O4 1_555 1_555
C7 C4 1_555 1_555
H2 C7 1_555 1_555
C8 C7 1_555 1_555
H3 C8 1_555 1_555
C9 C8 1_555 1_555
C10 C2 1_555 1_555
H4 C10 1_555 1_555
O5 Cd2 1_555 1_555
C11 O3 1_555 1_555
H5 C11 1_555 1_555
H6 C11 1_555 1_555
H7 C11 1_555 1_555
C12 O2 1_555 1_555
H8 C12 1_555 1_555
H9 C12 1_555 1_555
H10 C12 1_555 1_555
O6 C13 1_555 1_555
O7 Cd1 1_555 1_555
C13 C5 1_555 1_555
O8 Cd2 1_555 1_555
H11 O5 1_555 1_555
H12 O7 1_555 1_555
H13 O5 1_555 1_555
H14 O7 1_555 1_555
O1A Cd1 1_555 1_555
O2A C9A 1_555 1_555
N1A Cd1 1_555 1_555
O3A C2A 1_555 1_555
C1A N1A 1_555 1_555
C2A C9A 1_555 1_555
O4A H1A 1_555 1_555
N2A C1A 1_555 1_555
C3A N1A 1_555 1_555
C4A C1A 1_555 1_555
C5A N2A 1_555 1_555
C6A O1A 1_555 1_555
C7A C4A 1_555 1_555
H2A C7A 1_555 1_555
C8A C7A 1_555 1_555
H3A C8A 1_555 1_555
C9A C8A 1_555 1_555
C10A C2A 1_555 1_555
H4A C10A 1_555 1_555
C11A O3A 1_555 1_555
H5A C11A 1_555 1_555
H6A C11A 1_555 1_555
H7A C11A 1_555 1_555
C12A O2A 1_555 1_555
H8A C12A 1_555 1_555
H9A C12A 1_555 1_555
H10A C12A 1_555 1_555
O6A C13A 1_555 1_555
O7A Cd1 1_555 1_555
C13A C5A 1_555 1_555
O8A C13A 1_555 1_555
H12A O7A 1_555 1_555
H14A O7A 1_555 1_555
O5F Cd2 1_555 1_555
H11F O5F 1_555 1_555
H13F O5F 1_555 1_555
Cd2A N2A 1_555 1_555
N2F Cd2 1_555 1_555
O8F Cd2 1_555 1_555
C3 C5 1_555 1_555
C3 C6 1_555 1_555
C4 C10 1_555 1_555
C13 O8 1_555 1_555
O4A C6A 1_555 1_555
C3A C5A 1_555 1_555
C3A C6A 1_555 1_555
C4A C10A 1_555 1_555
O8A Cd2A 1_555 1_555

#END
