
#######################################################################
#
#                 Cambridge Crystallographic Data Centre
#                                CCDC 
#
#######################################################################
#
# If this CIF has been generated from an entry in the Cambridge 
# Structural Database, then it will include bibliographic, chemical, 
# crystal, experimental, refinement or atomic coordinate data resulting 
# from the CCDC's data processing and validation procedures.
#
#######################################################################

data_VICGUL
_symmetry_cell_setting           triclinic
_symmetry_space_group_name_H-M   'P -1'
_symmetry_Int_Tables_number      2
_space_group_name_Hall           '-P 1'
loop_
_symmetry_equiv_pos_site_id
_symmetry_equiv_pos_as_xyz
1 x,y,z
2 -x,-y,-z
_cell_length_a                   8.4728(5)
_cell_length_b                   10.4366(5)
_cell_length_c                   12.1520(8)
_cell_angle_alpha                112.738(5)
_cell_angle_beta                 96.828(5)
_cell_angle_gamma                103.269(5)
_cell_volume                     938.445
loop_
_atom_site_label
_atom_site_type_symbol
_atom_site_fract_x
_atom_site_fract_y
_atom_site_fract_z
Yb1 Yb -0.25332(2) 0.07425(2) 0.546522(18)
C1 C -0.1738(6) -0.1098(5) 0.7088(5)
C2 C -0.2012(6) -0.2679(5) 0.6286(4)
C3 C -0.1146(6) -0.3483(5) 0.6643(5)
H1 H -0.0365 -0.3040 0.7388
C4 C -0.1444(6) -0.4945(5) 0.5891(5)
H2 H -0.0872 -0.5485 0.6139
C5 C -0.2588(6) -0.5611(5) 0.4769(4)
C6 C -0.2958(6) -0.7194(5) 0.3935(5)
C7 C -0.3428(6) -0.4802(5) 0.4403(5)
H3 H -0.4176 -0.5233 0.3644
C8 C -0.3155(6) -0.3344(5) 0.5172(4)
H4 H -0.3748 -0.2810 0.4933
C9 C 0.1397(6) 0.1883(5) 0.6561(4)
C10 C 0.2937(5) 0.3092(5) 0.7379(4)
C11 C 0.4386(5) 0.5298(5) 0.8720(4)
C12 C 0.4792(6) 0.6826(5) 0.9624(4)
C13 C 0.3625(7) 0.7460(5) 1.0073(5)
H5 H 0.2501 0.6930 0.9797
C14 C 0.4116(8) 0.8887(6) 1.0937(6)
H6 H 0.3311 0.9308 1.1239
C15 C 0.6848(8) 0.9093(6) 1.0919(6)
H7 H 0.7959 0.9660 1.1204
C16 C 0.6454(6) 0.7661(5) 1.0053(6)
H8 H 0.7285 0.7269 0.9767
C17 C 0.4643(5) 0.3278(5) 0.7499(4)
C18 C 0.5574(5) 0.2327(5) 0.6843(4)
N1 N 0.2812(4) 0.4385(4) 0.8163(3)
H9 H 0.1881 0.4594 0.8286
N2 N 0.5516(4) 0.4669(4) 0.8347(4)
N3 N 0.5705(6) 0.9672(5) 1.1348(4)
O1 O -0.0961(5) -0.0560(4) 0.8170(4)
O2 O -0.2379(4) -0.0387(3) 0.6604(3)
O3 O -0.2648(4) -0.8018(3) 0.4421(3)
O4 O -0.3567(5) -0.7623(4) 0.2827(4)
O5 O 0.0075(4) 0.2206(3) 0.6522(3)
O6 O 0.1538(4) 0.0643(3) 0.5992(3)
O7 O 0.4853(4) 0.1115(3) 0.5899(3)
O8 O 0.7123(4) 0.2710(3) 0.7179(3)
Yb1_2 Yb -0.25332(2) -0.92575(2) 0.546522(18)
Yb1_3 Yb 0.74668(2) 0.07425(2) 0.546522(18)
Yb1A Yb 0.25332(2) -0.07425(2) 0.453478(18)
O3_2 O -0.2648(4) 0.1982(3) 0.4421(3)
O6A O -0.1538(4) -0.0643(3) 0.4008(3)
O7_2 O -0.5147(4) 0.1115(3) 0.5899(3)
O7A O -0.4853(4) -0.1115(3) 0.4101(3)
O8_2 O -0.2877(4) 0.2710(3) 0.7179(3)
O9 O 0.0114(4) 0.4898(4) 0.1251(4)
O10 O 1.0129(9) 0.8164(8) 0.9656(8)
O11 O 1.0107(15) 0.7510(14) 1.0839(14)
loop_
_geom_bond_atom_site_label_1
_geom_bond_atom_site_label_2
_geom_bond_site_symmetry_1
_geom_bond_site_symmetry_2
Yb1 O2 1_555 1_555
C1 C2 1_555 1_555
C2 C3 1_555 1_555
C3 H1 1_555 1_555
C4 C3 1_555 1_555
H2 C4 1_555 1_555
C5 C4 1_555 1_555
C6 C5 1_555 1_555
C7 C5 1_555 1_555
H3 C7 1_555 1_555
C8 C2 1_555 1_555
H4 C8 1_555 1_555
C9 C10 1_555 1_555
C10 C17 1_555 1_555
C11 C12 1_555 1_555
C12 C13 1_555 1_555
C13 H5 1_555 1_555
C14 C13 1_555 1_555
H6 C14 1_555 1_555
C15 H7 1_555 1_555
C16 C12 1_555 1_555
H8 C16 1_555 1_555
C17 C18 1_555 1_555
C18 O7 1_555 1_555
N1 C10 1_555 1_555
H9 N1 1_555 1_555
N2 C11 1_555 1_555
N3 C14 1_555 1_555
O1 C1 1_555 1_555
O2 C1 1_555 1_555
O3 C6 1_555 1_555
O4 C6 1_555 1_555
O5 Yb1 1_555 1_555
O6 C9 1_555 1_555
O7 Yb1_3 1_555 1_555
O8 C18 1_555 1_555
Yb1_2 O3 1_555 1_555
Yb1_3 O8 1_555 1_555
Yb1A O6 1_555 1_555
O3_2 Yb1 1_555 1_555
O6A Yb1 1_555 1_555
O7_2 Yb1 1_555 1_555
O7A Yb1 1_555 1_555
O8_2 Yb1 1_555 1_555
C7 C8 1_555 1_555
C9 O5 1_555 1_555
C11 N1 1_555 1_555
C15 C16 1_555 1_555
C15 N3 1_555 1_555
C17 N2 1_555 1_555
O7 Yb1A 1_555 1_555

#END
