
#######################################################################
#
#                 Cambridge Crystallographic Data Centre
#                                CCDC 
#
#######################################################################
#
# If this CIF has been generated from an entry in the Cambridge 
# Structural Database, then it will include bibliographic, chemical, 
# crystal, experimental, refinement or atomic coordinate data resulting 
# from the CCDC's data processing and validation procedures.
#
#######################################################################

data_VICHIA
_symmetry_cell_setting           triclinic
_symmetry_space_group_name_H-M   'P -1'
_symmetry_Int_Tables_number      2
_space_group_name_Hall           '-P 1'
loop_
_symmetry_equiv_pos_site_id
_symmetry_equiv_pos_as_xyz
1 x,y,z
2 -x,-y,-z
_cell_length_a                   8.3855(2)
_cell_length_b                   9.4526(3)
_cell_length_c                   13.2169(3)
_cell_angle_alpha                88.674(2)
_cell_angle_beta                 79.772(2)
_cell_angle_gamma                66.784(3)
_cell_volume                     946.23
loop_
_atom_site_label
_atom_site_type_symbol
_atom_site_fract_x
_atom_site_fract_y
_atom_site_fract_z
Dy1 Dy 0.024679(19) 0.254398(16) 0.380613(10)
O1 O 0.0459(3) 0.4873(3) 0.33251(18)
O2 O -0.0429(3) 0.6649(3) 0.46160(17)
O3 O 0.1800(4) 0.8063(3) 0.50628(18)
O4 O 0.2002(3) 1.0045(3) 0.4210(2)
O5 O 0.0726(4) 0.2307(3) 0.19439(18)
O6 O -0.0771(3) 0.1046(3) 0.27656(17)
O7 O -0.2582(4) 0.4374(3) 0.3594(3)
H1 H -0.279(6) 0.527(2) 0.346(4)
H2 H -0.343(4) 0.414(5) 0.374(4)
O8 O 0.3323(3) 0.2119(3) 0.3388(2)
H3 H 0.364(5) 0.241(5) 0.2825(19)
H4 H 0.410(4) 0.140(4) 0.360(3)
N1 N 0.3028(4) 0.8178(3) 0.2363(2)
N2 N 0.1894(4) 0.6519(3) 0.2041(2)
H5 H 0.146(5) 0.609(5) 0.173(3)
N3 N 0.5156(4) 0.7223(4) -0.1526(3)
C1 C 0.0392(4) 0.6087(4) 0.3729(2)
C2 C 0.1387(4) 0.6882(3) 0.3073(2)
C3 C 0.2096(4) 0.7926(3) 0.3260(2)
C4 C 0.2871(4) 0.7314(4) 0.1642(3)
C5 C 0.3657(4) 0.7253(4) 0.0545(3)
C6 C 0.4771(5) 0.8001(5) 0.0251(3)
H6 H 0.5040 0.8525 0.0738
C7 C 0.5483(6) 0.7955(6) -0.0786(3)
H7 H 0.6231 0.8463 -0.0977
C8 C 0.4092(5) 0.6505(4) -0.1231(3)
H8 H 0.3853 0.5984 -0.1734
C9 C 0.3313(5) 0.6483(4) -0.0216(3)
H9 H 0.2573 0.5961 -0.0048
C10 C 0.1934(4) 0.8739(4) 0.4246(2)
C11 C -0.0031(4) 0.1372(4) 0.1938(2)
C12 C -0.0027(4) 0.0663(4) 0.0923(2)
C13 C -0.0860(4) -0.0339(4) 0.0912(3)
H10 H -0.1433 -0.0564 0.1523
C14 C 0.0836(5) 0.1006(4) 0.0019(3)
H11 H 0.1395 0.1679 0.0035
O5A O -0.0726(4) -0.2307(3) -0.19439(18)
O6A O 0.0771(3) -0.1046(3) -0.27656(17)
C11A C 0.0031(4) -0.1372(4) -0.1938(2)
C12A C 0.0027(4) -0.0663(4) -0.0923(2)
C13A C 0.0860(4) 0.0339(4) -0.0912(3)
H10A H 0.1433 0.0564 -0.1523
C14A C -0.0836(5) -0.1006(4) -0.0019(3)
H11A H -0.1395 -0.1679 -0.0035
Dy1A Dy -0.024679(19) -0.254398(16) -0.380613(10)
O1A O -0.0459(3) -0.4873(3) -0.33251(18)
O2A O 0.0429(3) -0.6649(3) -0.46160(17)
O3A O -0.1800(4) -0.8063(3) -0.50628(18)
O4A O -0.2002(3) -1.0045(3) -0.4210(2)
O7A O 0.2582(4) -0.4374(3) -0.3594(3)
H1A H 0.279(6) -0.527(2) -0.346(4)
H2A H 0.343(4) -0.414(5) -0.374(4)
O8A O -0.3323(3) -0.2119(3) -0.3388(2)
H3A H -0.364(5) -0.241(5) -0.2825(19)
H4A H -0.410(4) -0.140(4) -0.360(3)
N1A N -0.3028(4) -0.8178(3) -0.2363(2)
N2A N -0.1894(4) -0.6519(3) -0.2041(2)
H5A H -0.146(5) -0.609(5) -0.173(3)
N3A N -0.5156(4) -0.7223(4) 0.1526(3)
C1A C -0.0392(4) -0.6087(4) -0.3729(2)
C2A C -0.1387(4) -0.6882(3) -0.3073(2)
C3A C -0.2096(4) -0.7926(3) -0.3260(2)
C4A C -0.2871(4) -0.7314(4) -0.1642(3)
C5A C -0.3657(4) -0.7253(4) -0.0545(3)
C6A C -0.4771(5) -0.8001(5) -0.0251(3)
H6A H -0.5040 -0.8525 -0.0738
C7A C -0.5483(6) -0.7955(6) 0.0786(3)
H7A H -0.6231 -0.8463 0.0977
C8A C -0.4092(5) -0.6505(4) 0.1231(3)
H8A H -0.3853 -0.5984 0.1734
C9A C -0.3313(5) -0.6483(4) 0.0216(3)
H9A H -0.2573 -0.5961 0.0048
C10A C -0.1934(4) -0.8739(4) -0.4246(2)
Dy1_2 Dy 0.024679(19) -0.745602(16) -0.619387(10)
Dy1_3 Dy 0.024679(19) 1.254398(16) 0.380613(10)
Dy1A_2 Dy -0.024679(19) -1.254398(16) -0.380613(10)
Dy1A_3 Dy -0.024679(19) 0.745602(16) 0.619387(10)
O2_2 O -0.0429(3) -0.3351(3) -0.53840(17)
O2A_2 O 0.0429(3) 0.3351(3) 0.53840(17)
O3_2 O 0.1800(4) -0.1937(3) -0.49372(18)
O3A_2 O -0.1800(4) 0.1937(3) 0.49372(18)
O4_2 O 0.2002(3) 0.0045(3) 0.4210(2)
O4A_2 O -0.2002(3) -0.0045(3) -0.4210(2)
O9 O 0.3296(5) 0.0103(4) 0.6235(3)
H12 H 0.316(7) 0.023(7) 0.5637(15)
H13 H 0.268(6) -0.027(6) 0.660(3)
O10 O -0.0025(7) 0.5186(5) 0.1057(3)
H14 H -0.0198 0.4499 0.1383
H15 H 0.0637 0.4917 0.0498
O11 O 0.3321(5) 0.2694(4) 0.7272(4)
H17 H 0.4303 0.2376 0.7440
H18 H 0.3266 0.2171 0.6798
O12 O 0.5632(7) 0.5820(7) 0.5687(5)
H19 H 0.6000 0.6425 0.5892
H20 H 0.6369 0.5110 0.5298
H16? H 0.0001 0.5069 0.0418
loop_
_geom_bond_atom_site_label_1
_geom_bond_atom_site_label_2
_geom_bond_site_symmetry_1
_geom_bond_site_symmetry_2
Dy1 O1 1_555 1_555
O1 C1 1_555 1_555
O2 C1 1_555 1_555
O3 C10 1_555 1_555
O4 C10 1_555 1_555
O5 Dy1 1_555 1_555
O6 Dy1 1_555 1_555
O7 Dy1 1_555 1_555
H1 O7 1_555 1_555
H2 O7 1_555 1_555
O8 Dy1 1_555 1_555
H3 O8 1_555 1_555
H4 O8 1_555 1_555
N1 C3 1_555 1_555
N2 H5 1_555 1_555
N3 C7 1_555 1_555
C1 C2 1_555 1_555
C2 N2 1_555 1_555
C3 C2 1_555 1_555
C4 N1 1_555 1_555
C5 C4 1_555 1_555
C6 C5 1_555 1_555
H6 C6 1_555 1_555
C7 C6 1_555 1_555
H7 C7 1_555 1_555
C8 N3 1_555 1_555
H8 C8 1_555 1_555
C9 C5 1_555 1_555
H9 C9 1_555 1_555
C10 C3 1_555 1_555
C11 O5 1_555 1_555
C12 C11 1_555 1_555
C13 C12 1_555 1_555
H10 C13 1_555 1_555
C14 C12 1_555 1_555
H11 C14 1_555 1_555
O9 H12 1_555 1_555
H13 O9 1_555 1_555
O10 H14 1_555 1_555
H15 O10 1_555 1_555
O11 H17 1_555 1_555
H18 O11 1_555 1_555
O12 H19 1_555 1_555
H20 O12 1_555 1_555
O5A C11A 1_555 1_555
O6A C11A 1_555 1_555
C11A C12A 1_555 1_555
C12A C13A 1_555 1_555
C13A C14 1_555 1_555
H10A C13A 1_555 1_555
C14A C13 1_555 1_555
H11A C14A 1_555 1_555
Dy1A O5A 1_555 1_555
O1A Dy1A 1_555 1_555
O2A C1A 1_555 1_555
O3A C10A 1_555 1_555
O4A C10A 1_555 1_555
O7A Dy1A 1_555 1_555
H1A O7A 1_555 1_555
H2A O7A 1_555 1_555
O8A Dy1A 1_555 1_555
H3A O8A 1_555 1_555
H4A O8A 1_555 1_555
N1A C3A 1_555 1_555
N2A H5A 1_555 1_555
N3A C7A 1_555 1_555
C1A O1A 1_555 1_555
C2A N2A 1_555 1_555
C3A C2A 1_555 1_555
C4A N1A 1_555 1_555
C5A C4A 1_555 1_555
C6A C5A 1_555 1_555
H6A C6A 1_555 1_555
C7A C6A 1_555 1_555
H7A C7A 1_555 1_555
C8A N3A 1_555 1_555
H8A C8A 1_555 1_555
C9A C5A 1_555 1_555
H9A C9A 1_555 1_555
C10A C3A 1_555 1_555
Dy1_2 O2A 1_555 1_555
Dy1_3 O4 1_555 1_555
Dy1A_2 O4A 1_555 1_555
Dy1A_3 O2 1_555 1_555
O2_2 Dy1A 1_555 1_555
O2A_2 Dy1 1_555 1_555
O3_2 Dy1A 1_555 1_555
O3A_2 Dy1 1_555 1_555
O4_2 Dy1 1_555 1_555
O4A_2 Dy1A 1_555 1_555
O3 Dy1A_3 1_555 1_555
O6 C11 1_555 1_555
N2 C4 1_555 1_555
C8 C9 1_555 1_555
O6A Dy1A 1_555 1_555
C12A C14A 1_555 1_555
O3A Dy1_2 1_555 1_555
N2A C4A 1_555 1_555
C1A C2A 1_555 1_555
C8A C9A 1_555 1_555

#END
