
#######################################################################
#
#                 Cambridge Crystallographic Data Centre
#                                CCDC 
#
#######################################################################
#
# If this CIF has been generated from an entry in the Cambridge 
# Structural Database, then it will include bibliographic, chemical, 
# crystal, experimental, refinement or atomic coordinate data resulting 
# from the CCDC's data processing and validation procedures.
#
#######################################################################

data_VICNUR
_symmetry_cell_setting           monoclinic
_symmetry_space_group_name_H-M   'C 2/c'
_symmetry_Int_Tables_number      15
_space_group_name_Hall           '-C 2yn'
loop_
_symmetry_equiv_pos_site_id
_symmetry_equiv_pos_as_xyz
1 x,y,z
2 1/2+x,1/2+y,z
3 -x,y,1/2-z
4 1/2-x,1/2+y,1/2-z
5 -x,-y,-z
6 1/2-x,1/2-y,-z
7 x,-y,1/2+z
8 1/2+x,1/2-y,1/2+z
_cell_length_a                   26.703(7)
_cell_length_b                   11.683(2)
_cell_length_c                   7.315(2)
_cell_angle_alpha                90
_cell_angle_beta                 91.206(4)
_cell_angle_gamma                90
_cell_volume                     2281.56
loop_
_atom_site_label
_atom_site_type_symbol
_atom_site_fract_x
_atom_site_fract_y
_atom_site_fract_z
Co1 Co 0.2500 0.2500 0.5000
O1 O 0.5000 0.3872(3) 0.2500
O2 O 0.26774(8) 0.11085(16) 0.3464(3)
H1 H 0.2761 0.0470 0.3936
H2 H 0.2724 0.1189 0.2325
O3 O 0.19729(12) 0.2276(2) 0.0827(4)
O4 O 0.20200(10) 0.40591(18) 0.0094(3)
O5 O 0.21871(8) 0.35422(17) 0.2847(2)
N1 N 0.20587(9) 0.32632(19) 0.1245(3)
N2 N 0.32127(9) 0.3251(2) 0.4366(3)
N3 N 0.47487(10) 0.5655(2) 0.2771(5)
C1 C 0.46227(11) 0.4602(3) 0.2904(4)
C2 C 0.41383(11) 0.4133(3) 0.3423(4)
C3 C 0.40838(12) 0.2984(3) 0.3873(6)
H3 H 0.4357 0.2491 0.3860
C4 C 0.36212(14) 0.2591(3) 0.4335(6)
H4 H 0.3589 0.1823 0.4644
C5 C 0.32686(10) 0.4357(2) 0.3960(4)
H5 H 0.2989 0.4831 0.3998
C6 C 0.37215(11) 0.4830(3) 0.3486(4)
H6 H 0.3745 0.5606 0.3215
Co1G Co 0.7500 0.2500 0.0000
O2E O 0.23226(8) 0.38915(16) 0.6536(3)
H1E H 0.2239 0.4530 0.6064
H2E H 0.2276 0.3811 0.7675
O3E O 0.30271(12) 0.2724(2) 0.9173(4)
O4E O 0.29800(10) 0.09409(18) 0.9906(3)
O5E O 0.28129(8) 0.14578(17) 0.7153(2)
N1E N 0.29413(9) 0.17368(19) 0.8755(3)
N2B N 0.67873(9) 0.3251(2) 0.0634(3)
N2E N 0.17873(9) 0.1749(2) 0.5634(3)
N3B N 0.52513(10) 0.5655(2) 0.2229(5)
C1B C 0.53773(11) 0.4602(3) 0.2096(4)
C2B C 0.58617(11) 0.4133(3) 0.1577(4)
C3B C 0.59162(12) 0.2984(3) 0.1127(6)
H3B H 0.5643 0.2491 0.1140
C4B C 0.63788(14) 0.2591(3) 0.0665(6)
H4B H 0.6411 0.1823 0.0356
C5B C 0.67314(10) 0.4357(2) 0.1040(4)
H5B H 0.7011 0.4831 0.1002
C6B C 0.62785(11) 0.4830(3) 0.1514(4)
H6B H 0.6255 0.5606 0.1785
O6 O 0.4332(5) -0.1606(10) 0.421(2)
O7 O 0.4593(6) 0.0191(11) 0.398(3)
O9 O 0.4837(8) -0.111(2) 0.567(4)
O8? O 0.4185(5) -0.0592(16) 0.400(5)
loop_
_geom_bond_atom_site_label_1
_geom_bond_atom_site_label_2
_geom_bond_site_symmetry_1
_geom_bond_site_symmetry_2
Co1 O2 1_555 1_555
O1 C1 1_555 1_555
O2 H1 1_555 1_555
H2 O2 1_555 1_555
O3 N1 1_555 1_555
O4 N1 1_555 1_555
O5 Co1 1_555 1_555
N1 O5 1_555 1_555
N2 Co1 1_555 1_555
N3 C1 1_555 1_555
C1 C2 1_555 1_555
C2 C3 1_555 1_555
C3 H3 1_555 1_555
C4 N2 1_555 1_555
H4 C4 1_555 1_555
C5 N2 1_555 1_555
H5 C5 1_555 1_555
C6 C2 1_555 1_555
H6 C6 1_555 1_555
Co1G N2B 1_555 1_555
O2E Co1 1_555 1_555
H1E O2E 1_555 1_555
H2E O2E 1_555 1_555
O3E N1E 1_555 1_555
O4E N1E 1_555 1_555
O5E Co1 1_555 1_555
N1E O5E 1_555 1_555
N2B C4B 1_555 1_555
N2E Co1 1_555 1_555
N3B N3 1_555 1_555
C1B O1 1_555 1_555
C2B C1B 1_555 1_555
C3B C2B 1_555 1_555
H3B C3B 1_555 1_555
C4B C3B 1_555 1_555
H4B C4B 1_555 1_555
C5B N2B 1_555 1_555
H5B C5B 1_555 1_555
C6B C2B 1_555 1_555
H6B C6B 1_555 1_555
C3 C4 1_555 1_555
C5 C6 1_555 1_555
N3B C1B 1_555 1_555
C5B C6B 1_555 1_555

#END
