
#######################################################################
#
#                 Cambridge Crystallographic Data Centre
#                                CCDC 
#
#######################################################################
#
# If this CIF has been generated from an entry in the Cambridge 
# Structural Database, then it will include bibliographic, chemical, 
# crystal, experimental, refinement or atomic coordinate data resulting 
# from the CCDC's data processing and validation procedures.
#
#######################################################################

data_VICPIH
_symmetry_cell_setting           monoclinic
_symmetry_space_group_name_H-M   'C 2/c'
_symmetry_Int_Tables_number      15
_space_group_name_Hall           '-C 2yn'
loop_
_symmetry_equiv_pos_site_id
_symmetry_equiv_pos_as_xyz
1 x,y,z
2 1/2+x,1/2+y,z
3 -x,y,1/2-z
4 1/2-x,1/2+y,1/2-z
5 -x,-y,-z
6 1/2-x,1/2-y,-z
7 x,-y,1/2+z
8 1/2+x,1/2-y,1/2+z
_cell_length_a                   20.917(7)
_cell_length_b                   13.665(5)
_cell_length_c                   12.791(4)
_cell_angle_alpha                90
_cell_angle_beta                 114.064(4)
_cell_angle_gamma                90
_cell_volume                     3338.32
loop_
_atom_site_label
_atom_site_type_symbol
_atom_site_fract_x
_atom_site_fract_y
_atom_site_fract_z
Ag1 Ag 0.0000 0.15530(2) 0.2500
Ag2 Ag 0.0000 0.47170(2) 0.2500
C1 C -0.01570(13) 0.40388(17) 0.0198(2)
C2 C 0.05269(13) 0.43062(18) 0.0392(2)
H1 H 0.0889 0.3830 0.0658
C3 C -0.06830(13) 0.47474(18) -0.0203(2)
H2 H -0.1152 0.4576 -0.0346
N1 N -0.03157(10) 0.30556(14) 0.04021(17)
N2 N 0.02758(10) 0.15533(14) 0.10434(18)
C4 C 0.00699(13) 0.22612(18) 0.0240(2)
C5 C 0.02416(14) 0.22497(19) -0.0694(2)
H3 H 0.0078 0.2749 -0.1259
C6 C 0.06563(15) 0.1496(2) -0.0790(3)
H4 H 0.0787 0.1477 -0.1420
C7 C 0.08793(14) 0.0774(2) 0.0033(3)
H5 H 0.1168 0.0256 -0.0017
C8 C 0.06772(13) 0.08169(19) 0.0924(2)
H6 H 0.0824 0.0311 0.1482
N3 N -0.09083(10) 0.35210(15) 0.15295(17)
C9 C -0.08502(12) 0.28697(17) 0.0786(2)
C10 C -0.12800(13) 0.20547(18) 0.0404(2)
H7 H -0.1233 0.1625 -0.0144
C11 C -0.17753(13) 0.1879(2) 0.0832(2)
H8 H -0.2059 0.1308 0.0621
C12 C -0.18491(14) 0.2556(2) 0.1578(2)
H9 H -0.2191 0.2462 0.1879
C13 C -0.14253(13) 0.3364(2) 0.1879(2)
H10 H -0.1500 0.3839 0.2360
N4 N -0.08821(14) 0.59383(18) 0.2195(2)
C14 C -0.14468(18) 0.6169(2) 0.1771(3)
C15 C -0.21813(18) 0.6451(3) 0.1223(3)
H11 H -0.2224 0.7158 0.1307
H12 H -0.2447 0.6102 0.1585
H13 H -0.2367 0.6284 0.0407
Ag1F Ag 0.0000 0.84470(2) -0.2500
Ag2F Ag 0.0000 0.52830(2) -0.2500
C1D C 0.01570(13) 0.59612(17) -0.0198(2)
C2D C -0.05269(13) 0.56938(18) -0.0392(2)
H1D H -0.0889 0.6170 -0.0658
C3D C 0.06830(13) 0.52526(18) 0.0203(2)
H2D H 0.1152 0.5424 0.0346
N1D N 0.03157(10) 0.69444(14) -0.04021(17)
N2D N -0.02758(10) 0.84467(14) -0.10434(18)
N2B N -0.02758(10) 0.15533(14) 0.39566(18)
C4D C -0.00699(13) 0.77388(18) -0.0240(2)
C5D C -0.02416(14) 0.77503(19) 0.0694(2)
H3D H -0.0078 0.7251 0.1259
C6D C -0.06563(15) 0.8504(2) 0.0790(3)
H4D H -0.0787 0.8523 0.1420
C7D C -0.08793(14) 0.9226(2) -0.0033(3)
H5D H -0.1168 0.9744 0.0017
C8D C -0.06772(13) 0.91831(19) -0.0924(2)
H6D H -0.0824 0.9689 -0.1482
N3D N 0.09083(10) 0.64790(15) -0.15295(17)
N3B N 0.09083(10) 0.35210(15) 0.34705(17)
C9D C 0.08502(12) 0.71303(17) -0.0786(2)
C10D C 0.12800(13) 0.79453(18) -0.0404(2)
H7D H 0.1233 0.8375 0.0144
C11D C 0.17753(13) 0.8121(2) -0.0832(2)
H8D H 0.2059 0.8692 -0.0621
C12D C 0.18491(14) 0.7444(2) -0.1578(2)
H9D H 0.2191 0.7538 -0.1879
C13D C 0.14253(13) 0.6636(2) -0.1879(2)
H10D H 0.1500 0.6161 -0.2360
N4B N 0.08821(14) 0.59383(18) 0.2805(2)
C14B C 0.14468(18) 0.6169(2) 0.3229(3)
C15B C 0.21813(18) 0.6451(3) 0.3777(3)
H11B H 0.2224 0.7158 0.3693
H12B H 0.2447 0.6102 0.3415
H13B H 0.2367 0.6284 0.4593
B1 B 0.2238(3) -0.0638(4) 0.2991(4)
F1 F 0.20346(18) -0.0706(3) 0.1827(2)
F2 F 0.2787(2) -0.1277(3) 0.3599(4)
F3 F 0.1703(2) -0.0580(4) 0.3324(5)
F4 F 0.25735(13) 0.03042(18) 0.3275(3)
F5? F 0.1617(5) -0.1420(8) 0.2380(9)
F6? F 0.2582(9) -0.1428(14) 0.3469(17)
F7? F 0.1927(10) -0.0315(15) 0.3525(19)
F8? F 0.2249(8) -0.0293(11) 0.2213(15)
loop_
_geom_bond_atom_site_label_1
_geom_bond_atom_site_label_2
_geom_bond_site_symmetry_1
_geom_bond_site_symmetry_2
Ag1 N2 1_555 1_555
Ag2 N3 1_555 1_555
C1 C2 1_555 1_555
C2 H1 1_555 1_555
C3 C1 1_555 1_555
H2 C3 1_555 1_555
N1 C1 1_555 1_555
N2 C4 1_555 1_555
C4 N1 1_555 1_555
C5 C4 1_555 1_555
H3 C5 1_555 1_555
C6 C5 1_555 1_555
H4 C6 1_555 1_555
C7 C6 1_555 1_555
H5 C7 1_555 1_555
C8 N2 1_555 1_555
H6 C8 1_555 1_555
N3 C9 1_555 1_555
C9 N1 1_555 1_555
C10 C9 1_555 1_555
H7 C10 1_555 1_555
C11 C10 1_555 1_555
H8 C11 1_555 1_555
C12 C11 1_555 1_555
H9 C12 1_555 1_555
C13 N3 1_555 1_555
H10 C13 1_555 1_555
B1 F1 1_555 1_555
F2 B1 1_555 1_555
F3 B1 1_555 1_555
F4 B1 1_555 1_555
N4 Ag2 1_555 1_555
C14 N4 1_555 1_555
C15 C14 1_555 1_555
H11 C15 1_555 1_555
H12 C15 1_555 1_555
H13 C15 1_555 1_555
Ag1F N2D 1_555 1_555
Ag2F N3D 1_555 1_555
C1D C2D 1_555 1_555
C2D C3 1_555 1_555
H1D C2D 1_555 1_555
C3D C2 1_555 1_555
H2D C3D 1_555 1_555
N1D C1D 1_555 1_555
N2D C4D 1_555 1_555
N2B Ag1 1_555 1_555
C4D N1D 1_555 1_555
C5D C4D 1_555 1_555
H3D C5D 1_555 1_555
C6D C5D 1_555 1_555
H4D C6D 1_555 1_555
C7D C6D 1_555 1_555
H5D C7D 1_555 1_555
C8D N2D 1_555 1_555
H6D C8D 1_555 1_555
N3D C9D 1_555 1_555
N3B Ag2 1_555 1_555
C9D N1D 1_555 1_555
C10D C9D 1_555 1_555
H7D C10D 1_555 1_555
C11D C10D 1_555 1_555
H8D C11D 1_555 1_555
C12D C11D 1_555 1_555
H9D C12D 1_555 1_555
C13D N3D 1_555 1_555
H10D C13D 1_555 1_555
N4B Ag2 1_555 1_555
C14B N4B 1_555 1_555
C15B C14B 1_555 1_555
H11B C15B 1_555 1_555
H12B C15B 1_555 1_555
H13B C15B 1_555 1_555
C7 C8 1_555 1_555
C12 C13 1_555 1_555
C1D C3D 1_555 1_555
C7D C8D 1_555 1_555
C12D C13D 1_555 1_555

#END
