
#######################################################################
#
#                 Cambridge Crystallographic Data Centre
#                                CCDC 
#
#######################################################################
#
# If this CIF has been generated from an entry in the Cambridge 
# Structural Database, then it will include bibliographic, chemical, 
# crystal, experimental, refinement or atomic coordinate data resulting 
# from the CCDC's data processing and validation procedures.
#
#######################################################################

data_VICPED
_symmetry_cell_setting           triclinic
_symmetry_space_group_name_H-M   'P -1'
_symmetry_Int_Tables_number      2
_space_group_name_Hall           '-P 1'
loop_
_symmetry_equiv_pos_site_id
_symmetry_equiv_pos_as_xyz
1 x,y,z
2 -x,-y,-z
_cell_length_a                   9.788(3)
_cell_length_b                   10.901(3)
_cell_length_c                   12.844(3)
_cell_angle_alpha                69.774(3)
_cell_angle_beta                 68.357(3)
_cell_angle_gamma                79.025(3)
_cell_volume                     1192.17
loop_
_atom_site_label
_atom_site_type_symbol
_atom_site_fract_x
_atom_site_fract_y
_atom_site_fract_z
Ag1 Ag -0.10766(3) -0.06980(2) 0.79818(2)
N1 N -0.2525(3) -0.3239(3) 0.8900(2)
O1 O -0.2583(3) -0.2253(2) 0.8037(2)
O2 O -0.1840(3) -0.3195(3) 0.9528(2)
O3 O -0.3193(4) -0.4214(2) 0.9117(3)
C1 C -0.1507(3) 0.0352(3) 1.0257(3)
H1 H -0.2534 0.0587 1.0429
N2 N -0.1037(3) 0.2094(2) 0.8372(2)
C2 C -0.0516(3) 0.1019(3) 0.9191(3)
C3 C -0.0992(3) -0.0656(3) 1.1067(3)
H2 H -0.1667 -0.1099 1.1798
N3 N -0.2782(3) 0.0987(2) 0.8245(2)
C4 C -0.2470(3) 0.2086(3) 0.8344(2)
C5 C -0.3517(4) 0.3140(3) 0.8478(3)
H3 H -0.3262 0.3903 0.8542
C6 C -0.4923(4) 0.3056(3) 0.8516(3)
H4 H -0.5651 0.3761 0.8604
C7 C -0.5260(4) 0.1914(3) 0.8422(3)
H5 H -0.6221 0.1829 0.8448
C8 C -0.4180(4) 0.0924(3) 0.8291(3)
H6 H -0.4418 0.0152 0.8230
N4 N 0.0502(4) 0.3610(3) 0.8386(3)
C9 C -0.0300(3) 0.3270(3) 0.7834(3)
C10 C -0.0411(3) 0.3996(2) 0.6790(2)
H7 H -0.0947 0.3730 0.6430
C11 C 0.0267(4) 0.5119(3) 0.6269(3)
H8 H 0.0177 0.5656 0.5533
C12 C 0.1086(4) 0.5542(3) 0.6738(4)
H9 H 0.1557 0.6340 0.6335
C13 C 0.1195(4) 0.4759(3) 0.7819(4)
H10 H 0.1751 0.5018 0.8168
C14 C -0.0295(3) 0.1004(3) 0.5509(3)
H11 H -0.0492 0.1693 0.5850
N5 N 0.2057(3) 0.0384(2) 0.5922(2)
C15 C 0.1004(3) 0.0194(3) 0.5451(3)
C16 C -0.1300(3) 0.0795(3) 0.5064(3)
H12 H -0.2193 0.1333 0.5115
N6 N 0.1323(3) -0.1444(2) 0.7567(2)
C17 C 0.2435(3) -0.0695(3) 0.6797(3)
C18 C 0.3861(3) -0.0984(3) 0.6854(3)
H13 H 0.4630 -0.0444 0.6301
C19 C 0.4139(4) -0.2063(3) 0.7723(3)
H14 H 0.5099 -0.2261 0.7786
C20 C 0.3017(4) -0.2859(3) 0.8504(3)
H15 H 0.3191 -0.3614 0.9102
C21 C 0.1632(4) -0.2521(3) 0.8388(3)
H16 H 0.0861 -0.3072 0.8912
N7 N 0.3322(3) 0.1868(3) 0.6115(2)
C22 C 0.2695(3) 0.1601(3) 0.5469(3)
C23 C 0.2636(4) 0.2472(3) 0.4395(3)
H17 H 0.2167 0.2258 0.3958
C24 C 0.3268(4) 0.3649(3) 0.3976(3)
H18 H 0.3234 0.4262 0.3248
C25 C 0.3955(5) 0.3928(4) 0.4634(4)
H19 H 0.4406 0.4728 0.4369
C26 C 0.3959(5) 0.3010(4) 0.5673(3)
H20 H 0.4446 0.3191 0.6116
Ag1A Ag 0.10766(3) 0.06980(2) 1.20182(2)
Ag1A_2 Ag 0.10766(3) 0.06980(2) 0.20182(2)
N1A N 0.2525(3) 0.3239(3) 1.1100(2)
O1A O 0.2583(3) 0.2253(2) 1.1963(2)
O2A O 0.1840(3) 0.3195(3) 1.0472(2)
O3A O 0.3193(4) 0.4214(2) 1.0883(3)
C1A C 0.1507(3) -0.0352(3) 0.9743(3)
H1A H 0.2534 -0.0587 0.9571
N2A N 0.1037(3) -0.2094(2) 1.1628(2)
C2A C 0.0516(3) -0.1019(3) 1.0809(3)
C3A C 0.0992(3) 0.0656(3) 0.8933(3)
H2A H 0.1667 0.1099 0.8202
N3A N 0.2782(3) -0.0987(2) 1.1755(2)
C4A C 0.2470(3) -0.2086(3) 1.1656(2)
C5A C 0.3517(4) -0.3140(3) 1.1522(3)
H3A H 0.3262 -0.3903 1.1458
C6A C 0.4923(4) -0.3056(3) 1.1484(3)
H4A H 0.5651 -0.3761 1.1396
C7A C 0.5260(4) -0.1914(3) 1.1578(3)
H5A H 0.6221 -0.1829 1.1552
C8A C 0.4180(4) -0.0924(3) 1.1709(3)
H6A H 0.4418 -0.0152 1.1770
N4A N -0.0502(4) -0.3610(3) 1.1614(3)
C9A C 0.0300(3) -0.3270(3) 1.2166(3)
C10A C 0.0411(3) -0.3996(2) 1.3210(2)
H7A H 0.0947 -0.3730 1.3570
C11A C -0.0267(4) -0.5119(3) 1.3731(3)
H8A H -0.0177 -0.5656 1.4467
C12A C -0.1086(4) -0.5542(3) 1.3262(4)
H9A H -0.1557 -0.6340 1.3665
C13A C -0.1195(4) -0.4759(3) 1.2181(4)
H10A H -0.1751 -0.5018 1.1832
C14A C 0.0295(3) -0.1004(3) 0.4491(3)
H11A H 0.0492 -0.1693 0.4150
N5A N -0.2057(3) -0.0384(2) 0.4078(2)
C15A C -0.1004(3) -0.0194(3) 0.4549(3)
C16A C 0.1300(3) -0.0795(3) 0.4936(3)
H12A H 0.2193 -0.1333 0.4885
N6A N -0.1323(3) 0.1444(2) 0.2433(2)
N6A_2 N -0.1323(3) 0.1444(2) 1.2433(2)
C17A C -0.2435(3) 0.0695(3) 0.3203(3)
C18A C -0.3861(3) 0.0984(3) 0.3146(3)
H13A H -0.4630 0.0444 0.3699
C19A C -0.4139(4) 0.2063(3) 0.2277(3)
H14A H -0.5099 0.2261 0.2214
C20A C -0.3017(4) 0.2859(3) 0.1496(3)
H15A H -0.3191 0.3614 0.0898
C21A C -0.1632(4) 0.2521(3) 0.1612(3)
H16A H -0.0861 0.3072 0.1088
N7A N -0.3322(3) -0.1868(3) 0.3885(2)
C22A C -0.2695(3) -0.1601(3) 0.4531(3)
C23A C -0.2636(4) -0.2472(3) 0.5605(3)
H17A H -0.2167 -0.2258 0.6042
C24A C -0.3268(4) -0.3649(3) 0.6024(3)
H18A H -0.3234 -0.4262 0.6752
C25A C -0.3955(5) -0.3928(4) 0.5366(4)
H19A H -0.4406 -0.4728 0.5631
C26A C -0.3959(5) -0.3010(4) 0.4327(3)
H20A H -0.4446 -0.3191 0.3884
loop_
_geom_bond_atom_site_label_1
_geom_bond_atom_site_label_2
_geom_bond_site_symmetry_1
_geom_bond_site_symmetry_2
Ag1 O1 1_555 1_555
N1 O1 1_555 1_555
O2 N1 1_555 1_555
O3 N1 1_555 1_555
C1 H1 1_555 1_555
N2 C2 1_555 1_555
C2 C1 1_555 1_555
C3 C1 1_555 1_555
H2 C3 1_555 1_555
N3 Ag1 1_555 1_555
C4 N2 1_555 1_555
C5 C4 1_555 1_555
H3 C5 1_555 1_555
C6 C5 1_555 1_555
H4 C6 1_555 1_555
C7 C6 1_555 1_555
H5 C7 1_555 1_555
C8 N3 1_555 1_555
H6 C8 1_555 1_555
N4 C9 1_555 1_555
C9 N2 1_555 1_555
C10 C9 1_555 1_555
H7 C10 1_555 1_555
C11 C10 1_555 1_555
H8 C11 1_555 1_555
C12 C11 1_555 1_555
H9 C12 1_555 1_555
C13 N4 1_555 1_555
H10 C13 1_555 1_555
C14 H11 1_555 1_555
N5 C15 1_555 1_555
C15 C14 1_555 1_555
C16 C14 1_555 1_555
H12 C16 1_555 1_555
N6 Ag1 1_555 1_555
C17 N5 1_555 1_555
C18 C17 1_555 1_555
H13 C18 1_555 1_555
C19 C18 1_555 1_555
H14 C19 1_555 1_555
C20 C19 1_555 1_555
H15 C20 1_555 1_555
C21 N6 1_555 1_555
H16 C21 1_555 1_555
N7 C22 1_555 1_555
C22 N5 1_555 1_555
C23 C22 1_555 1_555
H17 C23 1_555 1_555
C24 C23 1_555 1_555
H18 C24 1_555 1_555
C25 C24 1_555 1_555
H19 C25 1_555 1_555
C26 N7 1_555 1_555
H20 C26 1_555 1_555
Ag1A O1A 1_555 1_555
Ag1A_2 N6A 1_555 1_555
N1A O1A 1_555 1_555
O2A N1A 1_555 1_555
O3A N1A 1_555 1_555
C1A H1A 1_555 1_555
N2A C2A 1_555 1_555
C2A C3 1_555 1_555
C3A C2 1_555 1_555
H2A C3A 1_555 1_555
N3A Ag1A 1_555 1_555
C4A N2A 1_555 1_555
C5A C4A 1_555 1_555
H3A C5A 1_555 1_555
C6A C5A 1_555 1_555
H4A C6A 1_555 1_555
C7A C6A 1_555 1_555
H5A C7A 1_555 1_555
C8A N3A 1_555 1_555
H6A C8A 1_555 1_555
N4A C9A 1_555 1_555
C9A N2A 1_555 1_555
C10A C9A 1_555 1_555
H7A C10A 1_555 1_555
C11A C10A 1_555 1_555
H8A C11A 1_555 1_555
C12A C11A 1_555 1_555
H9A C12A 1_555 1_555
C13A N4A 1_555 1_555
H10A C13A 1_555 1_555
C14A H11A 1_555 1_555
N5A C15A 1_555 1_555
C15A C16 1_555 1_555
C16A C15 1_555 1_555
H12A C16A 1_555 1_555
N6A C17A 1_555 1_555
N6A_2 Ag1A 1_555 1_555
C17A N5A 1_555 1_555
C18A C17A 1_555 1_555
H13A C18A 1_555 1_555
C19A C18A 1_555 1_555
H14A C19A 1_555 1_555
C20A C19A 1_555 1_555
H15A C20A 1_555 1_555
C21A N6A 1_555 1_555
H16A C21A 1_555 1_555
N7A C22A 1_555 1_555
C22A N5A 1_555 1_555
C23A C22A 1_555 1_555
H17A C23A 1_555 1_555
C24A C23A 1_555 1_555
H18A C24A 1_555 1_555
C25A C24A 1_555 1_555
H19A C25A 1_555 1_555
C26A N7A 1_555 1_555
H20A C26A 1_555 1_555
N3 C4 1_555 1_555
C7 C8 1_555 1_555
C12 C13 1_555 1_555
N6 C17 1_555 1_555
C20 C21 1_555 1_555
C25 C26 1_555 1_555
C1A C2A 1_555 1_555
C1A C3A 1_555 1_555
N3A C4A 1_555 1_555
C7A C8A 1_555 1_555
C12A C13A 1_555 1_555
C14A C15A 1_555 1_555
C14A C16A 1_555 1_555
C20A C21A 1_555 1_555
C25A C26A 1_555 1_555

#END
