
#######################################################################
#
#                 Cambridge Crystallographic Data Centre
#                                CCDC 
#
#######################################################################
#
# If this CIF has been generated from an entry in the Cambridge 
# Structural Database, then it will include bibliographic, chemical, 
# crystal, experimental, refinement or atomic coordinate data resulting 
# from the CCDC's data processing and validation procedures.
#
#######################################################################

data_VICRIJ01
_symmetry_cell_setting           triclinic
_symmetry_space_group_name_H-M   'P -1'
_symmetry_Int_Tables_number      2
_space_group_name_Hall           '-P 1'
loop_
_symmetry_equiv_pos_site_id
_symmetry_equiv_pos_as_xyz
1 x,y,z
2 -x,-y,-z
_cell_length_a                   8.8106(5)
_cell_length_b                   9.4825(5)
_cell_length_c                   19.0242(11)
_cell_angle_alpha                78.458(5)
_cell_angle_beta                 77.652(3)
_cell_angle_gamma                73.638(4)
_cell_volume                     1473.08
loop_
_atom_site_label
_atom_site_type_symbol
_atom_site_fract_x
_atom_site_fract_y
_atom_site_fract_z
Fe1 Fe 0.0000 -0.5000 0.5000
Fe2 Fe 0.0000 -0.5000 0.0000
Cl1 Cl -0.15335(19) 0.02071(15) 0.21731(8)
S1 S 0.25448(17) -0.22543(15) 0.29681(7)
S2 S -0.40260(19) -0.1852(2) 0.15623(11)
N1 N 0.0848(5) -0.3736(5) 0.4151(2)
N2 N -0.1738(6) -0.3897(5) 0.0771(3)
N3 N -0.2267(5) -0.4129(4) 0.4834(2)
N4 N -0.1456(5) -0.4689(4) 0.3638(2)
N5 N 0.0093(5) -0.6538(5) 0.4403(2)
N6 N -0.1545(5) -0.2392(5) 0.2926(2)
N7 N -0.0018(5) -0.4637(4) 0.2478(2)
N8 N 0.0060(5) -0.2289(5) 0.1737(2)
N9 N 0.1658(5) -0.3680(5) 0.0053(2)
N10 N 0.1449(5) -0.4505(5) 0.1314(2)
N11 N 0.1268(5) -0.6564(5) 0.0852(2)
C1 C 0.1532(6) -0.3106(5) 0.3661(3)
C2 C -0.2683(7) -0.3030(6) 0.1091(3)
C3 C -0.3458(6) -0.3657(5) 0.5371(3)
H1 H -0.3202 -0.3701 0.5837
C4 C -0.5024(7) -0.3081(6) 0.5274(3)
H2 H -0.5826 -0.2762 0.5670
C5 C -0.5419(6) -0.3000(6) 0.4607(3)
H3 H -0.6500 -0.2607 0.4532
C6 C -0.4227(6) -0.3493(6) 0.4051(3)
H4 H -0.4472 -0.3450 0.3583
C7 C -0.2675(6) -0.4050(5) 0.4184(3)
C8 C 0.0830(6) -0.7988(5) 0.4599(3)
H5 H 0.1318 -0.8252 0.5022
C9 C 0.0888(7) -0.9095(6) 0.4217(3)
H6 H 0.1467 -1.0089 0.4352
C10 C 0.0092(7) -0.8736(6) 0.3627(3)
H7 H 0.0073 -0.9481 0.3364
C11 C -0.0678(6) -0.7275(6) 0.3427(3)
H8 H -0.1229 -0.7002 0.3024
C12 C -0.0639(6) -0.6223(6) 0.3820(3)
C13 C -0.0997(6) -0.3875(6) 0.2981(3)
C14 C -0.0927(7) -0.1722(6) 0.2282(3)
C15 C 0.0460(6) -0.3779(6) 0.1866(3)
C16 C 0.2327(7) -0.2920(6) -0.0544(3)
H9 H 0.2025 -0.2928 -0.0993
C17 C 0.3428(7) -0.2133(7) -0.0556(3)
H10 H 0.3840 -0.1577 -0.0992
C18 C 0.3920(8) -0.2166(7) 0.0090(3)
H11 H 0.4694 -0.1655 0.0108
C19 C 0.3263(7) -0.2964(7) 0.0718(3)
H12 H 0.3584 -0.3006 0.1170
C20 C 0.2146(6) -0.3676(6) 0.0679(3)
C21 C 0.1598(7) -0.8050(7) 0.0867(3)
H13 H 0.1310 -0.8409 0.0495
C22 C 0.2340(7) -0.9058(6) 0.1386(3)
H14 H 0.2514 -1.0092 0.1383
C23 C 0.2829(7) -0.8547(7) 0.1911(3)
H15 H 0.3342 -0.9230 0.2279
C24 C 0.2560(7) -0.7031(6) 0.1892(3)
H16 H 0.2908 -0.6641 0.2235
C25 C 0.1767(6) -0.6097(6) 0.1356(3)
Fe2_2 Fe 0.0000 -0.5000 1.0000
Cl1A Cl 0.15335(19) -1.02071(15) 0.78269(8)
S1A S -0.25448(17) -0.77457(15) 0.70319(7)
S2A S 0.40260(19) -0.8148(2) -0.15623(11)
N1A N -0.0848(5) -0.6264(5) 0.5849(2)
N2A N 0.1738(6) -0.6103(5) -0.0771(3)
N3A N 0.2267(5) -0.5871(4) 0.5166(2)
N4A N 0.1456(5) -0.5311(4) 0.6362(2)
N5A N -0.0093(5) -0.3462(5) 0.5597(2)
N6A N 0.1545(5) -0.7608(5) 0.7074(2)
N7A N 0.0018(5) -0.5363(4) 0.7522(2)
N8A N -0.0060(5) -0.7711(5) 0.8263(2)
N9A N -0.1658(5) -0.6320(5) 0.9947(2)
N9A_2 N -0.1658(5) -0.6320(5) -0.0053(2)
N10A N -0.1449(5) -0.5495(5) 0.8686(2)
N11A N -0.1268(5) -0.3436(5) 0.9148(2)
N11A_2 N -0.1268(5) -0.3436(5) -0.0852(2)
C1A C -0.1532(6) -0.6894(5) 0.6339(3)
C2A C 0.2683(7) -0.6970(6) -0.1091(3)
C3A C 0.3458(6) -0.6343(5) 0.4629(3)
H1A H 0.3202 -0.6299 0.4163
C4A C 0.5024(7) -0.6919(6) 0.4726(3)
H2A H 0.5826 -0.7238 0.4330
C5A C 0.5419(6) -0.7000(6) 0.5393(3)
H3A H 0.6500 -0.7393 0.5468
C6A C 0.4227(6) -0.6507(6) 0.5949(3)
H4A H 0.4472 -0.6550 0.6417
C7A C 0.2675(6) -0.5950(5) 0.5816(3)
C8A C -0.0830(6) -0.2012(5) 0.5401(3)
H5A H -0.1318 -0.1748 0.4978
C9A C -0.0888(7) -0.0905(6) 0.5783(3)
H6A H -0.1467 0.0089 0.5648
C10A C -0.0092(7) -0.1264(6) 0.6373(3)
H7A H -0.0073 -0.0519 0.6636
C11A C 0.0678(6) -0.2725(6) 0.6573(3)
H8A H 0.1229 -0.2998 0.6976
C12A C 0.0639(6) -0.3777(6) 0.6180(3)
C13A C 0.0997(6) -0.6125(6) 0.7019(3)
C14A C 0.0927(7) -0.8278(6) 0.7718(3)
C15A C -0.0460(6) -0.6221(6) 0.8134(3)
C16A C -0.2327(7) -0.7080(6) 1.0544(3)
H9A H -0.2025 -0.7072 1.0993
C17A C -0.3428(7) -0.7867(7) 1.0556(3)
H10A H -0.3840 -0.8423 1.0992
C18A C -0.3920(8) -0.7834(7) 0.9910(3)
H11A H -0.4694 -0.8345 0.9892
C19A C -0.3263(7) -0.7036(7) 0.9282(3)
H12A H -0.3584 -0.6994 0.8830
C20A C -0.2146(6) -0.6324(6) 0.9321(3)
C21A C -0.1598(7) -0.1950(7) 0.9133(3)
H13A H -0.1310 -0.1591 0.9505
C22A C -0.2340(7) -0.0942(6) 0.8614(3)
H14A H -0.2514 0.0092 0.8617
C23A C -0.2829(7) -0.1453(7) 0.8089(3)
H15A H -0.3342 -0.0770 0.7721
C24A C -0.2560(7) -0.2969(6) 0.8108(3)
H16A H -0.2908 -0.3359 0.7765
C25A C -0.1767(6) -0.3903(6) 0.8644(3)
O1 O 0.6878(6) -1.0439(5) 0.4031(2)
H17 H 0.7517 -0.9896 0.3857
C26 C 0.5366(8) -0.9727(8) 0.3793(4)
H18 H 0.5047 -1.0416 0.3566
H19 H 0.5454 -0.8834 0.3441
H20 H 0.4558 -0.9450 0.4217
O2 O 0.4581(7) -0.5687(6) 0.2859(3)
H21 H 0.4054 -0.4795 0.2892
C27 C 0.5853(8) -0.5855(8) 0.2273(4)
H22 H 0.6510 -0.5165 0.2256
H23 H 0.6511 -0.6879 0.2343
H24 H 0.5438 -0.5662 0.1816
loop_
_geom_bond_atom_site_label_1
_geom_bond_atom_site_label_2
_geom_bond_site_symmetry_1
_geom_bond_site_symmetry_2
Fe1 N1 1_555 1_555
Fe2 N2 1_555 1_555
Cl1 C14 1_555 1_555
S1 C1 1_555 1_555
S2 C2 1_555 1_555
N1 C1 1_555 1_555
N2 C2 1_555 1_555
N3 Fe1 1_555 1_555
N4 C7 1_555 1_555
N5 Fe1 1_555 1_555
N6 C13 1_555 1_555
N7 C13 1_555 1_555
N8 C14 1_555 1_555
N9 Fe2 1_555 1_555
N10 C15 1_555 1_555
N11 Fe2 1_555 1_555
C3 N3 1_555 1_555
H1 C3 1_555 1_555
C4 C3 1_555 1_555
H2 C4 1_555 1_555
C5 C4 1_555 1_555
H3 C5 1_555 1_555
C6 C5 1_555 1_555
H4 C6 1_555 1_555
C7 N3 1_555 1_555
C8 N5 1_555 1_555
H5 C8 1_555 1_555
C9 C8 1_555 1_555
H6 C9 1_555 1_555
C10 C9 1_555 1_555
H7 C10 1_555 1_555
C11 C10 1_555 1_555
H8 C11 1_555 1_555
C12 N4 1_555 1_555
C13 N4 1_555 1_555
C14 N6 1_555 1_555
C15 N7 1_555 1_555
C16 N9 1_555 1_555
H9 C16 1_555 1_555
C17 C16 1_555 1_555
H10 C17 1_555 1_555
C18 C17 1_555 1_555
H11 C18 1_555 1_555
C19 C18 1_555 1_555
H12 C19 1_555 1_555
C20 N9 1_555 1_555
C21 N11 1_555 1_555
H13 C21 1_555 1_555
C22 C21 1_555 1_555
H14 C22 1_555 1_555
C23 C22 1_555 1_555
H15 C23 1_555 1_555
C24 C23 1_555 1_555
H16 C24 1_555 1_555
C25 N10 1_555 1_555
O1 H17 1_555 1_555
C26 O1 1_555 1_555
H18 C26 1_555 1_555
H19 C26 1_555 1_555
H20 C26 1_555 1_555
O2 H21 1_555 1_555
C27 O2 1_555 1_555
H22 C27 1_555 1_555
H23 C27 1_555 1_555
H24 C27 1_555 1_555
Fe2_2 N9A 1_555 1_555
Cl1A C14A 1_555 1_555
S1A C1A 1_555 1_555
S2A C2A 1_555 1_555
N1A Fe1 1_555 1_555
N2A Fe2 1_555 1_555
N3A Fe1 1_555 1_555
N4A C7A 1_555 1_555
N5A Fe1 1_555 1_555
N6A C13A 1_555 1_555
N7A C13A 1_555 1_555
N8A C14A 1_555 1_555
N9A C16A 1_555 1_555
N9A_2 Fe2 1_555 1_555
N10A C15A 1_555 1_555
N11A Fe2_2 1_555 1_555
N11A_2 Fe2 1_555 1_555
C1A N1A 1_555 1_555
C2A N2A 1_555 1_555
C3A N3A 1_555 1_555
H1A C3A 1_555 1_555
C4A C3A 1_555 1_555
H2A C4A 1_555 1_555
C5A C4A 1_555 1_555
H3A C5A 1_555 1_555
C6A C5A 1_555 1_555
H4A C6A 1_555 1_555
C7A N3A 1_555 1_555
C8A N5A 1_555 1_555
H5A C8A 1_555 1_555
C9A C8A 1_555 1_555
H6A C9A 1_555 1_555
C10A C9A 1_555 1_555
H7A C10A 1_555 1_555
C11A C10A 1_555 1_555
H8A C11A 1_555 1_555
C12A N4A 1_555 1_555
C13A N4A 1_555 1_555
C14A N6A 1_555 1_555
C15A N7A 1_555 1_555
C16A H9A 1_555 1_555
C17A C16A 1_555 1_555
H10A C17A 1_555 1_555
C18A C17A 1_555 1_555
H11A C18A 1_555 1_555
C19A C18A 1_555 1_555
H12A C19A 1_555 1_555
C20A N9A 1_555 1_555
C21A N11A 1_555 1_555
H13A C21A 1_555 1_555
C22A C21A 1_555 1_555
H14A C22A 1_555 1_555
C23A C22A 1_555 1_555
H15A C23A 1_555 1_555
C24A C23A 1_555 1_555
H16A C24A 1_555 1_555
C25A N10A 1_555 1_555
N5 C12 1_555 1_555
N8 C15 1_555 1_555
N10 C20 1_555 1_555
N11 C25 1_555 1_555
C6 C7 1_555 1_555
C11 C12 1_555 1_555
C19 C20 1_555 1_555
C24 C25 1_555 1_555
N5A C12A 1_555 1_555
N8A C15A 1_555 1_555
N10A C20A 1_555 1_555
N11A C25A 1_555 1_555
C6A C7A 1_555 1_555
C11A C12A 1_555 1_555
C19A C20A 1_555 1_555
C24A C25A 1_555 1_555

#END
