
#######################################################################
#
#                 Cambridge Crystallographic Data Centre
#                                CCDC 
#
#######################################################################
#
# If this CIF has been generated from an entry in the Cambridge 
# Structural Database, then it will include bibliographic, chemical, 
# crystal, experimental, refinement or atomic coordinate data resulting 
# from the CCDC's data processing and validation procedures.
#
#######################################################################

data_VICZAK
_symmetry_cell_setting           monoclinic
_symmetry_space_group_name_H-M   'P 21/n'
_symmetry_Int_Tables_number      14
_space_group_name_Hall           '-P 2yn'
loop_
_symmetry_equiv_pos_site_id
_symmetry_equiv_pos_as_xyz
1 x,y,z
2 1/2-x,1/2+y,1/2-z
3 -x,-y,-z
4 1/2+x,1/2-y,1/2+z
_cell_length_a                   8.706(3)
_cell_length_b                   21.861(8)
_cell_length_c                   10.073(4)
_cell_angle_alpha                90
_cell_angle_beta                 103.923(3)
_cell_angle_gamma                90
_cell_volume                     1860.79
loop_
_atom_site_label
_atom_site_type_symbol
_atom_site_fract_x
_atom_site_fract_y
_atom_site_fract_z
Zn1 Zn 0.58230(8) 0.10551(3) 0.55539(6)
C1 C 0.9347(9) 0.1404(4) 0.6465(8)
H1 H 0.9515 0.0983 0.6511
C2 C 1.0634(10) 0.1784(4) 0.6850(9)
H2 H 1.1650 0.1625 0.7138
C3 C 1.0384(10) 0.2398(5) 0.6802(9)
H3 H 1.1230 0.2666 0.7072
C4 C 0.8878(11) 0.2618(4) 0.6351(9)
H4 H 0.8695 0.3037 0.6301
C5 C 0.7619(8) 0.2209(3) 0.5967(6)
C6 C 0.5953(9) 0.2408(3) 0.5471(7)
C7 C 0.5472(14) 0.3013(4) 0.5260(10)
H5 H 0.6223 0.3324 0.5440
C8 C 0.3928(15) 0.3155(5) 0.4798(12)
H6 H 0.3614 0.3562 0.4693
C9 C 0.2826(12) 0.2700(5) 0.4484(9)
H7 H 0.1762 0.2789 0.4125
C10 C 0.3358(10) 0.2091(4) 0.4726(8)
H8 H 0.2622 0.1775 0.4540
C11 C 0.5165(7) 0.0890(3) 0.2711(6)
C12 C 0.4228(7) 0.0713(3) 0.1301(6)
C13 C 0.4826(8) 0.0830(3) 0.0145(6)
H9 H 0.5811 0.1015 0.0256
C14 C 0.3976(8) 0.0677(3) -0.1136(6)
C15 C 0.2519(9) 0.0392(3) -0.1312(6)
H10 H 0.1954 0.0277 -0.2181
C16 C 0.1898(8) 0.0279(3) -0.0173(6)
C17 C 0.2745(7) 0.0443(3) 0.1131(6)
H11 H 0.2325 0.0373 0.1884
C18 C 0.4643(16) 0.0812(4) -0.2373(10)
N1 N 0.7854(6) 0.1611(2) 0.6022(5)
N2 N 0.4880(7) 0.1955(3) 0.5212(5)
N3 N 0.0403(7) -0.0027(3) -0.0431(6)
O1 O 0.6460(6) 0.1140(3) 0.2842(6)
O2 O 0.4544(6) 0.0768(2) 0.3699(4)
O3 O 0.5974(11) 0.1027(3) -0.2183(8)
O4 O 0.3801(12) 0.0690(3) -0.3531(7)
O5 O 0.0257(15) -0.0397(9) -0.1487(16)
O6 O 0.7135(6) 0.0228(2) 0.5738(5)
H12 H 0.7452 0.0174 0.5044
H13 H 0.6623 -0.0069 0.6008
C11B C -0.5165(7) -0.0890(3) -0.2711(6)
C12B C -0.4228(7) -0.0713(3) -0.1301(6)
C13B C -0.4826(8) -0.0830(3) -0.0145(6)
H9B H -0.5811 -0.1015 -0.0256
C14B C -0.3976(8) -0.0677(3) 0.1136(6)
C15B C -0.2519(9) -0.0392(3) 0.1312(6)
H10B H -0.1954 -0.0277 0.2181
C16B C -0.1898(8) -0.0279(3) 0.0173(6)
C17B C -0.2745(7) -0.0443(3) -0.1131(6)
H11B H -0.2325 -0.0373 -0.1884
C18B C -0.4643(16) -0.0812(4) 0.2373(10)
N3B N -0.0403(7) 0.0027(3) 0.0431(6)
O1B O -0.6460(6) -0.1140(3) -0.2842(6)
O2B O -0.4544(6) -0.0768(2) -0.3699(4)
O3B O -0.5974(11) -0.1027(3) 0.2183(8)
O4B O -0.3801(12) -0.0690(3) 0.3531(7)
O5B O -0.0257(15) 0.0397(9) 0.1487(16)
Zn1B Zn -0.58230(8) -0.10551(3) -0.55539(6)
C1B C -0.9347(9) -0.1404(4) -0.6465(8)
H1B H -0.9515 -0.0983 -0.6511
C2B C -1.0634(10) -0.1784(4) -0.6850(9)
H2B H -1.1650 -0.1625 -0.7138
C3B C -1.0384(10) -0.2398(5) -0.6802(9)
H3B H -1.1230 -0.2666 -0.7072
C4B C -0.8878(11) -0.2618(4) -0.6351(9)
H4B H -0.8695 -0.3037 -0.6301
C5B C -0.7619(8) -0.2209(3) -0.5967(6)
C6B C -0.5953(9) -0.2408(3) -0.5471(7)
C7B C -0.5472(14) -0.3013(4) -0.5260(10)
H5B H -0.6223 -0.3324 -0.5440
C8B C -0.3928(15) -0.3155(5) -0.4798(12)
H6B H -0.3614 -0.3562 -0.4693
C9B C -0.2826(12) -0.2700(5) -0.4484(9)
H7B H -0.1762 -0.2789 -0.4125
C10B C -0.3358(10) -0.2091(4) -0.4726(8)
H8B H -0.2622 -0.1775 -0.4540
N1B N -0.7854(6) -0.1611(2) -0.6022(5)
N2B N -0.4880(7) -0.1955(3) -0.5212(5)
O6B O -0.7135(6) -0.0228(2) -0.5738(5)
H12B H -0.7452 -0.0174 -0.5044
H13B H -0.6623 0.0069 -0.6008
Zn1_2 Zn 0.58230(8) 0.10551(3) -0.44461(6)
Zn1B_2 Zn -0.58230(8) -0.10551(3) 0.44461(6)
O3_2 O 0.5974(11) 0.1027(3) 0.7817(8)
O3B_2 O -0.5974(11) -0.1027(3) -0.7817(8)
O4_2 O 0.3801(12) 0.0690(3) 0.6469(7)
O4B_2 O -0.3801(12) -0.0690(3) -0.6469(7)
O7 O 0.0345(13) 0.8566(16) 0.6777(13)
H14 H 0.0281 0.8908 0.7157
H15 H 0.0701 0.8204 0.6775
loop_
_geom_bond_atom_site_label_1
_geom_bond_atom_site_label_2
_geom_bond_site_symmetry_1
_geom_bond_site_symmetry_2
Zn1 N1 1_555 1_555
C1 H1 1_555 1_555
C2 C1 1_555 1_555
H2 C2 1_555 1_555
C3 C2 1_555 1_555
H3 C3 1_555 1_555
C4 C3 1_555 1_555
H4 C4 1_555 1_555
C5 C4 1_555 1_555
C6 C5 1_555 1_555
C7 C6 1_555 1_555
H5 C7 1_555 1_555
C8 C7 1_555 1_555
H6 C8 1_555 1_555
C9 C8 1_555 1_555
H7 C9 1_555 1_555
C10 C9 1_555 1_555
H8 C10 1_555 1_555
C11 C12 1_555 1_555
C12 C13 1_555 1_555
C13 H9 1_555 1_555
C14 C13 1_555 1_555
C15 C14 1_555 1_555
H10 C15 1_555 1_555
C16 C15 1_555 1_555
C17 C12 1_555 1_555
H11 C17 1_555 1_555
C18 C14 1_555 1_555
N1 C1 1_555 1_555
N2 Zn1 1_555 1_555
N3 C16 1_555 1_555
O1 C11 1_555 1_555
O2 Zn1 1_555 1_555
O3 C18 1_555 1_555
O4 C18 1_555 1_555
O5 N3 1_555 1_555
O6 Zn1 1_555 1_555
H12 O6 1_555 1_555
H13 O6 1_555 1_555
O7 H14 1_555 1_555
H15 O7 1_555 1_555
C11B C12B 1_555 1_555
C12B C13B 1_555 1_555
C13B H9B 1_555 1_555
C14B C13B 1_555 1_555
C15B C14B 1_555 1_555
H10B C15B 1_555 1_555
C16B C15B 1_555 1_555
C17B C12B 1_555 1_555
H11B C17B 1_555 1_555
C18B C14B 1_555 1_555
N3B N3 1_555 1_555
O1B C11B 1_555 1_555
O2B C11B 1_555 1_555
O3B C18B 1_555 1_555
O4B C18B 1_555 1_555
O5B N3B 1_555 1_555
Zn1B O2B 1_555 1_555
C1B H1B 1_555 1_555
C2B C1B 1_555 1_555
H2B C2B 1_555 1_555
C3B C2B 1_555 1_555
H3B C3B 1_555 1_555
C4B C3B 1_555 1_555
H4B C4B 1_555 1_555
C5B C4B 1_555 1_555
C6B C5B 1_555 1_555
C7B C6B 1_555 1_555
H5B C7B 1_555 1_555
C8B C7B 1_555 1_555
H6B C8B 1_555 1_555
C9B C8B 1_555 1_555
H7B C9B 1_555 1_555
C10B C9B 1_555 1_555
H8B C10B 1_555 1_555
N1B Zn1B 1_555 1_555
N2B Zn1B 1_555 1_555
O6B Zn1B 1_555 1_555
H12B O6B 1_555 1_555
H13B O6B 1_555 1_555
Zn1_2 O3 1_555 1_555
Zn1B_2 O3B 1_555 1_555
O3_2 Zn1 1_555 1_555
O3B_2 Zn1B 1_555 1_555
O4_2 Zn1 1_555 1_555
O4B_2 Zn1B 1_555 1_555
C5 N1 1_555 1_555
C6 N2 1_555 1_555
C10 N2 1_555 1_555
C11 O2 1_555 1_555
C16 C17 1_555 1_555
O4 Zn1_2 1_555 1_555
C16B C17B 1_555 1_555
C16B N3B 1_555 1_555
O4B Zn1B_2 1_555 1_555
C1B N1B 1_555 1_555
C5B N1B 1_555 1_555
C6B N2B 1_555 1_555
C10B N2B 1_555 1_555

#END
