
#######################################################################
#
#                 Cambridge Crystallographic Data Centre
#                                CCDC 
#
#######################################################################
#
# If this CIF has been generated from an entry in the Cambridge 
# Structural Database, then it will include bibliographic, chemical, 
# crystal, experimental, refinement or atomic coordinate data resulting 
# from the CCDC's data processing and validation procedures.
#
#######################################################################

data_VIDKOI
_symmetry_cell_setting           orthorhombic
_symmetry_space_group_name_H-M   'P 21 21 2'
_symmetry_Int_Tables_number      18
_space_group_name_Hall           'P 2 2ab'
loop_
_symmetry_equiv_pos_site_id
_symmetry_equiv_pos_as_xyz
1 x,y,z
2 1/2+x,1/2-y,-z
3 1/2-x,1/2+y,-z
4 -x,-y,z
_cell_length_a                   14.199(4)
_cell_length_b                   15.550(4)
_cell_length_c                   10.575(3)
_cell_angle_alpha                90
_cell_angle_beta                 90
_cell_angle_gamma                90
_cell_volume                     2334.9
loop_
_atom_site_label
_atom_site_type_symbol
_atom_site_fract_x
_atom_site_fract_y
_atom_site_fract_z
Cd1 Cd 0.1136(1) 0.4326(1) 0.3977(1)
Cl1 Cl 0.2863(3) 0.4520(3) 0.4311(4)
Cl2 Cl -0.0746(3) 0.4145(3) 0.3356(5)
S1 S 0.0687(3) 0.3853(3) 0.6268(4)
S2 S 0.3670(3) 0.5148(3) 0.8961(6)
S3 S 0.3258(5) 0.4846(4) 1.0799(6)
S4 S 0.6492(3) 0.2115(3) 0.7178(5)
S5 S 0.3655(4) 0.2797(4) 1.0508(5)
S6 S 0.4124(5) 0.3899(5) 1.1387(5)
N1 N 0.2460(8) 0.3329(8) 0.6985(12)
N2 N 0.2109(9) 0.4621(9) 0.7601(14)
N3 N 0.4784(9) 0.2925(9) 0.7148(13)
N4 N 0.5185(8) 0.2418(8) 0.8943(13)
C1 C 0.1772(12) 0.3942(9) 0.6894(16)
C2 C 0.3009(11) 0.4435(12) 0.8070(18)
C3 C 0.3212(13) 0.3624(11) 0.7669(15)
C4 C 0.2375(12) 0.2466(10) 0.6427(15)
C5 C 0.1898(15) 0.1833(11) 0.7288(18)
C6 C 0.1574(12) 0.5441(9) 0.7764(17)
C7 C 0.1883(14) 0.6082(11) 0.6755(21)
C8 C 0.5462(12) 0.2499(11) 0.7753(18)
C9 C 0.4306(11) 0.2800(11) 0.9086(18)
C10 C 0.4055(10) 0.3135(11) 0.7986(15)
C11 C 0.4798(13) 0.3149(12) 0.5779(18)
C12 C 0.5394(16) 0.3892(15) 0.5526(23)
C13 C 0.5688(14) 0.1972(12) 0.9981(18)
C14 C 0.5468(18) 0.0994(15) 0.9903(21)
H1 H 0.2001 0.2513 0.5628
H2 H 0.3019 0.2244 0.6228
H3 H 0.1855 0.1261 0.6861
H4 H 0.1250 0.2045 0.7489
H5 H 0.2268 0.1775 0.8089
H6 H 0.0885 0.5321 0.7676
H7 H 0.1701 0.5688 0.8620
H8 H 0.1522 0.6630 0.6857
H9 H 0.1755 0.5834 0.5900
H10 H 0.2572 0.6201 0.6843
H11 H 0.4142 0.3264 0.5480
H12 H 0.5068 0.2654 0.5296
H13 H 0.5408 0.4037 0.4605
H14 H 0.6050 0.3775 0.5827
H15 H 0.5124 0.4385 0.6011
H16 H 0.6381 0.2068 0.9889
H17 H 0.5472 0.2202 1.0815
H18 H 0.5806 0.0687 1.0598
H19 H 0.5683 0.0766 0.9067
H20 H 0.4774 0.0900 0.9993
Cl2C Cl 0.0746(3) 0.5855(3) 0.3356(5)
S4A S 0.1492(3) 0.2885(3) 0.2822(5)
Cd1C Cd -0.1136(1) 0.5674(1) 0.3977(1)
Cd1A Cd 0.6136(1) 0.0674(1) 0.6023(1)
loop_
_geom_bond_atom_site_label_1
_geom_bond_atom_site_label_2
_geom_bond_site_symmetry_1
_geom_bond_site_symmetry_2
Cd1 Cl1 1_555 1_555
Cl2 Cd1 1_555 1_555
S1 Cd1 1_555 1_555
S2 S3 1_555 1_555
S3 S6 1_555 1_555
S4 C8 1_555 1_555
S5 S6 1_555 1_555
N1 C1 1_555 1_555
N2 C1 1_555 1_555
N3 C8 1_555 1_555
N4 C8 1_555 1_555
C1 S1 1_555 1_555
C2 S2 1_555 1_555
C3 N1 1_555 1_555
C4 N1 1_555 1_555
C5 C4 1_555 1_555
C6 N2 1_555 1_555
C7 C6 1_555 1_555
C9 S5 1_555 1_555
C10 N3 1_555 1_555
C11 N3 1_555 1_555
C12 C11 1_555 1_555
C13 N4 1_555 1_555
C14 C13 1_555 1_555
H1 C4 1_555 1_555
H2 C4 1_555 1_555
H3 C5 1_555 1_555
H4 C5 1_555 1_555
H5 C5 1_555 1_555
H6 C6 1_555 1_555
H7 C6 1_555 1_555
H8 C7 1_555 1_555
H9 C7 1_555 1_555
H10 C7 1_555 1_555
H11 C11 1_555 1_555
H12 C11 1_555 1_555
H13 C12 1_555 1_555
H14 C12 1_555 1_555
H15 C12 1_555 1_555
H16 C13 1_555 1_555
H17 C13 1_555 1_555
H18 C14 1_555 1_555
H19 C14 1_555 1_555
H20 C14 1_555 1_555
Cl2C Cd1 1_555 1_555
S4A Cd1 1_555 1_555
Cd1C Cl2 1_555 1_555
Cd1A S4 1_555 1_555
N2 C2 1_555 1_555
N4 C9 1_555 1_555
C2 C3 1_555 1_555
C3 C10 1_555 1_555
C9 C10 1_555 1_555
Cl2C Cd1C 1_555 1_555

#END
