
#######################################################################
#
#                 Cambridge Crystallographic Data Centre
#                                CCDC 
#
#######################################################################
#
# If this CIF has been generated from an entry in the Cambridge 
# Structural Database, then it will include bibliographic, chemical, 
# crystal, experimental, refinement or atomic coordinate data resulting 
# from the CCDC's data processing and validation procedures.
#
#######################################################################

data_VIDLIF
_symmetry_cell_setting           orthorhombic
_symmetry_space_group_name_H-M   'P b c a'
_symmetry_Int_Tables_number      61
_space_group_name_Hall           '-P 2ac 2ab'
loop_
_symmetry_equiv_pos_site_id
_symmetry_equiv_pos_as_xyz
1 x,y,z
2 1/2-x,-y,1/2+z
3 -x,1/2+y,1/2-z
4 1/2+x,1/2-y,-z
5 -x,-y,-z
6 1/2+x,y,1/2-z
7 x,1/2-y,1/2+z
8 1/2-x,1/2+y,z
_cell_length_a                   15.6297(18)
_cell_length_b                   9.4803(11)
_cell_length_c                   18.598(2)
_cell_angle_alpha                90
_cell_angle_beta                 90
_cell_angle_gamma                90
_cell_volume                     2755.74
loop_
_atom_site_label
_atom_site_type_symbol
_atom_site_fract_x
_atom_site_fract_y
_atom_site_fract_z
Pb1 Pb 0.212563(11) 0.176679(19) 0.288522(10)
C1 C 0.6189(3) 0.4037(5) 0.4273(3)
C2 C 0.5941(3) 0.4480(4) 0.3602(3)
C3 C 0.5085(3) 0.4320(4) 0.3393(3)
C4 C 0.4506(3) 0.3716(5) 0.3887(2)
C5 C 0.4808(3) 0.3287(4) 0.4554(3)
C6 C 0.7105(3) 0.4105(7) 0.4529(3)
H1 H 0.7120 0.4021 0.5043
H2 H 0.7352 0.4990 0.4389
H3 H 0.7425 0.3347 0.4317
C7 C 0.3566(3) 0.3537(5) 0.3695(3)
C8 C 0.4235(3) 0.2604(6) 0.5098(3)
H4 H 0.4360 0.1614 0.5123
H5 H 0.3649 0.2734 0.4959
H6 H 0.4329 0.3026 0.5560
C9 C 0.4781(3) 0.4769(5) 0.2677(3)
O1 O 0.4167(2) 0.3900(3) 0.23836(19)
C10 C 0.3960(3) 0.4468(5) 0.1735(3)
H7 H 0.3561 0.4087 0.1419
C11 C 0.4408(3) 0.5645(6) 0.1613(3)
H8 H 0.4375 0.6229 0.1212
C12 C 0.6606(3) 0.5104(5) 0.3082(3)
C13 C 0.1194(5) 0.4060(8) 0.4217(5)
H9 H 0.1605 0.4129 0.4600
H10 H 0.0634 0.4271 0.4400
H11 H 0.1338 0.4720 0.3845
N1 N 0.5633(3) 0.3459(4) 0.4746(2)
O2 O 0.3324(2) 0.2287(4) 0.3579(2)
O3 O 0.6936(2) 0.4340(4) 0.2629(2)
O4 O 0.1202(3) 0.2706(5) 0.3940(3)
C14 C 0.4947(3) 0.5820(6) 0.2229(3)
H12 H 0.5342 0.6540 0.2302
O5 O 0.3106(2) 0.4598(4) 0.3681(2)
O6 O 0.6802(2) 0.6377(4) 0.3174(2)
H13 H 0.102(4) 0.214(7) 0.428(4)
Pb1B Pb 0.787437(11) 0.676679(19) 0.211478(10)
Pb1E Pb 0.712563(11) 0.176679(19) 0.211478(10)
Pb1G Pb 0.287437(11) 0.676679(19) 0.288522(10)
O3B O 0.3064(2) -0.0660(4) 0.2371(2)
O3E O 0.1936(2) 0.4340(4) 0.2371(2)
O5G O 0.1894(2) -0.0402(4) 0.3681(2)
O6B O 0.3198(2) 0.1377(4) 0.1826(2)
loop_
_geom_bond_atom_site_label_1
_geom_bond_atom_site_label_2
_geom_bond_site_symmetry_1
_geom_bond_site_symmetry_2
Pb1 O2 1_555 1_555
C1 C2 1_555 1_555
C2 C3 1_555 1_555
C3 C4 1_555 1_555
C4 C5 1_555 1_555
C5 C8 1_555 1_555
C6 C1 1_555 1_555
H1 C6 1_555 1_555
H2 C6 1_555 1_555
H3 C6 1_555 1_555
C7 C4 1_555 1_555
C8 H4 1_555 1_555
H5 C8 1_555 1_555
H6 C8 1_555 1_555
C9 C3 1_555 1_555
O1 C9 1_555 1_555
C10 O1 1_555 1_555
H7 C10 1_555 1_555
C11 C10 1_555 1_555
H8 C11 1_555 1_555
C12 C2 1_555 1_555
C13 H9 1_555 1_555
H10 C13 1_555 1_555
H11 C13 1_555 1_555
N1 C1 1_555 1_555
O2 C7 1_555 1_555
O3 C12 1_555 1_555
O4 Pb1 1_555 1_555
C14 C9 1_555 1_555
H12 C14 1_555 1_555
O5 C7 1_555 1_555
O6 C12 1_555 1_555
H13 O4 1_555 1_555
Pb1B O3 1_555 1_555
Pb1E O3 1_555 1_555
Pb1G O5 1_555 1_555
O3B Pb1 1_555 1_555
O3E Pb1 1_555 1_555
O5G Pb1 1_555 1_555
O6B Pb1 1_555 1_555
C5 N1 1_555 1_555
C11 C14 1_555 1_555
C13 O4 1_555 1_555
O6 Pb1B 1_555 1_555
Pb1G O3E 1_555 1_555

#END
