
#######################################################################
#
#                 Cambridge Crystallographic Data Centre
#                                CCDC 
#
#######################################################################
#
# If this CIF has been generated from an entry in the Cambridge 
# Structural Database, then it will include bibliographic, chemical, 
# crystal, experimental, refinement or atomic coordinate data resulting 
# from the CCDC's data processing and validation procedures.
#
#######################################################################

data_VIDRAD
_symmetry_cell_setting           monoclinic
_symmetry_space_group_name_H-M   'P 21/n'
_symmetry_Int_Tables_number      14
_space_group_name_Hall           '-P 2yn'
loop_
_symmetry_equiv_pos_site_id
_symmetry_equiv_pos_as_xyz
1 x,y,z
2 1/2-x,1/2+y,1/2-z
3 -x,-y,-z
4 1/2+x,1/2-y,1/2+z
_cell_length_a                   16.931(3)
_cell_length_b                   9.908(2)
_cell_length_c                   21.471(4)
_cell_angle_alpha                90
_cell_angle_beta                 108.61(3)
_cell_angle_gamma                90
_cell_volume                     3413.48
loop_
_atom_site_label
_atom_site_type_symbol
_atom_site_fract_x
_atom_site_fract_y
_atom_site_fract_z
Cd1 Cd 0.86538(3) -0.17793(5) 0.81421(2)
C1 C 0.7565(4) -0.0372(6) 0.8615(3)
C2 C 0.6882(4) 0.0076(6) 0.8878(3)
C3 C 0.6832(5) -0.0507(8) 0.9453(3)
H1 H 0.7255 -0.1075 0.9697
C4 C 0.6154(5) -0.0245(9) 0.9666(4)
H2 H 0.6126 -0.0640 1.0051
C5 C 0.5522(5) 0.0596(9) 0.9310(4)
H3 H 0.5070 0.0772 0.9455
C6 C 0.5568(4) 0.1178(8) 0.8734(3)
H4 H 0.5140 0.1738 0.8491
C7 C 0.6245(4) 0.0938(6) 0.8516(3)
C8 C 0.6283(4) 0.1660(6) 0.7914(3)
C9 C 0.8859(4) 0.0500(7) 0.7117(3)
H5 H 0.8576 -0.0144 0.6812
C10 C 0.9037(4) 0.1712(7) 0.6892(3)
H6 H 0.8878 0.1885 0.6443
C11 C 0.9456(4) 0.2679(7) 0.7338(3)
H7 H 0.9586 0.3511 0.7195
C12 C 0.9679(4) 0.2388(6) 0.8001(3)
C13 C 0.9468(4) 0.1139(6) 0.8184(3)
H8 H 0.9610 0.0947 0.8630
C14 C 1.0094(4) 0.3374(6) 0.8513(3)
C15 C 1.0699(4) 0.4313(6) 0.9423(3)
C16 C 1.1082(4) 0.4535(6) 1.0133(3)
C17 C 1.1186(4) 0.3476(6) 1.0565(3)
H9 H 1.1037 0.2617 1.0393
C18 C 1.1325(4) 0.5812(7) 1.0396(3)
H10 H 1.1270 0.6556 1.0122
C19 C 1.1647(4) 0.5956(7) 1.1065(3)
H11 H 1.1811 0.6801 1.1249
C20 C 1.1725(4) 0.4840(7) 1.1462(3)
H12 H 1.1949 0.4948 1.1915
N1 N 0.9075(3) 0.0195(5) 0.7759(2)
N2 N 1.0465(3) 0.3083(5) 0.9153(2)
N3 N 1.0129(3) 0.4694(5) 0.8414(2)
N4 N 1.0502(3) 0.5331(5) 0.9002(2)
N5 N 1.1490(3) 0.3609(5) 1.1221(2)
O1 O 0.7366(3) -0.0783(5) 0.8035(2)
O2 O 0.8306(3) -0.0419(5) 0.9003(2)
O3 O 0.6921(3) 0.2291(5) 0.7924(2)
O4 O 0.5638(3) 0.1671(5) 0.7416(2)
O5 O 1.0071(3) -0.1816(5) 0.8876(3)
H13 H 0.9951 0.5256 0.8055
H14 H 1.0198 -0.1442 0.9250
H15 H 1.0448 -0.2256 0.8771
Cd1A Cd 0.63462(3) 0.32207(5) 0.68579(2)
Cd1B Cd 1.13462(3) 0.17793(5) 1.18579(2)
N5B N 0.8510(3) -0.3609(5) 0.8779(2)
O3A O 0.8079(3) -0.2709(5) 0.7076(2)
O4A O 0.9362(3) -0.3329(5) 0.7584(2)
C21 C 0.0656(6) 0.0155(10) 0.6299(5)
H16 H 0.0447 -0.0583 0.6029
C22 C 0.0560(6) 0.1424(10) 0.6021(5)
H17 H 0.0278 0.1536 0.5575
C23 C 0.0888(5) 0.2540(9) 0.6415(4)
H18 H 0.0844 0.3402 0.6236
C24 C 0.1283(5) 0.2325(8) 0.7082(4)
C25 C 0.1345(5) 0.1016(9) 0.7318(4)
H19 H 0.1616 0.0873 0.7764
C26 C 0.1583(4) 0.3446(8) 0.7533(4)
C27 C 0.2104(4) 0.4544(8) 0.8416(4)
C28 C 0.2531(4) 0.4990(8) 0.9091(4)
C29 C 0.2568(5) 0.6319(9) 0.9277(4)
H20 H 0.2308 0.6978 0.8972
C30 C 0.2994(6) 0.6677(10) 0.9919(4)
H21 H 0.3014 0.7568 1.0059
C31 C 0.3389(6) 0.5661(11) 1.0345(5)
H22 H 0.3695 0.5902 1.0772
C32 C 0.2941(6) 0.4048(9) 0.9566(4)
H23 H 0.2919 0.3145 0.9443
N6 N 0.1035(5) -0.0058(7) 0.6938(4)
N7 N 0.1366(4) 0.4720(6) 0.7367(3)
N8 N 0.1711(4) 0.5431(6) 0.7928(3)
N9 N 0.2038(4) 0.3296(6) 0.8181(3)
N10 N 0.3362(5) 0.4368(9) 1.0186(4)
H24 H 0.1551 0.6342 0.7979
O6 O 0.0993(5) 0.0234(8) 0.9637(3)
H25 H 0.0844 0.1052 0.9500
H26 H 0.1206 0.0306 1.0051
O7 O 0.1552(5) 0.6409(7) 0.6289(3)
H27 H 0.1966 0.6951 0.6445
H28 H 0.1506 0.5922 0.6603
O8 O 0.1245(5) 0.8012(7) 0.7914(4)
H29 H 0.1170 0.8608 0.7608
H30 H 0.0788 0.7589 0.7892
O9 O 0.2140(9) 0.9487(13) 0.8925(6)
H31 H 0.1806 0.9704 0.9132
H32 H 0.2503 1.0016 0.8863
loop_
_geom_bond_atom_site_label_1
_geom_bond_atom_site_label_2
_geom_bond_site_symmetry_1
_geom_bond_site_symmetry_2
Cd1 N1 1_555 1_555
C1 C2 1_555 1_555
C2 C3 1_555 1_555
C3 H1 1_555 1_555
C4 C3 1_555 1_555
H2 C4 1_555 1_555
C5 C4 1_555 1_555
H3 C5 1_555 1_555
C6 C5 1_555 1_555
H4 C6 1_555 1_555
C7 C2 1_555 1_555
C8 C7 1_555 1_555
C9 H5 1_555 1_555
C10 C9 1_555 1_555
H6 C10 1_555 1_555
C11 C10 1_555 1_555
H7 C11 1_555 1_555
C12 C11 1_555 1_555
C13 C12 1_555 1_555
H8 C13 1_555 1_555
C14 C12 1_555 1_555
C15 C16 1_555 1_555
C16 C17 1_555 1_555
C17 H9 1_555 1_555
C18 C16 1_555 1_555
H10 C18 1_555 1_555
C19 C18 1_555 1_555
H11 C19 1_555 1_555
C20 C19 1_555 1_555
H12 C20 1_555 1_555
N1 C9 1_555 1_555
N2 C14 1_555 1_555
N3 C14 1_555 1_555
N4 C15 1_555 1_555
N5 C17 1_555 1_555
O1 Cd1 1_555 1_555
O2 Cd1 1_555 1_555
O3 C8 1_555 1_555
O4 C8 1_555 1_555
O5 Cd1 1_555 1_555
H13 N3 1_555 1_555
H14 O5 1_555 1_555
H15 O5 1_555 1_555
C21 H16 1_555 1_555
C22 C21 1_555 1_555
H17 C22 1_555 1_555
C23 C22 1_555 1_555
H18 C23 1_555 1_555
C24 C23 1_555 1_555
C25 C24 1_555 1_555
H19 C25 1_555 1_555
C26 C24 1_555 1_555
C27 C28 1_555 1_555
C28 C29 1_555 1_555
C29 H20 1_555 1_555
C30 C29 1_555 1_555
H21 C30 1_555 1_555
C31 C30 1_555 1_555
H22 C31 1_555 1_555
C32 C28 1_555 1_555
H23 C32 1_555 1_555
N6 C21 1_555 1_555
N7 C26 1_555 1_555
N8 C27 1_555 1_555
N9 C26 1_555 1_555
N10 C31 1_555 1_555
H24 N8 1_555 1_555
O6 H25 1_555 1_555
H26 O6 1_555 1_555
O7 H27 1_555 1_555
H28 O7 1_555 1_555
O8 H29 1_555 1_555
H30 O8 1_555 1_555
O9 H31 1_555 1_555
H32 O9 1_555 1_555
Cd1A O3 1_555 1_555
Cd1B N5 1_555 1_555
N5B Cd1 1_555 1_555
O3A Cd1 1_555 1_555
O4A Cd1 1_555 1_555
C1 O1 1_555 1_555
C1 O2 1_555 1_555
C6 C7 1_555 1_555
C13 N1 1_555 1_555
C15 N2 1_555 1_555
C20 N5 1_555 1_555
N3 N4 1_555 1_555
O4 Cd1A 1_555 1_555
C25 N6 1_555 1_555
C27 N9 1_555 1_555
C32 N10 1_555 1_555
N7 N8 1_555 1_555

#END
