
#######################################################################
#
#                 Cambridge Crystallographic Data Centre
#                                CCDC 
#
#######################################################################
#
# If this CIF has been generated from an entry in the Cambridge 
# Structural Database, then it will include bibliographic, chemical, 
# crystal, experimental, refinement or atomic coordinate data resulting 
# from the CCDC's data processing and validation procedures.
#
#######################################################################

data_VIDROR
_symmetry_cell_setting           triclinic
_symmetry_space_group_name_H-M   'P -1'
_symmetry_Int_Tables_number      2
_space_group_name_Hall           '-P 1'
loop_
_symmetry_equiv_pos_site_id
_symmetry_equiv_pos_as_xyz
1 x,y,z
2 -x,-y,-z
_cell_length_a                   9.985(2)
_cell_length_b                   10.440(2)
_cell_length_c                   11.511(2)
_cell_angle_alpha                93.48(3)
_cell_angle_beta                 97.29(3)
_cell_angle_gamma                100.15(3)
_cell_volume                     1167.37
loop_
_atom_site_label
_atom_site_type_symbol
_atom_site_fract_x
_atom_site_fract_y
_atom_site_fract_z
Cd1 Cd 0.53695(2) 0.88262(2) 0.369059(18)
C1 C 0.5424(3) 0.6863(3) 0.2030(3)
C2 C 0.5216(3) 0.5892(3) 0.0983(3)
C3 C 0.6290(4) 0.5749(3) 0.0362(3)
C4 C 0.3921(4) 0.5143(3) 0.0618(3)
C5 C 0.3102(3) 0.8399(3) 0.5645(3)
C6 C 0.2407(3) 0.7077(3) 0.5921(3)
C7 C 0.2200(4) 0.6004(3) 0.5105(3)
H1 H 0.2441 0.6104 0.4357
C8 C 0.1632(4) 0.4779(3) 0.5408(3)
H2 H 0.1504 0.4057 0.4863
C9 C 0.1256(4) 0.4625(3) 0.6515(3)
C10 C 0.1448(5) 0.5701(4) 0.7329(4)
H3 H 0.1195 0.5603 0.8073
C11 C 0.2018(4) 0.6920(4) 0.7027(3)
H4 H 0.2142 0.7642 0.7571
C12 C 0.0685(4) 0.3325(4) 0.6896(4)
C13 C 0.2641(4) 0.8582(4) 0.1888(3)
H5 H 0.2389 0.7957 0.2401
C14 C 0.1754(4) 0.8619(4) 0.0872(3)
H6 H 0.0930 0.8024 0.0705
C15 C 0.2109(3) 0.9557(3) 0.0103(3)
C16 C 0.3335(4) 1.0434(4) 0.0399(3)
H7 H 0.3595 1.1089 -0.0085
C17 C 0.4172(4) 1.0314(4) 0.1438(3)
H8 H 0.4999 1.0901 0.1632
C18 C 0.1166(3) 0.9548(3) -0.0982(3)
C19 C -0.0466(3) 0.9033(3) -0.2359(3)
C20 C -0.1736(3) 0.8301(3) -0.3044(3)
C21 C -0.2329(3) 0.8743(3) -0.4072(3)
H9 H -0.1904 0.9522 -0.4325
C22 C -0.2400(4) 0.7140(4) -0.2681(3)
H10 H -0.2043 0.6827 -0.1991
C23 C -0.3580(4) 0.6454(4) -0.3338(3)
H11 H -0.4025 0.5670 -0.3107
C24 C -0.4087(4) 0.6950(3) -0.4342(3)
H12 H -0.4881 0.6484 -0.4792
N1 N 0.3847(3) 0.9402(3) 0.2167(2)
N2 N 0.0035(3) 0.8671(3) -0.1305(2)
N3 N 0.1335(3) 1.0405(3) -0.1799(2)
N4 N 0.0286(3) 1.0086(3) -0.2700(2)
N5 N -0.3483(3) 0.8085(3) -0.4703(2)
O1 O 0.4599(3) 0.6703(2) 0.2770(2)
O2 O 0.6388(3) 0.7839(2) 0.2125(2)
O3 O 0.3484(3) 0.8527(2) 0.4660(2)
O4 O 0.3262(3) 0.9308(2) 0.6451(2)
O5 O 0.0556(3) 0.2339(2) 0.6084(3)
O6 O 0.0376(4) 0.3181(3) 0.7863(3)
H13 H 0.212(6) 1.106(5) -0.178(5)
H14 H 0.322(4) 0.526(4) 0.103(3)
H15 H 0.712(4) 0.627(4) 0.055(4)
C1A C 0.4576(3) 0.3137(3) -0.2030(3)
C2A C 0.4784(3) 0.4108(3) -0.0983(3)
C3A C 0.3710(4) 0.4251(3) -0.0362(3)
C4A C 0.6079(4) 0.4857(3) -0.0618(3)
O1A O 0.5401(3) 0.3297(2) -0.2770(2)
O2A O 0.3612(3) 0.2161(2) -0.2125(2)
H14A H 0.678(4) 0.474(4) -0.103(3)
H15A H 0.288(4) 0.373(4) -0.055(4)
Cd1A Cd 0.46305(2) 0.11738(2) -0.369059(18)
C5A C 0.6898(3) 0.1601(3) -0.5645(3)
C6A C 0.7593(3) 0.2923(3) -0.5921(3)
C7A C 0.7800(4) 0.3996(3) -0.5105(3)
H1A H 0.7559 0.3896 -0.4357
C8A C 0.8368(4) 0.5221(3) -0.5408(3)
H2A H 0.8496 0.5943 -0.4863
C9A C 0.8744(4) 0.5375(3) -0.6515(3)
C10A C 0.8552(5) 0.4299(4) -0.7329(4)
H3A H 0.8805 0.4397 -0.8073
C11A C 0.7982(4) 0.3080(4) -0.7027(3)
H4A H 0.7858 0.2358 -0.7571
C12A C 0.9315(4) 0.6675(4) -0.6896(4)
C13A C 0.7359(4) 0.1418(4) -0.1888(3)
H5A H 0.7611 0.2043 -0.2401
C14A C 0.8246(4) 0.1381(4) -0.0872(3)
H6A H 0.9070 0.1976 -0.0705
C15A C 0.7891(3) 0.0443(3) -0.0103(3)
C16A C 0.6665(4) -0.0434(4) -0.0399(3)
H7A H 0.6405 -0.1089 0.0085
C17A C 0.5828(4) -0.0314(4) -0.1438(3)
H8A H 0.5001 -0.0901 -0.1632
C18A C 0.8834(3) 0.0452(3) 0.0982(3)
C19A C 1.0466(3) 0.0967(3) 0.2359(3)
C20A C 1.1736(3) 0.1699(3) 0.3044(3)
C21A C 1.2329(3) 0.1257(3) 0.4072(3)
H9A H 1.1904 0.0478 0.4325
C22A C 1.2400(4) 0.2860(4) 0.2681(3)
H10A H 1.2043 0.3173 0.1991
C23A C 1.3580(4) 0.3546(4) 0.3338(3)
H11A H 1.4025 0.4330 0.3107
C24A C 1.4087(4) 0.3050(3) 0.4342(3)
H12A H 1.4881 0.3516 0.4792
N1A N 0.6153(3) 0.0598(3) -0.2167(2)
N2A N 0.9965(3) 0.1329(3) 0.1305(2)
N3A N 0.8665(3) -0.0405(3) 0.1799(2)
N4A N 0.9714(3) -0.0086(3) 0.2700(2)
N5A N 1.3483(3) 0.1915(3) 0.4703(2)
O3A O 0.6516(3) 0.1473(2) -0.4660(2)
O4A O 0.6738(3) 0.0692(2) -0.6451(2)
O5A O 0.9444(3) 0.7661(2) -0.6084(3)
O6A O 0.9624(4) 0.6819(3) -0.7863(3)
H13A H 0.788(6) -0.106(5) 0.178(5)
Cd1_2 Cd -0.46305(2) 0.88262(2) -0.630941(18)
Cd1_3 Cd 0.53695(2) -0.11738(2) -0.630941(18)
Cd1A_2 Cd 0.46305(2) 1.11738(2) 0.630941(18)
Cd1A_3 Cd 1.46305(2) 0.11738(2) 0.630941(18)
N5_2 N 0.6517(3) 0.8085(3) 0.5297(2)
N5A_2 N 0.3483(3) 0.1915(3) -0.5297(2)
O4_2 O 0.3262(3) -0.0692(2) -0.3549(2)
O4A_2 O 0.6738(3) 1.0692(2) 0.3549(2)
loop_
_geom_bond_atom_site_label_1
_geom_bond_atom_site_label_2
_geom_bond_site_symmetry_1
_geom_bond_site_symmetry_2
Cd1 N1 1_555 1_555
C1 C2 1_555 1_555
C2 C3 1_555 1_555
C3 H15 1_555 1_555
C4 C2 1_555 1_555
C5 C6 1_555 1_555
C6 C7 1_555 1_555
C7 H1 1_555 1_555
C8 C7 1_555 1_555
H2 C8 1_555 1_555
C9 C8 1_555 1_555
C10 C9 1_555 1_555
H3 C10 1_555 1_555
C11 C6 1_555 1_555
H4 C11 1_555 1_555
C12 C9 1_555 1_555
C13 H5 1_555 1_555
C14 C13 1_555 1_555
H6 C14 1_555 1_555
C15 C14 1_555 1_555
C16 C15 1_555 1_555
H7 C16 1_555 1_555
C17 C16 1_555 1_555
H8 C17 1_555 1_555
C18 C15 1_555 1_555
C19 C20 1_555 1_555
C20 C21 1_555 1_555
C21 H9 1_555 1_555
C22 C20 1_555 1_555
H10 C22 1_555 1_555
C23 C22 1_555 1_555
H11 C23 1_555 1_555
C24 C23 1_555 1_555
H12 C24 1_555 1_555
N1 C13 1_555 1_555
N2 C18 1_555 1_555
N3 C18 1_555 1_555
N4 C19 1_555 1_555
N5 C21 1_555 1_555
O1 Cd1 1_555 1_555
O2 Cd1 1_555 1_555
O3 Cd1 1_555 1_555
O4 C5 1_555 1_555
O5 C12 1_555 1_555
O6 C12 1_555 1_555
H13 N3 1_555 1_555
H14 C4 1_555 1_555
C1A C2A 1_555 1_555
C2A C3A 1_555 1_555
C3A C4 1_555 1_555
C4A C3 1_555 1_555
O1A C1A 1_555 1_555
O2A C1A 1_555 1_555
H14A C4A 1_555 1_555
H15A C3A 1_555 1_555
Cd1A O1A 1_555 1_555
C5A C6A 1_555 1_555
C6A C7A 1_555 1_555
C7A H1A 1_555 1_555
C8A C7A 1_555 1_555
H2A C8A 1_555 1_555
C9A C8A 1_555 1_555
C10A C9A 1_555 1_555
H3A C10A 1_555 1_555
C11A C6A 1_555 1_555
H4A C11A 1_555 1_555
C12A C9A 1_555 1_555
C13A H5A 1_555 1_555
C14A C13A 1_555 1_555
H6A C14A 1_555 1_555
C15A C14A 1_555 1_555
C16A C15A 1_555 1_555
H7A C16A 1_555 1_555
C17A C16A 1_555 1_555
H8A C17A 1_555 1_555
C18A C15A 1_555 1_555
C19A C20A 1_555 1_555
C20A C21A 1_555 1_555
C21A H9A 1_555 1_555
C22A C20A 1_555 1_555
H10A C22A 1_555 1_555
C23A C22A 1_555 1_555
H11A C23A 1_555 1_555
C24A C23A 1_555 1_555
H12A C24A 1_555 1_555
N1A Cd1A 1_555 1_555
N2A C18A 1_555 1_555
N3A C18A 1_555 1_555
N4A C19A 1_555 1_555
N5A C21A 1_555 1_555
O3A Cd1A 1_555 1_555
O4A C5A 1_555 1_555
O5A C12A 1_555 1_555
O6A C12A 1_555 1_555
H13A N3A 1_555 1_555
Cd1_2 N5 1_555 1_555
Cd1_3 O4A 1_555 1_555
Cd1A_2 O4 1_555 1_555
Cd1A_3 N5A 1_555 1_555
N5_2 Cd1 1_555 1_555
N5A_2 Cd1A 1_555 1_555
O4_2 Cd1A 1_555 1_555
O4A_2 Cd1 1_555 1_555
C1 O1 1_555 1_555
C1 O2 1_555 1_555
C5 O3 1_555 1_555
C10 C11 1_555 1_555
C17 N1 1_555 1_555
C19 N2 1_555 1_555
C24 N5 1_555 1_555
N3 N4 1_555 1_555
C2A C4A 1_555 1_555
O2A Cd1A 1_555 1_555
C5A O3A 1_555 1_555
C10A C11A 1_555 1_555
C13A N1A 1_555 1_555
C17A N1A 1_555 1_555
C19A N2A 1_555 1_555
C24A N5A 1_555 1_555
N3A N4A 1_555 1_555

#END
