
#######################################################################
#
#                 Cambridge Crystallographic Data Centre
#                                CCDC 
#
#######################################################################
#
# If this CIF has been generated from an entry in the Cambridge 
# Structural Database, then it will include bibliographic, chemical, 
# crystal, experimental, refinement or atomic coordinate data resulting 
# from the CCDC's data processing and validation procedures.
#
#######################################################################

data_VIDRUX
_symmetry_cell_setting           triclinic
_symmetry_space_group_name_H-M   'P -1'
_symmetry_Int_Tables_number      2
_space_group_name_Hall           '-P 1'
loop_
_symmetry_equiv_pos_site_id
_symmetry_equiv_pos_as_xyz
1 x,y,z
2 -x,-y,-z
_cell_length_a                   11.175(2)
_cell_length_b                   11.499(2)
_cell_length_c                   22.243(4)
_cell_angle_alpha                83.95(3)
_cell_angle_beta                 83.06(3)
_cell_angle_gamma                76.05(3)
_cell_volume                     2744.99
loop_
_atom_site_label
_atom_site_type_symbol
_atom_site_fract_x
_atom_site_fract_y
_atom_site_fract_z
Cd1 Cd 0.38996(9) 0.22856(9) 1.01073(4)
Cd2 Cd 1.34731(10) 0.20042(12) 0.74286(5)
Cd3 Cd 1.27541(9) 1.11353(9) 0.48717(4)
C1 C 0.2044(13) 0.1059(13) 1.0105(7)
C2 C 0.0985(12) 0.0511(12) 1.0051(7)
C3 C -0.0053(14) 0.0707(14) 1.0477(7)
C4 C 0.1013(14) -0.0205(14) 0.9570(7)
C5 C 0.6140(13) 0.2317(13) 0.9403(6)
C6 C 0.7326(12) 0.2160(12) 0.9001(6)
C7 C 0.8309(14) 0.2606(14) 0.9136(6)
H1 H 0.8221 0.3016 0.9484
C8 C 0.9386(14) 0.2454(13) 0.8773(7)
H2 H 1.0018 0.2781 0.8868
C9 C 0.9566(13) 0.1808(12) 0.8252(6)
C10 C 0.8590(14) 0.1363(17) 0.8106(7)
H3 H 0.8678 0.0962 0.7756
C11 C 0.7480(14) 0.1517(17) 0.8486(7)
H4 H 0.6843 0.1192 0.8396
C12 C 1.0792(13) 0.1560(13) 0.7857(7)
C13 C 1.3248(13) 0.4423(15) 0.7013(7)
C14 C 1.3092(12) 0.5617(13) 0.6675(6)
C15 C 1.2472(14) 0.5840(14) 0.6142(7)
H5 H 1.2134 0.5247 0.6024
C16 C 1.2361(13) 0.6909(13) 0.5799(6)
H6 H 1.1948 0.7023 0.5450
C17 C 1.2835(12) 0.7817(12) 0.5949(6)
C18 C 1.3455(16) 0.7627(13) 0.6482(7)
H7 H 1.3781 0.8227 0.6602
C19 C 1.3567(14) 0.6524(14) 0.6822(6)
H8 H 1.3989 0.6400 0.7168
C20 C 1.2736(12) 0.8984(13) 0.5572(6)
C21 C 1.3983(18) 1.2969(18) 0.4917(10)
C22 C 1.4520(13) 1.3985(13) 0.4964(7)
C23 C 1.4272(14) 1.4995(16) 0.4526(8)
C24 C 1.5247(13) 1.4030(13) 0.5427(7)
C25 C 0.2841(13) 0.5048(12) 0.9578(6)
H9 H 0.3220 0.5205 0.9901
C26 C 0.2345(13) 0.5998(13) 0.9191(6)
H10 H 0.2384 0.6775 0.9252
C27 C 0.1786(13) 0.5785(13) 0.8707(6)
C28 C 0.1725(13) 0.4628(13) 0.8645(6)
H11 H 0.1338 0.4465 0.8327
C29 C 0.2237(13) 0.3706(14) 0.9052(7)
H12 H 0.2189 0.2925 0.9005
C30 C 0.1307(12) 0.6765(12) 0.8254(6)
C31 C 0.0411(13) 0.7657(13) 0.7510(6)
C32 C -0.0263(13) 0.7978(13) 0.6959(6)
C33 C -0.0493(14) 0.9104(14) 0.6652(6)
H13 H -0.0212 0.9721 0.6785
C34 C -0.1142(15) 0.9308(13) 0.6148(7)
H14 H -0.1281 1.0070 0.5944
C35 C -0.1318(15) 0.7348(14) 0.6239(7)
H15 H -0.1584 0.6739 0.6089
H16 H -0.0551 0.6287 0.6945
C36 C -0.0694(15) 0.7078(13) 0.6742(7)
C37 C 1.1222(14) 1.2716(14) 0.5934(7)
H17 H 1.2018 1.2802 0.5966
C38 C 1.0297(14) 1.3229(13) 0.6352(7)
H18 H 1.0463 1.3666 0.6647
C39 C 0.9123(12) 1.3089(12) 0.6327(6)
C40 C 0.8913(13) 1.2468(13) 0.5863(6)
H19 H 0.8123 1.2376 0.5823
C41 C 0.9910(14) 1.1991(13) 0.5463(6)
H20 H 0.9774 1.1563 0.5155
C42 C 0.8118(12) 1.3591(13) 0.6787(6)
C43 C 0.7188(12) 1.4533(13) 0.7532(6)
C44 C 0.6903(12) 1.5213(12) 0.8074(6)
C45 C 0.7844(14) 1.5610(14) 0.8271(7)
H21 H 0.8635 1.5449 0.8066
C46 C 0.7590(13) 1.6251(13) 0.8778(6)
H22 H 0.8231 1.6503 0.8918
C47 C 0.5563(13) 1.6112(15) 0.8881(6)
H23 H 0.4777 1.6298 0.9089
C48 C 0.5735(13) 1.5451(14) 0.8403(7)
H24 H 0.5093 1.5158 0.8294
N1 N 0.2817(10) 0.3922(11) 0.9524(5)
N2 N 0.0914(11) 0.8437(10) 0.7747(5)
N3 N 0.1499(11) 0.7848(11) 0.8241(5)
N4 N 0.0642(10) 0.6619(10) 0.7803(5)
N5 N -0.1574(11) 0.8468(11) 0.5943(5)
N6 N 1.1072(10) 1.2111(10) 0.5493(5)
N7 N 0.6385(11) 1.4028(11) 0.7306(5)
N8 N 0.6971(10) 1.3413(11) 0.6805(5)
N9 N 0.8293(10) 1.4285(10) 0.7220(5)
N10 N 0.6473(10) 1.6524(10) 0.9077(5)
O1 O 0.2000(12) 0.1700(11) 1.0523(6)
O2 O 0.2966(10) 0.0918(10) 0.9708(6)
O3 O 0.5987(10) 0.2881(12) 0.9856(5)
O4 O 0.5306(9) 0.1826(11) 0.9259(5)
O5 O 1.1580(9) 0.2131(11) 0.7951(5)
O6 O 1.0935(10) 0.0798(10) 0.7481(5)
O7 O 1.2783(13) 0.3665(11) 0.6868(7)
O8 O 1.3896(11) 0.4199(11) 0.7447(6)
O9 O 1.3298(9) 0.9729(8) 0.5707(4)
O10 O 1.2149(11) 0.9169(10) 0.5113(5)
O11 O 1.3310(12) 1.2988(12) 0.4505(7)
O12 O 1.4219(12) 1.2059(11) 0.5281(7)
O13 O 0.5038(12) 0.0707(13) 1.0717(5)
O14 O 1.3117(12) 0.0592(12) 0.6866(6)
O15 O 1.5424(14) 0.1620(15) 0.6843(8)
O16 O 1.428(2) 0.149(2) 0.8244(10)
O17 O 1.4350(10) 0.9971(12) 0.4242(5)
H25 H 0.5842 0.0649 1.0742
H26 H 0.4716 0.0198 1.0928
H27 H 1.3699 0.0274 0.6605
H28 H 1.2448 0.0401 0.6927
H29 H 1.5617 0.1118 0.6582
H30 H 1.6003 0.2005 0.6901
H31 H 1.5090 0.1223 0.8251
H32 H 1.3852 0.1479 0.8590
H33 H 1.4424 0.9234 0.4231
H34 H 1.4919 1.0304 0.4033
H35 H 0.0952 0.9207 0.7667
H36 H 0.5612 1.4094 0.7356
C1A C -0.2044(13) -0.1059(13) 0.9895(7)
C2A C -0.0985(12) -0.0511(12) 0.9949(7)
C3A C 0.0053(14) -0.0707(14) 0.9523(7)
C4A C -0.1013(14) 0.0205(14) 1.0430(7)
O1A O -0.2000(12) -0.1700(11) 0.9477(6)
O2A O -0.2966(10) -0.0918(10) 1.0292(6)
C21A C 1.6017(18) 1.7031(18) 0.5083(10)
C22A C 1.5480(13) 1.6015(13) 0.5036(7)
C23A C 1.5728(14) 1.5005(16) 0.5474(8)
C24A C 1.4753(13) 1.5970(13) 0.4573(7)
O11A O 1.6690(12) 1.7012(12) 0.5495(7)
O12A O 1.5781(12) 1.7941(11) 0.4719(7)
Cd1A Cd -0.38996(9) -0.22856(9) 0.98927(4)
Cd2A Cd -1.34731(10) -0.20042(12) 1.25714(5)
Cd3A Cd -1.27541(9) -1.11353(9) 1.51283(4)
C5A C -0.6140(13) -0.2317(13) 1.0597(6)
C6A C -0.7326(12) -0.2160(12) 1.0999(6)
C7A C -0.8309(14) -0.2606(14) 1.0864(6)
H1A H -0.8221 -0.3016 1.0516
C8A C -0.9386(14) -0.2454(13) 1.1227(7)
H2A H -1.0018 -0.2781 1.1132
C9A C -0.9566(13) -0.1808(12) 1.1748(6)
C10A C -0.8590(14) -0.1363(17) 1.1894(7)
H3A H -0.8678 -0.0962 1.2244
C11A C -0.7480(14) -0.1517(17) 1.1514(7)
H4A H -0.6843 -0.1192 1.1604
C12A C -1.0792(13) -0.1560(13) 1.2143(7)
C13A C -1.3248(13) -0.4423(15) 1.2987(7)
C14A C -1.3092(12) -0.5617(13) 1.3325(6)
C15A C -1.2472(14) -0.5840(14) 1.3858(7)
H5A H -1.2134 -0.5247 1.3976
C16A C -1.2361(13) -0.6909(13) 1.4201(6)
H6A H -1.1948 -0.7023 1.4550
C17A C -1.2835(12) -0.7817(12) 1.4051(6)
C18A C -1.3455(16) -0.7627(13) 1.3518(7)
H7A H -1.3781 -0.8227 1.3398
C19A C -1.3567(14) -0.6524(14) 1.3178(6)
H8A H -1.3989 -0.6400 1.2832
C20A C -1.2736(12) -0.8984(13) 1.4428(6)
C25A C -0.2841(13) -0.5048(12) 1.0422(6)
H9A H -0.3220 -0.5205 1.0099
C26A C -0.2345(13) -0.5998(13) 1.0809(6)
H10A H -0.2384 -0.6775 1.0748
C27A C -0.1786(13) -0.5785(13) 1.1293(6)
C28A C -0.1725(13) -0.4628(13) 1.1355(6)
H11A H -0.1338 -0.4465 1.1673
C29A C -0.2237(13) -0.3706(14) 1.0948(7)
H12A H -0.2189 -0.2925 1.0995
C30A C -0.1307(12) -0.6765(12) 1.1746(6)
C31A C -0.0411(13) -0.7657(13) 1.2490(6)
C32A C 0.0263(13) -0.7978(13) 1.3041(6)
C33A C 0.0493(14) -0.9104(14) 1.3348(6)
H13A H 0.0212 -0.9721 1.3215
C34A C 0.1142(15) -0.9308(13) 1.3852(7)
H14A H 0.1281 -1.0070 1.4056
C35A C 0.1318(15) -0.7348(14) 1.3761(7)
H15A H 0.1584 -0.6739 1.3911
H16A H 0.0551 -0.6287 1.3055
C36A C 0.0694(15) -0.7078(13) 1.3258(7)
C37A C -1.1222(14) -1.2716(14) 1.4066(7)
H17A H -1.2018 -1.2802 1.4034
C38A C -1.0297(14) -1.3229(13) 1.3648(7)
H18A H -1.0463 -1.3666 1.3353
C39A C -0.9123(12) -1.3089(12) 1.3673(6)
C40A C -0.8913(13) -1.2468(13) 1.4137(6)
H19A H -0.8123 -1.2376 1.4177
C41A C -0.9910(14) -1.1991(13) 1.4537(6)
H20A H -0.9774 -1.1563 1.4845
C42A C -0.8118(12) -1.3591(13) 1.3213(6)
C43A C -0.7188(12) -1.4533(13) 1.2468(6)
C44A C -0.6903(12) -1.5213(12) 1.1926(6)
C45A C -0.7844(14) -1.5610(14) 1.1729(7)
H21A H -0.8635 -1.5449 1.1934
C46A C -0.7590(13) -1.6251(13) 1.1222(6)
H22A H -0.8231 -1.6503 1.1082
C47A C -0.5563(13) -1.6112(15) 1.1119(6)
H23A H -0.4777 -1.6298 1.0911
C48A C -0.5735(13) -1.5451(14) 1.1597(7)
H24A H -0.5093 -1.5158 1.1706
N1A N -0.2817(10) -0.3922(11) 1.0476(5)
N2A N -0.0914(11) -0.8437(10) 1.2253(5)
N3A N -0.1499(11) -0.7848(11) 1.1759(5)
N4A N -0.0642(10) -0.6619(10) 1.2197(5)
N5A N 0.1574(11) -0.8468(11) 1.4057(5)
N6A N -1.1072(10) -1.2111(10) 1.4507(5)
N7A N -0.6385(11) -1.4028(11) 1.2694(5)
N8A N -0.6971(10) -1.3413(11) 1.3195(5)
N9A N -0.8293(10) -1.4285(10) 1.2780(5)
N10A N -0.6473(10) -1.6524(10) 1.0923(5)
O3A O -0.5987(10) -0.2881(12) 1.0144(5)
O4A O -0.5306(9) -0.1826(11) 1.0741(5)
O5A O -1.1580(9) -0.2131(11) 1.2049(5)
O6A O -1.0935(10) -0.0798(10) 1.2519(5)
O7A O -1.2783(13) -0.3665(11) 1.3132(7)
O8A O -1.3896(11) -0.4199(11) 1.2553(6)
O9A O -1.3298(9) -0.9729(8) 1.4293(4)
O10A O -1.2149(11) -0.9169(10) 1.4887(5)
O13A O -0.5038(12) -0.0707(13) 0.9283(5)
O14A O -1.3117(12) -0.0592(12) 1.3134(6)
O15A O -1.5424(14) -0.1620(15) 1.3157(8)
O16A O -1.428(2) -0.149(2) 1.1756(10)
O17A O -1.4350(10) -0.9971(12) 1.5758(5)
H25A H -0.5842 -0.0649 0.9258
H26A H -0.4716 -0.0198 0.9072
H27A H -1.3699 -0.0274 1.3395
H28A H -1.2448 -0.0401 1.3073
H29A H -1.5617 -0.1118 1.3418
H30A H -1.6003 -0.2005 1.3099
H31A H -1.5090 -0.1223 1.1749
H32A H -1.3852 -0.1479 1.1410
H33A H -1.4424 -0.9234 1.5769
H34A H -1.4919 -1.0304 1.5967
H35A H -0.0952 -0.9207 1.2333
H36A H -0.5612 -1.4094 1.2644
Cd1_2 Cd -0.61004(9) -1.77144(9) 1.01073(4)
Cd1A_2 Cd 0.61004(9) 1.77144(9) 0.98927(4)
Cd3_2 Cd 0.27541(9) -0.88647(9) 1.48717(4)
Cd3A_2 Cd -0.27541(9) 0.88647(9) 0.51283(4)
Cd3A_3 Cd 1.72459(9) 1.88647(9) 0.51283(4)
N5_2 N -1.1574(11) -1.1532(11) 1.5943(5)
N5A_2 N 1.1574(11) 1.1532(11) 0.4057(5)
N10_2 N -0.3527(10) -0.3476(10) 0.9077(5)
N10A_2 N 0.3527(10) 0.3476(10) 1.0923(5)
O11A_2 O -1.3310(12) -1.2988(12) 1.5495(7)
O12A_2 O -1.4219(12) -1.2059(11) 1.4719(7)
O18 O 0.627(4) 0.108(4) 0.1742(18)
H37 H 0.6111 0.0236 0.1806
O19 O 0.563(5) 0.860(4) 0.743(2)
H38 H 0.5001 0.8769 0.7686
loop_
_geom_bond_atom_site_label_1
_geom_bond_atom_site_label_2
_geom_bond_site_symmetry_1
_geom_bond_site_symmetry_2
Cd1 N1 1_555 1_555
Cd2 O5 1_555 1_555
Cd3 N6 1_555 1_555
C1 C2 1_555 1_555
C2 C3 1_555 1_555
C3 C4A 1_555 1_555
C4 C2 1_555 1_555
C5 C6 1_555 1_555
C6 C7 1_555 1_555
C7 H1 1_555 1_555
C8 C7 1_555 1_555
H2 C8 1_555 1_555
C9 C8 1_555 1_555
C10 C9 1_555 1_555
H3 C10 1_555 1_555
C11 C6 1_555 1_555
H4 C11 1_555 1_555
C12 C9 1_555 1_555
C13 C14 1_555 1_555
C14 C15 1_555 1_555
C15 H5 1_555 1_555
C16 C15 1_555 1_555
H6 C16 1_555 1_555
C17 C16 1_555 1_555
C18 C17 1_555 1_555
H7 C18 1_555 1_555
C19 C14 1_555 1_555
H8 C19 1_555 1_555
C20 C17 1_555 1_555
C21 C22 1_555 1_555
C22 C23 1_555 1_555
C23 C24A 1_555 1_555
C24 C22 1_555 1_555
C25 H9 1_555 1_555
C26 C25 1_555 1_555
H10 C26 1_555 1_555
C27 C26 1_555 1_555
C28 C27 1_555 1_555
H11 C28 1_555 1_555
C29 C28 1_555 1_555
H12 C29 1_555 1_555
C30 C27 1_555 1_555
C31 C32 1_555 1_555
C32 C33 1_555 1_555
C33 H13 1_555 1_555
C34 C33 1_555 1_555
H14 C34 1_555 1_555
C35 H15 1_555 1_555
H16 C36 1_555 1_555
C36 C32 1_555 1_555
C37 H17 1_555 1_555
C38 C37 1_555 1_555
H18 C38 1_555 1_555
C39 C38 1_555 1_555
C40 C39 1_555 1_555
H19 C40 1_555 1_555
C41 C40 1_555 1_555
H20 C41 1_555 1_555
C42 C39 1_555 1_555
C43 C44 1_555 1_555
C44 C45 1_555 1_555
C45 H21 1_555 1_555
C46 C45 1_555 1_555
H22 C46 1_555 1_555
C47 H23 1_555 1_555
C48 C44 1_555 1_555
H24 C48 1_555 1_555
N1 C25 1_555 1_555
N2 C31 1_555 1_555
N3 C30 1_555 1_555
N4 C30 1_555 1_555
N5 C34 1_555 1_555
N6 C37 1_555 1_555
N7 C43 1_555 1_555
N8 C42 1_555 1_555
N9 C42 1_555 1_555
N10 C46 1_555 1_555
O1 Cd1 1_555 1_555
O2 Cd1 1_555 1_555
O3 Cd1 1_555 1_555
O4 Cd1 1_555 1_555
O5 C12 1_555 1_555
O6 C12 1_555 1_555
O7 Cd2 1_555 1_555
O8 Cd2 1_555 1_555
O9 Cd3 1_555 1_555
O10 Cd3 1_555 1_555
O11 Cd3 1_555 1_555
O12 Cd3 1_555 1_555
O13 Cd1 1_555 1_555
O14 Cd2 1_555 1_555
O15 Cd2 1_555 1_555
O16 Cd2 1_555 1_555
O17 Cd3 1_555 1_555
H25 O13 1_555 1_555
H26 O13 1_555 1_555
H27 O14 1_555 1_555
H28 O14 1_555 1_555
H29 O15 1_555 1_555
H30 O15 1_555 1_555
H31 O16 1_555 1_555
H32 O16 1_555 1_555
H33 O17 1_555 1_555
H34 O17 1_555 1_555
H35 N2 1_555 1_555
H36 N7 1_555 1_555
O18 H37 1_555 1_555
O19 H38 1_555 1_555
C1A C2A 1_555 1_555
C2A C3A 1_555 1_555
C3A C4 1_555 1_555
C4A C2A 1_555 1_555
O1A C1A 1_555 1_555
O2A C1A 1_555 1_555
C21A C22A 1_555 1_555
C22A C23A 1_555 1_555
C23A C24 1_555 1_555
C24A C22A 1_555 1_555
O11A C21A 1_555 1_555
O12A C21A 1_555 1_555
Cd1A O1A 1_555 1_555
Cd2A O5A 1_555 1_555
Cd3A N6A 1_555 1_555
C5A C6A 1_555 1_555
C6A C7A 1_555 1_555
C7A H1A 1_555 1_555
C8A C7A 1_555 1_555
H2A C8A 1_555 1_555
C9A C8A 1_555 1_555
C10A C9A 1_555 1_555
H3A C10A 1_555 1_555
C11A C6A 1_555 1_555
H4A C11A 1_555 1_555
C12A C9A 1_555 1_555
C13A C14A 1_555 1_555
C14A C15A 1_555 1_555
C15A H5A 1_555 1_555
C16A C15A 1_555 1_555
H6A C16A 1_555 1_555
C17A C16A 1_555 1_555
C18A C17A 1_555 1_555
H7A C18A 1_555 1_555
C19A C14A 1_555 1_555
H8A C19A 1_555 1_555
C20A C17A 1_555 1_555
C25A H9A 1_555 1_555
C26A C25A 1_555 1_555
H10A C26A 1_555 1_555
C27A C26A 1_555 1_555
C28A C27A 1_555 1_555
H11A C28A 1_555 1_555
C29A C28A 1_555 1_555
H12A C29A 1_555 1_555
C30A C27A 1_555 1_555
C31A C32A 1_555 1_555
C32A C33A 1_555 1_555
C33A H13A 1_555 1_555
C34A C33A 1_555 1_555
H14A C34A 1_555 1_555
C35A H15A 1_555 1_555
H16A C36A 1_555 1_555
C36A C32A 1_555 1_555
C37A H17A 1_555 1_555
C38A C37A 1_555 1_555
H18A C38A 1_555 1_555
C39A C38A 1_555 1_555
C40A C39A 1_555 1_555
H19A C40A 1_555 1_555
C41A C40A 1_555 1_555
H20A C41A 1_555 1_555
C42A C39A 1_555 1_555
C43A C44A 1_555 1_555
C44A C45A 1_555 1_555
C45A H21A 1_555 1_555
C46A C45A 1_555 1_555
H22A C46A 1_555 1_555
C47A H23A 1_555 1_555
C48A C44A 1_555 1_555
H24A C48A 1_555 1_555
N1A Cd1A 1_555 1_555
N2A C31A 1_555 1_555
N3A C30A 1_555 1_555
N4A C30A 1_555 1_555
N5A C34A 1_555 1_555
N6A C37A 1_555 1_555
N7A C43A 1_555 1_555
N8A C42A 1_555 1_555
N9A C42A 1_555 1_555
N10A C46A 1_555 1_555
O3A Cd1A 1_555 1_555
O4A Cd1A 1_555 1_555
O5A C12A 1_555 1_555
O6A C12A 1_555 1_555
O7A Cd2A 1_555 1_555
O8A Cd2A 1_555 1_555
O9A Cd3A 1_555 1_555
O10A Cd3A 1_555 1_555
O13A Cd1A 1_555 1_555
O14A Cd2A 1_555 1_555
O15A Cd2A 1_555 1_555
O16A Cd2A 1_555 1_555
O17A Cd3A 1_555 1_555
H25A O13A 1_555 1_555
H26A O13A 1_555 1_555
H27A O14A 1_555 1_555
H28A O14A 1_555 1_555
H29A O15A 1_555 1_555
H30A O15A 1_555 1_555
H31A O16A 1_555 1_555
H32A O16A 1_555 1_555
H33A O17A 1_555 1_555
H34A O17A 1_555 1_555
H35A N2A 1_555 1_555
H36A N7A 1_555 1_555
Cd1_2 N10A 1_555 1_555
Cd1A_2 N10 1_555 1_555
Cd3_2 N5A 1_555 1_555
Cd3A_2 N5 1_555 1_555
Cd3A_3 O11A 1_555 1_555
N5_2 Cd3A 1_555 1_555
N5A_2 Cd3 1_555 1_555
N10_2 Cd1A 1_555 1_555
N10A_2 Cd1 1_555 1_555
O11A_2 Cd3A 1_555 1_555
O12A_2 Cd3A 1_555 1_555
C1 O1 1_555 1_555
C1 O2 1_555 1_555
C5 O3 1_555 1_555
C5 O4 1_555 1_555
C10 C11 1_555 1_555
C13 O7 1_555 1_555
C13 O8 1_555 1_555
C18 C19 1_555 1_555
C20 O9 1_555 1_555
C20 O10 1_555 1_555
C21 O11 1_555 1_555
C21 O12 1_555 1_555
C29 N1 1_555 1_555
C31 N4 1_555 1_555
C35 C36 1_555 1_555
C35 N5 1_555 1_555
C41 N6 1_555 1_555
C43 N9 1_555 1_555
C47 C48 1_555 1_555
C47 N10 1_555 1_555
N2 N3 1_555 1_555
N7 N8 1_555 1_555
O2A Cd1A 1_555 1_555
O12A Cd3A_3 1_555 1_555
C5A O3A 1_555 1_555
C5A O4A 1_555 1_555
C10A C11A 1_555 1_555
C13A O7A 1_555 1_555
C13A O8A 1_555 1_555
C18A C19A 1_555 1_555
C20A O9A 1_555 1_555
C20A O10A 1_555 1_555
C25A N1A 1_555 1_555
C29A N1A 1_555 1_555
C31A N4A 1_555 1_555
C35A C36A 1_555 1_555
C35A N5A 1_555 1_555
C41A N6A 1_555 1_555
C43A N9A 1_555 1_555
C47A C48A 1_555 1_555
C47A N10A 1_555 1_555
N2A N3A 1_555 1_555
N7A N8A 1_555 1_555

#END
