
#######################################################################
#
#                 Cambridge Crystallographic Data Centre
#                                CCDC 
#
#######################################################################
#
# If this CIF has been generated from an entry in the Cambridge 
# Structural Database, then it will include bibliographic, chemical, 
# crystal, experimental, refinement or atomic coordinate data resulting 
# from the CCDC's data processing and validation procedures.
#
#######################################################################

data_VIDYAK
_symmetry_cell_setting           monoclinic
_symmetry_space_group_name_H-M   'P 21'
_symmetry_Int_Tables_number      4
_space_group_name_Hall           'P 2yb'
loop_
_symmetry_equiv_pos_site_id
_symmetry_equiv_pos_as_xyz
1 x,y,z
2 -x,1/2+y,-z
_cell_length_a                   13.419(3)
_cell_length_b                   15.079(3)
_cell_length_c                   20.066(4)
_cell_angle_alpha                90
_cell_angle_beta                 102.81(3)
_cell_angle_gamma                90
_cell_volume                     3959.2
loop_
_atom_site_label
_atom_site_type_symbol
_atom_site_fract_x
_atom_site_fract_y
_atom_site_fract_z
W1 W 0.35363(12) 0.91720(12) 0.16362(8)
W2 W 0.54610(11) 0.78096(11) 0.28124(8)
W3 W 0.29792(11) 0.75563(12) 0.43086(7)
W4 W 0.37405(12) 0.92728(12) 0.35056(8)
W5 W 0.12971(11) 0.87596(12) 0.32584(8)
W6 W 0.02065(12) 0.67848(12) 0.22732(8)
W7 W 0.47121(11) 0.60957(12) 0.36093(8)
W8 W 0.45149(12) 0.60474(12) 0.19385(8)
W9 W 0.10769(12) 0.86881(13) 0.13855(8)
W10 W 0.17524(12) 0.54879(13) 0.16496(9)
W11 W 0.26088(13) 0.73963(13) 0.07497(8)
W12 W 0.19375(12) 0.55730(12) 0.33230(8)
Al1 Al 0.2837(9) 0.7394(10) 0.2546(6)
O1 O 0.2380(17) 0.9674(17) 0.3507(12)
O2 O 0.375(2) 0.866(2) 0.4330(14)
O3 O -0.097(2) 0.675(2) 0.2161(16)
O4 O 0.4985(17) 0.5472(17) 0.2827(12)
O5 O 0.259(3) 0.716(2) -0.0060(18)
O6 O 0.3416(18) 0.8483(17) 0.0845(12)
O7 O 0.0609(16) 0.7775(17) 0.2965(11)
O8 O 0.1734(18) 0.8307(18) 0.4156(12)
O9 O 0.4835(16) 0.8570(16) 0.3384(11)
O10 O 0.2603(18) 0.7993(17) 0.1775(13)
O11 O 0.4712(16) 0.8501(14) 0.2071(11)
O12 O 0.353(2) 0.953(2) 0.2559(15)
O13 O 0.2728(17) 0.8092(16) 0.3237(12)
O14 O 0.2164(19) 0.9531(18) 0.1331(13)
O15 O 0.1860(18) 0.6429(17) 0.1044(12)
O16 O 0.3881(17) 0.6791(16) 0.1262(11)
O17 O 0.4117(16) 0.6927(15) 0.4124(11)
O18 O 0.5627(17) 0.6903(16) 0.2182(11)
O19 O 0.0075(18) 0.9235(19) 0.0998(12)
O20 O 0.0561(16) 0.5929(16) 0.2981(11)
O21 O 0.1207(18) 0.9026(17) 0.2330(12)
O22 O 0.5660(17) 0.6934(17) 0.3513(12)
O23 O 0.1879(19) 0.6479(17) 0.2472(13)
O24 O 0.151(2) 0.473(2) 0.1110(14)
O25 O 0.3107(18) 0.7462(19) 0.5143(13)
O26 O 0.1712(18) 0.4743(17) 0.3828(13)
O27 O 0.1770(19) 0.4863(17) 0.2530(14)
O28 O 0.2172(16) 0.6604(16) 0.3931(11)
O29 O 0.0381(15) 0.5879(16) 0.1653(11)
O30 O 0.0404(16) 0.9450(16) 0.3478(11)
O31 O 0.662(2) 0.822(2) 0.2923(14)
O32 O 0.3295(18) 0.5455(19) 0.1931(14)
O33 O 0.5383(17) 0.5446(17) 0.4243(11)
O34 O 0.409(2) 1.0069(19) 0.1390(14)
O35 O 0.3390(17) 0.5538(17) 0.3422(11)
O36 O 0.4059(14) 0.6958(14) 0.2682(10)
O37 O 0.1430(19) 0.8081(18) 0.0629(13)
O38 O 0.0424(18) 0.7645(19) 0.1645(13)
O39 O 0.5043(16) 0.5285(15) 0.1532(11)
O40 O 0.4382(15) 1.0168(16) 0.3851(11)
Ni1 Ni -0.0489(3) 1.0596(4) 0.3511(2)
Ni2 Ni 0.5693(3) 0.3975(3) 0.1399(2)
N1 N -0.1435(14) 0.9864(13) 0.4018(10)
C1 C -0.1096(14) 0.9080(14) 0.4340(11)
H1 H -0.0431 0.8867 0.4337
C2 C -0.1721(15) 0.8604(14) 0.4666(11)
H2 H -0.1487 0.8063 0.4889
C3 C -0.2684(15) 0.8912(13) 0.4671(11)
C4 C -0.3023(14) 0.9696(13) 0.4349(12)
H3 H -0.3688 0.9909 0.4352
C5 C -0.2398(15) 1.0172(13) 0.4023(11)
H4 H -0.2632 1.0714 0.3800
N2 N -0.4525(17) 0.7433(16) 0.5743(12)
H5 H -0.4904 0.7127 0.5966
C6 C -0.3883(18) 0.7010(15) 0.5418(12)
H6 H -0.3840 0.6381 0.5432
C7 C -0.3303(19) 0.7480(16) 0.5075(13)
H7 H -0.2850 0.7182 0.4847
C8 C -0.3364(18) 0.8373(17) 0.5056(13)
C9 C -0.4007(19) 0.8797(16) 0.5380(13)
H8 H -0.4050 0.9425 0.5367
C10 C -0.4587(18) 0.8327(16) 0.5723(13)
H9 H -0.5039 0.8624 0.5952
N3 N 0.6607(15) 0.4645(18) 0.0812(12)
C11 C 0.7624(16) 0.4424(17) 0.0887(13)
H10 H 0.7885 0.3900 0.1125
C12 C 0.8263(17) 0.4966(18) 0.0616(13)
H11 H 0.8964 0.4815 0.0668
C13 C 0.7885(19) 0.5728(17) 0.0270(12)
C14 C 0.6868(19) 0.5948(17) 0.0195(13)
H12 H 0.6608 0.6473 -0.0044
C15 C 0.6229(17) 0.5406(18) 0.0465(13)
H13 H 0.5529 0.5558 0.0413
N4 N 0.983(2) 0.732(2) -0.0648(14)
H14 H 1.0212 0.7641 -0.0862
C16 C 1.006(2) 0.644(2) -0.0511(15)
H15 H 1.0633 0.6183 -0.0647
C17 C 0.947(2) 0.5941(19) -0.0179(15)
H16 H 0.9632 0.5334 -0.0084
C18 C 0.865(2) 0.632(2) 0.0017(15)
C19 C 0.842(2) 0.719(2) -0.0120(16)
H17 H 0.7852 0.7453 0.0016
C20 C 0.901(2) 0.7694(19) -0.0453(16)
H18 H 0.8852 0.8302 -0.0547
N5 N 0.6714(17) 0.4318(17) 0.2281(11)
C21 C 0.6773(16) 0.3805(16) 0.2882(12)
H19 H 0.6479 0.3229 0.2852
C22 C 0.7273(18) 0.4152(16) 0.3527(11)
H20 H 0.7312 0.3809 0.3929
C23 C 0.7712(18) 0.5012(17) 0.3572(11)
C24 C 0.7653(18) 0.5525(16) 0.2971(12)
H21 H 0.7947 0.6101 0.3001
C25 C 0.7154(19) 0.5178(17) 0.2326(11)
H22 H 0.7114 0.5521 0.1923
N6 N 0.9482(13) 0.5841(15) 0.5500(10)
C26 C 0.9860(13) 0.5951(16) 0.4932(11)
H23 H 1.0528 0.6183 0.4970
C27 C 0.9283(15) 0.5732(16) 0.4310(10)
H24 H 0.9547 0.5809 0.3912
C28 C 0.8328(15) 0.5402(15) 0.4256(9)
C29 C 0.7951(13) 0.5292(15) 0.4824(9)
H25 H 0.7282 0.5061 0.4786
C30 C 0.8528(13) 0.5511(14) 0.5446(9)
H26 H 0.8263 0.5434 0.5844
N7 N 0.4629(15) 0.3255(15) 0.1888(11)
C31 C 0.4222(15) 0.3675(14) 0.2387(11)
H27 H 0.4483 0.4233 0.2565
C32 C 0.3430(15) 0.3276(14) 0.2626(11)
H28 H 0.3152 0.3562 0.2966
C33 C 0.3046(15) 0.2456(14) 0.2366(11)
C34 C 0.3454(16) 0.2036(14) 0.1866(11)
H29 H 0.3193 0.1478 0.1689
C35 C 0.4246(16) 0.2436(15) 0.1628(11)
H30 H 0.4523 0.2150 0.1288
N8 N 0.0545(15) 0.1339(15) 0.3030(11)
C36 C 0.1019(18) 0.2078(15) 0.3337(12)
H31 H 0.0798 0.2339 0.3710
C37 C 0.1811(19) 0.2441(16) 0.3110(12)
H32 H 0.2142 0.2957 0.3324
C38 C 0.2129(18) 0.2066(16) 0.2576(12)
C39 C 0.1655(18) 0.1327(15) 0.2270(11)
H33 H 0.1876 0.1065 0.1897
C40 C 0.0863(16) 0.0964(15) 0.2496(11)
H34 H 0.0532 0.0448 0.2282
N9 N -0.4564(16) 0.8807(16) -0.0530(10)
C41 C -0.3638(17) 0.9227(18) -0.0536(11)
H35 H -0.3486 0.9401 -0.0957
C42 C -0.2935(17) 0.9391(19) 0.0079(11)
H36 H -0.2306 0.9677 0.0075
C43 C -0.3160(16) 0.9135(19) 0.0699(11)
C44 C -0.4086(16) 0.8714(19) 0.0705(11)
H37 H -0.4238 0.8540 0.1126
C45 C -0.4789(15) 0.8550(17) 0.0090(10)
H38 H -0.5418 0.8264 0.0094
N10 N -0.1385(8) 1.0172(9) 0.2560(6)
C46 C -0.1681(12) 1.0728(9) 0.2020(6)
H39 H -0.1521 1.1341 0.2068
C47 C -0.2207(16) 1.0407(11) 0.1411(8)
H40 H -0.2414 1.0796 0.1033
C48 C -0.2436(13) 0.9530(13) 0.1342(9)
C49 C -0.2140(14) 0.8975(12) 0.1882(9)
H41 H -0.2301 0.8361 0.1833
C50 C -0.1615(14) 0.9295(10) 0.2491(8)
H42 H -0.1407 0.8906 0.2868
O41 O -0.1358(14) 1.1783(14) 0.3553(10)
H43 H -0.1580 1.2302 0.3480
H44 H -0.1636 1.1559 0.3848
O42 O 0.6499(17) 0.2824(18) 0.1319(12)
H45 H 0.6472 0.2275 0.1410
H46 H 0.6917 0.2887 0.1060
Ni1_2 Ni -0.0489(3) 0.0596(4) 0.3511(2)
Ni1A Ni 1.0489(3) 0.5596(4) 0.6489(2)
Ni2A Ni -0.5693(3) 0.8975(3) -0.1399(2)
N6A N 0.0518(13) 1.0841(15) 0.4500(10)
N8_2 N 0.0545(15) 1.1339(15) 0.3030(11)
N9A N 0.4564(16) 0.3807(16) 0.0530(10)
loop_
_geom_bond_atom_site_label_1
_geom_bond_atom_site_label_2
_geom_bond_site_symmetry_1
_geom_bond_site_symmetry_2
W1 O6 1_555 1_555
W2 O9 1_555 1_555
W3 O2 1_555 1_555
W4 O1 1_555 1_555
W5 O1 1_555 1_555
W6 O3 1_555 1_555
W7 O4 1_555 1_555
W8 O4 1_555 1_555
W9 O10 1_555 1_555
W10 O15 1_555 1_555
W11 O5 1_555 1_555
W12 O20 1_555 1_555
Al1 O10 1_555 1_555
O2 W4 1_555 1_555
O6 W11 1_555 1_555
O7 W5 1_555 1_555
O8 W3 1_555 1_555
O9 W4 1_555 1_555
O10 W1 1_555 1_555
O11 W1 1_555 1_555
O12 W1 1_555 1_555
O13 W3 1_555 1_555
O14 W1 1_555 1_555
O15 W11 1_555 1_555
O16 W8 1_555 1_555
O17 W3 1_555 1_555
O18 W2 1_555 1_555
O19 W9 1_555 1_555
O20 W6 1_555 1_555
O21 W5 1_555 1_555
O22 W2 1_555 1_555
O23 W6 1_555 1_555
O24 W10 1_555 1_555
O25 W3 1_555 1_555
O26 W12 1_555 1_555
O27 W10 1_555 1_555
O28 W3 1_555 1_555
O29 W6 1_555 1_555
O30 W5 1_555 1_555
O31 W2 1_555 1_555
O32 W8 1_555 1_555
O33 W7 1_555 1_555
O34 W1 1_555 1_555
O35 W7 1_555 1_555
O36 W2 1_555 1_555
O37 W9 1_555 1_555
O38 W6 1_555 1_555
O39 W8 1_555 1_555
O40 W4 1_555 1_555
Ni1 O30 1_555 1_555
Ni2 O39 1_555 1_555
N1 Ni1 1_555 1_555
C1 N1 1_555 1_555
H1 C1 1_555 1_555
C2 C1 1_555 1_555
H2 C2 1_555 1_555
C3 C2 1_555 1_555
C4 C3 1_555 1_555
H3 C4 1_555 1_555
C5 N1 1_555 1_555
H4 C5 1_555 1_555
N2 H5 1_555 1_555
C6 N2 1_555 1_555
H6 C6 1_555 1_555
C7 C6 1_555 1_555
H7 C7 1_555 1_555
C8 C3 1_555 1_555
C9 C8 1_555 1_555
H8 C9 1_555 1_555
C10 N2 1_555 1_555
H9 C10 1_555 1_555
N3 Ni2 1_555 1_555
C11 N3 1_555 1_555
H10 C11 1_555 1_555
C12 C11 1_555 1_555
H11 C12 1_555 1_555
C13 C12 1_555 1_555
C14 C13 1_555 1_555
H12 C14 1_555 1_555
C15 N3 1_555 1_555
H13 C15 1_555 1_555
N4 H14 1_555 1_555
C16 N4 1_555 1_555
H15 C16 1_555 1_555
C17 C16 1_555 1_555
H16 C17 1_555 1_555
C18 C13 1_555 1_555
C19 C18 1_555 1_555
H17 C19 1_555 1_555
C20 N4 1_555 1_555
H18 C20 1_555 1_555
N5 Ni2 1_555 1_555
C21 N5 1_555 1_555
H19 C21 1_555 1_555
C22 C21 1_555 1_555
H20 C22 1_555 1_555
C23 C22 1_555 1_555
C24 C23 1_555 1_555
H21 C24 1_555 1_555
C25 N5 1_555 1_555
H22 C25 1_555 1_555
N6 C26 1_555 1_555
C26 H23 1_555 1_555
C27 C26 1_555 1_555
H24 C27 1_555 1_555
C28 C23 1_555 1_555
C29 C28 1_555 1_555
H25 C29 1_555 1_555
C30 N6 1_555 1_555
H26 C30 1_555 1_555
N7 Ni2 1_555 1_555
C31 N7 1_555 1_555
H27 C31 1_555 1_555
C32 C31 1_555 1_555
H28 C32 1_555 1_555
C33 C32 1_555 1_555
C34 C33 1_555 1_555
H29 C34 1_555 1_555
C35 N7 1_555 1_555
H30 C35 1_555 1_555
N8 C36 1_555 1_555
C36 H31 1_555 1_555
C37 C36 1_555 1_555
H32 C37 1_555 1_555
C38 C33 1_555 1_555
C39 C38 1_555 1_555
H33 C39 1_555 1_555
C40 N8 1_555 1_555
H34 C40 1_555 1_555
N9 C41 1_555 1_555
C41 H35 1_555 1_555
C42 C41 1_555 1_555
H36 C42 1_555 1_555
C43 C42 1_555 1_555
C44 C43 1_555 1_555
H37 C44 1_555 1_555
C45 N9 1_555 1_555
H38 C45 1_555 1_555
N10 Ni1 1_555 1_555
C46 N10 1_555 1_555
H39 C46 1_555 1_555
C47 C46 1_555 1_555
H40 C47 1_555 1_555
C48 C43 1_555 1_555
C49 C48 1_555 1_555
H41 C49 1_555 1_555
C50 N10 1_555 1_555
H42 C50 1_555 1_555
O41 Ni1 1_555 1_555
H43 O41 1_555 1_555
H44 O41 1_555 1_555
O42 Ni2 1_555 1_555
H45 O42 1_555 1_555
H46 O42 1_555 1_555
Ni1_2 N8 1_555 1_555
Ni1A N6 1_555 1_555
Ni2A N9 1_555 1_555
N6A Ni1 1_555 1_555
N8_2 Ni1 1_555 1_555
N9A Ni2 1_555 1_555
W2 O11 1_555 1_555
W4 O12 1_555 1_555
W4 O13 1_555 1_555
W5 O8 1_555 1_555
W5 O13 1_555 1_555
W6 O7 1_555 1_555
W7 O17 1_555 1_555
W7 O22 1_555 1_555
W7 O36 1_555 1_555
W8 O18 1_555 1_555
W8 O36 1_555 1_555
W9 O14 1_555 1_555
W9 O21 1_555 1_555
W9 O38 1_555 1_555
W10 O23 1_555 1_555
W10 O29 1_555 1_555
W10 O32 1_555 1_555
W11 O10 1_555 1_555
W11 O16 1_555 1_555
W11 O37 1_555 1_555
W12 O23 1_555 1_555
W12 O27 1_555 1_555
W12 O28 1_555 1_555
W12 O35 1_555 1_555
Al1 O13 1_555 1_555
Al1 O23 1_555 1_555
Al1 O36 1_555 1_555
C4 C5 1_555 1_555
C7 C8 1_555 1_555
C9 C10 1_555 1_555
C14 C15 1_555 1_555
C17 C18 1_555 1_555
C19 C20 1_555 1_555
C24 C25 1_555 1_555
C27 C28 1_555 1_555
C29 C30 1_555 1_555
C34 C35 1_555 1_555
C37 C38 1_555 1_555
C39 C40 1_555 1_555
C44 C45 1_555 1_555
C47 C48 1_555 1_555
C49 C50 1_555 1_555

#END
