
#######################################################################
#
#                 Cambridge Crystallographic Data Centre
#                                CCDC 
#
#######################################################################
#
# If this CIF has been generated from an entry in the Cambridge 
# Structural Database, then it will include bibliographic, chemical, 
# crystal, experimental, refinement or atomic coordinate data resulting 
# from the CCDC's data processing and validation procedures.
#
#######################################################################

data_VIGGID
_symmetry_cell_setting           monoclinic
_symmetry_space_group_name_H-M   'P 21/c'
_symmetry_Int_Tables_number      14
_space_group_name_Hall           '-P 2ybc'
loop_
_symmetry_equiv_pos_site_id
_symmetry_equiv_pos_as_xyz
1 x,y,z
2 -x,1/2+y,1/2-z
3 -x,-y,-z
4 x,1/2-y,1/2+z
_cell_length_a                   8.3188(17)
_cell_length_b                   16.391(3)
_cell_length_c                   17.421(4)
_cell_angle_alpha                90
_cell_angle_beta                 100.20(3)
_cell_angle_gamma                90
_cell_volume                     2337.87
loop_
_atom_site_label
_atom_site_type_symbol
_atom_site_fract_x
_atom_site_fract_y
_atom_site_fract_z
Pb1 Pb 0.99031(3) 0.841090(15) 0.682486(12)
C1 C 1.0282(9) 0.7927(4) 0.4894(4)
H1 H 1.0929 0.7518 0.5160
C2 C 1.0060(9) 0.7935(5) 0.4093(4)
H2 H 1.0489 0.7521 0.3825
C3 C 0.9199(9) 0.8564(4) 0.3697(4)
H3 H 0.9071 0.8592 0.3156
C4 C 0.8516(7) 0.9161(4) 0.4109(3)
C5 C 0.7599(7) 0.9842(4) 0.3775(3)
C6 C 0.6921(7) 1.0421(4) 0.4207(3)
C7 C 0.7071(7) 1.0342(4) 0.5037(3)
C8 C 0.6340(8) 1.0867(4) 0.5506(3)
H4 H 0.5718 1.1306 0.5283
C9 C 0.6541(8) 1.0732(4) 0.6300(4)
H5 H 0.6065 1.1075 0.6622
C10 C 0.7484(8) 1.0065(4) 0.6602(3)
H6 H 0.7631 0.9978 0.7137
C11 C 0.7993(7) 0.9676(4) 0.5390(3)
C12 C 0.8739(7) 0.9086(4) 0.4935(3)
C13 C 0.6290(7) 1.0782(4) 0.3012(3)
C14 C 0.5621(7) 1.1178(4) 0.2262(3)
C15 C 0.5319(8) 1.0707(4) 0.1584(4)
H7 H 0.5516 1.0149 0.1607
C16 C 0.4726(9) 1.1077(5) 0.0877(4)
H8 H 0.4524 1.0774 0.0419
C17 C 0.4443(9) 1.1900(5) 0.0867(4)
H9 H 0.4005 1.2145 0.0395
C18 C 0.4765(8) 1.2361(4) 0.1499(3)
H10 H 0.4602 1.2922 0.1463
C19 C 0.5332(7) 1.2011(4) 0.2196(3)
C20 C 0.5777(8) 1.2603(4) 0.2842(3)
C21 C 0.7267(7) 1.2904(3) 0.2914(3)
H11 H 0.7979 1.2715 0.2598
C22 C 0.7739(9) 1.3479(4) 0.3441(4)
H12 H 0.8791 1.3687 0.3481
C23 C 0.6753(9) 1.3786(4) 0.3934(4)
H13 H 0.7123 1.4191 0.4295
C24 C 0.5193(9) 1.3466(4) 0.3869(4)
H14 H 0.4486 1.3656 0.4186
C25 C 0.4694(8) 1.2851(4) 0.3318(3)
C26 C 0.3042(9) 1.2472(4) 0.3300(4)
C27 C 1.0640(8) 0.9849(5) 0.8421(4)
C28 C 1.0331(7) 0.9916(4) 0.9253(3)
C29 C 0.9424(7) 0.9321(4) 0.9557(3)
H15 H 0.9034 0.8870 0.9257
C30 C 1.0894(7) 1.0595(4) 0.9688(3)
H16 H 1.1482 1.0995 0.9478
N1 N 0.9615(7) 0.8475(3) 0.5312(3)
N2 N 0.8180(6) 0.9549(3) 0.6183(3)
N3 N 0.7173(6) 1.0069(3) 0.3019(3)
H17 H 0.7408 0.9817 0.2620
N4 N 0.6083(6) 1.1011(3) 0.3717(3)
O1 O 0.2284(8) 1.2615(4) 0.3823(3)
O2 O 0.2517(5) 1.1983(3) 0.2753(3)
O3 O 1.1397(7) 1.0409(3) 0.8154(3)
O4 O 1.0078(7) 0.9224(4) 0.8040(3)
C27B C 0.9360(8) 1.0151(5) 1.1579(4)
C28B C 0.9669(7) 1.0084(4) 1.0747(3)
C29B C 1.0576(7) 1.0679(4) 1.0443(3)
H15B H 1.0966 1.1130 1.0743
C30B C 0.9106(7) 0.9405(4) 1.0312(3)
H16B H 0.8518 0.9005 1.0522
O3B O 0.8603(7) 0.9591(3) 1.1846(3)
O4B O 0.9922(7) 1.0776(4) 1.1960(3)
Pb1B Pb 0.00969(3) 1.158910(15) 0.317514(12)
C1B C -0.0282(9) 1.2073(4) 0.5106(4)
H1B H -0.0929 1.2482 0.4840
C2B C -0.0060(9) 1.2065(5) 0.5907(4)
H2B H -0.0489 1.2479 0.6175
C3B C 0.0801(9) 1.1436(4) 0.6303(4)
H3B H 0.0929 1.1408 0.6844
C4B C 0.1484(7) 1.0839(4) 0.5891(3)
C5B C 0.2401(7) 1.0158(4) 0.6225(3)
C6B C 0.3079(7) 0.9579(4) 0.5793(3)
C7B C 0.2929(7) 0.9658(4) 0.4963(3)
C8B C 0.3660(8) 0.9133(4) 0.4494(3)
H4B H 0.4282 0.8694 0.4717
C9B C 0.3459(8) 0.9268(4) 0.3700(4)
H5B H 0.3935 0.8925 0.3378
C10B C 0.2516(8) 0.9935(4) 0.3398(3)
H6B H 0.2369 1.0022 0.2863
C11B C 0.2007(7) 1.0324(4) 0.4610(3)
C12B C 0.1261(7) 1.0914(4) 0.5065(3)
C13B C 0.3710(7) 0.9218(4) 0.6988(3)
C14B C 0.4379(7) 0.8822(4) 0.7738(3)
C15B C 0.4681(8) 0.9293(4) 0.8416(4)
H7B H 0.4484 0.9851 0.8393
C16B C 0.5274(9) 0.8923(5) 0.9123(4)
H8B H 0.5476 0.9226 0.9581
C17B C 0.5557(9) 0.8100(5) 0.9133(4)
H9B H 0.5995 0.7855 0.9605
C18B C 0.5235(8) 0.7639(4) 0.8501(3)
H10B H 0.5398 0.7078 0.8537
C19B C 0.4668(7) 0.7989(4) 0.7804(3)
C20B C 0.4223(8) 0.7397(4) 0.7158(3)
C21B C 0.2733(7) 0.7096(3) 0.7086(3)
H11B H 0.2021 0.7285 0.7402
C22B C 0.2261(9) 0.6521(4) 0.6559(4)
H12B H 0.1209 0.6313 0.6519
C23B C 0.3247(9) 0.6214(4) 0.6066(4)
H13B H 0.2877 0.5809 0.5705
C24B C 0.4807(9) 0.6534(4) 0.6131(4)
H14B H 0.5514 0.6344 0.5814
C25B C 0.5306(8) 0.7149(4) 0.6682(3)
C26B C 0.6958(9) 0.7528(4) 0.6700(4)
N1B N 0.0385(7) 1.1525(3) 0.4688(3)
N2B N 0.1820(6) 1.0451(3) 0.3817(3)
N3B N 0.2827(6) 0.9931(3) 0.6981(3)
H17B H 0.2592 1.0183 0.7380
N4B N 0.3917(6) 0.8989(3) 0.6283(3)
O1B O 0.7716(8) 0.7385(4) 0.6177(3)
O2B O 0.7483(5) 0.8017(3) 0.7247(3)
Pb1B_2 Pb 1.00969(3) 1.158910(15) 1.317514(12)
O4B_2 O -0.0078(7) 1.0776(4) 0.1960(3)
loop_
_geom_bond_atom_site_label_1
_geom_bond_atom_site_label_2
_geom_bond_site_symmetry_1
_geom_bond_site_symmetry_2
Pb1 N1 1_555 1_555
C1 H1 1_555 1_555
C2 C1 1_555 1_555
H2 C2 1_555 1_555
C3 C2 1_555 1_555
H3 C3 1_555 1_555
C4 C3 1_555 1_555
C5 C4 1_555 1_555
C6 C5 1_555 1_555
C7 C6 1_555 1_555
C8 C7 1_555 1_555
H4 C8 1_555 1_555
C9 C8 1_555 1_555
H5 C9 1_555 1_555
C10 C9 1_555 1_555
H6 C10 1_555 1_555
C11 C7 1_555 1_555
C12 C4 1_555 1_555
C13 C14 1_555 1_555
C14 C15 1_555 1_555
C15 H7 1_555 1_555
C16 C15 1_555 1_555
H8 C16 1_555 1_555
C17 C16 1_555 1_555
H9 C17 1_555 1_555
C18 C17 1_555 1_555
H10 C18 1_555 1_555
C19 C14 1_555 1_555
C20 C19 1_555 1_555
C21 C20 1_555 1_555
H11 C21 1_555 1_555
C22 C21 1_555 1_555
H12 C22 1_555 1_555
C23 C22 1_555 1_555
H13 C23 1_555 1_555
C24 C23 1_555 1_555
H14 C24 1_555 1_555
C25 C20 1_555 1_555
C26 C25 1_555 1_555
C27 C28 1_555 1_555
C28 C29 1_555 1_555
C29 H15 1_555 1_555
C30 C28 1_555 1_555
H16 C30 1_555 1_555
N1 C1 1_555 1_555
N2 Pb1 1_555 1_555
N3 C5 1_555 1_555
H17 N3 1_555 1_555
N4 C6 1_555 1_555
O1 C26 1_555 1_555
O2 C26 1_555 1_555
O3 C27 1_555 1_555
O4 Pb1 1_555 1_555
C27B C28B 1_555 1_555
C28B C29B 1_555 1_555
C29B C30 1_555 1_555
H15B C29B 1_555 1_555
C30B C29 1_555 1_555
H16B C30B 1_555 1_555
O3B C27B 1_555 1_555
O4B C27B 1_555 1_555
Pb1B O1 1_555 1_555
C1B H1B 1_555 1_555
C2B C1B 1_555 1_555
H2B C2B 1_555 1_555
C3B C2B 1_555 1_555
H3B C3B 1_555 1_555
C4B C3B 1_555 1_555
C5B C4B 1_555 1_555
C6B C5B 1_555 1_555
C7B C6B 1_555 1_555
C8B C7B 1_555 1_555
H4B C8B 1_555 1_555
C9B C8B 1_555 1_555
H5B C9B 1_555 1_555
C10B C9B 1_555 1_555
H6B C10B 1_555 1_555
C11B C7B 1_555 1_555
C12B C4B 1_555 1_555
C13B C14B 1_555 1_555
C14B C15B 1_555 1_555
C15B H7B 1_555 1_555
C16B C15B 1_555 1_555
H8B C16B 1_555 1_555
C17B C16B 1_555 1_555
H9B C17B 1_555 1_555
C18B C17B 1_555 1_555
H10B C18B 1_555 1_555
C19B C14B 1_555 1_555
C20B C19B 1_555 1_555
C21B C20B 1_555 1_555
H11B C21B 1_555 1_555
C22B C21B 1_555 1_555
H12B C22B 1_555 1_555
C23B C22B 1_555 1_555
H13B C23B 1_555 1_555
C24B C23B 1_555 1_555
H14B C24B 1_555 1_555
C25B C20B 1_555 1_555
C26B C25B 1_555 1_555
N1B Pb1B 1_555 1_555
N2B Pb1B 1_555 1_555
N3B C5B 1_555 1_555
H17B N3B 1_555 1_555
N4B C6B 1_555 1_555
O1B Pb1 1_555 1_555
O2B Pb1 1_555 1_555
Pb1B_2 O4B 1_555 1_555
O4B_2 Pb1B 1_555 1_555
C10 N2 1_555 1_555
C11 C12 1_555 1_555
C11 N2 1_555 1_555
C12 N1 1_555 1_555
C13 N3 1_555 1_555
C13 N4 1_555 1_555
C18 C19 1_555 1_555
C24 C25 1_555 1_555
C27 O4 1_555 1_555
O2 Pb1B 1_555 1_555
C28B C30B 1_555 1_555
C1B N1B 1_555 1_555
C10B N2B 1_555 1_555
C11B C12B 1_555 1_555
C11B N2B 1_555 1_555
C12B N1B 1_555 1_555
C13B N3B 1_555 1_555
C13B N4B 1_555 1_555
C18B C19B 1_555 1_555
C24B C25B 1_555 1_555
C26B O1B 1_555 1_555
C26B O2B 1_555 1_555

#END
