
#######################################################################
#
#                 Cambridge Crystallographic Data Centre
#                                CCDC 
#
#######################################################################
#
# If this CIF has been generated from an entry in the Cambridge 
# Structural Database, then it will include bibliographic, chemical, 
# crystal, experimental, refinement or atomic coordinate data resulting 
# from the CCDC's data processing and validation procedures.
#
#######################################################################

data_VIGPOS
_symmetry_cell_setting           triclinic
_symmetry_space_group_name_H-M   'P -1'
_symmetry_Int_Tables_number      2
_space_group_name_Hall           '-P 1'
loop_
_symmetry_equiv_pos_site_id
_symmetry_equiv_pos_as_xyz
1 x,y,z
2 -x,-y,-z
_cell_length_a                   10.5264(13)
_cell_length_b                   12.9839(16)
_cell_length_c                   14.3384(17)
_cell_angle_alpha                84.637(2)
_cell_angle_beta                 69.806(2)
_cell_angle_gamma                85.307(2)
_cell_volume                     1828.59
loop_
_atom_site_label
_atom_site_type_symbol
_atom_site_fract_x
_atom_site_fract_y
_atom_site_fract_z
Cu1 Cu 0.52249(4) 0.54560(3) 0.61928(3)
C1 C 0.4126(4) 0.7306(3) 0.5352(3)
C2 C 0.3021(4) 0.8050(3) 0.5430(3)
C3 C 0.3237(4) 0.9004(3) 0.4861(3)
H1 H 0.2489 0.9489 0.4929
C4 C 0.4493(5) 0.9258(3) 0.4208(3)
C5 C 0.5562(4) 0.8544(3) 0.4144(3)
H2 H 0.6438 0.8709 0.3702
C6 C 0.5417(4) 0.7585(3) 0.4700(3)
C7 C 0.6630(4) 0.6911(3) 0.4555(3)
H3 H 0.7442 0.7122 0.4051
C8 C 0.7942(4) 0.5398(3) 0.4795(3)
H4 H 0.8734 0.5828 0.4481
H5 H 0.7938 0.4891 0.4321
C9 C 0.8015(4) 0.4839(3) 0.5755(4)
H6 H 0.8690 0.4245 0.5607
H7 H 0.8286 0.5316 0.6144
C10 C 0.6506(4) 0.3583(3) 0.6822(3)
H8 H 0.7300 0.3169 0.6805
C11 C 0.5225(4) 0.3178(3) 0.7402(3)
C12 C 0.5262(5) 0.2201(3) 0.7933(3)
H9 H 0.6117 0.1881 0.7905
C13 C 0.4112(5) 0.1704(3) 0.8484(3)
C14 C 0.2886(5) 0.2168(3) 0.8474(3)
H10 H 0.2082 0.1817 0.8825
C15 C 0.2772(4) 0.3129(3) 0.7971(3)
C16 C 0.3940(4) 0.3670(3) 0.7439(3)
C17 C 0.4173(6) 0.0682(4) 0.9081(4)
H11 H 0.5048 0.0311 0.8774
H12 H 0.3439 0.0260 0.9091
H13 H 0.4074 0.0817 0.9765
C18 C 0.1439(4) 0.3559(3) 0.7964(3)
H14 H 0.1397 0.4191 0.7583
C19 C -0.0916(5) 0.3586(4) 0.8342(4)
H15 H -0.1313 0.3092 0.8048
H16 H -0.0732 0.4222 0.7890
C20 C -0.1913(5) 0.3848(4) 0.9348(4)
H17 H -0.2839 0.3923 0.9312
H18 H -0.1893 0.3270 0.9846
C21 C -0.1603(5) 0.4835(5) 0.9689(4)
H19 H -0.2047 0.4845 1.0420
H20 H -0.0613 0.4850 0.9537
C22 C -0.1348(5) 0.6664(4) 0.9211(3)
H21 H -0.1260 0.6669 0.9875
H22 H -0.1891 0.7297 0.9112
C23 C 0.0058(4) 0.6704(4) 0.8423(3)
H23 H 0.0524 0.7289 0.8533
H24 H 0.0591 0.6057 0.8498
C24 C 0.0018(4) 0.6833(4) 0.7375(3)
H25 H -0.0321 0.6202 0.7223
H26 H -0.0611 0.7426 0.7319
C25 C 0.1696(4) 0.7861(3) 0.6095(3)
H27 H 0.1003 0.8389 0.6130
C26 C -0.3540(4) 0.5971(4) 0.9700(3)
H28 H -0.3680 0.6413 1.0258
H29 H -0.3965 0.5308 0.9984
C27 C -0.4229(4) 0.6498(3) 0.9013(3)
C28 C -0.5063(5) 0.7394(3) 0.9233(3)
H30 H -0.5160 0.7734 0.9814
C29 C -0.5751(5) 0.7786(3) 0.8598(3)
H31 H -0.6335 0.8392 0.8742
C30 C -0.5574(4) 0.7288(3) 0.7759(3)
H32 H -0.6049 0.7565 0.7328
C31 C -0.4110(4) 0.6059(3) 0.8136(3)
H33 H -0.3525 0.5457 0.7968
C32 C 0.4703(5) 1.0280(3) 0.3586(3)
H34 H 0.4330 1.0263 0.3050
H35 H 0.5675 1.0394 0.3298
H36 H 0.4242 1.0844 0.4008
O1 O 0.3885(3) 0.6417(2) 0.5887(2)
O2 O 0.3808(3) 0.4587(2) 0.6992(2)
N1 N 0.6678(3) 0.6055(3) 0.5057(2)
N2 N 0.6658(4) 0.4475(3) 0.6319(3)
N3 N 0.0353(4) 0.3128(3) 0.8439(3)
N4 N -0.2078(4) 0.5765(3) 0.9200(3)
N5 N 0.1366(3) 0.7012(3) 0.6662(3)
H37 H 0.2000 0.6513 0.6610
N6 N -0.4764(3) 0.6427(3) 0.7509(2)
Cu1_2 Cu -0.47751(4) 0.54560(3) 0.61928(3)
N6_2 N 0.5236(3) 0.6427(3) 0.7509(2)
C33 C 0.9350(13) 0.0601(10) 0.8647(10)
H38 H 0.8545 0.0231 0.8714
H39 H 0.9545 0.1097 0.8063
H40 H 0.9186 0.0973 0.9245
C34 C 1.0561(17) -0.0177(11) 0.8520(12)
N7 N 1.1479(14) -0.0732(11) 0.8213(12)
Cl1 Cl 0.9713(9) 0.8097(6) 0.4390(6)
O3 O 1.1005(11) 0.8583(9) 0.4135(9)
O4 O 0.8652(11) 0.8819(9) 0.4417(12)
O5 O 0.9444(15) 0.7404(12) 0.5278(10)
O6 O 0.9894(7) 0.7414(6) 0.3595(6)
O11 O 0.1553(9) 0.0742(7) 0.3056(9)
H41 H 0.1426 0.0098 0.3100
H42 H 0.1576 0.0895 0.3614
Cl2? Cl 0.9940(12) 0.8415(9) 0.4119(10)
O7? O 0.8965(13) 0.8666(12) 0.3639(11)
O8? O 1.1320(16) 0.8615(13) 0.3393(14)
O9? O 0.995(2) 0.7352(19) 0.456(2)
O10? O 0.9756(16) 0.9166(12) 0.4896(12)
loop_
_geom_bond_atom_site_label_1
_geom_bond_atom_site_label_2
_geom_bond_site_symmetry_1
_geom_bond_site_symmetry_2
Cu1 O1 1_555 1_555
C1 C2 1_555 1_555
C2 C3 1_555 1_555
C3 H1 1_555 1_555
C4 C3 1_555 1_555
C5 C4 1_555 1_555
H2 C5 1_555 1_555
C6 C1 1_555 1_555
C7 C6 1_555 1_555
H3 C7 1_555 1_555
C8 H4 1_555 1_555
H5 C8 1_555 1_555
C9 C8 1_555 1_555
H6 C9 1_555 1_555
H7 C9 1_555 1_555
C10 H8 1_555 1_555
C11 C10 1_555 1_555
C12 C11 1_555 1_555
H9 C12 1_555 1_555
C13 C12 1_555 1_555
C14 C13 1_555 1_555
H10 C14 1_555 1_555
C15 C14 1_555 1_555
C16 C11 1_555 1_555
C17 C13 1_555 1_555
H11 C17 1_555 1_555
H12 C17 1_555 1_555
H13 C17 1_555 1_555
C18 C15 1_555 1_555
H14 C18 1_555 1_555
C19 H15 1_555 1_555
H16 C19 1_555 1_555
C20 C19 1_555 1_555
H17 C20 1_555 1_555
H18 C20 1_555 1_555
C21 C20 1_555 1_555
H19 C21 1_555 1_555
H20 C21 1_555 1_555
C22 H21 1_555 1_555
H22 C22 1_555 1_555
C23 C22 1_555 1_555
H23 C23 1_555 1_555
H24 C23 1_555 1_555
C24 C23 1_555 1_555
H25 C24 1_555 1_555
H26 C24 1_555 1_555
C25 C2 1_555 1_555
H27 C25 1_555 1_555
C26 H28 1_555 1_555
H29 C26 1_555 1_555
C27 C26 1_555 1_555
C28 C27 1_555 1_555
H30 C28 1_555 1_555
C29 C28 1_555 1_555
H31 C29 1_555 1_555
C30 C29 1_555 1_555
H32 C30 1_555 1_555
C31 C27 1_555 1_555
H33 C31 1_555 1_555
C32 C4 1_555 1_555
H34 C32 1_555 1_555
H35 C32 1_555 1_555
H36 C32 1_555 1_555
O1 C1 1_555 1_555
O2 Cu1 1_555 1_555
N1 Cu1 1_555 1_555
N2 Cu1 1_555 1_555
N3 C18 1_555 1_555
N4 C21 1_555 1_555
N5 C24 1_555 1_555
H37 N5 1_555 1_555
N6 C30 1_555 1_555
C33 H38 1_555 1_555
H39 C33 1_555 1_555
H40 C33 1_555 1_555
C34 C33 1_555 1_555
N7 C34 1_555 1_555
Cl1 O3 1_555 1_555
O4 Cl1 1_555 1_555
O5 Cl1 1_555 1_555
O6 Cl1 1_555 1_555
O11 H41 1_555 1_555
H42 O11 1_555 1_555
Cu1_2 N6 1_555 1_555
N6_2 Cu1 1_555 1_555
C5 C6 1_555 1_555
C7 N1 1_555 1_555
C8 N1 1_555 1_555
C9 N2 1_555 1_555
C10 N2 1_555 1_555
C15 C16 1_555 1_555
C16 O2 1_555 1_555
C19 N3 1_555 1_555
C22 N4 1_555 1_555
C25 N5 1_555 1_555
C26 N4 1_555 1_555
C31 N6 1_555 1_555

#END
