
#######################################################################
#
#                 Cambridge Crystallographic Data Centre
#                                CCDC 
#
#######################################################################
#
# If this CIF has been generated from an entry in the Cambridge 
# Structural Database, then it will include bibliographic, chemical, 
# crystal, experimental, refinement or atomic coordinate data resulting 
# from the CCDC's data processing and validation procedures.
#
#######################################################################

data_VIGPIM
_symmetry_cell_setting           orthorhombic
_symmetry_space_group_name_H-M   'P c a 21'
_symmetry_Int_Tables_number      29
_space_group_name_Hall           'P 2c -2ac'
loop_
_symmetry_equiv_pos_site_id
_symmetry_equiv_pos_as_xyz
1 x,y,z
2 -x,-y,1/2+z
3 1/2-x,y,1/2+z
4 1/2+x,-y,z
_cell_length_a                   12.3650(9)
_cell_length_b                   11.5878(10)
_cell_length_c                   21.7428(18)
_cell_angle_alpha                90
_cell_angle_beta                 90
_cell_angle_gamma                90
_cell_volume                     3115.38
loop_
_atom_site_label
_atom_site_type_symbol
_atom_site_fract_x
_atom_site_fract_y
_atom_site_fract_z
O1 O 0.8834(9) 0.0010(12) 0.8691(6)
H1 H 0.6982 -0.1736 0.9270
H2 H 0.7294 -0.1587 0.9921
O2 O 0.7168(10) -0.1323(12) 0.9566(6)
La1 La 0.73511(6) 0.08441(9) 0.93768(4)
H3 H 0.623(12) 0.324(13) 0.920(6)
La2 La 1.05882(6) 0.41301(9) 0.81495(4)
C1 C 0.5498(13) 0.0564(17) 1.0614(7)
C2 C 0.5086(15) 0.0442(17) 1.1192(8)
H4 H 0.4402 0.0125 1.1248
C3 C 0.5675(14) 0.0784(18) 1.1683(8)
H5 H 0.5406 0.0674 1.2079
C4 C 0.6667(13) 0.1293(16) 1.1601(8)
H6 H 0.7072 0.1543 1.1936
C5 C 0.7045(13) 0.1423(16) 1.1008(8)
C6 C 0.8071(12) 0.2043(15) 1.0849(7)
C7 C 0.8753(13) 0.2506(16) 1.1298(8)
H7 H 0.8600 0.2402 1.1713
C8 C 0.9658(15) 0.3122(18) 1.1118(9)
H8 H 1.0119 0.3439 1.1411
C9 C 0.9872(15) 0.3264(18) 1.0495(10)
H9 H 1.0475 0.3677 1.0365
C10 C 0.9181(14) 0.2785(16) 1.0078(8)
C11 C 0.4880(15) 0.0251(16) 1.0041(8)
C12 C 0.9338(12) 0.2864(15) 0.9387(9)
C13 C 0.8633(13) 0.4383(14) 0.6963(8)
C14 C 0.8136(13) 0.4536(15) 0.6407(7)
H10 H 0.7440 0.4835 0.6381
C15 C 0.8701(14) 0.4234(18) 0.5889(8)
H11 H 0.8414 0.4369 0.5501
C16 C 0.9702(15) 0.3725(19) 0.5955(9)
H12 H 1.0067 0.3462 0.5608
C17 C 1.0169(13) 0.3599(15) 0.6526(7)
C18 C 1.1212(14) 0.3036(17) 0.6626(8)
C19 C 1.1815(14) 0.2511(18) 0.6161(8)
H13 H 1.1578 0.2542 0.5756
C20 C 1.2766(16) 0.194(2) 0.6306(10)
H14 H 1.3170 0.1592 0.5999
C21 C 1.3113(15) 0.1903(16) 0.6907(10)
H15 H 1.3757 0.1541 0.7015
C22 C 1.2452(16) 0.2431(16) 0.7348(8)
O3 O 0.7068(9) 0.4824(12) 0.7556(6)
C23 C 1.2795(13) 0.2453(16) 0.8033(10)
N1 N 0.6495(10) 0.1025(14) 1.0507(7)
N2 N 0.8293(10) 0.2198(12) 1.0251(6)
N3 N 0.9651(10) 0.3950(12) 0.7033(6)
N4 N 1.1537(10) 0.2982(13) 0.7211(6)
N5 N 0.6498(11) 0.0664(15) 0.8001(6)
O4 O 0.3906(9) 0.0021(12) 1.0096(5)
O5 O 0.5403(8) 0.0272(11) 0.9537(5)
O6 O 0.8634(9) 0.2390(12) 0.9061(5)
O7 O 1.0153(9) 0.3396(13) 0.9205(5)
O8 O 0.8587(8) 0.4477(11) 0.8066(6)
O9 O 1.2146(9) 0.2877(12) 0.8396(5)
O10 O 1.3710(8) 0.2063(11) 0.8166(7)
O11 O 0.6213(10) 0.2629(13) 0.9380(9)
H16 H 0.6018 0.2916 0.9719
H17 H 0.9339 -0.0414 0.8839
H18 H 0.8832 0.0153 0.8309
O12 O 1.0281(10) 0.6312(12) 0.7956(6)
H19 H 0.9690 0.6539 0.7764
H20 H 1.0781 0.6759 0.8088
O13 O 0.9875(10) 0.2050(11) 0.8030(5)
H21 H 0.9247 0.1912 0.7844
H22 H 1.0277 0.1537 0.8178
O14 O 1.1857(9) 0.5273(12) 0.8899(5)
H23 H 1.2491 0.4935 0.9043
H24 H 1.1674 0.6017 0.9022
O15 O 0.6913(11) 0.1597(11) 0.8197(7)
O16 O 0.6465(10) -0.0167(12) 0.8365(5)
O17 O 0.6140(13) 0.0597(17) 0.7474(6)
C24 C 0.8056(14) 0.4590(17) 0.7576(8)
La1C La 0.23511(6) -0.08441(9) 0.93768(4)
La2C La 0.55882(6) 0.58699(9) 0.81495(4)
O3C O 1.2068(9) 0.5176(12) 0.7556(6)
O4C O 0.8906(9) -0.0021(12) 1.0096(5)
N6 N 0.3676(13) 0.3680(17) 0.9602(7)
O18 O 0.4164(12) 0.4390(14) 0.9276(10)
O19 O 0.4026(10) 0.2699(12) 0.9690(6)
O20 O 0.2773(12) 0.3955(14) 0.9828(7)
loop_
_geom_bond_atom_site_label_1
_geom_bond_atom_site_label_2
_geom_bond_site_symmetry_1
_geom_bond_site_symmetry_2
O1 La1 1_555 1_555
H1 O2 1_555 1_555
H2 O2 1_555 1_555
O2 La1 1_555 1_555
La1 N1 1_555 1_555
H3 O11 1_555 1_555
La2 N3 1_555 1_555
C1 C2 1_555 1_555
C2 H4 1_555 1_555
C3 C2 1_555 1_555
H5 C3 1_555 1_555
C4 C3 1_555 1_555
H6 C4 1_555 1_555
C5 C4 1_555 1_555
C6 C5 1_555 1_555
C7 C6 1_555 1_555
H7 C7 1_555 1_555
C8 C7 1_555 1_555
H8 C8 1_555 1_555
C9 C8 1_555 1_555
H9 C9 1_555 1_555
C10 C9 1_555 1_555
C11 C1 1_555 1_555
C12 C10 1_555 1_555
C13 C14 1_555 1_555
C14 H10 1_555 1_555
C15 C14 1_555 1_555
H11 C15 1_555 1_555
C16 C15 1_555 1_555
H12 C16 1_555 1_555
C17 C16 1_555 1_555
C18 C17 1_555 1_555
C19 C18 1_555 1_555
H13 C19 1_555 1_555
C20 C19 1_555 1_555
H14 C20 1_555 1_555
C21 C20 1_555 1_555
H15 C21 1_555 1_555
C22 C21 1_555 1_555
O3 C24 1_555 1_555
C23 C22 1_555 1_555
N1 C1 1_555 1_555
N2 La1 1_555 1_555
N3 C13 1_555 1_555
N4 La2 1_555 1_555
N5 O15 1_555 1_555
O4 C11 1_555 1_555
O5 La1 1_555 1_555
O6 La1 1_555 1_555
O7 La2 1_555 1_555
O8 La2 1_555 1_555
O9 La2 1_555 1_555
O10 C23 1_555 1_555
O11 La1 1_555 1_555
H16 O11 1_555 1_555
H17 O1 1_555 1_555
H18 O1 1_555 1_555
O12 La2 1_555 1_555
H19 O12 1_555 1_555
H20 O12 1_555 1_555
O13 La2 1_555 1_555
H21 O13 1_555 1_555
H22 O13 1_555 1_555
O14 La2 1_555 1_555
H23 O14 1_555 1_555
H24 O14 1_555 1_555
O15 La1 1_555 1_555
O16 La1 1_555 1_555
O17 N5 1_555 1_555
C24 C13 1_555 1_555
N6 O18 1_555 1_555
O19 N6 1_555 1_555
O20 N6 1_555 1_555
La1C O4 1_555 1_555
La2C O3 1_555 1_555
O3C La2 1_555 1_555
O4C La1 1_555 1_555
C5 N1 1_555 1_555
C6 N2 1_555 1_555
C10 N2 1_555 1_555
C11 O5 1_555 1_555
C12 O6 1_555 1_555
C12 O7 1_555 1_555
C17 N3 1_555 1_555
C18 N4 1_555 1_555
C22 N4 1_555 1_555
C23 O9 1_555 1_555
N5 O16 1_555 1_555
O8 C24 1_555 1_555

#END
