
#######################################################################
#
#                 Cambridge Crystallographic Data Centre
#                                CCDC 
#
#######################################################################
#
# If this CIF has been generated from an entry in the Cambridge 
# Structural Database, then it will include bibliographic, chemical, 
# crystal, experimental, refinement or atomic coordinate data resulting 
# from the CCDC's data processing and validation procedures.
#
#######################################################################

data_VIGQOT
_symmetry_cell_setting           triclinic
_symmetry_space_group_name_H-M   'P -1'
_symmetry_Int_Tables_number      2
_space_group_name_Hall           '-P 1'
loop_
_symmetry_equiv_pos_site_id
_symmetry_equiv_pos_as_xyz
1 x,y,z
2 -x,-y,-z
_cell_length_a                   11.8321(4)
_cell_length_b                   12.7583(4)
_cell_length_c                   26.1784(10)
_cell_angle_alpha                100.353(2)
_cell_angle_beta                 92.399(2)
_cell_angle_gamma                113.730(2)
_cell_volume                     3530.09
loop_
_atom_site_label
_atom_site_type_symbol
_atom_site_fract_x
_atom_site_fract_y
_atom_site_fract_z
Cd1 Cd 0.45662(4) 0.89122(4) 0.040934(19)
Cd2 Cd 1.01739(4) 1.38260(4) 0.232214(19)
Cd3 Cd 0.96932(5) 1.24994(5) 0.39228(2)
P1 P 0.86373(16) 1.12295(15) 0.26855(7)
P2 P 0.47836(16) 1.19546(15) 0.07237(7)
P3 P 1.08487(18) 1.50870(16) 0.35721(7)
N1 N 0.2441(5) 0.8372(5) 0.0270(2)
N2 N 0.3525(5) 0.7004(5) 0.0568(2)
N3 N 1.1331(6) 1.5651(5) 0.2096(2)
N4 N 1.2261(5) 1.4142(5) 0.2340(2)
N5 N 0.8889(8) 1.0692(6) 0.4175(3)
N6 N 1.1205(7) 1.1791(6) 0.3923(3)
C1 C 0.8940(6) 0.9988(6) 0.2769(3)
C2 C 1.0098(7) 0.9977(7) 0.2731(3)
H1 H 1.0736 1.0611 0.2643
C3 C 1.0318(9) 0.9040(8) 0.2820(3)
H2 H 1.1106 0.9055 0.2794
C4 C 0.9426(10) 0.8107(8) 0.2944(4)
H3 H 0.9589 0.7481 0.3002
C5 C 0.8267(9) 0.8089(7) 0.2983(3)
H4 H 0.7642 0.7442 0.3068
C6 C 0.8011(8) 0.9021(7) 0.2900(3)
H5 H 0.7222 0.8999 0.2931
C7 C 0.7279(6) 1.0676(6) 0.2210(3)
H6 H 0.6593 1.0099 0.2336
H7 H 0.7054 1.1316 0.2177
C8 C 0.7451(6) 1.0116(6) 0.1668(3)
H8 H 0.8166 1.0687 0.1552
H9 H 0.7646 0.9461 0.1702
C9 C 0.6371(6) 0.9687(6) 0.1252(3)
C10 C 0.3358(6) 1.1527(6) 0.1015(3)
C11 C 0.2506(7) 1.1989(6) 0.0917(3)
H10 H 0.2670 1.2517 0.0698
C12 C 0.1391(7) 1.1654(8) 0.1150(3)
H11 H 0.0820 1.1960 0.1082
C13 C 0.1156(8) 1.0895(8) 0.1470(3)
H12 H 0.0411 1.0663 0.1614
C14 C 0.2003(8) 1.0458(7) 0.1586(4)
H13 H 0.1849 0.9960 0.1819
C15 C 0.3092(7) 1.0768(6) 0.1352(3)
H14 H 0.3654 1.0457 0.1425
C16 C 0.6023(6) 1.2535(6) 0.1251(3)
H15 H 0.6048 1.3264 0.1451
H16 H 0.5850 1.1989 0.1483
C17 C 0.7285(6) 1.2759(7) 0.1074(3)
H17 H 0.7227 1.2046 0.0845
H18 H 0.7482 1.3357 0.0868
C18 C 0.8338(6) 1.3140(6) 0.1501(3)
C19 C 1.2324(7) 1.6212(7) 0.3506(3)
C20 C 1.2359(9) 1.7206(7) 0.3353(3)
H19 H 1.1621 1.7276 0.3277
C21 C 1.3480(12) 1.8094(9) 0.3312(4)
H20 H 1.3506 1.8770 0.3217
C22 C 1.4564(12) 1.7962(12) 0.3416(5)
H21 H 1.5322 1.8550 0.3381
C23 C 1.4545(10) 1.7025(12) 0.3562(5)
H22 H 1.5288 1.6962 0.3633
C24 C 1.3408(8) 1.6111(9) 0.3612(4)
H23 H 1.3399 1.5449 0.3715
C25 C 1.0281(7) 1.5726(6) 0.4116(3)
H24 H 1.0125 1.6368 0.4029
H25 H 0.9499 1.5142 0.4180
C26 C 1.1208(7) 1.6179(6) 0.4610(3)
H26 H 1.1461 1.5565 0.4659
H27 H 1.1943 1.6834 0.4556
C27 C 1.0748(9) 1.6570(6) 0.5104(3)
C28 C 0.1913(7) 0.9009(7) 0.0105(3)
H28 H 0.2411 0.9702 0.0009
C29 C 0.0635(8) 0.8671(8) 0.0072(3)
H29 H 0.0280 0.9111 -0.0064
C30 C -0.0100(8) 0.7687(8) 0.0239(4)
H30 H -0.0949 0.7484 0.0237
C31 C 0.0419(6) 0.6991(7) 0.0412(3)
C32 C -0.0293(7) 0.5927(8) 0.0567(3)
H31 H -0.1144 0.5700 0.0573
C33 C 0.0216(7) 0.5252(8) 0.0704(3)
H32 H -0.0278 0.4567 0.0807
C34 C 0.1517(7) 0.5563(6) 0.0696(3)
C35 C 0.2094(8) 0.4864(7) 0.0822(3)
H33 H 0.1637 0.4154 0.0914
C36 C 0.3350(8) 0.5248(7) 0.0806(3)
H34 H 0.3747 0.4781 0.0874
C37 C 0.4034(7) 0.6327(7) 0.0690(3)
H35 H 0.4891 0.6582 0.0700
C38 C 0.2282(6) 0.6641(6) 0.0561(3)
C39 C 0.1706(6) 0.7370(6) 0.0415(3)
C40 C 1.0889(8) 1.6386(7) 0.1983(3)
H36 H 1.0040 1.6180 0.1980
C41 C 1.1631(9) 1.7463(8) 0.1869(3)
H37 H 1.1286 1.7964 0.1791
C42 C 1.2872(9) 1.7761(7) 0.1873(3)
H38 H 1.3384 1.8474 0.1796
C43 C 1.3387(7) 1.7005(7) 0.1991(3)
C44 C 1.4662(9) 1.7249(8) 0.1999(3)
H39 H 1.5203 1.7953 0.1924
C45 C 1.5119(8) 1.6502(8) 0.2110(4)
H40 H 1.5965 1.6692 0.2109
C46 C 1.4333(7) 1.5434(7) 0.2227(3)
C47 C 1.4748(8) 1.4631(9) 0.2344(4)
H41 H 1.5582 1.4775 0.2336
C48 C 1.3948(9) 1.3627(9) 0.2472(4)
H42 H 1.4232 1.3095 0.2562
C49 C 1.2711(8) 1.3416(8) 0.2465(3)
H43 H 1.2167 1.2730 0.2554
C50 C 1.3060(6) 1.5142(6) 0.2222(3)
C51 C 1.2566(7) 1.5949(6) 0.2101(3)
C52 C 0.7752(10) 1.0142(9) 0.4294(4)
H44 H 0.7189 1.0474 0.4262
C53 C 0.7353(14) 0.9083(10) 0.4466(4)
H45 H 0.6550 0.8712 0.4548
C54 C 0.8219(18) 0.8630(10) 0.4505(5)
H46 H 0.7989 0.7940 0.4626
C55 C 0.9397(15) 0.9134(9) 0.4377(4)
C56 C 1.0312(18) 0.8724(12) 0.4430(5)
H47 H 1.0111 0.8055 0.4566
C57 C 1.1377(16) 0.9188(13) 0.4310(5)
H48 H 1.1933 0.8849 0.4342
C58 C 1.1756(14) 1.0276(11) 0.4116(4)
C59 C 1.2923(15) 1.0879(13) 0.3984(6)
H49 H 1.3514 1.0576 0.4010
C60 C 1.3248(11) 1.1901(12) 0.3815(5)
H50 H 1.4033 1.2297 0.3720
C61 C 1.2327(9) 1.2311(9) 0.3794(4)
H51 H 1.2519 1.3005 0.3680
C62 C 1.0909(10) 1.0778(8) 0.4087(3)
C63 C 0.9685(10) 1.0207(8) 0.4213(3)
O1 O 0.9740(4) 1.2044(4) 0.24739(18)
O2 O 0.8318(4) 1.1728(4) 0.31994(17)
O3 O 0.5353(4) 0.9706(4) 0.13511(19)
O4 O 0.6509(4) 0.9292(4) 0.07864(18)
O5 O 0.4831(4) 1.0852(4) 0.03857(16)
O6 O 0.4884(4) 1.2867(4) 0.04123(19)
O7 O 0.9309(4) 1.3013(4) 0.14061(19)
O8 O 0.8245(5) 1.3615(5) 0.1958(2)
O9 O 1.1072(5) 1.4078(4) 0.37009(19)
O10 O 0.9962(4) 1.4814(4) 0.30868(18)
O11 O 0.9707(5) 1.6561(5) 0.5109(2)
O12 O 1.1515(6) 1.6931(5) 0.5532(2)
Cd1A Cd 0.54338(4) 1.10878(4) -0.040934(19)
Cd3A Cd 1.03068(5) 1.75006(5) 0.60772(2)
O5A O 0.5169(4) 0.9148(4) -0.03857(16)
O11A O 1.0293(5) 1.3439(5) 0.4891(2)
O12A O 0.8485(6) 1.3069(5) 0.4468(2)
O13 O 0.3085(5) 1.2799(5) -0.0319(2)
O14 O 0.6542(7) 1.5194(6) 0.0774(3)
O15 O 0.7650(9) 1.5687(8) 0.1810(4)
O16 O 0.5975(11) 1.1464(17) 0.3382(6)
O17 O 1.2874(13) 1.4346(11) 0.5279(9)
O18 O 0.7701(13) 1.4903(17) 0.2959(8)
O19 O 1.3984(14) 1.780(2) 0.5526(8)
O20 O 0.4217(18) 1.0660(15) 0.2584(6)
O21 O 0.873(3) 1.7853(19) 0.1548(8)
O22 O 1.4960(18) 1.627(2) 0.4930(9)
loop_
_geom_bond_atom_site_label_1
_geom_bond_atom_site_label_2
_geom_bond_site_symmetry_1
_geom_bond_site_symmetry_2
Cd1 N1 1_555 1_555
Cd2 N3 1_555 1_555
Cd3 N5 1_555 1_555
P1 C1 1_555 1_555
P2 C10 1_555 1_555
P3 C19 1_555 1_555
N1 C28 1_555 1_555
N2 Cd1 1_555 1_555
N3 C40 1_555 1_555
N4 Cd2 1_555 1_555
N5 C52 1_555 1_555
N6 Cd3 1_555 1_555
C1 C2 1_555 1_555
C2 H1 1_555 1_555
C3 C2 1_555 1_555
H2 C3 1_555 1_555
C4 C3 1_555 1_555
H3 C4 1_555 1_555
C5 C4 1_555 1_555
H4 C5 1_555 1_555
C6 C1 1_555 1_555
H5 C6 1_555 1_555
C7 P1 1_555 1_555
H6 C7 1_555 1_555
H7 C7 1_555 1_555
C8 C7 1_555 1_555
H8 C8 1_555 1_555
H9 C8 1_555 1_555
C9 C8 1_555 1_555
C10 C11 1_555 1_555
C11 H10 1_555 1_555
C12 C11 1_555 1_555
H11 C12 1_555 1_555
C13 C12 1_555 1_555
H12 C13 1_555 1_555
C14 C13 1_555 1_555
H13 C14 1_555 1_555
C15 C10 1_555 1_555
H14 C15 1_555 1_555
C16 P2 1_555 1_555
H15 C16 1_555 1_555
H16 C16 1_555 1_555
C17 C16 1_555 1_555
H17 C17 1_555 1_555
H18 C17 1_555 1_555
C18 C17 1_555 1_555
C19 C20 1_555 1_555
C20 H19 1_555 1_555
C21 C20 1_555 1_555
H20 C21 1_555 1_555
C22 C21 1_555 1_555
H21 C22 1_555 1_555
C23 C22 1_555 1_555
H22 C23 1_555 1_555
C24 C19 1_555 1_555
H23 C24 1_555 1_555
C25 P3 1_555 1_555
H24 C25 1_555 1_555
H25 C25 1_555 1_555
C26 C25 1_555 1_555
H26 C26 1_555 1_555
H27 C26 1_555 1_555
C27 C26 1_555 1_555
C28 H28 1_555 1_555
C29 C28 1_555 1_555
H29 C29 1_555 1_555
C30 C29 1_555 1_555
H30 C30 1_555 1_555
C31 C30 1_555 1_555
C32 C31 1_555 1_555
H31 C32 1_555 1_555
C33 C32 1_555 1_555
H32 C33 1_555 1_555
C34 C33 1_555 1_555
C35 C34 1_555 1_555
H33 C35 1_555 1_555
C36 C35 1_555 1_555
H34 C36 1_555 1_555
C37 N2 1_555 1_555
H35 C37 1_555 1_555
C38 N2 1_555 1_555
C39 N1 1_555 1_555
C40 H36 1_555 1_555
C41 C40 1_555 1_555
H37 C41 1_555 1_555
C42 C41 1_555 1_555
H38 C42 1_555 1_555
C43 C42 1_555 1_555
C44 C43 1_555 1_555
H39 C44 1_555 1_555
C45 C44 1_555 1_555
H40 C45 1_555 1_555
C46 C45 1_555 1_555
C47 C46 1_555 1_555
H41 C47 1_555 1_555
C48 C47 1_555 1_555
H42 C48 1_555 1_555
C49 N4 1_555 1_555
H43 C49 1_555 1_555
C50 N4 1_555 1_555
C51 N3 1_555 1_555
C52 H44 1_555 1_555
C53 C52 1_555 1_555
H45 C53 1_555 1_555
C54 C53 1_555 1_555
H46 C54 1_555 1_555
C55 C54 1_555 1_555
C56 C55 1_555 1_555
H47 C56 1_555 1_555
C57 C56 1_555 1_555
H48 C57 1_555 1_555
C58 C57 1_555 1_555
C59 C58 1_555 1_555
H49 C59 1_555 1_555
C60 C59 1_555 1_555
H50 C60 1_555 1_555
C61 N6 1_555 1_555
H51 C61 1_555 1_555
C62 N6 1_555 1_555
C63 N5 1_555 1_555
O1 Cd2 1_555 1_555
O2 Cd3 1_555 1_555
O3 Cd1 1_555 1_555
O4 Cd1 1_555 1_555
O5 Cd1 1_555 1_555
O6 P2 1_555 1_555
O7 Cd2 1_555 1_555
O8 Cd2 1_555 1_555
O9 Cd3 1_555 1_555
O10 Cd2 1_555 1_555
O11 C27 1_555 1_555
O12 C27 1_555 1_555
Cd1A O5 1_555 1_555
Cd3A O11 1_555 1_555
O5A Cd1 1_555 1_555
O11A Cd3 1_555 1_555
O12A Cd3 1_555 1_555
P1 O1 1_555 1_555
P1 O2 1_555 1_555
P2 O5 1_555 1_555
P3 O9 1_555 1_555
P3 O10 1_555 1_555
C5 C6 1_555 1_555
C9 O3 1_555 1_555
C9 O4 1_555 1_555
C14 C15 1_555 1_555
C18 O7 1_555 1_555
C18 O8 1_555 1_555
C23 C24 1_555 1_555
C31 C39 1_555 1_555
C34 C38 1_555 1_555
C36 C37 1_555 1_555
C38 C39 1_555 1_555
C43 C51 1_555 1_555
C46 C50 1_555 1_555
C48 C49 1_555 1_555
C50 C51 1_555 1_555
C55 C63 1_555 1_555
C58 C62 1_555 1_555
C60 C61 1_555 1_555
C62 C63 1_555 1_555
O12 Cd3A 1_555 1_555
Cd1A O5A 1_555 1_555

#END
