
#######################################################################
#
#                 Cambridge Crystallographic Data Centre
#                                CCDC 
#
#######################################################################
#
# If this CIF has been generated from an entry in the Cambridge 
# Structural Database, then it will include bibliographic, chemical, 
# crystal, experimental, refinement or atomic coordinate data resulting 
# from the CCDC's data processing and validation procedures.
#
#######################################################################

data_VIGRAG
_symmetry_cell_setting           monoclinic
_symmetry_space_group_name_H-M   'C 2/c'
_symmetry_Int_Tables_number      15
_space_group_name_Hall           '-C 2yn'
loop_
_symmetry_equiv_pos_site_id
_symmetry_equiv_pos_as_xyz
1 x,y,z
2 -x,y,1/2-z
3 1/2+x,1/2+y,z
4 1/2-x,1/2+y,1/2-z
5 -x,-y,-z
6 x,-y,1/2+z
7 1/2-x,1/2-y,-z
8 1/2+x,1/2-y,1/2+z
_cell_length_a                   14.9147(3)
_cell_length_b                   11.9390(2)
_cell_length_c                   22.4985(5)
_cell_angle_alpha                90
_cell_angle_beta                 95.007(2)
_cell_angle_gamma                90
_cell_volume                     3990.94
loop_
_atom_site_label
_atom_site_type_symbol
_atom_site_fract_x
_atom_site_fract_y
_atom_site_fract_z
C1 C 0.2634(3) 0.5013(3) 0.4762(2)
H1 H 0.2320 0.5600 0.4568
C2 C 0.2261(3) 0.3961(3) 0.4725(2)
H2 H 0.1705 0.3853 0.4512
C3 C 0.2702(2) 0.3068(3) 0.50017(17)
C4 C 0.3536(3) 0.3292(3) 0.52937(17)
H3 H 0.3875 0.2712 0.5475
C5 C 0.3868(3) 0.4364(3) 0.53181(18)
H4 H 0.4428 0.4494 0.5522
C6 C 0.3168(2) 0.5791(3) 0.66832(16)
C7 C 0.2303(2) 0.5210(3) 0.64664(15)
C8 C 0.1569(2) 0.5724(3) 0.61374(15)
C9 C 0.0834(2) 0.5092(3) 0.59213(15)
H5 H 0.0347 0.5442 0.5712
C10 C 0.0816(2) 0.3944(3) 0.60133(16)
C11 C 0.0026(2) 0.3268(3) 0.57614(16)
C12 C 0.1525(2) 0.3432(3) 0.63431(17)
H6 H 0.1514 0.2663 0.6410
C13 C 0.2257(2) 0.4063(3) 0.65750(17)
H7 H 0.2723 0.3715 0.6807
C14 C 0.4345(3) 0.8353(3) 0.72112(18)
H8 H 0.3873 0.7964 0.7007
C15 C 0.4320(3) 0.9505(3) 0.71956(18)
H9 H 0.3847 0.9871 0.6980
C16 C 0.5000 1.0117(4) 0.7500
C17 C 0.5000 1.1365(4) 0.7500
C18 C 0.4669(3) 1.1978(3) 0.70041(17)
H10 H 0.4428 1.1612 0.6662
C19 C 0.4698(3) 1.3128(3) 0.70212(17)
H11 H 0.4495 1.3518 0.6678
Cd1 Cd 0.363776(17) 0.70045(2) 0.537519(12)
Cd2 Cd 0.5000 0.57652(3) 0.7500
N1 N 0.3416(2) 0.5230(2) 0.50602(14)
N2 N 0.5000 0.7761(3) 0.7500
N3 N 0.5000 1.3716(3) 0.7500
O1 O 0.21263(16) 0.7376(2) 0.55128(10)
O2 O 0.06281(17) 0.7469(2) 0.57828(12)
O3 O 0.18896(19) 0.7718(2) 0.65462(12)
O4 O 0.35626(16) 0.6388(2) 0.63335(11)
O5 O 0.34798(17) 0.5578(2) 0.72070(11)
O6 O -0.07026(17) 0.3744(2) 0.55974(12)
O7 O 0.01187(17) 0.2221(2) 0.57192(11)
O8 O 0.54118(19) 0.5536(2) 0.65454(13)
H12 H 0.529(2) 0.611(3) 0.6331(17)
H13 H 0.5970(14) 0.539(3) 0.6544(19)
S1 S 0.15384(6) 0.71859(7) 0.60032(4)
C1F C 0.2366(3) -0.0013(3) 0.5238(2)
H1F H 0.2680 -0.0600 0.5432
C2F C 0.2739(3) 0.1039(3) 0.5275(2)
H2F H 0.3295 0.1147 0.5488
C3F C 0.2298(2) 0.1932(3) 0.49983(17)
C4F C 0.1464(3) 0.1708(3) 0.47063(17)
H3F H 0.1125 0.2288 0.4525
C5F C 0.1132(3) 0.0636(3) 0.46819(18)
H4F H 0.0572 0.0506 0.4478
N1F N 0.1584(2) -0.0230(2) 0.49398(14)
C14A C 0.5655(3) 0.8353(3) 0.77888(18)
H8A H 0.6127 0.7964 0.7993
C15A C 0.5680(3) 0.9505(3) 0.78044(18)
H9A H 0.6153 0.9871 0.8020
C18A C 0.5331(3) 1.1978(3) 0.79959(17)
H10A H 0.5572 1.1612 0.8338
C19A C 0.5302(3) 1.3128(3) 0.79788(17)
H11A H 0.5505 1.3518 0.8322
C6A C 0.6832(2) 0.5791(3) 0.83168(16)
C7A C 0.7697(2) 0.5210(3) 0.85336(15)
C8A C 0.8431(2) 0.5724(3) 0.88626(15)
C9A C 0.9166(2) 0.5092(3) 0.90787(15)
H5A H 0.9653 0.5442 0.9288
C10A C 0.9184(2) 0.3944(3) 0.89867(16)
C11A C 0.9974(2) 0.3268(3) 0.92386(16)
C12A C 0.8475(2) 0.3432(3) 0.86569(17)
H6A H 0.8486 0.2663 0.8590
C13A C 0.7743(2) 0.4063(3) 0.84250(17)
H7A H 0.7277 0.3715 0.8193
Cd1A Cd 0.636224(17) 0.70045(2) 0.962481(12)
O1A O 0.78737(16) 0.7376(2) 0.94872(10)
O2A O 0.93719(17) 0.7469(2) 0.92172(12)
O3A O 0.81104(19) 0.7718(2) 0.84538(12)
O4A O 0.64374(16) 0.6388(2) 0.86665(11)
O5A O 0.65202(17) 0.5578(2) 0.77930(11)
O6A O 1.07026(17) 0.3744(2) 0.94026(12)
O7A O 0.98813(17) 0.2221(2) 0.92808(11)
O8A O 0.45882(19) 0.5536(2) 0.84546(13)
H12A H 0.471(2) 0.611(3) 0.8669(17)
H13A H 0.4030(14) 0.539(3) 0.8456(19)
S1A S 0.84616(6) 0.71859(7) 0.89968(4)
Cd1B Cd -0.136224(17) 0.20045(2) 0.537519(12)
Cd1C Cd 1.136224(17) 0.20045(2) 0.962481(12)
Cd1F Cd 0.136224(17) -0.20045(2) 0.462481(12)
Cd1F_2 Cd 0.136224(17) 0.79955(2) 0.462481(12)
Cd1G Cd 0.863776(17) 0.79955(2) 1.037519(12)
Cd2_2 Cd 0.5000 1.57652(3) 0.7500
N1A N 0.6584(2) 0.5230(2) 0.99398(14)
N3_2 N 0.5000 0.3716(3) 0.7500
O1F O 0.28737(16) 0.7624(2) 0.44872(10)
O1G O 0.71263(16) 0.7624(2) 1.05128(10)
O6B O 0.42974(17) 0.8744(2) 0.55974(12)
O6C O 0.57026(17) 0.8744(2) 0.94026(12)
O7B O 0.51187(17) 0.7221(2) 0.57192(11)
O7C O 0.48813(17) 0.7221(2) 0.92808(11)
O9 O 0.7189(2) 0.5020(3) 0.67205(13)
H14 H 0.711(4) 0.4303(17) 0.6688(18)
H15 H 0.716(4) 0.521(3) 0.7078(11)
loop_
_geom_bond_atom_site_label_1
_geom_bond_atom_site_label_2
_geom_bond_site_symmetry_1
_geom_bond_site_symmetry_2
C1 H1 1_555 1_555
C2 C1 1_555 1_555
H2 C2 1_555 1_555
C3 C2 1_555 1_555
C4 C3 1_555 1_555
H3 C4 1_555 1_555
C5 C4 1_555 1_555
H4 C5 1_555 1_555
C6 C7 1_555 1_555
C7 C8 1_555 1_555
C8 C9 1_555 1_555
C9 H5 1_555 1_555
C10 C9 1_555 1_555
C11 C10 1_555 1_555
C12 C10 1_555 1_555
H6 C12 1_555 1_555
C13 C7 1_555 1_555
H7 C13 1_555 1_555
C14 H8 1_555 1_555
C15 C14 1_555 1_555
H9 C15 1_555 1_555
C16 C15 1_555 1_555
C17 C16 1_555 1_555
C18 C17 1_555 1_555
H10 C18 1_555 1_555
C19 C18 1_555 1_555
H11 C19 1_555 1_555
Cd1 N1 1_555 1_555
Cd2 N2 1_555 1_555
N1 C1 1_555 1_555
N2 C14 1_555 1_555
N3 C19 1_555 1_555
O1 Cd1 1_555 1_555
O2 S1 1_555 1_555
O3 S1 1_555 1_555
O4 C6 1_555 1_555
O5 C6 1_555 1_555
O6 C11 1_555 1_555
O7 C11 1_555 1_555
O8 Cd2 1_555 1_555
H12 O8 1_555 1_555
H13 O8 1_555 1_555
S1 C8 1_555 1_555
O9 H14 1_555 1_555
H15 O9 1_555 1_555
C1F H1F 1_555 1_555
C2F C1F 1_555 1_555
H2F C2F 1_555 1_555
C3F C3 1_555 1_555
C4F C3F 1_555 1_555
H3F C4F 1_555 1_555
C5F C4F 1_555 1_555
H4F C5F 1_555 1_555
N1F C1F 1_555 1_555
C14A N2 1_555 1_555
H8A C14A 1_555 1_555
C15A C16 1_555 1_555
H9A C15A 1_555 1_555
C18A C17 1_555 1_555
H10A C18A 1_555 1_555
C19A N3 1_555 1_555
H11A C19A 1_555 1_555
C6A C7A 1_555 1_555
C7A C8A 1_555 1_555
C8A C9A 1_555 1_555
C9A H5A 1_555 1_555
C10A C9A 1_555 1_555
C11A C10A 1_555 1_555
C12A C10A 1_555 1_555
H6A C12A 1_555 1_555
C13A C7A 1_555 1_555
H7A C13A 1_555 1_555
Cd1A O1A 1_555 1_555
O1A S1A 1_555 1_555
O2A S1A 1_555 1_555
O3A S1A 1_555 1_555
O4A C6A 1_555 1_555
O5A Cd2 1_555 1_555
O6A C11A 1_555 1_555
O7A C11A 1_555 1_555
O8A Cd2 1_555 1_555
H12A O8A 1_555 1_555
H13A O8A 1_555 1_555
S1A C8A 1_555 1_555
Cd1B O6 1_555 1_555
Cd1C O6A 1_555 1_555
Cd1F N1F 1_555 1_555
Cd1F_2 O1 1_555 1_555
Cd1G O1A 1_555 1_555
Cd2_2 N3 1_555 1_555
N1A Cd1A 1_555 1_555
N3_2 Cd2 1_555 1_555
O1F Cd1 1_555 1_555
O1G Cd1A 1_555 1_555
O6B Cd1 1_555 1_555
O6C Cd1A 1_555 1_555
O7B Cd1 1_555 1_555
O7C Cd1A 1_555 1_555
C5 N1 1_555 1_555
C12 C13 1_555 1_555
Cd1 O4 1_555 1_555
Cd2 O5 1_555 1_555
O1 S1 1_555 1_555
O7 Cd1B 1_555 1_555
C2F C3F 1_555 1_555
C5F N1F 1_555 1_555
C14A C15A 1_555 1_555
C18A C19A 1_555 1_555
C6A O5A 1_555 1_555
C12A C13A 1_555 1_555
Cd1A O4A 1_555 1_555
O7A Cd1C 1_555 1_555
Cd1F_2 O1F 1_555 1_555
Cd1G O1G 1_555 1_555

#END
