
#######################################################################
#
#                 Cambridge Crystallographic Data Centre
#                                CCDC 
#
#######################################################################
#
# If this CIF has been generated from an entry in the Cambridge 
# Structural Database, then it will include bibliographic, chemical, 
# crystal, experimental, refinement or atomic coordinate data resulting 
# from the CCDC's data processing and validation procedures.
#
#######################################################################

data_VIGRIO
_symmetry_cell_setting           monoclinic
_symmetry_space_group_name_H-M   'C 2/c'
_symmetry_Int_Tables_number      15
_space_group_name_Hall           '-C 2yn'
loop_
_symmetry_equiv_pos_site_id
_symmetry_equiv_pos_as_xyz
1 x,y,z
2 -x,y,1/2-z
3 1/2+x,1/2+y,z
4 1/2-x,1/2+y,1/2-z
5 -x,-y,-z
6 x,-y,1/2+z
7 1/2-x,1/2-y,-z
8 1/2+x,1/2-y,1/2+z
_cell_length_a                   25.0960(5)
_cell_length_b                   8.6027(2)
_cell_length_c                   18.8359(6)
_cell_angle_alpha                90
_cell_angle_beta                 130.5770(10)
_cell_angle_gamma                90
_cell_volume                     3088.67
loop_
_atom_site_label
_atom_site_type_symbol
_atom_site_fract_x
_atom_site_fract_y
_atom_site_fract_z
C1 C 0.11011(16) 0.7746(4) 0.1715(2)
C2 C 0.10200(15) 0.8457(4) 0.23642(18)
C3 C 0.08976(16) 0.7468(4) 0.2827(2)
H1 H 0.0884 0.6400 0.2741
C4 C 0.07951(15) 0.8052(4) 0.34161(19)
H2 H 0.0704 0.7379 0.3712
C5 C 0.08287(15) 0.9630(4) 0.35641(18)
C6 C 0.07161(15) 1.0318(4) 0.41960(19)
C7 C 0.09739(15) 1.0631(4) 0.31294(19)
H3 H 0.1010 1.1694 0.3244
C8 C 0.10652(15) 1.0057(4) 0.25276(19)
C9 C 0.19774(18) 0.5732(4) -0.0031(2)
H4 H 0.1908 0.6725 -0.0273
C10 C 0.22595(19) 0.4621(4) -0.0225(2)
H5 H 0.2379 0.4873 -0.0586
C11 C 0.23660(15) 0.3125(3) 0.0118(2)
C12 C 0.22055(19) 0.2861(4) 0.0690(2)
H6 H 0.2288 0.1891 0.0963
C13 C 0.1925(2) 0.4037(4) 0.0849(2)
H7 H 0.1818 0.3830 0.1228
N1 N 0.17978(15) 0.5459(3) 0.04892(18)
O1 O 0.07615(11) 0.8342(3) 0.08953(13)
O2 O 0.14881(14) 0.6625(3) 0.19507(17)
O3 O 0.05161(11) 0.9449(3) 0.45090(14)
O4 O 0.08334(13) 1.1765(3) 0.43481(16)
O5 O 0.14728(12) 1.2850(3) 0.25756(15)
O6 O 0.06267(11) 1.1697(3) 0.10650(14)
O7 O 0.18375(11) 1.0799(3) 0.21110(15)
O8 O 0.21110(13) 0.8735(3) 0.12805(17)
H8 H 0.207(2) 0.944(4) 0.154(3)
H9 H 0.2520(12) 0.836(4) 0.163(2)
O9 O 0.0249(3) 0.5688(7) -0.0415(4)
H10 H 0.023(4) 0.526(8) -0.003(4)
H11 H -0.008(3) 0.636(7) -0.074(4)
S1 S 0.12743(4) 1.14495(10) 0.20370(5)
Zn1 Zn 0.0000 1.0000 0.0000
Zn2 Zn 0.12598(2) 0.71253(5) 0.05430(3)
C9F C 0.30226(18) -0.0732(4) 0.0031(2)
H4F H 0.3092 -0.1725 0.0273
C10F C 0.27405(19) 0.0379(4) 0.0225(2)
H5F H 0.2621 0.0127 0.0586
C11F C 0.26340(15) 0.1875(3) -0.0118(2)
C12F C 0.27945(19) 0.2139(4) -0.0690(2)
H6F H 0.2712 0.3109 -0.0963
C13F C 0.3075(2) 0.0963(4) -0.0849(2)
H7F H 0.3182 0.1170 -0.1228
N1F N 0.32022(15) -0.0459(3) -0.04892(18)
C1A C -0.11011(16) 0.7746(4) 0.3285(2)
C2A C -0.10200(15) 0.8457(4) 0.26358(18)
C3A C -0.08976(16) 0.7468(4) 0.2173(2)
H1A H -0.0884 0.6400 0.2259
C4A C -0.07951(15) 0.8052(4) 0.15839(19)
H2A H -0.0704 0.7379 0.1288
C5A C -0.08287(15) 0.9630(4) 0.14359(18)
C6A C -0.07161(15) 1.0318(4) 0.08040(19)
C7A C -0.09739(15) 1.0631(4) 0.18706(19)
H3A H -0.1010 1.1694 0.1756
C8A C -0.10652(15) 1.0057(4) 0.24724(19)
O1A O -0.07615(11) 0.8342(3) 0.41047(13)
O2A O -0.14881(14) 0.6625(3) 0.30493(17)
O3A O -0.05161(11) 0.9449(3) 0.04910(14)
O4A O -0.08334(13) 1.1765(3) 0.06519(16)
O5A O -0.14728(12) 1.2850(3) 0.24244(15)
O6A O -0.06267(11) 1.1697(3) 0.39350(14)
O7A O -0.18375(11) 1.0799(3) 0.28890(15)
O8A O -0.21110(13) 0.8735(3) 0.37195(17)
H8A H -0.207(2) 0.944(4) 0.346(3)
H9A H -0.2520(12) 0.836(4) 0.337(2)
O9A O -0.0249(3) 0.5688(7) 0.5415(4)
H10A H -0.023(4) 0.526(8) 0.503(4)
H11A H 0.008(3) 0.636(7) 0.574(4)
S1A S -0.12743(4) 1.14495(10) 0.29630(5)
Zn2A Zn -0.12598(2) 0.71253(5) 0.44570(3)
N1A N -0.17978(15) 0.5459(3) 0.45108(18)
O1D O -0.07615(11) 1.1658(3) -0.08953(13)
O3E O 0.05161(11) 1.0551(3) -0.04910(14)
O4D O -0.08334(13) 0.8235(3) 0.56519(16)
O4E O 0.08334(13) 0.8235(3) -0.06519(16)
O6D O -0.06267(11) 0.8303(3) -0.10650(14)
Zn1A Zn 0.0000 1.0000 0.5000
Zn2D Zn -0.12598(2) 1.28747(5) -0.05430(3)
Zn2E Zn 0.12598(2) 1.28747(5) 0.55430(3)
Zn2F Zn 0.37402(2) -0.21253(5) -0.05430(3)
O11 O 0.9992(11) 0.5707(16) 0.8104(13)
O10? O 0.0540(16) 0.490(4) -0.003(2)
H12? H 0.0235 0.4595 -0.0591
H13? H 0.0748 0.4142 0.0350
loop_
_geom_bond_atom_site_label_1
_geom_bond_atom_site_label_2
_geom_bond_site_symmetry_1
_geom_bond_site_symmetry_2
C1 C2 1_555 1_555
C2 C3 1_555 1_555
C3 H1 1_555 1_555
C4 C3 1_555 1_555
H2 C4 1_555 1_555
C5 C4 1_555 1_555
C6 C5 1_555 1_555
C7 C5 1_555 1_555
H3 C7 1_555 1_555
C8 C2 1_555 1_555
C9 H4 1_555 1_555
C10 C9 1_555 1_555
H5 C10 1_555 1_555
C11 C10 1_555 1_555
C12 C11 1_555 1_555
H6 C12 1_555 1_555
C13 C12 1_555 1_555
H7 C13 1_555 1_555
N1 C9 1_555 1_555
O1 C1 1_555 1_555
O2 C1 1_555 1_555
O3 C6 1_555 1_555
O4 C6 1_555 1_555
O5 S1 1_555 1_555
O6 S1 1_555 1_555
O7 S1 1_555 1_555
O8 H8 1_555 1_555
H9 O8 1_555 1_555
O9 H10 1_555 1_555
H11 O9 1_555 1_555
S1 C8 1_555 1_555
Zn1 O1 1_555 1_555
Zn2 N1 1_555 1_555
C9F H4F 1_555 1_555
C10F C9F 1_555 1_555
H5F C10F 1_555 1_555
C11F C11 1_555 1_555
C12F C11F 1_555 1_555
H6F C12F 1_555 1_555
C13F C12F 1_555 1_555
H7F C13F 1_555 1_555
N1F C9F 1_555 1_555
C1A C2A 1_555 1_555
C2A C3A 1_555 1_555
C3A H1A 1_555 1_555
C4A C3A 1_555 1_555
H2A C4A 1_555 1_555
C5A C4A 1_555 1_555
C6A C5A 1_555 1_555
C7A C5A 1_555 1_555
H3A C7A 1_555 1_555
C8A C2A 1_555 1_555
O1A C1A 1_555 1_555
O2A C1A 1_555 1_555
O3A Zn1 1_555 1_555
O4A C6A 1_555 1_555
O5A S1A 1_555 1_555
O6A S1A 1_555 1_555
O7A S1A 1_555 1_555
O8A H8A 1_555 1_555
H9A O8A 1_555 1_555
O9A H10A 1_555 1_555
H11A O9A 1_555 1_555
S1A C8A 1_555 1_555
Zn2A O1A 1_555 1_555
N1A Zn2A 1_555 1_555
O1D Zn1 1_555 1_555
O3E Zn1 1_555 1_555
O4D Zn2A 1_555 1_555
O4E Zn2 1_555 1_555
O6D Zn1 1_555 1_555
Zn1A O3 1_555 1_555
Zn2D O4A 1_555 1_555
Zn2E O4 1_555 1_555
Zn2F N1F 1_555 1_555
C7 C8 1_555 1_555
C13 N1 1_555 1_555
O1 Zn2 1_555 1_555
O2 Zn2 1_555 1_555
O6 Zn1 1_555 1_555
O8 Zn2 1_555 1_555
O9 Zn2 1_555 1_555
C10F C11F 1_555 1_555
C13F N1F 1_555 1_555
C6A O3A 1_555 1_555
C7A C8A 1_555 1_555
O1A Zn1A 1_555 1_555
O2A Zn2A 1_555 1_555
O6A Zn1A 1_555 1_555
O8A Zn2A 1_555 1_555
O9A Zn2A 1_555 1_555
O1D Zn2D 1_555 1_555

#END
