
#######################################################################
#
#                 Cambridge Crystallographic Data Centre
#                                CCDC 
#
#######################################################################
#
# If this CIF has been generated from an entry in the Cambridge 
# Structural Database, then it will include bibliographic, chemical, 
# crystal, experimental, refinement or atomic coordinate data resulting 
# from the CCDC's data processing and validation procedures.
#
#######################################################################

data_VIGSOU
_symmetry_cell_setting           orthorhombic
_symmetry_space_group_name_H-M   'C 2 2 21'
_symmetry_Int_Tables_number      20
_space_group_name_Hall           'C 2n 2'
loop_
_symmetry_equiv_pos_site_id
_symmetry_equiv_pos_as_xyz
1 x,y,z
2 -x,-y,1/2+z
3 -x,y,1/2-z
4 x,-y,-z
5 1/2+x,1/2+y,z
6 1/2-x,1/2-y,1/2+z
7 1/2-x,1/2+y,1/2-z
8 1/2+x,1/2-y,-z
_cell_length_a                   11.8033(3)
_cell_length_b                   28.8564(4)
_cell_length_c                   38.3325(9)
_cell_angle_alpha                90
_cell_angle_beta                 90
_cell_angle_gamma                90
_cell_volume                     13056.1
loop_
_atom_site_label
_atom_site_type_symbol
_atom_site_fract_x
_atom_site_fract_y
_atom_site_fract_z
Au1 Au 0.68214(3) 0.319223(11) 0.116208(9)
P1 P 0.65909(19) 0.24444(7) 0.10240(6)
C1 C 0.5221(7) 0.2212(3) 0.1612(2)
Au2 Au 0.29200(3) 0.202861(10) 0.124651(10)
P2 P 0.30815(18) 0.27977(6) 0.13012(6)
C2 C 0.5888(6) 0.2061(3) 0.1323(2)
C3 C 0.6050(7) 0.1579(3) 0.1280(3)
H1 H 0.6514 0.1478 0.1092
C4 C 0.5584(8) 0.1253(3) 0.1489(3)
H2 H 0.5721 0.0934 0.1447
C5 C 0.4890(7) 0.1391(3) 0.1772(2)
C6 C 0.4418(8) 0.1064(3) 0.1992(3)
H3 H 0.4581 0.0745 0.1959
C7 C 0.3731(9) 0.1195(4) 0.2253(3)
H4 H 0.3366 0.0968 0.2393
C8 C 0.3542(9) 0.1684(3) 0.2322(2)
H5 H 0.3074 0.1778 0.2511
C9 C 0.4026(7) 0.1996(3) 0.2120(2)
H6 H 0.3897 0.2315 0.2167
C10 C 0.4723(6) 0.1875(3) 0.1838(2)
C11 C 0.5080(7) 0.2704(3) 0.1699(2)
C12 C 0.4200(7) 0.2985(3) 0.1588(2)
C13 C 0.4111(8) 0.3460(3) 0.1709(3)
H7 H 0.3511 0.3651 0.1628
C14 C 0.4889(8) 0.3636(3) 0.1940(2)
H8 H 0.4822 0.3947 0.2018
C15 C 0.5773(8) 0.3361(3) 0.2062(2)
C16 C 0.6560(9) 0.3529(4) 0.2314(2)
H9 H 0.6479 0.3838 0.2397
C17 C 0.7388(9) 0.3276(4) 0.2435(3)
H10 H 0.7903 0.3405 0.2599
C18 C 0.7533(9) 0.2786(4) 0.2319(3)
H11 H 0.8120 0.2600 0.2415
C19 C 0.6832(7) 0.2606(3) 0.2077(2)
H12 H 0.6939 0.2299 0.1994
C20 C 0.5903(7) 0.2891(3) 0.1946(2)
C21 C 0.7953(4) 0.21735(19) 0.09497(14)
C22 C 0.8813(5) 0.2258(2) 0.11890(15)
H13 H 0.8689 0.2467 0.1377
C23 C 0.9853(4) 0.2038(3) 0.11534(17)
H14 H 1.0441 0.2096 0.1317
C24 C 1.0034(4) 0.1733(3) 0.08784(18)
H15 H 1.0745 0.1582 0.0854
C25 C 0.9174(5) 0.1648(2) 0.06391(15)
H16 H 0.9297 0.1439 0.0451
C26 C 0.8133(4) 0.1868(2) 0.06747(13)
H17 H 0.7545 0.1810 0.0511
C27 C 0.5845(5) 0.24120(19) 0.06110(12)
C28 C 0.4986(5) 0.20931(19) 0.05486(15)
H18 H 0.4765 0.1882 0.0727
C29 C 0.4450(5) 0.2082(2) 0.02258(18)
H19 H 0.3863 0.1864 0.0183
C30 C 0.4773(6) 0.2390(2) -0.00346(14)
H20 H 0.4407 0.2383 -0.0255
C31 C 0.5632(6) 0.2709(2) 0.00278(14)
H21 H 0.5853 0.2920 -0.0150
C32 C 0.6168(5) 0.27201(19) 0.03506(16)
H22 H 0.6755 0.2938 0.0393
C33 C 0.1816(4) 0.3022(2) 0.15067(17)
C34 C 0.1320(6) 0.3431(2) 0.1393(2)
H23 H 0.1658 0.3603 0.1208
C35 C 0.0330(7) 0.3590(2) 0.1548(3)
H24 H -0.0009 0.3870 0.1470
C36 C -0.0164(6) 0.3340(3) 0.1818(2)
H25 H -0.0841 0.3448 0.1924
C37 C 0.0332(6) 0.2930(3) 0.19319(17)
H26 H -0.0006 0.2759 0.2116
C38 C 0.1322(5) 0.2771(2) 0.17764(17)
H27 H 0.1661 0.2491 0.1854
C39 C 0.3231(6) 0.31016(19) 0.08929(13)
C40 C 0.2541(6) 0.2957(2) 0.06197(17)
H28 H 0.2071 0.2693 0.0647
C41 C 0.2541(7) 0.3200(3) 0.03065(15)
H29 H 0.2070 0.3101 0.0120
C42 C 0.3229(7) 0.3587(2) 0.02665(14)
H30 H 0.3228 0.3753 0.0052
C43 C 0.3918(6) 0.3732(2) 0.05397(18)
H31 H 0.4388 0.3996 0.0512
C44 C 0.3919(5) 0.3489(2) 0.08529(15)
H32 H 0.4390 0.3588 0.1040
N1 N 0.2042(7) -0.1095(2) 0.1213(2)
C45 C 0.1958(11) -0.0847(3) 0.0908(3)
H33 H 0.1796 -0.1002 0.0695
C46 C 0.2108(12) -0.0374(3) 0.0911(3)
H34 H 0.2066 -0.0208 0.0698
C47 C 0.2311(8) -0.0140(3) 0.1206(3)
C48 C 0.2385(10) -0.0405(3) 0.1518(3)
H35 H 0.2545 -0.0255 0.1733
C49 C 0.2223(11) -0.0884(3) 0.1510(3)
H36 H 0.2244 -0.1057 0.1720
N2 N 0.2697(6) 0.1318(2) 0.1220(2)
C50 C 0.2139(9) 0.1100(3) 0.1486(3)
H37 H 0.1818 0.1275 0.1671
C51 C 0.2046(10) 0.0620(3) 0.1483(3)
H38 H 0.1683 0.0470 0.1673
C52 C 0.2444(8) 0.0364(3) 0.1224(3)
C53 C 0.3003(11) 0.0593(3) 0.0965(3)
H39 H 0.3324 0.0421 0.0778
C54 C 0.3106(9) 0.1046(3) 0.0969(3)
H40 H 0.3498 0.1189 0.0782
Au1D Au 0.18214(3) -0.180777(11) 0.116208(9)
N1D N 0.7042(7) 0.3905(2) 0.1213(2)
C55 C 0.7067(12) 0.3772(4) -0.0093(3)
O1 O 0.743(2) 0.3688(5) 0.0193(3)
O2 O 0.7003(18) 0.3533(5) -0.0345(3)
F1 F 0.7428(19) 0.4601(4) -0.0178(5)
C56 C 0.6579(17) 0.4277(5) -0.0142(4)
F2 F 0.5966(17) 0.4424(7) 0.0136(5)
F3 F 0.600(2) 0.4360(9) -0.0435(6)
loop_
_geom_bond_atom_site_label_1
_geom_bond_atom_site_label_2
_geom_bond_site_symmetry_1
_geom_bond_site_symmetry_2
Au1 P1 1_555 1_555
P1 C2 1_555 1_555
C1 C2 1_555 1_555
Au2 P2 1_555 1_555
P2 C12 1_555 1_555
C2 C3 1_555 1_555
C3 H1 1_555 1_555
C4 C3 1_555 1_555
H2 C4 1_555 1_555
C5 C4 1_555 1_555
C6 C5 1_555 1_555
H3 C6 1_555 1_555
C7 C6 1_555 1_555
H4 C7 1_555 1_555
C8 C7 1_555 1_555
H5 C8 1_555 1_555
C9 C8 1_555 1_555
H6 C9 1_555 1_555
C10 C1 1_555 1_555
C11 C1 1_555 1_555
C12 C11 1_555 1_555
C13 C12 1_555 1_555
H7 C13 1_555 1_555
C14 C13 1_555 1_555
H8 C14 1_555 1_555
C15 C14 1_555 1_555
C16 C15 1_555 1_555
H9 C16 1_555 1_555
C17 C16 1_555 1_555
H10 C17 1_555 1_555
C18 C17 1_555 1_555
H11 C18 1_555 1_555
C19 C18 1_555 1_555
H12 C19 1_555 1_555
C20 C11 1_555 1_555
C21 P1 1_555 1_555
C22 C21 1_555 1_555
H13 C22 1_555 1_555
C23 C22 1_555 1_555
H14 C23 1_555 1_555
C24 C23 1_555 1_555
H15 C24 1_555 1_555
C25 C24 1_555 1_555
H16 C25 1_555 1_555
C26 C21 1_555 1_555
H17 C26 1_555 1_555
C27 P1 1_555 1_555
C28 C27 1_555 1_555
H18 C28 1_555 1_555
C29 C28 1_555 1_555
H19 C29 1_555 1_555
C30 C29 1_555 1_555
H20 C30 1_555 1_555
C31 C30 1_555 1_555
H21 C31 1_555 1_555
C32 C27 1_555 1_555
H22 C32 1_555 1_555
C33 P2 1_555 1_555
C34 C33 1_555 1_555
H23 C34 1_555 1_555
C35 C34 1_555 1_555
H24 C35 1_555 1_555
C36 C35 1_555 1_555
H25 C36 1_555 1_555
C37 C36 1_555 1_555
H26 C37 1_555 1_555
C38 C33 1_555 1_555
H27 C38 1_555 1_555
C39 P2 1_555 1_555
C40 C39 1_555 1_555
H28 C40 1_555 1_555
C41 C40 1_555 1_555
H29 C41 1_555 1_555
C42 C41 1_555 1_555
H30 C42 1_555 1_555
C43 C42 1_555 1_555
H31 C43 1_555 1_555
C44 C39 1_555 1_555
H32 C44 1_555 1_555
N1 C45 1_555 1_555
C45 H33 1_555 1_555
C46 C45 1_555 1_555
H34 C46 1_555 1_555
C47 C46 1_555 1_555
C48 C47 1_555 1_555
H35 C48 1_555 1_555
C49 N1 1_555 1_555
H36 C49 1_555 1_555
N2 Au2 1_555 1_555
C50 N2 1_555 1_555
H37 C50 1_555 1_555
C51 C50 1_555 1_555
H38 C51 1_555 1_555
C52 C47 1_555 1_555
C53 C52 1_555 1_555
H39 C53 1_555 1_555
C54 N2 1_555 1_555
H40 C54 1_555 1_555
C55 O1 1_555 1_555
O2 C55 1_555 1_555
F1 C56 1_555 1_555
C56 C55 1_555 1_555
F2 C56 1_555 1_555
F3 C56 1_555 1_555
Au1D N1 1_555 1_555
N1D Au1 1_555 1_555
C5 C10 1_555 1_555
C9 C10 1_555 1_555
C15 C20 1_555 1_555
C19 C20 1_555 1_555
C25 C26 1_555 1_555
C31 C32 1_555 1_555
C37 C38 1_555 1_555
C43 C44 1_555 1_555
C48 C49 1_555 1_555
C51 C52 1_555 1_555
C53 C54 1_555 1_555

#END
