
#######################################################################
#
#                 Cambridge Crystallographic Data Centre
#                                CCDC 
#
#######################################################################
#
# If this CIF has been generated from an entry in the Cambridge 
# Structural Database, then it will include bibliographic, chemical, 
# crystal, experimental, refinement or atomic coordinate data resulting 
# from the CCDC's data processing and validation procedures.
#
#######################################################################

data_VIGVEO
_symmetry_cell_setting           triclinic
_symmetry_space_group_name_H-M   'P -1'
_symmetry_Int_Tables_number      2
_space_group_name_Hall           '-P 1'
loop_
_symmetry_equiv_pos_site_id
_symmetry_equiv_pos_as_xyz
1 x,y,z
2 -x,-y,-z
_cell_length_a                   9.5632(3)
_cell_length_b                   11.4212(4)
_cell_length_c                   14.3028(5)
_cell_angle_alpha                72.138(2)
_cell_angle_beta                 80.833(2)
_cell_angle_gamma                81.905(2)
_cell_volume                     1460.86
loop_
_atom_site_label
_atom_site_type_symbol
_atom_site_fract_x
_atom_site_fract_y
_atom_site_fract_z
N4 N 0.329(2) 0.897(2) 0.1567(14)
O13 O 0.345(3) 1.086(2) 0.0520(18)
C25 C 0.393(4) 0.770(2) 0.199(2)
H18 H 0.4775 0.7537 0.1576
H19 H 0.3260 0.7125 0.2043
H20 H 0.4162 0.7617 0.2641
C26 C 0.182(3) 0.925(3) 0.197(3)
H21 H 0.1493 1.0087 0.1642
H22 H 0.1763 0.9132 0.2665
H23 H 0.1223 0.8702 0.1856
C27 C 0.402(2) 0.981(2) 0.0856(16)
H24 H 0.4956 0.9603 0.0620
Eu1 Eu 0.7749(6) 0.4739(5) 1.0064(6)
O1 O 0.613(4) 0.671(3) 1.004(4)
O2 O 1.084(2) 0.6474(14) 0.1071(14)
O3 O 0.8893(16) 0.5613(12) 0.0822(11)
C1 C 0.953(4) 0.604(2) 0.132(2)
C2 C 0.8829(12) 0.6259(11) 0.2293(6)
C3 C 0.9486(11) 0.6878(11) 0.2775(9)
H1 H 1.0286 0.7282 0.2456
C4 C 0.8949(13) 0.6893(10) 0.3734(9)
H2 H 0.9388 0.7307 0.4056
C5 C 0.7754(11) 0.6289(8) 0.4210(6)
C6 C 0.7096(10) 0.5670(11) 0.3728(7)
H3 H 0.6297 0.5266 0.4047
C7 C 0.7634(13) 0.5655(12) 0.2770(8)
H4 H 0.7194 0.5241 0.2447
O4 O 0.6066(16) 0.4773(12) 0.8946(13)
O5 O 0.4012(16) 0.5914(13) 0.8536(12)
C8 C 0.5248(16) 0.5442(10) 0.8352(15)
C9 C 0.6986(10) 0.6156(7) 0.5279(6)
C10 C 0.7872(8) 0.5667(10) 0.6016(7)
H5 H 0.8838 0.5474 0.5848
C11 C 0.7315(10) 0.5468(9) 0.7005(6)
H6 H 0.7908 0.5141 0.7498
C12 C 0.5870(11) 0.5758(8) 0.7256(5)
C13 C 0.4984(8) 0.6246(10) 0.6519(7)
H7 H 0.4018 0.6440 0.6687
C14 C 0.5542(10) 0.6445(10) 0.5530(6)
O6 O 0.506(2) 0.7997(19) 0.4032(13)
O7 O 0.352(2) 0.6626(19) 0.4860(13)
N1 N 0.464(2) 0.7097(16) 0.4739(12)
N2 N 1.2131(18) 0.1125(14) 1.4736(12)
O8 O 1.179(3) 0.131(3) 1.5565(14)
O9 O 1.3375(16) 0.090(3) 1.4321(19)
O10 O 0.9083(19) 0.3495(18) 1.1253(16)
O11 O 1.140(2) 0.348(2) 1.128(2)
C15 C 1.027(2) 0.2993(19) 1.1566(19)
C16 C 1.0127(16) 0.2030(12) 1.2568(8)
C17 C 0.9145(12) 0.1159(12) 1.2841(9)
H8 H 0.8533 0.1149 1.2400
C18 C 0.9078(14) 0.0303(13) 1.3774(11)
H9 H 0.8400 -0.0299 1.3963
C19 C 0.9992(17) 0.0318(13) 1.4434(9)
C20 C 1.0974(14) 0.1189(11) 1.4161(9)
C21 C 1.1041(15) 0.2045(11) 1.3227(9)
H10 H 1.1698 0.2628 1.3044
O12 O 0.6783(17) 0.2729(10) 1.0409(10)
C22 C 0.7420(15) 0.1713(10) 1.0698(10)
H11 H 0.8296 0.1526 1.0360
C23 C 0.5577(18) 0.1044(16) 1.2053(13)
H12 H 0.5108 0.1837 1.1741
H13 H 0.5734 0.1014 1.2706
H14 H 0.4991 0.0408 1.2094
C24 C 0.778(2) -0.0350(13) 1.1764(15)
H15 H 0.8648 -0.0304 1.1320
H16 H 0.7270 -0.0993 1.1716
H17 H 0.7992 -0.0531 1.2430
N3 N 0.6883(15) 0.0858(11) 1.1495(9)
N2A N 0.7869(18) -0.1125(14) 1.5264(12)
O8A O 0.821(3) -0.131(3) 1.4435(14)
O9A O 0.6625(16) -0.090(3) 1.5679(19)
O10A O 1.0917(19) -0.3495(18) 1.8747(16)
O11A O 0.860(2) -0.348(2) 1.872(2)
C15A C 0.973(2) -0.2993(19) 1.8434(19)
C16A C 0.9873(16) -0.2030(12) 1.7432(8)
C17A C 1.0855(12) -0.1159(12) 1.7159(9)
H8A H 1.1467 -0.1149 1.7600
C18A C 1.0922(14) -0.0303(13) 1.6226(11)
H9A H 1.1600 0.0299 1.6037
C19A C 1.0008(17) -0.0318(13) 1.5566(9)
C20A C 0.9026(14) -0.1189(11) 1.5839(9)
C21A C 0.8959(15) -0.2045(11) 1.6773(9)
H10A H 0.8302 -0.2628 1.6956
Eu1A Eu 0.2251(6) 0.5261(5) 0.9936(6)
O1A O 0.387(4) 0.329(3) 0.996(4)
O2A O -0.084(2) 0.3526(14) 1.8929(14)
O3A O 0.1107(16) 0.4387(12) 1.9178(11)
C1A C 0.047(4) 0.396(2) 1.868(2)
C2A C 0.1171(12) 0.3741(11) 1.7707(6)
C3A C 0.0514(11) 0.3122(11) 1.7225(9)
H1A H -0.0286 0.2718 1.7544
C4A C 0.1051(13) 0.3107(10) 1.6266(9)
H2A H 0.0612 0.2693 1.5944
C5A C 0.2246(11) 0.3711(8) 1.5790(6)
C6A C 0.2904(10) 0.4330(11) 1.6272(7)
H3A H 0.3703 0.4734 1.5953
C7A C 0.2366(13) 0.4345(12) 1.7230(8)
H4A H 0.2806 0.4759 1.7553
O4A O 0.3934(16) 0.5227(12) 1.1054(13)
O5A O 0.5988(16) 0.4086(13) 1.1464(12)
C8A C 0.4752(16) 0.4558(10) 1.1648(15)
C9A C 0.3014(10) 0.3844(7) 1.4721(6)
C10A C 0.2128(8) 0.4333(10) 1.3984(7)
H5A H 0.1162 0.4526 1.4152
C11A C 0.2685(10) 0.4532(9) 1.2995(6)
H6A H 0.2092 0.4859 1.2502
C12A C 0.4130(11) 0.4242(8) 1.2744(5)
C13A C 0.5016(8) 0.3754(10) 1.3481(7)
H7A H 0.5982 0.3560 1.3313
C14A C 0.4458(10) 0.3555(10) 1.4470(6)
O6A O 0.494(2) 0.2003(19) 1.5968(13)
O7A O 0.648(2) 0.3374(19) 1.5140(13)
N1A N 0.536(2) 0.2903(16) 1.5261(12)
O12A O 0.3217(17) 0.7271(10) 0.9591(10)
C22A C 0.2580(15) 0.8287(10) 0.9302(10)
H11A H 0.1704 0.8474 0.9640
C23A C 0.4423(18) 0.8956(16) 0.7947(13)
H12A H 0.4892 0.8163 0.8259
H13A H 0.4266 0.8986 0.7294
H14A H 0.5009 0.9592 0.7906
C24A C 0.222(2) 1.0350(13) 0.8236(15)
H15A H 0.1352 1.0304 0.8680
H16A H 0.2730 1.0993 0.8284
H17A H 0.2008 1.0531 0.7570
N3A N 0.3117(15) 0.9142(11) 0.8505(9)
Eu1_2 Eu -0.2251(6) 0.4739(5) 2.0064(6)
Eu1_3 Eu 0.7749(6) -0.5261(5) 2.0064(6)
Eu1_4 Eu 0.7749(6) 0.4739(5) 0.0064(6)
Eu1A_2 Eu 0.2251(6) 0.5261(5) 1.9936(6)
Eu1A_3 Eu 1.2251(6) -0.4739(5) 1.9936(6)
Eu1A_4 Eu 1.2251(6) 0.5261(5) -0.0064(6)
Eu1A_5 Eu 1.2251(6) 0.5261(5) 0.9936(6)
O2_2 O 0.084(2) 0.6474(14) 1.1071(14)
O2A_2 O 0.916(2) 0.3526(14) 0.8929(14)
O3_2 O 0.8893(16) 0.5613(12) 1.0822(11)
O3A_2 O 0.1107(16) 0.4387(12) 0.9178(11)
O10A_2 O 0.0917(19) 0.6505(18) 0.8747(16)
O11_2 O 0.140(2) 0.348(2) 1.128(2)
O11A_2 O 0.860(2) 0.652(2) 0.872(2)
Eu2? Eu 0.7738(7) 0.4701(7) 1.0014(7)
O14? O 0.627(4) 0.664(4) 0.992(5)
O15? O 1.081(3) 0.6133(16) 0.1071(18)
O16? O 0.874(2) 0.6043(15) 0.0832(13)
C28? C 0.954(5) 0.624(3) 0.135(3)
C29? C 0.8825(14) 0.6434(12) 0.2320(8)
C30? C 0.9684(11) 0.6597(15) 0.2959(11)
H25? H 1.0641 0.6702 0.2747
C31? C 0.9112(14) 0.6601(13) 0.3914(10)
H26? H 0.9687 0.6710 0.4342
C32? C 0.7681(14) 0.6443(8) 0.4230(7)
C33? C 0.6822(11) 0.6281(12) 0.3591(9)
H27? H 0.5864 0.6175 0.3803
C34? C 0.7394(13) 0.6276(13) 0.2636(8)
H28? H 0.6819 0.6167 0.2208
N5? N 0.502(3) 0.8011(19) 0.4860(15)
O17? O 0.565(2) 0.880(2) 0.4277(15)
O18? O 0.364(3) 0.792(2) 0.4942(15)
O19? O 0.6087(19) 0.5151(14) 0.8975(16)
O20? O 0.3933(16) 0.5508(13) 0.8471(12)
C35? C 0.527(2) 0.5452(10) 0.8316(19)
C36? C 0.6905(12) 0.6403(11) 0.5217(8)
C37? C 0.7669(13) 0.5479(14) 0.5877(11)
H29? H 0.8490 0.5060 0.5644
C38? C 0.7207(18) 0.5180(12) 0.6886(10)
H30? H 0.7719 0.4562 0.7328
C39? C 0.5980(17) 0.5806(9) 0.7235(7)
C40? C 0.5216(13) 0.6730(10) 0.6575(8)
H31? H 0.4395 0.7149 0.6808
C41? C 0.5678(13) 0.7029(10) 0.5566(8)
O21? O 0.9176(12) 0.3138(10) 1.1126(9)
O22? O 1.1186(12) 0.3782(10) 1.1332(12)
O23? O 1.3817(13) 0.062(3) 1.390(2)
O24? O 1.254(2) -0.077(2) 1.5103(19)
N6? N 1.2679(13) 0.0168(15) 1.4349(12)
C42? C 1.0134(13) 0.3205(13) 1.1640(10)
C43? C 1.0163(9) 0.2262(8) 1.2661(5)
C44? C 0.8856(8) 0.1968(10) 1.3207(7)
H32? H 0.8017 0.2362 1.2957
C45? C 0.8803(8) 0.1084(11) 1.4128(7)
H33? H 0.7900 0.0881 1.4505
C46? C 1.0056(10) 0.0495(9) 1.4502(6)
C47? C 1.1363(9) 0.0790(9) 1.3955(7)
C48? C 1.1416(8) 0.1673(9) 1.3034(6)
H34? H 1.2291 0.1870 1.2669
O25? O 0.687(4) 0.254(2) 1.030(3)
C49? C 0.649(3) 0.169(2) 1.103(2)
H35? H 0.5672 0.1846 1.1442
C50? C 0.671(5) -0.039(3) 1.215(2)
H36? H 0.5780 -0.0126 1.2427
H37? H 0.7360 -0.0563 1.2632
H38? H 0.6660 -0.1130 1.1972
C51? C 0.847(4) 0.028(3) 1.068(3)
H39? H 0.8796 0.1016 1.0204
H40? H 0.8282 -0.0274 1.0331
H41? H 0.9198 -0.0121 1.1095
N7? N 0.720(3) 0.058(2) 1.1266(19)
loop_
_geom_bond_atom_site_label_1
_geom_bond_atom_site_label_2
_geom_bond_site_symmetry_1
_geom_bond_site_symmetry_2
Eu1 O1 1_555 1_555
O2 C1 1_555 1_555
O3 C1 1_555 1_555
C1 C2 1_555 1_555
C2 C3 1_555 1_555
C3 H1 1_555 1_555
C4 C3 1_555 1_555
H2 C4 1_555 1_555
C5 C4 1_555 1_555
C6 C5 1_555 1_555
H3 C6 1_555 1_555
C7 C2 1_555 1_555
H4 C7 1_555 1_555
O4 Eu1 1_555 1_555
O5 C8 1_555 1_555
C8 O4 1_555 1_555
C9 C5 1_555 1_555
C10 C9 1_555 1_555
H5 C10 1_555 1_555
C11 C10 1_555 1_555
H6 C11 1_555 1_555
C12 C8 1_555 1_555
C13 C12 1_555 1_555
H7 C13 1_555 1_555
C14 C9 1_555 1_555
O6 N1 1_555 1_555
O7 N1 1_555 1_555
N1 C14 1_555 1_555
N2 O8 1_555 1_555
O8 H9A 1_555 1_555
O9 N2 1_555 1_555
O10 Eu1 1_555 1_555
O11 C15 1_555 1_555
C15 O10 1_555 1_555
C16 C15 1_555 1_555
C17 C16 1_555 1_555
H8 C17 1_555 1_555
C18 C17 1_555 1_555
H9 C18 1_555 1_555
C19 C18 1_555 1_555
C20 N2 1_555 1_555
C21 C16 1_555 1_555
H10 C21 1_555 1_555
O12 Eu1 1_555 1_555
C22 O12 1_555 1_555
H11 C22 1_555 1_555
C23 H12 1_555 1_555
H13 C23 1_555 1_555
H14 C23 1_555 1_555
C24 H15 1_555 1_555
H16 C24 1_555 1_555
H17 C24 1_555 1_555
N3 C22 1_555 1_555
N4 C25 1_555 1_555
O13 C27 1_555 1_555
C25 H18 1_555 1_555
H19 C25 1_555 1_555
H20 C25 1_555 1_555
C26 N4 1_555 1_555
H21 C26 1_555 1_555
H22 C26 1_555 1_555
H23 C26 1_555 1_555
C27 N4 1_555 1_555
H24 C27 1_555 1_555
N2A O8A 1_555 1_555
O8A H9 1_555 1_555
O9A N2A 1_555 1_555
O10A C15A 1_555 1_555
O11A C15A 1_555 1_555
C15A C16A 1_555 1_555
C16A C17A 1_555 1_555
C17A H8A 1_555 1_555
C18A C17A 1_555 1_555
H9A C18A 1_555 1_555
C19A C19 1_555 1_555
C20A N2A 1_555 1_555
C21A C16A 1_555 1_555
H10A C21A 1_555 1_555
Eu1A O5 1_555 1_555
O1A Eu1A 1_555 1_555
O2A C1A 1_555 1_555
O3A C1A 1_555 1_555
C1A C2A 1_555 1_555
C2A C3A 1_555 1_555
C3A H1A 1_555 1_555
C4A C3A 1_555 1_555
H2A C4A 1_555 1_555
C5A C4A 1_555 1_555
C6A C5A 1_555 1_555
H3A C6A 1_555 1_555
C7A C2A 1_555 1_555
H4A C7A 1_555 1_555
O4A Eu1A 1_555 1_555
O5A Eu1 1_555 1_555
C8A O4A 1_555 1_555
C9A C5A 1_555 1_555
C10A C9A 1_555 1_555
H5A C10A 1_555 1_555
C11A C10A 1_555 1_555
H6A C11A 1_555 1_555
C12A C8A 1_555 1_555
C13A C12A 1_555 1_555
H7A C13A 1_555 1_555
C14A C9A 1_555 1_555
O6A N1A 1_555 1_555
O7A N1A 1_555 1_555
N1A C14A 1_555 1_555
O12A Eu1A 1_555 1_555
C22A O12A 1_555 1_555
H11A C22A 1_555 1_555
C23A H12A 1_555 1_555
H13A C23A 1_555 1_555
H14A C23A 1_555 1_555
C24A H15A 1_555 1_555
H16A C24A 1_555 1_555
H17A C24A 1_555 1_555
N3A C22A 1_555 1_555
Eu1_2 O2A 1_555 1_555
Eu1_3 O11A 1_555 1_555
Eu1_4 O3 1_555 1_555
Eu1A_2 O3A 1_555 1_555
Eu1A_3 O10A 1_555 1_555
Eu1A_4 O2 1_555 1_555
Eu1A_5 O11 1_555 1_555
O2_2 Eu1A 1_555 1_555
O2A_2 Eu1 1_555 1_555
O3_2 Eu1 1_555 1_555
O3A_2 Eu1A 1_555 1_555
O10A_2 Eu1A 1_555 1_555
O11_2 Eu1A 1_555 1_555
O11A_2 Eu1 1_555 1_555
C6 C7 1_555 1_555
C11 C12 1_555 1_555
C13 C14 1_555 1_555
C19 C20 1_555 1_555
C20 C21 1_555 1_555
C23 N3 1_555 1_555
C24 N3 1_555 1_555
C18A C19A 1_555 1_555
C19A C20A 1_555 1_555
C20A C21A 1_555 1_555
C6A C7A 1_555 1_555
O5A C8A 1_555 1_555
C11A C12A 1_555 1_555
C13A C14A 1_555 1_555
C23A N3A 1_555 1_555
C24A N3A 1_555 1_555

#END
