
#######################################################################
#
#                 Cambridge Crystallographic Data Centre
#                                CCDC 
#
#######################################################################
#
# If this CIF has been generated from an entry in the Cambridge 
# Structural Database, then it will include bibliographic, chemical, 
# crystal, experimental, refinement or atomic coordinate data resulting 
# from the CCDC's data processing and validation procedures.
#
#######################################################################

data_VIHHUR
_symmetry_cell_setting           orthorhombic
_symmetry_space_group_name_H-M   'P n m a'
_symmetry_Int_Tables_number      62
_space_group_name_Hall           '-P 2ac 2n'
loop_
_symmetry_equiv_pos_site_id
_symmetry_equiv_pos_as_xyz
1 x,y,z
2 1/2-x,-y,1/2+z
3 -x,1/2+y,-z
4 1/2+x,1/2-y,1/2-z
5 -x,-y,-z
6 1/2+x,y,1/2-z
7 x,1/2-y,z
8 1/2-x,1/2+y,1/2+z
_cell_length_a                   7.6413(7)
_cell_length_b                   7.5660(7)
_cell_length_c                   18.1056(16)
_cell_angle_alpha                90
_cell_angle_beta                 90
_cell_angle_gamma                90
_cell_volume                     1046.76
loop_
_atom_site_label
_atom_site_type_symbol
_atom_site_fract_x
_atom_site_fract_y
_atom_site_fract_z
Mn1 Mn 0.5000 0.0000 0.5000
C1 C 0.5508(12) 0.2500 0.6385(5)
C2 C 0.5258(10) 0.2500 0.7206(6)
C3 C 0.5130(9) 0.0895(11) 0.7579(4)
H1 H 0.5185 -0.0163 0.7319
C4 C 0.4927(9) 0.0879(11) 0.8315(4)
H2 H 0.4821 -0.0176 0.8575
C5 C 0.4775(10) 0.2500 0.9490(6)
H3 H 0.4165 0.3567 0.9661
C6 C 0.6695(12) 0.2500 0.9800(5)
N1 N 0.5826(10) 0.2500 0.4518(4)
N2 N 0.6674(11) 0.2500 0.3970(5)
N3 N 0.7479(13) 0.2500 0.3455(6)
N4 N 0.4883(8) 0.2500 0.8672(4)
O1 O 0.5615(7) 0.0973(6) 0.6090(2)
O2 O 0.7394(5) 0.0954(6) 0.9869(3)
C3F C 0.5130(9) 0.4105(11) 0.7579(4)
H1F H 0.5185 0.5163 0.7319
C4F C 0.4927(9) 0.4121(11) 0.8315(4)
H2F H 0.4821 0.5176 0.8575
H3F H 0.4165 0.1433 0.9661
O1F O 0.5615(7) 0.4027(6) 0.6090(2)
O2F O 0.7394(5) 0.4046(6) 0.9869(3)
Mn1A Mn 1.0000 0.0000 1.0000
Mn1B Mn 0.5000 0.5000 0.5000
Mn1C Mn 1.0000 0.5000 1.0000
N1B N 0.4174(10) -0.2500 0.5482(4)
O1D O 0.4385(7) -0.0973(6) 0.3910(2)
O2A O 0.7606(5) -0.0954(6) 0.4869(3)
O2E O 0.2394(5) 0.0954(6) 0.5131(3)
O3 O 0.2574(13) -0.2500 0.8418(7)
H4 H 0.232(7) -0.2500 0.7960(10)
H5 H 0.164(2) -0.2500 0.867(2)
loop_
_geom_bond_atom_site_label_1
_geom_bond_atom_site_label_2
_geom_bond_site_symmetry_1
_geom_bond_site_symmetry_2
Mn1 N1 1_555 1_555
C1 C2 1_555 1_555
C2 C3 1_555 1_555
C3 H1 1_555 1_555
C4 C3 1_555 1_555
H2 C4 1_555 1_555
C5 H3 1_555 1_555
C6 C5 1_555 1_555
N1 N2 1_555 1_555
N2 N3 1_555 1_555
N4 C4 1_555 1_555
O1 Mn1 1_555 1_555
O2 C6 1_555 1_555
O3 H4 1_555 1_555
H5 O3 1_555 1_555
C3F C2 1_555 1_555
H1F C3F 1_555 1_555
C4F N4 1_555 1_555
H2F C4F 1_555 1_555
H3F C5 1_555 1_555
O1F C1 1_555 1_555
O2F C6 1_555 1_555
Mn1A O2 1_555 1_555
Mn1B N1 1_555 1_555
Mn1C O2F 1_555 1_555
N1B Mn1 1_555 1_555
O1D Mn1 1_555 1_555
O2A Mn1 1_555 1_555
O2E Mn1 1_555 1_555
C1 O1 1_555 1_555
C5 N4 1_555 1_555
C3F C4F 1_555 1_555
O1F Mn1B 1_555 1_555

#END
