
#######################################################################
#
#                 Cambridge Crystallographic Data Centre
#                                CCDC 
#
#######################################################################
#
# If this CIF has been generated from an entry in the Cambridge 
# Structural Database, then it will include bibliographic, chemical, 
# crystal, experimental, refinement or atomic coordinate data resulting 
# from the CCDC's data processing and validation procedures.
#
#######################################################################

data_VIHTEL01
_symmetry_cell_setting           tetragonal
_symmetry_space_group_name_H-M   'I -4 2 d'
_symmetry_Int_Tables_number      122
_space_group_name_Hall           'I -4 2bw'
loop_
_symmetry_equiv_pos_site_id
_symmetry_equiv_pos_as_xyz
1 x,y,z
2 -x,-y,z
3 y,-x,-z
4 -y,x,-z
5 1/2-x,y,3/4-z
6 1/2+x,-y,3/4-z
7 1/2-y,-x,3/4+z
8 1/2+y,x,3/4+z
9 1/2+x,1/2+y,1/2+z
10 1/2-x,1/2-y,1/2+z
11 1/2+y,1/2-x,1/2-z
12 1/2-y,1/2+x,1/2-z
13 -x,1/2+y,1/4-z
14 x,1/2-y,1/4-z
15 -y,1/2-x,1/4+z
16 y,1/2+x,1/4+z
_cell_length_a                   7.4098(10)
_cell_length_b                   7.4098(10)
_cell_length_c                   17.084(3)
_cell_angle_alpha                90
_cell_angle_beta                 90
_cell_angle_gamma                90
_cell_volume                     937.999
loop_
_atom_site_label
_atom_site_type_symbol
_atom_site_fract_x
_atom_site_fract_y
_atom_site_fract_z
Co1 Co 0.5000 0.5000 0.0000
C1 C 0.5626(6) 0.2500 0.1250
C2 C 0.9310(6) 0.2500 0.1250
H1 H 1.0566 0.2500 0.1250
C3 C 0.8333(5) 0.3305(6) 0.0670(2)
H2 H 0.8953 0.3836 0.0256
N1 N 0.6550(3) 0.3370(4) 0.06647(12)
O1 O 0.3960(4) 0.2500 0.1250
Co1D Co 1.0000 0.5000 -0.2500
Co1L Co 0.5000 0.0000 0.2500
C1C C 0.7500 0.5626(6) -0.1250
C2C C 0.7500 0.9310(6) -0.1250
H1C H 0.7500 1.0566 -0.1250
C3M C 0.8333(5) 0.1695(6) 0.1830(2)
C3C C 0.6695(6) 0.8333(5) -0.0670(2)
C3G C 0.8305(6) 0.8333(5) -0.1830(2)
H2M H 0.8953 0.1164 0.2244
H2C H 0.6164 0.8953 -0.0256
H2G H 0.8836 0.8953 -0.2244
N1M N 0.6550(3) 0.1630(4) 0.18353(12)
N1C N 0.6630(4) 0.6550(3) -0.06647(12)
N1G N 0.8370(4) 0.6550(3) -0.18353(12)
N1B N 0.3370(4) 0.3450(3) -0.06647(12)
N1A N 0.3450(3) 0.6630(4) 0.06647(12)
O1C O 0.7500 0.3960(4) -0.1250
loop_
_geom_bond_atom_site_label_1
_geom_bond_atom_site_label_2
_geom_bond_site_symmetry_1
_geom_bond_site_symmetry_2
Co1 N1 1_555 1_555
C1 N1 1_555 1_555
C2 H1 1_555 1_555
C3 C2 1_555 1_555
H2 C3 1_555 1_555
N1 C3 1_555 1_555
O1 C1 1_555 1_555
Co1D N1G 1_555 1_555
Co1L N1M 1_555 1_555
C1C N1C 1_555 1_555
C2C H1C 1_555 1_555
C3M C2 1_555 1_555
C3C C2C 1_555 1_555
C3G C2C 1_555 1_555
H2M C3M 1_555 1_555
H2C C3C 1_555 1_555
H2G C3G 1_555 1_555
N1M C1 1_555 1_555
N1C Co1 1_555 1_555
N1G C1C 1_555 1_555
N1B Co1 1_555 1_555
N1A Co1 1_555 1_555
O1C C1C 1_555 1_555
C3M N1M 1_555 1_555
C3C N1C 1_555 1_555
C3G N1G 1_555 1_555

#END
