
#######################################################################
#
#                 Cambridge Crystallographic Data Centre
#                                CCDC 
#
#######################################################################
#
# If this CIF has been generated from an entry in the Cambridge 
# Structural Database, then it will include bibliographic, chemical, 
# crystal, experimental, refinement or atomic coordinate data resulting 
# from the CCDC's data processing and validation procedures.
#
#######################################################################

data_VIHTEL
_symmetry_cell_setting           tetragonal
_symmetry_space_group_name_H-M   'I -4 2 d'
_symmetry_Int_Tables_number      122
_space_group_name_Hall           'I -4 2bw'
loop_
_symmetry_equiv_pos_site_id
_symmetry_equiv_pos_as_xyz
1 x,y,z
2 y,-x,-z
3 x,1/2-y,1/4-z
4 -x,-y,z
5 1/2-y,-x,3/4+z
6 -y,x,-z
7 -x,1/2+y,1/4-z
8 1/2+y,x,3/4+z
9 1/2+x,1/2+y,1/2+z
10 1/2+y,1/2-x,1/2-z
11 1/2+x,-y,3/4-z
12 1/2-x,1/2-y,1/2+z
13 -y,1/2-x,1/4+z
14 1/2-y,1/2+x,1/2-z
15 1/2-x,y,3/4-z
16 y,1/2+x,1/4+z
_cell_length_a                   7.41144(25)
_cell_length_b                   7.41144(25)
_cell_length_c                   17.0879(7)
_cell_angle_alpha                90
_cell_angle_beta                 90
_cell_angle_gamma                90
_cell_volume                     938.629
loop_
_atom_site_label
_atom_site_type_symbol
_atom_site_fract_x
_atom_site_fract_y
_atom_site_fract_z
Co1 Co 0.000000 0.500000 0.250000
C1 C 0.0636(10) 0.250000 0.125000
O1 O -0.1050(10) 0.250000 0.125000
N1 N 0.1567(10) 0.1683(7) 0.06471(18)
C2 C 0.3429(10) 0.1696(5) 0.06437(13)
C3 C 0.4360(11) 0.250000 0.125000
N1B N 0.1567(10) 0.3317(7) 0.18529(18)
Co1B Co 0.000000 0.000000 0.000000
N1O N 0.1683(7) 0.6567(10) 0.31471(18)
C1O C 0.250000 0.5636(10) 0.375000
O1O O 0.250000 0.3950(10) 0.375000
N1M N 0.3317(7) 0.6567(10) 0.43529(18)
Co1J Co 0.500000 0.500000 0.500000
C2M C 0.3304(5) 0.8429(10) 0.43563(13)
C3M C 0.250000 0.9360(11) 0.375000
C2O C 0.1696(5) 0.8429(10) 0.31437(13)
N1F N -0.1567(10) 0.6683(7) 0.18529(18)
N1L N -0.1683(7) 0.3433(10) 0.31471(18)
C2B C 0.3429(10) 0.3304(5) 0.18563(13)
loop_
_geom_bond_atom_site_label_1
_geom_bond_atom_site_label_2
_geom_bond_site_symmetry_1
_geom_bond_site_symmetry_2
Co1 N1B 1_555 1_555
C1 O1 1_555 1_555
N1 C1 1_555 1_555
C2 N1 1_555 1_555
C3 C2 1_555 1_555
N1B C1 1_555 1_555
Co1B N1 1_555 1_555
N1O Co1 1_555 1_555
C1O N1O 1_555 1_555
O1O C1O 1_555 1_555
N1M C1O 1_555 1_555
Co1J N1M 1_555 1_555
C2M N1M 1_555 1_555
C3M C2M 1_555 1_555
C2O N1O 1_555 1_555
N1F Co1 1_555 1_555
N1L Co1 1_555 1_555
C2B C3 1_555 1_555
N1B C2B 1_555 1_555
C3M C2O 1_555 1_555

#END
