
#######################################################################
#
#                 Cambridge Crystallographic Data Centre
#                                CCDC 
#
#######################################################################
#
# If this CIF has been generated from an entry in the Cambridge 
# Structural Database, then it will include bibliographic, chemical, 
# crystal, experimental, refinement or atomic coordinate data resulting 
# from the CCDC's data processing and validation procedures.
#
#######################################################################

data_VIHWEO
_symmetry_cell_setting           orthorhombic
_symmetry_space_group_name_H-M   'F d d 2'
_symmetry_Int_Tables_number      43
_space_group_name_Hall           'F 2 -2d'
loop_
_symmetry_equiv_pos_site_id
_symmetry_equiv_pos_as_xyz
1 x,y,z
2 -x,-y,z
3 1/4-x,1/4+y,1/4+z
4 3/4+x,3/4-y,1/4+z
5 x,1/2+y,1/2+z
6 -x,1/2-y,1/2+z
7 1/4-x,3/4+y,3/4+z
8 3/4+x,1/4-y,3/4+z
9 1/2+x,y,1/2+z
10 1/2-x,-y,1/2+z
11 3/4-x,1/4+y,3/4+z
12 1/4+x,3/4-y,3/4+z
13 1/2+x,1/2+y,z
14 1/2-x,1/2-y,z
15 3/4-x,3/4+y,1/4+z
16 1/4+x,1/4-y,1/4+z
_cell_length_a                   11.0361(5)
_cell_length_b                   9.6611(5)
_cell_length_c                   16.1935(8)
_cell_angle_alpha                90
_cell_angle_beta                 90
_cell_angle_gamma                90
_cell_volume                     1726.56
loop_
_atom_site_label
_atom_site_type_symbol
_atom_site_fract_x
_atom_site_fract_y
_atom_site_fract_z
Ni1 Ni 0.000000 0.000000 0.000000
O1 O -0.0701(4) -0.1368(5) 0.10498(32)
N1 N -0.1898(4) 0.0150(5) 0.03442(29)
N2 N -0.2530(5) -0.0847(7) 0.16247(23)
C1 C -0.1681(4) -0.0721(5) 0.10039(22)
C2 C -0.2932(5) 0.0955(6) 0.03327(31)
C3 C -0.3740(5) 0.0895(6) 0.09818(35)
C4 C -0.3546(4) -0.0018(6) 0.16228(31)
O1A O 0.0701(4) 0.1368(5) 0.10498(32)
N1A N 0.1898(4) -0.0150(5) 0.03442(29)
N2A N 0.2530(5) 0.0847(7) 0.16247(23)
C1A C 0.1681(4) 0.0721(5) 0.10039(22)
C2A C 0.2932(5) -0.0955(6) 0.03327(31)
C3A C 0.3740(5) -0.0895(6) 0.09818(35)
C4A C 0.3546(4) 0.0018(6) 0.16228(31)
N2J N 0.0030(5) 0.1653(7) -0.08753(23)
N2K N -0.0030(5) -0.1653(7) -0.08753(23)
Ni1C Ni -0.250000 -0.250000 0.250000
Ni1B Ni 0.250000 0.250000 0.250000
loop_
_geom_bond_atom_site_label_1
_geom_bond_atom_site_label_2
_geom_bond_site_symmetry_1
_geom_bond_site_symmetry_2
Ni1 O1 1_555 1_555
O1 C1 1_555 1_555
N1 Ni1 1_555 1_555
N2 C1 1_555 1_555
C1 N1 1_555 1_555
C2 N1 1_555 1_555
C3 C2 1_555 1_555
C4 N2 1_555 1_555
O1A Ni1 1_555 1_555
N1A Ni1 1_555 1_555
N2A C1A 1_555 1_555
C1A O1A 1_555 1_555
C2A N1A 1_555 1_555
C3A C2A 1_555 1_555
C4A N2A 1_555 1_555
N2J Ni1 1_555 1_555
N2K Ni1 1_555 1_555
Ni1C N2 1_555 1_555
Ni1B N2A 1_555 1_555
C3 C4 1_555 1_555
N1A C1A 1_555 1_555
C3A C4A 1_555 1_555

#END
