
#######################################################################
#
#                 Cambridge Crystallographic Data Centre
#                                CCDC 
#
#######################################################################
#
# If this CIF has been generated from an entry in the Cambridge 
# Structural Database, then it will include bibliographic, chemical, 
# crystal, experimental, refinement or atomic coordinate data resulting 
# from the CCDC's data processing and validation procedures.
#
#######################################################################

data_VIHYEQ
_symmetry_cell_setting           tetragonal
_symmetry_space_group_name_H-M   'P 42/n m c'
_symmetry_Int_Tables_number      137
_space_group_name_Hall           '-P 4ac 2a'
loop_
_symmetry_equiv_pos_site_id
_symmetry_equiv_pos_as_xyz
1 x,y,z
2 1/2-y,x,1/2+z
3 1/2+x,-y,-z
4 1/2-x,1/2-y,z
5 1/2+y,1/2+x,1/2-z
6 y,1/2-x,1/2+z
7 -x,1/2+y,-z
8 -y,-x,1/2-z
9 -x,-y,-z
10 1/2+y,-x,1/2-z
11 1/2-x,y,z
12 1/2+x,1/2+y,-z
13 1/2-y,1/2-x,1/2+z
14 -y,1/2+x,1/2-z
15 x,1/2-y,z
16 y,x,1/2+z
_cell_length_a                   12.6531(4)
_cell_length_b                   12.6531(4)
_cell_length_c                   14.5842(8)
_cell_angle_alpha                90
_cell_angle_beta                 90
_cell_angle_gamma                90
_cell_volume                     2334.94
loop_
_atom_site_label
_atom_site_type_symbol
_atom_site_fract_x
_atom_site_fract_y
_atom_site_fract_z
Ni1 Ni 0.000000 0.000000 0.000000
N1 N 0.155561(4) -0.03330(45) 0.05903(5)
O1 O 0.250000 -0.0118(12) -0.07270(12)
C1 C 0.250000 -0.02443(47) 0.012312
C2 C 0.155560(5) -0.05482(74) 0.15179(16)
C3 C 0.250000 -0.0672(10) 0.19789(30)
N2 N 0.00407(62) 0.155572(5) 0.05695(10)
O2 O 0.0542(11) 0.250000 -0.06881(25)
C4 C 0.01988(76) 0.250000 0.011559
C5 C -0.02064(86) 0.155559(5) 0.14911(30)
C6 C -0.03126(97) 0.250000 0.19555(33)
O3 O 0.0697(4) 0.0541(4) -0.11474(59)
N1J N 0.344439(4) -0.03330(45) 0.05903(5)
C2J C 0.344440(5) -0.05482(74) 0.15179(16)
N2N N 0.00407(62) 0.344428(5) 0.05695(10)
C5N C -0.02064(86) 0.344441(5) 0.14911(30)
N1H N -0.155561(4) 0.03330(45) -0.05903(5)
O1H O -0.250000 0.0118(12) 0.07270(12)
C1H C -0.250000 0.02443(47) -0.012312
C2H C -0.155560(5) 0.05482(74) -0.15179(16)
C3H C -0.250000 0.0672(10) -0.19789(30)
N1B N -0.344439(4) 0.03330(45) -0.05903(5)
C2B C -0.344440(5) 0.05482(74) -0.15179(16)
N2H N -0.00407(62) -0.155572(5) -0.05695(10)
O2H O -0.0542(11) -0.250000 0.06881(25)
C4H C -0.01988(76) -0.250000 -0.011559
C5H C 0.02064(86) -0.155559(5) -0.14911(30)
C6H C 0.03126(97) -0.250000 -0.19555(33)
N2F N -0.00407(62) -0.344428(5) -0.05695(10)
C5F C 0.02064(86) -0.344441(5) -0.14911(30)
O3H O -0.0697(4) -0.0541(4) 0.11474(59)
Ni1J Ni 0.500000 0.000000 0.000000
Ni1F Ni 0.000000 0.500000 0.000000
Ni1B Ni -0.500000 0.000000 0.000000
Ni1F_2 Ni 0.000000 -0.500000 0.000000
N1B_2 N 0.655561(4) 0.03330(45) -0.05903(5)
N2B N 0.50407(62) -0.155572(5) -0.05695(10)
N2J N 0.49593(62) 0.155572(5) 0.05695(10)
O3B O 0.5697(4) -0.0541(4) 0.11474(59)
O3J O 0.4303(4) 0.0541(4) -0.11474(59)
O4 O 0.750000 0.250000 0.1259(17)
loop_
_geom_bond_atom_site_label_1
_geom_bond_atom_site_label_2
_geom_bond_site_symmetry_1
_geom_bond_site_symmetry_2
Ni1 N1 1_555 1_555
N1 C1 1_555 1_555
O1 C1 1_555 1_555
C1 N1J 1_555 1_555
C2 N1 1_555 1_555
C3 C2 1_555 1_555
N2 Ni1 1_555 1_555
O2 C4 1_555 1_555
C4 N2 1_555 1_555
C5 N2 1_555 1_555
C6 C5 1_555 1_555
O3 Ni1 1_555 1_555
N1J C2J 1_555 1_555
C2J C3 1_555 1_555
N2N C4 1_555 1_555
C5N C6 1_555 1_555
N1H Ni1 1_555 1_555
O1H C1H 1_555 1_555
C1H N1H 1_555 1_555
C2H N1H 1_555 1_555
C3H C2H 1_555 1_555
N1B C1H 1_555 1_555
C2B C3H 1_555 1_555
N2H Ni1 1_555 1_555
O2H C4H 1_555 1_555
C4H N2H 1_555 1_555
C5H N2H 1_555 1_555
C6H C5H 1_555 1_555
N2F C4H 1_555 1_555
C5F C6H 1_555 1_555
O3H Ni1 1_555 1_555
Ni1J N1J 1_555 1_555
Ni1F N2N 1_555 1_555
Ni1B N1B 1_555 1_555
Ni1F_2 N2F 1_555 1_555
N1B_2 Ni1J 1_555 1_555
N2B Ni1J 1_555 1_555
N2J Ni1J 1_555 1_555
O3B Ni1J 1_555 1_555
O3J Ni1J 1_555 1_555
N2N C5N 1_555 1_555
N1B C2B 1_555 1_555
N2F C5F 1_555 1_555

#END
