
#######################################################################
#
#                 Cambridge Crystallographic Data Centre
#                                CCDC 
#
#######################################################################
#
# If this CIF has been generated from an entry in the Cambridge 
# Structural Database, then it will include bibliographic, chemical, 
# crystal, experimental, refinement or atomic coordinate data resulting 
# from the CCDC's data processing and validation procedures.
#
#######################################################################

data_VIHZOD
_symmetry_cell_setting           monoclinic
_symmetry_space_group_name_H-M   'P 21/c'
_symmetry_Int_Tables_number      14
_space_group_name_Hall           '-P 2ybc'
loop_
_symmetry_equiv_pos_site_id
_symmetry_equiv_pos_as_xyz
1 x,y,z
2 -x,1/2+y,1/2-z
3 -x,-y,-z
4 x,1/2-y,1/2+z
_cell_length_a                   11.136(3)
_cell_length_b                   10.809(3)
_cell_length_c                   14.111(4)
_cell_angle_alpha                90
_cell_angle_beta                 92.059(4)
_cell_angle_gamma                90
_cell_volume                     1697.43
loop_
_atom_site_label
_atom_site_type_symbol
_atom_site_fract_x
_atom_site_fract_y
_atom_site_fract_z
Mn1 Mn 0.30280(3) 0.18077(3) 0.22775(3)
N1 N 0.15363(16) 0.24433(18) 0.31937(14)
N2 N 0.21679(17) 0.01019(18) 0.28873(14)
N3 N 0.45755(15) 0.18225(18) 0.33762(15)
O1 O 0.77923(14) -0.08589(15) 0.42966(13)
O2 O 0.64225(14) -0.14674(14) 0.32083(12)
O3 O 0.43971(13) 0.06459(14) 0.16793(12)
O4 O 0.63933(14) 0.04262(15) 0.17876(12)
O5 O 0.18134(12) 0.16737(14) 0.09977(11)
H1 H 0.2100 0.1115 0.0647
H2 H 0.1794 0.2344 0.0683
C1 C 0.1254(2) 0.3632(2) 0.33375(18)
H3 H 0.1777 0.4240 0.3134
C2 C 0.0222(2) 0.3996(3) 0.37735(19)
H4 H 0.0056 0.4830 0.3860
C3 C -0.0554(2) 0.3109(3) 0.40770(18)
H5 H -0.1257 0.3332 0.4370
C4 C -0.0276(2) 0.1877(3) 0.39402(18)
H6 H -0.0794 0.1260 0.4136
C5 C 0.0780(2) 0.1568(2) 0.35103(17)
C6 C 0.1159(2) 0.0266(2) 0.33672(18)
C7 C 0.0528(2) -0.0733(2) 0.37110(19)
H7 H -0.0169 -0.0608 0.4042
C8 C 0.0945(2) -0.1910(2) 0.35577(19)
H8 H 0.0526 -0.2587 0.3783
C9 C 0.1975(2) -0.2087(2) 0.30745(19)
H9 H 0.2270 -0.2879 0.2968
C10 C 0.2559(2) -0.1059(2) 0.27520(19)
H10 H 0.3261 -0.1171 0.2424
C11 C 0.6878(2) -0.0695(2) 0.3786(2)
C12 C 0.61735(19) 0.0490(2) 0.38971(19)
C13 C 0.6192(2) 0.1059(2) 0.47722(19)
H11 H 0.6732 0.0798 0.5249
C14 C 0.5407(2) 0.2017(2) 0.4941(2)
H12 H 0.5433 0.2433 0.5518
C15 C 0.4586(2) 0.2340(2) 0.4232(2)
H13 H 0.4016 0.2942 0.4356
C16 C 0.5392(2) 0.0948(2) 0.31862(18)
C17 C 0.5405(2) 0.0614(2) 0.21380(19)
Mn1A Mn 0.69720(3) -0.31923(3) 0.27225(3)
O2A O 0.35775(14) 0.35326(14) 0.17917(12)
O6 O 0.69924(14) 0.48465(14) 0.49237(12)
H14 H 0.6467 0.5099 0.4517
H15 H 0.6676 0.4809 0.5462
loop_
_geom_bond_atom_site_label_1
_geom_bond_atom_site_label_2
_geom_bond_site_symmetry_1
_geom_bond_site_symmetry_2
Mn1 N1 1_555 1_555
N1 C1 1_555 1_555
N2 Mn1 1_555 1_555
N3 Mn1 1_555 1_555
O1 C11 1_555 1_555
O2 C11 1_555 1_555
O3 Mn1 1_555 1_555
O4 C17 1_555 1_555
O5 Mn1 1_555 1_555
H1 O5 1_555 1_555
H2 O5 1_555 1_555
C1 H3 1_555 1_555
C2 C1 1_555 1_555
H4 C2 1_555 1_555
C3 C2 1_555 1_555
H5 C3 1_555 1_555
C4 C3 1_555 1_555
H6 C4 1_555 1_555
C5 N1 1_555 1_555
C6 N2 1_555 1_555
C7 C6 1_555 1_555
H7 C7 1_555 1_555
C8 C7 1_555 1_555
H8 C8 1_555 1_555
C9 C8 1_555 1_555
H9 C9 1_555 1_555
C10 N2 1_555 1_555
H10 C10 1_555 1_555
C11 C12 1_555 1_555
C12 C13 1_555 1_555
C13 H11 1_555 1_555
C14 C13 1_555 1_555
H12 C14 1_555 1_555
C15 N3 1_555 1_555
H13 C15 1_555 1_555
C16 N3 1_555 1_555
C17 O3 1_555 1_555
O6 H14 1_555 1_555
H15 O6 1_555 1_555
Mn1A O2 1_555 1_555
O2A Mn1 1_555 1_555
C4 C5 1_555 1_555
C5 C6 1_555 1_555
C9 C10 1_555 1_555
C12 C16 1_555 1_555
C14 C15 1_555 1_555
C16 C17 1_555 1_555

#END
