
#######################################################################
#
#                 Cambridge Crystallographic Data Centre
#                                CCDC 
#
#######################################################################
#
# If this CIF has been generated from an entry in the Cambridge 
# Structural Database, then it will include bibliographic, chemical, 
# crystal, experimental, refinement or atomic coordinate data resulting 
# from the CCDC's data processing and validation procedures.
#
#######################################################################

data_VIJMAE
_symmetry_cell_setting           monoclinic
_symmetry_space_group_name_H-M   'P 21/c'
_symmetry_Int_Tables_number      14
_space_group_name_Hall           '-P 2ybc'
loop_
_symmetry_equiv_pos_site_id
_symmetry_equiv_pos_as_xyz
1 x,y,z
2 -x,1/2+y,1/2-z
3 -x,-y,-z
4 x,1/2-y,1/2+z
_cell_length_a                   11.2011(7)
_cell_length_b                   10.1352(8)
_cell_length_c                   16.3391(14)
_cell_angle_alpha                90
_cell_angle_beta                 90.143(8)
_cell_angle_gamma                90
_cell_volume                     1854.9
loop_
_atom_site_label
_atom_site_type_symbol
_atom_site_fract_x
_atom_site_fract_y
_atom_site_fract_z
Cu1 Cu 0.54609(4) 0.17186(4) 0.48455(2)
N1 N 0.4793(3) -0.1901(3) 0.13110(18)
C1 C 0.3982(3) -0.1203(3) 0.1705(2)
H1 H 0.3233 -0.1106 0.1465
C2 C 0.4185(3) -0.0603(3) 0.2462(2)
H2 H 0.3583 -0.0132 0.2723
C3 C 0.5301(3) -0.0727(3) 0.28109(19)
C4 C 0.6142(3) -0.1475(3) 0.2410(2)
H3 H 0.6894 -0.1607 0.2639
C5 C 0.5854(3) -0.2027(3) 0.1666(2)
H4 H 0.6435 -0.2515 0.1396
O1 O 0.4778(2) 0.0302(2) 0.40833(14)
C6 C 0.5597(3) 0.0002(3) 0.3585(2)
N2 N 0.6743(2) 0.0334(2) 0.36227(15)
N3 N 0.6888(2) 0.1083(2) 0.43180(15)
C7 C 0.7910(3) 0.1617(3) 0.4499(2)
C8 C 0.9007(3) 0.1494(3) 0.4022(2)
C9 C 0.9435(3) 0.0275(3) 0.3767(2)
H5 H 0.9031 -0.0493 0.3909
C10 C 1.0456(4) 0.0207(4) 0.3307(3)
H6 H 1.0746 -0.0613 0.3146
C11 C 1.1056(4) 0.1328(5) 0.3080(3)
H7 H 1.1739 0.1270 0.2759
C12 C 1.0640(4) 0.2532(4) 0.3329(3)
H8 H 1.1046 0.3295 0.3179
C13 C 0.9629(4) 0.2619(4) 0.3797(3)
H9 H 0.9358 0.3442 0.3966
C14 C 0.7828(3) 0.2412(3) 0.5263(2)
C15 C 0.8833(3) 0.2865(3) 0.5672(2)
H10 H 0.9593 0.2747 0.5457
C16 C 0.8665(4) 0.3507(4) 0.6420(2)
H11 H 0.9320 0.3797 0.6722
C17 C 0.7543(4) 0.3705(4) 0.6703(2)
H12 H 0.7418 0.4132 0.7199
C18 C 0.6592(4) 0.3264(3) 0.6247(2)
H13 H 0.5824 0.3421 0.6438
N4 N 0.6725(3) 0.2623(3) 0.55412(16)
S1 S 0.19563(11) 0.36082(14) 0.58230(10)
N5 N 0.4049(3) 0.2386(3) 0.53441(18)
C19 C 0.3175(3) 0.2899(4) 0.5537(2)
Cu1A Cu 0.45391(4) -0.32814(4) 0.01545(2)
Cu1B Cu 0.45391(4) -0.17186(4) 0.51545(2)
N1A N 0.5207(3) 0.3099(3) 0.36890(18)
O1B O 0.5222(2) -0.0302(2) 0.59167(14)
loop_
_geom_bond_atom_site_label_1
_geom_bond_atom_site_label_2
_geom_bond_site_symmetry_1
_geom_bond_site_symmetry_2
Cu1 O1 1_555 1_555
N1 C1 1_555 1_555
C1 H1 1_555 1_555
C2 C1 1_555 1_555
H2 C2 1_555 1_555
C3 C2 1_555 1_555
C4 C3 1_555 1_555
H3 C4 1_555 1_555
C5 N1 1_555 1_555
H4 C5 1_555 1_555
O1 C6 1_555 1_555
C6 C3 1_555 1_555
N2 C6 1_555 1_555
N3 Cu1 1_555 1_555
C7 N3 1_555 1_555
C8 C7 1_555 1_555
C9 C8 1_555 1_555
H5 C9 1_555 1_555
C10 C9 1_555 1_555
H6 C10 1_555 1_555
C11 C10 1_555 1_555
H7 C11 1_555 1_555
C12 C11 1_555 1_555
H8 C12 1_555 1_555
C13 C8 1_555 1_555
H9 C13 1_555 1_555
C14 C7 1_555 1_555
C15 C14 1_555 1_555
H10 C15 1_555 1_555
C16 C15 1_555 1_555
H11 C16 1_555 1_555
C17 C16 1_555 1_555
H12 C17 1_555 1_555
C18 C17 1_555 1_555
H13 C18 1_555 1_555
N4 Cu1 1_555 1_555
S1 C19 1_555 1_555
N5 Cu1 1_555 1_555
C19 N5 1_555 1_555
Cu1A N1 1_555 1_555
Cu1B O1 1_555 1_555
N1A Cu1 1_555 1_555
O1B Cu1 1_555 1_555
C4 C5 1_555 1_555
N2 N3 1_555 1_555
C12 C13 1_555 1_555
C14 N4 1_555 1_555
C18 N4 1_555 1_555
Cu1B O1B 1_555 1_555

#END
