
#######################################################################
#
#                 Cambridge Crystallographic Data Centre
#                                CCDC 
#
#######################################################################
#
# If this CIF has been generated from an entry in the Cambridge 
# Structural Database, then it will include bibliographic, chemical, 
# crystal, experimental, refinement or atomic coordinate data resulting 
# from the CCDC's data processing and validation procedures.
#
#######################################################################

data_VIJNOT
_symmetry_cell_setting           triclinic
_symmetry_space_group_name_H-M   'P -1'
_symmetry_Int_Tables_number      2
_space_group_name_Hall           '-P 1'
loop_
_symmetry_equiv_pos_site_id
_symmetry_equiv_pos_as_xyz
1 x,y,z
2 -x,-y,-z
_cell_length_a                   10.1567(11)
_cell_length_b                   11.5085(12)
_cell_length_c                   12.2008(15)
_cell_angle_alpha                111.215(2)
_cell_angle_beta                 102.2070(10)
_cell_angle_gamma                99.7660(10)
_cell_volume                     1251.11
loop_
_atom_site_label
_atom_site_type_symbol
_atom_site_fract_x
_atom_site_fract_y
_atom_site_fract_z
Co1 Co 0.5000 0.5000 0.0000
N1 N 0.3807(6) 0.5231(5) 0.3270(5)
N2 N 0.5206(6) 0.5799(6) 0.3701(5)
N3 N 0.5585(6) 0.5927(5) 0.2788(5)
N4 N 0.4461(5) 0.5425(5) 0.1734(5)
N5 N 0.4859(5) 0.6877(5) 0.0014(5)
O1 O 0.1707(6) 0.6682(5) 0.4281(5)
O2 O 0.2101(7) 0.5905(6) 0.5893(6)
O3 O 0.3999(6) 0.7314(6) 0.5731(5)
O4 O 0.7127(4) 0.5849(4) 0.1004(4)
H1 H 0.7653 0.5692 0.0541
H2 H 0.7367 0.5607 0.1579
S1 S 0.1633(2) 0.4249(2) 0.11383(18)
S2 S 0.2704(2) 0.63366(19) 0.50966(18)
C1 C 0.3327(7) 0.4993(6) 0.2036(6)
C2 C 0.3047(7) 0.4924(6) 0.4045(7)
H3 H 0.3582 0.4546 0.4514
H4 H 0.2166 0.4285 0.3532
C3 C 0.5289(6) 0.7951(6) 0.1063(6)
H5 H 0.5555 0.7870 0.1803
C4 C 0.5355(6) 0.9180(6) 0.1098(6)
H6 H 0.5659 0.9895 0.1851
C5 C 0.4964(6) 0.9348(5) -0.0003(6)
C6 C 0.4477(6) 0.8227(6) -0.1081(6)
H7 H 0.4173 0.8278 -0.1833
C7 C 0.4439(7) 0.7032(6) -0.1050(6)
H8 H 0.4112 0.6299 -0.1791
N5A N 0.5141(5) 1.3123(5) -0.0014(5)
C3A C 0.4711(6) 1.2049(6) -0.1063(6)
H5A H 0.4445 1.2130 -0.1803
C4A C 0.4645(6) 1.0820(6) -0.1098(6)
H6A H 0.4341 1.0105 -0.1851
C5A C 0.5036(6) 1.0652(5) 0.0003(6)
C6A C 0.5523(6) 1.1773(6) 0.1081(6)
H7A H 0.5827 1.1722 0.1833
C7A C 0.5561(7) 1.2968(6) 0.1050(6)
H8A H 0.5888 1.3701 0.1791
N1A N 0.6193(6) 0.4769(5) -0.3270(5)
N2A N 0.4794(6) 0.4201(6) -0.3701(5)
N3A N 0.4415(6) 0.4073(5) -0.2788(5)
N4A N 0.5539(5) 0.4575(5) -0.1734(5)
O1A O 0.8293(6) 0.3318(5) -0.4281(5)
O2A O 0.7899(7) 0.4095(6) -0.5893(6)
O3A O 0.6001(6) 0.2686(6) -0.5731(5)
O4A O 0.2873(4) 0.4151(4) -0.1004(4)
H1A H 0.2347 0.4308 -0.0541
H2A H 0.2633 0.4393 -0.1579
S1A S 0.8367(2) 0.5751(2) -0.11383(18)
S2A S 0.7296(2) 0.36634(19) -0.50966(18)
C1A C 0.6673(7) 0.5007(6) -0.2036(6)
C2A C 0.6953(7) 0.5076(6) -0.4045(7)
H3A H 0.6418 0.5454 -0.4514
H4A H 0.7834 0.5715 -0.3532
Co1_2 Co 0.5000 1.5000 0.0000
N5A_2 N 0.5141(5) 0.3123(5) -0.0014(5)
Co2 Co 1.0000 0.0000 0.5000
N6 N 0.9429(6) 0.0267(5) 0.3299(5)
N7 N 0.7607(7) 0.0873(8) -0.2449(7)
O5 O 0.8220(5) -0.1644(5) 0.4316(5)
H9 H 0.8292 -0.2304 0.3747
H10 H 0.7443 -0.1484 0.4099
O6 O 1.1318(5) -0.1077(5) 0.4321(5)
H11 H 1.1374 -0.1091 0.3631
H12 H 1.1090 -0.1845 0.4270
C8 C 0.9446(8) 0.1431(7) 0.3268(7)
H13 H 0.9701 0.2159 0.4009
C9 C 0.9100(8) 0.1582(7) 0.2179(7)
H14 H 0.9141 0.2406 0.2205
C10 C 0.8689(6) 0.0522(6) 0.1040(6)
C11 C 0.8661(7) -0.0672(7) 0.1076(6)
H15 H 0.8396 -0.1414 0.0346
C12 C 0.9034(7) -0.0761(6) 0.2210(7)
H16 H 0.9005 -0.1574 0.2208
C13 C 0.8078(8) 0.1917(8) -0.1361(8)
H17 H 0.8175 0.2731 -0.1370
C14 C 0.8427(7) 0.1846(7) -0.0230(7)
H18 H 0.8753 0.2602 0.0491
C15 C 0.8291(6) 0.0650(7) -0.0168(6)
C16 C 0.7759(7) -0.0451(7) -0.1305(7)
H19 H 0.7626 -0.1278 -0.1321
C17 C 0.7433(8) -0.0291(9) -0.2408(8)
H20 H 0.7079 -0.1026 -0.3146
N6A N 1.0571(6) -0.0267(5) 0.6701(5)
N7A N 1.2393(7) -0.0873(8) 1.2449(7)
O5A O 1.1780(5) 0.1644(5) 0.5684(5)
H9A H 1.1708 0.2304 0.6253
H10A H 1.2557 0.1484 0.5901
O6A O 0.8682(5) 0.1077(5) 0.5679(5)
H11A H 0.8626 0.1091 0.6369
H12A H 0.8910 0.1845 0.5730
C8A C 1.0554(8) -0.1431(7) 0.6732(7)
H13A H 1.0299 -0.2159 0.5991
C9A C 1.0900(8) -0.1582(7) 0.7821(7)
H14A H 1.0859 -0.2406 0.7795
C10A C 1.1311(6) -0.0522(6) 0.8960(6)
C11A C 1.1339(7) 0.0672(7) 0.8924(6)
H15A H 1.1604 0.1414 0.9654
C12A C 1.0966(7) 0.0761(6) 0.7790(7)
H16A H 1.0995 0.1574 0.7792
C13A C 1.1922(8) -0.1917(8) 1.1361(8)
H17A H 1.1825 -0.2731 1.1370
C14A C 1.1573(7) -0.1846(7) 1.0230(7)
H18A H 1.1247 -0.2602 0.9509
C15A C 1.1709(6) -0.0650(7) 1.0168(6)
C16A C 1.2241(7) 0.0451(7) 1.1305(7)
H19A H 1.2374 0.1278 1.1321
C17A C 1.2567(8) 0.0291(9) 1.2408(8)
H20A H 1.2921 0.1026 1.3146
O7 O 0.8776(6) 0.5857(6) 0.3179(6)
H22 H 0.9660 0.6130 0.3495
H23 H 0.8468 0.5308 0.3442
O8 O 0.5358(8) 0.8750(6) 0.4416(7)
H24 H 0.5002 0.8337 0.4783
H25 H 0.6152 0.8615 0.4398
H21? H 0.8387 -0.1683 0.5013
H26? H 0.5448 0.9555 0.4791
loop_
_geom_bond_atom_site_label_1
_geom_bond_atom_site_label_2
_geom_bond_site_symmetry_1
_geom_bond_site_symmetry_2
Co1 N4 1_555 1_555
N1 N2 1_555 1_555
N2 N3 1_555 1_555
N3 N4 1_555 1_555
N4 C1 1_555 1_555
N5 Co1 1_555 1_555
O1 S2 1_555 1_555
O2 S2 1_555 1_555
O3 S2 1_555 1_555
O4 Co1 1_555 1_555
H1 O4 1_555 1_555
H2 O4 1_555 1_555
S1 C1 1_555 1_555
S2 C2 1_555 1_555
C1 N1 1_555 1_555
C2 N1 1_555 1_555
H3 C2 1_555 1_555
H4 C2 1_555 1_555
C3 N5 1_555 1_555
H5 C3 1_555 1_555
C4 C3 1_555 1_555
H6 C4 1_555 1_555
C5 C4 1_555 1_555
C6 C5 1_555 1_555
H7 C6 1_555 1_555
C7 N5 1_555 1_555
H8 C7 1_555 1_555
Co2 N6 1_555 1_555
N6 C8 1_555 1_555
N7 C13 1_555 1_555
O5 Co2 1_555 1_555
H9 O5 1_555 1_555
H10 O5 1_555 1_555
O6 Co2 1_555 1_555
H11 O6 1_555 1_555
H12 O6 1_555 1_555
C8 H13 1_555 1_555
C9 C8 1_555 1_555
H14 C9 1_555 1_555
C10 C9 1_555 1_555
C11 C10 1_555 1_555
H15 C11 1_555 1_555
C12 N6 1_555 1_555
H16 C12 1_555 1_555
C13 H17 1_555 1_555
C14 C13 1_555 1_555
H18 C14 1_555 1_555
C15 C10 1_555 1_555
C16 C15 1_555 1_555
H19 C16 1_555 1_555
C17 N7 1_555 1_555
H20 C17 1_555 1_555
O7 H22 1_555 1_555
H23 O7 1_555 1_555
O8 H24 1_555 1_555
H25 O8 1_555 1_555
N5A C3A 1_555 1_555
C3A H5A 1_555 1_555
C4A C3A 1_555 1_555
H6A C4A 1_555 1_555
C5A C5 1_555 1_555
C6A C5A 1_555 1_555
H7A C6A 1_555 1_555
C7A N5A 1_555 1_555
H8A C7A 1_555 1_555
N1A N2A 1_555 1_555
N2A N3A 1_555 1_555
N3A N4A 1_555 1_555
N4A Co1 1_555 1_555
O1A S2A 1_555 1_555
O2A S2A 1_555 1_555
O3A S2A 1_555 1_555
O4A Co1 1_555 1_555
H1A O4A 1_555 1_555
H2A O4A 1_555 1_555
S1A C1A 1_555 1_555
S2A C2A 1_555 1_555
C1A N1A 1_555 1_555
C2A N1A 1_555 1_555
H3A C2A 1_555 1_555
H4A C2A 1_555 1_555
Co1_2 N5A 1_555 1_555
N5A_2 Co1 1_555 1_555
N6A Co2 1_555 1_555
N7A C13A 1_555 1_555
O5A Co2 1_555 1_555
H9A O5A 1_555 1_555
H10A O5A 1_555 1_555
O6A Co2 1_555 1_555
H11A O6A 1_555 1_555
H12A O6A 1_555 1_555
C8A N6A 1_555 1_555
H13A C8A 1_555 1_555
C9A C8A 1_555 1_555
H14A C9A 1_555 1_555
C10A C9A 1_555 1_555
C11A C10A 1_555 1_555
H15A C11A 1_555 1_555
C12A N6A 1_555 1_555
H16A C12A 1_555 1_555
C13A H17A 1_555 1_555
C14A C13A 1_555 1_555
H18A C14A 1_555 1_555
C15A C10A 1_555 1_555
C16A C15A 1_555 1_555
H19A C16A 1_555 1_555
C17A N7A 1_555 1_555
H20A C17A 1_555 1_555
C6 C7 1_555 1_555
C11 C12 1_555 1_555
C14 C15 1_555 1_555
C16 C17 1_555 1_555
C4A C5A 1_555 1_555
C6A C7A 1_555 1_555
N4A C1A 1_555 1_555
C11A C12A 1_555 1_555
C14A C15A 1_555 1_555
C16A C17A 1_555 1_555

#END
