
#######################################################################
#
#                 Cambridge Crystallographic Data Centre
#                                CCDC 
#
#######################################################################
#
# If this CIF has been generated from an entry in the Cambridge 
# Structural Database, then it will include bibliographic, chemical, 
# crystal, experimental, refinement or atomic coordinate data resulting 
# from the CCDC's data processing and validation procedures.
#
#######################################################################

data_VIJNUZ
_symmetry_cell_setting           monoclinic
_symmetry_space_group_name_H-M   'P 21/c'
_symmetry_Int_Tables_number      14
_space_group_name_Hall           '-P 2ybc'
loop_
_symmetry_equiv_pos_site_id
_symmetry_equiv_pos_as_xyz
1 x,y,z
2 -x,1/2+y,1/2-z
3 -x,-y,-z
4 x,1/2-y,1/2+z
_cell_length_a                   14.7772(12)
_cell_length_b                   10.4334(19)
_cell_length_c                   26.390(3)
_cell_angle_alpha                90
_cell_angle_beta                 95.004(2)
_cell_angle_gamma                90
_cell_volume                     4053.21
loop_
_atom_site_label
_atom_site_type_symbol
_atom_site_fract_x
_atom_site_fract_y
_atom_site_fract_z
Zn1 Zn 0.41927(3) 0.26793(5) 0.575792(19)
Zn2 Zn 0.24848(4) 0.24589(6) 0.658981(19)
N1 N 0.2961(3) 0.6417(4) 0.59580(15)
N2 N 0.3471(3) 0.6537(4) 0.55606(16)
N3 N 0.3808(3) 0.5426(4) 0.54849(16)
N4 N 0.3533(3) 0.4569(4) 0.58291(14)
N5 N 0.3864(2) 0.2726(3) 0.49933(13)
N6 N 0.2666(3) 0.2928(4) 0.23485(13)
N7 N 0.5446(3) 0.3276(4) 0.60686(14)
N8 N 0.9902(3) 0.3745(6) 0.7293(2)
N9 N 0.1236(3) 0.1809(4) 0.63408(15)
N10 N -0.3367(3) 0.0419(4) 0.5605(2)
O1 O 0.3891(3) 0.9069(4) 0.61964(17)
O2 O 0.2778(3) 0.9414(4) 0.67829(17)
O3 O 0.3818(3) 0.7631(4) 0.68916(18)
O4 O 0.3446(2) 0.1869(3) 0.62226(12)
H1 H 0.3584 0.1008 0.6279
O5 O 0.4778(2) 0.0750(3) 0.56081(13)
H2 H 0.4605 0.0196 0.5816
H3 H 0.5355 0.0777 0.5635
S1 S 0.24145(12) 0.46802(14) 0.66182(6)
S2 S 0.33255(9) 0.84853(12) 0.65466(5)
C1 C 0.2999(3) 0.5189(4) 0.61258(17)
C2 C 0.2533(3) 0.7520(4) 0.61698(19)
H4 H 0.2063 0.7231 0.6378
H5 H 0.2246 0.8035 0.5895
C3 C 0.3008(3) 0.2966(5) 0.48115(17)
H6 H 0.2574 0.3103 0.5041
C4 C 0.2743(3) 0.3017(5) 0.42996(17)
H7 H 0.2137 0.3160 0.4188
C5 C 0.3382(3) 0.2853(4) 0.39507(16)
C6 C 0.4270(3) 0.2605(4) 0.41398(16)
H8 H 0.4720 0.2489 0.3919
C7 C 0.4478(3) 0.2530(4) 0.46584(16)
H9 H 0.5071 0.2336 0.4780
C8 C 0.2070(3) 0.2536(5) 0.26703(17)
H10 H 0.1502 0.2254 0.2537
C9 C 0.2263(3) 0.2534(5) 0.31898(17)
H11 H 0.1824 0.2283 0.3402
C10 C 0.3120(3) 0.2911(4) 0.33949(16)
C11 C 0.3730(3) 0.3336(5) 0.30609(17)
H12 H 0.4305 0.3616 0.3184
C12 C 0.3478(3) 0.3340(5) 0.25470(18)
H13 H 0.3889 0.3643 0.2328
C13 C 0.6150(3) 0.3599(5) 0.58122(18)
H14 H 0.6048 0.3728 0.5463
C14 C 0.7021(3) 0.3753(5) 0.60382(19)
H15 H 0.7492 0.3965 0.5842
C15 C 0.7194(3) 0.3588(5) 0.65606(19)
C16 C 0.6454(3) 0.3299(5) 0.68258(19)
H16 H 0.6528 0.3204 0.7177
C17 C 0.5612(3) 0.3150(5) 0.65726(19)
H17 H 0.5129 0.2950 0.6761
C18 C 0.9248(5) 0.3084(8) 0.7491(3)
H18 H 0.9393 0.2647 0.7795
C19 C 0.8357(4) 0.3010(6) 0.7270(2)
H19 H 0.7923 0.2532 0.7422
C20 C 0.8131(3) 0.3664(5) 0.6818(2)
C21 C 0.8811(4) 0.4342(6) 0.6617(3)
H20 H 0.8689 0.4796 0.6316
C22 C 0.9683(4) 0.4353(7) 0.6864(3)
H21 H 1.0132 0.4813 0.6718
C23 C 0.0780(4) 0.2341(6) 0.5938(2)
H22 H 0.1070 0.2968 0.5760
C24 C -0.0098(4) 0.2015(6) 0.5768(2)
H23 H -0.0381 0.2397 0.5478
C25 C -0.0553(3) 0.1118(5) 0.60328(19)
C26 C -0.0079(3) 0.0555(5) 0.6453(2)
H24 H -0.0357 -0.0058 0.6643
C27 C 0.0805(3) 0.0912(5) 0.6587(2)
H25 H 0.1118 0.0508 0.6864
C28 C -0.3025(4) 0.0378(5) 0.6084(2)
H26 H -0.3421 0.0223 0.6333
C29 C -0.2114(3) 0.0551(5) 0.6239(2)
H27 H -0.1907 0.0492 0.6582
C30 C -0.1525(3) 0.0810(5) 0.5882(2)
C31 C -0.1869(4) 0.0825(6) 0.5373(2)
H28 H -0.1489 0.0972 0.5116
C32 C -0.2785(4) 0.0615(6) 0.5260(2)
H29 H -0.3007 0.0610 0.4919
Zn2C Zn 0.24848(4) 0.25411(6) 0.158981(19)
N6C N 0.2666(3) 0.2072(4) 0.73485(13)
Cl1 Cl 0.00267(12) 0.2241(2) 0.92701(7)
O6 O 0.0421(9) 0.2499(13) 0.8831(4)
O7 O -0.0524(9) 0.3335(16) 0.9398(5)
O8 O 0.0715(7) 0.2089(18) 0.9685(4)
O9 O -0.0529(12) 0.1161(14) 0.9242(5)
O14 O 0.4497(11) 0.579(3) 0.7519(9)
H30 H 0.4248 0.5889 0.7232
C33 C 0.417(4) 0.483(5) 0.7720(15)
H31 H 0.4492 0.4669 0.8045
H32 H 0.4213 0.4097 0.7504
H33 H 0.3538 0.4988 0.7766
O16 O 0.8453(4) 0.0357(7) 1.0058(3)
H38 H 0.8674 -0.0369 1.0148
H39 H 0.8733 0.0634 0.9813
O10? O -0.018(2) 0.235(2) 0.8715(8)
O11? O -0.0774(10) 0.248(3) 0.9468(7)
O12? O 0.0777(11) 0.304(2) 0.9450(11)
O13? O 0.0294(18) 0.0857(18) 0.9351(7)
O15? O 0.470(3) 0.519(4) 0.801(2)
H34? H 0.5000 0.4663 0.8185
C34? C 0.450(7) 0.472(10) 0.752(3)
H35? H 0.4839 0.5177 0.7291
H36? H 0.3859 0.4822 0.7428
H37? H 0.4650 0.3824 0.7517
loop_
_geom_bond_atom_site_label_1
_geom_bond_atom_site_label_2
_geom_bond_site_symmetry_1
_geom_bond_site_symmetry_2
Zn1 N4 1_555 1_555
Zn2 N9 1_555 1_555
N1 N2 1_555 1_555
N2 N3 1_555 1_555
N3 N4 1_555 1_555
N4 C1 1_555 1_555
N5 Zn1 1_555 1_555
N6 C8 1_555 1_555
N7 Zn1 1_555 1_555
N8 C18 1_555 1_555
N9 C23 1_555 1_555
N10 C28 1_555 1_555
O1 S2 1_555 1_555
O2 S2 1_555 1_555
O3 S2 1_555 1_555
O4 Zn1 1_555 1_555
H1 O4 1_555 1_555
O5 Zn1 1_555 1_555
H2 O5 1_555 1_555
H3 O5 1_555 1_555
S1 Zn2 1_555 1_555
S2 C2 1_555 1_555
C1 N1 1_555 1_555
C2 N1 1_555 1_555
H4 C2 1_555 1_555
H5 C2 1_555 1_555
C3 N5 1_555 1_555
H6 C3 1_555 1_555
C4 C3 1_555 1_555
H7 C4 1_555 1_555
C5 C4 1_555 1_555
C6 C5 1_555 1_555
H8 C6 1_555 1_555
C7 N5 1_555 1_555
H9 C7 1_555 1_555
C8 H10 1_555 1_555
C9 C8 1_555 1_555
H11 C9 1_555 1_555
C10 C5 1_555 1_555
C11 C10 1_555 1_555
H12 C11 1_555 1_555
C12 N6 1_555 1_555
H13 C12 1_555 1_555
C13 N7 1_555 1_555
H14 C13 1_555 1_555
C14 C13 1_555 1_555
H15 C14 1_555 1_555
C15 C14 1_555 1_555
C16 C15 1_555 1_555
H16 C16 1_555 1_555
C17 N7 1_555 1_555
H17 C17 1_555 1_555
C18 H18 1_555 1_555
C19 C18 1_555 1_555
H19 C19 1_555 1_555
C20 C15 1_555 1_555
C21 C20 1_555 1_555
H20 C21 1_555 1_555
C22 N8 1_555 1_555
H21 C22 1_555 1_555
C23 H22 1_555 1_555
C24 C23 1_555 1_555
H23 C24 1_555 1_555
C25 C24 1_555 1_555
C26 C25 1_555 1_555
H24 C26 1_555 1_555
C27 N9 1_555 1_555
H25 C27 1_555 1_555
C28 H26 1_555 1_555
C29 C28 1_555 1_555
H27 C29 1_555 1_555
C30 C25 1_555 1_555
C31 C30 1_555 1_555
H28 C31 1_555 1_555
C32 N10 1_555 1_555
H29 C32 1_555 1_555
Cl1 O6 1_555 1_555
O7 Cl1 1_555 1_555
O8 Cl1 1_555 1_555
O9 Cl1 1_555 1_555
O14 H30 1_555 1_555
C33 O14 1_555 1_555
H31 C33 1_555 1_555
H32 C33 1_555 1_555
H33 C33 1_555 1_555
O16 H38 1_555 1_555
H39 O16 1_555 1_555
Zn2C N6 1_555 1_555
N6C Zn2 1_555 1_555
Zn2 O4 1_555 1_555
S1 C1 1_555 1_555
C6 C7 1_555 1_555
C9 C10 1_555 1_555
C11 C12 1_555 1_555
C16 C17 1_555 1_555
C19 C20 1_555 1_555
C21 C22 1_555 1_555
C26 C27 1_555 1_555
C29 C30 1_555 1_555
C31 C32 1_555 1_555

#END
