
#######################################################################
#
#                 Cambridge Crystallographic Data Centre
#                                CCDC 
#
#######################################################################
#
# If this CIF has been generated from an entry in the Cambridge 
# Structural Database, then it will include bibliographic, chemical, 
# crystal, experimental, refinement or atomic coordinate data resulting 
# from the CCDC's data processing and validation procedures.
#
#######################################################################

data_VIJNAF
_symmetry_cell_setting           triclinic
_symmetry_space_group_name_H-M   'P -1'
_symmetry_Int_Tables_number      2
_space_group_name_Hall           '-P 1'
loop_
_symmetry_equiv_pos_site_id
_symmetry_equiv_pos_as_xyz
1 x,y,z
2 -x,-y,-z
_cell_length_a                   6.9742(5)
_cell_length_b                   8.1370(5)
_cell_length_c                   9.2325(7)
_cell_angle_alpha                114.904(5)
_cell_angle_beta                 89.960(6)
_cell_angle_gamma                103.884(5)
_cell_volume                     458.328
loop_
_atom_site_label
_atom_site_type_symbol
_atom_site_fract_x
_atom_site_fract_y
_atom_site_fract_z
Co1 Co 0.5000 0.5000 0.5000
N1 N 0.6113(7) 0.2986(6) 0.3298(5)
C1 C 0.7117(7) 0.2066(6) 0.2554(6)
S1 S 0.8542(2) 0.0785(2) 0.15006(18)
N2 N 0.5789(6) 0.4195(5) 0.6908(5)
C2 C 0.5784(7) 0.2462(6) 0.6768(6)
C3 C 0.6597(8) 0.2234(7) 0.8033(6)
H1 H 0.6543 0.1035 0.7927
C4 C 0.7472(8) 0.3775(8) 0.9432(7)
H2 H 0.8060 0.3638 1.0264
C5 C 0.7462(8) 0.5541(7) 0.9579(6)
H3 H 0.8010 0.6612 1.0522
C6 C 0.6624(7) 0.5666(6) 0.8301(6)
H4 H 0.6635 0.6857 0.8407
C7 C 0.4821(7) 0.0841(6) 0.5256(6)
H5 H 0.3911 0.0998 0.4622
O1 O 0.7969(5) 0.6880(5) 0.5501(4)
H6 H 0.8680 0.7427 0.6362
C8 C 0.9228(9) 0.6974(10) 0.4303(8)
H7 H 0.9839 0.5951 0.3954
H8 H 1.0240 0.8144 0.4745
H9 H 0.8452 0.6889 0.3403
N2A N 0.4211(6) -0.4195(5) 0.3092(5)
C2A C 0.4216(7) -0.2462(6) 0.3232(6)
C3A C 0.3403(8) -0.2234(7) 0.1967(6)
H1A H 0.3457 -0.1035 0.2073
C4A C 0.2528(8) -0.3775(8) 0.0568(7)
H2A H 0.1940 -0.3638 -0.0264
C5A C 0.2538(8) -0.5541(7) 0.0421(6)
H3A H 0.1990 -0.6612 -0.0522
C6A C 0.3376(7) -0.5666(6) 0.1699(6)
H4A H 0.3365 -0.6857 0.1593
C7A C 0.5179(7) -0.0841(6) 0.4744(6)
H5A H 0.6089 -0.0998 0.5378
O1A O 0.2031(5) 0.3120(5) 0.4499(4)
H6A H 0.1320 0.2573 0.3638
C8A C 0.0772(9) 0.3026(10) 0.5697(8)
H7A H 0.0161 0.4049 0.6046
H8A H -0.0240 0.1856 0.5255
H9A H 0.1548 0.3111 0.6597
N1A N 0.3887(7) 0.7014(6) 0.6702(5)
C1A C 0.2883(7) 0.7934(6) 0.7446(6)
S1A S 0.1458(2) 0.9215(2) 0.84994(18)
Co1_2 Co 0.5000 -0.5000 0.5000
N2A_2 N 0.4211(6) 0.5805(5) 0.3092(5)
loop_
_geom_bond_atom_site_label_1
_geom_bond_atom_site_label_2
_geom_bond_site_symmetry_1
_geom_bond_site_symmetry_2
Co1 N1 1_555 1_555
N1 C1 1_555 1_555
C1 S1 1_555 1_555
N2 Co1 1_555 1_555
C2 N2 1_555 1_555
C3 C2 1_555 1_555
H1 C3 1_555 1_555
C4 C3 1_555 1_555
H2 C4 1_555 1_555
C5 C4 1_555 1_555
H3 C5 1_555 1_555
C6 N2 1_555 1_555
H4 C6 1_555 1_555
C7 C2 1_555 1_555
H5 C7 1_555 1_555
O1 Co1 1_555 1_555
H6 O1 1_555 1_555
C8 O1 1_555 1_555
H7 C8 1_555 1_555
H8 C8 1_555 1_555
H9 C8 1_555 1_555
N2A C2A 1_555 1_555
C2A C3A 1_555 1_555
C3A H1A 1_555 1_555
C4A C3A 1_555 1_555
H2A C4A 1_555 1_555
C5A C4A 1_555 1_555
H3A C5A 1_555 1_555
C6A N2A 1_555 1_555
H4A C6A 1_555 1_555
C7A C7 1_555 1_555
H5A C7A 1_555 1_555
O1A Co1 1_555 1_555
H6A O1A 1_555 1_555
C8A O1A 1_555 1_555
H7A C8A 1_555 1_555
H8A C8A 1_555 1_555
H9A C8A 1_555 1_555
N1A Co1 1_555 1_555
C1A N1A 1_555 1_555
S1A C1A 1_555 1_555
Co1_2 N2A 1_555 1_555
N2A_2 Co1 1_555 1_555
C5 C6 1_555 1_555
C2A C7A 1_555 1_555
C5A C6A 1_555 1_555

#END
