
#######################################################################
#
#                 Cambridge Crystallographic Data Centre
#                                CCDC 
#
#######################################################################
#
# If this CIF has been generated from an entry in the Cambridge 
# Structural Database, then it will include bibliographic, chemical, 
# crystal, experimental, refinement or atomic coordinate data resulting 
# from the CCDC's data processing and validation procedures.
#
#######################################################################

data_VIJVAM
_symmetry_cell_setting           triclinic
_symmetry_space_group_name_H-M   'P -1'
_symmetry_Int_Tables_number      2
_space_group_name_Hall           '-P 1'
loop_
_symmetry_equiv_pos_site_id
_symmetry_equiv_pos_as_xyz
1 x,y,z
2 -x,-y,-z
_cell_length_a                   6.58840(10)
_cell_length_b                   7.9820(2)
_cell_length_c                   32.0154(7)
_cell_angle_alpha                84.0540(12)
_cell_angle_beta                 85.9342(14)
_cell_angle_gamma                73.0359(12)
_cell_volume                     1600.26
loop_
_atom_site_label
_atom_site_type_symbol
_atom_site_fract_x
_atom_site_fract_y
_atom_site_fract_z
Sm1 Sm 0.30754(3) -0.49989(2) 0.220786(5)
O1 O 0.0827(4) -0.2677(3) 0.25880(8)
C1 C -0.0426(5) -0.1168(4) 0.25052(11)
O2 O -0.1840(4) -0.0480(3) 0.17801(8)
C2 C -0.1581(5) -0.0161(4) 0.21377(11)
O3 O -0.3602(4) 0.2885(3) 0.23216(8)
C3 C -0.2410(5) 0.1356(4) 0.23956(11)
C4 C -0.1314(5) 0.0284(4) 0.27550(11)
N1 N -0.1136(5) 0.0323(4) 0.31636(9)
H1 H -0.037(5) -0.068(3) 0.3300(10)
C5 C -0.1843(4) 0.1475(2) 0.38428(7)
H2 H -0.1519 0.0303 0.3970
C6 C -0.2391(4) 0.2878(3) 0.40924(5)
H3 H -0.2442 0.2665 0.4390
C7 C -0.2864(4) 0.4592(3) 0.39066(7)
H4 H -0.3239 0.5552 0.4077
C8 C -0.2788(4) 0.4903(2) 0.34713(7)
H5 H -0.3112 0.6075 0.3344
C9 C -0.2240(4) 0.3500(3) 0.32218(5)
H6 H -0.2189 0.3713 0.2924
C10 C -0.1767(4) 0.1786(2) 0.34075(6)
O4 O 0.2633(4) -0.6054(3) 0.29085(7)
C11 C 0.3043(5) -0.7499(4) 0.31348(11)
O5 O 0.3926(4) -1.0217(3) 0.27549(8)
C12 C 0.3631(5) -0.9357(4) 0.30703(12)
O6 O 0.4074(5) -1.1170(3) 0.37618(9)
C13 C 0.3687(6) -0.9784(5) 0.35310(12)
C14 C 0.3061(5) -0.7888(4) 0.35833(11)
N2 N 0.2601(5) -0.6777(4) 0.38804(10)
H7 H 0.231(8) -0.566(2) 0.3766(14)
C15 C 0.2615(5) -0.5778(3) 0.45583(7)
H8 H 0.2659 -0.4673 0.4422
C16 C 0.2583(5) -0.6038(3) 0.49945(7)
H9 H 0.2606 -0.5111 0.5156
C17 C 0.2519(5) -0.7654(4) 0.51941(5)
H10 H 0.2497 -0.7831 0.5492
C18 C 0.2486(5) -0.9010(3) 0.49576(7)
H11 H 0.2442 -1.0115 0.5094
C19 C 0.2518(5) -0.8751(3) 0.45214(7)
H12 H 0.2495 -0.9678 0.4360
C20 C 0.2582(4) -0.7134(3) 0.43217(5)
O7 O 0.2097(4) 0.1568(3) 0.13378(8)
C21 C 0.2453(5) 0.0104(4) 0.11977(11)
O8 O 0.3137(4) -0.2467(3) 0.17415(8)
C22 C 0.2900(6) -0.1717(4) 0.13780(11)
O9 O 0.3159(4) -0.3756(3) 0.08231(8)
C23 C 0.2935(6) -0.2286(4) 0.09541(11)
C24 C 0.2564(5) -0.0462(4) 0.07807(11)
N3 N 0.2351(5) 0.0497(4) 0.04128(9)
H13 H 0.211(8) 0.1654(14) 0.0435(15)
C25 C 0.2156(4) 0.1277(2) -0.03271(7)
H14 H 0.1776 0.2475 -0.0269
C26 C 0.2311(4) 0.0843(3) -0.07399(6)
H15 H 0.2037 0.1745 -0.0964
C27 C 0.2866(4) -0.0911(3) -0.08244(5)
H16 H 0.2972 -0.1207 -0.1106
C28 C 0.3266(4) -0.2231(2) -0.04960(7)
H17 H 0.3646 -0.3429 -0.0554
C29 C 0.3111(4) -0.1797(2) -0.00832(6)
H18 H 0.3385 -0.2699 0.0141
C30 C 0.2556(4) -0.0043(3) 0.00013(5)
O10 O 0.2137(4) -0.7712(3) 0.21580(8)
H19 H 0.222(8) -0.801(6) 0.1893(5)
H20 H 0.273(8) -0.867(4) 0.2329(13)
O11 O -0.0480(4) -0.4051(3) 0.19043(9)
H21 H -0.074(9) -0.460(7) 0.1692(12)
H22 H -0.102(8) -0.291(2) 0.1813(16)
O12 O 0.5485(4) -0.3560(3) 0.24834(8)
H23 H 0.678(3) -0.364(6) 0.2362(14)
H24 H 0.496(9) -0.246(3) 0.2561(19)
O13 O 0.4172(4) -0.5995(3) 0.14915(8)
H25 H 0.388(8) -0.702(4) 0.1473(18)
H26 H 0.370(8) -0.524(5) 0.1268(10)
Sm1_2 Sm -0.69246(3) 0.50011(2) 0.220786(5)
O3_2 O 0.6398(4) -0.7115(3) 0.23216(8)
O14 O 0.1590(4) -0.3133(3) 0.35069(8)
O15 O 0.0910(6) 0.4321(4) 0.04197(12)
O16 O -0.1601(5) -0.5667(4) 0.12982(10)
loop_
_geom_bond_atom_site_label_1
_geom_bond_atom_site_label_2
_geom_bond_site_symmetry_1
_geom_bond_site_symmetry_2
Sm1 O1 1_555 1_555
O1 C1 1_555 1_555
C1 C2 1_555 1_555
O2 C2 1_555 1_555
C2 C3 1_555 1_555
O3 C3 1_555 1_555
C3 C4 1_555 1_555
C4 C1 1_555 1_555
N1 C4 1_555 1_555
H1 N1 1_555 1_555
C5 H2 1_555 1_555
C6 C5 1_555 1_555
H3 C6 1_555 1_555
C7 C6 1_555 1_555
H4 C7 1_555 1_555
C8 C7 1_555 1_555
H5 C8 1_555 1_555
C9 C8 1_555 1_555
H6 C9 1_555 1_555
C10 N1 1_555 1_555
O4 Sm1 1_555 1_555
C11 O4 1_555 1_555
O5 C12 1_555 1_555
C12 C11 1_555 1_555
O6 C13 1_555 1_555
C13 C12 1_555 1_555
C14 C11 1_555 1_555
N2 C14 1_555 1_555
H7 N2 1_555 1_555
C15 H8 1_555 1_555
C16 C15 1_555 1_555
H9 C16 1_555 1_555
C17 C16 1_555 1_555
H10 C17 1_555 1_555
C18 C17 1_555 1_555
H11 C18 1_555 1_555
C19 C18 1_555 1_555
H12 C19 1_555 1_555
C20 N2 1_555 1_555
O7 C21 1_555 1_555
C21 C22 1_555 1_555
O8 Sm1 1_555 1_555
C22 O8 1_555 1_555
O9 C23 1_555 1_555
C23 C22 1_555 1_555
C24 C21 1_555 1_555
N3 C24 1_555 1_555
H13 N3 1_555 1_555
C25 H14 1_555 1_555
C26 C25 1_555 1_555
H15 C26 1_555 1_555
C27 C26 1_555 1_555
H16 C27 1_555 1_555
C28 C27 1_555 1_555
H17 C28 1_555 1_555
C29 C28 1_555 1_555
H18 C29 1_555 1_555
C30 N3 1_555 1_555
O10 Sm1 1_555 1_555
H19 O10 1_555 1_555
H20 O10 1_555 1_555
O11 Sm1 1_555 1_555
H21 O11 1_555 1_555
H22 O11 1_555 1_555
O12 Sm1 1_555 1_555
H23 O12 1_555 1_555
H24 O12 1_555 1_555
O13 Sm1 1_555 1_555
H25 O13 1_555 1_555
H26 O13 1_555 1_555
Sm1_2 O3 1_555 1_555
O3_2 Sm1 1_555 1_555
C5 C10 1_555 1_555
C9 C10 1_555 1_555
C13 C14 1_555 1_555
C15 C20 1_555 1_555
C19 C20 1_555 1_555
C23 C24 1_555 1_555
C25 C30 1_555 1_555
C29 C30 1_555 1_555

#END
