
#######################################################################
#
#                 Cambridge Crystallographic Data Centre
#                                CCDC 
#
#######################################################################
#
# If this CIF has been generated from an entry in the Cambridge 
# Structural Database, then it will include bibliographic, chemical, 
# crystal, experimental, refinement or atomic coordinate data resulting 
# from the CCDC's data processing and validation procedures.
#
#######################################################################

data_VIKRUE
_symmetry_cell_setting           triclinic
_symmetry_space_group_name_H-M   'P -1'
_symmetry_Int_Tables_number      2
_space_group_name_Hall           '-P 1'
loop_
_symmetry_equiv_pos_site_id
_symmetry_equiv_pos_as_xyz
1 x,y,z
2 -x,-y,-z
_cell_length_a                   9.3674(4)
_cell_length_b                   12.5367(6)
_cell_length_c                   13.3150(7)
_cell_angle_alpha                89.912(2)
_cell_angle_beta                 72.786(2)
_cell_angle_gamma                84.5990(10)
_cell_volume                     1486.42
loop_
_atom_site_label
_atom_site_type_symbol
_atom_site_fract_x
_atom_site_fract_y
_atom_site_fract_z
Cu1 Cu 0.42937(3) 0.24036(2) 0.32103(2)
N1 N 0.2425(2) 0.25010(17) 0.27419(17)
N2 N 0.0736(2) 0.30988(17) 0.19341(17)
N3 N -0.4284(2) 0.36926(18) 0.28324(19)
N4 N 0.4437(2) 0.20740(18) 0.46810(17)
N5 N 0.3778(2) 0.18863(17) 0.64224(17)
C1 C 0.1811(3) 0.1626(2) 0.24431(19)
C2 C 0.2104(3) 0.0532(2) 0.2570(2)
H1 H 0.2781 0.0279 0.2925
C3 C 0.1360(3) -0.0165(2) 0.2153(2)
H2 H 0.1537 -0.0898 0.2231
C4 C 0.0341(3) 0.0211(2) 0.1613(2)
H3 H -0.0128 -0.0281 0.1330
C5 C 0.0017(3) 0.1294(2) 0.1492(2)
H4 H -0.0664 0.1545 0.1140
C6 C 0.0762(3) 0.1991(2) 0.19250(19)
C7 C 0.1748(3) 0.3359(2) 0.2426(2)
C8 C 0.2027(3) 0.4474(2) 0.2649(2)
H5 H 0.1613 0.4969 0.2223
H6 H 0.3099 0.4527 0.2463
C9 C 0.1310(4) 0.4775(3) 0.3803(3)
H7 H 0.1551 0.5477 0.3942
H8 H 0.1685 0.4265 0.4225
H9 H 0.0240 0.4775 0.3974
C10 C -0.0160(3) 0.3819(2) 0.1425(2)
H10 H -0.0228 0.3466 0.0795
H11 H 0.0344 0.4461 0.1214
C11 C -0.1724(3) 0.4132(2) 0.2146(2)
C12 C -0.2054(3) 0.5024(2) 0.2813(3)
H12 H -0.1317 0.5475 0.2806
C13 C -0.3498(3) 0.5242(2) 0.3495(3)
H13 H -0.3742 0.5842 0.3945
C14 C -0.4565(3) 0.4553(2) 0.3491(3)
H14 H -0.5519 0.4690 0.3966
C15 C -0.2892(3) 0.3507(2) 0.2169(2)
H15 H -0.2691 0.2927 0.1696
C16 C 0.5692(3) 0.2153(2) 0.5031(2)
C17 C 0.7172(3) 0.2302(2) 0.4468(2)
H16 H 0.7471 0.2342 0.3739
C18 C 0.8175(3) 0.2389(2) 0.5038(2)
H17 H 0.9167 0.2490 0.4684
C19 C 0.7736(3) 0.2327(2) 0.6133(2)
H18 H 0.8437 0.2408 0.6490
C20 C 0.6278(3) 0.2147(2) 0.6704(2)
H19 H 0.5986 0.2093 0.7432
C21 C 0.5286(3) 0.20541(19) 0.6119(2)
C22 C 0.3333(3) 0.1911(2) 0.5532(2)
C23 C 0.1791(3) 0.1729(2) 0.5521(2)
H20 H 0.1614 0.2033 0.4893
H21 H 0.1065 0.2095 0.6127
C24 C 0.1566(3) 0.0542(3) 0.5543(2)
H22 H 0.0574 0.0454 0.5509
H23 H 0.1687 0.0248 0.6182
H24 H 0.2294 0.0176 0.4951
C25 C 0.2879(3) 0.1741(2) 0.7503(2)
H25 H 0.1835 0.1739 0.7525
H26 H 0.2950 0.2345 0.7934
C26 C 0.3357(3) 0.0720(2) 0.7968(2)
C27 C 0.3125(3) 0.0668(2) 0.9045(2)
H27 H 0.2703 0.1267 0.9480
C28 C 0.3528(4) -0.0283(3) 0.9463(2)
H28 H 0.3378 -0.0334 1.0183
C29 C 0.4154(3) -0.1153(2) 0.8800(2)
H29 H 0.4434 -0.1786 0.9088
N6 N 0.4381(2) -0.11307(18) 0.77614(17)
C30 C 0.3979(3) -0.0203(2) 0.73583(19)
H30 H 0.4125 -0.0179 0.6637
Cu1_2 Cu -0.57063(3) 0.24036(2) 0.32103(2)
Cu1A Cu 0.57063(3) -0.24036(2) 0.67897(2)
N3_2 N 0.5716(2) 0.36926(18) 0.28324(19)
N6A N 0.5619(2) 0.11307(18) 0.22386(17)
N7 N 0.6571(12) 0.7019(7) -0.0088(9)
C31 C 0.6053(9) 0.6234(8) 0.0375(6)
C32 C 0.5185(11) 0.5398(8) 0.0993(5)
H31 H 0.4936 0.5576 0.1729
H32 H 0.5777 0.4718 0.0846
H33 H 0.4279 0.5360 0.0802
B1 B 0.1334(4) 0.7004(3) 0.1088(3)
F1 F 0.2692(3) 0.7337(2) 0.1087(2)
F2 F 0.0565(4) 0.77528(18) 0.06303(19)
F3 F 0.0482(2) 0.69078(16) 0.21312(14)
F4 F 0.1548(2) 0.60215(14) 0.05601(14)
loop_
_geom_bond_atom_site_label_1
_geom_bond_atom_site_label_2
_geom_bond_site_symmetry_1
_geom_bond_site_symmetry_2
Cu1 N1 1_555 1_555
N1 C1 1_555 1_555
N2 C6 1_555 1_555
N3 C14 1_555 1_555
N4 Cu1 1_555 1_555
N5 C21 1_555 1_555
C1 C2 1_555 1_555
C2 H1 1_555 1_555
C3 C2 1_555 1_555
H2 C3 1_555 1_555
C4 C3 1_555 1_555
H3 C4 1_555 1_555
C5 C4 1_555 1_555
H4 C5 1_555 1_555
C6 C1 1_555 1_555
C7 N1 1_555 1_555
C8 C7 1_555 1_555
H5 C8 1_555 1_555
H6 C8 1_555 1_555
C9 C8 1_555 1_555
H7 C9 1_555 1_555
H8 C9 1_555 1_555
H9 C9 1_555 1_555
C10 N2 1_555 1_555
H10 C10 1_555 1_555
H11 C10 1_555 1_555
C11 C10 1_555 1_555
C12 C11 1_555 1_555
H12 C12 1_555 1_555
C13 C12 1_555 1_555
H13 C13 1_555 1_555
C14 C13 1_555 1_555
H14 C14 1_555 1_555
C15 N3 1_555 1_555
H15 C15 1_555 1_555
C16 N4 1_555 1_555
C17 C16 1_555 1_555
H16 C17 1_555 1_555
C18 C17 1_555 1_555
H17 C18 1_555 1_555
C19 C18 1_555 1_555
H18 C19 1_555 1_555
C20 C19 1_555 1_555
H19 C20 1_555 1_555
C21 C16 1_555 1_555
C22 N4 1_555 1_555
C23 C22 1_555 1_555
H20 C23 1_555 1_555
H21 C23 1_555 1_555
C24 C23 1_555 1_555
H22 C24 1_555 1_555
H23 C24 1_555 1_555
H24 C24 1_555 1_555
C25 N5 1_555 1_555
H25 C25 1_555 1_555
H26 C25 1_555 1_555
C26 C25 1_555 1_555
C27 C26 1_555 1_555
H27 C27 1_555 1_555
C28 C27 1_555 1_555
H28 C28 1_555 1_555
C29 C28 1_555 1_555
H29 C29 1_555 1_555
N6 C29 1_555 1_555
C30 C26 1_555 1_555
H30 C30 1_555 1_555
N7 C31 1_555 1_555
C31 C32 1_555 1_555
C32 H31 1_555 1_555
H32 C32 1_555 1_555
H33 C32 1_555 1_555
B1 F1 1_555 1_555
F2 B1 1_555 1_555
F3 B1 1_555 1_555
F4 B1 1_555 1_555
Cu1_2 N3 1_555 1_555
Cu1A N6 1_555 1_555
N3_2 Cu1 1_555 1_555
N6A Cu1 1_555 1_555
N2 C7 1_555 1_555
N5 C22 1_555 1_555
C5 C6 1_555 1_555
C11 C15 1_555 1_555
C20 C21 1_555 1_555
N6 C30 1_555 1_555

#END
