
#######################################################################
#
#                 Cambridge Crystallographic Data Centre
#                                CCDC 
#
#######################################################################
#
# If this CIF has been generated from an entry in the Cambridge 
# Structural Database, then it will include bibliographic, chemical, 
# crystal, experimental, refinement or atomic coordinate data resulting 
# from the CCDC's data processing and validation procedures.
#
#######################################################################

data_VIKRAK
_symmetry_cell_setting           monoclinic
_symmetry_space_group_name_H-M   'P 21/c'
_symmetry_Int_Tables_number      14
_space_group_name_Hall           '-P 2ybc'
loop_
_symmetry_equiv_pos_site_id
_symmetry_equiv_pos_as_xyz
1 x,y,z
2 -x,1/2+y,1/2-z
3 -x,-y,-z
4 x,1/2-y,1/2+z
_cell_length_a                   8.0272(13)
_cell_length_b                   17.482(3)
_cell_length_c                   11.4236(13)
_cell_angle_alpha                90
_cell_angle_beta                 118.899(8)
_cell_angle_gamma                90
_cell_volume                     1403.46
loop_
_atom_site_label
_atom_site_type_symbol
_atom_site_fract_x
_atom_site_fract_y
_atom_site_fract_z
Cd1 Cd 0.74109(3) 0.844581(12) 0.15250(2)
O1 O 0.4121(3) 0.87064(14) 0.0350(3)
O2 O 0.3887(4) 0.74947(16) 0.0502(3)
O3 O 0.1487(4) 0.81372(19) -0.0924(3)
O4 O 1.0743(3) 0.83118(15) 0.2819(2)
H1 H 1.0874 0.7879 0.3192
N1 N 0.7561(4) 0.95130(14) 0.2769(2)
N2 N 0.7475(3) 0.79871(14) 0.3438(2)
N3 N 0.7483(4) 0.83071(14) 0.5339(3)
N4 N 0.7474(4) 0.75356(14) 0.5249(2)
N5 N 0.7548(4) 0.60146(14) 0.4648(2)
N6 N 0.7508(4) 0.54615(15) 0.2860(3)
N7 N 0.7455(4) 0.62351(14) 0.2743(2)
H2 H 0.7408 0.6480 0.2075
N8 N 0.3149(4) 0.81078(19) -0.0033(3)
C1 C 0.7604(5) 1.02383(19) 0.2438(3)
H3 H 0.7679 1.0342 0.1666
C2 C 0.7544(5) 1.0841(2) 0.3183(3)
H4 H 0.7570 1.1342 0.2919
C3 C 0.7444(6) 1.0693(2) 0.4318(3)
H5 H 0.7388 1.1095 0.4832
C4 C 0.7427(5) 0.99541(19) 0.4701(3)
H6 H 0.7378 0.9847 0.5482
C5 C 0.7482(4) 0.93692(17) 0.3907(3)
C6 C 0.7484(4) 0.85576(16) 0.4242(3)
C7 C 0.7481(4) 0.73607(16) 0.4120(3)
C8 C 0.7483(4) 0.65588(16) 0.3800(3)
C9 C 0.7553(5) 0.53624(19) 0.4020(3)
H7 H 0.7586 0.4881 0.4376
C10 C 1.2111(6) 0.8400(3) 0.2421(5)
H8 H 1.2094 0.7963 0.1907
H9 H 1.3343 0.8445 0.3196
H10 H 1.1845 0.8853 0.1885
Cd1C Cd 0.74109(3) 0.655419(12) 0.65250(2)
N4C N 0.7474(4) 0.74644(14) 0.0249(2)
N5C N 0.7548(4) 0.89854(14) -0.0352(2)
loop_
_geom_bond_atom_site_label_1
_geom_bond_atom_site_label_2
_geom_bond_site_symmetry_1
_geom_bond_site_symmetry_2
Cd1 O1 1_555 1_555
O1 N8 1_555 1_555
O2 N8 1_555 1_555
O3 N8 1_555 1_555
O4 Cd1 1_555 1_555
H1 O4 1_555 1_555
N1 Cd1 1_555 1_555
N2 Cd1 1_555 1_555
N3 N4 1_555 1_555
N4 C7 1_555 1_555
N5 C8 1_555 1_555
N6 N7 1_555 1_555
N7 H2 1_555 1_555
C1 N1 1_555 1_555
H3 C1 1_555 1_555
C2 C1 1_555 1_555
H4 C2 1_555 1_555
C3 C2 1_555 1_555
H5 C3 1_555 1_555
C4 C3 1_555 1_555
H6 C4 1_555 1_555
C5 N1 1_555 1_555
C6 N2 1_555 1_555
C7 N2 1_555 1_555
C8 N7 1_555 1_555
C9 N5 1_555 1_555
H7 C9 1_555 1_555
C10 O4 1_555 1_555
H8 C10 1_555 1_555
H9 C10 1_555 1_555
H10 C10 1_555 1_555
Cd1C N4 1_555 1_555
N4C Cd1 1_555 1_555
N5C Cd1 1_555 1_555
N3 C6 1_555 1_555
N5 Cd1C 1_555 1_555
N6 C9 1_555 1_555
C4 C5 1_555 1_555
C5 C6 1_555 1_555
C7 C8 1_555 1_555

#END
