
#######################################################################
#
#                 Cambridge Crystallographic Data Centre
#                                CCDC 
#
#######################################################################
#
# If this CIF has been generated from an entry in the Cambridge 
# Structural Database, then it will include bibliographic, chemical, 
# crystal, experimental, refinement or atomic coordinate data resulting 
# from the CCDC's data processing and validation procedures.
#
#######################################################################

data_VILJUW
_symmetry_cell_setting           orthorhombic
_symmetry_space_group_name_H-M   'P b c n'
_symmetry_Int_Tables_number      60
_space_group_name_Hall           '-P 2n 2ab'
loop_
_symmetry_equiv_pos_site_id
_symmetry_equiv_pos_as_xyz
1 x,y,z
2 1/2-x,1/2-y,1/2+z
3 -x,y,1/2-z
4 1/2+x,1/2-y,-z
5 -x,-y,-z
6 1/2+x,1/2+y,1/2-z
7 x,-y,1/2+z
8 1/2-x,1/2+y,z
_cell_length_a                   20.816(7)
_cell_length_b                   9.630(3)
_cell_length_c                   6.273(2)
_cell_angle_alpha                90
_cell_angle_beta                 90
_cell_angle_gamma                90
_cell_volume                     1257.47
loop_
_atom_site_label
_atom_site_type_symbol
_atom_site_fract_x
_atom_site_fract_y
_atom_site_fract_z
Pb1 Pb 0.0000 0.18228(2) 0.2500
O1 O 0.0558(2) 0.0566(4) 0.6033(6)
H1 H 0.089(2) 0.027(6) 0.541(9)
H2 H 0.057(4) 0.125(5) 0.686(9)
O2 O -0.0612(2) 0.2748(4) 0.5914(7)
H3 H -0.049(3) 0.358(3) 0.609(11)
H4 H -0.1006(12) 0.276(7) 0.563(11)
O3 O 0.05716(19) 0.4281(4) 0.3742(7)
O4 O 0.1292(2) 0.2640(4) 0.3616(7)
N1 N 0.1159(2) 0.3900(5) 0.3826(7)
N2 N 0.1581(2) 0.4894(5) 0.4122(8)
N3 N 0.2670(2) 0.5427(5) 0.4320(8)
N4 N 0.3233(2) 0.4737(4) 0.4398(8)
N5 N 0.3133(2) 0.3396(5) 0.4339(8)
N6 N 0.2498(2) 0.3217(4) 0.4208(8)
H5 H 0.2300 0.2411 0.4138
C1 C 0.2209(2) 0.4479(5) 0.4201(8)
Pb1F Pb 0.0000 -0.18228(2) 0.7500
Pb1F_2 Pb 0.0000 -0.18228(2) -0.2500
O1F O 0.0558(2) -0.0566(4) 0.1033(6)
O1D O -0.0558(2) -0.0566(4) 0.3967(6)
O1B O -0.0558(2) 0.0566(4) -0.1033(6)
H1F H 0.089(2) -0.027(6) 0.041(9)
H1D H -0.089(2) -0.027(6) 0.459(9)
H1B H -0.089(2) 0.027(6) -0.041(9)
H2F H 0.057(4) -0.125(5) 0.186(9)
H2D H -0.057(4) -0.125(5) 0.314(9)
H2B H -0.057(4) 0.125(5) -0.186(9)
O2B O 0.0612(2) 0.2748(4) -0.0914(7)
H3B H 0.049(3) 0.358(3) -0.109(11)
H4B H 0.1006(12) 0.276(7) -0.063(11)
O3B O -0.05716(19) 0.4281(4) 0.1258(7)
O4B O -0.1292(2) 0.2640(4) 0.1384(7)
N1B N -0.1159(2) 0.3900(5) 0.1174(7)
N2B N -0.1581(2) 0.4894(5) 0.0878(8)
N3B N -0.2670(2) 0.5427(5) 0.0680(8)
N4B N -0.3233(2) 0.4737(4) 0.0602(8)
N5B N -0.3133(2) 0.3396(5) 0.0661(8)
N6B N -0.2498(2) 0.3217(4) 0.0792(8)
H5B H -0.2300 0.2411 0.0862
C1B C -0.2209(2) 0.4479(5) 0.0799(8)
loop_
_geom_bond_atom_site_label_1
_geom_bond_atom_site_label_2
_geom_bond_site_symmetry_1
_geom_bond_site_symmetry_2
Pb1 O1 1_555 1_555
O1 H1 1_555 1_555
H2 O1 1_555 1_555
O2 Pb1 1_555 1_555
H3 O2 1_555 1_555
H4 O2 1_555 1_555
O3 Pb1 1_555 1_555
O4 Pb1 1_555 1_555
N1 O3 1_555 1_555
N2 N1 1_555 1_555
N3 N4 1_555 1_555
N4 N5 1_555 1_555
N5 N6 1_555 1_555
N6 H5 1_555 1_555
C1 N2 1_555 1_555
Pb1F O1 1_555 1_555
Pb1F_2 O1F 1_555 1_555
O1F Pb1 1_555 1_555
O1D Pb1 1_555 1_555
O1B Pb1 1_555 1_555
H1F O1F 1_555 1_555
H1D O1D 1_555 1_555
H1B O1B 1_555 1_555
H2F O1F 1_555 1_555
H2D O1D 1_555 1_555
H2B O1B 1_555 1_555
O2B Pb1 1_555 1_555
H3B O2B 1_555 1_555
H4B O2B 1_555 1_555
O3B Pb1 1_555 1_555
O4B Pb1 1_555 1_555
N1B O3B 1_555 1_555
N2B N1B 1_555 1_555
N3B N4B 1_555 1_555
N4B N5B 1_555 1_555
N5B N6B 1_555 1_555
N6B H5B 1_555 1_555
C1B N2B 1_555 1_555
O4 N1 1_555 1_555
N3 C1 1_555 1_555
N6 C1 1_555 1_555
Pb1F O1D 1_555 1_555
Pb1F_2 O1B 1_555 1_555
O4B N1B 1_555 1_555
N3B C1B 1_555 1_555
N6B C1B 1_555 1_555

#END
