
#######################################################################
#
#                 Cambridge Crystallographic Data Centre
#                                CCDC 
#
#######################################################################
#
# If this CIF has been generated from an entry in the Cambridge 
# Structural Database, then it will include bibliographic, chemical, 
# crystal, experimental, refinement or atomic coordinate data resulting 
# from the CCDC's data processing and validation procedures.
#
#######################################################################

data_VIMPOY
_symmetry_cell_setting           orthorhombic
_symmetry_space_group_name_H-M   'P 21 21 21'
_symmetry_Int_Tables_number      19
_space_group_name_Hall           'P 2ac 2ab'
loop_
_symmetry_equiv_pos_site_id
_symmetry_equiv_pos_as_xyz
1 x,y,z
2 1/2-x,-y,1/2+z
3 -x,1/2+y,1/2-z
4 1/2+x,1/2-y,-z
_cell_length_a                   8.8079(4)
_cell_length_b                   12.2447(4)
_cell_length_c                   12.5250(6)
_cell_angle_alpha                90
_cell_angle_beta                 90
_cell_angle_gamma                90
_cell_volume                     1350.82
loop_
_atom_site_label
_atom_site_type_symbol
_atom_site_fract_x
_atom_site_fract_y
_atom_site_fract_z
Ag1 Ag -0.009488(16) 0.592619(12) 0.190466(12)
C1 C -0.1073(2) 0.86187(18) 0.47760(17)
H1 H -0.0466 0.8076 0.5110
C2 C -0.0827(2) 0.97090(19) 0.50095(18)
H2 H -0.0049 0.9904 0.5499
C3 C -0.1703(3) 1.05241(19) 0.4539(2)
H3 H -0.1532 1.1271 0.4706
C4 C -0.2830(3) 1.02246(19) 0.38217(19)
H4 H -0.3438 1.0774 0.3498
C5 C -0.3085(2) 0.91328(19) 0.35687(17)
H5 H -0.3853 0.8947 0.3068
C6 C -0.2218(2) 0.83014(17) 0.40464(15)
C7 C -0.1528(2) 0.63603(17) 0.42921(17)
H6 H -0.2030 0.5644 0.4194
H7 H -0.1453 0.6496 0.5069
C8 C 0.0059(2) 0.62932(15) 0.38379(14)
H8 H 0.0577 0.6959 0.3699
C9 C 0.0786(2) 0.53546(18) 0.36175(17)
H9 H 0.0302 0.4674 0.3747
H10 H 0.1786 0.5372 0.3332
C10 C -0.3226(2) 0.69181(18) 0.28094(17)
H11 H -0.4205 0.7312 0.2760
H12 H -0.3450 0.6126 0.2811
C11 C -0.2287(2) 0.71838(17) 0.18362(17)
H13 H -0.1655 0.7812 0.1867
C12 C -0.2279(3) 0.6599(2) 0.09281(18)
H14 H -0.2896 0.5966 0.0867
H15 H -0.1655 0.6819 0.0348
N1 N -0.24925(18) 0.72050(14) 0.38197(13)
Cl1 Cl -0.25597(6) 0.33815(4) 0.26976(4)
O1 O -0.13803(18) 0.30283(13) 0.34162(14)
O2 O -0.3767(2) 0.3847(2) 0.32908(17)
O3 O -0.31033(17) 0.24836(13) 0.20724(15)
O4 O -0.1950(3) 0.41810(19) 0.19833(18)
Ag1B Ag 0.009488(16) 1.092619(12) 0.309534(12)
C3B C 0.1703(3) 0.55241(19) 0.0461(2)
loop_
_geom_bond_atom_site_label_1
_geom_bond_atom_site_label_2
_geom_bond_site_symmetry_1
_geom_bond_site_symmetry_2
Ag1 C8 1_555 1_555
C1 H1 1_555 1_555
C2 C1 1_555 1_555
H2 C2 1_555 1_555
C3 C2 1_555 1_555
H3 C3 1_555 1_555
C4 C3 1_555 1_555
H4 C4 1_555 1_555
C5 C4 1_555 1_555
H5 C5 1_555 1_555
C6 C1 1_555 1_555
C7 H6 1_555 1_555
H7 C7 1_555 1_555
C8 C7 1_555 1_555
H8 C8 1_555 1_555
C9 Ag1 1_555 1_555
H9 C9 1_555 1_555
H10 C9 1_555 1_555
C10 H11 1_555 1_555
H12 C10 1_555 1_555
C11 Ag1 1_555 1_555
H13 C11 1_555 1_555
C12 Ag1 1_555 1_555
H14 C12 1_555 1_555
H15 C12 1_555 1_555
N1 C6 1_555 1_555
Cl1 O1 1_555 1_555
O2 Cl1 1_555 1_555
O3 Cl1 1_555 1_555
O4 Ag1 1_555 1_555
Ag1B C3 1_555 1_555
C3B Ag1 1_555 1_555
C5 C6 1_555 1_555
C7 N1 1_555 1_555
C8 C9 1_555 1_555
C10 C11 1_555 1_555
C10 N1 1_555 1_555
C11 C12 1_555 1_555
Cl1 O4 1_555 1_555

#END
