
#######################################################################
#
#                 Cambridge Crystallographic Data Centre
#                                CCDC 
#
#######################################################################
#
# If this CIF has been generated from an entry in the Cambridge 
# Structural Database, then it will include bibliographic, chemical, 
# crystal, experimental, refinement or atomic coordinate data resulting 
# from the CCDC's data processing and validation procedures.
#
#######################################################################

data_VIMZUO
_symmetry_cell_setting           monoclinic
_symmetry_space_group_name_H-M   'P 21/n'
_symmetry_Int_Tables_number      14
_space_group_name_Hall           '-P 2yn'
loop_
_symmetry_equiv_pos_site_id
_symmetry_equiv_pos_as_xyz
1 x,y,z
2 1/2-x,1/2+y,1/2-z
3 -x,-y,-z
4 1/2+x,1/2-y,1/2+z
_cell_length_a                   10.135(2)
_cell_length_b                   17.939(4)
_cell_length_c                   17.231(3)
_cell_angle_alpha                90
_cell_angle_beta                 96.55(3)
_cell_angle_gamma                90
_cell_volume                     3112.35
loop_
_atom_site_label
_atom_site_type_symbol
_atom_site_fract_x
_atom_site_fract_y
_atom_site_fract_z
W1 W 0.27197(2) 0.164171(13) 0.508676(15)
Fe1 Fe -0.22313(9) 0.12044(5) 0.54173(5)
N1 N -0.0370(5) 0.1189(3) 0.5287(3)
C1 C 0.0709(7) 0.1317(4) 0.5220(4)
N2 N 0.1509(6) 0.3068(3) 0.5996(4)
C2 C 0.1931(7) 0.2569(4) 0.5697(4)
N3 N 0.2936(7) 0.1086(4) 0.6923(4)
C3 C 0.2872(7) 0.1294(4) 0.6286(4)
N4 N 0.4632(6) 0.3106(3) 0.4891(4)
C4 C 0.3942(7) 0.2613(4) 0.4918(4)
N5 N 0.3830(6) 0.1203(3) 0.3411(4)
C5 C 0.3457(7) 0.1371(4) 0.3989(4)
N6 N 0.0772(7) 0.2499(3) 0.3703(4)
C6 C 0.1456(7) 0.2207(4) 0.4177(4)
N7 N -0.2420(5) 0.0170(3) 0.5162(3)
C7 C -0.2572(6) -0.0459(4) 0.5053(4)
N8 N -0.4104(5) 0.1237(3) 0.5493(3)
C8 C -0.5236(7) 0.1334(3) 0.5402(4)
N9 N -0.1764(5) 0.1103(3) 0.6559(3)
C9 C -0.1599(7) 0.0472(4) 0.6983(4)
H1 H -0.1763 0.0006 0.6728
N10 N -0.2019(5) 0.2208(3) 0.5676(3)
C10 C -0.1199(7) 0.0478(4) 0.7777(4)
H2 H -0.1082 0.0022 0.8057
N11 N -0.2573(5) 0.1649(3) 0.4355(3)
C11 C -0.0972(8) 0.1145(4) 0.8161(4)
H3 H -0.0708 0.1156 0.8708
N12 N -0.1373(6) 0.3106(3) 0.6621(3)
C12 C -0.1137(7) 0.1809(4) 0.7734(4)
H4 H -0.0991 0.2279 0.7983
N13 N -0.1834(6) 0.3443(3) 0.5257(3)
C13 C -0.1514(6) 0.1762(3) 0.6945(4)
N14 N -0.0854(6) 0.4517(3) 0.6996(4)
C14 C -0.1654(6) 0.2409(4) 0.6418(4)
C15 C -0.2096(6) 0.2721(4) 0.5111(4)
C16 C -0.2437(6) 0.2405(4) 0.4335(4)
C17 C -0.2584(7) 0.2807(4) 0.3650(4)
H5 H -0.2474 0.3333 0.3656
C18 C -0.2896(7) 0.2432(4) 0.2950(4)
H6 H -0.3009 0.2696 0.2469
C19 C -0.3038(7) 0.1665(4) 0.2964(4)
H7 H -0.3252 0.1396 0.2491
C20 C -0.2865(7) 0.1289(4) 0.3678(4)
H8 H -0.2957 0.0762 0.3682
C21 C -0.1499(7) 0.3594(4) 0.6021(4)
C22 C -0.1195(7) 0.4376(4) 0.6230(4)
C23 C -0.1239(7) 0.4943(4) 0.5690(4)
H9 H -0.1512 0.4849 0.5153
C24 C -0.0873(8) 0.5667(4) 0.5950(5)
H10 H -0.0896 0.6068 0.5589
C25 C -0.0482(8) 0.5788(4) 0.6731(5)
H11 H -0.0202 0.6270 0.6911
C26 C -0.0498(8) 0.5202(4) 0.7256(4)
H12 H -0.0256 0.5285 0.7798
W1_2 W -0.72803(2) 0.164171(13) 0.508676(15)
W1B W -0.27197(2) -0.164171(13) 0.491324(15)
C7B C 0.2572(6) 0.0459(4) 0.4947(4)
C8_2 C 0.4764(7) 0.1334(3) 0.5402(4)
O1 O -0.4166(7) 0.3769(4) 0.6359(5)
C27 C -0.4582(11) 0.3245(6) 0.6930(6)
H13 H -0.4179 0.3386 0.7454
H14 H -0.4294 0.2741 0.6808
H15 H -0.5552 0.3255 0.6913
O2 O 0.1787(7) 0.4642(4) 0.6221(5)
C28 C 0.2987(10) 0.4884(6) 0.6570(9)
H16 H 0.3152 0.5391 0.6393
H17 H 0.3689 0.4551 0.6430
H18 H 0.2981 0.4883 0.7139
loop_
_geom_bond_atom_site_label_1
_geom_bond_atom_site_label_2
_geom_bond_site_symmetry_1
_geom_bond_site_symmetry_2
W1 C1 1_555 1_555
Fe1 N1 1_555 1_555
N1 C1 1_555 1_555
N2 C2 1_555 1_555
C2 W1 1_555 1_555
N3 C3 1_555 1_555
C3 W1 1_555 1_555
N4 C4 1_555 1_555
C4 W1 1_555 1_555
N5 C5 1_555 1_555
C5 W1 1_555 1_555
N6 C6 1_555 1_555
C6 W1 1_555 1_555
N7 Fe1 1_555 1_555
C7 N7 1_555 1_555
N8 Fe1 1_555 1_555
C8 N8 1_555 1_555
N9 Fe1 1_555 1_555
C9 N9 1_555 1_555
H1 C9 1_555 1_555
N10 Fe1 1_555 1_555
C10 C9 1_555 1_555
H2 C10 1_555 1_555
N11 Fe1 1_555 1_555
C11 C10 1_555 1_555
H3 C11 1_555 1_555
N12 C14 1_555 1_555
C12 C11 1_555 1_555
H4 C12 1_555 1_555
N13 C15 1_555 1_555
C13 N9 1_555 1_555
N14 C22 1_555 1_555
C14 N10 1_555 1_555
C15 N10 1_555 1_555
C16 N11 1_555 1_555
C17 C16 1_555 1_555
H5 C17 1_555 1_555
C18 C17 1_555 1_555
H6 C18 1_555 1_555
C19 C18 1_555 1_555
H7 C19 1_555 1_555
C20 N11 1_555 1_555
H8 C20 1_555 1_555
C21 N12 1_555 1_555
C22 C21 1_555 1_555
C23 C22 1_555 1_555
H9 C23 1_555 1_555
C24 C23 1_555 1_555
H10 C24 1_555 1_555
C25 C24 1_555 1_555
H11 C25 1_555 1_555
C26 N14 1_555 1_555
H12 C26 1_555 1_555
O1 C27 1_555 1_555
C27 H13 1_555 1_555
H14 C27 1_555 1_555
H15 C27 1_555 1_555
O2 C28 1_555 1_555
C28 H16 1_555 1_555
H17 C28 1_555 1_555
H18 C28 1_555 1_555
W1_2 C8 1_555 1_555
W1B C7 1_555 1_555
C7B W1 1_555 1_555
C8_2 W1 1_555 1_555
C12 C13 1_555 1_555
N13 C21 1_555 1_555
C13 C14 1_555 1_555
C15 C16 1_555 1_555
C19 C20 1_555 1_555
C25 C26 1_555 1_555

#END
