
#######################################################################
#
#                 Cambridge Crystallographic Data Centre
#                                CCDC 
#
#######################################################################
#
# If this CIF has been generated from an entry in the Cambridge 
# Structural Database, then it will include bibliographic, chemical, 
# crystal, experimental, refinement or atomic coordinate data resulting 
# from the CCDC's data processing and validation procedures.
#
#######################################################################

data_VINTES
_symmetry_cell_setting           monoclinic
_symmetry_space_group_name_H-M   'P 21/c'
_symmetry_Int_Tables_number      14
_space_group_name_Hall           '-P 2ybc'
loop_
_symmetry_equiv_pos_site_id
_symmetry_equiv_pos_as_xyz
1 x,y,z
2 -x,1/2+y,1/2-z
3 -x,-y,-z
4 x,1/2-y,1/2+z
_cell_length_a                   11.720(6)
_cell_length_b                   9.400(5)
_cell_length_c                   12.634(6)
_cell_angle_alpha                90
_cell_angle_beta                 104.654(9)
_cell_angle_gamma                90
_cell_volume                     1346.59
loop_
_atom_site_label
_atom_site_type_symbol
_atom_site_fract_x
_atom_site_fract_y
_atom_site_fract_z
Ni1 Ni 0.0000 0.0000 0.0000
S1 S 0.05124(7) -0.04773(7) -0.35553(5)
C1 C 0.19154(16) 0.2374(2) 0.09745(16)
C2 C 0.24196(18) 0.2049(2) 0.20519(17)
H1 H 0.194(2) 0.168(3) 0.2468(19)
C3 C 0.36194(18) 0.2255(2) 0.24876(17)
H2 H 0.396(2) 0.203(2) 0.322(2)
C4 C 0.43308(17) 0.2802(2) 0.18677(16)
C5 C 0.37983(19) 0.3157(3) 0.07965(18)
H3 H 0.426(2) 0.356(3) 0.038(2)
C6 C 0.26088(19) 0.2949(2) 0.03503(18)
H4 H 0.226(2) 0.320(3) -0.037(2)
C7 C 0.56440(19) 0.2999(3) 0.2335(2)
H5 H 0.588(2) 0.248(3) 0.302(2)
H6 H 0.582(2) 0.393(3) 0.254(2)
C8 C 0.63656(16) 0.2513(2) 0.15694(17)
C9 C 0.6307(2) 0.1122(3) 0.1210(3)
H7 H 0.583(3) 0.050(3) 0.145(2)
C10 C 0.6920(2) 0.0662(3) 0.0480(2)
H8 H 0.687(3) -0.026(3) 0.026(2)
C11 C 0.76268(15) 0.1589(2) 0.00911(16)
C12 C 0.7702(2) 0.2972(2) 0.0437(2)
H9 H 0.815(2) 0.358(3) 0.019(2)
C13 C 0.7072(2) 0.3423(2) 0.1172(2)
H10 H 0.712(2) 0.438(3) 0.139(2)
N1 N 0.06922(15) 0.2099(2) 0.04978(17)
H11 H 0.048(2) 0.260(3) -0.008(2)
H12 H 0.031(2) 0.238(3) 0.095(2)
N2 N 0.83037(15) 0.1085(2) -0.06329(15)
H13 H 0.152(2) -0.179(3) 0.103(2)
H14 H 0.208(2) -0.050(3) 0.104(2)
C14 C 0.03702(17) -0.0080(2) -0.23492(16)
N3 N 0.02663(16) 0.0233(2) -0.15022(15)
Ni1_2 Ni 1.0000 0.0000 0.0000
S1B S -0.05124(7) 0.04773(7) 0.35553(5)
C1B C 0.80846(16) -0.2374(2) -0.09745(16)
C2B C 0.75804(18) -0.2049(2) -0.20519(17)
H1B H 0.806(2) -0.168(3) -0.2468(19)
C3B C 0.63806(18) -0.2255(2) -0.24876(17)
H2B H 0.604(2) -0.203(2) -0.322(2)
C4B C 0.56692(17) -0.2802(2) -0.18677(16)
C5B C 0.62017(19) -0.3157(3) -0.07965(18)
H3B H 0.574(2) -0.356(3) -0.038(2)
C6B C 0.73912(19) -0.2949(2) -0.03503(18)
H4B H 0.774(2) -0.320(3) 0.037(2)
C7B C 0.43560(19) -0.2999(3) -0.2335(2)
H5B H 0.412(2) -0.248(3) -0.302(2)
H6B H 0.418(2) -0.393(3) -0.254(2)
C8B C 0.36344(16) -0.2513(2) -0.15694(17)
C9B C 0.3693(2) -0.1122(3) -0.1210(3)
H7B H 0.417(3) -0.050(3) -0.145(2)
C10B C 0.3080(2) -0.0662(3) -0.0480(2)
H8B H 0.313(3) 0.026(3) -0.026(2)
C11B C 0.23732(15) -0.1589(2) -0.00911(16)
C12B C 0.2298(2) -0.2972(2) -0.0437(2)
H9B H 0.185(2) -0.358(3) -0.019(2)
C13B C 0.2928(2) -0.3423(2) -0.1172(2)
H10B H 0.288(2) -0.438(3) -0.139(2)
N1B N 0.93078(15) -0.2099(2) -0.04978(17)
N1B_2 N -0.06922(15) -0.2099(2) -0.04978(17)
H11B H 0.952(2) -0.260(3) 0.008(2)
H11B_2 H -0.048(2) -0.260(3) 0.008(2)
H12B H 0.969(2) -0.238(3) -0.095(2)
H12B_2 H -0.031(2) -0.238(3) -0.095(2)
N2_2 N -0.16963(15) 0.1085(2) -0.06329(15)
N2B N 0.16963(15) -0.1085(2) 0.06329(15)
H13B H -0.152(2) 0.179(3) -0.103(2)
H13B_2 H 0.848(2) 0.179(3) -0.103(2)
H14B H -0.208(2) 0.050(3) -0.104(2)
H14B_2 H 0.792(2) 0.050(3) -0.104(2)
C14B C -0.03702(17) 0.0080(2) 0.23492(16)
N3B N -0.02663(16) -0.0233(2) 0.15022(15)
loop_
_geom_bond_atom_site_label_1
_geom_bond_atom_site_label_2
_geom_bond_site_symmetry_1
_geom_bond_site_symmetry_2
Ni1 N1 1_555 1_555
S1 C14 1_555 1_555
C1 C2 1_555 1_555
C2 H1 1_555 1_555
C3 C2 1_555 1_555
H2 C3 1_555 1_555
C4 C3 1_555 1_555
C5 C4 1_555 1_555
H3 C5 1_555 1_555
C6 C1 1_555 1_555
H4 C6 1_555 1_555
C7 C4 1_555 1_555
H5 C7 1_555 1_555
H6 C7 1_555 1_555
C8 C7 1_555 1_555
C9 C8 1_555 1_555
H7 C9 1_555 1_555
C10 C9 1_555 1_555
H8 C10 1_555 1_555
C11 C10 1_555 1_555
C12 C11 1_555 1_555
H9 C12 1_555 1_555
C13 C8 1_555 1_555
H10 C13 1_555 1_555
N1 C1 1_555 1_555
H11 N1 1_555 1_555
H12 N1 1_555 1_555
N2 C11 1_555 1_555
H13 N2B 1_555 1_555
H14 N2B 1_555 1_555
C14 N3 1_555 1_555
N3 Ni1 1_555 1_555
Ni1_2 N2 1_555 1_555
S1B C14B 1_555 1_555
C1B C2B 1_555 1_555
C2B H1B 1_555 1_555
C3B C2B 1_555 1_555
H2B C3B 1_555 1_555
C4B C3B 1_555 1_555
C5B C4B 1_555 1_555
H3B C5B 1_555 1_555
C6B C1B 1_555 1_555
H4B C6B 1_555 1_555
C7B C4B 1_555 1_555
H5B C7B 1_555 1_555
H6B C7B 1_555 1_555
C8B C7B 1_555 1_555
C9B C8B 1_555 1_555
H7B C9B 1_555 1_555
C10B C9B 1_555 1_555
H8B C10B 1_555 1_555
C11B C10B 1_555 1_555
C12B C11B 1_555 1_555
H9B C12B 1_555 1_555
C13B C8B 1_555 1_555
H10B C13B 1_555 1_555
N1B Ni1_2 1_555 1_555
N1B_2 Ni1 1_555 1_555
H11B N1B 1_555 1_555
H11B_2 N1B_2 1_555 1_555
H12B N1B 1_555 1_555
H12B_2 N1B_2 1_555 1_555
N2_2 Ni1 1_555 1_555
N2B Ni1 1_555 1_555
H13B N2_2 1_555 1_555
H13B_2 N2 1_555 1_555
H14B N2_2 1_555 1_555
H14B_2 N2 1_555 1_555
C14B N3B 1_555 1_555
N3B Ni1 1_555 1_555
C5 C6 1_555 1_555
C12 C13 1_555 1_555
C1B N1B 1_555 1_555
C5B C6B 1_555 1_555
C11B N2B 1_555 1_555
C12B C13B 1_555 1_555

#END
