
#######################################################################
#
#                 Cambridge Crystallographic Data Centre
#                                CCDC 
#
#######################################################################
#
# If this CIF has been generated from an entry in the Cambridge 
# Structural Database, then it will include bibliographic, chemical, 
# crystal, experimental, refinement or atomic coordinate data resulting 
# from the CCDC's data processing and validation procedures.
#
#######################################################################

data_VIPFEG
_symmetry_cell_setting           triclinic
_symmetry_space_group_name_H-M   'P 1'
_symmetry_Int_Tables_number      1
_space_group_name_Hall           'P 1'
loop_
_symmetry_equiv_pos_site_id
_symmetry_equiv_pos_as_xyz
1 x,y,z
_cell_length_a                   13.717(3)
_cell_length_b                   13.728(3)
_cell_length_c                   14.809(3)
_cell_angle_alpha                109.251(4)
_cell_angle_beta                 107.670(4)
_cell_angle_gamma                92.005(4)
_cell_volume                     2480.06
loop_
_atom_site_label
_atom_site_type_symbol
_atom_site_fract_x
_atom_site_fract_y
_atom_site_fract_z
Cu1 Cu -0.06332(7) 0.26336(7) 0.39715(7)
Cu2 Cu -0.54265(7) -0.21481(7) 0.38379(7)
Mo1 Mo -0.01827(4) -0.17667(4) 0.29976(4)
Mo2 Mo -0.21936(5) -0.43013(4) 0.20722(4)
Mo3 Mo -0.08575(4) -0.27541(4) 0.48106(4)
Mo4 Mo -0.28977(4) -0.19854(4) 0.29502(4)
Mo5 Mo 0.11976(4) -0.03260(4) 0.57994(4)
Mo6 Mo 0.19057(4) -0.26136(4) 0.47409(5)
Mo7 Mo 0.01927(5) -0.49418(6) 0.29231(5)
Mo8 Mo -0.11777(4) 0.01117(5) 0.48171(4)
O1 O -0.1426(4) -0.2548(4) 0.2628(4)
O2 O 0.0067(4) -0.0677(4) 0.4166(4)
O3 O -0.0967(5) -0.3065(5) 0.5800(4)
O4 O -0.0164(4) -0.1308(4) 0.2072(4)
O5 O 0.0799(4) -0.2525(5) 0.3155(4)
O6 O -0.2975(4) -0.3431(4) 0.2776(4)
O7 O -0.0835(4) -0.4602(4) 0.1979(4)
O8 O -0.1128(4) -0.3925(4) 0.3744(4)
O9 O -0.2715(4) -0.5474(4) 0.1997(5)
O10 O -0.2721(5) -0.4267(4) 0.0907(4)
O11 O 0.0450(4) -0.2163(4) 0.5122(5)
O12 O -0.1703(4) -0.1839(4) 0.4564(4)
O13 O -0.3849(4) -0.1719(4) 0.3494(4)
O14 O -0.3475(4) -0.2032(4) 0.1746(4)
O15 O 0.1970(4) -0.1166(4) 0.5026(4)
O16 O -0.0164(4) -0.0080(4) 0.5895(4)
O17 O 0.1723(4) 0.0888(4) 0.5964(4)
O18 O 0.1757(5) -0.0458(4) 0.6927(4)
O19 O 0.1063(4) -0.3976(4) 0.4128(4)
O20 O 0.2831(4) -0.2777(4) 0.4170(4)
O21 O 0.2506(4) -0.2684(4) 0.5885(4)
O22 O -0.0734(4) 0.1220(4) 0.4676(4)
O23 O -0.2070(4) 0.0499(4) 0.5392(4)
O24 O -0.2019(4) -0.0663(4) 0.3471(4)
O25 O -0.0337(4) -0.5905(4) 0.3205(4)
O26 O 0.0962(5) -0.5542(6) 0.2258(5)
N1 N -0.1635(4) 0.1801(4) 0.2569(4)
N2 N 0.0353(4) 0.3577(5) 0.5350(5)
N3 N -0.6287(4) -0.1699(4) 0.2714(4)
N4 N -0.5822(4) -0.3636(4) 0.2834(4)
N5 N -0.1849(5) 0.3219(4) 0.4374(5)
N6 N 0.0560(5) 0.2062(5) 0.3505(5)
N7 N -0.5166(4) -0.0677(4) 0.4851(4)
N8 N -0.4583(5) -0.2583(5) 0.4977(4)
C1 C -0.3698(7) 0.0098(7) -0.1248(6)
H1 H -0.3078 0.0434 -0.1211
C2 C -0.2149(6) 0.2277(6) 0.1944(6)
H2 H -0.2019 0.3001 0.2162
C3 C -0.3070(6) 0.0669(6) 0.0648(6)
C4 C -0.2555(7) 0.0174(6) 0.1293(6)
H3 H -0.2698 -0.0547 0.1099
C5 C -0.3862(6) 0.0083(6) -0.0370(6)
C6 C -0.2860(6) 0.1736(6) 0.0994(6)
H4 H -0.3198 0.2098 0.0588
C7 C -0.1827(6) 0.0753(6) 0.2224(6)
H5 H -0.1458 0.0404 0.2627
C8 C -0.4768(7) -0.0419(8) -0.0456(7)
H6 H -0.4871 -0.0457 0.0124
C9 C -0.4459(7) -0.0387(7) -0.2168(6)
H7 H -0.4345 -0.0387 -0.2756
C10 C -0.5370(7) -0.0866(7) -0.2238(7)
H8 H -0.5876 -0.1187 -0.2871
C11 C -0.5553(7) -0.0881(7) -0.1386(7)
H9 H -0.6186 -0.1192 -0.1426
C12 C 0.0831(5) 0.3218(6) 0.6082(6)
H10 H 0.0653 0.2523 0.5989
C13 C 0.1866(6) 0.4893(5) 0.7130(6)
C14 C 0.1586(6) 0.3856(6) 0.6980(6)
H11 H 0.1903 0.3587 0.7477
C15 C 0.1353(6) 0.5273(6) 0.6391(6)
H12 H 0.1518 0.5966 0.6470
C16 C 0.2921(6) 0.5501(6) 0.8978(6)
H13 H 0.2431 0.5108 0.9085
C17 C 0.2758(5) 0.5547(5) 0.8026(5)
C18 C 0.0577(6) 0.4597(6) 0.5516(6)
H14 H 0.0205 0.4863 0.5035
C19 C 0.3490(6) 0.6179(5) 0.7891(5)
H15 H 0.3375 0.6256 0.7267
C20 C 0.3825(7) 0.6046(6) 0.9785(6)
H16 H 0.3925 0.6019 1.0426
C21 C 0.4568(6) 0.6621(7) 0.9634(6)
H17 H 0.5180 0.6956 1.0162
C22 C 0.4397(6) 0.6692(7) 0.8709(6)
H18 H 0.4892 0.7091 0.8613
C23 C -0.5917(6) -0.1640(5) 0.1988(5)
H19 H -0.5232 -0.1730 0.2062
C24 C -0.7529(5) -0.1348(5) 0.0992(5)
C25 C -0.8193(5) -0.1201(5) 0.0065(5)
C26 C -0.6502(6) -0.1453(6) 0.1139(5)
H20 H -0.6205 -0.1397 0.0668
C27 C -0.7274(5) -0.1556(6) 0.2593(5)
H21 H -0.7542 -0.1574 0.3095
C28 C -0.8048(6) -0.1682(6) -0.0859(5)
H22 H -0.7525 -0.2091 -0.0894
C29 C -0.7914(5) -0.1384(6) 0.1749(6)
H23 H -0.8596 -0.1293 0.1691
C30 C -0.8682(7) -0.1557(7) -0.1732(6)
H24 H -0.8581 -0.1886 -0.2348
C31 C -0.8995(5) -0.0601(6) 0.0090(6)
H25 H -0.9115 -0.0283 0.0698
C32 C -0.9616(6) -0.0479(7) -0.0795(6)
H26 H -1.0144 -0.0073 -0.0776
C33 C -0.9444(7) -0.0960(7) -0.1696(6)
H27 H -0.9854 -0.0874 -0.2285
C34 C -0.5285(7) -0.5155(6) 0.1881(6)
H28 H -0.4738 -0.5499 0.1767
C35 C -0.5093(6) -0.4189(5) 0.2642(6)
H29 H -0.4409 -0.3911 0.3041
C36 C -0.6813(5) -0.4066(6) 0.2269(5)
H30 H -0.7344 -0.3695 0.2387
C37 C -0.5771(12) -0.7073(9) 0.0086(9)
H31 H -0.5106 -0.6697 0.0379
C38 C -0.6298(7) -0.5613(6) 0.1288(6)
C39 C -0.6539(9) -0.6636(7) 0.0448(7)
C40 C -0.5935(11) -0.8054(9) -0.0702(9)
H32 H -0.5401 -0.8339 -0.0912
C41 C -0.6903(12) -0.8537(9) -0.1118(10)
H33 H -0.7050 -0.9150 -0.1679
C42 C -0.7518(11) -0.7194(9) 0.0042(9)
H34 H -0.8048 -0.6944 0.0281
C43 C -0.7056(6) -0.5044(7) 0.1520(6)
H35 H -0.7748 -0.5326 0.1163
C44 C -0.7693(12) -0.8209(9) -0.0794(9)
H36 H -0.8342 -0.8618 -0.1092
C45 C 0.1238(6) 0.1571(7) 0.3992(6)
H37 H 0.1116 0.1397 0.4509
C46 C 0.0759(6) 0.2273(6) 0.2751(6)
H38 H 0.0286 0.2585 0.2380
C47 C 0.1642(6) 0.2047(6) 0.2504(6)
H39 H 0.1750 0.2223 0.1984
C48 C 0.2118(7) 0.1316(7) 0.3745(7)
H40 H 0.2559 0.0961 0.4093
C49 C 0.2363(6) 0.1568(6) 0.3008(6)
C50 C 0.3340(6) 0.1372(6) 0.2781(6)
C51 C 0.4157(6) 0.1118(6) 0.3437(6)
H41 H 0.4088 0.1050 0.4020
C52 C 0.5070(6) 0.0966(6) 0.3244(6)
H42 H 0.5610 0.0799 0.3699
C53 C 0.5198(8) 0.1057(8) 0.2390(8)
H43 H 0.5816 0.0954 0.2261
C54 C 0.3459(8) 0.1439(8) 0.1903(7)
H44 H 0.2912 0.1575 0.1431
C55 C 0.4390(8) 0.1303(8) 0.1731(8)
H45 H 0.4469 0.1380 0.1155
C56 C -0.3720(6) 0.3771(5) 0.4696(6)
C57 C -0.3198(6) 0.4284(6) 0.4255(6)
H46 H -0.3472 0.4817 0.4050
C58 C -0.5484(6) 0.4164(6) 0.3997(6)
H47 H -0.5336 0.4151 0.3421
C59 C -0.4736(6) 0.3998(5) 0.4778(6)
C60 C -0.6451(6) 0.4351(6) 0.4062(7)
H48 H -0.6942 0.4464 0.3529
C61 C -0.2286(6) 0.3996(6) 0.4128(6)
H49 H -0.1950 0.4364 0.3854
C62 C -0.3222(6) 0.3023(5) 0.5018(5)
H50 H -0.3510 0.2687 0.5350
C63 C -0.5004(6) 0.3997(6) 0.5619(6)
H51 H -0.4529 0.3857 0.6143
C64 C -0.6697(6) 0.4373(6) 0.4895(7)
H52 H -0.7348 0.4501 0.4930
C65 C -0.2316(6) 0.2765(5) 0.4859(5)
H53 H -0.2008 0.2260 0.5090
C66 C -0.5974(7) 0.4204(7) 0.5679(7)
H54 H -0.6131 0.4227 0.6253
C67 C -0.2919(5) -0.2813(6) 0.7849(5)
C68 C -0.3477(5) -0.2792(6) 0.6842(5)
C69 C -0.5047(6) -0.3064(5) 0.5434(5)
H55 H -0.5746 -0.3336 0.5119
C70 C -0.4529(5) -0.3170(6) 0.6346(5)
H56 H -0.4886 -0.3498 0.6635
C71 C -0.2990(5) -0.2323(7) 0.6352(6)
H57 H -0.2287 -0.2068 0.6641
C72 C -0.3553(5) -0.2240(7) 0.5440(5)
H58 H -0.3208 -0.1933 0.5127
C73 C -0.3158(6) -0.3640(7) 0.8119(6)
H59 H -0.3660 -0.4196 0.7645
C74 C -0.2173(6) -0.1997(7) 0.8567(5)
H60 H -0.1988 -0.1440 0.8398
C75 C -0.1940(7) -0.2836(8) 0.9784(6)
H61 H -0.1612 -0.2843 1.0431
C76 C -0.1696(6) -0.1996(8) 0.9535(6)
H62 H -0.1211 -0.1431 1.0017
C77 C -0.2670(8) -0.3661(10) 0.9075(8)
H63 H -0.2834 -0.4230 0.9238
C78 C -0.4263(5) -0.0059(6) 0.5262(6)
H64 H -0.3730 -0.0276 0.5012
C79 C -0.4069(6) 0.0912(6) 0.6060(6)
H65 H -0.3419 0.1316 0.6339
C80 C -0.4857(5) 0.1254(6) 0.6420(6)
C81 C -0.5821(6) 0.0622(6) 0.5960(6)
H66 H -0.6378 0.0839 0.6168
C82 C -0.5941(6) -0.0311(6) 0.5206(6)
H67 H -0.6587 -0.0724 0.4916
C83 C -0.4676(6) 0.2261(6) 0.7297(6)
C84 C -0.5485(6) 0.2806(6) 0.7388(6)
H68 H -0.6138 0.2547 0.6902
C85 C -0.3712(6) 0.2634(7) 0.8047(6)
H69 H -0.3162 0.2269 0.7993
C86 C -0.3556(7) 0.3552(7) 0.8883(7)
H70 H -0.2914 0.3796 0.9390
C87 C -0.4396(7) 0.4089(6) 0.8931(8)
H71 H -0.4309 0.4703 0.9478
C88 C -0.5345(7) 0.3730(7) 0.8188(7)
H72 H -0.5892 0.4106 0.8223
Cu1_2 Cu -0.06332(7) -0.73664(7) 0.39715(7)
Cu2_2 Cu 0.45735(7) -0.21481(7) 0.38379(7)
O20_2 O -0.7169(4) -0.2777(4) 0.4170(4)
O25_2 O -0.0337(4) 0.4095(4) 0.3205(4)
N9 N -0.1151(6) 1.1403(7) 0.8964(7)
C89 C -0.0251(8) 1.6092(9) 0.8127(9)
H73 H -0.0136 1.6696 0.7996
C90 C -0.0707(8) 1.3314(9) 0.8697(9)
C91 C -0.0775(8) 1.3264(9) 0.9594(9)
H74 H -0.0677 1.3878 1.0144
C92 C -0.0870(8) 1.2308(8) 0.7916(9)
H75 H -0.0828 1.2272 0.7291
C93 C -0.1084(7) 1.1409(9) 0.8058(9)
H76 H -0.1188 1.0777 0.7527
C94 C -0.0983(8) 1.2329(9) 0.9686(9)
H77 H -0.1008 1.2345 1.0311
C95 C -0.0544(8) 1.4281(9) 0.8515(9)
C96 C -0.0995(8) 1.4380(9) 0.7596(9)
H78 H -0.1424 1.3797 0.7076
C97 C 0.0079(8) 1.5172(8) 0.9303(9)
H79 H 0.0397 1.5179 0.9957
C98 C 0.0198(8) 1.6099(9) 0.9027(9)
H80 H 0.0611 1.6707 0.9521
C99 C -0.0872(8) 1.5270(9) 0.7370(9)
H81 H -0.1203 1.5291 0.6729
loop_
_geom_bond_atom_site_label_1
_geom_bond_atom_site_label_2
_geom_bond_site_symmetry_1
_geom_bond_site_symmetry_2
Cu1 O22 1_555 1_555
Cu2 O13 1_555 1_555
Mo1 O1 1_555 1_555
Mo2 O1 1_555 1_555
Mo3 O3 1_555 1_555
Mo4 O1 1_555 1_555
Mo5 O2 1_555 1_555
Mo6 O5 1_555 1_555
Mo7 O7 1_555 1_555
Mo8 O2 1_555 1_555
O2 Mo1 1_555 1_555
O4 Mo1 1_555 1_555
O5 Mo1 1_555 1_555
O6 Mo2 1_555 1_555
O7 Mo2 1_555 1_555
O8 Mo2 1_555 1_555
O9 Mo2 1_555 1_555
O10 Mo2 1_555 1_555
O11 Mo3 1_555 1_555
O12 Mo3 1_555 1_555
O13 Mo4 1_555 1_555
O14 Mo4 1_555 1_555
O15 Mo5 1_555 1_555
O16 Mo5 1_555 1_555
O17 Mo5 1_555 1_555
O18 Mo5 1_555 1_555
O19 Mo6 1_555 1_555
O20 Mo6 1_555 1_555
O21 Mo6 1_555 1_555
O22 Mo8 1_555 1_555
O23 Mo8 1_555 1_555
O24 Mo4 1_555 1_555
O25 Mo7 1_555 1_555
O26 Mo7 1_555 1_555
N1 Cu1 1_555 1_555
N2 Cu1 1_555 1_555
N3 Cu2 1_555 1_555
N4 Cu2 1_555 1_555
N5 Cu1 1_555 1_555
N6 Cu1 1_555 1_555
N7 Cu2 1_555 1_555
N8 Cu2 1_555 1_555
N9 C93 1_555 1_555
C1 H1 1_555 1_555
C2 N1 1_555 1_555
H2 C2 1_555 1_555
C3 C4 1_555 1_555
C4 H3 1_555 1_555
C5 C1 1_555 1_555
C6 C2 1_555 1_555
H4 C6 1_555 1_555
C7 N1 1_555 1_555
H5 C7 1_555 1_555
C8 C5 1_555 1_555
H6 C8 1_555 1_555
C9 C1 1_555 1_555
H7 C9 1_555 1_555
C10 C9 1_555 1_555
H8 C10 1_555 1_555
C11 C8 1_555 1_555
H9 C11 1_555 1_555
C12 N2 1_555 1_555
H10 C12 1_555 1_555
C13 C14 1_555 1_555
C14 C12 1_555 1_555
H11 C14 1_555 1_555
C15 C13 1_555 1_555
H12 C15 1_555 1_555
C16 H13 1_555 1_555
C17 C13 1_555 1_555
C18 N2 1_555 1_555
H14 C18 1_555 1_555
C19 C17 1_555 1_555
H15 C19 1_555 1_555
C20 C16 1_555 1_555
H16 C20 1_555 1_555
C21 C20 1_555 1_555
H17 C21 1_555 1_555
C22 C19 1_555 1_555
H18 C22 1_555 1_555
C23 N3 1_555 1_555
H19 C23 1_555 1_555
C24 C25 1_555 1_555
C25 C28 1_555 1_555
C26 C23 1_555 1_555
H20 C26 1_555 1_555
C27 N3 1_555 1_555
H21 C27 1_555 1_555
C28 H22 1_555 1_555
C29 C24 1_555 1_555
H23 C29 1_555 1_555
C30 C28 1_555 1_555
H24 C30 1_555 1_555
C31 C25 1_555 1_555
H25 C31 1_555 1_555
C32 C31 1_555 1_555
H26 C32 1_555 1_555
C33 C30 1_555 1_555
H27 C33 1_555 1_555
C34 H28 1_555 1_555
C35 N4 1_555 1_555
H29 C35 1_555 1_555
C36 N4 1_555 1_555
H30 C36 1_555 1_555
C37 H31 1_555 1_555
C38 C34 1_555 1_555
C39 C37 1_555 1_555
C40 C37 1_555 1_555
H32 C40 1_555 1_555
C41 C40 1_555 1_555
H33 C41 1_555 1_555
C42 C39 1_555 1_555
H34 C42 1_555 1_555
C43 C36 1_555 1_555
H35 C43 1_555 1_555
C44 C41 1_555 1_555
H36 C44 1_555 1_555
C45 N6 1_555 1_555
H37 C45 1_555 1_555
C46 N6 1_555 1_555
H38 C46 1_555 1_555
C47 C46 1_555 1_555
H39 C47 1_555 1_555
C48 C45 1_555 1_555
H40 C48 1_555 1_555
C49 C47 1_555 1_555
C50 C49 1_555 1_555
C51 C50 1_555 1_555
H41 C51 1_555 1_555
C52 C51 1_555 1_555
H42 C52 1_555 1_555
C53 C52 1_555 1_555
H43 C53 1_555 1_555
C54 C50 1_555 1_555
H44 C54 1_555 1_555
C55 C53 1_555 1_555
H45 C55 1_555 1_555
C56 C57 1_555 1_555
C57 H46 1_555 1_555
C58 H47 1_555 1_555
C59 C56 1_555 1_555
C60 C58 1_555 1_555
H48 C60 1_555 1_555
C61 N5 1_555 1_555
H49 C61 1_555 1_555
C62 C56 1_555 1_555
H50 C62 1_555 1_555
C63 C59 1_555 1_555
H51 C63 1_555 1_555
C64 C60 1_555 1_555
H52 C64 1_555 1_555
C65 N5 1_555 1_555
H53 C65 1_555 1_555
C66 C63 1_555 1_555
H54 C66 1_555 1_555
C67 C68 1_555 1_555
C68 C70 1_555 1_555
C69 N8 1_555 1_555
H55 C69 1_555 1_555
C70 C69 1_555 1_555
H56 C70 1_555 1_555
C71 C68 1_555 1_555
H57 C71 1_555 1_555
C72 N8 1_555 1_555
H58 C72 1_555 1_555
C73 C67 1_555 1_555
H59 C73 1_555 1_555
C74 C67 1_555 1_555
H60 C74 1_555 1_555
C75 H61 1_555 1_555
C76 C74 1_555 1_555
H62 C76 1_555 1_555
C77 C73 1_555 1_555
H63 C77 1_555 1_555
C78 N7 1_555 1_555
H64 C78 1_555 1_555
C79 C78 1_555 1_555
H65 C79 1_555 1_555
C80 C79 1_555 1_555
C81 C80 1_555 1_555
H66 C81 1_555 1_555
C82 N7 1_555 1_555
H67 C82 1_555 1_555
C83 C80 1_555 1_555
C84 C83 1_555 1_555
H68 C84 1_555 1_555
C85 C83 1_555 1_555
H69 C85 1_555 1_555
C86 C85 1_555 1_555
H70 C86 1_555 1_555
C87 C86 1_555 1_555
H71 C87 1_555 1_555
C88 C84 1_555 1_555
H72 C88 1_555 1_555
C89 H73 1_555 1_555
C90 C91 1_555 1_555
C91 H74 1_555 1_555
C92 C90 1_555 1_555
H75 C92 1_555 1_555
C93 C92 1_555 1_555
H76 C93 1_555 1_555
C94 N9 1_555 1_555
H77 C94 1_555 1_555
C95 C90 1_555 1_555
C96 C95 1_555 1_555
H78 C96 1_555 1_555
C97 C95 1_555 1_555
H79 C97 1_555 1_555
C98 C89 1_555 1_555
H80 C98 1_555 1_555
C99 C89 1_555 1_555
H81 C99 1_555 1_555
Cu1_2 O25 1_555 1_555
Cu2_2 O20 1_555 1_555
O20_2 Cu2 1_555 1_555
O25_2 Cu1 1_555 1_555
Mo3 O8 1_555 1_555
Mo4 O6 1_555 1_555
Mo4 O12 1_555 1_555
Mo5 O11 1_555 1_555
Mo6 O11 1_555 1_555
Mo6 O15 1_555 1_555
Mo7 O19 1_555 1_555
Mo8 O16 1_555 1_555
Mo8 O24 1_555 1_555
C3 C5 1_555 1_555
C3 C6 1_555 1_555
C4 C7 1_555 1_555
C10 C11 1_555 1_555
C15 C18 1_555 1_555
C16 C17 1_555 1_555
C21 C22 1_555 1_555
C24 C26 1_555 1_555
C27 C29 1_555 1_555
C32 C33 1_555 1_555
C34 C35 1_555 1_555
C38 C39 1_555 1_555
C38 C43 1_555 1_555
C42 C44 1_555 1_555
C48 C49 1_555 1_555
C54 C55 1_555 1_555
C57 C61 1_555 1_555
C58 C59 1_555 1_555
C62 C65 1_555 1_555
C64 C66 1_555 1_555
C71 C72 1_555 1_555
C75 C76 1_555 1_555
C75 C77 1_555 1_555
C81 C82 1_555 1_555
C87 C88 1_555 1_555
C91 C94 1_555 1_555
C96 C99 1_555 1_555
C97 C98 1_555 1_555

#END
