
#######################################################################
#
#                 Cambridge Crystallographic Data Centre
#                                CCDC 
#
#######################################################################
#
# If this CIF has been generated from an entry in the Cambridge 
# Structural Database, then it will include bibliographic, chemical, 
# crystal, experimental, refinement or atomic coordinate data resulting 
# from the CCDC's data processing and validation procedures.
#
#######################################################################

data_VIPKAI
_symmetry_cell_setting           monoclinic
_symmetry_space_group_name_H-M   'P 21/c'
_symmetry_Int_Tables_number      14
_space_group_name_Hall           '-P 2ybc'
loop_
_symmetry_equiv_pos_site_id
_symmetry_equiv_pos_as_xyz
1 x,y,z
2 -x,1/2+y,1/2-z
3 -x,-y,-z
4 x,1/2-y,1/2+z
_cell_length_a                   10.785(2)
_cell_length_b                   10.1308(19)
_cell_length_c                   8.910(3)
_cell_angle_alpha                90
_cell_angle_beta                 111.01(3)
_cell_angle_gamma                90
_cell_volume                     908.791
loop_
_atom_site_label
_atom_site_type_symbol
_atom_site_fract_x
_atom_site_fract_y
_atom_site_fract_z
Zn1 Zn 0.64942(4) 0.26247(4) 0.78290(5)
O1 O 0.1125(3) -0.0691(3) 0.3944(4)
O2 O -0.3078(3) 0.2088(3) 0.0857(3)
O3 O -0.1937(3) 0.1663(3) -0.0675(3)
N1 N 0.5004(3) 0.1375(3) 0.7029(4)
N2 N 0.3858(3) -0.0526(3) 0.6707(4)
N3 N 0.3506(4) 0.2617(4) 0.4777(4)
N4 N 0.1644(3) 0.1354(3) 0.3244(4)
C1 C 0.4928(4) 0.0163(4) 0.7555(4)
H1 H 0.5584 -0.0182 0.8462
C2 C 0.3864(4) 0.1490(4) 0.5706(4)
C3 C 0.3174(4) 0.0337(4) 0.5504(4)
C4 C 0.1914(4) 0.0216(5) 0.4221(5)
C5 C 0.2415(4) 0.2450(5) 0.3579(6)
H2 H 0.2125 0.3153 0.2868
C6 C 0.0441(4) 0.1323(5) 0.1776(5)
H3 H 0.0414 0.0497 0.1216
H4 H 0.0483 0.2036 0.1069
C7 C -0.0817(4) 0.1461(5) 0.2149(5)
H5 H -0.0960 0.0653 0.2648
H6 H -0.0702 0.2172 0.2917
C8 C -0.2015(4) 0.1738(4) 0.0695(4)
Zn1_2 Zn -0.35058(4) 0.26247(4) -0.21710(5)
Zn1A Zn 0.35058(4) -0.23753(4) 0.71710(5)
Zn1C Zn -0.35058(4) 0.23753(4) 0.28290(5)
O2C O 0.6922(3) 0.2912(3) 0.5857(3)
O3_2 O 0.8063(3) 0.1663(3) 0.9325(3)
N2A N 0.6142(3) 0.4474(3) 0.8293(4)
loop_
_geom_bond_atom_site_label_1
_geom_bond_atom_site_label_2
_geom_bond_site_symmetry_1
_geom_bond_site_symmetry_2
Zn1 N1 1_555 1_555
O1 C4 1_555 1_555
O2 C8 1_555 1_555
O3 C8 1_555 1_555
N1 C1 1_555 1_555
N2 C1 1_555 1_555
N3 C2 1_555 1_555
N4 C4 1_555 1_555
C1 H1 1_555 1_555
C2 N1 1_555 1_555
C3 N2 1_555 1_555
C4 C3 1_555 1_555
C5 N3 1_555 1_555
H2 C5 1_555 1_555
C6 N4 1_555 1_555
H3 C6 1_555 1_555
H4 C6 1_555 1_555
C7 C6 1_555 1_555
H5 C7 1_555 1_555
H6 C7 1_555 1_555
C8 C7 1_555 1_555
Zn1_2 O3 1_555 1_555
Zn1A N2 1_555 1_555
Zn1C O2 1_555 1_555
O2C Zn1 1_555 1_555
O3_2 Zn1 1_555 1_555
N2A Zn1 1_555 1_555
N4 C5 1_555 1_555
C2 C3 1_555 1_555

#END
