
#######################################################################
#
#                 Cambridge Crystallographic Data Centre
#                                CCDC 
#
#######################################################################
#
# If this CIF has been generated from an entry in the Cambridge 
# Structural Database, then it will include bibliographic, chemical, 
# crystal, experimental, refinement or atomic coordinate data resulting 
# from the CCDC's data processing and validation procedures.
#
#######################################################################

data_VIPMOX
_symmetry_cell_setting           monoclinic
_symmetry_space_group_name_H-M   'P 21/n'
_symmetry_Int_Tables_number      14
_space_group_name_Hall           '-P 2yn'
loop_
_symmetry_equiv_pos_site_id
_symmetry_equiv_pos_as_xyz
1 x,y,z
2 1/2-x,1/2+y,1/2-z
3 -x,-y,-z
4 1/2+x,1/2-y,1/2+z
_cell_length_a                   16.5085(7)
_cell_length_b                   16.0392(7)
_cell_length_c                   16.5115(7)
_cell_angle_alpha                90
_cell_angle_beta                 97.4710(10)
_cell_angle_gamma                90
_cell_volume                     4334.85
loop_
_atom_site_label
_atom_site_type_symbol
_atom_site_fract_x
_atom_site_fract_y
_atom_site_fract_z
Bi1 Bi 0.64421(2) 0.16476(2) 0.20516(2)
Bi2 Bi 0.84409(2) 0.00337(2) 0.21352(2)
I1 I 0.65779(5) 0.30015(4) 0.33243(4)
I2 I 0.61309(5) 0.28245(4) 0.06951(4)
I3 I 0.47077(4) 0.12770(4) 0.20829(4)
I4 I 0.84438(4) 0.18861(4) 0.20472(5)
I5 I 0.71175(4) 0.03280(4) 0.34529(4)
I6 I 0.66967(4) 0.01310(3) 0.08874(4)
I7 I 0.98557(4) 0.00094(5) 0.33855(4)
I8 I 0.93498(4) -0.00038(4) 0.07630(4)
Bi2A Bi 0.65591(2) 0.50337(2) 0.28648(2)
I1A I 0.84221(5) -0.19985(4) 0.16757(4)
C1 C 0.0764(7) 0.3645(6) 0.0070(7)
H1 H 0.1211 0.3535 -0.0223
C2 C 0.0014(8) 0.3804(7) -0.0373(7)
H2 H -0.0051 0.3830 -0.0952
C3 C -0.0638(8) 0.3923(7) 0.0055(8)
H3 H -0.1168 0.4023 -0.0228
C4 C -0.0517(7) 0.3896(6) 0.0909(7)
H4 H -0.0965 0.3965 0.1210
C5 C 0.0256(6) 0.3768(5) 0.1308(6)
C6 C 0.0479(6) 0.3743(5) 0.2193(6)
C7 C -0.0084(6) 0.3852(6) 0.2748(6)
H5 H -0.0643 0.3954 0.2556
C8 C 0.0176(6) 0.3810(5) 0.3572(6)
H6 H -0.0203 0.3876 0.3954
C9 C 0.1008(6) 0.3667(6) 0.3843(6)
H7 H 0.1201 0.3640 0.4410
C10 C 0.1539(6) 0.3567(5) 0.3264(5)
C11 C 0.2423(6) 0.3405(5) 0.3458(6)
C12 C 0.2839(6) 0.3321(5) 0.4241(6)
H8 H 0.2551 0.3361 0.4701
C13 C 0.3662(7) 0.3183(5) 0.4349(6)
H9 H 0.3945 0.3108 0.4883
C14 C 0.4077(6) 0.3152(5) 0.3682(6)
H10 H 0.4651 0.3068 0.3743
C15 C 0.3628(6) 0.3248(5) 0.2912(6)
H11 H 0.3912 0.3231 0.2447
C16 C 0.1359(6) 0.1733(6) 0.1919(6)
H12 H 0.1018 0.1982 0.2273
C17 C 0.1301(6) 0.0880(6) 0.1780(6)
H13 H 0.0924 0.0554 0.2034
C18 C 0.1790(7) 0.0513(6) 0.1274(6)
H14 H 0.1757 -0.0070 0.1175
C19 C 0.2333(6) 0.0993(5) 0.0908(6)
H15 H 0.2677 0.0744 0.0557
C20 C 0.2372(6) 0.1853(5) 0.1060(6)
C21 C 0.2863(6) 0.2458(5) 0.0684(6)
C22 C 0.3393(6) 0.2293(5) 0.0128(6)
H16 H 0.3482 0.1735 -0.0031
C23 C 0.3797(6) 0.2940(6) -0.0198(6)
H17 H 0.4164 0.2831 -0.0584
C24 C 0.3658(6) 0.3767(6) 0.0048(6)
H18 H 0.3934 0.4224 -0.0160
C25 C 0.3111(6) 0.3891(5) 0.0600(6)
C26 C 0.2855(5) 0.4707(5) 0.0908(5)
C27 C 0.3091(6) 0.5468(5) 0.0655(6)
H19 H 0.3446 0.5508 0.0248
C28 C 0.2813(6) 0.6176(5) 0.0995(6)
H20 H 0.2990 0.6710 0.0841
C29 C 0.2272(6) 0.6105(5) 0.1564(6)
H21 H 0.2062 0.6587 0.1797
C30 C 0.2043(6) 0.5310(5) 0.1789(6)
H22 H 0.1669 0.5258 0.2178
Co1 Co 0.20092(8) 0.34425(7) 0.16674(8)
N1 N 0.0904(5) 0.3636(4) 0.0885(5)
N2 N 0.1273(5) 0.3613(4) 0.2460(4)
N3 N 0.2827(5) 0.3363(4) 0.2794(5)
N4 N 0.1876(4) 0.2215(4) 0.1576(4)
N5 N 0.2734(5) 0.3247(4) 0.0913(5)
N6 N 0.2331(4) 0.4618(4) 0.1475(4)
loop_
_geom_bond_atom_site_label_1
_geom_bond_atom_site_label_2
_geom_bond_site_symmetry_1
_geom_bond_site_symmetry_2
Bi1 I1 1_555 1_555
Bi2 I4 1_555 1_555
I1 Bi2A 1_555 1_555
I2 Bi1 1_555 1_555
I3 Bi1 1_555 1_555
I4 Bi1 1_555 1_555
I5 Bi1 1_555 1_555
I6 Bi1 1_555 1_555
I7 Bi2 1_555 1_555
I8 Bi2 1_555 1_555
C1 H1 1_555 1_555
C2 C1 1_555 1_555
H2 C2 1_555 1_555
C3 C2 1_555 1_555
H3 C3 1_555 1_555
C4 C3 1_555 1_555
H4 C4 1_555 1_555
C5 C4 1_555 1_555
C6 C5 1_555 1_555
C7 C6 1_555 1_555
H5 C7 1_555 1_555
C8 C7 1_555 1_555
H6 C8 1_555 1_555
C9 C8 1_555 1_555
H7 C9 1_555 1_555
C10 C9 1_555 1_555
C11 C10 1_555 1_555
C12 C11 1_555 1_555
H8 C12 1_555 1_555
C13 C12 1_555 1_555
H9 C13 1_555 1_555
C14 C13 1_555 1_555
H10 C14 1_555 1_555
C15 C14 1_555 1_555
H11 C15 1_555 1_555
C16 H12 1_555 1_555
C17 C16 1_555 1_555
H13 C17 1_555 1_555
C18 C17 1_555 1_555
H14 C18 1_555 1_555
C19 C18 1_555 1_555
H15 C19 1_555 1_555
C20 C19 1_555 1_555
C21 C20 1_555 1_555
C22 C21 1_555 1_555
H16 C22 1_555 1_555
C23 C22 1_555 1_555
H17 C23 1_555 1_555
C24 C23 1_555 1_555
H18 C24 1_555 1_555
C25 C24 1_555 1_555
C26 C25 1_555 1_555
C27 C26 1_555 1_555
H19 C27 1_555 1_555
C28 C27 1_555 1_555
H20 C28 1_555 1_555
C29 C28 1_555 1_555
H21 C29 1_555 1_555
C30 C29 1_555 1_555
H22 C30 1_555 1_555
Co1 N1 1_555 1_555
N1 C1 1_555 1_555
N2 C6 1_555 1_555
N3 C11 1_555 1_555
N4 C16 1_555 1_555
N5 C21 1_555 1_555
N6 C26 1_555 1_555
I1A Bi2 1_555 1_555
Bi2 I5 1_555 1_555
Bi2 I6 1_555 1_555
C5 N1 1_555 1_555
C10 N2 1_555 1_555
C15 N3 1_555 1_555
C20 N4 1_555 1_555
C25 N5 1_555 1_555
C30 N6 1_555 1_555
Co1 N2 1_555 1_555
Co1 N3 1_555 1_555
Co1 N4 1_555 1_555
Co1 N5 1_555 1_555
Co1 N6 1_555 1_555

#END
