
#######################################################################
#
#                 Cambridge Crystallographic Data Centre
#                                CCDC 
#
#######################################################################
#
# If this CIF has been generated from an entry in the Cambridge 
# Structural Database, then it will include bibliographic, chemical, 
# crystal, experimental, refinement or atomic coordinate data resulting 
# from the CCDC's data processing and validation procedures.
#
#######################################################################

data_VIPNEO
_symmetry_cell_setting           triclinic
_symmetry_space_group_name_H-M   'P -1'
_symmetry_Int_Tables_number      2
_space_group_name_Hall           '-P 1'
loop_
_symmetry_equiv_pos_site_id
_symmetry_equiv_pos_as_xyz
1 x,y,z
2 -x,-y,-z
_cell_length_a                   11.7889(5)
_cell_length_b                   15.3224(6)
_cell_length_c                   16.2584(6)
_cell_angle_alpha                64.1920(10)
_cell_angle_beta                 73.5600(10)
_cell_angle_gamma                73.7120(10)
_cell_volume                     2493.4
loop_
_atom_site_label
_atom_site_type_symbol
_atom_site_fract_x
_atom_site_fract_y
_atom_site_fract_z
Pb1 Pb 0.16150(3) 0.05358(3) 0.37147(3)
Pb2 Pb 0.47882(3) 0.12201(3) 0.34268(3)
Pb3 Pb -0.21625(4) 0.21863(3) 0.31370(3)
I1 I -0.07937(6) 0.16050(5) 0.48783(4)
I2 I 0.03498(7) 0.10172(6) 0.21384(5)
I3 I 0.24719(6) 0.25886(5) 0.26815(5)
I4 I 0.30595(6) 0.01502(5) 0.53840(4)
I5 I 0.41402(6) -0.03362(5) 0.27569(5)
I6 I 0.50991(7) 0.28089(6) 0.40381(5)
I7 I 0.68042(6) 0.19564(5) 0.16376(4)
I8 I -0.17507(9) 0.42654(6) 0.21972(6)
Pb1A Pb -0.16150(3) -0.05358(3) 0.62853(3)
Pb2A Pb 0.52118(3) -0.12201(3) 0.65732(3)
Pb3A Pb 0.21625(4) -0.21863(3) 0.68630(3)
Pb3_2 Pb 0.78375(4) 0.21863(3) 0.31370(3)
I1A I 0.07937(6) -0.16050(5) 0.51217(4)
I4A I 0.69405(6) -0.01502(5) 0.46160(4)
I4A_2 I -0.30595(6) -0.01502(5) 0.46160(4)
I6_2 I -0.49009(7) 0.28089(6) 0.40381(5)
I7_2 I -0.31958(6) 0.19564(5) 0.16376(4)
Fe1 Fe 0.19696(12) 0.67052(9) 0.21555(8)
C1 C 0.3781(10) 0.4971(7) 0.1920(7)
H1 H 0.3273 0.4561 0.2383
C2 C 0.4853(11) 0.4540(9) 0.1498(8)
H2 H 0.5039 0.3860 0.1665
C3 C 0.5632(10) 0.5133(10) 0.0830(7)
H3 H 0.6354 0.4856 0.0545
C4 C 0.5338(8) 0.6141(8) 0.0583(6)
C5 C 0.6061(10) 0.6805(10) -0.0098(7)
H4 H 0.6798 0.6562 -0.0394
C6 C 0.5718(10) 0.7791(11) -0.0337(7)
H5 H 0.6218 0.8211 -0.0797
C7 C 0.4589(10) 0.8198(8) 0.0112(7)
C8 C 0.4149(13) 0.9211(8) -0.0069(8)
H6 H 0.4602 0.9682 -0.0507
C9 C 0.3067(13) 0.9485(8) 0.0401(8)
H7 H 0.2781 1.0148 0.0298
C10 C 0.2379(10) 0.8795(7) 0.1032(7)
H8 H 0.1622 0.9015 0.1322
C11 C 0.3845(9) 0.7534(7) 0.0798(6)
C12 C 0.4243(8) 0.6513(7) 0.1028(6)
C13 C 0.1473(10) 0.6343(7) 0.0630(7)
H9 H 0.2277 0.6055 0.0517
C14 C 0.0677(12) 0.6344(8) 0.0130(7)
H10 H 0.0962 0.6045 -0.0297
C15 C -0.0492(11) 0.6768(8) 0.0256(7)
H11 H -0.1008 0.6772 -0.0086
C16 C -0.0914(10) 0.7203(8) 0.0917(7)
C17 C -0.2113(11) 0.7694(9) 0.1107(8)
H12 H -0.2683 0.7712 0.0801
C18 C -0.2440(11) 0.8127(8) 0.1712(9)
H13 H -0.3239 0.8425 0.1829
C19 C -0.1596(9) 0.8150(8) 0.2193(7)
C20 C -0.1826(10) 0.8646(8) 0.2794(8)
H14 H -0.2585 0.9007 0.2918
C21 C -0.0932(11) 0.8589(8) 0.3185(7)
H15 H -0.1073 0.8927 0.3571
C22 C 0.0204(9) 0.8031(7) 0.3025(6)
H16 H 0.0796 0.7995 0.3319
C23 C -0.0415(8) 0.7641(6) 0.2037(6)
C24 C -0.0077(9) 0.7178(7) 0.1382(6)
C25 C 0.0626(9) 0.4997(7) 0.3087(7)
H17 H 0.0337 0.5212 0.2541
C26 C 0.0292(9) 0.4164(7) 0.3820(7)
H18 H -0.0243 0.3850 0.3773
C27 C 0.0746(10) 0.3797(7) 0.4619(7)
H19 H 0.0564 0.3215 0.5106
C28 C 0.1496(9) 0.4326(7) 0.4683(7)
C29 C 0.1996(11) 0.4031(8) 0.5489(7)
H20 H 0.1836 0.3458 0.5999
C30 C 0.2697(10) 0.4574(8) 0.5518(7)
H21 H 0.3018 0.4364 0.6048
C31 C 0.2958(9) 0.5462(7) 0.4755(7)
C32 C 0.3689(10) 0.6057(7) 0.4750(8)
H22 H 0.4037 0.5890 0.5258
C33 C 0.3861(11) 0.6889(8) 0.3967(8)
H23 H 0.4306 0.7311 0.3952
C34 C 0.3384(10) 0.7114(7) 0.3195(7)
H24 H 0.3553 0.7670 0.2666
C35 C 0.2485(8) 0.5742(6) 0.3959(6)
C36 C 0.1751(8) 0.5177(6) 0.3924(6)
N1 N 0.3449(7) 0.5931(5) 0.1696(5)
N2 N 0.2743(7) 0.7824(5) 0.1250(5)
N3 N 0.1109(7) 0.6743(5) 0.1257(5)
N4 N 0.0465(7) 0.7552(5) 0.2466(5)
N5 N 0.1347(7) 0.5511(5) 0.3122(5)
N6 N 0.2700(7) 0.6571(5) 0.3179(5)
O1 O 0.9550(19) 0.0443(15) 0.0447(14)
loop_
_geom_bond_atom_site_label_1
_geom_bond_atom_site_label_2
_geom_bond_site_symmetry_1
_geom_bond_site_symmetry_2
Pb1 I1 1_555 1_555
Pb2 I3 1_555 1_555
Pb3 I1 1_555 1_555
I1 Pb1A 1_555 1_555
I2 Pb1 1_555 1_555
I3 Pb1 1_555 1_555
I4 Pb1 1_555 1_555
I5 Pb1 1_555 1_555
I6 Pb2 1_555 1_555
I7 Pb2 1_555 1_555
I8 Pb3 1_555 1_555
Fe1 N1 1_555 1_555
C1 H1 1_555 1_555
C2 C1 1_555 1_555
H2 C2 1_555 1_555
C3 C2 1_555 1_555
H3 C3 1_555 1_555
C4 C3 1_555 1_555
C5 C4 1_555 1_555
H4 C5 1_555 1_555
C6 C5 1_555 1_555
H5 C6 1_555 1_555
C7 C6 1_555 1_555
C8 C7 1_555 1_555
H6 C8 1_555 1_555
C9 C8 1_555 1_555
H7 C9 1_555 1_555
C10 C9 1_555 1_555
H8 C10 1_555 1_555
C11 C7 1_555 1_555
C12 C4 1_555 1_555
C13 H9 1_555 1_555
C14 C13 1_555 1_555
H10 C14 1_555 1_555
C15 C14 1_555 1_555
H11 C15 1_555 1_555
C16 C15 1_555 1_555
C17 C16 1_555 1_555
H12 C17 1_555 1_555
C18 C17 1_555 1_555
H13 C18 1_555 1_555
C19 C18 1_555 1_555
C20 C19 1_555 1_555
H14 C20 1_555 1_555
C21 C20 1_555 1_555
H15 C21 1_555 1_555
C22 C21 1_555 1_555
H16 C22 1_555 1_555
C23 C19 1_555 1_555
C24 C16 1_555 1_555
C25 H17 1_555 1_555
C26 C25 1_555 1_555
H18 C26 1_555 1_555
C27 C26 1_555 1_555
H19 C27 1_555 1_555
C28 C27 1_555 1_555
C29 C28 1_555 1_555
H20 C29 1_555 1_555
C30 C29 1_555 1_555
H21 C30 1_555 1_555
C31 C30 1_555 1_555
C32 C31 1_555 1_555
H22 C32 1_555 1_555
C33 C32 1_555 1_555
H23 C33 1_555 1_555
C34 C33 1_555 1_555
H24 C34 1_555 1_555
C35 C31 1_555 1_555
C36 C28 1_555 1_555
N1 C1 1_555 1_555
N2 Fe1 1_555 1_555
N3 Fe1 1_555 1_555
N4 Fe1 1_555 1_555
N5 Fe1 1_555 1_555
N6 Fe1 1_555 1_555
Pb1A I1A 1_555 1_555
Pb2A I4 1_555 1_555
Pb3A I4 1_555 1_555
Pb3_2 I6 1_555 1_555
I1A Pb1 1_555 1_555
I4A Pb2 1_555 1_555
I4A_2 Pb3 1_555 1_555
I6_2 Pb3 1_555 1_555
I7_2 Pb3 1_555 1_555
Pb2 I4 1_555 1_555
Pb2 I5 1_555 1_555
Pb3 I2 1_555 1_555
I7 Pb3_2 1_555 1_555
C10 N2 1_555 1_555
C11 C12 1_555 1_555
C11 N2 1_555 1_555
C12 N1 1_555 1_555
C13 N3 1_555 1_555
C22 N4 1_555 1_555
C23 C24 1_555 1_555
C23 N4 1_555 1_555
C24 N3 1_555 1_555
C25 N5 1_555 1_555
C34 N6 1_555 1_555
C35 C36 1_555 1_555
C35 N6 1_555 1_555
C36 N5 1_555 1_555
Pb1A I4A_2 1_555 1_555
Pb2A I4A 1_555 1_555
Pb3A I1A 1_555 1_555
Pb3_2 I4A 1_555 1_555

#END
