
#######################################################################
#
#                 Cambridge Crystallographic Data Centre
#                                CCDC 
#
#######################################################################
#
# If this CIF has been generated from an entry in the Cambridge 
# Structural Database, then it will include bibliographic, chemical, 
# crystal, experimental, refinement or atomic coordinate data resulting 
# from the CCDC's data processing and validation procedures.
#
#######################################################################

data_VIPVEW
_symmetry_cell_setting           triclinic
_symmetry_space_group_name_H-M   'P -1'
_symmetry_Int_Tables_number      2
_space_group_name_Hall           '-P 1'
loop_
_symmetry_equiv_pos_site_id
_symmetry_equiv_pos_as_xyz
1 x,y,z
2 -x,-y,-z
_cell_length_a                   11.9869(10)
_cell_length_b                   12.7263(10)
_cell_length_c                   13.6184(11)
_cell_angle_alpha                88.2440(10)
_cell_angle_beta                 75.7960(10)
_cell_angle_gamma                77.0680(10)
_cell_volume                     1962.23
loop_
_atom_site_label
_atom_site_type_symbol
_atom_site_fract_x
_atom_site_fract_y
_atom_site_fract_z
Eu1 Eu 0.605720(15) 0.826980(13) 0.728188(13)
S1 S 0.53987(10) 0.75848(9) 1.00293(8)
O1 O 0.5964(3) 0.7638(2) 0.8947(2)
N1 N 0.7510(3) 0.9240(2) 0.7949(3)
C1 C 0.7685(4) 0.9126(4) 0.8870(3)
H1 H 0.7401 0.8588 0.9264
O2 O 0.5026(3) 0.9871(3) 0.8387(4)
S2 S 0.91386(8) 0.67911(8) 0.70284(8)
N2 N 0.7442(3) 0.9316(2) 0.5957(2)
O3 O 0.4855(3) 0.9710(2) 0.6427(3)
O4 O 0.6281(3) 0.7306(3) 1.0613(2)
C2 C 0.8268(4) 0.9761(4) 0.9293(4)
H2 H 0.8383 0.9635 0.9941
S3 S 0.54871(9) 0.75622(8) 0.47978(7)
N3 N 0.5629(3) 0.6288(2) 0.7384(2)
O5 O 0.4513(3) 0.8546(2) 1.0401(2)
C3 C 0.8663(4) 1.0567(4) 0.8735(4)
H3 H 0.9013 1.1028 0.9012
O7 O 0.7907(2) 0.70928(19) 0.69360(19)
N4 N 0.3833(3) 0.8085(2) 0.7804(2)
C4 C 0.8539(4) 1.0701(3) 0.7742(4)
O9 O 0.9187(3) 0.6554(2) 0.8063(2)
C5 C 0.8982(4) 1.1502(4) 0.7084(5)
H4 H 0.9292 1.2009 0.7344
O11 O 0.9830(2) 0.7541(2) 0.6549(2)
C6 C 0.8957(4) 1.1531(4) 0.6112(5)
H5 H 0.9250 1.2058 0.5707
O12 O 0.6047(2) 0.7569(2) 0.5644(2)
C7 C 0.8490(4) 1.0767(3) 0.5672(4)
O13 O 0.6363(3) 0.7324(2) 0.3849(2)
C8 C 0.8569(4) 1.0692(4) 0.4638(4)
H6 H 0.8931 1.1157 0.4196
O14 O 0.4605(3) 0.8549(2) 0.4786(2)
C9 C 0.8117(4) 0.9938(4) 0.4275(4)
H7 H 0.8187 0.9863 0.3584
C10 C 0.7546(4) 0.9279(3) 0.4968(3)
H8 H 0.7217 0.8782 0.4717
C11 C 0.7945(3) 1.0028(3) 0.6319(3)
C12 C 0.7979(3) 0.9995(3) 0.7360(3)
C13 C 0.6473(4) 0.5407(3) 0.7172(3)
H9 H 0.7249 0.5487 0.6993
C14 C 0.6289(4) 0.4360(3) 0.7197(3)
H10 H 0.6924 0.3768 0.7053
C15 C 0.5156(4) 0.4227(3) 0.7437(3)
H11 H 0.5008 0.3539 0.7454
C16 C 0.4218(4) 0.5132(3) 0.7658(3)
C17 C 0.3015(4) 0.5048(4) 0.7908(3)
H12 H 0.2840 0.4371 0.7926
C18 C 0.2131(4) 0.5927(4) 0.8119(3)
H13 H 0.1353 0.5851 0.8284
C19 C 0.2371(3) 0.6981(3) 0.8092(3)
C20 C 0.1472(4) 0.7920(4) 0.8309(3)
H14 H 0.0684 0.7873 0.8471
C21 C 0.1751(4) 0.8894(4) 0.8284(3)
H15 H 0.1160 0.9520 0.8435
C22 C 0.2944(3) 0.8947(3) 0.8026(3)
H16 H 0.3124 0.9622 0.8009
C23 C 0.3550(3) 0.7100(3) 0.7842(3)
C24 C 0.4496(3) 0.6159(3) 0.7617(3)
C25 C 0.4671(4) 0.6508(3) 1.0129(3)
C26 C 0.3470(4) 0.6760(3) 1.0419(3)
H17 H 0.3066 0.7477 1.0530
C27 C 0.2837(4) 0.5931(3) 1.0551(3)
H18 H 0.2016 0.6102 1.0741
C28 C 0.3429(4) 0.4886(4) 1.0400(3)
H19 H 0.3003 0.4348 1.0516
C29 C 0.5327(3) 0.5413(3) 0.9927(3)
C30 C 0.9723(3) 0.5549(3) 0.6321(3)
C31 C 1.0168(3) 0.4662(3) 0.6803(3)
H20 H 1.0136 0.4706 0.7490
C32 C 1.0677(3) 0.3676(3) 0.6261(3)
H21 H 1.0987 0.3074 0.6595
C33 C 1.0723(3) 0.3592(3) 0.5266(3)
H22 H 1.1067 0.2933 0.4924
C34 C 0.9745(3) 0.5505(3) 0.5266(3)
C35 C 0.4718(3) 0.6504(3) 0.5018(3)
C36 C 0.3519(3) 0.6784(3) 0.5271(3)
H23 H 0.3136 0.7509 0.5350
C37 C 0.2852(3) 0.5987(3) 0.5415(3)
H24 H 0.2032 0.6185 0.5580
C38 C 0.3406(3) 0.4934(3) 0.5315(3)
H25 H 0.2956 0.4415 0.5405
C39 C 0.5346(3) 0.5402(3) 0.4925(3)
Eu1A Eu 0.394280(15) 0.173020(13) 1.271812(13)
Eu1A_2 Eu 1.394280(15) 0.173020(13) 0.271812(13)
Eu1A_3 Eu 0.394280(15) 0.173020(13) 0.271812(13)
S1A S 0.46013(10) 0.24152(9) 0.99707(8)
O1A O 0.4036(3) 0.2362(2) 1.1053(2)
N1A N 0.2490(3) 0.0760(2) 1.2051(3)
C1A C 0.2315(4) 0.0874(4) 1.1130(3)
H1A H 0.2599 0.1412 1.0736
O2A O 0.4974(3) 0.0129(3) 1.1613(4)
S2A S 1.08614(8) 0.32089(8) 0.29716(8)
N2A N 0.2558(3) 0.0684(2) 1.4043(2)
O3A O 0.5145(3) 0.0290(2) 1.3573(3)
O4A O 0.3719(3) 0.2694(3) 0.9387(2)
C2A C 0.1732(4) 0.0239(4) 1.0707(4)
H2A H 0.1617 0.0365 1.0059
S3A S 0.45129(9) 0.24378(8) 0.52022(7)
N3A N 0.4371(3) 0.3712(2) 1.2616(2)
O5A O 0.5487(3) 0.1454(2) 0.9599(2)
C3A C 0.1337(4) -0.0567(4) 1.1265(4)
H3A H 0.0987 -0.1028 1.0988
O7A O 0.2093(2) 0.29072(19) 1.30640(19)
O7A_2 O 1.2093(2) 0.29072(19) 0.30640(19)
N4A N 0.6167(3) 0.1915(2) 1.2196(2)
C4A C 0.1461(4) -0.0701(3) 1.2258(4)
O9A O 1.0813(3) 0.3446(2) 0.1937(2)
C5A C 0.1018(4) -0.1502(4) 1.2916(5)
H4A H 0.0708 -0.2009 1.2656
O11A O 1.0170(2) 0.2459(2) 0.3451(2)
C6A C 0.1043(4) -0.1531(4) 1.3888(5)
H5A H 0.0750 -0.2058 1.4293
O12A O 0.3953(2) 0.2431(2) 1.4356(2)
O12A_2 O 0.3953(2) 0.2431(2) 0.4356(2)
C7A C 0.1510(4) -0.0767(3) 1.4328(4)
O13A O 0.3637(3) 0.2676(2) 0.6151(2)
C8A C 0.1431(4) -0.0692(4) 1.5362(4)
H6A H 0.1069 -0.1157 1.5804
O14A O 0.5395(3) 0.1451(2) 0.5214(2)
C9A C 0.1883(4) 0.0062(4) 1.5725(4)
H7A H 0.1813 0.0137 1.6416
C10A C 0.2454(4) 0.0721(3) 1.5032(3)
H8A H 0.2783 0.1218 1.5283
C11A C 0.2055(3) -0.0028(3) 1.3681(3)
C12A C 0.2021(3) 0.0005(3) 1.2640(3)
C13A C 0.3527(4) 0.4593(3) 1.2828(3)
H9A H 0.2751 0.4513 1.3007
C14A C 0.3711(4) 0.5640(3) 1.2803(3)
H10A H 0.3076 0.6232 1.2947
C15A C 0.4844(4) 0.5773(3) 1.2563(3)
H11A H 0.4992 0.6461 1.2546
C16A C 0.5782(4) 0.4868(3) 1.2342(3)
C17A C 0.6985(4) 0.4952(4) 1.2092(3)
H12A H 0.7160 0.5629 1.2074
C18A C 0.7869(4) 0.4073(4) 1.1881(3)
H13A H 0.8647 0.4149 1.1716
C19A C 0.7629(3) 0.3019(3) 1.1908(3)
C20A C 0.8528(4) 0.2080(4) 1.1691(3)
H14A H 0.9316 0.2127 1.1529
C21A C 0.8249(4) 0.1106(4) 1.1716(3)
H15A H 0.8840 0.0480 1.1565
C22A C 0.7056(3) 0.1053(3) 1.1974(3)
H16A H 0.6876 0.0378 1.1991
C23A C 0.6450(3) 0.2900(3) 1.2158(3)
C24A C 0.5504(3) 0.3841(3) 1.2383(3)
C25A C 0.5329(4) 0.3492(3) 0.9871(3)
C26A C 0.6530(4) 0.3240(3) 0.9581(3)
H17A H 0.6934 0.2523 0.9470
C27A C 0.7163(4) 0.4069(3) 0.9449(3)
H18A H 0.7984 0.3898 0.9259
C28A C 0.6571(4) 0.5114(4) 0.9600(3)
H19A H 0.6997 0.5652 0.9484
C29A C 0.4673(3) 0.4587(3) 1.0073(3)
C30A C 1.0277(3) 0.4451(3) 0.3679(3)
C31A C 0.9832(3) 0.5338(3) 0.3197(3)
H20A H 0.9864 0.5294 0.2510
C32A C 0.9323(3) 0.6324(3) 0.3739(3)
H21A H 0.9013 0.6926 0.3405
C33A C 0.9277(3) 0.6408(3) 0.4734(3)
H22A H 0.8933 0.7067 0.5076
C34A C 1.0255(3) 0.4495(3) 0.4734(3)
C35A C 0.5282(3) 0.3496(3) 0.4982(3)
C36A C 0.6481(3) 0.3216(3) 0.4729(3)
H23A H 0.6864 0.2491 0.4650
C37A C 0.7148(3) 0.4013(3) 0.4585(3)
H24A H 0.7968 0.3815 0.4420
C38A C 0.6594(3) 0.5066(3) 0.4685(3)
H25A H 0.7044 0.5585 0.4595
C39A C 0.4654(3) 0.4598(3) 0.5075(3)
O6 O 0.6824(3) 0.8389(2) 0.2070(2)
O8 O 0.9374(5) 0.7864(5) 0.1257(4)
O10 O 0.9191(6) 0.6100(5) 1.0074(4)
loop_
_geom_bond_atom_site_label_1
_geom_bond_atom_site_label_2
_geom_bond_site_symmetry_1
_geom_bond_site_symmetry_2
Eu1 O1 1_555 1_555
S1 O1 1_555 1_555
N1 Eu1 1_555 1_555
C1 N1 1_555 1_555
H1 C1 1_555 1_555
O2 Eu1 1_555 1_555
S2 O7 1_555 1_555
N2 Eu1 1_555 1_555
O3 Eu1 1_555 1_555
O4 S1 1_555 1_555
C2 C1 1_555 1_555
H2 C2 1_555 1_555
S3 O12 1_555 1_555
N3 Eu1 1_555 1_555
O5 S1 1_555 1_555
C3 C2 1_555 1_555
H3 C3 1_555 1_555
O7 Eu1 1_555 1_555
N4 Eu1 1_555 1_555
C4 C3 1_555 1_555
O9 S2 1_555 1_555
C5 C4 1_555 1_555
H4 C5 1_555 1_555
O11 S2 1_555 1_555
C6 C5 1_555 1_555
H5 C6 1_555 1_555
O12 Eu1 1_555 1_555
C7 C6 1_555 1_555
O13 S3 1_555 1_555
C8 C7 1_555 1_555
H6 C8 1_555 1_555
O14 S3 1_555 1_555
C9 C8 1_555 1_555
H7 C9 1_555 1_555
C10 N2 1_555 1_555
H8 C10 1_555 1_555
C11 N2 1_555 1_555
C12 N1 1_555 1_555
C13 N3 1_555 1_555
H9 C13 1_555 1_555
C14 C13 1_555 1_555
H10 C14 1_555 1_555
C15 C14 1_555 1_555
H11 C15 1_555 1_555
C16 C15 1_555 1_555
C17 C16 1_555 1_555
H12 C17 1_555 1_555
C18 C17 1_555 1_555
H13 C18 1_555 1_555
C19 C18 1_555 1_555
C20 C19 1_555 1_555
H14 C20 1_555 1_555
C21 C20 1_555 1_555
H15 C21 1_555 1_555
C22 N4 1_555 1_555
H16 C22 1_555 1_555
C23 N4 1_555 1_555
C24 N3 1_555 1_555
C25 S1 1_555 1_555
C26 C25 1_555 1_555
H17 C26 1_555 1_555
C27 C26 1_555 1_555
H18 C27 1_555 1_555
C28 C27 1_555 1_555
H19 C28 1_555 1_555
C29 C25 1_555 1_555
C30 S2 1_555 1_555
C31 C30 1_555 1_555
H20 C31 1_555 1_555
C32 C31 1_555 1_555
H21 C32 1_555 1_555
C33 C32 1_555 1_555
H22 C33 1_555 1_555
C34 C30 1_555 1_555
C35 S3 1_555 1_555
C36 C35 1_555 1_555
H23 C36 1_555 1_555
C37 C36 1_555 1_555
H24 C37 1_555 1_555
C38 C37 1_555 1_555
H25 C38 1_555 1_555
C39 C35 1_555 1_555
Eu1A O1A 1_555 1_555
Eu1A_2 O7A_2 1_555 1_555
Eu1A_3 O12A_2 1_555 1_555
S1A O1A 1_555 1_555
N1A Eu1A 1_555 1_555
C1A N1A 1_555 1_555
H1A C1A 1_555 1_555
O2A Eu1A 1_555 1_555
S2A O7A_2 1_555 1_555
N2A Eu1A 1_555 1_555
O3A Eu1A 1_555 1_555
O4A S1A 1_555 1_555
C2A C1A 1_555 1_555
H2A C2A 1_555 1_555
S3A O12A_2 1_555 1_555
N3A Eu1A 1_555 1_555
O5A S1A 1_555 1_555
C3A C2A 1_555 1_555
H3A C3A 1_555 1_555
O7A Eu1A 1_555 1_555
N4A Eu1A 1_555 1_555
C4A C3A 1_555 1_555
O9A S2A 1_555 1_555
C5A C4A 1_555 1_555
H4A C5A 1_555 1_555
O11A S2A 1_555 1_555
C6A C5A 1_555 1_555
H5A C6A 1_555 1_555
O12A Eu1A 1_555 1_555
C7A C6A 1_555 1_555
O13A S3A 1_555 1_555
C8A C7A 1_555 1_555
H6A C8A 1_555 1_555
O14A S3A 1_555 1_555
C9A C8A 1_555 1_555
H7A C9A 1_555 1_555
C10A N2A 1_555 1_555
H8A C10A 1_555 1_555
C11A N2A 1_555 1_555
C12A N1A 1_555 1_555
C13A N3A 1_555 1_555
H9A C13A 1_555 1_555
C14A C13A 1_555 1_555
H10A C14A 1_555 1_555
C15A C14A 1_555 1_555
H11A C15A 1_555 1_555
C16A C15A 1_555 1_555
C17A C16A 1_555 1_555
H12A C17A 1_555 1_555
C18A C17A 1_555 1_555
H13A C18A 1_555 1_555
C19A C18A 1_555 1_555
C20A C19A 1_555 1_555
H14A C20A 1_555 1_555
C21A C20A 1_555 1_555
H15A C21A 1_555 1_555
C22A N4A 1_555 1_555
H16A C22A 1_555 1_555
C23A N4A 1_555 1_555
C24A N3A 1_555 1_555
C25A S1A 1_555 1_555
C26A C25A 1_555 1_555
H17A C26A 1_555 1_555
C27A C26A 1_555 1_555
H18A C27A 1_555 1_555
C28A C29 1_555 1_555
H19A C28A 1_555 1_555
C29A C28 1_555 1_555
C30A S2A 1_555 1_555
C31A C30A 1_555 1_555
H20A C31A 1_555 1_555
C32A C31A 1_555 1_555
H21A C32A 1_555 1_555
C33A C34 1_555 1_555
H22A C33A 1_555 1_555
C34A C33 1_555 1_555
C35A S3A 1_555 1_555
C36A C35A 1_555 1_555
H23A C36A 1_555 1_555
C37A C36A 1_555 1_555
H24A C37A 1_555 1_555
C38A C39 1_555 1_555
H25A C38A 1_555 1_555
C39A C38 1_555 1_555
C4 C12 1_555 1_555
C7 C11 1_555 1_555
C9 C10 1_555 1_555
C11 C12 1_555 1_555
C16 C24 1_555 1_555
C19 C23 1_555 1_555
C21 C22 1_555 1_555
C23 C24 1_555 1_555
C29 C29A 1_555 1_555
C34 C34A 1_555 1_555
C39 C39A 1_555 1_555
C4A C12A 1_555 1_555
C7A C11A 1_555 1_555
C9A C10A 1_555 1_555
C11A C12A 1_555 1_555
C16A C24A 1_555 1_555
C19A C23A 1_555 1_555
C21A C22A 1_555 1_555
C23A C24A 1_555 1_555
C25A C29A 1_555 1_555
C27A C28A 1_555 1_555
C30A C34A 1_555 1_555
C32A C33A 1_555 1_555
C35A C39A 1_555 1_555
C37A C38A 1_555 1_555

#END
