
#######################################################################
#
#                 Cambridge Crystallographic Data Centre
#                                CCDC 
#
#######################################################################
#
# If this CIF has been generated from an entry in the Cambridge 
# Structural Database, then it will include bibliographic, chemical, 
# crystal, experimental, refinement or atomic coordinate data resulting 
# from the CCDC's data processing and validation procedures.
#
#######################################################################

data_VIPYOK
_symmetry_cell_setting           monoclinic
_symmetry_space_group_name_H-M   'P 21/c'
_symmetry_Int_Tables_number      14
_space_group_name_Hall           '-P 2ybc'
loop_
_symmetry_equiv_pos_site_id
_symmetry_equiv_pos_as_xyz
1 x,y,z
2 -x,1/2+y,1/2-z
3 -x,-y,-z
4 x,1/2-y,1/2+z
_cell_length_a                   10.791(2)
_cell_length_b                   7.8773(16)
_cell_length_c                   19.708(4)
_cell_angle_alpha                90
_cell_angle_beta                 93.01(3)
_cell_angle_gamma                90
_cell_volume                     1672.95
loop_
_atom_site_label
_atom_site_type_symbol
_atom_site_fract_x
_atom_site_fract_y
_atom_site_fract_z
Mn1 Mn 0.69012(6) 0.42007(8) 0.01587(3)
Mn2 Mn 0.70878(6) 0.35718(8) 0.23005(3)
O1 O 1.1526(3) 0.7619(4) 0.33688(15)
O2 O 0.7424(3) 0.6812(4) -0.01036(18)
H1 H 0.7964 0.7432 0.0105
H2 H 0.7022 0.7540 -0.0345
O3 O 1.1443(3) 0.9352(4) 0.42541(16)
O4 O 0.6499(3) 0.1529(4) 0.05044(17)
H3 H 0.5783 0.1327 0.0645
H4 H 0.7044 0.0963 0.0735
O5 O 0.5583(3) 0.4665(4) 0.29139(13)
O6 O 0.3902(3) 0.6271(4) 0.29257(13)
O7 O 0.2145(2) 0.7492(4) 0.17803(14)
O8 O 0.2151(3) 0.6968(4) 0.06774(14)
N1 N 0.5711(3) 0.4871(4) 0.15705(16)
N2 N 0.5527(3) 0.5016(4) 0.09003(16)
N3 N 0.4435(3) 0.5739(4) 0.07455(16)
N4 N 0.8126(3) 0.5953(5) 0.24732(19)
N5 N 0.9009(3) 0.8065(5) 0.3047(2)
C1 C 0.4714(4) 0.5503(5) 0.2624(2)
C2 C 0.4707(3) 0.5546(5) 0.18596(19)
C3 C 0.3897(4) 0.6103(5) 0.13354(19)
C4 C 0.2641(4) 0.6921(5) 0.1275(2)
C5 C 1.0972(4) 0.8588(5) 0.3749(2)
C6 C 0.9622(4) 0.8996(6) 0.3606(2)
H5 H 0.9184 0.8773 0.4015
H6 H 0.9547 1.0201 0.3510
C7 C 0.8669(5) 0.8685(6) 0.2420(3)
H7 H 0.8791 0.9781 0.2262
C8 C 0.8120(5) 0.7387(6) 0.2074(3)
H8 H 0.7786 0.7452 0.1630
C9 C 0.8667(4) 0.6428(6) 0.3054(2)
H9 H 0.8799 0.5713 0.3426
Mn1A Mn 1.30988(6) 0.92007(8) 0.48413(3)
Mn1B Mn 0.30988(6) 0.57993(8) -0.01587(3)
Mn2A Mn 0.29122(6) 0.85718(8) 0.26995(3)
Mn2A_2 Mn 1.29122(6) 0.85718(8) 0.26995(3)
O1A O 0.8474(3) 0.2619(4) 0.16312(15)
O3A O 0.8557(3) 0.4352(4) 0.07459(16)
O6A O 0.6098(3) 0.1271(4) 0.20743(13)
O7A O 0.7855(2) 0.2492(4) 0.32197(14)
O8B O 0.7849(3) 0.3032(4) -0.06774(14)
N3B N 0.5565(3) 0.4261(4) -0.07455(16)
O9 O -0.0284(5) 0.8400(7) 0.0416(4)
H10 H 0.0214 0.9233 0.0396
H11 H 0.0405 0.7894 0.0379
O10 O 0.5956(3) 0.9360(4) 0.92673(16)
H12 H 0.5850 0.9632 0.8851
H13 H 0.6446 1.0082 0.9458
loop_
_geom_bond_atom_site_label_1
_geom_bond_atom_site_label_2
_geom_bond_site_symmetry_1
_geom_bond_site_symmetry_2
Mn1 O2 1_555 1_555
Mn2 O5 1_555 1_555
O1 C5 1_555 1_555
O2 H1 1_555 1_555
H2 O2 1_555 1_555
O3 C5 1_555 1_555
O4 Mn1 1_555 1_555
H3 O4 1_555 1_555
H4 O4 1_555 1_555
O5 C1 1_555 1_555
O6 C1 1_555 1_555
O7 C4 1_555 1_555
O8 C4 1_555 1_555
N1 Mn2 1_555 1_555
N2 Mn1 1_555 1_555
N3 N2 1_555 1_555
N4 Mn2 1_555 1_555
N5 C6 1_555 1_555
C1 C2 1_555 1_555
C2 N1 1_555 1_555
C3 N3 1_555 1_555
C4 C3 1_555 1_555
C5 C6 1_555 1_555
C6 H5 1_555 1_555
H6 C6 1_555 1_555
C7 N5 1_555 1_555
H7 C7 1_555 1_555
C8 N4 1_555 1_555
H8 C8 1_555 1_555
C9 N4 1_555 1_555
H9 C9 1_555 1_555
O9 H10 1_555 1_555
H11 O9 1_555 1_555
O10 H12 1_555 1_555
H13 O10 1_555 1_555
Mn1A O3 1_555 1_555
Mn1B O8 1_555 1_555
Mn2A O6 1_555 1_555
Mn2A_2 O1 1_555 1_555
O1A Mn2 1_555 1_555
O3A Mn1 1_555 1_555
O6A Mn2 1_555 1_555
O7A Mn2 1_555 1_555
O8B Mn1 1_555 1_555
N3B Mn1 1_555 1_555
O7 Mn2A 1_555 1_555
N1 N2 1_555 1_555
N3 Mn1B 1_555 1_555
N5 C9 1_555 1_555
C2 C3 1_555 1_555
C7 C8 1_555 1_555

#END
