
#######################################################################
#
#                 Cambridge Crystallographic Data Centre
#                                CCDC 
#
#######################################################################
#
# If this CIF has been generated from an entry in the Cambridge 
# Structural Database, then it will include bibliographic, chemical, 
# crystal, experimental, refinement or atomic coordinate data resulting 
# from the CCDC's data processing and validation procedures.
#
#######################################################################

data_VIQBUS
_symmetry_cell_setting           monoclinic
_symmetry_space_group_name_H-M   'P 21/n'
_symmetry_Int_Tables_number      14
_space_group_name_Hall           '-P 2yn'
loop_
_symmetry_equiv_pos_site_id
_symmetry_equiv_pos_as_xyz
1 x,y,z
2 1/2-x,1/2+y,1/2-z
3 -x,-y,-z
4 1/2+x,1/2-y,1/2+z
_cell_length_a                   7.891(1)
_cell_length_b                   17.172(3)
_cell_length_c                   18.576(4)
_cell_angle_alpha                90
_cell_angle_beta                 97.72(1)
_cell_angle_gamma                90
_cell_volume                     2494.31
loop_
_atom_site_label
_atom_site_type_symbol
_atom_site_fract_x
_atom_site_fract_y
_atom_site_fract_z
Cd1 Cd 0.74249(4) -0.13692(2) 0.16767(2)
O1 O 1.0088(6) -0.1275(3) 0.1198(2)
O2 O 0.9060(6) -0.0204(3) 0.1572(3)
O3 O -0.3597(7) -0.4815(4) -0.3924(4)
O4 O 0.5571(5) -0.0484(2) 0.2152(2)
O5 O 0.4712(5) -0.1671(2) 0.2185(2)
O6 O -1.1667(6) -0.4229(3) -0.2336(3)
N1 N 0.5822(5) -0.1249(2) 0.0531(2)
N2 N 0.0567(5) -0.2003(3) -0.0890(2)
N3 N -0.1015(6) -0.2352(3) -0.0795(2)
N4 N -0.6076(5) -0.3416(2) -0.2143(2)
N5 N -0.7331(5) -0.2278(2) -0.3433(2)
N6 N -0.5336(7) -0.0100(3) -0.4677(3)
N7 N 1.0221(6) -0.0539(3) 0.1278(3)
N8 N 0.4505(6) -0.0970(3) 0.2340(2)
C1 C 0.6409(7) -0.0918(3) -0.0046(3)
C2 C 0.5421(7) -0.0840(4) -0.0719(3)
C3 C 0.3795(7) -0.1132(3) -0.0813(3)
C4 C 0.3142(6) -0.1489(3) -0.0233(3)
C5 C 0.4190(6) -0.1522(3) 0.0422(3)
C6 C 0.1442(7) -0.1839(4) -0.0285(3)
C7 C -0.1896(7) -0.2529(4) -0.1396(3)
C8 C -0.3604(6) -0.2883(3) -0.1407(3)
C9 C -0.4351(7) -0.3028(4) -0.0789(3)
C10 C -0.5950(8) -0.3357(4) -0.0844(3)
C11 C -0.6774(7) -0.3570(3) -0.1526(3)
C12 C -1.9510(6) -0.1908(3) -0.7063(3)
C13 C -0.7688(7) -0.1823(3) -0.2891(3)
C14 C -0.7399(9) -0.1034(3) -0.2882(3)
C15 C -0.6735(9) -0.0693(3) -0.3453(3)
C16 C -0.6386(7) -0.1154(3) -0.4028(3)
C17 C -0.6688(6) -0.1946(3) -0.3986(3)
C18 C -0.5678(7) -0.0829(3) -0.4658(3)
H1 H -0.7436 -0.4269 -0.4995
H2 H -0.9140 -0.4416 -0.6118
H3 H -1.1884 -0.3889 -0.6281
H4 H 0.3731 -0.1747 0.0831
H5 H -1.4023 -0.3050 -0.4849
H6 H -1.6451 -0.2564 -0.6839
H7 H -1.8736 -0.2117 -0.5326
H8 H -2.1495 -0.1535 -0.5418
H9 H -2.2889 -0.1231 -0.6557
H10 H -1.8991 -0.2002 -0.7493
H11 H -0.1840 0.2061 -0.7500
H12 H -0.2362 0.0727 -0.7525
H13 H -0.3490 0.0138 -0.6544
H14 H -0.6427 -0.2274 -0.4376
H15 H -0.4530 0.1164 -0.4944
N5C N 0.7669(5) -0.2722(2) 0.1567(2)
Cd1C Cd -0.75751(4) -0.36308(2) -0.33233(2)
O1C O -0.4912(6) -0.3725(3) -0.3802(2)
N7C N -0.4779(6) -0.4461(3) -0.3722(3)
O2C O -0.5940(6) -0.4796(3) -0.3428(3)
O4C O -0.9429(5) -0.4516(2) -0.2848(2)
N8C N -1.0495(6) -0.4030(3) -0.2660(2)
O5C O -1.0288(5) -0.3329(2) -0.2815(2)
N1C N -0.9178(5) -0.3751(2) -0.4469(2)
C1C C -0.8591(7) -0.4082(3) -0.5046(3)
C2C C -0.9579(7) -0.4160(4) -0.5719(3)
C3C C -1.1205(7) -0.3868(3) -0.5813(3)
C4C C -1.1858(6) -0.3511(3) -0.5233(3)
C5C C -1.0810(6) -0.3478(3) -0.4578(3)
H4C H -1.1269 -0.3253 -0.4169
C6C C -1.3558(7) -0.3161(4) -0.5285(3)
N2C N -1.4433(5) -0.2997(3) -0.5890(2)
N3C N -1.6015(6) -0.2648(3) -0.5795(2)
C7C C -1.6896(7) -0.2471(4) -0.6396(3)
C8C C -1.8604(6) -0.2117(3) -0.6407(3)
C9C C -1.9351(7) -0.1972(4) -0.5789(3)
C10C C -2.0950(8) -0.1643(4) -0.5844(3)
C11C C -2.1774(7) -0.1430(3) -0.6526(3)
N4C N -2.1076(5) -0.1584(2) -0.7143(2)
Cd1_2 Cd -2.25751(4) -0.13692(2) -0.83233(2)
N6B N -0.4664(7) 0.0100(3) -0.5323(3)
C18B C -0.4322(7) 0.0829(3) -0.5342(3)
C16B C -0.3614(7) 0.1154(3) -0.5972(3)
C15B C -0.3265(9) 0.0693(3) -0.6547(3)
C14B C -0.2601(9) 0.1034(3) -0.7118(3)
C13B C -0.2312(7) 0.1823(3) -0.7109(3)
N5B N -0.2669(5) 0.2278(2) -0.6567(2)
Cd1A Cd -0.24249(4) 0.36308(2) -0.66767(2)
C17B C -0.3312(6) 0.1946(3) -0.6014(3)
H14B H -0.3573 0.2274 -0.5624
H15B H -0.5470 -0.1164 -0.5056
H13B H -0.6510 -0.0138 -0.3456
H12B H -0.7638 -0.0727 -0.2475
H11B H -0.8160 -0.2061 -0.2500
C12C C -0.4510(6) -0.3092(3) -0.2063(3)
H10C H -0.3991 -0.2998 -0.2493
H9C H -0.7889 -0.3769 -0.1557
H8C H -0.6495 -0.3465 -0.0418
H7C H -0.3736 -0.2883 -0.0326
H6C H -0.1451 -0.2436 -0.1839
H5C H 0.0977 -0.1950 0.0151
H3C H 0.3116 -0.1111 -0.1281
H2C H 0.5860 -0.0584 -0.1118
H1C H 0.7564 -0.0731 0.0005
N4C_2 N 0.8924(5) -0.1584(2) 0.2857(2)
O6C O 0.3333(6) -0.0771(3) 0.2664(3)
O3C O 1.1403(7) -0.0185(4) 0.1076(4)
Cl1 Cl -1.2921(4) -0.6650(2) -1.1552(2)
Cl2 Cl -1.4048(4) -0.5251(2) -1.0927(2)
C19 C -1.314(1) -0.5670(6) -1.1669(6)
H16 H -1.2040 -0.5445 -1.1690
H17 H -1.3857 -0.5567 -1.2109
loop_
_geom_bond_atom_site_label_1
_geom_bond_atom_site_label_2
_geom_bond_site_symmetry_1
_geom_bond_site_symmetry_2
Cd1 O1 1_555 1_555
Cl1 C19 1_555 1_555
Cl2 C19 1_555 1_555
O1 N7 1_555 1_555
O2 Cd1 1_555 1_555
O3 N7C 1_555 1_555
O4 Cd1 1_555 1_555
O5 Cd1 1_555 1_555
O6 N8C 1_555 1_555
N1 Cd1 1_555 1_555
N2 N3 1_555 1_555
N3 C7 1_555 1_555
N4 C11 1_555 1_555
N5 C13 1_555 1_555
N6 C18 1_555 1_555
N7 O2 1_555 1_555
N8 O4 1_555 1_555
C1 N1 1_555 1_555
C2 C1 1_555 1_555
C3 C2 1_555 1_555
C4 C3 1_555 1_555
C5 N1 1_555 1_555
C6 N2 1_555 1_555
C7 C8 1_555 1_555
C8 C9 1_555 1_555
C9 C10 1_555 1_555
C10 C11 1_555 1_555
C11 H9C 1_555 1_555
C12 H10 1_555 1_555
C13 C14 1_555 1_555
C14 C15 1_555 1_555
C15 C16 1_555 1_555
C16 C17 1_555 1_555
C17 N5 1_555 1_555
C18 C16 1_555 1_555
C19 H16 1_555 1_555
H1 C1C 1_555 1_555
H2 C2C 1_555 1_555
H3 C3C 1_555 1_555
H4 C5 1_555 1_555
H5 C6C 1_555 1_555
H6 C7C 1_555 1_555
H7 C9C 1_555 1_555
H8 C10C 1_555 1_555
H9 C11C 1_555 1_555
H11 C13B 1_555 1_555
H12 C14B 1_555 1_555
H13 C15B 1_555 1_555
H14 C17 1_555 1_555
H15 C18B 1_555 1_555
H17 C19 1_555 1_555
N5C Cd1 1_555 1_555
Cd1C N4 1_555 1_555
O1C Cd1C 1_555 1_555
N7C O1C 1_555 1_555
O2C Cd1C 1_555 1_555
O4C Cd1C 1_555 1_555
N8C O4C 1_555 1_555
O5C Cd1C 1_555 1_555
N1C Cd1C 1_555 1_555
C1C N1C 1_555 1_555
C2C C1C 1_555 1_555
C3C C2C 1_555 1_555
C4C C3C 1_555 1_555
C5C N1C 1_555 1_555
H4C C5C 1_555 1_555
C6C C4C 1_555 1_555
N2C C6C 1_555 1_555
N3C N2C 1_555 1_555
C7C N3C 1_555 1_555
C8C C12 1_555 1_555
C9C C8C 1_555 1_555
C10C C9C 1_555 1_555
C11C C10C 1_555 1_555
N4C C12 1_555 1_555
Cd1_2 N4C 1_555 1_555
N6B N6 1_555 1_555
C18B N6B 1_555 1_555
C16B C18B 1_555 1_555
C15B C16B 1_555 1_555
C14B C15B 1_555 1_555
C13B C14B 1_555 1_555
N5B C13B 1_555 1_555
Cd1A N5B 1_555 1_555
C17B C16B 1_555 1_555
H14B C17B 1_555 1_555
H15B C18 1_555 1_555
H13B C15 1_555 1_555
H12B C14 1_555 1_555
H11B C13 1_555 1_555
C12C N4 1_555 1_555
H10C C12C 1_555 1_555
H8C C10 1_555 1_555
H7C C9 1_555 1_555
H6C C7 1_555 1_555
H5C C6 1_555 1_555
H3C C3 1_555 1_555
H2C C2 1_555 1_555
H1C C1 1_555 1_555
N4C_2 Cd1 1_555 1_555
O6C N8 1_555 1_555
O3C N7 1_555 1_555
O5 N8 1_555 1_555
N5 Cd1C 1_555 1_555
C4 C5 1_555 1_555
C4 C6 1_555 1_555
C8 C12C 1_555 1_555
N7C O2C 1_555 1_555
N8C O5C 1_555 1_555
C4C C5C 1_555 1_555
C7C C8C 1_555 1_555
C11C N4C 1_555 1_555
N5B C17B 1_555 1_555

#END
