
#######################################################################
#
#                 Cambridge Crystallographic Data Centre
#                                CCDC 
#
#######################################################################
#
# If this CIF has been generated from an entry in the Cambridge 
# Structural Database, then it will include bibliographic, chemical, 
# crystal, experimental, refinement or atomic coordinate data resulting 
# from the CCDC's data processing and validation procedures.
#
#######################################################################

data_VIQCAZ
_symmetry_cell_setting           monoclinic
_symmetry_space_group_name_H-M   'P 21/n'
_symmetry_Int_Tables_number      14
_space_group_name_Hall           '-P 2yn'
loop_
_symmetry_equiv_pos_site_id
_symmetry_equiv_pos_as_xyz
1 x,y,z
2 1/2-x,1/2+y,1/2-z
3 -x,-y,-z
4 1/2+x,1/2-y,1/2+z
_cell_length_a                   7.7954(8)
_cell_length_b                   17.026(3)
_cell_length_c                   18.412(3)
_cell_angle_alpha                90
_cell_angle_beta                 97.89(1)
_cell_angle_gamma                90
_cell_volume                     2420.59
loop_
_atom_site_label
_atom_site_type_symbol
_atom_site_fract_x
_atom_site_fract_y
_atom_site_fract_z
Co1 Co -1.75311(8) 0.85556(4) -1.16876(3)
O1 O -1.5815(5) 0.9473(2) -1.2047(2)
O2 O -1.5041(5) 0.8294(2) -1.2168(2)
O3 O 0.1472(6) 0.5776(3) -0.7563(3)
O4 O -1.9930(5) 0.8614(2) -1.1213(2)
O5 O -1.9042(6) 0.9700(3) -1.1604(3)
O6 O -0.6343(6) 0.5319(3) -0.6043(3)
N1 N -1.6058(5) 0.8670(2) -1.0592(2)
N2 N -1.0700(6) 0.7980(3) -0.9129(2)
N3 N -0.9105(6) 0.7616(3) -0.9203(2)
N4 N -0.3967(5) 0.6583(2) -0.7791(2)
N5 N -0.2707(5) 0.7692(2) -0.6596(2)
N6 N -0.4676(7) 0.9901(3) -0.5326(2)
N7 N -1.4743(6) 0.9011(3) -1.2260(2)
N8 N -2.0160(6) 0.9354(3) -1.1285(3)
C1 C -1.6607(7) 0.9053(3) -1.0037(3)
C2 C -1.5571(8) 0.9182(4) -0.9366(3)
C3 C -1.3951(8) 0.8880(4) -0.9258(3)
C4 C -1.3324(7) 0.8459(3) -0.9816(3)
C5 C -1.4423(7) 0.8379(3) -1.0474(3)
C6 C -1.1622(7) 0.8101(4) -0.9738(3)
C7 C -0.8217(7) 0.7460(4) -0.8594(3)
C8 C -0.6486(6) 0.7086(3) -0.8567(3)
C9 C -0.5739(7) 0.6925(4) -0.9175(3)
C10 C -0.4111(8) 0.6585(4) -0.9102(3)
C11 C -0.3281(7) 0.6427(3) -0.8403(3)
C12 C 0.9439(7) 0.8091(3) -0.2873(3)
C13 C -0.3320(6) 0.8036(3) -0.6027(3)
C14 C -0.3646(7) 0.8833(3) -0.5992(3)
C15 C -0.4334(7) 0.9169(3) -0.5355(3)
C16 C -0.6691(8) 1.0701(3) -0.3424(3)
C17 C -0.7332(8) 1.1043(3) -0.2841(3)
C18 C -0.7634(7) 1.1839(3) -0.2847(3)
H1 H -0.2744 0.5730 -0.5110
H2 H -0.1018 0.5540 -0.3987
H3 H 0.1746 0.6058 -0.3795
H4 H -1.4003 0.8104 -1.0863
H5 H 0.3824 0.7070 -0.5170
H6 H 0.6342 0.7417 -0.3152
H7 H 0.8660 0.7983 -0.4656
H8 H 1.1421 0.8534 -0.4522
H9 H 1.2830 0.8807 -0.3358
H10 H 0.8918 0.7984 -0.2450
H11 H -0.6451 1.2286 -0.4370
H12 H -0.5490 1.1162 -0.5036
H13 H -0.6475 1.0147 -0.3427
H14 H -0.7543 1.0732 -0.2431
H15 H -0.8121 1.2067 -0.2450
N5C N -1.7707(5) 0.7308(2) -1.1596(2)
Co1C Co -0.25311(8) 0.64444(4) -0.66876(3)
O1C O -0.0815(5) 0.5527(2) -0.7047(2)
N7C N 0.0257(6) 0.5989(3) -0.7260(2)
O2C O -0.0041(5) 0.6706(2) -0.7168(2)
O4C O -0.4930(5) 0.6386(2) -0.6213(2)
N8C N -0.5160(6) 0.5646(3) -0.6285(3)
O5C O -0.4042(6) 0.5300(3) -0.6604(3)
N1C N -0.1058(5) 0.6330(2) -0.5592(2)
C1C C -0.1607(7) 0.5947(3) -0.5037(3)
C2C C -0.0571(8) 0.5818(4) -0.4366(3)
C3C C 0.1049(8) 0.6120(4) -0.4258(3)
C4C C 0.1676(7) 0.6541(3) -0.4816(3)
C5C C 0.0577(7) 0.6621(3) -0.5474(3)
H4C H 0.0997 0.6896 -0.5863
C6C C 0.3378(7) 0.6899(4) -0.4738(3)
N2C N 0.4300(6) 0.7020(3) -0.4129(2)
N3C N 0.5895(6) 0.7384(3) -0.4203(2)
C7C C 0.6783(7) 0.7540(4) -0.3594(3)
C8C C 0.8514(6) 0.7914(3) -0.3567(3)
C9C C 0.9261(7) 0.8075(4) -0.4175(3)
C10C C 1.0889(8) 0.8415(4) -0.4102(3)
C11C C 1.1719(7) 0.8573(3) -0.3403(3)
N4C N 1.1033(5) 0.8417(2) -0.2791(2)
Co1_2 Co 1.24689(8) 0.85556(4) -0.16876(3)
N6B N -0.5324(7) 1.0099(3) -0.4674(2)
C15B C -0.5666(7) 1.0831(3) -0.4645(3)
C14B C -0.6354(7) 1.1167(3) -0.4008(3)
C13B C -0.6680(6) 1.1964(3) -0.3973(3)
N5B N -0.7293(5) 1.2308(2) -0.3404(2)
Co1A Co -0.74689(8) 1.35556(4) -0.33124(3)
H12B H -0.4510 0.8838 -0.4964
C16B C -0.3309(8) 0.9299(3) -0.6576(3)
C17B C -0.2668(8) 0.8957(3) -0.7159(3)
C18B C -0.2366(7) 0.8161(3) -0.7153(3)
H15B H -0.1879 0.7933 -0.7550
H14B H -0.2457 0.9268 -0.7569
H13B H -0.3525 0.9853 -0.6573
H11B H -0.3549 0.7714 -0.5630
C12C C -0.5561(7) 0.6909(3) -0.7873(3)
H10C H -0.6082 0.7016 -0.7450
H9C H -0.2170 0.6193 -0.8358
H8C H -0.3579 0.6466 -0.9522
H7C H -0.6340 0.7017 -0.9656
H6C H -0.8658 0.7583 -0.8152
H5C H -1.1176 0.7930 -1.0170
H3C H -1.3254 0.8942 -0.8795
H2C H -1.6018 0.9460 -0.8987
H1C H -1.7744 0.9270 -1.0110
N4C_2 N -1.8967(5) 0.8417(2) -1.2791(2)
O6C O -2.1343(6) 0.9681(3) -1.1043(3)
O3C O -1.3528(6) 0.9224(3) -1.2563(3)
Cl1 Cl 0.4101(4) 0.4679(3) 0.0870(2)
Cl2 Cl 0.2923(4) 0.3413(2) 0.1653(2)
C19 C 0.327(1) 0.4439(8) 0.1664(7)
H16 H 0.2145 0.4694 0.1707
H17 H 0.4004 0.4577 0.2116
loop_
_geom_bond_atom_site_label_1
_geom_bond_atom_site_label_2
_geom_bond_site_symmetry_1
_geom_bond_site_symmetry_2
Co1 O1 1_555 1_555
Cl1 C19 1_555 1_555
Cl2 C19 1_555 1_555
O1 N7 1_555 1_555
O2 Co1 1_555 1_555
O3 N7C 1_555 1_555
O4 Co1 1_555 1_555
O5 Co1 1_555 1_555
O6 N8C 1_555 1_555
N1 Co1 1_555 1_555
N2 N3 1_555 1_555
N3 C7 1_555 1_555
N4 C11 1_555 1_555
N5 C13 1_555 1_555
N6 C15 1_555 1_555
N7 O2 1_555 1_555
N8 O4 1_555 1_555
C1 N1 1_555 1_555
C2 C1 1_555 1_555
C3 C2 1_555 1_555
C4 C3 1_555 1_555
C5 N1 1_555 1_555
C6 N2 1_555 1_555
C7 C8 1_555 1_555
C8 C9 1_555 1_555
C9 C10 1_555 1_555
C10 C11 1_555 1_555
C11 H9C 1_555 1_555
C12 H10 1_555 1_555
C13 C14 1_555 1_555
C14 C15 1_555 1_555
C15 H12B 1_555 1_555
C16 C17 1_555 1_555
C17 C18 1_555 1_555
C18 H15 1_555 1_555
C19 H16 1_555 1_555
H1 C1C 1_555 1_555
H2 C2C 1_555 1_555
H3 C3C 1_555 1_555
H4 C5 1_555 1_555
H5 C6C 1_555 1_555
H6 C7C 1_555 1_555
H7 C9C 1_555 1_555
H8 C10C 1_555 1_555
H9 C11C 1_555 1_555
H11 C13B 1_555 1_555
H12 C15B 1_555 1_555
H13 C16 1_555 1_555
H14 C17 1_555 1_555
H17 C19 1_555 1_555
N5C Co1 1_555 1_555
Co1C N4 1_555 1_555
O1C Co1C 1_555 1_555
N7C O1C 1_555 1_555
O2C Co1C 1_555 1_555
O4C Co1C 1_555 1_555
N8C O4C 1_555 1_555
O5C Co1C 1_555 1_555
N1C Co1C 1_555 1_555
C1C N1C 1_555 1_555
C2C C1C 1_555 1_555
C3C C2C 1_555 1_555
C4C C3C 1_555 1_555
C5C N1C 1_555 1_555
H4C C5C 1_555 1_555
C6C C4C 1_555 1_555
N2C C6C 1_555 1_555
N3C N2C 1_555 1_555
C7C N3C 1_555 1_555
C8C C12 1_555 1_555
C9C C8C 1_555 1_555
C10C C9C 1_555 1_555
C11C C10C 1_555 1_555
N4C C12 1_555 1_555
Co1_2 N4C 1_555 1_555
N6B N6 1_555 1_555
C15B N6B 1_555 1_555
C14B C16 1_555 1_555
C13B C14B 1_555 1_555
N5B C18 1_555 1_555
Co1A N5B 1_555 1_555
C16B C14 1_555 1_555
C17B C16B 1_555 1_555
C18B N5 1_555 1_555
H15B C18B 1_555 1_555
H14B C17B 1_555 1_555
H13B C16B 1_555 1_555
H11B C13 1_555 1_555
C12C N4 1_555 1_555
H10C C12C 1_555 1_555
H8C C10 1_555 1_555
H7C C9 1_555 1_555
H6C C7 1_555 1_555
H5C C6 1_555 1_555
H3C C3 1_555 1_555
H2C C2 1_555 1_555
H1C C1 1_555 1_555
N4C_2 Co1 1_555 1_555
O6C N8 1_555 1_555
O3C N7 1_555 1_555
O5 N8 1_555 1_555
N5 Co1C 1_555 1_555
C4 C5 1_555 1_555
C4 C6 1_555 1_555
C8 C12C 1_555 1_555
N7C O2C 1_555 1_555
N8C O5C 1_555 1_555
C4C C5C 1_555 1_555
C7C C8C 1_555 1_555
C11C N4C 1_555 1_555
C15B C14B 1_555 1_555
C13B N5B 1_555 1_555
C17B C18B 1_555 1_555

#END
