
#######################################################################
#
#                 Cambridge Crystallographic Data Centre
#                                CCDC 
#
#######################################################################
#
# If this CIF has been generated from an entry in the Cambridge 
# Structural Database, then it will include bibliographic, chemical, 
# crystal, experimental, refinement or atomic coordinate data resulting 
# from the CCDC's data processing and validation procedures.
#
#######################################################################

data_VIQNOZ
_symmetry_cell_setting           monoclinic
_symmetry_space_group_name_H-M   'C 2/c'
_symmetry_Int_Tables_number      15
_space_group_name_Hall           '-C 2yn'
loop_
_symmetry_equiv_pos_site_id
_symmetry_equiv_pos_as_xyz
1 x,y,z
2 1/2+x,1/2+y,z
3 -x,y,1/2-z
4 1/2-x,1/2+y,1/2-z
5 -x,-y,-z
6 1/2-x,1/2-y,-z
7 x,-y,1/2+z
8 1/2+x,1/2-y,1/2+z
_cell_length_a                   24.5348(8)
_cell_length_b                   13.2964(4)
_cell_length_c                   7.5147(2)
_cell_angle_alpha                90
_cell_angle_beta                 97.3494(9)
_cell_angle_gamma                90
_cell_volume                     2431.34
loop_
_atom_site_label
_atom_site_type_symbol
_atom_site_fract_x
_atom_site_fract_y
_atom_site_fract_z
Ba1 Ba 0.5000 0.602876(9) 0.2500
O1 O 0.44439(6) 0.53508(11) 0.5434(2)
O2 O 0.39379(6) 0.62910(11) 0.34507(19)
O3 O 0.31354(5) 0.64630(9) 0.56511(18)
O4 O 0.11457(8) 0.38322(13) 0.1840(3)
O5 O 0.17634(7) 0.26668(11) 0.2823(2)
H1 H 0.1561 0.2206 0.2426
O6 O 0.51164(8) 0.77491(13) 0.0446(3)
H2 H 0.5391 0.8060 0.0874
H3 H 0.4844 0.8107 0.0450
C1 C 0.40400(8) 0.59159(13) 0.4991(3)
C2 C 0.36759(8) 0.61791(14) 0.6437(3)
H8 H 0.3653 0.5601 0.7233
C3 C 0.39133(10) 0.70747(18) 0.7519(3)
H9 H 0.3697 0.7207 0.8472
H10 H 0.3908 0.7653 0.6753
H11 H 0.4285 0.6931 0.8017
C4 C 0.27903(7) 0.57216(14) 0.4905(2)
C5 C 0.22872(9) 0.60562(12) 0.4031(3)
H12 H 0.2212 0.6741 0.3946
C6 C 0.19019(8) 0.53692(15) 0.3293(3)
H13 H 0.1566 0.5593 0.2713
C7 C 0.20121(8) 0.43396(14) 0.3409(2)
C8 C 0.25192(9) 0.40175(13) 0.4258(3)
H14 H 0.2597 0.3333 0.4323
C9 C 0.29105(8) 0.46983(14) 0.5007(2)
H15 H 0.3248 0.4475 0.5570
C10 C 0.15978(8) 0.36010(15) 0.2615(3)
Ba1F Ba 0.5000 0.397124(9) 0.7500
Ba1F_2 Ba 0.5000 0.397124(9) -0.2500
O1F O 0.44439(6) 0.46492(11) 0.0434(2)
O1D O 0.55561(6) 0.46492(11) 0.4566(2)
O1B O 0.55561(6) 0.53508(11) -0.0434(2)
O2F O 0.39379(6) 0.37090(11) -0.15493(19)
O2B O 0.60621(6) 0.62910(11) 0.15493(19)
O3F O 0.31354(5) 0.35370(9) 0.06511(18)
O4F O 0.11457(8) 0.61678(13) -0.3160(3)
O5F O 0.17634(7) 0.73332(11) -0.2177(2)
H1F H 0.1561 0.7794 -0.2574
O6B O 0.48836(8) 0.77491(13) 0.4554(3)
H2B H 0.4609 0.8060 0.4126
H3B H 0.5156 0.8107 0.4550
C1F C 0.40400(8) 0.40841(13) -0.0009(3)
C2F C 0.36759(8) 0.38209(14) 0.1437(3)
H8F H 0.3653 0.4399 0.2233
C3F C 0.39133(10) 0.29253(18) 0.2519(3)
H9F H 0.3697 0.2793 0.3472
H10F H 0.3908 0.2347 0.1753
H11F H 0.4285 0.3069 0.3017
C4F C 0.27903(7) 0.42784(14) -0.0095(2)
C5F C 0.22872(9) 0.39438(12) -0.0969(3)
H12F H 0.2212 0.3259 -0.1054
C6F C 0.19019(8) 0.46308(15) -0.1707(3)
H13F H 0.1566 0.4407 -0.2287
C7F C 0.20121(8) 0.56604(14) -0.1591(2)
C8F C 0.25192(9) 0.59825(13) -0.0742(3)
H14F H 0.2597 0.6667 -0.0677
C9F C 0.29105(8) 0.53017(14) 0.0007(2)
H15F H 0.3248 0.5525 0.0570
C10F C 0.15978(8) 0.63990(15) -0.2385(3)
O7 O 0.4618(3) 0.9497(5) -0.1321(11)
H4 H 0.4457 0.9907 -0.2014
H5 H 0.4945 0.9641 -0.1136
O8? O 0.4433(3) 0.9510(6) 0.0023(12)
H6? H 0.4151 0.9849 -0.0095
H7? H 0.4656 0.9757 0.0807
loop_
_geom_bond_atom_site_label_1
_geom_bond_atom_site_label_2
_geom_bond_site_symmetry_1
_geom_bond_site_symmetry_2
Ba1 O1 1_555 1_555
O1 C1 1_555 1_555
O2 Ba1 1_555 1_555
O3 C2 1_555 1_555
O4 C10 1_555 1_555
O5 H1 1_555 1_555
O6 Ba1 1_555 1_555
H2 O6 1_555 1_555
H3 O6 1_555 1_555
O7 H4 1_555 1_555
H5 O7 1_555 1_555
C1 O2 1_555 1_555
C2 C1 1_555 1_555
H8 C2 1_555 1_555
C3 C2 1_555 1_555
H9 C3 1_555 1_555
H10 C3 1_555 1_555
H11 C3 1_555 1_555
C4 O3 1_555 1_555
C5 C4 1_555 1_555
H12 C5 1_555 1_555
C6 C5 1_555 1_555
H13 C6 1_555 1_555
C7 C6 1_555 1_555
C8 C7 1_555 1_555
H14 C8 1_555 1_555
C9 C4 1_555 1_555
H15 C9 1_555 1_555
C10 O5 1_555 1_555
Ba1F O1 1_555 1_555
Ba1F_2 O1F 1_555 1_555
O1F Ba1 1_555 1_555
O1D Ba1 1_555 1_555
O1B Ba1 1_555 1_555
O2F Ba1F_2 1_555 1_555
O2B Ba1 1_555 1_555
O3F C2F 1_555 1_555
O4F C10F 1_555 1_555
O5F H1F 1_555 1_555
O6B Ba1 1_555 1_555
H2B O6B 1_555 1_555
H3B O6B 1_555 1_555
C1F O1F 1_555 1_555
C2F C1F 1_555 1_555
H8F C2F 1_555 1_555
C3F C2F 1_555 1_555
H9F C3F 1_555 1_555
H10F C3F 1_555 1_555
H11F C3F 1_555 1_555
C4F O3F 1_555 1_555
C5F C4F 1_555 1_555
H12F C5F 1_555 1_555
C6F C5F 1_555 1_555
H13F C6F 1_555 1_555
C7F C6F 1_555 1_555
C8F C7F 1_555 1_555
H14F C8F 1_555 1_555
C9F C4F 1_555 1_555
H15F C9F 1_555 1_555
C10F O5F 1_555 1_555
C7 C10 1_555 1_555
C8 C9 1_555 1_555
Ba1F O1D 1_555 1_555
Ba1F_2 O1B 1_555 1_555
O2F C1F 1_555 1_555
C7F C10F 1_555 1_555
C8F C9F 1_555 1_555

#END
