
#######################################################################
#
#                 Cambridge Crystallographic Data Centre
#                                CCDC 
#
#######################################################################
#
# If this CIF has been generated from an entry in the Cambridge 
# Structural Database, then it will include bibliographic, chemical, 
# crystal, experimental, refinement or atomic coordinate data resulting 
# from the CCDC's data processing and validation procedures.
#
#######################################################################

data_VIQPUI
_symmetry_cell_setting           monoclinic
_symmetry_space_group_name_H-M   'P 21'
_symmetry_Int_Tables_number      4
_space_group_name_Hall           'P 2yb'
loop_
_symmetry_equiv_pos_site_id
_symmetry_equiv_pos_as_xyz
1 x,y,z
2 -x,1/2+y,-z
_cell_length_a                   9.7689(8)
_cell_length_b                   13.6291(10)
_cell_length_c                   16.7263(13)
_cell_angle_alpha                90
_cell_angle_beta                 96.9890(10)
_cell_angle_gamma                90
_cell_volume                     2210.41
loop_
_atom_site_label
_atom_site_type_symbol
_atom_site_fract_x
_atom_site_fract_y
_atom_site_fract_z
Ag1 Ag 0.42751(6) 0.79892(5) 0.41050(4)
N1 N 0.7641(6) 1.2895(7) 0.5415(3)
C1 C 0.9310(8) 1.3067(7) 0.4606(4)
N2 N 0.6238(6) 0.8270(6) 0.3719(3)
N3 N 0.9672(7) 1.2348(5) 0.5160(4)
N4 N 0.8272(7) 0.8953(5) 0.3638(4)
C2 C 0.8181(8) 0.8160(8) 0.3129(4)
C3 C 0.9430(8) 1.0347(7) 0.4409(4)
H1 H 0.9383 1.0005 0.4914
H2 H 0.8613 1.0753 0.4302
C4 C 0.9464(8) 0.9629(6) 0.3755(5)
H3 H 1.0299 0.9242 0.3863
H4 H 0.9514 0.9982 0.3256
C5 C 0.6855(8) 0.7744(6) 0.3171(4)
C6 C 0.7088(9) 0.8976(6) 0.3970(4)
H5 H 0.6892 0.9448 0.4342
C7 C 0.7352(8) 1.4150(7) 0.4300(5)
H6 H 0.6507 1.4395 0.4412
C8 C 0.7993(8) 1.3431(6) 0.4741(5)
C9 C 1.0710(8) 1.0991(6) 0.4480(4)
H7 H 1.1515 1.0569 0.4524
H8 H 1.0701 1.1364 0.3985
C10 C 0.9963(9) 1.3467(6) 0.3971(5)
H9 H 1.0833 1.3256 0.3873
C11 C 0.8656(8) 1.2274(7) 0.5613(5)
H10 H 0.8659 1.1824 0.6032
C12 C 0.9072(8) 0.7786(7) 0.2622(4)
H11 H 0.9929 0.8069 0.2587
C13 C 1.0871(9) 1.1704(7) 0.5181(5)
H12 H 1.0982 1.1340 0.5684
H13 H 1.1694 1.2097 0.5159
C14 C 0.6474(9) 0.6902(7) 0.2745(5)
H14 H 0.5636 0.6597 0.2791
C15 C 0.7368(9) 0.6524(7) 0.2249(5)
H15 H 0.7134 0.5956 0.1956
C16 C 0.9277(10) 1.4167(7) 0.3513(5)
H16 H 0.9672 1.4423 0.3080
C17 C 0.8000(9) 1.4516(7) 0.3669(5)
H17 H 0.7569 1.5006 0.3343
C18 C 0.8640(9) 0.6992(8) 0.2180(5)
H18 H 0.9199 0.6743 0.1816
Ag1A Ag 0.57249(6) 1.29892(5) 0.58950(4)
N1A N 0.2359(6) 0.7895(7) 0.4585(3)
Ag2 Ag -0.07508(7) 0.52291(5) 0.92905(4)
N5 N 0.2609(6) 0.0420(6) 1.0243(4)
N6 N 0.1191(6) 0.4986(5) 0.8928(4)
N7 N 0.4724(7) 0.0947(6) 1.0097(4)
C19 C 0.3005(8) 0.5141(8) 0.8198(4)
C20 C 0.4385(8) 0.0228(8) 0.9496(4)
N8 N 0.3246(6) 0.4370(5) 0.8741(4)
C21 C 0.4515(7) 0.2973(7) 0.9456(4)
H19 H 0.4492 0.3285 0.9975
H20 H 0.3708 0.2556 0.9354
C22 C 0.3094(9) -0.0056(7) 0.9614(5)
C23 C 0.5909(9) 0.1623(7) 1.0162(5)
H21 H 0.6752 0.1247 1.0160
H22 H 0.5962 0.1972 1.0670
C24 C 0.4459(8) 0.3751(6) 0.8810(4)
H23 H 0.5268 0.4165 0.8918
H24 H 0.4506 0.3432 0.8296
C25 C 0.1745(8) 0.5552(7) 0.8324(4)
C26 C 0.2125(8) 0.4299(7) 0.9150(5)
H25 H 0.2026 0.3825 0.9539
C27 C 0.3610(9) 0.1009(7) 1.0501(5)
H26 H 0.3564 0.1439 1.0929
C28 C 0.1193(8) 0.6343(6) 0.7905(5)
H27 H 0.0348 0.6610 0.7993
C29 C 0.5796(8) 0.2349(6) 0.9484(4)
H28 H 0.5785 0.1999 0.8978
H29 H 0.6601 0.2771 0.9545
C30 C 0.5129(9) -0.0107(7) 0.8903(5)
H30 H 0.6003 0.0127 0.8839
C31 C 0.2425(9) -0.0767(7) 0.9090(5)
H31 H 0.1536 -0.0977 0.9146
C32 C 0.3792(8) 0.5555(7) 0.7661(4)
H32 H 0.4653 0.5300 0.7591
C33 C 0.4467(11) -0.0827(8) 0.8405(5)
H33 H 0.4920 -0.1106 0.8003
C34 C 0.3267(10) 0.6358(6) 0.7227(5)
H34 H 0.3771 0.6659 0.6858
C35 C 0.1956(9) 0.6720(7) 0.7348(5)
H35 H 0.1593 0.7241 0.7031
C36 C 0.3123(10) -0.1137(7) 0.8500(6)
H36 H 0.2700 -0.1608 0.8151
Ag2A Ag 0.07508(7) 0.02291(5) 1.07095(4)
N5A N -0.2609(6) 0.5420(6) 0.9757(4)
C37 C 0.3373(7) 0.4197(6) 0.3506(5)
O1 O 0.3742(5) 0.0689(4) 0.3613(3)
C38 C 0.2779(6) 0.2378(5) 0.2748(4)
H37 H 0.2575 0.1774 0.2501
O2 O 0.4644(5) 0.1586(3) 0.4648(3)
C39 C 0.2651(7) 0.4158(6) 0.2747(4)
H38 H 0.2343 0.4737 0.2492
C40 C 0.3489(6) 0.2434(5) 0.3514(4)
O3 O 0.3520(7) 0.5928(5) 0.3565(3)
O4 O 0.4270(4) 0.5132(4) 0.4660(3)
C41 C 0.3739(8) 0.5178(7) 0.3933(5)
C42 C 0.3757(6) 0.3326(5) 0.3896(4)
H39 H 0.4201 0.3341 0.4420
C43 C 0.3996(7) 0.1492(5) 0.3945(5)
C44 C 0.2373(7) 0.3264(6) 0.2351(4)
O5 O 0.1501(7) 0.2394(6) 0.1182(4)
O6 O 0.1238(6) 0.3996(5) 0.1165(3)
C45 C 0.1633(8) 0.3228(7) 0.1498(4)
H40 H 0.519(7) 0.089(5) 0.498(4)
loop_
_geom_bond_atom_site_label_1
_geom_bond_atom_site_label_2
_geom_bond_site_symmetry_1
_geom_bond_site_symmetry_2
Ag1 N2 1_555 1_555
N1 C8 1_555 1_555
C1 N3 1_555 1_555
N2 C5 1_555 1_555
N3 C11 1_555 1_555
N4 C2 1_555 1_555
C2 C5 1_555 1_555
C3 H1 1_555 1_555
H2 C3 1_555 1_555
C4 N4 1_555 1_555
H3 C4 1_555 1_555
H4 C4 1_555 1_555
C5 C14 1_555 1_555
C6 N2 1_555 1_555
H5 C6 1_555 1_555
C7 H6 1_555 1_555
C8 C1 1_555 1_555
C9 C3 1_555 1_555
H7 C9 1_555 1_555
H8 C9 1_555 1_555
C10 C1 1_555 1_555
H9 C10 1_555 1_555
C11 N1 1_555 1_555
H10 C11 1_555 1_555
C12 C2 1_555 1_555
H11 C12 1_555 1_555
C13 N3 1_555 1_555
H12 C13 1_555 1_555
H13 C13 1_555 1_555
C14 H14 1_555 1_555
C15 C14 1_555 1_555
H15 C15 1_555 1_555
C16 C10 1_555 1_555
H16 C16 1_555 1_555
C17 C7 1_555 1_555
H17 C17 1_555 1_555
C18 C12 1_555 1_555
H18 C18 1_555 1_555
Ag2 N6 1_555 1_555
N5 C22 1_555 1_555
N6 C25 1_555 1_555
N7 C20 1_555 1_555
C19 N8 1_555 1_555
C20 C22 1_555 1_555
N8 C24 1_555 1_555
C21 H19 1_555 1_555
H20 C21 1_555 1_555
C22 C31 1_555 1_555
C23 N7 1_555 1_555
H21 C23 1_555 1_555
H22 C23 1_555 1_555
C24 C21 1_555 1_555
H23 C24 1_555 1_555
H24 C24 1_555 1_555
C25 C19 1_555 1_555
C26 N6 1_555 1_555
H25 C26 1_555 1_555
C27 N5 1_555 1_555
H26 C27 1_555 1_555
C28 C25 1_555 1_555
H27 C28 1_555 1_555
C29 C21 1_555 1_555
H28 C29 1_555 1_555
H29 C29 1_555 1_555
C30 C20 1_555 1_555
H30 C30 1_555 1_555
C31 H31 1_555 1_555
C32 C19 1_555 1_555
H32 C32 1_555 1_555
C33 C30 1_555 1_555
H33 C33 1_555 1_555
C34 C32 1_555 1_555
H34 C34 1_555 1_555
C35 C28 1_555 1_555
H35 C35 1_555 1_555
C36 C31 1_555 1_555
H36 C36 1_555 1_555
C37 C39 1_555 1_555
O1 C43 1_555 1_555
C38 H37 1_555 1_555
O2 C43 1_555 1_555
C39 H38 1_555 1_555
C40 C38 1_555 1_555
O3 C41 1_555 1_555
O4 C41 1_555 1_555
C41 C37 1_555 1_555
C42 C37 1_555 1_555
H39 C42 1_555 1_555
C43 C40 1_555 1_555
C44 C38 1_555 1_555
O5 C45 1_555 1_555
O6 C45 1_555 1_555
C45 C44 1_555 1_555
H40 O2 1_555 1_555
Ag1A N1 1_555 1_555
N1A Ag1 1_555 1_555
Ag2A N5 1_555 1_555
N5A Ag2 1_555 1_555
N4 C6 1_555 1_555
C3 C4 1_555 1_555
C7 C8 1_555 1_555
C9 C13 1_555 1_555
C15 C18 1_555 1_555
C16 C17 1_555 1_555
N7 C27 1_555 1_555
N8 C26 1_555 1_555
C23 C29 1_555 1_555
C33 C36 1_555 1_555
C34 C35 1_555 1_555
C39 C44 1_555 1_555
C40 C42 1_555 1_555

#END
