
#######################################################################
#
#                 Cambridge Crystallographic Data Centre
#                                CCDC 
#
#######################################################################
#
# If this CIF has been generated from an entry in the Cambridge 
# Structural Database, then it will include bibliographic, chemical, 
# crystal, experimental, refinement or atomic coordinate data resulting 
# from the CCDC's data processing and validation procedures.
#
#######################################################################

data_VIRCOQ
_symmetry_cell_setting           monoclinic
_symmetry_space_group_name_H-M   'P 21/c'
_symmetry_Int_Tables_number      14
_space_group_name_Hall           '-P 2ybc'
loop_
_symmetry_equiv_pos_site_id
_symmetry_equiv_pos_as_xyz
1 x,y,z
2 -x,1/2+y,1/2-z
3 -x,-y,-z
4 x,1/2-y,1/2+z
_cell_length_a                   14.2383(14)
_cell_length_b                   17.3146(17)
_cell_length_c                   20.9344(15)
_cell_angle_alpha                90
_cell_angle_beta                 128.080(4)
_cell_angle_gamma                90
_cell_volume                     4062.46
loop_
_atom_site_label
_atom_site_type_symbol
_atom_site_fract_x
_atom_site_fract_y
_atom_site_fract_z
Ag1 Ag 0.34043(5) 0.78893(4) 0.66627(4)
S1 S 0.31437(17) 0.97901(14) 0.57188(12)
O1 O 0.2541(6) 1.0227(5) 0.7353(6)
O2 O 0.2768(5) 0.9045(4) 0.7081(3)
O3 O 0.3102(5) 0.8971(3) 0.5658(3)
O4 O 0.2070(5) 1.0110(4) 0.5568(4)
O5 O 0.3448(6) 1.0161(4) 0.5254(3)
O6 O 0.7789(7) 1.0430(7) 0.7460(5)
O7 O 0.8554(5) 1.0220(5) 0.8749(4)
N1 N 0.1525(5) 0.7693(4) 0.5717(4)
N2 N -0.4720(5) 0.7296(4) 0.2603(4)
C1 C 0.2965(6) 0.9759(4) 0.7171(4)
C2 C 0.4168(6) 0.9990(5) 0.7350(5)
C3 C 0.4346(6) 1.0001(4) 0.6758(4)
C4 C 0.5468(7) 1.0147(5) 0.6962(5)
H1 H 0.5563 1.0156 0.6560
C5 C 0.6453(7) 1.0280(5) 0.7779(5)
C6 C 0.6273(7) 1.0308(5) 0.8347(5)
H2 H 0.6911 1.0413 0.8885
C7 C 0.5152(6) 1.0183(5) 0.8130(5)
H3 H 0.5053 1.0230 0.8527
C8 C 0.7682(8) 1.0325(6) 0.7999(5)
C9 C 0.0798(7) 0.8305(5) 0.5368(5)
H4 H 0.1125 0.8797 0.5544
C10 C -0.0404(6) 0.8238(5) 0.4764(5)
H5 H -0.0863 0.8684 0.4545
C11 C -0.0960(6) 0.7528(5) 0.4467(5)
C12 C -0.0185(7) 0.6891(5) 0.4836(5)
H6 H -0.0492 0.6394 0.4669
C13 C 0.0997(7) 0.6990(5) 0.5428(5)
H7 H 0.1477 0.6553 0.5650
C14 C -0.2235(6) 0.7441(4) 0.3829(4)
C15 C -0.3002(7) 0.8085(5) 0.3459(5)
H8 H -0.2690 0.8582 0.3618
C16 C -0.4182(7) 0.7985(5) 0.2877(5)
H9 H -0.4657 0.8424 0.2649
C17 C -0.3989(7) 0.6679(5) 0.2966(5)
H10 H -0.4328 0.6189 0.2805
C18 C -0.2790(7) 0.6730(5) 0.3551(5)
H11 H -0.2336 0.6281 0.3767
Ag1C Ag -0.65957(5) 0.71107(4) 0.16627(4)
N2C N 0.5280(5) 0.7704(4) 0.7603(4)
Ag2 Ag 0.20191(6) 0.79004(6) -0.24066(5)
N3 N 0.3901(6) 0.7799(5) -0.1416(4)
N4 N 1.0157(6) 0.7333(5) 0.1668(4)
C19 C 0.4434(8) 0.7104(6) -0.1195(6)
H12 H 0.3965 0.6668 -0.1453
C20 C 0.5654(8) 0.7009(6) -0.0599(6)
H13 H 0.5985 0.6517 -0.0478
C21 C 0.6381(7) 0.7641(5) -0.0184(5)
C22 C 0.5796(7) 0.8362(6) -0.0413(5)
H14 H 0.6236 0.8809 -0.0156
C23 C 0.4597(7) 0.8411(6) -0.1004(6)
H15 H 0.4241 0.8895 -0.1128
C24 C 0.7664(6) 0.7543(5) 0.0456(4)
C25 C 0.8467(7) 0.8179(6) 0.0842(5)
H16 H 0.8176 0.8681 0.0702
C26 C 0.9670(8) 0.8051(6) 0.1419(6)
H17 H 1.0175 0.8476 0.1651
C27 C 0.9414(8) 0.6758(6) 0.1316(6)
H18 H 0.9730 0.6263 0.1481
C28 C 0.8196(7) 0.6821(6) 0.0717(5)
H19 H 0.7731 0.6378 0.0489
Ag2C Ag 1.20191(6) 0.70996(6) 0.25934(5)
N4C N 0.0157(6) 0.7667(5) -0.3332(4)
O8 O 0.1809(7) 0.9350(6) -0.1898(5)
H20 H 0.1902 0.9016 -0.1566
H21 H 0.1787 0.9125 -0.2268
Ag3 Ag 0.28090(6) 0.72611(5) -0.03281(4)
N5 N 1.0946(6) 0.7572(5) 0.3744(4)
N6 N 0.4705(6) 0.7360(4) 0.0616(4)
C29 C 1.0360(8) 0.6895(6) 0.3482(6)
H22 H 1.0800 0.6446 0.3732
C30 C 0.9180(7) 0.6821(6) 0.2883(5)
H23 H 0.8840 0.6333 0.2712
C31 C 0.8465(7) 0.7477(5) 0.2519(5)
C32 C 0.9066(7) 0.8174(6) 0.2806(6)
H24 H 0.8639 0.8633 0.2587
C33 C 1.0254(8) 0.8203(6) 0.3394(6)
H25 H 1.0616 0.8685 0.3569
C34 C 0.7166(6) 0.7436(5) 0.1872(5)
C35 C 0.6419(8) 0.8083(6) 0.1554(6)
H26 H 0.6750 0.8568 0.1767
C36 C 0.5257(7) 0.8030(6) 0.0960(5)
H27 H 0.4804 0.8480 0.0775
C37 C 0.5390(7) 0.6719(6) 0.0895(5)
H28 H 0.5028 0.6246 0.0661
C38 C 0.6591(7) 0.6735(5) 0.1506(5)
H29 H 0.7028 0.6278 0.1679
Ag3C Ag 1.28090(6) 0.77389(5) 0.46719(4)
N5C N 0.0946(6) 0.7428(5) -0.1256(4)
O9 O 0.2910(9) 0.5911(6) 0.9037(5)
H30 H 0.2207 0.5776 0.8637
H31 H 0.3223 0.5561 0.9398
O10 O 0.0119(7) 0.9947(5) 0.3837(5)
H32 H 0.0590 0.9653 0.4241
H33 H -0.0544 0.9976 0.3755
O11 O 0.1034(7) 1.0019(5) 0.9772(5)
H34 H 0.0340 0.9980 0.9642
H35 H 0.1118 0.9683 0.9514
O12 O 0.9588(9) 0.5031(6) 0.2450(7)
H36 H 1.0248 0.5228 0.2612
H37 H 0.9686 0.4555 0.2573
O13 O 0.2919(9) 0.5505(10) 0.4739(6)
H38 H 0.2920 0.5910 0.4969
H39 H 0.3542 0.5241 0.5078
loop_
_geom_bond_atom_site_label_1
_geom_bond_atom_site_label_2
_geom_bond_site_symmetry_1
_geom_bond_site_symmetry_2
Ag1 O2 1_555 1_555
S1 O3 1_555 1_555
O1 C1 1_555 1_555
O2 C1 1_555 1_555
O3 Ag1 1_555 1_555
O4 S1 1_555 1_555
O5 S1 1_555 1_555
O6 C8 1_555 1_555
O7 C8 1_555 1_555
N1 Ag1 1_555 1_555
N2 C16 1_555 1_555
C1 C2 1_555 1_555
C2 C3 1_555 1_555
C3 S1 1_555 1_555
C4 C3 1_555 1_555
H1 C4 1_555 1_555
C5 C4 1_555 1_555
C6 C5 1_555 1_555
H2 C6 1_555 1_555
C7 C2 1_555 1_555
H3 C7 1_555 1_555
C8 C5 1_555 1_555
C9 N1 1_555 1_555
H4 C9 1_555 1_555
C10 C9 1_555 1_555
H5 C10 1_555 1_555
C11 C10 1_555 1_555
C12 C11 1_555 1_555
H6 C12 1_555 1_555
C13 N1 1_555 1_555
H7 C13 1_555 1_555
C14 C11 1_555 1_555
C15 C14 1_555 1_555
H8 C15 1_555 1_555
C16 C15 1_555 1_555
H9 C16 1_555 1_555
C17 N2 1_555 1_555
H10 C17 1_555 1_555
C18 C14 1_555 1_555
H11 C18 1_555 1_555
Ag2 N3 1_555 1_555
N3 C19 1_555 1_555
N4 C26 1_555 1_555
C19 H12 1_555 1_555
C20 C19 1_555 1_555
H13 C20 1_555 1_555
C21 C20 1_555 1_555
C22 C21 1_555 1_555
H14 C22 1_555 1_555
C23 N3 1_555 1_555
H15 C23 1_555 1_555
C24 C21 1_555 1_555
C25 C24 1_555 1_555
H16 C25 1_555 1_555
C26 C25 1_555 1_555
H17 C26 1_555 1_555
C27 N4 1_555 1_555
H18 C27 1_555 1_555
C28 C24 1_555 1_555
H19 C28 1_555 1_555
O8 H20 1_555 1_555
H21 O8 1_555 1_555
Ag3 N6 1_555 1_555
N5 C29 1_555 1_555
N6 C36 1_555 1_555
C29 H22 1_555 1_555
C30 C29 1_555 1_555
H23 C30 1_555 1_555
C31 C30 1_555 1_555
C32 C31 1_555 1_555
H24 C32 1_555 1_555
C33 N5 1_555 1_555
H25 C33 1_555 1_555
C34 C31 1_555 1_555
C35 C34 1_555 1_555
H26 C35 1_555 1_555
C36 C35 1_555 1_555
H27 C36 1_555 1_555
C37 N6 1_555 1_555
H28 C37 1_555 1_555
C38 C34 1_555 1_555
H29 C38 1_555 1_555
O9 H30 1_555 1_555
H31 O9 1_555 1_555
O10 H32 1_555 1_555
H33 O10 1_555 1_555
O11 H34 1_555 1_555
H35 O11 1_555 1_555
O12 H36 1_555 1_555
H37 O12 1_555 1_555
O13 H38 1_555 1_555
H39 O13 1_555 1_555
Ag1C N2 1_555 1_555
N2C Ag1 1_555 1_555
Ag2C N4 1_555 1_555
N4C Ag2 1_555 1_555
Ag3C N5 1_555 1_555
N5C Ag3 1_555 1_555
C6 C7 1_555 1_555
C12 C13 1_555 1_555
C17 C18 1_555 1_555
C22 C23 1_555 1_555
C27 C28 1_555 1_555
C32 C33 1_555 1_555
C37 C38 1_555 1_555

#END
