
#######################################################################
#
#                 Cambridge Crystallographic Data Centre
#                                CCDC 
#
#######################################################################
#
# If this CIF has been generated from an entry in the Cambridge 
# Structural Database, then it will include bibliographic, chemical, 
# crystal, experimental, refinement or atomic coordinate data resulting 
# from the CCDC's data processing and validation procedures.
#
#######################################################################

data_VIRKAJ
_symmetry_cell_setting           monoclinic
_symmetry_space_group_name_H-M   'P 21/n'
_symmetry_Int_Tables_number      14
_space_group_name_Hall           '-P 2yn'
loop_
_symmetry_equiv_pos_site_id
_symmetry_equiv_pos_as_xyz
1 x,y,z
2 1/2-x,1/2+y,1/2-z
3 -x,-y,-z
4 1/2+x,1/2-y,1/2+z
_cell_length_a                   14.5107(3)
_cell_length_b                   12.1967(3)
_cell_length_c                   19.3412(5)
_cell_angle_alpha                90
_cell_angle_beta                 91.445(1)
_cell_angle_gamma                90
_cell_volume                     3421.97
loop_
_atom_site_label
_atom_site_type_symbol
_atom_site_fract_x
_atom_site_fract_y
_atom_site_fract_z
Fe1 Fe 0.23697(4) 0.55703(4) 0.04574(3)
C1 C 0.2949(3) 0.5950(3) 0.1340(2)
N1 N 0.3225(2) 0.6238(3) 0.18760(18)
C2 C 0.2908(3) 0.6967(3) 0.0175(2)
N2 N 0.3241(3) 0.7789(3) 0.0025(2)
C3 C 0.2028(3) 0.4234(3) 0.0933(2)
N3 N 0.1929(2) 0.3425(3) 0.12264(18)
N4 N 0.1185(2) 0.6275(2) 0.06405(17)
N5 N -0.0562(3) 0.7240(3) 0.0689(2)
N6 N 0.1811(2) 0.5337(3) -0.04193(17)
N7 N 0.3370(2) 0.4702(3) 0.00671(17)
C4 C 0.0876(3) 0.6716(3) 0.1225(2)
H1 H 0.1257 0.6712 0.1631
C5 C 0.0003(3) 0.7179(4) 0.1239(3)
H2 H -0.0202 0.7467 0.1665
C6 C -0.0251(3) 0.6785(3) 0.0108(2)
H3 H -0.0630 0.6806 -0.0300
C7 C 0.0606(3) 0.6283(3) 0.0084(2)
C8 C 0.0937(3) 0.5697(3) -0.0541(2)
C9 C 0.2352(3) 0.4823(3) -0.0907(2)
C10 C 0.2151(4) 0.4632(4) -0.1596(2)
H4 H 0.1580 0.4864 -0.1799
C11 C 0.2812(4) 0.4083(5) -0.1996(3)
H5 H 0.2689 0.3978 -0.2476
C12 C 0.3615(4) 0.3703(5) -0.1716(3)
H6 H 0.4035 0.3327 -0.2001
C13 C 0.3839(3) 0.3855(4) -0.1006(2)
C14 C 0.4619(3) 0.3428(4) -0.0655(3)
H7 H 0.5058 0.3009 -0.0898
C15 C 0.4744(3) 0.3615(4) 0.0033(3)
H8 H 0.5257 0.3307 0.0278
C16 C 0.4105(3) 0.4269(3) 0.0379(2)
H9 H 0.4206 0.4406 0.0858
O1 O 0.0449(2) 0.5568(2) -0.10584(15)
Mn1 Mn 0.31242(4) 0.72666(5) 0.28605(3)
O2 O 0.19342(19) 0.6724(2) 0.30300(15)
O3 O 0.3741(2) 0.6189(2) 0.33922(15)
N8 N 0.4287(3) 0.8050(3) 0.26635(18)
N9 N 0.2585(3) 0.8462(3) 0.22871(17)
C17 C 0.3207(3) 0.4465(3) -0.0618(2)
C18 C 0.1161(3) 0.7299(3) 0.3051(2)
C19 C 0.0397(3) 0.6850(4) 0.3380(2)
H10 H 0.0452 0.6152 0.3595
C20 C -0.0430(3) 0.7400(4) 0.3397(3)
H11 H -0.0937 0.7068 0.3618
C21 C -0.0541(4) 0.8429(4) 0.3101(3)
H12 H -0.1112 0.8808 0.3123
C22 C 0.0203(3) 0.8888(4) 0.2770(2)
H13 H 0.0135 0.9590 0.2561
C23 C 0.1052(3) 0.8347(3) 0.2735(2)
C24 C 0.1765(3) 0.8845(3) 0.2338(2)
H14 H 0.1619 0.9503 0.2095
C25 C 0.3276(3) 0.8987(3) 0.1844(2)
H15 H 0.3059 0.9721 0.1695
H16 H 0.3375 0.8535 0.1428
C26 C 0.4159(3) 0.9086(3) 0.2265(3)
H17 H 0.4685 0.9201 0.1957
H18 H 0.4125 0.9718 0.2585
C27 C 0.5087(3) 0.7828(3) 0.2930(2)
H19 H 0.5580 0.8305 0.2820
C28 C 0.5300(3) 0.6916(3) 0.3382(2)
C29 C 0.6203(3) 0.6811(4) 0.3642(3)
H20 H 0.6647 0.7342 0.3515
C30 C 0.6471(4) 0.5978(4) 0.4070(3)
H21 H 0.7090 0.5926 0.4239
C31 C 0.5809(4) 0.5199(4) 0.4256(3)
H22 H 0.5986 0.4601 0.4545
C32 C 0.4911(4) 0.5291(4) 0.4025(2)
H23 H 0.4473 0.4760 0.4163
C33 C 0.4623(3) 0.6154(3) 0.3589(2)
N3A N 0.3071(2) 0.8425(3) 0.37736(18)
Mn1A Mn 0.18758(4) 0.22666(5) 0.21395(3)
O4 O 0.4424(6) -0.0450(8) 1.0430(5)
O6 O 0.6404(6) 0.9168(7) 0.1651(4)
O7 O 0.273(2) 0.1095(19) 1.0168(12)
O5? O 0.3796(10) 0.0049(13) 0.9759(7)
O8? O 0.2497(9) 0.1745(12) 0.9644(18)
loop_
_geom_bond_atom_site_label_1
_geom_bond_atom_site_label_2
_geom_bond_site_symmetry_1
_geom_bond_site_symmetry_2
Fe1 C1 1_555 1_555
C1 N1 1_555 1_555
N1 Mn1 1_555 1_555
C2 Fe1 1_555 1_555
N2 C2 1_555 1_555
C3 Fe1 1_555 1_555
N3 C3 1_555 1_555
N4 Fe1 1_555 1_555
N5 C5 1_555 1_555
N6 Fe1 1_555 1_555
N7 Fe1 1_555 1_555
C4 N4 1_555 1_555
H1 C4 1_555 1_555
C5 C4 1_555 1_555
H2 C5 1_555 1_555
C6 N5 1_555 1_555
H3 C6 1_555 1_555
C7 N4 1_555 1_555
C8 N6 1_555 1_555
C9 N6 1_555 1_555
C10 C9 1_555 1_555
H4 C10 1_555 1_555
C11 C10 1_555 1_555
H5 C11 1_555 1_555
C12 C11 1_555 1_555
H6 C12 1_555 1_555
C13 C12 1_555 1_555
C14 C13 1_555 1_555
H7 C14 1_555 1_555
C15 C14 1_555 1_555
H8 C15 1_555 1_555
C16 N7 1_555 1_555
H9 C16 1_555 1_555
O1 C8 1_555 1_555
Mn1 O2 1_555 1_555
O2 C18 1_555 1_555
O3 Mn1 1_555 1_555
N8 Mn1 1_555 1_555
N9 Mn1 1_555 1_555
C17 N7 1_555 1_555
C18 C19 1_555 1_555
C19 H10 1_555 1_555
C20 C19 1_555 1_555
H11 C20 1_555 1_555
C21 C20 1_555 1_555
H12 C21 1_555 1_555
C22 C21 1_555 1_555
H13 C22 1_555 1_555
C23 C18 1_555 1_555
C24 N9 1_555 1_555
H14 C24 1_555 1_555
C25 N9 1_555 1_555
H15 C25 1_555 1_555
H16 C25 1_555 1_555
C26 N8 1_555 1_555
H17 C26 1_555 1_555
H18 C26 1_555 1_555
C27 N8 1_555 1_555
H19 C27 1_555 1_555
C28 C27 1_555 1_555
C29 C28 1_555 1_555
H20 C29 1_555 1_555
C30 C29 1_555 1_555
H21 C30 1_555 1_555
C31 C30 1_555 1_555
H22 C31 1_555 1_555
C32 C31 1_555 1_555
H23 C32 1_555 1_555
C33 O3 1_555 1_555
N3A Mn1 1_555 1_555
Mn1A N3 1_555 1_555
C6 C7 1_555 1_555
C7 C8 1_555 1_555
C9 C17 1_555 1_555
C13 C17 1_555 1_555
C15 C16 1_555 1_555
C22 C23 1_555 1_555
C23 C24 1_555 1_555
C25 C26 1_555 1_555
C28 C33 1_555 1_555
C32 C33 1_555 1_555

#END
