
#######################################################################
#
#                 Cambridge Crystallographic Data Centre
#                                CCDC 
#
#######################################################################
#
# If this CIF has been generated from an entry in the Cambridge 
# Structural Database, then it will include bibliographic, chemical, 
# crystal, experimental, refinement or atomic coordinate data resulting 
# from the CCDC's data processing and validation procedures.
#
#######################################################################

data_VIRPAO
_symmetry_cell_setting           orthorhombic
_symmetry_space_group_name_H-M   'P n m a'
_symmetry_Int_Tables_number      62
_space_group_name_Hall           '-P 2ac 2n'
loop_
_symmetry_equiv_pos_site_id
_symmetry_equiv_pos_as_xyz
1 x,y,z
2 1/2-x,-y,1/2+z
3 -x,1/2+y,-z
4 1/2+x,1/2-y,1/2-z
5 -x,-y,-z
6 1/2+x,y,1/2-z
7 x,1/2-y,z
8 1/2-x,1/2+y,1/2+z
_cell_length_a                   20.0097(9)
_cell_length_b                   14.6258(7)
_cell_length_c                   6.8073(3)
_cell_angle_alpha                90
_cell_angle_beta                 90
_cell_angle_gamma                90
_cell_volume                     1992.21
loop_
_atom_site_label
_atom_site_type_symbol
_atom_site_fract_x
_atom_site_fract_y
_atom_site_fract_z
Mn1 Mn 0.462524(14) 0.121965(18) 0.24106(4)
Mn2 Mn 0.375677(18) 0.2500 0.53420(5)
Mn3 Mn 0.286678(14) 0.122067(18) 0.82304(4)
S1 S 0.44920(2) 0.08221(3) 0.75693(6)
S2 S 0.30065(2) 0.41690(3) 0.30746(7)
O1 O 0.40916(10) 0.2500 0.2454(3)
O2 O 0.45102(6) 0.14231(9) 0.57949(19)
O3 O 0.47208(7) 0.13857(10) 0.92452(19)
O4 O 0.49466(7) 0.00575(9) 0.7257(2)
O5 O 0.38097(6) 0.04917(9) 0.7923(2)
O6 O 0.33982(10) 0.2500 0.8205(3)
O7 O 0.25428(7) 0.49221(9) 0.3403(2)
O8 O 0.27827(7) 0.35929(9) 0.1415(2)
O9 O 0.30016(7) 0.35756(9) 0.4865(2)
O10 O 0.36822(6) 0.45161(9) 0.2696(2)
N1 N 0.66119(12) 0.2500 0.2644(3)
H1 H 0.7052 0.2500 0.2648
N2 N 0.55798(8) 0.20234(10) 0.2628(2)
N3 N 0.19140(8) 0.20219(10) 0.7748(2)
N4 N 0.09038(12) 0.2500 0.7114(3)
H2 H 0.0474 0.2500 0.6844
C1 C 0.62077(9) 0.17618(13) 0.2640(3)
H3 H 0.6355 0.1144 0.2646
C2 C 0.12994(9) 0.17602(13) 0.7362(3)
H4 H 0.1155 0.1143 0.7271
H5 H 0.372(3) 0.2500 0.895(9)
H6 H 0.384(3) 0.2500 0.183(9)
Mn1F Mn 0.462524(14) 0.378035(18) 0.24106(4)
Mn1_2 Mn 0.462524(14) 0.121965(18) 1.24106(4)
Mn1D Mn 0.537476(14) -0.121965(18) 0.75894(4)
Mn1F_2 Mn 0.462524(14) 0.378035(18) 1.24106(4)
Mn1B Mn 0.537476(14) 0.621965(18) 0.75894(4)
Mn3F Mn 0.286678(14) 0.377933(18) 0.82304(4)
Mn3G Mn 0.213322(14) 0.622067(18) 0.32304(4)
Mn3F_2 Mn 0.286678(14) 0.377933(18) -0.17696(4)
Mn3A Mn 0.213322(14) -0.122067(18) 0.32304(4)
Mn3_2 Mn 0.286678(14) 0.122067(18) -0.17696(4)
S1F S 0.44920(2) 0.41779(3) 0.75693(6)
S2F S 0.30065(2) 0.08310(3) 0.30746(7)
O2F O 0.45102(6) 0.35769(9) 0.57949(19)
O3F O 0.47208(7) 0.36143(10) 0.92452(19)
O3_2 O 0.47208(7) 0.13857(10) -0.07548(19)
O3F_2 O 0.47208(7) 0.36143(10) -0.07548(19)
O4F O 0.49466(7) 0.49425(9) 0.7257(2)
O4D O 0.50534(7) -0.00575(9) 0.2743(2)
O4B O 0.50534(7) 0.50575(9) 0.2743(2)
O5F O 0.38097(6) 0.45083(9) 0.7923(2)
O7F O 0.25428(7) 0.00779(9) 0.3403(2)
O7G O 0.24572(7) -0.00779(9) 0.8403(2)
O7A O 0.24572(7) 0.50779(9) 0.8403(2)
O8F O 0.27827(7) 0.14071(9) 0.1415(2)
O8F_2 O 0.27827(7) 0.14071(9) 1.1415(2)
O8_2 O 0.27827(7) 0.35929(9) 1.1415(2)
O9F O 0.30016(7) 0.14244(9) 0.4865(2)
O10F O 0.36822(6) 0.04839(9) 0.2696(2)
N2F N 0.55798(8) 0.29766(10) 0.2628(2)
N3F N 0.19140(8) 0.29781(10) 0.7748(2)
C1F C 0.62077(9) 0.32382(13) 0.2640(3)
H3F H 0.6355 0.3856 0.2646
C2F C 0.12994(9) 0.32398(13) 0.7362(3)
H4F H 0.1155 0.3857 0.7271
loop_
_geom_bond_atom_site_label_1
_geom_bond_atom_site_label_2
_geom_bond_site_symmetry_1
_geom_bond_site_symmetry_2
Mn1 O1 1_555 1_555
Mn2 O1 1_555 1_555
Mn3 O5 1_555 1_555
S1 O2 1_555 1_555
S2 O7 1_555 1_555
O1 H6 1_555 1_555
O2 Mn1 1_555 1_555
O3 S1 1_555 1_555
O4 S1 1_555 1_555
O5 S1 1_555 1_555
O6 Mn2 1_555 1_555
O7 Mn3G 1_555 1_555
O8 S2 1_555 1_555
O9 Mn2 1_555 1_555
O10 S2 1_555 1_555
N1 H1 1_555 1_555
N2 Mn1 1_555 1_555
N3 Mn3 1_555 1_555
N4 H2 1_555 1_555
C1 N1 1_555 1_555
H3 C1 1_555 1_555
C2 N3 1_555 1_555
H4 C2 1_555 1_555
H5 O6 1_555 1_555
Mn1F O1 1_555 1_555
Mn1_2 O3 1_555 1_555
Mn1D O4 1_555 1_555
Mn1F_2 O3F 1_555 1_555
Mn1B O4F 1_555 1_555
Mn3F O6 1_555 1_555
Mn3F_2 O8 1_555 1_555
Mn3A O7F 1_555 1_555
Mn3_2 O8F 1_555 1_555
S1F O2F 1_555 1_555
S2F O7F 1_555 1_555
O2F Mn2 1_555 1_555
O3F S1F 1_555 1_555
O3_2 Mn1 1_555 1_555
O3F_2 Mn1F 1_555 1_555
O4F S1F 1_555 1_555
O4D Mn1 1_555 1_555
O4B Mn1F 1_555 1_555
O5F Mn3F 1_555 1_555
O7G Mn3 1_555 1_555
O7A Mn3F 1_555 1_555
O8F S2F 1_555 1_555
O8F_2 Mn3 1_555 1_555
O8_2 Mn3F 1_555 1_555
O9F Mn2 1_555 1_555
O10F Mn1 1_555 1_555
N2F N2 1_555 1_555
N3F N3 1_555 1_555
C1F N1 1_555 1_555
H3F C1F 1_555 1_555
C2F N4 1_555 1_555
H4F C2F 1_555 1_555
Mn2 O2 1_555 1_555
Mn3 O6 1_555 1_555
Mn3 O9F 1_555 1_555
S2 O9 1_555 1_555
O9 Mn3F 1_555 1_555
O10 Mn1F 1_555 1_555
N2 C1 1_555 1_555
N4 C2 1_555 1_555
Mn1F O2F 1_555 1_555
Mn1F N2F 1_555 1_555
Mn3F N3F 1_555 1_555
S1F O5F 1_555 1_555
S2F O9F 1_555 1_555
S2F O10F 1_555 1_555
N2F C1F 1_555 1_555
N3F C2F 1_555 1_555

#END
