
#######################################################################
#
#                 Cambridge Crystallographic Data Centre
#                                CCDC 
#
#######################################################################
#
# If this CIF has been generated from an entry in the Cambridge 
# Structural Database, then it will include bibliographic, chemical, 
# crystal, experimental, refinement or atomic coordinate data resulting 
# from the CCDC's data processing and validation procedures.
#
#######################################################################

data_VIRPES
_symmetry_cell_setting           orthorhombic
_symmetry_space_group_name_H-M   'P n m a'
_symmetry_Int_Tables_number      62
_space_group_name_Hall           '-P 2ac 2n'
loop_
_symmetry_equiv_pos_site_id
_symmetry_equiv_pos_as_xyz
1 x,y,z
2 1/2-x,-y,1/2+z
3 -x,1/2+y,-z
4 1/2+x,1/2-y,1/2-z
5 -x,-y,-z
6 1/2+x,y,1/2-z
7 x,1/2-y,z
8 1/2-x,1/2+y,1/2+z
_cell_length_a                   19.7957(10)
_cell_length_b                   14.3606(7)
_cell_length_c                   6.6990(3)
_cell_angle_alpha                90
_cell_angle_beta                 90
_cell_angle_gamma                90
_cell_volume                     1904.38
loop_
_atom_site_label
_atom_site_type_symbol
_atom_site_fract_x
_atom_site_fract_y
_atom_site_fract_z
Fe1 Fe 0.463347(19) 0.12402(3) 1.26109(6)
Fe2 Fe 0.37607(2) 0.2500 0.97351(8)
Fe3 Fe 0.286359(19) 0.12375(3) 0.68703(6)
S1 S 0.44766(3) 0.08054(4) 0.74598(9)
S2 S 0.30208(3) 0.08195(4) 1.20202(10)
O1 O 0.40962(14) 0.2500 1.2606(4)
O2 O 0.45003(10) 0.14235(13) 0.9263(3)
O3 O 0.49269(10) 0.00204(14) 0.7802(3)
O4 O 0.47178(11) 0.13757(14) 0.5766(3)
O5 O 0.37872(10) 0.04807(13) 0.7107(3)
O6 O 0.33971(14) 0.2500 0.6890(4)
O7 O 0.27842(10) 0.14050(14) 1.3694(3)
O8 O 0.37042(10) 0.04770(13) 1.2416(3)
O9 O 0.25575(10) 0.00537(14) 1.1657(3)
O10 O 0.30174(10) 0.14281(13) 1.0204(3)
N1 N 0.55653(11) 0.20175(15) 1.2440(3)
N2 N 0.66049(18) 0.2500 1.2376(5)
N3 N 0.19363(11) 0.20148(15) 0.7257(3)
N4 N 0.09127(17) 0.2500 0.7820(5)
C1 C 0.61974(14) 0.17499(19) 1.2404(4)
C2 C 0.13124(14) 0.17451(19) 0.7601(4)
H1 H 0.6336(19) 0.129(3) 1.244(6)
H2 H 0.117(2) 0.124(3) 0.777(6)
H3 H 0.697(4) 0.2500 1.230(12)
H4 H 0.052(4) 0.2500 0.828(12)
Fe1F Fe 0.463347(19) 0.37598(3) 1.26109(6)
Fe1D Fe 0.536653(19) -0.12402(3) 0.73891(6)
Fe1_2 Fe 0.463347(19) 0.12402(3) 0.26109(6)
Fe1B Fe 0.536653(19) 0.62402(3) 0.73891(6)
Fe1F_2 Fe 0.463347(19) 0.37598(3) 0.26109(6)
Fe3F Fe 0.286359(19) 0.37625(3) 0.68703(6)
Fe3_2 Fe 0.286359(19) 0.12375(3) 1.68703(6)
Fe3A Fe 0.213641(19) -0.12375(3) 1.18703(6)
Fe3F_2 Fe 0.286359(19) 0.37625(3) 1.68703(6)
Fe3G Fe 0.213641(19) 0.62375(3) 1.18703(6)
S1F S 0.44766(3) 0.41946(4) 0.74598(9)
S2F S 0.30208(3) 0.41805(4) 1.20202(10)
O2F O 0.45003(10) 0.35765(13) 0.9263(3)
O3F O 0.49269(10) 0.49796(14) 0.7802(3)
O3D O 0.50731(10) -0.00204(14) 1.2198(3)
O3B O 0.50731(10) 0.50204(14) 1.2198(3)
O4F O 0.47178(11) 0.36243(14) 0.5766(3)
O4_2 O 0.47178(11) 0.13757(14) 1.5766(3)
O4F_2 O 0.47178(11) 0.36243(14) 1.5766(3)
O5F O 0.37872(10) 0.45193(13) 0.7107(3)
O7F O 0.27842(10) 0.35950(14) 1.3694(3)
O7_2 O 0.27842(10) 0.14050(14) 0.3694(3)
O7F_2 O 0.27842(10) 0.35950(14) 0.3694(3)
O8F O 0.37042(10) 0.45230(13) 1.2416(3)
O9F O 0.25575(10) 0.49463(14) 1.1657(3)
O9A O 0.24425(10) -0.00537(14) 0.6657(3)
O9G O 0.24425(10) 0.50537(14) 0.6657(3)
O10F O 0.30174(10) 0.35719(13) 1.0204(3)
N1F N 0.55653(11) 0.29825(15) 1.2440(3)
N3F N 0.19363(11) 0.29852(15) 0.7257(3)
C1F C 0.61974(14) 0.32501(19) 1.2404(4)
C2F C 0.13124(14) 0.32549(19) 0.7601(4)
H1F H 0.6336(19) 0.371(3) 1.244(6)
H2F H 0.117(2) 0.376(3) 0.777(6)
loop_
_geom_bond_atom_site_label_1
_geom_bond_atom_site_label_2
_geom_bond_site_symmetry_1
_geom_bond_site_symmetry_2
Fe1 O1 1_555 1_555
Fe2 O1 1_555 1_555
Fe3 O5 1_555 1_555
S1 O2 1_555 1_555
S2 O7 1_555 1_555
O1 Fe1F 1_555 1_555
O2 Fe1 1_555 1_555
O3 S1 1_555 1_555
O4 S1 1_555 1_555
O5 S1 1_555 1_555
O6 Fe2 1_555 1_555
O7 Fe3_2 1_555 1_555
O8 Fe1 1_555 1_555
O9 S2 1_555 1_555
O10 Fe2 1_555 1_555
N1 Fe1 1_555 1_555
N2 C1 1_555 1_555
N3 Fe3 1_555 1_555
N4 C2 1_555 1_555
C1 N1 1_555 1_555
C2 N3 1_555 1_555
H1 C1 1_555 1_555
H2 C2 1_555 1_555
H3 N2 1_555 1_555
H4 N4 1_555 1_555
Fe1F O2F 1_555 1_555
Fe1D O3 1_555 1_555
Fe1_2 O4 1_555 1_555
Fe1B O3F 1_555 1_555
Fe1F_2 O4F 1_555 1_555
Fe3F O6 1_555 1_555
Fe3A O9 1_555 1_555
Fe3F_2 O7F 1_555 1_555
Fe3G O9F 1_555 1_555
S1F O2F 1_555 1_555
S2F O7F 1_555 1_555
O2F Fe2 1_555 1_555
O3F S1F 1_555 1_555
O3D Fe1 1_555 1_555
O3B Fe1F 1_555 1_555
O4F S1F 1_555 1_555
O4_2 Fe1 1_555 1_555
O4F_2 Fe1F 1_555 1_555
O5F Fe3F 1_555 1_555
O7_2 Fe3 1_555 1_555
O7F_2 Fe3F 1_555 1_555
O8F Fe1F 1_555 1_555
O9F S2F 1_555 1_555
O9A Fe3 1_555 1_555
O9G Fe3F 1_555 1_555
O10F Fe2 1_555 1_555
N1F N1 1_555 1_555
N3F N3 1_555 1_555
C1F N2 1_555 1_555
C2F N4 1_555 1_555
H1F C1F 1_555 1_555
H2F C2F 1_555 1_555
Fe2 O2 1_555 1_555
Fe3 O6 1_555 1_555
Fe3 O10 1_555 1_555
S2 O8 1_555 1_555
S2 O10 1_555 1_555
Fe1F N1F 1_555 1_555
Fe3F O10F 1_555 1_555
Fe3F N3F 1_555 1_555
S1F O5F 1_555 1_555
S2F O8F 1_555 1_555
S2F O10F 1_555 1_555
N1F C1F 1_555 1_555
N3F C2F 1_555 1_555

#END
