
#######################################################################
#
#                 Cambridge Crystallographic Data Centre
#                                CCDC 
#
#######################################################################
#
# If this CIF has been generated from an entry in the Cambridge 
# Structural Database, then it will include bibliographic, chemical, 
# crystal, experimental, refinement or atomic coordinate data resulting 
# from the CCDC's data processing and validation procedures.
#
#######################################################################

data_VIRWUQ
_symmetry_cell_setting           tetragonal
_symmetry_space_group_name_H-M   'P 41'
_symmetry_Int_Tables_number      76
_space_group_name_Hall           'P 4w'
loop_
_symmetry_equiv_pos_site_id
_symmetry_equiv_pos_as_xyz
1 x,y,z
2 -x,-y,1/2+z
3 -y,x,1/4+z
4 y,-x,3/4+z
_cell_length_a                   9.368(3)
_cell_length_b                   9.368(3)
_cell_length_c                   30.389(16)
_cell_angle_alpha                90
_cell_angle_beta                 90
_cell_angle_gamma                90
_cell_volume                     2666.92
loop_
_atom_site_label
_atom_site_type_symbol
_atom_site_fract_x
_atom_site_fract_y
_atom_site_fract_z
Zn1 Zn 0.66822(6) 0.73958(6) -0.086900(16)
C1 C 0.4036(7) 0.5752(7) -0.1039(3)
H1 H 0.3027 0.5567 -0.0995
H2 H 0.4267 0.5552 -0.1344
C2 C 0.4865(8) 0.4844(9) -0.0754(3)
H3 H 0.4645 0.3855 -0.0820
H4 H 0.4594 0.5023 -0.0451
C3 C 0.7197(9) 0.4198(7) -0.1118(2)
H5 H 0.8206 0.4430 -0.1108
H6 H 0.6854 0.4435 -0.1411
C4 C 0.7024(8) 0.2594(6) -0.10475(19)
C5 C 0.7500(8) 0.1956(7) -0.0669(2)
H7 H 0.7931 0.2494 -0.0449
C6 C 0.7329(7) 0.0492(6) -0.06202(19)
H8 H 0.7688 0.0059 -0.0368
C7 C 0.6193(7) 0.0321(6) -0.12850(19)
H9 H 0.5739 -0.0229 -0.1498
C8 C 0.6357(8) 0.1788(7) -0.13532(19)
H10 H 0.6008 0.2208 -0.1609
C9 C 0.3511(6) 0.7939(8) -0.0593(2)
H11 H 0.3722 0.8952 -0.0585
H12 H 0.3781 0.7534 -0.0312
C10 C 0.1907(6) 0.7735(7) -0.06611(18)
C11 C 0.1104(6) 0.6779(8) -0.0409(2)
H13 H 0.1544 0.6229 -0.0193
C12 C -0.0335(6) 0.6659(7) -0.04817(19)
H14 H -0.0858 0.6033 -0.0307
C13 C -0.0262(7) 0.8305(7) -0.10380(19)
H15 H -0.0730 0.8835 -0.1253
C14 C 0.1208(7) 0.8492(8) -0.0985(2)
H16 H 0.1708 0.9118 -0.1165
N1 N 0.4356(5) 0.7278(5) -0.09366(16)
H17 H 0.4147 0.7770 -0.1187
N2 N 0.6457(5) 0.5075(5) -0.08033(16)
H18 H 0.6841 0.4853 -0.0537
N3 N 0.6683(5) -0.0313(5) -0.09145(16)
N4 N -0.1022(5) 0.7402(5) -0.07940(15)
O1 O 0.6545(4) 0.7537(4) -0.01373(14)
O2 O 0.6884(4) 0.7187(4) -0.15819(15)
Zn1_2 Zn -0.33178(6) 0.73958(6) -0.086900(16)
Zn1_3 Zn 0.66822(6) -0.26042(6) -0.086900(16)
N3_2 N 0.6683(5) 0.9687(5) -0.09145(16)
N4_2 N 0.8978(5) 0.7402(5) -0.07940(15)
Cl1 Cl -0.2599(3) 1.1338(3) 0.13540(10)
O3 O -0.342(2) 1.0864(12) 0.1664(6)
O4 O -0.2024(15) 1.2618(10) 0.1444(4)
O5 O -0.1685(10) 1.0440(12) 0.1131(4)
O6 O -0.344(2) 1.179(4) 0.1038(8)
C15 C 0.2651(8) 0.3632(7) 0.0394(2)
C16 C 0.2920(11) 0.2391(8) 0.0096(2)
H19 H 0.2956 0.2720 -0.0210
C17 C 0.4324(11) 0.1595(10) 0.0211(5)
H20 H 0.4872 0.1404 -0.0054
H21 H 0.4902 0.2160 0.0410
C18 C 0.3873(9) 0.0224(9) 0.0426(3)
H22 H 0.4406 -0.0575 0.0306
H23 H 0.4030 0.0266 0.0741
C19 C 0.2359(8) 0.0077(7) 0.03280(18)
N5 N 0.1899(7) 0.1260(6) 0.01353(19)
H24 H 0.1039 0.1343 0.0040
O7 O 0.3546(6) 0.4627(5) 0.03811(15)
O8 O 0.1558(6) 0.3654(6) 0.06258(19)
O9 O 0.1618(6) -0.0992(5) 0.04034(16)
O10 O 0.8612(6) 0.9014(7) 0.03143(17)
O11 O 0.6439(6) 0.4883(6) 0.02021(17)
O12 O -0.1229(9) 0.3064(9) 0.0370(3)
loop_
_geom_bond_atom_site_label_1
_geom_bond_atom_site_label_2
_geom_bond_site_symmetry_1
_geom_bond_site_symmetry_2
Zn1 N1 1_555 1_555
C1 H1 1_555 1_555
H2 C1 1_555 1_555
C2 C1 1_555 1_555
H3 C2 1_555 1_555
H4 C2 1_555 1_555
C3 H5 1_555 1_555
H6 C3 1_555 1_555
C4 C3 1_555 1_555
C5 C4 1_555 1_555
H7 C5 1_555 1_555
C6 C5 1_555 1_555
H8 C6 1_555 1_555
C7 H9 1_555 1_555
C8 C4 1_555 1_555
H10 C8 1_555 1_555
C9 H11 1_555 1_555
H12 C9 1_555 1_555
C10 C9 1_555 1_555
C11 C10 1_555 1_555
H13 C11 1_555 1_555
C12 C11 1_555 1_555
H14 C12 1_555 1_555
C13 H15 1_555 1_555
C14 C10 1_555 1_555
H16 C14 1_555 1_555
N1 C1 1_555 1_555
H17 N1 1_555 1_555
N2 Zn1 1_555 1_555
H18 N2 1_555 1_555
N3 C6 1_555 1_555
N4 C12 1_555 1_555
O1 Zn1 1_555 1_555
O2 Zn1 1_555 1_555
Cl1 O3 1_555 1_555
O4 Cl1 1_555 1_555
O5 Cl1 1_555 1_555
O6 Cl1 1_555 1_555
C15 C16 1_555 1_555
C16 H19 1_555 1_555
C17 C16 1_555 1_555
H20 C17 1_555 1_555
H21 C17 1_555 1_555
C18 C17 1_555 1_555
H22 C18 1_555 1_555
H23 C18 1_555 1_555
C19 C18 1_555 1_555
N5 C16 1_555 1_555
H24 N5 1_555 1_555
O7 C15 1_555 1_555
O8 C15 1_555 1_555
O9 C19 1_555 1_555
Zn1_2 N4 1_555 1_555
Zn1_3 N3 1_555 1_555
N3_2 Zn1 1_555 1_555
N4_2 Zn1 1_555 1_555
C2 N2 1_555 1_555
C3 N2 1_555 1_555
C7 C8 1_555 1_555
C7 N3 1_555 1_555
C9 N1 1_555 1_555
C13 C14 1_555 1_555
C13 N4 1_555 1_555
C19 N5 1_555 1_555

#END
