
#######################################################################
#
#                 Cambridge Crystallographic Data Centre
#                                CCDC 
#
#######################################################################
#
# If this CIF has been generated from an entry in the Cambridge 
# Structural Database, then it will include bibliographic, chemical, 
# crystal, experimental, refinement or atomic coordinate data resulting 
# from the CCDC's data processing and validation procedures.
#
#######################################################################

data_VIRYOL
_symmetry_cell_setting           triclinic
_symmetry_space_group_name_H-M   'P -1'
_symmetry_Int_Tables_number      2
_space_group_name_Hall           '-P 1'
loop_
_symmetry_equiv_pos_site_id
_symmetry_equiv_pos_as_xyz
1 x,y,z
2 -x,-y,-z
_cell_length_a                   9.0373(18)
_cell_length_b                   10.577(2)
_cell_length_c                   11.947(2)
_cell_angle_alpha                87.80(3)
_cell_angle_beta                 81.71(3)
_cell_angle_gamma                85.29(3)
_cell_volume                     1125.83
loop_
_atom_site_label
_atom_site_type_symbol
_atom_site_fract_x
_atom_site_fract_y
_atom_site_fract_z
V1 V 0.08716(15) 0.13179(13) 0.85385(12)
V2 V 0.17483(15) 0.09757(13) 1.10039(12)
Co1 Co 0.45987(12) 0.00327(10) 0.86543(9)
O1 O 0.3523(6) 0.0418(5) 1.0523(5)
O2 O 0.2498(6) 0.0543(5) 0.8145(5)
O3 O 0.0949(6) 0.1860(6) 0.9921(5)
O4 O 0.1686(7) 0.1895(6) 1.2049(5)
O5 O -0.0611(6) 0.0306(6) 0.8588(5)
O6 O 0.0641(8) 0.2522(6) 0.7687(5)
C1 C 0.6527(10) 0.2408(8) 0.8382(7)
H1 H 0.7257 0.2026 0.8786
C2 C 0.2666(10) -0.2216(8) 0.8745(7)
H2 H 0.1847 -0.1667 0.8617
C3 C 0.4882(10) -0.2951(8) 0.9017(7)
H3 H 0.5891 -0.2999 0.9107
C4 C 0.4454(10) 0.2772(8) 0.7720(7)
H4 H 0.3487 0.2714 0.7558
C5 C 0.6670(11) 0.3471(9) 0.7748(7)
H5 H 0.7502 0.3947 0.7617
C6 C 0.1315(9) -0.4181(8) 0.8850(8)
H6 H 0.1561 -0.4862 0.8317
H7 H 0.0523 -0.3618 0.8592
C7 C 0.4035(10) -0.3943(8) 0.9045(7)
H8 H 0.4351 -0.4790 0.9166
C8 C 0.6473(11) -0.1200(10) 0.5307(8)
H9 H 0.6639 -0.1777 0.4725
C9 C 0.5602(10) -0.1323(9) 0.6322(8)
H10 H 0.5047 -0.2016 0.6543
C10 C 0.0754(10) -0.4736(9) 1.0007(8)
H11 H 0.0656 -0.4083 1.0567
H12 H 0.1471 -0.5407 1.0214
C11 C 0.6521(11) 0.0439(9) 0.6317(7)
H13 H 0.6742 0.1230 0.6533
C12 C 0.5251(13) 0.4444(9) 0.5372(8)
H14 H 0.4731 0.3709 0.5243
H15 H 0.6318 0.4233 0.5166
C13 C 0.4941(12) 0.4750(9) 0.6571(8)
H16 H 0.5492 0.5469 0.6695
H17 H 0.3880 0.5004 0.6758
C14 C 0.8134(11) 0.0509(11) 0.4421(8)
H18 H 0.8109 0.1416 0.4527
H19 H 0.7836 0.0382 0.3688
C15 C 0.9702(11) -0.0072(12) 0.4443(8)
H20 H 1.0364 0.0317 0.3839
H21 H 0.9728 -0.0968 0.4290
N1 N 0.4004(7) -0.1843(7) 0.8830(6)
N2 N 0.5139(7) 0.1958(7) 0.8354(5)
N3 N 0.7055(9) -0.0056(8) 0.5319(6)
N4 N 0.5642(7) -0.0316(7) 0.6970(6)
N5 N 0.2628(8) -0.3483(6) 0.8865(6)
N6 N 0.5333(8) 0.3716(7) 0.7329(6)
V1A V -0.08716(15) -0.13179(13) 1.14615(12)
V2A V -0.17483(15) -0.09757(13) 0.89961(12)
V2A_2 V 0.82517(15) -0.09757(13) 0.89961(12)
Co1A Co 0.54013(12) -0.00327(10) 1.13457(9)
Co1A_2 Co 0.54013(12) 0.99673(10) 0.13457(9)
Co1A_3 Co -0.45987(12) -1.00327(10) 1.13457(9)
Co1A_4 Co 1.54013(12) -0.00327(10) 0.13457(9)
Co1A_5 Co -0.45987(12) -0.00327(10) 1.13457(9)
O1A O 0.6477(6) -0.0418(5) 0.9477(5)
O1A_2 O -0.3523(6) -0.0418(5) 0.9477(5)
O2A O -0.2498(6) -0.0543(5) 1.1855(5)
O2A_2 O 0.7502(6) -0.0543(5) 1.1855(5)
O3A O -0.0949(6) -0.1860(6) 1.0079(5)
O4A O -0.1686(7) -0.1895(6) 0.7951(5)
O5A O 0.0611(6) -0.0306(6) 1.1412(5)
O6A O -0.0641(8) -0.2522(6) 1.2313(5)
C1A C 0.3473(10) 0.7592(8) 0.1618(7)
H1A H 0.2743 0.7974 0.1214
C2A C -0.2666(10) -0.7784(8) 1.1255(7)
H2A H -0.1847 -0.8333 1.1383
C3A C -0.4882(10) -0.7049(8) 1.0983(7)
H3A H -0.5891 -0.7001 1.0893
C4A C 0.5546(10) 0.7228(8) 0.2280(7)
H4A H 0.6513 0.7286 0.2442
C5A C 0.3330(11) 0.6529(9) 0.2252(7)
H5A H 0.2498 0.6053 0.2383
C6A C -0.1315(9) -0.5819(8) 1.1150(8)
H6A H -0.1561 -0.5138 1.1683
H7A H -0.0523 -0.6382 1.1408
C7A C -0.4035(10) -0.6057(8) 1.0955(7)
H8A H -0.4351 -0.5210 1.0834
C8A C 1.3527(11) 0.1200(10) 0.4693(8)
H9A H 1.3361 0.1777 0.5275
C9A C 1.4398(10) 0.1323(9) 0.3678(8)
H10A H 1.4953 0.2016 0.3457
C10A C -0.0754(10) -0.5264(9) 0.9993(8)
H11A H -0.0656 -0.5917 0.9433
H12A H -0.1471 -0.4593 0.9786
C11A C 1.3479(11) -0.0439(9) 0.3683(7)
H13A H 1.3258 -0.1230 0.3467
C12A C 0.4749(13) 0.5556(9) 0.4628(8)
H14A H 0.5269 0.6291 0.4757
H15A H 0.3682 0.5767 0.4834
C13A C 0.5059(12) 0.5250(9) 0.3429(8)
H16A H 0.4508 0.4531 0.3305
H17A H 0.6120 0.4996 0.3242
C14A C 1.1866(11) -0.0509(11) 0.5579(8)
H18A H 1.1891 -0.1416 0.5473
H19A H 1.2164 -0.0382 0.6312
C15A C 1.0298(11) 0.0072(12) 0.5557(8)
H20A H 0.9636 -0.0317 0.6161
H21A H 1.0272 0.0968 0.5710
N1A N -0.4004(7) -0.8157(7) 1.1170(6)
N1A_2 N 0.5996(7) 0.1843(7) 1.1170(6)
N2A N 0.4861(7) 0.8042(7) 0.1646(5)
N2A_2 N 0.4861(7) -0.1958(7) 1.1646(5)
N3A N 1.2945(9) 0.0056(8) 0.4681(6)
N4A N 1.4358(7) 0.0316(7) 0.3030(6)
N4A_2 N 0.4358(7) 0.0316(7) 1.3030(6)
N5A N -0.2628(8) -0.6517(6) 1.1135(6)
N6A N 0.4667(8) 0.6284(7) 0.2671(6)
O7 O 0.1286(10) 0.4229(8) 0.5961(7)
O8 O 0.1206(15) 0.3908(12) 0.3661(11)
loop_
_geom_bond_atom_site_label_1
_geom_bond_atom_site_label_2
_geom_bond_site_symmetry_1
_geom_bond_site_symmetry_2
V1 O2 1_555 1_555
V2 O1 1_555 1_555
Co1 O1 1_555 1_555
O1 Co1A 1_555 1_555
O2 Co1 1_555 1_555
O3 V1 1_555 1_555
O4 V2 1_555 1_555
O5 V1 1_555 1_555
O6 V1 1_555 1_555
C1 H1 1_555 1_555
C2 H2 1_555 1_555
C3 H3 1_555 1_555
C4 H4 1_555 1_555
C5 C1 1_555 1_555
H5 C5 1_555 1_555
C6 H6 1_555 1_555
H7 C6 1_555 1_555
C7 C3 1_555 1_555
H8 C7 1_555 1_555
C8 H9 1_555 1_555
C9 C8 1_555 1_555
H10 C9 1_555 1_555
C10 C6 1_555 1_555
H11 C10 1_555 1_555
H12 C10 1_555 1_555
C11 H13 1_555 1_555
C12 H14 1_555 1_555
H15 C12 1_555 1_555
C13 C12 1_555 1_555
H16 C13 1_555 1_555
H17 C13 1_555 1_555
C14 H18 1_555 1_555
H19 C14 1_555 1_555
C15 C14 1_555 1_555
H20 C15 1_555 1_555
H21 C15 1_555 1_555
N1 Co1 1_555 1_555
N2 Co1 1_555 1_555
N3 C8 1_555 1_555
N4 Co1 1_555 1_555
N5 C2 1_555 1_555
N6 C4 1_555 1_555
V1A O2A 1_555 1_555
V2A O5 1_555 1_555
V2A_2 O1A 1_555 1_555
Co1A O1A 1_555 1_555
Co1A_2 N2A 1_555 1_555
Co1A_3 N1A 1_555 1_555
Co1A_4 N4A 1_555 1_555
Co1A_5 O1A_2 1_555 1_555
O1A Co1 1_555 1_555
O1A_2 V2A 1_555 1_555
O2A Co1A_5 1_555 1_555
O2A_2 Co1A 1_555 1_555
O3A V1A 1_555 1_555
O4A V2A 1_555 1_555
O5A V2 1_555 1_555
O6A V1A 1_555 1_555
C1A H1A 1_555 1_555
C2A H2A 1_555 1_555
C3A H3A 1_555 1_555
C4A H4A 1_555 1_555
C5A C1A 1_555 1_555
H5A C5A 1_555 1_555
C6A H6A 1_555 1_555
H7A C6A 1_555 1_555
C7A C3A 1_555 1_555
H8A C7A 1_555 1_555
C8A H9A 1_555 1_555
C9A C8A 1_555 1_555
H10A C9A 1_555 1_555
C10A C10 1_555 1_555
H11A C10A 1_555 1_555
H12A C10A 1_555 1_555
C11A H13A 1_555 1_555
C12A C12 1_555 1_555
H14A C12A 1_555 1_555
H15A C12A 1_555 1_555
C13A C12A 1_555 1_555
H16A C13A 1_555 1_555
H17A C13A 1_555 1_555
C14A H18A 1_555 1_555
H19A C14A 1_555 1_555
C15A C15 1_555 1_555
H20A C15A 1_555 1_555
H21A C15A 1_555 1_555
N1A C2A 1_555 1_555
N1A_2 Co1A 1_555 1_555
N2A C1A 1_555 1_555
N2A_2 Co1A 1_555 1_555
N3A C8A 1_555 1_555
N4A C9A 1_555 1_555
N4A_2 Co1A 1_555 1_555
N5A C2A 1_555 1_555
N6A C4A 1_555 1_555
V2 O3 1_555 1_555
C1 N2 1_555 1_555
C2 N1 1_555 1_555
C3 N1 1_555 1_555
C4 N2 1_555 1_555
C5 N6 1_555 1_555
C6 N5 1_555 1_555
C7 N5 1_555 1_555
C9 N4 1_555 1_555
C11 N3 1_555 1_555
C11 N4 1_555 1_555
C13 N6 1_555 1_555
C14 N3 1_555 1_555
V1A O5A 1_555 1_555
V2A O3A 1_555 1_555
C3A N1A 1_555 1_555
C4A N2A 1_555 1_555
C5A N6A 1_555 1_555
C6A C10A 1_555 1_555
C6A N5A 1_555 1_555
C7A N5A 1_555 1_555
C11A N3A 1_555 1_555
C11A N4A 1_555 1_555
C13A N6A 1_555 1_555
C14A C15A 1_555 1_555
C14A N3A 1_555 1_555

#END
