
#######################################################################
#
#                 Cambridge Crystallographic Data Centre
#                                CCDC 
#
#######################################################################
#
# If this CIF has been generated from an entry in the Cambridge 
# Structural Database, then it will include bibliographic, chemical, 
# crystal, experimental, refinement or atomic coordinate data resulting 
# from the CCDC's data processing and validation procedures.
#
#######################################################################

data_VIRYIF
_symmetry_cell_setting           triclinic
_symmetry_space_group_name_H-M   'P -1'
_symmetry_Int_Tables_number      2
_space_group_name_Hall           '-P 1'
loop_
_symmetry_equiv_pos_site_id
_symmetry_equiv_pos_as_xyz
1 x,y,z
2 -x,-y,-z
_cell_length_a                   9.5040(19)
_cell_length_b                   10.650(2)
_cell_length_c                   11.993(2)
_cell_angle_alpha                72.13(3)
_cell_angle_beta                 76.02(3)
_cell_angle_gamma                65.40(3)
_cell_volume                     1041.35
loop_
_atom_site_label
_atom_site_type_symbol
_atom_site_fract_x
_atom_site_fract_y
_atom_site_fract_z
V1 V 1.08233(8) 1.09602(7) 0.28365(6)
V2 V 0.78846(9) 1.18729(7) 0.50308(6)
Cu1 Cu 0.5000 1.5000 0.5000
Cu2 Cu 1.0000 1.0000 0.0000
O1 O 0.8780(6) 1.2564(5) 0.5467(3)
O2 O 0.6024(4) 1.3050(3) 0.4858(3)
O3 O 0.8843(4) 1.1465(3) 0.3625(3)
O4 O 1.1353(4) 1.2313(4) 0.2241(3)
O5 O 0.7818(4) 1.0316(3) 0.6135(3)
O6 O 1.0854(4) 1.0276(4) 0.1763(3)
C1 C 0.6153(6) 1.4838(5) 0.2510(4)
H1 H 0.6441 1.3856 0.2704
C2 C 0.5332(7) 1.7014(5) 0.2654(4)
H2 H 0.4935 1.7815 0.2963
C3 C 0.5818(7) 1.6988(6) 0.1488(4)
H3 H 0.5814 1.7767 0.0864
C4 C 0.6849(7) 1.5127(7) 0.0296(4)
H4 H 0.7450 1.4113 0.0473
H5 H 0.7529 1.5598 -0.0222
C5 C 0.5503(8) 1.5425(6) -0.0333(5)
H6 H 0.4859 1.6428 -0.0453
H7 H 0.5914 1.5212 -0.1105
C6 C 0.7296(5) 1.0818(5) 0.1883(4)
H8 H 0.7910 1.0931 0.2314
C7 C 0.6559(5) 1.0427(6) 0.0512(4)
H9 H 0.6560 1.0226 -0.0190
C8 C 0.5318(5) 1.0671(5) 0.1394(4)
H10 H 0.4341 1.0662 0.1404
C9 C 0.4926(5) 1.1168(5) 0.3413(3)
H11 H 0.3829 1.1406 0.3392
H12 H 0.5028 1.1968 0.3566
C10 C 0.5488(5) 0.9872(5) 0.4411(3)
H13 H 0.6573 0.9655 0.4457
H14 H 0.5421 0.9063 0.4249
C11 C 0.9867(6) 0.5954(5) 0.1525(4)
H15 H 0.9540 0.5214 0.1612
C12 C 1.0903(6) 0.7301(5) 0.1824(4)
H16 H 1.1412 0.7635 0.2172
C13 C 0.9628(6) 0.7131(5) 0.0649(4)
H17 H 0.9097 0.7344 0.0016
C14 C 1.1092(7) 0.5082(5) 0.3413(4)
H18 H 1.1986 0.5154 0.3606
H19 H 1.1381 0.4114 0.3357
C15 C 0.9733(7) 0.5418(5) 0.4397(4)
H20 H 0.8907 0.5178 0.4284
H21 H 0.9320 0.6428 0.4364
N1 N 0.5536(5) 1.5638(4) 0.3294(3)
N2 N 0.6309(5) 1.5620(4) 0.1403(3)
N3 N 0.7789(4) 1.0526(4) 0.0828(3)
N4 N 0.5812(4) 1.0933(4) 0.2256(3)
N5 N 1.0289(4) 0.7980(4) 0.0827(3)
N6 N 1.0688(5) 0.6057(4) 0.2268(3)
V1A V -0.08233(8) 1.90398(7) 0.71635(6)
V1A_2 V 0.91767(8) 0.90398(7) 0.71635(6)
V1_2 V 0.08233(8) 2.09602(7) 0.28365(6)
V2A V 0.21154(9) 1.81271(7) 0.49692(6)
Cu1_2 Cu 0.5000 1.5000 -0.5000
Cu2_2 Cu 0.0000 1.0000 1.0000
Cu2_3 Cu 1.0000 0.0000 1.0000
Cu2_4 Cu 0.0000 2.0000 1.0000
O1A O 0.1220(6) 1.7436(5) 0.4533(3)
O2A O 0.3976(4) 1.6950(3) 0.5142(3)
O3A O 0.1157(4) 1.8535(3) 0.6375(3)
O4A O -0.1353(4) 1.7687(4) 0.7759(3)
O5A O 0.2182(4) 1.9684(3) 0.3865(3)
O5A_2 O 1.2182(4) 0.9684(3) 0.3865(3)
O5_2 O -0.2182(4) 2.0316(3) 0.6135(3)
O6A O -0.0854(4) 1.9724(4) 0.8237(3)
O6A_2 O 0.9146(4) 0.9724(4) -0.1763(3)
C1A C 0.3847(6) 1.5162(5) -0.2510(4)
H1A H 0.3559 1.6144 -0.2704
C2A C 0.4668(7) 1.2986(5) -0.2654(4)
H2A H 0.5065 1.2185 -0.2963
C3A C 0.4182(7) 1.3012(6) -0.1488(4)
H3A H 0.4186 1.2233 -0.0864
C4A C 0.3151(7) 1.4873(7) -0.0296(4)
H4A H 0.2550 1.5887 -0.0473
H5A H 0.2471 1.4402 0.0222
C5A C 0.4497(8) 1.4575(6) 0.0333(5)
H6A H 0.5141 1.3572 0.0453
H7A H 0.4086 1.4788 0.1105
C6A C 0.2704(5) 0.9182(5) 0.8117(4)
H8A H 0.2090 0.9069 0.7686
C7A C 0.3441(5) 0.9573(6) 0.9488(4)
H9A H 0.3440 0.9774 1.0190
C8A C 0.4682(5) 0.9329(5) 0.8606(4)
H10A H 0.5659 0.9338 0.8596
C9A C 0.5074(5) 0.8832(5) 0.6587(3)
H11A H 0.6171 0.8594 0.6608
H12A H 0.4972 0.8032 0.6434
C10A C 0.4512(5) 1.0128(5) 0.5589(3)
H13A H 0.3427 1.0345 0.5543
H14A H 0.4579 1.0937 0.5751
C11A C 1.0133(6) 0.4046(5) 0.8475(4)
H15A H 1.0460 0.4786 0.8388
C12A C 0.9097(6) 0.2699(5) 0.8176(4)
H16A H 0.8588 0.2365 0.7828
C13A C 1.0372(6) 0.2869(5) 0.9351(4)
H17A H 1.0903 0.2656 0.9984
C14A C 0.8908(7) 0.4918(5) 0.6587(4)
H18A H 0.8014 0.4846 0.6394
H19A H 0.8619 0.5886 0.6643
C15A C 1.0267(7) 0.4582(5) 0.5603(4)
H20A H 1.1093 0.4822 0.5716
H21A H 1.0680 0.3572 0.5636
N1A N 0.4464(5) 1.4362(4) -0.3294(3)
N1A_2 N 0.4464(5) 1.4362(4) 0.6706(3)
N2A N 0.3691(5) 1.4380(4) -0.1403(3)
N3A N 0.2211(4) 0.9474(4) 0.9172(3)
N3A_2 N 1.2211(4) 0.9474(4) -0.0828(3)
N4A N 0.4188(4) 0.9067(4) 0.7744(3)
N5A N 0.9711(4) 0.2020(4) 0.9173(3)
N5A_2 N 0.9711(4) 1.2020(4) -0.0827(3)
N6A N 0.9312(5) 0.3943(4) 0.7732(3)
loop_
_geom_bond_atom_site_label_1
_geom_bond_atom_site_label_2
_geom_bond_site_symmetry_1
_geom_bond_site_symmetry_2
V1 O3 1_555 1_555
V2 O1 1_555 1_555
Cu1 O2 1_555 1_555
Cu2 O6 1_555 1_555
O2 V2 1_555 1_555
O3 V2 1_555 1_555
O4 V1 1_555 1_555
O5 V2 1_555 1_555
O6 V1 1_555 1_555
C1 H1 1_555 1_555
C2 H2 1_555 1_555
C3 C2 1_555 1_555
H3 C3 1_555 1_555
C4 H4 1_555 1_555
H5 C4 1_555 1_555
C5 C4 1_555 1_555
H6 C5 1_555 1_555
H7 C5 1_555 1_555
C6 H8 1_555 1_555
C7 H9 1_555 1_555
C8 C7 1_555 1_555
H10 C8 1_555 1_555
C9 H11 1_555 1_555
H12 C9 1_555 1_555
C10 C9 1_555 1_555
H13 C10 1_555 1_555
H14 C10 1_555 1_555
C11 H15 1_555 1_555
C12 H16 1_555 1_555
C13 C11 1_555 1_555
H17 C13 1_555 1_555
C14 H18 1_555 1_555
H19 C14 1_555 1_555
C15 C14 1_555 1_555
H20 C15 1_555 1_555
H21 C15 1_555 1_555
N1 Cu1 1_555 1_555
N2 C1 1_555 1_555
N3 Cu2 1_555 1_555
N4 C6 1_555 1_555
N5 Cu2 1_555 1_555
N6 C11 1_555 1_555
V1A O3A 1_555 1_555
V1A_2 O5 1_555 1_555
V1_2 O5A 1_555 1_555
V2A O1A 1_555 1_555
Cu1_2 N1A 1_555 1_555
Cu2_2 N3A 1_555 1_555
Cu2_3 N5A 1_555 1_555
Cu2_4 O6A 1_555 1_555
O2A Cu1 1_555 1_555
O3A V2A 1_555 1_555
O4A V1A 1_555 1_555
O5A V2A 1_555 1_555
O5A_2 V1 1_555 1_555
O5_2 V1A 1_555 1_555
O6A V1A 1_555 1_555
O6A_2 Cu2 1_555 1_555
C1A H1A 1_555 1_555
C2A H2A 1_555 1_555
C3A C2A 1_555 1_555
H3A C3A 1_555 1_555
C4A H4A 1_555 1_555
H5A C4A 1_555 1_555
C5A C5 1_555 1_555
H6A C5A 1_555 1_555
H7A C5A 1_555 1_555
C6A H8A 1_555 1_555
C7A H9A 1_555 1_555
C8A C7A 1_555 1_555
H10A C8A 1_555 1_555
C9A H11A 1_555 1_555
H12A C9A 1_555 1_555
C10A C10 1_555 1_555
H13A C10A 1_555 1_555
H14A C10A 1_555 1_555
C11A H15A 1_555 1_555
C12A H16A 1_555 1_555
C13A C11A 1_555 1_555
H17A C13A 1_555 1_555
C14A H18A 1_555 1_555
H19A C14A 1_555 1_555
C15A C15 1_555 1_555
H20A C15A 1_555 1_555
H21A C15A 1_555 1_555
N1A C1A 1_555 1_555
N1A_2 Cu1 1_555 1_555
N2A C1A 1_555 1_555
N3A C6A 1_555 1_555
N3A_2 Cu2 1_555 1_555
N4A C6A 1_555 1_555
N5A C12A 1_555 1_555
N5A_2 Cu2 1_555 1_555
N6A C11A 1_555 1_555
C1 N1 1_555 1_555
C2 N1 1_555 1_555
C3 N2 1_555 1_555
C4 N2 1_555 1_555
C6 N3 1_555 1_555
C7 N3 1_555 1_555
C8 N4 1_555 1_555
C9 N4 1_555 1_555
C12 N5 1_555 1_555
C12 N6 1_555 1_555
C13 N5 1_555 1_555
C14 N6 1_555 1_555
V2A O2A 1_555 1_555
C2A N1A 1_555 1_555
C3A N2A 1_555 1_555
C4A C5A 1_555 1_555
C4A N2A 1_555 1_555
C7A N3A 1_555 1_555
C8A N4A 1_555 1_555
C9A C10A 1_555 1_555
C9A N4A 1_555 1_555
C12A N6A 1_555 1_555
C13A N5A 1_555 1_555
C14A C15A 1_555 1_555
C14A N6A 1_555 1_555

#END
