
#######################################################################
#
#                 Cambridge Crystallographic Data Centre
#                                CCDC 
#
#######################################################################
#
# If this CIF has been generated from an entry in the Cambridge 
# Structural Database, then it will include bibliographic, chemical, 
# crystal, experimental, refinement or atomic coordinate data resulting 
# from the CCDC's data processing and validation procedures.
#
#######################################################################

data_VISBAC
_symmetry_cell_setting           monoclinic
_symmetry_space_group_name_H-M   'P 21/c'
_symmetry_Int_Tables_number      14
_space_group_name_Hall           '-P 2ybc'
loop_
_symmetry_equiv_pos_site_id
_symmetry_equiv_pos_as_xyz
1 x,y,z
2 -x,1/2+y,1/2-z
3 -x,-y,-z
4 x,1/2-y,1/2+z
_cell_length_a                   10.1639(4)
_cell_length_b                   16.0423(6)
_cell_length_c                   16.2284(6)
_cell_angle_alpha                90
_cell_angle_beta                 102.5930(10)
_cell_angle_gamma                90
_cell_volume                     2582.42
loop_
_atom_site_label
_atom_site_type_symbol
_atom_site_fract_x
_atom_site_fract_y
_atom_site_fract_z
Zn1 Zn 0.127830(19) 0.054777(12) 0.312881(11)
O1 O 0.22089(14) 0.05453(7) -0.17064(7)
O2 O 0.34151(13) -0.23148(7) -0.20042(7)
O3 O 0.05986(13) 0.09831(8) 0.18455(7)
O4 O 0.70741(13) -0.45276(7) 0.08260(8)
O5 O 0.21167(13) -0.00001(9) 0.21683(7)
O6 O 0.74225(13) -0.33149(8) 0.14588(8)
C1 C 0.20815(18) 0.05112(10) -0.08752(10)
N1 N -0.02268(14) 0.10760(9) 0.36684(8)
N2 N 0.02359(15) -0.05143(9) 0.33998(9)
C2 C -0.1484(2) -0.10112(14) 0.40596(13)
H1 H -0.2150 -0.0902 0.4358
C3 C 0.29867(16) -0.00612(10) -0.19864(9)
C4 C 0.42595(16) -0.34871(10) -0.11989(10)
H2 H 0.3731 -0.3818 -0.1613
C5 C 0.16849(17) 0.05231(10) 0.07619(10)
C6 C 0.29871(18) 0.01087(13) -0.02442(10)
H3 H 0.3732 -0.0162 -0.0365
C7 C 0.14531(17) 0.05007(11) 0.16399(10)
C8 C 0.35823(17) -0.14664(10) -0.21558(10)
C9 C 0.58579(16) -0.33636(10) 0.01336(10)
C10 C 0.47262(19) -0.03824(12) -0.27093(11)
H4 H 0.5364 -0.0210 -0.3006
C11 C 0.39565(18) 0.02037(11) -0.24066(10)
H5 H 0.4089 0.0769 -0.2484
C12 C -0.07381(17) -0.03636(11) 0.38225(10)
C13 C -0.19448(18) 0.07976(14) 0.44191(11)
H6 H -0.2441 0.0415 0.4658
C14 C 0.42327(16) -0.26307(10) -0.12776(10)
C15 C 0.27759(18) 0.01122(13) 0.05723(10)
H7 H 0.3377 -0.0166 0.0998
C16 C -0.09899(16) 0.05262(11) 0.39854(9)
C17 C 0.50789(16) -0.38480(10) -0.04982(10)
H8 H 0.5109 -0.4426 -0.0449
C18 C -0.1228(2) -0.18136(14) 0.38496(16)
H9 H -0.1722 -0.2252 0.4004
C19 C 0.08130(18) 0.09422(11) 0.01266(11)
H10 H 0.0092 0.1236 0.0252
C20 C 0.27621(16) -0.08983(11) -0.18744(9)
H11 H 0.2078 -0.1074 -0.1617
C21 C 0.09947(18) 0.09331(11) -0.06938(10)
H12 H 0.0390 0.1209 -0.1119
C22 C 0.68304(16) -0.37547(11) 0.08597(10)
C23 C 0.45579(18) -0.12227(12) -0.25757(11)
H13 H 0.5094 -0.1617 -0.2766
C24 C -0.0429(2) 0.18924(12) 0.37511(12)
H14 H 0.0103 0.2268 0.3532
C25 C 0.57982(18) -0.25081(11) 0.00542(11)
H15 H 0.6301 -0.2177 0.0479
C26 C -0.1397(2) 0.21987(14) 0.41487(13)
H16 H -0.1536 0.2770 0.4183
C27 C 0.4997(2) -0.21338(11) -0.06512(11)
H17 H 0.4973 -0.1556 -0.0704
C28 C 0.0479(2) -0.13025(12) 0.31990(12)
H18 H 0.1156 -0.1403 0.2908
C29 C -0.2150(2) 0.16437(14) 0.44923(13)
H19 H -0.2796 0.1835 0.4774
C30 C -0.0240(2) -0.19682(13) 0.34096(14)
H20 H -0.0061 -0.2509 0.3258
Zn1A Zn 0.872170(19) -0.445223(12) 0.187119(11)
O4A O 0.29259(13) 0.04724(7) 0.41740(8)
O6A O 0.25775(13) 0.16851(8) 0.35412(8)
loop_
_geom_bond_atom_site_label_1
_geom_bond_atom_site_label_2
_geom_bond_site_symmetry_1
_geom_bond_site_symmetry_2
Zn1 O3 1_555 1_555
O1 C1 1_555 1_555
O2 C8 1_555 1_555
O3 C7 1_555 1_555
O4 C22 1_555 1_555
O5 Zn1 1_555 1_555
O6 C22 1_555 1_555
C1 C6 1_555 1_555
N1 Zn1 1_555 1_555
N2 Zn1 1_555 1_555
C2 H1 1_555 1_555
C3 O1 1_555 1_555
C4 H2 1_555 1_555
C5 C7 1_555 1_555
C6 H3 1_555 1_555
C7 O5 1_555 1_555
C8 C20 1_555 1_555
C9 C17 1_555 1_555
C10 H4 1_555 1_555
C11 C3 1_555 1_555
H5 C11 1_555 1_555
C12 N2 1_555 1_555
C13 H6 1_555 1_555
C14 O2 1_555 1_555
C15 C5 1_555 1_555
H7 C15 1_555 1_555
C16 N1 1_555 1_555
C17 C4 1_555 1_555
H8 C17 1_555 1_555
C18 C2 1_555 1_555
H9 C18 1_555 1_555
C19 C5 1_555 1_555
H10 C19 1_555 1_555
C20 C3 1_555 1_555
H11 C20 1_555 1_555
C21 C1 1_555 1_555
H12 C21 1_555 1_555
C22 C9 1_555 1_555
C23 C8 1_555 1_555
H13 C23 1_555 1_555
C24 N1 1_555 1_555
H14 C24 1_555 1_555
C25 C9 1_555 1_555
H15 C25 1_555 1_555
C26 C24 1_555 1_555
H16 C26 1_555 1_555
C27 C14 1_555 1_555
H17 C27 1_555 1_555
C28 N2 1_555 1_555
H18 C28 1_555 1_555
C29 C13 1_555 1_555
H19 C29 1_555 1_555
C30 C18 1_555 1_555
H20 C30 1_555 1_555
Zn1A O4 1_555 1_555
O4A Zn1 1_555 1_555
O6A Zn1 1_555 1_555
O6 Zn1A 1_555 1_555
C2 C12 1_555 1_555
C4 C14 1_555 1_555
C6 C15 1_555 1_555
C10 C11 1_555 1_555
C10 C23 1_555 1_555
C12 C16 1_555 1_555
C13 C16 1_555 1_555
C19 C21 1_555 1_555
C25 C27 1_555 1_555
C26 C29 1_555 1_555
C28 C30 1_555 1_555

#END
