
#######################################################################
#
#                 Cambridge Crystallographic Data Centre
#                                CCDC 
#
#######################################################################
#
# If this CIF has been generated from an entry in the Cambridge 
# Structural Database, then it will include bibliographic, chemical, 
# crystal, experimental, refinement or atomic coordinate data resulting 
# from the CCDC's data processing and validation procedures.
#
#######################################################################

data_VISMIU
_symmetry_cell_setting           monoclinic
_symmetry_space_group_name_H-M   'P 21/c'
_symmetry_Int_Tables_number      14
_space_group_name_Hall           '-P 2ybc'
loop_
_symmetry_equiv_pos_site_id
_symmetry_equiv_pos_as_xyz
1 x,y,z
2 -x,1/2+y,1/2-z
3 -x,-y,-z
4 x,1/2-y,1/2+z
_cell_length_a                   14.611(3)
_cell_length_b                   6.9168(14)
_cell_length_c                   22.153(4)
_cell_angle_alpha                90
_cell_angle_beta                 107.94(3)
_cell_angle_gamma                90
_cell_volume                     2129.96
loop_
_atom_site_label
_atom_site_type_symbol
_atom_site_fract_x
_atom_site_fract_y
_atom_site_fract_z
Dy1 Dy 0.56863(2) 0.34553(4) 0.787757(13)
Dy2 Dy 0.77047(2) -0.14390(4) 0.756689(14)
C1 C 0.7826(5) 0.2873(9) 0.6901(3)
C2 C 0.8033(5) 0.4210(10) 0.6503(3)
H1 H 0.7704 0.5379 0.6420
C3 C 0.8750(5) 0.3781(10) 0.6225(3)
C4 C 0.9220(5) 0.2037(9) 0.6365(3)
H2 H 0.9706 0.1719 0.6192
C5 C 0.8964(5) 0.0766(9) 0.6764(3)
C6 C 0.9433(5) -0.1199(10) 0.6948(3)
C7 C 0.7093(5) 0.3182(9) 0.7230(3)
C8 C 0.6477(5) 0.3322(9) 0.9449(3)
C9 C 0.6513(5) 0.2954(9) 1.0071(3)
H3 H 0.7099 0.2953 1.0392
C10 C 0.5671(5) 0.2588(10) 1.0211(3)
C11 C 0.4800(5) 0.2637(9) 0.9718(3)
H4 H 0.4219 0.2419 0.9797
C12 C 0.4827(5) 0.3021(8) 0.9109(3)
C13 C 0.3970(5) 0.3202(9) 0.8540(3)
C14 C 0.7351(5) 0.3815(9) 0.9247(3)
N1 N 0.8273(4) 0.1162(7) 0.7028(2)
N2 N 0.5649(4) 0.3326(7) 0.8974(2)
O1 O 0.6842(3) 0.1691(6) 0.7482(2)
O2 O 0.6717(3) 0.4794(6) 0.7260(2)
O3 O 0.8987(3) -0.2307(6) 0.7219(2)
O4 O 1.0178(3) -0.1589(6) 0.6818(2)
O5 O 0.7179(3) 0.3878(6) 0.8642(2)
O6 O 0.8112(4) 0.4186(8) 0.9653(2)
O7 O 0.4114(3) 0.3361(6) 0.8002(2)
O8 O 0.5718(4) 0.2228(8) 1.0815(2)
H5 H 0.5173 0.2090 1.0839
O9 O 0.8967(4) 0.4983(7) 0.5817(2)
H6 H 0.8619 0.5938 0.5763
O10 O 0.8801(3) 0.0255(7) 0.8350(2)
H7 H 0.8686 0.1418 0.8428
H8 H 0.9324 -0.0280 0.8564
O11 O 0.8434(3) -0.4019(6) 0.8211(2)
H9 H 0.8452 -0.4042 0.8598
H10 H 0.8681 -0.4938 0.8059
O12 O 0.3128(3) 0.3248(6) 0.8581(2)
O13 O 0.4545(3) 0.5121(6) 0.6943(2)
O14 O 0.4567(3) 0.1761(6) 0.6941(2)
O15 O 0.3017(3) 0.3374(6) 0.66204(19)
O16 O 0.3996(3) 0.3439(6) 0.5927(2)
S1 S 0.39941(12) 0.3432(2) 0.65801(7)
Dy1A Dy 0.43137(2) 0.84553(4) 0.712243(13)
Dy1A_2 Dy 0.43137(2) -0.15447(4) 0.712243(13)
Dy2A Dy 0.22953(2) 0.35610(4) 0.743311(14)
O12A O 0.6872(3) -0.1752(6) 0.6419(2)
O13A O 0.5455(3) 0.0121(6) 0.8057(2)
O14A O 0.5433(3) 0.6761(6) 0.8059(2)
O15A O 0.6983(3) -0.1626(6) 0.83796(19)
O17 O 0.7858(4) 0.8037(7) 0.5516(2)
O18 O 0.9279(10) 0.9739(19) 0.9583(6)
O19? O 0.9137(10) 0.847(2) 0.9513(6)
O20? O 0.9856(10) 0.6067(19) 0.9919(8)
loop_
_geom_bond_atom_site_label_1
_geom_bond_atom_site_label_2
_geom_bond_site_symmetry_1
_geom_bond_site_symmetry_2
Dy1 N2 1_555 1_555
Dy2 N1 1_555 1_555
C1 C2 1_555 1_555
C2 H1 1_555 1_555
C3 C2 1_555 1_555
C4 C3 1_555 1_555
H2 C4 1_555 1_555
C5 C4 1_555 1_555
C6 C5 1_555 1_555
C7 C1 1_555 1_555
C8 C9 1_555 1_555
C9 H3 1_555 1_555
C10 C9 1_555 1_555
C11 C10 1_555 1_555
H4 C11 1_555 1_555
C12 C11 1_555 1_555
C13 C12 1_555 1_555
C14 C8 1_555 1_555
N1 C1 1_555 1_555
N2 C8 1_555 1_555
O1 Dy1 1_555 1_555
O2 Dy1 1_555 1_555
O3 Dy2 1_555 1_555
O4 C6 1_555 1_555
O5 Dy1 1_555 1_555
O6 C14 1_555 1_555
O7 Dy1 1_555 1_555
O8 C10 1_555 1_555
H5 O8 1_555 1_555
O9 C3 1_555 1_555
H6 O9 1_555 1_555
O10 Dy2 1_555 1_555
H7 O10 1_555 1_555
H8 O10 1_555 1_555
O11 Dy2 1_555 1_555
H9 O11 1_555 1_555
H10 O11 1_555 1_555
O12 C13 1_555 1_555
O13 Dy1 1_555 1_555
O14 Dy1 1_555 1_555
O15 S1 1_555 1_555
O16 S1 1_555 1_555
S1 O13 1_555 1_555
Dy1A O13 1_555 1_555
Dy1A_2 O14 1_555 1_555
Dy2A O12 1_555 1_555
O12A Dy2 1_555 1_555
O13A Dy1 1_555 1_555
O14A Dy1 1_555 1_555
O15A Dy2 1_555 1_555
Dy2 O1 1_555 1_555
C5 N1 1_555 1_555
C6 O3 1_555 1_555
C7 O1 1_555 1_555
C7 O2 1_555 1_555
C12 N2 1_555 1_555
C13 O7 1_555 1_555
C14 O5 1_555 1_555
O14 S1 1_555 1_555
O15 Dy2A 1_555 1_555
Dy1A O14A 1_555 1_555
Dy1A_2 O13A 1_555 1_555

#END
