
#######################################################################
#
#                 Cambridge Crystallographic Data Centre
#                                CCDC 
#
#######################################################################
#
# If this CIF has been generated from an entry in the Cambridge 
# Structural Database, then it will include bibliographic, chemical, 
# crystal, experimental, refinement or atomic coordinate data resulting 
# from the CCDC's data processing and validation procedures.
#
#######################################################################

data_VITGEM
_symmetry_cell_setting           monoclinic
_symmetry_space_group_name_H-M   'C 2/c'
_symmetry_Int_Tables_number      15
_space_group_name_Hall           '-C 2yn'
loop_
_symmetry_equiv_pos_site_id
_symmetry_equiv_pos_as_xyz
1 x,y,z
2 -x,y,1/2-z
3 1/2+x,1/2+y,z
4 1/2-x,1/2+y,1/2-z
5 -x,-y,-z
6 x,-y,1/2+z
7 1/2-x,1/2-y,-z
8 1/2+x,1/2-y,1/2+z
_cell_length_a                   24.8173(10)
_cell_length_b                   9.0976(2)
_cell_length_c                   14.5712(6)
_cell_angle_alpha                90
_cell_angle_beta                 124.551(6)
_cell_angle_gamma                90
_cell_volume                     2709.6
loop_
_atom_site_label
_atom_site_type_symbol
_atom_site_fract_x
_atom_site_fract_y
_atom_site_fract_z
C1 C 0.0872(2) 1.0196(4) -0.3507(3)
C2 C 0.2617(2) 1.1273(5) -0.2314(4)
H1 H 0.2840 1.1933 -0.2475
C3 C 0.3702(2) 1.0268(4) -0.0815(3)
C4 C 0.1961(2) 0.9340(4) -0.1827(3)
H2 H 0.1741 0.8692 -0.1653
C5 C 0.0488(2) 0.4666(4) -0.2899(3)
C6 C 0.1257(2) 0.1171(5) -0.0611(4)
H3 H 0.1436 0.0367 -0.0133
C7 C 0.1602(2) 1.0290(4) -0.2737(3)
C8 C 0.2970(2) 1.0301(4) -0.1438(4)
C9 C 0.2637(2) 0.9352(4) -0.1183(3)
H4 H 0.2869 0.8721 -0.0576
C10 C 0.1669(2) 0.2307(5) -0.0446(4)
H5 H 0.2107 0.2296 0.0149
C11 C 0.0362(2) 0.2312(4) -0.2091(4)
C12 C 0.1942(2) 1.1284(5) -0.2956(4)
H6 H 0.1714 1.1957 -0.3535
C13 C 0.0753(2) 0.3466(4) -0.2041(3)
C14 C 0.1411(2) 0.3468(5) -0.1190(4)
H7 H 0.1678 0.4240 -0.1119
N1 N 0.06188(19) 0.1144(4) -0.1409(3)
O1 O -0.05475(18) 0.8099(3) -0.3789(3)
H8 H -0.0494 0.7562 -0.3239
H9 H -0.0393 0.8986 -0.3526
O2 O 0.39855(14) 0.9114(3) -0.0284(3)
O3 O 0.39806(14) 1.1383(3) -0.0879(3)
O4 O 0.05913(16) 0.5985(3) -0.2614(2)
O5 O 0.06108(14) 0.9011(3) -0.3512(3)
O6 O 0.05692(14) 1.1290(3) -0.4106(2)
O7 O 0.01756(14) 0.4315(3) -0.3926(2)
Dy1 Dy -0.000267(9) 0.702569(18) -0.453998(15)
C5A C -0.0488(2) 0.4666(4) -0.2101(3)
C6A C -0.1257(2) 0.1171(5) -0.4389(4)
H3A H -0.1436 0.0367 -0.4867
C10A C -0.1669(2) 0.2307(5) -0.4554(4)
H5A H -0.2107 0.2296 -0.5149
C11A C -0.0362(2) 0.2312(4) -0.2909(4)
C13A C -0.0753(2) 0.3466(4) -0.2959(3)
C14A C -0.1411(2) 0.3468(5) -0.3810(4)
H7A H -0.1678 0.4240 -0.3881
N1A N -0.06188(19) 0.1144(4) -0.3591(3)
O4A O -0.05913(16) 0.5985(3) -0.2386(2)
O7A O -0.01756(14) 0.4315(3) -0.1074(2)
C1A C -0.0872(2) 1.0196(4) -0.1493(3)
C2A C -0.2617(2) 1.1273(5) -0.2686(4)
H1A H -0.2840 1.1933 -0.2525
C3A C -0.3702(2) 1.0268(4) -0.4185(3)
C4A C -0.1961(2) 0.9340(4) -0.3173(3)
H2A H -0.1741 0.8692 -0.3347
C7A C -0.1602(2) 1.0290(4) -0.2263(3)
C8A C -0.2970(2) 1.0301(4) -0.3562(4)
C9A C -0.2637(2) 0.9352(4) -0.3817(3)
H4A H -0.2869 0.8721 -0.4424
C12A C -0.1942(2) 1.1284(5) -0.2044(4)
H6A H -0.1714 1.1957 -0.1465
O1A O 0.05475(18) 0.8099(3) -0.1211(3)
H8A H 0.0494 0.7562 -0.1761
H9A H 0.0393 0.8986 -0.1474
O2A O -0.39855(14) 0.9114(3) -0.4716(3)
O3A O -0.39806(14) 1.1383(3) -0.4121(3)
O5A O -0.06108(14) 0.9011(3) -0.1488(3)
O6A O -0.05692(14) 1.1290(3) -0.0894(2)
Dy1A Dy 0.000267(9) 0.702569(18) -0.046002(15)
O2F O 0.10145(14) 0.5886(3) 0.0284(3)
O2G O -0.10145(14) 0.5886(3) -0.5284(3)
O3B O -0.10194(14) 0.6383(3) -0.0879(3)
O3C O 0.10194(14) 0.6383(3) -0.4121(3)
O6D O -0.05692(14) 0.8710(3) -0.5894(2)
O6E O 0.05692(14) 0.8710(3) 0.0894(2)
O7D O -0.01756(14) 0.5685(3) -0.6074(2)
O7E O 0.01756(14) 0.5685(3) 0.1074(2)
Dy1B Dy -0.500267(9) 1.202569(18) -0.453998(15)
Dy1C Dy 0.500267(9) 1.202569(18) -0.046002(15)
Dy1D Dy 0.000267(9) 0.297431(18) -0.546002(15)
Dy1D_2 Dy 0.000267(9) 1.297431(18) -0.546002(15)
Dy1E Dy -0.000267(9) 0.297431(18) 0.046002(15)
Dy1E_2 Dy -0.000267(9) 1.297431(18) 0.046002(15)
Dy1F Dy -0.499733(9) 0.797431(18) -0.546002(15)
Dy1G Dy 0.499733(9) 0.797431(18) 0.046002(15)
loop_
_geom_bond_atom_site_label_1
_geom_bond_atom_site_label_2
_geom_bond_site_symmetry_1
_geom_bond_site_symmetry_2
C1 C7 1_555 1_555
C2 H1 1_555 1_555
C3 C8 1_555 1_555
C4 H2 1_555 1_555
C5 C13 1_555 1_555
C6 H3 1_555 1_555
C7 C4 1_555 1_555
C8 C2 1_555 1_555
C9 C4 1_555 1_555
H4 C9 1_555 1_555
C10 C6 1_555 1_555
H5 C10 1_555 1_555
C11 C13 1_555 1_555
C12 C2 1_555 1_555
H6 C12 1_555 1_555
C13 C14 1_555 1_555
C14 C10 1_555 1_555
H7 C14 1_555 1_555
N1 C6 1_555 1_555
O1 H8 1_555 1_555
H9 O1 1_555 1_555
O2 C3 1_555 1_555
O3 C3 1_555 1_555
O4 C5 1_555 1_555
O5 C1 1_555 1_555
O6 C1 1_555 1_555
O7 C5 1_555 1_555
Dy1 O1 1_555 1_555
C5A C13A 1_555 1_555
C6A H3A 1_555 1_555
C10A C6A 1_555 1_555
H5A C10A 1_555 1_555
C11A C11 1_555 1_555
C13A C11A 1_555 1_555
C14A C10A 1_555 1_555
H7A C14A 1_555 1_555
N1A C6A 1_555 1_555
O4A C5A 1_555 1_555
O7A C5A 1_555 1_555
C1A C7A 1_555 1_555
C2A H1A 1_555 1_555
C3A C8A 1_555 1_555
C4A H2A 1_555 1_555
C7A C4A 1_555 1_555
C8A C2A 1_555 1_555
C9A C4A 1_555 1_555
H4A C9A 1_555 1_555
C12A C2A 1_555 1_555
H6A C12A 1_555 1_555
O1A H8A 1_555 1_555
H9A O1A 1_555 1_555
O2A C3A 1_555 1_555
O3A C3A 1_555 1_555
O5A C1A 1_555 1_555
O6A C1A 1_555 1_555
Dy1A O4A 1_555 1_555
O2F Dy1A 1_555 1_555
O2G Dy1 1_555 1_555
O3B Dy1A 1_555 1_555
O3C Dy1 1_555 1_555
O6D Dy1 1_555 1_555
O6E Dy1A 1_555 1_555
O7D Dy1 1_555 1_555
O7E Dy1A 1_555 1_555
Dy1B O3A 1_555 1_555
Dy1C O3 1_555 1_555
Dy1D O7 1_555 1_555
Dy1D_2 O6 1_555 1_555
Dy1E O7A 1_555 1_555
Dy1E_2 O6A 1_555 1_555
Dy1F O2A 1_555 1_555
Dy1G O2 1_555 1_555
C7 C12 1_555 1_555
C8 C9 1_555 1_555
C11 N1 1_555 1_555
O4 Dy1 1_555 1_555
O5 Dy1 1_555 1_555
O7 Dy1 1_555 1_555
C11A N1A 1_555 1_555
C13A C14A 1_555 1_555
O7A Dy1A 1_555 1_555
C7A C12A 1_555 1_555
C8A C9A 1_555 1_555
O1A Dy1A 1_555 1_555
O5A Dy1A 1_555 1_555
O7D Dy1D 1_555 1_555
O7E Dy1E 1_555 1_555

#END
