
#######################################################################
#
#                 Cambridge Crystallographic Data Centre
#                                CCDC 
#
#######################################################################
#
# If this CIF has been generated from an entry in the Cambridge 
# Structural Database, then it will include bibliographic, chemical, 
# crystal, experimental, refinement or atomic coordinate data resulting 
# from the CCDC's data processing and validation procedures.
#
#######################################################################

data_VITGIQ
_symmetry_cell_setting           monoclinic
_symmetry_space_group_name_H-M   'C 2/c'
_symmetry_Int_Tables_number      15
_space_group_name_Hall           '-C 2yn'
loop_
_symmetry_equiv_pos_site_id
_symmetry_equiv_pos_as_xyz
1 x,y,z
2 -x,y,1/2-z
3 1/2+x,1/2+y,z
4 1/2-x,1/2+y,1/2-z
5 -x,-y,-z
6 x,-y,1/2+z
7 1/2-x,1/2-y,-z
8 1/2+x,1/2-y,1/2+z
_cell_length_a                   24.8155(12)
_cell_length_b                   9.0746(2)
_cell_length_c                   14.5675(7)
_cell_angle_alpha                90
_cell_angle_beta                 124.697(7)
_cell_angle_gamma                90
_cell_volume                     2697.11
loop_
_atom_site_label
_atom_site_type_symbol
_atom_site_fract_x
_atom_site_fract_y
_atom_site_fract_z
C1 C 0.12937(16) -0.0274(3) 0.0806(3)
C2 C 0.41305(17) -0.0197(3) 0.3511(3)
C3 C 0.33983(17) -0.0293(3) 0.2739(3)
C4 C 0.46384(18) 0.7707(4) 0.2096(3)
C5 C 0.42484(16) 0.6535(4) 0.2042(2)
C6 C 0.45111(16) 0.5336(3) 0.2910(3)
C7 C 0.23642(17) 0.0653(4) 0.1181(3)
H1 H 0.2133 0.1290 0.0576
C8 C 0.23828(18) -0.1280(4) 0.2318(3)
H2 H 0.2161 -0.1943 0.2478
C9 C 0.35887(17) 0.6530(4) 0.1191(3)
H3 H 0.3322 0.5756 0.1120
C10 C 0.20264(16) -0.0301(3) 0.1434(3)
C11 C 0.3330(2) 0.7696(4) 0.0444(3)
H4 H 0.2891 0.7705 -0.0152
C12 C 0.30404(16) 0.0656(3) 0.1826(3)
H5 H 0.3261 0.1299 0.1651
C13 C 0.37365(19) 0.8832(4) 0.0604(3)
H6 H 0.3554 0.9635 0.0124
C14 C 0.30602(18) -0.1287(4) 0.2964(3)
H7 H 0.3290 -0.1954 0.3549
N1 N 0.43775(16) 0.8865(3) 0.1405(3)
O1 O 0.55446(15) 0.1901(2) 0.3790(2)
H8 H 0.5378 0.1051 0.3512
H9 H 0.5500 0.2456 0.3273
O2 O 0.10075(12) 0.0882(2) 0.0272(2)
O3 O 0.44134(13) 0.4006(2) 0.2619(2)
O4 O 0.10160(12) -0.1391(2) 0.08811(19)
O5 O 0.48240(12) 0.5689(2) 0.39285(18)
O6 O 0.44340(12) -0.1292(2) 0.4108(2)
O7 O 0.43940(12) 0.0986(2) 0.3519(2)
Ho1 Ho 0.500331(7) 0.297673(14) 0.453898(11)
C4A C 0.53616(18) 0.7707(4) 0.2904(3)
C5A C 0.57516(16) 0.6535(4) 0.2958(2)
C6A C 0.54889(16) 0.5336(3) 0.2090(3)
C9A C 0.64113(17) 0.6530(4) 0.3809(3)
H3A H 0.6678 0.5756 0.3880
C11A C 0.6670(2) 0.7696(4) 0.4556(3)
H4A H 0.7109 0.7705 0.5152
C13A C 0.62635(19) 0.8832(4) 0.4396(3)
H6A H 0.6446 0.9635 0.4876
N1A N 0.56225(16) 0.8865(3) 0.3595(3)
O3A O 0.55866(13) 0.4006(2) 0.2381(2)
O5A O 0.51760(12) 0.5689(2) 0.10715(18)
C1A C 0.87063(16) -0.0274(3) 0.4194(3)
C2A C 0.58695(17) -0.0197(3) 0.1489(3)
C3A C 0.66017(17) -0.0293(3) 0.2261(3)
C7A C 0.76358(17) 0.0653(4) 0.3819(3)
H1A H 0.7867 0.1290 0.4424
C8A C 0.76172(18) -0.1280(4) 0.2682(3)
H2A H 0.7839 -0.1943 0.2522
C10A C 0.79736(16) -0.0301(3) 0.3566(3)
C12A C 0.69596(16) 0.0656(3) 0.3174(3)
H5A H 0.6739 0.1299 0.3349
C14A C 0.69398(18) -0.1287(4) 0.2036(3)
H7A H 0.6710 -0.1954 0.1451
O1A O 0.44554(15) 0.1901(2) 0.1210(2)
H8A H 0.4622 0.1051 0.1488
H9A H 0.4500 0.2456 0.1727
O2A O 0.89925(12) 0.0882(2) 0.4728(2)
O4A O 0.89840(12) -0.1391(2) 0.41189(19)
O6A O 0.55660(12) -0.1292(2) 0.0892(2)
O7A O 0.56060(12) 0.0986(2) 0.1481(2)
Ho1A Ho 0.499669(7) 0.297673(14) 0.046102(11)
O2F O 0.39925(12) 0.4118(2) -0.0272(2)
O2G O 0.60075(12) 0.4118(2) 0.5272(2)
O4B O 0.60160(12) 0.3609(2) 0.08811(19)
O4C O 0.39840(12) 0.3609(2) 0.41189(19)
O5D O 0.51760(12) 0.4311(2) 0.60715(18)
O5E O 0.48240(12) 0.4311(2) -0.10715(18)
O6D O 0.55660(12) 0.1292(2) 0.5892(2)
O6E O 0.44340(12) 0.1292(2) -0.0892(2)
Ho1B Ho 1.000331(7) -0.202327(14) 0.453898(11)
Ho1C Ho -0.000331(7) -0.202327(14) 0.046102(11)
Ho1D Ho 0.499669(7) -0.297673(14) 0.546102(11)
Ho1D_2 Ho 0.499669(7) 0.702327(14) 0.546102(11)
Ho1E Ho 0.500331(7) -0.297673(14) -0.046102(11)
Ho1E_2 Ho 0.500331(7) 0.702327(14) -0.046102(11)
Ho1F Ho 0.999669(7) 0.202327(14) 0.546102(11)
Ho1G Ho 0.000331(7) 0.202327(14) -0.046102(11)
loop_
_geom_bond_atom_site_label_1
_geom_bond_atom_site_label_2
_geom_bond_site_symmetry_1
_geom_bond_site_symmetry_2
C1 C10 1_555 1_555
C2 C3 1_555 1_555
C3 C12 1_555 1_555
C4 C5 1_555 1_555
C5 C6 1_555 1_555
C6 O3 1_555 1_555
C7 H1 1_555 1_555
C8 H2 1_555 1_555
C9 C5 1_555 1_555
H3 C9 1_555 1_555
C10 C7 1_555 1_555
C11 C9 1_555 1_555
H4 C11 1_555 1_555
C12 C7 1_555 1_555
H5 C12 1_555 1_555
C13 C11 1_555 1_555
H6 C13 1_555 1_555
C14 C3 1_555 1_555
H7 C14 1_555 1_555
N1 C4 1_555 1_555
O1 H8 1_555 1_555
H9 O1 1_555 1_555
O2 C1 1_555 1_555
O3 Ho1 1_555 1_555
O4 C1 1_555 1_555
O5 C6 1_555 1_555
O6 C2 1_555 1_555
O7 C2 1_555 1_555
Ho1 O1 1_555 1_555
C4A C4 1_555 1_555
C5A C4A 1_555 1_555
C6A C5A 1_555 1_555
C9A C5A 1_555 1_555
H3A C9A 1_555 1_555
C11A C9A 1_555 1_555
H4A C11A 1_555 1_555
C13A C11A 1_555 1_555
H6A C13A 1_555 1_555
N1A C4A 1_555 1_555
O3A C6A 1_555 1_555
O5A C6A 1_555 1_555
C1A C10A 1_555 1_555
C2A C3A 1_555 1_555
C3A C12A 1_555 1_555
C7A H1A 1_555 1_555
C8A H2A 1_555 1_555
C10A C7A 1_555 1_555
C12A C7A 1_555 1_555
H5A C12A 1_555 1_555
C14A C3A 1_555 1_555
H7A C14A 1_555 1_555
O1A H8A 1_555 1_555
H9A O1A 1_555 1_555
O2A C1A 1_555 1_555
O4A C1A 1_555 1_555
O6A C2A 1_555 1_555
O7A C2A 1_555 1_555
Ho1A O3A 1_555 1_555
O2F Ho1A 1_555 1_555
O2G Ho1 1_555 1_555
O4B Ho1A 1_555 1_555
O4C Ho1 1_555 1_555
O5D Ho1 1_555 1_555
O5E Ho1A 1_555 1_555
O6D Ho1 1_555 1_555
O6E Ho1A 1_555 1_555
Ho1B O4A 1_555 1_555
Ho1C O4 1_555 1_555
Ho1D O6 1_555 1_555
Ho1D_2 O5 1_555 1_555
Ho1E O6A 1_555 1_555
Ho1E_2 O5A 1_555 1_555
Ho1F O2A 1_555 1_555
Ho1G O2 1_555 1_555
C8 C10 1_555 1_555
C8 C14 1_555 1_555
C13 N1 1_555 1_555
O5 Ho1 1_555 1_555
O7 Ho1 1_555 1_555
C13A N1A 1_555 1_555
O5A Ho1A 1_555 1_555
C8A C10A 1_555 1_555
C8A C14A 1_555 1_555
O1A Ho1A 1_555 1_555
O7A Ho1A 1_555 1_555
O5D Ho1D_2 1_555 1_555
O5E Ho1E_2 1_555 1_555

#END
