
#######################################################################
#
#                 Cambridge Crystallographic Data Centre
#                                CCDC 
#
#######################################################################
#
# If this CIF has been generated from an entry in the Cambridge 
# Structural Database, then it will include bibliographic, chemical, 
# crystal, experimental, refinement or atomic coordinate data resulting 
# from the CCDC's data processing and validation procedures.
#
#######################################################################

data_VITGAI
_symmetry_cell_setting           monoclinic
_symmetry_space_group_name_H-M   'C 2/c'
_symmetry_Int_Tables_number      15
_space_group_name_Hall           '-C 2yn'
loop_
_symmetry_equiv_pos_site_id
_symmetry_equiv_pos_as_xyz
1 x,y,z
2 -x,y,1/2-z
3 1/2+x,1/2+y,z
4 1/2-x,1/2+y,1/2-z
5 -x,-y,-z
6 x,-y,1/2+z
7 1/2-x,1/2-y,-z
8 1/2+x,1/2-y,1/2+z
_cell_length_a                   24.8642(14)
_cell_length_b                   9.1478(3)
_cell_length_c                   14.5242(8)
_cell_angle_alpha                90
_cell_angle_beta                 124.377(8)
_cell_angle_gamma                90
_cell_volume                     2726.57
loop_
_atom_site_label
_atom_site_type_symbol
_atom_site_fract_x
_atom_site_fract_y
_atom_site_fract_z
C1 C 0.36951(15) 0.4727(3) 0.4185(3)
C2 C 0.29630(15) 0.4695(3) 0.3563(3)
C3 C 0.26093(16) 0.3713(4) 0.2685(3)
H1 H 0.2829 0.3052 0.2522
C4 C 0.19357(16) 0.3707(4) 0.2052(3)
H2 H 0.1705 0.3034 0.1477
C5 C 0.26290(15) 0.5661(3) 0.3814(2)
H3 H 0.2860 0.6304 0.4410
C6 C 0.19542(15) 0.5664(3) 0.3178(3)
H4 H 0.1735 0.6305 0.3354
C7 C 0.16020(15) 0.4713(3) 0.2278(2)
C8 C 0.08720(15) 0.4801(3) 0.1518(2)
C9 C 0.04899(15) 1.0329(3) 0.2113(2)
C10 C 0.07473(15) 1.1529(3) 0.2966(2)
C11 C 0.14074(15) 1.1530(4) 0.3820(3)
H5 H 0.1672 1.0757 0.3894
C12 C 0.16662(17) 1.2689(4) 0.4556(3)
H6 H 0.2103 1.2697 0.5150
C13 C 0.12577(16) 1.3842(3) 0.4387(3)
H7 H 0.1439 1.4648 0.4857
C14 C 0.03599(15) 1.2699(3) 0.2904(2)
N1 N 0.06179(13) 1.3865(3) 0.3585(2)
O1 O 0.39698(10) 0.3620(2) 0.41076(18)
O2 O 0.39776(11) 0.5883(2) 0.47113(18)
O3 O 0.05651(10) 0.3717(2) 0.09096(17)
O4 O 0.06102(10) 0.5975(2) 0.15231(18)
O5 O 0.01709(10) 1.0675(2) 0.10861(17)
O6 O 0.06000(11) 0.9018(2) 0.24150(17)
O7 O -0.05606(11) 0.6888(2) 0.12151(19)
H8 H -0.0415 0.6026 0.1443
H9 H -0.0494 0.7402 0.1760
Gd1 Gd -0.000361(7) 0.797435(15) 0.046399(11)
C9A C -0.04899(15) 1.0329(3) 0.2887(2)
C10A C -0.07473(15) 1.1529(3) 0.2034(2)
C11A C -0.14074(15) 1.1530(4) 0.1180(3)
H5A H -0.1672 1.0757 0.1106
C12A C -0.16662(17) 1.2689(4) 0.0444(3)
H6A H -0.2103 1.2697 -0.0150
C13A C -0.12577(16) 1.3842(3) 0.0613(3)
H7A H -0.1439 1.4648 0.0143
C14A C -0.03599(15) 1.2699(3) 0.2096(2)
N1A N -0.06179(13) 1.3865(3) 0.1415(2)
O5A O -0.01709(10) 1.0675(2) 0.39139(17)
O6A O -0.06000(11) 0.9018(2) 0.25850(17)
C1A C -0.36951(15) 0.4727(3) 0.0815(3)
C2A C -0.29630(15) 0.4695(3) 0.1437(3)
C3A C -0.26093(16) 0.3713(4) 0.2315(3)
H1A H -0.2829 0.3052 0.2478
C4A C -0.19357(16) 0.3707(4) 0.2948(3)
H2A H -0.1705 0.3034 0.3523
C5A C -0.26290(15) 0.5661(3) 0.1186(2)
H3A H -0.2860 0.6304 0.0590
C6A C -0.19542(15) 0.5664(3) 0.1822(3)
H4A H -0.1735 0.6305 0.1646
C7A C -0.16020(15) 0.4713(3) 0.2722(2)
C8A C -0.08720(15) 0.4801(3) 0.3482(2)
O1A O -0.39698(10) 0.3620(2) 0.08924(18)
O2A O -0.39776(11) 0.5883(2) 0.02887(18)
O3A O -0.05651(10) 0.3717(2) 0.40904(17)
O4A O -0.06102(10) 0.5975(2) 0.34769(18)
O7A O 0.05606(11) 0.6888(2) 0.37849(19)
H8A H 0.0415 0.6026 0.3557
H9A H 0.0494 0.7402 0.3240
Gd1A Gd 0.000361(7) 0.797435(15) 0.453601(11)
O1B O -0.10302(10) 0.8620(2) 0.41076(18)
O1C O 0.10302(10) 0.8620(2) 0.08924(18)
O2F O 0.10224(11) 0.9117(2) 0.52887(18)
O2G O -0.10224(11) 0.9117(2) -0.02887(18)
O3D O -0.05651(10) 0.6283(2) -0.09096(17)
O3E O 0.05651(10) 0.6283(2) 0.59096(17)
O5D O -0.01709(10) 0.9325(2) -0.10861(17)
O5E O 0.01709(10) 0.9325(2) 0.60861(17)
Gd1B Gd -0.500361(7) 0.297435(15) 0.046399(11)
Gd1C Gd 0.500361(7) 0.297435(15) 0.453601(11)
Gd1D Gd 0.000361(7) 0.202565(15) -0.046399(11)
Gd1D_2 Gd 0.000361(7) 1.202565(15) -0.046399(11)
Gd1E Gd -0.000361(7) 0.202565(15) 0.546399(11)
Gd1E_2 Gd -0.000361(7) 1.202565(15) 0.546399(11)
Gd1F Gd -0.499639(7) 0.702565(15) -0.046399(11)
Gd1G Gd 0.499639(7) 0.702565(15) 0.546399(11)
loop_
_geom_bond_atom_site_label_1
_geom_bond_atom_site_label_2
_geom_bond_site_symmetry_1
_geom_bond_site_symmetry_2
C1 C2 1_555 1_555
C2 C3 1_555 1_555
C3 H1 1_555 1_555
C4 C3 1_555 1_555
H2 C4 1_555 1_555
C5 C2 1_555 1_555
H3 C5 1_555 1_555
C6 C5 1_555 1_555
H4 C6 1_555 1_555
C7 C4 1_555 1_555
C8 C7 1_555 1_555
C9 C10 1_555 1_555
C10 C11 1_555 1_555
C11 H5 1_555 1_555
C12 C11 1_555 1_555
H6 C12 1_555 1_555
C13 C12 1_555 1_555
H7 C13 1_555 1_555
C14 C10 1_555 1_555
N1 C13 1_555 1_555
O1 C1 1_555 1_555
O2 C1 1_555 1_555
O3 C8 1_555 1_555
O4 C8 1_555 1_555
O5 C9 1_555 1_555
O6 C9 1_555 1_555
O7 H8 1_555 1_555
H9 O7 1_555 1_555
Gd1 O4 1_555 1_555
C9A C10A 1_555 1_555
C10A C11A 1_555 1_555
C11A H5A 1_555 1_555
C12A C11A 1_555 1_555
H6A C12A 1_555 1_555
C13A C12A 1_555 1_555
H7A C13A 1_555 1_555
C14A C14 1_555 1_555
N1A C13A 1_555 1_555
O5A C9A 1_555 1_555
O6A C9A 1_555 1_555
C1A C2A 1_555 1_555
C2A C3A 1_555 1_555
C3A H1A 1_555 1_555
C4A C3A 1_555 1_555
H2A C4A 1_555 1_555
C5A C2A 1_555 1_555
H3A C5A 1_555 1_555
C6A C5A 1_555 1_555
H4A C6A 1_555 1_555
C7A C4A 1_555 1_555
C8A C7A 1_555 1_555
O1A C1A 1_555 1_555
O2A C1A 1_555 1_555
O3A C8A 1_555 1_555
O4A C8A 1_555 1_555
O7A H8A 1_555 1_555
H9A O7A 1_555 1_555
Gd1A O5A 1_555 1_555
O1B Gd1A 1_555 1_555
O1C Gd1 1_555 1_555
O2F Gd1A 1_555 1_555
O2G Gd1 1_555 1_555
O3D Gd1 1_555 1_555
O3E Gd1A 1_555 1_555
O5D Gd1 1_555 1_555
O5E Gd1A 1_555 1_555
Gd1B O1A 1_555 1_555
Gd1C O1 1_555 1_555
Gd1D O3 1_555 1_555
Gd1D_2 O5 1_555 1_555
Gd1E O3A 1_555 1_555
Gd1E_2 O5A 1_555 1_555
Gd1F O2A 1_555 1_555
Gd1G O2 1_555 1_555
C6 C7 1_555 1_555
C14 N1 1_555 1_555
O5 Gd1 1_555 1_555
O6 Gd1 1_555 1_555
O7 Gd1 1_555 1_555
C10A C14A 1_555 1_555
C14A N1A 1_555 1_555
O6A Gd1A 1_555 1_555
C6A C7A 1_555 1_555
O4A Gd1A 1_555 1_555
O7A Gd1A 1_555 1_555
O5D Gd1D_2 1_555 1_555
O5E Gd1E_2 1_555 1_555

#END
