
#######################################################################
#
#                 Cambridge Crystallographic Data Centre
#                                CCDC 
#
#######################################################################
#
# If this CIF has been generated from an entry in the Cambridge 
# Structural Database, then it will include bibliographic, chemical, 
# crystal, experimental, refinement or atomic coordinate data resulting 
# from the CCDC's data processing and validation procedures.
#
#######################################################################

data_VITHUD
_symmetry_cell_setting           monoclinic
_symmetry_space_group_name_H-M   'P 21'
_symmetry_Int_Tables_number      4
_space_group_name_Hall           'P 2yb'
loop_
_symmetry_equiv_pos_site_id
_symmetry_equiv_pos_as_xyz
1 x,y,z
2 -x,1/2+y,-z
_cell_length_a                   19.4791(7)
_cell_length_b                   9.9940(4)
_cell_length_c                   22.0270(9)
_cell_angle_alpha                90
_cell_angle_beta                 91.084(4)
_cell_angle_gamma                90
_cell_volume                     4287.32
loop_
_atom_site_label
_atom_site_type_symbol
_atom_site_fract_x
_atom_site_fract_y
_atom_site_fract_z
Zn1 Zn 1.34921(6) 0.84607(13) 0.07704(6)
O1 O 0.9230(3) 0.8535(8) 0.1237(3)
O2 O 0.8751(4) 0.7793(11) 0.2074(4)
O3 O 1.2753(3) 0.9793(8) 0.0824(3)
O4 O 1.2156(4) 0.8642(8) 0.1500(4)
O5 O 1.3934(3) -0.0570(8) 0.0087(3)
O6 O 1.3178(4) -0.1310(8) -0.0598(4)
O7 O 1.3118(3) 0.6628(7) 0.0785(4)
O8 O 1.4155(3) 0.6128(7) 0.0468(4)
N1 N 1.0220(4) 0.9907(9) 0.1801(3)
N2 N 1.1135(4) 1.0658(9) 0.1414(4)
N3 N 1.3757(4) 0.3459(9) 0.0378(4)
N4 N 1.3833(4) 0.1994(9) -0.0318(4)
C1 C 0.9205(5) 0.8390(11) 0.1788(5)
C2 C 0.9766(5) 0.9067(13) 0.2177(5)
H1 H 1.0052 0.8355 0.2377
C3 C 0.9460(7) 0.9923(17) 0.2663(6)
H2 H 0.9821 1.0464 0.2857
H3 H 0.9247 0.9350 0.2967
H4 H 0.9111 1.0514 0.2481
C4 C 1.0878(5) 0.9819(11) 0.1795(4)
H5 H 1.1141 0.9217 0.2038
C5 C 1.0012(5) 1.0887(11) 0.1408(5)
H6 H 0.9556 1.1174 0.1321
C6 C 1.0587(5) 1.1351(12) 0.1176(5)
H7 H 1.0615 1.2056 0.0889
C7 C 1.1856(5) 1.0931(11) 0.1308(5)
H8 H 1.1882 1.1513 0.0940
C8 C 1.2172(6) 1.1685(14) 0.1830(6)
H9 H 1.1953 1.2564 0.1862
H10 H 1.2665 1.1800 0.1763
H11 H 1.2105 1.1183 0.2207
C9 C 1.2293(5) 0.9668(11) 0.1191(5)
C10 C 1.3575(4) -0.0452(12) -0.0396(4)
C11 C 1.3615(5) 0.0867(11) -0.0735(5)
H12 H 1.3150 0.1079 -0.0910
C12 C 1.4124(6) 0.0714(17) -0.1262(5)
H13 H 1.4194 0.1586 -0.1455
H14 H 1.3937 0.0082 -0.1562
H15 H 1.4565 0.0377 -0.1102
C13 C 1.3591(4) 0.5832(11) 0.0660(5)
C14 C 1.3458(5) 0.4334(11) 0.0839(6)
H16 H 1.2952 0.4173 0.0851
C15 C 1.3768(6) 0.4055(12) 0.1457(6)
H17 H 1.3574 0.3226 0.1618
H18 H 1.3664 0.4798 0.1731
H19 H 1.4266 0.3960 0.1425
C16 C 1.3397(4) 0.2624(11) 0.0023(5)
H20 H 1.2912 0.2508 0.0019
C17 C 1.4429(5) 0.3305(13) 0.0274(6)
H21 H 1.4799 0.3768 0.0467
C18 C 1.4472(5) 0.2348(11) -0.0165(6)
H22 H 1.4881 0.1999 -0.0331
O9 O 1.7563(3) 0.9507(7) 0.1098(4)
O10 O 1.8323(3) 1.0967(8) 0.1469(4)
O11 O 1.4201(4) 0.8969(8) 0.1369(4)
O12 O 1.4275(5) 0.7182(9) 0.1966(4)
N5 N 1.6468(4) 1.0833(9) 0.1539(4)
N6 N 1.5551(4) 0.9710(9) 0.1740(3)
C19 C 1.7743(5) 1.0621(11) 0.1385(5)
C20 C 1.7154(5) 1.1486(11) 0.1606(5)
H23 H 1.7143 1.2310 0.1348
C21 C 1.7294(6) 1.1929(14) 0.2250(6)
H24 H 1.6974 1.2645 0.2356
H25 H 1.7766 1.2260 0.2289
H26 H 1.7233 1.1169 0.2525
C22 C 1.6168(5) 1.0046(12) 0.1945(5)
H27 H 1.6367 0.9770 0.2322
C23 C 1.6022(6) 1.1007(13) 0.1056(5)
H28 H 1.6108 1.1518 0.0702
C24 C 1.5451(5) 1.0338(12) 0.1170(4)
H29 H 1.5051 1.0290 0.0917
C25 C 1.5067(5) 0.8994(12) 0.2133(5)
H30 H 1.5334 0.8299 0.2363
C26 C 1.4756(7) 0.9940(15) 0.2595(6)
H31 H 1.5109 1.0194 0.2897
H32 H 1.4377 0.9491 0.2799
H33 H 1.4584 1.0743 0.2388
C27 C 1.4477(5) 0.8271(11) 0.1785(4)
O13 O 0.8678(4) -0.0183(7) 0.0111(3)
O14 O 0.8173(4) -0.1208(8) -0.0683(4)
O15 O 0.8016(3) 0.6806(7) 0.0648(3)
O16 O 0.9018(4) 0.6419(8) 0.0208(4)
N7 N 0.8737(4) 0.3699(8) 0.0163(4)
N8 N 0.8866(4) 0.2110(9) -0.0483(3)
C28 C 0.8498(5) -0.0281(10) -0.0442(5)
C29 C 0.8499(4) 0.6045(12) 0.0451(5)
C30 C 0.8392(5) 0.4581(11) 0.0611(5)
H34 H 0.7888 0.4386 0.0598
C31 C 0.8662(6) 0.4343(12) 0.1254(5)
H35 H 0.8592 0.3404 0.1364
H36 H 0.8416 0.4920 0.1536
H37 H 0.9154 0.4551 0.1275
C32 C 0.8413(5) 0.2700(10) -0.0136(4)
H38 H 0.7943 0.2464 -0.0104
C33 C 0.9408(4) 0.3697(11) 0.0002(5)
H39 H 0.9754 0.4292 0.0149
C34 C 0.9495(5) 0.2705(12) -0.0400(5)
H40 H 0.9911 0.2463 -0.0589
C35 C 0.8692(5) 0.0924(11) -0.0846(4)
H41 H 0.8290 0.1146 -0.1116
C36 C 0.9293(6) 0.0513(13) -0.1247(5)
H42 H 0.9458 0.1296 -0.1469
H43 H 0.9139 -0.0173 -0.1537
H44 H 0.9667 0.0153 -0.0992
Zn2 Zn 0.83825(6) 0.86121(13) 0.07463(6)
Zn1_2 Zn 1.34921(6) -0.15393(13) 0.07704(6)
O5_2 O 1.3934(3) 0.9430(8) 0.0087(3)
O9_2 O 0.7563(3) 0.9507(7) 0.1098(4)
O13_2 O 0.8678(4) 0.9817(7) 0.0111(3)
Zn2_2 Zn 0.83825(6) -0.13879(13) 0.07463(6)
Zn2_3 Zn 1.83825(6) 0.86121(13) 0.07463(6)
Zn3 Zn 0.60305(7) 0.79135(14) 0.43343(7)
Zn4 Zn 1.08892(7) 0.75879(13) 0.41048(6)
O17 O 0.5374(4) 0.6535(9) 0.4119(5)
O18 O 0.4550(4) 0.7747(8) 0.3680(4)
O19 O 0.1714(3) 0.7604(8) 0.3614(3)
O20 O 0.1132(4) 0.7598(13) 0.2718(4)
O21 O 0.6415(4) 0.6963(8) 0.5053(3)
O22 O 0.5576(4) 0.7628(8) 0.5649(4)
O23 O 0.5644(4) -0.0245(8) 0.4319(4)
O24 O 0.6712(4) 0.0202(8) 0.4633(4)
O25 O 0.6808(4) 0.7431(8) 0.3829(4)
O26 O 0.6747(5) 0.9017(10) 0.3115(4)
O27 O 1.0028(4) 0.6639(7) 0.3821(4)
O28 O 1.0775(4) 0.5013(8) 0.3579(4)
O29 O 1.0531(3) 0.9426(7) 0.4157(4)
O30 O 1.1534(3) 0.9860(7) 0.4625(3)
O31 O 1.0630(4) 1.7388(7) 0.5515(3)
O32 O 1.1234(4) 1.6468(8) 0.4776(3)
N9 N 0.3738(4) 0.5517(9) 0.3552(4)
N10 N 0.2761(4) 0.6174(9) 0.3181(3)
N11 N 0.6328(4) 0.4413(9) 0.5480(4)
N12 N 0.6284(4) 0.2868(9) 0.4804(4)
N13 N 0.7992(4) 0.6377(9) 0.3329(4)
N14 N 0.8908(4) 0.5175(9) 0.3492(4)
C37 C 1.1689(6) 1.5518(13) 0.6172(5)
N15 N 1.1221(4) 1.2566(9) 0.4611(4)
C38 C 0.4825(6) 0.6685(11) 0.3843(5)
C39 C 0.4471(6) 0.5384(10) 0.3637(5)
H45 H 0.4545 0.4722 0.3973
C40 C 0.4809(6) 0.4794(15) 0.3075(6)
H46 H 0.4532 0.4046 0.2920
H47 H 0.5271 0.4475 0.3183
H48 H 0.4840 0.5485 0.2760
C41 C 0.3412(5) 0.6242(11) 0.3113(4)
H49 H 0.3633 0.6727 0.2801
C42 C 0.3244(6) 0.5009(12) 0.3916(5)
H50 H 0.3321 0.4467 0.4266
C43 C 0.2628(5) 0.5410(12) 0.3694(5)
H51 H 0.2191 0.5210 0.3855
C44 C 0.2234(6) 0.6650(16) 0.2740(5)
H52 H 0.2454 0.7271 0.2445
C45 C 0.1963(7) 0.5422(19) 0.2397(6)
H53 H 0.2351 0.4878 0.2263
H54 H 0.1691 0.5712 0.2042
H55 H 0.1675 0.4890 0.2665
C46 C 0.1640(5) 0.7383(13) 0.3045(5)
C47 C 0.6016(5) 0.6814(11) 0.5504(5)
C48 C 0.6098(6) 0.5556(11) 0.5866(5)
H56 H 0.5637 0.5318 0.6025
C49 C 0.6568(7) 0.5784(13) 0.6401(5)
H57 H 0.7010 0.6123 0.6261
H58 H 0.6640 0.4939 0.6618
H59 H 0.6362 0.6440 0.6673
C50 C 0.6976(5) 0.3905(12) 0.5435(5)
H60 H 0.7371 0.4182 0.5662
C51 C 0.6953(5) 0.2939(13) 0.5009(6)
H61 H 0.7326 0.2410 0.4876
C52 C 0.5919(5) 0.3769(11) 0.5101(4)
H62 H 0.5441 0.3923 0.5047
C53 C 0.5993(5) 0.2024(11) 0.4299(5)
H63 H 0.5485 0.2164 0.4265
C54 C 0.6321(7) 0.2407(14) 0.3707(5)
H64 H 0.6124 0.3251 0.3559
H65 H 0.6236 0.1702 0.3405
H66 H 0.6817 0.2515 0.3772
C55 C 0.6147(5) 0.0526(11) 0.4438(5)
C56 C 0.6969(6) 0.7934(12) 0.3339(5)
C57 C 0.7497(5) 0.7172(13) 0.2970(4)
H67 H 0.7771 0.7863 0.2753
C58 C 0.7139(7) 0.6346(15) 0.2484(6)
H68 H 0.7467 0.6115 0.2169
H69 H 0.6760 0.6863 0.2304
H70 H 0.6959 0.5525 0.2665
C59 C 0.8601(5) 0.6055(10) 0.3133(5)
H71 H 0.8797 0.6411 0.2776
C60 C 0.7898(6) 0.5637(15) 0.3859(5)
H72 H 0.7501 0.5630 0.4103
C61 C 0.8479(6) 0.4934(12) 0.3958(5)
H73 H 0.8572 0.4367 0.4296
C62 C 0.9594(5) 0.4585(11) 0.3402(5)
H74 H 0.9613 0.3733 0.3640
C63 C 0.9695(7) 0.4222(15) 0.2743(6)
H75 H 0.9285 0.3760 0.2585
H76 H 1.0095 0.3633 0.2710
H77 H 0.9770 0.5039 0.2507
C64 C 1.0201(5) 0.5453(13) 0.3619(5)
C65 C 1.0975(5) 1.6475(10) 0.5283(4)
C66 C 1.1127(5) 1.5226(11) 0.5684(4)
H78 H 1.0696 1.4988 0.5899
N16 N 1.1317(3) 1.4080(8) 0.5305(3)
C67 C 1.1019(4) 1.0201(10) 0.4361(5)
C68 C 1.0912(5) 1.1656(10) 0.4159(4)
H79 H 1.0408 1.1840 0.4126
C69 C 1.1234(5) 1.1877(12) 0.3533(5)
H80 H 1.1112 1.2770 0.3383
H81 H 1.1061 1.1199 0.3248
H82 H 1.1735 1.1803 0.3572
C70 C 1.1910(5) 1.2702(12) 0.4751(5)
H83 H 1.2277 1.2208 0.4583
C71 C 1.1960(5) 1.3682(11) 0.5178(5)
H84 H 1.2372 1.4024 0.5355
C72 C 1.0879(4) 1.3407(10) 0.4952(4)
H85 H 1.0395 1.3514 0.4947
Zn3_2 Zn 0.60305(7) -0.20865(14) 0.43343(7)
Zn4_2 Zn 0.08892(7) 0.75879(13) 0.41048(6)
Zn4_3 Zn 1.08892(7) 1.75879(13) 0.41048(6)
O19_2 O 1.1714(3) 0.7604(8) 0.3614(3)
O23_2 O 0.5644(4) 0.9755(8) 0.4319(4)
O32_2 O 1.1234(4) 0.6468(8) 0.4776(3)
loop_
_geom_bond_atom_site_label_1
_geom_bond_atom_site_label_2
_geom_bond_site_symmetry_1
_geom_bond_site_symmetry_2
Zn1 O3 1_555 1_555
O1 C1 1_555 1_555
O2 C1 1_555 1_555
O3 C9 1_555 1_555
O4 C9 1_555 1_555
O5 C10 1_555 1_555
O6 C10 1_555 1_555
O7 Zn1 1_555 1_555
O8 C13 1_555 1_555
N1 C2 1_555 1_555
N2 C4 1_555 1_555
N3 C14 1_555 1_555
N4 C11 1_555 1_555
C1 C2 1_555 1_555
C2 H1 1_555 1_555
C3 C2 1_555 1_555
H2 C3 1_555 1_555
H3 C3 1_555 1_555
H4 C3 1_555 1_555
C4 N1 1_555 1_555
H5 C4 1_555 1_555
C5 N1 1_555 1_555
H6 C5 1_555 1_555
C6 N2 1_555 1_555
H7 C6 1_555 1_555
C7 N2 1_555 1_555
H8 C7 1_555 1_555
C8 C7 1_555 1_555
H9 C8 1_555 1_555
H10 C8 1_555 1_555
H11 C8 1_555 1_555
C9 C7 1_555 1_555
C10 C11 1_555 1_555
C11 H12 1_555 1_555
C12 C11 1_555 1_555
H13 C12 1_555 1_555
H14 C12 1_555 1_555
H15 C12 1_555 1_555
C13 O7 1_555 1_555
C14 C13 1_555 1_555
H16 C14 1_555 1_555
C15 C14 1_555 1_555
H17 C15 1_555 1_555
H18 C15 1_555 1_555
H19 C15 1_555 1_555
C16 N3 1_555 1_555
H20 C16 1_555 1_555
C17 N3 1_555 1_555
H21 C17 1_555 1_555
C18 N4 1_555 1_555
H22 C18 1_555 1_555
O9 C19 1_555 1_555
O10 C19 1_555 1_555
O11 Zn1 1_555 1_555
O12 C27 1_555 1_555
N5 C20 1_555 1_555
N6 C22 1_555 1_555
C19 C20 1_555 1_555
C20 H23 1_555 1_555
C21 C20 1_555 1_555
H24 C21 1_555 1_555
H25 C21 1_555 1_555
H26 C21 1_555 1_555
C22 N5 1_555 1_555
H27 C22 1_555 1_555
C23 N5 1_555 1_555
H28 C23 1_555 1_555
C24 N6 1_555 1_555
H29 C24 1_555 1_555
C25 N6 1_555 1_555
H30 C25 1_555 1_555
C26 C25 1_555 1_555
H31 C26 1_555 1_555
H32 C26 1_555 1_555
H33 C26 1_555 1_555
C27 O11 1_555 1_555
O13 C28 1_555 1_555
O14 C28 1_555 1_555
O15 C29 1_555 1_555
O16 C29 1_555 1_555
N7 C30 1_555 1_555
N8 C32 1_555 1_555
C28 C35 1_555 1_555
C29 C30 1_555 1_555
C30 H34 1_555 1_555
C31 C30 1_555 1_555
H35 C31 1_555 1_555
H36 C31 1_555 1_555
H37 C31 1_555 1_555
C32 N7 1_555 1_555
H38 C32 1_555 1_555
C33 N7 1_555 1_555
H39 C33 1_555 1_555
C34 N8 1_555 1_555
H40 C34 1_555 1_555
C35 N8 1_555 1_555
H41 C35 1_555 1_555
C36 C35 1_555 1_555
H42 C36 1_555 1_555
H43 C36 1_555 1_555
H44 C36 1_555 1_555
Zn2 O1 1_555 1_555
Zn3 O17 1_555 1_555
Zn4 O27 1_555 1_555
O17 C38 1_555 1_555
O18 C38 1_555 1_555
O19 C46 1_555 1_555
O20 C46 1_555 1_555
O21 Zn3 1_555 1_555
O22 C47 1_555 1_555
O23 C55 1_555 1_555
O24 C55 1_555 1_555
O25 Zn3 1_555 1_555
O26 C56 1_555 1_555
O27 C64 1_555 1_555
O28 C64 1_555 1_555
O29 Zn4 1_555 1_555
O30 C67 1_555 1_555
O31 C65 1_555 1_555
O32 C65 1_555 1_555
N9 C39 1_555 1_555
N10 C41 1_555 1_555
N11 C48 1_555 1_555
N12 C51 1_555 1_555
N13 C57 1_555 1_555
N14 C59 1_555 1_555
C37 C66 1_555 1_555
N15 C68 1_555 1_555
C38 C39 1_555 1_555
C39 H45 1_555 1_555
C40 C39 1_555 1_555
H46 C40 1_555 1_555
H47 C40 1_555 1_555
H48 C40 1_555 1_555
C41 N9 1_555 1_555
H49 C41 1_555 1_555
C42 N9 1_555 1_555
H50 C42 1_555 1_555
C43 N10 1_555 1_555
H51 C43 1_555 1_555
C44 N10 1_555 1_555
H52 C44 1_555 1_555
C45 C44 1_555 1_555
H53 C45 1_555 1_555
H54 C45 1_555 1_555
H55 C45 1_555 1_555
C46 C44 1_555 1_555
C47 O21 1_555 1_555
C48 C47 1_555 1_555
H56 C48 1_555 1_555
C49 C48 1_555 1_555
H57 C49 1_555 1_555
H58 C49 1_555 1_555
H59 C49 1_555 1_555
C50 N11 1_555 1_555
H60 C50 1_555 1_555
C51 C50 1_555 1_555
H61 C51 1_555 1_555
C52 N11 1_555 1_555
H62 C52 1_555 1_555
C53 N12 1_555 1_555
H63 C53 1_555 1_555
C54 C53 1_555 1_555
H64 C54 1_555 1_555
H65 C54 1_555 1_555
H66 C54 1_555 1_555
C55 C53 1_555 1_555
C56 O25 1_555 1_555
C57 C56 1_555 1_555
H67 C57 1_555 1_555
C58 C57 1_555 1_555
H68 C58 1_555 1_555
H69 C58 1_555 1_555
H70 C58 1_555 1_555
C59 N13 1_555 1_555
H71 C59 1_555 1_555
C60 N13 1_555 1_555
H72 C60 1_555 1_555
C61 N14 1_555 1_555
H73 C61 1_555 1_555
C62 N14 1_555 1_555
H74 C62 1_555 1_555
C63 C62 1_555 1_555
H75 C63 1_555 1_555
H76 C63 1_555 1_555
H77 C63 1_555 1_555
C64 C62 1_555 1_555
C65 C66 1_555 1_555
C66 H78 1_555 1_555
N16 C66 1_555 1_555
C67 O29 1_555 1_555
C68 C67 1_555 1_555
H79 C68 1_555 1_555
C69 C68 1_555 1_555
H80 C69 1_555 1_555
H81 C69 1_555 1_555
H82 C69 1_555 1_555
C70 N15 1_555 1_555
H83 C70 1_555 1_555
C71 N16 1_555 1_555
H84 C71 1_555 1_555
C72 N15 1_555 1_555
H85 C72 1_555 1_555
Zn1_2 O5 1_555 1_555
O5_2 Zn1 1_555 1_555
O9_2 Zn2 1_555 1_555
O13_2 Zn2 1_555 1_555
Zn2_2 O13 1_555 1_555
Zn2_3 O9 1_555 1_555
Zn3_2 O23 1_555 1_555
Zn4_2 O19 1_555 1_555
Zn4_3 O32 1_555 1_555
O19_2 Zn4 1_555 1_555
O23_2 Zn3 1_555 1_555
O32_2 Zn4 1_555 1_555
N4 C16 1_555 1_555
C5 C6 1_555 1_555
C17 C18 1_555 1_555
C23 C24 1_555 1_555
C25 C27 1_555 1_555
O15 Zn2 1_555 1_555
C33 C34 1_555 1_555
N12 C52 1_555 1_555
C42 C43 1_555 1_555
C60 C61 1_555 1_555
N16 C72 1_555 1_555
C70 C71 1_555 1_555

#END
