
#######################################################################
#
#                 Cambridge Crystallographic Data Centre
#                                CCDC 
#
#######################################################################
#
# If this CIF has been generated from an entry in the Cambridge 
# Structural Database, then it will include bibliographic, chemical, 
# crystal, experimental, refinement or atomic coordinate data resulting 
# from the CCDC's data processing and validation procedures.
#
#######################################################################

data_VITJAL
_symmetry_cell_setting           trigonal
_symmetry_space_group_name_H-M   'P 32 2 1'
_symmetry_Int_Tables_number      154
_space_group_name_Hall           'P 32 2"'
loop_
_symmetry_equiv_pos_site_id
_symmetry_equiv_pos_as_xyz
1 x,y,z
2 -y,x-y,2/3+z
3 -x+y,-x,1/3+z
4 y,x,-z
5 x-y,-y,1/3-z
6 -x,-x+y,2/3-z
_cell_length_a                   7.0182(11)
_cell_length_b                   7.0182(11)
_cell_length_c                   28.121(9)
_cell_angle_alpha                90
_cell_angle_beta                 90
_cell_angle_gamma                120
_cell_volume                     1199.53
loop_
_atom_site_label
_atom_site_type_symbol
_atom_site_fract_x
_atom_site_fract_y
_atom_site_fract_z
C1 C 0.3146 0.0000 0.1667
C2 C 0.0870 -0.1811 0.1630
H1 H 0.0334 -0.2404 0.1941
H2 H 0.0816 -0.2942 0.1429
H3 H -0.0032 -0.1274 0.1497
H4 H 0.1481 0.5216 0.0431
H5 H -0.0023 0.3916 0.0165
C3 C 0.464(3) -0.183(2) 0.1418(4)
H6 H 0.5963 -0.1754 0.1289
H7 H 0.3394 -0.3156 0.1293
O1 O 0.0850(8) 0.3931(7) 0.03537(15)
O2 O 0.3337(8) 0.1709(7) 0.06473(13)
Co1 Co 0.24634(13) 0.24634(13) 0.0000
N1 N 0.5537(10) 0.5537(10) 0.0000
O3 O 0.3124(10) -0.1466(8) 0.04719(18)
C4 C 0.8356(11) 0.8505(11) 0.0398(2)
H8 H 0.8938 0.9207 0.0686
N2 N 0.9448(9) 0.9448(9) 0.0000
C5 C 0.4514(11) 0.0100(11) 0.1238(2)
C6 C 0.6412(10) 0.6545(11) 0.0402(2)
H9 H 0.5715 0.5931 0.0689
C7 C 0.3576(10) 0.0115(10) 0.0752(2)
C8 C 0.6770(17) 0.2087(18) 0.1294(4)
H10 H 0.6886 0.3432 0.1171
H11 H 0.7945 0.1877 0.1172
C2D C 0.2681 0.1811 0.1703
H1D H 0.2738 0.2404 0.1392
H2D H 0.3758 0.2942 0.1904
H3D H 0.1242 0.1274 0.1836
C3D C 0.647(4) 0.183(2) 0.1915(4)
H6D H 0.7717 0.1754 0.2044
H7D H 0.6550 0.3156 0.2040
O2D O 0.1628(11) -0.1709(7) 0.26860(13)
O3D O 0.4590(13) 0.1466(8) 0.28614(18)
C5D C 0.4414(16) -0.0100(11) 0.2095(2)
C7D C 0.3461(14) -0.0115(10) 0.2581(2)
C8D C 0.4683(25) -0.2087(18) 0.2039(4)
H10D H 0.3454 -0.3432 0.2162
H11D H 0.6068 -0.1877 0.2161
C6C C 0.6545(11) 0.6412(10) -0.0402(2)
H9C H 0.5931 0.5715 -0.0689
C4C C 0.8505(11) 0.8356(11) -0.0398(2)
H8C H 0.9207 0.8938 -0.0686
H4C H 0.5216 0.1481 -0.0431
H5C H 0.3916 -0.0023 -0.0165
O1C O 0.3931(7) 0.0850(8) -0.03537(15)
O2C O 0.1709(7) 0.3337(8) -0.06473(13)
Co1_2 Co 1.24634(13) 1.24634(13) 0.0000
Co1B Co 0.00000(18) -0.24634(13) 0.3333
N2_2 N -0.0552(9) -0.0552(9) 0.0000
loop_
_geom_bond_atom_site_label_1
_geom_bond_atom_site_label_2
_geom_bond_site_symmetry_1
_geom_bond_site_symmetry_2
C1 C2 1_555 1_555
C2 H1 1_555 1_555
H2 C2 1_555 1_555
H3 C2 1_555 1_555
H4 O1 1_555 1_555
H5 O1 1_555 1_555
C3 H6 1_555 1_555
H7 C3 1_555 1_555
O1 Co1 1_555 1_555
O2 Co1 1_555 1_555
Co1 N1 1_555 1_555
N1 C6 1_555 1_555
O3 C7 1_555 1_555
C4 H8 1_555 1_555
N2 C4 1_555 1_555
C5 C1 1_555 1_555
C6 C4 1_555 1_555
H9 C6 1_555 1_555
C7 O2 1_555 1_555
C8 C5 1_555 1_555
H10 C8 1_555 1_555
H11 C8 1_555 1_555
C2D C1 1_555 1_555
H1D C2D 1_555 1_555
H2D C2D 1_555 1_555
H3D C2D 1_555 1_555
C3D C8 1_555 1_555
H6D C3D 1_555 1_555
H7D C3D 1_555 1_555
O2D C7D 1_555 1_555
O3D C7D 1_555 1_555
C5D C1 1_555 1_555
C7D C5D 1_555 1_555
C8D C3 1_555 1_555
H10D C8D 1_555 1_555
H11D C8D 1_555 1_555
C6C N1 1_555 1_555
H9C C6C 1_555 1_555
C4C N2 1_555 1_555
H8C C4C 1_555 1_555
H4C O1C 1_555 1_555
H5C O1C 1_555 1_555
O1C Co1 1_555 1_555
O2C Co1 1_555 1_555
Co1_2 N2 1_555 1_555
Co1B O2D 1_555 1_555
N2_2 Co1 1_555 1_555
C3 C5 1_555 1_555
C5 C7 1_555 1_555
C3D C5D 1_555 1_555
C5D C8D 1_555 1_555
C6C C4C 1_555 1_555

#END
