
#######################################################################
#
#                 Cambridge Crystallographic Data Centre
#                                CCDC 
#
#######################################################################
#
# If this CIF has been generated from an entry in the Cambridge 
# Structural Database, then it will include bibliographic, chemical, 
# crystal, experimental, refinement or atomic coordinate data resulting 
# from the CCDC's data processing and validation procedures.
#
#######################################################################

data_VITLAM
_symmetry_cell_setting           monoclinic
_symmetry_space_group_name_H-M   'P 21/n'
_symmetry_Int_Tables_number      14
_space_group_name_Hall           '-P 2yn'
loop_
_symmetry_equiv_pos_site_id
_symmetry_equiv_pos_as_xyz
1 x,y,z
2 1/2-x,1/2+y,1/2-z
3 -x,-y,-z
4 1/2+x,1/2-y,1/2+z
_cell_length_a                   11.290(4)
_cell_length_b                   12.660(5)
_cell_length_c                   15.202(6)
_cell_angle_alpha                90
_cell_angle_beta                 90.141(6)
_cell_angle_gamma                90
_cell_volume                     2172.84
loop_
_atom_site_label
_atom_site_type_symbol
_atom_site_fract_x
_atom_site_fract_y
_atom_site_fract_z
Ag1 Ag 0.77505(5) 0.70971(4) 0.11409(4)
N1 N 0.7999(4) 0.8711(4) 0.2083(3)
N2 N 0.7794(4) 1.0035(4) 0.3532(3)
N3 N 0.6041(4) 0.8041(4) 0.1196(3)
N4 N 0.5667(4) 1.1041(4) 0.3823(3)
N5 N 1.0937(7) 0.8062(9) 0.2302(9)
N6 N 1.0746(5) 1.0226(7) 0.4096(5)
C1 C 0.6961(4) 0.9142(4) 0.2293(3)
C2 C 0.6845(5) 0.9737(4) 0.3075(4)
C3 C 0.8826(4) 0.9650(5) 0.3273(4)
C4 C 0.8918(5) 0.8958(5) 0.2602(5)
C5 C 0.5989(5) 0.8944(5) 0.1643(4)
C6 C 0.5118(5) 0.9684(5) 0.1488(4)
H1 H 0.5116 1.0329 0.1781
C7 C 0.4243(6) 0.9435(7) 0.0875(5)
H2 H 0.3640 0.9915 0.0755
C8 C 0.4272(7) 0.8499(8) 0.0458(5)
H3 H 0.3676 0.8308 0.0066
C9 C 0.5185(7) 0.7849(6) 0.0622(5)
H4 H 0.5218 0.7218 0.0311
C10 C 0.5693(4) 1.0070(5) 0.3471(3)
C11 C 0.4756(5) 0.9380(5) 0.3514(4)
H5 H 0.4810 0.8708 0.3270
C12 C 0.3719(5) 0.9711(5) 0.3932(4)
H6 H 0.3068 0.9263 0.3968
C13 C 0.3675(5) 1.0699(6) 0.4287(4)
H7 H 0.2994 1.0936 0.4567
C14 C 0.4663(5) 1.1344(5) 0.4223(4)
H8 H 0.4630 1.2016 0.4468
C15 C 1.0049(7) 0.8436(8) 0.2407(7)
C16 C 0.9877(6) 0.9984(6) 0.3752(5)
N7 N 0.7991(14) 0.7840(10) -0.0432(7)
C17 C 0.8131(17) 0.8308(14) -0.0999(15)
C18 C 0.8166(13) 0.8647(16) -0.1997(12)
H9 H 0.8613 0.8138 -0.2326
H10 H 0.8533 0.9328 -0.2048
H11 H 0.7373 0.8681 -0.2225
Ag1A Ag 0.72495(5) 1.20971(4) 0.38591(4)
N4A N 0.9333(4) 0.6041(4) 0.1177(3)
Cl1 Cl 0.80810(17) 0.17126(13) 0.13506(11)
O1 O 0.8125(7) 0.0834(5) 0.0826(5)
O2 O 0.8932(6) 0.1746(6) 0.2015(4)
O3 O 0.6955(6) 0.1679(6) 0.1797(4)
O4 O 0.8083(7) 0.2634(5) 0.0866(4)
loop_
_geom_bond_atom_site_label_1
_geom_bond_atom_site_label_2
_geom_bond_site_symmetry_1
_geom_bond_site_symmetry_2
Ag1 N1 1_555 1_555
N1 C1 1_555 1_555
N2 C2 1_555 1_555
N3 Ag1 1_555 1_555
N4 C10 1_555 1_555
N5 C15 1_555 1_555
N6 C16 1_555 1_555
C1 C2 1_555 1_555
C2 C10 1_555 1_555
C3 N2 1_555 1_555
C4 N1 1_555 1_555
C5 N3 1_555 1_555
C6 C5 1_555 1_555
H1 C6 1_555 1_555
C7 C6 1_555 1_555
H2 C7 1_555 1_555
C8 C7 1_555 1_555
H3 C8 1_555 1_555
C9 N3 1_555 1_555
H4 C9 1_555 1_555
C10 C11 1_555 1_555
C11 H5 1_555 1_555
C12 C11 1_555 1_555
H6 C12 1_555 1_555
C13 C12 1_555 1_555
H7 C13 1_555 1_555
C14 N4 1_555 1_555
H8 C14 1_555 1_555
C15 C4 1_555 1_555
C16 C3 1_555 1_555
N7 Ag1 1_555 1_555
C17 N7 1_555 1_555
C18 C17 1_555 1_555
H9 C18 1_555 1_555
H10 C18 1_555 1_555
H11 C18 1_555 1_555
Cl1 O1 1_555 1_555
O2 Cl1 1_555 1_555
O3 Cl1 1_555 1_555
O4 Cl1 1_555 1_555
Ag1A N4 1_555 1_555
N4A Ag1 1_555 1_555
C1 C5 1_555 1_555
C3 C4 1_555 1_555
C8 C9 1_555 1_555
C13 C14 1_555 1_555

#END
