
#######################################################################
#
#                 Cambridge Crystallographic Data Centre
#                                CCDC 
#
#######################################################################
#
# If this CIF has been generated from an entry in the Cambridge 
# Structural Database, then it will include bibliographic, chemical, 
# crystal, experimental, refinement or atomic coordinate data resulting 
# from the CCDC's data processing and validation procedures.
#
#######################################################################

data_VIVDUB
_symmetry_cell_setting           monoclinic
_symmetry_space_group_name_H-M   'C 2/c'
_symmetry_Int_Tables_number      15
_space_group_name_Hall           '-C 2yn'
loop_
_symmetry_equiv_pos_site_id
_symmetry_equiv_pos_as_xyz
1 x,y,z
2 -x,y,1/2-z
3 1/2+x,1/2+y,z
4 1/2-x,1/2+y,1/2-z
5 -x,-y,-z
6 x,-y,1/2+z
7 1/2-x,1/2-y,-z
8 1/2+x,1/2-y,1/2+z
_cell_length_a                   16.956
_cell_length_b                   10.763
_cell_length_c                   16.340
_cell_angle_alpha                90
_cell_angle_beta                 100.68
_cell_angle_gamma                90
_cell_volume                     2930.35
loop_
_atom_site_label
_atom_site_type_symbol
_atom_site_fract_x
_atom_site_fract_y
_atom_site_fract_z
Zn1 Zn 0.44795(2) 0.35019(3) -0.00615(2)
O1 O 0.56169(12) 0.3645(2) 0.05115(13)
O2 O 0.59511(12) 0.5518(2) 0.10496(11)
O3 O 0.59637(17) 0.4200(3) 0.40986(15)
O4 O 0.6589(2) 0.2510(3) 0.45383(16)
N1 N 0.47066(15) 0.1921(2) -0.06545(15)
C1 C 0.60004(16) 0.4351(3) 0.10450(17)
C2 C 0.65544(17) 0.3767(3) 0.17657(17)
C3 C 0.63796(17) 0.3952(3) 0.25477(18)
H1 H 0.5989 0.4529 0.2619
C4 C 0.67766(18) 0.3291(3) 0.32305(18)
C5 C 0.7386(2) 0.2496(3) 0.3125(2)
H2 H 0.7661 0.2057 0.3580
C6 C 0.75924(19) 0.2343(3) 0.23512(19)
H3 H 0.8020 0.1828 0.2297
C7 C 0.71707(17) 0.2949(3) 0.16535(18)
C8 C 0.6442(2) 0.3354(5) 0.4023(2)
C9 C 0.73551(17) 0.2725(3) 0.08090(18)
C10 C 0.73923(17) 0.3699(3) 0.02547(19)
H4 H 0.7322 0.4511 0.0422
C11 C 0.75311(17) 0.3478(3) -0.05368(18)
H5 H 0.7549 0.4143 -0.0896
C12 C 0.5364(2) 0.1888(3) -0.0994(2)
H6 H 0.5708 0.2569 -0.0924
C13 C 0.5553(2) 0.0889(4) -0.1440(2)
H7 H 0.6017 0.0904 -0.1667
C14 C 0.50618(18) -0.0133(3) -0.15558(18)
C15 C 0.4392(2) -0.0097(3) -0.1193(2)
H8 H 0.4045 -0.0774 -0.1245
C16 C 0.42320(19) 0.0933(3) -0.0754(2)
H9 H 0.3773 0.0937 -0.0518
C17 C 0.5241(2) -0.1229(3) -0.20565(17)
H10 H 0.5124 -0.1985 -0.1778
H11 H 0.5809 -0.1231 -0.2079
O1F O 0.93831(12) 0.1355(2) -0.05115(13)
O2F O 0.90489(12) -0.0518(2) -0.10496(11)
O3F O 0.90363(17) 0.0800(3) -0.40986(15)
O4F O 0.8411(2) 0.2490(3) -0.45383(16)
C1F C 0.89996(16) 0.0649(3) -0.10450(17)
C2F C 0.84456(17) 0.1233(3) -0.17657(17)
C3F C 0.86204(17) 0.1048(3) -0.25477(18)
H1F H 0.9011 0.0471 -0.2619
C4F C 0.82234(18) 0.1709(3) -0.32305(18)
C5F C 0.7614(2) 0.2504(3) -0.3125(2)
H2F H 0.7339 0.2943 -0.3580
C6F C 0.74076(19) 0.2657(3) -0.23512(19)
H3F H 0.6980 0.3172 -0.2297
C7F C 0.78293(17) 0.2051(3) -0.16535(18)
C8F C 0.8558(2) 0.1646(5) -0.4023(2)
C9F C 0.76449(17) 0.2275(3) -0.08090(18)
C10F C 0.76077(17) 0.1301(3) -0.02547(19)
H4F H 0.7678 0.0489 -0.0422
C11F C 0.74689(17) 0.1522(3) 0.05368(18)
H5F H 0.7451 0.0857 0.0896
N1A N 0.52934(15) 0.1921(2) -0.43455(15)
C12A C 0.4636(2) 0.1888(3) -0.4006(2)
H6A H 0.4292 0.2569 -0.4076
C13A C 0.4447(2) 0.0889(4) -0.3560(2)
H7A H 0.3983 0.0904 -0.3333
C14A C 0.49382(18) -0.0133(3) -0.34442(18)
C15A C 0.5608(2) -0.0097(3) -0.3807(2)
H8A H 0.5955 -0.0774 -0.3755
C16A C 0.57680(19) 0.0933(3) -0.4246(2)
H9A H 0.6227 0.0937 -0.4482
C17A C 0.4759(2) -0.1229(3) -0.29435(17)
H10A H 0.4876 -0.1985 -0.3222
H11A H 0.4191 -0.1231 -0.2921
Zn1A Zn 0.55205(2) 0.35019(3) -0.49385(2)
Zn1A_2 Zn 0.55205(2) 0.35019(3) 0.50615(2)
Zn1B Zn 0.94795(2) -0.14981(3) -0.00615(2)
Zn1D Zn 0.55205(2) 0.64981(3) 0.00615(2)
Zn1F Zn 1.05205(2) 0.14981(3) 0.00615(2)
Zn1G Zn 0.94795(2) 0.14981(3) -0.50615(2)
O1A O 0.43831(12) 0.3645(2) -0.55115(13)
O2D O 0.40489(12) 0.4482(2) -0.10496(11)
O2E O 0.59511(12) 0.4482(2) -0.39504(11)
O3_2 O 0.59637(17) 0.4200(3) -0.59014(15)
O3A O 0.40363(17) 0.4200(3) 0.09014(15)
O4_2 O 0.6589(2) 0.2510(3) -0.54617(16)
O4A O 0.3411(2) 0.2510(3) 0.04617(16)
loop_
_geom_bond_atom_site_label_1
_geom_bond_atom_site_label_2
_geom_bond_site_symmetry_1
_geom_bond_site_symmetry_2
Zn1 O1 1_555 1_555
O1 C1 1_555 1_555
O2 C1 1_555 1_555
O3 C8 1_555 1_555
O4 C8 1_555 1_555
N1 Zn1 1_555 1_555
C1 C2 1_555 1_555
C2 C3 1_555 1_555
C3 H1 1_555 1_555
C4 C3 1_555 1_555
C5 C4 1_555 1_555
H2 C5 1_555 1_555
C6 C5 1_555 1_555
H3 C6 1_555 1_555
C7 C2 1_555 1_555
C8 C4 1_555 1_555
C9 C7 1_555 1_555
C10 C9 1_555 1_555
H4 C10 1_555 1_555
C11 C10 1_555 1_555
H5 C11 1_555 1_555
C12 N1 1_555 1_555
H6 C12 1_555 1_555
C13 C12 1_555 1_555
H7 C13 1_555 1_555
C14 C13 1_555 1_555
C15 C14 1_555 1_555
H8 C15 1_555 1_555
C16 N1 1_555 1_555
H9 C16 1_555 1_555
C17 C14 1_555 1_555
H10 C17 1_555 1_555
H11 C17 1_555 1_555
O1F C1F 1_555 1_555
O2F C1F 1_555 1_555
O3F C8F 1_555 1_555
O4F C8F 1_555 1_555
C1F C2F 1_555 1_555
C2F C3F 1_555 1_555
C3F H1F 1_555 1_555
C4F C3F 1_555 1_555
C5F C4F 1_555 1_555
H2F C5F 1_555 1_555
C6F C5F 1_555 1_555
H3F C6F 1_555 1_555
C7F C2F 1_555 1_555
C8F C4F 1_555 1_555
C9F C11 1_555 1_555
C10F C9F 1_555 1_555
H4F C10F 1_555 1_555
C11F C9 1_555 1_555
H5F C11F 1_555 1_555
N1A C12A 1_555 1_555
C12A H6A 1_555 1_555
C13A C12A 1_555 1_555
H7A C13A 1_555 1_555
C14A C13A 1_555 1_555
C15A C14A 1_555 1_555
H8A C15A 1_555 1_555
C16A N1A 1_555 1_555
H9A C16A 1_555 1_555
C17A C17 1_555 1_555
H10A C17A 1_555 1_555
H11A C17A 1_555 1_555
Zn1A N1A 1_555 1_555
Zn1A_2 O3 1_555 1_555
Zn1B O2F 1_555 1_555
Zn1D O2 1_555 1_555
Zn1F O1F 1_555 1_555
Zn1G O3F 1_555 1_555
O1A Zn1A 1_555 1_555
O2D Zn1 1_555 1_555
O2E Zn1A 1_555 1_555
O3_2 Zn1A 1_555 1_555
O3A Zn1 1_555 1_555
O4_2 Zn1A 1_555 1_555
O4A Zn1 1_555 1_555
O4 Zn1A_2 1_555 1_555
C6 C7 1_555 1_555
C15 C16 1_555 1_555
O4F Zn1G 1_555 1_555
C6F C7F 1_555 1_555
C7F C9F 1_555 1_555
C10F C11F 1_555 1_555
C14A C17A 1_555 1_555
C15A C16A 1_555 1_555

#END
