
#######################################################################
#
#                 Cambridge Crystallographic Data Centre
#                                CCDC 
#
#######################################################################
#
# If this CIF has been generated from an entry in the Cambridge 
# Structural Database, then it will include bibliographic, chemical, 
# crystal, experimental, refinement or atomic coordinate data resulting 
# from the CCDC's data processing and validation procedures.
#
#######################################################################

data_VIVFUD
_symmetry_cell_setting           triclinic
_symmetry_space_group_name_H-M   'P -1'
_symmetry_Int_Tables_number      2
_space_group_name_Hall           '-P 1'
loop_
_symmetry_equiv_pos_site_id
_symmetry_equiv_pos_as_xyz
1 x,y,z
2 -x,-y,-z
_cell_length_a                   9.7532(9)
_cell_length_b                   12.4016(11)
_cell_length_c                   14.0033(13)
_cell_angle_alpha                68.117(2)
_cell_angle_beta                 74.173(2)
_cell_angle_gamma                85.771(2)
_cell_volume                     1511.41
loop_
_atom_site_label
_atom_site_type_symbol
_atom_site_fract_x
_atom_site_fract_y
_atom_site_fract_z
Co1 Co 0.36020(6) -0.22175(5) 0.85491(5)
O1 O 0.5585(3) -0.2024(4) 0.7678(3)
O2 O 0.4807(3) -0.1204(3) 0.6242(3)
O3 O 1.1500(3) -0.1218(3) 0.4174(2)
O4 O 1.2528(4) -0.2718(3) 0.0155(2)
O5 O 1.4388(3) -0.1545(3) -0.0368(3)
O6 O 0.3158(4) 0.3229(3) 0.8340(3)
O7 O 0.8882(4) 0.5665(3) 0.3837(3)
N1 N 0.2586(3) -0.0601(3) 0.8156(3)
N2 N 0.3885(3) 0.2413(3) 0.7087(3)
H1 H 0.4435 0.2501 0.6465
N3 N 0.5948(3) 0.4138(3) 0.5955(3)
N4 N 0.7415(3) 0.4230(3) 0.3999(3)
H2 H 0.6675 0.3801 0.4415
N5 N 0.7657(3) 0.3202(3) 0.1842(3)
C1 C 0.3400(4) 0.0370(4) 0.7650(3)
H3 H 0.4349 0.0310 0.7308
C2 C 0.1211(4) -0.0498(4) 0.8631(3)
H4 H 0.0628 -0.1166 0.8992
C3 C 0.0632(4) 0.0558(4) 0.8604(3)
H5 H -0.0329 0.0600 0.8927
C4 C 0.1492(4) 0.1550(4) 0.8095(3)
H6 H 0.1126 0.2268 0.8080
C5 C 0.2915(4) 0.1455(3) 0.7606(3)
C6 C 0.3988(4) 0.3196(4) 0.7521(3)
C7 C 0.5221(4) 0.4066(3) 0.6938(3)
C8 C 0.5572(5) 0.4732(4) 0.7446(4)
H7 H 0.5053 0.4650 0.8135
C9 C 0.6702(5) 0.5514(4) 0.6910(4)
H8 H 0.6958 0.5973 0.7233
C10 C 0.7448(5) 0.5613(4) 0.5903(4)
H9 H 0.8212 0.6143 0.5528
C11 C 0.7048(4) 0.4909(3) 0.5446(3)
C12 C 0.7883(5) 0.4977(4) 0.4353(3)
C13 C 0.8008(4) 0.4081(3) 0.3029(3)
C14 C 0.7202(4) 0.3445(3) 0.2727(3)
H10 H 0.6296 0.3174 0.3166
C15 C 0.8968(5) 0.3603(4) 0.1206(3)
H11 H 0.9300 0.3449 0.0582
C16 C 0.9826(5) 0.4231(4) 0.1454(4)
H12 H 1.0732 0.4485 0.1004
C17 C 0.9357(5) 0.4490(4) 0.2364(4)
H13 H 0.9928 0.4927 0.2529
C18 C 0.5794(5) -0.1549(4) 0.6674(4)
C19 C 0.7323(4) -0.1442(4) 0.6001(3)
C20 C 0.7609(4) -0.1002(4) 0.4904(3)
H14 H 0.6865 -0.0746 0.4584
C21 C 0.8993(4) -0.0936(4) 0.4272(3)
H15 H 0.9183 -0.0640 0.3532
C22 C 1.0078(4) -0.1316(4) 0.4757(3)
C23 C 0.9821(4) -0.1727(4) 0.5852(3)
H16 H 1.0572 -0.1954 0.6168
C24 C 0.8441(4) -0.1799(4) 0.6475(3)
H17 H 0.8257 -0.2086 0.7215
C25 C 1.1865(4) -0.1442(4) 0.3230(3)
C26 C 1.1336(4) -0.2405(4) 0.3162(3)
H18 H 1.0672 -0.2911 0.3742
C27 C 1.1805(4) -0.2608(3) 0.2227(3)
H19 H 1.1431 -0.3242 0.2169
C28 C 1.2830(4) -0.1880(3) 0.1366(3)
C29 C 1.3297(5) -0.2067(4) 0.0332(3)
C30 C 1.3360(4) -0.0916(4) 0.1455(3)
H20 H 1.4052 -0.0425 0.0888
C31 C 1.2857(4) -0.0692(4) 0.2382(3)
H21 H 1.3187 -0.0036 0.2433
O8 O 0.4797(9) -0.3960(6) 0.9218(5)
H22 H 0.5019 -0.4053 0.8623
H23 H 0.4043 -0.4368 0.9603
Co1_2 Co 1.36020(6) -0.22175(5) -0.14509(5)
Co1A Co 0.63980(6) 0.22175(5) 0.14509(5)
O4_2 O 0.2528(4) -0.2718(3) 1.0155(2)
O5_2 O 0.4388(3) -0.1545(3) 0.9632(3)
N5A N 0.2343(3) -0.3202(3) 0.8158(3)
O9 O 0.5800(3) 0.1850(3) 0.5289(2)
H24 H 0.5787 0.1789 0.4708
H25 H 0.6563 0.1553 0.5442
O10 O 0.3022(7) 0.3181(11) 0.0436(5)
H26 H 0.2617 0.2573 0.0482
H27 H 0.3816 0.2918 0.0547
loop_
_geom_bond_atom_site_label_1
_geom_bond_atom_site_label_2
_geom_bond_site_symmetry_1
_geom_bond_site_symmetry_2
Co1 O1 1_555 1_555
O1 C18 1_555 1_555
O2 C18 1_555 1_555
O3 C22 1_555 1_555
O4 C29 1_555 1_555
O5 C29 1_555 1_555
O6 C6 1_555 1_555
O7 C12 1_555 1_555
N1 Co1 1_555 1_555
N2 H1 1_555 1_555
N3 C7 1_555 1_555
N4 H2 1_555 1_555
N5 C14 1_555 1_555
C1 N1 1_555 1_555
H3 C1 1_555 1_555
C2 N1 1_555 1_555
H4 C2 1_555 1_555
C3 C2 1_555 1_555
H5 C3 1_555 1_555
C4 C3 1_555 1_555
H6 C4 1_555 1_555
C5 N2 1_555 1_555
C6 N2 1_555 1_555
C7 C6 1_555 1_555
C8 C7 1_555 1_555
H7 C8 1_555 1_555
C9 C8 1_555 1_555
H8 C9 1_555 1_555
C10 C9 1_555 1_555
H9 C10 1_555 1_555
C11 N3 1_555 1_555
C12 N4 1_555 1_555
C13 N4 1_555 1_555
C14 C13 1_555 1_555
H10 C14 1_555 1_555
C15 N5 1_555 1_555
H11 C15 1_555 1_555
C16 C15 1_555 1_555
H12 C16 1_555 1_555
C17 C13 1_555 1_555
H13 C17 1_555 1_555
C18 C19 1_555 1_555
C19 C20 1_555 1_555
C20 H14 1_555 1_555
C21 C20 1_555 1_555
H15 C21 1_555 1_555
C22 C21 1_555 1_555
C23 C22 1_555 1_555
H16 C23 1_555 1_555
C24 C19 1_555 1_555
H17 C24 1_555 1_555
C25 O3 1_555 1_555
C26 C25 1_555 1_555
H18 C26 1_555 1_555
C27 C26 1_555 1_555
H19 C27 1_555 1_555
C28 C27 1_555 1_555
C29 C28 1_555 1_555
C30 C28 1_555 1_555
H20 C30 1_555 1_555
C31 C25 1_555 1_555
H21 C31 1_555 1_555
O8 Co1 1_555 1_555
H22 O8 1_555 1_555
H23 O8 1_555 1_555
O9 H24 1_555 1_555
H25 O9 1_555 1_555
O10 H26 1_555 1_555
H27 O10 1_555 1_555
Co1_2 O4 1_555 1_555
Co1A N5 1_555 1_555
O4_2 Co1 1_555 1_555
O5_2 Co1 1_555 1_555
N5A Co1 1_555 1_555
O5 Co1_2 1_555 1_555
C1 C5 1_555 1_555
C4 C5 1_555 1_555
C10 C11 1_555 1_555
C11 C12 1_555 1_555
C16 C17 1_555 1_555
C23 C24 1_555 1_555
C30 C31 1_555 1_555

#END
