
#######################################################################
#
#                 Cambridge Crystallographic Data Centre
#                                CCDC 
#
#######################################################################
#
# If this CIF has been generated from an entry in the Cambridge 
# Structural Database, then it will include bibliographic, chemical, 
# crystal, experimental, refinement or atomic coordinate data resulting 
# from the CCDC's data processing and validation procedures.
#
#######################################################################

data_VIVHUF
_symmetry_cell_setting           triclinic
_symmetry_space_group_name_H-M   'P -1'
_symmetry_Int_Tables_number      2
_space_group_name_Hall           '-P 1'
loop_
_symmetry_equiv_pos_site_id
_symmetry_equiv_pos_as_xyz
1 x,y,z
2 -x,-y,-z
_cell_length_a                   13.519(3)
_cell_length_b                   14.955(3)
_cell_length_c                   15.356(3)
_cell_angle_alpha                102.35(3)
_cell_angle_beta                 109.47(3)
_cell_angle_gamma                110.99(3)
_cell_volume                     2529.41
loop_
_atom_site_label
_atom_site_type_symbol
_atom_site_fract_x
_atom_site_fract_y
_atom_site_fract_z
O1 O 0.27295(6) 1.11601(5) 0.57713(5)
O2 O 0.99538(6) 1.06175(6) 0.75880(6)
O3 O 0.90159(6) 0.92025(5) 0.62739(5)
O4 O -0.31679(7) 0.66538(6) 0.34143(6)
H1 H -0.3072 0.6146 0.3434
C1 C 0.90114(8) 0.99338(7) 0.68689(7)
C2 C 0.78504(8) 0.99166(9) 0.67328(8)
H2 H 0.7311 0.9247 0.6678
H3 H 0.7501 1.0006 0.6115
O5 O 0.93112(6) 0.18155(5) 1.35598(6)
O6 O 1.12179(6) 0.29631(5) 1.45089(5)
C3 C 1.01709(8) 0.27162(7) 1.39618(7)
O7 O 1.48839(6) 0.63788(6) 1.17993(5)
O8 O 1.32465(6) 0.60309(6) 1.05702(5)
C4 C 1.38214(8) 0.62229(7) 1.14716(7)
C5 C -0.11406(8) 0.83245(8) 0.97780(7)
H4 H -0.1399 0.8851 0.9773
H5 H -0.0717 0.8424 1.0468
O9 O 1.20369(6) 0.46440(6) 1.30766(6)
Mn1 Mn 0.476920(11) 0.605313(10) 1.027155(10)
Mn2 Mn -0.206719(12) 0.788669(10) 0.485258(10)
Mn3 Mn 0.088006(12) 0.962047(11) 0.724994(11)
O10 O 0.14326(6) 1.02308(5) 0.62145(5)
N1 N 1.08122(6) 0.51648(6) 1.34867(6)
O11 O 0.94751(6) 0.55882(6) 1.37753(5)
O12 O 0.61610(6) 1.11931(6) 0.68189(6)
O13 O -0.05891(6) 0.84558(6) 0.44242(6)
H6 H -0.0735 0.8757 0.4049
O14 O 0.54109(7) 0.76772(5) 1.02196(5)
O15 O 0.61635(5) 0.56202(5) 1.05479(5)
N2 N 1.00400(6) 0.60721(6) 1.26346(6)
N3 N 0.59848(7) 0.97010(6) 0.86586(6)
O16 O 0.43703(6) 0.98761(6) 0.86050(5)
N4 N 0.69572(6) 1.04529(6) 0.77972(6)
O17 O 0.42260(7) 0.63424(6) 0.88442(6)
C6 C 1.00652(8) 0.56086(7) 1.33258(7)
N5 N -0.03285(7) 0.84621(6) 0.93226(6)
C7 C 1.08533(8) 0.46396(7) 1.42075(7)
H7 H 1.0790 0.5024 1.4764
H8 H 1.1610 0.4634 1.4467
N6 N 1.13445(7) 0.55514(6) 1.22626(6)
O18 O 1.06181(7) 0.64700(6) 1.14865(6)
C8 C 1.14401(8) 0.50866(8) 1.29532(8)
N7 N 0.52591(6) 1.05703(6) 0.77273(6)
N8 N 0.05714(7) 0.90030(6) 0.84084(6)
C9 C 0.23950(8) 1.05204(7) 0.61466(7)
C10 C -0.28322(9) 0.69397(8) 0.81204(7)
H9 H -0.2904 0.7516 0.7965
H10 H -0.2342 0.6774 0.7845
N9 N -0.43650(7) 0.62015(6) 0.59952(6)
C11 C 0.61240(8) 1.07672(7) 0.74024(7)
O19 O 0.76246(6) 0.95891(6) 0.86883(6)
O20 O 0.23944(7) 1.09846(6) 0.83885(7)
H11 H 0.2268 1.1483 0.8399
C12 C 1.19643(8) 0.54556(9) 1.16443(7)
H12 H 1.1566 0.5520 1.1024
H13 H 1.1918 0.4774 1.1482
C13 C 0.48693(8) 0.73048(7) 0.92938(7)
C14 C -0.22198(9) 0.72689(8) 0.92478(7)
H14 H -0.2784 0.7273 0.9505
H15 H -0.1981 0.6760 0.9401
C15 C 0.69035(8) 0.98908(7) 0.84030(7)
N10 N -0.34820(7) 0.72223(6) 0.53272(6)
C16 C 0.72455(8) 0.62656(7) 1.12122(7)
C17 C 0.04720(8) 0.80764(8) 0.94044(7)
C18 C 0.43802(8) 1.09390(7) 0.73741(8)
H16 H 0.4693 1.1483 0.7144
H17 H 0.4245 1.1230 0.7925
C19 C 0.10376(8) 0.84287(8) 0.88423(7)
C20 C 0.92477(8) 0.65578(7) 1.24204(8)
H18 H 0.9642 0.7190 1.2330
H19 H 0.9079 0.6736 1.2981
C21 C 0.80941(8) 0.58216(7) 1.14849(8)
H20 H 0.8274 0.5637 1.0932
H21 H 0.7708 0.5193 1.1583
C22 C -0.02242(9) 0.89992(7) 0.87189(7)
H22 H -0.0676 0.9334 0.8542
C23 C -0.50347(8) 0.66961(8) 0.57076(7)
C24 C 1.06661(8) 0.60648(8) 1.20889(7)
C25 C 0.51524(8) 1.00479(7) 0.83557(7)
C26 C -0.45323(9) 0.54768(7) 0.65069(7)
H23 H -0.4139 0.5068 0.6387
H24 H -0.5372 0.5008 0.6226
C27 C 0.79909(8) 1.07575(8) 0.75898(8)
H25 H 0.8689 1.0933 0.8186
H26 H 0.8118 1.1372 0.7433
C28 C -0.44848(8) 0.73246(8) 0.52747(7)
C29 C 0.32206(9) 1.00792(8) 0.65383(8)
H27 H 0.2863 0.9563 0.6780
H28 H 0.3357 0.9748 0.6006
O21 O 0.75747(7) 0.71854(6) 1.15900(8)
C30 C -0.34634(8) 0.65511(8) 0.57582(7)
H29 H -0.2880 0.6338 0.5887
C31 C 0.58721(9) 0.91016(8) 0.93071(7)
H30 H 0.5643 0.9402 0.9783
H31 H 0.6633 0.9138 0.9678
C32 C 0.49563(10) 0.79841(8) 0.86911(8)
H32 H 0.5151 0.7711 0.8175
H33 H 0.4188 0.7953 0.8364
C33 C -0.40489(9) 0.60165(8) 0.76271(7)
H34 H -0.4597 0.6241 0.7749
H35 H -0.4017 0.5520 0.7938
C34 C -0.49532(9) 0.79193(8) 0.48850(8)
H36 H -0.4605 0.8327 0.4585
C35 C 1.32470(8) 0.62623(9) 1.21606(8)
H37 H 1.3669 0.6150 1.2740
H38 H 1.3301 0.6943 1.2389
C36 C 0.07401(10) 0.74694(8) 0.99153(8)
H39 H 0.0339 0.7225 1.0270
C37 C -0.60370(9) 0.66544(9) 0.57886(8)
H40 H -0.6392 0.6241 0.6081
C38 C -0.59531(10) 0.78821(9) 0.49595(9)
H41 H -0.6285 0.8274 0.4708
C39 C 0.19503(9) 0.82152(9) 0.88186(9)
H42 H 0.2359 0.8463 0.8470
C40 C 0.16240(11) 0.72481(10) 0.98711(10)
H43 H 0.1831 0.6843 1.0203
C41 C -0.64810(10) 0.72631(10) 0.54087(9)
H44 H -0.7151 0.7262 0.5452
C42 C 0.98578(10) 0.35358(8) 1.37249(10)
H45 H 0.9242 0.3526 1.3918
H46 H 0.9521 0.3343 1.3007
C43 C 0.22222(10) 0.76199(10) 0.93357(10)
H47 H 0.2824 0.7460 0.9328
H48 H 0.3061(11) 1.1142(9) 0.8830(9)
H49 H -0.3780(11) 0.6661(9) 0.3009(9)
H50 H 0.0079(10) 0.8943(9) 0.5036(9)
O1A O -0.27295(6) 0.88399(5) 0.42287(5)
O2_2 O -0.00462(6) 1.06175(6) 0.75880(6)
O3_2 O -0.09841(6) 0.92025(5) 0.62739(5)
O5A O 0.06888(6) 0.81845(5) 0.64402(6)
O6A O -0.12179(6) 0.70369(5) 0.54911(5)
O7_2 O 0.48839(6) 0.63788(6) 1.17993(5)
O8_2 O 0.32465(6) 0.60309(6) 1.05702(5)
Mn1_2 Mn 1.476920(11) 0.605313(10) 1.027155(10)
Mn1A Mn 0.523080(11) 0.394687(10) 0.972845(10)
Mn2_2 Mn 0.793281(12) 0.788669(10) 0.485258(10)
Mn2A Mn 0.206719(12) 1.211331(10) 0.514742(10)
Mn2A_2 Mn 1.206719(12) 0.211331(10) 1.514742(10)
Mn3_2 Mn 1.088006(12) 0.962047(11) 0.724994(11)
Mn3A Mn 0.911994(12) 0.037953(11) 1.275006(11)
O15A O 0.38365(5) 0.43798(5) 0.94521(5)
O22 O 0.70577(7) 0.48989(6) 0.31375(6)
loop_
_geom_bond_atom_site_label_1
_geom_bond_atom_site_label_2
_geom_bond_site_symmetry_1
_geom_bond_site_symmetry_2
O1 C9 1_555 1_555
O2 C1 1_555 1_555
O3 C1 1_555 1_555
O4 H1 1_555 1_555
C1 C2 1_555 1_555
C2 H2 1_555 1_555
H3 C2 1_555 1_555
O5 C3 1_555 1_555
O6 C3 1_555 1_555
C3 C42 1_555 1_555
O7 C4 1_555 1_555
O8 C4 1_555 1_555
C4 C35 1_555 1_555
C5 H4 1_555 1_555
H5 C5 1_555 1_555
O9 C8 1_555 1_555
Mn1 O14 1_555 1_555
Mn2 O4 1_555 1_555
Mn3 O10 1_555 1_555
O10 C9 1_555 1_555
N1 C6 1_555 1_555
O11 C6 1_555 1_555
O12 C11 1_555 1_555
O13 Mn2 1_555 1_555
H6 O13 1_555 1_555
O14 C13 1_555 1_555
O15 Mn1 1_555 1_555
N2 C6 1_555 1_555
N3 C15 1_555 1_555
O16 C25 1_555 1_555
N4 C11 1_555 1_555
O17 Mn1 1_555 1_555
N5 C5 1_555 1_555
C7 N1 1_555 1_555
H7 C7 1_555 1_555
H8 C7 1_555 1_555
N6 C8 1_555 1_555
O18 C24 1_555 1_555
C8 N1 1_555 1_555
N7 C11 1_555 1_555
N8 Mn3 1_555 1_555
C9 C29 1_555 1_555
C10 H9 1_555 1_555
H10 C10 1_555 1_555
N9 C23 1_555 1_555
O19 C15 1_555 1_555
O20 Mn3 1_555 1_555
H11 O20 1_555 1_555
C12 N6 1_555 1_555
H12 C12 1_555 1_555
H13 C12 1_555 1_555
C13 O17 1_555 1_555
C14 C5 1_555 1_555
H14 C14 1_555 1_555
H15 C14 1_555 1_555
C15 N4 1_555 1_555
N10 Mn2 1_555 1_555
C16 O15 1_555 1_555
C17 N5 1_555 1_555
C18 N7 1_555 1_555
H16 C18 1_555 1_555
H17 C18 1_555 1_555
C19 N8 1_555 1_555
C20 N2 1_555 1_555
H18 C20 1_555 1_555
H19 C20 1_555 1_555
C21 C16 1_555 1_555
H20 C21 1_555 1_555
H21 C21 1_555 1_555
C22 N5 1_555 1_555
H22 C22 1_555 1_555
C23 C28 1_555 1_555
C24 N2 1_555 1_555
C25 N3 1_555 1_555
C26 N9 1_555 1_555
H23 C26 1_555 1_555
H24 C26 1_555 1_555
C27 C2 1_555 1_555
H25 C27 1_555 1_555
H26 C27 1_555 1_555
C28 N10 1_555 1_555
C29 C18 1_555 1_555
H27 C29 1_555 1_555
H28 C29 1_555 1_555
O21 C16 1_555 1_555
C30 N9 1_555 1_555
H29 C30 1_555 1_555
C31 N3 1_555 1_555
H30 C31 1_555 1_555
H31 C31 1_555 1_555
C32 C13 1_555 1_555
H32 C32 1_555 1_555
H33 C32 1_555 1_555
C33 C10 1_555 1_555
H34 C33 1_555 1_555
H35 C33 1_555 1_555
C34 C28 1_555 1_555
H36 C34 1_555 1_555
C35 C12 1_555 1_555
H37 C35 1_555 1_555
H38 C35 1_555 1_555
C36 C17 1_555 1_555
H39 C36 1_555 1_555
C37 C23 1_555 1_555
H40 C37 1_555 1_555
C38 C34 1_555 1_555
H41 C38 1_555 1_555
C39 C19 1_555 1_555
H42 C39 1_555 1_555
C40 C36 1_555 1_555
H43 C40 1_555 1_555
C41 C37 1_555 1_555
H44 C41 1_555 1_555
C42 C7 1_555 1_555
H45 C42 1_555 1_555
H46 C42 1_555 1_555
C43 C39 1_555 1_555
H47 C43 1_555 1_555
H48 O20 1_555 1_555
H49 O4 1_555 1_555
H50 O13 1_555 1_555
O1A Mn2 1_555 1_555
O2_2 Mn3 1_555 1_555
O3_2 Mn2 1_555 1_555
O5A Mn3 1_555 1_555
O6A Mn2 1_555 1_555
O7_2 Mn1 1_555 1_555
O8_2 Mn1 1_555 1_555
Mn1_2 O7 1_555 1_555
Mn1A O15 1_555 1_555
Mn2_2 O3 1_555 1_555
Mn2A O1 1_555 1_555
Mn2A_2 O6 1_555 1_555
Mn3_2 O2 1_555 1_555
Mn3A O5 1_555 1_555
O15A Mn1 1_555 1_555
O3 Mn3_2 1_555 1_555
O8 Mn1_2 1_555 1_555
Mn3 O3_2 1_555 1_555
N4 C27 1_555 1_555
N6 C24 1_555 1_555
N7 C25 1_555 1_555
N8 C22 1_555 1_555
C10 C14 1_555 1_555
N10 C30 1_555 1_555
C17 C19 1_555 1_555
C20 C21 1_555 1_555
C26 C33 1_555 1_555
C31 C32 1_555 1_555
C38 C41 1_555 1_555
C40 C43 1_555 1_555
Mn1A O15A 1_555 1_555

#END
