
#######################################################################
#
#                 Cambridge Crystallographic Data Centre
#                                CCDC 
#
#######################################################################
#
# If this CIF has been generated from an entry in the Cambridge 
# Structural Database, then it will include bibliographic, chemical, 
# crystal, experimental, refinement or atomic coordinate data resulting 
# from the CCDC's data processing and validation procedures.
#
#######################################################################

data_VIWBOU
_symmetry_cell_setting           orthorhombic
_symmetry_space_group_name_H-M   'P n a 21'
_symmetry_Int_Tables_number      33
_space_group_name_Hall           'P 2c -2n'
loop_
_symmetry_equiv_pos_site_id
_symmetry_equiv_pos_as_xyz
1 x,y,z
2 -x,-y,1/2+z
3 1/2+x,1/2-y,z
4 1/2-x,1/2+y,1/2+z
_cell_length_a                   28.334(6)
_cell_length_b                   13.063(3)
_cell_length_c                   6.7989(14)
_cell_angle_alpha                90
_cell_angle_beta                 90
_cell_angle_gamma                90
_cell_volume                     2516.46
loop_
_atom_site_label
_atom_site_type_symbol
_atom_site_fract_x
_atom_site_fract_y
_atom_site_fract_z
Mn1 Mn 0.034244(18) 0.01174(4) 0.08796(10)
C1 C 0.03430(14) 0.8262(3) -0.1892(6)
C2 C 0.05443(14) 0.7207(3) -0.2305(6)
H1 H 0.0864 0.7283 -0.2790
H2 H 0.0559 0.6827 -0.1081
C3 C 0.02615(13) 0.6595(3) -0.3786(7)
H3 H -0.0028 0.6357 -0.3175
H4 H 0.0177 0.7032 -0.4884
C4 C 0.04463(13) 0.1408(3) -0.2101(6)
C5 C 0.04431(14) 0.2303(3) -0.3515(6)
H5 H 0.0138 0.2640 -0.3462
H6 H 0.0490 0.2053 -0.4845
C6 C 0.08300(14) 0.3073(3) -0.3013(6)
H7 H 0.0808 0.3250 -0.1630
H8 H 0.1136 0.2759 -0.3231
C7 C 0.18119(15) 0.5874(3) -1.1084(7)
C8 C 0.16690(15) 0.5568(4) -0.9052(7)
H9 H 0.1909 0.5118 -0.8511
H10 H 0.1655 0.6174 -0.8231
C9 C 0.11994(13) 0.5032(3) -0.8968(8)
H11 H 0.0979 0.5390 -0.9817
H12 H 0.1236 0.4343 -0.9478
C10 C 0.07620(14) 0.5835(3) -0.6286(6)
C11 C 0.05203(14) 0.4808(3) -0.3482(6)
C12 C 0.10490(14) 0.4075(3) -0.5940(6)
C13 C 0.12483(14) 0.0876(3) 0.3189(7)
H13 H 0.1237 0.1407 0.2279
C14 C 0.09483(15) -0.0610(4) 0.4419(7)
H14 H 0.0729 -0.1139 0.4359
C15 C 0.12778(14) -0.0623(3) 0.5898(8)
H15 H 0.1271 -0.1143 0.6832
C16 C 0.15951(16) 0.0897(3) 0.4612(6)
H16 H 0.1813 0.1429 0.4630
C17 C 0.16207(13) 0.0129(3) 0.6014(8)
C18 C 0.2013(2) 0.0087(4) 0.7470(9)
H17 H 0.2044 0.0762 0.8051
H18 H 0.2303 -0.0048 0.6755
C19 C 0.19812(16) -0.0672(4) 0.9110(7)
H19 H 0.1713 -0.0497 0.9933
H20 H 0.1923 -0.1344 0.8557
C20 C 0.24149(18) -0.0722(4) 1.0373(7)
H21 H 0.2481 -0.0037 1.0849
H22 H 0.2678 -0.0923 0.9544
C21 C 0.24037(17) -0.1436(3) 1.2130(6)
C22 C 0.19996(16) -0.1906(4) 1.2798(7)
H23 H 0.1716 -0.1813 1.2134
C23 C 0.20159(19) -0.2514(4) 1.4452(7)
H24 H 0.1736 -0.2815 1.4874
C24 C 0.27949(19) -0.2250(4) 1.4820(7)
H25 H 0.3074 -0.2362 1.5507
C25 C 0.28098(16) -0.1632(3) 1.3188(7)
H26 H 0.3095 -0.1345 1.2792
N1 N 0.07954(10) 0.4016(2) -0.4205(6)
N2 N 0.09980(12) 0.4974(2) -0.6984(5)
N3 N 0.05318(11) 0.5707(2) -0.4521(5)
N4 N 0.09278(11) 0.0129(2) 0.3058(5)
N5 N 0.24015(14) -0.2698(3) 1.5474(6)
O1 O 0.00030(10) 0.8562(2) -0.2899(5)
O2 O 0.05450(11) 0.8759(2) -0.0532(4)
O3 O 0.01081(9) 0.07683(19) -0.2157(4)
O4 O 0.07646(10) 0.1334(2) -0.0831(4)
O5 O 0.15819(11) 0.5701(3) -1.2525(5)
O6 O 0.22156(12) 0.6380(3) -1.1095(5)
H27 H 0.2266 0.6602 -1.2203
O7 O 0.12971(12) 0.3379(2) -0.6510(5)
O8 O 0.02912(10) 0.4721(2) -0.1989(5)
O9 O 0.07689(12) 0.6630(2) -0.7192(5)
Mn1_2 Mn 0.034244(18) 1.01174(4) 0.08796(10)
Mn1A Mn -0.034244(18) -0.01174(4) -0.41204(10)
Mn1A_2 Mn -0.034244(18) 0.98826(4) -0.41204(10)
O1A O -0.00030(10) 0.1438(2) 0.2101(5)
O2_2 O 0.05450(11) -0.1241(2) -0.0532(4)
O3A O -0.01081(9) -0.07683(19) 0.2843(4)
loop_
_geom_bond_atom_site_label_1
_geom_bond_atom_site_label_2
_geom_bond_site_symmetry_1
_geom_bond_site_symmetry_2
Mn1 N4 1_555 1_555
C1 C2 1_555 1_555
C2 H1 1_555 1_555
H2 C2 1_555 1_555
C3 C2 1_555 1_555
H3 C3 1_555 1_555
H4 C3 1_555 1_555
C4 C5 1_555 1_555
C5 H5 1_555 1_555
H6 C5 1_555 1_555
C6 C5 1_555 1_555
H7 C6 1_555 1_555
H8 C6 1_555 1_555
C7 C8 1_555 1_555
C8 H9 1_555 1_555
H10 C8 1_555 1_555
C9 C8 1_555 1_555
H11 C9 1_555 1_555
H12 C9 1_555 1_555
C10 N2 1_555 1_555
C11 N1 1_555 1_555
C12 N1 1_555 1_555
C13 H13 1_555 1_555
C14 H14 1_555 1_555
C15 C14 1_555 1_555
H15 C15 1_555 1_555
C16 C13 1_555 1_555
H16 C16 1_555 1_555
C17 C15 1_555 1_555
C18 C17 1_555 1_555
H17 C18 1_555 1_555
H18 C18 1_555 1_555
C19 C18 1_555 1_555
H19 C19 1_555 1_555
H20 C19 1_555 1_555
C20 C19 1_555 1_555
H21 C20 1_555 1_555
H22 C20 1_555 1_555
C21 C20 1_555 1_555
C22 C21 1_555 1_555
H23 C22 1_555 1_555
C23 C22 1_555 1_555
H24 C23 1_555 1_555
C24 H25 1_555 1_555
C25 C21 1_555 1_555
H26 C25 1_555 1_555
N1 C6 1_555 1_555
N2 C9 1_555 1_555
N3 C3 1_555 1_555
N4 C13 1_555 1_555
N5 C23 1_555 1_555
O1 C1 1_555 1_555
O2 C1 1_555 1_555
O3 Mn1 1_555 1_555
O4 Mn1 1_555 1_555
O5 C7 1_555 1_555
O6 C7 1_555 1_555
H27 O6 1_555 1_555
O7 C12 1_555 1_555
O8 C11 1_555 1_555
O9 C10 1_555 1_555
Mn1_2 O2 1_555 1_555
Mn1A O3 1_555 1_555
Mn1A_2 O1 1_555 1_555
O1A Mn1 1_555 1_555
O2_2 Mn1 1_555 1_555
O3A Mn1 1_555 1_555
C4 O3 1_555 1_555
C4 O4 1_555 1_555
C10 N3 1_555 1_555
C11 N3 1_555 1_555
C12 N2 1_555 1_555
C14 N4 1_555 1_555
C16 C17 1_555 1_555
C24 C25 1_555 1_555
C24 N5 1_555 1_555

#END
