
#######################################################################
#
#                 Cambridge Crystallographic Data Centre
#                                CCDC 
#
#######################################################################
#
# If this CIF has been generated from an entry in the Cambridge 
# Structural Database, then it will include bibliographic, chemical, 
# crystal, experimental, refinement or atomic coordinate data resulting 
# from the CCDC's data processing and validation procedures.
#
#######################################################################

data_VIWBUA
_symmetry_cell_setting           triclinic
_symmetry_space_group_name_H-M   'P -1'
_symmetry_Int_Tables_number      2
_space_group_name_Hall           '-P 1'
loop_
_symmetry_equiv_pos_site_id
_symmetry_equiv_pos_as_xyz
1 x,y,z
2 -x,-y,-z
_cell_length_a                   8.7120(2)
_cell_length_b                   10.4863(3)
_cell_length_c                   18.0125(5)
_cell_angle_alpha                78.507(2)
_cell_angle_beta                 85.452(2)
_cell_angle_gamma                77.852(2)
_cell_volume                     1575.26
loop_
_atom_site_label
_atom_site_type_symbol
_atom_site_fract_x
_atom_site_fract_y
_atom_site_fract_z
C1 C 0.6538(7) 0.1356(6) 0.0365(3)
C2 C 0.6707(7) 0.0476(6) -0.0163(4)
H1 H 0.6044 0.0679 -0.0568
C3 C 0.7819(7) -0.0642(6) -0.0077(4)
H2 H 0.7922 -0.1184 -0.0436
C4 C 0.8844(7) -0.1029(6) 0.0541(4)
C5 C 1.0047(7) -0.2184(7) 0.0613(5)
H3 H 1.0153 -0.2727 0.0254
C6 C 1.1044(7) -0.2517(7) 0.1189(5)
H4 H 1.1847 -0.3264 0.1218
C7 C 1.0851(8) -0.1724(7) 0.1737(4)
H5 H 1.1493 -0.1978 0.2151
C8 C 0.9727(8) -0.0572(7) 0.1680(4)
H6 H 0.9655 -0.0044 0.2044
C9 C 0.8696(6) -0.0180(6) 0.1086(4)
C10 C 0.7461(6) 0.1030(5) 0.0986(3)
C11 C 0.7263(7) 0.1846(5) 0.1552(3)
H7 H 0.7892 0.1558 0.197
C12 C 0.5194(6) 0.4722(6) 0.2021(3)
C13 C 0.4951(7) 0.5634(6) 0.2583(3)
H8 H 0.5668 0.5259 0.2992
H9 H 0.3887 0.5705 0.2799
C14 C 0.5226(7) 0.7020(6) 0.2217(3)
H10 H 0.6313 0.6958 0.2036
H11 H 0.4568 0.7367 0.1783
C15 C 0.4854(7) 0.7970(5) 0.2773(3)
H12 H 0.3784 0.7991 0.2973
H13 H 0.5548 0.7641 0.3194
C16 C 0.5035(8) 0.9374(6) 0.2416(3)
H14 H 0.6076 0.9346 0.2177
H15 H 0.4276 0.9733 0.2024
C17 C 0.4800(6) 1.0279(5) 0.2986(3)
C18 C 0.2738(6) 1.3173(6) 0.3449(3)
H16 H 0.214 1.3484 0.3021
C19 C 0.3512(6) 1.3650(6) 0.4637(3)
C20 C 0.3288(7) 1.4520(6) 0.5164(3)
H17 H 0.3919 1.4306 0.5581
C21 C 0.2179(7) 1.5659(6) 0.5077(4)
H18 H 0.2093 1.6223 0.5423
C22 C 0.1150(7) 1.5997(6) 0.4464(4)
C23 C -0.0047(7) 1.7163(6) 0.4393(4)
H19 H -0.0157 1.7693 0.4759
C24 C -0.1029(8) 1.7526(7) 0.3809(5)
H20 H -0.1796 1.8299 0.377
C25 C -0.0873(7) 1.6724(7) 0.3268(4)
H21 H -0.155 1.6962 0.2868
C26 C 0.0269(6) 1.5583(6) 0.3315(4)
H22 H 0.0352 1.5063 0.2946
C27 C 0.1322(6) 1.5189(6) 0.3922(3)
C28 C 0.2500(6) 1.3983(5) 0.4003(3)
C29 C 0.2481(6) 0.4419(6) -0.0417(3)
H23 H 0.2848 0.3478 -0.0372
H24 H 0.2461 0.4832 -0.0943
H25 H 0.1441 0.4592 -0.019
C30 C 0.1233(9) 0.3368(9) 0.1500(4)
H26 H 0.0736 0.3512 0.1025
H27 H 0.1131 0.4201 0.1662
H28 H 0.0738 0.2778 0.1873
C31 C 0.7510(7) 1.0611(6) 0.5417(4)
H29 H 0.81 0.993 0.5783
H30 H 0.6894 1.1286 0.5667
H31 H 0.8219 1.0996 0.5046
C32 C 0.8793(7) 1.1621(8) 0.3527(4)
H32 H 0.9366 1.2003 0.3829
H33 H 0.9158 1.1799 0.3007
H34 H 0.8954 1.0678 0.3704
N1 N 0.6266(5) 0.2954(4) 0.1516(2)
N2 N 0.6189(5) 0.3619(4) 0.2143(2)
N3 N 0.3708(5) 1.2033(5) 0.3474(3)
N4 N 0.3736(5) 1.1397(5) 0.2853(3)
O1 O 0.5397(4) 0.2411(4) 0.0227(2)
O2 O 0.4372(4) 0.5114(4) 0.1417(2)
O3 O 0.3502(4) 0.4943(4) -0.0042(2)
O4 O 0.2822(4) 0.2808(4) 0.1411(2)
O5 O 0.4589(4) 1.2572(4) 0.4769(2)
O6 O 0.5641(4) 0.9898(4) 0.3582(2)
O7 O 0.6505(4) 1.0051(3) 0.5053(2)
O8 O 0.7169(5) 1.2183(4) 0.3586(2)
Mn1 Mn 0.48438(9) 0.38907(8) 0.07103(5)
Mn2 Mn 0.51585(9) 1.11130(8) 0.42891(5)
H35 H 0.3275 0.225 0.1924
H36 H 0.6742 1.2721 0.3096
O3A O 0.6498(4) 0.5057(4) 0.0042(2)
O7A O 0.3495(4) 0.9949(3) 0.4947(2)
Mn1A Mn 0.51562(9) 0.61093(8) -0.07103(5)
Mn2A Mn 0.48415(9) 0.88870(8) 0.57109(5)
loop_
_geom_bond_atom_site_label_1
_geom_bond_atom_site_label_2
_geom_bond_site_symmetry_1
_geom_bond_site_symmetry_2
C1 C2 1_555 1_555
C2 H1 1_555 1_555
C3 C2 1_555 1_555
H2 C3 1_555 1_555
C4 C3 1_555 1_555
C5 C4 1_555 1_555
H3 C5 1_555 1_555
C6 C5 1_555 1_555
H4 C6 1_555 1_555
C7 C6 1_555 1_555
H5 C7 1_555 1_555
C8 C7 1_555 1_555
H6 C8 1_555 1_555
C9 C4 1_555 1_555
C10 C1 1_555 1_555
C11 C10 1_555 1_555
H7 C11 1_555 1_555
C12 C13 1_555 1_555
C13 H8 1_555 1_555
H9 C13 1_555 1_555
C14 C13 1_555 1_555
H10 C14 1_555 1_555
H11 C14 1_555 1_555
C15 C14 1_555 1_555
H12 C15 1_555 1_555
H13 C15 1_555 1_555
C16 C15 1_555 1_555
H14 C16 1_555 1_555
H15 C16 1_555 1_555
C17 C16 1_555 1_555
C18 H16 1_555 1_555
C19 C20 1_555 1_555
C20 H17 1_555 1_555
C21 C20 1_555 1_555
H18 C21 1_555 1_555
C22 C21 1_555 1_555
C23 C22 1_555 1_555
H19 C23 1_555 1_555
C24 C23 1_555 1_555
H20 C24 1_555 1_555
C25 C24 1_555 1_555
H21 C25 1_555 1_555
C26 C25 1_555 1_555
H22 C26 1_555 1_555
C27 C22 1_555 1_555
C28 C18 1_555 1_555
C29 H23 1_555 1_555
H24 C29 1_555 1_555
H25 C29 1_555 1_555
C30 H26 1_555 1_555
H27 C30 1_555 1_555
H28 C30 1_555 1_555
C31 H29 1_555 1_555
H30 C31 1_555 1_555
H31 C31 1_555 1_555
C32 H32 1_555 1_555
H33 C32 1_555 1_555
H34 C32 1_555 1_555
N1 C11 1_555 1_555
N2 C12 1_555 1_555
N3 C18 1_555 1_555
N4 C17 1_555 1_555
O1 C1 1_555 1_555
O2 C12 1_555 1_555
O3 C29 1_555 1_555
O4 C30 1_555 1_555
O5 C19 1_555 1_555
O6 C17 1_555 1_555
O7 C31 1_555 1_555
O8 C32 1_555 1_555
Mn1 N1 1_555 1_555
Mn2 N3 1_555 1_555
H35 O4 1_555 1_555
H36 O8 1_555 1_555
O3A Mn1 1_555 1_555
O7A Mn2 1_555 1_555
Mn1A O3 1_555 1_555
Mn2A O7 1_555 1_555
C8 C9 1_555 1_555
C9 C10 1_555 1_555
C19 C28 1_555 1_555
C26 C27 1_555 1_555
C27 C28 1_555 1_555
N1 N2 1_555 1_555
N3 N4 1_555 1_555
O1 Mn1 1_555 1_555
O2 Mn1 1_555 1_555
O3 Mn1 1_555 1_555
O4 Mn1 1_555 1_555
O5 Mn2 1_555 1_555
O6 Mn2 1_555 1_555
O7 Mn2 1_555 1_555
O8 Mn2 1_555 1_555
O3A Mn1A 1_555 1_555
O7A Mn2A 1_555 1_555

#END
