
#######################################################################
#
#                 Cambridge Crystallographic Data Centre
#                                CCDC 
#
#######################################################################
#
# If this CIF has been generated from an entry in the Cambridge 
# Structural Database, then it will include bibliographic, chemical, 
# crystal, experimental, refinement or atomic coordinate data resulting 
# from the CCDC's data processing and validation procedures.
#
#######################################################################

data_VIWJAO
_symmetry_cell_setting           triclinic
_symmetry_space_group_name_H-M   'P -1'
_symmetry_Int_Tables_number      2
_space_group_name_Hall           '-P 1'
loop_
_symmetry_equiv_pos_site_id
_symmetry_equiv_pos_as_xyz
1 x,y,z
2 -x,-y,-z
_cell_length_a                   10.5680(4)
_cell_length_b                   13.7987(5)
_cell_length_c                   25.5505(8)
_cell_angle_alpha                94.475(3)
_cell_angle_beta                 97.521(3)
_cell_angle_gamma                98.646(3)
_cell_volume                     3633.67
loop_
_atom_site_label
_atom_site_type_symbol
_atom_site_fract_x
_atom_site_fract_y
_atom_site_fract_z
C1 C 0.2231(5) 0.4334(3) 0.24260(16)
C2 C 0.2007(4) 0.5348(3) 0.14381(15)
C3 C 0.1302(4) 0.5050(3) 0.23470(16)
C4 C 0.1241(4) 0.5536(3) 0.18803(15)
C5 C 0.0367(4) 0.6196(3) 0.18124(16)
C6 C -0.0392(4) 0.6414(3) 0.21924(16)
H1 H -0.0953 0.6868 0.2141
C7 C -0.0298(4) 0.5940(3) 0.26525(17)
H2 H -0.0790 0.6086 0.2916
C8 C 0.0523(4) 0.5251(3) 0.27228(17)
H3 H 0.0550 0.4920 0.3027
C9 C 0.0092(4) 0.7536(3) 0.12758(16)
C10 C 0.0837(4) 0.8277(3) 0.16228(17)
H4 H 0.1390 0.8127 0.1908
C11 C 0.0760(5) 0.9252(4) 0.15446(18)
H5 H 0.1244 0.9758 0.1783
C12 C -0.0036(5) 0.9469(4) 0.11132(19)
H6 H -0.0075 1.0122 0.1056
C13 C -0.0773(4) 0.8717(3) 0.07670(18)
H7 H -0.1300 0.8872 0.0475
C14 C -0.0750(4) 0.7731(3) 0.08432(15)
C15 C -0.1617(4) 0.6899(3) 0.04859(16)
C16 C 0.2921(5) 0.0783(3) 0.30209(17)
C17 C 0.4635(5) -0.0307(3) 0.36766(17)
C18 C 0.2372(5) -0.0135(3) 0.32458(16)
C19 C 0.3211(4) -0.0672(3) 0.35291(16)
C20 C 0.2666(5) -0.1561(3) 0.36999(16)
C21 C 0.1358(5) -0.1914(4) 0.35890(19)
H8 H 0.1020 -0.2513 0.3700
C22 C 0.0551(5) -0.1367(4) 0.3310(2)
H9 H -0.0334 -0.1594 0.3239
C23 C 0.1058(5) -0.0485(3) 0.31385(18)
H10 H 0.0512 -0.0124 0.2949
C24 C 0.3143(4) -0.3029(3) 0.40561(17)
C25 C 0.3313(5) -0.3729(4) 0.36666(18)
H11 H 0.3664 -0.3542 0.3368
C26 C 0.2951(6) -0.4711(4) 0.3730(2)
H12 H 0.3074 -0.5191 0.3473
C27 C 0.2415(6) -0.4987(4) 0.4164(2)
H13 H 0.2168 -0.5652 0.4200
C28 C 0.2239(5) -0.4288(4) 0.45477(19)
H14 H 0.1858 -0.4482 0.4839
C29 C 0.2624(4) -0.3292(3) 0.45053(17)
C30 C 0.2479(5) -0.2518(3) 0.49307(18)
C31 C 0.5498(4) 0.4050(4) 0.31267(17)
H15 H 0.5300 0.4518 0.2900
C32 C 0.5406(5) 0.2730(4) 0.35246(17)
H16 H 0.5119 0.2106 0.3619
C33 C 0.6476(5) 0.3328(4) 0.37522(18)
H17 H 0.7065 0.3197 0.4031
C34 C 0.7510(5) 0.5066(4) 0.36392(19)
H18 H 0.7460 0.5479 0.3350
H19 H 0.8366 0.4882 0.3683
C35 C 0.7338(4) 0.5656(3) 0.41437(18)
C36 C 0.8354(5) 0.6352(4) 0.44066(19)
H20 H 0.9165 0.6395 0.4298
C37 C 0.8172(5) 0.6982(4) 0.48284(19)
H21 H 0.8857 0.7454 0.4995
C38 C 0.6988(5) 0.6918(4) 0.50052(19)
C39 C 0.5994(5) 0.6188(4) 0.47648(19)
H22 H 0.5201 0.6118 0.4890
C40 C 0.6167(5) 0.5562(4) 0.4341(2)
H23 H 0.5491 0.5072 0.4185
C41 C 0.6761(5) 0.7662(4) 0.54414(19)
H24 H 0.5851 0.7566 0.5480
H25 H 0.7250 0.7560 0.5776
C42 C 0.6541(5) 0.9088(4) 0.49241(18)
H26 H 0.5748 0.8817 0.4726
C43 C 0.8331(5) 1.0073(4) 0.52305(19)
H27 H 0.8999 1.0608 0.5277
C44 C 0.8278(5) 0.9279(4) 0.55118(19)
H28 H 0.8891 0.9176 0.5789
C45 C 0.3426(4) 0.1343(3) 0.17171(16)
H29 H 0.3844 0.0929 0.1925
C46 C 0.2467(5) 0.2533(3) 0.14699(16)
H30 H 0.2097 0.3103 0.1481
C47 C 0.2549(5) 0.1974(3) 0.10281(17)
H31 H 0.2249 0.2080 0.0682
C48 C 0.3545(5) 0.0431(3) 0.08435(18)
H32 H 0.2853 0.0200 0.0552
H33 H 0.3679 -0.0120 0.1046
C49 C 0.4767(4) 0.0797(3) 0.06244(16)
C50 C 0.4706(4) 0.1144(3) 0.01256(17)
H34 H 0.3905 0.1161 -0.0070
C51 C 0.5821(4) 0.1462(3) -0.00808(17)
H35 H 0.5764 0.1698 -0.0413
C52 C 0.7022(4) 0.1435(3) 0.02008(17)
C53 C 0.7087(5) 0.1090(3) 0.07033(18)
H36 H 0.7888 0.1071 0.0899
C54 C 0.5965(5) 0.0778(3) 0.09104(17)
H37 H 0.6019 0.0553 0.1245
C55 C 0.8226(3) 0.1827(2) -0.00219(12)
H38 H 0.8960 0.1580 0.0159
H39 H 0.8129 0.1597 -0.0396
C56 C 0.7954(3) 0.3500(2) -0.02823(12)
H40 H 0.7455 0.3285 -0.0610
C57 C 0.9126(4) 0.3492(3) 0.04860(16)
H41 H 0.9577 0.3284 0.0783
C58 C 0.8989(4) 0.4425(3) 0.04038(16)
H42 H 0.9342 0.4981 0.0637
C59 C 0.4851(4) 0.4665(4) 0.10750(17)
H43 H 0.4632 0.5102 0.1331
C60 C 0.4789(4) 0.3710(3) 0.03584(17)
H44 H 0.4518 0.3364 0.0025
C61 C 0.5921(4) 0.3696(4) 0.06669(17)
H45 H 0.6563 0.3339 0.0588
C62 C 0.7026(4) 0.4560(3) 0.15589(17)
H46 H 0.6765 0.4969 0.1839
H47 H 0.7764 0.4934 0.1436
C63 C 0.7410(4) 0.3638(3) 0.17768(16)
C64 C 0.8649(4) 0.3448(3) 0.17714(16)
H48 H 0.9240 0.3876 0.1625
C65 C 0.9027(4) 0.2617(4) 0.19840(16)
H49 H 0.9868 0.2496 0.1977
C66 C 0.8165(4) 0.1973(3) 0.22038(16)
C67 C 0.6903(5) 0.2165(4) 0.22070(17)
H50 H 0.6311 0.1736 0.2353
C68 C 0.6530(4) 0.2985(4) 0.19946(17)
H51 H 0.5687 0.3104 0.1997
C69 C 0.8585(5) 0.1106(4) 0.24590(17)
H52 H 0.7996 0.0509 0.2313
H53 H 0.9443 0.1032 0.2384
C70 C 0.9433(5) 0.1952(4) 0.33803(18)
H54 H 1.0145 0.2367 0.3299
C71 C 0.9015(5) 0.1920(4) 0.38603(18)
H55 H 0.9397 0.2315 0.4169
C72 C 0.7714(5) 0.0833(3) 0.33135(17)
H56 H 0.7030 0.0338 0.3171
N1 N 0.4785(4) 0.3185(3) 0.31235(13)
N2 N 0.6551(4) 0.4178(3) 0.34978(14)
N3 N 0.7160(4) 0.8661(3) 0.53137(14)
N4 N 0.7220(4) 0.9952(3) 0.48612(14)
N5 N 0.3013(3) 0.2138(3) 0.19075(13)
N6 N 0.3165(3) 0.1209(3) 0.11852(13)
N7 N 0.8466(3) 0.2909(3) 0.00445(13)
N8 N 0.8245(3) 0.4425(3) -0.00820(13)
N9 N 0.4104(3) 0.4316(3) 0.06155(13)
N10 N 0.5946(3) 0.4303(3) 0.11140(13)
N11 N 0.8596(4) 0.1249(3) 0.30373(14)
N12 N 0.7928(4) 0.1207(3) 0.38152(14)
O1 O 0.1853(3) 0.3577(2) 0.26682(11)
O2 O 0.3288(3) 0.4489(2) 0.22660(11)
O3 O 0.1592(3) 0.4546(2) 0.11368(10)
O4 O 0.2921(3) 0.5981(2) 0.13772(11)
O5 O 0.0202(3) 0.6547(2) 0.13114(11)
O6 O -0.2459(3) 0.6358(2) 0.06700(11)
O7 O -0.1420(3) 0.6821(2) -0.00013(10)
O8 O 0.2256(3) 0.1497(2) 0.30212(12)
O9 O 0.3957(3) 0.0821(2) 0.28395(12)
O10 O 0.4938(3) 0.0457(2) 0.40056(11)
O11 O 0.5415(4) -0.0769(3) 0.34890(15)
O12 O 0.3542(3) -0.2031(2) 0.40059(11)
O13 O 0.1383(3) -0.2358(3) 0.49888(13)
O14 O 0.3524(3) -0.2070(2) 0.52086(11)
Zn1 Zn 0.22639(5) 0.44296(4) 0.043593(18)
Zn2 Zn 0.30945(5) 0.26182(4) 0.267604(18)
Zn3 Zn 0.67388(5) 0.08944(4) 0.434848(19)
N4_2 N 0.7220(4) -0.0048(3) 0.48612(14)
N8A N 0.1755(3) 0.5575(3) 0.00820(13)
O7A O 0.1420(3) 0.3179(2) 0.00013(10)
O14A O 0.6476(3) 0.2070(2) 0.47914(11)
Zn1A Zn -0.22639(5) 0.55704(4) -0.043593(18)
Zn1A_2 Zn 0.77361(5) 0.55704(4) -0.043593(18)
Zn3_2 Zn 0.67388(5) 1.08944(4) 0.434848(19)
Zn3A Zn 0.32612(5) -0.08944(4) 0.565152(19)
O15 O 0.4076(3) 0.7921(2) 0.13666(12)
H57 H 0.3584 0.7448 0.1463
H58 H 0.4328 0.8384 0.1612
O16 O 0.5038(4) 0.9547(3) 0.21387(13)
H59 H 0.5706 0.9286 0.2221
H60 H 0.4670 0.9655 0.2409
O17 O 0.5328(3) 0.6101(2) 0.24008(10)
H61 H 0.5532 0.6334 0.2120
H62 H 0.4527 0.5864 0.2359
O18 O 0.6402(3) 0.7084(2) 0.15369(10)
H63 H 0.6301 0.7570 0.1322
H64 H 0.6688 0.6685 0.1317
O19 O 0.7294(4) 0.8712(3) 0.23285(16)
H65 H 0.7183 0.8398 0.2025
H66 H 0.7552 0.8351 0.2563
O20 O 0.6845(7) 0.7552(5) 0.3163(3)
H67 H 0.6060 0.7372 0.3029
H68 H 0.7311 0.7174 0.2980
O21 O 0.3709(14) 0.7733(10) 0.2579(5)
H69 H 0.4254 0.7369 0.2691
H70 H 0.3359 0.7943 0.2838
loop_
_geom_bond_atom_site_label_1
_geom_bond_atom_site_label_2
_geom_bond_site_symmetry_1
_geom_bond_site_symmetry_2
C1 C3 1_555 1_555
C2 C4 1_555 1_555
C3 C4 1_555 1_555
C4 C5 1_555 1_555
C5 C6 1_555 1_555
C6 H1 1_555 1_555
C7 C6 1_555 1_555
H2 C7 1_555 1_555
C8 C3 1_555 1_555
H3 C8 1_555 1_555
C9 C10 1_555 1_555
C10 H4 1_555 1_555
C11 C10 1_555 1_555
H5 C11 1_555 1_555
C12 C11 1_555 1_555
H6 C12 1_555 1_555
C13 C12 1_555 1_555
H7 C13 1_555 1_555
C14 C9 1_555 1_555
C15 C14 1_555 1_555
C16 C18 1_555 1_555
C17 C19 1_555 1_555
C18 C19 1_555 1_555
C19 C20 1_555 1_555
C20 C21 1_555 1_555
C21 H8 1_555 1_555
C22 C21 1_555 1_555
H9 C22 1_555 1_555
C23 C18 1_555 1_555
H10 C23 1_555 1_555
C24 C25 1_555 1_555
C25 H11 1_555 1_555
C26 C25 1_555 1_555
H12 C26 1_555 1_555
C27 C26 1_555 1_555
H13 C27 1_555 1_555
C28 C27 1_555 1_555
H14 C28 1_555 1_555
C29 C24 1_555 1_555
C30 C29 1_555 1_555
C31 H15 1_555 1_555
C32 H16 1_555 1_555
C33 C32 1_555 1_555
H17 C33 1_555 1_555
C34 H18 1_555 1_555
H19 C34 1_555 1_555
C35 C34 1_555 1_555
C36 C35 1_555 1_555
H20 C36 1_555 1_555
C37 C36 1_555 1_555
H21 C37 1_555 1_555
C38 C37 1_555 1_555
C39 C38 1_555 1_555
H22 C39 1_555 1_555
C40 C35 1_555 1_555
H23 C40 1_555 1_555
C41 C38 1_555 1_555
H24 C41 1_555 1_555
H25 C41 1_555 1_555
C42 H26 1_555 1_555
C43 H27 1_555 1_555
C44 C43 1_555 1_555
H28 C44 1_555 1_555
C45 H29 1_555 1_555
C46 H30 1_555 1_555
C47 C46 1_555 1_555
H31 C47 1_555 1_555
C48 H32 1_555 1_555
H33 C48 1_555 1_555
C49 C48 1_555 1_555
C50 C49 1_555 1_555
H34 C50 1_555 1_555
C51 C50 1_555 1_555
H35 C51 1_555 1_555
C52 C51 1_555 1_555
C53 C52 1_555 1_555
H36 C53 1_555 1_555
C54 C49 1_555 1_555
H37 C54 1_555 1_555
C55 C52 1_555 1_555
H38 C55 1_555 1_555
H39 C55 1_555 1_555
C56 H40 1_555 1_555
C57 H41 1_555 1_555
C58 C57 1_555 1_555
H42 C58 1_555 1_555
C59 H43 1_555 1_555
C60 H44 1_555 1_555
C61 C60 1_555 1_555
H45 C61 1_555 1_555
C62 H46 1_555 1_555
H47 C62 1_555 1_555
C63 C62 1_555 1_555
C64 C63 1_555 1_555
H48 C64 1_555 1_555
C65 C64 1_555 1_555
H49 C65 1_555 1_555
C66 C65 1_555 1_555
C67 C66 1_555 1_555
H50 C67 1_555 1_555
C68 C63 1_555 1_555
H51 C68 1_555 1_555
C69 C66 1_555 1_555
H52 C69 1_555 1_555
H53 C69 1_555 1_555
C70 H54 1_555 1_555
C71 C70 1_555 1_555
H55 C71 1_555 1_555
C72 H56 1_555 1_555
N1 C31 1_555 1_555
N2 C31 1_555 1_555
N3 C41 1_555 1_555
N4 C42 1_555 1_555
N5 C45 1_555 1_555
N6 C45 1_555 1_555
N7 C55 1_555 1_555
N8 C56 1_555 1_555
N9 C59 1_555 1_555
N10 C59 1_555 1_555
N11 C69 1_555 1_555
N12 C71 1_555 1_555
O1 C1 1_555 1_555
O2 C1 1_555 1_555
O3 C2 1_555 1_555
O4 C2 1_555 1_555
O5 C5 1_555 1_555
O6 C15 1_555 1_555
O7 C15 1_555 1_555
O8 C16 1_555 1_555
O9 C16 1_555 1_555
O10 C17 1_555 1_555
O11 C17 1_555 1_555
O12 C20 1_555 1_555
O13 C30 1_555 1_555
O14 C30 1_555 1_555
Zn1 N9 1_555 1_555
Zn2 N1 1_555 1_555
Zn3 N12 1_555 1_555
O15 H57 1_555 1_555
H58 O15 1_555 1_555
O16 H59 1_555 1_555
H60 O16 1_555 1_555
O17 H61 1_555 1_555
H62 O17 1_555 1_555
O18 H63 1_555 1_555
H64 O18 1_555 1_555
O19 H65 1_555 1_555
H66 O19 1_555 1_555
O20 H67 1_555 1_555
H68 O20 1_555 1_555
O21 H69 1_555 1_555
H70 O21 1_555 1_555
N4_2 Zn3 1_555 1_555
N8A Zn1 1_555 1_555
O7A Zn1 1_555 1_555
O14A Zn3 1_555 1_555
Zn1A O7 1_555 1_555
Zn1A_2 N8 1_555 1_555
Zn3_2 N4 1_555 1_555
Zn3A O14 1_555 1_555
C7 C8 1_555 1_555
C9 O5 1_555 1_555
C13 C14 1_555 1_555
C22 C23 1_555 1_555
C24 O12 1_555 1_555
C28 C29 1_555 1_555
C32 N1 1_555 1_555
C33 N2 1_555 1_555
C34 N2 1_555 1_555
C39 C40 1_555 1_555
C42 N3 1_555 1_555
C43 N4 1_555 1_555
C44 N3 1_555 1_555
C46 N5 1_555 1_555
C47 N6 1_555 1_555
C48 N6 1_555 1_555
C53 C54 1_555 1_555
C56 N7 1_555 1_555
C57 N7 1_555 1_555
C58 N8 1_555 1_555
C60 N9 1_555 1_555
C61 N10 1_555 1_555
C62 N10 1_555 1_555
C67 C68 1_555 1_555
C70 N11 1_555 1_555
C72 N11 1_555 1_555
C72 N12 1_555 1_555
N5 Zn2 1_555 1_555
O1 Zn2 1_555 1_555
O3 Zn1 1_555 1_555
O8 Zn2 1_555 1_555
O10 Zn3 1_555 1_555

#END
