
#######################################################################
#
#                 Cambridge Crystallographic Data Centre
#                                CCDC 
#
#######################################################################
#
# If this CIF has been generated from an entry in the Cambridge 
# Structural Database, then it will include bibliographic, chemical, 
# crystal, experimental, refinement or atomic coordinate data resulting 
# from the CCDC's data processing and validation procedures.
#
#######################################################################

data_VIWMEV
_symmetry_cell_setting           monoclinic
_symmetry_space_group_name_H-M   'P 21/n'
_symmetry_Int_Tables_number      14
_space_group_name_Hall           '-P 2yn'
loop_
_symmetry_equiv_pos_site_id
_symmetry_equiv_pos_as_xyz
1 x,y,z
2 1/2-x,1/2+y,1/2-z
3 -x,-y,-z
4 1/2+x,1/2-y,1/2+z
_cell_length_a                   10.899(2)
_cell_length_b                   20.334(4)
_cell_length_c                   19.785(4)
_cell_angle_alpha                90
_cell_angle_beta                 99.48(3)
_cell_angle_gamma                90
_cell_volume                     4324.88
loop_
_atom_site_label
_atom_site_type_symbol
_atom_site_fract_x
_atom_site_fract_y
_atom_site_fract_z
Sm1 Sm -0.45955(3) 0.129257(18) 0.346133(19)
Sm2 Sm 0.84290(4) 0.127594(19) 1.08190(2)
Cu1 Cu 0.08220(8) 0.17331(5) 0.83157(5)
Cu2 Cu 0.29906(8) 0.17326(4) 0.59024(4)
C1 C -0.2532(6) 0.2604(4) 0.5212(4)
C2 C -0.2850(7) 0.2963(4) 0.5761(4)
C3 C -0.2111(6) 0.2928(4) 0.6395(4)
H1 H -0.2297 0.3190 0.6750
C4 C -0.1094(6) 0.2510(4) 0.6512(4)
C5 C -0.0774(6) 0.2149(4) 0.5966(4)
C6 C -0.1493(7) 0.2193(4) 0.5325(4)
H2 H -0.1283 0.1948 0.4965
C7 C -0.3232(6) 0.2668(4) 0.4500(4)
C8 C -0.4085(7) 0.3309(4) 0.5706(4)
C9 C -0.0421(6) 0.2421(4) 0.7229(4)
C10 C 0.0373(7) 0.1715(4) 0.6066(4)
C11 C -0.1273(6) -0.0132(4) 0.4880(4)
C12 C -0.0771(7) 0.0350(4) 0.4493(4)
C13 C 0.0493(7) 0.0468(4) 0.4624(4)
H3 H 0.0825 0.0786 0.4368
C14 C -0.2633(7) -0.0308(4) 0.4762(4)
C15 C -0.1588(7) 0.0760(4) 0.3965(4)
C16 C 0.4606(6) 0.2082(4) 0.8270(4)
C17 C 0.4903(6) 0.2444(4) 0.7724(4)
C18 C 0.5924(7) 0.2866(4) 0.7833(4)
H4 H 0.6106 0.3125 0.7475
C19 C 0.6675(6) 0.2903(4) 0.8473(4)
C20 C 0.6372(6) 0.2534(4) 0.9016(4)
C21 C 0.5342(6) 0.2123(4) 0.8911(4)
H5 H 0.5144 0.1874 0.9272
C22 C 0.4204(6) 0.2353(4) 0.7005(4)
C23 C 0.7893(7) 0.3272(4) 0.8545(4)
C24 C 0.7064(6) 0.2598(4) 0.9743(4)
O1 O -0.3567(5) 0.2165(3) 0.4158(3)
O2 O -0.3391(5) 0.3252(3) 0.4276(3)
O3 O -0.5014(5) 0.3055(3) 0.5327(3)
O4 O -0.4209(6) 0.3807(3) 0.6065(3)
O5 O -0.0348(5) 0.2884(3) 0.7638(3)
O6 O 0.0009(5) 0.1853(3) 0.7374(3)
O7 O 0.1393(5) 0.2040(3) 0.6147(3)
O8 O 0.0271(6) 0.1116(3) 0.6032(4)
O9 O -0.3078(5) -0.0640(3) 0.4238(3)
O10 O -0.3233(5) -0.0116(3) 0.5215(3)
O11 O -0.2736(4) 0.0756(3) 0.3964(3)
O12 O -0.1073(6) 0.1086(4) 0.3553(4)
O13 O 0.2424(5) 0.1972(3) 0.8042(3)
O14 O 0.3524(6) 0.1085(3) 0.8413(4)
O15 O 0.3789(5) 0.1782(3) 0.6854(3)
O16 O 0.4121(5) 0.2824(3) 0.6601(3)
O17 O 0.7993(5) 0.3802(3) 0.8238(3)
O18 O 0.8825(4) 0.3004(3) 0.8896(3)
O19 O 0.7332(5) 0.2085(3) 1.0087(3)
O20 O 0.7257(5) 0.3173(3) 0.9946(3)
O21 O -0.4866(5) 0.0903(3) 0.4633(3)
O22 O -0.4997(7) 0.0064(3) 0.3450(4)
O23 O -0.4819(9) 0.0801(4) 0.2296(4)
O24 O -0.2865(5) 0.1713(3) 0.2853(3)
O25 O 0.6674(6) 0.1641(3) 1.1416(3)
O26 O 0.8837(9) 0.0808(4) 1.1992(4)
O27 O 0.8927(9) 0.0074(4) 1.0803(4)
O28 O 0.6526(7) 0.0637(4) 1.0398(5)
O29 O 0.8791(8) 0.0854(3) 0.9690(4)
O30 O -0.0851(5) 0.1723(3) 0.8633(3)
O31 O 0.0811(12) 0.0674(5) 0.8127(5)
O32 O 0.4700(5) 0.1774(3) 0.5625(3)
C25 C 0.3437(7) 0.1662(4) 0.8224(4)
C11B C 0.1273(6) 0.0132(4) 0.5120(4)
C12B C 0.0771(7) -0.0350(4) 0.5507(4)
C13B C -0.0493(7) -0.0468(4) 0.5376(4)
H3B H -0.0825 -0.0786 0.5632
C14B C 0.2633(7) 0.0308(4) 0.5238(4)
C15B C 0.1588(7) -0.0760(4) 0.6035(4)
O9B O 0.3078(5) 0.0640(3) 0.5762(3)
O10B O 0.3233(5) 0.0116(3) 0.4785(3)
O11B O 0.2736(4) -0.0756(3) 0.6036(3)
O12B O 0.1073(6) -0.1086(4) 0.6447(4)
Sm1B Sm 0.45955(3) -0.129257(18) 0.653867(19)
Sm2B Sm -0.84290(4) -0.127594(19) -0.08190(2)
Cu1B Cu -0.08220(8) -0.17331(5) 0.16843(5)
Cu2B Cu -0.29906(8) -0.17326(4) 0.40976(4)
C1B C 0.2532(6) -0.2604(4) 0.4788(4)
C2B C 0.2850(7) -0.2963(4) 0.4239(4)
C3B C 0.2111(6) -0.2928(4) 0.3605(4)
H1B H 0.2297 -0.3190 0.3250
C4B C 0.1094(6) -0.2510(4) 0.3488(4)
C5B C 0.0774(6) -0.2149(4) 0.4034(4)
C6B C 0.1493(7) -0.2193(4) 0.4675(4)
H2B H 0.1283 -0.1948 0.5035
C7B C 0.3232(6) -0.2668(4) 0.5500(4)
C8B C 0.4085(7) -0.3309(4) 0.4294(4)
C9B C 0.0421(6) -0.2421(4) 0.2771(4)
C10B C -0.0373(7) -0.1715(4) 0.3934(4)
C16B C -0.4606(6) -0.2082(4) 0.1730(4)
C17B C -0.4903(6) -0.2444(4) 0.2276(4)
C18B C -0.5924(7) -0.2866(4) 0.2167(4)
H4B H -0.6106 -0.3125 0.2525
C19B C -0.6675(6) -0.2903(4) 0.1527(4)
C20B C -0.6372(6) -0.2534(4) 0.0984(4)
C21B C -0.5342(6) -0.2123(4) 0.1089(4)
H5B H -0.5144 -0.1874 0.0728
C22B C -0.4204(6) -0.2353(4) 0.2995(4)
C23B C -0.7893(7) -0.3272(4) 0.1455(4)
C24B C -0.7064(6) -0.2598(4) 0.0257(4)
O1B O 0.3567(5) -0.2165(3) 0.5842(3)
O2B O 0.3391(5) -0.3252(3) 0.5724(3)
O3B O 0.5014(5) -0.3055(3) 0.4673(3)
O4B O 0.4209(6) -0.3807(3) 0.3935(3)
O5B O 0.0348(5) -0.2884(3) 0.2362(3)
O6B O -0.0009(5) -0.1853(3) 0.2626(3)
O7B O -0.1393(5) -0.2040(3) 0.3853(3)
O8B O -0.0271(6) -0.1116(3) 0.3968(4)
O13B O -0.2424(5) -0.1972(3) 0.1958(3)
O14B O -0.3524(6) -0.1085(3) 0.1587(4)
O15B O -0.3789(5) -0.1782(3) 0.3146(3)
O16B O -0.4121(5) -0.2824(3) 0.3399(3)
O17B O -0.7993(5) -0.3802(3) 0.1762(3)
O18B O -0.8825(4) -0.3004(3) 0.1104(3)
O19B O -0.7332(5) -0.2085(3) -0.0087(3)
O20B O -0.7257(5) -0.3173(3) 0.0054(3)
O21B O 0.4866(5) -0.0903(3) 0.5367(3)
O22B O 0.4997(7) -0.0064(3) 0.6550(4)
O23B O 0.4819(9) -0.0801(4) 0.7704(4)
O24B O 0.2865(5) -0.1713(3) 0.7147(3)
O25B O -0.6674(6) -0.1641(3) -0.1416(3)
O26B O -0.8837(9) -0.0808(4) -0.1992(4)
O27B O -0.8927(9) -0.0074(4) -0.0803(4)
O28B O -0.6526(7) -0.0637(4) -0.0398(5)
O29B O -0.8791(8) -0.0854(3) 0.0310(4)
O30B O 0.0851(5) -0.1723(3) 0.1367(3)
O31B O -0.0811(12) -0.0674(5) 0.1873(5)
O32B O -0.4700(5) -0.1774(3) 0.4375(3)
C25B C -0.3437(7) -0.1662(4) 0.1776(4)
Sm1A Sm -1.04045(3) -0.370743(18) 0.153867(19)
Sm1A_2 Sm -0.04045(3) -0.370743(18) 0.153867(19)
Sm1C Sm 0.04045(3) 0.370743(18) 0.846133(19)
Sm1C_2 Sm 1.04045(3) 0.370743(18) 0.846133(19)
Sm2A Sm -0.34290(4) -0.372406(19) 0.41810(2)
Sm2A_2 Sm 0.65710(4) -0.372406(19) 0.41810(2)
Sm2C Sm -0.65710(4) 0.372406(19) 0.58190(2)
Sm2C_2 Sm 0.34290(4) 0.372406(19) 0.58190(2)
Cu1A Cu 0.41780(8) -0.32669(5) 0.66843(5)
Cu1C Cu -0.41780(8) 0.32669(5) 0.33157(5)
Cu2A Cu -0.79906(8) -0.32674(4) -0.09024(4)
Cu2C Cu 0.79906(8) 0.32674(4) 1.09024(4)
O2A O -0.1609(5) -0.1748(3) 0.0724(3)
O2C O 0.1609(5) 0.1748(3) 0.9276(3)
O3A O -0.9986(5) -0.1945(3) -0.0327(3)
O3C O 0.9986(5) 0.1945(3) 1.0327(3)
O4A O -1.0791(6) -0.1193(3) -0.1065(3)
O4C O 1.0791(6) 0.1193(3) 1.1065(3)
O5A O 0.5348(5) -0.2116(3) 0.7362(3)
O5C O -0.5348(5) 0.2116(3) 0.2638(3)
O16A O -0.9121(5) -0.2176(3) -0.1601(3)
O16C O 0.9121(5) 0.2176(3) 1.1601(3)
O17A O 0.7007(5) -0.1198(3) 0.6762(3)
O17C O -0.7007(5) 0.1198(3) 0.3238(3)
O18A O 0.6175(4) -0.1996(3) 0.6104(3)
O18C O -0.6175(4) 0.1996(3) 0.3896(3)
O20A O -0.2257(5) -0.1827(3) 0.5054(3)
O20C O 0.2257(5) 0.1827(3) 0.4946(3)
O33 O 0.7512(9) -0.0213(5) 0.9080(6)
O34 O 0.8116(9) 0.0593(5) 0.6306(5)
O35 O 0.6136(10) -0.0754(5) 1.0097(5)
O36 O 0.5593(10) 0.0403(5) 0.8189(8)
O37 O 0.1938(11) 0.0428(6) 0.7076(5)
O38 O 0.8696(12) -0.0251(7) 0.7452(6)
O39 O 0.708(3) 0.1221(12) 0.745(3)
loop_
_geom_bond_atom_site_label_1
_geom_bond_atom_site_label_2
_geom_bond_site_symmetry_1
_geom_bond_site_symmetry_2
Sm1 O1 1_555 1_555
Sm2 O19 1_555 1_555
Cu1 O6 1_555 1_555
Cu2 O7 1_555 1_555
C1 C2 1_555 1_555
C2 C3 1_555 1_555
C3 H1 1_555 1_555
C4 C3 1_555 1_555
C5 C4 1_555 1_555
C6 C1 1_555 1_555
H2 C6 1_555 1_555
C7 C1 1_555 1_555
C8 C2 1_555 1_555
C9 C4 1_555 1_555
C10 C5 1_555 1_555
C11 C12 1_555 1_555
C12 C13 1_555 1_555
C13 H3 1_555 1_555
C14 C11 1_555 1_555
C15 C12 1_555 1_555
C16 C17 1_555 1_555
C17 C18 1_555 1_555
C18 H4 1_555 1_555
C19 C18 1_555 1_555
C20 C19 1_555 1_555
C21 C16 1_555 1_555
H5 C21 1_555 1_555
C22 C17 1_555 1_555
C23 C19 1_555 1_555
C24 C20 1_555 1_555
O1 C7 1_555 1_555
O2 C7 1_555 1_555
O3 C8 1_555 1_555
O4 C8 1_555 1_555
O5 C9 1_555 1_555
O6 C9 1_555 1_555
O7 C10 1_555 1_555
O8 C10 1_555 1_555
O9 C14 1_555 1_555
O10 C14 1_555 1_555
O11 Sm1 1_555 1_555
O12 C15 1_555 1_555
O13 Cu1 1_555 1_555
O14 C25 1_555 1_555
O15 Cu2 1_555 1_555
O16 Cu2 1_555 1_555
O17 C23 1_555 1_555
O18 C23 1_555 1_555
O19 C24 1_555 1_555
O20 C24 1_555 1_555
O21 Sm1 1_555 1_555
O22 Sm1 1_555 1_555
O23 Sm1 1_555 1_555
O24 Sm1 1_555 1_555
O25 Sm2 1_555 1_555
O26 Sm2 1_555 1_555
O27 Sm2 1_555 1_555
O28 Sm2 1_555 1_555
O29 Sm2 1_555 1_555
O30 Cu1 1_555 1_555
O31 Cu1 1_555 1_555
O32 Cu2 1_555 1_555
C25 C16 1_555 1_555
C11B C13 1_555 1_555
C12B C11B 1_555 1_555
C13B C11 1_555 1_555
H3B C13B 1_555 1_555
C14B C11B 1_555 1_555
C15B C12B 1_555 1_555
O9B Cu2 1_555 1_555
O10B C14B 1_555 1_555
O11B C15B 1_555 1_555
O12B C15B 1_555 1_555
Sm1B O11B 1_555 1_555
Sm2B O19B 1_555 1_555
Cu1B O6B 1_555 1_555
Cu2B O9 1_555 1_555
C1B C2B 1_555 1_555
C2B C3B 1_555 1_555
C3B H1B 1_555 1_555
C4B C3B 1_555 1_555
C5B C4B 1_555 1_555
C6B C1B 1_555 1_555
H2B C6B 1_555 1_555
C7B C1B 1_555 1_555
C8B C2B 1_555 1_555
C9B C4B 1_555 1_555
C10B C5B 1_555 1_555
C16B C17B 1_555 1_555
C17B C18B 1_555 1_555
C18B H4B 1_555 1_555
C19B C18B 1_555 1_555
C20B C19B 1_555 1_555
C21B C16B 1_555 1_555
H5B C21B 1_555 1_555
C22B C17B 1_555 1_555
C23B C19B 1_555 1_555
C24B C20B 1_555 1_555
O1B Sm1B 1_555 1_555
O2B C7B 1_555 1_555
O3B C8B 1_555 1_555
O4B C8B 1_555 1_555
O5B C9B 1_555 1_555
O6B C9B 1_555 1_555
O7B Cu2B 1_555 1_555
O8B C10B 1_555 1_555
O13B Cu1B 1_555 1_555
O14B C25B 1_555 1_555
O15B Cu2B 1_555 1_555
O16B Cu2B 1_555 1_555
O17B C23B 1_555 1_555
O18B C23B 1_555 1_555
O19B C24B 1_555 1_555
O20B C24B 1_555 1_555
O21B Sm1B 1_555 1_555
O22B Sm1B 1_555 1_555
O23B Sm1B 1_555 1_555
O24B Sm1B 1_555 1_555
O25B Sm2B 1_555 1_555
O26B Sm2B 1_555 1_555
O27B Sm2B 1_555 1_555
O28B Sm2B 1_555 1_555
O29B Sm2B 1_555 1_555
O30B Cu1B 1_555 1_555
O31B Cu1B 1_555 1_555
O32B Cu2B 1_555 1_555
C25B C16B 1_555 1_555
Sm1A O17B 1_555 1_555
Sm1A_2 O5B 1_555 1_555
Sm1C O5 1_555 1_555
Sm1C_2 O17 1_555 1_555
Sm2A O16B 1_555 1_555
Sm2A_2 O3B 1_555 1_555
Sm2C O3 1_555 1_555
Sm2C_2 O16 1_555 1_555
Cu1A O2B 1_555 1_555
Cu1C O2 1_555 1_555
Cu2A O20B 1_555 1_555
Cu2C O20 1_555 1_555
O2A Cu1B 1_555 1_555
O2C Cu1 1_555 1_555
O3A Sm2B 1_555 1_555
O3C Sm2 1_555 1_555
O4A Sm2B 1_555 1_555
O4C Sm2 1_555 1_555
O5A Sm1B 1_555 1_555
O5C Sm1 1_555 1_555
O16A Sm2B 1_555 1_555
O16C Sm2 1_555 1_555
O17A Sm1B 1_555 1_555
O17C Sm1 1_555 1_555
O18A Sm1B 1_555 1_555
O18C Sm1 1_555 1_555
O20A Cu2B 1_555 1_555
O20C Cu2 1_555 1_555
C5 C6 1_555 1_555
C15 O11 1_555 1_555
C20 C21 1_555 1_555
C22 O15 1_555 1_555
C22 O16 1_555 1_555
O4 Sm2C 1_555 1_555
O13 C25 1_555 1_555
O18 Sm1C_2 1_555 1_555
C12B C13B 1_555 1_555
C14B O9B 1_555 1_555
C5B C6B 1_555 1_555
C7B O1B 1_555 1_555
C10B O7B 1_555 1_555
C20B C21B 1_555 1_555
C22B O15B 1_555 1_555
C22B O16B 1_555 1_555
O4B Sm2A_2 1_555 1_555
O13B C25B 1_555 1_555
O18B Sm1A 1_555 1_555
Cu2A O16A 1_555 1_555
Cu2C O16C 1_555 1_555

#END
