
#######################################################################
#
#                 Cambridge Crystallographic Data Centre
#                                CCDC 
#
#######################################################################
#
# If this CIF has been generated from an entry in the Cambridge 
# Structural Database, then it will include bibliographic, chemical, 
# crystal, experimental, refinement or atomic coordinate data resulting 
# from the CCDC's data processing and validation procedures.
#
#######################################################################

data_VIWTUR
_symmetry_cell_setting           monoclinic
_symmetry_space_group_name_H-M   'P 2/c'
_symmetry_Int_Tables_number      13
_space_group_name_Hall           '-P 2yc'
loop_
_symmetry_equiv_pos_site_id
_symmetry_equiv_pos_as_xyz
1 x,y,z
2 -x,y,1/2-z
3 -x,-y,-z
4 x,-y,1/2+z
_cell_length_a                   11.029(3)
_cell_length_b                   7.3925(18)
_cell_length_c                   10.165(3)
_cell_angle_alpha                90
_cell_angle_beta                 112.149(3)
_cell_angle_gamma                90
_cell_volume                     767.614
loop_
_atom_site_label
_atom_site_type_symbol
_atom_site_fract_x
_atom_site_fract_y
_atom_site_fract_z
Mn1 Mn 0.25422(3) 0.14754(4) 0.41123(3)
C1 C 0.13897(18) 0.5035(3) 0.43625(19)
C2 C 0.07525(17) 0.4815(2) 0.27492(18)
H1 H 0.1024 0.5821 0.2294
C3 C 0.42697(17) 0.2562(3) 0.24009(19)
H2 H 0.3829 0.3503 0.1706
C4 C 0.35823(17) 0.0765(3) 0.18319(19)
O1 O 0.20895(14) 0.3801(2) 0.51027(14)
O2 O 0.11465(16) 0.65022(18) 0.48441(15)
O3 O 0.11895(14) 0.31700(19) 0.23691(14)
H3 H 0.1245 0.3256 0.1590
O4 O 0.41270(13) 0.30125(19) 0.37015(14)
H4 H 0.4041 0.4114 0.3703
O5 O 0.28552(14) 0.00821(19) 0.23884(15)
O6 O 0.37862(15) 0.0127(2) 0.07879(16)
O7 O 0.08037(15) -0.0100(2) 0.39729(17)
H5 H 0.0662 -0.1156 0.3707
H6 H 0.0915 -0.0298 0.4808
Mn1A Mn -0.25422(3) 0.14754(4) 0.08877(3)
Mn1C Mn 0.25422(3) -0.14754(4) -0.08877(3)
Mn1A_2 Mn 0.74578(3) 0.14754(4) 0.08877(3)
Mn1B Mn 0.74578(3) -0.14754(4) 0.58877(3)
C1A C -0.13897(18) 0.5035(3) 0.06375(19)
C2A C -0.07525(17) 0.4815(2) 0.22508(18)
H1A H -0.1024 0.5821 0.2706
C3A C 0.57303(17) 0.2562(3) 0.25991(19)
H2A H 0.6171 0.3503 0.3294
C4A C 0.64177(17) 0.0765(3) 0.31681(19)
O1A O -0.20895(14) 0.3801(2) -0.01027(14)
O2A O -0.11465(16) 0.65022(18) 0.01559(15)
O3A O -0.11895(14) 0.31700(19) 0.26309(14)
H3A H -0.1245 0.3256 0.3410
O4A O 0.58730(13) 0.30125(19) 0.12985(14)
O4A_2 O -0.41270(13) 0.30125(19) 0.12985(14)
H4A H 0.5959 0.4114 0.1297
H4A_2 H -0.4041 0.4114 0.1297
O5A O 0.71448(14) 0.00821(19) 0.26116(15)
O5A_2 O -0.28552(14) 0.00821(19) 0.26116(15)
O6A O 0.62138(15) 0.0127(2) 0.42121(16)
O6C O 0.37862(15) -0.0127(2) 0.57879(16)
O6B O -0.37862(15) -0.0127(2) -0.07879(16)
O7A O -0.08037(15) -0.0100(2) 0.10271(17)
H5A H -0.0662 -0.1156 0.1293
H6A H -0.0915 -0.0298 0.0192
O8 O 0.6263(2) 0.3474(2) 0.6453(2)
H7 H 0.6577 0.2909 0.7200
H8 H 0.5735 0.2819 0.5859
loop_
_geom_bond_atom_site_label_1
_geom_bond_atom_site_label_2
_geom_bond_site_symmetry_1
_geom_bond_site_symmetry_2
Mn1 O1 1_555 1_555
C1 C2 1_555 1_555
C2 H1 1_555 1_555
C3 H2 1_555 1_555
C4 C3 1_555 1_555
O1 C1 1_555 1_555
O2 C1 1_555 1_555
O3 Mn1 1_555 1_555
H3 O3 1_555 1_555
O4 Mn1 1_555 1_555
H4 O4 1_555 1_555
O5 Mn1 1_555 1_555
O6 C4 1_555 1_555
O7 Mn1 1_555 1_555
H5 O7 1_555 1_555
H6 O7 1_555 1_555
O8 H7 1_555 1_555
H8 O8 1_555 1_555
Mn1A O1A 1_555 1_555
Mn1C O6 1_555 1_555
Mn1A_2 O4A 1_555 1_555
Mn1B O6A 1_555 1_555
C1A C2A 1_555 1_555
C2A C2 1_555 1_555
H1A C2A 1_555 1_555
C3A C3 1_555 1_555
H2A C3A 1_555 1_555
C4A C3A 1_555 1_555
O1A C1A 1_555 1_555
O2A C1A 1_555 1_555
O3A Mn1A 1_555 1_555
H3A O3A 1_555 1_555
O4A C3A 1_555 1_555
O4A_2 Mn1A 1_555 1_555
H4A O4A 1_555 1_555
H4A_2 O4A_2 1_555 1_555
O5A Mn1A_2 1_555 1_555
O5A_2 Mn1A 1_555 1_555
O6A C4A 1_555 1_555
O6C Mn1 1_555 1_555
O6B Mn1A 1_555 1_555
O7A Mn1A 1_555 1_555
H5A O7A 1_555 1_555
H6A O7A 1_555 1_555
C2 O3 1_555 1_555
C3 O4 1_555 1_555
C4 O5 1_555 1_555
C2A O3A 1_555 1_555
C4A O5A 1_555 1_555

#END
