
#######################################################################
#
#                 Cambridge Crystallographic Data Centre
#                                CCDC 
#
#######################################################################
#
# If this CIF has been generated from an entry in the Cambridge 
# Structural Database, then it will include bibliographic, chemical, 
# crystal, experimental, refinement or atomic coordinate data resulting 
# from the CCDC's data processing and validation procedures.
#
#######################################################################

data_VIWTUS
_symmetry_cell_setting           triclinic
_symmetry_space_group_name_H-M   'P -1'
_symmetry_Int_Tables_number      2
_space_group_name_Hall           '-P 1'
loop_
_symmetry_equiv_pos_site_id
_symmetry_equiv_pos_as_xyz
1 x,y,z
2 -x,-y,-z
_cell_length_a                   10.3954(6)
_cell_length_b                   12.7503(7)
_cell_length_c                   14.0871(9)
_cell_angle_alpha                63.3380(10)
_cell_angle_beta                 89.9780(10)
_cell_angle_gamma                86.0050(10)
_cell_volume                     1663.58
loop_
_atom_site_label
_atom_site_type_symbol
_atom_site_fract_x
_atom_site_fract_y
_atom_site_fract_z
Zn1 Zn 0.93189(3) 0.51516(2) -0.41411(2)
O1 O 0.08502(16) 0.40457(15) -0.33027(14)
O2 O 0.82142(16) 0.37644(14) -0.37488(14)
O3 O 0.8505(2) 0.08746(17) -0.63404(16)
O4 O 0.5449(2) 0.19761(19) 0.01771(17)
O5 O 0.3621(2) 0.3109(2) -0.00945(18)
H1 H 0.3910 0.3168 0.0419
O6 O 0.18843(16) 0.38192(15) -0.46109(14)
O7 O 0.71780(19) -0.05546(16) -0.55375(16)
O8 O 0.93050(17) 0.36598(15) -0.50670(14)
N1 N 0.8885(2) 1.01101(19) 0.22007(17)
C1 C 0.1761(2) 0.3639(2) -0.3659(2)
C2 C 0.8469(2) 0.3322(2) -0.4371(2)
C3 C 0.7753(2) 0.2300(2) -0.42790(19)
C4 C 0.6848(2) 0.1827(2) -0.35091(19)
H2 H 0.6674 0.2154 -0.3047
C5 C 0.6191(2) 0.0867(2) -0.3415(2)
C6 C 0.6466(2) 0.0395(2) -0.4113(2)
H3 H 0.6031 -0.0239 -0.4065
C7 C 0.7381(2) 0.0853(2) -0.4883(2)
C8 C 0.8025(2) 0.1814(2) -0.4972(2)
H4 H 0.8631 0.2128 -0.5492
C9 C 0.7664(2) 0.0318(2) -0.5619(2)
C10 C 0.5229(2) 0.0339(2) -0.2555(2)
H5 H 0.5685 -0.0228 -0.1907
H6 H 0.4638 -0.0079 -0.2768
C11 C 0.4463(2) 0.1255(2) -0.2333(2)
C12 C 0.3507(2) 0.1997(2) -0.3056(2)
H7 H 0.3330 0.1916 -0.3666
C13 C 0.2809(2) 0.2860(2) -0.2878(2)
C14 C 0.3075(2) 0.2987(2) -0.1970(2)
H8 H 0.2591 0.3546 -0.1837
C15 C 0.4058(2) 0.2284(2) -0.1266(2)
C16 C 0.4413(3) 0.2453(2) -0.0328(2)
C17 C 0.4740(2) 0.1412(2) -0.1446(2)
H9 H 0.5390 0.0929 -0.0963
N2 N 0.89164(19) 0.58890(17) -0.31513(16)
C18 C 0.9092(3) 0.5264(2) -0.2096(2)
H10 H 0.9247 0.4451 -0.1811
C19 C 0.9053(3) 0.5772(2) -0.1416(2)
H11 H 0.9178 0.5312 -0.0687
C20 C 0.8823(2) 0.6990(2) -0.1844(2)
C21 C 0.8596(3) 0.7637(2) -0.2931(2)
H12 H 0.8408 0.8447 -0.3233
C22 C 0.8655(2) 0.7058(2) -0.3554(2)
H13 H 0.8508 0.7494 -0.4284
C23 C 0.8856(2) 0.7569(2) -0.1146(2)
N3 N 0.8214(2) 0.86328(18) -0.14815(17)
N4 N 0.8239(2) 0.91363(18) -0.08408(17)
C24 C 0.8925(2) 0.8568(2) 0.0075(2)
C25 C 0.8940(2) 0.9116(2) 0.08049(19)
C26 C 0.9732(2) 0.8633(2) 0.1714(2)
H14 H 1.0294 0.7972 0.1868
C27 C 0.9669(3) 0.9156(2) 0.2384(2)
H15 H 1.0198 0.8828 0.2996
C28 C 0.8143(2) 1.0571(2) 0.1323(2)
H16 H 0.7599 1.1237 0.1187
C29 C 0.8135(2) 1.0116(2) 0.0602(2)
H17 H 0.7603 1.0471 -0.0008
N5 N 0.9608(2) 0.75178(18) 0.03958(17)
N6 N 0.9565(2) 0.70074(18) -0.02382(17)
H18 H 0.863(4) 0.056(4) -0.677(3)
Zn1_2 Zn -0.06811(3) 0.51516(2) -0.41411(2)
Zn1A Zn 0.06811(3) 0.48484(2) -0.58589(2)
Zn1A_2 Zn 1.06811(3) 0.48484(2) -0.58589(2)
O1_2 O 1.08502(16) 0.40457(15) -0.33027(14)
O6A O 0.81157(16) 0.61808(15) -0.53891(14)
O8A O 1.06950(17) 0.63402(15) -0.49330(14)
loop_
_geom_bond_atom_site_label_1
_geom_bond_atom_site_label_2
_geom_bond_site_symmetry_1
_geom_bond_site_symmetry_2
Zn1 O2 1_555 1_555
O1 C1 1_555 1_555
O2 C2 1_555 1_555
O3 C9 1_555 1_555
O4 C16 1_555 1_555
O5 H1 1_555 1_555
O6 C1 1_555 1_555
O7 C9 1_555 1_555
O8 C2 1_555 1_555
N1 C27 1_555 1_555
C1 C13 1_555 1_555
C2 C3 1_555 1_555
C3 C4 1_555 1_555
C4 H2 1_555 1_555
C5 C4 1_555 1_555
C6 C5 1_555 1_555
H3 C6 1_555 1_555
C7 C6 1_555 1_555
C8 C3 1_555 1_555
H4 C8 1_555 1_555
C9 C7 1_555 1_555
C10 C5 1_555 1_555
H5 C10 1_555 1_555
H6 C10 1_555 1_555
C11 C10 1_555 1_555
C12 C11 1_555 1_555
H7 C12 1_555 1_555
C13 C12 1_555 1_555
C14 C13 1_555 1_555
H8 C14 1_555 1_555
C15 C14 1_555 1_555
C16 O5 1_555 1_555
C17 C11 1_555 1_555
H9 C17 1_555 1_555
N2 Zn1 1_555 1_555
C18 N2 1_555 1_555
H10 C18 1_555 1_555
C19 C18 1_555 1_555
H11 C19 1_555 1_555
C20 C19 1_555 1_555
C21 C20 1_555 1_555
H12 C21 1_555 1_555
C22 N2 1_555 1_555
H13 C22 1_555 1_555
C23 C20 1_555 1_555
N3 C23 1_555 1_555
N4 N3 1_555 1_555
C24 N4 1_555 1_555
C25 C24 1_555 1_555
C26 C25 1_555 1_555
H14 C26 1_555 1_555
C27 C26 1_555 1_555
H15 C27 1_555 1_555
C28 N1 1_555 1_555
H16 C28 1_555 1_555
C29 C25 1_555 1_555
H17 C29 1_555 1_555
N5 C24 1_555 1_555
N6 C23 1_555 1_555
H18 O3 1_555 1_555
Zn1_2 O1 1_555 1_555
Zn1A O6 1_555 1_555
Zn1A_2 O8 1_555 1_555
O1_2 Zn1 1_555 1_555
O6A Zn1 1_555 1_555
O8A Zn1 1_555 1_555
C7 C8 1_555 1_555
C15 C16 1_555 1_555
C15 C17 1_555 1_555
C21 C22 1_555 1_555
C28 C29 1_555 1_555
N5 N6 1_555 1_555

#END
