
#######################################################################
#
#                 Cambridge Crystallographic Data Centre
#                                CCDC 
#
#######################################################################
#
# If this CIF has been generated from an entry in the Cambridge 
# Structural Database, then it will include bibliographic, chemical, 
# crystal, experimental, refinement or atomic coordinate data resulting 
# from the CCDC's data processing and validation procedures.
#
#######################################################################

data_VIWXOQ
_symmetry_cell_setting           triclinic
_symmetry_space_group_name_H-M   'P -1'
_symmetry_Int_Tables_number      2
_space_group_name_Hall           '-P 1'
loop_
_symmetry_equiv_pos_site_id
_symmetry_equiv_pos_as_xyz
1 x,y,z
2 -x,-y,-z
_cell_length_a                   8.1153(16)
_cell_length_b                   9.3797(19)
_cell_length_c                   13.350(3)
_cell_angle_alpha                93.81(3)
_cell_angle_beta                 105.48(3)
_cell_angle_gamma                114.03(3)
_cell_volume                     876.566
loop_
_atom_site_label
_atom_site_type_symbol
_atom_site_fract_x
_atom_site_fract_y
_atom_site_fract_z
Zn1 Zn 0.38309(5) 0.45236(5) 0.33718(3)
C1 C 0.3888(4) 0.6644(3) 0.5065(3)
C2 C 0.3073(4) 0.7622(4) 0.5506(2)
C3 C 0.4283(5) 0.9177(4) 0.6029(3)
H1 H 0.5590 0.9539 0.6179
C4 C 0.3601(6) 1.0208(4) 0.6334(3)
H2 H 0.4444 1.1242 0.6699
C5 C 0.1661(5) 0.9692(4) 0.6093(3)
H3 H 0.1191 1.0387 0.6279
C6 C 0.0421(5) 0.8145(4) 0.5576(3)
H4 H -0.0886 0.7803 0.5408
C7 C 0.1110(4) 0.7100(4) 0.5306(2)
C8 C 0.6038(5) 0.5271(4) 0.2250(3)
C9 C 0.7638(4) 0.6074(4) 0.1808(3)
C10 C 0.9440(5) 0.7020(4) 0.2511(3)
H5 H 0.9597 0.7287 0.3225
C11 C 1.1019(5) 0.7576(4) 0.2169(3)
H6 H 1.2224 0.8207 0.2654
C12 C 1.0812(5) 0.7200(5) 0.1120(3)
H7 H 1.1878 0.7565 0.0896
C13 C 0.9028(5) 0.6281(4) 0.0392(3)
H8 H 0.8886 0.6020 -0.0320
C14 C 0.7439(4) 0.5748(4) 0.0737(3)
C15 C -0.0319(4) 0.3288(4) 0.2245(3)
H9 H -0.0138 0.4227 0.2638
C16 C -0.2094(4) 0.2310(4) 0.1563(3)
H10 H -0.3077 0.2606 0.1488
C17 C -0.2445(4) 0.0881(4) 0.0979(3)
C18 C -0.0903(5) 0.0506(4) 0.1155(3)
H11 H -0.1071 -0.0460 0.0809
C19 C 0.0861(5) 0.1564(4) 0.1839(3)
H12 H 0.1871 0.1300 0.1930
C20 C -0.4296(4) -0.0189(4) 0.0195(3)
H13 H -0.4493 -0.1217 -0.0047
N1 N -0.0272(3) 0.5499(3) 0.4831(2)
N2 N 0.5638(4) 0.4837(3) -0.0072(2)
N3 N 0.1184(3) 0.2957(3) 0.2378(2)
O1 O 0.3036(3) 0.5906(3) 0.41223(18)
O2 O 0.5448(3) 0.6719(3) 0.56363(19)
O3 O 0.5075(3) 0.3813(3) 0.1989(2)
O4 O 0.5838(3) 0.6125(3) 0.2938(2)
C1A C -0.3888(4) 0.3356(3) 0.4935(3)
C2A C -0.3073(4) 0.2378(4) 0.4494(2)
C3A C -0.4283(5) 0.0823(4) 0.3971(3)
H1A H -0.5590 0.0461 0.3821
C4A C -0.3601(6) -0.0208(4) 0.3666(3)
H2A H -0.4444 -0.1242 0.3301
C5A C -0.1661(5) 0.0308(4) 0.3907(3)
H3A H -0.1191 -0.0387 0.3721
C6A C -0.0421(5) 0.1855(4) 0.4424(3)
H4A H 0.0886 0.2197 0.4592
C7A C -0.1110(4) 0.2900(4) 0.4694(2)
N1A N 0.0272(3) 0.4501(3) 0.5169(2)
O1A O -0.3036(3) 0.4094(3) 0.58777(18)
O2A O -0.5448(3) 0.3281(3) 0.43637(19)
C8A C 0.3962(5) 0.4729(4) -0.2250(3)
C9A C 0.2362(4) 0.3926(4) -0.1808(3)
C10A C 0.0560(5) 0.2980(4) -0.2511(3)
H5A H 0.0403 0.2713 -0.3225
C11A C -0.1019(5) 0.2424(4) -0.2169(3)
H6A H -0.2224 0.1793 -0.2654
C12A C -0.0812(5) 0.2800(5) -0.1120(3)
H7A H -0.1878 0.2435 -0.0896
C13A C 0.0972(5) 0.3719(4) -0.0392(3)
H8A H 0.1114 0.3980 0.0320
C14A C 0.2561(4) 0.4252(4) -0.0737(3)
N2A N 0.4362(4) 0.5163(3) 0.0072(2)
O3A O 0.4925(3) 0.6187(3) -0.1989(2)
O4A O 0.4162(3) 0.3875(3) -0.2938(2)
C15A C -0.9681(4) -0.3288(4) -0.2245(3)
H9A H -0.9862 -0.4227 -0.2638
C16A C -0.7906(4) -0.2310(4) -0.1563(3)
H10A H -0.6923 -0.2606 -0.1488
C17A C -0.7555(4) -0.0881(4) -0.0979(3)
C18A C -0.9097(5) -0.0506(4) -0.1155(3)
H11A H -0.8929 0.0460 -0.0809
C19A C -1.0861(5) -0.1564(4) -0.1839(3)
H12A H -1.1871 -0.1300 -0.1930
C20A C -0.5704(4) 0.0189(4) -0.0195(3)
H13A H -0.5507 0.1217 0.0047
N3A N -1.1184(3) -0.2957(3) -0.2378(2)
Zn1A Zn -1.38309(5) -0.45236(5) -0.33718(3)
Zn1_2 Zn -0.61691(5) 0.45236(5) 0.33718(3)
Zn1A_2 Zn -0.38309(5) 0.54764(5) 0.66282(3)
Zn1A_3 Zn 0.61691(5) 0.54764(5) -0.33718(3)
Zn1A_4 Zn 0.61691(5) 0.54764(5) 0.66282(3)
O1A_2 O -1.3036(3) -0.5906(3) -0.41223(18)
O2_2 O -1.4552(3) -0.3281(3) -0.43637(19)
O2A_2 O 0.4552(3) 0.3281(3) 0.43637(19)
O3A_2 O -1.5075(3) -0.3813(3) -0.1989(2)
O4A_2 O -1.5838(3) -0.6125(3) -0.2938(2)
loop_
_geom_bond_atom_site_label_1
_geom_bond_atom_site_label_2
_geom_bond_site_symmetry_1
_geom_bond_site_symmetry_2
Zn1 N3 1_555 1_555
C1 C2 1_555 1_555
C2 C3 1_555 1_555
C3 H1 1_555 1_555
C4 C3 1_555 1_555
H2 C4 1_555 1_555
C5 C4 1_555 1_555
H3 C5 1_555 1_555
C6 C5 1_555 1_555
H4 C6 1_555 1_555
C7 C2 1_555 1_555
C8 C9 1_555 1_555
C9 C10 1_555 1_555
C10 H5 1_555 1_555
C11 C10 1_555 1_555
H6 C11 1_555 1_555
C12 C11 1_555 1_555
H7 C12 1_555 1_555
C13 C12 1_555 1_555
H8 C13 1_555 1_555
C14 C9 1_555 1_555
C15 H9 1_555 1_555
C16 C15 1_555 1_555
H10 C16 1_555 1_555
C17 C16 1_555 1_555
C18 C17 1_555 1_555
H11 C18 1_555 1_555
C19 C18 1_555 1_555
H12 C19 1_555 1_555
C20 C17 1_555 1_555
H13 C20 1_555 1_555
N1 C7 1_555 1_555
N2 C14 1_555 1_555
N3 C15 1_555 1_555
O1 Zn1 1_555 1_555
O2 C1 1_555 1_555
O3 Zn1 1_555 1_555
O4 Zn1 1_555 1_555
C1A C2A 1_555 1_555
C2A C3A 1_555 1_555
C3A H1A 1_555 1_555
C4A C3A 1_555 1_555
H2A C4A 1_555 1_555
C5A C4A 1_555 1_555
H3A C5A 1_555 1_555
C6A C5A 1_555 1_555
H4A C6A 1_555 1_555
C7A C2A 1_555 1_555
N1A N1 1_555 1_555
O1A C1A 1_555 1_555
O2A C1A 1_555 1_555
C8A C9A 1_555 1_555
C9A C10A 1_555 1_555
C10A H5A 1_555 1_555
C11A C10A 1_555 1_555
H6A C11A 1_555 1_555
C12A C11A 1_555 1_555
H7A C12A 1_555 1_555
C13A C12A 1_555 1_555
H8A C13A 1_555 1_555
C14A C9A 1_555 1_555
N2A N2 1_555 1_555
O3A C8A 1_555 1_555
O4A C8A 1_555 1_555
C15A H9A 1_555 1_555
C16A C15A 1_555 1_555
H10A C16A 1_555 1_555
C17A C16A 1_555 1_555
C18A C17A 1_555 1_555
H11A C18A 1_555 1_555
C19A C18A 1_555 1_555
H12A C19A 1_555 1_555
C20A C20 1_555 1_555
H13A C20A 1_555 1_555
N3A C15A 1_555 1_555
Zn1A N3A 1_555 1_555
Zn1_2 O2A 1_555 1_555
Zn1A_2 O1A 1_555 1_555
Zn1A_3 O3A 1_555 1_555
Zn1A_4 O2 1_555 1_555
O1A_2 Zn1A 1_555 1_555
O2_2 Zn1A 1_555 1_555
O2A_2 Zn1 1_555 1_555
O3A_2 Zn1A 1_555 1_555
O4A_2 Zn1A 1_555 1_555
C1 O1 1_555 1_555
C6 C7 1_555 1_555
C8 O3 1_555 1_555
C8 O4 1_555 1_555
C13 C14 1_555 1_555
C19 N3 1_555 1_555
C6A C7A 1_555 1_555
C7A N1A 1_555 1_555
C13A C14A 1_555 1_555
C14A N2A 1_555 1_555
O4A Zn1A_3 1_555 1_555
C17A C20A 1_555 1_555
C19A N3A 1_555 1_555

#END
