
#######################################################################
#
#                 Cambridge Crystallographic Data Centre
#                                CCDC 
#
#######################################################################
#
# If this CIF has been generated from an entry in the Cambridge 
# Structural Database, then it will include bibliographic, chemical, 
# crystal, experimental, refinement or atomic coordinate data resulting 
# from the CCDC's data processing and validation procedures.
#
#######################################################################

data_VIWXIJ
_symmetry_cell_setting           orthorhombic
_symmetry_space_group_name_H-M   'P 21 21 21'
_symmetry_Int_Tables_number      19
_space_group_name_Hall           'P 2ac 2ab'
loop_
_symmetry_equiv_pos_site_id
_symmetry_equiv_pos_as_xyz
1 x,y,z
2 1/2-x,-y,1/2+z
3 -x,1/2+y,1/2-z
4 1/2+x,1/2-y,-z
_cell_length_a                   5.1436(6)
_cell_length_b                   10.1864(12)
_cell_length_c                   20.945(3)
_cell_angle_alpha                90
_cell_angle_beta                 90
_cell_angle_gamma                90
_cell_volume                     1097.41
loop_
_atom_site_label
_atom_site_type_symbol
_atom_site_fract_x
_atom_site_fract_y
_atom_site_fract_z
Cd1 Cd 0.19701(4) 0.598741(18) 0.037374(12)
S1 S 0.43371(19) 1.01270(8) 0.23861(5)
S2 S 0.08061(17) 0.79848(7) 0.29636(4)
S3 S -0.32175(18) 0.75024(7) 0.40146(4)
O1 O 0.3638(4) 0.73698(18) -0.04458(11)
H1 H 0.4364 0.7010 -0.0767
H2 H 0.2287 0.7638 -0.0635
O2 O 0.4017(4) 0.7322(2) 0.10795(12)
O3 O 0.1049(5) 0.8799(2) 0.13853(12)
O4 O -0.4794(4) 0.5377(2) 0.47398(12)
O5 O -0.1094(4) 0.48059(19) 0.52074(11)
N1 N 0.0999(5) 1.0370(2) 0.33329(14)
N2 N -0.0703(6) 0.9752(2) 0.37319(13)
C1 C 0.3185(7) 0.8252(3) 0.14262(15)
C2 C 0.5138(7) 0.8691(3) 0.19287(17)
H3 H 0.6786 0.8850 0.1717
H4 H 0.5400 0.7969 0.2224
C3 C 0.1993(7) 0.9571(3) 0.29142(15)
C4 C -0.1025(6) 0.8512(3) 0.36048(16)
C5 C -0.0913(7) 0.6424(3) 0.43994(17)
H5 H 0.0083 0.5953 0.4080
H6 H 0.0284 0.6934 0.4657
C6 C -0.2376(6) 0.5456(3) 0.48189(16)
Cd1C Cd 0.69701(4) 0.901259(18) -0.037374(12)
Cd1A Cd -0.69701(4) 0.401259(18) 0.537374(12)
Cd1A_2 Cd 0.30299(4) 0.401259(18) 0.537374(12)
Cd1B Cd -0.19701(4) 1.098741(18) 0.462626(12)
O1C O -0.1362(4) 0.76302(18) 0.04458(11)
H1C H -0.0636 0.7990 0.0767
H2C H -0.2713 0.7362 0.0635
O4A O -0.0206(4) 0.4623(2) -0.02602(12)
O5A O 0.6094(4) 0.51941(19) 0.02074(11)
N2B N 0.0703(6) 0.4752(2) 0.12681(13)
loop_
_geom_bond_atom_site_label_1
_geom_bond_atom_site_label_2
_geom_bond_site_symmetry_1
_geom_bond_site_symmetry_2
Cd1 O1 1_555 1_555
S1 C2 1_555 1_555
S2 C3 1_555 1_555
S3 C4 1_555 1_555
O1 H1 1_555 1_555
H2 O1 1_555 1_555
O2 Cd1 1_555 1_555
O3 C1 1_555 1_555
O4 C6 1_555 1_555
O5 C6 1_555 1_555
N1 N2 1_555 1_555
N2 C4 1_555 1_555
C1 O2 1_555 1_555
C2 C1 1_555 1_555
H3 C2 1_555 1_555
H4 C2 1_555 1_555
C3 S1 1_555 1_555
C4 S2 1_555 1_555
C5 S3 1_555 1_555
H5 C5 1_555 1_555
H6 C5 1_555 1_555
C6 C5 1_555 1_555
Cd1C O1 1_555 1_555
Cd1A O4 1_555 1_555
Cd1A_2 O5 1_555 1_555
Cd1B N2 1_555 1_555
O1C Cd1 1_555 1_555
H1C O1C 1_555 1_555
H2C O1C 1_555 1_555
O4A Cd1 1_555 1_555
O5A Cd1 1_555 1_555
N2B Cd1 1_555 1_555
N1 C3 1_555 1_555

#END
