
#######################################################################
#
#                 Cambridge Crystallographic Data Centre
#                                CCDC 
#
#######################################################################
#
# If this CIF has been generated from an entry in the Cambridge 
# Structural Database, then it will include bibliographic, chemical, 
# crystal, experimental, refinement or atomic coordinate data resulting 
# from the CCDC's data processing and validation procedures.
#
#######################################################################

data_VIXCUB
_symmetry_cell_setting           tetragonal
_symmetry_space_group_name_H-M   'I 41/a'
_symmetry_Int_Tables_number      88
_space_group_name_Hall           '-I 4ad'
loop_
_symmetry_equiv_pos_site_id
_symmetry_equiv_pos_as_xyz
1 x,y,z
2 3/4-y,1/4+x,1/4+z
3 1/2+x,1/2+y,1/2+z
4 1/4-y,3/4+x,3/4+z
5 1/4+y,1/4-x,1/4+z
6 1/2-x,-y,1/2+z
7 3/4+y,3/4-x,3/4+z
8 -x,1/2-y,z
9 -x,-y,-z
10 1/4+y,3/4-x,3/4-z
11 1/2-x,1/2-y,1/2-z
12 3/4+y,1/4-x,1/4-z
13 3/4-y,3/4+x,3/4-z
14 1/2+x,y,1/2-z
15 1/4-y,1/4+x,1/4-z
16 x,1/2+y,-z
_cell_length_a                   24.616(2)
_cell_length_b                   24.616(2)
_cell_length_c                   11.6525(10)
_cell_angle_alpha                90
_cell_angle_beta                 90
_cell_angle_gamma                90
_cell_volume                     7060.8
loop_
_atom_site_label
_atom_site_type_symbol
_atom_site_fract_x
_atom_site_fract_y
_atom_site_fract_z
Cu1 Cu 1.0000 0.5000 0.0000
Cu2 Cu 0.831098(11) 0.573671(13) 0.15871(2)
Cl1 Cl 0.95976(3) 0.45224(4) -0.14420(7)
O1 O 0.89205(7) 0.53782(8) 0.08045(16)
O2 O 0.82567(7) 0.50503(8) 0.24516(15)
N1 N 0.94955(8) 0.46672(8) 0.11123(18)
C1 C 0.90471(9) 0.49384(10) 0.1334(2)
C2 C 0.86709(9) 0.47527(10) 0.2248(2)
N2 N 0.87708(9) 0.43051(8) 0.28321(18)
C3 C 0.92255(12) 0.40033(10) 0.2547(2)
C4 C 0.93215(17) 0.35071(12) 0.3099(3)
H1 H 0.9069 0.3371 0.3645
C5 C 0.97810(19) 0.32198(14) 0.2845(3)
H2 H 0.9844 0.2883 0.3221
C6 C 1.01615(16) 0.34069(14) 0.2048(3)
H3 H 1.0484 0.3206 0.1908
C7 C 1.00654(12) 0.38857(12) 0.1463(3)
H4 H 1.0315 0.4010 0.0900
C8 C 0.95947(10) 0.41883(10) 0.1708(2)
O3 O 0.89053(9) 0.60957(10) 0.29533(19)
C9 C 0.93192(13) 0.58699(15) 0.3308(3)
H5 H 0.9405 0.5523 0.2999
N3 N 0.96522(13) 0.60714(14) 0.4083(3)
C10 C 1.01328(16) 0.5771(2) 0.4470(4)
H6 H 1.0079 0.5652 0.5264
H7 H 1.0453 0.6007 0.4427
H8 H 1.0188 0.5453 0.3977
C11 C 0.9521(2) 0.66010(19) 0.4623(6)
H9 H 0.9759 0.6883 0.4308
H10 H 0.9575 0.6575 0.5454
H11 H 0.9142 0.6695 0.4462
O4 O 0.77103(8) 0.60460(9) 0.25214(15)
C12 C 0.76849(11) 0.59037(13) 0.3552(2)
H12 H 0.7979 0.5698 0.3854
N4 N 0.72824(10) 0.60180(11) 0.4240(2)
C13 C 0.68224(19) 0.6334(2) 0.3853(4)
H13 H 0.6851 0.6395 0.3024
H14 H 0.6818 0.6684 0.4252
H15 H 0.6486 0.6137 0.4020
C14 C 0.72658(17) 0.58290(18) 0.5423(3)
H16 H 0.7600 0.5629 0.5597
H17 H 0.6952 0.5589 0.5528
H18 H 0.7235 0.6142 0.5940
Cu2H Cu 1.168902(11) 0.426329(13) -0.15871(2)
Cu2D Cu 0.823671(13) 0.418902(11) 0.40871(2)
Cu2L Cu 1.176329(13) 0.581098(11) -0.40871(2)
Cl1H Cl 1.04024(3) 0.54776(4) 0.14420(7)
O1H O 1.10795(7) 0.46218(8) -0.08045(16)
O2H O 1.17433(7) 0.49497(8) -0.24516(15)
N1H N 1.05045(8) 0.53328(8) -0.11123(18)
C1H C 1.09529(9) 0.50616(10) -0.1334(2)
C2H C 1.13291(9) 0.52473(10) -0.2248(2)
N2H N 1.12292(9) 0.56949(8) -0.28321(18)
N2C N 0.81949(8) 0.62708(9) 0.03321(18)
N2K N 1.18051(8) 0.37292(9) -0.03321(18)
C3H C 1.07745(12) 0.59967(10) -0.2547(2)
C4H C 1.06785(17) 0.64929(12) -0.3099(3)
H1H H 1.0931 0.6629 -0.3645
C5H C 1.02190(19) 0.67802(14) -0.2845(3)
H2H H 1.0156 0.7117 -0.3221
C6H C 0.98385(16) 0.65931(14) -0.2048(3)
H3H H 0.9516 0.6794 -0.1908
C7H C 0.99346(12) 0.61143(12) -0.1463(3)
H4H H 0.9685 0.5990 -0.0900
C8H C 1.04053(10) 0.58117(10) -0.1708(2)
O3H O 1.10947(9) 0.39043(10) -0.29533(19)
C9H C 1.06808(13) 0.41301(15) -0.3308(3)
H5H H 1.0595 0.4477 -0.2999
N3H N 1.03478(13) 0.39286(14) -0.4083(3)
C10H C 0.98672(16) 0.4229(2) -0.4470(4)
H6H H 0.9921 0.4348 -0.5264
H7H H 0.9547 0.3993 -0.4427
H8H H 0.9812 0.4547 -0.3977
C11H C 1.0479(2) 0.33990(19) -0.4623(6)
H9H H 1.0241 0.3117 -0.4308
H10H H 1.0425 0.3425 -0.5454
H11H H 1.0858 0.3305 -0.4462
O4H O 1.22897(8) 0.39540(9) -0.25214(15)
C12H C 1.23151(11) 0.40963(13) -0.3552(2)
H12H H 1.2021 0.4302 -0.3854
N4H N 1.27176(10) 0.39820(11) -0.4240(2)
C13H C 1.31776(19) 0.3666(2) -0.3853(4)
H13H H 1.3149 0.3605 -0.3024
H14H H 1.3182 0.3316 -0.4252
H15H H 1.3514 0.3863 -0.4020
C14H C 1.27342(17) 0.41710(18) -0.5423(3)
H16H H 1.2400 0.4371 -0.5597
H17H H 1.3048 0.4411 -0.5528
H18H H 1.2765 0.3858 -0.5940
loop_
_geom_bond_atom_site_label_1
_geom_bond_atom_site_label_2
_geom_bond_site_symmetry_1
_geom_bond_site_symmetry_2
Cu1 Cl1 1_555 1_555
Cu2 O1 1_555 1_555
O1 C1 1_555 1_555
O2 Cu2 1_555 1_555
N1 Cu1 1_555 1_555
C1 N1 1_555 1_555
C2 O2 1_555 1_555
N2 C2 1_555 1_555
C3 N2 1_555 1_555
C4 C3 1_555 1_555
H1 C4 1_555 1_555
C5 C4 1_555 1_555
H2 C5 1_555 1_555
C6 C5 1_555 1_555
H3 C6 1_555 1_555
C7 C6 1_555 1_555
H4 C7 1_555 1_555
C8 N1 1_555 1_555
O3 Cu2 1_555 1_555
C9 O3 1_555 1_555
H5 C9 1_555 1_555
N3 C9 1_555 1_555
C10 N3 1_555 1_555
H6 C10 1_555 1_555
H7 C10 1_555 1_555
H8 C10 1_555 1_555
C11 N3 1_555 1_555
H9 C11 1_555 1_555
H10 C11 1_555 1_555
H11 C11 1_555 1_555
O4 Cu2 1_555 1_555
C12 O4 1_555 1_555
H12 C12 1_555 1_555
N4 C12 1_555 1_555
C13 N4 1_555 1_555
H13 C13 1_555 1_555
H14 C13 1_555 1_555
H15 C13 1_555 1_555
C14 N4 1_555 1_555
H16 C14 1_555 1_555
H17 C14 1_555 1_555
H18 C14 1_555 1_555
Cu2H O1H 1_555 1_555
Cu2D N2 1_555 1_555
Cu2L N2H 1_555 1_555
Cl1H Cu1 1_555 1_555
O1H C1H 1_555 1_555
O2H Cu2H 1_555 1_555
N1H Cu1 1_555 1_555
C1H N1H 1_555 1_555
C2H O2H 1_555 1_555
N2H C2H 1_555 1_555
N2C Cu2 1_555 1_555
N2K Cu2H 1_555 1_555
C3H N2H 1_555 1_555
C4H C3H 1_555 1_555
H1H C4H 1_555 1_555
C5H C4H 1_555 1_555
H2H C5H 1_555 1_555
C6H C5H 1_555 1_555
H3H C6H 1_555 1_555
C7H C6H 1_555 1_555
H4H C7H 1_555 1_555
C8H N1H 1_555 1_555
O3H Cu2H 1_555 1_555
C9H O3H 1_555 1_555
H5H C9H 1_555 1_555
N3H C9H 1_555 1_555
C10H N3H 1_555 1_555
H6H C10H 1_555 1_555
H7H C10H 1_555 1_555
H8H C10H 1_555 1_555
C11H N3H 1_555 1_555
H9H C11H 1_555 1_555
H10H C11H 1_555 1_555
H11H C11H 1_555 1_555
O4H Cu2H 1_555 1_555
C12H O4H 1_555 1_555
H12H C12H 1_555 1_555
N4H C12H 1_555 1_555
C13H N4H 1_555 1_555
H13H C13H 1_555 1_555
H14H C13H 1_555 1_555
H15H C13H 1_555 1_555
C14H N4H 1_555 1_555
H16H C14H 1_555 1_555
H17H C14H 1_555 1_555
H18H C14H 1_555 1_555
C1 C2 1_555 1_555
C3 C8 1_555 1_555
C7 C8 1_555 1_555
C1H C2H 1_555 1_555
C3H C8H 1_555 1_555
C7H C8H 1_555 1_555

#END
