
#######################################################################
#
#                 Cambridge Crystallographic Data Centre
#                                CCDC 
#
#######################################################################
#
# If this CIF has been generated from an entry in the Cambridge 
# Structural Database, then it will include bibliographic, chemical, 
# crystal, experimental, refinement or atomic coordinate data resulting 
# from the CCDC's data processing and validation procedures.
#
#######################################################################

data_VIXDUD
_symmetry_cell_setting           orthorhombic
_symmetry_space_group_name_H-M   'P 21 21 21'
_symmetry_Int_Tables_number      19
_space_group_name_Hall           'P 2ac 2ab'
loop_
_symmetry_equiv_pos_site_id
_symmetry_equiv_pos_as_xyz
1 x,y,z
2 1/2-x,-y,1/2+z
3 1/2+x,1/2-y,-z
4 -x,1/2+y,1/2-z
_cell_length_a                   6.4504(2)
_cell_length_b                   14.9484(4)
_cell_length_c                   19.9662(5)
_cell_angle_alpha                90
_cell_angle_beta                 90
_cell_angle_gamma                90
_cell_volume                     1925.2
loop_
_atom_site_label
_atom_site_type_symbol
_atom_site_fract_x
_atom_site_fract_y
_atom_site_fract_z
C1 C 0.0074(3) 0.36898(12) 0.58824(9)
C2 C -0.1089(3) 0.40185(13) 0.53449(9)
C3 C -0.2950(3) 0.36002(14) 0.51791(11)
H1 H -0.3773 0.3829 0.4824
C4 C -0.3606(3) 0.28547(15) 0.55283(11)
H2 H -0.4873 0.2571 0.5411
C5 C -0.2418(3) 0.25197(15) 0.60501(11)
H3 H -0.2865 0.2002 0.6285
C6 C -0.0592(3) 0.29338(14) 0.62300(11)
H4 H 0.0211 0.2705 0.6590
C7 C 0.4604(3) 0.43152(13) 0.67977(9)
C8 C 0.5577(3) 0.39659(14) 0.74131(9)
C9 C 0.7507(3) 0.44269(14) 0.76593(9)
H5 H 0.8727 0.4123 0.7463
H6 H 0.7589 0.4354 0.8151
C10 C 0.7642(3) 0.54218(14) 0.74953(9)
C11 C 0.7364(3) 0.55358(14) 0.67369(9)
H7 H 0.7286 0.6183 0.6634
H8 H 0.8607 0.5295 0.6509
C12 C 0.5476(3) 0.50848(13) 0.64514(8)
C13 C 0.9791(3) 0.57670(17) 0.76953(10)
H9 H 0.9889 0.6407 0.7594
H10 H 1.0856 0.5442 0.7444
H11 H 1.0004 0.5673 0.8176
C14 C 0.5974(3) 0.59551(15) 0.78685(10)
H12 H 0.6103 0.6591 0.7756
H13 H 0.6154 0.5876 0.8352
H14 H 0.4599 0.5740 0.7736
N1 N 0.1928(3) 0.41264(12) 0.60674(8)
N2 N 0.2902(2) 0.38856(11) 0.66083(7)
O1 O 0.0287(2) 0.56597(9) 0.52903(6)
O2 O 0.1687(2) 0.45576(10) 0.45267(8)
O3 O -0.1813(2) 0.51077(12) 0.43684(7)
O4 O 0.4891(2) 0.33068(11) 0.77051(7)
O5 O 0.4701(2) 0.53556(9) 0.59229(6)
O6 O 0.4425(2) 0.59041(10) 0.43084(7)
O7 O 0.2267(2) 0.78668(10) 0.46564(7)
O8 O 0.2780(3) 0.72188(13) 0.63858(8)
S1 S -0.01725(7) 0.49141(3) 0.48394(2)
Na1 Na 0.35809(13) 0.66623(5) 0.53423(4)
H15 H 0.160(3) 0.728(2) 0.6503(15)
H16 H 0.352(4) 0.7552(18) 0.6599(14)
H17 H 0.249(5) 0.4506(19) 0.5790(15)
H18 H 0.3664 0.5432 0.4345
H19 H 0.5660 0.5677 0.4366
H20 H 0.3030 0.8350 0.4738
H21 H 0.261(4) 0.7725(18) 0.4241(7)
H22 H 0.2842 0.3360 0.6765
O7B O 0.7267(2) 0.71332(10) 0.53436(7)
Na1B Na -0.14191(13) 0.83377(5) 0.46577(4)
O9 O 0.3685(2) 0.71806(11) 0.33970(8)
H23 H 0.2859 0.7105 0.3085
H24 H 0.3642 0.6642 0.3621
loop_
_geom_bond_atom_site_label_1
_geom_bond_atom_site_label_2
_geom_bond_site_symmetry_1
_geom_bond_site_symmetry_2
C1 C2 1_555 1_555
C2 C3 1_555 1_555
C3 H1 1_555 1_555
C4 C3 1_555 1_555
H2 C4 1_555 1_555
C5 C4 1_555 1_555
H3 C5 1_555 1_555
C6 C1 1_555 1_555
H4 C6 1_555 1_555
C7 C8 1_555 1_555
C8 C9 1_555 1_555
C9 H5 1_555 1_555
H6 C9 1_555 1_555
C10 C9 1_555 1_555
C11 C10 1_555 1_555
H7 C11 1_555 1_555
H8 C11 1_555 1_555
C12 C7 1_555 1_555
C13 C10 1_555 1_555
H9 C13 1_555 1_555
H10 C13 1_555 1_555
H11 C13 1_555 1_555
C14 C10 1_555 1_555
H12 C14 1_555 1_555
H13 C14 1_555 1_555
H14 C14 1_555 1_555
N1 C1 1_555 1_555
N2 C7 1_555 1_555
O1 S1 1_555 1_555
O2 S1 1_555 1_555
O3 S1 1_555 1_555
O4 C8 1_555 1_555
O5 C12 1_555 1_555
O6 Na1 1_555 1_555
O7 Na1 1_555 1_555
O8 Na1 1_555 1_555
S1 C2 1_555 1_555
Na1 O1 1_555 1_555
H15 O8 1_555 1_555
H16 O8 1_555 1_555
H17 N1 1_555 1_555
H18 O6 1_555 1_555
H19 O6 1_555 1_555
H20 O7 1_555 1_555
H21 O7 1_555 1_555
H22 N2 1_555 1_555
O9 H23 1_555 1_555
H24 O9 1_555 1_555
O7B Na1 1_555 1_555
Na1B O7 1_555 1_555
C5 C6 1_555 1_555
C11 C12 1_555 1_555
N1 N2 1_555 1_555
O5 Na1 1_555 1_555

#END
