
#######################################################################
#
#                 Cambridge Crystallographic Data Centre
#                                CCDC 
#
#######################################################################
#
# If this CIF has been generated from an entry in the Cambridge 
# Structural Database, then it will include bibliographic, chemical, 
# crystal, experimental, refinement or atomic coordinate data resulting 
# from the CCDC's data processing and validation procedures.
#
#######################################################################

data_VIXHUH
_symmetry_cell_setting           monoclinic
_symmetry_space_group_name_H-M   'P 21/c'
_symmetry_Int_Tables_number      14
_space_group_name_Hall           '-P 2ybc'
loop_
_symmetry_equiv_pos_site_id
_symmetry_equiv_pos_as_xyz
1 x,y,z
2 -x,1/2+y,1/2-z
3 -x,-y,-z
4 x,1/2-y,1/2+z
_cell_length_a                   12.832(6)
_cell_length_b                   10.295(4)
_cell_length_c                   20.040(9)
_cell_angle_alpha                90
_cell_angle_beta                 102.178(9)
_cell_angle_gamma                90
_cell_volume                     2587.82
loop_
_atom_site_label
_atom_site_type_symbol
_atom_site_fract_x
_atom_site_fract_y
_atom_site_fract_z
Cu1 Cu 0.46739(3) 0.57345(3) 0.124343(19)
Mn1 Mn 0.88548(3) 0.68105(4) 0.23339(2)
C1 C 0.4003(2) 1.0863(3) 0.17714(15)
H1 H 0.3666 1.1663 0.1773
C2 C 0.3462(2) 0.9733(3) 0.18216(16)
H2 H 0.2761 0.9785 0.1875
C3 C 0.3917(2) 0.8500(3) 0.17961(15)
C4 C 0.4991(2) 0.8444(3) 0.17226(15)
C5 C 0.5545(2) 0.9602(3) 0.16904(15)
H3 H 0.6253 0.9570 0.1650
C6 C 0.5063(2) 1.0794(3) 0.17178(15)
H4 H 0.5449 1.1553 0.1700
C7 C 0.2311(2) 0.7489(4) 0.2192(2)
H5 H 0.1686 0.7777 0.1874
H6 H 0.2497 0.8114 0.2553
H7 H 0.2170 0.6666 0.2380
C8 C 0.3226(2) 0.7346(3) 0.18277(16)
C9 C 0.2697(2) 0.5128(3) 0.15294(16)
H8 H 0.1968 0.5397 0.1514
H9 H 0.2939 0.4613 0.1938
C10 C 0.2755(2) 0.4332(3) 0.08993(16)
H10 H 0.2459 0.3474 0.0935
H11 H 0.2343 0.4750 0.0495
C11 C 0.3369(2) 0.2490(3) 0.00175(16)
H12 H 0.3379 0.1647 0.0223
H13 H 0.3536 0.2409 -0.0425
H14 H 0.2673 0.2866 -0.0028
C12 C 0.4185(2) 0.3355(3) 0.04624(15)
C13 C 0.5322(2) 0.3161(3) 0.04334(15)
C14 C 0.5560(2) 0.2086(3) 0.00565(16)
H15 H 0.5002 0.1559 -0.0161
C15 C 0.6577(2) 0.1780(3) -0.00046(17)
H16 H 0.6704 0.1059 -0.0255
C16 C 0.7413(2) 0.2568(3) 0.03144(16)
H17 H 0.8103 0.2387 0.0267
C17 C 0.7229(2) 0.3607(3) 0.06977(16)
H18 H 0.7801 0.4118 0.0910
C18 C 0.6193(2) 0.3926(3) 0.07799(15)
C19 C 0.6805(2) 0.5638(3) 0.15904(15)
C20 C 0.6492(2) 0.6997(3) 0.18111(15)
C21 C 0.9305(2) 0.5993(3) 0.36317(16)
C22 C 0.9666(2) 0.5445(3) 0.43354(15)
C23 C 1.0696(2) 0.5004(3) 0.45567(15)
H19 H 1.1165 0.5004 0.4261
C24 C 1.1030(2) 0.4563(3) 0.52177(16)
H20 H 1.1726 0.4268 0.5366
C25 C 0.9513(2) 0.6238(3) 0.11932(15)
C26 C 0.9773(2) 0.5595(3) 0.05804(14)
C27 C 1.0012(2) 0.4277(3) 0.05844(15)
H21 H 1.0028 0.3789 0.0977
C28 C 0.9774(2) 0.6312(3) -0.00077(15)
H22 H 0.9629 0.7197 -0.0013
N1 N 0.33900(17) 0.6283(2) 0.15392(13)
N2 N 0.38845(17) 0.4223(2) 0.08449(13)
N3 N 0.60290(17) 0.5041(2) 0.11491(12)
N4 N 0.54614(17) 0.7236(2) 0.16331(12)
O1 O 0.72242(14) 0.76901(18) 0.21294(10)
O2 O 0.77265(14) 0.52729(18) 0.18421(10)
O3 O 0.85299(16) 0.6756(2) 0.34990(11)
O4 O 0.9820(2) 0.5693(2) 0.31857(12)
O5 O 0.88963(15) 0.71906(19) 0.11249(10)
O6 O 0.99258(14) 0.57620(18) 0.17730(10)
O7 O 0.95976(19) 0.8634(2) 0.24725(11)
H23 H 0.971(3) 0.907(2) 0.2134(12)
H24 H 0.966(3) 0.911(2) 0.2797(12)
C21B C 1.0695(2) 0.4007(3) 0.63683(16)
C22B C 1.0334(2) 0.4555(3) 0.56646(15)
C23B C 0.9304(2) 0.4996(3) 0.54433(15)
H19B H 0.8835 0.4996 0.5739
C24B C 0.8970(2) 0.5437(3) 0.47823(16)
H20B H 0.8274 0.5732 0.4634
O3B O 1.14701(16) 0.3244(2) 0.65010(11)
O4B O 1.0180(2) 0.4307(2) 0.68143(12)
C25B C 1.0487(2) 0.3762(3) -0.11932(15)
C26B C 1.0227(2) 0.4405(3) -0.05804(14)
C27B C 0.9988(2) 0.5723(3) -0.05844(15)
H21B H 0.9972 0.6211 -0.0977
C28B C 1.0226(2) 0.3688(3) 0.00077(15)
H22B H 1.0371 0.2803 0.0013
O5B O 1.11037(15) 0.28094(19) -0.11249(10)
O6B O 1.00742(14) 0.42380(18) -0.17730(10)
Cu1B Cu 1.53261(3) 0.42655(3) -0.124343(19)
Mn1B Mn 1.11452(3) 0.31895(4) -0.23339(2)
C1B C 1.5997(2) -0.0863(3) -0.17714(15)
H1B H 1.6334 -0.1663 -0.1773
C2B C 1.6538(2) 0.0267(3) -0.18216(16)
H2B H 1.7239 0.0215 -0.1875
C3B C 1.6083(2) 0.1500(3) -0.17961(15)
C4B C 1.5009(2) 0.1556(3) -0.17226(15)
C5B C 1.4455(2) 0.0398(3) -0.16904(15)
H3B H 1.3747 0.0430 -0.1650
C6B C 1.4937(2) -0.0794(3) -0.17178(15)
H4B H 1.4551 -0.1553 -0.1700
C7B C 1.7689(2) 0.2511(4) -0.2192(2)
H5B H 1.8314 0.2223 -0.1874
H6B H 1.7503 0.1886 -0.2553
H7B H 1.7830 0.3334 -0.2380
C8B C 1.6774(2) 0.2654(3) -0.18277(16)
C9B C 1.7303(2) 0.4872(3) -0.15294(16)
H8B H 1.8032 0.4603 -0.1514
H9B H 1.7061 0.5387 -0.1938
C10B C 1.7245(2) 0.5668(3) -0.08993(16)
H10B H 1.7541 0.6526 -0.0935
H11B H 1.7657 0.5250 -0.0495
C11B C 1.6631(2) 0.7510(3) -0.00175(16)
H12B H 1.6621 0.8353 -0.0223
H13B H 1.6464 0.7591 0.0425
H14B H 1.7327 0.7134 0.0028
C12B C 1.5815(2) 0.6645(3) -0.04624(15)
C13B C 1.4678(2) 0.6839(3) -0.04334(15)
C14B C 1.4440(2) 0.7914(3) -0.00565(16)
H15B H 1.4998 0.8441 0.0161
C15B C 1.3423(2) 0.8220(3) 0.00046(17)
H16B H 1.3296 0.8941 0.0255
C16B C 1.2587(2) 0.7432(3) -0.03144(16)
H17B H 1.1897 0.7613 -0.0267
C17B C 1.2771(2) 0.6393(3) -0.06977(16)
H18B H 1.2199 0.5882 -0.0910
C18B C 1.3807(2) 0.6074(3) -0.07799(15)
C19B C 1.3195(2) 0.4362(3) -0.15904(15)
C20B C 1.3508(2) 0.3003(3) -0.18111(15)
N1B N 1.66100(17) 0.3717(2) -0.15392(13)
N2B N 1.61155(17) 0.5777(2) -0.08449(13)
N3B N 1.39710(17) 0.4959(2) -0.11491(12)
N4B N 1.45386(17) 0.2764(2) -0.16331(12)
O1B O 1.27758(14) 0.23099(18) -0.21294(10)
O2B O 1.22735(14) 0.47271(18) -0.18421(10)
O7B O 1.04024(19) 0.1366(2) -0.24725(11)
H23B H 1.029(3) 0.093(2) -0.2134(12)
H24B H 1.034(3) 0.089(2) -0.2797(12)
Mn1B_2 Mn 1.11452(3) 0.31895(4) 0.76661(2)
O3B_2 O 1.14701(16) 0.3244(2) -0.34990(11)
O4B_2 O 1.0180(2) 0.4307(2) -0.31857(12)
loop_
_geom_bond_atom_site_label_1
_geom_bond_atom_site_label_2
_geom_bond_site_symmetry_1
_geom_bond_site_symmetry_2
Cu1 N1 1_555 1_555
Mn1 O1 1_555 1_555
C1 H1 1_555 1_555
C2 C1 1_555 1_555
H2 C2 1_555 1_555
C3 C2 1_555 1_555
C4 C3 1_555 1_555
C5 C4 1_555 1_555
H3 C5 1_555 1_555
C6 C1 1_555 1_555
H4 C6 1_555 1_555
C7 H5 1_555 1_555
H6 C7 1_555 1_555
H7 C7 1_555 1_555
C8 C3 1_555 1_555
C9 H8 1_555 1_555
H9 C9 1_555 1_555
C10 C9 1_555 1_555
H10 C10 1_555 1_555
H11 C10 1_555 1_555
C11 H12 1_555 1_555
H13 C11 1_555 1_555
H14 C11 1_555 1_555
C12 C11 1_555 1_555
C13 C12 1_555 1_555
C14 C13 1_555 1_555
H15 C14 1_555 1_555
C15 C14 1_555 1_555
H16 C15 1_555 1_555
C16 C15 1_555 1_555
H17 C16 1_555 1_555
C17 C16 1_555 1_555
H18 C17 1_555 1_555
C18 C13 1_555 1_555
C19 C20 1_555 1_555
C20 N4 1_555 1_555
C21 C22 1_555 1_555
C22 C23 1_555 1_555
C23 H19 1_555 1_555
C24 C23 1_555 1_555
H20 C24 1_555 1_555
C25 C26 1_555 1_555
C26 C27 1_555 1_555
C27 H21 1_555 1_555
C28 C26 1_555 1_555
H22 C28 1_555 1_555
N1 C8 1_555 1_555
N2 Cu1 1_555 1_555
N3 Cu1 1_555 1_555
N4 Cu1 1_555 1_555
O1 C20 1_555 1_555
O2 Mn1 1_555 1_555
O3 Mn1 1_555 1_555
O4 Mn1 1_555 1_555
O5 Mn1 1_555 1_555
O6 Mn1 1_555 1_555
O7 Mn1 1_555 1_555
H23 O7 1_555 1_555
H24 O7 1_555 1_555
C21B C22B 1_555 1_555
C22B C24 1_555 1_555
C23B C22B 1_555 1_555
H19B C23B 1_555 1_555
C24B C22 1_555 1_555
H20B C24B 1_555 1_555
O3B C21B 1_555 1_555
O4B C21B 1_555 1_555
C25B C26B 1_555 1_555
C26B C27B 1_555 1_555
C27B C28 1_555 1_555
H21B C27B 1_555 1_555
C28B C27 1_555 1_555
H22B C28B 1_555 1_555
O5B C25B 1_555 1_555
O6B C25B 1_555 1_555
Cu1B N1B 1_555 1_555
Mn1B O5B 1_555 1_555
C1B H1B 1_555 1_555
C2B C1B 1_555 1_555
H2B C2B 1_555 1_555
C3B C2B 1_555 1_555
C4B C3B 1_555 1_555
C5B C4B 1_555 1_555
H3B C5B 1_555 1_555
C6B C1B 1_555 1_555
H4B C6B 1_555 1_555
C7B H5B 1_555 1_555
H6B C7B 1_555 1_555
H7B C7B 1_555 1_555
C8B C3B 1_555 1_555
C9B H8B 1_555 1_555
H9B C9B 1_555 1_555
C10B C9B 1_555 1_555
H10B C10B 1_555 1_555
H11B C10B 1_555 1_555
C11B H12B 1_555 1_555
H13B C11B 1_555 1_555
H14B C11B 1_555 1_555
C12B C11B 1_555 1_555
C13B C12B 1_555 1_555
C14B C13B 1_555 1_555
H15B C14B 1_555 1_555
C15B C14B 1_555 1_555
H16B C15B 1_555 1_555
C16B C15B 1_555 1_555
H17B C16B 1_555 1_555
C17B C16B 1_555 1_555
H18B C17B 1_555 1_555
C18B C13B 1_555 1_555
C19B C20B 1_555 1_555
C20B N4B 1_555 1_555
N1B C8B 1_555 1_555
N2B Cu1B 1_555 1_555
N3B Cu1B 1_555 1_555
N4B Cu1B 1_555 1_555
O1B Mn1B 1_555 1_555
O2B Mn1B 1_555 1_555
O7B Mn1B 1_555 1_555
H23B O7B 1_555 1_555
H24B O7B 1_555 1_555
Mn1B_2 O3B 1_555 1_555
O3B_2 Mn1B 1_555 1_555
O4B_2 Mn1B 1_555 1_555
C4 N4 1_555 1_555
C5 C6 1_555 1_555
C7 C8 1_555 1_555
C9 N1 1_555 1_555
C10 N2 1_555 1_555
C12 N2 1_555 1_555
C17 C18 1_555 1_555
C18 N3 1_555 1_555
C19 N3 1_555 1_555
C19 O2 1_555 1_555
C21 O3 1_555 1_555
C21 O4 1_555 1_555
C25 O5 1_555 1_555
C25 O6 1_555 1_555
C23B C24B 1_555 1_555
O4B Mn1B_2 1_555 1_555
C26B C28B 1_555 1_555
O6B Mn1B 1_555 1_555
C4B N4B 1_555 1_555
C5B C6B 1_555 1_555
C7B C8B 1_555 1_555
C9B N1B 1_555 1_555
C10B N2B 1_555 1_555
C12B N2B 1_555 1_555
C17B C18B 1_555 1_555
C18B N3B 1_555 1_555
C19B N3B 1_555 1_555
C19B O2B 1_555 1_555
C20B O1B 1_555 1_555

#END
