
#######################################################################
#
#                 Cambridge Crystallographic Data Centre
#                                CCDC 
#
#######################################################################
#
# If this CIF has been generated from an entry in the Cambridge 
# Structural Database, then it will include bibliographic, chemical, 
# crystal, experimental, refinement or atomic coordinate data resulting 
# from the CCDC's data processing and validation procedures.
#
#######################################################################

data_VIXRIE
_symmetry_cell_setting           monoclinic
_symmetry_space_group_name_H-M   'P 21/c'
_symmetry_Int_Tables_number      14
_space_group_name_Hall           '-P 2ybc'
loop_
_symmetry_equiv_pos_site_id
_symmetry_equiv_pos_as_xyz
1 x,y,z
2 -x,1/2+y,1/2-z
3 -x,-y,-z
4 x,1/2-y,1/2+z
_cell_length_a                   23.664(5)
_cell_length_b                   21.403(4)
_cell_length_c                   10.324(2)
_cell_angle_alpha                90
_cell_angle_beta                 92.02(3)
_cell_angle_gamma                90
_cell_volume                     5225.66
loop_
_atom_site_label
_atom_site_type_symbol
_atom_site_fract_x
_atom_site_fract_y
_atom_site_fract_z
Mn1 Mn 0.236590(15) 0.741165(16) 0.74020(3)
Mn2 Mn 0.261780(15) 0.661869(16) 0.49737(3)
Mn3 Mn 0.239049(15) 0.498895(16) 0.48090(3)
Mn4 Mn 0.229912(15) 0.336510(16) 0.44319(3)
Mn5 Mn 0.267565(15) 0.265212(16) 0.19595(3)
O1 O 0.30855(7) 0.75437(7) 0.61508(16)
O2 O 0.29477(7) 0.74580(7) 0.40394(15)
C1 C 0.31576(9) 0.77459(11) 0.5019(2)
C2 C 0.34938(9) 0.83231(11) 0.4821(2)
C3 C 0.36696(10) 0.84745(12) 0.3587(2)
H1 H 0.3590 0.8201 0.2879
C4 C 0.39613(11) 0.90268(13) 0.3397(3)
H2 H 0.4081 0.9134 0.2557
C5 C 0.40778(11) 0.94217(13) 0.4436(3)
H3 H 0.4275 0.9802 0.4303
C6 C 0.39100(12) 0.92679(12) 0.5663(3)
H4 H 0.3995 0.9540 0.6371
C7 C 0.36173(10) 0.87184(12) 0.5863(2)
H5 H 0.3501 0.8612 0.6707
O3 O 0.18804(6) 0.72640(7) 0.55363(15)
O4 O 0.17280(7) 0.77865(8) 0.36878(16)
C8 C 0.15935(10) 0.76380(11) 0.4812(2)
C9 C 0.10592(10) 0.79147(11) 0.5294(2)
C10 C 0.07564(11) 0.83379(13) 0.4509(3)
H6 H 0.0891 0.8446 0.3683
C11 C 0.02610(12) 0.86004(15) 0.4933(3)
H7 H 0.0058 0.8892 0.4401
C12 C 0.00620(12) 0.84384(16) 0.6128(3)
H8 H -0.0279 0.8618 0.6415
C13 C 0.03567(12) 0.80166(15) 0.6907(3)
H9 H 0.0217 0.7905 0.7727
C14 C 0.08569(10) 0.77563(13) 0.6494(2)
H10 H 0.1061 0.7469 0.7035
O5 O 0.34189(7) 0.62579(8) 0.47791(19)
O6 O 0.32558(7) 0.52357(8) 0.49036(19)
C15 C 0.35606(10) 0.56977(12) 0.4654(2)
C16 C 0.41369(10) 0.55723(12) 0.4156(2)
C17 C 0.42907(12) 0.49659(13) 0.3822(3)
H11 H 0.4035 0.4630 0.3942
C18 C 0.48108(13) 0.48538(16) 0.3318(3)
H12 H 0.4912 0.4440 0.3086
C19 C 0.51830(13) 0.53319(18) 0.3150(3)
H13 H 0.5543 0.5248 0.2808
C20 C 0.50395(12) 0.59394(16) 0.3474(3)
H14 H 0.5299 0.6271 0.3354
C21 C 0.45125(11) 0.60588(13) 0.3976(3)
H15 H 0.4410 0.6474 0.4195
O7 O 0.15325(7) 0.47192(8) 0.45951(18)
O8 O 0.14749(7) 0.36797(8) 0.44860(19)
C22 C 0.12644(10) 0.42170(12) 0.4420(2)
C23 C 0.06421(10) 0.42637(12) 0.4099(2)
C24 C 0.04098(11) 0.48170(13) 0.3619(3)
H16 H 0.0647 0.5169 0.3497
C25 C -0.01631(12) 0.48623(14) 0.3315(3)
H17 H -0.0315 0.5240 0.2966
C26 C -0.05101(12) 0.43621(15) 0.3519(3)
H18 H -0.0904 0.4395 0.3324
C27 C -0.02859(13) 0.38088(15) 0.4009(4)
H19 H -0.0529 0.3465 0.4164
C28 C 0.02893(12) 0.37533(13) 0.4275(3)
H20 H 0.0443 0.3368 0.4578
O9 O 0.33098(7) 0.21848(8) 0.56264(16)
O10 O 0.30975(6) 0.28227(8) 0.39589(15)
C29 C 0.34380(10) 0.24809(11) 0.4624(2)
C30 C 0.40360(10) 0.24413(12) 0.4213(2)
C31 C 0.42504(11) 0.28726(14) 0.3353(3)
H21 H 0.4008 0.3181 0.2971
C32 C 0.48138(12) 0.28561(17) 0.3050(3)
H22 H 0.4959 0.3162 0.2483
C33 C 0.51652(12) 0.24032(17) 0.3560(3)
H23 H 0.5551 0.2392 0.3338
C34 C 0.49588(13) 0.19663(17) 0.4389(3)
H24 H 0.5201 0.1649 0.4735
C35 C 0.43931(12) 0.19855(15) 0.4728(3)
H25 H 0.4253 0.1685 0.5313
O11 O 0.20432(7) 0.24848(7) 0.53933(15)
O12 O 0.19680(7) 0.24759(7) 0.32581(16)
C36 C 0.18930(9) 0.22109(11) 0.4336(2)
C37 C 0.16191(10) 0.15868(11) 0.4364(2)
C38 C 0.13993(10) 0.13605(12) 0.5513(2)
H26 H 0.1417 0.1608 0.6278
C39 C 0.11568(11) 0.07747(12) 0.5524(3)
H27 H 0.1000 0.0620 0.6296
C40 C 0.11405(10) 0.04094(12) 0.4412(3)
H28 H 0.0978 0.0004 0.4431
C41 C 0.13587(11) 0.06327(12) 0.3280(3)
H29 H 0.1351 0.0379 0.2524
C42 C 0.15891(10) 0.12258(11) 0.3247(2)
H30 H 0.1727 0.1386 0.2460
O13 O 0.24854(7) 0.64144(7) 0.69529(15)
O14 O 0.22535(7) 0.54201(8) 0.66564(16)
C43 C 0.22871(12) 0.57957(12) 0.8799(2)
H31 H 0.2374 0.6193 0.9235
H32 H 0.2551 0.5474 0.9120
H33 H 0.1899 0.5670 0.8978
C44 C 0.23436(9) 0.58728(11) 0.7372(2)
O15 O 0.25575(8) 0.46252(8) 0.28987(17)
O16 O 0.24971(7) 0.36171(7) 0.24845(15)
C45 C 0.28241(12) 0.42855(12) 0.0827(3)
H34 H 0.2847 0.3885 0.0371
H35 H 0.3200 0.4477 0.0890
H36 H 0.2563 0.4564 0.0349
C46 C 0.26144(10) 0.41776(11) 0.2163(2)
O17 O 0.21792(8) 0.83791(8) 0.73389(18)
O18 O 0.21760(7) 0.90735(8) 0.89153(16)
C47 C 0.16589(12) 0.93132(12) 0.6951(3)
H37 H 0.1579 0.9697 0.7431
H38 H 0.1851 0.9419 0.6155
H39 H 0.1303 0.9098 0.6728
C48 C 0.20274(10) 0.88971(11) 0.7768(2)
O19 O 0.29091(8) 0.33066(8) 0.70560(17)
O20 O 0.26454(7) 0.40533(7) 0.56826(15)
C49 C 0.32320(12) 0.43367(13) 0.7504(3)
H40 H 0.3189 0.4749 0.7100
H41 H 0.3633 0.4223 0.7556
H42 H 0.3084 0.4349 0.8379
C50 C 0.29125(10) 0.38645(11) 0.6711(2)
Mn1C Mn 0.236590(15) 0.758835(16) 0.24020(3)
Mn2C Mn 0.261780(15) 0.838131(16) 0.99737(3)
Mn3C Mn 0.239049(15) 1.001105(16) 0.98090(3)
Mn5C Mn 0.267565(15) 0.234788(16) 0.69595(3)
O2C O 0.29477(7) 0.75420(7) 0.90394(15)
O4C O 0.17280(7) 0.72135(8) 0.86878(16)
O9C O 0.33098(7) 0.28152(8) 0.06264(16)
O11C O 0.20432(7) 0.25152(7) 0.03933(15)
O18C O 0.21760(7) 0.59265(8) 0.39153(16)
O19C O 0.29091(8) 0.16934(8) 0.20560(17)
loop_
_geom_bond_atom_site_label_1
_geom_bond_atom_site_label_2
_geom_bond_site_symmetry_1
_geom_bond_site_symmetry_2
Mn1 O1 1_555 1_555
Mn2 O2 1_555 1_555
Mn3 O6 1_555 1_555
Mn4 O8 1_555 1_555
Mn5 O10 1_555 1_555
O1 C1 1_555 1_555
O2 C1 1_555 1_555
C1 C2 1_555 1_555
C2 C3 1_555 1_555
C3 H1 1_555 1_555
C4 C3 1_555 1_555
H2 C4 1_555 1_555
C5 C4 1_555 1_555
H3 C5 1_555 1_555
C6 C5 1_555 1_555
H4 C6 1_555 1_555
C7 C2 1_555 1_555
H5 C7 1_555 1_555
O3 Mn1 1_555 1_555
O4 C8 1_555 1_555
C8 O3 1_555 1_555
C9 C8 1_555 1_555
C10 C9 1_555 1_555
H6 C10 1_555 1_555
C11 C10 1_555 1_555
H7 C11 1_555 1_555
C12 C11 1_555 1_555
H8 C12 1_555 1_555
C13 C12 1_555 1_555
H9 C13 1_555 1_555
C14 C9 1_555 1_555
H10 C14 1_555 1_555
O5 Mn2 1_555 1_555
O6 C15 1_555 1_555
C15 O5 1_555 1_555
C16 C15 1_555 1_555
C17 C16 1_555 1_555
H11 C17 1_555 1_555
C18 C17 1_555 1_555
H12 C18 1_555 1_555
C19 C18 1_555 1_555
H13 C19 1_555 1_555
C20 C19 1_555 1_555
H14 C20 1_555 1_555
C21 C16 1_555 1_555
H15 C21 1_555 1_555
O7 Mn3 1_555 1_555
O8 C22 1_555 1_555
C22 O7 1_555 1_555
C23 C22 1_555 1_555
C24 C23 1_555 1_555
H16 C24 1_555 1_555
C25 C24 1_555 1_555
H17 C25 1_555 1_555
C26 C25 1_555 1_555
H18 C26 1_555 1_555
C27 C26 1_555 1_555
H19 C27 1_555 1_555
C28 C23 1_555 1_555
H20 C28 1_555 1_555
O9 C29 1_555 1_555
O10 Mn4 1_555 1_555
C29 O10 1_555 1_555
C30 C29 1_555 1_555
C31 C30 1_555 1_555
H21 C31 1_555 1_555
C32 C31 1_555 1_555
H22 C32 1_555 1_555
C33 C32 1_555 1_555
H23 C33 1_555 1_555
C34 C33 1_555 1_555
H24 C34 1_555 1_555
C35 C30 1_555 1_555
H25 C35 1_555 1_555
O11 Mn4 1_555 1_555
O12 Mn4 1_555 1_555
C36 O11 1_555 1_555
C37 C36 1_555 1_555
C38 C37 1_555 1_555
H26 C38 1_555 1_555
C39 C38 1_555 1_555
H27 C39 1_555 1_555
C40 C39 1_555 1_555
H28 C40 1_555 1_555
C41 C40 1_555 1_555
H29 C41 1_555 1_555
C42 C37 1_555 1_555
H30 C42 1_555 1_555
O13 Mn1 1_555 1_555
O14 Mn3 1_555 1_555
C43 H31 1_555 1_555
H32 C43 1_555 1_555
H33 C43 1_555 1_555
C44 O13 1_555 1_555
O15 Mn3 1_555 1_555
O16 Mn4 1_555 1_555
C45 H34 1_555 1_555
H35 C45 1_555 1_555
H36 C45 1_555 1_555
C46 O15 1_555 1_555
O17 Mn1 1_555 1_555
O18 C48 1_555 1_555
C47 H37 1_555 1_555
H38 C47 1_555 1_555
H39 C47 1_555 1_555
C48 O17 1_555 1_555
O19 C50 1_555 1_555
O20 Mn3 1_555 1_555
C49 H40 1_555 1_555
H41 C49 1_555 1_555
H42 C49 1_555 1_555
C50 O20 1_555 1_555
Mn1C O2 1_555 1_555
Mn2C O18 1_555 1_555
Mn3C O18 1_555 1_555
Mn5C O9 1_555 1_555
O2C Mn1 1_555 1_555
O4C Mn1 1_555 1_555
O9C Mn5 1_555 1_555
O11C Mn5 1_555 1_555
O18C Mn2 1_555 1_555
O19C Mn5 1_555 1_555
Mn2 O3 1_555 1_555
Mn2 O13 1_555 1_555
Mn3 O18C 1_555 1_555
Mn4 O20 1_555 1_555
Mn5 O12 1_555 1_555
Mn5 O16 1_555 1_555
C6 C7 1_555 1_555
O4 Mn1C 1_555 1_555
C13 C14 1_555 1_555
C20 C21 1_555 1_555
C27 C28 1_555 1_555
C34 C35 1_555 1_555
O11 Mn5C 1_555 1_555
O12 C36 1_555 1_555
C41 C42 1_555 1_555
O14 C44 1_555 1_555
C43 C44 1_555 1_555
O16 C46 1_555 1_555
C45 C46 1_555 1_555
C47 C48 1_555 1_555
O19 Mn5C 1_555 1_555
C49 C50 1_555 1_555
Mn2C O2C 1_555 1_555

#END
