
#######################################################################
#
#                 Cambridge Crystallographic Data Centre
#                                CCDC 
#
#######################################################################
#
# If this CIF has been generated from an entry in the Cambridge 
# Structural Database, then it will include bibliographic, chemical, 
# crystal, experimental, refinement or atomic coordinate data resulting 
# from the CCDC's data processing and validation procedures.
#
#######################################################################

data_VIXVEF
_symmetry_cell_setting           monoclinic
_symmetry_space_group_name_H-M   'P 21/c'
_symmetry_Int_Tables_number      14
_space_group_name_Hall           '-P 2ybc'
loop_
_symmetry_equiv_pos_site_id
_symmetry_equiv_pos_as_xyz
1 x,y,z
2 -x,1/2+y,1/2-z
3 -x,-y,-z
4 x,1/2-y,1/2+z
_cell_length_a                   16.486(3)
_cell_length_b                   14.244(3)
_cell_length_c                   16.667(3)
_cell_angle_alpha                90
_cell_angle_beta                 99.74(3)
_cell_angle_gamma                90
_cell_volume                     3857.44
loop_
_atom_site_label
_atom_site_type_symbol
_atom_site_fract_x
_atom_site_fract_y
_atom_site_fract_z
Zn1 Zn 0.49145(4) 0.48164(4) 0.22341(4)
Zn2 Zn 0.00099(4) -0.24939(4) 0.24458(4)
O1 O 0.4498(2) 0.5546(3) 0.1238(2)
O2 O 0.5780(3) 0.6028(3) 0.1380(3)
O3 O 0.4910(3) 0.9340(3) -0.1870(3)
O4 O 0.5613(4) 1.0389(3) -0.1092(3)
O5 O -0.0064(3) -0.3495(3) 0.3243(3)
O6 O 0.0527(4) -0.2390(3) 0.4059(3)
O7 O -0.0024(3) -0.3156(3) 0.1419(3)
O8 O -0.1393(3) -0.3175(3) 0.1177(3)
N1 N 0.3958(3) 0.3860(3) 0.2149(3)
N2 N 0.0968(3) -0.1601(3) 0.2351(3)
N3 N 0.5818(3) 0.3855(3) 0.2181(3)
N4 N 0.9127(3) -0.1471(3) 0.2427(3)
C1 C 0.5052(4) 0.6084(4) 0.1041(4)
C2 C 0.4797(4) 0.6767(4) 0.0372(4)
H1 H 0.4278 0.6697 0.0057
C3 C 0.5260(4) 0.7465(4) 0.0199(4)
H2 H 0.5772 0.7526 0.0529
C4 C 0.5063(4) 0.8147(4) -0.0443(4)
H3 H 0.4591 0.8047 -0.0827
C5 C 0.5505(4) 0.8904(4) -0.0525(4)
H4 H 0.5965 0.9016 -0.0131
C6 C 0.5319(4) 0.9589(5) -0.1205(4)
C7 C 0.0236(4) -0.3192(5) 0.3946(4)
C8 C 0.0226(5) -0.3833(5) 0.4652(4)
H5 H 0.0413 -0.3576 0.5162
C9 C -0.0007(4) -0.4694(4) 0.4648(4)
H6 H -0.0206 -0.4955 0.4142
C10 C -0.0701(5) -0.3450(4) 0.1061(4)
C11 C -0.0679(4) -0.4245(4) 0.0454(4)
H7 H -0.1178 -0.4485 0.0191
C12 C -0.0002(4) -0.4611(4) 0.0279(4)
H8 H 0.0500 -0.4360 0.0525
C13 C 0.3678(4) 0.3505(4) 0.2787(4)
H9 H 0.3885 0.3742 0.3301
C14 C 0.3095(4) 0.2800(5) 0.2726(4)
H10 H 0.2905 0.2593 0.3190
C15 C 0.2794(4) 0.2402(4) 0.1980(4)
C16 C 0.3069(4) 0.2774(4) 0.1307(4)
H11 H 0.2866 0.2550 0.0788
C17 C 0.3656(4) 0.3491(4) 0.1420(4)
H12 H 0.3847 0.3724 0.0965
C18 C 0.2183(4) 0.1619(4) 0.1899(5)
H13 H 0.1832 0.1655 0.1370
H14 H 0.1837 0.1686 0.2312
C19 C 0.2617(4) 0.0648(4) 0.1993(4)
H15 H 0.2858 0.0522 0.1511
H16 H 0.3061 0.0667 0.2456
C20 C 0.2039(3) -0.0139(4) 0.2110(4)
C21 C 0.1638(4) -0.0159(4) 0.2775(4)
H17 H 0.1728 0.0321 0.3159
C22 C 0.1105(4) -0.0880(4) 0.2877(4)
H18 H 0.0834 -0.0866 0.3323
C23 C 0.1361(3) -0.1591(4) 0.1718(4)
H19 H 0.1279 -0.2091 0.1354
C24 C 0.1886(4) -0.0879(4) 0.1571(4)
H20 H 0.2136 -0.0899 0.1111
C25 C 0.6316(3) 0.3839(4) 0.1632(4)
H21 H 0.6284 0.4329 0.1260
C26 C 0.6877(4) 0.3131(4) 0.1585(4)
H22 H 0.7201 0.3146 0.1179
C27 C 0.6961(4) 0.2394(4) 0.2142(4)
C28 C 0.6447(4) 0.2424(4) 0.2722(4)
H23 H 0.6480 0.1954 0.3115
C29 C 0.5890(4) 0.3141(4) 0.2721(4)
H24 H 0.5546 0.3134 0.3109
C30 C 0.7583(4) 0.1615(4) 0.2134(5)
H25 H 0.7777 0.1632 0.1616
H26 H 0.8051 0.1739 0.2557
C31 C 0.7293(5) 0.0711(5) 0.2249(7)
H27 H 0.6861 0.0557 0.1797
H28 H 0.7053 0.0703 0.2742
C32 C 0.7967(5) -0.0041(5) 0.2315(6)
C33 C 0.8309(4) -0.0429(5) 0.3058(5)
H29 H 0.8153 -0.0209 0.3535
C34 C 0.8877(4) -0.1136(4) 0.3089(4)
H30 H 0.9097 -0.1391 0.3593
C35 C 0.8805(4) -0.1091(5) 0.1700(5)
H31 H 0.8973 -0.1318 0.1231
C36 C 0.8238(5) -0.0382(5) 0.1633(6)
H32 H 0.8036 -0.0128 0.1125
O5B O 0.0064(3) -0.6505(3) 0.6757(3)
O6B O -0.0527(4) -0.7610(3) 0.5941(3)
C7B C -0.0236(4) -0.6808(5) 0.6054(4)
C8B C -0.0226(5) -0.6167(5) 0.5348(4)
H5B H -0.0413 -0.6424 0.4838
C9B C 0.0007(4) -0.5306(4) 0.5352(4)
H6B H 0.0206 -0.5045 0.5858
O7B O 0.0024(3) -0.6844(3) -0.1419(3)
O8B O 0.1393(3) -0.6825(3) -0.1177(3)
C10B C 0.0701(5) -0.6550(4) -0.1061(4)
C11B C 0.0679(4) -0.5755(4) -0.0454(4)
H7B H 0.1178 -0.5515 -0.0191
C12B C 0.0002(4) -0.5389(4) -0.0279(4)
H8B H -0.0500 -0.5640 -0.0525
Zn1B Zn -0.49145(4) -1.48164(4) -0.22341(4)
Zn2B Zn -0.00099(4) -0.75061(4) -0.24458(4)
O1B O -0.4498(2) -1.5546(3) -0.1238(2)
O2B O -0.5780(3) -1.6028(3) -0.1380(3)
O3B O -0.4910(3) -1.9340(3) 0.1870(3)
O4B O -0.5613(4) -2.0389(3) 0.1092(3)
N1B N -0.3958(3) -1.3860(3) -0.2149(3)
N2B N -0.0968(3) -0.8399(3) -0.2351(3)
N3B N -0.5818(3) -1.3855(3) -0.2181(3)
N4B N -0.9127(3) -0.8529(3) -0.2427(3)
C1B C -0.5052(4) -1.6084(4) -0.1041(4)
C2B C -0.4797(4) -1.6767(4) -0.0372(4)
H1B H -0.4278 -1.6697 -0.0057
C3B C -0.5260(4) -1.7465(4) -0.0199(4)
H2B H -0.5772 -1.7526 -0.0529
C4B C -0.5063(4) -1.8147(4) 0.0443(4)
H3B H -0.4591 -1.8047 0.0827
C5B C -0.5505(4) -1.8904(4) 0.0525(4)
H4B H -0.5965 -1.9016 0.0131
C6B C -0.5319(4) -1.9589(5) 0.1205(4)
C13B C -0.3678(4) -1.3505(4) -0.2787(4)
H9B H -0.3885 -1.3742 -0.3301
C14B C -0.3095(4) -1.2800(5) -0.2726(4)
H10B H -0.2905 -1.2593 -0.3190
C15B C -0.2794(4) -1.2402(4) -0.1980(4)
C16B C -0.3069(4) -1.2774(4) -0.1307(4)
H11B H -0.2866 -1.2550 -0.0788
C17B C -0.3656(4) -1.3491(4) -0.1420(4)
H12B H -0.3847 -1.3724 -0.0965
C18B C -0.2183(4) -1.1619(4) -0.1899(5)
H13B H -0.1832 -1.1655 -0.1370
H14B H -0.1837 -1.1686 -0.2312
C19B C -0.2617(4) -1.0648(4) -0.1993(4)
H15B H -0.2858 -1.0522 -0.1511
H16B H -0.3061 -1.0667 -0.2456
C20B C -0.2039(3) -0.9861(4) -0.2110(4)
C21B C -0.1638(4) -0.9841(4) -0.2775(4)
H17B H -0.1728 -1.0321 -0.3159
C22B C -0.1105(4) -0.9120(4) -0.2877(4)
H18B H -0.0834 -0.9134 -0.3323
C23B C -0.1361(3) -0.8409(4) -0.1718(4)
H19B H -0.1279 -0.7909 -0.1354
C24B C -0.1886(4) -0.9121(4) -0.1571(4)
H20B H -0.2136 -0.9101 -0.1111
C25B C -0.6316(3) -1.3839(4) -0.1632(4)
H21B H -0.6284 -1.4329 -0.1260
C26B C -0.6877(4) -1.3131(4) -0.1585(4)
H22B H -0.7201 -1.3146 -0.1179
C27B C -0.6961(4) -1.2394(4) -0.2142(4)
C28B C -0.6447(4) -1.2424(4) -0.2722(4)
H23B H -0.6480 -1.1954 -0.3115
C29B C -0.5890(4) -1.3141(4) -0.2721(4)
H24B H -0.5546 -1.3134 -0.3109
C30B C -0.7583(4) -1.1615(4) -0.2134(5)
H25B H -0.7777 -1.1632 -0.1616
H26B H -0.8051 -1.1739 -0.2557
C31B C -0.7293(5) -1.0711(5) -0.2249(7)
H27B H -0.6861 -1.0557 -0.1797
H28B H -0.7053 -1.0703 -0.2742
C32B C -0.7967(5) -0.9959(5) -0.2315(6)
C33B C -0.8309(4) -0.9571(5) -0.3058(5)
H29B H -0.8153 -0.9791 -0.3535
C34B C -0.8877(4) -0.8864(4) -0.3089(4)
H30B H -0.9097 -0.8609 -0.3593
C35B C -0.8805(4) -0.8909(5) -0.1700(5)
H31B H -0.8973 -0.8682 -0.1231
C36B C -0.8238(5) -0.9618(5) -0.1633(6)
H32B H -0.8036 -0.9872 -0.1125
Zn1A Zn -0.49145(4) -2.01836(4) 0.27659(4)
Zn1C Zn 0.49145(4) 1.01836(4) -0.27659(4)
Zn2_2 Zn 1.00099(4) -0.24939(4) 0.24458(4)
Zn2B_2 Zn -1.00099(4) -0.75061(4) -0.24458(4)
Zn2B_3 Zn -0.00099(4) -0.75061(4) 0.75542(4)
O3A O -0.4910(3) -1.5660(3) -0.3130(3)
O3C O 0.4910(3) 0.5660(3) 0.3130(3)
O5B_2 O 0.0064(3) -0.6505(3) -0.3243(3)
N4_2 N -0.0873(3) -0.1471(3) 0.2427(3)
N4B_2 N 0.0873(3) -0.8529(3) -0.2427(3)
O9 O 0.7119(3) 0.6090(4) 0.0514(3)
H33 H 0.677(3) 0.612(5) 0.090(3)
H34 H 0.758(3) 0.644(4) 0.075(4)
O10 O 0.2842(3) 0.5542(4) 0.0375(4)
H35 H 0.334(2) 0.561(5) 0.072(4)
H36 H 0.276(5) 0.499(3) 0.007(4)
O11 O 0.2058(4) 0.7700(4) 0.5159(4)
H37 H 0.205(5) 0.832(2) 0.534(5)
H38 H 0.160(3) 0.779(6) 0.476(4)
O12 O 0.6994(5) 0.4009(6) 0.5076(4)
H39 H 0.654(4) 0.410(7) 0.467(4)
H40 H 0.724(6) 0.344(4) 0.498(6)
loop_
_geom_bond_atom_site_label_1
_geom_bond_atom_site_label_2
_geom_bond_site_symmetry_1
_geom_bond_site_symmetry_2
Zn1 O1 1_555 1_555
Zn2 O5 1_555 1_555
O1 C1 1_555 1_555
O2 C1 1_555 1_555
O3 C6 1_555 1_555
O4 C6 1_555 1_555
O5 C7 1_555 1_555
O6 C7 1_555 1_555
O7 Zn2 1_555 1_555
O8 C10 1_555 1_555
N1 Zn1 1_555 1_555
N2 Zn2 1_555 1_555
N3 Zn1 1_555 1_555
N4 C34 1_555 1_555
C1 C2 1_555 1_555
C2 H1 1_555 1_555
C3 C2 1_555 1_555
H2 C3 1_555 1_555
C4 C3 1_555 1_555
H3 C4 1_555 1_555
C5 C4 1_555 1_555
H4 C5 1_555 1_555
C6 C5 1_555 1_555
C7 C8 1_555 1_555
C8 H5 1_555 1_555
C9 C8 1_555 1_555
H6 C9 1_555 1_555
C10 O7 1_555 1_555
C11 C10 1_555 1_555
H7 C11 1_555 1_555
C12 C11 1_555 1_555
H8 C12 1_555 1_555
C13 N1 1_555 1_555
H9 C13 1_555 1_555
C14 C13 1_555 1_555
H10 C14 1_555 1_555
C15 C14 1_555 1_555
C16 C15 1_555 1_555
H11 C16 1_555 1_555
C17 N1 1_555 1_555
H12 C17 1_555 1_555
C18 C15 1_555 1_555
H13 C18 1_555 1_555
H14 C18 1_555 1_555
C19 C18 1_555 1_555
H15 C19 1_555 1_555
H16 C19 1_555 1_555
C20 C19 1_555 1_555
C21 C20 1_555 1_555
H17 C21 1_555 1_555
C22 N2 1_555 1_555
H18 C22 1_555 1_555
C23 N2 1_555 1_555
H19 C23 1_555 1_555
C24 C20 1_555 1_555
H20 C24 1_555 1_555
C25 N3 1_555 1_555
H21 C25 1_555 1_555
C26 C25 1_555 1_555
H22 C26 1_555 1_555
C27 C26 1_555 1_555
C28 C27 1_555 1_555
H23 C28 1_555 1_555
C29 N3 1_555 1_555
H24 C29 1_555 1_555
C30 C27 1_555 1_555
H25 C30 1_555 1_555
H26 C30 1_555 1_555
C31 C30 1_555 1_555
H27 C31 1_555 1_555
H28 C31 1_555 1_555
C32 C31 1_555 1_555
C33 C32 1_555 1_555
H29 C33 1_555 1_555
C34 C33 1_555 1_555
H30 C34 1_555 1_555
C35 N4 1_555 1_555
H31 C35 1_555 1_555
C36 C32 1_555 1_555
H32 C36 1_555 1_555
O9 H33 1_555 1_555
H34 O9 1_555 1_555
O10 H35 1_555 1_555
H36 O10 1_555 1_555
O11 H37 1_555 1_555
H38 O11 1_555 1_555
O12 H39 1_555 1_555
H40 O12 1_555 1_555
O5B C7B 1_555 1_555
O6B C7B 1_555 1_555
C7B C8B 1_555 1_555
C8B H5B 1_555 1_555
C9B C9 1_555 1_555
H6B C9B 1_555 1_555
O7B C10B 1_555 1_555
O8B C10B 1_555 1_555
C10B C11B 1_555 1_555
C11B H7B 1_555 1_555
C12B C12 1_555 1_555
H8B C12B 1_555 1_555
Zn1B O1B 1_555 1_555
Zn2B O7B 1_555 1_555
O1B C1B 1_555 1_555
O2B C1B 1_555 1_555
O3B C6B 1_555 1_555
O4B C6B 1_555 1_555
N1B Zn1B 1_555 1_555
N2B Zn2B 1_555 1_555
N3B Zn1B 1_555 1_555
N4B C34B 1_555 1_555
C1B C2B 1_555 1_555
C2B H1B 1_555 1_555
C3B C2B 1_555 1_555
H2B C3B 1_555 1_555
C4B C3B 1_555 1_555
H3B C4B 1_555 1_555
C5B C4B 1_555 1_555
H4B C5B 1_555 1_555
C6B C5B 1_555 1_555
C13B N1B 1_555 1_555
H9B C13B 1_555 1_555
C14B C13B 1_555 1_555
H10B C14B 1_555 1_555
C15B C14B 1_555 1_555
C16B C15B 1_555 1_555
H11B C16B 1_555 1_555
C17B N1B 1_555 1_555
H12B C17B 1_555 1_555
C18B C15B 1_555 1_555
H13B C18B 1_555 1_555
H14B C18B 1_555 1_555
C19B C18B 1_555 1_555
H15B C19B 1_555 1_555
H16B C19B 1_555 1_555
C20B C19B 1_555 1_555
C21B C20B 1_555 1_555
H17B C21B 1_555 1_555
C22B N2B 1_555 1_555
H18B C22B 1_555 1_555
C23B N2B 1_555 1_555
H19B C23B 1_555 1_555
C24B C20B 1_555 1_555
H20B C24B 1_555 1_555
C25B N3B 1_555 1_555
H21B C25B 1_555 1_555
C26B C25B 1_555 1_555
H22B C26B 1_555 1_555
C27B C26B 1_555 1_555
C28B C27B 1_555 1_555
H23B C28B 1_555 1_555
C29B N3B 1_555 1_555
H24B C29B 1_555 1_555
C30B C27B 1_555 1_555
H25B C30B 1_555 1_555
H26B C30B 1_555 1_555
C31B C30B 1_555 1_555
H27B C31B 1_555 1_555
H28B C31B 1_555 1_555
C32B C31B 1_555 1_555
C33B C32B 1_555 1_555
H29B C33B 1_555 1_555
C34B C33B 1_555 1_555
H30B C34B 1_555 1_555
C35B N4B 1_555 1_555
H31B C35B 1_555 1_555
C36B C32B 1_555 1_555
H32B C36B 1_555 1_555
Zn1A O3B 1_555 1_555
Zn1C O3 1_555 1_555
Zn2_2 N4 1_555 1_555
Zn2B_2 N4B 1_555 1_555
Zn2B_3 O5B 1_555 1_555
O3A Zn1B 1_555 1_555
O3C Zn1 1_555 1_555
O5B_2 Zn2B 1_555 1_555
N4_2 Zn2 1_555 1_555
N4B_2 Zn2B 1_555 1_555
C16 C17 1_555 1_555
C21 C22 1_555 1_555
C23 C24 1_555 1_555
C28 C29 1_555 1_555
C35 C36 1_555 1_555
C8B C9B 1_555 1_555
C11B C12B 1_555 1_555
C16B C17B 1_555 1_555
C21B C22B 1_555 1_555
C23B C24B 1_555 1_555
C28B C29B 1_555 1_555
C35B C36B 1_555 1_555

#END
