
#######################################################################
#
#                 Cambridge Crystallographic Data Centre
#                                CCDC 
#
#######################################################################
#
# If this CIF has been generated from an entry in the Cambridge 
# Structural Database, then it will include bibliographic, chemical, 
# crystal, experimental, refinement or atomic coordinate data resulting 
# from the CCDC's data processing and validation procedures.
#
#######################################################################

data_VIYDUE
_symmetry_cell_setting           orthorhombic
_symmetry_space_group_name_H-M   'P c a 21'
_symmetry_Int_Tables_number      29
_space_group_name_Hall           'P 2c -2ac'
loop_
_symmetry_equiv_pos_site_id
_symmetry_equiv_pos_as_xyz
1 x,y,z
2 -x,-y,1/2+z
3 1/2-x,y,1/2+z
4 1/2+x,-y,z
_cell_length_a                   8.9931(18)
_cell_length_b                   16.489(3)
_cell_length_c                   24.697(5)
_cell_angle_alpha                90
_cell_angle_beta                 90
_cell_angle_gamma                90
_cell_volume                     3662.25
loop_
_atom_site_label
_atom_site_type_symbol
_atom_site_fract_x
_atom_site_fract_y
_atom_site_fract_z
Ag1 Ag -0.25549(8) -0.53381(5) -0.55000(4)
N1 N -0.0919(9) -0.5195(5) -0.4882(3)
N2 N -0.0910(9) -0.5128(4) -0.1138(3)
C1 C -0.0564(11) -0.4448(6) -0.4721(3)
H1 H -0.0982 -0.4010 -0.4903
C2 C -0.0254(13) -0.5802(5) -0.4624(3)
H2 H -0.0443 -0.6328 -0.4742
C3 C 0.0380(12) -0.4292(5) -0.4301(4)
H3 H 0.0591 -0.3760 -0.4204
C4 C 0.0693(10) -0.5700(5) -0.4195(5)
H4 H 0.1111 -0.6147 -0.4022
C5 C 0.1018(12) -0.4920(6) -0.4022(3)
C6 C 0.1971(13) -0.4779(6) -0.3533(4)
H5 H 0.2375 -0.4234 -0.3545
H6 H 0.2795 -0.5158 -0.3534
C7 C 0.1064(10) -0.4888(5) -0.3018(4)
H7 H 0.0246 -0.4505 -0.3022
H8 H 0.0642 -0.5430 -0.3017
C8 C 0.1954(12) -0.4769(6) -0.2501(4)
H9 H 0.2771 -0.5153 -0.2495
H10 H 0.2372 -0.4227 -0.2499
C9 C 0.1022(10) -0.4884(5) -0.2008(3)
C10 C 0.0567(11) -0.4249(7) -0.1687(3)
H11 H 0.0892 -0.3725 -0.1762
C11 C 0.0473(11) -0.5639(6) -0.1886(4)
H12 H 0.0740 -0.6083 -0.2097
C12 C -0.0361(11) -0.4387(6) -0.1259(3)
H13 H -0.0627 -0.3950 -0.1041
C13 C -0.0472(11) -0.5743(6) -0.1452(4)
H14 H -0.0819 -0.6262 -0.1375
O1 O -0.2674(7) -0.6942(4) -0.5440(3)
Ag1B Ag -0.24451(8) -0.53381(5) -0.05000(4)
N2B N -0.4090(9) -0.5128(4) -0.6138(3)
Ag2 Ag -0.47549(9) -1.00745(5) -0.42059(3)
N3 N -0.3151(10) -0.9981(5) -0.3580(3)
N4 N -0.3664(9) -0.9949(5) 0.0165(3)
C14 C -0.2878(11) -0.9290(6) -0.3332(4)
H15 H -0.3311 -0.8818 -0.3465
C15 C -0.2448(11) -1.0642(7) -0.3405(4)
H16 H -0.2593 -1.1129 -0.3588
C16 C -0.1972(11) -0.9240(5) -0.2881(3)
H17 H -0.1824 -0.8742 -0.2713
C17 C -0.1525(10) -1.0629(5) -0.2969(4)
H18 H -0.1045 -1.1104 -0.2865
C18 C -0.1283(11) -0.9924(5) -0.2677(3)
C19 C -0.0389(13) -0.9887(6) -0.2181(4)
H19 H 0.0204 -0.9395 -0.2182
H20 H 0.0283 -1.0347 -0.2169
C20 C -0.1394(12) -0.9896(6) -0.1682(3)
H21 H -0.1997 -0.9408 -0.1682
H22 H -0.2061 -1.0357 -0.1706
C21 C -0.0541(12) -0.9944(6) -0.1149(4)
H23 H 0.0063 -1.0431 -0.1146
H24 H 0.0120 -0.9481 -0.1120
C22 C -0.1571(12) -0.9954(6) -0.0674(4)
C23 C -0.2053(11) -1.0665(6) -0.0431(4)
H25 H -0.1680 -1.1162 -0.0546
C24 C -0.2153(10) -0.9241(6) -0.0483(6)
H26 H -0.1866 -0.8748 -0.0634
C25 C -0.3060(12) -1.0635(7) -0.0029(4)
H27 H -0.3358 -1.1123 0.0126
C26 C -0.3169(12) -0.9261(6) -0.0066(4)
H28 H -0.3533 -0.8770 0.0064
O2 O -0.5170(8) -1.1886(5) -0.3917(3)
Ag2A Ag -0.52451(9) -0.99255(5) 0.07941(3)
N4A N -0.6336(9) -1.0051(5) -0.4835(3)
O3 O 0.4929(8) -0.7595(4) -0.3738(3)
O4 O 0.5847(8) -0.7359(4) -0.2927(3)
O5 O -0.0820(8) -0.7683(4) -0.1854(2)
O6 O -0.0064(7) -0.7640(4) -0.1012(2)
C27 C 0.4836(11) -0.7372(5) -0.3256(3)
C28 C 0.3262(10) -0.7122(5) -0.3081(4)
H29 H 0.3092 -0.6564 -0.3189
H30 H 0.2545 -0.7458 -0.3271
C29 C 0.2998(11) -0.7198(5) -0.2485(4)
H31 H 0.3538 -0.6864 -0.2254
C30 C 0.2046(11) -0.7708(6) -0.2271(4)
H32 H 0.1510 -0.8041 -0.2504
C31 C 0.1769(12) -0.7790(7) -0.1679(3)
H33 H 0.2345 -0.7380 -0.1491
H34 H 0.2130 -0.8316 -0.1562
C32 C 0.0126(10) -0.7707(5) -0.1507(3)
O7 O -0.1093(8) -0.7208(4) -0.2997(3)
O8 O -0.3821(8) -0.7927(5) -0.1849(3)
O9 O -0.2706(8) -0.7557(6) -0.4419(3)
O10 O 0.2440(8) -0.7581(5) -0.4362(3)
O11 O 0.2306(8) -0.7075(5) -0.0403(3)
O12 O -0.4992(8) -0.7588(4) -0.0838(3)
loop_
_geom_bond_atom_site_label_1
_geom_bond_atom_site_label_2
_geom_bond_site_symmetry_1
_geom_bond_site_symmetry_2
Ag1 N1 1_555 1_555
N1 C1 1_555 1_555
N2 C12 1_555 1_555
C1 H1 1_555 1_555
C2 N1 1_555 1_555
H2 C2 1_555 1_555
C3 C1 1_555 1_555
H3 C3 1_555 1_555
C4 C2 1_555 1_555
H4 C4 1_555 1_555
C5 C3 1_555 1_555
C6 C5 1_555 1_555
H5 C6 1_555 1_555
H6 C6 1_555 1_555
C7 C6 1_555 1_555
H7 C7 1_555 1_555
H8 C7 1_555 1_555
C8 C7 1_555 1_555
H9 C8 1_555 1_555
H10 C8 1_555 1_555
C9 C8 1_555 1_555
C10 C9 1_555 1_555
H11 C10 1_555 1_555
C11 C9 1_555 1_555
H12 C11 1_555 1_555
C12 C10 1_555 1_555
H13 C12 1_555 1_555
C13 N2 1_555 1_555
H14 C13 1_555 1_555
O1 Ag1 1_555 1_555
Ag2 N3 1_555 1_555
N3 C14 1_555 1_555
N4 C25 1_555 1_555
C14 H15 1_555 1_555
C15 N3 1_555 1_555
H16 C15 1_555 1_555
C16 C14 1_555 1_555
H17 C16 1_555 1_555
C17 C15 1_555 1_555
H18 C17 1_555 1_555
C18 C16 1_555 1_555
C19 C18 1_555 1_555
H19 C19 1_555 1_555
H20 C19 1_555 1_555
C20 C19 1_555 1_555
H21 C20 1_555 1_555
H22 C20 1_555 1_555
C21 C20 1_555 1_555
H23 C21 1_555 1_555
H24 C21 1_555 1_555
C22 C21 1_555 1_555
C23 C22 1_555 1_555
H25 C23 1_555 1_555
C24 C22 1_555 1_555
H26 C24 1_555 1_555
C25 C23 1_555 1_555
H27 C25 1_555 1_555
C26 N4 1_555 1_555
H28 C26 1_555 1_555
O2 Ag2 1_555 1_555
O3 C27 1_555 1_555
O4 C27 1_555 1_555
O5 C32 1_555 1_555
O6 C32 1_555 1_555
C27 C28 1_555 1_555
C28 H29 1_555 1_555
H30 C28 1_555 1_555
C29 C28 1_555 1_555
H31 C29 1_555 1_555
C30 C29 1_555 1_555
H32 C30 1_555 1_555
C31 C30 1_555 1_555
H33 C31 1_555 1_555
H34 C31 1_555 1_555
C32 C31 1_555 1_555
Ag1B N2 1_555 1_555
N2B Ag1 1_555 1_555
Ag2A N4 1_555 1_555
N4A Ag2 1_555 1_555
C4 C5 1_555 1_555
C11 C13 1_555 1_555
C17 C18 1_555 1_555
C24 C26 1_555 1_555

#END
