
#######################################################################
#
#                 Cambridge Crystallographic Data Centre
#                                CCDC 
#
#######################################################################
#
# If this CIF has been generated from an entry in the Cambridge 
# Structural Database, then it will include bibliographic, chemical, 
# crystal, experimental, refinement or atomic coordinate data resulting 
# from the CCDC's data processing and validation procedures.
#
#######################################################################

data_VIYGIV
_symmetry_cell_setting           triclinic
_symmetry_space_group_name_H-M   'P -1'
_symmetry_Int_Tables_number      2
_space_group_name_Hall           '-P 1'
loop_
_symmetry_equiv_pos_site_id
_symmetry_equiv_pos_as_xyz
1 x,y,z
2 -x,-y,-z
_cell_length_a                   8.9951(4)
_cell_length_b                   9.8963(5)
_cell_length_c                   13.0791(5)
_cell_angle_alpha                68.114(4)
_cell_angle_beta                 73.809(4)
_cell_angle_gamma                89.251(4)
_cell_volume                     1032.11
loop_
_atom_site_label
_atom_site_type_symbol
_atom_site_fract_x
_atom_site_fract_y
_atom_site_fract_z
Cd1 Cd -0.5000 1.0000 0.5000
Cd2 Cd -0.35940(2) 0.66117(2) 0.630011(16)
C1 C -0.1857(4) 0.5221(3) 0.8304(2)
C2 C 0.0696(4) 0.5444(3) 0.8164(2)
C3 C -0.0037(4) 0.6070(3) 0.6537(2)
C4 C -0.5258(4) 0.2070(3) 0.7740(2)
C5 C -0.4728(4) 0.0958(3) 0.7376(2)
H1 H -0.3949 0.1170 0.6683
C6 C -0.5365(4) -0.0476(3) 0.8051(2)
C7 C -0.6497(4) -0.0784(3) 0.9094(2)
H2 H -0.6926 -0.1746 0.9537
C8 C -0.7011(4) 0.0307(3) 0.9499(2)
C9 C -0.6378(4) 0.1740(3) 0.8797(2)
H3 H -0.6711 0.2493 0.9042
C10 C -0.9106(5) 0.1020(4) 1.0866(3)
H4 H -0.8879 0.1984 1.0337
C11 C -0.8255(4) -0.0038(3) 1.0614(2)
C12 C -0.8638(5) -0.1449(4) 1.1426(3)
H5 H -0.8073 -0.2190 1.1291
C13 C -0.9831(5) -0.1787(4) 1.2429(3)
H6 H -1.0080 -0.2757 1.2945
C14 C -1.0660(4) -0.0730(3) 1.2683(2)
C15 C -1.0290(5) 0.0690(4) 1.1886(3)
H7 H -1.0841 0.1431 1.2035
C16 C -0.4625(4) 0.3628(3) 0.6998(2)
C17 C -0.4904(4) -0.1665(3) 0.7621(2)
C18 C -1.1992(4) -0.1090(3) 1.3759(2)
O1 O -0.5877(2) 0.7362(2) 0.55083(16)
H8 H -0.6807 0.6929 0.6015
H9 H -0.5922 0.6983 0.4988
O2 O -0.3721(3) 0.3961(2) 0.60006(17)
O3 O -0.5051(3) 0.4568(2) 0.74347(16)
O4 O -0.5280(3) -0.2959(2) 0.82613(18)
O5 O -0.4085(3) -0.1269(2) 0.65499(16)
O6 O -1.2220(3) -0.2394(2) 1.44809(16)
O7 O -1.2778(3) -0.0077(2) 1.38636(17)
N1 N -0.1568(3) 0.5804(3) 0.71355(19)
N2 N -0.0775(3) 0.5059(3) 0.8850(2)
N3 N 0.1144(3) 0.5929(3) 0.7002(2)
N4 N -0.3319(3) 0.4733(3) 0.8963(2)
H10 H -0.3524 0.4338 0.9701
H11 H -0.4056 0.4813 0.8650
N5 N 0.1790(3) 0.5333(4) 0.8681(2)
H12 H 0.1539 0.5025 0.9421
H13 H 0.2751 0.5567 0.8278
N6 N 0.0355(3) 0.6486(3) 0.5392(2)
H14 H 0.1320 0.6647 0.4993
H15 H -0.0358 0.6592 0.5053
Cd2A Cd -1.64060(2) 0.33883(2) 1.369989(16)
C1A C -1.8143(4) 0.4779(3) 1.1696(2)
C2A C -2.0696(4) 0.4556(3) 1.1836(2)
C3A C -1.9963(4) 0.3930(3) 1.3463(2)
C4A C -1.4742(4) 0.7930(3) 1.2260(2)
C5A C -1.5272(4) 0.9042(3) 1.2624(2)
H1A H -1.6051 0.8830 1.3317
C6A C -1.4635(4) 1.0476(3) 1.1949(2)
C7A C -1.3503(4) 1.0784(3) 1.0906(2)
H2A H -1.3074 1.1746 1.0463
C8A C -1.2989(4) 0.9693(3) 1.0501(2)
C9A C -1.3622(4) 0.8260(3) 1.1203(2)
H3A H -1.3289 0.7507 1.0958
C10A C -1.0894(5) 0.8980(4) 0.9134(3)
H4A H -1.1121 0.8016 0.9663
C11A C -1.1745(4) 1.0038(3) 0.9386(2)
C12A C -1.1362(5) 1.1449(4) 0.8574(3)
H5A H -1.1927 1.2190 0.8709
C13A C -1.0169(5) 1.1787(4) 0.7571(3)
H6A H -0.9920 1.2757 0.7055
C14A C -0.9340(4) 1.0730(3) 0.7317(2)
C15A C -0.9710(5) 0.9310(4) 0.8114(3)
H7A H -0.9159 0.8569 0.7965
C16A C -1.5375(4) 0.6372(3) 1.3002(2)
C17A C -1.5096(4) 1.1665(3) 1.2379(2)
C18A C -0.8008(4) 1.1090(3) 0.6241(2)
O1A O -1.4123(2) 0.2638(2) 1.44917(16)
H8A H -1.3193 0.3071 1.3985
H9A H -1.4078 0.3017 1.5012
O2A O -1.6279(3) 0.6039(2) 1.39994(17)
O3A O -1.4949(3) 0.5432(2) 1.25653(16)
O4A O -1.4720(3) 1.2959(2) 1.17387(18)
O5A O -1.5915(3) 1.1269(2) 1.34501(16)
O6A O -0.7780(3) 1.2394(2) 0.55191(16)
O7A O -0.7222(3) 1.0077(2) 0.61364(17)
N1A N -1.8432(3) 0.4196(3) 1.28645(19)
N2A N -1.9225(3) 0.4941(3) 1.1150(2)
N3A N -2.1144(3) 0.4071(3) 1.2998(2)
N4A N -1.6681(3) 0.5267(3) 1.1037(2)
H10A H -1.6476 0.5662 1.0299
H11A H -1.5944 0.5187 1.1350
N5A N -2.1790(3) 0.4667(4) 1.1319(2)
H12A H -2.1539 0.4975 1.0579
H13A H -2.2751 0.4433 1.1722
N6A N -2.0355(3) 0.3514(3) 1.4608(2)
H14A H -2.1320 0.3353 1.5007
H15A H -1.9642 0.3408 1.4947
Cd1_2 Cd -1.5000 0.0000 1.5000
Cd1_3 Cd -1.5000 1.0000 1.5000
Cd1_4 Cd -0.5000 0.0000 0.5000
Cd2_2 Cd -1.35940(2) -0.33883(2) 1.630011(16)
Cd2_3 Cd -0.35940(2) -0.33883(2) 0.630011(16)
Cd2A_2 Cd -1.64060(2) 1.33883(2) 1.369989(16)
Cd2A_3 Cd -0.64060(2) 1.33883(2) 0.369989(16)
O1A_2 O -0.4123(2) 1.2638(2) 0.44917(16)
O4_2 O -0.5280(3) 0.7041(2) 0.82613(18)
O4A_2 O -1.4720(3) 0.2959(2) 1.17387(18)
O5_2 O -0.4085(3) 0.8731(2) 0.65499(16)
O5A_2 O -1.5915(3) 0.1269(2) 1.34501(16)
O5A_3 O -0.5915(3) 1.1269(2) 0.34501(16)
O6_2 O -0.2220(3) 0.7606(2) 0.44809(16)
O6A_2 O -1.7780(3) 0.2394(2) 1.55191(16)
O7_2 O -0.2778(3) 0.9923(2) 0.38636(17)
loop_
_geom_bond_atom_site_label_1
_geom_bond_atom_site_label_2
_geom_bond_site_symmetry_1
_geom_bond_site_symmetry_2
Cd1 O1 1_555 1_555
Cd2 O1 1_555 1_555
C1 N1 1_555 1_555
C2 N2 1_555 1_555
C3 N1 1_555 1_555
C4 C5 1_555 1_555
C5 H1 1_555 1_555
C6 C5 1_555 1_555
C7 C6 1_555 1_555
H2 C7 1_555 1_555
C8 C7 1_555 1_555
C9 C4 1_555 1_555
H3 C9 1_555 1_555
C10 H4 1_555 1_555
C11 C8 1_555 1_555
C12 C11 1_555 1_555
H5 C12 1_555 1_555
C13 C12 1_555 1_555
H6 C13 1_555 1_555
C14 C13 1_555 1_555
C15 C10 1_555 1_555
H7 C15 1_555 1_555
C16 C4 1_555 1_555
C17 C6 1_555 1_555
C18 C14 1_555 1_555
O1 H8 1_555 1_555
H9 O1 1_555 1_555
O2 Cd2 1_555 1_555
O3 Cd2 1_555 1_555
O4 C17 1_555 1_555
O5 C17 1_555 1_555
O6 C18 1_555 1_555
O7 C18 1_555 1_555
N1 Cd2 1_555 1_555
N2 C1 1_555 1_555
N3 C2 1_555 1_555
N4 C1 1_555 1_555
H10 N4 1_555 1_555
H11 N4 1_555 1_555
N5 C2 1_555 1_555
H12 N5 1_555 1_555
H13 N5 1_555 1_555
N6 C3 1_555 1_555
H14 N6 1_555 1_555
H15 N6 1_555 1_555
Cd2A O1A 1_555 1_555
C1A N1A 1_555 1_555
C2A N2A 1_555 1_555
C3A N1A 1_555 1_555
C4A C5A 1_555 1_555
C5A H1A 1_555 1_555
C6A C5A 1_555 1_555
C7A C6A 1_555 1_555
H2A C7A 1_555 1_555
C8A C7A 1_555 1_555
C9A C4A 1_555 1_555
H3A C9A 1_555 1_555
C10A H4A 1_555 1_555
C11A C8A 1_555 1_555
C12A C11A 1_555 1_555
H5A C12A 1_555 1_555
C13A C12A 1_555 1_555
H6A C13A 1_555 1_555
C14A C13A 1_555 1_555
C15A C10A 1_555 1_555
H7A C15A 1_555 1_555
C16A C4A 1_555 1_555
C17A C6A 1_555 1_555
C18A C14A 1_555 1_555
O1A H8A 1_555 1_555
H9A O1A 1_555 1_555
O2A Cd2A 1_555 1_555
O3A Cd2A 1_555 1_555
O4A C17A 1_555 1_555
O5A C17A 1_555 1_555
O6A C18A 1_555 1_555
O7A Cd1 1_555 1_555
N1A Cd2A 1_555 1_555
N2A C1A 1_555 1_555
N3A C2A 1_555 1_555
N4A C1A 1_555 1_555
H10A N4A 1_555 1_555
H11A N4A 1_555 1_555
N5A C2A 1_555 1_555
H12A N5A 1_555 1_555
H13A N5A 1_555 1_555
N6A C3A 1_555 1_555
H14A N6A 1_555 1_555
H15A N6A 1_555 1_555
Cd1_2 O7 1_555 1_555
Cd1_3 O5A 1_555 1_555
Cd1_4 O5 1_555 1_555
Cd2_2 O6 1_555 1_555
Cd2_3 O4 1_555 1_555
Cd2A_2 O4A 1_555 1_555
Cd2A_3 O6A 1_555 1_555
O1A_2 Cd1 1_555 1_555
O4_2 Cd2 1_555 1_555
O4A_2 Cd2A 1_555 1_555
O5_2 Cd1 1_555 1_555
O5A_2 Cd2A 1_555 1_555
O5A_3 Cd1 1_555 1_555
O6_2 Cd2 1_555 1_555
O6A_2 Cd2A 1_555 1_555
O7_2 Cd1 1_555 1_555
Cd2 O5_2 1_555 1_555
C3 N3 1_555 1_555
C8 C9 1_555 1_555
C10 C11 1_555 1_555
C14 C15 1_555 1_555
C16 O2 1_555 1_555
C16 O3 1_555 1_555
O5 Cd2_3 1_555 1_555
C3A N3A 1_555 1_555
C8A C9A 1_555 1_555
C10A C11A 1_555 1_555
C14A C15A 1_555 1_555
C16A O2A 1_555 1_555
C16A O3A 1_555 1_555
C18A O7A 1_555 1_555
O1A Cd1_2 1_555 1_555
O5A Cd2A_2 1_555 1_555
Cd1_2 O5A_2 1_555 1_555
Cd2A_3 O1A_2 1_555 1_555
Cd2A_3 O5A_3 1_555 1_555

#END
