
#######################################################################
#
#                 Cambridge Crystallographic Data Centre
#                                CCDC 
#
#######################################################################
#
# If this CIF has been generated from an entry in the Cambridge 
# Structural Database, then it will include bibliographic, chemical, 
# crystal, experimental, refinement or atomic coordinate data resulting 
# from the CCDC's data processing and validation procedures.
#
#######################################################################

data_VIYGER
_symmetry_cell_setting           monoclinic
_symmetry_space_group_name_H-M   'C 2/c'
_symmetry_Int_Tables_number      15
_space_group_name_Hall           '-C 2yn'
loop_
_symmetry_equiv_pos_site_id
_symmetry_equiv_pos_as_xyz
1 x,y,z
2 -x,y,1/2-z
3 1/2+x,1/2+y,z
4 1/2-x,1/2+y,1/2-z
5 -x,-y,-z
6 x,-y,1/2+z
7 1/2-x,1/2-y,-z
8 1/2+x,1/2-y,1/2+z
_cell_length_a                   27.937(8)
_cell_length_b                   10.472(3)
_cell_length_c                   14.340(5)
_cell_angle_alpha                90
_cell_angle_beta                 90.467(7)
_cell_angle_gamma                90
_cell_volume                     4195.12
loop_
_atom_site_label
_atom_site_type_symbol
_atom_site_fract_x
_atom_site_fract_y
_atom_site_fract_z
O1 O 0.11075(11) -0.2081(3) 0.4876(2)
C1 C 0.15270(17) -0.2352(4) 0.4592(3)
Zn1 Zn 0.103368(17) 0.29123(5) 0.10731(4)
O2 O 0.14469(11) 0.1989(3) 0.1931(2)
N1 N 0.10737(13) 0.4860(4) 0.1223(2)
C2 C 0.15644(15) -0.0053(4) 0.2581(3)
C3 C 0.23298(15) -0.1108(4) 0.2691(3)
N2 N 0.27921(12) -0.1307(3) 0.2402(2)
H1 H 0.2995 -0.1632 0.2788
C4 C 0.16960(15) -0.1623(4) 0.3769(3)
C5 C 0.20272(14) -0.0216(4) 0.2271(3)
H2 H 0.2138 0.0274 0.1777
O3 O 0.17818(14) -0.3128(4) 0.4993(3)
C6 C 0.06421(18) 0.5410(5) 0.1252(3)
N3 N 0.03116(14) 0.3333(5) 0.1221(3)
C7 C 0.21579(15) -0.1793(4) 0.3459(3)
H3 H 0.2358 -0.2370 0.3764
C8 C 0.13925(15) -0.0764(4) 0.3315(3)
H4 H 0.1077 -0.0671 0.3506
C9 C 0.12476(17) 0.0938(4) 0.2133(3)
O4 O 0.08257(12) 0.0717(3) 0.1964(3)
C10 C 0.02382(18) 0.4622(6) 0.1246(3)
C11 C 0.1457(2) 0.5598(5) 0.1222(3)
H5 H 0.1756 0.5211 0.1197
C12 C 0.29486(16) -0.0992(5) 0.1475(3)
H6 H 0.3292 -0.1115 0.1444
H7 H 0.2885 -0.0095 0.1362
C13 C 0.27148(15) -0.1763(4) 0.0712(3)
C14 C 0.27520(18) -0.3078(5) 0.0696(3)
H8 H 0.2924 -0.3486 0.1167
C15 C 0.24581(17) -0.1201(5) -0.0007(3)
H9 H 0.2427 -0.0317 -0.0024
C16 C 0.0593(3) 0.6762(6) 0.1284(4)
C17 C 0.0120(4) 0.7257(10) 0.1291(6)
H10 H 0.0078 0.8138 0.1298
C18 C 0.1436(3) 0.6909(5) 0.1254(4)
H11 H 0.1715 0.7394 0.1253
C19 C -0.0258(3) 0.6524(10) 0.1289(5)
H12 H -0.0559 0.6907 0.1305
C20 C -0.0527(4) 0.2977(9) 0.1207(6)
H13 H -0.0784 0.2413 0.1173
C21 C -0.0232(2) 0.5141(9) 0.1263(3)
C22 C 0.1017(3) 0.7462(7) 0.1285(5)
H14 H 0.1001 0.8349 0.1310
C23 C -0.0049(2) 0.2531(8) 0.1208(5)
H15 H 0.0010 0.1657 0.1200
C24 C -0.0595(2) 0.4213(13) 0.1256(4)
H16 H -0.0909 0.4500 0.1288
O1F O 0.38925(11) -0.2919(3) -0.4876(2)
C1F C 0.34730(17) -0.2648(4) -0.4592(3)
O2F O 0.35531(11) -0.6989(3) -0.1931(2)
C2F C 0.34356(15) -0.4947(4) -0.2581(3)
C3F C 0.26702(15) -0.3892(4) -0.2691(3)
N2F N 0.22079(12) -0.3693(3) -0.2402(2)
H1F H 0.2005 -0.3368 -0.2788
C4F C 0.33040(15) -0.3377(4) -0.3769(3)
C5F C 0.29728(14) -0.4784(4) -0.2271(3)
H2F H 0.2862 -0.5274 -0.1777
O3F O 0.32182(14) -0.1872(4) -0.4993(3)
C7F C 0.28421(15) -0.3207(4) -0.3459(3)
H3F H 0.2642 -0.2630 -0.3764
C8F C 0.36075(15) -0.4236(4) -0.3315(3)
H4F H 0.3923 -0.4329 -0.3506
C9F C 0.37524(17) -0.5938(4) -0.2133(3)
O4F O 0.41743(12) -0.5717(3) -0.1964(3)
C12F C 0.20514(16) -0.4008(5) -0.1475(3)
H6F H 0.1708 -0.3885 -0.1444
H7F H 0.2115 -0.4905 -0.1362
C13F C 0.22852(15) -0.3237(4) -0.0712(3)
C14F C 0.22480(18) -0.1922(5) -0.0696(3)
H8F H 0.2076 -0.1514 -0.1167
C15F C 0.25419(17) -0.3799(5) 0.0007(3)
H9F H 0.2573 -0.4683 0.0024
Zn1F Zn 0.396632(17) -0.79123(5) -0.10731(4)
N1F N 0.39263(13) -0.9860(4) -0.1223(2)
C6F C 0.43579(18) -1.0410(5) -0.1252(3)
N3F N 0.46884(14) -0.8333(5) -0.1221(3)
C10F C 0.47618(18) -0.9622(6) -0.1246(3)
C11F C 0.3543(2) -1.0598(5) -0.1222(3)
H5F H 0.3244 -1.0211 -0.1197
C16F C 0.4407(3) -1.1762(6) -0.1284(4)
C17F C 0.4880(4) -1.2257(10) -0.1291(6)
H10F H 0.4922 -1.3138 -0.1298
C18F C 0.3564(3) -1.1909(5) -0.1254(4)
H11F H 0.3285 -1.2394 -0.1253
C19F C 0.5258(3) -1.1524(10) -0.1289(5)
H12F H 0.5559 -1.1907 -0.1305
C20F C 0.5527(4) -0.7977(9) -0.1207(6)
H13F H 0.5784 -0.7413 -0.1173
C21F C 0.5232(2) -1.0141(9) -0.1263(3)
C22F C 0.3983(3) -1.2462(7) -0.1285(5)
H14F H 0.3999 -1.3349 -0.1310
C23F C 0.5049(2) -0.7531(8) -0.1208(5)
H15F H 0.4990 -0.6657 -0.1200
C24F C 0.5595(2) -0.9213(13) -0.1256(4)
H16F H 0.5909 -0.9500 -0.1288
O1C O 0.38925(11) -0.7081(3) 0.0124(2)
O1E O 0.11075(11) 0.2081(3) -0.0124(2)
Zn1C Zn 0.396632(17) -0.20877(5) -0.60731(4)
Zn1E Zn 0.103368(17) -0.29123(5) 0.60731(4)
O5 O 0.0471(3) 0.9910(8) 0.9843(7)
O6 O 0.0130(4) 0.9774(9) 0.2892(9)
loop_
_geom_bond_atom_site_label_1
_geom_bond_atom_site_label_2
_geom_bond_site_symmetry_1
_geom_bond_site_symmetry_2
O1 C1 1_555 1_555
C1 C4 1_555 1_555
Zn1 O2 1_555 1_555
O2 C9 1_555 1_555
N1 Zn1 1_555 1_555
C2 C5 1_555 1_555
C3 N2 1_555 1_555
N2 H1 1_555 1_555
C4 C7 1_555 1_555
C5 C3 1_555 1_555
H2 C5 1_555 1_555
O3 C1 1_555 1_555
C6 N1 1_555 1_555
N3 Zn1 1_555 1_555
C7 C3 1_555 1_555
H3 C7 1_555 1_555
C8 C2 1_555 1_555
H4 C8 1_555 1_555
C9 C2 1_555 1_555
O4 C9 1_555 1_555
C10 C6 1_555 1_555
C11 N1 1_555 1_555
H5 C11 1_555 1_555
C12 N2 1_555 1_555
H6 C12 1_555 1_555
H7 C12 1_555 1_555
C13 C12 1_555 1_555
C14 C13 1_555 1_555
H8 C14 1_555 1_555
C15 C13 1_555 1_555
H9 C15 1_555 1_555
C16 C6 1_555 1_555
C17 C16 1_555 1_555
H10 C17 1_555 1_555
C18 C11 1_555 1_555
H11 C18 1_555 1_555
C19 C17 1_555 1_555
H12 C19 1_555 1_555
C20 H13 1_555 1_555
C21 C10 1_555 1_555
C22 C16 1_555 1_555
H14 C22 1_555 1_555
C23 N3 1_555 1_555
H15 C23 1_555 1_555
C24 C20 1_555 1_555
H16 C24 1_555 1_555
O1F C1F 1_555 1_555
C1F C4F 1_555 1_555
O2F C9F 1_555 1_555
C2F C5F 1_555 1_555
C3F N2F 1_555 1_555
N2F H1F 1_555 1_555
C4F C7F 1_555 1_555
C5F C3F 1_555 1_555
H2F C5F 1_555 1_555
O3F C1F 1_555 1_555
C7F C3F 1_555 1_555
H3F C7F 1_555 1_555
C8F C2F 1_555 1_555
H4F C8F 1_555 1_555
C9F C2F 1_555 1_555
O4F C9F 1_555 1_555
C12F N2F 1_555 1_555
H6F C12F 1_555 1_555
H7F C12F 1_555 1_555
C13F C12F 1_555 1_555
C14F C15 1_555 1_555
H8F C14F 1_555 1_555
C15F C14 1_555 1_555
H9F C15F 1_555 1_555
Zn1F O2F 1_555 1_555
N1F Zn1F 1_555 1_555
C6F N1F 1_555 1_555
N3F Zn1F 1_555 1_555
C10F C6F 1_555 1_555
C11F N1F 1_555 1_555
H5F C11F 1_555 1_555
C16F C6F 1_555 1_555
C17F C16F 1_555 1_555
H10F C17F 1_555 1_555
C18F C11F 1_555 1_555
H11F C18F 1_555 1_555
C19F C17F 1_555 1_555
H12F C19F 1_555 1_555
C20F H13F 1_555 1_555
C21F C10F 1_555 1_555
C22F C16F 1_555 1_555
H14F C22F 1_555 1_555
C23F N3F 1_555 1_555
H15F C23F 1_555 1_555
C24F C20F 1_555 1_555
H16F C24F 1_555 1_555
O1C Zn1F 1_555 1_555
O1E Zn1 1_555 1_555
Zn1C O1F 1_555 1_555
Zn1E O1 1_555 1_555
C4 C8 1_555 1_555
N3 C10 1_555 1_555
C18 C22 1_555 1_555
C19 C21 1_555 1_555
C20 C23 1_555 1_555
C21 C24 1_555 1_555
C4F C8F 1_555 1_555
C13F C14F 1_555 1_555
C13F C15F 1_555 1_555
N3F C10F 1_555 1_555
C18F C22F 1_555 1_555
C19F C21F 1_555 1_555
C20F C23F 1_555 1_555
C21F C24F 1_555 1_555

#END
