
#######################################################################
#
#                 Cambridge Crystallographic Data Centre
#                                CCDC 
#
#######################################################################
#
# If this CIF has been generated from an entry in the Cambridge 
# Structural Database, then it will include bibliographic, chemical, 
# crystal, experimental, refinement or atomic coordinate data resulting 
# from the CCDC's data processing and validation procedures.
#
#######################################################################

data_VIYGOB
_symmetry_cell_setting           monoclinic
_symmetry_space_group_name_H-M   'P 21/a'
_symmetry_Int_Tables_number      14
_space_group_name_Hall           '-P 2yab'
loop_
_symmetry_equiv_pos_site_id
_symmetry_equiv_pos_as_xyz
1 x,y,z
2 1/2-x,1/2+y,-z
3 -x,-y,-z
4 1/2+x,1/2-y,z
_cell_length_a                   7.4973(10)
_cell_length_b                   11.5538(16)
_cell_length_c                   10.2569(13)
_cell_angle_alpha                90
_cell_angle_beta                 94.503(12)
_cell_angle_gamma                90
_cell_volume                     885.734
loop_
_atom_site_label
_atom_site_type_symbol
_atom_site_fract_x
_atom_site_fract_y
_atom_site_fract_z
Cd1 Cd 1.0000 0.0000 1.0000
N1 N 1.0338(6) 0.1598(5) 0.8646(5)
N2 N 1.0307(6) 0.3475(5) 0.8159(5)
N3 N 0.9542(6) 0.5467(5) 0.7731(5)
N4 N 1.0375(7) 0.6467(5) 0.8109(5)
N5 N 1.1829(6) 0.6245(5) 0.8832(5)
N6 N 1.2048(6) 0.5137(5) 0.9007(5)
O1 O 1.0923(7) -0.1089(5) 0.8274(5)
C1 C 0.9577(8) 0.1751(6) 0.7346(6)
C2 C 0.8970(7) 0.0948(6) 0.6426(6)
H1 H 0.9019 0.0159 0.6607
C3 C 0.8287(8) 0.1354(6) 0.5227(6)
H2 H 0.7854 0.0830 0.4591
C4 C 0.8231(8) 0.2543(6) 0.4946(6)
H3 H 0.7754 0.2792 0.4129
C5 C 0.8861(7) 0.3337(6) 0.5845(6)
H4 H 0.8838 0.4125 0.5658
C6 C 0.9535(8) 0.2926(5) 0.7048(6)
C7 C 1.0779(7) 0.2646(5) 0.9056(6)
H5 H 1.1354 0.2801 0.9874
C8 C 1.0638(8) 0.4677(5) 0.8315(6)
H6 H 1.197(4) -0.083(5) 0.819(6)
H7 H 1.081(10) -0.172(3) 0.867(6)
N1B N 0.9662(6) -0.1598(5) 1.1354(5)
N2B N 0.9693(6) -0.3475(5) 1.1841(5)
N3B N 1.0458(6) -0.5467(5) 1.2269(5)
N4B N 0.9625(7) -0.6467(5) 1.1891(5)
N5B N 0.8171(6) -0.6245(5) 1.1168(5)
N6B N 0.7952(6) -0.5137(5) 1.0993(5)
O1B O 0.9077(7) 0.1089(5) 1.1726(5)
C1B C 1.0423(8) -0.1751(6) 1.2654(6)
C2B C 1.1030(7) -0.0948(6) 1.3574(6)
H1B H 1.0981 -0.0159 1.3393
C3B C 1.1713(8) -0.1354(6) 1.4773(6)
H2B H 1.2146 -0.0830 1.5409
C4B C 1.1769(8) -0.2543(6) 1.5054(6)
H3B H 1.2246 -0.2792 1.5871
C5B C 1.1139(7) -0.3337(6) 1.4155(6)
H4B H 1.1162 -0.4125 1.4342
C6B C 1.0465(8) -0.2926(5) 1.2952(6)
C7B C 0.9221(7) -0.2646(5) 1.0944(6)
H5B H 0.8646 -0.2801 1.0126
C8B C 0.9362(8) -0.4677(5) 1.1685(6)
H6B H 0.803(4) 0.083(5) 1.181(6)
H7B H 0.919(10) 0.172(3) 1.133(6)
Cd1A Cd 0.5000 -0.5000 1.0000
Cd1A_2 Cd 1.5000 0.5000 1.0000
N6A N 1.2952(6) 0.0137(5) 1.0993(5)
N6C N 0.7048(6) -0.0137(5) 0.9007(5)
loop_
_geom_bond_atom_site_label_1
_geom_bond_atom_site_label_2
_geom_bond_site_symmetry_1
_geom_bond_site_symmetry_2
Cd1 N1 1_555 1_555
N1 C1 1_555 1_555
N2 C6 1_555 1_555
N3 N4 1_555 1_555
N4 N5 1_555 1_555
N5 N6 1_555 1_555
N6 C8 1_555 1_555
O1 Cd1 1_555 1_555
C1 C2 1_555 1_555
C2 H1 1_555 1_555
C3 C2 1_555 1_555
H2 C3 1_555 1_555
C4 C3 1_555 1_555
H3 C4 1_555 1_555
C5 C4 1_555 1_555
H4 C5 1_555 1_555
C6 C1 1_555 1_555
C7 N1 1_555 1_555
H5 C7 1_555 1_555
C8 N2 1_555 1_555
H6 O1 1_555 1_555
H7 O1 1_555 1_555
N1B Cd1 1_555 1_555
N2B C6B 1_555 1_555
N3B N4B 1_555 1_555
N4B N5B 1_555 1_555
N5B N6B 1_555 1_555
N6B C8B 1_555 1_555
O1B Cd1 1_555 1_555
C1B N1B 1_555 1_555
C2B C1B 1_555 1_555
H1B C2B 1_555 1_555
C3B C2B 1_555 1_555
H2B C3B 1_555 1_555
C4B C3B 1_555 1_555
H3B C4B 1_555 1_555
C5B C4B 1_555 1_555
H4B C5B 1_555 1_555
C6B C1B 1_555 1_555
C7B N1B 1_555 1_555
H5B C7B 1_555 1_555
C8B N2B 1_555 1_555
H6B O1B 1_555 1_555
H7B O1B 1_555 1_555
Cd1A N6B 1_555 1_555
Cd1A_2 N6 1_555 1_555
N6A Cd1 1_555 1_555
N6C Cd1 1_555 1_555
N2 C7 1_555 1_555
N3 C8 1_555 1_555
C5 C6 1_555 1_555
N2B C7B 1_555 1_555
N3B C8B 1_555 1_555
C5B C6B 1_555 1_555

#END
