
#######################################################################
#
#                 Cambridge Crystallographic Data Centre
#                                CCDC 
#
#######################################################################
#
# If this CIF has been generated from an entry in the Cambridge 
# Structural Database, then it will include bibliographic, chemical, 
# crystal, experimental, refinement or atomic coordinate data resulting 
# from the CCDC's data processing and validation procedures.
#
#######################################################################

data_VIYHUI
_symmetry_cell_setting           monoclinic
_symmetry_space_group_name_H-M   'P n'
_symmetry_Int_Tables_number      7
_space_group_name_Hall           'P -2yac'
loop_
_symmetry_equiv_pos_site_id
_symmetry_equiv_pos_as_xyz
1 x,y,z
2 1/2+x,-y,1/2+z
_cell_length_a                   11.4050(8)
_cell_length_b                   11.1560(8)
_cell_length_c                   15.1930(11)
_cell_angle_alpha                90
_cell_angle_beta                 94.2110(10)
_cell_angle_gamma                90
_cell_volume                     1927.85
loop_
_atom_site_label
_atom_site_type_symbol
_atom_site_fract_x
_atom_site_fract_y
_atom_site_fract_z
O1 O -0.2341(2) 1.0848(2) 0.72641(16)
O2 O -0.2463(3) 1.1321(3) 0.58403(19)
O3 O 0.0216(3) 0.9132(3) 0.38926(19)
O4 O 0.1110(2) 0.7507(2) 0.44220(15)
H1 H 0.1356 0.7488 0.3928
O5 O 0.9686(3) 0.6388(2) 1.0430(2)
H2 H 1.0296 0.6242 1.0730
O6 O 0.9764(3) 0.4468(2) 1.01010(18)
O7 O 0.6787(3) 0.2848(2) 0.78061(18)
O8 O 0.6210(2) 0.4146(2) 0.67452(18)
C1 C -0.2088(3) 1.0686(3) 0.6442(3)
C2 C -0.1286(3) 0.9653(3) 0.6309(2)
C3 C -0.0931(3) 0.8896(3) 0.6996(2)
H3 H -0.1223 0.9016 0.7545
C4 C -0.0148(3) 0.7959(3) 0.6890(2)
C5 C 0.0273(3) 0.7805(3) 0.6054(2)
H4 H 0.0793 0.7183 0.5962
C6 C -0.0073(3) 0.8564(3) 0.5362(2)
C7 C -0.0857(3) 0.9483(3) 0.5484(2)
H5 H -0.1096 0.9987 0.5017
C8 C 0.0404(3) 0.8427(4) 0.4479(2)
C9 C 0.1117(3) 0.6347(3) 0.7587(3)
H6 H 0.0974 0.5836 0.7073
H7 H 0.1089 0.5845 0.8106
C10 C 0.2340(3) 0.6878(3) 0.7575(3)
C11 C 0.3009(3) 0.6710(3) 0.6871(2)
H8 H 0.2716 0.6253 0.6392
C12 C 0.4120(3) 0.7215(3) 0.6868(2)
H9 H 0.4558 0.7098 0.6382
C13 C 0.4587(3) 0.7883(3) 0.7566(2)
C14 C 0.3920(4) 0.8043(4) 0.8280(3)
H10 H 0.4220 0.8496 0.8758
C15 C 0.2812(3) 0.7539(3) 0.8293(3)
H11 H 0.2381 0.7643 0.8783
C16 C 0.5802(3) 0.8457(3) 0.7546(3)
H12 H 0.6140 0.8212 0.7007
H13 H 0.5707 0.9320 0.7524
C17 C 0.7102(3) 0.7033(3) 0.8404(2)
C18 C 0.7974(3) 0.6834(3) 0.9086(2)
H14 H 0.8256 0.7473 0.9433
C19 C 0.8421(3) 0.5695(3) 0.9248(2)
C20 C 0.7987(3) 0.4728(3) 0.8741(2)
H15 H 0.8251 0.3955 0.8872
C21 C 0.7163(2) 0.4925(3) 0.80437(19)
C22 C 0.6753(3) 0.6076(3) 0.7864(2)
H16 H 0.6235 0.6209 0.7372
C23 C 0.6678(3) 0.3897(3) 0.7484(2)
C24 C 0.9359(3) 0.5437(4) 0.9965(2)
N1 N 0.0183(3) 0.7228(3) 0.7590(2)
H17 H -0.0186 0.7296 0.8060
N2 N 0.6622(3) 0.8165(2) 0.8281(2)
H18 H 0.6820 0.8716 0.8659
C25 C 0.1345(4) 0.3562(4) 0.6008(3)
H19 H 0.2151 0.3462 0.5979
C26 C 0.0750(3) 0.4224(4) 0.5367(3)
H20 H 0.1151 0.4568 0.4919
C27 C -0.0447(3) 0.4383(3) 0.5384(2)
C28 C -0.0964(3) 0.3846(4) 0.6061(3)
H21 H -0.1770 0.3923 0.6101
C29 C -0.0315(4) 0.3199(4) 0.6680(3)
H22 H -0.0705 0.2845 0.7129
C30 C -0.1118(3) 0.5129(3) 0.4729(2)
C31 C -0.2045(4) 0.5822(4) 0.4971(3)
H23 H -0.2273 0.5791 0.5545
C32 C -0.2628(4) 0.6557(5) 0.4360(3)
H24 H -0.3243 0.7021 0.4541
C33 C -0.1485(3) 0.5957(3) 0.3298(2)
H25 H -0.1288 0.5982 0.2715
C34 C -0.0852(3) 0.5219(3) 0.3866(2)
H26 H -0.0235 0.4773 0.3668
C35 C 0.3943(3) 0.1378(3) 0.6904(2)
H27 H 0.4347 0.1864 0.7321
C36 C 0.4539(3) 0.0963(3) 0.6208(2)
H28 H 0.5311 0.1197 0.6144
C37 C 0.3969(3) 0.0197(3) 0.5609(2)
C38 C 0.2827(3) -0.0111(4) 0.5745(3)
H29 H 0.2421 -0.0645 0.5363
C39 C 0.2291(4) 0.0365(4) 0.6437(3)
H30 H 0.1516 0.0152 0.6511
C40 C 0.4557(3) -0.0291(3) 0.4850(2)
C41 C 0.5440(3) 0.0317(3) 0.4464(2)
H31 H 0.5673 0.1072 0.4671
C42 C 0.5978(3) -0.0194(3) 0.3771(2)
H32 H 0.6561 0.0241 0.3516
C43 C 0.4854(3) -0.1837(3) 0.3828(3)
H33 H 0.4639 -0.2591 0.3612
C44 C 0.4268(3) -0.1405(3) 0.4504(2)
H34 H 0.3676 -0.1856 0.4733
Cu1 Cu 0.17845(3) 0.21983(3) 0.76897(3)
N3 N 0.0827(3) 0.3043(3) 0.66821(19)
N4 N -0.2365(3) 0.6643(3) 0.35231(19)
N5 N 0.2829(3) 0.1125(3) 0.70153(19)
N6 N 0.5705(2) -0.1276(3) 0.34486(18)
Cu1A Cu -0.32155(3) 0.78017(3) 0.26897(3)
Cu1A_2 Cu 0.67845(3) -0.21983(3) 0.26897(3)
N4A N 0.2635(3) 0.3357(3) 0.85231(19)
N6A N 0.0705(2) 0.1276(3) 0.84486(18)
loop_
_geom_bond_atom_site_label_1
_geom_bond_atom_site_label_2
_geom_bond_site_symmetry_1
_geom_bond_site_symmetry_2
O1 C1 1_555 1_555
O2 C1 1_555 1_555
O3 C8 1_555 1_555
O4 H1 1_555 1_555
O5 H2 1_555 1_555
O6 C24 1_555 1_555
O7 C23 1_555 1_555
O8 C23 1_555 1_555
C1 C2 1_555 1_555
C2 C3 1_555 1_555
C3 H3 1_555 1_555
C4 C3 1_555 1_555
C5 C4 1_555 1_555
H4 C5 1_555 1_555
C6 C5 1_555 1_555
C7 C2 1_555 1_555
H5 C7 1_555 1_555
C8 O4 1_555 1_555
C9 H6 1_555 1_555
H7 C9 1_555 1_555
C10 C9 1_555 1_555
C11 C10 1_555 1_555
H8 C11 1_555 1_555
C12 C11 1_555 1_555
H9 C12 1_555 1_555
C13 C12 1_555 1_555
C14 C13 1_555 1_555
H10 C14 1_555 1_555
C15 C10 1_555 1_555
H11 C15 1_555 1_555
C16 C13 1_555 1_555
H12 C16 1_555 1_555
H13 C16 1_555 1_555
C17 C18 1_555 1_555
C18 H14 1_555 1_555
C19 C18 1_555 1_555
C20 C19 1_555 1_555
H15 C20 1_555 1_555
C21 C20 1_555 1_555
C22 C17 1_555 1_555
H16 C22 1_555 1_555
C23 C21 1_555 1_555
C24 O5 1_555 1_555
N1 C4 1_555 1_555
H17 N1 1_555 1_555
N2 C16 1_555 1_555
H18 N2 1_555 1_555
C25 H19 1_555 1_555
C26 C25 1_555 1_555
H20 C26 1_555 1_555
C27 C26 1_555 1_555
C28 C27 1_555 1_555
H21 C28 1_555 1_555
C29 C28 1_555 1_555
H22 C29 1_555 1_555
C30 C27 1_555 1_555
C31 C30 1_555 1_555
H23 C31 1_555 1_555
C32 C31 1_555 1_555
H24 C32 1_555 1_555
C33 H25 1_555 1_555
C34 C30 1_555 1_555
H26 C34 1_555 1_555
C35 H27 1_555 1_555
C36 C35 1_555 1_555
H28 C36 1_555 1_555
C37 C36 1_555 1_555
C38 C37 1_555 1_555
H29 C38 1_555 1_555
C39 C38 1_555 1_555
H30 C39 1_555 1_555
C40 C37 1_555 1_555
C41 C40 1_555 1_555
H31 C41 1_555 1_555
C42 C41 1_555 1_555
H32 C42 1_555 1_555
C43 H33 1_555 1_555
C44 C40 1_555 1_555
H34 C44 1_555 1_555
Cu1 N3 1_555 1_555
N3 C25 1_555 1_555
N4 C32 1_555 1_555
N5 C35 1_555 1_555
N6 C42 1_555 1_555
Cu1A N4 1_555 1_555
Cu1A_2 N6 1_555 1_555
N4A Cu1 1_555 1_555
N6A Cu1 1_555 1_555
C6 C7 1_555 1_555
C6 C8 1_555 1_555
C9 N1 1_555 1_555
C14 C15 1_555 1_555
C17 N2 1_555 1_555
C19 C24 1_555 1_555
C21 C22 1_555 1_555
C29 N3 1_555 1_555
C33 C34 1_555 1_555
C33 N4 1_555 1_555
C39 N5 1_555 1_555
C43 C44 1_555 1_555
C43 N6 1_555 1_555
Cu1 N5 1_555 1_555

#END
