
#######################################################################
#
#                 Cambridge Crystallographic Data Centre
#                                CCDC 
#
#######################################################################
#
# If this CIF has been generated from an entry in the Cambridge 
# Structural Database, then it will include bibliographic, chemical, 
# crystal, experimental, refinement or atomic coordinate data resulting 
# from the CCDC's data processing and validation procedures.
#
#######################################################################

data_VIYJOE
_symmetry_cell_setting           monoclinic
_symmetry_space_group_name_H-M   'C 2/c'
_symmetry_Int_Tables_number      15
_space_group_name_Hall           '-C 2yn'
loop_
_symmetry_equiv_pos_site_id
_symmetry_equiv_pos_as_xyz
1 x,y,z
2 -x,y,1/2-z
3 1/2+x,1/2+y,z
4 1/2-x,1/2+y,1/2-z
5 -x,-y,-z
6 x,-y,1/2+z
7 1/2-x,1/2-y,-z
8 1/2+x,1/2-y,1/2+z
_cell_length_a                   28.130(4)
_cell_length_b                   9.703(5)
_cell_length_c                   15.619(6)
_cell_angle_alpha                90
_cell_angle_beta                 100.37(3)
_cell_angle_gamma                90
_cell_volume                     4193.5
loop_
_atom_site_label
_atom_site_type_symbol
_atom_site_fract_x
_atom_site_fract_y
_atom_site_fract_z
O1 O 0.0245(4) 0.4701(9) 0.9416(8)
O2 O 0.0214(4) 0.4293(11) 0.1934(8)
O3 O 0.04589(14) 0.7712(5) 0.3396(3)
C1 C 0.0619(2) 0.8258(7) 0.5686(4)
H1 H 0.0627 0.7300 0.5681
C2 C 0.0416(3) 0.8899(9) 0.6330(5)
H2 H 0.0293 0.8388 0.6744
C3 C 0.0404(3) 1.0299(10) 0.6333(5)
H3 H 0.0271 1.0767 0.6753
C4 C 0.0590(2) 1.1014(8) 0.5715(5)
H4 H 0.0586 1.1972 0.5715
C5 C 0.0787(2) 1.0300(7) 0.5084(4)
C6 C 0.0998(2) 1.0979(7) 0.4393(4)
C7 C 0.1026(3) 1.2373(7) 0.4309(6)
H5 H 0.0904 1.2956 0.4690
C8 C 0.1236(3) 1.2900(8) 0.3653(6)
H6 H 0.1273 1.3848 0.3606
C9 C 0.1390(3) 1.2051(8) 0.3079(5)
H7 H 0.1514 1.2404 0.2611
C10 C 0.1361(2) 1.0654(7) 0.3196(4)
H8 H 0.1482 1.0066 0.2817
C11 C 0.1293(2) 0.6516(6) 0.2585(4)
C12 C 0.16212(19) 0.5532(6) 0.2232(4)
C13 C 0.1475(2) 0.4951(6) 0.1419(4)
H9 H 0.1179 0.5197 0.1087
C14 C 0.1764(2) 0.4008(6) 0.1094(4)
C15 C 0.2201(2) 0.3629(6) 0.1588(4)
H10 H 0.2394 0.2986 0.1371
C16 C 0.23563(19) 0.4202(5) 0.2412(4)
C17 C 0.20594(19) 0.5154(6) 0.2730(4)
H11 H 0.2157 0.5536 0.3279
C18 C 0.1583(2) 0.3322(6) 0.0253(4)
C19 C 0.2959(2) 0.4105(7) 0.3787(4)
H12 H 0.2910 0.5076 0.3888
H13 H 0.3304 0.3927 0.3935
C20 C 0.27043(19) 0.3266(6) 0.4399(4)
C21 C 0.2579(2) 0.1907(7) 0.4247(4)
H14 H 0.2630 0.1491 0.3734
C22 C 0.2623(2) 0.3858(6) 0.5157(4)
H15 H 0.2703 0.4777 0.5272
N1 N 0.08009(18) 0.8922(6) 0.5080(3)
N2 N 0.11650(17) 1.0111(5) 0.3831(3)
N3 N 0.28009(16) 0.3821(5) 0.2870(3)
H16 H 0.2995 0.3391 0.2597
Ni1 Ni 0.11295(3) 0.80781(8) 0.41214(5)
O4 O 0.14750(13) 0.7317(4) 0.3177(2)
O5 O 0.08549(15) 0.6474(5) 0.2257(3)
O6 O 0.12064(14) 0.3804(4) -0.0227(3)
O7 O 0.17662(14) 0.2220(4) 0.0062(2)
H17 H 0.0453(10) 0.739(6) 0.2880(15)
H18 H 0.0250(9) 0.729(5) 0.361(2)
C11F C 0.3707(2) -0.1516(6) 0.7415(4)
C12F C 0.33788(19) -0.0532(6) 0.7768(4)
C13F C 0.3525(2) 0.0049(6) 0.8581(4)
H9F H 0.3821 -0.0197 0.8913
C14F C 0.3236(2) 0.0992(6) 0.8906(4)
C15F C 0.2799(2) 0.1371(6) 0.8412(4)
H10F H 0.2606 0.2014 0.8629
C16F C 0.26437(19) 0.0798(5) 0.7588(4)
C17F C 0.29406(19) -0.0154(6) 0.7270(4)
H11F H 0.2843 -0.0536 0.6721
C18F C 0.3417(2) 0.1678(6) 0.9747(4)
C19F C 0.2041(2) 0.0895(7) 0.6213(4)
H12F H 0.2090 -0.0076 0.6112
H13F H 0.1696 0.1073 0.6065
C20F C 0.22957(19) 0.1734(6) 0.5601(4)
C21F C 0.2421(2) 0.3093(7) 0.5753(4)
H14F H 0.2370 0.3509 0.6266
C22F C 0.2377(2) 0.1142(6) 0.4843(4)
H15F H 0.2297 0.0223 0.4728
N3F N 0.21991(16) 0.1179(5) 0.7130(3)
H16F H 0.2005 0.1609 0.7403
O4F O 0.35250(13) -0.2317(4) 0.6823(2)
O5F O 0.41451(15) -0.1474(5) 0.7743(3)
O6F O 0.37936(14) 0.1196(4) 1.0227(3)
O7F O 0.32338(14) 0.2780(4) 0.9938(2)
O3F O 0.45411(14) -0.2712(5) 0.6604(3)
C1F C 0.4381(2) -0.3258(7) 0.4314(4)
H1F H 0.4373 -0.2300 0.4319
C2F C 0.4584(3) -0.3899(9) 0.3670(5)
H2F H 0.4707 -0.3388 0.3256
C3F C 0.4596(3) -0.5299(10) 0.3667(5)
H3F H 0.4729 -0.5767 0.3247
C4F C 0.4410(2) -0.6014(8) 0.4285(5)
H4F H 0.4414 -0.6972 0.4285
C5F C 0.4213(2) -0.5300(7) 0.4916(4)
C6F C 0.4002(2) -0.5979(7) 0.5607(4)
C7F C 0.3974(3) -0.7373(7) 0.5691(6)
H5F H 0.4096 -0.7956 0.5310
C8F C 0.3764(3) -0.7900(8) 0.6347(6)
H6F H 0.3727 -0.8848 0.6394
C9F C 0.3610(3) -0.7051(8) 0.6921(5)
H7F H 0.3486 -0.7404 0.7389
C10F C 0.3639(2) -0.5654(7) 0.6804(4)
H8F H 0.3518 -0.5066 0.7183
N1F N 0.41991(18) -0.3922(6) 0.4920(3)
N2F N 0.38350(17) -0.5111(5) 0.6169(3)
Ni1F Ni 0.38705(3) -0.30781(8) 0.58786(5)
H17F H 0.4547(10) -0.239(6) 0.7120(15)
H18F H 0.4750(9) -0.229(5) 0.639(2)
Ni1C Ni 0.38705(3) 0.30781(8) 1.08786(5)
Ni1E Ni 0.11295(3) 0.19219(8) -0.08786(5)
O6C O 0.37936(14) -0.1196(4) 0.5227(3)
O6E O 0.12064(14) 0.6196(4) 0.4773(3)
O7C O 0.32338(14) -0.2780(4) 0.4938(2)
O7E O 0.17662(14) 0.7780(4) 0.5062(2)
loop_
_geom_bond_atom_site_label_1
_geom_bond_atom_site_label_2
_geom_bond_site_symmetry_1
_geom_bond_site_symmetry_2
O3 Ni1 1_555 1_555
C1 H1 1_555 1_555
C2 C1 1_555 1_555
H2 C2 1_555 1_555
C3 C2 1_555 1_555
H3 C3 1_555 1_555
C4 C3 1_555 1_555
H4 C4 1_555 1_555
C5 C4 1_555 1_555
C6 C5 1_555 1_555
C7 C6 1_555 1_555
H5 C7 1_555 1_555
C8 C7 1_555 1_555
H6 C8 1_555 1_555
C9 C8 1_555 1_555
H7 C9 1_555 1_555
C10 C9 1_555 1_555
H8 C10 1_555 1_555
C11 C12 1_555 1_555
C12 C13 1_555 1_555
C13 H9 1_555 1_555
C14 C13 1_555 1_555
C15 C14 1_555 1_555
H10 C15 1_555 1_555
C16 C15 1_555 1_555
C17 C12 1_555 1_555
H11 C17 1_555 1_555
C18 C14 1_555 1_555
C19 H12 1_555 1_555
H13 C19 1_555 1_555
C20 C19 1_555 1_555
C21 C20 1_555 1_555
H14 C21 1_555 1_555
C22 C20 1_555 1_555
H15 C22 1_555 1_555
N1 C1 1_555 1_555
N2 C6 1_555 1_555
N3 C16 1_555 1_555
H16 N3 1_555 1_555
Ni1 N1 1_555 1_555
O4 C11 1_555 1_555
O5 C11 1_555 1_555
O6 C18 1_555 1_555
O7 C18 1_555 1_555
H17 O3 1_555 1_555
H18 O3 1_555 1_555
C11F C12F 1_555 1_555
C12F C13F 1_555 1_555
C13F H9F 1_555 1_555
C14F C13F 1_555 1_555
C15F C14F 1_555 1_555
H10F C15F 1_555 1_555
C16F C15F 1_555 1_555
C17F C12F 1_555 1_555
H11F C17F 1_555 1_555
C18F C14F 1_555 1_555
C19F H12F 1_555 1_555
H13F C19F 1_555 1_555
C20F C19F 1_555 1_555
C21F C22 1_555 1_555
H14F C21F 1_555 1_555
C22F C21 1_555 1_555
H15F C22F 1_555 1_555
N3F C16F 1_555 1_555
H16F N3F 1_555 1_555
O4F C11F 1_555 1_555
O5F C11F 1_555 1_555
O6F C18F 1_555 1_555
O7F C18F 1_555 1_555
O3F Ni1F 1_555 1_555
C1F H1F 1_555 1_555
C2F C1F 1_555 1_555
H2F C2F 1_555 1_555
C3F C2F 1_555 1_555
H3F C3F 1_555 1_555
C4F C3F 1_555 1_555
H4F C4F 1_555 1_555
C5F C4F 1_555 1_555
C6F C5F 1_555 1_555
C7F C6F 1_555 1_555
H5F C7F 1_555 1_555
C8F C7F 1_555 1_555
H6F C8F 1_555 1_555
C9F C8F 1_555 1_555
H7F C9F 1_555 1_555
C10F C9F 1_555 1_555
H8F C10F 1_555 1_555
N1F C1F 1_555 1_555
N2F C6F 1_555 1_555
Ni1F O4F 1_555 1_555
H17F O3F 1_555 1_555
H18F O3F 1_555 1_555
Ni1C O6F 1_555 1_555
Ni1E O6 1_555 1_555
O6C Ni1F 1_555 1_555
O6E Ni1 1_555 1_555
O7C Ni1F 1_555 1_555
O7E Ni1 1_555 1_555
C5 N1 1_555 1_555
C10 N2 1_555 1_555
C16 C17 1_555 1_555
C19 N3 1_555 1_555
N2 Ni1 1_555 1_555
Ni1 O4 1_555 1_555
O7 Ni1E 1_555 1_555
C16F C17F 1_555 1_555
C19F N3F 1_555 1_555
C20F C21F 1_555 1_555
C20F C22F 1_555 1_555
O7F Ni1C 1_555 1_555
C5F N1F 1_555 1_555
C10F N2F 1_555 1_555
N1F Ni1F 1_555 1_555
N2F Ni1F 1_555 1_555

#END
