
#######################################################################
#
#                 Cambridge Crystallographic Data Centre
#                                CCDC 
#
#######################################################################
#
# If this CIF has been generated from an entry in the Cambridge 
# Structural Database, then it will include bibliographic, chemical, 
# crystal, experimental, refinement or atomic coordinate data resulting 
# from the CCDC's data processing and validation procedures.
#
#######################################################################

data_VIYJAQ
_symmetry_cell_setting           monoclinic
_symmetry_space_group_name_H-M   'P 21/n'
_symmetry_Int_Tables_number      14
_space_group_name_Hall           '-P 2yn'
loop_
_symmetry_equiv_pos_site_id
_symmetry_equiv_pos_as_xyz
1 x,y,z
2 1/2-x,1/2+y,1/2-z
3 -x,-y,-z
4 1/2+x,1/2-y,1/2+z
_cell_length_a                   10.523(4)
_cell_length_b                   16.289(7)
_cell_length_c                   11.710(4)
_cell_angle_alpha                90
_cell_angle_beta                 91.087(7)
_cell_angle_gamma                90
_cell_volume                     2006.84
loop_
_atom_site_label
_atom_site_type_symbol
_atom_site_fract_x
_atom_site_fract_y
_atom_site_fract_z
Zn1 Zn 0.22557(4) 0.04312(3) 0.04764(4)
N1 N 0.3788(3) 0.0357(2) 0.1712(3)
C1 C 0.0760(4) 0.3060(2) -0.3967(3)
H1 H 0.0409 0.3395 -0.4533
C2 C 0.1916(4) 0.3282(2) -0.3457(4)
C3 C 0.1734(4) 0.2101(3) -0.2204(3)
C4 C 0.2227(4) 0.1577(3) -0.1241(3)
C5 C 0.0616(4) 0.1877(3) -0.2766(4)
H2 H 0.0195 0.1403 -0.2543
C6 C 0.0114(4) 0.2347(3) -0.3653(4)
N2 N -0.1008(4) 0.2146(2) -0.4220(4)
C7 C 0.2405(4) 0.2796(2) -0.2560(3)
H3 H 0.3172 0.2936 -0.2202
N3 N 0.1924(3) 0.1467(2) 0.1640(3)
C8 C 0.2687(4) 0.2119(3) 0.3388(4)
C9 C 0.3745(4) 0.0903(3) 0.2589(4)
C10 C -0.0750(4) 0.0650(3) -0.4600(4)
C11 C 0.2754(4) 0.1511(3) 0.2537(4)
C12 C 0.1733(5) 0.2709(3) 0.3259(4)
H4 H 0.1673 0.3135 0.3784
C13 C -0.1564(4) 0.1339(3) -0.4160(4)
H5 H -0.2360 0.1343 -0.4592
H6 H -0.1761 0.1225 -0.3370
C14 C 0.4623(4) 0.0916(3) 0.3505(4)
C15 C 0.0881(5) 0.2661(3) 0.2356(5)
H7 H 0.0231 0.3045 0.2271
C16 C 0.4494(5) 0.1529(3) 0.4376(4)
H8 H 0.5055 0.1528 0.5000
C17 C 0.3580(5) 0.2105(3) 0.4308(4)
H9 H 0.3534 0.2502 0.4876
C18 C 0.1014(4) 0.2030(3) 0.1575(4)
H10 H 0.0431 0.1999 0.0969
C19 C -0.0792(5) -0.0116(3) -0.4110(5)
H11 H -0.1326 -0.0204 -0.3498
C20 C 0.0067(5) 0.0750(3) -0.5501(4)
H12 H 0.0124 0.1261 -0.5851
O1 O 0.2092(3) 0.44300(18) -0.4675(2)
O2 O 0.0718(3) -0.0115(2) 0.1217(3)
O3 O 0.3363(3) 0.16249(18) -0.0913(3)
O4 O 0.1438(3) 0.10896(17) -0.0779(2)
O5 O 0.3719(3) 0.4131(2) -0.3497(3)
C21 C 0.2649(4) 0.4012(3) -0.3902(4)
C22 C 0.5574(5) 0.0323(3) 0.3507(4)
H13 H 0.6164 0.0300 0.4108
C23 C 0.4731(4) -0.0183(3) 0.1755(4)
H14 H 0.4789 -0.0560 0.1162
C24 C 0.5640(5) -0.0221(3) 0.2635(5)
H15 H 0.6282 -0.0613 0.2624
H16 H -0.116(4) 0.245(2) -0.484(4)
H17 H 0.046(4) -0.046(3) 0.090(4)
H18 H 0.008(6) 0.026(4) 0.130(5)
C1B C -0.0760(4) -0.3060(2) -0.6033(3)
H1B H -0.0409 -0.3395 -0.5467
C2B C -0.1916(4) -0.3282(2) -0.6543(4)
C3B C -0.1734(4) -0.2101(3) -0.7796(3)
C4B C -0.2227(4) -0.1577(3) -0.8759(3)
C5B C -0.0616(4) -0.1877(3) -0.7234(4)
H2B H -0.0195 -0.1403 -0.7457
C6B C -0.0114(4) -0.2347(3) -0.6347(4)
N2B N 0.1008(4) -0.2146(2) -0.5780(4)
C7B C -0.2405(4) -0.2796(2) -0.7440(3)
H3B H -0.3172 -0.2936 -0.7798
C10B C 0.0750(4) -0.0650(3) -0.5400(4)
C13B C 0.1564(4) -0.1339(3) -0.5840(4)
H5B H 0.2360 -0.1343 -0.5408
H6B H 0.1761 -0.1225 -0.6630
C19B C 0.0792(5) 0.0116(3) -0.5890(5)
H11B H 0.1326 0.0204 -0.6502
C20B C -0.0067(5) -0.0750(3) -0.4499(4)
H12B H -0.0124 -0.1261 -0.4149
O1B O -0.2092(3) -0.44300(18) -0.5325(2)
O3B O -0.3363(3) -0.16249(18) -0.9087(3)
O4B O -0.1438(3) -0.10896(17) -0.9221(2)
O5B O -0.3719(3) -0.4131(2) -0.6503(3)
C21B C -0.2649(4) -0.4012(3) -0.6098(4)
H16B H 0.116(4) -0.245(2) -0.516(4)
Zn1B Zn -0.22557(4) -0.04312(3) -1.04764(4)
N1B N -0.3788(3) -0.0357(2) -1.1712(3)
N3B N -0.1924(3) -0.1467(2) -1.1640(3)
C8B C -0.2687(4) -0.2119(3) -1.3388(4)
C9B C -0.3745(4) -0.0903(3) -1.2589(4)
C11B C -0.2754(4) -0.1511(3) -1.2537(4)
C12B C -0.1733(5) -0.2709(3) -1.3259(4)
H4B H -0.1673 -0.3135 -1.3784
C14B C -0.4623(4) -0.0916(3) -1.3505(4)
C15B C -0.0881(5) -0.2661(3) -1.2356(5)
H7B H -0.0231 -0.3045 -1.2271
C16B C -0.4494(5) -0.1529(3) -1.4376(4)
H8B H -0.5055 -0.1528 -1.5000
C17B C -0.3580(5) -0.2105(3) -1.4308(4)
H9B H -0.3534 -0.2502 -1.4876
C18B C -0.1014(4) -0.2030(3) -1.1575(4)
H10B H -0.0431 -0.1999 -1.0969
O2B O -0.0718(3) 0.0115(2) -1.1217(3)
C22B C -0.5574(5) -0.0323(3) -1.3507(4)
H13B H -0.6164 -0.0300 -1.4108
C23B C -0.4731(4) 0.0183(3) -1.1755(4)
H14B H -0.4789 0.0560 -1.1162
C24B C -0.5640(5) 0.0221(3) -1.2635(5)
H15B H -0.6282 0.0613 -1.2624
H17B H -0.046(4) 0.046(3) -1.090(4)
H18B H -0.008(6) -0.026(4) -1.130(5)
Zn1A Zn 0.27443(4) 0.54312(3) -0.54764(4)
Zn1C Zn -0.27443(4) -0.54312(3) -0.45236(4)
O1A O 0.2908(3) -0.05700(18) -0.0325(2)
O1C O -0.2908(3) 0.05700(18) -0.9675(2)
loop_
_geom_bond_atom_site_label_1
_geom_bond_atom_site_label_2
_geom_bond_site_symmetry_1
_geom_bond_site_symmetry_2
Zn1 N1 1_555 1_555
N1 C9 1_555 1_555
C1 H1 1_555 1_555
C2 C1 1_555 1_555
C3 C4 1_555 1_555
C4 O3 1_555 1_555
C5 C3 1_555 1_555
H2 C5 1_555 1_555
C6 C1 1_555 1_555
N2 C6 1_555 1_555
C7 C2 1_555 1_555
H3 C7 1_555 1_555
N3 Zn1 1_555 1_555
C8 C11 1_555 1_555
C9 C11 1_555 1_555
C10 C13 1_555 1_555
C11 N3 1_555 1_555
C12 C8 1_555 1_555
H4 C12 1_555 1_555
C13 N2 1_555 1_555
H5 C13 1_555 1_555
H6 C13 1_555 1_555
C14 C9 1_555 1_555
C15 C12 1_555 1_555
H7 C15 1_555 1_555
C16 C14 1_555 1_555
H8 C16 1_555 1_555
C17 C8 1_555 1_555
H9 C17 1_555 1_555
C18 N3 1_555 1_555
H10 C18 1_555 1_555
C19 C10 1_555 1_555
H11 C19 1_555 1_555
C20 C10 1_555 1_555
H12 C20 1_555 1_555
O1 C21 1_555 1_555
O2 Zn1 1_555 1_555
O4 Zn1 1_555 1_555
O5 C21 1_555 1_555
C21 C2 1_555 1_555
C22 C14 1_555 1_555
H13 C22 1_555 1_555
C23 N1 1_555 1_555
H14 C23 1_555 1_555
C24 C22 1_555 1_555
H15 C24 1_555 1_555
H16 N2 1_555 1_555
H17 O2 1_555 1_555
H18 O2 1_555 1_555
C1B H1B 1_555 1_555
C2B C1B 1_555 1_555
C3B C4B 1_555 1_555
C4B O3B 1_555 1_555
C5B C3B 1_555 1_555
H2B C5B 1_555 1_555
C6B C1B 1_555 1_555
N2B C6B 1_555 1_555
C7B C2B 1_555 1_555
H3B C7B 1_555 1_555
C10B C13B 1_555 1_555
C13B N2B 1_555 1_555
H5B C13B 1_555 1_555
H6B C13B 1_555 1_555
C19B C20 1_555 1_555
H11B C19B 1_555 1_555
C20B C19 1_555 1_555
H12B C20B 1_555 1_555
O1B C21B 1_555 1_555
O4B C4B 1_555 1_555
O5B C21B 1_555 1_555
C21B C2B 1_555 1_555
H16B N2B 1_555 1_555
Zn1B O4B 1_555 1_555
N1B Zn1B 1_555 1_555
N3B Zn1B 1_555 1_555
C8B C11B 1_555 1_555
C9B N1B 1_555 1_555
C11B N3B 1_555 1_555
C12B C8B 1_555 1_555
H4B C12B 1_555 1_555
C14B C9B 1_555 1_555
C15B C12B 1_555 1_555
H7B C15B 1_555 1_555
C16B C14B 1_555 1_555
H8B C16B 1_555 1_555
C17B C8B 1_555 1_555
H9B C17B 1_555 1_555
C18B N3B 1_555 1_555
H10B C18B 1_555 1_555
O2B Zn1B 1_555 1_555
C22B C14B 1_555 1_555
H13B C22B 1_555 1_555
C23B N1B 1_555 1_555
H14B C23B 1_555 1_555
C24B C22B 1_555 1_555
H15B C24B 1_555 1_555
H17B O2B 1_555 1_555
H18B O2B 1_555 1_555
Zn1A O1 1_555 1_555
Zn1C O1B 1_555 1_555
O1A Zn1 1_555 1_555
O1C Zn1B 1_555 1_555
C3 C7 1_555 1_555
C4 O4 1_555 1_555
C5 C6 1_555 1_555
C15 C18 1_555 1_555
C16 C17 1_555 1_555
C23 C24 1_555 1_555
C3B C7B 1_555 1_555
C5B C6B 1_555 1_555
C10B C19B 1_555 1_555
C10B C20B 1_555 1_555
C9B C11B 1_555 1_555
C15B C18B 1_555 1_555
C16B C17B 1_555 1_555
C23B C24B 1_555 1_555

#END
