
#######################################################################
#
#                 Cambridge Crystallographic Data Centre
#                                CCDC 
#
#######################################################################
#
# If this CIF has been generated from an entry in the Cambridge 
# Structural Database, then it will include bibliographic, chemical, 
# crystal, experimental, refinement or atomic coordinate data resulting 
# from the CCDC's data processing and validation procedures.
#
#######################################################################

data_VIYQEB
_symmetry_cell_setting           orthorhombic
_symmetry_space_group_name_H-M   'P c c n'
_symmetry_Int_Tables_number      56
_space_group_name_Hall           '-P 2ab 2ac'
loop_
_symmetry_equiv_pos_site_id
_symmetry_equiv_pos_as_xyz
1 x,y,z
2 1/2-x,1/2-y,z
3 -x,1/2+y,1/2-z
4 1/2+x,-y,1/2-z
5 -x,-y,-z
6 1/2+x,1/2+y,-z
7 x,1/2-y,1/2+z
8 1/2-x,y,1/2+z
_cell_length_a                   21.197(7)
_cell_length_b                   9.910(3)
_cell_length_c                   12.567(4)
_cell_angle_alpha                90
_cell_angle_beta                 90
_cell_angle_gamma                90
_cell_volume                     2639.85
loop_
_atom_site_label
_atom_site_type_symbol
_atom_site_fract_x
_atom_site_fract_y
_atom_site_fract_z
Cd1 Cd 0.2500 0.2500 0.459693(17)
O1 O 0.29563(9) 0.0277(2) 0.47863(15)
O2 O 0.28328(10) 0.10431(19) 0.31944(14)
O3 O 0.31734(11) -0.3341(3) 0.1253(2)
H1 H 0.306(2) -0.398(5) 0.084(4)
O4 O 0.2500 0.2500 0.6443(2)
H2 H 0.263(2) 0.312(4) 0.674(3)
N1 N 0.34846(9) 0.3530(2) 0.47281(15)
C1 C 0.30170(11) 0.0143(2) 0.3807(2)
C2 C 0.33312(14) -0.1103(3) 0.3367(2)
H3 H 0.3678 -0.1344 0.3834
H4 H 0.3029 -0.1838 0.3386
C3 C 0.35802(18) -0.0985(3) 0.2264(2)
H5 H 0.3800 -0.0130 0.2198
H6 H 0.3226 -0.0966 0.1775
C4 C 0.40207(17) -0.2096(3) 0.1931(2)
C5 C 0.37987(14) -0.3244(3) 0.1411(2)
C6 C 0.42194(15) -0.4205(3) 0.1067(2)
H7 H 0.4072 -0.4964 0.0709
C7 C 0.48508(14) -0.4059(3) 0.1244(2)
H8 H 0.5129 -0.4717 0.1001
C8 C 0.50785(16) -0.2968(4) 0.1769(2)
H9 H 0.5508 -0.2876 0.1899
C9 C 0.46567(18) -0.1996(4) 0.2107(2)
H10 H 0.4810 -0.1244 0.2467
C10 C 0.36647(12) 0.4574(3) 0.4134(2)
H11 H 0.3384 0.4912 0.3631
C11 C 0.42431(12) 0.5173(3) 0.4230(2)
H12 H 0.4342 0.5910 0.3804
C12 C 0.46806(11) 0.4704(2) 0.49463(19)
C13 C 0.44968(12) 0.3616(3) 0.55455(19)
H13 H 0.4774 0.3244 0.6039
C14 C 0.39046(13) 0.3072(3) 0.5419(2)
H14 H 0.3793 0.2340 0.5843
H2A H 0.237(2) 0.188(4) 0.674(3)
N1D N 0.65154(9) 0.6470(2) 0.52719(15)
C10D C 0.63353(12) 0.5426(3) 0.5866(2)
H11D H 0.6616 0.5088 0.6369
C11D C 0.57569(12) 0.4827(3) 0.5770(2)
H12D H 0.5658 0.4090 0.6196
C12D C 0.53194(11) 0.5296(2) 0.50537(19)
C13D C 0.55032(12) 0.6384(3) 0.44545(19)
H13D H 0.5226 0.6756 0.3961
C14D C 0.60954(13) 0.6928(3) 0.4581(2)
H14D H 0.6207 0.7660 0.4157
O1A O 0.20437(9) 0.4723(2) 0.47863(15)
O2A O 0.21672(10) 0.39569(19) 0.31944(14)
O3A O 0.18266(11) 0.8341(3) 0.1253(2)
H1A H 0.194(2) 0.898(5) 0.084(4)
C1A C 0.19830(11) 0.4857(2) 0.3807(2)
C2A C 0.16688(14) 0.6103(3) 0.3367(2)
H3A H 0.1322 0.6344 0.3834
H4A H 0.1971 0.6838 0.3386
C3A C 0.14198(18) 0.5985(3) 0.2264(2)
H5A H 0.1200 0.5130 0.2198
H6A H 0.1774 0.5966 0.1775
C4A C 0.09793(17) 0.7096(3) 0.1931(2)
C5A C 0.12013(14) 0.8244(3) 0.1411(2)
C6A C 0.07806(15) 0.9205(3) 0.1067(2)
H7A H 0.0928 0.9964 0.0709
C7A C 0.01492(14) 0.9059(3) 0.1244(2)
H8A H -0.0129 0.9717 0.1001
C8A C -0.00785(16) 0.7968(4) 0.1769(2)
H9A H -0.0508 0.7876 0.1899
C9A C 0.03433(18) 0.6996(4) 0.2107(2)
H10A H 0.0190 0.6244 0.2467
Cd1D Cd 0.7500 0.7500 0.540307(17)
N1A N 0.15154(9) 0.1470(2) 0.47281(15)
loop_
_geom_bond_atom_site_label_1
_geom_bond_atom_site_label_2
_geom_bond_site_symmetry_1
_geom_bond_site_symmetry_2
Cd1 O1 1_555 1_555
O1 C1 1_555 1_555
O2 Cd1 1_555 1_555
O3 H1 1_555 1_555
O4 Cd1 1_555 1_555
H2 O4 1_555 1_555
N1 Cd1 1_555 1_555
C1 O2 1_555 1_555
C2 C1 1_555 1_555
H3 C2 1_555 1_555
H4 C2 1_555 1_555
C3 C2 1_555 1_555
H5 C3 1_555 1_555
H6 C3 1_555 1_555
C4 C3 1_555 1_555
C5 O3 1_555 1_555
C6 C5 1_555 1_555
H7 C6 1_555 1_555
C7 C6 1_555 1_555
H8 C7 1_555 1_555
C8 C7 1_555 1_555
H9 C8 1_555 1_555
C9 C4 1_555 1_555
H10 C9 1_555 1_555
C10 N1 1_555 1_555
H11 C10 1_555 1_555
C11 C10 1_555 1_555
H12 C11 1_555 1_555
C12 C11 1_555 1_555
C13 C12 1_555 1_555
H13 C13 1_555 1_555
C14 N1 1_555 1_555
H14 C14 1_555 1_555
H2A O4 1_555 1_555
N1D C10D 1_555 1_555
C10D H11D 1_555 1_555
C11D C10D 1_555 1_555
H12D C11D 1_555 1_555
C12D C12 1_555 1_555
C13D C12D 1_555 1_555
H13D C13D 1_555 1_555
C14D N1D 1_555 1_555
H14D C14D 1_555 1_555
O1A Cd1 1_555 1_555
O2A Cd1 1_555 1_555
O3A H1A 1_555 1_555
C1A O1A 1_555 1_555
C2A C1A 1_555 1_555
H3A C2A 1_555 1_555
H4A C2A 1_555 1_555
C3A C2A 1_555 1_555
H5A C3A 1_555 1_555
H6A C3A 1_555 1_555
C4A C3A 1_555 1_555
C5A O3A 1_555 1_555
C6A C5A 1_555 1_555
H7A C6A 1_555 1_555
C7A C6A 1_555 1_555
H8A C7A 1_555 1_555
C8A C7A 1_555 1_555
H9A C8A 1_555 1_555
C9A C4A 1_555 1_555
H10A C9A 1_555 1_555
Cd1D N1D 1_555 1_555
N1A Cd1 1_555 1_555
C4 C5 1_555 1_555
C8 C9 1_555 1_555
C13 C14 1_555 1_555
C11D C12D 1_555 1_555
C13D C14D 1_555 1_555
O2A C1A 1_555 1_555
C4A C5A 1_555 1_555
C8A C9A 1_555 1_555

#END
