
#######################################################################
#
#                 Cambridge Crystallographic Data Centre
#                                CCDC 
#
#######################################################################
#
# If this CIF has been generated from an entry in the Cambridge 
# Structural Database, then it will include bibliographic, chemical, 
# crystal, experimental, refinement or atomic coordinate data resulting 
# from the CCDC's data processing and validation procedures.
#
#######################################################################

data_VIZBIR
_symmetry_cell_setting           monoclinic
_symmetry_space_group_name_H-M   'P 21/c'
_symmetry_Int_Tables_number      14
_space_group_name_Hall           '-P 2ybc'
loop_
_symmetry_equiv_pos_site_id
_symmetry_equiv_pos_as_xyz
1 x,y,z
2 -x,1/2+y,1/2-z
3 -x,-y,-z
4 x,1/2-y,1/2+z
_cell_length_a                   16.635(5)
_cell_length_b                   14.319(4)
_cell_length_c                   29.029(7)
_cell_angle_alpha                90
_cell_angle_beta                 123.204(4)
_cell_angle_gamma                90
_cell_volume                     5785.63
loop_
_atom_site_label
_atom_site_type_symbol
_atom_site_fract_x
_atom_site_fract_y
_atom_site_fract_z
Cd1 Cd 0.12643(5) 0.78448(5) 0.19828(3)
Cd2 Cd 0.63081(5) 0.41353(5) 0.20203(3)
N1 N -0.1493(6) 0.5383(6) 0.1824(4)
N2 N -0.2797(6) 0.4947(7) 0.1790(4)
N3 N 0.0746(6) 0.6322(6) 0.2071(4)
N4 N 0.1729(7) 0.4097(7) 0.2802(4)
N5 N 0.2203(8) 0.2619(8) 0.3084(5)
N6 N 0.2113(6) 0.7008(6) 0.1728(4)
N7 N 0.3390(6) 0.6556(7) 0.1740(4)
N8 N 0.5667(6) 0.5639(6) 0.2016(4)
N9 N 0.6593(7) 0.7903(7) 0.2711(4)
N10 N 0.7061(9) 0.9378(8) 0.2982(5)
O1 O 0.1214(7) 0.7953(6) 0.2829(4)
O2 O 0.2608(6) 0.7794(6) 0.2908(3)
O3 O 0.0219(6) 0.9100(7) 0.1714(4)
O4 O -0.0333(6) 0.7893(7) 0.1175(4)
O5 O 0.7648(6) 0.4148(6) 0.2950(3)
O6 O 0.6256(6) 0.4084(6) 0.2867(4)
O7 O 0.4702(6) 0.3970(7) 0.1210(4)
O8 O 0.5314(6) 0.2842(6) 0.1795(4)
C1 C -0.3215(11) 0.6039(12) 0.0378(5)
H1 H -0.3286 0.6288 0.0061
C2 C -0.4035(10) 0.5765(10) 0.0353(5)
H2 H -0.4628 0.5817 0.0021
C3 C -0.2308(9) 0.5966(10) 0.0837(5)
H3 H -0.1765 0.6154 0.0845
C4 C -0.3994(9) 0.5419(9) 0.0805(6)
H4 H -0.4545 0.5267 0.0798
C5 C -0.2261(8) 0.5589(8) 0.1289(5)
C6 C -0.3081(7) 0.5310(8) 0.1275(4)
C7 C -0.1876(7) 0.5019(7) 0.2094(5)
H5 H -0.1510 0.4840 0.2462
C8 C -0.0498(7) 0.5463(8) 0.2032(4)
C9 C -0.0161(8) 0.6252(8) 0.1921(5)
H6 H -0.0579 0.6747 0.1737
C10 C 0.0118(8) 0.4752(8) 0.2326(5)
H7 H -0.0103 0.4221 0.2409
C11 C 0.1057(7) 0.4823(8) 0.2497(5)
C12 C 0.1352(8) 0.5623(8) 0.2350(5)
H8 H 0.1986 0.5667 0.2449
C13 C 0.1478(9) 0.3184(9) 0.2761(6)
H9 H 0.0851 0.2973 0.2526
C14 C 0.2701(9) 0.4134(9) 0.3167(5)
C15 C 0.2974(9) 0.3201(10) 0.3335(6)
C16 C 0.3382(9) 0.4858(11) 0.3387(6)
H10 H 0.3193 0.5474 0.3281
C17 C 0.3949(11) 0.3000(13) 0.3720(6)
H11 H 0.4153 0.2389 0.3830
C18 C 0.4323(10) 0.4644(13) 0.3758(6)
H12 H 0.4784 0.5115 0.3896
C19 C 0.4599(12) 0.3733(15) 0.3932(7)
H13 H 0.5240 0.3608 0.4199
C20 C 0.2098(9) 0.7875(7) 0.3111(5)
C21 C 0.2636(12) 0.7858(11) 0.3736(6)
C22 C 0.2165(13) 0.8082(11) 0.3978(6)
H14 H 0.1510 0.8208 0.3761
C23 C 0.3539(12) 0.7642(11) 0.4033(6)
H15 H 0.3851 0.7503 0.3856
C24 C 0.2648(12) 0.8125(12) 0.4545(6)
H16 H 0.2347 0.8335 0.4718
C25 C 0.4072(13) 0.7607(12) 0.4616(6)
H17 H 0.4715 0.7430 0.4826
C26 C 0.3586(13) 0.7847(12) 0.4842(6)
H18 H 0.3906 0.7822 0.5223
C27 C -0.0461(9) 0.8685(10) 0.1301(5)
C28 C -0.1454(10) 0.9117(12) 0.0975(7)
C29 C -0.2194(10) 0.8632(13) 0.0586(7)
H19 H -0.2100 0.8023 0.0513
C30 C -0.1546(11) 1.0030(13) 0.1079(7)
H20 H -0.1016 1.0377 0.1338
C31 C -0.3113(11) 0.9021(13) 0.0284(7)
H21 H -0.3631 0.8676 0.0013
C32 C -0.2466(10) 1.0422(13) 0.0781(7)
H22 H -0.2550 1.1038 0.0848
C33 C -0.3241(11) 0.9921(13) 0.0393(7)
H23 H -0.3850 1.0186 0.0205
C34 C 0.7149(9) 0.4104(8) 0.3153(5)
C35 C 0.7692(15) 0.4023(13) 0.3776(7)
C36 C 0.8598(15) 0.4141(13) 0.4073(7)
H24 H 0.8943 0.4285 0.3916
C37 C 0.7136(15) 0.3811(13) 0.3989(7)
H25 H 0.6475 0.3731 0.3756
C38 C 0.9078(16) 0.4041(13) 0.4667(7)
H26 H 0.9737 0.4127 0.4905
C39 C 0.7582(15) 0.3723(14) 0.4546(7)
H27 H 0.7232 0.3600 0.4703
C40 C 0.8523(15) 0.3819(14) 0.4855(7)
H28 H 0.8826 0.3727 0.5232
C41 C 0.4602(8) 0.3197(10) 0.1371(5)
C42 C 0.3691(14) 0.2701(16) 0.1113(8)
C43 C 0.3605(14) 0.1816(16) 0.1174(8)
H29 H 0.4133 0.1446 0.1413
C44 C 0.2884(14) 0.3212(16) 0.0732(8)
H30 H 0.2964 0.3830 0.0666
C45 C 0.2588(14) 0.1415(17) 0.0832(8)
H31 H 0.2474 0.0784 0.0848
C46 C 0.1955(15) 0.2835(16) 0.0443(8)
H32 H 0.1418 0.3197 0.0210
C47 C 0.1887(16) 0.1986(17) 0.0517(9)
H33 H 0.1271 0.1736 0.0326
C48 C 0.3056(7) 0.6960(7) 0.2015(5)
H34 H 0.3448 0.7185 0.2373
C49 C 0.1802(8) 0.6606(8) 0.1216(4)
C50 C 0.2604(8) 0.6320(8) 0.1217(4)
C51 C 0.0893(8) 0.6481(9) 0.0752(5)
H35 H 0.0354 0.6682 0.0745
C52 C 0.2529(9) 0.5888(9) 0.0774(5)
H36 H 0.3068 0.5688 0.0781
C53 C 0.0801(10) 0.6059(10) 0.0307(5)
H37 H 0.0192 0.5965 -0.0007
C54 C 0.1603(10) 0.5765(11) 0.0314(5)
H38 H 0.1519 0.5478 0.0003
C55 C 0.4399(7) 0.6506(8) 0.1945(4)
C56 C 0.4752(8) 0.5701(7) 0.1859(5)
H39 H 0.4346 0.5194 0.1688
C57 C 0.4992(8) 0.7225(8) 0.2237(5)
H40 H 0.4762 0.7746 0.2321
C58 C 0.5946(8) 0.7170(8) 0.2407(5)
C59 C 0.6249(8) 0.6366(8) 0.2268(5)
H41 H 0.6876 0.6338 0.2355
C60 C 0.6327(10) 0.8818(9) 0.2672(5)
H42 H 0.5695 0.9023 0.2450
C61 C 0.7597(8) 0.7874(9) 0.3075(5)
C62 C 0.7834(10) 0.8792(11) 0.3245(5)
C63 C 0.8246(9) 0.7142(10) 0.3286(6)
H43 H 0.8060 0.6521 0.3196
C64 C 0.8805(11) 0.9004(13) 0.3606(6)
H44 H 0.8993 0.9621 0.3710
C65 C 0.9186(10) 0.7405(14) 0.3638(6)
H45 H 0.9654 0.6942 0.3770
C66 C 0.9483(11) 0.8309(16) 0.3810(6)
H46 H 1.0129 0.8445 0.4059
Cd1A Cd 0.87357(5) 0.28448(5) 0.30172(3)
Cd2_2 Cd -0.36919(5) 0.41353(5) 0.20203(3)
Cd2A Cd 0.36919(5) 0.91353(5) 0.29797(3)
N2_2 N 0.7203(6) 0.4947(7) 0.1790(4)
O2A O 0.7392(6) 0.2794(6) 0.2092(3)
O5A O 0.2352(6) 0.9148(6) 0.2050(3)
loop_
_geom_bond_atom_site_label_1
_geom_bond_atom_site_label_2
_geom_bond_site_symmetry_1
_geom_bond_site_symmetry_2
Cd1 N3 1_555 1_555
Cd2 N8 1_555 1_555
N1 C5 1_555 1_555
N2 C6 1_555 1_555
N3 C9 1_555 1_555
N4 C11 1_555 1_555
N5 C13 1_555 1_555
N6 Cd1 1_555 1_555
N7 C48 1_555 1_555
N8 C56 1_555 1_555
N9 C58 1_555 1_555
N10 C60 1_555 1_555
O1 Cd1 1_555 1_555
O2 Cd1 1_555 1_555
O3 Cd1 1_555 1_555
O4 Cd1 1_555 1_555
O5 Cd2 1_555 1_555
O6 Cd2 1_555 1_555
O7 Cd2 1_555 1_555
O8 Cd2 1_555 1_555
C1 H1 1_555 1_555
C2 C1 1_555 1_555
H2 C2 1_555 1_555
C3 C1 1_555 1_555
H3 C3 1_555 1_555
C4 C2 1_555 1_555
H4 C4 1_555 1_555
C5 C3 1_555 1_555
C6 C4 1_555 1_555
C7 N1 1_555 1_555
H5 C7 1_555 1_555
C8 N1 1_555 1_555
C9 C8 1_555 1_555
H6 C9 1_555 1_555
C10 C8 1_555 1_555
H7 C10 1_555 1_555
C11 C10 1_555 1_555
C12 N3 1_555 1_555
H8 C12 1_555 1_555
C13 N4 1_555 1_555
H9 C13 1_555 1_555
C14 N4 1_555 1_555
C15 N5 1_555 1_555
C16 C14 1_555 1_555
H10 C16 1_555 1_555
C17 C15 1_555 1_555
H11 C17 1_555 1_555
C18 C16 1_555 1_555
H12 C18 1_555 1_555
C19 C17 1_555 1_555
H13 C19 1_555 1_555
C20 O1 1_555 1_555
C21 C20 1_555 1_555
C22 C21 1_555 1_555
H14 C22 1_555 1_555
C23 C21 1_555 1_555
H15 C23 1_555 1_555
C24 C22 1_555 1_555
H16 C24 1_555 1_555
C25 C23 1_555 1_555
H17 C25 1_555 1_555
C26 C24 1_555 1_555
H18 C26 1_555 1_555
C27 O3 1_555 1_555
C28 C27 1_555 1_555
C29 C28 1_555 1_555
H19 C29 1_555 1_555
C30 C28 1_555 1_555
H20 C30 1_555 1_555
C31 C29 1_555 1_555
H21 C31 1_555 1_555
C32 C30 1_555 1_555
H22 C32 1_555 1_555
C33 C31 1_555 1_555
H23 C33 1_555 1_555
C34 O5 1_555 1_555
C35 C34 1_555 1_555
C36 C35 1_555 1_555
H24 C36 1_555 1_555
C37 C35 1_555 1_555
H25 C37 1_555 1_555
C38 C36 1_555 1_555
H26 C38 1_555 1_555
C39 C37 1_555 1_555
H27 C39 1_555 1_555
C40 C38 1_555 1_555
H28 C40 1_555 1_555
C41 O7 1_555 1_555
C42 C41 1_555 1_555
C43 C42 1_555 1_555
H29 C43 1_555 1_555
C44 C42 1_555 1_555
H30 C44 1_555 1_555
C45 C43 1_555 1_555
H31 C45 1_555 1_555
C46 C44 1_555 1_555
H32 C46 1_555 1_555
C47 C45 1_555 1_555
H33 C47 1_555 1_555
C48 N6 1_555 1_555
H34 C48 1_555 1_555
C49 N6 1_555 1_555
C50 N7 1_555 1_555
C51 C49 1_555 1_555
H35 C51 1_555 1_555
C52 C50 1_555 1_555
H36 C52 1_555 1_555
C53 C51 1_555 1_555
H37 C53 1_555 1_555
C54 C52 1_555 1_555
H38 C54 1_555 1_555
C55 N7 1_555 1_555
C56 C55 1_555 1_555
H39 C56 1_555 1_555
C57 C55 1_555 1_555
H40 C57 1_555 1_555
C58 C57 1_555 1_555
C59 N8 1_555 1_555
H41 C59 1_555 1_555
C60 N9 1_555 1_555
H42 C60 1_555 1_555
C61 N9 1_555 1_555
C62 N10 1_555 1_555
C63 C61 1_555 1_555
H43 C63 1_555 1_555
C64 C62 1_555 1_555
H44 C64 1_555 1_555
C65 C63 1_555 1_555
H45 C65 1_555 1_555
C66 C64 1_555 1_555
H46 C66 1_555 1_555
Cd1A O5 1_555 1_555
Cd2_2 N2 1_555 1_555
Cd2A O2 1_555 1_555
N2_2 Cd2 1_555 1_555
O2A Cd2 1_555 1_555
O5A Cd1 1_555 1_555
N2 C7 1_555 1_555
O2 C20 1_555 1_555
O4 C27 1_555 1_555
O6 C34 1_555 1_555
O8 C41 1_555 1_555
C5 C6 1_555 1_555
C11 C12 1_555 1_555
C14 C15 1_555 1_555
C18 C19 1_555 1_555
C25 C26 1_555 1_555
C32 C33 1_555 1_555
C39 C40 1_555 1_555
C46 C47 1_555 1_555
C49 C50 1_555 1_555
C53 C54 1_555 1_555
C58 C59 1_555 1_555
C61 C62 1_555 1_555
C65 C66 1_555 1_555
Cd1A O2A 1_555 1_555
Cd2A O5A 1_555 1_555

#END
