
#######################################################################
#
#                 Cambridge Crystallographic Data Centre
#                                CCDC 
#
#######################################################################
#
# If this CIF has been generated from an entry in the Cambridge 
# Structural Database, then it will include bibliographic, chemical, 
# crystal, experimental, refinement or atomic coordinate data resulting 
# from the CCDC's data processing and validation procedures.
#
#######################################################################

data_VIZCUD
_symmetry_cell_setting           monoclinic
_symmetry_space_group_name_H-M   'P 21/c'
_symmetry_Int_Tables_number      14
_space_group_name_Hall           '-P 2ybc'
loop_
_symmetry_equiv_pos_site_id
_symmetry_equiv_pos_as_xyz
1 x,y,z
2 -x,1/2+y,1/2-z
3 -x,-y,-z
4 x,1/2-y,1/2+z
_cell_length_a                   7.4688(4)
_cell_length_b                   13.2245(10)
_cell_length_c                   21.0460(15)
_cell_angle_alpha                90
_cell_angle_beta                 93.657(2)
_cell_angle_gamma                90
_cell_volume                     2074.5
loop_
_atom_site_label
_atom_site_type_symbol
_atom_site_fract_x
_atom_site_fract_y
_atom_site_fract_z
Cu1 Cu 0.37048(2) 0.373191(15) 0.117986(9)
N1 N 0.32580(18) 0.23429(11) 0.07961(7)
N2 N 0.27577(16) 0.41084(11) 0.03319(6)
N3 N 0.40623(18) 0.52558(11) 0.12192(7)
C1 C 0.3558(3) 0.14573(15) 0.10900(10)
H1 H 0.4095 0.1454 0.1501
C2 C 0.3096(3) 0.05476(17) 0.08027(12)
H2 H 0.3295 -0.0059 0.1019
C3 C 0.2340(3) 0.05543(16) 0.01926(12)
H3 H 0.2043 -0.0051 -0.0013
C4 C 0.2025(3) 0.14608(16) -0.01134(11)
H4 H 0.1509 0.1475 -0.0527
C5 C 0.2477(2) 0.23455(13) 0.01977(8)
C6 C 0.2186(2) 0.33710(14) -0.00690(8)
C7 C 0.1456(2) 0.36219(15) -0.06719(9)
H5 H 0.1040 0.3123 -0.0955
C8 C 0.1365(2) 0.46276(16) -0.08400(9)
H6 H 0.0875 0.4805 -0.1242
C9 C 0.1982(2) 0.53797(15) -0.04266(9)
H7 H 0.1926 0.6057 -0.0545
C10 C 0.26895(19) 0.50873(13) 0.01737(8)
C11 C 0.3462(2) 0.57584(13) 0.06829(8)
C12 C 0.3611(2) 0.67912(14) 0.06312(10)
H8 H 0.3174 0.7124 0.0264
C13 C 0.4424(3) 0.73271(15) 0.11359(11)
H9 H 0.4553 0.8025 0.1109
C14 C 0.5036(3) 0.68227(16) 0.16753(10)
H10 H 0.5589 0.7174 0.2017
C15 C 0.4824(3) 0.57880(16) 0.17064(9)
H11 H 0.5222 0.5450 0.2076
N4 N 0.57155(18) 0.33773(13) 0.17876(7)
N5 N 1.1497(2) 0.36397(13) 0.17647(8)
N6 N 0.9109(2) 0.34409(17) 0.36153(8)
C16 C 0.8747(2) 0.34376(13) 0.24032(8)
C17 C 0.7067(2) 0.34045(13) 0.20750(8)
C18 C 1.0265(2) 0.35370(13) 0.20528(8)
C19 C 0.8931(2) 0.34390(15) 0.30727(9)
Cu1_2 Cu 1.37048(2) 0.373191(15) 0.117986(9)
N5_2 N 0.1497(2) 0.36397(13) 0.17647(8)
C20 C 0.8525(3) 0.08492(15) 0.16995(10)
C21 C 0.8403(3) 0.14895(16) 0.11742(10)
C22 C 0.7262(3) 0.00690(17) 0.17547(10)
C23 C 0.9939(3) 0.09590(16) 0.21694(12)
N7 N 0.8280(3) 0.20238(17) 0.07373(9)
N8 N 0.6223(3) -0.05608(18) 0.18018(11)
N9 N 1.1077(4) 0.10540(18) 0.25518(14)
loop_
_geom_bond_atom_site_label_1
_geom_bond_atom_site_label_2
_geom_bond_site_symmetry_1
_geom_bond_site_symmetry_2
Cu1 N1 1_555 1_555
N1 C1 1_555 1_555
N2 Cu1 1_555 1_555
N3 Cu1 1_555 1_555
C1 H1 1_555 1_555
C2 C1 1_555 1_555
H2 C2 1_555 1_555
C3 C2 1_555 1_555
H3 C3 1_555 1_555
C4 C3 1_555 1_555
H4 C4 1_555 1_555
C5 N1 1_555 1_555
C6 N2 1_555 1_555
C7 C6 1_555 1_555
H5 C7 1_555 1_555
C8 C7 1_555 1_555
H6 C8 1_555 1_555
C9 C8 1_555 1_555
H7 C9 1_555 1_555
C10 N2 1_555 1_555
C11 N3 1_555 1_555
C12 C11 1_555 1_555
H8 C12 1_555 1_555
C13 C12 1_555 1_555
H9 C13 1_555 1_555
C14 C13 1_555 1_555
H10 C14 1_555 1_555
C15 N3 1_555 1_555
H11 C15 1_555 1_555
N4 Cu1 1_555 1_555
N5 C18 1_555 1_555
N6 C19 1_555 1_555
C16 C17 1_555 1_555
C17 N4 1_555 1_555
C18 C16 1_555 1_555
C19 C16 1_555 1_555
C20 C21 1_555 1_555
C21 N7 1_555 1_555
C22 C20 1_555 1_555
C23 C20 1_555 1_555
N8 C22 1_555 1_555
N9 C23 1_555 1_555
Cu1_2 N5 1_555 1_555
N5_2 Cu1 1_555 1_555
C4 C5 1_555 1_555
C5 C6 1_555 1_555
C9 C10 1_555 1_555
C10 C11 1_555 1_555
C14 C15 1_555 1_555

#END
