
#######################################################################
#
#                 Cambridge Crystallographic Data Centre
#                                CCDC 
#
#######################################################################
#
# If this CIF has been generated from an entry in the Cambridge 
# Structural Database, then it will include bibliographic, chemical, 
# crystal, experimental, refinement or atomic coordinate data resulting 
# from the CCDC's data processing and validation procedures.
#
#######################################################################

data_VIZDOY
_symmetry_cell_setting           triclinic
_symmetry_space_group_name_H-M   'P -1'
_symmetry_Int_Tables_number      2
_space_group_name_Hall           '-P 1'
loop_
_symmetry_equiv_pos_site_id
_symmetry_equiv_pos_as_xyz
1 x,y,z
2 -x,-y,-z
_cell_length_a                   7.0373(9)
_cell_length_b                   8.2418(10)
_cell_length_c                   9.2150(10)
_cell_angle_alpha                70.812(9)
_cell_angle_beta                 83.801(10)
_cell_angle_gamma                80.635(10)
_cell_volume                     497.197
loop_
_atom_site_label
_atom_site_type_symbol
_atom_site_fract_x
_atom_site_fract_y
_atom_site_fract_z
C1 C 0.5259(4) 0.3466(4) 0.8100(4)
C2 C 0.6837(5) 0.4344(4) 0.7636(4)
H1 H 0.7111 0.4939 0.6605
C3 C 0.7998(4) 0.4303(4) 0.8771(4)
H2 H 0.9084 0.4872 0.8503
C4 C 0.7556(4) 0.3414(4) 1.0318(4)
H3 H 0.8340 0.3421 1.1065
C5 C 0.5979(5) 0.2528(4) 1.0755(4)
H4 H 0.5694 0.1935 1.1785
C6 C 0.4837(4) 0.2546(4) 0.9623(4)
C7 C 0.3090(4) 0.1658(4) 0.9786(4)
C8 C 0.0496(4) 0.1714(4) 0.4331(4)
H5 H 0.1059 0.2682 0.4402
H6 H 0.0045 0.2023 0.3305
C9 C 0.2007(4) 0.0117(4) 0.4619(4)
H7 H 0.3082 0.0349 0.3863
H8 H 0.2490 -0.0170 0.5633
N1 N 0.2334(4) 0.1924(3) 0.8438(3)
N2 N -0.1141(4) 0.1349(4) 0.5486(3)
H9 H -0.2053 0.2300 0.5247
O1 O 0.2258(3) 0.4852(3) 0.6392(3)
O2 O 0.4322(3) 0.2405(3) 0.5894(3)
O3 O 0.2479(3) 0.0776(3) 1.1053(3)
S1 S 0.34819(11) 0.32354(10) 0.70060(9)
Ag1 Ag -0.01310(3) 0.09838(3) 0.79066(2)
C1A C -0.5259(4) -0.3466(4) 1.1900(4)
C2A C -0.6837(5) -0.4344(4) 1.2364(4)
H1A H -0.7111 -0.4939 1.3395
C3A C -0.7998(4) -0.4303(4) 1.1229(4)
H2A H -0.9084 -0.4872 1.1497
C4A C -0.7556(4) -0.3414(4) 0.9682(4)
H3A H -0.8340 -0.3421 0.8935
C5A C -0.5979(5) -0.2528(4) 0.9245(4)
H4A H -0.5694 -0.1935 0.8215
C6A C -0.4837(4) -0.2546(4) 1.0377(4)
C7A C -0.3090(4) -0.1658(4) 1.0214(4)
C8A C -0.0496(4) -0.1714(4) 0.5669(4)
H5A H -0.1059 -0.2682 0.5598
H6A H -0.0045 -0.2023 0.6695
C9A C -0.2007(4) -0.0117(4) 0.5381(4)
H7A H -0.3082 -0.0349 0.6137
H8A H -0.2490 0.0170 0.4367
N1A N -0.2334(4) -0.1924(3) 1.1562(3)
N2A N 0.1141(4) -0.1349(4) 0.4514(3)
N2A_2 N 0.1141(4) -0.1349(4) 1.4514(3)
H9A H 0.2053 -0.2300 0.4753
H9A_2 H 0.2053 -0.2300 1.4753
O1A O -0.2258(3) -0.4852(3) 1.3608(3)
O2A O -0.4322(3) -0.2405(3) 1.4106(3)
O3A O -0.2479(3) -0.0776(3) 0.8947(3)
S1A S -0.34819(11) -0.32354(10) 1.29940(9)
Ag1A Ag 0.01310(3) -0.09838(3) 1.20934(2)
Ag1A_2 Ag 0.01310(3) -0.09838(3) 0.20934(2)
loop_
_geom_bond_atom_site_label_1
_geom_bond_atom_site_label_2
_geom_bond_site_symmetry_1
_geom_bond_site_symmetry_2
C1 C2 1_555 1_555
C2 H1 1_555 1_555
C3 C2 1_555 1_555
H2 C3 1_555 1_555
C4 C3 1_555 1_555
H3 C4 1_555 1_555
C5 C4 1_555 1_555
H4 C5 1_555 1_555
C6 C1 1_555 1_555
C7 C6 1_555 1_555
C8 H5 1_555 1_555
H6 C8 1_555 1_555
C9 C8 1_555 1_555
H7 C9 1_555 1_555
H8 C9 1_555 1_555
N1 C7 1_555 1_555
N2 C8 1_555 1_555
H9 N2 1_555 1_555
O1 S1 1_555 1_555
O2 S1 1_555 1_555
O3 C7 1_555 1_555
S1 C1 1_555 1_555
Ag1 N1 1_555 1_555
C1A C2A 1_555 1_555
C2A H1A 1_555 1_555
C3A C2A 1_555 1_555
H2A C3A 1_555 1_555
C4A C3A 1_555 1_555
H3A C4A 1_555 1_555
C5A C4A 1_555 1_555
H4A C5A 1_555 1_555
C6A C1A 1_555 1_555
C7A C6A 1_555 1_555
C8A H5A 1_555 1_555
H6A C8A 1_555 1_555
C9A N2 1_555 1_555
H7A C9A 1_555 1_555
H8A C9A 1_555 1_555
N1A C7A 1_555 1_555
N2A C9 1_555 1_555
N2A_2 H9A_2 1_555 1_555
H9A N2A 1_555 1_555
O1A S1A 1_555 1_555
O2A S1A 1_555 1_555
O3A Ag1 1_555 1_555
S1A C1A 1_555 1_555
Ag1A O3 1_555 1_555
Ag1A_2 N2A 1_555 1_555
C5 C6 1_555 1_555
N1 S1 1_555 1_555
N2 Ag1 1_555 1_555
C5A C6A 1_555 1_555
C7A O3A 1_555 1_555
C8A C9A 1_555 1_555
C8A N2A 1_555 1_555
N1A S1A 1_555 1_555
N1A Ag1A 1_555 1_555
N2A_2 Ag1A 1_555 1_555

#END
