
#######################################################################
#
#                 Cambridge Crystallographic Data Centre
#                                CCDC 
#
#######################################################################
#
# If this CIF has been generated from an entry in the Cambridge 
# Structural Database, then it will include bibliographic, chemical, 
# crystal, experimental, refinement or atomic coordinate data resulting 
# from the CCDC's data processing and validation procedures.
#
#######################################################################

data_VIZMOI
_symmetry_cell_setting           orthorhombic
_symmetry_space_group_name_H-M   'P n a 21'
_symmetry_Int_Tables_number      33
_space_group_name_Hall           'P 2c -2n'
loop_
_symmetry_equiv_pos_site_id
_symmetry_equiv_pos_as_xyz
1 x,y,z
2 -x,-y,1/2+z
3 1/2+x,1/2-y,z
4 1/2-x,1/2+y,1/2+z
_cell_length_a                   20.612(6)
_cell_length_b                   10.248(3)
_cell_length_c                   11.099(3)
_cell_angle_alpha                90
_cell_angle_beta                 90
_cell_angle_gamma                90
_cell_volume                     2344.46
loop_
_atom_site_label
_atom_site_type_symbol
_atom_site_fract_x
_atom_site_fract_y
_atom_site_fract_z
C1 C 1.1145(4) 0.5268(6) 0.4092(7)
C2 C 1.1173(3) 0.4609(5) 0.3078(6)
H1 H 1.0875 0.4767 0.2440
C3 C 1.1631(4) 0.3719(7) 0.2984(8)
C4 C 1.2080(4) 0.3452(8) 0.3881(7)
H2 H 1.2410 0.2814 0.3780
C5 C 1.2020(4) 0.4164(7) 0.4929(8)
H3 H 1.2312 0.4008 0.5576
C6 C 1.1550(4) 0.5087(7) 0.5051(7)
H4 H 1.1506 0.5582 0.5770
C7 C 1.0557(4) 0.7239(8) 0.4939(9)
H5 H 1.0854 0.7437 0.5568
C8 C 1.0092(3) 0.6292(7) 0.3434(8)
H6 H 0.9996 0.5712 0.2791
C9 C 1.2005(4) 0.1938(8) 0.1581(9)
H7 H 1.2287 0.1501 0.2125
C10 C 1.1308(4) 0.3305(8) 0.0849(8)
H8 H 1.1009 0.4006 0.0764
C11 C 0.9188(4) 0.9328(7) -0.1342(7)
C12 C 0.8711(3) 1.0150(6) -0.1391(6)
H9 H 0.8402 1.0202 -0.0757
C13 C 0.8667(3) 1.0902(7) -0.2333(7)
C14 C 0.9107(4) 1.0882(7) -0.3303(7)
H10 H 0.9068 1.1463 -0.3966
C15 C 0.9602(4) 0.9961(7) -0.3235(8)
H11 H 0.9903 0.9877 -0.3877
C16 C 0.9653(4) 0.9179(7) -0.2247(8)
H12 H 0.9992 0.8556 -0.2177
C17 C 0.9613(3) 0.7496(7) -0.0038(8)
H13 H 0.9911 0.7134 -0.0597
C18 C 0.8883(4) 0.8740(7) 0.0760(8)
H14 H 0.8570 0.9405 0.0889
C19 C 0.8047(4) 1.2883(7) -0.3072(8)
H15 H 0.8376 1.3256 -0.3564
C20 C 0.7543(3) 1.1585(7) -0.1837(9)
H16 H 0.7443 1.0890 -0.1302
Cu1 Cu 0.88102(4) 0.76376(8) 0.32849(11)
F1 F 0.8840(3) 0.2225(4) 0.4183(5)
F2 F 0.8742(2) 0.5252(4) 0.2975(4)
F3 F 0.9197(2) 0.4301(4) 0.4770(5)
F4 F 0.8083(2) 0.4004(5) 0.4296(5)
F5 F 0.8392(2) 0.3123(5) 0.2388(5)
F6 F 0.9487(2) 0.3482(4) 0.2840(4)
N1 N 0.9730(3) 0.7268(6) 0.3768(6)
N2 N 1.0041(3) 0.7875(6) 0.4725(7)
N3 N 1.0629(3) 0.6229(6) 0.4141(6)
N4 N 1.1455(3) 0.2475(6) 0.0010(6)
N5 N 1.1909(3) 0.1592(7) 0.0475(7)
N6 N 1.1643(3) 0.3023(6) 0.1864(6)
N7 N 0.9062(3) 0.7862(6) 0.1543(6)
N8 N 0.9528(3) 0.7061(6) 0.1034(6)
N9 N 0.9225(3) 0.8539(6) -0.0279(6)
N10 N 0.7143(3) 1.2521(6) -0.2149(6)
N11 N 0.7467(3) 1.3359(6) -0.2946(7)
N12 N 0.8123(3) 1.1766(5) -0.2398(6)
O1 O 0.8605(3) 0.9866(5) 0.3335(8)
H17 H 0.8952 1.0269 0.3514
H18 H 0.8317 1.0025 0.3863
Si1 Si 0.87860(11) 0.37498(19) 0.3584(2)
Cu1A Cu 1.11898(4) 0.23624(8) -0.17151(11)
Cu1C Cu 0.61898(4) 1.26376(8) -0.17151(11)
N4A N 0.8545(3) 0.7525(6) 0.5010(6)
N10C N 0.7857(3) 0.7521(6) 0.2851(6)
O2 O 0.7909(8) 0.1008(13) 0.1139(16)
H19 H 0.7867 0.0581 0.1783
H20 H 0.8010 0.1777 0.1357
loop_
_geom_bond_atom_site_label_1
_geom_bond_atom_site_label_2
_geom_bond_site_symmetry_1
_geom_bond_site_symmetry_2
C1 C2 1_555 1_555
C2 H1 1_555 1_555
C3 C2 1_555 1_555
C4 C3 1_555 1_555
H2 C4 1_555 1_555
C5 C4 1_555 1_555
H3 C5 1_555 1_555
C6 C1 1_555 1_555
H4 C6 1_555 1_555
C7 H5 1_555 1_555
C8 H6 1_555 1_555
C9 H7 1_555 1_555
C10 H8 1_555 1_555
C11 C12 1_555 1_555
C12 H9 1_555 1_555
C13 C12 1_555 1_555
C14 C13 1_555 1_555
H10 C14 1_555 1_555
C15 C14 1_555 1_555
H11 C15 1_555 1_555
C16 C11 1_555 1_555
H12 C16 1_555 1_555
C17 H13 1_555 1_555
C18 H14 1_555 1_555
C19 H15 1_555 1_555
C20 H16 1_555 1_555
Cu1 F2 1_555 1_555
F1 Si1 1_555 1_555
F2 Si1 1_555 1_555
F3 Si1 1_555 1_555
F4 Si1 1_555 1_555
F5 Si1 1_555 1_555
F6 Si1 1_555 1_555
N1 C8 1_555 1_555
N2 C7 1_555 1_555
N3 C1 1_555 1_555
N4 C10 1_555 1_555
N5 C9 1_555 1_555
N6 C3 1_555 1_555
N7 C18 1_555 1_555
N8 C17 1_555 1_555
N9 C11 1_555 1_555
N10 C20 1_555 1_555
N11 C19 1_555 1_555
N12 C13 1_555 1_555
O1 Cu1 1_555 1_555
H17 O1 1_555 1_555
H18 O1 1_555 1_555
O2 H19 1_555 1_555
H20 O2 1_555 1_555
Cu1A N4 1_555 1_555
Cu1C N10 1_555 1_555
N4A Cu1 1_555 1_555
N10C Cu1 1_555 1_555
C5 C6 1_555 1_555
C7 N3 1_555 1_555
C8 N3 1_555 1_555
C9 N6 1_555 1_555
C10 N6 1_555 1_555
C15 C16 1_555 1_555
C17 N9 1_555 1_555
C18 N9 1_555 1_555
C19 N12 1_555 1_555
C20 N12 1_555 1_555
Cu1 N1 1_555 1_555
Cu1 N7 1_555 1_555
N1 N2 1_555 1_555
N4 N5 1_555 1_555
N7 N8 1_555 1_555
N10 N11 1_555 1_555

#END
