
#######################################################################
#
#                 Cambridge Crystallographic Data Centre
#                                CCDC 
#
#######################################################################
#
# If this CIF has been generated from an entry in the Cambridge 
# Structural Database, then it will include bibliographic, chemical, 
# crystal, experimental, refinement or atomic coordinate data resulting 
# from the CCDC's data processing and validation procedures.
#
#######################################################################

data_VIZNAV
_symmetry_cell_setting           triclinic
_symmetry_space_group_name_H-M   'P -1'
_symmetry_Int_Tables_number      2
_space_group_name_Hall           '-P 1'
loop_
_symmetry_equiv_pos_site_id
_symmetry_equiv_pos_as_xyz
1 x,y,z
2 -x,-y,-z
_cell_length_a                   8.214(3)
_cell_length_b                   8.649(4)
_cell_length_c                   13.012(5)
_cell_angle_alpha                102.846(18)
_cell_angle_beta                 101.386(12)
_cell_angle_gamma                93.070(19)
_cell_volume                     878.931
loop_
_atom_site_label
_atom_site_type_symbol
_atom_site_fract_x
_atom_site_fract_y
_atom_site_fract_z
Zn1 Zn 0.80937(6) 0.91603(6) 0.89379(4)
Zn2 Zn 0.35070(7) 0.52623(7) 0.78164(5)
C1 C 0.5872(7) 0.9596(6) 0.5916(4)
C2 C 0.5388(8) 0.8448(7) 0.4940(4)
H1 H 0.5659 0.7410 0.4902
C3 C 0.6800(7) 0.9139(7) 0.6902(4)
C4 C 0.8456(6) 0.5452(6) 0.9560(4)
C5 C 0.8959(6) 0.4001(6) 0.9087(4)
H2 H 0.8266 0.3330 0.8482
C6 C 0.6802(6) 0.5928(6) 0.9069(4)
C7 C 0.0540(7) 0.1470(7) 0.5735(5)
C8 C 0.0992(8) 0.0041(7) 0.6013(5)
H3 H 0.1658 0.0071 0.6686
C9 C 0.1166(7) 0.3077(7) 0.6491(5)
C10 C 0.7063(6) 1.1879(6) 1.0497(4)
H4 H 0.6002 1.1803 1.0064
C11 C 0.9181(6) 1.2652(6) 1.1761(4)
H5 H 0.9899 1.3233 1.2390
O1 O 0.4147(6) 0.5888(7) 0.6584(4)
H6 H 0.5221 0.5921 0.6525
H7 H 0.3367 0.6142 0.6075
O2 O 0.7045(6) 1.0167(5) 0.7799(3)
O3 O 0.7208(6) 0.7763(5) 0.6857(3)
O4 O 0.6616(4) 0.7363(4) 0.9073(3)
O5 O 0.5630(5) 0.4837(5) 0.8670(4)
O6 O 0.2424(5) 0.3085(5) 0.7269(3)
O7 O 0.0548(7) 0.4288(5) 0.6341(4)
N1 N 0.8197(5) 1.0924(5) 1.0268(3)
N2 N 0.9589(5) 1.1429(5) 1.1102(3)
N3 N 0.7607(5) 1.2976(5) 1.1428(4)
C12 C 1.0508(6) 0.3554(6) 0.9523(4)
H8 H 1.0851 0.2591 0.9201
C13 C 0.4511(8) 0.8849(7) 0.4035(5)
H9 H 0.4175 0.8077 0.3390
C14 C 0.0442(8) -0.1403(8) 0.5282(5)
H10 H 0.0731 -0.2343 0.5471
C1A C 0.4128(7) 1.0404(6) 0.4084(4)
C2A C 0.4612(8) 1.1552(7) 0.5060(4)
H1A H 0.4341 1.2590 0.5098
C3A C 0.3200(7) 1.0861(7) 0.3098(4)
O2A O 0.2955(6) 0.9833(5) 0.2201(3)
O3A O 0.2792(6) 1.2237(5) 0.3143(3)
C13A C 0.5489(8) 1.1151(7) 0.5965(5)
H9A H 0.5825 1.1923 0.6610
C4A C 1.1544(6) 0.4548(6) 1.0440(4)
C5A C 1.1041(6) 0.5999(6) 1.0913(4)
H2A H 1.1734 0.6670 1.1518
C6A C 1.3198(6) 0.4072(6) 1.0931(4)
O4A O 1.3384(4) 0.2637(4) 1.0927(3)
O5A O 1.4370(5) 0.5163(5) 1.1330(4)
C12A C 0.9492(6) 0.6446(6) 1.0477(4)
H8A H 0.9149 0.7409 1.0799
C7A C -0.0540(7) -0.1470(7) 0.4265(5)
C8A C -0.0992(8) -0.0041(7) 0.3987(5)
H3A H -0.1658 -0.0071 0.3314
C9A C -0.1166(7) -0.3077(7) 0.3509(5)
O6A O -0.2424(5) -0.3085(5) 0.2731(3)
O7A O -0.0548(7) -0.4288(5) 0.3659(4)
C14A C -0.0442(8) 0.1403(8) 0.4718(5)
H10A H -0.0731 0.2343 0.4529
Zn2A Zn -0.35070(7) -0.52623(7) 0.21836(5)
O1A O -0.4147(6) -0.5888(7) 0.3416(4)
H6A H -0.5221 -0.5921 0.3475
H7A H -0.3367 -0.6142 0.3925
Zn1A Zn 1.19063(6) 1.08397(6) 1.10621(4)
C10A C 1.2937(6) 0.8121(6) 0.9503(4)
H4A H 1.3998 0.8197 0.9936
C11A C 1.0819(6) 0.7348(6) 0.8239(4)
H5A H 1.0101 0.6767 0.7610
N1A N 1.1803(5) 0.9076(5) 0.9732(3)
N2A N 1.0411(5) 0.8571(5) 0.8898(3)
N3A N 1.2393(5) 0.7024(5) 0.8572(4)
Zn1A_2 Zn 0.19063(6) 1.08397(6) 0.10621(4)
Zn1A_3 Zn 1.19063(6) 0.08397(6) 1.10621(4)
Zn2_2 Zn 1.35070(7) 0.52623(7) 0.78164(5)
Zn2A_2 Zn 0.64930(7) 1.47377(7) 1.21836(5)
Zn2A_3 Zn 1.64930(7) 0.47377(7) 1.21836(5)
O2A_2 O 1.2955(6) 0.9833(5) 1.2201(3)
O4A_2 O 1.3384(4) 1.2637(4) 1.0927(3)
O5A_2 O -0.5630(5) -0.4837(5) 0.1330(4)
N3_2 N -0.2393(5) -0.7024(5) 0.1428(4)
N3A_2 N 0.2393(5) 0.7024(5) 0.8572(4)
O8 O 0.3939(12) 0.0972(12) 0.8463(7)
O9 O 0.2569(7) 0.5098(7) 0.4552(4)
loop_
_geom_bond_atom_site_label_1
_geom_bond_atom_site_label_2
_geom_bond_site_symmetry_1
_geom_bond_site_symmetry_2
Zn1 O2 1_555 1_555
Zn2 O1 1_555 1_555
C1 C2 1_555 1_555
C2 H1 1_555 1_555
C3 C1 1_555 1_555
C4 C5 1_555 1_555
C5 H2 1_555 1_555
C6 C4 1_555 1_555
C7 C8 1_555 1_555
C8 H3 1_555 1_555
C9 C7 1_555 1_555
C10 H4 1_555 1_555
C11 H5 1_555 1_555
O1 H6 1_555 1_555
H7 O1 1_555 1_555
O2 C3 1_555 1_555
O3 C3 1_555 1_555
O4 Zn1 1_555 1_555
O5 Zn2 1_555 1_555
O6 Zn2 1_555 1_555
O7 C9 1_555 1_555
N1 Zn1 1_555 1_555
N2 C11 1_555 1_555
N3 C10 1_555 1_555
C12 C5 1_555 1_555
H8 C12 1_555 1_555
C13 C2 1_555 1_555
H9 C13 1_555 1_555
C14 C8 1_555 1_555
H10 C14 1_555 1_555
C1A C13 1_555 1_555
C2A C1A 1_555 1_555
H1A C2A 1_555 1_555
C3A C1A 1_555 1_555
O2A C3A 1_555 1_555
O3A C3A 1_555 1_555
C13A C1 1_555 1_555
H9A C13A 1_555 1_555
C4A C12 1_555 1_555
C5A C4A 1_555 1_555
H2A C5A 1_555 1_555
C6A C4A 1_555 1_555
O4A C6A 1_555 1_555
O5A C6A 1_555 1_555
C12A C4 1_555 1_555
H8A C12A 1_555 1_555
C7A C14 1_555 1_555
C8A C7A 1_555 1_555
H3A C8A 1_555 1_555
C9A C7A 1_555 1_555
O6A C9A 1_555 1_555
O7A C9A 1_555 1_555
C14A C7 1_555 1_555
H10A C14A 1_555 1_555
Zn2A O6A 1_555 1_555
O1A Zn2A 1_555 1_555
H6A O1A 1_555 1_555
H7A O1A 1_555 1_555
Zn1A N2 1_555 1_555
C10A H4A 1_555 1_555
C11A H5A 1_555 1_555
N1A Zn1A 1_555 1_555
N2A Zn1 1_555 1_555
N3A C10A 1_555 1_555
Zn1A_2 O2A 1_555 1_555
Zn1A_3 O4A 1_555 1_555
Zn2_2 N3A 1_555 1_555
Zn2A_2 N3 1_555 1_555
Zn2A_3 O5A 1_555 1_555
O2A_2 Zn1A 1_555 1_555
O4A_2 Zn1A 1_555 1_555
O5A_2 Zn2A 1_555 1_555
N3_2 Zn2A 1_555 1_555
N3A_2 Zn2 1_555 1_555
C6 O4 1_555 1_555
C6 O5 1_555 1_555
C9 O6 1_555 1_555
C10 N1 1_555 1_555
C11 N3 1_555 1_555
N1 N2 1_555 1_555
C2A C13A 1_555 1_555
C5A C12A 1_555 1_555
C8A C14A 1_555 1_555
C10A N1A 1_555 1_555
C11A N2A 1_555 1_555
C11A N3A 1_555 1_555
N1A N2A 1_555 1_555

#END
