
#######################################################################
#
#                 Cambridge Crystallographic Data Centre
#                                CCDC 
#
#######################################################################
#
# If this CIF has been generated from an entry in the Cambridge 
# Structural Database, then it will include bibliographic, chemical, 
# crystal, experimental, refinement or atomic coordinate data resulting 
# from the CCDC's data processing and validation procedures.
#
#######################################################################

data_VIZSAA
_symmetry_cell_setting           orthorhombic
_symmetry_space_group_name_H-M   'P n a 21'
_symmetry_Int_Tables_number      33
_space_group_name_Hall           'P 2c -2n'
loop_
_symmetry_equiv_pos_site_id
_symmetry_equiv_pos_as_xyz
1 x,y,z
2 -x,-y,1/2+z
3 1/2-x,1/2+y,1/2+z
4 1/2+x,1/2-y,z
_cell_length_a                   18.006(1)
_cell_length_b                   15.3229(9)
_cell_length_c                   20.969(1)
_cell_angle_alpha                90
_cell_angle_beta                 90
_cell_angle_gamma                90
_cell_volume                     5785.43
loop_
_atom_site_label
_atom_site_type_symbol
_atom_site_fract_x
_atom_site_fract_y
_atom_site_fract_z
N1 N 0.0337(5) 0.3253(4) 0.4878(4)
C1 C 0.0014(5) 0.2475(5) 0.4679(4)
H1 H -0.0342 0.2478 0.4345
C2 C 0.0214(5) 0.1693(4) 0.4967(4)
H2 H -0.0006 0.1161 0.4831
C3 C 0.0736(5) 0.1688(4) 0.5456(4)
C4 C 0.1058(5) 0.2466(5) 0.5656(4)
H3 H 0.1415 0.2463 0.5989
C5 C 0.0858(6) 0.3248(4) 0.5367(5)
H4 H 0.1079 0.3780 0.5503
N2 N 0.0411(5) -0.4542(4) 0.4840(5)
C6 C 0.1089(5) -0.4477(5) 0.5153(5)
H5 H 0.1419 -0.4961 0.5159
C7 C 0.1286(5) -0.3703(6) 0.5455(5)
H6 H 0.1750 -0.3658 0.5668
C8 C 0.0804(6) -0.2995(5) 0.5444(5)
C9 C 0.0125(5) -0.3060(5) 0.5132(5)
H7 H -0.0204 -0.2576 0.5125
C10 C -0.0071(5) -0.3834(6) 0.4830(5)
H8 H -0.0535 -0.3878 0.4617
N3 N 0.3986(5) -0.0608(4) 0.8721(4)
C11 C 0.3905(6) 0.0136(4) 0.8348(5)
H9 H 0.4189 0.0643 0.8440
C12 C 0.3409(6) 0.0137(4) 0.7840(4)
H10 H 0.3354 0.0645 0.7585
C13 C 0.2993(5) -0.0605(5) 0.7706(4)
C14 C 0.3074(5) -0.1349(4) 0.8079(5)
H11 H 0.2790 -0.1856 0.7987
C15 C 0.3571(5) -0.1350(4) 0.8587(4)
H12 H 0.3626 -0.1858 0.8842
C16 C 0.1027(12) 0.0855(9) 0.5752(7)
N4 N 0.0696(7) 0.0107(6) 0.5501(6)
C17 C 0.0979(9) -0.0651(7) 0.5729(7)
N5 N 0.0726(7) -0.1422(6) 0.5485(5)
C18 C 0.1038(10) -0.2135(9) 0.5707(7)
N6 N 0.1554(8) -0.2219(7) 0.6209(6)
C19 C 0.1762(9) -0.1406(8) 0.6444(7)
N7 N 0.2251(8) -0.1421(7) 0.6944(6)
C20 C 0.2476(9) -0.0610(8) 0.7136(8)
N8 N 0.2255(6) 0.0175(6) 0.6943(6)
C21 C 0.1750(8) 0.0157(8) 0.6464(7)
N9 N 0.1520(6) 0.0912(6) 0.6205(5)
C22 C 0.1478(9) -0.0641(7) 0.6212(7)
I1 I -0.09867(7) 0.43253(7) 0.37130(6)
Zn1 Zn 0.01736(11) 0.43544(9) 0.43548(8)
N2_2 N 0.0411(5) 0.5458(4) 0.4840(5)
N3B N 0.1014(5) 0.4392(4) 0.3721(4)
Zn1_2 Zn 0.01736(11) -0.56456(9) 0.43548(8)
Zn1B Zn 0.48264(11) -0.06456(9) 0.93548(8)
N10 N 0.4616(6) 0.4657(5) 0.7092(5)
C23 C 0.3959(7) 0.4602(5) 0.6747(7)
H13 H 0.3661 0.5107 0.6686
C24 C 0.3736(8) 0.3807(7) 0.6491(8)
H14 H 0.3287 0.3769 0.6255
C25 C 0.4171(8) 0.3068(5) 0.6579(7)
C26 C 0.4829(7) 0.3123(6) 0.6925(7)
H15 H 0.5126 0.2617 0.6985
C27 C 0.5051(5) 0.3918(7) 0.7181(6)
H16 H 0.5500 0.3955 0.7417
N11 N 0.4674(5) -0.3131(4) 0.7072(5)
C28 C 0.4960(5) -0.2353(6) 0.7307(4)
H17 H 0.5296 -0.2361 0.7657
C29 C 0.4756(6) -0.1564(5) 0.7031(5)
H18 H 0.4952 -0.1032 0.7192
C30 C 0.4265(8) -0.1553(5) 0.6520(6)
C31 C 0.3978(8) -0.2331(6) 0.6284(6)
H19 H 0.3643 -0.2324 0.5935
C32 C 0.4183(7) -0.3120(5) 0.6560(6)
H20 H 0.3987 -0.3652 0.6399
N12 N 0.1014(5) 0.0723(5) 0.3270(4)
C33 C 0.1050(5) 0.0005(4) 0.3673(5)
H21 H 0.0738 -0.0485 0.3599
C34 C 0.1540(6) 0.0004(4) 0.4185(4)
H22 H 0.1564 -0.0487 0.4461
C35 C 0.1996(5) 0.0721(5) 0.4293(4)
C36 C 0.1960(5) 0.1440(4) 0.3890(5)
H23 H 0.2272 0.1930 0.3964
C37 C 0.1470(5) 0.1441(4) 0.3378(4)
H24 H 0.1446 0.1932 0.3102
C38 C 0.4014(9) -0.0733(8) 0.6255(9)
N13 N 0.4336(8) -0.0006(7) 0.6495(8)
C39 C 0.4076(10) 0.0745(10) 0.6273(12)
N14 N 0.4293(9) 0.1538(9) 0.6483(8)
C40 C 0.3963(10) 0.2231(8) 0.6233(8)
N15 N 0.3487(9) 0.2274(8) 0.5814(8)
C41 C 0.3234(10) 0.1526(8) 0.5516(7)
N16 N 0.2721(7) 0.1517(7) 0.5052(7)
C42 C 0.2550(10) 0.0742(8) 0.4839(8)
N17 N 0.2713(8) -0.0058(7) 0.5076(7)
C43 C 0.3266(9) -0.0053(9) 0.5531(7)
N18 N 0.3519(10) -0.0814(7) 0.5803(8)
C44 C 0.3504(9) 0.0763(8) 0.5750(9)
I2 I 0.59842(8) 0.57972(9) 0.82659(8)
Zn2 Zn 0.48219(12) 0.57593(9) 0.76106(10)
N11_2 N 0.4674(5) 0.6869(4) 0.7072(5)
N12B N 0.3986(5) 0.5723(5) 0.8270(4)
Zn2_2 Zn 0.48219(12) -0.42407(9) 0.76106(10)
Zn2B Zn 0.01781(12) 0.07593(9) 0.26106(10)
O1 O 0.2668(12) -0.3310(15) 0.7049(11)
C45 C 0.2047(13) -0.3680(16) 0.7296(13)
O2 O -0.201(2) 0.132(3) 0.4648(18)
C46 C -0.2434(18) 0.123(2) 0.5184(16)
O3 O -0.236(2) -0.297(2) 0.4650(19)
C47 C -0.221(5) -0.212(3) 0.477(5)
O4 O -0.098(2) -0.061(2) 0.493(2)
C48 C -0.058(3) -0.108(4) 0.449(2)
O5 O 0.055(3) -0.245(4) 0.353(4)
C49 C 0.129(3) -0.240(3) 0.336(3)
O6 O -0.299(3) 0.298(3) 0.785(3)
C50 C -0.305(3) 0.209(3) 0.780(3)
O7 O -0.301(2) 0.053(2) 0.616(2)
C51 C -0.357(4) 0.070(5) 0.660(3)
loop_
_geom_bond_atom_site_label_1
_geom_bond_atom_site_label_2
_geom_bond_site_symmetry_1
_geom_bond_site_symmetry_2
N1 C1 1_555 1_555
C1 H1 1_555 1_555
C2 C1 1_555 1_555
H2 C2 1_555 1_555
C3 C2 1_555 1_555
C4 C3 1_555 1_555
H3 C4 1_555 1_555
C5 N1 1_555 1_555
H4 C5 1_555 1_555
N2 C6 1_555 1_555
C6 H5 1_555 1_555
C7 C6 1_555 1_555
H6 C7 1_555 1_555
C8 C7 1_555 1_555
C9 C8 1_555 1_555
H7 C9 1_555 1_555
C10 N2 1_555 1_555
H8 C10 1_555 1_555
N3 C11 1_555 1_555
C11 H9 1_555 1_555
C12 C11 1_555 1_555
H10 C12 1_555 1_555
C13 C12 1_555 1_555
C14 C13 1_555 1_555
H11 C14 1_555 1_555
C15 N3 1_555 1_555
H12 C15 1_555 1_555
C16 C3 1_555 1_555
N4 C16 1_555 1_555
C17 N4 1_555 1_555
N5 C17 1_555 1_555
C18 C8 1_555 1_555
N6 C18 1_555 1_555
C19 N6 1_555 1_555
N7 C19 1_555 1_555
C20 C13 1_555 1_555
N8 C20 1_555 1_555
C21 N8 1_555 1_555
N9 C16 1_555 1_555
C22 C17 1_555 1_555
I1 Zn1 1_555 1_555
Zn1 N1 1_555 1_555
N10 C23 1_555 1_555
C23 H13 1_555 1_555
C24 C23 1_555 1_555
H14 C24 1_555 1_555
C25 C24 1_555 1_555
C26 C25 1_555 1_555
H15 C26 1_555 1_555
C27 N10 1_555 1_555
H16 C27 1_555 1_555
N11 C28 1_555 1_555
C28 H17 1_555 1_555
C29 C28 1_555 1_555
H18 C29 1_555 1_555
C30 C29 1_555 1_555
C31 C30 1_555 1_555
H19 C31 1_555 1_555
C32 N11 1_555 1_555
H20 C32 1_555 1_555
N12 C33 1_555 1_555
C33 H21 1_555 1_555
C34 C33 1_555 1_555
H22 C34 1_555 1_555
C35 C34 1_555 1_555
C36 C35 1_555 1_555
H23 C36 1_555 1_555
C37 N12 1_555 1_555
H24 C37 1_555 1_555
C38 C30 1_555 1_555
N13 C38 1_555 1_555
C39 N13 1_555 1_555
N14 C39 1_555 1_555
C40 C25 1_555 1_555
N15 C40 1_555 1_555
C41 N15 1_555 1_555
N16 C41 1_555 1_555
C42 C35 1_555 1_555
N17 C42 1_555 1_555
C43 N17 1_555 1_555
N18 C38 1_555 1_555
C44 C39 1_555 1_555
I2 Zn2 1_555 1_555
Zn2 N10 1_555 1_555
O1 C45 1_555 1_555
O2 C46 1_555 1_555
O3 C47 1_555 1_555
O4 C48 1_555 1_555
O5 C49 1_555 1_555
O6 C50 1_555 1_555
O7 C51 1_555 1_555
N2_2 Zn1 1_555 1_555
N3B Zn1 1_555 1_555
Zn1_2 N2 1_555 1_555
Zn1B N3 1_555 1_555
N11_2 Zn2 1_555 1_555
N12B Zn2 1_555 1_555
Zn2_2 N11 1_555 1_555
Zn2B N12 1_555 1_555
C4 C5 1_555 1_555
C9 C10 1_555 1_555
C14 C15 1_555 1_555
N5 C18 1_555 1_555
C19 C22 1_555 1_555
N7 C20 1_555 1_555
C21 N9 1_555 1_555
C21 C22 1_555 1_555
C26 C27 1_555 1_555
C31 C32 1_555 1_555
C36 C37 1_555 1_555
N14 C40 1_555 1_555
C41 C44 1_555 1_555
N16 C42 1_555 1_555
C43 N18 1_555 1_555
C43 C44 1_555 1_555

#END
