
#######################################################################
#
#                 Cambridge Crystallographic Data Centre
#                                CCDC 
#
#######################################################################
#
# If this CIF has been generated from an entry in the Cambridge 
# Structural Database, then it will include bibliographic, chemical, 
# crystal, experimental, refinement or atomic coordinate data resulting 
# from the CCDC's data processing and validation procedures.
#
#######################################################################

data_VIZTEF
_symmetry_cell_setting           monoclinic
_symmetry_space_group_name_H-M   'P 21/n'
_symmetry_Int_Tables_number      14
_space_group_name_Hall           '-P 2yn'
loop_
_symmetry_equiv_pos_site_id
_symmetry_equiv_pos_as_xyz
1 x,y,z
2 1/2-x,1/2+y,1/2-z
3 -x,-y,-z
4 1/2+x,1/2-y,1/2+z
_cell_length_a                   23.1344(2)
_cell_length_b                   14.7104(1)
_cell_length_c                   26.8906(3)
_cell_angle_alpha                90
_cell_angle_beta                 110.4115(3)
_cell_angle_gamma                90
_cell_volume                     8576.72
loop_
_atom_site_label
_atom_site_type_symbol
_atom_site_fract_x
_atom_site_fract_y
_atom_site_fract_z
Zn1 Zn 0.10390(3) 0.05486(5) 0.36139(3)
I1 I 0.033522(19) 0.13060(3) 0.405769(16)
I2 I 0.10000(3) -0.11875(4) 0.35558(2)
N1 N 0.1937(2) 0.0907(4) 0.40082(19)
C1 C 0.2101(3) 0.1438(5) 0.4442(2)
H1 H 0.1787 0.1682 0.4555
C2 C 0.2710(3) 0.1642(5) 0.4728(2)
H2 H 0.2810 0.2010 0.5037
C3 C 0.3173(3) 0.1305(4) 0.4562(2)
C4 C 0.3005(3) 0.0757(5) 0.4107(2)
H3 H 0.3309 0.0519 0.3978
C5 C 0.2381(3) 0.0570(5) 0.3847(2)
H4 H 0.2265 0.0187 0.3544
N2 N 0.5819(2) 0.3885(4) 0.7869(2)
C6 C 0.6206(4) 0.3813(9) 0.7611(4)
H5 H 0.6601 0.4087 0.7761
C7 C 0.6067(4) 0.3358(8) 0.7134(4)
H6 H 0.6371 0.3291 0.6973
C8 C 0.5489(3) 0.3005(5) 0.6895(2)
C9 C 0.5059(3) 0.3158(5) 0.7139(2)
H7 H 0.4642 0.2972 0.6974
C10 C 0.5249(3) 0.3583(5) 0.7622(2)
H8 H 0.4954 0.3667 0.7792
N3 N 0.7255(2) 0.0444(4) 0.44460(19)
C11 C 0.6649(3) 0.0283(5) 0.4181(3)
H9 H 0.6533 0.0027 0.3835
C12 C 0.6199(3) 0.0470(5) 0.4382(2)
H10 H 0.5780 0.0343 0.4181
C13 C 0.6357(3) 0.0848(4) 0.4884(2)
C14 C 0.6979(3) 0.1014(5) 0.5162(2)
H11 H 0.7106 0.1277 0.5506
C15 C 0.7411(3) 0.0792(5) 0.4934(2)
H12 H 0.7835 0.0891 0.5132
C16 C 0.3837(3) 0.1475(4) 0.4873(2)
N4 N 0.3945(2) 0.1893(4) 0.53397(18)
C17 C 0.4549(3) 0.2006(4) 0.5636(2)
N5 N 0.4704(2) 0.2432(4) 0.61144(19)
C18 C 0.5315(3) 0.2499(5) 0.6381(2)
N6 N 0.5789(2) 0.2202(4) 0.62552(19)
C19 C 0.5631(3) 0.1788(4) 0.5769(2)
N7 N 0.6080(2) 0.1489(4) 0.55901(19)
C20 C 0.5873(3) 0.1120(4) 0.5102(2)
N8 N 0.5290(2) 0.0985(4) 0.47740(19)
C21 C 0.4841(3) 0.1269(4) 0.4953(2)
N9 N 0.4242(2) 0.1158(4) 0.46549(19)
C22 C 0.5009(3) 0.1679(4) 0.5461(2)
O1 O 0.8542(2) 0.1028(4) 0.45092(18)
C23 C 0.9043(3) 0.0829(6) 0.4864(3)
N10 N 0.9448(3) 0.1455(4) 0.5106(2)
C24 C 0.9355(4) 0.2411(6) 0.4964(4)
H13 H 0.9709 0.2763 0.5191
H14 H 0.8978 0.2627 0.5014
H15 H 0.9316 0.2489 0.4592
C25 C 1.0035(4) 0.1229(7) 0.5513(3)
H16 H 1.0269 0.1787 0.5645
H17 H 1.0271 0.0831 0.5362
H18 H 0.9961 0.0916 0.5807
Zn2 Zn 0.78806(3) 0.01874(6) 0.40814(3)
I3 I 0.82380(2) -0.14615(4) 0.42258(2)
I4 I 0.74291(2) 0.08183(5) 0.313434(18)
Zn1C Zn 0.60390(3) 0.44514(5) 0.86139(3)
N2C N 0.0819(2) 0.1115(4) 0.2869(2)
N11 N 0.3444(2) 0.4843(4) 0.58324(19)
C26 C 0.3321(3) 0.4485(4) 0.5352(2)
H19 H 0.2901 0.4418 0.5133
C27 C 0.3765(3) 0.4206(4) 0.5154(2)
H20 H 0.3651 0.3950 0.4809
C28 C 0.4382(3) 0.4301(4) 0.5465(2)
C29 C 0.4528(3) 0.4681(5) 0.5968(2)
H21 H 0.4946 0.4757 0.6193
C30 C 0.4050(3) 0.4946(5) 0.6134(2)
H22 H 0.4150 0.5212 0.6476
N12 N 0.5007(2) 0.1481(4) 0.24650(18)
C31 C 0.5592(3) 0.1479(5) 0.2808(2)
H23 H 0.5894 0.1148 0.2717
C32 C 0.5770(3) 0.1933(5) 0.3282(2)
H24 H 0.6189 0.1919 0.3511
C33 C 0.5336(3) 0.2416(4) 0.3430(2)
C34 C 0.4740(3) 0.2449(5) 0.3070(2)
H25 H 0.4432 0.2787 0.3148
C35 C 0.4595(3) 0.1983(5) 0.2594(2)
H26 H 0.4186 0.2021 0.2348
N13 N 0.8838(2) 0.4094(4) 0.64564(19)
C36 C 0.8392(3) 0.4424(5) 0.6624(2)
H27 H 0.8510 0.4762 0.6945
C37 C 0.7774(3) 0.4291(5) 0.6348(3)
H28 H 0.7472 0.4532 0.6478
C38 C 0.7595(3) 0.3792(4) 0.5873(2)
C39 C 0.8053(3) 0.3434(5) 0.5716(2)
H29 H 0.7949 0.3075 0.5403
C40 C 0.8666(3) 0.3595(5) 0.6013(3)
H30 H 0.8975 0.3342 0.5898
C41 C 0.4889(3) 0.4005(4) 0.5277(2)
N14 N 0.4693(2) 0.3673(4) 0.47743(19)
C42 C 0.5152(2) 0.3407(4) 0.4604(2)
N15 N 0.5010(2) 0.3067(4) 0.41050(19)
C43 C 0.5490(2) 0.2831(4) 0.3967(2)
N16 N 0.6105(2) 0.2898(4) 0.42494(18)
C44 C 0.6246(3) 0.3235(4) 0.4752(2)
N17 N 0.6837(2) 0.3324(4) 0.50598(19)
C45 C 0.6928(3) 0.3669(4) 0.5544(2)
N18 N 0.6521(2) 0.3943(4) 0.57649(19)
C46 C 0.5921(2) 0.3854(4) 0.5448(2)
N19 N 0.5463(2) 0.4113(4) 0.56241(19)
C47 C 0.5772(2) 0.3491(4) 0.4936(2)
I5 I 0.53942(2) 0.09102(4) 0.124988(17)
I6 I 0.48006(2) -0.10001(4) 0.22070(2)
Zn3 Zn 0.27368(3) 0.52271(5) 0.61177(3)
Zn4 Zn 0.47510(3) 0.06010(5) 0.18375(3)
O2 O 0.20731(19) 0.5032(4) 0.53632(17)
C48 C 0.1563(3) 0.4675(5) 0.5297(3)
N20 N 0.1239(3) 0.4214(4) 0.4867(2)
C49 C 0.1479(4) 0.4025(6) 0.4447(3)
H31 H 0.1174 0.3678 0.4165
H32 H 0.1861 0.3671 0.4589
H33 H 0.1566 0.4599 0.4301
C50 C 0.0658(4) 0.3789(6) 0.4822(3)
H34 H 0.0488 0.3481 0.4478
H35 H 0.0367 0.4255 0.4849
H36 H 0.0725 0.3344 0.5108
O3 O 0.19904(19) 0.5622(3) 0.63457(17)
C51 C 0.1970(3) 0.5836(5) 0.6786(3)
N21 N 0.1562(3) 0.6399(5) 0.6852(3)
C52 C 0.1081(4) 0.6796(7) 0.6416(4)
H37 H 0.0829 0.7195 0.6550
H38 H 0.0821 0.6313 0.6199
H39 H 0.1263 0.7151 0.6199
C53 C 0.1589(4) 0.6629(9) 0.7388(4)
H40 H 0.1257 0.7056 0.7369
H41 H 0.1988 0.6910 0.7583
H42 H 0.1540 0.6075 0.7572
O4 O 0.3352(2) 0.5349(4) 0.69196(19)
C54 C 0.3455(3) 0.6053(6) 0.7185(3)
N22 N 0.3790(3) 0.6078(5) 0.7694(2)
C55 C 0.4057(4) 0.5294(6) 0.8014(3)
H43 H 0.4286 0.5488 0.8378
H44 H 0.4338 0.4986 0.7867
H45 H 0.3728 0.4874 0.8014
C56 C 0.3901(4) 0.6950(6) 0.7980(3)
H46 H 0.4158 0.6848 0.8352
H47 H 0.3506 0.7216 0.7963
H48 H 0.4113 0.7366 0.7817
O5 O 0.2638(2) 0.3854(4) 0.62902(19)
C57 C 0.2442(4) 0.3572(5) 0.6713(3)
H49 H 0.2427 0.2906 0.6722
H50 H 0.2030 0.3818 0.6658
H51 H 0.2733 0.3797 0.7051
O6 O 0.2888(2) 0.6608(4) 0.6028(2)
C58 C 0.2393(4) 0.7185(6) 0.5778(3)
H52 H 0.2546 0.7805 0.5770
H53 H 0.2106 0.7181 0.5973
H54 H 0.2179 0.6975 0.5414
N13C N 0.3838(2) 0.0906(4) 0.14564(19)
Zn4C Zn 0.97510(3) 0.43990(5) 0.68375(3)
O7 O 0.3583(3) 0.2758(4) 0.6328(2)
C59 C 0.3521(4) 0.1852(7) 0.6389(4)
H55 H 0.3907 0.1609 0.6641
H56 H 0.3428 0.1548 0.6046
H57 H 0.3185 0.1745 0.6524
O8 O 0.3635(3) 0.3381(8) 0.3614(4)
C60 C 0.3672(5) 0.4285(9) 0.3354(5)
H58 H 0.3685 0.4781 0.3601
H59 H 0.3309 0.4357 0.3032
H60 H 0.4046 0.4300 0.3261
O9 O 0.2617(5) 0.3501(7) 0.3927(4)
C61 C 0.2142(6) 0.3163(8) 0.3448(5)
H61 H 0.1789 0.2945 0.3536
H62 H 0.2310 0.2661 0.3300
H63 H 0.2009 0.3654 0.3187
O10 O 0.7053(8) 0.145(2) 0.6878(8)
C62 C 0.7436(8) 0.1939(17) 0.6767(13)
H64 H 0.7328 0.2580 0.6778
H65 H 0.7429 0.1787 0.6410
H66 H 0.7849 0.1829 0.7025
O11 O 0.5738(8) -0.0345(15) 0.6514(6)
C63 C 0.6250(11) -0.005(3) 0.6804(12)
N23 N 0.6751(9) -0.048(4) 0.7080(10)
C64 C 0.7412(6) -0.039(2) 0.7368(5)
H67 H 0.7581 -0.0986 0.7512
H68 H 0.7483 0.0043 0.7660
H69 H 0.7616 -0.0176 0.7126
C65 C 0.6748(16) -0.152(3) 0.7065(15)
H70 H 0.6692 -0.1756 0.7386
H71 H 0.7142 -0.1738 0.7050
H72 H 0.6410 -0.1731 0.6752
loop_
_geom_bond_atom_site_label_1
_geom_bond_atom_site_label_2
_geom_bond_site_symmetry_1
_geom_bond_site_symmetry_2
Zn1 I1 1_555 1_555
I2 Zn1 1_555 1_555
N1 Zn1 1_555 1_555
C1 N1 1_555 1_555
H1 C1 1_555 1_555
C2 C1 1_555 1_555
H2 C2 1_555 1_555
C3 C2 1_555 1_555
C4 C3 1_555 1_555
H3 C4 1_555 1_555
C5 N1 1_555 1_555
H4 C5 1_555 1_555
N2 C6 1_555 1_555
C6 H5 1_555 1_555
C7 C6 1_555 1_555
H6 C7 1_555 1_555
C8 C7 1_555 1_555
C9 C8 1_555 1_555
H7 C9 1_555 1_555
C10 N2 1_555 1_555
H8 C10 1_555 1_555
N3 C11 1_555 1_555
C11 H9 1_555 1_555
C12 C11 1_555 1_555
H10 C12 1_555 1_555
C13 C12 1_555 1_555
C14 C13 1_555 1_555
H11 C14 1_555 1_555
C15 N3 1_555 1_555
H12 C15 1_555 1_555
C16 C3 1_555 1_555
N4 C16 1_555 1_555
C17 N4 1_555 1_555
N5 C17 1_555 1_555
C18 C8 1_555 1_555
N6 C18 1_555 1_555
C19 N6 1_555 1_555
N7 C19 1_555 1_555
C20 C13 1_555 1_555
N8 C20 1_555 1_555
C21 N8 1_555 1_555
N9 C16 1_555 1_555
C22 C17 1_555 1_555
O1 C23 1_555 1_555
C23 N10 1_555 1_555
N10 C24 1_555 1_555
C24 H13 1_555 1_555
H14 C24 1_555 1_555
H15 C24 1_555 1_555
C25 N10 1_555 1_555
H16 C25 1_555 1_555
H17 C25 1_555 1_555
H18 C25 1_555 1_555
Zn2 N3 1_555 1_555
I3 Zn2 1_555 1_555
I4 Zn2 1_555 1_555
N11 C26 1_555 1_555
C26 H19 1_555 1_555
C27 C26 1_555 1_555
H20 C27 1_555 1_555
C28 C27 1_555 1_555
C29 C28 1_555 1_555
H21 C29 1_555 1_555
C30 N11 1_555 1_555
H22 C30 1_555 1_555
N12 C31 1_555 1_555
C31 H23 1_555 1_555
C32 C31 1_555 1_555
H24 C32 1_555 1_555
C33 C32 1_555 1_555
C34 C33 1_555 1_555
H25 C34 1_555 1_555
C35 N12 1_555 1_555
H26 C35 1_555 1_555
N13 C36 1_555 1_555
C36 H27 1_555 1_555
C37 C36 1_555 1_555
H28 C37 1_555 1_555
C38 C37 1_555 1_555
C39 C38 1_555 1_555
H29 C39 1_555 1_555
C40 N13 1_555 1_555
H30 C40 1_555 1_555
C41 C28 1_555 1_555
N14 C41 1_555 1_555
C42 N14 1_555 1_555
N15 C42 1_555 1_555
C43 C33 1_555 1_555
N16 C43 1_555 1_555
C44 N16 1_555 1_555
N17 C44 1_555 1_555
C45 C38 1_555 1_555
N18 C45 1_555 1_555
C46 N18 1_555 1_555
N19 C41 1_555 1_555
C47 C42 1_555 1_555
I5 Zn4 1_555 1_555
I6 Zn4 1_555 1_555
Zn3 N11 1_555 1_555
Zn4 N12 1_555 1_555
O2 Zn3 1_555 1_555
C48 O2 1_555 1_555
N20 C48 1_555 1_555
C49 N20 1_555 1_555
H31 C49 1_555 1_555
H32 C49 1_555 1_555
H33 C49 1_555 1_555
C50 N20 1_555 1_555
H34 C50 1_555 1_555
H35 C50 1_555 1_555
H36 C50 1_555 1_555
O3 Zn3 1_555 1_555
C51 O3 1_555 1_555
N21 C51 1_555 1_555
C52 N21 1_555 1_555
H37 C52 1_555 1_555
H38 C52 1_555 1_555
H39 C52 1_555 1_555
C53 N21 1_555 1_555
H40 C53 1_555 1_555
H41 C53 1_555 1_555
H42 C53 1_555 1_555
O4 Zn3 1_555 1_555
C54 O4 1_555 1_555
N22 C54 1_555 1_555
C55 N22 1_555 1_555
H43 C55 1_555 1_555
H44 C55 1_555 1_555
H45 C55 1_555 1_555
C56 N22 1_555 1_555
H46 C56 1_555 1_555
H47 C56 1_555 1_555
H48 C56 1_555 1_555
O5 Zn3 1_555 1_555
C57 O5 1_555 1_555
H49 C57 1_555 1_555
H50 C57 1_555 1_555
H51 C57 1_555 1_555
O6 Zn3 1_555 1_555
C58 O6 1_555 1_555
H52 C58 1_555 1_555
H53 C58 1_555 1_555
H54 C58 1_555 1_555
O7 C59 1_555 1_555
C59 H55 1_555 1_555
H56 C59 1_555 1_555
H57 C59 1_555 1_555
O8 C60 1_555 1_555
C60 H58 1_555 1_555
H59 C60 1_555 1_555
H60 C60 1_555 1_555
O9 C61 1_555 1_555
C61 H61 1_555 1_555
H62 C61 1_555 1_555
H63 C61 1_555 1_555
O10 C62 1_555 1_555
C62 H64 1_555 1_555
H65 C62 1_555 1_555
H66 C62 1_555 1_555
O11 C63 1_555 1_555
C63 N23 1_555 1_555
N23 C64 1_555 1_555
C64 H67 1_555 1_555
H68 C64 1_555 1_555
H69 C64 1_555 1_555
C65 N23 1_555 1_555
H70 C65 1_555 1_555
H71 C65 1_555 1_555
H72 C65 1_555 1_555
Zn1C N2 1_555 1_555
N2C Zn1 1_555 1_555
N13C Zn4 1_555 1_555
Zn4C N13 1_555 1_555
C4 C5 1_555 1_555
C9 C10 1_555 1_555
C14 C15 1_555 1_555
N5 C18 1_555 1_555
C19 C22 1_555 1_555
N7 C20 1_555 1_555
C21 N9 1_555 1_555
C21 C22 1_555 1_555
O1 Zn2 1_555 1_555
C29 C30 1_555 1_555
C34 C35 1_555 1_555
C39 C40 1_555 1_555
N15 C43 1_555 1_555
C44 C47 1_555 1_555
N17 C45 1_555 1_555
C46 N19 1_555 1_555
C46 C47 1_555 1_555

#END
