
#######################################################################
#
#                 Cambridge Crystallographic Data Centre
#                                CCDC 
#
#######################################################################
#
# If this CIF has been generated from an entry in the Cambridge 
# Structural Database, then it will include bibliographic, chemical, 
# crystal, experimental, refinement or atomic coordinate data resulting 
# from the CCDC's data processing and validation procedures.
#
#######################################################################

data_VOBKAZ
_symmetry_cell_setting           triclinic
_symmetry_space_group_name_H-M   'P -1'
_symmetry_Int_Tables_number      2
_space_group_name_Hall           '-P 1'
loop_
_symmetry_equiv_pos_site_id
_symmetry_equiv_pos_as_xyz
1 x,y,z
2 -x,-y,-z
_cell_length_a                   9.4924(10)
_cell_length_b                   11.5543(13)
_cell_length_c                   12.3437(14)
_cell_angle_alpha                107.791(2)
_cell_angle_beta                 98.997(2)
_cell_angle_gamma                114.183(2)
_cell_volume                     1112.47
loop_
_atom_site_label
_atom_site_type_symbol
_atom_site_fract_x
_atom_site_fract_y
_atom_site_fract_z
Hg1 Hg -0.41207(3) 0.48951(3) 0.15557(3)
Cl1 Cl -0.2045(3) 0.7096(2) 0.3094(2)
Cl2 Cl -0.4513(3) 0.3604(2) -0.05748(19)
S1 S -0.6738(2) 0.35105(18) 0.19752(17)
S2 S -1.2564(2) 0.33887(19) 0.21241(17)
O1 O -1.1526(7) 0.2136(6) 0.4169(6)
O2 O -0.9738(7) 0.0654(6) 0.1770(6)
C1 C -1.1354(10) 0.1023(8) 0.4331(8)
H1 H -1.2415 0.0152 0.3954
H2 H -1.0954 0.1244 0.5197
C2 C -1.0122(10) 0.0867(8) 0.3727(8)
H3 H -0.9156 0.1791 0.3986
H4 H -0.9756 0.0269 0.3971
C3 C -1.0891(9) 0.0225(8) 0.2374(8)
H5 H -1.1436 -0.0800 0.2080
H6 H -1.1738 0.0485 0.2170
C4 C -0.8673(10) 0.0147(7) 0.1653(7)
C5 C -0.8695(11) -0.0899(9) 0.1992(9)
H7 H -0.9460 -0.1296 0.2361
C6 C -0.7560(13) -0.1361(10) 0.1778(10)
H8 H -0.7569 -0.2083 0.1998
C7 C -0.6438(11) -0.0779(9) 0.1254(9)
H9 H -0.5667 -0.1087 0.1126
C8 C -0.6440(10) 0.0254(8) 0.0916(8)
H10 H -0.5665 0.0652 0.0555
C9 C -0.7560(9) 0.0723(8) 0.1096(8)
C10 C -0.7630(9) 0.1809(7) 0.0695(7)
H11 H -0.8781 0.1507 0.0282
H12 H -0.7028 0.1903 0.0112
C11 C -0.8110(9) 0.4167(8) 0.1587(8)
H13 H -0.7565 0.5186 0.2058
H14 H -0.8363 0.3983 0.0723
C12 C -0.9701(9) 0.3468(8) 0.1851(9)
H15 H -1.0319 0.2469 0.1300
H16 H -0.9441 0.3540 0.2686
C13 C -1.0753(9) 0.4150(8) 0.1693(8)
H17 H -1.1090 0.4013 0.0843
H18 H -1.0110 0.5162 0.2198
C14 C -1.1644(9) 0.4309(8) 0.3765(7)
H19 H -1.0569 0.4360 0.4009
H20 H -1.1465 0.5271 0.4016
C15 C -1.2724(10) 0.3581(8) 0.4393(7)
C16 C -1.3808(11) 0.3969(9) 0.4784(8)
H21 H -1.3894 0.4711 0.4657
C17 C -1.4779(12) 0.3290(10) 0.5363(10)
H22 H -1.5543 0.3553 0.5609
C18 C -1.4640(11) 0.2261(9) 0.5577(9)
H23 H -1.5288 0.1821 0.5992
C19 C -1.3552(10) 0.1824(9) 0.5196(8)
H24 H -1.3460 0.1098 0.5352
C20 C -1.2616(9) 0.2476(8) 0.4589(7)
Hg1A Hg -0.58793(3) 0.51049(3) -0.15557(3)
Hg1_2 Hg -1.41207(3) 0.48951(3) 0.15557(3)
Cl2A Cl -0.5487(3) 0.6396(2) 0.05748(19)
S2_2 S -0.2564(2) 0.33887(19) 0.21241(17)
loop_
_geom_bond_atom_site_label_1
_geom_bond_atom_site_label_2
_geom_bond_site_symmetry_1
_geom_bond_site_symmetry_2
Hg1 Cl1 1_555 1_555
Cl2 Hg1 1_555 1_555
S1 Hg1 1_555 1_555
S2 C13 1_555 1_555
O1 C1 1_555 1_555
O2 C3 1_555 1_555
C1 H1 1_555 1_555
H2 C1 1_555 1_555
C2 C1 1_555 1_555
H3 C2 1_555 1_555
H4 C2 1_555 1_555
C3 C2 1_555 1_555
H5 C3 1_555 1_555
H6 C3 1_555 1_555
C4 O2 1_555 1_555
C5 C4 1_555 1_555
H7 C5 1_555 1_555
C6 C5 1_555 1_555
H8 C6 1_555 1_555
C7 C6 1_555 1_555
H9 C7 1_555 1_555
C8 C7 1_555 1_555
H10 C8 1_555 1_555
C9 C4 1_555 1_555
C10 S1 1_555 1_555
H11 C10 1_555 1_555
H12 C10 1_555 1_555
C11 S1 1_555 1_555
H13 C11 1_555 1_555
H14 C11 1_555 1_555
C12 C11 1_555 1_555
H15 C12 1_555 1_555
H16 C12 1_555 1_555
C13 C12 1_555 1_555
H17 C13 1_555 1_555
H18 C13 1_555 1_555
C14 S2 1_555 1_555
H19 C14 1_555 1_555
H20 C14 1_555 1_555
C15 C14 1_555 1_555
C16 C15 1_555 1_555
H21 C16 1_555 1_555
C17 C16 1_555 1_555
H22 C17 1_555 1_555
C18 C17 1_555 1_555
H23 C18 1_555 1_555
C19 C18 1_555 1_555
H24 C19 1_555 1_555
C20 O1 1_555 1_555
Hg1A Cl2 1_555 1_555
Hg1_2 S2 1_555 1_555
Cl2A Hg1 1_555 1_555
S2_2 Hg1 1_555 1_555
C8 C9 1_555 1_555
C9 C10 1_555 1_555
C15 C20 1_555 1_555
C19 C20 1_555 1_555
Hg1A Cl2A 1_555 1_555

#END
