
#######################################################################
#
#                 Cambridge Crystallographic Data Centre
#                                CCDC 
#
#######################################################################
#
# If this CIF has been generated from an entry in the Cambridge 
# Structural Database, then it will include bibliographic, chemical, 
# crystal, experimental, refinement or atomic coordinate data resulting 
# from the CCDC's data processing and validation procedures.
#
#######################################################################

data_VOBKIH
_symmetry_cell_setting           monoclinic
_symmetry_space_group_name_H-M   'C c'
_symmetry_Int_Tables_number      9
_space_group_name_Hall           'C -2yc'
loop_
_symmetry_equiv_pos_site_id
_symmetry_equiv_pos_as_xyz
1 x,y,z
2 x,-y,1/2+z
3 1/2+x,1/2+y,z
4 1/2+x,1/2-y,1/2+z
_cell_length_a                   8.5589(5)
_cell_length_b                   13.9339(7)
_cell_length_c                   20.1922(11)
_cell_angle_alpha                90
_cell_angle_beta                 96.6290(10)
_cell_angle_gamma                90
_cell_volume                     2392
loop_
_atom_site_label
_atom_site_type_symbol
_atom_site_fract_x
_atom_site_fract_y
_atom_site_fract_z
Hg1 Hg -0.52155(2) 0.802459(10) 0.207770(13)
I1 I -0.56733(4) 0.61683(2) 0.236596(18)
I2 I -0.47649(3) 0.94941(2) 0.292407(15)
S1 S -0.36890(11) 0.81461(7) 0.10280(5)
S2 S 0.19953(10) 0.84284(7) 0.13447(5)
O1 O 0.1147(3) 0.9651(2) -0.00295(17)
O2 O -0.2307(3) 0.7754(3) -0.02900(16)
C1 C 0.0392(5) 0.9722(3) -0.0697(2)
H1 H 0.1009 0.9380 -0.1009
H2 H 0.0282 1.0402 -0.0835
C2 C -0.1218(5) 0.9260(3) -0.0691(2)
H3 H -0.1885 0.9419 -0.1110
H4 H -0.1732 0.9521 -0.0315
C3 C -0.1076(5) 0.8173(3) -0.0622(3)
H5 H -0.1100 0.7886 -0.1072
H6 H -0.0048 0.8015 -0.0370
C4 C -0.3820(5) 0.7727(3) -0.0603(2)
C5 C -0.4247(6) 0.7975(3) -0.1264(3)
H7 H -0.3478 0.8180 -0.1537
C6 C -0.5826(6) 0.7917(3) -0.1520(3)
H8 H -0.6130 0.8082 -0.1973
C7 C -0.6964(5) 0.7622(4) -0.1127(3)
H9 H -0.8038 0.7590 -0.1307
C8 C -0.6513(5) 0.7376(3) -0.0470(2)
H10 H -0.7287 0.7171 -0.0200
C9 C -0.4940(5) 0.7423(3) -0.0195(2)
C10 C -0.4435(5) 0.7124(3) 0.0511(2)
H11 H -0.3602 0.6630 0.0516
H12 H -0.5340 0.6835 0.0702
C11 C -0.1737(4) 0.7731(3) 0.1356(2)
H13 H -0.1817 0.7124 0.1605
H14 H -0.1099 0.7611 0.0985
C12 C -0.0960(5) 0.8501(3) 0.1818(2)
H15 H -0.1062 0.9130 0.1589
H16 H -0.1513 0.8543 0.2222
C13 C 0.0775(5) 0.8290(4) 0.2025(2)
H17 H 0.0882 0.7625 0.2196
H18 H 0.1170 0.8728 0.2393
C14 C 0.2107(5) 0.9737(3) 0.1304(2)
H19 H 0.1042 1.0005 0.1180
H20 H 0.2516 0.9995 0.1747
C15 C 0.3175(5) 1.0032(3) 0.0796(2)
C16 C 0.4685(5) 1.0403(3) 0.0993(2)
H21 H 0.5058 1.0450 0.1454
C17 C 0.5629(5) 1.0698(3) 0.0523(3)
H22 H 0.6652 1.0940 0.0663
C18 C 0.5104(5) 1.0647(3) -0.0147(3)
H23 H 0.5765 1.0855 -0.0466
C19 C 0.3599(5) 1.0289(3) -0.0360(2)
H24 H 0.3234 1.0245 -0.0822
C20 C 0.2651(5) 0.9999(3) 0.0117(2)
Hg1_2 Hg 0.47845(2) 0.802459(10) 0.207770(13)
S2_2 S -0.80047(10) 0.84284(7) 0.13447(5)
loop_
_geom_bond_atom_site_label_1
_geom_bond_atom_site_label_2
_geom_bond_site_symmetry_1
_geom_bond_site_symmetry_2
Hg1 I1 1_555 1_555
I2 Hg1 1_555 1_555
S1 Hg1 1_555 1_555
S2 C13 1_555 1_555
O1 C1 1_555 1_555
O2 C3 1_555 1_555
C1 H1 1_555 1_555
H2 C1 1_555 1_555
C2 C1 1_555 1_555
H3 C2 1_555 1_555
H4 C2 1_555 1_555
C3 C2 1_555 1_555
H5 C3 1_555 1_555
H6 C3 1_555 1_555
C4 O2 1_555 1_555
C5 C4 1_555 1_555
H7 C5 1_555 1_555
C6 C5 1_555 1_555
H8 C6 1_555 1_555
C7 C6 1_555 1_555
H9 C7 1_555 1_555
C8 C7 1_555 1_555
H10 C8 1_555 1_555
C9 C4 1_555 1_555
C10 S1 1_555 1_555
H11 C10 1_555 1_555
H12 C10 1_555 1_555
C11 S1 1_555 1_555
H13 C11 1_555 1_555
H14 C11 1_555 1_555
C12 C11 1_555 1_555
H15 C12 1_555 1_555
H16 C12 1_555 1_555
C13 C12 1_555 1_555
H17 C13 1_555 1_555
H18 C13 1_555 1_555
C14 S2 1_555 1_555
H19 C14 1_555 1_555
H20 C14 1_555 1_555
C15 C14 1_555 1_555
C16 C15 1_555 1_555
H21 C16 1_555 1_555
C17 C16 1_555 1_555
H22 C17 1_555 1_555
C18 C17 1_555 1_555
H23 C18 1_555 1_555
C19 C18 1_555 1_555
H24 C19 1_555 1_555
C20 O1 1_555 1_555
Hg1_2 S2 1_555 1_555
S2_2 Hg1 1_555 1_555
C8 C9 1_555 1_555
C9 C10 1_555 1_555
C15 C20 1_555 1_555
C19 C20 1_555 1_555

#END
