
#######################################################################
#
#                 Cambridge Crystallographic Data Centre
#                                CCDC 
#
#######################################################################
#
# If this CIF has been generated from an entry in the Cambridge 
# Structural Database, then it will include bibliographic, chemical, 
# crystal, experimental, refinement or atomic coordinate data resulting 
# from the CCDC's data processing and validation procedures.
#
#######################################################################

data_VOBPAE
_symmetry_cell_setting           triclinic
_symmetry_space_group_name_H-M   'P -1'
_symmetry_Int_Tables_number      2
_space_group_name_Hall           '-P 1'
loop_
_symmetry_equiv_pos_site_id
_symmetry_equiv_pos_as_xyz
1 x,y,z
2 -x,-y,-z
_cell_length_a                   9.684(5)
_cell_length_b                   10.637(5)
_cell_length_c                   17.549(5)
_cell_angle_alpha                94.942(5)
_cell_angle_beta                 92.910(5)
_cell_angle_gamma                113.401(5)
_cell_volume                     1645.69
loop_
_atom_site_label
_atom_site_type_symbol
_atom_site_fract_x
_atom_site_fract_y
_atom_site_fract_z
C1 C 0.2428(19) 0.8207(16) 0.5169(10)
H1 H 0.1888 0.8541 0.5529
H2 H 0.3251 0.811 0.5461
Cl3 Cl 0.1204(5) 0.6593(5) 0.4714(4)
Cl4 Cl 0.3155(5) 0.9388(5) 0.4548(3)
C2 C 0.7723(10) 0.6039(9) 0.1883(6)
H3 H 0.7749 0.5804 0.1339
H4 H 0.7572 0.6889 0.1945
C3 C 0.9256(10) 0.6278(9) 0.2310(6)
H5 H 0.9271 0.6592 0.2847
H6 H 0.9381 0.5415 0.2282
C4 C 1.0549(10) 0.7338(10) 0.1960(7)
H7 H 1.0429 0.8203 0.1997
H8 H 1.0512 0.7031 0.142
C5 C 1.4913(9) 0.8965(9) 0.2463(6)
H9 H 1.5107 0.814 0.2376
H10 H 1.4841 0.9127 0.3009
C6 C 1.3389(10) 0.8691(10) 0.2038(6)
H11 H 1.3224 0.9535 0.2078
H12 H 1.3402 0.8413 0.1498
C7 C 1.2103(10) 0.7577(10) 0.2362(7)
H13 H 1.2121 0.7836 0.2907
H14 H 1.2246 0.6722 0.2301
C8 C 0.44593(12) 0.46262(12) 0.16888(9)
C9 C 0.30246(9) 0.36962(19) 0.18332(15)
H15 H 0.2925 0.3059 0.218
C10 C 0.17419(17) 0.37365(15) 0.14497(9)
H16 H 0.0798 0.322 0.1606
C11 C 0.18237(12) 0.4523(2) 0.08401(12)
H17 H 0.0955 0.4449 0.0553
C12 C 0.32591(9) 0.5424(2) 0.06781(14)
H18 H 0.336 0.5993 0.0292
C13 C 0.45406(19) 0.5459(2) 0.11023(13)
H19 H 0.5488 0.6062 0.099
C14 C 0.60102(9) 0.53945(15) 0.32079(8)
C15 C 0.49666(15) 0.59779(17) 0.33432(7)
H20 H 0.4282 0.5955 0.2945
C16 C 0.49551(14) 0.6596(2) 0.40789(6)
H21 H 0.4275 0.6996 0.4175
C17 C 0.59899(10) 0.65979(16) 0.46663(11)
H22 H 0.5985 0.7011 0.5155
C18 C 0.70317(17) 0.60056(19) 0.45502(7)
H23 H 0.7704 0.6014 0.495
C19 C 0.7022(2) 0.5400(3) 0.38083(6)
H24 H 0.7698 0.4995 0.3713
C20 C 1.81345(17) 1.06388(8) 0.28868(14)
C21 C 1.93133(11) 1.19537(13) 0.29764(13)
H25 H 1.9252 1.2689 0.2747
C22 C 2.05911(17) 1.20739(12) 0.34380(13)
H26 H 2.1429 1.291 0.3481
C23 C 2.07069(19) 1.10339(11) 0.38402(17)
H27 H 2.1569 1.1202 0.4163
C24 C 1.95000(11) 0.97355(15) 0.37477(13)
H28 H 1.9536 0.9017 0.4003
C25 C 1.8236(2) 0.95591(18) 0.32561(17)
H29 H 1.7437 0.8695 0.3172
C26 C 1.70386(9) 0.97512(19) 0.13105(7)
C27 C 1.83525(13) 0.9506(2) 0.12755(9)
H30 H 1.9024 0.9722 0.1713
C28 C 1.86692(16) 0.8940(3) 0.05908(7)
H31 H 1.9566 0.8818 0.0568
C29 C 1.76277(9) 0.8559(2) -0.00587(10)
H32 H 1.7812 0.8147 -0.0509
C30 C 1.63091(13) 0.8798(2) -0.00301(9)
H33 H 1.5636 0.8579 -0.0467
C31 C 1.60048(19) 0.9365(3) 0.06576(7)
H34 H 1.5108 0.9487 0.0681
P1 P 0.6105(2) 0.4649(2) 0.22347(15)
P2 P 1.6558(2) 1.0441(2) 0.21901(15)
Cl1 Cl 0.4851(6) 0.1955(5) 0.3273(4)
Rh1 Rh 0.62661(6) 0.25134(7) 0.21814(3)
C32 C 0.71645(15) 0.2800(14) 0.13015(6)
O1 O 0.78055(17) 0.2998(15) 0.07598(7)
P2_2 P 0.6558(2) 0.0441(2) 0.21901(15)
Rh1_2 Rh 1.62661(6) 1.25134(7) 0.21814(3)
Cl2? Cl 0.7734(6) 0.3077(5) 0.1089(4)
C33? C 0.51132(14) 0.2094(11) 0.29731(7)
O2? O 0.44849(17) 0.1871(12) 0.35180(8)
loop_
_geom_bond_atom_site_label_1
_geom_bond_atom_site_label_2
_geom_bond_site_symmetry_1
_geom_bond_site_symmetry_2
C1 H1 1_555 1_555
H2 C1 1_555 1_555
C2 H3 1_555 1_555
H4 C2 1_555 1_555
C3 C2 1_555 1_555
H5 C3 1_555 1_555
H6 C3 1_555 1_555
C4 C3 1_555 1_555
H7 C4 1_555 1_555
H8 C4 1_555 1_555
C5 H9 1_555 1_555
H10 C5 1_555 1_555
C6 C5 1_555 1_555
H11 C6 1_555 1_555
H12 C6 1_555 1_555
C7 C4 1_555 1_555
H13 C7 1_555 1_555
H14 C7 1_555 1_555
C8 C9 1_555 1_555
C9 H15 1_555 1_555
C10 C9 1_555 1_555
H16 C10 1_555 1_555
C11 C10 1_555 1_555
H17 C11 1_555 1_555
C12 C11 1_555 1_555
H18 C12 1_555 1_555
C13 C8 1_555 1_555
H19 C13 1_555 1_555
C14 C15 1_555 1_555
C15 H20 1_555 1_555
C16 C15 1_555 1_555
H21 C16 1_555 1_555
C17 C16 1_555 1_555
H22 C17 1_555 1_555
C18 C17 1_555 1_555
H23 C18 1_555 1_555
C19 C14 1_555 1_555
H24 C19 1_555 1_555
C20 C21 1_555 1_555
C21 H25 1_555 1_555
C22 C21 1_555 1_555
H26 C22 1_555 1_555
C23 C22 1_555 1_555
H27 C23 1_555 1_555
C24 C23 1_555 1_555
H28 C24 1_555 1_555
C25 C20 1_555 1_555
H29 C25 1_555 1_555
C26 C27 1_555 1_555
C27 H30 1_555 1_555
C28 C27 1_555 1_555
H31 C28 1_555 1_555
C29 C28 1_555 1_555
H32 C29 1_555 1_555
C30 C29 1_555 1_555
H33 C30 1_555 1_555
C31 C26 1_555 1_555
H34 C31 1_555 1_555
P1 C2 1_555 1_555
P2 C5 1_555 1_555
Cl1 Rh1 1_555 1_555
Cl3 C1 1_555 1_555
Cl4 C1 1_555 1_555
Rh1 P1 1_555 1_555
C32 Rh1 1_555 1_555
O1 C32 1_555 1_555
P2_2 Rh1 1_555 1_555
Rh1_2 P2 1_555 1_555
C6 C7 1_555 1_555
C8 P1 1_555 1_555
C12 C13 1_555 1_555
C14 P1 1_555 1_555
C18 C19 1_555 1_555
C20 P2 1_555 1_555
C24 C25 1_555 1_555
C26 P2 1_555 1_555
C30 C31 1_555 1_555

#END
