
#######################################################################
#
#                 Cambridge Crystallographic Data Centre
#                                CCDC 
#
#######################################################################
#
# If this CIF has been generated from an entry in the Cambridge 
# Structural Database, then it will include bibliographic, chemical, 
# crystal, experimental, refinement or atomic coordinate data resulting 
# from the CCDC's data processing and validation procedures.
#
#######################################################################

data_VOBRAH
_symmetry_cell_setting           triclinic
_symmetry_space_group_name_H-M   'P -1'
_symmetry_Int_Tables_number      2
_space_group_name_Hall           '-P 1'
loop_
_symmetry_equiv_pos_site_id
_symmetry_equiv_pos_as_xyz
1 x,y,z
2 -x,-y,-z
_cell_length_a                   7.5827(13)
_cell_length_b                   7.8437(13)
_cell_length_c                   9.3439(16)
_cell_angle_alpha                91.844(3)
_cell_angle_beta                 113.625(2)
_cell_angle_gamma                101.213(2)
_cell_volume                     495.682
loop_
_atom_site_label
_atom_site_type_symbol
_atom_site_fract_x
_atom_site_fract_y
_atom_site_fract_z
Cu1 Cu 0.07380(6) 0.72351(6) 0.97578(5)
Cl1 Cl 0.18062(15) 0.86595(15) 1.21795(12)
Cl2 Cl 0.21490(13) 0.43395(12) 1.02249(12)
N1 N -0.0379(4) 0.7019(4) 0.7385(3)
C1 C 0.0978(6) 0.7301(5) 0.6788(4)
C2 C 0.0480(6) 0.7316(5) 0.5216(5)
H1 H 0.1459 0.7532 0.4842
C3 C -0.1467(7) 0.7013(6) 0.4195(5)
H2 H -0.1830 0.6984 0.3117
C4 C -0.2885(7) 0.6749(6) 0.4784(5)
H3 H -0.4218 0.6576 0.4116
C5 C -0.2295(6) 0.6748(6) 0.6364(5)
H4 H -0.3255 0.6553 0.6759
C6 C 0.3072(5) 0.7620(5) 0.7996(4)
H5 H 0.4108 0.7306 0.7839
N2 N 0.3231(4) 0.8510(4) 0.9471(3)
C7 C 0.3101(5) 1.0384(5) 0.9351(4)
H6 H 0.2987 1.0848 1.0277
H7 H 0.1910 1.0435 0.8441
C8 C 0.5141(5) 0.8466(5) 1.0795(4)
H8 H 0.5303 0.7269 1.0828
H9 H 0.5106 0.8851 1.1778
N1A N 1.0379(4) 1.2981(4) 1.2615(3)
C1A C 0.9022(6) 1.2699(5) 1.3212(4)
C2A C 0.9520(6) 1.2684(5) 1.4784(5)
H1A H 0.8541 1.2468 1.5158
C3A C 1.1467(7) 1.2987(6) 1.5805(5)
H2A H 1.1830 1.3016 1.6883
C4A C 1.2885(7) 1.3251(6) 1.5216(5)
H3A H 1.4218 1.3424 1.5884
C5A C 1.2295(6) 1.3252(6) 1.3636(5)
H4A H 1.3255 1.3447 1.3241
C6A C 0.6928(5) 1.2380(5) 1.2004(4)
H5A H 0.5892 1.2694 1.2161
N2A N 0.6769(4) 1.1490(4) 1.0529(3)
C7A C 0.6899(5) 0.9616(5) 1.0649(4)
H6A H 0.7013 0.9152 0.9723
H7A H 0.8090 0.9565 1.1559
C8A C 0.4859(5) 1.1534(5) 0.9205(4)
H8A H 0.4697 1.2731 0.9172
H9A H 0.4894 1.1149 0.8222
Cu1A Cu -0.07380(6) 0.27649(6) 1.02422(5)
Cl1A Cl -0.18062(15) 0.13405(15) 0.78205(12)
Cl2A Cl -0.21490(13) 0.56605(12) 0.97751(12)
Cu1A_2 Cu 0.92620(6) 1.27649(6) 1.02422(5)
N1A_2 N 0.0379(4) 0.2981(4) 1.2615(3)
N2A_2 N -0.3231(4) 0.1490(4) 1.0529(3)
loop_
_geom_bond_atom_site_label_1
_geom_bond_atom_site_label_2
_geom_bond_site_symmetry_1
_geom_bond_site_symmetry_2
Cu1 Cl1 1_555 1_555
Cl2 Cu1 1_555 1_555
N1 Cu1 1_555 1_555
C1 N1 1_555 1_555
C2 C1 1_555 1_555
H1 C2 1_555 1_555
C3 C2 1_555 1_555
H2 C3 1_555 1_555
C4 C3 1_555 1_555
H3 C4 1_555 1_555
C5 N1 1_555 1_555
H4 C5 1_555 1_555
C6 C1 1_555 1_555
H5 C6 1_555 1_555
N2 Cu1 1_555 1_555
C7 N2 1_555 1_555
H6 C7 1_555 1_555
H7 C7 1_555 1_555
C8 N2 1_555 1_555
H8 C8 1_555 1_555
H9 C8 1_555 1_555
N1A C1A 1_555 1_555
C1A C2A 1_555 1_555
C2A H1A 1_555 1_555
C3A C2A 1_555 1_555
H2A C3A 1_555 1_555
C4A C3A 1_555 1_555
H3A C4A 1_555 1_555
C5A N1A 1_555 1_555
H4A C5A 1_555 1_555
C6A C1A 1_555 1_555
H5A C6A 1_555 1_555
N2A C6A 1_555 1_555
C7A C8 1_555 1_555
H6A C7A 1_555 1_555
H7A C7A 1_555 1_555
C8A C7 1_555 1_555
H8A C8A 1_555 1_555
H9A C8A 1_555 1_555
Cu1A Cl2 1_555 1_555
Cl1A Cu1A 1_555 1_555
Cl2A Cu1 1_555 1_555
Cu1A_2 N1A 1_555 1_555
N1A_2 Cu1A 1_555 1_555
N2A_2 Cu1A 1_555 1_555
C4 C5 1_555 1_555
C6 N2 1_555 1_555
C4A C5A 1_555 1_555
N2A C7A 1_555 1_555
N2A C8A 1_555 1_555
N2A Cu1A_2 1_555 1_555
Cu1A Cl2A 1_555 1_555

#END
