
#######################################################################
#
#                 Cambridge Crystallographic Data Centre
#                                CCDC 
#
#######################################################################
#
# If this CIF has been generated from an entry in the Cambridge 
# Structural Database, then it will include bibliographic, chemical, 
# crystal, experimental, refinement or atomic coordinate data resulting 
# from the CCDC's data processing and validation procedures.
#
#######################################################################

data_VOCMIL
_symmetry_cell_setting           monoclinic
_symmetry_space_group_name_H-M   'C 2/c'
_symmetry_Int_Tables_number      15
_space_group_name_Hall           '-C 2yn'
loop_
_symmetry_equiv_pos_site_id
_symmetry_equiv_pos_as_xyz
1 x,y,z
2 -x,y,1/2-z
3 1/2+x,1/2+y,z
4 1/2-x,1/2+y,1/2-z
5 -x,-y,-z
6 x,-y,1/2+z
7 1/2-x,1/2-y,-z
8 1/2+x,1/2-y,1/2+z
_cell_length_a                   37.5637(19)
_cell_length_b                   9.1926(2)
_cell_length_c                   26.6219(14)
_cell_angle_alpha                90
_cell_angle_beta                 129.649(8)
_cell_angle_gamma                90
_cell_volume                     7078.13
loop_
_atom_site_label
_atom_site_type_symbol
_atom_site_fract_x
_atom_site_fract_y
_atom_site_fract_z
Tb1 Tb 0.248269(5) 1.038951(17) 0.981895(7)
O1 O 0.18541(7) 1.1591(2) 0.88951(9)
O2 O 0.28462(8) 1.1130(2) 0.94092(11)
O3 O 0.28116(7) 1.3189(2) 0.97895(10)
O4 O 0.30671(7) 0.8677(2) 1.01902(10)
N1 N 0.21650(10) 0.8672(3) 0.88314(13)
O5 O 0.20707(7) 0.8669(2) 0.98300(10)
O6 O 0.31047(7) 1.1068(2) 1.08531(10)
C1 C 0.16768(10) 1.2847(3) 0.87766(13)
C2 C 0.32031(10) 0.7385(3) 1.03412(13)
C3 C 0.21034(11) 0.7644(4) 0.85491(15)
C4 C 0.20933(10) 1.2499(3) 1.05252(13)
C5 C 0.11883(10) 1.3093(3) 0.81842(13)
C6 C 0.37084(10) 0.7061(3) 1.07488(14)
C7 C 0.20224(15) 0.6292(4) 0.81962(19)
C8 C 0.19047(10) 1.1758(3) 1.08025(14)
C9 C 0.09853(11) 1.4412(3) 0.81431(15)
C10 C 0.09167(10) 1.2046(3) 0.76797(13)
C11 C 0.40312(10) 0.8063(3) 1.08303(14)
C12 C 0.38722(11) 0.5739(3) 1.10797(15)
H1 H 0.1751 0.6397 0.7748
H2 H 0.1980 0.5504 0.8389
H3 H 0.2284 0.6092 0.8221
C13 C 0.18005(10) 1.2499(3) 1.11634(14)
C14 C 0.18230(12) 1.0262(3) 1.06973(18)
H4 H 0.1164 1.5102 0.8470
C15 C 0.05274(12) 1.4717(3) 0.76327(17)
C16 C 0.04490(10) 1.2371(3) 0.71714(14)
N2 N 0.11065(9) 1.0731(3) 0.76994(12)
C17 C 0.45018(10) 0.7692(3) 1.12678(15)
N3 N 0.38819(9) 0.9366(3) 1.04916(14)
C18 C 0.43359(12) 0.5388(3) 1.15022(17)
H5 H 0.3661 0.5067 1.1013
C19 C 0.16220(11) 1.1684(4) 1.14040(16)
N4 N 0.18908(10) 1.3968(3) 1.12895(14)
C20 C 0.16464(14) 0.9488(4) 1.0938(2)
H6 H 0.1890 0.9777 1.0459
H7 H 0.0399 1.5605 0.7611
C21 C 0.02608(10) 1.3669(4) 0.71500(15)
H8 H 0.0263 1.1691 0.6842
C22 C 0.08937(10) 0.9711(3) 0.71892(15)
H9 H 0.1378 1.0522 0.8054
C23 C 0.46497(10) 0.6390(4) 1.15970(15)
H10 H 0.4719 0.8344 1.1337
C24 C 0.41503(11) 1.0380(3) 1.04680(15)
H11 H 0.3595 0.9577 1.0273
H12 H 0.4436 0.4499 1.1719
C25 C 0.15489(14) 1.0212(4) 1.1293(2)
H13 H 0.1552 1.2148 1.1642
C26 C 0.17858(12) 1.4905(4) 1.15985(16)
H14 H 0.2029 1.4363 1.1163
H15 H 0.1593 0.8493 1.0862
H16 H -0.0050 1.3854 0.6808
C27 C 0.06865(12) 1.0128(4) 0.65526(16)
C28 C 0.09080(11) 0.8244(3) 0.73261(16)
H17 H 0.4964 0.6179 1.1887
C29 C 0.44667(12) 0.9969(4) 1.03834(17)
C30 C 0.40876(10) 1.1857(3) 1.05074(15)
H18 H 0.1432 0.9694 1.1460
C31 C 0.13493(12) 1.4964(4) 1.14235(17)
C32 C 0.21279(12) 1.5853(4) 1.20709(17)
H19 H 0.0679 1.1105 0.6456
C33 C 0.04912(12) 0.9097(4) 0.60617(16)
H20 H 0.1046 0.7949 0.7749
C34 C 0.07175(12) 0.7217(4) 0.68340(18)
H21 H 0.4508 0.8990 1.0345
C35 C 0.47179(12) 1.1010(4) 1.03565(16)
C36 C 0.43304(11) 1.2900(4) 1.04586(15)
H22 H 0.3880 1.2147 1.0567
H23 H 0.1117 1.4337 1.1107
C37 C 0.12621(12) 1.5959(4) 1.17226(18)
H24 H 0.2421 1.5819 1.2192
C38 C 0.20328(13) 1.6851(4) 1.23628(17)
C39 C 0.05075(12) 0.7639(4) 0.61998(18)
H25 H 0.0348 0.9389 0.5637
H26 H 0.0731 0.6236 0.6930
C40 C 0.46521(12) 1.2471(4) 1.03882(15)
H27 H 0.4936 1.0721 1.0316
H28 H 0.4279 1.3883 1.0473
C41 C 0.16008(13) 1.6904(4) 1.21938(18)
H29 H 0.0970 1.5993 1.1604
H30 H 0.2262 1.7490 1.2675
H31 H 0.0379 0.6947 0.5871
H32 H 0.4821 1.3163 1.0363
H33 H 0.1539 1.7564 1.2394
O3F O 0.21884(7) 1.1811(2) 1.02105(10)
Tb1F Tb 0.251731(5) 1.461049(17) 1.018105(7)
O6F O 0.18953(7) 1.3932(2) 0.91469(10)
O2F O 0.21538(8) 1.3870(2) 1.05908(11)
O5F O 0.29293(7) 0.6331(2) 1.01700(10)
Tb1F_2 Tb 0.251731(5) 0.461049(17) 1.018105(7)
loop_
_geom_bond_atom_site_label_1
_geom_bond_atom_site_label_2
_geom_bond_site_symmetry_1
_geom_bond_site_symmetry_2
Tb1 O1 1_555 1_555
O1 C1 1_555 1_555
O2 Tb1 1_555 1_555
O3 Tb1 1_555 1_555
O4 Tb1 1_555 1_555
N1 Tb1 1_555 1_555
O5 Tb1 1_555 1_555
O6 Tb1 1_555 1_555
C1 C5 1_555 1_555
C2 O4 1_555 1_555
C3 N1 1_555 1_555
C4 C8 1_555 1_555
C5 C9 1_555 1_555
C6 C2 1_555 1_555
C7 C3 1_555 1_555
C8 C13 1_555 1_555
C9 H4 1_555 1_555
C10 C5 1_555 1_555
C11 C6 1_555 1_555
C12 C6 1_555 1_555
H1 C7 1_555 1_555
H2 C7 1_555 1_555
H3 C7 1_555 1_555
C13 C19 1_555 1_555
C14 C8 1_555 1_555
C15 C9 1_555 1_555
C16 C10 1_555 1_555
N2 C10 1_555 1_555
C17 C11 1_555 1_555
N3 C11 1_555 1_555
C18 C12 1_555 1_555
H5 C12 1_555 1_555
C19 C25 1_555 1_555
N4 C13 1_555 1_555
C20 C14 1_555 1_555
H6 C14 1_555 1_555
H7 C15 1_555 1_555
C21 C15 1_555 1_555
H8 C16 1_555 1_555
C22 N2 1_555 1_555
H9 N2 1_555 1_555
C23 C17 1_555 1_555
H10 C17 1_555 1_555
C24 N3 1_555 1_555
H11 N3 1_555 1_555
H12 C18 1_555 1_555
C25 C20 1_555 1_555
H13 C19 1_555 1_555
C26 N4 1_555 1_555
H14 N4 1_555 1_555
H15 C20 1_555 1_555
H16 C21 1_555 1_555
C27 C22 1_555 1_555
C28 C22 1_555 1_555
H17 C23 1_555 1_555
C29 C24 1_555 1_555
C30 C24 1_555 1_555
H18 C25 1_555 1_555
C31 C26 1_555 1_555
C32 C26 1_555 1_555
H19 C27 1_555 1_555
C33 C27 1_555 1_555
H20 C28 1_555 1_555
C34 C28 1_555 1_555
H21 C29 1_555 1_555
C35 C29 1_555 1_555
C36 C30 1_555 1_555
H22 C30 1_555 1_555
H23 C31 1_555 1_555
C37 C31 1_555 1_555
H24 C32 1_555 1_555
C38 C32 1_555 1_555
C39 C33 1_555 1_555
H25 C33 1_555 1_555
H26 C34 1_555 1_555
C40 C35 1_555 1_555
H27 C35 1_555 1_555
H28 C36 1_555 1_555
C41 C37 1_555 1_555
H29 C37 1_555 1_555
H30 C38 1_555 1_555
H31 C39 1_555 1_555
H32 C40 1_555 1_555
H33 C41 1_555 1_555
O3F Tb1 1_555 1_555
Tb1F O3 1_555 1_555
O6F C1 1_555 1_555
O2F C4 1_555 1_555
O5F C2 1_555 1_555
Tb1F_2 O5F 1_555 1_555
C4 O3F 1_555 1_555
C16 C21 1_555 1_555
C18 C23 1_555 1_555
C34 C39 1_555 1_555
C36 C40 1_555 1_555
C38 C41 1_555 1_555
O3F Tb1F 1_555 1_555
Tb1F O6F 1_555 1_555
Tb1F O2F 1_555 1_555

#END
