
#######################################################################
#
#                 Cambridge Crystallographic Data Centre
#                                CCDC 
#
#######################################################################
#
# If this CIF has been generated from an entry in the Cambridge 
# Structural Database, then it will include bibliographic, chemical, 
# crystal, experimental, refinement or atomic coordinate data resulting 
# from the CCDC's data processing and validation procedures.
#
#######################################################################

data_VOCMAD
_symmetry_cell_setting           triclinic
_symmetry_space_group_name_H-M   'P -1'
_symmetry_Int_Tables_number      2
_space_group_name_Hall           '-P 1'
loop_
_symmetry_equiv_pos_site_id
_symmetry_equiv_pos_as_xyz
1 x,y,z
2 -x,-y,-z
_cell_length_a                   9.2946(7)
_cell_length_b                   13.8614(9)
_cell_length_c                   14.4942(8)
_cell_angle_alpha                97.275(5)
_cell_angle_beta                 96.048(5)
_cell_angle_gamma                98.684(6)
_cell_volume                     1816.29
loop_
_atom_site_label
_atom_site_type_symbol
_atom_site_fract_x
_atom_site_fract_y
_atom_site_fract_z
Tb1 Tb 0.29953(3) 0.039108(17) 0.493948(15)
O1 O 0.3928(4) -0.1070(2) 0.4502(2)
O2 O 0.5706(4) -0.1932(2) 0.4323(2)
O3 O 0.1812(4) 0.1561(3) 0.4195(2)
O4 O 0.4153(3) 0.0723(2) 0.3637(2)
O5 O 0.6279(4) 0.0161(2) 0.3682(2)
O6 O 0.1527(3) 0.0964(2) 0.6056(2)
O7 O -0.0880(3) 0.0512(2) 0.5820(2)
N1 N 0.3378(4) 0.1684(3) 0.2226(3)
H1 H 0.3198 0.1503 0.2754
N2 N 0.2744(5) 0.1909(3) 0.7759(3)
H2 H 0.2763 0.1860 0.7163
N3 N 0.5102(5) -0.3858(3) 0.3774(3)
H3 H 0.5724 -0.3381 0.4097
N4 N 0.0347(5) 0.2718(3) 0.4321(3)
C1 C 0.6671(6) 0.2679(4) 0.8612(4)
H4 H 0.7561 0.2524 0.8453
C2 C 0.5777(7) -0.6447(4) 0.3494(4)
H5 H 0.5525 -0.7023 0.3748
C3 C 0.0000(6) 0.1136(4) 0.9299(3)
H6 H -0.0075 0.1170 0.9937
C4 C 0.3249(5) -0.2773(3) 0.3846(3)
C5 C 0.5372(6) 0.2166(4) 0.8123(3)
H7 H 0.5394 0.1651 0.7648
C6 C 0.2544(6) -0.4496(4) 0.3183(4)
H8 H 0.2774 -0.5121 0.3026
C7 C 0.1636(6) 0.2427(4) 0.4394(3)
H9 H 0.2463 0.2901 0.4609
C8 C 0.1285(6) 0.1563(4) 0.9012(3)
H10 H 0.2050 0.1899 0.9456
C9 C 0.6695(6) -0.6434(4) 0.2794(4)
H11 H 0.7040 -0.7003 0.2569
C10 C 0.1116(6) -0.4345(4) 0.2993(4)
H12 H 0.0399 -0.4873 0.2713
C11 C 0.3648(6) -0.3723(4) 0.3607(3)
C12 C 0.5241(6) -0.5604(4) 0.3814(4)
H13 H 0.4622 -0.5618 0.4278
C13 C -0.1171(6) 0.0661(4) 0.8662(4)
H14 H -0.2039 0.0393 0.8867
C14 C 0.1810(6) -0.2662(4) 0.3643(4)
H15 H 0.1557 -0.2045 0.3805
C15 C 0.4040(5) 0.2402(4) 0.8326(3)
C16 C 0.0966(6) 0.2101(4) 0.1888(3)
H16 H 0.0574 0.1554 0.2146
C17 C 0.1447(5) 0.1493(3) 0.8048(3)
C18 C 0.0724(6) -0.3423(4) 0.3210(4)
H17 H -0.0237 -0.3322 0.3068
C19 C 0.3041(6) 0.3155(4) 0.1493(3)
H18 H 0.4047 0.3318 0.1486
C20 C 0.2470(5) 0.2300(4) 0.1848(3)
C21 C -0.1049(6) 0.0587(4) 0.7710(3)
H19 H -0.1842 0.0269 0.7278
C22 C 0.4344(6) -0.1881(3) 0.4247(3)
C23 C 0.6552(6) -0.4714(4) 0.2760(4)
H20 H 0.6824 -0.4135 0.2514
C24 C 0.7083(7) -0.5575(5) 0.2440(5)
H21 H 0.7708 -0.5562 0.1980
C25 C 0.4024(6) 0.3179(4) 0.9053(3)
H22 H 0.3140 0.3363 0.9189
C26 C 0.0042(7) 0.2716(4) 0.1545(4)
H23 H -0.0963 0.2574 0.1567
C27 C 0.5621(6) -0.4736(4) 0.3444(3)
C28 C 0.0312(5) 0.0806(3) 0.6352(3)
C29 C 0.6890(6) 0.0673(4) 0.1017(4)
H24 H 0.7680 0.0463 0.0753
C30 C 0.6643(5) 0.0505(3) 0.1910(3)
H25 H 0.7271 0.0173 0.2243
C31 C 0.5289(5) 0.0556(3) 0.3278(3)
C32 C 0.0627(7) 0.3540(4) 0.1171(4)
H26 H 0.0013 0.3947 0.0935
C33 C 0.5940(6) 0.1161(4) 0.0523(3)
H27 H 0.6077 0.1263 -0.0086
C34 C 0.5479(5) 0.0819(3) 0.2323(3)
C35 C 0.4526(5) 0.1339(3) 0.1834(3)
C36 C 0.0252(5) 0.0984(3) 0.7393(3)
C37 C 0.2111(7) 0.3753(4) 0.1152(4)
H28 H 0.2499 0.4309 0.0906
C38 C 0.0221(8) 0.3758(5) 0.4500(5)
H29 H 0.1174 0.4142 0.4710
H30 H -0.0412 0.3855 0.4973
H31 H -0.0183 0.3961 0.3932
C39 C -0.0979(6) 0.2010(4) 0.3997(4)
H32 H -0.0740 0.1357 0.3908
H33 H -0.1424 0.2155 0.3413
H34 H -0.1651 0.2049 0.4454
C40 C 0.5324(7) 0.3660(4) 0.9561(4)
H35 H 0.5309 0.4150 1.0060
C41 C 0.6651(6) 0.3427(4) 0.9339(4)
H36 H 0.7526 0.3770 0.9676
C42 C 0.4802(6) 0.1494(4) 0.0921(3)
H37 H 0.4194 0.1833 0.0580
Tb1A Tb -0.29953(3) -0.039108(17) 0.506052(15)
Tb1A_2 Tb 0.70047(3) -0.039108(17) 0.506052(15)
O1A O 0.6072(4) 0.1070(2) 0.5498(2)
O2A O 0.4294(4) 0.1932(2) 0.5677(2)
O5A O 0.3721(4) -0.0161(2) 0.6318(2)
O7A O 0.0880(3) -0.0512(2) 0.4180(2)
loop_
_geom_bond_atom_site_label_1
_geom_bond_atom_site_label_2
_geom_bond_site_symmetry_1
_geom_bond_site_symmetry_2
Tb1 O1 1_555 1_555
O1 C22 1_555 1_555
O2 C22 1_555 1_555
O3 Tb1 1_555 1_555
O4 Tb1 1_555 1_555
O5 C31 1_555 1_555
O6 Tb1 1_555 1_555
O7 C28 1_555 1_555
N1 H1 1_555 1_555
N2 H2 1_555 1_555
N3 H3 1_555 1_555
N4 C7 1_555 1_555
C1 H4 1_555 1_555
C2 H5 1_555 1_555
C3 H6 1_555 1_555
C4 C11 1_555 1_555
C5 C1 1_555 1_555
H7 C5 1_555 1_555
C6 H8 1_555 1_555
C7 O3 1_555 1_555
H9 C7 1_555 1_555
C8 C3 1_555 1_555
H10 C8 1_555 1_555
C9 C2 1_555 1_555
H11 C9 1_555 1_555
C10 C6 1_555 1_555
H12 C10 1_555 1_555
C11 N3 1_555 1_555
C12 C2 1_555 1_555
H13 C12 1_555 1_555
C13 C3 1_555 1_555
H14 C13 1_555 1_555
C14 C4 1_555 1_555
H15 C14 1_555 1_555
C15 N2 1_555 1_555
C16 H16 1_555 1_555
C17 N2 1_555 1_555
C18 C10 1_555 1_555
H17 C18 1_555 1_555
C19 H18 1_555 1_555
C20 N1 1_555 1_555
C21 C13 1_555 1_555
H19 C21 1_555 1_555
C22 C4 1_555 1_555
C23 H20 1_555 1_555
C24 C9 1_555 1_555
H21 C24 1_555 1_555
C25 C15 1_555 1_555
H22 C25 1_555 1_555
C26 C16 1_555 1_555
H23 C26 1_555 1_555
C27 N3 1_555 1_555
C28 O6 1_555 1_555
C29 H24 1_555 1_555
C30 C29 1_555 1_555
H25 C30 1_555 1_555
C31 O4 1_555 1_555
C32 C26 1_555 1_555
H26 C32 1_555 1_555
C33 C29 1_555 1_555
H27 C33 1_555 1_555
C34 C30 1_555 1_555
C35 N1 1_555 1_555
C36 C17 1_555 1_555
C37 C19 1_555 1_555
H28 C37 1_555 1_555
C38 N4 1_555 1_555
H29 C38 1_555 1_555
H30 C38 1_555 1_555
H31 C38 1_555 1_555
C39 N4 1_555 1_555
H32 C39 1_555 1_555
H33 C39 1_555 1_555
H34 C39 1_555 1_555
C40 C25 1_555 1_555
H35 C40 1_555 1_555
C41 C1 1_555 1_555
H36 C41 1_555 1_555
C42 C33 1_555 1_555
H37 C42 1_555 1_555
Tb1A O7 1_555 1_555
Tb1A_2 O1 1_555 1_555
O1A Tb1 1_555 1_555
O2A Tb1 1_555 1_555
O5A Tb1 1_555 1_555
O7A Tb1 1_555 1_555
O2 Tb1A_2 1_555 1_555
O5 Tb1A_2 1_555 1_555
C5 C15 1_555 1_555
C6 C11 1_555 1_555
C8 C17 1_555 1_555
C12 C27 1_555 1_555
C14 C18 1_555 1_555
C16 C20 1_555 1_555
C19 C20 1_555 1_555
C21 C36 1_555 1_555
C23 C24 1_555 1_555
C23 C27 1_555 1_555
C28 C36 1_555 1_555
C31 C34 1_555 1_555
C32 C37 1_555 1_555
C34 C35 1_555 1_555
C35 C42 1_555 1_555
C40 C41 1_555 1_555
Tb1A_2 O1A 1_555 1_555

#END
