
#######################################################################
#
#                 Cambridge Crystallographic Data Centre
#                                CCDC 
#
#######################################################################
#
# If this CIF has been generated from an entry in the Cambridge 
# Structural Database, then it will include bibliographic, chemical, 
# crystal, experimental, refinement or atomic coordinate data resulting 
# from the CCDC's data processing and validation procedures.
#
#######################################################################

data_VOCMEH
_symmetry_cell_setting           monoclinic
_symmetry_space_group_name_H-M   'P 21/c'
_symmetry_Int_Tables_number      14
_space_group_name_Hall           '-P 2ybc'
loop_
_symmetry_equiv_pos_site_id
_symmetry_equiv_pos_as_xyz
1 x,y,z
2 -x,1/2+y,1/2-z
3 -x,-y,-z
4 x,1/2-y,1/2+z
_cell_length_a                   13.8541(3)
_cell_length_b                   28.4336(6)
_cell_length_c                   9.3044(2)
_cell_angle_alpha                90
_cell_angle_beta                 97.754(2)
_cell_angle_gamma                90
_cell_volume                     3631.69
loop_
_atom_site_label
_atom_site_type_symbol
_atom_site_fract_x
_atom_site_fract_y
_atom_site_fract_z
Tb1 Tb 0.53845(4) 0.49679(2) 0.30177(6)
O1 O 0.5993(5) 0.5252(2) 0.5854(7)
O2 O 0.6783(5) 0.5380(3) 0.4013(7)
O3 O 0.4581(5) 0.4567(2) 0.1142(7)
O4 O 0.4588(5) 0.5646(2) 0.3481(7)
O5 O 0.6673(5) 0.4612(3) 0.1934(8)
O6 O 0.5633(5) 0.5526(2) 0.1246(7)
O7 O 0.5958(5) 0.4317(2) 0.4369(7)
C1 C 0.4468(6) 0.4303(3) 0.0045(10)
C2 C 0.4131(7) 0.5852(3) 0.4369(10)
S1 S 0.73229(17) 0.48547(9) 0.0958(3)
C3 C 0.3230(7) 0.4609(3) 0.4633(10)
C4 C 0.4440(7) 0.3783(3) 0.0233(10)
C5 C 0.3694(7) 0.6317(3) 0.3975(10)
C6 C 0.8526(8) 0.4684(4) 0.1641(13)
C7 C 0.7195(9) 0.4514(4) -0.0661(12)
C8 C 0.2372(7) 0.4445(3) 0.3635(11)
C9 C 0.4828(7) 0.3600(4) 0.1612(10)
C10 C 0.4068(7) 0.3466(4) -0.0886(11)
C11 C 0.3907(7) 0.6521(4) 0.2683(11)
C12 C 0.3092(6) 0.6574(3) 0.4811(10)
H1 H 0.8724 0.4839 0.2576
H2 H 0.8968 0.4777 0.0954
H3 H 0.8552 0.4343 0.1773
H4 H 0.6548 0.4567 -0.1206
H5 H 0.7270 0.4180 -0.0413
H6 H 0.7696 0.4607 -0.1255
C13 C 0.1472(7) 0.4330(3) 0.4112(10)
C14 C 0.2477(8) 0.4383(4) 0.2183(11)
H7 H 0.5059 0.3810 0.2376
C15 C 0.4874(7) 0.3127(4) 0.1856(11)
N1 N 0.3689(6) 0.3633(3) -0.2243(9)
C16 C 0.4134(7) 0.2981(4) -0.0571(11)
H8 H 0.4292 0.6346 0.2102
C17 C 0.3592(8) 0.6955(4) 0.2211(11)
N2 N 0.2827(6) 0.6387(3) 0.6096(9)
C18 C 0.2793(8) 0.7028(4) 0.4355(11)
N3 N 0.1338(6) 0.4375(3) 0.5565(9)
C19 C 0.0730(7) 0.4153(4) 0.3079(11)
C20 C 0.1742(8) 0.4214(4) 0.1168(12)
H9 H 0.3085 0.4460 0.1875
H10 H 0.5142 0.3011 0.2782
C21 C 0.4530(8) 0.2813(4) 0.0754(11)
H11 H 0.3753 0.3936 -0.2396
C22 C 0.3209(7) 0.3367(4) -0.3411(11)
H12 H 0.3894 0.2763 -0.1307
H13 H 0.3751 0.7080 0.1326
C23 C 0.3022(8) 0.7213(4) 0.3085(11)
H14 H 0.3118 0.6125 0.6424
C24 C 0.2138(7) 0.6580(3) 0.6906(11)
H15 H 0.2424 0.7210 0.4940
C25 C 0.0511(7) 0.4220(4) 0.6159(11)
H16 H 0.1805 0.4511 0.6155
C26 C 0.0855(8) 0.4098(4) 0.1658(12)
H17 H 0.0124 0.4070 0.3377
H18 H 0.1830 0.4179 0.0179
H19 H 0.4570 0.2484 0.0924
C27 C 0.3419(8) 0.3455(4) -0.4792(11)
C28 C 0.2475(8) 0.3048(4) -0.3198(12)
H20 H 0.2795 0.7518 0.2789
C29 C 0.2352(7) 0.6595(4) 0.8428(11)
C30 C 0.1241(8) 0.6746(4) 0.6271(12)
C31 C 0.0624(8) 0.3880(4) 0.7234(12)
C32 C -0.0398(7) 0.4407(4) 0.5721(11)
H21 H 0.0334 0.3978 0.0989
H22 H 0.3927 0.3668 -0.4927
C33 C 0.2887(8) 0.3234(4) -0.6009(12)
C34 C 0.1952(9) 0.2826(4) -0.4401(13)
H23 H 0.2332 0.2983 -0.2247
H24 H 0.2955 0.6476 0.8895
C35 C 0.1677(8) 0.6786(4) 0.9250(12)
C36 C 0.0577(8) 0.6944(4) 0.7088(12)
H25 H 0.1075 0.6724 0.5248
C37 C -0.0192(8) 0.3725(4) 0.7833(12)
H26 H 0.1249 0.3753 0.7562
C38 C -0.1203(8) 0.4254(4) 0.6325(12)
H27 H -0.0475 0.4644 0.4995
H28 H 0.3028 0.3296 -0.6962
C39 C 0.2161(8) 0.2925(4) -0.5777(11)
H29 H 0.1453 0.2607 -0.4270
H30 H 0.1818 0.6793 1.0277
C40 C 0.0806(8) 0.6964(4) 0.8579(12)
H31 H -0.0027 0.7064 0.6628
C41 C -0.1111(8) 0.3902(4) 0.7366(11)
H32 H -0.0114 0.3493 0.8575
H33 H -0.1822 0.4391 0.6024
H34 H 0.1792 0.2776 -0.6585
H35 H 0.0359 0.7101 0.9146
H36 H -0.1666 0.3786 0.7750
O1B O 0.4007(5) 0.4748(2) 0.4146(7)
Tb1B Tb 0.46155(4) 0.50321(2) 0.69823(6)
O7B O 0.4042(5) 0.5683(2) 0.5631(7)
O2B O 0.3217(5) 0.4620(3) 0.5987(7)
O6B O 0.4367(5) 0.4474(2) -0.1246(7)
Tb1B_2 Tb 0.46155(4) 0.50321(2) -0.30177(6)
loop_
_geom_bond_atom_site_label_1
_geom_bond_atom_site_label_2
_geom_bond_site_symmetry_1
_geom_bond_site_symmetry_2
Tb1 O1 1_555 1_555
O1 Tb1B 1_555 1_555
O2 Tb1 1_555 1_555
O3 Tb1 1_555 1_555
O4 Tb1 1_555 1_555
O5 Tb1 1_555 1_555
O6 Tb1 1_555 1_555
O7 Tb1 1_555 1_555
C1 O3 1_555 1_555
C2 O4 1_555 1_555
S1 O5 1_555 1_555
C3 C8 1_555 1_555
C4 C1 1_555 1_555
C5 C2 1_555 1_555
C6 S1 1_555 1_555
C7 S1 1_555 1_555
C8 C13 1_555 1_555
C9 C4 1_555 1_555
C10 C4 1_555 1_555
C11 C5 1_555 1_555
C12 C5 1_555 1_555
H1 C6 1_555 1_555
H2 C6 1_555 1_555
H3 C6 1_555 1_555
H4 C7 1_555 1_555
H5 C7 1_555 1_555
H6 C7 1_555 1_555
C13 N3 1_555 1_555
C14 C8 1_555 1_555
H7 C9 1_555 1_555
C15 C9 1_555 1_555
N1 C10 1_555 1_555
C16 C10 1_555 1_555
H8 C11 1_555 1_555
C17 C11 1_555 1_555
N2 C12 1_555 1_555
C18 C12 1_555 1_555
N3 C25 1_555 1_555
C19 C13 1_555 1_555
C20 C14 1_555 1_555
H9 C14 1_555 1_555
H10 C15 1_555 1_555
C21 C15 1_555 1_555
H11 N1 1_555 1_555
C22 N1 1_555 1_555
H12 C16 1_555 1_555
H13 C17 1_555 1_555
C23 C17 1_555 1_555
H14 N2 1_555 1_555
C24 N2 1_555 1_555
H15 C18 1_555 1_555
C25 C31 1_555 1_555
H16 N3 1_555 1_555
C26 C19 1_555 1_555
H17 C19 1_555 1_555
H18 C20 1_555 1_555
H19 C21 1_555 1_555
C27 C22 1_555 1_555
C28 C22 1_555 1_555
H20 C23 1_555 1_555
C29 C24 1_555 1_555
C30 C24 1_555 1_555
C31 C37 1_555 1_555
C32 C25 1_555 1_555
H21 C26 1_555 1_555
H22 C27 1_555 1_555
C33 C27 1_555 1_555
C34 C28 1_555 1_555
H23 C28 1_555 1_555
H24 C29 1_555 1_555
C35 C29 1_555 1_555
C36 C30 1_555 1_555
H25 C30 1_555 1_555
C37 C41 1_555 1_555
H26 C31 1_555 1_555
C38 C32 1_555 1_555
H27 C32 1_555 1_555
H28 C33 1_555 1_555
C39 C33 1_555 1_555
H29 C34 1_555 1_555
H30 C35 1_555 1_555
C40 C35 1_555 1_555
H31 C36 1_555 1_555
C41 C38 1_555 1_555
H32 C37 1_555 1_555
H33 C38 1_555 1_555
H34 C39 1_555 1_555
H35 C40 1_555 1_555
H36 C41 1_555 1_555
O1B Tb1 1_555 1_555
Tb1B O1B 1_555 1_555
O7B C2 1_555 1_555
O2B C3 1_555 1_555
O6B C1 1_555 1_555
Tb1B_2 O6B 1_555 1_555
C3 O1B 1_555 1_555
C16 C21 1_555 1_555
C18 C23 1_555 1_555
C20 C26 1_555 1_555
C34 C39 1_555 1_555
C36 C40 1_555 1_555
Tb1B O7B 1_555 1_555
Tb1B O2B 1_555 1_555

#END
