
#######################################################################
#
#                 Cambridge Crystallographic Data Centre
#                                CCDC 
#
#######################################################################
#
# If this CIF has been generated from an entry in the Cambridge 
# Structural Database, then it will include bibliographic, chemical, 
# crystal, experimental, refinement or atomic coordinate data resulting 
# from the CCDC's data processing and validation procedures.
#
#######################################################################

data_VOCZOD
_symmetry_cell_setting           monoclinic
_symmetry_space_group_name_H-M   'P 21'
_symmetry_Int_Tables_number      4
_space_group_name_Hall           'P 2yb'
loop_
_symmetry_equiv_pos_site_id
_symmetry_equiv_pos_as_xyz
1 x,y,z
2 -x,1/2+y,-z
_cell_length_a                   5.1717(10)
_cell_length_b                   10.037(2)
_cell_length_c                   13.464(3)
_cell_angle_alpha                90
_cell_angle_beta                 91.40(3)
_cell_angle_gamma                90
_cell_volume                     698.685
loop_
_atom_site_label
_atom_site_type_symbol
_atom_site_fract_x
_atom_site_fract_y
_atom_site_fract_z
Ni1 Ni 0.02595(9) 0.59574(6) 0.85132(3)
S1 S -0.4323(2) 0.76676(12) 0.47333(8)
S2 S -0.0196(2) 0.56012(10) 0.41470(8)
S3 S 0.3649(2) 0.48998(12) 0.25821(7)
O1 O -0.2158(5) 0.5973(4) 0.72751(19)
O2 O -0.0146(6) 0.7455(3) 0.6311(2)
O3 O 0.0455(7) 0.4618(4) 0.0713(2)
O4 O 0.2604(5) 0.6036(4) -0.02116(19)
O5 O -0.1454(6) 0.4156(3) 0.8864(2)
H1 H -0.1249 0.3649 0.8598
H2 H -0.0834 0.4004 0.9482
O6 O -0.2582(7) 0.6919(4) 0.9298(3)
H3 H -0.3887 0.6538 0.9502
H4 H -0.2869 0.7710 0.9164
O7 O 0.1911(5) 0.7783(3) 0.8137(2)
H5 H 0.1198 0.8401 0.8435
H6 H 0.1393 0.7738 0.7548
O8 O 0.3070(6) 0.5022(4) 0.7761(3)
H7 H 0.4580 0.5242 0.7654
H8 H 0.2686 0.4307 0.7487
C1 C -0.1955(8) 0.6685(4) 0.6498(3)
C2 C -0.4209(8) 0.6523(5) 0.5760(3)
H9 H -0.5804 0.6611 0.6118
H10 H -0.4159 0.5625 0.5495
C3 C -0.1933(8) 0.7058(4) 0.3970(3)
C4 C 0.1239(7) 0.5951(6) 0.3021(3)
C5 C 0.4269(8) 0.5692(4) 0.1405(3)
H11 H 0.4393 0.6647 0.1510
H12 H 0.5930 0.5388 0.1175
C6 C 0.2217(8) 0.5425(5) 0.0590(3)
N1 N -0.1434(8) 0.7675(4) 0.3147(3)
N2 N 0.0422(8) 0.7037(4) 0.2592(3)
Ni1_2 Ni 0.02595(9) 0.59574(6) -0.14868(3)
O4_2 O 0.2604(5) 0.6036(4) 0.97884(19)
loop_
_geom_bond_atom_site_label_1
_geom_bond_atom_site_label_2
_geom_bond_site_symmetry_1
_geom_bond_site_symmetry_2
Ni1 O1 1_555 1_555
S1 C2 1_555 1_555
S2 C3 1_555 1_555
S3 C4 1_555 1_555
O1 C1 1_555 1_555
O2 C1 1_555 1_555
O3 C6 1_555 1_555
O4 C6 1_555 1_555
O5 Ni1 1_555 1_555
H1 O5 1_555 1_555
H2 O5 1_555 1_555
O6 Ni1 1_555 1_555
H3 O6 1_555 1_555
H4 O6 1_555 1_555
O7 Ni1 1_555 1_555
H5 O7 1_555 1_555
H6 O7 1_555 1_555
O8 Ni1 1_555 1_555
H7 O8 1_555 1_555
H8 O8 1_555 1_555
C1 C2 1_555 1_555
C2 H9 1_555 1_555
H10 C2 1_555 1_555
C3 S1 1_555 1_555
C4 S2 1_555 1_555
C5 S3 1_555 1_555
H11 C5 1_555 1_555
H12 C5 1_555 1_555
C6 C5 1_555 1_555
N1 C3 1_555 1_555
N2 C4 1_555 1_555
Ni1_2 O4 1_555 1_555
O4_2 Ni1 1_555 1_555
N1 N2 1_555 1_555

#END
