
#######################################################################
#
#                 Cambridge Crystallographic Data Centre
#                                CCDC 
#
#######################################################################
#
# If this CIF has been generated from an entry in the Cambridge 
# Structural Database, then it will include bibliographic, chemical, 
# crystal, experimental, refinement or atomic coordinate data resulting 
# from the CCDC's data processing and validation procedures.
#
#######################################################################

data_VODCUN
_symmetry_cell_setting           monoclinic
_symmetry_space_group_name_H-M   'P 21/a'
_symmetry_Int_Tables_number      14
_space_group_name_Hall           '-P 2yab'
loop_
_symmetry_equiv_pos_site_id
_symmetry_equiv_pos_as_xyz
1 x,y,z
2 1/2-x,1/2+y,-z
3 -x,-y,-z
4 1/2+x,1/2-y,z
_cell_length_a                   17.896(2)
_cell_length_b                   7.728(1)
_cell_length_c                   21.3777(6)
_cell_angle_alpha                90
_cell_angle_beta                 92.3137(6)
_cell_angle_gamma                90
_cell_volume                     2954.13
loop_
_atom_site_label
_atom_site_type_symbol
_atom_site_fract_x
_atom_site_fract_y
_atom_site_fract_z
Ag1 Ag 0.69807(3) -1.00338(7) -1.00284(2)
Ag2 Ag 0.54811(2) -0.68730(7) -0.48454(2)
O1 O 0.4153(2) -0.8990(6) -0.7825(2)
O2 O 0.8335(2) -1.3346(5) -1.2868(2)
N1 N 0.6242(3) -0.9868(7) -0.9286(2)
N2 N 0.4866(2) -0.8257(6) -0.5561(2)
N3 N 0.5141(2) -0.9574(7) -0.7168(2)
N4 N 0.6170(2) -1.5590(7) -1.4155(2)
N5 N 0.7659(2) -1.0423(7) -1.0803(2)
N6 N 0.7353(2) -1.2165(6) -1.2367(2)
C1 C 0.5592(3) -0.8984(9) -0.9334(3)
C2 C 0.5121(3) -0.8835(9) -0.8848(3)
C3 C 0.5311(3) -0.9609(7) -0.8280(2)
C4 C 0.5970(3) -1.0557(8) -0.8228(3)
C5 C 0.6417(3) -1.0634(8) -0.8735(3)
C6 C 0.4175(3) -0.8853(8) -0.5468(3)
C7 C 0.3764(3) -0.9709(8) -0.5934(3)
C8 C 0.4067(3) -0.9978(7) -0.6505(3)
C9 C 0.4783(3) -0.9350(7) -0.6606(2)
C10 C 0.5157(3) -0.8505(7) -0.6118(3)
C11 C 0.4806(3) -0.9376(7) -0.7740(2)
C12 C 0.6855(3) -1.5038(8) -1.4303(3)
C13 C 0.7333(3) -1.4253(8) -1.3875(3)
C14 C 0.7115(3) -1.3976(7) -1.3278(2)
C15 C 0.6407(3) -1.4551(8) -1.3118(3)
C16 C 0.5964(3) -1.5345(8) -1.3576(3)
C17 C 0.8382(3) -0.9935(8) -1.0805(3)
C18 C 0.8802(3) -1.0112(8) -1.1327(3)
C19 C 0.8486(3) -1.0838(8) -1.1867(3)
C20 C 0.7747(2) -1.1385(7) -1.1858(2)
C21 C 0.7359(3) -1.1123(8) -1.1316(3)
C22 C 0.7663(3) -1.3144(7) -1.2819(2)
H1 H 0.5455 -0.8444 -0.9721
H2 H 0.4668 -0.8203 -0.8900
H3 H 0.6109 -1.1139 -0.7849
H4 H 0.6873 -1.1261 -0.8694
H5 H 0.3963 -0.8682 -0.5073
H6 H 0.3274 -1.0109 -0.5859
H7 H 0.3794 -1.0583 -0.6826
H8 H 0.5646 -0.8080 -0.6183
H9 H 0.5655 -0.9887 -0.7147
H10 H 0.7011 -1.5198 -1.4718
H11 H 0.7817 -1.3903 -1.3993
H12 H 0.6236 -1.4401 -1.2706
H13 H 0.5482 -1.5738 -1.3469
H14 H 0.8609 -0.9455 -1.0435
H15 H 0.9307 -0.9735 -1.1317
H16 H 0.8767 -1.0960 -1.2233
H17 H 0.6849 -1.1467 -1.1316
H18 H 0.6827 -1.1995 -1.2398
Ag2_2 Ag 0.54811(2) -1.68730(7) -1.48454(2)
N4_2 N 0.6170(2) -0.5590(7) -0.4155(2)
P1 P 0.35536(8) -0.6243(2) -0.37719(8)
F1 F 0.3012(2) -0.7001(6) -0.4312(2)
F2 F 0.4206(3) -0.626(1) -0.4230(4)
F3 F 0.4103(3) -0.5423(8) -0.3258(2)
F4 F 0.2891(3) -0.603(2) -0.3361(3)
F5 F 0.3717(6) -0.8024(9) -0.3539(6)
F6 F 0.3366(5) -0.4397(8) -0.4043(4)
P2 P 0.61623(9) 0.3926(3) -0.11581(10)
F7 F 0.5594(4) 0.445(2) -0.1667(4)
F8 F 0.604(1) 0.223(2) -0.130(1)
F9 F 0.6749(4) 0.340(1) -0.0626(4)
F10 F 0.636(1) 0.562(2) -0.108(2)
F11 F 0.6769(5) 0.376(3) -0.1590(5)
F12 F 0.5563(5) 0.408(3) -0.0711(4)
loop_
_geom_bond_atom_site_label_1
_geom_bond_atom_site_label_2
_geom_bond_site_symmetry_1
_geom_bond_site_symmetry_2
Ag1 N1 1_555 1_555
Ag2 N2 1_555 1_555
P1 F1 1_555 1_555
P2 F7 1_555 1_555
F2 P1 1_555 1_555
F3 P1 1_555 1_555
F4 P1 1_555 1_555
F5 P1 1_555 1_555
F6 P1 1_555 1_555
F8 P2 1_555 1_555
F9 P2 1_555 1_555
F10 P2 1_555 1_555
F11 P2 1_555 1_555
F12 P2 1_555 1_555
O1 C11 1_555 1_555
O2 C22 1_555 1_555
N1 C1 1_555 1_555
N2 C6 1_555 1_555
N3 C9 1_555 1_555
N4 C12 1_555 1_555
N5 Ag1 1_555 1_555
N6 C20 1_555 1_555
C1 C2 1_555 1_555
C2 C3 1_555 1_555
C3 C4 1_555 1_555
C4 C5 1_555 1_555
C5 N1 1_555 1_555
C6 C7 1_555 1_555
C7 C8 1_555 1_555
C8 C9 1_555 1_555
C9 C10 1_555 1_555
C10 N2 1_555 1_555
C11 N3 1_555 1_555
C12 C13 1_555 1_555
C13 C14 1_555 1_555
C14 C15 1_555 1_555
C15 C16 1_555 1_555
C16 N4 1_555 1_555
C17 N5 1_555 1_555
C18 C17 1_555 1_555
C19 C18 1_555 1_555
C20 C19 1_555 1_555
C21 N5 1_555 1_555
C22 N6 1_555 1_555
H1 C1 1_555 1_555
H2 C2 1_555 1_555
H3 C4 1_555 1_555
H4 C5 1_555 1_555
H5 C6 1_555 1_555
H6 C7 1_555 1_555
H7 C8 1_555 1_555
H8 C10 1_555 1_555
H9 N3 1_555 1_555
H10 C12 1_555 1_555
H11 C13 1_555 1_555
H12 C15 1_555 1_555
H13 C16 1_555 1_555
H14 C17 1_555 1_555
H15 C18 1_555 1_555
H16 C19 1_555 1_555
H17 C21 1_555 1_555
H18 N6 1_555 1_555
Ag2_2 N4 1_555 1_555
N4_2 Ag2 1_555 1_555
C3 C11 1_555 1_555
C14 C22 1_555 1_555
C20 C21 1_555 1_555

#END
