
#######################################################################
#
#                 Cambridge Crystallographic Data Centre
#                                CCDC 
#
#######################################################################
#
# If this CIF has been generated from an entry in the Cambridge 
# Structural Database, then it will include bibliographic, chemical, 
# crystal, experimental, refinement or atomic coordinate data resulting 
# from the CCDC's data processing and validation procedures.
#
#######################################################################

data_VODFIE
_symmetry_cell_setting           triclinic
_symmetry_space_group_name_H-M   'P -1'
_symmetry_Int_Tables_number      2
_space_group_name_Hall           '-P 1'
loop_
_symmetry_equiv_pos_site_id
_symmetry_equiv_pos_as_xyz
1 x,y,z
2 -x,-y,-z
_cell_length_a                   12.023(5)
_cell_length_b                   12.507(5)
_cell_length_c                   14.242(5)
_cell_angle_alpha                73.777(5)
_cell_angle_beta                 66.229(5)
_cell_angle_gamma                83.641(5)
_cell_volume                     1881.86
loop_
_atom_site_label
_atom_site_type_symbol
_atom_site_fract_x
_atom_site_fract_y
_atom_site_fract_z
Na1 Na 1.8158(11) -0.0035(8) 0.7154(9)
Na2 Na 0.5391(9) 0.6341(12) 0.3881(10)
O1 O 0.509(2) 0.456(3) 0.414(3)
O15 O 1.9058(15) -0.0755(14) 0.8220(14)
O21 O 0.5666(17) 0.6234(19) 0.246(2)
W1 W 1.27436(8) 0.50504(8) 0.28307(7)
W2 W 0.94891(9) 0.68919(8) 0.65540(7)
W3 W 1.22622(9) 0.68660(8) 0.44260(8)
W4 W 1.14842(9) 0.46600(12) 0.67152(9)
W5 W 1.07053(12) 0.72456(9) 0.27582(8)
W6 W 1.20706(9) 0.28581(9) 0.51098(11)
Ag1 Ag 1.7568(2) 0.0567(2) 0.46232(18)
Ag2 Ag 1.6215(3) 0.5868(2) -0.02324(18)
Ag3 Ag 1.5210(2) 0.1415(2) 0.4914(2)
C1 C 1.890(3) 0.322(3) 0.107(2)
H1 H 1.9438 0.2741 0.1304
C2 C 1.769(2) 0.325(2) 0.1746(19)
C3 C 1.570(2) 0.789(2) -0.1802(16)
H2 H 1.6500 0.7795 -0.2238
C4 C 1.554(2) 0.9531(19) -0.3291(19)
C5 C 1.338(3) 0.820(3) -0.052(2)
H3 H 1.2566 0.8254 -0.0076
C6 C 1.930(3) 0.392(3) 0.005(2)
H4 H 2.0121 0.3956 -0.0393
C7 C 1.717(3) 0.247(2) 0.286(2)
C8 C 1.500(2) 0.876(2) -0.2176(18)
C9 C 1.411(3) 0.743(2) -0.018(2)
H5 H 1.3823 0.7036 0.0531
C10 C 1.690(2) 0.401(2) 0.1365(17)
H6 H 1.6090 0.4070 0.1806
C11 C 1.384(2) 0.891(2) -0.152(2)
H7 H 1.3360 0.9479 -0.1746
N1 N 1.5209(19) 0.7211(18) -0.0819(17)
N2 N 1.735(2) 0.464(2) 0.0342(19)
O2 O 1.0392(17) 0.578(2) 0.7174(17)
O3 O 1.306(2) 0.385(2) 0.387(2)
O4 O 1.195(3) 0.6262(18) 0.223(2)
O5 O 1.315(3) 0.599(2) 0.350(2)
O6 O 1.2455(17) 0.578(2) 0.5568(14)
O7 O 1.135(2) 0.240(2) 0.431(2)
O8 O 1.187(2) 0.411(2) 0.258(2)
O9 O 1.6165(17) 0.2702(15) 0.3450(15)
O10 O 1.4845(19) 0.0014(18) 0.6315(16)
O11 O 1.7808(18) 0.1661(16) 0.3036(14)
O12 O 1.6672(18) -0.0384(15) 0.6305(13)
O13 O 1.2202(16) 0.4492(16) 0.7555(15)
O14 O 1.095(2) 0.746(2) 0.544(2)
O16 O 0.919(2) 0.776(2) 0.7339(15)
O17 O 1.334(2) 0.7793(18) 0.4162(17)
O18 O 1.4099(15) 0.509(2) 0.1785(15)
O19 O 1.3076(16) 0.1796(15) 0.5192(14)
O20 O 1.1025(17) 0.8310(15) 0.1685(13)
C12 C 1.844(3) 0.455(3) -0.030(2)
H8 H 1.8678 0.4925 -0.1010
O22 O 1.237(2) 0.368(3) 0.586(3)
O23 O 1.159(3) 0.770(2) 0.343(2)
O24 O 1.122(2) 0.580(3) 0.401(2)
O25 O 1.971(3) -0.022(2) 0.429(3)
O26 O 1.057(3) 0.578(3) 0.554(3)
O27 O 1.067(3) 0.225(4) 0.625(3)
O28 O 0.976(2) 0.642(3) 0.247(3)
O29 O 1.067(3) 0.390(2) 0.592(2)
O30 O 1.109(2) 0.423(2) 0.4194(19)
W1A W 0.72564(8) 0.49496(8) 0.71693(7)
W2A W 1.05109(9) 0.31081(8) 0.34460(7)
W3A W 0.77378(9) 0.31340(8) 0.55740(8)
W4A W 0.85158(9) 0.53400(12) 0.32848(9)
W5A W 0.92947(12) 0.27544(9) 0.72418(8)
W6_2 W 1.20706(9) 1.28581(9) -0.48902(11)
W6A W 1.79294(9) -0.28581(9) 0.48902(11)
W6A_2 W 0.79294(9) 0.71419(9) 0.48902(11)
Ag1A Ag 1.2432(2) -0.0567(2) 0.53768(18)
Ag1_2 Ag 1.7568(2) 1.0567(2) -0.53768(18)
Ag2_2 Ag 1.6215(3) 1.5868(2) -1.02324(18)
Ag2A Ag 1.3785(3) -0.5868(2) 1.02324(18)
Ag2A_2 Ag 1.3785(3) 0.4132(2) 0.02324(18)
Ag2_3 Ag 1.6215(3) -0.4132(2) 0.97676(18)
Ag3A Ag 1.4790(2) -0.1415(2) 0.5086(2)
Ag3_2 Ag 1.5210(2) 1.1415(2) -0.5086(2)
Ag3A_2 Ag 0.4790(2) 0.8585(2) 0.5086(2)
C1_2 C 1.890(3) 1.322(3) -0.893(2)
C1A C 1.110(3) -0.322(3) 0.893(2)
H1_2 H 1.9438 1.2741 -0.8696
H1A H 1.0562 -0.2741 0.8696
C2_2 C 1.769(2) 1.325(2) -0.8254(19)
C2A C 1.231(2) -0.325(2) 0.8254(19)
C3A C 1.430(2) 0.211(2) 0.1802(16)
C3_2 C 1.570(2) -0.211(2) 0.8198(16)
H2A H 1.3500 0.2205 0.2238
H2_2 H 1.6500 -0.2205 0.7762
C4_2 C 1.554(2) -0.0469(19) 0.6709(19)
C4A C 1.446(2) 0.0469(19) 0.3291(19)
C5A C 1.662(3) 0.180(3) 0.052(2)
C5_2 C 1.338(3) -0.180(3) 0.948(2)
H3A H 1.7434 0.1746 0.0076
H3_2 H 1.2566 -0.1746 0.9924
C6_2 C 1.930(3) 1.392(3) -0.995(2)
C6A C 1.070(3) -0.392(3) 0.995(2)
H4_2 H 2.0121 1.3956 -1.0393
H4A H 0.9879 -0.3956 1.0393
C7_2 C 1.717(3) 1.247(2) -0.714(2)
C7A C 1.283(3) -0.247(2) 0.714(2)
C8A C 1.500(2) 0.124(2) 0.2176(18)
C8_2 C 1.500(2) -0.124(2) 0.7824(18)
C9A C 1.589(3) 0.257(2) 0.018(2)
C9_2 C 1.411(3) -0.257(2) 0.982(2)
H5A H 1.6177 0.2964 -0.0531
H5_2 H 1.3823 -0.2964 1.0531
C10_2 C 1.690(2) 1.401(2) -0.8635(17)
C10A C 1.310(2) -0.401(2) 0.8635(17)
H6_2 H 1.6090 1.4070 -0.8194
H6A H 1.3910 -0.4070 0.8194
C11A C 1.616(2) 0.109(2) 0.152(2)
C11_2 C 1.384(2) -0.109(2) 0.848(2)
H7A H 1.6640 0.0521 0.1746
H7_2 H 1.3360 -0.0521 0.8254
N1_2 N 1.5209(19) 1.7211(18) -1.0819(17)
N1A N 1.4791(19) 0.2789(18) 0.0819(17)
N1_3 N 1.5209(19) -0.2789(18) 0.9181(17)
N2_2 N 1.735(2) 1.464(2) -0.9658(19)
N2A N 1.265(2) -0.464(2) 0.9658(19)
N2A_2 N 1.265(2) 0.536(2) -0.0342(19)
O2A O 0.9608(17) 0.422(2) 0.2826(17)
O3A O 0.694(2) 0.615(2) 0.613(2)
O4A O 0.805(3) 0.3738(18) 0.777(2)
O5A O 0.685(3) 0.401(2) 0.650(2)
O6A O 0.7545(17) 0.422(2) 0.4432(14)
O7A O 0.865(2) 0.760(2) 0.569(2)
O8A O 0.813(2) 0.589(2) 0.742(2)
O9A O 1.3835(17) -0.2702(15) 0.6550(15)
O9_2 O 1.6165(17) 1.2702(15) -0.6550(15)
O10A O 1.5155(19) -0.0014(18) 0.3685(16)
O10_2 O 1.4845(19) 1.0014(18) -0.3685(16)
O11_2 O 1.7808(18) 1.1661(16) -0.6964(14)
O11A O 1.2192(18) -0.1661(16) 0.6964(14)
O12_2 O 1.6672(18) 0.9616(15) -0.3695(13)
O12A O 1.3328(18) 0.0384(15) 0.3695(13)
O13A O 0.7798(16) 0.5508(16) 0.2445(15)
O14A O 0.905(2) 0.254(2) 0.456(2)
O17A O 0.666(2) 0.2207(18) 0.5838(17)
O18A O 0.5901(15) 0.491(2) 0.8215(15)
O19A O 1.6924(16) -0.1796(15) 0.4808(14)
O19_2 O 1.3076(16) 1.1796(15) -0.4808(14)
O19A_2 O 0.6924(16) 0.8204(15) 0.4808(14)
O20A O 0.8975(17) 0.1690(15) 0.8315(13)
C12_2 C 1.844(3) 1.455(3) -1.030(2)
C12A C 1.156(3) -0.455(3) 1.030(2)
H8_2 H 1.8678 1.4925 -1.1010
H8A H 1.1322 -0.4925 1.1010
O22A O 0.763(2) 0.632(3) 0.414(3)
O23A O 0.841(3) 0.230(2) 0.657(2)
O24A O 0.878(2) 0.420(3) 0.599(2)
O25_2 O 1.971(3) 0.978(2) -0.571(3)
O25A O 1.029(3) 0.022(2) 0.571(3)
O26A O 0.943(3) 0.422(3) 0.446(3)
O27A O 0.933(3) 0.775(4) 0.375(3)
O28A O 1.024(2) 0.358(3) 0.753(3)
O29A O 0.933(3) 0.610(2) 0.408(2)
O30A O 0.891(2) 0.577(2) 0.5806(19)
loop_
_geom_bond_atom_site_label_1
_geom_bond_atom_site_label_2
_geom_bond_site_symmetry_1
_geom_bond_site_symmetry_2
W1 O3 1_555 1_555
W2 O2 1_555 1_555
W3 O5 1_555 1_555
W4 O2 1_555 1_555
W5 O4 1_555 1_555
W6 O3 1_555 1_555
Ag1 Ag3 1_555 1_555
Ag2 N1 1_555 1_555
Ag3 O9 1_555 1_555
C1 H1 1_555 1_555
C2 C1 1_555 1_555
C3 H2 1_555 1_555
C4 C8 1_555 1_555
C5 H3 1_555 1_555
C6 C1 1_555 1_555
H4 C6 1_555 1_555
C7 C2 1_555 1_555
C8 C3 1_555 1_555
C9 C5 1_555 1_555
H5 C9 1_555 1_555
C10 C2 1_555 1_555
H6 C10 1_555 1_555
C11 C5 1_555 1_555
H7 C11 1_555 1_555
N1 C3 1_555 1_555
N2 Ag2 1_555 1_555
O4 W1 1_555 1_555
O5 W1 1_555 1_555
O6 W3 1_555 1_555
O7 W6 1_555 1_555
O8 W1 1_555 1_555
O9 C7 1_555 1_555
O10 Ag3 1_555 1_555
O11 Ag1 1_555 1_555
O12 Ag1 1_555 1_555
O13 W4 1_555 1_555
O14 W2 1_555 1_555
O16 W2 1_555 1_555
O17 W3 1_555 1_555
O18 W1 1_555 1_555
O19 W6 1_555 1_555
O20 W5 1_555 1_555
C12 C6 1_555 1_555
H8 C12 1_555 1_555
O22 W4 1_555 1_555
O23 W3 1_555 1_555
O24 W1 1_555 1_555
O25 Ag1 1_555 1_555
O26 W2 1_555 1_555
O27 W6 1_555 1_555
O28 W5 1_555 1_555
O29 W4 1_555 1_555
O30 W1 1_555 1_555
W1A O3A 1_555 1_555
W2A O7 1_555 1_555
W3A O5A 1_555 1_555
W4A O28 1_555 1_555
W5A O27 1_555 1_555
W6_2 O19_2 1_555 1_555
W6A O19A 1_555 1_555
W6A_2 O3A 1_555 1_555
Ag1A Ag3A 1_555 1_555
Ag1_2 Ag3_2 1_555 1_555
Ag2_2 N1_2 1_555 1_555
Ag2A N2A 1_555 1_555
Ag2A_2 N1A 1_555 1_555
Ag2_3 N1_3 1_555 1_555
Ag3A O10 1_555 1_555
Ag3_2 O9_2 1_555 1_555
Ag3A_2 O19A_2 1_555 1_555
C1_2 H1_2 1_555 1_555
C1A H1A 1_555 1_555
C2_2 C1_2 1_555 1_555
C2A C1A 1_555 1_555
C3A H2A 1_555 1_555
C3_2 H2_2 1_555 1_555
C4_2 O10 1_555 1_555
C4A C8A 1_555 1_555
C5A H3A 1_555 1_555
C5_2 H3_2 1_555 1_555
C6_2 C1_2 1_555 1_555
C6A C1A 1_555 1_555
H4_2 C6_2 1_555 1_555
H4A C6A 1_555 1_555
C7_2 C2_2 1_555 1_555
C7A C2A 1_555 1_555
C8A C3A 1_555 1_555
C8_2 C3_2 1_555 1_555
C9A C5A 1_555 1_555
C9_2 C5_2 1_555 1_555
H5A C9A 1_555 1_555
H5_2 C9_2 1_555 1_555
C10_2 C2_2 1_555 1_555
C10A C2A 1_555 1_555
H6_2 C10_2 1_555 1_555
H6A C10A 1_555 1_555
C11A C5A 1_555 1_555
C11_2 C5_2 1_555 1_555
H7A C11A 1_555 1_555
H7_2 C11_2 1_555 1_555
N1A C3A 1_555 1_555
N1_3 C3_2 1_555 1_555
N2_2 Ag2_2 1_555 1_555
N2A C10A 1_555 1_555
N2A_2 Ag2A_2 1_555 1_555
O2A W2A 1_555 1_555
O4A W1A 1_555 1_555
O5A W1A 1_555 1_555
O6A W3A 1_555 1_555
O7A W2 1_555 1_555
O8A W2 1_555 1_555
O9A Ag3A 1_555 1_555
O9_2 C7_2 1_555 1_555
O10A Ag3 1_555 1_555
O10_2 C4 1_555 1_555
O11_2 Ag1_2 1_555 1_555
O11A Ag1A 1_555 1_555
O12_2 C4 1_555 1_555
O12A Ag1A 1_555 1_555
O13A W4A 1_555 1_555
O14A W2A 1_555 1_555
O17A W3A 1_555 1_555
O18A W1A 1_555 1_555
O19A Ag3A 1_555 1_555
O19_2 Ag3_2 1_555 1_555
O19A_2 W6A_2 1_555 1_555
O20A W5A 1_555 1_555
C12_2 C6_2 1_555 1_555
C12A C6A 1_555 1_555
H8_2 C12_2 1_555 1_555
H8A C12A 1_555 1_555
O22A W4A 1_555 1_555
O23A W3A 1_555 1_555
O24A W1A 1_555 1_555
O25_2 Ag1_2 1_555 1_555
O25A Ag1A 1_555 1_555
O26A O30 1_555 1_555
O27A W5 1_555 1_555
O28A W4 1_555 1_555
O29A W5 1_555 1_555
O30A W2 1_555 1_555
W3 O14 1_555 1_555
W3 O24 1_555 1_555
W3 O26 1_555 1_555
W4 O6 1_555 1_555
W4 O26 1_555 1_555
W5 O23 1_555 1_555
W5 O24 1_555 1_555
W6 O22 1_555 1_555
W6 O29 1_555 1_555
W6 O30 1_555 1_555
Ag3 O19 1_555 1_555
C7 O11 1_555 1_555
C8 C11 1_555 1_555
C9 N1 1_555 1_555
C10 N2 1_555 1_555
N2 C12 1_555 1_555
O8 W2A 1_555 1_555
O12 C4_2 1_555 1_555
O26 O30A 1_555 1_555
O29 W5A 1_555 1_555
O30 W2A 1_555 1_555
W1A O8A 1_555 1_555
W1A O30A 1_555 1_555
W2A O26A 1_555 1_555
W3A O14A 1_555 1_555
W3A O24A 1_555 1_555
W3A O26A 1_555 1_555
W4A O2A 1_555 1_555
W4A O6A 1_555 1_555
W4A O26A 1_555 1_555
W4A O29A 1_555 1_555
W5A O4A 1_555 1_555
W5A O23A 1_555 1_555
W5A O24A 1_555 1_555
W5A O28A 1_555 1_555
W6A_2 O7A 1_555 1_555
W6A_2 O22A 1_555 1_555
W6A_2 O27A 1_555 1_555
W6A_2 O29A 1_555 1_555
W6A_2 O30A 1_555 1_555
Ag1_2 O12_2 1_555 1_555
Ag3A O10A 1_555 1_555
Ag3_2 O10_2 1_555 1_555
C4_2 C8_2 1_555 1_555
C4A O10A 1_555 1_555
C4A O12A 1_555 1_555
C7_2 O11_2 1_555 1_555
C7A O9A 1_555 1_555
C7A O11A 1_555 1_555
C8A C11A 1_555 1_555
C8_2 C11_2 1_555 1_555
C9A N1A 1_555 1_555
C9_2 N1_3 1_555 1_555
C10_2 N2_2 1_555 1_555
N2_2 C12_2 1_555 1_555
N2A C12A 1_555 1_555

#END
