
#######################################################################
#
#                 Cambridge Crystallographic Data Centre
#                                CCDC 
#
#######################################################################
#
# If this CIF has been generated from an entry in the Cambridge 
# Structural Database, then it will include bibliographic, chemical, 
# crystal, experimental, refinement or atomic coordinate data resulting 
# from the CCDC's data processing and validation procedures.
#
#######################################################################

data_VODLEG01
_symmetry_cell_setting           monoclinic
_symmetry_space_group_name_H-M   'P 21/c'
_symmetry_Int_Tables_number      14
_space_group_name_Hall           '-P 2ybc'
loop_
_symmetry_equiv_pos_site_id
_symmetry_equiv_pos_as_xyz
1 x,y,z
2 -x,1/2+y,1/2-z
3 -x,-y,-z
4 x,1/2-y,1/2+z
_cell_length_a                   8.1749(4)
_cell_length_b                   16.0637(7)
_cell_length_c                   7.3475(4)
_cell_angle_alpha                90
_cell_angle_beta                 109.756(6)
_cell_angle_gamma                90
_cell_volume                     908.076
loop_
_atom_site_label
_atom_site_type_symbol
_atom_site_fract_x
_atom_site_fract_y
_atom_site_fract_z
K1 K 0.39218(6) 0.18391(3) 0.64956(7)
K2 K 0.40631(6) 0.06830(3) 0.19044(7)
O1 O 0.6027(2) 0.19684(8) 0.4262(2)
C1 C 0.8579(3) 0.12433(14) 0.5926(3)
C2 C 0.8438(3) 0.28065(14) 0.5808(3)
C3 C 0.7628(3) 0.20010(13) 0.5290(3)
C4 C 0.7697(3) 0.04831(15) 0.5334(3)
C5 C 1.0286(3) 0.11848(14) 0.7270(3)
C6 C 0.7356(3) 0.35101(15) 0.5236(3)
C7 C 1.0220(3) 0.29544(14) 0.6782(3)
N1 N 1.1680(3) 0.30857(11) 0.7557(3)
N2 N 0.6423(3) 0.40734(13) 0.4751(3)
N3 N 0.6956(2) -0.01384(13) 0.4873(3)
N4 N 1.1665(3) 0.11207(13) 0.8367(3)
K1C K 0.39218(6) 0.31609(3) 0.14956(7)
K1C_2 K 0.39218(6) 0.31609(3) 1.14956(7)
K1_2 K 0.39218(6) 0.18391(3) -0.35044(7)
K1_3 K 1.39218(6) 0.18391(3) 0.64956(7)
K1C_3 K 1.39218(6) 0.31609(3) 1.14956(7)
K1B K 0.60782(6) -0.18391(3) 0.35044(7)
K2_2 K 0.40631(6) 0.06830(3) 1.19044(7)
K2C K 0.40631(6) 0.43170(3) 0.69044(7)
K2B K 0.59369(6) -0.06830(3) -0.19044(7)
K2C_2 K 1.40631(6) 0.43170(3) 0.69044(7)
K2A K 0.59369(6) 0.56830(3) 0.30956(7)
K2B_2 K 0.59369(6) -0.06830(3) 0.80956(7)
K2_3 K 1.40631(6) 0.06830(3) 1.19044(7)
O1C O 0.6027(2) 0.30316(8) 0.9262(2)
N1_2 N 0.1680(3) 0.30857(11) 0.7557(3)
N1C N 0.1680(3) 0.19143(11) 0.2557(3)
N2C N 0.6423(3) 0.09266(13) 0.9751(3)
N2C_2 N 0.6423(3) 0.09266(13) -0.0249(3)
N2A N 0.3577(3) -0.09266(13) 0.0249(3)
N3B N 0.3044(2) 0.01384(13) 0.5127(3)
N4_2 N 0.1665(3) 0.11207(13) 0.8367(3)
N4_3 N 0.1665(3) 0.11207(13) -0.1633(3)
loop_
_geom_bond_atom_site_label_1
_geom_bond_atom_site_label_2
_geom_bond_site_symmetry_1
_geom_bond_site_symmetry_2
K1 O1 1_555 1_555
K2 O1 1_555 1_555
O1 C3 1_555 1_555
C1 C3 1_555 1_555
C2 C3 1_555 1_555
C4 C1 1_555 1_555
C5 C1 1_555 1_555
C6 C2 1_555 1_555
C7 C2 1_555 1_555
N1 C7 1_555 1_555
N2 C6 1_555 1_555
N3 K2 1_555 1_555
N4 C5 1_555 1_555
K1C O1 1_555 1_555
K1C_2 O1C 1_555 1_555
K1_2 N2C_2 1_555 1_555
K1_3 N1 1_555 1_555
K1C_3 N1 1_555 1_555
K1B N3 1_555 1_555
K2_2 N2C 1_555 1_555
K2C N2 1_555 1_555
K2B N2C_2 1_555 1_555
K2C_2 N1 1_555 1_555
K2A N2 1_555 1_555
K2B_2 N3 1_555 1_555
K2_3 N4 1_555 1_555
O1C K1 1_555 1_555
N1_2 K1 1_555 1_555
N1C K1 1_555 1_555
N2C K1 1_555 1_555
N2C_2 K2 1_555 1_555
N2A K2 1_555 1_555
N3B K1 1_555 1_555
N4_2 K1 1_555 1_555
N4_3 K2 1_555 1_555
K2 N1C 1_555 1_555
K2 N3B 1_555 1_555
C4 N3 1_555 1_555
N2 K1C 1_555 1_555
N4 K1_3 1_555 1_555
K1C N1C 1_555 1_555
K1C_2 N1_2 1_555 1_555
K1_2 N4_3 1_555 1_555
K1B N2A 1_555 1_555
K2_2 N4_2 1_555 1_555
K2C O1C 1_555 1_555
K2C N1_2 1_555 1_555
K2B N2A 1_555 1_555
K2B_2 N2C 1_555 1_555
K2B_2 N3B 1_555 1_555

#END
