
#######################################################################
#
#                 Cambridge Crystallographic Data Centre
#                                CCDC 
#
#######################################################################
#
# If this CIF has been generated from an entry in the Cambridge 
# Structural Database, then it will include bibliographic, chemical, 
# crystal, experimental, refinement or atomic coordinate data resulting 
# from the CCDC's data processing and validation procedures.
#
#######################################################################

data_VODNUY
_symmetry_cell_setting           monoclinic
_symmetry_space_group_name_H-M   'C 2/c'
_symmetry_Int_Tables_number      15
_space_group_name_Hall           '-C 2yn'
loop_
_symmetry_equiv_pos_site_id
_symmetry_equiv_pos_as_xyz
1 x,y,z
2 1/2+x,1/2+y,z
3 -x,y,1/2-z
4 1/2-x,1/2+y,1/2-z
5 -x,-y,-z
6 1/2-x,1/2-y,-z
7 x,-y,1/2+z
8 1/2+x,1/2-y,1/2+z
_cell_length_a                   22.924(3)
_cell_length_b                   10.3937(15)
_cell_length_c                   13.532(2)
_cell_angle_alpha                90
_cell_angle_beta                 105.250(2)
_cell_angle_gamma                90
_cell_volume                     3110.67
loop_
_atom_site_label
_atom_site_type_symbol
_atom_site_fract_x
_atom_site_fract_y
_atom_site_fract_z
Co1 Co 0.0000 0.60683(13) 0.2500
Co2 Co 0.14839(4) 0.79680(10) 0.32050(7)
O1 O 0.1791(3) 0.7965(6) 0.1706(5)
O2 O 0.1938(3) 0.6422(7) 0.2816(5)
O3 O 0.1312(2) 0.7390(5) 0.4506(4)
O4 O 0.0560(2) 0.5952(5) 0.4046(4)
O5 O 0.0904(3) 0.9388(6) 0.2467(4)
O6 O 0.0545(2) 0.7458(5) 0.2097(4)
N1 N 0.2829(3) 0.4242(7) 0.1095(5)
N2 N 0.0569(3) 0.5376(6) 0.7083(5)
C1 C 0.2601(4) 0.5009(9) 0.1681(7)
H1 H 0.2703 0.4863 0.2383
C2 C 0.2212(4) 0.6034(8) 0.1284(6)
C3 C 0.2075(4) 0.6259(9) 0.0245(7)
H2 H 0.1836 0.6958 -0.0040
C4 C 0.2295(5) 0.5439(11) -0.0361(7)
H3 H 0.2187 0.5543 -0.1069
C5 C 0.2676(4) 0.4470(10) 0.0080(7)
H4 H 0.2837 0.3944 -0.0338
C6 C 0.1963(4) 0.6857(8) 0.1985(7)
C7 C 0.0625(3) 0.5489(7) 0.6125(5)
H5 H 0.0418 0.4898 0.5642
C8 C 0.0964(3) 0.6412(7) 0.5801(6)
C9 C 0.1278(4) 0.7271(8) 0.6534(6)
H6 H 0.1521 0.7898 0.6356
C10 C 0.1229(4) 0.7196(9) 0.7532(7)
H7 H 0.1439 0.7764 0.8031
C11 C 0.0860(4) 0.6250(8) 0.7766(6)
H8 H 0.0812 0.6220 0.8427
C12 C 0.0952(3) 0.6578(7) 0.4688(6)
C13 C -0.0037(4) 1.0564(9) 0.0973(7)
H9 H 0.0334 1.1061 0.1185
H10 H -0.0257 1.0673 0.1488
C14 C 0.0120(4) 0.9171(8) 0.0917(6)
H11 H -0.0257 0.8679 0.0769
C15 C 0.0421(4) 0.8909(9) 0.0055(6)
H12 H 0.0475 0.7989 -0.0003
H13 H 0.0817 0.9310 0.0219
C16 C 0.0529(4) 0.8647(8) 0.1885(6)
Co1F Co 0.0000 0.39317(13) 0.7500
Co1F_2 Co 0.0000 1.39317(13) -0.2500
Co1F_3 Co 0.0000 0.39317(13) -0.2500
Co2B Co -0.14839(4) 0.79680(10) 0.17950(7)
Co2C Co 0.35161(4) 0.29680(10) 0.17950(7)
Co2D Co -0.14839(4) 1.20320(10) -0.32050(7)
Co2C_2 Co 0.35161(4) 1.29680(10) 0.17950(7)
O1C O 0.3209(3) 1.2965(6) 0.3294(5)
O1B O -0.1791(3) 0.7965(6) 0.3294(5)
O2C O 0.3062(3) 1.1422(7) 0.2184(5)
O2B O -0.1938(3) 0.6422(7) 0.2184(5)
O3B O -0.1312(2) 0.7390(5) 0.0494(4)
O4B O -0.0560(2) 0.5952(5) 0.0954(4)
O5D O -0.0904(3) 1.0612(6) -0.2467(4)
O5B O -0.0904(3) 0.9388(6) 0.2533(4)
O6D O -0.0545(2) 1.2542(5) -0.2097(4)
O6B O -0.0545(2) 0.7458(5) 0.2903(4)
N1C N 0.2171(3) 0.9242(7) 0.3905(5)
N1A N -0.2171(3) 0.9242(7) 0.1095(5)
N2B N -0.0569(3) 0.5376(6) -0.2083(5)
N2F N 0.0569(3) 0.4624(6) 0.2083(5)
N2D N -0.0569(3) 0.4624(6) 0.2917(5)
C1C C 0.2399(4) 1.0009(9) 0.3319(7)
H1C H 0.2297 0.9863 0.2617
C2C C 0.2788(4) 1.1034(8) 0.3716(6)
C3C C 0.2925(4) 1.1259(9) 0.4755(7)
H2C H 0.3164 1.1958 0.5040
C4C C 0.2705(5) 1.0439(11) 0.5361(7)
H3C H 0.2813 1.0543 0.6069
C5C C 0.2324(4) 0.9470(10) 0.4920(7)
H4C H 0.2163 0.8944 0.5338
C6C C 0.3037(4) 1.1857(8) 0.3015(7)
C7B C -0.0625(3) 0.5489(7) -0.1125(5)
H5B H -0.0418 0.4898 -0.0642
C8B C -0.0964(3) 0.6412(7) -0.0801(6)
C9B C -0.1278(4) 0.7271(8) -0.1534(6)
H6B H -0.1521 0.7898 -0.1356
C10B C -0.1229(4) 0.7196(9) -0.2532(7)
H7B H -0.1439 0.7764 -0.3031
C11B C -0.0860(4) 0.6250(8) -0.2766(6)
H8B H -0.0812 0.6220 -0.3427
C12B C -0.0952(3) 0.6578(7) 0.0312(6)
C13D C 0.0037(4) 0.9436(9) -0.0973(7)
H9D H -0.0334 0.8939 -0.1185
H10D H 0.0257 0.9327 -0.1488
C14D C -0.0120(4) 1.0829(8) -0.0917(6)
H11D H 0.0257 1.1321 -0.0769
C15D C -0.0421(4) 1.1091(9) -0.0055(6)
H12D H -0.0475 1.2011 0.0003
H13D H -0.0817 1.0690 -0.0219
C16D C -0.0529(4) 1.1353(8) -0.1885(6)
loop_
_geom_bond_atom_site_label_1
_geom_bond_atom_site_label_2
_geom_bond_site_symmetry_1
_geom_bond_site_symmetry_2
Co1 O4 1_555 1_555
Co2 O1 1_555 1_555
O1 C6 1_555 1_555
O2 Co2 1_555 1_555
O3 Co2 1_555 1_555
O4 C12 1_555 1_555
O5 Co2 1_555 1_555
O6 Co1 1_555 1_555
N1 C1 1_555 1_555
N2 C7 1_555 1_555
C1 H1 1_555 1_555
C2 C1 1_555 1_555
C3 C2 1_555 1_555
H2 C3 1_555 1_555
C4 C3 1_555 1_555
H3 C4 1_555 1_555
C5 N1 1_555 1_555
H4 C5 1_555 1_555
C6 O2 1_555 1_555
C7 H5 1_555 1_555
C8 C7 1_555 1_555
C9 C8 1_555 1_555
H6 C9 1_555 1_555
C10 C9 1_555 1_555
H7 C10 1_555 1_555
C11 N2 1_555 1_555
H8 C11 1_555 1_555
C12 O3 1_555 1_555
C13 H9 1_555 1_555
H10 C13 1_555 1_555
C14 C13 1_555 1_555
H11 C14 1_555 1_555
C15 C14 1_555 1_555
H12 C15 1_555 1_555
H13 C15 1_555 1_555
C16 O5 1_555 1_555
Co1F N2 1_555 1_555
Co1F_2 O6D 1_555 1_555
Co1F_3 N2B 1_555 1_555
Co2B O1B 1_555 1_555
Co2C N1 1_555 1_555
Co2D O5D 1_555 1_555
Co2C_2 O1C 1_555 1_555
O1C C6C 1_555 1_555
O2C Co2C_2 1_555 1_555
O2B Co2B 1_555 1_555
O3B Co2B 1_555 1_555
O4B Co1 1_555 1_555
O5D C16D 1_555 1_555
O5B Co2B 1_555 1_555
O6D Co2D 1_555 1_555
O6B Co1 1_555 1_555
N1C Co2 1_555 1_555
N1A Co2B 1_555 1_555
N2B C7B 1_555 1_555
N2F Co1 1_555 1_555
N2D Co1 1_555 1_555
C1C N1C 1_555 1_555
H1C C1C 1_555 1_555
C2C C1C 1_555 1_555
C3C C2C 1_555 1_555
H2C C3C 1_555 1_555
C4C C3C 1_555 1_555
H3C C4C 1_555 1_555
C5C N1C 1_555 1_555
H4C C5C 1_555 1_555
C6C O2C 1_555 1_555
C7B H5B 1_555 1_555
C8B C7B 1_555 1_555
C9B C8B 1_555 1_555
H6B C9B 1_555 1_555
C10B C9B 1_555 1_555
H7B C10B 1_555 1_555
C11B N2B 1_555 1_555
H8B C11B 1_555 1_555
C12B O3B 1_555 1_555
C13D C15 1_555 1_555
H9D C13D 1_555 1_555
H10D C13D 1_555 1_555
C14D C13D 1_555 1_555
H11D C14D 1_555 1_555
C15D C13 1_555 1_555
H12D C15D 1_555 1_555
H13D C15D 1_555 1_555
C16D O6D 1_555 1_555
Co2 O6 1_555 1_555
O6 C16 1_555 1_555
C2 C6 1_555 1_555
C4 C5 1_555 1_555
C8 C12 1_555 1_555
C10 C11 1_555 1_555
C14 C16 1_555 1_555
Co2B O6B 1_555 1_555
O4B C12B 1_555 1_555
C2C C6C 1_555 1_555
C4C C5C 1_555 1_555
C8B C12B 1_555 1_555
C10B C11B 1_555 1_555
C14D C15D 1_555 1_555
C14D C16D 1_555 1_555

#END
