
#######################################################################
#
#                 Cambridge Crystallographic Data Centre
#                                CCDC 
#
#######################################################################
#
# If this CIF has been generated from an entry in the Cambridge 
# Structural Database, then it will include bibliographic, chemical, 
# crystal, experimental, refinement or atomic coordinate data resulting 
# from the CCDC's data processing and validation procedures.
#
#######################################################################

data_VODPIO
_symmetry_cell_setting           monoclinic
_symmetry_space_group_name_H-M   'P 2/n'
_symmetry_Int_Tables_number      13
_space_group_name_Hall           '-P 2yac'
loop_
_symmetry_equiv_pos_site_id
_symmetry_equiv_pos_as_xyz
1 x,y,z
2 1/2-x,y,1/2-z
3 -x,-y,-z
4 1/2+x,-y,1/2+z
_cell_length_a                   8.6611(2)
_cell_length_b                   8.1158(2)
_cell_length_c                   26.8980(9)
_cell_angle_alpha                90
_cell_angle_beta                 96.7060(8)
_cell_angle_gamma                90
_cell_volume                     1877.77
loop_
_atom_site_label
_atom_site_type_symbol
_atom_site_fract_x
_atom_site_fract_y
_atom_site_fract_z
Co1 Co 0.5000 0.5000 0.5000
Co2 Co 0.05884(10) -0.02023(12) 0.72126(4)
N1 N 0.0019(6) 0.1077(8) 0.6532(2)
N2 N -0.1102(6) -0.2106(7) 0.6968(2)
C1 C 0.0109(8) 0.2108(10) 0.5809(3)
N3 N 0.1025(7) 0.1594(8) 0.6216(3)
N4 N 0.2720(7) 0.3947(9) 0.4954(3)
C2 C 0.2099(8) 0.3483(10) 0.5366(3)
H1 H 0.2639 0.3714 0.5678
C3 C 0.0679(8) 0.2668(10) 0.5346(3)
C4 C -0.2622(7) -0.1765(10) 0.6880(3)
H2 H -0.2931 -0.0668 0.6851
C5 C -0.0679(8) -0.3707(10) 0.6974(3)
H3 H 0.0371 -0.3966 0.7041
C6 C 0.1928(9) 0.3630(12) 0.4514(3)
H4 H 0.2365 0.3926 0.4227
C7 C -0.0141(9) 0.2408(13) 0.4890(3)
H5 H -0.1116 0.1915 0.4865
N5 N -0.7624(6) -0.1559(8) 0.6904(2)
C8 C -0.1736(9) -0.4978(9) 0.6885(3)
H6 H -0.1392 -0.6060 0.6868
N6 N -0.7823(6) -0.2443(9) 0.6500(2)
C9 C -0.3295(9) -0.4633(10) 0.6822(3)
H7 H -0.4025 -0.5475 0.6775
C10 C -0.3764(7) -0.2988(9) 0.6830(3)
C11 C 0.0498(10) 0.2888(14) 0.4459(4)
H8 H -0.0033 0.2709 0.4143
N7 N -0.1389(7) 0.1919(9) 0.5868(3)
H9 H -0.2177 0.2156 0.5656
N8 N -0.1415(7) 0.1286(8) 0.6326(3)
O1 O 0.5740(6) 0.3428(8) 0.5615(2)
N9 N -0.1140(8) 0.1377(8) 0.7548(2)
N10 N 0.2500 0.1299(11) 0.7500
N11 N -0.2500 0.1357(10) 0.7500
N12 N -0.6449(7) -0.3102(9) 0.6413(2)
O2 O 0.5707(7) 0.3200(7) 0.4529(2)
N13 N 0.2500 0.2792(15) 0.7500
N14 N 0.2500 0.4185(18) 0.7500
N15 N -0.6114(6) -0.1577(7) 0.7091(2)
C12 C -0.5419(8) -0.2543(9) 0.6779(3)
Co2B Co 0.94116(10) 1.02023(12) 0.27874(4)
Co2_2 Co -0.94116(10) -0.02023(12) 0.72126(4)
Co2A Co 0.44116(10) -0.02023(12) 0.77874(4)
Co2A_2 Co -0.55884(10) -0.02023(12) 0.77874(4)
Co2_3 Co 1.05884(10) -0.02023(12) 0.72126(4)
N1B N 0.9981(6) 0.8923(8) 0.3468(2)
N2_2 N 0.8898(6) -0.2106(7) 0.6968(2)
N2B N 1.1102(6) 1.2106(7) 0.3032(2)
C1B C 0.9891(8) 0.7892(10) 0.4191(3)
N3B N 0.8975(7) 0.8406(8) 0.3784(3)
N4B N 0.7280(7) 0.6053(9) 0.5046(3)
C2B C 0.7901(8) 0.6517(10) 0.4634(3)
H1B H 0.7361 0.6286 0.4322
C3B C 0.9321(8) 0.7332(10) 0.4654(3)
C4_2 C 0.7378(7) -0.1765(10) 0.6880(3)
H2_2 H 0.7069 -0.0668 0.6851
C5_2 C 0.9321(8) -0.3707(10) 0.6974(3)
H3_2 H 1.0371 -0.3966 0.7041
C6B C 0.8072(9) 0.6370(12) 0.5486(3)
H4B H 0.7635 0.6074 0.5773
C7B C 1.0141(9) 0.7592(13) 0.5110(3)
H5B H 1.1116 0.8085 0.5135
N5_2 N 0.2376(6) -0.1559(8) 0.6904(2)
N5B N 0.7624(6) 1.1559(8) 0.3096(2)
C8_2 C 0.8264(9) -0.4978(9) 0.6885(3)
H6_2 H 0.8608 -0.6060 0.6868
N6_2 N 0.2177(6) -0.2443(9) 0.6500(2)
C9_2 C 0.6705(9) -0.4633(10) 0.6822(3)
H7_2 H 0.5975 -0.5475 0.6775
C10_2 C 0.6236(7) -0.2988(9) 0.6830(3)
C11B C 0.9502(10) 0.7112(14) 0.5541(4)
H8B H 1.0033 0.7291 0.5857
N7B N 1.1389(7) 0.8081(9) 0.4132(3)
H9B H 1.2177 0.7844 0.4344
N8B N 1.1415(7) 0.8714(8) 0.3674(3)
O1B O 0.4260(6) 0.6572(8) 0.4385(2)
N9A N -0.3860(8) 0.1377(8) 0.7452(2)
N9B N 1.1140(8) 0.8623(8) 0.2452(2)
N10C N 0.7500 0.8701(11) 0.2500
N12_2 N 0.3551(7) -0.3102(9) 0.6413(2)
O2B O 0.4293(7) 0.6800(7) 0.5471(2)
N15_2 N 0.3886(6) -0.1577(7) 0.7091(2)
N15A N 0.1114(6) -0.1577(7) 0.7909(2)
N15C N 0.8886(6) 1.1577(7) 0.2091(2)
C12_2 C 0.4581(8) -0.2543(9) 0.6779(3)
O3 O 0.4334(7) 0.1827(8) 0.6373(2)
loop_
_geom_bond_atom_site_label_1
_geom_bond_atom_site_label_2
_geom_bond_site_symmetry_1
_geom_bond_site_symmetry_2
Co1 N4 1_555 1_555
Co2 N1 1_555 1_555
N1 N3 1_555 1_555
N2 Co2 1_555 1_555
C1 N3 1_555 1_555
N4 C2 1_555 1_555
C2 H1 1_555 1_555
C3 C1 1_555 1_555
C4 N2 1_555 1_555
H2 C4 1_555 1_555
C5 N2 1_555 1_555
H3 C5 1_555 1_555
C6 N4 1_555 1_555
H4 C6 1_555 1_555
C7 C3 1_555 1_555
H5 C7 1_555 1_555
N5 N6 1_555 1_555
C8 C5 1_555 1_555
H6 C8 1_555 1_555
N6 N12 1_555 1_555
C9 C8 1_555 1_555
H7 C9 1_555 1_555
C10 C4 1_555 1_555
C11 C6 1_555 1_555
H8 C11 1_555 1_555
N7 C1 1_555 1_555
H9 N7 1_555 1_555
N8 N1 1_555 1_555
O1 Co1 1_555 1_555
N9 Co2 1_555 1_555
N10 Co2 1_555 1_555
N11 N9 1_555 1_555
N12 C12 1_555 1_555
O2 Co1 1_555 1_555
N13 N10 1_555 1_555
N14 N13 1_555 1_555
N15 N5 1_555 1_555
C12 C10 1_555 1_555
Co2B N1B 1_555 1_555
Co2_2 N5 1_555 1_555
Co2A N10 1_555 1_555
Co2A_2 N15 1_555 1_555
Co2_3 N2_2 1_555 1_555
N1B N3B 1_555 1_555
N2_2 C4_2 1_555 1_555
N2B Co2B 1_555 1_555
C1B N3B 1_555 1_555
N4B Co1 1_555 1_555
C2B N4B 1_555 1_555
H1B C2B 1_555 1_555
C3B C1B 1_555 1_555
C4_2 H2_2 1_555 1_555
C5_2 N2_2 1_555 1_555
H3_2 C5_2 1_555 1_555
C6B N4B 1_555 1_555
H4B C6B 1_555 1_555
C7B C3B 1_555 1_555
H5B C7B 1_555 1_555
N5_2 Co2 1_555 1_555
N5B Co2B 1_555 1_555
C8_2 C5_2 1_555 1_555
H6_2 C8_2 1_555 1_555
N6_2 N5_2 1_555 1_555
C9_2 C8_2 1_555 1_555
H7_2 C9_2 1_555 1_555
C10_2 C4_2 1_555 1_555
C11B C6B 1_555 1_555
H8B C11B 1_555 1_555
N7B C1B 1_555 1_555
H9B N7B 1_555 1_555
N8B N1B 1_555 1_555
O1B Co1 1_555 1_555
N9A N11 1_555 1_555
N9B Co2B 1_555 1_555
N10C Co2B 1_555 1_555
N12_2 N6_2 1_555 1_555
O2B Co1 1_555 1_555
N15_2 Co2A 1_555 1_555
N15A Co2 1_555 1_555
N15C Co2B 1_555 1_555
C12_2 C10_2 1_555 1_555
C2 C3 1_555 1_555
C7 C11 1_555 1_555
C9 C10 1_555 1_555
N7 N8 1_555 1_555
N15 C12 1_555 1_555
Co2A_2 N9A 1_555 1_555
C2B C3B 1_555 1_555
C7B C11B 1_555 1_555
N5_2 N15_2 1_555 1_555
C9_2 C10_2 1_555 1_555
N7B N8B 1_555 1_555
N12_2 C12_2 1_555 1_555
N15_2 C12_2 1_555 1_555

#END
