
#######################################################################
#
#                 Cambridge Crystallographic Data Centre
#                                CCDC 
#
#######################################################################
#
# If this CIF has been generated from an entry in the Cambridge 
# Structural Database, then it will include bibliographic, chemical, 
# crystal, experimental, refinement or atomic coordinate data resulting 
# from the CCDC's data processing and validation procedures.
#
#######################################################################

data_VODQAH
_symmetry_cell_setting           monoclinic
_symmetry_space_group_name_H-M   'P 21/c'
_symmetry_Int_Tables_number      14
_space_group_name_Hall           '-P 2ybc'
loop_
_symmetry_equiv_pos_site_id
_symmetry_equiv_pos_as_xyz
1 x,y,z
2 -x,1/2+y,1/2-z
3 -x,-y,-z
4 x,1/2-y,1/2+z
_cell_length_a                   8.885(7)
_cell_length_b                   13.456(11)
_cell_length_c                   14.083(11)
_cell_angle_alpha                90
_cell_angle_beta                 105.759(13)
_cell_angle_gamma                90
_cell_volume                     1620.43
loop_
_atom_site_label
_atom_site_type_symbol
_atom_site_fract_x
_atom_site_fract_y
_atom_site_fract_z
O1 O 0.1739(3) 0.05588(17) -0.04448(17)
C1 C 0.2761(4) 0.0132(3) -0.0755(2)
Cu1 Cu 0.0000 0.0000 0.0000
O2 O 0.1120(3) 0.46147(18) -0.35729(17)
N1 N 0.3229(3) 0.1805(2) -0.15056(18)
N2 N 0.2743(3) 0.3655(2) -0.17803(18)
O3 O 0.1995(3) 0.60735(19) -0.29411(18)
C2 C 0.1222(4) 0.3099(2) -0.1967(3)
H1 H 0.0512 0.3317 -0.2584
H2 H 0.0737 0.3229 -0.1440
C3 C 0.1546(4) 0.2006(3) -0.2015(2)
H3 H 0.1314 0.1795 -0.2698
H4 H 0.0884 0.1633 -0.1698
C4 C 0.4181(4) 0.2219(3) -0.2147(3)
H5 H 0.5278 0.2232 -0.1784
H6 H 0.4067 0.1800 -0.2723
C5 C 0.3599(4) 0.0728(2) -0.1367(3)
H7 H 0.3379 0.0423 -0.2014
H8 H 0.4714 0.0664 -0.1066
C6 C 0.2511(4) 0.4751(2) -0.1874(2)
H9 H 0.1839 0.4945 -0.1466
H10 H 0.3518 0.5066 -0.1598
C7 C 0.1822(4) 0.5176(3) -0.2896(3)
C8 C 0.3629(4) 0.3257(2) -0.2464(2)
H11 H 0.2959 0.3247 -0.3134
H12 H 0.4519 0.3680 -0.2446
C9 C 0.3683(4) 0.2341(3) -0.0543(2)
H13 H 0.2949 0.2187 -0.0164
H14 H 0.4717 0.2132 -0.0165
C10 C 0.3676(4) 0.3441(3) -0.0740(2)
H15 H 0.4740 0.3674 -0.0641
H16 H 0.3222 0.3791 -0.0282
O4 O 0.3180(3) -0.07329(19) -0.0634(2)
O5 O 0.1019(3) -0.1523(2) 0.01534(19)
H17 H 0.1633 -0.1708 0.0699
H18 H 0.0788 -0.1922 -0.0333
O1B O -0.1739(3) -0.05588(17) 0.04448(17)
C1B C -0.2761(4) -0.0132(3) 0.0755(2)
Cu1C Cu 0.0000 0.5000 -0.5000
Cu1C_2 Cu 0.0000 -0.5000 0.5000
O2B O -0.1120(3) -0.46147(18) 0.35729(17)
O2C O 0.1120(3) 0.03853(18) 0.14271(17)
O2A O -0.1120(3) -0.03853(18) -0.14271(17)
N1B N -0.3229(3) -0.1805(2) 0.15056(18)
N2B N -0.2743(3) -0.3655(2) 0.17803(18)
O3B O -0.1995(3) -0.60735(19) 0.29411(18)
C2B C -0.1222(4) -0.3099(2) 0.1967(3)
H1B H -0.0512 -0.3317 0.2584
H2B H -0.0737 -0.3229 0.1440
C3B C -0.1546(4) -0.2006(3) 0.2015(2)
H3B H -0.1314 -0.1795 0.2698
H4B H -0.0884 -0.1633 0.1698
C4B C -0.4181(4) -0.2219(3) 0.2147(3)
H5B H -0.5278 -0.2232 0.1784
H6B H -0.4067 -0.1800 0.2723
C5B C -0.3599(4) -0.0728(2) 0.1367(3)
H7B H -0.3379 -0.0423 0.2014
H8B H -0.4714 -0.0664 0.1066
C6B C -0.2511(4) -0.4751(2) 0.1874(2)
H9B H -0.1839 -0.4945 0.1466
H10B H -0.3518 -0.5066 0.1598
C7B C -0.1822(4) -0.5176(3) 0.2896(3)
C8B C -0.3629(4) -0.3257(2) 0.2464(2)
H11B H -0.2959 -0.3247 0.3134
H12B H -0.4519 -0.3680 0.2446
C9B C -0.3683(4) -0.2341(3) 0.0543(2)
H13B H -0.2949 -0.2187 0.0164
H14B H -0.4717 -0.2132 0.0165
C10B C -0.3676(4) -0.3441(3) 0.0740(2)
H15B H -0.4740 -0.3674 0.0641
H16B H -0.3222 -0.3791 0.0282
O4B O -0.3180(3) 0.07329(19) 0.0634(2)
O5B O -0.1019(3) 0.1523(2) -0.01534(19)
H17B H -0.1633 0.1708 -0.0699
H18B H -0.0788 0.1922 0.0333
Cl1 Cl 0.77406(10) 0.05844(7) 0.38688(7)
O6 O 0.6338(3) 0.0015(2) 0.3585(2)
O7 O 0.8867(4) 0.0143(3) 0.3459(3)
O8 O 0.7463(4) 0.1551(3) 0.3514(3)
O9 O 0.8300(5) 0.0557(4) 0.4892(2)
O10 O 0.3797(4) 0.7659(2) 0.3592(2)
H19 H 0.2848 0.7586 0.3704
H20 H 0.3086 0.7995 0.3045
O11 O 0.8954(5) 0.6978(2) 0.9408(2)
H21 H 0.9478 0.6414 0.9465
H22 H 0.8608 0.6976 0.9512
loop_
_geom_bond_atom_site_label_1
_geom_bond_atom_site_label_2
_geom_bond_site_symmetry_1
_geom_bond_site_symmetry_2
O1 C1 1_555 1_555
C1 C5 1_555 1_555
Cu1 O1 1_555 1_555
O2 C7 1_555 1_555
N1 C3 1_555 1_555
N2 C2 1_555 1_555
O3 C7 1_555 1_555
C2 H1 1_555 1_555
H2 C2 1_555 1_555
C3 C2 1_555 1_555
H3 C3 1_555 1_555
H4 C3 1_555 1_555
C4 N1 1_555 1_555
H5 C4 1_555 1_555
H6 C4 1_555 1_555
C5 N1 1_555 1_555
H7 C5 1_555 1_555
H8 C5 1_555 1_555
C6 N2 1_555 1_555
H9 C6 1_555 1_555
H10 C6 1_555 1_555
C7 C6 1_555 1_555
C8 N2 1_555 1_555
H11 C8 1_555 1_555
H12 C8 1_555 1_555
C9 N1 1_555 1_555
H13 C9 1_555 1_555
H14 C9 1_555 1_555
C10 N2 1_555 1_555
H15 C10 1_555 1_555
H16 C10 1_555 1_555
O4 C1 1_555 1_555
O5 Cu1 1_555 1_555
H17 O5 1_555 1_555
H18 O5 1_555 1_555
Cl1 O6 1_555 1_555
O7 Cl1 1_555 1_555
O8 Cl1 1_555 1_555
O9 Cl1 1_555 1_555
O10 H19 1_555 1_555
H20 O10 1_555 1_555
O11 H21 1_555 1_555
H22 O11 1_555 1_555
O1B Cu1 1_555 1_555
C1B O1B 1_555 1_555
Cu1C O2 1_555 1_555
Cu1C_2 O2B 1_555 1_555
O2B C7B 1_555 1_555
O2C Cu1 1_555 1_555
O2A Cu1 1_555 1_555
N1B C3B 1_555 1_555
N2B C2B 1_555 1_555
O3B C7B 1_555 1_555
C2B H1B 1_555 1_555
H2B C2B 1_555 1_555
C3B C2B 1_555 1_555
H3B C3B 1_555 1_555
H4B C3B 1_555 1_555
C4B N1B 1_555 1_555
H5B C4B 1_555 1_555
H6B C4B 1_555 1_555
C5B C1B 1_555 1_555
H7B C5B 1_555 1_555
H8B C5B 1_555 1_555
C6B N2B 1_555 1_555
H9B C6B 1_555 1_555
H10B C6B 1_555 1_555
C7B C6B 1_555 1_555
C8B N2B 1_555 1_555
H11B C8B 1_555 1_555
H12B C8B 1_555 1_555
C9B N1B 1_555 1_555
H13B C9B 1_555 1_555
H14B C9B 1_555 1_555
C10B N2B 1_555 1_555
H15B C10B 1_555 1_555
H16B C10B 1_555 1_555
O4B C1B 1_555 1_555
O5B Cu1 1_555 1_555
H17B O5B 1_555 1_555
H18B O5B 1_555 1_555
C4 C8 1_555 1_555
C9 C10 1_555 1_555
N1B C5B 1_555 1_555
C4B C8B 1_555 1_555
C9B C10B 1_555 1_555

#END
