
#######################################################################
#
#                 Cambridge Crystallographic Data Centre
#                                CCDC 
#
#######################################################################
#
# If this CIF has been generated from an entry in the Cambridge 
# Structural Database, then it will include bibliographic, chemical, 
# crystal, experimental, refinement or atomic coordinate data resulting 
# from the CCDC's data processing and validation procedures.
#
#######################################################################

data_VODQOV
_symmetry_cell_setting           triclinic
_symmetry_space_group_name_H-M   'P -1'
_symmetry_Int_Tables_number      2
_space_group_name_Hall           '-P 1'
loop_
_symmetry_equiv_pos_site_id
_symmetry_equiv_pos_as_xyz
1 x,y,z
2 -x,-y,-z
_cell_length_a                   12.5892(12)
_cell_length_b                   12.7017(12)
_cell_length_c                   17.5888(16)
_cell_angle_alpha                101.3820(10)
_cell_angle_beta                 94.9410(10)
_cell_angle_gamma                117.6940(10)
_cell_volume                     2389.56
loop_
_atom_site_label
_atom_site_type_symbol
_atom_site_fract_x
_atom_site_fract_y
_atom_site_fract_z
Yb1 Yb 0.46481(3) 0.47975(3) 0.877696(16)
Yb2 Yb 0.40797(3) 0.45901(3) 0.584694(16)
S1 S -0.25629(16) -0.02805(16) 0.97277(11)
S2 S -0.02882(17) 0.75062(17) 0.69506(11)
S3 S 0.96890(18) 0.25463(17) 0.69952(12)
O1 O 0.3042(5) 0.3536(5) 0.9215(3)
O2 O 0.3379(4) 0.4074(5) 1.0541(3)
O3 O -0.3029(5) -0.1207(4) 0.8979(3)
O4 O -0.2707(5) -0.0651(5) 1.0446(3)
O5 O -0.4814(5) 0.3355(5) 0.8967(3)
O6 O -0.4624(5) 0.3776(5) 1.0278(3)
O7 O 0.3200(5) 0.5167(5) 0.8147(3)
O8 O 0.3444(5) 0.5112(5) 0.6905(3)
O9 O -0.1014(5) 0.6902(5) 0.6159(3)
O10 O -0.0889(5) 0.7538(5) 0.7603(3)
O11 O 0.4077(5) 1.3450(4) 0.7595(3)
O12 O 0.3519(5) 1.2877(4) 0.6286(3)
O13 O 0.5813(5) 0.4508(5) 0.6023(3)
O14 O 0.6565(5) 0.4474(5) 0.4915(3)
O15 O 0.9956(5) 0.2955(5) 0.7840(3)
O16 O 1.0678(5) 0.2768(5) 0.6576(4)
O17 O 0.5518(5) -0.3394(5) 0.6523(3)
O18 O 0.6014(5) -0.3538(5) 0.5356(3)
O19 O 0.5812(5) 0.6241(5) 0.8120(3)
H1 H 0.6055 0.7070 0.8322
H2 H 0.6032 0.5984 0.7656
O20 O 0.1934(5) 0.3316(6) 0.5391(3)
H3 H 0.1405 0.3336 0.5724
H4 H 0.1621 0.2794 0.4879
C1 C 0.2718(6) 0.3434(7) 0.9871(4)
C2 C 0.1407(6) 0.2463(7) 0.9839(4)
C3 C 0.0686(7) 0.1614(7) 0.9128(5)
H5 H 0.1001 0.1638 0.8669
C4 C -0.0512(7) 0.0724(7) 0.9102(4)
H6 H -0.0988 0.0132 0.8629
C5 C -0.0991(7) 0.0720(6) 0.9775(4)
C6 C -0.0261(7) 0.1564(7) 1.0492(4)
H7 H -0.0576 0.1556 1.0951
C7 C 0.0944(7) 0.2417(7) 1.0512(4)
H8 H 0.1445 0.2966 1.0993
C8 C -0.3234(6) 0.0672(6) 0.9694(4)
C9 C -0.3625(8) 0.0793(8) 0.8971(5)
H9 H -0.3593 0.0331 0.8501
C10 C -0.4066(8) 0.1611(8) 0.8955(5)
H10 H -0.4315 0.1706 0.8472
C11 C -0.4138(6) 0.2282(6) 0.9648(4)
C12 C -0.3779(8) 0.2121(7) 1.0371(4)
H11 H -0.3836 0.2560 1.0841
C13 C -0.3337(7) 0.1308(7) 1.0388(4)
H12 H -0.3110 0.1192 1.0869
C14 C -0.4566(7) 0.3204(7) 0.9630(4)
C15 C 0.2987(7) 0.5326(7) 0.7482(4)
C16 C 0.2152(7) 0.5857(6) 0.7358(4)
C17 C 0.2124(9) 0.6303(9) 0.6709(5)
H13 H 0.2612 0.6265 0.6348
C18 C 0.1380(8) 0.6808(9) 0.6587(5)
H14 H 0.1374 0.7118 0.6151
C19 C 0.0649(7) 0.6844(6) 0.7117(4)
C20 C 0.0670(7) 0.6415(7) 0.7772(4)
H15 H 0.0186 0.6462 0.8134
C21 C 0.1423(7) 0.5907(7) 0.7889(4)
H16 H 0.1433 0.5601 0.8327
C22 C 0.0786(7) 0.9033(6) 0.6957(4)
C23 C 0.1628(8) 0.9827(7) 0.7648(4)
H17 H 0.1619 0.9564 0.8106
C24 C 0.2488(8) 1.1020(7) 0.7653(4)
H18 H 0.3053 1.1557 0.8117
C25 C 0.2504(7) 1.1411(7) 0.6968(4)
C26 C 0.1646(9) 1.0607(8) 0.6292(5)
H19 H 0.1650 1.0871 0.5835
C27 C 0.0778(8) 0.9419(7) 0.6275(5)
H20 H 0.0202 0.8890 0.5814
C28 C 0.3432(7) 1.2676(6) 0.6958(4)
C29 C 0.6513(7) 0.4349(7) 0.5614(4)
C30 C 0.7365(7) 0.3961(7) 0.5975(4)
C31 C 0.7315(8) 0.3789(8) 0.6720(5)
H21 H 0.6798 0.3953 0.7008
C32 C 0.8046(8) 0.3367(9) 0.7042(5)
H22 H 0.8008 0.3226 0.7541
C33 C 0.8829(7) 0.3160(7) 0.6605(4)
C34 C 0.8910(8) 0.3375(8) 0.5870(5)
H23 H 0.9451 0.3250 0.5587
C35 C 0.8167(9) 0.3783(8) 0.5562(5)
H24 H 0.8214 0.3939 0.5068
C36 C 0.8660(7) 0.0945(7) 0.6707(4)
C37 C 0.8033(9) 0.0396(8) 0.7245(5)
H25 H 0.8142 0.0870 0.7751
C38 C 0.7246(9) -0.0852(7) 0.7035(5)
H26 H 0.6846 -0.1229 0.7406
C39 C 0.7046(7) -0.1547(7) 0.6277(4)
C40 C 0.7652(10) -0.0979(8) 0.5736(5)
H27 H 0.7508 -0.1446 0.5221
C41 C 0.8462(9) 0.0259(8) 0.5942(5)
H28 H 0.8874 0.0634 0.5574
C42 C 0.6150(7) -0.2904(7) 0.6039(4)
Yb1A Yb 0.53519(3) 0.52025(3) 1.122304(16)
Yb1_2 Yb -0.53519(3) 0.47975(3) 0.877696(16)
Yb1A_2 Yb -0.46481(3) 0.52025(3) 1.122304(16)
Yb1_3 Yb 0.46481(3) 1.47975(3) 0.877696(16)
Yb2_2 Yb 0.40797(3) 1.45901(3) 0.584694(16)
Yb2A Yb 0.59203(3) 0.54099(3) 0.415306(16)
Yb2_3 Yb 0.40797(3) -0.54099(3) 0.584694(16)
Yb2A_2 Yb 0.59203(3) -0.45901(3) 0.415306(16)
O2A O 0.6621(4) 0.5926(5) 0.9459(3)
O5_2 O 0.5186(5) 0.3355(5) 0.8967(3)
O6A O 0.4624(5) 0.6224(5) 0.9722(3)
O11_2 O 0.4077(5) 0.3450(4) 0.7595(3)
O12_2 O 0.3519(5) 0.2877(4) 0.6286(3)
O14A O 0.3435(5) 0.5526(5) 0.5085(3)
O17_2 O 0.5518(5) 0.6606(5) 0.6523(3)
O18_2 O 0.6014(5) 0.6462(5) 0.5356(3)
O18A O 0.3986(5) 0.3538(5) 0.4644(3)
O22 O 0.472(4) 1.015(4) 0.642(3)
O21? O 0.055(3) 0.538(3) 0.0255(19)
O23? O 0.402(5) 0.925(5) 0.580(3)
O24? O 0.471(4) 1.081(4) 0.579(3)
loop_
_geom_bond_atom_site_label_1
_geom_bond_atom_site_label_2
_geom_bond_site_symmetry_1
_geom_bond_site_symmetry_2
Yb1 O1 1_555 1_555
Yb2 O8 1_555 1_555
S1 O3 1_555 1_555
S2 O9 1_555 1_555
S3 O15 1_555 1_555
O1 C1 1_555 1_555
O2 C1 1_555 1_555
O4 S1 1_555 1_555
O5 C14 1_555 1_555
O6 C14 1_555 1_555
O7 Yb1 1_555 1_555
O8 C15 1_555 1_555
O10 S2 1_555 1_555
O11 C28 1_555 1_555
O12 C28 1_555 1_555
O13 Yb2 1_555 1_555
O14 C29 1_555 1_555
O16 S3 1_555 1_555
O17 C42 1_555 1_555
O18 C42 1_555 1_555
O19 Yb1 1_555 1_555
H1 O19 1_555 1_555
H2 O19 1_555 1_555
O20 Yb2 1_555 1_555
H3 O20 1_555 1_555
H4 O20 1_555 1_555
C1 C2 1_555 1_555
C2 C3 1_555 1_555
C3 H5 1_555 1_555
C4 C3 1_555 1_555
H6 C4 1_555 1_555
C5 S1 1_555 1_555
C6 C5 1_555 1_555
H7 C6 1_555 1_555
C7 C2 1_555 1_555
H8 C7 1_555 1_555
C8 S1 1_555 1_555
C9 C8 1_555 1_555
H9 C9 1_555 1_555
C10 C9 1_555 1_555
H10 C10 1_555 1_555
C11 C10 1_555 1_555
C12 C11 1_555 1_555
H11 C12 1_555 1_555
C13 C8 1_555 1_555
H12 C13 1_555 1_555
C14 C11 1_555 1_555
C15 O7 1_555 1_555
C16 C15 1_555 1_555
C17 C16 1_555 1_555
H13 C17 1_555 1_555
C18 C17 1_555 1_555
H14 C18 1_555 1_555
C19 S2 1_555 1_555
C20 C19 1_555 1_555
H15 C20 1_555 1_555
C21 C16 1_555 1_555
H16 C21 1_555 1_555
C22 S2 1_555 1_555
C23 C22 1_555 1_555
H17 C23 1_555 1_555
C24 C23 1_555 1_555
H18 C24 1_555 1_555
C25 C24 1_555 1_555
C26 C25 1_555 1_555
H19 C26 1_555 1_555
C27 C22 1_555 1_555
H20 C27 1_555 1_555
C28 C25 1_555 1_555
C29 O13 1_555 1_555
C30 C29 1_555 1_555
C31 C30 1_555 1_555
H21 C31 1_555 1_555
C32 C31 1_555 1_555
H22 C32 1_555 1_555
C33 S3 1_555 1_555
C34 C33 1_555 1_555
H23 C34 1_555 1_555
C35 C30 1_555 1_555
H24 C35 1_555 1_555
C36 S3 1_555 1_555
C37 C36 1_555 1_555
H25 C37 1_555 1_555
C38 C37 1_555 1_555
H26 C38 1_555 1_555
C39 C38 1_555 1_555
C40 C39 1_555 1_555
H27 C40 1_555 1_555
C41 C36 1_555 1_555
H28 C41 1_555 1_555
C42 C39 1_555 1_555
Yb1A O2 1_555 1_555
Yb1_2 O5 1_555 1_555
Yb1A_2 O6 1_555 1_555
Yb1_3 O11 1_555 1_555
Yb2_2 O12 1_555 1_555
Yb2A O14 1_555 1_555
Yb2_3 O17 1_555 1_555
Yb2A_2 O18 1_555 1_555
O2A Yb1 1_555 1_555
O5_2 Yb1 1_555 1_555
O6A Yb1 1_555 1_555
O11_2 Yb1 1_555 1_555
O12_2 Yb2 1_555 1_555
O14A Yb2 1_555 1_555
O17_2 Yb2 1_555 1_555
O18_2 Yb2 1_555 1_555
O18A Yb2 1_555 1_555
O18 Yb2_3 1_555 1_555
C4 C5 1_555 1_555
C6 C7 1_555 1_555
C12 C13 1_555 1_555
C18 C19 1_555 1_555
C20 C21 1_555 1_555
C26 C27 1_555 1_555
C32 C33 1_555 1_555
C34 C35 1_555 1_555
C40 C41 1_555 1_555
Yb2A O18_2 1_555 1_555
Yb2A O18A 1_555 1_555

#END
