
#######################################################################
#
#                 Cambridge Crystallographic Data Centre
#                                CCDC 
#
#######################################################################
#
# If this CIF has been generated from an entry in the Cambridge 
# Structural Database, then it will include bibliographic, chemical, 
# crystal, experimental, refinement or atomic coordinate data resulting 
# from the CCDC's data processing and validation procedures.
#
#######################################################################

data_VODQEL
_symmetry_cell_setting           monoclinic
_symmetry_space_group_name_H-M   'P 21/c'
_symmetry_Int_Tables_number      14
_space_group_name_Hall           '-P 2ybc'
loop_
_symmetry_equiv_pos_site_id
_symmetry_equiv_pos_as_xyz
1 x,y,z
2 -x,1/2+y,1/2-z
3 -x,-y,-z
4 x,1/2-y,1/2+z
_cell_length_a                   9.0414(18)
_cell_length_b                   13.447(3)
_cell_length_c                   14.361(3)
_cell_angle_alpha                90
_cell_angle_beta                 106.33(3)
_cell_angle_gamma                90
_cell_volume                     1675.57
loop_
_atom_site_label
_atom_site_type_symbol
_atom_site_fract_x
_atom_site_fract_y
_atom_site_fract_z
O1 O 0.1086(5) -0.4638(3) 0.1458(3)
C1 C 0.1809(6) -0.5203(4) 0.2126(4)
O2 O 0.1995(6) -0.6113(3) 0.2060(3)
O3 O -0.0990(4) -0.1440(3) 0.4847(3)
H1 H -0.0522 -0.1921 0.4670
H2 H -0.1852 -0.1538 0.4960
Co1 Co 0.0000 0.0000 0.5000
O4 O 0.1856(5) -0.0570(3) 0.4589(3)
N1 N 0.2763(5) -0.3676(3) 0.3224(3)
N2 N 0.3241(5) -0.1800(3) 0.3493(3)
O5 O 0.3193(5) 0.0763(3) 0.4368(4)
C2 C 0.1572(6) -0.2007(4) 0.2996(4)
H3 H 0.1325 -0.1801 0.2322
H4 H 0.0925 -0.1635 0.3308
C3 C 0.4166(7) -0.2217(4) 0.2844(5)
H5 H 0.5254 -0.2222 0.3192
H6 H 0.4024 -0.1803 0.2273
C4 C 0.3617(6) -0.3279(4) 0.2541(4)
H7 H 0.2943 -0.3278 0.1883
H8 H 0.4495 -0.3700 0.2561
C5 C 0.1267(6) -0.3120(4) 0.3053(4)
H9 H 0.0815 -0.3250 0.3578
H10 H 0.0548 -0.3343 0.2452
C6 C 0.2527(7) -0.4793(4) 0.3139(4)
H11 H 0.1878 -0.4986 0.3543
H12 H 0.3519 -0.5111 0.3400
C7 C 0.2806(6) -0.0123(4) 0.4255(4)
C8 C 0.3609(7) -0.0707(4) 0.3627(5)
H13 H 0.3353 -0.0400 0.2991
H14 H 0.4713 -0.0637 0.3909
C9 C 0.3722(7) -0.2344(4) 0.4439(4)
H15 H 0.3020 -0.2187 0.4819
H16 H 0.4748 -0.2133 0.4802
C10 C 0.3715(7) -0.3458(4) 0.4263(4)
H17 H 0.3274 -0.3801 0.4716
H18 H 0.4762 -0.3694 0.4362
O1A O -0.1086(5) 0.0362(3) 0.3542(3)
C1A C -0.1809(6) -0.0203(4) 0.2874(4)
O2A O -0.1995(6) -0.1113(3) 0.2940(3)
O4A O -0.1856(5) 0.4430(3) 0.0411(3)
N1A N -0.2763(5) 0.1324(3) 0.1776(3)
N2A N -0.3241(5) 0.3200(3) 0.1507(3)
O5A O -0.3193(5) 0.5763(3) 0.0632(4)
C2A C -0.1572(6) 0.2993(4) 0.2004(4)
H3A H -0.1325 0.3199 0.2678
H4A H -0.0925 0.3365 0.1692
C3A C -0.4166(7) 0.2783(4) 0.2156(5)
H5A H -0.5254 0.2778 0.1808
H6A H -0.4024 0.3197 0.2727
C4A C -0.3617(6) 0.1721(4) 0.2459(4)
H7A H -0.2943 0.1722 0.3117
H8A H -0.4495 0.1300 0.2439
C5A C -0.1267(6) 0.1880(4) 0.1947(4)
H9A H -0.0815 0.1750 0.1422
H10A H -0.0548 0.1657 0.2548
C6A C -0.2527(7) 0.0207(4) 0.1861(4)
H11A H -0.1878 0.0014 0.1457
H12A H -0.3519 -0.0111 0.1600
C7A C -0.2806(6) 0.4877(4) 0.0745(4)
C8A C -0.3609(7) 0.4293(4) 0.1373(5)
H13A H -0.3353 0.4600 0.2009
H14A H -0.4713 0.4363 0.1091
C9A C -0.3722(7) 0.2656(4) 0.0561(4)
H15A H -0.3020 0.2813 0.0181
H16A H -0.4748 0.2867 0.0198
C10A C -0.3715(7) 0.1542(4) 0.0737(4)
H17A H -0.3274 0.1199 0.0284
H18A H -0.4762 0.1306 0.0638
O3B O 0.0990(4) 0.1440(3) 0.5153(3)
H1B H 0.0522 0.1921 0.5330
H2B H 0.1852 0.1538 0.5040
Co1A Co 0.0000 -0.5000 0.0000
O1C O 0.1086(5) -0.0362(3) 0.6458(3)
O4B O -0.1856(5) 0.0570(3) 0.5411(3)
Co1A_2 Co 0.0000 0.5000 0.0000
O1_2 O 0.1086(5) 0.5362(3) 0.1458(3)
O1B O -0.1086(5) 0.4638(3) -0.1458(3)
O3A O 0.0990(4) 0.3560(3) 0.0153(3)
O3C O -0.0990(4) 0.6440(3) -0.0153(3)
O4C O 0.1856(5) 0.5570(3) -0.0411(3)
H1A H 0.0522 0.3079 0.0330
H2A H 0.1852 0.3462 0.0040
H1C H -0.0522 0.6921 -0.0330
H2C H -0.1852 0.6538 -0.0040
Cl1 Cl 0.77466(16) 0.56010(11) 0.38897(12)
O6 O 0.6351(5) 0.5039(4) 0.3598(4)
O7 O 0.8844(6) 0.5173(5) 0.3461(5)
O8 O 0.7470(7) 0.6593(4) 0.3593(7)
O9 O 0.8331(8) 0.5535(7) 0.4903(5)
O10 O 0.1113(5) 0.6993(4) 0.5570(4)
O11 O 0.3845(6) 0.2654(4) 0.3568(5)
Co2? Co 0.0000 0.5000 0.0000
O12? O 0.1088(5) 0.5364(3) 0.1461(3)
O13? O 0.1994(6) 0.3879(3) 0.2058(3)
C11? C 0.1807(6) 0.4801(4) 0.2119(4)
Cl2? Cl 0.22505(16) 0.06007(12) 0.11078(12)
O14? O 0.1158(6) 0.0172(5) 0.1541(5)
O15? O 0.1642(8) 0.0516(7) 0.0095(5)
O16? O 0.2528(7) 0.1586(4) 0.1417(7)
O17? O 0.3647(6) 0.0031(4) 0.1398(4)
N3? N -0.3254(5) 0.3201(3) 0.1509(3)
O18? O -0.1857(4) 0.4432(3) 0.0409(3)
O19? O -0.3193(5) 0.5765(3) 0.0628(3)
N4? N -0.2761(5) 0.1328(3) 0.1776(3)
C12? C -0.3732(6) 0.2657(4) 0.0558(4)
H19? H -0.3037 0.2820 0.0175
H20? H -0.4764 0.2857 0.0196
C13? C -0.3617(6) 0.1728(4) 0.2458(4)
H21? H -0.2944 0.1734 0.3117
H22? H -0.4494 0.1305 0.2441
C14? C -0.2796(6) 0.4867(4) 0.0746(4)
C15? C -0.3696(6) 0.1542(4) 0.0747(4)
H23? H -0.4738 0.1296 0.0644
H24? H -0.3243 0.1202 0.0297
C16? C -0.4168(6) 0.2783(4) 0.2152(5)
H25? H -0.5256 0.2774 0.1803
H26? H -0.4030 0.3200 0.2722
C17? C -0.3618(6) 0.4295(4) 0.1371(4)
H27? H -0.3368 0.4607 0.2006
H28? H -0.4720 0.4365 0.1083
O20? O 0.0989(4) 0.3564(3) 0.0156(3)
H29? H 0.1580 0.3382 0.0701
H30? H 0.0791 0.3168 -0.0325
C18? C -0.1261(6) 0.1886(4) 0.1946(4)
H31? H -0.0814 0.1762 0.1417
H32? H -0.0537 0.1663 0.2545
C19? C -0.1582(6) 0.2999(4) 0.2010(4)
H33? H -0.1342 0.3201 0.2685
H34? H -0.0936 0.3379 0.1703
O21? O 0.8889(5) 0.1997(4) 0.9419(4)
O22? O 0.6143(6) 0.7651(4) 0.1427(4)
C20? C -0.2519(6) 0.0215(4) 0.1871(4)
H35? H -0.1872 0.0022 0.1466
H36? H -0.3511 -0.0104 0.1607
loop_
_geom_bond_atom_site_label_1
_geom_bond_atom_site_label_2
_geom_bond_site_symmetry_1
_geom_bond_site_symmetry_2
O1 C1 1_555 1_555
C1 O2 1_555 1_555
O3 H1 1_555 1_555
H2 O3 1_555 1_555
Co1 O3 1_555 1_555
O4 Co1 1_555 1_555
N1 C4 1_555 1_555
N2 C2 1_555 1_555
O5 C7 1_555 1_555
C2 H3 1_555 1_555
H4 C2 1_555 1_555
C3 N2 1_555 1_555
H5 C3 1_555 1_555
H6 C3 1_555 1_555
C4 C3 1_555 1_555
H7 C4 1_555 1_555
H8 C4 1_555 1_555
C5 N1 1_555 1_555
H9 C5 1_555 1_555
H10 C5 1_555 1_555
C6 C1 1_555 1_555
H11 C6 1_555 1_555
H12 C6 1_555 1_555
C7 O4 1_555 1_555
C8 N2 1_555 1_555
H13 C8 1_555 1_555
H14 C8 1_555 1_555
C9 N2 1_555 1_555
H15 C9 1_555 1_555
H16 C9 1_555 1_555
C10 N1 1_555 1_555
H17 C10 1_555 1_555
H18 C10 1_555 1_555
Cl1 O6 1_555 1_555
O7 Cl1 1_555 1_555
O8 Cl1 1_555 1_555
O9 Cl1 1_555 1_555
O1A Co1 1_555 1_555
C1A O1A 1_555 1_555
O2A C1A 1_555 1_555
O4A C7A 1_555 1_555
N1A C4A 1_555 1_555
N2A C2A 1_555 1_555
O5A C7A 1_555 1_555
C2A H3A 1_555 1_555
H4A C2A 1_555 1_555
C3A N2A 1_555 1_555
H5A C3A 1_555 1_555
H6A C3A 1_555 1_555
C4A C3A 1_555 1_555
H7A C4A 1_555 1_555
H8A C4A 1_555 1_555
C5A N1A 1_555 1_555
H9A C5A 1_555 1_555
H10A C5A 1_555 1_555
C6A C1A 1_555 1_555
H11A C6A 1_555 1_555
H12A C6A 1_555 1_555
C7A C8A 1_555 1_555
C8A N2A 1_555 1_555
H13A C8A 1_555 1_555
H14A C8A 1_555 1_555
C9A N2A 1_555 1_555
H15A C9A 1_555 1_555
H16A C9A 1_555 1_555
C10A N1A 1_555 1_555
H17A C10A 1_555 1_555
H18A C10A 1_555 1_555
O3B Co1 1_555 1_555
H1B O3B 1_555 1_555
H2B O3B 1_555 1_555
Co1A O1 1_555 1_555
O1C Co1 1_555 1_555
O4B Co1 1_555 1_555
Co1A_2 O4A 1_555 1_555
O1_2 Co1A_2 1_555 1_555
O1B Co1A_2 1_555 1_555
O3A Co1A_2 1_555 1_555
O3C Co1A_2 1_555 1_555
O4C Co1A_2 1_555 1_555
H1A O3A 1_555 1_555
H2A O3A 1_555 1_555
H1C O3C 1_555 1_555
H2C O3C 1_555 1_555
N1 C6 1_555 1_555
C2 C5 1_555 1_555
C7 C8 1_555 1_555
C9 C10 1_555 1_555
N1A C6A 1_555 1_555
C2A C5A 1_555 1_555
C9A C10A 1_555 1_555

#END
