
#######################################################################
#
#                 Cambridge Crystallographic Data Centre
#                                CCDC 
#
#######################################################################
#
# If this CIF has been generated from an entry in the Cambridge 
# Structural Database, then it will include bibliographic, chemical, 
# crystal, experimental, refinement or atomic coordinate data resulting 
# from the CCDC's data processing and validation procedures.
#
#######################################################################

data_VODREM
_symmetry_cell_setting           monoclinic
_symmetry_space_group_name_H-M   'P 21/c'
_symmetry_Int_Tables_number      14
_space_group_name_Hall           '-P 2ybc'
loop_
_symmetry_equiv_pos_site_id
_symmetry_equiv_pos_as_xyz
1 x,y,z
2 -x,1/2+y,1/2-z
3 -x,-y,-z
4 x,1/2-y,1/2+z
_cell_length_a                   9.999(2)
_cell_length_b                   24.334(5)
_cell_length_c                   20.087(4)
_cell_angle_alpha                90
_cell_angle_beta                 102.259(4)
_cell_angle_gamma                90
_cell_volume                     4776.04
loop_
_atom_site_label
_atom_site_type_symbol
_atom_site_fract_x
_atom_site_fract_y
_atom_site_fract_z
N1 N 0.2186(6) -0.0543(2) 0.6255(3)
N2 N -0.0532(5) -0.07455(18) 0.6090(3)
C1 C -0.0126(6) -0.0237(2) 0.5956(3)
C40 C 0.3497(8) -0.0436(3) 0.6345(4)
H23 H 0.4113 -0.0720 0.6488
C41 C 0.4028(9) 0.0086(4) 0.6236(4)
H24 H 0.4965 0.0145 0.6297
C42 C 0.3125(10) 0.0492(3) 0.6041(4)
H25 H 0.3448 0.0842 0.5975
C43 C 0.1735(9) 0.0408(3) 0.5936(3)
C44 C 0.1293(7) -0.0131(2) 0.6052(3)
C45 C 0.0722(10) 0.0821(3) 0.5726(4)
H26 H 0.0999 0.1175 0.5644
C46 C -0.0593(10) 0.0715(3) 0.5644(4)
H27 H -0.1215 0.1000 0.5520
C47 C -0.1095(7) 0.0186(2) 0.5738(3)
C48 C -0.2469(7) 0.0056(3) 0.5646(3)
H28 H -0.3127 0.0326 0.5504
C49 C -0.2856(7) -0.0455(3) 0.5758(3)
H29 H -0.3777 -0.0550 0.5679
C50 C -0.1860(7) -0.0835(3) 0.5994(3)
H30 H -0.2141 -0.1184 0.6094
C2 C -0.1912(5) 0.77687(17) 0.5358(2)
C3 C -0.1362(5) 0.77120(17) 0.4758(2)
C4 C -0.2280(5) 0.78123(18) 0.4138(2)
H1 H -0.1968 0.7767 0.3737
C5 C -0.3609(5) 0.79728(17) 0.4090(2)
H2 H -0.4174 0.8038 0.3666
C6 C -0.4111(4) 0.80382(17) 0.4689(2)
C7 C -0.3252(5) 0.79385(17) 0.5304(2)
H3 H -0.3580 0.7987 0.5700
C8 C -0.1094(5) 0.76739(17) 0.6048(2)
C9 C 0.4535(5) 0.79644(17) 0.7570(2)
C10 C 0.3957(5) 0.80202(18) 0.8159(2)
C11 C 0.4813(5) 0.82506(19) 0.8739(3)
H4 H 0.4456 0.8298 0.9127
C12 C 0.6127(5) 0.84079(18) 0.8768(3)
H5 H 0.6654 0.8548 0.9170
C13 C 0.6681(5) 0.83574(17) 0.8188(3)
C14 C 0.5874(5) 0.81476(17) 0.7601(2)
H6 H 0.6232 0.8127 0.7211
C15 C 0.3805(5) 0.77157(17) 0.6923(2)
C16 C -0.2553(5) 0.6869(2) 0.7287(3)
H7 H -0.2811 0.7237 0.7258
C17 C -0.3556(6) 0.6476(2) 0.7285(3)
H8 H -0.4459 0.6578 0.7267
C18 C -0.3195(6) 0.5940(2) 0.7309(3)
H9 H -0.3857 0.5670 0.7300
C19 C -0.1852(5) 0.5790(2) 0.7347(3)
C20 C -0.0889(5) 0.62117(19) 0.7362(2)
C21 C -0.1420(6) 0.5235(2) 0.7374(3)
H10 H -0.2063 0.4957 0.7355
C22 C -0.0116(7) 0.5107(2) 0.7426(3)
H11 H 0.0134 0.4739 0.7432
C23 C 0.0915(6) 0.5518(2) 0.7472(3)
C24 C 0.0518(5) 0.60721(19) 0.7428(2)
C25 C 0.2307(6) 0.5399(2) 0.7552(3)
H12 H 0.2603 0.5036 0.7574
C26 C 0.3222(6) 0.5813(2) 0.7598(3)
H13 H 0.4154 0.5740 0.7668
C27 C 0.2736(5) 0.6355(2) 0.7538(3)
H14 H 0.3372 0.6637 0.7565
C28 C -0.0049(5) 0.6175(2) 0.5679(3)
H15 H -0.0689 0.6457 0.5635
C29 C -0.0509(6) 0.5640(2) 0.5718(3)
H16 H -0.1430 0.5569 0.5701
C30 C 0.0407(6) 0.5223(2) 0.5782(3)
H17 H 0.0120 0.4862 0.5813
C31 C 0.1775(5) 0.53364(19) 0.5801(3)
C32 C 0.2157(5) 0.58882(18) 0.5750(2)
C33 C 0.2785(6) 0.4913(2) 0.5861(3)
H18 H 0.2543 0.4551 0.5922
C34 C 0.4071(6) 0.5034(2) 0.5831(3)
H19 H 0.4714 0.4753 0.5867
C35 C 0.4479(5) 0.5588(2) 0.5743(3)
C36 C 0.3534(5) 0.60189(19) 0.5731(2)
C37 C 0.5771(5) 0.5730(2) 0.5657(3)
H20 H 0.6415 0.5457 0.5646
C38 C 0.6111(5) 0.6261(2) 0.5589(3)
H21 H 0.6978 0.6355 0.5528
C39 C 0.5133(5) 0.6662(2) 0.5614(3)
H22 H 0.5377 0.7028 0.5579
La1 La 0.20054(3) 0.736874(11) 0.555382(14)
La2 La 0.06570(3) 0.756190(11) 0.746079(14)
N3 N -0.1246(4) 0.67478(15) 0.7328(2)
N4 N 0.1440(4) 0.64887(15) 0.7446(2)
N5 N 0.1241(4) 0.63091(15) 0.5701(2)
N6 N 0.3884(4) 0.65518(15) 0.5683(2)
O1 O -0.1511(3) 0.78285(13) 0.65583(16)
O2 O 0.0063(3) 0.74177(12) 0.61360(15)
O3 O -0.0093(3) 0.75848(12) 0.47691(16)
O4 O -0.6518(3) 0.77598(12) 0.48429(16)
O5 O -0.5752(3) 0.86762(13) 0.51645(19)
O6 O -0.6382(3) 0.84175(14) 0.39745(18)
O7 O 0.4341(3) 0.76890(13) 0.64179(16)
O8 O 0.2605(3) 0.75095(12) 0.68762(15)
O9 O 0.2708(3) 0.78733(13) 0.81822(15)
O10 O 0.8966(3) 0.87285(14) 0.89060(19)
O11 O 0.8388(4) 0.89506(13) 0.7697(2)
O12 O 0.9098(3) 0.80396(12) 0.80728(16)
O13 O 0.1918(4) 0.83983(13) 0.56743(19)
H31 H 0.1499 0.8473 0.5990
H32 H 0.2675 0.8570 0.5744
O14 O 0.1753(3) 0.67781(12) 0.43996(16)
H33 H 0.0958 0.6826 0.4154
H34 H 0.2350 0.6884 0.4183
O15 O 0.0887(4) 0.85796(13) 0.7164(2)
H35 H 0.0680 0.8762 0.7489
H36 H 0.0343 0.8682 0.6801
O16 O 0.0842(3) 0.70783(12) 0.86119(15)
H37 H 0.1574 0.7179 0.8882
H38 H 0.0157 0.7167 0.8778
S1 S -0.58022(12) 0.82500(5) 0.46578(7)
S2 S 0.83959(13) 0.85435(5) 0.82191(7)
La1_2 La -0.79946(3) 0.736874(11) 0.555382(14)
La2_2 La 1.06570(3) 0.756190(11) 0.746079(14)
O4_2 O 0.3482(3) 0.77598(12) 0.48429(16)
O12_2 O -0.0902(3) 0.80396(12) 0.80728(16)
O17 O 0.2470(6) 0.9391(2) 0.9044(3)
H39 H 0.2274 0.9066 0.9145
H40 H 0.2240 0.9436 0.8615
O18 O 0.347(2) 0.9233(7) 0.7844(10)
H41 H 0.4046 0.9483 0.7816
H42 H 0.3853 0.8920 0.7858
loop_
_geom_bond_atom_site_label_1
_geom_bond_atom_site_label_2
_geom_bond_site_symmetry_1
_geom_bond_site_symmetry_2
N1 C40 1_555 1_555
N2 C1 1_555 1_555
C1 C44 1_555 1_555
C2 C3 1_555 1_555
C3 C4 1_555 1_555
C4 H1 1_555 1_555
C5 C4 1_555 1_555
H2 C5 1_555 1_555
C6 C5 1_555 1_555
C7 C2 1_555 1_555
H3 C7 1_555 1_555
C8 C2 1_555 1_555
C9 C10 1_555 1_555
C10 C11 1_555 1_555
C11 H4 1_555 1_555
C12 C11 1_555 1_555
H5 C12 1_555 1_555
C13 C12 1_555 1_555
C14 C9 1_555 1_555
H6 C14 1_555 1_555
C15 C9 1_555 1_555
C16 H7 1_555 1_555
C17 C16 1_555 1_555
H8 C17 1_555 1_555
C18 C17 1_555 1_555
H9 C18 1_555 1_555
C19 C18 1_555 1_555
C20 C19 1_555 1_555
C21 C19 1_555 1_555
H10 C21 1_555 1_555
C22 C21 1_555 1_555
H11 C22 1_555 1_555
C23 C22 1_555 1_555
C24 C20 1_555 1_555
C25 C23 1_555 1_555
H12 C25 1_555 1_555
C26 C25 1_555 1_555
H13 C26 1_555 1_555
C27 C26 1_555 1_555
H14 C27 1_555 1_555
C28 H15 1_555 1_555
C29 C28 1_555 1_555
H16 C29 1_555 1_555
C30 C29 1_555 1_555
H17 C30 1_555 1_555
C31 C30 1_555 1_555
C32 C31 1_555 1_555
C33 C31 1_555 1_555
H18 C33 1_555 1_555
C34 C33 1_555 1_555
H19 C34 1_555 1_555
C35 C34 1_555 1_555
C36 C32 1_555 1_555
C37 C35 1_555 1_555
H20 C37 1_555 1_555
C38 C37 1_555 1_555
H21 C38 1_555 1_555
C39 C38 1_555 1_555
H22 C39 1_555 1_555
C40 H23 1_555 1_555
C41 C40 1_555 1_555
H24 C41 1_555 1_555
C42 C41 1_555 1_555
H25 C42 1_555 1_555
C43 C42 1_555 1_555
C44 N1 1_555 1_555
C45 C43 1_555 1_555
H26 C45 1_555 1_555
C46 C45 1_555 1_555
H27 C46 1_555 1_555
C47 C1 1_555 1_555
C48 C47 1_555 1_555
H28 C48 1_555 1_555
C49 C48 1_555 1_555
H29 C49 1_555 1_555
C50 N2 1_555 1_555
H30 C50 1_555 1_555
La1 N5 1_555 1_555
La2 N3 1_555 1_555
N3 C16 1_555 1_555
N4 C24 1_555 1_555
N5 C28 1_555 1_555
N6 C36 1_555 1_555
O1 C8 1_555 1_555
O2 C8 1_555 1_555
O3 C3 1_555 1_555
O4 S1 1_555 1_555
O5 S1 1_555 1_555
O6 S1 1_555 1_555
O7 C15 1_555 1_555
O8 C15 1_555 1_555
O9 C10 1_555 1_555
O10 S2 1_555 1_555
O11 S2 1_555 1_555
O12 S2 1_555 1_555
O13 La1 1_555 1_555
H31 O13 1_555 1_555
H32 O13 1_555 1_555
O14 La1 1_555 1_555
H33 O14 1_555 1_555
H34 O14 1_555 1_555
O15 La2 1_555 1_555
H35 O15 1_555 1_555
H36 O15 1_555 1_555
O16 La2 1_555 1_555
H37 O16 1_555 1_555
H38 O16 1_555 1_555
O17 H39 1_555 1_555
H40 O17 1_555 1_555
S1 C6 1_555 1_555
S2 C13 1_555 1_555
O18 H41 1_555 1_555
H42 O18 1_555 1_555
La1_2 O4 1_555 1_555
La2_2 O12 1_555 1_555
O4_2 La1 1_555 1_555
O12_2 La2 1_555 1_555
C6 C7 1_555 1_555
C13 C14 1_555 1_555
C20 N3 1_555 1_555
C23 C24 1_555 1_555
C27 N4 1_555 1_555
C32 N5 1_555 1_555
C35 C36 1_555 1_555
C39 N6 1_555 1_555
C43 C44 1_555 1_555
C46 C47 1_555 1_555
C49 C50 1_555 1_555
La1 N6 1_555 1_555
La1 O2 1_555 1_555
La1 O3 1_555 1_555
La1 O7 1_555 1_555
La1 O8 1_555 1_555
La2 N4 1_555 1_555
La2 O1 1_555 1_555
La2 O2 1_555 1_555
La2 O8 1_555 1_555
La2 O9 1_555 1_555

#END
