
#######################################################################
#
#                 Cambridge Crystallographic Data Centre
#                                CCDC 
#
#######################################################################
#
# If this CIF has been generated from an entry in the Cambridge 
# Structural Database, then it will include bibliographic, chemical, 
# crystal, experimental, refinement or atomic coordinate data resulting 
# from the CCDC's data processing and validation procedures.
#
#######################################################################

data_VODSIQ
_symmetry_cell_setting           orthorhombic
_symmetry_space_group_name_H-M   'F d 2 d'
_symmetry_Int_Tables_number      43
_space_group_name_Hall           'F -2d -2d'
loop_
_symmetry_equiv_pos_site_id
_symmetry_equiv_pos_as_xyz
1 x,y,z
2 -x,y,-z
3 1/4-x,1/4+y,1/4+z
4 1/4+x,1/4+y,1/4-z
5 x,1/2+y,1/2+z
6 -x,1/2+y,1/2-z
7 1/4-x,3/4+y,3/4+z
8 1/4+x,3/4+y,3/4-z
9 1/2+x,y,1/2+z
10 1/2-x,y,1/2-z
11 3/4-x,1/4+y,3/4+z
12 3/4+x,1/4+y,3/4-z
13 1/2+x,1/2+y,z
14 1/2-x,1/2+y,-z
15 3/4-x,3/4+y,1/4+z
16 3/4+x,3/4+y,1/4-z
_cell_length_a                   8.7967(3)
_cell_length_b                   16.1057(6)
_cell_length_c                   17.1877(7)
_cell_angle_alpha                90
_cell_angle_beta                 90
_cell_angle_gamma                90
_cell_volume                     2435.1
loop_
_atom_site_label
_atom_site_type_symbol
_atom_site_fract_x
_atom_site_fract_y
_atom_site_fract_z
K1 K 0.0000 0.3977(2) 1.5000
Bi1 Bi -0.5000 0.40793(5) 1.5000
O1 O -0.2733(5) 0.4580(4) 1.5681(4)
O2 O -0.5568(6) 0.5179(3) 1.5885(3)
O3 O -0.1880(5) 0.5384(3) 1.6646(3)
O4 O -0.4714(5) 0.6013(4) 1.6823(4)
C1 C -0.4513(8) 0.5484(5) 1.6313(4)
C2 C -0.2897(9) 0.5120(6) 1.6193(5)
O5 O 0.0000 0.2261(4) 1.5000
H1 H 0.071(7) 0.201(5) 1.501(4)
O6 O 0.1070(5) 0.5291(3) 1.5948(3)
H2 H 0.076(8) 0.557(5) 1.625(4)
H3 H 0.187(5) 0.540(5) 1.597(4)
H1A H -0.071(7) 0.201(5) 1.499(4)
O1A O 0.2733(5) 0.4580(4) 1.4319(4)
O2A O 0.5568(6) 0.5179(3) 1.4115(3)
O3A O 0.1880(5) 0.5384(3) 1.3354(3)
O4A O 0.4714(5) 0.6013(4) 1.3177(4)
C1A C 0.4513(8) 0.5484(5) 1.3687(4)
C2A C 0.2897(9) 0.5120(6) 1.3807(5)
O6A O -0.1070(5) 0.5291(3) 1.4052(3)
H2A H -0.076(8) 0.557(5) 1.375(4)
H3A H -0.187(5) 0.540(5) 1.403(4)
O4F O -0.2786(5) 0.3513(4) 1.4323(4)
O4O O 0.2786(5) 0.3513(4) 1.5677(4)
O1A_2 O -0.7267(5) 0.4580(4) 1.4319(4)
O2A_2 O -0.4432(6) 0.5179(3) 1.4115(3)
O3F O -0.5620(5) 0.2884(3) 1.4146(3)
O3O O -0.4380(5) 0.2884(3) 1.5854(3)
O4O_2 O -0.7214(5) 0.3513(4) 1.5677(4)
Bi1B Bi -0.2500 0.65793(5) 1.7500
K1B K -0.7500 0.6477(2) 1.7500
Bi1_2 Bi 0.5000 0.40793(5) 1.5000
Bi1J Bi 0.2500 0.65793(5) 1.2500
K1J K 0.7500 0.6477(2) 1.2500
O7 O -0.5407(6) 0.4045(4) 1.2555(3)
H4 H -0.573(10) 0.365(3) 1.241(4)
H5 H -0.579(9) 0.434(4) 1.230(4)
loop_
_geom_bond_atom_site_label_1
_geom_bond_atom_site_label_2
_geom_bond_site_symmetry_1
_geom_bond_site_symmetry_2
K1 O1 1_555 1_555
Bi1 O1 1_555 1_555
O1 C2 1_555 1_555
O2 Bi1 1_555 1_555
O3 C2 1_555 1_555
O4 C1 1_555 1_555
C1 O2 1_555 1_555
C2 C1 1_555 1_555
O5 K1 1_555 1_555
H1 O5 1_555 1_555
O6 K1 1_555 1_555
H2 O6 1_555 1_555
H3 O6 1_555 1_555
O7 H4 1_555 1_555
H5 O7 1_555 1_555
H1A O5 1_555 1_555
O1A K1 1_555 1_555
O2A C1A 1_555 1_555
O3A C2A 1_555 1_555
O4A C1A 1_555 1_555
C1A C2A 1_555 1_555
C2A O1A 1_555 1_555
O6A K1 1_555 1_555
H2A O6A 1_555 1_555
H3A O6A 1_555 1_555
O4F K1 1_555 1_555
O4O K1 1_555 1_555
O1A_2 Bi1 1_555 1_555
O2A_2 Bi1 1_555 1_555
O3F Bi1 1_555 1_555
O3O Bi1 1_555 1_555
O4O_2 Bi1 1_555 1_555
Bi1B O3 1_555 1_555
K1B O4 1_555 1_555
Bi1_2 O1A 1_555 1_555
Bi1J O3A 1_555 1_555
K1J O4A 1_555 1_555
Bi1 O4F 1_555 1_555
O4 Bi1B 1_555 1_555
O2A Bi1_2 1_555 1_555
O4A Bi1J 1_555 1_555
O4O Bi1_2 1_555 1_555

#END
