
#######################################################################
#
#                 Cambridge Crystallographic Data Centre
#                                CCDC 
#
#######################################################################
#
# If this CIF has been generated from an entry in the Cambridge 
# Structural Database, then it will include bibliographic, chemical, 
# crystal, experimental, refinement or atomic coordinate data resulting 
# from the CCDC's data processing and validation procedures.
#
#######################################################################

data_VOFCOI01
_symmetry_cell_setting           orthorhombic
_symmetry_space_group_name_H-M   'P 21 21 21'
_symmetry_Int_Tables_number      19
_space_group_name_Hall           'P 2ac 2ab'
loop_
_symmetry_equiv_pos_site_id
_symmetry_equiv_pos_as_xyz
1 x,y,z
2 1/2-x,-y,1/2+z
3 -x,1/2+y,1/2-z
4 1/2+x,1/2-y,-z
_cell_length_a                   11.2608(6)
_cell_length_b                   13.0527(5)
_cell_length_c                   14.6607(6)
_cell_angle_alpha                90
_cell_angle_beta                 90
_cell_angle_gamma                90
_cell_volume                     2154.89
loop_
_atom_site_label
_atom_site_type_symbol
_atom_site_fract_x
_atom_site_fract_y
_atom_site_fract_z
Sn1 Sn 0.83471(2) 0.02473(2) 0.786240(10)
O1 O 0.6931(2) 0.0605(2) 0.88050(10)
O2 O 0.7772(2) 0.2111(2) 0.9042(2)
O3 O 0.5145(2) 0.0133(2) 1.1832(2)
N1 N 0.4347(2) 0.1189(2) 1.0794(2)
N2 N 0.3713(3) 0.1241(3) 1.2266(2)
C1 C 0.7873(3) 0.1392(3) 0.6884(2)
C2 C 0.8612(3) 0.1734(3) 0.6199(2)
C3 C 0.8256(5) 0.2489(4) 0.5590(3)
C4 C 0.7146(5) 0.2901(4) 0.5655(3)
C5 C 0.6381(4) 0.2579(4) 0.6325(3)
C6 C 0.6742(4) 0.1830(3) 0.6934(2)
C7 C 0.9659(3) 0.0260(3) 0.8909(2)
C8 C 0.9413(3) -0.0186(3) 0.9748(2)
C9 C 1.0256(3) -0.0186(4) 1.0436(2)
C10 C 1.1341(3) 0.0263(4) 1.0308(2)
C11 C 1.1594(4) 0.0707(3) 0.9479(3)
C12 C 1.0772(3) 0.0703(3) 0.8793(2)
C13 C 0.7587(3) -0.1232(3) 0.7646(2)
C14 C 0.7995(4) -0.2081(3) 0.8092(3)
C15 C 0.7465(5) -0.3034(4) 0.7971(4)
C16 C 0.6528(5) -0.3131(4) 0.7384(4)
C17 C 0.6142(5) -0.2331(5) 0.6942(4)
C18 C 0.6655(4) -0.1361(4) 0.7058(3)
C19 C 0.7031(3) 0.1458(3) 0.9226(2)
C20 C 0.6163(3) 0.1648(3) 0.9995(2)
C21 C 0.5160(3) 0.0895(3) 1.0070(2)
C22 C 0.4450(3) 0.0845(3) 1.1644(2)
H1 H 0.3775 0.1602 1.0668
H2 H 0.3710 0.1004 1.2813
H3 H 0.3242 0.1732 1.2119
H4 H 0.9367 0.1452 0.6144
H5 H 0.8774 0.2714 0.5138
H6 H 0.6906 0.3402 0.5244
H7 H 0.5625 0.2861 0.6369
H8 H 0.6221 0.1614 0.7386
H9 H 0.8676 -0.0487 0.9849
H10 H 1.0082 -0.0494 1.0992
H11 H 1.1901 0.0268 1.0774
H12 H 1.2330 0.1012 0.9384
H13 H 1.0961 0.1004 0.8236
H14 H 0.8640 -0.2021 0.8484
H15 H 0.7746 -0.3601 0.8288
H16 H 0.6168 -0.3765 0.7301
H17 H 0.5509 -0.2406 0.6539
H18 H 0.6362 -0.0803 0.6734
H19 H 0.6599 0.1645 1.0566
H20 H 0.5829 0.2328 0.9919
H21 H 0.4734 0.0867 0.9495
H22 H 0.5476 0.0219 1.0195
O3A O 0.9855(2) -0.0133(2) 0.6832(2)
Sn1A Sn 0.66529(2) -0.02473(2) 1.286240(10)
loop_
_geom_bond_atom_site_label_1
_geom_bond_atom_site_label_2
_geom_bond_site_symmetry_1
_geom_bond_site_symmetry_2
Sn1 O1 1_555 1_555
O1 C19 1_555 1_555
O2 C19 1_555 1_555
O3 C22 1_555 1_555
N1 C21 1_555 1_555
N2 C22 1_555 1_555
C1 Sn1 1_555 1_555
C2 C1 1_555 1_555
C3 C2 1_555 1_555
C4 C3 1_555 1_555
C5 C4 1_555 1_555
C6 C1 1_555 1_555
C7 Sn1 1_555 1_555
C8 C7 1_555 1_555
C9 C8 1_555 1_555
C10 C9 1_555 1_555
C11 C10 1_555 1_555
C12 C7 1_555 1_555
C13 Sn1 1_555 1_555
C14 C13 1_555 1_555
C15 C14 1_555 1_555
C16 C15 1_555 1_555
C17 C16 1_555 1_555
C18 C13 1_555 1_555
C19 C20 1_555 1_555
C20 C21 1_555 1_555
C21 H21 1_555 1_555
C22 N1 1_555 1_555
H1 N1 1_555 1_555
H2 N2 1_555 1_555
H3 N2 1_555 1_555
H4 C2 1_555 1_555
H5 C3 1_555 1_555
H6 C4 1_555 1_555
H7 C5 1_555 1_555
H8 C6 1_555 1_555
H9 C8 1_555 1_555
H10 C9 1_555 1_555
H11 C10 1_555 1_555
H12 C11 1_555 1_555
H13 C12 1_555 1_555
H14 C14 1_555 1_555
H15 C15 1_555 1_555
H16 C16 1_555 1_555
H17 C17 1_555 1_555
H18 C18 1_555 1_555
H19 C20 1_555 1_555
H20 C20 1_555 1_555
H22 C21 1_555 1_555
O3A Sn1 1_555 1_555
Sn1A O3 1_555 1_555
C5 C6 1_555 1_555
C11 C12 1_555 1_555
C17 C18 1_555 1_555

#END
