
#######################################################################
#
#                 Cambridge Crystallographic Data Centre
#                                CCDC 
#
#######################################################################
#
# If this CIF has been generated from an entry in the Cambridge 
# Structural Database, then it will include bibliographic, chemical, 
# crystal, experimental, refinement or atomic coordinate data resulting 
# from the CCDC's data processing and validation procedures.
#
#######################################################################

data_VOFSOA
_symmetry_cell_setting           monoclinic
_symmetry_space_group_name_H-M   'P 21/c'
_symmetry_Int_Tables_number      14
_space_group_name_Hall           '-P 2ybc'
loop_
_symmetry_equiv_pos_site_id
_symmetry_equiv_pos_as_xyz
1 x,y,z
2 -x,1/2+y,1/2-z
3 -x,-y,-z
4 x,1/2-y,1/2+z
_cell_length_a                   13.475(5)
_cell_length_b                   12.797(5)
_cell_length_c                   17.276(6)
_cell_angle_alpha                90
_cell_angle_beta                 110.072(4)
_cell_angle_gamma                90
_cell_volume                     2798.12
loop_
_atom_site_label
_atom_site_type_symbol
_atom_site_fract_x
_atom_site_fract_y
_atom_site_fract_z
Zn1 Zn 0.15231(2) 0.35763(2) 0.184659(16)
Zn2 Zn 0.0000 0.5000 0.0000
N1 N 0.03531(16) 0.65852(16) 0.04904(13)
N2 N 0.11977(16) 1.19891(16) 0.15051(12)
O1 O -0.03319(19) 0.35501(19) 0.20893(14)
O2 O 0.02087(12) 0.43299(14) 0.11635(10)
O3 O 0.81486(18) -0.00362(18) 0.21868(12)
O4 O 0.76599(16) -0.16671(17) 0.19430(12)
O5 O 0.25794(13) 0.38479(14) 0.12982(10)
O6 O 0.16019(13) 0.47389(14) 0.01783(10)
O7 O 0.51269(14) 0.02019(14) -0.15777(10)
O8 O 0.54886(14) 0.34202(14) -0.08870(11)
C1 C 0.1118(2) 0.7138(2) 0.03498(17)
H1 H 0.1560 0.6792 0.0123
C2 C 0.1288(2) 0.8184(2) 0.05206(17)
H2 H 0.1825 0.8529 0.0400
C3 C 0.06585(18) 0.87296(19) 0.08747(14)
C4 C -0.0115(2) 0.8150(2) 0.10422(16)
H3 H -0.0549 0.8468 0.1291
C5 C -0.0241(2) 0.7105(2) 0.08403(16)
H4 H -0.0772 0.6740 0.0955
C6 C 0.1533(2) 1.0462(2) 0.08402(17)
H5 H 0.1899 1.0161 0.0527
C7 C 0.08317(19) 0.98597(19) 0.10816(14)
C8 C 0.0317(2) 1.0380(2) 0.15390(18)
H6 H -0.0168 1.0022 0.1714
C9 C 0.1692(2) 1.1496(2) 0.10596(17)
H7 H 0.2169 1.1874 0.0889
C10 C 0.0517(2) 1.1419(2) 0.17362(19)
H8 H 0.0160 1.1740 0.2046
C11 C 0.7655(2) -0.0729(3) 0.17033(16)
C12 C 0.70262(19) -0.0466(2) 0.08278(14)
C13 C 0.6858(2) 0.0569(2) 0.05745(15)
H9 H 0.7170 0.1096 0.0950
C14 C 0.62378(19) 0.0839(2) -0.02240(14)
H10 H 0.6135 0.1536 -0.0384
C15 C -0.0488(3) 0.4107(3) 0.1486(2)
H11 H -0.1160 0.4388 0.1244
C16 C 0.24156(18) 0.42542(18) 0.05916(14)
C17 C 0.32584(19) 0.41030(19) 0.02169(14)
C18 C 0.42611(19) 0.3730(2) 0.06614(15)
H12 H 0.4442 0.3607 0.1224
C19 C 0.4993(2) 0.3538(2) 0.02818(16)
H13 H 0.5665 0.3302 0.0592
C20 C 0.4732(2) 0.36959(19) -0.05593(16)
C21 C 0.3747(2) 0.4088(2) -0.10061(17)
H14 H 0.3569 0.4220 -0.1567
C22 C 0.3031(2) 0.4284(2) -0.06153(16)
H15 H 0.2370 0.4547 -0.0923
C23 C 0.5238(2) 0.3541(2) -0.17625(17)
H16 H 0.5341 0.4262 -0.1891
H17 H 0.4505 0.3357 -0.2050
C24 C 0.5949(2) 0.2839(2) -0.20335(15)
C25 C 0.6752(2) 0.3270(2) -0.22723(17)
H18 H 0.6850 0.3990 -0.2249
C26 C 0.7402(2) 0.2642(3) -0.25419(16)
H19 H 0.7930 0.2938 -0.2704
C27 C 0.7261(2) 0.1574(2) -0.25690(16)
H20 H 0.7696 0.1148 -0.2750
C28 C 0.6475(2) 0.1134(2) -0.23288(15)
H21 H 0.6392 0.0412 -0.2345
C29 C 0.58083(18) 0.1755(2) -0.20636(13)
C30 C 0.49077(19) 0.1260(2) -0.18576(15)
H22 H 0.4771 0.1670 -0.1433
H23 H 0.4275 0.1273 -0.2343
C31 C 0.57744(19) 0.0043(2) -0.07792(14)
C32 C 0.5944(2) -0.0996(2) -0.05369(16)
H24 H 0.5637 -0.1524 -0.0912
C33 C 0.6565(2) -0.1247(2) 0.02584(16)
H25 H 0.6676 -0.1944 0.0415
Zn1B Zn -0.15231(2) 0.64237(2) -0.184659(16)
N1B N -0.03531(16) 0.34148(16) -0.04904(13)
N2B N -0.11977(16) -0.19891(16) -0.15051(12)
O1B O 0.03319(19) 0.64499(19) -0.20893(14)
O2B O -0.02087(12) 0.56701(14) -0.11635(10)
O3B O -0.81486(18) 1.00362(18) -0.21868(12)
O4B O -0.76599(16) 1.16671(17) -0.19430(12)
O5B O -0.25794(13) 0.61521(14) -0.12982(10)
O6B O -0.16019(13) 0.52611(14) -0.01783(10)
O7B O -0.51269(14) 0.97981(14) 0.15777(10)
O8B O -0.54886(14) 0.65798(14) 0.08870(11)
C1B C -0.1118(2) 0.2862(2) -0.03498(17)
H1B H -0.1560 0.3208 -0.0123
C2B C -0.1288(2) 0.1816(2) -0.05206(17)
H2B H -0.1825 0.1471 -0.0400
C3B C -0.06585(18) 0.12704(19) -0.08747(14)
C4B C 0.0115(2) 0.1850(2) -0.10422(16)
H3B H 0.0549 0.1532 -0.1291
C5B C 0.0241(2) 0.2895(2) -0.08403(16)
H4B H 0.0772 0.3260 -0.0955
C6B C -0.1533(2) -0.0462(2) -0.08402(17)
H5B H -0.1899 -0.0161 -0.0527
C7B C -0.08317(19) 0.01403(19) -0.10816(14)
C8B C -0.0317(2) -0.0380(2) -0.15390(18)
H6B H 0.0168 -0.0022 -0.1714
C9B C -0.1692(2) -0.1496(2) -0.10596(17)
H7B H -0.2169 -0.1874 -0.0889
C10B C -0.0517(2) -0.1419(2) -0.17362(19)
H8B H -0.0160 -0.1740 -0.2046
C11B C -0.7655(2) 1.0729(3) -0.17033(16)
C12B C -0.70262(19) 1.0466(2) -0.08278(14)
C13B C -0.6858(2) 0.9431(2) -0.05745(15)
H9B H -0.7170 0.8904 -0.0950
C14B C -0.62378(19) 0.9161(2) 0.02240(14)
H10B H -0.6135 0.8464 0.0384
C15B C 0.0488(3) 0.5893(3) -0.1486(2)
H11B H 0.1160 0.5612 -0.1244
C16B C -0.24156(18) 0.57458(18) -0.05916(14)
C17B C -0.32584(19) 0.58970(19) -0.02169(14)
C18B C -0.42611(19) 0.6270(2) -0.06614(15)
H12B H -0.4442 0.6393 -0.1224
C19B C -0.4993(2) 0.6462(2) -0.02818(16)
H13B H -0.5665 0.6698 -0.0592
C20B C -0.4732(2) 0.63041(19) 0.05593(16)
C21B C -0.3747(2) 0.5912(2) 0.10061(17)
H14B H -0.3569 0.5780 0.1567
C22B C -0.3031(2) 0.5716(2) 0.06153(16)
H15B H -0.2370 0.5453 0.0923
C23B C -0.5238(2) 0.6459(2) 0.17625(17)
H16B H -0.5341 0.5738 0.1891
H17B H -0.4505 0.6643 0.2050
C24B C -0.5949(2) 0.7161(2) 0.20335(15)
C25B C -0.6752(2) 0.6730(2) 0.22723(17)
H18B H -0.6850 0.6010 0.2249
C26B C -0.7402(2) 0.7358(3) 0.25419(16)
H19B H -0.7930 0.7062 0.2704
C27B C -0.7261(2) 0.8426(2) 0.25690(16)
H20B H -0.7696 0.8852 0.2750
C28B C -0.6475(2) 0.8866(2) 0.23288(15)
H21B H -0.6392 0.9588 0.2345
C29B C -0.58083(18) 0.8245(2) 0.20636(13)
C30B C -0.49077(19) 0.8740(2) 0.18576(15)
H22B H -0.4771 0.8330 0.1433
H23B H -0.4275 0.8727 0.2343
C31B C -0.57744(19) 0.9957(2) 0.07792(14)
C32B C -0.5944(2) 1.0996(2) 0.05369(16)
H24B H -0.5637 1.1524 0.0912
C33B C -0.6565(2) 1.1247(2) -0.02584(16)
H25B H -0.6676 1.1944 -0.0415
Zn1_2 Zn 0.15231(2) 1.35763(2) 0.184659(16)
Zn1A Zn 0.84769(2) -0.14237(2) 0.315341(16)
Zn1B_2 Zn -0.15231(2) -0.35763(2) -0.184659(16)
Zn1C Zn -0.84769(2) 1.14237(2) -0.315341(16)
N2_2 N 0.11977(16) 0.19891(16) 0.15051(12)
N2B_2 N -0.11977(16) 0.80109(16) -0.15051(12)
O3A O 0.18514(18) 0.49638(18) 0.28132(12)
O3C O -0.18514(18) 0.50362(18) -0.28132(12)
O4A O 0.23401(16) 0.33329(17) 0.30570(12)
O4C O -0.23401(16) 0.66671(17) -0.30570(12)
loop_
_geom_bond_atom_site_label_1
_geom_bond_atom_site_label_2
_geom_bond_site_symmetry_1
_geom_bond_site_symmetry_2
Zn1 O2 1_555 1_555
Zn2 N1 1_555 1_555
N1 C1 1_555 1_555
N2 C9 1_555 1_555
O1 C15 1_555 1_555
O2 Zn2 1_555 1_555
O3 C11 1_555 1_555
O4 C11 1_555 1_555
O5 Zn1 1_555 1_555
O6 Zn2 1_555 1_555
O7 C30 1_555 1_555
O8 C20 1_555 1_555
C1 H1 1_555 1_555
C2 C1 1_555 1_555
H2 C2 1_555 1_555
C3 C2 1_555 1_555
C4 C3 1_555 1_555
H3 C4 1_555 1_555
C5 N1 1_555 1_555
H4 C5 1_555 1_555
C6 H5 1_555 1_555
C7 C3 1_555 1_555
C8 C7 1_555 1_555
H6 C8 1_555 1_555
C9 C6 1_555 1_555
H7 C9 1_555 1_555
C10 N2 1_555 1_555
H8 C10 1_555 1_555
C11 C12 1_555 1_555
C12 C13 1_555 1_555
C13 H9 1_555 1_555
C14 C13 1_555 1_555
H10 C14 1_555 1_555
C15 O2 1_555 1_555
H11 C15 1_555 1_555
C16 O5 1_555 1_555
C17 C16 1_555 1_555
C18 C17 1_555 1_555
H12 C18 1_555 1_555
C19 C18 1_555 1_555
H13 C19 1_555 1_555
C20 C19 1_555 1_555
C21 C20 1_555 1_555
H14 C21 1_555 1_555
C22 C17 1_555 1_555
H15 C22 1_555 1_555
C23 O8 1_555 1_555
H16 C23 1_555 1_555
H17 C23 1_555 1_555
C24 C23 1_555 1_555
C25 C24 1_555 1_555
H18 C25 1_555 1_555
C26 C25 1_555 1_555
H19 C26 1_555 1_555
C27 C26 1_555 1_555
H20 C27 1_555 1_555
C28 C27 1_555 1_555
H21 C28 1_555 1_555
C29 C24 1_555 1_555
C30 C29 1_555 1_555
H22 C30 1_555 1_555
H23 C30 1_555 1_555
C31 O7 1_555 1_555
C32 C31 1_555 1_555
H24 C32 1_555 1_555
C33 C12 1_555 1_555
H25 C33 1_555 1_555
Zn1B O2B 1_555 1_555
N1B Zn2 1_555 1_555
N2B C9B 1_555 1_555
O1B C15B 1_555 1_555
O2B Zn2 1_555 1_555
O3B C11B 1_555 1_555
O4B C11B 1_555 1_555
O5B Zn1B 1_555 1_555
O6B Zn2 1_555 1_555
O7B C30B 1_555 1_555
O8B C20B 1_555 1_555
C1B N1B 1_555 1_555
H1B C1B 1_555 1_555
C2B C1B 1_555 1_555
H2B C2B 1_555 1_555
C3B C2B 1_555 1_555
C4B C3B 1_555 1_555
H3B C4B 1_555 1_555
C5B N1B 1_555 1_555
H4B C5B 1_555 1_555
C6B H5B 1_555 1_555
C7B C3B 1_555 1_555
C8B C7B 1_555 1_555
H6B C8B 1_555 1_555
C9B C6B 1_555 1_555
H7B C9B 1_555 1_555
C10B N2B 1_555 1_555
H8B C10B 1_555 1_555
C11B C12B 1_555 1_555
C12B C13B 1_555 1_555
C13B H9B 1_555 1_555
C14B C13B 1_555 1_555
H10B C14B 1_555 1_555
C15B O2B 1_555 1_555
H11B C15B 1_555 1_555
C16B O5B 1_555 1_555
C17B C16B 1_555 1_555
C18B C17B 1_555 1_555
H12B C18B 1_555 1_555
C19B C18B 1_555 1_555
H13B C19B 1_555 1_555
C20B C19B 1_555 1_555
C21B C20B 1_555 1_555
H14B C21B 1_555 1_555
C22B C17B 1_555 1_555
H15B C22B 1_555 1_555
C23B O8B 1_555 1_555
H16B C23B 1_555 1_555
H17B C23B 1_555 1_555
C24B C23B 1_555 1_555
C25B C24B 1_555 1_555
H18B C25B 1_555 1_555
C26B C25B 1_555 1_555
H19B C26B 1_555 1_555
C27B C26B 1_555 1_555
H20B C27B 1_555 1_555
C28B C27B 1_555 1_555
H21B C28B 1_555 1_555
C29B C24B 1_555 1_555
C30B C29B 1_555 1_555
H22B C30B 1_555 1_555
H23B C30B 1_555 1_555
C31B O7B 1_555 1_555
C32B C31B 1_555 1_555
H24B C32B 1_555 1_555
C33B C12B 1_555 1_555
H25B C33B 1_555 1_555
Zn1_2 N2 1_555 1_555
Zn1A O3 1_555 1_555
Zn1B_2 N2B 1_555 1_555
Zn1C O3B 1_555 1_555
N2_2 Zn1 1_555 1_555
N2B_2 Zn1B 1_555 1_555
O3A Zn1 1_555 1_555
O3C Zn1B 1_555 1_555
O4A Zn1 1_555 1_555
O4C Zn1B 1_555 1_555
O4 Zn1A 1_555 1_555
O6 C16 1_555 1_555
C4 C5 1_555 1_555
C6 C7 1_555 1_555
C8 C10 1_555 1_555
C14 C31 1_555 1_555
C21 C22 1_555 1_555
C28 C29 1_555 1_555
C32 C33 1_555 1_555
O4B Zn1C 1_555 1_555
O6B C16B 1_555 1_555
C4B C5B 1_555 1_555
C6B C7B 1_555 1_555
C8B C10B 1_555 1_555
C14B C31B 1_555 1_555
C21B C22B 1_555 1_555
C28B C29B 1_555 1_555
C32B C33B 1_555 1_555

#END
