
#######################################################################
#
#                 Cambridge Crystallographic Data Centre
#                                CCDC 
#
#######################################################################
#
# If this CIF has been generated from an entry in the Cambridge 
# Structural Database, then it will include bibliographic, chemical, 
# crystal, experimental, refinement or atomic coordinate data resulting 
# from the CCDC's data processing and validation procedures.
#
#######################################################################

data_VOGDUS01
_symmetry_cell_setting           monoclinic
_symmetry_space_group_name_H-M   'P 21/n'
_symmetry_Int_Tables_number      14
_space_group_name_Hall           '-P 2yn'
loop_
_symmetry_equiv_pos_site_id
_symmetry_equiv_pos_as_xyz
1 x,y,z
2 1/2-x,1/2+y,1/2-z
3 -x,-y,-z
4 1/2+x,1/2-y,1/2+z
_cell_length_a                   17.8149(19)
_cell_length_b                   12.7204(14)
_cell_length_c                   20.372(2)
_cell_angle_alpha                90
_cell_angle_beta                 109.5990(10)
_cell_angle_gamma                90
_cell_volume                     4349.09
loop_
_atom_site_label
_atom_site_type_symbol
_atom_site_fract_x
_atom_site_fract_y
_atom_site_fract_z
Dy1 Dy 0.941058(15) 0.52061(2) 0.107554(14)
Dy2 Dy 0.791928(15) 0.48175(2) 0.226824(13)
O1 O 0.9111(2) 0.4095(3) 0.2355(2)
O2 O 1.0080(2) 0.3935(3) 0.1913(2)
C1 C 0.9723(4) 0.2405(5) 0.3273(3)
H1 H 0.9224 0.2665 0.3241
C2 C 1.0878(3) 0.2466(5) 0.2933(3)
H2 H 1.1161 0.2766 0.2671
C3 C 0.9753(3) 0.3693(4) 0.2354(3)
C4 C 1.1201(4) 0.1648(5) 0.3376(4)
H3 H 1.1704 0.1394 0.3414
C5 C 1.0129(3) 0.2848(4) 0.2876(3)
C6 C 1.0042(4) 0.1587(5) 0.3715(4)
H4 H 0.9761 0.1292 0.3980
O3 O 0.8211(2) 0.5951(3) 0.0988(2)
O4 O 0.7251(3) 0.6050(3) 0.1441(2)
C7 C 0.7581(3) 0.6328(4) 0.1010(3)
C8 C 0.6548(3) 1.0993(4) -0.0414(3)
C9 C 0.6452(3) 0.8817(4) -0.0364(3)
C10 C 0.6452(4) 0.7567(6) 0.0495(4)
H5 H 0.6197 0.7274 0.0781
C11 C 0.7161(4) 0.8423(6) -0.0386(5)
H6 H 0.7392 0.8696 -0.0696
C12 C 0.7181(3) 0.7178(4) 0.0515(3)
C13 C 0.7528(4) 0.7612(6) 0.0062(5)
H7 H 0.8015 0.7355 0.0058
C14 C 0.6253(4) 1.1524(5) 0.0033(4)
H8 H 0.5770 1.1328 0.0078
C15 C 0.7255(4) 1.1304(5) -0.0495(3)
H9 H 0.7441 1.0959 -0.0812
S1 S 0.60182(10) 0.99090(11) -0.08956(9)
O5 O 0.6178(4) 0.9837(3) -0.1534(3)
O6 O 0.5205(3) 0.9982(3) -0.0909(3)
C16 C 1.0782(3) 0.1202(4) 0.3764(3)
S2 S 1.11809(9) 0.01173(11) 0.43136(8)
O7 O 1.0950(3) 0.0197(3) 0.4916(2)
O8 O 1.2012(3) 0.0046(3) 0.4397(3)
C17 C 0.6680(4) 1.2351(5) 0.0414(4)
H10 H 0.6481 1.2714 0.0717
C18 C 0.7400(3) 1.2653(4) 0.0356(3)
C19 C 0.7866(3) 1.3522(4) 0.0814(3)
C20 C 1.0692(3) -0.0983(4) 0.3817(3)
O9 O 0.8512(2) 1.3787(3) 0.0739(2)
O10 O 0.7584(2) 1.3883(3) 0.1256(2)
O11 O 0.7212(3) 0.6026(3) 0.2914(3)
O12 O 0.6731(3) 0.4504(4) 0.2516(3)
C21 C 0.6705(4) 0.5302(5) 0.2856(3)
C22 C 0.6089(4) 0.5392(5) 0.3196(3)
C23 C 0.5939(3) 0.6343(5) 0.3457(3)
H11 H 0.6239 0.6930 0.3431
C24 C 0.5653(4) 0.4520(5) 0.3250(5)
H12 H 0.5748 0.3877 0.3075
C25 C 0.7684(4) 1.2128(5) -0.0106(3)
H13 H 0.8165 1.2329 -0.0154
C26 C 1.1025(4) -0.1469(5) 0.3377(4)
H14 H 1.1514 -0.1247 0.3357
C27 C 0.6094(4) 0.8383(5) 0.0058(4)
H15 H 0.5603 0.8636 0.0054
C28 C 0.4930(3) 0.5560(5) 0.3811(3)
C29 C 0.5065(4) 0.4596(5) 0.3566(4)
H16 H 0.4775 0.4008 0.3609
C30 C 0.5351(4) 0.6440(5) 0.3758(4)
H17 H 0.5244 0.7087 0.3920
S3 S 0.41338(9) 0.56826(15) 0.41389(8)
O13 O 0.4043(3) 0.4716(4) 0.4458(3)
O14 O 0.4231(3) 0.6647(4) 0.4525(2)
C31 C 0.3287(4) 0.5845(5) 0.3384(3)
C32 C 0.2886(4) 0.4978(5) 0.3019(4)
H18 H 0.3064 0.4304 0.3170
C33 C 0.3030(4) 0.6845(5) 0.3155(4)
H19 H 0.3294 0.7429 0.3399
C34 C 0.1962(3) 0.6125(5) 0.2195(3)
C35 C 0.2223(4) 0.5113(5) 0.2434(4)
H20 H 0.1949 0.4529 0.2196
C36 C 0.2374(4) 0.6969(5) 0.2557(3)
H21 H 0.2210 0.7644 0.2397
C37 C 0.1242(3) 0.6309(5) 0.1566(3)
O15 O 0.0815(2) 0.5517(3) 0.1279(2)
O16 O 0.1100(3) 0.7227(4) 0.1367(3)
C38 C 0.9886(3) -0.2610(4) 0.2986(3)
C39 C 0.9959(4) -0.1293(5) 0.3857(3)
H22 H 0.9740 -0.0960 0.4157
C40 C 0.9568(4) -0.2113(5) 0.3435(3)
H23 H 0.9079 -0.2336 0.3455
C41 C 1.0621(4) -0.2294(5) 0.2966(3)
H24 H 1.0845 -0.2638 0.2674
C42 C 0.9429(3) -0.3458(4) 0.2501(3)
O17 O 0.8781(2) -0.3733(3) 0.2559(2)
O18 O 0.9728(2) -0.3821(3) 0.2073(2)
O19 O 0.8556(3) 0.4770(4) 0.3524(2)
H25 H 0.8658 0.4712 0.3963
H26 H 0.9001 0.4835 0.3457
O20 O 0.7753(3) 0.2994(3) 0.2571(2)
H27 H 0.7313 0.2986 0.2651
H28 H 0.8006 0.2439 0.2747
O21 O 0.8669(3) 0.5399(4) -0.0210(2)
H29 H 0.8164 0.5348 -0.0360
H30 H 0.8832 0.5284 -0.0550
O22 O 0.9593(3) 0.6976(3) 0.0699(2)
H31 H 1.0044 0.7197 0.0701
H32 H 0.9282 0.6966 0.0279
O23 O 0.9900(3) 0.3905(3) 0.0442(2)
H33 H 0.9994 0.3343 0.0681
H34 H 0.9493 0.3796 0.0082
Dy1_2 Dy -0.058942(15) 0.52061(2) 0.107554(14)
Dy1_3 Dy 0.941058(15) -0.47939(2) 0.107554(14)
Dy1_4 Dy 0.941058(15) 1.52061(2) 0.107554(14)
Dy2_2 Dy 0.791928(15) -0.51825(2) 0.226824(13)
Dy2_3 Dy 0.791928(15) 1.48175(2) 0.226824(13)
O9_2 O 0.8512(2) 0.3787(3) 0.0739(2)
O10_2 O 0.7584(2) 0.3883(3) 0.1256(2)
O15_2 O 1.0815(2) 0.5517(3) 0.1279(2)
O17_2 O 0.8781(2) 0.6267(3) 0.2559(2)
O18_2 O 0.9728(2) 0.6179(3) 0.2073(2)
loop_
_geom_bond_atom_site_label_1
_geom_bond_atom_site_label_2
_geom_bond_site_symmetry_1
_geom_bond_site_symmetry_2
Dy1 O2 1_555 1_555
Dy2 O1 1_555 1_555
O1 C3 1_555 1_555
O2 C3 1_555 1_555
C1 H1 1_555 1_555
C2 H2 1_555 1_555
C3 C5 1_555 1_555
C4 C2 1_555 1_555
H3 C4 1_555 1_555
C5 C1 1_555 1_555
C6 C1 1_555 1_555
H4 C6 1_555 1_555
O3 Dy1 1_555 1_555
O4 Dy2 1_555 1_555
C7 O3 1_555 1_555
C8 C14 1_555 1_555
C9 C11 1_555 1_555
C10 H5 1_555 1_555
C11 H6 1_555 1_555
C12 C7 1_555 1_555
C13 C11 1_555 1_555
H7 C13 1_555 1_555
C14 H8 1_555 1_555
C15 C8 1_555 1_555
H9 C15 1_555 1_555
S1 C8 1_555 1_555
O5 S1 1_555 1_555
O6 S1 1_555 1_555
C16 C4 1_555 1_555
S2 C16 1_555 1_555
O7 S2 1_555 1_555
O8 S2 1_555 1_555
C17 C14 1_555 1_555
H10 C17 1_555 1_555
C18 C17 1_555 1_555
C19 C18 1_555 1_555
C20 S2 1_555 1_555
O9 C19 1_555 1_555
O10 C19 1_555 1_555
O11 Dy2 1_555 1_555
O12 Dy2 1_555 1_555
C21 O11 1_555 1_555
C22 C21 1_555 1_555
C23 C22 1_555 1_555
H11 C23 1_555 1_555
C24 C22 1_555 1_555
H12 C24 1_555 1_555
C25 C15 1_555 1_555
H13 C25 1_555 1_555
C26 C20 1_555 1_555
H14 C26 1_555 1_555
C27 C9 1_555 1_555
H15 C27 1_555 1_555
C28 C29 1_555 1_555
C29 C24 1_555 1_555
H16 C29 1_555 1_555
C30 C23 1_555 1_555
H17 C30 1_555 1_555
S3 C28 1_555 1_555
O13 S3 1_555 1_555
O14 S3 1_555 1_555
C31 S3 1_555 1_555
C32 C31 1_555 1_555
H18 C32 1_555 1_555
C33 C31 1_555 1_555
H19 C33 1_555 1_555
C34 C35 1_555 1_555
C35 C32 1_555 1_555
H20 C35 1_555 1_555
C36 C33 1_555 1_555
H21 C36 1_555 1_555
C37 C34 1_555 1_555
O15 C37 1_555 1_555
O16 C37 1_555 1_555
C38 C40 1_555 1_555
C39 C20 1_555 1_555
H22 C39 1_555 1_555
C40 C39 1_555 1_555
H23 C40 1_555 1_555
C41 C26 1_555 1_555
H24 C41 1_555 1_555
C42 C38 1_555 1_555
O17 C42 1_555 1_555
O18 C42 1_555 1_555
O19 Dy2 1_555 1_555
H25 O19 1_555 1_555
H26 O19 1_555 1_555
O20 Dy2 1_555 1_555
H27 O20 1_555 1_555
H28 O20 1_555 1_555
O21 Dy1 1_555 1_555
H29 O21 1_555 1_555
H30 O21 1_555 1_555
O22 Dy1 1_555 1_555
H31 O22 1_555 1_555
H32 O22 1_555 1_555
O23 Dy1 1_555 1_555
H33 O23 1_555 1_555
H34 O23 1_555 1_555
Dy1_2 O15 1_555 1_555
Dy1_3 O18 1_555 1_555
Dy1_4 O9 1_555 1_555
Dy2_2 O17 1_555 1_555
Dy2_3 O10 1_555 1_555
O9_2 Dy1 1_555 1_555
O10_2 Dy2 1_555 1_555
O15_2 Dy1 1_555 1_555
O17_2 Dy2 1_555 1_555
O18_2 Dy1 1_555 1_555
C2 C5 1_555 1_555
C6 C16 1_555 1_555
O4 C7 1_555 1_555
C9 S1 1_555 1_555
C10 C12 1_555 1_555
C10 C27 1_555 1_555
C12 C13 1_555 1_555
C18 C25 1_555 1_555
O12 C21 1_555 1_555
C28 C30 1_555 1_555
C34 C36 1_555 1_555
C38 C41 1_555 1_555

#END
