
#######################################################################
#
#                 Cambridge Crystallographic Data Centre
#                                CCDC 
#
#######################################################################
#
# If this CIF has been generated from an entry in the Cambridge 
# Structural Database, then it will include bibliographic, chemical, 
# crystal, experimental, refinement or atomic coordinate data resulting 
# from the CCDC's data processing and validation procedures.
#
#######################################################################

data_VOGQIR
_symmetry_cell_setting           monoclinic
_symmetry_space_group_name_H-M   'C 2/m'
_symmetry_Int_Tables_number      12
_space_group_name_Hall           '-C 2y'
loop_
_symmetry_equiv_pos_site_id
_symmetry_equiv_pos_as_xyz
1 x,y,z
2 1/2+x,1/2+y,z
3 x,-y,z
4 1/2+x,1/2-y,z
5 -x,-y,-z
6 1/2-x,1/2-y,-z
7 -x,y,-z
8 1/2-x,1/2+y,-z
_cell_length_a                   12.6442(5)
_cell_length_b                   14.7052(6)
_cell_length_c                   11.1580(4)
_cell_angle_alpha                90
_cell_angle_beta                 112.7730(10)
_cell_angle_gamma                90
_cell_volume                     1912.94
loop_
_atom_site_label
_atom_site_type_symbol
_atom_site_fract_x
_atom_site_fract_y
_atom_site_fract_z
Cd1 Cd -0.22309(3) 0.0000 -0.32061(3)
O1 O -0.1551(3) 0.0000 -0.0911(3)
O2 O -0.3570(2) -0.1128(2) -0.3367(2)
N1 N -0.2856(3) 0.0000 -0.5483(4)
C1 C -0.4383(3) -0.2347(3) -0.2599(4)
O3 O -0.2872(3) -0.1434(2) -0.1232(3)
C2 C -0.3533(3) -0.1575(3) -0.2383(4)
C3 C -0.5378(3) -0.2412(3) -0.3713(4)
H1 H -0.5554(3) -0.1972(3) -0.4359(4)
C4 C -0.4180(3) -0.3018(3) -0.1665(4)
H2 H -0.3529(3) -0.2993(3) -0.0900(4)
C5 C -0.4510(4) 0.0000 -0.7470(5)
H3 H -0.5306(4) 0.0000 -0.7873(5)
C6 C -0.3995(4) 0.0000 -0.6137(5)
H4 H -0.4461(4) 0.0000 -0.5665(5)
C7 C -0.3861(5) 0.0000 -0.8216(5)
C8 C -0.6105(3) -0.3142(3) -0.3847(4)
H5 H -0.6771(3) -0.3175(3) -0.4595(4)
N2 N -0.5905(2) -0.3802(2) -0.2963(3)
C9 C -0.4944(3) -0.3721(3) -0.1873(4)
H6 H -0.4794(3) -0.4164(3) -0.1233(4)
C10 C -0.2212(5) 0.0000 -0.6197(6)
H7 H -0.1417(5) 0.0000 -0.5770(6)
C11 C -0.2680(6) 0.0000 -0.7539(6)
H8 H -0.2199(6) 0.0000 -0.7994(6)
C12 C -0.4366(5) 0.0000 -0.9684(6)
H9 H -0.4082(5) 0.0531 -0.9980(6)
H10 H -0.4082(5) -0.0531 -0.9980(6)
C12D C -0.5634(5) 0.0000 -1.0316(6)
C7D C -0.6139(5) 0.0000 -1.1784(5)
C5D C -0.5490(4) 0.0000 -1.2530(5)
H3D H -0.4694(4) 0.0000 -1.2127(5)
C6D C -0.6005(4) 0.0000 -1.3863(5)
N1D N -0.7144(3) 0.0000 -1.4517(4)
C10D C -0.7788(5) 0.0000 -1.3803(6)
H7D H -0.8583(5) 0.0000 -1.4230(6)
C11D C -0.7320(6) 0.0000 -1.2461(6)
H8D H -0.7801(6) 0.0000 -1.2006(6)
H4D H -0.5539(4) 0.0000 -1.4335(5)
H9D H -0.5918(5) -0.0531 -1.0020(6)
H9F H -0.5918(5) 0.0531 -1.0020(6)
O2B O -0.3570(2) 0.1128(2) -0.3367(2)
C1B C -0.4383(3) 0.2347(3) -0.2599(4)
O3B O -0.2872(3) 0.1434(2) -0.1232(3)
C2B C -0.3533(3) 0.1575(3) -0.2383(4)
C3B C -0.5378(3) 0.2412(3) -0.3713(4)
H1B H -0.5554(3) 0.1972(3) -0.4359(4)
C4B C -0.4180(3) 0.3018(3) -0.1665(4)
H2B H -0.3529(3) 0.2993(3) -0.0900(4)
C8B C -0.6105(3) 0.3142(3) -0.3847(4)
H5B H -0.6771(3) 0.3175(3) -0.4595(4)
N2B N -0.5905(2) 0.3802(2) -0.2963(3)
C9B C -0.4944(3) 0.3721(3) -0.1873(4)
H6B H -0.4794(3) 0.4164(3) -0.1233(4)
O2A O 0.1430(2) 0.3872(2) -0.3367(2)
C1A C 0.0617(3) 0.2653(3) -0.2599(4)
O3A O 0.2128(3) 0.3566(2) -0.1232(3)
C2A C 0.1467(3) 0.3425(3) -0.2383(4)
C3A C -0.0378(3) 0.2588(3) -0.3713(4)
H1A H -0.0554(3) 0.3028(3) -0.4359(4)
C4A C 0.0820(3) 0.1982(3) -0.1665(4)
H2A H 0.1471(3) 0.2007(3) -0.0900(4)
C8A C -0.1105(3) 0.1858(3) -0.3847(4)
H5A H -0.1771(3) 0.1825(3) -0.4595(4)
N2A N -0.0905(2) 0.1198(2) -0.2963(3)
C9A C 0.0056(3) 0.1279(3) -0.1873(4)
H6A H 0.0206(3) 0.0836(3) -0.1233(4)
O2C O 0.1430(2) -0.3872(2) -0.3367(2)
C1C C 0.0617(3) -0.2653(3) -0.2599(4)
O3C O 0.2128(3) -0.3566(2) -0.1232(3)
C2C C 0.1467(3) -0.3425(3) -0.2383(4)
C3C C -0.0378(3) -0.2588(3) -0.3713(4)
H1C H -0.0554(3) -0.3028(3) -0.4359(4)
C4C C 0.0820(3) -0.1982(3) -0.1665(4)
H2C H 0.1471(3) -0.2007(3) -0.0900(4)
C8C C -0.1105(3) -0.1858(3) -0.3847(4)
H5C H -0.1771(3) -0.1825(3) -0.4595(4)
N2C N -0.0905(2) -0.1198(2) -0.2963(3)
C9C C 0.0056(3) -0.1279(3) -0.1873(4)
H6C H 0.0206(3) -0.0836(3) -0.1233(4)
Cd1A Cd 0.27691(3) 0.5000 -0.32061(3)
Cd1A_2 Cd -0.72309(3) -0.5000 -0.32061(3)
Cd1D Cd -0.77691(3) 0.0000 -1.67939(3)
Cd1A_3 Cd -0.72309(3) 0.5000 -0.32061(3)
Cd1A_4 Cd 0.27691(3) -0.5000 -0.32061(3)
O1A O 0.3449(3) 0.5000 -0.0911(3)
O2C_2 O 0.1430(2) 0.6128(2) -0.3367(2)
N1A N 0.2144(3) 0.5000 -0.5483(4)
N2_2 N 0.4095(2) 0.6198(2) -0.2963(3)
N2B_2 N 0.4095(2) 0.3802(2) -0.2963(3)
loop_
_geom_bond_atom_site_label_1
_geom_bond_atom_site_label_2
_geom_bond_site_symmetry_1
_geom_bond_site_symmetry_2
Cd1 O1 1_555 1_555
O2 Cd1 1_555 1_555
N1 Cd1 1_555 1_555
C1 C2 1_555 1_555
O3 C2 1_555 1_555
C2 O2 1_555 1_555
C3 C1 1_555 1_555
H1 C3 1_555 1_555
C4 C1 1_555 1_555
H2 C4 1_555 1_555
C5 H3 1_555 1_555
C6 N1 1_555 1_555
H4 C6 1_555 1_555
C7 C5 1_555 1_555
C8 C3 1_555 1_555
H5 C8 1_555 1_555
N2 C8 1_555 1_555
C9 C4 1_555 1_555
H6 C9 1_555 1_555
C10 N1 1_555 1_555
H7 C10 1_555 1_555
C11 C7 1_555 1_555
H8 C11 1_555 1_555
C12 C7 1_555 1_555
H9 C12 1_555 1_555
H10 C12 1_555 1_555
C12D C12 1_555 1_555
C7D C12D 1_555 1_555
C5D C7D 1_555 1_555
H3D C5D 1_555 1_555
C6D C5D 1_555 1_555
N1D C6D 1_555 1_555
C10D N1D 1_555 1_555
H7D C10D 1_555 1_555
C11D C7D 1_555 1_555
H8D C11D 1_555 1_555
H4D C6D 1_555 1_555
H9D C12D 1_555 1_555
H9F C12D 1_555 1_555
O2B Cd1 1_555 1_555
C1B C2B 1_555 1_555
O3B C2B 1_555 1_555
C2B O2B 1_555 1_555
C3B C1B 1_555 1_555
H1B C3B 1_555 1_555
C4B C1B 1_555 1_555
H2B C4B 1_555 1_555
C8B C3B 1_555 1_555
H5B C8B 1_555 1_555
N2B C8B 1_555 1_555
C9B C4B 1_555 1_555
H6B C9B 1_555 1_555
O2A C2A 1_555 1_555
C1A C2A 1_555 1_555
O3A C2A 1_555 1_555
C3A C1A 1_555 1_555
H1A C3A 1_555 1_555
C4A C1A 1_555 1_555
H2A C4A 1_555 1_555
C8A C3A 1_555 1_555
H5A C8A 1_555 1_555
N2A Cd1 1_555 1_555
C9A C4A 1_555 1_555
H6A C9A 1_555 1_555
O2C C2C 1_555 1_555
C1C C2C 1_555 1_555
O3C C2C 1_555 1_555
C3C C1C 1_555 1_555
H1C C3C 1_555 1_555
C4C C1C 1_555 1_555
H2C C4C 1_555 1_555
C8C C3C 1_555 1_555
H5C C8C 1_555 1_555
N2C Cd1 1_555 1_555
C9C C4C 1_555 1_555
H6C C9C 1_555 1_555
Cd1A O2A 1_555 1_555
Cd1A_2 N2 1_555 1_555
Cd1D N1D 1_555 1_555
Cd1A_3 N2B 1_555 1_555
Cd1A_4 O2C 1_555 1_555
O1A Cd1A 1_555 1_555
O2C_2 Cd1A 1_555 1_555
N1A Cd1A 1_555 1_555
N2_2 Cd1A 1_555 1_555
N2B_2 Cd1A 1_555 1_555
C5 C6 1_555 1_555
N2 C9 1_555 1_555
C10 C11 1_555 1_555
C10D C11D 1_555 1_555
N2B C9B 1_555 1_555
C8A N2A 1_555 1_555
N2A C9A 1_555 1_555
C8C N2C 1_555 1_555
N2C C9C 1_555 1_555

#END
