
#######################################################################
#
#                 Cambridge Crystallographic Data Centre
#                                CCDC 
#
#######################################################################
#
# If this CIF has been generated from an entry in the Cambridge 
# Structural Database, then it will include bibliographic, chemical, 
# crystal, experimental, refinement or atomic coordinate data resulting 
# from the CCDC's data processing and validation procedures.
#
#######################################################################

data_VOGYAS
_symmetry_cell_setting           orthorhombic
_symmetry_space_group_name_H-M   'P c a 21'
_symmetry_Int_Tables_number      29
_space_group_name_Hall           'P 2c -2ac'
loop_
_symmetry_equiv_pos_site_id
_symmetry_equiv_pos_as_xyz
1 x,y,z
2 -x,-y,1/2+z
3 1/2-x,y,1/2+z
4 1/2+x,-y,z
_cell_length_a                   11.087(3)
_cell_length_b                   17.673(4)
_cell_length_c                   21.405(4)
_cell_angle_alpha                90
_cell_angle_beta                 90
_cell_angle_gamma                90
_cell_volume                     4194.11
loop_
_atom_site_label
_atom_site_type_symbol
_atom_site_fract_x
_atom_site_fract_y
_atom_site_fract_z
Pt1 Pt 0.07238(5) 0.71807(3) 0.71196(5)
P1 P 0.0389(4) 0.62390(19) 0.63997(16)
P2 P 0.1677(3) 0.6398(2) 0.77890(15)
N1 N 0.0086(12) 0.7999(7) 0.6464(5)
C1 C -0.1148(17) 0.8099(9) 0.6361(8)
H1 H -0.1724 0.7836 0.6607
C2 C -0.1516(13) 0.8584(7) 0.5895(6)
H2 H -0.2352 0.8657 0.5818
C3 C -0.0678(13) 0.8963(9) 0.5542(8)
C4 C 0.0526(16) 0.8849(10) 0.5640(8)
H3 H 0.1119 0.9087 0.5387
C5 C 0.0844(15) 0.8367(10) 0.6128(9)
H4 H 0.1677 0.8306 0.6217
N2 N -0.0902(12) 1.1900(9) 0.2712(7)
C6 C -0.1862(14) 1.1496(9) 0.2768(7)
H5 H -0.2505 1.1581 0.2484
C7 C -0.2007(14) 1.0949(8) 0.3218(7)
H6 H -0.2735 1.0667 0.3242
C8 C -0.1095(15) 1.0818(9) 0.3626(7)
C9 C -0.0035(17) 1.1198(10) 0.3583(8)
H7 H 0.0610 1.1106 0.3864
C10 C 0.0067(17) 1.1759(10) 0.3081(9)
H8 H 0.0805 1.2020 0.3014
S1 S -0.0063(5) 1.0038(3) 0.4638(3)
N3 N -0.2143(14) 0.9416(9) 0.4734(8)
N4 N -0.2243(17) 0.9915(10) 0.4276(8)
C11 C -0.1038(14) 0.9427(8) 0.4996(7)
C12 C -0.1241(16) 1.0270(9) 0.4159(8)
C13 C -0.0780(12) 0.6490(10) 0.5825(8)
C14 C -0.1981(14) 0.6478(7) 0.6010(8)
H9 H -0.2166 0.6299 0.6417
C15 C -0.2846(18) 0.6694(10) 0.5663(9)
H10 H -0.3652 0.6691 0.5813
C16 C -0.2588(16) 0.6937(10) 0.5055(9)
H11 H -0.3231 0.7096 0.4792
C17 C -0.1383(14) 0.6952(8) 0.4820(7)
H12 H -0.1202 0.7112 0.4407
C18 C -0.0492(13) 0.6719(8) 0.5234(6)
H13 H 0.0328 0.6719 0.5105
C19 C 0.1710(12) 0.6000(7) 0.5918(6)
C20 C 0.2596(14) 0.6545(8) 0.5861(7)
H14 H 0.2546 0.7003 0.6091
C21 C 0.3559(14) 0.6414(9) 0.5465(7)
H15 H 0.4153 0.6795 0.5408
C22 C 0.3663(14) 0.5752(9) 0.5158(7)
H16 H 0.4300 0.5683 0.4867
C23 C 0.2861(14) 0.5180(9) 0.5263(6)
H17 H 0.2993 0.4686 0.5101
C24 C 0.1846(15) 0.5347(8) 0.5614(7)
H18 H 0.1219 0.4982 0.5639
C25 C 0.2547(13) 0.6945(8) 0.8362(6)
C26 C 0.3705(15) 0.7173(7) 0.8205(8)
H19 H 0.4038 0.7025 0.7814
C27 C 0.4371(16) 0.7607(12) 0.8602(10)
H20 H 0.5187 0.7728 0.8512
C28 C 0.3805(19) 0.7872(9) 0.9158(9)
H21 H 0.4231 0.8209 0.9424
C29 C 0.2683(18) 0.7659(10) 0.9314(9)
H22 H 0.2333 0.7819 0.9697
C30 C 0.2041(17) 0.7198(8) 0.8901(8)
H23 H 0.1235 0.7059 0.8999
C31 C 0.0674(12) 0.5801(8) 0.8216(7)
C32 C -0.0398(14) 0.6099(9) 0.8462(7)
H24 H -0.0603 0.6609 0.8370
C33 C -0.1171(15) 0.5674(8) 0.8834(7)
H25 H -0.1888 0.5884 0.9004
C34 C -0.0829(13) 0.4895(10) 0.8950(7)
H26 H -0.1343 0.4583 0.9195
C35 C 0.0187(16) 0.4605(9) 0.8723(8)
H27 H 0.0383 0.4092 0.8805
C36 C 0.0983(14) 0.5053(8) 0.8359(7)
H28 H 0.1721 0.4846 0.8212
C37 C -0.0152(14) 0.5367(8) 0.6732(7)
H29 H -0.0428 0.5031 0.6397
H30 H -0.0824 0.5474 0.7016
H31 H 0.0502 0.5121 0.6964
C38 C 0.2791(14) 0.5782(8) 0.7436(7)
H32 H 0.2384 0.5355 0.7233
H33 H 0.3337 0.5591 0.7760
H34 H 0.3254 0.6065 0.7125
Pt1A Pt -0.07238(5) 1.28193(3) 0.21196(5)
N2A N 0.0902(12) 0.8100(9) 0.7712(7)
N5 N 0.733(2) 0.6959(13) 0.7857(12)
O1 O 0.7985(15) 0.7131(7) 0.7430(8)
O2 O 0.655(3) 0.6634(17) 0.7852(17)
O3 O 0.748(2) 0.7278(11) 0.8430(10)
N6 N 0.4115(19) 0.8404(12) 0.5949(13)
O4 O 0.3775(15) 0.8127(9) 0.6508(8)
O5 O 0.527(2) 0.8362(14) 0.5851(12)
O6 O 0.3502(18) 0.8628(11) 0.5564(9)
C39 C 0.603(2) 0.9353(14) 0.7039(16)
H35 H 0.5802 0.8946 0.6736
Cl1 Cl 0.4700(8) 0.9881(5) 0.7254(6)
Cl2 Cl 0.6752(12) 0.8937(4) 0.7717(5)
Cl3 Cl 0.7015(9) 0.9942(4) 0.6709(5)
O7 O 0.5111(13) 0.6709(10) 0.6772(7)
loop_
_geom_bond_atom_site_label_1
_geom_bond_atom_site_label_2
_geom_bond_site_symmetry_1
_geom_bond_site_symmetry_2
Pt1 P1 1_555 1_555
P1 C13 1_555 1_555
P2 Pt1 1_555 1_555
N1 Pt1 1_555 1_555
C1 N1 1_555 1_555
H1 C1 1_555 1_555
C2 C1 1_555 1_555
H2 C2 1_555 1_555
C3 C2 1_555 1_555
C4 C3 1_555 1_555
H3 C4 1_555 1_555
C5 N1 1_555 1_555
H4 C5 1_555 1_555
N2 C6 1_555 1_555
C6 H5 1_555 1_555
C7 C6 1_555 1_555
H6 C7 1_555 1_555
C8 C7 1_555 1_555
C9 C8 1_555 1_555
H7 C9 1_555 1_555
C10 N2 1_555 1_555
H8 C10 1_555 1_555
S1 C11 1_555 1_555
N3 N4 1_555 1_555
N4 C12 1_555 1_555
C11 C3 1_555 1_555
C12 C8 1_555 1_555
C13 C14 1_555 1_555
C14 H9 1_555 1_555
C15 C14 1_555 1_555
H10 C15 1_555 1_555
C16 C15 1_555 1_555
H11 C16 1_555 1_555
C17 C16 1_555 1_555
H12 C17 1_555 1_555
C18 C13 1_555 1_555
H13 C18 1_555 1_555
C19 P1 1_555 1_555
C20 C19 1_555 1_555
H14 C20 1_555 1_555
C21 C20 1_555 1_555
H15 C21 1_555 1_555
C22 C21 1_555 1_555
H16 C22 1_555 1_555
C23 C22 1_555 1_555
H17 C23 1_555 1_555
C24 C19 1_555 1_555
H18 C24 1_555 1_555
C25 P2 1_555 1_555
C26 C25 1_555 1_555
H19 C26 1_555 1_555
C27 C26 1_555 1_555
H20 C27 1_555 1_555
C28 C27 1_555 1_555
H21 C28 1_555 1_555
C29 C28 1_555 1_555
H22 C29 1_555 1_555
C30 C25 1_555 1_555
H23 C30 1_555 1_555
C31 P2 1_555 1_555
C32 C31 1_555 1_555
H24 C32 1_555 1_555
C33 C32 1_555 1_555
H25 C33 1_555 1_555
C34 C33 1_555 1_555
H26 C34 1_555 1_555
C35 C34 1_555 1_555
H27 C35 1_555 1_555
C36 C31 1_555 1_555
H28 C36 1_555 1_555
C37 P1 1_555 1_555
H29 C37 1_555 1_555
H30 C37 1_555 1_555
H31 C37 1_555 1_555
C38 P2 1_555 1_555
H32 C38 1_555 1_555
H33 C38 1_555 1_555
H34 C38 1_555 1_555
N5 O1 1_555 1_555
O2 N5 1_555 1_555
O3 N5 1_555 1_555
N6 O4 1_555 1_555
O5 N6 1_555 1_555
O6 N6 1_555 1_555
C39 H35 1_555 1_555
Cl1 C39 1_555 1_555
Cl2 C39 1_555 1_555
Cl3 C39 1_555 1_555
Pt1A N2 1_555 1_555
N2A Pt1 1_555 1_555
C4 C5 1_555 1_555
C9 C10 1_555 1_555
S1 C12 1_555 1_555
N3 C11 1_555 1_555
C17 C18 1_555 1_555
C23 C24 1_555 1_555
C29 C30 1_555 1_555
C35 C36 1_555 1_555

#END
