
#######################################################################
#
#                 Cambridge Crystallographic Data Centre
#                                CCDC 
#
#######################################################################
#
# If this CIF has been generated from an entry in the Cambridge 
# Structural Database, then it will include bibliographic, chemical, 
# crystal, experimental, refinement or atomic coordinate data resulting 
# from the CCDC's data processing and validation procedures.
#
#######################################################################

data_VOHFED
_symmetry_cell_setting           orthorhombic
_symmetry_space_group_name_H-M   'P n a 21'
_symmetry_Int_Tables_number      33
_space_group_name_Hall           'P 2c -2n'
loop_
_symmetry_equiv_pos_site_id
_symmetry_equiv_pos_as_xyz
1 x,y,z
2 1/2-x,1/2+y,1/2+z
3 1/2+x,1/2-y,z
4 -x,-y,1/2+z
_cell_length_a                   20.380(5)
_cell_length_b                   16.302(4)
_cell_length_c                   7.104(2)
_cell_angle_alpha                90
_cell_angle_beta                 90
_cell_angle_gamma                90
_cell_volume                     2360.2
loop_
_atom_site_label
_atom_site_type_symbol
_atom_site_fract_x
_atom_site_fract_y
_atom_site_fract_z
U1 U -0.08554(3) -0.22375(4) -0.25000
U2 U 0.12105(3) -0.23777(3) -0.26730(20)
O1 O -0.0604(8) -0.2041(8) -0.4821(22)
O2 O -0.1075(8) -0.2395(9) -0.0138(25)
O3 O 0.1501(8) -0.2409(7) -0.0373(20)
O4 O 0.0931(6) -0.2332(8) -0.4997(24)
O5 O -0.0351(5) -0.3544(7) -0.2559(40)
O6 O -0.1570(7) -0.3359(9) -0.3677(29)
O7 O -0.1879(6) -0.1632(8) -0.3089(27)
O8 O -0.0759(6) -0.0727(8) -0.1977(38)
O9 O 0.0726(5) -0.3681(7) -0.2235(37)
O10 O -0.2949(6) -0.1779(8) -0.3649(21)
O11 O 0.2127(7) -0.1446(7) -0.3560(23)
O12 O 0.1228(6) -0.0856(7) -0.2638(43)
O13 O 0.0207(5) -0.1973(7) -0.1582(19)
O14 O -0.0545(7) -0.5194(9) -0.2411(58)
C1 C 0.0149(8) -0.3952(10) -0.2408(62)
C2 C 0.0061(8) -0.4855(11) -0.2224(34)
C3 C 0.0541(8) -0.5404(10) -0.2195(51)
C4 C 0.0261(14) -0.6166(16) -0.2116(49)
C5 C -0.0396(14) -0.6057(11) -0.2416(66)
O15 O 0.2753(7) 0.0040(9) -0.3932(24)
C6 C 0.1814(8) -0.0801(10) -0.3158(25)
C7 C 0.2116(10) 0.0024(12) -0.3347(32)
C8 C 0.1892(10) 0.0775(11) -0.3032(32)
C9 C 0.2419(11) 0.1318(12) -0.3471(35)
C10 C 0.2890(13) 0.0827(14) -0.3998(36)
O16 O -0.1967(6) 0.0005(8) -0.3131(20)
C11 C -0.2438(8) -0.1358(12) -0.3430(34)
C12 C -0.2504(9) -0.0473(11) -0.3546(32)
C13 C -0.2991(9) 0.0023(13) -0.4075(30)
C14 C -0.2789(12) 0.0851(13) -0.3991(39)
C15 C -0.2179(13) 0.0798(11) -0.3435(39)
H1 H 0.1003 -0.5288 -0.2226
H2 H 0.0483 -0.6676 -0.1889
H3 H -0.0708 -0.6492 -0.2579
H4 H 0.1463 0.0924 -0.2592
H5 H 0.2427 0.1906 -0.3397
H6 H 0.3308 0.1028 -0.4416
H7 H -0.3420 -0.0159 -0.4444
H8 H -0.3038 0.1333 -0.4293
H9 H -0.1906 0.1270 -0.3236
O10B O 0.2051(6) -0.3221(8) -0.3649(21)
U2B U -0.37895(3) -0.26223(3) -0.26730(20)
O17 O 0.0289(7) 0.0139(10) -0.1006(29)
O18 O 0.0398(8) -0.1398(11) 0.1963(21)
loop_
_geom_bond_atom_site_label_1
_geom_bond_atom_site_label_2
_geom_bond_site_symmetry_1
_geom_bond_site_symmetry_2
U1 O1 1_555 1_555
U2 O3 1_555 1_555
O2 U1 1_555 1_555
O4 U2 1_555 1_555
O5 U1 1_555 1_555
O6 U1 1_555 1_555
O7 U1 1_555 1_555
O8 U1 1_555 1_555
O9 U2 1_555 1_555
O10 C11 1_555 1_555
O11 U2 1_555 1_555
O12 U2 1_555 1_555
O13 U1 1_555 1_555
O14 C2 1_555 1_555
C1 O5 1_555 1_555
C2 C1 1_555 1_555
C3 C2 1_555 1_555
C4 C3 1_555 1_555
C5 O14 1_555 1_555
O15 C7 1_555 1_555
C6 O11 1_555 1_555
C7 C6 1_555 1_555
C8 C7 1_555 1_555
C9 C8 1_555 1_555
C10 O15 1_555 1_555
O16 C12 1_555 1_555
C11 O7 1_555 1_555
C12 C11 1_555 1_555
C13 C12 1_555 1_555
C14 C13 1_555 1_555
C15 O16 1_555 1_555
H1 C3 1_555 1_555
H2 C4 1_555 1_555
H3 C5 1_555 1_555
H4 C8 1_555 1_555
H5 C9 1_555 1_555
H6 C10 1_555 1_555
H7 C13 1_555 1_555
H8 C14 1_555 1_555
H9 C15 1_555 1_555
O10B U2 1_555 1_555
U2B O10 1_555 1_555
U2 O13 1_555 1_555
O9 C1 1_555 1_555
O12 C6 1_555 1_555
C4 C5 1_555 1_555
C9 C10 1_555 1_555
C14 C15 1_555 1_555

#END
