
#######################################################################
#
#                 Cambridge Crystallographic Data Centre
#                                CCDC 
#
#######################################################################
#
# If this CIF has been generated from an entry in the Cambridge 
# Structural Database, then it will include bibliographic, chemical, 
# crystal, experimental, refinement or atomic coordinate data resulting 
# from the CCDC's data processing and validation procedures.
#
#######################################################################

data_VOHSER
_symmetry_cell_setting           monoclinic
_symmetry_space_group_name_H-M   'C 2/c'
_symmetry_Int_Tables_number      15
_space_group_name_Hall           '-C 2yn'
loop_
_symmetry_equiv_pos_site_id
_symmetry_equiv_pos_as_xyz
1 x,y,z
2 1/2+x,1/2+y,z
3 -x,y,1/2-z
4 1/2-x,1/2+y,1/2-z
5 -x,-y,-z
6 1/2-x,1/2-y,-z
7 x,-y,1/2+z
8 1/2+x,1/2-y,1/2+z
_cell_length_a                   23.155(6)
_cell_length_b                   6.0900(16)
_cell_length_c                   14.543(5)
_cell_angle_alpha                90
_cell_angle_beta                 127.678(17)
_cell_angle_gamma                90
_cell_volume                     1623.1
loop_
_atom_site_label
_atom_site_type_symbol
_atom_site_fract_x
_atom_site_fract_y
_atom_site_fract_z
Na1 Na 0.24809(3) 0.43051(10) 0.24000(5)
O1 O 0.16736(6) 0.16529(17) 0.09168(9)
O2 O 0.05729(6) -0.21567(19) -0.03931(10)
H1 H 0.0846 -0.2907 -0.0445
O3 O 0.14255(6) -0.19459(18) -0.08460(9)
O4 O 0.24091(7) 0.19528(18) 0.36644(10)
H2 H 0.2075(8) 0.196(3) 0.3733(15)
H3 H 0.2796(8) 0.222(3) 0.4385(13)
O5 O 0.34457(6) 0.18090(18) 0.30154(10)
H4 H 0.3781(9) 0.212(3) 0.3752(12)
H5 H 0.3710(10) 0.123(3) 0.2850(14)
C1 C 0.09012(9) 0.1596(3) 0.03391(15)
H6 H 0.0686 0.3080 0.0067
H7 H 0.0801 0.1041 0.0868
C2 C 0.05911(9) 0.0052(3) -0.06810(14)
H8 H 0.0097 0.0547 -0.1367
C3 C 0.11567(9) 0.0160(3) -0.09473(14)
H9 H 0.0922 0.0765 -0.1742
C4 C 0.17244(9) 0.1743(3) -0.00250(14)
H10 H 0.2218 0.1304 0.0251
H11 H 0.1626 0.3251 -0.0343
Na1C Na 0.25191(3) -0.06949(10) 0.26000(5)
O1C O 0.33264(6) 0.66529(17) 0.40832(9)
O4C O 0.25909(7) 0.69528(18) 0.13356(10)
H2C H 0.2925(8) 0.696(3) 0.1267(15)
H3C H 0.2204(8) 0.722(3) 0.0615(13)
O5C O 0.15543(6) 0.68090(18) 0.19846(10)
H4C H 0.1219(9) 0.712(3) 0.1248(12)
H5C H 0.1290(10) 0.623(3) 0.2150(14)
O6 O 0.06903(7) 0.4653(2) 0.23361(12)
H12 H 0.0915(10) 0.384(3) 0.2926(14)
H13 H 0.0326(9) 0.400(3) 0.1783(15)
loop_
_geom_bond_atom_site_label_1
_geom_bond_atom_site_label_2
_geom_bond_site_symmetry_1
_geom_bond_site_symmetry_2
Na1 O1 1_555 1_555
O1 C1 1_555 1_555
O2 H1 1_555 1_555
O3 C3 1_555 1_555
O4 Na1 1_555 1_555
H2 O4 1_555 1_555
H3 O4 1_555 1_555
O5 Na1 1_555 1_555
H4 O5 1_555 1_555
H5 O5 1_555 1_555
C1 H6 1_555 1_555
H7 C1 1_555 1_555
C2 O2 1_555 1_555
H8 C2 1_555 1_555
C3 C2 1_555 1_555
H9 C3 1_555 1_555
C4 O1 1_555 1_555
H10 C4 1_555 1_555
H11 C4 1_555 1_555
O6 H12 1_555 1_555
H13 O6 1_555 1_555
Na1C O1 1_555 1_555
O1C Na1 1_555 1_555
O4C Na1 1_555 1_555
H2C O4C 1_555 1_555
H3C O4C 1_555 1_555
O5C Na1 1_555 1_555
H4C O5C 1_555 1_555
H5C O5C 1_555 1_555
O4 Na1C 1_555 1_555
O5 Na1C 1_555 1_555
C1 C2 1_555 1_555
C3 C4 1_555 1_555

#END
