
#######################################################################
#
#                 Cambridge Crystallographic Data Centre
#                                CCDC 
#
#######################################################################
#
# If this CIF has been generated from an entry in the Cambridge 
# Structural Database, then it will include bibliographic, chemical, 
# crystal, experimental, refinement or atomic coordinate data resulting 
# from the CCDC's data processing and validation procedures.
#
#######################################################################

data_VOHTAO
_symmetry_cell_setting           monoclinic
_symmetry_space_group_name_H-M   'P 21/c'
_symmetry_Int_Tables_number      14
_space_group_name_Hall           '-P 2ybc'
loop_
_symmetry_equiv_pos_site_id
_symmetry_equiv_pos_as_xyz
1 x,y,z
2 -x,1/2+y,1/2-z
3 -x,-y,-z
4 x,1/2-y,1/2+z
_cell_length_a                   17.6484(18)
_cell_length_b                   7.8854(10)
_cell_length_c                   24.184(3)
_cell_angle_alpha                90
_cell_angle_beta                 104.613(2)
_cell_angle_gamma                90
_cell_volume                     3256.69
loop_
_atom_site_label
_atom_site_type_symbol
_atom_site_fract_x
_atom_site_fract_y
_atom_site_fract_z
Tb1 Tb 0.524810(16) 0.42775(4) 0.272830(11)
N1 N 0.7253(3) 0.2677(8) 0.4209(2)
O1 O 0.4761(2) 0.1248(5) 0.30008(18)
O2 O 0.4655(3) 0.3527(6) 0.34879(18)
O3 O 0.3993(2) 0.3832(6) 0.21354(18)
O4 O 0.3868(2) 0.1228(5) 0.17513(18)
O5 O 0.5499(2) 0.1847(5) 0.21524(16)
O6 O 0.6464(2) 0.3687(6) 0.23763(19)
O7 O 0.6182(3) 0.2771(6) 0.34752(19)
C1 C 0.4615(4) 0.1964(9) 0.3431(3)
C2 C 0.4441(5) 0.0852(9) 0.3892(3)
H1 H 0.4927 0.0359 0.4112
H2 H 0.4103 -0.0069 0.3713
C3 C 0.4052(5) 0.1789(10) 0.4294(3)
C4 C 0.4480(6) 0.2148(11) 0.4841(3)
H3 H 0.4998 0.1797 0.4967
C5 C 0.4107(7) 0.3091(13) 0.5221(4)
H4 H 0.4382 0.3365 0.5592
C6 C 0.3359(7) 0.3546(13) 0.5022(5)
H5 H 0.3129 0.4137 0.5271
C7 C 0.2894(7) 0.3223(11) 0.4482(5)
C8 C 0.3263(6) 0.2311(10) 0.4100(4)
C9 C 0.2801(6) 0.2008(11) 0.3545(4)
H6 H 0.3017 0.1398 0.3293
C10 C 0.2047(6) 0.2572(12) 0.3361(5)
H7 H 0.1768 0.2388 0.2985
C11 C 0.1701(7) 0.3416(14) 0.3733(6)
H8 H 0.1183 0.3770 0.3609
C12 C 0.2101(7) 0.3724(12) 0.4265(5)
H9 H 0.1853 0.4293 0.4506
C13 C 0.3652(3) 0.2728(9) 0.1786(3)
C14 C 0.2921(4) 0.3284(9) 0.1342(3)
H10 H 0.2846 0.4488 0.1390
H11 H 0.3009 0.3120 0.0966
C15 C 0.2176(4) 0.2374(8) 0.1364(3)
C16 C 0.2114(4) 0.1483(9) 0.1830(3)
H12 H 0.2549 0.1389 0.2139
C17 C 0.1408(5) 0.0696(10) 0.1858(4)
H13 H 0.1381 0.0069 0.2179
C18 C 0.0766(5) 0.0864(11) 0.1410(4)
H14 H 0.0296 0.0376 0.1436
C19 C 0.0788(4) 0.1738(11) 0.0917(4)
C20 C 0.1505(4) 0.2507(9) 0.0887(3)
C21 C 0.1516(4) 0.3357(10) 0.0381(3)
H15 H 0.1980 0.3864 0.0352
C22 C 0.0872(5) 0.3475(12) -0.0073(4)
H16 H 0.0896 0.4057 -0.0403
C23 C 0.0173(5) 0.2690(12) -0.0027(4)
H17 H -0.0268 0.2749 -0.0333
C24 C 0.0130(5) 0.1872(12) 0.0440(4)
H18 H -0.0341 0.1373 0.0456
C25 C 0.6191(4) 0.2342(8) 0.2145(3)
C26 C 0.6633(4) 0.1225(9) 0.1826(3)
H19 H 0.6296 0.0998 0.1449
H20 H 0.6737 0.0149 0.2025
C27 C 0.7401(4) 0.1926(9) 0.1754(3)
C28 C 0.7411(5) 0.2700(10) 0.1254(4)
H21 H 0.6943 0.2827 0.0976
C29 C 0.8106(5) 0.3315(11) 0.1143(4)
H22 H 0.8092 0.3841 0.0796
C30 C 0.8794(5) 0.3141(10) 0.1539(4)
H23 H 0.9253 0.3526 0.1458
C31 C 0.8830(4) 0.2387(10) 0.2073(4)
C32 C 0.8112(4) 0.1781(9) 0.2182(3)
C33 C 0.8159(5) 0.1038(10) 0.2716(4)
H24 H 0.7704 0.0641 0.2800
C34 C 0.8852(6) 0.0884(11) 0.3115(4)
H25 H 0.8865 0.0377 0.3464
C35 C 0.9549(6) 0.1483(12) 0.3005(5)
H26 H 1.0021 0.1380 0.3280
C36 C 0.9526(5) 0.2211(12) 0.2494(4)
H27 H 0.9989 0.2605 0.2423
C37 C 0.6886(4) 0.3035(9) 0.3681(3)
H28 H 0.7173 0.3518 0.3448
C38 C 0.6820(5) 0.2000(12) 0.4591(3)
H29 H 0.6270 0.2052 0.4412
H30 H 0.6932 0.2654 0.4937
H31 H 0.6971 0.0841 0.4679
C39 C 0.8097(4) 0.2947(11) 0.4423(4)
H32 H 0.8311 0.3311 0.4115
H33 H 0.8343 0.1906 0.4579
H34 H 0.8191 0.3801 0.4715
Tb1A Tb 0.475190(16) -0.07225(4) 0.227170(11)
O1A O 0.5239(2) 0.6248(5) 0.19992(18)
O4A O 0.6132(2) 0.6228(5) 0.32487(18)
O5A O 0.4501(2) 0.6847(5) 0.28476(16)
loop_
_geom_bond_atom_site_label_1
_geom_bond_atom_site_label_2
_geom_bond_site_symmetry_1
_geom_bond_site_symmetry_2
Tb1 O1 1_555 1_555
N1 C37 1_555 1_555
O1 C1 1_555 1_555
O2 Tb1 1_555 1_555
O3 Tb1 1_555 1_555
O4 C13 1_555 1_555
O5 Tb1 1_555 1_555
O6 Tb1 1_555 1_555
O7 Tb1 1_555 1_555
C1 O2 1_555 1_555
C2 C1 1_555 1_555
H1 C2 1_555 1_555
H2 C2 1_555 1_555
C3 C2 1_555 1_555
C4 C3 1_555 1_555
H3 C4 1_555 1_555
C5 C4 1_555 1_555
H4 C5 1_555 1_555
C6 C5 1_555 1_555
H5 C6 1_555 1_555
C7 C6 1_555 1_555
C8 C3 1_555 1_555
C9 C8 1_555 1_555
H6 C9 1_555 1_555
C10 C9 1_555 1_555
H7 C10 1_555 1_555
C11 C10 1_555 1_555
H8 C11 1_555 1_555
C12 C7 1_555 1_555
H9 C12 1_555 1_555
C13 O3 1_555 1_555
C14 C13 1_555 1_555
H10 C14 1_555 1_555
H11 C14 1_555 1_555
C15 C14 1_555 1_555
C16 C15 1_555 1_555
H12 C16 1_555 1_555
C17 C16 1_555 1_555
H13 C17 1_555 1_555
C18 C17 1_555 1_555
H14 C18 1_555 1_555
C19 C18 1_555 1_555
C20 C15 1_555 1_555
C21 C20 1_555 1_555
H15 C21 1_555 1_555
C22 C21 1_555 1_555
H16 C22 1_555 1_555
C23 C22 1_555 1_555
H17 C23 1_555 1_555
C24 C19 1_555 1_555
H18 C24 1_555 1_555
C25 O5 1_555 1_555
C26 C25 1_555 1_555
H19 C26 1_555 1_555
H20 C26 1_555 1_555
C27 C26 1_555 1_555
C28 C27 1_555 1_555
H21 C28 1_555 1_555
C29 C28 1_555 1_555
H22 C29 1_555 1_555
C30 C29 1_555 1_555
H23 C30 1_555 1_555
C31 C30 1_555 1_555
C32 C27 1_555 1_555
C33 C32 1_555 1_555
H24 C33 1_555 1_555
C34 C33 1_555 1_555
H25 C34 1_555 1_555
C35 C34 1_555 1_555
H26 C35 1_555 1_555
C36 C31 1_555 1_555
H27 C36 1_555 1_555
C37 O7 1_555 1_555
H28 C37 1_555 1_555
C38 N1 1_555 1_555
H29 C38 1_555 1_555
H30 C38 1_555 1_555
H31 C38 1_555 1_555
C39 N1 1_555 1_555
H32 C39 1_555 1_555
H33 C39 1_555 1_555
H34 C39 1_555 1_555
Tb1A O1 1_555 1_555
O1A Tb1 1_555 1_555
O4A Tb1 1_555 1_555
O5A Tb1 1_555 1_555
O4 Tb1A 1_555 1_555
O5 Tb1A 1_555 1_555
O6 C25 1_555 1_555
C7 C8 1_555 1_555
C11 C12 1_555 1_555
C19 C20 1_555 1_555
C23 C24 1_555 1_555
C31 C32 1_555 1_555
C35 C36 1_555 1_555

#END
