
#######################################################################
#
#                 Cambridge Crystallographic Data Centre
#                                CCDC 
#
#######################################################################
#
# If this CIF has been generated from an entry in the Cambridge 
# Structural Database, then it will include bibliographic, chemical, 
# crystal, experimental, refinement or atomic coordinate data resulting 
# from the CCDC's data processing and validation procedures.
#
#######################################################################

data_VOHVIY
_symmetry_cell_setting           orthorhombic
_symmetry_space_group_name_H-M   'P c c n'
_symmetry_Int_Tables_number      56
_space_group_name_Hall           '-P 2ab 2ac'
loop_
_symmetry_equiv_pos_site_id
_symmetry_equiv_pos_as_xyz
1 x,y,z
2 1/2-x,1/2-y,z
3 -x,1/2+y,1/2-z
4 1/2+x,-y,1/2-z
5 -x,-y,-z
6 1/2+x,1/2+y,-z
7 x,1/2-y,1/2+z
8 1/2-x,y,1/2+z
_cell_length_a                   21.672(3)
_cell_length_b                   6.8533(8)
_cell_length_c                   19.860(3)
_cell_angle_alpha                90
_cell_angle_beta                 90
_cell_angle_gamma                90
_cell_volume                     2949.7
loop_
_atom_site_label
_atom_site_type_symbol
_atom_site_fract_x
_atom_site_fract_y
_atom_site_fract_z
Cu1 Cu 0.7500 0.7500 0.559997(19)
S1 S 0.7500 0.2500 0.60744(4)
O1 O 0.39746(9) 0.8422(3) 0.20721(9)
O2 O 0.73015(9) 0.4141(3) 0.56593(9)
O3 O 0.69854(8) 0.1865(3) 0.65199(9)
O4 O 0.68578(8) 0.7952(2) 0.63128(9)
H1 H 0.6886 0.9077 0.6453
H2 H 0.6925 0.7125 0.6601
N1 N 0.68294(9) 0.7831(3) 0.49032(10)
N2 N 0.42947(9) 0.8330(3) 0.31661(10)
H3 H 0.3915 0.8317 0.3292
N3 N 0.52884(13) 0.8349(4) 0.10367(12)
C1 C 0.67866(13) 0.9364(4) 0.44882(13)
H4 H 0.7090 1.0323 0.4509
C2 C 0.63105(12) 0.9583(4) 0.40299(14)
H5 H 0.6300 1.0665 0.3747
C3 C 0.58505(11) 0.8190(4) 0.39931(12)
C4 C 0.58919(13) 0.6623(4) 0.44327(14)
H6 H 0.5590 0.5659 0.4430
C5 C 0.63819(12) 0.6500(4) 0.48731(14)
H7 H 0.6401 0.5437 0.5163
C6 C 0.53443(11) 0.8312(4) 0.34882(12)
C7 C 0.54932(11) 0.8372(4) 0.27966(12)
H8 H 0.5906 0.8407 0.2670
C8 C 0.50482(11) 0.8381(4) 0.23072(11)
C9 C 0.44027(11) 0.8380(4) 0.24792(12)
C10 C 0.47276(11) 0.8298(4) 0.36634(12)
C11 C 0.44750(13) 0.8324(5) 0.43639(13)
H9 H 0.4237 0.9490 0.4430
H10 H 0.4809 0.8295 0.4681
H11 H 0.4216 0.7204 0.4431
C12 C 0.51933(12) 0.8364(4) 0.16012(13)
Cu1_2 Cu 0.7500 -0.2500 0.559997(19)
O1A O 1.10254(9) 0.6578(3) 0.20721(9)
O2A O 0.76985(9) 0.0859(3) 0.56593(9)
O2A_2 O 0.76985(9) 1.0859(3) 0.56593(9)
O3A O 0.80146(8) 0.3135(3) 0.65199(9)
O4A O 0.81422(8) 0.7048(2) 0.63128(9)
H1A H 0.8114 0.5923 0.6453
H2A H 0.8075 0.7875 0.6601
N1A N 0.81706(9) 0.7169(3) 0.49032(10)
N2A N 1.07053(9) 0.6670(3) 0.31661(10)
H3A H 1.1085 0.6683 0.3292
N3A N 0.97116(13) 0.6651(4) 0.10367(12)
C1A C 0.82134(13) 0.5636(4) 0.44882(13)
H4A H 0.7910 0.4677 0.4509
C2A C 0.86895(12) 0.5417(4) 0.40299(14)
H5A H 0.8700 0.4335 0.3747
C3A C 0.91495(11) 0.6810(4) 0.39931(12)
C4A C 0.91081(13) 0.8377(4) 0.44327(14)
H6A H 0.9410 0.9341 0.4430
C5A C 0.86181(12) 0.8500(4) 0.48731(14)
H7A H 0.8599 0.9563 0.5163
C6A C 0.96557(11) 0.6688(4) 0.34882(12)
C7A C 0.95068(11) 0.6628(4) 0.27966(12)
H8A H 0.9094 0.6593 0.2670
C8A C 0.99518(11) 0.6619(4) 0.23072(11)
C9A C 1.05973(11) 0.6620(4) 0.24792(12)
C10A C 1.02724(11) 0.6702(4) 0.36634(12)
C11A C 1.05250(13) 0.6676(5) 0.43639(13)
H9A H 1.0763 0.5510 0.4430
H10A H 1.0191 0.6705 0.4681
H11A H 1.0784 0.7796 0.4431
C12A C 0.98067(12) 0.6636(4) 0.16012(13)
O5 O 0.69067(10) 0.5382(3) 0.73479(10)
H12 H 0.7171 0.5327 0.7654
H13 H 0.6888 0.4332 0.7139
O6 O 0.78398(17) 0.0151(9) 0.32780(19)
H14 H 0.7713 0.1316 0.3329
H15 H 0.8145 0.0156 0.3023
loop_
_geom_bond_atom_site_label_1
_geom_bond_atom_site_label_2
_geom_bond_site_symmetry_1
_geom_bond_site_symmetry_2
Cu1 O2 1_555 1_555
S1 O2 1_555 1_555
O1 C9 1_555 1_555
O3 S1 1_555 1_555
O4 Cu1 1_555 1_555
H1 O4 1_555 1_555
H2 O4 1_555 1_555
N1 Cu1 1_555 1_555
N2 H3 1_555 1_555
N3 C12 1_555 1_555
C1 N1 1_555 1_555
H4 C1 1_555 1_555
C2 C1 1_555 1_555
H5 C2 1_555 1_555
C3 C2 1_555 1_555
C4 C3 1_555 1_555
H6 C4 1_555 1_555
C5 N1 1_555 1_555
H7 C5 1_555 1_555
C6 C3 1_555 1_555
C7 C6 1_555 1_555
H8 C7 1_555 1_555
C8 C7 1_555 1_555
C9 N2 1_555 1_555
C10 N2 1_555 1_555
C11 C10 1_555 1_555
H9 C11 1_555 1_555
H10 C11 1_555 1_555
H11 C11 1_555 1_555
C12 C8 1_555 1_555
O5 H12 1_555 1_555
H13 O5 1_555 1_555
O6 H14 1_555 1_555
H15 O6 1_555 1_555
Cu1_2 O2A 1_555 1_555
O1A C9A 1_555 1_555
O2A S1 1_555 1_555
O2A_2 Cu1 1_555 1_555
O3A S1 1_555 1_555
O4A Cu1 1_555 1_555
H1A O4A 1_555 1_555
H2A O4A 1_555 1_555
N1A Cu1 1_555 1_555
N2A H3A 1_555 1_555
N3A C12A 1_555 1_555
C1A N1A 1_555 1_555
H4A C1A 1_555 1_555
C2A C1A 1_555 1_555
H5A C2A 1_555 1_555
C3A C2A 1_555 1_555
C4A C3A 1_555 1_555
H6A C4A 1_555 1_555
C5A N1A 1_555 1_555
H7A C5A 1_555 1_555
C6A C3A 1_555 1_555
C7A C6A 1_555 1_555
H8A C7A 1_555 1_555
C8A C7A 1_555 1_555
C9A N2A 1_555 1_555
C10A N2A 1_555 1_555
C11A C10A 1_555 1_555
H9A C11A 1_555 1_555
H10A C11A 1_555 1_555
H11A C11A 1_555 1_555
C12A C8A 1_555 1_555
C4 C5 1_555 1_555
C6 C10 1_555 1_555
C8 C9 1_555 1_555
C4A C5A 1_555 1_555
C6A C10A 1_555 1_555
C8A C9A 1_555 1_555

#END
