
#######################################################################
#
#                 Cambridge Crystallographic Data Centre
#                                CCDC 
#
#######################################################################
#
# If this CIF has been generated from an entry in the Cambridge 
# Structural Database, then it will include bibliographic, chemical, 
# crystal, experimental, refinement or atomic coordinate data resulting 
# from the CCDC's data processing and validation procedures.
#
#######################################################################

data_VOJNAK
_symmetry_cell_setting           monoclinic
_symmetry_space_group_name_H-M   'P 21/c'
_symmetry_Int_Tables_number      14
_space_group_name_Hall           '-P 2ybc'
loop_
_symmetry_equiv_pos_site_id
_symmetry_equiv_pos_as_xyz
1 x,y,z
2 -x,1/2+y,1/2-z
3 -x,-y,-z
4 x,1/2-y,1/2+z
_cell_length_a                   10.402(2)
_cell_length_b                   12.459(3)
_cell_length_c                   10.185(2)
_cell_angle_alpha                90
_cell_angle_beta                 93.99(3)
_cell_angle_gamma                90
_cell_volume                     1316.76
loop_
_atom_site_label
_atom_site_type_symbol
_atom_site_fract_x
_atom_site_fract_y
_atom_site_fract_z
C1 C -0.2499(9) -0.3647(6) 0.1848(12)
H1 H -0.2738 -0.2915 0.1996
H2 H -0.3161 -0.3990 0.1292
H3 H -0.2397 -0.4018 0.2674
C2 C 0.3000(5) -0.1831(4) 0.2220(6)
C3 C 0.4288(5) -0.1474(4) 0.1795(6)
C4 C 0.4687(6) -0.1718(6) 0.0562(7)
H4 H 0.4163 -0.2140 -0.0007
C5 C 0.5842(8) -0.1349(6) 0.0159(7)
H5 H 0.6078 -0.1496 -0.0686
C6 C 0.6660(6) -0.0751(5) 0.1027(7)
H6 H 0.7465 -0.0536 0.0780
C7 C 0.5074(5) -0.0849(4) 0.2640(5)
H7 H 0.4809 -0.0672 0.3467
C8 C 0.6267(5) -0.0481(4) 0.2257(6)
C9 C 0.7096(5) 0.0191(4) 0.3191(6)
C10 C -0.1249(5) -0.3675(4) 0.1189(6)
O1 O 0.2280(4) -0.2343(3) 0.1387(5)
O2 O 0.2722(4) -0.1606(3) 0.3343(4)
O3 O -0.0188(4) -0.3678(3) -0.1997(5)
O4 O 0.0845(5) -0.1720(3) -0.0889(5)
O5 O 0.6692(4) 0.0507(3) 0.4237(4)
O6 O 0.8249(3) 0.0422(3) 0.2896(4)
O7 O -0.0930(4) -0.4520(3) 0.0626(4)
O9 O -0.0553(4) -0.2867(3) 0.1160(4)
Sm1 Sm 0.12580(2) -0.360240(18) -0.00436(3)
H8 H -0.072(4) -0.419(3) -0.211(5)
H9 H 0.066(13) -0.116(4) -0.047(10)
H10 H 0.121(7) -0.139(5) -0.149(6)
H11 H -0.052(6) -0.330(4) -0.263(5)
O2C O 0.2722(4) -0.3394(3) -0.1657(4)
O5A O 0.3308(4) -0.4493(3) 0.0763(4)
O6A O 0.1751(3) -0.4578(3) 0.2104(4)
O7B O 0.0930(4) -0.5480(3) -0.0626(4)
Sm1C Sm 0.12580(2) -0.139760(18) 0.49564(3)
Sm1A Sm 0.87420(2) 0.139760(18) 0.50436(3)
Sm1B Sm -0.12580(2) -0.639760(18) 0.00436(3)
O8 O 0.9035(12) -0.5044(8) -0.5949(13)
loop_
_geom_bond_atom_site_label_1
_geom_bond_atom_site_label_2
_geom_bond_site_symmetry_1
_geom_bond_site_symmetry_2
C1 H1 1_555 1_555
H2 C1 1_555 1_555
H3 C1 1_555 1_555
C2 C3 1_555 1_555
C3 C4 1_555 1_555
C4 H4 1_555 1_555
C5 C4 1_555 1_555
H5 C5 1_555 1_555
C6 C5 1_555 1_555
H6 C6 1_555 1_555
C7 C3 1_555 1_555
H7 C7 1_555 1_555
C8 C6 1_555 1_555
C9 C8 1_555 1_555
C10 C1 1_555 1_555
O1 C2 1_555 1_555
O2 C2 1_555 1_555
O3 Sm1 1_555 1_555
O4 Sm1 1_555 1_555
O5 C9 1_555 1_555
O6 C9 1_555 1_555
O7 C10 1_555 1_555
O9 C10 1_555 1_555
Sm1 O1 1_555 1_555
H8 O3 1_555 1_555
H9 O4 1_555 1_555
H10 O4 1_555 1_555
H11 O3 1_555 1_555
O2C Sm1 1_555 1_555
O5A Sm1 1_555 1_555
O6A Sm1 1_555 1_555
O7B Sm1 1_555 1_555
Sm1C O2 1_555 1_555
Sm1A O5 1_555 1_555
Sm1B O7 1_555 1_555
C7 C8 1_555 1_555
O6 Sm1A 1_555 1_555
O7 Sm1 1_555 1_555
O9 Sm1 1_555 1_555
O7B Sm1B 1_555 1_555

#END
