
#######################################################################
#
#                 Cambridge Crystallographic Data Centre
#                                CCDC 
#
#######################################################################
#
# If this CIF has been generated from an entry in the Cambridge 
# Structural Database, then it will include bibliographic, chemical, 
# crystal, experimental, refinement or atomic coordinate data resulting 
# from the CCDC's data processing and validation procedures.
#
#######################################################################

data_VOJNEP
_symmetry_cell_setting           monoclinic
_symmetry_space_group_name_H-M   'P 21/c'
_symmetry_Int_Tables_number      14
_space_group_name_Hall           '-P 2ybc'
loop_
_symmetry_equiv_pos_site_id
_symmetry_equiv_pos_as_xyz
1 x,y,z
2 -x,1/2+y,1/2-z
3 -x,-y,-z
4 x,1/2-y,1/2+z
_cell_length_a                   17.0997(11)
_cell_length_b                   27.7353(19)
_cell_length_c                   20.6163(13)
_cell_angle_alpha                90
_cell_angle_beta                 97.468(2)
_cell_angle_gamma                90
_cell_volume                     9694.66
loop_
_atom_site_label
_atom_site_type_symbol
_atom_site_fract_x
_atom_site_fract_y
_atom_site_fract_z
Cl2 Cl 0.27852(9) 0.23322(9) 0.30108(8)
Cl3 Cl -0.68651(11) 0.30001(9) 0.59643(11)
Cl4 Cl -0.6610(3) 0.1700(2) 0.8207(2)
Cl5 Cl -0.5362(4) 0.0480(2) 0.6947(3)
Cl6 Cl 0.39760(7) 0.03674(4) 0.53749(7)
Cl7 Cl 0.17926(7) 0.02963(5) 0.55808(7)
Cl8 Cl 0.25987(7) 0.12395(5) 0.45695(7)
Cl9 Cl 0.30836(7) 0.12177(4) 0.64187(6)
Co1 Co 0.28438(3) 0.07784(2) 0.54922(3)
O1 O -0.4105(2) 0.29040(11) 0.74474(16)
O2 O -0.53713(19) 0.14746(12) 0.74851(15)
O3 O -0.3400(2) 0.22312(13) 0.66226(17)
O4 O -0.35771(18) 0.15959(12) 0.76071(15)
O5 O -0.58594(18) 0.24799(14) 0.71516(16)
O6 O 0.10536(17) 0.14949(11) 0.36133(14)
O7 O -0.07092(18) 0.16157(12) 0.34774(14)
O8 O -0.0930(2) 0.22803(15) 0.44400(18)
O9 O -0.0151(3) 0.29527(13) 0.36426(16)
O10 O 0.15446(18) 0.24478(13) 0.39315(16)
Gd1 Gd -0.457416(12) 0.213011(7) 0.714500(9)
Gd2 Gd 0.024989(12) 0.216054(7) 0.393851(10)
C1 C 0.0312(2) 0.36638(15) 0.7085(2)
H1 H 0.0719 0.3913 0.7094
H2 H 0.0152 0.3644 0.7524
C2 C -0.1117(3) 0.38174(16) 0.6789(2)
C3 C -0.2358(2) 0.42401(16) 0.6424(2)
H3 H -0.2460 0.4151 0.6865
H4 H -0.2352 0.4593 0.6398
C4 C -0.3580(3) 0.37800(15) 0.6143(2)
C5 C -0.4939(2) 0.35734(14) 0.5717(2)
H5 H -0.5343 0.3818 0.5586
H6 H -0.4960 0.3497 0.6178
C6 C -0.5844(2) 0.19403(15) 0.5329(2)
H7 H -0.6342 0.1870 0.5054
H8 H -0.5951 0.1955 0.5784
C7 C -0.4742(2) 0.13989(14) 0.57548(19)
C8 C -0.3769(2) 0.07419(16) 0.5948(2)
H9 H -0.3922 0.0408 0.5841
H10 H -0.3857 0.0801 0.6402
C9 C -0.2411(2) 0.09211(15) 0.6422(2)
C10 C -0.0989(2) 0.07878(15) 0.67734(19)
H11 H -0.0797 0.0455 0.6815
H12 H -0.1155 0.0881 0.7193
C11 C -0.0088(2) 0.14708(15) 0.70434(19)
C12 C 0.0592(2) 0.28033(14) 0.7296(2)
C13 C 0.1103(3) 0.19631(15) 0.73186(19)
H13 H 0.0941 0.1960 0.7757
H14 H 0.1660 0.1869 0.7360
C14 C 0.1468(2) 0.26245(14) 0.65406(19)
H15 H 0.2044 0.2610 0.6680
C15 C 0.1179(2) 0.31467(14) 0.64449(19)
H16 H 0.1622 0.3379 0.6509
C16 C -0.0313(2) 0.40663(14) 0.60308(19)
H17 H 0.0077 0.4331 0.6100
C17 C -0.1147(2) 0.42599(15) 0.5827(2)
H18 H -0.1161 0.4617 0.5831
C18 C -0.3206(2) 0.42660(14) 0.5316(2)
H19 H -0.3190 0.4623 0.5334
C19 C -0.4051(2) 0.40796(14) 0.51016(19)
H20 H -0.4437 0.4347 0.5039
C20 C -0.5508(2) 0.31512(14) 0.46569(19)
H21 H -0.5954 0.3382 0.4599
C21 C -0.4925(2) 0.28263(14) 0.37896(19)
C22 C -0.5787(2) 0.26212(14) 0.45376(19)
H22 H -0.6364 0.2604 0.4406
C23 C -0.5185(2) 0.13245(14) 0.46415(19)
H23 H -0.5669 0.1154 0.4450
C24 C -0.4490(2) 0.09715(14) 0.48317(19)
H24 H -0.4646 0.0632 0.4743
C25 C -0.2568(2) 0.05607(15) 0.53901(18)
H25 H -0.2781 0.0232 0.5299
C26 C -0.1701(2) 0.05497(14) 0.56609(18)
H26 H -0.1509 0.0214 0.5728
C27 C 0.0247(2) 0.09494(14) 0.62336(19)
H27 H 0.0414 0.0611 0.6320
C28 C 0.0929(2) 0.13085(14) 0.64225(19)
H28 H 0.1425 0.1143 0.6595
C29 C -0.1842(2) 0.09380(15) 0.4652(2)
C30 C -0.0490(2) 0.07276(15) 0.5121(2)
H29 H -0.0346 0.0392 0.5227
H30 H -0.0402 0.0785 0.4667
C31 C 0.0444(2) 0.13998(14) 0.53173(18)
C32 C 0.1526(2) 0.19523(15) 0.5731(2)
H31 H 0.2033 0.1883 0.5995
H32 H 0.1620 0.1969 0.5273
C33 C 0.0858(2) 0.27162(14) 0.5481(2)
C34 C 0.0583(2) 0.35807(15) 0.5395(2)
H33 H 0.0979 0.3830 0.5524
H34 H 0.0594 0.3511 0.4930
C35 C -0.0778(3) 0.37832(15) 0.4983(2)
C36 C -0.1996(2) 0.42613(16) 0.4720(2)
H35 H -0.1895 0.4183 0.4275
H36 H -0.1995 0.4613 0.4762
C37 C -0.3245(3) 0.38516(15) 0.4327(2)
C38 C -0.4657(2) 0.36888(15) 0.40301(19)
H37 H -0.5074 0.3931 0.4035
H38 H -0.4500 0.3684 0.3590
C39 C -0.5387(2) 0.19763(15) 0.37696(19)
H39 H -0.5933 0.1862 0.3733
H40 H -0.5229 0.1974 0.3329
C40 C -0.5177(2) 0.27006(15) 0.5611(2)
C41 C -0.3261(2) 0.08350(15) 0.4281(2)
H41 H -0.3089 0.0948 0.3872
H42 H -0.3445 0.0502 0.4213
C42 C -0.4164(2) 0.15073(15) 0.4036(2)
N1 N -0.13167(19) 0.07913(12) 0.51690(16)
N2 N -0.25864(19) 0.08433(12) 0.47981(16)
N3 N -0.3906(2) 0.11304(12) 0.44317(16)
N4 N -0.4890(2) 0.16426(12) 0.41749(16)
N5 N -0.53573(19) 0.24671(11) 0.40097(16)
N6 N -0.4971(2) 0.32204(12) 0.41689(16)
N7 N -0.3985(2) 0.38288(12) 0.44945(16)
N8 N 0.10208(19) 0.24474(12) 0.70576(16)
N9 N -0.2772(2) 0.40818(13) 0.48123(17)
N10 N -0.1370(2) 0.40680(12) 0.51756(16)
N11 N -0.0178(2) 0.37646(13) 0.54791(16)
N12 N 0.0794(2) 0.31461(12) 0.57728(16)
N13 N 0.12620(19) 0.24071(12) 0.59151(15)
N14 N 0.09871(19) 0.15497(11) 0.58039(16)
N15 N 0.00195(19) 0.10387(12) 0.55408(16)
N16 N 0.06370(19) 0.16120(12) 0.69127(16)
N17 N -0.0344(2) 0.10997(12) 0.66399(16)
N18 N -0.16631(19) 0.08055(12) 0.62762(16)
N19 N -0.29408(19) 0.07994(12) 0.58976(16)
N20 N -0.42687(19) 0.10607(12) 0.55235(16)
N21 N -0.52811(19) 0.15470(11) 0.52601(16)
N22 N -0.5565(2) 0.23876(12) 0.51518(15)
N23 N -0.51252(19) 0.31387(11) 0.53261(15)
N24 N -0.4185(2) 0.37702(12) 0.56508(16)
N25 N -0.2987(2) 0.40572(13) 0.59548(17)
N26 N -0.1587(2) 0.40549(13) 0.63154(17)
N27 N -0.0370(2) 0.38081(13) 0.66227(16)
N28 N 0.06474(19) 0.32068(12) 0.69296(16)
O11 O -0.49373(16) 0.26024(10) 0.61811(13)
O12 O -0.47005(17) 0.15283(10) 0.63320(13)
O13 O -0.25482(17) 0.10907(12) 0.69410(15)
O14 O -0.04608(17) 0.16461(11) 0.74524(14)
O15 O 0.02215(17) 0.27625(10) 0.77722(13)
O16 O -0.13303(18) 0.36372(12) 0.72806(15)
O17 O -0.35710(19) 0.35837(12) 0.66736(15)
O18 O -0.45603(17) 0.27971(9) 0.33096(13)
O19 O -0.38016(17) 0.16959(11) 0.36286(14)
O20 O -0.16881(17) 0.11115(12) 0.41413(15)
O21 O 0.03556(17) 0.15578(10) 0.47556(14)
O22 O 0.06100(17) 0.26252(10) 0.48999(14)
O23 O -0.08021(19) 0.35894(12) 0.44437(15)
O24 O -0.30294(18) 0.36977(12) 0.38184(14)
Gd1C Gd -0.457416(12) 0.286989(7) 0.214500(9)
Gd2C Gd 0.024989(12) 0.283946(7) 0.893851(10)
O15C O 0.02215(17) 0.22375(10) 0.27722(13)
O18C O -0.45603(17) 0.22029(9) 0.83096(13)
Cl1 Cl 0.03491(10) 0.04500(5) 0.35827(8)
loop_
_geom_bond_atom_site_label_1
_geom_bond_atom_site_label_2
_geom_bond_site_symmetry_1
_geom_bond_site_symmetry_2
Cl6 Co1 1_555 1_555
Cl7 Co1 1_555 1_555
Cl8 Co1 1_555 1_555
Cl9 Co1 1_555 1_555
O1 Gd1 1_555 1_555
O2 Gd1 1_555 1_555
O3 Gd1 1_555 1_555
O4 Gd1 1_555 1_555
O5 Gd1 1_555 1_555
O6 Gd2 1_555 1_555
O7 Gd2 1_555 1_555
O8 Gd2 1_555 1_555
O9 Gd2 1_555 1_555
O10 Gd2 1_555 1_555
Gd1 O11 1_555 1_555
Gd2 O21 1_555 1_555
C1 H1 1_555 1_555
H2 C1 1_555 1_555
C2 N26 1_555 1_555
C3 H3 1_555 1_555
H4 C3 1_555 1_555
C4 N24 1_555 1_555
C5 H5 1_555 1_555
H6 C5 1_555 1_555
C6 H7 1_555 1_555
H8 C6 1_555 1_555
C7 N20 1_555 1_555
C8 H9 1_555 1_555
H10 C8 1_555 1_555
C9 N18 1_555 1_555
C10 H11 1_555 1_555
H12 C10 1_555 1_555
C11 N16 1_555 1_555
C12 N8 1_555 1_555
C13 H13 1_555 1_555
H14 C13 1_555 1_555
C14 H15 1_555 1_555
C15 C14 1_555 1_555
H16 C15 1_555 1_555
C16 H17 1_555 1_555
C17 C16 1_555 1_555
H18 C17 1_555 1_555
C18 H19 1_555 1_555
C19 C18 1_555 1_555
H20 C19 1_555 1_555
C20 H21 1_555 1_555
C21 N5 1_555 1_555
C22 C20 1_555 1_555
H22 C22 1_555 1_555
C23 H23 1_555 1_555
C24 C23 1_555 1_555
H24 C24 1_555 1_555
C25 H25 1_555 1_555
C26 C25 1_555 1_555
H26 C26 1_555 1_555
C27 H27 1_555 1_555
C28 C27 1_555 1_555
H28 C28 1_555 1_555
C29 N1 1_555 1_555
C30 H29 1_555 1_555
H30 C30 1_555 1_555
C31 N14 1_555 1_555
C32 H31 1_555 1_555
H32 C32 1_555 1_555
C33 N12 1_555 1_555
C34 H33 1_555 1_555
H34 C34 1_555 1_555
C35 N10 1_555 1_555
C36 H35 1_555 1_555
H36 C36 1_555 1_555
C37 N7 1_555 1_555
C38 H37 1_555 1_555
H38 C38 1_555 1_555
C39 H39 1_555 1_555
H40 C39 1_555 1_555
C40 N22 1_555 1_555
C41 H41 1_555 1_555
H42 C41 1_555 1_555
C42 N3 1_555 1_555
N1 C26 1_555 1_555
N2 C25 1_555 1_555
N3 C24 1_555 1_555
N4 C23 1_555 1_555
N5 C22 1_555 1_555
N6 C20 1_555 1_555
N7 C19 1_555 1_555
N8 C13 1_555 1_555
N9 C18 1_555 1_555
N10 C17 1_555 1_555
N11 C16 1_555 1_555
N12 C15 1_555 1_555
N13 C14 1_555 1_555
N14 C28 1_555 1_555
N15 C27 1_555 1_555
N16 C13 1_555 1_555
N17 C10 1_555 1_555
N18 C10 1_555 1_555
N19 C8 1_555 1_555
N20 C8 1_555 1_555
N21 C6 1_555 1_555
N22 C6 1_555 1_555
N23 C5 1_555 1_555
N24 C5 1_555 1_555
N25 C3 1_555 1_555
N26 C3 1_555 1_555
N27 C1 1_555 1_555
N28 C1 1_555 1_555
O11 C40 1_555 1_555
O12 Gd1 1_555 1_555
O13 C9 1_555 1_555
O14 C11 1_555 1_555
O15 C12 1_555 1_555
O16 C2 1_555 1_555
O17 C4 1_555 1_555
O18 C21 1_555 1_555
O19 C42 1_555 1_555
O20 C29 1_555 1_555
O21 C31 1_555 1_555
O22 Gd2 1_555 1_555
O23 C35 1_555 1_555
O24 C37 1_555 1_555
Gd1C O18 1_555 1_555
Gd2C O15 1_555 1_555
O15C Gd2 1_555 1_555
O18C Gd1 1_555 1_555
C2 N27 1_555 1_555
C4 N25 1_555 1_555
C7 N21 1_555 1_555
C7 O12 1_555 1_555
C9 N19 1_555 1_555
C11 N17 1_555 1_555
C12 N28 1_555 1_555
C14 N8 1_555 1_555
C15 N28 1_555 1_555
C16 N27 1_555 1_555
C17 N26 1_555 1_555
C18 N25 1_555 1_555
C19 N24 1_555 1_555
C20 N23 1_555 1_555
C21 N6 1_555 1_555
C22 N22 1_555 1_555
C23 N21 1_555 1_555
C24 N20 1_555 1_555
C25 N19 1_555 1_555
C26 N18 1_555 1_555
C27 N17 1_555 1_555
C28 N16 1_555 1_555
C29 N2 1_555 1_555
C30 N1 1_555 1_555
C30 N15 1_555 1_555
C31 N15 1_555 1_555
C32 N13 1_555 1_555
C32 N14 1_555 1_555
C33 N13 1_555 1_555
C33 O22 1_555 1_555
C34 N11 1_555 1_555
C34 N12 1_555 1_555
C35 N11 1_555 1_555
C36 N9 1_555 1_555
C36 N10 1_555 1_555
C37 N9 1_555 1_555
C38 N6 1_555 1_555
C38 N7 1_555 1_555
C39 N4 1_555 1_555
C39 N5 1_555 1_555
C40 N23 1_555 1_555
C41 N2 1_555 1_555
C41 N3 1_555 1_555
C42 N4 1_555 1_555

#END
