
#######################################################################
#
#                 Cambridge Crystallographic Data Centre
#                                CCDC 
#
#######################################################################
#
# If this CIF has been generated from an entry in the Cambridge 
# Structural Database, then it will include bibliographic, chemical, 
# crystal, experimental, refinement or atomic coordinate data resulting 
# from the CCDC's data processing and validation procedures.
#
#######################################################################

data_VOJPER
_symmetry_cell_setting           triclinic
_symmetry_space_group_name_H-M   'P -1'
_symmetry_Int_Tables_number      2
_space_group_name_Hall           '-P 1'
loop_
_symmetry_equiv_pos_site_id
_symmetry_equiv_pos_as_xyz
1 x,y,z
2 -x,-y,-z
_cell_length_a                   17.1376(9)
_cell_length_b                   17.4128(8)
_cell_length_c                   18.4104(9)
_cell_angle_alpha                103.314(2)
_cell_angle_beta                 103.349(2)
_cell_angle_gamma                110.196(2)
_cell_volume                     4718.9
loop_
_atom_site_label
_atom_site_type_symbol
_atom_site_fract_x
_atom_site_fract_y
_atom_site_fract_z
Cl2 Cl 0.61511(17) 0.08915(15) 0.62599(13)
Cl3 Cl 0.1124(3) -0.2723(3) 1.12843(18)
Cl4 Cl 0.3471(4) 0.1067(3) 0.5101(3)
O1 O -0.1046(4) -0.3453(4) 0.4468(4)
O2 O 0.2463(3) 0.1800(3) 0.9814(3)
O3 O 0.4060(3) 0.1684(3) 0.9588(3)
O4 O 0.2041(3) 0.1000(4) 1.0980(3)
O5 O 0.3238(4) -0.0041(3) 1.1140(3)
O6 O 0.3998(4) 0.0122(4) 0.9887(4)
O7 O 0.5064(3) 0.1653(4) 1.1263(3)
O8 O -0.1747(3) -0.5241(3) 0.6029(3)
O9 O -0.2464(3) -0.3905(3) 0.6353(3)
O10 O -0.2101(3) -0.5609(3) 0.4155(3)
O11 O -0.2217(4) -0.2933(4) 0.5342(3)
O12 O -0.0443(3) -0.4428(4) 0.5337(3)
La1 La 0.34352(2) 0.12037(2) 1.05990(2)
La2 La -0.18935(2) -0.42884(2) 0.51969(2)
C1 C 0.1527(4) -0.0519(4) 0.8890(3)
C2 C 0.0289(4) -0.0984(4) 0.7763(3)
H1 H -0.0084 -0.0659 0.7731
C3 C 0.0071(4) -0.1581(4) 0.8258(3)
H2 H -0.0417 -0.1549 0.8446
C4 C -0.0237(4) -0.2429(4) 0.6970(3)
C5 C 0.0987(4) -0.1496(4) 0.9615(3)
H3 H 0.0453 -0.1576 0.9756
H4 H 0.1490 -0.1028 1.0061
C6 C -0.0622(4) -0.3228(4) 0.7877(3)
H5 H -0.0997 -0.3699 0.7371
H6 H -0.1005 -0.3134 0.8175
C7 C 0.1910(4) -0.2305(4) 0.9802(3)
C8 C 0.0378(4) -0.3156(4) 0.9178(4)
H7 H -0.0080 -0.3187 0.9429
C9 C 0.0829(4) -0.3755(4) 0.9366(3)
H8 H 0.0644 -0.4019 0.9755
C10 C 0.0065(4) -0.4240(4) 0.7997(4)
C11 C 0.2455(4) -0.3380(4) 1.0099(4)
H9 H 0.2961 -0.2843 1.0463
H10 H 0.2215 -0.3717 1.0417
C12 C 0.0676(4) -0.5198(4) 0.8471(4)
H11 H 0.0551 -0.5429 0.8889
H12 H 0.0240 -0.5623 0.7961
C13 C 0.3620(4) -0.3585(4) 0.9639(3)
C14 C 0.2281(4) -0.4821(4) 0.9192(3)
H13 H 0.2104 -0.5110 0.9569
C15 C 0.2967(4) -0.5077(4) 0.8909(3)
H14 H 0.3067 -0.5532 0.9102
C16 C 0.1710(4) -0.5452(4) 0.7811(3)
C17 C 0.4631(4) -0.4221(4) 0.9294(3)
H15 H 0.5067 -0.3669 0.9704
H16 H 0.4695 -0.4694 0.9467
C18 C 0.2842(4) -0.5894(4) 0.7536(4)
H17 H 0.2357 -0.6237 0.7029
H18 H 0.2967 -0.6303 0.7778
C19 C 0.5460(4) -0.3615(4) 0.8495(3)
C20 C 0.4524(4) -0.5081(4) 0.7929(3)
H19 H 0.4615 -0.5534 0.8132
C21 C 0.5096(4) -0.4826(4) 0.7409(3)
H20 H 0.5435 -0.5180 0.7335
C22 C 0.3606(4) -0.5318(4) 0.6654(3)
C23 C 0.6299(4) -0.3386(4) 0.7582(3)
H21 H 0.6579 -0.3728 0.7338
H22 H 0.6761 -0.2894 0.8039
C24 C 0.4642(4) -0.4986(4) 0.5940(3)
H23 H 0.4138 -0.5454 0.5495
H24 H 0.5152 -0.5128 0.5975
C25 C 0.5964(4) -0.2228(4) 0.7232(4)
C26 C 0.5662(4) -0.3443(4) 0.6168(4)
H25 H 0.6145 -0.3561 0.6033
C27 C 0.5511(4) -0.2727(4) 0.5844(3)
H26 H 0.5877 -0.2553 0.5516
C28 C 0.4197(4) -0.3976(4) 0.5373(3)
C29 C 0.5835(4) -0.1166(4) 0.6593(4)
H27 H 0.6149 -0.0998 0.6233
H28 H 0.6205 -0.0761 0.7131
C30 C 0.4151(4) -0.2822(4) 0.4806(3)
H29 H 0.4571 -0.2580 0.4548
H30 H 0.3627 -0.3306 0.4394
C31 C 0.4841(4) -0.0513(4) 0.6886(4)
C32 C 0.4529(4) -0.1268(4) 0.5561(3)
H31 H 0.4921 -0.1064 0.5261
C33 C 0.3928(4) -0.0785(5) 0.5622(4)
H32 H 0.4039 -0.0350 0.5350
C34 C 0.3042(4) -0.2260(4) 0.4941(4)
C35 C 0.3970(4) 0.0346(5) 0.6790(4)
H33 H 0.4051 0.0723 0.6465
H34 H 0.4391 0.0688 0.7328
C36 C 0.2294(4) -0.1277(5) 0.4984(4)
H35 H 0.1829 -0.1795 0.4553
H36 H 0.2466 -0.0807 0.4764
C37 C 0.2914(4) 0.0233(4) 0.7516(4)
C38 C 0.2306(4) -0.0134(4) 0.6140(4)
H37 H 0.2417 0.0299 0.5866
C39 C 0.1579(4) -0.0151(4) 0.6521(3)
H38 H 0.1325 0.0258 0.6408
C40 C 0.1134(4) -0.1536(4) 0.5608(4)
C41 C 0.1710(4) 0.0334(4) 0.7984(4)
H39 H 0.2206 0.0767 0.8456
H40 H 0.1318 0.0605 0.7817
C42 C 0.0083(4) -0.1341(4) 0.6285(4)
H41 H -0.0346 -0.1842 0.5819
H42 H -0.0126 -0.0879 0.6327
N1 N 0.1228(3) -0.0398(3) 0.8196(3)
N2 N 0.0907(3) -0.1235(3) 0.8927(3)
N3 N 0.0113(3) -0.1588(3) 0.6985(3)
N4 N -0.0177(3) -0.2434(3) 0.7719(3)
N5 N 0.1109(3) -0.2289(3) 0.9507(3)
N6 N 0.1775(3) -0.3160(3) 0.9667(3)
N7 N -0.0006(3) -0.3495(3) 0.8323(3)
N8 N 0.0571(3) -0.4395(3) 0.8593(3)
N9 N 0.2749(3) -0.3870(3) 0.9580(3)
N10 N 0.3740(3) -0.4275(3) 0.9221(3)
N11 N 0.1537(3) -0.5106(3) 0.8473(3)
N12 N 0.2558(3) -0.5383(3) 0.8038(3)
N13 N 0.4819(3) -0.4276(3) 0.8555(3)
N14 N 0.5666(3) -0.3917(3) 0.7853(3)
N15 N 0.3619(3) -0.5396(3) 0.7381(3)
N16 N 0.4443(3) -0.4967(3) 0.6655(3)
N17 N 0.5905(3) -0.3052(3) 0.7007(3)
N18 N 0.5737(3) -0.2016(3) 0.6567(3)
N19 N 0.4834(3) -0.4186(3) 0.5767(3)
N20 N 0.4562(3) -0.3160(3) 0.5386(3)
N21 N 0.5021(3) -0.1072(3) 0.6382(3)
N22 N 0.4162(4) -0.0370(4) 0.6472(3)
N23 N 0.3896(3) -0.2166(4) 0.5156(3)
N24 N 0.3036(3) -0.1456(4) 0.5251(3)
N25 N 0.3064(3) 0.0074(4) 0.6815(3)
N26 N 0.2047(3) 0.0100(3) 0.7361(3)
N27 N 0.1932(3) -0.1028(3) 0.5591(3)
N28 N 0.0929(3) -0.1038(3) 0.6171(3)
O13 O 0.2247(3) -0.0042(3) 0.9417(2)
O14 O 0.2633(3) -0.1678(3) 1.0128(3)
O15 O 0.4190(3) -0.2855(3) 1.0019(3)
O16 O 0.5842(3) -0.2847(3) 0.8959(2)
O17 O 0.6227(3) -0.1730(3) 0.7918(2)
O18 O 0.5239(3) -0.0161(3) 0.7614(2)
O19 O 0.3465(3) 0.0465(3) 0.8165(3)
O20 O -0.0578(3) -0.3078(3) 0.6363(2)
O21 O -0.0247(3) -0.4703(3) 0.7297(3)
O22 O 0.1181(3) -0.5772(3) 0.7140(3)
O23 O 0.2935(3) -0.5564(3) 0.6092(2)
O24 O 0.3406(3) -0.4494(3) 0.5020(2)
O25 O 0.2377(3) -0.2945(3) 0.4543(3)
O26 O 0.0682(3) -0.2296(3) 0.5191(3)
La1A La 0.65648(2) -0.12037(2) 0.94010(2)
La2A La 0.18935(2) -0.57116(2) 0.48031(2)
O16A O 0.4158(3) 0.2847(3) 1.1041(2)
O17A O 0.3773(3) 0.1730(3) 1.2082(2)
O23A O -0.2935(3) -0.4436(3) 0.3908(2)
O24A O -0.3406(3) -0.5506(3) 0.4980(2)
Cl5 Cl 0.87045(11) -0.48799(12) 0.92229(12)
Cl6 Cl 0.81551(13) -0.30580(13) 0.91894(11)
Cl7 Cl 0.71175(12) -0.50940(13) 0.73862(11)
Cl8 Cl 0.63898(11) -0.51290(16) 0.91127(11)
Co1 Co 0.75700(6) -0.45412(7) 0.87358(6)
Cl1 Cl -0.20043(12) -0.19648(13) 0.71296(13)
loop_
_geom_bond_atom_site_label_1
_geom_bond_atom_site_label_2
_geom_bond_site_symmetry_1
_geom_bond_site_symmetry_2
O1 La2 1_555 1_555
O2 La1 1_555 1_555
O3 La1 1_555 1_555
O4 La1 1_555 1_555
O5 La1 1_555 1_555
O6 La1 1_555 1_555
O7 La1 1_555 1_555
O8 La2 1_555 1_555
O9 La2 1_555 1_555
O10 La2 1_555 1_555
O11 La2 1_555 1_555
O12 La2 1_555 1_555
La1 O13 1_555 1_555
La2 O20 1_555 1_555
C1 N1 1_555 1_555
C2 H1 1_555 1_555
C3 C2 1_555 1_555
H2 C3 1_555 1_555
C4 N3 1_555 1_555
C5 H3 1_555 1_555
H4 C5 1_555 1_555
C6 H5 1_555 1_555
H6 C6 1_555 1_555
C7 N5 1_555 1_555
C8 H7 1_555 1_555
C9 C8 1_555 1_555
H8 C9 1_555 1_555
C10 N7 1_555 1_555
C11 H9 1_555 1_555
H10 C11 1_555 1_555
C12 H11 1_555 1_555
H12 C12 1_555 1_555
C13 N9 1_555 1_555
C14 H13 1_555 1_555
C15 C14 1_555 1_555
H14 C15 1_555 1_555
C16 N11 1_555 1_555
C17 H15 1_555 1_555
H16 C17 1_555 1_555
C18 H17 1_555 1_555
H18 C18 1_555 1_555
C19 N13 1_555 1_555
C20 H19 1_555 1_555
C21 C20 1_555 1_555
H20 C21 1_555 1_555
C22 N15 1_555 1_555
C23 H21 1_555 1_555
H22 C23 1_555 1_555
C24 H23 1_555 1_555
H24 C24 1_555 1_555
C25 N17 1_555 1_555
C26 H25 1_555 1_555
C27 C26 1_555 1_555
H26 C27 1_555 1_555
C28 N19 1_555 1_555
C29 H27 1_555 1_555
H28 C29 1_555 1_555
C30 H29 1_555 1_555
H30 C30 1_555 1_555
C31 N21 1_555 1_555
C32 H31 1_555 1_555
C33 C32 1_555 1_555
H32 C33 1_555 1_555
C34 N23 1_555 1_555
C35 H33 1_555 1_555
H34 C35 1_555 1_555
C36 H35 1_555 1_555
H36 C36 1_555 1_555
C37 N25 1_555 1_555
C38 H37 1_555 1_555
C39 C38 1_555 1_555
H38 C39 1_555 1_555
C40 N27 1_555 1_555
C41 H39 1_555 1_555
H40 C41 1_555 1_555
C42 H41 1_555 1_555
H42 C42 1_555 1_555
N1 C2 1_555 1_555
N2 C1 1_555 1_555
N3 C2 1_555 1_555
N4 C3 1_555 1_555
N5 C5 1_555 1_555
N6 C7 1_555 1_555
N7 C6 1_555 1_555
N8 C9 1_555 1_555
N9 C11 1_555 1_555
N10 C13 1_555 1_555
N11 C12 1_555 1_555
N12 C15 1_555 1_555
N13 C17 1_555 1_555
N14 C19 1_555 1_555
N15 C18 1_555 1_555
N16 C21 1_555 1_555
N17 C23 1_555 1_555
N18 C25 1_555 1_555
N19 C24 1_555 1_555
N20 C27 1_555 1_555
N21 C29 1_555 1_555
N22 C31 1_555 1_555
N23 C30 1_555 1_555
N24 C33 1_555 1_555
N25 C35 1_555 1_555
N26 C37 1_555 1_555
N27 C36 1_555 1_555
N28 C39 1_555 1_555
O13 C1 1_555 1_555
O14 C7 1_555 1_555
O15 C13 1_555 1_555
O16 C19 1_555 1_555
O17 C25 1_555 1_555
O18 C31 1_555 1_555
O19 C37 1_555 1_555
O20 C4 1_555 1_555
O21 C10 1_555 1_555
O22 C16 1_555 1_555
O23 C22 1_555 1_555
O24 C28 1_555 1_555
O25 C34 1_555 1_555
O26 C40 1_555 1_555
Cl5 Co1 1_555 1_555
Cl6 Co1 1_555 1_555
Cl7 Co1 1_555 1_555
Cl8 Co1 1_555 1_555
La1A O16 1_555 1_555
La2A O23 1_555 1_555
O16A La1 1_555 1_555
O17A La1 1_555 1_555
O23A La2 1_555 1_555
O24A La2 1_555 1_555
C3 N2 1_555 1_555
C4 N4 1_555 1_555
C5 N2 1_555 1_555
C6 N4 1_555 1_555
C8 N5 1_555 1_555
C8 N7 1_555 1_555
C9 N6 1_555 1_555
C10 N8 1_555 1_555
C11 N6 1_555 1_555
C12 N8 1_555 1_555
C14 N9 1_555 1_555
C14 N11 1_555 1_555
C15 N10 1_555 1_555
C16 N12 1_555 1_555
C17 N10 1_555 1_555
C18 N12 1_555 1_555
C20 N13 1_555 1_555
C20 N15 1_555 1_555
C21 N14 1_555 1_555
C22 N16 1_555 1_555
C23 N14 1_555 1_555
C24 N16 1_555 1_555
C26 N17 1_555 1_555
C26 N19 1_555 1_555
C27 N18 1_555 1_555
C28 N20 1_555 1_555
C29 N18 1_555 1_555
C30 N20 1_555 1_555
C32 N21 1_555 1_555
C32 N23 1_555 1_555
C33 N22 1_555 1_555
C34 N24 1_555 1_555
C35 N22 1_555 1_555
C36 N24 1_555 1_555
C38 N25 1_555 1_555
C38 N27 1_555 1_555
C39 N26 1_555 1_555
C40 N28 1_555 1_555
C41 N1 1_555 1_555
C41 N26 1_555 1_555
C42 N3 1_555 1_555
C42 N28 1_555 1_555
O17 La1A 1_555 1_555
O24 La2A 1_555 1_555

#END
