
#######################################################################
#
#                 Cambridge Crystallographic Data Centre
#                                CCDC 
#
#######################################################################
#
# If this CIF has been generated from an entry in the Cambridge 
# Structural Database, then it will include bibliographic, chemical, 
# crystal, experimental, refinement or atomic coordinate data resulting 
# from the CCDC's data processing and validation procedures.
#
#######################################################################

data_VOJPUG
_symmetry_cell_setting           orthorhombic
_symmetry_space_group_name_H-M   'P n a 21'
_symmetry_Int_Tables_number      33
_space_group_name_Hall           'P 2c -2n'
loop_
_symmetry_equiv_pos_site_id
_symmetry_equiv_pos_as_xyz
1 x,y,z
2 -x,-y,1/2+z
3 1/2-x,1/2+y,1/2+z
4 1/2+x,1/2-y,z
_cell_length_a                   21.160(3)
_cell_length_b                   9.095(5)
_cell_length_c                   6.401(10)
_cell_angle_alpha                90
_cell_angle_beta                 90
_cell_angle_gamma                90
_cell_volume                     1231.87
loop_
_atom_site_label
_atom_site_type_symbol
_atom_site_fract_x
_atom_site_fract_y
_atom_site_fract_z
Cu1 Cu 0.411700(18) 0.39037(5) 0.47888(13)
O1 O 0.34747(14) 0.2932(4) 0.6537(5)
O2 O 0.33378(19) 0.1599(5) 0.3682(7)
O3 O 0.47330(14) 0.4366(4) 0.2615(6)
O4 O 0.57641(15) 0.4187(4) 0.1924(7)
N1 N 0.15664(16) 0.0002(4) 0.8337(6)
N2 N 0.48208(17) 0.2672(5) 0.5882(6)
C1 C 0.1950(2) 0.0872(6) 0.9396(9)
H1 H 0.1849 0.1072 1.0814
C2 C 0.2485(2) 0.1505(7) 0.8584(9)
H2 H 0.2753 0.2096 0.9427
C3 C 0.2624(2) 0.1254(5) 0.6468(8)
C4 C 0.3196(2) 0.1956(6) 0.5497(9)
C5 C 0.2231(2) 0.0358(6) 0.5402(8)
H3 H 0.2322 0.0142 0.3981
C6 C 0.1704(2) -0.0252(6) 0.6302(7)
H4 H 0.1433 -0.0859 0.5491
C7 C 0.5284(2) 0.3867(5) 0.2969(8)
C8 C 0.53449(16) 0.2799(5) 0.4674(11)
C9 C 0.5884(2) 0.2011(6) 0.5194(12)
H5 H 0.6253 0.2126 0.4365
C10 C 0.5900(3) 0.1111(8) 0.6799(15)
H6 H 0.6262 0.0520 0.7054
C11 C 0.5362(3) 0.1031(8) 0.8163(11)
H7 H 0.5371 0.0459 0.9404
C12 C 0.4830(3) 0.1823(7) 0.7593(11)
H8 H 0.4462 0.1762 0.8438
Cu1A Cu 0.588300(18) 0.60963(5) -0.02112(13)
Cu1B Cu 0.088300(18) -0.10963(5) 0.97888(13)
O4A O 0.42359(15) 0.5813(4) 0.6924(7)
N1B N 0.34336(16) 0.5002(4) 0.3337(6)
loop_
_geom_bond_atom_site_label_1
_geom_bond_atom_site_label_2
_geom_bond_site_symmetry_1
_geom_bond_site_symmetry_2
Cu1 O1 1_555 1_555
O1 C4 1_555 1_555
O2 C4 1_555 1_555
O3 Cu1 1_555 1_555
O4 C7 1_555 1_555
N1 C1 1_555 1_555
N2 Cu1 1_555 1_555
C1 H1 1_555 1_555
C2 C1 1_555 1_555
H2 C2 1_555 1_555
C3 C2 1_555 1_555
C4 C3 1_555 1_555
C5 C3 1_555 1_555
H3 C5 1_555 1_555
C6 N1 1_555 1_555
H4 C6 1_555 1_555
C7 O3 1_555 1_555
C8 N2 1_555 1_555
C9 C8 1_555 1_555
H5 C9 1_555 1_555
C10 C9 1_555 1_555
H6 C10 1_555 1_555
C11 C10 1_555 1_555
H7 C11 1_555 1_555
C12 N2 1_555 1_555
H8 C12 1_555 1_555
Cu1A O4 1_555 1_555
Cu1B N1 1_555 1_555
O4A Cu1 1_555 1_555
N1B Cu1 1_555 1_555
C5 C6 1_555 1_555
C7 C8 1_555 1_555
C11 C12 1_555 1_555

#END
