
#######################################################################
#
#                 Cambridge Crystallographic Data Centre
#                                CCDC 
#
#######################################################################
#
# If this CIF has been generated from an entry in the Cambridge 
# Structural Database, then it will include bibliographic, chemical, 
# crystal, experimental, refinement or atomic coordinate data resulting 
# from the CCDC's data processing and validation procedures.
#
#######################################################################

data_VOJPOA
_symmetry_cell_setting           orthorhombic
_symmetry_space_group_name_H-M   'P 21 21 21'
_symmetry_Int_Tables_number      19
_space_group_name_Hall           'P 2ac 2ab'
loop_
_symmetry_equiv_pos_site_id
_symmetry_equiv_pos_as_xyz
1 x,y,z
2 1/2-x,-y,1/2+z
3 1/2+x,1/2-y,-z
4 -x,1/2+y,1/2-z
_cell_length_a                   6.591(3)
_cell_length_b                   8.692(5)
_cell_length_c                   20.548(9)
_cell_angle_alpha                90
_cell_angle_beta                 90
_cell_angle_gamma                90
_cell_volume                     1177.17
loop_
_atom_site_label
_atom_site_type_symbol
_atom_site_fract_x
_atom_site_fract_y
_atom_site_fract_z
Cu1 Cu 0.05522(6) 0.63927(6) 0.088973(18)
O1 O 0.2786(4) 0.6739(3) 0.02770(12)
O2 O 0.3556(4) 0.6499(4) -0.07756(11)
O3 O 0.1215(4) 0.4059(4) 0.18164(14)
O4 O -0.1410(4) 0.5496(3) 0.15043(12)
N1 N -0.0536(5) 0.5159(4) 0.01502(13)
N2 N -0.2055(5) 0.2436(4) 0.33945(15)
C1 C -0.2268(6) 0.4369(6) 0.0120(2)
H1 H -0.3133 0.4343 0.0490
C2 C -0.2830(6) 0.3590(7) -0.0435(2)
H2 H -0.4077 0.3043 -0.0446
C3 C -0.1596(7) 0.3603(6) -0.0969(2)
H3 H -0.1959 0.3053 -0.1351
C4 C 0.0187(6) 0.4432(5) -0.09430(19)
H4 H 0.1074 0.4465 -0.1307
C5 C 0.0660(6) 0.5214(4) -0.03775(16)
C6 C 0.2505(5) 0.6224(5) -0.02953(17)
C7 C -0.4056(5) 0.2244(5) 0.33067(17)
H5 H -0.4815 0.1717 0.3631
C8 C -0.5048(5) 0.2784(5) 0.27635(19)
H6 H -0.6464 0.2619 0.2713
C9 C -0.3973(5) 0.3568(6) 0.22925(17)
H7 H -0.4641 0.3976 0.1921
C10 C -0.1896(5) 0.3747(5) 0.23723(16)
C11 C -0.1011(6) 0.3179(5) 0.29338(16)
H8 H 0.0405 0.3324 0.2995
C12 C -0.0569(6) 0.4471(4) 0.18619(16)
Cu1B Cu 0.55522(6) 0.86073(6) -0.088973(18)
Cu1C Cu -0.05522(6) 0.13927(6) 0.411027(18)
O2B O -0.1444(4) 0.8501(4) 0.07756(11)
N2C N 0.2055(5) 0.7436(4) 0.16055(15)
loop_
_geom_bond_atom_site_label_1
_geom_bond_atom_site_label_2
_geom_bond_site_symmetry_1
_geom_bond_site_symmetry_2
Cu1 O1 1_555 1_555
O1 C6 1_555 1_555
O2 C6 1_555 1_555
O3 C12 1_555 1_555
O4 Cu1 1_555 1_555
N1 Cu1 1_555 1_555
N2 C7 1_555 1_555
C1 N1 1_555 1_555
H1 C1 1_555 1_555
C2 C1 1_555 1_555
H2 C2 1_555 1_555
C3 C2 1_555 1_555
H3 C3 1_555 1_555
C4 C3 1_555 1_555
H4 C4 1_555 1_555
C5 N1 1_555 1_555
C6 C5 1_555 1_555
C7 H5 1_555 1_555
C8 C7 1_555 1_555
H6 C8 1_555 1_555
C9 C8 1_555 1_555
H7 C9 1_555 1_555
C10 C9 1_555 1_555
C11 N2 1_555 1_555
H8 C11 1_555 1_555
C12 O4 1_555 1_555
Cu1B O2 1_555 1_555
Cu1C N2 1_555 1_555
O2B Cu1 1_555 1_555
N2C Cu1 1_555 1_555
C4 C5 1_555 1_555
C10 C11 1_555 1_555
C10 C12 1_555 1_555

#END
