
#######################################################################
#
#                 Cambridge Crystallographic Data Centre
#                                CCDC 
#
#######################################################################
#
# If this CIF has been generated from an entry in the Cambridge 
# Structural Database, then it will include bibliographic, chemical, 
# crystal, experimental, refinement or atomic coordinate data resulting 
# from the CCDC's data processing and validation procedures.
#
#######################################################################

data_VOJSUJ
_symmetry_cell_setting           monoclinic
_symmetry_space_group_name_H-M   'C 2/c'
_symmetry_Int_Tables_number      15
_space_group_name_Hall           '-C 2yn'
loop_
_symmetry_equiv_pos_site_id
_symmetry_equiv_pos_as_xyz
1 x,y,z
2 1/2+x,1/2+y,z
3 -x,y,1/2-z
4 1/2-x,1/2+y,1/2-z
5 -x,-y,-z
6 1/2-x,1/2-y,-z
7 x,-y,1/2+z
8 1/2+x,1/2-y,1/2+z
_cell_length_a                   21.7021(18)
_cell_length_b                   4.9098(4)
_cell_length_c                   12.9067(10)
_cell_angle_alpha                90
_cell_angle_beta                 91.580(2)
_cell_angle_gamma                90
_cell_volume                     1374.72
loop_
_atom_site_label
_atom_site_type_symbol
_atom_site_fract_x
_atom_site_fract_y
_atom_site_fract_z
Fe1 Fe 0.5000 0.0000 1.0000
O1 O 0.49177(5) 0.3309(2) 0.90247(9)
O2 O 0.45014(5) 0.7458(2) 0.88838(9)
O3 O 0.34617(5) 0.5442(3) 0.78990(10)
N1 N 0.40660(6) 0.9277(3) 0.57164(11)
C1 C 0.40393(7) 0.7555(3) 0.65188(13)
H1 H 0.4392 0.6588 0.6713
C2 C 0.35083(7) 0.7152(3) 0.70726(12)
C3 C 0.29842(8) 0.8592(4) 0.67875(15)
H2 H 0.2620 0.8362 0.7141
C4 C 0.30137(9) 1.0378(5) 0.59675(18)
H3 H 0.2668 1.1385 0.5764
C5 C 0.35574(9) 1.0670(4) 0.54477(15)
H4 H 0.3570 1.1875 0.4893
C6 C 0.39665(8) 0.3651(3) 0.81344(14)
H5 H 0.3814 0.2121 0.8529
H6 H 0.4120 0.2939 0.7489
C7 C 0.45005(7) 0.4938(3) 0.87410(12)
Fe1_2 Fe 0.5000 1.0000 1.0000
Fe1F Fe 0.5000 1.0000 0.5000
Fe1_3 Fe 0.5000 -1.0000 1.0000
Fe1F_2 Fe 0.5000 -1.0000 1.5000
O1D O 0.50823(5) -0.3309(2) 1.09753(9)
O2D O 0.54986(5) -0.7458(2) 1.11162(9)
O2_2 O 0.45014(5) -0.2542(2) 0.88838(9)
O2D_2 O 0.54986(5) 0.2542(2) 1.11162(9)
O3D O 0.65383(5) -0.5442(3) 1.21010(10)
N1D N 0.59340(6) -0.9277(3) 1.42836(11)
N1F N 0.40660(6) 0.0723(3) 1.07164(11)
N1B N 0.59340(6) -0.0723(3) 0.92836(11)
C1D C 0.59607(7) -0.7555(3) 1.34812(13)
H1D H 0.5608 -0.6588 1.3287
C2D C 0.64917(7) -0.7152(3) 1.29274(12)
C3D C 0.70158(8) -0.8592(4) 1.32125(15)
H2D H 0.7380 -0.8362 1.2859
C4D C 0.69863(9) -1.0378(5) 1.40325(18)
H3D H 0.7332 -1.1385 1.4236
C5D C 0.64426(9) -1.0670(4) 1.45523(15)
H4D H 0.6430 -1.1875 1.5107
C6D C 0.60335(8) -0.3651(3) 1.18656(14)
H5D H 0.6186 -0.2121 1.1471
H6D H 0.5880 -0.2939 1.2511
C7D C 0.54995(7) -0.4938(3) 1.12590(12)
loop_
_geom_bond_atom_site_label_1
_geom_bond_atom_site_label_2
_geom_bond_site_symmetry_1
_geom_bond_site_symmetry_2
Fe1 O1 1_555 1_555
O1 C7 1_555 1_555
O2 C7 1_555 1_555
O3 C2 1_555 1_555
N1 C1 1_555 1_555
C1 H1 1_555 1_555
C2 C1 1_555 1_555
C3 C2 1_555 1_555
H2 C3 1_555 1_555
C4 C3 1_555 1_555
H3 C4 1_555 1_555
C5 N1 1_555 1_555
H4 C5 1_555 1_555
C6 O3 1_555 1_555
H5 C6 1_555 1_555
H6 C6 1_555 1_555
C7 C6 1_555 1_555
Fe1_2 O2 1_555 1_555
Fe1F N1 1_555 1_555
Fe1_3 O2D 1_555 1_555
Fe1F_2 N1D 1_555 1_555
O1D Fe1 1_555 1_555
O2D C7D 1_555 1_555
O2_2 Fe1 1_555 1_555
O2D_2 Fe1 1_555 1_555
O3D C2D 1_555 1_555
N1D C1D 1_555 1_555
N1F Fe1 1_555 1_555
N1B Fe1 1_555 1_555
C1D H1D 1_555 1_555
C2D C1D 1_555 1_555
C3D C2D 1_555 1_555
H2D C3D 1_555 1_555
C4D C3D 1_555 1_555
H3D C4D 1_555 1_555
C5D N1D 1_555 1_555
H4D C5D 1_555 1_555
C6D O3D 1_555 1_555
H5D C6D 1_555 1_555
H6D C6D 1_555 1_555
C7D O1D 1_555 1_555
C4 C5 1_555 1_555
C4D C5D 1_555 1_555
C6D C7D 1_555 1_555

#END
