
#######################################################################
#
#                 Cambridge Crystallographic Data Centre
#                                CCDC 
#
#######################################################################
#
# If this CIF has been generated from an entry in the Cambridge 
# Structural Database, then it will include bibliographic, chemical, 
# crystal, experimental, refinement or atomic coordinate data resulting 
# from the CCDC's data processing and validation procedures.
#
#######################################################################

data_VOKKIP01
_symmetry_cell_setting           monoclinic
_symmetry_space_group_name_H-M   'C 2/m'
_symmetry_Int_Tables_number      12
_space_group_name_Hall           '-C 2y'
loop_
_symmetry_equiv_pos_site_id
_symmetry_equiv_pos_as_xyz
1 x,y,z
2 1/2+x,1/2+y,z
3 x,-y,z
4 1/2+x,1/2-y,z
5 -x,-y,-z
6 1/2-x,1/2-y,-z
7 -x,y,-z
8 1/2-x,1/2+y,-z
_cell_length_a                   11.044(3)
_cell_length_b                   16.390(3)
_cell_length_c                   7.199(2)
_cell_angle_alpha                90
_cell_angle_beta                 103.80(2)
_cell_angle_gamma                90
_cell_volume                     1265.48
loop_
_atom_site_label
_atom_site_type_symbol
_atom_site_fract_x
_atom_site_fract_y
_atom_site_fract_z
K1 K 0.0758 0.0000 -0.2548
K2 K -0.4194 0.0000 -0.7416
O1 O -0.1933 0.0000 -0.4478
O2 O 0.3044 0.0000 0.0355
O3 O 0.0000 0.3960 -0.5000
N1 N 0.0000 0.1495 -0.5000
C1 C 0.0000 0.3210 -0.5000
O4 O 0.1936 0.1572 -0.3014
N2 N 0.0984 0.2760 -0.4040
C2 C 0.0993 0.1915 -0.4000
O5 O 0.0000 -0.3734 0.0000
N3 N 0.0000 -0.1272 0.0000
C3 C 0.0000 -0.2989 0.0000
O6 O -0.1968 -0.1350 -0.1891
N4 N -0.0994 -0.2536 -0.0953
C4 C -0.1002 -0.1696 -0.0951
C2F C -0.0993 0.1915 -0.6000
O4F O -0.1936 0.1572 -0.6986
N2F N -0.0984 0.2760 -0.5960
C4F C 0.1002 -0.1696 0.0951
O6F O 0.1968 -0.1350 0.1891
N4F N 0.0994 -0.2536 0.0953
K1D K -0.0758 0.0000 -0.7452
K1D_2 K -0.0758 0.0000 0.2548
K2D K 0.4194 0.0000 -0.2584
O1D O 0.1933 0.0000 -0.5522
N1B N 0.0000 -0.1495 -0.5000
O4B O 0.1936 -0.1572 -0.3014
N3B N 0.0000 0.1272 0.0000
K2D_2 K -0.5806 0.0000 -1.2584
K2D_3 K -0.5806 0.0000 -0.2584
O2D O -0.3044 0.0000 -1.0355
O3A O -0.5000 -0.1040 -0.5000
O3C O -0.5000 0.1040 -0.5000
O5A O -0.5000 0.1266 -1.0000
O5C O -0.5000 -0.1266 -1.0000
K2A K 0.0806 0.5000 -0.7416
K2E K -0.0806 0.5000 -0.2584
K2A_2 K 0.0806 -0.5000 0.2584
K2E_2 K -0.0806 -0.5000 -0.2584
loop_
_geom_bond_atom_site_label_1
_geom_bond_atom_site_label_2
_geom_bond_site_symmetry_1
_geom_bond_site_symmetry_2
K1 O1 1_555 1_555
K2 O1 1_555 1_555
O1 K1D 1_555 1_555
O2 K1 1_555 1_555
O3 C1 1_555 1_555
N1 K1 1_555 1_555
C1 N2 1_555 1_555
O4 K1 1_555 1_555
N2 C2 1_555 1_555
C2 N1 1_555 1_555
O5 C3 1_555 1_555
N3 K1 1_555 1_555
C3 N4 1_555 1_555
O6 C4 1_555 1_555
N4 C4 1_555 1_555
C4 N3 1_555 1_555
C2F N1 1_555 1_555
O4F C2F 1_555 1_555
N2F C1 1_555 1_555
C4F N3 1_555 1_555
O6F C4F 1_555 1_555
N4F C3 1_555 1_555
K1D N1 1_555 1_555
K1D_2 N3 1_555 1_555
K2D O2 1_555 1_555
O1D K1 1_555 1_555
N1B K1 1_555 1_555
O4B K1 1_555 1_555
N3B K1 1_555 1_555
K2D_2 O5A 1_555 1_555
K2D_3 O3A 1_555 1_555
O2D K2 1_555 1_555
O3A K2 1_555 1_555
O3C K2 1_555 1_555
O5A K2 1_555 1_555
O5C K2 1_555 1_555
K2A O3 1_555 1_555
K2E O3 1_555 1_555
K2A_2 O5 1_555 1_555
K2E_2 O5 1_555 1_555
O4 C2 1_555 1_555
C2F N2F 1_555 1_555
O4F K1D 1_555 1_555
C4F N4F 1_555 1_555
K1D O1D 1_555 1_555
K1D O2D 1_555 1_555
K1D N1B 1_555 1_555
K1D_2 N3B 1_555 1_555
K2D O1D 1_555 1_555
K2D_2 O5C 1_555 1_555
K2D_3 O3C 1_555 1_555

#END
