
#######################################################################
#
#                 Cambridge Crystallographic Data Centre
#                                CCDC 
#
#######################################################################
#
# If this CIF has been generated from an entry in the Cambridge 
# Structural Database, then it will include bibliographic, chemical, 
# crystal, experimental, refinement or atomic coordinate data resulting 
# from the CCDC's data processing and validation procedures.
#
#######################################################################

data_VOKKEN
_symmetry_cell_setting           monoclinic
_symmetry_space_group_name_H-M   'P 21/c'
_symmetry_Int_Tables_number      14
_space_group_name_Hall           '-P 2ybc'
loop_
_symmetry_equiv_pos_site_id
_symmetry_equiv_pos_as_xyz
1 x,y,z
2 -x,1/2+y,1/2-z
3 -x,-y,-z
4 x,1/2-y,1/2+z
_cell_length_a                   9.249(2)
_cell_length_b                   6.7980(16)
_cell_length_c                   16.707(4)
_cell_angle_alpha                90
_cell_angle_beta                 100.275(5)
_cell_angle_gamma                90
_cell_volume                     1033.6
loop_
_atom_site_label
_atom_site_type_symbol
_atom_site_fract_x
_atom_site_fract_y
_atom_site_fract_z
O1 O 0.3629(4) -0.0260(6) 0.3161(2)
Cu1 Cu 0.48392(8) 0.37281(12) 0.23677(4)
O2 O 0.3135(4) 0.2844(6) 0.2761(3)
N1 N 0.5152(5) 0.1080(7) 0.1948(3)
C1 C 0.2834(6) 0.1235(10) 0.3061(3)
C2 C 0.1379(6) 0.1136(9) 0.3332(3)
N2 N 0.5730(6) 0.0947(7) 0.1348(3)
C3 C -0.0418(7) -0.0625(9) 0.3942(3)
C4 C 0.0964(6) -0.0519(9) 0.3687(3)
H1 H 0.1594 -0.1596 0.3763
C5 C -0.1366(6) 0.1016(10) 0.3829(3)
C6 C 0.0432(7) 0.2789(9) 0.3231(3)
H2 H 0.0729 0.3946 0.3011
C7 C -0.0930(7) 0.2691(9) 0.3458(4)
H3 H -0.1564 0.3760 0.3361
C8 C -0.2742(7) 0.0890(11) 0.4088(4)
H4 H -0.3389 0.1949 0.4010
N3 N 0.6252(6) 0.0867(8) 0.0783(3)
C9 C -0.0835(7) -0.2313(10) 0.4312(3)
H5 H -0.0198 -0.3382 0.4397
C10 C -0.2185(8) -0.2421(11) 0.4554(4)
H6 H -0.2475 -0.3570 0.4783
C11 C -0.3116(8) -0.0769(12) 0.4450(4)
H7 H -0.4007 -0.0818 0.4633
O1A O 0.6371(4) 0.4740(6) 0.1839(2)
Cu1A Cu 0.51608(8) -0.12719(12) 0.26323(4)
N1A N 0.4848(5) 0.6080(7) 0.3052(3)
loop_
_geom_bond_atom_site_label_1
_geom_bond_atom_site_label_2
_geom_bond_site_symmetry_1
_geom_bond_site_symmetry_2
O1 C1 1_555 1_555
Cu1 O2 1_555 1_555
O2 C1 1_555 1_555
N1 Cu1 1_555 1_555
C1 C2 1_555 1_555
C2 C4 1_555 1_555
N2 N1 1_555 1_555
C3 C4 1_555 1_555
C4 H1 1_555 1_555
C5 C3 1_555 1_555
C6 C2 1_555 1_555
H2 C6 1_555 1_555
C7 C5 1_555 1_555
H3 C7 1_555 1_555
C8 C5 1_555 1_555
H4 C8 1_555 1_555
N3 N2 1_555 1_555
C9 C3 1_555 1_555
H5 C9 1_555 1_555
C10 C9 1_555 1_555
H6 C10 1_555 1_555
C11 C8 1_555 1_555
H7 C11 1_555 1_555
O1A Cu1 1_555 1_555
Cu1A O1 1_555 1_555
N1A Cu1 1_555 1_555
N1 Cu1A 1_555 1_555
C6 C7 1_555 1_555
C10 C11 1_555 1_555

#END
