
#######################################################################
#
#                 Cambridge Crystallographic Data Centre
#                                CCDC 
#
#######################################################################
#
# If this CIF has been generated from an entry in the Cambridge 
# Structural Database, then it will include bibliographic, chemical, 
# crystal, experimental, refinement or atomic coordinate data resulting 
# from the CCDC's data processing and validation procedures.
#
#######################################################################

data_VOKPER
_symmetry_cell_setting           orthorhombic
_symmetry_space_group_name_H-M   'P 21 21 21'
_symmetry_Int_Tables_number      19
_space_group_name_Hall           'P 2ac 2ab'
loop_
_symmetry_equiv_pos_site_id
_symmetry_equiv_pos_as_xyz
1 x,y,z
2 1/2-x,-y,1/2+z
3 1/2+x,1/2-y,-z
4 -x,1/2+y,1/2-z
_cell_length_a                   4.5586(17)
_cell_length_b                   14.900(6)
_cell_length_c                   29.923(12)
_cell_angle_alpha                90
_cell_angle_beta                 90
_cell_angle_gamma                90
_cell_volume                     2032.46
loop_
_atom_site_label
_atom_site_type_symbol
_atom_site_fract_x
_atom_site_fract_y
_atom_site_fract_z
Ag1 Ag 0.1155(2) 0.4382(1) 0.8761(1)
N1 N 0.5429(19) 0.4118(5) 0.9578(3)
N2 N 0.4745(16) 0.2896(5) 0.9228(3)
N3 N 0.6470(20) 0.2866(5) 0.8286(3)
N4 N 0.8075(17) 0.4462(6) 0.7862(3)
N5 N 0.6696(17) 0.5582(6) 0.8235(3)
O1 O 0.2480(40) 0.4613(6) 1.0402(3)
O2 O 0.6490(40) 0.7515(8) 0.8103(4)
C1 C 0.4180(40) 0.5146(9) 1.0191(6)
C2 C 0.5120(30) 0.5027(7) 0.9748(4)
C3 C 0.7210(20) 0.3484(7) 0.9772(4)
C4 C 0.6700(20) 0.2738(7) 0.9550(3)
C5 C 0.3850(30) 0.3768(7) 0.9246(3)
C6 C 0.3630(30) 0.2254(7) 0.8889(3)
C7 C 0.5830(20) 0.2117(6) 0.8520(3)
C8 C 0.6950(20) 0.1309(8) 0.8441(3)
C9 C 0.9080(20) 0.1230(6) 0.8092(3)
C10 C 0.9800(20) 0.2000(7) 0.7851(4)
C11 C 0.8500(30) 0.2789(7) 0.7967(3)
C12 C 0.9540(20) 0.3633(8) 0.7725(4)
C13 C 0.6010(20) 0.4896(7) 0.7603(4)
C14 C 0.5180(20) 0.5589(8) 0.7840(3)
C15 C 0.8540(30) 0.4871(6) 0.8255(4)
C16 C 0.6590(30) 0.6284(6) 0.8584(3)
C17 C 0.7860(30) 0.7165(10) 0.8423(5)
H1 H 0.2203 0.4804 1.0656
H2 H 0.7339 0.7973 0.8023
H3 H 0.5945 0.5194 1.0371
H4 H 0.3245 0.5730 1.0201
H5 H 0.7006 0.5322 0.9717
H6 H 0.3753 0.5341 0.9555
H7 H 0.8506 0.3565 1.0009
H8 H 0.7570 0.2185 0.9609
H9 H 0.1812 0.2481 0.8764
H10 H 0.3216 0.1683 0.9032
H11 H 0.6370 0.0812 0.8606
H12 H 0.9966 0.0682 0.8029
H13 H 1.1133 0.1975 0.7616
H14 H 1.1632 0.3701 0.7774
H15 H 0.9241 0.3550 0.7406
H16 H 0.5355 0.4731 0.7321
H17 H 0.3790 0.6013 0.7755
H18 H 0.7679 0.6082 0.8843
H19 H 0.4568 0.6377 0.8674
H20 H 0.7875 0.7584 0.8671
H21 H 0.9873 0.7067 0.8333
Ag1_2 Ag 1.1155(2) 0.4382(1) 0.8761(1)
C15_2 C -0.1460(30) 0.4871(6) 0.8255(4)
O3 O 0.9817(19) 0.6885(6) 0.9579(3)
O4 O 0.4750(20) 0.7894(6) 0.9503(3)
loop_
_geom_bond_atom_site_label_1
_geom_bond_atom_site_label_2
_geom_bond_site_symmetry_1
_geom_bond_site_symmetry_2
Ag1 C5 1_555 1_555
N1 C2 1_555 1_555
N2 C4 1_555 1_555
N3 C7 1_555 1_555
N4 C12 1_555 1_555
N5 C14 1_555 1_555
O1 C1 1_555 1_555
O2 C17 1_555 1_555
C1 C2 1_555 1_555
C2 H5 1_555 1_555
C3 N1 1_555 1_555
C4 C3 1_555 1_555
C5 N1 1_555 1_555
C6 N2 1_555 1_555
C7 C6 1_555 1_555
C8 C7 1_555 1_555
C9 C8 1_555 1_555
C10 C9 1_555 1_555
C11 N3 1_555 1_555
C12 C11 1_555 1_555
C13 N4 1_555 1_555
C14 C13 1_555 1_555
C15 N4 1_555 1_555
C16 N5 1_555 1_555
C17 C16 1_555 1_555
H1 O1 1_555 1_555
H2 O2 1_555 1_555
H3 C1 1_555 1_555
H4 C1 1_555 1_555
H6 C2 1_555 1_555
H7 C3 1_555 1_555
H8 C4 1_555 1_555
H9 C6 1_555 1_555
H10 C6 1_555 1_555
H11 C8 1_555 1_555
H12 C9 1_555 1_555
H13 C10 1_555 1_555
H14 C12 1_555 1_555
H15 C12 1_555 1_555
H16 C13 1_555 1_555
H17 C14 1_555 1_555
H18 C16 1_555 1_555
H19 C16 1_555 1_555
H20 C17 1_555 1_555
H21 C17 1_555 1_555
Ag1_2 C15 1_555 1_555
C15_2 Ag1 1_555 1_555
N2 C5 1_555 1_555
N5 C15 1_555 1_555
C10 C11 1_555 1_555

#END
