
#######################################################################
#
#                 Cambridge Crystallographic Data Centre
#                                CCDC 
#
#######################################################################
#
# If this CIF has been generated from an entry in the Cambridge 
# Structural Database, then it will include bibliographic, chemical, 
# crystal, experimental, refinement or atomic coordinate data resulting 
# from the CCDC's data processing and validation procedures.
#
#######################################################################

data_VOKQUJ
_symmetry_cell_setting           triclinic
_symmetry_space_group_name_H-M   'P -1'
_symmetry_Int_Tables_number      2
_space_group_name_Hall           '-P 1'
loop_
_symmetry_equiv_pos_site_id
_symmetry_equiv_pos_as_xyz
1 x,y,z
2 -x,-y,-z
_cell_length_a                   7.9857(4)
_cell_length_b                   11.6552(5)
_cell_length_c                   12.4147(6)
_cell_angle_alpha                107.575(4)
_cell_angle_beta                 103.785(4)
_cell_angle_gamma                99.250(4)
_cell_volume                     1035.49
loop_
_atom_site_label
_atom_site_type_symbol
_atom_site_fract_x
_atom_site_fract_y
_atom_site_fract_z
V1 V 0.44231(6) 0.34795(4) 0.10851(4)
Na1 Na 0.22243(15) 0.59079(12) 0.07088(11)
N1 N 0.3011(3) 0.1558(2) 0.0248(2)
N2 N 0.5730(3) 0.3366(2) 0.2753(2)
N3 N 0.4674(3) 0.7686(2) 0.2244(2)
O1 O 0.6051(3) 0.32914(19) 0.05633(18)
O2 O 0.2427(3) 0.35582(18) -0.01918(17)
O3 O -0.0212(3) 0.2499(2) -0.1520(2)
O4 O -0.0805(3) 0.0041(2) -0.2384(3)
H1 H -0.0845 0.0711 -0.2463
O5 O 0.2433(2) 0.34765(19) 0.19950(18)
O6 O 0.1892(3) 0.3503(2) 0.3673(2)
O7 O 0.4467(4) 0.3476(3) 0.5384(2)
H2 H 0.3426 0.3394 0.5022
O8 O 0.4857(2) 0.53142(17) 0.16929(16)
O9 O 0.7762(3) 0.5886(2) 0.26954(19)
O10 O 0.9249(3) 0.8159(3) 0.3942(3)
H3 H 0.9145 0.7406 0.3703
O11 O 0.0016(3) 0.5262(2) -0.1228(2)
H4 H -0.059(4) 0.564(3) -0.155(3)
H5 H 0.042(5) 0.486(3) -0.171(3)
C1 C 0.1225(4) 0.2565(3) -0.0830(3)
C2 C 0.1607(4) 0.1395(3) -0.0685(3)
C3 C 0.0576(4) 0.0212(3) -0.1445(3)
C4 C 0.1006(5) -0.0813(3) -0.1203(4)
H6 H 0.0348 -0.1615 -0.1691
C5 C 0.2401(5) -0.0622(3) -0.0243(4)
H7 H 0.2691 -0.1298 -0.0063
C6 C 0.3393(4) 0.0566(3) 0.0469(3)
H8 H 0.4351 0.0677 0.1119
C7 C 0.2874(4) 0.3461(3) 0.3035(3)
C8 C 0.4749(4) 0.3398(3) 0.3499(2)
C9 C 0.5456(4) 0.3406(3) 0.4637(3)
C10 C 0.7220(5) 0.3368(4) 0.5011(3)
H9 H 0.7726 0.3368 0.5767
C11 C 0.8194(4) 0.3330(3) 0.4239(3)
H10 H 0.9379 0.3301 0.4468
C12 C 0.7427(4) 0.3334(3) 0.3120(3)
H11 H 0.8112 0.3315 0.2609
C13 C 0.6308(4) 0.6123(3) 0.2343(2)
C14 C 0.6219(4) 0.7454(3) 0.2704(2)
C15 C 0.7698(4) 0.8395(3) 0.3503(3)
C16 C 0.7541(6) 0.9614(4) 0.3843(4)
H12 H 0.8489 1.0261 0.4390
C17 C 0.5980(6) 0.9836(4) 0.3359(5)
H13 H 0.5844 1.0644 0.3562
C18 C 0.4596(5) 0.8863(4) 0.2567(4)
H14 H 0.3540 0.9040 0.2237
Na1A Na -0.22243(15) 0.40921(12) -0.07088(11)
Na1A_2 Na 0.77757(15) 0.40921(12) -0.07088(11)
O1A O 0.3949(3) 0.67086(19) -0.05633(18)
O3A O 0.0212(3) 0.7501(2) 0.1520(2)
O11A O -0.0016(3) 0.4738(2) 0.1228(2)
loop_
_geom_bond_atom_site_label_1
_geom_bond_atom_site_label_2
_geom_bond_site_symmetry_1
_geom_bond_site_symmetry_2
V1 N1 1_555 1_555
Na1 N3 1_555 1_555
N1 C2 1_555 1_555
N2 V1 1_555 1_555
N3 C14 1_555 1_555
O1 V1 1_555 1_555
O2 V1 1_555 1_555
O3 C1 1_555 1_555
O4 H1 1_555 1_555
O5 V1 1_555 1_555
O6 C7 1_555 1_555
O7 H2 1_555 1_555
O8 V1 1_555 1_555
O9 C13 1_555 1_555
O10 H3 1_555 1_555
O11 Na1 1_555 1_555
H4 O11 1_555 1_555
H5 O11 1_555 1_555
C1 O2 1_555 1_555
C2 C1 1_555 1_555
C3 O4 1_555 1_555
C4 C3 1_555 1_555
H6 C4 1_555 1_555
C5 C4 1_555 1_555
H7 C5 1_555 1_555
C6 N1 1_555 1_555
H8 C6 1_555 1_555
C7 O5 1_555 1_555
C8 N2 1_555 1_555
C9 O7 1_555 1_555
C10 C9 1_555 1_555
H9 C10 1_555 1_555
C11 C10 1_555 1_555
H10 C11 1_555 1_555
C12 N2 1_555 1_555
H11 C12 1_555 1_555
C13 O8 1_555 1_555
C14 C13 1_555 1_555
C15 O10 1_555 1_555
C16 C15 1_555 1_555
H12 C16 1_555 1_555
C17 C16 1_555 1_555
H13 C17 1_555 1_555
C18 N3 1_555 1_555
H14 C18 1_555 1_555
Na1A O3 1_555 1_555
Na1A_2 O1 1_555 1_555
O1A Na1 1_555 1_555
O3A Na1 1_555 1_555
O11A Na1 1_555 1_555
Na1 O2 1_555 1_555
Na1 O8 1_555 1_555
O11 Na1A 1_555 1_555
C2 C3 1_555 1_555
C5 C6 1_555 1_555
C7 C8 1_555 1_555
C8 C9 1_555 1_555
C11 C12 1_555 1_555
C14 C15 1_555 1_555
C17 C18 1_555 1_555
Na1A O11A 1_555 1_555

#END
