
#######################################################################
#
#                 Cambridge Crystallographic Data Centre
#                                CCDC 
#
#######################################################################
#
# If this CIF has been generated from an entry in the Cambridge 
# Structural Database, then it will include bibliographic, chemical, 
# crystal, experimental, refinement or atomic coordinate data resulting 
# from the CCDC's data processing and validation procedures.
#
#######################################################################

data_VOKTAS
_symmetry_cell_setting           monoclinic
_symmetry_space_group_name_H-M   'P 2/c'
_symmetry_Int_Tables_number      13
_space_group_name_Hall           '-P 2yc'
loop_
_symmetry_equiv_pos_site_id
_symmetry_equiv_pos_as_xyz
1 x,y,z
2 -x,y,1/2-z
3 -x,-y,-z
4 x,-y,1/2+z
_cell_length_a                   9.6911(3)
_cell_length_b                   9.0833(3)
_cell_length_c                   14.3017(6)
_cell_angle_alpha                90
_cell_angle_beta                 103.760(4)
_cell_angle_gamma                90
_cell_volume                     1222.81
loop_
_atom_site_label
_atom_site_type_symbol
_atom_site_fract_x
_atom_site_fract_y
_atom_site_fract_z
Fe1 Fe 0.0000 0.73887(8) -0.2500
Ag1 Ag 0.21830(3) 0.92755(3) 0.03216(2)
N1 N 0.0784(3) 0.5791(3) -0.3148(2)
N2 N 0.2111(3) 0.3451(4) -0.3855(2)
N3 N 0.1922(3) 0.7288(3) -0.1657(2)
N4 N 0.2685(3) 0.7903(3) -0.0836(2)
N5 N 0.4137(3) 0.6365(3) -0.1404(2)
N6 N 0.4886(3) 0.8701(3) 0.0744(2)
N7 N 0.7567(4) 0.7415(4) 0.0978(3)
N8 N 0.0688(3) 1.1186(3) 0.1695(2)
C1 C 0.0058(4) 0.4867(4) -0.3812(3)
H1 H -0.0930 0.5021 -0.4065
C2 C 0.0722(4) 0.3689(4) -0.4138(3)
H2 H 0.0159 0.3024 -0.4582
C3 C 0.2832(4) 0.4377(4) -0.3190(3)
H3 H 0.3830 0.4253 -0.2971
C4 C 0.2190(4) 0.5506(4) -0.2806(3)
C5 C 0.2815(4) 0.6395(4) -0.1973(3)
C6 C 0.3991(4) 0.7324(4) -0.0706(3)
C7 C 0.5154(4) 0.7706(4) 0.0119(3)
C8 C 0.6477(4) 0.7070(5) 0.0247(3)
H4 H 0.6620 0.6353 -0.0205
C9 C 0.7303(4) 0.8430(5) 0.1587(3)
H5 H 0.8050 0.8729 0.2112
C10 C 0.5978(4) 0.9060(4) 0.1478(3)
H6 H 0.5836 0.9768 0.1935
C11 C 0.1199(4) 1.0531(4) 0.1195(3)
Ag1A Ag -0.21830(3) 0.92755(3) -0.53216(2)
N1A N -0.0784(3) 0.5791(3) -0.1852(2)
N2A N -0.2111(3) 0.3451(4) -0.1145(2)
N3A N -0.1922(3) 0.7288(3) -0.3343(2)
N4A N -0.2685(3) 0.7903(3) -0.4164(2)
N5A N -0.4137(3) 0.6365(3) -0.3596(2)
N6A N -0.4886(3) 0.8701(3) -0.5744(2)
N7A N -0.7567(4) 0.7415(4) -0.5978(3)
N8A N -0.0688(3) 1.1186(3) -0.6695(2)
C1A C -0.0058(4) 0.4867(4) -0.1188(3)
H1A H 0.0930 0.5021 -0.0935
C2A C -0.0722(4) 0.3689(4) -0.0862(3)
H2A H -0.0159 0.3024 -0.0418
C3A C -0.2832(4) 0.4377(4) -0.1810(3)
H3A H -0.3830 0.4253 -0.2029
C4A C -0.2190(4) 0.5506(4) -0.2194(3)
C5A C -0.2815(4) 0.6395(4) -0.3027(3)
C6A C -0.3991(4) 0.7324(4) -0.4294(3)
C7A C -0.5154(4) 0.7706(4) -0.5119(3)
C8A C -0.6477(4) 0.7070(5) -0.5247(3)
H4A H -0.6620 0.6353 -0.4795
C9A C -0.7303(4) 0.8430(5) -0.6587(3)
H5A H -0.8050 0.8729 -0.7112
C10A C -0.5978(4) 0.9060(4) -0.6478(3)
H6A H -0.5836 0.9768 -0.6935
C11A C -0.1199(4) 1.0531(4) -0.6195(3)
Fe1B Fe 0.0000 1.26113(8) -0.7500
Fe1B_2 Fe 0.0000 1.26113(8) 0.2500
N8B N -0.0688(3) 0.8814(3) -0.1695(2)
N8C N 0.0688(3) 0.8814(3) -0.3305(2)
loop_
_geom_bond_atom_site_label_1
_geom_bond_atom_site_label_2
_geom_bond_site_symmetry_1
_geom_bond_site_symmetry_2
Fe1 N1 1_555 1_555
Ag1 N4 1_555 1_555
N1 C1 1_555 1_555
N2 C2 1_555 1_555
N3 Fe1 1_555 1_555
N4 N3 1_555 1_555
N5 C5 1_555 1_555
N6 Ag1 1_555 1_555
N7 C8 1_555 1_555
N8 C11 1_555 1_555
C1 H1 1_555 1_555
C2 C1 1_555 1_555
H2 C2 1_555 1_555
C3 N2 1_555 1_555
H3 C3 1_555 1_555
C4 N1 1_555 1_555
C5 N3 1_555 1_555
C6 N4 1_555 1_555
C7 N6 1_555 1_555
C8 C7 1_555 1_555
H4 C8 1_555 1_555
C9 N7 1_555 1_555
H5 C9 1_555 1_555
C10 N6 1_555 1_555
H6 C10 1_555 1_555
C11 Ag1 1_555 1_555
Ag1A N4A 1_555 1_555
N1A Fe1 1_555 1_555
N2A C2A 1_555 1_555
N3A Fe1 1_555 1_555
N4A N3A 1_555 1_555
N5A C5A 1_555 1_555
N6A Ag1A 1_555 1_555
N7A C8A 1_555 1_555
N8A C11A 1_555 1_555
C1A N1A 1_555 1_555
H1A C1A 1_555 1_555
C2A C1A 1_555 1_555
H2A C2A 1_555 1_555
C3A N2A 1_555 1_555
H3A C3A 1_555 1_555
C4A N1A 1_555 1_555
C5A N3A 1_555 1_555
C6A N4A 1_555 1_555
C7A N6A 1_555 1_555
C8A C7A 1_555 1_555
H4A C8A 1_555 1_555
C9A N7A 1_555 1_555
H5A C9A 1_555 1_555
C10A N6A 1_555 1_555
H6A C10A 1_555 1_555
C11A Ag1A 1_555 1_555
Fe1B N8A 1_555 1_555
Fe1B_2 N8 1_555 1_555
N8B Fe1 1_555 1_555
N8C Fe1 1_555 1_555
N5 C6 1_555 1_555
C3 C4 1_555 1_555
C4 C5 1_555 1_555
C6 C7 1_555 1_555
C9 C10 1_555 1_555
N5A C6A 1_555 1_555
C3A C4A 1_555 1_555
C4A C5A 1_555 1_555
C6A C7A 1_555 1_555
C9A C10A 1_555 1_555

#END
