
#######################################################################
#
#                 Cambridge Crystallographic Data Centre
#                                CCDC 
#
#######################################################################
#
# If this CIF has been generated from an entry in the Cambridge 
# Structural Database, then it will include bibliographic, chemical, 
# crystal, experimental, refinement or atomic coordinate data resulting 
# from the CCDC's data processing and validation procedures.
#
#######################################################################

data_VOLCEG
_symmetry_cell_setting           triclinic
_symmetry_space_group_name_H-M   'P -1'
_symmetry_Int_Tables_number      2
_space_group_name_Hall           '-P 1'
loop_
_symmetry_equiv_pos_site_id
_symmetry_equiv_pos_as_xyz
1 x,y,z
2 -x,-y,-z
_cell_length_a                   8.076(2)
_cell_length_b                   12.670(3)
_cell_length_c                   15.131(4)
_cell_angle_alpha                91.020(3)
_cell_angle_beta                 94.709(4)
_cell_angle_gamma                100.646(5)
_cell_volume                     1515.6
loop_
_atom_site_label
_atom_site_type_symbol
_atom_site_fract_x
_atom_site_fract_y
_atom_site_fract_z
Mn1 Mn 0.22691(4) 0.45019(3) 0.95753(2)
N1 N 0.6167(2) 0.38933(16) 1.00759(13)
N2 N 0.4439(2) 0.36798(15) 0.97903(12)
N3 N 0.5428(2) 0.21941(16) 0.96811(14)
N4 N 0.5369(3) 0.10846(17) 0.95603(19)
N5 N 0.2538(2) 0.21237(17) 0.92080(14)
N6 N 0.1192(2) 0.26935(16) 0.92966(15)
N7 N -0.1253(2) 0.55942(15) 0.90983(12)
N8 N 0.0102(2) 0.51048(15) 0.88923(12)
N9 N -0.1046(2) 0.56645(16) 0.76692(12)
N10 N -0.1171(3) 0.5929(2) 0.67627(14)
N11 N 0.1252(3) 0.47475(18) 0.75477(14)
N12 N 0.2763(3) 0.4657(2) 0.80837(15)
C1 C 0.4051(3) 0.26492(18) 0.95613(15)
C2 C 0.6712(3) 0.29931(19) 1.00039(16)
H1 H 0.7843 0.2907 1.0155
C3 C -0.1902(3) 0.5922(2) 0.83589(16)
H2 H -0.2832 0.6286 0.8308
C4 C 0.0164(3) 0.51645(18) 0.80291(15)
H3 H 0.614(4) 0.100(3) 0.917(2)
H4 H 0.567(3) 0.087(2) 1.0090(19)
H5 H 0.226(4) 0.149(3) 0.9227(19)
H6 H 0.067(4) 0.243(2) 0.974(2)
H7 H 0.049(4) 0.255(2) 0.883(2)
H8 H -0.091(3) 0.661(2) 0.6796(16)
H9 H -0.231(5) 0.566(3) 0.656(2)
H10 H 0.142(3) 0.504(2) 0.7072(18)
H11 H 0.351(4) 0.526(3) 0.799(2)
H12 H 0.310(5) 0.411(3) 0.788(2)
Mn1A Mn -0.22691(4) 0.54981(3) 1.04247(2)
Mn1A_2 Mn 0.77309(4) 0.54981(3) 1.04247(2)
N1A N 0.3833(2) 0.61067(16) 0.99241(13)
N7A N 0.1253(2) 0.44058(15) 1.09017(12)
Mn2 Mn 0.27091(4) 1.05329(3) 0.54597(2)
N13 N 0.4922(2) 0.99507(15) 0.61090(12)
N14 N 0.6338(2) 0.95402(16) 0.58777(12)
N15 N 0.6530(2) 0.97940(16) 0.73185(12)
N16 N 0.7110(3) 0.98915(19) 0.82282(13)
N17 N 0.4027(2) 1.05248(17) 0.74656(13)
N18 N 0.2432(3) 1.0540(2) 0.69762(13)
N19 N 0.1138(2) 0.89079(16) 0.52508(12)
N20 N -0.0561(2) 0.86646(15) 0.49122(12)
N21 N 0.0519(2) 0.72013(16) 0.48708(13)
N22 N 0.0623(3) 0.61426(18) 0.46124(18)
N23 N -0.2335(3) 0.70819(18) 0.42753(15)
N24 N -0.3717(3) 0.76354(17) 0.42810(15)
C5 C 0.7253(3) 0.94487(19) 0.66127(15)
H13 H 0.8278 0.9179 0.6651
C6 C 0.5092(3) 1.00939(18) 0.69765(14)
C7 C 0.1736(3) 0.80249(19) 0.52114(15)
H14 H 0.2867 0.7965 0.5396
C8 C -0.0871(3) 0.76298(19) 0.46830(15)
H15 H 0.695(4) 0.919(3) 0.845(2)
H16 H 0.811(4) 1.021(2) 0.8276(19)
H17 H 0.394(4) 1.028(2) 0.800(2)
H18 H 0.216(4) 1.109(3) 0.718(2)
H19 H 0.173(4) 0.994(2) 0.7114(18)
H20 H 0.128(4) 0.621(3) 0.415(2)
H21 H 0.110(4) 0.585(3) 0.507(2)
H22 H -0.255(3) 0.641(2) 0.4272(18)
H23 H -0.437(3) 0.736(2) 0.4682(18)
H24 H -0.429(4) 0.746(2) 0.3778(19)
Mn2A Mn -0.27091(4) 0.94671(3) 0.45403(2)
Mn2A_2 Mn 0.72909(4) 0.94671(3) 0.45403(2)
N14A N 0.3662(2) 1.04598(16) 0.41223(12)
N20A N 0.0561(2) 1.13354(15) 0.50878(12)
N24A N 0.3717(3) 1.23646(17) 0.57190(15)
O1 O 0.1341(2) 0.93714(17) 1.00133(12)
O2 O 0.0976(2) 0.99665(14) 0.86905(11)
O3 O -0.0274(2) 0.83647(15) 0.89997(12)
N25 N 0.0692(3) 0.92416(17) 0.92385(13)
O4 O 0.3625(3) 0.84679(16) 0.83843(16)
O5 O 0.5568(3) 0.75165(18) 0.83115(15)
O6 O 0.3123(3) 0.6990(2) 0.75988(16)
N26 N 0.4108(3) 0.76452(19) 0.80830(15)
O7 O 0.2913(2) 0.52635(16) 0.59182(12)
O8 O 0.5048(3) 0.65698(16) 0.58494(13)
O9 O 0.5434(3) 0.4962(2) 0.61438(19)
N27 N 0.4471(3) 0.56236(18) 0.59721(14)
O10 O 0.7951(6) 0.2590(4) 0.8060(3)
O11 O 0.7571(5) 0.2315(3) 0.6645(2)
O12 O 0.9643(5) 0.1794(3) 0.7409(3)
N28 N 0.8400(3) 0.2250(2) 0.73596(16)
O17 O 0.5014(10) 0.3370(5) 0.7515(5)
H27 H 0.5232 0.3871 0.7153
H28 H 0.5940 0.3168 0.7667
O18 O 0.0286(2) 0.81925(15) 0.72066(11)
H29 H 0.0011 0.8292 0.7728
H30 H 0.1100 0.7851 0.7244
O13? O 0.709(2) 0.2616(14) 0.6870(11)
O14? O 0.760(3) 0.2921(19) 0.8230(17)
O15? O 0.510(5) 0.296(3) 0.764(2)
N29? N 0.6578(19) 0.2849(12) 0.7575(9)
O16? O 1.031(2) 0.2151(15) 0.7336(12)
H25? H 0.9324 0.2282 0.7215
H26? H 1.0918 0.2437 0.6939
loop_
_geom_bond_atom_site_label_1
_geom_bond_atom_site_label_2
_geom_bond_site_symmetry_1
_geom_bond_site_symmetry_2
Mn1 N2 1_555 1_555
N1 N2 1_555 1_555
N2 C1 1_555 1_555
N3 N4 1_555 1_555
N4 H3 1_555 1_555
N5 N6 1_555 1_555
N6 Mn1 1_555 1_555
N7 N8 1_555 1_555
N8 Mn1 1_555 1_555
N9 N10 1_555 1_555
N10 H8 1_555 1_555
N11 N12 1_555 1_555
N12 Mn1 1_555 1_555
C1 N3 1_555 1_555
C2 N1 1_555 1_555
H1 C2 1_555 1_555
C3 N7 1_555 1_555
H2 C3 1_555 1_555
C4 N8 1_555 1_555
H4 N4 1_555 1_555
H5 N5 1_555 1_555
H6 N6 1_555 1_555
H7 N6 1_555 1_555
H9 N10 1_555 1_555
H10 N11 1_555 1_555
H11 N12 1_555 1_555
H12 N12 1_555 1_555
Mn2 N13 1_555 1_555
N13 N14 1_555 1_555
N14 C5 1_555 1_555
N15 N16 1_555 1_555
N16 H15 1_555 1_555
N17 N18 1_555 1_555
N18 Mn2 1_555 1_555
N19 Mn2 1_555 1_555
N20 N19 1_555 1_555
N21 N22 1_555 1_555
N22 H20 1_555 1_555
N23 N24 1_555 1_555
N24 H23 1_555 1_555
C5 N15 1_555 1_555
H13 C5 1_555 1_555
C6 N13 1_555 1_555
C7 N19 1_555 1_555
H14 C7 1_555 1_555
C8 N20 1_555 1_555
H16 N16 1_555 1_555
H17 N17 1_555 1_555
H18 N18 1_555 1_555
H19 N18 1_555 1_555
H21 N22 1_555 1_555
H22 N23 1_555 1_555
H24 N24 1_555 1_555
O1 N25 1_555 1_555
O2 N25 1_555 1_555
O3 N25 1_555 1_555
O4 N26 1_555 1_555
O5 N26 1_555 1_555
O6 N26 1_555 1_555
O7 N27 1_555 1_555
O8 N27 1_555 1_555
O9 N27 1_555 1_555
O10 N28 1_555 1_555
O11 N28 1_555 1_555
O12 N28 1_555 1_555
O17 H27 1_555 1_555
H28 O17 1_555 1_555
O18 H29 1_555 1_555
H30 O18 1_555 1_555
Mn1A N7 1_555 1_555
Mn1A_2 N1 1_555 1_555
N1A Mn1 1_555 1_555
N7A Mn1 1_555 1_555
Mn2A N20 1_555 1_555
Mn2A_2 N14 1_555 1_555
N14A Mn2 1_555 1_555
N20A Mn2 1_555 1_555
N24A Mn2 1_555 1_555
N3 C2 1_555 1_555
N5 C1 1_555 1_555
N9 C3 1_555 1_555
N9 C4 1_555 1_555
N11 C4 1_555 1_555
N15 C6 1_555 1_555
N17 C6 1_555 1_555
N21 C7 1_555 1_555
N21 C8 1_555 1_555
N23 C8 1_555 1_555
N24 Mn2A 1_555 1_555

#END
