
#######################################################################
#
#                 Cambridge Crystallographic Data Centre
#                                CCDC 
#
#######################################################################
#
# If this CIF has been generated from an entry in the Cambridge 
# Structural Database, then it will include bibliographic, chemical, 
# crystal, experimental, refinement or atomic coordinate data resulting 
# from the CCDC's data processing and validation procedures.
#
#######################################################################

data_VOLJAH01
_symmetry_cell_setting           monoclinic
_symmetry_space_group_name_H-M   'C 2/m'
_symmetry_Int_Tables_number      12
_space_group_name_Hall           '-C 2y'
loop_
_symmetry_equiv_pos_site_id
_symmetry_equiv_pos_as_xyz
1 x,y,z
2 -x,y,-z
3 1/2+x,1/2+y,z
4 1/2-x,1/2+y,-z
5 -x,-y,-z
6 x,-y,z
7 1/2-x,1/2-y,-z
8 1/2+x,1/2-y,z
_cell_length_a                   13.074(6)
_cell_length_b                   20.080(6)
_cell_length_c                   3.690(3)
_cell_angle_alpha                90
_cell_angle_beta                 90.67(3)
_cell_angle_gamma                90
_cell_volume                     968.654
loop_
_atom_site_label
_atom_site_type_symbol
_atom_site_fract_x
_atom_site_fract_y
_atom_site_fract_z
C1 C 0.5000 0.8672(4) 1.0000
O1 O 0.5000 0.9295(2) 1.0000
C2 C 0.4151(4) 0.8271(3) 0.861(1)
N1 N 0.3249(4) 0.8592(2) 0.713(1)
O2 O 0.3307(4) 0.9155(2) 0.593(1)
O3 O 0.2451(3) 0.8282(3) 0.706(1)
C3 C 0.4163(4) 0.7584(3) 0.861(1)
C4 C 0.5000 0.7248(4) 1.0000
N2 N 0.5000 0.6521(3) 1.0000
O4 O 0.4316(4) 0.6235(2) 0.840(1)
Na1 Na 0.5000 1.0000 0.5000
Na2 Na 0.5000 0.5000 1.0000
O5 O 0.6278(5) 0.5000 0.541(2)
H1 H 0.659(6) 0.537(4) 0.59(3)
H2 H 0.358(4) 0.737(3) 0.83(2)
O1_2 O 0.5000 0.9295(2) 0.0000
C1_2 C 0.5000 0.8672(4) 0.0000
C2_2 C 0.4151(4) 0.8271(3) -0.139(1)
N1_2 N 0.3249(4) 0.8592(2) -0.287(1)
O2_2 O 0.3307(4) 0.9155(2) -0.407(1)
Na1_2 Na 0.5000 1.0000 -0.5000
O1D O 0.5000 1.0705(2) 0.0000
O3_2 O 0.2451(3) 0.8282(3) -0.294(1)
C3_2 C 0.4163(4) 0.7584(3) -0.139(1)
C4_2 C 0.5000 0.7248(4) 0.0000
H2_2 H 0.358(4) 0.737(3) -0.17(2)
C2A C 0.5849(4) 0.8271(3) 0.139(1)
N1A N 0.6751(4) 0.8592(2) 0.287(1)
O2A O 0.6693(4) 0.9155(2) 0.407(1)
O3A O 0.7549(3) 0.8282(3) 0.294(1)
C3A C 0.5837(4) 0.7584(3) 0.139(1)
H2A H 0.642(4) 0.737(3) 0.17(2)
O1D_2 O 0.5000 1.0705(2) 1.0000
Na1_3 Na 0.5000 1.0000 1.5000
C2A_2 C 0.5849(4) 0.8271(3) 1.139(1)
N1A_2 N 0.6751(4) 0.8592(2) 1.287(1)
O2A_2 O 0.6693(4) 0.9155(2) 1.407(1)
O3A_2 O 0.7549(3) 0.8282(3) 1.294(1)
C3A_2 C 0.5837(4) 0.7584(3) 1.139(1)
H2A_2 H 0.642(4) 0.737(3) 1.17(2)
O4A O 0.5684(4) 0.6235(2) 1.160(1)
O4D O 0.5684(4) 0.3765(2) 1.160(1)
O4E O 0.4316(4) 0.3765(2) 0.840(1)
O5_2 O 0.6278(5) 0.5000 1.541(2)
O5A O 0.3722(5) 0.5000 0.459(2)
O5A_2 O 0.3722(5) 0.5000 1.459(2)
Na2_2 Na 0.5000 0.5000 0.0000
H1E H 0.659(6) 0.463(4) 0.59(3)
O4_2 O 0.4316(4) 0.6235(2) -0.160(1)
N2_2 N 0.5000 0.6521(3) 0.0000
O4A_2 O 0.5684(4) 0.6235(2) 0.160(1)
H1A H 0.341(6) 0.537(4) 0.41(3)
H1D H 0.341(6) 0.463(4) 0.41(3)
O2D O 0.6693(4) 1.0845(2) 0.407(1)
O2E O 0.3307(4) 1.0845(2) 0.593(1)
H1_2 H 0.659(6) 0.537(4) 1.59(3)
H1E_2 H 0.659(6) 0.463(4) 1.59(3)
H1A_2 H 0.341(6) 0.537(4) 1.41(3)
H1D_2 H 0.341(6) 0.463(4) 1.41(3)
loop_
_geom_bond_atom_site_label_1
_geom_bond_atom_site_label_2
_geom_bond_site_symmetry_1
_geom_bond_site_symmetry_2
C1 O1 1_555 1_555
O1 Na1 1_555 1_555
C2 C1 1_555 1_555
N1 C2 1_555 1_555
O2 N1 1_555 1_555
O3 N1 1_555 1_555
C3 C2 1_555 1_555
C4 C3 1_555 1_555
N2 C4 1_555 1_555
O4 N2 1_555 1_555
Na1 O2 1_555 1_555
Na2 O4 1_555 1_555
O5 Na2 1_555 1_555
H1 O5 1_555 1_555
H2 C3 1_555 1_555
O1_2 Na1 1_555 1_555
C1_2 O1_2 1_555 1_555
C2_2 C1_2 1_555 1_555
N1_2 C2_2 1_555 1_555
O2_2 N1_2 1_555 1_555
Na1_2 O1_2 1_555 1_555
O1D Na1 1_555 1_555
O3_2 N1_2 1_555 1_555
C3_2 C2_2 1_555 1_555
C4_2 C3_2 1_555 1_555
H2_2 C3_2 1_555 1_555
C2A C1_2 1_555 1_555
N1A C2A 1_555 1_555
O2A Na1 1_555 1_555
O3A N1A 1_555 1_555
C3A C4_2 1_555 1_555
H2A C3A 1_555 1_555
O1D_2 Na1 1_555 1_555
Na1_3 O1 1_555 1_555
C2A_2 C1 1_555 1_555
N1A_2 C2A_2 1_555 1_555
O2A_2 Na1_3 1_555 1_555
O3A_2 N1A_2 1_555 1_555
C3A_2 C4 1_555 1_555
H2A_2 C3A_2 1_555 1_555
O4A N2 1_555 1_555
O4D Na2 1_555 1_555
O4E Na2 1_555 1_555
O5_2 Na2 1_555 1_555
O5A Na2 1_555 1_555
O5A_2 Na2 1_555 1_555
Na2_2 O5 1_555 1_555
H1E O5 1_555 1_555
O4_2 Na2_2 1_555 1_555
N2_2 C4_2 1_555 1_555
O4A_2 Na2_2 1_555 1_555
H1A O5A 1_555 1_555
H1D O5A 1_555 1_555
O2D Na1 1_555 1_555
O2E Na1 1_555 1_555
H1_2 O5_2 1_555 1_555
H1E_2 O5_2 1_555 1_555
H1A_2 O5A_2 1_555 1_555
H1D_2 O5A_2 1_555 1_555
Na2 O4A 1_555 1_555
O2_2 Na1_2 1_555 1_555
Na1_2 O1D 1_555 1_555
C2A C3A 1_555 1_555
N1A O2A 1_555 1_555
O1D_2 Na1_3 1_555 1_555
C2A_2 C3A_2 1_555 1_555
N1A_2 O2A_2 1_555 1_555
O5A Na2_2 1_555 1_555
O4_2 N2_2 1_555 1_555
N2_2 O4A_2 1_555 1_555

#END
