
#######################################################################
#
#                 Cambridge Crystallographic Data Centre
#                                CCDC 
#
#######################################################################
#
# If this CIF has been generated from an entry in the Cambridge 
# Structural Database, then it will include bibliographic, chemical, 
# crystal, experimental, refinement or atomic coordinate data resulting 
# from the CCDC's data processing and validation procedures.
#
#######################################################################

data_VOLKEN
_symmetry_cell_setting           tetragonal
_symmetry_space_group_name_H-M   'P -4'
_symmetry_Int_Tables_number      81
_space_group_name_Hall           'P -4'
loop_
_symmetry_equiv_pos_site_id
_symmetry_equiv_pos_as_xyz
1 x,y,z
2 -x,-y,z
3 y,-x,-z
4 -y,x,-z
_cell_length_a                   14.3550(9)
_cell_length_b                   14.3550(9)
_cell_length_c                   16.474
_cell_angle_alpha                90
_cell_angle_beta                 90
_cell_angle_gamma                90
_cell_volume                     3394.73
loop_
_atom_site_label
_atom_site_type_symbol
_atom_site_fract_x
_atom_site_fract_y
_atom_site_fract_z
Cu1 Cu 0.5000 0.5000 -0.23719(16)
Cu2 Cu 0.0000 0.0000 -0.76264(19)
Mo1 Mo 0.58995(5) 0.91391(5) -0.25648(8)
Mo2 Mo 0.40523(12) 0.93023(10) -0.11503(7)
Mo3 Mo 0.40438(10) 0.92816(10) -0.39463(7)
Mo4 Mo 0.39627(6) 0.76929(5) -0.25333(11)
C1 C 0.4222(12) 0.3989(13) -0.3807(10)
H1 H 0.4782 0.3693 -0.3924
C2 C 0.3195(10) 0.4859(9) -0.3292(10)
H2 H 0.2888 0.5299 -0.2976
C3 C 0.2815(12) 0.4413(13) -0.3902(12)
H3 H 0.2199 0.4478 -0.4068
C4 C 0.1674(16) -0.0610(13) -0.6717(13)
H4 H 0.1753 -0.1152 -0.7020
C5 C 0.2263(14) -0.0276(13) -0.6167(13)
H5 H 0.2842 -0.0525 -0.6038
C6 C 0.1119(17) 0.0631(16) -0.6253(16)
H6 H 0.0743 0.1154 -0.6196
C7 C 0.2140(18) 0.1061(16) -0.5096(11)
H7 H 0.1594 0.1353 -0.4860
H8 H 0.2432 0.0672 -0.4688
C8 C 0.2797(15) 0.1772(17) -0.5390(12)
H9 H 0.2476 0.2211 -0.5740
H10 H 0.3291 0.1480 -0.5701
C9 C 0.319(2) 0.2260(13) -0.4683(12)
H11 H 0.2762 0.2232 -0.4229
H12 H 0.3774 0.1975 -0.4522
C10 C 0.3342(12) 0.3225(12) -0.4930(12)
H13 H 0.2829 0.3421 -0.5272
H14 H 0.3908 0.3259 -0.5250
C11 C 0.1762(17) 0.0777(12) 0.1578(11)
H15 H 0.1841 0.1227 0.1979
C12 C 0.2005(15) -0.0086(13) 0.0551(10)
H16 H 0.2300 -0.0355 0.0107
C13 C 0.1211(14) -0.0340(11) 0.0876(11)
H17 H 0.0831 -0.0805 0.0665
C14 C 0.3141(15) 0.1214(13) 0.0871(11)
H18 H 0.3683 0.0824 0.0961
H19 H 0.3153 0.1705 0.1276
C15 C 0.3226(12) 0.1652(13) 0.0050(11)
H20 H 0.3858 0.1875 -0.0027
H21 H 0.3097 0.1190 -0.0365
C16 C 0.2576(13) 0.2426(12) -0.0031(12)
H22 H 0.2775 0.2901 0.0351
H23 H 0.1976 0.2203 0.0157
C17 C 0.3705(10) 0.3758(9) -0.1562(8)
H24 H 0.3843 0.3302 -0.1944
C18 C 0.3768(9) 0.4996(9) -0.0895(9)
H25 H 0.3959 0.5582 -0.0722
C19 C 0.3050(11) 0.4477(11) -0.0541(9)
H26 H 0.2678 0.4640 -0.0100
C20 C 0.2408(11) 0.2911(10) -0.0828(9)
H27 H 0.2473 0.2459 -0.1262
H28 H 0.1771 0.3135 -0.0838
O1 O 0.4184(5) 0.6538(4) -0.2521(9)
O2 O 0.2799(5) 0.7768(4) -0.2551(9)
O3 O 0.5530(4) 0.7979(4) -0.2556(8)
O4 O 0.7079(4) 0.9044(4) -0.2555(8)
O5 O 0.5650(8) 0.9409(7) -0.3700(5)
O6 O 0.5633(8) 0.9369(8) -0.1418(5)
O7 O 0.4257(4) 0.9374(3) -0.2559(6)
O8 O 0.2884(8) 0.9470(9) -0.1206(7)
O9 O 0.4214(8) 0.8017(7) -0.1442(5)
O10 O 0.4278(9) 0.9261(8) -0.0162(5)
O11 O 0.4197(8) 0.8048(8) -0.3648(5)
O12 O 0.2852(7) 0.9378(8) -0.3891(7)
O13 O 0.4280(8) 0.9243(7) -0.4947(5)
N1 N 0.4095(9) 0.4597(8) -0.3179(7)
N2 N 0.3420(10) 0.3871(10) -0.4240(9)
N3 N 0.0952(13) -0.0031(15) -0.6758(10)
N4 N 0.1874(16) 0.0489(12) -0.5828(10)
N5 N 0.1008(12) 0.0149(12) 0.1549(9)
N6 N 0.2309(12) 0.0653(12) 0.1001(9)
N7 N 0.3017(9) 0.3677(9) -0.0989(8)
N8 N 0.4135(8) 0.4532(8) -0.1509(6)
O14 O 0.0101(11) 0.1568(12) -0.7692(18)
Cu1_2 Cu 0.5000 1.5000 -0.23719(16)
Cu2_2 Cu 0.0000 0.0000 0.23736(19)
Cu2_3 Cu 1.0000 1.0000 -0.76264(19)
Cu2_4 Cu 1.0000 1.0000 0.23736(19)
Mo1A Mo 0.41005(5) 1.08609(5) -0.25648(8)
Mo2A Mo 0.59477(12) 1.06977(10) -0.11503(7)
Mo3A Mo 0.59562(10) 1.07184(10) -0.39463(7)
Mo4A Mo 0.60373(6) 1.23071(5) -0.25333(11)
C1A C 0.5778(12) 0.6011(13) -0.3807(10)
H1A H 0.5218 0.6307 -0.3924
C2A C 0.6805(10) 0.5141(9) -0.3292(10)
H2A H 0.7112 0.4701 -0.2976
C3A C 0.7185(12) 0.5587(13) -0.3902(12)
H3A H 0.7801 0.5522 -0.4068
C4A C 0.8326(16) 1.0610(13) -0.6717(13)
H4A H 0.8247 1.1152 -0.7020
C5A C 0.7737(14) 1.0276(13) -0.6167(13)
H5A H 0.7158 1.0525 -0.6038
C6A C 0.8881(17) 0.9369(16) -0.6253(16)
H6A H 0.9257 0.8846 -0.6196
C7A C 0.7860(18) 0.8939(16) -0.5096(11)
H7A H 0.8406 0.8647 -0.4860
H8A H 0.7568 0.9328 -0.4688
C8A C 0.7203(15) 0.8228(17) -0.5390(12)
H9A H 0.7524 0.7789 -0.5740
H10A H 0.6709 0.8520 -0.5701
C9A C 0.681(2) 0.7740(13) -0.4683(12)
H11A H 0.7238 0.7768 -0.4229
H12A H 0.6226 0.8025 -0.4522
C10A C 0.6658(12) 0.6775(12) -0.4930(12)
H13A H 0.7171 0.6579 -0.5272
H14A H 0.6092 0.6741 -0.5250
C11A C 0.8238(17) 0.9223(12) 0.1578(11)
H15A H 0.8159 0.8773 0.1979
C12A C 0.7995(15) 1.0086(13) 0.0551(10)
H16A H 0.7700 1.0355 0.0107
C13A C 0.8789(14) 1.0340(11) 0.0876(11)
H17A H 0.9169 1.0805 0.0665
C14A C 0.6859(15) 0.8786(13) 0.0871(11)
H18A H 0.6317 0.9176 0.0961
H19A H 0.6847 0.8295 0.1276
C15A C 0.6774(12) 0.8348(13) 0.0050(11)
H20A H 0.6142 0.8125 -0.0027
H21A H 0.6903 0.8810 -0.0365
C16A C 0.7424(13) 0.7574(12) -0.0031(12)
H22A H 0.7225 0.7099 0.0351
H23A H 0.8024 0.7797 0.0157
C17A C 0.6295(10) 0.6242(9) -0.1562(8)
H24A H 0.6157 0.6698 -0.1944
C18A C 0.6232(9) 0.5004(9) -0.0895(9)
H25A H 0.6041 0.4418 -0.0722
C19A C 0.6950(11) 0.5523(11) -0.0541(9)
H26A H 0.7322 0.5360 -0.0100
C20A C 0.7592(11) 0.7089(10) -0.0828(9)
H27A H 0.7527 0.7541 -0.1262
H28A H 0.8229 0.6865 -0.0838
O1A O 0.5816(5) 0.3462(4) -0.2521(9)
O1A_2 O 0.5816(5) 1.3462(4) -0.2521(9)
O2A O 0.7201(5) 1.2232(4) -0.2551(9)
O3A O 0.4470(4) 1.2021(4) -0.2556(8)
O4A O 0.2921(4) 1.0956(4) -0.2555(8)
O5A O 0.4350(8) 1.0591(7) -0.3700(5)
O6A O 0.4367(8) 1.0631(8) -0.1418(5)
O7A O 0.5743(4) 1.0626(3) -0.2559(6)
O8A O 0.7116(8) 1.0530(9) -0.1206(7)
O9A O 0.5786(8) 1.1983(7) -0.1442(5)
O10A O 0.5722(9) 1.0739(8) -0.0162(5)
O11A O 0.5803(8) 1.1952(8) -0.3648(5)
O12A O 0.7148(7) 1.0622(8) -0.3891(7)
O13A O 0.5720(8) 1.0757(7) -0.4947(5)
N1A N 0.5905(9) 0.5403(8) -0.3179(7)
N2A N 0.6580(10) 0.6129(10) -0.4240(9)
N3A N 0.9048(13) 1.0031(15) -0.6758(10)
N3A_2 N -0.0952(13) 0.0031(15) -0.6758(10)
N4A N 0.8126(16) 0.9511(12) -0.5828(10)
N5A N 0.8992(12) 0.9851(12) 0.1549(9)
N5_2 N 0.1008(12) 0.0149(12) -0.8451(9)
N5A_2 N -0.1008(12) -0.0149(12) -0.8451(9)
N6A N 0.7691(12) 0.9347(12) 0.1001(9)
N7A N 0.6983(9) 0.6323(9) -0.0989(8)
N8A N 0.5865(8) 0.5468(8) -0.1509(6)
O14A O -0.0101(11) -0.1568(12) -0.7692(18)
loop_
_geom_bond_atom_site_label_1
_geom_bond_atom_site_label_2
_geom_bond_site_symmetry_1
_geom_bond_site_symmetry_2
Cu1 O1 1_555 1_555
Cu2 N3 1_555 1_555
Mo1 O3 1_555 1_555
Mo2 O6 1_555 1_555
Mo3 O5 1_555 1_555
Mo4 O1 1_555 1_555
C1 H1 1_555 1_555
C2 H2 1_555 1_555
C3 C2 1_555 1_555
H3 C3 1_555 1_555
C4 H4 1_555 1_555
C5 C4 1_555 1_555
H5 C5 1_555 1_555
C6 H6 1_555 1_555
C7 H7 1_555 1_555
H8 C7 1_555 1_555
C8 C7 1_555 1_555
H9 C8 1_555 1_555
H10 C8 1_555 1_555
C9 C8 1_555 1_555
H11 C9 1_555 1_555
H12 C9 1_555 1_555
C10 C9 1_555 1_555
H13 C10 1_555 1_555
H14 C10 1_555 1_555
C11 H15 1_555 1_555
C12 H16 1_555 1_555
C13 C12 1_555 1_555
H17 C13 1_555 1_555
C14 H18 1_555 1_555
H19 C14 1_555 1_555
C15 C14 1_555 1_555
H20 C15 1_555 1_555
H21 C15 1_555 1_555
C16 C15 1_555 1_555
H22 C16 1_555 1_555
H23 C16 1_555 1_555
C17 H24 1_555 1_555
C18 H25 1_555 1_555
C19 C18 1_555 1_555
H26 C19 1_555 1_555
C20 C16 1_555 1_555
H27 C20 1_555 1_555
H28 C20 1_555 1_555
O2 Mo4 1_555 1_555
O3 Mo4 1_555 1_555
O4 Mo1 1_555 1_555
O5 Mo1 1_555 1_555
O6 Mo1 1_555 1_555
O7 Mo1 1_555 1_555
O8 Mo2 1_555 1_555
O9 Mo2 1_555 1_555
O10 Mo2 1_555 1_555
O11 Mo3 1_555 1_555
O12 Mo3 1_555 1_555
O13 Mo3 1_555 1_555
N1 Cu1 1_555 1_555
N2 C1 1_555 1_555
N3 C4 1_555 1_555
N4 C5 1_555 1_555
N5 C11 1_555 1_555
N6 C11 1_555 1_555
N7 C17 1_555 1_555
N8 Cu1 1_555 1_555
O14 Cu2 1_555 1_555
Cu1_2 O1A_2 1_555 1_555
Cu2_2 N5 1_555 1_555
Cu2_3 N3A 1_555 1_555
Cu2_4 N5A 1_555 1_555
Mo1A O7 1_555 1_555
Mo2A O6 1_555 1_555
Mo3A O5 1_555 1_555
Mo4A O1A_2 1_555 1_555
C1A H1A 1_555 1_555
C2A H2A 1_555 1_555
C3A C2A 1_555 1_555
H3A C3A 1_555 1_555
C4A H4A 1_555 1_555
C5A C4A 1_555 1_555
H5A C5A 1_555 1_555
C6A H6A 1_555 1_555
C7A H7A 1_555 1_555
H8A C7A 1_555 1_555
C8A C7A 1_555 1_555
H9A C8A 1_555 1_555
H10A C8A 1_555 1_555
C9A C8A 1_555 1_555
H11A C9A 1_555 1_555
H12A C9A 1_555 1_555
C10A C9A 1_555 1_555
H13A C10A 1_555 1_555
H14A C10A 1_555 1_555
C11A H15A 1_555 1_555
C12A H16A 1_555 1_555
C13A C12A 1_555 1_555
H17A C13A 1_555 1_555
C14A H18A 1_555 1_555
H19A C14A 1_555 1_555
C15A C14A 1_555 1_555
H20A C15A 1_555 1_555
H21A C15A 1_555 1_555
C16A C15A 1_555 1_555
H22A C16A 1_555 1_555
H23A C16A 1_555 1_555
C17A H24A 1_555 1_555
C18A H25A 1_555 1_555
C19A C18A 1_555 1_555
H26A C19A 1_555 1_555
C20A C16A 1_555 1_555
H27A C20A 1_555 1_555
H28A C20A 1_555 1_555
O1A Cu1 1_555 1_555
O2A Mo4A 1_555 1_555
O3A Mo1A 1_555 1_555
O4A Mo1A 1_555 1_555
O5A Mo3 1_555 1_555
O6A Mo2 1_555 1_555
O7A Mo1 1_555 1_555
O8A Mo2A 1_555 1_555
O9A Mo2A 1_555 1_555
O10A Mo2A 1_555 1_555
O11A Mo3A 1_555 1_555
O12A Mo3A 1_555 1_555
O13A Mo3A 1_555 1_555
N1A Cu1 1_555 1_555
N2A C1A 1_555 1_555
N3A C4A 1_555 1_555
N3A_2 Cu2 1_555 1_555
N4A C5A 1_555 1_555
N5A C11A 1_555 1_555
N5_2 Cu2 1_555 1_555
N5A_2 Cu2 1_555 1_555
N6A C11A 1_555 1_555
N7A C17A 1_555 1_555
N8A Cu1 1_555 1_555
O14A Cu2 1_555 1_555
Mo2 O7 1_555 1_555
Mo3 O7 1_555 1_555
Mo4 O7 1_555 1_555
Mo4 O9 1_555 1_555
Mo4 O11 1_555 1_555
C1 N1 1_555 1_555
C2 N1 1_555 1_555
C3 N2 1_555 1_555
C6 N3 1_555 1_555
C6 N4 1_555 1_555
C7 N4 1_555 1_555
C10 N2 1_555 1_555
C12 N6 1_555 1_555
C13 N5 1_555 1_555
C14 N6 1_555 1_555
C17 N8 1_555 1_555
C18 N8 1_555 1_555
C19 N7 1_555 1_555
C20 N7 1_555 1_555
Mo1A O5A 1_555 1_555
Mo1A O6A 1_555 1_555
Mo1A O7A 1_555 1_555
Mo2A O6A 1_555 1_555
Mo2A O7A 1_555 1_555
Mo3A O5A 1_555 1_555
Mo3A O7A 1_555 1_555
Mo4A O3A 1_555 1_555
Mo4A O7A 1_555 1_555
Mo4A O9A 1_555 1_555
Mo4A O11A 1_555 1_555
C1A N1A 1_555 1_555
C2A N1A 1_555 1_555
C3A N2A 1_555 1_555
C6A N3A 1_555 1_555
C6A N4A 1_555 1_555
C7A N4A 1_555 1_555
C10A N2A 1_555 1_555
C12A N6A 1_555 1_555
C13A N5A 1_555 1_555
C14A N6A 1_555 1_555
C17A N8A 1_555 1_555
C18A N8A 1_555 1_555
C19A N7A 1_555 1_555
C20A N7A 1_555 1_555

#END
