
#######################################################################
#
#                 Cambridge Crystallographic Data Centre
#                                CCDC 
#
#######################################################################
#
# If this CIF has been generated from an entry in the Cambridge 
# Structural Database, then it will include bibliographic, chemical, 
# crystal, experimental, refinement or atomic coordinate data resulting 
# from the CCDC's data processing and validation procedures.
#
#######################################################################

data_VOLQAQ
_symmetry_cell_setting           tetragonal
_symmetry_space_group_name_H-M   'I 4 c m'
_symmetry_Int_Tables_number      108
_space_group_name_Hall           'I 4 -2c'
loop_
_symmetry_equiv_pos_site_id
_symmetry_equiv_pos_as_xyz
1 x,y,z
2 -x,-y,z
3 -y,x,z
4 y,-x,z
5 -x,y,1/2+z
6 x,-y,1/2+z
7 y,x,1/2+z
8 -y,-x,1/2+z
9 1/2+x,1/2+y,1/2+z
10 1/2-x,1/2-y,1/2+z
11 1/2-y,1/2+x,1/2+z
12 1/2+y,1/2-x,1/2+z
13 1/2-x,1/2+y,z
14 1/2+x,1/2-y,z
15 1/2+y,1/2+x,z
16 1/2-y,1/2-x,z
_cell_length_a                   21.682(11)
_cell_length_b                   21.682(11)
_cell_length_c                   15.696(8)
_cell_angle_alpha                90
_cell_angle_beta                 90
_cell_angle_gamma                90
_cell_volume                     7378.83
loop_
_atom_site_label
_atom_site_type_symbol
_atom_site_fract_x
_atom_site_fract_y
_atom_site_fract_z
F1 F 0.0000 0.0000 0.5186(5)
F2 F -0.02147(19) 0.07449(16) 0.4087(5)
F3 F 0.0000 0.0000 0.3023(6)
C1 C -0.0938(4) 0.0877(4) 0.5993(5)
H1 H -0.0940 0.0627 0.5496
C2 C -0.1358(5) 0.1355(5) 0.6051(6)
H2 H -0.1650 0.1410 0.5606
C3 C -0.1367(4) 0.1731(4) 0.6696(7)
C4 C -0.0913(4) 0.1664(4) 0.7326(6)
H3 H -0.0885 0.1948 0.7785
C5 C -0.0494(4) 0.1159(4) 0.7261(5)
H4 H -0.0183 0.1100 0.7680
C6 C -0.1850(5) 0.2240(5) 0.6773(6)
C7 C -0.1822(5) 0.2705(5) 0.6275(7)
H5 H -0.1482 0.2742 0.5895
C8 C -0.2341(5) 0.2199(5) 0.7393(7)
C9 C -0.2472(6) 0.1707(5) 0.8055(7)
C10 C -0.2548(6) 0.1054(5) 0.7721(8)
H6 H -0.2783 0.1062 0.7187
H7 H -0.2770 0.0805 0.8142
H8 H -0.2141 0.0873 0.7617
C11 C -0.2047(5) 0.1695(6) 0.8860(7)
H9 H -0.1677 0.1452 0.8738
H10 H -0.2271 0.1509 0.9338
H11 H -0.1928 0.2118 0.9009
Cu1 Cu 0.0000 0.0000 0.66057(14)
Si1 Si 0.0000 0.0000 0.4107(4)
N1 N -0.0545(2) 0.0757(2) 0.6586(5)
N2 N -0.3066(5) 0.1934(5) 0.8412(10)
O1 O -0.3359(6) 0.1641(6) 0.9000(11)
F2A F 0.02147(19) -0.07449(16) 0.4087(5)
F2B F -0.07449(16) -0.02147(19) 0.4087(5)
F2C F 0.07449(16) 0.02147(19) 0.4087(5)
C1N C -0.4123(4) 0.4062(4) 0.5993(5)
H1N H -0.4373 0.4060 0.5496
C2N C -0.3645(5) 0.3642(5) 0.6051(6)
H2N H -0.3590 0.3350 0.5606
C3N C -0.3269(4) 0.3633(4) 0.6696(7)
C4N C -0.3336(4) 0.4087(4) 0.7326(6)
H3N H -0.3052 0.4115 0.7785
C5N C -0.3841(4) 0.4506(4) 0.7261(5)
H4N H -0.3900 0.4817 0.7680
C6N C -0.2760(5) 0.3150(5) 0.6773(6)
C7N C -0.2295(5) 0.3178(5) 0.6275(7)
H5N H -0.2258 0.3518 0.5895
C8N C -0.2801(5) 0.2659(5) 0.7393(7)
C9N C -0.3293(5) 0.2528(6) 0.8055(7)
C10N C -0.3946(5) 0.2452(6) 0.7721(8)
H6N H -0.3938 0.2217 0.7187
H7N H -0.4195 0.2230 0.8142
H8N H -0.4127 0.2859 0.7617
C11N C -0.3305(6) 0.2953(5) 0.8860(7)
H9N H -0.3548 0.3323 0.8738
H10N H -0.3491 0.2729 0.9338
H11N H -0.2882 0.3072 0.9009
N1N N -0.4243(2) 0.4455(2) 0.6586(5)
C1A C 0.0938(4) -0.0877(4) 0.5993(5)
H1A H 0.0940 -0.0627 0.5496
C2A C 0.1358(5) -0.1355(5) 0.6051(6)
H2A H 0.1650 -0.1410 0.5606
C3A C 0.1367(4) -0.1731(4) 0.6696(7)
C4A C 0.0913(4) -0.1664(4) 0.7326(6)
H3A H 0.0885 -0.1948 0.7785
C5A C 0.0494(4) -0.1159(4) 0.7261(5)
H4A H 0.0183 -0.1100 0.7680
C6A C 0.1850(5) -0.2240(5) 0.6773(6)
C7A C 0.1822(5) -0.2705(5) 0.6275(7)
H5A H 0.1482 -0.2742 0.5895
C8A C 0.2341(5) -0.2199(5) 0.7393(7)
C9A C 0.2472(6) -0.1707(5) 0.8055(7)
C10A C 0.2548(6) -0.1054(5) 0.7721(8)
H6A H 0.2783 -0.1062 0.7187
H7A H 0.2770 -0.0805 0.8142
H8A H 0.2141 -0.0873 0.7617
C11A C 0.2047(5) -0.1695(6) 0.8860(7)
H9A H 0.1677 -0.1452 0.8738
H10A H 0.2271 -0.1509 0.9338
H11A H 0.1928 -0.2118 0.9009
N1A N 0.0545(2) -0.0757(2) 0.6586(5)
N2A N 0.3066(5) -0.1934(5) 0.8412(10)
O1A O 0.3359(6) -0.1641(6) 0.9000(11)
C1O C 0.4123(4) -0.4062(4) 0.5993(5)
H1O H 0.4373 -0.4060 0.5496
C2O C 0.3645(5) -0.3642(5) 0.6051(6)
H2O H 0.3590 -0.3350 0.5606
C3O C 0.3269(4) -0.3633(4) 0.6696(7)
C4O C 0.3336(4) -0.4087(4) 0.7326(6)
H3O H 0.3052 -0.4115 0.7785
C5O C 0.3841(4) -0.4506(4) 0.7261(5)
H4O H 0.3900 -0.4817 0.7680
C6O C 0.2760(5) -0.3150(5) 0.6773(6)
C7O C 0.2295(5) -0.3178(5) 0.6275(7)
H5O H 0.2258 -0.3518 0.5895
C8O C 0.2801(5) -0.2659(5) 0.7393(7)
C9O C 0.3293(5) -0.2528(6) 0.8055(7)
C10O C 0.3946(5) -0.2452(6) 0.7721(8)
H6O H 0.3938 -0.2217 0.7187
H7O H 0.4195 -0.2230 0.8142
H8O H 0.4127 -0.2859 0.7617
C11O C 0.3305(6) -0.2953(5) 0.8860(7)
H9O H 0.3548 -0.3323 0.8738
H10O H 0.3491 -0.2729 0.9338
H11O H 0.2882 -0.3072 0.9009
N1O N 0.4243(2) -0.4455(2) 0.6586(5)
F3D F 0.0000 0.0000 0.8023(6)
Cu1D Cu 0.0000 0.0000 0.16057(14)
Cu1L Cu -0.5000 0.5000 0.66057(14)
Cu1L_2 Cu 0.5000 -0.5000 0.66057(14)
N1B N -0.0757(2) -0.0545(2) 0.6586(5)
N1C N 0.0757(2) 0.0545(2) 0.6586(5)
O2 O 0.0251(7) 0.1947(6) 0.4399(10)
loop_
_geom_bond_atom_site_label_1
_geom_bond_atom_site_label_2
_geom_bond_site_symmetry_1
_geom_bond_site_symmetry_2
F1 Cu1 1_555 1_555
F2 Si1 1_555 1_555
F3 Si1 1_555 1_555
C1 H1 1_555 1_555
C2 C1 1_555 1_555
H2 C2 1_555 1_555
C3 C2 1_555 1_555
C4 C3 1_555 1_555
H3 C4 1_555 1_555
C5 C4 1_555 1_555
H4 C5 1_555 1_555
C6 C3 1_555 1_555
C7 C6 1_555 1_555
H5 C7 1_555 1_555
C8 C6 1_555 1_555
C9 C8 1_555 1_555
C10 C9 1_555 1_555
H6 C10 1_555 1_555
H7 C10 1_555 1_555
H8 C10 1_555 1_555
C11 C9 1_555 1_555
H9 C11 1_555 1_555
H10 C11 1_555 1_555
H11 C11 1_555 1_555
Cu1 N1 1_555 1_555
Si1 F1 1_555 1_555
N1 C1 1_555 1_555
N2 C9 1_555 1_555
O1 N2 1_555 1_555
F2A Si1 1_555 1_555
F2B Si1 1_555 1_555
F2C Si1 1_555 1_555
C1N H1N 1_555 1_555
C2N C1N 1_555 1_555
H2N C2N 1_555 1_555
C3N C2N 1_555 1_555
C4N C3N 1_555 1_555
H3N C4N 1_555 1_555
C5N C4N 1_555 1_555
H4N C5N 1_555 1_555
C6N C3N 1_555 1_555
C7N C7 1_555 1_555
H5N C7N 1_555 1_555
C8N C8 1_555 1_555
C9N N2 1_555 1_555
C10N C9N 1_555 1_555
H6N C10N 1_555 1_555
H7N C10N 1_555 1_555
H8N C10N 1_555 1_555
C11N C9N 1_555 1_555
H9N C11N 1_555 1_555
H10N C11N 1_555 1_555
H11N C11N 1_555 1_555
N1N C1N 1_555 1_555
C1A H1A 1_555 1_555
C2A C1A 1_555 1_555
H2A C2A 1_555 1_555
C3A C2A 1_555 1_555
C4A C3A 1_555 1_555
H3A C4A 1_555 1_555
C5A C4A 1_555 1_555
H4A C5A 1_555 1_555
C6A C3A 1_555 1_555
C7A C6A 1_555 1_555
H5A C7A 1_555 1_555
C8A C6A 1_555 1_555
C9A C8A 1_555 1_555
C10A C9A 1_555 1_555
H6A C10A 1_555 1_555
H7A C10A 1_555 1_555
H8A C10A 1_555 1_555
C11A C9A 1_555 1_555
H9A C11A 1_555 1_555
H10A C11A 1_555 1_555
H11A C11A 1_555 1_555
N1A Cu1 1_555 1_555
N2A C9A 1_555 1_555
O1A N2A 1_555 1_555
C1O H1O 1_555 1_555
C2O C1O 1_555 1_555
H2O C2O 1_555 1_555
C3O C2O 1_555 1_555
C4O C3O 1_555 1_555
H3O C4O 1_555 1_555
C5O C4O 1_555 1_555
H4O C5O 1_555 1_555
C6O C3O 1_555 1_555
C7O C7A 1_555 1_555
H5O C7O 1_555 1_555
C8O C8A 1_555 1_555
C9O N2A 1_555 1_555
C10O C9O 1_555 1_555
H6O C10O 1_555 1_555
H7O C10O 1_555 1_555
H8O C10O 1_555 1_555
C11O C9O 1_555 1_555
H9O C11O 1_555 1_555
H10O C11O 1_555 1_555
H11O C11O 1_555 1_555
N1O C1O 1_555 1_555
F3D Cu1 1_555 1_555
Cu1D F3 1_555 1_555
Cu1L N1N 1_555 1_555
Cu1L_2 N1O 1_555 1_555
N1B Cu1 1_555 1_555
N1C Cu1 1_555 1_555
C5 N1 1_555 1_555
C5N N1N 1_555 1_555
C6N C7N 1_555 1_555
C6N C8N 1_555 1_555
C8N C9N 1_555 1_555
C1A N1A 1_555 1_555
C5A N1A 1_555 1_555
C5O N1O 1_555 1_555
C6O C7O 1_555 1_555
C6O C8O 1_555 1_555
C8O C9O 1_555 1_555

#END
