
#######################################################################
#
#                 Cambridge Crystallographic Data Centre
#                                CCDC 
#
#######################################################################
#
# If this CIF has been generated from an entry in the Cambridge 
# Structural Database, then it will include bibliographic, chemical, 
# crystal, experimental, refinement or atomic coordinate data resulting 
# from the CCDC's data processing and validation procedures.
#
#######################################################################

data_VOLRAQ
_symmetry_cell_setting           tetragonal
_symmetry_space_group_name_H-M   'I -4 2 d'
_symmetry_Int_Tables_number      122
_space_group_name_Hall           'I -4 2bw'
loop_
_symmetry_equiv_pos_site_id
_symmetry_equiv_pos_as_xyz
1 x,y,z
2 y,-x,-z
3 -x,-y,z
4 -y,x,-z
5 1/2-x,y,3/4-z
6 1/2-y,-x,3/4+z
7 1/2+x,-y,3/4-z
8 1/2+y,x,3/4+z
9 1/2+x,1/2+y,1/2+z
10 1/2+y,1/2-x,1/2-z
11 1/2-x,1/2-y,1/2+z
12 1/2-y,1/2+x,1/2-z
13 -x,1/2+y,1/4-z
14 -y,1/2-x,1/4+z
15 x,1/2-y,1/4-z
16 y,1/2+x,1/4+z
_cell_length_a                   13.9578(4)
_cell_length_b                   13.9578(4)
_cell_length_c                   28.7133(11)
_cell_angle_alpha                90
_cell_angle_beta                 90
_cell_angle_gamma                90
_cell_volume                     5593.93
loop_
_atom_site_label
_atom_site_type_symbol
_atom_site_fract_x
_atom_site_fract_y
_atom_site_fract_z
Zn1 Zn 0.46566(7) 0.39091(7) 0.03849(3)
O1 O 0.5000 0.5000 0.0000
O2 O 0.5682(4) 0.3003(4) 0.0351(2)
O3 O 0.6814(5) 0.3625(5) -0.0125(3)
O4 O 1.0715(7) -0.0324(8) 0.3972(2)
C1 C 0.6539(6) 0.3065(6) 0.0188(3)
C2 C 0.7248(6) 0.2355(6) 0.0374(3)
C3 C 0.8184(6) 0.2306(7) 0.0191(3)
H1 H 0.8356 0.2686 -0.0070
C4 C 0.8857(6) 0.1697(7) 0.0394(3)
H2 H 0.9478 0.1648 0.0260
C5 C 0.8634(5) 0.1156(6) 0.0791(2)
C6 C 0.7679(5) 0.1210(7) 0.0972(3)
H3 H 0.7510 0.0857 0.1242
C7 C 0.7009(6) 0.1770(8) 0.0755(4)
H4 H 0.6367 0.1762 0.0864
C8 C 0.9322(5) 0.0540(6) 0.1032(2)
C9 C 1.0000 0.0000 0.0779(4)
H5 H 1.0000 0.0000 0.0448
C10 C 0.9344(6) 0.0555(6) 0.1505(2)
H6 H 0.8901 0.0954 0.1666
C11 C 1.0000 0.0000 0.1770(4)
C12 C 1.0000 0.0000 0.2276(3)
C13 C 1.0849(6) -0.0204(8) 0.2530(3)
H7 H 1.1431 -0.0328 0.2370
C14 C 1.0824(6) -0.0221(7) 0.3009(3)
H8 H 1.1388 -0.0389 0.3175
C15 C 1.0000 0.0000 0.3256(4)
C16 C 1.0000 0.0000 0.3759(4)
Zn1A Zn 0.39091(7) 0.53434(7) -0.03849(3)
Zn1B Zn 1.53434(7) -0.39091(7) 0.03849(3)
Zn1C Zn -0.39091(7) -0.53434(7) -0.03849(3)
Zn1B_2 Zn 0.53434(7) 0.60909(7) 0.03849(3)
Zn1C_2 Zn 0.60909(7) 0.46566(7) -0.03849(3)
Zn1K Zn 1.10909(7) -0.03434(7) 0.46151(3)
Zn1A_2 Zn 1.39091(7) -0.46566(7) -0.03849(3)
Zn1I Zn 0.89091(7) 0.03434(7) 0.46151(3)
Zn1H Zn -0.03434(7) -0.10909(7) -0.46151(3)
Zn1B_3 Zn -0.46566(7) -0.39091(7) 0.03849(3)
Zn1J Zn 0.03434(7) 0.10909(7) -0.46151(3)
O1_2 O 1.5000 -0.5000 0.0000
O1_3 O -0.5000 -0.5000 0.0000
O2B O 1.4318(4) -0.3003(4) 0.0351(2)
O2A O 0.3003(4) 0.4318(4) -0.0351(2)
O2C O -0.3003(4) -0.4318(4) -0.0351(2)
O3B O 1.3186(5) -0.3625(5) -0.0125(3)
O3A O 0.3625(5) 0.3186(5) 0.0125(3)
O3C O -0.3625(5) -0.3186(5) 0.0125(3)
O3B_2 O 0.3186(5) 0.6375(5) -0.0125(3)
O3C_2 O 1.6375(5) -0.3186(5) 0.0125(3)
O3_2 O -0.3186(5) -0.6375(5) -0.0125(3)
O4B O 0.9285(7) 0.0324(8) 0.3972(2)
O4A O -0.0324(8) -0.0715(7) -0.3972(2)
O4C O 0.0324(8) 0.0715(7) -0.3972(2)
O4I O 0.4676(8) 0.4285(7) 0.1028(2)
O4J O 0.4285(7) 0.5324(8) -0.1028(2)
O4K O 1.5324(8) -0.4285(7) 0.1028(2)
O4H O -0.4285(7) -0.5324(8) -0.1028(2)
C1B C 1.3461(6) -0.3065(6) 0.0188(3)
C1A C 0.3065(6) 0.3461(6) -0.0188(3)
C1C C -0.3065(6) -0.3461(6) -0.0188(3)
C2B C 1.2752(6) -0.2355(6) 0.0374(3)
C2A C 0.2355(6) 0.2752(6) -0.0374(3)
C2C C -0.2355(6) -0.2752(6) -0.0374(3)
C3B C 1.1816(6) -0.2306(7) 0.0191(3)
C3A C 0.2306(7) 0.1816(6) -0.0191(3)
C3C C -0.2306(7) -0.1816(6) -0.0191(3)
H1B H 1.1644 -0.2686 -0.0070
H1A H 0.2686 0.1644 0.0070
H1C H -0.2686 -0.1644 0.0070
C4B C 1.1143(6) -0.1697(7) 0.0394(3)
C4A C 0.1697(7) 0.1143(6) -0.0394(3)
C4C C -0.1697(7) -0.1143(6) -0.0394(3)
H2B H 1.0522 -0.1648 0.0260
H2A H 0.1648 0.0522 -0.0260
H2C H -0.1648 -0.0522 -0.0260
C5B C 1.1366(5) -0.1156(6) 0.0791(2)
C5A C 0.1156(6) 0.1366(5) -0.0791(2)
C5C C -0.1156(6) -0.1366(5) -0.0791(2)
C6B C 1.2321(5) -0.1210(7) 0.0972(3)
C6A C 0.1210(7) 0.2321(5) -0.0972(3)
C6C C -0.1210(7) -0.2321(5) -0.0972(3)
H3B H 1.2490 -0.0857 0.1242
H3A H 0.0857 0.2490 -0.1242
H3C H -0.0857 -0.2490 -0.1242
C7B C 1.2991(6) -0.1770(8) 0.0755(4)
C7A C 0.1770(8) 0.2991(6) -0.0755(4)
C7C C -0.1770(8) -0.2991(6) -0.0755(4)
H4B H 1.3633 -0.1762 0.0864
H4A H 0.1762 0.3633 -0.0864
H4C H -0.1762 -0.3633 -0.0864
C8B C 1.0678(5) -0.0540(6) 0.1032(2)
C8A C 0.0540(6) 0.0678(5) -0.1032(2)
C8C C -0.0540(6) -0.0678(5) -0.1032(2)
C9A C 0.0000 0.0000 -0.0779(4)
H5A H 0.0000 0.0000 -0.0448
C10B C 1.0656(6) -0.0555(6) 0.1505(2)
C10A C 0.0555(6) 0.0656(6) -0.1505(2)
C10C C -0.0555(6) -0.0656(6) -0.1505(2)
H6B H 1.1099 -0.0954 0.1666
H6A H 0.0954 0.1099 -0.1666
H6C H -0.0954 -0.1099 -0.1666
C11A C 0.0000 0.0000 -0.1770(4)
C12A C 0.0000 0.0000 -0.2276(3)
C13B C 0.9151(6) 0.0204(8) 0.2530(3)
C13A C -0.0204(8) -0.0849(6) -0.2530(3)
C13C C 0.0204(8) 0.0849(6) -0.2530(3)
H7B H 0.8569 0.0328 0.2370
H7A H -0.0328 -0.1431 -0.2370
H7C H 0.0328 0.1431 -0.2370
C14B C 0.9176(6) 0.0221(7) 0.3009(3)
C14A C -0.0221(7) -0.0824(6) -0.3009(3)
C14C C 0.0221(7) 0.0824(6) -0.3009(3)
H8B H 0.8612 0.0389 0.3175
H8A H -0.0389 -0.1388 -0.3175
H8C H 0.0389 0.1388 -0.3175
C15A C 0.0000 0.0000 -0.3256(4)
C16A C 0.0000 0.0000 -0.3759(4)
loop_
_geom_bond_atom_site_label_1
_geom_bond_atom_site_label_2
_geom_bond_site_symmetry_1
_geom_bond_site_symmetry_2
Zn1 O1 1_555 1_555
O1 Zn1A 1_555 1_555
O2 Zn1 1_555 1_555
O3 C1 1_555 1_555
O4 C16 1_555 1_555
C1 O2 1_555 1_555
C2 C1 1_555 1_555
C3 C2 1_555 1_555
H1 C3 1_555 1_555
C4 C3 1_555 1_555
H2 C4 1_555 1_555
C5 C4 1_555 1_555
C6 C5 1_555 1_555
H3 C6 1_555 1_555
C7 C2 1_555 1_555
H4 C7 1_555 1_555
C8 C5 1_555 1_555
C9 C8 1_555 1_555
H5 C9 1_555 1_555
C10 C8 1_555 1_555
H6 C10 1_555 1_555
C11 C10 1_555 1_555
C12 C11 1_555 1_555
C13 C12 1_555 1_555
H7 C13 1_555 1_555
C14 C13 1_555 1_555
H8 C14 1_555 1_555
C15 C14 1_555 1_555
C16 C15 1_555 1_555
Zn1A O2A 1_555 1_555
Zn1B O1_2 1_555 1_555
Zn1C O1_3 1_555 1_555
Zn1B_2 O1 1_555 1_555
Zn1C_2 O1 1_555 1_555
Zn1K O4 1_555 1_555
Zn1A_2 O1_2 1_555 1_555
Zn1I O4B 1_555 1_555
Zn1H O4A 1_555 1_555
Zn1B_3 O1_3 1_555 1_555
Zn1J O4C 1_555 1_555
O2B Zn1B 1_555 1_555
O2A C1A 1_555 1_555
O2C Zn1C 1_555 1_555
O3B Zn1A_2 1_555 1_555
O3A Zn1 1_555 1_555
O3C Zn1B_3 1_555 1_555
O3B_2 Zn1A 1_555 1_555
O3C_2 Zn1B 1_555 1_555
O3_2 Zn1C 1_555 1_555
O4B C16 1_555 1_555
O4A C16A 1_555 1_555
O4C C16A 1_555 1_555
O4I Zn1 1_555 1_555
O4J Zn1A 1_555 1_555
O4K Zn1B 1_555 1_555
O4H Zn1C 1_555 1_555
C1B O2B 1_555 1_555
C1A O3A 1_555 1_555
C1C O2C 1_555 1_555
C2B C1B 1_555 1_555
C2A C1A 1_555 1_555
C2C C1C 1_555 1_555
C3B C2B 1_555 1_555
C3A C2A 1_555 1_555
C3C C2C 1_555 1_555
H1B C3B 1_555 1_555
H1A C3A 1_555 1_555
H1C C3C 1_555 1_555
C4B C3B 1_555 1_555
C4A C3A 1_555 1_555
C4C C3C 1_555 1_555
H2B C4B 1_555 1_555
H2A C4A 1_555 1_555
H2C C4C 1_555 1_555
C5B C4B 1_555 1_555
C5A C4A 1_555 1_555
C5C C4C 1_555 1_555
C6B C5B 1_555 1_555
C6A C5A 1_555 1_555
C6C C5C 1_555 1_555
H3B C6B 1_555 1_555
H3A C6A 1_555 1_555
H3C C6C 1_555 1_555
C7B C2B 1_555 1_555
C7A C2A 1_555 1_555
C7C C2C 1_555 1_555
H4B C7B 1_555 1_555
H4A C7A 1_555 1_555
H4C C7C 1_555 1_555
C8B C9 1_555 1_555
C8A C5A 1_555 1_555
C8C C5C 1_555 1_555
C9A C8A 1_555 1_555
H5A C9A 1_555 1_555
C10B C11 1_555 1_555
C10A C8A 1_555 1_555
C10C C8C 1_555 1_555
H6B C10B 1_555 1_555
H6A C10A 1_555 1_555
H6C C10C 1_555 1_555
C11A C10A 1_555 1_555
C12A C11A 1_555 1_555
C13B C12 1_555 1_555
C13A C12A 1_555 1_555
C13C C12A 1_555 1_555
H7B C13B 1_555 1_555
H7A C13A 1_555 1_555
H7C C13C 1_555 1_555
C14B C15 1_555 1_555
C14A C13A 1_555 1_555
C14C C13C 1_555 1_555
H8B C14B 1_555 1_555
H8A C14A 1_555 1_555
H8C C14C 1_555 1_555
C15A C14A 1_555 1_555
C16A C15A 1_555 1_555
O3 Zn1C_2 1_555 1_555
C6 C7 1_555 1_555
O3B C1B 1_555 1_555
O3C C1C 1_555 1_555
C5B C8B 1_555 1_555
C6B C7B 1_555 1_555
C6A C7A 1_555 1_555
C6C C7C 1_555 1_555
C8B C10B 1_555 1_555
C8C C9A 1_555 1_555
C10C C11A 1_555 1_555
C13B C14B 1_555 1_555
C14C C15A 1_555 1_555

#END
