
#######################################################################
#
#                 Cambridge Crystallographic Data Centre
#                                CCDC 
#
#######################################################################
#
# If this CIF has been generated from an entry in the Cambridge 
# Structural Database, then it will include bibliographic, chemical, 
# crystal, experimental, refinement or atomic coordinate data resulting 
# from the CCDC's data processing and validation procedures.
#
#######################################################################

data_VOMNAO
_symmetry_cell_setting           triclinic
_symmetry_space_group_name_H-M   'P -1'
_symmetry_Int_Tables_number      2
_space_group_name_Hall           '-P 1'
loop_
_symmetry_equiv_pos_site_id
_symmetry_equiv_pos_as_xyz
1 x,y,z
2 -x,-y,-z
_cell_length_a                   10.1524(7)
_cell_length_b                   11.3402(8)
_cell_length_c                   14.8651(11)
_cell_angle_alpha                74.8590(10)
_cell_angle_beta                 78.3940(10)
_cell_angle_gamma                87.1640(10)
_cell_volume                     1618.23
loop_
_atom_site_label
_atom_site_type_symbol
_atom_site_fract_x
_atom_site_fract_y
_atom_site_fract_z
Ag1 Ag 0.66624(3) 0.29810(3) 0.52446(2)
Ag2 Ag 0.96073(3) 0.31453(3) 0.47761(2)
S1 S 0.37913(10) 0.34041(9) 0.68157(8)
S2 S 0.33714(18) -0.10984(11) 0.62889(12)
C1 C 0.8300(4) 0.3775(4) 0.3088(3)
C2 C 0.8363(4) 0.4088(5) 0.2033(3)
H1 H 0.8821 0.4865 0.1739
H2 H 0.8874 0.3469 0.1771
C3 C 0.6884(4) 0.4886(4) 0.0967(3)
C4 C 0.5770(4) 0.5650(5) 0.0931(3)
C5 C 0.5549(5) 0.6418(5) 0.0099(4)
C6 C 0.6439(6) 0.6448(5) -0.0738(4)
C7 C 0.7523(5) 0.5668(5) -0.0728(3)
C8 C 0.7740(4) 0.4914(4) 0.0113(3)
C9 C 0.8326(4) 0.2846(4) 0.6860(3)
C10 C 0.8335(5) 0.2827(5) 0.7880(3)
H3 H 0.7863 0.3542 0.8020
H4 H 0.7842 0.2112 0.8294
C11 C 1.0221(4) 0.1730(4) 0.8439(3)
C12 C 0.9997(6) 0.0604(5) 0.8298(4)
C13 C 1.0655(7) -0.0420(5) 0.8712(4)
C14 C 1.1581(6) -0.0354(6) 0.9239(5)
C15 C 1.1824(5) 0.0742(6) 0.9389(4)
C16 C 1.1159(5) 0.1756(5) 0.8994(3)
C17 C 0.4169(4) 0.3779(4) 0.4090(3)
H5 H 0.4854 0.3745 0.3578
C18 C 0.2873(4) 0.4048(4) 0.3935(3)
H6 H 0.2707 0.4181 0.3324
C19 C 0.2149(4) 0.3937(4) 0.5503(3)
H7 H 0.1472 0.4009 0.6010
C20 C 0.3447(3) 0.3639(3) 0.5662(3)
C21 C 0.4096(3) 0.1814(4) 0.7070(3)
C22 C 0.4766(4) 0.1293(4) 0.7808(3)
H8 H 0.5101 0.1801 0.8110
C23 C 0.4480(5) -0.0575(4) 0.7614(4)
H9 H 0.4582 -0.1418 0.7790
C24 C 0.3851(4) -0.0051(4) 0.6857(3)
C25 C 0.2586(5) -0.0255(4) 0.5365(3)
C26 C 0.1730(4) 0.0725(4) 0.5422(3)
H10 H 0.1554 0.0988 0.5977
C27 C 0.1431(5) 0.0873(4) 0.3925(3)
H11 H 0.1077 0.1272 0.3395
C28 C 0.2220(5) -0.0136(4) 0.3891(3)
H12 H 0.2341 -0.0437 0.3355
N1 N 0.4461(3) 0.3567(3) 0.4956(2)
N2 N 0.1857(3) 0.4121(3) 0.4649(3)
N3 N 0.3644(3) 0.1140(3) 0.6582(2)
N4 N 0.4942(4) 0.0104(4) 0.8093(3)
N5 N 0.2822(4) -0.0700(3) 0.4611(3)
N6 N 0.1156(3) 0.1298(3) 0.4698(3)
O1 O 0.7245(3) 0.3895(3) 0.3628(2)
O2 O 0.9406(3) 0.3437(4) 0.3310(2)
O3 O 0.7023(3) 0.4162(3) 0.1822(2)
O4 O 0.7184(3) 0.2914(3) 0.6669(2)
O5 O 0.9415(3) 0.2798(3) 0.6325(2)
O6 O 0.9650(3) 0.2807(3) 0.8098(2)
F1 F 0.4870(3) 0.5635(3) 0.1730(2)
F2 F 0.4484(4) 0.7142(4) 0.0080(3)
F3 F 0.6229(4) 0.7155(4) -0.1563(3)
F4 F 0.8365(3) 0.5651(4) -0.1542(2)
F5 F 0.8793(3) 0.4156(3) 0.0079(2)
F6 F 0.9084(4) 0.0465(3) 0.7789(3)
F7 F 1.0368(6) -0.1494(4) 0.8558(3)
F8 F 1.2201(4) -0.1376(4) 0.9634(3)
F9 F 1.2693(4) 0.0801(5) 0.9938(3)
F10 F 1.1409(3) 0.2819(3) 0.9163(3)
Ag1A Ag 0.33376(3) -0.29810(3) 0.47554(2)
Ag2_2 Ag -0.03927(3) 0.31453(3) 0.47761(2)
N2_2 N 1.1857(3) 0.4121(3) 0.4649(3)
N5A N 0.7178(4) 0.0700(3) 0.5389(3)
N6_2 N 1.1156(3) 0.1298(3) 0.4698(3)
loop_
_geom_bond_atom_site_label_1
_geom_bond_atom_site_label_2
_geom_bond_site_symmetry_1
_geom_bond_site_symmetry_2
Ag1 Ag2 1_555 1_555
Ag2 O2 1_555 1_555
S1 C20 1_555 1_555
S2 C24 1_555 1_555
C1 C2 1_555 1_555
C2 H1 1_555 1_555
H2 C2 1_555 1_555
C3 C4 1_555 1_555
C4 C5 1_555 1_555
C5 C6 1_555 1_555
C6 C7 1_555 1_555
C7 C8 1_555 1_555
C8 C3 1_555 1_555
C9 C10 1_555 1_555
C10 H3 1_555 1_555
H4 C10 1_555 1_555
C11 C12 1_555 1_555
C12 C13 1_555 1_555
C13 C14 1_555 1_555
C14 C15 1_555 1_555
C15 C16 1_555 1_555
C16 C11 1_555 1_555
C17 H5 1_555 1_555
C18 C17 1_555 1_555
H6 C18 1_555 1_555
C19 H7 1_555 1_555
C20 C19 1_555 1_555
C21 S1 1_555 1_555
C22 C21 1_555 1_555
H8 C22 1_555 1_555
C23 H9 1_555 1_555
C24 C23 1_555 1_555
C25 S2 1_555 1_555
C26 C25 1_555 1_555
H10 C26 1_555 1_555
C27 H11 1_555 1_555
C28 C27 1_555 1_555
H12 C28 1_555 1_555
N1 Ag1 1_555 1_555
N2 C18 1_555 1_555
N3 C21 1_555 1_555
N4 C22 1_555 1_555
N5 C25 1_555 1_555
N6 C26 1_555 1_555
O1 Ag1 1_555 1_555
O2 C1 1_555 1_555
O3 C2 1_555 1_555
O4 Ag1 1_555 1_555
O5 Ag2 1_555 1_555
O6 C10 1_555 1_555
F1 C4 1_555 1_555
F2 C5 1_555 1_555
F3 C6 1_555 1_555
F4 C7 1_555 1_555
F5 C8 1_555 1_555
F6 C12 1_555 1_555
F7 C13 1_555 1_555
F8 C14 1_555 1_555
F9 C15 1_555 1_555
F10 C16 1_555 1_555
Ag1A N5 1_555 1_555
Ag2_2 N2 1_555 1_555
N2_2 Ag2 1_555 1_555
N5A Ag1 1_555 1_555
N6_2 Ag2 1_555 1_555
C1 O1 1_555 1_555
C3 O3 1_555 1_555
C9 O4 1_555 1_555
C9 O5 1_555 1_555
C11 O6 1_555 1_555
C17 N1 1_555 1_555
C19 N2 1_555 1_555
C20 N1 1_555 1_555
C23 N4 1_555 1_555
C24 N3 1_555 1_555
C27 N6 1_555 1_555
C28 N5 1_555 1_555
N6 Ag2_2 1_555 1_555

#END
