
#######################################################################
#
#                 Cambridge Crystallographic Data Centre
#                                CCDC 
#
#######################################################################
#
# If this CIF has been generated from an entry in the Cambridge 
# Structural Database, then it will include bibliographic, chemical, 
# crystal, experimental, refinement or atomic coordinate data resulting 
# from the CCDC's data processing and validation procedures.
#
#######################################################################

data_VOMNOC
_symmetry_cell_setting           monoclinic
_symmetry_space_group_name_H-M   'P 21/c'
_symmetry_Int_Tables_number      14
_space_group_name_Hall           '-P 2ybc'
loop_
_symmetry_equiv_pos_site_id
_symmetry_equiv_pos_as_xyz
1 x,y,z
2 -x,1/2+y,1/2-z
3 -x,-y,-z
4 x,1/2-y,1/2+z
_cell_length_a                   13.116(5)
_cell_length_b                   16.111(6)
_cell_length_c                   10.876(4)
_cell_angle_alpha                90
_cell_angle_beta                 112.529(7)
_cell_angle_gamma                90
_cell_volume                     2122.84
loop_
_atom_site_label
_atom_site_type_symbol
_atom_site_fract_x
_atom_site_fract_y
_atom_site_fract_z
Ag1 Ag 0.46040(2) 0.079943(17) 0.56772(2)
S1 S 0.72961(7) -0.03722(6) 1.10274(7)
S2 S 0.75965(8) -0.32143(6) 0.86936(8)
O1 O 0.31816(19) -0.09025(17) 0.3344(2)
N1 N 0.75772(19) -0.17731(16) 0.9898(2)
N2 N 0.4936(2) -0.01005(16) 0.7437(2)
O2 O 0.2834(2) 0.0153(2) 0.4419(2)
C1 C 0.8047(2) -0.1233(2) 1.0869(2)
C2 C -0.0314(2) 0.03458(18) 0.0033(2)
C3 C 0.1596(2) -0.00819(19) 0.2220(2)
C4 C 0.9248(3) -0.2529(2) 1.0771(4)
H1 H 0.9652 -0.2987 1.0695
C5 C 0.5871(2) -0.0044(2) 0.8504(3)
H2 H 0.6413 0.0326 0.8497
C6 C -0.1275(2) 0.0546(2) -0.1094(3)
H3 H -0.1695 0.1004 -0.1061
C7 C 0.2627(2) -0.0295(2) 0.3422(3)
N3 N 0.9706(2) -0.1991(2) 1.1747(3)
C8 C 0.0038(3) 0.0820(2) 0.1209(3)
H4 H -0.0368 0.1283 0.1260
N4 N 0.5323(2) -0.10600(18) 0.9703(2)
C9 C 0.8182(2) -0.2424(2) 0.9863(3)
C10 C 0.0961(3) 0.0611(2) 0.2270(3)
H5 H 0.1178 0.0930 0.3040
C11 C 0.6055(2) -0.05206(19) 0.9622(2)
C12 C 0.4396(3) -0.1108(2) 0.8629(3)
H6 H 0.3855 -0.1480 0.8636
C13 C 0.9115(3) -0.1344(2) 1.1805(3)
H7 H 0.9415 -0.0956 1.2481
C14 C 0.4193(3) -0.0637(2) 0.7502(3)
H8 H 0.3526 -0.0696 0.6779
C15 C 0.6363(3) -0.27483(19) 0.7604(2)
N5 N 0.5435(2) -0.30650(17) 0.7596(2)
C16 C 0.4520(3) -0.2761(2) 0.6689(3)
H9 H 0.3846 -0.2976 0.6634
N6 N 0.5455(2) -0.18079(16) 0.5867(2)
C17 C 0.6382(3) -0.2115(2) 0.6752(3)
H10 H 0.7056 -0.1903 0.6802
C18 C 0.4519(3) -0.2144(2) 0.5828(3)
H11 H 0.3851 -0.1956 0.5204
O1B O -0.31816(19) 0.09025(17) -0.3344(2)
O2B O -0.2834(2) -0.0153(2) -0.4419(2)
C2B C 0.0314(2) -0.03458(18) -0.0033(2)
C3B C -0.1596(2) 0.00819(19) -0.2220(2)
C6B C 0.1275(2) -0.0546(2) 0.1094(3)
H3B H 0.1695 -0.1004 0.1061
C7B C -0.2627(2) 0.0295(2) -0.3422(3)
C8B C -0.0038(3) -0.0820(2) -0.1209(3)
H4B H 0.0368 -0.1283 -0.1260
C10B C -0.0961(3) -0.0611(2) -0.2270(3)
H5B H -0.1178 -0.0930 -0.3040
Ag1B Ag -0.46040(2) -0.079943(17) -0.56772(2)
S1B S -0.72961(7) 0.03722(6) -1.10274(7)
S2B S -0.75965(8) 0.32143(6) -0.86936(8)
N1B N -0.75772(19) 0.17731(16) -0.9898(2)
N2B N -0.4936(2) 0.01005(16) -0.7437(2)
C1B C -0.8047(2) 0.1233(2) -1.0869(2)
C4B C -0.9248(3) 0.2529(2) -1.0771(4)
H1B H -0.9652 0.2987 -1.0695
C5B C -0.5871(2) 0.0044(2) -0.8504(3)
H2B H -0.6413 -0.0326 -0.8497
N3B N -0.9706(2) 0.1991(2) -1.1747(3)
N4B N -0.5323(2) 0.10600(18) -0.9703(2)
C9B C -0.8182(2) 0.2424(2) -0.9863(3)
C11B C -0.6055(2) 0.05206(19) -0.9622(2)
C12B C -0.4396(3) 0.1108(2) -0.8629(3)
H6B H -0.3855 0.1480 -0.8636
C13B C -0.9115(3) 0.1344(2) -1.1805(3)
H7B H -0.9415 0.0956 -1.2481
C14B C -0.4193(3) 0.0637(2) -0.7502(3)
H8B H -0.3526 0.0696 -0.6779
C15B C -0.6363(3) 0.27483(19) -0.7604(2)
N5B N -0.5435(2) 0.30650(17) -0.7596(2)
C16B C -0.4520(3) 0.2761(2) -0.6689(3)
H9B H -0.3846 0.2976 -0.6634
N6B N -0.5455(2) 0.18079(16) -0.5867(2)
C17B C -0.6382(3) 0.2115(2) -0.6752(3)
H10B H -0.7056 0.1903 -0.6802
C18B C -0.4519(3) 0.2144(2) -0.5828(3)
H11B H -0.3851 0.1956 -0.5204
Ag1_2 Ag -0.53960(2) 0.079943(17) -0.43228(2)
Ag1A Ag 0.53960(2) -0.420057(17) 0.93228(2)
Ag1B_2 Ag 0.53960(2) -0.079943(17) 0.43228(2)
Ag1C Ag -0.53960(2) 0.420057(17) -0.93228(2)
O1_2 O -0.68184(19) -0.09025(17) -0.6656(2)
O1B_2 O 0.68184(19) 0.09025(17) 0.6656(2)
N5A N 0.4565(2) 0.19350(17) 0.7404(2)
N5C N -0.4565(2) -0.19350(17) -0.7404(2)
N6_2 N -0.4545(2) -0.18079(16) -0.4133(2)
N6B_2 N 0.4545(2) 0.18079(16) 0.4133(2)
O3 O 0.1095(4) -0.0207(4) 0.5486(5)
H12 H 0.060(5) -0.047(6) 0.470(5)
H13 H 0.168(5) -0.001(5) 0.524(7)
O4 O 0.1960(4) -0.2336(3) 0.3315(7)
H14 H 0.204(8) -0.282(4) 0.285(10)
H15 H 0.255(6) -0.198(5) 0.332(10)
O5 O 0.1830(5) -0.1802(5) 0.5938(9)
H16 H 0.156(10) -0.220(6) 0.519(9)
H17 H 0.124(7) -0.141(6) 0.573(12)
loop_
_geom_bond_atom_site_label_1
_geom_bond_atom_site_label_2
_geom_bond_site_symmetry_1
_geom_bond_site_symmetry_2
Ag1 N2 1_555 1_555
S1 C1 1_555 1_555
S2 C9 1_555 1_555
O1 C7 1_555 1_555
N1 C1 1_555 1_555
N2 C5 1_555 1_555
O2 Ag1 1_555 1_555
C1 C13 1_555 1_555
C2 C6 1_555 1_555
C3 C7 1_555 1_555
C4 H1 1_555 1_555
C5 H2 1_555 1_555
C6 H3 1_555 1_555
C7 O2 1_555 1_555
N3 C4 1_555 1_555
C8 C2 1_555 1_555
H4 C8 1_555 1_555
N4 C11 1_555 1_555
C9 N1 1_555 1_555
C10 C3 1_555 1_555
H5 C10 1_555 1_555
C11 S1 1_555 1_555
C12 N4 1_555 1_555
H6 C12 1_555 1_555
C13 N3 1_555 1_555
H7 C13 1_555 1_555
C14 N2 1_555 1_555
H8 C14 1_555 1_555
C15 S2 1_555 1_555
N5 C15 1_555 1_555
C16 N5 1_555 1_555
H9 C16 1_555 1_555
N6 C17 1_555 1_555
C17 C15 1_555 1_555
H10 C17 1_555 1_555
C18 C16 1_555 1_555
H11 C18 1_555 1_555
O3 H12 1_555 1_555
H13 O3 1_555 1_555
O4 H14 1_555 1_555
H15 O4 1_555 1_555
O5 H16 1_555 1_555
H17 O5 1_555 1_555
O1B C7B 1_555 1_555
O2B C7B 1_555 1_555
C2B C2 1_555 1_555
C3B C6 1_555 1_555
C6B C3 1_555 1_555
H3B C6B 1_555 1_555
C7B C3B 1_555 1_555
C8B C2B 1_555 1_555
H4B C8B 1_555 1_555
C10B C3B 1_555 1_555
H5B C10B 1_555 1_555
Ag1B O2B 1_555 1_555
S1B C1B 1_555 1_555
S2B C9B 1_555 1_555
N1B C1B 1_555 1_555
N2B Ag1B 1_555 1_555
C1B C13B 1_555 1_555
C4B H1B 1_555 1_555
C5B N2B 1_555 1_555
H2B C5B 1_555 1_555
N3B C4B 1_555 1_555
N4B C11B 1_555 1_555
C9B N1B 1_555 1_555
C11B S1B 1_555 1_555
C12B N4B 1_555 1_555
H6B C12B 1_555 1_555
C13B N3B 1_555 1_555
H7B C13B 1_555 1_555
C14B N2B 1_555 1_555
H8B C14B 1_555 1_555
C15B S2B 1_555 1_555
N5B C15B 1_555 1_555
C16B N5B 1_555 1_555
H9B C16B 1_555 1_555
N6B C17B 1_555 1_555
C17B C15B 1_555 1_555
H10B C17B 1_555 1_555
C18B C16B 1_555 1_555
H11B C18B 1_555 1_555
Ag1_2 O1B 1_555 1_555
Ag1A N5 1_555 1_555
Ag1B_2 O1 1_555 1_555
Ag1C N5B 1_555 1_555
O1_2 Ag1B 1_555 1_555
O1B_2 Ag1 1_555 1_555
N5A Ag1 1_555 1_555
N5C Ag1B 1_555 1_555
N6_2 Ag1B 1_555 1_555
N6B_2 Ag1 1_555 1_555
C4 C9 1_555 1_555
C5 C11 1_555 1_555
C8 C10 1_555 1_555
C12 C14 1_555 1_555
N6 C18 1_555 1_555
N6 Ag1B_2 1_555 1_555
C2B C6B 1_555 1_555
C8B C10B 1_555 1_555
C4B C9B 1_555 1_555
C5B C11B 1_555 1_555
C12B C14B 1_555 1_555
N6B C18B 1_555 1_555
N6B Ag1_2 1_555 1_555

#END
