
#######################################################################
#
#                 Cambridge Crystallographic Data Centre
#                                CCDC 
#
#######################################################################
#
# If this CIF has been generated from an entry in the Cambridge 
# Structural Database, then it will include bibliographic, chemical, 
# crystal, experimental, refinement or atomic coordinate data resulting 
# from the CCDC's data processing and validation procedures.
#
#######################################################################

data_VOMRUM
_symmetry_cell_setting           orthorhombic
_symmetry_space_group_name_H-M   'P b c a'
_symmetry_Int_Tables_number      61
_space_group_name_Hall           '-P 2ac 2ab'
loop_
_symmetry_equiv_pos_site_id
_symmetry_equiv_pos_as_xyz
1 x,y,z
2 1/2-x,-y,1/2+z
3 -x,1/2+y,1/2-z
4 1/2+x,1/2-y,-z
5 -x,-y,-z
6 1/2+x,y,1/2-z
7 x,1/2-y,1/2+z
8 1/2-x,1/2+y,z
_cell_length_a                   11.7447(11)
_cell_length_b                   21.5208(19)
_cell_length_c                   28.109(3)
_cell_angle_alpha                90
_cell_angle_beta                 90
_cell_angle_gamma                90
_cell_volume                     7104.7
loop_
_atom_site_label
_atom_site_type_symbol
_atom_site_fract_x
_atom_site_fract_y
_atom_site_fract_z
Cd1 Cd 0.36321(2) 0.603036(11) 0.256799(9)
O1 O 0.3241(2) 0.49609(11) 0.25301(10)
O2 O 0.4949(2) 0.52362(11) 0.22762(9)
O3 O 0.4868(2) 0.18289(11) 0.25600(9)
O4 O 0.6540(2) 0.20989(11) 0.22605(9)
O5 O 0.1788(2) 0.60415(12) 0.28811(10)
H1 H 0.136(3) 0.6329(13) 0.2819(15)
H2 H 0.137(3) 0.5749(13) 0.2818(15)
O6 O 0.8898(3) 0.4904(2) 0.47276(13)
O7 O 0.9153(4) 0.41413(19) 0.52215(16)
O8 O 0.4498(3) 0.72415(18) -0.04880(11)
O9 O 0.4431(3) 0.72826(18) -0.12455(11)
N1 N 0.4420(3) 0.58743(13) 0.33210(11)
N2 N 0.8747(4) 0.4647(2) 0.51146(18)
N3 N 0.3097(3) 0.63023(14) 0.18004(11)
N4 N 0.3969(3) 0.72646(18) -0.08599(12)
C1 C 0.3894(3) 0.61178(18) 0.36988(14)
H3 H 0.3210 0.6344 0.3650
C2 C 0.4299(3) 0.60553(18) 0.41587(14)
H4 H 0.3902 0.6240 0.4417
C3 C 0.5293(3) 0.57195(18) 0.42408(14)
C4 C 0.5835(3) 0.54623(17) 0.38453(14)
H5 H 0.6513 0.5227 0.3884
C5 C 0.5383(3) 0.55514(17) 0.33975(14)
H6 H 0.5769 0.5377 0.3132
C6 C 0.5728(4) 0.56569(19) 0.47288(15)
H7 H 0.5318 0.5864 0.4973
C7 C 0.6635(4) 0.53392(19) 0.48571(15)
H8 H 0.7039 0.5122 0.4616
C8 C 0.7071(4) 0.5297(2) 0.53489(15)
C9 C 0.6489(4) 0.5575(2) 0.57253(17)
H9 H 0.5828 0.5813 0.5658
C10 C 0.6840(6) 0.5516(2) 0.61914(17)
H10 H 0.6430 0.5718 0.6438
C11 C 0.7788(6) 0.5162(3) 0.6300(2)
H11 H 0.8020 0.5114 0.6622
C12 C 0.8387(5) 0.4882(3) 0.5945(2)
H12 H 0.9038 0.4638 0.6018
C13 C 0.8036(4) 0.4957(2) 0.54742(17)
C14 C 0.2292(3) 0.67369(17) 0.17465(13)
H13 H 0.1902 0.6882 0.2021
C15 C 0.2002(3) 0.69836(17) 0.13105(14)
H14 H 0.1424 0.7291 0.1290
C16 C 0.2554(3) 0.67833(17) 0.08992(13)
C17 C 0.3387(3) 0.63265(17) 0.09565(14)
H15 H 0.3784 0.6169 0.0688
C18 C 0.3629(3) 0.61055(17) 0.14040(14)
H16 H 0.4204 0.5797 0.1435
C19 C 0.2197(3) 0.70464(17) 0.04415(14)
H17 H 0.1598 0.7343 0.0450
C20 C 0.2630(3) 0.69110(18) 0.00153(14)
H18 H 0.3279 0.6648 -0.0003
C21 C 0.2133(3) 0.71556(17) -0.04275(14)
C22 C 0.0950(4) 0.72239(19) -0.04536(15)
H19 H 0.0504 0.7127 -0.0182
C23 C 0.0405(4) 0.7429(2) -0.08633(15)
H20 H -0.0400 0.7474 -0.0866
C24 C 0.1024(4) 0.75684(19) -0.12640(15)
H21 H 0.0652 0.7714 -0.1542
C25 C 0.2187(4) 0.74943(18) -0.12585(14)
H22 H 0.2622 0.7578 -0.1536
C26 C 0.2719(3) 0.72973(18) -0.08476(14)
C27 C 0.4234(3) 0.48247(15) 0.23971(12)
C28 C 0.4582(3) 0.41538(15) 0.23965(13)
C29 C 0.3803(3) 0.37024(17) 0.25327(14)
H23 H 0.3056 0.3822 0.2624
C30 C 0.4103(3) 0.30804(17) 0.25366(13)
H24 H 0.3567 0.2776 0.2636
C31 C 0.5185(3) 0.29021(15) 0.23955(12)
C32 C 0.5959(3) 0.33540(17) 0.22531(15)
H25 H 0.6696 0.3234 0.2149
C33 C 0.5667(3) 0.39781(17) 0.22615(15)
H26 H 0.6212 0.4284 0.2175
C34 C 0.5553(3) 0.22330(15) 0.24029(12)
Cd1B Cd 0.63679(2) 0.103036(11) 0.243201(9)
O3B O 0.5132(2) 0.68289(11) 0.24400(9)
O4B O 0.3460(2) 0.70989(11) 0.27395(9)
O10 O 0.3760(3) 0.86929(19) 0.04544(15)
N5 N 0.2516(4) 0.8786(2) 0.10718(15)
C35 C 0.2800(4) 0.8714(2) 0.06149(18)
H27 H 0.2192 0.8676 0.0394
C36 C 0.3360(6) 0.8814(3) 0.1444(2)
H28 H 0.4121 0.8832 0.1302
H29 H 0.3299 0.8442 0.1644
H30 H 0.3233 0.9185 0.1639
C37 C 0.1333(5) 0.8848(3) 0.1209(2)
H31 H 0.0846 0.8789 0.0930
H32 H 0.1204 0.9263 0.1342
H33 H 0.1148 0.8534 0.1450
loop_
_geom_bond_atom_site_label_1
_geom_bond_atom_site_label_2
_geom_bond_site_symmetry_1
_geom_bond_site_symmetry_2
Cd1 O1 1_555 1_555
O1 C27 1_555 1_555
O2 Cd1 1_555 1_555
O3 C34 1_555 1_555
O4 C34 1_555 1_555
O5 Cd1 1_555 1_555
H1 O5 1_555 1_555
H2 O5 1_555 1_555
O6 N2 1_555 1_555
O7 N2 1_555 1_555
O8 N4 1_555 1_555
O9 N4 1_555 1_555
N1 Cd1 1_555 1_555
N2 C13 1_555 1_555
N3 Cd1 1_555 1_555
N4 C26 1_555 1_555
C1 N1 1_555 1_555
H3 C1 1_555 1_555
C2 C1 1_555 1_555
H4 C2 1_555 1_555
C3 C2 1_555 1_555
C4 C3 1_555 1_555
H5 C4 1_555 1_555
C5 N1 1_555 1_555
H6 C5 1_555 1_555
C6 C3 1_555 1_555
H7 C6 1_555 1_555
C7 C6 1_555 1_555
H8 C7 1_555 1_555
C8 C7 1_555 1_555
C9 C8 1_555 1_555
H9 C9 1_555 1_555
C10 C9 1_555 1_555
H10 C10 1_555 1_555
C11 C10 1_555 1_555
H11 C11 1_555 1_555
C12 C11 1_555 1_555
H12 C12 1_555 1_555
C13 C8 1_555 1_555
C14 N3 1_555 1_555
H13 C14 1_555 1_555
C15 C14 1_555 1_555
H14 C15 1_555 1_555
C16 C15 1_555 1_555
C17 C16 1_555 1_555
H15 C17 1_555 1_555
C18 N3 1_555 1_555
H16 C18 1_555 1_555
C19 C16 1_555 1_555
H17 C19 1_555 1_555
C20 C19 1_555 1_555
H18 C20 1_555 1_555
C21 C20 1_555 1_555
C22 C21 1_555 1_555
H19 C22 1_555 1_555
C23 C22 1_555 1_555
H20 C23 1_555 1_555
C24 C23 1_555 1_555
H21 C24 1_555 1_555
C25 C24 1_555 1_555
H22 C25 1_555 1_555
C26 C21 1_555 1_555
C27 O2 1_555 1_555
C28 C27 1_555 1_555
C29 C28 1_555 1_555
H23 C29 1_555 1_555
C30 C29 1_555 1_555
H24 C30 1_555 1_555
C31 C30 1_555 1_555
C32 C31 1_555 1_555
H25 C32 1_555 1_555
C33 C28 1_555 1_555
H26 C33 1_555 1_555
C34 C31 1_555 1_555
O10 C35 1_555 1_555
N5 C35 1_555 1_555
C35 H27 1_555 1_555
C36 N5 1_555 1_555
H28 C36 1_555 1_555
H29 C36 1_555 1_555
H30 C36 1_555 1_555
C37 N5 1_555 1_555
H31 C37 1_555 1_555
H32 C37 1_555 1_555
H33 C37 1_555 1_555
Cd1B O3 1_555 1_555
O3B Cd1 1_555 1_555
O4B Cd1 1_555 1_555
O4 Cd1B 1_555 1_555
C4 C5 1_555 1_555
C12 C13 1_555 1_555
C17 C18 1_555 1_555
C25 C26 1_555 1_555
C32 C33 1_555 1_555

#END
