
#######################################################################
#
#                 Cambridge Crystallographic Data Centre
#                                CCDC 
#
#######################################################################
#
# If this CIF has been generated from an entry in the Cambridge 
# Structural Database, then it will include bibliographic, chemical, 
# crystal, experimental, refinement or atomic coordinate data resulting 
# from the CCDC's data processing and validation procedures.
#
#######################################################################

data_VOMSEW
_symmetry_cell_setting           tetragonal
_symmetry_space_group_name_H-M   'P 4/n'
_symmetry_Int_Tables_number      85
_space_group_name_Hall           '-P 4a'
loop_
_symmetry_equiv_pos_site_id
_symmetry_equiv_pos_as_xyz
1 x,y,z
2 1/2-x,1/2-y,z
3 1/2-y,x,z
4 y,1/2-x,z
5 -x,-y,-z
6 1/2+x,1/2+y,-z
7 1/2+y,-x,-z
8 -y,1/2+x,-z
_cell_length_a                   24.4385(2)
_cell_length_b                   24.4385(2)
_cell_length_c                   9.57470(10)
_cell_angle_alpha                90
_cell_angle_beta                 90
_cell_angle_gamma                90
_cell_volume                     5718.4
loop_
_atom_site_label
_atom_site_type_symbol
_atom_site_fract_x
_atom_site_fract_y
_atom_site_fract_z
Zn1 Zn 0.54781(4) 0.37534(4) -1.40201(9)
I1 I 0.51833(4) 0.42529(8) -0.88742(8)
I2 I 0.72481(3) 0.34335(3) -0.60496(6)
I3 I 0.72591(3) 0.39700(4) -1.21534(7)
C1 C 0.5986(4) 0.4187(4) -1.1569(8)
C2 C 0.6280(3) 0.4059(3) -1.0216(8)
C3 C 0.6010(3) 0.4027(4) -0.8946(8)
C4 C 0.6273(3) 0.3861(3) -0.7732(7)
C5 C 0.5971(5) 0.3808(5) -0.6366(10)
C6 C 0.6821(4) 0.3713(4) -0.7828(8)
C7 C 0.7118(3) 0.3749(4) -0.9079(8)
C8 C 0.6828(3) 0.3925(3) -1.0258(7)
C9 C 0.4945(6) 0.2720(5) -1.5003(10)
H1 H 0.4925 0.2922 -1.5824
C10 C 0.4781(6) 0.2185(5) -1.5042(12)
H2 H 0.4675 0.2027 -1.5884
C11 C 0.4772(4) 0.1878(4) -1.3818(9)
C12 C 0.4940(4) 0.2139(4) -1.2621(10)
H3 H 0.4934 0.1954 -1.1772
C13 C 0.5119(4) 0.2677(4) -1.2676(9)
H4 H 0.5235 0.2843 -1.1853
C14 C 0.4414(5) 0.0474(5) -1.5030(12)
H5 H 0.4443 0.0274 -1.5852
C15 C 0.4608(6) 0.0994(5) -1.5024(12)
H6 H 0.4755 0.1142 -1.5837
C16 C 0.4591(4) 0.1304(4) -1.3829(10)
C17 C 0.4376(6) 0.1051(5) -1.2665(10)
H7 H 0.4358 0.1237 -1.1819
C18 C 0.4190(6) 0.0522(5) -1.2762(12)
H8 H 0.4058 0.0356 -1.1956
O1 O 0.5940(5) 0.4135(5) -0.5539(10)
O2 O 0.5923(4) 0.4658(3) -1.1956(7)
O3 O 0.5821(3) 0.3760(3) -1.2206(6)
O4 O 0.5769(10) 0.3403(7) -0.6058(15)
N1 N 0.7660(3) 0.3620(4) -0.9136(9)
H9 H 0.7834 0.3645 -0.9914
H10 H 0.7827 0.3513 -0.8395
N2 N 0.5133(3) 0.2969(3) -1.3857(7)
N3 N 0.4188(4) 0.0237(3) -1.3935(7)
Zn1_2 Zn 0.54781(4) 0.37534(4) -0.40201(9)
Zn1C Zn 0.37534(4) -0.04781(4) -1.40201(9)
O1_2 O 0.5940(5) 0.4135(5) -1.5539(10)
O4_2 O 0.5769(10) 0.3403(7) -1.6058(15)
N3B N 0.4763(3) 0.4188(4) -1.3935(7)
O5 O 0.235(2) 0.452(2) 0.114(4)
O6 O 0.174(3) 0.382(2) 0.135(11)
O7 O 0.0548(8) 0.3527(12) 0.0875(19)
loop_
_geom_bond_atom_site_label_1
_geom_bond_atom_site_label_2
_geom_bond_site_symmetry_1
_geom_bond_site_symmetry_2
Zn1 O3 1_555 1_555
I1 C3 1_555 1_555
I2 C6 1_555 1_555
I3 C8 1_555 1_555
C1 C2 1_555 1_555
C2 C3 1_555 1_555
C3 C4 1_555 1_555
C4 C5 1_555 1_555
C5 O1 1_555 1_555
C6 C4 1_555 1_555
C7 C6 1_555 1_555
C8 C2 1_555 1_555
C9 H1 1_555 1_555
C10 C9 1_555 1_555
H2 C10 1_555 1_555
C11 C10 1_555 1_555
C12 C11 1_555 1_555
H3 C12 1_555 1_555
C13 C12 1_555 1_555
H4 C13 1_555 1_555
C14 H5 1_555 1_555
C15 C14 1_555 1_555
H6 C15 1_555 1_555
C16 C11 1_555 1_555
C17 C16 1_555 1_555
H7 C17 1_555 1_555
C18 C17 1_555 1_555
H8 C18 1_555 1_555
O1 Zn1_2 1_555 1_555
O2 C1 1_555 1_555
O3 C1 1_555 1_555
O4 C5 1_555 1_555
N1 C7 1_555 1_555
H9 N1 1_555 1_555
H10 N1 1_555 1_555
N2 Zn1 1_555 1_555
N3 C14 1_555 1_555
Zn1_2 O4 1_555 1_555
Zn1C N3 1_555 1_555
O1_2 Zn1 1_555 1_555
O4_2 Zn1 1_555 1_555
N3B Zn1 1_555 1_555
C7 C8 1_555 1_555
C9 N2 1_555 1_555
C13 N2 1_555 1_555
C15 C16 1_555 1_555
C18 N3 1_555 1_555

#END
