
#######################################################################
#
#                 Cambridge Crystallographic Data Centre
#                                CCDC 
#
#######################################################################
#
# If this CIF has been generated from an entry in the Cambridge 
# Structural Database, then it will include bibliographic, chemical, 
# crystal, experimental, refinement or atomic coordinate data resulting 
# from the CCDC's data processing and validation procedures.
#
#######################################################################

data_VONBUW
_symmetry_cell_setting           monoclinic
_symmetry_space_group_name_H-M   'C 2/c'
_symmetry_Int_Tables_number      15
_space_group_name_Hall           '-C 2yn'
loop_
_symmetry_equiv_pos_site_id
_symmetry_equiv_pos_as_xyz
1 x,y,z
2 -x,y,1/2-z
3 1/2+x,1/2+y,z
4 1/2-x,1/2+y,1/2-z
5 -x,-y,-z
6 x,-y,1/2+z
7 1/2-x,1/2-y,-z
8 1/2+x,1/2-y,1/2+z
_cell_length_a                   14.3040(4)
_cell_length_b                   17.4700(4)
_cell_length_c                   25.6360(10)
_cell_angle_alpha                90
_cell_angle_beta                 94.0690(10)
_cell_angle_gamma                90
_cell_volume                     6390.05
loop_
_atom_site_label
_atom_site_type_symbol
_atom_site_fract_x
_atom_site_fract_y
_atom_site_fract_z
Zn1 Zn 0.2500 0.2500 0.5000
Zn2 Zn 0.48607(2) 0.331929(19) 0.505698(12)
O1 O 0.34561(16) 0.18157(14) 0.45558(9)
O2 O 0.5000 0.04649(18) 0.2500
O3 O 0.27099(17) 0.34997(14) 0.44487(10)
O4 O 0.2380(2) 0.62324(16) 0.28161(9)
N1 N 0.59620(19) 0.27199(16) 0.56363(10)
N2 N 0.76515(17) 0.40243(16) 0.51190(11)
O5 O 0.48310(17) 0.24315(13) 0.45540(9)
C1 C 0.3523(2) 0.64768(18) 0.13840(11)
C2 C 0.4431(2) 0.15742(18) 0.38732(11)
C3 C 0.2808(2) 0.6290(2) 0.23505(12)
C4 C 0.3087(2) 0.45485(18) 0.39177(11)
C5 C 0.3674(2) 0.5161(2) 0.38577(12)
H1 H 0.4224 0.5203 0.4072
C6 C 0.9954(2) 0.4252(2) 0.48495(14)
H2 H 0.9925 0.3743 0.4744
C7 C 0.6856(2) 0.29269(18) 0.55720(12)
C8 C 0.3325(2) 0.39641(18) 0.43375(11)
C9 C 0.4198(2) 0.05309(19) 0.32692(11)
H3 H 0.3914 0.0067 0.3176
O6 O 0.41445(16) 0.40037(14) 0.45461(9)
N3 N 0.61438(17) 0.38067(16) 0.49331(10)
C10 C 0.4008(2) 0.08863(19) 0.37315(12)
H4 H 0.3593 0.0661 0.3949
C11 C 0.69121(19) 0.35654(18) 0.52090(11)
C12 C 0.4811(2) 0.08661(18) 0.29468(10)
C13 C 0.9350(2) 0.5282(2) 0.53182(14)
H5 H 0.8912 0.5481 0.5533
C14 C 0.3457(3) 0.5717(2) 0.34817(13)
H6 H 0.3853 0.6133 0.3446
C15 C 0.5806(3) 0.2184(2) 0.59912(15)
H7 H 0.5190 0.2055 0.6045
C16 C 0.2946(2) 0.70334(19) 0.15797(11)
H8 H 0.2798 0.7470 0.1383
C17 C 0.7324(2) 0.4580(2) 0.47735(14)
H9 H 0.7669 0.4979 0.4643
C18 C 0.2649(2) 0.5646(2) 0.31638(12)
C19 C 0.3380(3) 0.5735(2) 0.21662(13)
H10 H 0.3525 0.5299 0.2364
C20 C 0.2280(2) 0.4485(2) 0.35875(13)
H11 H 0.1880 0.4071 0.3622
C21 C 0.5052(2) 0.1901(2) 0.35476(12)
H12 H 0.5339 0.2363 0.3642
C22 C 0.3735(3) 0.5833(2) 0.16844(13)
H13 H 0.4125 0.5460 0.1559
C23 C 0.5252(2) 0.1553(2) 0.30851(12)
H14 H 0.5673 0.1775 0.2870
C24 C 0.7598(3) 0.2560(2) 0.58393(18)
H15 H 0.8212 0.2694 0.5782
C25 C 0.2064(3) 0.5031(2) 0.32084(13)
H16 H 0.1526 0.4982 0.2985
C26 C 0.2592(2) 0.6943(2) 0.20611(12)
H17 H 0.2210 0.7318 0.2191
C27 C 0.4214(2) 0.19740(19) 0.43678(11)
C28 C 0.8603(2) 0.3981(2) 0.53853(16)
H18 H 0.8837 0.3464 0.5354
H19 H 0.8560 0.4087 0.5754
C29 C 0.9299(2) 0.4530(2) 0.51711(13)
C30 C 0.6398(2) 0.4434(2) 0.46595(14)
H20 H 0.6000 0.4717 0.4431
C31 C 0.6510(3) 0.1818(3) 0.6279(2)
H21 H 0.6377 0.1457 0.6530
C32 C 0.7419(3) 0.1997(3) 0.6188(2)
H22 H 0.7913 0.1736 0.6365
C33 C 0.3925(2) 0.65681(19) 0.08701(11)
O7 O 0.37338(14) 0.71470(14) 0.05869(8)
O8 O 0.44897(16) 0.60725(14) 0.07298(8)
Zn1C Zn 0.2500 0.7500 0.0000
Zn1A Zn 0.7500 0.2500 0.0000
Zn1C_2 Zn 0.2500 -0.2500 0.0000
Zn2A Zn 0.51393(2) 0.331929(19) -0.005698(12)
Zn2E Zn 0.48607(2) 0.668071(19) 0.005698(12)
Zn2D Zn 1.51393(2) 0.668071(19) 0.494302(12)
Zn2C Zn 0.01393(2) -0.168071(19) -0.005698(12)
Zn2F Zn 0.01393(2) 0.168071(19) 0.494302(12)
O1A O 0.65439(16) 0.18157(14) 0.04442(9)
O1F O 0.15439(16) 0.31843(14) 0.54442(9)
O3C O 0.22901(17) -0.15003(14) 0.05513(10)
O3F O 0.22901(17) 0.15003(14) 0.55513(10)
O4C O 0.2620(2) 0.12324(16) 0.21839(9)
N1D N 1.40380(19) 0.72801(16) 0.43637(10)
N1A N 0.40380(19) 0.27199(16) -0.06363(10)
N2D N 1.23485(17) 0.59757(16) 0.48810(11)
O5A O 0.51690(17) 0.24315(13) 0.04460(9)
C1C C 0.1477(2) 0.14768(18) 0.36160(11)
C2A C 0.5569(2) 0.15742(18) 0.11268(11)
C3C C 0.2192(2) 0.1290(2) 0.26495(12)
C4C C 0.1913(2) -0.04515(18) 0.10823(11)
C5C C 0.1326(2) 0.0161(2) 0.11423(12)
H1C H 0.0776 0.0203 0.0928
C6D C 1.0046(2) 0.5748(2) 0.51505(14)
H2D H 1.0075 0.6257 0.5256
C7D C 1.3144(2) 0.70731(18) 0.44280(12)
C8C C 0.1675(2) -0.10359(18) 0.06625(11)
C9A C 0.5802(2) 0.05309(19) 0.17308(11)
H3A H 0.6086 0.0067 0.1824
O6C O 0.08555(16) -0.09963(14) 0.04539(9)
O6A O 0.58555(16) 0.40037(14) 0.04539(9)
N3D N 1.38562(17) 0.61933(16) 0.50669(10)
N3A N 0.38562(17) 0.38067(16) 0.00669(10)
C10A C 0.5992(2) 0.08863(19) 0.12685(12)
H4A H 0.6407 0.0661 0.1051
C11D C 1.30879(19) 0.64346(18) 0.47910(11)
C12A C 0.5189(2) 0.08661(18) 0.20532(10)
C13D C 1.0650(2) 0.4718(2) 0.46818(14)
H5D H 1.1088 0.4519 0.4467
C14C C 0.1543(3) 0.0717(2) 0.15183(13)
H6C H 0.1147 0.1133 0.1554
C15D C 1.4194(3) 0.7816(2) 0.40088(15)
H7D H 1.4810 0.7945 0.3955
C16C C 0.2054(2) 0.20334(19) 0.34203(11)
H8C H 0.2202 0.2470 0.3617
C17D C 1.2676(2) 0.5420(2) 0.52265(14)
H9D H 1.2331 0.5021 0.5357
C18C C 0.2351(2) 0.0646(2) 0.18362(12)
C19C C 0.1620(3) 0.0735(2) 0.28338(13)
H10C H 0.1475 0.0299 0.2636
C20C C 0.2720(2) -0.0515(2) 0.14125(13)
H11C H 0.3120 -0.0929 0.1378
C21A C 0.4948(2) 0.1901(2) 0.14524(12)
H12A H 0.4661 0.2363 0.1358
C22C C 0.1265(3) 0.0833(2) 0.33156(13)
H13C H 0.0875 0.0460 0.3441
C23A C 0.4748(2) 0.1553(2) 0.19149(12)
H14A H 0.4327 0.1775 0.2130
C24D C 1.2402(3) 0.7440(2) 0.41607(18)
H15D H 1.1788 0.7306 0.4218
C25C C 0.2936(3) 0.0031(2) 0.17916(13)
H16C H 0.3474 -0.0018 0.2015
C26C C 0.2408(2) 0.1943(2) 0.29389(12)
H17C H 0.2790 0.2318 0.2809
C27A C 0.5786(2) 0.19740(19) 0.06322(11)
C28D C 1.1397(2) 0.6019(2) 0.46147(16)
H18D H 1.1163 0.6536 0.4646
H19D H 1.1440 0.5913 0.4246
C29D C 1.0701(2) 0.5470(2) 0.48289(13)
C30D C 1.3602(2) 0.5566(2) 0.53405(14)
H20D H 1.4000 0.5283 0.5569
C31D C 1.3490(3) 0.8182(3) 0.3721(2)
H21D H 1.3623 0.8543 0.3470
C32D C 1.2581(3) 0.8003(3) 0.3812(2)
H22D H 1.2087 0.8264 0.3635
C33C C 0.1075(2) 0.15681(19) 0.41299(11)
O7C O 0.12662(14) 0.21470(14) 0.44131(8)
O7E O 0.37338(14) 0.28530(14) 0.55869(8)
O7D O 0.62662(14) 0.28530(14) -0.05869(8)
O8C O 0.05103(16) 0.10725(14) 0.42702(8)
O8E O 0.44897(16) 0.39275(14) 0.57298(8)
O8D O 0.55103(16) 0.39275(14) -0.07298(8)
loop_
_geom_bond_atom_site_label_1
_geom_bond_atom_site_label_2
_geom_bond_site_symmetry_1
_geom_bond_site_symmetry_2
Zn1 O1 1_555 1_555
Zn2 N1 1_555 1_555
O1 C27 1_555 1_555
O2 C12 1_555 1_555
O3 Zn1 1_555 1_555
O4 C3 1_555 1_555
N1 C7 1_555 1_555
N2 C11 1_555 1_555
O5 Zn2 1_555 1_555
C1 C16 1_555 1_555
C2 C10 1_555 1_555
C3 C19 1_555 1_555
C4 C5 1_555 1_555
C5 H1 1_555 1_555
C6 H2 1_555 1_555
C7 C11 1_555 1_555
C8 O3 1_555 1_555
C9 H3 1_555 1_555
O6 Zn2 1_555 1_555
N3 Zn2 1_555 1_555
C10 C9 1_555 1_555
H4 C10 1_555 1_555
C11 N3 1_555 1_555
C12 C9 1_555 1_555
C13 H5 1_555 1_555
C14 C5 1_555 1_555
H6 C14 1_555 1_555
C15 N1 1_555 1_555
H7 C15 1_555 1_555
C16 H8 1_555 1_555
C17 N2 1_555 1_555
H9 C17 1_555 1_555
C18 O4 1_555 1_555
C19 H10 1_555 1_555
C20 C4 1_555 1_555
H11 C20 1_555 1_555
C21 C2 1_555 1_555
H12 C21 1_555 1_555
C22 C1 1_555 1_555
H13 C22 1_555 1_555
C23 C12 1_555 1_555
H14 C23 1_555 1_555
C24 C7 1_555 1_555
H15 C24 1_555 1_555
C25 C18 1_555 1_555
H16 C25 1_555 1_555
C26 C3 1_555 1_555
H17 C26 1_555 1_555
C27 O5 1_555 1_555
C28 N2 1_555 1_555
H18 C28 1_555 1_555
H19 C28 1_555 1_555
C29 C6 1_555 1_555
C30 N3 1_555 1_555
H20 C30 1_555 1_555
C31 C15 1_555 1_555
H21 C31 1_555 1_555
C32 C24 1_555 1_555
H22 C32 1_555 1_555
C33 C1 1_555 1_555
O7 C33 1_555 1_555
O8 C33 1_555 1_555
Zn1C O7 1_555 1_555
Zn1A O1A 1_555 1_555
Zn1C_2 O3C 1_555 1_555
Zn2A N1A 1_555 1_555
Zn2E O7 1_555 1_555
Zn2D N1D 1_555 1_555
Zn2C O6C 1_555 1_555
Zn2F O7C 1_555 1_555
O1A C27A 1_555 1_555
O1F Zn1 1_555 1_555
O3C C8C 1_555 1_555
O3F Zn1 1_555 1_555
O4C C3C 1_555 1_555
N1D C7D 1_555 1_555
N2D C11D 1_555 1_555
O5A Zn2A 1_555 1_555
C1C C16C 1_555 1_555
C2A C10A 1_555 1_555
C3C C19C 1_555 1_555
C4C C5C 1_555 1_555
C5C H1C 1_555 1_555
C6D C13 1_555 1_555
H2D C6D 1_555 1_555
C7D C11D 1_555 1_555
C8C C4C 1_555 1_555
C9A H3A 1_555 1_555
O6C C8C 1_555 1_555
O6A Zn2A 1_555 1_555
N3D Zn2D 1_555 1_555
N3A Zn2A 1_555 1_555
C10A C9A 1_555 1_555
H4A C10A 1_555 1_555
C11D N3D 1_555 1_555
C12A O2 1_555 1_555
C13D C6 1_555 1_555
H5D C13D 1_555 1_555
C14C C5C 1_555 1_555
H6C C14C 1_555 1_555
C15D N1D 1_555 1_555
H7D C15D 1_555 1_555
C16C H8C 1_555 1_555
C17D N2D 1_555 1_555
H9D C17D 1_555 1_555
C18C O4C 1_555 1_555
C19C H10C 1_555 1_555
C20C C4C 1_555 1_555
H11C C20C 1_555 1_555
C21A C2A 1_555 1_555
H12A C21A 1_555 1_555
C22C C1C 1_555 1_555
H13C C22C 1_555 1_555
C23A C12A 1_555 1_555
H14A C23A 1_555 1_555
C24D C7D 1_555 1_555
H15D C24D 1_555 1_555
C25C C18C 1_555 1_555
H16C C25C 1_555 1_555
C26C C3C 1_555 1_555
H17C C26C 1_555 1_555
C27A O5A 1_555 1_555
C28D N2D 1_555 1_555
H18D C28D 1_555 1_555
H19D C28D 1_555 1_555
C29D C6D 1_555 1_555
C30D N3D 1_555 1_555
H20D C30D 1_555 1_555
C31D C15D 1_555 1_555
H21D C31D 1_555 1_555
C32D C24D 1_555 1_555
H22D C32D 1_555 1_555
C33C C1C 1_555 1_555
O7C Zn1 1_555 1_555
O7E Zn1 1_555 1_555
O7D Zn1A 1_555 1_555
O8C Zn2F 1_555 1_555
O8E Zn2 1_555 1_555
O8D Zn2A 1_555 1_555
Zn2 O7E 1_555 1_555
C2 C27 1_555 1_555
C4 C8 1_555 1_555
C8 O6 1_555 1_555
C13 C29 1_555 1_555
C14 C18 1_555 1_555
C16 C26 1_555 1_555
C17 C30 1_555 1_555
C19 C22 1_555 1_555
C20 C25 1_555 1_555
C21 C23 1_555 1_555
C28 C29 1_555 1_555
C31 C32 1_555 1_555
O8 Zn2E 1_555 1_555
Zn2A O7D 1_555 1_555
C2A C27A 1_555 1_555
C9A C12A 1_555 1_555
C13D C29D 1_555 1_555
C14C C18C 1_555 1_555
C16C C26C 1_555 1_555
C17D C30D 1_555 1_555
C19C C22C 1_555 1_555
C20C C25C 1_555 1_555
C21A C23A 1_555 1_555
C28D C29D 1_555 1_555
C31D C32D 1_555 1_555
C33C O7C 1_555 1_555
C33C O8C 1_555 1_555

#END
