
#######################################################################
#
#                 Cambridge Crystallographic Data Centre
#                                CCDC 
#
#######################################################################
#
# If this CIF has been generated from an entry in the Cambridge 
# Structural Database, then it will include bibliographic, chemical, 
# crystal, experimental, refinement or atomic coordinate data resulting 
# from the CCDC's data processing and validation procedures.
#
#######################################################################

data_VONCEH
_symmetry_cell_setting           monoclinic
_symmetry_space_group_name_H-M   'P 21/n'
_symmetry_Int_Tables_number      14
_space_group_name_Hall           '-P 2yn'
loop_
_symmetry_equiv_pos_site_id
_symmetry_equiv_pos_as_xyz
1 x,y,z
2 1/2-x,1/2+y,1/2-z
3 -x,-y,-z
4 1/2+x,1/2-y,1/2+z
_cell_length_a                   12.4090(3)
_cell_length_b                   20.5790(4)
_cell_length_c                   14.6440(6)
_cell_angle_alpha                90
_cell_angle_beta                 114.6370(10)
_cell_angle_gamma                90
_cell_volume                     3399.14
loop_
_atom_site_label
_atom_site_type_symbol
_atom_site_fract_x
_atom_site_fract_y
_atom_site_fract_z
Cd1 Cd 0.222551(13) 0.524275(7) 0.807168(11)
O1 O 0.62178(15) 0.87457(7) 0.30295(13)
O2 O 0.79566(15) 0.89301(7) 0.42832(13)
N1 N 0.07025(17) 0.48643(9) 0.87909(14)
O3 O 0.30221(15) 0.57864(9) 0.70968(12)
N2 N 0.30501(16) 0.38816(8) 1.05562(13)
O4 O 0.69752(18) 0.60827(8) 0.54240(17)
O5 O 0.40642(15) 0.49015(9) 0.77096(13)
N3 N 0.29899(15) 0.44688(8) 0.92788(13)
C1 C 0.10598(18) 0.43178(10) 0.93340(15)
C2 C 0.30633(19) 0.24818(10) 1.07040(15)
H1 H 0.3321 0.2687 1.0265
C3 C 0.7063(2) 0.85756(10) 0.38229(18)
C4 C 0.23473(18) 0.42170(9) 0.97176(15)
C5 C 0.2739(2) 0.35887(11) 1.13239(17)
H2 H 0.1984 0.3765 1.1256
H3 H 0.3330 0.3714 1.1981
C6 C 0.46384(19) 0.55792(10) 0.66763(15)
C7 C 0.31026(19) 0.18095(10) 1.07679(16)
C8 C 0.26509(18) 0.28551(10) 1.12770(16)
C9 C 0.7036(2) 0.79165(10) 0.42559(17)
C10 C 0.4191(2) 0.39266(11) 1.06266(18)
H4 H 0.4867 0.3744 1.1122
C11 C 0.6969(2) 0.67015(12) 0.5027(2)
C12 C 0.5378(2) 0.63950(11) 0.58932(19)
H5 H 0.5363 0.6820 0.5670
C13 C 0.6157(2) 0.59480(11) 0.58111(19)
C14 C 0.0278(2) 0.38980(12) 0.94848(18)
H6 H 0.0541 0.3508 0.9826
C15 C 0.3659(2) 0.14386(11) 1.01875(16)
H7 H 0.3041 0.1310 0.9546
H8 H 0.4196 0.1726 1.0053
C16 C 0.4137(2) 0.42847(10) 0.98417(18)
H9 H 0.4782 0.4391 0.9702
C17 C -0.0447(2) 0.50133(13) 0.84294(19)
H10 H -0.0704 0.5390 0.8048
C18 C 0.6181(2) 0.53195(11) 0.6143(2)
H11 H 0.6699 0.5017 0.6074
C19 C 0.6000(2) 0.69247(13) 0.4219(2)
H12 H 0.5326 0.6667 0.3927
C20 C 0.5427(2) 0.51416(11) 0.65801(19)
H13 H 0.5454 0.4719 0.6813
C21 C 0.4615(2) 0.62019(11) 0.63134(17)
H14 H 0.4072 0.6499 0.6353
C22 C 0.8017(2) 0.76719(12) 0.50556(19)
H15 H 0.8706 0.7919 0.5335
C23 C 0.7982(3) 0.70595(12) 0.5445(2)
H16 H 0.8640 0.6897 0.5984
C24 C -0.0908(2) 0.40743(15) 0.9114(2)
H17 H -0.1452 0.3809 0.9222
C25 C 0.2238(2) 0.25438(12) 1.19134(18)
H18 H 0.1957 0.2787 1.2304
C26 C 0.2244(2) 0.18762(13) 1.1965(2)
H19 H 0.1954 0.1669 1.2381
C27 C 0.2681(2) 0.15110(12) 1.13984(19)
H20 H 0.2690 0.1060 1.1443
C28 C 0.3855(2) 0.54056(12) 0.71931(16)
C29 C 0.6032(2) 0.75367(12) 0.3838(2)
H21 H 0.5370 0.7693 0.3296
C30 C -0.1269(2) 0.46429(14) 0.8588(2)
H22 H -0.2056 0.4775 0.8344
N4 N 0.43157(17) 0.08554(8) 1.07043(13)
C31 C 0.54379(19) 0.08211(10) 1.14353(15)
C32 C 0.6219(2) 0.13795(10) 1.18993(16)
C33 C 0.3886(2) 0.02320(11) 1.05035(18)
H23 H 0.3139 0.0105 1.0039
N5 N 0.5690(2) 0.19379(11) 1.19318(19)
N6 N 0.57322(17) 0.02032(8) 1.16939(14)
C34 C 0.4759(2) -0.01577(11) 1.11111(18)
H24 H 0.4710 -0.0608 1.1133
C35 C 0.7427(2) 0.13305(12) 1.2283(2)
H25 H 0.7785 0.0947 1.2217
C36 C 0.8109(3) 0.18643(15) 1.2772(2)
H26 H 0.8932 0.1837 1.3061
C37 C 0.7568(3) 0.24239(15) 1.2824(2)
H27 H 0.8005 0.2784 1.3161
C38 C 0.6389(3) 0.24426(15) 1.2380(3)
H28 H 0.6024 0.2837 1.2380
Cd1C Cd 0.722551(13) 0.975725(7) 0.307168(11)
Cd1C_2 Cd 0.722551(13) -0.024275(7) 1.307168(11)
O1C O 0.12178(15) 0.62543(7) 0.80295(13)
O2C O 0.29566(15) 0.60699(7) 0.92832(13)
N6C N 0.07322(17) 0.47968(8) 0.66939(14)
O6 O 0.6109(3) 0.40835(17) 0.8540(2)
H29 H 0.560(4) 0.433(2) 0.833(3)
H30 H 0.635(4) 0.406(2) 0.912(3)
loop_
_geom_bond_atom_site_label_1
_geom_bond_atom_site_label_2
_geom_bond_site_symmetry_1
_geom_bond_site_symmetry_2
Cd1 N1 1_555 1_555
O1 C3 1_555 1_555
O2 C3 1_555 1_555
N1 C1 1_555 1_555
O3 Cd1 1_555 1_555
N2 C4 1_555 1_555
O4 C11 1_555 1_555
O5 Cd1 1_555 1_555
N3 Cd1 1_555 1_555
C1 C4 1_555 1_555
C2 H1 1_555 1_555
C3 C9 1_555 1_555
C4 N3 1_555 1_555
C5 N2 1_555 1_555
H2 C5 1_555 1_555
H3 C5 1_555 1_555
C6 C20 1_555 1_555
C7 C2 1_555 1_555
C8 C2 1_555 1_555
C9 C22 1_555 1_555
C10 N2 1_555 1_555
H4 C10 1_555 1_555
C11 C19 1_555 1_555
C12 H5 1_555 1_555
C13 O4 1_555 1_555
O6 H29 1_555 1_555
C14 C1 1_555 1_555
H6 C14 1_555 1_555
C15 C7 1_555 1_555
H7 C15 1_555 1_555
H8 C15 1_555 1_555
C16 N3 1_555 1_555
H9 C16 1_555 1_555
C17 N1 1_555 1_555
H10 C17 1_555 1_555
C18 C13 1_555 1_555
H11 C18 1_555 1_555
C19 H12 1_555 1_555
C20 C18 1_555 1_555
H13 C20 1_555 1_555
C21 C6 1_555 1_555
H14 C21 1_555 1_555
C22 H15 1_555 1_555
C23 C11 1_555 1_555
H16 C23 1_555 1_555
C24 C14 1_555 1_555
H17 C24 1_555 1_555
C25 C8 1_555 1_555
H18 C25 1_555 1_555
C26 C25 1_555 1_555
H19 C26 1_555 1_555
C27 C7 1_555 1_555
H20 C27 1_555 1_555
C28 O3 1_555 1_555
C29 C9 1_555 1_555
H21 C29 1_555 1_555
C30 C17 1_555 1_555
H22 C30 1_555 1_555
N4 C15 1_555 1_555
C31 N4 1_555 1_555
C32 C31 1_555 1_555
C33 N4 1_555 1_555
H23 C33 1_555 1_555
N5 C32 1_555 1_555
N6 C31 1_555 1_555
C34 C33 1_555 1_555
H24 C34 1_555 1_555
C35 C32 1_555 1_555
H25 C35 1_555 1_555
C36 C35 1_555 1_555
H26 C36 1_555 1_555
C37 C36 1_555 1_555
H27 C37 1_555 1_555
C38 N5 1_555 1_555
H28 C38 1_555 1_555
H30 O6 1_555 1_555
Cd1C O1 1_555 1_555
Cd1C_2 N6 1_555 1_555
O1C Cd1 1_555 1_555
O2C Cd1 1_555 1_555
N6C Cd1 1_555 1_555
O2 Cd1C 1_555 1_555
O5 C28 1_555 1_555
C5 C8 1_555 1_555
C6 C28 1_555 1_555
C10 C16 1_555 1_555
C12 C13 1_555 1_555
C12 C21 1_555 1_555
C19 C29 1_555 1_555
C22 C23 1_555 1_555
C24 C30 1_555 1_555
C26 C27 1_555 1_555
N6 C34 1_555 1_555
C37 C38 1_555 1_555

#END
