
#######################################################################
#
#                 Cambridge Crystallographic Data Centre
#                                CCDC 
#
#######################################################################
#
# If this CIF has been generated from an entry in the Cambridge 
# Structural Database, then it will include bibliographic, chemical, 
# crystal, experimental, refinement or atomic coordinate data resulting 
# from the CCDC's data processing and validation procedures.
#
#######################################################################

data_VONFIP
_symmetry_cell_setting           monoclinic
_symmetry_space_group_name_H-M   'P 21/n'
_symmetry_Int_Tables_number      14
_space_group_name_Hall           '-P 2yn'
loop_
_symmetry_equiv_pos_site_id
_symmetry_equiv_pos_as_xyz
1 x,y,z
2 1/2-x,1/2+y,1/2-z
3 -x,-y,-z
4 1/2+x,1/2-y,1/2+z
_cell_length_a                   10.0386(7)
_cell_length_b                   11.2543(8)
_cell_length_c                   18.3065(13)
_cell_angle_alpha                90
_cell_angle_beta                 103.838(3)
_cell_angle_gamma                90
_cell_volume                     2008.19
loop_
_atom_site_label
_atom_site_type_symbol
_atom_site_fract_x
_atom_site_fract_y
_atom_site_fract_z
Zn1 Zn -0.49073(5) -0.14782(4) -0.18779(3)
I1 I -0.44385(3) -0.36576(2) -0.20695(2)
I2 I -0.69447(2) -0.09184(2) -0.13588(2)
N1 N -0.3186(3) -0.0612(3) -0.12658(16)
N2 N -0.0098(3) 0.2545(2) 0.01192(16)
N3 N 0.0042(3) 0.5607(3) 0.21225(16)
C1 C -0.3322(4) 0.0313(3) -0.0823(2)
H1 H -0.4185 0.0440 -0.0707
C2 C -0.2259(4) 0.1085(3) -0.0529(2)
H2 H -0.2395 0.1726 -0.0217
C3 C -0.0986(4) 0.0919(3) -0.06933(19)
C4 C -0.0831(4) -0.0065(3) -0.1127(2)
H3 H 0.0031 -0.0233 -0.1232
C5 C -0.1948(4) -0.0796(3) -0.1402(2)
H4 H -0.1832 -0.1459 -0.1702
C6 C 0.0122(4) 0.1806(3) -0.04169(19)
C7 C 0.1262(4) 0.1891(3) -0.07157(19)
H5 H 0.1393 0.1340 -0.1085
C8 C 0.2217(4) 0.2795(3) -0.04693(19)
C9 C 0.1981(4) 0.3567(3) 0.0084(2)
H6 H 0.2606 0.4194 0.0267
C10 C 0.0828(4) 0.3410(3) 0.03626(19)
C11 C -0.0583(4) 0.4551(3) 0.1961(2)
H7 H -0.1190 0.4289 0.2254
C12 C -0.0376(4) 0.3827(3) 0.1383(2)
H8 H -0.0848 0.3092 0.1278
C13 C 0.0528(4) 0.4193(3) 0.09610(19)
C14 C 0.1148(3) 0.5299(3) 0.11171(19)
H9 H 0.1752 0.5589 0.0830
C15 C 0.0875(4) 0.5969(3) 0.1693(2)
H10 H 0.1298 0.6727 0.1791
C16 C 0.3385(4) 0.2609(3) -0.1532(2)
H11 H 0.2568 0.2266 -0.1828
C17 C 0.3413(4) 0.2946(3) -0.0795(2)
C18 C 0.4658(4) 0.3435(3) -0.0393(2)
H12 H 0.4743 0.3656 0.0117
N4 N 0.4457(3) 0.2749(3) -0.18405(19)
N5 N 0.5723(3) 0.3601(3) -0.0694(2)
C19 C 0.5552(4) 0.3245(3) -0.1404(2)
H13 H 0.6310 0.3362 -0.1623
Zn1C Zn 0.00927(5) 0.64782(4) 0.31221(3)
N3C N -0.4958(3) -0.0607(3) -0.28775(16)
loop_
_geom_bond_atom_site_label_1
_geom_bond_atom_site_label_2
_geom_bond_site_symmetry_1
_geom_bond_site_symmetry_2
Zn1 I1 1_555 1_555
I2 Zn1 1_555 1_555
N1 Zn1 1_555 1_555
N2 C6 1_555 1_555
N3 C11 1_555 1_555
C1 N1 1_555 1_555
H1 C1 1_555 1_555
C2 C1 1_555 1_555
H2 C2 1_555 1_555
C3 C2 1_555 1_555
C4 C3 1_555 1_555
H3 C4 1_555 1_555
C5 N1 1_555 1_555
H4 C5 1_555 1_555
C6 C3 1_555 1_555
C7 C6 1_555 1_555
H5 C7 1_555 1_555
C8 C7 1_555 1_555
C9 C8 1_555 1_555
H6 C9 1_555 1_555
C10 N2 1_555 1_555
C11 H7 1_555 1_555
C12 C11 1_555 1_555
H8 C12 1_555 1_555
C13 C10 1_555 1_555
C14 C13 1_555 1_555
H9 C14 1_555 1_555
C15 N3 1_555 1_555
H10 C15 1_555 1_555
C16 H11 1_555 1_555
C17 C8 1_555 1_555
C18 C17 1_555 1_555
H12 C18 1_555 1_555
N4 C16 1_555 1_555
N5 C18 1_555 1_555
C19 N4 1_555 1_555
H13 C19 1_555 1_555
Zn1C N3 1_555 1_555
N3C Zn1 1_555 1_555
C4 C5 1_555 1_555
C9 C10 1_555 1_555
C12 C13 1_555 1_555
C14 C15 1_555 1_555
C16 C17 1_555 1_555
N5 C19 1_555 1_555

#END
