
#######################################################################
#
#                 Cambridge Crystallographic Data Centre
#                                CCDC 
#
#######################################################################
#
# If this CIF has been generated from an entry in the Cambridge 
# Structural Database, then it will include bibliographic, chemical, 
# crystal, experimental, refinement or atomic coordinate data resulting 
# from the CCDC's data processing and validation procedures.
#
#######################################################################

data_VONQAS
_symmetry_cell_setting           monoclinic
_symmetry_space_group_name_H-M   'P 21/n'
_symmetry_Int_Tables_number      14
_space_group_name_Hall           '-P 2yn'
loop_
_symmetry_equiv_pos_site_id
_symmetry_equiv_pos_as_xyz
1 x,y,z
2 1/2-x,1/2+y,1/2-z
3 -x,-y,-z
4 1/2+x,1/2-y,1/2+z
_cell_length_a                   4.1790(6)
_cell_length_b                   8.3640(12)
_cell_length_c                   24.498(5)
_cell_angle_alpha                90
_cell_angle_beta                 92.638(14)
_cell_angle_gamma                90
_cell_volume                     855.375
loop_
_atom_site_label
_atom_site_type_symbol
_atom_site_fract_x
_atom_site_fract_y
_atom_site_fract_z
Cu1 Cu 0.24869(16) 0.45832(8) 0.05496(3)
Br1 Br 0.74610(11) 0.62567(6) 0.04741(2)
N1 N 0.2683(9) 0.3027(5) 0.11672(17)
N2 N 0.1336(9) 0.1530(5) 0.11485(17)
C1 C 0.6127(13) 0.4563(6) 0.1833(2)
H1 H 0.6743 0.5180 0.1514
H2 H 0.8052 0.4258 0.2052
H3 H 0.4738 0.5216 0.2055
C2 C 0.4357(11) 0.3084(6) 0.1645(2)
C3 C 0.4115(12) 0.1625(6) 0.1924(2)
H4 H 0.5082 0.1358 0.2270
C4 C 0.2192(12) 0.0660(6) 0.1593(2)
C5 C 0.1129(14) -0.1017(6) 0.1665(2)
H5 H 0.1814 -0.1666 0.1359
H6 H -0.1211 -0.1048 0.1676
H7 H 0.2083 -0.1443 0.2008
C6 C -0.0704(11) 0.1063(6) 0.0679(2)
H8 H -0.1700 0.2033 0.0513
H9 H -0.2447 0.0371 0.0804
C7 C 0.1076(11) 0.0180(6) 0.0247(2)
H10 H 0.2905 0.0839 0.0136
H11 H 0.1940 -0.0832 0.0402
N1B N -0.2683(9) -0.3027(5) -0.11672(17)
N2B N -0.1336(9) -0.1530(5) -0.11485(17)
C1B C -0.6127(13) -0.4563(6) -0.1833(2)
H1B H -0.6743 -0.5180 -0.1514
H2B H -0.8052 -0.4258 -0.2052
H3B H -0.4738 -0.5216 -0.2055
C2B C -0.4357(11) -0.3084(6) -0.1645(2)
C3B C -0.4115(12) -0.1625(6) -0.1924(2)
H4B H -0.5082 -0.1358 -0.2270
C4B C -0.2192(12) -0.0660(6) -0.1593(2)
C5B C -0.1129(14) 0.1017(6) -0.1665(2)
H5B H -0.1814 0.1666 -0.1359
H6B H 0.1211 0.1048 -0.1676
H7B H -0.2083 0.1443 -0.2008
C6B C 0.0704(11) -0.1063(6) -0.0679(2)
H8B H 0.1700 -0.2033 -0.0513
H9B H 0.2447 -0.0371 -0.0804
C7B C -0.1076(11) -0.0180(6) -0.0247(2)
H10B H -0.2905 -0.0839 -0.0136
H11B H -0.1940 0.0832 -0.0402
Cu1B Cu -0.24869(16) -0.45832(8) -0.05496(3)
Br1B Br -0.74610(11) -0.62567(6) -0.04741(2)
Cu1_2 Cu -0.75131(16) -0.54168(8) 0.05496(3)
Cu1_3 Cu 1.24869(16) 0.45832(8) 0.05496(3)
Cu1B_2 Cu -1.24869(16) -0.45832(8) -0.05496(3)
Cu1B_3 Cu 0.75131(16) 0.54168(8) -0.05496(3)
Br1_2 Br -0.25390(11) -0.37433(6) 0.04741(2)
Br1_3 Br -0.25390(11) 0.62567(6) 0.04741(2)
Br1B_2 Br 0.25390(11) -0.62567(6) -0.04741(2)
Br1B_3 Br 0.25390(11) 0.37433(6) -0.04741(2)
loop_
_geom_bond_atom_site_label_1
_geom_bond_atom_site_label_2
_geom_bond_site_symmetry_1
_geom_bond_site_symmetry_2
Cu1 Br1 1_555 1_555
Br1 Cu1_3 1_555 1_555
N1 Cu1 1_555 1_555
N2 N1 1_555 1_555
C1 H1 1_555 1_555
H2 C1 1_555 1_555
H3 C1 1_555 1_555
C2 N1 1_555 1_555
C3 C2 1_555 1_555
H4 C3 1_555 1_555
C4 N2 1_555 1_555
C5 C4 1_555 1_555
H5 C5 1_555 1_555
H6 C5 1_555 1_555
H7 C5 1_555 1_555
C6 N2 1_555 1_555
H8 C6 1_555 1_555
H9 C6 1_555 1_555
C7 C6 1_555 1_555
H10 C7 1_555 1_555
H11 C7 1_555 1_555
N1B N2B 1_555 1_555
N2B C4B 1_555 1_555
C1B H1B 1_555 1_555
H2B C1B 1_555 1_555
H3B C1B 1_555 1_555
C2B N1B 1_555 1_555
C3B C2B 1_555 1_555
H4B C3B 1_555 1_555
C4B C3B 1_555 1_555
C5B C4B 1_555 1_555
H5B C5B 1_555 1_555
H6B C5B 1_555 1_555
H7B C5B 1_555 1_555
C6B N2B 1_555 1_555
H8B C6B 1_555 1_555
H9B C6B 1_555 1_555
C7B C7 1_555 1_555
H10B C7B 1_555 1_555
H11B C7B 1_555 1_555
Cu1B N1B 1_555 1_555
Br1B Cu1B 1_555 1_555
Cu1_2 Br1B 1_555 1_555
Cu1B_2 Br1B 1_555 1_555
Cu1B_3 Br1 1_555 1_555
Br1_2 Cu1B 1_555 1_555
Br1_3 Cu1 1_555 1_555
Br1B_2 Cu1B 1_555 1_555
Br1B_3 Cu1 1_555 1_555
C1 C2 1_555 1_555
C3 C4 1_555 1_555
C1B C2B 1_555 1_555
C6B C7B 1_555 1_555
Cu1_2 Br1_2 1_555 1_555
Cu1B_3 Br1B_3 1_555 1_555

#END
