
#######################################################################
#
#                 Cambridge Crystallographic Data Centre
#                                CCDC 
#
#######################################################################
#
# If this CIF has been generated from an entry in the Cambridge 
# Structural Database, then it will include bibliographic, chemical, 
# crystal, experimental, refinement or atomic coordinate data resulting 
# from the CCDC's data processing and validation procedures.
#
#######################################################################

data_VONQUM
_symmetry_cell_setting           monoclinic
_symmetry_space_group_name_H-M   'P 21'
_symmetry_Int_Tables_number      4
_space_group_name_Hall           'P 2yb'
loop_
_symmetry_equiv_pos_site_id
_symmetry_equiv_pos_as_xyz
1 x,y,z
2 -x,1/2+y,-z
_cell_length_a                   10.3254(3)
_cell_length_b                   17.7175(6)
_cell_length_c                   14.3986(4)
_cell_angle_alpha                90
_cell_angle_beta                 95.878(2)
_cell_angle_gamma                90
_cell_volume                     2620.23
loop_
_atom_site_label
_atom_site_type_symbol
_atom_site_fract_x
_atom_site_fract_y
_atom_site_fract_z
C1 C 1.2215(4) 0.4118(3) 0.7214(3)
C2 C 1.3411(4) 0.3882(3) 0.6948(3)
H1 H 1.3554 0.3876 0.6321
C3 C 1.4361(4) 0.3662(3) 0.7610(3)
C4 C 1.4193(4) 0.3660(2) 0.8554(3)
C5 C 1.2999(4) 0.3866(3) 0.8821(3)
H2 H 1.2854 0.3857 0.9448
C6 C 1.2016(4) 0.4087(3) 0.8148(3)
H3 H 1.1206 0.4216 0.8329
C7 C 1.1177(4) 0.4426(3) 0.6506(3)
C8 C 1.5035(4) 0.3469(3) 1.0115(3)
C9 C 1.4638(5) 0.2818(3) 1.0505(3)
H4 H 1.4581 0.2370 1.0166
C10 C 1.4322(5) 0.2836(3) 1.1412(3)
H5 H 1.4045 0.2396 1.1684
C11 C 1.4409(4) 0.3492(2) 1.1920(3)
C12 C 1.4885(4) 0.4132(3) 1.1537(3)
H6 H 1.4989 0.4573 1.1888
C13 C 1.5209(4) 0.4119(3) 1.0624(3)
H7 H 1.5541 0.4549 1.0362
C14 C 1.3540(4) 0.4132(3) 1.3192(3)
H8 H 1.4251 0.4500 1.3282
C15 C 1.2394(4) 0.4488(3) 1.2582(3)
C16 C 1.3145(5) 0.3904(3) 1.4132(3)
H9 H 1.2594 0.3467 1.4062
H10 H 1.2682 0.4312 1.4387
H11 H 1.3909 0.3788 1.4545
C17 C 0.4723(5) 0.6323(3) 0.6208(3)
C18 C 0.3916(5) 0.5876(3) 0.5618(4)
H12 H 0.3454 0.5484 0.5859
C19 C 0.3791(5) 0.6012(3) 0.4659(3)
H13 H 0.3261 0.5709 0.4252
C20 C 0.4470(5) 0.6605(3) 0.4332(3)
C21 C 0.5209(5) 0.7074(3) 0.4929(4)
H14 H 0.5618 0.7491 0.4697
C22 C 0.5341(5) 0.6928(3) 0.5857(4)
H15 H 0.5856 0.7241 0.6260
C23 C 0.5691(5) 0.5533(3) 0.7382(3)
H16 H 0.5270 0.5096 0.7061
C24 C 0.7056(5) 0.5630(3) 0.7054(3)
C25 C 0.5744(6) 0.5406(4) 0.8423(3)
H17 H 0.6145 0.5834 0.8746
H18 H 0.6243 0.4961 0.8589
H19 H 0.4876 0.5344 0.8595
C26 C 0.5349(4) 0.6359(2) 0.2929(3)
C27 C 0.5301(4) 0.6439(2) 0.1972(3)
C28 C 0.6196(4) 0.6113(3) 0.1461(3)
H20 H 0.6137 0.6182 0.0817
C29 C 0.7197(4) 0.5678(2) 0.1909(3)
C30 C 0.7248(4) 0.5589(3) 0.2862(3)
H21 H 0.7902 0.5294 0.3170
C31 C 0.6349(4) 0.5929(3) 0.3367(3)
H22 H 0.6414 0.5870 0.4012
C32 C 0.8176(4) 0.5312(3) 0.1356(3)
C33 C 0.8867(4) 0.4043(3) 0.4182(3)
H23 H 0.9725 0.4144 0.4080
C34 C 0.7064(5) 0.4027(3) 0.4774(4)
H24 H 0.6423 0.4120 0.5169
C35 C 0.6919(5) 0.3594(3) 0.4010(4)
H25 H 0.6173 0.3332 0.3781
C36 C 0.8344(5) 0.3256(3) 0.2750(3)
H26 H 0.9213 0.3395 0.2612
H27 H 0.7730 0.3445 0.2249
C37 C 0.8245(5) 0.2410(3) 0.2787(3)
H28 H 0.7413 0.2266 0.2992
H29 H 0.8930 0.2211 0.3232
C38 C 0.8372(6) 0.2076(3) 0.1813(3)
H30 H 0.7641 0.2240 0.1383
H31 H 0.9164 0.2262 0.1584
C39 C 0.8404(6) 0.1236(3) 0.1847(3)
H32 H 0.9208 0.1071 0.2195
H33 H 0.7684 0.1053 0.2168
C40 C 0.9171(4) 0.0477(2) 0.0543(3)
H34 H 0.9971 0.0341 0.0854
C41 C 0.7554(4) 0.0584(3) -0.0497(4)
H35 H 0.7014 0.0533 -0.1052
C42 C 0.7275(5) 0.0993(3) 0.0242(4)
H36 H 0.6524 0.1273 0.0294
C43 C 1.0225(5) 0.6164(4) 0.4613(5)
H37 H 1.0752 0.5793 0.4394
C44 C 0.8842(7) 0.6736(4) 0.5359(5)
H38 H 0.8219 0.6836 0.5765
C45 C 0.9346(7) 0.7244(4) 0.4816(5)
H39 H 0.9131 0.7754 0.4769
C46 C 1.1068(7) 0.7243(6) 0.3708(6)
H40 H 1.1534 0.7651 0.4045
H41 H 1.1711 0.6877 0.3555
C47 C 1.0449(11) 0.7549(8) 0.2838(6)
H42 H 0.9806 0.7909 0.3010
H43 H 1.1112 0.7841 0.2569
C48 C 0.9879(15) 0.7156(8) 0.2166(9)
H44 H 0.8983 0.7329 0.2110
H45 H 0.9862 0.6648 0.2414
C49 C 1.0176(8) 0.7057(4) 0.1208(5)
H46 H 0.9422 0.6828 0.0861
H47 H 1.0883 0.6696 0.1214
C50 C 0.9746(5) 0.8093(3) 0.0049(4)
H48 H 0.8898 0.7946 -0.0149
C51 C 1.1547(5) 0.8684(4) 0.0213(4)
H49 H 1.2192 0.9040 0.0142
C52 C 1.1674(5) 0.8091(5) 0.0781(5)
H50 H 1.2410 0.7958 0.1173
F1 F 1.5553(3) 0.34657(19) 0.73615(19)
F2 F 0.4339(3) 0.68641(18) 0.15414(19)
N1 N 0.8304(3) 0.4310(2) 0.4885(2)
N2 N 0.8076(4) 0.3612(2) 0.3633(3)
N3 N 0.8744(3) 0.0256(2) -0.0315(2)
N4 N 0.8312(4) 0.0916(2) 0.0899(3)
N5 N 0.9386(4) 0.6038(3) 0.5226(3)
N6 N 1.0232(4) 0.6880(3) 0.4344(4)
N7 N 1.0539(4) 0.7723(2) 0.0680(3)
N8 N 1.0316(4) 0.8690(2) -0.0256(3)
O1 O 1.0170(3) 0.4679(2) 0.6836(2)
O2 O 1.1340(3) 0.4441(3) 0.5682(2)
O3 O 1.5258(3) 0.34699(19) 0.91692(19)
O4 O 1.4010(3) 0.34576(16) 1.27988(18)
O5 O 1.1769(3) 0.40600(17) 1.1982(2)
O6 O 1.2148(4) 0.5146(2) 1.2727(3)
O7 O 0.7264(3) 0.5200(2) 0.6398(2)
O8 O 0.7830(4) 0.6083(3) 0.7428(3)
O9 O 0.4912(4) 0.6179(2) 0.7163(2)
O10 O 0.4404(3) 0.67189(19) 0.3361(2)
O11 O 0.9031(3) 0.4917(2) 0.1829(2)
O12 O 0.8106(3) 0.5391(2) 0.0503(2)
Zn1 Zn 0.89218(5) 0.50809(3) 0.58653(3)
Zn2 Zn 1.03982(4) 0.45290(3) 1.11217(3)
N3A N 1.1256(3) 0.5256(2) 1.0315(2)
N8A N 0.9684(4) 0.3690(2) 1.0256(3)
O11_2 O 0.9031(3) 0.4917(2) 1.1829(2)
Zn2_2 Zn 1.03982(4) 0.45290(3) 0.11217(3)
Zn2A Zn 0.96018(4) -0.04710(3) -0.11217(3)
Zn2A_2 Zn 0.96018(4) 0.95290(3) -0.11217(3)
O13 O 0.8172(6) 0.6645(3) -0.0661(4)
H51 H 0.7920 0.6684 -0.1240
H52 H 0.8383 0.6188 -0.0547
O14 O 0.1302(7) 0.2601(5) 0.2625(6)
H53 H 0.1318 0.2362 0.2114
H54 H 0.1436 0.3055 0.2471
loop_
_geom_bond_atom_site_label_1
_geom_bond_atom_site_label_2
_geom_bond_site_symmetry_1
_geom_bond_site_symmetry_2
C1 C2 1_555 1_555
C2 H1 1_555 1_555
C3 C2 1_555 1_555
C4 C3 1_555 1_555
C5 C4 1_555 1_555
H2 C5 1_555 1_555
C6 C1 1_555 1_555
H3 C6 1_555 1_555
C7 C1 1_555 1_555
C8 C9 1_555 1_555
C9 H4 1_555 1_555
C10 C9 1_555 1_555
H5 C10 1_555 1_555
C11 C10 1_555 1_555
C12 C11 1_555 1_555
H6 C12 1_555 1_555
C13 C8 1_555 1_555
H7 C13 1_555 1_555
C14 H8 1_555 1_555
C15 C14 1_555 1_555
C16 C14 1_555 1_555
H9 C16 1_555 1_555
H10 C16 1_555 1_555
H11 C16 1_555 1_555
C17 C18 1_555 1_555
C18 H12 1_555 1_555
C19 C18 1_555 1_555
H13 C19 1_555 1_555
C20 C19 1_555 1_555
C21 C20 1_555 1_555
H14 C21 1_555 1_555
C22 C17 1_555 1_555
H15 C22 1_555 1_555
C23 H16 1_555 1_555
C24 C23 1_555 1_555
C25 C23 1_555 1_555
H17 C25 1_555 1_555
H18 C25 1_555 1_555
H19 C25 1_555 1_555
C26 C27 1_555 1_555
C27 C28 1_555 1_555
C28 H20 1_555 1_555
C29 C28 1_555 1_555
C30 C29 1_555 1_555
H21 C30 1_555 1_555
C31 C26 1_555 1_555
H22 C31 1_555 1_555
C32 C29 1_555 1_555
C33 H23 1_555 1_555
C34 H24 1_555 1_555
C35 C34 1_555 1_555
H25 C35 1_555 1_555
C36 H26 1_555 1_555
H27 C36 1_555 1_555
C37 C36 1_555 1_555
H28 C37 1_555 1_555
H29 C37 1_555 1_555
C38 C37 1_555 1_555
H30 C38 1_555 1_555
H31 C38 1_555 1_555
C39 C38 1_555 1_555
H32 C39 1_555 1_555
H33 C39 1_555 1_555
C40 H34 1_555 1_555
C41 H35 1_555 1_555
C42 C41 1_555 1_555
H36 C42 1_555 1_555
C43 H37 1_555 1_555
C44 H38 1_555 1_555
C45 C44 1_555 1_555
H39 C45 1_555 1_555
C46 H40 1_555 1_555
H41 C46 1_555 1_555
C47 C46 1_555 1_555
H42 C47 1_555 1_555
H43 C47 1_555 1_555
C48 C47 1_555 1_555
H44 C48 1_555 1_555
H45 C48 1_555 1_555
C49 C48 1_555 1_555
H46 C49 1_555 1_555
H47 C49 1_555 1_555
C50 H48 1_555 1_555
C51 H49 1_555 1_555
C52 C51 1_555 1_555
H50 C52 1_555 1_555
F1 C3 1_555 1_555
F2 C27 1_555 1_555
N1 C33 1_555 1_555
N2 C33 1_555 1_555
N3 C40 1_555 1_555
N4 C39 1_555 1_555
N5 C43 1_555 1_555
N6 C43 1_555 1_555
N7 C49 1_555 1_555
N8 C50 1_555 1_555
O1 C7 1_555 1_555
O2 C7 1_555 1_555
O3 C4 1_555 1_555
O4 C11 1_555 1_555
O5 C15 1_555 1_555
O6 C15 1_555 1_555
O7 C24 1_555 1_555
O8 C24 1_555 1_555
O9 C17 1_555 1_555
O10 C20 1_555 1_555
O11 C32 1_555 1_555
O12 C32 1_555 1_555
Zn1 N1 1_555 1_555
Zn2 O5 1_555 1_555
O13 H51 1_555 1_555
H52 O13 1_555 1_555
O14 H53 1_555 1_555
H54 O14 1_555 1_555
N3A Zn2 1_555 1_555
N8A Zn2 1_555 1_555
O11_2 Zn2 1_555 1_555
Zn2_2 O11 1_555 1_555
Zn2A N3 1_555 1_555
Zn2A_2 N8 1_555 1_555
C5 C6 1_555 1_555
C8 O3 1_555 1_555
C12 C13 1_555 1_555
C14 O4 1_555 1_555
C21 C22 1_555 1_555
C23 O9 1_555 1_555
C26 O10 1_555 1_555
C30 C31 1_555 1_555
C34 N1 1_555 1_555
C35 N2 1_555 1_555
C36 N2 1_555 1_555
C40 N4 1_555 1_555
C41 N3 1_555 1_555
C42 N4 1_555 1_555
C44 N5 1_555 1_555
C45 N6 1_555 1_555
C46 N6 1_555 1_555
C50 N7 1_555 1_555
C51 N8 1_555 1_555
C52 N7 1_555 1_555
N5 Zn1 1_555 1_555
O1 Zn1 1_555 1_555
O7 Zn1 1_555 1_555

#END
