
#######################################################################
#
#                 Cambridge Crystallographic Data Centre
#                                CCDC 
#
#######################################################################
#
# If this CIF has been generated from an entry in the Cambridge 
# Structural Database, then it will include bibliographic, chemical, 
# crystal, experimental, refinement or atomic coordinate data resulting 
# from the CCDC's data processing and validation procedures.
#
#######################################################################

data_VOPBUX
_symmetry_cell_setting           monoclinic
_symmetry_space_group_name_H-M   'P 21'
_symmetry_Int_Tables_number      4
_space_group_name_Hall           'P 2yb'
loop_
_symmetry_equiv_pos_site_id
_symmetry_equiv_pos_as_xyz
1 x,y,z
2 -x,1/2+y,-z
_cell_length_a                   11.352(2)
_cell_length_b                   7.564(4)
_cell_length_c                   11.576(2)
_cell_angle_alpha                90
_cell_angle_beta                 118.85(2)
_cell_angle_gamma                90
_cell_volume                     870.623
loop_
_atom_site_label
_atom_site_type_symbol
_atom_site_fract_x
_atom_site_fract_y
_atom_site_fract_z
S1 S 0.49010(5) 0.25143(8) -0.18020(5)
N1 N 0.2413(2) 0.4318(3) -0.7498(2)
C1 C 0.4170(2) 0.3000(3) -0.3495(2)
C2 C 0.2887(2) 0.2402(3) -0.4374(2)
C3 C 0.2330(2) 0.2821(4) -0.5693(2)
C4 C 0.3015(2) 0.3874(3) -0.6153(2)
C5 C 0.4330(2) 0.4418(4) -0.5270(2)
C6 C 0.4894(2) 0.3993(3) -0.3950(2)
O1 O 0.5078(2) 0.4204(2) -0.1110(2)
O2 O 0.3973(2) 0.1364(2) -0.1627(1)
O3 O 0.6198(2) 0.1698(3) -0.1417(2)
S2 S 0.99801(5) 0.85483(8) 0.22993(5)
N2 N 1.2837(2) 0.7749(3) 0.8149(2)
C7 C 1.0886(2) 0.8445(3) 0.4035(2)
C8 C 1.2210(2) 0.7862(4) 0.4678(2)
C9 C 1.2871(2) 0.7646(4) 0.6038(2)
C10 C 1.2207(2) 0.8008(3) 0.6757(2)
C11 C 1.0906(2) 0.8666(4) 0.6108(2)
C12 C 1.0241(2) 0.8878(4) 0.4753(2)
O4 O 0.9291(2) 1.0227(3) 0.1958(2)
O5 O 1.0955(2) 0.8367(3) 0.1831(2)
O6 O 0.9067(2) 0.7064(3) 0.1912(2)
O7 O 0.6154(2) 0.8193(3) -0.0467(2)
O8 O 0.9110(2) 0.3397(3) 0.0695(2)
O9 O 0.7652(2) 0.6000(3) -0.1321(2)
H1 H 0.247(2) 0.170(3) -0.400(2)
H2 H 0.145(3) 0.232(4) -0.632(2)
H3 H 0.481(2) 0.513(4) -0.560(2)
H4 H 0.578(3) 0.448(4) -0.332(3)
H5 H 0.282(2) 0.506(4) -0.756(2)
H6 H 0.150(3) 0.439(5) -0.789(3)
H7 H 1.268(2) 0.772(3) 0.424(2)
H8 H 1.381(2) 0.714(4) 0.651(2)
H9 H 1.052(3) 0.908(5) 0.659(3)
H10 H 0.943(2) 0.921(4) 0.436(2)
H11 H 1.364(3) 0.741(4) 0.846(3)
H12 H 1.236(3) 0.692(5) 0.835(3)
H13 H 0.636(3) 0.902(4) -0.082(3)
H14 H 0.592(3) 0.866(5) -0.003(3)
H15 H 0.918(3) 0.242(4) 0.110(3)
H16 H 0.915(3) 0.330(6) 0.004(3)
H17 H 0.753(4) 0.678(7) -0.165(4)
H18 H 0.817(2) 0.534(5) -0.146(3)
Ca1 Ca 0.72369(4) 0.541 0.04485(4)
Ca1A Ca 0.27631(4) 0.041 -0.04485(4)
O2A O 0.6027(2) 0.6364(2) 0.1627(1)
loop_
_geom_bond_atom_site_label_1
_geom_bond_atom_site_label_2
_geom_bond_site_symmetry_1
_geom_bond_site_symmetry_2
S1 C1 1_555 1_555
N1 C4 1_555 1_555
C1 C2 1_555 1_555
C2 C3 1_555 1_555
C3 C4 1_555 1_555
C4 C5 1_555 1_555
C5 C6 1_555 1_555
C6 C1 1_555 1_555
O1 S1 1_555 1_555
O2 S1 1_555 1_555
O3 S1 1_555 1_555
S2 C7 1_555 1_555
N2 C10 1_555 1_555
C7 C8 1_555 1_555
C8 C9 1_555 1_555
C9 C10 1_555 1_555
C10 C11 1_555 1_555
C11 C12 1_555 1_555
C12 C7 1_555 1_555
O4 S2 1_555 1_555
O5 S2 1_555 1_555
O6 S2 1_555 1_555
O7 H13 1_555 1_555
O8 H15 1_555 1_555
O9 H17 1_555 1_555
H1 C2 1_555 1_555
H2 C3 1_555 1_555
H3 C5 1_555 1_555
H4 C6 1_555 1_555
H5 N1 1_555 1_555
H6 N1 1_555 1_555
H7 C8 1_555 1_555
H8 C9 1_555 1_555
H9 C11 1_555 1_555
H10 C12 1_555 1_555
H11 N2 1_555 1_555
H12 N2 1_555 1_555
H14 O7 1_555 1_555
H16 O8 1_555 1_555
H18 O9 1_555 1_555
Ca1 O1 1_555 1_555
Ca1A O2 1_555 1_555
O2A Ca1 1_555 1_555
O6 Ca1 1_555 1_555
O7 Ca1 1_555 1_555
O8 Ca1 1_555 1_555
O9 Ca1 1_555 1_555

#END
