
#######################################################################
#
#                 Cambridge Crystallographic Data Centre
#                                CCDC 
#
#######################################################################
#
# If this CIF has been generated from an entry in the Cambridge 
# Structural Database, then it will include bibliographic, chemical, 
# crystal, experimental, refinement or atomic coordinate data resulting 
# from the CCDC's data processing and validation procedures.
#
#######################################################################

data_VOPBUZ
_symmetry_cell_setting           triclinic
_symmetry_space_group_name_H-M   'P -1'
_symmetry_Int_Tables_number      2
_space_group_name_Hall           '-P 1'
loop_
_symmetry_equiv_pos_site_id
_symmetry_equiv_pos_as_xyz
1 x,y,z
2 -x,-y,-z
_cell_length_a                   6.15730(10)
_cell_length_b                   10.07990(10)
_cell_length_c                   13.7771(2)
_cell_angle_alpha                81.0330(10)
_cell_angle_beta                 87.4270(10)
_cell_angle_gamma                83.7830(10)
_cell_volume                     839.316
loop_
_atom_site_label
_atom_site_type_symbol
_atom_site_fract_x
_atom_site_fract_y
_atom_site_fract_z
Cu1 Cu 1.18877(9) 0.68758(5) 0.62776(4)
Cu2 Cu 0.75779(10) 0.50315(6) 0.49652(4)
I1 I 0.96849(4) 0.72413(2) 0.470338(19)
I2 I 0.50598(4) 0.51250(2) 0.342663(18)
N1 N 1.3095(5) 0.8566(3) 0.6655(2)
N2 N 1.3090(6) 1.0458(3) 0.7496(2)
N3 N 1.0390(5) 0.9073(3) 0.7859(2)
H1 H 0.9779 0.9718 0.8150
O1 O 0.9823(5) 0.6985(3) 0.7540(2)
O2 O 0.1929(5) 0.8405(3) 1.1446(2)
O3 O 0.1419(5) 0.6426(3) 1.1008(2)
C1 C 1.2291(6) 0.9363(4) 0.7301(3)
C2 C 1.4962(7) 0.8912(4) 0.6186(3)
H2 H 1.5627 0.8370 0.5747
C3 C 1.5926(7) 1.0026(4) 0.6324(3)
H3 H 1.7211 1.0254 0.5989
C4 C 1.4891(8) 1.0791(4) 0.6987(3)
H4 H 1.5474 1.1573 0.7083
C5 C 0.9367(6) 0.7920(4) 0.8009(3)
C6 C 0.7598(6) 0.7840(4) 0.8782(3)
C7 C 0.7516(7) 0.8548(4) 0.9571(3)
H5 H 0.8594 0.9106 0.9632
C8 C 0.5840(7) 0.8425(4) 1.0267(3)
H6 H 0.5782 0.8913 1.0789
C9 C 0.4239(6) 0.7580(4) 1.0194(3)
C10 C 0.4350(7) 0.6843(4) 0.9424(3)
H7 H 0.3299 0.6262 0.9374
C11 C 0.6038(7) 0.6972(4) 0.8724(3)
H8 H 0.6119 0.6469 0.8211
C12 C 0.2425(7) 0.7529(4) 1.0951(3)
C13 C -0.0324(8) 0.6259(5) 1.1752(4)
H9 H -0.0940 0.5431 1.1726
H10 H -0.1439 0.7003 1.1631
H11 H 0.0257 0.6234 1.2390
Cu1A Cu 0.81123(9) 0.31242(5) 0.37224(4)
Cu2A Cu 0.24221(10) 0.49685(6) 0.50348(4)
Cu2A_2 Cu 1.24221(10) 0.49685(6) 0.50348(4)
I1A I 1.03151(4) 0.27587(2) 0.529662(19)
I2A I 0.49402(4) 0.48750(2) 0.657337(18)
I2A_2 I 1.49402(4) 0.48750(2) 0.657337(18)
loop_
_geom_bond_atom_site_label_1
_geom_bond_atom_site_label_2
_geom_bond_site_symmetry_1
_geom_bond_site_symmetry_2
Cu1 I1 1_555 1_555
Cu2 I1 1_555 1_555
I1 Cu2A_2 1_555 1_555
I2 Cu2 1_555 1_555
N1 Cu1 1_555 1_555
N2 C1 1_555 1_555
N3 H1 1_555 1_555
O1 Cu1 1_555 1_555
O2 C12 1_555 1_555
O3 C12 1_555 1_555
C1 N1 1_555 1_555
C2 N1 1_555 1_555
H2 C2 1_555 1_555
C3 C2 1_555 1_555
H3 C3 1_555 1_555
C4 N2 1_555 1_555
H4 C4 1_555 1_555
C5 N3 1_555 1_555
C6 C5 1_555 1_555
C7 C6 1_555 1_555
H5 C7 1_555 1_555
C8 C7 1_555 1_555
H6 C8 1_555 1_555
C9 C8 1_555 1_555
C10 C9 1_555 1_555
H7 C10 1_555 1_555
C11 C6 1_555 1_555
H8 C11 1_555 1_555
C12 C9 1_555 1_555
C13 O3 1_555 1_555
H9 C13 1_555 1_555
H10 C13 1_555 1_555
H11 C13 1_555 1_555
Cu1A I2 1_555 1_555
Cu2A I2 1_555 1_555
Cu2A_2 I1A 1_555 1_555
I1A Cu2 1_555 1_555
I2A Cu2 1_555 1_555
I2A_2 Cu1 1_555 1_555
N3 C1 1_555 1_555
O1 C5 1_555 1_555
C3 C4 1_555 1_555
C10 C11 1_555 1_555
Cu1A I1A 1_555 1_555
Cu2A I2A 1_555 1_555
Cu2A_2 I2A_2 1_555 1_555

#END
