
#######################################################################
#
#                 Cambridge Crystallographic Data Centre
#                                CCDC 
#
#######################################################################
#
# If this CIF has been generated from an entry in the Cambridge 
# Structural Database, then it will include bibliographic, chemical, 
# crystal, experimental, refinement or atomic coordinate data resulting 
# from the CCDC's data processing and validation procedures.
#
#######################################################################

data_VOPBOR
_symmetry_cell_setting           monoclinic
_symmetry_space_group_name_H-M   'P 21/n'
_symmetry_Int_Tables_number      14
_space_group_name_Hall           '-P 2yn'
loop_
_symmetry_equiv_pos_site_id
_symmetry_equiv_pos_as_xyz
1 x,y,z
2 1/2-x,1/2+y,1/2-z
3 -x,-y,-z
4 1/2+x,1/2-y,1/2+z
_cell_length_a                   7.446(9)
_cell_length_b                   17.554(3)
_cell_length_c                   7.511(9)
_cell_angle_alpha                90
_cell_angle_beta                 116.180(1)
_cell_angle_gamma                90
_cell_volume                     881.026
loop_
_atom_site_label
_atom_site_type_symbol
_atom_site_fract_x
_atom_site_fract_y
_atom_site_fract_z
S1 S 0.92664(7) -0.09840(2) 1.15592(9)
O1 O 1.0798(2) -0.09853(7) 1.0863(3)
O2 O 0.2655(2) 0.07089(7) 1.0011(3)
O3 O 0.9834(2) -0.05632(7) 1.3402(2)
C1 C 0.8892(3) -0.19418(9) 1.2039(4)
C2 C 0.8977(3) -0.2510(1) 1.0794(4)
C3 C 0.8630(3) -0.3263(1) 1.1162(4)
C4 C 0.8177(3) -0.34357(9) 1.2699(4)
C5 C 0.8145(3) -0.2864(1) 1.3966(4)
C6 C 0.8506(3) -0.2111(1) 1.3622(4)
N1 N 0.7715(2) -0.42059(8) 1.3004(3)
O5 O 0.5153(2) 0.05973(8) 0.7720(3)
H1 H 0.428(3) -0.262(1) 0.474(4)
H2 H 0.369(3) -0.135(1) 0.537(4)
H3 H 0.795(3) -0.300(1) 1.508(4)
H4 H 0.846(3) -0.174(1) 1.455(4)
H5 H 0.711(3) -0.442(1) 1.189(4)
H6 H 0.680(3) -0.419(1) 1.358(4)
H9 H 0.615(3) 0.070(1) 0.776(4)
H10 H 0.440(4) 0.059(1) 0.647(4)
Co1 Co 0.50000 0.00000 1.00000
O2B O 0.7345(2) -0.07089(7) 0.9989(3)
Co1C Co 1.00000 -0.50000 1.50000
Co1A Co 0.00000 -0.50000 0.50000
O2A O 0.2345(2) -0.42911(7) 0.4989(3)
S1C S 0.42664(7) -0.40160(2) 0.65592(9)
O1C O 0.5798(2) -0.40147(7) 0.5863(3)
O3C O 0.4834(2) -0.44368(7) 0.8402(2)
C1C C 0.3892(3) -0.30582(9) 0.7039(4)
C2C C 0.3977(3) -0.2490(1) 0.5794(4)
C3C C 0.3630(3) -0.1737(1) 0.6162(4)
C4C C 0.3177(3) -0.15643(9) 0.7699(4)
C5C C 0.3145(3) -0.2136(1) 0.8966(4)
C6C C 0.3506(3) -0.2889(1) 0.8622(4)
H4C H 0.346(3) -0.326(1) 0.955(4)
H3C H 0.295(3) -0.200(1) 1.008(4)
N1C N 0.2715(2) -0.07941(8) 0.8004(3)
H5C H 0.211(3) -0.058(1) 0.689(4)
H6C H 0.180(3) -0.081(1) 0.858(4)
N1A N 0.7285(2) 0.07941(8) 1.1996(3)
O5B O 0.4847(2) -0.05973(8) 1.2280(3)
H9B H 0.385(3) -0.070(1) 1.224(4)
H10B H 0.560(4) -0.059(1) 1.353(4)
H2C H 0.869(3) -0.365(1) 1.037(4)
H1C H 0.928(3) -0.238(1) 0.974(4)
O4 O 0.2524(2) 0.06560(9) 1.3870(3)
H7 H 0.230(5) 0.028(2) 1.408(5)
H8 H 0.280(4) 0.071(2) 1.284(5)
loop_
_geom_bond_atom_site_label_1
_geom_bond_atom_site_label_2
_geom_bond_site_symmetry_1
_geom_bond_site_symmetry_2
S1 O1 1_555 1_555
O2 Co1 1_555 1_555
O3 S1 1_555 1_555
C1 S1 1_555 1_555
C2 C1 1_555 1_555
C3 C2 1_555 1_555
C4 C3 1_555 1_555
C5 C4 1_555 1_555
C6 C1 1_555 1_555
N1 C4 1_555 1_555
O4 H7 1_555 1_555
O5 H9 1_555 1_555
H1 C2C 1_555 1_555
H2 C3C 1_555 1_555
H3 C5 1_555 1_555
H4 C6 1_555 1_555
H5 N1 1_555 1_555
H6 N1 1_555 1_555
H8 O4 1_555 1_555
H10 O5 1_555 1_555
Co1 O5 1_555 1_555
O2B S1 1_555 1_555
Co1C N1 1_555 1_555
Co1A O2A 1_555 1_555
O2A S1C 1_555 1_555
S1C O1C 1_555 1_555
O3C S1C 1_555 1_555
C1C S1C 1_555 1_555
C2C C1C 1_555 1_555
C3C C2C 1_555 1_555
C4C C3C 1_555 1_555
C5C C4C 1_555 1_555
C6C C1C 1_555 1_555
H4C C6C 1_555 1_555
H3C C5C 1_555 1_555
N1C Co1 1_555 1_555
H5C N1C 1_555 1_555
H6C N1C 1_555 1_555
N1A Co1 1_555 1_555
O5B Co1 1_555 1_555
H9B O5B 1_555 1_555
H10B O5B 1_555 1_555
H2C C3 1_555 1_555
H1C C2 1_555 1_555
C5 C6 1_555 1_555
Co1 O2B 1_555 1_555
C4C N1C 1_555 1_555
C5C C6C 1_555 1_555

#END
