
#######################################################################
#
#                 Cambridge Crystallographic Data Centre
#                                CCDC 
#
#######################################################################
#
# If this CIF has been generated from an entry in the Cambridge 
# Structural Database, then it will include bibliographic, chemical, 
# crystal, experimental, refinement or atomic coordinate data resulting 
# from the CCDC's data processing and validation procedures.
#
#######################################################################

data_VOPFEL
_symmetry_cell_setting           monoclinic
_symmetry_space_group_name_H-M   'P 21/n'
_symmetry_Int_Tables_number      14
_space_group_name_Hall           '-P 2yn'
loop_
_symmetry_equiv_pos_site_id
_symmetry_equiv_pos_as_xyz
1 x,y,z
2 1/2-x,1/2+y,1/2-z
3 -x,-y,-z
4 1/2+x,1/2-y,1/2+z
_cell_length_a                   10.228(2)
_cell_length_b                   20.757(4)
_cell_length_c                   12.38(2)
_cell_angle_alpha                90
_cell_angle_beta                 106.05(3)
_cell_angle_gamma                90
_cell_volume                     2525.86
loop_
_atom_site_label
_atom_site_type_symbol
_atom_site_fract_x
_atom_site_fract_y
_atom_site_fract_z
K1 K 0.04893(10) 0.20059(4) -0.26143(7)
B1 B -0.19582(68) 0.27159(30) -0.51311(46)
F1 F -0.16504(24) 0.29139(11) -0.61202(17)
O1 O 0.13697(32) 0.40796(13) -0.41587(27)
O2 O 0.21862(32) 0.26729(17) -0.38859(26)
O3 O 0.18489(33) 0.12712(15) -0.39353(28)
O4 O 0.14616(37) 0.07520(16) -0.20279(29)
O5 O -0.10547(38) 0.10808(17) -0.17747(27)
O6 O -0.23432(31) 0.23103(16) -0.24960(27)
O7 O -0.11563(31) 0.21240(22) -0.47021(21)
O8 O -0.34018(32) 0.24583(20) -0.55322(22)
C1 C -0.18258(46) 0.32955(24) -0.42416(33)
C2 C -0.26012(43) 0.33225(29) -0.34672(39)
C3 C -0.26833(50) 0.38875(36) -0.28900(40)
H1 H -0.32239(50) 0.38913(36) -0.23679(40)
C4 C -0.19832(63) 0.44311(30) -0.30302(43)
H2 H -0.21192(63) 0.48283(30) -0.26790(43)
C5 C -0.11177(54) 0.43968(27) -0.37044(44)
H3 H -0.05785(54) 0.47656(27) -0.37702(44)
C6 C -0.10090(50) 0.38356(30) -0.42714(36)
C7 C 0.01256(50) 0.38120(21) -0.48558(36)
H4 H -0.01533(50) 0.40471(21) -0.55493(36)
H5 H 0.02871(50) 0.33703(21) -0.50091(36)
C8 C 0.19490(50) 0.37167(23) -0.31541(37)
H6 H 0.24145(50) 0.40037(23) -0.25651(37)
H7 H 0.12153(50) 0.35099(23) -0.29454(37)
C9 C 0.29078(50) 0.32075(26) -0.32917(40)
H8 H 0.34435(50) 0.30693(26) -0.25641(40)
H9 H 0.34951(50) 0.33809(26) -0.37046(40)
C10 C 0.30590(57) 0.22270(29) -0.42127(47)
H10 H 0.34511(57) 0.24294(29) -0.47468(47)
H11 H 0.37704(57) 0.20970(29) -0.35659(47)
C11 C 0.22645(57) 0.16666(30) -0.47233(45)
H12 H 0.28193(57) 0.14099(30) -0.50677(45)
H13 H 0.14698(57) 0.18090(30) -0.52870(45)
C12 C 0.29100(55) 0.09386(25) -0.31702(46)
H14 H 0.34787(55) 0.07347(25) -0.35698(46)
H15 H 0.34485(55) 0.12256(25) -0.26150(46)
C13 C 0.22769(56) 0.04395(25) -0.26321(49)
H16 H 0.29675(56) 0.01886(25) -0.21228(49)
H17 H 0.17164(56) 0.01621(25) -0.31923(49)
C14 C 0.07000(61) 0.03242(29) -0.15767(49)
H18 H 0.01107(61) 0.00759(29) -0.21682(49)
H19 H 0.13081(61) 0.00407(29) -0.10608(49)
C15 C -0.01118(59) 0.06938(28) -0.09787(45)
H20 H 0.04756(59) 0.09600(28) -0.04150(45)
H21 H -0.05981(59) 0.04018(28) -0.06288(45)
C16 C -0.19501(66) 0.13753(26) -0.13233(45)
H22 H -0.24223(66) 0.10524(26) -0.10218(45)
H23 H -0.14690(66) 0.16563(26) -0.07305(45)
C17 C -0.29900(51) 0.17638(26) -0.21821(44)
H24 H -0.37013(51) 0.19025(26) -0.18669(44)
H25 H -0.33713(51) 0.15034(26) -0.28337(44)
C18 C -0.33156(47) 0.27461(25) -0.31670(36)
H26 H -0.38224(47) 0.25325(25) -0.38403(36)
H27 H -0.39259(47) 0.28868(25) -0.27490(36)
C19 C -0.33348(78) 0.18183(34) -0.54213(39)
C20 C -0.20052(71) 0.16076(42) -0.49227(37)
C21 C -0.17099(62) 0.09813(48) -0.47078(36)
H28 H -0.07930(62) 0.08420(48) -0.43689(36)
C22 C -0.2752(10) 0.05281(32) -0.49688(48)
H29 H -0.2574(10) 0.00784(32) -0.48151(48)
C23 C -0.40600(86) 0.07252(42) -0.54738(49)
H30 H -0.47878(86) 0.04171(42) -0.56637(49)
C24 C -0.43730(61) 0.13632(44) -0.56997(37)
H31 H -0.52884(61) 0.14986(44) -0.60553(37)
F1C F 0.33496(24) 0.20861(11) -0.11202(17)
O8C O 0.15982(32) 0.25417(20) -0.05322(22)
K1C K -0.45107(10) 0.29941(4) -0.76143(7)
loop_
_geom_bond_atom_site_label_1
_geom_bond_atom_site_label_2
_geom_bond_site_symmetry_1
_geom_bond_site_symmetry_2
K1 O2 1_555 1_555
B1 F1 1_555 1_555
F1 K1C 1_555 1_555
O1 C7 1_555 1_555
O2 C9 1_555 1_555
O3 K1 1_555 1_555
O4 K1 1_555 1_555
O5 K1 1_555 1_555
O6 K1 1_555 1_555
O7 K1 1_555 1_555
O8 B1 1_555 1_555
C1 B1 1_555 1_555
C2 C1 1_555 1_555
C3 C2 1_555 1_555
H1 C3 1_555 1_555
C4 C3 1_555 1_555
H2 C4 1_555 1_555
C5 C4 1_555 1_555
H3 C5 1_555 1_555
C6 C1 1_555 1_555
C7 C6 1_555 1_555
H4 C7 1_555 1_555
H5 C7 1_555 1_555
C8 O1 1_555 1_555
H6 C8 1_555 1_555
H7 C8 1_555 1_555
C9 C8 1_555 1_555
H8 C9 1_555 1_555
H9 C9 1_555 1_555
C10 O2 1_555 1_555
H10 C10 1_555 1_555
H11 C10 1_555 1_555
C11 O3 1_555 1_555
H12 C11 1_555 1_555
H13 C11 1_555 1_555
C12 O3 1_555 1_555
H14 C12 1_555 1_555
H15 C12 1_555 1_555
C13 O4 1_555 1_555
H16 C13 1_555 1_555
H17 C13 1_555 1_555
C14 O4 1_555 1_555
H18 C14 1_555 1_555
H19 C14 1_555 1_555
C15 O5 1_555 1_555
H20 C15 1_555 1_555
H21 C15 1_555 1_555
C16 O5 1_555 1_555
H22 C16 1_555 1_555
H23 C16 1_555 1_555
C17 O6 1_555 1_555
H24 C17 1_555 1_555
H25 C17 1_555 1_555
C18 O6 1_555 1_555
H26 C18 1_555 1_555
H27 C18 1_555 1_555
C19 O8 1_555 1_555
C20 O7 1_555 1_555
C21 C20 1_555 1_555
H28 C21 1_555 1_555
C22 C21 1_555 1_555
H29 C22 1_555 1_555
C23 C22 1_555 1_555
H30 C23 1_555 1_555
C24 C19 1_555 1_555
H31 C24 1_555 1_555
F1C K1 1_555 1_555
O8C K1 1_555 1_555
K1C O8 1_555 1_555
B1 O7 1_555 1_555
C2 C18 1_555 1_555
C5 C6 1_555 1_555
C10 C11 1_555 1_555
C12 C13 1_555 1_555
C14 C15 1_555 1_555
C16 C17 1_555 1_555
C19 C20 1_555 1_555
C23 C24 1_555 1_555

#END
