
#######################################################################
#
#                 Cambridge Crystallographic Data Centre
#                                CCDC 
#
#######################################################################
#
# If this CIF has been generated from an entry in the Cambridge 
# Structural Database, then it will include bibliographic, chemical, 
# crystal, experimental, refinement or atomic coordinate data resulting 
# from the CCDC's data processing and validation procedures.
#
#######################################################################

data_VOPHUF
_symmetry_cell_setting           triclinic
_symmetry_space_group_name_H-M   'P -1'
_symmetry_Int_Tables_number      2
_space_group_name_Hall           '-P 1'
loop_
_symmetry_equiv_pos_site_id
_symmetry_equiv_pos_as_xyz
1 x,y,z
2 -x,-y,-z
_cell_length_a                   10.1112(19)
_cell_length_b                   15.943(3)
_cell_length_c                   16.764(3)
_cell_angle_alpha                111.325(3)
_cell_angle_beta                 103.680(4)
_cell_angle_gamma                102.598(3)
_cell_volume                     2303.76
loop_
_atom_site_label
_atom_site_type_symbol
_atom_site_fract_x
_atom_site_fract_y
_atom_site_fract_z
Co1 Co 0.42436(6) 0.37657(4) -0.40765(4)
N1 N 0.5104(4) 0.4356(3) -0.2598(3)
O1 O 0.7664(4) 0.7050(3) 0.0673(3)
C1 C 0.6267(5) 0.5139(3) -0.2082(3)
H1 H 0.6736 0.5435 -0.2374
Co2 Co 0.67789(6) 0.20604(4) -0.40719(4)
N2 N 0.8035(5) 0.6381(3) -0.0672(3)
H2 H 0.8635 0.6449 -0.0950
O2 O 1.2145(5) 0.9539(3) 0.1138(3)
C2 C 0.6815(6) 0.5538(4) -0.1137(4)
N3 N 1.2736(4) 0.9656(3) 0.2569(3)
H3 H 1.2437 0.9418 0.2905
O3 O 0.7880(6) 0.3922(4) 0.0817(3)
C3 C 0.6159(7) 0.5066(4) -0.0704(4)
H4 H 0.6528 0.5286 -0.0074
N4 N 1.5959(4) 1.1449(2) 0.4454(3)
O4 O 0.3656(5) 0.1921(3) 0.1136(3)
C4 C 0.4945(7) 0.4263(4) -0.1236(4)
H5 H 0.4477 0.3940 -0.0963
O5 O 0.6199(3) 0.4503(2) -0.4036(2)
N5 N 0.7620(4) 0.2808(3) -0.2588(3)
C5 C 0.4432(6) 0.3940(4) -0.2165(4)
H6 H 0.3588 0.3416 -0.2508
N6 N 0.6618(5) 0.2819(3) -0.0636(3)
H7 H 0.5855 0.2323 -0.0964
O6 O 0.7071(4) 0.3346(2) -0.4076(3)
C6 C 0.8360(6) 0.7097(4) 0.0174(4)
O7 O 1.2064(3) 0.3669(2) -0.4099(2)
N7 N 0.4619(4) 0.3120(3) 0.2580(3)
H8 H 0.5283 0.3668 0.2919
C7 C 0.9653(6) 0.7955(4) 0.0443(4)
H9 H 1.0342 0.7737 0.0180
H10 H 0.9341 0.8360 0.0181
O8 O 1.3499(3) 0.5017(2) -0.3888(2)
N8 N 0.3424(4) 0.3054(2) 0.4448(3)
C8 C 1.0406(6) 0.8545(4) 0.1458(4)
H11 H 1.0569 0.8124 0.1740
H12 H 0.9783 0.8864 0.1709
O9 O 0.4882(3) 0.1365(2) -0.4013(2)
C9 C 1.1839(6) 0.9288(4) 0.1697(4)
C10 C 1.4098(5) 1.0379(3) 0.2999(3)
O10 O 0.3918(3) 0.2442(2) -0.4136(3)
O11 O -0.1082(3) 0.2111(2) -0.4130(2)
C11 C 1.4910(6) 1.0739(4) 0.2555(4)
H13 H 1.4571 1.0510 0.1923
O12 O -0.2277(3) 0.0970(2) -0.3895(2)
C12 C 1.6242(6) 1.1451(4) 0.3091(4)
H14 H 1.6812 1.1700 0.2814
C13 C 1.6720(5) 1.1789(3) 0.4012(4)
H15 H 1.7609 1.2275 0.4352
C14 C 1.4678(5) 1.0755(3) 0.3940(3)
H16 H 1.4144 1.0510 0.4236
C15 C 0.6920(6) 0.2613(4) -0.2058(4)
H17 H 0.6017 0.2138 -0.2335
C16 C 0.7484(6) 0.3088(4) -0.1115(4)
C17 C 0.8856(6) 0.3766(4) -0.0687(4)
H18 H 0.9272 0.4082 -0.0054
C18 C 0.9586(6) 0.3955(4) -0.1242(4)
H19 H 1.0505 0.4411 -0.0982
C19 C 0.8944(6) 0.3467(4) -0.2179(4)
H20 H 0.9449 0.3601 -0.2540
C20 C 0.6829(7) 0.3235(5) 0.0263(4)
C21 C 0.5640(8) 0.2762(5) 0.0523(4)
H21 H 0.4731 0.2770 0.0174
H22 H 0.5571 0.2098 0.0339
C22 C 0.5810(6) 0.3195(4) 0.1497(4)
H23 H 0.5867 0.3857 0.1686
H24 H 0.6713 0.3187 0.1852
C23 C 0.4584(6) 0.2684(4) 0.1709(4)
C24 C 0.3712(5) 0.2792(3) 0.2997(3)
C25 C 0.2407(5) 0.2039(3) 0.2542(3)
H25 H 0.2052 0.1702 0.1909
C26 C 0.1645(5) 0.1808(3) 0.3077(4)
H26 H 0.0772 0.1305 0.2797
C27 C 0.2173(5) 0.2315(3) 0.3997(3)
H27 H 0.1647 0.2143 0.4333
C28 C 0.4168(5) 0.3280(3) 0.3941(3)
H28 H 0.5032 0.3791 0.4241
C29 C 0.8657(5) 0.4770(3) -0.3920(3)
C30 C 0.9776(4) 0.4398(3) -0.3944(3)
H29 H 0.9644 0.3784 -0.3992
C31 C 1.1098(5) 0.4947(3) -0.3896(3)
C32 C 1.1297(5) 0.5867(3) -0.3809(3)
H30 H 1.2182 0.6234 -0.3772
C33 C 1.0191(5) 0.6250(3) -0.3778(4)
H31 H 1.0333 0.6870 -0.3716
C34 C 0.8866(5) 0.5694(3) -0.3841(3)
H32 H 0.8114 0.5941 -0.3831
C35 C 1.2279(4) 0.4517(3) -0.3956(3)
C36 C 0.7201(5) 0.4160(3) -0.4014(3)
C37 C 0.2417(5) 0.0352(3) -0.3821(3)
H33 H 0.3190 0.0124 -0.3791
C38 C 0.2525(4) 0.1187(3) -0.3939(3)
C39 C 0.1376(4) 0.1527(3) -0.3969(3)
H34 H 0.1438 0.2086 -0.4039
C40 C 0.0112(5) 0.1029(3) -0.3895(3)
C41 C 0.0029(5) 0.0209(3) -0.3791(3)
H35 H -0.0809 -0.0122 -0.3747
C42 C 0.1184(5) -0.0136(3) -0.3750(4)
H36 H 0.1121 -0.0692 -0.3675
C43 C 0.3867(5) 0.1712(3) -0.4039(3)
C44 C -0.1143(5) 0.1392(3) -0.3976(3)
Co1_2 Co 0.42436(6) 0.37657(4) 0.59235(4)
Co1_3 Co 1.42436(6) 0.37657(4) -0.40765(4)
Co2_2 Co -0.32211(6) 0.20604(4) -0.40719(4)
Co2_3 Co 1.67789(6) 1.20604(4) 0.59281(4)
N4_2 N 0.5959(4) 0.1449(2) -0.5546(3)
O7_2 O 0.2064(3) 0.3669(2) -0.4099(2)
O8_2 O 0.3499(3) 0.5017(2) -0.3888(2)
N8_2 N 0.3424(4) 0.3054(2) -0.5552(3)
O11_2 O 0.8918(3) 0.2111(2) -0.4130(2)
O12_2 O 0.7723(3) 0.0970(2) -0.3895(2)
O13 O 0.3579(6) 0.1599(4) -0.1627(4)
H37 H 0.3155 0.1690 -0.2066
H38 H 0.3319 0.0968 -0.1834
O14 O 0.9884(6) 0.6741(4) -0.1643(4)
H39 H 0.9907 0.6472 -0.2192
H40 H 1.0618 0.6704 -0.1295
O15 O 1.1605(18) 0.8816(11) -0.0833(10)
H41 H 1.0958 0.8671 -0.1127
H42 H 1.1942 0.8706 -0.0385
O16 O 0.2987(19) 0.0374(7) -0.0659(10)
H43 H 0.3057 0.0773 -0.0130
H44 H 0.3709 0.0187 -0.0588
loop_
_geom_bond_atom_site_label_1
_geom_bond_atom_site_label_2
_geom_bond_site_symmetry_1
_geom_bond_site_symmetry_2
Co1 N1 1_555 1_555
N1 C1 1_555 1_555
O1 C6 1_555 1_555
C1 H1 1_555 1_555
Co2 N5 1_555 1_555
N2 H2 1_555 1_555
O2 C9 1_555 1_555
C2 C1 1_555 1_555
N3 H3 1_555 1_555
O3 C20 1_555 1_555
C3 C2 1_555 1_555
H4 C3 1_555 1_555
N4 C13 1_555 1_555
O4 C23 1_555 1_555
C4 C3 1_555 1_555
H5 C4 1_555 1_555
O5 Co1 1_555 1_555
N5 C15 1_555 1_555
C5 N1 1_555 1_555
H6 C5 1_555 1_555
N6 H7 1_555 1_555
O6 Co2 1_555 1_555
C6 N2 1_555 1_555
O7 C35 1_555 1_555
N7 H8 1_555 1_555
C7 C6 1_555 1_555
H9 C7 1_555 1_555
H10 C7 1_555 1_555
O8 C35 1_555 1_555
N8 C27 1_555 1_555
C8 C7 1_555 1_555
H11 C8 1_555 1_555
H12 C8 1_555 1_555
O9 Co2 1_555 1_555
C9 N3 1_555 1_555
C10 N3 1_555 1_555
O10 Co1 1_555 1_555
O11 C44 1_555 1_555
C11 C10 1_555 1_555
H13 C11 1_555 1_555
O12 C44 1_555 1_555
C12 C11 1_555 1_555
H14 C12 1_555 1_555
C13 C12 1_555 1_555
H15 C13 1_555 1_555
C14 N4 1_555 1_555
H16 C14 1_555 1_555
C15 H17 1_555 1_555
C16 N6 1_555 1_555
C17 C16 1_555 1_555
H18 C17 1_555 1_555
C18 C17 1_555 1_555
H19 C18 1_555 1_555
C19 N5 1_555 1_555
H20 C19 1_555 1_555
C20 N6 1_555 1_555
C21 C20 1_555 1_555
H21 C21 1_555 1_555
H22 C21 1_555 1_555
C22 C21 1_555 1_555
H23 C22 1_555 1_555
H24 C22 1_555 1_555
C23 N7 1_555 1_555
C24 N7 1_555 1_555
C25 C24 1_555 1_555
H25 C25 1_555 1_555
C26 C25 1_555 1_555
H26 C26 1_555 1_555
C27 C26 1_555 1_555
H27 C27 1_555 1_555
C28 N8 1_555 1_555
H28 C28 1_555 1_555
C29 C30 1_555 1_555
C30 H29 1_555 1_555
C31 C30 1_555 1_555
C32 C31 1_555 1_555
H30 C32 1_555 1_555
C33 C32 1_555 1_555
H31 C33 1_555 1_555
C34 C29 1_555 1_555
H32 C34 1_555 1_555
C35 C31 1_555 1_555
C36 O5 1_555 1_555
C37 H33 1_555 1_555
C38 C37 1_555 1_555
C39 C38 1_555 1_555
H34 C39 1_555 1_555
C40 C39 1_555 1_555
C41 C40 1_555 1_555
H35 C41 1_555 1_555
C42 C37 1_555 1_555
H36 C42 1_555 1_555
C43 O9 1_555 1_555
C44 C40 1_555 1_555
O13 H37 1_555 1_555
H38 O13 1_555 1_555
O14 H39 1_555 1_555
H40 O14 1_555 1_555
O15 H41 1_555 1_555
H42 O15 1_555 1_555
O16 H43 1_555 1_555
H44 O16 1_555 1_555
Co1_2 N8 1_555 1_555
Co1_3 O7 1_555 1_555
Co2_2 O11 1_555 1_555
Co2_3 N4 1_555 1_555
N4_2 Co2 1_555 1_555
O7_2 Co1 1_555 1_555
O8_2 Co1 1_555 1_555
N8_2 Co1 1_555 1_555
O11_2 Co2 1_555 1_555
O12_2 Co2 1_555 1_555
N2 C2 1_555 1_555
C4 C5 1_555 1_555
O6 C36 1_555 1_555
O8 Co1_3 1_555 1_555
C8 C9 1_555 1_555
C10 C14 1_555 1_555
O10 C43 1_555 1_555
O12 Co2_2 1_555 1_555
C15 C16 1_555 1_555
C18 C19 1_555 1_555
C22 C23 1_555 1_555
C24 C28 1_555 1_555
C29 C36 1_555 1_555
C33 C34 1_555 1_555
C38 C43 1_555 1_555
C41 C42 1_555 1_555

#END
