
#######################################################################
#
#                 Cambridge Crystallographic Data Centre
#                                CCDC 
#
#######################################################################
#
# If this CIF has been generated from an entry in the Cambridge 
# Structural Database, then it will include bibliographic, chemical, 
# crystal, experimental, refinement or atomic coordinate data resulting 
# from the CCDC's data processing and validation procedures.
#
#######################################################################

data_VOPHAL
_symmetry_cell_setting           monoclinic
_symmetry_space_group_name_H-M   'C 2/c'
_symmetry_Int_Tables_number      15
_space_group_name_Hall           '-C 2yn'
loop_
_symmetry_equiv_pos_site_id
_symmetry_equiv_pos_as_xyz
1 x,y,z
2 -x,y,1/2-z
3 1/2+x,1/2+y,z
4 1/2-x,1/2+y,1/2-z
5 -x,-y,-z
6 x,-y,1/2+z
7 1/2-x,1/2-y,-z
8 1/2+x,1/2-y,1/2+z
_cell_length_a                   10.74870(10)
_cell_length_b                   17.0727(2)
_cell_length_c                   12.5278(2)
_cell_angle_alpha                90
_cell_angle_beta                 98.63
_cell_angle_gamma                90
_cell_volume                     2272.94
loop_
_atom_site_label
_atom_site_type_symbol
_atom_site_fract_x
_atom_site_fract_y
_atom_site_fract_z
Sn1 Sn 1.0000 0.198794(8) 0.7500
Cl1 Cl 1.0000 0.05287(4) 0.7500
Cl2 Cl 1.0000 0.35004(3) 0.7500
F1 F 0.62014(12) -0.04157(7) 1.02163(11)
O1 O 0.85935(12) 0.20235(7) 0.59898(9)
N1 N 0.89760(13) 0.20450(8) 0.50196(11)
C1 C 0.83289(15) 0.21180(9) 0.82626(13)
H1 H 0.8519 0.2522 0.8830
H2 H 0.7662 0.2336 0.7712
C2 C 0.77718(14) 0.14366(9) 0.87655(13)
C3 C 0.71784(16) 0.08228(10) 0.81472(14)
H3 H 0.7145 0.0830 0.7385
C4 C 0.66384(17) 0.02031(11) 0.86279(17)
H4 H 0.6233 -0.0211 0.8204
C5 C 0.67032(17) 0.02022(10) 0.97366(17)
C6 C 0.72571(17) 0.07934(11) 1.03795(15)
H5 H 0.7276 0.0783 1.1140
C7 C 0.77902(15) 0.14096(10) 0.98808(14)
H6 H 0.8179 0.1825 1.0313
C8 C 0.93608(15) 0.27283(10) 0.46443(13)
H7 H 0.9356 0.3192 0.5064
C9 C 0.97628(15) 0.27551(9) 0.36491(13)
H8 H 1.0039 0.3237 0.3387
C10 C 0.97662(15) 0.20759(9) 0.30250(12)
C11 C 0.93175(16) 0.13859(10) 0.34351(13)
H9 H 0.9275 0.0918 0.3020
C12 C 0.89369(16) 0.13808(10) 0.44367(13)
H10 H 0.8647 0.0909 0.4716
O1A O 1.14065(12) 0.20235(7) -0.09898(9)
N1A N 1.10240(13) 0.20450(8) -0.00196(11)
C8A C 1.06392(15) 0.27283(10) 0.03557(13)
H7A H 1.0644 0.3192 -0.0064
C9A C 1.02372(15) 0.27551(9) 0.13509(13)
H8A H 0.9961 0.3237 0.1613
C10A C 1.02338(15) 0.20759(9) 0.19750(12)
C11A C 1.06825(16) 0.13859(10) 0.15649(13)
H9A H 1.0725 0.0918 0.1980
C12A C 1.10631(16) 0.13808(10) 0.05633(13)
H10A H 1.1353 0.0909 0.0284
F1A F 1.37986(12) -0.04157(7) 0.47837(11)
C1A C 1.16711(15) 0.21180(9) 0.67374(13)
H1A H 1.1481 0.2522 0.6170
H2A H 1.2338 0.2336 0.7288
C2A C 1.22282(14) 0.14366(9) 0.62345(13)
C3A C 1.28216(16) 0.08228(10) 0.68528(14)
H3A H 1.2855 0.0830 0.7615
C4A C 1.33616(17) 0.02031(11) 0.63721(17)
H4A H 1.3767 -0.0211 0.6796
C5A C 1.32968(17) 0.02022(10) 0.52634(17)
C6A C 1.27429(17) 0.07934(11) 0.46205(15)
H5A H 1.2724 0.0783 0.3860
C7A C 1.22098(15) 0.14096(10) 0.51192(14)
H6A H 1.1821 0.1825 0.4687
Sn1_2 Sn 1.0000 0.198794(8) -0.2500
O1A_2 O 1.14065(12) 0.20235(7) 0.90102(9)
loop_
_geom_bond_atom_site_label_1
_geom_bond_atom_site_label_2
_geom_bond_site_symmetry_1
_geom_bond_site_symmetry_2
Sn1 Cl1 1_555 1_555
Cl2 Sn1 1_555 1_555
F1 C5 1_555 1_555
O1 Sn1 1_555 1_555
N1 O1 1_555 1_555
C1 Sn1 1_555 1_555
H1 C1 1_555 1_555
H2 C1 1_555 1_555
C2 C1 1_555 1_555
C3 C2 1_555 1_555
H3 C3 1_555 1_555
C4 C3 1_555 1_555
H4 C4 1_555 1_555
C5 C4 1_555 1_555
C6 C5 1_555 1_555
H5 C6 1_555 1_555
C7 C2 1_555 1_555
H6 C7 1_555 1_555
C8 N1 1_555 1_555
H7 C8 1_555 1_555
C9 C8 1_555 1_555
H8 C9 1_555 1_555
C10 C9 1_555 1_555
C11 C10 1_555 1_555
H9 C11 1_555 1_555
C12 N1 1_555 1_555
H10 C12 1_555 1_555
O1A N1A 1_555 1_555
N1A C8A 1_555 1_555
C8A H7A 1_555 1_555
C9A C8A 1_555 1_555
H8A C9A 1_555 1_555
C10A C10 1_555 1_555
C11A C10A 1_555 1_555
H9A C11A 1_555 1_555
C12A N1A 1_555 1_555
H10A C12A 1_555 1_555
F1A C5A 1_555 1_555
C1A Sn1 1_555 1_555
H1A C1A 1_555 1_555
H2A C1A 1_555 1_555
C2A C1A 1_555 1_555
C3A C2A 1_555 1_555
H3A C3A 1_555 1_555
C4A C3A 1_555 1_555
H4A C4A 1_555 1_555
C5A C4A 1_555 1_555
C6A C5A 1_555 1_555
H5A C6A 1_555 1_555
C7A C2A 1_555 1_555
H6A C7A 1_555 1_555
Sn1_2 O1A 1_555 1_555
O1A_2 Sn1 1_555 1_555
C6 C7 1_555 1_555
C11 C12 1_555 1_555
C9A C10A 1_555 1_555
C11A C12A 1_555 1_555
C6A C7A 1_555 1_555

#END
