
#######################################################################
#
#                 Cambridge Crystallographic Data Centre
#                                CCDC 
#
#######################################################################
#
# If this CIF has been generated from an entry in the Cambridge 
# Structural Database, then it will include bibliographic, chemical, 
# crystal, experimental, refinement or atomic coordinate data resulting 
# from the CCDC's data processing and validation procedures.
#
#######################################################################

data_VOPSUQ
_symmetry_cell_setting           orthorhombic
_symmetry_space_group_name_H-M   'P 21 21 21'
_symmetry_Int_Tables_number      19
_space_group_name_Hall           'P 2ac 2ab'
loop_
_symmetry_equiv_pos_site_id
_symmetry_equiv_pos_as_xyz
1 x,y,z
2 1/2-x,-y,1/2+z
3 -x,1/2+y,1/2-z
4 1/2+x,1/2-y,-z
_cell_length_a                   13.068(3)
_cell_length_b                   15.168(3)
_cell_length_c                   17.457(4)
_cell_angle_alpha                90
_cell_angle_beta                 90
_cell_angle_gamma                90
_cell_volume                     3460.25
loop_
_atom_site_label
_atom_site_type_symbol
_atom_site_fract_x
_atom_site_fract_y
_atom_site_fract_z
C1 C 0.6197(3) 0.8198(2) 0.0738(2)
H1 H 0.5815 0.8236 0.0289
C2 C 0.7377(3) 0.7884(3) 0.1541(2)
H2 H 0.7978 0.7662 0.1752
C3 C 0.6659(4) 0.8340(3) 0.1922(3)
H3 H 0.6669 0.8488 0.2439
C4 C 0.4981(3) 0.9063(2) 0.1550(3)
H4 H 0.4727 0.8925 0.2058
H5 H 0.4461 0.8889 0.1184
C5 C 0.5142(3) 1.0048(2) 0.1492(2)
C6 C 0.4292(3) 1.0586(3) 0.1606(3)
H6 H 0.3661 1.0335 0.1719
C7 C 0.4386(3) 1.1500(3) 0.1550(2)
H7 H 0.3810 1.1852 0.1616
C8 C 0.5325(3) 1.1894(2) 0.1398(2)
C9 C 0.6159(3) 1.1350(3) 0.1278(3)
H8 H 0.6791 1.1598 0.1161
C10 C 0.6068(3) 1.0435(2) 0.1328(3)
H9 H 0.6641 1.0083 0.1250
C11 C 0.5427(3) 1.2873(2) 0.1344(2)
C12 C 0.4678(3) 1.3390(2) 0.1007(3)
H10 H 0.4084 1.3124 0.0825
C13 C 0.4793(3) 1.4295(3) 0.0933(3)
H11 H 0.4276 1.4625 0.0705
C14 C 0.5656(3) 1.4708(2) 0.1189(2)
C15 C 0.6421(3) 1.4217(2) 0.1545(3)
H12 H 0.7004 1.4494 0.1733
C16 C 0.6303(3) 1.3297(3) 0.1616(3)
H13 H 0.6817 1.2967 0.1847
C17 C 0.5834(3) 1.5697(3) 0.1085(3)
H14 H 0.6263 1.5910 0.1499
H15 H 0.6199 1.5794 0.0608
C18 C 0.4209(3) 1.6297(3) 0.1679(3)
H16 H 0.4258 1.6034 0.2159
C19 C 0.3467(3) 1.6846(3) 0.1431(2)
H17 H 0.2916 1.7040 0.1723
C20 C 0.4514(3) 1.6673(2) 0.0487(2)
H18 H 0.4822 1.6711 0.0008
C21 C 0.9138(3) 0.6069(3) 0.0632(3)
C22 C 0.9820(3) 0.5261(3) 0.0718(2)
C23 C 0.9471(3) 0.4433(3) 0.0533(3)
H19 H 0.8791 0.4357 0.0391
C24 C 1.0123(3) 0.3704(3) 0.0555(3)
H20 H 0.9878 0.3142 0.0447
C25 C 1.1146(3) 0.3836(3) 0.0742(3)
C26 C 1.1447(3) 0.4655(3) 0.0967(4)
C27 C 1.0801(3) 0.5367(3) 0.0953(3)
H21 H 1.1035 0.5920 0.1103
C28 C 1.1649(4) 0.2359(3) 0.0997(3)
C29 C 1.1376(4) 0.2300(3) 0.1738(3)
H22 H 1.1300 0.2810 0.2028
C30 C 1.1214(5) 0.1515(3) 0.2060(3)
H23 H 1.1039 0.1485 0.2575
C31 C 1.1304(4) 0.0737(3) 0.1635(3)
C32 C 1.1602(4) 0.0781(3) 0.0878(3)
H24 H 1.1677 0.0274 0.0584
C33 C 1.1784(4) 0.1604(3) 0.0572(3)
H25 H 1.2003 0.1651 0.0067
C34 C 1.0836(4) -0.0805(3) 0.1576(3)
H26 H 1.0369 -0.0626 0.1166
C35 C 1.1770(3) -0.1253(3) 0.1224(3)
C36 C 1.0295(7) -0.1421(5) 0.2098(6)
H27 H 1.0755 -0.1611 0.2494
H28 H 1.0062 -0.1924 0.1813
H29 H 0.9719 -0.1127 0.2325
Zn1 Zn 0.77797(3) 0.71081(2) -0.00525(2)
F1 F 1.2413(3) 0.4750(3) 0.1191(5)
N1 N 0.7082(2) 0.77975(19) 0.07941(17)
N2 N 0.5913(2) 0.85456(19) 0.14074(19)
N3 N 0.3648(2) 1.7077(2) 0.06815(17)
N4 N 0.4878(2) 1.62067(19) 0.10730(19)
O1 O 0.8290(2) 0.5956(2) 0.0317(2)
O2 O 0.9479(3) 0.6810(2) 0.0823(3)
O3 O 1.1882(3) 0.3180(2) 0.0667(3)
O4 O 1.1111(3) -0.0038(2) 0.2026(2)
O5 O 1.15714(19) -0.17206(19) 0.06313(16)
O6 O 1.2620(3) -0.1159(2) 0.1508(2)
Zn1C Zn 0.27797(3) 1.78919(2) 0.00525(2)
Zn1C_2 Zn 1.27797(3) -0.21081(2) 0.00525(2)
N3C N 0.8648(2) 0.7923(2) -0.06815(17)
O5C O 0.65714(19) 0.67206(19) -0.06313(16)
C37 C 0.871(4) 0.130(3) 0.178(3)
O7 O 0.867(3) 0.053(3) 0.124(3)
loop_
_geom_bond_atom_site_label_1
_geom_bond_atom_site_label_2
_geom_bond_site_symmetry_1
_geom_bond_site_symmetry_2
C1 H1 1_555 1_555
C2 H2 1_555 1_555
C3 C2 1_555 1_555
H3 C3 1_555 1_555
C4 H4 1_555 1_555
H5 C4 1_555 1_555
C5 C4 1_555 1_555
C6 C5 1_555 1_555
H6 C6 1_555 1_555
C7 C6 1_555 1_555
H7 C7 1_555 1_555
C8 C7 1_555 1_555
C9 C8 1_555 1_555
H8 C9 1_555 1_555
C10 C5 1_555 1_555
H9 C10 1_555 1_555
C11 C8 1_555 1_555
C12 C11 1_555 1_555
H10 C12 1_555 1_555
C13 C12 1_555 1_555
H11 C13 1_555 1_555
C14 C13 1_555 1_555
C15 C14 1_555 1_555
H12 C15 1_555 1_555
C16 C11 1_555 1_555
H13 C16 1_555 1_555
C17 C14 1_555 1_555
H14 C17 1_555 1_555
H15 C17 1_555 1_555
C18 H16 1_555 1_555
C19 C18 1_555 1_555
H17 C19 1_555 1_555
C20 H18 1_555 1_555
C21 C22 1_555 1_555
C22 C23 1_555 1_555
C23 H19 1_555 1_555
C24 C23 1_555 1_555
H20 C24 1_555 1_555
C25 C24 1_555 1_555
C26 C25 1_555 1_555
C27 C22 1_555 1_555
H21 C27 1_555 1_555
C28 C29 1_555 1_555
C29 H22 1_555 1_555
C30 C29 1_555 1_555
H23 C30 1_555 1_555
C31 C30 1_555 1_555
C32 C31 1_555 1_555
H24 C32 1_555 1_555
C33 C28 1_555 1_555
H25 C33 1_555 1_555
C34 H26 1_555 1_555
C35 C34 1_555 1_555
C36 C34 1_555 1_555
H27 C36 1_555 1_555
H28 C36 1_555 1_555
H29 C36 1_555 1_555
Zn1 N1 1_555 1_555
F1 C26 1_555 1_555
N1 C1 1_555 1_555
N2 C1 1_555 1_555
N3 C19 1_555 1_555
N4 C17 1_555 1_555
O1 C21 1_555 1_555
O2 C21 1_555 1_555
O3 C25 1_555 1_555
O4 C31 1_555 1_555
O5 C35 1_555 1_555
O6 C35 1_555 1_555
C37 O7 1_555 1_555
Zn1C N3 1_555 1_555
Zn1C_2 O5 1_555 1_555
N3C Zn1 1_555 1_555
O5C Zn1 1_555 1_555
C2 N1 1_555 1_555
C3 N2 1_555 1_555
C4 N2 1_555 1_555
C9 C10 1_555 1_555
C15 C16 1_555 1_555
C18 N4 1_555 1_555
C20 N3 1_555 1_555
C20 N4 1_555 1_555
C26 C27 1_555 1_555
C28 O3 1_555 1_555
C32 C33 1_555 1_555
C34 O4 1_555 1_555
Zn1 O1 1_555 1_555

#END
