
#######################################################################
#
#                 Cambridge Crystallographic Data Centre
#                                CCDC 
#
#######################################################################
#
# If this CIF has been generated from an entry in the Cambridge 
# Structural Database, then it will include bibliographic, chemical, 
# crystal, experimental, refinement or atomic coordinate data resulting 
# from the CCDC's data processing and validation procedures.
#
#######################################################################

data_VOPWEE
_symmetry_cell_setting           monoclinic
_symmetry_space_group_name_H-M   'C 2/c'
_symmetry_Int_Tables_number      15
_space_group_name_Hall           '-C 2yn'
loop_
_symmetry_equiv_pos_site_id
_symmetry_equiv_pos_as_xyz
1 x,y,z
2 -x,y,1/2-z
3 1/2+x,1/2+y,z
4 1/2-x,1/2+y,1/2-z
5 -x,-y,-z
6 x,-y,1/2+z
7 1/2-x,1/2-y,-z
8 1/2+x,1/2-y,1/2+z
_cell_length_a                   23.8537(17)
_cell_length_b                   10.4096(7)
_cell_length_c                   19.8203(13)
_cell_angle_alpha                90
_cell_angle_beta                 90.172(2)
_cell_angle_gamma                90
_cell_volume                     4921.51
loop_
_atom_site_label
_atom_site_type_symbol
_atom_site_fract_x
_atom_site_fract_y
_atom_site_fract_z
Co1 Co 0.948535(10) 0.10583(2) 0.071925(11)
O1 O 0.87617(7) 0.51419(13) -0.04764(8)
O2 O 0.68684(6) 1.04008(16) -0.17486(9)
O3 O 0.94664(6) 0.13582(13) -0.02822(6)
O4 O 0.96902(5) -0.04624(12) -0.08137(6)
O5 O 0.93588(6) -0.06310(12) -0.32920(6)
O6 O 0.92284(6) 0.11570(13) -0.38736(6)
N1 N 0.96646(7) 0.30201(14) 0.09102(7)
N2 N 0.91853(7) 0.62411(15) 0.03743(9)
H1 H 0.9228 0.7000 0.0538
N3 N 0.75530(7) 1.18548(16) -0.15596(8)
H2 H 0.7894 1.2047 -0.1656
N4 N 0.64281(7) 1.36168(15) -0.06696(8)
N5 N 0.85727(8) 0.42397(16) -0.19737(9)
H3 H 0.8517 0.4592 -0.1587
H4 H 0.8455 0.4610 -0.2335
C1 C 0.99917(8) 0.3344(2) 0.14291(10)
H5 H 1.0168 0.2699 0.1675
C2 C 1.00766(9) 0.4610(2) 0.16120(12)
H6 H 1.0314 0.4813 0.1970
C3 C 0.98070(8) 0.55711(19) 0.12595(11)
H7 H 0.9855 0.6427 0.1382
C4 C 0.94632(8) 0.52470(17) 0.07193(9)
C5 C 0.94095(8) 0.39491(17) 0.05556(9)
H8 H 0.9189 0.3720 0.0187
C6 C 0.88585(8) 0.61548(17) -0.01850(10)
C7 C 0.86190(10) 0.74238(19) -0.04190(11)
H9 H 0.8919 0.8053 -0.0432
H10 H 0.8346 0.7715 -0.0090
C8 C 0.83398(10) 0.7375(2) -0.11066(12)
H11 H 0.8027 0.6780 -0.1090
H12 H 0.8606 0.7053 -0.1435
C9 C 0.81292(10) 0.8682(2) -0.13335(11)
H13 H 0.8441 0.9281 -0.1329
H14 H 0.7855 0.8987 -0.1011
C10 C 0.78652(10) 0.8686(2) -0.20325(11)
H15 H 0.7515 0.8212 -0.2019
H16 H 0.8113 0.8248 -0.2344
C11 C 0.77513(9) 1.0043(2) -0.22932(10)
H17 H 0.8102 1.0511 -0.2317
H18 H 0.7597 0.9992 -0.2746
C12 C 0.73474(8) 1.07703(19) -0.18465(10)
C13 C 0.72712(8) 1.27088(18) -0.11196(9)
C14 C 0.75898(9) 1.3495(2) -0.07023(11)
H19 H 0.7979 1.3462 -0.0715
C15 C 0.73207(10) 1.4322(2) -0.02705(12)
H20 H 0.7526 1.4858 0.0013
C16 C 0.67427(9) 1.4346(2) -0.02617(11)
H21 H 0.6564 1.4893 0.0040
C17 C 0.66907(8) 1.28174(18) -0.10956(9)
H22 H 0.6476 1.2316 -0.1386
C18 C 0.92992(7) 0.12755(16) -0.14499(8)
C19 C 0.93629(7) 0.06484(17) -0.20655(8)
H23 H 0.9525 -0.0164 -0.2083
C20 C 0.91816(7) 0.12513(16) -0.26581(8)
C21 C 0.89319(7) 0.24537(17) -0.26338(8)
H24 H 0.8817 0.2849 -0.3032
C22 C 0.88513(7) 0.30797(17) -0.20141(9)
C23 C 0.90435(7) 0.24745(17) -0.14254(8)
H25 H 0.8999 0.2882 -0.1011
C24 C 0.92573(7) 0.05660(17) -0.33218(8)
C25 C 0.95069(7) 0.06671(17) -0.08011(8)
Co1D Co 1.051465(10) -0.10583(2) -0.071925(11)
Co1E Co 0.948535(10) -0.10583(2) -0.428075(11)
Co1F Co 0.551465(10) 1.39417(2) -0.071925(11)
O4D O 1.03098(5) 0.04624(12) 0.08137(6)
O5E O 0.93588(6) 0.06310(12) 0.17080(6)
N4F N 0.85719(7) 0.13832(15) 0.06696(8)
loop_
_geom_bond_atom_site_label_1
_geom_bond_atom_site_label_2
_geom_bond_site_symmetry_1
_geom_bond_site_symmetry_2
Co1 O3 1_555 1_555
O1 C6 1_555 1_555
O2 C12 1_555 1_555
O3 C25 1_555 1_555
O4 C25 1_555 1_555
O5 C24 1_555 1_555
O6 C24 1_555 1_555
N1 Co1 1_555 1_555
N2 H1 1_555 1_555
N3 H2 1_555 1_555
N4 C16 1_555 1_555
N5 H3 1_555 1_555
H4 N5 1_555 1_555
C1 N1 1_555 1_555
H5 C1 1_555 1_555
C2 C1 1_555 1_555
H6 C2 1_555 1_555
C3 C2 1_555 1_555
H7 C3 1_555 1_555
C4 N2 1_555 1_555
C5 N1 1_555 1_555
H8 C5 1_555 1_555
C6 N2 1_555 1_555
C7 C6 1_555 1_555
H9 C7 1_555 1_555
H10 C7 1_555 1_555
C8 C7 1_555 1_555
H11 C8 1_555 1_555
H12 C8 1_555 1_555
C9 C8 1_555 1_555
H13 C9 1_555 1_555
H14 C9 1_555 1_555
C10 C9 1_555 1_555
H15 C10 1_555 1_555
H16 C10 1_555 1_555
C11 C10 1_555 1_555
H17 C11 1_555 1_555
H18 C11 1_555 1_555
C12 N3 1_555 1_555
C13 N3 1_555 1_555
C14 C13 1_555 1_555
H19 C14 1_555 1_555
C15 C14 1_555 1_555
H20 C15 1_555 1_555
C16 C15 1_555 1_555
H21 C16 1_555 1_555
C17 N4 1_555 1_555
H22 C17 1_555 1_555
C18 C19 1_555 1_555
C19 H23 1_555 1_555
C20 C19 1_555 1_555
C21 C20 1_555 1_555
H24 C21 1_555 1_555
C22 N5 1_555 1_555
C23 C18 1_555 1_555
H25 C23 1_555 1_555
C24 C20 1_555 1_555
C25 C18 1_555 1_555
Co1D O4 1_555 1_555
Co1E O5 1_555 1_555
Co1F N4 1_555 1_555
O4D Co1 1_555 1_555
O5E Co1 1_555 1_555
N4F Co1 1_555 1_555
C3 C4 1_555 1_555
C4 C5 1_555 1_555
C11 C12 1_555 1_555
C13 C17 1_555 1_555
C21 C22 1_555 1_555
C22 C23 1_555 1_555

#END
