
#######################################################################
#
#                 Cambridge Crystallographic Data Centre
#                                CCDC 
#
#######################################################################
#
# If this CIF has been generated from an entry in the Cambridge 
# Structural Database, then it will include bibliographic, chemical, 
# crystal, experimental, refinement or atomic coordinate data resulting 
# from the CCDC's data processing and validation procedures.
#
#######################################################################

data_VOPWAA
_symmetry_cell_setting           triclinic
_symmetry_space_group_name_H-M   'P -1'
_symmetry_Int_Tables_number      2
_space_group_name_Hall           '-P 1'
loop_
_symmetry_equiv_pos_site_id
_symmetry_equiv_pos_as_xyz
1 x,y,z
2 -x,-y,-z
_cell_length_a                   8.5578(13)
_cell_length_b                   10.1318(15)
_cell_length_c                   11.8526(17)
_cell_angle_alpha                69.808(2)
_cell_angle_beta                 78.753(3)
_cell_angle_gamma                74.670(2)
_cell_volume                     924.076
loop_
_atom_site_label
_atom_site_type_symbol
_atom_site_fract_x
_atom_site_fract_y
_atom_site_fract_z
Co1 Co 0.20400(6) 0.36253(5) 0.36220(4)
O1 O -0.0426(3) 0.3745(3) 0.4069(2)
H1 H -0.1217 0.3695 0.3760
H2 H -0.0728 0.3632 0.4817
N1 N 0.1825(4) 0.4631(3) 0.1737(3)
O2 O -0.0813(4) 0.8690(3) 0.1418(3)
C1 C 0.2910(5) 0.4203(4) 0.0889(4)
H3 H 0.3720 0.3379 0.1127
O3 O 0.3280(3) 0.1670(3) 0.3549(2)
N2 N -0.0663(4) 0.7895(4) -0.0170(3)
H4 H -0.1032 0.8081 -0.0846
C2 C 0.2869(6) 0.4936(5) -0.0324(4)
H5 H 0.3634 0.4605 -0.0894
O4 O 0.1472(3) 0.1192(3) 0.2703(3)
N3 N 0.7826(4) -0.2769(3) 0.4357(3)
H6 H 0.8185 -0.2127 0.4493
H7 H 0.8414 -0.3624 0.4462
C3 C 0.1679(6) 0.6174(5) -0.0689(4)
H8 H 0.1628 0.6683 -0.1505
O5 O 0.4193(3) -0.5426(2) 0.3264(2)
C4 C 0.0571(5) 0.6635(4) 0.0184(4)
O6 O 0.1778(3) -0.4231(3) 0.3788(2)
C5 C 0.0679(5) 0.5820(4) 0.1385(3)
H9 H -0.0083 0.6116 0.1973
C6 C -0.1306(5) 0.8831(4) 0.0474(4)
C7 C -0.2716(5) 1.0010(5) -0.0028(4)
H10 H -0.2448 1.0438 -0.0891
H11 H -0.2915 1.0755 0.0353
C8 C -0.4248(5) 0.9419(5) 0.0194(4)
H12 H -0.4067 0.8731 -0.0244
H13 H -0.4446 0.8910 0.1050
C9 C 0.2737(4) 0.0832(4) 0.3214(3)
C10 C 0.3736(4) -0.0687(4) 0.3448(3)
C11 C 0.5299(4) -0.1032(4) 0.3788(3)
H14 H 0.5707 -0.0328 0.3902
C12 C 0.6264(4) -0.2415(4) 0.3961(3)
C13 C 0.5631(4) -0.3462(4) 0.3792(3)
H15 H 0.6282 -0.4373 0.3857
C14 C 0.4042(4) -0.3154(3) 0.3531(3)
C15 C 0.3089(4) -0.1764(4) 0.3350(3)
H16 H 0.2025 -0.1556 0.3165
C16 C 0.3313(4) -0.4331(4) 0.3508(3)
N1A N -1.1825(4) 1.5369(3) -0.1737(3)
O2A O -0.9187(4) 1.1310(3) -0.1418(3)
C1A C -1.2910(5) 1.5797(4) -0.0889(4)
H3A H -1.3720 1.6621 -0.1127
N2A N -0.9337(4) 1.2105(4) 0.0170(3)
H4A H -0.8968 1.1919 0.0846
C2A C -1.2869(6) 1.5064(5) 0.0324(4)
H5A H -1.3634 1.5395 0.0894
C3A C -1.1679(6) 1.3826(5) 0.0689(4)
H8A H -1.1628 1.3317 0.1505
C4A C -1.0571(5) 1.3365(4) -0.0184(4)
C5A C -1.0679(5) 1.4180(4) -0.1385(3)
H9A H -0.9917 1.3884 -0.1973
C6A C -0.8694(5) 1.1169(4) -0.0474(4)
C7A C -0.7284(5) 0.9990(5) 0.0028(4)
H10A H -0.7552 0.9562 0.0891
H11A H -0.7085 0.9245 -0.0353
C8A C -0.5752(5) 1.0581(5) -0.0194(4)
H12A H -0.5933 1.1269 0.0244
H13A H -0.5554 1.1090 -0.1050
Co1A Co -1.20400(6) 1.63747(5) -0.36220(4)
O1A O -0.9574(3) 1.6255(3) -0.4069(2)
H1A H -0.8783 1.6305 -0.3760
H2A H -0.9272 1.6368 -0.4817
O3A O -1.3280(3) 1.8330(3) -0.3549(2)
O4A O -1.1472(3) 1.8808(3) -0.2703(3)
N3A N -1.7826(4) 2.2769(3) -0.4357(3)
H6A H -1.8185 2.2127 -0.4493
H7A H -1.8414 2.3624 -0.4462
O5A O -1.4193(3) 2.5426(2) -0.3264(2)
O6A O -1.1778(3) 2.4231(3) -0.3788(2)
C9A C -1.2737(4) 1.9168(4) -0.3214(3)
C10A C -1.3736(4) 2.0687(4) -0.3448(3)
C11A C -1.5299(4) 2.1032(4) -0.3788(3)
H14A H -1.5707 2.0328 -0.3902
C12A C -1.6264(4) 2.2415(4) -0.3961(3)
C13A C -1.5631(4) 2.3462(4) -0.3792(3)
H15A H -1.6282 2.4373 -0.3857
C14A C -1.4042(4) 2.3154(3) -0.3531(3)
C15A C -1.3089(4) 2.1764(4) -0.3350(3)
H16A H -1.2025 2.1556 -0.3165
C16A C -1.3313(4) 2.4331(4) -0.3508(3)
Co1_2 Co -1.79600(6) 2.36253(5) -0.63780(4)
Co1_3 Co 0.20400(6) -0.63747(5) 0.36220(4)
Co1A_2 Co -1.20400(6) 2.63747(5) -0.36220(4)
Co1A_3 Co 0.79600(6) -0.36253(5) 0.63780(4)
N3_2 N -1.2174(4) 1.7231(3) -0.5643(3)
N3A_2 N 0.2174(4) 0.2769(3) 0.5643(3)
O5_2 O 0.4193(3) 0.4574(2) 0.3264(2)
O5A_2 O -1.4193(3) 1.5426(2) -0.3264(2)
O6_2 O 0.1778(3) 0.5769(3) 0.3788(2)
O6A_2 O -1.1778(3) 1.4231(3) -0.3788(2)
O7 O -0.2702(3) 0.2737(3) 0.3562(3)
H17 H -0.2709 0.1974 0.4162
H18 H -0.3669 0.3070 0.3372
O8 O -0.1282(4) 0.0112(3) 0.3128(3)
H19 H -0.0335 -0.0115 0.3355
H20 H -0.1177 0.0014 0.2435
loop_
_geom_bond_atom_site_label_1
_geom_bond_atom_site_label_2
_geom_bond_site_symmetry_1
_geom_bond_site_symmetry_2
Co1 O1 1_555 1_555
O1 H1 1_555 1_555
H2 O1 1_555 1_555
N1 Co1 1_555 1_555
O2 C6 1_555 1_555
C1 N1 1_555 1_555
H3 C1 1_555 1_555
O3 Co1 1_555 1_555
N2 H4 1_555 1_555
C2 C1 1_555 1_555
H5 C2 1_555 1_555
O4 C9 1_555 1_555
N3 H6 1_555 1_555
H7 N3 1_555 1_555
C3 C2 1_555 1_555
H8 C3 1_555 1_555
O5 C16 1_555 1_555
C4 N2 1_555 1_555
O6 C16 1_555 1_555
C5 N1 1_555 1_555
H9 C5 1_555 1_555
C6 N2 1_555 1_555
C7 C6 1_555 1_555
H10 C7 1_555 1_555
H11 C7 1_555 1_555
C8 C7 1_555 1_555
H12 C8 1_555 1_555
H13 C8 1_555 1_555
C9 O3 1_555 1_555
C10 C9 1_555 1_555
C11 C10 1_555 1_555
H14 C11 1_555 1_555
C12 N3 1_555 1_555
C13 C12 1_555 1_555
H15 C13 1_555 1_555
C14 C13 1_555 1_555
C15 C10 1_555 1_555
H16 C15 1_555 1_555
C16 C14 1_555 1_555
O7 H17 1_555 1_555
H18 O7 1_555 1_555
O8 H19 1_555 1_555
H20 O8 1_555 1_555
N1A C1A 1_555 1_555
O2A C6A 1_555 1_555
C1A H3A 1_555 1_555
N2A H4A 1_555 1_555
C2A C1A 1_555 1_555
H5A C2A 1_555 1_555
C3A C2A 1_555 1_555
H8A C3A 1_555 1_555
C4A N2A 1_555 1_555
C5A N1A 1_555 1_555
H9A C5A 1_555 1_555
C6A N2A 1_555 1_555
C7A C6A 1_555 1_555
H10A C7A 1_555 1_555
H11A C7A 1_555 1_555
C8A C8 1_555 1_555
H12A C8A 1_555 1_555
H13A C8A 1_555 1_555
Co1A N1A 1_555 1_555
O1A Co1A 1_555 1_555
H1A O1A 1_555 1_555
H2A O1A 1_555 1_555
O3A Co1A 1_555 1_555
O4A C9A 1_555 1_555
N3A H6A 1_555 1_555
H7A N3A 1_555 1_555
O5A C16A 1_555 1_555
O6A C16A 1_555 1_555
C9A O3A 1_555 1_555
C10A C9A 1_555 1_555
C11A C10A 1_555 1_555
H14A C11A 1_555 1_555
C12A N3A 1_555 1_555
C13A C12A 1_555 1_555
H15A C13A 1_555 1_555
C14A C13A 1_555 1_555
C15A C10A 1_555 1_555
H16A C15A 1_555 1_555
C16A C14A 1_555 1_555
Co1_2 N3A 1_555 1_555
Co1_3 O5 1_555 1_555
Co1A_2 O5A 1_555 1_555
Co1A_3 N3 1_555 1_555
N3_2 Co1A 1_555 1_555
N3A_2 Co1 1_555 1_555
O5_2 Co1 1_555 1_555
O5A_2 Co1A 1_555 1_555
O6_2 Co1 1_555 1_555
O6A_2 Co1A 1_555 1_555
C3 C4 1_555 1_555
C4 C5 1_555 1_555
O6 Co1_3 1_555 1_555
C11 C12 1_555 1_555
C14 C15 1_555 1_555
C3A C4A 1_555 1_555
C4A C5A 1_555 1_555
C7A C8A 1_555 1_555
O6A Co1A_2 1_555 1_555
C11A C12A 1_555 1_555
C14A C15A 1_555 1_555

#END
