
#######################################################################
#
#                 Cambridge Crystallographic Data Centre
#                                CCDC 
#
#######################################################################
#
# If this CIF has been generated from an entry in the Cambridge 
# Structural Database, then it will include bibliographic, chemical, 
# crystal, experimental, refinement or atomic coordinate data resulting 
# from the CCDC's data processing and validation procedures.
#
#######################################################################

data_VOPXUT
_symmetry_cell_setting           orthorhombic
_symmetry_space_group_name_H-M   'P 21 21 21'
_symmetry_Int_Tables_number      19
_space_group_name_Hall           'P 2ac 2ab'
loop_
_symmetry_equiv_pos_site_id
_symmetry_equiv_pos_as_xyz
1 x,y,z
2 1/2+x,1/2-y,-z
3 -x,1/2+y,1/2-z
4 1/2-x,-y,1/2+z
_cell_length_a                   11.416(2)
_cell_length_b                   21.060(2)
_cell_length_c                   6.571(2)
_cell_angle_alpha                90
_cell_angle_beta                 90
_cell_angle_gamma                90
_cell_volume                     1579.81
loop_
_atom_site_label
_atom_site_type_symbol
_atom_site_fract_x
_atom_site_fract_y
_atom_site_fract_z
Hg1 Hg 0.19118(8) -0.54439(5) -0.4356(2)
Br1 Br 0.3159(2) -0.6358(1) -0.5221(5)
Br2 Br 0.3409(2) -0.4426(1) -0.5049(5)
N1 N -0.230(2) -0.583(1) -0.451(4)
C1 C -0.310(2) -0.532(2) -0.458(4)
N2 N -0.420(2) -0.547(1) -0.467(7)
N3 N -0.276(2) -0.472(1) -0.444(4)
C2 C -0.159(2) -0.464(1) -0.453(3)
C3 C -0.074(2) -0.512(1) -0.449(7)
C4 C -0.108(2) -0.577(1) -0.449(6)
O1 O -0.043(2) -0.623(1) -0.418(4)
N4 N 0.035(1) -0.486(1) -0.442(3)
C5 C 0.020(2) -0.425(4) -0.451(5)
N5 N -0.096(1) -0.408(1) -0.452(3)
C6 C -0.147(2) -0.347(1) -0.467(2)
C7 C -0.100(3) -0.300(1) -0.327(3)
O2 O -0.142(2) -0.311(1) -0.123(3)
C8 C -0.152(2) -0.237(1) -0.405(3)
O3 O -0.272(2) -0.230(1) -0.360(4)
C9 C -0.137(2) -0.247(1) -0.639(3)
O4 O -0.125(2) -0.317(1) -0.655(3)
C10 C -0.025(2) -0.215(2) -0.707(8)
O5 O 0.002(2) -0.237(1) -0.911(3)
Br2C Br 0.1591(2) -0.5574(1) -0.0049(5)
Hg1C Hg 0.30882(8) -0.45561(5) -0.9356(2)
loop_
_geom_bond_atom_site_label_1
_geom_bond_atom_site_label_2
_geom_bond_site_symmetry_1
_geom_bond_site_symmetry_2
Hg1 Br1 1_555 1_555
Br2 Hg1 1_555 1_555
N1 C1 1_555 1_555
C1 N2 1_555 1_555
N3 C1 1_555 1_555
C2 N3 1_555 1_555
C3 C2 1_555 1_555
C4 N1 1_555 1_555
O1 C4 1_555 1_555
N4 Hg1 1_555 1_555
C5 N4 1_555 1_555
N5 C2 1_555 1_555
C6 N5 1_555 1_555
C7 C6 1_555 1_555
O2 C7 1_555 1_555
C8 C7 1_555 1_555
O3 C8 1_555 1_555
C9 C8 1_555 1_555
O4 C6 1_555 1_555
C10 C9 1_555 1_555
O5 C10 1_555 1_555
Br2C Hg1 1_555 1_555
Hg1C Br2 1_555 1_555
C3 C4 1_555 1_555
C3 N4 1_555 1_555
C5 N5 1_555 1_555
C9 O4 1_555 1_555

#END
