
#######################################################################
#
#                 Cambridge Crystallographic Data Centre
#                                CCDC 
#
#######################################################################
#
# If this CIF has been generated from an entry in the Cambridge 
# Structural Database, then it will include bibliographic, chemical, 
# crystal, experimental, refinement or atomic coordinate data resulting 
# from the CCDC's data processing and validation procedures.
#
#######################################################################

data_VOQBUZ
_symmetry_cell_setting           tetragonal
_symmetry_space_group_name_H-M   'I 41 2 2'
_symmetry_Int_Tables_number      98
_space_group_name_Hall           'I 4bw 2bw'
loop_
_symmetry_equiv_pos_site_id
_symmetry_equiv_pos_as_xyz
1 x,y,z
2 1/2-x,1/2-y,1/2+z
3 -y,1/2+x,1/4+z
4 1/2+y,-x,3/4+z
5 1/2-x,y,3/4-z
6 x,1/2-y,1/4-z
7 1/2+y,1/2+x,1/2-z
8 -y,-x,-z
9 1/2+x,1/2+y,1/2+z
10 -x,-y,z
11 1/2-y,x,3/4+z
12 y,1/2-x,1/4+z
13 -x,1/2+y,1/4-z
14 1/2+x,-y,3/4-z
15 y,x,-z
16 1/2-y,1/2-x,1/2-z
_cell_length_a                   8.2269(12)
_cell_length_b                   8.2269(12)
_cell_length_c                   18.103(4)
_cell_angle_alpha                90
_cell_angle_beta                 90
_cell_angle_gamma                90
_cell_volume                     1225.25
loop_
_atom_site_label
_atom_site_type_symbol
_atom_site_fract_x
_atom_site_fract_y
_atom_site_fract_z
Cd1 Cd 0.0000 0.5000 0.7500
O1 O 0.1521(3) 0.6479(3) 0.66505(10)
N1 N 0.1982(2) 0.3018(2) 0.7500
C1 C 0.0885(5) 0.7500 0.6250
H1 H -0.0282 0.7500 0.6250
C2 C 0.3461(3) 0.3320(3) 0.72483(18)
H2 H 0.3680 0.4350 0.7062
C3 C 0.4696(3) 0.2183(3) 0.7249(2)
H3 H 0.5731 0.2454 0.7083
C4 C 0.4359(3) 0.0641(3) 0.7500
Cd1C Cd 0.0000 1.0000 0.5000
Cd1_2 Cd 1.0000 -0.5000 0.7500
Cd1B Cd 0.5000 0.5000 1.0000
O1E O 0.1521(3) 0.8521(3) 0.58495(10)
O1F O 0.1479(3) 0.6521(3) 0.83495(10)
O1B O 0.3521(3) 0.6521(3) 0.91505(10)
O1I O -0.1521(3) 0.3521(3) 0.66505(10)
O1O O -0.1479(3) 0.3479(3) 0.83495(10)
N1F N 0.8018(2) -0.3018(2) 0.7500
N1F_2 N -0.1982(2) 0.6982(2) 0.7500
C1B C 0.2500 0.5885(5) 0.8750
H1B H 0.2500 0.4718 0.8750
C2O C 0.1680(3) 0.1539(3) 0.77517(18)
C2F C 0.8320(3) -0.1539(3) 0.77517(18)
C2I C 0.6539(3) -0.3320(3) 0.72483(18)
H2O H 0.0650 0.1320 0.7938
H2I H 0.6320 -0.4350 0.7062
H2F H 0.9350 -0.1320 0.7938
C3O C 0.2817(3) 0.0304(3) 0.7751(2)
C3F C 0.7183(3) -0.0304(3) 0.7751(2)
C3I C 0.5304(3) -0.2183(3) 0.7249(2)
H3O H 0.2546 -0.0731 0.7917
H3I H 0.4269 -0.2454 0.7083
H3F H 0.7454 0.0731 0.7917
C4F C 0.5641(3) -0.0641(3) 0.7500
loop_
_geom_bond_atom_site_label_1
_geom_bond_atom_site_label_2
_geom_bond_site_symmetry_1
_geom_bond_site_symmetry_2
Cd1 O1 1_555 1_555
O1 C1 1_555 1_555
N1 Cd1 1_555 1_555
C1 H1 1_555 1_555
C2 N1 1_555 1_555
H2 C2 1_555 1_555
C3 C2 1_555 1_555
H3 C3 1_555 1_555
C4 C3 1_555 1_555
Cd1C O1E 1_555 1_555
Cd1_2 N1F 1_555 1_555
Cd1B O1B 1_555 1_555
O1E C1 1_555 1_555
O1F Cd1 1_555 1_555
O1B C1B 1_555 1_555
O1I Cd1 1_555 1_555
O1O Cd1 1_555 1_555
N1F C2F 1_555 1_555
N1F_2 Cd1 1_555 1_555
C1B O1F 1_555 1_555
H1B C1B 1_555 1_555
C2O N1 1_555 1_555
C2F H2F 1_555 1_555
C2I N1F 1_555 1_555
H2O C2O 1_555 1_555
H2I C2I 1_555 1_555
C3O C4 1_555 1_555
C3F C2F 1_555 1_555
C3I C2I 1_555 1_555
H3O C3O 1_555 1_555
H3I C3I 1_555 1_555
H3F C3F 1_555 1_555
C4F C4 1_555 1_555
C2O C3O 1_555 1_555
C3F C4F 1_555 1_555
C3I C4F 1_555 1_555

#END
