
#######################################################################
#
#                 Cambridge Crystallographic Data Centre
#                                CCDC 
#
#######################################################################
#
# If this CIF has been generated from an entry in the Cambridge 
# Structural Database, then it will include bibliographic, chemical, 
# crystal, experimental, refinement or atomic coordinate data resulting 
# from the CCDC's data processing and validation procedures.
#
#######################################################################

data_VOQDUB
_symmetry_cell_setting           monoclinic
_symmetry_space_group_name_H-M   'C 2/c'
_symmetry_Int_Tables_number      15
_space_group_name_Hall           '-C 2yn'
loop_
_symmetry_equiv_pos_site_id
_symmetry_equiv_pos_as_xyz
1 x,y,z
2 -x,y,1/2-z
3 1/2+x,1/2+y,z
4 1/2-x,1/2+y,1/2-z
5 -x,-y,-z
6 x,-y,1/2+z
7 1/2-x,1/2-y,-z
8 1/2+x,1/2-y,1/2+z
_cell_length_a                   11.922(2)
_cell_length_b                   16.792(3)
_cell_length_c                   12.862(3)
_cell_angle_alpha                90
_cell_angle_beta                 91.06(3)
_cell_angle_gamma                90
_cell_volume                     2574.46
loop_
_atom_site_label
_atom_site_type_symbol
_atom_site_fract_x
_atom_site_fract_y
_atom_site_fract_z
Cd1 Cd 0.0000 0.295756(15) 0.2500
S1 S 0.18408(7) 0.35512(5) 0.22501(8)
N1 N -0.0143(2) 0.20104(12) 0.11914(17)
C1 C 0.0000 0.1037(2) -0.2500
H1 H 0.065(2) 0.1374(16) -0.243(2)
C2 C -0.0111(3) 0.05267(16) -0.1528(2)
H2 H -0.0799 0.0219 -0.1579
H3 H 0.0512 0.0156 -0.1485
C3 C -0.0126(3) 0.10235(14) -0.05565(19)
C4 C -0.1082(3) 0.14257(19) -0.0269(2)
H4 H -0.1741 0.1373 -0.0662
C5 C -0.1060(3) 0.19035(19) 0.0598(3)
H5 H -0.1716 0.2165 0.0779
C6 C 0.0779(3) 0.16210(17) 0.0914(2)
H6 H 0.1425 0.1682 0.1322
C7 C 0.0822(3) 0.11328(16) 0.0054(2)
H7 H 0.1488 0.0879 -0.0113
C8 C 0.1615(2) 0.45217(16) 0.2756(2)
C9 C 0.1277(3) 0.46512(18) 0.3764(2)
H8 H 0.1152 0.4218 0.4197
C10 C 0.1120(3) 0.54131(18) 0.4140(3)
H9 H 0.0898 0.5482 0.4823
C11 C 0.1812(3) 0.51806(19) 0.2143(2)
H10 H 0.2056 0.5114 0.1467
C12 C 0.1646(3) 0.59429(19) 0.2530(3)
H11 H 0.1782 0.6379 0.2105
C13 C 0.1286(3) 0.60699(18) 0.3527(3)
C14 C 0.1075(4) 0.6900(2) 0.3939(4)
H12 H 0.0836 0.6867 0.4646
H13 H 0.0502 0.7152 0.3522
H14 H 0.1754 0.7205 0.3909
Cd1_2 Cd 0.0000 0.295756(15) -0.7500
S1A S -0.18408(7) 0.35512(5) 0.27499(8)
N1A N 0.0143(2) 0.20104(12) -0.61914(17)
N1A_2 N 0.0143(2) 0.20104(12) 0.38086(17)
H1A H -0.065(2) 0.1374(16) -0.257(2)
C2A C 0.0111(3) 0.05267(16) -0.3472(2)
H2A H 0.0799 0.0219 -0.3421
H3A H -0.0512 0.0156 -0.3515
C3A C 0.0126(3) 0.10235(14) -0.44435(19)
C4A C 0.1082(3) 0.14257(19) -0.4731(2)
H4A H 0.1741 0.1373 -0.4338
C5A C 0.1060(3) 0.19035(19) -0.5598(3)
H5A H 0.1716 0.2165 -0.5779
C6A C -0.0779(3) 0.16210(17) -0.5914(2)
H6A H -0.1425 0.1682 -0.6322
C7A C -0.0822(3) 0.11328(16) -0.5054(2)
H7A H -0.1488 0.0879 -0.4887
C8A C -0.1615(2) 0.45217(16) 0.2244(2)
C9A C -0.1277(3) 0.46512(18) 0.1236(2)
H8A H -0.1152 0.4218 0.0803
C10A C -0.1120(3) 0.54131(18) 0.0860(3)
H9A H -0.0898 0.5482 0.0177
C11A C -0.1812(3) 0.51806(19) 0.2857(2)
H10A H -0.2056 0.5114 0.3533
C12A C -0.1646(3) 0.59429(19) 0.2470(3)
H11A H -0.1782 0.6379 0.2895
C13A C -0.1286(3) 0.60699(18) 0.1473(3)
C14A C -0.1075(4) 0.6900(2) 0.1061(4)
H12A H -0.0836 0.6867 0.0354
H13A H -0.0502 0.7152 0.1478
H14A H -0.1754 0.7205 0.1091
loop_
_geom_bond_atom_site_label_1
_geom_bond_atom_site_label_2
_geom_bond_site_symmetry_1
_geom_bond_site_symmetry_2
Cd1 S1 1_555 1_555
S1 C8 1_555 1_555
N1 Cd1 1_555 1_555
C1 H1 1_555 1_555
C2 C1 1_555 1_555
H2 C2 1_555 1_555
H3 C2 1_555 1_555
C3 C2 1_555 1_555
C4 C3 1_555 1_555
H4 C4 1_555 1_555
C5 N1 1_555 1_555
H5 C5 1_555 1_555
C6 N1 1_555 1_555
H6 C6 1_555 1_555
C7 C3 1_555 1_555
H7 C7 1_555 1_555
C8 C9 1_555 1_555
C9 H8 1_555 1_555
C10 C9 1_555 1_555
H9 C10 1_555 1_555
C11 C8 1_555 1_555
H10 C11 1_555 1_555
C12 C11 1_555 1_555
H11 C12 1_555 1_555
C13 C10 1_555 1_555
C14 C13 1_555 1_555
H12 C14 1_555 1_555
H13 C14 1_555 1_555
H14 C14 1_555 1_555
Cd1_2 N1A 1_555 1_555
S1A Cd1 1_555 1_555
N1A C5A 1_555 1_555
N1A_2 Cd1 1_555 1_555
H1A C1 1_555 1_555
C2A C1 1_555 1_555
H2A C2A 1_555 1_555
H3A C2A 1_555 1_555
C3A C2A 1_555 1_555
C4A C3A 1_555 1_555
H4A C4A 1_555 1_555
C5A C4A 1_555 1_555
H5A C5A 1_555 1_555
C6A N1A 1_555 1_555
H6A C6A 1_555 1_555
C7A C3A 1_555 1_555
H7A C7A 1_555 1_555
C8A S1A 1_555 1_555
C9A C8A 1_555 1_555
H8A C9A 1_555 1_555
C10A C9A 1_555 1_555
H9A C10A 1_555 1_555
C11A C8A 1_555 1_555
H10A C11A 1_555 1_555
C12A C11A 1_555 1_555
H11A C12A 1_555 1_555
C13A C10A 1_555 1_555
C14A C13A 1_555 1_555
H12A C14A 1_555 1_555
H13A C14A 1_555 1_555
H14A C14A 1_555 1_555
C4 C5 1_555 1_555
C6 C7 1_555 1_555
C12 C13 1_555 1_555
C6A C7A 1_555 1_555
C12A C13A 1_555 1_555

#END
