
#######################################################################
#
#                 Cambridge Crystallographic Data Centre
#                                CCDC 
#
#######################################################################
#
# If this CIF has been generated from an entry in the Cambridge 
# Structural Database, then it will include bibliographic, chemical, 
# crystal, experimental, refinement or atomic coordinate data resulting 
# from the CCDC's data processing and validation procedures.
#
#######################################################################

data_VOQQID
_symmetry_cell_setting           triclinic
_symmetry_space_group_name_H-M   'P -1'
_symmetry_Int_Tables_number      2
_space_group_name_Hall           '-P 1'
loop_
_symmetry_equiv_pos_site_id
_symmetry_equiv_pos_as_xyz
1 x,y,z
2 -x,-y,-z
_cell_length_a                   10.8974(14)
_cell_length_b                   11.6487(16)
_cell_length_c                   12.3756(13)
_cell_angle_alpha                101.233(3)
_cell_angle_beta                 98.2292(15)
_cell_angle_gamma                116.401(5)
_cell_volume                     1332.13
loop_
_atom_site_label
_atom_site_type_symbol
_atom_site_fract_x
_atom_site_fract_y
_atom_site_fract_z
O10 O 0.9237(7) 0.8711(7) 1.4718(6)
C23 C 0.7470(11) 0.7512(11) 1.3101(9)
C24 C 0.8963(11) 0.8569(10) 1.3751(9)
C25 C 1.0000 1.0000 1.5000
C26 C 0.9287(15) 1.0258(13) 1.4542(12)
O10A O 1.0763(7) 1.1289(7) 1.5282(6)
C23A C 1.2530(11) 1.2488(11) 1.6899(9)
C24A C 1.1037(11) 1.1431(10) 1.6249(9)
C26A C 1.0713(15) 0.9742(13) 1.5458(12)
Ni1 Ni 0.64915(2) 0.93397(2) 0.868129(19)
Ni2 Ni 0.64301(2) 1.13032(2) 1.062116(18)
O1 O 0.52304(13) 1.01479(12) 0.89762(10)
O2 O 0.75766(16) 0.82838(15) 0.83141(13)
O3 O 0.73433(13) 1.00629(13) 1.04552(11)
O4 O 0.8846(2) 1.08952(19) 1.21659(15)
O5 O 0.81475(14) 1.10971(13) 0.86733(11)
O6 O 0.80092(14) 1.25853(13) 1.00504(11)
O7 O 0.48008(13) 0.77420(12) 0.90364(10)
O8 O 0.56735(18) 0.63344(15) 0.88260(14)
O9 O 0.77450(14) 1.24029(13) 1.22668(11)
N1 N 0.58493(17) 0.87824(15) 0.68777(13)
C1 C 0.5032(2) 1.08848(18) 0.82299(15)
C2 C 0.4545(2) 1.0121(2) 0.69681(16)
C3 C 0.5630(3) 0.98294(19) 0.65034(16)
C4 C 0.7578(3) 0.7966(3) 0.71281(19)
C5 C 0.7120(3) 0.8800(2) 0.65572(18)
C6 C 0.4565(3) 0.74259(19) 0.63711(16)
C7 C 0.4046(3) 0.6950(2) 0.50777(17)
C8 C 0.4579(4) 0.6275(3) 0.4407(3)
C9 C 0.4054(5) 0.5824(3) 0.3212(3)
C10 C 0.2993(5) 0.6032(3) 0.2694(3)
C11 C 0.2451(4) 0.6686(3) 0.3350(3)
C12 C 0.2973(3) 0.7148(3) 0.45339(19)
C13 C 0.8294(2) 1.0074(2) 1.11972(18)
C14 C 0.8744(3) 0.9034(3) 1.0900(3)
C15 C 0.86003(19) 1.22499(18) 0.93387(16)
C16 C 0.9996(3) 1.3342(2) 0.9279(2)
C17 C 0.4803(2) 0.66646(18) 0.91306(16)
C18 C 0.3725(3) 0.5764(3) 0.9640(3)
C19 C 0.8760(3) 1.3798(2) 1.25503(18)
C20 C 0.9395(3) 1.4413(2) 1.38178(17)
C21 C 0.9193(3) 1.5432(3) 1.44172(19)
C22 C 1.0199(3) 1.3984(3) 1.44153(19)
H1 H 0.5939 1.1718 0.8372
H2 H 0.4322 1.1145 0.8420
H3 H 0.4293 1.0645 0.6528
H4 H 0.3673 0.9260 0.6837
H5 H 0.5321 0.9546 0.5659
H6 H 0.6550 1.0669 0.6744
H7 H 0.6918 0.7001 0.6746
H8 H 0.8542 0.8158 0.7065
H9 H 0.7907 0.9735 0.6790
H10 H 0.6898 0.8441 0.5718
H11 H 0.3782 0.7433 0.6685
H12 H 0.4779 0.6764 0.6625
H13 H 0.704(4) 0.760(3) 0.846(3)
H14 H 0.814(3) 1.193(3) 1.233(3)
H15 H 0.5302 0.6119 0.4758
H16 H 0.4431 0.5373 0.2759
H17 H 0.2639 0.5724 0.1887
H18 H 0.1717 0.6825 0.2994
H19 H 0.2593 0.7604 0.4977
H20 H 0.7936 0.8143 1.0769
H21 H 0.9514 0.9198 1.1531
H22 H 0.9077 0.9082 1.0207
H23 H 1.0263 1.3014 0.8610
H24 H 1.0733 1.3597 0.9972
H25 H 0.9897 1.4124 0.9216
H26 H 0.4208 0.5746 1.0362
H27 H 0.3196 0.4856 0.9110
H28 H 0.3067 0.6103 0.9779
H29 H 0.8290 1.4278 1.2263
H30 H 0.9526 1.3904 1.2168
H31 H 0.8633 1.5732 1.4023
H32 H 1.0337 1.3283 1.4023
O9A O 1.22550(14) 1.75971(13) 1.77332(11)
C19A C 1.1240(3) 1.6202(2) 1.74497(18)
C20A C 1.0605(3) 1.5587(2) 1.61822(17)
C21A C 1.0807(3) 1.4568(3) 1.55828(19)
C22A C 0.9801(3) 1.6016(3) 1.55847(19)
H14A H 1.186(3) 1.807(3) 1.767(3)
H29A H 1.1710 1.5722 1.7737
H30A H 1.0474 1.6096 1.7832
H31A H 1.1367 1.4268 1.5977
H32A H 0.9663 1.6717 1.5977
Ni1A Ni 0.35085(2) 1.06603(2) 1.131871(19)
Ni2A Ni 0.35699(2) 0.86968(2) 0.937884(18)
O1A O 0.47696(13) 0.98521(12) 1.10238(10)
O2A O 0.24234(16) 1.17162(15) 1.16859(13)
O3A O 0.26567(13) 0.99371(13) 0.95448(11)
O4A O 0.1154(2) 0.91048(19) 0.78341(15)
O5A O 0.18525(14) 0.89029(13) 1.13267(11)
O6A O 0.19908(14) 0.74147(13) 0.99496(11)
O7A O 0.51992(13) 1.22580(12) 1.09636(10)
O8A O 0.43265(18) 1.36656(15) 1.11740(14)
N1A N 0.41507(17) 1.12176(15) 1.31223(13)
C1A C 0.4968(2) 0.91152(18) 1.17701(15)
C2A C 0.5455(2) 0.9879(2) 1.30319(16)
C3A C 0.4370(3) 1.01706(19) 1.34966(16)
C4A C 0.2422(3) 1.2034(3) 1.28719(19)
C5A C 0.2880(3) 1.1200(2) 1.34428(18)
C6A C 0.5435(3) 1.25741(19) 1.36289(16)
C7A C 0.5954(3) 1.3050(2) 1.49223(17)
C8A C 0.5421(4) 1.3725(3) 1.5593(3)
C9A C 0.5946(5) 1.4176(3) 1.6788(3)
C10A C 0.7007(5) 1.3968(3) 1.7306(3)
C11A C 0.7549(4) 1.3314(3) 1.6650(3)
C12A C 0.7027(3) 1.2852(3) 1.54661(19)
C13A C 0.1706(2) 0.9926(2) 0.88028(18)
C14A C 0.1256(3) 1.0966(3) 0.9100(3)
C15A C 0.13997(19) 0.77501(18) 1.06613(16)
C16A C 0.0004(3) 0.6658(2) 1.0721(2)
C17A C 0.5197(2) 1.33354(18) 1.08694(16)
C18A C 0.6275(3) 1.4236(3) 1.0360(3)
H1A H 0.4061 0.8282 1.1628
H2A H 0.5678 0.8855 1.1580
H3A H 0.5707 0.9355 1.3472
H4A H 0.6327 1.0740 1.3163
H5A H 0.4679 1.0454 1.4341
H6A H 0.3450 0.9331 1.3256
H7A H 0.3082 1.2999 1.3254
H8A H 0.1458 1.1842 1.2935
H9A H 0.2093 1.0265 1.3210
H10A H 0.3102 1.1559 1.4282
H11A H 0.6218 1.2567 1.3315
H12A H 0.5221 1.3236 1.3375
H13A H 0.296(4) 1.240(3) 1.154(3)
H15A H 0.4698 1.3881 1.5242
H16A H 0.5569 1.4627 1.7241
H17A H 0.7361 1.4276 1.8113
H18A H 0.8283 1.3175 1.7006
H19A H 0.7407 1.2396 1.5023
H20A H 0.2064 1.1857 0.9231
H21A H 0.0486 1.0802 0.8469
H22A H 0.0923 1.0918 0.9793
H23A H -0.0263 0.6986 1.1390
H24A H -0.0733 0.6403 1.0028
H25A H 0.0103 0.5876 1.0784
H26A H 0.5792 1.4254 0.9638
H27A H 0.6804 1.5144 1.0890
H28A H 0.6933 1.3897 1.0221
Ni2A_2 Ni 1.35699(2) 1.86968(2) 1.937884(18)
O9A_2 O 0.22550(14) 0.75971(13) 0.77332(11)
loop_
_geom_bond_atom_site_label_1
_geom_bond_atom_site_label_2
_geom_bond_site_symmetry_1
_geom_bond_site_symmetry_2
Ni1 O1 1_555 1_555
Ni2 O1 1_555 1_555
O1 C1 1_555 1_555
O2 Ni1 1_555 1_555
O3 Ni1 1_555 1_555
O4 C13 1_555 1_555
O5 Ni1 1_555 1_555
O6 Ni2 1_555 1_555
O7 Ni1 1_555 1_555
O8 C17 1_555 1_555
O9 Ni2 1_555 1_555
N1 Ni1 1_555 1_555
C1 C2 1_555 1_555
C2 C3 1_555 1_555
C3 N1 1_555 1_555
C4 O2 1_555 1_555
C5 N1 1_555 1_555
C6 N1 1_555 1_555
C7 C6 1_555 1_555
C8 C7 1_555 1_555
C9 C8 1_555 1_555
C10 C9 1_555 1_555
C11 C10 1_555 1_555
C12 C7 1_555 1_555
C13 O3 1_555 1_555
C14 C13 1_555 1_555
C15 O5 1_555 1_555
C16 C15 1_555 1_555
C17 O7 1_555 1_555
C18 C17 1_555 1_555
C19 O9 1_555 1_555
C20 C19 1_555 1_555
C21 C20 1_555 1_555
C22 C20 1_555 1_555
H1 C1 1_555 1_555
H2 C1 1_555 1_555
H3 C2 1_555 1_555
H4 C2 1_555 1_555
H5 C3 1_555 1_555
H6 C3 1_555 1_555
H7 C4 1_555 1_555
H8 C4 1_555 1_555
H9 C5 1_555 1_555
H10 C5 1_555 1_555
H11 C6 1_555 1_555
H12 C6 1_555 1_555
H13 O2 1_555 1_555
H14 O9 1_555 1_555
H15 C8 1_555 1_555
H16 C9 1_555 1_555
H17 C10 1_555 1_555
H18 C11 1_555 1_555
H19 C12 1_555 1_555
H20 C14 1_555 1_555
H21 C14 1_555 1_555
H22 C14 1_555 1_555
H23 C16 1_555 1_555
H24 C16 1_555 1_555
H25 C16 1_555 1_555
H26 C18 1_555 1_555
H27 C18 1_555 1_555
H28 C18 1_555 1_555
H29 C19 1_555 1_555
H30 C19 1_555 1_555
H31 C21 1_555 1_555
H32 C22 1_555 1_555
O10 C24 1_555 1_555
C23 C24 1_555 1_555
C25 C26 1_555 1_555
C26 O10A 1_555 1_555
O9A C19A 1_555 1_555
C19A C20A 1_555 1_555
C20A C21A 1_555 1_555
C21A C22 1_555 1_555
C22A C21 1_555 1_555
H14A O9A 1_555 1_555
H29A C19A 1_555 1_555
H30A C19A 1_555 1_555
H31A C21A 1_555 1_555
H32A C22A 1_555 1_555
Ni1A O1A 1_555 1_555
Ni2A O1 1_555 1_555
O1A Ni2 1_555 1_555
O2A Ni1A 1_555 1_555
O3A Ni1A 1_555 1_555
O4A C13A 1_555 1_555
O5A Ni1A 1_555 1_555
O6A Ni2A 1_555 1_555
O7A Ni2 1_555 1_555
O8A C17A 1_555 1_555
N1A Ni1A 1_555 1_555
C1A O1A 1_555 1_555
C2A C1A 1_555 1_555
C3A N1A 1_555 1_555
C4A O2A 1_555 1_555
C5A N1A 1_555 1_555
C6A N1A 1_555 1_555
C7A C6A 1_555 1_555
C8A C7A 1_555 1_555
C9A C8A 1_555 1_555
C10A C9A 1_555 1_555
C11A C10A 1_555 1_555
C12A C7A 1_555 1_555
C13A O3A 1_555 1_555
C14A C13A 1_555 1_555
C15A O5A 1_555 1_555
C16A C15A 1_555 1_555
C17A O7A 1_555 1_555
C18A C17A 1_555 1_555
H1A C1A 1_555 1_555
H2A C1A 1_555 1_555
H3A C2A 1_555 1_555
H4A C2A 1_555 1_555
H5A C3A 1_555 1_555
H6A C3A 1_555 1_555
H7A C4A 1_555 1_555
H8A C4A 1_555 1_555
H9A C5A 1_555 1_555
H10A C5A 1_555 1_555
H11A C6A 1_555 1_555
H12A C6A 1_555 1_555
H13A O2A 1_555 1_555
H15A C8A 1_555 1_555
H16A C9A 1_555 1_555
H17A C10A 1_555 1_555
H18A C11A 1_555 1_555
H19A C12A 1_555 1_555
H20A C14A 1_555 1_555
H21A C14A 1_555 1_555
H22A C14A 1_555 1_555
H23A C16A 1_555 1_555
H24A C16A 1_555 1_555
H25A C16A 1_555 1_555
H26A C18A 1_555 1_555
H27A C18A 1_555 1_555
H28A C18A 1_555 1_555
Ni2A_2 O9A 1_555 1_555
O9A_2 Ni2A 1_555 1_555
O10A C24A 1_555 1_555
C23A C24A 1_555 1_555
C26A O10 1_555 1_555
Ni2 O3 1_555 1_555
O6 C15 1_555 1_555
O7 Ni2A 1_555 1_555
C4 C5 1_555 1_555
C11 C12 1_555 1_555
C25 C26A 1_555 1_555
C20A C22A 1_555 1_555
Ni1A O7A 1_555 1_555
Ni2A O1A 1_555 1_555
Ni2A O3A 1_555 1_555
O6A C15A 1_555 1_555
C2A C3A 1_555 1_555
C4A C5A 1_555 1_555
C11A C12A 1_555 1_555

#END
