
#######################################################################
#
#                 Cambridge Crystallographic Data Centre
#                                CCDC 
#
#######################################################################
#
# If this CIF has been generated from an entry in the Cambridge 
# Structural Database, then it will include bibliographic, chemical, 
# crystal, experimental, refinement or atomic coordinate data resulting 
# from the CCDC's data processing and validation procedures.
#
#######################################################################

data_VOQSAX
_symmetry_cell_setting           triclinic
_symmetry_space_group_name_H-M   'P -1'
_symmetry_Int_Tables_number      2
_space_group_name_Hall           '-P 1'
loop_
_symmetry_equiv_pos_site_id
_symmetry_equiv_pos_as_xyz
1 x,y,z
2 -x,-y,-z
_cell_length_a                   10.965(3)
_cell_length_b                   11.733(3)
_cell_length_c                   12.441(3)
_cell_angle_alpha                101.264(9)
_cell_angle_beta                 98.250(3)
_cell_angle_gamma                116.503(4)
_cell_volume                     1355.39
loop_
_atom_site_label
_atom_site_type_symbol
_atom_site_fract_x
_atom_site_fract_y
_atom_site_fract_z
O10 O -0.5761(8) 0.8733(7) 1.4698(6)
C23 C -0.5551(15) 1.0223(15) 1.4607(13)
C24 C -0.6047(12) 0.8573(12) 1.3733(10)
C25 C -0.7533(13) 0.7525(12) 1.3099(11)
O10A O -0.4239(8) 1.1267(7) 1.5302(6)
C23A C -0.4449(15) 0.9777(15) 1.5393(13)
C24A C -0.3953(12) 1.1427(12) 1.6267(10)
C25A C -0.2467(13) 1.2475(12) 1.6901(11)
Co1 Co 0.15174(3) -0.06546(3) 0.86934(2)
Co2 Co 0.14356(3) 0.13256(2) 1.06270(2)
O1 O 0.02213(14) 0.01259(13) 0.89499(11)
O2 O 0.25130(18) -0.17763(17) 0.82748(14)
O3 O 0.23826(15) 0.00739(14) 1.04850(12)
O4 O 0.3887(2) 0.0920(2) 1.21828(16)
O5 O 0.31669(15) 0.11264(14) 0.86590(12)
O6 O 0.30072(15) 0.25916(14) 1.00175(12)
O7 O -0.01819(14) -0.22826(14) 0.90635(12)
O8 O 0.0662(2) -0.36971(17) 0.88202(16)
O9 O 0.27930(15) 0.24275(15) 1.22624(12)
N1 N 0.08393(19) -0.12306(17) 0.68468(14)
C1 C 0.0020(2) 0.0858(2) 0.82064(16)
C2 C -0.0456(3) 0.0096(3) 0.69479(17)
C3 C 0.0627(3) -0.0187(2) 0.64844(17)
C4 C 0.2536(3) -0.2077(3) 0.7097(2)
C5 C 0.2101(3) -0.1226(3) 0.65338(19)
C6 C -0.0448(3) -0.2578(2) 0.63490(17)
C7 C -0.0975(3) -0.3048(3) 0.50607(19)
C8 C -0.0451(4) -0.3728(3) 0.4388(3)
C9 C -0.0979(5) -0.4170(3) 0.3197(3)
C10 C -0.2025(5) -0.3948(3) 0.2692(3)
C11 C -0.2552(4) -0.3293(3) 0.3348(3)
C12 C -0.2037(3) -0.2843(3) 0.4524(2)
C13 C 0.3335(3) 0.0094(3) 1.12178(19)
C14 C 0.3780(4) -0.0936(4) 1.0918(3)
C15 C 0.3621(2) 0.2267(2) 0.93281(17)
C16 C 0.5025(3) 0.3355(3) 0.9294(3)
C17 C -0.0191(3) -0.3362(2) 0.91374(18)
C18 C -0.1269(3) -0.4257(3) 0.9640(3)
C19 C 0.3795(3) 0.3818(3) 1.25608(19)
C20 C 0.4410(3) 0.4424(3) 1.38245(19)
C21 C 0.5211(3) 0.4002(3) 1.4417(3)
C22 C 0.5801(3) 0.4573(3) 1.5580(3)
H1 H 0.0919 0.1691 0.8352
H2 H -0.0693 0.1107 0.8391
H3 H -0.0711 0.0612 0.6508
H4 H -0.1321 -0.0763 0.6816
H5 H 0.0324 -0.0461 0.5644
H6 H 0.1544 0.0649 0.6731
H7 H 0.1875 -0.3032 0.6704
H8 H 0.3497 -0.1887 0.7045
H9 H 0.2894 -0.0300 0.6774
H10 H 0.1885 -0.1575 0.5699
H11 H -0.1220 -0.2565 0.6668
H12 H -0.0239 -0.3238 0.6597
H13 H 0.198(4) -0.245(4) 0.841(3)
H14 H 0.0261 -0.3892 0.4734
H15 H -0.0614 -0.4623 0.2741
H16 H -0.2379 -0.4249 0.1888
H17 H -0.3276 -0.3146 0.2997
H18 H -0.2412 -0.2389 0.4968
H19 H 0.321(4) 0.199(4) 1.237(3)
H20 H 0.3000 -0.1815 1.0850
H21 H 0.4600 -0.0729 1.1514
H22 H 0.4032 -0.0938 1.0193
H23 H 0.5287 0.3047 0.8619
H24 H 0.5751 0.3574 0.9978
H25 H 0.4948 0.4149 0.9262
H26 H -0.0790 -0.4293 1.0351
H27 H -0.1811 -0.5155 0.9104
H28 H -0.1910 -0.3909 0.9792
H29 H 0.3326 0.4290 1.2272
H30 H 0.4568 0.3937 1.2191
H31 H 0.5360 0.3314 1.4025
H32 H 0.6356 0.4276 1.5974
O9A O 0.72070(15) 0.75725(15) 1.77376(12)
C19A C 0.6205(3) 0.6182(3) 1.74392(19)
C20A C 0.5590(3) 0.5576(3) 1.61755(19)
C21A C 0.4789(3) 0.5998(3) 1.5583(3)
C22A C 0.4199(3) 0.5427(3) 1.4420(3)
H19A H 0.679(4) 0.801(4) 1.763(3)
H29A H 0.6674 0.5710 1.7728
H30A H 0.5432 0.6063 1.7809
H31A H 0.4640 0.6686 1.5975
H32A H 0.3644 0.5724 1.4026
Co1A Co -0.15174(3) 0.06546(3) 1.13066(2)
Co2A Co -0.14356(3) -0.13256(2) 0.93730(2)
O1A O -0.02213(14) -0.01259(13) 1.10501(11)
O2A O -0.25130(18) 0.17763(17) 1.17252(14)
O3A O -0.23826(15) -0.00739(14) 0.95150(12)
O4A O -0.3887(2) -0.0920(2) 0.78172(16)
O5A O -0.31669(15) -0.11264(14) 1.13410(12)
O6A O -0.30072(15) -0.25916(14) 0.99825(12)
O7A O 0.01819(14) 0.22826(14) 1.09365(12)
O8A O -0.0662(2) 0.36971(17) 1.11798(16)
N1A N -0.08393(19) 0.12306(17) 1.31532(14)
C1A C -0.0020(2) -0.0858(2) 1.17936(16)
C2A C 0.0456(3) -0.0096(3) 1.30521(17)
C3A C -0.0627(3) 0.0187(2) 1.35156(17)
C4A C -0.2536(3) 0.2077(3) 1.2903(2)
C5A C -0.2101(3) 0.1226(3) 1.34662(19)
C6A C 0.0448(3) 0.2578(2) 1.36510(17)
C7A C 0.0975(3) 0.3048(3) 1.49393(19)
C8A C 0.0451(4) 0.3728(3) 1.5612(3)
C9A C 0.0979(5) 0.4170(3) 1.6803(3)
C10A C 0.2025(5) 0.3948(3) 1.7308(3)
C11A C 0.2552(4) 0.3293(3) 1.6652(3)
C12A C 0.2037(3) 0.2843(3) 1.5476(2)
C13A C -0.3335(3) -0.0094(3) 0.87822(19)
C14A C -0.3780(4) 0.0936(4) 0.9082(3)
C15A C -0.3621(2) -0.2267(2) 1.06719(17)
C16A C -0.5025(3) -0.3355(3) 1.0706(3)
C17A C 0.0191(3) 0.3362(2) 1.08626(18)
C18A C 0.1269(3) 0.4257(3) 1.0360(3)
H1A H -0.0919 -0.1691 1.1648
H2A H 0.0693 -0.1107 1.1609
H3A H 0.0711 -0.0612 1.3492
H4A H 0.1321 0.0763 1.3184
H5A H -0.0324 0.0461 1.4356
H6A H -0.1544 -0.0649 1.3269
H7A H -0.1875 0.3032 1.3296
H8A H -0.3497 0.1887 1.2955
H9A H -0.2894 0.0300 1.3226
H10A H -0.1885 0.1575 1.4301
H11A H 0.1220 0.2565 1.3332
H12A H 0.0239 0.3238 1.3403
H13A H -0.198(4) 0.245(4) 1.159(3)
H14A H -0.0261 0.3892 1.5266
H15A H 0.0614 0.4623 1.7259
H16A H 0.2379 0.4249 1.8112
H17A H 0.3276 0.3146 1.7003
H18A H 0.2412 0.2389 1.5032
H20A H -0.3000 0.1815 0.9150
H21A H -0.4600 0.0729 0.8486
H22A H -0.4032 0.0938 0.9807
H23A H -0.5287 -0.3047 1.1381
H24A H -0.5751 -0.3574 1.0022
H25A H -0.4948 -0.4149 1.0738
H26A H 0.0790 0.4293 0.9649
H27A H 0.1811 0.5155 1.0896
H28A H 0.1910 0.3909 1.0208
Co2A_2 Co 0.85644(3) 0.86744(2) 1.93730(2)
O9A_2 O -0.27930(15) -0.24275(15) 0.77376(12)
loop_
_geom_bond_atom_site_label_1
_geom_bond_atom_site_label_2
_geom_bond_site_symmetry_1
_geom_bond_site_symmetry_2
Co1 O1 1_555 1_555
Co2 O1 1_555 1_555
O1 C1 1_555 1_555
O2 Co1 1_555 1_555
O3 Co1 1_555 1_555
O4 C13 1_555 1_555
O5 Co1 1_555 1_555
O6 Co2 1_555 1_555
O7 Co1 1_555 1_555
O8 C17 1_555 1_555
O9 Co2 1_555 1_555
N1 Co1 1_555 1_555
C1 C2 1_555 1_555
C2 C3 1_555 1_555
C3 N1 1_555 1_555
C4 O2 1_555 1_555
C5 N1 1_555 1_555
C6 N1 1_555 1_555
C7 C6 1_555 1_555
C8 C7 1_555 1_555
C9 C8 1_555 1_555
C10 C9 1_555 1_555
C11 C10 1_555 1_555
C12 C7 1_555 1_555
C13 O3 1_555 1_555
C14 C13 1_555 1_555
C15 O5 1_555 1_555
C16 C15 1_555 1_555
C17 O7 1_555 1_555
C18 C17 1_555 1_555
C19 O9 1_555 1_555
C20 C19 1_555 1_555
C21 C20 1_555 1_555
C22 C21 1_555 1_555
H1 C1 1_555 1_555
H2 C1 1_555 1_555
H3 C2 1_555 1_555
H4 C2 1_555 1_555
H5 C3 1_555 1_555
H6 C3 1_555 1_555
H7 C4 1_555 1_555
H8 C4 1_555 1_555
H9 C5 1_555 1_555
H10 C5 1_555 1_555
H11 C6 1_555 1_555
H12 C6 1_555 1_555
H13 O2 1_555 1_555
H14 C8 1_555 1_555
H15 C9 1_555 1_555
H16 C10 1_555 1_555
H17 C11 1_555 1_555
H18 C12 1_555 1_555
H19 O9 1_555 1_555
H20 C14 1_555 1_555
H21 C14 1_555 1_555
H22 C14 1_555 1_555
H23 C16 1_555 1_555
H24 C16 1_555 1_555
H25 C16 1_555 1_555
H26 C18 1_555 1_555
H27 C18 1_555 1_555
H28 C18 1_555 1_555
H29 C19 1_555 1_555
H30 C19 1_555 1_555
H31 C21 1_555 1_555
H32 C22 1_555 1_555
O10 C23 1_555 1_555
C23 O10A 1_555 1_555
C24 O10 1_555 1_555
C25 C24 1_555 1_555
O9A C19A 1_555 1_555
C19A C20A 1_555 1_555
C20A C22 1_555 1_555
C21A C20A 1_555 1_555
C22A C20 1_555 1_555
H19A O9A 1_555 1_555
H29A C19A 1_555 1_555
H30A C19A 1_555 1_555
H31A C21A 1_555 1_555
H32A C22A 1_555 1_555
Co1A O1A 1_555 1_555
Co2A O1 1_555 1_555
O1A Co2 1_555 1_555
O2A Co1A 1_555 1_555
O3A Co1A 1_555 1_555
O4A C13A 1_555 1_555
O5A Co1A 1_555 1_555
O6A Co2A 1_555 1_555
O7A Co2 1_555 1_555
O8A C17A 1_555 1_555
N1A Co1A 1_555 1_555
C1A O1A 1_555 1_555
C2A C1A 1_555 1_555
C3A N1A 1_555 1_555
C4A O2A 1_555 1_555
C5A N1A 1_555 1_555
C6A N1A 1_555 1_555
C7A C6A 1_555 1_555
C8A C7A 1_555 1_555
C9A C8A 1_555 1_555
C10A C9A 1_555 1_555
C11A C10A 1_555 1_555
C12A C7A 1_555 1_555
C13A O3A 1_555 1_555
C14A C13A 1_555 1_555
C15A O5A 1_555 1_555
C16A C15A 1_555 1_555
C17A O7A 1_555 1_555
C18A C17A 1_555 1_555
H1A C1A 1_555 1_555
H2A C1A 1_555 1_555
H3A C2A 1_555 1_555
H4A C2A 1_555 1_555
H5A C3A 1_555 1_555
H6A C3A 1_555 1_555
H7A C4A 1_555 1_555
H8A C4A 1_555 1_555
H9A C5A 1_555 1_555
H10A C5A 1_555 1_555
H11A C6A 1_555 1_555
H12A C6A 1_555 1_555
H13A O2A 1_555 1_555
H14A C8A 1_555 1_555
H15A C9A 1_555 1_555
H16A C10A 1_555 1_555
H17A C11A 1_555 1_555
H18A C12A 1_555 1_555
H20A C14A 1_555 1_555
H21A C14A 1_555 1_555
H22A C14A 1_555 1_555
H23A C16A 1_555 1_555
H24A C16A 1_555 1_555
H25A C16A 1_555 1_555
H26A C18A 1_555 1_555
H27A C18A 1_555 1_555
H28A C18A 1_555 1_555
Co2A_2 O9A 1_555 1_555
O9A_2 Co2A 1_555 1_555
O10A C23A 1_555 1_555
C23A O10 1_555 1_555
C24A O10A 1_555 1_555
C25A C24A 1_555 1_555
Co2 O3 1_555 1_555
O6 C15 1_555 1_555
O7 Co2A 1_555 1_555
C4 C5 1_555 1_555
C11 C12 1_555 1_555
C23 C23A 1_555 1_555
C21A C22A 1_555 1_555
Co1A O7A 1_555 1_555
Co2A O1A 1_555 1_555
Co2A O3A 1_555 1_555
O6A C15A 1_555 1_555
C2A C3A 1_555 1_555
C4A C5A 1_555 1_555
C11A C12A 1_555 1_555

#END
