
#######################################################################
#
#                 Cambridge Crystallographic Data Centre
#                                CCDC 
#
#######################################################################
#
# If this CIF has been generated from an entry in the Cambridge 
# Structural Database, then it will include bibliographic, chemical, 
# crystal, experimental, refinement or atomic coordinate data resulting 
# from the CCDC's data processing and validation procedures.
#
#######################################################################

data_VOQVOO
_symmetry_cell_setting           triclinic
_symmetry_space_group_name_H-M   'P -1'
_symmetry_Int_Tables_number      2
_space_group_name_Hall           '-P 1'
loop_
_symmetry_equiv_pos_site_id
_symmetry_equiv_pos_as_xyz
1 x,y,z
2 -x,-y,-z
_cell_length_a                   6.1411(5)
_cell_length_b                   10.9111(9)
_cell_length_c                   14.1925(12)
_cell_angle_alpha                89.1830(10)
_cell_angle_beta                 79.3030(10)
_cell_angle_gamma                84.6350(10)
_cell_volume                     930.361
loop_
_atom_site_label
_atom_site_type_symbol
_atom_site_fract_x
_atom_site_fract_y
_atom_site_fract_z
Zn1 Zn 0.33396(4) 0.16785(2) 0.477785(18)
O1 O -0.5094(3) -0.03871(14) 0.61216(11)
O2 O -0.4822(3) 0.16233(15) 0.58716(12)
O3 O 0.4665(4) 0.74550(18) -0.04076(13)
O4 O 0.0599(3) 0.12184(17) 0.56038(12)
N1 N 0.4903(3) 0.32525(17) 0.42560(13)
O5 O -0.0376(3) 0.31219(17) 0.62011(14)
N2 N 0.1588(3) 0.23206(17) 0.36114(14)
N3 N 0.5715(4) 0.62031(19) 0.17303(14)
N4 N 0.2103(4) 0.5191(2) 0.10071(15)
C1 C 0.7615(4) 0.4701(2) 0.41960(17)
H1 H 0.8759 0.4986 0.4454
C2 C 0.1777(4) 0.3744(2) 0.22890(16)
C3 C 0.2795(4) 0.4789(2) 0.17867(17)
N5 N 0.3039(4) 0.6651(2) -0.02591(16)
C4 C -0.0508(4) 0.1427(2) 0.79434(17)
H2 H 0.0686 0.1897 0.7928
C5 C -0.3347(4) 0.0703(2) 0.71700(16)
C6 C -0.1529(4) 0.1395(2) 0.71430(16)
C7 C 0.6564(4) 0.3691(2) 0.46001(17)
H3 H 0.7032 0.3308 0.5127
N6 N 0.5942(4) 0.7422(2) 0.03064(16)
C8 C 0.4599(4) 0.5328(2) 0.21606(16)
C9 C 0.5253(4) 0.4806(2) 0.30347(16)
C10 C 0.2478(4) 0.3268(2) 0.31109(16)
C11 C 0.6957(4) 0.5272(2) 0.34155(17)
H4 H 0.7628 0.5956 0.3144
C12 C 0.4255(4) 0.3803(2) 0.34816(15)
C13 C -0.1262(5) 0.0764(2) 0.87574(18)
H5 H -0.0565 0.0783 0.9285
C14 C -0.4492(4) 0.0646(2) 0.63198(16)
C15 C -0.3046(5) 0.0074(2) 0.87882(17)
H6 H -0.3546 -0.0375 0.9335
C16 C -0.4094(4) 0.0050(2) 0.80030(17)
H7 H -0.5310 -0.0407 0.8032
C17 C -0.0789(4) 0.2196(2) 0.24761(19)
H8 H -0.1905 0.1807 0.2273
C18 C 0.5049(4) 0.6587(2) 0.09077(18)
C19 C -0.0395(4) 0.1991(2) 0.62424(17)
C20 C 0.3285(5) 0.6110(2) 0.05622(18)
C21 C -0.0029(4) 0.1804(2) 0.33021(18)
H9 H -0.0670 0.1158 0.3650
C22 C 0.0110(4) 0.3161(2) 0.19602(18)
H10 H -0.0375 0.3424 0.1402
Zn1_2 Zn -0.66604(4) 0.16785(2) 0.477785(18)
Zn1A Zn -0.33396(4) -0.16785(2) 0.522215(18)
O1A O 0.5094(3) 0.03871(14) 0.38784(11)
O2_2 O 0.5178(3) 0.16233(15) 0.58716(12)
loop_
_geom_bond_atom_site_label_1
_geom_bond_atom_site_label_2
_geom_bond_site_symmetry_1
_geom_bond_site_symmetry_2
Zn1 O4 1_555 1_555
O1 C14 1_555 1_555
O2 C14 1_555 1_555
O3 N5 1_555 1_555
O4 C19 1_555 1_555
N1 Zn1 1_555 1_555
O5 C19 1_555 1_555
N2 Zn1 1_555 1_555
N3 C8 1_555 1_555
N4 C3 1_555 1_555
C1 H1 1_555 1_555
C2 C3 1_555 1_555
C3 C8 1_555 1_555
N5 C20 1_555 1_555
C4 H2 1_555 1_555
C5 C6 1_555 1_555
C6 C4 1_555 1_555
C7 N1 1_555 1_555
H3 C7 1_555 1_555
N6 O3 1_555 1_555
C8 C9 1_555 1_555
C9 C11 1_555 1_555
C10 N2 1_555 1_555
C11 C1 1_555 1_555
H4 C11 1_555 1_555
C12 N1 1_555 1_555
C13 C4 1_555 1_555
H5 C13 1_555 1_555
C14 C5 1_555 1_555
C15 C13 1_555 1_555
H6 C15 1_555 1_555
C16 C5 1_555 1_555
H7 C16 1_555 1_555
C17 H8 1_555 1_555
C18 N3 1_555 1_555
C19 C6 1_555 1_555
C20 N4 1_555 1_555
C21 N2 1_555 1_555
H9 C21 1_555 1_555
C22 C2 1_555 1_555
H10 C22 1_555 1_555
Zn1_2 O2 1_555 1_555
Zn1A O1 1_555 1_555
O1A Zn1 1_555 1_555
O2_2 Zn1 1_555 1_555
C1 C7 1_555 1_555
C2 C10 1_555 1_555
N6 C18 1_555 1_555
C9 C12 1_555 1_555
C10 C12 1_555 1_555
C15 C16 1_555 1_555
C17 C21 1_555 1_555
C17 C22 1_555 1_555
C18 C20 1_555 1_555

#END
