
#######################################################################
#
#                 Cambridge Crystallographic Data Centre
#                                CCDC 
#
#######################################################################
#
# If this CIF has been generated from an entry in the Cambridge 
# Structural Database, then it will include bibliographic, chemical, 
# crystal, experimental, refinement or atomic coordinate data resulting 
# from the CCDC's data processing and validation procedures.
#
#######################################################################

data_VOQYEF
_symmetry_cell_setting           triclinic
_symmetry_space_group_name_H-M   'P -1'
_symmetry_Int_Tables_number      2
_space_group_name_Hall           '-P 1'
loop_
_symmetry_equiv_pos_site_id
_symmetry_equiv_pos_as_xyz
1 x,y,z
2 -x,-y,-z
_cell_length_a                   9.4572(19)
_cell_length_b                   12.095(2)
_cell_length_c                   17.850(4)
_cell_angle_alpha                99.95(3)
_cell_angle_beta                 99.57(3)
_cell_angle_gamma                104.87(3)
_cell_volume                     1895.55
loop_
_atom_site_label
_atom_site_type_symbol
_atom_site_fract_x
_atom_site_fract_y
_atom_site_fract_z
Sr1 Sr 0.08286(14) 0.47840(11) 0.26773(11)
Cr1 Cr -0.2851(2) 0.76689(16) 0.39497(10)
Cr2 Cr 0.44521(19) 0.19148(16) 0.13288(10)
O1 O -0.2623(9) 0.6949(8) 0.2906(5)
O2 O 0.2671(8) 0.1674(6) 0.1786(4)
O3 O 0.5242(8) 0.7882(6) 0.3478(4)
O4 O -0.4201(9) 0.2597(7) 0.2367(5)
O5 O -0.1020(9) 0.7231(8) 0.4300(5)
O6 O -0.3657(9) 0.2387(8) 0.0975(5)
O7 O 0.1272(9) 0.2685(8) 0.2300(5)
O8 O -0.1286(9) 0.3460(8) 0.1448(6)
O9 O 0.4148(9) 0.3468(7) 0.1331(5)
C1 C 0.2161(12) 0.0210(11) -0.0007(6)
O10 O 0.2867(9) 0.6851(7) 0.2957(5)
O11 O 0.3476(11) 0.5011(8) 0.3544(6)
N1 N -0.1650(10) 0.9323(8) 0.3897(5)
N2 N -0.2996(11) 0.8423(9) 0.5039(5)
N3 N 0.3176(11) 0.1273(9) 0.0221(5)
O12 O -0.1836(9) 0.3606(8) 0.2923(5)
O13 O 0.2725(11) 0.4567(8) 0.1755(5)
C2 C 0.4123(12) 0.6964(10) 0.3313(6)
C3 C -0.0542(17) 1.1413(12) 0.3463(8)
C4 C -0.2545(14) 0.2976(10) 0.1519(8)
C5 C -0.1991(13) 1.0280(10) 0.4189(7)
O14 O 0.5841(9) 0.6131(7) 0.3983(5)
N4 N 0.2244(11) -0.0640(9) 0.0418(6)
O15 O 0.0428(10) 0.6222(9) 0.3834(7)
N5 N 0.4542(11) 0.0232(9) 0.1333(5)
O16 O -0.1308(13) 0.5892(9) 0.2379(6)
C6 C -0.3158(12) 0.9478(11) 0.5210(7)
N6 N -0.2884(11) 1.0259(9) 0.4741(6)
C7 C 0.3099(14) 0.3637(11) 0.1664(7)
C8 C 0.4480(14) 0.5937(11) 0.3631(7)
C9 C -0.0623(13) 0.6624(11) 0.3762(8)
C10 C -0.1582(14) 0.6453(11) 0.2936(7)
C11 C -0.3259(13) 0.7697(12) 0.5546(7)
C12 C 0.3110(15) 0.2044(12) -0.0251(7)
C13 C 0.5704(14) 0.0086(12) 0.1837(7)
C14 C 0.2241(12) 0.2582(10) 0.1954(6)
C15 C 0.4544(18) -0.1995(13) 0.1581(9)
C16 C 0.3421(14) -0.0721(11) 0.0943(6)
C17 C 0.3417(17) -0.1833(13) 0.1071(9)
C18 C -0.0050(15) 1.0445(12) 0.3204(7)
C19 C -0.1516(16) 1.1345(12) 0.3955(8)
C20 C -0.3593(14) 0.9895(12) 0.5910(7)
C21 C -0.3856(16) 0.9135(15) 0.6397(7)
C22 C -0.0632(13) 0.9413(12) 0.3428(8)
C23 C -0.2855(14) 0.3094(11) 0.2352(7)
C24 C -0.3686(16) 0.8038(13) 0.6221(7)
C25 C 0.5717(17) -0.0990(14) 0.1964(8)
C26 C 0.1039(16) -0.0118(13) -0.0682(8)
C27 C 0.2036(19) 0.1802(14) -0.0911(8)
C28 C 0.0954(17) 0.0698(14) -0.1123(8)
O3_2 O -0.4758(8) 0.7882(6) 0.3478(4)
O14_2 O -0.4159(9) 0.6131(7) 0.3983(5)
O4_2 O 0.5799(9) 0.2597(7) 0.2367(5)
O6_2 O 0.6343(9) 0.2387(8) 0.0975(5)
Cr1_2 Cr 0.7149(2) 0.76689(16) 0.39497(10)
Cr2_2 Cr -0.55479(19) 0.19148(16) 0.13288(10)
O17 O 0.3223(10) 0.7450(8) 0.4804(5)
O18 O 1.0032(13) 0.2766(9) 0.0270(6)
O19 O -0.2918(14) 0.4273(9) 0.4324(6)
O20 O 0.6215(15) 0.5428(11) 0.1021(7)
O21 O -0.8853(19) 0.8196(14) 0.2280(9)
O22 O 0.0897(18) 0.4116(13) 0.4195(9)
O23 O 0.215(2) 0.4911(15) 0.0093(12)
O24 O 0.061(2) 0.5730(16) 0.1252(11)
loop_
_geom_bond_atom_site_label_1
_geom_bond_atom_site_label_2
_geom_bond_site_symmetry_1
_geom_bond_site_symmetry_2
Sr1 O7 1_555 1_555
Cr1 O1 1_555 1_555
Cr2 O2 1_555 1_555
O1 C10 1_555 1_555
O2 C14 1_555 1_555
O3 C2 1_555 1_555
O4 C23 1_555 1_555
O5 Cr1 1_555 1_555
O6 C4 1_555 1_555
O7 C14 1_555 1_555
O8 Sr1 1_555 1_555
O9 Cr2 1_555 1_555
C1 N3 1_555 1_555
O10 Sr1 1_555 1_555
O11 Sr1 1_555 1_555
N1 Cr1 1_555 1_555
N2 Cr1 1_555 1_555
N3 Cr2 1_555 1_555
O12 Sr1 1_555 1_555
O13 Sr1 1_555 1_555
C2 O10 1_555 1_555
C3 C18 1_555 1_555
C4 O8 1_555 1_555
C5 N1 1_555 1_555
O14 C8 1_555 1_555
N4 C1 1_555 1_555
O15 Sr1 1_555 1_555
N5 Cr2 1_555 1_555
O16 Sr1 1_555 1_555
C6 N2 1_555 1_555
N6 C5 1_555 1_555
C7 O9 1_555 1_555
C8 O11 1_555 1_555
C9 O5 1_555 1_555
C10 O16 1_555 1_555
C11 N2 1_555 1_555
C12 N3 1_555 1_555
C13 N5 1_555 1_555
C14 C7 1_555 1_555
C15 C17 1_555 1_555
C16 N4 1_555 1_555
C17 C16 1_555 1_555
C18 C22 1_555 1_555
C19 C3 1_555 1_555
C20 C6 1_555 1_555
C21 C20 1_555 1_555
C22 N1 1_555 1_555
C23 O12 1_555 1_555
C24 C11 1_555 1_555
C25 C13 1_555 1_555
C26 C1 1_555 1_555
C27 C12 1_555 1_555
C28 C26 1_555 1_555
O3_2 Cr1 1_555 1_555
O14_2 Cr1 1_555 1_555
O4_2 Cr2 1_555 1_555
O6_2 Cr2 1_555 1_555
Cr1_2 O3 1_555 1_555
Cr2_2 O4 1_555 1_555
O6 Cr2_2 1_555 1_555
O13 C7 1_555 1_555
C2 C8 1_555 1_555
C4 C23 1_555 1_555
C5 C19 1_555 1_555
O14 Cr1_2 1_555 1_555
O15 C9 1_555 1_555
N5 C16 1_555 1_555
C6 N6 1_555 1_555
C9 C10 1_555 1_555
C15 C25 1_555 1_555
C21 C24 1_555 1_555
C27 C28 1_555 1_555

#END
