
#######################################################################
#
#                 Cambridge Crystallographic Data Centre
#                                CCDC 
#
#######################################################################
#
# If this CIF has been generated from an entry in the Cambridge 
# Structural Database, then it will include bibliographic, chemical, 
# crystal, experimental, refinement or atomic coordinate data resulting 
# from the CCDC's data processing and validation procedures.
#
#######################################################################

data_VORNAR23
_symmetry_cell_setting           monoclinic
_symmetry_space_group_name_H-M   'P 21'
_symmetry_Int_Tables_number      4
_space_group_name_Hall           'P 2yb'
loop_
_symmetry_equiv_pos_site_id
_symmetry_equiv_pos_as_xyz
1 x,y,z
2 -x,1/2+y,-z
_cell_length_a                   15.9380(18)
_cell_length_b                   8.5815(10)
_cell_length_c                   12.7618(15)
_cell_angle_alpha                90
_cell_angle_beta                 111.2430(10)
_cell_angle_gamma                90
_cell_volume                     1626.86
loop_
_atom_site_label
_atom_site_type_symbol
_atom_site_fract_x
_atom_site_fract_y
_atom_site_fract_z
Cu1 Cu 0.01018(6) -0.16076(13) 0.40772(8)
C1 C 0.0131(4) -0.3615(9) 0.4670(6)
N1 N 0.0154(4) -0.0662(8) 0.2726(5)
N2 N -0.0134(3) 0.0242(7) 0.4882(5)
C2 C 0.0127(4) 0.0190(9) 0.1988(7)
N3 N 0.0075(4) 0.1029(8) 0.1106(5)
C3 C 0.0017(5) 0.2522(10) 0.1211(7)
N4 N -0.0068(5) 0.3826(10) 0.1166(7)
C1A C -0.0131(4) 0.1385(9) 0.5330(6)
Cu1A Cu -0.01018(6) 0.33924(13) 0.59228(8)
C4 C 0.4672(4) 0.6243(9) 0.1482(5)
C5 C 0.5416(4) 0.6258(9) 0.1208(5)
C6 C 0.3456(4) 0.7032(8) 0.2273(6)
C7 C 0.3070(4) 0.5932(9) 0.1494(6)
C8 C 0.6987(4) 0.6936(8) 0.1150(6)
C9 C 0.6683(4) 0.5710(9) 0.0449(6)
C10 C 0.1942(5) 0.7057(10) 0.2805(6)
H1 H 0.2083 0.6045 0.3221
H2 H 0.1552 0.7672 0.3114
C11 C 0.1419(4) 0.6724(9) 0.1588(6)
H3 H 0.1341 0.7716 0.1151
H4 H 0.0807 0.6339 0.1508
C12 C 0.8611(4) 0.6862(9) 0.0792(6)
H5 H 0.9079 0.7562 0.0696
H6 H 0.8928 0.5963 0.1269
C13 C 0.8018(4) 0.6251(10) -0.0354(6)
H7 H 0.8412 0.5839 -0.0747
H8 H 0.7663 0.7138 -0.0810
S1 S 0.45755(11) 0.7495(2) 0.25118(15)
S2 S 0.37471(10) 0.5039(2) 0.08599(14)
S3 S 0.62634(11) 0.7626(2) 0.18003(15)
S4 S 0.55995(11) 0.5011(2) 0.02374(14)
S5 S 0.29869(12) 0.8115(2) 0.30837(16)
S6 S 0.19494(12) 0.5307(3) 0.0995(2)
S7 S 0.80026(11) 0.7932(2) 0.15279(15)
S8 S 0.72488(12) 0.4735(2) -0.03010(16)
C14 C 0.4632(4) 0.3431(10) 0.3732(5)
C15 C 0.5382(4) 0.3449(10) 0.3445(5)
C16 C 0.3448(4) 0.3903(8) 0.4622(5)
C17 C 0.3107(4) 0.2766(8) 0.3876(5)
C18 C 0.6993(4) 0.3751(8) 0.3480(5)
C19 C 0.6610(4) 0.2679(8) 0.2678(6)
C20 C 0.2065(4) 0.3454(10) 0.5393(5)
H9 H 0.2331 0.2490 0.5826
H10 H 0.1664 0.3937 0.5751
C21 C 0.1498(4) 0.2999(9) 0.4195(5)
H11 H 0.1306 0.3965 0.3731
H12 H 0.0943 0.2454 0.4194
C22 C 0.8432(4) 0.3802(8) 0.2827(5)
H13 H 0.8094 0.4472 0.2168
H14 H 0.9088 0.4019 0.3027
C23 C 0.8254(4) 0.2106(9) 0.2484(6)
H15 H 0.8545 0.1437 0.3161
H16 H 0.8545 0.1860 0.1928
S9 S 0.44975(10) 0.4655(2) 0.47497(14)
S10 S 0.37532(11) 0.2157(2) 0.30934(15)
S11 S 0.63073(10) 0.4649(2) 0.41092(14)
S12 S 0.54693(11) 0.2265(2) 0.23881(15)
S13 S 0.29660(12) 0.4802(2) 0.54998(15)
S14 S 0.20891(11) 0.1740(2) 0.35533(15)
S15 S 0.81145(10) 0.4349(2) 0.40006(15)
S16 S 0.70722(12) 0.1602(2) 0.18710(16)
loop_
_geom_bond_atom_site_label_1
_geom_bond_atom_site_label_2
_geom_bond_site_symmetry_1
_geom_bond_site_symmetry_2
Cu1 C1 1_555 1_555
N1 Cu1 1_555 1_555
N2 Cu1 1_555 1_555
C2 N1 1_555 1_555
N3 C2 1_555 1_555
C3 N3 1_555 1_555
N4 C3 1_555 1_555
C4 C5 1_555 1_555
C5 S3 1_555 1_555
C6 C7 1_555 1_555
C7 S2 1_555 1_555
C8 C9 1_555 1_555
C9 S4 1_555 1_555
C10 H1 1_555 1_555
H2 C10 1_555 1_555
C11 C10 1_555 1_555
H3 C11 1_555 1_555
H4 C11 1_555 1_555
C12 H5 1_555 1_555
H6 C12 1_555 1_555
C13 C12 1_555 1_555
H7 C13 1_555 1_555
H8 C13 1_555 1_555
S1 C4 1_555 1_555
S2 C4 1_555 1_555
S3 C8 1_555 1_555
S4 C5 1_555 1_555
S5 C6 1_555 1_555
S6 C7 1_555 1_555
S7 C8 1_555 1_555
S8 C9 1_555 1_555
C14 C15 1_555 1_555
C15 S11 1_555 1_555
C16 C17 1_555 1_555
C17 S10 1_555 1_555
C18 C19 1_555 1_555
C19 S12 1_555 1_555
C20 H9 1_555 1_555
H10 C20 1_555 1_555
C21 C20 1_555 1_555
H11 C21 1_555 1_555
H12 C21 1_555 1_555
C22 H13 1_555 1_555
H14 C22 1_555 1_555
C23 C22 1_555 1_555
H15 C23 1_555 1_555
H16 C23 1_555 1_555
S9 C14 1_555 1_555
S10 C14 1_555 1_555
S11 C18 1_555 1_555
S12 C15 1_555 1_555
S13 C16 1_555 1_555
S14 C17 1_555 1_555
S15 C18 1_555 1_555
S16 C19 1_555 1_555
C1A N2 1_555 1_555
Cu1A C1A 1_555 1_555
C6 S1 1_555 1_555
C10 S5 1_555 1_555
C11 S6 1_555 1_555
C12 S7 1_555 1_555
C13 S8 1_555 1_555
C16 S9 1_555 1_555
C20 S13 1_555 1_555
C21 S14 1_555 1_555
C22 S15 1_555 1_555
C23 S16 1_555 1_555

#END
