
#######################################################################
#
#                 Cambridge Crystallographic Data Centre
#                                CCDC 
#
#######################################################################
#
# If this CIF has been generated from an entry in the Cambridge 
# Structural Database, then it will include bibliographic, chemical, 
# crystal, experimental, refinement or atomic coordinate data resulting 
# from the CCDC's data processing and validation procedures.
#
#######################################################################

data_VORTON
_symmetry_cell_setting           monoclinic
_symmetry_space_group_name_H-M   'P 21/n'
_symmetry_Int_Tables_number      14
_space_group_name_Hall           '-P 2yn'
loop_
_symmetry_equiv_pos_site_id
_symmetry_equiv_pos_as_xyz
1 x,y,z
2 1/2-x,1/2+y,1/2-z
3 -x,-y,-z
4 1/2+x,1/2-y,1/2+z
_cell_length_a                   4.2490(8)
_cell_length_b                   15.962(3)
_cell_length_c                   15.297(3)
_cell_angle_alpha                90
_cell_angle_beta                 90.03(3)
_cell_angle_gamma                90
_cell_volume                     1037.48
loop_
_atom_site_label
_atom_site_type_symbol
_atom_site_fract_x
_atom_site_fract_y
_atom_site_fract_z
I1 I -0.8121(2) 0.92025(6) 0.08990(7)
Cu1 Cu -0.6886(5) 1.06694(12) 0.01722(14)
O1 O -1.010(4) 1.3926(8) -0.0118(10)
H1 H -1.0691 1.4388 -0.0283
O2 O -0.754(4) 1.4711(8) 0.0851(11)
N1 N -0.643(3) 1.1746(8) 0.0893(8)
C1 C -0.754(4) 1.2451(10) 0.0581(11)
H2 H -0.8817 1.2421 0.0089
C2 C -0.694(4) 1.3252(9) 0.0934(10)
C3 C -0.511(5) 1.3294(11) 0.1685(13)
H3 H -0.4736 1.3811 0.1946
C4 C -0.381(4) 1.2559(9) 0.2058(11)
C5 C -0.454(4) 1.1793(10) 0.1636(12)
C6 C -0.202(4) 1.2560(11) 0.2810(12)
H4 H -0.1618 1.3062 0.3099
C7 C -0.084(5) 1.1845(13) 0.3127(14)
H5 H 0.0469 1.1861 0.3613
C8 C -0.160(4) 1.1026(12) 0.2719(10)
H6 H -0.0930 1.0523 0.2965
C9 C -0.326(4) 1.1046(10) 0.1985(12)
H7 H -0.3610 1.0547 0.1687
C10 C -0.830(4) 1.4010(11) 0.0531(13)
I1B I -1.1879(2) 1.07975(6) -0.08990(7)
I1B_2 I -0.1879(2) 1.07975(6) -0.08990(7)
Cu1B Cu -1.3114(5) 0.93306(12) -0.01722(14)
Cu1B_2 Cu -0.3114(5) 0.93306(12) -0.01722(14)
loop_
_geom_bond_atom_site_label_1
_geom_bond_atom_site_label_2
_geom_bond_site_symmetry_1
_geom_bond_site_symmetry_2
I1 Cu1 1_555 1_555
Cu1 N1 1_555 1_555
O1 H1 1_555 1_555
O2 C10 1_555 1_555
N1 C1 1_555 1_555
C1 H2 1_555 1_555
C2 C1 1_555 1_555
C3 C2 1_555 1_555
H3 C3 1_555 1_555
C4 C3 1_555 1_555
C5 N1 1_555 1_555
C6 C4 1_555 1_555
H4 C6 1_555 1_555
C7 C6 1_555 1_555
H5 C7 1_555 1_555
C8 C7 1_555 1_555
H6 C8 1_555 1_555
C9 C5 1_555 1_555
H7 C9 1_555 1_555
C10 O1 1_555 1_555
I1B Cu1 1_555 1_555
I1B_2 Cu1 1_555 1_555
Cu1B I1 1_555 1_555
Cu1B_2 I1 1_555 1_555
C2 C10 1_555 1_555
C4 C5 1_555 1_555
C8 C9 1_555 1_555
I1B Cu1B 1_555 1_555
I1B_2 Cu1B_2 1_555 1_555

#END
