
#######################################################################
#
#                 Cambridge Crystallographic Data Centre
#                                CCDC 
#
#######################################################################
#
# If this CIF has been generated from an entry in the Cambridge 
# Structural Database, then it will include bibliographic, chemical, 
# crystal, experimental, refinement or atomic coordinate data resulting 
# from the CCDC's data processing and validation procedures.
#
#######################################################################

data_VOSSON
_symmetry_cell_setting           triclinic
_symmetry_space_group_name_H-M   'P -1'
_symmetry_Int_Tables_number      2
_space_group_name_Hall           '-P 1'
loop_
_symmetry_equiv_pos_site_id
_symmetry_equiv_pos_as_xyz
1 x,y,z
2 -x,-y,-z
_cell_length_a                   8.8490(18)
_cell_length_b                   11.000(2)
_cell_length_c                   14.160(3)
_cell_angle_alpha                108.90(3)
_cell_angle_beta                 93.51(3)
_cell_angle_gamma                92.54(3)
_cell_volume                     1298.56
loop_
_atom_site_label
_atom_site_type_symbol
_atom_site_fract_x
_atom_site_fract_y
_atom_site_fract_z
Cu1 Cu 0.77024(8) 0.65774(6) 1.01825(5)
Cu2 Cu 0.39228(7) 0.13944(6) 0.22732(5)
Cu3 Cu 0.09842(7) 0.36484(6) 0.76069(5)
O1 O 1.0009(4) 0.6211(4) 0.6153(3)
O2 O 0.9866(4) 0.6111(4) 0.7693(3)
O3 O 0.7359(4) 0.5403(3) 0.8817(2)
O4 O 0.6858(4) 0.7177(3) 0.8483(3)
O5 O 0.2838(4) 0.3821(3) 0.7008(3)
O6 O 0.4097(4) 0.5434(3) 0.8225(3)
O7 O 0.4716(4) 0.2416(3) 0.3642(3)
O8 O 0.7080(4) 0.3017(3) 0.3434(3)
O9 O -0.5088(5) -0.1149(4) 0.3775(3)
O10 O -0.4926(5) -0.1099(5) 0.2234(3)
O11 O -0.2328(4) -0.0570(3) 0.1068(3)
O12 O -0.1935(4) -0.2279(3) 0.1544(3)
O13 O 0.2061(4) 0.1194(3) 0.2876(3)
O14 O 0.0925(4) -0.0573(4) 0.1735(3)
O15 O 0.0248(4) 0.2591(3) 0.6256(3)
O16 O -0.2020(4) 0.1845(3) 0.6518(3)
O17 O 0.9921(4) 0.6847(3) 1.0032(3)
O18 O 0.5581(5) 0.6331(4) 1.0427(3)
O19 O 0.3119(4) 0.0178(3) 0.0933(3)
O20 O 0.5918(4) 0.1496(3) 0.1735(3)
O21 O 0.1733(4) 0.4910(3) 0.8952(2)
O22 O -0.0949(4) 0.3425(3) 0.8180(3)
C1 C 0.7535(6) 0.4516(5) 0.5452(4)
H1 H 0.8279 0.4543 0.5022
C2 C 0.7801(6) 0.5215(5) 0.6458(4)
C3 C 0.6657(6) 0.5215(5) 0.7115(4)
C4 C 0.5279(6) 0.4523(5) 0.6721(4)
C5 C 0.5065(6) 0.3800(5) 0.5716(4)
H2 H 0.4150 0.3319 0.5468
C6 C 0.6199(6) 0.3779(5) 0.5066(4)
C7 C 0.5985(6) 0.3017(5) 0.3972(4)
C8 C 0.9310(6) 0.5900(5) 0.6839(4)
C9 C 0.6954(6) 0.5998(5) 0.8205(4)
C10 C 0.3994(6) 0.4608(5) 0.7377(4)
C11 C -0.4368(6) -0.0877(5) 0.3085(4)
C12 C -0.2856(6) -0.0230(5) 0.3463(4)
C13 C -0.1697(6) -0.0257(5) 0.2813(4)
C14 C -0.0305(6) 0.0416(5) 0.3201(4)
C15 C 0.0995(7) 0.0324(5) 0.2548(4)
C16 C -0.0989(6) 0.1918(5) 0.5945(4)
C17 C -0.2581(6) 0.0468(5) 0.4465(4)
H3 H -0.3337 0.0466 0.4892
C18 C -0.1998(6) -0.1064(5) 0.1719(4)
C19 C -0.1237(6) 0.1167(5) 0.4855(4)
C20 C -0.0080(6) 0.1138(5) 0.4207(4)
H4 H 0.0840 0.1608 0.4458
H5 H 1.1017 0.6421 0.6423
H6 H -0.6081 -0.1358 0.3627
Cu1_2 Cu -0.22976(8) -0.34226(6) 0.01825(5)
Cu1A Cu 0.22976(8) 0.34226(6) 0.98175(5)
Cu2A Cu 0.60772(7) 0.86056(6) 0.77268(5)
Cu3A Cu -0.09842(7) -0.36484(6) 0.23931(5)
O4A O 0.3142(4) 0.2823(3) 0.1517(3)
O12_2 O 0.8065(4) 0.7721(3) 1.1544(3)
O12A O 0.1935(4) 0.2279(3) 0.8456(3)
O21A O 0.8267(4) 0.5090(3) 1.1048(2)
O23 O 0.6382(5) 0.2375(4) 1.0099(3)
O24 O -0.0219(6) 0.1389(4) 1.0826(3)
loop_
_geom_bond_atom_site_label_1
_geom_bond_atom_site_label_2
_geom_bond_site_symmetry_1
_geom_bond_site_symmetry_2
Cu1 O3 1_555 1_555
Cu2 O7 1_555 1_555
Cu3 O5 1_555 1_555
O1 C8 1_555 1_555
O2 C8 1_555 1_555
O3 C9 1_555 1_555
O4 Cu1 1_555 1_555
O5 C10 1_555 1_555
O6 C10 1_555 1_555
O7 C7 1_555 1_555
O8 C7 1_555 1_555
O9 C11 1_555 1_555
O10 C11 1_555 1_555
O11 C18 1_555 1_555
O12 C18 1_555 1_555
O13 Cu2 1_555 1_555
O14 C15 1_555 1_555
O15 Cu3 1_555 1_555
O16 C16 1_555 1_555
O17 Cu1 1_555 1_555
O18 Cu1 1_555 1_555
O19 Cu2 1_555 1_555
O20 Cu2 1_555 1_555
O21 Cu3 1_555 1_555
O22 Cu3 1_555 1_555
C1 H1 1_555 1_555
C2 C1 1_555 1_555
C3 C2 1_555 1_555
C4 C3 1_555 1_555
C5 C4 1_555 1_555
H2 C5 1_555 1_555
C6 C1 1_555 1_555
C7 C6 1_555 1_555
C8 C2 1_555 1_555
C9 O4 1_555 1_555
C10 C4 1_555 1_555
C11 C12 1_555 1_555
C12 C13 1_555 1_555
C13 C14 1_555 1_555
C14 C15 1_555 1_555
C15 O13 1_555 1_555
C16 O15 1_555 1_555
C17 C12 1_555 1_555
H3 C17 1_555 1_555
C18 C13 1_555 1_555
C19 C16 1_555 1_555
C20 C14 1_555 1_555
H4 C20 1_555 1_555
H5 O1 1_555 1_555
H6 O9 1_555 1_555
Cu1_2 O12 1_555 1_555
Cu1A O21 1_555 1_555
Cu2A O4 1_555 1_555
Cu3A O12 1_555 1_555
O4A Cu2 1_555 1_555
O12_2 Cu1 1_555 1_555
O12A Cu3 1_555 1_555
O21A Cu1 1_555 1_555
C3 C9 1_555 1_555
C5 C6 1_555 1_555
C17 C19 1_555 1_555
C19 C20 1_555 1_555
Cu1A O12A 1_555 1_555

#END
