
#######################################################################
#
#                 Cambridge Crystallographic Data Centre
#                                CCDC 
#
#######################################################################
#
# If this CIF has been generated from an entry in the Cambridge 
# Structural Database, then it will include bibliographic, chemical, 
# crystal, experimental, refinement or atomic coordinate data resulting 
# from the CCDC's data processing and validation procedures.
#
#######################################################################

data_VOSTUU
_symmetry_cell_setting           orthorhombic
_symmetry_space_group_name_H-M   'P b c m'
_symmetry_Int_Tables_number      57
_space_group_name_Hall           '-P 2c 2b'
loop_
_symmetry_equiv_pos_site_id
_symmetry_equiv_pos_as_xyz
1 x,y,z
2 -x,-y,1/2+z
3 x,1/2-y,-z
4 -x,1/2+y,1/2-z
5 -x,-y,-z
6 x,y,1/2-z
7 -x,1/2+y,z
8 x,1/2-y,1/2+z
_cell_length_a                   20.7677(15)
_cell_length_b                   11.7553(9)
_cell_length_c                   28.509(2)
_cell_angle_alpha                90
_cell_angle_beta                 90
_cell_angle_gamma                90
_cell_volume                     6959.92
loop_
_atom_site_label
_atom_site_type_symbol
_atom_site_fract_x
_atom_site_fract_y
_atom_site_fract_z
C1 C 0.73777(7) 0.67835(13) 0.82101(5)
H1 H 0.7182 0.7445 0.8102
C2 C 0.70597(7) 0.60903(13) 0.85276(5)
H2 H 0.6650 0.6283 0.8633
C3 C 0.73579(7) 0.51023(13) 0.86881(5)
C4 C 0.79719(6) 0.48154(12) 0.85312(5)
H3 H 0.8170 0.4157 0.8640
C5 C 0.82863(8) 0.55058(13) 0.82142(5)
H4 H 0.8696 0.5313 0.8109
C6 C 0.69676(7) 0.44175(13) 0.90351(5)
C7 C 0.72211(7) 0.41671(13) 0.94750(5)
H5 H 0.7629 0.4425 0.9557
C8 C 0.68652(7) 0.35341(13) 0.97903(5)
H6 H 0.7033 0.3365 1.0085
C9 C 0.62522(8) 0.31479(14) 0.96659(6)
C10 C 0.59991(7) 0.34013(12) 0.92255(5)
H7 H 0.5589 0.3150 0.9144
C11 C 0.63577(7) 0.40261(13) 0.89104(5)
H8 H 0.6193 0.4186 0.8614
C12 C 0.51745(11) 0.2500 1.0000
C13 C 0.48408(7) 0.15674(12) 0.98213(5)
H9 H 0.5064 0.0955 0.9694
C14 C 0.41704(7) 0.15589(13) 0.98347(5)
H10 H 0.3946 0.0920 0.9733
C15 C 0.38345(11) 0.2500 1.0000
C16 C 0.31170(11) 0.2500 1.0000
C17 C 0.27817(7) 0.27053(13) 1.04129(5)
H11 H 0.3006 0.2839 1.0690
H12 H 0.1888 0.2857 1.0688
C18 C 0.21127(7) 0.27110(13) 1.04137(5)
C19 C 0.17756(12) 0.2500 1.0000
C20 C 0.07328(8) 0.17748(14) 0.96536(5)
C21 C 0.01847(7) 0.21945(14) 0.94280(5)
H13 H 0.0042 0.2931 0.9486
C22 C -0.01382(8) 0.15063(13) 0.91206(5)
H14 H -0.0499 0.1788 0.8967
C23 C 0.00584(7) 0.04007(13) 0.90327(5)
C24 C 0.06024(7) -0.00143(14) 0.92563(5)
H15 H 0.0742 -0.0753 0.9198
C25 C 0.09398(8) 0.06745(12) 0.95682(6)
H16 H 0.1304 0.0396 0.9719
C26 C -0.12044(8) -0.06495(12) 0.81830(5)
H17 H -0.1598 -0.0393 0.8068
C27 C -0.08666(7) -0.00352(13) 0.85246(5)
H18 H -0.1049 0.0631 0.8640
C28 C -0.02828(7) -0.03665(14) 0.86965(5)
C29 C -0.00261(8) -0.13504(12) 0.85272(5)
H19 H 0.0374 -0.1585 0.8638
C30 C -0.03401(7) -0.20194(14) 0.81950(5)
H20 H -0.0158 -0.2697 0.8091
Co1 Co 0.848071(14) 0.74539(2) 0.7500
N1 N 0.79894(6) 0.64903(12) 0.80530(5)
N2 N 0.58873(9) 0.2500 1.0000
N3 N 0.10831(9) 0.2500 1.0000
N4 N -0.09313(6) -0.16564(11) 0.80210(4)
N5 N 0.73157(9) 0.93298(15) 0.7500
N6 N 0.96078(10) 0.54962(17) 0.7500
O1 O 0.77609(7) 0.86111(13) 0.7500
O2 O 0.67449(7) 0.90229(13) 0.7500
O3 O 0.74358(7) 1.03489(12) 0.7500
O4 O 0.91762(8) 0.62461(13) 0.7500
O5 O 0.94867(7) 0.44579(14) 0.7500
O6 O 1.01830(8) 0.57589(13) 0.7500
C1B C 0.73777(7) -0.17835(13) 1.17899(5)
H1B H 0.7182 -0.2445 1.1898
C2B C 0.70597(7) -0.10903(13) 1.14724(5)
H2B H 0.6650 -0.1283 1.1367
C3B C 0.73579(7) -0.01023(13) 1.13119(5)
C4B C 0.79719(6) 0.01846(12) 1.14688(5)
H3B H 0.8170 0.0843 1.1360
C5B C 0.82863(8) -0.05058(13) 1.17858(5)
H4B H 0.8696 -0.0313 1.1891
C6B C 0.69676(7) 0.05825(13) 1.09649(5)
C7B C 0.72211(7) 0.08329(13) 1.05250(5)
H5B H 0.7629 0.0575 1.0443
C8B C 0.68652(7) 0.14659(13) 1.02097(5)
H6B H 0.7033 0.1635 0.9915
C9B C 0.62522(8) 0.18521(14) 1.03341(6)
C10B C 0.59991(7) 0.15987(12) 1.07745(5)
H7B H 0.5589 0.1850 1.0856
C11B C 0.63577(7) 0.09739(13) 1.10896(5)
H8B H 0.6193 0.0814 1.1386
C13B C 0.48408(7) 0.34326(12) 1.01787(5)
H9B H 0.5064 0.4045 1.0306
C14B C 0.41704(7) 0.34411(13) 1.01653(5)
H10B H 0.3946 0.4080 1.0267
C17B C 0.27817(7) 0.22947(13) 0.95871(5)
H11B H 0.3006 0.2161 0.9310
H12B H 0.1888 0.2143 0.9312
C18B C 0.21127(7) 0.22890(13) 0.95863(5)
C20B C 0.07328(8) 0.32252(14) 1.03464(5)
C21B C 0.01847(7) 0.28055(14) 1.05720(5)
H13B H 0.0042 0.2069 1.0514
C22B C -0.01382(8) 0.34937(13) 1.08794(5)
H14B H -0.0499 0.3212 1.1033
C23B C 0.00584(7) 0.45993(13) 1.09673(5)
C24B C 0.06024(7) 0.50143(14) 1.07437(5)
H15B H 0.0742 0.5753 1.0802
C25B C 0.09398(8) 0.43255(12) 1.04318(6)
H16B H 0.1304 0.4604 1.0281
C26B C -0.12044(8) 0.56495(12) 1.18170(5)
H17B H -0.1598 0.5393 1.1932
C27B C -0.08666(7) 0.50352(13) 1.14754(5)
H18B H -0.1049 0.4369 1.1360
C28B C -0.02828(7) 0.53665(14) 1.13035(5)
C29B C -0.00261(8) 0.63504(12) 1.14728(5)
H19B H 0.0374 0.6585 1.1362
C30B C -0.03401(7) 0.70194(14) 1.18050(5)
H20B H -0.0158 0.7697 1.1909
N1B N 0.79894(6) -0.14903(12) 1.19470(5)
N4B N -0.09313(6) 0.66564(11) 1.19790(4)
Co1_2 Co -0.151929(14) -0.25461(2) 0.7500
Co1B Co -0.151929(14) 0.75461(2) 1.2500
Co1B_2 Co 0.848071(14) -0.24539(2) 1.2500
N1E N 0.79894(6) 0.64903(12) 0.69470(5)
N4_2 N 0.90687(6) 0.83436(11) 0.80210(4)
N4E N 0.90687(6) 0.83436(11) 0.69790(4)
loop_
_geom_bond_atom_site_label_1
_geom_bond_atom_site_label_2
_geom_bond_site_symmetry_1
_geom_bond_site_symmetry_2
C1 H1 1_555 1_555
C2 C1 1_555 1_555
H2 C2 1_555 1_555
C3 C2 1_555 1_555
C4 C3 1_555 1_555
H3 C4 1_555 1_555
C5 C4 1_555 1_555
H4 C5 1_555 1_555
C6 C3 1_555 1_555
C7 C6 1_555 1_555
H5 C7 1_555 1_555
C8 C7 1_555 1_555
H6 C8 1_555 1_555
C9 C8 1_555 1_555
C10 C9 1_555 1_555
H7 C10 1_555 1_555
C11 C6 1_555 1_555
H8 C11 1_555 1_555
C12 C13 1_555 1_555
C13 H9 1_555 1_555
C14 C13 1_555 1_555
H10 C14 1_555 1_555
C15 C14 1_555 1_555
C16 C15 1_555 1_555
C17 C16 1_555 1_555
H11 C17 1_555 1_555
H12 C18 1_555 1_555
C18 C17 1_555 1_555
C19 C18 1_555 1_555
C20 C21 1_555 1_555
C21 H13 1_555 1_555
C22 C21 1_555 1_555
H14 C22 1_555 1_555
C23 C22 1_555 1_555
C24 C23 1_555 1_555
H15 C24 1_555 1_555
C25 C20 1_555 1_555
H16 C25 1_555 1_555
C26 H17 1_555 1_555
C27 C26 1_555 1_555
H18 C27 1_555 1_555
C28 C23 1_555 1_555
C29 C28 1_555 1_555
H19 C29 1_555 1_555
C30 C29 1_555 1_555
H20 C30 1_555 1_555
Co1 N1 1_555 1_555
N1 C1 1_555 1_555
N2 C9 1_555 1_555
N3 C19 1_555 1_555
N4 C26 1_555 1_555
N5 O1 1_555 1_555
N6 O4 1_555 1_555
O1 Co1 1_555 1_555
O2 N5 1_555 1_555
O3 N5 1_555 1_555
O4 Co1 1_555 1_555
O5 N6 1_555 1_555
O6 N6 1_555 1_555
C1B H1B 1_555 1_555
C2B C1B 1_555 1_555
H2B C2B 1_555 1_555
C3B C2B 1_555 1_555
C4B C3B 1_555 1_555
H3B C4B 1_555 1_555
C5B C4B 1_555 1_555
H4B C5B 1_555 1_555
C6B C3B 1_555 1_555
C7B C6B 1_555 1_555
H5B C7B 1_555 1_555
C8B C7B 1_555 1_555
H6B C8B 1_555 1_555
C9B N2 1_555 1_555
C10B C9B 1_555 1_555
H7B C10B 1_555 1_555
C11B C6B 1_555 1_555
H8B C11B 1_555 1_555
C13B C12 1_555 1_555
H9B C13B 1_555 1_555
C14B C15 1_555 1_555
H10B C14B 1_555 1_555
C17B C16 1_555 1_555
H11B C17B 1_555 1_555
H12B C18B 1_555 1_555
C18B C19 1_555 1_555
C20B N3 1_555 1_555
C21B C20B 1_555 1_555
H13B C21B 1_555 1_555
C22B C21B 1_555 1_555
H14B C22B 1_555 1_555
C23B C22B 1_555 1_555
C24B C23B 1_555 1_555
H15B C24B 1_555 1_555
C25B C20B 1_555 1_555
H16B C25B 1_555 1_555
C26B H17B 1_555 1_555
C27B C26B 1_555 1_555
H18B C27B 1_555 1_555
C28B C23B 1_555 1_555
C29B C28B 1_555 1_555
H19B C29B 1_555 1_555
C30B C29B 1_555 1_555
H20B C30B 1_555 1_555
N1B C1B 1_555 1_555
N4B C26B 1_555 1_555
Co1_2 N4 1_555 1_555
Co1B N4B 1_555 1_555
Co1B_2 N1B 1_555 1_555
N1E Co1 1_555 1_555
N4_2 Co1 1_555 1_555
N4E Co1 1_555 1_555
C5 N1 1_555 1_555
C10 C11 1_555 1_555
C12 N2 1_555 1_555
C20 N3 1_555 1_555
C24 C25 1_555 1_555
C27 C28 1_555 1_555
C30 N4 1_555 1_555
C5B N1B 1_555 1_555
C8B C9B 1_555 1_555
C10B C11B 1_555 1_555
C13B C14B 1_555 1_555
C17B C18B 1_555 1_555
C24B C25B 1_555 1_555
C27B C28B 1_555 1_555
C30B N4B 1_555 1_555

#END
