
#######################################################################
#
#                 Cambridge Crystallographic Data Centre
#                                CCDC 
#
#######################################################################
#
# If this CIF has been generated from an entry in the Cambridge 
# Structural Database, then it will include bibliographic, chemical, 
# crystal, experimental, refinement or atomic coordinate data resulting 
# from the CCDC's data processing and validation procedures.
#
#######################################################################

data_VOTNOJ
_symmetry_cell_setting           monoclinic
_symmetry_space_group_name_H-M   'P 21/c'
_symmetry_Int_Tables_number      14
_space_group_name_Hall           '-P 2ybc'
loop_
_symmetry_equiv_pos_site_id
_symmetry_equiv_pos_as_xyz
1 x,y,z
2 -x,1/2+y,1/2-z
3 -x,-y,-z
4 x,1/2-y,1/2+z
_cell_length_a                   10.173(2)
_cell_length_b                   36.243(7)
_cell_length_c                   23.027(6)
_cell_angle_alpha                90
_cell_angle_beta                 111.70(3)
_cell_angle_gamma                90
_cell_volume                     7888.39
loop_
_atom_site_label
_atom_site_type_symbol
_atom_site_fract_x
_atom_site_fract_y
_atom_site_fract_z
O1 O -0.10296(17) 0.02876(5) 0.55743(7)
Cu1 Cu 0.13608(3) -0.008535(7) 0.525913(12)
Cu2 Cu 0.38807(3) 0.355023(8) 0.619411(12)
Cu3 Cu 0.11674(3) 0.337598(7) 0.566105(12)
O2 O 0.42327(16) 0.30930(5) 0.58165(8)
O3 O 0.19400(17) 0.29301(5) 0.54322(8)
O4 O 0.36308(17) 0.11875(5) 1.04127(8)
O5 O 0.13708(17) 0.13628(5) 0.99394(7)
O6 O 0.37690(17) 0.17262(5) 0.19079(8)
O7 O 0.14283(16) 0.18330(5) 0.14892(7)
O8 O -0.30504(17) -0.10186(5) 0.85353(8)
O9 O -0.07512(16) -0.11451(5) 0.90356(8)
O10 O 0.16235(16) 0.04062(5) 0.49413(8)
O11 O 0.12649(17) 0.01412(6) 0.60188(8)
O12 O 0.15788(19) 0.08178(5) 0.79494(8)
O13 O 0.05720(19) -0.04061(5) 0.77040(9)
O14 O 0.0062(2) 0.02217(6) 0.93200(8)
O15 O 0.2018(2) 0.17299(6) 0.50717(9)
O16 O 0.35087(18) 0.23908(5) 0.37555(8)
O17 O 0.32044(18) 0.11391(5) 0.35945(8)
O18 O 0.35518(16) -0.02047(5) 0.56199(8)
O19 O 0.59821(17) 0.37065(5) 0.67279(8)
O20 O -0.09210(16) 0.31760(5) 0.52121(8)
N1 N -0.3213(2) 0.30793(6) 0.46535(11)
N2 N 0.8290(2) 0.37409(6) 0.72900(10)
N3 N 0.5782(2) -0.02207(7) 0.62937(10)
N4 N 0.0953(2) 0.02170(6) 0.77758(9)
N5 N 0.0339(2) -0.01012(6) 0.85263(9)
N6 N 0.0725(2) 0.05341(5) 0.86171(9)
N7 N 0.3333(2) 0.17677(5) 0.36485(9)
N8 N 0.2693(2) 0.20709(5) 0.44055(9)
N9 N 0.2735(2) 0.14270(5) 0.43796(9)
O21 O -0.06792(17) 0.05476(5) 0.44936(8)
C1 C 0.0621(2) 0.06076(6) 0.46198(10)
C2 C 0.0114(3) 0.02589(7) 0.60319(11)
C3 C 0.2464(2) 0.11856(7) 0.99634(11)
C4 C 0.0624(2) -0.01166(7) 0.79821(11)
C5 C 0.3099(2) 0.14239(6) 0.38511(11)
C6 C 0.2614(2) 0.18365(6) 0.19348(11)
C7 C 0.7216(2) 0.36542(6) 0.67638(11)
C8 C 0.3217(2) 0.20972(6) 0.39308(11)
C9 C 0.0964(2) 0.09544(7) 0.43373(11)
H1 H 0.0376 0.1154 0.4384
H2 H 0.0728 0.0915 0.3894
C10 C 0.3234(2) 0.28779(6) 0.55232(11)
C11 C -0.1391(2) -0.06006(7) 0.84246(12)
H3 H -0.2074 -0.0411 0.8413
H4 H -0.1479 -0.0649 0.7997
C12 C 0.1276(3) 0.02148(8) 0.72005(11)
H5 H 0.1441 -0.0037 0.7101
H6 H 0.2133 0.0355 0.7271
C13 C -0.1755(2) -0.09479(6) 0.86931(11)
C14 C 0.0370(3) 0.02184(8) 0.88586(11)
C15 C 0.3574(3) 0.25271(7) 0.52570(11)
H7 H 0.3763 0.2332 0.5565
H8 H 0.4422 0.2564 0.5165
C16 C 0.0094(3) 0.03768(9) 0.66647(11)
H9 H 0.0150 0.0644 0.6695
H10 H -0.0798 0.0302 0.6691
C17 C 0.1141(2) 0.05422(7) 0.81094(10)
C18 C 0.2456(3) 0.17413(7) 0.46476(11)
C19 C 0.3775(2) 0.17899(7) 0.31068(10)
H11 H 0.3933 0.1543 0.2984
H12 H 0.4660 0.1924 0.3225
C20 C 0.2658(2) 0.19827(7) 0.25544(10)
H13 H 0.1737 0.1949 0.2582
H14 H 0.2858 0.2245 0.2577
C21 C 0.4411(2) -0.02819(7) 0.61522(11)
C22 C 0.2509(2) 0.10692(7) 0.46332(12)
H15 H 0.2779 0.1089 0.5083
H16 H 0.3101 0.0883 0.4550
C23 C 0.0096(3) -0.04535(7) 0.87892(13)
H17 H 0.0214 -0.0418 0.9223
H18 H 0.0791 -0.0633 0.8775
C24 C 0.2359(3) 0.09492(8) 0.94096(12)
H19 H 0.2818 0.0715 0.9560
H20 H 0.2867 0.1069 0.9179
C25 C 0.0844(2) 0.08772(7) 0.89672(11)
H21 H 0.0235 0.0864 0.9206
H22 H 0.0524 0.1081 0.8676
C26 C -0.2078(3) 0.32953(7) 0.48714(11)
C27 C 0.7525(3) 0.35021(9) 0.62270(14)
H23 H 0.6653 0.3446 0.5890
H24 H 0.8078 0.3281 0.6355
H25 H 0.8044 0.3681 0.6090
C28 C 0.8005(3) 0.39018(10) 0.78106(13)
H26 H 0.7002 0.3910 0.7711
H27 H 0.8383 0.4148 0.7887
H28 H 0.8442 0.3754 0.8178
C29 C 0.9794(3) 0.36974(8) 0.73926(15)
H29 H 0.9886 0.3616 0.7013
H30 H 1.0211 0.3518 0.7715
H31 H 1.0269 0.3930 0.7517
C30 C 0.6268(3) -0.00526(11) 0.58342(14)
H32 H 0.6888 -0.0220 0.5737
H33 H 0.6768 0.0171 0.6002
H34 H 0.5469 0.0002 0.5461
C31 C 0.3949(3) -0.04513(10) 0.66365(14)
H35 H 0.2958 -0.0508 0.6455
H36 H 0.4118 -0.0281 0.6976
H37 H 0.4474 -0.0674 0.6789
C32 C 0.2369(3) 0.24119(7) 0.46669(11)
H38 H 0.1523 0.2376 0.4760
H39 H 0.2181 0.2607 0.4359
C33 C -0.4657(3) 0.32076(10) 0.43197(17)
H40 H -0.4964 0.3350 0.4597
H41 H -0.5271 0.2999 0.4170
H42 H -0.4685 0.3358 0.3972
C34 C -0.3025(3) 0.26890(9) 0.48316(18)
H43 H -0.2109 0.2608 0.4853
H44 H -0.3744 0.2545 0.4526
H45 H -0.3097 0.2658 0.5233
C35 C -0.2268(3) 0.36962(8) 0.46888(15)
H46 H -0.1408 0.3828 0.4909
H47 H -0.3023 0.3798 0.4794
H48 H -0.2496 0.3719 0.4247
C36 C 0.6878(3) -0.02965(9) 0.69028(13)
H49 H 0.6514 -0.0463 0.7132
H50 H 0.7160 -0.0070 0.7131
H51 H 0.7680 -0.0407 0.6846
O1B O 0.10296(17) -0.02876(5) 0.44257(7)
Cu1B Cu -0.13608(3) 0.008535(7) 0.474087(12)
Cu2A Cu -0.38807(3) -0.144977(8) 0.880589(12)
Cu2C Cu 0.38807(3) 0.144977(8) 0.119411(12)
Cu2C_2 Cu 0.38807(3) 0.144977(8) 1.119411(12)
Cu3A Cu -0.11674(3) -0.162402(7) 0.933895(12)
Cu3C Cu 0.11674(3) 0.162402(7) 0.066105(12)
Cu3C_2 Cu 0.11674(3) 0.162402(7) 1.066105(12)
O4C O 0.36308(17) 0.38125(5) 0.54127(8)
O5C O 0.13708(17) 0.36372(5) 0.49394(7)
O6C O 0.37690(17) 0.32738(5) 0.69079(8)
O7C O 0.14283(16) 0.31670(5) 0.64892(7)
O8A O 0.30504(17) 0.39814(5) 0.64647(8)
O9A O 0.07512(16) 0.38549(5) 0.59644(8)
O21B O 0.06792(17) -0.05476(5) 0.55064(8)
loop_
_geom_bond_atom_site_label_1
_geom_bond_atom_site_label_2
_geom_bond_site_symmetry_1
_geom_bond_site_symmetry_2
O1 C2 1_555 1_555
Cu1 O10 1_555 1_555
Cu2 Cu3 1_555 1_555
Cu3 O3 1_555 1_555
O2 Cu2 1_555 1_555
O3 C10 1_555 1_555
O4 C3 1_555 1_555
O5 C3 1_555 1_555
O6 C6 1_555 1_555
O7 C6 1_555 1_555
O8 C13 1_555 1_555
O9 C13 1_555 1_555
O10 C1 1_555 1_555
O11 Cu1 1_555 1_555
O12 C17 1_555 1_555
O13 C4 1_555 1_555
O14 C14 1_555 1_555
O15 C18 1_555 1_555
O16 C8 1_555 1_555
O17 C5 1_555 1_555
O18 Cu1 1_555 1_555
O19 Cu2 1_555 1_555
O20 Cu3 1_555 1_555
N1 C26 1_555 1_555
N2 C7 1_555 1_555
N3 C21 1_555 1_555
N4 C4 1_555 1_555
N5 C4 1_555 1_555
N6 C14 1_555 1_555
N7 C5 1_555 1_555
N8 C8 1_555 1_555
N9 C5 1_555 1_555
O21 C1 1_555 1_555
C1 C9 1_555 1_555
C2 O11 1_555 1_555
C3 C24 1_555 1_555
C6 C20 1_555 1_555
C7 O19 1_555 1_555
C8 N7 1_555 1_555
C9 H1 1_555 1_555
H2 C9 1_555 1_555
C10 O2 1_555 1_555
C11 H3 1_555 1_555
H4 C11 1_555 1_555
C12 N4 1_555 1_555
H5 C12 1_555 1_555
H6 C12 1_555 1_555
C13 C11 1_555 1_555
C14 N5 1_555 1_555
C15 C10 1_555 1_555
H7 C15 1_555 1_555
H8 C15 1_555 1_555
C16 C2 1_555 1_555
H9 C16 1_555 1_555
H10 C16 1_555 1_555
C17 N4 1_555 1_555
C18 N8 1_555 1_555
C19 N7 1_555 1_555
H11 C19 1_555 1_555
H12 C19 1_555 1_555
C20 C19 1_555 1_555
H13 C20 1_555 1_555
H14 C20 1_555 1_555
C21 O18 1_555 1_555
C22 N9 1_555 1_555
H15 C22 1_555 1_555
H16 C22 1_555 1_555
C23 N5 1_555 1_555
H17 C23 1_555 1_555
H18 C23 1_555 1_555
C24 H19 1_555 1_555
H20 C24 1_555 1_555
C25 N6 1_555 1_555
H21 C25 1_555 1_555
H22 C25 1_555 1_555
C26 O20 1_555 1_555
C27 C7 1_555 1_555
H23 C27 1_555 1_555
H24 C27 1_555 1_555
H25 C27 1_555 1_555
C28 N2 1_555 1_555
H26 C28 1_555 1_555
H27 C28 1_555 1_555
H28 C28 1_555 1_555
C29 N2 1_555 1_555
H29 C29 1_555 1_555
H30 C29 1_555 1_555
H31 C29 1_555 1_555
C30 N3 1_555 1_555
H32 C30 1_555 1_555
H33 C30 1_555 1_555
H34 C30 1_555 1_555
C31 C21 1_555 1_555
H35 C31 1_555 1_555
H36 C31 1_555 1_555
H37 C31 1_555 1_555
C32 N8 1_555 1_555
H38 C32 1_555 1_555
H39 C32 1_555 1_555
C33 N1 1_555 1_555
H40 C33 1_555 1_555
H41 C33 1_555 1_555
H42 C33 1_555 1_555
C34 N1 1_555 1_555
H43 C34 1_555 1_555
H44 C34 1_555 1_555
H45 C34 1_555 1_555
C35 C26 1_555 1_555
H46 C35 1_555 1_555
H47 C35 1_555 1_555
H48 C35 1_555 1_555
C36 N3 1_555 1_555
H49 C36 1_555 1_555
H50 C36 1_555 1_555
H51 C36 1_555 1_555
O1B Cu1 1_555 1_555
Cu1B O1 1_555 1_555
Cu2A O8 1_555 1_555
Cu2C O6 1_555 1_555
Cu2C_2 O4 1_555 1_555
Cu3A O9 1_555 1_555
Cu3C O7 1_555 1_555
Cu3C_2 O5 1_555 1_555
O4C Cu2 1_555 1_555
O5C Cu3 1_555 1_555
O6C Cu2 1_555 1_555
O7C Cu3 1_555 1_555
O8A Cu2 1_555 1_555
O9A Cu3 1_555 1_555
O21B Cu1 1_555 1_555
Cu1 Cu1B 1_555 1_555
N6 C17 1_555 1_555
N9 C18 1_555 1_555
O21 Cu1B 1_555 1_555
C9 C22 1_555 1_555
C11 C23 1_555 1_555
C12 C16 1_555 1_555
C15 C32 1_555 1_555
C24 C25 1_555 1_555
Cu2A Cu3A 1_555 1_555
Cu2C Cu3C 1_555 1_555
Cu2C_2 Cu3C_2 1_555 1_555

#END
