
#######################################################################
#
#                 Cambridge Crystallographic Data Centre
#                                CCDC 
#
#######################################################################
#
# If this CIF has been generated from an entry in the Cambridge 
# Structural Database, then it will include bibliographic, chemical, 
# crystal, experimental, refinement or atomic coordinate data resulting 
# from the CCDC's data processing and validation procedures.
#
#######################################################################

data_VOTRED
_symmetry_cell_setting           triclinic
_symmetry_space_group_name_H-M   'P -1'
_symmetry_Int_Tables_number      2
_space_group_name_Hall           '-P 1'
loop_
_symmetry_equiv_pos_site_id
_symmetry_equiv_pos_as_xyz
1 x,y,z
2 -x,-y,-z
_cell_length_a                   7.7534(3)
_cell_length_b                   11.5323(5)
_cell_length_c                   14.0576(6)
_cell_angle_alpha                84.990(3)
_cell_angle_beta                 75.297(4)
_cell_angle_gamma                86.611(3)
_cell_volume                     1210.26
loop_
_atom_site_label
_atom_site_type_symbol
_atom_site_fract_x
_atom_site_fract_y
_atom_site_fract_z
Cd1 Cd 0.24785(2) 1.049060(17) 0.020179(13)
O1 O 0.1694(2) 0.88230(18) 0.13077(14)
O2 O 0.3074(2) 1.16012(18) 0.13622(14)
H1 H 0.4017 1.1318 0.1539
H2 H 0.3263 1.2315 0.1122
O3 O -0.0503(2) 0.64546(17) 0.47984(14)
O4 O 0.4582(2) 0.89541(18) 0.06526(14)
N1 N 0.9248(3) 1.1423(2) 0.19330(16)
N2 N 0.9400(3) 1.0870(2) 0.11221(16)
N3 N 0.1685(3) 1.2085(2) -0.07833(17)
N4 N 0.1276(3) 0.7213(2) 0.33073(16)
N5 N 0.6549(3) 1.1155(2) 0.17361(16)
N6 N 0.1639(3) 0.5345(2) 0.37518(16)
H3 H 0.1532 0.4685 0.4092
N7 N 0.7806(3) 1.0705(2) 0.09992(16)
C1 C 0.4590(3) 1.2659(2) 0.4683(2)
H4 H 0.3510 1.2514 0.5139
C2 C 0.6774(3) 1.2217(2) 0.31961(19)
C3 C 0.7483(3) 1.1591(2) 0.22995(19)
C4 C 0.5140(3) 1.1975(2) 0.38823(19)
C5 C 0.4921(4) 0.5255(3) 0.1326(2)
H5 H 0.5710 0.4770 0.0909
C6 C 0.3537(3) 0.9009(3) 0.35821(19)
H6 H 0.4002 0.8251 0.3505
C7 C 0.3985(3) 1.1021(2) 0.37957(18)
C8 C 0.7784(4) 1.3115(3) 0.3350(2)
H7 H 0.8867 1.3270 0.2900
C9 C 0.2566(3) 0.6736(2) 0.25342(19)
C10 C 0.1081(3) 1.0396(2) 0.37518(19)
H8 H -0.0120 1.0572 0.3790
C11 C 0.1754(3) 0.9266(2) 0.35911(18)
C12 C 0.2169(3) 1.1268(2) 0.38559(19)
H9 H 0.1692 1.2018 0.3966
C13 C 0.3970(4) 0.4804(3) 0.2243(2)
H10 H 0.4114 0.4025 0.2453
C14 C 0.4628(3) 0.9884(3) 0.3688(2)
H11 H 0.5812 0.9699 0.3686
C15 C 0.3535(3) 0.7195(3) 0.16052(19)
C16 C 0.2803(3) 0.5553(2) 0.28315(19)
C17 C 0.0614(4) 1.2984(3) -0.0429(2)
H12 H 0.0094 1.2963 0.0245
C18 C 0.4711(4) 0.6424(3) 0.1021(2)
H13 H 0.5378 0.6702 0.0404
C19 C 0.0508(3) 0.8390(2) 0.3428(2)
H14 H -0.0531 0.8365 0.3985
H15 H 0.0104 0.8658 0.2845
C20 C 0.5604(4) 1.3544(3) 0.4817(2)
H16 H 0.5203 1.3989 0.5357
C21 C 0.0694(3) 0.6340(2) 0.40349(19)
C22 C 0.3261(3) 0.8411(2) 0.11740(19)
C23 C 0.7220(4) 1.3774(3) 0.4148(2)
H17 H 0.7913 1.4367 0.4238
C24 C 0.0246(4) 1.3944(3) -0.1021(3)
H18 H -0.0530 1.4545 -0.0754
C25 C 0.1065(4) 1.3984(3) -0.2024(3)
H19 H 0.0850 1.4618 -0.2440
C26 C 0.2472(4) 1.2144(3) -0.1753(2)
H20 H 0.3235 1.1530 -0.2005
C27 C 0.2198(4) 1.3077(3) -0.2395(2)
H21 H 0.2768 1.3089 -0.3063
Cd1_2 Cd 1.24785(2) 1.049060(17) 0.020179(13)
Cd1A Cd 0.75215(2) 0.950940(17) -0.020179(13)
O4A O 0.5418(2) 1.10459(18) -0.06526(14)
N2_2 N -0.0600(3) 1.0870(2) 0.11221(16)
N7A N 0.2194(3) 0.9295(2) -0.09992(16)
loop_
_geom_bond_atom_site_label_1
_geom_bond_atom_site_label_2
_geom_bond_site_symmetry_1
_geom_bond_site_symmetry_2
Cd1 O1 1_555 1_555
O1 C22 1_555 1_555
O2 Cd1 1_555 1_555
H1 O2 1_555 1_555
H2 O2 1_555 1_555
O3 C21 1_555 1_555
O4 Cd1 1_555 1_555
N1 N2 1_555 1_555
N2 N7 1_555 1_555
N3 Cd1 1_555 1_555
N4 C9 1_555 1_555
N5 N7 1_555 1_555
N6 H3 1_555 1_555
N7 Cd1A 1_555 1_555
C1 H4 1_555 1_555
C2 C3 1_555 1_555
C3 N1 1_555 1_555
C4 C1 1_555 1_555
C5 H5 1_555 1_555
C6 H6 1_555 1_555
C7 C4 1_555 1_555
C8 C2 1_555 1_555
H7 C8 1_555 1_555
C9 C15 1_555 1_555
C10 H8 1_555 1_555
C11 C6 1_555 1_555
C12 C7 1_555 1_555
H9 C12 1_555 1_555
C13 C5 1_555 1_555
H10 C13 1_555 1_555
C14 C6 1_555 1_555
H11 C14 1_555 1_555
C15 C18 1_555 1_555
C16 N6 1_555 1_555
C17 N3 1_555 1_555
H12 C17 1_555 1_555
C18 C5 1_555 1_555
H13 C18 1_555 1_555
C19 N4 1_555 1_555
H14 C19 1_555 1_555
H15 C19 1_555 1_555
C20 C1 1_555 1_555
H16 C20 1_555 1_555
C21 N4 1_555 1_555
C22 O4 1_555 1_555
C23 C8 1_555 1_555
H17 C23 1_555 1_555
C24 C17 1_555 1_555
H18 C24 1_555 1_555
C25 C24 1_555 1_555
H19 C25 1_555 1_555
C26 N3 1_555 1_555
H20 C26 1_555 1_555
C27 C25 1_555 1_555
H21 C27 1_555 1_555
Cd1_2 N2 1_555 1_555
Cd1A O4 1_555 1_555
O4A Cd1 1_555 1_555
N2_2 Cd1 1_555 1_555
N7A Cd1 1_555 1_555
N5 C3 1_555 1_555
N6 C21 1_555 1_555
C2 C4 1_555 1_555
C7 C14 1_555 1_555
C9 C16 1_555 1_555
C10 C11 1_555 1_555
C10 C12 1_555 1_555
C11 C19 1_555 1_555
C13 C16 1_555 1_555
C15 C22 1_555 1_555
C20 C23 1_555 1_555
C26 C27 1_555 1_555
Cd1A O4A 1_555 1_555

#END
