
#######################################################################
#
#                 Cambridge Crystallographic Data Centre
#                                CCDC 
#
#######################################################################
#
# If this CIF has been generated from an entry in the Cambridge 
# Structural Database, then it will include bibliographic, chemical, 
# crystal, experimental, refinement or atomic coordinate data resulting 
# from the CCDC's data processing and validation procedures.
#
#######################################################################

data_VOTWIM
_symmetry_cell_setting           triclinic
_symmetry_space_group_name_H-M   'P -1'
_symmetry_Int_Tables_number      2
_space_group_name_Hall           '-P 1'
loop_
_symmetry_equiv_pos_site_id
_symmetry_equiv_pos_as_xyz
1 x,y,z
2 -x,-y,-z
_cell_length_a                   7.3753(7)
_cell_length_b                   7.9003(7)
_cell_length_c                   11.1179(10)
_cell_angle_alpha                85.277(7)
_cell_angle_beta                 73.544(8)
_cell_angle_gamma                62.907(9)
_cell_volume                     552.272
loop_
_atom_site_label
_atom_site_type_symbol
_atom_site_fract_x
_atom_site_fract_y
_atom_site_fract_z
Co1 Co 0.5000 0.5000 0.00000
O1 O 0.4054(3) 0.3684(2) 0.15767(15)
O2 O 0.3372(3) 0.5707(2) 0.31285(16)
C1 C 0.3553(3) 0.4185(3) 0.2712(2)
C2 C 0.3473(4) 0.1056(3) 0.3313(2)
H1 H 0.4071(4) 0.0626(3) 0.2473(2)
C3 C 0.2294(4) 0.3440(3) 0.4926(2)
H2 H 0.2076(4) 0.4633(3) 0.5167(2)
C4 C 0.1795(4) 0.2289(4) 0.5843(2)
H3 H 0.1270(4) 0.2692(4) 0.6688(2)
C5 C 0.2953(4) -0.0112(3) 0.4209(2)
H4 H 0.3173(4) -0.1306(3) 0.3970(2)
C6 C 0.3106(3) 0.2854(3) 0.3666(2)
C7 C 0.2103(3) 0.0532(3) 0.5462(2)
N1 N 0.1528(3) -0.0645(3) 0.63899(17)
C8 C 0.0179(4) -0.0055(3) 0.7539(2)
H5 H -0.0524(4) 0.1188(3) 0.7882(2)
C9 C 0.2239(4) -0.2585(3) 0.6236(2)
H6 H 0.3193(4) -0.3362(3) 0.5528(2)
N2 N 0.0017(3) -0.1541(3) 0.81030(18)
C10 C 0.1289(4) -0.3135(3) 0.7308(2)
H7 H 0.1462(4) -0.4364(3) 0.7477(2)
C11 C -0.1337(4) -0.1543(4) 0.9355(2)
H8 H -0.2204(4) -0.0243(4) 0.9702(2)
H9 H -0.2279(4) -0.2049(4) 0.9279(2)
O3 O -0.1088(3) -0.3221(3) 1.11905(17)
C12 C -0.0065(4) -0.2726(3) 1.0260(2)
O4 O 0.4941(3) 0.2967(2) -0.11194(15)
O5 O 0.1814(3) -0.3011(3) 1.00213(17)
H10 H 0.569(3) 0.1849(3) -0.0930(17)
H11 H 0.543(4) 0.310(2) -0.18909(18)
O1A O 0.5946(3) -0.3684(2) 0.84233(15)
O2A O 0.6628(3) -0.5707(2) 0.68715(16)
C1A C 0.6447(3) -0.4185(3) 0.7288(2)
C2A C 0.6527(4) -0.1056(3) 0.6687(2)
H1A H 0.5929(4) -0.0626(3) 0.7527(2)
C3A C 0.7706(4) -0.3440(3) 0.5074(2)
H2A H 0.7924(4) -0.4633(3) 0.4833(2)
C4A C 0.8205(4) -0.2289(4) 0.4157(2)
H3A H 0.8730(4) -0.2692(4) 0.3312(2)
C5A C 0.7047(4) 0.0112(3) 0.5791(2)
H4A H 0.6827(4) 0.1306(3) 0.6030(2)
C6A C 0.6894(3) -0.2854(3) 0.6334(2)
C7A C 0.7897(3) -0.0532(3) 0.4538(2)
N1A N 0.8472(3) 0.0645(3) 0.36101(17)
C8A C 0.9821(4) 0.0055(3) 0.2461(2)
H5A H 1.0524(4) -0.1188(3) 0.2118(2)
C9A C 0.7761(4) 0.2585(3) 0.3764(2)
H6A H 0.6807(4) 0.3362(3) 0.4472(2)
N2A N 0.9983(3) 0.1541(3) 0.18970(18)
C10A C 0.8711(4) 0.3135(3) 0.2692(2)
H7A H 0.8538(4) 0.4364(3) 0.2523(2)
C11A C 1.1337(4) 0.1543(4) 0.0645(2)
H8A H 1.2204(4) 0.0243(4) 0.0298(2)
H9A H 1.2279(4) 0.2049(4) 0.0721(2)
O3A O 1.1088(3) 0.3221(3) -0.11905(17)
C12A C 1.0065(4) 0.2726(3) -0.0260(2)
O5A O 0.8186(3) 0.3011(3) -0.00213(17)
O4A O 0.5059(3) 0.7033(2) 0.11194(15)
H10A H 0.431(3) 0.8151(3) 0.0930(17)
H11A H 0.457(4) 0.690(2) 0.18909(18)
Co1_2 Co 0.5000 -0.5000 1.00000
O1A_2 O 0.5946(3) 0.6316(2) -0.15767(15)
O5_2 O 0.1814(3) 0.6989(3) 0.00213(17)
loop_
_geom_bond_atom_site_label_1
_geom_bond_atom_site_label_2
_geom_bond_site_symmetry_1
_geom_bond_site_symmetry_2
Co1 O1 1_555 1_555
O1 C1 1_555 1_555
O2 C1 1_555 1_555
C1 C6 1_555 1_555
C2 H1 1_555 1_555
C3 H2 1_555 1_555
C4 C3 1_555 1_555
H3 C4 1_555 1_555
C5 C2 1_555 1_555
H4 C5 1_555 1_555
C6 C2 1_555 1_555
C7 C4 1_555 1_555
N1 C7 1_555 1_555
C8 N1 1_555 1_555
H5 C8 1_555 1_555
C9 N1 1_555 1_555
H6 C9 1_555 1_555
N2 C8 1_555 1_555
C10 C9 1_555 1_555
H7 C10 1_555 1_555
C11 N2 1_555 1_555
H8 C11 1_555 1_555
H9 C11 1_555 1_555
O3 C12 1_555 1_555
C12 C11 1_555 1_555
O4 Co1 1_555 1_555
O5 C12 1_555 1_555
H10 O4 1_555 1_555
H11 O4 1_555 1_555
O1A C1A 1_555 1_555
O2A C1A 1_555 1_555
C1A C6A 1_555 1_555
C2A H1A 1_555 1_555
C3A H2A 1_555 1_555
C4A C3A 1_555 1_555
H3A C4A 1_555 1_555
C5A C2A 1_555 1_555
H4A C5A 1_555 1_555
C6A C2A 1_555 1_555
C7A C4A 1_555 1_555
N1A C7A 1_555 1_555
C8A N1A 1_555 1_555
H5A C8A 1_555 1_555
C9A N1A 1_555 1_555
H6A C9A 1_555 1_555
N2A C8A 1_555 1_555
C10A C9A 1_555 1_555
H7A C10A 1_555 1_555
C11A N2A 1_555 1_555
H8A C11A 1_555 1_555
H9A C11A 1_555 1_555
O3A C12A 1_555 1_555
C12A C11A 1_555 1_555
O5A Co1 1_555 1_555
O4A Co1 1_555 1_555
H10A O4A 1_555 1_555
H11A O4A 1_555 1_555
Co1_2 O5 1_555 1_555
O1A_2 Co1 1_555 1_555
O5_2 Co1 1_555 1_555
C3 C6 1_555 1_555
C5 C7 1_555 1_555
N2 C10 1_555 1_555
O1A Co1_2 1_555 1_555
C3A C6A 1_555 1_555
C5A C7A 1_555 1_555
N2A C10A 1_555 1_555
C12A O5A 1_555 1_555

#END
