
#######################################################################
#
#                 Cambridge Crystallographic Data Centre
#                                CCDC 
#
#######################################################################
#
# If this CIF has been generated from an entry in the Cambridge 
# Structural Database, then it will include bibliographic, chemical, 
# crystal, experimental, refinement or atomic coordinate data resulting 
# from the CCDC's data processing and validation procedures.
#
#######################################################################

data_VOVMUQ
_symmetry_cell_setting           orthorhombic
_symmetry_space_group_name_H-M   'P b c a'
_symmetry_Int_Tables_number      61
_space_group_name_Hall           '-P 2ac 2ab'
loop_
_symmetry_equiv_pos_site_id
_symmetry_equiv_pos_as_xyz
1 x,y,z
2 1/2-x,-y,1/2+z
3 -x,1/2+y,1/2-z
4 1/2+x,1/2-y,-z
5 -x,-y,-z
6 1/2+x,y,1/2-z
7 x,1/2-y,1/2+z
8 1/2-x,1/2+y,z
_cell_length_a                   7.9321(2)
_cell_length_b                   14.7305(3)
_cell_length_c                   27.7895(6)
_cell_angle_alpha                90
_cell_angle_beta                 90
_cell_angle_gamma                90
_cell_volume                     3247.03
loop_
_atom_site_label
_atom_site_type_symbol
_atom_site_fract_x
_atom_site_fract_y
_atom_site_fract_z
Ce1 Ce 0.014784(14) 0.888950(7) 0.128666(4)
O1 O 0.3294(2) 0.88389(15) 0.12912(6)
H1 H 0.378(4) 0.886(2) 0.1552(6)
H2 H 0.393(3) 0.885(2) 0.1058(7)
O2 O 0.0908(2) 0.72710(11) 0.11152(7)
H3 H 0.160(3) 0.7007(17) 0.0946(8)
H4 H 0.044(3) 0.6873(14) 0.1270(8)
O3 O -0.2190(2) 0.77774(11) 0.15688(6)
H5 H -0.298(2) 0.8066(16) 0.1679(9)
H6 H -0.203(4) 0.7404(14) 0.1782(7)
N1 N 0.1082(3) 1.02268(12) 0.19502(6)
C1 C 0.1101(3) 0.99515(14) 0.24107(7)
C2 C 0.1437(3) 1.05606(15) 0.27803(8)
N2 N 0.1682(3) 1.14500(13) 0.26916(7)
C3 C 0.1634(4) 1.17120(17) 0.22336(9)
H7 H 0.1798 1.2321 0.2160
C4 C 0.1346(3) 1.11039(16) 0.18658(9)
H8 H 0.1337 1.1313 0.1550
C5 C 0.0660(3) 0.89607(15) 0.24909(8)
O4 O 0.0258(2) 0.87221(10) 0.29027(5)
O5 O 0.0717(2) 0.84649(10) 0.21232(5)
C6 C 0.1649(3) 1.03143(14) 0.33031(8)
O6 O 0.2782(2) 0.97655(11) 0.34100(6)
O7 O 0.0736(2) 1.07272(11) 0.36016(6)
N3 N 0.1520(2) 0.89096(12) 0.03388(6)
C7 C 0.1979(3) 0.97406(14) 0.01930(8)
C8 C 0.2702(3) 0.98893(14) -0.02564(8)
N4 N 0.2942(3) 0.91678(13) -0.05397(7)
H9 H 0.338(3) 0.9227(16) -0.0825(4)
C9 C 0.2461(3) 0.83365(16) -0.04091(9)
H10 H 0.2607 0.7847 -0.0616
C10 C 0.1747(3) 0.82146(15) 0.00355(8)
H11 H 0.1414 0.7635 0.0129
C11 C 0.1687(3) 1.05085(14) 0.05454(8)
O8 O 0.2412(2) 1.12344(11) 0.04656(6)
O9 O 0.0709(2) 1.03326(10) 0.08880(5)
C12 C 0.3186(3) 1.08031(15) -0.04734(8)
O10 O 0.4692(2) 1.09962(12) -0.04781(7)
O11 O 0.1973(2) 1.12426(10) -0.06446(6)
Ce1D Ce -0.014784(14) 1.111050(7) -0.128666(4)
Ce1E Ce 0.514784(14) 0.888950(7) 0.371334(4)
O6E O -0.2218(2) 0.97655(11) 0.15900(6)
O11D O -0.1973(2) 0.87574(10) 0.06446(6)
loop_
_geom_bond_atom_site_label_1
_geom_bond_atom_site_label_2
_geom_bond_site_symmetry_1
_geom_bond_site_symmetry_2
Ce1 O1 1_555 1_555
O1 H1 1_555 1_555
H2 O1 1_555 1_555
O2 Ce1 1_555 1_555
H3 O2 1_555 1_555
H4 O2 1_555 1_555
O3 Ce1 1_555 1_555
H5 O3 1_555 1_555
H6 O3 1_555 1_555
N1 Ce1 1_555 1_555
C1 N1 1_555 1_555
C2 C1 1_555 1_555
N2 C2 1_555 1_555
C3 N2 1_555 1_555
H7 C3 1_555 1_555
C4 N1 1_555 1_555
H8 C4 1_555 1_555
C5 C1 1_555 1_555
O4 C5 1_555 1_555
O5 Ce1 1_555 1_555
C6 C2 1_555 1_555
O6 C6 1_555 1_555
O7 C6 1_555 1_555
N3 Ce1 1_555 1_555
C7 N3 1_555 1_555
C8 C7 1_555 1_555
N4 C8 1_555 1_555
H9 N4 1_555 1_555
C9 N4 1_555 1_555
H10 C9 1_555 1_555
C10 N3 1_555 1_555
H11 C10 1_555 1_555
C11 C7 1_555 1_555
O8 C11 1_555 1_555
O9 Ce1 1_555 1_555
C12 C8 1_555 1_555
O10 C12 1_555 1_555
O11 C12 1_555 1_555
Ce1D O11 1_555 1_555
Ce1E O6 1_555 1_555
O6E Ce1 1_555 1_555
O11D Ce1 1_555 1_555
C3 C4 1_555 1_555
C5 O5 1_555 1_555
C9 C10 1_555 1_555
C11 O9 1_555 1_555

#END
