
#######################################################################
#
#                 Cambridge Crystallographic Data Centre
#                                CCDC 
#
#######################################################################
#
# If this CIF has been generated from an entry in the Cambridge 
# Structural Database, then it will include bibliographic, chemical, 
# crystal, experimental, refinement or atomic coordinate data resulting 
# from the CCDC's data processing and validation procedures.
#
#######################################################################

data_VOVRUV
_symmetry_cell_setting           orthorhombic
_symmetry_space_group_name_H-M   'P b c a'
_symmetry_Int_Tables_number      61
_space_group_name_Hall           '-P 2ac 2ab'
loop_
_symmetry_equiv_pos_site_id
_symmetry_equiv_pos_as_xyz
1 x,y,z
2 1/2-x,-y,1/2+z
3 -x,1/2+y,1/2-z
4 1/2+x,1/2-y,-z
5 -x,-y,-z
6 1/2+x,y,1/2-z
7 x,1/2-y,1/2+z
8 1/2-x,1/2+y,z
_cell_length_a                   19.4695(12)
_cell_length_b                   7.5529(5)
_cell_length_c                   23.982(4)
_cell_angle_alpha                90
_cell_angle_beta                 90
_cell_angle_gamma                90
_cell_volume                     3526.58
loop_
_atom_site_label
_atom_site_type_symbol
_atom_site_fract_x
_atom_site_fract_y
_atom_site_fract_z
Cl1 Cl 0.28674(13) 0.4190(4) 0.04640(14)
C1 C 0.0615(4) 0.6577(12) 0.0708(5)
C2 C 0.0801(5) 0.7370(13) -0.0285(5)
C3 C 0.1243(5) 0.6919(12) -0.0762(4)
C4 C 0.1865(5) 0.6057(14) -0.0711(5)
H1 H 0.2018 0.5733 -0.0358
C5 C 0.2262(6) 0.5666(17) -0.1165(6)
H2 H 0.2686 0.5118 -0.1117
C6 C 0.2033(6) 0.6085(15) -0.1695(6)
H3 H 0.2295 0.5789 -0.2005
C7 C 0.1408(7) 0.6953(16) -0.1760(5)
H4 H 0.1258 0.7259 -0.2116
C8 C 0.1006(7) 0.7366(14) -0.1298(5)
H5 H 0.0585 0.7931 -0.1343
C9 C -0.0136(6) 0.8257(14) 0.1329(5)
C10 C -0.0813(6) 0.7587(15) 0.1403(5)
H6 H -0.1028 0.6941 0.1122
C11 C -0.1143(6) 0.7921(16) 0.1901(6)
H7 H -0.1585 0.7492 0.1962
C12 C -0.0815(6) 0.8894(15) 0.2309(6)
H8 H -0.1039 0.9108 0.2645
C13 C -0.0176(7) 0.9541(15) 0.2229(6)
H9 H 0.0028 1.0205 0.251
C14 C 0.0192(5) 0.9232(14) 0.1725(6)
C15 C 0.0894(7) 0.9963(14) 0.1638(6)
H10 H 0.095 1.101 0.1861
H11 H 0.0954 1.0256 0.1252
H12 H 0.1229 0.9097 0.1746
N1 N 0.0871(4) 0.6283(10) 0.0181(4)
H13 H 0.11 0.532 0.0135
N2 N 0.0188(4) 0.7895(10) 0.0792(4)
H14 H 0.0094 0.8581 0.0516
O1 O 0.0403(4) 0.8639(10) -0.0285(4)
S1 S 0.08223(14) 0.5137(3) 0.12332(12)
Cl2 Cl 0.25818(13) 0.7323(3) 0.18720(12)
Hg1 Hg 0.20808(2) 0.50433(6) 0.12021(2)
Cl2G Cl 0.24182(13) 0.2323(3) 0.18720(12)
Hg1G Hg 0.29192(2) 1.00433(6) 0.12021(2)
O2 O 0.1256(6) 0.2669(13) 0.0010(5)
H15 H 0.112(9) 0.192(18) 0.023(6)
H16 H 0.1674(14) 0.26(3) 0.003(8)
loop_
_geom_bond_atom_site_label_1
_geom_bond_atom_site_label_2
_geom_bond_site_symmetry_1
_geom_bond_site_symmetry_2
Cl1 Hg1 1_555 1_555
C1 N1 1_555 1_555
C2 C3 1_555 1_555
C3 C4 1_555 1_555
C4 H1 1_555 1_555
C5 C4 1_555 1_555
H2 C5 1_555 1_555
C6 C5 1_555 1_555
H3 C6 1_555 1_555
C7 C6 1_555 1_555
H4 C7 1_555 1_555
C8 C3 1_555 1_555
H5 C8 1_555 1_555
C9 C10 1_555 1_555
C10 H6 1_555 1_555
C11 C10 1_555 1_555
H7 C11 1_555 1_555
C12 C11 1_555 1_555
H8 C12 1_555 1_555
C13 C12 1_555 1_555
H9 C13 1_555 1_555
C14 C9 1_555 1_555
C15 C14 1_555 1_555
H10 C15 1_555 1_555
H11 C15 1_555 1_555
H12 C15 1_555 1_555
N1 C2 1_555 1_555
H13 N1 1_555 1_555
N2 C1 1_555 1_555
H14 N2 1_555 1_555
O1 C2 1_555 1_555
S1 C1 1_555 1_555
Cl2 Hg1 1_555 1_555
Hg1 S1 1_555 1_555
O2 H15 1_555 1_555
H16 O2 1_555 1_555
Cl2G Hg1 1_555 1_555
Hg1G Cl2 1_555 1_555
C7 C8 1_555 1_555
C9 N2 1_555 1_555
C13 C14 1_555 1_555

#END
