
#######################################################################
#
#                 Cambridge Crystallographic Data Centre
#                                CCDC 
#
#######################################################################
#
# If this CIF has been generated from an entry in the Cambridge 
# Structural Database, then it will include bibliographic, chemical, 
# crystal, experimental, refinement or atomic coordinate data resulting 
# from the CCDC's data processing and validation procedures.
#
#######################################################################

data_VOVSAC
_symmetry_cell_setting           monoclinic
_symmetry_space_group_name_H-M   'P 21/c'
_symmetry_Int_Tables_number      14
_space_group_name_Hall           '-P 2ybc'
loop_
_symmetry_equiv_pos_site_id
_symmetry_equiv_pos_as_xyz
1 x,y,z
2 -x,1/2+y,1/2-z
3 -x,-y,-z
4 x,1/2-y,1/2+z
_cell_length_a                   11.8229(7)
_cell_length_b                   20.5663(9)
_cell_length_c                   7.8419(4)
_cell_angle_alpha                90
_cell_angle_beta                 103.466(6)
_cell_angle_gamma                90
_cell_volume                     1854.36
loop_
_atom_site_label
_atom_site_type_symbol
_atom_site_fract_x
_atom_site_fract_y
_atom_site_fract_z
Br1 Br 0.13717(8) 0.26052(5) 0.19591(11)
Br2 Br 0.32226(13) 0.08701(5) 0.46379(19)
S1 S 0.4521(2) 0.26967(10) 0.6158(3)
N1 N 0.3249(6) 0.3747(3) 0.4755(9)
H1 H 0.269 0.3471 0.4465
N2 N 0.5240(6) 0.3888(3) 0.5998(9)
H2 H 0.5139 0.4294 0.5739
C1 C 0.4355(8) 0.3495(4) 0.5571(10)
O1 O 0.3705(6) 0.4808(3) 0.4571(9)
C2 C 0.2977(7) 0.4386(4) 0.4381(10)
C3 C 0.6381(7) 0.3668(4) 0.6886(12)
C4 C 0.7098(8) 0.3434(5) 0.5874(13)
C5 C 0.1698(7) 0.4498(4) 0.3755(10)
C6 C 0.1344(7) 0.5033(4) 0.2687(12)
H3 H 0.1894 0.5305 0.2383
C7 C 0.0884(8) 0.4102(4) 0.4235(11)
H4 H 0.1113 0.3742 0.4951
C8 C -0.0269(8) 0.4250(5) 0.3631(13)
H5 H -0.0829 0.3987 0.3941
C9 C 0.8193(9) 0.3208(5) 0.6735(17)
H6 H 0.8707 0.305 0.61
C10 C 0.7795(10) 0.3470(6) 0.9483(15)
H7 H 0.8051 0.3487 1.0697
C11 C 0.6675(9) 0.3700(5) 0.8672(13)
H8 H 0.6169 0.3863 0.9314
C12 C 0.6746(11) 0.3442(6) 0.3963(16)
H9 H 0.6285 0.3064 0.3559
H10 H 0.7426 0.3441 0.3489
H11 H 0.6297 0.3826 0.3583
C13 C -0.0605(8) 0.4775(5) 0.2585(12)
H12 H -0.1393 0.487 0.2211
C14 C 0.0177(9) 0.5162(5) 0.2077(13)
H13 H -0.0068 0.551 0.1326
C15 C 0.8499(10) 0.3223(6) 0.8509(18)
H14 H 0.922 0.3058 0.908
Hg1 Hg 0.28834(4) 0.20542(2) 0.44181(5)
Br1C Br 0.13717(8) 0.23948(5) 0.69591(11)
Hg1C Hg 0.28834(4) 0.29458(2) -0.05819(5)
loop_
_geom_bond_atom_site_label_1
_geom_bond_atom_site_label_2
_geom_bond_site_symmetry_1
_geom_bond_site_symmetry_2
Br1 Hg1 1_555 1_555
Br2 Hg1 1_555 1_555
S1 C1 1_555 1_555
N1 H1 1_555 1_555
N2 H2 1_555 1_555
C1 N1 1_555 1_555
O1 C2 1_555 1_555
C2 N1 1_555 1_555
C3 N2 1_555 1_555
C4 C3 1_555 1_555
C5 C2 1_555 1_555
C6 C5 1_555 1_555
H3 C6 1_555 1_555
C7 C5 1_555 1_555
H4 C7 1_555 1_555
C8 C7 1_555 1_555
H5 C8 1_555 1_555
C9 C4 1_555 1_555
H6 C9 1_555 1_555
C10 H7 1_555 1_555
C11 C3 1_555 1_555
H8 C11 1_555 1_555
C12 C4 1_555 1_555
H9 C12 1_555 1_555
H10 C12 1_555 1_555
H11 C12 1_555 1_555
C13 C8 1_555 1_555
H12 C13 1_555 1_555
C14 C6 1_555 1_555
H13 C14 1_555 1_555
C15 C9 1_555 1_555
H14 C15 1_555 1_555
Hg1 S1 1_555 1_555
Br1C Hg1 1_555 1_555
Hg1C Br1 1_555 1_555
N2 C1 1_555 1_555
C10 C11 1_555 1_555
C10 C15 1_555 1_555
C13 C14 1_555 1_555

#END
