
#######################################################################
#
#                 Cambridge Crystallographic Data Centre
#                                CCDC 
#
#######################################################################
#
# If this CIF has been generated from an entry in the Cambridge 
# Structural Database, then it will include bibliographic, chemical, 
# crystal, experimental, refinement or atomic coordinate data resulting 
# from the CCDC's data processing and validation procedures.
#
#######################################################################

data_VOWBIU
_symmetry_cell_setting           orthorhombic
_symmetry_space_group_name_H-M   'P 21 21 21'
_symmetry_Int_Tables_number      19
_space_group_name_Hall           'P 2ac 2ab'
loop_
_symmetry_equiv_pos_site_id
_symmetry_equiv_pos_as_xyz
1 x,y,z
2 1/2-x,-y,1/2+z
3 1/2+x,1/2-y,-z
4 -x,1/2+y,1/2-z
_cell_length_a                   9.0850(10)
_cell_length_b                   10.2220(10)
_cell_length_c                   31.595(2)
_cell_angle_alpha                90
_cell_angle_beta                 90
_cell_angle_gamma                90
_cell_volume                     2934.13
loop_
_atom_site_label
_atom_site_type_symbol
_atom_site_fract_x
_atom_site_fract_y
_atom_site_fract_z
O1 O 0.5086(5) 0.5982(4) 0.27593(14)
C1 C 0.4420(8) 0.5607(6) 0.30817(19)
O2 O 0.8056(5) 0.5603(5) 0.41336(18)
H1 H 0.7247 0.5846 0.4049
C2 C 0.3148(7) 0.6915(6) 0.41781(19)
C3 C 0.1639(7) 0.7031(8) 0.4211(2)
H2 H 0.1034 0.6533 0.4036
C4 C 0.3147(8) 0.7987(9) 0.2300(3)
H3 H 0.2776 0.7105 0.2341
H4 H 0.2821 0.8496 0.2542
C5 C 0.4024(7) 0.7650(7) 0.4441(2)
H5 H 0.5043 0.7583 0.4422
C6 C 0.1012(8) 0.7888(9) 0.4504(3)
H6 H -0.0006 0.797 0.4519
C7 C 0.6751(9) 0.8790(7) 0.2823(2)
H7 H 0.7208 0.9572 0.2709
H8 H 0.608 0.9064 0.3045
C8 C 0.7931(10) 0.7958(9) 0.3019(3)
H9 H 0.8537 0.7592 0.2796
H10 H 0.7471 0.7236 0.3168
C9 C 0.6732(12) 0.6569(8) 0.1938(3)
H11 H 0.7663 0.6979 0.1868
H12 H 0.6948 0.5785 0.21
C10 C 0.2436(10) 0.8506(16) 0.1938(4)
H13 H 0.274 0.7999 0.1693
H14 H 0.2784 0.9394 0.1896
O3 O 0.4077(5) 0.4416(4) 0.31459(13)
C11 C 0.3400(9) 0.8494(9) 0.4737(3)
H15 H 0.4005 0.8983 0.4914
C12 C 0.1891(10) 0.8612(9) 0.4768(3)
H16 H 0.1475 0.9174 0.4966
C13 C 0.602(2) 0.6190(19) 0.1552(6)
H17 H 0.5215 0.5614 0.1631
H18 H 0.557 0.6975 0.1437
C14 C 0.8934(15) 0.8720(15) 0.3333(5)
H19 H 0.9715 0.8144 0.3428
H20 H 0.9388 0.9445 0.3184
C15 C 0.674(2) 0.5591(16) 0.1222(5)
H21 H 0.6008 0.5342 0.1013
H22 H 0.7173 0.479 0.1329
C16 C 0.0021(13) 0.9520(16) 0.1825(9)
H23 H -0.101 0.9358 0.1866
H24 H 0.0211 0.9673 0.153
H25 H 0.0308 1.0275 0.1986
C17 C 0.0755(11) 0.8533(19) 0.1949(6)
H26 H 0.0418 0.7791 0.1784
H27 H 0.0466 0.8365 0.2239
C18 C 0.7862(17) 0.6298(15) 0.1008(5)
H28 H 0.8355 0.5729 0.0812
H29 H 0.8557 0.6625 0.1211
H30 H 0.7431 0.7017 0.0857
C19 C 0.8162(18) 0.9223(17) 0.3699(5)
H31 H 0.885 0.9645 0.3885
H32 H 0.7691 0.8515 0.3845
H33 H 0.7433 0.9844 0.3609
Sn1 Sn 0.54992(5) 0.78835(4) 0.233186(14)
Br1 Br 0.77466(10) 0.02017(9) 0.48925(3)
N1 N 0.5210(5) 0.5449(5) 0.40014(16)
C20 C 0.5248(7) 0.4296(6) 0.41506(19)
H34 H 0.4383 0.3811 0.4161
C21 C 0.6556(8) 0.2447(6) 0.4475(2)
H35 H 0.5672 0.1988 0.448
C22 C 0.3773(7) 0.5943(6) 0.3861(2)
H36 H 0.3091 0.5205 0.3835
C23 C 0.6611(7) 0.3708(6) 0.4306(2)
C24 C 0.3967(7) 0.6565(6) 0.3428(2)
H37 H 0.4709 0.7245 0.3448
H38 H 0.3049 0.6978 0.3346
C25 C 0.7828(8) 0.1884(7) 0.4635(2)
C26 C 0.7949(7) 0.4375(7) 0.4285(2)
C27 C 0.9207(8) 0.3768(9) 0.4444(3)
H39 H 1.0104 0.4206 0.4435
C28 C 0.9143(8) 0.2533(8) 0.4614(3)
H40 H 0.9995 0.2137 0.4714
O3C O 0.5923(5) 0.9416(4) 0.18541(13)
Sn1C Sn 0.45008(5) 0.28835(4) 0.266814(14)
loop_
_geom_bond_atom_site_label_1
_geom_bond_atom_site_label_2
_geom_bond_site_symmetry_1
_geom_bond_site_symmetry_2
O1 C1 1_555 1_555
C1 O3 1_555 1_555
O2 H1 1_555 1_555
C2 C3 1_555 1_555
C3 H2 1_555 1_555
C4 H3 1_555 1_555
H4 C4 1_555 1_555
C5 C2 1_555 1_555
H5 C5 1_555 1_555
C6 C3 1_555 1_555
H6 C6 1_555 1_555
C7 H7 1_555 1_555
H8 C7 1_555 1_555
C8 C7 1_555 1_555
H9 C8 1_555 1_555
H10 C8 1_555 1_555
C9 H11 1_555 1_555
H12 C9 1_555 1_555
C10 C4 1_555 1_555
H13 C10 1_555 1_555
H14 C10 1_555 1_555
O3 Sn1C 1_555 1_555
C11 C5 1_555 1_555
H15 C11 1_555 1_555
C12 C6 1_555 1_555
H16 C12 1_555 1_555
C13 C9 1_555 1_555
H17 C13 1_555 1_555
H18 C13 1_555 1_555
C14 C8 1_555 1_555
H19 C14 1_555 1_555
H20 C14 1_555 1_555
C15 C13 1_555 1_555
H21 C15 1_555 1_555
H22 C15 1_555 1_555
C16 H23 1_555 1_555
H24 C16 1_555 1_555
H25 C16 1_555 1_555
C17 C10 1_555 1_555
H26 C17 1_555 1_555
H27 C17 1_555 1_555
C18 C15 1_555 1_555
H28 C18 1_555 1_555
H29 C18 1_555 1_555
H30 C18 1_555 1_555
C19 C14 1_555 1_555
H31 C19 1_555 1_555
H32 C19 1_555 1_555
H33 C19 1_555 1_555
Sn1 O1 1_555 1_555
Br1 C25 1_555 1_555
N1 C20 1_555 1_555
C20 H34 1_555 1_555
C21 H35 1_555 1_555
C22 C2 1_555 1_555
H36 C22 1_555 1_555
C23 C20 1_555 1_555
C24 C1 1_555 1_555
H37 C24 1_555 1_555
H38 C24 1_555 1_555
C25 C21 1_555 1_555
C26 O2 1_555 1_555
C27 C26 1_555 1_555
H39 C27 1_555 1_555
C28 C25 1_555 1_555
H40 C28 1_555 1_555
O3C Sn1 1_555 1_555
C4 Sn1 1_555 1_555
C7 Sn1 1_555 1_555
C9 Sn1 1_555 1_555
C11 C12 1_555 1_555
C16 C17 1_555 1_555
N1 C22 1_555 1_555
C21 C23 1_555 1_555
C22 C24 1_555 1_555
C23 C26 1_555 1_555
C27 C28 1_555 1_555

#END
