
#######################################################################
#
#                 Cambridge Crystallographic Data Centre
#                                CCDC 
#
#######################################################################
#
# If this CIF has been generated from an entry in the Cambridge 
# Structural Database, then it will include bibliographic, chemical, 
# crystal, experimental, refinement or atomic coordinate data resulting 
# from the CCDC's data processing and validation procedures.
#
#######################################################################

data_VOWKEX
_symmetry_cell_setting           triclinic
_symmetry_space_group_name_H-M   'P -1'
_symmetry_Int_Tables_number      2
_space_group_name_Hall           '-P 1'
loop_
_symmetry_equiv_pos_site_id
_symmetry_equiv_pos_as_xyz
1 x,y,z
2 -x,-y,-z
_cell_length_a                   5.218(3)
_cell_length_b                   8.395(5)
_cell_length_c                   9.112(5)
_cell_angle_alpha                108.77(4)
_cell_angle_beta                 98.86(4)
_cell_angle_gamma                106.56(4)
_cell_volume                     348.717
loop_
_atom_site_label
_atom_site_type_symbol
_atom_site_fract_x
_atom_site_fract_y
_atom_site_fract_z
Cu1 Cu 0.0000 0.0000 0.5000
Na1 Na 0.3127(2) -0.36306(15) 0.49329(14)
O1 O 0.4900(6) 0.2584(3) 0.9935(3)
O2 O 0.1453(4) -0.1241(2) 0.6188(2)
O3 O 0.3396(4) 0.2060(3) 0.6182(2)
O4 O 0.1386(5) -0.5256(3) 0.6800(3)
O5 O 0.2806(5) -0.6694(3) 0.3257(3)
C1 C 0.2688(7) 0.0910(5) 0.8969(4)
C2 C 0.3625(6) 0.0035(4) 0.7528(3)
C3 C 0.5231(6) 0.1678(4) 0.7215(3)
C4 C 0.6445(7) 0.3143(5) 0.8892(4)
H1 H 0.211(9) -0.458(6) 0.762(5)
H2 H 0.235(9) -0.618(6) 0.675(5)
H3 H 0.127(9) -0.739(5) 0.336(5)
H4 H 0.289(8) -0.689(5) 0.241(5)
H5 H 0.501(6) -0.053(4) 0.787(4)
H6 H 0.670(6) 0.143(4) 0.669(3)
H7 H 0.224(7) 0.022(5) 0.965(4)
H8 H 0.109(8) 0.117(5) 0.872(5)
H9 H 0.636(7) 0.428(5) 0.897(4)
H10 H 0.835(9) 0.331(5) 0.937(5)
O1A O -0.4900(6) -0.2584(3) 0.0065(3)
O2A O -0.1453(4) 0.1241(2) 0.3812(2)
O3A O -0.3396(4) -0.2060(3) 0.3818(2)
C1A C -0.2688(7) -0.0910(5) 0.1031(4)
C2A C -0.3625(6) -0.0035(4) 0.2472(3)
C3A C -0.5231(6) -0.1678(4) 0.2785(3)
C4A C -0.6445(7) -0.3143(5) 0.1108(4)
H5A H -0.501(6) 0.053(4) 0.213(4)
H6A H -0.670(6) -0.143(4) 0.331(3)
H7A H -0.224(7) -0.022(5) 0.035(4)
H8A H -0.109(8) -0.117(5) 0.128(5)
H9A H -0.636(7) -0.428(5) 0.103(4)
H10A H -0.835(9) -0.331(5) 0.063(5)
Na1A Na -0.3127(2) 0.36306(15) 0.50671(14)
O4A O -0.1386(5) -0.4744(3) 0.3200(3)
H1A H -0.211(9) -0.542(6) 0.238(5)
H2A H -0.235(9) -0.382(6) 0.325(5)
O5A O 0.7194(5) -0.3306(3) 0.6743(3)
H3A H 0.873(9) -0.261(5) 0.664(5)
H4A H 0.711(8) -0.311(5) 0.759(5)
O3A_2 O 0.6604(4) -0.2060(3) 0.3818(2)
Na1A_2 Na 0.6873(2) 0.36306(15) 0.50671(14)
Na1A_3 Na -0.3127(2) -0.63694(15) 0.50671(14)
Na1A_4 Na 0.6873(2) -0.63694(15) 0.50671(14)
Na1_2 Na -0.6873(2) -0.36306(15) 0.49329(14)
O3_2 O -0.6604(4) 0.2060(3) 0.6182(2)
O4_2 O 0.1386(5) 0.4744(3) 0.6800(3)
O4A_2 O -0.1386(5) 0.5256(3) 0.3200(3)
O5_2 O -0.7194(5) 0.3306(3) 0.3257(3)
O5A_2 O -0.2806(5) 0.6694(3) 0.6743(3)
H1_2 H 0.211(9) 0.542(6) 0.762(5)
H2_2 H 0.235(9) 0.382(6) 0.675(5)
H1A_2 H -0.211(9) 0.458(6) 0.238(5)
H2A_2 H -0.235(9) 0.618(6) 0.325(5)
H3_2 H -0.873(9) 0.261(5) 0.336(5)
H4_2 H -0.711(8) 0.311(5) 0.241(5)
H3A_2 H -0.127(9) 0.739(5) 0.664(5)
H4A_2 H -0.289(8) 0.689(5) 0.759(5)
loop_
_geom_bond_atom_site_label_1
_geom_bond_atom_site_label_2
_geom_bond_site_symmetry_1
_geom_bond_site_symmetry_2
Cu1 O2 1_555 1_555
Na1 O2 1_555 1_555
O1 C1 1_555 1_555
O2 C2 1_555 1_555
O3 Cu1 1_555 1_555
O4 Na1 1_555 1_555
O5 Na1 1_555 1_555
C1 C2 1_555 1_555
C2 C3 1_555 1_555
C3 O3 1_555 1_555
C4 O1 1_555 1_555
H1 O4 1_555 1_555
H2 O4 1_555 1_555
H3 O5 1_555 1_555
H4 O5 1_555 1_555
H5 C2 1_555 1_555
H6 C3 1_555 1_555
H7 C1 1_555 1_555
H8 C1 1_555 1_555
H9 C4 1_555 1_555
H10 C4 1_555 1_555
O1A C1A 1_555 1_555
O2A Cu1 1_555 1_555
O3A Cu1 1_555 1_555
C1A C2A 1_555 1_555
C2A O2A 1_555 1_555
C3A O3A 1_555 1_555
C4A O1A 1_555 1_555
H5A C2A 1_555 1_555
H6A C3A 1_555 1_555
H7A C1A 1_555 1_555
H8A C1A 1_555 1_555
H9A C4A 1_555 1_555
H10A C4A 1_555 1_555
Na1A O2A 1_555 1_555
O4A Na1 1_555 1_555
H1A O4A 1_555 1_555
H2A O4A 1_555 1_555
O5A Na1 1_555 1_555
H3A O5A 1_555 1_555
H4A O5A 1_555 1_555
O3A_2 Na1 1_555 1_555
Na1A_2 O3 1_555 1_555
Na1A_3 O4 1_555 1_555
Na1A_4 O5 1_555 1_555
Na1_2 O3A 1_555 1_555
O3_2 Na1A 1_555 1_555
O4_2 Na1A 1_555 1_555
O4A_2 Na1A 1_555 1_555
O5_2 Na1A 1_555 1_555
O5A_2 Na1A 1_555 1_555
H1_2 O4_2 1_555 1_555
H2_2 O4_2 1_555 1_555
H1A_2 O4A_2 1_555 1_555
H2A_2 O4A_2 1_555 1_555
H3_2 O5_2 1_555 1_555
H4_2 O5_2 1_555 1_555
H3A_2 O5A_2 1_555 1_555
H4A_2 O5A_2 1_555 1_555
C3 C4 1_555 1_555
C2A C3A 1_555 1_555
C3A C4A 1_555 1_555
O4A Na1A_3 1_555 1_555
O5A Na1A_4 1_555 1_555

#END
