
#######################################################################
#
#                 Cambridge Crystallographic Data Centre
#                                CCDC 
#
#######################################################################
#
# If this CIF has been generated from an entry in the Cambridge 
# Structural Database, then it will include bibliographic, chemical, 
# crystal, experimental, refinement or atomic coordinate data resulting 
# from the CCDC's data processing and validation procedures.
#
#######################################################################

data_VOWKOJ
_symmetry_cell_setting           monoclinic
_symmetry_space_group_name_H-M   'P 21/n'
_symmetry_Int_Tables_number      14
_space_group_name_Hall           '-P 2yn'
loop_
_symmetry_equiv_pos_site_id
_symmetry_equiv_pos_as_xyz
1 x,y,z
2 1/2-x,1/2+y,1/2-z
3 -x,-y,-z
4 1/2+x,1/2-y,1/2+z
_cell_length_a                   7.5999(8)
_cell_length_b                   13.0542(12)
_cell_length_c                   13.5600(13)
_cell_angle_alpha                90
_cell_angle_beta                 91.705(5)
_cell_angle_gamma                90
_cell_volume                     1344.7
loop_
_atom_site_label
_atom_site_type_symbol
_atom_site_fract_x
_atom_site_fract_y
_atom_site_fract_z
Hg1 Hg 0.20318(11) 0.17018(6) 0.70506(5)
Cl1 Cl 0.4972(7) 0.1809(4) 0.7873(4)
Cl2 Cl -0.0297(8) 0.2972(4) 0.7419(4)
N1 N 0.208(2) 0.0247(11) 0.5837(11)
C1 C 0.252(3) 0.0553(16) 0.4926(15)
C2 C 0.289(3) -0.0148(15) 0.4186(15)
H1 H 0.3217 0.0090 0.3555
C3 C 0.278(3) -0.1184(16) 0.4363(15)
H2 H 0.3051 -0.1674 0.3872
C4 C 0.227(3) -0.1474(16) 0.5282(16)
H3 H 0.2115 -0.2182 0.5419
C5 C 0.198(3) -0.0774(16) 0.6006(15)
H4 H 0.1704 -0.1008 0.6646
C6 C 0.263(3) 0.1668(16) 0.4725(14)
H5 H 0.2953 0.1912 0.4096
N2 N 0.227(2) 0.2304(12) 0.5431(11)
C7 C 0.208(3) 0.3386(14) 0.5191(14)
H6 H 0.0885 0.3621 0.5347
H7 H 0.2251 0.3490 0.4477
C8 C 0.520(3) 0.3843(17) 0.5734(15)
H8 H 0.5616 0.3291 0.5346
C9 C 0.344(3) 0.4007(15) 0.5781(14)
C10 C 0.290(3) 0.4804(16) 0.6364(14)
H9 H 0.1679 0.4930 0.6416
N3 N 0.408(3) 0.5430(14) 0.6880(12)
C11 C 0.579(3) 0.5266(15) 0.6799(14)
H10 H 0.6601 0.5708 0.7130
C12 C 0.641(3) 0.4456(15) 0.6234(16)
H11 H 0.7641 0.4330 0.6196
Hg1A Hg 0.29682(11) 0.67018(6) 0.79494(5)
N3A N 0.092(3) 0.0430(14) 0.8120(12)
loop_
_geom_bond_atom_site_label_1
_geom_bond_atom_site_label_2
_geom_bond_site_symmetry_1
_geom_bond_site_symmetry_2
Hg1 Cl1 1_555 1_555
Cl2 Hg1 1_555 1_555
N1 Hg1 1_555 1_555
C1 N1 1_555 1_555
C2 C1 1_555 1_555
H1 C2 1_555 1_555
C3 C2 1_555 1_555
H2 C3 1_555 1_555
C4 C3 1_555 1_555
H3 C4 1_555 1_555
C5 N1 1_555 1_555
H4 C5 1_555 1_555
C6 C1 1_555 1_555
H5 C6 1_555 1_555
N2 Hg1 1_555 1_555
C7 N2 1_555 1_555
H6 C7 1_555 1_555
H7 C7 1_555 1_555
C8 H8 1_555 1_555
C9 C7 1_555 1_555
C10 C9 1_555 1_555
H9 C10 1_555 1_555
N3 C10 1_555 1_555
C11 N3 1_555 1_555
H10 C11 1_555 1_555
C12 C8 1_555 1_555
H11 C12 1_555 1_555
Hg1A N3 1_555 1_555
N3A Hg1 1_555 1_555
C4 C5 1_555 1_555
C6 N2 1_555 1_555
C8 C9 1_555 1_555
C11 C12 1_555 1_555

#END
