
#######################################################################
#
#                 Cambridge Crystallographic Data Centre
#                                CCDC 
#
#######################################################################
#
# If this CIF has been generated from an entry in the Cambridge 
# Structural Database, then it will include bibliographic, chemical, 
# crystal, experimental, refinement or atomic coordinate data resulting 
# from the CCDC's data processing and validation procedures.
#
#######################################################################

data_VOWYEN
_symmetry_cell_setting           monoclinic
_symmetry_space_group_name_H-M   'P 21/c'
_symmetry_Int_Tables_number      14
_space_group_name_Hall           '-P 2ybc'
loop_
_symmetry_equiv_pos_site_id
_symmetry_equiv_pos_as_xyz
1 x,y,z
2 -x,1/2+y,1/2-z
3 -x,-y,-z
4 x,1/2-y,1/2+z
_cell_length_a                   10.455(2)
_cell_length_b                   9.661(2)
_cell_length_c                   15.788(3)
_cell_angle_alpha                90
_cell_angle_beta                 105.612(2)
_cell_angle_gamma                90
_cell_volume                     1535.85
loop_
_atom_site_label
_atom_site_type_symbol
_atom_site_fract_x
_atom_site_fract_y
_atom_site_fract_z
C1 C 0.8053(4) 1.0140(3) 0.06854(19)
H1 H 0.8973 0.9975 0.0698
H2 H 0.7749 1.0952 0.0326
C2 C 0.7245(3) 0.8941(3) 0.03054(17)
H3 H 0.7410 0.8708 -0.0253
H4 H 0.6312 0.9172 0.0197
C3 C 0.6349(3) 0.6900(3) 0.08642(17)
H5 H 0.6127 0.6346 0.0332
H6 H 0.5609 0.7514 0.0849
C4 C 0.6586(3) 0.5970(3) 0.16555(18)
H7 H 0.5758 0.5547 0.1684
H8 H 0.7202 0.5239 0.1613
C5 C 0.8673(3) 0.6870(3) 0.07571(16)
H9 H 0.9025 0.6301 0.1273
H10 H 0.9376 0.7488 0.0700
C6 C 0.8302(2) 0.5936(3) -0.00447(15)
C7 C 0.7901(3) 0.4575(3) 0.00233(18)
H11 H 0.7911 0.4207 0.0569
C8 C 0.7489(4) 0.3780(3) -0.07223(19)
H12 H 0.7193 0.2879 -0.0688
C9 C 0.7520(3) 0.4329(3) -0.15188(17)
H13 H 0.7234 0.3785 -0.2020
C10 C 0.8335(3) 0.6388(3) -0.08679(16)
H14 H 0.8647 0.7278 -0.0918
N1 N 0.7949(2) 1.0383(2) 0.15759(13)
H15 H 0.7188 1.0834 0.1556
H16 H 0.8632 1.0910 0.1873
N2 N 0.7558(2) 0.7725(2) 0.09054(12)
N3 N 0.7144(2) 0.6807(2) 0.24564(14)
H17 H 0.7758 0.6304 0.2843
H18 H 0.6492 0.7015 0.2709
N4 N 0.7945(2) 0.5618(2) -0.16030(12)
Cl1 Cl 1.04062(6) 0.82007(7) 0.27288(4)
Cu1 Cu 0.79760(3) 0.85611(3) 0.218805(17)
N4C N 0.7945(2) 0.9382(2) 0.33970(12)
Cu1C Cu 0.79760(3) 0.64389(3) -0.281195(17)
O1 O 0.8486(3) 0.4611(3) 0.37177(18)
H19 H 0.871(4) 0.419(4) 0.339(3)
H20 H 0.767(5) 0.434(5) 0.360(3)
O2 O 0.4336(3) 0.9149(3) 0.16250(19)
H21 H 0.472(4) 0.989(5) 0.171(2)
H22 H 0.450(4) 0.885(4) 0.209(3)
Cl2 Cl 0.47219(7) 0.73394(8) 0.33867(5)
loop_
_geom_bond_atom_site_label_1
_geom_bond_atom_site_label_2
_geom_bond_site_symmetry_1
_geom_bond_site_symmetry_2
C1 H1 1_555 1_555
H2 C1 1_555 1_555
C2 C1 1_555 1_555
H3 C2 1_555 1_555
H4 C2 1_555 1_555
C3 H5 1_555 1_555
H6 C3 1_555 1_555
C4 C3 1_555 1_555
H7 C4 1_555 1_555
H8 C4 1_555 1_555
C5 H9 1_555 1_555
H10 C5 1_555 1_555
C6 C5 1_555 1_555
C7 C6 1_555 1_555
H11 C7 1_555 1_555
C8 C7 1_555 1_555
H12 C8 1_555 1_555
C9 C8 1_555 1_555
H13 C9 1_555 1_555
C10 C6 1_555 1_555
H14 C10 1_555 1_555
N1 C1 1_555 1_555
H15 N1 1_555 1_555
H16 N1 1_555 1_555
N2 C2 1_555 1_555
N3 C4 1_555 1_555
H17 N3 1_555 1_555
H18 N3 1_555 1_555
N4 C9 1_555 1_555
Cl1 Cu1 1_555 1_555
Cu1 N1 1_555 1_555
O1 H19 1_555 1_555
H20 O1 1_555 1_555
O2 H21 1_555 1_555
H22 O2 1_555 1_555
N4C Cu1 1_555 1_555
Cu1C N4 1_555 1_555
C3 N2 1_555 1_555
C5 N2 1_555 1_555
C10 N4 1_555 1_555
N2 Cu1 1_555 1_555
N3 Cu1 1_555 1_555

#END
