
#######################################################################
#
#                 Cambridge Crystallographic Data Centre
#                                CCDC 
#
#######################################################################
#
# If this CIF has been generated from an entry in the Cambridge 
# Structural Database, then it will include bibliographic, chemical, 
# crystal, experimental, refinement or atomic coordinate data resulting 
# from the CCDC's data processing and validation procedures.
#
#######################################################################

data_VOXFEV
_symmetry_cell_setting           triclinic
_symmetry_space_group_name_H-M   'P -1'
_symmetry_Int_Tables_number      2
_space_group_name_Hall           '-P 1'
loop_
_symmetry_equiv_pos_site_id
_symmetry_equiv_pos_as_xyz
1 x,y,z
2 -x,-y,-z
_cell_length_a                   9.493(10)
_cell_length_b                   10.443(11)
_cell_length_c                   12.174(13)
_cell_angle_alpha                80.943(10)
_cell_angle_beta                 68.126(11)
_cell_angle_gamma                66.930(10)
_cell_volume                     1030.32
loop_
_atom_site_label
_atom_site_type_symbol
_atom_site_fract_x
_atom_site_fract_y
_atom_site_fract_z
O1 O 1.4124(3) 0.1339(2) 0.4519(2)
O2 O 1.5442(3) 0.2741(2) 0.4287(3)
Ce1 Ce 0.720598(19) 1.042709(15) 0.481448(14)
C1 C 0.3962(5) 1.0959(5) 0.9462(4)
H1 H 0.3253 1.1599 0.9103
C2 C 0.6558(5) 0.9200(5) 0.9317(3)
H2 H 0.7604 0.8651 0.8862
C3 C 0.5528(4) 1.0173(4) 0.8768(3)
C4 C 0.6099(4) 1.0333(3) 0.7445(3)
C5 C 1.1141(4) 0.7643(3) 0.4318(3)
C6 C 1.1440(4) 0.6210(3) 0.3991(3)
C7 C 1.2685(4) 0.5080(3) 0.4226(3)
H3 H 1.3363 0.5218 0.4546
C8 C 1.4243(4) 0.2532(3) 0.4276(3)
C9 C 1.2917(4) 0.3738(3) 0.3981(3)
C10 C 1.1925(4) 0.3540(3) 0.3476(3)
H4 H 1.2070 0.2646 0.3317
C11 C 1.0447(4) 0.6023(3) 0.3478(3)
H5 H 0.9616 0.6783 0.3318
C12 C 1.0714(4) 0.4685(3) 0.3207(3)
C13 C 0.8570(5) 0.5527(4) 0.2393(4)
H6 H 0.9051 0.6155 0.1858
H7 H 0.7747 0.6039 0.3092
C14 C 0.7816(5) 0.4950(4) 0.1797(3)
C15 C 0.8768(6) 0.3942(5) 0.0942(4)
H8 H 0.9894 0.3632 0.0740
C16 C 0.6541(7) 0.3865(6) 0.0693(5)
H9 H 0.6097 0.3484 0.0326
C17 C 0.5495(6) 0.4880(6) 0.1510(4)
H10 H 0.4376 0.5191 0.1677
C18 C 0.6137(5) 0.5434(5) 0.2082(4)
H11 H 0.5456 0.6119 0.2648
N1 N 0.8168(5) 0.3385(4) 0.0387(4)
O3 O 0.5085(3) 1.1101(2) 0.6951(2)
O4 O 0.7571(3) 0.9675(2) 0.6850(2)
O5 O 0.9275(3) 1.1264(3) 0.3032(3)
O6 O 0.7492(3) 0.9502(4) 0.2930(2)
O7 O 0.9807(3) 0.8596(2) 0.4365(2)
O8 O 1.2250(4) 0.7795(2) 0.4530(3)
O9 O 0.9794(3) 0.4380(2) 0.2714(3)
C1A C 0.6038(5) 0.9041(5) 1.0538(4)
H1A H 0.6747 0.8401 1.0897
C2A C 0.3442(5) 1.0800(5) 1.0683(3)
H2A H 0.2396 1.1349 1.1138
C3A C 0.4472(4) 0.9827(4) 1.1232(3)
C4A C 0.3901(4) 0.9667(3) 1.2555(3)
O3A O 0.4915(3) 0.8899(2) 1.3049(2)
O4A O 0.2429(3) 1.0325(2) 1.3150(2)
O1A O -0.4124(3) 1.8661(2) 1.5481(2)
O2A O -0.5442(3) 1.7259(2) 1.5713(3)
Ce1A Ce 0.279402(19) 0.957291(15) 1.518552(14)
C5A C -0.1141(4) 1.2357(3) 1.5682(3)
C6A C -0.1440(4) 1.3790(3) 1.6009(3)
C7A C -0.2685(4) 1.4920(3) 1.5774(3)
H3A H -0.3363 1.4782 1.5454
C8A C -0.4243(4) 1.7468(3) 1.5724(3)
C9A C -0.2917(4) 1.6262(3) 1.6019(3)
C10A C -0.1925(4) 1.6460(3) 1.6524(3)
H4A H -0.2070 1.7354 1.6683
C11A C -0.0447(4) 1.3977(3) 1.6522(3)
H5A H 0.0384 1.3217 1.6682
C12A C -0.0714(4) 1.5315(3) 1.6793(3)
C13A C 0.1430(5) 1.4473(4) 1.7607(4)
H6A H 0.0949 1.3845 1.8142
H7A H 0.2253 1.3961 1.6908
C14A C 0.2184(5) 1.5050(4) 1.8203(3)
C15A C 0.1232(6) 1.6058(5) 1.9058(4)
H8A H 0.0106 1.6368 1.9260
C16A C 0.3459(7) 1.6135(6) 1.9307(5)
H9A H 0.3903 1.6516 1.9674
C17A C 0.4505(6) 1.5120(6) 1.8490(4)
H10A H 0.5624 1.4809 1.8323
C18A C 0.3863(5) 1.4566(5) 1.7918(4)
H11A H 0.4544 1.3881 1.7352
N1A N 0.1832(5) 1.6615(4) 1.9613(4)
O5A O 0.0725(3) 0.8736(3) 1.6968(3)
O6A O 0.2508(3) 1.0498(4) 1.7070(2)
O7A O 0.0193(3) 1.1404(2) 1.5635(2)
O8A O -0.2250(4) 1.2205(2) 1.5470(3)
O9A O 0.0206(3) 1.5620(2) 1.7286(3)
O1_2 O 0.4124(3) 1.1339(2) 0.4519(2)
O1_3 O 0.4124(3) 1.1339(2) 1.4519(2)
O1A_2 O 0.5876(3) 0.8661(2) 0.5481(2)
O1A_3 O 0.5876(3) 0.8661(2) 1.5481(2)
O2_2 O 0.5442(3) 1.2741(2) 0.4287(3)
O2A_2 O 0.4558(3) 0.7259(2) 1.5713(3)
Ce1_2 Ce -0.279402(19) 1.042709(15) 1.481448(14)
Ce1_3 Ce -0.279402(19) 2.042709(15) 1.481448(14)
Ce1_4 Ce 1.720598(19) 0.042709(15) 0.481448(14)
Ce1A_2 Ce -0.720598(19) 1.957291(15) 1.518552(14)
Ce1A_3 Ce 1.279402(19) -0.042709(15) 0.518552(14)
Ce1A_4 Ce 1.279402(19) 0.957291(15) 0.518552(14)
O8_2 O 0.2250(4) 0.7795(2) 1.4530(3)
O8A_2 O 0.7750(4) 1.2205(2) 0.5470(3)
O10 O 0.0164(6) 0.8993(5) 0.0955(4)
loop_
_geom_bond_atom_site_label_1
_geom_bond_atom_site_label_2
_geom_bond_site_symmetry_1
_geom_bond_site_symmetry_2
O1 C8 1_555 1_555
O2 C8 1_555 1_555
Ce1 O3 1_555 1_555
C1 H1 1_555 1_555
C2 H2 1_555 1_555
C3 C1 1_555 1_555
C4 C3 1_555 1_555
C5 C6 1_555 1_555
C6 C7 1_555 1_555
C7 H3 1_555 1_555
C8 C9 1_555 1_555
C9 C7 1_555 1_555
C10 C9 1_555 1_555
H4 C10 1_555 1_555
C11 C6 1_555 1_555
H5 C11 1_555 1_555
C12 C10 1_555 1_555
C13 H6 1_555 1_555
H7 C13 1_555 1_555
C14 C13 1_555 1_555
C15 C14 1_555 1_555
H8 C15 1_555 1_555
C16 H9 1_555 1_555
C17 C16 1_555 1_555
H10 C17 1_555 1_555
C18 C14 1_555 1_555
H11 C18 1_555 1_555
N1 C15 1_555 1_555
O3 C4 1_555 1_555
O4 Ce1 1_555 1_555
O5 Ce1 1_555 1_555
O6 Ce1 1_555 1_555
O7 Ce1 1_555 1_555
O8 C5 1_555 1_555
O9 C12 1_555 1_555
C1A C2 1_555 1_555
H1A C1A 1_555 1_555
C2A C1 1_555 1_555
H2A C2A 1_555 1_555
C3A C1A 1_555 1_555
C4A C3A 1_555 1_555
O3A C4A 1_555 1_555
O4A C4A 1_555 1_555
O1A C8A 1_555 1_555
O2A C8A 1_555 1_555
Ce1A O3A 1_555 1_555
C5A C6A 1_555 1_555
C6A C7A 1_555 1_555
C7A H3A 1_555 1_555
C8A C9A 1_555 1_555
C9A C7A 1_555 1_555
C10A C9A 1_555 1_555
H4A C10A 1_555 1_555
C11A C6A 1_555 1_555
H5A C11A 1_555 1_555
C12A C10A 1_555 1_555
C13A H6A 1_555 1_555
H7A C13A 1_555 1_555
C14A C13A 1_555 1_555
C15A C14A 1_555 1_555
H8A C15A 1_555 1_555
C16A H9A 1_555 1_555
C17A C16A 1_555 1_555
H10A C17A 1_555 1_555
C18A C14A 1_555 1_555
H11A C18A 1_555 1_555
N1A C15A 1_555 1_555
O5A Ce1A 1_555 1_555
O6A Ce1A 1_555 1_555
O7A Ce1A 1_555 1_555
O8A C5A 1_555 1_555
O9A C12A 1_555 1_555
O1_2 Ce1 1_555 1_555
O1_3 Ce1A 1_555 1_555
O1A_2 Ce1 1_555 1_555
O1A_3 Ce1A 1_555 1_555
O2_2 Ce1 1_555 1_555
O2A_2 Ce1A 1_555 1_555
Ce1_2 O8A 1_555 1_555
Ce1_3 O1A 1_555 1_555
Ce1_4 O1 1_555 1_555
Ce1A_2 O1A 1_555 1_555
Ce1A_3 O1 1_555 1_555
Ce1A_4 O8 1_555 1_555
O8_2 Ce1A 1_555 1_555
O8A_2 Ce1 1_555 1_555
O2 Ce1_4 1_555 1_555
C2 C3 1_555 1_555
C4 O4 1_555 1_555
C5 O7 1_555 1_555
C11 C12 1_555 1_555
C13 O9 1_555 1_555
C16 N1 1_555 1_555
C17 C18 1_555 1_555
C2A C3A 1_555 1_555
O4A Ce1A 1_555 1_555
O2A Ce1A_2 1_555 1_555
C5A O7A 1_555 1_555
C11A C12A 1_555 1_555
C13A O9A 1_555 1_555
C16A N1A 1_555 1_555
C17A C18A 1_555 1_555

#END
