
#######################################################################
#
#                 Cambridge Crystallographic Data Centre
#                                CCDC 
#
#######################################################################
#
# If this CIF has been generated from an entry in the Cambridge 
# Structural Database, then it will include bibliographic, chemical, 
# crystal, experimental, refinement or atomic coordinate data resulting 
# from the CCDC's data processing and validation procedures.
#
#######################################################################

data_VOXFUL
_symmetry_cell_setting           triclinic
_symmetry_space_group_name_H-M   'P -1'
_symmetry_Int_Tables_number      2
_space_group_name_Hall           '-P 1'
loop_
_symmetry_equiv_pos_site_id
_symmetry_equiv_pos_as_xyz
1 x,y,z
2 -x,-y,-z
_cell_length_a                   9.4237(14)
_cell_length_b                   10.3977(15)
_cell_length_c                   12.1034(18)
_cell_angle_alpha                80.965(2)
_cell_angle_beta                 67.772(2)
_cell_angle_gamma                66.2400(10)
_cell_volume                     1004.75
loop_
_atom_site_label
_atom_site_type_symbol
_atom_site_fract_x
_atom_site_fract_y
_atom_site_fract_z
O1 O 0.5405(4) -0.2351(4) 0.9356(4)
O2 O 0.4016(4) -0.3676(3) 0.9551(3)
Sm1 Sm 0.27829(3) 0.45761(2) 1.01527(2)
C1 C -0.3431(10) -0.1157(8) 0.5674(7)
H1 H -0.3847 -0.1561 0.5299
C2 C -0.1819(7) -0.1604(6) 0.5383(5)
H2 H -0.1111 -0.2294 0.4807
C3 C -0.3914(7) 0.0470(7) 0.7079(5)
H3 H -0.4619 0.1174 0.7643
C4 C -0.1234(8) -0.1038(7) 0.5938(6)
H4 H -0.0093 -0.1354 0.5738
C5 C -0.2222(7) -0.0009(6) 0.6794(5)
C6 C -0.1462(7) 0.0586(6) 0.7373(5)
H5 H -0.0965 0.1198 0.6820
H6 H -0.2298 0.1127 0.8073
C7 C 0.0681(6) -0.0268(5) 0.8205(4)
C8 C 0.1887(6) -0.1441(5) 0.8490(4)
H7 H 0.2017 -0.2339 0.8339
C9 C 0.4180(6) -0.2506(5) 0.9318(4)
C10 C 0.2887(5) -0.1268(4) 0.8996(4)
C11 C 0.2681(5) 0.0076(5) 0.9236(4)
H8 H 0.3364 0.0196 0.9567
C12 C 0.0449(6) 0.1065(5) 0.8459(4)
H9 H -0.0373 0.1844 0.8285
C13 C 0.1444(5) 0.1239(4) 0.8976(4)
C14 C 0.1163(6) 0.2679(4) 0.9303(4)
C15 C 0.3895(6) 0.4682(5) 0.7566(4)
C16 C 0.4468(6) 0.4831(6) 0.6242(4)
C17 C 0.3396(7) 0.5764(7) 0.5684(5)
H10 H 0.2315 0.6292 0.6143
C18 C 0.6082(7) 0.4084(7) 0.5550(5)
H11 H 0.6823 0.3477 0.5910
N1 N -0.4553(9) -0.0112(8) 0.6513(7)
O3 O 0.2394(4) 0.5346(3) 0.8173(3)
O4 O 0.4913(4) 0.3924(4) 0.8065(3)
O5 O 0.2550(5) 0.5413(5) 1.2005(3)
O6 O 0.0812(5) 0.3712(4) 1.1909(4)
O7 O 0.2305(4) 0.2812(4) 0.9494(4)
O8 O -0.0194(4) 0.3651(3) 0.9367(3)
O9 O -0.0237(5) -0.0571(4) 0.7703(4)
C15A C 0.6105(6) 0.5318(5) 0.2434(4)
C16A C 0.5532(6) 0.5169(6) 0.3758(4)
C17A C 0.6604(7) 0.4236(7) 0.4316(5)
H10A H 0.7685 0.3708 0.3857
C18A C 0.3918(7) 0.5916(7) 0.4450(5)
H11A H 0.3177 0.6523 0.4090
O3A O 0.7606(4) 0.4654(3) 0.1827(3)
O4A O 0.5087(4) 0.6076(4) 0.1935(3)
O1A O -0.5405(4) 1.2351(4) 1.0644(4)
O2A O -0.4016(4) 1.3676(3) 1.0449(3)
Sm1A Sm -0.27829(3) 0.54239(2) 0.98473(2)
C1A C 0.3431(10) 1.1157(8) 1.4326(7)
H1A H 0.3847 1.1561 1.4701
C2A C 0.1819(7) 1.1604(6) 1.4617(5)
H2A H 0.1111 1.2294 1.5193
C3A C 0.3914(7) 0.9530(7) 1.2921(5)
H3A H 0.4619 0.8826 1.2357
C4A C 0.1234(8) 1.1038(7) 1.4062(6)
H4A H 0.0093 1.1354 1.4262
C5A C 0.2222(7) 1.0009(6) 1.3206(5)
C6A C 0.1462(7) 0.9414(6) 1.2627(5)
H5A H 0.0965 0.8802 1.3180
H6A H 0.2298 0.8873 1.1927
C7A C -0.0681(6) 1.0268(5) 1.1795(4)
C8A C -0.1887(6) 1.1441(5) 1.1510(4)
H7A H -0.2017 1.2339 1.1661
C9A C -0.4180(6) 1.2506(5) 1.0682(4)
C10A C -0.2887(5) 1.1268(4) 1.1004(4)
C11A C -0.2681(5) 0.9924(5) 1.0764(4)
H8A H -0.3364 0.9804 1.0433
C12A C -0.0449(6) 0.8935(5) 1.1541(4)
H9A H 0.0373 0.8156 1.1715
C13A C -0.1444(5) 0.8761(4) 1.1024(4)
C14A C -0.1163(6) 0.7321(4) 1.0697(4)
N1A N 0.4553(9) 1.0112(8) 1.3487(7)
O5A O -0.2550(5) 0.4587(5) 0.7995(3)
O6A O -0.0812(5) 0.6288(4) 0.8091(4)
O7A O -0.2305(4) 0.7188(4) 1.0506(4)
O8A O 0.0194(4) 0.6349(3) 1.0633(3)
O9A O 0.0237(5) 1.0571(4) 1.2297(4)
O1_2 O -0.4595(4) 0.7649(4) 0.9356(4)
O1A_2 O 0.4595(4) 0.2351(4) 1.0644(4)
O2_2 O -0.5984(4) 0.6324(3) 0.9551(3)
O2_3 O 0.4016(4) 0.6324(3) 0.9551(3)
O2A_2 O -0.4016(4) 0.3676(3) 1.0449(3)
O2A_3 O 0.5984(4) 0.3676(3) 1.0449(3)
Sm1_2 Sm -0.72171(3) 1.45761(2) 1.01527(2)
Sm1_3 Sm 0.27829(3) -0.54239(2) 1.01527(2)
Sm1A_2 Sm -0.27829(3) 1.54239(2) 0.98473(2)
Sm1A_3 Sm 0.72171(3) -0.45761(2) 0.98473(2)
Sm1A_4 Sm 0.72171(3) 0.54239(2) -0.01527(2)
O3A_2 O -0.2394(4) 0.4654(3) 1.1827(3)
O4A_2 O -0.4913(4) 0.6076(4) 1.1935(3)
O10 O 1.0126(8) 0.4022(7) 0.5977(6)
loop_
_geom_bond_atom_site_label_1
_geom_bond_atom_site_label_2
_geom_bond_site_symmetry_1
_geom_bond_site_symmetry_2
O1 C9 1_555 1_555
O2 C9 1_555 1_555
Sm1 O3 1_555 1_555
C1 H1 1_555 1_555
C2 C1 1_555 1_555
H2 C2 1_555 1_555
C3 H3 1_555 1_555
C4 C2 1_555 1_555
H4 C4 1_555 1_555
C5 C3 1_555 1_555
C6 C5 1_555 1_555
H5 C6 1_555 1_555
H6 C6 1_555 1_555
C7 C8 1_555 1_555
C8 H7 1_555 1_555
C9 C10 1_555 1_555
C10 C8 1_555 1_555
C11 C10 1_555 1_555
H8 C11 1_555 1_555
C12 C7 1_555 1_555
H9 C12 1_555 1_555
C13 C11 1_555 1_555
C14 C13 1_555 1_555
C15 C16 1_555 1_555
C16 C17 1_555 1_555
C17 H10 1_555 1_555
C18 C16 1_555 1_555
H11 C18 1_555 1_555
N1 C1 1_555 1_555
O3 C15 1_555 1_555
O4 Sm1 1_555 1_555
O5 Sm1 1_555 1_555
O6 Sm1 1_555 1_555
O7 Sm1 1_555 1_555
O8 C14 1_555 1_555
O9 C6 1_555 1_555
C15A C16A 1_555 1_555
C16A C17A 1_555 1_555
C17A C18 1_555 1_555
H10A C17A 1_555 1_555
C18A C17 1_555 1_555
H11A C18A 1_555 1_555
O3A C15A 1_555 1_555
O4A C15A 1_555 1_555
O1A C9A 1_555 1_555
O2A C9A 1_555 1_555
Sm1A O8 1_555 1_555
C1A H1A 1_555 1_555
C2A C1A 1_555 1_555
H2A C2A 1_555 1_555
C3A H3A 1_555 1_555
C4A C2A 1_555 1_555
H4A C4A 1_555 1_555
C5A C3A 1_555 1_555
C6A C5A 1_555 1_555
H5A C6A 1_555 1_555
H6A C6A 1_555 1_555
C7A C8A 1_555 1_555
C8A H7A 1_555 1_555
C9A C10A 1_555 1_555
C10A C8A 1_555 1_555
C11A C10A 1_555 1_555
H8A C11A 1_555 1_555
C12A C7A 1_555 1_555
H9A C12A 1_555 1_555
C13A C11A 1_555 1_555
C14A C13A 1_555 1_555
N1A C1A 1_555 1_555
O5A Sm1A 1_555 1_555
O6A Sm1A 1_555 1_555
O7A Sm1A 1_555 1_555
O8A Sm1 1_555 1_555
O9A C6A 1_555 1_555
O1_2 Sm1A 1_555 1_555
O1A_2 Sm1 1_555 1_555
O2_2 Sm1A 1_555 1_555
O2_3 Sm1 1_555 1_555
O2A_2 Sm1A 1_555 1_555
O2A_3 Sm1 1_555 1_555
Sm1_2 O1A 1_555 1_555
Sm1_3 O2 1_555 1_555
Sm1A_2 O2A 1_555 1_555
Sm1A_3 O1 1_555 1_555
Sm1A_4 O3A 1_555 1_555
O3A_2 Sm1A 1_555 1_555
O4A_2 Sm1A 1_555 1_555
O2 Sm1A_3 1_555 1_555
C3 N1 1_555 1_555
C4 C5 1_555 1_555
C7 O9 1_555 1_555
C12 C13 1_555 1_555
C14 O7 1_555 1_555
C15 O4 1_555 1_555
C16A C18A 1_555 1_555
O4A Sm1A_4 1_555 1_555
O2A Sm1_2 1_555 1_555
C3A N1A 1_555 1_555
C4A C5A 1_555 1_555
C7A O9A 1_555 1_555
C12A C13A 1_555 1_555
C14A O7A 1_555 1_555
C14A O8A 1_555 1_555

#END
