
#######################################################################
#
#                 Cambridge Crystallographic Data Centre
#                                CCDC 
#
#######################################################################
#
# If this CIF has been generated from an entry in the Cambridge 
# Structural Database, then it will include bibliographic, chemical, 
# crystal, experimental, refinement or atomic coordinate data resulting 
# from the CCDC's data processing and validation procedures.
#
#######################################################################

data_VOXGAS
_symmetry_cell_setting           triclinic
_symmetry_space_group_name_H-M   'P -1'
_symmetry_Int_Tables_number      2
_space_group_name_Hall           '-P 1'
loop_
_symmetry_equiv_pos_site_id
_symmetry_equiv_pos_as_xyz
1 x,y,z
2 -x,-y,-z
_cell_length_a                   9.4326(5)
_cell_length_b                   10.3951(6)
_cell_length_c                   12.0781(7)
_cell_angle_alpha                81.1810(10)
_cell_angle_beta                 67.8250(10)
_cell_angle_gamma                66.0100(10)
_cell_volume                     1001.96
loop_
_atom_site_label
_atom_site_type_symbol
_atom_site_fract_x
_atom_site_fract_y
_atom_site_fract_z
Eu1 Eu 0.723339(15) 0.042361(12) 0.985432(11)
O1 O 0.7428(3) -0.0400(3) 0.8015(2)
O2 O 0.5380(3) 0.2610(2) 0.9374(2)
O3 O 0.9167(3) 0.1285(3) 0.8096(2)
O4 O 0.5095(3) 0.1079(2) 1.19299(18)
O5 O 0.7626(3) -0.0330(2) 1.18270(18)
O6 O 0.6040(3) -0.1313(2) 1.0448(2)
O7 O 0.9825(3) -0.1343(2) 0.9364(2)
O8 O 0.7680(3) 0.2203(2) 1.0510(2)
C1 C 0.4151(4) 0.2471(3) 0.9326(3)
C2 C 0.6118(4) 0.0318(3) 1.2431(3)
C3 C 0.2875(3) 0.3725(3) 0.9001(3)
C4 C 0.5542(4) 0.0162(3) 1.3764(3)
C5 C 0.2683(3) 0.5070(3) 0.9231(3)
C6 C 0.1871(4) 0.3563(3) 0.8485(3)
C7 C 0.3921(5) 0.0907(5) 1.4451(3)
C8 C 0.6617(5) -0.0753(5) 1.4316(3)
C9 C 0.1448(3) 0.6234(3) 0.8974(3)
H1 H 0.3374 0.5188 0.9554
C10 C 0.0669(4) 0.4736(3) 0.8201(3)
H2 H 0.2003 0.2665 0.8328
H3 H 0.3185 0.1516 1.4085
H4 H 0.7708 -0.1268 1.3858
C11 C 0.0439(4) 0.6078(3) 0.8457(3)
C12 C 0.1177(3) 0.7677(3) 0.9294(3)
O9 O -0.0253(3) 0.4442(2) 0.7703(3)
H5 H -0.0382 0.6863 0.8284
C13 C -0.1491(5) 0.5602(4) 0.7379(3)
C14 C -0.2232(4) 0.5006(4) 0.6780(3)
H6 H -0.1787 0.6550 0.7511
C15 C -0.1237(5) 0.3973(4) 0.5924(4)
C16 C -0.3928(5) 0.5472(4) 0.7084(3)
H7 H -0.0096 0.3667 0.5717
N1 N -0.1813(5) 0.3384(4) 0.5370(3)
C17 C -0.4549(5) 0.4886(6) 0.6515(4)
H8 H -0.4638 0.6168 0.7660
C18 C -0.3451(6) 0.3847(5) 0.5683(4)
H9 H -0.5684 0.5188 0.6692
H10 H -0.3878 0.3443 0.5315
C1A C 0.5849(4) -0.2471(3) 1.0674(3)
O6A O 0.3960(3) 0.1313(2) 0.9552(2)
C3A C 0.7125(3) -0.3725(3) 1.0999(3)
O2A O 0.4620(3) -0.2610(2) 1.0626(2)
Eu1A Eu 0.276661(15) -0.042361(12) 1.014568(11)
C5A C 0.7317(3) -0.5070(3) 1.0769(3)
C6A C 0.8129(4) -0.3563(3) 1.1515(3)
O1A O 0.2572(3) 0.0400(3) 1.1985(2)
O3A O 0.0833(3) -0.1285(3) 1.1904(2)
O7A O 0.0175(3) 0.1343(2) 1.0636(2)
O8A O 0.2320(3) -0.2203(2) 0.9490(2)
O4A O 0.4905(3) -0.1079(2) 0.80701(18)
O5A O 0.2374(3) 0.0330(2) 0.81730(18)
C8A C 0.3383(5) 0.0753(5) 1.5684(3)
C7A C 0.6079(5) -0.0907(5) 1.5549(3)
C9A C 0.8552(3) -0.6234(3) 1.1026(3)
H1A H 0.6626 -0.5188 1.0446
C10A C 0.9331(4) -0.4736(3) 1.1799(3)
H2A H 0.7997 -0.2665 1.1672
C4A C 0.4458(4) -0.0162(3) 1.6236(3)
H4A H 0.2292 0.1268 1.6142
H3A H 0.6815 -0.1516 1.5915
C11A C 0.9561(4) -0.6078(3) 1.1543(3)
C12A C 0.8823(3) -0.7677(3) 1.0706(3)
O9A O 1.0253(3) -0.4442(2) 1.2297(3)
O7_2 O -0.0175(3) 0.8657(2) 0.9364(2)
O8A_2 O 0.2320(3) 0.7797(2) 0.9490(2)
C2A C 0.3882(4) -0.0318(3) 1.7569(3)
H5A H 1.0382 -0.6863 1.1716
O7A_2 O 1.0175(3) -0.8657(2) 1.0636(2)
O8_2 O 0.7680(3) -0.7797(2) 1.0510(2)
C13A C 1.1491(5) -0.5602(4) 1.2621(3)
Eu1_2 Eu -0.276661(15) 1.042361(12) 0.985432(11)
Eu1A_2 Eu 0.276661(15) 0.957639(12) 1.014568(11)
O4A_2 O 0.4905(3) -0.1079(2) 1.80701(18)
O5A_2 O 0.2374(3) 0.0330(2) 1.81730(18)
Eu1A_3 Eu 1.276661(15) -1.042361(12) 1.014568(11)
Eu1_3 Eu 0.723339(15) -0.957639(12) 0.985432(11)
C14A C 1.2232(4) -0.5006(4) 1.3220(3)
H6A H 1.1787 -0.6550 1.2489
Eu1A_4 Eu 0.276661(15) -0.042361(12) 2.014568(11)
C15A C 1.1237(5) -0.3973(4) 1.4076(4)
C16A C 1.3928(5) -0.5472(4) 1.2916(3)
H7A H 1.0096 -0.3667 1.4283
N1A N 1.1813(5) -0.3384(4) 1.4630(3)
C17A C 1.4549(5) -0.4886(6) 1.3485(4)
H8A H 1.4638 -0.6168 1.2340
C18A C 1.3451(6) -0.3847(5) 1.4317(4)
H9A H 1.5684 -0.5188 1.3308
H10A H 1.3878 -0.3443 1.4685
O10 O 0.9905(6) 0.0971(5) 0.4013(4)
loop_
_geom_bond_atom_site_label_1
_geom_bond_atom_site_label_2
_geom_bond_site_symmetry_1
_geom_bond_site_symmetry_2
Eu1 O1 1_555 1_555
O2 Eu1 1_555 1_555
O3 Eu1 1_555 1_555
O4 Eu1 1_555 1_555
O5 Eu1 1_555 1_555
O6 Eu1 1_555 1_555
O7 Eu1 1_555 1_555
O8 Eu1 1_555 1_555
C1 O2 1_555 1_555
C2 O4 1_555 1_555
C3 C1 1_555 1_555
C4 C2 1_555 1_555
C5 C3 1_555 1_555
C6 C3 1_555 1_555
C7 C4 1_555 1_555
C8 C4 1_555 1_555
C9 C5 1_555 1_555
H1 C5 1_555 1_555
C10 C6 1_555 1_555
H2 C6 1_555 1_555
H3 C7 1_555 1_555
H4 C8 1_555 1_555
C11 C9 1_555 1_555
C12 C9 1_555 1_555
O9 C10 1_555 1_555
H5 C11 1_555 1_555
C13 O9 1_555 1_555
C14 C13 1_555 1_555
H6 C13 1_555 1_555
C15 C14 1_555 1_555
C16 C14 1_555 1_555
H7 C15 1_555 1_555
N1 C15 1_555 1_555
C17 C16 1_555 1_555
H8 C16 1_555 1_555
C18 N1 1_555 1_555
H9 C17 1_555 1_555
H10 C18 1_555 1_555
C1A O6 1_555 1_555
O6A C1 1_555 1_555
C3A C1A 1_555 1_555
O2A C1A 1_555 1_555
Eu1A O6A 1_555 1_555
C5A C3A 1_555 1_555
C6A C3A 1_555 1_555
O1A Eu1A 1_555 1_555
O3A Eu1A 1_555 1_555
O7A Eu1A 1_555 1_555
O8A Eu1A 1_555 1_555
O4A Eu1A 1_555 1_555
O5A Eu1A 1_555 1_555
C8A C7 1_555 1_555
C7A C8 1_555 1_555
C9A C5A 1_555 1_555
H1A C5A 1_555 1_555
C10A C6A 1_555 1_555
H2A C6A 1_555 1_555
C4A C8A 1_555 1_555
H4A C8A 1_555 1_555
H3A C7A 1_555 1_555
C11A C9A 1_555 1_555
C12A C9A 1_555 1_555
O9A C10A 1_555 1_555
O7_2 C12 1_555 1_555
O8A_2 C12 1_555 1_555
C2A C4A 1_555 1_555
H5A C11A 1_555 1_555
O7A_2 C12A 1_555 1_555
O8_2 C12A 1_555 1_555
C13A O9A 1_555 1_555
Eu1_2 O7_2 1_555 1_555
Eu1A_2 O8A_2 1_555 1_555
O4A_2 C2A 1_555 1_555
O5A_2 C2A 1_555 1_555
Eu1A_3 O7A_2 1_555 1_555
Eu1_3 O8_2 1_555 1_555
C14A C13A 1_555 1_555
H6A C13A 1_555 1_555
Eu1A_4 O4A_2 1_555 1_555
C15A C14A 1_555 1_555
C16A C14A 1_555 1_555
H7A C15A 1_555 1_555
N1A C15A 1_555 1_555
C17A C16A 1_555 1_555
H8A C16A 1_555 1_555
C18A N1A 1_555 1_555
H9A C17A 1_555 1_555
H10A C18A 1_555 1_555
O5 C2 1_555 1_555
C10 C11 1_555 1_555
C17 C18 1_555 1_555
O2A Eu1A 1_555 1_555
C7A C4A 1_555 1_555
C10A C11A 1_555 1_555
O5A_2 Eu1A_4 1_555 1_555
C17A C18A 1_555 1_555

#END
