
#######################################################################
#
#                 Cambridge Crystallographic Data Centre
#                                CCDC 
#
#######################################################################
#
# If this CIF has been generated from an entry in the Cambridge 
# Structural Database, then it will include bibliographic, chemical, 
# crystal, experimental, refinement or atomic coordinate data resulting 
# from the CCDC's data processing and validation procedures.
#
#######################################################################

data_VOXGUM
_symmetry_cell_setting           tetragonal
_symmetry_space_group_name_H-M   'P 4/n c c'
_symmetry_Int_Tables_number      130
_space_group_name_Hall           '-P 4a 2ac'
loop_
_symmetry_equiv_pos_site_id
_symmetry_equiv_pos_as_xyz
1 x,y,z
2 1/2-x,1/2-y,z
3 1/2-y,x,z
4 y,1/2-x,z
5 -x,1/2+y,1/2-z
6 1/2+x,-y,1/2-z
7 1/2+y,1/2+x,1/2-z
8 -y,-x,1/2-z
9 -x,-y,-z
10 1/2+x,1/2+y,-z
11 1/2+y,-x,-z
12 -y,1/2+x,-z
13 x,1/2-y,1/2+z
14 1/2-x,y,1/2+z
15 1/2-y,1/2-x,1/2+z
16 y,x,1/2+z
_cell_length_a                   19.1414(10)
_cell_length_b                   19.1414(10)
_cell_length_c                   13.1861(14)
_cell_angle_alpha                90
_cell_angle_beta                 90
_cell_angle_gamma                90
_cell_volume                     4831.3
loop_
_atom_site_label
_atom_site_type_symbol
_atom_site_fract_x
_atom_site_fract_y
_atom_site_fract_z
Ni1 Ni 0.02279(7) 0.52279(7) 0.2500
Cl1 Cl -0.03239(11) 0.57329(11) 0.09721(17)
N1 N 0.0260(3) 0.6203(3) 0.3215(5)
N2 N -0.0084(3) 0.6265(3) 0.4116(5)
C1 C -0.1017(4) 0.8412(5) 0.2857(7)
H1 H -0.1243 0.8833 0.2636
H2 H -0.1274 0.8213 0.3412
H3 H -0.1001 0.8084 0.2307
N3 N 0.0601(4) 0.9178(4) 0.3637(5)
C2 C -0.0181(4) 0.6949(5) 0.4372(6)
C3 C 0.0785(5) 0.7010(4) 0.1959(7)
H4 H 0.0903 0.6581 0.1621
H5 H 0.1204 0.7264 0.2113
H6 H 0.0493 0.7287 0.1525
C4 C 0.0405(4) 0.6850(4) 0.2916(6)
N4 N -0.0059(3) 0.9224(3) 0.3205(5)
C5 C -0.0291(4) 0.8576(5) 0.3194(6)
C6 C 0.1442(5) 0.8321(5) 0.4330(8)
H7 H 0.1721 0.8733 0.4422
H8 H 0.1686 0.7999 0.3899
H9 H 0.1357 0.8107 0.4976
C7 C 0.0145(4) 0.7337(4) 0.3625(7)
C8 C 0.0767(4) 0.8513(4) 0.3856(6)
C9 C 0.0195(5) 0.8101(5) 0.3572(6)
C10 C -0.0571(5) 0.7160(4) 0.5291(7)
H10 H -0.0728 0.6751 0.5645
H11 H -0.0967 0.7438 0.5099
H12 H -0.0271 0.7428 0.5726
N1F N 0.1203(3) 0.5260(3) 0.1785(5)
N2F N 0.1265(3) 0.4916(3) 0.0884(5)
C1F C 0.3412(5) 0.3983(4) 0.2143(7)
H1F H 0.3833 0.3757 0.2364
H2F H 0.3213 0.3726 0.1588
H3F H 0.3084 0.3999 0.2693
N3F N 0.4178(4) 0.5601(4) 0.1363(5)
C2F C 0.1949(5) 0.4819(4) 0.0628(6)
C3F C 0.2010(4) 0.5785(5) 0.3041(7)
H4F H 0.1581 0.5903 0.3379
H5F H 0.2264 0.6204 0.2887
H6F H 0.2287 0.5493 0.3475
C4F C 0.1850(4) 0.5405(4) 0.2084(6)
N4F N 0.4224(3) 0.4941(3) 0.1795(5)
C5F C 0.3576(5) 0.4709(4) 0.1806(6)
C6F C 0.3321(5) 0.6442(5) 0.0670(8)
H7F H 0.3733 0.6721 0.0578
H8F H 0.2999 0.6686 0.1101
H9F H 0.3107 0.6357 0.0024
C7F C 0.2337(4) 0.5145(4) 0.1375(7)
C8F C 0.3513(4) 0.5767(4) 0.1144(6)
C9F C 0.3101(5) 0.5195(5) 0.1428(6)
C10F C 0.2160(4) 0.4429(5) -0.0291(7)
H10F H 0.1751 0.4272 -0.0645
H11F H 0.2438 0.4033 -0.0099
H12F H 0.2428 0.4729 -0.0726
Cl1F Cl 0.07329(11) 0.46761(11) 0.40279(17)
Ni1B Ni -0.02279(7) 1.02279(7) 0.2500
Ni1C Ni 0.52279(7) 0.47721(7) 0.2500
N4C N -0.0776(3) 0.5059(3) 0.3205(5)
N4D N 0.0059(3) 0.4224(3) 0.1795(5)
loop_
_geom_bond_atom_site_label_1
_geom_bond_atom_site_label_2
_geom_bond_site_symmetry_1
_geom_bond_site_symmetry_2
Ni1 Cl1 1_555 1_555
N1 Ni1 1_555 1_555
N2 N1 1_555 1_555
C1 H1 1_555 1_555
H2 C1 1_555 1_555
H3 C1 1_555 1_555
N3 N4 1_555 1_555
C2 N2 1_555 1_555
C3 H4 1_555 1_555
H5 C3 1_555 1_555
H6 C3 1_555 1_555
C4 N1 1_555 1_555
N4 C5 1_555 1_555
C5 C1 1_555 1_555
C6 H7 1_555 1_555
H8 C6 1_555 1_555
H9 C6 1_555 1_555
C7 C2 1_555 1_555
C8 N3 1_555 1_555
C9 C5 1_555 1_555
C10 C2 1_555 1_555
H10 C10 1_555 1_555
H11 C10 1_555 1_555
H12 C10 1_555 1_555
N1F Ni1 1_555 1_555
N2F N1F 1_555 1_555
C1F H1F 1_555 1_555
H2F C1F 1_555 1_555
H3F C1F 1_555 1_555
N3F N4F 1_555 1_555
C2F N2F 1_555 1_555
C3F H4F 1_555 1_555
H5F C3F 1_555 1_555
H6F C3F 1_555 1_555
C4F N1F 1_555 1_555
N4F C5F 1_555 1_555
C5F C1F 1_555 1_555
C6F H7F 1_555 1_555
H8F C6F 1_555 1_555
H9F C6F 1_555 1_555
C7F C2F 1_555 1_555
C8F N3F 1_555 1_555
C9F C5F 1_555 1_555
C10F C2F 1_555 1_555
H10F C10F 1_555 1_555
H11F C10F 1_555 1_555
H12F C10F 1_555 1_555
Cl1F Ni1 1_555 1_555
Ni1B N4 1_555 1_555
Ni1C N4F 1_555 1_555
N4C Ni1 1_555 1_555
N4D Ni1 1_555 1_555
C3 C4 1_555 1_555
C4 C7 1_555 1_555
C6 C8 1_555 1_555
C7 C9 1_555 1_555
C8 C9 1_555 1_555
C3F C4F 1_555 1_555
C4F C7F 1_555 1_555
C6F C8F 1_555 1_555
C7F C9F 1_555 1_555
C8F C9F 1_555 1_555

#END
