
#######################################################################
#
#                 Cambridge Crystallographic Data Centre
#                                CCDC 
#
#######################################################################
#
# If this CIF has been generated from an entry in the Cambridge 
# Structural Database, then it will include bibliographic, chemical, 
# crystal, experimental, refinement or atomic coordinate data resulting 
# from the CCDC's data processing and validation procedures.
#
#######################################################################

data_VOXPUV
_symmetry_cell_setting           triclinic
_symmetry_space_group_name_H-M   'P -1'
_symmetry_Int_Tables_number      2
_space_group_name_Hall           '-P 1'
loop_
_symmetry_equiv_pos_site_id
_symmetry_equiv_pos_as_xyz
1 x,y,z
2 -x,-y,-z
_cell_length_a                   9.6929(8)
_cell_length_b                   10.4882(8)
_cell_length_c                   11.5113(9)
_cell_angle_alpha                96.5620(10)
_cell_angle_beta                 112.0920(10)
_cell_angle_gamma                99.8820(10)
_cell_volume                     1047.55
loop_
_atom_site_label
_atom_site_type_symbol
_atom_site_fract_x
_atom_site_fract_y
_atom_site_fract_z
N1 N 0.9503(4) 1.5720(3) 0.2453(3)
C1 C 0.9541(5) 1.6273(4) 0.3607(4)
H1 H 1.0117 1.7105 0.4081
Cd1 Cd 0.10482(3) 0.63032(3) 0.14831(3)
O1 O 0.1258(3) 0.4360(2) 0.0554(2)
O2 O 0.1792(3) 0.3764(3) 0.2444(3)
O3 O 0.1111(3) -0.1278(2) 0.1848(3)
O4 O 0.1895(3) -0.2201(2) 0.0464(2)
N2 N 0.3503(4) 0.6910(3) 0.3166(3)
N3 N 0.5750(4) 0.8153(3) 0.4510(3)
N4 N 0.8006(4) 1.4326(3) 0.3002(3)
C2 C 0.1747(4) 0.3607(3) 0.1346(4)
C3 C 0.2314(4) 0.2469(3) 0.0913(3)
C4 C 0.1816(4) 0.1242(3) 0.1171(3)
H2 H 0.1185 0.1177 0.1613
C5 C 0.2236(4) 0.0122(3) 0.0788(3)
C6 C 0.3194(4) 0.0238(4) 0.0138(4)
H3 H 0.3476 -0.0504 -0.0141
C7 C 0.3728(4) 0.1447(3) -0.0093(4)
H4 H 0.4386 0.1507 -0.0510
C8 C 0.3307(4) 0.2585(3) 0.0280(3)
C9 C 0.1693(4) -0.1206(3) 0.1045(4)
C10 C 0.4103(4) 0.3855(3) 0.0115(3)
C11 C 0.4723(4) 0.4965(3) 0.1086(4)
H5 H 0.4543 0.4950 0.1824
C12 C 0.4399(4) 0.3909(3) -0.0977(4)
H6 H 0.3999 0.3176 -0.1640
C13 C 0.4512(4) 0.8043(4) 0.3425(4)
H7 H 0.4379 0.8681 0.2919
C14 C 0.5543(5) 0.7027(4) 0.4988(4)
H8 H 0.6208 0.6821 0.5728
C15 C 0.4158(5) 0.6278(4) 0.4146(4)
H9 H 0.3712 0.5450 0.4222
C16 C 0.7039(5) 0.9315(4) 0.5179(4)
H10 H 0.7915 0.9029 0.5731
H11 H 0.6757 0.9908 0.5716
C17 C 0.7496(4) 1.0062(4) 0.4281(4)
C18 C 0.8398(5) 0.9600(4) 0.3719(4)
H12 H 0.8659 0.8798 0.3844
C19 C 0.8913(5) 1.0327(4) 0.2972(4)
H13 H 0.9534 1.0023 0.2607
C20 C 0.8505(5) 1.1508(4) 0.2768(4)
H14 H 0.8877 1.2008 0.2287
C21 C 0.7548(5) 1.1950(4) 0.3274(4)
C22 C 0.7061(5) 1.1221(4) 0.4037(4)
H15 H 0.6429 1.1520 0.4391
C23 C 0.6897(5) 1.3138(4) 0.2929(5)
H16 H 0.6110 1.2888 0.2066
H17 H 0.6407 1.3362 0.3495
C24 C 0.8552(5) 1.4546(4) 0.2114(4)
H18 H 0.8296 1.3952 0.1359
C25 C 0.8620(5) 1.5432(4) 0.3948(4)
H19 H 0.8436 1.5572 0.4683
O1A O 0.8742(3) 0.5640(2) -0.0554(2)
O2A O 0.8208(3) 0.6236(3) -0.2444(3)
O3A O 0.8889(3) 1.1278(2) -0.1848(3)
O4A O 0.8105(3) 1.2201(2) -0.0464(2)
C2A C 0.8253(4) 0.6393(3) -0.1346(4)
C3A C 0.7686(4) 0.7531(3) -0.0913(3)
C4A C 0.8184(4) 0.8758(3) -0.1171(3)
H2A H 0.8815 0.8823 -0.1613
C5A C 0.7764(4) 0.9878(3) -0.0788(3)
C6A C 0.6806(4) 0.9762(4) -0.0138(4)
H3A H 0.6524 1.0504 0.0141
C7A C 0.6272(4) 0.8553(3) 0.0093(4)
H4A H 0.5614 0.8493 0.0510
C8A C 0.6693(4) 0.7415(3) -0.0280(3)
C9A C 0.8307(4) 1.1206(3) -0.1045(4)
C10A C 0.5897(4) 0.6145(3) -0.0115(3)
C11A C 0.5277(4) 0.5035(3) -0.1086(4)
H5A H 0.5457 0.5050 -0.1824
C12A C 0.5601(4) 0.6091(3) 0.0977(4)
H6A H 0.6001 0.6824 0.1640
N1A N -0.9503(4) -0.5720(3) -0.2453(3)
C1A C -0.9541(5) -0.6273(4) -0.3607(4)
H1A H -1.0117 -0.7105 -0.4081
Cd1A Cd -0.10482(3) 0.36968(3) -0.14831(3)
N2A N -0.3503(4) 0.3090(3) -0.3166(3)
N3A N -0.5750(4) 0.1847(3) -0.4510(3)
N4A N -0.8006(4) -0.4326(3) -0.3002(3)
C13A C -0.4512(4) 0.1957(4) -0.3425(4)
H7A H -0.4379 0.1319 -0.2919
C14A C -0.5543(5) 0.2973(4) -0.4988(4)
H8A H -0.6208 0.3179 -0.5728
C15A C -0.4158(5) 0.3722(4) -0.4146(4)
H9A H -0.3712 0.4550 -0.4222
C16A C -0.7039(5) 0.0685(4) -0.5179(4)
H10A H -0.7915 0.0971 -0.5731
H11A H -0.6757 0.0092 -0.5716
C17A C -0.7496(4) -0.0062(4) -0.4281(4)
C18A C -0.8398(5) 0.0400(4) -0.3719(4)
H12A H -0.8659 0.1202 -0.3844
C19A C -0.8913(5) -0.0327(4) -0.2972(4)
H13A H -0.9534 -0.0023 -0.2607
C20A C -0.8505(5) -0.1508(4) -0.2768(4)
H14A H -0.8877 -0.2008 -0.2287
C21A C -0.7548(5) -0.1950(4) -0.3274(4)
C22A C -0.7061(5) -0.1221(4) -0.4037(4)
H15A H -0.6429 -0.1520 -0.4391
C23A C -0.6897(5) -0.3138(4) -0.2929(5)
H16A H -0.6110 -0.2888 -0.2066
H17A H -0.6407 -0.3362 -0.3495
C24A C -0.8552(5) -0.4546(4) -0.2114(4)
H18A H -0.8296 -0.3952 -0.1359
C25A C -0.8620(5) -0.5432(4) -0.3948(4)
H19A H -0.8436 -0.5572 -0.4683
N1_2 N -0.0497(4) 0.5720(3) 0.2453(3)
N1A_2 N 0.0497(4) 0.4280(3) -0.2453(3)
Cd1_2 Cd 0.10482(3) -0.36968(3) 0.14831(3)
Cd1_3 Cd 1.10482(3) 0.63032(3) 0.14831(3)
Cd1_4 Cd 1.10482(3) 1.63032(3) 0.14831(3)
Cd1A_2 Cd -1.10482(3) -0.63032(3) -0.14831(3)
Cd1A_3 Cd 0.89518(3) 0.36968(3) -0.14831(3)
Cd1A_4 Cd 0.89518(3) 1.36968(3) -0.14831(3)
O1A_2 O -0.1258(3) 0.5640(2) -0.0554(2)
O3_2 O 0.1111(3) 0.8722(2) 0.1848(3)
O3A_2 O -0.1111(3) 0.1278(2) -0.1848(3)
O4_2 O 0.1895(3) 0.7799(2) 0.0464(2)
O4A_2 O -0.1895(3) 0.2201(2) -0.0464(2)
loop_
_geom_bond_atom_site_label_1
_geom_bond_atom_site_label_2
_geom_bond_site_symmetry_1
_geom_bond_site_symmetry_2
N1 C1 1_555 1_555
C1 H1 1_555 1_555
Cd1 O1 1_555 1_555
O1 C2 1_555 1_555
O2 C2 1_555 1_555
O3 C9 1_555 1_555
O4 C9 1_555 1_555
N2 Cd1 1_555 1_555
N3 C13 1_555 1_555
N4 C23 1_555 1_555
C2 C3 1_555 1_555
C3 C4 1_555 1_555
C4 H2 1_555 1_555
C5 C4 1_555 1_555
C6 C5 1_555 1_555
H3 C6 1_555 1_555
C7 C6 1_555 1_555
H4 C7 1_555 1_555
C8 C3 1_555 1_555
C9 C5 1_555 1_555
C10 C8 1_555 1_555
C11 C10 1_555 1_555
H5 C11 1_555 1_555
C12 C10 1_555 1_555
H6 C12 1_555 1_555
C13 N2 1_555 1_555
H7 C13 1_555 1_555
C14 N3 1_555 1_555
H8 C14 1_555 1_555
C15 N2 1_555 1_555
H9 C15 1_555 1_555
C16 N3 1_555 1_555
H10 C16 1_555 1_555
H11 C16 1_555 1_555
C17 C16 1_555 1_555
C18 C17 1_555 1_555
H12 C18 1_555 1_555
C19 C18 1_555 1_555
H13 C19 1_555 1_555
C20 C19 1_555 1_555
H14 C20 1_555 1_555
C21 C20 1_555 1_555
C22 C17 1_555 1_555
H15 C22 1_555 1_555
C23 C21 1_555 1_555
H16 C23 1_555 1_555
H17 C23 1_555 1_555
C24 N1 1_555 1_555
H18 C24 1_555 1_555
C25 C1 1_555 1_555
H19 C25 1_555 1_555
O1A C2A 1_555 1_555
O2A C2A 1_555 1_555
O3A C9A 1_555 1_555
O4A C9A 1_555 1_555
C2A C3A 1_555 1_555
C3A C4A 1_555 1_555
C4A H2A 1_555 1_555
C5A C4A 1_555 1_555
C6A C5A 1_555 1_555
H3A C6A 1_555 1_555
C7A C6A 1_555 1_555
H4A C7A 1_555 1_555
C8A C3A 1_555 1_555
C9A C5A 1_555 1_555
C10A C8A 1_555 1_555
C11A C12 1_555 1_555
H5A C11A 1_555 1_555
C12A C11 1_555 1_555
H6A C12A 1_555 1_555
N1A C1A 1_555 1_555
C1A H1A 1_555 1_555
Cd1A O1 1_555 1_555
N2A Cd1A 1_555 1_555
N3A C13A 1_555 1_555
N4A C23A 1_555 1_555
C13A N2A 1_555 1_555
H7A C13A 1_555 1_555
C14A N3A 1_555 1_555
H8A C14A 1_555 1_555
C15A N2A 1_555 1_555
H9A C15A 1_555 1_555
C16A N3A 1_555 1_555
H10A C16A 1_555 1_555
H11A C16A 1_555 1_555
C17A C16A 1_555 1_555
C18A C17A 1_555 1_555
H12A C18A 1_555 1_555
C19A C18A 1_555 1_555
H13A C19A 1_555 1_555
C20A C19A 1_555 1_555
H14A C20A 1_555 1_555
C21A C20A 1_555 1_555
C22A C17A 1_555 1_555
H15A C22A 1_555 1_555
C23A C21A 1_555 1_555
H16A C23A 1_555 1_555
H17A C23A 1_555 1_555
C24A N1A 1_555 1_555
H18A C24A 1_555 1_555
C25A C1A 1_555 1_555
H19A C25A 1_555 1_555
N1_2 Cd1 1_555 1_555
N1A_2 Cd1A 1_555 1_555
Cd1_2 O3 1_555 1_555
Cd1_3 O1A 1_555 1_555
Cd1_4 N1 1_555 1_555
Cd1A_2 N1A 1_555 1_555
Cd1A_3 O1A 1_555 1_555
Cd1A_4 O3A 1_555 1_555
O1A_2 Cd1 1_555 1_555
O3_2 Cd1 1_555 1_555
O3A_2 Cd1A 1_555 1_555
O4_2 Cd1 1_555 1_555
O4A_2 Cd1A 1_555 1_555
O4 Cd1_2 1_555 1_555
N4 C24 1_555 1_555
N4 C25 1_555 1_555
C7 C8 1_555 1_555
C14 C15 1_555 1_555
C21 C22 1_555 1_555
O4A Cd1A_4 1_555 1_555
C7A C8A 1_555 1_555
C10A C11A 1_555 1_555
C10A C12A 1_555 1_555
Cd1A O1A_2 1_555 1_555
N4A C24A 1_555 1_555
N4A C25A 1_555 1_555
C14A C15A 1_555 1_555
C21A C22A 1_555 1_555

#END
