
#######################################################################
#
#                 Cambridge Crystallographic Data Centre
#                                CCDC 
#
#######################################################################
#
# If this CIF has been generated from an entry in the Cambridge 
# Structural Database, then it will include bibliographic, chemical, 
# crystal, experimental, refinement or atomic coordinate data resulting 
# from the CCDC's data processing and validation procedures.
#
#######################################################################

data_VOXSOS
_symmetry_cell_setting           orthorhombic
_symmetry_space_group_name_H-M   'F d d 2'
_symmetry_Int_Tables_number      43
_space_group_name_Hall           'F 2 -2d'
loop_
_symmetry_equiv_pos_site_id
_symmetry_equiv_pos_as_xyz
1 x,y,z
2 -x,-y,z
3 1/4+x,1/4-y,1/4+z
4 1/4-x,1/4+y,1/4+z
5 x,1/2+y,1/2+z
6 -x,1/2-y,1/2+z
7 1/4+x,3/4-y,3/4+z
8 1/4-x,3/4+y,3/4+z
9 1/2+x,y,1/2+z
10 1/2-x,-y,1/2+z
11 3/4+x,1/4-y,3/4+z
12 3/4-x,1/4+y,3/4+z
13 1/2+x,1/2+y,z
14 1/2-x,1/2-y,z
15 3/4+x,3/4-y,1/4+z
16 3/4-x,3/4+y,1/4+z
_cell_length_a                   35.4193(15)
_cell_length_b                   35.9490(13)
_cell_length_c                   12.7424(5)
_cell_angle_alpha                90
_cell_angle_beta                 90
_cell_angle_gamma                90
_cell_volume                     16224.8
loop_
_atom_site_label
_atom_site_type_symbol
_atom_site_fract_x
_atom_site_fract_y
_atom_site_fract_z
N1 N 0.34937(7) 0.29775(7) 0.16302(18)
C1 C 0.30918(8) 0.29976(8) 0.1967(2)
H1 H 0.3060 0.2852 0.2620
H2 H 0.2931 0.2883 0.1419
C2 C 0.29588(8) 0.33967(8) 0.2160(2)
H3 H 0.2961 0.3538 0.1493
H4 H 0.2697 0.3395 0.2433
N2 N 0.32096(6) 0.35756(6) 0.29213(19)
C3 C 0.30604(8) 0.37667(8) 0.3659(2)
H5 H 0.2794 0.3793 0.3644
C4 C 0.32590(8) 0.39477(8) 0.4523(2)
C5 C 0.36574(8) 0.39898(8) 0.4593(2)
O1 O 0.38913(5) 0.38507(5) 0.38798(16)
C6 C 0.38028(8) 0.41823(8) 0.5455(3)
H6 H 0.4068 0.4221 0.5502
C7 C 0.35714(9) 0.43183(8) 0.6245(2)
H7 H 0.3679 0.4446 0.6826
C8 C 0.31838(9) 0.42689(8) 0.6191(2)
H8 H 0.3025 0.4356 0.6739
C9 C 0.30340(9) 0.40923(8) 0.5334(3)
H9 H 0.2768 0.4067 0.5286
C10 C 0.36192(9) 0.25822(8) 0.1645(2)
H10 H 0.3443 0.2432 0.1217
H11 H 0.3607 0.2488 0.2375
C11 C 0.40174(9) 0.25284(8) 0.1228(3)
H12 H 0.4109 0.2281 0.1424
H13 H 0.4184 0.2718 0.1530
H14 H 0.4016 0.2552 0.0462
C12 C 0.35513(9) 0.31566(8) 0.0586(2)
H15 H 0.3824 0.3146 0.0413
H16 H 0.3481 0.3422 0.0644
C13 C 0.33316(11) 0.29877(10) -0.0319(3)
H17 H 0.3405 0.3110 -0.0976
H18 H 0.3061 0.3023 -0.0201
H19 H 0.3387 0.2721 -0.0364
N3 N 0.32475(7) 0.52991(7) 0.38450(18)
C14 C 0.28530(8) 0.52373(8) 0.3493(2)
H20 H 0.2806 0.5387 0.2855
H21 H 0.2679 0.5326 0.4047
C15 C 0.27656(8) 0.48295(9) 0.3254(2)
H22 H 0.2773 0.4683 0.3911
H23 H 0.2509 0.4808 0.2950
N4 N 0.30430(6) 0.46828(6) 0.25126(19)
C16 C 0.29288(8) 0.44733(8) 0.1763(2)
H24 H 0.2667 0.4416 0.1749
C17 C 0.31596(8) 0.43157(8) 0.0934(2)
C18 C 0.35616(8) 0.43144(8) 0.0918(2)
O2 O 0.37656(5) 0.44655(5) 0.16717(15)
C19 C 0.37422(9) 0.41449(7) 0.0055(2)
H25 H 0.4010 0.4132 0.0043
C20 C 0.35394(10) 0.39968(9) -0.0775(2)
H26 H 0.3670 0.3893 -0.1357
C21 C 0.31478(10) 0.39992(9) -0.0765(3)
H27 H 0.3008 0.3897 -0.1333
C22 C 0.29656(9) 0.41527(7) 0.0084(3)
H28 H 0.2698 0.4149 0.0099
C23 C 0.33300(9) 0.57042(8) 0.3853(2)
H29 H 0.3135 0.5833 0.4276
H30 H 0.3313 0.5800 0.3126
C24 C 0.37164(10) 0.57961(9) 0.4294(3)
H31 H 0.3781 0.6054 0.4123
H32 H 0.3905 0.5629 0.3987
H33 H 0.3713 0.5765 0.5058
C25 C 0.33211(8) 0.51209(8) 0.4887(2)
H34 H 0.3594 0.5144 0.5047
H35 H 0.3263 0.4852 0.4829
C26 C 0.30983(9) 0.52794(9) 0.5805(2)
H36 H 0.3167 0.5147 0.6449
H37 H 0.2827 0.5249 0.5672
H38 H 0.3157 0.5544 0.5883
Cd1 Cd 0.38014(2) 0.33090(2) 0.29968(2)
Cd2 Cd 0.42126(2) 0.41963(2) 0.27113(2)
Cd3 Cd 0.36041(2) 0.50037(2) 0.25007(2)
N5 N 0.41962(6) 0.28741(7) 0.36743(19)
N6 N 0.45134(7) 0.28252(7) 0.33561(19)
N7 N 0.48162(7) 0.27715(8) 0.3070(2)
N8 N 0.42472(7) 0.36159(7) 0.1996(2)
N9 N 0.44182(7) 0.35368(7) 0.1206(2)
N10 N 0.45802(8) 0.34599(8) 0.0458(2)
N11 N 0.40281(7) 0.54586(7) 0.19383(19)
N12 N 0.43366(6) 0.55044(6) 0.22712(19)
N13 N 0.46420(6) 0.55553(7) 0.2585(2)
N14 N 0.41026(7) 0.47609(6) 0.34731(19)
N15 N 0.42563(7) 0.48800(7) 0.4240(2)
N16 N 0.43936(9) 0.49962(9) 0.4987(3)
C27 C 0.48235(11) 0.38914(13) 0.4626(3)
H39 H 0.4911 0.4031 0.5241
H40 H 0.5016 0.3709 0.4424
H41 H 0.4588 0.3763 0.4797
C28 C 0.46221(9) 0.46773(9) 0.0883(3)
H42 H 0.4785 0.4669 0.0262
H43 H 0.4682 0.4899 0.1299
H44 H 0.4357 0.4688 0.0662
O3 O 0.47614(7) 0.41372(7) 0.3792(2)
H45 H 0.4943(11) 0.4225(11) 0.358(3)
O4 O 0.46820(6) 0.43543(6) 0.14981(17)
H46 H 0.4912(12) 0.4375(12) 0.184(3)
Cd1K Cd 0.36986(2) 0.58090(2) 0.04968(2)
Cd3O Cd 0.38959(2) 0.25037(2) 0.50007(2)
N5K N 0.33038(6) 0.53741(7) 0.11743(19)
N11O N 0.34719(7) 0.29586(7) 0.44383(19)
O5 O 0.47378(12) 0.45453(14) 0.8122(3)
H47 H 0.4796 0.4663 0.7577
C29 C 0.46129(17) 0.4171(2) 0.7836(6)
H48 H 0.4553 0.4030 0.8474
H49 H 0.4815 0.4044 0.7451
H50 H 0.4388 0.4188 0.7392
O6 O 0.5000 0.5000 0.6484(4)
H51 H 0.4826 0.5098 0.6090
H51A H 0.5174 0.4902 0.6090
loop_
_geom_bond_atom_site_label_1
_geom_bond_atom_site_label_2
_geom_bond_site_symmetry_1
_geom_bond_site_symmetry_2
N1 C1 1_555 1_555
C1 H1 1_555 1_555
H2 C1 1_555 1_555
C2 C1 1_555 1_555
H3 C2 1_555 1_555
H4 C2 1_555 1_555
N2 C2 1_555 1_555
C3 N2 1_555 1_555
H5 C3 1_555 1_555
C4 C3 1_555 1_555
C5 C4 1_555 1_555
O1 C5 1_555 1_555
C6 C5 1_555 1_555
H6 C6 1_555 1_555
C7 C6 1_555 1_555
H7 C7 1_555 1_555
C8 C7 1_555 1_555
H8 C8 1_555 1_555
C9 C4 1_555 1_555
H9 C9 1_555 1_555
C10 N1 1_555 1_555
H10 C10 1_555 1_555
H11 C10 1_555 1_555
C11 C10 1_555 1_555
H12 C11 1_555 1_555
H13 C11 1_555 1_555
H14 C11 1_555 1_555
C12 N1 1_555 1_555
H15 C12 1_555 1_555
H16 C12 1_555 1_555
C13 C12 1_555 1_555
H17 C13 1_555 1_555
H18 C13 1_555 1_555
H19 C13 1_555 1_555
N3 C14 1_555 1_555
C14 H20 1_555 1_555
H21 C14 1_555 1_555
C15 C14 1_555 1_555
H22 C15 1_555 1_555
H23 C15 1_555 1_555
N4 C15 1_555 1_555
C16 N4 1_555 1_555
H24 C16 1_555 1_555
C17 C16 1_555 1_555
C18 C17 1_555 1_555
O2 C18 1_555 1_555
C19 C18 1_555 1_555
H25 C19 1_555 1_555
C20 C19 1_555 1_555
H26 C20 1_555 1_555
C21 C20 1_555 1_555
H27 C21 1_555 1_555
C22 C17 1_555 1_555
H28 C22 1_555 1_555
C23 N3 1_555 1_555
H29 C23 1_555 1_555
H30 C23 1_555 1_555
C24 C23 1_555 1_555
H31 C24 1_555 1_555
H32 C24 1_555 1_555
H33 C24 1_555 1_555
C25 N3 1_555 1_555
H34 C25 1_555 1_555
H35 C25 1_555 1_555
C26 C25 1_555 1_555
H36 C26 1_555 1_555
H37 C26 1_555 1_555
H38 C26 1_555 1_555
Cd1 N1 1_555 1_555
Cd2 O1 1_555 1_555
Cd3 N3 1_555 1_555
N5 Cd1 1_555 1_555
N6 N5 1_555 1_555
N7 N6 1_555 1_555
N8 Cd1 1_555 1_555
N9 N8 1_555 1_555
N10 N9 1_555 1_555
N11 Cd3 1_555 1_555
N12 N11 1_555 1_555
N13 N12 1_555 1_555
N14 Cd2 1_555 1_555
N15 N14 1_555 1_555
N16 N15 1_555 1_555
C27 H39 1_555 1_555
H40 C27 1_555 1_555
H41 C27 1_555 1_555
C28 H42 1_555 1_555
H43 C28 1_555 1_555
H44 C28 1_555 1_555
O3 Cd2 1_555 1_555
H45 O3 1_555 1_555
O4 Cd2 1_555 1_555
H46 O4 1_555 1_555
O5 H47 1_555 1_555
C29 O5 1_555 1_555
H48 C29 1_555 1_555
H49 C29 1_555 1_555
H50 C29 1_555 1_555
O6 H51 1_555 1_555
Cd1K N11 1_555 1_555
Cd3O N5 1_555 1_555
N5K Cd3 1_555 1_555
N11O Cd1 1_555 1_555
H51A O6 1_555 1_555
N2 Cd1 1_555 1_555
O1 Cd1 1_555 1_555
C8 C9 1_555 1_555
N4 Cd3 1_555 1_555
O2 Cd2 1_555 1_555
O2 Cd3 1_555 1_555
C21 C22 1_555 1_555
Cd2 N8 1_555 1_555
Cd3 N14 1_555 1_555
C27 O3 1_555 1_555
C28 O4 1_555 1_555
Cd1K N5K 1_555 1_555
Cd3O N11O 1_555 1_555

#END
