
#######################################################################
#
#                 Cambridge Crystallographic Data Centre
#                                CCDC 
#
#######################################################################
#
# If this CIF has been generated from an entry in the Cambridge 
# Structural Database, then it will include bibliographic, chemical, 
# crystal, experimental, refinement or atomic coordinate data resulting 
# from the CCDC's data processing and validation procedures.
#
#######################################################################

data_VOXTIL
_symmetry_cell_setting           triclinic
_symmetry_space_group_name_H-M   'P -1'
_symmetry_Int_Tables_number      2
_space_group_name_Hall           '-P 1'
loop_
_symmetry_equiv_pos_site_id
_symmetry_equiv_pos_as_xyz
1 x,y,z
2 -x,-y,-z
_cell_length_a                   6.510(1)
_cell_length_b                   10.707(1)
_cell_length_c                   10.971(1)
_cell_angle_alpha                89.10(1)
_cell_angle_beta                 84.37(1)
_cell_angle_gamma                82.65(1)
_cell_volume                     754.761
loop_
_atom_site_label
_atom_site_type_symbol
_atom_site_fract_x
_atom_site_fract_y
_atom_site_fract_z
Hg1 Hg 0.22606(3) 0.55171(3) 0.56148(2)
S1 S 0.5014(2) 0.4667(2) 0.6766(1)
C1 C 0.5560(9) 0.6041(6) 0.7577(5)
C2 C 0.3691(11) 0.6702(9) 0.8338(7)
C3 C 0.4255(14) 0.7790(8) 0.9045(8)
C4 C 0.6041(13) 0.7365(9) 0.9858(8)
C5 C 0.7892(13) 0.6719(9) 0.9121(8)
C6 C 0.7324(10) 0.5605(6) 0.8385(6)
S2 S -0.0710(2) 0.6838(2) 0.5046(1)
C7 C 0.0282(9) 0.7643(5) 0.3661(5)
C8 C 0.1848(10) 0.8504(6) 0.3945(6)
C9 C 0.2517(12) 0.9253(8) 0.2814(8)
C10 C 0.0766(14) 0.9894(8) 0.2199(8)
C11 C -0.0765(14) 0.9018(8) 0.1938(8)
C12 C -0.1495(10) 0.8324(7) 0.3076(7)
H1 H 0.5960 0.6653 0.6981
H2 H 0.2655 0.7017 0.7807
H3 H 0.3139 0.6110 0.8907
H4 H 0.4691 0.8416 0.8476
H5 H 0.3051 0.8146 0.9560
H6 H 0.5564 0.6798 1.0478
H7 H 0.6422 0.8092 1.0239
H8 H 0.8455 0.7313 0.8559
H9 H 0.8915 0.6402 0.9659
H10 H 0.6883 0.4975 0.8948
H11 H 0.8532 0.5253 0.7872
H12 H 0.1015 0.7030 0.3093
H13 H 0.1228 0.9079 0.4580
H14 H 0.3049 0.8005 0.4219
H15 H 0.3356 0.8685 0.2242
H16 H 0.3330 0.9877 0.3058
H17 H 0.0058 1.0562 0.2716
H18 H 0.1301 1.0241 0.1438
H19 H -0.1947 0.9499 0.1623
H20 H -0.0111 0.8415 0.1337
H21 H -0.2379 0.7728 0.2857
H22 H -0.2267 0.8919 0.3648
S1A S 0.4986(2) 0.5333(2) 0.3234(1)
S2A S 0.0710(2) 0.3162(2) 0.4954(1)
Hg1A Hg 0.77394(3) 0.44829(3) 0.43852(2)
Hg1A_2 Hg -0.22606(3) 0.44829(3) 0.43852(2)
C1A C 0.4440(9) 0.3959(6) 0.2423(5)
C7A C -0.0282(9) 0.2357(5) 0.6339(5)
S2_2 S 0.9290(2) 0.6838(2) 0.5046(1)
S2A_2 S 1.0710(2) 0.3162(2) 0.4954(1)
C2A C 0.6309(11) 0.3298(9) 0.1662(7)
C6A C 0.2676(10) 0.4395(6) 0.1615(6)
H1A H 0.4040 0.3347 0.3019
C8A C -0.1848(10) 0.1496(6) 0.6055(6)
C12A C 0.1495(10) 0.1676(7) 0.6924(7)
H12A H -0.1015 0.2970 0.6907
C3A C 0.5745(14) 0.2210(8) 0.0955(8)
H2A H 0.7345 0.2983 0.2193
H3A H 0.6861 0.3890 0.1093
C5A C 0.2108(13) 0.3281(9) 0.0879(8)
H10A H 0.3117 0.5025 0.1052
H11A H 0.1468 0.4747 0.2128
C9A C -0.2517(12) 0.0747(8) 0.7186(8)
H13A H -0.1228 0.0921 0.5420
H14A H -0.3049 0.1995 0.5781
C11A C 0.0765(14) 0.0982(8) 0.8062(8)
H21A H 0.2379 0.2272 0.7143
H22A H 0.2267 0.1081 0.6352
C4A C 0.3959(13) 0.2635(9) 0.0142(8)
H4A H 0.5309 0.1584 0.1524
H5A H 0.6949 0.1854 0.0440
H8A H 0.1545 0.2687 0.1441
H9A H 0.1085 0.3598 0.0341
C10A C -0.0766(14) 0.0106(8) 0.7801(8)
H15A H -0.3356 0.1315 0.7758
H16A H -0.3330 0.0123 0.6942
H19A H 0.1947 0.0501 0.8377
H20A H 0.0111 0.1585 0.8663
H6A H 0.4436 0.3202 -0.0478
H7A H 0.3578 0.1908 -0.0239
H17A H -0.0058 -0.0562 0.7284
H18A H -0.1301 -0.0241 0.8562
loop_
_geom_bond_atom_site_label_1
_geom_bond_atom_site_label_2
_geom_bond_site_symmetry_1
_geom_bond_site_symmetry_2
Hg1 S1 1_555 1_555
S1 C1 1_555 1_555
C1 C2 1_555 1_555
C2 C3 1_555 1_555
C3 C4 1_555 1_555
C4 C5 1_555 1_555
C5 C6 1_555 1_555
C6 C1 1_555 1_555
S2 Hg1 1_555 1_555
C7 S2 1_555 1_555
C8 C7 1_555 1_555
C9 C8 1_555 1_555
C10 C9 1_555 1_555
C11 C10 1_555 1_555
C12 C7 1_555 1_555
H1 C1 1_555 1_555
H2 C2 1_555 1_555
H3 C2 1_555 1_555
H4 C3 1_555 1_555
H5 C3 1_555 1_555
H6 C4 1_555 1_555
H7 C4 1_555 1_555
H8 C5 1_555 1_555
H9 C5 1_555 1_555
H10 C6 1_555 1_555
H11 C6 1_555 1_555
H12 C7 1_555 1_555
H13 C8 1_555 1_555
H14 C8 1_555 1_555
H15 C9 1_555 1_555
H16 C9 1_555 1_555
H17 C10 1_555 1_555
H18 C10 1_555 1_555
H19 C11 1_555 1_555
H20 C11 1_555 1_555
H21 C12 1_555 1_555
H22 C12 1_555 1_555
S1A Hg1 1_555 1_555
S2A Hg1 1_555 1_555
Hg1A S1 1_555 1_555
Hg1A_2 S2 1_555 1_555
C1A S1A 1_555 1_555
C7A S2A 1_555 1_555
S2_2 Hg1A 1_555 1_555
S2A_2 Hg1A 1_555 1_555
C2A C1A 1_555 1_555
C6A C1A 1_555 1_555
H1A C1A 1_555 1_555
C8A C7A 1_555 1_555
C12A C7A 1_555 1_555
H12A C7A 1_555 1_555
C3A C2A 1_555 1_555
H2A C2A 1_555 1_555
H3A C2A 1_555 1_555
C5A C6A 1_555 1_555
H10A C6A 1_555 1_555
H11A C6A 1_555 1_555
C9A C8A 1_555 1_555
H13A C8A 1_555 1_555
H14A C8A 1_555 1_555
C11A C12A 1_555 1_555
H21A C12A 1_555 1_555
H22A C12A 1_555 1_555
C4A C3A 1_555 1_555
H4A C3A 1_555 1_555
H5A C3A 1_555 1_555
H8A C5A 1_555 1_555
H9A C5A 1_555 1_555
C10A C9A 1_555 1_555
H15A C9A 1_555 1_555
H16A C9A 1_555 1_555
H19A C11A 1_555 1_555
H20A C11A 1_555 1_555
H6A C4A 1_555 1_555
H7A C4A 1_555 1_555
H17A C10A 1_555 1_555
H18A C10A 1_555 1_555
C11 C12 1_555 1_555
S1A Hg1A 1_555 1_555
S2A Hg1A_2 1_555 1_555
C5A C4A 1_555 1_555
C11A C10A 1_555 1_555

#END
