
#######################################################################
#
#                 Cambridge Crystallographic Data Centre
#                                CCDC 
#
#######################################################################
#
# If this CIF has been generated from an entry in the Cambridge 
# Structural Database, then it will include bibliographic, chemical, 
# crystal, experimental, refinement or atomic coordinate data resulting 
# from the CCDC's data processing and validation procedures.
#
#######################################################################

data_VOXWEM
_symmetry_cell_setting           triclinic
_symmetry_space_group_name_H-M   'P -1'
_symmetry_Int_Tables_number      2
_space_group_name_Hall           '-P 1'
loop_
_symmetry_equiv_pos_site_id
_symmetry_equiv_pos_as_xyz
1 x,y,z
2 -x,-y,-z
_cell_length_a                   9.9119(16)
_cell_length_b                   12.190(2)
_cell_length_c                   15.309(3)
_cell_angle_alpha                69.158(2)
_cell_angle_beta                 85.313(3)
_cell_angle_gamma                74.516(3)
_cell_volume                     1665.77
loop_
_atom_site_label
_atom_site_type_symbol
_atom_site_fract_x
_atom_site_fract_y
_atom_site_fract_z
Co1 Co 0.26396(5) 0.69502(5) 0.12593(4)
O1 O 0.3399(3) 0.7676(3) 0.1997(3)
O2 O 1.1217(4) 0.6363(4) 0.2146(3)
O3 O 1.0433(7) 0.5793(5) 0.1153(4)
O4 O 0.4926(4) 0.7999(4) 0.0865(3)
N1 N 0.4048(4) 0.5453(3) 0.1198(2)
N2 N 0.4982(5) 0.3561(4) 0.1324(3)
N3 N 0.1752(4) 0.8262(3) 0.0072(2)
N4 N 0.0204(4) 0.9334(3) -0.1054(2)
C1 C -0.0137(4) 0.9963(4) -0.4508(3)
C2 C 0.0624(4) 0.8293(4) -0.0346(3)
H1 H 0.0179 0.7666 -0.0169
C3 C 0.7475(4) 0.6728(4) 0.2474(3)
H2 H 0.7931 0.7318 0.2046
H3 H 0.7101 0.6361 0.2114
C4 C 0.2046(5) 0.9355(4) -0.0395(3)
H4 H 0.2792 0.9599 -0.0260
C5 C 0.4495(5) 0.8021(4) 0.1643(4)
C6 C -0.0695(4) 0.9784(4) -0.2636(3)
C7 C 0.1093(5) 1.0021(4) -0.1079(3)
H5 H 0.1049 1.0804 -0.1491
C8 C 1.0489(5) 0.5787(5) 0.1940(4)
C9 C 0.3813(5) 0.4394(5) 0.1356(3)
H6 H 0.2934 0.4240 0.1477
C10 C 0.3912(7) 0.1266(6) 0.2965(5)
H7 H 0.3122 0.1451 0.2599
C11 C 0.5461(5) 0.5272(5) 0.1056(4)
H8 H 0.5952 0.5863 0.0923
C12 C 0.5012(5) 0.0347(4) 0.4497(4)
C13 C 0.0139(6) 0.8842(5) -0.3778(3)
H9 H 0.0499 0.8131 -0.3909
C14 C 0.6286(5) 0.7369(5) 0.2945(3)
C15 C -0.1049(5) 0.9690(5) -0.1638(3)
H10 H -0.1622 1.0468 -0.1630
H11 H -0.1593 0.9097 -0.1376
C16 C -0.0990(6) 1.0885(5) -0.3343(3)
H12 H -0.1371 1.1589 -0.3206
C17 C -0.0120(6) 0.8784(5) -0.2864(3)
H13 H 0.0108 0.8031 -0.2388
C18 C 0.8563(5) 0.5738(5) 0.3189(4)
C19 C 0.5265(5) 0.8417(5) 0.2222(4)
H14 H 0.4590 0.8866 0.2548
H15 H 0.5785 0.8966 0.1812
C20 C 0.9707(5) 0.5059(5) 0.2721(4)
H16 H 0.9297 0.4588 0.2474
H17 H 1.0386 0.4487 0.3198
C21 C -0.0725(6) 1.0960(4) -0.4264(3)
H18 H -0.0956 1.1718 -0.4733
C22 C 0.6180(8) 0.0710(8) 0.4076(6)
H19 H 0.6961 0.0546 0.4443
C23 C 0.6902(6) 0.7957(8) 0.3505(5)
H20 H 0.6155 0.8383 0.3807
H21 H 0.7375 0.8541 0.3086
C24 C 0.5560(5) 0.6441(6) 0.3615(4)
H22 H 0.4783 0.6845 0.3911
H23 H 0.5196 0.6045 0.3273
C25 C 0.7794(6) 0.4846(6) 0.3867(5)
H24 H 0.7405 0.4463 0.3527
H25 H 0.8451 0.4216 0.4333
C26 C 0.9130(6) 0.6343(8) 0.3758(4)
H26 H 0.9815 0.5734 0.4215
H27 H 0.9591 0.6939 0.3343
C27 C 0.5068(6) 0.1598(4) 0.2562(4)
C28 C 0.6023(6) 0.4116(5) 0.1138(4)
H28 H 0.6964 0.3762 0.1078
C29 C 0.7951(7) 0.6956(12) 0.4251(5)
C30 C 0.7221(9) 0.6023(13) 0.4917(5)
H29 H 0.7890 0.5387 0.5371
H30 H 0.6488 0.6412 0.5250
C31 C 0.6618(7) 0.5505(11) 0.4352(6)
C32 C 0.5112(8) 0.2275(5) 0.1526(4)
H31 H 0.5988 0.1924 0.1281
H32 H 0.4355 0.2185 0.1215
C33 C 0.3885(6) 0.0652(6) 0.3918(5)
H33 H 0.3069 0.0437 0.4175
C34 C 0.6224(8) 0.1308(8) 0.3128(6)
H34 H 0.7039 0.1519 0.2864
H35 H 0.641(9) 0.503(7) 0.468(6)
H36 H 0.845(10) 0.725(9) 0.475(7)
N1A N 0.5952(4) -0.5453(3) 0.8802(2)
N2A N 0.5018(5) -0.3561(4) 0.8676(3)
C9A C 0.6187(5) -0.4394(5) 0.8644(3)
H6A H 0.7066 -0.4240 0.8523
C10A C 0.6088(7) -0.1266(6) 0.7035(5)
H7A H 0.6878 -0.1451 0.7401
C11A C 0.4539(5) -0.5272(5) 0.8944(4)
H8A H 0.4048 -0.5863 0.9077
C12A C 0.4988(5) -0.0347(4) 0.5503(4)
C22A C 0.3820(8) -0.0710(8) 0.5924(6)
H19A H 0.3039 -0.0546 0.5557
C27A C 0.4932(6) -0.1598(4) 0.7438(4)
C28A C 0.3977(6) -0.4116(5) 0.8862(4)
H28A H 0.3036 -0.3762 0.8922
C32A C 0.4888(8) -0.2275(5) 0.8474(4)
H31A H 0.4012 -0.1924 0.8719
H32A H 0.5645 -0.2185 0.8785
C33A C 0.6115(6) -0.0652(6) 0.6082(5)
H33A H 0.6931 -0.0437 0.5825
C34A C 0.3776(8) -0.1308(8) 0.6872(6)
H34A H 0.2961 -0.1519 0.7136
N3A N -0.1752(4) 1.1738(3) -1.0072(2)
N4A N -0.0204(4) 1.0666(3) -0.8946(2)
C1A C 0.0137(4) 1.0037(4) -0.5492(3)
C2A C -0.0624(4) 1.1707(4) -0.9654(3)
H1A H -0.0179 1.2334 -0.9831
C4A C -0.2046(5) 1.0645(4) -0.9605(3)
H4A H -0.2792 1.0401 -0.9740
C6A C 0.0695(4) 1.0216(4) -0.7364(3)
C7A C -0.1093(5) 0.9979(4) -0.8921(3)
H5A H -0.1049 0.9196 -0.8509
C13A C -0.0139(6) 1.1158(5) -0.6222(3)
H9A H -0.0499 1.1869 -0.6091
C15A C 0.1049(5) 1.0310(5) -0.8362(3)
H10A H 0.1622 0.9532 -0.8370
H11A H 0.1593 1.0903 -0.8624
C16A C 0.0990(6) 0.9115(5) -0.6657(3)
H12A H 0.1371 0.8411 -0.6794
C17A C 0.0120(6) 1.1216(5) -0.7136(3)
H13A H -0.0108 1.1969 -0.7612
C21A C 0.0725(6) 0.9040(4) -0.5736(3)
H18A H 0.0956 0.8282 -0.5267
Co1A Co -0.26396(5) 1.30498(5) -1.12593(4)
O1A O -0.3399(3) 1.2324(3) -1.1997(3)
O2A O -1.1217(4) 1.3637(4) -1.2146(3)
O3A O -1.0433(7) 1.4207(5) -1.1153(4)
O4A O -0.4926(4) 1.2001(4) -1.0865(3)
C3A C -0.7475(4) 1.3272(4) -1.2474(3)
H2A H -0.7931 1.2682 -1.2046
H3A H -0.7101 1.3639 -1.2114
C5A C -0.4495(5) 1.1979(4) -1.1643(4)
C8A C -1.0489(5) 1.4213(5) -1.1940(4)
C14A C -0.6286(5) 1.2631(5) -1.2945(3)
C18A C -0.8563(5) 1.4262(5) -1.3189(4)
C19A C -0.5265(5) 1.1583(5) -1.2222(4)
H14A H -0.4590 1.1134 -1.2548
H15A H -0.5785 1.1034 -1.1812
C20A C -0.9707(5) 1.4941(5) -1.2721(4)
H16A H -0.9297 1.5412 -1.2474
H17A H -1.0386 1.5513 -1.3198
C23A C -0.6902(6) 1.2043(8) -1.3505(5)
H20A H -0.6155 1.1617 -1.3807
H21A H -0.7375 1.1459 -1.3086
C24A C -0.5560(5) 1.3559(6) -1.3615(4)
H22A H -0.4783 1.3155 -1.3911
H23A H -0.5196 1.3955 -1.3273
C25A C -0.7794(6) 1.5154(6) -1.3867(5)
H24A H -0.7405 1.5537 -1.3527
H25A H -0.8451 1.5784 -1.4333
C26A C -0.9130(6) 1.3657(8) -1.3758(4)
H26A H -0.9815 1.4266 -1.4215
H27A H -0.9591 1.3061 -1.3343
C29A C -0.7951(7) 1.3044(12) -1.4251(5)
C30A C -0.7221(9) 1.3977(13) -1.4917(5)
H29A H -0.7890 1.4613 -1.5371
H30A H -0.6488 1.3588 -1.5250
C31A C -0.6618(7) 1.4495(11) -1.4352(6)
H35A H -0.641(9) 1.497(7) -1.468(6)
H36A H -0.845(10) 1.275(9) -1.475(7)
Co1_2 Co 1.26396(5) 0.69502(5) 0.12593(4)
Co1A_2 Co -1.26396(5) 1.30498(5) -1.12593(4)
Co1A_3 Co 0.73604(5) -0.69502(5) 0.87407(4)
O2_2 O 0.1217(4) 0.6363(4) 0.2146(3)
O2A_2 O -0.1217(4) 1.3637(4) -1.2146(3)
N1A_2 N -0.4048(4) 1.4547(3) -1.1198(2)
O5 O 0.2493(7) 0.2385(9) 0.0036(5)
loop_
_geom_bond_atom_site_label_1
_geom_bond_atom_site_label_2
_geom_bond_site_symmetry_1
_geom_bond_site_symmetry_2
Co1 O1 1_555 1_555
O1 C5 1_555 1_555
O2 C8 1_555 1_555
O3 C8 1_555 1_555
O4 C5 1_555 1_555
N1 Co1 1_555 1_555
N2 C9 1_555 1_555
N3 Co1 1_555 1_555
N4 C2 1_555 1_555
C1 C13 1_555 1_555
C2 N3 1_555 1_555
H1 C2 1_555 1_555
C3 H2 1_555 1_555
H3 C3 1_555 1_555
C4 N3 1_555 1_555
H4 C4 1_555 1_555
C5 C19 1_555 1_555
C6 C15 1_555 1_555
C7 N4 1_555 1_555
H5 C7 1_555 1_555
C8 C20 1_555 1_555
C9 N1 1_555 1_555
H6 C9 1_555 1_555
C10 H7 1_555 1_555
C11 N1 1_555 1_555
H8 C11 1_555 1_555
C12 C22 1_555 1_555
C13 H9 1_555 1_555
C14 C3 1_555 1_555
C15 N4 1_555 1_555
H10 C15 1_555 1_555
H11 C15 1_555 1_555
C16 C6 1_555 1_555
H12 C16 1_555 1_555
C17 C6 1_555 1_555
H13 C17 1_555 1_555
C18 C3 1_555 1_555
C19 C14 1_555 1_555
H14 C19 1_555 1_555
H15 C19 1_555 1_555
C20 C18 1_555 1_555
H16 C20 1_555 1_555
H17 C20 1_555 1_555
C21 C1 1_555 1_555
H18 C21 1_555 1_555
C22 H19 1_555 1_555
C23 C14 1_555 1_555
H20 C23 1_555 1_555
H21 C23 1_555 1_555
C24 C14 1_555 1_555
H22 C24 1_555 1_555
H23 C24 1_555 1_555
C25 C18 1_555 1_555
H24 C25 1_555 1_555
H25 C25 1_555 1_555
C26 C18 1_555 1_555
H26 C26 1_555 1_555
H27 C26 1_555 1_555
C27 C10 1_555 1_555
C28 N2 1_555 1_555
H28 C28 1_555 1_555
C29 C23 1_555 1_555
C30 C29 1_555 1_555
H29 C30 1_555 1_555
H30 C30 1_555 1_555
C31 C24 1_555 1_555
C32 N2 1_555 1_555
H31 C32 1_555 1_555
H32 C32 1_555 1_555
C33 C10 1_555 1_555
H33 C33 1_555 1_555
C34 C22 1_555 1_555
H34 C34 1_555 1_555
H35 C31 1_555 1_555
H36 C29 1_555 1_555
N1A C9A 1_555 1_555
N2A C9A 1_555 1_555
C9A H6A 1_555 1_555
C10A H7A 1_555 1_555
C11A N1A 1_555 1_555
H8A C11A 1_555 1_555
C12A C12 1_555 1_555
C22A C12A 1_555 1_555
H19A C22A 1_555 1_555
C27A C10A 1_555 1_555
C28A N2A 1_555 1_555
H28A C28A 1_555 1_555
C32A N2A 1_555 1_555
H31A C32A 1_555 1_555
H32A C32A 1_555 1_555
C33A C10A 1_555 1_555
H33A C33A 1_555 1_555
C34A C22A 1_555 1_555
H34A C34A 1_555 1_555
N3A C2A 1_555 1_555
N4A C2A 1_555 1_555
C1A C1 1_555 1_555
C2A H1A 1_555 1_555
C4A N3A 1_555 1_555
H4A C4A 1_555 1_555
C6A C15A 1_555 1_555
C7A N4A 1_555 1_555
H5A C7A 1_555 1_555
C13A C1A 1_555 1_555
H9A C13A 1_555 1_555
C15A N4A 1_555 1_555
H10A C15A 1_555 1_555
H11A C15A 1_555 1_555
C16A C6A 1_555 1_555
H12A C16A 1_555 1_555
C17A C6A 1_555 1_555
H13A C17A 1_555 1_555
C21A C1A 1_555 1_555
H18A C21A 1_555 1_555
Co1A N3A 1_555 1_555
O1A Co1A 1_555 1_555
O2A C8A 1_555 1_555
O3A C8A 1_555 1_555
O4A C5A 1_555 1_555
C3A H2A 1_555 1_555
H3A C3A 1_555 1_555
C5A O1A 1_555 1_555
C8A C20A 1_555 1_555
C14A C3A 1_555 1_555
C18A C3A 1_555 1_555
C19A C5A 1_555 1_555
H14A C19A 1_555 1_555
H15A C19A 1_555 1_555
C20A C18A 1_555 1_555
H16A C20A 1_555 1_555
H17A C20A 1_555 1_555
C23A C14A 1_555 1_555
H20A C23A 1_555 1_555
H21A C23A 1_555 1_555
C24A C14A 1_555 1_555
H22A C24A 1_555 1_555
H23A C24A 1_555 1_555
C25A C18A 1_555 1_555
H24A C25A 1_555 1_555
H25A C25A 1_555 1_555
C26A C18A 1_555 1_555
H26A C26A 1_555 1_555
H27A C26A 1_555 1_555
C29A C23A 1_555 1_555
C30A C29A 1_555 1_555
H29A C30A 1_555 1_555
H30A C30A 1_555 1_555
C31A C24A 1_555 1_555
H35A C31A 1_555 1_555
H36A C29A 1_555 1_555
Co1_2 O2 1_555 1_555
Co1A_2 O2A 1_555 1_555
Co1A_3 N1A 1_555 1_555
O2_2 Co1 1_555 1_555
O2A_2 Co1A 1_555 1_555
N1A_2 Co1A 1_555 1_555
C4 C7 1_555 1_555
C11 C28 1_555 1_555
C12 C33 1_555 1_555
C13 C17 1_555 1_555
C16 C21 1_555 1_555
C25 C31 1_555 1_555
C26 C29 1_555 1_555
C27 C32 1_555 1_555
C27 C34 1_555 1_555
C30 C31 1_555 1_555
C11A C28A 1_555 1_555
C12A C33A 1_555 1_555
C27A C32A 1_555 1_555
C27A C34A 1_555 1_555
C4A C7A 1_555 1_555
C13A C17A 1_555 1_555
C16A C21A 1_555 1_555
C14A C19A 1_555 1_555
C25A C31A 1_555 1_555
C26A C29A 1_555 1_555
C30A C31A 1_555 1_555

#END
