
#######################################################################
#
#                 Cambridge Crystallographic Data Centre
#                                CCDC 
#
#######################################################################
#
# If this CIF has been generated from an entry in the Cambridge 
# Structural Database, then it will include bibliographic, chemical, 
# crystal, experimental, refinement or atomic coordinate data resulting 
# from the CCDC's data processing and validation procedures.
#
#######################################################################

data_VOXWOW
_symmetry_cell_setting           monoclinic
_symmetry_space_group_name_H-M   'P 21/n'
_symmetry_Int_Tables_number      14
_space_group_name_Hall           '-P 2yn'
loop_
_symmetry_equiv_pos_site_id
_symmetry_equiv_pos_as_xyz
1 x,y,z
2 1/2-x,1/2+y,1/2-z
3 -x,-y,-z
4 1/2+x,1/2-y,1/2+z
_cell_length_a                   6.9275(8)
_cell_length_b                   21.796(4)
_cell_length_c                   20.941(3)
_cell_angle_alpha                90
_cell_angle_beta                 91.218(10)
_cell_angle_gamma                90
_cell_volume                     3161.2
loop_
_atom_site_label
_atom_site_type_symbol
_atom_site_fract_x
_atom_site_fract_y
_atom_site_fract_z
Co1 Co 0.74992(6) 0.30913(2) 0.76199(2)
O1 O 1.2908(4) 0.21311(14) 1.17113(12)
N1 N 0.3393(4) 0.18648(13) 0.82857(16)
N2 N -0.8804(4) -0.03915(14) 0.73927(13)
N3 N -1.1041(4) -0.10980(14) 0.73379(13)
N4 N 0.5846(4) 0.24615(14) 0.80705(15)
C1 C -0.7045(5) -0.00734(16) 0.75465(16)
C2 C 1.2059(4) 0.35898(17) 0.94599(15)
O2 O 1.0343(4) 0.32523(14) 0.78038(12)
O3 O 0.9755(4) 0.21247(16) 1.16051(13)
O4 O 0.8660(4) 0.33070(16) 0.86634(13)
C3 C 0.4671(5) 0.18189(19) 0.87903(19)
H1 H 0.4537 0.1578 0.9153
C4 C 0.4184(5) 0.22571(18) 0.78677(18)
H2 H 0.3606 0.2368 0.7480
C5 C 1.1366(5) 0.21701(18) 1.13675(17)
C6 C 1.0231(5) 0.33656(17) 0.83877(17)
C7 C 0.6158(5) 0.21900(19) 0.86596(19)
H3 H 0.7232 0.2254 0.8925
C8 C -0.9371(5) -0.09377(17) 0.76037(16)
H4 H -0.8682 -0.1175 0.7899
C9 C 1.1765(4) 0.29485(15) 0.97199(14)
H5 H 1.2735 0.2678 0.9547
H6 H 1.0508 0.2799 0.9578
C10 C 1.1891(5) 0.29238(17) 1.04492(15)
C11 C 0.1609(5) 0.15468(17) 0.81871(17)
C12 C 1.1557(5) 0.22583(18) 1.06587(16)
H7 H 1.2626 0.2010 1.0515
H8 H 1.0393 0.2108 1.0447
C13 C 1.3916(6) 0.3157(2) 1.06594(18)
H9 H 1.4035 0.3151 1.1122
H10 H 1.4898 0.2889 1.0490
C14 C -1.1524(5) -0.06282(18) 0.6931(2)
H11 H -1.2630 -0.0615 0.6672
C15 C -0.6489(6) 0.0402(2) 0.7185(2)
H12 H -0.7231 0.0515 0.6829
C16 C -1.0188(5) -0.01963(19) 0.6960(2)
H13 H -1.0186 0.0170 0.6732
C17 C 1.2006(5) 0.36000(18) 0.87351(15)
H14 H 1.2209 0.4021 0.8601
H15 H 1.3098 0.3363 0.8590
C18 C 1.0537(6) 0.40155(18) 0.97457(18)
H16 H 1.0734 0.4430 0.9592
H17 H 0.9261 0.3884 0.9604
C19 C 1.4215(6) 0.3805(2) 1.04169(19)
C20 C 1.4055(5) 0.3819(2) 0.96896(17)
H18 H 1.5051 0.3561 0.9512
H19 H 1.4253 0.4234 0.9540
C21 C -0.3639(5) 0.05670(16) 0.78363(16)
C22 C -0.1839(5) 0.09055(16) 0.79696(16)
C23 C -0.1266(5) 0.13781(19) 0.75699(19)
H20 H -0.2046 0.1483 0.7220
C24 C 1.0362(5) 0.33546(18) 1.07124(17)
H21 H 1.0434 0.3349 1.1175
H22 H 0.9089 0.3212 1.0580
C25 C -0.4838(6) 0.0724(2) 0.7336(2)
H23 H -0.4523 0.1062 0.7088
C26 C 0.0415(6) 0.16929(19) 0.7679(2)
H24 H 0.0752 0.2010 0.7405
C27 C -0.0629(6) 0.0776(2) 0.8473(2)
H25 H -0.0967 0.0464 0.8752
C28 C -0.4227(6) 0.0074(2) 0.8191(2)
H26 H -0.3463 -0.0050 0.8538
C29 C 0.1064(6) 0.1088(2) 0.8587(2)
H27 H 0.1843 0.0985 0.8939
C30 C 1.0653(6) 0.4011(2) 1.04741(19)
C31 C -0.5891(6) -0.0244(2) 0.8054(2)
H28 H -0.6237 -0.0575 0.8306
C32 C 1.2706(9) 0.4225(3) 1.0691(2)
H29 H 1.2923 0.4642 1.0546
H30 H 1.2809 0.4221 1.1153
Co1A Co -1.24992(6) -0.19087(2) 0.73801(2)
Co1C Co 1.24992(6) 0.19087(2) 1.26199(2)
O1C O 0.7908(4) 0.28689(14) 0.67113(12)
N3A N 0.6041(4) 0.39020(14) 0.76621(13)
O5 O 0.1309(4) 0.33445(18) 0.61098(18)
loop_
_geom_bond_atom_site_label_1
_geom_bond_atom_site_label_2
_geom_bond_site_symmetry_1
_geom_bond_site_symmetry_2
Co1 N4 1_555 1_555
O1 C5 1_555 1_555
N1 C3 1_555 1_555
N2 C1 1_555 1_555
N3 C8 1_555 1_555
N4 C4 1_555 1_555
C1 C15 1_555 1_555
C2 C9 1_555 1_555
O2 Co1 1_555 1_555
O3 C5 1_555 1_555
O4 Co1 1_555 1_555
C3 H1 1_555 1_555
C4 N1 1_555 1_555
H2 C4 1_555 1_555
C5 C12 1_555 1_555
C6 O2 1_555 1_555
C7 N4 1_555 1_555
H3 C7 1_555 1_555
C8 N2 1_555 1_555
H4 C8 1_555 1_555
C9 H5 1_555 1_555
H6 C9 1_555 1_555
C10 C9 1_555 1_555
C11 N1 1_555 1_555
C12 C10 1_555 1_555
H7 C12 1_555 1_555
H8 C12 1_555 1_555
C13 C10 1_555 1_555
H9 C13 1_555 1_555
H10 C13 1_555 1_555
C14 N3 1_555 1_555
H11 C14 1_555 1_555
C15 H12 1_555 1_555
C16 N2 1_555 1_555
H13 C16 1_555 1_555
C17 C2 1_555 1_555
H14 C17 1_555 1_555
H15 C17 1_555 1_555
C18 C2 1_555 1_555
H16 C18 1_555 1_555
H17 C18 1_555 1_555
C19 C13 1_555 1_555
C20 C2 1_555 1_555
H18 C20 1_555 1_555
H19 C20 1_555 1_555
C21 C22 1_555 1_555
C22 C23 1_555 1_555
C23 H20 1_555 1_555
C24 C10 1_555 1_555
H21 C24 1_555 1_555
H22 C24 1_555 1_555
C25 C15 1_555 1_555
H23 C25 1_555 1_555
C26 C11 1_555 1_555
H24 C26 1_555 1_555
C27 C22 1_555 1_555
H25 C27 1_555 1_555
C28 C21 1_555 1_555
H26 C28 1_555 1_555
C29 C11 1_555 1_555
H27 C29 1_555 1_555
C30 C18 1_555 1_555
C31 C1 1_555 1_555
H28 C31 1_555 1_555
C32 C19 1_555 1_555
H29 C32 1_555 1_555
H30 C32 1_555 1_555
Co1A N3 1_555 1_555
Co1C O1 1_555 1_555
O1C Co1 1_555 1_555
N3A Co1 1_555 1_555
O4 C6 1_555 1_555
C3 C7 1_555 1_555
C6 C17 1_555 1_555
C14 C16 1_555 1_555
C19 C20 1_555 1_555
C21 C25 1_555 1_555
C23 C26 1_555 1_555
C24 C30 1_555 1_555
C27 C29 1_555 1_555
C28 C31 1_555 1_555
C30 C32 1_555 1_555

#END
