
#######################################################################
#
#                 Cambridge Crystallographic Data Centre
#                                CCDC 
#
#######################################################################
#
# If this CIF has been generated from an entry in the Cambridge 
# Structural Database, then it will include bibliographic, chemical, 
# crystal, experimental, refinement or atomic coordinate data resulting 
# from the CCDC's data processing and validation procedures.
#
#######################################################################

data_VOYLOM
_symmetry_cell_setting           monoclinic
_symmetry_space_group_name_H-M   'P 21/n'
_symmetry_Int_Tables_number      14
_space_group_name_Hall           '-P 2yn'
loop_
_symmetry_equiv_pos_site_id
_symmetry_equiv_pos_as_xyz
1 x,y,z
2 1/2-x,1/2+y,1/2-z
3 -x,-y,-z
4 1/2+x,1/2-y,1/2+z
_cell_length_a                   13.5847(8)
_cell_length_b                   9.5136(5)
_cell_length_c                   34.789(2)
_cell_angle_alpha                90
_cell_angle_beta                 93.3820(10)
_cell_angle_gamma                90
_cell_volume                     4488.28
loop_
_atom_site_label
_atom_site_type_symbol
_atom_site_fract_x
_atom_site_fract_y
_atom_site_fract_z
Ag1 Ag 0.23191(3) 0.52281(5) 0.022590(12)
Ag2 Ag 0.58804(3) 0.46717(4) 0.025013(12)
I1 I 0.42127(2) 0.59296(4) 0.058698(10)
I2 I 0.24723(2) 0.36688(4) -0.042201(11)
N1 N 0.1539(3) 0.7454(5) 0.00731(11)
N2 N 0.3566(3) 1.1811(6) -0.31801(16)
N3 N -0.3600(3) 0.9942(5) -0.42346(12)
N4 N -0.5684(3) 0.7562(5) -0.04856(13)
C1 C 0.1127(3) 0.7801(6) -0.02757(13)
H1 H 0.0972 0.7069 -0.0455
C2 C 0.0917(3) 0.9179(5) -0.03859(13)
C3 C 0.1184(3) 1.0229(6) -0.01231(14)
H2 H 0.1067 1.1188 -0.0188
C4 C 0.1618(3) 0.9878(6) 0.02309(14)
H3 H 0.1814 1.0588 0.0412
C5 C 0.1762(4) 0.8491(6) 0.03184(15)
H4 H 0.2035 0.8256 0.0568
C6 C 0.0422(3) 0.9495(5) -0.07682(13)
C7 C -0.0304(3) 0.8607(5) -0.09342(12)
H5 H -0.0489 0.7790 -0.0799
C8 C -0.0758(3) 0.8898(5) -0.12908(13)
H6 H -0.1250 0.8279 -0.1397
C9 C -0.0504(3) 1.0088(5) -0.14974(12)
C10 C 0.0214(3) 1.0965(5) -0.13316(14)
H7 H 0.0403 1.1779 -0.1467
C11 C 0.0664(3) 1.0683(5) -0.09720(14)
H8 H 0.1146 1.1315 -0.0864
C12 C -0.0947(3) 1.0380(5) -0.18922(12)
C13 C -0.1913(3) 1.0201(5) -0.20000(13)
C14 C -0.0211(3) 1.0881(5) -0.21666(12)
C15 C -0.0300(3) 1.2160(5) -0.23513(13)
H9 H -0.0841 1.2756 -0.2304
C16 C 0.0397(3) 1.2589(6) -0.26067(15)
H10 H 0.0336 1.3481 -0.2728
C17 C 0.1188(3) 1.1704(6) -0.26835(14)
C18 C 0.1260(4) 1.0431(6) -0.24954(15)
H11 H 0.1790 0.9818 -0.2545
C19 C 0.0587(3) 1.0023(5) -0.22374(14)
H12 H 0.0668 0.9151 -0.2107
C20 C 0.1912(4) 1.2096(6) -0.29684(15)
C21 C 0.2888(4) 1.1594(6) -0.29232(17)
H13 H 0.3074 1.1072 -0.2698
C22 C 0.3282(5) 1.2555(8) -0.34941(19)
H14 H 0.3750 1.2699 -0.3683
C23 C 0.2364(5) 1.3120(9) -0.3561(2)
H15 H 0.2199 1.3654 -0.3787
C24 C 0.1677(4) 1.2885(9) -0.32858(19)
H16 H 0.1036 1.3281 -0.3321
C25 C -0.2326(3) 1.0269(5) -0.24054(13)
C26 C -0.3248(3) 1.0884(5) -0.24899(13)
H17 H -0.3585 1.1318 -0.2290
C27 C -0.3680(3) 1.0872(5) -0.28613(13)
H18 H -0.4301 1.1313 -0.2913
C28 C -0.3209(3) 1.0215(5) -0.31597(13)
C29 C -0.2282(3) 0.9621(5) -0.30771(13)
H19 H -0.1942 0.9196 -0.3278
C30 C -0.1852(3) 0.9644(5) -0.27081(13)
H20 H -0.1222 0.9227 -0.2658
C31 C -0.3718(3) 1.0077(5) -0.35471(13)
C32 C -0.3199(3) 1.0118(5) -0.38813(14)
H21 H -0.2509 1.0283 -0.3854
C33 C -0.4571(4) 0.9718(5) -0.42727(15)
H22 H -0.4871 0.9572 -0.4523
C34 C -0.5157(4) 0.9691(6) -0.39602(16)
H23 H -0.5847 0.9544 -0.3998
C35 C -0.4730(3) 0.9878(5) -0.35946(14)
H24 H -0.5123 0.9871 -0.3378
C36 C -0.2659(3) 0.9902(5) -0.17101(12)
C37 C -0.2805(3) 1.0878(5) -0.14169(13)
H25 H -0.2416 1.1708 -0.1397
C38 C -0.3521(3) 1.0629(5) -0.11539(14)
H26 H -0.3630 1.1308 -0.0961
C39 C -0.4076(3) 0.9403(5) -0.11701(13)
C40 C -0.3914(3) 0.8428(5) -0.14606(14)
H27 H -0.4277 0.7574 -0.1473
C41 C -0.3229(3) 0.8697(5) -0.17301(14)
H28 H -0.3149 0.8044 -0.1932
C42 C -0.4833(3) 0.9172(5) -0.08824(15)
C43 C -0.5033(4) 0.7838(6) -0.07505(15)
H29 H -0.4688 0.7070 -0.0854
C44 C -0.6165(4) 0.8667(6) -0.03449(17)
H30 H -0.6623 0.8491 -0.0155
C45 C -0.6037(4) 1.0011(6) -0.04573(18)
H31 H -0.6403 1.0752 -0.0351
C46 C -0.5358(4) 1.0287(6) -0.07319(17)
H32 H -0.5253 1.1222 -0.0816
Ag1C Ag -0.26809(3) 0.97719(5) -0.477410(12)
Ag2B Ag -0.58804(3) 0.53283(4) -0.025013(12)
Ag2B_2 Ag 0.41196(3) 0.53283(4) -0.025013(12)
I1B I 0.57873(2) 0.40704(4) -0.058698(10)
I2B I 0.75277(2) 0.63312(4) 0.042201(11)
N3C N 0.1400(3) 0.5058(5) 0.07654(12)
N4B N 0.5684(3) 0.2438(5) 0.04856(13)
Cl1 Cl 0.2490(3) 0.7838(5) -0.32913(12)
Cl2 Cl 0.0413(3) 0.7585(7) -0.32834(13)
C47 C 0.1417(7) 0.8379(15) -0.3482(3)
H33 H 0.1387 0.8188 -0.3762
H34 H 0.1370 0.9409 -0.3446
loop_
_geom_bond_atom_site_label_1
_geom_bond_atom_site_label_2
_geom_bond_site_symmetry_1
_geom_bond_site_symmetry_2
Ag1 I1 1_555 1_555
Ag2 I1 1_555 1_555
I1 Ag2B_2 1_555 1_555
I2 Ag1 1_555 1_555
N1 Ag1 1_555 1_555
N2 C21 1_555 1_555
N3 C32 1_555 1_555
N4 C43 1_555 1_555
C1 N1 1_555 1_555
H1 C1 1_555 1_555
C2 C1 1_555 1_555
C3 C2 1_555 1_555
H2 C3 1_555 1_555
C4 C3 1_555 1_555
H3 C4 1_555 1_555
C5 N1 1_555 1_555
H4 C5 1_555 1_555
C6 C2 1_555 1_555
C7 C6 1_555 1_555
H5 C7 1_555 1_555
C8 C7 1_555 1_555
H6 C8 1_555 1_555
C9 C8 1_555 1_555
C10 C9 1_555 1_555
H7 C10 1_555 1_555
C11 C6 1_555 1_555
H8 C11 1_555 1_555
C12 C9 1_555 1_555
C13 C12 1_555 1_555
C14 C12 1_555 1_555
C15 C14 1_555 1_555
H9 C15 1_555 1_555
C16 C15 1_555 1_555
H10 C16 1_555 1_555
C17 C16 1_555 1_555
C18 C17 1_555 1_555
H11 C18 1_555 1_555
C19 C14 1_555 1_555
H12 C19 1_555 1_555
C20 C17 1_555 1_555
C21 C20 1_555 1_555
H13 C21 1_555 1_555
C22 N2 1_555 1_555
H14 C22 1_555 1_555
C23 C22 1_555 1_555
H15 C23 1_555 1_555
C24 C20 1_555 1_555
H16 C24 1_555 1_555
C25 C13 1_555 1_555
C26 C25 1_555 1_555
H17 C26 1_555 1_555
C27 C26 1_555 1_555
H18 C27 1_555 1_555
C28 C27 1_555 1_555
C29 C28 1_555 1_555
H19 C29 1_555 1_555
C30 C25 1_555 1_555
H20 C30 1_555 1_555
C31 C28 1_555 1_555
C32 C31 1_555 1_555
H21 C32 1_555 1_555
C33 N3 1_555 1_555
H22 C33 1_555 1_555
C34 C33 1_555 1_555
H23 C34 1_555 1_555
C35 C31 1_555 1_555
H24 C35 1_555 1_555
C36 C13 1_555 1_555
C37 C36 1_555 1_555
H25 C37 1_555 1_555
C38 C37 1_555 1_555
H26 C38 1_555 1_555
C39 C38 1_555 1_555
C40 C39 1_555 1_555
H27 C40 1_555 1_555
C41 C36 1_555 1_555
H28 C41 1_555 1_555
C42 C39 1_555 1_555
C43 C42 1_555 1_555
H29 C43 1_555 1_555
C44 N4 1_555 1_555
H30 C44 1_555 1_555
C45 C44 1_555 1_555
H31 C45 1_555 1_555
C46 C42 1_555 1_555
H32 C46 1_555 1_555
Cl1 C47 1_555 1_555
Cl2 C47 1_555 1_555
C47 H33 1_555 1_555
H34 C47 1_555 1_555
Ag1C N3 1_555 1_555
Ag2B N4 1_555 1_555
Ag2B_2 I2 1_555 1_555
I1B Ag2 1_555 1_555
I2B Ag2 1_555 1_555
N3C Ag1 1_555 1_555
N4B Ag2 1_555 1_555
C4 C5 1_555 1_555
C10 C11 1_555 1_555
C18 C19 1_555 1_555
C23 C24 1_555 1_555
C29 C30 1_555 1_555
C34 C35 1_555 1_555
C40 C41 1_555 1_555
C45 C46 1_555 1_555
Ag2B_2 I1B 1_555 1_555

#END
