
#######################################################################
#
#                 Cambridge Crystallographic Data Centre
#                                CCDC 
#
#######################################################################
#
# If this CIF has been generated from an entry in the Cambridge 
# Structural Database, then it will include bibliographic, chemical, 
# crystal, experimental, refinement or atomic coordinate data resulting 
# from the CCDC's data processing and validation procedures.
#
#######################################################################

data_VOYLIG
_symmetry_cell_setting           monoclinic
_symmetry_space_group_name_H-M   'C 2/c'
_symmetry_Int_Tables_number      15
_space_group_name_Hall           '-C 2yn'
loop_
_symmetry_equiv_pos_site_id
_symmetry_equiv_pos_as_xyz
1 x,y,z
2 -x,y,1/2-z
3 1/2+x,1/2+y,z
4 1/2-x,1/2+y,1/2-z
5 -x,-y,-z
6 x,-y,1/2+z
7 1/2-x,1/2-y,-z
8 1/2+x,1/2-y,1/2+z
_cell_length_a                   13.9152(4)
_cell_length_b                   15.3014(4)
_cell_length_c                   20.8955(6)
_cell_angle_alpha                90
_cell_angle_beta                 99.967(3)
_cell_angle_gamma                90
_cell_volume                     4381.96
loop_
_atom_site_label
_atom_site_type_symbol
_atom_site_fract_x
_atom_site_fract_y
_atom_site_fract_z
Ag1 Ag 0.68790(4) 0.21025(3) 0.43843(3)
N1 N 0.6721(4) 0.3497(3) 0.4253(3)
N2 N 0.6903(4) 1.0688(3) 0.4364(3)
C1 C 0.6001(5) 0.3959(5) 0.4442(3)
H1 H 0.5565 0.3673 0.4662
C2 C 0.5882(5) 0.4833(5) 0.4325(3)
H2 H 0.5372 0.5136 0.4459
C3 C 0.6522(5) 0.5253(4) 0.4010(3)
H3 H 0.6463 0.5853 0.3940
C4 C 0.7251(5) 0.4806(4) 0.3795(3)
C5 C 0.7320(5) 0.3914(4) 0.3932(3)
H4 H 0.7813 0.3597 0.3790
C6 C 0.7968(5) 0.5230(4) 0.3440(3)
C7 C 0.7653(5) 0.5929(4) 0.2998(3)
H5 H 0.7003 0.6102 0.2928
C8 C 0.8287(5) 0.6337(4) 0.2683(3)
H6 H 0.8066 0.6781 0.2390
C9 C 0.9274(5) 0.6105(4) 0.2788(3)
C10 C 0.9561(5) 0.5388(4) 0.3190(3)
H7 H 1.0203 0.5193 0.3241
C11 C 0.8917(5) 0.4969(4) 0.3509(3)
H8 H 0.9129 0.4498 0.3777
C12 C 1.0000 0.6627(5) 0.2500
C13 C 1.0000 0.7500(5) 0.2500
C14 C 0.9425(5) 0.8017(3) 0.2910(3)
C15 C 0.8937(5) 0.8777(4) 0.2687(3)
H9 H 0.9016 0.9005 0.2287
C16 C 0.8332(5) 0.9207(4) 0.3052(3)
H10 H 0.7993 0.9704 0.2885
C17 C 0.8231(5) 0.8901(4) 0.3658(3)
C18 C 0.8759(5) 0.8176(4) 0.3903(3)
H11 H 0.8715 0.7977 0.4317
C19 C 0.9349(5) 0.7743(4) 0.3543(3)
H12 H 0.9705 0.7260 0.3721
C20 C 0.7555(5) 0.9345(4) 0.4030(3)
C21 C 0.7499(4) 1.0258(4) 0.4048(3)
H13 H 0.7903 1.0580 0.3825
C22 C 0.6333(5) 1.0231(4) 0.4680(3)
H14 H 0.5921 1.0533 0.4908
C23 C 0.6311(5) 0.9337(4) 0.4690(4)
H15 H 0.5882 0.9039 0.4908
C24 C 0.6960(5) 0.8885(4) 0.4361(3)
H16 H 0.6982 0.8277 0.4368
N1A N 1.3279(4) 0.3497(3) 0.0747(3)
N2A N 1.3097(4) 1.0688(3) 0.0636(3)
C1A C 1.3999(5) 0.3959(5) 0.0558(3)
H1A H 1.4435 0.3673 0.0338
C2A C 1.4118(5) 0.4833(5) 0.0675(3)
H2A H 1.4628 0.5136 0.0541
C3A C 1.3478(5) 0.5253(4) 0.0990(3)
H3A H 1.3537 0.5853 0.1060
C4A C 1.2749(5) 0.4806(4) 0.1205(3)
C5A C 1.2680(5) 0.3914(4) 0.1068(3)
H4A H 1.2187 0.3597 0.1210
C6A C 1.2032(5) 0.5230(4) 0.1560(3)
C7A C 1.2347(5) 0.5929(4) 0.2002(3)
H5A H 1.2997 0.6102 0.2072
C8A C 1.1713(5) 0.6337(4) 0.2317(3)
H6A H 1.1934 0.6781 0.2610
C9A C 1.0726(5) 0.6105(4) 0.2212(3)
C10A C 1.0439(5) 0.5388(4) 0.1810(3)
H7A H 0.9797 0.5193 0.1759
C11A C 1.1083(5) 0.4969(4) 0.1491(3)
H8A H 1.0871 0.4498 0.1223
C14A C 1.0575(5) 0.8017(3) 0.2090(3)
C15A C 1.1063(5) 0.8777(4) 0.2313(3)
H9A H 1.0984 0.9005 0.2713
C16A C 1.1668(5) 0.9207(4) 0.1948(3)
H10A H 1.2007 0.9704 0.2115
C17A C 1.1769(5) 0.8901(4) 0.1342(3)
C18A C 1.1241(5) 0.8176(4) 0.1097(3)
H11A H 1.1285 0.7977 0.0683
C19A C 1.0651(5) 0.7743(4) 0.1457(3)
H12A H 1.0295 0.7260 0.1279
C20A C 1.2445(5) 0.9345(4) 0.0970(3)
C21A C 1.2501(4) 1.0258(4) 0.0952(3)
H13A H 1.2097 1.0580 0.1175
C22A C 1.3667(5) 1.0231(4) 0.0320(3)
H14A H 1.4079 1.0533 0.0092
C23A C 1.3689(5) 0.9337(4) 0.0310(4)
H15A H 1.4118 0.9039 0.0092
C24A C 1.3040(5) 0.8885(4) 0.0639(3)
H16A H 1.3018 0.8277 0.0632
Ag1A Ag 1.31210(4) 0.21025(3) 0.06157(3)
Ag1_2 Ag 0.68790(4) 1.21025(3) 0.43843(3)
Ag1A_2 Ag 1.31210(4) 1.21025(3) 0.06157(3)
N2_2 N 0.6903(4) 0.0688(3) 0.4364(3)
N2A_2 N 1.3097(4) 0.0688(3) 0.0636(3)
O1 O 0.6263(7) 0.2898(5) 0.6029(5)
O2 O 0.4728(6) 0.2931(5) 0.5682(4)
O3 O 0.5619(5) 0.2058(3) 0.5269(3)
N3 N 0.5508(7) 0.2621(4) 0.5652(4)
O4 O 0.3931(4) 0.1942(3) 0.7308(3)
loop_
_geom_bond_atom_site_label_1
_geom_bond_atom_site_label_2
_geom_bond_site_symmetry_1
_geom_bond_site_symmetry_2
Ag1 N1 1_555 1_555
N1 C1 1_555 1_555
N2 C21 1_555 1_555
C1 H1 1_555 1_555
C2 C1 1_555 1_555
H2 C2 1_555 1_555
C3 C2 1_555 1_555
H3 C3 1_555 1_555
C4 C3 1_555 1_555
C5 N1 1_555 1_555
H4 C5 1_555 1_555
C6 C4 1_555 1_555
C7 C6 1_555 1_555
H5 C7 1_555 1_555
C8 C7 1_555 1_555
H6 C8 1_555 1_555
C9 C8 1_555 1_555
C10 C9 1_555 1_555
H7 C10 1_555 1_555
C11 C6 1_555 1_555
H8 C11 1_555 1_555
C12 C9 1_555 1_555
C13 C12 1_555 1_555
C14 C13 1_555 1_555
C15 C14 1_555 1_555
H9 C15 1_555 1_555
C16 C15 1_555 1_555
H10 C16 1_555 1_555
C17 C16 1_555 1_555
C18 C17 1_555 1_555
H11 C18 1_555 1_555
C19 C14 1_555 1_555
H12 C19 1_555 1_555
C20 C17 1_555 1_555
C21 C20 1_555 1_555
H13 C21 1_555 1_555
C22 N2 1_555 1_555
H14 C22 1_555 1_555
C23 C22 1_555 1_555
H15 C23 1_555 1_555
C24 C20 1_555 1_555
H16 C24 1_555 1_555
O1 N3 1_555 1_555
O2 N3 1_555 1_555
O3 N3 1_555 1_555
N1A C1A 1_555 1_555
N2A C21A 1_555 1_555
C1A H1A 1_555 1_555
C2A C1A 1_555 1_555
H2A C2A 1_555 1_555
C3A C2A 1_555 1_555
H3A C3A 1_555 1_555
C4A C3A 1_555 1_555
C5A N1A 1_555 1_555
H4A C5A 1_555 1_555
C6A C4A 1_555 1_555
C7A C6A 1_555 1_555
H5A C7A 1_555 1_555
C8A C7A 1_555 1_555
H6A C8A 1_555 1_555
C9A C12 1_555 1_555
C10A C9A 1_555 1_555
H7A C10A 1_555 1_555
C11A C6A 1_555 1_555
H8A C11A 1_555 1_555
C14A C13 1_555 1_555
C15A C14A 1_555 1_555
H9A C15A 1_555 1_555
C16A C15A 1_555 1_555
H10A C16A 1_555 1_555
C17A C16A 1_555 1_555
C18A C17A 1_555 1_555
H11A C18A 1_555 1_555
C19A C14A 1_555 1_555
H12A C19A 1_555 1_555
C20A C17A 1_555 1_555
C21A C20A 1_555 1_555
H13A C21A 1_555 1_555
C22A N2A 1_555 1_555
H14A C22A 1_555 1_555
C23A C22A 1_555 1_555
H15A C23A 1_555 1_555
C24A C20A 1_555 1_555
H16A C24A 1_555 1_555
Ag1A N1A 1_555 1_555
Ag1_2 N2 1_555 1_555
Ag1A_2 N2A 1_555 1_555
N2_2 Ag1 1_555 1_555
N2A_2 Ag1A 1_555 1_555
C4 C5 1_555 1_555
C10 C11 1_555 1_555
C18 C19 1_555 1_555
C23 C24 1_555 1_555
C4A C5A 1_555 1_555
C8A C9A 1_555 1_555
C10A C11A 1_555 1_555
C18A C19A 1_555 1_555
C23A C24A 1_555 1_555

#END
