
#######################################################################
#
#                 Cambridge Crystallographic Data Centre
#                                CCDC 
#
#######################################################################
#
# If this CIF has been generated from an entry in the Cambridge 
# Structural Database, then it will include bibliographic, chemical, 
# crystal, experimental, refinement or atomic coordinate data resulting 
# from the CCDC's data processing and validation procedures.
#
#######################################################################

data_VOYVAI
_symmetry_cell_setting           triclinic
_symmetry_space_group_name_H-M   'P -1'
_symmetry_Int_Tables_number      2
_space_group_name_Hall           '-P 1'
loop_
_symmetry_equiv_pos_site_id
_symmetry_equiv_pos_as_xyz
1 x,y,z
2 -x,-y,-z
_cell_length_a                   6.649(4)
_cell_length_b                   7.324(3)
_cell_length_c                   13.504(3)
_cell_angle_alpha                84.6597
_cell_angle_beta                 83.267(3)
_cell_angle_gamma                78.04356
_cell_volume                     637.301
loop_
_atom_site_label
_atom_site_type_symbol
_atom_site_fract_x
_atom_site_fract_y
_atom_site_fract_z
Ag1 Ag 0.26767(7) 0.16217(5) 0.07778(3)
N1 N 0.3258(7) 0.5830(6) -0.1758(3)
H1 H 0.382(5) 0.5060(7) -0.2222(7)
H2 H 0.2078(11) 0.650(4) -0.1935(14)
C1 C 0.2320(6) 0.5939(6) 0.0034(3)
O1 O 0.3236(6) 0.3031(6) -0.0760(3)
C2 C 0.2181(7) 0.7855(6) -0.0002(3)
H3 H 0.2451(7) 0.8518(6) -0.0626(3)
N2 N 0.1903(6) 0.4961(5) 0.0895(3)
C3 C 0.1375(8) 0.5910(7) 0.1714(3)
H4 H 0.1061(8) 0.5256(7) 0.2336(3)
C4 C 0.1273(8) 0.7819(7) 0.1683(3)
H5 H 0.0911(8) 0.8443(7) 0.2284(3)
C5 C 0.2973(6) 0.4830(6) -0.0877(3)
O2 O 0.1954(5) 0.4160(5) 0.6199(3)
O3 O 0.5153(5) 0.3600(5) 0.6650(3)
C6 C 0.4091(6) 0.1734(6) 0.4583(3)
H6 H 0.3454(6) 0.2918(6) 0.4298(3)
O4 O 0.2940(5) 0.1271(5) 0.2550(2)
O5 O 0.6350(5) 0.0223(5) 0.2317(2)
C7 C 0.3757(7) 0.3222(6) 0.6202(3)
C8 C 0.4672(7) 0.0571(6) 0.2859(3)
C9 C 0.4767(6) 0.0227(6) 0.3974(3)
C10 C 0.4342(6) 0.1516(6) 0.5592(3)
N3 N 0.1670(6) 0.8798(5) 0.0829(3)
O2A O 0.8046(5) -0.4160(5) 0.3801(3)
O3A O 0.4847(5) -0.3600(5) 0.3350(3)
C6A C 0.5909(6) -0.1734(6) 0.5417(3)
H6A H 0.6546(6) -0.2918(6) 0.5702(3)
O4A O 0.7060(5) -0.1271(5) 0.7450(2)
O5A O 0.3650(5) -0.0223(5) 0.7683(2)
C7A C 0.6243(7) -0.3222(6) 0.3798(3)
C8A C 0.5328(7) -0.0571(6) 0.7141(3)
C9A C 0.5233(6) -0.0227(6) 0.6026(3)
C10A C 0.5658(6) -0.1516(6) 0.4408(3)
Ag1A Ag 0.73233(7) -0.16217(5) 0.92222(3)
N1A N 0.6742(7) -0.5830(6) 1.1758(3)
H1A H 0.618(5) -0.5060(7) 1.2222(7)
H2A H 0.7922(11) -0.650(4) 1.1935(14)
C1A C 0.7680(6) -0.5939(6) 0.9966(3)
O1A O 0.6764(6) -0.3031(6) 1.0760(3)
C2A C 0.7819(7) -0.7855(6) 1.0002(3)
H3A H 0.7549(7) -0.8518(6) 1.0626(3)
N2A N 0.8097(6) -0.4961(5) 0.9105(3)
C3A C 0.8625(8) -0.5910(7) 0.8286(3)
H4A H 0.8939(8) -0.5256(7) 0.7664(3)
C4A C 0.8727(8) -0.7819(7) 0.8317(3)
H5A H 0.9089(8) -0.8443(7) 0.7716(3)
C5A C 0.7027(6) -0.4830(6) 1.0877(3)
N3A N 0.8330(6) -0.8798(5) 0.9171(3)
Ag1_2 Ag 0.26767(7) 1.16217(5) 0.07778(3)
Ag1A_2 Ag 0.73233(7) -1.16217(5) 0.92222(3)
N3_2 N 0.1670(6) -0.1202(5) 0.0829(3)
N3A_2 N 0.8330(6) 0.1202(5) 0.9171(3)
O6 O 0.0847(5) 0.7941(5) 0.4211(3)
H7 H 0.008(6) 0.710(5) 0.427(5)
H8 H 0.211(3) 0.744(6) 0.400(5)
O7 O 0.0831(7) 0.8052(6) 0.6300(3)
H9 H 0.128(11) 0.6855(19) 0.641(4)
H10 H 0.069(11) 0.831(8) 0.5667(12)
loop_
_geom_bond_atom_site_label_1
_geom_bond_atom_site_label_2
_geom_bond_site_symmetry_1
_geom_bond_site_symmetry_2
Ag1 O1 1_555 1_555
N1 H1 1_555 1_555
H2 N1 1_555 1_555
C1 C2 1_555 1_555
O1 C5 1_555 1_555
C2 H3 1_555 1_555
N2 Ag1 1_555 1_555
C3 N2 1_555 1_555
H4 C3 1_555 1_555
C4 C3 1_555 1_555
H5 C4 1_555 1_555
C5 N1 1_555 1_555
O2 C7 1_555 1_555
O3 C7 1_555 1_555
C6 H6 1_555 1_555
O4 Ag1 1_555 1_555
O5 C8 1_555 1_555
C7 C10 1_555 1_555
C8 O4 1_555 1_555
C9 C6 1_555 1_555
C10 C6 1_555 1_555
N3 C2 1_555 1_555
O6 H7 1_555 1_555
H8 O6 1_555 1_555
O7 H9 1_555 1_555
H10 O7 1_555 1_555
O2A C7A 1_555 1_555
O3A C7A 1_555 1_555
C6A H6A 1_555 1_555
O4A C8A 1_555 1_555
O5A C8A 1_555 1_555
C7A C10A 1_555 1_555
C8A C9A 1_555 1_555
C9A C10 1_555 1_555
C10A C9 1_555 1_555
Ag1A O4A 1_555 1_555
N1A H1A 1_555 1_555
H2A N1A 1_555 1_555
C1A C2A 1_555 1_555
O1A Ag1A 1_555 1_555
C2A H3A 1_555 1_555
N2A Ag1A 1_555 1_555
C3A N2A 1_555 1_555
H4A C3A 1_555 1_555
C4A C3A 1_555 1_555
H5A C4A 1_555 1_555
C5A N1A 1_555 1_555
N3A C2A 1_555 1_555
Ag1_2 N3 1_555 1_555
Ag1A_2 N3A 1_555 1_555
N3_2 Ag1 1_555 1_555
N3A_2 Ag1A 1_555 1_555
C1 N2 1_555 1_555
C1 C5 1_555 1_555
C4 N3 1_555 1_555
C8 C9 1_555 1_555
C6A C9A 1_555 1_555
C6A C10A 1_555 1_555
C1A N2A 1_555 1_555
C1A C5A 1_555 1_555
O1A C5A 1_555 1_555
C4A N3A 1_555 1_555

#END
