
#######################################################################
#
#                 Cambridge Crystallographic Data Centre
#                                CCDC 
#
#######################################################################
#
# If this CIF has been generated from an entry in the Cambridge 
# Structural Database, then it will include bibliographic, chemical, 
# crystal, experimental, refinement or atomic coordinate data resulting 
# from the CCDC's data processing and validation procedures.
#
#######################################################################

data_VOYYIT
_symmetry_cell_setting           triclinic
_symmetry_space_group_name_H-M   'P -1'
_symmetry_Int_Tables_number      2
_space_group_name_Hall           '-P 1'
loop_
_symmetry_equiv_pos_site_id
_symmetry_equiv_pos_as_xyz
1 x,y,z
2 -x,-y,-z
_cell_length_a                   13.1406(5)
_cell_length_b                   14.7199(8)
_cell_length_c                   19.2558(10)
_cell_angle_alpha                107.926(5)
_cell_angle_beta                 92.536(4)
_cell_angle_gamma                94.017(4)
_cell_volume                     3526.59
loop_
_atom_site_label
_atom_site_type_symbol
_atom_site_fract_x
_atom_site_fract_y
_atom_site_fract_z
O1 O -0.1655(7) 0.4630(7) 0.4660(6)
Gd1 Gd 0.17275(4) 0.89283(4) 0.83400(3)
Gd2 Gd 0.22036(4) 0.47819(4) 0.63136(3)
Gd3 Gd 0.37591(4) 0.11465(4) 0.41939(3)
Gd4 Gd 0.34469(4) 0.28976(4) 0.85493(3)
Gd5 Gd 0.88651(4) 0.24113(4) 0.90205(3)
C1 C 0.1248(11) 0.6553(11) 0.7443(9)
C2 C 0.0286(10) 0.6062(10) 0.6978(8)
C3 C -0.0603(11) 0.6523(11) 0.7090(10)
H1 H -0.0634 0.7124 0.7431
C4 C -0.1442(13) 0.6005(13) 0.6647(11)
H2 H -0.2079 0.6241 0.6729
C5 C -0.1381(11) 0.5155(12) 0.6090(11)
C6 C -0.2398(12) 0.4463(14) 0.5861(11)
C7 C -0.0438(10) 0.4797(11) 0.6018(9)
C8 C -0.0213(10) 0.3861(11) 0.5469(9)
C9 C -0.0872(11) 0.3277(13) 0.4917(10)
C10 C -0.1697(12) 0.3675(11) 0.4407(12)
C11 C -0.0609(12) 0.2337(13) 0.4557(10)
H3 H -0.1103 0.1862 0.4286
C12 C 0.0372(11) 0.2153(12) 0.4619(9)
H4 H 0.0597 0.1581 0.4331
C13 C 0.1039(10) 0.2834(11) 0.5118(9)
C14 C 0.2136(11) 0.2666(11) 0.5184(9)
C15 C 0.3420(9) 0.2148(9) 0.2854(7)
C16 C 0.3276(9) 0.2162(9) 0.2149(7)
H5 H 0.3646 0.2616 0.1993
C17 C 0.2574(8) 0.1494(8) 0.1672(6)
H6 H 0.2478 0.1490 0.1189
C18 C 0.2012(8) 0.0828(8) 0.1909(6)
C19 C 0.1391(8) 0.0007(8) 0.1332(6)
C20 C 0.2125(8) 0.0910(8) 0.2663(6)
C21 C 0.1520(8) 0.0335(8) 0.3055(6)
C22 C 0.0474(8) 0.0028(8) 0.2906(6)
C23 C -0.0197(8) 0.0296(8) 0.2372(6)
C24 C 0.0050(9) -0.0476(8) 0.3339(6)
H7 H -0.0630 -0.0722 0.3234
C25 C 0.0582(8) -0.0628(9) 0.3912(6)
H8 H 0.0282 -0.0960 0.4201
C26 C 0.1589(9) -0.0260(9) 0.4037(7)
C27 C 0.2255(10) -0.0334(10) 0.4687(7)
C28 C 0.3848(8) 0.4310(9) 0.7546(7)
C29 C 0.4880(9) 0.4495(8) 0.7986(6)
C30 C 0.5683(8) 0.5024(8) 0.7813(7)
H9 H 0.5604 0.5337 0.7464
C31 C 0.6639(9) 0.5058(9) 0.8202(7)
H10 H 0.7211 0.5393 0.8102
C32 C 0.6730(8) 0.4599(8) 0.8731(7)
C33 C 0.7809(9) 0.4500(9) 0.8989(7)
C34 C 0.5836(8) 0.4198(8) 0.8920(6)
C35 C 0.5751(8) 0.3775(8) 0.9546(6)
C36 C 0.6401(8) 0.4094(8) 1.0188(6)
C37 C 0.7115(9) 0.4987(8) 1.0434(6)
C38 C 0.6272(8) 0.3578(8) 1.0685(6)
H11 H 0.6718 0.3727 1.1101
C39 C 0.5510(8) 0.2864(8) 1.0572(6)
H12 H 0.5426 0.2528 1.0906
C40 C 0.4869(8) 0.2652(8) 0.9950(6)
C41 C 0.3960(8) 0.1913(8) 0.9794(6)
C42 C 0.4979(8) 0.1793(8) 0.7197(6)
C43 C 0.6142(8) 0.1948(8) 0.7223(6)
C44 C 0.6575(8) 0.2318(9) 0.6712(7)
H13 H 0.6170 0.2412 0.6335
C45 C 0.7606(8) 0.2542(9) 0.6772(7)
H14 H 0.7915 0.2781 0.6431
C46 C 0.8182(9) 0.2411(9) 0.7336(7)
C47 C 0.9321(9) 0.2739(9) 0.7471(7)
C48 C 0.6793(8) 0.1761(8) 0.7757(6)
C49 C 0.6479(8) 0.1281(8) 0.8302(6)
C50 C 0.5750(8) 0.0500(8) 0.8172(6)
C51 C 0.5306(8) -0.0094(8) 0.7441(6)
C52 C 0.5536(8) 0.0142(8) 0.8764(6)
H15 H 0.5039 -0.0364 0.8700
C53 C 0.6075(8) 0.0555(8) 0.9435(6)
H16 H 0.5934 0.0350 0.9835
C54 C 0.6835(8) 0.1288(8) 0.9492(6)
C55 C 0.7575(8) 0.1653(8) 1.0151(6)
C56 C 0.4245(10) 0.2751(10) 0.3379(8)
N1 N 0.0362(8) 0.5238(8) 0.6469(6)
N2 N 0.0722(8) 0.3654(9) 0.5559(7)
N3 N 0.2844(7) 0.1519(7) 0.3116(5)
N4 N 0.2052(7) 0.0196(7) 0.3617(5)
N5 N 0.4948(6) 0.4116(7) 0.8520(5)
N6 N 0.4989(6) 0.3100(7) 0.9456(5)
N7 N 0.7779(6) 0.2032(7) 0.7819(5)
N8 N 0.7027(6) 0.1637(7) 0.8941(5)
O2 O 0.1196(6) 0.7337(6) 0.7936(5)
O3 O 0.2064(7) 0.6142(7) 0.7310(6)
O4 O 0.2001(7) 0.8639(7) 0.7040(5)
H17 H 0.1824 0.8054 0.6806
H18 H 0.2630 0.8766 0.6991
O5 O 0.3143(5) 0.9994(6) 0.8354(4)
H19 H 0.3556 0.9706 0.8051
H20 H 0.3440 1.0193 0.8781
O6 O 0.1714(5) 1.0379(5) 0.9446(4)
H21 H 0.1906 1.0877 0.9335
H22 H 0.2122 1.0327 0.9784
O7 O 0.0399(5) 0.8694(6) 0.9119(4)
H23 H 0.0531 0.8238 0.9282
H24 H -0.0173 0.8555 0.8870
O8 O -0.3195(11) 0.5045(11) 0.5862(10)
H25 H -0.3723 0.4713 0.5674
O9 O -0.2543(7) 0.3621(7) 0.5625(6)
O10 O 0.2718(8) 0.3330(8) 0.5639(7)
O11 O 0.2409(7) 0.1926(7) 0.4760(6)
O12 O 0.1542(7) 0.3948(8) 0.7062(6)
H26 H 0.0893 0.3886 0.7000
H27 H 0.1721 0.4263 0.7505
O13 O 0.3706(8) 0.5573(9) 0.6043(6)
H28 H 0.3697 0.5477 0.5584
H29 H 0.4228 0.5346 0.6181
O14 O 0.4460(7) 0.2561(7) 0.3975(5)
O15 O 0.4692(8) 0.3423(8) 0.3222(6)
O16 O 0.3212(6) -0.0019(7) 0.4717(5)
O17 O 0.1840(7) -0.0650(8) 0.5143(5)
O18 O -0.0031(5) 0.1091(6) 0.2267(4)
O19 O -0.1006(6) -0.0249(6) 0.2073(4)
O20 O 0.1145(6) 0.0127(6) 0.0734(4)
O21 O 0.1201(5) -0.0744(5) 0.1493(4)
O22 O 0.4418(7) 0.2112(7) 0.5411(5)
H30 H 0.4628 0.2669 0.5403
H31 H 0.4913 0.1851 0.5548
O23 O 0.5344(9) 0.0504(11) 0.4395(7)
H32 H 0.5713 0.0919 0.4736
H33 H 0.5657 0.0368 0.4005
O24 O 0.3686(6) 0.4738(6) 0.7100(5)
O25 O 0.3244(6) 0.3711(6) 0.7701(4)
O26 O 0.1696(5) 0.3215(6) 0.8619(5)
H34 H 0.1321 0.2703 0.8402
H35 H 0.1589 0.3636 0.8411
O27 O 0.2391(6) 0.1573(6) 0.7699(5)
H36 H 0.2498 0.1557 0.7264
H37 H 0.1766 0.1650 0.7773
O28 O 0.3370(5) 0.1839(5) 0.9230(4)
O29 O 0.3826(6) 0.1410(6) 1.0195(5)
O30 O 0.8471(6) 0.5170(7) 0.9092(6)
O31 O 0.7928(6) 0.3673(6) 0.9050(4)
O32 O 0.6726(5) 0.5738(5) 1.0422(4)
O33 O 0.8004(6) 0.4942(6) 1.0656(5)
O34 O 0.4598(5) 0.1991(6) 0.7802(4)
O35 O 0.4489(6) 0.1485(6) 0.6595(5)
O36 O 0.5832(5) -0.0099(6) 0.6906(4)
O37 O 0.4474(6) -0.0595(6) 0.7361(4)
O38 O 0.9741(6) 0.3019(7) 0.7004(5)
O39 O 0.9747(5) 0.2663(6) 0.8047(4)
O40 O 0.8351(5) 0.2162(5) 1.0099(4)
O41 O 0.7388(5) 0.1397(5) 1.0696(4)
O42 O 0.9690(6) 0.3855(6) 0.9928(5)
H38 H 1.0335 0.3850 0.9917
H39 H 0.9516 0.3867 1.0351
O43 O 1.0461(5) 0.1987(4) 0.9429(4)
H40 H 1.0525 0.1399 0.9208
H41 H 1.0471 0.2078 0.9887
O44 O -0.2409(8) 0.2991(7) 0.4244(6)
O1A O 0.1655(7) 0.5370(7) 0.5340(6)
Gd1A Gd -0.17275(4) 0.10717(4) 0.16600(3)
Gd1A_2 Gd 0.82725(4) 0.10717(4) 1.16600(3)
Gd2A Gd -0.22036(4) 0.52181(4) 0.36864(3)
Gd3A Gd 0.62409(4) -0.11465(4) 0.58061(3)
Gd4A Gd 0.65531(4) 0.71024(4) 1.14507(3)
Gd5A Gd 0.11349(4) -0.24113(4) 0.09795(3)
O18A O 0.0031(5) 0.8909(6) 0.7733(4)
O19A O 0.1006(6) 1.0249(6) 0.7927(4)
O21A O 0.8799(5) 0.0744(5) 0.8507(4)
O32A O 0.3274(5) 0.4262(5) 0.9578(4)
O36A O 0.4168(5) 0.0099(6) 0.3094(4)
O41A O 0.2612(5) 0.8603(5) 0.9304(4)
O45 O 0.3313(6) 0.7940(6) 0.7919(5)
H42 H 0.3857 0.8316 0.8032
H43 H 0.3248 0.7675 0.7458
O46 O 0.8072(5) 0.7031(4) 0.9604(4)
H44 H 0.7499 0.6821 0.9708
H45 H 0.8095 0.6872 0.9142
O47 O 0.7242(7) 0.0006(10) 0.3508(5)
O48 O 0.5205(8) 0.4027(7) 0.5269(6)
loop_
_geom_bond_atom_site_label_1
_geom_bond_atom_site_label_2
_geom_bond_site_symmetry_1
_geom_bond_site_symmetry_2
O1 C10 1_555 1_555
Gd1 O2 1_555 1_555
Gd2 N1 1_555 1_555
Gd3 N3 1_555 1_555
Gd4 N5 1_555 1_555
Gd5 N7 1_555 1_555
C1 C2 1_555 1_555
C2 C3 1_555 1_555
C3 H1 1_555 1_555
C4 C3 1_555 1_555
H2 C4 1_555 1_555
C5 C4 1_555 1_555
C6 C5 1_555 1_555
C7 C5 1_555 1_555
C8 C7 1_555 1_555
C9 C8 1_555 1_555
C10 C9 1_555 1_555
C11 C9 1_555 1_555
H3 C11 1_555 1_555
C12 C11 1_555 1_555
H4 C12 1_555 1_555
C13 C12 1_555 1_555
C14 C13 1_555 1_555
C15 C16 1_555 1_555
C16 H5 1_555 1_555
C17 C16 1_555 1_555
H6 C17 1_555 1_555
C18 C17 1_555 1_555
C19 C18 1_555 1_555
C20 C18 1_555 1_555
C21 C20 1_555 1_555
C22 C21 1_555 1_555
C23 C22 1_555 1_555
C24 C22 1_555 1_555
H7 C24 1_555 1_555
C25 C24 1_555 1_555
H8 C25 1_555 1_555
C26 C25 1_555 1_555
C27 C26 1_555 1_555
C28 C29 1_555 1_555
C29 C30 1_555 1_555
C30 H9 1_555 1_555
C31 C30 1_555 1_555
H10 C31 1_555 1_555
C32 C31 1_555 1_555
C33 C32 1_555 1_555
C34 C32 1_555 1_555
C35 C34 1_555 1_555
C36 C35 1_555 1_555
C37 C36 1_555 1_555
C38 C36 1_555 1_555
H11 C38 1_555 1_555
C39 C38 1_555 1_555
H12 C39 1_555 1_555
C40 C39 1_555 1_555
C41 C40 1_555 1_555
C42 C43 1_555 1_555
C43 C44 1_555 1_555
C44 H13 1_555 1_555
C45 C44 1_555 1_555
H14 C45 1_555 1_555
C46 C45 1_555 1_555
C47 C46 1_555 1_555
C48 C43 1_555 1_555
C49 C48 1_555 1_555
C50 C49 1_555 1_555
C51 C50 1_555 1_555
C52 C50 1_555 1_555
H15 C52 1_555 1_555
C53 C52 1_555 1_555
H16 C53 1_555 1_555
C54 C53 1_555 1_555
C55 C54 1_555 1_555
C56 C15 1_555 1_555
N1 C2 1_555 1_555
N2 Gd2 1_555 1_555
N3 C15 1_555 1_555
N4 Gd3 1_555 1_555
N5 C29 1_555 1_555
N6 Gd4 1_555 1_555
N7 C46 1_555 1_555
N8 Gd5 1_555 1_555
O2 C1 1_555 1_555
O3 Gd2 1_555 1_555
O4 Gd1 1_555 1_555
H17 O4 1_555 1_555
H18 O4 1_555 1_555
O5 Gd1 1_555 1_555
H19 O5 1_555 1_555
H20 O5 1_555 1_555
O6 Gd1 1_555 1_555
H21 O6 1_555 1_555
H22 O6 1_555 1_555
O7 Gd1 1_555 1_555
H23 O7 1_555 1_555
H24 O7 1_555 1_555
O8 C6 1_555 1_555
H25 O8 1_555 1_555
O9 C6 1_555 1_555
O10 Gd2 1_555 1_555
O11 Gd3 1_555 1_555
O12 Gd2 1_555 1_555
H26 O12 1_555 1_555
H27 O12 1_555 1_555
O13 Gd2 1_555 1_555
H28 O13 1_555 1_555
H29 O13 1_555 1_555
O14 Gd3 1_555 1_555
O15 C56 1_555 1_555
O16 Gd3 1_555 1_555
O17 C27 1_555 1_555
O18 C23 1_555 1_555
O19 C23 1_555 1_555
O20 C19 1_555 1_555
O21 C19 1_555 1_555
O22 Gd3 1_555 1_555
H30 O22 1_555 1_555
H31 O22 1_555 1_555
O23 Gd3 1_555 1_555
H32 O23 1_555 1_555
H33 O23 1_555 1_555
O24 Gd2 1_555 1_555
O25 Gd4 1_555 1_555
O26 Gd4 1_555 1_555
H34 O26 1_555 1_555
H35 O26 1_555 1_555
O27 Gd4 1_555 1_555
H36 O27 1_555 1_555
H37 O27 1_555 1_555
O28 Gd4 1_555 1_555
O29 C41 1_555 1_555
O30 C33 1_555 1_555
O31 Gd5 1_555 1_555
O32 C37 1_555 1_555
O33 C37 1_555 1_555
O34 Gd4 1_555 1_555
O35 C42 1_555 1_555
O36 C51 1_555 1_555
O37 C51 1_555 1_555
O38 C47 1_555 1_555
O39 Gd5 1_555 1_555
O40 Gd5 1_555 1_555
O41 C55 1_555 1_555
O42 Gd5 1_555 1_555
H38 O42 1_555 1_555
H39 O42 1_555 1_555
O43 Gd5 1_555 1_555
H40 O43 1_555 1_555
H41 O43 1_555 1_555
O44 C10 1_555 1_555
O45 H42 1_555 1_555
H43 O45 1_555 1_555
O46 H44 1_555 1_555
H45 O46 1_555 1_555
O1A Gd2 1_555 1_555
Gd1A O18 1_555 1_555
Gd1A_2 O41 1_555 1_555
Gd2A O1 1_555 1_555
Gd3A O36 1_555 1_555
Gd4A O32 1_555 1_555
Gd5A O21 1_555 1_555
O18A Gd1 1_555 1_555
O19A Gd1 1_555 1_555
O21A Gd5 1_555 1_555
O32A Gd4 1_555 1_555
O36A Gd3 1_555 1_555
O41A Gd1 1_555 1_555
C1 O3 1_555 1_555
C7 N1 1_555 1_555
C8 N2 1_555 1_555
C13 N2 1_555 1_555
C14 O10 1_555 1_555
C14 O11 1_555 1_555
C20 N3 1_555 1_555
C21 N4 1_555 1_555
C26 N4 1_555 1_555
C27 O16 1_555 1_555
C28 O24 1_555 1_555
C28 O25 1_555 1_555
C33 O31 1_555 1_555
C34 N5 1_555 1_555
C35 N6 1_555 1_555
C40 N6 1_555 1_555
C41 O28 1_555 1_555
C42 O34 1_555 1_555
C47 O39 1_555 1_555
C48 N7 1_555 1_555
C49 N8 1_555 1_555
C54 N8 1_555 1_555
C55 O40 1_555 1_555
C56 O14 1_555 1_555
O19 Gd1A 1_555 1_555

#END
