
#######################################################################
#
#                 Cambridge Crystallographic Data Centre
#                                CCDC 
#
#######################################################################
#
# If this CIF has been generated from an entry in the Cambridge 
# Structural Database, then it will include bibliographic, chemical, 
# crystal, experimental, refinement or atomic coordinate data resulting 
# from the CCDC's data processing and validation procedures.
#
#######################################################################

data_VOZDAR
_symmetry_cell_setting           monoclinic
_symmetry_space_group_name_H-M   'C 2/c'
_symmetry_Int_Tables_number      15
_space_group_name_Hall           '-C 2yn'
loop_
_symmetry_equiv_pos_site_id
_symmetry_equiv_pos_as_xyz
1 x,y,z
2 -x,y,1/2-z
3 1/2+x,1/2+y,z
4 1/2-x,1/2+y,1/2-z
5 -x,-y,-z
6 x,-y,1/2+z
7 1/2-x,1/2-y,-z
8 1/2+x,1/2-y,1/2+z
_cell_length_a                   23.279(5)
_cell_length_b                   15.052(3)
_cell_length_c                   20.739(4)
_cell_angle_alpha                90
_cell_angle_beta                 106.21(3)
_cell_angle_gamma                90
_cell_volume                     6977.96
loop_
_atom_site_label
_atom_site_type_symbol
_atom_site_fract_x
_atom_site_fract_y
_atom_site_fract_z
Cd1 Cd 0.27171(2) 0.28680(3) 0.18536(3)
N1 N 0.2131(3) 0.2088(3) 0.0960(3)
N2 N 0.1235(3) 0.1623(4) 0.0428(4)
N3 N 0.2903(3) 0.4094(4) 0.1349(3)
N4 N 0.2981(3) 0.5486(4) 0.1083(3)
C1 C 0.3638(5) 0.1843(6) 0.2562(5)
C2 C 0.4090(4) 0.1226(5) 0.2995(4)
C3 C 0.3916(4) 0.0371(6) 0.3077(4)
H1 H 0.3532 0.0180 0.2853
C4 C 0.4317(4) -0.0209(5) 0.3498(4)
H2 H 0.4201 -0.0787 0.3559
C5 C 0.4882(4) 0.0076(5) 0.3821(4)
C6 C 0.5050(4) 0.0939(6) 0.3742(6)
H3 H 0.5433 0.1135 0.3965
C7 C 0.4647(4) 0.1509(6) 0.3328(6)
H4 H 0.4758 0.2093 0.3278
C8 C 0.5868(3) -0.0978(5) 0.3857(4)
C9 C 0.5646(4) -0.1548(6) 0.3327(4)
H5 H 0.5260 -0.1776 0.3237
C10 C 0.6018(4) -0.1770(6) 0.2931(4)
H6 H 0.5873 -0.2133 0.2558
C11 C 0.6599(4) -0.1461(5) 0.3084(4)
C12 C 0.6809(4) -0.0927(5) 0.3628(5)
H7 H 0.7202 -0.0728 0.3739
C13 C 0.6441(4) -0.0678(5) 0.4022(4)
H8 H 0.6585 -0.0310 0.4392
C14 C 0.6986(5) -0.1715(7) 0.2646(6)
C15 C 0.2094(3) 0.1186(5) 0.1040(4)
H9 H 0.2405 0.0831 0.1286
C16 C 0.1563(4) 0.0896(5) 0.0722(5)
H10 H 0.1431 0.0310 0.0698
C17 C 0.1605(4) 0.2348(5) 0.0597(4)
C18 C 0.1406(4) 0.3258(5) 0.0371(5)
H11 H 0.1642 0.3682 0.0679
H12 H 0.0993 0.3328 0.0355
H13 H 0.1455 0.3356 -0.0068
C19 C 0.0610(4) 0.1683(7) 0.0016(8)
H14 H 0.0598 0.1851 -0.0439
H15 H 0.0402 0.2136 0.0198
C20 C 0.0305(5) 0.0796(8) 0.0012(10)
C21 C 0.0103(5) 0.0573(8) 0.0562(9)
C22 C 0.0238(6) 0.1145(9) 0.1169(9)
H16 H 0.0631 0.1394 0.1245
H17 H 0.0222 0.0795 0.1550
H18 H -0.0051 0.1615 0.1103
C23 C -0.0212(5) -0.0254(10) 0.0549(9)
C24 C -0.0426(7) -0.0524(12) 0.1139(10)
H19 H -0.0563 -0.0010 0.1326
H20 H -0.0104 -0.0797 0.1473
H21 H -0.0750 -0.0940 0.0995
C25 C 0.2831(4) 0.4162(5) 0.0673(4)
H22 H 0.2755 0.3687 0.0374
C26 C 0.2884(4) 0.5010(5) 0.0504(4)
H23 H 0.2860 0.5229 0.0078
C27 C 0.2992(4) 0.4912(5) 0.1583(4)
C28 C 0.3116(6) 0.5188(6) 0.2302(4)
H24 H 0.3433 0.5618 0.2405
H25 H 0.3233 0.4678 0.2586
H26 H 0.2762 0.5445 0.2375
C29 C 0.3099(5) 0.6454(5) 0.1161(5)
H27 H 0.3526 0.6557 0.1260
H28 H 0.2969 0.6670 0.1538
C30 C 0.2779(4) 0.6970(4) 0.0537(4)
C31 C 0.3095(4) 0.7222(5) 0.0092(5)
C32 C 0.3723(5) 0.6896(7) 0.0155(6)
H29 H 0.3835 0.6467 0.0511
H30 H 0.3995 0.7389 0.0254
H31 H 0.3737 0.6627 -0.0260
C33 C 0.2812(5) 0.7782(5) -0.0459(4)
C34 C 0.3155(5) 0.8110(7) -0.0925(5)
H32 H 0.2953 0.8612 -0.1172
H33 H 0.3183 0.7645 -0.1231
H34 H 0.3550 0.8283 -0.0668
O1 O 0.3127(3) 0.1574(4) 0.2303(4)
O2 O 0.3777(3) 0.2596(6) 0.2475(4)
O3 O 0.6769(4) -0.2128(8) 0.2136(5)
O4 O 0.7509(4) -0.1490(5) 0.2794(4)
O5 O 0.5745(3) -0.0158(4) 0.4914(3)
O6 O 0.5067(2) -0.1432(4) 0.4456(3)
S1 S 0.53888(9) -0.06528(13) 0.43506(10)
N1D N -0.2131(3) -0.2088(3) -0.0960(3)
N2D N -0.1235(3) -0.1623(4) -0.0428(4)
C15D C -0.2094(3) -0.1186(5) -0.1040(4)
H9D H -0.2405 -0.0831 -0.1286
C16D C -0.1563(4) -0.0896(5) -0.0722(5)
H10D H -0.1431 -0.0310 -0.0698
C17D C -0.1605(4) -0.2348(5) -0.0597(4)
C18D C -0.1406(4) -0.3258(5) -0.0371(5)
H11D H -0.1642 -0.3682 -0.0679
H12D H -0.0993 -0.3328 -0.0355
H13D H -0.1455 -0.3356 0.0068
C19D C -0.0610(4) -0.1683(7) -0.0016(8)
H14D H -0.0598 -0.1851 0.0439
H15D H -0.0402 -0.2136 -0.0198
C20D C -0.0305(5) -0.0796(8) -0.0012(10)
C21D C -0.0103(5) -0.0573(8) -0.0562(9)
C22D C -0.0238(6) -0.1145(9) -0.1169(9)
H16D H -0.0631 -0.1394 -0.1245
H17D H -0.0222 -0.0795 -0.1550
H18D H 0.0051 -0.1615 -0.1103
C23D C 0.0212(5) 0.0254(10) -0.0549(9)
C24D C 0.0426(7) 0.0524(12) -0.1139(10)
H19D H 0.0563 0.0010 -0.1326
H20D H 0.0104 0.0797 -0.1473
H21D H 0.0750 0.0940 -0.0995
N3F N 0.2097(3) 1.0906(4) -0.1349(3)
N4F N 0.2019(3) 0.9514(4) -0.1083(3)
C25F C 0.2169(4) 1.0838(5) -0.0673(4)
H22F H 0.2245 1.1313 -0.0374
C26F C 0.2116(4) 0.9990(5) -0.0504(4)
H23F H 0.2140 0.9771 -0.0078
C27F C 0.2008(4) 1.0088(5) -0.1583(4)
C28F C 0.1884(6) 0.9812(6) -0.2302(4)
H24F H 0.1567 0.9382 -0.2405
H25F H 0.1767 1.0322 -0.2586
H26F H 0.2238 0.9555 -0.2375
C29F C 0.1901(5) 0.8546(5) -0.1161(5)
H27F H 0.1474 0.8443 -0.1260
H28F H 0.2031 0.8330 -0.1538
C30F C 0.2221(4) 0.8030(4) -0.0537(4)
C31F C 0.1905(4) 0.7778(5) -0.0092(5)
C32F C 0.1277(5) 0.8104(7) -0.0155(6)
H29F H 0.1165 0.8533 -0.0511
H30F H 0.1005 0.7611 -0.0254
H31F H 0.1263 0.8373 0.0260
C33F C 0.2188(5) 0.7218(5) 0.0459(4)
C34F C 0.1845(5) 0.6890(7) 0.0925(5)
H32F H 0.2047 0.6388 0.1172
H33F H 0.1817 0.7355 0.1231
H34F H 0.1450 0.6717 0.0668
Cd1D Cd -0.27171(2) -0.28680(3) -0.18536(3)
C1D C -0.3638(5) -0.1843(6) -0.2562(5)
C2D C -0.4090(4) -0.1226(5) -0.2995(4)
C3D C -0.3916(4) -0.0371(6) -0.3077(4)
H1D H -0.3532 -0.0180 -0.2853
C4D C -0.4317(4) 0.0209(5) -0.3498(4)
H2D H -0.4201 0.0787 -0.3559
C5D C -0.4882(4) -0.0076(5) -0.3821(4)
C6D C -0.5050(4) -0.0939(6) -0.3742(6)
H3D H -0.5433 -0.1135 -0.3965
C7D C -0.4647(4) -0.1509(6) -0.3328(6)
H4D H -0.4758 -0.2093 -0.3278
C8D C -0.5868(3) 0.0978(5) -0.3857(4)
C9D C -0.5646(4) 0.1548(6) -0.3327(4)
H5D H -0.5260 0.1776 -0.3237
C10D C -0.6018(4) 0.1770(6) -0.2931(4)
H6D H -0.5873 0.2133 -0.2558
C11D C -0.6599(4) 0.1461(5) -0.3084(4)
C12D C -0.6809(4) 0.0927(5) -0.3628(5)
H7D H -0.7202 0.0728 -0.3739
C13D C -0.6441(4) 0.0678(5) -0.4022(4)
H8D H -0.6585 0.0310 -0.4392
C14D C -0.6986(5) 0.1715(7) -0.2646(6)
O1D O -0.3127(3) -0.1574(4) -0.2303(4)
O2D O -0.3777(3) -0.2596(6) -0.2475(4)
O3D O -0.6769(4) 0.2128(8) -0.2136(5)
O4D O -0.7509(4) 0.1490(5) -0.2794(4)
O5D O -0.5745(3) 0.0158(4) -0.4914(3)
O6D O -0.5067(2) 0.1432(4) -0.4456(3)
S1D S -0.53888(9) 0.06528(13) -0.43506(10)
Cd1B Cd 0.77171(2) -0.21320(3) 0.18536(3)
Cd1F Cd -0.77171(2) 0.21320(3) -0.18536(3)
Cd1F_2 Cd 0.22829(2) 1.21320(3) -0.18536(3)
N3D N -0.2903(3) -0.4094(4) -0.1349(3)
O3B O 0.1769(4) 0.2872(8) 0.2136(5)
O3F O -0.1769(4) -0.2872(8) -0.2136(5)
O4B O 0.2509(4) 0.3510(5) 0.2794(4)
O4F O -0.2509(4) -0.3510(5) -0.2794(4)
loop_
_geom_bond_atom_site_label_1
_geom_bond_atom_site_label_2
_geom_bond_site_symmetry_1
_geom_bond_site_symmetry_2
Cd1 N1 1_555 1_555
N1 C15 1_555 1_555
N2 C16 1_555 1_555
N3 Cd1 1_555 1_555
N4 C26 1_555 1_555
C1 C2 1_555 1_555
C2 C3 1_555 1_555
C3 H1 1_555 1_555
C4 C3 1_555 1_555
H2 C4 1_555 1_555
C5 C4 1_555 1_555
C6 C5 1_555 1_555
H3 C6 1_555 1_555
C7 C2 1_555 1_555
H4 C7 1_555 1_555
C8 C9 1_555 1_555
C9 H5 1_555 1_555
C10 C9 1_555 1_555
H6 C10 1_555 1_555
C11 C10 1_555 1_555
C12 C11 1_555 1_555
H7 C12 1_555 1_555
C13 C8 1_555 1_555
H8 C13 1_555 1_555
C14 C11 1_555 1_555
C15 H9 1_555 1_555
C16 C15 1_555 1_555
H10 C16 1_555 1_555
C17 N1 1_555 1_555
C18 C17 1_555 1_555
H11 C18 1_555 1_555
H12 C18 1_555 1_555
H13 C18 1_555 1_555
C19 N2 1_555 1_555
H14 C19 1_555 1_555
H15 C19 1_555 1_555
C20 C19 1_555 1_555
C21 C20 1_555 1_555
C22 C21 1_555 1_555
H16 C22 1_555 1_555
H17 C22 1_555 1_555
H18 C22 1_555 1_555
C23 C21 1_555 1_555
C24 C23 1_555 1_555
H19 C24 1_555 1_555
H20 C24 1_555 1_555
H21 C24 1_555 1_555
C25 N3 1_555 1_555
H22 C25 1_555 1_555
C26 C25 1_555 1_555
H23 C26 1_555 1_555
C27 N3 1_555 1_555
C28 C27 1_555 1_555
H24 C28 1_555 1_555
H25 C28 1_555 1_555
H26 C28 1_555 1_555
C29 N4 1_555 1_555
H27 C29 1_555 1_555
H28 C29 1_555 1_555
C30 C29 1_555 1_555
C31 C30 1_555 1_555
C32 C31 1_555 1_555
H29 C32 1_555 1_555
H30 C32 1_555 1_555
H31 C32 1_555 1_555
C33 C31 1_555 1_555
C34 C33 1_555 1_555
H32 C34 1_555 1_555
H33 C34 1_555 1_555
H34 C34 1_555 1_555
O1 Cd1 1_555 1_555
O2 Cd1 1_555 1_555
O3 C14 1_555 1_555
O4 C14 1_555 1_555
O5 S1 1_555 1_555
O6 S1 1_555 1_555
S1 C5 1_555 1_555
N1D C15D 1_555 1_555
N2D C16D 1_555 1_555
C15D H9D 1_555 1_555
C16D C15D 1_555 1_555
H10D C16D 1_555 1_555
C17D N1D 1_555 1_555
C18D C17D 1_555 1_555
H11D C18D 1_555 1_555
H12D C18D 1_555 1_555
H13D C18D 1_555 1_555
C19D N2D 1_555 1_555
H14D C19D 1_555 1_555
H15D C19D 1_555 1_555
C20D C23 1_555 1_555
C21D C20D 1_555 1_555
C22D C21D 1_555 1_555
H16D C22D 1_555 1_555
H17D C22D 1_555 1_555
H18D C22D 1_555 1_555
C23D C20 1_555 1_555
C24D C23D 1_555 1_555
H19D C24D 1_555 1_555
H20D C24D 1_555 1_555
H21D C24D 1_555 1_555
N3F C25F 1_555 1_555
N4F C26F 1_555 1_555
C25F H22F 1_555 1_555
C26F C25F 1_555 1_555
H23F C26F 1_555 1_555
C27F N3F 1_555 1_555
C28F C27F 1_555 1_555
H24F C28F 1_555 1_555
H25F C28F 1_555 1_555
H26F C28F 1_555 1_555
C29F N4F 1_555 1_555
H27F C29F 1_555 1_555
H28F C29F 1_555 1_555
C30F C33 1_555 1_555
C31F C30F 1_555 1_555
C32F C31F 1_555 1_555
H29F C32F 1_555 1_555
H30F C32F 1_555 1_555
H31F C32F 1_555 1_555
C33F C30 1_555 1_555
C34F C33F 1_555 1_555
H32F C34F 1_555 1_555
H33F C34F 1_555 1_555
H34F C34F 1_555 1_555
Cd1D N1D 1_555 1_555
C1D C2D 1_555 1_555
C2D C3D 1_555 1_555
C3D H1D 1_555 1_555
C4D C3D 1_555 1_555
H2D C4D 1_555 1_555
C5D C4D 1_555 1_555
C6D C5D 1_555 1_555
H3D C6D 1_555 1_555
C7D C2D 1_555 1_555
H4D C7D 1_555 1_555
C8D C9D 1_555 1_555
C9D H5D 1_555 1_555
C10D C9D 1_555 1_555
H6D C10D 1_555 1_555
C11D C10D 1_555 1_555
C12D C11D 1_555 1_555
H7D C12D 1_555 1_555
C13D C8D 1_555 1_555
H8D C13D 1_555 1_555
C14D C11D 1_555 1_555
O1D Cd1D 1_555 1_555
O2D Cd1D 1_555 1_555
O3D C14D 1_555 1_555
O4D C14D 1_555 1_555
O5D S1D 1_555 1_555
O6D S1D 1_555 1_555
S1D C5D 1_555 1_555
Cd1B O3 1_555 1_555
Cd1F O3D 1_555 1_555
Cd1F_2 N3F 1_555 1_555
N3D Cd1D 1_555 1_555
O3B Cd1 1_555 1_555
O3F Cd1D 1_555 1_555
O4B Cd1 1_555 1_555
O4F Cd1D 1_555 1_555
N2 C17 1_555 1_555
N4 C27 1_555 1_555
C1 O1 1_555 1_555
C1 O2 1_555 1_555
C6 C7 1_555 1_555
C8 S1 1_555 1_555
C12 C13 1_555 1_555
O4 Cd1B 1_555 1_555
N2D C17D 1_555 1_555
C19D C20D 1_555 1_555
C21D C23D 1_555 1_555
N4F C27F 1_555 1_555
C29F C30F 1_555 1_555
C31F C33F 1_555 1_555
C1D O1D 1_555 1_555
C1D O2D 1_555 1_555
C6D C7D 1_555 1_555
C8D S1D 1_555 1_555
C12D C13D 1_555 1_555
O4D Cd1F 1_555 1_555

#END
