
#######################################################################
#
#                 Cambridge Crystallographic Data Centre
#                                CCDC 
#
#######################################################################
#
# If this CIF has been generated from an entry in the Cambridge 
# Structural Database, then it will include bibliographic, chemical, 
# crystal, experimental, refinement or atomic coordinate data resulting 
# from the CCDC's data processing and validation procedures.
#
#######################################################################

data_VOZHEX
_symmetry_cell_setting           monoclinic
_symmetry_space_group_name_H-M   'P 21/c'
_symmetry_Int_Tables_number      14
_space_group_name_Hall           '-P 2ybc'
loop_
_symmetry_equiv_pos_site_id
_symmetry_equiv_pos_as_xyz
1 x,y,z
2 -x,1/2+y,1/2-z
3 -x,-y,-z
4 x,1/2-y,1/2+z
_cell_length_a                   8.292(1)
_cell_length_b                   10.394(2)
_cell_length_c                   10.852(2)
_cell_angle_alpha                90
_cell_angle_beta                 102.73(1)
_cell_angle_gamma                90
_cell_volume                     912.311
loop_
_atom_site_label
_atom_site_type_symbol
_atom_site_fract_x
_atom_site_fract_y
_atom_site_fract_z
Ag1 Ag 0.87408(7) -0.52828(6) -0.22845(6)
S1 S 0.1183(2) -0.2020(2) -0.5596(2)
O1 O 0.0370(6) -0.3097(5) -0.6323(5)
O2 O 0.1185(6) -0.0851(5) -0.6307(5)
O3 O 0.0521(5) -0.1820(5) -0.4458(5)
O4 O 0.8262(5) -0.3288(5) -0.3747(5)
N1 N 0.6025(6) -0.4844(5) -0.3096(5)
C1 C 0.6672(7) -0.2973(7) -0.4180(6)
C2 C 0.6168(8) -0.1927(7) -0.4927(7)
C3 C 0.4467(9) -0.1654(7) -0.5366(7)
C4 C 0.3298(7) -0.2419(7) -0.5047(6)
C5 C 0.2630(8) -0.4421(7) -0.3940(6)
C6 C 0.3200(8) -0.5472(7) -0.3246(7)
C7 C 0.4905(9) -0.5656(7) -0.2818(6)
C8 C 0.3758(8) -0.3528(7) -0.4275(6)
C9 C 0.5470(8) -0.3798(6) -0.3834(6)
Ag1C Ag -0.12592(7) 0.02828(6) -0.72845(6)
Ag1A Ag 0.12592(7) -0.02828(6) -0.27155(6)
Ag1B Ag 0.12592(7) -0.47172(6) -0.77155(6)
O1B O 0.9630(6) -0.6903(5) -0.3677(5)
O2C O 1.1185(6) -0.4149(5) -0.1307(5)
O3A O 0.9479(5) -0.6820(5) -0.0542(5)
loop_
_geom_bond_atom_site_label_1
_geom_bond_atom_site_label_2
_geom_bond_site_symmetry_1
_geom_bond_site_symmetry_2
Ag1 O4 1_555 1_555
S1 O1 1_555 1_555
O1 Ag1B 1_555 1_555
O2 S1 1_555 1_555
O3 S1 1_555 1_555
O4 C1 1_555 1_555
N1 Ag1 1_555 1_555
C1 C2 1_555 1_555
C2 C3 1_555 1_555
C3 C4 1_555 1_555
C4 S1 1_555 1_555
C5 C6 1_555 1_555
C6 C7 1_555 1_555
C7 N1 1_555 1_555
C8 C4 1_555 1_555
C9 N1 1_555 1_555
Ag1C O2 1_555 1_555
Ag1A O3 1_555 1_555
O1B Ag1 1_555 1_555
O2C Ag1 1_555 1_555
O3A Ag1 1_555 1_555
C1 C9 1_555 1_555
C5 C8 1_555 1_555
C8 C9 1_555 1_555

#END
