
#######################################################################
#
#                 Cambridge Crystallographic Data Centre
#                                CCDC 
#
#######################################################################
#
# If this CIF has been generated from an entry in the Cambridge 
# Structural Database, then it will include bibliographic, chemical, 
# crystal, experimental, refinement or atomic coordinate data resulting 
# from the CCDC's data processing and validation procedures.
#
#######################################################################

data_VOZQEI02
_symmetry_cell_setting           monoclinic
_symmetry_space_group_name_H-M   'P 21'
_symmetry_Int_Tables_number      4
_space_group_name_Hall           'P 2yb'
loop_
_symmetry_equiv_pos_site_id
_symmetry_equiv_pos_as_xyz
1 x,y,z
2 -x,1/2+y,-z
_cell_length_a                   8.0045(2)
_cell_length_b                   6.8435(2)
_cell_length_c                   14.0451(4)
_cell_angle_alpha                90
_cell_angle_beta                 103.689(2)
_cell_angle_gamma                90
_cell_volume                     747.519
loop_
_atom_site_label
_atom_site_type_symbol
_atom_site_fract_x
_atom_site_fract_y
_atom_site_fract_z
Cu1 Cu 0.57718(3) 0.74495(5) 0.847624(19)
O1 O 0.4212(3) 0.5337(3) 0.80277(15)
N1 N 0.4653(3) 0.9031(3) 0.73650(15)
C1 C 0.9000(4) 0.9149(5) 0.8367(2)
H1 H 0.9565 0.8017 0.8698
H2 H 0.9794 1.0222 0.8455
H3 H 0.8603 0.8871 0.7680
N2 N 0.6153(4) 0.3983(5) 1.0602(2)
N3 N 0.7212(3) 0.5791(4) 0.9482(2)
N4 N 0.6636(3) 0.4908(3) 1.00496(17)
C2 C 0.5581(4) 1.0838(4) 0.7257(2)
H4 H 0.4777 1.1866 0.6982
H5 H 0.6347 1.0625 0.6825
C3 C 0.6603(4) 1.1405(4) 0.8278(2)
H6 H 0.7426 1.2419 0.8229
H7 H 0.5832 1.1914 0.8657
N5 N 0.7524(3) 0.9664(3) 0.87766(16)
C4 C 0.8147(4) 1.0085(5) 0.9834(2)
H8 H 0.8732 0.8959 1.0161
H9 H 0.7189 1.0397 1.0108
H10 H 0.8926 1.1173 0.9921
C5 C 0.3102(4) 0.8784(4) 0.68397(19)
H11 H 0.2646 0.9760 0.6393
C6 C 0.2042(3) 0.7139(4) 0.68933(17)
C7 C 0.0247(3) 0.7151(4) 0.63294(17)
C8 C -0.0812(4) 0.5547(5) 0.6398(2)
C9 C -0.2573(4) 0.5585(5) 0.5913(2)
H12 H -0.3269 0.4524 0.5969
C10 C -0.3266(4) 0.7166(7) 0.5360(2)
H13 H -0.4434 0.7201 0.5062
C11 C -0.2218(4) 0.8701(5) 0.5250(2)
H14 H -0.2680 0.9742 0.4848
C12 C -0.0499(4) 0.8734(5) 0.5723(2)
H15 H 0.0176 0.9800 0.5645
C13 C -0.0100(4) 0.3896(4) 0.6975(2)
H16 H -0.0788 0.2810 0.6996
C14 C 0.1548(4) 0.3883(4) 0.7487(2)
H17 H 0.1970 0.2785 0.7857
C15 C 0.2666(4) 0.5501(4) 0.7480(2)
Cu1A Cu 0.42282(3) 0.24495(5) 1.152376(19)
N2A N 0.3847(4) 0.8983(5) 0.9398(2)
loop_
_geom_bond_atom_site_label_1
_geom_bond_atom_site_label_2
_geom_bond_site_symmetry_1
_geom_bond_site_symmetry_2
Cu1 O1 1_555 1_555
O1 C15 1_555 1_555
N1 Cu1 1_555 1_555
C1 H1 1_555 1_555
H2 C1 1_555 1_555
H3 C1 1_555 1_555
N2 N4 1_555 1_555
N3 Cu1 1_555 1_555
N4 N3 1_555 1_555
C2 N1 1_555 1_555
H4 C2 1_555 1_555
H5 C2 1_555 1_555
C3 C2 1_555 1_555
H6 C3 1_555 1_555
H7 C3 1_555 1_555
N5 Cu1 1_555 1_555
C4 N5 1_555 1_555
H8 C4 1_555 1_555
H9 C4 1_555 1_555
H10 C4 1_555 1_555
C5 N1 1_555 1_555
H11 C5 1_555 1_555
C6 C5 1_555 1_555
C7 C6 1_555 1_555
C8 C7 1_555 1_555
C9 C8 1_555 1_555
H12 C9 1_555 1_555
C10 C9 1_555 1_555
H13 C10 1_555 1_555
C11 C10 1_555 1_555
H14 C11 1_555 1_555
C12 C7 1_555 1_555
H15 C12 1_555 1_555
C13 C8 1_555 1_555
H16 C13 1_555 1_555
C14 C13 1_555 1_555
H17 C14 1_555 1_555
C15 C6 1_555 1_555
Cu1A N2 1_555 1_555
N2A Cu1 1_555 1_555
C1 N5 1_555 1_555
C3 N5 1_555 1_555
C11 C12 1_555 1_555
C14 C15 1_555 1_555

#END
