
#######################################################################
#
#                 Cambridge Crystallographic Data Centre
#                                CCDC 
#
#######################################################################
#
# If this CIF has been generated from an entry in the Cambridge 
# Structural Database, then it will include bibliographic, chemical, 
# crystal, experimental, refinement or atomic coordinate data resulting 
# from the CCDC's data processing and validation procedures.
#
#######################################################################

data_VOZRUZ
_symmetry_cell_setting           monoclinic
_symmetry_space_group_name_H-M   'P 21'
_symmetry_Int_Tables_number      4
_space_group_name_Hall           'P 2yb'
loop_
_symmetry_equiv_pos_site_id
_symmetry_equiv_pos_as_xyz
1 x,y,z
2 -x,1/2+y,-z
_cell_length_a                   8.0058(3)
_cell_length_b                   6.8434(2)
_cell_length_c                   14.0474(5)
_cell_angle_alpha                90
_cell_angle_beta                 103.658(2)
_cell_angle_gamma                90
_cell_volume                     747.851
loop_
_atom_site_label
_atom_site_type_symbol
_atom_site_fract_x
_atom_site_fract_y
_atom_site_fract_z
Cu1 Cu 0.57708(4) 0.74228(6) 0.84759(2)
O1 O 0.4208(3) 0.5318(3) 0.80274(17)
N1 N 0.7525(3) 0.9638(3) 0.87789(18)
N2 N 0.4654(3) 0.9011(3) 0.73641(17)
C1 C -0.0818(4) 0.5523(5) 0.6397(2)
N3 N 0.6632(4) 0.4883(4) 1.0046(2)
N4 N 0.6165(5) 0.3957(6) 1.0607(3)
C2 C 0.8998(4) 0.9132(5) 0.8371(3)
H1 H 0.9566 0.8001 0.8701
H2 H 0.9788 1.0209 0.8460
H3 H 0.8602 0.8856 0.7684
C3 C 0.8150(5) 1.0057(5) 0.9840(2)
H4 H 0.7192 1.0384 1.0112
H5 H 0.8939 1.1134 0.9928
H6 H 0.8722 0.8924 1.0166
C4 C 0.6595(4) 1.1371(4) 0.8282(2)
H7 H 0.7409 1.2396 0.8238
H8 H 0.5814 1.1864 0.8659
C5 C 0.5587(4) 1.0807(4) 0.7259(2)
H9 H 0.4789 1.1838 0.6981
H10 H 0.6362 1.0588 0.6833
C6 C 0.3108(4) 0.8757(4) 0.6841(2)
H11 H 0.2656 0.9730 0.6392
C7 C 0.2037(4) 0.7113(5) 0.68924(19)
C8 C 0.2672(4) 0.5483(4) 0.7480(2)
C9 C 0.1545(4) 0.3850(5) 0.7485(2)
H12 H 0.1965 0.2745 0.7848
C10 C -0.0096(5) 0.3885(5) 0.6978(3)
H13 H -0.0789 0.2805 0.7005
C11 C -0.2569(5) 0.5565(6) 0.5914(3)
H14 H -0.3264 0.4504 0.5972
C12 C -0.3263(5) 0.7123(7) 0.5363(2)
H15 H -0.4431 0.7149 0.5064
C13 C -0.2213(5) 0.8675(6) 0.5253(3)
H16 H -0.2674 0.9716 0.4851
C14 C -0.0502(4) 0.8702(5) 0.5726(2)
H17 H 0.0169 0.9772 0.5650
C15 C 0.0253(4) 0.7130(5) 0.63281(19)
N5 N 0.7213(4) 0.5770(4) 0.9485(2)
Cu1A Cu 0.42292(4) 0.24228(6) 1.15241(2)
N4A N 0.3835(5) 0.8957(6) 0.9393(3)
loop_
_geom_bond_atom_site_label_1
_geom_bond_atom_site_label_2
_geom_bond_site_symmetry_1
_geom_bond_site_symmetry_2
Cu1 O1 1_555 1_555
O1 C8 1_555 1_555
N1 Cu1 1_555 1_555
N2 Cu1 1_555 1_555
C1 C10 1_555 1_555
N3 N4 1_555 1_555
N4 Cu1A 1_555 1_555
C2 N1 1_555 1_555
H1 C2 1_555 1_555
H2 C2 1_555 1_555
H3 C2 1_555 1_555
C3 N1 1_555 1_555
H4 C3 1_555 1_555
H5 C3 1_555 1_555
H6 C3 1_555 1_555
C4 N1 1_555 1_555
H7 C4 1_555 1_555
H8 C4 1_555 1_555
C5 N2 1_555 1_555
H9 C5 1_555 1_555
H10 C5 1_555 1_555
C6 N2 1_555 1_555
H11 C6 1_555 1_555
C7 C6 1_555 1_555
C8 C7 1_555 1_555
C9 C8 1_555 1_555
H12 C9 1_555 1_555
C10 C9 1_555 1_555
H13 C10 1_555 1_555
C11 C1 1_555 1_555
H14 C11 1_555 1_555
C12 C11 1_555 1_555
H15 C12 1_555 1_555
C13 C12 1_555 1_555
H16 C13 1_555 1_555
C14 C13 1_555 1_555
H17 C14 1_555 1_555
C15 C1 1_555 1_555
N5 Cu1 1_555 1_555
N4A Cu1 1_555 1_555
N3 N5 1_555 1_555
C4 C5 1_555 1_555
C7 C15 1_555 1_555
C14 C15 1_555 1_555

#END
