
#######################################################################
#
#                 Cambridge Crystallographic Data Centre
#                                CCDC 
#
#######################################################################
#
# If this CIF has been generated from an entry in the Cambridge 
# Structural Database, then it will include bibliographic, chemical, 
# crystal, experimental, refinement or atomic coordinate data resulting 
# from the CCDC's data processing and validation procedures.
#
#######################################################################

data_VOZSIO
_symmetry_cell_setting           monoclinic
_symmetry_space_group_name_H-M   'P 21'
_symmetry_Int_Tables_number      4
_space_group_name_Hall           'P 2yb'
loop_
_symmetry_equiv_pos_site_id
_symmetry_equiv_pos_as_xyz
1 x,y,z
2 -x,1/2+y,-z
_cell_length_a                   8.0030(2)
_cell_length_b                   6.8474(2)
_cell_length_c                   14.0460(4)
_cell_angle_alpha                90
_cell_angle_beta                 103.701(2)
_cell_angle_gamma                90
_cell_volume                     747.815
loop_
_atom_site_label
_atom_site_type_symbol
_atom_site_fract_x
_atom_site_fract_y
_atom_site_fract_z
Cu1 Cu 0.42280(4) 0.24336(7) 0.15237(2)
O1 O 0.5784(3) 0.4547(4) 0.19711(18)
N1 N 0.3839(4) 0.5897(7) -0.0609(3)
N2 N 0.2785(4) 0.4086(5) 0.0512(2)
N3 N 0.3366(3) 0.4975(5) -0.0047(2)
N4 N 0.5344(3) 0.0845(4) 0.26357(18)
N5 N 0.2477(3) 0.0226(4) 0.12225(19)
C1 C 0.6901(4) 0.1105(5) 0.3161(2)
H1 H 0.7358 0.0133 0.3610
C2 C 0.7963(4) 0.2747(6) 0.3109(2)
C3 C 0.7335(4) 0.4363(5) 0.2524(2)
C4 C 0.8446(4) 0.6010(6) 0.2510(2)
H2 H 0.8020 0.7108 0.2142
C5 C 1.0101(4) 0.5979(6) 0.3027(3)
H3 H 1.0796 0.7060 0.3007
C6 C 1.0802(4) 0.4342(6) 0.3599(2)
C7 C 1.2576(5) 0.4300(7) 0.4085(3)
H4 H 1.3277 0.5354 0.4027
C8 C 1.3259(4) 0.2722(9) 0.4639(2)
H5 H 1.4425 0.2693 0.4942
C9 C 1.2220(4) 0.1177(7) 0.4748(3)
H6 H 1.2687 0.0132 0.5146
C10 C 1.0497(4) 0.1150(6) 0.4276(2)
H7 H 0.9820 0.0087 0.4356
C11 C 0.9754(4) 0.2726(6) 0.3672(2)
C12 C 0.4420(4) -0.0943(5) 0.2744(2)
H8 H 0.3653 -0.0725 0.3175
H9 H 0.5223 -0.1972 0.3021
C13 C 0.3395(4) -0.1513(5) 0.1721(2)
H10 H 0.4166 -0.2022 0.1343
H11 H 0.2572 -0.2525 0.1770
C14 C 0.1849(5) -0.0200(6) 0.0162(3)
H12 H 0.1266 0.0926 -0.0165
H13 H 0.1067 -0.1285 0.0077
H14 H 0.2806 -0.0518 -0.0111
C15 C 0.0996(4) 0.0725(6) 0.1635(3)
H15 H 0.0427 0.1859 0.1309
H16 H 0.1394 0.0992 0.2323
H17 H 0.0205 -0.0351 0.1543
Cu1A Cu 0.57720(4) 0.74336(7) -0.15237(2)
N1A N 0.6161(4) 0.0897(7) 0.0609(3)
loop_
_geom_bond_atom_site_label_1
_geom_bond_atom_site_label_2
_geom_bond_site_symmetry_1
_geom_bond_site_symmetry_2
Cu1 O1 1_555 1_555
O1 C3 1_555 1_555
N1 N3 1_555 1_555
N2 Cu1 1_555 1_555
N3 N2 1_555 1_555
N4 Cu1 1_555 1_555
N5 Cu1 1_555 1_555
C1 N4 1_555 1_555
H1 C1 1_555 1_555
C2 C1 1_555 1_555
C3 C2 1_555 1_555
C4 C3 1_555 1_555
H2 C4 1_555 1_555
C5 C4 1_555 1_555
H3 C5 1_555 1_555
C6 C5 1_555 1_555
C7 C6 1_555 1_555
H4 C7 1_555 1_555
C8 C7 1_555 1_555
H5 C8 1_555 1_555
C9 C8 1_555 1_555
H6 C9 1_555 1_555
C10 C9 1_555 1_555
H7 C10 1_555 1_555
C11 C2 1_555 1_555
C12 N4 1_555 1_555
H8 C12 1_555 1_555
H9 C12 1_555 1_555
C13 N5 1_555 1_555
H10 C13 1_555 1_555
H11 C13 1_555 1_555
C14 N5 1_555 1_555
H12 C14 1_555 1_555
H13 C14 1_555 1_555
H14 C14 1_555 1_555
C15 N5 1_555 1_555
H15 C15 1_555 1_555
H16 C15 1_555 1_555
H17 C15 1_555 1_555
Cu1A N1 1_555 1_555
N1A Cu1 1_555 1_555
C6 C11 1_555 1_555
C10 C11 1_555 1_555
C12 C13 1_555 1_555

#END
