
#######################################################################
#
#                 Cambridge Crystallographic Data Centre
#                                CCDC 
#
#######################################################################
#
# If this CIF has been generated from an entry in the Cambridge 
# Structural Database, then it will include bibliographic, chemical, 
# crystal, experimental, refinement or atomic coordinate data resulting 
# from the CCDC's data processing and validation procedures.
#
#######################################################################

data_VOZTAH
_symmetry_cell_setting           monoclinic
_symmetry_space_group_name_H-M   'P 21'
_symmetry_Int_Tables_number      4
_space_group_name_Hall           'P 2yb'
loop_
_symmetry_equiv_pos_site_id
_symmetry_equiv_pos_as_xyz
1 x,y,z
2 -x,1/2+y,-z
_cell_length_a                   8.0004(2)
_cell_length_b                   6.8446(2)
_cell_length_c                   14.0490(4)
_cell_angle_alpha                90
_cell_angle_beta                 103.671(2)
_cell_angle_gamma                90
_cell_volume                     747.521
loop_
_atom_site_label
_atom_site_type_symbol
_atom_site_fract_x
_atom_site_fract_y
_atom_site_fract_z
Cu1 Cu 0.42284(4) 0.23969(6) 0.15237(2)
O1 O 0.5784(3) 0.0292(3) 0.19738(16)
N1 N 0.5343(3) 0.3984(3) 0.26367(16)
C1 C 0.6892(4) 0.3735(4) 0.3162(2)
H1 H 0.7345 0.4708 0.3611
C2 C 1.0813(4) 0.0499(5) 0.3602(2)
N2 N 0.2783(3) 0.0753(4) 0.0514(2)
N3 N 0.3368(3) -0.0142(4) -0.0048(2)
C3 C 0.7960(3) 0.2091(5) 0.31082(18)
C4 C 0.7327(4) 0.0457(4) 0.2519(2)
C5 C 0.8445(4) -0.1175(5) 0.2512(2)
H2 H 0.8022 -0.2277 0.2147
C6 C 1.0101(4) -0.1144(5) 0.3026(2)
H3 H 1.0795 -0.2225 0.3002
C7 C 0.9755(3) 0.2093(5) 0.36729(18)
C8 C 1.0503(4) 0.3677(5) 0.4279(2)
H4 H 0.9826 0.4740 0.4359
C9 C 1.2215(4) 0.3655(6) 0.4749(2)
H5 H 1.2680 0.4703 0.5145
C10 C 1.3262(4) 0.2099(7) 0.4642(2)
H6 H 1.4427 0.2122 0.4949
C11 C 1.2576(4) 0.0531(6) 0.4084(2)
H7 H 1.3274 -0.0525 0.4021
C12 C 0.4422(4) 0.5784(4) 0.2744(2)
H8 H 0.5228 0.6810 0.3019
H9 H 0.3654 0.5573 0.3174
C13 C 0.3401(4) 0.6353(4) 0.1721(2)
H10 H 0.2580 0.7369 0.1769
H11 H 0.4174 0.6858 0.1342
N4 N 0.2477(3) 0.4612(3) 0.12228(17)
C14 C 0.1004(4) 0.4101(5) 0.1631(2)
H12 H 0.1400 0.3832 0.2318
H13 H 0.0441 0.2965 0.1303
H14 H 0.0207 0.5173 0.1538
C15 C 0.1850(4) 0.5034(5) 0.0162(2)
H15 H 0.2809 0.5346 -0.0112
H16 H 0.1071 0.6122 0.0075
H17 H 0.1264 0.3908 -0.0164
N5 N 0.3839(4) -0.1070(6) -0.0606(2)
Cu1A Cu 0.57716(4) -0.26031(6) -0.15237(2)
N5A N 0.6161(4) 0.3930(6) 0.0606(2)
loop_
_geom_bond_atom_site_label_1
_geom_bond_atom_site_label_2
_geom_bond_site_symmetry_1
_geom_bond_site_symmetry_2
Cu1 O1 1_555 1_555
O1 C4 1_555 1_555
N1 Cu1 1_555 1_555
C1 N1 1_555 1_555
H1 C1 1_555 1_555
C2 C6 1_555 1_555
N2 Cu1 1_555 1_555
N3 N2 1_555 1_555
C3 C1 1_555 1_555
C4 C3 1_555 1_555
C5 C4 1_555 1_555
H2 C5 1_555 1_555
C6 C5 1_555 1_555
H3 C6 1_555 1_555
C7 C2 1_555 1_555
C8 C7 1_555 1_555
H4 C8 1_555 1_555
C9 C8 1_555 1_555
H5 C9 1_555 1_555
C10 C9 1_555 1_555
H6 C10 1_555 1_555
C11 C2 1_555 1_555
H7 C11 1_555 1_555
C12 N1 1_555 1_555
H8 C12 1_555 1_555
H9 C12 1_555 1_555
C13 C12 1_555 1_555
H10 C13 1_555 1_555
H11 C13 1_555 1_555
N4 Cu1 1_555 1_555
C14 N4 1_555 1_555
H12 C14 1_555 1_555
H13 C14 1_555 1_555
H14 C14 1_555 1_555
C15 N4 1_555 1_555
H15 C15 1_555 1_555
H16 C15 1_555 1_555
H17 C15 1_555 1_555
N5 N3 1_555 1_555
Cu1A N5 1_555 1_555
N5A Cu1 1_555 1_555
C3 C7 1_555 1_555
C10 C11 1_555 1_555
C13 N4 1_555 1_555

#END
