
#######################################################################
#
#                 Cambridge Crystallographic Data Centre
#                                CCDC 
#
#######################################################################
#
# If this CIF has been generated from an entry in the Cambridge 
# Structural Database, then it will include bibliographic, chemical, 
# crystal, experimental, refinement or atomic coordinate data resulting 
# from the CCDC's data processing and validation procedures.
#
#######################################################################

data_VUCCON
_symmetry_cell_setting           rhombohedral
_symmetry_space_group_name_H-M   'R -3'
_symmetry_Int_Tables_number      148
_space_group_name_Hall           '-R 3'
loop_
_symmetry_equiv_pos_site_id
_symmetry_equiv_pos_as_xyz
1 x,y,z
2 -y,x-y,z
3 -x+y,-x,z
4 2/3+x,1/3+y,1/3+z
5 2/3-y,1/3+x-y,1/3+z
6 2/3-x+y,1/3-x,1/3+z
7 1/3+x,2/3+y,2/3+z
8 1/3-y,2/3+x-y,2/3+z
9 1/3-x+y,2/3-x,2/3+z
10 -x,-y,-z
11 y,-x+y,-z
12 x-y,x,-z
13 1/3-x,2/3-y,2/3-z
14 1/3+y,2/3-x+y,2/3-z
15 1/3+x-y,2/3+x,2/3-z
16 2/3-x,1/3-y,1/3-z
17 2/3+y,1/3-x+y,1/3-z
18 2/3+x-y,1/3+x,1/3-z
_cell_length_a                   10.21050(10)
_cell_length_b                   10.21050(10)
_cell_length_c                   31.2223(5)
_cell_angle_alpha                90
_cell_angle_beta                 90
_cell_angle_gamma                120
_cell_volume                     2818.96
loop_
_atom_site_label
_atom_site_type_symbol
_atom_site_fract_x
_atom_site_fract_y
_atom_site_fract_z
La1 La 0.0000 0.0000 0.0000
La2 La 0.0000 0.0000 0.131704(3)
O1 O 0.28224(14) 0.19255(15) 0.02156(4)
O2 O 0.16627(11) 0.01084(11) 0.06913(3)
O3 O 0.25472(11) 0.25039(12) 0.13081(3)
O4 O 0.49572(13) 0.35542(13) 0.14837(3)
C1 C 0.28158(14) 0.13215(15) 0.05631(4)
C2 C 0.41735(15) 0.20646(17) 0.08514(4)
H1 H 0.446(2) 0.135(2) 0.0958(7)
H2 H 0.500(2) 0.285(2) 0.0703(7)
C3 C 0.38616(13) 0.27459(13) 0.12442(4)
O1A O -0.19255(15) 0.08969(21) 0.02156(4)
O2A O -0.01084(11) 0.15543(16) 0.06913(3)
O3A O -0.25039(12) 0.00433(16) 0.13081(3)
O4A O -0.35542(13) 0.14030(18) 0.14837(3)
C1A C -0.13215(15) 0.14943(21) 0.05631(4)
C2A C -0.20646(17) 0.21089(23) 0.08514(4)
H1A H -0.135(2) 0.311(3) 0.0958(7)
H2A H -0.285(2) 0.215(3) 0.0703(7)
C3A C -0.27459(13) 0.11157(18) 0.12442(4)
O1B O -0.08969(21) -0.28224(14) 0.02156(4)
O2B O -0.15543(16) -0.16627(11) 0.06913(3)
O3B O -0.00433(16) -0.25472(11) 0.13081(3)
O4B O -0.14030(18) -0.49572(13) 0.14837(3)
C1B C -0.14943(21) -0.28158(14) 0.05631(4)
C2B C -0.21089(23) -0.41735(15) 0.08514(4)
H1B H -0.311(3) -0.446(2) 0.0958(7)
H2B H -0.215(3) -0.500(2) 0.0703(7)
C3B C -0.11157(18) -0.38616(13) 0.12442(4)
La2I La 0.0000 0.0000 -0.131704(3)
O1I O -0.28224(14) -0.19255(15) -0.02156(4)
O2I O -0.16627(11) -0.01084(11) -0.06913(3)
O3I O -0.25472(11) -0.25039(12) -0.13081(3)
O4I O -0.49572(13) -0.35542(13) -0.14837(3)
C1I C -0.28158(14) -0.13215(15) -0.05631(4)
C2I C -0.41735(15) -0.20646(17) -0.08514(4)
H1I H -0.446(2) -0.135(2) -0.0958(7)
H2I H -0.500(2) -0.285(2) -0.0703(7)
C3I C -0.38616(13) -0.27459(13) -0.12442(4)
O1J O 0.19255(15) -0.08969(21) -0.02156(4)
O2J O 0.01084(11) -0.15543(16) -0.06913(3)
O3J O 0.25039(12) -0.00433(16) -0.13081(3)
O4J O 0.35542(13) -0.14030(18) -0.14837(3)
C1J C 0.13215(15) -0.14943(21) -0.05631(4)
C2J C 0.20646(17) -0.21089(23) -0.08514(4)
H1J H 0.135(2) -0.311(3) -0.0958(7)
H2J H 0.285(2) -0.215(3) -0.0703(7)
C3J C 0.27459(13) -0.11157(18) -0.12442(4)
O1K O 0.08969(21) 0.28224(14) -0.02156(4)
O2K O 0.15543(16) 0.16627(11) -0.06913(3)
O3K O 0.00433(16) 0.25472(11) -0.13081(3)
O4K O 0.14030(18) 0.49572(13) -0.14837(3)
C1K C 0.14943(21) 0.28158(14) -0.05631(4)
C2K C 0.21089(23) 0.41735(15) -0.08514(4)
H1K H 0.311(3) 0.446(2) -0.0958(7)
H2K H 0.215(3) 0.500(2) -0.0703(7)
C3K C 0.11157(18) 0.38616(13) -0.12442(4)
La2F La -0.6667 -0.3333 -0.201629(3)
La2F_2 La 0.3333 -0.3333 -0.201629(3)
La2F_3 La 0.3333 0.6667 -0.201629(3)
La2O La -0.3333 -0.6667 0.201629(3)
La2O_2 La -0.3333 0.3333 0.201629(3)
La2O_3 La 0.6667 0.3333 0.201629(3)
O4F O -0.17095(13) 0.02209(13) -0.18496(3)
O4G O -0.02209(13) -0.19303(18) -0.18496(3)
O4H O 0.19303(18) 0.17095(13) -0.18496(3)
O4O O 0.17095(13) -0.02209(13) 0.18496(3)
O4P O 0.02209(13) 0.19303(18) 0.18496(3)
O4Q O -0.19303(18) -0.17095(13) 0.18496(3)
Co1 Co 0.3333 0.6667 0.1667
N1 N 0.33494(16) 0.82605(15) 0.13084(5)
H3 H 0.4030 0.9163 0.1410
H4 H 0.2438 0.8174 0.1313
H5 H 0.3588 0.8165 0.1041
N1A N 0.17395(15) 0.50889(22) 0.13084(5)
H3A H 0.0837 0.4867 0.1410
H4A H 0.1826 0.4264 0.1313
H5A H 0.1835 0.5423 0.1041
N1B N 0.49111(22) 0.66506(16) 0.13084(5)
H3B H 0.5133 0.5970 0.1410
H4B H 0.5736 0.7562 0.1313
H5B H 0.4577 0.6412 0.1041
N1O N 0.33173(16) 0.50728(15) 0.20249(5)
H3O H 0.2637 0.4170 0.1923
H4O H 0.4229 0.5159 0.2020
H5O H 0.3079 0.5168 0.2292
N1P N 0.49272(15) 0.82444(22) 0.20249(5)
H3P H 0.5830 0.8466 0.1923
H4P H 0.4841 0.9069 0.2020
H5P H 0.4832 0.7910 0.2292
N1Q N 0.17556(22) 0.66827(16) 0.20249(5)
H3Q H 0.1534 0.7363 0.1923
H4Q H 0.0931 0.5771 0.2020
H5Q H 0.2090 0.6921 0.2292
O5 O 0.0377(9) -0.1533(5) 0.37415(14)
loop_
_geom_bond_atom_site_label_1
_geom_bond_atom_site_label_2
_geom_bond_site_symmetry_1
_geom_bond_site_symmetry_2
La1 O1 1_555 1_555
La2 O2 1_555 1_555
O1 C1 1_555 1_555
O2 La1 1_555 1_555
O3 La2 1_555 1_555
O4 C3 1_555 1_555
C1 O2 1_555 1_555
C2 C1 1_555 1_555
H1 C2 1_555 1_555
H2 C2 1_555 1_555
C3 O3 1_555 1_555
Co1 N1 1_555 1_555
N1 H3 1_555 1_555
H4 N1 1_555 1_555
H5 N1 1_555 1_555
O1A La1 1_555 1_555
O2A La1 1_555 1_555
O3A La2 1_555 1_555
O4A C3A 1_555 1_555
C1A O1A 1_555 1_555
C2A C1A 1_555 1_555
H1A C2A 1_555 1_555
H2A C2A 1_555 1_555
C3A O3A 1_555 1_555
O1B La1 1_555 1_555
O2B La1 1_555 1_555
O3B La2 1_555 1_555
O4B C3B 1_555 1_555
C1B O1B 1_555 1_555
C2B C1B 1_555 1_555
H1B C2B 1_555 1_555
H2B C2B 1_555 1_555
C3B O3B 1_555 1_555
La2I O2I 1_555 1_555
O1I La1 1_555 1_555
O2I La1 1_555 1_555
O3I La2I 1_555 1_555
O4I C3I 1_555 1_555
C1I O1I 1_555 1_555
C2I C1I 1_555 1_555
H1I C2I 1_555 1_555
H2I C2I 1_555 1_555
C3I O3I 1_555 1_555
O1J La1 1_555 1_555
O2J La1 1_555 1_555
O3J La2I 1_555 1_555
O4J C3J 1_555 1_555
C1J O1J 1_555 1_555
C2J C1J 1_555 1_555
H1J C2J 1_555 1_555
H2J C2J 1_555 1_555
C3J O3J 1_555 1_555
O1K La1 1_555 1_555
O2K La1 1_555 1_555
O3K La2I 1_555 1_555
O4K C3K 1_555 1_555
C1K O1K 1_555 1_555
C2K C1K 1_555 1_555
H1K C2K 1_555 1_555
H2K C2K 1_555 1_555
C3K O3K 1_555 1_555
La2F O4I 1_555 1_555
La2F_2 O4J 1_555 1_555
La2F_3 O4K 1_555 1_555
La2O O4B 1_555 1_555
La2O_2 O4A 1_555 1_555
La2O_3 O4 1_555 1_555
O4F La2I 1_555 1_555
O4G La2I 1_555 1_555
O4H La2I 1_555 1_555
O4O La2 1_555 1_555
O4P La2 1_555 1_555
O4Q La2 1_555 1_555
N1A Co1 1_555 1_555
H3A N1A 1_555 1_555
H4A N1A 1_555 1_555
H5A N1A 1_555 1_555
N1B Co1 1_555 1_555
H3B N1B 1_555 1_555
H4B N1B 1_555 1_555
H5B N1B 1_555 1_555
N1O Co1 1_555 1_555
H3O N1O 1_555 1_555
H4O N1O 1_555 1_555
H5O N1O 1_555 1_555
N1P Co1 1_555 1_555
H3P N1P 1_555 1_555
H4P N1P 1_555 1_555
H5P N1P 1_555 1_555
N1Q Co1 1_555 1_555
H3Q N1Q 1_555 1_555
H4Q N1Q 1_555 1_555
H5Q N1Q 1_555 1_555
La2 O2A 1_555 1_555
La2 O2B 1_555 1_555
C2 C3 1_555 1_555
O2A C1A 1_555 1_555
C2A C3A 1_555 1_555
O2B C1B 1_555 1_555
C2B C3B 1_555 1_555
La2I O2J 1_555 1_555
La2I O2K 1_555 1_555
O2I C1I 1_555 1_555
C2I C3I 1_555 1_555
O2J C1J 1_555 1_555
C2J C3J 1_555 1_555
O2K C1K 1_555 1_555
C2K C3K 1_555 1_555

#END
