
#######################################################################
#
#                 Cambridge Crystallographic Data Centre
#                                CCDC 
#
#######################################################################
#
# If this CIF has been generated from an entry in the Cambridge 
# Structural Database, then it will include bibliographic, chemical, 
# crystal, experimental, refinement or atomic coordinate data resulting 
# from the CCDC's data processing and validation procedures.
#
#######################################################################

data_VUCWUM
_symmetry_cell_setting           monoclinic
_symmetry_space_group_name_H-M   'P 21/c'
_symmetry_Int_Tables_number      14
_space_group_name_Hall           '-P 2ybc'
loop_
_symmetry_equiv_pos_site_id
_symmetry_equiv_pos_as_xyz
1 x,y,z
2 -x,1/2+y,1/2-z
3 -x,-y,-z
4 x,1/2-y,1/2+z
_cell_length_a                   5.8401(5)
_cell_length_b                   34.949(3)
_cell_length_c                   15.0437(11)
_cell_angle_alpha                90
_cell_angle_beta                 109.695(3)
_cell_angle_gamma                90
_cell_volume                     2890.88
loop_
_atom_site_label
_atom_site_type_symbol
_atom_site_fract_x
_atom_site_fract_y
_atom_site_fract_z
Cu1 Cu -0.09944(8) -0.296081(11) 0.17757(3)
O1 O -0.3960(4) -0.32589(6) 0.11697(19)
O2 O -0.2503(5) -0.34995(7) 0.0099(2)
O3 O 0.0688(4) -0.34117(6) 0.24109(19)
O4 O -0.0962(5) -0.32554(7) 0.3490(2)
O5 O 0.0892(7) -0.29753(8) 0.0502(3)
N1 N 0.1882(5) -0.26230(8) 0.2406(2)
N2 N -0.2554(5) -0.24558(8) 0.1258(2)
N3 N -0.0277(5) -0.10963(7) 0.1647(2)
N4 N 0.3554(6) -0.12345(8) 0.2519(2)
H1 H 0.492(6) -0.1207(9) 0.282(2)
C1 C 0.4109(7) -0.27251(10) 0.2944(3)
H2 H 0.4447 -0.2983 0.3077
C2 C 0.5947(7) -0.24588(11) 0.3316(3)
H3 H 0.7482 -0.2540 0.3695
C3 C 0.5513(7) -0.20770(10) 0.3128(3)
H4 H 0.6740 -0.1898 0.3376
C4 C 0.3176(6) -0.19613(9) 0.2552(3)
C5 C 0.2382(6) -0.15770(9) 0.2283(3)
C6 C 0.0033(6) -0.14873(9) 0.1731(3)
C7 C -0.1763(6) -0.17751(9) 0.1338(3)
C8 C -0.4149(7) -0.17111(10) 0.0736(3)
H5 H -0.4707 -0.1463 0.0569
C9 C -0.5647(7) -0.20171(10) 0.0397(3)
H6 H -0.7225 -0.1980 -0.0014
C10 C -0.4782(7) -0.23867(10) 0.0675(3)
H7 H -0.5816 -0.2593 0.0439
C11 C -0.1030(6) -0.21528(9) 0.1588(3)
C12 C 0.1401(6) -0.22435(9) 0.2203(3)
C13 C 0.1889(6) -0.09554(9) 0.2125(3)
C14 C 0.2455(6) -0.05454(9) 0.2281(3)
C15 C 0.4818(6) -0.04125(10) 0.2631(3)
H8 H 0.6109 -0.0583 0.2746
C16 C 0.5267(7) -0.00263(10) 0.2811(3)
H9 H 0.6860 0.0062 0.3043
C17 C 0.3362(7) 0.02267(10) 0.2646(3)
H10 H 0.3671 0.0485 0.2786
C18 C 0.1012(7) 0.00989(10) 0.2277(3)
H11 H -0.0272 0.0271 0.2151
C19 C 0.0549(7) -0.02862(10) 0.2092(3)
H12 H -0.1047 -0.0372 0.1839
C20 C -0.3853(6) -0.35156(9) 0.0578(3)
C21 C -0.5490(6) -0.38562(9) 0.0483(3)
C22 C -0.5448(6) -0.41535(9) -0.0137(3)
H13 H -0.4406 -0.4136 -0.0486
C23 C -0.6916(6) -0.44698(9) -0.0241(3)
H14 H -0.6849 -0.4664 -0.0653
C24 C -0.8520(6) -0.44996(9) 0.0275(3)
C25 C -0.8561(6) -0.42024(9) 0.0886(3)
H15 H -0.9622 -0.4216 0.1227
C26 C -0.7060(6) -0.38872(9) 0.0994(3)
H16 H -0.7105 -0.3694 0.1414
C27 C -1.0088(7) -0.48335(9) 0.0198(3)
C28 C 0.0293(6) -0.34684(10) 0.3187(3)
C29 C 0.1438(6) -0.38227(9) 0.3729(3)
C30 C 0.3429(7) -0.39971(10) 0.3585(3)
H17 H 0.4097 -0.3889 0.3163
C31 C 0.4423(6) -0.43279(10) 0.4060(3)
H18 H 0.5789 -0.4434 0.3971
C32 C 0.3419(6) -0.45050(9) 0.4670(3)
C33 C 0.1467(7) -0.43223(10) 0.4826(3)
H19 H 0.0783 -0.4431 0.5242
C34 C 0.0528(7) -0.39852(10) 0.4378(3)
H20 H -0.0736 -0.3865 0.4514
C35 C 0.4238(7) -0.48804(10) 0.5109(3)
H21 H 0.359(7) -0.4948(11) 0.559(3)
H22 H -1.119(7) -0.4800(10) 0.053(3)
Cu1B Cu -1.90056(8) -0.703919(11) -0.17757(3)
Cu1B_2 Cu 1.09944(8) -0.703919(11) 0.82243(3)
O1B O -1.6040(4) -0.67411(6) -0.11697(19)
O2B O -1.7497(5) -0.65005(7) -0.0099(2)
O3B O 0.9312(4) -0.65883(6) 0.75891(19)
O3B_2 O -2.0688(4) -0.65883(6) -0.24109(19)
O4B O 1.0962(5) -0.67446(7) 0.6510(2)
O5B O -2.0892(7) -0.70247(8) -0.0502(3)
N1B N -2.1882(5) -0.73770(8) -0.2406(2)
N2B N -1.7446(5) -0.75442(8) -0.1258(2)
N3B N -1.9723(5) -0.89037(7) -0.1647(2)
N4B N -2.3554(6) -0.87655(8) -0.2519(2)
H1B H -2.492(6) -0.8793(9) -0.282(2)
C1B C -2.4109(7) -0.72749(10) -0.2944(3)
H2B H -2.4447 -0.7017 -0.3077
C2B C -2.5947(7) -0.75412(11) -0.3316(3)
H3B H -2.7482 -0.7460 -0.3695
C3B C -2.5513(7) -0.79230(10) -0.3128(3)
H4B H -2.6740 -0.8102 -0.3376
C4B C -2.3176(6) -0.80387(9) -0.2552(3)
C5B C -2.2382(6) -0.84230(9) -0.2283(3)
C6B C -2.0033(6) -0.85127(9) -0.1731(3)
C7B C -1.8237(6) -0.82249(9) -0.1338(3)
C8B C -1.5851(7) -0.82889(10) -0.0736(3)
H5B H -1.5293 -0.8537 -0.0569
C9B C -1.4353(7) -0.79829(10) -0.0397(3)
H6B H -1.2775 -0.8020 0.0014
C10B C -1.5218(7) -0.76133(10) -0.0675(3)
H7B H -1.4184 -0.7407 -0.0439
C11B C -1.8970(6) -0.78472(9) -0.1588(3)
C12B C -2.1401(6) -0.77565(9) -0.2203(3)
C13B C -2.1889(6) -0.90446(9) -0.2125(3)
C14B C -2.2455(6) -0.94546(9) -0.2281(3)
C15B C -2.4818(6) -0.95875(10) -0.2631(3)
H8B H -2.6109 -0.9417 -0.2746
C16B C -2.5267(7) -0.99737(10) -0.2811(3)
H9B H -2.6860 -1.0062 -0.3043
C17B C -2.3362(7) -1.02267(10) -0.2646(3)
H10B H -2.3671 -1.0485 -0.2786
C18B C -2.1012(7) -1.00989(10) -0.2277(3)
H11B H -1.9728 -1.0271 -0.2151
C19B C -2.0549(7) -0.97138(10) -0.2092(3)
H12B H -1.8953 -0.9628 -0.1839
C20B C -1.6147(6) -0.64844(9) -0.0578(3)
C21B C -1.4510(6) -0.61438(9) -0.0483(3)
C22B C -1.4552(6) -0.58465(9) 0.0137(3)
H13B H -1.5594 -0.5864 0.0486
C23B C -1.3084(6) -0.55302(9) 0.0241(3)
H14B H -1.3151 -0.5336 0.0653
C24B C -1.1480(6) -0.55004(9) -0.0275(3)
C25B C -1.1439(6) -0.57976(9) -0.0886(3)
H15B H -1.0378 -0.5784 -0.1227
C26B C -1.2940(6) -0.61128(9) -0.0994(3)
H16B H -1.2895 -0.6306 -0.1414
C27B C -0.9912(7) -0.51665(9) -0.0198(3)
C28B C 0.9707(6) -0.65316(10) 0.6813(3)
C29B C 0.8562(6) -0.61773(9) 0.6271(3)
C30B C 0.6571(7) -0.60029(10) 0.6415(3)
H17B H 0.5903 -0.6111 0.6837
C31B C 0.5577(6) -0.56721(10) 0.5940(3)
H18B H 0.4211 -0.5566 0.6029
C32B C 0.6581(6) -0.54950(9) 0.5330(3)
C33B C 0.8533(7) -0.56777(10) 0.5174(3)
H19B H 0.9217 -0.5569 0.4758
C34B C 0.9472(7) -0.60148(10) 0.5622(3)
H20B H 1.0736 -0.6135 0.5486
C35B C 0.5762(7) -0.51196(10) 0.4891(3)
H21B H 0.641(7) -0.5052(11) 0.441(3)
H22B H -0.881(7) -0.5200(10) -0.053(3)
O6 O -0.1433(7) -0.37882(11) -0.1373(3)
H23 H -0.032(12) -0.3879(19) -0.140(5)
H24 H -0.134(11) -0.3704(17) -0.082(5)
loop_
_geom_bond_atom_site_label_1
_geom_bond_atom_site_label_2
_geom_bond_site_symmetry_1
_geom_bond_site_symmetry_2
Cu1 O1 1_555 1_555
O1 C20 1_555 1_555
O2 C20 1_555 1_555
O3 Cu1 1_555 1_555
O4 C28 1_555 1_555
O5 Cu1 1_555 1_555
O6 H23 1_555 1_555
N1 Cu1 1_555 1_555
N2 Cu1 1_555 1_555
N3 C6 1_555 1_555
N4 H1 1_555 1_555
C1 N1 1_555 1_555
H2 C1 1_555 1_555
C2 C1 1_555 1_555
H3 C2 1_555 1_555
C3 C2 1_555 1_555
H4 C3 1_555 1_555
C4 C3 1_555 1_555
C5 N4 1_555 1_555
C6 C5 1_555 1_555
C7 C6 1_555 1_555
C8 C7 1_555 1_555
H5 C8 1_555 1_555
C9 C8 1_555 1_555
H6 C9 1_555 1_555
C10 N2 1_555 1_555
H7 C10 1_555 1_555
C11 N2 1_555 1_555
C12 N1 1_555 1_555
C13 N3 1_555 1_555
C14 C13 1_555 1_555
C15 C14 1_555 1_555
H8 C15 1_555 1_555
C16 C15 1_555 1_555
H9 C16 1_555 1_555
C17 C16 1_555 1_555
H10 C17 1_555 1_555
C18 C17 1_555 1_555
H11 C18 1_555 1_555
C19 C14 1_555 1_555
H12 C19 1_555 1_555
C20 C21 1_555 1_555
C21 C22 1_555 1_555
C22 H13 1_555 1_555
C23 C22 1_555 1_555
H14 C23 1_555 1_555
C24 C23 1_555 1_555
C25 C24 1_555 1_555
H15 C25 1_555 1_555
C26 C21 1_555 1_555
H16 C26 1_555 1_555
C27 C24 1_555 1_555
C28 O3 1_555 1_555
C29 C28 1_555 1_555
C30 C29 1_555 1_555
H17 C30 1_555 1_555
C31 C30 1_555 1_555
H18 C31 1_555 1_555
C32 C31 1_555 1_555
C33 C32 1_555 1_555
H19 C33 1_555 1_555
C34 C29 1_555 1_555
H20 C34 1_555 1_555
C35 C32 1_555 1_555
H21 C35 1_555 1_555
H22 C27 1_555 1_555
H24 O6 1_555 1_555
Cu1B O1B 1_555 1_555
Cu1B_2 O3B 1_555 1_555
O1B C20B 1_555 1_555
O2B C20B 1_555 1_555
O3B C28B 1_555 1_555
O3B_2 Cu1B 1_555 1_555
O4B C28B 1_555 1_555
O5B Cu1B 1_555 1_555
N1B Cu1B 1_555 1_555
N2B Cu1B 1_555 1_555
N3B C6B 1_555 1_555
N4B H1B 1_555 1_555
C1B N1B 1_555 1_555
H2B C1B 1_555 1_555
C2B C1B 1_555 1_555
H3B C2B 1_555 1_555
C3B C2B 1_555 1_555
H4B C3B 1_555 1_555
C4B C3B 1_555 1_555
C5B N4B 1_555 1_555
C6B C5B 1_555 1_555
C7B C6B 1_555 1_555
C8B C7B 1_555 1_555
H5B C8B 1_555 1_555
C9B C8B 1_555 1_555
H6B C9B 1_555 1_555
C10B N2B 1_555 1_555
H7B C10B 1_555 1_555
C11B N2B 1_555 1_555
C12B N1B 1_555 1_555
C13B N3B 1_555 1_555
C14B C13B 1_555 1_555
C15B C14B 1_555 1_555
H8B C15B 1_555 1_555
C16B C15B 1_555 1_555
H9B C16B 1_555 1_555
C17B C16B 1_555 1_555
H10B C17B 1_555 1_555
C18B C17B 1_555 1_555
H11B C18B 1_555 1_555
C19B C14B 1_555 1_555
H12B C19B 1_555 1_555
C20B C21B 1_555 1_555
C21B C22B 1_555 1_555
C22B H13B 1_555 1_555
C23B C22B 1_555 1_555
H14B C23B 1_555 1_555
C24B C23B 1_555 1_555
C25B C24B 1_555 1_555
H15B C25B 1_555 1_555
C26B C21B 1_555 1_555
H16B C26B 1_555 1_555
C27B C27 1_555 1_555
C28B C29B 1_555 1_555
C29B C30B 1_555 1_555
C30B H17B 1_555 1_555
C31B C30B 1_555 1_555
H18B C31B 1_555 1_555
C32B C31B 1_555 1_555
C33B C32B 1_555 1_555
H19B C33B 1_555 1_555
C34B C29B 1_555 1_555
H20B C34B 1_555 1_555
C35B C35 1_555 1_555
H21B C35B 1_555 1_555
H22B C27B 1_555 1_555
N4 C13 1_555 1_555
C4 C5 1_555 1_555
C4 C12 1_555 1_555
C7 C11 1_555 1_555
C9 C10 1_555 1_555
C11 C12 1_555 1_555
C18 C19 1_555 1_555
C25 C26 1_555 1_555
C33 C34 1_555 1_555
N4B C13B 1_555 1_555
C4B C5B 1_555 1_555
C4B C12B 1_555 1_555
C7B C11B 1_555 1_555
C9B C10B 1_555 1_555
C11B C12B 1_555 1_555
C18B C19B 1_555 1_555
C24B C27B 1_555 1_555
C25B C26B 1_555 1_555
C32B C35B 1_555 1_555
C33B C34B 1_555 1_555

#END
