
#######################################################################
#
#                 Cambridge Crystallographic Data Centre
#                                CCDC 
#
#######################################################################
#
# If this CIF has been generated from an entry in the Cambridge 
# Structural Database, then it will include bibliographic, chemical, 
# crystal, experimental, refinement or atomic coordinate data resulting 
# from the CCDC's data processing and validation procedures.
#
#######################################################################

data_VUCXAT
_symmetry_cell_setting           triclinic
_symmetry_space_group_name_H-M   'P -1'
_symmetry_Int_Tables_number      2
_space_group_name_Hall           '-P 1'
loop_
_symmetry_equiv_pos_site_id
_symmetry_equiv_pos_as_xyz
1 x,y,z
2 -x,-y,-z
_cell_length_a                   9.6561(16)
_cell_length_b                   11.0749(9)
_cell_length_c                   11.5921(9)
_cell_angle_alpha                116.1370(10)
_cell_angle_beta                 97.9710(10)
_cell_angle_gamma                103.2370(10)
_cell_volume                     1041.84
loop_
_atom_site_label
_atom_site_type_symbol
_atom_site_fract_x
_atom_site_fract_y
_atom_site_fract_z
Cu1 Cu 1.01205(4) 0.53091(4) 0.15662(4)
O1 O 1.1210(2) 0.4544(3) 0.0282(2)
O2 O 1.1792(3) 0.2660(3) 0.0178(3)
O3 O 1.1666(2) 0.7196(3) 0.2448(2)
O4 O 1.2514(3) 0.6369(2) 0.3729(3)
N1 N 0.8694(3) 0.3491(3) 0.1292(3)
N2 N 0.8788(3) 0.6165(3) 0.2623(3)
N3 N 0.4048(3) 0.2128(3) 0.2415(3)
N4 N 0.4003(3) 0.4362(3) 0.3341(3)
C1 C 0.8885(4) 0.7522(4) 0.3252(3)
H1 H 0.9705 0.8200 0.3309
C2 C 0.7800(4) 0.7964(4) 0.3831(4)
H2 H 0.7903 0.8926 0.4269
C3 C 0.6587(4) 0.6995(4) 0.3762(3)
H3 H 0.5856 0.7290 0.4141
C4 C 0.6450(3) 0.5547(4) 0.3112(3)
C5 C 0.5296(4) 0.4401(4) 0.2976(3)
C6 C 0.5304(3) 0.3009(4) 0.2405(3)
C7 C 0.6463(3) 0.2625(3) 0.1827(3)
C8 C 0.6531(4) 0.1243(4) 0.1170(3)
H4 H 0.5829 0.0488 0.1137
C9 C 0.7648(4) 0.1020(4) 0.0575(3)
H5 H 0.7696 0.0105 0.0118
C10 C 0.8713(4) 0.2162(4) 0.0655(3)
H6 H 0.9465 0.1989 0.0249
C11 C 0.7579(3) 0.3728(4) 0.1880(3)
C12 C 0.7600(3) 0.5179(3) 0.2557(3)
C13 C 0.3291(4) 0.2974(4) 0.2964(3)
C14 C 0.1835(3) 0.2486(4) 0.3169(3)
C15 C 0.1202(4) 0.3443(4) 0.3952(4)
H7 H 0.1684 0.4416 0.4338
C16 C -0.0142(4) 0.2960(4) 0.4162(4)
H8 H -0.0555 0.3604 0.4701
C17 C -0.0870(4) 0.1511(4) 0.3565(4)
H9 H -0.1774 0.1183 0.3703
C18 C -0.0258(4) 0.0551(4) 0.2766(4)
H10 H -0.0757 -0.0421 0.2356
C19 C 0.1096(4) 0.1038(4) 0.2578(4)
H11 H 0.1514 0.0391 0.2051
C20 C 1.2092(3) 0.3799(4) 0.0192(3)
C21 C 1.3597(3) 0.4429(4) 0.0085(3)
C22 C 1.4444(4) 0.3562(4) -0.0407(3)
C23 C 1.4169(4) 0.5871(4) 0.0496(3)
C24 C 1.2585(3) 0.7323(4) 0.3425(3)
C25 C 1.3823(3) 0.8728(3) 0.4245(3)
C26 C 1.4213(4) 0.9650(4) 0.3731(3)
C27 C 1.4613(4) 0.9105(4) 0.5512(3)
H12 H 1.401(4) 0.257(4) -0.076(3)
H13 H 1.438(4) 0.853(4) 0.584(3)
H14 H 1.368(4) 0.645(4) 0.077(3)
H15 H 0.359(4) 0.494(4) 0.353(4)
H16 H 1.376(5) 0.935(5) 0.282(4)
Cu1A Cu 1.98795(4) 0.46909(4) -0.15662(4)
Cu1A_2 Cu 1.98795(4) 1.46909(4) 0.84338(4)
O1A O 1.8790(2) 0.5456(3) -0.0282(2)
O2A O 1.8208(3) 0.7340(3) -0.0178(3)
O3A O 1.8334(2) 1.2804(3) 0.7552(2)
O3A_2 O 1.8334(2) 0.2804(3) -0.2448(2)
O4A O 1.7486(3) 1.3631(2) 0.6271(3)
N1A N 2.1306(3) 0.6509(3) -0.1292(3)
N2A N 2.1212(3) 0.3835(3) -0.2623(3)
N3A N 2.5952(3) 0.7872(3) -0.2415(3)
N4A N 2.5997(3) 0.5638(3) -0.3341(3)
C1A C 2.1115(4) 0.2478(4) -0.3252(3)
H1A H 2.0295 0.1800 -0.3309
C2A C 2.2200(4) 0.2036(4) -0.3831(4)
H2A H 2.2097 0.1074 -0.4269
C3A C 2.3413(4) 0.3005(4) -0.3762(3)
H3A H 2.4144 0.2710 -0.4141
C4A C 2.3550(3) 0.4453(4) -0.3112(3)
C5A C 2.4704(4) 0.5599(4) -0.2976(3)
C6A C 2.4696(3) 0.6991(4) -0.2405(3)
C7A C 2.3537(3) 0.7375(3) -0.1827(3)
C8A C 2.3469(4) 0.8757(4) -0.1170(3)
H4A H 2.4171 0.9512 -0.1137
C9A C 2.2352(4) 0.8980(4) -0.0575(3)
H5A H 2.2304 0.9895 -0.0118
C10A C 2.1287(4) 0.7838(4) -0.0655(3)
H6A H 2.0535 0.8011 -0.0249
C11A C 2.2421(3) 0.6272(4) -0.1880(3)
C12A C 2.2400(3) 0.4821(3) -0.2557(3)
C13A C 2.6709(4) 0.7026(4) -0.2964(3)
C14A C 2.8165(3) 0.7514(4) -0.3169(3)
C15A C 2.8798(4) 0.6557(4) -0.3952(4)
H7A H 2.8316 0.5584 -0.4338
C16A C 3.0142(4) 0.7040(4) -0.4162(4)
H8A H 3.0555 0.6396 -0.4701
C17A C 3.0870(4) 0.8489(4) -0.3565(4)
H9A H 3.1774 0.8817 -0.3703
C18A C 3.0258(4) 0.9449(4) -0.2766(4)
H10A H 3.0757 1.0421 -0.2356
C19A C 2.8904(4) 0.8962(4) -0.2578(4)
H11A H 2.8486 0.9609 -0.2051
C20A C 1.7908(3) 0.6201(4) -0.0192(3)
C21A C 1.6403(3) 0.5571(4) -0.0085(3)
C22A C 1.5556(4) 0.6438(4) 0.0407(3)
C23A C 1.5831(4) 0.4129(4) -0.0496(3)
C24A C 1.7415(3) 1.2677(4) 0.6575(3)
C25A C 1.6177(3) 1.1272(3) 0.5755(3)
C26A C 1.5787(4) 1.0350(4) 0.6269(3)
C27A C 1.5387(4) 1.0895(4) 0.4488(3)
H12A H 1.599(4) 0.743(4) 0.076(3)
H13A H 1.562(4) 1.147(4) 0.416(3)
H14A H 1.632(4) 0.355(4) -0.077(3)
H15A H 2.641(4) 0.506(4) -0.353(4)
H16A H 1.624(5) 1.065(5) 0.718(4)
loop_
_geom_bond_atom_site_label_1
_geom_bond_atom_site_label_2
_geom_bond_site_symmetry_1
_geom_bond_site_symmetry_2
Cu1 O1 1_555 1_555
O1 C20 1_555 1_555
O2 C20 1_555 1_555
O3 Cu1 1_555 1_555
O4 C24 1_555 1_555
N1 Cu1 1_555 1_555
N2 Cu1 1_555 1_555
N3 C6 1_555 1_555
N4 C5 1_555 1_555
C1 N2 1_555 1_555
H1 C1 1_555 1_555
C2 C1 1_555 1_555
H2 C2 1_555 1_555
C3 C2 1_555 1_555
H3 C3 1_555 1_555
C4 C3 1_555 1_555
C5 C4 1_555 1_555
C6 C5 1_555 1_555
C7 C6 1_555 1_555
C8 C7 1_555 1_555
H4 C8 1_555 1_555
C9 C8 1_555 1_555
H5 C9 1_555 1_555
C10 N1 1_555 1_555
H6 C10 1_555 1_555
C11 N1 1_555 1_555
C12 N2 1_555 1_555
C13 N3 1_555 1_555
C14 C13 1_555 1_555
C15 C14 1_555 1_555
H7 C15 1_555 1_555
C16 C15 1_555 1_555
H8 C16 1_555 1_555
C17 C16 1_555 1_555
H9 C17 1_555 1_555
C18 C17 1_555 1_555
H10 C18 1_555 1_555
C19 C14 1_555 1_555
H11 C19 1_555 1_555
C20 C21 1_555 1_555
C21 C22 1_555 1_555
C22 H12 1_555 1_555
C23 C21 1_555 1_555
C24 O3 1_555 1_555
C25 C24 1_555 1_555
C26 C25 1_555 1_555
C27 C25 1_555 1_555
H13 C27 1_555 1_555
H14 C23 1_555 1_555
H15 N4 1_555 1_555
H16 C26 1_555 1_555
Cu1A O1A 1_555 1_555
Cu1A_2 O3A 1_555 1_555
O1A C20A 1_555 1_555
O2A C20A 1_555 1_555
O3A C24A 1_555 1_555
O3A_2 Cu1A 1_555 1_555
O4A C24A 1_555 1_555
N1A Cu1A 1_555 1_555
N2A Cu1A 1_555 1_555
N3A C6A 1_555 1_555
N4A C5A 1_555 1_555
C1A N2A 1_555 1_555
H1A C1A 1_555 1_555
C2A C1A 1_555 1_555
H2A C2A 1_555 1_555
C3A C2A 1_555 1_555
H3A C3A 1_555 1_555
C4A C3A 1_555 1_555
C5A C4A 1_555 1_555
C6A C5A 1_555 1_555
C7A C6A 1_555 1_555
C8A C7A 1_555 1_555
H4A C8A 1_555 1_555
C9A C8A 1_555 1_555
H5A C9A 1_555 1_555
C10A N1A 1_555 1_555
H6A C10A 1_555 1_555
C11A N1A 1_555 1_555
C12A N2A 1_555 1_555
C13A N3A 1_555 1_555
C14A C13A 1_555 1_555
C15A C14A 1_555 1_555
H7A C15A 1_555 1_555
C16A C15A 1_555 1_555
H8A C16A 1_555 1_555
C17A C16A 1_555 1_555
H9A C17A 1_555 1_555
C18A C17A 1_555 1_555
H10A C18A 1_555 1_555
C19A C14A 1_555 1_555
H11A C19A 1_555 1_555
C20A C21A 1_555 1_555
C21A C22A 1_555 1_555
C22A C23 1_555 1_555
C23A C22 1_555 1_555
C24A C25A 1_555 1_555
C25A C26A 1_555 1_555
C26A C27 1_555 1_555
C27A C26 1_555 1_555
H12A C22A 1_555 1_555
H13A C27A 1_555 1_555
H14A C23A 1_555 1_555
H15A N4A 1_555 1_555
H16A C26A 1_555 1_555
N4 C13 1_555 1_555
C4 C12 1_555 1_555
C7 C11 1_555 1_555
C9 C10 1_555 1_555
C11 C12 1_555 1_555
C18 C19 1_555 1_555
N4A C13A 1_555 1_555
C4A C12A 1_555 1_555
C7A C11A 1_555 1_555
C9A C10A 1_555 1_555
C11A C12A 1_555 1_555
C18A C19A 1_555 1_555
C21A C23A 1_555 1_555
C25A C27A 1_555 1_555

#END
