
#######################################################################
#
#                 Cambridge Crystallographic Data Centre
#                                CCDC 
#
#######################################################################
#
# If this CIF has been generated from an entry in the Cambridge 
# Structural Database, then it will include bibliographic, chemical, 
# crystal, experimental, refinement or atomic coordinate data resulting 
# from the CCDC's data processing and validation procedures.
#
#######################################################################

data_VUDDIJ
_symmetry_cell_setting           orthorhombic
_symmetry_space_group_name_H-M   'P n a 21'
_symmetry_Int_Tables_number      33
_space_group_name_Hall           'P 2c -2n'
loop_
_symmetry_equiv_pos_site_id
_symmetry_equiv_pos_as_xyz
1 x,y,z
2 -x,-y,1/2+z
3 1/2-x,1/2+y,1/2+z
4 1/2+x,1/2-y,z
_cell_length_a                   12.4265(2)
_cell_length_b                   10.8273(2)
_cell_length_c                   12.0750(2)
_cell_angle_alpha                90
_cell_angle_beta                 90
_cell_angle_gamma                90
_cell_volume                     1624.64
loop_
_atom_site_label
_atom_site_type_symbol
_atom_site_fract_x
_atom_site_fract_y
_atom_site_fract_z
V1 V 0.73461(3) 0.87232(4) 0.31528(5)
O1 O 0.84773(16) 0.89571(19) 0.20308(18)
O2 O 0.66147(16) 0.9290(2) 0.43964(18)
O3 O 0.63476(17) 0.8367(2) 0.2388(2)
O4 O 0.78097(16) 0.72252(18) 0.35192(18)
N1 N 1.11406(18) 1.0688(2) -0.0682(2)
N2 N 0.72778(17) 1.0636(2) 0.2707(2)
N3 N 0.80681(18) 1.1025(2) 0.1959(2)
C1 C 0.5667(2) 1.1076(3) 0.3705(3)
C2 C 0.4726(3) 1.1786(3) 0.3771(4)
H1 H 0.4665 1.2493 0.3339
C3 C 0.3888(3) 1.1457(4) 0.4464(4)
H2 H 0.3263 1.1929 0.4482
C4 C 0.3984(3) 1.0426(4) 0.5125(3)
H3 H 0.3423 1.0212 0.5598
C5 C 0.4900(3) 0.9708(3) 0.5095(3)
H4 H 0.4955 0.9020 0.5553
C6 C 0.5745(2) 1.0010(3) 0.4380(2)
C7 C 0.6535(2) 1.1433(3) 0.2954(3)
C8 C 0.8620(2) 1.0069(3) 0.1651(2)
C9 C 0.9475(2) 1.0255(3) 0.0815(2)
C10 C 0.9451(2) 1.1264(3) 0.0095(3)
H5 H 0.8877 1.1815 0.0110
C11 C 1.0286(2) 1.1437(3) -0.0639(3)
H6 H 1.0254 1.2102 -0.1125
C12 C 1.1154(2) 0.9719(3) -0.0007(3)
H7 H 1.1748 0.9197 -0.0028
C13 C 1.0335(2) 0.9446(3) 0.0724(3)
H8 H 1.0360 0.8730 0.1150
C14 C 0.7558(3) 0.6081(3) 0.2988(3)
H9 H 0.6850 0.6135 0.2653
H10 H 0.7542 0.5426 0.3535
C15 C 0.8370(3) 0.5781(4) 0.2119(4)
H11 H 0.8178 0.5018 0.1765
H12 H 0.9067 0.5700 0.2454
H13 H 0.8387 0.6431 0.1579
C16 C 0.6550(3) 1.2715(3) 0.2463(4)
H14 H 0.7268 1.2916 0.2234
H15 H 0.6313 1.3300 0.3008
H16 H 0.6077 1.2745 0.1834
V1A V 1.26539(3) 1.12768(4) -0.18472(5)
N1A N 0.88594(18) 0.9312(2) 0.4318(2)
loop_
_geom_bond_atom_site_label_1
_geom_bond_atom_site_label_2
_geom_bond_site_symmetry_1
_geom_bond_site_symmetry_2
V1 O1 1_555 1_555
O1 C8 1_555 1_555
O2 V1 1_555 1_555
O3 V1 1_555 1_555
O4 V1 1_555 1_555
N1 C11 1_555 1_555
N2 V1 1_555 1_555
N3 N2 1_555 1_555
C1 C2 1_555 1_555
C2 H1 1_555 1_555
C3 C2 1_555 1_555
H2 C3 1_555 1_555
C4 C3 1_555 1_555
H3 C4 1_555 1_555
C5 C4 1_555 1_555
H4 C5 1_555 1_555
C6 O2 1_555 1_555
C7 N2 1_555 1_555
C8 N3 1_555 1_555
C9 C8 1_555 1_555
C10 C9 1_555 1_555
H5 C10 1_555 1_555
C11 C10 1_555 1_555
H6 C11 1_555 1_555
C12 N1 1_555 1_555
H7 C12 1_555 1_555
C13 C9 1_555 1_555
H8 C13 1_555 1_555
C14 O4 1_555 1_555
H9 C14 1_555 1_555
H10 C14 1_555 1_555
C15 C14 1_555 1_555
H11 C15 1_555 1_555
H12 C15 1_555 1_555
H13 C15 1_555 1_555
C16 C7 1_555 1_555
H14 C16 1_555 1_555
H15 C16 1_555 1_555
H16 C16 1_555 1_555
V1A N1 1_555 1_555
N1A V1 1_555 1_555
C1 C6 1_555 1_555
C1 C7 1_555 1_555
C5 C6 1_555 1_555
C12 C13 1_555 1_555

#END
