
#######################################################################
#
#                 Cambridge Crystallographic Data Centre
#                                CCDC 
#
#######################################################################
#
# If this CIF has been generated from an entry in the Cambridge 
# Structural Database, then it will include bibliographic, chemical, 
# crystal, experimental, refinement or atomic coordinate data resulting 
# from the CCDC's data processing and validation procedures.
#
#######################################################################

data_VUDJOV
_symmetry_cell_setting           monoclinic
_symmetry_space_group_name_H-M   'C 2/c'
_symmetry_Int_Tables_number      15
_space_group_name_Hall           '-C 2yn'
loop_
_symmetry_equiv_pos_site_id
_symmetry_equiv_pos_as_xyz
1 x,y,z
2 -x,y,1/2-z
3 1/2+x,1/2+y,z
4 1/2-x,1/2+y,1/2-z
5 -x,-y,-z
6 x,-y,1/2+z
7 1/2-x,1/2-y,-z
8 1/2+x,1/2-y,1/2+z
_cell_length_a                   17.134(2)
_cell_length_b                   16.762(2)
_cell_length_c                   21.725(4)
_cell_angle_alpha                90
_cell_angle_beta                 90.206(15)
_cell_angle_gamma                90
_cell_volume                     6239.38
loop_
_atom_site_label
_atom_site_type_symbol
_atom_site_fract_x
_atom_site_fract_y
_atom_site_fract_z
C1 C 0.7923(2) 0.88201(19) 0.41882(15)
C2 C 0.8360(2) 0.95119(19) 0.40298(14)
C3 C 0.8585(2) 1.0089(2) 0.44744(15)
H1 H 0.8911 1.0494 0.4335
C4 C 0.8738(2) 1.06860(19) 0.54615(15)
C5 C 0.9402(2) 1.1129(2) 0.53294(18)
H2 H 0.9634 1.1083 0.4945
C6 C 0.9723(2) 1.1640(2) 0.57628(18)
H3 H 1.0156 1.1946 0.5662
C7 C 0.9403(2) 1.1696(2) 0.63425(18)
H4 H 0.9630 1.2029 0.6635
C8 C 0.8749(2) 1.1260(2) 0.64893(16)
H5 H 0.8540 1.1297 0.6883
C9 C 0.8393(2) 1.07577(18) 0.60509(15)
C10 C 0.7300(2) 1.03934(19) 0.66519(15)
H6 H 0.7417 1.0844 0.6884
C11 C 0.6680(2) 0.99155(19) 0.68693(14)
C12 C 0.64448(19) 0.91913(18) 0.65743(15)
C13 C 0.7868(2) 0.8089(2) 0.37778(16)
H7 H 0.7888 0.7616 0.4027
H8 H 0.8297 0.8087 0.3494
H9 H 0.7385 0.8101 0.3553
C14 C 0.8629(2) 0.9628(2) 0.33930(17)
C15 C 0.9329(3) 1.0149(3) 0.32686(18)
H10 H 0.9453 1.0130 0.2838
H11 H 0.9767 0.9959 0.3504
H12 H 0.9214 1.0689 0.3385
C16 C 0.5837(2) 0.8640(2) 0.68337(16)
H13 H 0.5702 0.8245 0.6531
H14 H 0.5381 0.8941 0.6941
H15 H 0.6041 0.8381 0.7194
C17 C 0.6278(2) 1.0191(2) 0.74296(16)
C18 C 0.6350(3) 1.1048(3) 0.7622(2)
H16 H 0.5980 1.1159 0.7942
H17 H 0.6247 1.1387 0.7275
H18 H 0.6868 1.1145 0.7773
C19 C 0.8635(2) 0.86881(19) 0.65132(15)
H19 H 0.8405 0.9087 0.6748
C20 C 0.9185(2) 0.8195(2) 0.67933(16)
H20 H 0.9303 0.8251 0.7209
C21 C 0.9549(2) 0.7622(2) 0.64442(15)
H21 H 0.9932 0.7296 0.6615
C22 C 0.93311(19) 0.75415(18) 0.58308(15)
C23 C 0.8762(2) 0.80442(19) 0.55957(16)
H22 H 0.8610 0.7977 0.5188
C24 C 1.1252(2) 0.49658(19) 0.44498(15)
H23 H 1.1511 0.4601 0.4200
C25 C 1.0598(2) 0.53435(19) 0.42145(15)
H24 H 1.0425 0.5233 0.3817
C26 C 1.0206(2) 0.58872(19) 0.45782(15)
H25 H 0.9760 0.6145 0.4436
C27 C 1.05048(19) 0.60358(18) 0.51666(14)
C28 C 1.11608(18) 0.56269(18) 0.53623(15)
H26 H 1.1350 0.5729 0.5756
Fe1 Fe 0.75280(3) 0.94186(3) 0.54713(2)
N1 N 0.83903(16) 1.01220(15) 0.50545(12)
N2 N 0.77301(16) 1.02777(15) 0.61628(12)
N3 N 0.84214(16) 0.86166(15) 0.59208(12)
N4 N 0.96356(16) 0.69852(16) 0.53995(12)
N5 N 1.01841(16) 0.65745(16) 0.56037(12)
N6 N 1.15358(16) 0.50958(15) 0.50184(12)
O1 O 0.75950(13) 0.87349(12) 0.47080(10)
O2 O 0.67303(13) 0.89708(12) 0.60629(10)
O3 O 0.83012(18) 0.93161(17) 0.29496(12)
O4 O 0.58738(16) 0.97593(16) 0.77511(11)
Fe1B Fe 1.25280(3) 0.44186(3) 0.54713(2)
N6B N 0.65358(16) 1.00958(15) 0.50184(12)
C29 C 0.7664(3) 0.8342(3) 0.8063(2)
H27 H 0.7650 0.8535 0.7662
C30 C 0.7025(3) 0.8461(3) 0.84265(19)
H28 H 0.6593 0.8735 0.8276
C31 C 0.7030(2) 0.8170(2) 0.90175(18)
H29 H 0.6601 0.8242 0.9273
C32 C 0.7683(2) 0.7771(2) 0.92234(16)
C33 C 0.8290(3) 0.7691(3) 0.88290(19)
H30 H 0.8731 0.7424 0.8972
N7 N 0.8304(2) 0.7965(3) 0.82511(17)
N8 N 0.77753(17) 0.74314(18) 0.98217(13)
C29F C 0.7336(3) 0.6658(3) 1.1937(2)
H27F H 0.7350 0.6465 1.2338
C30F C 0.7975(3) 0.6539(3) 1.15735(19)
H28F H 0.8407 0.6265 1.1724
C31F C 0.7970(2) 0.6830(2) 1.09825(18)
H29F H 0.8399 0.6758 1.0727
C32F C 0.7317(2) 0.7229(2) 1.07766(16)
C33F C 0.6710(3) 0.7309(3) 1.11710(19)
H30F H 0.6269 0.7576 1.1028
N7F N 0.6696(2) 0.7035(3) 1.17489(17)
N8F N 0.72247(17) 0.75686(18) 1.01783(13)
loop_
_geom_bond_atom_site_label_1
_geom_bond_atom_site_label_2
_geom_bond_site_symmetry_1
_geom_bond_site_symmetry_2
C1 C2 1_555 1_555
C2 C3 1_555 1_555
C3 H1 1_555 1_555
C4 C5 1_555 1_555
C5 H2 1_555 1_555
C6 C5 1_555 1_555
H3 C6 1_555 1_555
C7 C6 1_555 1_555
H4 C7 1_555 1_555
C8 C7 1_555 1_555
H5 C8 1_555 1_555
C9 C4 1_555 1_555
C10 H6 1_555 1_555
C11 C10 1_555 1_555
C12 C11 1_555 1_555
C13 C1 1_555 1_555
H7 C13 1_555 1_555
H8 C13 1_555 1_555
H9 C13 1_555 1_555
C14 C2 1_555 1_555
C15 C14 1_555 1_555
H10 C15 1_555 1_555
H11 C15 1_555 1_555
H12 C15 1_555 1_555
C16 C12 1_555 1_555
H13 C16 1_555 1_555
H14 C16 1_555 1_555
H15 C16 1_555 1_555
C17 C11 1_555 1_555
C18 C17 1_555 1_555
H16 C18 1_555 1_555
H17 C18 1_555 1_555
H18 C18 1_555 1_555
C19 H19 1_555 1_555
C20 C19 1_555 1_555
H20 C20 1_555 1_555
C21 C20 1_555 1_555
H21 C21 1_555 1_555
C22 C21 1_555 1_555
C23 C22 1_555 1_555
H22 C23 1_555 1_555
C24 H23 1_555 1_555
C25 C24 1_555 1_555
H24 C25 1_555 1_555
C26 C25 1_555 1_555
H25 C26 1_555 1_555
C27 C26 1_555 1_555
C28 C27 1_555 1_555
H26 C28 1_555 1_555
Fe1 N1 1_555 1_555
N1 C3 1_555 1_555
N2 C9 1_555 1_555
N3 C19 1_555 1_555
N4 C22 1_555 1_555
N5 C27 1_555 1_555
N6 C24 1_555 1_555
O1 C1 1_555 1_555
O2 C12 1_555 1_555
O3 C14 1_555 1_555
O4 C17 1_555 1_555
C29 H27 1_555 1_555
C30 C29 1_555 1_555
H28 C30 1_555 1_555
C31 C30 1_555 1_555
H29 C31 1_555 1_555
C32 C31 1_555 1_555
C33 C32 1_555 1_555
H30 C33 1_555 1_555
N7 C29 1_555 1_555
N8 C32 1_555 1_555
Fe1B N6 1_555 1_555
N6B Fe1 1_555 1_555
C29F H27F 1_555 1_555
C30F C29F 1_555 1_555
H28F C30F 1_555 1_555
C31F C30F 1_555 1_555
H29F C31F 1_555 1_555
C32F C31F 1_555 1_555
C33F C32F 1_555 1_555
H30F C33F 1_555 1_555
N7F C29F 1_555 1_555
N8F N8 1_555 1_555
C4 N1 1_555 1_555
C8 C9 1_555 1_555
C10 N2 1_555 1_555
C23 N3 1_555 1_555
C28 N6 1_555 1_555
Fe1 N2 1_555 1_555
Fe1 N3 1_555 1_555
Fe1 O1 1_555 1_555
Fe1 O2 1_555 1_555
N4 N5 1_555 1_555
C33 N7 1_555 1_555
C32F N8F 1_555 1_555
C33F N7F 1_555 1_555

#END
