
#######################################################################
#
#                 Cambridge Crystallographic Data Centre
#                                CCDC 
#
#######################################################################
#
# If this CIF has been generated from an entry in the Cambridge 
# Structural Database, then it will include bibliographic, chemical, 
# crystal, experimental, refinement or atomic coordinate data resulting 
# from the CCDC's data processing and validation procedures.
#
#######################################################################

data_VUDQOB
_symmetry_cell_setting           triclinic
_symmetry_space_group_name_H-M   'P -1'
_symmetry_Int_Tables_number      2
_space_group_name_Hall           '-P 1'
loop_
_symmetry_equiv_pos_site_id
_symmetry_equiv_pos_as_xyz
1 x,y,z
2 -x,-y,-z
_cell_length_a                   10.7428(9)
_cell_length_b                   11.2786(9)
_cell_length_c                   26.172(2)
_cell_angle_alpha                85.060(2)
_cell_angle_beta                 88.1060(10)
_cell_angle_gamma                62.3670(10)
_cell_volume                     2798.87
loop_
_atom_site_label
_atom_site_type_symbol
_atom_site_fract_x
_atom_site_fract_y
_atom_site_fract_z
Yb1 Yb 0.62002(3) 0.46419(3) 0.439651(13)
Yb2 Yb 0.58858(3) -0.11723(3) 0.100360(13)
Yb3 Yb 0.65620(3) 0.65361(3) 0.258176(13)
O1 O 0.3714(5) 0.5501(5) 0.47027(18)
O2 O 0.4049(5) 0.5911(5) 0.3894(2)
O3 O 0.6658(5) 0.3549(5) 0.3660(2)
O4 O -0.2442(5) 0.5451(5) 0.3994(2)
O5 O 0.5442(6) 0.6794(5) 0.4648(2)
O6 O 0.8482(5) 0.2876(5) 0.4594(2)
O7 O 0.4268(6) 0.7187(5) 0.5384(2)
O8 O 0.6971(5) 0.0319(5) 0.0782(2)
O9 O 0.7449(5) -0.1289(5) 0.0284(2)
O10 O 0.6446(5) -0.3469(5) 0.0842(2)
O11 O 0.5055(5) -0.1891(5) 0.02803(19)
O12 O 0.3945(5) -0.1440(5) 0.1294(2)
O13 O 0.5353(6) 0.0033(5) 0.1700(2)
O14 O -0.2065(5) -0.2344(5) 0.1439(2)
O15 O 0.4145(5) 0.0865(5) 0.0587(2)
O16 O 0.6046(5) 0.4910(5) 0.29379(19)
O17 O -0.2735(5) 0.6945(5) 0.3343(2)
O18 O 0.8794(6) 0.4566(5) 0.2832(2)
O19 O -0.1591(5) -0.3026(5) 0.2256(2)
O20 O 0.5644(6) -0.1160(5) 0.2442(2)
O21 O 0.4869(5) -0.2932(5) 0.1952(2)
O22 O 0.7432(6) 0.5101(6) 0.1864(2)
O23 O 0.4390(5) 0.7553(5) 0.3054(2)
C1 C 0.3256(7) 0.5843(7) 0.4246(3)
C2 C 0.1827(7) 0.6047(7) 0.4121(3)
C3 C 0.1072(8) 0.6849(8) 0.3695(3)
H1 H 0.1441 0.7319 0.3488
C4 C 0.1265(8) 0.5351(8) 0.4437(3)
H2 H 0.1737 0.4840 0.4733
C5 C 0.4883(8) 0.7478(7) 0.5012(3)
C6 C 0.5243(8) 0.9346(7) 0.4558(3)
H3 H 0.5398 0.8909 0.4259
C7 C 0.4698(9) 0.9452(7) 0.5446(3)
H4 H 0.4485 0.9090 0.5748
C8 C 0.9167(9) 0.1790(9) 0.4409(3)
H5 H 0.8732 0.1550 0.4166
C9 C 1.1225(11) 0.1237(11) 0.4918(5)
H6 H 1.2165 0.0519 0.4962
H7 H 1.0736 0.1339 0.5238
H8 H 1.1258 0.2057 0.4808
C10 C 1.1244(12) -0.0315(9) 0.4285(5)
H9 H 1.2184 -0.0811 0.4419
H10 H 1.1275 -0.0109 0.3923
H11 H 1.0758 -0.0844 0.4347
C11 C 0.6305(7) 0.3825(7) 0.3194(3)
C12 C 0.6169(8) 0.2769(7) 0.2917(3)
C13 C 0.5799(8) 0.2992(7) 0.2405(3)
H12 H 0.5660 0.3789 0.2223
C14 C 0.6385(9) 0.1572(8) 0.3189(3)
H13 H 0.6657 0.1409 0.3532
C15 C -0.2089(8) 0.6225(7) 0.3725(3)
C16 C -0.0744(7) 0.6226(7) 0.3877(3)
C17 C -0.0221(8) 0.6957(8) 0.3576(3)
H14 H -0.0733 0.7516 0.3295
C18 C -0.0004(8) 0.5441(8) 0.4300(3)
H15 H -0.0369 0.4955 0.4500
C19 C 0.7677(8) -0.0366(8) 0.0436(3)
C20 C 0.8855(7) -0.0151(7) 0.0196(3)
C21 C 0.9669(8) -0.0928(8) -0.0184(3)
H16 H 0.9461 -0.1566 -0.0308
C22 C 0.9214(8) 0.0763(8) 0.0379(3)
H17 H 0.8688 0.1277 0.0641
C23 C 0.5613(7) -0.3086(7) 0.0466(3)
C24 C 0.5296(7) -0.4089(7) 0.0221(3)
C25 C 0.4447(8) -0.3684(7) -0.0208(3)
H18 H 0.4075 -0.2801 -0.0348
C26 C 0.5850(8) -0.5409(7) 0.0428(3)
H19 H 0.6427 -0.5684 0.0717
C27 C 0.3892(8) -0.2240(8) 0.1641(3)
C28 C 0.2586(7) -0.2407(7) 0.1685(3)
C29 C 0.1647(9) -0.2003(9) 0.1282(3)
H20 H 0.1843 -0.1643 0.0975
C30 C 0.2263(8) -0.2943(8) 0.2133(3)
H21 H 0.2892 -0.3253 0.2408
C31 C -0.1292(8) -0.2668(7) 0.1828(3)
C32 C 0.0074(7) -0.2585(7) 0.1775(3)
C33 C 0.0428(8) -0.2119(9) 0.1320(3)
H22 H -0.0161 -0.1880 0.1036
C34 C 0.1024(9) -0.3025(8) 0.2181(3)
H23 H 0.0822 -0.3379 0.2488
C35 C 0.5602(7) -0.0180(7) 0.2166(3)
C36 C 0.5809(7) 0.0867(7) 0.2431(3)
C37 C 0.5634(8) 0.2033(7) 0.2162(3)
H24 H 0.5403 0.2179 0.1815
C38 C 0.6193(9) 0.0622(7) 0.2944(3)
H25 H 0.6323 -0.0175 0.3124
C39 C 1.0008(10) 0.4271(9) 0.2760(4)
H26 H 1.0221 0.4682 0.2471
C40 C 0.4950(7) 0.8801(7) 0.5012(3)
C41 C 1.2454(14) 0.3197(15) 0.2927(6)
H27 H 1.3113 0.2539 0.3171
H28 H 1.2501 0.4025 0.2932
H29 H 1.2680 0.2882 0.2590
C42 C 1.0846(13) 0.2718(11) 0.3484(4)
H30 H 1.1730 0.2132 0.3649
H31 H 1.0415 0.2197 0.3379
H32 H 1.0240 0.3345 0.3718
N1 N 1.0503(7) 0.0934(7) 0.4539(3)
N2 N 1.1066(7) 0.3411(8) 0.3057(3)
H33 H 0.419(5) 0.699(3) 0.322(3)
H34 H 0.377(4) 0.827(5) 0.290(2)
H35 H 0.830(3) 0.486(7) 0.182(2)
H36 H 0.687(6) 0.548(10) 0.160(2)
H37 H 0.348(5) 0.081(4) 0.044(3)
H38 H 0.449(4) 0.135(5) 0.042(3)
Yb1A Yb 0.37998(3) 0.53581(3) 0.560349(13)
Yb1_2 Yb -0.37998(3) 0.46419(3) 0.439651(13)
Yb1A_2 Yb 0.37998(3) 1.53581(3) 0.560349(13)
Yb1_3 Yb 0.62002(3) 1.46419(3) 0.439651(13)
Yb1A_3 Yb 1.37998(3) 0.53581(3) 0.560349(13)
Yb2A Yb 1.41142(3) 0.11723(3) -0.100360(13)
Yb2_2 Yb -0.41142(3) -0.11723(3) 0.100360(13)
Yb2A_2 Yb 0.41142(3) -0.88277(3) -0.100360(13)
Yb2_3 Yb 1.58858(3) -0.11723(3) 0.100360(13)
Yb2_4 Yb 0.58858(3) 0.88277(3) 0.100360(13)
Yb3_2 Yb -0.34380(3) 0.65361(3) 0.258176(13)
Yb3_3 Yb -0.34380(3) -0.34639(3) 0.258176(13)
Yb3_4 Yb 0.65620(3) -0.34639(3) 0.258176(13)
Yb3A Yb 1.34380(3) 0.34639(3) 0.741824(13)
Yb3_5 Yb 1.65620(3) -0.34639(3) 0.258176(13)
Yb3_6 Yb 0.65620(3) 1.65361(3) 0.258176(13)
O1A O 0.6286(5) 0.4499(5) 0.52973(18)
O2A O 0.5951(5) 0.4089(5) 0.6106(2)
O3_2 O 0.6658(5) 1.3549(5) 0.3660(2)
O3A O 0.3342(5) 0.6451(5) 0.6340(2)
O4A O 1.2442(5) 0.4549(5) 0.6006(2)
O4_2 O 0.7558(5) 0.5451(5) 0.3994(2)
O4A_2 O 0.2442(5) 0.4549(5) 0.6006(2)
O5A O 0.4558(6) 1.3206(5) 0.5352(2)
O5A_2 O 0.4558(6) 0.3206(5) 0.5352(2)
O6A O 0.1518(5) 0.7124(5) 0.5406(2)
O7A O 0.5732(6) 1.2813(5) 0.4616(2)
O7A_2 O 0.5732(6) 0.2813(5) 0.4616(2)
O8A O 1.3029(5) -0.0319(5) -0.0782(2)
O9A O 1.2551(5) 0.1289(5) -0.0284(2)
O10A O 0.3554(5) -0.6531(5) -0.0842(2)
O10A_2 O 1.3554(5) 0.3469(5) -0.0842(2)
O11A O 0.4945(5) -0.8109(5) -0.02803(19)
O11A_2 O 1.4945(5) 0.1891(5) -0.02803(19)
O12_2 O 1.3945(5) -0.1440(5) 0.1294(2)
O12A O 1.6055(5) 0.1440(5) -0.1294(2)
O13_2 O 0.5353(6) 1.0033(5) 0.1700(2)
O13A O 1.4647(6) -0.0033(5) -0.1700(2)
O14_2 O 0.7935(5) -0.2344(5) 0.1439(2)
O14A O 1.2065(5) 0.2344(5) -0.1439(2)
O15A O 1.5855(5) -0.0865(5) -0.0587(2)
O16_2 O 0.6046(5) 1.4910(5) 0.29379(19)
O16_3 O -0.3954(5) 0.4910(5) 0.29379(19)
O17A O 1.2735(5) 0.3055(5) 0.6657(2)
O17_2 O 0.7265(5) 0.6945(5) 0.3343(2)
O18_2 O -0.1206(6) 0.4566(5) 0.2832(2)
O19_2 O 0.8409(5) -0.3026(5) 0.2256(2)
O19_3 O 0.8409(5) 0.6974(5) 0.2256(2)
O19_4 O -0.1591(5) 0.6974(5) 0.2256(2)
O20_2 O 0.5644(6) 0.8840(5) 0.2442(2)
O20_3 O -0.4356(6) 0.8840(5) 0.2442(2)
O21_2 O 1.4869(5) -0.2932(5) 0.1952(2)
O21_3 O 0.4869(5) 0.7068(5) 0.1952(2)
O21_4 O -0.5131(5) 0.7068(5) 0.1952(2)
O22_2 O -0.2568(6) 0.5101(6) 0.1864(2)
O23_2 O -0.5610(5) 0.7553(5) 0.3054(2)
C1A C 0.6744(7) 0.4157(7) 0.5754(3)
C2A C 0.8173(7) 0.3953(7) 0.5879(3)
C3A C 0.8928(8) 0.3151(8) 0.6305(3)
H1A H 0.8559 0.2681 0.6512
C4A C 0.8735(8) 0.4649(8) 0.5563(3)
H2A H 0.8263 0.5160 0.5267
C5A C 0.5117(8) 1.2522(7) 0.4988(3)
C6A C 0.4757(8) 1.0654(7) 0.5442(3)
H3A H 0.4602 1.1091 0.5741
C7A C 0.5302(9) 1.0548(7) 0.4554(3)
H4A H 0.5515 1.0910 0.4252
C8A C 0.0833(9) 0.8210(9) 0.5591(3)
H5A H 0.1268 0.8450 0.5834
C9A C -0.1225(11) 0.8763(11) 0.5082(5)
H6A H -0.2165 0.9481 0.5038
H7A H -0.0736 0.8661 0.4762
H8A H -0.1258 0.7943 0.5192
C10A C -0.1244(12) 1.0315(9) 0.5715(5)
H9A H -0.2184 1.0811 0.5581
H10A H -0.1275 1.0109 0.6077
H11A H -0.0758 1.0844 0.5653
C11_2 C 0.6305(7) 1.3825(7) 0.3194(3)
C12_2 C 0.6169(8) 1.2769(7) 0.2917(3)
C13_2 C 0.5799(8) 1.2992(7) 0.2405(3)
H12_2 H 0.5660 1.3789 0.2223
C14_2 C 0.6385(9) 1.1572(8) 0.3189(3)
H13_2 H 0.6657 1.1409 0.3532
C15A C 1.2089(8) 0.3775(7) 0.6275(3)
C16A C 1.0744(7) 0.3774(7) 0.6123(3)
C17A C 1.0221(8) 0.3043(8) 0.6424(3)
H14A H 1.0733 0.2484 0.6705
C18A C 1.0004(8) 0.4559(8) 0.5700(3)
H15A H 1.0369 0.5045 0.5500
C19A C 1.2323(8) 0.0366(8) -0.0436(3)
C20A C 1.1145(7) 0.0151(7) -0.0196(3)
C21A C 1.0331(8) 0.0928(8) 0.0184(3)
H16A H 1.0539 0.1566 0.0308
C22A C 1.0786(8) -0.0763(8) -0.0379(3)
H17A H 1.1312 -0.1277 -0.0641
C23A C 0.4387(7) -0.6914(7) -0.0466(3)
C24A C 0.4704(7) -0.5911(7) -0.0221(3)
C25A C 0.5553(8) -0.6316(7) 0.0208(3)
H18A H 0.5925 -0.7199 0.0348
C26A C 0.4150(8) -0.4591(7) -0.0428(3)
H19A H 0.3573 -0.4316 -0.0717
C27_2 C 1.3892(8) -0.2240(8) 0.1641(3)
C28_2 C 1.2586(7) -0.2407(7) 0.1685(3)
C29_2 C 1.1647(9) -0.2003(9) 0.1282(3)
H20_2 H 1.1843 -0.1643 0.0975
C30_2 C 1.2263(8) -0.2943(8) 0.2133(3)
H21_2 H 1.2892 -0.3253 0.2408
C31_2 C 0.8708(8) -0.2668(7) 0.1828(3)
C32_2 C 1.0074(7) -0.2585(7) 0.1775(3)
C33_2 C 1.0428(8) -0.2119(9) 0.1320(3)
H22_2 H 0.9839 -0.1880 0.1036
C34_2 C 1.1024(9) -0.3025(8) 0.2181(3)
H23_2 H 1.0822 -0.3379 0.2488
C35_2 C 0.5602(7) 0.9820(7) 0.2166(3)
C36_2 C 0.5809(7) 1.0867(7) 0.2431(3)
C37_2 C 0.5634(8) 1.2033(7) 0.2162(3)
H24_2 H 0.5403 1.2179 0.1815
C38_2 C 0.6193(9) 1.0622(7) 0.2944(3)
H25_2 H 0.6323 0.9825 0.3124
C39_2 C 0.0008(10) 0.4271(9) 0.2760(4)
H26_2 H 0.0221 0.4682 0.2471
C40A C 0.5050(7) 1.1199(7) 0.4988(3)
C41_2 C 0.2454(14) 0.3197(15) 0.2927(6)
H27_2 H 0.3113 0.2539 0.3171
H28_2 H 0.2501 0.4025 0.2932
H29_2 H 0.2680 0.2882 0.2590
C42_2 C 0.0846(13) 0.2718(11) 0.3484(4)
H30_2 H 0.1730 0.2132 0.3649
H31_2 H 0.0415 0.2197 0.3379
H32_2 H 0.0240 0.3345 0.3718
N1A N -0.0503(7) 0.9066(7) 0.5461(3)
N2_2 N 0.1066(7) 0.3411(8) 0.3057(3)
H33_2 H -0.581(5) 0.699(3) 0.322(3)
H34_2 H -0.623(4) 0.827(5) 0.290(2)
H35_2 H -0.170(3) 0.486(7) 0.182(2)
H36_2 H -0.313(6) 0.548(10) 0.160(2)
H37A H 1.652(5) -0.081(4) -0.044(3)
H38A H 1.551(4) -0.135(5) -0.042(3)
O24 O 0.0111(7) 0.4286(7) 0.1517(3)
C43 C 0.0137(11) 0.4811(11) 0.1096(5)
H39 H -0.0708 0.5281 0.0916
C44 C 0.1249(16) 0.5422(15) 0.0391(6)
H40 H 0.2185 0.5255 0.0299
H41 H 0.0662 0.6370 0.0405
H42 H 0.0882 0.5091 0.0141
C45 C 0.2593(12) 0.4074(13) 0.1142(5)
H43 H 0.3318 0.4121 0.0930
H44 H 0.2810 0.3151 0.1222
H45 H 0.2533 0.4487 0.1454
N3 N 0.1277(10) 0.4764(9) 0.0874(4)
O25 O 0.1749(12) -0.0280(10) 0.2932(4)
C46 C 0.013(3) 0.045(3) 0.2589(13)
H46 H -0.0758 0.0526 0.2653
C47 C 0.182(2) 0.078(2) 0.2133(9)
H47 H 0.1760 0.1226 0.1798
H48 H 0.2551 -0.0126 0.2138
H49 H 0.2027 0.1248 0.2381
C48 C -0.035(3) 0.131(2) 0.1820(10)
H50 H 0.0026 0.1628 0.1532
H51 H -0.1197 0.2041 0.1931
H52 H -0.0539 0.0612 0.1724
N4 N 0.0680(13) 0.0790(10) 0.2239(5)
loop_
_geom_bond_atom_site_label_1
_geom_bond_atom_site_label_2
_geom_bond_site_symmetry_1
_geom_bond_site_symmetry_2
Yb1 O1 1_555 1_555
Yb2 O8 1_555 1_555
Yb3 O16 1_555 1_555
O1 C1 1_555 1_555
O2 Yb1 1_555 1_555
O3 Yb1 1_555 1_555
O4 C15 1_555 1_555
O5 Yb1 1_555 1_555
O6 Yb1 1_555 1_555
O7 C5 1_555 1_555
O8 C19 1_555 1_555
O9 Yb2 1_555 1_555
O10 Yb2 1_555 1_555
O11 Yb2 1_555 1_555
O12 Yb2 1_555 1_555
O13 Yb2 1_555 1_555
O14 C31 1_555 1_555
O15 Yb2 1_555 1_555
O16 C11 1_555 1_555
O17 C15 1_555 1_555
O18 Yb3 1_555 1_555
O19 C31 1_555 1_555
O20 C35 1_555 1_555
O21 C27 1_555 1_555
O22 Yb3 1_555 1_555
O23 Yb3 1_555 1_555
C1 O2 1_555 1_555
C2 C1 1_555 1_555
C3 C2 1_555 1_555
H1 C3 1_555 1_555
C4 C2 1_555 1_555
H2 C4 1_555 1_555
C5 O5 1_555 1_555
C6 H3 1_555 1_555
C7 H4 1_555 1_555
C8 O6 1_555 1_555
H5 C8 1_555 1_555
C9 H6 1_555 1_555
H7 C9 1_555 1_555
H8 C9 1_555 1_555
C10 H9 1_555 1_555
H10 C10 1_555 1_555
H11 C10 1_555 1_555
C11 O3 1_555 1_555
C12 C11 1_555 1_555
C13 C12 1_555 1_555
H12 C13 1_555 1_555
C14 C12 1_555 1_555
H13 C14 1_555 1_555
C15 C16 1_555 1_555
C16 C17 1_555 1_555
C17 C3 1_555 1_555
H14 C17 1_555 1_555
C18 C4 1_555 1_555
H15 C18 1_555 1_555
C19 O9 1_555 1_555
C20 C19 1_555 1_555
C21 C20 1_555 1_555
H16 C21 1_555 1_555
C22 C20 1_555 1_555
H17 C22 1_555 1_555
C23 O10 1_555 1_555
C24 C23 1_555 1_555
C25 C24 1_555 1_555
H18 C25 1_555 1_555
C26 C24 1_555 1_555
H19 C26 1_555 1_555
C27 O12 1_555 1_555
C28 C27 1_555 1_555
C29 C28 1_555 1_555
H20 C29 1_555 1_555
C30 C28 1_555 1_555
H21 C30 1_555 1_555
C31 C32 1_555 1_555
C32 C33 1_555 1_555
C33 C29 1_555 1_555
H22 C33 1_555 1_555
C34 C30 1_555 1_555
H23 C34 1_555 1_555
C35 O13 1_555 1_555
C36 C35 1_555 1_555
C37 C13 1_555 1_555
H24 C37 1_555 1_555
C38 C14 1_555 1_555
H25 C38 1_555 1_555
C39 O18 1_555 1_555
H26 C39 1_555 1_555
C40 C5 1_555 1_555
C41 H27 1_555 1_555
H28 C41 1_555 1_555
H29 C41 1_555 1_555
C42 H30 1_555 1_555
H31 C42 1_555 1_555
H32 C42 1_555 1_555
N1 C8 1_555 1_555
N2 C39 1_555 1_555
H33 O23 1_555 1_555
H34 O23 1_555 1_555
H35 O22 1_555 1_555
H36 O22 1_555 1_555
H37 O15 1_555 1_555
H38 O15 1_555 1_555
O24 C43 1_555 1_555
C43 H39 1_555 1_555
C44 H40 1_555 1_555
H41 C44 1_555 1_555
H42 C44 1_555 1_555
C45 H43 1_555 1_555
H44 C45 1_555 1_555
H45 C45 1_555 1_555
N3 C43 1_555 1_555
O25 C46 1_555 1_555
C46 H46 1_555 1_555
C47 H47 1_555 1_555
H48 C47 1_555 1_555
H49 C47 1_555 1_555
C48 H50 1_555 1_555
H51 C48 1_555 1_555
H52 C48 1_555 1_555
N4 C46 1_555 1_555
Yb1A O1 1_555 1_555
Yb1_2 O4 1_555 1_555
Yb1A_2 O5A 1_555 1_555
Yb1_3 O3_2 1_555 1_555
Yb1A_3 O4A 1_555 1_555
Yb2A O8A 1_555 1_555
Yb2_2 O14 1_555 1_555
Yb2A_2 O10A 1_555 1_555
Yb2_3 O12_2 1_555 1_555
Yb2_4 O13_2 1_555 1_555
Yb3_2 O17 1_555 1_555
Yb3_3 O19 1_555 1_555
Yb3_4 O20 1_555 1_555
Yb3A O17A 1_555 1_555
Yb3_5 O21_2 1_555 1_555
Yb3_6 O16_2 1_555 1_555
O1A Yb1 1_555 1_555
O2A Yb1A 1_555 1_555
O3_2 C11_2 1_555 1_555
O3A Yb1A 1_555 1_555
O4A C15A 1_555 1_555
O4_2 Yb1 1_555 1_555
O4A_2 Yb1A 1_555 1_555
O5A C5A 1_555 1_555
O5A_2 Yb1A 1_555 1_555
O6A Yb1A 1_555 1_555
O7A Yb1_3 1_555 1_555
O7A_2 Yb1 1_555 1_555
O8A C19A 1_555 1_555
O9A Yb2A 1_555 1_555
O10A C23A 1_555 1_555
O10A_2 Yb2A 1_555 1_555
O11A Yb2A_2 1_555 1_555
O11A_2 Yb2A 1_555 1_555
O12_2 C27_2 1_555 1_555
O12A Yb2A 1_555 1_555
O13_2 C35_2 1_555 1_555
O13A Yb2A 1_555 1_555
O14_2 Yb2 1_555 1_555
O14A Yb2A 1_555 1_555
O15A Yb2A 1_555 1_555
O16_2 C11_2 1_555 1_555
O16_3 Yb3_2 1_555 1_555
O17A C15A 1_555 1_555
O17_2 Yb3 1_555 1_555
O18_2 Yb3_2 1_555 1_555
O19_2 Yb3_4 1_555 1_555
O19_3 Yb3 1_555 1_555
O19_4 Yb3_2 1_555 1_555
O20_2 Yb3 1_555 1_555
O20_3 Yb3_2 1_555 1_555
O21_2 C27_2 1_555 1_555
O21_3 Yb3 1_555 1_555
O21_4 Yb3_2 1_555 1_555
O22_2 Yb3_2 1_555 1_555
O23_2 Yb3_2 1_555 1_555
C1A O1A 1_555 1_555
C2A C1A 1_555 1_555
C3A C2A 1_555 1_555
H1A C3A 1_555 1_555
C4A C2A 1_555 1_555
H2A C4A 1_555 1_555
C5A O7A 1_555 1_555
C6A C7 1_555 1_555
H3A C6A 1_555 1_555
C7A C6 1_555 1_555
H4A C7A 1_555 1_555
C8A O6A 1_555 1_555
H5A C8A 1_555 1_555
C9A H6A 1_555 1_555
H7A C9A 1_555 1_555
H8A C9A 1_555 1_555
C10A H9A 1_555 1_555
H10A C10A 1_555 1_555
H11A C10A 1_555 1_555
C11_2 C12_2 1_555 1_555
C12_2 C13_2 1_555 1_555
C13_2 H12_2 1_555 1_555
C14_2 C12_2 1_555 1_555
H13_2 C14_2 1_555 1_555
C15A C16A 1_555 1_555
C16A C17A 1_555 1_555
C17A C3A 1_555 1_555
H14A C17A 1_555 1_555
C18A C4A 1_555 1_555
H15A C18A 1_555 1_555
C19A O9A 1_555 1_555
C20A C19A 1_555 1_555
C21A C22 1_555 1_555
H16A C21A 1_555 1_555
C22A C21 1_555 1_555
H17A C22A 1_555 1_555
C23A O11A 1_555 1_555
C24A C23A 1_555 1_555
C25A C26 1_555 1_555
H18A C25A 1_555 1_555
C26A C25 1_555 1_555
H19A C26A 1_555 1_555
C27_2 C28_2 1_555 1_555
C28_2 C29_2 1_555 1_555
C29_2 H20_2 1_555 1_555
C30_2 C28_2 1_555 1_555
H21_2 C30_2 1_555 1_555
C31_2 O14_2 1_555 1_555
C32_2 C31_2 1_555 1_555
C33_2 C29_2 1_555 1_555
H22_2 C33_2 1_555 1_555
C34_2 C30_2 1_555 1_555
H23_2 C34_2 1_555 1_555
C35_2 O20_2 1_555 1_555
C36_2 C35_2 1_555 1_555
C37_2 C13_2 1_555 1_555
H24_2 C37_2 1_555 1_555
C38_2 C14_2 1_555 1_555
H25_2 C38_2 1_555 1_555
C39_2 O18_2 1_555 1_555
H26_2 C39_2 1_555 1_555
C40A C5A 1_555 1_555
C41_2 H27_2 1_555 1_555
H28_2 C41_2 1_555 1_555
H29_2 C41_2 1_555 1_555
C42_2 H30_2 1_555 1_555
H31_2 C42_2 1_555 1_555
H32_2 C42_2 1_555 1_555
N1A C8A 1_555 1_555
N2_2 C39_2 1_555 1_555
H33_2 O23_2 1_555 1_555
H34_2 O23_2 1_555 1_555
H35_2 O22_2 1_555 1_555
H36_2 O22_2 1_555 1_555
H37A O15A 1_555 1_555
H38A O15A 1_555 1_555
O7 Yb1A 1_555 1_555
O11 C23 1_555 1_555
O21 Yb3_4 1_555 1_555
C6 C40 1_555 1_555
C7 C40 1_555 1_555
C9 N1 1_555 1_555
C10 N1 1_555 1_555
C16 C18 1_555 1_555
C32 C34 1_555 1_555
C36 C37 1_555 1_555
C36 C38 1_555 1_555
C41 N2 1_555 1_555
C42 N2 1_555 1_555
C44 N3 1_555 1_555
C45 N3 1_555 1_555
C47 N4 1_555 1_555
C48 N4 1_555 1_555
Yb1A O1A 1_555 1_555
O2A C1A 1_555 1_555
O19_2 C31_2 1_555 1_555
C6A C40A 1_555 1_555
C7A C40A 1_555 1_555
C9A N1A 1_555 1_555
C10A N1A 1_555 1_555
C16A C18A 1_555 1_555
C20A C21A 1_555 1_555
C20A C22A 1_555 1_555
C24A C25A 1_555 1_555
C24A C26A 1_555 1_555
C32_2 C33_2 1_555 1_555
C32_2 C34_2 1_555 1_555
C36_2 C37_2 1_555 1_555
C36_2 C38_2 1_555 1_555
C41_2 N2_2 1_555 1_555
C42_2 N2_2 1_555 1_555

#END
