
#######################################################################
#
#                 Cambridge Crystallographic Data Centre
#                                CCDC 
#
#######################################################################
#
# If this CIF has been generated from an entry in the Cambridge 
# Structural Database, then it will include bibliographic, chemical, 
# crystal, experimental, refinement or atomic coordinate data resulting 
# from the CCDC's data processing and validation procedures.
#
#######################################################################

data_VUDSUK
_symmetry_cell_setting           monoclinic
_symmetry_space_group_name_H-M   'P 21/c'
_symmetry_Int_Tables_number      14
_space_group_name_Hall           '-P 2ybc'
loop_
_symmetry_equiv_pos_site_id
_symmetry_equiv_pos_as_xyz
1 x,y,z
2 -x,1/2+y,1/2-z
3 -x,-y,-z
4 x,1/2-y,1/2+z
_cell_length_a                   8.4879(3)
_cell_length_b                   13.2677(3)
_cell_length_c                   14.2857(5)
_cell_angle_alpha                90
_cell_angle_beta                 120.695(3)
_cell_angle_gamma                90
_cell_volume                     1383.39
loop_
_atom_site_label
_atom_site_type_symbol
_atom_site_fract_x
_atom_site_fract_y
_atom_site_fract_z
C1 C 0.1248(3) 0.27698(15) 0.38432(17)
C2 C 0.0102(3) 0.24652(18) 0.41927(18)
H1 H 0.0209 0.2675 0.4844
C3 C -0.1259(3) 0.17989(18) 0.34620(19)
H2 H -0.2129 0.1506 0.3588
C4 C -0.1171(3) 0.16274(16) 0.25511(18)
C5 C 0.2768(3) 0.35157(15) 0.43547(16)
C6 C -0.2476(3) 0.10207(16) 0.15833(18)
C7 C 0.1813(3) 0.51730(19) 0.66355(19)
H3 H 0.0999 0.4769 0.6057
C8 C 0.1718(4) 0.53741(18) 0.7523(2)
H4 H 0.0831 0.5145 0.7671
C9 C 0.4116(3) 0.61443(18) 0.76636(19)
C10 C 0.5779(4) 0.6779(3) 0.8097(2)
H5 H 0.6077 0.7045 0.8793
H6 H 0.5557 0.7324 0.7603
H7 H 0.6782 0.6378 0.8177
C11 C 0.3741(4) 0.6251(2) 0.9296(2)
H8 H 0.2692 0.6513 0.9316
H9 H 0.4660 0.6778 0.9548
C12 C 0.4493(9) 0.5378(3) 1.0034(3)
H10 H 0.5228 0.5656 1.0760
H11 H 0.3452 0.5053 1.0014
N1 N 0.3315(2) 0.56635(14) 0.67169(15)
N2 N 0.3183(3) 0.59852(15) 0.81751(15)
O1 O 0.2776(2) 0.40833(12) 0.50477(14)
O2 O 0.3897(2) 0.35112(13) 0.40368(16)
O3 O -0.2366(2) 0.10950(14) 0.07457(14)
O4 O -0.3576(3) 0.04957(14) 0.16978(16)
S1 S 0.06379(7) 0.22540(4) 0.26011(4)
Zn1 Zn 0.42057(3) 0.540363(17) 0.568679(18)
C7B C 0.8187(3) 0.48270(19) 1.33645(19)
H3B H 0.9001 0.5231 1.3943
C8B C 0.8282(4) 0.46259(18) 1.2477(2)
H4B H 0.9169 0.4855 1.2329
C9B C 0.5884(3) 0.38557(18) 1.23364(19)
C10B C 0.4221(4) 0.3221(3) 1.1903(2)
H5B H 0.3923 0.2955 1.1207
H6B H 0.4443 0.2676 1.2397
H7B H 0.3218 0.3622 1.1823
C11B C 0.6259(4) 0.3749(2) 1.0704(2)
H8B H 0.7308 0.3487 1.0684
H9B H 0.5340 0.3222 1.0452
C12B C 0.5507(9) 0.4622(3) 0.9966(3)
H10B H 0.4772 0.4344 0.9240
H11B H 0.6548 0.4947 0.9986
N1B N 0.6685(2) 0.43365(14) 1.32831(15)
N2B N 0.6817(3) 0.40148(15) 1.18249(15)
C1B C 0.8752(3) 0.72302(15) 0.61568(17)
C2B C 0.9898(3) 0.75348(18) 0.58073(18)
H1B H 0.9791 0.7325 0.5156
C3B C 1.1259(3) 0.82011(18) 0.65380(19)
H2B H 1.2129 0.8494 0.6412
C4B C 1.1171(3) 0.83726(16) 0.74489(18)
C5B C 0.7232(3) 0.64843(15) 0.56453(16)
C6B C 1.2476(3) 0.89793(16) 0.84167(18)
O1B O 0.7224(2) 0.59167(12) 0.49523(14)
O2B O 0.6103(2) 0.64888(13) 0.59632(16)
O3B O 1.2366(2) 0.89050(14) 0.92543(14)
O4B O 1.3576(3) 0.95043(14) 0.83022(16)
S1B S 0.93621(7) 0.77460(4) 0.73989(4)
Zn1B Zn 0.57943(3) 0.459637(17) 0.431321(18)
N1B_2 N 0.6685(2) 0.43365(14) 0.32831(15)
O3A O 0.2366(2) 0.60950(14) 0.42543(14)
O3C O 0.7634(2) 0.39050(14) 0.57457(14)
O4A O 0.3576(3) 0.54957(14) 0.33022(16)
O4C O 0.6424(3) 0.45043(14) 0.66978(16)
Zn1A Zn -0.42057(3) 0.040363(17) -0.068679(18)
Zn1A_2 Zn 1.57943(3) 1.040363(17) 0.931321(18)
Zn1B_2 Zn 0.57943(3) 0.459637(17) 1.431321(18)
Zn1C Zn -0.57943(3) -0.040363(17) 0.068679(18)
Zn1C_2 Zn 1.42057(3) 0.959637(17) 1.068679(18)
loop_
_geom_bond_atom_site_label_1
_geom_bond_atom_site_label_2
_geom_bond_site_symmetry_1
_geom_bond_site_symmetry_2
C1 C2 1_555 1_555
C2 H1 1_555 1_555
C3 C2 1_555 1_555
H2 C3 1_555 1_555
C4 C3 1_555 1_555
C5 C1 1_555 1_555
C6 C4 1_555 1_555
C7 H3 1_555 1_555
C8 C7 1_555 1_555
H4 C8 1_555 1_555
C9 C10 1_555 1_555
C10 H5 1_555 1_555
H6 C10 1_555 1_555
H7 C10 1_555 1_555
C11 H8 1_555 1_555
H9 C11 1_555 1_555
C12 C11 1_555 1_555
H10 C12 1_555 1_555
H11 C12 1_555 1_555
N1 C7 1_555 1_555
N2 C8 1_555 1_555
O1 C5 1_555 1_555
O2 C5 1_555 1_555
O3 C6 1_555 1_555
O4 C6 1_555 1_555
S1 C1 1_555 1_555
Zn1 N1 1_555 1_555
C7B H3B 1_555 1_555
C8B C7B 1_555 1_555
H4B C8B 1_555 1_555
C9B C10B 1_555 1_555
C10B H5B 1_555 1_555
H6B C10B 1_555 1_555
H7B C10B 1_555 1_555
C11B H8B 1_555 1_555
H9B C11B 1_555 1_555
C12B C12 1_555 1_555
H10B C12B 1_555 1_555
H11B C12B 1_555 1_555
N1B C7B 1_555 1_555
N2B C8B 1_555 1_555
C1B C2B 1_555 1_555
C2B H1B 1_555 1_555
C3B C2B 1_555 1_555
H2B C3B 1_555 1_555
C4B C3B 1_555 1_555
C5B C1B 1_555 1_555
C6B C4B 1_555 1_555
O1B C5B 1_555 1_555
O2B Zn1 1_555 1_555
O3B C6B 1_555 1_555
O4B C6B 1_555 1_555
S1B C1B 1_555 1_555
Zn1B O2 1_555 1_555
N1B_2 Zn1B 1_555 1_555
O3A Zn1 1_555 1_555
O3C Zn1B 1_555 1_555
O4A Zn1B 1_555 1_555
O4C Zn1 1_555 1_555
Zn1A O3 1_555 1_555
Zn1A_2 O4B 1_555 1_555
Zn1B_2 N1B 1_555 1_555
Zn1C O4 1_555 1_555
Zn1C_2 O3B 1_555 1_555
C4 S1 1_555 1_555
C9 N1 1_555 1_555
C9 N2 1_555 1_555
C11 N2 1_555 1_555
O1 Zn1 1_555 1_555
C9B N1B 1_555 1_555
C9B N2B 1_555 1_555
C11B C12B 1_555 1_555
C11B N2B 1_555 1_555
C4B S1B 1_555 1_555
C5B O2B 1_555 1_555
O1B Zn1B 1_555 1_555

#END
