
#######################################################################
#
#                 Cambridge Crystallographic Data Centre
#                                CCDC 
#
#######################################################################
#
# If this CIF has been generated from an entry in the Cambridge 
# Structural Database, then it will include bibliographic, chemical, 
# crystal, experimental, refinement or atomic coordinate data resulting 
# from the CCDC's data processing and validation procedures.
#
#######################################################################

data_VUDTAR
_symmetry_cell_setting           monoclinic
_symmetry_space_group_name_H-M   'C 2/c'
_symmetry_Int_Tables_number      15
_space_group_name_Hall           '-C 2yn'
loop_
_symmetry_equiv_pos_site_id
_symmetry_equiv_pos_as_xyz
1 x,y,z
2 -x,y,1/2-z
3 1/2+x,1/2+y,z
4 1/2-x,1/2+y,1/2-z
5 -x,-y,-z
6 x,-y,1/2+z
7 1/2-x,1/2-y,-z
8 1/2+x,1/2-y,1/2+z
_cell_length_a                   14.1870(3)
_cell_length_b                   16.5430(4)
_cell_length_c                   14.7590(3)
_cell_angle_alpha                90
_cell_angle_beta                 90.6860(10)
_cell_angle_gamma                90
_cell_volume                     3463.62
loop_
_atom_site_label
_atom_site_type_symbol
_atom_site_fract_x
_atom_site_fract_y
_atom_site_fract_z
Zn1 Zn 0.788943(15) 0.336114(13) 0.501796(14)
S1 S 1.0000 0.25087(4) 0.7500
S2 S 1.0000 0.26392(5) 0.2500
O1 O 0.87044(11) 0.28752(10) 0.40316(10)
O2 O 0.86731(11) 0.27434(10) 0.59685(11)
O3 O 0.81595(12) 0.16074(10) 0.40495(12)
O4 O 0.81302(12) 0.14735(10) 0.59352(11)
N1 N 0.84996(11) 0.44334(10) 0.52646(11)
N2 N 0.90349(12) 0.56772(11) 0.52256(14)
C1 C 0.93883(14) 0.19160(13) 0.30823(13)
C2 C 0.83126(17) 0.70190(14) 0.49820(18)
C3 C 0.93731(15) 0.17889(13) 0.69157(14)
C4 C 0.86409(14) 0.50707(13) 0.47375(15)
C5 C 0.86916(14) 0.21516(13) 0.37750(13)
C6 C 0.96479(16) 0.11578(14) 0.28334(15)
H1 H 0.9389 0.0690 0.3076
C7 C 0.84114(18) 0.51045(17) 0.37491(17)
H2 H 0.8426 0.4560 0.3507
H3 H 0.8897 0.5413 0.3448
C8 C 0.88101(16) 0.46472(14) 0.61203(15)
H4 H 0.8793 0.4316 0.6629
C9 C 0.86649(14) 0.20218(13) 0.62164(13)
C10 C 0.67542(19) 0.72929(17) 0.5532(2)
H5 H 0.6255 0.7143 0.5899
C11 C 0.7561(2) 0.68160(19) 0.5511(2)
H6 H 0.7591 0.6350 0.5863
C12 C 0.92000(16) 0.65074(13) 0.4933(2)
H7 H 0.9425 0.6504 0.4315
H8 H 0.9687 0.6747 0.5314
C13 C 0.9636(2) 0.10357(16) 0.7168(2)
H9 H 0.9367 0.0568 0.6931
C14 C 0.91408(17) 0.54082(14) 0.61061(17)
H10 H 0.9391 0.5697 0.6593
C15 C 0.7454(2) 0.54799(19) 0.3521(2)
H11 H 0.7357 0.5479 0.2876
H12 H 0.7437 0.6026 0.3741
H13 H 0.6965 0.5171 0.3803
O2A O 1.13269(11) 0.27434(10) 0.90315(11)
O4A O 1.18698(12) 0.14735(10) 0.90648(11)
C3A C 1.06269(15) 0.17889(13) 0.80843(14)
C9A C 1.13351(14) 0.20218(13) 0.87836(13)
C13A C 1.0364(2) 0.10357(16) 0.7832(2)
H9A H 1.0633 0.0568 0.8069
O1A O 1.12956(11) 0.28752(10) 0.09684(10)
O3A O 1.18405(12) 0.16074(10) 0.09505(12)
C1A C 1.06117(14) 0.19160(13) 0.19177(13)
C5A C 1.13084(14) 0.21516(13) 0.12250(13)
C6A C 1.03521(16) 0.11578(14) 0.21666(15)
H1A H 1.0611 0.0690 0.1924
N1F N 0.65004(11) 1.05666(10) 0.47354(11)
N2F N 0.59651(12) 0.93228(11) 0.47744(14)
C2F C 0.66874(17) 0.79810(14) 0.50180(18)
C4F C 0.63591(14) 0.99293(13) 0.52625(15)
C7F C 0.65886(18) 0.98955(17) 0.62509(17)
H2F H 0.6574 1.0440 0.6493
H3F H 0.6103 0.9587 0.6552
C8F C 0.61899(16) 1.03528(14) 0.38797(15)
H4F H 0.6207 1.0684 0.3371
C10F C 0.82458(19) 0.77071(17) 0.4468(2)
H5F H 0.8745 0.7857 0.4101
C11F C 0.7439(2) 0.81840(19) 0.4489(2)
H6F H 0.7409 0.8650 0.4137
C12F C 0.58000(16) 0.84926(13) 0.5067(2)
H7F H 0.5575 0.8496 0.5685
H8F H 0.5313 0.8253 0.4686
C14F C 0.58592(17) 0.95918(14) 0.38939(17)
H10F H 0.5609 0.9303 0.3407
C15F C 0.7546(2) 0.95201(19) 0.6479(2)
H11F H 0.7643 0.9521 0.7124
H12F H 0.7563 0.8974 0.6259
H13F H 0.8035 0.9829 0.6197
Zn1A Zn 1.211057(15) 0.336114(13) -0.001796(14)
Zn1A_2 Zn 1.211057(15) 0.336114(13) 0.998204(14)
Zn1F Zn 0.711057(15) 0.163886(13) 0.498204(14)
Zn1F_2 Zn 0.711057(15) 1.163886(13) 0.498204(14)
Zn1G Zn 1.288943(15) 0.163886(13) 0.001796(14)
Zn1G_2 Zn 1.288943(15) 0.163886(13) 1.001796(14)
O2A_2 O 1.13269(11) 0.27434(10) -0.09685(11)
O3F O 0.68405(12) 0.33926(10) 0.59505(12)
O3G O 1.31595(12) 0.33926(10) -0.09505(12)
O4F O 0.68698(12) 0.35265(10) 0.40648(11)
O4G O 1.31302(12) 0.35265(10) 0.09352(11)
N1A N 1.15004(11) 0.44334(10) -0.02646(11)
loop_
_geom_bond_atom_site_label_1
_geom_bond_atom_site_label_2
_geom_bond_site_symmetry_1
_geom_bond_site_symmetry_2
Zn1 O1 1_555 1_555
S1 C3 1_555 1_555
S2 C1 1_555 1_555
O1 C5 1_555 1_555
O2 Zn1 1_555 1_555
O3 C5 1_555 1_555
O4 C9 1_555 1_555
N1 Zn1 1_555 1_555
N2 C4 1_555 1_555
C1 C5 1_555 1_555
C2 C11 1_555 1_555
C3 C9 1_555 1_555
C4 N1 1_555 1_555
C6 C1 1_555 1_555
H1 C6 1_555 1_555
C7 C4 1_555 1_555
H2 C7 1_555 1_555
H3 C7 1_555 1_555
C8 N1 1_555 1_555
H4 C8 1_555 1_555
C9 O2 1_555 1_555
C10 H5 1_555 1_555
C11 C10 1_555 1_555
H6 C11 1_555 1_555
C12 N2 1_555 1_555
H7 C12 1_555 1_555
H8 C12 1_555 1_555
C13 C3 1_555 1_555
H9 C13 1_555 1_555
C14 N2 1_555 1_555
H10 C14 1_555 1_555
C15 C7 1_555 1_555
H11 C15 1_555 1_555
H12 C15 1_555 1_555
H13 C15 1_555 1_555
O2A C9A 1_555 1_555
O4A C9A 1_555 1_555
C3A S1 1_555 1_555
C9A C3A 1_555 1_555
C13A C13 1_555 1_555
H9A C13A 1_555 1_555
O1A C5A 1_555 1_555
O3A C5A 1_555 1_555
C1A S2 1_555 1_555
C5A C1A 1_555 1_555
C6A C6 1_555 1_555
H1A C6A 1_555 1_555
N1F C4F 1_555 1_555
N2F C4F 1_555 1_555
C2F C10 1_555 1_555
C4F C7F 1_555 1_555
C7F H2F 1_555 1_555
H3F C7F 1_555 1_555
C8F N1F 1_555 1_555
H4F C8F 1_555 1_555
C10F C2 1_555 1_555
H5F C10F 1_555 1_555
C11F C2F 1_555 1_555
H6F C11F 1_555 1_555
C12F N2F 1_555 1_555
H7F C12F 1_555 1_555
H8F C12F 1_555 1_555
C14F N2F 1_555 1_555
H10F C14F 1_555 1_555
C15F C7F 1_555 1_555
H11F C15F 1_555 1_555
H12F C15F 1_555 1_555
H13F C15F 1_555 1_555
Zn1A O1A 1_555 1_555
Zn1A_2 O2A 1_555 1_555
Zn1F O3 1_555 1_555
Zn1F_2 N1F 1_555 1_555
Zn1G O3A 1_555 1_555
Zn1G_2 O4A 1_555 1_555
O2A_2 Zn1A 1_555 1_555
O3F Zn1 1_555 1_555
O3G Zn1A 1_555 1_555
O4F Zn1 1_555 1_555
O4G Zn1A 1_555 1_555
N1A Zn1A 1_555 1_555
O4 Zn1F 1_555 1_555
C2 C12 1_555 1_555
C8 C14 1_555 1_555
C3A C13A 1_555 1_555
C1A C6A 1_555 1_555
C2F C12F 1_555 1_555
C8F C14F 1_555 1_555
C10F C11F 1_555 1_555

#END
