
#######################################################################
#
#                 Cambridge Crystallographic Data Centre
#                                CCDC 
#
#######################################################################
#
# If this CIF has been generated from an entry in the Cambridge 
# Structural Database, then it will include bibliographic, chemical, 
# crystal, experimental, refinement or atomic coordinate data resulting 
# from the CCDC's data processing and validation procedures.
#
#######################################################################

data_VUDYEZ
_symmetry_cell_setting           monoclinic
_symmetry_space_group_name_H-M   'P 21/c'
_symmetry_Int_Tables_number      14
_space_group_name_Hall           '-P 2ybc'
loop_
_symmetry_equiv_pos_site_id
_symmetry_equiv_pos_as_xyz
1 x,y,z
2 -x,1/2+y,1/2-z
3 -x,-y,-z
4 x,1/2-y,1/2+z
_cell_length_a                   13.999(3)
_cell_length_b                   11.219(2)
_cell_length_c                   12.887(3)
_cell_angle_alpha                90
_cell_angle_beta                 102.35(3)
_cell_angle_gamma                90
_cell_volume                     1977.13
loop_
_atom_site_label
_atom_site_type_symbol
_atom_site_fract_x
_atom_site_fract_y
_atom_site_fract_z
Dy1 Dy 0.731299(12) 0.204875(13) 0.350548(14)
O1 O 0.6569(2) 0.4005(2) 0.3696(2)
O2 O 0.6464(2) 0.0073(2) 0.3636(2)
O3 O 0.7278(2) 0.2198(2) 0.5456(2)
O5 O 0.9214(2) -0.1045(2) 0.2841(2)
O6 O 0.5307(2) 0.5197(2) 0.3763(3)
O7 O 0.8756(2) 0.3158(3) 0.4370(2)
O8 O 0.8462(2) 0.0718(2) 0.28093(19)
O9 O 0.5161(3) -0.1023(3) 0.3732(3)
N1 N 0.5496(3) 0.2089(2) 0.3666(3)
O11 O 0.6351(2) 0.1534(3) 0.1737(2)
C1 C 0.7753(2) 0.1542(3) 0.6186(3)
N2 N 0.8333(2) 0.0527(2) 0.4808(2)
C2 C 0.8813(3) -0.0243(3) 0.3255(3)
C3 C 0.5590(3) -0.0021(3) 0.3669(3)
C4 C 0.5680(3) 0.4209(3) 0.3720(3)
C5 C 0.5046(3) 0.3121(3) 0.3692(3)
C6 C 0.4987(3) 0.1081(3) 0.3654(3)
C7 C 0.8271(2) 0.0499(3) 0.5829(2)
C8 C 0.8625(3) -0.0465(3) 0.6495(3)
H1 H 0.8589 -0.0461 0.7207
C9 C 0.8746(2) -0.0391(3) 0.4404(3)
C10 C 0.9081(3) -0.1402(3) 0.5002(3)
H2 H 0.9334 -0.2049 0.4700
N3 N 0.9023(3) -0.1409(3) 0.6069(3)
C11 C 0.4054(3) 0.3199(4) 0.3683(5)
H3 H 0.3755 0.3936 0.3708
C12 C 0.3991(3) 0.1066(4) 0.3629(5)
H4 H 0.3655 0.0348 0.3608
N4 N 0.3512(4) 0.2139(4) 0.3637(6)
O14 O 0.7823(2) 0.1678(2) 0.71578(19)
H9 H 0.914(3) 0.361(3) 0.421(4)
H10 H 0.672(3) 0.159(5) 0.135(3)
H15 H 0.824(2) 0.294(4) 0.446(5)
H16 H 0.590(2) 0.110(3) 0.168(4)
Dy1C Dy 0.731299(12) 0.295125(13) 0.850548(14)
O14C O 0.7823(2) 0.3322(2) 0.21578(19)
O4 O 0.9586(2) 0.1902(2) 0.1491(2)
H5 H 0.976(4) 0.200(4) 0.095(3)
H6 H 0.990(3) 0.249(3) 0.161(4)
O10 O 1.0322(2) 0.4425(2) 0.4028(2)
H7 H 1.026(4) 0.5124(11) 0.402(4)
H8 H 0.9801(17) 0.414(4) 0.402(4)
O12 O 0.6263(3) -0.2762(3) 0.3856(4)
H11 H 0.618(4) -0.2072(16) 0.371(4)
H12 H 0.596(3) -0.337(3) 0.373(4)
O13 O 0.8001(3) 0.5961(4) 0.4127(4)
H13 H 0.788(4) 0.597(4) 0.471(2)
H14 H 0.797(4) 0.607(4) 0.3515(13)
loop_
_geom_bond_atom_site_label_1
_geom_bond_atom_site_label_2
_geom_bond_site_symmetry_1
_geom_bond_site_symmetry_2
Dy1 O1 1_555 1_555
O1 C4 1_555 1_555
O2 Dy1 1_555 1_555
O3 Dy1 1_555 1_555
O4 H5 1_555 1_555
O5 C2 1_555 1_555
O6 C4 1_555 1_555
O7 Dy1 1_555 1_555
O8 Dy1 1_555 1_555
O9 C3 1_555 1_555
N1 Dy1 1_555 1_555
O10 H7 1_555 1_555
O11 Dy1 1_555 1_555
C1 O3 1_555 1_555
N2 Dy1 1_555 1_555
C2 O8 1_555 1_555
C3 O2 1_555 1_555
C4 C5 1_555 1_555
C5 N1 1_555 1_555
C6 N1 1_555 1_555
C7 C1 1_555 1_555
C8 C7 1_555 1_555
H1 C8 1_555 1_555
C9 N2 1_555 1_555
C10 C9 1_555 1_555
H2 C10 1_555 1_555
N3 C8 1_555 1_555
O12 H11 1_555 1_555
C11 C5 1_555 1_555
H3 C11 1_555 1_555
C12 C6 1_555 1_555
H4 C12 1_555 1_555
O13 H13 1_555 1_555
N4 C11 1_555 1_555
O14 C1 1_555 1_555
H6 O4 1_555 1_555
H8 O10 1_555 1_555
H9 O7 1_555 1_555
H10 O11 1_555 1_555
H12 O12 1_555 1_555
H14 O13 1_555 1_555
H15 O7 1_555 1_555
H16 O11 1_555 1_555
Dy1C O14 1_555 1_555
O14C Dy1 1_555 1_555
N2 C7 1_555 1_555
C2 C9 1_555 1_555
C3 C6 1_555 1_555
C10 N3 1_555 1_555
C12 N4 1_555 1_555

#END
