
#######################################################################
#
#                 Cambridge Crystallographic Data Centre
#                                CCDC 
#
#######################################################################
#
# If this CIF has been generated from an entry in the Cambridge 
# Structural Database, then it will include bibliographic, chemical, 
# crystal, experimental, refinement or atomic coordinate data resulting 
# from the CCDC's data processing and validation procedures.
#
#######################################################################

data_VUFBUU
_symmetry_cell_setting           monoclinic
_symmetry_space_group_name_H-M   'C c'
_symmetry_Int_Tables_number      9
_space_group_name_Hall           'C -2yc'
loop_
_symmetry_equiv_pos_site_id
_symmetry_equiv_pos_as_xyz
1 x,y,z
2 x,-y,1/2+z
3 1/2+x,1/2+y,z
4 1/2+x,1/2-y,1/2+z
_cell_length_a                   13.162(3)
_cell_length_b                   36.981(2)
_cell_length_c                   9.245(3)
_cell_angle_alpha                90
_cell_angle_beta                 133.941(3)
_cell_angle_gamma                90
_cell_volume                     3240.21
loop_
_atom_site_label
_atom_site_type_symbol
_atom_site_fract_x
_atom_site_fract_y
_atom_site_fract_z
Zn1 Zn 0.35548(6) 0.243953(16) 0.23205(8)
Br1 Br 0.46005(8) 0.122615(18) 0.51598(10)
Cl1 Cl 0.3395(2) 0.06438(5) -0.1364(3)
N1 N 0.3185(6) 0.23268(14) -0.0221(7)
N2 N 0.3500(5) 0.30044(13) 0.1346(8)
O1 O 0.3677(5) 0.19034(10) 0.2737(6)
O3 O 0.2518(4) 0.25822(12) 0.3083(6)
O4 O 0.0597(4) 0.24975(10) -0.0074(6)
C1 C 0.3606(6) 0.16414(16) 0.1802(8)
C2 C 0.3933(6) 0.12813(16) 0.2577(9)
C3 C 0.3855(6) 0.09844(17) 0.1633(10)
H1 H 0.4078 0.0757 0.2213
C4 C 0.3440(6) 0.10266(17) -0.0199(9)
C5 C 0.3162(6) 0.13595(16) -0.1016(9)
H2 H 0.2897 0.1384 -0.2242
C6 C 0.3274(6) 0.16719(16) -0.0010(9)
C7 C 0.3099(7) 0.20154(17) -0.0886(9)
H3 H 0.2901 0.2010 -0.2067
C8 C 0.3025(11) 0.26480(19) -0.1283(13)
H4 H 0.2041 0.2719 -0.2299
H5 H 0.3348 0.2598 -0.1940
C9 C 0.3893(17) 0.2945(4) 0.023(2)
H6 H 0.4885 0.2882 0.1159
H7 H 0.3754 0.3167 -0.0449
C10 C 0.4714(11) 0.3214(3) 0.289(2)
H8 H 0.5410 0.3061 0.4027
H9 H 0.4455 0.3403 0.3297
H10 H 0.5097 0.3317 0.2405
C11 C 0.2340(13) 0.3218(3) 0.062(3)
H11 H 0.2468 0.3460 0.0396
H12 H 0.2270 0.3220 0.1583
H13 H 0.1492 0.3118 -0.0625
C23 C 0.0391(6) 0.27298(19) 0.2142(9)
H27 H -0.0244 0.2918 0.1214
H28 H 0.1041 0.2825 0.3484
H29 H -0.0137 0.2535 0.2043
C24 C 0.1199(6) 0.25916(14) 0.1645(8)
Zn1C Zn -0.14452(6) 0.256047(16) -0.26795(8)
O4C O 0.5597(4) 0.25025(10) 0.4926(6)
Zn2 Zn 0.78912(6) 0.002771(16) 0.11410(9)
Br2 Br 0.62219(7) 0.127333(18) 0.02167(10)
Cl2 Cl 1.1406(2) 0.17795(5) 0.3560(3)
N3 N 1.0068(5) 0.01180(13) 0.3185(8)
N4 N 0.8690(5) -0.05401(12) 0.1755(7)
O2 O 0.7689(4) 0.05579(10) 0.1325(6)
O5 O 0.6099(4) -0.01434(11) 0.0321(6)
O6 O 0.7361(4) -0.00427(10) 0.3499(5)
C12 C 0.9993(6) 0.07707(14) 0.2946(8)
C13 C 1.0848(7) 0.10665(17) 0.3426(9)
H14 H 1.1784 0.1027 0.4092
C14 C 1.0329(7) 0.14102(17) 0.2932(10)
C15 C 0.8926(7) 0.14719(17) 0.1945(9)
H15 H 0.8569 0.1706 0.1634
C16 C 0.8096(6) 0.11838(15) 0.1448(8)
C17 C 0.8550(6) 0.08181(15) 0.1864(8)
C18 C 1.0658(6) 0.04227(17) 0.3542(8)
H16 H 1.1614 0.0419 0.4258
C19 C 1.0935(7) -0.02128(18) 0.3903(12)
H17 H 1.1250 -0.0293 0.5159
H18 H 1.1758 -0.0165 0.4122
C20 C 1.0009(8) -0.05027(18) 0.2282(12)
H19 H 0.9819 -0.0437 0.1098
H20 H 1.0505 -0.0732 0.2773
C21 C 0.7714(8) -0.07672(17) -0.0107(10)
H21 H 0.8156 -0.0995 0.0122
H22 H 0.7510 -0.0644 -0.1199
H23 H 0.6853 -0.0808 -0.0436
C22 C 0.8852(10) -0.0715(2) 0.3317(12)
H24 H 0.9480 -0.0917 0.3846
H25 H 0.7949 -0.0797 0.2760
H26 H 0.9235 -0.0545 0.4377
C25 C 0.4960(7) -0.02418(17) 0.1432(10)
H30 H 0.4259 -0.0349 0.0125
H31 H 0.4573 -0.0031 0.1509
H32 H 0.5243 -0.0413 0.2435
C26 C 0.6209(6) -0.01362(14) 0.1782(8)
Zn2A Zn 0.78912(6) -0.002771(16) 0.61410(9)
O6A O 0.7361(4) 0.00427(10) -0.1501(5)
loop_
_geom_bond_atom_site_label_1
_geom_bond_atom_site_label_2
_geom_bond_site_symmetry_1
_geom_bond_site_symmetry_2
Zn1 N1 1_555 1_555
Zn2 N3 1_555 1_555
Br1 C2 1_555 1_555
Br2 C16 1_555 1_555
Cl1 C4 1_555 1_555
Cl2 C14 1_555 1_555
N1 C7 1_555 1_555
N2 Zn1 1_555 1_555
N3 C18 1_555 1_555
N4 Zn2 1_555 1_555
O1 Zn1 1_555 1_555
O2 Zn2 1_555 1_555
O3 Zn1 1_555 1_555
O4 C24 1_555 1_555
O5 Zn2 1_555 1_555
O6 C26 1_555 1_555
C1 O1 1_555 1_555
C2 C1 1_555 1_555
C3 C2 1_555 1_555
H1 C3 1_555 1_555
C4 C3 1_555 1_555
C5 C4 1_555 1_555
H2 C5 1_555 1_555
C6 C1 1_555 1_555
C7 C6 1_555 1_555
H3 C7 1_555 1_555
C8 N1 1_555 1_555
H4 C8 1_555 1_555
H5 C8 1_555 1_555
C9 N2 1_555 1_555
H6 C9 1_555 1_555
H7 C9 1_555 1_555
C10 N2 1_555 1_555
H8 C10 1_555 1_555
H9 C10 1_555 1_555
H10 C10 1_555 1_555
C11 N2 1_555 1_555
H11 C11 1_555 1_555
H12 C11 1_555 1_555
H13 C11 1_555 1_555
C12 C13 1_555 1_555
C13 H14 1_555 1_555
C14 C13 1_555 1_555
C15 C14 1_555 1_555
H15 C15 1_555 1_555
C16 C15 1_555 1_555
C17 O2 1_555 1_555
C18 C12 1_555 1_555
H16 C18 1_555 1_555
C19 N3 1_555 1_555
H17 C19 1_555 1_555
H18 C19 1_555 1_555
C20 N4 1_555 1_555
H19 C20 1_555 1_555
H20 C20 1_555 1_555
C21 N4 1_555 1_555
H21 C21 1_555 1_555
H22 C21 1_555 1_555
H23 C21 1_555 1_555
C22 N4 1_555 1_555
H24 C22 1_555 1_555
H25 C22 1_555 1_555
H26 C22 1_555 1_555
C23 H27 1_555 1_555
H28 C23 1_555 1_555
H29 C23 1_555 1_555
C24 O3 1_555 1_555
C25 H30 1_555 1_555
H31 C25 1_555 1_555
H32 C25 1_555 1_555
C26 O5 1_555 1_555
Zn1C O4 1_555 1_555
Zn2A O6 1_555 1_555
O4C Zn1 1_555 1_555
O6A Zn2 1_555 1_555
C5 C6 1_555 1_555
C8 C9 1_555 1_555
C12 C17 1_555 1_555
C16 C17 1_555 1_555
C19 C20 1_555 1_555
C23 C24 1_555 1_555
C25 C26 1_555 1_555

#END
