
#######################################################################
#
#                 Cambridge Crystallographic Data Centre
#                                CCDC 
#
#######################################################################
#
# If this CIF has been generated from an entry in the Cambridge 
# Structural Database, then it will include bibliographic, chemical, 
# crystal, experimental, refinement or atomic coordinate data resulting 
# from the CCDC's data processing and validation procedures.
#
#######################################################################

data_VUFCOP
_symmetry_cell_setting           monoclinic
_symmetry_space_group_name_H-M   'C 2/c'
_symmetry_Int_Tables_number      15
_space_group_name_Hall           '-C 2yn'
loop_
_symmetry_equiv_pos_site_id
_symmetry_equiv_pos_as_xyz
1 x,y,z
2 -x,y,1/2-z
3 1/2+x,1/2+y,z
4 1/2-x,1/2+y,1/2-z
5 -x,-y,-z
6 x,-y,1/2+z
7 1/2-x,1/2-y,-z
8 1/2+x,1/2-y,1/2+z
_cell_length_a                   24.001(3)
_cell_length_b                   15.844(2)
_cell_length_c                   8.3160(10)
_cell_angle_alpha                90
_cell_angle_beta                 108.623(2)
_cell_angle_gamma                90
_cell_volume                     2996.76
loop_
_atom_site_label
_atom_site_type_symbol
_atom_site_fract_x
_atom_site_fract_y
_atom_site_fract_z
N7 N 0.989(2) 0.2415(13) 0.655(5)
O1 O 0.9701(9) 0.2338(11) 0.494(3)
O2 O 1.0000 0.1754(14) 0.7500
O3 O 1.0000 0.3077(15) 0.7500
N7A N 1.011(2) 0.2415(13) 0.845(5)
O1A O 1.0299(9) 0.2338(11) 1.006(3)
N8 N 0.2885(14) 0.7347(13) 0.130(4)
O4 O 0.3254(6) 0.6995(9) 0.2519(18)
O5 O 0.2948(12) 0.8132(12) 0.104(3)
O6 O 0.2472(10) 0.6961(13) 0.023(3)
N8F N 0.2115(14) 0.7653(13) -0.130(4)
O4F O 0.1746(6) 0.8005(9) -0.2519(18)
O5F O 0.2052(12) 0.6868(12) -0.104(3)
O6F O 0.2528(10) 0.8039(13) -0.023(3)
Ag1 Ag 0.25131(3) 0.62318(4) 1.51140(8)
N1 N 0.1885(3) 0.7041(4) 1.2982(8)
N2 N 0.1882(3) 0.7910(4) 1.2786(8)
N3 N 0.1200(3) 0.7367(4) 1.0636(9)
N4 N 0.0763(5) 0.7231(6) 0.9089(13)
H1 H 0.0657 0.6725 0.8754
H2 H 0.0598 0.7654 0.8469
N5 N 0.1774(3) 0.4508(4) 1.0852(10)
N6 N 0.1750(3) 1.0285(4) 1.0207(9)
C1 C 0.1478(4) 0.6733(5) 1.1681(10)
C2 C 0.1473(4) 0.8087(5) 1.1366(10)
C3 C 0.1816(4) 0.5338(5) 1.1110(10)
H3 H 0.2164 0.5605 1.1130
C4 C 0.1372(3) 0.5824(5) 1.1350(10)
C5 C 0.0856(4) 0.5415(6) 1.1339(14)
H4 H 0.0546 0.5715 1.1505
C6 C 0.0816(4) 0.4566(6) 1.1078(15)
H5 H 0.0474 0.4282 1.1042
C7 C 0.1276(5) 0.4136(5) 1.0872(13)
H6 H 0.1244 0.3553 1.0737
C8 C 0.1817(4) 0.9481(5) 1.0729(10)
H7 H 0.2196 0.9264 1.1152
C9 C 0.1347(4) 0.8955(5) 1.0669(10)
C10 C 0.0789(4) 0.9269(6) 1.0016(14)
H8 H 0.0463 0.8927 0.9900
C11 C 0.0720(5) 1.0110(7) 0.9531(17)
H9 H 0.0347 1.0349 0.9144
C12 C 0.1200(4) 1.0581(6) 0.9623(15)
H10 H 0.1144 1.1139 0.9262
Ag1F Ag 0.24869(3) 0.87682(4) 1.48860(8)
Ag1E Ag 0.25131(3) 0.37682(4) 1.01140(8)
Ag1C Ag 0.24869(3) 1.12318(4) 0.98860(8)
Ag1C_2 Ag 0.24869(3) 1.12318(4) 1.98860(8)
Ag1E_2 Ag 0.25131(3) 0.37682(4) 2.01140(8)
N1F N 0.3115(3) 0.7959(4) 1.7018(8)
N2F N 0.3118(3) 0.7090(4) 1.7214(8)
N3F N 0.3800(3) 0.7633(4) 1.9364(9)
N4F N 0.4237(5) 0.7769(6) 2.0911(13)
H1F H 0.4343 0.8275 2.1246
H2F H 0.4402 0.7346 2.1531
N5F N 0.3226(3) 1.0492(4) 1.9148(10)
N5E N 0.1774(3) 0.5492(4) 1.5852(10)
N5C N 0.3226(3) 0.9508(4) 1.4148(10)
N6F N 0.3250(3) 0.4715(4) 1.9793(9)
N6C N 0.3250(3) 0.5285(4) 1.4793(9)
N6E N 0.1750(3) 0.9715(4) 1.5207(9)
C1F C 0.3522(4) 0.8267(5) 1.8319(10)
C2F C 0.3527(4) 0.6913(5) 1.8634(10)
C3F C 0.3184(4) 0.9662(5) 1.8890(10)
H3F H 0.2836 0.9395 1.8870
C4F C 0.3628(3) 0.9176(5) 1.8650(10)
C5F C 0.4144(4) 0.9585(6) 1.8661(14)
H4F H 0.4454 0.9285 1.8495
C6F C 0.4184(4) 1.0434(6) 1.8922(15)
H5F H 0.4526 1.0718 1.8958
C7F C 0.3724(5) 1.0864(5) 1.9128(13)
H6F H 0.3756 1.1447 1.9263
C8F C 0.3183(4) 0.5519(5) 1.9271(10)
H7F H 0.2804 0.5736 1.8848
C9F C 0.3653(4) 0.6045(5) 1.9331(10)
C10F C 0.4211(4) 0.5731(6) 1.9984(14)
H8F H 0.4537 0.6073 2.0100
C11F C 0.4280(5) 0.4890(7) 2.0469(17)
H9F H 0.4653 0.4651 2.0856
C12F C 0.3800(4) 0.4419(6) 2.0377(15)
H10F H 0.3856 0.3861 2.0738
loop_
_geom_bond_atom_site_label_1
_geom_bond_atom_site_label_2
_geom_bond_site_symmetry_1
_geom_bond_site_symmetry_2
Ag1 N1 1_555 1_555
N1 N2 1_555 1_555
N2 C2 1_555 1_555
N3 N4 1_555 1_555
N4 H1 1_555 1_555
H2 N4 1_555 1_555
N5 C3 1_555 1_555
N6 C8 1_555 1_555
N7 O1 1_555 1_555
N8 O4 1_555 1_555
O2 N7 1_555 1_555
O3 N7 1_555 1_555
O5 N8 1_555 1_555
O6 N8 1_555 1_555
C1 N1 1_555 1_555
C2 N3 1_555 1_555
C3 H3 1_555 1_555
C4 C1 1_555 1_555
C5 C4 1_555 1_555
H4 C5 1_555 1_555
C6 C5 1_555 1_555
H5 C6 1_555 1_555
C7 N5 1_555 1_555
H6 C7 1_555 1_555
C8 H7 1_555 1_555
C9 C2 1_555 1_555
C10 C9 1_555 1_555
H8 C10 1_555 1_555
C11 C10 1_555 1_555
H9 C11 1_555 1_555
C12 N6 1_555 1_555
H10 C12 1_555 1_555
Ag1F N2 1_555 1_555
Ag1E N5 1_555 1_555
Ag1C N6 1_555 1_555
Ag1C_2 N5F 1_555 1_555
Ag1E_2 N6F 1_555 1_555
N1F Ag1F 1_555 1_555
N2F Ag1 1_555 1_555
N3F N4F 1_555 1_555
N4F H1F 1_555 1_555
H2F N4F 1_555 1_555
N5F C3F 1_555 1_555
N5E Ag1 1_555 1_555
N5C Ag1F 1_555 1_555
N6F C8F 1_555 1_555
N6C Ag1 1_555 1_555
N6E Ag1F 1_555 1_555
N7A N7 1_555 1_555
N8F O6 1_555 1_555
O1A N7A 1_555 1_555
O4F N8F 1_555 1_555
O5F O6 1_555 1_555
O6F N8 1_555 1_555
C1F N1F 1_555 1_555
C2F N2F 1_555 1_555
C3F H3F 1_555 1_555
C4F C1F 1_555 1_555
C5F C4F 1_555 1_555
H4F C5F 1_555 1_555
C6F C5F 1_555 1_555
H5F C6F 1_555 1_555
C7F N5F 1_555 1_555
H6F C7F 1_555 1_555
C8F H7F 1_555 1_555
C9F C2F 1_555 1_555
C10F C9F 1_555 1_555
H8F C10F 1_555 1_555
C11F C10F 1_555 1_555
H9F C11F 1_555 1_555
C12F N6F 1_555 1_555
H10F C12F 1_555 1_555
N3 C1 1_555 1_555
O2 N7A 1_555 1_555
O3 N7A 1_555 1_555
O5 O6F 1_555 1_555
C3 C4 1_555 1_555
C6 C7 1_555 1_555
C8 C9 1_555 1_555
C11 C12 1_555 1_555
N1F N2F 1_555 1_555
N3F C1F 1_555 1_555
N3F C2F 1_555 1_555
N8F O5F 1_555 1_555
N8F O6F 1_555 1_555
C3F C4F 1_555 1_555
C6F C7F 1_555 1_555
C8F C9F 1_555 1_555
C11F C12F 1_555 1_555

#END
