
#######################################################################
#
#                 Cambridge Crystallographic Data Centre
#                                CCDC 
#
#######################################################################
#
# If this CIF has been generated from an entry in the Cambridge 
# Structural Database, then it will include bibliographic, chemical, 
# crystal, experimental, refinement or atomic coordinate data resulting 
# from the CCDC's data processing and validation procedures.
#
#######################################################################

data_VUFCUV
_symmetry_cell_setting           monoclinic
_symmetry_space_group_name_H-M   'P 21/n'
_symmetry_Int_Tables_number      14
_space_group_name_Hall           '-P 2yn'
loop_
_symmetry_equiv_pos_site_id
_symmetry_equiv_pos_as_xyz
1 x,y,z
2 1/2-x,1/2+y,1/2-z
3 -x,-y,-z
4 1/2+x,1/2-y,1/2+z
_cell_length_a                   7.3106(10)
_cell_length_b                   19.633(2)
_cell_length_c                   9.0596(16)
_cell_angle_alpha                90
_cell_angle_beta                 113.748(2)
_cell_angle_gamma                90
_cell_volume                     1190.21
loop_
_atom_site_label
_atom_site_type_symbol
_atom_site_fract_x
_atom_site_fract_y
_atom_site_fract_z
Ag1 Ag -0.11303(6) -0.501130(17) -0.22303(4)
N1 N -0.2712(6) -0.44878(19) -0.0843(4)
N2 N -0.1896(5) -0.44924(19) 0.0820(4)
N3 N -0.4411(6) -0.3732(2) -0.0013(4)
N4 N -0.7014(6) -0.4140(2) -0.5770(4)
N5 N -0.1206(6) -0.4155(2) 0.5739(5)
C1 C -0.4198(7) -0.4032(2) -0.1283(5)
C2 C -0.2969(7) -0.4037(2) 0.1245(5)
C3 C -0.5906(7) -0.4304(2) -0.4225(5)
H3 H -0.5411 -0.4745 -0.3989
C4 C -0.5466(6) -0.3842(2) -0.2962(5)
C5 C -0.6243(8) -0.3190(3) -0.3308(6)
H4 H -0.6017 -0.2875 -0.2488
C6 C -0.7371(8) -0.3017(3) -0.4909(6)
H5 H -0.7894 -0.2580 -0.5178
C7 C -0.7695(7) -0.3493(3) -0.6069(6)
H6 H -0.8430 -0.3367 -0.7135
C8 C -0.1642(7) -0.4312(2) 0.4207(5)
H7 H -0.1321 -0.4745 0.3970
C9 C -0.2563(6) -0.3856(2) 0.2935(5)
C10 C -0.3106(7) -0.3220(3) 0.3294(6)
H8 H -0.3792 -0.2913 0.2475
C11 C -0.2603(8) -0.3048(3) 0.4908(6)
H9 H -0.2912 -0.2621 0.5189
C12 C -0.1641(8) -0.3527(3) 0.6069(6)
H10 H -0.1272 -0.3408 0.7144
Ag1B Ag -0.88697(6) -0.498870(17) -0.77697(4)
Ag1B_2 Ag 0.11303(6) -0.498870(17) 0.22303(4)
Ag1_2 Ag -0.11303(6) -0.501130(17) 0.77697(4)
N2B N 0.1896(5) -0.55076(19) -0.0820(4)
N4B N -0.2986(6) -0.5860(2) -0.4230(4)
N5_2 N -0.1206(6) -0.4155(2) -0.4261(5)
O1 O -0.8389(7) -0.3601(2) -0.0010(5)
H1 H -0.7187 -0.3642 0.0088
H2 H -0.8909 -0.3995 -0.0228
loop_
_geom_bond_atom_site_label_1
_geom_bond_atom_site_label_2
_geom_bond_site_symmetry_1
_geom_bond_site_symmetry_2
Ag1 N1 1_555 1_555
N1 N2 1_555 1_555
N2 C2 1_555 1_555
N3 C1 1_555 1_555
N4 C3 1_555 1_555
N5 C8 1_555 1_555
O1 H1 1_555 1_555
H2 O1 1_555 1_555
C1 N1 1_555 1_555
C2 N3 1_555 1_555
C3 H3 1_555 1_555
C4 C1 1_555 1_555
C5 C4 1_555 1_555
H4 C5 1_555 1_555
C6 C5 1_555 1_555
H5 C6 1_555 1_555
C7 N4 1_555 1_555
H6 C7 1_555 1_555
C8 H7 1_555 1_555
C9 C2 1_555 1_555
C10 C9 1_555 1_555
H8 C10 1_555 1_555
C11 C10 1_555 1_555
H9 C11 1_555 1_555
C12 N5 1_555 1_555
H10 C12 1_555 1_555
Ag1B N4 1_555 1_555
Ag1B_2 N2 1_555 1_555
Ag1_2 N5 1_555 1_555
N2B Ag1 1_555 1_555
N4B Ag1 1_555 1_555
N5_2 Ag1 1_555 1_555
C3 C4 1_555 1_555
C6 C7 1_555 1_555
C8 C9 1_555 1_555
C11 C12 1_555 1_555

#END
