
#######################################################################
#
#                 Cambridge Crystallographic Data Centre
#                                CCDC 
#
#######################################################################
#
# If this CIF has been generated from an entry in the Cambridge 
# Structural Database, then it will include bibliographic, chemical, 
# crystal, experimental, refinement or atomic coordinate data resulting 
# from the CCDC's data processing and validation procedures.
#
#######################################################################

data_VUFFEI
_symmetry_cell_setting           triclinic
_symmetry_space_group_name_H-M   'P -1'
_symmetry_Int_Tables_number      2
_space_group_name_Hall           '-P 1'
loop_
_symmetry_equiv_pos_site_id
_symmetry_equiv_pos_as_xyz
1 x,y,z
2 -x,-y,-z
_cell_length_a                   9.0985(18)
_cell_length_b                   9.909(2)
_cell_length_c                   12.632(3)
_cell_angle_alpha                102.48(3)
_cell_angle_beta                 103.09(3)
_cell_angle_gamma                109.41(3)
_cell_volume                     992.209
loop_
_atom_site_label
_atom_site_type_symbol
_atom_site_fract_x
_atom_site_fract_y
_atom_site_fract_z
Nd1 Nd 0.27719(2) 0.539813(18) -0.026167(15)
O1 O 0.2641(3) 0.5883(3) 0.1812(2)
C1 C 0.4071(4) 0.6905(4) 0.2236(3)
O2 O 0.4909(3) 0.7326(3) 0.1597(2)
C2 C 0.4835(5) 0.7633(4) 0.3508(3)
O3 O 0.3978(6) 0.7241(5) 0.6131(3)
H1 H 0.4115 0.7957 0.6692
C3 C 0.6330(5) 0.8892(4) 0.3945(3)
H2 H 0.6865 0.9263 0.3439
O4 O 0.9246(4) 1.1676(3) 0.6612(3)
C4 C 0.7035(5) 0.9598(4) 0.5116(3)
O5 O 0.9177(5) 1.1410(4) 0.4803(3)
C5 C 0.6263(6) 0.9049(5) 0.5861(4)
H3 H 0.6754 0.9525 0.6666
O6 O 0.5678(3) 0.5982(2) -0.0591(2)
C6 C 0.4776(6) 0.7805(6) 0.5420(4)
O7 O 0.4356(3) 0.7405(3) -0.0968(2)
C7 C 0.4071(5) 0.7077(5) 0.4244(3)
H4 H 0.3069 0.6203 0.3948
O8 O 1.0233(3) 0.7904(3) -0.2370(2)
C8 C 0.8589(5) 1.0984(5) 0.5602(4)
O9 O 1.0485(3) 1.3215(3) -0.0599(2)
C9 C 0.5611(4) 0.7104(3) -0.0907(3)
O10 O 0.8179(3) 1.2664(3) -0.0166(2)
C10 C 0.7010(4) 0.8108(3) -0.1167(3)
O11 O 0.2527(3) 0.3581(3) -0.2063(2)
C11 C 0.7400(4) 0.9651(3) -0.0829(3)
H5 H 0.6722 1.0034 -0.0498
O12 O 0.0557(3) 0.5228(3) -0.2069(2)
C12 C 0.8784(4) 1.0632(3) -0.0976(3)
C13 C 0.9750(4) 1.0073(4) -0.1487(3)
H6 H 1.0695 1.0745 -0.1586
C14 C 0.9335(4) 0.8534(4) -0.1851(3)
C15 C 0.7974(4) 0.7545(3) -0.1681(3)
H7 H 0.7707 0.6491 -0.1916
C16 C 0.9180(4) 1.2292(3) -0.0548(3)
H8 H 0.1592 0.2964 -0.2568
H9 H -0.0198 0.4497 -0.2010
H11 H 0.0313 0.6021 -0.1907
H13 H 0.3227 0.3142 -0.2080
H14 H 1.1187 0.8528 -0.2358
H16 H 0.9701 1.2364 0.4995
Nd1A Nd 0.72281(2) 0.460187(18) 0.026167(15)
Nd1_2 Nd 1.27719(2) 1.539813(18) -0.026167(15)
Nd1A_2 Nd 0.72281(2) 1.460187(18) 0.026167(15)
O6A O 0.4322(3) 0.4018(2) 0.0591(2)
O9_2 O 0.0485(3) 0.3215(3) -0.0599(2)
O10A O 0.1821(3) 0.7336(3) 0.0166(2)
O13 O 0.6497(4) 0.0536(3) 0.1887(3)
H10 H 0.5710 -0.0359 0.1558
H12 H 0.6210 0.1166 0.1584
O14 O 0.1077(6) 0.4506(4) 0.5690(4)
H15 H 0.1750 0.4038 0.5605
H17 H 0.1643 0.5431 0.5732
loop_
_geom_bond_atom_site_label_1
_geom_bond_atom_site_label_2
_geom_bond_site_symmetry_1
_geom_bond_site_symmetry_2
Nd1 O1 1_555 1_555
O1 C1 1_555 1_555
C1 O2 1_555 1_555
O2 Nd1 1_555 1_555
C2 C1 1_555 1_555
O3 H1 1_555 1_555
C3 C2 1_555 1_555
H2 C3 1_555 1_555
O4 C8 1_555 1_555
C4 C3 1_555 1_555
O5 C8 1_555 1_555
C5 C4 1_555 1_555
H3 C5 1_555 1_555
O6 Nd1 1_555 1_555
C6 O3 1_555 1_555
O7 Nd1 1_555 1_555
C7 C2 1_555 1_555
H4 C7 1_555 1_555
O8 C14 1_555 1_555
C8 C4 1_555 1_555
O9 C16 1_555 1_555
C9 O6 1_555 1_555
O10 C16 1_555 1_555
C10 C9 1_555 1_555
O11 Nd1 1_555 1_555
C11 C10 1_555 1_555
H5 C11 1_555 1_555
O12 Nd1 1_555 1_555
C12 C11 1_555 1_555
O13 H10 1_555 1_555
C13 C12 1_555 1_555
H6 C13 1_555 1_555
O14 H15 1_555 1_555
C14 C13 1_555 1_555
C15 C10 1_555 1_555
H7 C15 1_555 1_555
C16 C12 1_555 1_555
H8 O11 1_555 1_555
H9 O12 1_555 1_555
H11 O12 1_555 1_555
H12 O13 1_555 1_555
H13 O11 1_555 1_555
H14 O8 1_555 1_555
H16 O5 1_555 1_555
H17 O14 1_555 1_555
Nd1A O6 1_555 1_555
Nd1_2 O9 1_555 1_555
Nd1A_2 O10 1_555 1_555
O6A Nd1 1_555 1_555
O9_2 Nd1 1_555 1_555
O10A Nd1 1_555 1_555
C5 C6 1_555 1_555
C6 C7 1_555 1_555
O7 C9 1_555 1_555
C14 C15 1_555 1_555
Nd1A O6A 1_555 1_555

#END
