
#######################################################################
#
#                 Cambridge Crystallographic Data Centre
#                                CCDC 
#
#######################################################################
#
# If this CIF has been generated from an entry in the Cambridge 
# Structural Database, then it will include bibliographic, chemical, 
# crystal, experimental, refinement or atomic coordinate data resulting 
# from the CCDC's data processing and validation procedures.
#
#######################################################################

data_VUFGUA
_symmetry_cell_setting           triclinic
_symmetry_space_group_name_H-M   'P -1'
_symmetry_Int_Tables_number      2
_space_group_name_Hall           '-P 1'
loop_
_symmetry_equiv_pos_site_id
_symmetry_equiv_pos_as_xyz
1 x,y,z
2 -x,-y,-z
_cell_length_a                   9.1198(5)
_cell_length_b                   9.6075(5)
_cell_length_c                   14.3241(8)
_cell_angle_alpha                94.951(2)
_cell_angle_beta                 98.050(3)
_cell_angle_gamma                92.029(2)
_cell_volume                     1236.62
loop_
_atom_site_label
_atom_site_type_symbol
_atom_site_fract_x
_atom_site_fract_y
_atom_site_fract_z
Fe1 Fe 0.98961(2) 0.51642(2) 0.17686(2)
S1 S 0.20734(2) 0.65387(2) 0.03062(2)
O1 O 0.09179(5) 0.60924(5) -0.04813(3)
O2 O 0.24975(6) 0.80134(5) 0.03392(4)
O3 O 0.17018(6) 0.61332(6) 0.12102(4)
C1 C 0.37011(7) 0.56436(6) 0.01321(4)
C2 C 0.43728(7) 0.58739(7) -0.06612(5)
H1 H 0.3942 0.6471 -0.1108
C3 C 0.43219(7) 0.47757(7) 0.07952(5)
H2 H 0.3859 0.4628 0.1335
S2 S 0.76549(2) 0.37521(2) 0.32711(2)
O4 O 0.82174(6) 0.42139(6) 0.24324(4)
O5 O 0.76513(8) 0.22428(6) 0.32788(4)
O6 O 0.62617(6) 0.43579(7) 0.34084(4)
C4 C 0.89630(7) 0.44434(7) 0.42498(5)
C5 C 0.85967(8) 0.55423(7) 0.48573(5)
H3 H 0.7639 0.5909 0.4758
C6 C 1.03612(8) 0.38978(7) 0.43881(5)
H4 H 1.0604 0.3147 0.3970
O7 O 0.85323(6) 0.66609(5) 0.12351(4)
C7 C 0.76032(7) 0.74537(6) 0.15104(5)
C8 C 0.70106(9) 0.75014(8) 0.24399(6)
H5 H 0.7828 0.7517 0.2975
H6 H 0.6328 0.6683 0.2459
C9 C 0.61897(14) 0.88542(11) 0.24821(9)
H7 H 0.6789 0.9595 0.2907
H8 H 0.5229 0.8706 0.2715
C10 C 0.59465(9) 0.92601(8) 0.14559(7)
H9 H 0.4911 0.9032 0.1155
H10 H 0.6176 1.0271 0.1435
N1 N 0.69772(7) 0.84183(6) 0.09908(5)
C11 C 0.72564(10) 0.86127(8) 0.00383(6)
H11 H 0.7678 0.9561 0.0021
H12 H 0.6323 0.8479 -0.0398
H13 H 0.7957 0.7930 -0.0152
O8 O 1.05974(6) 0.65623(5) 0.30327(4)
C12 C 1.18342(7) 0.68833(6) 0.35026(5)
C13 C 1.32811(8) 0.62323(8) 0.33892(6)
H14 H 1.3643 0.6495 0.2805
H15 H 1.3172 0.5200 0.3361
C14 C 1.43430(8) 0.68205(8) 0.42691(6)
H16 H 1.5341 0.7038 0.4107
H17 H 1.4430 0.6147 0.4757
C15 C 1.36335(8) 0.81555(8) 0.46188(5)
H18 H 1.3739 0.8270 0.5319
H19 H 1.4084 0.8993 0.4393
N2 N 1.20818(7) 0.79203(6) 0.42024(4)
C16 C 1.09726(9) 0.88339(8) 0.44871(6)
H20 H 1.1009 0.8881 0.5176
H21 H 0.9989 0.8470 0.4180
H22 H 1.1166 0.9772 0.4299
O9 O 1.13309(6) 0.35931(5) 0.21561(4)
C17 C 1.12270(7) 0.22871(6) 0.20932(5)
C18 C 0.99286(8) 0.13385(7) 0.16311(6)
H23 H 0.9791 0.1361 0.0935
H24 H 0.9005 0.1618 0.1870
C19 C 1.03393(8) -0.01187(7) 0.19074(6)
H25 H 0.9808 -0.0386 0.2427
H26 H 1.0091 -0.0828 0.1359
C20 C 1.20148(8) 0.00103(7) 0.22303(5)
H27 H 1.2288 -0.0487 0.2802
H28 H 1.2562 -0.0373 0.1723
N3 N 1.23264(7) 0.15151(6) 0.24365(5)
C21 C 1.37887(9) 0.20837(8) 0.28473(8)
H29 H 1.3996 0.1863 0.3507
H30 H 1.3829 0.3101 0.2826
H31 H 1.4530 0.1672 0.2487
S1A S 0.79266(2) 0.34613(2) -0.03062(2)
O2A O 0.75025(6) 0.19866(5) -0.03392(4)
O3A O 0.82982(6) 0.38668(6) -0.12102(4)
C1A C 0.62989(7) 0.43564(6) -0.01321(4)
C3A C 0.56781(7) 0.52243(7) -0.07952(5)
H2A H 0.6141 0.5372 -0.1335
C2A C 0.56272(7) 0.41261(7) 0.06612(5)
H1A H 0.6058 0.3529 0.1108
O1A O 0.90821(5) 0.39076(5) 0.04813(3)
S2A S 1.23451(2) 0.62479(2) 0.67289(2)
O4A O 1.17826(6) 0.57861(6) 0.75676(4)
O5A O 1.23487(8) 0.77572(6) 0.67212(4)
O6A O 1.37383(6) 0.56421(7) 0.65916(4)
C4A C 1.10370(7) 0.55566(7) 0.57502(5)
C5A C 1.14033(8) 0.44577(7) 0.51427(5)
H3A H 1.2361 0.4091 0.5242
C6A C 0.96388(8) 0.61022(7) 0.56119(5)
H4A H 0.9396 0.6853 0.6030
Fe1A Fe 0.01039(2) 0.48358(2) -0.17686(2)
O7A O 0.14677(6) 0.33391(5) -0.12351(4)
C7A C 0.23968(7) 0.25463(6) -0.15104(5)
C8A C 0.29894(9) 0.24986(8) -0.24399(6)
H5A H 0.2172 0.2483 -0.2975
H6A H 0.3672 0.3317 -0.2459
C9A C 0.38103(14) 0.11458(11) -0.24821(9)
H7A H 0.3211 0.0405 -0.2907
H8A H 0.4771 0.1294 -0.2715
C10A C 0.40535(9) 0.07399(8) -0.14559(7)
H9A H 0.5089 0.0968 -0.1155
H10A H 0.3824 -0.0271 -0.1435
N1A N 0.30228(7) 0.15817(6) -0.09908(5)
C11A C 0.27436(10) 0.13873(8) -0.00383(6)
H11A H 0.2322 0.0439 -0.0021
H12A H 0.3677 0.1521 0.0398
H13A H 0.2043 0.2070 0.0152
O8A O -0.05974(6) 0.34377(5) -0.30327(4)
C12A C -0.18342(7) 0.31167(6) -0.35026(5)
C13A C -0.32811(8) 0.37677(8) -0.33892(6)
H14A H -0.3643 0.3505 -0.2805
H15A H -0.3172 0.4800 -0.3361
C14A C -0.43430(8) 0.31795(8) -0.42691(6)
H16A H -0.5341 0.2962 -0.4107
H17A H -0.4430 0.3853 -0.4757
C15A C -0.36335(8) 0.18445(8) -0.46188(5)
H18A H -0.3739 0.1730 -0.5319
H19A H -0.4084 0.1007 -0.4393
N2A N -0.20818(7) 0.20797(6) -0.42024(4)
C16A C -0.09726(9) 0.11661(8) -0.44871(6)
H20A H -0.1009 0.1119 -0.5176
H21A H 0.0011 0.1530 -0.4180
H22A H -0.1166 0.0228 -0.4299
O9A O -0.13309(6) 0.64069(5) -0.21561(4)
C17A C -0.12270(7) 0.77129(6) -0.20932(5)
C18A C 0.00714(8) 0.86615(7) -0.16311(6)
H23A H 0.0209 0.8639 -0.0935
H24A H 0.0995 0.8382 -0.1870
C19A C -0.03393(8) 1.01187(7) -0.19074(6)
H25A H 0.0192 1.0386 -0.2427
H26A H -0.0091 1.0828 -0.1359
C20A C -0.20148(8) 0.99897(7) -0.22303(5)
H27A H -0.2288 1.0487 -0.2802
H28A H -0.2562 1.0373 -0.1723
N3A N -0.23264(7) 0.84849(6) -0.24365(5)
C21A C -0.37887(9) 0.79163(8) -0.28473(8)
H29A H -0.3996 0.8137 -0.3507
H30A H -0.3829 0.6899 -0.2826
H31A H -0.4530 0.8328 -0.2487
Fe1_2 Fe -0.01039(2) 0.51642(2) 0.17686(2)
Fe1A_2 Fe 1.01039(2) 0.48358(2) -0.17686(2)
Fe1A_3 Fe 1.01039(2) 0.48358(2) 0.82314(2)
O3_2 O 1.17018(6) 0.61332(6) 0.12102(4)
O3A_2 O -0.17018(6) 0.38668(6) -0.12102(4)
O4A_2 O 0.17826(6) 0.57861(6) -0.24324(4)
loop_
_geom_bond_atom_site_label_1
_geom_bond_atom_site_label_2
_geom_bond_site_symmetry_1
_geom_bond_site_symmetry_2
Fe1 O4 1_555 1_555
S1 O1 1_555 1_555
O1 Fe1A 1_555 1_555
O2 S1 1_555 1_555
O3 S1 1_555 1_555
C1 S1 1_555 1_555
C2 C1 1_555 1_555
H1 C2 1_555 1_555
C3 C1 1_555 1_555
H2 C3 1_555 1_555
S2 O4 1_555 1_555
O5 S2 1_555 1_555
O6 S2 1_555 1_555
C4 S2 1_555 1_555
C5 C4 1_555 1_555
H3 C5 1_555 1_555
C6 C4 1_555 1_555
H4 C6 1_555 1_555
O7 Fe1 1_555 1_555
C7 O7 1_555 1_555
C8 C7 1_555 1_555
H5 C8 1_555 1_555
H6 C8 1_555 1_555
C9 C8 1_555 1_555
H7 C9 1_555 1_555
H8 C9 1_555 1_555
C10 C9 1_555 1_555
H9 C10 1_555 1_555
H10 C10 1_555 1_555
N1 C7 1_555 1_555
C11 N1 1_555 1_555
H11 C11 1_555 1_555
H12 C11 1_555 1_555
H13 C11 1_555 1_555
O8 Fe1 1_555 1_555
C12 O8 1_555 1_555
C13 C12 1_555 1_555
H14 C13 1_555 1_555
H15 C13 1_555 1_555
C14 C13 1_555 1_555
H16 C14 1_555 1_555
H17 C14 1_555 1_555
C15 C14 1_555 1_555
H18 C15 1_555 1_555
H19 C15 1_555 1_555
N2 C12 1_555 1_555
C16 N2 1_555 1_555
H20 C16 1_555 1_555
H21 C16 1_555 1_555
H22 C16 1_555 1_555
O9 Fe1 1_555 1_555
C17 O9 1_555 1_555
C18 C17 1_555 1_555
H23 C18 1_555 1_555
H24 C18 1_555 1_555
C19 C18 1_555 1_555
H25 C19 1_555 1_555
H26 C19 1_555 1_555
C20 C19 1_555 1_555
H27 C20 1_555 1_555
H28 C20 1_555 1_555
N3 C17 1_555 1_555
C21 N3 1_555 1_555
H29 C21 1_555 1_555
H30 C21 1_555 1_555
H31 C21 1_555 1_555
S1A O2A 1_555 1_555
O3A S1A 1_555 1_555
C1A S1A 1_555 1_555
C3A C2 1_555 1_555
H2A C3A 1_555 1_555
C2A C3 1_555 1_555
H1A C2A 1_555 1_555
O1A Fe1 1_555 1_555
S2A O4A 1_555 1_555
O4A Fe1A_3 1_555 1_555
O5A S2A 1_555 1_555
O6A S2A 1_555 1_555
C4A S2A 1_555 1_555
C5A C6 1_555 1_555
H3A C5A 1_555 1_555
C6A C5 1_555 1_555
H4A C6A 1_555 1_555
Fe1A O7A 1_555 1_555
O7A C7A 1_555 1_555
C7A C8A 1_555 1_555
C8A H5A 1_555 1_555
H6A C8A 1_555 1_555
C9A C8A 1_555 1_555
H7A C9A 1_555 1_555
H8A C9A 1_555 1_555
C10A C9A 1_555 1_555
H9A C10A 1_555 1_555
H10A C10A 1_555 1_555
N1A C7A 1_555 1_555
C11A N1A 1_555 1_555
H11A C11A 1_555 1_555
H12A C11A 1_555 1_555
H13A C11A 1_555 1_555
O8A Fe1A 1_555 1_555
C12A O8A 1_555 1_555
C13A C12A 1_555 1_555
H14A C13A 1_555 1_555
H15A C13A 1_555 1_555
C14A C13A 1_555 1_555
H16A C14A 1_555 1_555
H17A C14A 1_555 1_555
C15A C14A 1_555 1_555
H18A C15A 1_555 1_555
H19A C15A 1_555 1_555
N2A C12A 1_555 1_555
C16A N2A 1_555 1_555
H20A C16A 1_555 1_555
H21A C16A 1_555 1_555
H22A C16A 1_555 1_555
O9A Fe1A 1_555 1_555
C17A O9A 1_555 1_555
C18A C17A 1_555 1_555
H23A C18A 1_555 1_555
H24A C18A 1_555 1_555
C19A C18A 1_555 1_555
H25A C19A 1_555 1_555
H26A C19A 1_555 1_555
C20A C19A 1_555 1_555
H27A C20A 1_555 1_555
H28A C20A 1_555 1_555
N3A C17A 1_555 1_555
C21A N3A 1_555 1_555
H29A C21A 1_555 1_555
H30A C21A 1_555 1_555
H31A C21A 1_555 1_555
Fe1_2 O3 1_555 1_555
Fe1A_2 O3A 1_555 1_555
O3_2 Fe1 1_555 1_555
O3A_2 Fe1A 1_555 1_555
O4A_2 Fe1A 1_555 1_555
C10 N1 1_555 1_555
C15 N2 1_555 1_555
C20 N3 1_555 1_555
S1A O1A 1_555 1_555
C1A C3A 1_555 1_555
C1A C2A 1_555 1_555
C4A C5A 1_555 1_555
C4A C6A 1_555 1_555
C10A N1A 1_555 1_555
C15A N2A 1_555 1_555
C20A N3A 1_555 1_555

#END
