
#######################################################################
#
#                 Cambridge Crystallographic Data Centre
#                                CCDC 
#
#######################################################################
#
# If this CIF has been generated from an entry in the Cambridge 
# Structural Database, then it will include bibliographic, chemical, 
# crystal, experimental, refinement or atomic coordinate data resulting 
# from the CCDC's data processing and validation procedures.
#
#######################################################################

data_VUFGIO
_symmetry_cell_setting           triclinic
_symmetry_space_group_name_H-M   'P -1'
_symmetry_Int_Tables_number      2
_space_group_name_Hall           '-P 1'
loop_
_symmetry_equiv_pos_site_id
_symmetry_equiv_pos_as_xyz
1 x,y,z
2 -x,-y,-z
_cell_length_a                   7.4416(4)
_cell_length_b                   11.0214(7)
_cell_length_c                   20.0676(13)
_cell_angle_alpha                83.276(5)
_cell_angle_beta                 86.959(5)
_cell_angle_gamma                86.536(5)
_cell_volume                     1629.82
loop_
_atom_site_label
_atom_site_type_symbol
_atom_site_fract_x
_atom_site_fract_y
_atom_site_fract_z
Na1 Na 0.50795(17) 0.22161(11) 0.28152(6)
Na2 Na 0.01026(16) 0.26712(10) 0.21964(6)
S1 S 0.72210(10) 0.13528(6) 0.17528(3)
S2 S 1.00333(10) 0.52572(7) 0.17307(4)
S3 S 0.17708(10) 0.35270(6) 0.32490(3)
S4 S 0.53925(10) -0.03333(7) 0.33380(4)
O1 O 0.6591(4) 0.3068(2) 0.36187(13)
O2 O 0.1949(3) 0.1919(2) 0.13464(12)
N1 N 0.7023(3) 0.3630(2) 0.10790(12)
N2 N 0.6399(3) 0.5528(2) 0.17171(11)
N3 N 0.1867(3) 0.1248(2) 0.39220(12)
N4 N 0.1838(3) -0.0654(2) 0.32855(11)
B1 B 0.1457(4) 0.0760(3) 0.32362(16)
H1 H 0.0207 0.0962 0.3136
H2 H 0.2208 0.1155 0.2874
B2 B 0.6308(5) 0.4110(3) 0.17617(16)
H3 H 0.5073 0.3888 0.1861
H4 H 0.7032 0.3725 0.2124
C1 C 0.7401(4) 0.2407(3) 0.10527(14)
C2 C 0.7952(4) 0.2012(3) 0.04207(15)
H5 H 0.8227 0.1184 0.0394
C3 C 0.8088(5) 0.2820(3) -0.01478(15)
H6 H 0.8447 0.2546 -0.0558
C4 C 0.7678(5) 0.4065(3) -0.01054(16)
H7 H 0.7752 0.4634 -0.0485
C5 C 0.7169(4) 0.4420(3) 0.05048(15)
H8 H 0.6904 0.5248 0.0533
C6 C 0.8021(4) 0.6081(3) 0.17274(14)
C7 C 0.7945(5) 0.7364(3) 0.17340(15)
H9 H 0.9014 0.7755 0.1747
C8 C 0.6353(5) 0.8049(3) 0.17225(16)
H10 H 0.6336 0.8892 0.1730
C9 C 0.4751(5) 0.7463(3) 0.16990(16)
H11 H 0.3649 0.7908 0.1683
C10 C 0.4834(4) 0.6232(3) 0.16995(15)
H12 H 0.3760 0.5847 0.1687
C11 C 0.2017(4) 0.0456(3) 0.44917(15)
H13 H 0.1928 -0.0374 0.4463
C12 C 0.2292(5) 0.0820(3) 0.51019(15)
H14 H 0.2392 0.0251 0.5481
C13 C 0.2422(5) 0.2065(3) 0.51463(15)
H15 H 0.2616 0.2342 0.5555
C14 C 0.1977(4) 0.2470(3) 0.39484(14)
C15 C 0.2257(4) 0.2871(3) 0.45779(15)
H16 H 0.2332 0.3703 0.4605
C16 C 0.3562(4) -0.1184(3) 0.33149(14)
C17 C 0.3768(5) -0.2472(3) 0.33375(16)
H17 H 0.4912 -0.2854 0.3378
C18 C 0.2330(5) -0.3168(3) 0.33017(17)
H18 H 0.2500 -0.4013 0.3310
C19 C 0.0610(5) -0.2611(3) 0.32524(17)
H19 H -0.0382 -0.3075 0.3225
C20 C 0.6708(6) 0.4366(3) 0.3585(2)
H20 H 0.5523 0.4775 0.3539
H21 H 0.7480 0.4663 0.3203
C21 C 0.7493(8) 0.4608(4) 0.4234(2)
H22 H 0.8778 0.4712 0.4171
H23 H 0.6916 0.5338 0.4396
C22 C 0.7132(6) 0.3512(4) 0.4714(2)
H24 H 0.5985 0.3616 0.4959
H25 H 0.8078 0.3342 0.5031
C23 C 0.7100(5) 0.2504(3) 0.42654(18)
H26 H 0.8281 0.2086 0.4232
H27 H 0.6238 0.1912 0.4447
C24 C 0.2510(5) 0.2564(3) 0.07157(17)
H28 H 0.3579 0.3003 0.0764
H29 H 0.1562 0.3148 0.0551
C25 C 0.2913(5) 0.1603(4) 0.02321(18)
H30 H 0.1846 0.1459 0.0001
H31 H 0.3865 0.1843 -0.0097
C26 C 0.3499(5) 0.0493(4) 0.06934(18)
H32 H 0.4771 0.0494 0.0777
H33 H 0.3270 -0.0253 0.0508
C27 C 0.2331(5) 0.0626(3) 0.13368(18)
H34 H 0.1224 0.0207 0.1330
H35 H 0.2975 0.0284 0.1730
C28 C 0.0405(4) -0.1365(3) 0.32443(15)
H36 H -0.0745 -0.0989 0.3210
Na2_2 Na 1.01026(16) 0.26712(10) 0.21964(6)
S1_2 S -0.27790(10) 0.13528(6) 0.17528(3)
S2_2 S 0.00333(10) 0.52572(7) 0.17307(4)
loop_
_geom_bond_atom_site_label_1
_geom_bond_atom_site_label_2
_geom_bond_site_symmetry_1
_geom_bond_site_symmetry_2
Na1 S1 1_555 1_555
Na2 S3 1_555 1_555
S1 C1 1_555 1_555
S2 C6 1_555 1_555
S3 Na1 1_555 1_555
S4 Na1 1_555 1_555
O1 Na1 1_555 1_555
O2 Na2 1_555 1_555
N1 B2 1_555 1_555
N2 B2 1_555 1_555
N3 B1 1_555 1_555
N4 B1 1_555 1_555
B1 H1 1_555 1_555
H2 B1 1_555 1_555
B2 H3 1_555 1_555
H4 B2 1_555 1_555
C1 N1 1_555 1_555
C2 C1 1_555 1_555
H5 C2 1_555 1_555
C3 C2 1_555 1_555
H6 C3 1_555 1_555
C4 C3 1_555 1_555
H7 C4 1_555 1_555
C5 N1 1_555 1_555
H8 C5 1_555 1_555
C6 N2 1_555 1_555
C7 C6 1_555 1_555
H9 C7 1_555 1_555
C8 C7 1_555 1_555
H10 C8 1_555 1_555
C9 C8 1_555 1_555
H11 C9 1_555 1_555
C10 N2 1_555 1_555
H12 C10 1_555 1_555
C11 N3 1_555 1_555
H13 C11 1_555 1_555
C12 C11 1_555 1_555
H14 C12 1_555 1_555
C13 C12 1_555 1_555
H15 C13 1_555 1_555
C14 S3 1_555 1_555
C15 C13 1_555 1_555
H16 C15 1_555 1_555
C16 S4 1_555 1_555
C17 C16 1_555 1_555
H17 C17 1_555 1_555
C18 C17 1_555 1_555
H18 C18 1_555 1_555
C19 C18 1_555 1_555
H19 C19 1_555 1_555
C20 O1 1_555 1_555
H20 C20 1_555 1_555
H21 C20 1_555 1_555
C21 C20 1_555 1_555
H22 C21 1_555 1_555
H23 C21 1_555 1_555
C22 C21 1_555 1_555
H24 C22 1_555 1_555
H25 C22 1_555 1_555
C23 O1 1_555 1_555
H26 C23 1_555 1_555
H27 C23 1_555 1_555
C24 O2 1_555 1_555
H28 C24 1_555 1_555
H29 C24 1_555 1_555
C25 C24 1_555 1_555
H30 C25 1_555 1_555
H31 C25 1_555 1_555
C26 C25 1_555 1_555
H32 C26 1_555 1_555
H33 C26 1_555 1_555
C27 O2 1_555 1_555
H34 C27 1_555 1_555
H35 C27 1_555 1_555
C28 N4 1_555 1_555
H36 C28 1_555 1_555
Na2_2 S1 1_555 1_555
S1_2 Na2 1_555 1_555
S2_2 Na2 1_555 1_555
S2 Na2_2 1_555 1_555
N3 C14 1_555 1_555
N4 C16 1_555 1_555
C4 C5 1_555 1_555
C9 C10 1_555 1_555
C14 C15 1_555 1_555
C19 C28 1_555 1_555
C22 C23 1_555 1_555
C26 C27 1_555 1_555

#END
