
#######################################################################
#
#                 Cambridge Crystallographic Data Centre
#                                CCDC 
#
#######################################################################
#
# If this CIF has been generated from an entry in the Cambridge 
# Structural Database, then it will include bibliographic, chemical, 
# crystal, experimental, refinement or atomic coordinate data resulting 
# from the CCDC's data processing and validation procedures.
#
#######################################################################

data_VUFTUM
_symmetry_cell_setting           monoclinic
_symmetry_space_group_name_H-M   'C 2/c'
_symmetry_Int_Tables_number      15
_space_group_name_Hall           '-C 2yn'
loop_
_symmetry_equiv_pos_site_id
_symmetry_equiv_pos_as_xyz
1 x,y,z
2 -x,y,1/2-z
3 1/2+x,1/2+y,z
4 1/2-x,1/2+y,1/2-z
5 -x,-y,-z
6 x,-y,1/2+z
7 1/2-x,1/2-y,-z
8 1/2+x,1/2-y,1/2+z
_cell_length_a                   16.536(3)
_cell_length_b                   11.727(2)
_cell_length_c                   23.537(6)
_cell_angle_alpha                90
_cell_angle_beta                 106.195(2)
_cell_angle_gamma                90
_cell_volume                     4383.12
loop_
_atom_site_label
_atom_site_type_symbol
_atom_site_fract_x
_atom_site_fract_y
_atom_site_fract_z
Mn1 Mn 0.5000 0.51471(5) 0.2500
Br1 Br 0.20342(2) 0.68695(3) 0.137315(16)
O1 O 0.30695(15) 0.5244(2) 0.28865(11)
O2 O 0.36489(12) 0.51784(16) 0.21349(9)
O3 O -0.04051(14) 0.3819(2) 0.02829(11)
O4 O 0.00562(16) 0.21322(19) 0.06658(12)
H1 H -0.0369 0.1906 0.0420
O5 O 0.52000(13) 0.51108(17) 0.16246(9)
H2 H 0.5719 0.5148 0.1678
H3 H 0.5002 0.4542 0.1422
N1 N 0.5000 0.7092(3) 0.2500
N2 N 0.5000 1.3145(3) 0.2500
C1 C 0.30409(19) 0.5092(2) 0.23608(15)
C2 C 0.22243(17) 0.4682(2) 0.19359(13)
C3 C 0.17533(18) 0.5309(2) 0.14579(13)
C4 C 0.10639(17) 0.4859(2) 0.10454(13)
H4 H 0.0761 0.5303 0.0730
C5 C 0.08247(17) 0.3735(2) 0.11049(13)
C6 C 0.12663(18) 0.3099(3) 0.15915(13)
H5 H 0.1101 0.2356 0.1642
C7 C 0.19498(18) 0.3574(3) 0.19992(13)
H6 H 0.2236 0.3145 0.2326
C8 C 0.00919(19) 0.3245(3) 0.06425(14)
C9 C 0.55690(18) 0.7681(2) 0.29062(14)
H7 H 0.5970 0.7281 0.3193
C10 C 0.55914(19) 0.8863(2) 0.29213(14)
H8 H 0.6001 0.9239 0.3213
C11 C 0.5000 0.9481(3) 0.2500
C12 C 0.5000 1.0746(3) 0.2500
C13 C 0.57398(19) 1.1366(2) 0.26066(14)
H9 H 0.6255 1.0991 0.2685
C14 C 0.57115(19) 1.2543(2) 0.25960(15)
H10 H 0.6216 1.2939 0.2659
Mn1_2 Mn 0.5000 1.51471(5) 0.2500
Br1A Br 0.79658(2) 0.68695(3) 0.362685(16)
O1A O 0.69305(15) 0.5244(2) 0.21135(11)
O2A O 0.63511(12) 0.51784(16) 0.28651(9)
O3A O 1.04051(14) 0.3819(2) 0.47171(11)
O4A O 0.99438(16) 0.21322(19) 0.43342(12)
H1A H 1.0369 0.1906 0.4580
O5A O 0.48000(13) 0.51108(17) 0.33754(9)
H2A H 0.4281 0.5148 0.3322
H3A H 0.4998 0.4542 0.3578
N2_2 N 0.5000 0.3145(3) 0.2500
C1A C 0.69591(19) 0.5092(2) 0.26392(15)
C2A C 0.77757(17) 0.4682(2) 0.30641(13)
C3A C 0.82467(18) 0.5309(2) 0.35421(13)
C4A C 0.89361(17) 0.4859(2) 0.39546(13)
H4A H 0.9239 0.5303 0.4270
C5A C 0.91753(17) 0.3735(2) 0.38951(13)
C6A C 0.87337(18) 0.3099(3) 0.34085(13)
H5A H 0.8899 0.2356 0.3358
C7A C 0.80502(18) 0.3574(3) 0.30008(13)
H6A H 0.7764 0.3145 0.2674
C8A C 0.99081(19) 0.3245(3) 0.43575(14)
C9A C 0.44310(18) 0.7681(2) 0.20938(14)
H7A H 0.4030 0.7281 0.1807
C10A C 0.44086(19) 0.8863(2) 0.20787(14)
H8A H 0.3999 0.9239 0.1787
C13A C 0.42602(19) 1.1366(2) 0.23934(14)
H9A H 0.3745 1.0991 0.2315
C14A C 0.42885(19) 1.2543(2) 0.24040(15)
H10A H 0.3784 1.2939 0.2341
N3 N 0.43097(18) 0.3300(2) 0.09710(12)
N4 N 0.12386(19) -0.1056(2) 0.00335(14)
C15 C 0.3517(2) 0.3413(3) 0.09837(15)
H11 H 0.3353 0.4107 0.1107
C16 C 0.2921(2) 0.2557(3) 0.08243(15)
H12 H 0.2372 0.2692 0.0835
C17 C 0.31388(19) 0.1503(3) 0.06493(14)
C18 C 0.3965(2) 0.1383(3) 0.06354(17)
H13 H 0.4150 0.0696 0.0519
C19 C 0.4513(2) 0.2288(3) 0.07956(18)
H14 H 0.5064 0.2184 0.0780
C20 C 0.1955(2) -0.1062(3) -0.01167(18)
H15 H 0.2028 -0.1628 -0.0375
C21 C 0.2596(2) -0.0291(3) 0.00832(18)
H16 H 0.3086 -0.0347 -0.0036
C22 C 0.25070(19) 0.0572(3) 0.04630(14)
C23 C 0.1779(2) 0.0549(3) 0.06422(16)
H17 H 0.1700 0.1080 0.0916
C24 C 0.1167(2) -0.0263(3) 0.04147(17)
H18 H 0.0679 -0.0250 0.0537
loop_
_geom_bond_atom_site_label_1
_geom_bond_atom_site_label_2
_geom_bond_site_symmetry_1
_geom_bond_site_symmetry_2
Mn1 O2 1_555 1_555
Br1 C3 1_555 1_555
O1 C1 1_555 1_555
O2 C1 1_555 1_555
O3 C8 1_555 1_555
O4 H1 1_555 1_555
O5 Mn1 1_555 1_555
H2 O5 1_555 1_555
H3 O5 1_555 1_555
N1 Mn1 1_555 1_555
N2 C14 1_555 1_555
N3 C15 1_555 1_555
N4 C20 1_555 1_555
C1 C2 1_555 1_555
C2 C3 1_555 1_555
C3 C4 1_555 1_555
C4 H4 1_555 1_555
C5 C4 1_555 1_555
C6 C5 1_555 1_555
H5 C6 1_555 1_555
C7 C2 1_555 1_555
H6 C7 1_555 1_555
C8 O4 1_555 1_555
C9 N1 1_555 1_555
H7 C9 1_555 1_555
C10 C9 1_555 1_555
H8 C10 1_555 1_555
C11 C10 1_555 1_555
C12 C11 1_555 1_555
C13 C12 1_555 1_555
H9 C13 1_555 1_555
C14 C13 1_555 1_555
H10 C14 1_555 1_555
C15 H11 1_555 1_555
C16 C15 1_555 1_555
H12 C16 1_555 1_555
C17 C16 1_555 1_555
C18 C17 1_555 1_555
H13 C18 1_555 1_555
C19 N3 1_555 1_555
H14 C19 1_555 1_555
C20 H15 1_555 1_555
C21 C20 1_555 1_555
H16 C21 1_555 1_555
C22 C17 1_555 1_555
C23 C22 1_555 1_555
H17 C23 1_555 1_555
C24 N4 1_555 1_555
H18 C24 1_555 1_555
Mn1_2 N2 1_555 1_555
Br1A C3A 1_555 1_555
O1A C1A 1_555 1_555
O2A Mn1 1_555 1_555
O3A C8A 1_555 1_555
O4A H1A 1_555 1_555
O5A Mn1 1_555 1_555
H2A O5A 1_555 1_555
H3A O5A 1_555 1_555
N2_2 Mn1 1_555 1_555
C1A O2A 1_555 1_555
C2A C1A 1_555 1_555
C3A C2A 1_555 1_555
C4A C3A 1_555 1_555
H4A C4A 1_555 1_555
C5A C4A 1_555 1_555
C6A C5A 1_555 1_555
H5A C6A 1_555 1_555
C7A C2A 1_555 1_555
H6A C7A 1_555 1_555
C8A O4A 1_555 1_555
C9A N1 1_555 1_555
H7A C9A 1_555 1_555
C10A C11 1_555 1_555
H8A C10A 1_555 1_555
C13A C12 1_555 1_555
H9A C13A 1_555 1_555
C14A N2 1_555 1_555
H10A C14A 1_555 1_555
C5 C8 1_555 1_555
C6 C7 1_555 1_555
C18 C19 1_555 1_555
C21 C22 1_555 1_555
C23 C24 1_555 1_555
C5A C8A 1_555 1_555
C6A C7A 1_555 1_555
C9A C10A 1_555 1_555
C13A C14A 1_555 1_555

#END
