
#######################################################################
#
#                 Cambridge Crystallographic Data Centre
#                                CCDC 
#
#######################################################################
#
# If this CIF has been generated from an entry in the Cambridge 
# Structural Database, then it will include bibliographic, chemical, 
# crystal, experimental, refinement or atomic coordinate data resulting 
# from the CCDC's data processing and validation procedures.
#
#######################################################################

data_VUHFUA
_symmetry_cell_setting           monoclinic
_symmetry_space_group_name_H-M   'C 2/c'
_symmetry_Int_Tables_number      15
_space_group_name_Hall           '-C 2yn'
loop_
_symmetry_equiv_pos_site_id
_symmetry_equiv_pos_as_xyz
1 x,y,z
2 -x,y,1/2-z
3 1/2+x,1/2+y,z
4 1/2-x,1/2+y,1/2-z
5 -x,-y,-z
6 x,-y,1/2+z
7 1/2-x,1/2-y,-z
8 1/2+x,1/2-y,1/2+z
_cell_length_a                   12.510(2)
_cell_length_b                   13.671(2)
_cell_length_c                   7.5479(12)
_cell_angle_alpha                90
_cell_angle_beta                 92.307(3)
_cell_angle_gamma                90
_cell_volume                     1289.83
loop_
_atom_site_label
_atom_site_type_symbol
_atom_site_fract_x
_atom_site_fract_y
_atom_site_fract_z
Co1 Co 1.0000 0.5000 0.0000
C1 C 0.5834(2) 0.5635(2) 0.1777(4)
C2 C 0.5813(2) 0.6644(2) 0.1693(4)
H1 H 0.6337 0.6982 0.1102
C3 C 0.5000 0.7148(3) 0.2500
C4 C 0.5000 0.5126(3) 0.2500
H2 H 0.5000 0.4446 0.2500
C5 C 0.7693(3) 0.5470(2) 0.0785(5)
H3 H 0.7867 0.6130 0.0860
C6 C 0.6788(3) 0.4106(2) 0.0897(5)
H4 H 0.6247 0.3650 0.1051
C7 C 0.7790(3) 0.3929(2) 0.0397(5)
H5 H 0.8059 0.3314 0.0137
C8 C 0.5000 0.8255(3) 0.2500
N1 N 1.0000 0.6793(3) 0.2500
N2 N 0.6733(2) 0.50991(18) 0.1129(4)
N3 N 0.8358(2) 0.47794(19) 0.0327(4)
O1 O 0.53536(18) 0.86600(15) 0.1161(3)
O2 O 1.0000 0.5822(2) 0.2500
O3 O 0.9148(3) 0.7227(2) 0.2516(4)
Co1A Co 1.0000 0.5000 0.5000
Co1B Co 0.5000 1.0000 0.0000
Co1C Co 0.5000 1.0000 0.5000
Co1A_2 Co 0.0000 0.5000 0.5000
C1A C 0.4166(2) 0.5635(2) 0.3223(4)
C2A C 0.4187(2) 0.6644(2) 0.3307(4)
H1A H 0.3663 0.6982 0.3898
C5A C 0.2307(3) 0.5470(2) 0.4215(5)
H3A H 0.2133 0.6130 0.4140
C6A C 0.3212(3) 0.4106(2) 0.4103(5)
H4A H 0.3753 0.3650 0.3949
C7A C 0.2210(3) 0.3929(2) 0.4603(5)
H5A H 0.1941 0.3314 0.4863
N2A N 0.3267(2) 0.50991(18) 0.3871(4)
N3A N 0.1642(2) 0.47794(19) 0.4673(4)
N3D N 1.1642(2) 0.52206(19) -0.0327(4)
O1A O 0.46464(18) 0.86600(15) 0.3839(3)
O1B O 1.03536(18) 0.36600(15) 0.1161(3)
O1F O 0.96464(18) 0.63400(15) -0.1161(3)
O2D O 1.0000 0.4178(2) -0.2500
O3A O 1.0852(3) 0.7227(2) 0.2484(4)
loop_
_geom_bond_atom_site_label_1
_geom_bond_atom_site_label_2
_geom_bond_site_symmetry_1
_geom_bond_site_symmetry_2
Co1 N3 1_555 1_555
C1 C2 1_555 1_555
C2 H1 1_555 1_555
C3 C2 1_555 1_555
C4 C1 1_555 1_555
H2 C4 1_555 1_555
C5 H3 1_555 1_555
C6 H4 1_555 1_555
C7 C6 1_555 1_555
H5 C7 1_555 1_555
C8 C3 1_555 1_555
N1 O2 1_555 1_555
N2 C1 1_555 1_555
N3 C5 1_555 1_555
O1 C8 1_555 1_555
O2 Co1 1_555 1_555
O3 N1 1_555 1_555
Co1A O2 1_555 1_555
Co1B O1 1_555 1_555
Co1C O1A 1_555 1_555
Co1A_2 N3A 1_555 1_555
C1A C4 1_555 1_555
C2A C3 1_555 1_555
H1A C2A 1_555 1_555
C5A H3A 1_555 1_555
C6A H4A 1_555 1_555
C7A C6A 1_555 1_555
H5A C7A 1_555 1_555
N2A C1A 1_555 1_555
N3A C5A 1_555 1_555
N3D Co1 1_555 1_555
O1A C8 1_555 1_555
O1B Co1 1_555 1_555
O1F Co1 1_555 1_555
O2D Co1 1_555 1_555
O3A N1 1_555 1_555
C5 N2 1_555 1_555
C6 N2 1_555 1_555
C7 N3 1_555 1_555
C1A C2A 1_555 1_555
C5A N2A 1_555 1_555
C6A N2A 1_555 1_555
C7A N3A 1_555 1_555

#END
