
#######################################################################
#
#                 Cambridge Crystallographic Data Centre
#                                CCDC 
#
#######################################################################
#
# If this CIF has been generated from an entry in the Cambridge 
# Structural Database, then it will include bibliographic, chemical, 
# crystal, experimental, refinement or atomic coordinate data resulting 
# from the CCDC's data processing and validation procedures.
#
#######################################################################

data_VUHPAR
_symmetry_cell_setting           monoclinic
_symmetry_space_group_name_H-M   'C 2/c'
_symmetry_Int_Tables_number      15
_space_group_name_Hall           '-C 2yn'
loop_
_symmetry_equiv_pos_site_id
_symmetry_equiv_pos_as_xyz
1 x,y,z
2 -x,y,1/2-z
3 1/2+x,1/2+y,z
4 1/2-x,1/2+y,1/2-z
5 -x,-y,-z
6 x,-y,1/2+z
7 1/2-x,1/2-y,-z
8 1/2+x,1/2-y,1/2+z
_cell_length_a                   34.9032(8)
_cell_length_b                   14.8011(2)
_cell_length_c                   31.0811(7)
_cell_angle_alpha                90
_cell_angle_beta                 101.564(2)
_cell_angle_gamma                90
_cell_volume                     15730.7
loop_
_atom_site_label
_atom_site_type_symbol
_atom_site_fract_x
_atom_site_fract_y
_atom_site_fract_z
Zn1 Zn 0.37390(2) 0.90015(6) 0.43819(3)
Zn2 Zn 0.1690(2) 1.3585(5) -0.2339(2)
I1 I 0.22939(8) 1.26360(19) -0.21060(8)
I2 I 0.12268(10) 1.3416(2) -0.30625(10)
Zn3 Zn 0.08014(17) 0.8697(4) 0.0921(2)
I3 I 0.02446(6) 0.84796(18) 0.12888(9)
I4 I 0.11672(9) 0.7569(2) 0.05498(15)
I5 I 0.39537(19) 0.7642(2) 0.39886(14)
I6 I 0.35571(16) 0.9134(6) 0.51258(17)
N1 N 0.13898(18) 1.3407(4) -0.1820(2)
C1 C 0.1068(4) 1.3880(9) -0.1833(4)
H1 H 0.1000 1.4333 -0.2052
C2 C 0.0824(3) 1.3740(8) -0.1537(4)
H2 H 0.0586 1.4069 -0.1566
C3 C 0.09236(17) 1.3132(4) -0.1206(2)
C4 C 0.1271(3) 1.2663(6) -0.1188(3)
H3 H 0.1353 1.2230 -0.0963
C5 C 0.1493(3) 1.2821(6) -0.1492(3)
H4 H 0.1733 1.2501 -0.1470
N2 N 0.06851(15) 0.9816(3) 0.04747(16)
C6 C 0.03721(17) 1.0335(4) 0.04607(19)
H5 H 0.0186 1.0169 0.0631
C7 C 0.03083(16) 1.1108(4) 0.02070(19)
H6 H 0.0085 1.1473 0.0209
C8 C 0.05727(16) 1.1343(4) -0.00503(17)
C9 C 0.0901(2) 1.0799(5) -0.0043(2)
H7 H 0.1091 1.0943 -0.0211
C10 C 0.0936(2) 1.0028(5) 0.0226(2)
H8 H 0.1152 0.9639 0.0229
N3 N -0.07951(14) 1.5125(4) -0.05847(17)
C11 C -0.0661(3) 1.4989(7) -0.0939(3)
H9 H -0.0787 1.5276 -0.1203
C12 C -0.0339(3) 1.4435(7) -0.0947(2)
H10 H -0.0245 1.4350 -0.1211
C13 C -0.01622(15) 1.4018(4) -0.05689(19)
C14 C -0.03252(17) 1.4102(4) -0.0206(2)
H11 H -0.0222 1.3776 0.0055
C15 C -0.06439(17) 1.4668(4) -0.0225(2)
H12 H -0.0757 1.4731 0.0027
C16 C 0.06766(15) 1.2970(4) -0.08826(19)
N4 N 0.07468(13) 1.2249(3) -0.06244(16)
C17 C 0.05198(14) 1.2162(4) -0.03313(17)
N5 N 0.02340(12) 1.2740(3) -0.02803(14)
C18 C 0.01773(15) 1.3409(3) -0.05728(18)
N6 N 0.03828(14) 1.3562(3) -0.08788(17)
N7 N 0.12194(16) 0.9419(3) 0.13974(17)
C19 C 0.1159(3) 1.0276(5) 0.1465(4)
H13 H 0.0951 1.0573 0.1272
C20 C 0.1381(3) 1.0769(5) 0.1803(3)
H14 H 0.1333 1.1395 0.1834
C21 C 0.16705(17) 1.0344(4) 0.20886(18)
C22 C 0.17317(19) 0.9449(4) 0.2023(2)
H15 H 0.1929 0.9130 0.2219
C23 C 0.1506(2) 0.9010(4) 0.1671(2)
H16 H 0.1558 0.8392 0.1623
N8 N 0.33098(13) 0.9653(3) 0.39343(16)
C24 C 0.3234(2) 1.0511(4) 0.3987(2)
H17 H 0.3387 1.0826 0.4228
C25 C 0.29409(19) 1.0982(4) 0.3705(2)
H18 H 0.2896 1.1605 0.3750
C26 C 0.27174(15) 1.0520(4) 0.33584(17)
C27 C 0.2798(2) 0.9610(4) 0.3302(2)
H19 H 0.2652 0.9276 0.3064
C28 C 0.3092(2) 0.9207(4) 0.3597(2)
H20 H 0.3143 0.8585 0.3561
N9 N 0.18378(17) 1.5030(3) 0.2756(2)
C29 C 0.2135(2) 1.4696(4) 0.3031(3)
H21 H 0.2306 1.5101 0.3214
C30 C 0.2214(2) 1.3774(4) 0.3071(3)
H22 H 0.2432 1.3558 0.3281
C31 C 0.19749(17) 1.3187(4) 0.2804(2)
C32 C 0.1654(2) 1.3541(4) 0.2517(3)
H23 H 0.1476 1.3152 0.2333
C33 C 0.1595(2) 1.4463(5) 0.2503(3)
H24 H 0.1375 1.4701 0.2307
C34 C 0.19064(16) 1.0866(3) 0.24567(18)
N10 N 0.21967(13) 1.0446(3) 0.27261(14)
C35 C 0.23968(15) 1.0970(3) 0.30461(17)
N11 N 0.23353(14) 1.1848(3) 0.30981(15)
C36 C 0.20463(16) 1.2194(4) 0.27990(19)
N12 N 0.18138(14) 1.1737(3) 0.24832(16)
Zn1G Zn -0.12610(2) 1.59985(6) -0.06181(3)
Zn2E Zn 0.1690(2) 1.6415(5) 0.2661(2)
N3G N 0.42049(14) 0.9875(4) 0.44153(17)
N9E N 0.18378(17) 1.4970(3) -0.2244(2)
C37 C -0.1131(12) 1.082(3) 0.1348(18)
C38 C -0.0717(11) 1.062(3) 0.1202(16)
H25 H -0.0516 1.0484 0.1468
H26 H -0.0746 1.0071 0.1014
C39 C -0.0566(11) 1.144(2) 0.0940(12)
H27 H -0.0736 1.1613 0.0673
C40 C -0.0279(10) 1.186(2) 0.1032(11)
C41 C -0.0174(12) 1.277(2) 0.0880(13)
H28 H 0.0112 1.2858 0.0965
H29 H -0.0249 1.2799 0.0556
C42 C -0.0366(17) 1.345(3) 0.1063(16)
H30 H -0.0164 1.3929 0.1135
H31 H -0.0557 1.3688 0.0809
C43 C -0.0550(14) 1.349(3) 0.1381(13)
H32 H -0.0434 1.3388 0.1681
C44 C -0.0916(13) 1.370(3) 0.1241(12)
C45 C -0.1150(11) 1.345(3) 0.1517(13)
H33 H -0.1196 1.3794 0.1759
C46 C -0.1311(11) 1.262(3) 0.1399(15)
H34 H -0.1449 1.2632 0.1084
C47 C -0.1146(11) 1.160(3) 0.1530(14)
H35 H -0.0930 1.1641 0.1794
C48 C -0.1421(12) 1.085(3) 0.0799(16)
H36 H -0.1410 1.0255 0.0660
H37 H -0.1693 1.0989 0.0811
H38 H -0.1318 1.1309 0.0627
C49 C -0.1203(15) 0.985(3) 0.163(2)
H39 H -0.1182 0.9324 0.1444
H40 H -0.1004 0.9814 0.1899
H41 H -0.1464 0.9866 0.1700
C50 C 0.0033(11) 1.165(3) 0.1401(13)
H42 H 0.0245 1.2089 0.1415
H43 H -0.0067 1.1676 0.1674
H44 H 0.0133 1.1040 0.1365
C51 C -0.1183(15) 1.401(3) 0.0943(16)
H45 H -0.1434 1.3990 0.1039
H46 H -0.1122 1.4644 0.0884
H47 H -0.1200 1.3657 0.0675
O1 O -0.1473(9) 1.179(2) 0.1646(12)
C52 C 0.2460(14) 0.812(3) 0.0138(16)
C53 C 0.2462(13) 0.860(3) 0.0607(12)
H48 H 0.2219 0.8422 0.0704
H49 H 0.2684 0.8346 0.0823
C54 C 0.2495(12) 0.967(3) 0.0619(14)
H50 H 0.2727 0.9888 0.0539
C55 C 0.2298(11) 1.024(3) 0.0705(12)
C56 C 0.2301(7) 1.123(2) 0.0592(10)
H51 H 0.2186 1.1594 0.0802
H52 H 0.2572 1.1442 0.0601
C57 C 0.2074(11) 1.131(3) 0.0163(13)
H53 H 0.1855 1.1704 0.0203
H54 H 0.2238 1.1688 0.0009
C58 C 0.1916(11) 1.076(3) -0.0127(14)
H55 H 0.1709 1.0359 -0.0100
C59 C 0.2077(11) 1.081(3) -0.0470(15)
C60 C 0.2009(11) 1.003(3) -0.0708(13)
H56 H 0.2032 1.0141 -0.1016
H57 H 0.1742 0.9806 -0.0707
C61 C 0.2281(16) 0.941(3) -0.0518(16)
H58 H 0.2537 0.9722 -0.0421
C62 C 0.2257(14) 0.857(3) -0.0187(13)
H59 H 0.1975 0.8401 -0.0212
C63 C 0.2970(13) 0.825(4) 0.0132(19)
H60 H 0.3124 0.7909 0.0378
H61 H 0.3041 0.8886 0.0159
C64 C 0.2343(15) 0.701(4) 0.0233(16)
H62 H 0.2525 0.6783 0.0491
H63 H 0.2361 0.6644 -0.0024
C65 C 0.1967(8) 1.015(3) 0.0914(10)
H64 H 0.1856 1.0754 0.0944
H65 H 0.1768 0.9769 0.0734
H66 H 0.2051 0.9883 0.1205
C66 C 0.2336(10) 1.112(3) -0.0664(15)
H67 H 0.2297 1.0867 -0.0961
H68 H 0.2315 1.1779 -0.0681
H69 H 0.2596 1.0951 -0.0499
O2 O 0.2359(14) 0.835(3) -0.0553(12)
H70F H 0.1978 0.6992 0.0145
H71F H 0.2925 0.8013 -0.0286
H70 H 0.3022 0.8008 -0.0145
H71 H 0.2075 0.6987 0.0286
C52F C 0.2540(14) 0.688(3) -0.0138(16)
C53F C 0.2538(13) 0.640(3) -0.0607(12)
H48F H 0.2781 0.6578 -0.0704
H49F H 0.2316 0.6654 -0.0823
C54F C 0.2505(12) 0.533(3) -0.0619(14)
H50F H 0.2273 0.5112 -0.0539
C55F C 0.2702(11) 0.476(3) -0.0705(12)
C56F C 0.2699(7) 0.377(2) -0.0592(10)
H51F H 0.2814 0.3406 -0.0802
H52F H 0.2428 0.3558 -0.0601
C57F C 0.2926(11) 0.369(3) -0.0163(13)
H53F H 0.3145 0.3296 -0.0203
H54F H 0.2762 0.3312 -0.0009
C58F C 0.3084(11) 0.424(3) 0.0127(14)
H55F H 0.3291 0.4641 0.0100
C59F C 0.2923(11) 0.419(3) 0.0470(15)
C60F C 0.2991(11) 0.497(3) 0.0708(13)
H56F H 0.2968 0.4859 0.1016
H57F H 0.3258 0.5194 0.0707
C61F C 0.2719(16) 0.559(3) 0.0518(16)
H58F H 0.2463 0.5278 0.0421
C62F C 0.2743(14) 0.643(3) 0.0187(13)
H59F H 0.3025 0.6599 0.0212
C63F C 0.2030(13) 0.675(4) -0.0132(19)
H60F H 0.1876 0.7091 -0.0378
H61F H 0.1959 0.6114 -0.0159
C64F C 0.2657(15) 0.799(4) -0.0233(16)
H62F H 0.2475 0.8217 -0.0491
H63F H 0.2639 0.8356 0.0024
C65F C 0.3033(8) 0.485(3) -0.0914(10)
H64F H 0.3144 0.4246 -0.0944
H65F H 0.3232 0.5231 -0.0734
H66F H 0.2949 0.5117 -0.1205
C66F C 0.2664(10) 0.388(3) 0.0664(15)
H67F H 0.2703 0.4133 0.0961
H68F H 0.2685 0.3221 0.0681
H69F H 0.2404 0.4049 0.0499
O2F O 0.2641(14) 0.665(3) 0.0553(12)
C67 C 0.0512(14) 1.465(3) 0.2160(15)
H72 H 0.0510 1.5114 0.1932
H73 H 0.0736 1.4768 0.2403
C68 C 0.0133(15) 1.472(4) 0.2335(18)
H74 H -0.0095 1.4723 0.2087
H75 H 0.0132 1.5283 0.2503
C69 C 0.0106(14) 1.390(5) 0.2632(16)
H76 H -0.0151 1.3916 0.2722
H77 H 0.0311 1.3959 0.2901
C70 C 0.0153(15) 1.298(4) 0.242(2)
H78 H 0.0153 1.2499 0.2638
H79 H -0.0076 1.2880 0.2177
C71 C 0.0524(13) 1.290(3) 0.2231(19)
H80 H 0.0754 1.2833 0.2474
H81 H 0.0509 1.2351 0.2043
C72 C 0.0566(13) 1.373(4) 0.1965(14)
H82 H 0.0375 1.3679 0.1684
H83 H 0.0830 1.3715 0.1895
C67A C -0.0512(14) 1.465(3) 0.2840(15)
H72A H -0.0510 1.5114 0.3068
H73A H -0.0736 1.4768 0.2597
C68A C -0.0133(15) 1.472(4) 0.2665(18)
H74A H 0.0095 1.4723 0.2913
H75A H -0.0132 1.5283 0.2497
C69A C -0.0106(14) 1.390(5) 0.2368(16)
H76A H 0.0151 1.3916 0.2278
H77A H -0.0311 1.3959 0.2099
C70A C -0.0153(15) 1.298(4) 0.258(2)
H78A H -0.0153 1.2499 0.2362
H79A H 0.0076 1.2880 0.2823
C71A C -0.0524(13) 1.290(3) 0.2769(19)
H80A H -0.0754 1.2833 0.2526
H81A H -0.0509 1.2351 0.2957
C72A C -0.0566(13) 1.373(4) 0.3035(14)
H82A H -0.0375 1.3679 0.3316
H83A H -0.0830 1.3715 0.3105
C73 C -0.0120(14) 0.840(3) 0.241(3)
H84 H -0.0093 0.8871 0.2637
H85 H -0.0154 0.8688 0.2115
C74 C 0.0236(12) 0.775(3) 0.249(3)
H86 H 0.0314 0.7602 0.2806
H87 H 0.0461 0.8027 0.2391
C75 C 0.0099(14) 0.687(4) 0.2215(18)
H88 H -0.0100 0.7017 0.1950
H89 H 0.0324 0.6571 0.2123
C76 C -0.0076(13) 0.625(3) 0.253(3)
H90 H 0.0131 0.5970 0.2751
H91 H -0.0243 0.5776 0.2364
C77 C -0.0323(13) 0.694(4) 0.2741(19)
H92 H -0.0552 0.6622 0.2812
H93 H -0.0162 0.7165 0.3019
C78 C -0.0465(11) 0.775(3) 0.243(3)
H94 H -0.0580 0.7526 0.2134
H95 H -0.0671 0.8086 0.2544
C73A C 0.0120(14) 0.840(3) 0.259(3)
H84A H 0.0093 0.8871 0.2363
H85A H 0.0154 0.8688 0.2885
C74A C -0.0236(12) 0.775(3) 0.251(3)
H86A H -0.0314 0.7602 0.2194
H87A H -0.0461 0.8027 0.2609
C75A C -0.0099(14) 0.687(4) 0.2785(18)
H88A H 0.0100 0.7017 0.3050
H89A H -0.0324 0.6571 0.2877
C76A C 0.0076(13) 0.625(3) 0.247(3)
H90A H -0.0131 0.5970 0.2249
H91A H 0.0243 0.5776 0.2636
C77A C 0.0323(13) 0.694(4) 0.2259(19)
H92A H 0.0552 0.6622 0.2188
H93A H 0.0162 0.7165 0.1981
C78A C 0.0465(11) 0.775(3) 0.257(3)
H94A H 0.0580 0.7526 0.2866
H95A H 0.0671 0.8086 0.2456
Zn4? Zn 0.1762(3) 1.3602(6) -0.2238(4)
I7? I 0.2395(3) 1.2788(4) -0.1957(4)
I8? I 0.1322(3) 1.3330(4) -0.2997(3)
Zn5? Zn 0.0874(4) 0.8834(6) 0.0895(4)
I9? I 0.0264(2) 0.8466(4) 0.1212(4)
I10? I 0.1245(3) 0.7702(5) 0.0524(3)
I11? I 0.3858(2) 0.7561(3) 0.4065(3)
I12? I 0.34952(13) 0.8913(3) 0.50789(15)
C79? C -0.068(5) 1.185(11) 0.136(3)
H96? H -0.0736 1.1766 0.1660
H97? H -0.0859 1.1441 0.1161
C80? C -0.078(2) 1.284(11) 0.122(5)
H98? H -0.1069 1.2930 0.1179
H99? H -0.0651 1.3252 0.1449
C81? C -0.065(5) 1.306(7) 0.078(4)
H100? H -0.0707 1.3701 0.0710
H101? H -0.0805 1.2685 0.0543
C82? C -0.021(4) 1.286(11) 0.084(4)
H102? H -0.0121 1.3036 0.0567
H103? H -0.0062 1.3201 0.1088
C83? C -0.015(3) 1.183(11) 0.092(5)
H104? H -0.0325 1.1490 0.0680
H105? H 0.0120 1.1665 0.0918
C84? C -0.026(5) 1.159(6) 0.136(4)
H106? H -0.0220 1.0938 0.1420
H107? H -0.0081 1.1924 0.1601
C85? C 0.2679(14) 1.164(6) 0.066(2)
H108? H 0.2603 1.1416 0.0352
H109? H 0.2967 1.1721 0.0724
C86? C 0.257(3) 1.093(5) 0.097(2)
H110? H 0.2614 1.1178 0.1275
H111? H 0.2725 1.0382 0.0971
C87? C 0.212(3) 1.070(5) 0.082(3)
H112? H 0.2089 1.0058 0.0729
H113? H 0.1981 1.0803 0.1063
C88? C 0.1969(19) 1.134(6) 0.043(2)
H114? H 0.1689 1.1226 0.0309
H115? H 0.2117 1.1244 0.0191
C89? C 0.203(2) 1.232(5) 0.062(3)
H116? H 0.1886 1.2759 0.0404
H117? H 0.1937 1.2370 0.0894
C90? C 0.248(3) 1.255(4) 0.070(3)
H118? H 0.2535 1.2986 0.0481
H119? H 0.2567 1.2805 0.0998
loop_
_geom_bond_atom_site_label_1
_geom_bond_atom_site_label_2
_geom_bond_site_symmetry_1
_geom_bond_site_symmetry_2
Zn1 I5 1_555 1_555
Zn2 I1 1_555 1_555
I2 Zn2 1_555 1_555
Zn3 I3 1_555 1_555
I4 Zn3 1_555 1_555
I6 Zn1 1_555 1_555
N1 Zn2 1_555 1_555
C1 N1 1_555 1_555
H1 C1 1_555 1_555
C2 C1 1_555 1_555
H2 C2 1_555 1_555
C3 C2 1_555 1_555
C4 C3 1_555 1_555
H3 C4 1_555 1_555
C5 N1 1_555 1_555
H4 C5 1_555 1_555
N2 Zn3 1_555 1_555
C6 N2 1_555 1_555
H5 C6 1_555 1_555
C7 C6 1_555 1_555
H6 C7 1_555 1_555
C8 C7 1_555 1_555
C9 C8 1_555 1_555
H7 C9 1_555 1_555
C10 N2 1_555 1_555
H8 C10 1_555 1_555
N3 C11 1_555 1_555
C11 H9 1_555 1_555
C12 C11 1_555 1_555
H10 C12 1_555 1_555
C13 C12 1_555 1_555
C14 C13 1_555 1_555
H11 C14 1_555 1_555
C15 N3 1_555 1_555
H12 C15 1_555 1_555
C16 C3 1_555 1_555
N4 C16 1_555 1_555
C17 C8 1_555 1_555
N5 C17 1_555 1_555
C18 C13 1_555 1_555
N6 C16 1_555 1_555
N7 Zn3 1_555 1_555
C19 N7 1_555 1_555
H13 C19 1_555 1_555
C20 C19 1_555 1_555
H14 C20 1_555 1_555
C21 C20 1_555 1_555
C22 C21 1_555 1_555
H15 C22 1_555 1_555
C23 N7 1_555 1_555
H16 C23 1_555 1_555
N8 Zn1 1_555 1_555
C24 N8 1_555 1_555
H17 C24 1_555 1_555
C25 C24 1_555 1_555
H18 C25 1_555 1_555
C26 C25 1_555 1_555
C27 C26 1_555 1_555
H19 C27 1_555 1_555
C28 N8 1_555 1_555
H20 C28 1_555 1_555
N9 C29 1_555 1_555
C29 H21 1_555 1_555
C30 C29 1_555 1_555
H22 C30 1_555 1_555
C31 C30 1_555 1_555
C32 C31 1_555 1_555
H23 C32 1_555 1_555
C33 N9 1_555 1_555
H24 C33 1_555 1_555
C34 C21 1_555 1_555
N10 C34 1_555 1_555
C35 C26 1_555 1_555
N11 C35 1_555 1_555
C36 C31 1_555 1_555
N12 C34 1_555 1_555
C37 C38 1_555 1_555
C38 H25 1_555 1_555
H26 C38 1_555 1_555
C39 C38 1_555 1_555
H27 C39 1_555 1_555
C40 C39 1_555 1_555
C41 C40 1_555 1_555
H28 C41 1_555 1_555
H29 C41 1_555 1_555
C42 C41 1_555 1_555
H30 C42 1_555 1_555
H31 C42 1_555 1_555
C43 C42 1_555 1_555
H32 C43 1_555 1_555
C44 C43 1_555 1_555
C45 C44 1_555 1_555
H33 C45 1_555 1_555
C46 C45 1_555 1_555
H34 C46 1_555 1_555
C47 C37 1_555 1_555
H35 C47 1_555 1_555
C48 C37 1_555 1_555
H36 C48 1_555 1_555
H37 C48 1_555 1_555
H38 C48 1_555 1_555
C49 C37 1_555 1_555
H39 C49 1_555 1_555
H40 C49 1_555 1_555
H41 C49 1_555 1_555
C50 C40 1_555 1_555
H42 C50 1_555 1_555
H43 C50 1_555 1_555
H44 C50 1_555 1_555
C51 C44 1_555 1_555
H45 C51 1_555 1_555
H46 C51 1_555 1_555
H47 C51 1_555 1_555
O1 C46 1_555 1_555
C52 C53 1_555 1_555
C53 H48 1_555 1_555
H49 C53 1_555 1_555
C54 C53 1_555 1_555
H50 C54 1_555 1_555
C55 C54 1_555 1_555
C56 C55 1_555 1_555
H51 C56 1_555 1_555
H52 C56 1_555 1_555
C57 C56 1_555 1_555
H53 C57 1_555 1_555
H54 C57 1_555 1_555
C58 C57 1_555 1_555
H55 C58 1_555 1_555
C59 C58 1_555 1_555
C60 C59 1_555 1_555
H56 C60 1_555 1_555
H57 C60 1_555 1_555
C61 C60 1_555 1_555
H58 C61 1_555 1_555
C62 C52 1_555 1_555
H59 C62 1_555 1_555
C63 C52 1_555 1_555
H60 C63 1_555 1_555
H61 C63 1_555 1_555
C64 C52 1_555 1_555
H62 C64 1_555 1_555
H63 C64 1_555 1_555
C65 C55 1_555 1_555
H64 C65 1_555 1_555
H65 C65 1_555 1_555
H66 C65 1_555 1_555
C66 C59 1_555 1_555
H67 C66 1_555 1_555
H68 C66 1_555 1_555
H69 C66 1_555 1_555
O2 C61 1_555 1_555
H70 C64F 1_555 1_555
H71 C63F 1_555 1_555
C67 H72 1_555 1_555
H73 C67 1_555 1_555
C68 C67 1_555 1_555
H74 C68 1_555 1_555
H75 C68 1_555 1_555
C69 C68 1_555 1_555
H76 C69 1_555 1_555
H77 C69 1_555 1_555
C70 C69 1_555 1_555
H78 C70 1_555 1_555
H79 C70 1_555 1_555
C71 C70 1_555 1_555
H80 C71 1_555 1_555
H81 C71 1_555 1_555
C72 C67 1_555 1_555
H82 C72 1_555 1_555
H83 C72 1_555 1_555
C73 H84 1_555 1_555
H85 C73 1_555 1_555
C74 C73 1_555 1_555
H86 C74 1_555 1_555
H87 C74 1_555 1_555
C75 C74 1_555 1_555
H88 C75 1_555 1_555
H89 C75 1_555 1_555
C76 C75 1_555 1_555
H90 C76 1_555 1_555
H91 C76 1_555 1_555
C77 C76 1_555 1_555
H92 C77 1_555 1_555
H93 C77 1_555 1_555
C78 C73 1_555 1_555
H94 C78 1_555 1_555
H95 C78 1_555 1_555
Zn1G N3 1_555 1_555
Zn2E N9 1_555 1_555
N3G Zn1 1_555 1_555
N9E Zn2 1_555 1_555
H70F C64 1_555 1_555
H71F C63 1_555 1_555
C52F C53F 1_555 1_555
C53F H48F 1_555 1_555
H49F C53F 1_555 1_555
C54F C53F 1_555 1_555
H50F C54F 1_555 1_555
C55F C54F 1_555 1_555
C56F C55F 1_555 1_555
H51F C56F 1_555 1_555
H52F C56F 1_555 1_555
C57F C56F 1_555 1_555
H53F C57F 1_555 1_555
H54F C57F 1_555 1_555
C58F C57F 1_555 1_555
H55F C58F 1_555 1_555
C59F C58F 1_555 1_555
C60F C59F 1_555 1_555
H56F C60F 1_555 1_555
H57F C60F 1_555 1_555
C61F C60F 1_555 1_555
H58F C61F 1_555 1_555
C62F C52F 1_555 1_555
H59F C62F 1_555 1_555
C63F C52F 1_555 1_555
H60F C63F 1_555 1_555
H61F C63F 1_555 1_555
C64F C52F 1_555 1_555
H62F C64F 1_555 1_555
H63F C64F 1_555 1_555
C65F C55F 1_555 1_555
H64F C65F 1_555 1_555
H65F C65F 1_555 1_555
H66F C65F 1_555 1_555
C66F C59F 1_555 1_555
H67F C66F 1_555 1_555
H68F C66F 1_555 1_555
H69F C66F 1_555 1_555
O2F C61F 1_555 1_555
C67A H72A 1_555 1_555
H73A C67A 1_555 1_555
C68A C67A 1_555 1_555
H74A C68A 1_555 1_555
H75A C68A 1_555 1_555
C69A C68A 1_555 1_555
H76A C69A 1_555 1_555
H77A C69A 1_555 1_555
C70A C69A 1_555 1_555
H78A C70A 1_555 1_555
H79A C70A 1_555 1_555
C71A C70A 1_555 1_555
H80A C71A 1_555 1_555
H81A C71A 1_555 1_555
C72A C67A 1_555 1_555
H82A C72A 1_555 1_555
H83A C72A 1_555 1_555
C73A H84A 1_555 1_555
H85A C73A 1_555 1_555
C74A C73A 1_555 1_555
H86A C74A 1_555 1_555
H87A C74A 1_555 1_555
C75A C74A 1_555 1_555
H88A C75A 1_555 1_555
H89A C75A 1_555 1_555
C76A C75A 1_555 1_555
H90A C76A 1_555 1_555
H91A C76A 1_555 1_555
C77A C76A 1_555 1_555
H92A C77A 1_555 1_555
H93A C77A 1_555 1_555
C78A C73A 1_555 1_555
H94A C78A 1_555 1_555
H95A C78A 1_555 1_555
C4 C5 1_555 1_555
C9 C10 1_555 1_555
C14 C15 1_555 1_555
N4 C17 1_555 1_555
N5 C18 1_555 1_555
C18 N6 1_555 1_555
C22 C23 1_555 1_555
C27 C28 1_555 1_555
C32 C33 1_555 1_555
N10 C35 1_555 1_555
N11 C36 1_555 1_555
C36 N12 1_555 1_555
C46 C47 1_555 1_555
C47 O1 1_555 1_555
C61 C62 1_555 1_555
C62 O2 1_555 1_555
C71 C72 1_555 1_555
C77 C78 1_555 1_555
C61F C62F 1_555 1_555
C62F O2F 1_555 1_555
C71A C72A 1_555 1_555
C77A C78A 1_555 1_555

#END
