
#######################################################################
#
#                 Cambridge Crystallographic Data Centre
#                                CCDC 
#
#######################################################################
#
# If this CIF has been generated from an entry in the Cambridge 
# Structural Database, then it will include bibliographic, chemical, 
# crystal, experimental, refinement or atomic coordinate data resulting 
# from the CCDC's data processing and validation procedures.
#
#######################################################################

data_VUHXAX
_symmetry_cell_setting           monoclinic
_symmetry_space_group_name_H-M   'P 21/c'
_symmetry_Int_Tables_number      14
_space_group_name_Hall           '-P 2ybc'
loop_
_symmetry_equiv_pos_site_id
_symmetry_equiv_pos_as_xyz
1 x,y,z
2 -x,1/2+y,1/2-z
3 -x,-y,-z
4 x,1/2-y,1/2+z
_cell_length_a                   16.004(4)
_cell_length_b                   10.020(3)
_cell_length_c                   8.831(5)
_cell_angle_alpha                90
_cell_angle_beta                 99.56(3)
_cell_angle_gamma                90
_cell_volume                     1396.47
loop_
_atom_site_label
_atom_site_type_symbol
_atom_site_fract_x
_atom_site_fract_y
_atom_site_fract_z
Cl1 Cl 0.24099(6) 1.1411(1) 0.4500(1)
O1 O 0.2310(2) 1.1267(4) 0.2874(3)
O2 O 0.2915(2) 1.2584(3) 0.4929(4)
O3 O 0.1600(2) 1.1580(3) 0.4916(3)
O4 O 0.2837(2) 1.0294(3) 0.5218(4)
N1 N 0.3759(2) 0.9689(3) 0.1277(3)
C1 C 0.4061(2) 0.8763(4) 0.0402(4)
C2 C 0.3463(3) 0.8225(4) -0.0939(5)
C3 C 0.4892(3) 0.8313(4) 0.0737(4)
C4 C 0.5428(2) 0.8815(4) 0.1983(5)
C5 C 0.5119(2) 0.9750(4) 0.2883(4)
C6 C 0.4294(2) 1.0160(4) 0.2486(4)
N2 N 0.1558(2) 0.9774(3) -0.0380(3)
C7 C 0.1185(2) 0.8744(4) 0.0223(4)
C8 C 0.1668(3) 0.8132(5) 0.1649(5)
C9 C 0.0397(3) 0.8282(4) -0.0445(5)
C10 C -0.0018(3) 0.8847(5) -0.1764(5)
C11 C 0.0374(3) 0.9866(5) -0.2417(5)
C12 C 0.1155(3) 1.0300(4) -0.1684(4)
Li1 Li 0.2606(4) 1.0694(7) 0.0867(7)
H1 H 0.3730 0.7822 -0.1640
H2 H 0.3110 0.8916 -0.1451
H3 H 0.3090 0.7565 -0.1601
H4 H 0.5094 0.7634 0.0110
H5 H 0.6014 0.8523 0.2198
H6 H 0.5481 1.0104 0.3786
H7 H 0.4088 1.0840 0.3129
H8 H 0.2221 0.8620 0.2047
H9 H 0.1813 0.7214 0.1491
H10 H 0.1341 0.8136 0.2480
H11 H 0.0130 0.7527 0.0008
H12 H -0.0562 0.8540 -0.2215
H13 H 0.0112 1.0266 -0.3360
H14 H 0.1411 1.1047 -0.2189
Li1C Li 0.2606(4) 1.4306(7) 0.5867(7)
O2C O 0.2915(2) 1.2416(3) -0.0071(4)
O1C O 0.2310(2) 1.3733(4) 0.7874(3)
N1C N 0.3759(2) 1.5311(3) 0.6277(3)
N2C N 0.1558(2) 1.5226(3) 0.4620(3)
Cl1C Cl 0.24099(6) 1.3589(1) -0.0500(1)
Cl1C_2 Cl 0.24099(6) 1.3589(1) 0.9500(1)
C1C C 0.4061(2) 1.6237(4) 0.5402(4)
C6C C 0.4294(2) 1.4840(4) 0.7486(4)
C7C C 0.1185(2) 1.6256(4) 0.5223(4)
C12C C 0.1155(3) 1.4700(4) 0.3316(4)
O1C_2 O 0.2310(2) 1.3733(4) -0.2126(3)
O3C O 0.1600(2) 1.3420(3) -0.0084(3)
O4C O 0.2837(2) 1.4706(3) 0.0218(4)
C2C C 0.3463(3) 1.6775(4) 0.4061(5)
C3C C 0.4892(3) 1.6687(4) 0.5737(4)
C5C C 0.5119(2) 1.5250(4) 0.7883(4)
H7C H 0.4088 1.4160 0.8129
C8C C 0.1668(3) 1.6868(5) 0.6649(5)
C9C C 0.0397(3) 1.6718(4) 0.4555(5)
C11C C 0.0374(3) 1.5134(5) 0.2583(5)
H14C H 0.1411 1.3953 0.2811
H1C H 0.3730 1.7178 0.3360
H2C H 0.3110 1.6084 0.3549
H3C H 0.3090 1.7435 0.3399
C4C C 0.5428(2) 1.6185(4) 0.6983(5)
H4C H 0.5094 1.7366 0.5110
H6C H 0.5481 1.4896 0.8786
H8C H 0.2221 1.6380 0.7047
H9C H 0.1813 1.7786 0.6491
H10C H 0.1341 1.6864 0.7480
C10C C -0.0018(3) 1.6153(5) 0.3236(5)
H11C H 0.0130 1.7473 0.5008
H13C H 0.0112 1.4734 0.1640
H5C H 0.6014 1.6477 0.7198
H12C H -0.0562 1.6460 0.2785
loop_
_geom_bond_atom_site_label_1
_geom_bond_atom_site_label_2
_geom_bond_site_symmetry_1
_geom_bond_site_symmetry_2
Cl1 O1 1_555 1_555
O1 Li1 1_555 1_555
O2 Cl1 1_555 1_555
O3 Cl1 1_555 1_555
O4 Cl1 1_555 1_555
N1 C1 1_555 1_555
C1 C2 1_555 1_555
C2 H1 1_555 1_555
C3 C1 1_555 1_555
C4 C3 1_555 1_555
C5 C4 1_555 1_555
C6 N1 1_555 1_555
N2 C7 1_555 1_555
C7 C8 1_555 1_555
C8 H8 1_555 1_555
C9 C7 1_555 1_555
C10 C9 1_555 1_555
C11 C10 1_555 1_555
C12 N2 1_555 1_555
Li1 N1 1_555 1_555
H2 C2 1_555 1_555
H3 C2 1_555 1_555
H4 C3 1_555 1_555
H5 C4 1_555 1_555
H6 C5 1_555 1_555
H7 C6 1_555 1_555
H9 C8 1_555 1_555
H10 C8 1_555 1_555
H11 C9 1_555 1_555
H12 C10 1_555 1_555
H13 C11 1_555 1_555
H14 C12 1_555 1_555
Li1C O2 1_555 1_555
O2C Li1 1_555 1_555
O1C Li1C 1_555 1_555
N1C Li1C 1_555 1_555
N2C Li1C 1_555 1_555
Cl1C O2C 1_555 1_555
Cl1C_2 O1C 1_555 1_555
C1C N1C 1_555 1_555
C6C N1C 1_555 1_555
C7C N2C 1_555 1_555
C12C N2C 1_555 1_555
O1C_2 Cl1C 1_555 1_555
O3C Cl1C 1_555 1_555
O4C Cl1C 1_555 1_555
C2C C1C 1_555 1_555
C3C C1C 1_555 1_555
C5C C6C 1_555 1_555
H7C C6C 1_555 1_555
C8C C7C 1_555 1_555
C9C C7C 1_555 1_555
C11C C12C 1_555 1_555
H14C C12C 1_555 1_555
H1C C2C 1_555 1_555
H2C C2C 1_555 1_555
H3C C2C 1_555 1_555
C4C C3C 1_555 1_555
H4C C3C 1_555 1_555
H6C C5C 1_555 1_555
H8C C8C 1_555 1_555
H9C C8C 1_555 1_555
H10C C8C 1_555 1_555
C10C C9C 1_555 1_555
H11C C9C 1_555 1_555
H13C C11C 1_555 1_555
H5C C4C 1_555 1_555
H12C C10C 1_555 1_555
C5 C6 1_555 1_555
N2 Li1 1_555 1_555
C11 C12 1_555 1_555
C5C C4C 1_555 1_555
C11C C10C 1_555 1_555

#END
