
#######################################################################
#
#                 Cambridge Crystallographic Data Centre
#                                CCDC 
#
#######################################################################
#
# If this CIF has been generated from an entry in the Cambridge 
# Structural Database, then it will include bibliographic, chemical, 
# crystal, experimental, refinement or atomic coordinate data resulting 
# from the CCDC's data processing and validation procedures.
#
#######################################################################

data_VUJPOF
_symmetry_cell_setting           monoclinic
_symmetry_space_group_name_H-M   'C 2/c'
_symmetry_Int_Tables_number      15
_space_group_name_Hall           '-C 2yn'
loop_
_symmetry_equiv_pos_site_id
_symmetry_equiv_pos_as_xyz
1 x,y,z
2 1/2+x,1/2+y,z
3 -x,y,1/2-z
4 1/2-x,1/2+y,1/2-z
5 -x,-y,-z
6 1/2-x,1/2-y,-z
7 x,-y,1/2+z
8 1/2+x,1/2-y,1/2+z
_cell_length_a                   18.411(9)
_cell_length_b                   12.769(6)
_cell_length_c                   8.323(5)
_cell_angle_alpha                90
_cell_angle_beta                 100.72(6)
_cell_angle_gamma                90
_cell_volume                     1922.51
loop_
_atom_site_label
_atom_site_type_symbol
_atom_site_fract_x
_atom_site_fract_y
_atom_site_fract_z
Sr1 Sr 0.0000 0.0341(1) 0.2500
P1 P 0.0824(1) 0.1962(2) -0.0230(3)
P2 P 0.1926(1) 0.0697(2) 0.2228(3)
C1 C 0.1419(4) 0.1929(6) 0.1798(10)
C2 C 0.1919(4) 0.2870(7) 0.2058(10)
O1 O 0.0893(3) 0.1922(4) 0.2880(7)
O2 O 0.0274(3) 0.1092(3) -0.0332(6)
O3 O 0.0448(3) 0.3047(4) -0.0383(7)
O4 O 0.1317(3) 0.1936(4) -0.1557(6)
O5 O 0.2413(3) 0.0548(4) 0.0987(7)
O6 O 0.1358(3) -0.0120(4) 0.2298(7)
O7 O 0.2403(3) 0.0884(4) 0.3941(6)
H1 H 0.221 0.292 0.305
H2 H 0.160 0.355 0.187
H3 H 0.224 0.285 0.142
H8 H 0.098 0.246 0.375
H9 H 0.074 0.363 -0.081
H10 H 0.137 0.106 -0.217
H11 H 0.240 0.034 0.498
P1B P -0.0824(1) 0.1962(2) 0.5230(3)
P2B P -0.1926(1) 0.0697(2) 0.2772(3)
C1B C -0.1419(4) 0.1929(6) 0.3202(10)
C2B C -0.1919(4) 0.2870(7) 0.2942(10)
O1B O -0.0893(3) 0.1922(4) 0.2120(7)
O2B O -0.0274(3) 0.1092(3) 0.5332(6)
O3B O -0.0448(3) 0.3047(4) 0.5383(7)
O4B O -0.1317(3) 0.1936(4) 0.6557(6)
O5B O -0.2413(3) 0.0548(4) 0.4013(7)
O6B O -0.1358(3) -0.0120(4) 0.2702(7)
O7B O -0.2403(3) 0.0884(4) 0.1059(6)
H1B H -0.221 0.292 0.195
H2B H -0.160 0.355 0.313
H3B H -0.224 0.285 0.358
H8B H -0.098 0.246 0.125
H9B H -0.074 0.363 0.581
H10B H -0.137 0.106 0.717
H11B H -0.240 0.034 0.002
O2D O -0.0274(3) -0.1092(3) 0.0332(6)
O2F O 0.0274(3) -0.1092(3) 0.4668(6)
Sr1D Sr 0.0000 -0.0341(1) -0.2500
Sr1D_2 Sr 0.0000 -0.0341(1) 0.7500
O8 O 0.1081(3) 0.5491(5) 0.3464(10)
H4 H 0.104 0.472 0.390
H5 H 0.156 0.576 0.402
O9 O 0.1043(4) 0.3489(6) 0.5058(10)
H6 H 0.129 0.288 0.545
H7 H 0.058 0.351 0.541
loop_
_geom_bond_atom_site_label_1
_geom_bond_atom_site_label_2
_geom_bond_site_symmetry_1
_geom_bond_site_symmetry_2
Sr1 O1 1_555 1_555
P1 C1 1_555 1_555
P2 C1 1_555 1_555
C1 C2 1_555 1_555
C2 H1 1_555 1_555
O1 C1 1_555 1_555
O2 Sr1 1_555 1_555
O3 P1 1_555 1_555
O4 P1 1_555 1_555
O5 P2 1_555 1_555
O6 Sr1 1_555 1_555
O7 P2 1_555 1_555
O8 H4 1_555 1_555
O9 H6 1_555 1_555
H2 C2 1_555 1_555
H3 C2 1_555 1_555
H5 O8 1_555 1_555
H7 O9 1_555 1_555
H8 O1 1_555 1_555
H9 O3 1_555 1_555
H10 O4 1_555 1_555
H11 O7 1_555 1_555
P1B C1B 1_555 1_555
P2B C1B 1_555 1_555
C1B C2B 1_555 1_555
C2B H1B 1_555 1_555
O1B Sr1 1_555 1_555
O2B Sr1 1_555 1_555
O3B P1B 1_555 1_555
O4B P1B 1_555 1_555
O5B P2B 1_555 1_555
O6B Sr1 1_555 1_555
O7B P2B 1_555 1_555
H2B C2B 1_555 1_555
H3B C2B 1_555 1_555
H8B O1B 1_555 1_555
H9B O3B 1_555 1_555
H10B O4B 1_555 1_555
H11B O7B 1_555 1_555
O2D Sr1 1_555 1_555
O2F Sr1 1_555 1_555
Sr1D O2 1_555 1_555
Sr1D_2 O2B 1_555 1_555
P1 O2 1_555 1_555
P2 O6 1_555 1_555
P1B O2B 1_555 1_555
P2B O6B 1_555 1_555
C1B O1B 1_555 1_555
O2D Sr1D 1_555 1_555
O2F Sr1D_2 1_555 1_555

#END
