
#######################################################################
#
#                 Cambridge Crystallographic Data Centre
#                                CCDC 
#
#######################################################################
#
# If this CIF has been generated from an entry in the Cambridge 
# Structural Database, then it will include bibliographic, chemical, 
# crystal, experimental, refinement or atomic coordinate data resulting 
# from the CCDC's data processing and validation procedures.
#
#######################################################################

data_VUJWAZ
_symmetry_cell_setting           monoclinic
_symmetry_space_group_name_H-M   'P 21/c'
_symmetry_Int_Tables_number      14
_space_group_name_Hall           '-P 2ybc'
loop_
_symmetry_equiv_pos_site_id
_symmetry_equiv_pos_as_xyz
1 x,y,z
2 -x,1/2+y,1/2-z
3 -x,-y,-z
4 x,1/2-y,1/2+z
_cell_length_a                   9.9398(8)
_cell_length_b                   16.8130(13)
_cell_length_c                   14.9567(12)
_cell_angle_alpha                90
_cell_angle_beta                 95.1460(10)
_cell_angle_gamma                90
_cell_volume                     2489.46
loop_
_atom_site_label
_atom_site_type_symbol
_atom_site_fract_x
_atom_site_fract_y
_atom_site_fract_z
Co1 Co 0.48842(3) 0.00825(2) 0.24283(2)
N1 N 0.6975(2) -0.01201(13) 0.28449(15)
C1 C 0.7493(3) -0.08467(16) 0.27516(19)
H1 H 0.6952 -0.1240 0.2468
C2 C 0.8804(3) -0.10315(16) 0.30619(19)
H2 H 0.9137 -0.1542 0.2986
C3 C 0.9619(3) -0.04557(17) 0.3486(2)
H3 H 1.0500 -0.0574 0.3707
C4 C 0.9097(3) 0.03038(16) 0.35773(18)
C5 C 0.7767(3) 0.04424(16) 0.32468(18)
H4 H 0.7411 0.0949 0.3308
N2 N 0.9815(2) 0.09588(14) 0.39765(15)
H5 H 0.9359 0.1385 0.4045
C6 C 1.1147(3) 0.09840(16) 0.42616(18)
O1 O 1.18938(19) 0.03954(11) 0.42581(14)
C7 C 1.1714(3) 0.17621(16) 0.45954(18)
C8 C 1.2892(3) 0.17334(17) 0.51786(18)
H6 H 1.319(3) 0.1214(19) 0.540(2)
C9 C 1.3507(3) 0.24332(17) 0.5484(2)
H7 H 1.4276 0.2414 0.5886
C10 C 1.2983(3) 0.31581(17) 0.51963(18)
H8 H 1.3417 0.3626 0.5389
C11 C 1.1800(3) 0.31905(16) 0.46137(18)
C12 C 1.1170(3) 0.24930(15) 0.43117(19)
H9 H 1.0388 0.2513 0.3922
C13 C 1.1308(3) 0.39995(16) 0.43189(18)
O2 O 1.20973(19) 0.45626(12) 0.43282(14)
N3 N 0.9975(2) 0.40684(14) 0.40495(16)
H10 H 0.9485 0.3654 0.4112
C14 C 0.9306(3) 0.47476(16) 0.36773(18)
C15 C 0.9914(3) 0.54867(17) 0.35943(19)
H11 H 1.084(3) 0.5571(19) 0.382(2)
C16 C 0.9142(3) 0.60955(16) 0.31888(19)
H12 H 0.9520 0.6595 0.3117
C17 C 0.7807(3) 0.59565(16) 0.28913(19)
H13 H 0.7302 0.6371 0.2620
N4 N 0.7212(2) 0.52514(13) 0.29770(15)
C18 C 0.7955(3) 0.46601(16) 0.33614(18)
H14 H 0.7548 0.4167 0.3420
O3 O 0.5222(2) -0.04035(13) 0.11707(14)
H15 H 0.4804 -0.0823 0.1098
O4 O 0.4490(2) -0.10381(11) 0.29394(14)
H16 H 0.4548 -0.1374 0.2548
O5 O 0.5304(2) 0.12053(11) 0.19753(14)
H17 H 0.5359 0.1517 0.2399
O6 O 0.4562(2) 0.05647(12) 0.37012(14)
H18 H 0.5030 0.0963 0.3793
H25 H 0.594(4) 0.125(2) 0.165(2)
H26 H 0.387(4) 0.055(2) 0.387(3)
H27 H 0.405(4) -0.107(2) 0.335(3)
H28 H 0.592(4) -0.045(2) 0.103(3)
Co1A Co 0.51158(3) 0.50825(2) 0.25717(2)
N4A N 0.2788(2) 0.02514(13) 0.20230(15)
S1 S 0.35059(7) 0.75401(4) 0.11723(5)
O7 O 0.39083(19) 0.68217(11) 0.06965(13)
O8 O 0.4293(2) 0.75699(10) 0.20620(14)
O9 O 0.3784(2) 0.82596(11) 0.06630(13)
O10 O 0.2044(2) 0.74969(11) 0.12867(15)
O11 O 0.1307(2) 0.76979(14) 0.30468(16)
H23 H 0.182(5) 0.810(3) 0.350(3)
H24 H 0.172(5) 0.761(3) 0.249(4)
O12 O 0.7355(2) 0.14464(14) 0.10207(17)
H21 H 0.711(4) 0.147(3) 0.052(3)
H22 H 0.784(4) 0.192(3) 0.126(3)
O13 O 0.7270(2) 0.11913(14) 0.57956(15)
H19 H 0.756(5) 0.072(3) 0.564(3)
H20 H 0.695(4) 0.141(3) 0.535(3)
loop_
_geom_bond_atom_site_label_1
_geom_bond_atom_site_label_2
_geom_bond_site_symmetry_1
_geom_bond_site_symmetry_2
Co1 N1 1_555 1_555
N1 C1 1_555 1_555
C1 H1 1_555 1_555
C2 C1 1_555 1_555
H2 C2 1_555 1_555
C3 C2 1_555 1_555
H3 C3 1_555 1_555
C4 C3 1_555 1_555
C5 N1 1_555 1_555
H4 C5 1_555 1_555
N2 C4 1_555 1_555
H5 N2 1_555 1_555
C6 N2 1_555 1_555
O1 C6 1_555 1_555
C7 C6 1_555 1_555
C8 C7 1_555 1_555
H6 C8 1_555 1_555
C9 C8 1_555 1_555
H7 C9 1_555 1_555
C10 C9 1_555 1_555
H8 C10 1_555 1_555
C11 C10 1_555 1_555
C12 C7 1_555 1_555
H9 C12 1_555 1_555
C13 C11 1_555 1_555
O2 C13 1_555 1_555
N3 C13 1_555 1_555
H10 N3 1_555 1_555
C14 N3 1_555 1_555
C15 C14 1_555 1_555
H11 C15 1_555 1_555
C16 C15 1_555 1_555
H12 C16 1_555 1_555
C17 C16 1_555 1_555
H13 C17 1_555 1_555
N4 C17 1_555 1_555
C18 C14 1_555 1_555
H14 C18 1_555 1_555
O3 Co1 1_555 1_555
H15 O3 1_555 1_555
O4 Co1 1_555 1_555
H16 O4 1_555 1_555
O5 Co1 1_555 1_555
H17 O5 1_555 1_555
O6 Co1 1_555 1_555
H18 O6 1_555 1_555
S1 O7 1_555 1_555
O8 S1 1_555 1_555
O9 S1 1_555 1_555
O10 S1 1_555 1_555
O11 H23 1_555 1_555
O12 H21 1_555 1_555
O13 H19 1_555 1_555
H20 O13 1_555 1_555
H22 O12 1_555 1_555
H24 O11 1_555 1_555
H25 O5 1_555 1_555
H26 O6 1_555 1_555
H27 O4 1_555 1_555
H28 O3 1_555 1_555
Co1A N4 1_555 1_555
N4A Co1 1_555 1_555
C4 C5 1_555 1_555
C11 C12 1_555 1_555
N4 C18 1_555 1_555

#END
