
#######################################################################
#
#                 Cambridge Crystallographic Data Centre
#                                CCDC 
#
#######################################################################
#
# If this CIF has been generated from an entry in the Cambridge 
# Structural Database, then it will include bibliographic, chemical, 
# crystal, experimental, refinement or atomic coordinate data resulting 
# from the CCDC's data processing and validation procedures.
#
#######################################################################

data_VUKFIR
_symmetry_cell_setting           hexagonal
_symmetry_space_group_name_H-M   'P 65 2 2'
_symmetry_Int_Tables_number      179
_space_group_name_Hall           "P 65 2' (0,0,1)"
loop_
_symmetry_equiv_pos_site_id
_symmetry_equiv_pos_as_xyz
1 x,y,z
2 -x,-y,1/2+z
3 -y,-x,1/6-z
4 y,x,2/3-z
5 x-y,-y,-z
6 -x+y,y,1/2-z
7 x,x-y,5/6-z
8 -x,-x+y,1/3-z
9 -y,x-y,2/3+z
10 y,-x+y,1/6+z
11 x-y,x,5/6+z
12 -x+y,-x,1/3+z
_cell_length_a                   11.453(2)
_cell_length_b                   11.453(2)
_cell_length_c                   36.912(4)
_cell_angle_alpha                90
_cell_angle_beta                 90
_cell_angle_gamma                120
_cell_volume                     4193.11
loop_
_atom_site_label
_atom_site_type_symbol
_atom_site_fract_x
_atom_site_fract_y
_atom_site_fract_z
Ni1 Ni 0.06979(5) 0.0000 0.0000
N1 N -0.1183(3) 0.0000 0.0000
N2 N -0.7432(3) 0.0000 0.0000
O1 O -0.0139(3) -0.1691(3) 0.03206(7)
H3 H 0.0365 -0.1673 0.0493
H4 H -0.0373 -0.2386 0.0205
O2 O 0.1229(3) 0.1183(3) 0.04612(6)
H5 H 0.2021 0.1716 0.0527
H6 H 0.0609 0.1236 0.0559
C1 C -0.2334(4) -0.1061(4) 0.01192(10)
H13 H -0.2306 -0.1812 0.0204
C2 C -0.3561(4) -0.1094(4) 0.01227(10)
H14 H -0.4327 -0.1858 0.0208
C3 C -0.3658(4) 0.0000 0.0000
C4 C -0.7386(4) -0.1141(4) -0.00420(11)
H15 H -0.8195 -0.1945 -0.0072
C5 C -0.6193(4) -0.1183(4) -0.00428(10)
H16 H -0.6217 -0.2000 -0.0072
C6 C -0.4963(4) 0.0000 0.0000
Ni1_2 Ni -0.93021(5) 0.0000 0.0000
N2_2 N 0.2568(3) 0.0000 0.0000
O1D O 0.1552(4) 0.1691(3) -0.03206(7)
H3D H 0.2038 0.1673 -0.0493
H4D H 0.2013 0.2386 -0.0205
O2D O 0.0046(4) -0.1183(3) -0.04612(6)
H5D H 0.0305 -0.1716 -0.0527
H6D H -0.0627 -0.1236 -0.0559
C1D C -0.1273(6) 0.1061(4) -0.01192(10)
H13D H -0.0494 0.1812 -0.0204
C2D C -0.2467(6) 0.1094(4) -0.01227(10)
H14D H -0.2469 0.1858 -0.0208
C4D C -0.6245(6) 0.1141(4) 0.00420(11)
H15D H -0.6250 0.1945 0.0072
C5D C -0.5010(6) 0.1183(4) 0.00428(10)
H16D H -0.4217 0.2000 0.0072
N3 N 0.3574(3) 0.8275(4) 0.09500(9)
H1 H 0.3964 0.9101 0.1020
O3 O 0.1662(2) 0.8338(2) 0.0833
O4 O 0.5496(3) 0.8268(4) 0.10971(12)
C7 C 0.2288(3) 0.7712(3) 0.0833
C8 C 0.4317(5) 0.7616(5) 0.09660(13)
C9 C 0.3694(3) 0.6306(3) 0.0833
H17 H 0.4163 0.5838 0.0833
N3B N 0.1725(4) 0.6426(3) 0.07167(9)
H1B H 0.0899 0.6036 0.0647
O4B O 0.1732(4) 0.4504(3) 0.05696(12)
C8B C 0.2384(5) 0.5683(5) 0.07007(13)
N4 N 0.7065(3) 0.1046(3) 0.09379(9)
H2 H 0.6668 0.0217 0.1006
O5 O 0.90033(18) 0.09967(18) 0.0833
O6 O 0.5112(4) 0.1073(4) 0.10459(14)
C10 C 0.8380(3) 0.1620(3) 0.0833
C11 C 0.6307(5) 0.1703(5) 0.09424(15)
C12 C 0.6963(4) 0.3037(4) 0.0833
H18 H 0.6493 0.3505 0.0833
N4B N 0.8954(3) 0.2935(3) 0.07288(9)
H2B H 0.9783 0.3332 0.0661
O6B O 0.8927(4) 0.4888(4) 0.06208(14)
C11B C 0.8297(5) 0.3693(5) 0.07243(15)
O7 O 0.3680(4) 0.2562(6) 0.08002(12)
H7 H 0.4028 0.2189 0.0864
H8 H 0.4197 0.3208 0.0665
O8 O 0.9186(7) 0.5978(5) -0.00422(15)
H9 H 0.9145 0.5710 0.0120
H10 H 0.8719 0.5862 -0.0178
O9 O 0.5812(8) 0.5114(9) 0.02498(18)
H11 H 0.4998 0.4772 0.0183
H12 H 0.6359 0.5628 0.0432
O10? O 0.7966(18) 0.5884(13) 0.0087(5)
loop_
_geom_bond_atom_site_label_1
_geom_bond_atom_site_label_2
_geom_bond_site_symmetry_1
_geom_bond_site_symmetry_2
Ni1 N1 1_555 1_555
N1 C1 1_555 1_555
N2 C4 1_555 1_555
N3 H1 1_555 1_555
N4 H2 1_555 1_555
O1 Ni1 1_555 1_555
H3 O1 1_555 1_555
H4 O1 1_555 1_555
O2 Ni1 1_555 1_555
H5 O2 1_555 1_555
H6 O2 1_555 1_555
O3 C7 1_555 1_555
O4 C8 1_555 1_555
O5 C10 1_555 1_555
O6 C11 1_555 1_555
O7 H7 1_555 1_555
H8 O7 1_555 1_555
O8 H9 1_555 1_555
H10 O8 1_555 1_555
O9 H11 1_555 1_555
H12 O9 1_555 1_555
C1 H13 1_555 1_555
C2 C1 1_555 1_555
H14 C2 1_555 1_555
C3 C2 1_555 1_555
C4 H15 1_555 1_555
C5 C4 1_555 1_555
H16 C5 1_555 1_555
C6 C3 1_555 1_555
C7 N3 1_555 1_555
C8 N3 1_555 1_555
C9 C8 1_555 1_555
H17 C9 1_555 1_555
C10 N4 1_555 1_555
C11 N4 1_555 1_555
C12 C11 1_555 1_555
H18 C12 1_555 1_555
Ni1_2 N2 1_555 1_555
N2_2 Ni1 1_555 1_555
N3B C7 1_555 1_555
H1B N3B 1_555 1_555
N4B C10 1_555 1_555
H2B N4B 1_555 1_555
O1D Ni1 1_555 1_555
H3D O1D 1_555 1_555
H4D O1D 1_555 1_555
O2D Ni1 1_555 1_555
H5D O2D 1_555 1_555
H6D O2D 1_555 1_555
O4B C8B 1_555 1_555
O6B C11B 1_555 1_555
C1D N1 1_555 1_555
H13D C1D 1_555 1_555
C2D C3 1_555 1_555
H14D C2D 1_555 1_555
C4D N2 1_555 1_555
H15D C4D 1_555 1_555
C5D C6 1_555 1_555
H16D C5D 1_555 1_555
C8B C9 1_555 1_555
C11B C12 1_555 1_555
C5 C6 1_555 1_555
N3B C8B 1_555 1_555
N4B C11B 1_555 1_555
C1D C2D 1_555 1_555
C4D C5D 1_555 1_555

#END
