
#######################################################################
#
#                 Cambridge Crystallographic Data Centre
#                                CCDC 
#
#######################################################################
#
# If this CIF has been generated from an entry in the Cambridge 
# Structural Database, then it will include bibliographic, chemical, 
# crystal, experimental, refinement or atomic coordinate data resulting 
# from the CCDC's data processing and validation procedures.
#
#######################################################################

data_VUKFOX
_symmetry_cell_setting           hexagonal
_symmetry_space_group_name_H-M   'P 65 2 2'
_symmetry_Int_Tables_number      179
_space_group_name_Hall           "P 65 2' (0,0,1)"
loop_
_symmetry_equiv_pos_site_id
_symmetry_equiv_pos_as_xyz
1 x,y,z
2 -x,-y,1/2+z
3 -y,-x,1/6-z
4 y,x,2/3-z
5 x-y,-y,-z
6 -x+y,y,1/2-z
7 x,x-y,5/6-z
8 -x,-x+y,1/3-z
9 -y,x-y,2/3+z
10 y,-x+y,1/6+z
11 x-y,x,5/6+z
12 -x+y,-x,1/3+z
_cell_length_a                   11.467(2)
_cell_length_b                   11.467(2)
_cell_length_c                   36.974(3)
_cell_angle_alpha                90
_cell_angle_beta                 90
_cell_angle_gamma                120
_cell_volume                     4210.43
loop_
_atom_site_label
_atom_site_type_symbol
_atom_site_fract_x
_atom_site_fract_y
_atom_site_fract_z
Cu1 Cu 0.07071(5) 0.0000 0.0000
N1 N -0.1174(4) 0.0000 0.0000
N2 N -0.7420(4) 0.0000 0.0000
O1 O -0.0133(3) -0.1697(3) 0.03203(7)
H3 H 0.0372 -0.1679 0.0493
H4 H -0.0366 -0.2391 0.0204
O2 O 0.1240(3) 0.1186(3) 0.04616(7)
H5 H 0.2032 0.1719 0.0527
H6 H 0.0620 0.1239 0.0559
C1 C -0.2327(4) -0.1065(4) 0.01185(12)
H13 H -0.2298 -0.1815 0.0202
C2 C -0.3555(4) -0.1100(4) 0.01223(12)
H14 H -0.4320 -0.1863 0.0207
C3 C -0.3649(4) 0.0000 0.0000
C4 C -0.6230(4) 0.1147(4) 0.00415(12)
H15 H -0.6235 0.1950 0.0071
C5 C -0.4991(4) 0.1189(4) 0.00426(11)
H16 H -0.4195 0.2003 0.0071
C6 C -0.4959(4) 0.0000 0.0000
Cu1_2 Cu -0.92929(5) 0.0000 0.0000
N2_2 N 0.2580(4) 0.0000 0.0000
O1D O 0.1564(4) 0.1697(3) -0.03203(7)
H3D H 0.2051 0.1679 -0.0493
H4D H 0.2025 0.2391 -0.0204
O2D O 0.0054(4) -0.1186(3) -0.04616(7)
H5D H 0.0313 -0.1719 -0.0527
H6D H -0.0619 -0.1239 -0.0559
C1D C -0.1262(6) 0.1065(4) -0.01185(12)
H13D H -0.0483 0.1815 -0.0202
C2D C -0.2455(6) 0.1100(4) -0.01223(12)
H14D H -0.2457 0.1863 -0.0207
C4D C -0.7377(6) -0.1147(4) -0.00415(12)
H15D H -0.8185 -0.1950 -0.0071
C5D C -0.6180(6) -0.1189(4) -0.00426(11)
H16D H -0.6198 -0.2003 -0.0071
N3 N 0.3580(4) 0.8275(4) 0.09502(10)
H1 H 0.3969 0.9101 0.1020
O3 O 0.1664(2) 0.8336(2) 0.0833
O4 O 0.5497(3) 0.8262(4) 0.10961(13)
C7 C 0.2292(3) 0.7708(3) 0.0833
C8 C 0.4324(5) 0.7613(5) 0.09659(15)
C9 C 0.3696(3) 0.6304(3) 0.0833
H17 H 0.4164 0.5836 0.0833
N3B N 0.1725(4) 0.6420(4) 0.07165(10)
H1B H 0.0899 0.6031 0.0647
O4B O 0.1738(4) 0.4503(3) 0.05706(13)
C8B C 0.2387(5) 0.5676(5) 0.07008(15)
N4 N 0.7067(4) 0.1041(3) 0.09369(10)
H2 H 0.6667 0.0212 0.1004
O5 O 0.90066(18) 0.09934(18) 0.0833
O6 O 0.5114(4) 0.1063(4) 0.10448(15)
C10 C 0.8386(3) 0.1614(3) 0.0833
C11 C 0.6317(5) 0.1705(5) 0.09418(16)
C12 C 0.6965(4) 0.3035(4) 0.0833
H18 H 0.6496 0.3503 0.0833
N4B N 0.8959(3) 0.2933(4) 0.07298(10)
H2B H 0.9788 0.3333 0.0663
O6B O 0.8937(4) 0.4886(4) 0.06219(15)
C11B C 0.8295(5) 0.3683(5) 0.07249(16)
O7 O 0.3697(5) 0.2549(6) 0.08017(14)
H7 H 0.4045 0.2175 0.0865
H8 H 0.4214 0.3194 0.0666
O8 O 0.9200(7) 0.5979(6) -0.00429(17)
H9 H 0.9160 0.5711 0.0119
H10 H 0.8734 0.5863 -0.0179
O9 O 0.5837(9) 0.5139(10) 0.0248(2)
H11 H 0.5022 0.4797 0.0181
H12 H 0.6384 0.5653 0.0430
O10? O 0.802(2) 0.5889(15) 0.0083(5)
loop_
_geom_bond_atom_site_label_1
_geom_bond_atom_site_label_2
_geom_bond_site_symmetry_1
_geom_bond_site_symmetry_2
Cu1 N1 1_555 1_555
N1 C1 1_555 1_555
N2 C4 1_555 1_555
N3 H1 1_555 1_555
N4 H2 1_555 1_555
O1 Cu1 1_555 1_555
H3 O1 1_555 1_555
H4 O1 1_555 1_555
O2 Cu1 1_555 1_555
H5 O2 1_555 1_555
H6 O2 1_555 1_555
O3 C7 1_555 1_555
O4 C8 1_555 1_555
O5 C10 1_555 1_555
O6 C11 1_555 1_555
O7 H7 1_555 1_555
H8 O7 1_555 1_555
O8 H9 1_555 1_555
H10 O8 1_555 1_555
O9 H11 1_555 1_555
H12 O9 1_555 1_555
C1 H13 1_555 1_555
C2 C1 1_555 1_555
H14 C2 1_555 1_555
C3 C2 1_555 1_555
C4 H15 1_555 1_555
C5 C4 1_555 1_555
H16 C5 1_555 1_555
C6 C3 1_555 1_555
C7 N3 1_555 1_555
C8 N3 1_555 1_555
C9 C8 1_555 1_555
H17 C9 1_555 1_555
C10 N4 1_555 1_555
C11 N4 1_555 1_555
C12 C11 1_555 1_555
H18 C12 1_555 1_555
Cu1_2 N2 1_555 1_555
N2_2 Cu1 1_555 1_555
N3B C7 1_555 1_555
H1B N3B 1_555 1_555
N4B C10 1_555 1_555
H2B N4B 1_555 1_555
O1D Cu1 1_555 1_555
H3D O1D 1_555 1_555
H4D O1D 1_555 1_555
O2D Cu1 1_555 1_555
H5D O2D 1_555 1_555
H6D O2D 1_555 1_555
O4B C8B 1_555 1_555
O6B C11B 1_555 1_555
C1D N1 1_555 1_555
H13D C1D 1_555 1_555
C2D C3 1_555 1_555
H14D C2D 1_555 1_555
C4D N2 1_555 1_555
H15D C4D 1_555 1_555
C5D C6 1_555 1_555
H16D C5D 1_555 1_555
C8B C9 1_555 1_555
C11B C12 1_555 1_555
C5 C6 1_555 1_555
N3B C8B 1_555 1_555
N4B C11B 1_555 1_555
C1D C2D 1_555 1_555
C4D C5D 1_555 1_555

#END
