
#######################################################################
#
#                 Cambridge Crystallographic Data Centre
#                                CCDC 
#
#######################################################################
#
# If this CIF has been generated from an entry in the Cambridge 
# Structural Database, then it will include bibliographic, chemical, 
# crystal, experimental, refinement or atomic coordinate data resulting 
# from the CCDC's data processing and validation procedures.
#
#######################################################################

data_VUKKOC
_symmetry_cell_setting           monoclinic
_symmetry_space_group_name_H-M   'P 21/c'
_symmetry_Int_Tables_number      14
_space_group_name_Hall           '-P 2ybc'
loop_
_symmetry_equiv_pos_site_id
_symmetry_equiv_pos_as_xyz
1 x,y,z
2 -x,1/2+y,1/2-z
3 -x,-y,-z
4 x,1/2-y,1/2+z
_cell_length_a                   7.1011(18)
_cell_length_b                   17.440(4)
_cell_length_c                   11.2157(19)
_cell_angle_alpha                90
_cell_angle_beta                 120.736(11)
_cell_angle_gamma                90
_cell_volume                     1193.88
loop_
_atom_site_label
_atom_site_type_symbol
_atom_site_fract_x
_atom_site_fract_y
_atom_site_fract_z
Ni1 Ni 1.5000 1.0000 1.0000
O1 O 1.2627(3) 1.06718(10) 1.00448(19)
N1 N 1.7245(5) 1.08101(18) 0.5552(3)
N2 N 1.3603(4) 1.08712(12) 0.8460(2)
N3 N 1.2391(4) 1.19804(13) 0.7094(3)
N4 N 1.1198(4) 1.17529(12) 0.8699(2)
N5 N 0.7367(4) 1.41802(12) 0.6200(2)
C1 C 1.5985(7) 1.1436(2) 0.5237(4)
H1 H 1.5941 1.1775 0.4581
C2 C 1.4763(6) 1.16114(18) 0.5832(4)
H2 H 1.3924 1.2056 0.5579
C3 C 1.4795(5) 1.11269(16) 0.6821(3)
C4 C 1.6067(5) 1.04740(17) 0.7147(3)
H3 H 1.6139 1.0125 0.7797
C5 C 1.7253(5) 1.0348(2) 0.6496(4)
H4 H 1.8099 0.9907 0.6726
C6 C 1.3521(4) 1.13281(15) 0.7491(3)
C7 C 1.2429(4) 1.11046(14) 0.9076(3)
C8 C 1.1274(5) 1.21504(15) 0.7721(3)
C9 C 0.9978(5) 1.28777(15) 0.7257(3)
C10 C 1.0054(5) 1.33311(16) 0.6275(3)
H5 H 1.0988 1.3208 0.5949
C11 C 0.8746(5) 1.39677(16) 0.5786(3)
H6 H 0.8824 1.4272 0.5130
C12 C 0.7352(5) 1.37574(17) 0.7192(3)
H7 H 0.6442 1.3905 0.7523
C13 C 0.8642(6) 1.31107(18) 0.7752(4)
H8 H 0.8613 1.2836 0.8456
Ni1A Ni 0.5000 1.5000 0.5000
Ni1A_2 Ni 2.5000 0.5000 1.5000
O1B O 1.7373(3) 0.93282(10) 0.99552(19)
N1B N 1.2755(5) 0.91899(18) 1.4448(3)
N2B N 1.6397(4) 0.91288(12) 1.1540(2)
N3B N 1.7609(4) 0.80196(13) 1.2906(3)
N4B N 1.8802(4) 0.82471(12) 1.1301(2)
N5B N 2.2633(4) 0.58198(12) 1.3800(2)
N5A N 1.2633(4) 0.91802(12) 0.8800(2)
N5C N 1.7367(4) 1.08198(12) 1.1200(2)
C1B C 1.4015(7) 0.8564(2) 1.4763(4)
H1B H 1.4059 0.8225 1.5419
C2B C 1.5237(6) 0.83886(18) 1.4168(4)
H2B H 1.6076 0.7944 1.4421
C3B C 1.5205(5) 0.88731(16) 1.3179(3)
C4B C 1.3933(5) 0.95260(17) 1.2853(3)
H3B H 1.3861 0.9875 1.2203
C5B C 1.2747(5) 0.9652(2) 1.3504(4)
H4B H 1.1901 1.0093 1.3274
C6B C 1.6479(4) 0.86719(15) 1.2509(3)
C7B C 1.7571(4) 0.88954(14) 1.0924(3)
C8B C 1.8726(5) 0.78496(15) 1.2279(3)
C9B C 2.0022(5) 0.71223(15) 1.2743(3)
C10B C 1.9946(5) 0.66689(16) 1.3725(3)
H5B H 1.9012 0.6792 1.4051
C11B C 2.1254(5) 0.60323(16) 1.4214(3)
H6B H 2.1176 0.5728 1.4870
C12B C 2.2648(5) 0.62426(17) 1.2808(3)
H7B H 2.3558 0.6095 1.2477
C13B C 2.1358(6) 0.68893(18) 1.2248(4)
H8B H 2.1387 0.7164 1.1544
O2 O 0.014(3) 0.5203(11) 0.037(2)
H9 H -0.0472 0.4772 0.0386
loop_
_geom_bond_atom_site_label_1
_geom_bond_atom_site_label_2
_geom_bond_site_symmetry_1
_geom_bond_site_symmetry_2
Ni1 O1 1_555 1_555
O1 C7 1_555 1_555
N1 C1 1_555 1_555
N2 Ni1 1_555 1_555
N3 C6 1_555 1_555
N4 C7 1_555 1_555
N5 C11 1_555 1_555
C1 H1 1_555 1_555
C2 C1 1_555 1_555
H2 C2 1_555 1_555
C3 C2 1_555 1_555
C4 C3 1_555 1_555
H3 C4 1_555 1_555
C5 N1 1_555 1_555
H4 C5 1_555 1_555
C6 N2 1_555 1_555
C7 N2 1_555 1_555
C8 N3 1_555 1_555
C9 C8 1_555 1_555
C10 C9 1_555 1_555
H5 C10 1_555 1_555
C11 C10 1_555 1_555
H6 C11 1_555 1_555
C12 N5 1_555 1_555
H7 C12 1_555 1_555
C13 C9 1_555 1_555
H8 C13 1_555 1_555
O2 H9 1_555 1_555
Ni1A N5 1_555 1_555
Ni1A_2 N5B 1_555 1_555
O1B Ni1 1_555 1_555
N1B C1B 1_555 1_555
N2B Ni1 1_555 1_555
N3B C6B 1_555 1_555
N4B C7B 1_555 1_555
N5B C11B 1_555 1_555
N5A Ni1 1_555 1_555
N5C Ni1 1_555 1_555
C1B H1B 1_555 1_555
C2B C1B 1_555 1_555
H2B C2B 1_555 1_555
C3B C2B 1_555 1_555
C4B C3B 1_555 1_555
H3B C4B 1_555 1_555
C5B N1B 1_555 1_555
H4B C5B 1_555 1_555
C6B N2B 1_555 1_555
C7B O1B 1_555 1_555
C8B N3B 1_555 1_555
C9B C8B 1_555 1_555
C10B C9B 1_555 1_555
H5B C10B 1_555 1_555
C11B C10B 1_555 1_555
H6B C11B 1_555 1_555
C12B N5B 1_555 1_555
H7B C12B 1_555 1_555
C13B C9B 1_555 1_555
H8B C13B 1_555 1_555
N4 C8 1_555 1_555
C3 C6 1_555 1_555
C4 C5 1_555 1_555
C12 C13 1_555 1_555
N2B C7B 1_555 1_555
N4B C8B 1_555 1_555
C3B C6B 1_555 1_555
C4B C5B 1_555 1_555
C12B C13B 1_555 1_555

#END
