
#######################################################################
#
#                 Cambridge Crystallographic Data Centre
#                                CCDC 
#
#######################################################################
#
# If this CIF has been generated from an entry in the Cambridge 
# Structural Database, then it will include bibliographic, chemical, 
# crystal, experimental, refinement or atomic coordinate data resulting 
# from the CCDC's data processing and validation procedures.
#
#######################################################################

data_VUKKAO01
_symmetry_cell_setting           monoclinic
_symmetry_space_group_name_H-M   'P 21/c'
_symmetry_Int_Tables_number      14
_space_group_name_Hall           '-P 2ybc'
loop_
_symmetry_equiv_pos_site_id
_symmetry_equiv_pos_as_xyz
1 x,y,z
2 -x,1/2+y,1/2-z
3 -x,-y,-z
4 x,1/2-y,1/2+z
_cell_length_a                   7.063(6)
_cell_length_b                   17.792(14)
_cell_length_c                   11.089(7)
_cell_angle_alpha                90
_cell_angle_beta                 121.31(4)
_cell_angle_gamma                90
_cell_volume                     1190.56
loop_
_atom_site_label
_atom_site_type_symbol
_atom_site_fract_x
_atom_site_fract_y
_atom_site_fract_z
Co1 Co 1.5000 1.0000 1.0000
O1 O 1.2606(3) 1.06769(10) 1.00047(18)
N1 N 1.7236(5) 1.08372(18) 0.5518(3)
N2 N 1.3597(3) 1.08883(12) 0.8431(2)
N3 N 1.2410(4) 1.19937(14) 0.7077(2)
N4 N 1.1221(4) 1.17556(13) 0.8687(2)
N5 N 0.7454(3) 1.41754(13) 0.6257(2)
C1 C 1.6011(6) 1.1459(2) 0.5219(4)
H1 H 1.5984 1.1808 0.4552
C2 C 1.4787(5) 1.16323(19) 0.5811(3)
H2 H 1.3932 1.2087 0.5559
C3 C 1.4803(4) 1.11474(16) 0.6795(3)
C4 C 1.6069(5) 1.04977(18) 0.7120(3)
H3 H 1.6120 1.0137 0.7779
C5 C 1.7235(5) 1.0378(2) 0.6453(3)
H4 H 1.8105 0.9928 0.6682
C6 C 1.3529(4) 1.13485(16) 0.7469(3)
C7 C 1.2425(4) 1.11144(15) 0.9046(2)
C8 C 1.1301(4) 1.21562(15) 0.7715(3)
C9 C 1.0029(4) 1.28738(16) 0.7273(3)
C10 C 1.0130(4) 1.33369(16) 0.6308(3)
H5 H 1.1084 1.3213 0.5966
C11 C 0.8841(4) 1.39739(16) 0.5844(3)
H6 H 0.8952 1.4299 0.5194
C12 C 0.7425(5) 1.37436(17) 0.7233(3)
H7 H 0.6495 1.3890 0.7582
C13 C 0.8684(5) 1.30980(19) 0.7765(3)
H8 H 0.8622 1.2799 0.8463
Co1A Co 0.5000 1.5000 0.5000
Co1A_2 Co 2.5000 0.5000 1.5000
O1B O 1.7394(3) 0.93231(10) 0.99953(18)
N1B N 1.2764(5) 0.91628(18) 1.4482(3)
N2B N 1.6403(3) 0.91117(12) 1.1569(2)
N3B N 1.7590(4) 0.80063(14) 1.2923(2)
N4B N 1.8779(4) 0.82444(13) 1.1313(2)
N5B N 2.2546(3) 0.58246(13) 1.3743(2)
N5A N 1.2546(3) 0.91754(13) 0.8743(2)
N5C N 1.7454(3) 1.08246(13) 1.1257(2)
C1B C 1.3989(6) 0.8541(2) 1.4781(4)
H1B H 1.4016 0.8192 1.5448
C2B C 1.5213(5) 0.83677(19) 1.4189(3)
H2B H 1.6068 0.7913 1.4441
C3B C 1.5197(4) 0.88526(16) 1.3205(3)
C4B C 1.3931(5) 0.95023(18) 1.2880(3)
H3B H 1.3880 0.9863 1.2221
C5B C 1.2765(5) 0.9622(2) 1.3547(3)
H4B H 1.1895 1.0072 1.3318
C6B C 1.6471(4) 0.86515(16) 1.2531(3)
C7B C 1.7575(4) 0.88856(15) 1.0954(2)
C8B C 1.8699(4) 0.78438(15) 1.2285(3)
C9B C 1.9971(4) 0.71262(16) 1.2727(3)
C10B C 1.9870(4) 0.66631(16) 1.3692(3)
H5B H 1.8916 0.6787 1.4034
C11B C 2.1159(4) 0.60261(16) 1.4156(3)
H6B H 2.1048 0.5701 1.4806
C12B C 2.2575(5) 0.62564(17) 1.2767(3)
H7B H 2.3505 0.6110 1.2418
C13B C 2.1316(5) 0.69020(19) 1.2235(3)
H8B H 2.1378 0.7201 1.1537
O2 O 1.017(3) 0.5192(11) 0.0379(18)
H9 H 0.9608 0.4770 0.0466
loop_
_geom_bond_atom_site_label_1
_geom_bond_atom_site_label_2
_geom_bond_site_symmetry_1
_geom_bond_site_symmetry_2
Co1 O1 1_555 1_555
O1 C7 1_555 1_555
N1 C1 1_555 1_555
N2 Co1 1_555 1_555
N3 C6 1_555 1_555
N4 C7 1_555 1_555
N5 C11 1_555 1_555
C1 H1 1_555 1_555
C2 C1 1_555 1_555
H2 C2 1_555 1_555
C3 C2 1_555 1_555
C4 C3 1_555 1_555
H3 C4 1_555 1_555
C5 N1 1_555 1_555
H4 C5 1_555 1_555
C6 N2 1_555 1_555
C7 N2 1_555 1_555
C8 N3 1_555 1_555
C9 C8 1_555 1_555
C10 C9 1_555 1_555
H5 C10 1_555 1_555
C11 C10 1_555 1_555
H6 C11 1_555 1_555
C12 N5 1_555 1_555
H7 C12 1_555 1_555
C13 C9 1_555 1_555
H8 C13 1_555 1_555
O2 H9 1_555 1_555
Co1A N5 1_555 1_555
Co1A_2 N5B 1_555 1_555
O1B Co1 1_555 1_555
N1B C1B 1_555 1_555
N2B Co1 1_555 1_555
N3B C6B 1_555 1_555
N4B C7B 1_555 1_555
N5B C11B 1_555 1_555
N5A Co1 1_555 1_555
N5C Co1 1_555 1_555
C1B H1B 1_555 1_555
C2B C1B 1_555 1_555
H2B C2B 1_555 1_555
C3B C2B 1_555 1_555
C4B C3B 1_555 1_555
H3B C4B 1_555 1_555
C5B N1B 1_555 1_555
H4B C5B 1_555 1_555
C6B N2B 1_555 1_555
C7B O1B 1_555 1_555
C8B N3B 1_555 1_555
C9B C8B 1_555 1_555
C10B C9B 1_555 1_555
H5B C10B 1_555 1_555
C11B C10B 1_555 1_555
H6B C11B 1_555 1_555
C12B N5B 1_555 1_555
H7B C12B 1_555 1_555
C13B C9B 1_555 1_555
H8B C13B 1_555 1_555
N4 C8 1_555 1_555
C3 C6 1_555 1_555
C4 C5 1_555 1_555
C12 C13 1_555 1_555
N2B C7B 1_555 1_555
N4B C8B 1_555 1_555
C3B C6B 1_555 1_555
C4B C5B 1_555 1_555
C12B C13B 1_555 1_555

#END
