
#######################################################################
#
#                 Cambridge Crystallographic Data Centre
#                                CCDC 
#
#######################################################################
#
# If this CIF has been generated from an entry in the Cambridge 
# Structural Database, then it will include bibliographic, chemical, 
# crystal, experimental, refinement or atomic coordinate data resulting 
# from the CCDC's data processing and validation procedures.
#
#######################################################################

data_VUKKOC01
_symmetry_cell_setting           monoclinic
_symmetry_space_group_name_H-M   'P 21/c'
_symmetry_Int_Tables_number      14
_space_group_name_Hall           '-P 2ybc'
loop_
_symmetry_equiv_pos_site_id
_symmetry_equiv_pos_as_xyz
1 x,y,z
2 -x,1/2+y,1/2-z
3 -x,-y,-z
4 x,1/2-y,1/2+z
_cell_length_a                   7.0848(9)
_cell_length_b                   17.511(2)
_cell_length_c                   11.1614(11)
_cell_angle_alpha                90
_cell_angle_beta                 121.096(6)
_cell_angle_gamma                90
_cell_volume                     1185.73
loop_
_atom_site_label
_atom_site_type_symbol
_atom_site_fract_x
_atom_site_fract_y
_atom_site_fract_z
Ni1 Ni 1.5000 1.0000 1.0000
O1 O 1.2633(3) 1.06739(10) 1.0047(2)
N1 N 1.7242(5) 1.08235(18) 0.5536(3)
N2 N 1.3599(4) 1.08755(12) 0.8458(2)
N3 N 1.2397(4) 1.19860(13) 0.7089(3)
N4 N 1.1213(4) 1.17530(13) 0.8704(2)
N5 N 0.7400(4) 1.41885(12) 0.6225(2)
C1 C 1.5989(7) 1.1451(2) 0.5231(4)
H1 H 1.5945 1.1789 0.4575
C2 C 1.4777(6) 1.16260(19) 0.5829(4)
H2 H 1.3937 1.2070 0.5576
C3 C 1.4797(5) 1.11345(16) 0.6815(3)
C4 C 1.6078(5) 1.04818(17) 0.7134(3)
H3 H 1.6150 1.0132 0.7783
C5 C 1.7245(6) 1.0359(2) 0.6476(4)
H4 H 1.8091 0.9917 0.6706
C6 C 1.3523(5) 1.13338(15) 0.7488(3)
C7 C 1.2431(5) 1.11070(14) 0.9076(3)
C8 C 1.1284(5) 1.21538(15) 0.7724(3)
C9 C 0.9992(5) 1.28831(16) 0.7265(3)
C10 C 1.0083(5) 1.33380(16) 0.6286(3)
H5 H 1.1016 1.3215 0.5960
C11 C 0.8772(5) 1.39797(16) 0.5806(3)
H6 H 0.8850 1.4284 0.5150
C12 C 0.7387(6) 1.37642(18) 0.7218(3)
H7 H 0.6477 1.3912 0.7549
C13 C 0.8671(6) 1.31176(18) 0.7775(4)
H8 H 0.8642 1.2843 0.8478
Ni1A Ni 0.5000 1.5000 0.5000
Ni1A_2 Ni 2.5000 0.5000 1.5000
O1B O 1.7367(3) 0.93261(10) 0.9953(2)
N1B N 1.2758(5) 0.91765(18) 1.4464(3)
N2B N 1.6401(4) 0.91245(12) 1.1542(2)
N3B N 1.7603(4) 0.80140(13) 1.2911(3)
N4B N 1.8787(4) 0.82470(13) 1.1296(2)
N5B N 2.2600(4) 0.58115(12) 1.3775(2)
N5A N 1.2600(4) 0.91885(12) 0.8775(2)
N5C N 1.7400(4) 1.08115(12) 1.1225(2)
C1B C 1.4011(7) 0.8549(2) 1.4769(4)
H1B H 1.4055 0.8211 1.5425
C2B C 1.5223(6) 0.83740(19) 1.4171(4)
H2B H 1.6063 0.7930 1.4424
C3B C 1.5203(5) 0.88655(16) 1.3185(3)
C4B C 1.3922(5) 0.95182(17) 1.2866(3)
H3B H 1.3850 0.9868 1.2217
C5B C 1.2755(6) 0.9641(2) 1.3524(4)
H4B H 1.1909 1.0083 1.3294
C6B C 1.6477(5) 0.86662(15) 1.2512(3)
C7B C 1.7569(5) 0.88930(14) 1.0924(3)
C8B C 1.8716(5) 0.78462(15) 1.2276(3)
C9B C 2.0008(5) 0.71169(16) 1.2735(3)
C10B C 1.9917(5) 0.66620(16) 1.3714(3)
H5B H 1.8984 0.6785 1.4040
C11B C 2.1228(5) 0.60203(16) 1.4194(3)
H6B H 2.1150 0.5716 1.4850
C12B C 2.2613(6) 0.62358(18) 1.2782(3)
H7B H 2.3523 0.6088 1.2451
C13B C 2.1329(6) 0.68824(18) 1.2225(4)
H8B H 2.1358 0.7157 1.1522
O2 O 0.024(4) 0.5169(14) 0.0437(19)
H9 H -0.0378 0.4738 0.0451
loop_
_geom_bond_atom_site_label_1
_geom_bond_atom_site_label_2
_geom_bond_site_symmetry_1
_geom_bond_site_symmetry_2
Ni1 O1 1_555 1_555
O1 C7 1_555 1_555
N1 C1 1_555 1_555
N2 Ni1 1_555 1_555
N3 C6 1_555 1_555
N4 C7 1_555 1_555
N5 C11 1_555 1_555
C1 H1 1_555 1_555
C2 C1 1_555 1_555
H2 C2 1_555 1_555
C3 C2 1_555 1_555
C4 C3 1_555 1_555
H3 C4 1_555 1_555
C5 N1 1_555 1_555
H4 C5 1_555 1_555
C6 N2 1_555 1_555
C7 N2 1_555 1_555
C8 N3 1_555 1_555
C9 C8 1_555 1_555
C10 C9 1_555 1_555
H5 C10 1_555 1_555
C11 C10 1_555 1_555
H6 C11 1_555 1_555
C12 N5 1_555 1_555
H7 C12 1_555 1_555
C13 C9 1_555 1_555
H8 C13 1_555 1_555
O2 H9 1_555 1_555
Ni1A N5 1_555 1_555
Ni1A_2 N5B 1_555 1_555
O1B Ni1 1_555 1_555
N1B C1B 1_555 1_555
N2B Ni1 1_555 1_555
N3B C6B 1_555 1_555
N4B C7B 1_555 1_555
N5B C11B 1_555 1_555
N5A Ni1 1_555 1_555
N5C Ni1 1_555 1_555
C1B H1B 1_555 1_555
C2B C1B 1_555 1_555
H2B C2B 1_555 1_555
C3B C2B 1_555 1_555
C4B C3B 1_555 1_555
H3B C4B 1_555 1_555
C5B N1B 1_555 1_555
H4B C5B 1_555 1_555
C6B N2B 1_555 1_555
C7B O1B 1_555 1_555
C8B N3B 1_555 1_555
C9B C8B 1_555 1_555
C10B C9B 1_555 1_555
H5B C10B 1_555 1_555
C11B C10B 1_555 1_555
H6B C11B 1_555 1_555
C12B N5B 1_555 1_555
H7B C12B 1_555 1_555
C13B C9B 1_555 1_555
H8B C13B 1_555 1_555
N4 C8 1_555 1_555
C3 C6 1_555 1_555
C4 C5 1_555 1_555
C12 C13 1_555 1_555
N2B C7B 1_555 1_555
N4B C8B 1_555 1_555
C3B C6B 1_555 1_555
C4B C5B 1_555 1_555
C12B C13B 1_555 1_555

#END
