
#######################################################################
#
#                 Cambridge Crystallographic Data Centre
#                                CCDC 
#
#######################################################################
#
# If this CIF has been generated from an entry in the Cambridge 
# Structural Database, then it will include bibliographic, chemical, 
# crystal, experimental, refinement or atomic coordinate data resulting 
# from the CCDC's data processing and validation procedures.
#
#######################################################################

data_VUKWEF
_symmetry_cell_setting           monoclinic
_symmetry_space_group_name_H-M   'I 2/a'
_symmetry_Int_Tables_number      15
_space_group_name_Hall           '-I 2ya'
loop_
_symmetry_equiv_pos_site_id
_symmetry_equiv_pos_as_xyz
1 x,y,z
2 1/2-x,y,-z
3 1/2+x,1/2+y,1/2+z
4 -x,1/2+y,1/2-z
5 -x,-y,-z
6 1/2+x,-y,z
7 1/2-x,1/2-y,1/2-z
8 x,1/2-y,1/2+z
_cell_length_a                   25.9044(9)
_cell_length_b                   13.2058(3)
_cell_length_c                   23.7598(8)
_cell_angle_alpha                90
_cell_angle_beta                 99.772(3)
_cell_angle_gamma                90
_cell_volume                     8010.02
loop_
_atom_site_label
_atom_site_type_symbol
_atom_site_fract_x
_atom_site_fract_y
_atom_site_fract_z
U1 U 0.49815(2) 0.25666(2) 0.26303(2)
Mn1 Mn 0.44541(4) 0.51713(5) 0.30966(4)
O1 O 0.41313(16) 0.2037(3) 0.25276(16)
O2 O 0.48114(15) 0.3827(2) 0.29385(15)
O3 O 0.51212(16) 0.1773(3) 0.34853(15)
O4 O 0.52377(15) 0.1402(2) 0.22892(14)
O5 O 0.38217(17) 0.5997(3) 0.35182(17)
O6 O 0.38942(18) 0.4367(3) 0.36411(17)
O7 O 0.33212(19) 0.5206(4) 0.4027(2)
N1 N 0.44899(19) 0.2996(3) 0.16098(18)
N2 N 0.55399(18) 0.3660(3) 0.20351(19)
N3 N 0.59266(18) 0.2997(3) 0.31790(19)
N4 N 0.3671(2) 0.5192(4) 0.3735(2)
N5 N 0.4992(2) 0.5481(3) 0.39523(19)
N6 N 0.38060(19) 0.4864(3) 0.2323(2)
C1 C 0.3736(2) 0.1737(4) 0.2150(3)
C2 C 0.3305(3) 0.1229(4) 0.2321(3)
H1 H 0.3303 0.1120 0.2716
C3 C 0.2893(3) 0.0894(5) 0.1929(4)
H2 H 0.2613 0.0545 0.2056
C4 C 0.2875(3) 0.1052(5) 0.1353(3)
H3 H 0.2590 0.0800 0.1084
C5 C 0.3270(3) 0.1574(4) 0.1174(3)
H4 H 0.3252 0.1701 0.0777
C6 C 0.3706(2) 0.1931(4) 0.1560(3)
C7 C 0.4074(2) 0.2571(5) 0.1334(2)
H5 H 0.4002 0.2693 0.0934
C8 C 0.4763(3) 0.3675(5) 0.1265(2)
H6 H 0.4687 0.4391 0.1342
H7 H 0.4649 0.3540 0.0853
C9 C 0.5384(5) 0.3443(8) 0.1450(5)
H8 H 0.5455 0.2723 0.1376
H9 H 0.5586 0.3866 0.1220
C10 C 0.6102(4) 0.3343(8) 0.2215(5)
H10 H 0.6327 0.3725 0.1992
H11 H 0.6138 0.2613 0.2136
C11 C 0.6277(2) 0.3548(5) 0.2852(2)
H12 H 0.6643 0.3317 0.2971
H13 H 0.6262 0.4283 0.2927
C12 C 0.6104(2) 0.2888(4) 0.3709(2)
H14 H 0.6436 0.3187 0.3843
C13 C 0.5864(2) 0.2366(4) 0.4134(2)
C14 C 0.6130(2) 0.2399(5) 0.4700(2)
H15 H 0.6444 0.2784 0.4788
C15 C 0.5948(3) 0.1886(5) 0.5130(3)
H16 H 0.6130 0.1913 0.5512
C16 C 0.5489(3) 0.1326(4) 0.4992(3)
H17 H 0.5362 0.0963 0.5285
C17 C 0.5219(3) 0.1285(4) 0.4452(2)
H18 H 0.4909 0.0891 0.4372
C18 C 0.5397(2) 0.1825(4) 0.4006(2)
C19 C 0.5506(5) 0.4796(8) 0.2143(5)
H19 H 0.5139 0.5011 0.2064
H20 H 0.5705 0.5164 0.1893
H21 H 0.5653 0.4943 0.2543
C20 C 0.5467(3) 0.5062(4) 0.4032(3)
H22 H 0.5553 0.4632 0.3740
C21 C 0.5841(3) 0.5214(5) 0.4507(3)
H23 H 0.6174 0.4895 0.4543
C22 C 0.5722(3) 0.5843(4) 0.4935(3)
H24 H 0.5972 0.5972 0.5269
C23 C 0.5232(3) 0.6277(4) 0.4864(2)
H25 H 0.5138 0.6708 0.5150
C24 C 0.4880(3) 0.6080(4) 0.4372(3)
H26 H 0.4542 0.6382 0.4329
C25 C 0.3435(3) 0.4145(4) 0.2331(3)
H27 H 0.3444 0.3759 0.2670
C26 C 0.3048(3) 0.3946(4) 0.1879(3)
H28 H 0.2797 0.3431 0.1903
C27 C 0.3030(3) 0.4506(5) 0.1387(3)
H29 H 0.2760 0.4398 0.1068
C28 C 0.3410(3) 0.5225(5) 0.1364(3)
H30 H 0.3414 0.5606 0.1026
C29 C 0.3788(3) 0.5384(4) 0.1841(3)
H31 H 0.4047 0.5888 0.1824
Mn1C Mn 0.55459(4) 0.01713(5) 0.19034(4)
O4C O 0.47623(15) 0.6402(2) 0.27108(14)
N7 N 0.3081(11) 0.1151(18) 0.4805(14)
C30 C 0.3048(12) 0.203(2) 0.4569(10)
H32 H 0.2798 0.2468 0.4688
C31 C 0.3304(8) 0.2408(19) 0.4188(10)
H33 H 0.3229 0.3069 0.4038
C32 C 0.3688(10) 0.1813(13) 0.4010(11)
C33 C 0.3688(8) 0.0760(17) 0.4188(9)
H34 H 0.3892 0.0265 0.4034
C34 C 0.3392(8) 0.0513(16) 0.4575(9)
H35 H 0.3402 -0.0172 0.4699
H36? H 0.4505 0.4107 0.1020
H37? H 0.4953 0.3269 0.1016
C35? C 0.5157(5) 0.4351(9) 0.1668(5)
H38? H 0.5346 0.4805 0.1441
H39? H 0.4968 0.4773 0.1911
C36? C 0.5902(5) 0.4306(9) 0.2412(5)
H40? H 0.5707 0.4771 0.2628
H41? H 0.6116 0.4715 0.2189
H42? H 0.6462 0.3066 0.2636
H43? H 0.6541 0.3942 0.3113
C37? C 0.5819(5) 0.3027(9) 0.1677(5)
H44? H 0.6105 0.2667 0.1920
H45? H 0.5963 0.3455 0.1405
H46? H 0.5575 0.2534 0.1469
N8? N 0.3426(8) 0.2261(15) 0.4015(8)
C38? C 0.3779(10) 0.1502(14) 0.3988(12)
H47? H 0.3956 0.1484 0.3669
C39? C 0.3883(8) 0.0814(16) 0.4369(9)
H48? H 0.4183 0.0396 0.4379
C40? C 0.3565(8) 0.0685(15) 0.4758(9)
H49? H 0.3620 0.0123 0.5011
C41? C 0.3183(13) 0.132(2) 0.4793(18)
C42? C 0.3096(13) 0.2164(19) 0.4429(10)
H50? H 0.2829 0.2645 0.4459
C43? C 0.7560(15) 0.197(2) 0.4466(10)
H51? H 0.7602 0.1585 0.4139
H52? H 0.7567 0.3508 0.4187
H53? H 0.3641 0.1836 0.3587
H54? H 0.4035 0.2111 0.4160
N9? N 0.7227(13) 0.2271(19) 0.2016(9)
C44? C 0.7246(14) 0.200(2) 0.1987(10)
H55? H 0.7104 0.1652 0.1644
C45? C 0.7285(3) 0.1584(5) 0.2514(4)
H56? H 0.7102 0.0966 0.2538
H57? H 0.7141 0.0921 0.2487
C46? C 0.7545(3) 0.1940(7) 0.2997(3)
H58? H 0.7601 0.1531 0.3330
H59? H 0.7552 0.1583 0.3345
N10? N 0.7526(12) 0.2191(17) 0.4531(8)
C47? C 0.7544(3) 0.3125(7) 0.4520(3)
H60? H 0.7589 0.3470 0.4181
C48? C 0.7500 0.3649(8) 0.5000
H61? H 0.7500 0.4369 0.5000
C49? C 0.7500 0.1606(8) 0.5000
H62? H 0.7500 0.0887 0.5000
loop_
_geom_bond_atom_site_label_1
_geom_bond_atom_site_label_2
_geom_bond_site_symmetry_1
_geom_bond_site_symmetry_2
U1 O1 1_555 1_555
Mn1 O2 1_555 1_555
O1 C1 1_555 1_555
O2 U1 1_555 1_555
O3 U1 1_555 1_555
O4 U1 1_555 1_555
O5 Mn1 1_555 1_555
O6 Mn1 1_555 1_555
O7 N4 1_555 1_555
N1 U1 1_555 1_555
N2 U1 1_555 1_555
N3 U1 1_555 1_555
N4 O5 1_555 1_555
N5 Mn1 1_555 1_555
N6 Mn1 1_555 1_555
C1 C2 1_555 1_555
C2 H1 1_555 1_555
C3 C2 1_555 1_555
H2 C3 1_555 1_555
C4 C3 1_555 1_555
H3 C4 1_555 1_555
C5 C4 1_555 1_555
H4 C5 1_555 1_555
C6 C1 1_555 1_555
C7 N1 1_555 1_555
H5 C7 1_555 1_555
C8 N1 1_555 1_555
H6 C8 1_555 1_555
H7 C8 1_555 1_555
C9 N2 1_555 1_555
H8 C9 1_555 1_555
H9 C9 1_555 1_555
C10 N2 1_555 1_555
H10 C10 1_555 1_555
H11 C10 1_555 1_555
C11 N3 1_555 1_555
H12 C11 1_555 1_555
H13 C11 1_555 1_555
C12 N3 1_555 1_555
H14 C12 1_555 1_555
C13 C12 1_555 1_555
C14 C13 1_555 1_555
H15 C14 1_555 1_555
C15 C14 1_555 1_555
H16 C15 1_555 1_555
C16 C15 1_555 1_555
H17 C16 1_555 1_555
C17 C16 1_555 1_555
H18 C17 1_555 1_555
C18 O3 1_555 1_555
C19 N2 1_555 1_555
H19 C19 1_555 1_555
H20 C19 1_555 1_555
H21 C19 1_555 1_555
C20 N5 1_555 1_555
H22 C20 1_555 1_555
C21 C20 1_555 1_555
H23 C21 1_555 1_555
C22 C21 1_555 1_555
H24 C22 1_555 1_555
C23 C22 1_555 1_555
H25 C23 1_555 1_555
C24 N5 1_555 1_555
H26 C24 1_555 1_555
C25 N6 1_555 1_555
H27 C25 1_555 1_555
C26 C25 1_555 1_555
H28 C26 1_555 1_555
C27 C26 1_555 1_555
H29 C27 1_555 1_555
C28 C27 1_555 1_555
H30 C28 1_555 1_555
C29 N6 1_555 1_555
H31 C29 1_555 1_555
N7 C30 1_555 1_555
C30 H32 1_555 1_555
C31 C30 1_555 1_555
H33 C31 1_555 1_555
C32 C31 1_555 1_555
C33 C32 1_555 1_555
H34 C33 1_555 1_555
C34 N7 1_555 1_555
H35 C34 1_555 1_555
Mn1C O4 1_555 1_555
O4C Mn1 1_555 1_555
O6 N4 1_555 1_555
C5 C6 1_555 1_555
C6 C7 1_555 1_555
C8 C9 1_555 1_555
C10 C11 1_555 1_555
C13 C18 1_555 1_555
C17 C18 1_555 1_555
C23 C24 1_555 1_555
C28 C29 1_555 1_555
C33 C34 1_555 1_555

#END
