
#######################################################################
#
#                 Cambridge Crystallographic Data Centre
#                                CCDC 
#
#######################################################################
#
# If this CIF has been generated from an entry in the Cambridge 
# Structural Database, then it will include bibliographic, chemical, 
# crystal, experimental, refinement or atomic coordinate data resulting 
# from the CCDC's data processing and validation procedures.
#
#######################################################################

data_VUKXAC
_symmetry_cell_setting           monoclinic
_symmetry_space_group_name_H-M   'C 2/c'
_symmetry_Int_Tables_number      15
_space_group_name_Hall           '-C 2yn'
loop_
_symmetry_equiv_pos_site_id
_symmetry_equiv_pos_as_xyz
1 x,y,z
2 -x,y,1/2-z
3 1/2+x,1/2+y,z
4 1/2-x,1/2+y,1/2-z
5 -x,-y,-z
6 x,-y,1/2+z
7 1/2-x,1/2-y,-z
8 1/2+x,1/2-y,1/2+z
_cell_length_a                   13.8786(8)
_cell_length_b                   13.6808(6)
_cell_length_c                   16.6792(11)
_cell_angle_alpha                90
_cell_angle_beta                 112.229(3)
_cell_angle_gamma                90
_cell_volume                     2931.52
loop_
_atom_site_label
_atom_site_type_symbol
_atom_site_fract_x
_atom_site_fract_y
_atom_site_fract_z
Cu1 Cu 0.2500 0.2500 0.5000
S1 S 0.19013(5) 0.19578(5) 0.14810(4)
O1 O 0.17759(18) 0.09655(15) 0.16486(14)
O2 O 0.26311(17) 0.23246(18) 0.11539(14)
O3 O 0.20512(18) 0.08476(15) 0.46356(15)
O4 O 0.2734(3) -0.0532(3) 0.5133(2)
O5 O 0.2773(2) -0.00236(17) 0.39375(16)
N1 N 0.23035(17) 0.27638(18) 0.37602(14)
N2 N 0.21012(18) 0.25397(16) 0.24085(15)
N3 N 0.07425(18) 0.23769(17) 0.08289(15)
N4 N -0.09439(18) 0.26181(17) 0.02818(15)
N5 N 0.2534(2) 0.00921(17) 0.45728(16)
C1 C 0.2046(2) 0.2125(2) 0.31356(16)
H1 H 0.1853 0.1481 0.3178
C2 C 0.2407(2) 0.3512(2) 0.26059(19)
H2 H 0.2507 0.3978 0.2239
C3 C 0.2527(2) 0.3632(2) 0.34329(18)
H3 H 0.2729 0.4211 0.3744
C4 C -0.0200(2) 0.2118(2) 0.08507(17)
H4 H -0.0295 0.1652 0.1220
C5 C -0.0471(2) 0.3234(2) -0.01258(19)
H5 H -0.0823 0.3674 -0.0563
C6 C 0.0566(2) 0.3102(2) 0.02017(19)
H6 H 0.1058 0.3424 0.0044
S1A S -0.19013(5) 0.19578(5) 0.35190(4)
O1A O -0.17759(18) 0.09655(15) 0.33514(14)
O2A O -0.26311(17) 0.23246(18) 0.38461(14)
N1A N -0.23035(17) 0.27638(18) 0.12398(14)
N2A N -0.21012(18) 0.25397(16) 0.25915(15)
N3A N -0.07425(18) 0.23769(17) 0.41711(15)
N4A N 0.09439(18) 0.26181(17) 0.47182(15)
C1A C -0.2046(2) 0.2125(2) 0.18644(16)
H1A H -0.1853 0.1481 0.1822
C2A C -0.2407(2) 0.3512(2) 0.23941(19)
H2A H -0.2507 0.3978 0.2761
C3A C -0.2527(2) 0.3632(2) 0.15671(18)
H3A H -0.2729 0.4211 0.1256
C4A C 0.0200(2) 0.2118(2) 0.41493(17)
H4A H 0.0295 0.1652 0.3780
C5A C 0.0471(2) 0.3234(2) 0.51258(19)
H5A H 0.0823 0.3674 0.5563
C6A C -0.0566(2) 0.3102(2) 0.47983(19)
H6A H -0.1058 0.3424 0.4956
O3F O 0.29488(18) 0.41524(15) 0.53644(15)
O4F O 0.2266(3) 0.5532(3) 0.4867(2)
O5F O 0.2227(2) 0.50236(17) 0.60625(16)
N5F N 0.2466(2) 0.49079(17) 0.54272(16)
Cu1A Cu -0.2500 0.2500 0.0000
N1F N 0.26965(17) 0.22362(18) 0.62398(14)
N4G N 0.40561(18) 0.23819(17) 0.52818(15)
O6 O 0.0000 0.0566(3) 0.2500
C7 C 0.0000 -0.0310(5) 0.2500
C8 C 0.0192(5) -0.0875(5) 0.3309(4)
H7 H 0.0874 -0.1162 0.3503
H8 H -0.0320 -0.1383 0.3197
H9 H 0.0147 -0.0446 0.3748
C8A C -0.0192(5) -0.0875(5) 0.1691(4)
H7A H -0.0874 -0.1162 0.1497
H8A H 0.0320 -0.1383 0.1803
H9A H -0.0147 -0.0446 0.1252
O7 O 0.0000 0.3600(4) 0.2500
C9 C 0.0000 0.4490(5) 0.2500
C10 C 0.0117(6) 0.5071(5) 0.1797(4)
H10 H 0.0633 0.4774 0.1621
H11 H 0.0331 0.5723 0.1999
H12 H -0.0536 0.5095 0.1312
C10A C -0.0117(6) 0.5071(5) 0.3203(4)
H10A H -0.0633 0.4774 0.3379
H11A H -0.0331 0.5723 0.3001
H12A H 0.0536 0.5095 0.3688
loop_
_geom_bond_atom_site_label_1
_geom_bond_atom_site_label_2
_geom_bond_site_symmetry_1
_geom_bond_site_symmetry_2
Cu1 O3 1_555 1_555
S1 O1 1_555 1_555
O2 S1 1_555 1_555
O3 N5 1_555 1_555
O4 N5 1_555 1_555
O5 N5 1_555 1_555
N1 Cu1 1_555 1_555
N2 S1 1_555 1_555
N3 S1 1_555 1_555
N4 C4 1_555 1_555
C1 N1 1_555 1_555
H1 C1 1_555 1_555
C2 N2 1_555 1_555
H2 C2 1_555 1_555
C3 N1 1_555 1_555
H3 C3 1_555 1_555
C4 N3 1_555 1_555
H4 C4 1_555 1_555
C5 N4 1_555 1_555
H5 C5 1_555 1_555
C6 N3 1_555 1_555
H6 C6 1_555 1_555
O6 C7 1_555 1_555
C7 C8 1_555 1_555
C8 H7 1_555 1_555
H8 C8 1_555 1_555
H9 C8 1_555 1_555
O7 C9 1_555 1_555
C9 C10 1_555 1_555
C10 H10 1_555 1_555
H11 C10 1_555 1_555
H12 C10 1_555 1_555
S1A O1A 1_555 1_555
O2A S1A 1_555 1_555
N1A C1A 1_555 1_555
N2A S1A 1_555 1_555
N3A S1A 1_555 1_555
N4A Cu1 1_555 1_555
C1A N2A 1_555 1_555
H1A C1A 1_555 1_555
C2A N2A 1_555 1_555
H2A C2A 1_555 1_555
C3A N1A 1_555 1_555
H3A C3A 1_555 1_555
C4A N3A 1_555 1_555
H4A C4A 1_555 1_555
C5A N4A 1_555 1_555
H5A C5A 1_555 1_555
C6A N3A 1_555 1_555
H6A C6A 1_555 1_555
O3F Cu1 1_555 1_555
O4F N5F 1_555 1_555
O5F N5F 1_555 1_555
N5F O3F 1_555 1_555
Cu1A N4 1_555 1_555
N1F Cu1 1_555 1_555
N4G Cu1 1_555 1_555
C8A C7 1_555 1_555
H7A C8A 1_555 1_555
H8A C8A 1_555 1_555
H9A C8A 1_555 1_555
C10A C9 1_555 1_555
H10A C10A 1_555 1_555
H11A C10A 1_555 1_555
H12A C10A 1_555 1_555
N2 C1 1_555 1_555
C2 C3 1_555 1_555
C5 C6 1_555 1_555
N1A Cu1A 1_555 1_555
N4A C4A 1_555 1_555
C2A C3A 1_555 1_555
C5A C6A 1_555 1_555

#END
