
#######################################################################
#
#                 Cambridge Crystallographic Data Centre
#                                CCDC 
#
#######################################################################
#
# If this CIF has been generated from an entry in the Cambridge 
# Structural Database, then it will include bibliographic, chemical, 
# crystal, experimental, refinement or atomic coordinate data resulting 
# from the CCDC's data processing and validation procedures.
#
#######################################################################

data_VUKYEH
_symmetry_cell_setting           monoclinic
_symmetry_space_group_name_H-M   'C 2/c'
_symmetry_Int_Tables_number      15
_space_group_name_Hall           '-C 2yn'
loop_
_symmetry_equiv_pos_site_id
_symmetry_equiv_pos_as_xyz
1 x,y,z
2 -x,y,1/2-z
3 1/2+x,1/2+y,z
4 1/2-x,1/2+y,1/2-z
5 -x,-y,-z
6 x,-y,1/2+z
7 1/2-x,1/2-y,-z
8 1/2+x,1/2-y,1/2+z
_cell_length_a                   17.052(3)
_cell_length_b                   10.831(2)
_cell_length_c                   12.777(3)
_cell_angle_alpha                90
_cell_angle_beta                 119.06(3)
_cell_angle_gamma                90
_cell_volume                     2062.72
loop_
_atom_site_label
_atom_site_type_symbol
_atom_site_fract_x
_atom_site_fract_y
_atom_site_fract_z
Ni1 Ni 0.5000 0.0000 1.0000
S1 S 0.36511(5) -0.49518(7) 0.87877(7)
S2 S 0.5000 0.11661(8) 1.2500
O1 O 0.33589(15) -0.5760(2) 0.9395(2)
O2 O 0.43363(14) -0.52245(19) 0.8510(2)
O3 O 0.49529(13) 0.03582(19) 1.15509(17)
O4 O 0.41941(17) 0.1912(2) 1.2022(2)
N1 N 0.45361(14) -0.1788(2) 1.0098(2)
N2 N 0.39413(15) -0.3636(2) 0.9549(2)
N3 N 0.27490(14) -0.4572(2) 0.7511(2)
N4 N 0.13567(14) -0.4524(2) 0.6064(2)
C1 C 0.44669(18) -0.2738(2) 0.9447(2)
H1 H 0.4739 -0.2804 0.8970
C2 C 0.3668(3) -0.3204(3) 1.0330(4)
H2 H 0.3302 -0.3605 1.0574
C3 C 0.4041(2) -0.2079(3) 1.0669(4)
H3 H 0.3977 -0.1567 1.1208
C4 C 0.18833(17) -0.4935(3) 0.7134(2)
H4 H 0.1699 -0.5410 0.7581
C5 C 0.18862(18) -0.3865(3) 0.5713(3)
H5 H 0.1676 -0.3463 0.4982
C6 C 0.27459(19) -0.3889(3) 0.6579(3)
H6 H 0.3235 -0.3529 0.6564
O3A O 0.50471(13) 0.03582(19) 1.34491(17)
O4A O 0.58059(17) 0.1912(2) 1.2978(2)
S1D S 0.63489(5) 0.49518(7) 1.12123(7)
O1D O 0.66411(15) 0.5760(2) 1.0605(2)
O2D O 0.56637(14) 0.52245(19) 1.1490(2)
N1D N 0.54639(14) 0.1788(2) 0.9902(2)
N2D N 0.60587(15) 0.3636(2) 1.0451(2)
N3D N 0.72510(14) 0.4572(2) 1.2489(2)
N4D N 0.86433(14) 0.4524(2) 1.3936(2)
C1D C 0.55331(18) 0.2738(2) 1.0553(2)
H1D H 0.5261 0.2804 1.1030
C2D C 0.6332(3) 0.3204(3) 0.9670(4)
H2D H 0.6698 0.3605 0.9426
C3D C 0.5959(2) 0.2079(3) 0.9331(4)
H3D H 0.6023 0.1567 0.8792
C4D C 0.81167(17) 0.4935(3) 1.2866(2)
H4D H 0.8301 0.5410 1.2419
C5D C 0.81138(18) 0.3865(3) 1.4287(3)
H5D H 0.8324 0.3463 1.5018
C6D C 0.72541(19) 0.3889(3) 1.3421(3)
H6D H 0.6765 0.3529 1.3436
Ni1A Ni 0.5000 0.0000 1.5000
Ni1C Ni 0.0000 -0.5000 0.5000
Ni1C_2 Ni 1.0000 0.5000 1.5000
O3D O 0.50471(13) -0.03582(19) 0.84491(17)
N4C N 0.36433(14) 0.0476(2) 0.8936(2)
N4G N 0.63567(14) -0.0476(2) 1.1064(2)
loop_
_geom_bond_atom_site_label_1
_geom_bond_atom_site_label_2
_geom_bond_site_symmetry_1
_geom_bond_site_symmetry_2
Ni1 O3 1_555 1_555
S1 O1 1_555 1_555
S2 O3 1_555 1_555
O2 S1 1_555 1_555
O4 S2 1_555 1_555
N1 Ni1 1_555 1_555
N2 S1 1_555 1_555
N3 S1 1_555 1_555
N4 C4 1_555 1_555
C1 N1 1_555 1_555
H1 C1 1_555 1_555
C2 N2 1_555 1_555
H2 C2 1_555 1_555
C3 N1 1_555 1_555
H3 C3 1_555 1_555
C4 N3 1_555 1_555
H4 C4 1_555 1_555
C5 N4 1_555 1_555
H5 C5 1_555 1_555
C6 N3 1_555 1_555
H6 C6 1_555 1_555
O3A S2 1_555 1_555
O4A S2 1_555 1_555
S1D O1D 1_555 1_555
O2D S1D 1_555 1_555
N1D Ni1 1_555 1_555
N2D S1D 1_555 1_555
N3D S1D 1_555 1_555
N4D C4D 1_555 1_555
C1D N1D 1_555 1_555
H1D C1D 1_555 1_555
C2D N2D 1_555 1_555
H2D C2D 1_555 1_555
C3D N1D 1_555 1_555
H3D C3D 1_555 1_555
C4D N3D 1_555 1_555
H4D C4D 1_555 1_555
C5D N4D 1_555 1_555
H5D C5D 1_555 1_555
C6D N3D 1_555 1_555
H6D C6D 1_555 1_555
Ni1A O3A 1_555 1_555
Ni1C N4 1_555 1_555
Ni1C_2 N4D 1_555 1_555
O3D Ni1 1_555 1_555
N4C Ni1 1_555 1_555
N4G Ni1 1_555 1_555
N2 C1 1_555 1_555
C2 C3 1_555 1_555
C5 C6 1_555 1_555
N2D C1D 1_555 1_555
C2D C3D 1_555 1_555
C5D C6D 1_555 1_555

#END
