
#######################################################################
#
#                 Cambridge Crystallographic Data Centre
#                                CCDC 
#
#######################################################################
#
# If this CIF has been generated from an entry in the Cambridge 
# Structural Database, then it will include bibliographic, chemical, 
# crystal, experimental, refinement or atomic coordinate data resulting 
# from the CCDC's data processing and validation procedures.
#
#######################################################################

data_VUKYAD
_symmetry_cell_setting           orthorhombic
_symmetry_space_group_name_H-M   'P n m a'
_symmetry_Int_Tables_number      62
_space_group_name_Hall           '-P 2ac 2n'
loop_
_symmetry_equiv_pos_site_id
_symmetry_equiv_pos_as_xyz
1 x,y,z
2 1/2-x,-y,1/2+z
3 -x,1/2+y,-z
4 1/2+x,1/2-y,1/2-z
5 -x,-y,-z
6 1/2+x,y,1/2-z
7 x,1/2-y,z
8 1/2-x,1/2+y,1/2+z
_cell_length_a                   9.3444(19)
_cell_length_b                   17.647(4)
_cell_length_c                   7.3560(15)
_cell_angle_alpha                90
_cell_angle_beta                 90
_cell_angle_gamma                90
_cell_volume                     1213.01
loop_
_atom_site_label
_atom_site_type_symbol
_atom_site_fract_x
_atom_site_fract_y
_atom_site_fract_z
Mn1 Mn 0.5000 0.5000 0.5000
S1 S 0.70952(5) 0.7500 0.04243(7)
O1 O 0.82946(16) 0.7500 0.1593(2)
O2 O 0.71571(17) 0.7500 -0.1489(2)
N1 N 0.52557(13) 0.58287(7) 0.26956(17)
N2 N 0.60859(13) 0.67643(7) 0.10303(16)
N3 N 0.66271(14) 0.56778(8) 0.64472(17)
N4 N 0.74516(12) 0.56827(7) 0.76521(16)
C1 C 0.61593(15) 0.63912(8) 0.2661(2)
H1 H 0.6769 0.6521 0.3611
C2 C 0.50409(16) 0.64110(9) -0.0018(2)
H2 H 0.4744 0.6541 -0.1184
C3 C 0.45526(15) 0.58378(8) 0.1028(2)
H3 H 0.3845 0.5497 0.0682
N5 N 0.82641(14) 0.57194(7) 0.88618(18)
N1F N 0.52557(13) 0.91713(7) 0.26956(17)
N2F N 0.60859(13) 0.82357(7) 0.10303(16)
C1F C 0.61593(15) 0.86088(8) 0.2661(2)
H1F H 0.6769 0.8479 0.3611
C2F C 0.50409(16) 0.85890(9) -0.0018(2)
H2F H 0.4744 0.8459 -0.1184
C3F C 0.45526(15) 0.91622(8) 0.1028(2)
H3F H 0.3845 0.9503 0.0682
N3D N 0.33729(14) 0.43222(8) 0.35528(17)
N4D N 0.25484(12) 0.43173(7) 0.23479(16)
N5D N 0.17359(14) 0.42806(7) 0.11382(18)
Mn1A Mn 0.0000 0.5000 0.0000
Mn1A_2 Mn 1.0000 0.5000 1.0000
Mn1B Mn 0.5000 1.0000 0.5000
N1D N 0.47443(13) 0.41713(7) 0.73044(17)
N5A N 0.67359(14) 0.42806(7) 0.38618(18)
N5E N 0.32641(14) 0.57194(7) 0.61382(18)
loop_
_geom_bond_atom_site_label_1
_geom_bond_atom_site_label_2
_geom_bond_site_symmetry_1
_geom_bond_site_symmetry_2
Mn1 N1 1_555 1_555
S1 O1 1_555 1_555
O2 S1 1_555 1_555
N1 C1 1_555 1_555
N2 S1 1_555 1_555
N3 Mn1 1_555 1_555
N4 N3 1_555 1_555
C1 N2 1_555 1_555
H1 C1 1_555 1_555
C2 N2 1_555 1_555
H2 C2 1_555 1_555
C3 N1 1_555 1_555
H3 C3 1_555 1_555
N5 N4 1_555 1_555
N1F C1F 1_555 1_555
N2F S1 1_555 1_555
C1F N2F 1_555 1_555
H1F C1F 1_555 1_555
C2F N2F 1_555 1_555
H2F C2F 1_555 1_555
C3F N1F 1_555 1_555
H3F C3F 1_555 1_555
N3D Mn1 1_555 1_555
N4D N3D 1_555 1_555
N5D N4D 1_555 1_555
Mn1A N5D 1_555 1_555
Mn1A_2 N5 1_555 1_555
Mn1B N1F 1_555 1_555
N1D Mn1 1_555 1_555
N5A Mn1 1_555 1_555
N5E Mn1 1_555 1_555
C2 C3 1_555 1_555
C2F C3F 1_555 1_555

#END
