
#######################################################################
#
#                 Cambridge Crystallographic Data Centre
#                                CCDC 
#
#######################################################################
#
# If this CIF has been generated from an entry in the Cambridge 
# Structural Database, then it will include bibliographic, chemical, 
# crystal, experimental, refinement or atomic coordinate data resulting 
# from the CCDC's data processing and validation procedures.
#
#######################################################################

data_VULFAK01
_symmetry_cell_setting           monoclinic
_symmetry_space_group_name_H-M   'P 2/c'
_symmetry_Int_Tables_number      13
_space_group_name_Hall           '-P 2yc'
loop_
_symmetry_equiv_pos_site_id
_symmetry_equiv_pos_as_xyz
1 x,y,z
2 -x,y,1/2-z
3 -x,-y,-z
4 x,-y,1/2+z
_cell_length_a                   8.9160(7)
_cell_length_b                   15.1027(14)
_cell_length_c                   8.5126(8)
_cell_angle_alpha                90
_cell_angle_beta                 96.304(5)
_cell_angle_gamma                90
_cell_volume                     1139.34
loop_
_atom_site_label
_atom_site_type_symbol
_atom_site_fract_x
_atom_site_fract_y
_atom_site_fract_z
C1 C 0.2652(17) 0.3517(10) -0.0087(19)
C2 C 0.3858(17) 0.3499(11) 0.1201(19)
C3 C 0.3497(19) 0.3481(12) 0.274(2)
H1 H 0.2483 0.3481 0.2908
C4 C 0.5409(18) 0.3462(11) 0.0918(18)
C5 C 0.1364(19) 0.1666(11) -0.396(2)
C6 C 0.0672(19) 0.0803(11) -0.453(2)
C7 C -0.081(2) 0.0749(13) -0.523(3)
C8 C 0.146(2) 0.0044(14) -0.433(3)
H2 H 0.2457 0.0060 -0.3878
O1 O 0.1739(13) 0.4217(8) -0.4128(15)
O2 O 0.0000 0.5268(12) -0.2500
O4 O 0.1443(12) 0.3946(8) 0.0042(14)
O5 O 0.2772(12) 0.3129(7) -0.1399(13)
O6 O 0.5821(13) 0.3403(8) -0.0544(12)
O7 O 0.5516(16) 0.1421(10) -0.461(2)
O8 O 0.2752(14) 0.1656(8) -0.3483(18)
O9 O 0.0538(14) 0.2349(8) -0.4041(15)
O10 O -0.162(2) 0.1534(12) -0.562(3)
Gd1 Gd 0.0000 0.36063(8) -0.2500
Gd2 Gd 0.5000 0.24745(8) -0.2500
C1A C 0.7348(17) 0.3517(10) 0.5087(19)
C2A C 0.6142(17) 0.3499(11) 0.3799(19)
C3A C 0.6503(19) 0.3481(12) 0.226(2)
H1A H 0.7517 0.3481 0.2092
C4A C 0.4591(18) 0.3462(11) 0.4082(18)
C5B C -0.1364(19) -0.1666(11) -0.604(2)
C6B C -0.0672(19) -0.0803(11) -0.547(2)
C7B C 0.081(2) -0.0749(13) -0.477(3)
C8B C -0.146(2) -0.0044(14) -0.567(3)
H2B H -0.2457 -0.0060 -0.6122
O1A O -0.1739(13) 0.4217(8) -0.0872(15)
O4A O 0.8557(12) 0.3946(8) 0.4958(14)
O4A_2 O -0.1443(12) 0.3946(8) -0.5042(14)
O5A O 0.7228(12) 0.3129(7) 0.6399(13)
O5A_2 O -0.2772(12) 0.3129(7) -0.3601(13)
O5A_3 O 0.7228(12) 0.3129(7) -0.3601(13)
O6A O 0.4179(13) 0.3403(8) 0.5544(12)
O6A_2 O 0.4179(13) 0.3403(8) -0.4456(12)
O7A O 0.4484(16) 0.1421(10) -0.039(2)
O8B O -0.2752(14) -0.1656(8) -0.6517(18)
O8A O 0.7248(14) 0.1656(8) -0.1517(18)
O9B O -0.0538(14) -0.2349(8) -0.5959(15)
O9A O -0.0538(14) 0.2349(8) -0.0959(15)
O10B O 0.162(2) -0.1534(12) -0.438(3)
Gd1_2 Gd 1.0000 0.36063(8) 0.7500
Gd1B Gd 0.0000 -0.36063(8) -0.7500
Gd2_2 Gd 0.5000 0.24745(8) 0.7500
Gd2B Gd -0.5000 -0.24745(8) -0.7500
O3 O 0.375(13) 0.063(8) -0.682(16)
loop_
_geom_bond_atom_site_label_1
_geom_bond_atom_site_label_2
_geom_bond_site_symmetry_1
_geom_bond_site_symmetry_2
C1 C2 1_555 1_555
C2 C3 1_555 1_555
C3 H1 1_555 1_555
C4 C2 1_555 1_555
C5 C6 1_555 1_555
C6 C7 1_555 1_555
C7 O10 1_555 1_555
C8 C6 1_555 1_555
H2 C8 1_555 1_555
O1 Gd1 1_555 1_555
O2 Gd1 1_555 1_555
O4 C1 1_555 1_555
O5 C1 1_555 1_555
O6 C4 1_555 1_555
O7 Gd2 1_555 1_555
O8 C5 1_555 1_555
O9 C5 1_555 1_555
Gd1 O4 1_555 1_555
Gd2 O5 1_555 1_555
C1A C2A 1_555 1_555
C2A C3A 1_555 1_555
C3A C4 1_555 1_555
H1A C3A 1_555 1_555
C4A C3 1_555 1_555
C5B C6B 1_555 1_555
C6B C7B 1_555 1_555
C7B C8 1_555 1_555
C8B C7 1_555 1_555
H2B C8B 1_555 1_555
O1A Gd1 1_555 1_555
O4A C1A 1_555 1_555
O4A_2 Gd1 1_555 1_555
O5A C1A 1_555 1_555
O5A_2 Gd1 1_555 1_555
O5A_3 Gd2 1_555 1_555
O6A C4A 1_555 1_555
O6A_2 Gd2 1_555 1_555
O7A Gd2 1_555 1_555
O8B C5B 1_555 1_555
O8A Gd2 1_555 1_555
O9B C5B 1_555 1_555
O9A Gd1 1_555 1_555
O10B C7B 1_555 1_555
Gd1_2 O4A 1_555 1_555
Gd1B O9B 1_555 1_555
Gd2_2 O5A 1_555 1_555
Gd2B O8B 1_555 1_555
O5 Gd1 1_555 1_555
O6 Gd2 1_555 1_555
O8 Gd2 1_555 1_555
O9 Gd1 1_555 1_555
C2A C4A 1_555 1_555
C6B C8B 1_555 1_555
O5A Gd1_2 1_555 1_555
O6A Gd2_2 1_555 1_555

#END
