
#######################################################################
#
#                 Cambridge Crystallographic Data Centre
#                                CCDC 
#
#######################################################################
#
# If this CIF has been generated from an entry in the Cambridge 
# Structural Database, then it will include bibliographic, chemical, 
# crystal, experimental, refinement or atomic coordinate data resulting 
# from the CCDC's data processing and validation procedures.
#
#######################################################################

data_VULFAK
_symmetry_cell_setting           monoclinic
_symmetry_space_group_name_H-M   'P 2/c'
_symmetry_Int_Tables_number      13
_space_group_name_Hall           '-P 2yc'
loop_
_symmetry_equiv_pos_site_id
_symmetry_equiv_pos_as_xyz
1 x,y,z
2 -x,y,1/2-z
3 -x,-y,-z
4 x,-y,1/2+z
_cell_length_a                   8.9065(2)
_cell_length_b                   15.0925(3)
_cell_length_c                   8.5028(2)
_cell_angle_alpha                90
_cell_angle_beta                 96.2600(10)
_cell_angle_gamma                90
_cell_volume                     1136.14
loop_
_atom_site_label
_atom_site_type_symbol
_atom_site_fract_x
_atom_site_fract_y
_atom_site_fract_z
C1 C 0.2664(4) 0.1481(2) 0.4890(4)
C2 C 0.3882(4) 0.1510(2) 0.6221(4)
C3 C 0.5408(4) 0.1549(3) 0.5932(4)
C4 C 0.3497(4) 0.1515(3) 0.7769(4)
H1 H 0.2483 0.1495 0.7938
C5 C 0.1383(4) 0.3326(3) 0.1016(5)
C6 C 0.0662(4) 0.4189(3) 0.0474(6)
C7 C -0.0812(5) 0.4224(3) -0.0263(8)
C8 C 0.1464(5) 0.4973(3) 0.0723(8)
H2 H 0.2453 0.4958 0.1205
O1 O 0.1738(3) 0.0788(2) 0.0882(4)
H3 H 0.2504 0.1074 0.0660
H4 H 0.1951 0.0187 0.0705
O2 O 0.0000 -0.0253(3) 0.2500
H5 H -0.0412 -0.0626 0.3031
O3 O 0.1443(3) 0.1060(2) 0.5063(3)
O4 O 0.2772(3) 0.18722(19) 0.3597(3)
O5 O 0.5815(3) 0.1592(2) 0.4462(3)
O6 O 0.4473(5) 0.3574(3) 0.4579(7)
H6 H 0.5035 0.3766 0.5276
H7 H 0.3831 0.4002 0.4327
O7 O 0.2751(3) 0.3330(2) 0.1523(5)
O8 O 0.0552(4) 0.2647(2) 0.0951(4)
O9 O -0.1617(5) 0.3465(3) -0.0682(7)
Gd1 Gd 0.0000 0.138920(14) 0.2500
Gd2 Gd 0.5000 0.252410(15) 0.2500
C1A C 0.7336(4) 0.1481(2) 1.0110(4)
C2A C 0.6118(4) 0.1510(2) 0.8779(4)
C3A C 0.4592(4) 0.1549(3) 0.9068(4)
C4A C 0.6503(4) 0.1515(3) 0.7231(4)
H1A H 0.7517 0.1495 0.7062
C5B C -0.1383(4) 0.6674(3) -0.1016(5)
C6B C -0.0662(4) 0.5811(3) -0.0474(6)
C7B C 0.0812(5) 0.5776(3) 0.0263(8)
C8B C -0.1464(5) 0.5027(3) -0.0723(8)
H2B H -0.2453 0.5042 -0.1205
O1A O -0.1738(3) 0.0788(2) 0.4118(4)
H3A H -0.2504 0.1074 0.4340
H4A H -0.1951 0.0187 0.4295
H5A H 0.0412 -0.0626 0.1969
O3A O 0.8557(3) 0.1060(2) 0.9937(3)
O3A_2 O -0.1443(3) 0.1060(2) -0.0063(3)
O4A O 0.7228(3) 0.18722(19) 1.1403(3)
O4A_2 O -0.2772(3) 0.18722(19) 0.1403(3)
O4A_3 O 0.7228(3) 0.18722(19) 0.1403(3)
O5A O 0.4185(3) 0.1592(2) 1.0538(3)
O5A_2 O 0.4185(3) 0.1592(2) 0.0538(3)
O6A O 0.5527(5) 0.3574(3) 0.0421(7)
H6A H 0.4965 0.3766 -0.0276
H7A H 0.6169 0.4002 0.0673
O7B O -0.2751(3) 0.6670(2) -0.1523(5)
O7A O 0.7249(3) 0.3330(2) 0.3477(5)
O8B O -0.0552(4) 0.7353(2) -0.0951(4)
O8A O -0.0552(4) 0.2647(2) 0.4049(4)
O9B O 0.1617(5) 0.6535(3) 0.0682(7)
Gd1_2 Gd 1.0000 0.138920(14) 1.2500
Gd1B Gd 0.0000 0.861080(14) -0.2500
Gd2_2 Gd 0.5000 0.252410(15) 1.2500
Gd2B Gd -0.5000 0.747590(15) -0.2500
O10 O -0.357(4) 0.414(3) 0.683(6)
loop_
_geom_bond_atom_site_label_1
_geom_bond_atom_site_label_2
_geom_bond_site_symmetry_1
_geom_bond_site_symmetry_2
C1 C2 1_555 1_555
C2 C3 1_555 1_555
C3 O5 1_555 1_555
C4 C2 1_555 1_555
H1 C4 1_555 1_555
C5 C6 1_555 1_555
C6 C7 1_555 1_555
C7 O9 1_555 1_555
C8 C6 1_555 1_555
H2 C8 1_555 1_555
O1 H3 1_555 1_555
H4 O1 1_555 1_555
O2 H5 1_555 1_555
O3 C1 1_555 1_555
O4 C1 1_555 1_555
O5 Gd2 1_555 1_555
O6 H6 1_555 1_555
H7 O6 1_555 1_555
O7 C5 1_555 1_555
O8 C5 1_555 1_555
Gd1 O1 1_555 1_555
Gd2 O4 1_555 1_555
C1A C2A 1_555 1_555
C2A C3A 1_555 1_555
C3A C4 1_555 1_555
C4A C3 1_555 1_555
H1A C4A 1_555 1_555
C5B C6B 1_555 1_555
C6B C7B 1_555 1_555
C7B C8 1_555 1_555
C8B C7 1_555 1_555
H2B C8B 1_555 1_555
O1A Gd1 1_555 1_555
H3A O1A 1_555 1_555
H4A O1A 1_555 1_555
H5A O2 1_555 1_555
O3A C1A 1_555 1_555
O3A_2 Gd1 1_555 1_555
O4A C1A 1_555 1_555
O4A_2 Gd1 1_555 1_555
O4A_3 Gd2 1_555 1_555
O5A C3A 1_555 1_555
O5A_2 Gd2 1_555 1_555
O6A Gd2 1_555 1_555
H6A O6A 1_555 1_555
H7A O6A 1_555 1_555
O7B C5B 1_555 1_555
O7A Gd2 1_555 1_555
O8B C5B 1_555 1_555
O8A Gd1 1_555 1_555
O9B C7B 1_555 1_555
Gd1_2 O3A 1_555 1_555
Gd1B O8B 1_555 1_555
Gd2_2 O4A 1_555 1_555
Gd2B O7B 1_555 1_555
O2 Gd1 1_555 1_555
O3 Gd1 1_555 1_555
O4 Gd1 1_555 1_555
O6 Gd2 1_555 1_555
O7 Gd2 1_555 1_555
O8 Gd1 1_555 1_555
C2A C4A 1_555 1_555
C6B C8B 1_555 1_555
O4A Gd1_2 1_555 1_555
O5A Gd2_2 1_555 1_555

#END
