
#######################################################################
#
#                 Cambridge Crystallographic Data Centre
#                                CCDC 
#
#######################################################################
#
# If this CIF has been generated from an entry in the Cambridge 
# Structural Database, then it will include bibliographic, chemical, 
# crystal, experimental, refinement or atomic coordinate data resulting 
# from the CCDC's data processing and validation procedures.
#
#######################################################################

data_VULKET
_symmetry_cell_setting           monoclinic
_symmetry_space_group_name_H-M   'P 21/n'
_symmetry_Int_Tables_number      14
_space_group_name_Hall           '-P 2yn'
loop_
_symmetry_equiv_pos_site_id
_symmetry_equiv_pos_as_xyz
1 x,y,z
2 1/2-x,1/2+y,1/2-z
3 -x,-y,-z
4 1/2+x,1/2-y,1/2+z
_cell_length_a                   7.4040(15)
_cell_length_b                   26.670(5)
_cell_length_c                   8.2180(16)
_cell_angle_alpha                90
_cell_angle_beta                 99.20(3)
_cell_angle_gamma                90
_cell_volume                     1601.89
loop_
_atom_site_label
_atom_site_type_symbol
_atom_site_fract_x
_atom_site_fract_y
_atom_site_fract_z
Mn1 Mn 0.5000 0.5000 0.5000
Mn2 Mn 0.0000 0.5000 0.5000
S1 S 0.15378(8) 0.50404(2) 0.16059(7)
S2 S 0.60750(10) 0.24237(3) 0.71493(13)
S3 S 0.11336(9) 0.17900(2) 0.79647(9)
S4 S 0.12800(9) 0.32443(2) 0.72155(9)
O1 O 0.2248(2) 0.49862(6) 0.34541(18)
O2 O 0.0773(2) 0.06984(6) 0.8859(2)
O3 O 0.3464(2) 0.04632(6) 0.82008(18)
O4 O 0.3917(2) 0.44913(6) 0.66044(19)
O5 O 0.0918(2) 0.43276(6) 0.6344(2)
H1 H 0.2810 0.4738 -0.0542
H2 H 0.4284 0.4762 0.1054
H3 H 0.2846 0.4326 0.0822
H4 H 0.3466 0.5701 0.1454
H5 H 0.1977 0.5682 -0.0132
H6 H 0.1481 0.5897 0.1516
H7 H 0.541(4) 0.1274(11) 0.775(3)
H8 H 0.559(4) 0.3596(13) 0.660(4)
C1 C 0.3042(5) 0.46745(14) 0.0622(3)
C2 C 0.2191(4) 0.56501(12) 0.1047(3)
C3 C 0.2278(3) 0.07860(8) 0.8394(3)
C4 C 0.2731(3) 0.13109(8) 0.8028(3)
C5 C 0.4393(4) 0.14775(9) 0.7774(4)
C6 C 0.4405(4) 0.20001(9) 0.7520(4)
C7 C 0.2731(4) 0.22243(9) 0.7578(3)
C8 C 0.2788(4) 0.27513(9) 0.7330(3)
C9 C 0.4511(4) 0.29113(10) 0.7090(4)
C10 C 0.4611(4) 0.34307(9) 0.6832(3)
C11 C 0.2987(3) 0.36601(8) 0.6873(3)
C12 C 0.2573(3) 0.42002(8) 0.6579(3)
Mn1_2 Mn -0.5000 0.5000 0.5000
Mn1A Mn 0.0000 0.0000 1.0000
Mn1A_2 Mn 0.0000 1.0000 0.0000
Mn2A Mn -0.5000 1.0000 0.0000
Mn2A_2 Mn 0.5000 0.0000 1.0000
S1B S -0.15378(8) 0.49596(2) 0.83941(7)
S2B S -0.60750(10) 0.75763(3) 0.28507(13)
S3B S -0.11336(9) 0.82100(2) 0.20353(9)
S4B S -0.12800(9) 0.67557(2) 0.27845(9)
O1B O -0.2248(2) 0.50138(6) 0.65459(18)
O1B_2 O 0.7752(2) 0.50138(6) 0.65459(18)
O2B O -0.0773(2) 0.93016(6) 0.1141(2)
O2A O 0.4227(2) 0.56984(6) 0.6141(2)
O2C O 0.5773(2) 0.43016(6) 0.3859(2)
O3B O -0.3464(2) 0.95368(6) 0.17992(18)
O3A O 0.1536(2) 0.54632(6) 0.67992(18)
O3C O -0.1536(2) 0.45368(6) 0.32008(18)
O4B O -0.3917(2) 0.55087(6) 0.33956(19)
O4B_2 O 0.6083(2) 0.55087(6) 0.33956(19)
O5B O -0.0918(2) 0.56724(6) 0.3656(2)
H1B H -0.2810 0.5262 1.0542
H2B H -0.4284 0.5238 0.8946
H3B H -0.2846 0.5674 0.9178
H4B H -0.3466 0.4299 0.8546
H5B H -0.1977 0.4318 1.0132
H6B H -0.1481 0.4103 0.8484
H7B H -0.541(4) 0.8726(11) 0.225(3)
H8B H -0.559(4) 0.6404(13) 0.340(4)
C1B C -0.3042(5) 0.53255(14) 0.9378(3)
C2B C -0.2191(4) 0.43499(12) 0.8953(3)
C3B C -0.2278(3) 0.92140(8) 0.1606(3)
C4B C -0.2731(3) 0.86891(8) 0.1972(3)
C5B C -0.4393(4) 0.85225(9) 0.2226(4)
C6B C -0.4405(4) 0.79999(9) 0.2480(4)
C7B C -0.2731(4) 0.77757(9) 0.2422(3)
C8B C -0.2788(4) 0.72487(9) 0.2670(3)
C9B C -0.4511(4) 0.70887(10) 0.2910(4)
C10B C -0.4611(4) 0.65693(9) 0.3168(3)
C11B C -0.2987(3) 0.63399(8) 0.3127(3)
C12B C -0.2573(3) 0.57998(8) 0.3421(3)
loop_
_geom_bond_atom_site_label_1
_geom_bond_atom_site_label_2
_geom_bond_site_symmetry_1
_geom_bond_site_symmetry_2
Mn1 O1 1_555 1_555
Mn2 O1 1_555 1_555
S1 O1 1_555 1_555
S2 C6 1_555 1_555
S3 C4 1_555 1_555
S4 C8 1_555 1_555
O2 C3 1_555 1_555
O3 C3 1_555 1_555
O4 Mn1 1_555 1_555
O5 Mn2 1_555 1_555
H1 C1 1_555 1_555
H2 C1 1_555 1_555
H3 C1 1_555 1_555
H4 C2 1_555 1_555
H5 C2 1_555 1_555
H6 C2 1_555 1_555
H7 C5 1_555 1_555
H8 C10 1_555 1_555
C1 S1 1_555 1_555
C2 S1 1_555 1_555
C3 C4 1_555 1_555
C4 C5 1_555 1_555
C5 C6 1_555 1_555
C6 C7 1_555 1_555
C7 S3 1_555 1_555
C8 C7 1_555 1_555
C9 S2 1_555 1_555
C10 C9 1_555 1_555
C11 S4 1_555 1_555
C12 O4 1_555 1_555
Mn1_2 O1B 1_555 1_555
Mn1A O2 1_555 1_555
Mn1A_2 O2B 1_555 1_555
Mn2A O3B 1_555 1_555
Mn2A_2 O3 1_555 1_555
S1B O1B 1_555 1_555
S2B C6B 1_555 1_555
S3B C4B 1_555 1_555
S4B C8B 1_555 1_555
O1B Mn2 1_555 1_555
O1B_2 Mn1 1_555 1_555
O2B C3B 1_555 1_555
O2A Mn1 1_555 1_555
O2C Mn1 1_555 1_555
O3B C3B 1_555 1_555
O3A Mn2 1_555 1_555
O3C Mn2 1_555 1_555
O4B Mn1_2 1_555 1_555
O4B_2 Mn1 1_555 1_555
O5B Mn2 1_555 1_555
H1B C1B 1_555 1_555
H2B C1B 1_555 1_555
H3B C1B 1_555 1_555
H4B C2B 1_555 1_555
H5B C2B 1_555 1_555
H6B C2B 1_555 1_555
H7B C5B 1_555 1_555
H8B C10B 1_555 1_555
C1B S1B 1_555 1_555
C2B S1B 1_555 1_555
C3B C4B 1_555 1_555
C4B C5B 1_555 1_555
C5B C6B 1_555 1_555
C6B C7B 1_555 1_555
C7B S3B 1_555 1_555
C8B C7B 1_555 1_555
C9B S2B 1_555 1_555
C10B C9B 1_555 1_555
C11B S4B 1_555 1_555
C12B O4B 1_555 1_555
O5 C12 1_555 1_555
C8 C9 1_555 1_555
C10 C11 1_555 1_555
C11 C12 1_555 1_555
O5B C12B 1_555 1_555
C8B C9B 1_555 1_555
C10B C11B 1_555 1_555
C11B C12B 1_555 1_555

#END
