
#######################################################################
#
#                 Cambridge Crystallographic Data Centre
#                                CCDC 
#
#######################################################################
#
# If this CIF has been generated from an entry in the Cambridge 
# Structural Database, then it will include bibliographic, chemical, 
# crystal, experimental, refinement or atomic coordinate data resulting 
# from the CCDC's data processing and validation procedures.
#
#######################################################################

data_VULSOL
_symmetry_cell_setting           monoclinic
_symmetry_space_group_name_H-M   'P 21/c'
_symmetry_Int_Tables_number      14
_space_group_name_Hall           '-P 2ybc'
loop_
_symmetry_equiv_pos_site_id
_symmetry_equiv_pos_as_xyz
1 x,y,z
2 -x,1/2+y,1/2-z
3 -x,-y,-z
4 x,1/2-y,1/2+z
_cell_length_a                   12.262(3)
_cell_length_b                   15.196(3)
_cell_length_c                   16.977(3)
_cell_angle_alpha                90
_cell_angle_beta                 127.607(11)
_cell_angle_gamma                90
_cell_volume                     2506.08
loop_
_atom_site_label
_atom_site_type_symbol
_atom_site_fract_x
_atom_site_fract_y
_atom_site_fract_z
Mn1 Mn 0.41696(9) -0.34678(6) 0.44442(6)
O1 O 0.5809(4) -0.4259(2) 0.5592(3)
O2 O 0.6520(4) -0.5416(3) 0.6603(3)
O3 O 0.3417(4) -0.2425(3) 0.8174(3)
O4 O 0.5637(4) -0.2222(3) 0.9280(3)
N1 N 0.2173(5) -0.3393(3) 0.4199(3)
N2 N 0.4386(5) -0.2394(3) 0.5477(3)
N3 N 0.1521(5) -0.0916(3) 0.6240(3)
H1 H 0.2024 -0.0666 0.6754
N4 N -0.0358(5) -0.1676(3) 0.5089(4)
C1 C 0.4629(7) -0.2576(4) 0.8486(5)
C2 C 0.6016(5) -0.4646(4) 0.6326(4)
C3 C 0.5656(6) -0.4165(4) 0.6918(4)
C4 C 0.6571(6) -0.3593(4) 0.7646(4)
H2 H 0.7444 -0.3528 0.7814
C5 C 0.6190(6) -0.3100(4) 0.8144(4)
H3 H 0.6827 -0.2713 0.8642
C6 C 0.4923(6) -0.3168(4) 0.7924(4)
C7 C 0.3937(6) -0.3781(4) 0.7174(4)
C8 C 0.2592(6) -0.3908(4) 0.6878(4)
H4 H 0.2292 -0.3564 0.7166
C9 C 0.1725(7) -0.4517(4) 0.6187(5)
H5 H 0.0845 -0.4583 0.6007
C10 C 0.2151(7) -0.5046(4) 0.5744(5)
H6 H 0.1567 -0.5479 0.5291
C11 C 0.3428(6) -0.4928(4) 0.5976(4)
H7 H 0.3695 -0.5268 0.5665
C12 C 0.4329(5) -0.4297(4) 0.6682(4)
C13 C 0.2034(6) -0.2779(4) 0.4711(4)
C14 C 0.1077(6) -0.3871(4) 0.3526(4)
H8 H 0.1171 -0.4304 0.3184
C15 C -0.0215(6) -0.3753(4) 0.3308(5)
H9 H -0.0962 -0.4090 0.2818
C16 C -0.0365(6) -0.3140(4) 0.3820(5)
H10 H -0.1212 -0.3062 0.3692
C17 C 0.0772(6) -0.2625(4) 0.4543(4)
C18 C 0.0746(6) -0.1967(4) 0.5139(4)
C19 C 0.0150(6) -0.1050(4) 0.5760(4)
C20 C 0.1923(5) -0.1503(4) 0.5839(4)
C21 C 0.3203(6) -0.1606(4) 0.6005(4)
C22 C 0.4385(6) -0.1101(4) 0.6647(4)
H11 H 0.4398 -0.0671 0.7043
C23 C 0.5523(6) -0.1238(4) 0.6692(5)
H12 H 0.6313 -0.0903 0.7115
C24 C 0.5482(6) -0.1889(4) 0.6096(4)
H13 H 0.6263 -0.1975 0.6132
C25 C 0.3245(6) -0.2252(4) 0.5415(4)
C26 C -0.0680(6) -0.0506(4) 0.5930(4)
C27 C -0.2059(7) -0.0733(5) 0.5460(5)
H14 H -0.2418 -0.1239 0.5071
C28 C -0.2893(7) -0.0222(5) 0.5564(5)
H15 H -0.3809 -0.0380 0.5234
C29 C -0.2385(8) 0.0523(5) 0.6151(5)
H16 H -0.2949 0.0864 0.6222
C30 C -0.1027(8) 0.0753(4) 0.6632(5)
H17 H -0.0666 0.1246 0.7042
C31 C -0.0195(7) 0.0252(4) 0.6505(5)
H18 H 0.0708 0.0429 0.6813
Mn1B Mn 0.58304(9) -0.65322(6) 0.55558(6)
Mn1C Mn 0.41696(9) -0.15322(6) 0.94442(6)
O2B O 0.3480(4) -0.4584(3) 0.3397(3)
O3C O 0.3417(4) -0.2575(3) 0.3174(3)
O4C O 0.5637(4) -0.2778(3) 0.4280(3)
O5 O 0.8594(8) -0.1822(5) 1.0912(6)
loop_
_geom_bond_atom_site_label_1
_geom_bond_atom_site_label_2
_geom_bond_site_symmetry_1
_geom_bond_site_symmetry_2
Mn1 O1 1_555 1_555
O1 C2 1_555 1_555
O2 C2 1_555 1_555
O3 C1 1_555 1_555
O4 C1 1_555 1_555
N1 Mn1 1_555 1_555
N2 Mn1 1_555 1_555
N3 H1 1_555 1_555
N4 C18 1_555 1_555
C1 C6 1_555 1_555
C2 C3 1_555 1_555
C3 C4 1_555 1_555
C4 H2 1_555 1_555
C5 C4 1_555 1_555
H3 C5 1_555 1_555
C6 C5 1_555 1_555
C7 C6 1_555 1_555
C8 C7 1_555 1_555
H4 C8 1_555 1_555
C9 C8 1_555 1_555
H5 C9 1_555 1_555
C10 C9 1_555 1_555
H6 C10 1_555 1_555
C11 C10 1_555 1_555
H7 C11 1_555 1_555
C12 C3 1_555 1_555
C13 N1 1_555 1_555
C14 N1 1_555 1_555
H8 C14 1_555 1_555
C15 C14 1_555 1_555
H9 C15 1_555 1_555
C16 C15 1_555 1_555
H10 C16 1_555 1_555
C17 C13 1_555 1_555
C18 C17 1_555 1_555
C19 N3 1_555 1_555
C20 N3 1_555 1_555
C21 C20 1_555 1_555
C22 C21 1_555 1_555
H11 C22 1_555 1_555
C23 C22 1_555 1_555
H12 C23 1_555 1_555
C24 N2 1_555 1_555
H13 C24 1_555 1_555
C25 N2 1_555 1_555
C26 C19 1_555 1_555
C27 C26 1_555 1_555
H14 C27 1_555 1_555
C28 C27 1_555 1_555
H15 C28 1_555 1_555
C29 C28 1_555 1_555
H16 C29 1_555 1_555
C30 C29 1_555 1_555
H17 C30 1_555 1_555
C31 C26 1_555 1_555
H18 C31 1_555 1_555
Mn1B O2 1_555 1_555
Mn1C O3 1_555 1_555
O2B Mn1 1_555 1_555
O3C Mn1 1_555 1_555
O4C Mn1 1_555 1_555
O4 Mn1C 1_555 1_555
N4 C19 1_555 1_555
C7 C12 1_555 1_555
C11 C12 1_555 1_555
C13 C25 1_555 1_555
C16 C17 1_555 1_555
C18 C20 1_555 1_555
C21 C25 1_555 1_555
C23 C24 1_555 1_555
C30 C31 1_555 1_555

#END
