
#######################################################################
#
#                 Cambridge Crystallographic Data Centre
#                                CCDC 
#
#######################################################################
#
# If this CIF has been generated from an entry in the Cambridge 
# Structural Database, then it will include bibliographic, chemical, 
# crystal, experimental, refinement or atomic coordinate data resulting 
# from the CCDC's data processing and validation procedures.
#
#######################################################################

data_VULVUU
_symmetry_cell_setting           orthorhombic
_symmetry_space_group_name_H-M   'C m c 21'
_symmetry_Int_Tables_number      36
_space_group_name_Hall           'C 2n -2'
loop_
_symmetry_equiv_pos_site_id
_symmetry_equiv_pos_as_xyz
1 x,y,z
2 -x,-y,1/2+z
3 -x,y,z
4 x,-y,1/2+z
5 1/2+x,1/2+y,z
6 1/2-x,1/2-y,1/2+z
7 1/2-x,1/2+y,z
8 1/2+x,1/2-y,1/2+z
_cell_length_a                   26.425(3)
_cell_length_b                   27.128(3)
_cell_length_c                   10.9079(14)
_cell_angle_alpha                90
_cell_angle_beta                 90
_cell_angle_gamma                90
_cell_volume                     7819.41
loop_
_atom_site_label
_atom_site_type_symbol
_atom_site_fract_x
_atom_site_fract_y
_atom_site_fract_z
Ag1 Ag 0.086950(18) 0.130486(16) 0.33441(5)
S1 S 0.11103(16) 0.38914(11) 0.5414(3)
S2 S 0.0000 0.3998(3) 0.4499(5)
S3 S 0.11024(5) -0.13420(6) 0.52015(14)
S4 S 0.0000 -0.12940(10) 0.42476(16)
N1 N 0.10202(17) 0.20897(16) 0.3497(5)
N2 N 0.0214(11) 0.3666(5) 0.6562(15)
N3 N 0.09583(15) 0.05038(16) 0.3500(5)
N4 N 0.02583(16) -0.13260(18) 0.6484(4)
C1 C 0.0871(4) 0.2911(3) 0.2883(9)
H1 H 0.0720 0.3122 0.2319
C2 C 0.0796(4) 0.2408(3) 0.2804(11)
H2 H 0.0571 0.2292 0.2215
C3 C 0.1308(2) 0.2269(2) 0.4394(5)
H3 H 0.1457 0.2049 0.4940
C4 C 0.1397(2) 0.2768(2) 0.4552(6)
H4 H 0.1612 0.2876 0.5170
C5 C 0.1171(3) 0.3098(2) 0.3808(6)
C6 C 0.1263(5) 0.3644(3) 0.3914(11)
H5 H 0.1062 0.3813 0.3301
H6 H 0.1617 0.3710 0.3738
C7 C 0.0459(5) 0.3822(4) 0.5517(9)
C8 C 0.1299(2) -0.0192(2) 0.4516(6)
H7 H 0.1489 -0.0314 0.5167
C9 C 0.1230(3) 0.0309(2) 0.4401(5)
H8 H 0.1379 0.0518 0.4974
C10 C 0.0762(3) 0.0200(2) 0.2704(7)
H9 H 0.0572 0.0331 0.2067
C11 C 0.0821(2) -0.0306(2) 0.2752(6)
H10 H 0.0676 -0.0504 0.2151
C12 C 0.10926(15) -0.05160(17) 0.3683(4)
C13 C 0.1190(2) -0.10571(19) 0.3706(5)
H11 H 0.1534 -0.1116 0.3436
H12 H 0.0965 -0.1216 0.3124
C14 C 0.04503(18) -0.13092(18) 0.5394(4)
Ag1B Ag -0.086950(18) 0.130486(16) 0.33441(5)
Ag1C Ag 0.086950(18) -0.130486(16) 0.83441(5)
Ag1A Ag -0.086950(18) -0.130486(16) 0.83441(5)
S1B S -0.11103(16) 0.38914(11) 0.5414(3)
S3B S -0.11024(5) -0.13420(6) 0.52015(14)
N1B N -0.10202(17) 0.20897(16) 0.3497(5)
N2B N -0.0214(11) 0.3666(5) 0.6562(15)
N3B N -0.09583(15) 0.05038(16) 0.3500(5)
N4B N -0.02583(16) -0.13260(18) 0.6484(4)
N4C N 0.02583(16) 0.13260(18) 0.1484(4)
N4A N -0.02583(16) 0.13260(18) 0.1484(4)
C1B C -0.0871(4) 0.2911(3) 0.2883(9)
H1B H -0.0720 0.3122 0.2319
C2B C -0.0796(4) 0.2408(3) 0.2804(11)
H2B H -0.0571 0.2292 0.2215
C3B C -0.1308(2) 0.2269(2) 0.4394(5)
H3B H -0.1457 0.2049 0.4940
C4B C -0.1397(2) 0.2768(2) 0.4552(6)
H4B H -0.1612 0.2876 0.5170
C5B C -0.1171(3) 0.3098(2) 0.3808(6)
C6B C -0.1263(5) 0.3644(3) 0.3914(11)
H5B H -0.1062 0.3813 0.3301
H6B H -0.1617 0.3710 0.3738
C7B C -0.0459(5) 0.3822(4) 0.5517(9)
C8B C -0.1299(2) -0.0192(2) 0.4516(6)
H7B H -0.1489 -0.0314 0.5167
C9B C -0.1230(3) 0.0309(2) 0.4401(5)
H8B H -0.1379 0.0518 0.4974
C10B C -0.0762(3) 0.0200(2) 0.2704(7)
H9B H -0.0572 0.0331 0.2067
C11B C -0.0821(2) -0.0306(2) 0.2752(6)
H10B H -0.0676 -0.0504 0.2151
C12B C -0.10926(15) -0.05160(17) 0.3683(4)
C13B C -0.1190(2) -0.10571(19) 0.3706(5)
H11B H -0.1534 -0.1116 0.3436
H12B H -0.0965 -0.1216 0.3124
C14B C -0.04503(18) -0.13092(18) 0.5394(4)
Ag2 Ag 0.5000 0.02137(3) 0.28652(8)
Ag3 Ag 0.5000 0.21108(3) 0.34189(9)
S5 S 0.23228(5) 0.23409(5) 0.18747(14)
S6 S 0.22712(7) 0.12689(4) 0.27986(12)
S7 S 0.22487(5) 0.01971(5) 0.18696(14)
N5 N 0.42024(14) 0.22186(18) 0.3490(6)
N6 N 0.2416(2) 0.1524(2) 0.0584(4)
N7 N 0.2404(2) 0.1011(2) 0.0599(5)
N8 N 0.41954(14) 0.01919(17) 0.2916(5)
C15 C 0.33721(19) 0.2016(2) 0.4187(6)
H13 H 0.3167 0.1831 0.4707
C16 C 0.3892(2) 0.1943(3) 0.4194(7)
H14 H 0.4029 0.1700 0.4694
C17 C 0.39915(18) 0.2568(2) 0.2805(6)
H15 H 0.4202 0.2770 0.2340
C18 C 0.34782(17) 0.26461(17) 0.2750(5)
H16 H 0.3347 0.2895 0.2258
C19 C 0.31614(15) 0.23525(15) 0.3429(4)
C20 C 0.25952(16) 0.24308(18) 0.3390(5)
H17 H 0.2520 0.2763 0.3663
H18 H 0.2435 0.2204 0.3958
C21 C 0.23576(16) 0.17073(19) 0.1676(4)
C22 C 0.23354(16) 0.08283(18) 0.1664(4)
C23 C 0.25846(15) 0.00807(18) 0.3287(5)
H19 H 0.2472 0.0314 0.3903
H20 H 0.2502 -0.0248 0.3575
C24 C 0.31544(14) 0.01240(15) 0.3138(4)
C25 C 0.3418(2) 0.0459(3) 0.3785(7)
H21 H 0.3255 0.0658 0.4357
C26 C 0.3943(2) 0.0507(3) 0.3590(7)
H22 H 0.4115 0.0769 0.3949
C27 C 0.39344(19) -0.0112(2) 0.2241(8)
H23 H 0.4104 -0.0306 0.1669
C28 C 0.34133(19) -0.0158(2) 0.2346(8)
H24 H 0.3242 -0.0386 0.1864
S5B S 0.76772(5) 0.23409(5) 0.18747(14)
S6B S 0.77288(7) 0.12689(4) 0.27986(12)
S7B S 0.77513(5) 0.01971(5) 0.18696(14)
N5B N 0.57976(14) 0.22186(18) 0.3490(6)
N6B N 0.7584(2) 0.1524(2) 0.0584(4)
N7B N 0.7596(2) 0.1011(2) 0.0599(5)
N8B N 0.58046(14) 0.01919(17) 0.2916(5)
C15B C 0.66279(19) 0.2016(2) 0.4187(6)
H13B H 0.6833 0.1831 0.4707
C16B C 0.6108(2) 0.1943(3) 0.4194(7)
H14B H 0.5971 0.1700 0.4694
C17B C 0.60085(18) 0.2568(2) 0.2805(6)
H15B H 0.5798 0.2770 0.2340
C18B C 0.65218(17) 0.26461(17) 0.2750(5)
H16B H 0.6653 0.2895 0.2258
C19B C 0.68386(15) 0.23525(15) 0.3429(4)
C20B C 0.74048(16) 0.24308(18) 0.3390(5)
H17B H 0.7480 0.2763 0.3663
H18B H 0.7565 0.2204 0.3958
C21B C 0.76424(16) 0.17073(19) 0.1676(4)
C22B C 0.76646(16) 0.08283(18) 0.1664(4)
C23B C 0.74154(15) 0.00807(18) 0.3287(5)
H19B H 0.7528 0.0314 0.3903
H20B H 0.7498 -0.0248 0.3575
C24B C 0.68456(14) 0.01240(15) 0.3138(4)
C25B C 0.6582(2) 0.0459(3) 0.3785(7)
H21B H 0.6745 0.0658 0.4357
C26B C 0.6057(2) 0.0507(3) 0.3590(7)
H22B H 0.5885 0.0769 0.3949
C27B C 0.60656(19) -0.0112(2) 0.2241(8)
H23B H 0.5896 -0.0306 0.1669
C28B C 0.65867(19) -0.0158(2) 0.2346(8)
H24B H 0.6758 -0.0386 0.1864
Cl1 Cl 0.0000 0.15106(11) 0.57675(17)
O1 O 0.0000 0.1483(4) 0.4486(6)
O2 O 0.0477(4) 0.1371(3) 0.6254(8)
O3 O 0.0000 0.2013(5) 0.6116(16)
O2B O -0.0477(4) 0.1371(3) 0.6254(8)
Cl2 Cl 0.23474(5) 0.12223(4) 0.63555(11)
O7 O 0.2430(4) 0.1288(3) 0.7548(6)
O8 O 0.2202(3) 0.1634(2) 0.5755(6)
O9 O 0.1943(6) 0.0938(7) 0.637(2)
O10 O 0.2696(3) 0.0966(3) 0.5681(7)
Cl3 Cl 0.0000 0.40058(7) 0.07065(17)
O4 O 0.0000 0.4541(2) 0.0667(7)
O5 O 0.0470(3) 0.3861(2) 0.1232(7)
O6 O 0.0000 0.3851(3) -0.0549(6)
O5B O -0.0470(3) 0.3861(2) 0.1232(7)
loop_
_geom_bond_atom_site_label_1
_geom_bond_atom_site_label_2
_geom_bond_site_symmetry_1
_geom_bond_site_symmetry_2
Ag1 N1 1_555 1_555
Ag2 N8 1_555 1_555
Ag3 N5 1_555 1_555
Cl1 O1 1_555 1_555
Cl2 O7 1_555 1_555
Cl3 O4 1_555 1_555
S1 C6 1_555 1_555
S2 C7 1_555 1_555
S3 C13 1_555 1_555
S4 C14 1_555 1_555
S5 C20 1_555 1_555
S6 C21 1_555 1_555
S7 C22 1_555 1_555
O2 Cl1 1_555 1_555
O3 Cl1 1_555 1_555
O5 Cl3 1_555 1_555
O6 Cl3 1_555 1_555
O8 Cl2 1_555 1_555
O9 Cl2 1_555 1_555
O10 Cl2 1_555 1_555
N1 C2 1_555 1_555
N2 C7 1_555 1_555
N3 Ag1 1_555 1_555
N4 C14 1_555 1_555
N5 C16 1_555 1_555
N6 N7 1_555 1_555
N7 C22 1_555 1_555
N8 C26 1_555 1_555
C1 H1 1_555 1_555
C2 C1 1_555 1_555
H2 C2 1_555 1_555
C3 N1 1_555 1_555
H3 C3 1_555 1_555
C4 C3 1_555 1_555
H4 C4 1_555 1_555
C5 C1 1_555 1_555
C6 C5 1_555 1_555
H5 C6 1_555 1_555
H6 C6 1_555 1_555
C7 S1 1_555 1_555
C8 H7 1_555 1_555
C9 N3 1_555 1_555
H8 C9 1_555 1_555
C10 N3 1_555 1_555
H9 C10 1_555 1_555
C11 C10 1_555 1_555
H10 C11 1_555 1_555
C12 C8 1_555 1_555
C13 C12 1_555 1_555
H11 C13 1_555 1_555
H12 C13 1_555 1_555
C14 S3 1_555 1_555
C15 H13 1_555 1_555
C16 C15 1_555 1_555
H14 C16 1_555 1_555
C17 N5 1_555 1_555
H15 C17 1_555 1_555
C18 C17 1_555 1_555
H16 C18 1_555 1_555
C19 C15 1_555 1_555
C20 C19 1_555 1_555
H17 C20 1_555 1_555
H18 C20 1_555 1_555
C21 S5 1_555 1_555
C22 S6 1_555 1_555
C23 S7 1_555 1_555
H19 C23 1_555 1_555
H20 C23 1_555 1_555
C24 C23 1_555 1_555
C25 C24 1_555 1_555
H21 C25 1_555 1_555
C26 C25 1_555 1_555
H22 C26 1_555 1_555
C27 N8 1_555 1_555
H23 C27 1_555 1_555
C28 C24 1_555 1_555
H24 C28 1_555 1_555
Ag1B N1B 1_555 1_555
Ag1C N4 1_555 1_555
Ag1A N4B 1_555 1_555
S1B C6B 1_555 1_555
S3B C13B 1_555 1_555
S5B C20B 1_555 1_555
S6B C21B 1_555 1_555
S7B C22B 1_555 1_555
O2B Cl1 1_555 1_555
O5B Cl3 1_555 1_555
N1B C2B 1_555 1_555
N2B N2 1_555 1_555
N3B Ag1B 1_555 1_555
N4B N4 1_555 1_555
N4C Ag1 1_555 1_555
N4A Ag1B 1_555 1_555
N5B Ag3 1_555 1_555
N6B N7B 1_555 1_555
N7B C22B 1_555 1_555
N8B Ag2 1_555 1_555
C1B H1B 1_555 1_555
C2B C1B 1_555 1_555
H2B C2B 1_555 1_555
C3B N1B 1_555 1_555
H3B C3B 1_555 1_555
C4B C3B 1_555 1_555
H4B C4B 1_555 1_555
C5B C1B 1_555 1_555
C6B C5B 1_555 1_555
H5B C6B 1_555 1_555
H6B C6B 1_555 1_555
C7B S2 1_555 1_555
C8B H7B 1_555 1_555
C9B N3B 1_555 1_555
H8B C9B 1_555 1_555
C10B N3B 1_555 1_555
H9B C10B 1_555 1_555
C11B C10B 1_555 1_555
H10B C11B 1_555 1_555
C12B C8B 1_555 1_555
C13B C12B 1_555 1_555
H11B C13B 1_555 1_555
H12B C13B 1_555 1_555
C14B S4 1_555 1_555
C15B H13B 1_555 1_555
C16B N5B 1_555 1_555
H14B C16B 1_555 1_555
C17B N5B 1_555 1_555
H15B C17B 1_555 1_555
C18B C17B 1_555 1_555
H16B C18B 1_555 1_555
C19B C15B 1_555 1_555
C20B C19B 1_555 1_555
H17B C20B 1_555 1_555
H18B C20B 1_555 1_555
C21B S5B 1_555 1_555
C22B S6B 1_555 1_555
C23B S7B 1_555 1_555
H19B C23B 1_555 1_555
H20B C23B 1_555 1_555
C24B C23B 1_555 1_555
C25B C24B 1_555 1_555
H21B C25B 1_555 1_555
C26B N8B 1_555 1_555
H22B C26B 1_555 1_555
C27B N8B 1_555 1_555
H23B C27B 1_555 1_555
C28B C24B 1_555 1_555
H24B C28B 1_555 1_555
N6 C21 1_555 1_555
C4 C5 1_555 1_555
C8 C9 1_555 1_555
C11 C12 1_555 1_555
C18 C19 1_555 1_555
C27 C28 1_555 1_555
S1B C7B 1_555 1_555
S3B C14B 1_555 1_555
N2B C7B 1_555 1_555
N4B C14B 1_555 1_555
N4C N4A 1_555 1_555
N6B C21B 1_555 1_555
C4B C5B 1_555 1_555
C8B C9B 1_555 1_555
C11B C12B 1_555 1_555
C15B C16B 1_555 1_555
C18B C19B 1_555 1_555
C25B C26B 1_555 1_555
C27B C28B 1_555 1_555

#END
