
#######################################################################
#
#                 Cambridge Crystallographic Data Centre
#                                CCDC 
#
#######################################################################
#
# If this CIF has been generated from an entry in the Cambridge 
# Structural Database, then it will include bibliographic, chemical, 
# crystal, experimental, refinement or atomic coordinate data resulting 
# from the CCDC's data processing and validation procedures.
#
#######################################################################

data_VULVOO
_symmetry_cell_setting           monoclinic
_symmetry_space_group_name_H-M   'C 2/m'
_symmetry_Int_Tables_number      12
_space_group_name_Hall           '-C 2y'
loop_
_symmetry_equiv_pos_site_id
_symmetry_equiv_pos_as_xyz
1 x,y,z
2 -x,y,-z
3 1/2+x,1/2+y,z
4 1/2-x,1/2+y,-z
5 -x,-y,-z
6 x,-y,z
7 1/2-x,1/2-y,-z
8 1/2+x,1/2-y,z
_cell_length_a                   18.034(3)
_cell_length_b                   14.2859(9)
_cell_length_c                   8.9174(10)
_cell_angle_alpha                90
_cell_angle_beta                 109.460(5)
_cell_angle_gamma                90
_cell_volume                     2166.17
loop_
_atom_site_label
_atom_site_type_symbol
_atom_site_fract_x
_atom_site_fract_y
_atom_site_fract_z
Ag1 Ag 0.0000 0.15446(3) 0.0000
S1 S 0.15483(5) 0.20398(6) 0.87175(9)
S2 S 0.19597(7) 0.0000 0.81006(15)
N1 N 0.07811(17) 0.1907(2) 0.2451(3)
N2 N 0.09226(15) 0.04829(18) 0.9314(3)
C1 C 0.1034(2) 0.2676(3) 0.4945(4)
H1 H 0.0898 0.3146 0.5527
C2 C 0.0613(2) 0.2567(3) 0.3357(4)
H2 H 0.0194 0.2968 0.2891
C3 C 0.1403(2) 0.1358(2) 0.3155(4)
H3 H 0.1542 0.0908 0.2543
C4 C 0.1844(2) 0.1429(2) 0.4741(4)
H4 H 0.2269 0.1031 0.5182
C5 C 0.16528(19) 0.2094(2) 0.5671(3)
C6 C 0.2126(2) 0.2198(3) 0.7416(4)
H5 H 0.2362 0.2816 0.7593
H6 H 0.2550 0.1743 0.7695
C7 C 0.14332(17) 0.0833(2) 0.8720(3)
Ag1D Ag 0.0000 -0.15446(3) 0.0000
Ag1_2 Ag 0.0000 0.15446(3) 1.0000
Ag1D_2 Ag 0.0000 -0.15446(3) 1.0000
S1E S 0.15483(5) -0.20398(6) 0.87175(9)
N1E N 0.07811(17) -0.1907(2) 0.2451(3)
N1A N -0.07811(17) 0.1907(2) -0.2451(3)
N2E N 0.09226(15) -0.04829(18) 0.9314(3)
N2_2 N 0.09226(15) 0.04829(18) -0.0686(3)
N2A N -0.09226(15) 0.04829(18) 0.0686(3)
C1E C 0.1034(2) -0.2676(3) 0.4945(4)
H1E H 0.0898 -0.3146 0.5527
C2E C 0.0613(2) -0.2567(3) 0.3357(4)
H2E H 0.0194 -0.2968 0.2891
C3E C 0.1403(2) -0.1358(2) 0.3155(4)
H3E H 0.1542 -0.0908 0.2543
C4E C 0.1844(2) -0.1429(2) 0.4741(4)
H4E H 0.2269 -0.1031 0.5182
C5E C 0.16528(19) -0.2094(2) 0.5671(3)
C6E C 0.2126(2) -0.2198(3) 0.7416(4)
H5E H 0.2362 -0.2816 0.7593
H6E H 0.2550 -0.1743 0.7695
C7E C 0.14332(17) -0.0833(2) 0.8720(3)
Cl1 Cl 0.34862(9) 0.0000 0.23352(17)
O3 O 0.3547(4) -0.0795(3) 0.1473(5)
O4 O 0.2771(4) 0.0000 0.2524(12)
O5 O 0.4089(5) 0.0000 0.3798(8)
O3E O 0.3547(4) 0.0795(3) 0.1473(5)
O1 O 0.0000 0.0000 0.5000
O2 O 0.3491(5) 0.0000 0.6673(12)
C8 C 0.4110(6) 0.0000 0.8095(12)
loop_
_geom_bond_atom_site_label_1
_geom_bond_atom_site_label_2
_geom_bond_site_symmetry_1
_geom_bond_site_symmetry_2
Ag1 N1 1_555 1_555
Cl1 O3 1_555 1_555
S1 C6 1_555 1_555
S2 C7 1_555 1_555
O2 C8 1_555 1_555
O4 Cl1 1_555 1_555
O5 Cl1 1_555 1_555
N1 C2 1_555 1_555
N2 C7 1_555 1_555
C1 H1 1_555 1_555
C2 C1 1_555 1_555
H2 C2 1_555 1_555
C3 N1 1_555 1_555
H3 C3 1_555 1_555
C4 C3 1_555 1_555
H4 C4 1_555 1_555
C5 C1 1_555 1_555
C6 C5 1_555 1_555
H5 C6 1_555 1_555
H6 C6 1_555 1_555
C7 S1 1_555 1_555
Ag1D N1E 1_555 1_555
Ag1_2 N2 1_555 1_555
Ag1D_2 N2E 1_555 1_555
S1E C6E 1_555 1_555
O3E Cl1 1_555 1_555
N1E C2E 1_555 1_555
N1A Ag1 1_555 1_555
N2E N2 1_555 1_555
N2_2 Ag1 1_555 1_555
N2A Ag1 1_555 1_555
C1E H1E 1_555 1_555
C2E C1E 1_555 1_555
H2E C2E 1_555 1_555
C3E N1E 1_555 1_555
H3E C3E 1_555 1_555
C4E C3E 1_555 1_555
H4E C4E 1_555 1_555
C5E C1E 1_555 1_555
C6E C5E 1_555 1_555
H5E C6E 1_555 1_555
H6E C6E 1_555 1_555
C7E S2 1_555 1_555
C4 C5 1_555 1_555
S1E C7E 1_555 1_555
N2E C7E 1_555 1_555
C4E C5E 1_555 1_555

#END
