
#######################################################################
#
#                 Cambridge Crystallographic Data Centre
#                                CCDC 
#
#######################################################################
#
# If this CIF has been generated from an entry in the Cambridge 
# Structural Database, then it will include bibliographic, chemical, 
# crystal, experimental, refinement or atomic coordinate data resulting 
# from the CCDC's data processing and validation procedures.
#
#######################################################################

data_VUMFAL
_symmetry_cell_setting           triclinic
_symmetry_space_group_name_H-M   'P -1'
_symmetry_Int_Tables_number      2
_space_group_name_Hall           '-P 1'
loop_
_symmetry_equiv_pos_site_id
_symmetry_equiv_pos_as_xyz
1 x,y,z
2 -x,-y,-z
_cell_length_a                   13.3845(11)
_cell_length_b                   14.7152(13)
_cell_length_c                   16.7344(13)
_cell_angle_alpha                70.215(4)
_cell_angle_beta                 75.210(4)
_cell_angle_gamma                73.588(4)
_cell_volume                     2928.11
loop_
_atom_site_label
_atom_site_type_symbol
_atom_site_fract_x
_atom_site_fract_y
_atom_site_fract_z
Pr1 Pr -0.22310(2) 0.48781(2) 0.765413(19)
Pr2 Pr -0.30218(2) 0.21117(2) 0.551180(19)
Ba1 Ba 0.28798(3) 0.47263(3) 0.73470(2)
Ba2 Ba 0.02501(3) 0.64011(2) 0.88152(2)
O1 O -0.0231(3) 0.4336(3) 0.7317(3)
O2 O 0.1354(3) 0.4589(4) 0.6547(3)
O3 O -0.3336(3) 0.6065(4) 0.6563(3)
O4 O -0.3497(4) 0.6996(5) 0.5205(4)
O5 O -0.1573(3) 0.6182(3) 0.7873(3)
O6 O -0.1755(3) 0.7457(3) 0.8363(3)
O7 O -0.4036(3) 0.4509(3) 0.8331(3)
O8 O -0.5687(3) 0.4873(4) 0.9046(3)
O9 O -0.1785(4) 0.4175(3) 0.9122(3)
O10 O -0.1168(5) 0.2932(4) 1.0206(3)
O11 O -0.2399(4) 0.3882(3) 0.6763(3)
O12 O -0.2130(4) 0.2456(4) 0.6471(3)
O13 O -0.1178(3) 0.3583(3) 0.2871(3)
O14 O -0.2401(3) 0.3281(3) 0.4056(3)
O15 O -0.1879(3) 0.0563(3) 0.6305(3)
O16 O -0.0331(4) -0.0030(4) 0.6757(3)
O17 O -0.2798(4) 0.1186(4) 0.4457(3)
O18 O -0.2954(4) -0.0104(5) 0.4112(4)
O19 O -0.4312(4) 0.1892(4) 0.6907(3)
O20 O -0.5416(5) 0.1076(4) 0.7961(4)
O21 O 0.0870(3) 0.4483(3) 0.8504(3)
H1 H 0.0373 0.4384 0.8225
H2 H 0.0964 0.3946 0.9029
O22 O 0.2494(3) 0.6047(4) 0.8368(3)
H3 H 0.2826 0.5738 0.8874
H4 H 0.2736 0.6651 0.8036
O23 O 0.0355(6) 0.8353(5) 0.8111(5)
O24 O -0.1178(4) 0.7276(4) 1.0085(4)
O25 O 0.1256(3) 0.4729(3) 1.0102(3)
O26 O 0.3066(4) 0.3724(4) 0.9151(3)
O27 O 0.4948(4) 0.3590(4) 0.7547(4)
O28 O 0.4468(4) 0.5986(5) 0.6914(4)
O29 O 0.2877(5) 0.2786(5) 0.7608(6)
O30 O 0.3876(5) 0.4374(5) 0.5770(4)
O31 O -0.4559(4) 0.2949(5) 0.4783(4)
O32 O -0.3738(5) 0.3932(4) 0.5642(4)
N1 N -0.1235(4) 0.5693(4) 0.6129(3)
N2 N -0.3568(3) 0.6067(4) 0.8484(3)
N3 N -0.1816(4) 0.2982(4) 0.8283(3)
N4 N -0.1046(4) 0.1783(3) 0.4882(3)
N5 N -0.4010(4) 0.0690(4) 0.5974(3)
C1 C 0.0375(4) 0.4757(4) 0.6651(4)
C2 C -0.0178(4) 0.5514(4) 0.5943(4)
C3 C 0.0372(5) 0.5997(5) 0.5165(4)
H5 H 0.1108 0.5870 0.5054
C4 C -0.0215(5) 0.6680(5) 0.4554(4)
H6 H 0.0125 0.7019 0.4025
C5 C -0.1310(5) 0.6851(5) 0.4740(4)
H7 H -0.1713 0.7299 0.4337
C6 C -0.1788(4) 0.6350(4) 0.5529(4)
C7 C -0.2984(5) 0.6482(5) 0.5787(4)
C8 C -0.2121(4) 0.6840(5) 0.8229(4)
C9 C -0.3287(5) 0.6819(4) 0.8555(4)
C10 C -0.3996(5) 0.7523(5) 0.8918(5)
H8 H -0.3780 0.8054 0.8955
C11 C -0.5031(6) 0.7420(6) 0.9224(6)
H9 H -0.5530 0.7892 0.9455
C12 C -0.5316(5) 0.6613(5) 0.9184(5)
H10 H -0.6001 0.6514 0.9409
C13 C -0.4566(4) 0.5949(5) 0.8800(4)
C14 C -0.4791(5) 0.5036(5) 0.8722(4)
C15 C -0.1490(5) 0.3272(5) 0.9507(4)
C16 C -0.1532(5) 0.2551(5) 0.9060(4)
C17 C -0.1263(6) 0.1529(5) 0.9401(5)
H11 H -0.1065 0.1249 0.9941
C18 C -0.1297(7) 0.0939(5) 0.8925(5)
H12 H -0.1127 0.0254 0.9143
C19 C -0.1586(6) 0.1375(5) 0.8117(5)
H13 H -0.1609 0.0991 0.7783
C20 C -0.1838(5) 0.2395(5) 0.7826(4)
C21 C -0.2151(4) 0.2946(5) 0.6965(4)
C22 C -0.1468(4) 0.3126(4) 0.3626(4)
C23 C -0.0653(4) 0.2319(4) 0.4104(4)
C24 C 0.0410(4) 0.2164(5) 0.3758(4)
H14 H 0.0660 0.2537 0.3208
C25 C 0.1096(5) 0.1427(5) 0.4262(4)
H15 H 0.1820 0.1312 0.4055
C26 C 0.0703(4) 0.0870(5) 0.5063(4)
H16 H 0.1152 0.0372 0.5403
C27 C -0.0380(5) 0.1072(4) 0.5351(4)
C28 C -0.0893(5) 0.0483(4) 0.6214(4)
C29 C -0.3137(5) 0.0403(5) 0.4614(5)
C30 C -0.3801(5) 0.0077(5) 0.5480(4)
C31 C -0.4156(6) -0.0790(6) 0.5772(5)
H17 H -0.3998 -0.1201 0.5420
C32 C -0.4748(7) -0.1047(6) 0.6588(6)
H18 H -0.4984 -0.1635 0.6796
C33 C -0.4982(6) -0.0414(6) 0.7091(5)
H19 H -0.5390 -0.0563 0.7640
C34 C -0.4602(5) 0.0443(5) 0.6766(5)
C35 C -0.4789(5) 0.1190(5) 0.7260(4)
Ba1A Ba -0.28798(3) 0.52737(3) 0.26530(2)
Ba2A Ba -0.02501(3) 0.35989(2) 1.11848(2)
Ba2A_2 Ba -0.02501(3) 0.35989(2) 0.11848(2)
O10A O 0.1168(5) 0.7068(4) 0.9794(3)
O13A O 0.1178(3) 0.6417(3) 0.7129(3)
O14A O 0.2401(3) 0.6719(3) 0.5944(3)
O25A O -0.1256(3) 0.5271(3) 0.9898(3)
O33 O 0.8763(5) 0.9254(5) 0.2993(4)
O34 O 0.9024(5) 0.7734(4) 0.2286(4)
O35 O 0.8785(7) 0.8855(6) 0.0600(5)
O36 O 0.5938(14) 0.8296(7) 0.0585(6)
O37 O 0.3751(7) 0.9896(7) 0.0641(5)
O38 O 0.6917(5) 0.2240(4) 0.2733(4)
O39 O 0.7811(7) 0.0905(6) 0.1719(5)
O40 O 0.6745(6) 0.0178(5) 0.0854(5)
O41 O 0.2628(5) 0.0502(4) 0.2002(4)
loop_
_geom_bond_atom_site_label_1
_geom_bond_atom_site_label_2
_geom_bond_site_symmetry_1
_geom_bond_site_symmetry_2
Pr1 O1 1_555 1_555
Pr2 O12 1_555 1_555
Ba1 O2 1_555 1_555
Ba2 O6 1_555 1_555
O1 C1 1_555 1_555
O2 C1 1_555 1_555
O3 Pr1 1_555 1_555
O4 C7 1_555 1_555
O5 Pr1 1_555 1_555
O6 C8 1_555 1_555
O7 Pr1 1_555 1_555
O8 C14 1_555 1_555
O9 Pr1 1_555 1_555
O10 C15 1_555 1_555
O11 Pr1 1_555 1_555
O12 C21 1_555 1_555
O13 C22 1_555 1_555
O14 Pr2 1_555 1_555
O15 Pr2 1_555 1_555
O16 C28 1_555 1_555
O17 Pr2 1_555 1_555
O18 C29 1_555 1_555
O19 Pr2 1_555 1_555
O20 C35 1_555 1_555
O21 Ba1 1_555 1_555
H1 O21 1_555 1_555
H2 O21 1_555 1_555
O22 Ba1 1_555 1_555
H3 O22 1_555 1_555
H4 O22 1_555 1_555
O23 Ba2 1_555 1_555
O24 Ba2 1_555 1_555
O25 Ba2 1_555 1_555
O26 Ba1 1_555 1_555
O27 Ba1 1_555 1_555
O28 Ba1 1_555 1_555
O29 Ba1 1_555 1_555
O30 Ba1 1_555 1_555
O31 Pr2 1_555 1_555
O32 Pr2 1_555 1_555
N1 Pr1 1_555 1_555
N2 Pr1 1_555 1_555
N3 Pr1 1_555 1_555
N4 Pr2 1_555 1_555
N5 Pr2 1_555 1_555
C1 C2 1_555 1_555
C2 N1 1_555 1_555
C3 C2 1_555 1_555
H5 C3 1_555 1_555
C4 C3 1_555 1_555
H6 C4 1_555 1_555
C5 C4 1_555 1_555
H7 C5 1_555 1_555
C6 N1 1_555 1_555
C7 O3 1_555 1_555
C8 O5 1_555 1_555
C9 N2 1_555 1_555
C10 C9 1_555 1_555
H8 C10 1_555 1_555
C11 C10 1_555 1_555
H9 C11 1_555 1_555
C12 C11 1_555 1_555
H10 C12 1_555 1_555
C13 N2 1_555 1_555
C14 O7 1_555 1_555
C15 O9 1_555 1_555
C16 N3 1_555 1_555
C17 C16 1_555 1_555
H11 C17 1_555 1_555
C18 C17 1_555 1_555
H12 C18 1_555 1_555
C19 C18 1_555 1_555
H13 C19 1_555 1_555
C20 N3 1_555 1_555
C21 O11 1_555 1_555
C22 O14 1_555 1_555
C23 N4 1_555 1_555
C24 C23 1_555 1_555
H14 C24 1_555 1_555
C25 C24 1_555 1_555
H15 C25 1_555 1_555
C26 C25 1_555 1_555
H16 C26 1_555 1_555
C27 N4 1_555 1_555
C28 O15 1_555 1_555
C29 O17 1_555 1_555
C30 N5 1_555 1_555
C31 C30 1_555 1_555
H17 C31 1_555 1_555
C32 C31 1_555 1_555
H18 C32 1_555 1_555
C33 C32 1_555 1_555
H19 C33 1_555 1_555
C34 N5 1_555 1_555
C35 O19 1_555 1_555
Ba1A O13 1_555 1_555
Ba2A O10 1_555 1_555
Ba2A_2 O13 1_555 1_555
O10A Ba2 1_555 1_555
O13A Ba1 1_555 1_555
O14A Ba1 1_555 1_555
O25A Ba2 1_555 1_555
Ba2 O21 1_555 1_555
Ba2 O22 1_555 1_555
Ba2 O13A 1_555 1_555
O14 Ba1A 1_555 1_555
O25 Ba2A 1_555 1_555
C5 C6 1_555 1_555
C6 C7 1_555 1_555
C8 C9 1_555 1_555
C12 C13 1_555 1_555
C13 C14 1_555 1_555
C15 C16 1_555 1_555
C19 C20 1_555 1_555
C20 C21 1_555 1_555
C22 C23 1_555 1_555
C26 C27 1_555 1_555
C27 C28 1_555 1_555
C29 C30 1_555 1_555
C33 C34 1_555 1_555
C34 C35 1_555 1_555
Ba2A O25A 1_555 1_555

#END
