
#######################################################################
#
#                 Cambridge Crystallographic Data Centre
#                                CCDC 
#
#######################################################################
#
# If this CIF has been generated from an entry in the Cambridge 
# Structural Database, then it will include bibliographic, chemical, 
# crystal, experimental, refinement or atomic coordinate data resulting 
# from the CCDC's data processing and validation procedures.
#
#######################################################################

data_VUNBIQ
_symmetry_cell_setting           trigonal
_symmetry_space_group_name_H-M   'P -3'
_symmetry_Int_Tables_number      147
_space_group_name_Hall           '-P 3'
loop_
_symmetry_equiv_pos_site_id
_symmetry_equiv_pos_as_xyz
1 x,y,z
2 -y,x-y,z
3 -x+y,-x,z
4 -x,-y,-z
5 y,-x+y,-z
6 x-y,x,-z
_cell_length_a                   10.894(2)
_cell_length_b                   10.894(2)
_cell_length_c                   8.4503(16)
_cell_angle_alpha                90
_cell_angle_beta                 90
_cell_angle_gamma                120
_cell_volume                     868.515
loop_
_atom_site_label
_atom_site_type_symbol
_atom_site_fract_x
_atom_site_fract_y
_atom_site_fract_z
Zn1 Zn 0.0000 0.0000 0.0000
N1 N 0.3656(2) 0.0507(2) 0.2525(3)
N2 N 0.3432(2) 0.1401(2) 0.3445(3)
N3 N 0.1801(2) 0.0473(2) 0.1513(2)
C1 C 0.4816(3) -0.0468(3) 0.4267(3)
H1 H 0.5483 -0.0834 0.4187
H2 H 0.3850 -0.1292 0.4392
C2 C 0.4879(3) 0.0303(3) 0.2736(3)
H3 H 0.5756 0.1241 0.2733
H4 H 0.4928 -0.0245 0.1829
C3 C 0.2302(3) 0.1335(3) 0.2798(3)
H5 H 0.1874 0.1847 0.3195
C4 C 0.2690(2) -0.0024(3) 0.1387(3)
H6 H 0.2641 -0.0666 0.0596
Zn1_2 Zn -1.0000 -1.0000 1.0000
Zn1_3 Zn 0.0000 1.0000 1.0000
Zn1_4 Zn 1.0000 0.0000 1.0000
N1C N 0.6344(2) -0.0507(2) 0.7475(3)
N1A N -0.0507(2) 0.3149(3) 0.2525(3)
N1D N 0.0507(2) 0.6851(3) 0.7475(3)
N1B N -0.3149(3) -0.3656(2) 0.2525(3)
N1E N -0.6851(3) -0.6344(2) 0.7475(3)
N2C N 0.6568(2) -0.1401(2) 0.6555(3)
N2A N -0.1401(2) 0.2031(3) 0.3445(3)
N2D N 0.1401(2) 0.7969(3) 0.6555(3)
N2B N -0.2031(3) -0.3432(2) 0.3445(3)
N2E N -0.7969(3) -0.6568(2) 0.6555(3)
N3C N 0.8199(2) -0.0473(2) 0.8487(2)
N3A N -0.0473(2) 0.1328(3) 0.1513(2)
N3D N 0.0473(2) 0.8672(3) 0.8487(2)
N3B N -0.1328(3) -0.1801(2) 0.1513(2)
N3E N -0.8672(3) -0.8199(2) 0.8487(2)
N3C_2 N -0.1801(2) -0.0473(2) -0.1513(2)
N3D_2 N 0.0473(2) -0.1328(3) -0.1513(2)
N3E_2 N 0.1328(3) 0.1801(2) -0.1513(2)
C1C C 0.5184(3) 0.0468(3) 0.5733(3)
C1A C 0.0468(3) 0.5284(4) 0.4267(3)
C1D C -0.0468(3) 0.4716(4) 0.5733(3)
C1B C -0.5284(4) -0.4816(3) 0.4267(3)
C1E C -0.4716(4) -0.5184(3) 0.5733(3)
H1C H 0.4517 0.0834 0.5813
H1A H 0.0834 0.6317 0.4187
H1D H -0.0834 0.3683 0.5813
H1B H -0.6317 -0.5483 0.4187
H1E H -0.3683 -0.4517 0.5813
H2C H 0.6150 0.1292 0.5608
H2A H 0.1292 0.5142 0.4392
H2D H -0.1292 0.4858 0.5608
H2B H -0.5142 -0.3850 0.4392
H2E H -0.4858 -0.6150 0.5608
C2C C 0.5121(3) -0.0303(3) 0.7264(3)
C2A C -0.0303(3) 0.4576(4) 0.2736(3)
C2D C 0.0303(3) 0.5424(4) 0.7264(3)
C2B C -0.4576(4) -0.4879(3) 0.2736(3)
C2E C -0.5424(4) -0.5121(3) 0.7264(3)
H3C H 0.4244 -0.1241 0.7267
H3A H -0.1241 0.4515 0.2733
H3D H 0.1241 0.5485 0.7267
H3B H -0.4515 -0.5756 0.2733
H3E H -0.5485 -0.4244 0.7267
H4C H 0.5072 0.0245 0.8171
H4A H 0.0245 0.5173 0.1829
H4D H -0.0245 0.4827 0.8171
H4B H -0.5173 -0.4928 0.1829
H4E H -0.4827 -0.5072 0.8171
C3C C 0.7698(3) -0.1335(3) 0.7202(3)
C3A C -0.1335(3) 0.0967(4) 0.2798(3)
C3D C 0.1335(3) 0.9033(4) 0.7202(3)
C3B C -0.0967(4) -0.2302(3) 0.2798(3)
C3E C -0.9033(4) -0.7698(3) 0.7202(3)
H5C H 0.8126 -0.1847 0.6805
H5A H -0.1847 0.0027 0.3195
H5D H 0.1847 0.9973 0.6805
H5B H -0.0027 -0.1874 0.3195
H5E H -0.9973 -0.8126 0.6805
C4C C 0.7310(2) 0.0024(3) 0.8613(3)
C4A C 0.0024(3) 0.2714(4) 0.1387(3)
C4D C -0.0024(3) 0.7286(4) 0.8613(3)
C4B C -0.2714(4) -0.2690(2) 0.1387(3)
C4E C -0.7286(4) -0.7310(2) 0.8613(3)
H6C H 0.7359 0.0666 0.9404
H6A H 0.0666 0.3307 0.0596
H6D H -0.0666 0.6693 0.9404
H6B H -0.3307 -0.2641 0.0596
H6E H -0.6693 -0.7359 0.9404
B1 B 0.3333 0.6667 0.0520(6)
F1 F 0.3333 0.6667 0.2122(5)
F2 F 0.4699(2) 0.7450(2) 0.0012(3)
F2A F 0.2550(2) 0.7249(3) 0.0012(3)
F2B F 0.2751(3) 0.5301(2) 0.0012(3)
loop_
_geom_bond_atom_site_label_1
_geom_bond_atom_site_label_2
_geom_bond_site_symmetry_1
_geom_bond_site_symmetry_2
Zn1 N3 1_555 1_555
B1 F1 1_555 1_555
F2 B1 1_555 1_555
N1 N2 1_555 1_555
N2 C3 1_555 1_555
N3 C3 1_555 1_555
C1 H1 1_555 1_555
H2 C1 1_555 1_555
C2 N1 1_555 1_555
H3 C2 1_555 1_555
H4 C2 1_555 1_555
C3 H5 1_555 1_555
C4 N1 1_555 1_555
H6 C4 1_555 1_555
Zn1_2 N3E 1_555 1_555
Zn1_3 N3D 1_555 1_555
Zn1_4 N3C 1_555 1_555
F2A B1 1_555 1_555
F2B B1 1_555 1_555
N1C N2C 1_555 1_555
N1A N2A 1_555 1_555
N1D N2D 1_555 1_555
N1B N2B 1_555 1_555
N1E N2E 1_555 1_555
N2C C3C 1_555 1_555
N2A C3A 1_555 1_555
N2D C3D 1_555 1_555
N2B C3B 1_555 1_555
N2E C3E 1_555 1_555
N3C C3C 1_555 1_555
N3A Zn1 1_555 1_555
N3D C3D 1_555 1_555
N3B Zn1 1_555 1_555
N3E C3E 1_555 1_555
N3C_2 Zn1 1_555 1_555
N3D_2 Zn1 1_555 1_555
N3E_2 Zn1 1_555 1_555
C1C C1 1_555 1_555
C1A C1D 1_555 1_555
C1D H1D 1_555 1_555
C1B C1E 1_555 1_555
C1E H1E 1_555 1_555
H1C C1C 1_555 1_555
H1A C1A 1_555 1_555
H1B C1B 1_555 1_555
H2C C1C 1_555 1_555
H2A C1A 1_555 1_555
H2D C1D 1_555 1_555
H2B C1B 1_555 1_555
H2E C1E 1_555 1_555
C2C N1C 1_555 1_555
C2A N1A 1_555 1_555
C2D N1D 1_555 1_555
C2B N1B 1_555 1_555
C2E N1E 1_555 1_555
H3C C2C 1_555 1_555
H3A C2A 1_555 1_555
H3D C2D 1_555 1_555
H3B C2B 1_555 1_555
H3E C2E 1_555 1_555
H4C C2C 1_555 1_555
H4A C2A 1_555 1_555
H4D C2D 1_555 1_555
H4B C2B 1_555 1_555
H4E C2E 1_555 1_555
C3C H5C 1_555 1_555
C3A N3A 1_555 1_555
C3D H5D 1_555 1_555
C3B N3B 1_555 1_555
C3E H5E 1_555 1_555
H5A C3A 1_555 1_555
H5B C3B 1_555 1_555
C4C N1C 1_555 1_555
C4A N1A 1_555 1_555
C4D N1D 1_555 1_555
C4B N1B 1_555 1_555
C4E N1E 1_555 1_555
H6C C4C 1_555 1_555
H6A C4A 1_555 1_555
H6D C4D 1_555 1_555
H6B C4B 1_555 1_555
H6E C4E 1_555 1_555
N3 C4 1_555 1_555
C1 C2 1_555 1_555
N3C C4C 1_555 1_555
N3A C4A 1_555 1_555
N3D C4D 1_555 1_555
N3B C4B 1_555 1_555
N3E C4E 1_555 1_555
C1C C2C 1_555 1_555
C1A C2A 1_555 1_555
C1D C2D 1_555 1_555
C1B C2B 1_555 1_555
C1E C2E 1_555 1_555

#END
