
#######################################################################
#
#                 Cambridge Crystallographic Data Centre
#                                CCDC 
#
#######################################################################
#
# If this CIF has been generated from an entry in the Cambridge 
# Structural Database, then it will include bibliographic, chemical, 
# crystal, experimental, refinement or atomic coordinate data resulting 
# from the CCDC's data processing and validation procedures.
#
#######################################################################

data_VUNBOW
_symmetry_cell_setting           rhombohedral
_symmetry_space_group_name_H-M   'R -3'
_symmetry_Int_Tables_number      148
_space_group_name_Hall           '-R 3'
loop_
_symmetry_equiv_pos_site_id
_symmetry_equiv_pos_as_xyz
1 x,y,z
2 -y,x-y,z
3 -x+y,-x,z
4 2/3+x,1/3+y,1/3+z
5 2/3-y,1/3+x-y,1/3+z
6 2/3-x+y,1/3-x,1/3+z
7 1/3+x,2/3+y,2/3+z
8 1/3-y,2/3+x-y,2/3+z
9 1/3-x+y,2/3-x,2/3+z
10 -x,-y,-z
11 y,-x+y,-z
12 x-y,x,-z
13 1/3-x,2/3-y,2/3-z
14 1/3+y,2/3-x+y,2/3-z
15 1/3+x-y,2/3+x,2/3-z
16 2/3-x,1/3-y,1/3-z
17 2/3+y,1/3-x+y,1/3-z
18 2/3+x-y,1/3+x,1/3-z
_cell_length_a                   18.9230(17)
_cell_length_b                   18.9230(17)
_cell_length_c                   25.307(2)
_cell_angle_alpha                90
_cell_angle_beta                 90
_cell_angle_gamma                120
_cell_volume                     7847.86
loop_
_atom_site_label
_atom_site_type_symbol
_atom_site_fract_x
_atom_site_fract_y
_atom_site_fract_z
Zn1 Zn 0.6667 0.3333 0.49554(2)
N1 N 0.89809(16) 0.41718(16) 0.57153(10)
N2 N 0.85581(18) 0.34616(19) 0.59845(12)
N3 N 0.77294(16) 0.36466(16) 0.54383(10)
N4 N 1.10701(16) 0.56507(17) 0.74049(10)
N5 N 1.15094(18) 0.63288(18) 0.71022(12)
N6 N 1.22707(15) 0.63083(16) 0.77798(10)
C1 C 0.9863(2) 0.4710(2) 0.57912(13)
H1 H 1.0077 0.5116 0.5501
H2 H 1.0135 0.4380 0.5768
C2 C 1.0081(2) 0.5159(2) 0.63165(12)
H3 H 0.9712 0.5381 0.6378
H4 H 1.0645 0.5626 0.6295
C3 C 1.0022(2) 0.4628(2) 0.67872(13)
H5 H 0.9467 0.4146 0.6800
H6 H 1.0413 0.4430 0.6737
C4 C 1.02029(19) 0.5081(2) 0.73108(13)
H7 H 0.9905 0.5387 0.7322
H8 H 0.9991 0.4676 0.7601
C5 C 0.7811(2) 0.3172(2) 0.58103(13)
H9 H 0.7364 0.2674 0.5933
C6 C 0.8482(2) 0.4272(2) 0.53964(12)
H10 H 0.8641 0.4728 0.5170
C7 C 1.2223(2) 0.6699(2) 0.73405(12)
H11 H 1.2668 0.7198 0.7217
C8 C 1.15280(19) 0.5655(2) 0.78020(12)
H12 H 1.1350 0.5246 0.8067
Zn1F Zn 0.0000 -0.0000 0.16221(2)
Zn1C Zn 1.3334 0.6666 0.82887(2)
Zn1D Zn 0.3334 0.6667 0.82887(2)
N1F N 0.23142(16) 0.08385(16) 0.23820(10)
N1A N 0.58282(16) 0.48091(23) 0.57153(10)
N2F N 0.18914(18) 0.01283(19) 0.26512(12)
N2A N 0.65384(19) 0.50965(26) 0.59845(12)
N3F N 0.10627(16) 0.03133(16) 0.21050(10)
N3A N 0.63534(16) 0.40828(23) 0.54383(10)
N3B N 0.59172(23) 0.22706(16) 0.54383(10)
N4F N 0.44034(16) 0.23174(17) 0.40716(10)
N4A N 0.43493(17) 0.54194(23) 0.74049(10)
N5F N 0.48427(18) 0.29955(18) 0.37689(12)
N5A N 0.36712(18) 0.51806(25) 0.71022(12)
N6F N 0.56040(15) 0.29750(16) 0.44465(10)
N6A N 0.36917(16) 0.59624(22) 0.77798(10)
N6G N 0.70250(16) 0.26291(22) 0.44465(10)
N6H N 0.73709(22) 0.43960(15) 0.44465(10)
C1F C 0.3196(2) 0.1377(2) 0.24579(13)
C1A C 0.5290(2) 0.5153(3) 0.57912(13)
H1F H 0.3410 0.1783 0.2168
H1A H 0.4884 0.4961 0.5501
H2F H 0.3468 0.1047 0.2435
H2A H 0.5620 0.5755 0.5768
C2F C 0.3414(2) 0.1826(2) 0.29832(12)
C2A C 0.4841(2) 0.4922(3) 0.63165(12)
H3F H 0.3045 0.2048 0.3045
H3A H 0.4619 0.4331 0.6378
H4F H 0.3978 0.2293 0.2962
H4A H 0.4374 0.5019 0.6295
C3F C 0.3355(2) 0.1295(2) 0.34539(13)
C3A C 0.5372(2) 0.5394(3) 0.67872(13)
H5F H 0.2800 0.0813 0.3467
H5A H 0.5854 0.5321 0.6800
H6F H 0.3746 0.1097 0.3404
H6A H 0.5570 0.5983 0.6737
C4F C 0.35362(19) 0.1748(2) 0.39775(13)
C4A C 0.4919(2) 0.51219(28) 0.73108(13)
H7F H 0.3238 0.2054 0.3989
H7A H 0.4613 0.4518 0.7322
H8F H 0.3324 0.1343 0.4268
H8A H 0.5324 0.5315 0.7601
C5F C 0.1144(2) -0.0161(2) 0.24770(13)
C5A C 0.6828(2) 0.4639(3) 0.58103(13)
H9F H 0.0697 -0.0659 0.2600
H9A H 0.7326 0.4690 0.5933
C6F C 0.1815(2) 0.0939(2) 0.20631(12)
C6A C 0.5728(2) 0.4210(3) 0.53964(12)
H10F H 0.1974 0.1395 0.1837
H10A H 0.5272 0.3913 0.5170
C7F C 0.5556(2) 0.3366(2) 0.40072(12)
C7A C 0.3301(2) 0.5524(3) 0.73405(12)
H11F H 0.6001 0.3865 0.3884
H11A H 0.2802 0.5470 0.7217
C8F C 0.48613(19) 0.2322(2) 0.44687(12)
C8A C 0.4345(2) 0.58730(28) 0.78020(12)
H12F H 0.4683 0.1913 0.4734
H12A H 0.4754 0.6104 0.8067
Zn2 Zn 0.6667 0.3333 0.8333
N7 N 0.63012(18) 0.49716(18) 0.92800(12)
N8 N 0.68922(19) 0.49839(19) 0.95956(13)
N9 N 0.67632(18) 0.42991(17) 0.88407(12)
C9 C 0.5270(2) 0.4831(2) 0.99072(14)
H13 H 0.5613 0.4837 1.0204
H14 H 0.4922 0.4258 0.9791
C10 C 0.5811(2) 0.5333(2) 0.94543(15)
H15 H 0.5472 0.5338 0.9158
H16 H 0.6174 0.5903 0.9571
C11 C 0.7151(2) 0.4573(2) 0.93131(14)
H17 H 0.7572 0.4476 0.9429
C12 C 0.6233(2) 0.4571(2) 0.88409(14)
H18 H 0.5860 0.4486 0.8564
Zn2I Zn 0.3333 0.6667 1.1667
Zn2J Zn 0.3333 -0.3334 1.1667
Zn2K Zn 1.3334 0.6667 1.1667
N7I N 0.36988(18) 0.50284(18) 1.07200(12)
N7A N 0.50284(18) 0.13296(25) 0.92800(12)
N7J N 0.49716(18) -0.13296(25) 1.07200(12)
N7B N 0.86704(25) 0.36988(18) 0.92800(12)
N7K N 1.13296(25) 0.63012(18) 1.07200(12)
N8I N 0.31078(19) 0.50161(19) 1.04044(13)
N8A N 0.50161(19) 0.19083(27) 0.95956(13)
N8J N 0.49839(19) -0.19083(27) 1.04044(13)
N8B N 0.80917(27) 0.31078(19) 0.95956(13)
N8K N 1.19083(27) 0.68922(19) 1.04044(13)
N9I N 0.32368(18) 0.57009(17) 1.11593(12)
N9A N 0.57009(17) 0.24641(25) 0.88407(12)
N9J N 0.42991(17) -0.24641(25) 1.11593(12)
N9B N 0.75359(25) 0.32368(18) 0.88407(12)
N9K N 1.24641(25) 0.67632(18) 1.11593(12)
N9L N 0.65701(18) 0.23676(17) 0.78260(12)
N9M N 0.76324(17) 0.42026(25) 0.78260(12)
N9N N 0.57974(25) 0.34299(18) 0.78260(12)
C9I C 0.4730(2) 0.5169(2) 1.00928(14)
C9A C 0.5169(2) 0.0439(3) 0.99072(14)
C9J C 0.4831(2) -0.0439(3) 1.00928(14)
C9B C 0.9561(3) 0.4730(2) 0.99072(14)
C9K C 1.0439(3) 0.5270(2) 1.00928(14)
H13I H 0.4387 0.5163 0.9796
H13A H 0.5163 0.0776 1.0204
H13J H 0.4837 -0.0776 0.9796
H13B H 0.9224 0.4387 1.0204
H13K H 1.0776 0.5613 0.9796
H14I H 0.5078 0.5742 1.0209
H14A H 0.5742 0.0664 0.9791
H14J H 0.4258 -0.0664 1.0209
H14B H 0.9336 0.5078 0.9791
H14K H 1.0664 0.4922 1.0209
C10I C 0.4189(2) 0.4667(2) 1.05457(15)
C10A C 0.4667(2) 0.0478(3) 0.94543(15)
C10J C 0.5333(2) -0.0478(3) 1.05457(15)
C10B C 0.9522(3) 0.4189(2) 0.94543(15)
C10K C 1.0478(3) 0.5811(2) 1.05457(15)
H15I H 0.4528 0.4662 1.0842
H15A H 0.4662 0.0134 0.9158
H15J H 0.5338 -0.0134 1.0842
H15B H 0.9866 0.4528 0.9158
H15K H 1.0134 0.5472 1.0842
H16I H 0.3826 0.4097 1.0429
H16A H 0.4097 0.0271 0.9571
H16J H 0.5903 -0.0271 1.0429
H16B H 0.9729 0.3826 0.9571
H16K H 1.0271 0.6174 1.0429
C11I C 0.2849(2) 0.5427(2) 1.06869(14)
C11A C 0.5427(2) 0.2578(3) 0.93131(14)
C11J C 0.4573(2) -0.2578(3) 1.06869(14)
C11B C 0.7422(3) 0.2849(2) 0.93131(14)
C11K C 1.2578(3) 0.7151(2) 1.06869(14)
H17I H 0.2428 0.5524 1.0571
H17A H 0.5524 0.3096 0.9429
H17J H 0.4476 -0.3096 1.0571
H17B H 0.6904 0.2428 0.9429
H17K H 1.3096 0.7572 1.0571
C12I C 0.3767(2) 0.5429(2) 1.11591(14)
C12A C 0.5429(2) 0.1662(3) 0.88409(14)
C12J C 0.4571(2) -0.1662(3) 1.11591(14)
C12B C 0.8338(3) 0.3767(2) 0.88409(14)
C12K C 1.1662(3) 0.6233(2) 1.11591(14)
H18I H 0.4140 0.5514 1.1436
H18A H 0.5514 0.1374 0.8564
H18J H 0.4486 -0.1374 1.1436
H18B H 0.8626 0.4140 0.8564
H18K H 1.1374 0.5860 1.1436
Cl1 Cl 0.30215(6) -0.03046(6) 0.47118(4)
O1 O 0.2375(2) -0.0149(3) 0.4625(2)
O2 O 0.3792(3) 0.0400(3) 0.4732(2)
O3 O 0.3077(4) -0.0689(6) 0.4243(3)
O4 O 0.2960(4) -0.0832(4) 0.5120(3)
O5? O 0.2814(14) -0.1081(12) 0.4569(9)
O6? O 0.2903(15) -0.0324(15) 0.5294(6)
loop_
_geom_bond_atom_site_label_1
_geom_bond_atom_site_label_2
_geom_bond_site_symmetry_1
_geom_bond_site_symmetry_2
Zn1 N3 1_555 1_555
Zn2 N9 1_555 1_555
Cl1 O1 1_555 1_555
O2 Cl1 1_555 1_555
O3 Cl1 1_555 1_555
O4 Cl1 1_555 1_555
N1 N2 1_555 1_555
N2 C5 1_555 1_555
N3 C5 1_555 1_555
N4 N5 1_555 1_555
N5 C7 1_555 1_555
N6 C7 1_555 1_555
N7 N8 1_555 1_555
N8 C11 1_555 1_555
N9 C11 1_555 1_555
C1 N1 1_555 1_555
H1 C1 1_555 1_555
H2 C1 1_555 1_555
C2 C1 1_555 1_555
H3 C2 1_555 1_555
H4 C2 1_555 1_555
C3 C2 1_555 1_555
H5 C3 1_555 1_555
H6 C3 1_555 1_555
C4 N4 1_555 1_555
H7 C4 1_555 1_555
H8 C4 1_555 1_555
C5 H9 1_555 1_555
C6 N1 1_555 1_555
H10 C6 1_555 1_555
C7 H11 1_555 1_555
C8 N4 1_555 1_555
H12 C8 1_555 1_555
C9 H13 1_555 1_555
H14 C9 1_555 1_555
C10 N7 1_555 1_555
H15 C10 1_555 1_555
H16 C10 1_555 1_555
C11 H17 1_555 1_555
C12 N7 1_555 1_555
H18 C12 1_555 1_555
Zn1F N3F 1_555 1_555
Zn1C N6 1_555 1_555
Zn1D N6A 1_555 1_555
Zn2I N9I 1_555 1_555
Zn2J N9J 1_555 1_555
Zn2K N9K 1_555 1_555
N1F N2F 1_555 1_555
N1A N2A 1_555 1_555
N2F C5F 1_555 1_555
N2A C5A 1_555 1_555
N3F C5F 1_555 1_555
N3A Zn1 1_555 1_555
N3B Zn1 1_555 1_555
N4F N5F 1_555 1_555
N4A N5A 1_555 1_555
N5F C7F 1_555 1_555
N5A C7A 1_555 1_555
N6F Zn1 1_555 1_555
N6A C7A 1_555 1_555
N6G Zn1 1_555 1_555
N6H Zn1 1_555 1_555
N7I N8I 1_555 1_555
N7A N8A 1_555 1_555
N7J N8J 1_555 1_555
N7B N8B 1_555 1_555
N7K N8K 1_555 1_555
N8I C11I 1_555 1_555
N8A C11A 1_555 1_555
N8J C11J 1_555 1_555
N8B C11B 1_555 1_555
N8K C11K 1_555 1_555
N9I C11I 1_555 1_555
N9A Zn2 1_555 1_555
N9J C11J 1_555 1_555
N9B Zn2 1_555 1_555
N9K C11K 1_555 1_555
N9L Zn2 1_555 1_555
N9M Zn2 1_555 1_555
N9N Zn2 1_555 1_555
C1F N1F 1_555 1_555
C1A N1A 1_555 1_555
H1F C1F 1_555 1_555
H1A C1A 1_555 1_555
H2F C1F 1_555 1_555
H2A C1A 1_555 1_555
C2F C1F 1_555 1_555
C2A C1A 1_555 1_555
H3F C2F 1_555 1_555
H3A C2A 1_555 1_555
H4F C2F 1_555 1_555
H4A C2A 1_555 1_555
C3F C2F 1_555 1_555
C3A C2A 1_555 1_555
H5F C3F 1_555 1_555
H5A C3A 1_555 1_555
H6F C3F 1_555 1_555
H6A C3A 1_555 1_555
C4F N4F 1_555 1_555
C4A N4A 1_555 1_555
H7F C4F 1_555 1_555
H7A C4A 1_555 1_555
H8F C4F 1_555 1_555
H8A C4A 1_555 1_555
C5F H9F 1_555 1_555
C5A N3A 1_555 1_555
H9A C5A 1_555 1_555
C6F N1F 1_555 1_555
C6A N1A 1_555 1_555
H10F C6F 1_555 1_555
H10A C6A 1_555 1_555
C7F N6F 1_555 1_555
C7A H11A 1_555 1_555
H11F C7F 1_555 1_555
C8F N4F 1_555 1_555
C8A N4A 1_555 1_555
H12F C8F 1_555 1_555
H12A C8A 1_555 1_555
C9I C9 1_555 1_555
C9A C9J 1_555 1_555
C9J H13J 1_555 1_555
C9B C9K 1_555 1_555
C9K H13K 1_555 1_555
H13I C9I 1_555 1_555
H13A C9A 1_555 1_555
H13B C9B 1_555 1_555
H14I C9I 1_555 1_555
H14A C9A 1_555 1_555
H14J C9J 1_555 1_555
H14B C9B 1_555 1_555
H14K C9K 1_555 1_555
C10I N7I 1_555 1_555
C10A N7A 1_555 1_555
C10J N7J 1_555 1_555
C10B N7B 1_555 1_555
C10K N7K 1_555 1_555
H15I C10I 1_555 1_555
H15A C10A 1_555 1_555
H15J C10J 1_555 1_555
H15B C10B 1_555 1_555
H15K C10K 1_555 1_555
H16I C10I 1_555 1_555
H16A C10A 1_555 1_555
H16J C10J 1_555 1_555
H16B C10B 1_555 1_555
H16K C10K 1_555 1_555
C11I H17I 1_555 1_555
C11A N9A 1_555 1_555
C11J H17J 1_555 1_555
C11B N9B 1_555 1_555
C11K H17K 1_555 1_555
H17A C11A 1_555 1_555
H17B C11B 1_555 1_555
C12I N7I 1_555 1_555
C12A N7A 1_555 1_555
C12J N7J 1_555 1_555
C12B N7B 1_555 1_555
C12K N7K 1_555 1_555
H18I C12I 1_555 1_555
H18A C12A 1_555 1_555
H18J C12J 1_555 1_555
H18B C12B 1_555 1_555
H18K C12K 1_555 1_555
N3 C6 1_555 1_555
N6 C8 1_555 1_555
N9 C12 1_555 1_555
C3 C4 1_555 1_555
C9 C10 1_555 1_555
N3F C6F 1_555 1_555
N3A C6A 1_555 1_555
N6F C8F 1_555 1_555
N6A C8A 1_555 1_555
N9I C12I 1_555 1_555
N9A C12A 1_555 1_555
N9J C12J 1_555 1_555
N9B C12B 1_555 1_555
N9K C12K 1_555 1_555
C3F C4F 1_555 1_555
C3A C4A 1_555 1_555
C9I C10I 1_555 1_555
C9A C10A 1_555 1_555
C9J C10J 1_555 1_555
C9B C10B 1_555 1_555
C9K C10K 1_555 1_555

#END
