
#######################################################################
#
#                 Cambridge Crystallographic Data Centre
#                                CCDC 
#
#######################################################################
#
# If this CIF has been generated from an entry in the Cambridge 
# Structural Database, then it will include bibliographic, chemical, 
# crystal, experimental, refinement or atomic coordinate data resulting 
# from the CCDC's data processing and validation procedures.
#
#######################################################################

data_VUNBEM
_symmetry_cell_setting           monoclinic
_symmetry_space_group_name_H-M   'P 21/n'
_symmetry_Int_Tables_number      14
_space_group_name_Hall           '-P 2yn'
loop_
_symmetry_equiv_pos_site_id
_symmetry_equiv_pos_as_xyz
1 x,y,z
2 1/2-x,1/2+y,1/2-z
3 -x,-y,-z
4 1/2+x,1/2-y,1/2+z
_cell_length_a                   10.9909(17)
_cell_length_b                   16.420(2)
_cell_length_c                   15.714(2)
_cell_angle_alpha                90
_cell_angle_beta                 105.064(4)
_cell_angle_gamma                90
_cell_volume                     2738.46
loop_
_atom_site_label
_atom_site_type_symbol
_atom_site_fract_x
_atom_site_fract_y
_atom_site_fract_z
Zn1 Zn 0.000231(14) 0.131615(11) 0.752517(10)
N1 N 0.04635(13) 0.27551(8) 0.98306(9)
N2 N 0.11256(16) 0.32750(9) 0.94438(10)
N3 N 0.03613(13) 0.22211(8) 0.85475(9)
N4 N -0.33073(13) 0.47869(8) 0.96423(9)
N5 N -0.43513(15) 0.43114(9) 0.93888(11)
N6 N -0.44826(13) 0.53937(8) 0.84906(9)
N7 N -0.06198(13) 0.27105(8) 0.51790(9)
N8 N -0.14574(14) 0.31432(9) 0.55070(10)
N9 N -0.04586(13) 0.22034(8) 0.64812(9)
N10 N 0.31619(13) 0.48131(8) 0.53259(9)
N11 N 0.41815(16) 0.43179(10) 0.55821(11)
N12 N 0.43999(14) 0.54252(8) 0.64495(9)
C1 C 0.03360(18) 0.28899(11) 1.07256(11)
H1 H 0.1183 0.2879 1.1144
H2 H -0.0163 0.2440 1.0884
C2 C -0.02969(18) 0.36941(11) 1.08214(12)
H3 H 0.0258 0.4145 1.0737
H4 H -0.0399 0.3735 1.1428
C3 C -0.15808(18) 0.37950(11) 1.01690(12)
H5 H -0.1475 0.3834 0.9564
H6 H -0.2108 0.3312 1.0197
C4 C -0.22368(17) 0.45575(11) 1.03767(11)
H7 H -0.2538 0.4460 1.0909
H8 H -0.1625 0.5012 1.0505
C5 C 0.10288(18) 0.29242(10) 0.86728(12)
H9 H 0.1398 0.3147 0.8241
C6 C 0.00258(16) 0.21414(10) 0.92947(11)
H10 H -0.0461 0.1704 0.9426
C7 C -0.50248(17) 0.47059(11) 0.86941(12)
H11 H -0.5828 0.4522 0.8362
C8 C -0.33997(16) 0.54178(10) 0.91098(11)
H12 H -0.2779 0.5831 0.9162
C9 C -0.04551(18) 0.28772(11) 0.42985(11)
H13 H -0.1285 0.2845 0.3862
H14 H 0.0093 0.2452 0.4148
C10 C 0.01213(18) 0.37081(10) 0.42328(12)
H15 H -0.0458 0.4133 0.4344
H16 H 0.0201 0.3784 0.3625
C11 C 0.14092(18) 0.38284(11) 0.48738(12)
H17 H 0.1936 0.3341 0.4867
H18 H 0.1311 0.3896 0.5478
C12 C 0.20580(17) 0.45759(11) 0.46219(11)
H19 H 0.2324 0.4459 0.4079
H20 H 0.1453 0.5035 0.4495
C13 C -0.13133(15) 0.28175(10) 0.62921(11)
H21 H -0.1770 0.2997 0.6694
C14 C -0.00512(16) 0.21585(10) 0.57582(11)
H22 H 0.0562 0.1783 0.5670
C15 C 0.48926(18) 0.47167(11) 0.62579(13)
H23 H 0.5691 0.4521 0.6585
C16 C 0.33092(17) 0.54602(10) 0.58412(11)
H24 H 0.2716 0.5891 0.5784
O1 O -0.19035(14) 0.12357(10) 0.76058(11)
O2 O 0.19056(14) 0.13759(10) 0.74209(11)
H25 H -0.226(2) 0.1545(16) 0.7770(16)
H26 H -0.229(2) 0.0848(16) 0.7531(16)
H27 H 0.222(2) 0.1748(16) 0.7311(15)
H28 H 0.231(2) 0.1001(17) 0.7425(16)
Zn1A Zn -0.500231(14) 0.631615(11) 0.747483(10)
Zn1A_2 Zn 0.499769(14) 0.631615(11) 0.747483(10)
N6A N -0.05174(13) 0.03937(8) 0.65094(9)
N12A N 0.06001(14) 0.04252(8) 0.85505(9)
N13 N -0.35135(17) 0.29368(10) 0.78552(10)
O8 O -0.3712(4) 0.22040(15) 0.7951(3)
O9 O -0.4439(3) 0.33720(18) 0.75894(18)
O10 O -0.2442(2) 0.3190(2) 0.79798(19)
N14 N -0.62369(14) -0.03866(9) 0.77618(9)
O5 O -0.5305(4) -0.0803(3) 0.8055(4)
O6 O -0.7313(3) -0.06400(19) 0.7781(3)
O7 O -0.6152(3) 0.02994(18) 0.7454(2)
O3 O -0.7011(2) 0.27430(12) 0.69928(14)
H29 H -0.738(3) 0.316(2) 0.701(2)
H30 H -0.628(3) 0.2831(18) 0.716(2)
O4 O -0.1745(2) 0.48493(14) 0.77206(16)
H31 H -0.205(3) 0.444(2) 0.781(2)
H32 H -0.108(3) 0.4799(17) 0.7649(18)
O11? O -0.5733(10) -0.1044(6) 0.8063(8)
O12? O -0.7292(8) -0.0235(4) 0.7791(6)
O13? O -0.5607(6) 0.0112(5) 0.7428(5)
loop_
_geom_bond_atom_site_label_1
_geom_bond_atom_site_label_2
_geom_bond_site_symmetry_1
_geom_bond_site_symmetry_2
Zn1 N3 1_555 1_555
N1 N2 1_555 1_555
N2 C5 1_555 1_555
N3 C5 1_555 1_555
N4 N5 1_555 1_555
N5 C7 1_555 1_555
N6 C7 1_555 1_555
N7 N8 1_555 1_555
N8 C13 1_555 1_555
N9 Zn1 1_555 1_555
N10 N11 1_555 1_555
N11 C15 1_555 1_555
N12 C15 1_555 1_555
N13 O8 1_555 1_555
N14 O5 1_555 1_555
C1 N1 1_555 1_555
H1 C1 1_555 1_555
H2 C1 1_555 1_555
C2 C1 1_555 1_555
H3 C2 1_555 1_555
H4 C2 1_555 1_555
C3 C2 1_555 1_555
H5 C3 1_555 1_555
H6 C3 1_555 1_555
C4 N4 1_555 1_555
H7 C4 1_555 1_555
H8 C4 1_555 1_555
C5 H9 1_555 1_555
C6 N1 1_555 1_555
H10 C6 1_555 1_555
C7 H11 1_555 1_555
C8 N4 1_555 1_555
H12 C8 1_555 1_555
C9 N7 1_555 1_555
H13 C9 1_555 1_555
H14 C9 1_555 1_555
C10 C9 1_555 1_555
H15 C10 1_555 1_555
H16 C10 1_555 1_555
C11 C10 1_555 1_555
H17 C11 1_555 1_555
H18 C11 1_555 1_555
C12 N10 1_555 1_555
H19 C12 1_555 1_555
H20 C12 1_555 1_555
C13 N9 1_555 1_555
H21 C13 1_555 1_555
C14 N7 1_555 1_555
H22 C14 1_555 1_555
C15 H23 1_555 1_555
C16 N10 1_555 1_555
H24 C16 1_555 1_555
O1 Zn1 1_555 1_555
O2 Zn1 1_555 1_555
O3 H29 1_555 1_555
O4 H31 1_555 1_555
O6 N14 1_555 1_555
O7 N14 1_555 1_555
O9 N13 1_555 1_555
O10 N13 1_555 1_555
H25 O1 1_555 1_555
H26 O1 1_555 1_555
H27 O2 1_555 1_555
H28 O2 1_555 1_555
H30 O3 1_555 1_555
H32 O4 1_555 1_555
Zn1A N6 1_555 1_555
Zn1A_2 N12 1_555 1_555
N6A Zn1 1_555 1_555
N12A Zn1 1_555 1_555
N3 C6 1_555 1_555
N6 C8 1_555 1_555
N9 C14 1_555 1_555
N12 C16 1_555 1_555
C3 C4 1_555 1_555
C11 C12 1_555 1_555

#END
