
#######################################################################
#
#                 Cambridge Crystallographic Data Centre
#                                CCDC 
#
#######################################################################
#
# If this CIF has been generated from an entry in the Cambridge 
# Structural Database, then it will include bibliographic, chemical, 
# crystal, experimental, refinement or atomic coordinate data resulting 
# from the CCDC's data processing and validation procedures.
#
#######################################################################

data_VUNCAK
_symmetry_cell_setting           triclinic
_symmetry_space_group_name_H-M   'P -1'
_symmetry_Int_Tables_number      2
_space_group_name_Hall           '-P 1'
loop_
_symmetry_equiv_pos_site_id
_symmetry_equiv_pos_as_xyz
1 x,y,z
2 -x,-y,-z
_cell_length_a                   12.6193(7)
_cell_length_b                   12.6412(7)
_cell_length_c                   17.1663(9)
_cell_angle_alpha                80.451(4)
_cell_angle_beta                 81.731(4)
_cell_angle_gamma                72.594(5)
_cell_volume                     2563.88
loop_
_atom_site_label
_atom_site_type_symbol
_atom_site_fract_x
_atom_site_fract_y
_atom_site_fract_z
Ge1 Ge 0.01738(7) -0.08013(7) 0.25844(5)
Ge2 Ge 0.16069(7) -0.17071(8) 0.15242(5)
Ge3 Ge 0.00475(7) -0.03119(8) 0.07299(5)
Ge4 Ge -0.13043(8) 0.06183(8) 0.18417(6)
Ge5 Ge -0.17634(7) -0.11689(8) 0.27048(5)
Ge6 Ge 0.03776(7) -0.28805(8) 0.24898(5)
Ge7 Ge 0.02269(7) -0.24765(8) 0.08908(5)
Ge8 Ge -0.18588(7) -0.08058(8) 0.11214(5)
Ge9 Ge -0.13996(8) -0.28184(8) 0.18944(6)
C1 C 0.0358(7) -0.0500(8) 0.3630(5)
H1 H 0.0812 -0.1085 0.3963
C2 C -0.0105(7) 0.0451(8) 0.3896(5)
H2 H -0.0565 0.1051 0.3577
H3 H 0.0015 0.0548 0.4411
K1 K 0.5000 0.5000 0.0000
O1 O 0.5693(4) 0.6837(4) 0.0212(3)
O2 O 0.6665(4) 0.4697(4) 0.0860(3)
O3 O 0.5968(4) 0.2876(4) 0.0860(3)
C3 C 0.6116(8) 0.6608(7) 0.0965(5)
H4 H 0.5520 0.6514 0.1391
H5 H 0.6374 0.7241 0.1055
C4 C 0.7064(7) 0.5568(7) 0.0987(5)
H6 H 0.7668 0.5664 0.0569
H7 H 0.7367 0.5397 0.1508
C5 C 0.7464(7) 0.3633(7) 0.0874(5)
H8 H 0.7593 0.3308 0.1430
H9 H 0.8181 0.3712 0.0588
C6 C 0.7051(6) 0.2890(7) 0.0493(5)
H10 H 0.7016 0.3163 -0.0080
H11 H 0.7566 0.2124 0.0550
C7 C 0.5587(7) 0.2000(6) 0.0669(5)
H12 H 0.4945 0.1915 0.1054
H13 H 0.6191 0.1291 0.0734
C8 C 0.5243(7) 0.2179(7) -0.0147(5)
H14 H 0.5869 0.2280 -0.0544
H15 H 0.5032 0.1523 -0.0245
K2 K 0.20344(15) 0.13696(16) 0.29155(11)
O4 O 0.0397(5) 0.3419(5) 0.2763(4)
O5 O 0.1318(5) 0.2348(5) 0.1448(4)
O6 O 0.3456(4) 0.0909(5) 0.1510(3)
O7 O 0.4180(4) -0.0224(4) 0.3001(3)
O8 O 0.3079(5) 0.0792(5) 0.4373(3)
O9 O 0.0924(5) 0.2323(5) 0.4286(4)
C9 C -0.0221(7) 0.3581(8) 0.2105(6)
H16 H -0.0755 0.4338 0.2062
H17 H -0.0651 0.3026 0.2179
C10 C 0.0565(7) 0.3449(8) 0.1361(6)
H18 H 0.0143 0.3557 0.0897
H19 H 0.0984 0.4014 0.1277
C11 C 0.2028(8) 0.2131(8) 0.0748(5)
H20 H 0.2457 0.2688 0.0608
H21 H 0.1582 0.2189 0.0306
C12 C 0.2817(7) 0.0970(7) 0.0879(5)
H22 H 0.2388 0.0413 0.1013
H23 H 0.3318 0.0802 0.0388
C13 C 0.4301(7) -0.0111(7) 0.1595(5)
H24 H 0.4829 -0.0177 0.1107
H25 H 0.3969 -0.0743 0.1678
C14 C 0.4907(7) -0.0147(7) 0.2294(5)
H26 H 0.5577 -0.0801 0.2313
H27 H 0.5152 0.0538 0.2244
C15 C 0.4703(7) -0.0250(8) 0.3680(5)
H28 H 0.4976 0.0419 0.3629
H29 H 0.5351 -0.0923 0.3732
C16 C 0.3876(7) -0.0269(7) 0.4399(5)
H30 H 0.3504 -0.0857 0.4400
H31 H 0.4259 -0.0433 0.4888
C17 C 0.2228(7) 0.0870(8) 0.5003(5)
H32 H 0.2562 0.0635 0.5514
H33 H 0.1779 0.0363 0.4963
C18 C 0.1491(8) 0.2041(8) 0.4984(5)
H34 H 0.0943 0.2107 0.5460
H35 H 0.1944 0.2560 0.4982
C19 C 0.0453(7) 0.3495(7) 0.4113(6)
H36 H 0.1054 0.3866 0.3953
H37 H 0.0006 0.3798 0.4592
C20 C -0.0271(7) 0.3722(8) 0.3459(6)
H38 H -0.0821 0.3286 0.3595
H39 H -0.0684 0.4526 0.3381
N1 N 0.3249(7) 0.4998(8) 0.1222(6)
H40 H 0.2706 0.5669 0.1151
H41 H 0.2937 0.4443 0.1173
C21 C 0.3558(8) 0.4836(10) 0.1990(6)
H42 H 0.3412 0.5583 0.2158
H43 H 0.4375 0.4488 0.1963
C22 C 0.3021(8) 0.4139(8) 0.2643(6)
H44 H 0.3237 0.4219 0.3157
H45 H 0.2200 0.4454 0.2657
N2 N 0.3293(6) 0.2968(6) 0.2579(6)
H46 H 0.3893 0.2653 0.2871
H47 H 0.3580 0.2921 0.2057
O1A O 0.4307(4) 0.3163(4) -0.0212(3)
O2A O 0.3335(4) 0.5303(4) -0.0860(3)
O3A O 0.4032(4) 0.7124(4) -0.0860(3)
C3A C 0.3884(8) 0.3392(7) -0.0965(5)
H4A H 0.4480 0.3486 -0.1391
H5A H 0.3626 0.2759 -0.1055
C4A C 0.2936(7) 0.4432(7) -0.0987(5)
H6A H 0.2332 0.4336 -0.0569
H7A H 0.2633 0.4603 -0.1508
C5A C 0.2536(7) 0.6367(7) -0.0874(5)
H8A H 0.2407 0.6692 -0.1430
H9A H 0.1819 0.6288 -0.0588
C6A C 0.2949(6) 0.7110(7) -0.0493(5)
H10A H 0.2984 0.6837 0.0080
H11A H 0.2434 0.7876 -0.0550
C7A C 0.4413(7) 0.8000(6) -0.0669(5)
H12A H 0.5055 0.8085 -0.1054
H13A H 0.3809 0.8709 -0.0734
C8A C 0.4757(7) 0.7821(7) 0.0147(5)
H14A H 0.4131 0.7720 0.0544
H15A H 0.4968 0.8477 0.0245
Ge1A Ge -0.01738(7) 0.08013(7) -0.25844(5)
Ge2A Ge -0.16069(7) 0.17071(8) -0.15242(5)
Ge3A Ge -0.00475(7) 0.03119(8) -0.07299(5)
Ge4A Ge 0.13043(8) -0.06183(8) -0.18417(6)
Ge5A Ge 0.17634(7) 0.11689(8) -0.27048(5)
Ge6A Ge -0.03776(7) 0.28805(8) -0.24898(5)
Ge7A Ge -0.02269(7) 0.24765(8) -0.08908(5)
Ge8A Ge 0.18588(7) 0.08058(8) -0.11214(5)
Ge9A Ge 0.13996(8) 0.28184(8) -0.18944(6)
C1A C -0.0358(7) 0.0500(8) -0.3630(5)
H1A H -0.0812 0.1085 -0.3963
C2A C 0.0105(7) -0.0451(8) -0.3896(5)
H2A H 0.0565 -0.1051 -0.3577
H3A H -0.0015 -0.0548 -0.4411
K2A K -0.20344(15) -0.13696(16) -0.29155(11)
O4A O -0.0397(5) -0.3419(5) -0.2763(4)
O5A O -0.1318(5) -0.2348(5) -0.1448(4)
O6A O -0.3456(4) -0.0909(5) -0.1510(3)
O7A O -0.4180(4) 0.0224(4) -0.3001(3)
O8A O -0.3079(5) -0.0792(5) -0.4373(3)
O9A O -0.0924(5) -0.2323(5) -0.4286(4)
C9A C 0.0221(7) -0.3581(8) -0.2105(6)
H16A H 0.0755 -0.4338 -0.2062
H17A H 0.0651 -0.3026 -0.2179
C10A C -0.0565(7) -0.3449(8) -0.1361(6)
H18A H -0.0143 -0.3557 -0.0897
H19A H -0.0984 -0.4014 -0.1277
C11A C -0.2028(8) -0.2131(8) -0.0748(5)
H20A H -0.2457 -0.2688 -0.0608
H21A H -0.1582 -0.2189 -0.0306
C12A C -0.2817(7) -0.0970(7) -0.0879(5)
H22A H -0.2388 -0.0413 -0.1013
H23A H -0.3318 -0.0802 -0.0388
C13A C -0.4301(7) 0.0111(7) -0.1595(5)
H24A H -0.4829 0.0177 -0.1107
H25A H -0.3969 0.0743 -0.1678
C14A C -0.4907(7) 0.0147(7) -0.2294(5)
H26A H -0.5577 0.0801 -0.2313
H27A H -0.5152 -0.0538 -0.2244
C15A C -0.4703(7) 0.0250(8) -0.3680(5)
H28A H -0.4976 -0.0419 -0.3629
H29A H -0.5351 0.0923 -0.3732
C16A C -0.3876(7) 0.0269(7) -0.4399(5)
H30A H -0.3504 0.0857 -0.4400
H31A H -0.4259 0.0433 -0.4888
C17A C -0.2228(7) -0.0870(8) -0.5003(5)
H32A H -0.2562 -0.0635 -0.5514
H33A H -0.1779 -0.0363 -0.4963
C18A C -0.1491(8) -0.2041(8) -0.4984(5)
H34A H -0.0943 -0.2107 -0.5460
H35A H -0.1944 -0.2560 -0.4982
C19A C -0.0453(7) -0.3495(7) -0.4113(6)
H36A H -0.1054 -0.3866 -0.3953
H37A H -0.0006 -0.3798 -0.4592
C20A C 0.0271(7) -0.3722(8) -0.3459(6)
H38A H 0.0821 -0.3286 -0.3595
H39A H 0.0684 -0.4526 -0.3381
N1A N -0.3249(7) -0.4998(8) -0.1222(6)
H40A H -0.2706 -0.5669 -0.1151
H41A H -0.2937 -0.4443 -0.1173
C21A C -0.3558(8) -0.4836(10) -0.1990(6)
H42A H -0.3412 -0.5583 -0.2158
H43A H -0.4375 -0.4488 -0.1963
C22A C -0.3021(8) -0.4139(8) -0.2643(6)
H44A H -0.3237 -0.4219 -0.3157
H45A H -0.2200 -0.4454 -0.2657
N2A N -0.3293(6) -0.2968(6) -0.2579(6)
H46A H -0.3893 -0.2653 -0.2871
H47A H -0.3580 -0.2921 -0.2057
K1_2 K -0.5000 -0.5000 0.0000
N1A_2 N 0.6751(7) 0.5002(8) -0.1222(6)
K3 K 0.5000 0.5000 0.5000
O10 O 0.4873(4) 0.3272(4) 0.6287(3)
O11 O 0.2908(4) 0.4689(5) 0.5580(3)
O12 O 0.3224(4) 0.6004(5) 0.4108(3)
C23 C 0.3778(7) 0.3457(7) 0.6666(5)
H48 H 0.3591 0.4118 0.6953
H49 H 0.3727 0.2801 0.7059
C24 C 0.2961(7) 0.3647(7) 0.6064(5)
H50 H 0.3202 0.3034 0.5729
H51 H 0.2213 0.3654 0.6338
C25 C 0.2277(7) 0.4798(8) 0.4933(5)
H52 H 0.1531 0.4704 0.5133
H53 H 0.2661 0.4218 0.4585
C26 C 0.2162(7) 0.5936(7) 0.4477(5)
H54 H 0.1639 0.6074 0.4069
H55 H 0.1858 0.6512 0.4840
C27 C 0.3197(7) 0.7015(7) 0.3617(5)
H56 H 0.3010 0.7635 0.3943
H57 H 0.2620 0.7179 0.3245
C28 C 0.4323(7) 0.6911(7) 0.3161(5)
H58 H 0.4519 0.6278 0.2847
H59 H 0.4312 0.7604 0.2792
N3 N 0.5331(6) 0.2920(6) 0.4364(4)
H60 H 0.5210 0.2373 0.4762
H61 H 0.4848 0.3019 0.3988
C29 C 0.6476(8) 0.2611(8) 0.4011(6)
H62 H 0.6795 0.1791 0.4121
H63 H 0.6920 0.2969 0.4257
C30 C 0.6558(8) 0.2961(8) 0.3129(5)
H64 H 0.6194 0.3773 0.3016
H65 H 0.7353 0.2817 0.2917
N4 N 0.6019(5) 0.2342(6) 0.2739(4)
H66 H 0.6031 0.1693 0.3037
H67 H 0.6392 0.2217 0.2266
O10A O 0.5127(4) 0.6728(4) 0.3713(3)
O11A O 0.7092(4) 0.5311(5) 0.4420(3)
O12A O 0.6776(4) 0.3996(5) 0.5892(3)
C23A C 0.6222(7) 0.6543(7) 0.3334(5)
H48A H 0.6409 0.5882 0.3047
H49A H 0.6273 0.7199 0.2941
C24A C 0.7039(7) 0.6353(7) 0.3936(5)
H50A H 0.6798 0.6966 0.4271
H51A H 0.7787 0.6346 0.3662
C25A C 0.7723(7) 0.5202(8) 0.5067(5)
H52A H 0.8469 0.5296 0.4867
H53A H 0.7339 0.5782 0.5415
C26A C 0.7838(7) 0.4064(7) 0.5523(5)
H54A H 0.8361 0.3926 0.5931
H55A H 0.8142 0.3488 0.5160
C27A C 0.6803(7) 0.2985(7) 0.6383(5)
H56A H 0.6990 0.2365 0.6057
H57A H 0.7380 0.2821 0.6755
C28A C 0.5677(7) 0.3089(7) 0.6839(5)
H58A H 0.5481 0.3722 0.7153
H59A H 0.5688 0.2396 0.7208
N3A N 0.4669(6) 0.7080(6) 0.5636(4)
H60A H 0.4790 0.7627 0.5238
H61A H 0.5152 0.6981 0.6012
C29A C 0.3524(8) 0.7389(8) 0.5989(6)
H62A H 0.3205 0.8209 0.5879
H63A H 0.3080 0.7031 0.5743
C30A C 0.3442(8) 0.7039(8) 0.6871(5)
H64A H 0.3806 0.6227 0.6984
H65A H 0.2647 0.7183 0.7083
N4A N 0.3981(5) 0.7658(6) 0.7261(4)
H66A H 0.3969 0.8307 0.6963
H67A H 0.3608 0.7783 0.7734
loop_
_geom_bond_atom_site_label_1
_geom_bond_atom_site_label_2
_geom_bond_site_symmetry_1
_geom_bond_site_symmetry_2
Ge1 Ge2 1_555 1_555
Ge2 Ge3 1_555 1_555
Ge3 Ge4 1_555 1_555
Ge4 Ge1 1_555 1_555
Ge5 Ge1 1_555 1_555
Ge6 Ge1 1_555 1_555
Ge7 Ge2 1_555 1_555
Ge8 Ge3 1_555 1_555
Ge9 Ge5 1_555 1_555
C1 Ge1 1_555 1_555
H1 C1 1_555 1_555
C2 C1 1_555 1_555
H2 C2 1_555 1_555
H3 C2 1_555 1_555
K1 O1 1_555 1_555
O1 C3 1_555 1_555
O2 K1 1_555 1_555
O3 K1 1_555 1_555
C3 H4 1_555 1_555
H5 C3 1_555 1_555
C4 O2 1_555 1_555
H6 C4 1_555 1_555
H7 C4 1_555 1_555
C5 O2 1_555 1_555
H8 C5 1_555 1_555
H9 C5 1_555 1_555
C6 O3 1_555 1_555
H10 C6 1_555 1_555
H11 C6 1_555 1_555
C7 O3 1_555 1_555
H12 C7 1_555 1_555
H13 C7 1_555 1_555
C8 C7 1_555 1_555
H14 C8 1_555 1_555
H15 C8 1_555 1_555
K2 C2 1_555 1_555
O4 K2 1_555 1_555
O5 K2 1_555 1_555
O6 K2 1_555 1_555
O7 K2 1_555 1_555
O8 K2 1_555 1_555
O9 K2 1_555 1_555
C9 O4 1_555 1_555
H16 C9 1_555 1_555
H17 C9 1_555 1_555
C10 O5 1_555 1_555
H18 C10 1_555 1_555
H19 C10 1_555 1_555
C11 O5 1_555 1_555
H20 C11 1_555 1_555
H21 C11 1_555 1_555
C12 O6 1_555 1_555
H22 C12 1_555 1_555
H23 C12 1_555 1_555
C13 O6 1_555 1_555
H24 C13 1_555 1_555
H25 C13 1_555 1_555
C14 O7 1_555 1_555
H26 C14 1_555 1_555
H27 C14 1_555 1_555
C15 O7 1_555 1_555
H28 C15 1_555 1_555
H29 C15 1_555 1_555
C16 O8 1_555 1_555
H30 C16 1_555 1_555
H31 C16 1_555 1_555
C17 O8 1_555 1_555
H32 C17 1_555 1_555
H33 C17 1_555 1_555
C18 O9 1_555 1_555
H34 C18 1_555 1_555
H35 C18 1_555 1_555
C19 O9 1_555 1_555
H36 C19 1_555 1_555
H37 C19 1_555 1_555
C20 O4 1_555 1_555
H38 C20 1_555 1_555
H39 C20 1_555 1_555
N1 K1 1_555 1_555
H40 N1 1_555 1_555
H41 N1 1_555 1_555
C21 N1 1_555 1_555
H42 C21 1_555 1_555
H43 C21 1_555 1_555
C22 C21 1_555 1_555
H44 C22 1_555 1_555
H45 C22 1_555 1_555
N2 K2 1_555 1_555
H46 N2 1_555 1_555
H47 N2 1_555 1_555
K3 O10 1_555 1_555
O10 C23 1_555 1_555
O11 K3 1_555 1_555
O12 K3 1_555 1_555
C23 H48 1_555 1_555
H49 C23 1_555 1_555
C24 O11 1_555 1_555
H50 C24 1_555 1_555
H51 C24 1_555 1_555
C25 O11 1_555 1_555
H52 C25 1_555 1_555
H53 C25 1_555 1_555
C26 O12 1_555 1_555
H54 C26 1_555 1_555
H55 C26 1_555 1_555
C27 O12 1_555 1_555
H56 C27 1_555 1_555
H57 C27 1_555 1_555
C28 C27 1_555 1_555
H58 C28 1_555 1_555
H59 C28 1_555 1_555
N3 K3 1_555 1_555
H60 N3 1_555 1_555
H61 N3 1_555 1_555
C29 N3 1_555 1_555
H62 C29 1_555 1_555
H63 C29 1_555 1_555
C30 C29 1_555 1_555
H64 C30 1_555 1_555
H65 C30 1_555 1_555
N4 C30 1_555 1_555
H66 N4 1_555 1_555
H67 N4 1_555 1_555
O1A K1 1_555 1_555
O2A K1 1_555 1_555
O3A K1 1_555 1_555
C3A O1A 1_555 1_555
H4A C3A 1_555 1_555
H5A C3A 1_555 1_555
C4A O2A 1_555 1_555
H6A C4A 1_555 1_555
H7A C4A 1_555 1_555
C5A O2A 1_555 1_555
H8A C5A 1_555 1_555
H9A C5A 1_555 1_555
C6A O3A 1_555 1_555
H10A C6A 1_555 1_555
H11A C6A 1_555 1_555
C7A O3A 1_555 1_555
H12A C7A 1_555 1_555
H13A C7A 1_555 1_555
C8A O1 1_555 1_555
H14A C8A 1_555 1_555
H15A C8A 1_555 1_555
Ge1A Ge2A 1_555 1_555
Ge2A Ge3A 1_555 1_555
Ge3A Ge3 1_555 1_555
Ge4A Ge1A 1_555 1_555
Ge5A Ge1A 1_555 1_555
Ge6A Ge1A 1_555 1_555
Ge7A Ge2A 1_555 1_555
Ge8A Ge3A 1_555 1_555
Ge9A Ge5A 1_555 1_555
C1A Ge1A 1_555 1_555
H1A C1A 1_555 1_555
C2A C1A 1_555 1_555
H2A C2A 1_555 1_555
H3A C2A 1_555 1_555
K2A C2A 1_555 1_555
O4A K2A 1_555 1_555
O5A K2A 1_555 1_555
O6A K2A 1_555 1_555
O7A K2A 1_555 1_555
O8A K2A 1_555 1_555
O9A K2A 1_555 1_555
C9A O4A 1_555 1_555
H16A C9A 1_555 1_555
H17A C9A 1_555 1_555
C10A O5A 1_555 1_555
H18A C10A 1_555 1_555
H19A C10A 1_555 1_555
C11A O5A 1_555 1_555
H20A C11A 1_555 1_555
H21A C11A 1_555 1_555
C12A O6A 1_555 1_555
H22A C12A 1_555 1_555
H23A C12A 1_555 1_555
C13A O6A 1_555 1_555
H24A C13A 1_555 1_555
H25A C13A 1_555 1_555
C14A O7A 1_555 1_555
H26A C14A 1_555 1_555
H27A C14A 1_555 1_555
C15A O7A 1_555 1_555
H28A C15A 1_555 1_555
H29A C15A 1_555 1_555
C16A O8A 1_555 1_555
H30A C16A 1_555 1_555
H31A C16A 1_555 1_555
C17A O8A 1_555 1_555
H32A C17A 1_555 1_555
H33A C17A 1_555 1_555
C18A O9A 1_555 1_555
H34A C18A 1_555 1_555
H35A C18A 1_555 1_555
C19A O9A 1_555 1_555
H36A C19A 1_555 1_555
H37A C19A 1_555 1_555
C20A O4A 1_555 1_555
H38A C20A 1_555 1_555
H39A C20A 1_555 1_555
N1A H40A 1_555 1_555
H41A N1A 1_555 1_555
C21A N1A 1_555 1_555
H42A C21A 1_555 1_555
H43A C21A 1_555 1_555
C22A C21A 1_555 1_555
H44A C22A 1_555 1_555
H45A C22A 1_555 1_555
N2A K2A 1_555 1_555
H46A N2A 1_555 1_555
H47A N2A 1_555 1_555
K1_2 N1A 1_555 1_555
N1A_2 K1 1_555 1_555
O10A K3 1_555 1_555
O11A K3 1_555 1_555
O12A K3 1_555 1_555
C23A O10A 1_555 1_555
H48A C23A 1_555 1_555
H49A C23A 1_555 1_555
C24A O11A 1_555 1_555
H50A C24A 1_555 1_555
H51A C24A 1_555 1_555
C25A O11A 1_555 1_555
H52A C25A 1_555 1_555
H53A C25A 1_555 1_555
C26A O12A 1_555 1_555
H54A C26A 1_555 1_555
H55A C26A 1_555 1_555
C27A O12A 1_555 1_555
H56A C27A 1_555 1_555
H57A C27A 1_555 1_555
C28A O10 1_555 1_555
H58A C28A 1_555 1_555
H59A C28A 1_555 1_555
N3A K3 1_555 1_555
H60A N3A 1_555 1_555
H61A N3A 1_555 1_555
C29A N3A 1_555 1_555
H62A C29A 1_555 1_555
H63A C29A 1_555 1_555
C30A C29A 1_555 1_555
H64A C30A 1_555 1_555
H65A C30A 1_555 1_555
N4A C30A 1_555 1_555
H66A N4A 1_555 1_555
H67A N4A 1_555 1_555
Ge2 Ge6 1_555 1_555
Ge3 Ge7 1_555 1_555
Ge4 Ge5 1_555 1_555
Ge4 Ge8 1_555 1_555
Ge5 Ge8 1_555 1_555
Ge6 Ge7 1_555 1_555
Ge6 Ge9 1_555 1_555
Ge7 Ge9 1_555 1_555
Ge8 Ge9 1_555 1_555
C3 C4 1_555 1_555
C5 C6 1_555 1_555
C8 O1A 1_555 1_555
C9 C10 1_555 1_555
C11 C12 1_555 1_555
C13 C14 1_555 1_555
C15 C16 1_555 1_555
C17 C18 1_555 1_555
C19 C20 1_555 1_555
C22 N2 1_555 1_555
C23 C24 1_555 1_555
C25 C26 1_555 1_555
C28 O10A 1_555 1_555
C3A C4A 1_555 1_555
C5A C6A 1_555 1_555
C7A C8A 1_555 1_555
Ge2A Ge6A 1_555 1_555
Ge3A Ge4A 1_555 1_555
Ge3A Ge7A 1_555 1_555
Ge4A Ge5A 1_555 1_555
Ge4A Ge8A 1_555 1_555
Ge5A Ge8A 1_555 1_555
Ge6A Ge7A 1_555 1_555
Ge6A Ge9A 1_555 1_555
Ge7A Ge9A 1_555 1_555
Ge8A Ge9A 1_555 1_555
C9A C10A 1_555 1_555
C11A C12A 1_555 1_555
C13A C14A 1_555 1_555
C15A C16A 1_555 1_555
C17A C18A 1_555 1_555
C19A C20A 1_555 1_555
C22A N2A 1_555 1_555
C23A C24A 1_555 1_555
C25A C26A 1_555 1_555
C27A C28A 1_555 1_555

#END
