
#######################################################################
#
#                 Cambridge Crystallographic Data Centre
#                                CCDC 
#
#######################################################################
#
# If this CIF has been generated from an entry in the Cambridge 
# Structural Database, then it will include bibliographic, chemical, 
# crystal, experimental, refinement or atomic coordinate data resulting 
# from the CCDC's data processing and validation procedures.
#
#######################################################################

data_VUNDIS
_symmetry_cell_setting           monoclinic
_symmetry_space_group_name_H-M   'P 21/n'
_symmetry_Int_Tables_number      14
_space_group_name_Hall           '-P 2yn'
loop_
_symmetry_equiv_pos_site_id
_symmetry_equiv_pos_as_xyz
1 x,y,z
2 1/2-x,1/2+y,1/2-z
3 -x,-y,-z
4 1/2+x,1/2-y,1/2+z
_cell_length_a                   11.1975(19)
_cell_length_b                   11.4686(15)
_cell_length_c                   15.8001(19)
_cell_angle_alpha                90
_cell_angle_beta                 106.3140(10)
_cell_angle_gamma                90
_cell_volume                     1947.35
loop_
_atom_site_label
_atom_site_type_symbol
_atom_site_fract_x
_atom_site_fract_y
_atom_site_fract_z
Lu1 Lu 0.26763(2) 0.21188(2) 0.186340(16)
Ba1 Ba 0.52574(3) 0.31335(4) -0.16369(2)
Ba2 Ba 0.65052(4) 0.22353(4) 0.12099(3)
O1 O 0.3940(4) 0.2209(4) 0.0915(3)
O2 O 0.4154(5) 0.2942(6) -0.0333(3)
O3 O -0.0416(4) 0.2681(5) -0.2239(3)
O4 O -0.1395(5) 0.1809(7) 0.0709(3)
O5 O 0.0525(4) 0.1804(5) 0.1617(3)
O6 O 0.1551(5) 0.2167(5) 0.0351(3)
O7 O 0.2938(5) 0.0156(4) 0.1613(3)
O8 O 0.2408(4) 0.0952(4) 0.3051(3)
O9 O 0.2293(5) -0.0886(4) 0.3509(3)
O10 O 0.2998(4) -0.1678(4) 0.2133(3)
O11 O 0.3020(5) 0.3949(4) -0.2468(4)
O12 O 0.1077(6) 0.5109(5) -0.3462(4)
O13 O 0.1521(6) 0.6557(5) -0.2497(4)
O14 O 0.3788(6) 0.5518(5) -0.1732(4)
O15 O 0.5966(5) 0.1161(5) -0.0467(3)
H1 H 0.5495 0.0566 -0.0534
H2 H 0.6646 0.1174 -0.0057
O16 O 0.6730(7) 0.4190(6) -0.0043(4)
H3 H 0.7410 0.4562 0.0041
H4 H 0.6111 0.4364 -0.0477
C1 C 0.3531(6) 0.2529(6) 0.0120(5)
C2 C 0.2119(6) 0.2429(6) -0.0259(4)
C3 C 0.1490(7) 0.2616(6) -0.1132(5)
H5 H 0.1927 0.2813 -0.1532
C4 C 0.0166(6) 0.2509(7) -0.1423(4)
C5 C -0.0411(6) 0.2257(7) -0.0760(4)
H6 H -0.1274 0.2201 -0.0902
C6 C 0.0295(6) 0.2091(6) 0.0100(4)
C7 C -0.0271(6) 0.1866(7) 0.0859(5)
C8 C 0.2847(6) -0.0584(6) 0.2165(4)
C9 C 0.2475(6) -0.0133(6) 0.2992(4)
C10 C 0.2970(7) 0.4965(6) -0.2291(5)
C11 C 0.1747(7) 0.5609(6) -0.2804(5)
Lu1C Lu -0.23237(2) 0.28812(2) -0.313660(16)
Lu1A Lu 0.23237(2) -0.28812(2) 0.313660(16)
Ba1C Ba 0.02574(3) 0.18665(4) 0.33631(2)
Ba1B Ba 0.47426(3) -0.31335(4) 0.16369(2)
Ba1A Ba -0.02574(3) 0.81335(4) -0.33631(2)
Ba2_2 Ba -0.34948(4) 0.22353(4) 0.12099(3)
Ba2C Ba 0.15052(4) 0.27647(4) -0.37901(3)
Ba2B Ba 0.34948(4) 0.77647(4) -0.12099(3)
O3C O 0.4584(4) 0.2319(5) 0.2761(3)
O4_2 O 0.8605(5) 0.1809(7) 0.0709(3)
O5C O 0.5525(4) 0.3196(5) -0.3383(3)
O8C O 0.7408(4) 0.4048(4) -0.1949(3)
O9A O 0.2707(5) 0.4114(4) 0.1491(3)
O10A O 0.2002(4) 0.3322(4) 0.2867(3)
O10B O 0.7002(4) 0.1678(4) -0.2133(3)
O11C O 0.8020(5) 0.1051(4) 0.2532(4)
O12C O 0.6077(6) -0.0109(5) 0.1538(4)
O13A O 0.3479(6) 0.1557(5) -0.2503(4)
O13B O 0.8479(6) 0.3443(5) 0.2497(4)
O14B O 0.6212(6) 0.4482(5) 0.1732(4)
O17 O 0.929(2) 0.476(2) 0.0294(6)
H7 H 0.8803 0.4243 0.0068
C12 C 0.965(3) 0.463(3) 0.1205(7)
H8 H 1.0479 0.4328 0.1394
H9 H 0.9091 0.4098 0.1371
H10 H 0.9618 0.5372 0.1480
loop_
_geom_bond_atom_site_label_1
_geom_bond_atom_site_label_2
_geom_bond_site_symmetry_1
_geom_bond_site_symmetry_2
Lu1 O1 1_555 1_555
Ba1 O2 1_555 1_555
Ba2 O1 1_555 1_555
O1 C1 1_555 1_555
O2 C1 1_555 1_555
O3 C4 1_555 1_555
O4 C7 1_555 1_555
O5 Lu1 1_555 1_555
O6 Lu1 1_555 1_555
O7 Lu1 1_555 1_555
O8 Lu1 1_555 1_555
O9 C9 1_555 1_555
O10 C8 1_555 1_555
O11 Ba1 1_555 1_555
O12 C11 1_555 1_555
O13 C11 1_555 1_555
O14 C10 1_555 1_555
O15 Ba1 1_555 1_555
H1 O15 1_555 1_555
H2 O15 1_555 1_555
O16 Ba1 1_555 1_555
H3 O16 1_555 1_555
H4 O16 1_555 1_555
C1 C2 1_555 1_555
C2 O6 1_555 1_555
C3 C2 1_555 1_555
H5 C3 1_555 1_555
C4 C3 1_555 1_555
C5 C4 1_555 1_555
H6 C5 1_555 1_555
C6 O6 1_555 1_555
C7 O5 1_555 1_555
C8 O7 1_555 1_555
C9 O8 1_555 1_555
C10 O11 1_555 1_555
C11 C10 1_555 1_555
O17 H7 1_555 1_555
C12 O17 1_555 1_555
H8 C12 1_555 1_555
H9 C12 1_555 1_555
H10 C12 1_555 1_555
Lu1C O3 1_555 1_555
Lu1A O9 1_555 1_555
Ba1C O5 1_555 1_555
Ba1B O10 1_555 1_555
Ba1A O13 1_555 1_555
Ba2_2 O4 1_555 1_555
Ba2C O11 1_555 1_555
Ba2B O13 1_555 1_555
O3C Lu1 1_555 1_555
O4_2 Ba2 1_555 1_555
O5C Ba1 1_555 1_555
O8C Ba1 1_555 1_555
O9A Lu1 1_555 1_555
O10A Lu1 1_555 1_555
O10B Ba1 1_555 1_555
O11C Ba2 1_555 1_555
O12C Ba2 1_555 1_555
O13A Ba1 1_555 1_555
O13B Ba2 1_555 1_555
O14B Ba2 1_555 1_555
Ba2 O15 1_555 1_555
Ba2 O16 1_555 1_555
O8 Ba1C 1_555 1_555
O10 Lu1A 1_555 1_555
O12 Ba2C 1_555 1_555
O14 Ba2B 1_555 1_555
C5 C6 1_555 1_555
C6 C7 1_555 1_555
C8 C9 1_555 1_555
Ba1C O10A 1_555 1_555
Ba2C O13A 1_555 1_555

#END
