
#######################################################################
#
#                 Cambridge Crystallographic Data Centre
#                                CCDC 
#
#######################################################################
#
# If this CIF has been generated from an entry in the Cambridge 
# Structural Database, then it will include bibliographic, chemical, 
# crystal, experimental, refinement or atomic coordinate data resulting 
# from the CCDC's data processing and validation procedures.
#
#######################################################################

data_VUNFAM
_symmetry_cell_setting           triclinic
_symmetry_space_group_name_H-M   'P -1'
_symmetry_Int_Tables_number      2
_space_group_name_Hall           '-P 1'
loop_
_symmetry_equiv_pos_site_id
_symmetry_equiv_pos_as_xyz
1 x,y,z
2 -x,-y,-z
_cell_length_a                   8.9477(4)
_cell_length_b                   10.9854(5)
_cell_length_c                   15.5611(8)
_cell_angle_alpha                85.7940(10)
_cell_angle_beta                 88.3660(10)
_cell_angle_gamma                83.6850(10)
_cell_volume                     1515.87
loop_
_atom_site_label
_atom_site_type_symbol
_atom_site_fract_x
_atom_site_fract_y
_atom_site_fract_z
O1 O 0.3804(2) 1.00516(16) 0.08341(11)
H2 H 0.322(3) 1.032(3) 0.0482(18)
H4 H 0.457(4) 1.037(3) 0.073(2)
Cu1 Cu 0.39227(3) 0.78443(2) 0.124263(14)
Cu2 Cu 0.53651(3) 0.98769(2) 0.233186(15)
C1 C 0.7132(2) 0.67000(17) 0.27848(14)
H5 H 0.7918 0.6730 0.2382
O3 O 0.56087(14) 0.82237(12) 0.19280(8)
O4 O 0.68573(18) 1.03756(13) 0.15447(8)
C2 C 0.2610(2) 0.6191(2) 0.02061(14)
H6 H 0.1886 0.5660 0.0141
N1 N 0.3481(2) 0.95349(16) 0.30458(11)
O5 O 0.52028(17) 0.75910(14) 0.02634(9)
C3 C 0.4614(2) 0.73769(17) 0.32540(12)
C4 C 0.4806(3) 0.6589(2) 0.39931(14)
H7 H 0.4023 0.6549 0.4397
C5 C 0.8890(2) 1.14074(18) 0.10211(12)
H8 H 0.8991 1.0925 0.0552
C6 C 0.7746(2) 1.12307(16) 0.16442(11)
C7 C 0.7626(2) 1.19892(18) 0.23472(12)
N2 N 0.24526(18) 0.80979(17) 0.22895(10)
C8 C 0.3823(2) 0.61818(17) -0.04223(13)
N3 N 0.5454(2) 1.12127(15) 0.30538(11)
C9 C 0.5786(2) 0.74318(15) 0.26456(12)
C10 C 0.3197(2) 0.82234(18) 0.31189(12)
H9 H 0.2491 0.8083 0.3600
C11 C 0.1647(2) 0.6986(2) 0.23358(14)
H10 H 0.0781 0.7090 0.2723
H11 H 0.2307 0.6278 0.2554
C12 C 0.2070(3) 1.0188(2) 0.26611(17)
H12 H 0.2299 1.0878 0.2274
H13 H 0.1380 1.0488 0.3110
C13 C 0.5039(2) 0.68978(17) -0.03692(12)
N4 N 0.24402(19) 0.68673(18) 0.08495(11)
C14 C 0.6126(2) 0.68433(19) -0.10400(13)
H14 H 0.6933 0.7307 -0.1023
C15 C 0.1394(3) 0.9252(2) 0.21769(16)
H15 H 0.0404 0.9119 0.2411
H16 H 0.1304 0.9524 0.1571
C16 C 0.3786(3) 0.54317(19) -0.11149(15)
H17 H 0.3006 0.4941 -0.1135
C17 C 0.6457(3) 1.19419(19) 0.30053(12)
H18 H 0.6441 1.2496 0.3430
C18 C 0.8657(3) 1.2847(2) 0.24073(15)
H19 H 0.8590 1.3328 0.2877
C19 C 0.3811(3) 0.9975(2) 0.38947(14)
H20 H 0.4595 0.9418 0.4175
H21 H 0.2917 1.0002 0.4263
C20 C 0.6150(3) 0.5868(2) 0.41297(16)
H22 H 0.6279 0.5347 0.4627
C21 C 0.9761(3) 1.2999(2) 0.17938(16)
H23 H 1.0435 1.3575 0.1845
C22 C 0.6030(3) 0.61260(19) -0.17187(14)
H24 H 0.6758 0.6124 -0.2157
C23 C 0.9858(2) 1.2279(2) 0.10943(14)
H25 H 1.0591 1.2389 0.0668
C24 C 0.4853(3) 0.5400(2) -0.17570(16)
H26 H 0.4798 0.4905 -0.2212
C25 C 0.7301(3) 0.5921(2) 0.35281(17)
H27 H 0.8204 0.5429 0.3620
C26 C 0.4317(3) 1.1244(2) 0.37504(16)
H28 H 0.3469 1.1839 0.3594
H29 H 0.4740 1.1478 0.4273
C27 C 0.1141(3) 0.6790(3) 0.14359(15)
H30 H 0.0777 0.5991 0.1428
H31 H 0.0334 0.7414 0.1261
O2 O 0.7902(2) 0.86004(18) 0.04639(11)
H1 H 0.771(3) 0.910(3) 0.0879(18)
H3 H 0.722(4) 0.815(3) 0.0467(19)
Cu3 Cu 0.01630(4) 0.74757(3) 0.50977(2)
S1 S -0.13973(8) 0.62334(5) 0.61675(4)
S2 S -0.16879(7) 0.88678(5) 0.40253(4)
C28 C -0.1191(2) 0.48766(17) 0.57740(11)
N5 N -0.0970(2) 1.11793(16) 0.44255(11)
C29 C -0.1254(2) 1.02220(18) 0.42571(12)
N6 N -0.1023(2) 0.39163(15) 0.55065(11)
Cu3A Cu -0.01630(4) 1.25243(3) 0.49023(2)
Cu3A_2 Cu -0.01630(4) 0.25243(3) 0.49023(2)
N5A N 0.0970(2) 0.88207(16) 0.55745(11)
N6A N 0.1023(2) 0.60837(15) 0.44935(11)
loop_
_geom_bond_atom_site_label_1
_geom_bond_atom_site_label_2
_geom_bond_site_symmetry_1
_geom_bond_site_symmetry_2
O1 H2 1_555 1_555
O2 H1 1_555 1_555
H3 O2 1_555 1_555
H4 O1 1_555 1_555
Cu1 O1 1_555 1_555
Cu2 O1 1_555 1_555
C1 H5 1_555 1_555
O3 Cu1 1_555 1_555
O4 Cu2 1_555 1_555
C2 H6 1_555 1_555
N1 Cu2 1_555 1_555
O5 Cu1 1_555 1_555
C3 C4 1_555 1_555
C4 H7 1_555 1_555
C5 H8 1_555 1_555
C6 O4 1_555 1_555
C7 C6 1_555 1_555
N2 Cu1 1_555 1_555
C8 C2 1_555 1_555
N3 Cu2 1_555 1_555
C9 C1 1_555 1_555
C10 N1 1_555 1_555
H9 C10 1_555 1_555
C11 N2 1_555 1_555
H10 C11 1_555 1_555
H11 C11 1_555 1_555
C12 N1 1_555 1_555
H12 C12 1_555 1_555
H13 C12 1_555 1_555
C13 O5 1_555 1_555
N4 Cu1 1_555 1_555
C14 C13 1_555 1_555
H14 C14 1_555 1_555
C15 N2 1_555 1_555
H15 C15 1_555 1_555
H16 C15 1_555 1_555
C16 C8 1_555 1_555
H17 C16 1_555 1_555
C17 C7 1_555 1_555
H18 C17 1_555 1_555
C18 C7 1_555 1_555
H19 C18 1_555 1_555
C19 N1 1_555 1_555
H20 C19 1_555 1_555
H21 C19 1_555 1_555
C20 C4 1_555 1_555
H22 C20 1_555 1_555
C21 C18 1_555 1_555
H23 C21 1_555 1_555
C22 C14 1_555 1_555
H24 C22 1_555 1_555
C23 C5 1_555 1_555
H25 C23 1_555 1_555
C24 C16 1_555 1_555
H26 C24 1_555 1_555
C25 C1 1_555 1_555
H27 C25 1_555 1_555
C26 N3 1_555 1_555
H28 C26 1_555 1_555
H29 C26 1_555 1_555
C27 C11 1_555 1_555
H30 C27 1_555 1_555
H31 C27 1_555 1_555
Cu3 S1 1_555 1_555
S1 C28 1_555 1_555
S2 Cu3 1_555 1_555
C28 N6 1_555 1_555
N5 C29 1_555 1_555
C29 S2 1_555 1_555
N6 Cu3A_2 1_555 1_555
Cu3A N5 1_555 1_555
N5A Cu3 1_555 1_555
N6A Cu3 1_555 1_555
Cu2 O3 1_555 1_555
O3 C9 1_555 1_555
C2 N4 1_555 1_555
C3 C9 1_555 1_555
C3 C10 1_555 1_555
C5 C6 1_555 1_555
N2 C10 1_555 1_555
C8 C13 1_555 1_555
N3 C17 1_555 1_555
C12 C15 1_555 1_555
N4 C27 1_555 1_555
C19 C26 1_555 1_555
C20 C25 1_555 1_555
C21 C23 1_555 1_555
C22 C24 1_555 1_555

#END
