
#######################################################################
#
#                 Cambridge Crystallographic Data Centre
#                                CCDC 
#
#######################################################################
#
# If this CIF has been generated from an entry in the Cambridge 
# Structural Database, then it will include bibliographic, chemical, 
# crystal, experimental, refinement or atomic coordinate data resulting 
# from the CCDC's data processing and validation procedures.
#
#######################################################################

data_VUNPOL
_symmetry_cell_setting           monoclinic
_symmetry_space_group_name_H-M   'P 21/n'
_symmetry_Int_Tables_number      14
_space_group_name_Hall           '-P 2yn'
loop_
_symmetry_equiv_pos_site_id
_symmetry_equiv_pos_as_xyz
1 x,y,z
2 1/2-x,1/2+y,1/2-z
3 -x,-y,-z
4 1/2+x,1/2-y,1/2+z
_cell_length_a                   11.167(5)
_cell_length_b                   14.806(5)
_cell_length_c                   19.494(5)
_cell_angle_alpha                90
_cell_angle_beta                 101.838(5)
_cell_angle_gamma                90
_cell_volume                     3154.56
loop_
_atom_site_label
_atom_site_type_symbol
_atom_site_fract_x
_atom_site_fract_y
_atom_site_fract_z
Zn1 Zn 1.0000 1.0000 0.5000
O1 O 0.65717(16) 0.97009(13) 0.45254(9)
N1 N 0.55203(18) 1.04842(14) 0.30946(10)
C1 C 0.7359(2) 0.92216(15) 0.49229(11)
Zn2 Zn 0.71359(2) 1.042812(15) 0.382993(12)
O2 O 0.84586(15) 0.91790(11) 0.48834(9)
C2 C 0.6916(2) 0.86391(16) 0.54470(12)
N2 N 0.2430(2) 1.03016(18) 0.14399(12)
C3 C 0.5680(2) 0.84362(17) 0.53740(13)
H1 H 0.5112 0.8686 0.5007
O3 O 0.31134(16) 0.51384(13) 0.82278(9)
C4 C 0.5295(2) 0.78654(17) 0.58454(13)
H2 H 0.4469 0.7723 0.5786
O4 O 0.49490(17) 0.49934(12) 0.89317(9)
O5 O 0.89588(17) 1.11865(11) 0.49612(10)
C5 C 0.6124(2) 0.74998(16) 0.64095(12)
O6 O 0.76380(16) 1.16669(11) 0.40238(10)
C6 C 0.7349(2) 0.77361(19) 0.64951(13)
H3 H 0.7910 0.7524 0.6881
O7 O 0.3413(2) 0.91006(17) 0.11029(12)
C7 C 0.7743(2) 0.82872(19) 0.60081(13)
H4 H 0.8571 0.8420 0.6061
C8 C 0.5701(2) 0.68827(16) 0.69139(12)
O8 O 0.1491(2) 1.1526(2) 0.17837(13)
C9 C 0.6230(2) 0.69006(19) 0.76277(13)
H5 H 0.6883 0.7287 0.7791
C10 C 0.5791(2) 0.63484(19) 0.80963(12)
H6 H 0.6166 0.6357 0.8569
C11 C 0.4800(2) 0.57840(16) 0.78658(11)
C12 C 0.4298(2) 0.57350(19) 0.71549(12)
H7 H 0.3655 0.5340 0.6991
C13 C 0.4756(2) 0.62750(19) 0.66891(12)
H8 H 0.4421 0.6230 0.6213
C14 C 0.4262(2) 0.52609(16) 0.83908(11)
C15 C 0.8498(2) 1.17911(14) 0.45486(13)
C16 C 0.8940(2) 1.27436(15) 0.46812(14)
C17 C 0.9960(3) 1.29280(17) 0.51912(16)
H9 H 1.0373 1.2459 0.5456
C18 C 1.0375(3) 1.38069(18) 0.53126(16)
H10 H 1.1071 1.3917 0.5655
C19 C 0.9774(2) 1.45280(15) 0.49337(15)
C20 C 0.8763(3) 1.43308(18) 0.44177(19)
H11 H 0.8343 1.4799 0.4155
C21 C 0.8359(3) 1.34487(18) 0.42826(19)
H12 H 0.7693 1.3332 0.3921
C22 C 0.4458(3) 1.0135(2) 0.32002(14)
H13 H 0.4426 0.9919 0.3644
C23 C 0.3414(3) 1.0084(2) 0.26798(16)
H14 H 0.2698 0.9835 0.2770
C24 C 0.3460(2) 1.0408(2) 0.20267(14)
C25 C 0.4507(3) 1.0797(3) 0.19216(16)
H15 H 0.4543 1.1047 0.1489
C26 C 0.5519(3) 1.0818(3) 0.24636(15)
H16 H 0.6235 1.1079 0.2382
C27 C 0.1472(3) 1.0918(2) 0.13681(15)
C28 C 0.0442(2) 1.0780(2) 0.07550(13)
C29 C 0.0500(2) 1.00620(18) 0.02893(13)
C30 C 0.1492(2) 0.94678(19) 0.03793(14)
C31 C 0.2529(3) 0.9580(2) 0.09885(15)
C32 C -0.0543(3) 1.1347(2) 0.06518(17)
H17 H -0.055(3) 1.179(3) 0.095(2)
C33 C 0.1520(3) 0.8771(2) -0.00796(17)
H18 H 0.221(3) 0.841(2) -0.0014(15)
N1B N -0.55203(18) 0.95158(14) -0.30946(10)
N2B N -0.2430(2) 0.96984(18) -0.14399(12)
O7B O -0.3413(2) 1.08994(17) -0.11029(12)
O8B O -0.1491(2) 0.8474(2) -0.17837(13)
C22B C -0.4458(3) 0.9865(2) -0.32002(14)
H13B H -0.4426 1.0081 -0.3644
C23B C -0.3414(3) 0.9916(2) -0.26798(16)
H14B H -0.2698 1.0165 -0.2770
C24B C -0.3460(2) 0.9592(2) -0.20267(14)
C25B C -0.4507(3) 0.9203(3) -0.19216(16)
H15B H -0.4543 0.8953 -0.1489
C26B C -0.5519(3) 0.9182(3) -0.24636(15)
H16B H -0.6235 0.8921 -0.2382
C27B C -0.1472(3) 0.9082(2) -0.13681(15)
C28B C -0.0442(2) 0.9220(2) -0.07550(13)
C29B C -0.0500(2) 0.99380(18) -0.02893(13)
C30B C -0.1492(2) 1.05322(19) -0.03793(14)
C31B C -0.2529(3) 1.0420(2) -0.09885(15)
C32B C 0.0543(3) 0.8653(2) -0.06518(17)
H17B H 0.055(3) 0.821(3) -0.095(2)
C33B C -0.1520(3) 1.1229(2) 0.00796(17)
H18B H -0.221(3) 1.159(2) 0.0014(15)
O5B O 1.10412(17) 1.88135(11) 0.50388(10)
O6B O 1.23620(16) 1.83331(11) 0.59762(10)
C15B C 1.1502(2) 1.82089(14) 0.54514(13)
C16B C 1.1060(2) 1.72564(15) 0.53188(14)
C17B C 1.0040(3) 1.70720(17) 0.48088(16)
H9B H 0.9627 1.7541 0.4544
C18B C 0.9625(3) 1.61931(18) 0.46874(16)
H10B H 0.8929 1.6083 0.4345
C19B C 1.0226(2) 1.54720(15) 0.50663(15)
C20B C 1.1237(3) 1.56692(18) 0.55823(19)
H11B H 1.1657 1.5201 0.5845
C21B C 1.1641(3) 1.65513(18) 0.57174(19)
H12B H 1.2307 1.6668 0.6079
O1B O -0.65717(16) 1.02991(13) -0.45254(9)
C1B C -0.7359(2) 1.07784(15) -0.49229(11)
Zn2B Zn -0.71359(2) 0.957188(15) -0.382993(12)
O2B O -0.84586(15) 1.08210(11) -0.48834(9)
C2B C -0.6916(2) 1.13609(16) -0.54470(12)
C3B C -0.5680(2) 1.15638(17) -0.53740(13)
H1B H -0.5112 1.1314 -0.5007
O3B O -0.31134(16) 1.48616(13) -0.82278(9)
C4B C -0.5295(2) 1.21346(17) -0.58454(13)
H2B H -0.4469 1.2277 -0.5786
O4B O -0.49490(17) 1.50066(12) -0.89317(9)
C5B C -0.6124(2) 1.25002(16) -0.64095(12)
C6B C -0.7349(2) 1.22639(19) -0.64951(13)
H3B H -0.7910 1.2476 -0.6881
C7B C -0.7743(2) 1.17128(19) -0.60081(13)
H4B H -0.8571 1.1580 -0.6061
C8B C -0.5701(2) 1.31173(16) -0.69139(12)
C9B C -0.6230(2) 1.30994(19) -0.76277(13)
H5B H -0.6883 1.2713 -0.7791
C10B C -0.5791(2) 1.36516(19) -0.80963(12)
H6B H -0.6166 1.3643 -0.8569
C11B C -0.4800(2) 1.42160(16) -0.78658(11)
C12B C -0.4298(2) 1.42650(19) -0.71549(12)
H7B H -0.3655 1.4660 -0.6991
C13B C -0.4756(2) 1.37250(19) -0.66891(12)
H8B H -0.4421 1.3770 -0.6213
C14B C -0.4262(2) 1.47391(16) -0.83908(11)
Zn1_2 Zn -1.0000 1.0000 -0.5000
Zn1_3 Zn 1.0000 2.0000 0.5000
Zn1A Zn -0.5000 1.5000 -1.0000
Zn1A_2 Zn 0.5000 0.5000 1.0000
Zn2A Zn -0.21359(2) 1.542812(15) -0.882993(12)
Zn2B_2 Zn 1.28641(2) 1.957188(15) 0.617007(12)
Zn2C Zn 0.21359(2) 0.457188(15) 0.882993(12)
O2B_2 O 1.15414(15) 1.08210(11) 0.51166(9)
O3A O -0.81134(16) 1.01384(13) -0.32278(9)
O3C O 0.81134(16) 0.98616(13) 0.32278(9)
O4A O 1.00510(17) 0.99934(12) 0.60683(9)
O4C O 0.99490(17) 1.00066(12) 0.39317(9)
O5B_2 O 1.10412(17) 0.88135(11) 0.50388(10)
O6B_2 O -0.76380(16) 0.83331(11) -0.40238(10)
N3 N 0.1709(4) 0.6974(3) 0.7782(2)
H19 H 0.1859 0.6406 0.7764
O9 O 0.2367(4) 0.8292(3) 0.8294(2)
C34 C 0.0678(5) 0.7312(5) 0.7355(3)
H20 H 0.0248 0.6832 0.7077
H21 H 0.0905 0.7764 0.7052
H22 H 0.0158 0.7577 0.7636
C35 C 0.2474(5) 0.7479(5) 0.8216(3)
H23 H 0.3154 0.7197 0.8486
loop_
_geom_bond_atom_site_label_1
_geom_bond_atom_site_label_2
_geom_bond_site_symmetry_1
_geom_bond_site_symmetry_2
Zn1 O2 1_555 1_555
O1 C1 1_555 1_555
N1 Zn2 1_555 1_555
C1 O2 1_555 1_555
Zn2 O1 1_555 1_555
C2 C1 1_555 1_555
N2 C24 1_555 1_555
C3 C2 1_555 1_555
H1 C3 1_555 1_555
O3 C14 1_555 1_555
C4 C3 1_555 1_555
H2 C4 1_555 1_555
O4 C14 1_555 1_555
O5 Zn1 1_555 1_555
C5 C4 1_555 1_555
O6 Zn2 1_555 1_555
C6 C5 1_555 1_555
H3 C6 1_555 1_555
O7 C31 1_555 1_555
C7 C2 1_555 1_555
H4 C7 1_555 1_555
C8 C5 1_555 1_555
O8 C27 1_555 1_555
C9 C8 1_555 1_555
H5 C9 1_555 1_555
C10 C9 1_555 1_555
H6 C10 1_555 1_555
C11 C10 1_555 1_555
C12 C11 1_555 1_555
H7 C12 1_555 1_555
C13 C8 1_555 1_555
H8 C13 1_555 1_555
C14 C11 1_555 1_555
C15 O5 1_555 1_555
C16 C15 1_555 1_555
C17 C16 1_555 1_555
H9 C17 1_555 1_555
C18 C17 1_555 1_555
H10 C18 1_555 1_555
C19 C18 1_555 1_555
C20 C19 1_555 1_555
H11 C20 1_555 1_555
C21 C16 1_555 1_555
H12 C21 1_555 1_555
C22 N1 1_555 1_555
H13 C22 1_555 1_555
C23 C22 1_555 1_555
H14 C23 1_555 1_555
C24 C23 1_555 1_555
C25 C24 1_555 1_555
H15 C25 1_555 1_555
C26 N1 1_555 1_555
H16 C26 1_555 1_555
C27 N2 1_555 1_555
C28 C27 1_555 1_555
C29 C28 1_555 1_555
C30 C29 1_555 1_555
C31 N2 1_555 1_555
C32 C28 1_555 1_555
H17 C32 1_555 1_555
C33 C30 1_555 1_555
H18 C33 1_555 1_555
N3 H19 1_555 1_555
O9 C35 1_555 1_555
C34 N3 1_555 1_555
H20 C34 1_555 1_555
H21 C34 1_555 1_555
H22 C34 1_555 1_555
C35 N3 1_555 1_555
H23 C35 1_555 1_555
N1B C22B 1_555 1_555
N2B C24B 1_555 1_555
O7B C31B 1_555 1_555
O8B C27B 1_555 1_555
C22B H13B 1_555 1_555
C23B C22B 1_555 1_555
H14B C23B 1_555 1_555
C24B C23B 1_555 1_555
C25B C24B 1_555 1_555
H15B C25B 1_555 1_555
C26B N1B 1_555 1_555
H16B C26B 1_555 1_555
C27B N2B 1_555 1_555
C28B C27B 1_555 1_555
C29B C29 1_555 1_555
C30B C29B 1_555 1_555
C31B N2B 1_555 1_555
C32B C33 1_555 1_555
H17B C32B 1_555 1_555
C33B C32 1_555 1_555
H18B C33B 1_555 1_555
O5B C15B 1_555 1_555
O6B C15B 1_555 1_555
C15B C16B 1_555 1_555
C16B C17B 1_555 1_555
C17B H9B 1_555 1_555
C18B C17B 1_555 1_555
H10B C18B 1_555 1_555
C19B C19 1_555 1_555
C20B C19B 1_555 1_555
H11B C20B 1_555 1_555
C21B C16B 1_555 1_555
H12B C21B 1_555 1_555
O1B C1B 1_555 1_555
C1B O2B 1_555 1_555
Zn2B N1B 1_555 1_555
O2B Zn1_2 1_555 1_555
C2B C1B 1_555 1_555
C3B C2B 1_555 1_555
H1B C3B 1_555 1_555
O3B C14B 1_555 1_555
C4B C3B 1_555 1_555
H2B C4B 1_555 1_555
O4B C14B 1_555 1_555
C5B C4B 1_555 1_555
C6B C5B 1_555 1_555
H3B C6B 1_555 1_555
C7B C2B 1_555 1_555
H4B C7B 1_555 1_555
C8B C5B 1_555 1_555
C9B C8B 1_555 1_555
H5B C9B 1_555 1_555
C10B C9B 1_555 1_555
H6B C10B 1_555 1_555
C11B C10B 1_555 1_555
C12B C11B 1_555 1_555
H7B C12B 1_555 1_555
C13B C8B 1_555 1_555
H8B C13B 1_555 1_555
C14B C11B 1_555 1_555
Zn1_3 O5B 1_555 1_555
Zn1A O4B 1_555 1_555
Zn1A_2 O4 1_555 1_555
Zn2A O3B 1_555 1_555
Zn2B_2 O6B 1_555 1_555
Zn2C O3 1_555 1_555
O2B_2 Zn1 1_555 1_555
O3A Zn2B 1_555 1_555
O3C Zn2 1_555 1_555
O4A Zn1 1_555 1_555
O4C Zn1 1_555 1_555
O5B_2 Zn1 1_555 1_555
O6B_2 Zn2B 1_555 1_555
O6 C15 1_555 1_555
C6 C7 1_555 1_555
C12 C13 1_555 1_555
C20 C21 1_555 1_555
C25 C26 1_555 1_555
C30 C31 1_555 1_555
C25B C26B 1_555 1_555
C28B C29B 1_555 1_555
C28B C32B 1_555 1_555
C30B C31B 1_555 1_555
C30B C33B 1_555 1_555
C18B C19B 1_555 1_555
C20B C21B 1_555 1_555
O1B Zn2B 1_555 1_555
C6B C7B 1_555 1_555
C12B C13B 1_555 1_555

#END
