
#######################################################################
#
#                 Cambridge Crystallographic Data Centre
#                                CCDC 
#
#######################################################################
#
# If this CIF has been generated from an entry in the Cambridge 
# Structural Database, then it will include bibliographic, chemical, 
# crystal, experimental, refinement or atomic coordinate data resulting 
# from the CCDC's data processing and validation procedures.
#
#######################################################################

data_VUNQIF
_symmetry_cell_setting           triclinic
_symmetry_space_group_name_H-M   'P -1'
_symmetry_Int_Tables_number      2
_space_group_name_Hall           '-P 1'
loop_
_symmetry_equiv_pos_site_id
_symmetry_equiv_pos_as_xyz
1 x,y,z
2 -x,-y,-z
_cell_length_a                   7.6054(15)
_cell_length_b                   12.743(3)
_cell_length_c                   18.493(4)
_cell_angle_alpha                70.86(3)
_cell_angle_beta                 78.88(3)
_cell_angle_gamma                75.89(3)
_cell_volume                     1629.58
loop_
_atom_site_label
_atom_site_type_symbol
_atom_site_fract_x
_atom_site_fract_y
_atom_site_fract_z
Sm1 Sm 0.31109(9) 0.04173(5) 0.41187(4)
Sm2 Sm 0.63076(9) 0.23707(5) 0.23404(4)
O1 O 0.0213(13) 0.1442(8) 0.3738(5)
O2 O 0.5484(11) 0.1092(7) 0.4693(5)
O3 O 0.6424(12) 0.0441(8) 0.3312(5)
C1 C 0.6769(18) -0.0631(11) 0.3464(8)
O4 O 0.3544(12) 0.2308(7) 0.3420(5)
O5 O 0.3309(13) 0.3861(8) 0.2450(6)
N1 N 0.6880(14) 0.4472(9) 0.1902(7)
O6 O -0.2007(13) 0.0970(8) 0.1685(5)
C2 C 0.6624(19) 0.2923(13) 0.0326(8)
H1 H 0.6298 0.2216 0.0494
C3 C 0.2703(18) 0.3284(11) 0.3101(8)
C4 C -0.0438(18) 0.1204(12) 0.1691(7)
C5 C 0.8616(18) -0.1245(10) 0.3238(7)
C6 C -0.0903(18) 0.2343(13) 0.3656(8)
O7 O 0.5495(12) -0.1186(7) 0.3771(5)
C7 C 1.0087(18) -0.1466(11) 0.3652(8)
O8 O -0.0349(13) 0.1999(8) 0.1945(5)
C8 C -0.0608(17) 0.3375(11) 0.3804(8)
C9 C 0.768(2) 0.6121(12) 0.0882(9)
N2 N 0.6706(15) 0.3395(9) 0.0858(6)
C10 C 0.7516(18) 0.5006(12) -0.0219(8)
C11 C 0.1242(17) 0.0540(11) 0.1370(7)
N3 N 1.199(2) -0.2451(11) 0.2770(8)
C12 C 1.0556(19) -0.2243(11) 0.2372(8)
H2 H 1.0716 -0.2495 0.1941
C13 C 0.7284(18) 0.5012(11) 0.1143(8)
C14 C 0.0998(19) 0.3793(11) 0.3528(8)
C15 C 0.1089(19) -0.0018(12) 0.0847(8)
H3 H -0.0057 0.0055 0.0709
C16 C 1.1706(19) -0.2021(12) 0.3377(8)
H4 H 1.2712 -0.2118 0.3625
C17 C 0.681(2) 0.5001(13) 0.2407(9)
H5 H 0.6507 0.4644 0.2927
C18 C 0.806(2) 0.6640(13) 0.0063(11)
H6 H 0.8351 0.7356 -0.0110
C19 C 0.7177(16) 0.4451(12) 0.0567(8)
C20 C 0.748(2) 0.4441(15) -0.0746(9)
H7 H 0.7789 0.4763 -0.1272
C21 C 0.769(3) 0.6629(15) 0.1438(12)
H8 H 0.8046 0.7324 0.1301
C22 C 0.700(2) 0.3418(16) -0.0478(9)
H9 H 0.6906 0.3041 -0.0820
C23 C 0.7999(19) 0.6128(13) -0.0459(10)
H10 H 0.8270 0.6491 -0.0981
C24 C 0.718(3) 0.6094(14) 0.2181(12)
H11 H 0.7066 0.6460 0.2553
N4 N -0.1875(19) 0.4926(12) 0.4372(8)
C25 C 0.2493(19) -0.0633(12) 0.0549(8)
H12 H 0.2333 -0.0979 0.0201
C26 C -0.036(2) 0.5343(11) 0.4074(8)
H13 H -0.0279 0.6010 0.4156
C27 C 0.107(2) 0.4841(11) 0.3651(9)
H14 H 0.2091 0.5173 0.3444
C28 C 0.889(2) -0.1673(12) 0.2592(8)
H15 H 0.7914 -0.1560 0.2321
C29 C -0.197(2) 0.3959(13) 0.4226(8)
H16 H -0.3033 0.3669 0.4425
O10 O -0.2526(11) 0.2477(7) 0.3439(5)
C30 C 0.9887(18) -0.1096(10) 0.4362(7)
O11 O 0.8328(12) -0.0977(8) 0.4735(5)
O12 O 1.1333(11) -0.0978(8) 0.4540(5)
N5 N 0.413(2) -0.0765(12) 0.0738(8)
C31 C 0.444(2) -0.0218(13) 0.1241(8)
H17 H 0.5609 -0.0298 0.1358
C32 C 0.2967(18) 0.0434(10) 0.1556(7)
C33 C 0.3310(16) 0.0930(11) 0.2162(8)
O13 O 0.4129(12) 0.1766(8) 0.1896(5)
O14 O 0.2891(12) 0.0409(8) 0.2853(5)
Sm1A Sm 0.68891(9) -0.04173(5) 0.58813(4)
Sm1_2 Sm 1.31109(9) 0.04173(5) 0.41187(4)
Sm2_2 Sm -0.36924(9) 0.23707(5) 0.23404(4)
O2A O 0.4516(11) -0.1092(7) 0.5307(5)
O6_2 O 0.7993(13) 0.0970(8) 0.1685(5)
O8_2 O 0.9651(13) 0.1999(8) 0.1945(5)
O10_2 O 0.7474(11) 0.2477(7) 0.3439(5)
O11A O 0.1672(12) 0.0977(8) 0.5265(5)
O12_2 O 0.1333(11) -0.0978(8) 0.4540(5)
O9 O 0.606(2) 0.6844(11) 0.4942(8)
loop_
_geom_bond_atom_site_label_1
_geom_bond_atom_site_label_2
_geom_bond_site_symmetry_1
_geom_bond_site_symmetry_2
Sm1 O1 1_555 1_555
Sm2 O3 1_555 1_555
O1 C6 1_555 1_555
O2 Sm1 1_555 1_555
O3 Sm1 1_555 1_555
C1 O3 1_555 1_555
O4 Sm1 1_555 1_555
O5 Sm2 1_555 1_555
N1 Sm2 1_555 1_555
O6 C4 1_555 1_555
C2 H1 1_555 1_555
C3 O4 1_555 1_555
C4 O8 1_555 1_555
C5 C1 1_555 1_555
C6 C8 1_555 1_555
O7 Sm1 1_555 1_555
C7 C5 1_555 1_555
O8 Sm2_2 1_555 1_555
C8 C14 1_555 1_555
C9 C13 1_555 1_555
N2 Sm2 1_555 1_555
C10 C19 1_555 1_555
C11 C4 1_555 1_555
N3 C12 1_555 1_555
C12 H2 1_555 1_555
C13 N1 1_555 1_555
C14 C3 1_555 1_555
C15 C11 1_555 1_555
H3 C15 1_555 1_555
C16 C7 1_555 1_555
H4 C16 1_555 1_555
C17 N1 1_555 1_555
H5 C17 1_555 1_555
C18 C9 1_555 1_555
H6 C18 1_555 1_555
C19 N2 1_555 1_555
C20 C10 1_555 1_555
H7 C20 1_555 1_555
C21 C9 1_555 1_555
H8 C21 1_555 1_555
C22 C2 1_555 1_555
H9 C22 1_555 1_555
C23 C10 1_555 1_555
H10 C23 1_555 1_555
C24 C17 1_555 1_555
H11 C24 1_555 1_555
N4 C26 1_555 1_555
C25 C15 1_555 1_555
H12 C25 1_555 1_555
C26 H13 1_555 1_555
C27 C14 1_555 1_555
H14 C27 1_555 1_555
C28 C5 1_555 1_555
H15 C28 1_555 1_555
C29 C8 1_555 1_555
H16 C29 1_555 1_555
O10 C6 1_555 1_555
C30 C7 1_555 1_555
O11 C30 1_555 1_555
O12 C30 1_555 1_555
N5 C25 1_555 1_555
C31 N5 1_555 1_555
H17 C31 1_555 1_555
C32 C11 1_555 1_555
C33 C32 1_555 1_555
O13 Sm2 1_555 1_555
O14 Sm1 1_555 1_555
Sm1A O2 1_555 1_555
Sm1_2 O12 1_555 1_555
Sm2_2 O6 1_555 1_555
O2A Sm1 1_555 1_555
O6_2 Sm2 1_555 1_555
O8_2 Sm2 1_555 1_555
O10_2 Sm2 1_555 1_555
O11A Sm1 1_555 1_555
O12_2 Sm1 1_555 1_555
Sm2 O4 1_555 1_555
C1 O7 1_555 1_555
O5 C3 1_555 1_555
C2 N2 1_555 1_555
N3 C16 1_555 1_555
C12 C28 1_555 1_555
C13 C19 1_555 1_555
C18 C23 1_555 1_555
C20 C22 1_555 1_555
C21 C24 1_555 1_555
N4 C29 1_555 1_555
C26 C27 1_555 1_555
O10 Sm2_2 1_555 1_555
O11 Sm1A 1_555 1_555
C31 C32 1_555 1_555
C33 O13 1_555 1_555
C33 O14 1_555 1_555
Sm1A O2A 1_555 1_555

#END
