
#######################################################################
#
#                 Cambridge Crystallographic Data Centre
#                                CCDC 
#
#######################################################################
#
# If this CIF has been generated from an entry in the Cambridge 
# Structural Database, then it will include bibliographic, chemical, 
# crystal, experimental, refinement or atomic coordinate data resulting 
# from the CCDC's data processing and validation procedures.
#
#######################################################################

data_VUNTUV
_symmetry_cell_setting           monoclinic
_symmetry_space_group_name_H-M   'P 21/c'
_symmetry_Int_Tables_number      14
_space_group_name_Hall           '-P 2ybc'
loop_
_symmetry_equiv_pos_site_id
_symmetry_equiv_pos_as_xyz
1 x,y,z
2 -x,1/2+y,1/2-z
3 -x,-y,-z
4 x,1/2-y,1/2+z
_cell_length_a                   7.83392(20)
_cell_length_b                   15.49703(41)
_cell_length_c                   8.75018(24)
_cell_angle_alpha                90
_cell_angle_beta                 111.9157(20)
_cell_angle_gamma                90
_cell_volume                     985.526
loop_
_atom_site_label
_atom_site_type_symbol
_atom_site_fract_x
_atom_site_fract_y
_atom_site_fract_z
Ag1 Ag 0.75270(24) 0.31861(12) 0.66637(21)
S1 S -0.21937(71) 0.29234(33) 0.38807(69)
C1 C -0.0530(32) 0.3658(15) 0.4009(37)
C2 C 0.2875(26) 0.4008(13) 0.5010(30)
C3 C 0.2502(30) 0.4654(13) 0.3984(28)
H1 H 0.34098 0.50302 0.40403
C4 C 0.0731(31) 0.4933(13) 0.3071(28)
C5 C -0.2572(30) 0.4578(13) 0.1883(28)
H2 H -0.34702 0.43223 0.22298
H3 H -0.27653 0.51872 0.17933
C6 C 0.1713(24) 0.2766(12) 0.6325(26)
H4 H 0.0566 0.27229 0.65874
H5 H 0.2646 0.29853 0.73057
C7 C 0.2215(23) 0.1909(13) 0.5721(20)
H6 H 0.32462 0.20065 0.55419
H7 H 0.11628 0.17473 0.48078
H8 H 0.23654 0.15263 0.66423
C8 C -0.2910(22) 0.4268(11) 0.0159(23)
H9 H -0.22492 0.45304 -0.03574
H10 H -0.42881 0.43406 -0.05714
H11 H -0.27775 0.36276 0.014
N1 N -0.0824(23) 0.4371(13) 0.3020(24)
N2 N 0.1341(24) 0.3448(11) 0.4987(21)
O1 O 0.4379(16) 0.37051(72) 0.6087(15)
O2 O 0.0216(16) 0.55778(81) 0.2144(15)
Ag1_2 Ag -0.24730(24) 0.31861(12) 0.66637(21)
Ag1B Ag 0.24730(24) 0.68139(12) 0.33363(21)
Ag1C Ag -0.24730(24) 0.18139(12) 0.16637(21)
S1_2 S 0.78063(71) 0.29234(33) 0.38807(69)
S1C S 0.78063(71) 0.20766(33) 0.88807(69)
O2B O 0.9784(16) 0.44222(81) 0.7856(15)
loop_
_geom_bond_atom_site_label_1
_geom_bond_atom_site_label_2
_geom_bond_site_symmetry_1
_geom_bond_site_symmetry_2
Ag1 O1 1_555 1_555
S1 C1 1_555 1_555
C1 N1 1_555 1_555
C2 C3 1_555 1_555
C3 H1 1_555 1_555
C4 C3 1_555 1_555
C5 H2 1_555 1_555
H3 C5 1_555 1_555
C6 H4 1_555 1_555
H5 C6 1_555 1_555
C7 C6 1_555 1_555
H6 C7 1_555 1_555
H7 C7 1_555 1_555
H8 C7 1_555 1_555
C8 C5 1_555 1_555
H9 C8 1_555 1_555
H10 C8 1_555 1_555
H11 C8 1_555 1_555
N1 C4 1_555 1_555
N2 C1 1_555 1_555
O1 C2 1_555 1_555
O2 C4 1_555 1_555
Ag1_2 S1 1_555 1_555
Ag1B O2 1_555 1_555
Ag1C S1 1_555 1_555
S1_2 Ag1 1_555 1_555
S1C Ag1 1_555 1_555
O2B Ag1 1_555 1_555
C2 N2 1_555 1_555
C5 N1 1_555 1_555
C6 N2 1_555 1_555

#END
