
#######################################################################
#
#                 Cambridge Crystallographic Data Centre
#                                CCDC 
#
#######################################################################
#
# If this CIF has been generated from an entry in the Cambridge 
# Structural Database, then it will include bibliographic, chemical, 
# crystal, experimental, refinement or atomic coordinate data resulting 
# from the CCDC's data processing and validation procedures.
#
#######################################################################

data_VUNXEI
_symmetry_cell_setting           monoclinic
_symmetry_space_group_name_H-M   'P 21/c'
_symmetry_Int_Tables_number      14
_space_group_name_Hall           '-P 2ybc'
loop_
_symmetry_equiv_pos_site_id
_symmetry_equiv_pos_as_xyz
1 x,y,z
2 -x,1/2+y,1/2-z
3 -x,-y,-z
4 x,1/2-y,1/2+z
_cell_length_a                   12.323(5)
_cell_length_b                   5.580(5)
_cell_length_c                   17.527(5)
_cell_angle_alpha                90
_cell_angle_beta                 97.885(5)
_cell_angle_gamma                90
_cell_volume                     1193.8
loop_
_atom_site_label
_atom_site_type_symbol
_atom_site_fract_x
_atom_site_fract_y
_atom_site_fract_z
Li1 Li 0.54469(15) 0.2646(3) 0.34693(11)
C1 C 0.78565(8) 0.8124(2) 0.28828(6)
C2 C 0.87098(8) 0.74663(19) 0.35864(6)
C3 C 0.98755(8) 0.8471(2) 0.35406(7)
C4 C 1.07994(10) 0.7351(2) 0.41166(8)
C5 C 0.39832(10) 0.4262(3) 0.46252(8)
H1 H 0.3680 0.3437 0.5035
H2 H 0.3444 0.4216 0.4167
C6 C 0.42249(12) 0.6821(3) 0.48547(8)
H3 H 0.4487 0.7670 0.4433
H4 H 0.3558 0.7598 0.4963
F1 F 0.79835(6) 1.04356(14) 0.26973(5)
F2 F 0.80468(6) 0.67634(16) 0.22824(4)
F3 F 0.83682(6) 0.83174(15) 0.42297(4)
F4 F 0.87766(6) 0.50701(13) 0.36393(5)
F5 F 0.98768(6) 1.08298(13) 0.36827(5)
F6 F 1.01311(6) 0.81188(15) 0.28284(4)
F7 F 1.05446(8) 0.73911(18) 0.48238(5)
F8 F 1.10065(7) 0.51202(15) 0.39303(6)
F9 F 1.17113(6) 0.86212(18) 0.41042(6)
O1 O 0.64006(7) 0.53188(15) 0.33517(6)
O2 O 0.58523(7) 0.79044(18) 0.22471(5)
O3 O 0.61820(7) 0.95820(15) 0.35322(5)
O4 O 0.49641(7) 0.30705(17) 0.44761(5)
S1 S 0.64153(2) 0.76818(5) 0.302144(16)
Li1B Li 0.45531(15) 0.7354(3) 0.65307(11)
Li1_2 Li 0.54469(15) 1.2646(3) 0.34693(11)
Li1A Li 0.45531(15) 0.7646(3) 0.15307(11)
Li1B_2 Li 0.45531(15) -0.2646(3) 0.65307(11)
Li1C Li 0.54469(15) 0.2354(3) 0.84693(11)
C1B C 0.21435(8) 0.1876(2) 0.71172(6)
C2B C 0.12902(8) 0.25337(19) 0.64136(6)
C3B C 0.01245(8) 0.1529(2) 0.64594(7)
C4B C -0.07994(10) 0.2649(2) 0.58834(8)
C5B C 0.60168(10) 0.5738(3) 0.53748(8)
H1B H 0.6320 0.6563 0.4965
H2B H 0.6556 0.5784 0.5833
C6B C 0.57751(12) 0.3179(3) 0.51453(8)
H3B H 0.5513 0.2330 0.5567
H4B H 0.6442 0.2402 0.5037
F1B F 0.20165(6) -0.04356(14) 0.73027(5)
F2B F 0.19532(6) 0.32366(16) 0.77176(4)
F3B F 0.16318(6) 0.16826(15) 0.57703(4)
F4B F 0.12234(6) 0.49299(13) 0.63607(5)
F5B F 0.01232(6) -0.08298(13) 0.63173(5)
F6B F -0.01311(6) 0.18812(15) 0.71716(4)
F7B F -0.05446(8) 0.26089(18) 0.51762(5)
F8B F -0.10065(7) 0.48798(15) 0.60697(6)
F9B F -0.17113(6) 0.13788(18) 0.58958(6)
O1B O 0.35994(7) 0.46812(15) 0.66483(6)
O2B O 0.41477(7) 0.20956(18) 0.77529(5)
O2A O 0.41477(7) 0.29044(18) 0.27529(5)
O2C O 0.58523(7) 0.70956(18) 0.72471(5)
O3B O 0.38180(7) 0.04180(15) 0.64678(5)
O3_2 O 0.61820(7) -0.04180(15) 0.35322(5)
O3B_2 O 0.38180(7) 1.04180(15) 0.64678(5)
O4B O 0.50359(7) 0.69295(17) 0.55239(5)
S1B S 0.35847(2) 0.23182(5) 0.697856(16)
loop_
_geom_bond_atom_site_label_1
_geom_bond_atom_site_label_2
_geom_bond_site_symmetry_1
_geom_bond_site_symmetry_2
Li1 O1 1_555 1_555
C1 C2 1_555 1_555
C2 C3 1_555 1_555
C3 C4 1_555 1_555
C4 F7 1_555 1_555
C5 H1 1_555 1_555
H2 C5 1_555 1_555
C6 C5 1_555 1_555
H3 C6 1_555 1_555
H4 C6 1_555 1_555
F1 C1 1_555 1_555
F2 C1 1_555 1_555
F3 C2 1_555 1_555
F4 C2 1_555 1_555
F5 C3 1_555 1_555
F6 C3 1_555 1_555
F8 C4 1_555 1_555
F9 C4 1_555 1_555
O1 S1 1_555 1_555
O2 S1 1_555 1_555
O3 S1 1_555 1_555
O4 Li1 1_555 1_555
S1 C1 1_555 1_555
Li1B O1B 1_555 1_555
Li1_2 O3 1_555 1_555
Li1A O2 1_555 1_555
Li1B_2 O3B 1_555 1_555
Li1C O2B 1_555 1_555
C1B C2B 1_555 1_555
C2B C3B 1_555 1_555
C3B C4B 1_555 1_555
C4B F7B 1_555 1_555
C5B H1B 1_555 1_555
H2B C5B 1_555 1_555
C6B O4 1_555 1_555
H3B C6B 1_555 1_555
H4B C6B 1_555 1_555
F1B C1B 1_555 1_555
F2B C1B 1_555 1_555
F3B C2B 1_555 1_555
F4B C2B 1_555 1_555
F5B C3B 1_555 1_555
F6B C3B 1_555 1_555
F8B C4B 1_555 1_555
F9B C4B 1_555 1_555
O1B S1B 1_555 1_555
O2B S1B 1_555 1_555
O2A Li1 1_555 1_555
O2C Li1B 1_555 1_555
O3B S1B 1_555 1_555
O3_2 Li1 1_555 1_555
O3B_2 Li1B 1_555 1_555
O4B C6 1_555 1_555
S1B C1B 1_555 1_555
C5 O4 1_555 1_555
Li1B O4B 1_555 1_555
C5B C6B 1_555 1_555
C5B O4B 1_555 1_555

#END
