
#######################################################################
#
#                 Cambridge Crystallographic Data Centre
#                                CCDC 
#
#######################################################################
#
# If this CIF has been generated from an entry in the Cambridge 
# Structural Database, then it will include bibliographic, chemical, 
# crystal, experimental, refinement or atomic coordinate data resulting 
# from the CCDC's data processing and validation procedures.
#
#######################################################################

data_VUNYUA
_symmetry_cell_setting           trigonal
_symmetry_space_group_name_H-M   'P -3 1 m'
_symmetry_Int_Tables_number      162
_space_group_name_Hall           "-P 3 2'"
loop_
_symmetry_equiv_pos_site_id
_symmetry_equiv_pos_as_xyz
1 x,y,z
2 -y,x-y,z
3 -x+y,-x,z
4 -y,-x,-z
5 x,x-y,-z
6 -x+y,y,-z
7 -x,-y,-z
8 y,-x+y,-z
9 x-y,x,-z
10 y,x,z
11 -x,-x+y,z
12 x-y,-y,z
_cell_length_a                   21.341(2)
_cell_length_b                   21.341(2)
_cell_length_c                   16.635(3)
_cell_angle_alpha                90
_cell_angle_beta                 90
_cell_angle_gamma                120
_cell_volume                     6561.2
loop_
_atom_site_label
_atom_site_type_symbol
_atom_site_fract_x
_atom_site_fract_y
_atom_site_fract_z
Cl1 Cl 0.3333 0.6667 0.3527(3)
O4 O 0.2696(6) 0.6033(6) 0.3917(7)
O5 O 0.3333 0.6667 0.2687(5)
O4A O 0.3967(6) 0.6663(8) 0.3917(7)
O4B O 0.3337(8) 0.7304(6) 0.3917(7)
O6 O 0.0000 0.4742(7) 0.1688(8)
H9 H 0.0000 0.5137 0.1650
H10 H 0.0000 0.4586 0.1240
O7 O 0.3163(7) 0.0000 0.0623(9)
H11 H 0.3579 0.0000 0.0730
H12 H 0.3030 0.0000 -0.0065
Zn1 Zn 0.5000 0.5000 0.5000
O1 O 0.1740(3) 0.4594(4) 0.3340(3)
O2 O 0.2425(2) 0.4947(2) 0.2287(3)
O3 O 0.2019(3) 0.6406(2) 0.1023(2)
N1 N 0.2809(4) 0.6000(4) 0.0989(3)
N2 N 0.4261(4) 0.4261(4) 0.5895(4)
N3 N 0.4094(2) 0.4950(2) 0.4307(3)
C1 C 0.4150(2) 0.5099(2) 0.3488(3)
H1 H 0.4587 0.5251 0.3224
C2 C 0.3554(3) 0.5020(2) 0.30646(19)
H2 H 0.3591 0.5120 0.2517
C3 C 0.2901(2) 0.4792(3) 0.3460(3)
C4 C 0.2844(2) 0.4643(4) 0.4278(3)
H3 H 0.2408 0.4491 0.4542
C5 C 0.3441(3) 0.4722(3) 0.4702(2)
H4 H 0.3403 0.4622 0.5250
C6 C 0.2346(4) 0.4773(5) 0.3011(6)
C7 C 0.1904(4) 0.4994(3) 0.1832(4)
H5 H 0.1796 0.5344 0.2069
H6 H 0.1462 0.4529 0.1817
C8 C 0.2194(4) 0.5225(4) 0.0996(3)
H7 H 0.1809 0.5179 0.0647
H8 H 0.2364 0.4911 0.0792
C9 C 0.2647(4) 0.6526(7) 0.1009(3)
C10 C 0.3884(5) 0.3884(5) 0.6324(6)
C11 C 0.3371(7) 0.3371(7) 0.6878(8)
O1A O 0.5406(4) 0.7146(5) 0.3340(3)
O2A O 0.5053(2) 0.7478(3) 0.2287(3)
O3A O 0.3594(2) 0.5613(4) 0.1023(2)
N1A N 0.4000(4) 0.6809(6) 0.0989(3)
N3A N 0.5050(2) 0.9144(3) 0.4307(3)
C1A C 0.4901(2) 0.9051(3) 0.3488(3)
H1A H 0.4749 0.9336 0.3224
C2A C 0.4980(2) 0.8534(4) 0.30646(19)
H2A H 0.4880 0.8471 0.2517
C3A C 0.5208(3) 0.8109(4) 0.3460(3)
C4A C 0.5357(4) 0.8201(4) 0.4278(3)
H3A H 0.5509 0.7917 0.4542
C5A C 0.5278(3) 0.8719(4) 0.4702(2)
H4A H 0.5378 0.8781 0.5250
C6A C 0.5227(5) 0.7573(6) 0.3011(6)
C7A C 0.5006(3) 0.6910(5) 0.1832(4)
H5A H 0.4656 0.6452 0.2069
H6A H 0.5471 0.6933 0.1817
C8A C 0.4775(4) 0.6969(6) 0.0996(3)
H7A H 0.4821 0.6630 0.0647
H8A H 0.5089 0.7453 0.0792
C9A C 0.3474(7) 0.6121(8) 0.1009(3)
O1B O 0.2854(5) 0.8260(3) 0.3340(3)
O2B O 0.2522(3) 0.7575(2) 0.2287(3)
O3B O 0.4387(4) 0.7981(3) 0.1023(2)
N1B N 0.3191(6) 0.7191(4) 0.0989(3)
N3B N 0.0856(3) 0.5906(2) 0.4307(3)
C1B C 0.0949(3) 0.5850(2) 0.3488(3)
H1B H 0.0664 0.5413 0.3224
C2B C 0.1466(4) 0.6446(3) 0.30646(19)
H2B H 0.1529 0.6409 0.2517
C3B C 0.1891(4) 0.7099(2) 0.3460(3)
C4B C 0.1799(4) 0.7156(2) 0.4278(3)
H3B H 0.2083 0.7592 0.4542
C5B C 0.1281(4) 0.6559(3) 0.4702(2)
H4B H 0.1219 0.6597 0.5250
C6B C 0.2427(6) 0.7654(4) 0.3011(6)
C7B C 0.3090(5) 0.8096(4) 0.1832(4)
H5B H 0.3548 0.8204 0.2069
H6B H 0.3067 0.8538 0.1817
C8B C 0.3031(6) 0.7806(4) 0.0996(3)
H7B H 0.3370 0.8191 0.0647
H8B H 0.2547 0.7636 0.0792
C9B C 0.3879(8) 0.7353(4) 0.1009(3)
Zn1A Zn 0.5000 1.0000 0.5000
N2A N 0.5739(4) 1.0000(6) 0.5895(4)
C10A C 0.6116(5) 1.0000(7) 0.6324(6)
C11A C 0.6629(7) 1.0000(10) 0.6878(8)
Zn1B Zn 0.0000 0.5000 0.5000
N2B N 0.0000(6) 0.5739(4) 0.5895(4)
C10B C 0.0000(7) 0.6116(5) 0.6324(6)
C11B C 0.0000(10) 0.6629(7) 0.6878(8)
O1C O 0.5406(4) 0.8260(3) 0.6660(3)
O2C O 0.5053(2) 0.7575(2) 0.7713(3)
O3C O 0.3594(2) 0.7981(3) 0.8977(2)
N1C N 0.4000(4) 0.7191(4) 0.9011(3)
N2C N 0.5739(4) 0.5739(4) 0.4105(4)
N3C N 0.5050(2) 0.5906(2) 0.5693(3)
C1C C 0.4901(2) 0.5850(2) 0.6512(3)
H1C H 0.4749 0.5413 0.6776
C2C C 0.4980(2) 0.6446(3) 0.69354(19)
H2C H 0.4880 0.6409 0.7483
C3C C 0.5208(3) 0.7099(2) 0.6540(3)
C4C C 0.5357(4) 0.7156(2) 0.5722(3)
H3C H 0.5509 0.7592 0.5458
C5C C 0.5278(3) 0.6559(3) 0.5298(2)
H4C H 0.5378 0.6597 0.4750
C6C C 0.5227(5) 0.7654(4) 0.6989(6)
C7C C 0.5006(3) 0.8096(4) 0.8168(4)
H5C H 0.4656 0.8204 0.7931
H6C H 0.5471 0.8538 0.8183
C8C C 0.4775(4) 0.7806(4) 0.9004(3)
H7C H 0.4821 0.8191 0.9353
H8C H 0.5089 0.7636 0.9208
C9C C 0.3474(7) 0.7353(4) 0.8991(3)
C10C C 0.6116(5) 0.6116(5) 0.3676(6)
C11C C 0.6629(7) 0.6629(7) 0.3122(8)
O1E O 0.2854(5) 0.4594(4) 0.6660(3)
O2E O 0.2522(3) 0.4947(2) 0.7713(3)
O3E O 0.4387(4) 0.6406(2) 0.8977(2)
N1E N 0.3191(6) 0.6000(4) 0.9011(3)
N3E N 0.0856(3) 0.4950(2) 0.5693(3)
C1E C 0.0949(3) 0.5099(2) 0.6512(3)
H1E H 0.0664 0.5251 0.6776
C2E C 0.1466(4) 0.5020(2) 0.69354(19)
H2E H 0.1529 0.5120 0.7483
C3E C 0.1891(4) 0.4792(3) 0.6540(3)
C4E C 0.1799(4) 0.4643(4) 0.5722(3)
H3E H 0.2083 0.4491 0.5458
C5E C 0.1281(4) 0.4722(3) 0.5298(2)
H4E H 0.1219 0.4622 0.4750
C6E C 0.2427(6) 0.4773(5) 0.6989(6)
C7E C 0.3090(5) 0.4994(3) 0.8168(4)
H5E H 0.3548 0.5344 0.7931
H6E H 0.3067 0.4529 0.8183
C8E C 0.3031(6) 0.5225(4) 0.9004(3)
H7E H 0.3370 0.5179 0.9353
H8E H 0.2547 0.4911 0.9208
C9E C 0.3879(8) 0.6526(7) 0.8991(3)
O1D O 0.1740(3) 0.7146(5) 0.6660(3)
O2D O 0.2425(2) 0.7478(3) 0.7713(3)
O3D O 0.2019(3) 0.5613(4) 0.8977(2)
N1D N 0.2809(4) 0.6809(6) 0.9011(3)
N3D N 0.4094(2) 0.9144(3) 0.5693(3)
C1D C 0.4150(2) 0.9051(3) 0.6512(3)
H1D H 0.4587 0.9336 0.6776
C2D C 0.3554(3) 0.8534(4) 0.69354(19)
H2D H 0.3591 0.8471 0.7483
C3D C 0.2901(2) 0.8109(4) 0.6540(3)
C4D C 0.2844(2) 0.8201(4) 0.5722(3)
H3D H 0.2408 0.7917 0.5458
C5D C 0.3441(3) 0.8719(4) 0.5298(2)
H4D H 0.3403 0.8781 0.4750
C6D C 0.2346(4) 0.7573(6) 0.6989(6)
C7D C 0.1904(4) 0.6910(5) 0.8168(4)
H5D H 0.1796 0.6452 0.7931
H6D H 0.1462 0.6933 0.8183
C8D C 0.2194(4) 0.6969(6) 0.9004(3)
H7D H 0.1809 0.6630 0.9353
H8D H 0.2364 0.7453 0.9208
C9D C 0.2647(4) 0.6121(8) 0.8991(3)
N2D N 0.4261(4) 1.0000(6) 0.4105(4)
C10D C 0.3884(5) 1.0000(7) 0.3676(6)
C11D C 0.3371(7) 1.0000(10) 0.3122(8)
N2E N 0.0000(6) 0.4261(4) 0.4105(4)
C10E C 0.0000(7) 0.3884(5) 0.3676(6)
C11E C 0.0000(10) 0.3371(7) 0.3122(8)
O1F O -0.1740(3) 0.5406(4) 0.6660(3)
O2F O -0.2425(2) 0.5053(2) 0.7713(3)
O3F O -0.2019(3) 0.3594(2) 0.8977(2)
N1F N -0.2809(4) 0.4000(4) 0.9011(3)
N3F N -0.4094(2) 0.5050(2) 0.5693(3)
C1F C -0.4150(2) 0.4901(2) 0.6512(3)
H1F H -0.4587 0.4749 0.6776
C2F C -0.3554(3) 0.4980(2) 0.69354(19)
H2F H -0.3591 0.4880 0.7483
C3F C -0.2901(2) 0.5208(3) 0.6540(3)
C4F C -0.2844(2) 0.5357(4) 0.5722(3)
H3F H -0.2408 0.5509 0.5458
C5F C -0.3441(3) 0.5278(3) 0.5298(2)
H4F H -0.3403 0.5378 0.4750
C6F C -0.2346(4) 0.5227(5) 0.6989(6)
C7F C -0.1904(4) 0.5006(3) 0.8168(4)
H5F H -0.1796 0.4656 0.7931
H6F H -0.1462 0.5471 0.8183
C8F C -0.2194(4) 0.4775(4) 0.9004(3)
H7F H -0.1809 0.4821 0.9353
H8F H -0.2364 0.5089 0.9208
C9F C -0.2647(4) 0.3474(7) 0.8991(3)
O1G O -0.5406(4) 0.2854(5) 0.6660(3)
O2G O -0.5053(2) 0.2522(3) 0.7713(3)
O3G O -0.3594(2) 0.4387(4) 0.8977(2)
N1G N -0.4000(4) 0.3191(6) 0.9011(3)
N3G N -0.5050(2) 0.0856(3) 0.5693(3)
C1G C -0.4901(2) 0.0949(3) 0.6512(3)
H1G H -0.4749 0.0664 0.6776
C2G C -0.4980(2) 0.1466(4) 0.69354(19)
H2G H -0.4880 0.1529 0.7483
C3G C -0.5208(3) 0.1891(4) 0.6540(3)
C4G C -0.5357(4) 0.1799(4) 0.5722(3)
H3G H -0.5509 0.2083 0.5458
C5G C -0.5278(3) 0.1281(4) 0.5298(2)
H4G H -0.5378 0.1219 0.4750
C6G C -0.5227(5) 0.2427(6) 0.6989(6)
C7G C -0.5006(3) 0.3090(5) 0.8168(4)
H5G H -0.4656 0.3548 0.7931
H6G H -0.5471 0.3067 0.8183
C8G C -0.4775(4) 0.3031(6) 0.9004(3)
H7G H -0.4821 0.3370 0.9353
H8G H -0.5089 0.2547 0.9208
C9G C -0.3474(7) 0.3879(8) 0.8991(3)
O1H O -0.2854(5) 0.1740(3) 0.6660(3)
O2H O -0.2522(3) 0.2425(2) 0.7713(3)
O3H O -0.4387(4) 0.2019(3) 0.8977(2)
N1H N -0.3191(6) 0.2809(4) 0.9011(3)
N3H N -0.0856(3) 0.4094(2) 0.5693(3)
C1H C -0.0949(3) 0.4150(2) 0.6512(3)
H1H H -0.0664 0.4587 0.6776
C2H C -0.1466(4) 0.3554(3) 0.69354(19)
H2H H -0.1529 0.3591 0.7483
C3H C -0.1891(4) 0.2901(2) 0.6540(3)
C4H C -0.1799(4) 0.2844(2) 0.5722(3)
H3H H -0.2083 0.2408 0.5458
C5H C -0.1281(4) 0.3441(3) 0.5298(2)
H4H H -0.1219 0.3403 0.4750
C6H C -0.2427(6) 0.2346(4) 0.6989(6)
C7H C -0.3090(5) 0.1904(4) 0.8168(4)
H5H H -0.3548 0.1796 0.7931
H6H H -0.3067 0.1462 0.8183
C8H C -0.3031(6) 0.2194(4) 0.9004(3)
H7H H -0.3370 0.1809 0.9353
H8H H -0.2547 0.2364 0.9208
C9H C -0.3879(8) 0.2647(4) 0.8991(3)
O1F_2 O 0.8260(3) 0.5406(4) 0.6660(3)
O2F_2 O 0.7575(2) 0.5053(2) 0.7713(3)
O3F_2 O 0.7981(3) 0.3594(2) 0.8977(2)
N1F_2 N 0.7191(4) 0.4000(4) 0.9011(3)
N3F_2 N 0.5906(2) 0.5050(2) 0.5693(3)
C1F_2 C 0.5850(2) 0.4901(2) 0.6512(3)
H1F_2 H 0.5413 0.4749 0.6776
C2F_2 C 0.6446(3) 0.4980(2) 0.69354(19)
H2F_2 H 0.6409 0.4880 0.7483
C3F_2 C 0.7099(2) 0.5208(3) 0.6540(3)
C4F_2 C 0.7156(2) 0.5357(4) 0.5722(3)
H3F_2 H 0.7592 0.5509 0.5458
C5F_2 C 0.6559(3) 0.5278(3) 0.5298(2)
H4F_2 H 0.6597 0.5378 0.4750
C6F_2 C 0.7654(4) 0.5227(5) 0.6989(6)
C7F_2 C 0.8096(4) 0.5006(3) 0.8168(4)
H5F_2 H 0.8204 0.4656 0.7931
H6F_2 H 0.8538 0.5471 0.8183
C8F_2 C 0.7806(4) 0.4775(4) 0.9004(3)
H7F_2 H 0.8191 0.4821 0.9353
H8F_2 H 0.7636 0.5089 0.9208
C9F_2 C 0.7353(4) 0.3474(7) 0.8991(3)
O1G_2 O 0.4594(4) 0.2854(5) 0.6660(3)
O2G_2 O 0.4947(2) 0.2522(3) 0.7713(3)
O3G_2 O 0.6406(2) 0.4387(4) 0.8977(2)
N1G_2 N 0.6000(4) 0.3191(6) 0.9011(3)
N3G_2 N 0.4950(2) 0.0856(3) 0.5693(3)
C1G_2 C 0.5099(2) 0.0949(3) 0.6512(3)
H1G_2 H 0.5251 0.0664 0.6776
C2G_2 C 0.5020(2) 0.1466(4) 0.69354(19)
H2G_2 H 0.5120 0.1529 0.7483
C3G_2 C 0.4792(3) 0.1891(4) 0.6540(3)
C4G_2 C 0.4643(4) 0.1799(4) 0.5722(3)
H3G_2 H 0.4491 0.2083 0.5458
C5G_2 C 0.4722(3) 0.1281(4) 0.5298(2)
H4G_2 H 0.4622 0.1219 0.4750
C6G_2 C 0.4773(5) 0.2427(6) 0.6989(6)
C7G_2 C 0.4994(3) 0.3090(5) 0.8168(4)
H5G_2 H 0.5344 0.3548 0.7931
H6G_2 H 0.4529 0.3067 0.8183
C8G_2 C 0.5225(4) 0.3031(6) 0.9004(3)
H7G_2 H 0.5179 0.3370 0.9353
H8G_2 H 0.4911 0.2547 0.9208
C9G_2 C 0.6526(7) 0.3879(8) 0.8991(3)
O1H_2 O 0.7146(5) 0.1740(3) 0.6660(3)
O2H_2 O 0.7478(3) 0.2425(2) 0.7713(3)
O3H_2 O 0.5613(4) 0.2019(3) 0.8977(2)
N1H_2 N 0.6809(6) 0.2809(4) 0.9011(3)
N3H_2 N 0.9144(3) 0.4094(2) 0.5693(3)
C1H_2 C 0.9051(3) 0.4150(2) 0.6512(3)
H1H_2 H 0.9336 0.4587 0.6776
C2H_2 C 0.8534(4) 0.3554(3) 0.69354(19)
H2H_2 H 0.8471 0.3591 0.7483
C3H_2 C 0.8109(4) 0.2901(2) 0.6540(3)
C4H_2 C 0.8201(4) 0.2844(2) 0.5722(3)
H3H_2 H 0.7917 0.2408 0.5458
C5H_2 C 0.8719(4) 0.3441(3) 0.5298(2)
H4H_2 H 0.8781 0.3403 0.4750
C6H_2 C 0.7573(6) 0.2346(4) 0.6989(6)
C7H_2 C 0.6910(5) 0.1904(4) 0.8168(4)
H5H_2 H 0.6452 0.1796 0.7931
H6H_2 H 0.6933 0.1462 0.8183
C8H_2 C 0.6969(6) 0.2194(4) 0.9004(3)
H7H_2 H 0.6630 0.1809 0.9353
H8H_2 H 0.7453 0.2364 0.9208
C9H_2 C 0.6121(8) 0.2647(4) 0.8991(3)
Zn1_2 Zn -0.5000 0.5000 0.5000
Zn1A_2 Zn -0.5000 0.0000 0.5000
Zn1A_3 Zn 0.5000 0.0000 0.5000
Zn1B_2 Zn 1.0000 0.5000 0.5000
N3G_3 N 0.4950(2) 1.0856(3) 0.5693(3)
N3I N 0.4950(2) 0.4094(2) 0.4307(3)
N3J N 0.5906(2) 1.0856(3) 0.4307(3)
N3K N -0.0856(3) 0.5050(2) 0.4307(3)
H13? H 0.3127 0.3583 0.7153
H14? H 0.3618 0.3236 0.7262
H15? H 0.3023 0.2949 0.6591
loop_
_geom_bond_atom_site_label_1
_geom_bond_atom_site_label_2
_geom_bond_site_symmetry_1
_geom_bond_site_symmetry_2
Zn1 N2 1_555 1_555
O1 C6 1_555 1_555
O2 C6 1_555 1_555
O3 C9 1_555 1_555
N1 C8 1_555 1_555
N2 C10 1_555 1_555
N3 Zn1 1_555 1_555
C1 N3 1_555 1_555
H1 C1 1_555 1_555
C2 C1 1_555 1_555
H2 C2 1_555 1_555
C3 C2 1_555 1_555
C4 C3 1_555 1_555
H3 C4 1_555 1_555
C5 N3 1_555 1_555
H4 C5 1_555 1_555
C6 C3 1_555 1_555
C7 O2 1_555 1_555
H5 C7 1_555 1_555
H6 C7 1_555 1_555
C8 C7 1_555 1_555
H7 C8 1_555 1_555
H8 C8 1_555 1_555
C9 N1 1_555 1_555
C10 C11 1_555 1_555
Cl1 O4 1_555 1_555
O5 Cl1 1_555 1_555
O6 H9 1_555 1_555
H10 O6 1_555 1_555
O7 H11 1_555 1_555
H12 O7 1_555 1_555
O1A C6A 1_555 1_555
O2A C6A 1_555 1_555
O3A C9A 1_555 1_555
N1A C8A 1_555 1_555
N3A C1A 1_555 1_555
C1A H1A 1_555 1_555
C2A C1A 1_555 1_555
H2A C2A 1_555 1_555
C3A C2A 1_555 1_555
C4A C3A 1_555 1_555
H3A C4A 1_555 1_555
C5A N3A 1_555 1_555
H4A C5A 1_555 1_555
C6A C3A 1_555 1_555
C7A O2A 1_555 1_555
H5A C7A 1_555 1_555
H6A C7A 1_555 1_555
C8A C7A 1_555 1_555
H7A C8A 1_555 1_555
H8A C8A 1_555 1_555
C9A N1 1_555 1_555
O1B C6B 1_555 1_555
O2B C6B 1_555 1_555
O3B C9B 1_555 1_555
N1B C9 1_555 1_555
N3B C1B 1_555 1_555
C1B H1B 1_555 1_555
C2B C1B 1_555 1_555
H2B C2B 1_555 1_555
C3B C2B 1_555 1_555
C4B C3B 1_555 1_555
H3B C4B 1_555 1_555
C5B N3B 1_555 1_555
H4B C5B 1_555 1_555
C6B C3B 1_555 1_555
C7B O2B 1_555 1_555
H5B C7B 1_555 1_555
H6B C7B 1_555 1_555
C8B N1B 1_555 1_555
H7B C8B 1_555 1_555
H8B C8B 1_555 1_555
C9B N1A 1_555 1_555
Zn1A N3A 1_555 1_555
N2A Zn1A 1_555 1_555
C10A N2A 1_555 1_555
C11A C10A 1_555 1_555
Zn1B N3B 1_555 1_555
N2B Zn1B 1_555 1_555
C10B N2B 1_555 1_555
C11B C10B 1_555 1_555
O1C C6C 1_555 1_555
O2C C6C 1_555 1_555
O3C C9C 1_555 1_555
N1C C8C 1_555 1_555
N2C Zn1 1_555 1_555
N3C Zn1 1_555 1_555
C1C N3C 1_555 1_555
H1C C1C 1_555 1_555
C2C C1C 1_555 1_555
H2C C2C 1_555 1_555
C3C C2C 1_555 1_555
C4C C3C 1_555 1_555
H3C C4C 1_555 1_555
C5C N3C 1_555 1_555
H4C C5C 1_555 1_555
C6C C3C 1_555 1_555
C7C O2C 1_555 1_555
H5C C7C 1_555 1_555
H6C C7C 1_555 1_555
C8C C7C 1_555 1_555
H7C C8C 1_555 1_555
H8C C8C 1_555 1_555
C9C N1C 1_555 1_555
C10C N2C 1_555 1_555
C11C C10C 1_555 1_555
O1E C6E 1_555 1_555
O2E C6E 1_555 1_555
O3E C9E 1_555 1_555
N1E C8E 1_555 1_555
N3E Zn1B 1_555 1_555
C1E N3E 1_555 1_555
H1E C1E 1_555 1_555
C2E C1E 1_555 1_555
H2E C2E 1_555 1_555
C3E C2E 1_555 1_555
C4E C3E 1_555 1_555
H3E C4E 1_555 1_555
C5E N3E 1_555 1_555
H4E C5E 1_555 1_555
C6E C3E 1_555 1_555
C7E O2E 1_555 1_555
H5E C7E 1_555 1_555
H6E C7E 1_555 1_555
C8E C7E 1_555 1_555
H7E C8E 1_555 1_555
H8E C8E 1_555 1_555
C9E N1C 1_555 1_555
O1D C6D 1_555 1_555
O2D C6D 1_555 1_555
O3D C9D 1_555 1_555
N1D C9C 1_555 1_555
N3D Zn1A 1_555 1_555
C1D N3D 1_555 1_555
H1D C1D 1_555 1_555
C2D C1D 1_555 1_555
H2D C2D 1_555 1_555
C3D C2D 1_555 1_555
C4D C3D 1_555 1_555
H3D C4D 1_555 1_555
C5D N3D 1_555 1_555
H4D C5D 1_555 1_555
C6D C3D 1_555 1_555
C7D O2D 1_555 1_555
H5D C7D 1_555 1_555
H6D C7D 1_555 1_555
C8D N1D 1_555 1_555
H7D C8D 1_555 1_555
H8D C8D 1_555 1_555
C9D N1E 1_555 1_555
N2D Zn1A 1_555 1_555
C10D N2D 1_555 1_555
C11D C10D 1_555 1_555
N2E Zn1B 1_555 1_555
C10E N2E 1_555 1_555
C11E C10E 1_555 1_555
O1F C6F 1_555 1_555
O2F C6F 1_555 1_555
O3F C9F 1_555 1_555
N1F C8F 1_555 1_555
N3F C1F 1_555 1_555
C1F H1F 1_555 1_555
C2F C1F 1_555 1_555
H2F C2F 1_555 1_555
C3F C2F 1_555 1_555
C4F C3F 1_555 1_555
H3F C4F 1_555 1_555
C5F N3F 1_555 1_555
H4F C5F 1_555 1_555
C6F C3F 1_555 1_555
C7F O2F 1_555 1_555
H5F C7F 1_555 1_555
H6F C7F 1_555 1_555
C8F C7F 1_555 1_555
H7F C8F 1_555 1_555
H8F C8F 1_555 1_555
C9F N1F 1_555 1_555
O1G C6G 1_555 1_555
O2G C6G 1_555 1_555
O3G C9G 1_555 1_555
N1G C8G 1_555 1_555
N3G C1G 1_555 1_555
C1G H1G 1_555 1_555
C2G C1G 1_555 1_555
H2G C2G 1_555 1_555
C3G C2G 1_555 1_555
C4G C3G 1_555 1_555
H3G C4G 1_555 1_555
C5G N3G 1_555 1_555
H4G C5G 1_555 1_555
C6G C3G 1_555 1_555
C7G O2G 1_555 1_555
H5G C7G 1_555 1_555
H6G C7G 1_555 1_555
C8G C7G 1_555 1_555
H7G C8G 1_555 1_555
H8G C8G 1_555 1_555
C9G N1F 1_555 1_555
O1H C6H 1_555 1_555
O2H C6H 1_555 1_555
O3H C9H 1_555 1_555
N1H C9F 1_555 1_555
N3H Zn1B 1_555 1_555
C1H N3H 1_555 1_555
H1H C1H 1_555 1_555
C2H C1H 1_555 1_555
H2H C2H 1_555 1_555
C3H C2H 1_555 1_555
C4H C3H 1_555 1_555
H3H C4H 1_555 1_555
C5H N3H 1_555 1_555
H4H C5H 1_555 1_555
C6H C3H 1_555 1_555
C7H O2H 1_555 1_555
H5H C7H 1_555 1_555
H6H C7H 1_555 1_555
C8H N1H 1_555 1_555
H7H C8H 1_555 1_555
H8H C8H 1_555 1_555
C9H N1G 1_555 1_555
O1F_2 C6F_2 1_555 1_555
O2F_2 C6F_2 1_555 1_555
O3F_2 C9F_2 1_555 1_555
N1F_2 C8F_2 1_555 1_555
N3F_2 Zn1 1_555 1_555
C1F_2 N3F_2 1_555 1_555
H1F_2 C1F_2 1_555 1_555
C2F_2 C1F_2 1_555 1_555
H2F_2 C2F_2 1_555 1_555
C3F_2 C2F_2 1_555 1_555
C4F_2 C3F_2 1_555 1_555
H3F_2 C4F_2 1_555 1_555
C5F_2 N3F_2 1_555 1_555
H4F_2 C5F_2 1_555 1_555
C6F_2 C3F_2 1_555 1_555
C7F_2 O2F_2 1_555 1_555
H5F_2 C7F_2 1_555 1_555
H6F_2 C7F_2 1_555 1_555
C8F_2 C7F_2 1_555 1_555
H7F_2 C8F_2 1_555 1_555
H8F_2 C8F_2 1_555 1_555
C9F_2 N1F_2 1_555 1_555
O1G_2 C6G_2 1_555 1_555
O2G_2 C6G_2 1_555 1_555
O3G_2 C9G_2 1_555 1_555
N1G_2 C8G_2 1_555 1_555
N3G_2 C1G_2 1_555 1_555
C1G_2 H1G_2 1_555 1_555
C2G_2 C1G_2 1_555 1_555
H2G_2 C2G_2 1_555 1_555
C3G_2 C2G_2 1_555 1_555
C4G_2 C3G_2 1_555 1_555
H3G_2 C4G_2 1_555 1_555
C5G_2 N3G_2 1_555 1_555
H4G_2 C5G_2 1_555 1_555
C6G_2 C3G_2 1_555 1_555
C7G_2 O2G_2 1_555 1_555
H5G_2 C7G_2 1_555 1_555
H6G_2 C7G_2 1_555 1_555
C8G_2 C7G_2 1_555 1_555
H7G_2 C8G_2 1_555 1_555
H8G_2 C8G_2 1_555 1_555
C9G_2 N1F_2 1_555 1_555
O1H_2 C6H_2 1_555 1_555
O2H_2 C6H_2 1_555 1_555
O3H_2 C9H_2 1_555 1_555
N1H_2 C9F_2 1_555 1_555
N3H_2 C1H_2 1_555 1_555
C1H_2 H1H_2 1_555 1_555
C2H_2 C1H_2 1_555 1_555
H2H_2 C2H_2 1_555 1_555
C3H_2 C2H_2 1_555 1_555
C4H_2 C3H_2 1_555 1_555
H3H_2 C4H_2 1_555 1_555
C5H_2 N3H_2 1_555 1_555
H4H_2 C5H_2 1_555 1_555
C6H_2 C3H_2 1_555 1_555
C7H_2 O2H_2 1_555 1_555
H5H_2 C7H_2 1_555 1_555
H6H_2 C7H_2 1_555 1_555
C8H_2 N1H_2 1_555 1_555
H7H_2 C8H_2 1_555 1_555
H8H_2 C8H_2 1_555 1_555
C9H_2 N1G_2 1_555 1_555
Zn1_2 N3F 1_555 1_555
Zn1A_2 N3G 1_555 1_555
Zn1A_3 N3G_2 1_555 1_555
Zn1B_2 N3H_2 1_555 1_555
N3G_3 Zn1A 1_555 1_555
N3I Zn1 1_555 1_555
N3J Zn1A 1_555 1_555
N3K Zn1B 1_555 1_555
O4A Cl1 1_555 1_555
O4B Cl1 1_555 1_555
C4 C5 1_555 1_555
N1A C9A 1_555 1_555
C4A C5A 1_555 1_555
N1B C9B 1_555 1_555
C4B C5B 1_555 1_555
C7B C8B 1_555 1_555
C4C C5C 1_555 1_555
N1E C9E 1_555 1_555
C4E C5E 1_555 1_555
N1D C9D 1_555 1_555
C4D C5D 1_555 1_555
C7D C8D 1_555 1_555
C4F C5F 1_555 1_555
N1G C9G 1_555 1_555
C4G C5G 1_555 1_555
N1H C9H 1_555 1_555
C4H C5H 1_555 1_555
C7H C8H 1_555 1_555
C4F_2 C5F_2 1_555 1_555
N1G_2 C9G_2 1_555 1_555
C4G_2 C5G_2 1_555 1_555
N1H_2 C9H_2 1_555 1_555
C4H_2 C5H_2 1_555 1_555
C7H_2 C8H_2 1_555 1_555

#END
