
#######################################################################
#
#                 Cambridge Crystallographic Data Centre
#                                CCDC 
#
#######################################################################
#
# If this CIF has been generated from an entry in the Cambridge 
# Structural Database, then it will include bibliographic, chemical, 
# crystal, experimental, refinement or atomic coordinate data resulting 
# from the CCDC's data processing and validation procedures.
#
#######################################################################

data_VUNYAF
_symmetry_cell_setting           monoclinic
_symmetry_space_group_name_H-M   'C c'
_symmetry_Int_Tables_number      9
_space_group_name_Hall           'C -2yc'
loop_
_symmetry_equiv_pos_site_id
_symmetry_equiv_pos_as_xyz
1 x,y,z
2 x,-y,1/2+z
3 1/2+x,1/2+y,z
4 1/2+x,1/2-y,1/2+z
_cell_length_a                   12.2599(13)
_cell_length_b                   22.356(2)
_cell_length_c                   8.8705(9)
_cell_angle_alpha                90
_cell_angle_beta                 92.1120(10)
_cell_angle_gamma                90
_cell_volume                     2429.6
loop_
_atom_site_label
_atom_site_type_symbol
_atom_site_fract_x
_atom_site_fract_y
_atom_site_fract_z
Cu1 Cu 0.80746(4) 0.637545(19) 1.00593(5)
Cu2 Cu 0.69131(4) 0.71667(2) 0.49426(4)
C1 C 1.0203(3) 0.71765(16) 0.6080(4)
H1 H 1.0047 0.6749 0.5947
C2 C 0.9158(3) 0.74828(17) 0.6526(4)
H2 H 0.9340 0.7830 0.7163
C3 C 0.9230(3) 0.75153(17) 0.3887(4)
H3 H 0.9205 0.7845 0.3158
C4 C 1.0410(3) 0.74471(17) 0.4499(4)
H4 H 1.0791 0.7154 0.3889
C5 C 1.1139(3) 0.72392(19) 0.7284(5)
C6 C 0.8461(3) 0.70512(18) 0.7396(5)
C7 C 0.8745(3) 0.69546(19) 0.3111(4)
C8 C 1.1047(3) 0.80360(18) 0.4534(4)
C9 C 0.9900(5) 0.5666(3) 0.8825(7)
H5 H 1.0216 0.6029 0.8570
C10 C 1.0394(6) 0.5121(3) 0.8384(8)
H6 H 1.1027 0.5124 0.7839
C11 C 0.9927(6) 0.4604(3) 0.8769(8)
H7 H 1.0232 0.4244 0.8469
C12 C 0.9026(5) 0.4598(3) 0.9583(7)
H8 H 0.8714 0.4238 0.9864
C13 C 0.8569(5) 0.5135(2) 0.9996(6)
C14 C 0.7581(4) 0.5187(2) 1.0933(6)
C15 C 0.7041(5) 0.4712(2) 1.1576(7)
H9 H 0.7263 0.4322 1.1389
C16 C 0.6194(6) 0.4813(3) 1.2475(7)
H10 H 0.5840 0.4494 1.2922
C17 C 0.5859(5) 0.5393(2) 1.2723(6)
H11 H 0.5279 0.5472 1.3342
C18 C 0.6409(4) 0.5859(2) 1.2025(5)
H12 H 0.6185 0.6251 1.2174
N1 N 0.7248(3) 0.57526(16) 1.1150(4)
N2 N 0.9000(3) 0.56631(17) 0.9591(4)
O1 O 0.7962(2) 0.66974(13) 0.3703(3)
O3 O 0.9176(2) 0.67872(13) 0.1918(3)
O5 O 1.1986(2) 0.79908(12) 0.5183(3)
O7 O 1.0653(3) 0.84901(13) 0.3943(4)
O8 O 1.1033(2) 0.76863(14) 0.8170(3)
O9 O 1.1877(3) 0.68620(16) 0.7348(4)
O10 O 0.7574(2) 0.68628(15) 0.6848(3)
O11 O 0.8875(2) 0.68905(13) 0.8662(3)
O12 O 0.8610(2) 0.76838(12) 0.5149(3)
O13 O 0.6248(3) 0.78845(17) 0.5985(4)
H19 H 0.5627 0.8045 0.5811
H20 H 0.6650 0.8099 0.6568
O14 O 0.5571(3) 0.65278(17) 0.5633(4)
H21 H 0.5700 0.6530 0.6582
H22 H 0.4932 0.6668 0.5475
Cu1_2 Cu 0.80746(4) 0.637545(19) 0.00593(5)
Cu1C Cu 1.30746(4) 0.862455(19) 0.50593(5)
Cu2C Cu 1.19131(4) 0.78333(2) 0.99426(4)
O3_2 O 0.9176(2) 0.67872(13) 1.1918(3)
O5C O 0.6986(2) 0.70092(12) 1.0183(3)
O8C O 0.6033(2) 0.73137(14) 0.3170(3)
O2 O 0.8401(3) 0.81180(18) 1.0062(5)
H13 H 0.8406 0.7763 0.9720
H14 H 0.7901 0.8135 1.0699
O4 O 0.7301(6) 0.8734(3) 0.7627(10)
H15 H 0.7885 0.8699 0.8166
H16 H 0.7352 0.9052 0.7111
O6 O 1.3404(7) 0.5954(4) 0.8835(16)
H17 H 1.2937 0.6233 0.8733
H18 H 1.4038 0.6108 0.8896
loop_
_geom_bond_atom_site_label_1
_geom_bond_atom_site_label_2
_geom_bond_site_symmetry_1
_geom_bond_site_symmetry_2
Cu1 N1 1_555 1_555
Cu2 O1 1_555 1_555
C1 H1 1_555 1_555
C2 C1 1_555 1_555
H2 C2 1_555 1_555
C3 H3 1_555 1_555
C4 C1 1_555 1_555
H4 C4 1_555 1_555
C5 C1 1_555 1_555
C6 C2 1_555 1_555
C7 C3 1_555 1_555
C8 C4 1_555 1_555
C9 H5 1_555 1_555
C10 C9 1_555 1_555
H6 C10 1_555 1_555
C11 C10 1_555 1_555
H7 C11 1_555 1_555
C12 C11 1_555 1_555
H8 C12 1_555 1_555
C13 C12 1_555 1_555
C14 C13 1_555 1_555
C15 C14 1_555 1_555
H9 C15 1_555 1_555
C16 C15 1_555 1_555
H10 C16 1_555 1_555
C17 C16 1_555 1_555
H11 C17 1_555 1_555
C18 C17 1_555 1_555
H12 C18 1_555 1_555
N1 C14 1_555 1_555
N2 Cu1 1_555 1_555
O1 C7 1_555 1_555
O2 H13 1_555 1_555
H14 O2 1_555 1_555
O3 C7 1_555 1_555
O4 H15 1_555 1_555
H16 O4 1_555 1_555
O5 C8 1_555 1_555
O6 H17 1_555 1_555
H18 O6 1_555 1_555
O7 C8 1_555 1_555
O8 C5 1_555 1_555
O9 C5 1_555 1_555
O10 Cu2 1_555 1_555
O11 Cu1 1_555 1_555
O12 Cu2 1_555 1_555
O13 Cu2 1_555 1_555
H19 O13 1_555 1_555
H20 O13 1_555 1_555
O14 Cu2 1_555 1_555
H21 O14 1_555 1_555
H22 O14 1_555 1_555
Cu1_2 O3 1_555 1_555
Cu1C O5 1_555 1_555
Cu2C O8 1_555 1_555
O3_2 Cu1 1_555 1_555
O5C Cu1 1_555 1_555
O8C Cu2 1_555 1_555
C2 O12 1_555 1_555
C3 C4 1_555 1_555
C3 O12 1_555 1_555
C6 O10 1_555 1_555
C6 O11 1_555 1_555
C9 N2 1_555 1_555
C13 N2 1_555 1_555
C18 N1 1_555 1_555

#END
