
#######################################################################
#
#                 Cambridge Crystallographic Data Centre
#                                CCDC 
#
#######################################################################
#
# If this CIF has been generated from an entry in the Cambridge 
# Structural Database, then it will include bibliographic, chemical, 
# crystal, experimental, refinement or atomic coordinate data resulting 
# from the CCDC's data processing and validation procedures.
#
#######################################################################

data_VUNYOU
_symmetry_cell_setting           trigonal
_symmetry_space_group_name_H-M   'P -3 1 m'
_symmetry_Int_Tables_number      162
_space_group_name_Hall           "-P 3 2'"
loop_
_symmetry_equiv_pos_site_id
_symmetry_equiv_pos_as_xyz
1 x,y,z
2 -y,x-y,z
3 -x+y,-x,z
4 -y,-x,-z
5 x,x-y,-z
6 -x+y,y,-z
7 -x,-y,-z
8 y,-x+y,-z
9 x-y,x,-z
10 y,x,z
11 -x,-x+y,z
12 x-y,-y,z
_cell_length_a                   21.3774(4)
_cell_length_b                   21.3774(4)
_cell_length_c                   16.5822(4)
_cell_angle_alpha                90
_cell_angle_beta                 90
_cell_angle_gamma                120
_cell_volume                     6562.7
loop_
_atom_site_label
_atom_site_type_symbol
_atom_site_fract_x
_atom_site_fract_y
_atom_site_fract_z
F1 F 0.3333 0.6667 0.2782(3)
F2 F 0.2730(3) 0.6061(2) 0.3865(3)
B1 B 0.3333 0.6667 0.3552(4)
F2A F 0.3939(2) 0.6669(4) 0.3865(3)
F2B F 0.3331(4) 0.7270(3) 0.3865(3)
Zn1 Zn 0.5000 0.5000 0.5000
N1 N 0.49108(18) 0.40740(17) 0.43358(19)
N2 N 0.5739(2) 0.5739(2) 0.4092(2)
C1 C 0.5086(2) 0.4096(2) 0.3566(3)
C2 C 0.4417(6) 0.3364(9) 0.4539(10)
C3 C 0.6119(3) 0.6119(3) 0.3638(4)
H1 H 0.5275 0.4537 0.3301
C4 C 0.5011(2) 0.3527(3) 0.3138(2)
C5 C 0.4366(8) 0.2781(10) 0.4124(11)
H2 H 0.4108 0.3278 0.4973
C6 C 0.6638(3) 0.6638(3) 0.3052(4)
H3 H 0.5108 0.3582 0.2588
C7 C 0.4809(2) 0.2911(2) 0.3468(2)
H4 H 0.4041 0.2311 0.4284
C8 C 0.4758(2) 0.2275(2) 0.3043(3)
O1 O 0.4581(2) 0.17065(17) 0.33721(17)
O2 O 0.49531(12) 0.24223(11) 0.22988(15)
C9 C 0.49848(17) 0.18730(19) 0.1842(2)
H5 H 0.4513 0.1439 0.1828
H6 H 0.5325 0.1754 0.2085
C10 C 0.52188(19) 0.2155(2) 0.10186(19)
N3 N 0.5980(2) 0.2786(3) 0.10103(13)
H7 H 0.4894 0.2305 0.0799
H8 H 0.5192 0.1773 0.0678
C11 C 0.6530(4) 0.2627(3) 0.10200(17)
O3 O 0.64065(15) 0.20041(16) 0.10075(13)
N1C N 0.59260(17) 0.50892(18) 0.56642(19)
N2C N 0.4261(2) 0.4261(2) 0.5908(2)
N1F N 0.50892(18) 0.59260(17) 0.56642(19)
N1I N 0.40740(17) 0.49108(18) 0.43358(19)
C1C C 0.5904(2) 0.4914(2) 0.6434(3)
C2C C 0.6636(9) 0.5583(6) 0.5461(10)
C3C C 0.3881(3) 0.3881(3) 0.6362(4)
C1F C 0.4914(2) 0.5904(2) 0.6434(3)
C2F C 0.5583(6) 0.6636(9) 0.5461(10)
H1C H 0.5463 0.4725 0.6699
C4C C 0.6473(3) 0.4989(2) 0.6862(2)
C5C C 0.7219(10) 0.5634(8) 0.5876(11)
H2C H 0.6722 0.5892 0.5027
C6C C 0.3362(3) 0.3362(3) 0.6948(4)
H1F H 0.4725 0.5463 0.6699
C4F C 0.4989(2) 0.6473(3) 0.6862(2)
C5F C 0.5634(8) 0.7219(10) 0.5876(11)
H2F H 0.5892 0.6722 0.5027
H3C H 0.6418 0.4892 0.7412
C7C C 0.7089(2) 0.5191(2) 0.6532(2)
H4C H 0.7689 0.5959 0.5716
H3F H 0.4892 0.6418 0.7412
C7F C 0.5191(2) 0.7089(2) 0.6532(2)
H4F H 0.5959 0.7689 0.5716
C8C C 0.7725(2) 0.5242(2) 0.6957(3)
C8F C 0.5242(2) 0.7725(2) 0.6957(3)
O1C O 0.82935(17) 0.5419(2) 0.66279(17)
O2C O 0.75777(11) 0.50469(12) 0.77012(15)
O1F O 0.5419(2) 0.82935(17) 0.66279(17)
O2F O 0.50469(12) 0.75777(11) 0.77012(15)
C9C C 0.81270(19) 0.50152(17) 0.8158(2)
C9F C 0.50152(17) 0.81270(19) 0.8158(2)
H5C H 0.8561 0.5487 0.8172
H6C H 0.8246 0.4675 0.7915
C10C C 0.7845(2) 0.47812(19) 0.89814(19)
H5F H 0.5487 0.8561 0.8172
H6F H 0.4675 0.8246 0.7915
C10F C 0.47812(19) 0.7845(2) 0.89814(19)
N3C N 0.7214(3) 0.4020(2) 0.89897(13)
H7C H 0.7695 0.5106 0.9201
H8C H 0.8227 0.4808 0.9322
N3F N 0.4020(2) 0.7214(3) 0.89897(13)
H7F H 0.5106 0.7695 0.9201
H8F H 0.4808 0.8227 0.9322
C11B C 0.6097(5) 0.3470(4) 0.10200(17)
C11C C 0.7373(3) 0.3470(4) 0.89800(17)
C11D C 0.6530(4) 0.3903(5) 0.89800(17)
C11F C 0.3470(4) 0.7373(3) 0.89800(17)
C11H C 0.3903(5) 0.6530(4) 0.89800(17)
N3A N 0.7214(3) 0.3194(4) 0.10103(13)
O3B O 0.55976(22) 0.35935(15) 0.10075(13)
N3B N 0.6806(4) 0.4020(2) 0.10103(13)
O3C O 0.79959(16) 0.35935(15) 0.89925(13)
N3E N 0.6806(4) 0.2786(3) 0.89897(13)
O3D O 0.64065(15) 0.44024(22) 0.89925(13)
N3D N 0.5980(2) 0.3194(4) 0.89897(13)
O3F O 0.35935(15) 0.79959(16) 0.89925(13)
N3G N 0.2786(3) 0.6806(4) 0.89897(13)
O3H O 0.44024(22) 0.64065(15) 0.89925(13)
N3H N 0.3194(4) 0.5980(2) 0.89897(13)
C10A C 0.7845(2) 0.30638(28) 0.10186(19)
C11A C 0.7373(3) 0.3903(5) 0.10200(17)
C10B C 0.69362(28) 0.47812(19) 0.10186(19)
C10E C 0.69362(28) 0.2155(2) 0.89814(19)
C11E C 0.6097(5) 0.2627(3) 0.89800(17)
C10D C 0.52188(19) 0.30638(28) 0.89814(19)
C10G C 0.2155(2) 0.69362(28) 0.89814(19)
C11G C 0.2627(3) 0.6097(5) 0.89800(17)
C10H C 0.30638(28) 0.52188(19) 0.89814(19)
C9A C 0.81270(19) 0.31118(25) 0.1842(2)
H7A H 0.7695 0.2589 0.0799
H8A H 0.8227 0.3419 0.0678
O3A O 0.79959(16) 0.44024(22) 0.10075(13)
C9B C 0.68882(25) 0.50152(17) 0.1842(2)
H7B H 0.7411 0.5106 0.0799
H8B H 0.6581 0.4808 0.0678
C9E C 0.68882(25) 0.18730(19) 0.8158(2)
H7E H 0.7411 0.2305 0.9201
H8E H 0.6581 0.1773 0.9322
O3E O 0.55976(22) 0.20041(16) 0.89925(13)
C9D C 0.49848(17) 0.31118(25) 0.8158(2)
H7D H 0.4894 0.2589 0.9201
H8D H 0.5192 0.3419 0.9322
C9G C 0.18730(19) 0.68882(25) 0.8158(2)
H7G H 0.2305 0.7411 0.9201
H8G H 0.1773 0.6581 0.9322
O3G O 0.20041(16) 0.55976(22) 0.89925(13)
C9H C 0.31118(25) 0.49848(17) 0.8158(2)
H7H H 0.2589 0.4894 0.9201
H8H H 0.3419 0.5192 0.9322
O2A O 0.75777(11) 0.25308(16) 0.22988(15)
H5A H 0.8561 0.3074 0.1828
H6A H 0.8246 0.3571 0.2085
O2B O 0.74692(16) 0.50469(12) 0.22988(15)
H5B H 0.6926 0.5487 0.1828
H6B H 0.6429 0.4675 0.2085
O2E O 0.74692(16) 0.24223(11) 0.77012(15)
H5E H 0.6926 0.1439 0.8172
H6E H 0.6429 0.1754 0.7915
O2D O 0.49531(12) 0.25308(16) 0.77012(15)
H5D H 0.4513 0.3074 0.8172
H6D H 0.5325 0.3571 0.7915
O2G O 0.24223(11) 0.74692(16) 0.77012(15)
H5G H 0.1439 0.6926 0.8172
H6G H 0.1754 0.6429 0.7915
O2H O 0.25308(16) 0.49531(12) 0.77012(15)
H5H H 0.3074 0.4513 0.8172
H6H H 0.3571 0.5325 0.7915
C8A C 0.7725(2) 0.2483(3) 0.3043(3)
C8B C 0.7517(3) 0.5242(2) 0.3043(3)
C8E C 0.7517(3) 0.2275(2) 0.6957(3)
C8D C 0.4758(2) 0.2483(3) 0.6957(3)
C8G C 0.2275(2) 0.7517(3) 0.6957(3)
C8H C 0.2483(3) 0.4758(2) 0.6957(3)
O1A O 0.82935(17) 0.28745(26) 0.33721(17)
C7A C 0.7089(2) 0.1898(3) 0.3468(2)
O1B O 0.71255(26) 0.5419(2) 0.33721(17)
C7B C 0.8102(3) 0.5191(2) 0.3468(2)
O1E O 0.71255(26) 0.17065(17) 0.66279(17)
C7E C 0.8102(3) 0.2911(2) 0.6532(2)
O1D O 0.4581(2) 0.28745(26) 0.66279(17)
C7D C 0.4809(2) 0.1898(3) 0.6532(2)
O1G O 0.17065(17) 0.71255(26) 0.66279(17)
C7G C 0.2911(2) 0.8102(3) 0.6532(2)
O1H O 0.28745(26) 0.4581(2) 0.66279(17)
C7H C 0.1898(3) 0.4809(2) 0.6532(2)
C4A C 0.6473(3) 0.1484(4) 0.3138(2)
C5A C 0.7219(10) 0.1585(13) 0.4124(11)
C4B C 0.8516(4) 0.4989(2) 0.3138(2)
C5B C 0.8415(13) 0.5634(8) 0.4124(11)
C4E C 0.8516(4) 0.3527(3) 0.6862(2)
C5E C 0.8415(13) 0.2781(10) 0.5876(11)
C4D C 0.5011(2) 0.1484(4) 0.6862(2)
C5D C 0.4366(8) 0.1585(13) 0.5876(11)
C4G C 0.3527(3) 0.8516(4) 0.6862(2)
C5G C 0.2781(10) 0.8415(13) 0.5876(11)
C4H C 0.1484(4) 0.5011(2) 0.6862(2)
C5H C 0.1585(13) 0.4366(8) 0.5876(11)
C1A C 0.5904(2) 0.0990(3) 0.3566(3)
H3A H 0.6418 0.1526 0.2588
H4A H 0.7689 0.1730 0.4284
C2A C 0.6636(9) 0.1053(11) 0.4539(10)
C1B C 0.9010(3) 0.4914(2) 0.3566(3)
H3B H 0.8474 0.4892 0.2588
H4B H 0.8270 0.5959 0.4284
C2B C 0.8947(11) 0.5583(6) 0.4539(10)
C1E C 0.9010(3) 0.4096(2) 0.6434(3)
H3E H 0.8474 0.3582 0.7412
H4E H 0.8270 0.2311 0.5716
C2E C 0.8947(11) 0.3364(9) 0.5461(10)
C1D C 0.5086(2) 0.0990(3) 0.6434(3)
H3D H 0.5108 0.1526 0.7412
H4D H 0.4041 0.1730 0.5716
C2D C 0.4417(6) 0.1053(11) 0.5461(10)
C1G C 0.4096(2) 0.9010(3) 0.6434(3)
H3G H 0.3582 0.8474 0.7412
H4G H 0.2311 0.8270 0.5716
C2G C 0.3364(9) 0.8947(11) 0.5461(10)
C1H C 0.0990(3) 0.5086(2) 0.6434(3)
H3H H 0.1526 0.5108 0.7412
H4H H 0.1730 0.4041 0.5716
C2H C 0.1053(11) 0.4417(6) 0.5461(10)
N1A N 0.59260(17) 0.08368(25) 0.43358(19)
H1A H 0.5463 0.0738 0.3301
H2A H 0.6722 0.0830 0.4973
N1B N 0.91632(25) 0.50892(18) 0.43358(19)
H1B H 0.9262 0.4725 0.3301
H2B H 0.9170 0.5892 0.4973
N1E N 0.91632(25) 0.40740(17) 0.56642(19)
H1E H 0.9262 0.4537 0.6699
H2E H 0.9170 0.3278 0.5027
N1D N 0.49108(18) 0.08368(25) 0.56642(19)
H1D H 0.5275 0.0738 0.6699
H2D H 0.4108 0.0830 0.5027
N1G N 0.40740(17) 0.91632(25) 0.56642(19)
H1G H 0.4537 0.9262 0.6699
H2G H 0.3278 0.9170 0.5027
N1H N 0.08368(25) 0.49108(18) 0.56642(19)
H1H H 0.0738 0.5275 0.6699
H2H H 0.0830 0.4108 0.5027
Zn1A Zn 0.5000 0.0000 0.5000
Zn1B Zn 1.0000 0.5000 0.5000
Zn1A_2 Zn 0.5000 1.0000 0.5000
Zn1B_2 Zn 0.0000 0.5000 0.5000
N2A N 0.4261(2) 0.0000(3) 0.4092(2)
N2D N 0.5739(2) 0.0000(3) 0.5908(2)
N1G_2 N 0.40740(17) -0.08368(25) 0.56642(19)
N1J N 0.50892(18) -0.08368(25) 0.43358(19)
N2B N 1.0000(3) 0.4261(2) 0.4092(2)
N2E N 1.0000(3) 0.5739(2) 0.5908(2)
N1H_2 N 1.08368(25) 0.49108(18) 0.56642(19)
N1K N 1.08368(25) 0.59260(17) 0.43358(19)
C3A C 0.3881(3) 0.0000(4) 0.3638(4)
C3D C 0.6119(3) 0.0000(4) 0.6362(4)
C1G_2 C 0.4096(2) -0.0990(3) 0.6434(3)
C2G_2 C 0.3364(9) -0.1053(11) 0.5461(10)
C3B C 1.0000(4) 0.3881(3) 0.3638(4)
C3E C 1.0000(4) 0.6119(3) 0.6362(4)
C6A C 0.3362(3) 0.0000(4) 0.3052(4)
C6D C 0.6638(3) 0.0000(4) 0.6948(4)
H1G_2 H 0.4537 -0.0738 0.6699
C4G_2 C 0.3527(3) -0.1484(4) 0.6862(2)
C5G_2 C 0.2781(10) -0.1585(13) 0.5876(11)
H2G_2 H 0.3278 -0.0830 0.5027
C6B C 1.0000(4) 0.3362(3) 0.3052(4)
C6E C 1.0000(4) 0.6638(3) 0.6948(4)
H3G_2 H 0.3582 -0.1526 0.7412
C7G_2 C 0.2911(2) -0.1898(3) 0.6532(2)
H4G_2 H 0.2311 -0.1730 0.5716
C8G_2 C 0.2275(2) -0.2483(3) 0.6957(3)
O1G_2 O 0.17065(17) -0.28745(26) 0.66279(17)
O2G_2 O 0.24223(11) -0.25308(16) 0.77012(15)
C9G_2 C 0.18730(19) -0.31118(25) 0.8158(2)
H5G_2 H 0.1439 -0.3074 0.8172
H6G_2 H 0.1754 -0.3571 0.7915
C10G_2 C 0.2155(2) -0.30638(28) 0.89814(19)
N3G_2 N 0.2786(3) -0.3194(4) 0.89897(13)
H7G_2 H 0.2305 -0.2589 0.9201
H8G_2 H 0.1773 -0.3419 0.9322
C11G_2 C 0.2627(3) -0.3903(5) 0.89800(17)
C11F_2 C 0.3470(4) -0.2627(3) 0.89800(17)
O3G_2 O 0.20041(16) -0.44024(22) 0.89925(13)
N3H_2 N 0.3194(4) -0.4020(2) 0.89897(13)
O3F_2 O 0.35935(15) -0.20041(16) 0.89925(13)
N3F_2 N 0.4020(2) -0.2786(3) 0.89897(13)
C10H_2 C 0.30638(28) -0.47812(19) 0.89814(19)
C11H_2 C 0.3903(5) -0.3470(4) 0.89800(17)
C10F_2 C 0.47812(19) -0.2155(2) 0.89814(19)
C9H_2 C 0.31118(25) -0.50152(17) 0.8158(2)
H7H_2 H 0.2589 -0.5106 0.9201
H8H_2 H 0.3419 -0.4808 0.9322
O3H_2 O 0.44024(22) -0.35935(15) 0.89925(13)
C9F_2 C 0.50152(17) -0.18730(19) 0.8158(2)
H7F_2 H 0.5106 -0.2305 0.9201
H8F_2 H 0.4808 -0.1773 0.9322
O2H_2 O 0.25308(16) -0.50469(12) 0.77012(15)
H5H_2 H 0.3074 -0.5487 0.8172
H6H_2 H 0.3571 -0.4675 0.7915
O2F_2 O 0.50469(12) -0.24223(11) 0.77012(15)
H5F_2 H 0.5487 -0.1439 0.8172
H6F_2 H 0.4675 -0.1754 0.7915
C8H_2 C 0.2483(3) -0.5242(2) 0.6957(3)
C8F_2 C 0.5242(2) -0.2275(2) 0.6957(3)
O1H_2 O 0.28745(26) -0.5419(2) 0.66279(17)
C7H_2 C 0.1898(3) -0.5191(2) 0.6532(2)
O1F_2 O 0.5419(2) -0.17065(17) 0.66279(17)
C7F_2 C 0.5191(2) -0.2911(2) 0.6532(2)
C4H_2 C 0.1484(4) -0.4989(2) 0.6862(2)
C5H_2 C 0.1585(13) -0.5634(8) 0.5876(11)
C4F_2 C 0.4989(2) -0.3527(3) 0.6862(2)
C5F_2 C 0.5634(8) -0.2781(10) 0.5876(11)
C1H_2 C 0.0990(3) -0.4914(2) 0.6434(3)
H3H_2 H 0.1526 -0.4892 0.7412
H4H_2 H 0.1730 -0.5959 0.5716
C2H_2 C 0.1053(11) -0.5583(6) 0.5461(10)
C1F_2 C 0.4914(2) -0.4096(2) 0.6434(3)
H3F_2 H 0.4892 -0.3582 0.7412
H4F_2 H 0.5959 -0.2311 0.5716
C2F_2 C 0.5583(6) -0.3364(9) 0.5461(10)
N1H_3 N 0.08368(25) -0.50892(18) 0.56642(19)
H1H_2 H 0.0738 -0.4725 0.6699
H2H_2 H 0.0830 -0.5892 0.5027
N1F_2 N 0.50892(18) -0.40740(17) 0.56642(19)
H1F_2 H 0.4725 -0.4537 0.6699
H2F_2 H 0.5892 -0.3278 0.5027
Zn1B_3 Zn 0.0000 -0.5000 0.5000
Zn1_2 Zn 0.5000 -0.5000 0.5000
C12? C 0.4867(10) 0.2987(10) 0.4347(9)
H9? H 0.4876 0.2632 0.4662
C13? C 0.4905(8) 0.3548(8) 0.4681(6)
H10? H 0.4931 0.3566 0.5241
H11? H 0.6671 0.6387 0.2597
H12? H 0.6463 0.6961 0.2876
H13? H 0.7011 0.7011 0.3298
loop_
_geom_bond_atom_site_label_1
_geom_bond_atom_site_label_2
_geom_bond_site_symmetry_1
_geom_bond_site_symmetry_2
Zn1 N1 1_555 1_555
N1 C1 1_555 1_555
N2 Zn1 1_555 1_555
C1 H1 1_555 1_555
C2 N1 1_555 1_555
C3 N2 1_555 1_555
C4 C1 1_555 1_555
C5 C2 1_555 1_555
H2 C2 1_555 1_555
C6 C3 1_555 1_555
H3 C4 1_555 1_555
C7 C4 1_555 1_555
H4 C5 1_555 1_555
C8 C7 1_555 1_555
O1 C8 1_555 1_555
O2 C8 1_555 1_555
C9 O2 1_555 1_555
H5 C9 1_555 1_555
H6 C9 1_555 1_555
C10 C9 1_555 1_555
N3 C10 1_555 1_555
H7 C10 1_555 1_555
H8 C10 1_555 1_555
C11 N3 1_555 1_555
O3 C11 1_555 1_555
F1 B1 1_555 1_555
F2 B1 1_555 1_555
B1 F2A 1_555 1_555
N1C Zn1 1_555 1_555
N2C Zn1 1_555 1_555
N1F Zn1 1_555 1_555
N1I Zn1 1_555 1_555
C1C N1C 1_555 1_555
C2C N1C 1_555 1_555
C3C N2C 1_555 1_555
C1F N1F 1_555 1_555
C2F N1F 1_555 1_555
H1C C1C 1_555 1_555
C4C C1C 1_555 1_555
C5C C2C 1_555 1_555
H2C C2C 1_555 1_555
C6C C3C 1_555 1_555
H1F C1F 1_555 1_555
C4F C1F 1_555 1_555
C5F C2F 1_555 1_555
H2F C2F 1_555 1_555
H3C C4C 1_555 1_555
C7C C4C 1_555 1_555
H4C C5C 1_555 1_555
H3F C4F 1_555 1_555
C7F C4F 1_555 1_555
H4F C5F 1_555 1_555
C8C C7C 1_555 1_555
C8F C7F 1_555 1_555
O1C C8C 1_555 1_555
O2C C8C 1_555 1_555
O1F C8F 1_555 1_555
O2F C8F 1_555 1_555
C9C O2C 1_555 1_555
C9F O2F 1_555 1_555
H5C C9C 1_555 1_555
H6C C9C 1_555 1_555
C10C C9C 1_555 1_555
H5F C9F 1_555 1_555
H6F C9F 1_555 1_555
C10F C9F 1_555 1_555
N3C C10C 1_555 1_555
H7C C10C 1_555 1_555
H8C C10C 1_555 1_555
N3F C10F 1_555 1_555
H7F C10F 1_555 1_555
H8F C10F 1_555 1_555
C11B N3 1_555 1_555
C11C N3C 1_555 1_555
C11D N3C 1_555 1_555
C11F N3F 1_555 1_555
C11H N3F 1_555 1_555
N3A C11 1_555 1_555
O3B C11B 1_555 1_555
N3B C11B 1_555 1_555
O3C C11C 1_555 1_555
N3E C11C 1_555 1_555
O3D C11D 1_555 1_555
N3D C11D 1_555 1_555
O3F C11F 1_555 1_555
N3G C11F 1_555 1_555
O3H C11H 1_555 1_555
N3H C11H 1_555 1_555
C10A N3A 1_555 1_555
C11A N3A 1_555 1_555
C10B N3B 1_555 1_555
C10E N3E 1_555 1_555
C11E N3E 1_555 1_555
C10D N3D 1_555 1_555
C10G N3G 1_555 1_555
C11G N3G 1_555 1_555
C10H N3H 1_555 1_555
C9A C10A 1_555 1_555
H7A C10A 1_555 1_555
H8A C10A 1_555 1_555
O3A C11A 1_555 1_555
C9B C10B 1_555 1_555
H7B C10B 1_555 1_555
H8B C10B 1_555 1_555
C9E C10E 1_555 1_555
H7E C10E 1_555 1_555
H8E C10E 1_555 1_555
O3E C11E 1_555 1_555
C9D C10D 1_555 1_555
H7D C10D 1_555 1_555
H8D C10D 1_555 1_555
C9G C10G 1_555 1_555
H7G C10G 1_555 1_555
H8G C10G 1_555 1_555
O3G C11G 1_555 1_555
C9H C10H 1_555 1_555
H7H C10H 1_555 1_555
H8H C10H 1_555 1_555
O2A C9A 1_555 1_555
H5A C9A 1_555 1_555
H6A C9A 1_555 1_555
O2B C9B 1_555 1_555
H5B C9B 1_555 1_555
H6B C9B 1_555 1_555
O2E C9E 1_555 1_555
H5E C9E 1_555 1_555
H6E C9E 1_555 1_555
O2D C9D 1_555 1_555
H5D C9D 1_555 1_555
H6D C9D 1_555 1_555
O2G C9G 1_555 1_555
H5G C9G 1_555 1_555
H6G C9G 1_555 1_555
O2H C9H 1_555 1_555
H5H C9H 1_555 1_555
H6H C9H 1_555 1_555
C8A O2A 1_555 1_555
C8B O2B 1_555 1_555
C8E O2E 1_555 1_555
C8D O2D 1_555 1_555
C8G O2G 1_555 1_555
C8H O2H 1_555 1_555
O1A C8A 1_555 1_555
C7A C8A 1_555 1_555
O1B C8B 1_555 1_555
C7B C8B 1_555 1_555
O1E C8E 1_555 1_555
C7E C8E 1_555 1_555
O1D C8D 1_555 1_555
C7D C8D 1_555 1_555
O1G C8G 1_555 1_555
C7G C8G 1_555 1_555
O1H C8H 1_555 1_555
C7H C8H 1_555 1_555
C4A C7A 1_555 1_555
C5A C7A 1_555 1_555
C4B C7B 1_555 1_555
C5B C7B 1_555 1_555
C4E C7E 1_555 1_555
C5E C7E 1_555 1_555
C4D C7D 1_555 1_555
C5D C7D 1_555 1_555
C4G C7G 1_555 1_555
C5G C7G 1_555 1_555
C4H C7H 1_555 1_555
C5H C7H 1_555 1_555
C1A C4A 1_555 1_555
H3A C4A 1_555 1_555
H4A C5A 1_555 1_555
C2A C5A 1_555 1_555
C1B C4B 1_555 1_555
H3B C4B 1_555 1_555
H4B C5B 1_555 1_555
C2B C5B 1_555 1_555
C1E C4E 1_555 1_555
H3E C4E 1_555 1_555
H4E C5E 1_555 1_555
C2E C5E 1_555 1_555
C1D C4D 1_555 1_555
H3D C4D 1_555 1_555
H4D C5D 1_555 1_555
C2D C5D 1_555 1_555
C1G C4G 1_555 1_555
H3G C4G 1_555 1_555
H4G C5G 1_555 1_555
C2G C5G 1_555 1_555
C1H C4H 1_555 1_555
H3H C4H 1_555 1_555
H4H C5H 1_555 1_555
C2H C5H 1_555 1_555
N1A C1A 1_555 1_555
H1A C1A 1_555 1_555
H2A C2A 1_555 1_555
N1B C1B 1_555 1_555
H1B C1B 1_555 1_555
H2B C2B 1_555 1_555
N1E C1E 1_555 1_555
H1E C1E 1_555 1_555
H2E C2E 1_555 1_555
N1D C1D 1_555 1_555
H1D C1D 1_555 1_555
H2D C2D 1_555 1_555
N1G C1G 1_555 1_555
H1G C1G 1_555 1_555
H2G C2G 1_555 1_555
N1H C1H 1_555 1_555
H1H C1H 1_555 1_555
H2H C2H 1_555 1_555
Zn1A N1A 1_555 1_555
Zn1B N1B 1_555 1_555
Zn1A_2 N1G 1_555 1_555
Zn1B_2 N1H 1_555 1_555
N2A Zn1A 1_555 1_555
N2D Zn1A 1_555 1_555
N1G_2 Zn1A 1_555 1_555
N1J Zn1A 1_555 1_555
N2B Zn1B 1_555 1_555
N2E Zn1B 1_555 1_555
N1H_2 Zn1B 1_555 1_555
N1K Zn1B 1_555 1_555
C3A N2A 1_555 1_555
C3D N2D 1_555 1_555
C1G_2 N1G_2 1_555 1_555
C2G_2 N1G_2 1_555 1_555
C3B N2B 1_555 1_555
C3E N2E 1_555 1_555
C6A C3A 1_555 1_555
C6D C3D 1_555 1_555
H1G_2 C1G_2 1_555 1_555
C4G_2 C1G_2 1_555 1_555
C5G_2 C2G_2 1_555 1_555
H2G_2 C2G_2 1_555 1_555
C6B C3B 1_555 1_555
C6E C3E 1_555 1_555
H3G_2 C4G_2 1_555 1_555
C7G_2 C4G_2 1_555 1_555
H4G_2 C5G_2 1_555 1_555
C8G_2 C7G_2 1_555 1_555
O1G_2 C8G_2 1_555 1_555
O2G_2 C8G_2 1_555 1_555
C9G_2 O2G_2 1_555 1_555
H5G_2 C9G_2 1_555 1_555
H6G_2 C9G_2 1_555 1_555
C10G_2 C9G_2 1_555 1_555
N3G_2 C10G_2 1_555 1_555
H7G_2 C10G_2 1_555 1_555
H8G_2 C10G_2 1_555 1_555
C11G_2 N3G_2 1_555 1_555
C11F_2 N3G_2 1_555 1_555
O3G_2 C11G_2 1_555 1_555
N3H_2 C11G_2 1_555 1_555
O3F_2 C11F_2 1_555 1_555
N3F_2 C11F_2 1_555 1_555
C10H_2 N3H_2 1_555 1_555
C11H_2 N3H_2 1_555 1_555
C10F_2 N3F_2 1_555 1_555
C9H_2 C10H_2 1_555 1_555
H7H_2 C10H_2 1_555 1_555
H8H_2 C10H_2 1_555 1_555
O3H_2 C11H_2 1_555 1_555
C9F_2 C10F_2 1_555 1_555
H7F_2 C10F_2 1_555 1_555
H8F_2 C10F_2 1_555 1_555
O2H_2 C9H_2 1_555 1_555
H5H_2 C9H_2 1_555 1_555
H6H_2 C9H_2 1_555 1_555
O2F_2 C9F_2 1_555 1_555
H5F_2 C9F_2 1_555 1_555
H6F_2 C9F_2 1_555 1_555
C8H_2 O2H_2 1_555 1_555
C8F_2 O2F_2 1_555 1_555
O1H_2 C8H_2 1_555 1_555
C7H_2 C8H_2 1_555 1_555
O1F_2 C8F_2 1_555 1_555
C7F_2 C8F_2 1_555 1_555
C4H_2 C7H_2 1_555 1_555
C5H_2 C7H_2 1_555 1_555
C4F_2 C7F_2 1_555 1_555
C5F_2 C7F_2 1_555 1_555
C1H_2 C4H_2 1_555 1_555
H3H_2 C4H_2 1_555 1_555
H4H_2 C5H_2 1_555 1_555
C2H_2 C5H_2 1_555 1_555
C1F_2 C4F_2 1_555 1_555
H3F_2 C4F_2 1_555 1_555
H4F_2 C5F_2 1_555 1_555
C2F_2 C5F_2 1_555 1_555
N1H_3 C1H_2 1_555 1_555
H1H_2 C1H_2 1_555 1_555
H2H_2 C2H_2 1_555 1_555
N1F_2 C1F_2 1_555 1_555
H1F_2 C1F_2 1_555 1_555
H2F_2 C2F_2 1_555 1_555
Zn1B_3 N1H_3 1_555 1_555
Zn1_2 N1F_2 1_555 1_555
F2B B1 1_555 1_555
C5 C7 1_555 1_555
C5C C7C 1_555 1_555
C5F C7F 1_555 1_555
N3B C11A 1_555 1_555
N3D C11E 1_555 1_555
N3H C11G 1_555 1_555
C2A N1A 1_555 1_555
C2B N1B 1_555 1_555
C2E N1E 1_555 1_555
C2D N1D 1_555 1_555
C2G N1G 1_555 1_555
C2H N1H 1_555 1_555
N1E Zn1B 1_555 1_555
N1D Zn1A 1_555 1_555
C5G_2 C7G_2 1_555 1_555
N3F_2 C11H_2 1_555 1_555
C2H_2 N1H_3 1_555 1_555
C2F_2 N1F_2 1_555 1_555

#END
