
#######################################################################
#
#                 Cambridge Crystallographic Data Centre
#                                CCDC 
#
#######################################################################
#
# If this CIF has been generated from an entry in the Cambridge 
# Structural Database, then it will include bibliographic, chemical, 
# crystal, experimental, refinement or atomic coordinate data resulting 
# from the CCDC's data processing and validation procedures.
#
#######################################################################

data_VUPNOK
_symmetry_cell_setting           orthorhombic
_symmetry_space_group_name_H-M   'C c c a'
_symmetry_Int_Tables_number      68
_space_group_name_Hall           '-C 2b 2bc'
loop_
_symmetry_equiv_pos_site_id
_symmetry_equiv_pos_as_xyz
1 x,y,z
2 1/2-x,-y,z
3 -x,y,1/2-z
4 1/2+x,-y,1/2-z
5 1/2+x,1/2+y,z
6 -x,1/2-y,z
7 1/2-x,1/2+y,1/2-z
8 x,1/2-y,1/2-z
9 -x,-y,-z
10 1/2+x,y,-z
11 x,-y,1/2+z
12 1/2-x,y,1/2+z
13 1/2-x,1/2-y,-z
14 x,1/2+y,-z
15 1/2+x,1/2-y,1/2+z
16 -x,1/2+y,1/2+z
_cell_length_a                   15.3104(12)
_cell_length_b                   17.8384(13)
_cell_length_c                   14.6419(12)
_cell_angle_alpha                90
_cell_angle_beta                 90
_cell_angle_gamma                90
_cell_volume                     3998.89
loop_
_atom_site_label
_atom_site_type_symbol
_atom_site_fract_x
_atom_site_fract_y
_atom_site_fract_z
Zn1 Zn 0.0000 0.038241(17) 0.7500
Cl1 Cl 0.05549(4) 0.10687(4) 0.63673(4)
O1 O 0.30640(12) -0.13354(12) 1.05482(12)
N1 N 0.09343(10) -0.02808(9) 0.80507(11)
N2 N 0.29600(11) -0.16305(11) 0.90469(12)
H1 H 0.3186(14) -0.1858(12) 0.8613(15)
C1 C 0.11117(13) -0.03068(11) 0.89484(13)
H2 H 0.0769 -0.0020 0.9339
C2 C 0.17686(13) -0.07309(11) 0.93268(13)
H3 H 0.1868 -0.0726 0.9953
C3 C 0.22817(12) -0.11678(11) 0.87489(13)
C4 C 0.21014(15) -0.11459(14) 0.78191(15)
H4 H 0.2429 -0.1433 0.7415
C5 C 0.14395(17) -0.06993(16) 0.74999(13)
H5 H 0.1336 -0.0685 0.6874
C6 C 0.33160(13) -0.16956(12) 0.99048(13)
C7 C 0.40339(14) -0.22723(12) 0.99579(15)
H6 H 0.4382 -0.2239 0.9406
H7 H 0.3769 -0.2766 0.9970
C8 C 0.46365(15) -0.22019(15) 1.07713(15)
H8 H 0.4297 -0.2250 1.1328
H9 H 0.4900 -0.1708 1.0769
Zn1E Zn 1.0000 -0.538241(17) 0.7500
Cl1B Cl -0.05549(4) 0.10687(4) 0.86327(4)
O1E O 0.69360(12) -0.36646(12) 1.05482(12)
N1E N 0.90657(10) -0.47192(9) 0.80507(11)
N1B N -0.09343(10) -0.02808(9) 0.69493(11)
N2E N 0.70400(11) -0.33695(11) 0.90469(12)
H1E H 0.6814(14) -0.3142(12) 0.8613(15)
C1E C 0.88883(13) -0.46932(11) 0.89484(13)
H2E H 0.9231 -0.4980 0.9339
C2E C 0.82314(13) -0.42691(11) 0.93268(13)
H3E H 0.8132 -0.4274 0.9953
C3E C 0.77183(12) -0.38322(11) 0.87489(13)
C4E C 0.78986(15) -0.38541(14) 0.78191(15)
H4E H 0.7571 -0.3567 0.7415
C5E C 0.85605(17) -0.43007(16) 0.74999(13)
H5E H 0.8664 -0.4315 0.6874
C6E C 0.66840(13) -0.33044(12) 0.99048(13)
C7E C 0.59661(14) -0.27277(12) 0.99579(15)
H6E H 0.5618 -0.2761 0.9406
H7E H 0.6231 -0.2234 0.9970
C8E C 0.53635(15) -0.27981(15) 1.07713(15)
H8E H 0.5703 -0.2750 1.1328
H9E H 0.5100 -0.3292 1.0769
O2 O 0.37487(19) -0.2500 0.7500
H10 H 0.4051(18) -0.2203(16) 0.729(2)
H10G H 0.4051(18) -0.2797(16) 0.771(2)
loop_
_geom_bond_atom_site_label_1
_geom_bond_atom_site_label_2
_geom_bond_site_symmetry_1
_geom_bond_site_symmetry_2
Zn1 Cl1 1_555 1_555
O1 C6 1_555 1_555
N1 Zn1 1_555 1_555
N2 H1 1_555 1_555
C1 N1 1_555 1_555
H2 C1 1_555 1_555
C2 C1 1_555 1_555
H3 C2 1_555 1_555
C3 N2 1_555 1_555
C4 C3 1_555 1_555
H4 C4 1_555 1_555
C5 N1 1_555 1_555
H5 C5 1_555 1_555
C6 N2 1_555 1_555
C7 C6 1_555 1_555
H6 C7 1_555 1_555
H7 C7 1_555 1_555
C8 C7 1_555 1_555
H8 C8 1_555 1_555
H9 C8 1_555 1_555
O2 H10 1_555 1_555
Zn1E N1E 1_555 1_555
Cl1B Zn1 1_555 1_555
O1E C6E 1_555 1_555
N1E C1E 1_555 1_555
N1B Zn1 1_555 1_555
N2E H1E 1_555 1_555
C1E H2E 1_555 1_555
C2E C1E 1_555 1_555
H3E C2E 1_555 1_555
C3E N2E 1_555 1_555
C4E C3E 1_555 1_555
H4E C4E 1_555 1_555
C5E N1E 1_555 1_555
H5E C5E 1_555 1_555
C6E N2E 1_555 1_555
C7E C6E 1_555 1_555
H6E C7E 1_555 1_555
H7E C7E 1_555 1_555
C8E C8 1_555 1_555
H8E C8E 1_555 1_555
H9E C8E 1_555 1_555
H10G O2 1_555 1_555
C2 C3 1_555 1_555
C4 C5 1_555 1_555
C2E C3E 1_555 1_555
C4E C5E 1_555 1_555
C7E C8E 1_555 1_555

#END
