
#######################################################################
#
#                 Cambridge Crystallographic Data Centre
#                                CCDC 
#
#######################################################################
#
# If this CIF has been generated from an entry in the Cambridge 
# Structural Database, then it will include bibliographic, chemical, 
# crystal, experimental, refinement or atomic coordinate data resulting 
# from the CCDC's data processing and validation procedures.
#
#######################################################################

data_VUPQON
_symmetry_cell_setting           monoclinic
_symmetry_space_group_name_H-M   'P 2/c'
_symmetry_Int_Tables_number      13
_space_group_name_Hall           '-P 2yc'
loop_
_symmetry_equiv_pos_site_id
_symmetry_equiv_pos_as_xyz
1 x,y,z
2 -x,y,1/2-z
3 -x,-y,-z
4 x,-y,1/2+z
_cell_length_a                   12.941(2)
_cell_length_b                   6.9994(12)
_cell_length_c                   23.738(4)
_cell_angle_alpha                90
_cell_angle_beta                 118.131(3)
_cell_angle_gamma                90
_cell_volume                     1896.17
loop_
_atom_site_label
_atom_site_type_symbol
_atom_site_fract_x
_atom_site_fract_y
_atom_site_fract_z
O1 O 0.0420(2) 0.2458(4) 0.44846(12)
C1 C 0.1256(3) 0.1448(5) 0.45244(15)
C2 C 0.2011(3) 0.2253(5) 0.42604(15)
Zn1 Zn -0.07588(3) 0.17103(5) 0.479010(17)
C3 C 0.1355(3) 0.8456(5) 0.10936(16)
C4 C 0.2110(3) 0.7510(5) 0.17232(15)
C5 C 0.3111(3) 0.8401(5) 0.21783(16)
H1 H 0.3320 0.9591 0.2090
C6 C 0.3806(3) 0.7550(5) 0.27628(16)
H2 H 0.4477 0.8172 0.3061
C7 C 0.3513(3) 0.5783(5) 0.29090(14)
C8 C 0.2515(3) 0.4880(5) 0.24455(15)
H3 H 0.2313 0.3681 0.2531
C9 C 0.1821(3) 0.5723(5) 0.18628(16)
H4 H 0.1156 0.5094 0.1562
C10 C 0.4259(3) 0.4733(4) 0.35499(14)
C11 C 0.5086(3) 0.6081(5) 0.40915(15)
C12 C 0.5038(3) 0.3281(5) 0.34250(15)
C13 C 0.3465(3) 0.3769(4) 0.37935(14)
C14 C 0.2522(3) 0.4810(5) 0.37636(16)
H5 H 0.2372 0.6027 0.3585
C15 C 0.1812(3) 0.4067(5) 0.39930(16)
H6 H 0.1189 0.4788 0.3969
C16 C 0.2945(3) 0.1215(5) 0.42829(17)
H7 H 0.3088 -0.0011 0.4454
C17 C 0.3663(3) 0.1963(5) 0.40569(16)
H8 H 0.4287 0.1243 0.4082
F1 F 0.44946(19) 0.7527(3) 0.41686(10)
F2 F 0.56270(17) 0.5160(3) 0.46473(8)
F3 F 0.59353(16) 0.6856(3) 0.39926(9)
F4 F 0.58174(17) 0.2390(3) 0.39525(9)
F5 F 0.43845(18) 0.1932(3) 0.30176(10)
F6 F 0.56434(17) 0.4131(3) 0.31732(9)
O2 O -0.1710(2) 0.4112(4) 0.45882(14)
H9 H -0.1405 0.5419 0.4683
H10 H -0.2582 0.4370 0.4360
O3 O 0.0512(2) 0.7508(4) 0.06881(11)
O4 O 0.1614(2) 1.0114(3) 0.10119(11)
O5 O 0.1515(2) -0.0178(3) 0.47760(12)
Zn1C Zn -0.07588(3) 0.82897(5) -0.020990(17)
Zn1A Zn 0.07588(3) 1.17103(5) 0.020990(17)
Zn1B Zn 0.07588(3) -0.17103(5) 0.520990(17)
O3C O 0.0512(2) 0.2492(4) 0.56881(11)
O4A O -0.1614(2) 0.0114(3) 0.39881(11)
O5B O -0.1515(2) 0.0178(3) 0.52240(12)
loop_
_geom_bond_atom_site_label_1
_geom_bond_atom_site_label_2
_geom_bond_site_symmetry_1
_geom_bond_site_symmetry_2
O1 C1 1_555 1_555
C1 C2 1_555 1_555
C2 C15 1_555 1_555
Zn1 O1 1_555 1_555
C3 C4 1_555 1_555
C4 C5 1_555 1_555
C5 H1 1_555 1_555
C6 C5 1_555 1_555
H2 C6 1_555 1_555
C7 C6 1_555 1_555
C8 C7 1_555 1_555
H3 C8 1_555 1_555
C9 C4 1_555 1_555
H4 C9 1_555 1_555
C10 C7 1_555 1_555
C11 C10 1_555 1_555
C12 C10 1_555 1_555
C13 C10 1_555 1_555
C14 C13 1_555 1_555
H5 C14 1_555 1_555
C15 C14 1_555 1_555
H6 C15 1_555 1_555
C16 C2 1_555 1_555
H7 C16 1_555 1_555
C17 C13 1_555 1_555
H8 C17 1_555 1_555
F1 C11 1_555 1_555
F2 C11 1_555 1_555
F3 C11 1_555 1_555
F4 C12 1_555 1_555
F5 C12 1_555 1_555
F6 C12 1_555 1_555
O2 Zn1 1_555 1_555
H9 O2 1_555 1_555
H10 O2 1_555 1_555
O3 C3 1_555 1_555
O4 C3 1_555 1_555
O5 C1 1_555 1_555
Zn1C O3 1_555 1_555
Zn1A O4 1_555 1_555
Zn1B O5 1_555 1_555
O3C Zn1 1_555 1_555
O4A Zn1 1_555 1_555
O5B Zn1 1_555 1_555
C8 C9 1_555 1_555
C16 C17 1_555 1_555

#END
