
#######################################################################
#
#                 Cambridge Crystallographic Data Centre
#                                CCDC 
#
#######################################################################
#
# If this CIF has been generated from an entry in the Cambridge 
# Structural Database, then it will include bibliographic, chemical, 
# crystal, experimental, refinement or atomic coordinate data resulting 
# from the CCDC's data processing and validation procedures.
#
#######################################################################

data_VUPQIH
_symmetry_cell_setting           monoclinic
_symmetry_space_group_name_H-M   'P 21/c'
_symmetry_Int_Tables_number      14
_space_group_name_Hall           '-P 2ybc'
loop_
_symmetry_equiv_pos_site_id
_symmetry_equiv_pos_as_xyz
1 x,y,z
2 -x,1/2+y,1/2-z
3 -x,-y,-z
4 x,1/2-y,1/2+z
_cell_length_a                   23.7684(10)
_cell_length_b                   12.5542(5)
_cell_length_c                   14.1150(6)
_cell_angle_alpha                90
_cell_angle_beta                 93.7590(10)
_cell_angle_gamma                90
_cell_volume                     4202.76
loop_
_atom_site_label
_atom_site_type_symbol
_atom_site_fract_x
_atom_site_fract_y
_atom_site_fract_z
O1 O 0.32425(14) -1.5744(3) 0.0779(3)
O2 O 0.31499(16) -1.4229(3) 0.1506(3)
C1 C 0.3332(2) -1.4759(5) 0.0841(4)
O3 O 0.78606(18) -1.0791(3) 0.0171(3)
O4 O 0.81744(16) -0.9187(3) -0.0098(3)
C2 C 0.8172(2) -1.0189(5) -0.0249(4)
N1 N 0.75336(17) -0.7609(3) 0.1251(3)
C3 C 0.7774(2) -0.6811(4) 0.0793(4)
H1 H 0.7983 -0.6972 0.0278
Zn1 Zn 0.75963(2) -0.91697(4) 0.08604(4)
Zn2 Zn 0.28424(2) -1.56253(4) 0.21222(4)
C4 C 1.1842(2) -1.0127(4) -0.2859(4)
C5 C 1.12641(18) -1.0630(4) -0.2913(3)
C6 C 1.0980(2) -1.0691(5) -0.3794(4)
H2 H 1.1156 -1.0464 -0.4328
C7 C 1.0441(2) -1.1084(5) -0.3890(4)
H3 H 1.0259 -1.1135 -0.4492
C8 C 1.01613(19) -1.1404(4) -0.3106(4)
C9 C 1.0451(2) -1.1358(4) -0.2229(4)
H4 H 1.0275 -1.1581 -0.1694
C10 C 1.1005(2) -1.0984(4) -0.2129(4)
H5 H 1.1198 -1.0973 -0.1535
C11 C 0.9550(2) -1.1848(4) -0.3185(4)
C12 C 0.9229(2) -1.1470(5) -0.4120(4)
C13 C 0.9600(3) -1.3069(5) -0.3226(5)
C14 C 0.92076(19) -1.1457(4) -0.2370(3)
C15 C 0.9222(2) -1.0380(4) -0.2145(4)
H6 H 0.9459 -0.9930 -0.2460
C16 C 0.8895(2) -0.9962(4) -0.1466(4)
H7 H 0.8910 -0.9238 -0.1331
C17 C 0.8542(2) -1.0620(4) -0.0982(4)
C18 C 0.8532(2) -1.1696(4) -0.1202(4)
H8 H 0.8301 -1.2148 -0.0877
C19 C 0.8852(2) -1.2113(4) -0.1882(3)
H9 H 0.8832 -1.2837 -0.2019
C20 C 0.7206(3) -0.7352(4) 0.1933(4)
H10 H 0.7016 -0.7890 0.2234
C21 C 0.6552(2) -1.0221(4) 0.0824(4)
C22 C 0.60937(19) -1.0773(4) 0.0221(3)
C23 C 0.5869(2) -1.0358(4) -0.0628(4)
H11 H 0.5989 -0.9696 -0.0830
C24 C 0.5468(2) -1.0916(4) -0.1183(3)
H12 H 0.5322 -1.0625 -0.1753
C25 C 0.52826(18) -1.1897(3) -0.0901(3)
C26 C 0.5497(2) -1.2304(4) -0.0044(3)
H13 H 0.5369 -1.2959 0.0162
C27 C 0.5899(2) -1.1754(4) 0.0514(3)
H14 H 0.6040 -1.2042 0.1089
C28 C 0.48972(18) -1.2627(3) -0.1539(3)
C29 C 0.5305(2) -1.3388(4) -0.2025(4)
C30 C 0.4551(2) -1.1998(4) -0.2322(4)
C31 C 0.44630(18) -1.3224(3) -0.0968(3)
C32 C 0.43509(19) -1.4308(4) -0.1066(3)
H15 H 0.4533 -1.4707 -0.1509
C33 C 0.3968(2) -1.4798(4) -0.0503(3)
H16 H 0.3897 -1.5524 -0.0569
C34 C 0.36914(18) -1.4214(4) 0.0152(3)
C35 C 0.37763(19) -1.3133(4) 0.0211(3)
H17 H 0.3572 -1.2727 0.0621
C36 C 0.41641(19) -1.2644(4) -0.0336(3)
H18 H 0.4225 -1.1915 -0.0279
C37 C 0.7110(2) -0.3003(4) 0.3181(4)
H19 H 0.6990 -0.2822 0.3774
C38 C 0.7152(2) -0.4072(4) 0.2949(4)
H20 H 0.7063 -0.4595 0.3381
C39 C 0.73269(19) -0.4350(4) 0.2067(3)
C40 C 0.7440(2) -0.3536(4) 0.1457(4)
H21 H 0.7547 -0.3692 0.0850
C41 C 0.7396(2) -0.2497(4) 0.1736(4)
H22 H 0.7481 -0.1960 0.1315
C42 C 0.7397(2) -0.5485(4) 0.1789(3)
C43 C 0.7133(2) -0.6306(4) 0.2219(4)
H23 H 0.6902 -0.6160 0.2710
C44 C 0.7722(2) -0.5775(4) 0.1054(4)
H24 H 0.7909 -0.5251 0.0731
F1 F 0.92626(14) -1.0412(3) -0.4207(2)
F2 F 0.94079(13) -1.1897(3) -0.4900(2)
F3 F 0.86781(13) -1.1688(3) -0.4110(2)
F4 F 0.99593(16) -1.3381(3) -0.3856(3)
F5 F 0.91054(15) -1.3537(3) -0.3482(3)
F6 F 0.97829(14) -1.3465(3) -0.2390(3)
F7 F 0.55150(12) -1.4120(2) -0.1434(2)
F8 F 0.57432(12) -1.2852(3) -0.2334(2)
F9 F 0.50567(13) -1.3891(2) -0.2779(2)
F10 F 0.48647(13) -1.1636(3) -0.3010(2)
F11 F 0.41560(13) -1.2629(3) -0.2757(2)
F12 F 0.42877(13) -1.1176(3) -0.1976(2)
N2 N 0.72354(17) -0.2229(3) 0.2592(3)
O5 O 1.19936(14) -0.9625(3) -0.3559(3)
O6 O 1.21733(14) -1.0199(3) -0.2125(2)
O7 O 0.68187(14) -0.9495(3) 0.0422(3)
O8 O 0.66418(14) -1.0523(3) 0.1656(3)
Zn1B Zn 1.24037(2) -1.08303(4) -0.08604(4)
Zn2A Zn 0.71576(2) -0.06253(4) 0.28778(4)
Zn2C Zn 1.28424(2) -0.93747(4) -0.28778(4)
Zn2A_2 Zn 0.71576(2) -1.06253(4) 0.28778(4)
N2A N 0.27646(17) -1.7229(3) 0.2408(3)
O5C O 0.19936(14) -1.5375(3) 0.1441(3)
O6B O 0.78267(14) -0.9801(3) 0.2125(2)
O6C O 0.21733(14) -1.4801(3) 0.2875(2)
O8A O 0.33582(14) -1.5523(3) 0.3344(3)
loop_
_geom_bond_atom_site_label_1
_geom_bond_atom_site_label_2
_geom_bond_site_symmetry_1
_geom_bond_site_symmetry_2
O1 C1 1_555 1_555
O2 C1 1_555 1_555
C1 C34 1_555 1_555
O3 C2 1_555 1_555
O4 C2 1_555 1_555
C2 C17 1_555 1_555
N1 C3 1_555 1_555
C3 H1 1_555 1_555
Zn1 O3 1_555 1_555
Zn2 O1 1_555 1_555
C4 C5 1_555 1_555
C5 C6 1_555 1_555
C6 H2 1_555 1_555
C7 C6 1_555 1_555
H3 C7 1_555 1_555
C8 C7 1_555 1_555
C9 C8 1_555 1_555
H4 C9 1_555 1_555
C10 C5 1_555 1_555
H5 C10 1_555 1_555
C11 C8 1_555 1_555
C12 C11 1_555 1_555
C13 C11 1_555 1_555
C14 C11 1_555 1_555
C15 C14 1_555 1_555
H6 C15 1_555 1_555
C16 C15 1_555 1_555
H7 C16 1_555 1_555
C17 C16 1_555 1_555
C18 C17 1_555 1_555
H8 C18 1_555 1_555
C19 C14 1_555 1_555
H9 C19 1_555 1_555
C20 N1 1_555 1_555
H10 C20 1_555 1_555
C21 C22 1_555 1_555
C22 C23 1_555 1_555
C23 H11 1_555 1_555
C24 C23 1_555 1_555
H12 C24 1_555 1_555
C25 C24 1_555 1_555
C26 C25 1_555 1_555
H13 C26 1_555 1_555
C27 C22 1_555 1_555
H14 C27 1_555 1_555
C28 C25 1_555 1_555
C29 C28 1_555 1_555
C30 C28 1_555 1_555
C31 C28 1_555 1_555
C32 C31 1_555 1_555
H15 C32 1_555 1_555
C33 C32 1_555 1_555
H16 C33 1_555 1_555
C34 C33 1_555 1_555
C35 C34 1_555 1_555
H17 C35 1_555 1_555
C36 C31 1_555 1_555
H18 C36 1_555 1_555
C37 H19 1_555 1_555
C38 C37 1_555 1_555
H20 C38 1_555 1_555
C39 C38 1_555 1_555
C40 C39 1_555 1_555
H21 C40 1_555 1_555
C41 C40 1_555 1_555
H22 C41 1_555 1_555
C42 C39 1_555 1_555
C43 C20 1_555 1_555
H23 C43 1_555 1_555
C44 C3 1_555 1_555
H24 C44 1_555 1_555
F1 C12 1_555 1_555
F2 C12 1_555 1_555
F3 C12 1_555 1_555
F4 C13 1_555 1_555
F5 C13 1_555 1_555
F6 C13 1_555 1_555
F7 C29 1_555 1_555
F8 C29 1_555 1_555
F9 C29 1_555 1_555
F10 C30 1_555 1_555
F11 C30 1_555 1_555
F12 C30 1_555 1_555
N2 C37 1_555 1_555
O5 C4 1_555 1_555
O6 C4 1_555 1_555
O7 Zn1 1_555 1_555
O8 C21 1_555 1_555
Zn1B O6 1_555 1_555
Zn2A N2 1_555 1_555
Zn2C O5 1_555 1_555
Zn2A_2 O8 1_555 1_555
N2A Zn2 1_555 1_555
O5C Zn2 1_555 1_555
O6B Zn1 1_555 1_555
O6C Zn2 1_555 1_555
O8A Zn2 1_555 1_555
O2 Zn2 1_555 1_555
O4 Zn1 1_555 1_555
N1 Zn1 1_555 1_555
C9 C10 1_555 1_555
C18 C19 1_555 1_555
C21 O7 1_555 1_555
C26 C27 1_555 1_555
C35 C36 1_555 1_555
C41 N2 1_555 1_555
C42 C43 1_555 1_555
C42 C44 1_555 1_555
O6 Zn2C 1_555 1_555
Zn2A_2 O6B 1_555 1_555

#END
