
#######################################################################
#
#                 Cambridge Crystallographic Data Centre
#                                CCDC 
#
#######################################################################
#
# If this CIF has been generated from an entry in the Cambridge 
# Structural Database, then it will include bibliographic, chemical, 
# crystal, experimental, refinement or atomic coordinate data resulting 
# from the CCDC's data processing and validation procedures.
#
#######################################################################

data_VUQHOF
_symmetry_cell_setting           monoclinic
_symmetry_space_group_name_H-M   'C 2/m'
_symmetry_Int_Tables_number      12
_space_group_name_Hall           '-C 2y'
loop_
_symmetry_equiv_pos_site_id
_symmetry_equiv_pos_as_xyz
1 x,y,z
2 -x,y,-z
3 1/2+x,1/2+y,z
4 1/2-x,1/2+y,-z
5 -x,-y,-z
6 x,-y,z
7 1/2-x,1/2-y,-z
8 1/2+x,1/2-y,z
_cell_length_a                   13.2366(13)
_cell_length_b                   7.1753(6)
_cell_length_c                   12.7690(12)
_cell_angle_alpha                90
_cell_angle_beta                 117.344(2)
_cell_angle_gamma                90
_cell_volume                     1077.25
loop_
_atom_site_label
_atom_site_type_symbol
_atom_site_fract_x
_atom_site_fract_y
_atom_site_fract_z
C1 C 0.5262(4) 0.5000 0.3865(4)
C2 C 0.4446(3) 0.3559(5) 0.3155(3)
C3 C 0.3693(4) 0.5000 0.2334(4)
C4 C 0.8764(3) 0.6010(5) 0.7644(3)
C5 C 0.9916(3) 0.6032(5) 0.8635(3)
Cd1 Cd 0.7500 0.7500 0.5000
Cd2 Cd 0.29080(3) 0.0000 0.28563(3)
Cd3 Cd 0.2500 0.2500 0.0000
O1 O 0.6230(3) 0.5000 0.4699(3)
O2 O 0.4437(2) 0.1841(4) 0.3255(3)
O3 O 0.2831(3) 0.5000 0.1370(3)
O4 O 0.8095(2) 0.7275(4) 0.7012(2)
O5 O 1.0594(2) 0.7282(4) 0.9191(3)
O6 O 0.6629(3) 1.0000 0.5205(3)
H1 H 0.5916 1.0000 0.4756
O7 O 0.2190(3) 0.0000 0.0933(3)
H2 H 0.1482 0.0000 0.0610
C2E C 0.4446(3) 0.6441(5) 0.3155(3)
C4E C 0.8764(3) 0.3990(5) 0.7644(3)
C5E C 0.9916(3) 0.3968(5) 0.8635(3)
Cd1C Cd 0.7500 0.2500 0.5000
Cd1C_2 Cd 0.7500 1.2500 0.5000
Cd2A Cd 0.70920(3) 1.0000 0.71437(3)
Cd2_2 Cd 0.29080(3) 1.0000 0.28563(3)
Cd2A_2 Cd 0.70920(3) 0.0000 0.71437(3)
Cd3C Cd 0.2500 0.7500 0.0000
Cd3C_2 Cd 1.2500 0.7500 1.0000
Cd3C_3 Cd 0.2500 -0.2500 0.0000
Cd3_2 Cd 1.2500 0.2500 1.0000
O1C O 0.8770(3) 1.0000 0.5301(3)
O2E O 0.4437(2) 0.8159(4) 0.3255(3)
O2E_2 O 0.4437(2) -0.1841(4) 0.3255(3)
O3C O 0.2169(3) 0.0000 -0.1370(3)
O4E O 0.8095(2) 0.2725(4) 0.7012(2)
O4F O 0.6905(2) 0.7725(4) 0.2988(2)
O4A O 0.1905(2) -0.2725(4) 0.2988(2)
O4D O 0.1905(2) 0.2725(4) 0.2988(2)
O5E O 1.0594(2) 0.2718(4) 0.9191(3)
O5C O 0.4406(2) 0.2282(4) 0.0809(3)
O5E_2 O 0.0594(2) 0.2718(4) -0.0809(3)
O6C O 0.8371(3) 0.5000 0.4795(3)
O6A O 0.3371(3) 0.0000 0.4795(3)
H1C H 0.9084 0.5000 0.5244
H1A H 0.4084 0.0000 0.5244
O7C O 0.2810(3) 0.5000 -0.0933(3)
H2C H 0.3518 0.5000 -0.0610
loop_
_geom_bond_atom_site_label_1
_geom_bond_atom_site_label_2
_geom_bond_site_symmetry_1
_geom_bond_site_symmetry_2
C1 C2 1_555 1_555
C2 C3 1_555 1_555
C3 O3 1_555 1_555
C4 C5 1_555 1_555
C5 O5 1_555 1_555
Cd1 O1 1_555 1_555
Cd2 O2 1_555 1_555
Cd3 O3 1_555 1_555
O1 C1 1_555 1_555
O2 C2 1_555 1_555
O3 Cd3C 1_555 1_555
O4 C4 1_555 1_555
O5 Cd3C_2 1_555 1_555
O6 Cd1 1_555 1_555
H1 O6 1_555 1_555
O7 Cd2 1_555 1_555
H2 O7 1_555 1_555
C2E C1 1_555 1_555
C4E C4 1_555 1_555
C5E C5 1_555 1_555
Cd1C O1 1_555 1_555
Cd1C_2 O6 1_555 1_555
Cd2A O4 1_555 1_555
Cd2_2 O2E 1_555 1_555
Cd2A_2 O4E 1_555 1_555
Cd3C O7C 1_555 1_555
Cd3C_3 O7 1_555 1_555
Cd3_2 O5E 1_555 1_555
O1C Cd1 1_555 1_555
O2E C2E 1_555 1_555
O2E_2 Cd2 1_555 1_555
O3C Cd3 1_555 1_555
O4E C4E 1_555 1_555
O4F Cd1 1_555 1_555
O4A Cd2 1_555 1_555
O4D Cd2 1_555 1_555
O5E C5E 1_555 1_555
O5C Cd3 1_555 1_555
O5E_2 Cd3 1_555 1_555
O6C Cd1 1_555 1_555
O6A Cd2 1_555 1_555
H1C O6C 1_555 1_555
H1A O6A 1_555 1_555
O7C Cd3 1_555 1_555
H2C O7C 1_555 1_555
C3 C2E 1_555 1_555
Cd1 O4 1_555 1_555
Cd3 O7 1_555 1_555
O6 Cd2A 1_555 1_555
C4E C5E 1_555 1_555
Cd1C O4E 1_555 1_555
Cd1C O6C 1_555 1_555
Cd1C_2 O1C 1_555 1_555
Cd3C_3 O3C 1_555 1_555

#END
