
#######################################################################
#
#                 Cambridge Crystallographic Data Centre
#                                CCDC 
#
#######################################################################
#
# If this CIF has been generated from an entry in the Cambridge 
# Structural Database, then it will include bibliographic, chemical, 
# crystal, experimental, refinement or atomic coordinate data resulting 
# from the CCDC's data processing and validation procedures.
#
#######################################################################

data_VUQHUL
_symmetry_cell_setting           orthorhombic
_symmetry_space_group_name_H-M   'P b c a'
_symmetry_Int_Tables_number      61
_space_group_name_Hall           '-P 2ac 2ab'
loop_
_symmetry_equiv_pos_site_id
_symmetry_equiv_pos_as_xyz
1 x,y,z
2 1/2-x,-y,1/2+z
3 -x,1/2+y,1/2-z
4 1/2+x,1/2-y,-z
5 -x,-y,-z
6 1/2+x,y,1/2-z
7 x,1/2-y,1/2+z
8 1/2-x,1/2+y,z
_cell_length_a                   6.8958(3)
_cell_length_b                   5.8147(3)
_cell_length_c                   15.8331(8)
_cell_angle_alpha                90
_cell_angle_beta                 90
_cell_angle_gamma                90
_cell_volume                     634.86
loop_
_atom_site_label
_atom_site_type_symbol
_atom_site_fract_x
_atom_site_fract_y
_atom_site_fract_z
O1 O 0.3502(3) 0.3085(4) 0.39203(14)
C1 C 0.4331(4) 0.4142(6) 0.4516(2)
Cd1 Cd 0.39710(3) -0.03267(4) 0.309490(13)
O2 O 0.5895(3) 0.7881(5) 0.40924(15)
O3 O 0.3368(3) -0.3520(4) 0.23362(13)
H1 H 0.2726 -0.2986 0.1820
C2 C 0.5391(4) 0.6303(5) 0.45871(18)
O1D O 0.6498(3) 0.6915(4) 0.60797(14)
O1G O 0.1498(3) -0.1915(4) 0.39203(14)
O1C O 0.8502(3) 1.1915(4) 0.60797(14)
C1D C 0.5669(4) 0.5858(6) 0.5484(2)
Cd1D Cd 0.60290(3) 1.03267(4) 0.690510(13)
Cd1G Cd 0.10290(3) 0.46733(4) 0.309490(13)
Cd1_2 Cd 0.39710(3) 0.96733(4) 0.309490(13)
Cd1B Cd 0.60290(3) -0.53267(4) 0.190510(13)
Cd1G_2 Cd 0.10290(3) -0.53267(4) 0.309490(13)
Cd1C Cd 0.89710(3) 0.53267(4) 0.690510(13)
Cd1D_2 Cd 0.60290(3) 0.03267(4) 0.690510(13)
Cd1B_2 Cd 0.60290(3) 0.46733(4) 0.190510(13)
Cd1E Cd 0.89710(3) -0.03267(4) 0.190510(13)
O2D O 0.4105(3) 0.2119(5) 0.59076(15)
O2_2 O 0.5895(3) -0.2119(5) 0.40924(15)
O2D_2 O 0.4105(3) 1.2119(5) 0.59076(15)
O3B O 0.6632(3) 0.1480(4) 0.26638(13)
O3G O 0.1632(3) 0.1480(4) 0.23362(13)
O3D O 0.6632(3) 1.3520(4) 0.76638(13)
O3F O 0.3368(3) 0.8520(4) 0.73362(13)
O3C O 0.8368(3) 0.8520(4) 0.76638(13)
H1B H 0.7274 0.2014 0.3180
H1G H 0.2274 0.2014 0.1820
H1D H 0.7274 1.2986 0.8180
H1F H 0.2726 0.7986 0.6820
H1C H 0.7726 0.7986 0.8180
C2D C 0.4609(4) 0.3697(5) 0.54129(18)
loop_
_geom_bond_atom_site_label_1
_geom_bond_atom_site_label_2
_geom_bond_site_symmetry_1
_geom_bond_site_symmetry_2
O1 C1 1_555 1_555
C1 C2 1_555 1_555
Cd1 O1 1_555 1_555
O2 C2 1_555 1_555
O3 Cd1 1_555 1_555
H1 O3 1_555 1_555
C2 C1D 1_555 1_555
O1D C1D 1_555 1_555
O1G Cd1 1_555 1_555
O1C Cd1D 1_555 1_555
C1D C2D 1_555 1_555
Cd1D O1D 1_555 1_555
Cd1G O1 1_555 1_555
Cd1_2 O2 1_555 1_555
Cd1B O3 1_555 1_555
Cd1G_2 O3 1_555 1_555
Cd1C O1D 1_555 1_555
Cd1D_2 O2D 1_555 1_555
Cd1B_2 O3B 1_555 1_555
Cd1E O3B 1_555 1_555
O2D C2D 1_555 1_555
O2_2 Cd1 1_555 1_555
O2D_2 Cd1D 1_555 1_555
O3B Cd1 1_555 1_555
O3G Cd1 1_555 1_555
O3D Cd1D 1_555 1_555
O3F Cd1D 1_555 1_555
O3C Cd1D 1_555 1_555
H1B O3B 1_555 1_555
H1G O3G 1_555 1_555
H1D O3D 1_555 1_555
H1F O3F 1_555 1_555
H1C O3C 1_555 1_555
C2D C1 1_555 1_555
O1G Cd1G_2 1_555 1_555
Cd1G O3G 1_555 1_555
Cd1C O3C 1_555 1_555

#END
