
#######################################################################
#
#                 Cambridge Crystallographic Data Centre
#                                CCDC 
#
#######################################################################
#
# If this CIF has been generated from an entry in the Cambridge 
# Structural Database, then it will include bibliographic, chemical, 
# crystal, experimental, refinement or atomic coordinate data resulting 
# from the CCDC's data processing and validation procedures.
#
#######################################################################

data_VUQJEX
_symmetry_cell_setting           monoclinic
_symmetry_space_group_name_H-M   'C c'
_symmetry_Int_Tables_number      9
_space_group_name_Hall           'C -2yc'
loop_
_symmetry_equiv_pos_site_id
_symmetry_equiv_pos_as_xyz
1 x,y,z
2 x,-y,1/2+z
3 1/2+x,1/2+y,z
4 1/2+x,1/2-y,1/2+z
_cell_length_a                   19.710(9)
_cell_length_b                   3.7857(16)
_cell_length_c                   11.663(5)
_cell_angle_alpha                90
_cell_angle_beta                 103.230(2)
_cell_angle_gamma                90
_cell_volume                     847.151
loop_
_atom_site_label
_atom_site_type_symbol
_atom_site_fract_x
_atom_site_fract_y
_atom_site_fract_z
Br1 Br -0.14879(3) 0.01449(13) -0.17712(5)
Cu1 Cu -0.23706(3) -0.49525(18) -0.18115(6)
Cu2 Cu -0.14125(4) -0.6395(2) 0.13815(8)
N1 N -0.3352(2) -0.3499(13) -0.0390(4)
N2 N -0.2698(2) -0.4541(12) -0.0351(4)
N3 N -0.2373(2) -0.5286(11) 0.0747(4)
N4 N -0.2839(2) -0.4741(10) 0.1456(4)
N5 N -0.5438(2) -0.1667(12) 0.1328(4)
C1 C -0.3410(2) -0.3622(13) 0.0731(4)
C2 C -0.4086(2) -0.2781(12) 0.1001(4)
C3 C -0.4591(3) -0.1048(14) 0.0157(5)
H1 H -0.4478 -0.0232 -0.0528
C4 C -0.4263(2) -0.3779(15) 0.2045(4)
H2 H -0.3935 -0.4798 0.2656
C5 C -0.5252(3) -0.0525(14) 0.0321(5)
H3 H -0.5580 0.0622 -0.0259
C6 C -0.4946(2) -0.3212(15) 0.2152(5)
H4 H -0.5065 -0.3957 0.2840
Br1_2 Br -0.14879(3) -0.98551(13) -0.17712(5)
Br1A Br -0.14879(3) -1.01449(13) 0.32288(5)
Cu1_2 Cu -0.23706(3) 0.50475(18) -0.18115(6)
Cu1A Cu -0.23706(3) -0.50475(18) 0.31885(6)
Cu2A Cu -0.14125(4) -0.3605(2) -0.36185(8)
Cu2B Cu -0.64125(4) -0.1395(2) 0.13815(8)
N4A N -0.2839(2) -0.5259(10) -0.3544(4)
N5B N -0.0438(2) -0.6667(12) 0.1328(4)
loop_
_geom_bond_atom_site_label_1
_geom_bond_atom_site_label_2
_geom_bond_site_symmetry_1
_geom_bond_site_symmetry_2
Br1 Cu1 1_555 1_555
Cu1 N2 1_555 1_555
Cu2 N3 1_555 1_555
N1 N2 1_555 1_555
N2 N3 1_555 1_555
N3 N4 1_555 1_555
N4 C1 1_555 1_555
N5 C5 1_555 1_555
C1 N1 1_555 1_555
C2 C1 1_555 1_555
C3 C2 1_555 1_555
H1 C3 1_555 1_555
C4 C2 1_555 1_555
H2 C4 1_555 1_555
C5 C3 1_555 1_555
H3 C5 1_555 1_555
C6 N5 1_555 1_555
H4 C6 1_555 1_555
Br1_2 Cu1 1_555 1_555
Br1A Cu2 1_555 1_555
Cu1_2 Br1 1_555 1_555
Cu1A N4 1_555 1_555
Cu2A Br1 1_555 1_555
Cu2B N5 1_555 1_555
N4A Cu1 1_555 1_555
N5B Cu2 1_555 1_555
C4 C6 1_555 1_555
Br1A Cu1A 1_555 1_555

#END
