
#######################################################################
#
#                 Cambridge Crystallographic Data Centre
#                                CCDC 
#
#######################################################################
#
# If this CIF has been generated from an entry in the Cambridge 
# Structural Database, then it will include bibliographic, chemical, 
# crystal, experimental, refinement or atomic coordinate data resulting 
# from the CCDC's data processing and validation procedures.
#
#######################################################################

data_VUQLUP
_symmetry_cell_setting           orthorhombic
_symmetry_space_group_name_H-M   'P c c n'
_symmetry_Int_Tables_number      56
_space_group_name_Hall           '-P 2ab 2ac'
loop_
_symmetry_equiv_pos_site_id
_symmetry_equiv_pos_as_xyz
1 x,y,z
2 1/2-x,1/2-y,z
3 1/2+x,-y,1/2-z
4 -x,1/2+y,1/2-z
5 -x,-y,-z
6 1/2+x,1/2+y,-z
7 1/2-x,y,1/2+z
8 x,1/2-y,1/2+z
_cell_length_a                   20.584(4)
_cell_length_b                   11.949(2)
_cell_length_c                   15.098(3)
_cell_angle_alpha                90
_cell_angle_beta                 90
_cell_angle_gamma                90
_cell_volume                     3713.48
loop_
_atom_site_label
_atom_site_type_symbol
_atom_site_fract_x
_atom_site_fract_y
_atom_site_fract_z
C1 C 0.10127(13) 0.4127(2) 0.1878(2)
C2 C 0.14335(13) 0.5155(2) 0.18812(19)
C3 C 0.20936(14) 0.5016(2) 0.1713(2)
H1 H 0.2258 0.4299 0.1627
C4 C 0.25102(15) 0.5923(2) 0.1671(2)
H2 H 0.2949 0.5807 0.1556
C5 C 0.22791(13) 0.7009(2) 0.1799(2)
C6 C 0.16183(13) 0.7142(2) 0.1959(2)
H3 H 0.1453 0.7860 0.2035
C7 C 0.11973(13) 0.6233(2) 0.20091(18)
C8 C 0.05114(14) 0.6449(3) 0.2285(2)
C9 C 0.07517(17) 0.0223(3) 0.0974(2)
H4 H 0.0642 -0.0285 0.1416
C10 C 0.0980(2) 0.1745(4) 0.0295(3)
H5 H 0.1059 0.2496 0.0175
C11 C 0.1004(3) 0.0903(4) -0.0304(3)
H6 H 0.1102 0.0970 -0.0903
C12 C 0.0815(3) -0.1226(4) -0.0220(4)
H7 H 0.0599 -0.1694 0.0215
H8 H 0.0551 -0.1225 -0.0752
C13 C 0.1438(3) -0.1700(4) -0.0423(4)
H9 H 0.1692 -0.1755 0.0117
H10 H 0.1667 -0.1208 -0.0828
C14 C 0.1378(4) -0.2842(4) -0.0834(4)
H11 H 0.1013 -0.2815 -0.1241
H12 H 0.1764 -0.2962 -0.1190
C15 C 0.1300(4) -0.3749(4) -0.0331(4)
H13 H 0.0873 -0.3730 -0.0060
H14 H 0.1621 -0.3743 0.0139
C16 C 0.1873(3) -0.5530(4) -0.0881(4)
H15 H 0.2260 -0.5481 -0.0566
C17 C 0.0916(3) -0.5172(3) -0.1420(3)
H16 H 0.0523 -0.4816 -0.1535
C18 C 0.1703(2) -0.6339(3) -0.1452(3)
H17 H 0.1956 -0.6958 -0.1594
Co1 Co 0.061847(17) 0.20507(3) 0.22922(3)
N1 N 0.08202(14) 0.1313(2) 0.11041(18)
N2 N 0.08584(18) -0.0057(3) 0.0131(2)
N3 N 0.1369(3) -0.4794(3) -0.0852(3)
N4 N 0.11066(14) -0.6116(2) -0.1792(2)
O1 O 0.05875(11) 0.39952(19) 0.13195(17)
O2 O 0.11709(11) 0.33952(18) 0.24512(16)
O3 O 0.02774(10) 0.74226(19) 0.21938(16)
O4 O 0.01930(11) 0.5691(2) 0.26374(16)
C1A C 0.39873(13) 1.0873(2) 0.1878(2)
C2A C 0.35665(13) 0.9845(2) 0.18812(19)
C3A C 0.29064(14) 0.9984(2) 0.1713(2)
H1A H 0.2742 1.0701 0.1627
C4A C 0.24898(15) 0.9077(2) 0.1671(2)
H2A H 0.2051 0.9193 0.1556
C5A C 0.27209(13) 0.7991(2) 0.1799(2)
C6A C 0.33817(13) 0.7858(2) 0.1959(2)
H3A H 0.3547 0.7140 0.2035
C7A C 0.38027(13) 0.8767(2) 0.20091(18)
C8A C 0.44886(14) 0.8551(3) 0.2285(2)
C9A C 0.42483(17) 1.4777(3) 0.0974(2)
H4A H 0.4358 1.5285 0.1416
C10A C 0.4020(2) 1.3255(4) 0.0295(3)
H5A H 0.3941 1.2504 0.0175
C11A C 0.3996(3) 1.4097(4) -0.0304(3)
H6A H 0.3898 1.4030 -0.0903
C12A C 0.4185(3) 1.6226(4) -0.0220(4)
H7A H 0.4401 1.6694 0.0215
H8A H 0.4449 1.6225 -0.0752
C13A C 0.3562(3) 1.6700(4) -0.0423(4)
H9A H 0.3308 1.6755 0.0117
H10A H 0.3333 1.6208 -0.0828
C14A C 0.3622(4) 1.7842(4) -0.0834(4)
H11A H 0.3987 1.7815 -0.1241
H12A H 0.3236 1.7962 -0.1190
C15A C 0.3700(4) 1.8749(4) -0.0331(4)
H13A H 0.4127 1.8730 -0.0060
H14A H 0.3379 1.8743 0.0139
C16A C 0.3127(3) 2.0530(4) -0.0881(4)
H15A H 0.2740 2.0481 -0.0566
C17A C 0.4084(3) 2.0172(3) -0.1420(3)
H16A H 0.4477 1.9816 -0.1535
C18A C 0.3297(2) 2.1339(3) -0.1452(3)
H17A H 0.3044 2.1958 -0.1594
Co1A Co 0.438153(17) 1.29493(3) 0.22922(3)
Co1B Co 0.561847(17) 0.79493(3) 0.27078(3)
Co1C Co -0.061847(17) 0.70507(3) 0.27078(3)
Co1F Co 0.438153(17) 2.20507(3) -0.27078(3)
Co1G Co 0.061847(17) -0.70507(3) -0.27078(3)
N1A N 0.41798(14) 1.3687(2) 0.11041(18)
N2A N 0.41416(18) 1.5057(3) 0.0131(2)
N3A N 0.3631(3) 1.9794(3) -0.0852(3)
N4A N 0.38934(14) 2.1116(2) -0.1792(2)
N4F N 0.38934(14) 1.3884(2) 0.3208(2)
N4G N 0.11066(14) 0.1116(2) 0.3208(2)
O1A O 0.44125(11) 1.10048(19) 0.13195(17)
O2A O 0.38291(11) 1.16048(18) 0.24512(16)
O3A O 0.47226(10) 0.75774(19) 0.21938(16)
O3B O 0.52774(10) 1.25774(19) 0.28062(16)
O3C O -0.02774(10) 0.24226(19) 0.28062(16)
O4A O 0.48070(11) 0.9309(2) 0.26374(16)
O4B O 0.51930(11) 1.4309(2) 0.23626(16)
O4C O -0.01930(11) 0.0691(2) 0.23626(16)
loop_
_geom_bond_atom_site_label_1
_geom_bond_atom_site_label_2
_geom_bond_site_symmetry_1
_geom_bond_site_symmetry_2
C1 C2 1_555 1_555
C2 C3 1_555 1_555
C3 H1 1_555 1_555
C4 C3 1_555 1_555
H2 C4 1_555 1_555
C5 C4 1_555 1_555
C6 C5 1_555 1_555
H3 C6 1_555 1_555
C7 C2 1_555 1_555
C8 C7 1_555 1_555
C9 H4 1_555 1_555
C10 H5 1_555 1_555
C11 C10 1_555 1_555
H6 C11 1_555 1_555
C12 H7 1_555 1_555
H8 C12 1_555 1_555
C13 C12 1_555 1_555
H9 C13 1_555 1_555
H10 C13 1_555 1_555
C14 C13 1_555 1_555
H11 C14 1_555 1_555
H12 C14 1_555 1_555
C15 C14 1_555 1_555
H13 C15 1_555 1_555
H14 C15 1_555 1_555
C16 H15 1_555 1_555
C17 H16 1_555 1_555
C18 C16 1_555 1_555
H17 C18 1_555 1_555
Co1 N1 1_555 1_555
N1 C9 1_555 1_555
N2 C9 1_555 1_555
N3 C15 1_555 1_555
N4 C17 1_555 1_555
O1 C1 1_555 1_555
O2 C1 1_555 1_555
O3 C8 1_555 1_555
O4 C8 1_555 1_555
C1A C2A 1_555 1_555
C2A C3A 1_555 1_555
C3A H1A 1_555 1_555
C4A C3A 1_555 1_555
H2A C4A 1_555 1_555
C5A C5 1_555 1_555
C6A C5A 1_555 1_555
H3A C6A 1_555 1_555
C7A C2A 1_555 1_555
C8A C7A 1_555 1_555
C9A H4A 1_555 1_555
C10A H5A 1_555 1_555
C11A C10A 1_555 1_555
H6A C11A 1_555 1_555
C12A H7A 1_555 1_555
H8A C12A 1_555 1_555
C13A C12A 1_555 1_555
H9A C13A 1_555 1_555
H10A C13A 1_555 1_555
C14A C13A 1_555 1_555
H11A C14A 1_555 1_555
H12A C14A 1_555 1_555
C15A C14A 1_555 1_555
H13A C15A 1_555 1_555
H14A C15A 1_555 1_555
C16A H15A 1_555 1_555
C17A H16A 1_555 1_555
C18A C16A 1_555 1_555
H17A C18A 1_555 1_555
Co1A N1A 1_555 1_555
Co1B O3A 1_555 1_555
Co1C O3 1_555 1_555
Co1F N4A 1_555 1_555
Co1G N4 1_555 1_555
N1A C9A 1_555 1_555
N2A C9A 1_555 1_555
N3A C15A 1_555 1_555
N4A C17A 1_555 1_555
N4F Co1A 1_555 1_555
N4G Co1 1_555 1_555
O1A C1A 1_555 1_555
O2A C1A 1_555 1_555
O3A C8A 1_555 1_555
O3B Co1A 1_555 1_555
O3C Co1 1_555 1_555
O4A C8A 1_555 1_555
O4B Co1A 1_555 1_555
O4C Co1 1_555 1_555
C6 C7 1_555 1_555
C10 N1 1_555 1_555
C11 N2 1_555 1_555
C12 N2 1_555 1_555
C16 N3 1_555 1_555
C17 N3 1_555 1_555
C18 N4 1_555 1_555
Co1 O2 1_555 1_555
O4 Co1C 1_555 1_555
C4A C5A 1_555 1_555
C6A C7A 1_555 1_555
C10A N1A 1_555 1_555
C11A N2A 1_555 1_555
C12A N2A 1_555 1_555
C16A N3A 1_555 1_555
C17A N3A 1_555 1_555
C18A N4A 1_555 1_555
Co1A O2A 1_555 1_555
Co1B O4A 1_555 1_555

#END
