
#######################################################################
#
#                 Cambridge Crystallographic Data Centre
#                                CCDC 
#
#######################################################################
#
# If this CIF has been generated from an entry in the Cambridge 
# Structural Database, then it will include bibliographic, chemical, 
# crystal, experimental, refinement or atomic coordinate data resulting 
# from the CCDC's data processing and validation procedures.
#
#######################################################################

data_VURQEF01
_symmetry_cell_setting           tetragonal
_symmetry_space_group_name_H-M   'P 43 2 2'
_symmetry_Int_Tables_number      95
_space_group_name_Hall           'P 4cw 2c'
loop_
_symmetry_equiv_pos_site_id
_symmetry_equiv_pos_as_xyz
1 x,y,z
2 -x,-y,1/2+z
3 -y,x,3/4+z
4 y,-x,1/4+z
5 -x,y,-z
6 x,-y,1/2-z
7 y,x,1/4-z
8 -y,-x,3/4-z
_cell_length_a                   8.0674(4)
_cell_length_b                   8.0674(4)
_cell_length_c                   28.0367(6)
_cell_angle_alpha                90
_cell_angle_beta                 90
_cell_angle_gamma                90
_cell_volume                     1824.71
loop_
_atom_site_label
_atom_site_type_symbol
_atom_site_fract_x
_atom_site_fract_y
_atom_site_fract_z
Zn1 Zn 0.0000 0.01115(8) 0.0000
C1 C 0.0165(6) 0.2529(6) 0.08260(17)
H1 H -0.0846 0.2188 0.0951
C2 C 0.2360(5) 0.2583(5) 0.04027(16)
H2 H 0.3176 0.2320 0.0181
C3 C 0.1003(6) 0.3888(6) 0.09659(17)
H3 H 0.0693 0.4654 0.1197
C4 C 0.3626(5) 0.5186(5) 0.06779(14)
C5 C 0.5283(5) 0.4794(5) 0.06379(15)
H4 H 0.5626 0.3694 0.0647
C6 C 0.3094(6) 0.6824(5) 0.06867(15)
H5 H 0.1977 0.7079 0.0723
C7 C 0.6435(5) 0.6062(5) 0.05836(14)
H6 H 0.7553 0.5810 0.0548
C8 C 0.4260(6) 0.8061(6) 0.06408(15)
H7 H 0.3922 0.9163 0.0649
C9 C 0.5920(6) 0.7695(6) 0.05824(15)
C10 C 0.7120(7) 0.9110(6) 0.04844(16)
N1 N 0.1021(4) 0.1713(4) 0.04696(13)
N2 N 0.2418(4) 0.3897(4) 0.06912(12)
O1 O 0.8523(4) 0.8613(4) 0.03273(12)
O2 O 0.6678(4) 1.0549(4) 0.05373(12)
Zn1_2 Zn 1.0000 1.01115(8) 0.0000
Zn1_3 Zn 1.0000 -0.98885(8) 0.0000
C1D C 0.9835(6) -0.7471(6) -0.08260(17)
H1D H 1.0846 -0.7812 -0.0951
C2D C 0.7640(5) -0.7417(5) -0.04027(16)
H2D H 0.6824 -0.7680 -0.0181
C3D C 0.8997(6) -0.6112(6) -0.09659(17)
H3D H 0.9307 -0.5346 -0.1197
C4D C 0.6374(5) -0.4814(5) -0.06779(14)
C5D C 0.4717(5) -0.5206(5) -0.06379(15)
H4D H 0.4374 -0.6306 -0.0647
C6D C 0.6906(6) -0.3176(5) -0.06867(15)
H5D H 0.8023 -0.2921 -0.0723
C7D C 0.3565(5) -0.3938(5) -0.05836(14)
H6D H 0.2447 -0.4190 -0.0548
C8D C 0.5740(6) -0.1939(6) -0.06408(15)
H7D H 0.6078 -0.0837 -0.0649
C9D C 0.4080(6) -0.2305(6) -0.05824(15)
C10D C 0.2880(7) -0.0890(6) -0.04844(16)
N1D N 0.8979(4) -0.8287(4) -0.04696(13)
N1D_2 N -0.1021(4) 0.1713(4) -0.04696(13)
N2D N 0.7582(4) -0.6103(4) -0.06912(12)
O1D O 0.1477(4) -0.1387(4) -0.03273(12)
O1_2 O -0.1477(4) -0.1387(4) 0.03273(12)
O2D O 0.3322(4) 0.0549(4) -0.05373(12)
loop_
_geom_bond_atom_site_label_1
_geom_bond_atom_site_label_2
_geom_bond_site_symmetry_1
_geom_bond_site_symmetry_2
Zn1 N1 1_555 1_555
C1 H1 1_555 1_555
C2 H2 1_555 1_555
C3 C1 1_555 1_555
H3 C3 1_555 1_555
C4 C5 1_555 1_555
C5 H4 1_555 1_555
C6 C4 1_555 1_555
H5 C6 1_555 1_555
C7 C5 1_555 1_555
H6 C7 1_555 1_555
C8 C6 1_555 1_555
H7 C8 1_555 1_555
C9 C7 1_555 1_555
C10 C9 1_555 1_555
N1 C1 1_555 1_555
N2 C2 1_555 1_555
O1 C10 1_555 1_555
O2 C10 1_555 1_555
Zn1_2 O1 1_555 1_555
Zn1_3 N1D 1_555 1_555
C1D H1D 1_555 1_555
C2D H2D 1_555 1_555
C3D C1D 1_555 1_555
H3D C3D 1_555 1_555
C4D C5D 1_555 1_555
C5D H4D 1_555 1_555
C6D C4D 1_555 1_555
H5D C6D 1_555 1_555
C7D C5D 1_555 1_555
H6D C7D 1_555 1_555
C8D C6D 1_555 1_555
H7D C8D 1_555 1_555
C9D C7D 1_555 1_555
C10D C9D 1_555 1_555
N1D C1D 1_555 1_555
N1D_2 Zn1 1_555 1_555
N2D C2D 1_555 1_555
O1D Zn1 1_555 1_555
O1_2 Zn1 1_555 1_555
O2D C10D 1_555 1_555
C2 N1 1_555 1_555
C3 N2 1_555 1_555
C4 N2 1_555 1_555
C8 C9 1_555 1_555
C2D N1D 1_555 1_555
C3D N2D 1_555 1_555
C4D N2D 1_555 1_555
C8D C9D 1_555 1_555
C10D O1D 1_555 1_555

#END
