
#######################################################################
#
#                 Cambridge Crystallographic Data Centre
#                                CCDC 
#
#######################################################################
#
# If this CIF has been generated from an entry in the Cambridge 
# Structural Database, then it will include bibliographic, chemical, 
# crystal, experimental, refinement or atomic coordinate data resulting 
# from the CCDC's data processing and validation procedures.
#
#######################################################################

data_VUSWIP
_symmetry_cell_setting           triclinic
_symmetry_space_group_name_H-M   'P -1'
_symmetry_Int_Tables_number      2
_space_group_name_Hall           '-P 1'
loop_
_symmetry_equiv_pos_site_id
_symmetry_equiv_pos_as_xyz
1 x,y,z
2 -x,-y,-z
_cell_length_a                   8.809(1)
_cell_length_b                   8.869(1)
_cell_length_c                   13.145(1)
_cell_angle_alpha                91.00(1)
_cell_angle_beta                 103.90(1)
_cell_angle_gamma                93.82(1)
_cell_volume                     994.098
loop_
_atom_site_label
_atom_site_type_symbol
_atom_site_fract_x
_atom_site_fract_y
_atom_site_fract_z
Co1 Co 0.1757(1) 0.7355(1) 0.2218
Cl1 Cl 0.1901(2) 1.2522(2) 0.6345(1)
Na1 Na 0.3567(2) 0.8324(2) -0.0525(1)
Na2 Na -0.2056(3) 0.5611(3) 0.0895(2)
O1 O 0.5671(5) 0.7121(5) 0.0813(3)
O2 O -0.2518(4) 0.6419(5) -0.0863(3)
O3 O 0.0897(5) 0.6697(5) -0.0433(3)
O4 O 0.3060(4) 0.6355(4) -0.1871(3)
N1 N 0.1838(4) 0.9679(4) 0.2855(3)
N2 N 0.2567(4) 0.7004(5) 0.3906(3)
O5 O 0.2806(5) 0.8640(4) 0.1210(3)
O6 O 0.4244(4) 1.0750(5) 0.1093(3)
O7 O -0.0428(4) 0.7956(4) 0.1423(2)
O8 O -0.2170(4) 0.9694(5) 0.1304(3)
O9 O 0.3658(4) 0.6009(4) 0.2254(2)
O10 O 0.5225(5) 0.4564(5) 0.3337(3)
O11 O 0.0403(4) 0.5425(4) 0.2340(3)
O12 O -0.0241(5) 0.3706(5) 0.3407(3)
C1 C 0.2107(5) 1.0903(6) 0.5638(3)
C2 C 0.1835(5) 1.0972(6) 0.4557(3)
H1 H 0.1483(5) 1.1999(6) 0.4167(3)
C3 C 0.2018(5) 0.9679(6) 0.3986(3)
C4 C 0.2438(5) 0.8359(5) 0.4514(3)
C5 C 0.2724(6) 0.8345(6) 0.5599(3)
H2 H 0.3065(6) 0.7322(6) 0.5998(3)
C6 C 0.2567(6) 0.9641(7) 0.6175(3)
H3 H 0.2830(6) 0.9664(7) 0.7022(3)
C7 C 0.3280(6) 1.0454(6) 0.2620(3)
H4 H 0.3195(6) 1.1663(6) 0.2634(3)
H5 H 0.4297(6) 1.0174(6) 0.3209(3)
C8 C 0.3448(6) 0.9937(7) 0.1541(4)
C9 C 0.0388(6) 1.0368(5) 0.2260(3)
H6 H 0.0724(6) 1.1196(5) 0.1747(3)
H7 H -0.0126(6) 1.0919(5) 0.2822(3)
C10 C -0.0801(6) 0.9278(6) 0.1625(3)
C11 C 0.4235(5) 0.6662(6) 0.4045(3)
H8 H 0.4931(5) 0.7707(6) 0.4029(3)
H9 H 0.4648(5) 0.6139(6) 0.4787(3)
C12 C 0.4394(5) 0.5625(6) 0.3159(4)
C13 C 0.1644(6) 0.5673(6) 0.4179(3)
H10 H 0.2450(6) 0.4877(6) 0.4566(3)
H11 H 0.0972(6) 0.6052(6) 0.4710(3)
C14 C 0.0540(6) 0.4875(6) 0.3242(3)
O6A O 0.5756(4) 0.9250(5) -0.1093(3)
O8A O 0.2170(4) 1.0306(5) -0.1304(3)
O1_2 O -0.4329(5) 0.7121(5) 0.0813(3)
O3A O -0.0897(5) 0.3303(5) 0.0433(3)
O4A O -0.3060(4) 0.3645(4) 0.1871(3)
Na2_2 Na 0.7944(3) 0.5611(3) 0.0895(2)
Na2A Na 0.2056(3) 0.4389(3) -0.0895(2)
Na1A Na 0.6433(2) 1.1676(2) 0.0525(1)
Na1A_2 Na -0.3567(2) 1.1676(2) 0.0525(1)
loop_
_geom_bond_atom_site_label_1
_geom_bond_atom_site_label_2
_geom_bond_site_symmetry_1
_geom_bond_site_symmetry_2
Co1 N1 1_555 1_555
Cl1 C1 1_555 1_555
Na1 O1 1_555 1_555
Na2 O2 1_555 1_555
O1 Na2_2 1_555 1_555
O3 Na1 1_555 1_555
O4 Na1 1_555 1_555
N1 C3 1_555 1_555
N2 Co1 1_555 1_555
O5 Co1 1_555 1_555
O6 C8 1_555 1_555
O7 Co1 1_555 1_555
O8 C10 1_555 1_555
O9 Co1 1_555 1_555
O10 C12 1_555 1_555
O11 Co1 1_555 1_555
O12 C14 1_555 1_555
C1 C2 1_555 1_555
C2 H1 1_555 1_555
C3 C2 1_555 1_555
C4 N2 1_555 1_555
C5 C4 1_555 1_555
H2 C5 1_555 1_555
C6 C1 1_555 1_555
H3 C6 1_555 1_555
C7 N1 1_555 1_555
H4 C7 1_555 1_555
H5 C7 1_555 1_555
C8 O5 1_555 1_555
C9 N1 1_555 1_555
H6 C9 1_555 1_555
H7 C9 1_555 1_555
C10 O7 1_555 1_555
C11 N2 1_555 1_555
H8 C11 1_555 1_555
H9 C11 1_555 1_555
C12 O9 1_555 1_555
C13 N2 1_555 1_555
H10 C13 1_555 1_555
H11 C13 1_555 1_555
C14 O11 1_555 1_555
O6A Na1 1_555 1_555
O8A Na1 1_555 1_555
O1_2 Na2 1_555 1_555
O3A Na2 1_555 1_555
O4A Na2 1_555 1_555
Na2A O3 1_555 1_555
Na1A O6 1_555 1_555
Na1A_2 O8 1_555 1_555
Na1 O5 1_555 1_555
Na2 O7 1_555 1_555
Na2 O11 1_555 1_555
O4 Na2A 1_555 1_555
C3 C4 1_555 1_555
C5 C6 1_555 1_555
C7 C8 1_555 1_555
C9 C10 1_555 1_555
C11 C12 1_555 1_555
C13 C14 1_555 1_555

#END
