
#######################################################################
#
#                 Cambridge Crystallographic Data Centre
#                                CCDC 
#
#######################################################################
#
# If this CIF has been generated from an entry in the Cambridge 
# Structural Database, then it will include bibliographic, chemical, 
# crystal, experimental, refinement or atomic coordinate data resulting 
# from the CCDC's data processing and validation procedures.
#
#######################################################################

data_VUWGOK
_symmetry_cell_setting           monoclinic
_symmetry_space_group_name_H-M   'C 2/c'
_symmetry_Int_Tables_number      15
_space_group_name_Hall           '-C 2yn'
loop_
_symmetry_equiv_pos_site_id
_symmetry_equiv_pos_as_xyz
1 x,y,z
2 -x,y,1/2-z
3 1/2+x,1/2+y,z
4 1/2-x,1/2+y,1/2-z
5 -x,-y,-z
6 x,-y,1/2+z
7 1/2-x,1/2-y,-z
8 1/2+x,1/2-y,1/2+z
_cell_length_a                   21.0248(10)
_cell_length_b                   8.9162(4)
_cell_length_c                   13.4615(7)
_cell_angle_alpha                90
_cell_angle_beta                 105.9170(10)
_cell_angle_gamma                90
_cell_volume                     2426.76
loop_
_atom_site_label
_atom_site_type_symbol
_atom_site_fract_x
_atom_site_fract_y
_atom_site_fract_z
Y1 Y 0.450352(10) 0.33055(3) 1.046460(16)
C1 C 0.33670(11) 0.3215(3) 0.88598(18)
C2 C 0.27535(11) 0.3173(3) 0.79738(17)
C3 C 0.27757(11) 0.3721(3) 0.70154(18)
H1 H 0.3162 0.4134 0.6923
C4 C 0.22065(11) 0.3634(3) 0.62056(17)
C5 C 0.16201(11) 0.3053(3) 0.63116(17)
H2 H 0.1245 0.3019 0.5752
C6 C 0.21681(11) 0.2577(3) 0.80984(17)
H3 H 0.2156 0.2214 0.8741
C7 C 0.51959(11) 0.2902(3) 0.89507(18)
C8 C 0.53266(12) 0.2786(3) 0.79158(17)
H4 H 0.5567 0.1869 0.7877
H5 H 0.5594 0.3628 0.7815
C9 C 0.09699(11) 0.1881(3) 0.74001(17)
C10 C 0.16030(11) 0.2518(3) 0.72747(17)
O1 O 0.34174(8) 0.2356(2) 0.96241(12)
O2 O 0.38294(7) 0.4099(2) 0.88279(12)
O3 O 0.49464(8) 0.1805(2) 0.93065(13)
O4 O 0.09804(8) 0.1296(2) 0.82608(12)
O5 O 0.44488(12) 0.0836(2) 1.10533(16)
H6 H 0.4132(17) 0.047(4) 1.088(3)
H7 H 0.4656(15) 0.013(4) 1.086(2)
O6 O 0.04674(7) 0.1963(2) 0.66504(12)
O7 O 0.52874(8) 0.41286(19) 0.94416(11)
O8 O 0.17288(9) 0.4042(2) 0.44529(13)
O9 O 0.27568(9) 0.4597(3) 0.50767(14)
N1 N 0.22323(10) 0.4141(3) 0.51747(15)
Y1F Y 0.049648(10) 0.16945(3) 0.953540(16)
Y1G Y -0.049648(10) 0.16945(3) 0.546460(16)
Y1D Y 0.549648(10) 0.66945(3) 0.953540(16)
Y1A Y 0.549648(10) 0.33055(3) 0.453540(16)
Y1E Y 0.450352(10) 0.66945(3) 0.546460(16)
Y1A_2 Y 0.549648(10) 0.33055(3) 1.453540(16)
C1F C 0.16330(11) 0.1785(3) 1.11402(18)
C2F C 0.22465(11) 0.1827(3) 1.20262(17)
C3F C 0.22243(11) 0.1279(3) 1.29846(18)
H1F H 0.1838 0.0866 1.3077
C4F C 0.27935(11) 0.1366(3) 1.37944(17)
C5F C 0.33799(11) 0.1947(3) 1.36884(17)
H2F H 0.3755 0.1981 1.4248
C6F C 0.28319(11) 0.2423(3) 1.19016(17)
H3F H 0.2844 0.2786 1.1259
C7A C 0.48041(11) 0.2902(3) 0.60493(18)
C8A C 0.46734(12) 0.2786(3) 0.70842(17)
H4A H 0.4433 0.1869 0.7123
H5A H 0.4406 0.3628 0.7185
C9F C 0.40301(11) 0.3119(3) 1.25999(17)
C10F C 0.33970(11) 0.2482(3) 1.27253(17)
O1F O 0.15826(8) 0.2644(2) 1.03759(12)
O2F O 0.11706(7) 0.0901(2) 1.11721(12)
O3A O 0.50536(8) 0.1805(2) 0.56935(13)
O3F O 0.00536(8) 0.3195(2) 1.06935(13)
O4F O 0.40196(8) 0.3704(2) 1.17392(12)
O5F O 0.05512(12) 0.4164(2) 0.89467(16)
H6F H 0.0868(17) 0.453(4) 0.912(3)
H7F H 0.0344(15) 0.487(4) 0.914(2)
O6F O 0.45326(7) 0.3037(2) 1.33496(12)
O6G O 0.54674(7) 0.3037(2) 1.16504(12)
O6A O -0.04674(7) 0.1963(2) 0.83496(12)
O7A O 0.47126(8) 0.41286(19) 0.55584(11)
O7D O 0.47126(8) 0.58714(19) 1.05584(11)
O7F O -0.02874(8) 0.08714(19) 1.05584(11)
O7B O 0.02874(8) -0.08714(19) 0.94416(11)
O8F O 0.32712(9) 0.0958(2) 1.55471(13)
O9F O 0.22432(9) 0.0403(3) 1.49233(14)
N1F N 0.27677(10) 0.0859(3) 1.48253(15)
loop_
_geom_bond_atom_site_label_1
_geom_bond_atom_site_label_2
_geom_bond_site_symmetry_1
_geom_bond_site_symmetry_2
Y1 O1 1_555 1_555
C1 C2 1_555 1_555
C2 C3 1_555 1_555
C3 H1 1_555 1_555
C4 C3 1_555 1_555
C5 C4 1_555 1_555
H2 C5 1_555 1_555
C6 C2 1_555 1_555
H3 C6 1_555 1_555
C7 C8 1_555 1_555
C8 H4 1_555 1_555
H5 C8 1_555 1_555
C9 C10 1_555 1_555
C10 C5 1_555 1_555
O1 C1 1_555 1_555
O2 Y1 1_555 1_555
O3 Y1 1_555 1_555
O4 C9 1_555 1_555
O5 Y1 1_555 1_555
H6 O5 1_555 1_555
H7 O5 1_555 1_555
O6 C9 1_555 1_555
O7 Y1 1_555 1_555
O8 N1 1_555 1_555
O9 N1 1_555 1_555
N1 C4 1_555 1_555
Y1F O4 1_555 1_555
Y1G O6 1_555 1_555
Y1D O7 1_555 1_555
Y1A O3A 1_555 1_555
Y1E O7A 1_555 1_555
Y1A_2 O6F 1_555 1_555
C1F C2F 1_555 1_555
C2F C3F 1_555 1_555
C3F H1F 1_555 1_555
C4F C3F 1_555 1_555
C5F C4F 1_555 1_555
H2F C5F 1_555 1_555
C6F C2F 1_555 1_555
H3F C6F 1_555 1_555
C7A C8A 1_555 1_555
C8A C8 1_555 1_555
H4A C8A 1_555 1_555
H5A C8A 1_555 1_555
C9F C10F 1_555 1_555
C10F C5F 1_555 1_555
O1F Y1F 1_555 1_555
O2F Y1F 1_555 1_555
O3A C7A 1_555 1_555
O3F Y1F 1_555 1_555
O4F Y1 1_555 1_555
O5F Y1F 1_555 1_555
H6F O5F 1_555 1_555
H7F O5F 1_555 1_555
O6F C9F 1_555 1_555
O6G Y1 1_555 1_555
O6A Y1F 1_555 1_555
O7A Y1A 1_555 1_555
O7D Y1 1_555 1_555
O7F Y1F 1_555 1_555
O7B Y1F 1_555 1_555
O8F N1F 1_555 1_555
O9F N1F 1_555 1_555
N1F C4F 1_555 1_555
C1 O2 1_555 1_555
C6 C10 1_555 1_555
C7 O3 1_555 1_555
C7 O7 1_555 1_555
Y1D O7D 1_555 1_555
C1F O1F 1_555 1_555
C1F O2F 1_555 1_555
C6F C10F 1_555 1_555
C7A O7A 1_555 1_555
C9F O4F 1_555 1_555

#END
