
#######################################################################
#
#                 Cambridge Crystallographic Data Centre
#                                CCDC 
#
#######################################################################
#
# If this CIF has been generated from an entry in the Cambridge 
# Structural Database, then it will include bibliographic, chemical, 
# crystal, experimental, refinement or atomic coordinate data resulting 
# from the CCDC's data processing and validation procedures.
#
#######################################################################

data_VUWHAW
_symmetry_cell_setting           orthorhombic
_symmetry_space_group_name_H-M   'F d d d'
_symmetry_Int_Tables_number      70
_space_group_name_Hall           '-F 2uv 2vw'
loop_
_symmetry_equiv_pos_site_id
_symmetry_equiv_pos_as_xyz
1 x,y,z
2 x,1/2+y,1/2+z
3 1/2+x,y,1/2+z
4 1/2+x,1/2+y,z
5 1/4-x,3/4-y,1/2+z
6 1/4-x,1/4-y,z
7 3/4-x,3/4-y,z
8 3/4-x,1/4-y,1/2+z
9 x,3/4-y,3/4-z
10 x,1/4-y,1/4-z
11 1/2+x,3/4-y,1/4-z
12 1/2+x,1/4-y,3/4-z
13 3/4-x,y,3/4-z
14 3/4-x,1/2+y,1/4-z
15 1/4-x,y,1/4-z
16 1/4-x,1/2+y,3/4-z
17 -x,-y,-z
18 -x,1/2-y,1/2-z
19 1/2-x,-y,1/2-z
20 1/2-x,1/2-y,-z
21 3/4+x,1/4+y,1/2-z
22 3/4+x,3/4+y,-z
23 1/4+x,1/4+y,-z
24 1/4+x,3/4+y,1/2-z
25 -x,1/4+y,1/4+z
26 -x,3/4+y,3/4+z
27 1/2-x,1/4+y,3/4+z
28 1/2-x,3/4+y,1/4+z
29 1/4+x,-y,1/4+z
30 1/4+x,1/2-y,3/4+z
31 3/4+x,-y,3/4+z
32 3/4+x,1/2-y,1/4+z
_cell_length_a                   12.676(2)
_cell_length_b                   22.171(3)
_cell_length_c                   24.490(3)
_cell_angle_alpha                90
_cell_angle_beta                 90
_cell_angle_gamma                90
_cell_volume                     6882.66
loop_
_atom_site_label
_atom_site_type_symbol
_atom_site_fract_x
_atom_site_fract_y
_atom_site_fract_z
Cu1 Cu 0.6250 0.1250 1.0131(1)
N1 N 0.6243(2) 0.0651(1) 1.0767(1)
C1 C 0.6166(2) 0.2186(1) 0.9209(1)
C2 C 0.6240(2) 0.0045(1) 1.0764(1)
C3 C 0.6250 -0.0276(2) 1.1250
C4 C 0.6250 0.0921(2) 1.1250
N2 N 0.6272(2) 0.1888(1) 0.9594(1)
S1 S 0.3956(1) 0.1181(1) 1.0248(1)
Cu2 Cu 0.3750 0.2510(1) 0.8750
N3 N 0.3747(2) 0.3216(1) 0.8204(1)
C5 C 0.3750 0.3750 0.8450(1)
C6 C 0.3750 0.3216(1) 0.7657(1)
C7 C 0.3750 0.3750 0.7365(2)
C8 C 0.3831(2) 0.1615(1) 0.9713(1)
N4 N 0.3730(2) 0.1922(1) 0.9333(1)
S2 S 0.6029(1) 0.2631(1) 0.8681(1)
H1 H 0.3758 0.2840 0.7463
H2 H 0.3750 0.3750 0.6974
H3 H 0.6224 -0.0168 1.0423
H4 H 0.6250 -0.0709 1.1250
C2N C 0.6260(2) 0.0045(1) 1.1736(1)
N1N N 0.6257(2) 0.0651(1) 1.1733(1)
C4E C 0.6250 0.1579(2) 1.1250
N1E N 0.6257(2) 0.1849(1) 1.0767(1)
C2E C 0.6260(2) 0.2455(1) 1.0764(1)
C3E C 0.6250 0.2776(2) 1.1250
C2I C 0.6240(2) 0.2455(1) 1.1736(1)
N1I N 0.6243(2) 0.1849(1) 1.1733(1)
H3I H 0.6224 0.2668 1.2077
H4E H 0.6250 0.3209 1.1250
H3E H 0.6276 0.2668 1.0423
H3N H 0.6276 -0.0168 1.2077
N3F N 0.3753(2) 0.4284(1) 0.8204(1)
C6F C 0.3750 0.4284(1) 0.7657(1)
H1F H 0.3742 0.4660 0.7463
C5H C 0.3750 0.3750 0.9050(1)
N3H N 0.3747(2) 0.4284(1) 0.9296(1)
C6H C 0.3750 0.4284(1) 0.9843(1)
C7H C 0.3750 0.3750 1.0135(2)
C6L C 0.3750 0.3216(1) 0.9843(1)
N3L N 0.3753(2) 0.3216(1) 0.9296(1)
H1L H 0.3742 0.2840 1.0037
H2H H 0.3750 0.3750 1.0526
H1H H 0.3758 0.4660 1.0037
C1E C 0.6334(2) 0.0314(1) 0.9209(1)
N2E N 0.6228(2) 0.0612(1) 0.9594(1)
S2E S 0.6471(1) -0.0131(1) 0.8681(1)
S1E S 0.8544(1) 0.1319(1) 1.0248(1)
C8E C 0.8669(2) 0.0885(1) 0.9713(1)
N4E N 0.8770(2) 0.0578(1) 0.9333(1)
Cu1N Cu 0.6250 0.1250 1.2369(1)
Cu2E Cu 0.8750 -0.0010(1) 0.8750
S1L S 0.3544(1) 0.1181(1) 0.7252(1)
C8L C 0.3669(2) 0.1615(1) 0.7787(1)
N4L N 0.3770(2) 0.1922(1) 0.8167(1)
C1L C 0.1334(2) 0.2186(1) 0.8291(1)
N2L N 0.1228(2) 0.1888(1) 0.7906(1)
S2L S 0.1471(1) 0.2631(1) 0.8819(1)
C1N C 0.6334(2) 0.2186(1) 1.3291(1)
N2N N 0.6228(2) 0.1888(1) 1.2906(1)
S2N S 0.6471(1) 0.2631(1) 1.3819(1)
S1N S 0.8544(1) 0.1181(1) 1.2252(1)
C8N C 0.8669(2) 0.1615(1) 1.2787(1)
N4N N 0.8770(2) 0.1922(1) 1.3167(1)
Cu2F Cu 0.3750 0.4990(1) 0.8750
N2I N 0.6272(2) 0.0612(1) 1.2906(1)
S1I S 0.3956(1) 0.1319(1) 1.2252(1)
N3E N 0.8753(2) -0.0716(1) 0.8204(1)
N3K N 0.8747(2) -0.0716(1) 0.9296(1)
N4K N 0.8730(2) 0.0578(1) 0.8167(1)
S2K S 1.1029(1) -0.0131(1) 0.8819(1)
Cu1K Cu 0.1250 0.1250 0.7369(1)
Cu2B Cu 0.8750 0.2510(1) 1.3750
loop_
_geom_bond_atom_site_label_1
_geom_bond_atom_site_label_2
_geom_bond_site_symmetry_1
_geom_bond_site_symmetry_2
Cu1 N1 1_555 1_555
N1 C2 1_555 1_555
C1 N2 1_555 1_555
C2 C3 1_555 1_555
C3 H4 1_555 1_555
C4 N1 1_555 1_555
N2 Cu1 1_555 1_555
S1 Cu1 1_555 1_555
Cu2 N3 1_555 1_555
N3 C5 1_555 1_555
C5 N3F 1_555 1_555
C6 N3 1_555 1_555
C7 C6 1_555 1_555
C8 S1 1_555 1_555
N4 Cu2 1_555 1_555
S2 C1 1_555 1_555
H1 C6 1_555 1_555
H2 C7 1_555 1_555
H3 C2 1_555 1_555
C2N C3 1_555 1_555
N1N C4 1_555 1_555
C4E C4 1_555 1_555
N1E Cu1 1_555 1_555
C2E N1E 1_555 1_555
C3E C2E 1_555 1_555
C2I C3E 1_555 1_555
N1I C4E 1_555 1_555
H3I C2I 1_555 1_555
H4E C3E 1_555 1_555
H3E C2E 1_555 1_555
H3N C2N 1_555 1_555
N3F C6F 1_555 1_555
C6F C7 1_555 1_555
H1F C6F 1_555 1_555
C5H C5 1_555 1_555
N3H C5H 1_555 1_555
C6H N3H 1_555 1_555
C7H C6H 1_555 1_555
C6L C7H 1_555 1_555
N3L Cu2 1_555 1_555
H1L C6L 1_555 1_555
H2H C7H 1_555 1_555
H1H C6H 1_555 1_555
C1E N2E 1_555 1_555
N2E Cu1 1_555 1_555
S2E C1E 1_555 1_555
S1E Cu1 1_555 1_555
C8E S1E 1_555 1_555
N4E C8E 1_555 1_555
Cu1N N1N 1_555 1_555
Cu2E S2E 1_555 1_555
S1L C8L 1_555 1_555
C8L N4L 1_555 1_555
N4L Cu2 1_555 1_555
C1L N2L 1_555 1_555
N2L Cu1K 1_555 1_555
S2L Cu2 1_555 1_555
C1N N2N 1_555 1_555
N2N Cu1N 1_555 1_555
S2N C1N 1_555 1_555
S1N Cu1N 1_555 1_555
C8N S1N 1_555 1_555
N4N C8N 1_555 1_555
Cu2F N3F 1_555 1_555
N2I Cu1N 1_555 1_555
S1I Cu1N 1_555 1_555
N3E Cu2E 1_555 1_555
N3K Cu2E 1_555 1_555
N4K Cu2E 1_555 1_555
S2K Cu2E 1_555 1_555
Cu1K S1L 1_555 1_555
Cu2B S2N 1_555 1_555
Cu2 S2 1_555 1_555
C8 N4 1_555 1_555
C2N N1N 1_555 1_555
C4E N1E 1_555 1_555
C2I N1I 1_555 1_555
N1I Cu1N 1_555 1_555
C5H N3L 1_555 1_555
N3H Cu2F 1_555 1_555
C6L N3L 1_555 1_555
N4E Cu2E 1_555 1_555
C1L S2L 1_555 1_555
N4N Cu2B 1_555 1_555

#END
