
#######################################################################
#
#                 Cambridge Crystallographic Data Centre
#                                CCDC 
#
#######################################################################
#
# If this CIF has been generated from an entry in the Cambridge 
# Structural Database, then it will include bibliographic, chemical, 
# crystal, experimental, refinement or atomic coordinate data resulting 
# from the CCDC's data processing and validation procedures.
#
#######################################################################

data_VUWNEH
_symmetry_cell_setting           monoclinic
_symmetry_space_group_name_H-M   'P 21/n'
_symmetry_Int_Tables_number      14
_space_group_name_Hall           '-P 2yn'
loop_
_symmetry_equiv_pos_site_id
_symmetry_equiv_pos_as_xyz
1 x,y,z
2 1/2-x,1/2+y,1/2-z
3 -x,-y,-z
4 1/2+x,1/2-y,1/2+z
_cell_length_a                   14.823(3)
_cell_length_b                   34.817(7)
_cell_length_c                   15.112(3)
_cell_angle_alpha                90
_cell_angle_beta                 94.39(3)
_cell_angle_gamma                90
_cell_volume                     7776.31
loop_
_atom_site_label
_atom_site_type_symbol
_atom_site_fract_x
_atom_site_fract_y
_atom_site_fract_z
Cd1 Cd 0.21311(3) 0.228786(13) 0.70411(3)
Cd2 Cd 0.24507(3) 0.524006(13) 1.26540(3)
N1 N 0.0827(3) 0.23933(16) 0.7752(3)
N2 N -0.0123(3) 0.27825(14) 0.8396(3)
N3 N 0.0934(5) 0.46789(19) 1.0334(5)
N4 N 0.1707(3) 0.50438(15) 1.1313(3)
N5 N 0.2922(3) 0.24642(15) 0.8361(3)
N6 N 0.3785(3) 0.28298(15) 0.9281(4)
N7 N 0.4692(3) 0.47665(13) 1.1249(3)
N8 N 0.3745(3) 0.51405(14) 1.1930(3)
N9 N 0.3433(3) 0.23921(15) 0.6324(3)
N10 N 0.4411(4) 0.27483(16) 0.5643(4)
N11 N 0.4020(4) 0.46512(15) 0.4905(4)
N12 N 0.3243(3) 0.50439(15) 0.3955(3)
N13 N 0.1403(3) 0.24820(15) 0.5709(3)
N14 N 0.0659(4) 0.28523(14) 0.4685(3)
N15 N 0.0215(4) 0.47221(16) 0.4004(4)
N16 N 0.1153(4) 0.51065(15) 0.3347(3)
N17 N 0.2001(4) 0.14469(15) 0.7114(3)
N18 N 0.2323(4) 0.60768(16) 1.2704(4)
C1 C 0.0000(4) 0.22069(17) 0.7776(4)
C2 C -0.0268(4) 0.18422(19) 0.7495(4)
H1 H 0.0130 0.1677 0.7239
C3 C -0.1145(5) 0.1733(2) 0.7610(5)
H2 H -0.1341 0.1490 0.7426
C4 C -0.1746(4) 0.1980(2) 0.7997(5)
H3 H -0.2337 0.1899 0.8052
C5 C -0.1485(4) 0.23393(19) 0.8297(4)
H4 H -0.1880 0.2502 0.8567
C6 C -0.0606(4) 0.24455(17) 0.8176(3)
C7 C 0.0707(4) 0.2732(2) 0.8115(4)
H5 H 0.1156 0.2919 0.8171
C8 C -0.0494(5) 0.31208(18) 0.8813(4)
H6 H -0.0752 0.3044 0.9357
H7 H -0.0976 0.3228 0.8419
C9 C 0.0209(5) 0.3425(2) 0.9024(5)
H8 H 0.0708 0.3315 0.9393
H9 H 0.0442 0.3514 0.8478
C10 C -0.0170(6) 0.3755(2) 0.9492(6)
H10 H -0.0426 0.3667 1.0028
H11 H -0.0645 0.3876 0.9114
C11 C 0.0639(7) 0.4059(2) 0.9740(7)
H12 H 0.1057 0.3955 1.0204
H13 H 0.0969 0.4110 0.9223
C12 C 0.0269(7) 0.4385(3) 1.0020(8)
H14 H -0.0107 0.4323 1.0498
H15 H -0.0121 0.4491 0.9536
C13 C 0.1174(5) 0.4749(2) 1.1190(5)
H16 H 0.0980 0.4601 1.1651
C14 C 0.1839(4) 0.51761(18) 1.0470(4)
C15 C 0.2310(4) 0.54942(19) 1.0198(4)
H17 H 0.2631 0.5651 1.0608
C16 C 0.2286(5) 0.5571(2) 0.9290(5)
H18 H 0.2595 0.5782 0.9088
C17 C 0.1800(6) 0.5332(3) 0.8687(5)
H19 H 0.1794 0.5389 0.8085
C18 C 0.1341(6) 0.5026(3) 0.8936(5)
H20 H 0.1021 0.4869 0.8524
C19 C 0.1364(5) 0.4951(2) 0.9837(5)
C20 C 0.2862(4) 0.23289(16) 0.9215(4)
C21 C 0.2421(4) 0.20128(18) 0.9540(4)
H21 H 0.2066 0.1855 0.9160
C22 C 0.2518(4) 0.19384(19) 1.0437(4)
H22 H 0.2233 0.1726 1.0664
C23 C 0.3036(5) 0.2177(2) 1.1006(5)
H23 H 0.3080 0.2123 1.1610
C24 C 0.3482(5) 0.2485(2) 1.0714(4)
H24 H 0.3830 0.2642 1.1105
C25 C 0.3402(4) 0.25591(19) 0.9815(4)
C26 C 0.3482(4) 0.27587(18) 0.8446(4)
H25 H 0.3650 0.2903 0.7967
C27 C 0.4434(5) 0.31285(19) 0.9572(5)
H26 H 0.4765 0.3207 0.9072
H27 H 0.4866 0.3023 1.0022
C28 C 0.3997(4) 0.34723(18) 0.9941(4)
H28 H 0.3696 0.3401 1.0465
H29 H 0.3548 0.3576 0.9505
C29 C 0.4740(4) 0.37804(17) 1.0187(4)
H30 H 0.5222 0.3665 1.0569
H31 H 0.4997 0.3868 0.9651
C30 C 0.4358(4) 0.41187(16) 1.0654(4)
H32 H 0.3841 0.4219 1.0296
H33 H 0.4153 0.4036 1.1217
C31 C 0.5052(4) 0.44291(17) 1.0812(4)
H34 H 0.5564 0.4328 1.1179
H35 H 0.5267 0.4507 1.0249
C32 C 0.3866(4) 0.48091(17) 1.1550(4)
H36 H 0.3422 0.4620 1.1493
C33 C 0.4558(4) 0.53360(16) 1.1889(4)
C34 C 0.4820(5) 0.56926(17) 1.2192(4)
H37 H 0.4424 0.5851 1.2473
C35 C 0.5692(5) 0.58100(19) 1.2067(5)
H38 H 0.5884 0.6052 1.2264
C36 C 0.6284(5) 0.5574(2) 1.1655(4)
H39 H 0.6869 0.5661 1.1592
C37 C 0.6037(4) 0.52179(18) 1.1336(4)
H40 H 0.6435 0.5062 1.1053
C38 C 0.5162(4) 0.51032(16) 1.1460(3)
C39 C 0.4271(4) 0.22018(17) 0.6373(4)
C40 C 0.4522(5) 0.1851(2) 0.6751(4)
H41 H 0.4115 0.1699 0.7032
C41 C 0.5411(6) 0.1740(3) 0.6686(5)
H42 H 0.5601 0.1506 0.6934
C42 C 0.6018(6) 0.1956(3) 0.6276(6)
H43 H 0.6606 0.1866 0.6245
C43 C 0.5777(6) 0.2305(3) 0.5908(6)
H44 H 0.6195 0.2455 0.5636
C44 C 0.4887(5) 0.2428(2) 0.5955(4)
C45 C 0.3566(5) 0.27116(18) 0.5882(4)
H45 H 0.3116 0.2893 0.5750
C46 C 0.4756(8) 0.3087(2) 0.5172(6)
H46 H 0.5284 0.3006 0.4879
H47 H 0.4298 0.3161 0.4710
C47 C 0.4981(9) 0.3399(2) 0.5647(9)
H48 H 0.5415 0.3326 0.6131
H49 H 0.4445 0.3494 0.5906
C48 C 0.5385(6) 0.3724(2) 0.5124(8)
H50 H 0.5715 0.3608 0.4663
H51 H 0.5827 0.3856 0.5524
C49 C 0.4754(6) 0.4034(2) 0.4680(7)
H52 H 0.5056 0.4154 0.4204
H53 H 0.4211 0.3910 0.4419
C50 C 0.4514(7) 0.4313(2) 0.5260(6)
H54 H 0.5064 0.4403 0.5585
H55 H 0.4149 0.4192 0.5687
C51 C 0.3727(5) 0.4724(2) 0.4048(4)
H56 H 0.3852 0.4566 0.3576
C52 C 0.3716(4) 0.49518(16) 0.5407(4)
C53 C 0.3830(5) 0.50274(18) 0.6302(4)
H57 H 0.4147 0.4861 0.6693
C54 C 0.3454(4) 0.53618(18) 0.6591(4)
H58 H 0.3520 0.5422 0.7192
C55 C 0.2978(4) 0.56111(17) 0.6011(4)
H59 H 0.2743 0.5837 0.6228
C56 C 0.2849(4) 0.55284(17) 0.5113(4)
H60 H 0.2513 0.5691 0.4727
C57 C 0.3233(4) 0.51976(17) 0.4808(4)
C58 C 0.1480(4) 0.23187(16) 0.4880(3)
C59 C 0.1891(4) 0.19839(18) 0.4635(4)
H61 H 0.2207 0.1828 0.5051
C60 C 0.1814(5) 0.1889(2) 0.3743(4)
H62 H 0.2078 0.1664 0.3560
C61 C 0.1354(5) 0.2121(2) 0.3116(5)
H63 H 0.1319 0.2046 0.2523
C62 C 0.0951(5) 0.2455(2) 0.3342(4)
H64 H 0.0651 0.2611 0.2916
C63 C 0.1008(4) 0.25517(17) 0.4232(4)
C64 C 0.0899(4) 0.27960(18) 0.5550(4)
H65 H 0.0730 0.2960 0.5995
C65 C 0.0152(6) 0.3179(2) 0.4273(5)
H66 H 0.0544 0.3313 0.3892
H67 H -0.0354 0.3078 0.3897
C66 C -0.0188(6) 0.3449(2) 0.4867(6)
H68 H 0.0314 0.3587 0.5170
H69 H -0.0503 0.3313 0.5312
C67 C -0.0846(5) 0.3741(2) 0.4380(6)
H70 H -0.1250 0.3598 0.3967
H71 H -0.1214 0.3852 0.4819
C68 C -0.0457(5) 0.4072(2) 0.3868(5)
H72 H 0.0020 0.3976 0.3523
H73 H -0.0928 0.4179 0.3460
C69 C -0.0090(6) 0.4376(2) 0.4469(5)
H74 H 0.0417 0.4273 0.4839
H75 H -0.0552 0.4452 0.4857
C70 C 0.1057(5) 0.47837(19) 0.3780(4)
H76 H 0.1532 0.4614 0.3917
C71 C -0.0300(5) 0.5031(2) 0.3668(4)
C72 C -0.1205(5) 0.5128(3) 0.3730(5)
H77 H -0.1605 0.4969 0.3999
C73 C -0.1472(5) 0.5482(3) 0.3360(5)
H78 H -0.2069 0.5559 0.3392
C74 C -0.0891(5) 0.5720(3) 0.2951(5)
H79 H -0.1107 0.5950 0.2702
C75 C 0.0008(5) 0.5623(2) 0.2905(4)
H80 H 0.0404 0.5785 0.2636
C76 C 0.0298(4) 0.52785(19) 0.3272(4)
O1 O 0.2501(5) 0.1615(2) 0.7663(4)
O2 O 0.1649(4) 0.16529(17) 0.6526(4)
O3 O 0.1812(6) 0.11130(16) 0.7159(4)
O4 O 0.1965(4) 0.58828(18) 1.2081(4)
O5 O 0.2841(5) 0.5892(2) 1.3223(4)
O6 O 0.2187(7) 0.64124(16) 1.2756(4)
Cd2_2 Cd 0.24507(3) 0.524006(13) 0.26540(3)
N12_2 N 0.3243(3) 0.50439(15) 1.3955(3)
N16_2 N 0.1153(4) 0.51065(15) 1.3347(3)
N19 N 0.2207(6) 0.4065(3) 1.2526(9)
O7 O 0.1635(8) 0.3916(4) 1.2799(9)
O8 O 0.2583(6) 0.4337(3) 1.2628(6)
O9 O 0.2276(8) 0.3972(4) 1.1708(8)
N20 N 0.2406(6) 0.3433(2) 0.7135(8)
O10 O 0.2325(7) 0.3534(3) 0.7951(7)
O11 O 0.2922(8) 0.3596(3) 0.6786(8)
O12 O 0.2071(5) 0.3140(2) 0.7002(5)
O13 O 0.2208(14) 0.4013(6) 1.4765(15)
O14 O 0.2318(12) 0.3479(5) 0.4951(11)
O15? O 0.241(2) 0.4009(9) 1.3364(15)
loop_
_geom_bond_atom_site_label_1
_geom_bond_atom_site_label_2
_geom_bond_site_symmetry_1
_geom_bond_site_symmetry_2
Cd1 N1 1_555 1_555
Cd2 N4 1_555 1_555
N1 C1 1_555 1_555
N2 C6 1_555 1_555
N3 C12 1_555 1_555
N4 C13 1_555 1_555
N5 Cd1 1_555 1_555
N6 C25 1_555 1_555
N7 C31 1_555 1_555
N8 Cd2 1_555 1_555
N9 Cd1 1_555 1_555
N10 C44 1_555 1_555
N11 C50 1_555 1_555
N12 C51 1_555 1_555
N13 Cd1 1_555 1_555
N14 C63 1_555 1_555
N15 C69 1_555 1_555
N16 C70 1_555 1_555
N17 O1 1_555 1_555
N18 O4 1_555 1_555
N19 O7 1_555 1_555
N20 O10 1_555 1_555
C1 C2 1_555 1_555
C2 H1 1_555 1_555
C3 C2 1_555 1_555
H2 C3 1_555 1_555
C4 C3 1_555 1_555
H3 C4 1_555 1_555
C5 C4 1_555 1_555
H4 C5 1_555 1_555
C6 C1 1_555 1_555
C7 N1 1_555 1_555
H5 C7 1_555 1_555
C8 N2 1_555 1_555
H6 C8 1_555 1_555
H7 C8 1_555 1_555
C9 C8 1_555 1_555
H8 C9 1_555 1_555
H9 C9 1_555 1_555
C10 C9 1_555 1_555
H10 C10 1_555 1_555
H11 C10 1_555 1_555
C11 C10 1_555 1_555
H12 C11 1_555 1_555
H13 C11 1_555 1_555
C12 C11 1_555 1_555
H14 C12 1_555 1_555
H15 C12 1_555 1_555
C13 N3 1_555 1_555
H16 C13 1_555 1_555
C14 N4 1_555 1_555
C15 C14 1_555 1_555
H17 C15 1_555 1_555
C16 C15 1_555 1_555
H18 C16 1_555 1_555
C17 C16 1_555 1_555
H19 C17 1_555 1_555
C18 C17 1_555 1_555
H20 C18 1_555 1_555
C19 N3 1_555 1_555
C20 N5 1_555 1_555
C21 C20 1_555 1_555
H21 C21 1_555 1_555
C22 C21 1_555 1_555
H22 C22 1_555 1_555
C23 C22 1_555 1_555
H23 C23 1_555 1_555
C24 C23 1_555 1_555
H24 C24 1_555 1_555
C25 C20 1_555 1_555
C26 N5 1_555 1_555
H25 C26 1_555 1_555
C27 N6 1_555 1_555
H26 C27 1_555 1_555
H27 C27 1_555 1_555
C28 C27 1_555 1_555
H28 C28 1_555 1_555
H29 C28 1_555 1_555
C29 C28 1_555 1_555
H30 C29 1_555 1_555
H31 C29 1_555 1_555
C30 C29 1_555 1_555
H32 C30 1_555 1_555
H33 C30 1_555 1_555
C31 C30 1_555 1_555
H34 C31 1_555 1_555
H35 C31 1_555 1_555
C32 N7 1_555 1_555
H36 C32 1_555 1_555
C33 N8 1_555 1_555
C34 C33 1_555 1_555
H37 C34 1_555 1_555
C35 C34 1_555 1_555
H38 C35 1_555 1_555
C36 C35 1_555 1_555
H39 C36 1_555 1_555
C37 C36 1_555 1_555
H40 C37 1_555 1_555
C38 N7 1_555 1_555
C39 N9 1_555 1_555
C40 C39 1_555 1_555
H41 C40 1_555 1_555
C41 C40 1_555 1_555
H42 C41 1_555 1_555
C42 C41 1_555 1_555
H43 C42 1_555 1_555
C43 C42 1_555 1_555
H44 C43 1_555 1_555
C44 C39 1_555 1_555
C45 N9 1_555 1_555
H45 C45 1_555 1_555
C46 N10 1_555 1_555
H46 C46 1_555 1_555
H47 C46 1_555 1_555
C47 C46 1_555 1_555
H48 C47 1_555 1_555
H49 C47 1_555 1_555
C48 C47 1_555 1_555
H50 C48 1_555 1_555
H51 C48 1_555 1_555
C49 C48 1_555 1_555
H52 C49 1_555 1_555
H53 C49 1_555 1_555
C50 C49 1_555 1_555
H54 C50 1_555 1_555
H55 C50 1_555 1_555
C51 N11 1_555 1_555
H56 C51 1_555 1_555
C52 N11 1_555 1_555
C53 C52 1_555 1_555
H57 C53 1_555 1_555
C54 C53 1_555 1_555
H58 C54 1_555 1_555
C55 C54 1_555 1_555
H59 C55 1_555 1_555
C56 C55 1_555 1_555
H60 C56 1_555 1_555
C57 N12 1_555 1_555
C58 N13 1_555 1_555
C59 C58 1_555 1_555
H61 C59 1_555 1_555
C60 C59 1_555 1_555
H62 C60 1_555 1_555
C61 C60 1_555 1_555
H63 C61 1_555 1_555
C62 C61 1_555 1_555
H64 C62 1_555 1_555
C63 C58 1_555 1_555
C64 N13 1_555 1_555
H65 C64 1_555 1_555
C65 N14 1_555 1_555
H66 C65 1_555 1_555
H67 C65 1_555 1_555
C66 C65 1_555 1_555
H68 C66 1_555 1_555
H69 C66 1_555 1_555
C67 C66 1_555 1_555
H70 C67 1_555 1_555
H71 C67 1_555 1_555
C68 C67 1_555 1_555
H72 C68 1_555 1_555
H73 C68 1_555 1_555
C69 C68 1_555 1_555
H74 C69 1_555 1_555
H75 C69 1_555 1_555
C70 N15 1_555 1_555
H76 C70 1_555 1_555
C71 N15 1_555 1_555
C72 C71 1_555 1_555
H77 C72 1_555 1_555
C73 C72 1_555 1_555
H78 C73 1_555 1_555
C74 C73 1_555 1_555
H79 C74 1_555 1_555
C75 C74 1_555 1_555
H80 C75 1_555 1_555
C76 N16 1_555 1_555
O1 Cd1 1_555 1_555
O2 Cd1 1_555 1_555
O3 N17 1_555 1_555
O4 Cd2 1_555 1_555
O5 Cd2 1_555 1_555
O6 N18 1_555 1_555
O8 N19 1_555 1_555
O9 N19 1_555 1_555
O11 N20 1_555 1_555
O12 N20 1_555 1_555
Cd2_2 N12 1_555 1_555
N12_2 Cd2 1_555 1_555
N16_2 Cd2 1_555 1_555
N2 C7 1_555 1_555
N6 C26 1_555 1_555
N8 C32 1_555 1_555
N10 C45 1_555 1_555
N14 C64 1_555 1_555
N16 Cd2_2 1_555 1_555
N17 O2 1_555 1_555
N18 O5 1_555 1_555
C5 C6 1_555 1_555
C14 C19 1_555 1_555
C18 C19 1_555 1_555
C24 C25 1_555 1_555
C33 C38 1_555 1_555
C37 C38 1_555 1_555
C43 C44 1_555 1_555
C52 C57 1_555 1_555
C56 C57 1_555 1_555
C62 C63 1_555 1_555
C71 C76 1_555 1_555
C75 C76 1_555 1_555

#END
