
#######################################################################
#
#                 Cambridge Crystallographic Data Centre
#                                CCDC 
#
#######################################################################
#
# If this CIF has been generated from an entry in the Cambridge 
# Structural Database, then it will include bibliographic, chemical, 
# crystal, experimental, refinement or atomic coordinate data resulting 
# from the CCDC's data processing and validation procedures.
#
#######################################################################

data_VUXKUV
_symmetry_cell_setting           triclinic
_symmetry_space_group_name_H-M   'P -1'
_symmetry_Int_Tables_number      2
_space_group_name_Hall           '-P 1'
loop_
_symmetry_equiv_pos_site_id
_symmetry_equiv_pos_as_xyz
1 x,y,z
2 -x,-y,-z
_cell_length_a                   13.1193(3)
_cell_length_b                   14.3639(4)
_cell_length_c                   20.4339(6)
_cell_angle_alpha                91.3369(19)
_cell_angle_beta                 93.682(2)
_cell_angle_gamma                110.8574(8)
_cell_volume                     3586.48
loop_
_atom_site_label
_atom_site_type_symbol
_atom_site_fract_x
_atom_site_fract_y
_atom_site_fract_z
Ag1 Ag 0.22554(2) 0.51032(2) 0.446171(13)
Ag2 Ag 0.08090(3) 0.54621(3) 0.929306(16)
S1 S 0.11203(8) 0.45864(7) 0.79598(4)
O1 O 0.1883(2) 0.5036(2) 0.85469(12)
O2 O 0.0292(2) 0.3646(2) 0.80910(12)
O3 O 0.0699(2) 0.5302(2) 0.76656(12)
N1 N 0.2890(2) 0.3255(2) 0.42339(14)
N2 N 0.1955(2) 0.3064(2) 0.50689(14)
C1 C 0.2345(3) 0.3704(3) 0.45963(17)
C2 C 0.2854(3) 0.2357(3) 0.44867(18)
H1 H 0.3178 0.1913 0.4322
C3 C 0.2261(3) 0.2247(3) 0.50155(17)
H2 H 0.2089 0.1705 0.5298
C4 C 0.3388(3) 0.3628(3) 0.36345(17)
C5 C 0.2703(3) 0.3468(3) 0.30551(18)
C6 C 0.3203(4) 0.3760(3) 0.24746(19)
H3 H 0.2756 0.3641 0.2074
C7 C 0.4322(4) 0.4216(3) 0.24580(19)
C8 C 0.4958(3) 0.4392(3) 0.3047(2)
H4 H 0.5726 0.4728 0.3045
C9 C 0.4511(3) 0.4093(3) 0.36464(19)
C10 C 0.1482(3) 0.2971(3) 0.3049(2)
H5 H 0.1303 0.2308 0.3226
H6 H 0.1156 0.2905 0.2597
H7 H 0.1190 0.3375 0.3320
C11 C 0.4814(4) 0.4474(4) 0.1811(2)
H8 H 0.4901 0.3885 0.1608
H9 H 0.5531 0.5010 0.1883
H10 H 0.4331 0.4695 0.1520
C12 C 0.5249(3) 0.4286(4) 0.4270(2)
H11 H 0.5491 0.4995 0.4408
H12 H 0.5887 0.4107 0.4193
H13 H 0.4847 0.3883 0.4615
C13 C 0.1278(3) 0.3199(3) 0.55844(17)
H14 H 0.0754 0.2538 0.5688
H15 H 0.0851 0.3602 0.5418
C14 C 0.1959(3) 0.3710(3) 0.62074(17)
H16 H 0.2463 0.4381 0.6108
H17 H 0.2408 0.3321 0.6365
C15 C 0.1253(3) 0.3810(3) 0.67462(17)
H18 H 0.0748 0.3139 0.6845
H19 H 0.0806 0.4201 0.6589
C16 C 0.1942(3) 0.4323(3) 0.73740(17)
H20 H 0.2516 0.4953 0.7266
H21 H 0.2308 0.3887 0.7566
S2 S 0.17631(10) 0.53642(9) 0.08434(5)
O4 O 0.0924(3) 0.4411(2) 0.09918(15)
O5 O 0.2725(3) 0.5241(3) 0.06620(17)
O6 O 0.1271(3) 0.5858(3) 0.03759(15)
N3 N 0.2329(3) 0.7275(2) 0.47352(14)
N4 N 0.1879(3) 0.6809(2) 0.37193(14)
C17 C 0.2158(3) 0.6490(3) 0.43023(17)
C18 C 0.2171(4) 0.8065(3) 0.44261(19)
H22 H 0.2248 0.8692 0.4625
C19 C 0.1887(4) 0.7773(3) 0.37883(19)
H23 H 0.1725 0.8154 0.3451
C20 C 0.2729(3) 0.7311(3) 0.54180(17)
C21 C 0.3824(3) 0.7879(3) 0.5593(2)
C22 C 0.4203(3) 0.7920(3) 0.6252(2)
H24 H 0.4942 0.8318 0.6384
C23 C 0.3528(3) 0.7393(3) 0.67190(18)
C24 C 0.2445(3) 0.6849(3) 0.65245(18)
H25 H 0.1977 0.6496 0.6843
C25 C 0.2014(3) 0.6799(3) 0.58752(18)
C26 C 0.4598(4) 0.8430(4) 0.5092(2)
H26 H 0.4664 0.7950 0.4764
H27 H 0.5319 0.8802 0.5314
H28 H 0.4309 0.8896 0.4873
C27 C 0.3984(4) 0.7442(3) 0.74258(19)
H29 H 0.3998 0.8058 0.7650
H30 H 0.4728 0.7435 0.7434
H31 H 0.3519 0.6866 0.7650
C28 C 0.0813(3) 0.6241(3) 0.5695(2)
H32 H 0.0457 0.6716 0.5579
H33 H 0.0476 0.5870 0.6070
H34 H 0.0724 0.5775 0.5320
C29 C 0.1670(3) 0.6239(3) 0.30873(18)
H35 H 0.1217 0.6485 0.2782
H36 H 0.1252 0.5528 0.3155
C30 C 0.2710(4) 0.6321(4) 0.2781(2)
H37 H 0.3178 0.6103 0.3093
H38 H 0.3113 0.7028 0.2694
C31 C 0.2492(4) 0.5687(4) 0.21338(19)
H39 H 0.3179 0.5604 0.2021
H40 H 0.1950 0.5016 0.2196
C32 C 0.2070(4) 0.6150(3) 0.15715(18)
H41 H 0.2628 0.6804 0.1490
H42 H 0.1402 0.6263 0.1690
Ag2A Ag -0.08090(3) 0.45379(3) 0.070694(16)
Ag2_2 Ag 0.08090(3) 0.54621(3) -0.070694(16)
O4A O -0.0924(3) 0.5589(2) 0.90082(15)
O6_2 O 0.1271(3) 0.5858(3) 1.03759(15)
Ag3 Ag 0.79458(2) 0.98659(2) 0.062638(13)
Ag4 Ag 0.88841(3) 0.96700(3) -0.423745(14)
S3 S 0.77074(8) 0.96818(8) -0.29490(4)
O7 O 0.6798(2) 0.9391(2) -0.34480(13)
O8 O 0.8635(2) 0.9424(2) -0.31630(12)
O9 O 0.8048(2) 1.0706(2) -0.27009(13)
N5 N 0.7897(3) 0.7739(2) 0.09017(14)
N6 N 0.8505(3) 0.8153(2) -0.00338(14)
C33 C 0.8129(3) 0.8497(3) 0.04863(18)
C34 C 0.8119(3) 0.6943(3) 0.06408(19)
H43 H 0.8027 0.6331 0.0841
C35 C 0.8489(3) 0.7198(3) 0.00518(19)
H44 H 0.8700 0.6800 -0.0249
C36 C 0.7408(3) 0.7738(3) 0.15184(17)
C37 C 0.8079(3) 0.8196(3) 0.20852(18)
C38 C 0.7578(3) 0.8169(3) 0.26698(18)
H45 H 0.8014 0.8478 0.3059
C39 C 0.6449(3) 0.7700(3) 0.26961(18)
C40 C 0.5817(3) 0.7260(3) 0.21196(19)
H46 H 0.5048 0.6943 0.2134
C41 C 0.6276(3) 0.7269(3) 0.15217(19)
C42 C 0.9299(3) 0.8674(3) 0.2066(2)
H47 H 0.9608 0.8158 0.1984
H48 H 0.9617 0.9033 0.2487
H49 H 0.9465 0.9143 0.1713
C43 C 0.5919(4) 0.7668(4) 0.3337(2)
H50 H 0.6487 0.7965 0.3694
H51 H 0.5502 0.6973 0.3426
H52 H 0.5426 0.8044 0.3304
C44 C 0.5577(4) 0.6783(3) 0.09000(19)
H53 H 0.5713 0.6177 0.0776
H54 H 0.5763 0.7249 0.0545
H55 H 0.4803 0.6610 0.0976
C45 C 0.8816(3) 0.8702(3) -0.06328(18)
H56 H 0.9357 0.8484 -0.0843
H57 H 0.9166 0.9424 -0.0512
C46 C 0.7829(3) 0.8535(3) -0.11221(18)
H58 H 0.7290 0.8762 -0.0917
H59 H 0.7474 0.7814 -0.1244
C47 C 0.8190(3) 0.9110(3) -0.17381(18)
H60 H 0.8517 0.9832 -0.1613
H61 H 0.8764 0.8909 -0.1923
C48 C 0.7264(3) 0.8940(3) -0.22642(17)
H62 H 0.6669 0.9104 -0.2076
H63 H 0.6967 0.8227 -0.2413
S4 S 0.87561(8) 1.03656(7) 0.43154(4)
O10 O 0.9139(2) 0.9579(2) 0.40870(12)
O11 O 0.7993(2) 1.0018(2) 0.48322(12)
O12 O 0.9653(2) 1.1294(2) 0.45007(13)
N7 N 0.7343(3) 1.1780(2) 0.04410(14)
N8 N 0.8244(3) 1.1849(2) 0.13644(14)
C49 C 0.7838(3) 1.1258(3) 0.08132(17)
C50 C 0.7429(3) 1.2665(3) 0.07696(18)
H64 H 0.7141 1.3147 0.0617
C51 C 0.7999(3) 1.2704(3) 0.13471(19)
H65 H 0.8196 1.3224 0.1680
C52 C 0.6810(3) 1.1470(3) -0.02122(17)
C53 C 0.5690(3) 1.1265(3) -0.03029(19)
C54 C 0.5198(3) 1.0987(3) -0.0941(2)
H66 H 0.4435 1.0848 -0.1017
C55 C 0.5791(4) 1.0909(3) -0.1467(2)
C56 C 0.6908(4) 1.1137(3) -0.13546(19)
H67 H 0.7320 1.1092 -0.1712
C57 C 0.7448(3) 1.1431(3) -0.07261(18)
C58 C 0.5016(3) 1.1344(3) 0.0256(2)
H68 H 0.5236 1.1053 0.0645
H69 H 0.4239 1.0982 0.0127
H70 H 0.5137 1.2047 0.0357
C59 C 0.5232(4) 1.0590(4) -0.2151(2)
H71 H 0.5781 1.0776 -0.2474
H72 H 0.4705 1.0922 -0.2239
H73 H 0.4848 0.9865 -0.2180
C60 C 0.8677(3) 1.1746(3) -0.06404(19)
H74 H 0.8974 1.2335 -0.0338
H75 H 0.8981 1.1907 -0.1067
H76 H 0.8874 1.1200 -0.0461
C61 C 0.8819(3) 1.1596(3) 0.19298(18)
H77 H 0.9402 1.2210 0.2121
H78 H 0.9173 1.1132 0.1781
C62 C 0.8061(3) 1.1117(3) 0.24562(17)
H79 H 0.7548 1.0452 0.2289
H80 H 0.7627 1.1532 0.2561
C63 C 0.8708(3) 1.1007(3) 0.30745(17)
H81 H 0.9257 1.1667 0.3221
H82 H 0.9106 1.0558 0.2972
C64 C 0.7979(3) 1.0589(3) 0.36320(17)
H83 H 0.7387 0.9957 0.3476
H84 H 0.7637 1.1069 0.3768
Ag4A Ag 1.11159(3) 1.03300(3) 0.423745(14)
Ag4_2 Ag 0.88841(3) 0.96700(3) 0.576255(14)
O10A O 1.0861(2) 1.0421(2) -0.40870(12)
O11_2 O 0.7993(2) 1.0018(2) -0.51678(12)
O13 O 0.3855(3) 0.5767(3) 0.94969(17)
H85 H 0.3427 0.5500 0.9919
H86 H 0.3286 0.5299 0.9114
loop_
_geom_bond_atom_site_label_1
_geom_bond_atom_site_label_2
_geom_bond_site_symmetry_1
_geom_bond_site_symmetry_2
Ag1 C1 1_555 1_555
Ag2 O1 1_555 1_555
S1 O1 1_555 1_555
O2 S1 1_555 1_555
O3 S1 1_555 1_555
N1 C1 1_555 1_555
N2 C1 1_555 1_555
C2 N1 1_555 1_555
H1 C2 1_555 1_555
C3 N2 1_555 1_555
H2 C3 1_555 1_555
C4 N1 1_555 1_555
C5 C4 1_555 1_555
C6 C5 1_555 1_555
H3 C6 1_555 1_555
C7 C6 1_555 1_555
C8 C7 1_555 1_555
H4 C8 1_555 1_555
C9 C4 1_555 1_555
C10 C5 1_555 1_555
H5 C10 1_555 1_555
H6 C10 1_555 1_555
H7 C10 1_555 1_555
C11 C7 1_555 1_555
H8 C11 1_555 1_555
H9 C11 1_555 1_555
H10 C11 1_555 1_555
C12 C9 1_555 1_555
H11 C12 1_555 1_555
H12 C12 1_555 1_555
H13 C12 1_555 1_555
C13 N2 1_555 1_555
H14 C13 1_555 1_555
H15 C13 1_555 1_555
C14 C13 1_555 1_555
H16 C14 1_555 1_555
H17 C14 1_555 1_555
C15 C14 1_555 1_555
H18 C15 1_555 1_555
H19 C15 1_555 1_555
C16 S1 1_555 1_555
H20 C16 1_555 1_555
H21 C16 1_555 1_555
S2 O4 1_555 1_555
O4 Ag2A 1_555 1_555
O5 S2 1_555 1_555
O6 S2 1_555 1_555
N3 C17 1_555 1_555
N4 C17 1_555 1_555
C17 Ag1 1_555 1_555
C18 N3 1_555 1_555
H22 C18 1_555 1_555
C19 N4 1_555 1_555
H23 C19 1_555 1_555
C20 N3 1_555 1_555
C21 C20 1_555 1_555
C22 C21 1_555 1_555
H24 C22 1_555 1_555
C23 C22 1_555 1_555
C24 C23 1_555 1_555
H25 C24 1_555 1_555
C25 C20 1_555 1_555
C26 C21 1_555 1_555
H26 C26 1_555 1_555
H27 C26 1_555 1_555
H28 C26 1_555 1_555
C27 C23 1_555 1_555
H29 C27 1_555 1_555
H30 C27 1_555 1_555
H31 C27 1_555 1_555
C28 C25 1_555 1_555
H32 C28 1_555 1_555
H33 C28 1_555 1_555
H34 C28 1_555 1_555
C29 N4 1_555 1_555
H35 C29 1_555 1_555
H36 C29 1_555 1_555
C30 C29 1_555 1_555
H37 C30 1_555 1_555
H38 C30 1_555 1_555
C31 C30 1_555 1_555
H39 C31 1_555 1_555
H40 C31 1_555 1_555
C32 S2 1_555 1_555
H41 C32 1_555 1_555
H42 C32 1_555 1_555
Ag3 C33 1_555 1_555
Ag4 O8 1_555 1_555
S3 O7 1_555 1_555
O8 S3 1_555 1_555
O9 S3 1_555 1_555
N5 C33 1_555 1_555
N6 C33 1_555 1_555
C34 N5 1_555 1_555
H43 C34 1_555 1_555
C35 N6 1_555 1_555
H44 C35 1_555 1_555
C36 N5 1_555 1_555
C37 C36 1_555 1_555
C38 C37 1_555 1_555
H45 C38 1_555 1_555
C39 C38 1_555 1_555
C40 C39 1_555 1_555
H46 C40 1_555 1_555
C41 C36 1_555 1_555
C42 C37 1_555 1_555
H47 C42 1_555 1_555
H48 C42 1_555 1_555
H49 C42 1_555 1_555
C43 C39 1_555 1_555
H50 C43 1_555 1_555
H51 C43 1_555 1_555
H52 C43 1_555 1_555
C44 C41 1_555 1_555
H53 C44 1_555 1_555
H54 C44 1_555 1_555
H55 C44 1_555 1_555
C45 N6 1_555 1_555
H56 C45 1_555 1_555
H57 C45 1_555 1_555
C46 C45 1_555 1_555
H58 C46 1_555 1_555
H59 C46 1_555 1_555
C47 C46 1_555 1_555
H60 C47 1_555 1_555
H61 C47 1_555 1_555
C48 S3 1_555 1_555
H62 C48 1_555 1_555
H63 C48 1_555 1_555
S4 O10 1_555 1_555
O10 Ag4A 1_555 1_555
O11 S4 1_555 1_555
O12 S4 1_555 1_555
N7 C49 1_555 1_555
N8 C49 1_555 1_555
C49 Ag3 1_555 1_555
C50 N7 1_555 1_555
H64 C50 1_555 1_555
C51 N8 1_555 1_555
H65 C51 1_555 1_555
C52 N7 1_555 1_555
C53 C52 1_555 1_555
C54 C53 1_555 1_555
H66 C54 1_555 1_555
C55 C54 1_555 1_555
C56 C55 1_555 1_555
H67 C56 1_555 1_555
C57 C52 1_555 1_555
C58 C53 1_555 1_555
H68 C58 1_555 1_555
H69 C58 1_555 1_555
H70 C58 1_555 1_555
C59 C55 1_555 1_555
H71 C59 1_555 1_555
H72 C59 1_555 1_555
H73 C59 1_555 1_555
C60 C57 1_555 1_555
H74 C60 1_555 1_555
H75 C60 1_555 1_555
H76 C60 1_555 1_555
C61 N8 1_555 1_555
H77 C61 1_555 1_555
H78 C61 1_555 1_555
C62 C61 1_555 1_555
H79 C62 1_555 1_555
H80 C62 1_555 1_555
C63 C62 1_555 1_555
H81 C63 1_555 1_555
H82 C63 1_555 1_555
C64 S4 1_555 1_555
H83 C64 1_555 1_555
H84 C64 1_555 1_555
O13 H85 1_555 1_555
H86 O13 1_555 1_555
Ag2_2 O6 1_555 1_555
O4A Ag2 1_555 1_555
O6_2 Ag2 1_555 1_555
Ag4_2 O11 1_555 1_555
O10A Ag4 1_555 1_555
O11_2 Ag4 1_555 1_555
C2 C3 1_555 1_555
C8 C9 1_555 1_555
C15 C16 1_555 1_555
C18 C19 1_555 1_555
C24 C25 1_555 1_555
C31 C32 1_555 1_555
C34 C35 1_555 1_555
C40 C41 1_555 1_555
C47 C48 1_555 1_555
C50 C51 1_555 1_555
C56 C57 1_555 1_555
C63 C64 1_555 1_555

#END
