
#######################################################################
#
#                 Cambridge Crystallographic Data Centre
#                                CCDC 
#
#######################################################################
#
# If this CIF has been generated from an entry in the Cambridge 
# Structural Database, then it will include bibliographic, chemical, 
# crystal, experimental, refinement or atomic coordinate data resulting 
# from the CCDC's data processing and validation procedures.
#
#######################################################################

data_VUXWER
_symmetry_cell_setting           monoclinic
_symmetry_space_group_name_H-M   'P 21/n'
_symmetry_Int_Tables_number      14
_space_group_name_Hall           '-P 2yn'
loop_
_symmetry_equiv_pos_site_id
_symmetry_equiv_pos_as_xyz
1 x,y,z
2 1/2-x,1/2+y,1/2-z
3 -x,-y,-z
4 1/2+x,1/2-y,1/2+z
_cell_length_a                   9.3042(10)
_cell_length_b                   12.7843(13)
_cell_length_c                   12.0319(12)
_cell_angle_alpha                90
_cell_angle_beta                 98.846(2)
_cell_angle_gamma                90
_cell_volume                     1414.14
loop_
_atom_site_label
_atom_site_type_symbol
_atom_site_fract_x
_atom_site_fract_y
_atom_site_fract_z
Mn1 Mn 0.0000 0.5000 1.0000
S1 S 0.41582(5) 0.54355(4) 1.15815(4)
O1 O 0.41810(11) 0.65992(9) 0.97480(9)
O2 O 0.12627(12) 0.40754(9) 1.13220(9)
H1 H 0.2136 0.4270 1.1534
H2 H 0.1149 0.3419 1.1240
N1 N 0.20594(14) 0.58593(11) 0.97954(10)
N2 N 0.19780(14) 0.64245(11) 0.87874(11)
N3 N 0.44455(14) 0.88480(11) 0.63068(11)
C1 C 0.33822(16) 0.59595(12) 1.03492(13)
C2 C 0.32362(16) 0.68381(12) 0.88091(13)
C3 C 0.36856(17) 0.75192(12) 0.79519(13)
C4 C 0.26530(18) 0.78608(14) 0.70734(15)
H5 H 0.1689 0.7650 0.7023
C5 C 0.30738(18) 0.85161(15) 0.62769(15)
H6 H 0.2373 0.8740 0.5689
C6 C 0.54245(17) 0.85224(14) 0.71629(15)
H7 H 0.6378 0.8755 0.7200
C7 C 0.51049(17) 0.78602(14) 0.79966(14)
H8 H 0.5826 0.7648 0.8575
Mn1A Mn 0.5000 1.0000 0.5000
Mn1A_2 Mn -0.5000 0.0000 1.5000
S1B S -0.41582(5) 0.45645(4) 0.84185(4)
O1B O -0.41810(11) 0.34008(9) 1.02520(9)
O2B O -0.12627(12) 0.59246(9) 0.86780(9)
H1B H -0.2136 0.5730 0.8466
H2B H -0.1149 0.6581 0.8760
N1B N -0.20594(14) 0.41407(11) 1.02046(10)
N2B N -0.19780(14) 0.35755(11) 1.12126(11)
N3B N -0.44455(14) 0.11520(11) 1.36932(11)
N3A N 0.05545(14) 0.38480(11) 0.86932(11)
N3C N -0.05545(14) 0.61520(11) 1.13068(11)
C1B C -0.33822(16) 0.40405(12) 0.96508(13)
C2B C -0.32362(16) 0.31619(12) 1.11909(13)
C3B C -0.36856(17) 0.24808(12) 1.20481(13)
C4B C -0.26530(18) 0.21392(14) 1.29266(15)
H5B H -0.1689 0.2350 1.2977
C5B C -0.30738(18) 0.14839(15) 1.37231(15)
H6B H -0.2373 0.1260 1.4311
C6B C -0.54245(17) 0.14776(14) 1.28371(15)
H7B H -0.6378 0.1245 1.2800
C7B C -0.51049(17) 0.21398(14) 1.20034(14)
H8B H -0.5826 0.2352 1.1425
O3 O 0.12108(15) 0.19618(11) 0.11827(14)
H3 H 0.0479 0.1780 0.0710
H4 H 0.1228 0.1734 0.1848
N4 N 0.1406(2) 0.90296(17) -0.00574(17)
C8 C 0.3878(2) 0.9151(2) 0.08144(18)
H9 H 0.4578 0.8957 0.1416
C9 C 0.2482(3) 0.8783(2) 0.0747(2)
H10 H 0.2280 0.8328 0.1307
C10 C 0.1762(3) 0.9684(2) -0.0829(2)
H11 H 0.1026 0.9894 -0.1398
C11 C 0.3139(3) 1.00750(19) -0.0850(2)
H12 H 0.3316 1.0516 -0.1429
C12 C 0.4247(2) 0.98072(15) -0.00070(15)
N4B N 0.8594(2) 1.09704(17) 0.00574(17)
C8B C 0.6122(2) 1.0849(2) -0.08144(18)
H9B H 0.5422 1.1043 -0.1416
C9B C 0.7518(3) 1.1217(2) -0.0747(2)
H10B H 0.7720 1.1672 -0.1307
C10B C 0.8238(3) 1.0316(2) 0.0829(2)
H11B H 0.8974 1.0106 0.1398
C11B C 0.6861(3) 0.99250(19) 0.0850(2)
H12B H 0.6684 0.9484 0.1429
C12B C 0.5753(2) 1.01928(15) 0.00070(15)
loop_
_geom_bond_atom_site_label_1
_geom_bond_atom_site_label_2
_geom_bond_site_symmetry_1
_geom_bond_site_symmetry_2
Mn1 O2 1_555 1_555
S1 C1 1_555 1_555
O1 C1 1_555 1_555
O2 H1 1_555 1_555
H2 O2 1_555 1_555
O3 H3 1_555 1_555
H4 O3 1_555 1_555
N1 Mn1 1_555 1_555
N2 N1 1_555 1_555
N3 C5 1_555 1_555
N4 C9 1_555 1_555
C1 N1 1_555 1_555
C2 O1 1_555 1_555
C3 C2 1_555 1_555
C4 C3 1_555 1_555
H5 C4 1_555 1_555
C5 C4 1_555 1_555
H6 C5 1_555 1_555
C6 N3 1_555 1_555
H7 C6 1_555 1_555
C7 C3 1_555 1_555
H8 C7 1_555 1_555
C8 H9 1_555 1_555
C9 C8 1_555 1_555
H10 C9 1_555 1_555
C10 N4 1_555 1_555
H11 C10 1_555 1_555
C11 C10 1_555 1_555
H12 C11 1_555 1_555
C12 C8 1_555 1_555
Mn1A N3 1_555 1_555
Mn1A_2 N3B 1_555 1_555
S1B C1B 1_555 1_555
O1B C1B 1_555 1_555
O2B Mn1 1_555 1_555
H1B O2B 1_555 1_555
H2B O2B 1_555 1_555
N1B Mn1 1_555 1_555
N2B N1B 1_555 1_555
N3B C5B 1_555 1_555
N3A Mn1 1_555 1_555
N3C Mn1 1_555 1_555
N4B C9B 1_555 1_555
C1B N1B 1_555 1_555
C2B O1B 1_555 1_555
C3B C2B 1_555 1_555
C4B C3B 1_555 1_555
H5B C4B 1_555 1_555
C5B C4B 1_555 1_555
H6B C5B 1_555 1_555
C6B N3B 1_555 1_555
H7B C6B 1_555 1_555
C7B C3B 1_555 1_555
H8B C7B 1_555 1_555
C8B H9B 1_555 1_555
C9B C8B 1_555 1_555
H10B C9B 1_555 1_555
C10B N4B 1_555 1_555
H11B C10B 1_555 1_555
C11B C10B 1_555 1_555
H12B C11B 1_555 1_555
C12B C12 1_555 1_555
N2 C2 1_555 1_555
C6 C7 1_555 1_555
C11 C12 1_555 1_555
N2B C2B 1_555 1_555
C6B C7B 1_555 1_555
C8B C12B 1_555 1_555
C11B C12B 1_555 1_555

#END
