
#######################################################################
#
#                 Cambridge Crystallographic Data Centre
#                                CCDC 
#
#######################################################################
#
# If this CIF has been generated from an entry in the Cambridge 
# Structural Database, then it will include bibliographic, chemical, 
# crystal, experimental, refinement or atomic coordinate data resulting 
# from the CCDC's data processing and validation procedures.
#
#######################################################################

data_VUYRAJ
_symmetry_cell_setting           monoclinic
_symmetry_space_group_name_H-M   'C 2/c'
_symmetry_Int_Tables_number      15
_space_group_name_Hall           '-C 2yn'
loop_
_symmetry_equiv_pos_site_id
_symmetry_equiv_pos_as_xyz
1 x,y,z
2 -x,y,1/2-z
3 1/2+x,1/2+y,z
4 1/2-x,1/2+y,1/2-z
5 -x,-y,-z
6 x,-y,1/2+z
7 1/2-x,1/2-y,-z
8 1/2+x,1/2-y,1/2+z
_cell_length_a                   14.088(3)
_cell_length_b                   13.780(3)
_cell_length_c                   10.744(2)
_cell_angle_alpha                90
_cell_angle_beta                 95.76(3)
_cell_angle_gamma                90
_cell_volume                     2075.23
loop_
_atom_site_label
_atom_site_type_symbol
_atom_site_fract_x
_atom_site_fract_y
_atom_site_fract_z
C1 C 0.88226(13) 0.85458(13) 0.30265(17)
H1 H 0.9299 0.8328 0.3623
C2 C 0.79425(13) 0.81078(13) 0.27656(17)
H2 H 0.7719 0.7555 0.3138
C3 C 0.74719(12) 0.86596(12) 0.18459(17)
H3 H 0.6857 0.8550 0.1472
C4 C 0.79018(13) 1.01784(13) 0.06773(19)
H4 H 0.8446 1.0209 0.0192
H5 H 0.7877 1.0785 0.1132
C5 C 0.70008(12) 1.00840(13) -0.02129(16)
C6 C 0.68292(12) 0.92829(13) -0.09799(17)
H6 H 0.7250 0.8761 -0.0910
C7 C 0.60321(12) 0.92531(13) -0.18549(16)
H7 H 0.5913 0.8701 -0.2345
C8 C 0.54112(11) 1.00366(12) -0.20065(15)
C9 C 0.55789(12) 1.08310(12) -0.12237(16)
H8 H 0.5164 1.1357 -0.1299
C10 C 0.63608(12) 1.08471(13) -0.03278(16)
H9 H 0.6456 1.1379 0.0203
N1 N 0.88943(9) 0.93271(10) 0.23026(13)
N2 N 0.80483(9) 0.93853(10) 0.15759(12)
N3 N 1.06552(11) 1.16224(10) 0.10426(14)
O1 O 1.00867(10) 1.09113(9) 0.08271(13)
O2 O 1.10427(11) 1.17141(11) 0.21293(14)
O3 O 1.08004(13) 1.21789(11) 0.02032(15)
Zn1 Zn 1.0000 1.027091(19) 0.2500
C1A C 0.11774(13) 0.85458(13) -0.80265(17)
H1A H 0.0701 0.8328 -0.8623
C2A C 0.20575(13) 0.81078(13) -0.77656(17)
H2A H 0.2281 0.7555 -0.8138
C3A C 0.25281(12) 0.86596(12) -0.68459(17)
H3A H 0.3143 0.8550 -0.6472
C4A C 0.20982(13) 1.01784(13) -0.56773(19)
H4A H 0.1554 1.0209 -0.5192
H5A H 0.2123 1.0785 -0.6132
C5A C 0.29992(12) 1.00840(13) -0.47871(16)
C6A C 0.31708(12) 0.92829(13) -0.40201(17)
H6A H 0.2750 0.8761 -0.4090
C7A C 0.39679(12) 0.92531(13) -0.31451(16)
H7A H 0.4087 0.8701 -0.2655
C8A C 0.45888(11) 1.00366(12) -0.29935(15)
C9A C 0.44211(12) 1.08310(12) -0.37763(16)
H8A H 0.4836 1.1357 -0.3701
C10A C 0.36392(12) 1.08471(13) -0.46722(16)
H9A H 0.3544 1.1379 -0.5203
N1A N 0.11057(9) 0.93271(10) -0.73026(13)
N1A_2 N 1.11057(9) 0.93271(10) 0.26974(13)
N2A N 0.19517(9) 0.93853(10) -0.65759(12)
N3A N 0.93448(11) 1.16224(10) 0.39574(14)
O1A O 0.99133(10) 1.09113(9) 0.41729(13)
O2A O 0.89573(11) 1.17141(11) 0.28707(14)
O3A O 0.91996(13) 1.21789(11) 0.47968(15)
Zn1_2 Zn 0.0000 1.027091(19) -0.7500
loop_
_geom_bond_atom_site_label_1
_geom_bond_atom_site_label_2
_geom_bond_site_symmetry_1
_geom_bond_site_symmetry_2
C1 H1 1_555 1_555
C2 C1 1_555 1_555
H2 C2 1_555 1_555
C3 C2 1_555 1_555
H3 C3 1_555 1_555
C4 H4 1_555 1_555
H5 C4 1_555 1_555
C5 C4 1_555 1_555
C6 C5 1_555 1_555
H6 C6 1_555 1_555
C7 C6 1_555 1_555
H7 C7 1_555 1_555
C8 C7 1_555 1_555
C9 C8 1_555 1_555
H8 C9 1_555 1_555
C10 C5 1_555 1_555
H9 C10 1_555 1_555
N1 C1 1_555 1_555
N2 C3 1_555 1_555
N3 O1 1_555 1_555
O1 Zn1 1_555 1_555
O2 N3 1_555 1_555
O3 N3 1_555 1_555
Zn1 N1 1_555 1_555
C1A H1A 1_555 1_555
C2A C1A 1_555 1_555
H2A C2A 1_555 1_555
C3A C2A 1_555 1_555
H3A C3A 1_555 1_555
C4A H4A 1_555 1_555
H5A C4A 1_555 1_555
C5A C4A 1_555 1_555
C6A C5A 1_555 1_555
H6A C6A 1_555 1_555
C7A C6A 1_555 1_555
H7A C7A 1_555 1_555
C8A C8 1_555 1_555
C9A C8A 1_555 1_555
H8A C9A 1_555 1_555
C10A C5A 1_555 1_555
H9A C10A 1_555 1_555
N1A C1A 1_555 1_555
N1A_2 Zn1 1_555 1_555
N2A C3A 1_555 1_555
N3A O1A 1_555 1_555
O1A Zn1 1_555 1_555
O2A Zn1 1_555 1_555
O3A N3A 1_555 1_555
Zn1_2 N1A 1_555 1_555
C4 N2 1_555 1_555
C9 C10 1_555 1_555
N1 N2 1_555 1_555
O2 Zn1 1_555 1_555
C4A N2A 1_555 1_555
C7A C8A 1_555 1_555
C9A C10A 1_555 1_555
N1A N2A 1_555 1_555
N3A O2A 1_555 1_555

#END
