
#######################################################################
#
#                 Cambridge Crystallographic Data Centre
#                                CCDC 
#
#######################################################################
#
# If this CIF has been generated from an entry in the Cambridge 
# Structural Database, then it will include bibliographic, chemical, 
# crystal, experimental, refinement or atomic coordinate data resulting 
# from the CCDC's data processing and validation procedures.
#
#######################################################################

data_VUYRUD
_symmetry_cell_setting           monoclinic
_symmetry_space_group_name_H-M   'P 21/c'
_symmetry_Int_Tables_number      14
_space_group_name_Hall           '-P 2ybc'
loop_
_symmetry_equiv_pos_site_id
_symmetry_equiv_pos_as_xyz
1 x,y,z
2 -x,1/2+y,1/2-z
3 -x,-y,-z
4 x,1/2-y,1/2+z
_cell_length_a                   7.9993(1)
_cell_length_b                   22.3923(2)
_cell_length_c                   9.7586(1)
_cell_angle_alpha                90
_cell_angle_beta                 112.633(1)
_cell_angle_gamma                90
_cell_volume                     1613.37
loop_
_atom_site_label
_atom_site_type_symbol
_atom_site_fract_x
_atom_site_fract_y
_atom_site_fract_z
Zn1 Zn 0.02705(3) 0.327653(8) 0.68480(2)
Zn2 Zn 0.0000 0.5000 1.0000
C1 C 0.5856(3) 0.35035(11) 0.8423(3)
H1 H 0.7015 0.3415 0.8476
C2 C 0.4334(3) 0.31994(10) 0.7673(3)
H2 H 0.4259 0.2860 0.7103
C3 C 0.3601(3) 0.39293(9) 0.8744(2)
H3 H 0.2943 0.4196 0.9073
C4 C -0.1719(3) 0.18968(8) 0.8571(2)
H4 H -0.2451 0.1565 0.8488
C5 C -0.1783(3) 0.22588(8) 0.7447(2)
H5 H -0.2566 0.2218 0.6459
C6 C 0.0280(3) 0.25794(8) 0.94487(19)
H6 H 0.1206 0.2810 1.0110
C7 C -0.1093(2) 0.44234(7) 0.70651(18)
C8 C -0.1796(2) 0.50314(7) 0.64085(19)
H7 H -0.2375 0.5001 0.5325
C9 C -0.3146(2) 0.52910(8) 0.70277(19)
H8 H -0.3937 0.4991 0.7198
C10 C -0.4169(3) 0.58168(8) 0.6063(2)
H9 H -0.5217 0.5927 0.6277
H10 H -0.4555 0.5726 0.5015
C11 C -0.2716(3) 0.63123(8) 0.6539(2)
H11 H -0.2465 0.6459 0.5702
H12 H -0.3078 0.6644 0.7003
C12 C -0.1090(3) 0.59822(8) 0.7649(2)
H13 H -0.0177 0.6248 0.8336
C13 C -0.0311(2) 0.55369(7) 0.68508(19)
H14 H -0.0282 0.5722 0.5950
C14 C 0.1603(2) 0.53377(8) 0.78551(19)
N1 N -0.0501(2) 0.26968(6) 0.80047(16)
N2 N -0.0394(2) 0.20990(6) 0.98546(16)
N3 N 0.2899(2) 0.34675(7) 0.78774(18)
N4 N 0.5372(2) 0.39636(8) 0.9085(2)
H15 H 0.6087 0.4232 0.9632
O1 O -0.19478(17) 0.55896(5) 0.83772(13)
O2 O -0.09952(19) 0.40346(5) 0.61684(13)
O3 O 0.2753(2) 0.52710(8) 0.73430(17)
O4 O -0.06572(18) 0.43224(5) 0.84191(13)
O5 O 0.19131(16) 0.52692(6) 0.92484(13)
Zn1B Zn -0.02705(3) 0.672347(8) 1.31520(2)
Zn1C Zn 0.02705(3) 0.172347(8) 1.18480(2)
Zn1C_2 Zn 0.02705(3) 0.172347(8) 0.18480(2)
C1B C -0.5856(3) 0.64965(11) 1.1577(3)
H1B H -0.7015 0.6585 1.1524
C2B C -0.4334(3) 0.68006(10) 1.2327(3)
H2B H -0.4259 0.7140 1.2897
C3B C -0.3601(3) 0.60707(9) 1.1256(2)
H3B H -0.2943 0.5804 1.0927
C4C C -0.1719(3) 0.31032(8) 0.3571(2)
H4C H -0.2451 0.3435 0.3488
C5C C -0.1783(3) 0.27412(8) 0.2447(2)
H5C H -0.2566 0.2782 0.1459
C6C C 0.0280(3) 0.24206(8) 0.44487(19)
H6C H 0.1206 0.2190 0.5110
C7B C 0.1093(2) 0.55766(7) 1.29349(18)
C8B C 0.1796(2) 0.49686(7) 1.35915(19)
H7B H 0.2375 0.4999 1.4675
C9B C 0.3146(2) 0.47090(8) 1.29723(19)
H8B H 0.3937 0.5009 1.2802
C10B C 0.4169(3) 0.41832(8) 1.3937(2)
H9B H 0.5217 0.4073 1.3723
H10B H 0.4555 0.4274 1.4985
C11B C 0.2716(3) 0.36877(8) 1.3461(2)
H11B H 0.2465 0.3541 1.4298
H12B H 0.3078 0.3356 1.2997
C12B C 0.1090(3) 0.40178(8) 1.2351(2)
H13B H 0.0177 0.3752 1.1664
C13B C 0.0311(2) 0.44631(7) 1.31492(19)
H14B H 0.0282 0.4278 1.4050
C14B C -0.1603(2) 0.46623(8) 1.21449(19)
N1C N -0.0501(2) 0.23032(6) 0.30047(16)
N1B N 0.0501(2) 0.73032(6) 1.19953(16)
N2C N -0.0394(2) 0.29010(6) 0.48546(16)
N2A N 0.0394(2) 0.70990(6) 1.51454(16)
N3B N -0.2899(2) 0.65325(7) 1.21226(18)
N4B N -0.5372(2) 0.60364(8) 1.0915(2)
H15B H -0.6087 0.5768 1.0368
O1B O 0.19478(17) 0.44104(5) 1.16228(13)
O2B O 0.09952(19) 0.59654(5) 1.38316(13)
O3B O -0.2753(2) 0.47290(8) 1.26570(17)
O4B O 0.06572(18) 0.56776(5) 1.15809(13)
O5B O -0.19131(16) 0.47308(6) 1.07516(13)
loop_
_geom_bond_atom_site_label_1
_geom_bond_atom_site_label_2
_geom_bond_site_symmetry_1
_geom_bond_site_symmetry_2
Zn1 N1 1_555 1_555
Zn2 O1 1_555 1_555
C1 H1 1_555 1_555
C2 C1 1_555 1_555
H2 C2 1_555 1_555
C3 H3 1_555 1_555
C4 H4 1_555 1_555
C5 C4 1_555 1_555
H5 C5 1_555 1_555
C6 H6 1_555 1_555
C7 C8 1_555 1_555
C8 H7 1_555 1_555
C9 C8 1_555 1_555
H8 C9 1_555 1_555
C10 C9 1_555 1_555
H9 C10 1_555 1_555
H10 C10 1_555 1_555
C11 C10 1_555 1_555
H11 C11 1_555 1_555
H12 C11 1_555 1_555
C12 C11 1_555 1_555
H13 C12 1_555 1_555
C13 C8 1_555 1_555
H14 C13 1_555 1_555
C14 C13 1_555 1_555
N1 C5 1_555 1_555
N2 C4 1_555 1_555
N3 Zn1 1_555 1_555
N4 C1 1_555 1_555
H15 N4 1_555 1_555
O1 C9 1_555 1_555
O2 Zn1 1_555 1_555
O3 C14 1_555 1_555
O4 Zn2 1_555 1_555
O5 Zn2 1_555 1_555
Zn1B N1B 1_555 1_555
Zn1C N2 1_555 1_555
Zn1C_2 N1C 1_555 1_555
C1B H1B 1_555 1_555
C2B C1B 1_555 1_555
H2B C2B 1_555 1_555
C3B H3B 1_555 1_555
C4C H4C 1_555 1_555
C5C C4C 1_555 1_555
H5C C5C 1_555 1_555
C6C H6C 1_555 1_555
C7B C8B 1_555 1_555
C8B H7B 1_555 1_555
C9B C8B 1_555 1_555
H8B C9B 1_555 1_555
C10B C9B 1_555 1_555
H9B C10B 1_555 1_555
H10B C10B 1_555 1_555
C11B C10B 1_555 1_555
H11B C11B 1_555 1_555
H12B C11B 1_555 1_555
C12B C11B 1_555 1_555
H13B C12B 1_555 1_555
C13B C8B 1_555 1_555
H14B C13B 1_555 1_555
C14B C13B 1_555 1_555
N1C C5C 1_555 1_555
N2C Zn1 1_555 1_555
N2A Zn1B 1_555 1_555
N3B Zn1B 1_555 1_555
N4B C1B 1_555 1_555
H15B N4B 1_555 1_555
O1B Zn2 1_555 1_555
O2B Zn1B 1_555 1_555
O3B C14B 1_555 1_555
O4B Zn2 1_555 1_555
O5B Zn2 1_555 1_555
C2 N3 1_555 1_555
C3 N3 1_555 1_555
C3 N4 1_555 1_555
C6 N1 1_555 1_555
C6 N2 1_555 1_555
C7 O2 1_555 1_555
C7 O4 1_555 1_555
C12 C13 1_555 1_555
C12 O1 1_555 1_555
C14 O5 1_555 1_555
C2B N3B 1_555 1_555
C3B N3B 1_555 1_555
C3B N4B 1_555 1_555
C4C N2C 1_555 1_555
C6C N1C 1_555 1_555
C6C N2C 1_555 1_555
C7B O2B 1_555 1_555
C7B O4B 1_555 1_555
C9B O1B 1_555 1_555
C12B C13B 1_555 1_555
C12B O1B 1_555 1_555
C14B O5B 1_555 1_555

#END
