
#######################################################################
#
#                 Cambridge Crystallographic Data Centre
#                                CCDC 
#
#######################################################################
#
# If this CIF has been generated from an entry in the Cambridge 
# Structural Database, then it will include bibliographic, chemical, 
# crystal, experimental, refinement or atomic coordinate data resulting 
# from the CCDC's data processing and validation procedures.
#
#######################################################################

data_VUYSOY
_symmetry_cell_setting           orthorhombic
_symmetry_space_group_name_H-M   'P n a 21'
_symmetry_Int_Tables_number      33
_space_group_name_Hall           'P 2c -2n'
loop_
_symmetry_equiv_pos_site_id
_symmetry_equiv_pos_as_xyz
1 x,y,z
2 -x,-y,1/2+z
3 1/2-x,1/2+y,1/2+z
4 1/2+x,1/2-y,z
_cell_length_a                   16.3320(10)
_cell_length_b                   20.6486(13)
_cell_length_c                   9.0164(5)
_cell_angle_alpha                90
_cell_angle_beta                 90
_cell_angle_gamma                90
_cell_volume                     3040.63
loop_
_atom_site_label
_atom_site_type_symbol
_atom_site_fract_x
_atom_site_fract_y
_atom_site_fract_z
C1 C 0.1939(6) 0.2253(5) -0.1655(9)
H1 H 0.1595 0.2635 -0.1675
H2 H 0.2486 0.2394 -0.1387
C2 C 0.1976(7) 0.1994(4) -0.3167(12)
H3 H 0.2186 0.2320 -0.3825
H4 H 0.1437 0.1870 -0.3480
H5 H 0.2330 0.1623 -0.3187
C3 C 0.2810(5) 0.1667(3) 0.1170(9)
H6 H 0.3098 0.2001 0.0621
H7 H 0.3203 0.1334 0.1430
C4 C 0.2457(6) 0.1971(4) 0.2633(9)
H8 H 0.2897 0.2147 0.3213
H9 H 0.2180 0.1642 0.3195
H10 H 0.2078 0.2309 0.2387
C5 C 0.0019(4) 0.1970(3) -0.1355(8)
C6 C -0.0291(4) 0.1410(3) -0.2045(10)
H11 H -0.0198 0.1007 -0.1613
C7 C -0.0742(5) 0.1446(4) -0.3376(11)
H12 H -0.0899 0.1069 -0.3860
C8 C -0.0947(7) 0.2036(5) -0.3960(12)
H13 H -0.1265 0.2066 -0.4813
C9 C -0.0663(8) 0.2597(4) -0.3229(14)
H14 H -0.0794 0.3003 -0.3606
C10 C -0.0200(6) 0.2550(4) -0.1982(11)
H15 H -0.0022 0.2930 -0.1531
C11 C 0.0544(4) 0.2647(3) 0.1204(7)
C12 C 0.1097(5) 0.3142(4) 0.1123(9)
H16 H 0.1579 0.3089 0.0586
C13 C 0.0939(5) 0.3735(4) 0.1854(11)
H17 H 0.1300 0.4080 0.1749
C14 C 0.0265(5) 0.3800(4) 0.2701(9)
H18 H 0.0169 0.4190 0.3188
C15 C -0.0285(5) 0.3300(4) 0.2860(10)
H19 H -0.0741 0.3345 0.3469
C16 C -0.0146(4) 0.2725(4) 0.2090(9)
H20 H -0.0521 0.2387 0.2170
C17 C 0.2553(4) 0.0102(3) 0.0819(8)
C18 C 0.2246(5) 0.0190(4) 0.2244(9)
H21 H 0.1968 0.0569 0.2486
C19 C 0.2358(5) -0.0291(4) 0.3306(8)
H22 H 0.2176 -0.0223 0.4271
C20 C 0.2745(5) -0.0883(4) 0.2934(11)
H23 H 0.2799 -0.1212 0.3632
C21 C 0.3038(5) -0.0959(4) 0.1521(11)
H24 H 0.3317 -0.1337 0.1282
C22 C 0.2933(5) -0.0499(4) 0.0457(9)
H25 H 0.3109 -0.0577 -0.0507
C23 C 0.3281(4) 0.0657(3) -0.1723(7)
C24 C 0.3247(4) 0.0570(3) -0.3268(9)
H26 H 0.2741 0.0544 -0.3739
C25 C 0.3958(5) 0.0522(4) -0.4093(9)
H27 H 0.3932 0.0445 -0.5109
C26 C 0.4710(5) 0.0589(4) -0.3396(12)
H28 H 0.5186 0.0585 -0.3963
C27 C 0.4768(4) 0.0661(3) -0.1870(10)
H29 H 0.5276 0.0679 -0.1405
C28 C 0.4062(5) 0.0705(3) -0.1067(9)
H30 H 0.4098 0.0770 -0.0049
N1 N 0.1635(4) 0.1824(3) -0.0447(6)
N2 N 0.2181(3) 0.1384(3) 0.0214(6)
N3 N 0.0603(4) 0.0379(3) 0.4801(6)
N4 N -0.1688(4) 0.1152(3) 0.1966(9)
O1 O 0.0241(3) 0.0220(2) 0.3584(5)
O2 O 0.0429(3) 0.0039(3) 0.5915(5)
O3 O 0.1085(4) 0.0816(3) 0.4847(6)
O4 O -0.1100(3) 0.1018(3) 0.2843(6)
O5 O -0.2198(3) 0.0715(3) 0.1727(8)
O6 O -0.1766(4) 0.1688(3) 0.1396(12)
P1 P 0.06706(11) 0.18681(8) 0.02502(19)
P2 P 0.23174(10) 0.06614(8) -0.06672(19)
Ag1 Ag 0.03083(3) 0.09899(3) 0.17410(7)
Ag2 Ag -0.12155(3) -0.02110(3) 0.30136(7)
O2A O -0.0429(3) -0.0039(3) 0.0915(5)
P2A P -0.23174(10) -0.06614(8) 0.43328(19)
Ag1A Ag -0.03083(3) -0.09899(3) 0.67410(7)
Ag2A Ag 0.12155(3) 0.02110(3) -0.19864(7)
Ag2A_2 Ag 0.12155(3) 0.02110(3) 0.80136(7)
loop_
_geom_bond_atom_site_label_1
_geom_bond_atom_site_label_2
_geom_bond_site_symmetry_1
_geom_bond_site_symmetry_2
C1 H1 1_555 1_555
H2 C1 1_555 1_555
C2 C1 1_555 1_555
H3 C2 1_555 1_555
H4 C2 1_555 1_555
H5 C2 1_555 1_555
C3 H6 1_555 1_555
H7 C3 1_555 1_555
C4 C3 1_555 1_555
H8 C4 1_555 1_555
H9 C4 1_555 1_555
H10 C4 1_555 1_555
C5 C6 1_555 1_555
C6 H11 1_555 1_555
C7 C6 1_555 1_555
H12 C7 1_555 1_555
C8 C7 1_555 1_555
H13 C8 1_555 1_555
C9 C8 1_555 1_555
H14 C9 1_555 1_555
C10 C5 1_555 1_555
H15 C10 1_555 1_555
C11 C12 1_555 1_555
C12 H16 1_555 1_555
C13 C12 1_555 1_555
H17 C13 1_555 1_555
C14 C13 1_555 1_555
H18 C14 1_555 1_555
C15 C14 1_555 1_555
H19 C15 1_555 1_555
C16 C11 1_555 1_555
H20 C16 1_555 1_555
C17 C18 1_555 1_555
C18 H21 1_555 1_555
C19 C18 1_555 1_555
H22 C19 1_555 1_555
C20 C19 1_555 1_555
H23 C20 1_555 1_555
C21 C20 1_555 1_555
H24 C21 1_555 1_555
C22 C17 1_555 1_555
H25 C22 1_555 1_555
C23 C24 1_555 1_555
C24 H26 1_555 1_555
C25 C24 1_555 1_555
H27 C25 1_555 1_555
C26 C25 1_555 1_555
H28 C26 1_555 1_555
C27 C26 1_555 1_555
H29 C27 1_555 1_555
C28 C23 1_555 1_555
H30 C28 1_555 1_555
N1 C1 1_555 1_555
N2 C3 1_555 1_555
N3 O1 1_555 1_555
N4 O4 1_555 1_555
O1 Ag1 1_555 1_555
O2 N3 1_555 1_555
O3 N3 1_555 1_555
O4 Ag1 1_555 1_555
O5 N4 1_555 1_555
O6 N4 1_555 1_555
P1 C5 1_555 1_555
P2 C17 1_555 1_555
Ag1 P1 1_555 1_555
Ag2 O1 1_555 1_555
O2A Ag1 1_555 1_555
P2A Ag2 1_555 1_555
Ag1A O2 1_555 1_555
Ag2A P2 1_555 1_555
Ag2A_2 O2 1_555 1_555
C9 C10 1_555 1_555
C11 P1 1_555 1_555
C15 C16 1_555 1_555
C21 C22 1_555 1_555
C23 P2 1_555 1_555
C27 C28 1_555 1_555
N1 N2 1_555 1_555
N1 P1 1_555 1_555
N2 P2 1_555 1_555
O4 Ag2 1_555 1_555
Ag2 O2A 1_555 1_555

#END
