
#######################################################################
#
#                 Cambridge Crystallographic Data Centre
#                                CCDC 
#
#######################################################################
#
# If this CIF has been generated from an entry in the Cambridge 
# Structural Database, then it will include bibliographic, chemical, 
# crystal, experimental, refinement or atomic coordinate data resulting 
# from the CCDC's data processing and validation procedures.
#
#######################################################################

data_VUYXET
_symmetry_cell_setting           triclinic
_symmetry_space_group_name_H-M   'P -1'
_symmetry_Int_Tables_number      2
_space_group_name_Hall           '-P 1'
loop_
_symmetry_equiv_pos_site_id
_symmetry_equiv_pos_as_xyz
1 x,y,z
2 -x,-y,-z
_cell_length_a                   9.7924(7)
_cell_length_b                   11.9788(8)
_cell_length_c                   13.3981(9)
_cell_angle_alpha                114.1380(10)
_cell_angle_beta                 103.4300(10)
_cell_angle_gamma                100.2950(10)
_cell_volume                     1327
loop_
_atom_site_label
_atom_site_type_symbol
_atom_site_fract_x
_atom_site_fract_y
_atom_site_fract_z
Cd1 Cd 0.60296(4) 0.51272(3) 0.66873(3)
F1 F 0.7760(5) 0.0511(4) 0.2452(3)
F2 F 0.7085(5) -0.1943(3) 0.4378(3)
N1 N 0.6840(5) 0.0195(4) 0.6257(4)
N2 N 0.7709(6) -0.1778(5) 0.2569(4)
N3 N 0.7833(7) -0.4099(5) 0.0884(5)
H1 H 0.8174 -0.4574 0.0387
O1 O 0.5949(5) 0.4247(4) 0.7917(3)
O2 O 0.6845(5) 0.3373(4) 0.8987(3)
O3 O 0.6497(5) 0.3294(3) 0.5729(3)
O4 O 0.8541(4) 0.6499(4) 0.8163(4)
O5 O 0.6668(4) 0.7265(4) 0.8070(4)
O6 O 0.3731(4) 0.5173(4) 0.6448(4)
O7 O 0.3361(4) 0.4186(4) 0.4565(3)
C1 C 0.6442(6) 0.3397(5) 0.8035(4)
C2 C 0.6576(6) 0.2330(5) 0.6991(4)
C3 C 0.6622(6) 0.2386(5) 0.5956(4)
C4 C 0.6902(6) 0.1292(5) 0.5103(4)
C5 C 0.7112(6) 0.1352(5) 0.4121(5)
H8 H 0.7033 0.2059 0.4011
C6 C 0.7428(7) 0.0384(6) 0.3335(5)
C7 C 0.7459(6) -0.0757(5) 0.3398(4)
C8 C 0.7193(6) -0.0807(5) 0.4357(4)
C9 C 0.6984(6) 0.0206(5) 0.5248(4)
C10 C 0.6692(6) 0.1241(5) 0.7075(4)
H9 H 0.6666 0.1227 0.7760
C11 C 0.7087(7) -0.0836(5) 0.6569(5)
H10 H 0.6522 -0.1672 0.5909
H11 H 0.6741 -0.0756 0.7210
C12 C 0.8695(7) -0.0743(6) 0.6911(6)
H12 H 0.9038 -0.0823 0.6276
H13 H 0.8822 -0.1420 0.7096
H14 H 0.9252 0.0075 0.7578
C13 C 0.7198(10) -0.2110(8) 0.1326(5)
H15 H 0.6421 -0.1739 0.1176
H16 H 0.8009 -0.1747 0.1139
C14 C 0.6651(10) -0.3490(8) 0.0593(6)
H17 H 0.6393 -0.3686 -0.0218
H18 H 0.5769 -0.3844 0.0712
C15 C 0.8317(11) -0.3763(7) 0.2137(7)
H19 H 0.7487 -0.4155 0.2302
C16 C 0.8786(9) -0.2384(7) 0.2861(6)
H20 H 0.9699 -0.2010 0.2789
H21 H 0.8990 -0.2196 0.3666
C17 C 0.9593(11) -0.4326(8) 0.2388(8)
H22 H 1.0309 -0.4109 0.2061
H23 H 0.9204 -0.5244 0.2044
H24 H 1.0053 -0.3972 0.3213
C18 C 0.8017(6) 0.7408(5) 0.8452(4)
C19 C 0.9057(6) 0.8760(5) 0.9286(4)
C20 C 0.8504(6) 0.9742(5) 0.9815(5)
H25 H 0.7497 0.9570 0.9688
C21 C 0.9451(6) 1.0990(5) 1.0537(5)
H26 H 0.9081 1.1652 1.0898
C22 C 0.2939(5) 0.4741(5) 0.5409(5)
C23 C 0.1424(5) 0.4880(5) 0.5192(4)
C24 C 0.1114(6) 0.5848(5) 0.6051(5)
H27 H 0.1860 0.6422 0.6753
C25 C -0.0300(5) 0.5958(5) 0.5861(5)
H28 H -0.0498 0.6596 0.6442
Cd1A Cd -0.60296(4) 0.48728(3) 0.33127(3)
Cd1_2 Cd -0.39704(4) 0.51272(3) 0.66873(3)
Cd1A_2 Cd 0.39704(4) 0.48728(3) 0.33127(3)
Cd1A_3 Cd 1.39704(4) 1.48728(3) 1.33127(3)
F1A F -0.7760(5) 0.9489(4) 0.7548(3)
F2A F -0.7085(5) 1.1943(3) 0.5622(3)
N1A N -0.6840(5) 0.9805(4) 0.3743(4)
N2A N -0.7709(6) 1.1778(5) 0.7431(4)
N3A N -0.7833(7) 1.4099(5) 0.9116(5)
H1A H -0.8174 1.4574 0.9613
O1A O -0.5949(5) 0.5753(4) 0.2083(3)
O2A O -0.6845(5) 0.6627(4) 0.1013(3)
O3A O -0.6497(5) 0.6706(3) 0.4271(3)
O4A O 1.1459(4) 1.3501(4) 1.1837(4)
O4A_2 O -0.8541(4) 0.3501(4) 0.1837(4)
O5A O 1.3332(4) 1.2735(4) 1.1930(4)
O5A_2 O -0.6668(4) 0.2735(4) 0.1930(4)
O6A O -0.3731(4) 0.4827(4) 0.3552(4)
O7A O -0.3361(4) 0.5814(4) 0.5435(3)
O7_2 O -0.6639(4) 0.4186(4) 0.4565(3)
O7A_2 O 0.6639(4) 0.5814(4) 0.5435(3)
C1A C -0.6442(6) 0.6603(5) 0.1965(4)
C2A C -0.6576(6) 0.7670(5) 0.3009(4)
C3A C -0.6622(6) 0.7614(5) 0.4044(4)
C4A C -0.6902(6) 0.8708(5) 0.4897(4)
C5A C -0.7112(6) 0.8648(5) 0.5879(5)
H8A H -0.7033 0.7941 0.5989
C6A C -0.7428(7) 0.9616(6) 0.6665(5)
C7A C -0.7459(6) 1.0757(5) 0.6602(4)
C8A C -0.7193(6) 1.0807(5) 0.5643(4)
C9A C -0.6984(6) 0.9794(5) 0.4752(4)
C10A C -0.6692(6) 0.8759(5) 0.2925(4)
H9A H -0.6666 0.8773 0.2240
C11A C -0.7087(7) 1.0836(5) 0.3431(5)
H10A H -0.6522 1.1672 0.4091
H11A H -0.6741 1.0756 0.2790
C12A C -0.8695(7) 1.0743(6) 0.3089(6)
H12A H -0.9038 1.0823 0.3724
H13A H -0.8822 1.1420 0.2904
H14A H -0.9252 0.9925 0.2422
C13A C -0.7198(10) 1.2110(8) 0.8674(5)
H15A H -0.6421 1.1739 0.8824
H16A H -0.8009 1.1747 0.8861
C14A C -0.6651(10) 1.3490(8) 0.9407(6)
H17A H -0.6393 1.3686 1.0218
H18A H -0.5769 1.3844 0.9288
C15A C -0.8317(11) 1.3763(7) 0.7863(7)
H19A H -0.7487 1.4155 0.7698
C16A C -0.8786(9) 1.2384(7) 0.7139(6)
H20A H -0.9699 1.2010 0.7211
H21A H -0.8990 1.2196 0.6334
C17A C -0.9593(11) 1.4326(8) 0.7612(8)
H22A H -1.0309 1.4109 0.7939
H23A H -0.9204 1.5244 0.7956
H24A H -1.0053 1.3972 0.6787
C18A C 1.1983(6) 1.2592(5) 1.1548(4)
C19A C 1.0943(6) 1.1240(5) 1.0714(4)
C20A C 1.1496(6) 1.0258(5) 1.0185(5)
H25A H 1.2503 1.0430 1.0312
C21A C 1.0549(6) 0.9010(5) 0.9463(5)
H26A H 1.0919 0.8348 0.9102
C22A C -0.2939(5) 0.5259(5) 0.4591(5)
C23A C -0.1424(5) 0.5120(5) 0.4808(4)
C24A C -0.1114(6) 0.4152(5) 0.3949(5)
H27A H -0.1860 0.3578 0.3247
C25A C 0.0300(5) 0.4042(5) 0.4139(5)
H28A H 0.0498 0.3404 0.3558
O8 O 1.0201(6) -0.3309(6) 0.0299(5)
H2 H 1.1082 -0.3335 0.0399
H3 H 0.9839 -0.3370 -0.0370
O9 O 0.4490(9) -0.1577(9) 0.8478(8)
H4 H 0.5155 -0.1934 0.8367
H5 H 0.4402 -0.1481 0.9123
O10 O 0.5836(11) 0.1231(9) 0.9489(9)
H6 H 0.6181 0.1897 0.9428
H7 H 0.5537 0.0588 0.8811
loop_
_geom_bond_atom_site_label_1
_geom_bond_atom_site_label_2
_geom_bond_site_symmetry_1
_geom_bond_site_symmetry_2
Cd1 O1 1_555 1_555
F1 C6 1_555 1_555
F2 C8 1_555 1_555
N1 C9 1_555 1_555
N2 C7 1_555 1_555
N3 H1 1_555 1_555
O1 C1 1_555 1_555
O2 C1 1_555 1_555
O3 Cd1 1_555 1_555
O4 Cd1 1_555 1_555
O5 Cd1 1_555 1_555
O6 Cd1 1_555 1_555
O7 C22 1_555 1_555
O8 H2 1_555 1_555
H3 O8 1_555 1_555
O9 H4 1_555 1_555
H5 O9 1_555 1_555
O10 H6 1_555 1_555
H7 O10 1_555 1_555
C1 C2 1_555 1_555
C2 C3 1_555 1_555
C3 O3 1_555 1_555
C4 C3 1_555 1_555
C5 C4 1_555 1_555
H8 C5 1_555 1_555
C6 C5 1_555 1_555
C7 C6 1_555 1_555
C8 C7 1_555 1_555
C9 C4 1_555 1_555
C10 N1 1_555 1_555
H9 C10 1_555 1_555
C11 N1 1_555 1_555
H10 C11 1_555 1_555
H11 C11 1_555 1_555
C12 C11 1_555 1_555
H12 C12 1_555 1_555
H13 C12 1_555 1_555
H14 C12 1_555 1_555
C13 N2 1_555 1_555
H15 C13 1_555 1_555
H16 C13 1_555 1_555
C14 N3 1_555 1_555
H17 C14 1_555 1_555
H18 C14 1_555 1_555
C15 N3 1_555 1_555
H19 C15 1_555 1_555
C16 N2 1_555 1_555
H20 C16 1_555 1_555
H21 C16 1_555 1_555
C17 C15 1_555 1_555
H22 C17 1_555 1_555
H23 C17 1_555 1_555
H24 C17 1_555 1_555
C18 O4 1_555 1_555
C19 C18 1_555 1_555
C20 C19 1_555 1_555
H25 C20 1_555 1_555
C21 C20 1_555 1_555
H26 C21 1_555 1_555
C22 O6 1_555 1_555
C23 C22 1_555 1_555
C24 C23 1_555 1_555
H27 C24 1_555 1_555
C25 C24 1_555 1_555
H28 C25 1_555 1_555
Cd1A O1A 1_555 1_555
Cd1_2 O7A 1_555 1_555
Cd1A_2 O7 1_555 1_555
Cd1A_3 O4A 1_555 1_555
F1A C6A 1_555 1_555
F2A C8A 1_555 1_555
N1A C9A 1_555 1_555
N2A C7A 1_555 1_555
N3A H1A 1_555 1_555
O1A C1A 1_555 1_555
O2A C1A 1_555 1_555
O3A Cd1A 1_555 1_555
O4A C18A 1_555 1_555
O4A_2 Cd1A 1_555 1_555
O5A Cd1A_3 1_555 1_555
O5A_2 Cd1A 1_555 1_555
O6A Cd1A 1_555 1_555
O7A C22A 1_555 1_555
O7_2 Cd1A 1_555 1_555
O7A_2 Cd1 1_555 1_555
C1A C2A 1_555 1_555
C2A C3A 1_555 1_555
C3A O3A 1_555 1_555
C4A C3A 1_555 1_555
C5A C4A 1_555 1_555
H8A C5A 1_555 1_555
C6A C5A 1_555 1_555
C7A C6A 1_555 1_555
C8A C7A 1_555 1_555
C9A C4A 1_555 1_555
C10A N1A 1_555 1_555
H9A C10A 1_555 1_555
C11A N1A 1_555 1_555
H10A C11A 1_555 1_555
H11A C11A 1_555 1_555
C12A C11A 1_555 1_555
H12A C12A 1_555 1_555
H13A C12A 1_555 1_555
H14A C12A 1_555 1_555
C13A N2A 1_555 1_555
H15A C13A 1_555 1_555
H16A C13A 1_555 1_555
C14A N3A 1_555 1_555
H17A C14A 1_555 1_555
H18A C14A 1_555 1_555
C15A N3A 1_555 1_555
H19A C15A 1_555 1_555
C16A N2A 1_555 1_555
H20A C16A 1_555 1_555
H21A C16A 1_555 1_555
C17A C15A 1_555 1_555
H22A C17A 1_555 1_555
H23A C17A 1_555 1_555
H24A C17A 1_555 1_555
C18A O5A 1_555 1_555
C19A C21 1_555 1_555
C20A C19A 1_555 1_555
H25A C20A 1_555 1_555
C21A C19 1_555 1_555
H26A C21A 1_555 1_555
C22A O6A 1_555 1_555
C23A C25 1_555 1_555
C24A C23A 1_555 1_555
H27A C24A 1_555 1_555
C25A C23 1_555 1_555
H28A C25A 1_555 1_555
O5 C18 1_555 1_555
C2 C10 1_555 1_555
C8 C9 1_555 1_555
C13 C14 1_555 1_555
C15 C16 1_555 1_555
C2A C10A 1_555 1_555
C8A C9A 1_555 1_555
C13A C14A 1_555 1_555
C15A C16A 1_555 1_555
C18A C19A 1_555 1_555
C20A C21A 1_555 1_555
C22A C23A 1_555 1_555
C24A C25A 1_555 1_555

#END
