
#######################################################################
#
#                 Cambridge Crystallographic Data Centre
#                                CCDC 
#
#######################################################################
#
# If this CIF has been generated from an entry in the Cambridge 
# Structural Database, then it will include bibliographic, chemical, 
# crystal, experimental, refinement or atomic coordinate data resulting 
# from the CCDC's data processing and validation procedures.
#
#######################################################################

data_VUYYIY
_symmetry_cell_setting           monoclinic
_symmetry_space_group_name_H-M   'C 2/c'
_symmetry_Int_Tables_number      15
_space_group_name_Hall           '-C 2yn'
loop_
_symmetry_equiv_pos_site_id
_symmetry_equiv_pos_as_xyz
1 x,y,z
2 -x,y,1/2-z
3 1/2+x,1/2+y,z
4 1/2-x,1/2+y,1/2-z
5 -x,-y,-z
6 x,-y,1/2+z
7 1/2-x,1/2-y,-z
8 1/2+x,1/2-y,1/2+z
_cell_length_a                   13.997(4)
_cell_length_b                   6.4987(18)
_cell_length_c                   21.440(6)
_cell_angle_alpha                90
_cell_angle_beta                 103.216(5)
_cell_angle_gamma                90
_cell_volume                     1898.58
loop_
_atom_site_label
_atom_site_type_symbol
_atom_site_fract_x
_atom_site_fract_y
_atom_site_fract_z
Co1 Co 0.248706(13) 0.18331(3) 0.244111(9)
O1 O 0.29927(8) 0.44228(16) 0.19444(5)
H1 H 0.267(2) 0.511(5) 0.1580(14)
H2 H 0.362(2) 0.441(5) 0.1918(16)
O2 O 0.10754(8) 0.26560(17) 0.20338(6)
O3 O 0.23831(8) -0.08151(15) 0.18689(5)
O4 O 0.10691(8) 0.60838(17) 0.21414(5)
O6 O 0.21765(10) -0.29849(19) 0.10436(6)
C1 C -0.03359(12) 0.4474(3) 0.14739(9)
H5 H -0.0732 0.5598 0.1610
H6 H -0.0683 0.3140 0.1495
C2 C 0.21658(11) -0.1222(2) 0.12565(7)
C3 C 0.1606(2) 0.0073(4) 0.01094(10)
H7 H 0.1450 0.1368 -0.0146
H8 H 0.1013 -0.0834 0.0029
H9 H 0.2157 -0.0660 -0.0021
C4 C -0.02401(19) 0.4860(5) 0.07897(11)
H10 H -0.0908 0.4899 0.0497
H11 H 0.0153 0.3728 0.0654
H12 H 0.0098 0.6206 0.0769
C5 C 0.06726(11) 0.4404(2) 0.19195(7)
C6 C 0.19027(18) 0.0594(3) 0.08116(9)
H13 H 0.1351 0.1358 0.0932
H14 H 0.2480 0.1544 0.0881
Co1C Co 0.251294(13) 0.68331(3) 0.255889(9)
Co1C_2 Co 0.251294(13) -0.31669(3) 0.255889(9)
O1C O 0.20073(8) -0.05772(16) 0.30556(5)
H1C H 0.233(2) 0.011(5) 0.3420(14)
H2C H 0.138(2) -0.059(5) 0.3082(16)
O3C O 0.26169(8) 0.41849(15) 0.31311(5)
O4C O 0.39309(8) 0.10838(17) 0.28586(5)
O5 O 0.47910(10) 0.4367(2) 0.17307(8)
H3 H 0.516(2) 0.328(5) 0.1935(15)
H4 H 0.517(2) 0.543(4) 0.1846(16)
loop_
_geom_bond_atom_site_label_1
_geom_bond_atom_site_label_2
_geom_bond_site_symmetry_1
_geom_bond_site_symmetry_2
Co1 O1 1_555 1_555
O1 H1 1_555 1_555
H2 O1 1_555 1_555
O2 Co1 1_555 1_555
O3 Co1 1_555 1_555
O4 C5 1_555 1_555
O5 H3 1_555 1_555
H4 O5 1_555 1_555
O6 C2 1_555 1_555
C1 H5 1_555 1_555
H6 C1 1_555 1_555
C2 O3 1_555 1_555
C3 H7 1_555 1_555
H8 C3 1_555 1_555
H9 C3 1_555 1_555
C4 C1 1_555 1_555
H10 C4 1_555 1_555
H11 C4 1_555 1_555
H12 C4 1_555 1_555
C5 O2 1_555 1_555
C6 C2 1_555 1_555
H13 C6 1_555 1_555
H14 C6 1_555 1_555
Co1C O1 1_555 1_555
Co1C_2 O3 1_555 1_555
O1C Co1 1_555 1_555
H1C O1C 1_555 1_555
H2C O1C 1_555 1_555
O3C Co1 1_555 1_555
O4C Co1 1_555 1_555
O4 Co1C 1_555 1_555
C1 C5 1_555 1_555
C3 C6 1_555 1_555
Co1C O3C 1_555 1_555
Co1C_2 O1C 1_555 1_555

#END
