
#######################################################################
#
#                 Cambridge Crystallographic Data Centre
#                                CCDC 
#
#######################################################################
#
# If this CIF has been generated from an entry in the Cambridge 
# Structural Database, then it will include bibliographic, chemical, 
# crystal, experimental, refinement or atomic coordinate data resulting 
# from the CCDC's data processing and validation procedures.
#
#######################################################################

data_VUZTUF
_symmetry_cell_setting           monoclinic
_symmetry_space_group_name_H-M   'C 2/c'
_symmetry_Int_Tables_number      15
_space_group_name_Hall           '-C 2yn'
loop_
_symmetry_equiv_pos_site_id
_symmetry_equiv_pos_as_xyz
1 x,y,z
2 -x,y,1/2-z
3 1/2+x,1/2+y,z
4 1/2-x,1/2+y,1/2-z
5 -x,-y,-z
6 x,-y,1/2+z
7 1/2-x,1/2-y,-z
8 1/2+x,1/2-y,1/2+z
_cell_length_a                   31.7020(10)
_cell_length_b                   5.8346(1)
_cell_length_c                   7.8581(2)
_cell_angle_alpha                90
_cell_angle_beta                 102.369(1)
_cell_angle_gamma                90
_cell_volume                     1419.76
loop_
_atom_site_label
_atom_site_type_symbol
_atom_site_fract_x
_atom_site_fract_y
_atom_site_fract_z
Sr1 Sr 0.5000 0.6126(5) 0.2500
P1 P 0.4383(2) 0.1677(7) 0.0837(5)
O1 O 0.4647(3) 0.3420(14) -0.0023(10)
O2 O 0.4459(3) 0.2600(11) 0.2769(9)
O3 O 0.4503(3) -0.0885(13) 0.0789(9)
C1 C 0.3802(2) 0.1991(16) -0.0006(16)
C2 C 0.3643(3) 0.3897(22) -0.1051(18)
C3 C 0.3198(3) 0.4268(19) -0.1683(18)
C4 C 0.2914(4) 0.2616(16) -0.1304(18)
C5 C 0.3053(3) 0.0282(17) -0.0254(18)
C6 C 0.3499(6) 0.0600(18) -0.0401(19)
O1A O 0.5353(3) 0.3420(14) 0.5023(10)
O1D O 0.5353(3) 0.6580(14) 0.0023(10)
O1E O 0.4647(3) 0.6580(14) 0.4977(10)
O2A O 0.5541(3) 0.2600(11) 0.2231(9)
O3A O 0.5497(3) 0.9115(13) 0.4211(9)
O3_2 O 0.4503(3) 0.9115(13) 0.0789(9)
Sr1D Sr 0.5000 0.3874(5) -0.2500
Sr1D_2 Sr 0.5000 0.3874(5) 0.7500
P1A P 0.5617(2) 0.1677(7) 0.4163(5)
Sr1_2 Sr 0.5000 -0.3874(5) 0.2500
O3A_2 O 0.5497(3) -0.0885(13) 0.4211(9)
C1A C 0.6198(2) 0.1991(16) 0.5006(16)
C2A C 0.6357(3) 0.3897(22) 0.6051(18)
C6A C 0.6501(6) 0.0600(18) 0.5401(19)
C3A C 0.6802(3) 0.4268(19) 0.6683(18)
C5A C 0.6947(3) 0.0282(17) 0.5254(18)
C4A C 0.7086(4) 0.2616(16) 0.6304(18)
loop_
_geom_bond_atom_site_label_1
_geom_bond_atom_site_label_2
_geom_bond_site_symmetry_1
_geom_bond_site_symmetry_2
Sr1 O1 1_555 1_555
P1 O1 1_555 1_555
O1 Sr1D 1_555 1_555
O2 Sr1 1_555 1_555
O3 P1 1_555 1_555
C1 P1 1_555 1_555
C2 C1 1_555 1_555
C3 C2 1_555 1_555
C4 C3 1_555 1_555
C5 C4 1_555 1_555
C6 C1 1_555 1_555
O1A Sr1 1_555 1_555
O1D Sr1 1_555 1_555
O1E Sr1 1_555 1_555
O2A Sr1 1_555 1_555
O3A Sr1 1_555 1_555
O3_2 Sr1 1_555 1_555
Sr1D O1D 1_555 1_555
Sr1D_2 O1A 1_555 1_555
P1A O1A 1_555 1_555
Sr1_2 O3 1_555 1_555
O3A_2 P1A 1_555 1_555
C1A P1A 1_555 1_555
C2A C1A 1_555 1_555
C6A C1A 1_555 1_555
C3A C2A 1_555 1_555
C5A C6A 1_555 1_555
C4A C3A 1_555 1_555
P1 O2 1_555 1_555
C5 C6 1_555 1_555
O1E Sr1D_2 1_555 1_555
O2A P1A 1_555 1_555
Sr1_2 O3A_2 1_555 1_555
C5A C4A 1_555 1_555

#END
