
#######################################################################
#
#                 Cambridge Crystallographic Data Centre
#                                CCDC 
#
#######################################################################
#
# If this CIF has been generated from an entry in the Cambridge 
# Structural Database, then it will include bibliographic, chemical, 
# crystal, experimental, refinement or atomic coordinate data resulting 
# from the CCDC's data processing and validation procedures.
#
#######################################################################

data_WABJIT01
_symmetry_cell_setting           monoclinic
_symmetry_space_group_name_H-M   'P 21/n'
_symmetry_Int_Tables_number      14
_space_group_name_Hall           '-P 2yn'
loop_
_symmetry_equiv_pos_site_id
_symmetry_equiv_pos_as_xyz
1 x,y,z
2 1/2+x,1/2-y,1/2+z
3 -x,-y,-z
4 1/2-x,1/2+y,1/2-z
_cell_length_a                   7.6025(15)
_cell_length_b                   15.213(3)
_cell_length_c                   14.739(3)
_cell_angle_alpha                90
_cell_angle_beta                 92.96(3)
_cell_angle_gamma                90
_cell_volume                     1702.39
loop_
_atom_site_label
_atom_site_type_symbol
_atom_site_fract_x
_atom_site_fract_y
_atom_site_fract_z
Co1 Co -0.5000 0.0000 0.0000
Fe1 Fe 0.02127(4) 0.07812(2) 0.22373(2)
O1 O -0.5036(3) 0.11795(14) -0.07475(15)
N1 N -0.1224(2) 0.10069(12) 0.32990(12)
N2 N -0.0031(2) -0.04466(13) 0.26670(12)
N3 N 0.3383(3) 0.10636(17) 0.36081(16)
N4 N -0.3074(2) 0.05050(14) 0.09418(13)
N5 N -1.2911(2) -0.04311(14) -0.08016(14)
N6 N 0.0243(3) 0.26677(16) 0.15264(16)
C1 C -0.1718(3) 0.18018(18) 0.35944(17)
C2 C -0.2522(3) 0.1912(2) 0.44036(19)
C3 C -0.2876(3) 0.1183(2) 0.49142(19)
C4 C -0.2384(4) 0.0366(2) 0.46189(18)
C5 C -0.1544(3) 0.02881(16) 0.38092(15)
C6 C -0.0895(3) -0.05364(16) 0.34419(15)
C7 C -0.1125(4) -0.1353(2) 0.3831(2)
C8 C -0.0487(4) -0.2089(2) 0.3419(2)
C9 C 0.0359(4) -0.2000(2) 0.2625(2)
C10 C 0.0568(3) -0.11667(18) 0.22601(19)
C11 C 0.2254(3) 0.09572(15) 0.30761(16)
C12 C -0.1859(3) 0.06167(15) 0.14190(15)
C13 C 0.1844(3) 0.05512(15) 0.13046(15)
C14 C 0.0280(3) 0.19638(17) 0.18131(16)
H1 H -0.354(3) 0.1260(17) 0.5566(18)
H2 H -0.053(3) -0.2697(19) 0.3679(18)
H3 H -0.150(3) 0.2281(18) 0.3183(18)
H4 H 0.072(4) -0.2491(19) 0.2289(19)
H5 H 0.111(3) -0.1095(17) 0.1713(19)
H6 H -0.259(3) -0.0117(19) 0.4909(19)
H7 H -0.289(3) 0.2505(19) 0.4545(19)
H8 H -0.420(4) 0.150(2) -0.064(2)
H11 H -0.169(4) -0.137(2) 0.433(2)
H12 H -0.511(5) 0.106(2) -0.131(3)
O1B O -0.4964(3) -0.11795(14) 0.07475(15)
H8B H -0.580(4) -0.150(2) 0.064(2)
H12B H -0.489(5) -0.106(2) 0.131(3)
N4B N -0.6926(2) -0.05050(14) -0.09418(13)
C12B C -0.8141(3) -0.06167(15) -0.14190(15)
N5_2 N -0.2911(2) -0.04311(14) -0.08016(14)
Fe1B Fe -1.02127(4) -0.07812(2) -0.22373(2)
N1B N -0.8776(2) -0.10069(12) -0.32990(12)
N2B N -0.9969(2) 0.04466(13) -0.26670(12)
C1B C -0.8282(3) -0.18018(18) -0.35944(17)
C2B C -0.7478(3) -0.1912(2) -0.44036(19)
C3B C -0.7124(3) -0.1183(2) -0.49142(19)
C4B C -0.7616(4) -0.0366(2) -0.46189(18)
C5B C -0.8456(3) -0.02881(16) -0.38092(15)
C6B C -0.9105(3) 0.05364(16) -0.34419(15)
C7B C -0.8875(4) 0.1353(2) -0.3831(2)
C8B C -0.9513(4) 0.2089(2) -0.3419(2)
C9B C -1.0359(4) 0.2000(2) -0.2625(2)
C10B C -1.0568(3) 0.11667(18) -0.22601(19)
H1B H -0.646(3) -0.1260(17) -0.5566(18)
H2B H -0.947(3) 0.2697(19) -0.3679(18)
H3B H -0.850(3) -0.2281(18) -0.3183(18)
H4B H -1.072(4) 0.2491(19) -0.2289(19)
H5B H -1.111(3) 0.1095(17) -0.1713(19)
H6B H -0.741(3) 0.0117(19) -0.4909(19)
H7B H -0.711(3) -0.2505(19) -0.4545(19)
H11B H -0.831(4) 0.137(2) -0.433(2)
N3B N -1.3383(3) -0.10636(17) -0.36081(16)
C11B C -1.2254(3) -0.09572(15) -0.30761(16)
N6B N -1.0243(3) -0.26677(16) -0.15264(16)
C14B C -1.0280(3) -0.19638(17) -0.18131(16)
C13B C -1.1844(3) -0.05512(15) -0.13046(15)
N5B N -0.7089(2) 0.04311(14) 0.08016(14)
N5B_2 N 0.2911(2) 0.04311(14) 0.08016(14)
Co1_2 Co -1.5000 0.0000 0.0000
Co1_3 Co 0.5000 0.0000 0.0000
O2 O -0.7977(4) -0.2232(2) 0.0394(2)
H10 H -0.822(5) -0.271(3) 0.066(3)
H13 H -0.853(5) -0.217(3) 0.007(3)
O3 O -0.5182(4) 0.0713(3) -0.25468(18)
H9 H -0.496(5) 0.112(3) -0.282(3)
H14 H -0.471(7) 0.038(4) -0.271(4)
loop_
_geom_bond_atom_site_label_1
_geom_bond_atom_site_label_2
_geom_bond_site_symmetry_1
_geom_bond_site_symmetry_2
Co1 O1 1_555 1_555
Fe1 N1 1_555 1_555
O1 H8 1_555 1_555
O2 H10 1_555 1_555
O3 H9 1_555 1_555
N1 C1 1_555 1_555
N2 Fe1 1_555 1_555
N3 C11 1_555 1_555
N4 Co1 1_555 1_555
N5 C13B 1_555 1_555
N6 C14 1_555 1_555
C1 C2 1_555 1_555
C2 C3 1_555 1_555
C3 C4 1_555 1_555
C4 C5 1_555 1_555
C5 N1 1_555 1_555
C6 N2 1_555 1_555
C7 C6 1_555 1_555
C8 C7 1_555 1_555
C9 C8 1_555 1_555
C10 N2 1_555 1_555
C11 Fe1 1_555 1_555
C12 Fe1 1_555 1_555
C13 Fe1 1_555 1_555
C14 Fe1 1_555 1_555
H1 C3 1_555 1_555
H2 C8 1_555 1_555
H3 C1 1_555 1_555
H4 C9 1_555 1_555
H5 C10 1_555 1_555
H6 C4 1_555 1_555
H7 C2 1_555 1_555
H11 C7 1_555 1_555
H12 O1 1_555 1_555
H13 O2 1_555 1_555
H14 O3 1_555 1_555
O1B Co1 1_555 1_555
H8B O1B 1_555 1_555
H12B O1B 1_555 1_555
N4B Co1 1_555 1_555
C12B N4B 1_555 1_555
N5_2 Co1 1_555 1_555
Fe1B C12B 1_555 1_555
N1B Fe1B 1_555 1_555
N2B Fe1B 1_555 1_555
C1B N1B 1_555 1_555
C2B C1B 1_555 1_555
C3B C2B 1_555 1_555
C4B C3B 1_555 1_555
C5B N1B 1_555 1_555
C6B N2B 1_555 1_555
C7B C6B 1_555 1_555
C8B C7B 1_555 1_555
C9B C8B 1_555 1_555
C10B N2B 1_555 1_555
H1B C3B 1_555 1_555
H2B C8B 1_555 1_555
H3B C1B 1_555 1_555
H4B C9B 1_555 1_555
H5B C10B 1_555 1_555
H6B C4B 1_555 1_555
H7B C2B 1_555 1_555
H11B C7B 1_555 1_555
N3B C11B 1_555 1_555
C11B Fe1B 1_555 1_555
N6B C14B 1_555 1_555
C14B Fe1B 1_555 1_555
C13B Fe1B 1_555 1_555
N5B Co1 1_555 1_555
N5B_2 C13 1_555 1_555
Co1_2 N5 1_555 1_555
Co1_3 N5B_2 1_555 1_555
N4 C12 1_555 1_555
C5 C6 1_555 1_555
C9 C10 1_555 1_555
C4B C5B 1_555 1_555
C5B C6B 1_555 1_555
C9B C10B 1_555 1_555

#END
