
#######################################################################
#
#                 Cambridge Crystallographic Data Centre
#                                CCDC 
#
#######################################################################
#
# If this CIF has been generated from an entry in the Cambridge 
# Structural Database, then it will include bibliographic, chemical, 
# crystal, experimental, refinement or atomic coordinate data resulting 
# from the CCDC's data processing and validation procedures.
#
#######################################################################

data_WABJIT
_symmetry_cell_setting           monoclinic
_symmetry_space_group_name_H-M   'P 21/n'
_symmetry_Int_Tables_number      14
_space_group_name_Hall           '-P 2yn'
loop_
_symmetry_equiv_pos_site_id
_symmetry_equiv_pos_as_xyz
1 x,y,z
2 1/2+x,1/2-y,1/2+z
3 -x,-y,-z
4 1/2-x,1/2+y,1/2-z
_cell_length_a                   7.592(1)
_cell_length_b                   15.190(7)
_cell_length_c                   14.714(3)
_cell_angle_alpha                90
_cell_angle_beta                 92.92(1)
_cell_angle_gamma                90
_cell_volume                     1694.65
loop_
_atom_site_label
_atom_site_type_symbol
_atom_site_fract_x
_atom_site_fract_y
_atom_site_fract_z
Fe1 Fe 0.47897(4) 0.57810(2) -0.22375(2)
Co1 Co 0.0000 0.5000 0.0000
N1 N 0.2088(3) 0.5432(2) -0.0799(1)
N2 N -0.1922(3) 0.5503(2) -0.0942(1)
N3 N 0.1609(4) 0.6066(2) -0.3605(2)
N4 N 0.4755(4) 0.7670(2) -0.1528(2)
N5 N 0.5031(3) 0.4553(1) -0.2665(1)
N6 N 0.6235(3) 0.6006(1) -0.3304(1)
O1 O -0.0036(3) 0.3818(1) -0.0746(1)
C1 C 0.3163(3) 0.5549(2) -0.1306(2)
C2 C -0.3136(3) 0.5616(2) -0.1417(2)
C3 C 0.2748(3) 0.5958(2) -0.3074(2)
C4 C 0.4727(3) 0.6967(2) -0.1813(2)
C5 C 0.4444(4) 0.3830(2) -0.2264(2)
C6 C 0.4649(4) 0.3001(2) -0.2618(3)
C7 C 0.5501(5) 0.2912(2) -0.3423(3)
C8 C 0.6132(4) 0.3647(2) -0.3833(2)
C9 C 0.5896(3) 0.4463(2) -0.3447(2)
C10 C 0.6544(3) 0.5288(2) -0.3810(2)
C11 C 0.7394(4) 0.5364(2) -0.4622(2)
C12 C 0.7873(4) 0.6184(3) -0.4913(2)
C13 C 0.7527(4) 0.6914(2) -0.4409(2)
C14 C 0.6716(4) 0.6800(2) -0.3594(2)
H1 H 0.0050 0.3992 -0.1381
H2 H 0.0879 0.3427 -0.0748
H7 H 0.3831 0.3893 -0.1682
H8 H 0.4191 0.2472 -0.2300
H9 H 0.5653 0.2317 -0.3701
H10 H 0.6761 0.3595 -0.4412
H11 H 0.7652 0.4828 -0.4988
H12 H 0.8479 0.6248 -0.5497
H13 H 0.7851 0.7516 -0.4623
H14 H 0.6483 0.7328 -0.3211
N1B N -0.2088(3) 0.4568(2) 0.0799(1)
C1B C -0.3163(3) 0.4451(2) 0.1306(2)
N2B N 0.1922(3) 0.4497(2) 0.0942(1)
C2B C 0.3136(3) 0.4384(2) 0.1417(2)
O1B O 0.0036(3) 0.6182(1) 0.0746(1)
H1B H -0.0050 0.6008 0.1381
H2B H -0.0879 0.6573 0.0748
Fe1B Fe -0.47897(4) 0.42190(2) 0.22375(2)
N5B N -0.5031(3) 0.5447(1) 0.2665(1)
N6B N -0.6235(3) 0.3994(1) 0.3304(1)
C5B C -0.4444(4) 0.6170(2) 0.2264(2)
C6B C -0.4649(4) 0.6999(2) 0.2618(3)
C7B C -0.5501(5) 0.7088(2) 0.3423(3)
C8B C -0.6132(4) 0.6353(2) 0.3833(2)
C9B C -0.5896(3) 0.5537(2) 0.3447(2)
C10B C -0.6544(3) 0.4712(2) 0.3810(2)
C11B C -0.7394(4) 0.4636(2) 0.4622(2)
C12B C -0.7873(4) 0.3816(3) 0.4913(2)
C13B C -0.7527(4) 0.3086(2) 0.4409(2)
C14B C -0.6716(4) 0.3200(2) 0.3594(2)
H7B H -0.3831 0.6107 0.1682
H8B H -0.4191 0.7528 0.2300
H9B H -0.5653 0.7683 0.3701
H10B H -0.6761 0.6405 0.4412
H11B H -0.7652 0.5172 0.4988
H12B H -0.8479 0.3752 0.5497
H13B H -0.7851 0.2484 0.4623
H14B H -0.6483 0.2672 0.3211
N3B N -0.1609(4) 0.3934(2) 0.3605(2)
C3B C -0.2748(3) 0.4042(2) 0.3074(2)
N4B N -0.4755(4) 0.2330(2) 0.1528(2)
C4B C -0.4727(3) 0.3033(2) 0.1813(2)
C2_2 C 0.6864(3) 0.5616(2) -0.1417(2)
Fe1_2 Fe -0.52103(4) 0.57810(2) -0.22375(2)
Fe1B_2 Fe 0.52103(4) 0.42190(2) 0.22375(2)
C2B_2 C -0.6864(3) 0.4384(2) 0.1417(2)
O2 O 0.2987(4) 0.2771(2) -0.0395(2)
H3 H 0.3246 0.2200 -0.0577
H4 H 0.3679 0.2721 0.0146
O3 O -0.0173(4) 0.4291(2) -0.2547(2)
H5 H 0.0092 0.3831 -0.2902
H6 H 0.0317 0.4896 -0.2765
loop_
_geom_bond_atom_site_label_1
_geom_bond_atom_site_label_2
_geom_bond_site_symmetry_1
_geom_bond_site_symmetry_2
Fe1 N5 1_555 1_555
Co1 N1 1_555 1_555
N1 C1 1_555 1_555
N2 Co1 1_555 1_555
N3 C3 1_555 1_555
N4 C4 1_555 1_555
N5 C5 1_555 1_555
N6 Fe1 1_555 1_555
O1 Co1 1_555 1_555
C1 Fe1 1_555 1_555
C2 N2 1_555 1_555
C3 Fe1 1_555 1_555
C4 Fe1 1_555 1_555
C5 C6 1_555 1_555
C6 C7 1_555 1_555
C7 C8 1_555 1_555
C8 C9 1_555 1_555
C9 N5 1_555 1_555
C10 N6 1_555 1_555
C11 C10 1_555 1_555
C12 C11 1_555 1_555
C13 C12 1_555 1_555
C14 N6 1_555 1_555
O2 H3 1_555 1_555
O3 H5 1_555 1_555
H1 O1 1_555 1_555
H2 O1 1_555 1_555
H4 O2 1_555 1_555
H6 O3 1_555 1_555
H7 C5 1_555 1_555
H8 C6 1_555 1_555
H9 C7 1_555 1_555
H10 C8 1_555 1_555
H11 C11 1_555 1_555
H12 C12 1_555 1_555
H13 C13 1_555 1_555
H14 C14 1_555 1_555
N1B Co1 1_555 1_555
C1B N1B 1_555 1_555
N2B Co1 1_555 1_555
C2B N2B 1_555 1_555
O1B Co1 1_555 1_555
H1B O1B 1_555 1_555
H2B O1B 1_555 1_555
Fe1B C1B 1_555 1_555
N5B Fe1B 1_555 1_555
N6B Fe1B 1_555 1_555
C5B N5B 1_555 1_555
C6B C5B 1_555 1_555
C7B C6B 1_555 1_555
C8B C7B 1_555 1_555
C9B N5B 1_555 1_555
C10B N6B 1_555 1_555
C11B C10B 1_555 1_555
C12B C11B 1_555 1_555
C13B C12B 1_555 1_555
C14B N6B 1_555 1_555
H7B C5B 1_555 1_555
H8B C6B 1_555 1_555
H9B C7B 1_555 1_555
H10B C8B 1_555 1_555
H11B C11B 1_555 1_555
H12B C12B 1_555 1_555
H13B C13B 1_555 1_555
H14B C14B 1_555 1_555
N3B C3B 1_555 1_555
C3B Fe1B 1_555 1_555
N4B C4B 1_555 1_555
C4B Fe1B 1_555 1_555
C2_2 Fe1 1_555 1_555
Fe1_2 C2 1_555 1_555
Fe1B_2 C2B 1_555 1_555
C2B_2 Fe1B 1_555 1_555
C9 C10 1_555 1_555
C13 C14 1_555 1_555
C8B C9B 1_555 1_555
C9B C10B 1_555 1_555
C13B C14B 1_555 1_555

#END
