
#######################################################################
#
#                 Cambridge Crystallographic Data Centre
#                                CCDC 
#
#######################################################################
#
# If this CIF has been generated from an entry in the Cambridge 
# Structural Database, then it will include bibliographic, chemical, 
# crystal, experimental, refinement or atomic coordinate data resulting 
# from the CCDC's data processing and validation procedures.
#
#######################################################################

data_WABLIW
_symmetry_cell_setting           triclinic
_symmetry_space_group_name_H-M   'P -1'
_symmetry_Int_Tables_number      2
_space_group_name_Hall           '-P 1'
loop_
_symmetry_equiv_pos_site_id
_symmetry_equiv_pos_as_xyz
1 x,y,z
2 -x,-y,-z
_cell_length_a                   9.0810(3)
_cell_length_b                   10.1939(3)
_cell_length_c                   14.4718(6)
_cell_angle_alpha                79.083(3)
_cell_angle_beta                 72.689(3)
_cell_angle_gamma                78.660(3)
_cell_volume                     1241.7
loop_
_atom_site_label
_atom_site_type_symbol
_atom_site_fract_x
_atom_site_fract_y
_atom_site_fract_z
Yb1 Yb -0.07729(2) 0.322580(18) 0.273930(13)
Pt1 Pt -0.564890(18) 0.553060(17) 0.115580(12)
C1 C -0.4039(5) 0.4697(5) 0.1840(3)
C2 C -0.7119(5) 0.4280(5) 0.1947(3)
C3 C -0.7298(5) 0.6376(5) 0.0495(3)
C4 C -0.4212(6) 0.6826(5) 0.0358(4)
C5 C -0.3199(6) 0.5675(5) 0.3990(4)
H1 H -0.3440 0.5923 0.3394
C6 C -0.4012(6) 0.6420(5) 0.4742(4)
H2 H -0.4765 0.7156 0.4647
C7 C -0.3683(7) 0.6050(6) 0.5630(4)
H3 H -0.4211 0.6526 0.6150
C8 C -0.2561(6) 0.4963(6) 0.5732(4)
H4 H -0.2333 0.4691 0.6332
C9 C -0.1765(5) 0.4269(5) 0.4960(3)
C10 C -0.0509(5) 0.3122(5) 0.5027(3)
C11 C 0.0075(6) 0.2769(6) 0.5838(4)
H5 H -0.0331 0.3254 0.6364
C12 C 0.1257(7) 0.1696(6) 0.5862(4)
H6 H 0.1661 0.1452 0.6401
C13 C 0.1823(6) 0.1004(5) 0.5088(4)
H7 H 0.2636 0.0288 0.5086
C14 C 0.1188(5) 0.1363(5) 0.4292(4)
C15 C 0.1671(5) 0.0578(5) 0.3465(4)
C16 C 0.2804(6) -0.0557(5) 0.3421(5)
H8 H 0.3341 -0.0816 0.3898
C17 C 0.3126(7) -0.1298(6) 0.2663(5)
H9 H 0.3889 -0.2057 0.2621
C18 C 0.2322(8) -0.0915(6) 0.1978(5)
H10 H 0.2510 -0.1417 0.1470
C19 C 0.1228(7) 0.0226(5) 0.2048(4)
H11 H 0.0689 0.0495 0.1572
N1 N -0.3090(5) 0.4234(4) 0.2230(3)
N2 N -0.8110(5) 0.3662(4) 0.2380(3)
N3 N -0.8330(5) 0.6804(5) 0.0164(3)
N4 N -0.3347(5) 0.7528(5) -0.0099(3)
N5 N -0.2083(4) 0.4617(4) 0.4075(3)
N6 N 0.0054(4) 0.2434(4) 0.4258(3)
N7 N 0.0901(4) 0.0980(4) 0.2785(3)
N8 N -0.3045(5) 0.1430(4) 0.3293(3)
O1 O -0.2124(4) 0.1492(4) 0.2458(3)
O2 O -0.2784(4) 0.2084(3) 0.3877(2)
O3 O -0.4140(5) 0.0800(4) 0.3544(3)
O4 O -0.0551(4) 0.5562(4) 0.2090(3)
H15 H -0.1332 0.6185 0.2186
H16 H 0.0057 0.5805 0.1537
O5 O 0.0152(4) 0.3114(4) 0.1110(2)
H17 H -0.0432 0.3053 0.0762
H18 H 0.1114 0.2996 0.0806
Yb1_2 Yb -1.07729(2) 0.322580(18) 0.273930(13)
N2_2 N 0.1890(5) 0.3662(4) 0.2380(3)
C20 C -0.2943(9) 0.9079(7) 0.1599(5)
C21 C -0.3568(11) 1.0314(7) 0.1050(6)
H12 H -0.2784 1.0895 0.0790
H13 H -0.4463 1.0770 0.1478
H14 H -0.3866 1.0085 0.0525
N9 N -0.2529(9) 0.8127(6) 0.2038(5)
loop_
_geom_bond_atom_site_label_1
_geom_bond_atom_site_label_2
_geom_bond_site_symmetry_1
_geom_bond_site_symmetry_2
Yb1 N1 1_555 1_555
Pt1 C1 1_555 1_555
C1 N1 1_555 1_555
C2 Pt1 1_555 1_555
C3 Pt1 1_555 1_555
C4 Pt1 1_555 1_555
C5 H1 1_555 1_555
C6 C5 1_555 1_555
H2 C6 1_555 1_555
C7 C6 1_555 1_555
H3 C7 1_555 1_555
C8 C7 1_555 1_555
H4 C8 1_555 1_555
C9 C8 1_555 1_555
C10 C9 1_555 1_555
C11 C10 1_555 1_555
H5 C11 1_555 1_555
C12 C11 1_555 1_555
H6 C12 1_555 1_555
C13 C12 1_555 1_555
H7 C13 1_555 1_555
C14 C13 1_555 1_555
C15 C14 1_555 1_555
C16 C15 1_555 1_555
H8 C16 1_555 1_555
C17 C16 1_555 1_555
H9 C17 1_555 1_555
C18 C17 1_555 1_555
H10 C18 1_555 1_555
C19 C18 1_555 1_555
H11 C19 1_555 1_555
C20 C21 1_555 1_555
C21 H12 1_555 1_555
H13 C21 1_555 1_555
H14 C21 1_555 1_555
N2 C2 1_555 1_555
N3 C3 1_555 1_555
N4 C4 1_555 1_555
N5 Yb1 1_555 1_555
N6 Yb1 1_555 1_555
N7 Yb1 1_555 1_555
N8 O1 1_555 1_555
N9 C20 1_555 1_555
O1 Yb1 1_555 1_555
O2 Yb1 1_555 1_555
O3 N8 1_555 1_555
O4 Yb1 1_555 1_555
H15 O4 1_555 1_555
H16 O4 1_555 1_555
O5 Yb1 1_555 1_555
H17 O5 1_555 1_555
H18 O5 1_555 1_555
Yb1_2 N2 1_555 1_555
N2_2 Yb1 1_555 1_555
C5 N5 1_555 1_555
C9 N5 1_555 1_555
C10 N6 1_555 1_555
C14 N6 1_555 1_555
C15 N7 1_555 1_555
C19 N7 1_555 1_555
N8 O2 1_555 1_555

#END
