
#######################################################################
#
#                 Cambridge Crystallographic Data Centre
#                                CCDC 
#
#######################################################################
#
# If this CIF has been generated from an entry in the Cambridge 
# Structural Database, then it will include bibliographic, chemical, 
# crystal, experimental, refinement or atomic coordinate data resulting 
# from the CCDC's data processing and validation procedures.
#
#######################################################################

data_WABMET
_symmetry_cell_setting           monoclinic
_symmetry_space_group_name_H-M   'P 21/a'
_symmetry_Int_Tables_number      14
_space_group_name_Hall           '-P 2yab'
loop_
_symmetry_equiv_pos_site_id
_symmetry_equiv_pos_as_xyz
1 x,y,z
2 1/2-x,1/2+y,-z
3 -x,-y,-z
4 1/2+x,1/2-y,z
_cell_length_a                   8.029(4)
_cell_length_b                   10.086(3)
_cell_length_c                   23.185(2)
_cell_angle_alpha                90
_cell_angle_beta                 94.07(2)
_cell_angle_gamma                90
_cell_volume                     1872.8
loop_
_atom_site_label
_atom_site_type_symbol
_atom_site_fract_x
_atom_site_fract_y
_atom_site_fract_z
S1 S -0.0779(1) 0.0421(1) -0.10155(5)
Na2 Na 0.0789(2) 0.3368(2) -0.02076(7)
O1 O 0.0385(4) 0.1276(3) -0.0680(1)
O2 O -0.2482(4) 0.0502(4) -0.0851(1)
O3 O -0.0191(4) -0.0955(3) -0.1021(1)
O4 O -0.0493(4) 0.1822(3) -0.3478(1)
O9 O 0.3228(4) 0.2256(3) 0.0309(1)
O10 O -0.1283(4) 0.4907(3) -0.0570(1)
C1 C -0.0772(5) 0.0938(4) -0.1741(2)
C2 C -0.1570(5) 0.0147(4) -0.2173(2)
C3 C -0.1464(5) 0.0453(4) -0.2747(2)
C4 C -0.0578(5) 0.1571(4) -0.2905(2)
C5 C 0.0189(5) 0.2380(4) -0.2472(2)
C6 C 0.0091(5) 0.2063(5) -0.1893(2)
H1 H -0.2372 -0.0608 -0.2085
H2 H -0.2098 -0.0152 -0.3111
H3 H 0.0988 0.3206 -0.2533
H4 H 0.0827 0.2664 -0.1660
H9 H 0.2971 0.1522 0.0521
H10 H 0.3661 0.2887 0.0558
H11 H -0.2374 0.4585 -0.0554
H12 H -0.1263 0.5312 -0.0919
H17 H 0.0004 0.2718 -0.3516
O2C O 0.2518(4) 0.4498(4) -0.0851(1)
O9C O -0.1772(4) 0.2744(3) 0.0309(1)
O10B O 0.1283(4) 0.5093(3) 0.0570(1)
Na2C Na -0.4211(2) 0.1632(2) -0.02076(7)
Na2C_2 Na 0.5789(2) 0.1632(2) -0.02076(7)
Na2B Na -0.0789(2) 0.6632(2) 0.02076(7)
H9C H -0.2029 0.3478 0.0521
H10C H -0.1339 0.2113 0.0558
H11B H 0.2374 0.5415 0.0554
H12B H 0.1263 0.4688 0.0919
O1B O -0.0385(4) 0.8724(3) 0.0680(1)
O2A O -0.2518(4) 0.5502(4) 0.0851(1)
O9B O -0.3228(4) 0.7744(3) -0.0309(1)
O9A O 0.1772(4) 0.7256(3) -0.0309(1)
S1B S 0.0779(1) 0.9579(1) 0.10155(5)
Na2A Na -0.5789(2) 0.8368(2) 0.02076(7)
H9B H -0.2971 0.8478 -0.0521
H10B H -0.3661 0.7113 -0.0558
Na2A_2 Na 0.4211(2) 0.8368(2) 0.02076(7)
H9A H 0.2029 0.6522 -0.0521
H10A H 0.1339 0.7887 -0.0558
O2B O 0.2482(4) 0.9498(4) 0.0851(1)
O3B O 0.0191(4) 1.0955(3) 0.1021(1)
C1B C 0.0772(5) 0.9062(4) 0.1741(2)
C2B C 0.1570(5) 0.9853(4) 0.2173(2)
C6B C -0.0091(5) 0.7937(5) 0.1893(2)
C3B C 0.1464(5) 0.9547(4) 0.2747(2)
H1B H 0.2372 1.0608 0.2085
C5B C -0.0189(5) 0.7620(4) 0.2472(2)
H4B H -0.0827 0.7336 0.1660
C4B C 0.0578(5) 0.8429(4) 0.2905(2)
H2B H 0.2098 1.0152 0.3111
H3B H -0.0988 0.6794 0.2533
O4B O 0.0493(4) 0.8178(3) 0.3478(1)
H17B H -0.0004 0.7282 0.3516
S2 S -0.0309(1) 0.5418(1) -0.39769(5)
Na1 Na 0.0918(2) 0.8378(2) -0.47744(7)
O5 O 0.0768(4) 0.6400(3) -0.4216(1)
O6 O -0.1956(4) 0.5308(3) -0.4279(1)
O7 O 0.0524(4) 0.4119(3) -0.3922(1)
O8 O -0.1218(4) 0.6718(3) -0.1540(1)
O11 O 0.0988(4) 1.0069(3) -0.5586(1)
O12 O 0.3131(4) 0.7264(3) -0.5283(1)
C7 C -0.0620(5) 0.5901(4) -0.3257(2)
C8 C -0.1672(5) 0.5133(4) -0.2942(2)
C9 C -0.1855(5) 0.5410(4) -0.2362(2)
C10 C -0.0987(5) 0.6478(4) -0.2109(2)
C11 C 0.0061(5) 0.7244(4) -0.2418(2)
C12 C 0.0246(5) 0.6965(4) -0.2998(2)
H5 H -0.2240 0.4415 -0.3151
H6 H -0.2522 0.4625 -0.2098
H7 H 0.0557 0.8121 -0.2195
H8 H 0.1138 0.7430 -0.3253
H13 H 0.2092 1.0353 -0.5716
H14 H 0.0802 0.9536 -0.5851
H15 H 0.2622 0.6502 -0.5407
H16 H 0.3350 0.7939 -0.5571
H18 H -0.1129 0.7599 -0.1399
O6C O 0.3044(4) 0.9692(3) -0.4279(1)
O11B O -0.0988(4) 0.9931(3) -0.4414(1)
O12C O -0.1869(4) 0.7736(3) -0.5283(1)
Na1C Na -0.4082(2) 0.6622(2) -0.47744(7)
Na1B Na -0.0918(2) 1.1622(2) -0.52256(7)
H13B H -0.2092 0.9647 -0.4284
H14B H -0.0802 1.0464 -0.4149
Na1C_2 Na 0.5918(2) 0.6622(2) -0.47744(7)
H15C H -0.2378 0.8498 -0.5407
H16C H -0.1650 0.7061 -0.5571
O5B O -0.0768(4) 1.3600(3) -0.5784(1)
O6A O -0.3044(4) 1.0308(3) -0.5721(1)
O12A O 0.1869(4) 1.2264(3) -0.4717(1)
O12B O -0.3131(4) 1.2736(3) -0.4717(1)
S2B S 0.0309(1) 1.4582(1) -0.60231(5)
Na1A Na 0.4082(2) 1.3378(2) -0.52256(7)
H15A H 0.2378 1.1502 -0.4593
H16A H 0.1650 1.2939 -0.4429
Na1A_2 Na -0.5918(2) 1.3378(2) -0.52256(7)
H15B H -0.2622 1.3498 -0.4593
H16B H -0.3350 1.2061 -0.4429
O6B O 0.1956(4) 1.4692(3) -0.5721(1)
O7B O -0.0524(4) 1.5881(3) -0.6078(1)
C7B C 0.0620(5) 1.4099(4) -0.6743(2)
C8B C 0.1672(5) 1.4867(4) -0.7058(2)
C12B C -0.0246(5) 1.3035(4) -0.7002(2)
C9B C 0.1855(5) 1.4590(4) -0.7638(2)
H5B H 0.2240 1.5585 -0.6849
C11B C -0.0061(5) 1.2756(4) -0.7582(2)
H8B H -0.1138 1.2570 -0.6747
C10B C 0.0987(5) 1.3522(4) -0.7891(2)
H6B H 0.2522 1.5375 -0.7902
H7B H -0.0557 1.1879 -0.7805
O8B O 0.1218(4) 1.3282(3) -0.8460(1)
H18B H 0.1129 1.2401 -0.8601
loop_
_geom_bond_atom_site_label_1
_geom_bond_atom_site_label_2
_geom_bond_site_symmetry_1
_geom_bond_site_symmetry_2
S1 O1 1_555 1_555
S2 O5 1_555 1_555
Na1 O5 1_555 1_555
Na2 O1 1_555 1_555
O2 S1 1_555 1_555
O3 S1 1_555 1_555
O4 C4 1_555 1_555
O6 S2 1_555 1_555
O7 S2 1_555 1_555
O8 C10 1_555 1_555
O9 Na2 1_555 1_555
O10 Na2 1_555 1_555
O11 Na1 1_555 1_555
O12 Na1 1_555 1_555
C1 S1 1_555 1_555
C2 C1 1_555 1_555
C3 C2 1_555 1_555
C4 C3 1_555 1_555
C5 C4 1_555 1_555
C6 C1 1_555 1_555
C7 S2 1_555 1_555
C8 C7 1_555 1_555
C9 C8 1_555 1_555
C10 C9 1_555 1_555
C11 C10 1_555 1_555
C12 C7 1_555 1_555
H1 C2 1_555 1_555
H2 C3 1_555 1_555
H3 C5 1_555 1_555
H4 C6 1_555 1_555
H5 C8 1_555 1_555
H6 C9 1_555 1_555
H7 C11 1_555 1_555
H8 C12 1_555 1_555
H9 O9 1_555 1_555
H10 O9 1_555 1_555
H11 O10 1_555 1_555
H12 O10 1_555 1_555
H13 O11 1_555 1_555
H14 O11 1_555 1_555
H15 O12 1_555 1_555
H16 O12 1_555 1_555
H17 O4 1_555 1_555
H18 O8 1_555 1_555
O2C Na2 1_555 1_555
O9C Na2 1_555 1_555
O10B Na2 1_555 1_555
Na2C O2 1_555 1_555
Na2C_2 O9 1_555 1_555
Na2B O10 1_555 1_555
H9C O9C 1_555 1_555
H10C O9C 1_555 1_555
H11B O10B 1_555 1_555
H12B O10B 1_555 1_555
O1B Na2B 1_555 1_555
O2A Na2B 1_555 1_555
O9B Na2B 1_555 1_555
O9A Na2B 1_555 1_555
S1B O1B 1_555 1_555
Na2A O9B 1_555 1_555
H9B O9B 1_555 1_555
H10B O9B 1_555 1_555
Na2A_2 O9A 1_555 1_555
H9A O9A 1_555 1_555
H10A O9A 1_555 1_555
O2B S1B 1_555 1_555
O3B S1B 1_555 1_555
C1B S1B 1_555 1_555
C2B C1B 1_555 1_555
C6B C1B 1_555 1_555
C3B C2B 1_555 1_555
H1B C2B 1_555 1_555
C5B C6B 1_555 1_555
H4B C6B 1_555 1_555
C4B C3B 1_555 1_555
H2B C3B 1_555 1_555
H3B C5B 1_555 1_555
O4B C4B 1_555 1_555
H17B O4B 1_555 1_555
O6C Na1 1_555 1_555
O11B Na1 1_555 1_555
O12C Na1 1_555 1_555
Na1C O6 1_555 1_555
Na1B O11 1_555 1_555
H13B O11B 1_555 1_555
H14B O11B 1_555 1_555
Na1C_2 O12 1_555 1_555
H15C O12C 1_555 1_555
H16C O12C 1_555 1_555
O5B Na1B 1_555 1_555
O6A Na1B 1_555 1_555
O12A Na1B 1_555 1_555
O12B Na1B 1_555 1_555
S2B O5B 1_555 1_555
Na1A O12A 1_555 1_555
H15A O12A 1_555 1_555
H16A O12A 1_555 1_555
Na1A_2 O12B 1_555 1_555
H15B O12B 1_555 1_555
H16B O12B 1_555 1_555
O6B S2B 1_555 1_555
O7B S2B 1_555 1_555
C7B S2B 1_555 1_555
C8B C7B 1_555 1_555
C12B C7B 1_555 1_555
C9B C8B 1_555 1_555
H5B C8B 1_555 1_555
C11B C12B 1_555 1_555
H8B C12B 1_555 1_555
C10B C9B 1_555 1_555
H6B C9B 1_555 1_555
H7B C11B 1_555 1_555
O8B C10B 1_555 1_555
H18B O8B 1_555 1_555
C5 C6 1_555 1_555
C11 C12 1_555 1_555
O9C Na2C 1_555 1_555
O10B Na2B 1_555 1_555
Na2A_2 O2B 1_555 1_555
C5B C4B 1_555 1_555
O11B Na1B 1_555 1_555
O12C Na1C 1_555 1_555
Na1A O6B 1_555 1_555
C11B C10B 1_555 1_555

#END
