
#######################################################################
#
#                 Cambridge Crystallographic Data Centre
#                                CCDC 
#
#######################################################################
#
# If this CIF has been generated from an entry in the Cambridge 
# Structural Database, then it will include bibliographic, chemical, 
# crystal, experimental, refinement or atomic coordinate data resulting 
# from the CCDC's data processing and validation procedures.
#
#######################################################################

data_WABZIK
_symmetry_cell_setting           triclinic
_symmetry_space_group_name_H-M   'P -1'
_symmetry_Int_Tables_number      2
_space_group_name_Hall           '-P 1'
loop_
_symmetry_equiv_pos_site_id
_symmetry_equiv_pos_as_xyz
1 x,y,z
2 -x,-y,-z
_cell_length_a                   8.6148(6)
_cell_length_b                   17.6879(10)
_cell_length_c                   21.0617(10)
_cell_angle_alpha                68.279(5)
_cell_angle_beta                 79.750(6)
_cell_angle_gamma                84.853(6)
_cell_volume                     2932.88
loop_
_atom_site_label
_atom_site_type_symbol
_atom_site_fract_x
_atom_site_fract_y
_atom_site_fract_z
Ni1 Ni 0.46067(7) 0.47947(3) 0.23768(3)
Ni2 Ni 1.00680(7) 1.00952(3) -0.23291(3)
Cl1 Cl 0.96838(15) 0.62945(8) 0.09662(6)
Cl2 Cl 1.09020(14) 0.74578(8) -0.05442(6)
Cl3 Cl 0.37903(14) 0.75032(8) 0.06981(6)
Cl4 Cl 0.50078(15) 0.86514(8) -0.08212(7)
Cl5 Cl -0.09677(17) 0.28669(9) 0.57970(7)
Cl6 Cl -0.01812(17) 0.37233(9) 0.41947(7)
Cl7 Cl 0.53227(16) 0.20335(9) 0.42029(7)
Cl8 Cl 0.46070(16) 0.12525(9) 0.58077(7)
O1 O 0.5606(4) 0.57825(18) 0.15395(15)
O2 O 0.6420(4) 0.66386(19) 0.19776(15)
O3 O 0.8211(4) 0.8264(2) -0.18049(15)
O4 O 0.9117(4) 0.91544(18) -0.14307(15)
O5 O 0.3744(4) 0.38525(19) 0.32687(15)
O6 O 0.2378(5) 0.2903(2) 0.31443(17)
O7 O 0.1898(6) 0.2018(3) 0.68576(19)
O8 O 0.0846(4) 0.09826(19) 0.67262(15)
O9 O 0.5614(4) 0.51792(19) 0.30244(15)
H1 H 0.5796 0.5685 0.2865
H2 H 0.5209 0.5157 0.3429
O10 O 0.9082(4) 0.95885(19) -0.29167(14)
H3 H 0.9501 0.9521 -0.3290
H4 H 0.8797 0.9152 -0.2582
N1 N 0.2520(4) 0.5464(2) 0.25037(18)
N2 N 0.3805(4) 0.4496(2) 0.16131(19)
N3 N 0.6745(5) 0.4151(2) 0.2259(2)
N4 N 1.2190(4) 0.9437(2) -0.24260(18)
N5 N 1.0898(4) 1.0484(2) -0.16117(18)
N6 N 0.7923(4) 1.0743(2) -0.2242(2)
C1 C 0.6234(5) 0.6413(3) 0.1504(2)
C2 C 0.6812(5) 0.6979(3) 0.0762(2)
C3 C 0.8388(5) 0.6961(3) 0.0472(2)
C4 C 0.8924(5) 0.7469(3) -0.0203(2)
C5 C 0.7873(5) 0.7984(3) -0.0605(2)
C6 C 0.6309(5) 0.7999(3) -0.0318(2)
C7 C 0.5768(5) 0.7495(3) 0.0357(2)
C8 C 0.8435(5) 0.8513(3) -0.1355(2)
C9 C 0.2918(6) 0.3232(3) 0.3475(2)
C10 C 0.2531(5) 0.2835(3) 0.4270(2)
C11 C 0.1141(5) 0.3009(3) 0.4637(2)
C12 C 0.0784(6) 0.2628(3) 0.5353(2)
C13 C 0.1823(6) 0.2071(3) 0.5724(2)
C14 C 0.3229(6) 0.1906(3) 0.5358(2)
C15 C 0.3575(5) 0.2272(3) 0.4644(2)
C16 C 0.1491(6) 0.1666(3) 0.6518(2)
C17 C 0.2511(6) 0.6220(3) 0.2509(2)
H5 H 0.3472 0.6460 0.2444
C18 C 0.1151(6) 0.6655(3) 0.2606(3)
H6 H 0.1195 0.7173 0.2617
C19 C -0.0277(6) 0.6317(4) 0.2687(3)
H7 H -0.1214 0.6609 0.2739
C20 C -0.0297(6) 0.5538(4) 0.2689(2)
H8 H -0.1247 0.5289 0.2752
C21 C 0.1122(6) 0.5135(3) 0.2595(2)
H9 H 0.1105 0.4610 0.2596
C22 C 0.3325(6) 0.5079(3) 0.1062(2)
H10 H 0.3188 0.5606 0.1063
C23 C 0.3022(7) 0.4942(4) 0.0492(3)
H11 H 0.2699 0.5368 0.0119
C24 C 0.3207(7) 0.4170(4) 0.0488(3)
H12 H 0.3032 0.4058 0.0109
C25 C 0.3658(7) 0.3562(4) 0.1059(3)
H13 H 0.3783 0.3030 0.1071
C26 C 0.3921(6) 0.3738(3) 0.1606(3)
H14 H 0.4194 0.3314 0.1993
C27 C 0.7585(7) 0.4243(3) 0.1639(3)
H15 H 0.7183 0.4584 0.1246
C28 C 0.9025(7) 0.3853(4) 0.1559(3)
H16 H 0.9589 0.3936 0.1120
C29 C 0.9613(7) 0.3341(3) 0.2137(4)
H17 H 1.0573 0.3063 0.2096
C30 C 0.8770(7) 0.3243(3) 0.2773(3)
H18 H 0.9152 0.2906 0.3172
C31 C 0.7346(6) 0.3652(3) 0.2813(3)
H19 H 0.6771 0.3577 0.3249
C32 C 1.2256(6) 0.8661(3) -0.2391(2)
H20 H 1.1318 0.8388 -0.2287
C33 C 1.3659(6) 0.8253(3) -0.2503(3)
H21 H 1.3650 0.7717 -0.2477
C34 C 1.5064(6) 0.8636(3) -0.2650(3)
H22 H 1.6020 0.8371 -0.2729
C35 C 1.5007(6) 0.9429(3) -0.2678(2)
H23 H 1.5935 0.9707 -0.2767
C36 C 1.3577(6) 0.9804(3) -0.2573(2)
H24 H 1.3565 1.0343 -0.2605
C37 C 1.1480(5) 0.9934(3) -0.1076(2)
H25 H 1.1647 0.9403 -0.1065
C38 C 1.1849(6) 1.0113(4) -0.0535(3)
H26 H 1.2262 0.9712 -0.0172
C39 C 1.1598(7) 1.0884(4) -0.0544(3)
H27 H 1.1815 1.1020 -0.0183
C40 C 1.1015(8) 1.1465(4) -0.1101(3)
H28 H 1.0834 1.2000 -0.1123
C41 C 1.0708(6) 1.1239(3) -0.1619(3)
H29 H 1.0345 1.1637 -0.1998
C42 C 0.7303(6) 1.1214(3) -0.2808(3)
H30 H 0.7840 1.1244 -0.3240
C43 C 0.5918(7) 1.1651(4) -0.2775(3)
H31 H 0.5534 1.1974 -0.3179
C44 C 0.5100(8) 1.1609(4) -0.2142(4)
H32 H 0.4161 1.1906 -0.2110
C45 C 0.5690(7) 1.1123(4) -0.1558(4)
H33 H 0.5155 1.1077 -0.1122
C46 C 0.7102(7) 1.0702(3) -0.1632(3)
H34 H 0.7500 1.0372 -0.1234
Ni2_2 Ni 0.00680(7) 0.00952(3) 0.76709(3)
O8_2 O 1.0846(4) 1.09826(19) -0.32738(15)
N7 N 0.4136(7) 0.4726(3) 0.4346(2)
C47 C 0.2758(9) 0.4882(4) 0.4682(4)
H35 H 0.2122 0.5311 0.4446
C48 C 0.2239(11) 0.4431(6) 0.5367(5)
H36 H 0.1276 0.4558 0.5591
C49 C 0.3167(14) 0.3790(6) 0.5716(4)
H37 H 0.2835 0.3471 0.6176
C50 C 0.4554(11) 0.3634(4) 0.5381(4)
H38 H 0.5208 0.3208 0.5606
C51 C 0.4999(9) 0.4109(4) 0.4702(3)
H39 H 0.5968 0.3992 0.4477
N8 N -0.1032(6) 0.0804(3) 0.3961(2)
C52 C -0.0476(7) 0.1167(4) 0.4325(3)
H40 H 0.0274 0.1565 0.4096
C53 C -0.0963(9) 0.0979(4) 0.5028(4)
H41 H -0.0547 0.1244 0.5265
C54 C -0.2085(8) 0.0388(5) 0.5370(3)
H42 H -0.2405 0.0231 0.5845
C55 C -0.2708(7) 0.0041(4) 0.4994(3)
H43 H -0.3497 -0.0339 0.5205
C56 C -0.2150(7) 0.0263(4) 0.4302(3)
H44 H -0.2581 0.0019 0.4053
loop_
_geom_bond_atom_site_label_1
_geom_bond_atom_site_label_2
_geom_bond_site_symmetry_1
_geom_bond_site_symmetry_2
Ni1 O1 1_555 1_555
Ni2 O4 1_555 1_555
Cl1 C3 1_555 1_555
Cl2 C4 1_555 1_555
Cl3 C7 1_555 1_555
Cl4 C6 1_555 1_555
Cl5 C12 1_555 1_555
Cl6 C11 1_555 1_555
Cl7 C15 1_555 1_555
Cl8 C14 1_555 1_555
O1 C1 1_555 1_555
O2 C1 1_555 1_555
O3 C8 1_555 1_555
O4 C8 1_555 1_555
O5 Ni1 1_555 1_555
O6 C9 1_555 1_555
O7 C16 1_555 1_555
O8 C16 1_555 1_555
O9 Ni1 1_555 1_555
H1 O9 1_555 1_555
H2 O9 1_555 1_555
O10 Ni2 1_555 1_555
H3 O10 1_555 1_555
H4 O10 1_555 1_555
N1 Ni1 1_555 1_555
N2 Ni1 1_555 1_555
N3 Ni1 1_555 1_555
N4 Ni2 1_555 1_555
N5 Ni2 1_555 1_555
N6 Ni2 1_555 1_555
N7 C47 1_555 1_555
N8 C52 1_555 1_555
C1 C2 1_555 1_555
C2 C3 1_555 1_555
C3 C4 1_555 1_555
C4 C5 1_555 1_555
C5 C6 1_555 1_555
C6 C7 1_555 1_555
C7 C2 1_555 1_555
C8 C5 1_555 1_555
C9 O5 1_555 1_555
C10 C9 1_555 1_555
C11 C10 1_555 1_555
C12 C11 1_555 1_555
C13 C12 1_555 1_555
C14 C13 1_555 1_555
C15 C10 1_555 1_555
C16 C13 1_555 1_555
C17 N1 1_555 1_555
H5 C17 1_555 1_555
C18 C17 1_555 1_555
H6 C18 1_555 1_555
C19 C18 1_555 1_555
H7 C19 1_555 1_555
C20 C19 1_555 1_555
H8 C20 1_555 1_555
C21 N1 1_555 1_555
H9 C21 1_555 1_555
C22 N2 1_555 1_555
H10 C22 1_555 1_555
C23 C22 1_555 1_555
H11 C23 1_555 1_555
C24 C23 1_555 1_555
H12 C24 1_555 1_555
C25 C24 1_555 1_555
H13 C25 1_555 1_555
C26 N2 1_555 1_555
H14 C26 1_555 1_555
C27 N3 1_555 1_555
H15 C27 1_555 1_555
C28 C27 1_555 1_555
H16 C28 1_555 1_555
C29 C28 1_555 1_555
H17 C29 1_555 1_555
C30 C29 1_555 1_555
H18 C30 1_555 1_555
C31 N3 1_555 1_555
H19 C31 1_555 1_555
C32 N4 1_555 1_555
H20 C32 1_555 1_555
C33 C32 1_555 1_555
H21 C33 1_555 1_555
C34 C33 1_555 1_555
H22 C34 1_555 1_555
C35 C34 1_555 1_555
H23 C35 1_555 1_555
C36 N4 1_555 1_555
H24 C36 1_555 1_555
C37 N5 1_555 1_555
H25 C37 1_555 1_555
C38 C37 1_555 1_555
H26 C38 1_555 1_555
C39 C38 1_555 1_555
H27 C39 1_555 1_555
C40 C39 1_555 1_555
H28 C40 1_555 1_555
C41 N5 1_555 1_555
H29 C41 1_555 1_555
C42 N6 1_555 1_555
H30 C42 1_555 1_555
C43 C42 1_555 1_555
H31 C43 1_555 1_555
C44 C43 1_555 1_555
H32 C44 1_555 1_555
C45 C44 1_555 1_555
H33 C45 1_555 1_555
C46 N6 1_555 1_555
H34 C46 1_555 1_555
C47 H35 1_555 1_555
C48 C47 1_555 1_555
H36 C48 1_555 1_555
C49 C48 1_555 1_555
H37 C49 1_555 1_555
C50 C49 1_555 1_555
H38 C50 1_555 1_555
C51 N7 1_555 1_555
H39 C51 1_555 1_555
C52 H40 1_555 1_555
C53 C52 1_555 1_555
H41 C53 1_555 1_555
C54 C53 1_555 1_555
H42 C54 1_555 1_555
C55 C54 1_555 1_555
H43 C55 1_555 1_555
C56 N8 1_555 1_555
H44 C56 1_555 1_555
Ni2_2 O8 1_555 1_555
O8_2 Ni2 1_555 1_555
C14 C15 1_555 1_555
C20 C21 1_555 1_555
C25 C26 1_555 1_555
C30 C31 1_555 1_555
C35 C36 1_555 1_555
C40 C41 1_555 1_555
C45 C46 1_555 1_555
C50 C51 1_555 1_555
C55 C56 1_555 1_555

#END
