
#######################################################################
#
#                 Cambridge Crystallographic Data Centre
#                                CCDC 
#
#######################################################################
#
# If this CIF has been generated from an entry in the Cambridge 
# Structural Database, then it will include bibliographic, chemical, 
# crystal, experimental, refinement or atomic coordinate data resulting 
# from the CCDC's data processing and validation procedures.
#
#######################################################################

data_WABZUW
_symmetry_cell_setting           monoclinic
_symmetry_space_group_name_H-M   'P 21/c'
_symmetry_Int_Tables_number      14
_space_group_name_Hall           '-P 2ybc'
loop_
_symmetry_equiv_pos_site_id
_symmetry_equiv_pos_as_xyz
1 x,y,z
2 -x,1/2+y,1/2-z
3 -x,-y,-z
4 x,1/2-y,1/2+z
_cell_length_a                   11.0872(12)
_cell_length_b                   10.0385(9)
_cell_length_c                   13.2736(15)
_cell_angle_alpha                90
_cell_angle_beta                 103.8280(10)
_cell_angle_gamma                90
_cell_volume                     1434.52
loop_
_atom_site_label
_atom_site_type_symbol
_atom_site_fract_x
_atom_site_fract_y
_atom_site_fract_z
Sn1 Sn 0.44402(2) 0.40204(2) 0.201458(18)
O1 O 0.5747(2) 0.2100(2) 0.2682(2)
O2 O 0.6875(2) 0.0565(2) 0.3670(2)
C1 C 0.6678(3) 0.1777(3) 0.3364(3)
C2 C 0.7630(3) 0.2802(3) 0.3881(3)
H1 H 0.7332 0.3676 0.3597
C3 C 0.8877(3) 0.2555(3) 0.3620(3)
C4 C 0.9310(4) 0.3421(4) 0.2984(3)
H2 H 0.8832 0.4157 0.2712
C5 C 1.0441(4) 0.3220(5) 0.2740(3)
H3 H 1.0713 0.3812 0.2302
C6 C 1.1157(4) 0.2158(4) 0.3139(4)
H4 H 1.1917 0.2023 0.2974
C7 C 1.0759(4) 0.1288(4) 0.3784(4)
H5 H 1.1252 0.0568 0.4067
C8 C 0.9617(4) 0.1485(4) 0.4013(3)
H6 H 0.9344 0.0882 0.4442
C9 C 0.7729(3) 0.2846(4) 0.5052(3)
H7 H 0.6904 0.2941 0.5171
H8 H 0.8071 0.2009 0.5358
C10 C 0.8547(4) 0.3992(4) 0.5590(4)
H9 H 0.9387 0.3852 0.5540
H10 H 0.8521 0.4025 0.6307
H11 H 0.8245 0.4818 0.5260
C11 C 0.3315(4) 0.2560(4) 0.1071(3)
H12 H 0.3437 0.1713 0.1416
H13 H 0.3542 0.2497 0.0419
H14 H 0.2457 0.2813 0.0952
C12 C 0.4289(4) 0.4269(4) 0.3558(3)
H15 H 0.5019 0.4708 0.3954
H16 H 0.4208 0.3413 0.3857
H17 H 0.3570 0.4800 0.3564
C13 C 0.5938(3) 0.4815(4) 0.1461(3)
H18 H 0.5620 0.5422 0.0902
H19 H 0.6373 0.4104 0.1218
H20 H 0.6496 0.5279 0.2014
Sn1A Sn 0.55598(2) -0.09796(2) 0.298542(18)
O2A O 0.3125(2) 0.5565(2) 0.1330(2)
loop_
_geom_bond_atom_site_label_1
_geom_bond_atom_site_label_2
_geom_bond_site_symmetry_1
_geom_bond_site_symmetry_2
Sn1 O1 1_555 1_555
O1 C1 1_555 1_555
O2 C1 1_555 1_555
C1 C2 1_555 1_555
C2 H1 1_555 1_555
C3 C2 1_555 1_555
C4 C3 1_555 1_555
H2 C4 1_555 1_555
C5 C4 1_555 1_555
H3 C5 1_555 1_555
C6 C5 1_555 1_555
H4 C6 1_555 1_555
C7 C6 1_555 1_555
H5 C7 1_555 1_555
C8 C3 1_555 1_555
H6 C8 1_555 1_555
C9 C2 1_555 1_555
H7 C9 1_555 1_555
H8 C9 1_555 1_555
C10 C9 1_555 1_555
H9 C10 1_555 1_555
H10 C10 1_555 1_555
H11 C10 1_555 1_555
C11 Sn1 1_555 1_555
H12 C11 1_555 1_555
H13 C11 1_555 1_555
H14 C11 1_555 1_555
C12 Sn1 1_555 1_555
H15 C12 1_555 1_555
H16 C12 1_555 1_555
H17 C12 1_555 1_555
C13 Sn1 1_555 1_555
H18 C13 1_555 1_555
H19 C13 1_555 1_555
H20 C13 1_555 1_555
Sn1A O2 1_555 1_555
O2A Sn1 1_555 1_555
C7 C8 1_555 1_555

#END
