
#######################################################################
#
#                 Cambridge Crystallographic Data Centre
#                                CCDC 
#
#######################################################################
#
# If this CIF has been generated from an entry in the Cambridge 
# Structural Database, then it will include bibliographic, chemical, 
# crystal, experimental, refinement or atomic coordinate data resulting 
# from the CCDC's data processing and validation procedures.
#
#######################################################################

data_WACBUZ
_symmetry_cell_setting           monoclinic
_symmetry_space_group_name_H-M   'P 2/c'
_symmetry_Int_Tables_number      13
_space_group_name_Hall           '-P 2yc'
loop_
_symmetry_equiv_pos_site_id
_symmetry_equiv_pos_as_xyz
1 x,y,z
2 -x,y,1/2-z
3 -x,-y,-z
4 x,-y,1/2+z
_cell_length_a                   8.0634(13)
_cell_length_b                   11.705(2)
_cell_length_c                   22.807(4)
_cell_angle_alpha                90
_cell_angle_beta                 94.307(2)
_cell_angle_gamma                90
_cell_volume                     2146.49
loop_
_atom_site_label
_atom_site_type_symbol
_atom_site_fract_x
_atom_site_fract_y
_atom_site_fract_z
C1 C 0.3326(5) 0.2910(3) 1.09868(17)
C2 C 0.4198(5) 0.2655(3) 1.04479(16)
C3 C 0.5437(5) 0.3374(4) 1.02782(18)
H1 H 0.5755 0.4007 1.0507
C4 C 0.6200(6) 0.3150(4) 0.9769(2)
H2 H 0.7027 0.3635 0.9653
C5 C 0.5739(5) 0.2205(4) 0.94316(19)
H3 H 0.6266 0.2068 0.9089
C6 C 0.4504(5) 0.1452(3) 0.95896(16)
C7 C 0.3743(5) 0.1712(3) 1.01070(15)
H4 H 0.2906 0.1235 1.0224
C8 C 0.3964(5) 0.0463(3) 0.92123(16)
C9 C 0.4790(5) 0.0157(3) 0.87261(17)
H5 H 0.5760 0.0543 0.8651
C10 C 0.4217(5) -0.0706(3) 0.83468(17)
H6 H 0.4795 -0.0887 0.8021
C11 C 0.2787(5) -0.1298(3) 0.84526(16)
C12 C 0.2034(5) -0.2153(3) 0.80153(18)
C13 C 0.2002(5) -0.1057(3) 0.89553(17)
H7 H 0.1078 -0.1481 0.9044
C14 C 0.2582(5) -0.0185(3) 0.93296(17)
H8 H 0.2035 -0.0032 0.9666
C15 C 0.3314(5) -0.4924(4) 0.79153(17)
H9 H 0.3656 -0.4221 0.8072
C16 C 0.3820(5) -0.5911(4) 0.82141(17)
H10 H 0.4483 -0.5865 0.8565
C17 C 0.3340(5) -0.6951(4) 0.79906(17)
H11 H 0.3654 -0.7617 0.8191
C18 C 0.2367(5) -0.7004(3) 0.74547(16)
C19 C 0.1832(5) -0.8018(3) 0.71576(19)
C20 C 0.1350(6) -0.9765(4) 0.6863(3)
H12 H 0.1350 -1.0560 0.6855
C21 C 0.0931(5) -0.8014(4) 0.66250(19)
C22 C 0.0414(5) -0.6983(3) 0.63349(17)
C23 C -0.0542(5) -0.6908(4) 0.58015(18)
H13 H -0.0876 -0.7567 0.5598
C24 C -0.0983(5) -0.5857(4) 0.55792(18)
H14 H -0.1626 -0.5793 0.5225
C25 C -0.0458(5) -0.4885(4) 0.58908(17)
H15 H -0.0780 -0.4174 0.5739
C26 C 0.0901(5) -0.5956(3) 0.66214(16)
C27 C 0.1912(4) -0.5964(3) 0.71789(16)
Mn1 Mn 0.15985(8) -0.33674(5) 0.68767(2)
N1 N 0.2089(4) -0.9153(3) 0.73044(17)
H16 H 0.2618 -0.9414 0.7617
N2 N 0.0616(5) -0.9125(3) 0.64389(18)
N3 N 0.0475(4) -0.4922(3) 0.63919(13)
N4 N 0.2358(4) -0.4944(3) 0.74136(13)
O1 O 0.3863(3) 0.3680(2) 1.13325(12)
O2 O 0.2030(4) 0.2362(2) 1.10829(12)
O3 O 0.2624(3) -0.2201(2) 0.75189(11)
O4 O 0.0869(4) -0.2767(2) 0.81638(12)
Mn1C Mn 0.15985(8) 0.33674(5) 1.18767(2)
Mn1A Mn -0.15985(8) -0.33674(5) 0.81233(2)
O1C O 0.3863(3) -0.3680(2) 0.63325(12)
O2C O 0.2030(4) -0.2362(2) 0.60829(12)
O4A O -0.0869(4) -0.2767(2) 0.68362(12)
loop_
_geom_bond_atom_site_label_1
_geom_bond_atom_site_label_2
_geom_bond_site_symmetry_1
_geom_bond_site_symmetry_2
C1 C2 1_555 1_555
C2 C3 1_555 1_555
C3 H1 1_555 1_555
C4 C3 1_555 1_555
H2 C4 1_555 1_555
C5 C4 1_555 1_555
H3 C5 1_555 1_555
C6 C5 1_555 1_555
C7 C2 1_555 1_555
H4 C7 1_555 1_555
C8 C6 1_555 1_555
C9 C8 1_555 1_555
H5 C9 1_555 1_555
C10 C9 1_555 1_555
H6 C10 1_555 1_555
C11 C10 1_555 1_555
C12 C11 1_555 1_555
C13 C11 1_555 1_555
H7 C13 1_555 1_555
C14 C8 1_555 1_555
H8 C14 1_555 1_555
C15 H9 1_555 1_555
C16 C15 1_555 1_555
H10 C16 1_555 1_555
C17 C16 1_555 1_555
H11 C17 1_555 1_555
C18 C17 1_555 1_555
C19 C18 1_555 1_555
C20 H12 1_555 1_555
C21 C19 1_555 1_555
C22 C21 1_555 1_555
C23 C22 1_555 1_555
H13 C23 1_555 1_555
C24 C23 1_555 1_555
H14 C24 1_555 1_555
C25 C24 1_555 1_555
H15 C25 1_555 1_555
C26 C22 1_555 1_555
C27 C18 1_555 1_555
Mn1 N3 1_555 1_555
N1 C19 1_555 1_555
H16 N1 1_555 1_555
N2 C20 1_555 1_555
N3 C25 1_555 1_555
N4 C15 1_555 1_555
O1 C1 1_555 1_555
O2 C1 1_555 1_555
O3 C12 1_555 1_555
O4 C12 1_555 1_555
Mn1C O1 1_555 1_555
Mn1A O4 1_555 1_555
O1C Mn1 1_555 1_555
O2C Mn1 1_555 1_555
O4A Mn1 1_555 1_555
C6 C7 1_555 1_555
C13 C14 1_555 1_555
C20 N1 1_555 1_555
C21 N2 1_555 1_555
C26 C27 1_555 1_555
C26 N3 1_555 1_555
C27 N4 1_555 1_555
Mn1 N4 1_555 1_555
Mn1 O3 1_555 1_555
O2 Mn1C 1_555 1_555

#END
