
#######################################################################
#
#                 Cambridge Crystallographic Data Centre
#                                CCDC 
#
#######################################################################
#
# If this CIF has been generated from an entry in the Cambridge 
# Structural Database, then it will include bibliographic, chemical, 
# crystal, experimental, refinement or atomic coordinate data resulting 
# from the CCDC's data processing and validation procedures.
#
#######################################################################

data_WACCAG
_symmetry_cell_setting           triclinic
_symmetry_space_group_name_H-M   'P -1'
_symmetry_Int_Tables_number      2
_space_group_name_Hall           '-P 1'
loop_
_symmetry_equiv_pos_site_id
_symmetry_equiv_pos_as_xyz
1 x,y,z
2 -x,-y,-z
_cell_length_a                   9.0793(2)
_cell_length_b                   12.8371(3)
_cell_length_c                   19.5796(4)
_cell_angle_alpha                78.5340(10)
_cell_angle_beta                 76.7160(10)
_cell_angle_gamma                73.1210(10)
_cell_volume                     2103.82
loop_
_atom_site_label
_atom_site_type_symbol
_atom_site_fract_x
_atom_site_fract_y
_atom_site_fract_z
Ce1 Ce 0.763886(13) -0.024594(10) 0.502284(7)
O1 O 0.5164(2) -0.00623(18) 0.42935(11)
O2 O 0.6869(2) -0.20312(17) 0.52006(11)
H1 H 0.5949 -0.2024 0.5266
H2 H 0.7230 -0.2533 0.5500
O3 O 0.7605(2) -0.04863(18) 0.37493(11)
O4 O 0.9859(2) -0.19000(18) 0.46923(13)
H3 H 1.0714 -0.1762 0.4589
H4 H 0.9845 -0.2218 0.4370
O5 O 0.7135(3) 0.1785(3) 0.04269(14)
H5 H 0.8121 0.1711 0.0295
O6 O 0.6313(2) 0.17990(17) 0.46325(12)
O7 O 0.7312(2) 0.14537(17) 0.55952(11)
O8 O 0.8176(3) 0.6417(2) 0.29794(13)
H6 H 0.8648 0.6770 0.3113
O9 O 0.8060(2) -0.1038(2) 0.62835(11)
O10 O 1.0105(2) -0.04972(17) 0.56681(11)
O11 O 0.8706(4) -0.4737(2) 0.88856(16)
H7 H 0.8225 -0.4589 0.9268
C1 C 0.6107(3) 0.0024(3) 0.24341(15)
C2 C 0.7638(4) 0.0005(4) 0.21124(18)
H8 H 0.8446 -0.0417 0.2346
C3 C 0.8000(4) 0.0595(4) 0.14557(18)
H9 H 0.9041 0.0574 0.1258
C4 C 0.6838(4) 0.1215(3) 0.10881(17)
C5 C 0.5313(4) 0.1251(4) 0.1398(2)
H10 H 0.4509 0.1669 0.1161
C6 C 0.4958(4) 0.0662(3) 0.20698(19)
H11 H 0.3915 0.0705 0.2275
C7 C 0.5671(4) -0.0639(3) 0.31479(16)
H12 H 0.4544 -0.0530 0.3253
H13 H 0.6139 -0.1413 0.3111
C8 C 0.6167(3) -0.0365(2) 0.37653(14)
C9 C 0.6708(3) 0.4103(2) 0.46172(18)
C10 C 0.6231(4) 0.4333(3) 0.3971(2)
H14 H 0.5557 0.3960 0.3895
C11 C 0.6725(4) 0.5099(3) 0.3433(2)
H15 H 0.6381 0.5238 0.3004
C12 C 0.7733(4) 0.5663(3) 0.35321(18)
C13 C 0.9018(4) -0.3842(3) 0.84258(19)
C14 C 0.8237(4) 0.5439(3) 0.41697(19)
H16 H 0.8920 0.5808 0.4242
C15 C 0.7731(4) 0.4667(3) 0.4704(2)
H17 H 0.8084 0.4523 0.5132
C16 C 0.6064(4) 0.3334(3) 0.5228(2)
H18 H 0.6356 0.3420 0.5656
H19 H 0.4930 0.3556 0.5295
C17 C 0.6609(3) 0.2132(2) 0.51396(16)
C18 C 0.9711(4) -0.2083(3) 0.74364(16)
C19 C 0.9054(4) -0.1947(3) 0.81334(18)
H20 H 0.8836 -0.1259 0.8273
C20 C 0.8712(4) -0.2823(3) 0.86307(17)
H21 H 0.8279 -0.2720 0.9099
C21 C 0.9695(5) -0.3997(3) 0.7736(2)
H22 H 0.9923 -0.4688 0.7598
C22 C 1.0034(4) -0.3116(3) 0.72483(19)
H23 H 1.0490 -0.3225 0.6783
C23 C 1.0119(5) -0.1149(4) 0.68953(18)
H24 H 0.9810 -0.0493 0.7123
H25 H 1.1247 -0.1321 0.6744
C24 C 0.9378(3) -0.0893(2) 0.62473(14)
Ce1A Ce 0.236114(13) 0.024594(10) 0.497716(7)
Ce1A_2 Ce 1.236114(13) 0.024594(10) 0.497716(7)
O1A O 0.4836(2) 0.00623(18) 0.57065(11)
O10A O 0.9895(2) 0.04972(17) 0.43319(11)
O12 O 0.0235(3) 0.2327(2) 0.67074(13)
H26 H 0.0906 0.1720 0.6632
H27 H -0.0512 0.2250 0.7009
N1 N 0.3011(4) 0.3471(3) 0.35414(16)
N2 N 0.7018(5) 0.5461(3) 0.02036(19)
C25 C 0.4182(6) 0.2834(3) 0.3156(2)
H28 H 0.4475 0.2090 0.3332
C26 C 0.5000(6) 0.3192(4) 0.2510(2)
H29 H 0.5841 0.2704 0.2274
C27 C 0.4563(4) 0.4281(3) 0.22159(19)
C28 C 0.3305(4) 0.4953(3) 0.2606(2)
H30 H 0.2951 0.5693 0.2433
C29 C 0.2579(5) 0.4513(4) 0.3255(2)
H31 H 0.1735 0.4979 0.3507
C30 C 0.7752(6) 0.4681(5) 0.0663(2)
H32 H 0.8823 0.4385 0.0532
C31 C 0.7007(5) 0.4287(4) 0.1324(2)
H33 H 0.7574 0.3749 0.1627
C32 C 0.5425(5) 0.4699(3) 0.15248(19)
C33 C 0.4652(5) 0.5511(3) 0.1053(2)
H34 H 0.3581 0.5817 0.1172
C34 C 0.5484(6) 0.5862(4) 0.0404(2)
H35 H 0.4945 0.6404 0.0093
N3 N 0.9775(4) 0.8207(3) 0.01648(18)
N4 N 0.2342(4) 0.8067(3) 0.2258(2)
C35 C 0.9607(5) 0.7396(4) 0.0695(2)
H36 H 1.0503 0.6864 0.0796
C36 C 0.8189(4) 0.7299(3) 0.1101(2)
H37 H 0.8143 0.6717 0.1467
C37 C 0.6828(4) 0.8073(3) 0.09630(18)
C38 C 0.7003(5) 0.8910(3) 0.0407(2)
H38 H 0.6129 0.9446 0.0285
C39 C 0.8473(5) 0.8943(4) 0.0038(2)
H39 H 0.8559 0.9522 -0.0327
C40 C 0.3649(5) 0.7732(4) 0.2527(2)
H40 H 0.3567 0.7512 0.3014
C41 C 0.5119(4) 0.7694(3) 0.21208(19)
H41 H 0.6000 0.7429 0.2332
C42 C 0.5278(4) 0.8048(3) 0.14048(18)
C43 C 0.3907(4) 0.8400(3) 0.1118(2)
H42 H 0.3950 0.8637 0.0634
C44 C 0.2499(5) 0.8389(4) 0.1563(2)
H43 H 0.1599 0.8622 0.1365
loop_
_geom_bond_atom_site_label_1
_geom_bond_atom_site_label_2
_geom_bond_site_symmetry_1
_geom_bond_site_symmetry_2
Ce1 O1 1_555 1_555
O1 C8 1_555 1_555
O2 Ce1 1_555 1_555
H1 O2 1_555 1_555
H2 O2 1_555 1_555
O3 Ce1 1_555 1_555
O4 Ce1 1_555 1_555
H3 O4 1_555 1_555
H4 O4 1_555 1_555
O5 H5 1_555 1_555
O6 Ce1 1_555 1_555
O7 Ce1 1_555 1_555
O8 H6 1_555 1_555
O9 Ce1 1_555 1_555
O10 Ce1 1_555 1_555
O11 H7 1_555 1_555
C1 C2 1_555 1_555
C2 H8 1_555 1_555
C3 C2 1_555 1_555
H9 C3 1_555 1_555
C4 O5 1_555 1_555
C5 C4 1_555 1_555
H10 C5 1_555 1_555
C6 C1 1_555 1_555
H11 C6 1_555 1_555
C7 C1 1_555 1_555
H12 C7 1_555 1_555
H13 C7 1_555 1_555
C8 O3 1_555 1_555
C9 C10 1_555 1_555
C10 H14 1_555 1_555
C11 C10 1_555 1_555
H15 C11 1_555 1_555
C12 O8 1_555 1_555
C13 O11 1_555 1_555
C14 C12 1_555 1_555
H16 C14 1_555 1_555
C15 C9 1_555 1_555
H17 C15 1_555 1_555
C16 C9 1_555 1_555
H18 C16 1_555 1_555
H19 C16 1_555 1_555
C17 O6 1_555 1_555
C18 C19 1_555 1_555
C19 H20 1_555 1_555
C20 C13 1_555 1_555
H21 C20 1_555 1_555
C21 C13 1_555 1_555
H22 C21 1_555 1_555
C22 C18 1_555 1_555
H23 C22 1_555 1_555
C23 C18 1_555 1_555
H24 C23 1_555 1_555
H25 C23 1_555 1_555
C24 O9 1_555 1_555
O12 H26 1_555 1_555
H27 O12 1_555 1_555
N1 C25 1_555 1_555
N2 C30 1_555 1_555
C25 H28 1_555 1_555
C26 C25 1_555 1_555
H29 C26 1_555 1_555
C27 C26 1_555 1_555
C28 C27 1_555 1_555
H30 C28 1_555 1_555
C29 N1 1_555 1_555
H31 C29 1_555 1_555
C30 H32 1_555 1_555
C31 C30 1_555 1_555
H33 C31 1_555 1_555
C32 C27 1_555 1_555
C33 C32 1_555 1_555
H34 C33 1_555 1_555
C34 N2 1_555 1_555
H35 C34 1_555 1_555
N3 C35 1_555 1_555
N4 C40 1_555 1_555
C35 H36 1_555 1_555
C36 C35 1_555 1_555
H37 C36 1_555 1_555
C37 C36 1_555 1_555
C38 C37 1_555 1_555
H38 C38 1_555 1_555
C39 N3 1_555 1_555
H39 C39 1_555 1_555
C40 H40 1_555 1_555
C41 C40 1_555 1_555
H41 C41 1_555 1_555
C42 C37 1_555 1_555
C43 C42 1_555 1_555
H42 C43 1_555 1_555
C44 N4 1_555 1_555
H43 C44 1_555 1_555
Ce1A O1 1_555 1_555
Ce1A_2 O10 1_555 1_555
O1A Ce1 1_555 1_555
O10A Ce1 1_555 1_555
O7 C17 1_555 1_555
O10 C24 1_555 1_555
C3 C4 1_555 1_555
C5 C6 1_555 1_555
C7 C8 1_555 1_555
C11 C12 1_555 1_555
C14 C15 1_555 1_555
C16 C17 1_555 1_555
C19 C20 1_555 1_555
C21 C22 1_555 1_555
C23 C24 1_555 1_555
C28 C29 1_555 1_555
C31 C32 1_555 1_555
C33 C34 1_555 1_555
C38 C39 1_555 1_555
C41 C42 1_555 1_555
C43 C44 1_555 1_555
Ce1A O1A 1_555 1_555
Ce1A_2 O10A 1_555 1_555

#END
