
#######################################################################
#
#                 Cambridge Crystallographic Data Centre
#                                CCDC 
#
#######################################################################
#
# If this CIF has been generated from an entry in the Cambridge 
# Structural Database, then it will include bibliographic, chemical, 
# crystal, experimental, refinement or atomic coordinate data resulting 
# from the CCDC's data processing and validation procedures.
#
#######################################################################

data_WACCOU
_symmetry_cell_setting           monoclinic
_symmetry_space_group_name_H-M   'P 21/n'
_symmetry_Int_Tables_number      14
_space_group_name_Hall           '-P 2yn'
loop_
_symmetry_equiv_pos_site_id
_symmetry_equiv_pos_as_xyz
1 x,y,z
2 1/2-x,1/2+y,1/2-z
3 -x,-y,-z
4 1/2+x,1/2-y,1/2+z
_cell_length_a                   10.0041(15)
_cell_length_b                   7.5456(11)
_cell_length_c                   15.528(2)
_cell_angle_alpha                90
_cell_angle_beta                 104.8900(10)
_cell_angle_gamma                90
_cell_volume                     1132.8
loop_
_atom_site_label
_atom_site_type_symbol
_atom_site_fract_x
_atom_site_fract_y
_atom_site_fract_z
Eu1 Eu 0.500412(13) 0.82415(2) 0.746168(10)
C1 C 0.7849(3) 0.5972(4) 0.8389(2)
C2 C 0.7266(3) 0.6188(4) 0.9168(2)
C3 C 0.7942(3) 0.5648(4) 1.0015(2)
H1 H 0.8789 0.5069 1.0112
H2 H 0.5632 0.7067 1.0980
C4 C 0.7362(3) 0.5967(4) 1.0731(2)
C5 C 0.6069(3) 0.6829(4) 1.0528(2)
C6 C 0.5456(3) 0.7327(4) 0.9664(2)
C7 C 0.4087(3) 0.8280(4) 0.9380(2)
H3 H 0.492(5) 0.543(3) 0.609(3)
H4 H 0.536(5) 0.692(5) 0.567(3)
H5 H 0.327(5) 0.552(7) 0.785(2)
H6 H 0.315(4) 0.511(6) 0.6919(18)
H7 H 0.660(4) 1.125(6) 0.802(2)
H8 H 0.623(4) 1.093(6) 0.8862(12)
N1 N 0.6033(3) 0.7025(3) 0.89845(18)
O1 O 0.7227(3) 0.6764(3) 0.76842(16)
O2 O 0.8922(2) 0.5058(3) 0.84687(15)
O3 O 0.3689(2) 0.8704(3) 0.85661(15)
O4 O 0.3426(2) 0.8572(3) 0.99465(16)
O5 O 0.8011(2) 0.5511(3) 1.15508(14)
O6 O 0.5004(3) 0.6614(3) 0.61007(18)
O7 O 0.3631(3) 0.5587(4) 0.73985(19)
O8 O 0.6026(3) 1.0809(4) 0.82870(18)
Eu1A Eu 0.999588(13) 0.32415(2) 0.753832(10)
Eu1C Eu 1.000412(13) 0.67585(2) 1.246168(10)
O2A O 0.6078(2) 1.0058(3) 0.65313(15)
O5C O 0.3011(2) 0.9489(3) 0.65508(14)
H9 H 0.034(5) 0.735(6) 0.899(4)
H10 H 0.155(2) 0.835(6) 0.949(4)
O9 O 0.0664(3) 0.8216(3) 0.9349(2)
loop_
_geom_bond_atom_site_label_1
_geom_bond_atom_site_label_2
_geom_bond_site_symmetry_1
_geom_bond_site_symmetry_2
Eu1 N1 1_555 1_555
C1 C2 1_555 1_555
C2 C3 1_555 1_555
C3 H1 1_555 1_555
H2 C5 1_555 1_555
C4 C3 1_555 1_555
C5 C4 1_555 1_555
C6 C5 1_555 1_555
C7 C6 1_555 1_555
H3 O6 1_555 1_555
H4 O6 1_555 1_555
H5 O7 1_555 1_555
H6 O7 1_555 1_555
H7 O8 1_555 1_555
H8 O8 1_555 1_555
H9 O9 1_555 1_555
H10 O9 1_555 1_555
N1 C2 1_555 1_555
O1 Eu1 1_555 1_555
O2 C1 1_555 1_555
O3 Eu1 1_555 1_555
O4 C7 1_555 1_555
O5 C4 1_555 1_555
O6 Eu1 1_555 1_555
O7 Eu1 1_555 1_555
O8 Eu1 1_555 1_555
Eu1A O2 1_555 1_555
Eu1C O5 1_555 1_555
O2A Eu1 1_555 1_555
O5C Eu1 1_555 1_555
C1 O1 1_555 1_555
C6 N1 1_555 1_555
C7 O3 1_555 1_555

#END
