
#######################################################################
#
#                 Cambridge Crystallographic Data Centre
#                                CCDC 
#
#######################################################################
#
# If this CIF has been generated from an entry in the Cambridge 
# Structural Database, then it will include bibliographic, chemical, 
# crystal, experimental, refinement or atomic coordinate data resulting 
# from the CCDC's data processing and validation procedures.
#
#######################################################################

data_WACJOA
_symmetry_cell_setting           triclinic
_symmetry_space_group_name_H-M   'P -1'
_symmetry_Int_Tables_number      2
_space_group_name_Hall           '-P 1'
loop_
_symmetry_equiv_pos_site_id
_symmetry_equiv_pos_as_xyz
1 x,y,z
2 -x,-y,-z
_cell_length_a                   11.498(2)
_cell_length_b                   11.986(3)
_cell_length_c                   12.406(2)
_cell_angle_alpha                107.07(2)
_cell_angle_beta                 103.92(2)
_cell_angle_gamma                110.34(2)
_cell_volume                     1416.14
loop_
_atom_site_label
_atom_site_type_symbol
_atom_site_fract_x
_atom_site_fract_y
_atom_site_fract_z
Co1 Co 0.5000 0.5000 0.5000
Co2 Co 0.90129(4) 0.68226(4) 0.62602(4)
O1 O 0.7061(2) 0.6475(2) 0.6316(2)
O2 O 1.0838(3) 0.6934(3) 0.6050(2)
O3 O 0.8397(2) 0.4870(2) 0.5926(2)
O4 O 0.8200(2) 0.6376(2) 0.4430(2)
N1 N 0.9557(3) 0.8852(3) 0.6736(3)
N2 N 1.0090(3) 0.7689(3) 0.8202(2)
C1 C 0.9214(4) 0.9408(4) 0.6022(4)
H1 H 0.8625 0.8874 0.5216
C2 C 0.9692(5) 1.0756(4) 0.6419(4)
H2 H 0.9420 1.1109 0.5889
C3 C 1.0559(4) 1.1548(4) 0.7589(4)
H3 H 1.0902 1.2451 0.7863
C4 C 1.0935(3) 1.1002(3) 0.8380(3)
C5 C 1.1810(4) 1.1756(3) 0.9641(4)
H4 H 1.2210 1.2664 0.9952
C6 C 1.2058(4) 1.1178(4) 1.0373(4)
H5 H 1.2626 1.1694 1.1188
C7 C 1.1473(3) 0.9780(3) 0.9942(3)
C8 C 1.1652(4) 0.9127(4) 1.0687(3)
H6 H 1.2176 0.9598 1.1516
C9 C 1.1053(4) 0.7799(4) 1.0191(4)
H7 H 1.1155 0.7353 1.0678
C10 C 1.0285(4) 0.7113(4) 0.8944(3)
H8 H 0.9889 0.6204 0.8616
C11 C 1.0667(3) 0.9014(3) 0.8700(3)
C12 C 1.0390(3) 0.9639(3) 0.7917(3)
O5 O 0.5512(2) 0.5461(2) 0.3632(2)
O6 O 0.3493(3) 0.4536(3) 0.2167(2)
C13 C 0.4732(4) 0.5248(3) 0.2603(3)
C14 C 0.5354(4) 0.5899(3) 0.1864(3)
H9 H 0.4652 0.5657 0.1101
H10 H 0.5976 0.5574 0.1671
C15 C 0.6096(4) 0.7381(3) 0.2528(4)
H11 H 0.6810 0.7619 0.3281
H12 H 0.6508 0.7728 0.2027
C16 C 0.5218(4) 0.8015(3) 0.2826(4)
H13 H 0.4812 0.7679 0.3336
H14 H 0.4500 0.7778 0.2075
C17 C 0.5991(4) 0.9501(3) 0.3482(4)
H15 H 0.6559 0.9740 0.4311
H16 H 0.6568 0.9819 0.3074
C18 C 0.5080(4) 1.0168(3) 0.3518(3)
H17 H 0.4516 0.9936 0.2689
H18 H 0.4500 0.9849 0.3923
C19 C 0.5865(4) 1.1648(3) 0.4180(3)
H19 H 0.6351 1.1871 0.5029
H20 H 0.6525 1.1944 0.3836
C20 C 0.5050(3) 1.2391(3) 0.4133(3)
O7 O 0.5705(2) 1.3629(2) 0.4733(2)
O8 O 0.3829(3) 1.1810(2) 0.3519(3)
H27 H 0.7010 0.7148 0.6463
H28 H 0.7029 0.6205 0.6851
H29 H 1.1292 0.6613 0.6595
H30 H 1.0882 0.6351 0.5238
H31 H 0.8692 0.4580 0.6366
H32 H 0.7602 0.4483 0.5519
H33 H 0.7409 0.6221 0.4132
H34 H 0.8177 0.5643 0.3887
O1A O 0.2939(2) 0.3525(2) 0.3684(2)
H27A H 0.2990 0.2852 0.3537
H28A H 0.2971 0.3795 0.3149
O5A O 0.4488(2) 0.4539(2) 0.6368(2)
O6A O 0.6507(3) 0.5464(3) 0.7833(2)
C13A C 0.5268(4) 0.4752(3) 0.7397(3)
C14A C 0.4646(4) 0.4101(3) 0.8136(3)
H9A H 0.5348 0.4343 0.8899
H10A H 0.4024 0.4426 0.8329
C15A C 0.3904(4) 0.2619(3) 0.7472(4)
H11A H 0.3190 0.2381 0.6719
H12A H 0.3492 0.2272 0.7973
C16A C 0.4782(4) 0.1985(3) 0.7174(4)
H13A H 0.5188 0.2321 0.6664
H14A H 0.5500 0.2222 0.7925
C17A C 0.4009(4) 0.0499(3) 0.6518(4)
H15A H 0.3441 0.0260 0.5689
H16A H 0.3432 0.0181 0.6926
C18A C 0.4920(4) -0.0168(3) 0.6482(3)
H17A H 0.5484 0.0064 0.7311
H18A H 0.5500 0.0151 0.6077
C19A C 0.4135(4) -0.1648(3) 0.5820(3)
H19A H 0.3649 -0.1871 0.4971
H20A H 0.3475 -0.1944 0.6164
C20A C 0.4950(3) -0.2391(3) 0.5867(3)
O7A O 0.4295(2) -0.3629(2) 0.5267(2)
O8A O 0.6171(3) -0.1810(2) 0.6481(3)
Co2A Co 0.09871(4) 0.31774(4) 0.37398(4)
O2A O -0.0838(3) 0.3066(3) 0.3950(2)
H29A H -0.1292 0.3387 0.3405
H30A H -0.0882 0.3649 0.4762
O3A O 0.1603(2) 0.5130(2) 0.4074(2)
H31A H 0.1308 0.5420 0.3634
H32A H 0.2398 0.5517 0.4481
O4A O 0.1800(2) 0.3624(2) 0.5570(2)
H33A H 0.2591 0.3779 0.5868
H34A H 0.1823 0.4357 0.6113
N1A N 0.0443(3) 0.1148(3) 0.3264(3)
N2A N -0.0090(3) 0.2311(3) 0.1798(2)
C1A C 0.0786(4) 0.0592(4) 0.3978(4)
H1A H 0.1375 0.1126 0.4784
C2A C 0.0308(5) -0.0756(4) 0.3581(4)
H2A H 0.0580 -0.1109 0.4111
C3A C -0.0559(4) -0.1548(4) 0.2411(4)
H3A H -0.0902 -0.2451 0.2137
C4A C -0.0935(3) -0.1002(3) 0.1620(3)
C5A C -0.1810(4) -0.1756(3) 0.0359(4)
H4A H -0.2210 -0.2664 0.0048
C6A C -0.2058(4) -0.1178(4) -0.0373(4)
H5A H -0.2626 -0.1694 -0.1188
C7A C -0.1473(3) 0.0220(3) 0.0058(3)
C8A C -0.1652(4) 0.0873(4) -0.0687(3)
H6A H -0.2176 0.0402 -0.1516
C9A C -0.1053(4) 0.2201(4) -0.0191(4)
H7A H -0.1155 0.2647 -0.0678
C10A C -0.0285(4) 0.2887(4) 0.1056(3)
H8A H 0.0111 0.3796 0.1384
C11A C -0.0667(3) 0.0986(3) 0.1300(3)
C12A C -0.0390(3) 0.0361(3) 0.2083(3)
O7_2 O 0.5705(2) 0.3629(2) 0.4733(2)
O7A_2 O 0.4295(2) 0.6371(2) 0.5267(2)
Co1_2 Co 0.5000 1.5000 0.5000
Co1_3 Co 0.5000 -0.5000 0.5000
O9 O 0.8235(3) 0.4344(3) 0.2836(3)
O10 O 0.8238(3) 0.5148(3) 0.1449(3)
C21 C 0.7742(4) 0.4266(4) 0.1774(4)
C22 C 0.6514(5) 0.3062(4) 0.0842(5)
H21 H 0.5749 0.3242 0.0800
H22 H 0.6590 0.2905 0.0055
C23 C 0.6211(4) 0.1830(4) 0.1020(4)
H23 H 0.5956 0.1917 0.1720
H24 H 0.7022 0.1721 0.1207
C24 C 0.5122(5) 0.0628(4) -0.0051(4)
H25 H 0.4294 0.0708 -0.0189
H26 H 0.5338 0.0593 -0.0766
C24A C 0.4878(5) -0.0628(4) 0.0051(4)
C23A C 0.3789(4) -0.1830(4) -0.1020(4)
C22A C 0.3486(5) -0.3062(4) -0.0842(5)
C21A C 0.2258(4) -0.4266(4) -0.1774(4)
O9A O 0.1765(3) -0.4344(3) -0.2836(3)
O10A O 0.1762(3) -0.5148(3) -0.1449(3)
H21A H 0.4251 -0.3242 -0.0800
H22A H 0.3410 -0.2905 -0.0055
H23A H 0.4044 -0.1917 -0.1720
H24A H 0.2978 -0.1721 -0.1207
H25A H 0.5706 -0.0708 0.0189
H26A H 0.4662 -0.0593 0.0766
O11 O 0.8149(3) 0.4590(4) -0.0902(3)
H35 H 0.8163 0.4769 -0.0100
H36 H 0.7557 0.4665 -0.1346
O12 O 0.8994(4) 0.3587(3) 0.7250(4)
H37 H 0.9919 0.4041 0.7799
H38 H 0.8731 0.3909 0.7833
loop_
_geom_bond_atom_site_label_1
_geom_bond_atom_site_label_2
_geom_bond_site_symmetry_1
_geom_bond_site_symmetry_2
Co1 O1 1_555 1_555
Co2 O1 1_555 1_555
O1 H27 1_555 1_555
O2 Co2 1_555 1_555
O3 Co2 1_555 1_555
O4 Co2 1_555 1_555
N1 Co2 1_555 1_555
N2 Co2 1_555 1_555
C1 N1 1_555 1_555
H1 C1 1_555 1_555
C2 C1 1_555 1_555
H2 C2 1_555 1_555
C3 C2 1_555 1_555
H3 C3 1_555 1_555
C4 C3 1_555 1_555
C5 C4 1_555 1_555
H4 C5 1_555 1_555
C6 C5 1_555 1_555
H5 C6 1_555 1_555
C7 C6 1_555 1_555
C8 C7 1_555 1_555
H6 C8 1_555 1_555
C9 C8 1_555 1_555
H7 C9 1_555 1_555
C10 N2 1_555 1_555
H8 C10 1_555 1_555
C11 N2 1_555 1_555
C12 N1 1_555 1_555
O5 Co1 1_555 1_555
O6 C13 1_555 1_555
C13 O5 1_555 1_555
C14 C13 1_555 1_555
H9 C14 1_555 1_555
H10 C14 1_555 1_555
C15 C14 1_555 1_555
H11 C15 1_555 1_555
H12 C15 1_555 1_555
C16 C15 1_555 1_555
H13 C16 1_555 1_555
H14 C16 1_555 1_555
C17 C16 1_555 1_555
H15 C17 1_555 1_555
H16 C17 1_555 1_555
C18 C17 1_555 1_555
H17 C18 1_555 1_555
H18 C18 1_555 1_555
C19 C18 1_555 1_555
H19 C19 1_555 1_555
H20 C19 1_555 1_555
C20 C19 1_555 1_555
O7 C20 1_555 1_555
O8 C20 1_555 1_555
O9 C21 1_555 1_555
O10 C21 1_555 1_555
C21 C22 1_555 1_555
C22 H21 1_555 1_555
H22 C22 1_555 1_555
C23 C22 1_555 1_555
H23 C23 1_555 1_555
H24 C23 1_555 1_555
C24 C23 1_555 1_555
H25 C24 1_555 1_555
H26 C24 1_555 1_555
O11 H35 1_555 1_555
O12 H37 1_555 1_555
H28 O1 1_555 1_555
H29 O2 1_555 1_555
H30 O2 1_555 1_555
H31 O3 1_555 1_555
H32 O3 1_555 1_555
H33 O4 1_555 1_555
H34 O4 1_555 1_555
H36 O11 1_555 1_555
H38 O12 1_555 1_555
C24A C24 1_555 1_555
C23A C24A 1_555 1_555
C22A C23A 1_555 1_555
C21A C22A 1_555 1_555
O9A C21A 1_555 1_555
O10A C21A 1_555 1_555
H21A C22A 1_555 1_555
H22A C22A 1_555 1_555
H23A C23A 1_555 1_555
H24A C23A 1_555 1_555
H25A C24A 1_555 1_555
H26A C24A 1_555 1_555
O1A Co1 1_555 1_555
H27A O1A 1_555 1_555
H28A O1A 1_555 1_555
O5A Co1 1_555 1_555
O6A C13A 1_555 1_555
C13A O5A 1_555 1_555
C14A C13A 1_555 1_555
H9A C14A 1_555 1_555
H10A C14A 1_555 1_555
C15A C14A 1_555 1_555
H11A C15A 1_555 1_555
H12A C15A 1_555 1_555
C16A C15A 1_555 1_555
H13A C16A 1_555 1_555
H14A C16A 1_555 1_555
C17A C16A 1_555 1_555
H15A C17A 1_555 1_555
H16A C17A 1_555 1_555
C18A C17A 1_555 1_555
H17A C18A 1_555 1_555
H18A C18A 1_555 1_555
C19A C18A 1_555 1_555
H19A C19A 1_555 1_555
H20A C19A 1_555 1_555
C20A C19A 1_555 1_555
O7A C20A 1_555 1_555
O8A C20A 1_555 1_555
Co2A O1A 1_555 1_555
O2A Co2A 1_555 1_555
H29A O2A 1_555 1_555
H30A O2A 1_555 1_555
O3A Co2A 1_555 1_555
H31A O3A 1_555 1_555
H32A O3A 1_555 1_555
O4A Co2A 1_555 1_555
H33A O4A 1_555 1_555
H34A O4A 1_555 1_555
N1A Co2A 1_555 1_555
N2A Co2A 1_555 1_555
C1A N1A 1_555 1_555
H1A C1A 1_555 1_555
C2A C1A 1_555 1_555
H2A C2A 1_555 1_555
C3A C2A 1_555 1_555
H3A C3A 1_555 1_555
C4A C3A 1_555 1_555
C5A C4A 1_555 1_555
H4A C5A 1_555 1_555
C6A C5A 1_555 1_555
H5A C6A 1_555 1_555
C7A C6A 1_555 1_555
C8A C7A 1_555 1_555
H6A C8A 1_555 1_555
C9A C8A 1_555 1_555
H7A C9A 1_555 1_555
C10A N2A 1_555 1_555
H8A C10A 1_555 1_555
C11A N2A 1_555 1_555
C12A N1A 1_555 1_555
O7_2 Co1 1_555 1_555
O7A_2 Co1 1_555 1_555
Co1_2 O7 1_555 1_555
Co1_3 O7A 1_555 1_555
C4 C12 1_555 1_555
C7 C11 1_555 1_555
C9 C10 1_555 1_555
C11 C12 1_555 1_555
C4A C12A 1_555 1_555
C7A C11A 1_555 1_555
C9A C10A 1_555 1_555
C11A C12A 1_555 1_555

#END
