
#######################################################################
#
#                 Cambridge Crystallographic Data Centre
#                                CCDC 
#
#######################################################################
#
# If this CIF has been generated from an entry in the Cambridge 
# Structural Database, then it will include bibliographic, chemical, 
# crystal, experimental, refinement or atomic coordinate data resulting 
# from the CCDC's data processing and validation procedures.
#
#######################################################################

data_WADKIW
_symmetry_cell_setting           monoclinic
_symmetry_space_group_name_H-M   'C 2/c'
_symmetry_Int_Tables_number      15
_space_group_name_Hall           '-C 2yn'
loop_
_symmetry_equiv_pos_site_id
_symmetry_equiv_pos_as_xyz
1 x,y,z
2 1/2+x,1/2+y,z
3 x,-y,1/2+z
4 1/2+x,1/2-y,1/2+z
5 -x,-y,-z
6 1/2-x,1/2-y,-z
7 -x,y,1/2-z
8 1/2-x,1/2+y,1/2-z
_cell_length_a                   11.617(2)
_cell_length_b                   8.030(2)
_cell_length_c                   12.961(3)
_cell_angle_alpha                90
_cell_angle_beta                 100.17(3)
_cell_angle_gamma                90
_cell_volume                     1190.06
loop_
_atom_site_label
_atom_site_type_symbol
_atom_site_fract_x
_atom_site_fract_y
_atom_site_fract_z
Mn1 Mn -0.5000 -0.79757(9) 0.2500
O1 O -0.6814(2) -0.8155(4) 0.2790(2)
H1 H -0.693(4) -0.920(6) 0.292(3)
H2 H -0.738(5) -0.783(7) 0.244(4)
O2 O -0.4696(2) 0.0090(3) 0.36710(18)
C1 C -0.5280(3) -0.1244(4) 0.3529(2)
N1 N -0.4288(2) -0.5722(3) 0.3417(2)
C2 C -0.4607(3) -0.2860(4) 0.3741(2)
O3 O -0.6356(2) -0.1364(3) 0.3260(2)
C3 C -0.3929(3) -0.3033(5) 0.4734(3)
H3 H -0.387(3) -0.225(5) 0.517(3)
C4 C -0.3442(3) -0.4549(5) 0.5066(3)
H4 H -0.295(4) -0.472(5) 0.574(3)
C5 C -0.4712(3) -0.4220(4) 0.3067(2)
C6 C -0.3677(3) -0.5874(5) 0.4394(3)
H5 H -0.339(3) -0.700(5) 0.461(3)
O2F O -0.5304(2) -0.9910(3) 0.13290(18)
O1F O -0.3186(2) -0.8155(4) 0.2210(2)
H1F H -0.307(4) -0.920(6) 0.208(3)
H2F H -0.262(5) -0.783(7) 0.256(4)
N1F N -0.5712(2) -0.5722(3) 0.1583(2)
C5F C -0.5288(3) -0.4220(4) 0.1933(2)
C6F C -0.6323(3) -0.5874(5) 0.0606(3)
C2F C -0.5393(3) -0.2860(4) 0.1259(2)
C4F C -0.6558(3) -0.4549(5) -0.0066(3)
H5F H -0.661(3) -0.700(5) 0.039(3)
C1F C -0.4720(3) -0.1244(4) 0.1471(2)
C3F C -0.6071(3) -0.3033(5) 0.0266(3)
H4F H -0.705(4) -0.472(5) -0.074(3)
O2_2 O -0.4696(2) -0.9910(3) 0.36710(18)
O2F_2 O -0.5304(2) 0.0090(3) 0.13290(18)
O3F O -0.3644(2) -0.1364(3) 0.1740(2)
H3F H -0.613(3) -0.225(5) -0.017(3)
Mn1_2 Mn -0.5000 0.20243(9) 0.2500
loop_
_geom_bond_atom_site_label_1
_geom_bond_atom_site_label_2
_geom_bond_site_symmetry_1
_geom_bond_site_symmetry_2
Mn1 O1 1_555 1_555
O1 H1 1_555 1_555
H2 O1 1_555 1_555
O2 C1 1_555 1_555
C1 C2 1_555 1_555
N1 Mn1 1_555 1_555
C2 C3 1_555 1_555
O3 C1 1_555 1_555
C3 H3 1_555 1_555
C4 C3 1_555 1_555
H4 C4 1_555 1_555
C5 N1 1_555 1_555
C6 N1 1_555 1_555
H5 C6 1_555 1_555
O2F Mn1 1_555 1_555
O1F Mn1 1_555 1_555
H1F O1F 1_555 1_555
H2F O1F 1_555 1_555
N1F Mn1 1_555 1_555
C5F C5 1_555 1_555
C6F N1F 1_555 1_555
C2F C5F 1_555 1_555
C4F C6F 1_555 1_555
H5F C6F 1_555 1_555
C1F C2F 1_555 1_555
C3F C2F 1_555 1_555
H4F C4F 1_555 1_555
O2_2 Mn1 1_555 1_555
O2F_2 C1F 1_555 1_555
O3F C1F 1_555 1_555
H3F C3F 1_555 1_555
Mn1_2 O2 1_555 1_555
C2 C5 1_555 1_555
C4 C6 1_555 1_555
N1F C5F 1_555 1_555
C4F C3F 1_555 1_555
O2F_2 Mn1_2 1_555 1_555

#END
