
#######################################################################
#
#                 Cambridge Crystallographic Data Centre
#                                CCDC 
#
#######################################################################
#
# If this CIF has been generated from an entry in the Cambridge 
# Structural Database, then it will include bibliographic, chemical, 
# crystal, experimental, refinement or atomic coordinate data resulting 
# from the CCDC's data processing and validation procedures.
#
#######################################################################

data_WAFDAJ01
_symmetry_cell_setting           monoclinic
_symmetry_space_group_name_H-M   'P 21/n'
_symmetry_Int_Tables_number      14
_space_group_name_Hall           '-P 2yn'
loop_
_symmetry_equiv_pos_site_id
_symmetry_equiv_pos_as_xyz
1 x,y,z
2 1/2-x,1/2+y,1/2-z
3 -x,-y,-z
4 1/2+x,1/2-y,1/2+z
_cell_length_a                   9.643
_cell_length_b                   8.97960(10)
_cell_length_c                   21.4183(3)
_cell_angle_alpha                90
_cell_angle_beta                 90.7590(10)
_cell_angle_gamma                90
_cell_volume                     1854.45
loop_
_atom_site_label
_atom_site_type_symbol
_atom_site_fract_x
_atom_site_fract_y
_atom_site_fract_z
Zn1 Zn 0.80574(3) 0.60871(3) 0.161393(13)
O1 O 0.96350(18) 0.75273(19) 0.16158(9)
O2 O 0.84164(18) 1.20065(19) 0.27658(8)
O3 O 0.9126(2) 0.4853(3) 0.23117(10)
O4 O 0.89112(19) 0.9707(2) 0.30392(9)
O5 O 0.82505(19) 0.9505(2) 0.15658(10)
N1 N 0.6798(2) 0.6720(2) 0.08162(10)
N2 N 0.8656(2) 0.4500(2) 0.09212(9)
C1 C 1.0455(2) 1.0894(3) 0.23437(11)
C2 C 0.8405(3) 0.3890(3) -0.01779(13)
C3 C 0.9385(3) 0.8916(3) 0.16626(11)
C4 C 0.9588(3) 0.3422(3) 0.09800(13)
H1 H 0.9987 0.3247 0.1371
C5 C 0.9176(3) 1.0856(3) 0.27392(11)
C6 C 0.6356(3) 0.6145(3) -0.02769(13)
C7 C 1.0596(2) 0.9891(3) 0.18491(11)
C8 C 0.7039(3) 0.5897(3) 0.02982(12)
C9 C 0.8058(3) 0.4727(3) 0.03496(11)
C10 C 1.1530(3) 1.1866(3) 0.24928(13)
H2 H 1.1430 1.2544 0.2818
C11 C 0.5839(3) 0.7779(3) 0.07841(15)
H3 H 0.5675 0.8354 0.1137
C12 C 0.9993(3) 0.2538(3) 0.04774(14)
H4 H 1.0650 0.1791 0.0535
C13 C 1.1828(3) 0.9872(3) 0.15217(12)
H5 H 1.1933 0.9200 0.1195
C14 C 0.9416(3) 0.2779(3) -0.00983(14)
H6 H 0.9692 0.2209 -0.0437
C15 C 0.7730(3) 0.4221(4) -0.07662(14)
H7 H 0.7984 0.3699 -0.1122
C16 C 0.5068(3) 0.8060(4) 0.02402(16)
H8 H 0.4380 0.8786 0.0237
C17 C 0.5333(3) 0.7259(4) -0.02890(15)
H9 H 0.4836 0.7452 -0.0655
C18 C 0.6739(3) 0.5271(4) -0.08102(13)
H10 H 0.6294 0.5435 -0.1192
C19 C 1.2899(3) 1.0829(3) 0.16713(14)
H11 H 1.3716 1.0802 0.1445
C20 C 1.2759(3) 1.1830(3) 0.21572(15)
H12 H 1.3481 1.2475 0.2260
H13 H 0.878(4) 0.408(4) 0.2420(16)
H14 H 0.918(3) 0.536(4) 0.2588(17)
Zn1A Zn 0.69426(3) 1.10871(3) 0.338607(13)
O2A O 0.65836(18) 0.70065(19) 0.22342(8)
O4A O 0.60888(19) 0.4707(2) 0.19608(9)
O6 O 0.6225(3) 1.1657(3) 0.16136(11)
H15 H 0.691(4) 1.133(4) 0.1589(19)
H16 H 0.628(4) 1.251(5) 0.1782(19)
loop_
_geom_bond_atom_site_label_1
_geom_bond_atom_site_label_2
_geom_bond_site_symmetry_1
_geom_bond_site_symmetry_2
Zn1 O1 1_555 1_555
O1 C3 1_555 1_555
O2 C5 1_555 1_555
O3 Zn1 1_555 1_555
O4 C5 1_555 1_555
O5 C3 1_555 1_555
N1 Zn1 1_555 1_555
N2 Zn1 1_555 1_555
C1 C5 1_555 1_555
C2 C9 1_555 1_555
C3 C7 1_555 1_555
C4 N2 1_555 1_555
H1 C4 1_555 1_555
C6 C8 1_555 1_555
C7 C1 1_555 1_555
C8 N1 1_555 1_555
C9 N2 1_555 1_555
C10 C1 1_555 1_555
H2 C10 1_555 1_555
C11 N1 1_555 1_555
H3 C11 1_555 1_555
C12 C4 1_555 1_555
H4 C12 1_555 1_555
C13 C7 1_555 1_555
H5 C13 1_555 1_555
C14 C2 1_555 1_555
H6 C14 1_555 1_555
C15 C2 1_555 1_555
H7 C15 1_555 1_555
C16 C11 1_555 1_555
H8 C16 1_555 1_555
C17 C6 1_555 1_555
H9 C17 1_555 1_555
C18 C6 1_555 1_555
H10 C18 1_555 1_555
C19 C13 1_555 1_555
H11 C19 1_555 1_555
C20 C10 1_555 1_555
H12 C20 1_555 1_555
H13 O3 1_555 1_555
H14 O3 1_555 1_555
O6 H15 1_555 1_555
H16 O6 1_555 1_555
Zn1A O2 1_555 1_555
O2A Zn1 1_555 1_555
O4A Zn1 1_555 1_555
O4 Zn1A 1_555 1_555
C8 C9 1_555 1_555
C12 C14 1_555 1_555
C15 C18 1_555 1_555
C16 C17 1_555 1_555
C19 C20 1_555 1_555

#END
