
#######################################################################
#
#                 Cambridge Crystallographic Data Centre
#                                CCDC 
#
#######################################################################
#
# If this CIF has been generated from an entry in the Cambridge 
# Structural Database, then it will include bibliographic, chemical, 
# crystal, experimental, refinement or atomic coordinate data resulting 
# from the CCDC's data processing and validation procedures.
#
#######################################################################

data_WAGHOD
_symmetry_cell_setting           monoclinic
_symmetry_space_group_name_H-M   'P 21'
_symmetry_Int_Tables_number      4
_space_group_name_Hall           'P 2yb'
loop_
_symmetry_equiv_pos_site_id
_symmetry_equiv_pos_as_xyz
1 x,y,z
2 -x,1/2+y,-z
_cell_length_a                   17.3168(7)
_cell_length_b                   10.6362(4)
_cell_length_c                   34.9067(15)
_cell_angle_alpha                90
_cell_angle_beta                 93.260(1)
_cell_angle_gamma                90
_cell_volume                     6418.88
loop_
_atom_site_label
_atom_site_type_symbol
_atom_site_fract_x
_atom_site_fract_y
_atom_site_fract_z
C1 C 0.9690(6) 0.9609(11) 0.5640(3)
H1 H 0.9187 0.9998 0.5660
H2 H 0.9640 0.8723 0.5700
C2 C 0.7726(8) 1.2350(12) 0.6280(3)
H3 H 0.8179 1.1909 0.6207
H4 H 0.7875 1.3142 0.6394
H5 H 0.7388 1.2494 0.6057
C5 C 1.0707(5) 0.9126(12) 0.5222(2)
H8 H 1.0663 0.8242 0.5286
H9 H 1.0879 0.9187 0.4963
C6 C 1.0025(6) 1.1094(11) 0.5165(3)
H10 H 1.0190 1.1201 0.4906
H11 H 0.9526 1.1502 0.5179
C7 C 0.6610(5) 0.9627(12) 0.4010(2)
H12 H 0.6577 0.8739 0.3948
H13 H 0.6140 1.0029 0.3908
C8 C 0.6737(6) 1.1122(11) 0.4529(2)
H14 H 0.6789 1.1212 0.4806
H15 H 0.6268 1.1550 0.4437
C9 C 0.7408(5) 0.9143(10) 0.4576(2)
H16 H 0.7461 0.9217 0.4853
H17 H 0.7382 0.8257 0.4512
C10 C 0.7332(6) 1.1524(11) 0.3930(3)
H18 H 0.6871 1.1954 0.3828
H19 H 0.7774 1.1889 0.3813
C11 C 0.7990(6) 0.9552(11) 0.3984(2)
H20 H 0.8433 0.9908 0.3865
H21 H 0.7966 0.8663 0.3922
C12 C 0.8115(6) 1.1033(10) 0.4506(3)
H22 H 0.8568 1.1409 0.4401
H23 H 0.8165 1.1119 0.4783
C13 C 1.0989(5) 0.9603(12) 0.5892(2)
H24 H 1.0946 0.8718 0.5953
H25 H 1.1357 0.9980 0.6078
C14 C 1.0323(6) 1.1564(11) 0.5835(2)
H26 H 1.0697 1.1945 0.6018
H27 H 0.9829 1.1979 0.5858
C15 C 1.1324(5) 1.1050(10) 0.5412(3)
H28 H 1.1506 1.1155 0.5156
H29 H 1.1703 1.1435 0.5591
C17 C 0.4738(5) 1.1007(10) 0.4922(2)
H32 H 0.5086 1.1456 0.4762
H33 H 0.4994 1.0907 0.5175
C18 C 0.3617(6) 1.1839(11) 0.4561(3)
H34 H 0.3140 1.2307 0.4577
H35 H 0.3945 1.2293 0.4392
C21 C 1.0075(5) 1.0340(12) 0.3364(2)
C24 C 0.6903(6) 1.6160(13) 0.3303(3)
H43 H 0.6799 1.7056 0.3311
H44 H 0.7445 1.6070 0.3251
C25 C 1.0323(6) 1.0317(12) 0.2936(3)
C28 C 0.6494(8) 1.5583(13) 0.2260(3)
H49 H 0.6923 1.5238 0.2127
H50 H 0.6177 1.6094 0.2083
C42 C 0.4047(5) 0.9083(12) 0.5015(3)
H71 H 0.3940 0.8248 0.4913
H72 H 0.4306 0.8994 0.5267
C47 C 0.6442(6) 1.5641(14) 0.2959(3)
C49 C 0.9795(5) 0.8960(9) 0.3394(2)
H81 H 1.0226 0.8410 0.3467
H82 H 0.9412 0.8888 0.3585
C53 C 0.2938(6) 0.9936(11) 0.4651(3)
H88 H 0.2811 0.9118 0.4543
H89 H 0.2461 1.0406 0.4668
C55 C 0.9376(5) 1.1104(10) 0.3318(3)
C59 C 0.4182(5) 0.9881(11) 0.4377(3)
H95 H 0.4072 0.9051 0.4273
H96 H 0.4519 1.0312 0.4208
C60 C 0.6526(6) 1.4277(11) 0.2809(3)
C61 C 0.6911(7) 0.9527(13) 0.6830(3)
H97 H 0.6368 0.9638 0.6876
H98 H 0.7030 0.8636 0.6829
C63 C 0.6001(7) 1.4504(14) 0.2438(3)
H102 H 0.5920 1.3762 0.2274
C64 C 0.9542(6) 0.9841(13) 0.2778(3)
H103 H 0.9504 0.9737 0.2499
C67 C 0.5566(7) 1.5915(13) 0.2910(3)
H109 H 0.5471 1.6798 0.2856
H110 H 0.5306 1.5679 0.3138
C71 C 0.6573(7) 1.2257(12) 0.6697(3)
H116 H 0.6716 1.3094 0.6775
H117 H 0.6352 1.1826 0.6906
H118 H 0.6200 1.2297 0.6483
C72 C 1.0701(5) 1.0813(10) 0.3663(2)
C75 C 0.7349(6) 1.3844(13) 0.2770(3)
H122 H 0.7602 1.3746 0.3020
H123 H 0.7621 1.4457 0.2627
H124 H 0.7347 1.3053 0.2637
C76 C 0.6123(7) 1.3322(13) 0.3069(3)
H125 H 0.5596 1.3574 0.3095
H126 H 0.6390 1.3299 0.3317
H127 H 0.6133 1.2501 0.2955
C77 C 0.8969(6) 1.0773(11) 0.2925(3)
H128 H 0.8466 1.0392 0.2954
H129 H 0.8911 1.1504 0.2760
C79 C 0.7296(6) 1.1543(10) 0.6577(3)
C80 C 0.5295(7) 1.5083(15) 0.2562(3)
H132 H 0.4930 1.4449 0.2637
H133 H 0.5051 1.5591 0.2358
C81 C 1.0998(6) 0.9448(13) 0.2868(3)
H134 H 1.1469 0.9822 0.2972
H135 H 1.1033 0.9318 0.2597
H136 H 1.0919 0.8656 0.2991
C85 C 1.0551(7) 1.1645(14) 0.2811(3)
H140 H 1.0133 1.2215 0.2850
H141 H 1.0658 1.1637 0.2544
H142 H 1.1003 1.1913 0.2961
C86 C 0.7876(6) 1.1139(13) 0.6906(3)
H143 H 0.8107 1.1838 0.7055
C87 C 0.7431(7) 1.0230(11) 0.7134(3)
H144 H 0.7122 1.0668 0.7315
H145 H 0.7777 0.9652 0.7274
C88 C 0.7123(7) 1.0176(11) 0.6439(3)
C91 C 0.6547(6) 0.9749(11) 0.6128(2)
C92 C 0.8447(7) 1.0353(13) 0.6702(3)
H151 H 0.8729 0.9793 0.6880
H152 H 0.8813 1.0877 0.6575
C93 C 0.7929(7) 0.9607(16) 0.6408(3)
C94 C 0.9447(6) 0.8608(11) 0.3002(3)
H153 H 0.8906 0.8376 0.3012
H154 H 0.9727 0.7923 0.2890
C95 C 0.3504(6) 1.1034(10) 0.5203(3)
H155 H 0.3758 1.0945 0.5457
H156 H 0.3030 1.1503 0.5229
C96 C 0.6778(9) 1.6335(15) 0.2603(3)
N1 N 1.1285(5) 0.9738(8) 0.5494(2)
N2 N 0.4561(5) 0.9772(9) 0.4756(2)
N3 N 1.0248(5) 1.0195(10) 0.5920(2)
N4 N 0.9935(5) 0.9745(9) 0.5241(2)
N5 N 0.8085(4) 0.9712(9) 0.4407(2)
N6 N 0.6678(5) 0.9783(9) 0.4430(2)
N7 N 0.7277(5) 1.0178(9) 0.3831(2)
N8 N 0.4017(4) 1.1743(9) 0.49532(19)
N13 N 1.0585(4) 1.1719(9) 0.5434(2)
N14 N 0.3448(5) 1.0600(9) 0.4402(2)
N15 N 0.7414(4) 1.1713(8) 0.43560(18)
N16 N 0.3318(5) 0.9777(9) 0.5045(2)
O7 O 0.9832(4) 1.0302(7) 0.42359(18)
O8 O 1.0900(3) 0.8917(6) 0.41387(15)
O9 O 1.1143(3) 1.0996(6) 0.43777(16)
O10 O 0.5977(4) 1.5451(8) 0.38346(18)
O11 O 0.7165(4) 1.6537(7) 0.40118(18)
O12 O 0.7196(4) 1.4394(7) 0.38078(19)
O13 O 0.7414(4) 1.0446(8) 0.55650(19)
O14 O 0.6301(4) 1.1755(8) 0.56719(19)
O15 O 0.6120(4) 0.9675(8) 0.54052(19)
O18 O 0.7098(7) 1.7342(8) 0.2600(2)
O20 O 0.8127(5) 0.8731(10) 0.6222(2)
O21 O 0.9176(4) 1.1904(6) 0.35332(17)
S4 S 0.67966(15) 1.5575(3) 0.37728(6)
S5 S 1.06278(15) 1.0217(3) 0.41389(7)
S6 S 0.65994(15) 1.0473(3) 0.56573(7)
Ag1 Ag 0.57269(4) 0.86536(8) 0.474358(19)
Ag2 Ag 0.91992(4) 0.88079(9) 0.47275(2)
Ag3 Ag 0.74938(4) 1.37865(8) 0.45435(2)
N1A N 0.8715(5) 1.4738(8) 0.4506(2)
N8A N 0.5983(4) 0.6743(9) 0.50468(19)
N13A N 0.9415(4) 0.6719(9) 0.4566(2)
N16A N 0.6682(5) 1.4777(9) 0.4955(2)
Ag1A Ag 0.42731(4) 1.36536(8) 0.525642(19)
Ag2A Ag 1.08008(4) 1.38079(9) 0.52725(2)
Ag3A Ag 1.25062(4) 0.87865(8) 0.54565(2)
Ag3A_2 Ag 0.25062(4) 0.87865(8) 0.54565(2)
C3 C 0.3086(11) 0.9643(17) 0.2412(5)
C4 C 0.3313(9) 1.0395(17) 0.2751(3)
H6 H 0.3732 1.0009 0.2905
H7 H 0.2880 1.0554 0.2910
C16 C 0.2506(8) 1.1413(13) 0.2075(3)
H30 H 0.2462 1.1901 0.1840
H31 H 0.2010 1.1024 0.2115
C19 C 0.2002(5) 1.6299(10) 0.0987(2)
H36 H 0.2027 1.7190 0.1046
H37 H 0.1551 1.5957 0.1102
C20 C -0.1365(6) 1.4726(11) -0.0399(3)
H38 H -0.1540 1.4693 -0.0140
H39 H -0.1750 1.4317 -0.0569
C22 C 0.1877(6) 1.4764(11) 0.0493(3)
H40 H 0.1434 1.4410 0.0613
H41 H 0.1810 1.4615 0.0219
C23 C 0.2238(6) 1.4631(12) -0.1988(3)
H42 H 0.2219 1.4412 -0.2261
C26 C 0.4738(5) 1.9794(11) -0.0079(3)
H45 H 0.5005 1.9863 0.0172
H46 H 0.5075 1.9347 -0.0245
C27 C 0.3398(6) 1.5834(11) -0.1114(3)
H47 H 0.3360 1.6744 -0.1116
H48 H 0.3902 1.5617 -0.1203
C29 C 0.3266(5) 1.4684(10) 0.0475(3)
H51 H 0.3232 1.4545 0.0200
H52 H 0.3730 1.4269 0.0580
C30 C -0.0134(6) 1.5341(13) 0.1653(3)
C31 C 0.3364(5) 1.6200(10) 0.0975(3)
H53 H 0.3826 1.5783 0.1082
H54 H 0.3410 1.7087 0.1037
C32 C 0.3514(6) 1.9784(11) 0.0199(3)
H55 H 0.3768 1.9862 0.0453
H56 H 0.3037 1.9320 0.0225
C33 C -0.0346(6) 1.4165(11) -0.0800(3)
H57 H -0.0717 1.3752 -0.0977
H58 H 0.0143 1.3726 -0.0812
C34 C -0.0692(5) 1.6649(11) -0.0256(2)
H59 H -0.0872 1.6608 0.0002
H60 H -0.0633 1.7529 -0.0321
C35 C 0.2962(5) 2.0906(11) -0.0341(2)
H61 H 0.2472 2.0473 -0.0326
H62 H 0.2856 2.1733 -0.0449
C36 C 0.2086(6) 1.6163(12) -0.1504(3)
C37 C -0.0025(6) 1.4682(11) -0.0155(3)
H63 H 0.0467 1.4252 -0.0168
H64 H -0.0182 1.4627 0.0107
C38 C 0.4057(5) 2.1740(11) 0.0015(3)
H65 H 0.4311 2.1849 0.0268
H66 H 0.3946 2.2568 -0.0091
C39 C 0.2370(6) 1.4008(12) -0.1314(3)
H67 H 0.2741 1.3411 -0.1201
H68 H 0.1957 1.4125 -0.1141
C40 C 0.0416(7) 1.6437(12) 0.1769(3)
C41 C 0.0324(5) 1.6077(11) -0.0663(2)
H69 H 0.0387 1.6946 -0.0739
H70 H 0.0820 1.5659 -0.0675
C43 C 0.2774(6) 1.5309(11) -0.1408(3)
C44 C 0.2666(6) 1.4335(11) 0.1063(3)
H73 H 0.3138 1.3938 0.1165
H74 H 0.2235 1.3948 0.1183
C45 C 0.4163(5) 2.0895(11) -0.0624(2)
H75 H 0.4052 2.1712 -0.0738
H76 H 0.4493 2.0442 -0.0792
C46 C 0.3626(5) 1.8978(11) -0.0428(2)
H77 H 0.3954 1.8523 -0.0597
H78 H 0.3150 1.8504 -0.0412
C48 C 0.2626(5) 1.6650(12) 0.0394(3)
H79 H 0.2585 1.6520 0.0119
H80 H 0.2659 1.7548 0.0441
C50 C -0.0346(6) 1.4950(11) 0.2067(3)
C51 C -0.1012(5) 1.6109(11) -0.0903(2)
H83 H -0.0966 1.6974 -0.0987
H84 H -0.1392 1.5696 -0.1075
C52 C 0.4077(8) 1.2237(15) 0.1922(3)
H85 H 0.4233 1.1882 0.1686
H86 H 0.4502 1.2694 0.2044
H87 H 0.3649 1.2796 0.1870
C54 C 0.3042(5) 1.5062(9) -0.1821(3)
C56 C 0.3173(7) 1.0352(11) 0.2051(3)
C57 C -0.0821(7) 1.3739(12) 0.2073(3)
H90 H -0.1338 1.3902 0.1970
H91 H -0.0839 1.3446 0.2332
H92 H -0.0586 1.3110 0.1921
C58 C 0.2753(7) 1.2255(13) 0.2417(3)
H93 H 0.2379 1.2243 0.2613
H94 H 0.2842 1.3115 0.2338
C62 C 0.3354(7) 1.6219(11) -0.1998(3)
H99 H 0.3852 1.6415 -0.1878
H100 H 0.3007 1.6908 -0.1964
H101 H 0.3405 1.6079 -0.2267
C65 C -0.0802(8) 1.6002(12) 0.2268(3)
H104 H -0.1318 1.6053 0.2153
H105 H -0.0545 1.6793 0.2240
H106 H -0.0825 1.5807 0.2536
C66 C 0.0432(6) 1.4228(11) 0.1562(3)
H107 H 0.0147 1.3514 0.1454
H108 H 0.0808 1.4494 0.1383
C68 C 0.3656(6) 1.4047(10) -0.1829(3)
H111 H 0.4138 1.4370 -0.1720
H112 H 0.3717 1.3792 -0.2089
H113 H 0.3501 1.3337 -0.1681
C69 C -0.0758(5) 1.5630(11) 0.1373(2)
H114 H -0.0921 1.6487 0.1418
H115 H -0.1190 1.5088 0.1425
C70 C 0.3839(7) 1.1202(13) 0.2183(3)
C73 C 0.3562(8) 1.1538(13) 0.2557(3)
H119 H 0.3922 1.2062 0.2714
C74 C 0.1724(6) 1.5758(10) -0.1887(3)
H120 H 0.1747 1.6424 -0.2076
H121 H 0.1190 1.5504 -0.1867
C78 C 0.0860(8) 1.6070(14) 0.2151(3)
H130 H 0.1413 1.6015 0.2121
H131 H 0.0761 1.6660 0.2354
C82 C 0.0508(6) 1.4776(12) 0.2225(3)
H137 H 0.0560 1.4508 0.2494
C83 C 0.3072(7) 0.9605(12) 0.1697(3)
C84 C 0.0831(6) 1.3897(13) 0.1958(3)
H138 H 0.0718 1.3036 0.2028
H139 H 0.1387 1.3999 0.1954
C89 C 0.4561(7) 1.0363(18) 0.2261(5)
H146 H 0.4760 1.0111 0.2022
H147 H 0.4420 0.9631 0.2402
H148 H 0.4949 1.0827 0.2409
C90 C 0.2044(6) 1.3562(11) -0.1725(3)
H149 H 0.2292 1.2789 -0.1799
H150 H 0.1490 1.3428 -0.1728
N9 N 0.2691(5) 1.5689(9) 0.1157(2)
N10 N 0.1905(5) 1.6145(8) 0.0565(2)
N11 N 0.3329(4) 1.6053(9) 0.0552(2)
N12 N 0.2584(5) 1.4122(8) 0.0644(2)
N17 N 0.3321(4) 2.1053(9) 0.0051(2)
N18 N 0.4015(4) 1.9060(9) -0.0045(2)
N19 N 0.3445(5) 2.0209(9) -0.0595(2)
N20 N 0.4589(4) 2.1073(8) -0.0235(2)
N21 N -0.1273(5) 1.6089(9) -0.0521(2)
N22 N 0.0068(5) 1.6026(8) -0.0261(2)
N23 N -0.0609(4) 1.4058(8) -0.04149(19)
N24 N -0.0246(5) 1.5463(9) -0.0926(2)
O1 O 0.2806(5) 1.1440(8) 0.1185(2)
O2 O 0.4033(4) 1.0354(9) 0.1190(2)
O3 O 0.2868(5) 0.9234(8) 0.0981(2)
O4 O 0.3893(4) 1.6135(8) -0.0422(2)
O5 O 0.2570(4) 1.5417(8) -0.05265(18)
O6 O 0.3629(5) 1.4009(8) -0.0636(2)
O16 O 0.2834(7) 0.8510(16) 0.2395(3)
O17 O 0.1907(4) 1.7053(12) -0.1313(2)
O19 O 0.0447(5) 1.7400(7) 0.1607(2)
O22 O -0.0602(4) 1.4121(6) 0.07947(18)
O23 O -0.1234(3) 1.6115(7) 0.06690(17)
O24 O 0.0166(4) 1.6035(7) 0.08092(18)
S1 S 0.33614(16) 1.5319(3) -0.06383(7)
S2 S 0.32029(16) 1.0232(3) 0.12301(7)
S3 S -0.05849(15) 1.5485(3) 0.08725(7)
Ag4 Ag 0.42756(4) 1.71415(8) 0.024688(19)
Ag5 Ag 0.08293(4) 1.70001(9) 0.02210(2)
Ag6 Ag 0.25101(4) 1.20113(8) 0.04716(2)
N17_2 N 0.3321(4) 1.1053(9) 0.0051(2)
N20A N 0.5411(4) 1.6073(8) 0.0235(2)
N21A N 0.1273(5) 1.1089(9) 0.0521(2)
N23A N 0.0609(4) 1.9058(8) 0.04149(19)
Ag4A Ag 0.57244(4) 2.21415(8) -0.024688(19)
Ag5A Ag -0.08293(4) 1.20001(9) -0.02210(2)
Ag6_2 Ag 0.25101(4) 2.20113(8) 0.04716(2)
Ag6A Ag -0.25101(4) 1.70113(8) -0.04716(2)
O25 O 0.5130(4) 0.7521(8) 0.4041(2)
O26 O 0.4910(4) 0.8343(9) 0.0931(2)
O27 O 0.8228(4) 0.2478(8) 0.53153(19)
O28 O 0.1785(4) 0.7868(8) 0.9627(2)
O29 O 0.1690(4) 0.3304(8) 0.9675(2)
O30 O 0.4594(4) 0.7950(10) 0.5934(2)
O31 O 0.4590(4) 0.2871(9) 0.0926(2)
O32 O 0.8191(4) 0.8128(8) 0.53242(19)
O33 O 0.4407(4) 0.1698(10) 0.3527(2)
O34 O 0.5026(5) 0.1569(10) 0.8425(2)
O35 O 0.5048(5) 0.9293(10) 0.3366(2)
O36 O 0.7193(5) 0.4453(9) 0.1350(2)
O37 O 0.6597(5) 0.9529(10) 0.3064(2)
O38 O 0.3436(7) 0.6385(12) 0.1918(3)
O39 O -0.0308(5) 0.5190(9) 0.8220(2)
O40 O 0.4411(4) 0.9114(10) -0.1450(2)
O41 O 0.7229(5) 0.6439(9) 0.6330(2)
loop_
_geom_bond_atom_site_label_1
_geom_bond_atom_site_label_2
_geom_bond_site_symmetry_1
_geom_bond_site_symmetry_2
C1 H1 1_555 1_555
H2 C1 1_555 1_555
C2 H3 1_555 1_555
H4 C2 1_555 1_555
H5 C2 1_555 1_555
C3 C4 1_555 1_555
C4 H6 1_555 1_555
H7 C4 1_555 1_555
C5 H8 1_555 1_555
H9 C5 1_555 1_555
C6 H10 1_555 1_555
H11 C6 1_555 1_555
C7 H12 1_555 1_555
H13 C7 1_555 1_555
C8 H14 1_555 1_555
H15 C8 1_555 1_555
C9 H16 1_555 1_555
H17 C9 1_555 1_555
C10 H18 1_555 1_555
H19 C10 1_555 1_555
C11 H20 1_555 1_555
H21 C11 1_555 1_555
C12 H22 1_555 1_555
H23 C12 1_555 1_555
C13 H24 1_555 1_555
H25 C13 1_555 1_555
C14 H26 1_555 1_555
H27 C14 1_555 1_555
C15 H28 1_555 1_555
H29 C15 1_555 1_555
C16 H30 1_555 1_555
H31 C16 1_555 1_555
C17 H32 1_555 1_555
H33 C17 1_555 1_555
C18 H34 1_555 1_555
H35 C18 1_555 1_555
C19 H36 1_555 1_555
H37 C19 1_555 1_555
C20 H38 1_555 1_555
H39 C20 1_555 1_555
C21 C25 1_555 1_555
C22 H40 1_555 1_555
H41 C22 1_555 1_555
C23 H42 1_555 1_555
C24 H43 1_555 1_555
H44 C24 1_555 1_555
C25 C64 1_555 1_555
C26 H45 1_555 1_555
H46 C26 1_555 1_555
C27 H47 1_555 1_555
H48 C27 1_555 1_555
C28 H49 1_555 1_555
H50 C28 1_555 1_555
C29 H51 1_555 1_555
H52 C29 1_555 1_555
C30 C40 1_555 1_555
C31 H53 1_555 1_555
H54 C31 1_555 1_555
C32 H55 1_555 1_555
H56 C32 1_555 1_555
C33 H57 1_555 1_555
H58 C33 1_555 1_555
C34 H59 1_555 1_555
H60 C34 1_555 1_555
C35 H61 1_555 1_555
H62 C35 1_555 1_555
C36 C43 1_555 1_555
C37 H63 1_555 1_555
H64 C37 1_555 1_555
C38 H65 1_555 1_555
H66 C38 1_555 1_555
C39 H67 1_555 1_555
H68 C39 1_555 1_555
C40 C78 1_555 1_555
C41 H69 1_555 1_555
H70 C41 1_555 1_555
C42 H71 1_555 1_555
H72 C42 1_555 1_555
C43 C27 1_555 1_555
C44 H73 1_555 1_555
H74 C44 1_555 1_555
C45 H75 1_555 1_555
H76 C45 1_555 1_555
C46 H77 1_555 1_555
H78 C46 1_555 1_555
C47 C24 1_555 1_555
C48 H79 1_555 1_555
H80 C48 1_555 1_555
C49 C21 1_555 1_555
H81 C49 1_555 1_555
H82 C49 1_555 1_555
C50 C30 1_555 1_555
C51 H83 1_555 1_555
H84 C51 1_555 1_555
C52 H85 1_555 1_555
H86 C52 1_555 1_555
H87 C52 1_555 1_555
C53 H88 1_555 1_555
H89 C53 1_555 1_555
C54 C23 1_555 1_555
C55 C21 1_555 1_555
C56 C3 1_555 1_555
C57 C50 1_555 1_555
H90 C57 1_555 1_555
H91 C57 1_555 1_555
H92 C57 1_555 1_555
C58 C16 1_555 1_555
H93 C58 1_555 1_555
H94 C58 1_555 1_555
C59 H95 1_555 1_555
H96 C59 1_555 1_555
C60 C47 1_555 1_555
C61 H97 1_555 1_555
H98 C61 1_555 1_555
C62 C54 1_555 1_555
H99 C62 1_555 1_555
H100 C62 1_555 1_555
H101 C62 1_555 1_555
C63 C28 1_555 1_555
H102 C63 1_555 1_555
C64 H103 1_555 1_555
C65 C50 1_555 1_555
H104 C65 1_555 1_555
H105 C65 1_555 1_555
H106 C65 1_555 1_555
C66 C30 1_555 1_555
H107 C66 1_555 1_555
H108 C66 1_555 1_555
C67 C47 1_555 1_555
H109 C67 1_555 1_555
H110 C67 1_555 1_555
C68 C54 1_555 1_555
H111 C68 1_555 1_555
H112 C68 1_555 1_555
H113 C68 1_555 1_555
C69 C30 1_555 1_555
H114 C69 1_555 1_555
H115 C69 1_555 1_555
C70 C52 1_555 1_555
C71 H116 1_555 1_555
H117 C71 1_555 1_555
H118 C71 1_555 1_555
C72 C21 1_555 1_555
C73 C4 1_555 1_555
H119 C73 1_555 1_555
C74 C23 1_555 1_555
H120 C74 1_555 1_555
H121 C74 1_555 1_555
C75 C60 1_555 1_555
H122 C75 1_555 1_555
H123 C75 1_555 1_555
H124 C75 1_555 1_555
C76 C60 1_555 1_555
H125 C76 1_555 1_555
H126 C76 1_555 1_555
H127 C76 1_555 1_555
C77 C55 1_555 1_555
H128 C77 1_555 1_555
H129 C77 1_555 1_555
C78 H130 1_555 1_555
H131 C78 1_555 1_555
C79 C2 1_555 1_555
C80 C63 1_555 1_555
H132 C80 1_555 1_555
H133 C80 1_555 1_555
C81 C25 1_555 1_555
H134 C81 1_555 1_555
H135 C81 1_555 1_555
H136 C81 1_555 1_555
C82 C50 1_555 1_555
H137 C82 1_555 1_555
C83 C56 1_555 1_555
C84 C66 1_555 1_555
H138 C84 1_555 1_555
H139 C84 1_555 1_555
C85 C25 1_555 1_555
H140 C85 1_555 1_555
H141 C85 1_555 1_555
H142 C85 1_555 1_555
C86 C79 1_555 1_555
H143 C86 1_555 1_555
C87 C61 1_555 1_555
H144 C87 1_555 1_555
H145 C87 1_555 1_555
C88 C61 1_555 1_555
C89 C70 1_555 1_555
H146 C89 1_555 1_555
H147 C89 1_555 1_555
H148 C89 1_555 1_555
C90 C23 1_555 1_555
H149 C90 1_555 1_555
H150 C90 1_555 1_555
C91 C88 1_555 1_555
C92 C86 1_555 1_555
H151 C92 1_555 1_555
H152 C92 1_555 1_555
C93 C88 1_555 1_555
C94 C49 1_555 1_555
H153 C94 1_555 1_555
H154 C94 1_555 1_555
C95 H155 1_555 1_555
H156 C95 1_555 1_555
C96 C28 1_555 1_555
N1 C5 1_555 1_555
N2 C17 1_555 1_555
N3 C1 1_555 1_555
N4 C1 1_555 1_555
N5 C9 1_555 1_555
N6 C7 1_555 1_555
N7 C7 1_555 1_555
N8 C17 1_555 1_555
N9 C19 1_555 1_555
N10 C19 1_555 1_555
N11 C29 1_555 1_555
N12 C22 1_555 1_555
N13 C6 1_555 1_555
N14 C18 1_555 1_555
N15 C8 1_555 1_555
N16 C42 1_555 1_555
N17 C32 1_555 1_555
N18 C26 1_555 1_555
N19 C35 1_555 1_555
N20 C26 1_555 1_555
N21 C20 1_555 1_555
N22 C34 1_555 1_555
N23 C20 1_555 1_555
N24 C33 1_555 1_555
O1 S2 1_555 1_555
O2 S2 1_555 1_555
O3 S2 1_555 1_555
O4 S1 1_555 1_555
O5 S1 1_555 1_555
O6 S1 1_555 1_555
O7 S5 1_555 1_555
O8 S5 1_555 1_555
O9 S5 1_555 1_555
O10 S4 1_555 1_555
O11 S4 1_555 1_555
O12 S4 1_555 1_555
O13 S6 1_555 1_555
O14 S6 1_555 1_555
O15 S6 1_555 1_555
O16 C3 1_555 1_555
O17 C36 1_555 1_555
O18 C96 1_555 1_555
O19 C40 1_555 1_555
O20 C93 1_555 1_555
O21 C55 1_555 1_555
O22 S3 1_555 1_555
O23 S3 1_555 1_555
O24 S3 1_555 1_555
S1 C27 1_555 1_555
S2 C83 1_555 1_555
S3 C69 1_555 1_555
S4 C24 1_555 1_555
S5 C72 1_555 1_555
S6 C91 1_555 1_555
Ag1 N2 1_555 1_555
Ag2 N4 1_555 1_555
Ag3 N15 1_555 1_555
Ag4 N11 1_555 1_555
Ag5 N10 1_555 1_555
Ag6 N12 1_555 1_555
N1A Ag3 1_555 1_555
N8A Ag1 1_555 1_555
N13A Ag2 1_555 1_555
N16A Ag3 1_555 1_555
N17_2 Ag6 1_555 1_555
N20A Ag4 1_555 1_555
N21A Ag6 1_555 1_555
N23A Ag5 1_555 1_555
Ag1A N8 1_555 1_555
Ag2A N13 1_555 1_555
Ag3A N1 1_555 1_555
Ag3A_2 N16 1_555 1_555
Ag4A N20 1_555 1_555
Ag5A N23 1_555 1_555
Ag6_2 N17 1_555 1_555
Ag6A N21 1_555 1_555
C5 N4 1_555 1_555
C6 N4 1_555 1_555
C8 N6 1_555 1_555
C9 N6 1_555 1_555
C10 N7 1_555 1_555
C10 N15 1_555 1_555
C11 N5 1_555 1_555
C11 N7 1_555 1_555
C12 N5 1_555 1_555
C12 N15 1_555 1_555
C13 N1 1_555 1_555
C13 N3 1_555 1_555
C14 N3 1_555 1_555
C14 N13 1_555 1_555
C15 N1 1_555 1_555
C15 N13 1_555 1_555
C16 C56 1_555 1_555
C18 N8 1_555 1_555
C22 N10 1_555 1_555
C29 N12 1_555 1_555
C31 N9 1_555 1_555
C31 N11 1_555 1_555
C32 N18 1_555 1_555
C33 N23 1_555 1_555
C34 N21 1_555 1_555
C35 N17 1_555 1_555
C36 C74 1_555 1_555
C37 N22 1_555 1_555
C37 N23 1_555 1_555
C38 N17 1_555 1_555
C38 N20 1_555 1_555
C39 C43 1_555 1_555
C39 C90 1_555 1_555
C41 N22 1_555 1_555
C41 N24 1_555 1_555
C42 N2 1_555 1_555
C43 C54 1_555 1_555
C44 N9 1_555 1_555
C44 N12 1_555 1_555
C45 N19 1_555 1_555
C45 N20 1_555 1_555
C46 N18 1_555 1_555
C46 N19 1_555 1_555
C47 C96 1_555 1_555
C48 N10 1_555 1_555
C48 N11 1_555 1_555
C51 N21 1_555 1_555
C51 N24 1_555 1_555
C53 N14 1_555 1_555
C53 N16 1_555 1_555
C56 C70 1_555 1_555
C58 C73 1_555 1_555
C59 N2 1_555 1_555
C59 N14 1_555 1_555
C60 C63 1_555 1_555
C64 C77 1_555 1_555
C64 C94 1_555 1_555
C67 C80 1_555 1_555
C70 C73 1_555 1_555
C71 C79 1_555 1_555
C78 C82 1_555 1_555
C79 C88 1_555 1_555
C82 C84 1_555 1_555
C86 C87 1_555 1_555
C92 C93 1_555 1_555
C95 N8 1_555 1_555
C95 N16 1_555 1_555
N5 Ag2 1_555 1_555
N6 Ag1 1_555 1_555
N18 Ag4 1_555 1_555
N22 Ag5 1_555 1_555
O1 Ag6 1_555 1_555
O4 Ag4 1_555 1_555
O7 Ag2 1_555 1_555
O12 Ag3 1_555 1_555
O15 Ag1 1_555 1_555
O24 Ag5 1_555 1_555

#END
