
#######################################################################
#
#                 Cambridge Crystallographic Data Centre
#                                CCDC 
#
#######################################################################
#
# If this CIF has been generated from an entry in the Cambridge 
# Structural Database, then it will include bibliographic, chemical, 
# crystal, experimental, refinement or atomic coordinate data resulting 
# from the CCDC's data processing and validation procedures.
#
#######################################################################

data_WAGRUS
_symmetry_cell_setting           hexagonal
_symmetry_space_group_name_H-M   'P 61'
_symmetry_Int_Tables_number      169
_space_group_name_Hall           'P 61'
loop_
_symmetry_equiv_pos_site_id
_symmetry_equiv_pos_as_xyz
1 x,y,z
2 x-y,x,1/6+z
3 -y,x-y,1/3+z
4 -x,-y,1/2+z
5 -x+y,-x,2/3+z
6 y,-x+y,5/6+z
_cell_length_a                   11.045(1)
_cell_length_b                   11.045(1)
_cell_length_c                   18.823(1)
_cell_angle_alpha                90
_cell_angle_beta                 90
_cell_angle_gamma                120
_cell_volume                     1988.62
loop_
_atom_site_label
_atom_site_type_symbol
_atom_site_fract_x
_atom_site_fract_y
_atom_site_fract_z
Fe1 Fe 0.642(1) -0.195(1) 0.078(1)
Fe2 Fe 0.812(1) -0.053(1) 0.255(1)
O1 O 0.807(2) -0.048(2) 0.143(1)
O2 O 0.624(4) -0.210(3) 0.226(4)
O3 O 0.492(3) -0.223(4) 0.160(1)
O4 O -0.024(4) -0.830(4) 0.189(2)
O5 O 0.018(4) -0.919(2) 0.273(3)
O6 O 0.678(2) -0.358(3) 0.091(1)
O7 O 0.693(3) -0.260(4) -0.012(1)
O8 O 0.445(4) -0.258(4) 0.034(2)
O9 O 0.584(3) -0.068(2) 0.081(2)
O10 O 0.699(2) 0.048(3) 0.257(1)
C1 C 0.500(4) -0.244(4) 0.220(1)
C2 C 0.025(8) -0.818(2) 0.245(2)
C3 C 0.141(5) -0.669(5) 0.252(1)
C4 C 0.134(3) -0.567(2) 0.215(1)
C5 C 0.262(3) -0.451(7) 0.192(1)
C6 C 0.380(2) -0.400(3) 0.237(1)
C7 C 0.349(7) -0.474(2) 0.303(2)
C8 C 0.233(6) -0.614(10) 0.310(2)
C9 C 0.715(2) -0.346(5) 0.024(2)
C10 C 0.451(2) -0.148(3) 0.059(1)
C11 C 0.545(6) -0.003(6) 0.255(1)
C12 C 0.876(11) -0.272(7) 0.025(2)
C13 C 0.338(3) -0.153(8) 0.106(1)
O1A O 0.855(3) -0.193(2) 0.310(1)
O4A O 0.806(6) -0.024(4) 0.356(2)
O5_2 O 1.018(4) 0.081(2) 0.273(3)
Fe2E Fe 0.947(1) 0.135(1) 0.088(1)
Fe2E_2 Fe -0.053(1) -0.865(1) 0.088(1)
Fe2_2 Fe -0.188(1) -1.053(1) 0.255(1)
O11 O 0.096(1) -0.276(3) 0.791(2)
C14 C 0.154(4) -0.269(6) 0.722(4)
loop_
_geom_bond_atom_site_label_1
_geom_bond_atom_site_label_2
_geom_bond_site_symmetry_1
_geom_bond_site_symmetry_2
Fe1 O1 1_555 1_555
Fe2 O1 1_555 1_555
O1 Fe2E 1_555 1_555
O2 Fe2 1_555 1_555
O3 Fe1 1_555 1_555
O4 C2 1_555 1_555
O5 C2 1_555 1_555
O6 Fe1 1_555 1_555
O7 Fe1 1_555 1_555
O8 Fe1 1_555 1_555
O9 Fe1 1_555 1_555
O10 Fe2 1_555 1_555
O11 C14 1_555 1_555
C1 O2 1_555 1_555
C2 C3 1_555 1_555
C3 C4 1_555 1_555
C4 C5 1_555 1_555
C5 C6 1_555 1_555
C6 C1 1_555 1_555
C7 C6 1_555 1_555
C8 C3 1_555 1_555
C9 O6 1_555 1_555
C10 O8 1_555 1_555
C11 O10 1_555 1_555
C12 C9 1_555 1_555
C13 C10 1_555 1_555
O1A Fe2 1_555 1_555
O4A Fe2 1_555 1_555
O5_2 Fe2 1_555 1_555
Fe2E_2 O4 1_555 1_555
Fe2_2 O5 1_555 1_555
O3 C1 1_555 1_555
O7 C9 1_555 1_555
O9 C10 1_555 1_555
C7 C8 1_555 1_555

#END
