
#######################################################################
#
#                 Cambridge Crystallographic Data Centre
#                                CCDC 
#
#######################################################################
#
# If this CIF has been generated from an entry in the Cambridge 
# Structural Database, then it will include bibliographic, chemical, 
# crystal, experimental, refinement or atomic coordinate data resulting 
# from the CCDC's data processing and validation procedures.
#
#######################################################################

data_WAHMUP
_symmetry_cell_setting           triclinic
_symmetry_space_group_name_H-M   'P -1'
_symmetry_Int_Tables_number      2
_space_group_name_Hall           '-P 1'
loop_
_symmetry_equiv_pos_site_id
_symmetry_equiv_pos_as_xyz
1 x,y,z
2 -x,-y,-z
_cell_length_a                   8.2120(14)
_cell_length_b                   10.6380(18)
_cell_length_c                   13.506(2)
_cell_angle_alpha                97.538(2)
_cell_angle_beta                 90.294(2)
_cell_angle_gamma                108.6110(19)
_cell_volume                     1107.12
loop_
_atom_site_label
_atom_site_type_symbol
_atom_site_fract_x
_atom_site_fract_y
_atom_site_fract_z
Mo1 Mo -0.44954(7) 0.37446(5) 0.05634(4)
Mo2 Mo -0.03762(7) 0.59448(5) 0.21890(4)
Mo3 Mo 0.16428(7) 0.38725(5) 0.05243(4)
Mo4 Mo -0.43200(7) 0.61142(6) 0.22335(4)
Cu1 Cu 0.0000 0.5000 0.5000
Cu2 Cu -0.5000 0.0000 0.0000
N1 N 0.4684(8) 0.7839(6) 0.5895(5)
C1 C 0.5317(10) 0.9473(7) 0.4722(6)
H1 H 0.5164 0.9458 0.4007
H2 H 0.6533 0.9673 0.4885
N2 N -0.3242(7) 0.0278(5) 0.1064(4)
N3 N 0.1565(7) 0.1948(5) 0.3541(4)
N4 N -0.1214(7) 0.0131(6) 0.2015(4)
C2 C 0.1834(9) 0.1066(7) 0.2676(5)
H3 H 0.2812 0.0787 0.2826
H4 H 0.2102 0.1560 0.2111
O1 O -0.3223(7) 0.1104(5) -0.0910(4)
O2 O -0.1877(6) 0.7012(4) 0.2381(3)
O3 O -0.5236(6) 0.2075(4) 0.0686(3)
O4 O 0.0432(6) 0.4530(4) 0.1492(3)
O5 O -0.6264(5) 0.3873(4) -0.0368(3)
O6 O 0.1478(6) 0.7266(5) 0.2352(4)
O7 O -0.6121(5) 0.4553(4) 0.1479(3)
O8 O -0.4989(6) 0.7454(5) 0.2093(4)
O9 O 0.1109(6) 0.2251(4) 0.0734(3)
O10 O -0.0485(6) 0.5370(4) 0.3326(3)
O11 O -0.2879(5) 0.3916(4) -0.0280(3)
O12 O -0.3083(5) 0.4585(4) 0.1714(3)
O13 O -0.4781(7) 0.5804(5) 0.3408(4)
O14 O -0.0479(5) 0.6282(5) 0.0598(3)
C3 C -0.1968(9) -0.0224(7) 0.1120(6)
H5 H -0.1655 -0.0751 0.0600
N5 N 0.4355(8) 0.8179(6) 0.5000(4)
C4 C 0.1287(9) 0.3099(7) 0.3569(5)
H6 H 0.1334 0.3567 0.3029
N6 N 0.2346(7) 0.6324(6) 0.5115(4)
N7 N 0.0917(8) 0.3497(6) 0.4519(4)
C5 C 0.0273(9) -0.0165(7) 0.2394(6)
H7 H 0.0578 -0.0775 0.1888
H8 H -0.0045 -0.0616 0.2977
C6 C 0.1021(10) 0.2474(7) 0.5001(6)
H9 H 0.0848 0.2460 0.5680
N8 N -0.1986(9) 0.0891(7) 0.2624(5)
C7 C 0.3440(9) 0.6724(8) 0.5934(6)
H10 H 0.3315 0.6247 0.6474
C8 C 0.2989(9) 0.7260(7) 0.4541(5)
H11 H 0.2544 0.7268 0.3908
C9 C -0.3184(11) 0.0950(8) 0.1983(6)
H12 H -0.3934 0.1428 0.2160
N9 N 0.1392(9) 0.1495(6) 0.4419(5)
Mo1A Mo -0.55046(7) -0.37446(5) -0.05634(4)
Mo1A_2 Mo -0.55046(7) 0.62554(5) -0.05634(4)
Mo1A_3 Mo 0.44954(7) 0.62554(5) 0.94366(4)
Mo1_2 Mo 0.55046(7) 0.37446(5) 0.05634(4)
Mo1A_4 Mo 0.44954(7) 0.62554(5) -0.05634(4)
Mo2A Mo 0.03762(7) 0.40552(5) 0.78110(4)
Mo3A Mo -0.16428(7) 0.61275(5) 0.94757(4)
Mo3_2 Mo -0.83572(7) 0.38725(5) 0.05243(4)
Mo3A_2 Mo -0.16428(7) 0.61275(5) -0.05243(4)
Mo3_3 Mo 0.16428(7) 0.38725(5) 1.05243(4)
Mo4A Mo 0.43200(7) 0.38858(6) 0.77665(4)
Mo4_2 Mo 0.56800(7) 0.61142(6) 0.22335(4)
Cu1_2 Cu 1.0000 1.5000 0.5000
Cu2_2 Cu 0.5000 1.0000 1.0000
N1A N 0.5316(8) 1.2161(6) 0.4105(5)
C1A C 0.4683(10) 1.0527(7) 0.5278(6)
H1A H 0.4836 1.0542 0.5993
H2A H 0.3467 1.0327 0.5115
N2A N 0.3242(7) 0.9722(5) 0.8936(4)
N2A_2 N -0.6758(7) -0.0278(5) -0.1064(4)
N3A N -0.1565(7) 0.8052(5) 0.6459(4)
N4A N 0.1214(7) 0.9869(6) 0.7985(4)
C2A C -0.1834(9) 0.8934(7) 0.7324(5)
H3A H -0.2812 0.9213 0.7174
H4A H -0.2102 0.8440 0.7889
O1A O -0.6777(7) -0.1104(5) 0.0910(4)
O2A O 0.1877(6) 0.2988(4) 0.7619(3)
O3A O -0.4764(6) -0.2075(4) -0.0686(3)
O4A O -0.0432(6) 0.5470(4) 0.8508(3)
O5A O -0.3736(5) 0.6127(4) 0.0368(3)
O5_2 O 0.3736(5) 0.3873(4) -0.0368(3)
O5A_2 O -0.3736(5) -0.3873(4) 0.0368(3)
O5_3 O -0.6264(5) -0.6127(4) -0.0368(3)
O5A_3 O -0.3736(5) 0.6127(4) 1.0368(3)
O6A O -0.1478(6) 0.2734(5) 0.7648(4)
O7_2 O 0.3879(5) 0.4553(4) 0.1479(3)
O7A O -0.3879(5) -0.4553(4) -0.1479(3)
O7A_2 O -0.3879(5) 0.5447(4) 0.8521(3)
O7A_3 O 0.6121(5) 0.5447(4) 0.8521(3)
O8A O 0.4989(6) 0.2546(5) 0.7907(4)
O9A O -0.1109(6) 0.7749(4) 0.9266(3)
O10A O 0.0485(6) 0.4630(4) 0.6674(3)
O11A O 0.2879(5) 0.6084(4) 0.0280(3)
O11A_2 O -0.7121(5) -0.3916(4) 0.0280(3)
O11_2 O -0.2879(5) 0.3916(4) 0.9720(3)
O12A O 0.3083(5) 0.5415(4) 0.8286(3)
O12A_2 O -0.6917(5) -0.4585(4) -0.1714(3)
O13A O 0.4781(7) 0.4196(5) 0.6592(4)
O14A O 0.0479(5) 0.3718(5) 0.9402(3)
O14A_2 O 0.0479(5) 0.3718(5) -0.0598(3)
O14_2 O -0.0479(5) 0.6282(5) 1.0598(3)
C3A C 0.1968(9) 1.0224(7) 0.8880(6)
H5A H 0.1655 1.0751 0.9400
N5A N 0.5645(8) 1.1821(6) 0.5000(4)
C4A C -0.1287(9) 0.6901(7) 0.6431(5)
H6A H -0.1334 0.6433 0.6971
N6A N 0.7654(7) 1.3676(6) 0.4885(4)
N6A_2 N -0.2346(7) 0.3676(6) 0.4885(4)
N7A N -0.0917(8) 0.6503(6) 0.5481(4)
C5A C -0.0273(9) 1.0165(7) 0.7606(6)
H7A H -0.0578 1.0775 0.8112
H8A H 0.0045 1.0616 0.7023
C6A C -0.1021(10) 0.7526(7) 0.4999(6)
H9A H -0.0848 0.7540 0.4320
N8A N 0.1986(9) 0.9109(7) 0.7376(5)
C7A C 0.6560(9) 1.3276(8) 0.4066(6)
H10A H 0.6685 1.3753 0.3526
C8A C 0.7011(9) 1.2740(7) 0.5459(5)
H11A H 0.7456 1.2732 0.6092
C9A C 0.3184(11) 0.9050(8) 0.8017(6)
H12A H 0.3934 0.8572 0.7840
N9A N -0.1392(9) 0.8505(6) 0.5581(5)
loop_
_geom_bond_atom_site_label_1
_geom_bond_atom_site_label_2
_geom_bond_site_symmetry_1
_geom_bond_site_symmetry_2
Mo1 O3 1_555 1_555
Mo2 O2 1_555 1_555
Mo3 O4 1_555 1_555
Mo4 O2 1_555 1_555
Cu1 O10 1_555 1_555
Cu2 N2 1_555 1_555
N1 N5 1_555 1_555
C1 H1 1_555 1_555
H2 C1 1_555 1_555
N2 C3 1_555 1_555
N3 C2 1_555 1_555
N4 C3 1_555 1_555
C2 H3 1_555 1_555
H4 C2 1_555 1_555
O1 Cu2 1_555 1_555
O3 Cu2 1_555 1_555
O4 Mo2 1_555 1_555
O5 Mo1 1_555 1_555
O6 Mo2 1_555 1_555
O7 Mo1 1_555 1_555
O8 Mo4 1_555 1_555
O9 Mo3 1_555 1_555
O10 Mo2 1_555 1_555
O11 Mo1 1_555 1_555
O12 Mo1 1_555 1_555
O13 Mo4 1_555 1_555
O14 Mo2 1_555 1_555
C3 H5 1_555 1_555
N5 C1 1_555 1_555
C4 N3 1_555 1_555
H6 C4 1_555 1_555
N6 Cu1 1_555 1_555
N7 Cu1 1_555 1_555
C5 N4 1_555 1_555
H7 C5 1_555 1_555
H8 C5 1_555 1_555
C6 N7 1_555 1_555
H9 C6 1_555 1_555
N8 N4 1_555 1_555
C7 N1 1_555 1_555
H10 C7 1_555 1_555
C8 N5 1_555 1_555
H11 C8 1_555 1_555
C9 N2 1_555 1_555
H12 C9 1_555 1_555
N9 N3 1_555 1_555
Mo1A O3A 1_555 1_555
Mo1A_2 O5 1_555 1_555
Mo1A_3 O7A_3 1_555 1_555
Mo1_2 O5_2 1_555 1_555
Mo1A_4 O5_2 1_555 1_555
Mo2A O2A 1_555 1_555
Mo3A O4A 1_555 1_555
Mo3_2 O5 1_555 1_555
Mo3A_2 O11 1_555 1_555
Mo3_3 O14A 1_555 1_555
Mo4A O2A 1_555 1_555
Mo4_2 O7_2 1_555 1_555
Cu1_2 N6A 1_555 1_555
Cu2_2 N2A 1_555 1_555
N1A N5A 1_555 1_555
C1A C1 1_555 1_555
H1A C1A 1_555 1_555
H2A C1A 1_555 1_555
N2A C3A 1_555 1_555
N2A_2 Cu2 1_555 1_555
N3A C2A 1_555 1_555
N4A C3A 1_555 1_555
C2A H3A 1_555 1_555
H4A C2A 1_555 1_555
O1A Cu2 1_555 1_555
O3A Cu2 1_555 1_555
O4A Mo2A 1_555 1_555
O5A Mo1 1_555 1_555
O5_2 Mo3 1_555 1_555
O5A_2 Mo1A 1_555 1_555
O5_3 Mo1A 1_555 1_555
O5A_3 Mo3A 1_555 1_555
O6A Mo2A 1_555 1_555
O7_2 Mo3 1_555 1_555
O7A Mo1A 1_555 1_555
O7A_2 Mo3A 1_555 1_555
O7A_3 Mo4A 1_555 1_555
O8A Mo4A 1_555 1_555
O9A Mo3A 1_555 1_555
O10A Cu1 1_555 1_555
O11A Mo3 1_555 1_555
O11A_2 Mo1A 1_555 1_555
O11_2 Mo3A 1_555 1_555
O12A Mo1A_3 1_555 1_555
O12A_2 Mo1A 1_555 1_555
O13A Mo4A 1_555 1_555
O14A Mo2A 1_555 1_555
O14A_2 Mo3 1_555 1_555
O14_2 Mo3A 1_555 1_555
C3A H5A 1_555 1_555
N5A C1A 1_555 1_555
C4A N3A 1_555 1_555
H6A C4A 1_555 1_555
N6A C7A 1_555 1_555
N6A_2 Cu1 1_555 1_555
N7A Cu1 1_555 1_555
C5A N4A 1_555 1_555
H7A C5A 1_555 1_555
H8A C5A 1_555 1_555
C6A N7A 1_555 1_555
H9A C6A 1_555 1_555
N8A N4A 1_555 1_555
C7A N1A 1_555 1_555
H10A C7A 1_555 1_555
C8A N5A 1_555 1_555
H11A C8A 1_555 1_555
C9A N2A 1_555 1_555
H12A C9A 1_555 1_555
N9A N3A 1_555 1_555
Mo2 O12 1_555 1_555
Mo4 O7 1_555 1_555
Mo4 O12 1_555 1_555
C2 C5 1_555 1_555
O7 Mo3_2 1_555 1_555
O14 Mo3A_2 1_555 1_555
C4 N7 1_555 1_555
N6 C7 1_555 1_555
N6 C8 1_555 1_555
C6 N9 1_555 1_555
N8 C9 1_555 1_555
Mo1A_2 O5A 1_555 1_555
Mo1_2 O7_2 1_555 1_555
Mo1A_4 O11A 1_555 1_555
Mo2A O10A 1_555 1_555
Mo2A O12A 1_555 1_555
Mo3A_2 O5A 1_555 1_555
Mo4A O12A 1_555 1_555
C2A C5A 1_555 1_555
C4A N7A 1_555 1_555
N6A C8A 1_555 1_555
C6A N9A 1_555 1_555
N8A C9A 1_555 1_555

#END
