
#######################################################################
#
#                 Cambridge Crystallographic Data Centre
#                                CCDC 
#
#######################################################################
#
# If this CIF has been generated from an entry in the Cambridge 
# Structural Database, then it will include bibliographic, chemical, 
# crystal, experimental, refinement or atomic coordinate data resulting 
# from the CCDC's data processing and validation procedures.
#
#######################################################################

data_WAHMOJ
_symmetry_cell_setting           triclinic
_symmetry_space_group_name_H-M   'P -1'
_symmetry_Int_Tables_number      2
_space_group_name_Hall           '-P 1'
loop_
_symmetry_equiv_pos_site_id
_symmetry_equiv_pos_as_xyz
1 x,y,z
2 -x,-y,-z
_cell_length_a                   7.5960(2)
_cell_length_b                   11.2990(5)
_cell_length_c                   11.3000(7)
_cell_angle_alpha                68.561(5)
_cell_angle_beta                 73.317(4)
_cell_angle_gamma                76.600(3)
_cell_volume                     855.951
loop_
_atom_site_label
_atom_site_type_symbol
_atom_site_fract_x
_atom_site_fract_y
_atom_site_fract_z
Mo1 Mo -0.05214(6) 0.41429(5) 0.16931(5)
Mo2 Mo 0.45457(6) 0.40468(5) 0.16753(5)
Mo3 Mo 0.17174(7) 0.65999(5) 0.05412(5)
Cu1 Cu 0.26153(13) 0.11790(9) 0.21277(9)
Cu2 Cu 0.26953(15) 0.95472(10) -0.22885(9)
O1 O 0.1683(6) 0.8132(4) -0.0586(5)
O2 O 0.4501(6) 0.2415(4) 0.2127(5)
O3 O -0.1623(6) 0.4578(5) 0.3048(5)
O4 O 0.4234(6) 0.4306(5) 0.3122(5)
O5 O 0.0231(6) 0.2530(4) 0.2314(5)
O6 O 0.1010(7) 0.6867(5) 0.2010(5)
O7 O 0.4354(5) 0.6013(4) 0.0422(4)
O8 O -0.0385(6) 0.6047(4) 0.0361(4)
O9 O 0.2018(6) 0.4503(4) 0.1445(5)
O10 O -0.2766(6) 0.4070(4) 0.1259(5)
N1 N 0.2463(8) 0.0117(5) 0.3956(6)
N2 N 0.2726(8) -0.0483(6) 0.6021(5)
N3 N 0.6550(8) -0.1770(5) 0.1739(6)
C1 C 0.2792(10) -0.1994(8) 0.3682(8)
H1 H 0.1662 -0.2385 0.4038
H2 H 0.2785 -0.1457 0.2789
C2 C 0.4454(11) -0.3039(7) 0.3694(8)
H3 H 0.4340 -0.3561 0.3210
H4 H 0.4421 -0.3588 0.4588
N4 N 0.6982(8) -0.1134(5) -0.0377(5)
N5 N 0.2820(8) -0.1196(5) 0.4442(5)
C3 C 0.6440(9) -0.2054(7) 0.0716(7)
H5 H 0.6041 -0.2793 0.0766
C4 C 0.2972(10) -0.1512(7) 0.5654(7)
H6 H 0.3222 -0.2352 0.6188
C5 C 0.6321(10) -0.2566(7) 0.3124(7)
H7 H 0.7293 -0.3300 0.3207
H8 H 0.6464 -0.2067 0.3621
C6 C 0.2426(11) 0.0489(7) 0.4941(7)
H9 H 0.2211 0.1348 0.4893
N6 N 0.7202(8) -0.0614(5) 0.1299(6)
C7 C 0.7442(10) -0.0283(7) 0.0029(7)
H12 H 0.7891 0.0471 -0.0543
Mo1A Mo 0.05214(6) 0.58571(5) -0.16931(5)
Mo2A Mo 0.54543(6) 0.59532(5) -0.16753(5)
Mo2_2 Mo -0.54543(6) 0.40468(5) 0.16753(5)
Mo3A Mo -0.17174(7) 0.34001(5) -0.05412(5)
Cu1A Cu 0.73847(13) -0.11790(9) -0.21277(9)
Cu2_2 Cu 0.26953(15) -0.04528(10) 0.77115(9)
Cu2A Cu 0.73047(15) 0.04528(10) 0.22885(9)
O7A O 0.5646(5) 0.3987(4) -0.0422(4)
O8A O 0.0385(6) 0.3953(4) -0.0361(4)
O10_2 O 0.7234(6) 0.4070(4) 0.1259(5)
O10A O 0.2766(6) 0.5930(4) -0.1259(5)
N2_2 N 0.2726(8) 0.9517(6) -0.3979(5)
N4A N 0.3018(8) 0.1134(5) 0.0377(5)
N6A N 0.2798(8) 1.0614(5) -0.1299(6)
O11 O -0.0788(15) 0.6434(12) -0.5055(11)
H10 H -0.1931 0.6364 -0.4732
H11 H -0.0228 0.6122 -0.4431
loop_
_geom_bond_atom_site_label_1
_geom_bond_atom_site_label_2
_geom_bond_site_symmetry_1
_geom_bond_site_symmetry_2
Mo1 O3 1_555 1_555
Mo2 O2 1_555 1_555
Mo3 O1 1_555 1_555
Cu1 O2 1_555 1_555
Cu2 O1 1_555 1_555
O4 Mo2 1_555 1_555
O5 Mo1 1_555 1_555
O6 Mo3 1_555 1_555
O7 Mo2 1_555 1_555
O8 Mo1 1_555 1_555
O9 Mo1 1_555 1_555
O10 Mo1 1_555 1_555
N1 Cu1 1_555 1_555
N2 C4 1_555 1_555
N3 C3 1_555 1_555
C1 H1 1_555 1_555
H2 C1 1_555 1_555
C2 C1 1_555 1_555
H3 C2 1_555 1_555
H4 C2 1_555 1_555
N4 C3 1_555 1_555
N5 N1 1_555 1_555
C3 H5 1_555 1_555
C4 N5 1_555 1_555
H6 C4 1_555 1_555
C5 N3 1_555 1_555
H7 C5 1_555 1_555
H8 C5 1_555 1_555
C6 N1 1_555 1_555
H9 C6 1_555 1_555
O11 H10 1_555 1_555
H11 O11 1_555 1_555
N6 N3 1_555 1_555
C7 N4 1_555 1_555
H12 C7 1_555 1_555
Mo1A O8 1_555 1_555
Mo2A O7 1_555 1_555
Mo2_2 O10 1_555 1_555
Mo3A O10 1_555 1_555
Cu1A N4 1_555 1_555
Cu2_2 N2 1_555 1_555
Cu2A N6 1_555 1_555
O7A Mo2 1_555 1_555
O8A Mo1 1_555 1_555
O10_2 Mo2 1_555 1_555
O10A Mo3 1_555 1_555
N2_2 Cu2 1_555 1_555
N4A Cu1 1_555 1_555
N6A Cu2 1_555 1_555
Mo2 O9 1_555 1_555
Mo3 O7 1_555 1_555
Mo3 O8 1_555 1_555
Mo3 O9 1_555 1_555
Cu1 O5 1_555 1_555
N2 C6 1_555 1_555
C1 N5 1_555 1_555
C2 C5 1_555 1_555
N6 C7 1_555 1_555
Mo1A O8A 1_555 1_555
Mo1A O10A 1_555 1_555
Mo2A O7A 1_555 1_555
Mo2A O10A 1_555 1_555
Mo3A O8A 1_555 1_555

#END
