
#######################################################################
#
#                 Cambridge Crystallographic Data Centre
#                                CCDC 
#
#######################################################################
#
# If this CIF has been generated from an entry in the Cambridge 
# Structural Database, then it will include bibliographic, chemical, 
# crystal, experimental, refinement or atomic coordinate data resulting 
# from the CCDC's data processing and validation procedures.
#
#######################################################################

data_WAHNAW
_symmetry_cell_setting           triclinic
_symmetry_space_group_name_H-M   'P -1'
_symmetry_Int_Tables_number      2
_space_group_name_Hall           '-P 1'
loop_
_symmetry_equiv_pos_site_id
_symmetry_equiv_pos_as_xyz
1 x,y,z
2 -x,-y,-z
_cell_length_a                   11.6710(12)
_cell_length_b                   11.7000(12)
_cell_length_c                   11.9010(12)
_cell_angle_alpha                71.1380(12)
_cell_angle_beta                 77.1160(12)
_cell_angle_gamma                85.8450(14)
_cell_volume                     1499.11
loop_
_atom_site_label
_atom_site_type_symbol
_atom_site_fract_x
_atom_site_fract_y
_atom_site_fract_z
Mo1 Mo 0.46078(3) 0.50438(3) 0.36226(3)
Mo2 Mo 0.70225(3) 0.69181(4) 0.25069(4)
Mo3 Mo 0.74043(3) 0.42513(4) 0.43580(3)
Mo4 Mo 0.49935(3) 0.76043(4) 0.45353(4)
Cu1 Cu 0.75421(4) 0.79283(5) -0.11821(5)
O1 O 0.3579(3) 0.4487(3) 0.3153(3)
O2 O 0.5503(3) 0.5948(3) 0.2291(3)
O4 O 0.5725(3) 0.7932(3) 0.2871(3)
O6 O 0.5983(2) 0.5764(3) 0.4450(2)
O7 O 0.3751(2) 0.6382(3) 0.4094(2)
O8 O 0.7436(3) 0.7493(3) 0.0959(3)
O9 O 0.5697(2) 0.3682(3) 0.3945(2)
O10 O 0.8027(3) 0.7448(3) 0.3048(3)
O11 O 0.7624(2) 0.5296(3) 0.2744(3)
O12 O 0.3942(3) 0.8684(3) 0.4460(3)
O13 O 0.8392(3) 0.4809(3) 0.4903(3)
O14 O 0.8038(3) 0.2960(3) 0.4146(3)
O15 O 0.6030(3) 0.8078(3) 0.5081(3)
N1 N 0.6535(4) 1.1043(4) -0.0281(4)
N2 N 0.7174(3) 1.1500(3) -0.1433(4)
N3 N 0.6986(3) 0.9595(3) -0.1162(3)
C1 C -0.0388(4) 0.9120(5) -0.0835(4)
H5 H -0.0819 0.9222 -0.0116
N4 N 0.8133(3) 1.6263(3) -0.1076(4)
N5 N 0.8864(4) 1.4400(4) -0.0403(4)
N6 N 0.0945(3) 0.9197(3) -0.2352(3)
N7 N 0.5935(3) 0.7484(3) -0.1142(3)
N8 N 0.4220(3) 0.7523(3) -0.1585(3)
N9 N 0.8912(3) 1.4738(3) -0.1611(4)
N10 N -0.0801(3) 0.8499(3) -0.1455(3)
N11 N 0.4276(3) 0.6440(3) -0.0703(4)
C2 C 0.5327(4) 0.6470(4) -0.0489(5)
H6 H 0.5627 0.5836 0.0073
C3 C 0.6432(4) 0.9899(4) -0.0161(5)
H7 H 0.6020 0.9346 0.0541
C4 C 0.7640(4) 1.2731(4) -0.1904(4)
H8 H 0.7184 1.3221 -0.1443
H9 H 0.7581 1.3088 -0.2747
C5 C 0.5200(4) 0.8130(4) -0.1823(4)
H10 H 0.5358 0.8897 -0.2383
C6 C 0.9449(4) 1.3955(4) -0.2329(5)
H11 H 1.0285 1.3886 -0.2343
H12 H 0.9350 1.4316 -0.3159
C7 C 0.2043(4) 0.9577(4) -0.3245(4)
H13 H 0.2037 1.0449 -0.3603
H14 H 0.2087 0.9228 -0.3890
C8 C 0.8376(4) 1.5344(4) -0.0115(5)
H15 H 0.8211 1.5380 0.0674
C9 C 0.8902(4) 1.2710(4) -0.1807(4)
H16 H 0.9344 1.2186 -0.2235
H17 H 0.8950 1.2377 -0.0959
C10 C 0.8476(4) 1.5828(4) -0.2000(4)
H18 H 0.8417 1.6232 -0.2798
C11 C 0.7427(4) 1.0639(4) -0.1936(5)
H19 H 0.7855 1.0747 -0.2722
C12 C 0.3123(3) 0.9210(4) -0.2707(4)
H20 H 0.3820 0.9429 -0.3352
H21 H 0.3140 0.9650 -0.2146
C13 C 0.3149(4) 0.7870(4) -0.2045(4)
H22 H 0.2474 0.7656 -0.1373
H23 H 0.3096 0.7427 -0.2594
N12 N 0.0666(3) 0.9556(4) -0.1344(4)
C14 C 0.0078(4) 0.8571(4) -0.2392(4)
H24 H 0.0081 0.8226 -0.2995
Mo1A Mo 0.53922(3) 0.49562(3) 0.63774(3)
Mo3A Mo 0.25957(3) 0.57487(4) 0.56420(3)
Mo4A Mo 0.50065(3) 0.23957(4) 0.54647(4)
Cu1_2 Cu 0.75421(4) 1.79283(5) -0.11821(5)
Cu1_3 Cu -0.24579(4) 0.79283(5) -0.11821(5)
O6A O 0.4017(2) 0.4236(3) 0.5550(2)
O7A O 0.6249(2) 0.3618(3) 0.5906(2)
O9A O 0.4303(2) 0.6318(3) 0.6055(2)
N4_2 N 0.8133(3) 0.6263(3) -0.1076(4)
N10_2 N 0.9199(3) 0.8499(3) -0.1455(3)
O3 O 0.0583(6) 0.2907(5) 0.5043(5)
H1 H 0.0940 0.2777 0.5610
H2 H 0.0159 0.2247 0.5222
O5 O 0.7766(4) 0.8643(4) -0.3533(3)
H3 H 0.8156 0.9303 -0.3905
H4 H 0.7327 0.8591 -0.4010
O16 O 0.9332(6) 1.0860(7) -0.4474(5)
H25 H 0.9873 1.1368 -0.4518
H26 H 0.8835 1.1309 -0.4858
loop_
_geom_bond_atom_site_label_1
_geom_bond_atom_site_label_2
_geom_bond_site_symmetry_1
_geom_bond_site_symmetry_2
Mo1 O1 1_555 1_555
Mo2 O2 1_555 1_555
Mo3 O6 1_555 1_555
Mo4 O4 1_555 1_555
Cu1 O8 1_555 1_555
O2 Mo1 1_555 1_555
O3 H1 1_555 1_555
H2 O3 1_555 1_555
O4 Mo2 1_555 1_555
O5 H3 1_555 1_555
H4 O5 1_555 1_555
O6 Mo1 1_555 1_555
O7 Mo1 1_555 1_555
O8 Mo2 1_555 1_555
O9 Mo1 1_555 1_555
O10 Mo2 1_555 1_555
O11 Mo2 1_555 1_555
O12 Mo4 1_555 1_555
O13 Mo3 1_555 1_555
O14 Mo3 1_555 1_555
O15 Mo4 1_555 1_555
N1 N2 1_555 1_555
N2 C4 1_555 1_555
N3 Cu1 1_555 1_555
C1 H5 1_555 1_555
N4 C8 1_555 1_555
N5 N9 1_555 1_555
N6 C7 1_555 1_555
N7 Cu1 1_555 1_555
N8 N11 1_555 1_555
N9 C6 1_555 1_555
N10 C1 1_555 1_555
N11 C2 1_555 1_555
C2 N7 1_555 1_555
H6 C2 1_555 1_555
C3 N1 1_555 1_555
H7 C3 1_555 1_555
C4 H8 1_555 1_555
H9 C4 1_555 1_555
C5 N7 1_555 1_555
H10 C5 1_555 1_555
C6 H11 1_555 1_555
H12 C6 1_555 1_555
C7 H13 1_555 1_555
H14 C7 1_555 1_555
C8 N5 1_555 1_555
H15 C8 1_555 1_555
C9 C4 1_555 1_555
H16 C9 1_555 1_555
H17 C9 1_555 1_555
C10 N4 1_555 1_555
H18 C10 1_555 1_555
C11 N2 1_555 1_555
H19 C11 1_555 1_555
C12 C7 1_555 1_555
H20 C12 1_555 1_555
H21 C12 1_555 1_555
C13 N8 1_555 1_555
H22 C13 1_555 1_555
H23 C13 1_555 1_555
N12 C1 1_555 1_555
C14 N6 1_555 1_555
H24 C14 1_555 1_555
O16 H25 1_555 1_555
H26 O16 1_555 1_555
Mo1A O6 1_555 1_555
Mo3A O7 1_555 1_555
Mo4A O9 1_555 1_555
Cu1_2 N4 1_555 1_555
Cu1_3 N10 1_555 1_555
O6A Mo1 1_555 1_555
O7A Mo3 1_555 1_555
O9A Mo4 1_555 1_555
N4_2 Cu1 1_555 1_555
N10_2 Cu1 1_555 1_555
Mo2 O6 1_555 1_555
Mo3 O9 1_555 1_555
Mo3 O11 1_555 1_555
Mo4 O6 1_555 1_555
Mo4 O7 1_555 1_555
N3 C3 1_555 1_555
N3 C11 1_555 1_555
N6 N12 1_555 1_555
N8 C5 1_555 1_555
N9 C10 1_555 1_555
N10 C14 1_555 1_555
C6 C9 1_555 1_555
C12 C13 1_555 1_555
Mo1A O6A 1_555 1_555
Mo1A O7A 1_555 1_555
Mo1A O9A 1_555 1_555
Mo3A O6A 1_555 1_555
Mo3A O9A 1_555 1_555
Mo4A O6A 1_555 1_555
Mo4A O7A 1_555 1_555

#END
