
#######################################################################
#
#                 Cambridge Crystallographic Data Centre
#                                CCDC 
#
#######################################################################
#
# If this CIF has been generated from an entry in the Cambridge 
# Structural Database, then it will include bibliographic, chemical, 
# crystal, experimental, refinement or atomic coordinate data resulting 
# from the CCDC's data processing and validation procedures.
#
#######################################################################

data_WAHXUA
_symmetry_cell_setting           orthorhombic
_symmetry_space_group_name_H-M   'P 21 21 21'
_symmetry_Int_Tables_number      19
_space_group_name_Hall           'P 2ac 2ab'
loop_
_symmetry_equiv_pos_site_id
_symmetry_equiv_pos_as_xyz
1 x,y,z
2 1/2-x,-y,1/2+z
3 1/2+x,1/2-y,-z
4 -x,1/2+y,1/2-z
_cell_length_a                   7.1687(2)
_cell_length_b                   13.7862(4)
_cell_length_c                   23.3747(6)
_cell_angle_alpha                90
_cell_angle_beta                 90
_cell_angle_gamma                90
_cell_volume                     2310.1
loop_
_atom_site_label
_atom_site_type_symbol
_atom_site_fract_x
_atom_site_fract_y
_atom_site_fract_z
Cu1 Cu 0.23799(4) 0.582516(19) 0.969258(9)
K1 K 0.22604(7) 0.52602(3) 1.120687(17)
P1 P 0.70728(8) 0.50616(5) 1.20254(2)
F1 F 0.5844(2) 0.50985(15) 1.14567(8)
F2 F 0.88728(18) 0.52950(14) 1.16511(7)
F3 F 0.7381(2) 0.39314(9) 1.19325(5)
F4 F 0.5254(2) 0.48352(14) 1.23877(9)
F5 F 0.6754(2) 0.61960(11) 1.21051(7)
F6 F 0.8314(2) 0.50310(14) 1.25833(6)
O1 O 0.2409(2) 0.72624(10) 1.14236(5)
O2 O 0.2419(2) 0.65703(10) 1.03821(5)
O3 O 0.2117(2) 0.46740(10) 1.01400(5)
O4 O 0.1673(2) 0.33345(12) 1.09181(6)
N1 N 0.2548(3) 0.69583(13) 0.92072(6)
N2 N 0.2493(3) 0.51100(13) 0.89785(6)
C1 C 0.2047(3) 0.68173(17) 1.24031(9)
H1 H 0.0907 0.6469 1.2297
H2 H 0.1924 0.7067 1.2794
H3 H 0.3114 0.6374 1.2384
C2 C 0.2347(3) 0.76458(15) 1.19983(7)
H4 H 0.1316 0.8120 1.2034
H5 H 0.3533 0.7980 1.2089
C3 C 0.2585(3) 0.79322(15) 1.09880(8)
C4 C 0.2776(3) 0.89114(16) 1.10685(8)
H6 H 0.2811 0.9168 1.1446
C5 C 0.2922(3) 0.95389(17) 1.05974(9)
H7 H 0.3057 1.0217 1.0656
C6 C 0.2869(3) 0.91714(18) 1.00553(9)
H8 H 0.2955 0.9599 0.9738
C7 C 0.2688(3) 0.81646(16) 0.99598(8)
C8 C 0.2564(3) 0.75147(15) 1.04255(7)
C9 C 0.2660(3) 0.78445(17) 0.93719(8)
H9 H 0.2731 0.8329 0.9084
C10 C 0.2406(3) 0.67475(16) 0.85900(7)
H10 H 0.3201 0.7203 0.8371
H11 H 0.1100 0.6829 0.8461
C11 C 0.3041(3) 0.57099(18) 0.84857(8)
H12 H 0.2457 0.5455 0.8133
H13 H 0.4412 0.5691 0.8437
C12 C 0.2114(3) 0.42144(18) 0.89129(8)
H14 H 0.2082 0.3976 0.8532
C13 C 0.1731(3) 0.35287(18) 0.93629(9)
C14 C 0.1405(3) 0.25563(19) 0.92021(10)
H15 H 0.1366 0.2390 0.8808
C15 C 0.1148(3) 0.18552(19) 0.96012(10)
H16 H 0.0928 0.1203 0.9488
C16 C 0.1211(3) 0.21044(18) 1.01864(10)
H17 H 0.1024 0.1616 1.0467
C17 C 0.1534(3) 0.30341(18) 1.03543(10)
C18 C 0.1788(3) 0.37955(18) 0.99498(9)
C19 C 0.1656(3) 0.25842(18) 1.13417(9)
H18 H 0.2603 0.2085 1.1249
H19 H 0.0416 0.2269 1.1354
C20 C 0.2093(4) 0.30483(18) 1.19140(9)
H20 H 0.3336 0.3343 1.1900
H21 H 0.2064 0.2552 1.2214
H22 H 0.1162 0.3549 1.1998
K1_2 K 1.22604(7) 0.52602(3) 1.120687(17)
F2_2 F -0.11272(18) 0.52950(14) 1.16511(7)
loop_
_geom_bond_atom_site_label_1
_geom_bond_atom_site_label_2
_geom_bond_site_symmetry_1
_geom_bond_site_symmetry_2
Cu1 O2 1_555 1_555
K1 F1 1_555 1_555
P1 F1 1_555 1_555
F2 P1 1_555 1_555
F3 P1 1_555 1_555
F4 P1 1_555 1_555
F5 P1 1_555 1_555
F6 P1 1_555 1_555
O1 K1 1_555 1_555
O2 K1 1_555 1_555
O3 Cu1 1_555 1_555
O4 K1 1_555 1_555
N1 Cu1 1_555 1_555
N2 Cu1 1_555 1_555
C1 H1 1_555 1_555
H2 C1 1_555 1_555
H3 C1 1_555 1_555
C2 O1 1_555 1_555
H4 C2 1_555 1_555
H5 C2 1_555 1_555
C3 O1 1_555 1_555
C4 C3 1_555 1_555
H6 C4 1_555 1_555
C5 C4 1_555 1_555
H7 C5 1_555 1_555
C6 C5 1_555 1_555
H8 C6 1_555 1_555
C7 C6 1_555 1_555
C8 O2 1_555 1_555
C9 N1 1_555 1_555
H9 C9 1_555 1_555
C10 N1 1_555 1_555
H10 C10 1_555 1_555
H11 C10 1_555 1_555
C11 N2 1_555 1_555
H12 C11 1_555 1_555
H13 C11 1_555 1_555
C12 N2 1_555 1_555
H14 C12 1_555 1_555
C13 C12 1_555 1_555
C14 C13 1_555 1_555
H15 C14 1_555 1_555
C15 C14 1_555 1_555
H16 C15 1_555 1_555
C16 C15 1_555 1_555
H17 C16 1_555 1_555
C17 O4 1_555 1_555
C18 O3 1_555 1_555
C19 O4 1_555 1_555
H18 C19 1_555 1_555
H19 C19 1_555 1_555
C20 C19 1_555 1_555
H20 C20 1_555 1_555
H21 C20 1_555 1_555
H22 C20 1_555 1_555
K1_2 F2 1_555 1_555
F2_2 K1 1_555 1_555
K1 O3 1_555 1_555
C1 C2 1_555 1_555
C3 C8 1_555 1_555
C7 C8 1_555 1_555
C7 C9 1_555 1_555
C10 C11 1_555 1_555
C13 C18 1_555 1_555
C16 C17 1_555 1_555
C17 C18 1_555 1_555

#END
