
#######################################################################
#
#                 Cambridge Crystallographic Data Centre
#                                CCDC 
#
#######################################################################
#
# If this CIF has been generated from an entry in the Cambridge 
# Structural Database, then it will include bibliographic, chemical, 
# crystal, experimental, refinement or atomic coordinate data resulting 
# from the CCDC's data processing and validation procedures.
#
#######################################################################

data_WAJDIU
_symmetry_cell_setting           tetragonal
_symmetry_space_group_name_H-M   'P 4/n'
_symmetry_Int_Tables_number      85
_space_group_name_Hall           '-P 4a'
loop_
_symmetry_equiv_pos_site_id
_symmetry_equiv_pos_as_xyz
1 x,y,z
2 1/2-y,x,z
3 1/2-x,1/2-y,z
4 y,1/2-x,z
5 -x,-y,-z
6 1/2+y,-x,-z
7 1/2+x,1/2+y,-z
8 -y,1/2+x,-z
_cell_length_a                   16.043(3)
_cell_length_b                   16.043(3)
_cell_length_c                   3.809(1)
_cell_angle_alpha                90
_cell_angle_beta                 90
_cell_angle_gamma                90
_cell_volume                     980.352
loop_
_atom_site_label
_atom_site_type_symbol
_atom_site_fract_x
_atom_site_fract_y
_atom_site_fract_z
Tl1 Tl 0.2500 0.2500 0.05962(9)
N1 N 0.3545(2) -0.0130(2) -0.6350(8)
N2 N 0.2719(2) 0.1027(2) -0.3891(9)
C1 C 0.4650(2) 0.0744(2) -0.874(1)
C2 C 0.4248(2) -0.0046(2) -0.8146(9)
C3 C 0.3144(2) 0.0522(2) -0.507(1)
C4 C 0.4622(2) -0.0802(3) -0.949(1)
C5 C 0.4178(3) -0.1612(3) -0.892(1)
H1 H 0.361(3) -0.163(2) -1.02(1)
H2 H 0.447(3) -0.205(2) -0.97(1)
H3 H 0.408(2) -0.177(2) -0.64(1)
H4 H 0.440(2) 0.126(2) -0.76(1)
C4D C 0.5378(2) 0.0802(3) -1.051(1)
C2D C 0.5752(2) 0.0046(2) -1.1854(9)
N1D N 0.6455(2) 0.0130(2) -1.3650(8)
C3D C 0.6856(2) -0.0522(2) -1.493(1)
N2D N 0.7281(2) -0.1027(2) -1.6109(9)
C1D C 0.5350(2) -0.0744(2) -1.126(1)
H4D H 0.560(2) -0.126(2) -1.24(1)
C5D C 0.5822(3) 0.1612(3) -1.108(1)
H1D H 0.639(3) 0.163(2) -0.98(1)
H2D H 0.553(3) 0.205(2) -1.03(1)
H3D H 0.592(2) 0.177(2) -1.36(1)
N1A N 0.5130(2) 0.3545(2) -0.6350(8)
N2A N 0.3973(2) 0.2719(2) -0.3891(9)
C1A C 0.4256(2) 0.4650(2) -0.874(1)
C2A C 0.5046(2) 0.4248(2) -0.8146(9)
C3A C 0.4478(2) 0.3144(2) -0.507(1)
C4A C 0.5802(3) 0.4622(2) -0.949(1)
C5A C 0.6612(3) 0.4178(3) -0.892(1)
H1A H 0.663(2) 0.361(3) -1.02(1)
H2A H 0.705(2) 0.447(3) -0.97(1)
H3A H 0.677(2) 0.408(2) -0.64(1)
H4A H 0.374(2) 0.440(2) -0.76(1)
C4E C 0.4198(3) 0.5378(2) -1.051(1)
C2E C 0.4954(2) 0.5752(2) -1.1854(9)
N1E N 0.4870(2) 0.6455(2) -1.3650(8)
C3E C 0.5522(2) 0.6856(2) -1.493(1)
N2E N 0.6027(2) 0.7281(2) -1.6109(9)
C1E C 0.5744(2) 0.5350(2) -1.126(1)
H4E H 0.626(2) 0.560(2) -1.24(1)
C5E C 0.3388(3) 0.5822(3) -1.108(1)
H1E H 0.337(2) 0.639(3) -0.98(1)
H2E H 0.295(2) 0.553(3) -1.03(1)
H3E H 0.323(2) 0.592(2) -1.36(1)
N2B N 0.2281(2) 0.3973(2) -0.3891(9)
N2C N 0.1027(2) 0.2281(2) -0.3891(9)
Tl1D Tl 0.7500 -0.2500 -2.05962(9)
Tl1E Tl 0.7500 0.7500 -2.05962(9)
loop_
_geom_bond_atom_site_label_1
_geom_bond_atom_site_label_2
_geom_bond_site_symmetry_1
_geom_bond_site_symmetry_2
Tl1 N2 1_555 1_555
N1 C2 1_555 1_555
N2 C3 1_555 1_555
C1 C2 1_555 1_555
C2 C4 1_555 1_555
C3 N1 1_555 1_555
C4 C5 1_555 1_555
C5 H1 1_555 1_555
H2 C5 1_555 1_555
H3 C5 1_555 1_555
H4 C1 1_555 1_555
C4D C1 1_555 1_555
C2D C4D 1_555 1_555
N1D C2D 1_555 1_555
C3D N1D 1_555 1_555
N2D C3D 1_555 1_555
C1D C4 1_555 1_555
H4D C1D 1_555 1_555
C5D C4D 1_555 1_555
H1D C5D 1_555 1_555
H2D C5D 1_555 1_555
H3D C5D 1_555 1_555
N1A C2A 1_555 1_555
N2A Tl1 1_555 1_555
C1A C2A 1_555 1_555
C2A C4A 1_555 1_555
C3A N1A 1_555 1_555
C4A C5A 1_555 1_555
C5A H1A 1_555 1_555
H2A C5A 1_555 1_555
H3A C5A 1_555 1_555
H4A C1A 1_555 1_555
C4E C1A 1_555 1_555
C2E C4E 1_555 1_555
N1E C2E 1_555 1_555
C3E N1E 1_555 1_555
N2E C3E 1_555 1_555
C1E C4A 1_555 1_555
H4E C1E 1_555 1_555
C5E C4E 1_555 1_555
H1E C5E 1_555 1_555
H2E C5E 1_555 1_555
H3E C5E 1_555 1_555
N2B Tl1 1_555 1_555
N2C Tl1 1_555 1_555
Tl1D N2D 1_555 1_555
Tl1E N2E 1_555 1_555
C2D C1D 1_555 1_555
N2A C3A 1_555 1_555
C2E C1E 1_555 1_555

#END
