
#######################################################################
#
#                 Cambridge Crystallographic Data Centre
#                                CCDC 
#
#######################################################################
#
# If this CIF has been generated from an entry in the Cambridge 
# Structural Database, then it will include bibliographic, chemical, 
# crystal, experimental, refinement or atomic coordinate data resulting 
# from the CCDC's data processing and validation procedures.
#
#######################################################################

data_WAJNUR
_symmetry_cell_setting           rhombohedral
_symmetry_space_group_name_H-M   'R -3'
_symmetry_Int_Tables_number      148
_space_group_name_Hall           '-R 3'
loop_
_symmetry_equiv_pos_site_id
_symmetry_equiv_pos_as_xyz
1 x,y,z
2 -y,x-y,z
3 -x+y,-x,z
4 2/3+x,1/3+y,1/3+z
5 2/3-y,1/3+x-y,1/3+z
6 2/3-x+y,1/3-x,1/3+z
7 1/3+x,2/3+y,2/3+z
8 2/3+y,1/3-x+y,1/3-z
9 2/3+x-y,1/3+x,1/3-z
10 -x,-y,-z
11 y,-x+y,-z
12 x-y,x,-z
13 1/3-x,2/3-y,2/3-z
14 1/3+y,2/3-x+y,2/3-z
15 1/3+x-y,2/3+x,2/3-z
16 2/3-x,1/3-y,1/3-z
17 1/3-y,2/3+x-y,2/3+z
18 1/3-x+y,2/3-x,2/3+z
_cell_length_a                   18.3450(10)
_cell_length_b                   18.3450(10)
_cell_length_c                   22.0782(17)
_cell_angle_alpha                90
_cell_angle_beta                 90
_cell_angle_gamma                120.00
_cell_volume                     6434.72
loop_
_atom_site_label
_atom_site_type_symbol
_atom_site_fract_x
_atom_site_fract_y
_atom_site_fract_z
Cu1 Cu 0.3333 0.1667 0.6667
N1 N 0.33600(11) 0.27390(10) 0.66489(9)
H1 H 0.3005(16) 0.2770(17) 0.6865(11)
S1 S 0.41913(3) 0.36340(3) 0.65612(2)
C1 C 0.38965(12) 0.43358(12) 0.62142(9)
C2 C 0.44377(14) 0.48802(13) 0.57745(9)
H2 H 0.4940 0.4879 0.5671
C3 C 0.42285(15) 0.54252(15) 0.54892(11)
H3 H 0.4590 0.5800 0.5187
C4 C 0.34958(15) 0.54261(15) 0.56428(11)
H4 H 0.3355 0.5797 0.5443
C5 C 0.29719(14) 0.48902(15) 0.60850(11)
H5 H 0.2476 0.4900 0.6193
C6 C 0.31658(13) 0.43350(13) 0.63736(10)
H6 H 0.2803 0.3961 0.6676
C7 C 0.45524(13) 0.41578(12) 0.72798(9)
C8 C 0.39952(14) 0.40516(14) 0.77454(10)
H7 H 0.3408 0.3678 0.7701
C9 C 0.43218(16) 0.45077(15) 0.82767(10)
H8 H 0.3955 0.4447 0.8601
C10 C 0.51836(16) 0.50527(15) 0.83344(11)
H9 H 0.5402 0.5373 0.8695
C11 C 0.57232(16) 0.51309(16) 0.78723(11)
H10 H 0.6313 0.5491 0.7921
C12 C 0.54103(14) 0.46866(14) 0.73379(10)
H11 H 0.5780 0.4745 0.7016
O1 O 0.22451(8) 0.11262(8) 0.70807(7)
O2 O 0.18975(8) 0.21021(8) 0.73517(6)
C13 C 0.17337(12) 0.13671(12) 0.72617(8)
C14 C 0.08354(11) 0.06534(11) 0.73452(8)
C15 C 0.06510(11) -0.01829(11) 0.73479(8)
H12 H 0.1095 -0.0307 0.7352
C14B C -0.01820(16) -0.08354(11) 0.73452(8)
C13B C -0.03666(17) -0.17337(12) 0.72617(8)
O1B O -0.11189(11) -0.22451(8) 0.70807(7)
O2B O 0.02046(11) -0.18975(8) 0.73517(6)
C15B C -0.08339(16) -0.06510(11) 0.73479(8)
C14A C -0.06534(11) 0.01820(16) 0.73452(8)
C13A C -0.13671(12) 0.03666(17) 0.72617(8)
O1A O -0.11262(8) 0.11189(11) 0.70807(7)
O2A O -0.21021(8) -0.02046(11) 0.73517(6)
C15A C 0.01829(11) 0.08339(16) 0.73479(8)
H12A H 0.0307 0.1402 0.7352
H12B H -0.1402 -0.1095 0.7352
N1O N 0.33067(11) 0.05943(10) 0.66844(9)
H1O H 0.3662(16) 0.0563(17) 0.6468(11)
S1O S 0.24754(3) -0.03007(3) 0.67721(2)
C1O C 0.27702(12) -0.10025(12) 0.71191(9)
C2O C 0.22290(14) -0.15469(13) 0.75588(9)
H2O H 0.1727 -0.1546 0.7662
C3O C 0.24382(15) -0.20919(15) 0.78441(11)
H3O H 0.2077 -0.2467 0.8146
C4O C 0.31709(15) -0.20928(15) 0.76905(11)
H4O H 0.3312 -0.2464 0.7890
C5O C 0.36948(14) -0.15569(15) 0.72483(11)
H5O H 0.4191 -0.1567 0.7140
C6O C 0.35009(13) -0.10017(13) 0.69597(10)
H6O H 0.3864 -0.0628 0.6657
C7O C 0.21143(13) -0.08245(12) 0.60535(9)
C8O C 0.26715(14) -0.07183(14) 0.55879(10)
H7O H 0.3259 -0.0345 0.5632
C9O C 0.23449(16) -0.11744(15) 0.50566(10)
H8O H 0.2712 -0.1114 0.4732
C10O C 0.14831(16) -0.17194(15) 0.49989(11)
H9O H 0.1265 -0.2040 0.4638
C11O C 0.09435(16) -0.17976(16) 0.54610(11)
H10O H 0.0354 -0.2158 0.5412
C12O C 0.12564(14) -0.13533(14) 0.59954(10)
H11O H 0.0887 -0.1412 0.6317
O1O O 0.44216(8) 0.22071(8) 0.62526(7)
O2O O 0.47692(8) 0.12312(8) 0.59816(6)
C13O C 0.49330(12) 0.19662(12) 0.60716(8)
C14O C 0.58313(11) 0.26799(11) 0.59881(8)
C15O C 0.60157(11) 0.35162(11) 0.59854(8)
H12O H 0.5572 0.3640 0.5981
C14H C 0.68487(16) 0.41687(11) 0.59881(8)
C13H C 0.70333(17) 0.50670(12) 0.60716(8)
O1H O 0.77856(11) 0.55784(8) 0.62526(7)
O2H O 0.64621(11) 0.52308(8) 0.59816(6)
C15H C 0.75006(16) 0.39843(11) 0.59854(8)
C14G C 0.73201(11) 0.31513(16) 0.59881(8)
C13G C 0.80338(12) 0.29667(17) 0.60716(8)
O1G O 0.77929(8) 0.22144(11) 0.62526(7)
O2G O 0.87688(8) 0.35379(11) 0.59816(6)
C15G C 0.64838(11) 0.24994(16) 0.59854(8)
H12G H 0.6360 0.1931 0.5981
H12H H 0.8069 0.4428 0.5981
Cu1B Cu -0.1666 -0.3333 0.6667
Cu1A Cu -0.1667 0.1666 0.6667
N1B N -0.06210(15) -0.33600(11) 0.66489(9)
H1B H -0.0235(23) -0.3005(16) 0.6865(11)
S1B S -0.05573(4) -0.41913(3) 0.65612(2)
C1B C 0.04393(17) -0.38965(12) 0.62142(9)
C2B C 0.04425(19) -0.44377(14) 0.57745(9)
H2B H -0.0061 -0.4940 0.5671
C3B C 0.11967(21) -0.42285(15) 0.54892(11)
H3B H 0.1210 -0.4590 0.5187
C4B C 0.19303(21) -0.34958(15) 0.56428(11)
H4B H 0.2442 -0.3355 0.5443
C5B C 0.19183(21) -0.29719(14) 0.60850(11)
H5B H 0.2424 -0.2476 0.6193
C6B C 0.11692(18) -0.31658(13) 0.63736(10)
H6B H 0.1158 -0.2803 0.6676
C7B C -0.03946(18) -0.45524(13) 0.72798(9)
C8B C 0.00564(20) -0.39952(14) 0.77454(10)
H7B H 0.0270 -0.3408 0.7701
C9B C 0.01859(22) -0.43218(16) 0.82767(10)
H8B H 0.0492 -0.3955 0.8601
C10B C -0.01309(22) -0.51836(16) 0.83344(11)
H9B H -0.0029 -0.5402 0.8695
C11B C -0.05923(23) -0.57232(16) 0.78723(11)
H10B H -0.0822 -0.6313 0.7921
C12B C -0.07237(20) -0.54103(14) 0.73379(10)
H11B H -0.1035 -0.5780 0.7016
N1H N -0.27123(15) -0.33067(11) 0.66844(9)
H1H H -0.3098(23) -0.3662(16) 0.6468(11)
S1H S -0.27760(4) -0.24754(3) 0.67721(2)
C1H C -0.37726(17) -0.27702(12) 0.71191(9)
C2H C -0.37758(19) -0.22290(14) 0.75588(9)
H2H H -0.3272 -0.1727 0.7662
C3H C -0.45300(21) -0.24382(15) 0.78441(11)
H3H H -0.4543 -0.2077 0.8146
C4H C -0.52636(21) -0.31709(15) 0.76905(11)
H4H H -0.5775 -0.3312 0.7890
C5H C -0.52516(21) -0.36948(14) 0.72483(11)
H5H H -0.5757 -0.4191 0.7140
C6H C -0.45025(18) -0.35009(13) 0.69597(10)
H6H H -0.4491 -0.3864 0.6657
C7H C -0.29387(18) -0.21143(13) 0.60535(9)
C8H C -0.33897(20) -0.26715(14) 0.55879(10)
H7H H -0.3603 -0.3259 0.5632
C9H C -0.35192(22) -0.23449(16) 0.50566(10)
H8H H -0.3825 -0.2712 0.4732
C10H C -0.32024(22) -0.14831(16) 0.49989(11)
H9H H -0.3304 -0.1265 0.4638
C11H C -0.27410(23) -0.09435(16) 0.54610(11)
H10H H -0.2511 -0.0354 0.5412
C12H C -0.26096(20) -0.12564(14) 0.59954(10)
H11H H -0.2298 -0.0887 0.6317
N1A N -0.27390(10) 0.06210(15) 0.66489(9)
H1A H -0.2770(17) 0.0235(23) 0.6865(11)
S1A S -0.36340(3) 0.05573(4) 0.65612(2)
C1A C -0.43358(12) -0.04393(17) 0.62142(9)
C2A C -0.48802(13) -0.04425(19) 0.57745(9)
H2A H -0.4879 0.0061 0.5671
C3A C -0.54252(15) -0.11967(21) 0.54892(11)
H3A H -0.5800 -0.1210 0.5187
C4A C -0.54261(15) -0.19303(21) 0.56428(11)
H4A H -0.5797 -0.2442 0.5443
C5A C -0.48902(15) -0.19183(21) 0.60850(11)
H5A H -0.4900 -0.2424 0.6193
C6A C -0.43350(13) -0.11692(18) 0.63736(10)
H6A H -0.3961 -0.1158 0.6676
C7A C -0.41578(12) 0.03946(18) 0.72798(9)
C8A C -0.40516(14) -0.00564(20) 0.77454(10)
H7A H -0.3678 -0.0270 0.7701
C9A C -0.45077(15) -0.01859(22) 0.82767(10)
H8A H -0.4447 -0.0492 0.8601
C10A C -0.50527(15) 0.01309(22) 0.83344(11)
H9A H -0.5373 0.0029 0.8695
C11A C -0.51309(16) 0.05923(23) 0.78723(11)
H10A H -0.5491 0.0822 0.7921
C12A C -0.46866(14) 0.07237(20) 0.73379(10)
H11A H -0.4745 0.1035 0.7016
N1G N -0.05943(10) 0.27123(15) 0.66844(9)
H1G H -0.0563(17) 0.3098(23) 0.6468(11)
S1G S 0.03007(3) 0.27760(4) 0.67721(2)
C1G C 0.10025(12) 0.37726(17) 0.71191(9)
C2G C 0.15469(13) 0.37758(19) 0.75588(9)
H2G H 0.1546 0.3272 0.7662
C3G C 0.20919(15) 0.45300(21) 0.78441(11)
H3G H 0.2467 0.4543 0.8146
C4G C 0.20928(15) 0.52636(21) 0.76905(11)
H4G H 0.2464 0.5775 0.7890
C5G C 0.15569(15) 0.52516(21) 0.72483(11)
H5G H 0.1567 0.5757 0.7140
C6G C 0.10017(13) 0.45025(18) 0.69597(10)
H6G H 0.0628 0.4491 0.6657
C7G C 0.08245(12) 0.29387(18) 0.60535(9)
C8G C 0.07183(14) 0.33897(20) 0.55879(10)
H7G H 0.0345 0.3603 0.5632
C9G C 0.11744(15) 0.35192(22) 0.50566(10)
H8G H 0.1114 0.3825 0.4732
C10G C 0.17194(15) 0.32024(22) 0.49989(11)
H9G H 0.2040 0.3304 0.4638
C11G C 0.17976(16) 0.27410(23) 0.54610(11)
H10G H 0.2158 0.2511 0.5412
C12G C 0.13533(14) 0.26096(20) 0.59954(10)
H11G H 0.1412 0.2298 0.6317
Cu1B_2 Cu 0.8334 0.6667 0.6667
Cu1A_2 Cu 0.8333 0.1666 0.6667
O1H_2 O -0.22144(11) -0.44216(8) 0.62526(7)
O1G_2 O -0.22071(8) 0.22144(11) 0.62526(7)
loop_
_geom_bond_atom_site_label_1
_geom_bond_atom_site_label_2
_geom_bond_site_symmetry_1
_geom_bond_site_symmetry_2
Cu1 N1 1_555 1_555
N1 H1 1_555 1_555
S1 N1 1_555 1_555
C1 S1 1_555 1_555
C2 C1 1_555 1_555
H2 C2 1_555 1_555
C3 C2 1_555 1_555
H3 C3 1_555 1_555
C4 C3 1_555 1_555
H4 C4 1_555 1_555
C5 C4 1_555 1_555
H5 C5 1_555 1_555
C6 C1 1_555 1_555
H6 C6 1_555 1_555
C7 S1 1_555 1_555
C8 C7 1_555 1_555
H7 C8 1_555 1_555
C9 C8 1_555 1_555
H8 C9 1_555 1_555
C10 C9 1_555 1_555
H9 C10 1_555 1_555
C11 C10 1_555 1_555
H10 C11 1_555 1_555
C12 C7 1_555 1_555
H11 C12 1_555 1_555
O1 Cu1 1_555 1_555
O2 C13 1_555 1_555
C13 O1 1_555 1_555
C14 C13 1_555 1_555
C15 C14 1_555 1_555
H12 C15 1_555 1_555
C14B C15 1_555 1_555
C13B C14B 1_555 1_555
O1B C13B 1_555 1_555
O2B C13B 1_555 1_555
C15B C14B 1_555 1_555
C14A C15B 1_555 1_555
C13A C14A 1_555 1_555
O1A C13A 1_555 1_555
O2A C13A 1_555 1_555
C15A C14 1_555 1_555
H12A C15A 1_555 1_555
H12B C15B 1_555 1_555
N1O Cu1 1_555 1_555
H1O N1O 1_555 1_555
S1O N1O 1_555 1_555
C1O S1O 1_555 1_555
C2O C1O 1_555 1_555
H2O C2O 1_555 1_555
C3O C2O 1_555 1_555
H3O C3O 1_555 1_555
C4O C3O 1_555 1_555
H4O C4O 1_555 1_555
C5O C4O 1_555 1_555
H5O C5O 1_555 1_555
C6O C1O 1_555 1_555
H6O C6O 1_555 1_555
C7O S1O 1_555 1_555
C8O C7O 1_555 1_555
H7O C8O 1_555 1_555
C9O C8O 1_555 1_555
H8O C9O 1_555 1_555
C10O C9O 1_555 1_555
H9O C10O 1_555 1_555
C11O C10O 1_555 1_555
H10O C11O 1_555 1_555
C12O C7O 1_555 1_555
H11O C12O 1_555 1_555
O1O Cu1 1_555 1_555
O2O C13O 1_555 1_555
C13O O1O 1_555 1_555
C14O C13O 1_555 1_555
C15O C14O 1_555 1_555
H12O C15O 1_555 1_555
C14H C15O 1_555 1_555
C13H C14H 1_555 1_555
O1H C13H 1_555 1_555
O2H C13H 1_555 1_555
C15H C14H 1_555 1_555
C14G C15H 1_555 1_555
C13G C14G 1_555 1_555
O1G C13G 1_555 1_555
O2G C13G 1_555 1_555
C15G C14O 1_555 1_555
H12G C15G 1_555 1_555
H12H C15H 1_555 1_555
Cu1B O1B 1_555 1_555
Cu1A O1A 1_555 1_555
N1B Cu1B 1_555 1_555
H1B N1B 1_555 1_555
S1B N1B 1_555 1_555
C1B S1B 1_555 1_555
C2B C1B 1_555 1_555
H2B C2B 1_555 1_555
C3B C2B 1_555 1_555
H3B C3B 1_555 1_555
C4B C3B 1_555 1_555
H4B C4B 1_555 1_555
C5B C4B 1_555 1_555
H5B C5B 1_555 1_555
C6B C1B 1_555 1_555
H6B C6B 1_555 1_555
C7B S1B 1_555 1_555
C8B C7B 1_555 1_555
H7B C8B 1_555 1_555
C9B C8B 1_555 1_555
H8B C9B 1_555 1_555
C10B C9B 1_555 1_555
H9B C10B 1_555 1_555
C11B C10B 1_555 1_555
H10B C11B 1_555 1_555
C12B C7B 1_555 1_555
H11B C12B 1_555 1_555
N1H Cu1B 1_555 1_555
H1H N1H 1_555 1_555
S1H N1H 1_555 1_555
C1H S1H 1_555 1_555
C2H C1H 1_555 1_555
H2H C2H 1_555 1_555
C3H C2H 1_555 1_555
H3H C3H 1_555 1_555
C4H C3H 1_555 1_555
H4H C4H 1_555 1_555
C5H C4H 1_555 1_555
H5H C5H 1_555 1_555
C6H C1H 1_555 1_555
H6H C6H 1_555 1_555
C7H S1H 1_555 1_555
C8H C7H 1_555 1_555
H7H C8H 1_555 1_555
C9H C8H 1_555 1_555
H8H C9H 1_555 1_555
C10H C9H 1_555 1_555
H9H C10H 1_555 1_555
C11H C10H 1_555 1_555
H10H C11H 1_555 1_555
C12H C7H 1_555 1_555
H11H C12H 1_555 1_555
N1A Cu1A 1_555 1_555
H1A N1A 1_555 1_555
S1A N1A 1_555 1_555
C1A S1A 1_555 1_555
C2A C1A 1_555 1_555
H2A C2A 1_555 1_555
C3A C2A 1_555 1_555
H3A C3A 1_555 1_555
C4A C3A 1_555 1_555
H4A C4A 1_555 1_555
C5A C4A 1_555 1_555
H5A C5A 1_555 1_555
C6A C1A 1_555 1_555
H6A C6A 1_555 1_555
C7A S1A 1_555 1_555
C8A C7A 1_555 1_555
H7A C8A 1_555 1_555
C9A C8A 1_555 1_555
H8A C9A 1_555 1_555
C10A C9A 1_555 1_555
H9A C10A 1_555 1_555
C11A C10A 1_555 1_555
H10A C11A 1_555 1_555
C12A C7A 1_555 1_555
H11A C12A 1_555 1_555
N1G Cu1A 1_555 1_555
H1G N1G 1_555 1_555
S1G N1G 1_555 1_555
C1G S1G 1_555 1_555
C2G C1G 1_555 1_555
H2G C2G 1_555 1_555
C3G C2G 1_555 1_555
H3G C3G 1_555 1_555
C4G C3G 1_555 1_555
H4G C4G 1_555 1_555
C5G C4G 1_555 1_555
H5G C5G 1_555 1_555
C6G C1G 1_555 1_555
H6G C6G 1_555 1_555
C7G S1G 1_555 1_555
C8G C7G 1_555 1_555
H7G C8G 1_555 1_555
C9G C8G 1_555 1_555
H8G C9G 1_555 1_555
C10G C9G 1_555 1_555
H9G C10G 1_555 1_555
C11G C10G 1_555 1_555
H10G C11G 1_555 1_555
C12G C7G 1_555 1_555
H11G C12G 1_555 1_555
Cu1B_2 O1H 1_555 1_555
Cu1A_2 O1G 1_555 1_555
O1H_2 Cu1B 1_555 1_555
O1G_2 Cu1A 1_555 1_555
C5 C6 1_555 1_555
C11 C12 1_555 1_555
C14A C15A 1_555 1_555
C5O C6O 1_555 1_555
C11O C12O 1_555 1_555
C14G C15G 1_555 1_555
C5B C6B 1_555 1_555
C11B C12B 1_555 1_555
C5H C6H 1_555 1_555
C11H C12H 1_555 1_555
C5A C6A 1_555 1_555
C11A C12A 1_555 1_555
C5G C6G 1_555 1_555
C11G C12G 1_555 1_555

#END
