
#######################################################################
#
#                 Cambridge Crystallographic Data Centre
#                                CCDC 
#
#######################################################################
#
# If this CIF has been generated from an entry in the Cambridge 
# Structural Database, then it will include bibliographic, chemical, 
# crystal, experimental, refinement or atomic coordinate data resulting 
# from the CCDC's data processing and validation procedures.
#
#######################################################################

data_WAKZAK
_symmetry_cell_setting           monoclinic
_symmetry_space_group_name_H-M   'C 2/c'
_symmetry_Int_Tables_number      15
_space_group_name_Hall           '-C 2yn'
loop_
_symmetry_equiv_pos_site_id
_symmetry_equiv_pos_as_xyz
1 x,y,z
2 1/2+x,1/2+y,z
3 -x,y,1/2-z
4 1/2-x,1/2+y,1/2-z
5 -x,-y,-z
6 1/2-x,1/2-y,-z
7 x,-y,1/2+z
8 1/2+x,1/2-y,1/2+z
_cell_length_a                   22.154(4)
_cell_length_b                   12.649(3)
_cell_length_c                   15.921(3)
_cell_angle_alpha                90
_cell_angle_beta                 112.34(3)
_cell_angle_gamma                90
_cell_volume                     4126.62
loop_
_atom_site_label
_atom_site_type_symbol
_atom_site_fract_x
_atom_site_fract_y
_atom_site_fract_z
Eu1 Eu 0.298558(6) 0.725312(9) 0.170158(8)
C1 C 0.17047(14) 0.6484(2) 0.14823(18)
C2 C 0.10623(14) 0.5990(2) 0.13517(19)
C3 C 0.10573(14) 0.4968(2) 0.16851(18)
H1 H 0.1458 0.4613 0.2001
C4 C 0.04696(14) 0.4470(2) 0.15574(19)
C5 C -0.01171(16) 0.5012(3) 0.1112(2)
H2 H -0.0521 0.4681 0.1028
C6 C -0.01102(16) 0.6027(3) 0.0794(2)
H3 H -0.0509 0.6395 0.0501
C7 C 0.04759(16) 0.6512(2) 0.0900(2)
H4 H 0.0476 0.7202 0.0663
C8 C 0.30579(13) 0.8119(2) 0.44012(18)
C9 C 0.33312(14) 0.7511(2) 0.51860(19)
H5 H 0.3478 0.6813 0.5152
C10 C 0.33881(15) 0.7932(2) 0.60162(19)
H6 H 0.3573 0.7518 0.6551
C11 C 0.31768(14) 0.8952(2) 0.60735(18)
H7 H 0.3220 0.9235 0.6646
C12 C 0.29010(13) 0.9564(2) 0.52892(18)
C13 C 0.28441(14) 0.9142(2) 0.44580(18)
H8 H 0.2658 0.9555 0.3923
C14 C 0.04772(14) 0.3340(2) 0.18441(19)
C15 C 0.26777(13) 1.0677(2) 0.53427(18)
C16 C 0.29959(15) 0.7695(2) 0.3493(2)
O1 O 0.17277(11) 0.73479(15) 0.10847(14)
O2 O 0.22192(10) 0.60282(15) 0.19821(13)
O3 O 0.32695(11) 0.68379(16) 0.34359(14)
O4 O 0.26737(10) 0.82261(15) 0.27912(12)
O5 O -0.00324(11) 0.28033(18) 0.14916(16)
O6 O 0.10032(10) 0.29761(17) 0.24025(14)
O7 O 0.24605(10) 1.12174(15) 0.46349(13)
O8 O 0.27286(10) 1.10096(15) 0.61166(13)
O9 O 0.36728(11) 0.74406(19) 0.07893(15)
H9 H 0.3527 0.7498 0.0211
H10 H 0.4073 0.7622 0.1059
O10 O 0.36086(12) 0.55660(18) 0.20532(16)
H11 H 0.3547 0.5268 0.1516
H12 H 0.3980 0.5650 0.2143
Eu1C Eu 0.201442(6) 1.225312(9) 0.329842(8)
Eu1C_2 Eu 0.201442(6) 0.225312(9) 0.329842(8)
Eu1F Eu 0.298558(6) 1.274688(9) 0.670158(8)
Eu1E Eu 0.201442(6) 0.774688(9) -0.170158(8)
C1C C 0.32953(14) 1.1484(2) 0.35177(18)
C2C C 0.39377(14) 1.0990(2) 0.36483(19)
C3C C 0.39427(14) 0.9968(2) 0.33149(18)
H1C H 0.3542 0.9613 0.2999
C4C C 0.45304(14) 0.9470(2) 0.34426(19)
C5C C 0.51171(16) 1.0012(3) 0.3888(2)
H2C H 0.5521 0.9681 0.3972
C6C C 0.51102(16) 1.1027(3) 0.4206(2)
H3C H 0.5509 1.1395 0.4499
C7C C 0.45241(16) 1.1512(2) 0.4100(2)
H4C H 0.4524 1.2202 0.4337
C8C C 0.19421(13) 0.3119(2) 0.05988(18)
C9C C 0.16688(14) 0.2511(2) -0.01860(19)
H5C H 0.1522 0.1813 -0.0152
C10C C 0.16119(15) 0.2932(2) -0.10162(19)
H6C H 0.1427 0.2518 -0.1551
C11C C 0.18232(14) 0.3952(2) -0.10735(18)
H7C H 0.1780 0.4235 -0.1646
C12C C 0.20990(13) 0.4564(2) -0.02892(18)
C13C C 0.21559(14) 0.4142(2) 0.05420(18)
H8C H 0.2342 0.4555 0.1077
C14C C 0.45228(14) 0.8340(2) 0.31559(19)
C15C C 0.23223(13) 0.5677(2) -0.03427(18)
C16C C 0.20041(15) 0.2695(2) 0.1507(2)
O1C O 0.32723(11) 1.23479(15) 0.39153(14)
O2C O 0.27808(10) 1.10282(15) 0.30179(13)
O3C O 0.17305(11) 0.18379(16) 0.15641(14)
O3C_2 O 0.17305(11) 1.18379(16) 0.15641(14)
O4C O 0.23263(10) 0.32261(15) 0.22088(12)
O4C_2 O 0.23263(10) 1.32261(15) 0.22088(12)
O5C O 0.50324(11) 0.78033(18) 0.35084(16)
O6C O 0.39968(10) 0.79761(17) 0.25975(14)
O6_2 O 0.10032(10) 1.29761(17) 0.24025(14)
O7C O 0.25395(10) 0.62174(15) 0.03651(13)
O8C O 0.22714(10) 0.60096(15) -0.11166(13)
O8F O 0.27286(10) 0.89904(15) 0.11166(13)
O8E O 0.22714(10) 1.39904(15) 0.38834(13)
O9C O 0.13272(11) 1.24406(19) 0.42107(15)
H9C H 0.1473 1.2498 0.4789
H10C H 0.0927 1.2622 0.3941
O10C O 0.13914(12) 1.05660(18) 0.29468(16)
H11C H 0.1453 1.0268 0.3484
H12C H 0.1020 1.0650 0.2857
K3 K 0.18280(11) 0.96298(12) 0.17249(11)
O11 O 0.1232(2) 0.9783(3) -0.0258(3)
O13 O 0.95646(17) 0.8654(3) 0.9381(3)
O14 O 0.0000 0.0908(5) 0.2500
O15 O 0.0354(6) 0.9312(8) 0.1112(8)
K1? K 0.2139(2) 0.9893(3) 0.2002(3)
K2? K 0.1177(3) 0.9289(5) 0.0887(5)
O12? O 0.1007(5) 1.0159(7) -0.0855(7)
O16? O -0.0034(5) 0.9150(8) 0.1116(7)
O17? O 0.4889(18) 0.6885(18) 0.751(2)
O18? O 0.512(3) 0.673(3) 0.721(3)
loop_
_geom_bond_atom_site_label_1
_geom_bond_atom_site_label_2
_geom_bond_site_symmetry_1
_geom_bond_site_symmetry_2
Eu1 O1 1_555 1_555
C1 C2 1_555 1_555
C2 C3 1_555 1_555
C3 H1 1_555 1_555
C4 C3 1_555 1_555
C5 C4 1_555 1_555
H2 C5 1_555 1_555
C6 C5 1_555 1_555
H3 C6 1_555 1_555
C7 C2 1_555 1_555
H4 C7 1_555 1_555
C8 C9 1_555 1_555
C9 H5 1_555 1_555
C10 C9 1_555 1_555
H6 C10 1_555 1_555
C11 C10 1_555 1_555
H7 C11 1_555 1_555
C12 C11 1_555 1_555
C13 C8 1_555 1_555
H8 C13 1_555 1_555
C14 C4 1_555 1_555
C15 C12 1_555 1_555
C16 C8 1_555 1_555
O1 C1 1_555 1_555
O2 Eu1 1_555 1_555
O3 Eu1 1_555 1_555
O4 Eu1 1_555 1_555
O5 C14 1_555 1_555
O6 C14 1_555 1_555
O7 C15 1_555 1_555
O8 C15 1_555 1_555
O9 Eu1 1_555 1_555
H9 O9 1_555 1_555
H10 O9 1_555 1_555
O10 Eu1 1_555 1_555
H11 O10 1_555 1_555
H12 O10 1_555 1_555
Eu1C O7 1_555 1_555
Eu1C_2 O6 1_555 1_555
Eu1F O8 1_555 1_555
Eu1E O8C 1_555 1_555
C1C C2C 1_555 1_555
C2C C3C 1_555 1_555
C3C H1C 1_555 1_555
C4C C3C 1_555 1_555
C5C C4C 1_555 1_555
H2C C5C 1_555 1_555
C6C C5C 1_555 1_555
H3C C6C 1_555 1_555
C7C C2C 1_555 1_555
H4C C7C 1_555 1_555
C8C C9C 1_555 1_555
C9C H5C 1_555 1_555
C10C C9C 1_555 1_555
H6C C10C 1_555 1_555
C11C C10C 1_555 1_555
H7C C11C 1_555 1_555
C12C C11C 1_555 1_555
C13C C8C 1_555 1_555
H8C C13C 1_555 1_555
C14C C4C 1_555 1_555
C15C C12C 1_555 1_555
C16C C8C 1_555 1_555
O1C Eu1C 1_555 1_555
O2C Eu1C 1_555 1_555
O3C Eu1C_2 1_555 1_555
O3C_2 Eu1C 1_555 1_555
O4C Eu1C_2 1_555 1_555
O4C_2 Eu1C 1_555 1_555
O5C C14C 1_555 1_555
O6C Eu1 1_555 1_555
O6_2 Eu1C 1_555 1_555
O7C Eu1 1_555 1_555
O8C C15C 1_555 1_555
O8F Eu1 1_555 1_555
O8E Eu1C 1_555 1_555
O9C Eu1C 1_555 1_555
H9C O9C 1_555 1_555
H10C O9C 1_555 1_555
O10C Eu1C 1_555 1_555
H11C O10C 1_555 1_555
H12C O10C 1_555 1_555
C1 O2 1_555 1_555
C6 C7 1_555 1_555
C12 C13 1_555 1_555
C16 O3 1_555 1_555
C16 O4 1_555 1_555
C1C O1C 1_555 1_555
C1C O2C 1_555 1_555
C6C C7C 1_555 1_555
C12C C13C 1_555 1_555
C14C O6C 1_555 1_555
C15C O7C 1_555 1_555
C16C O3C 1_555 1_555
C16C O4C 1_555 1_555

#END
