
#######################################################################
#
#                 Cambridge Crystallographic Data Centre
#                                CCDC 
#
#######################################################################
#
# If this CIF has been generated from an entry in the Cambridge 
# Structural Database, then it will include bibliographic, chemical, 
# crystal, experimental, refinement or atomic coordinate data resulting 
# from the CCDC's data processing and validation procedures.
#
#######################################################################

data_WALCET
_symmetry_cell_setting           orthorhombic
_symmetry_space_group_name_H-M   'P b c a'
_symmetry_Int_Tables_number      61
_space_group_name_Hall           '-P 2ac 2ab'
loop_
_symmetry_equiv_pos_site_id
_symmetry_equiv_pos_as_xyz
1 x,y,z
2 1/2-x,-y,1/2+z
3 -x,1/2+y,1/2-z
4 1/2+x,1/2-y,-z
5 -x,-y,-z
6 1/2+x,y,1/2-z
7 x,1/2-y,1/2+z
8 1/2-x,1/2+y,z
_cell_length_a                   13.8033(2)
_cell_length_b                   13.0094(2)
_cell_length_c                   16.8281(2)
_cell_angle_alpha                90
_cell_angle_beta                 90
_cell_angle_gamma                90
_cell_volume                     3021.87
loop_
_atom_site_label
_atom_site_type_symbol
_atom_site_fract_x
_atom_site_fract_y
_atom_site_fract_z
Zn1 Zn 0.02213(2) -0.42561(3) -0.404490(19)
Zn2 Zn 0.09270(2) -0.47683(3) -0.07598(2)
C1 C 0.0897(2) -0.4684(3) -0.24570(17)
C2 C -0.0082(2) -0.4224(2) -0.22229(17)
O1 O 0.10889(17) -0.4762(2) -0.31791(13)
O2 O -0.06039(18) -0.3946(2) -0.27832(13)
O3 O 0.14419(15) -0.4977(2) -0.19134(13)
O4 O -0.02452(16) -0.4182(2) -0.14953(13)
C3 C -0.0474(2) -0.2022(2) -0.41150(17)
C4 C 0.0796(2) -0.2218(2) -0.47909(17)
H1 H 0.1342 -0.2510 -0.5022
C5 C -0.22026(19) -0.5271(2) -0.52009(17)
C6 C -0.18821(19) -0.4711(2) -0.40631(16)
H2 H -0.1952 -0.4463 -0.3548
N1 N 0.02076(17) -0.27289(18) -0.42902(14)
N2 N 0.05245(16) -0.12737(18) -0.49200(13)
N3 N -0.03145(15) -0.11361(18) -0.44798(14)
N4 N -0.1253(2) -0.2201(2) -0.3637(2)
H3 H -0.1674 -0.1725 -0.3559
H4 H -0.1324 -0.2791 -0.3414
N5 N -0.12401(16) -0.52300(18) -0.51552(13)
N6 N -0.10416(15) -0.48595(19) -0.44006(13)
N7 N -0.26319(15) -0.49511(19) -0.45302(14)
N8 N -0.2690(2) -0.5638(3) -0.58381(17)
H5 H -0.2376 -0.5862 -0.6244
H6 H -0.3313 -0.5647 -0.5837
Zn1D Zn -0.02213(2) -0.57439(3) -0.595510(19)
Zn2F Zn 0.09270(2) -0.02317(3) -0.57598(2)
Zn2B Zn -0.09270(2) 0.02317(3) -0.42402(2)
Zn2E Zn -0.40730(2) -0.47683(3) -0.42402(2)
N2F N 0.05245(16) -0.37263(18) 0.00800(13)
N3B N 0.03145(15) -0.61361(18) -0.05202(14)
N5D N 0.12401(16) -0.47700(18) -0.48448(13)
N7E N 0.23681(15) -0.49511(19) -0.04698(14)
C7 C 0.169(2) -0.7072(18) -0.368(3)
O5 O 0.223(2) -0.7194(19) -0.3184(13)
O6 O 0.093(2) -0.6972(11) -0.3925(16)
C8 C 0.6254(18) -0.1848(12) -0.2738(14)
O7 O 0.5834(16) -0.1340(12) -0.2359(11)
O8 O 0.6600(11) -0.2376(13) -0.3176(12)
loop_
_geom_bond_atom_site_label_1
_geom_bond_atom_site_label_2
_geom_bond_site_symmetry_1
_geom_bond_site_symmetry_2
Zn1 O1 1_555 1_555
Zn2 O3 1_555 1_555
C1 C2 1_555 1_555
C2 O2 1_555 1_555
O1 C1 1_555 1_555
O2 Zn1 1_555 1_555
O3 C1 1_555 1_555
O4 Zn2 1_555 1_555
C3 N1 1_555 1_555
C4 H1 1_555 1_555
C5 N5 1_555 1_555
C6 H2 1_555 1_555
N1 Zn1 1_555 1_555
N2 C4 1_555 1_555
N3 C3 1_555 1_555
N4 C3 1_555 1_555
H3 N4 1_555 1_555
H4 N4 1_555 1_555
N5 N6 1_555 1_555
N6 Zn1 1_555 1_555
N7 C5 1_555 1_555
N8 C5 1_555 1_555
H5 N8 1_555 1_555
H6 N8 1_555 1_555
C7 O5 1_555 1_555
O6 C7 1_555 1_555
C8 O7 1_555 1_555
O8 C8 1_555 1_555
Zn1D N5 1_555 1_555
Zn2F N2 1_555 1_555
Zn2B N3 1_555 1_555
Zn2E N7 1_555 1_555
N2F Zn2 1_555 1_555
N3B Zn2 1_555 1_555
N5D Zn1 1_555 1_555
N7E Zn2 1_555 1_555
C2 O4 1_555 1_555
C4 N1 1_555 1_555
C6 N6 1_555 1_555
C6 N7 1_555 1_555
N2 N3 1_555 1_555

#END
