
#######################################################################
#
#                 Cambridge Crystallographic Data Centre
#                                CCDC 
#
#######################################################################
#
# If this CIF has been generated from an entry in the Cambridge 
# Structural Database, then it will include bibliographic, chemical, 
# crystal, experimental, refinement or atomic coordinate data resulting 
# from the CCDC's data processing and validation procedures.
#
#######################################################################

data_WALCIW
_symmetry_cell_setting           monoclinic
_symmetry_space_group_name_H-M   'P 21/n'
_symmetry_Int_Tables_number      14
_space_group_name_Hall           '-P 2yn'
loop_
_symmetry_equiv_pos_site_id
_symmetry_equiv_pos_as_xyz
1 x,y,z
2 1/2-x,1/2+y,1/2-z
3 -x,-y,-z
4 1/2+x,1/2-y,1/2+z
_cell_length_a                   9.8201(15)
_cell_length_b                   19.358(3)
_cell_length_c                   9.8553(12)
_cell_angle_alpha                90
_cell_angle_beta                 99.828(10)
_cell_angle_gamma                90
_cell_volume                     1845.97
loop_
_atom_site_label
_atom_site_type_symbol
_atom_site_fract_x
_atom_site_fract_y
_atom_site_fract_z
Pb1 Pb 0.907428(15) 0.460132(9) 0.727297(16)
S1 S 1.11664(12) 0.41122(6) 1.07094(12)
S2 S 0.80772(11) 0.55994(6) 1.40685(11)
O1 O 1.2119(4) 0.46780(17) 1.0672(4)
O2 O 1.0340(4) 0.39204(19) 0.9390(4)
O3 O 0.8952(3) 0.62064(19) 1.4198(4)
O4 O 0.7762(4) 0.53309(18) 1.5363(4)
N1 N 1.0289(4) 0.4328(2) 1.1833(4)
N2 N 0.8796(4) 0.5058(2) 1.3239(4)
C1 C 0.9087(4) 0.3988(3) 1.2117(5)
C2 C 0.8304(5) 0.4384(2) 1.2906(5)
C3 C 0.7115(5) 0.4093(3) 1.3265(5)
H1 H 0.6576 0.4350 1.3802
C4 C 0.6719(5) 0.3427(3) 1.2836(6)
H2 H 0.5902 0.3233 1.3073
C5 C 0.7502(5) 0.3045(3) 1.2070(6)
H3 H 0.7216 0.2592 1.1779
C6 C 0.8700(5) 0.3316(3) 1.1721(5)
H4 H 0.9252 0.3047 1.1218
C7 C 1.2155(5) 0.3370(3) 1.1275(5)
C8 C 1.2747(5) 0.3003(3) 1.0318(5)
H5 H 1.2531 0.3114 0.9367
C9 C 1.3660(5) 0.2468(3) 1.0770(6)
H6 H 1.4085 0.2216 1.0129
C10 C 1.3950(5) 0.2306(3) 1.2166(6)
H7 H 1.4585 0.1947 1.2479
C11 C 1.3317(5) 0.2666(3) 1.3094(6)
H8 H 1.3505 0.2544 1.4041
C12 C 1.2406(5) 0.3206(2) 1.2666(5)
H9 H 1.1971 0.3454 1.3306
C13 C 0.6452(4) 0.5826(2) 1.3109(5)
C14 C 0.5524(5) 0.6171(3) 1.3784(5)
H10 H 0.5741 0.6252 1.4747
C15 C 0.4280(5) 0.6397(3) 1.3041(6)
H11 H 0.3649 0.6646 1.3486
C16 C 0.3959(5) 0.6255(3) 1.1637(6)
H12 H 0.3099 0.6405 1.1130
C17 C 0.4868(5) 0.5902(3) 1.0974(5)
H13 H 0.4634 0.5810 1.0016
C18 C 0.6129(5) 0.5681(3) 1.1704(5)
H14 H 0.6761 0.5434 1.1254
Pb1_2 Pb 0.907428(15) 0.460132(9) 1.727297(16)
Pb1B Pb 1.092572(15) 0.539868(9) 1.272703(16)
O4_2 O 0.7762(4) 0.53309(18) 0.5363(4)
N1B N 0.9711(4) 0.5672(2) 0.8167(4)
N2B N 1.1204(4) 0.4942(2) 0.6761(4)
loop_
_geom_bond_atom_site_label_1
_geom_bond_atom_site_label_2
_geom_bond_site_symmetry_1
_geom_bond_site_symmetry_2
Pb1 O2 1_555 1_555
S1 O1 1_555 1_555
S2 O3 1_555 1_555
O2 S1 1_555 1_555
O4 S2 1_555 1_555
N1 S1 1_555 1_555
N2 S2 1_555 1_555
C1 N1 1_555 1_555
C2 N2 1_555 1_555
C3 C2 1_555 1_555
H1 C3 1_555 1_555
C4 C3 1_555 1_555
H2 C4 1_555 1_555
C5 C4 1_555 1_555
H3 C5 1_555 1_555
C6 C1 1_555 1_555
H4 C6 1_555 1_555
C7 S1 1_555 1_555
C8 C7 1_555 1_555
H5 C8 1_555 1_555
C9 C8 1_555 1_555
H6 C9 1_555 1_555
C10 C9 1_555 1_555
H7 C10 1_555 1_555
C11 C10 1_555 1_555
H8 C11 1_555 1_555
C12 C7 1_555 1_555
H9 C12 1_555 1_555
C13 S2 1_555 1_555
C14 C13 1_555 1_555
H10 C14 1_555 1_555
C15 C14 1_555 1_555
H11 C15 1_555 1_555
C16 C15 1_555 1_555
H12 C16 1_555 1_555
C17 C16 1_555 1_555
H13 C17 1_555 1_555
C18 C13 1_555 1_555
H14 C18 1_555 1_555
Pb1_2 O4 1_555 1_555
Pb1B N1 1_555 1_555
O4_2 Pb1 1_555 1_555
N1B Pb1 1_555 1_555
N2B Pb1 1_555 1_555
N2 Pb1B 1_555 1_555
C1 C2 1_555 1_555
C5 C6 1_555 1_555
C11 C12 1_555 1_555
C17 C18 1_555 1_555

#END
