
#######################################################################
#
#                 Cambridge Crystallographic Data Centre
#                                CCDC 
#
#######################################################################
#
# If this CIF has been generated from an entry in the Cambridge 
# Structural Database, then it will include bibliographic, chemical, 
# crystal, experimental, refinement or atomic coordinate data resulting 
# from the CCDC's data processing and validation procedures.
#
#######################################################################

data_WALCIX
_symmetry_cell_setting           orthorhombic
_symmetry_space_group_name_H-M   'P b c a'
_symmetry_Int_Tables_number      61
_space_group_name_Hall           '-P 2ac 2ab'
loop_
_symmetry_equiv_pos_site_id
_symmetry_equiv_pos_as_xyz
1 x,y,z
2 1/2-x,-y,1/2+z
3 -x,1/2+y,1/2-z
4 1/2+x,1/2-y,-z
5 -x,-y,-z
6 1/2+x,y,1/2-z
7 x,1/2-y,1/2+z
8 1/2-x,1/2+y,z
_cell_length_a                   13.8107(1)
_cell_length_b                   12.8732(2)
_cell_length_c                   16.8085(2)
_cell_angle_alpha                90
_cell_angle_beta                 90
_cell_angle_gamma                90
_cell_volume                     2988.35
loop_
_atom_site_label
_atom_site_type_symbol
_atom_site_fract_x
_atom_site_fract_y
_atom_site_fract_z
Zn1 Zn -0.02131(4) -0.42939(5) -0.09718(3)
Zn2 Zn -0.09294(4) -0.47612(5) -0.42537(3)
C1 C 0.0090(3) -0.4247(4) -0.2788(3)
C2 C -0.0891(3) -0.4697(4) -0.2557(3)
O1 O 0.0625(2) -0.3989(3) -0.22210(18)
O2 O -0.1079(2) -0.4804(3) -0.18371(19)
O3 O 0.0251(2) -0.4181(3) -0.35207(18)
O4 O -0.1447(2) -0.4952(3) -0.31051(18)
C3 C 0.0466(3) -0.2028(4) -0.0910(3)
C4 C -0.0790(3) -0.2243(4) -0.0221(3)
H1 H -0.1344 -0.2549 0.0018
C5 C 0.2204(3) -0.5262(4) 0.0220(3)
C6 C 0.1887(3) -0.4746(4) -0.0938(3)
H2 H 0.1961 -0.4518 -0.1473
N1 N -0.0207(2) -0.2754(3) -0.0735(2)
N2 N -0.0519(2) -0.1290(3) -0.0085(2)
N3 N 0.0303(2) -0.1136(3) -0.0534(2)
N4 N 0.1237(3) -0.2201(3) -0.1399(2)
H3 H 0.1664 -0.1705 -0.1482
H4 H 0.1308 -0.2808 -0.1632
N5 N 0.1239(2) -0.5220(3) 0.0171(2)
N6 N 0.1043(2) -0.4879(3) -0.05922(19)
N7 N 0.2638(2) -0.4968(3) -0.0454(2)
N8 N 0.2679(3) -0.5627(4) 0.0865(2)
H5 H 0.2351 -0.5852 0.1280
H6 H 0.3316 -0.5640 0.0871
Zn1D Zn 0.02131(4) -0.57061(5) 0.09718(3)
Zn2F Zn -0.09294(4) -0.02388(5) 0.07463(3)
Zn2B Zn 0.09294(4) 0.02388(5) -0.07463(3)
Zn2E Zn 0.40706(4) -0.47612(5) -0.07463(3)
N2F N -0.0519(2) -0.3710(3) -0.5085(2)
N3B N -0.0303(2) -0.6136(3) -0.4466(2)
N5D N -0.1239(2) -0.4780(3) -0.0171(2)
N7E N -0.2362(2) -0.4968(3) -0.4546(2)
loop_
_geom_bond_atom_site_label_1
_geom_bond_atom_site_label_2
_geom_bond_site_symmetry_1
_geom_bond_site_symmetry_2
Zn1 O1 1_555 1_555
Zn2 O3 1_555 1_555
C1 C2 1_555 1_555
C2 O2 1_555 1_555
O1 C1 1_555 1_555
O2 Zn1 1_555 1_555
O3 C1 1_555 1_555
O4 Zn2 1_555 1_555
C3 N1 1_555 1_555
C4 H1 1_555 1_555
C5 N5 1_555 1_555
C6 H2 1_555 1_555
N1 Zn1 1_555 1_555
N2 C4 1_555 1_555
N3 C3 1_555 1_555
N4 C3 1_555 1_555
H3 N4 1_555 1_555
H4 N4 1_555 1_555
N5 N6 1_555 1_555
N6 Zn1 1_555 1_555
N7 C5 1_555 1_555
N8 C5 1_555 1_555
H5 N8 1_555 1_555
H6 N8 1_555 1_555
Zn1D N5 1_555 1_555
Zn2F N2 1_555 1_555
Zn2B N3 1_555 1_555
Zn2E N7 1_555 1_555
N2F Zn2 1_555 1_555
N3B Zn2 1_555 1_555
N5D Zn1 1_555 1_555
N7E Zn2 1_555 1_555
C2 O4 1_555 1_555
C4 N1 1_555 1_555
C6 N6 1_555 1_555
C6 N7 1_555 1_555
N2 N3 1_555 1_555

#END
