
#######################################################################
#
#                 Cambridge Crystallographic Data Centre
#                                CCDC 
#
#######################################################################
#
# If this CIF has been generated from an entry in the Cambridge 
# Structural Database, then it will include bibliographic, chemical, 
# crystal, experimental, refinement or atomic coordinate data resulting 
# from the CCDC's data processing and validation procedures.
#
#######################################################################

data_WALNAZ05
_symmetry_cell_setting           monoclinic
_symmetry_space_group_name_H-M   'P 21/c'
_symmetry_Int_Tables_number      14
_space_group_name_Hall           '-P 2ybc'
loop_
_symmetry_equiv_pos_site_id
_symmetry_equiv_pos_as_xyz
1 x,y,z
2 -x,1/2+y,1/2-z
3 -x,-y,-z
4 x,1/2-y,1/2+z
_cell_length_a                   17.584(3)
_cell_length_b                   29.254(5)
_cell_length_c                   12.182(2)
_cell_angle_alpha                90
_cell_angle_beta                 97.042(4)
_cell_angle_gamma                90
_cell_volume                     6219.18
loop_
_atom_site_label
_atom_site_type_symbol
_atom_site_fract_x
_atom_site_fract_y
_atom_site_fract_z
Ag1 Ag 0.16755(10) 0.86283(6) 0.14721(15)
Ag2 Ag 0.21668(11) 0.68733(6) -0.12485(15)
Ag3 Ag 0.25892(11) 0.73194(6) -0.36267(15)
Ag4 Ag 0.22755(10) 0.56973(6) -0.76461(15)
Ag5 Ag 0.31858(10) 0.49963(6) 0.12775(15)
Ag6 Ag 0.14862(11) 0.63656(6) -0.63252(15)
Ag7 Ag 0.65830(10) 0.76876(6) -0.13569(15)
Ag8 Ag -0.29349(10) 0.69432(6) -0.28505(15)
Ag9 Ag -0.21277(11) 0.87999(6) 0.10544(15)
Ag10 Ag 0.73196(10) 0.56129(6) -0.60606(15)
Ag11 Ag 0.68767(11) 0.50615(6) 0.16827(15)
Ag12 Ag 0.21765(11) 0.40243(6) -1.15535(15)
Fe1 Fe -0.04458(18) 0.74822(12) -0.0431(3)
Fe2 Fe 0.49234(18) 0.62950(11) -0.0197(3)
Fe3 Fe 0.46651(19) 0.62730(11) -0.5236(3)
Fe4 Fe 0.0000 0.5000 -1.0000
Fe5 Fe 0.0000 0.5000 -0.5000
N1 N -0.1361(12) 0.7094(7) -0.1267(17)
N2 N -0.1225(13) 0.7969(7) 0.0079(18)
N3 N 0.0471(12) 0.7888(7) 0.0374(17)
N4 N 0.0412(11) 0.7037(7) -0.0965(16)
N5 N -0.0414(11) 0.7099(7) 0.1097(17)
N6 N -0.0402(12) 0.7896(7) -0.1927(17)
N7 N 0.4134(12) 0.5806(7) 0.0234(17)
N8 N 0.5829(11) 0.5864(7) 0.0610(16)
N9 N 0.5699(12) 0.6792(7) -0.0634(18)
N10 N 0.3962(11) 0.6682(6) -0.1004(15)
N11 N 0.4950(10) 0.5893(6) -0.1747(15)
N12 N 0.4815(12) 0.6695(7) 0.1337(17)
N13 N 0.3777(11) 0.6688(6) -0.4718(16)
N14 N 0.3865(11) 0.5825(6) -0.6050(15)
N15 N 0.5581(12) 0.5871(7) -0.5723(16)
N16 N 0.5527(12) 0.6738(7) -0.4428(17)
N17 N 0.4639(10) 0.6668(6) -0.6771(15)
N18 N 0.4738(12) 0.5883(7) -0.3687(17)
N19 N 0.0722(11) 0.5527(7) -0.9254(16)
N20 N 0.0973(12) 0.4642(7) -1.0405(17)
N21 N 0.0058(12) 0.4630(7) -0.8356(17)
N22 N 0.0920(12) 0.4711(7) -0.4331(17)
N23 N 0.0618(11) 0.5492(6) -0.5515(16)
N24 N 0.0085(11) 0.4646(6) -0.6384(15)
N25 N 0.1890(13) 0.6905(8) -0.7155(19)
N26 N 0.2684(13) 0.3502(7) -1.2390(18)
N27 N 0.2757(15) 0.4506(9) 0.222(2)
N28 N 0.7413(12) 0.4490(7) 0.2415(17)
C1 C -0.1923(12) 0.7029(7) -0.1801(17)
C2 C -0.1594(12) 0.8281(7) 0.0329(18)
C3 C 0.0926(16) 0.8138(9) 0.079(2)
C4 C 0.1010(16) 0.6954(9) -0.110(2)
C5 C -0.0433(13) 0.7299(8) 0.2065(19)
H1 H -0.0475 0.7623 0.2049
C6 C -0.0333(14) 0.6645(8) 0.113(2)
H2 H -0.0284 0.6488 0.0464
C7 C -0.0315(12) 0.6380(8) 0.2140(18)
H3 H -0.0278 0.6056 0.2156
C8 C -0.0356(13) 0.8358(8) -0.1925(19)
H4 H -0.0352 0.8512 -0.1238
C9 C 0.3770(14) 0.5509(8) 0.0561(19)
C10 C 0.6220(13) 0.5594(7) 0.1013(18)
C11 C 0.6046(13) 0.7128(8) -0.0849(19)
C12 C 0.3326(13) 0.6783(8) -0.1167(19)
C13 C 0.4816(13) 0.6067(8) -0.2738(19)
H5 H 0.4769 0.6390 -0.2750
C14 C 0.4962(14) 0.5425(8) -0.172(2)
H6 H 0.5032 0.5272 -0.1031
C15 C 0.4874(12) 0.5172(8) -0.2682(18)
H7 H 0.4889 0.4847 -0.2671
C16 C 0.4759(13) 0.5421(8) -0.3692(19)
H8 H 0.4697 0.5261 -0.4376
C17 C 0.4781(12) 0.6473(7) 0.2301(17)
H9 H 0.4865 0.6152 0.2311
C18 C 0.4733(14) 0.7148(9) 0.132(2)
H10 H 0.4769 0.7310 0.0655
C19 C 0.4597(14) 0.7385(9) 0.225(2)
H11 H 0.4546 0.7709 0.2248
C20 C 0.4538(12) 0.7133(7) -0.6800(18)
H12 H 0.4425 0.7286 -0.6152
C21 C 0.3300(13) 0.6888(8) -0.4416(19)
C22 C 0.3293(14) 0.5742(8) -0.659(2)
C23 C 0.6203(13) 0.5769(8) -0.5892(19)
C24 C -0.3948(13) 0.6846(8) -0.3931(19)
C25 C 0.1284(13) 0.5615(8) -0.8719(19)
C26 C 0.1451(14) 0.4443(9) -1.078(2)
C27 C 0.0007(15) 0.4839(9) -0.740(2)
H13 H -0.0094 0.5158 -0.7434
C28 C 0.0153(15) 0.4191(9) -0.835(2)
H14 H 0.0172 0.4033 -0.9030
C29 C 0.0230(13) 0.3939(8) -0.7319(19)
H15 H 0.0289 0.3616 -0.7306
C30 C 0.0214(13) 0.4187(8) -0.6352(19)
H16 H 0.0294 0.4034 -0.5659
C31 C 0.8477(14) 0.5438(8) -0.595(2)
C32 C 0.0960(13) 0.5788(8) -0.5739(19)
C33 C 0.2092(14) 0.7805(8) -0.271(2)
C34 C 0.7040(12) 0.8242(7) -0.2092(17)
C35 C -0.2540(13) 0.9267(8) 0.2105(19)
C36 C 0.2300(12) 0.9168(7) 0.2215(17)
Ag1A Ag 0.83245(10) 0.36283(6) -0.64721(15)
Ag1A_2 Ag 0.83245(10) 0.36283(6) 0.35279(15)
Ag1C Ag 0.16755(10) 0.63717(6) -0.35279(15)
Ag2_2 Ag 0.21668(11) 0.68733(6) -1.12485(15)
Ag2C Ag 0.21668(11) 0.81267(6) -0.62485(15)
Ag3C Ag 0.25892(11) 0.76806(6) -0.86267(15)
Ag3_2 Ag 0.25892(11) 0.73194(6) -1.36267(15)
Ag4_2 Ag 0.22755(10) 0.56973(6) -1.76461(15)
Ag5_2 Ag 0.31858(10) 0.49963(6) -0.87225(15)
Ag5A Ag -0.31858(10) 0.99963(6) 0.37225(15)
Ag6C Ag 0.14862(11) 0.86344(6) -0.13252(15)
Ag7A Ag 0.34170(10) 0.26876(6) -1.36431(15)
Ag7_2 Ag 0.65830(10) 0.76876(6) -1.13569(15)
Ag8_2 Ag 0.70651(10) 0.69432(6) -0.28505(15)
Ag8C Ag -0.29349(10) 0.80568(6) -0.78505(15)
Ag9A Ag 0.21277(11) 0.37999(6) 0.39456(15)
Ag9C Ag -0.21277(11) 0.62001(6) -0.39456(15)
Ag10B Ag 0.26804(10) 0.43871(6) -0.39394(15)
Ag10_2 Ag 0.73196(10) 0.56129(6) -1.60606(15)
Ag11_2 Ag 0.68767(11) 0.50615(6) -0.83173(15)
Ag11A Ag 0.31233(11) 1.00615(6) 0.33173(15)
Ag12A Ag 0.78235(11) 0.90243(6) -0.34465(15)
Fe1_2 Fe -0.04458(18) 0.74822(12) -1.0431(3)
Fe1_3 Fe 0.95542(18) 0.74822(12) -0.0431(3)
Fe1C Fe -0.04458(18) 0.75178(12) -0.5431(3)
Fe1C_2 Fe -0.04458(18) 0.75178(12) 0.4569(3)
Fe2_2 Fe 0.49234(18) 0.62950(11) -1.0197(3)
Fe3_2 Fe 0.46651(19) 0.62730(11) -1.5236(3)
Fe3_3 Fe 0.46651(19) 0.62730(11) 0.4764(3)
Fe3_4 Fe -0.53349(19) 0.62730(11) -0.5236(3)
Fe5_2 Fe 0.0000 0.5000 -1.5000
Fe5_3 Fe 1.0000 0.5000 -0.5000
N1_2 N 0.8639(12) 0.7094(7) -0.1267(17)
N1C N -0.1361(12) 0.7906(7) -0.6267(17)
N2C N -0.1225(13) 0.7031(7) -0.4921(18)
N3C N 0.0471(12) 0.7112(7) -0.4626(17)
N4_2 N 0.0412(11) 0.7037(7) -1.0965(16)
N4C N 0.0412(11) 0.7963(7) -0.5965(16)
N5C N -0.0414(11) 0.7901(7) -0.3903(17)
N6C N -0.0402(12) 0.7104(7) 0.3073(17)
N6C_2 N -0.0402(12) 0.7104(7) -0.6927(17)
N7_2 N 0.4134(12) 0.5806(7) -0.9766(17)
N8_2 N 0.5829(11) 0.5864(7) -0.9390(16)
N9_2 N 0.5699(12) 0.6792(7) -1.0634(18)
N10_2 N 0.3962(11) 0.6682(6) -1.1004(15)
N11_2 N 0.4950(10) 0.5893(6) -1.1747(15)
N12_2 N 0.4815(12) 0.6695(7) -0.8663(17)
N13_2 N 0.3777(11) 0.6688(6) -1.4718(16)
N14_2 N 0.3865(11) 0.5825(6) -1.6050(15)
N15_2 N 0.5581(12) 0.5871(7) -1.5723(16)
N16_2 N -0.4473(12) 0.6738(7) -0.4428(17)
N16_3 N 0.5527(12) 0.6738(7) -1.4428(17)
N17_2 N 0.4639(10) 0.6668(6) 0.3229(15)
N17_3 N 0.4639(10) 0.6668(6) -1.6771(15)
N18_2 N 0.4738(12) 0.5883(7) -1.3687(17)
N19B N -0.0722(11) 0.4473(7) -1.0746(16)
N20B N -0.0973(12) 0.5358(7) -0.9595(17)
N21B N -0.0058(12) 0.5370(7) -1.1644(17)
N22B N -0.0920(12) 0.5289(7) -0.5669(17)
N22B_2 N 0.9080(12) 0.5289(7) -0.5669(17)
N23B N -0.0618(11) 0.4508(6) -0.4485(16)
N24B N -0.0085(11) 0.5354(6) -0.3616(15)
N24B_2 N -0.0085(11) 0.5354(6) -1.3616(15)
N25C N 0.1890(13) 0.8095(8) -0.2155(19)
N26A N 0.7316(13) 0.8502(7) -0.2610(18)
N27A N -0.2757(15) 0.9506(9) 0.278(2)
N27_2 N 0.2757(15) 0.4506(9) -0.778(2)
N28A N 0.2587(12) 0.9490(7) 0.2585(17)
N28_2 N 0.7413(12) 0.4490(7) -0.7585(17)
C1_2 C 0.8077(12) 0.7029(7) -0.1801(17)
C1C C -0.1923(12) 0.7971(7) -0.6801(17)
C2C C -0.1594(12) 0.6719(7) -0.4671(18)
C3C C 0.0926(16) 0.6862(9) -0.421(2)
C4_2 C 0.1010(16) 0.6954(9) -1.110(2)
C4C C 0.1010(16) 0.8046(9) -0.610(2)
C5C C -0.0433(13) 0.7701(8) -0.2935(19)
H1C H -0.0475 0.7377 -0.2951
C6C C -0.0333(14) 0.8355(8) -0.387(2)
H2C H -0.0284 0.8512 -0.4536
C7C C -0.0315(12) 0.8620(8) -0.2860(18)
H3C H -0.0278 0.8944 -0.2844
C8C C -0.0356(13) 0.6642(8) 0.3075(19)
H4C H -0.0352 0.6488 0.3762
C9_2 C 0.3770(14) 0.5509(8) -0.9439(19)
C10_2 C 0.6220(13) 0.5594(7) -0.8987(18)
C11_2 C 0.6046(13) 0.7128(8) -1.0849(19)
C12_2 C 0.3326(13) 0.6783(8) -1.1167(19)
C12C C 0.3326(13) 0.8217(8) -0.6167(19)
C13_2 C 0.4816(13) 0.6067(8) -1.2738(19)
H5_2 H 0.4769 0.6390 -1.2750
C14_2 C 0.4962(14) 0.5425(8) -1.172(2)
H6_2 H 0.5032 0.5272 -1.1031
C15_2 C 0.4874(12) 0.5172(8) -1.2682(18)
H7_2 H 0.4889 0.4847 -1.2671
C16_2 C 0.4759(13) 0.5421(8) -1.3692(19)
H8_2 H 0.4697 0.5261 -1.4376
C17_2 C 0.4781(12) 0.6473(7) -0.7699(17)
H9_2 H 0.4865 0.6152 -0.7689
C18_2 C 0.4733(14) 0.7148(9) -0.868(2)
H10_2 H 0.4769 0.7310 -0.9345
C19_2 C 0.4597(14) 0.7385(9) -0.775(2)
H11_2 H 0.4546 0.7709 -0.7752
C20_2 C 0.4538(12) 0.7133(7) 0.3200(18)
H12_2 H 0.4425 0.7286 0.3848
C21_2 C 0.3300(13) 0.6888(8) -1.4416(19)
C22_2 C 0.3293(14) 0.5742(8) -1.659(2)
C23_2 C 0.6203(13) 0.5769(8) -1.5892(19)
C24_2 C 0.6052(13) 0.6846(8) -0.3931(19)
C24C C -0.3948(13) 0.8154(8) -0.8931(19)
C25_2 C 0.1284(13) 0.5615(8) -1.8719(19)
C27B C -0.0007(15) 0.5161(9) -1.260(2)
H13B H 0.0094 0.4842 -1.2566
C28B C -0.0153(15) 0.5809(9) -1.165(2)
H14B H -0.0172 0.5967 -1.0970
C29B C -0.0230(13) 0.6061(8) -1.2681(19)
H15B H -0.0289 0.6384 -1.2694
C30B C -0.0214(13) 0.5813(8) -1.3648(19)
H16B H -0.0294 0.5966 -1.4341
C31B C 0.1523(14) 0.4562(8) -0.405(2)
C31_2 C 0.8477(14) 0.5438(8) -1.595(2)
C33C C 0.2092(14) 0.7195(8) -0.771(2)
C33_2 C 0.2092(14) 0.7805(8) -1.271(2)
C34A C 0.2960(12) 0.3242(7) -1.2908(17)
C34_2 C 0.7040(12) 0.8242(7) -1.2092(17)
C35A C 0.2540(13) 0.4267(8) 0.2895(19)
C35C C -0.2540(13) 0.5733(8) -0.2895(19)
C36A C 0.7700(12) 0.4168(7) 0.2785(17)
C36A_2 C 0.7700(12) 0.4168(7) -0.7215(17)
C36C C 0.2300(12) 0.5832(7) -0.2785(17)
loop_
_geom_bond_atom_site_label_1
_geom_bond_atom_site_label_2
_geom_bond_site_symmetry_1
_geom_bond_site_symmetry_2
Ag1 C3 1_555 1_555
Ag2 C4 1_555 1_555
Ag3 C21 1_555 1_555
Ag4 C22 1_555 1_555
Ag5 N27 1_555 1_555
Ag6 N25 1_555 1_555
Ag7 C11 1_555 1_555
Ag8 C1 1_555 1_555
Ag9 C2 1_555 1_555
Ag10 C23 1_555 1_555
Ag11 N28 1_555 1_555
Ag12 N26 1_555 1_555
Fe1 N1 1_555 1_555
Fe2 N7 1_555 1_555
Fe3 N13 1_555 1_555
Fe4 N19 1_555 1_555
Fe5 N22 1_555 1_555
N1 C1 1_555 1_555
N2 Fe1 1_555 1_555
N3 Fe1 1_555 1_555
N4 Fe1 1_555 1_555
N5 Fe1 1_555 1_555
N6 Fe1 1_555 1_555
N7 C9 1_555 1_555
N8 Fe2 1_555 1_555
N9 Fe2 1_555 1_555
N10 Fe2 1_555 1_555
N11 Fe2 1_555 1_555
N12 Fe2 1_555 1_555
N13 C21 1_555 1_555
N14 Fe3 1_555 1_555
N15 Fe3 1_555 1_555
N16 Fe3 1_555 1_555
N17 Fe3 1_555 1_555
N18 Fe3 1_555 1_555
N19 C25 1_555 1_555
N20 Fe4 1_555 1_555
N21 Fe4 1_555 1_555
N22 C31B 1_555 1_555
N23 Fe5 1_555 1_555
N24 Fe5 1_555 1_555
N25 C33C 1_555 1_555
N26 C34A 1_555 1_555
N27 C35A 1_555 1_555
N28 C36A 1_555 1_555
C2 N2 1_555 1_555
C3 N3 1_555 1_555
C4 N4 1_555 1_555
C5 N5 1_555 1_555
H1 C5 1_555 1_555
C6 N5 1_555 1_555
H2 C6 1_555 1_555
C7 C6 1_555 1_555
H3 C7 1_555 1_555
C8 N6 1_555 1_555
H4 C8 1_555 1_555
C9 Ag5 1_555 1_555
C10 Ag11 1_555 1_555
C11 N9 1_555 1_555
C12 Ag2 1_555 1_555
C13 N11 1_555 1_555
H5 C13 1_555 1_555
C14 N11 1_555 1_555
H6 C14 1_555 1_555
C15 C14 1_555 1_555
H7 C15 1_555 1_555
C16 N18 1_555 1_555
H8 C16 1_555 1_555
C17 N12 1_555 1_555
H9 C17 1_555 1_555
C18 N12 1_555 1_555
H10 C18 1_555 1_555
C19 C18 1_555 1_555
H11 C19 1_555 1_555
C20 N17 1_555 1_555
H12 C20 1_555 1_555
C22 N14 1_555 1_555
C23 N15 1_555 1_555
C24 Ag8 1_555 1_555
C25 Ag4 1_555 1_555
C26 Ag12 1_555 1_555
C27 N21 1_555 1_555
H13 C27 1_555 1_555
C28 N21 1_555 1_555
H14 C28 1_555 1_555
C29 C28 1_555 1_555
H15 C29 1_555 1_555
C30 N24 1_555 1_555
H16 C30 1_555 1_555
C31 Ag10 1_555 1_555
C32 Ag6 1_555 1_555
C33 Ag3 1_555 1_555
C34 Ag7 1_555 1_555
C35 Ag9 1_555 1_555
C36 Ag1 1_555 1_555
Ag1A C36A_2 1_555 1_555
Ag1A_2 C36A 1_555 1_555
Ag1C C3C 1_555 1_555
Ag2_2 C4_2 1_555 1_555
Ag2C C4C 1_555 1_555
Ag3C C33C 1_555 1_555
Ag3_2 C21_2 1_555 1_555
Ag4_2 C22_2 1_555 1_555
Ag5_2 N27_2 1_555 1_555
Ag5A N27A 1_555 1_555
Ag6C N25C 1_555 1_555
Ag7A C34A 1_555 1_555
Ag7_2 C11_2 1_555 1_555
Ag8_2 C1_2 1_555 1_555
Ag8C C1C 1_555 1_555
Ag9A C35A 1_555 1_555
Ag9C C2C 1_555 1_555
Ag10B C31B 1_555 1_555
Ag10_2 C23_2 1_555 1_555
Ag11_2 N28_2 1_555 1_555
Ag11A N28A 1_555 1_555
Ag12A N26A 1_555 1_555
Fe1_2 N4_2 1_555 1_555
Fe1_3 N1_2 1_555 1_555
Fe1C N1C 1_555 1_555
Fe1C_2 N6C 1_555 1_555
Fe2_2 N7_2 1_555 1_555
Fe3_2 N13_2 1_555 1_555
Fe3_3 N17_2 1_555 1_555
Fe3_4 N16_2 1_555 1_555
Fe5_2 N24B_2 1_555 1_555
Fe5_3 N22B_2 1_555 1_555
N1_2 C1_2 1_555 1_555
N1C C1C 1_555 1_555
N2C Fe1C 1_555 1_555
N3C Fe1C 1_555 1_555
N4_2 C4_2 1_555 1_555
N4C Fe1C 1_555 1_555
N5C Fe1C 1_555 1_555
N6C C5 1_555 1_555
N6C_2 Fe1C 1_555 1_555
N7_2 C9_2 1_555 1_555
N8_2 Fe2_2 1_555 1_555
N9_2 Fe2_2 1_555 1_555
N10_2 Fe2_2 1_555 1_555
N11_2 Fe2_2 1_555 1_555
N12_2 Fe2_2 1_555 1_555
N13_2 C21_2 1_555 1_555
N14_2 Fe3_2 1_555 1_555
N15_2 Fe3_2 1_555 1_555
N16_2 C24 1_555 1_555
N16_3 Fe3_2 1_555 1_555
N17_2 C17 1_555 1_555
N17_3 Fe3_2 1_555 1_555
N18_2 Fe3_2 1_555 1_555
N19B Fe4 1_555 1_555
N20B Fe4 1_555 1_555
N21B Fe4 1_555 1_555
N22B Fe5 1_555 1_555
N22B_2 C31 1_555 1_555
N23B Fe5 1_555 1_555
N24B Fe5 1_555 1_555
N24B_2 C27B 1_555 1_555
N25C C33 1_555 1_555
N26A C34 1_555 1_555
N27A C35 1_555 1_555
N28A C36 1_555 1_555
N28_2 C36A_2 1_555 1_555
C2C N2C 1_555 1_555
C3C N3C 1_555 1_555
C4C N4C 1_555 1_555
C5C N6 1_555 1_555
H1C C5C 1_555 1_555
C6C N5C 1_555 1_555
H2C C6C 1_555 1_555
C7C C8 1_555 1_555
H3C C7C 1_555 1_555
C8C C7 1_555 1_555
H4C C8C 1_555 1_555
C9_2 Ag5_2 1_555 1_555
C10_2 Ag11_2 1_555 1_555
C11_2 N9_2 1_555 1_555
C12_2 Ag2_2 1_555 1_555
C12C Ag2C 1_555 1_555
C13_2 N11_2 1_555 1_555
H5_2 C13_2 1_555 1_555
C14_2 N11_2 1_555 1_555
H6_2 C14_2 1_555 1_555
C15_2 C14_2 1_555 1_555
H7_2 C15_2 1_555 1_555
C16_2 N18_2 1_555 1_555
H8_2 C16_2 1_555 1_555
C17_2 N17 1_555 1_555
H9_2 C17_2 1_555 1_555
C18_2 N12_2 1_555 1_555
H10_2 C18_2 1_555 1_555
C19_2 C20 1_555 1_555
H11_2 C19_2 1_555 1_555
C20_2 C19 1_555 1_555
H12_2 C20_2 1_555 1_555
C22_2 N14_2 1_555 1_555
C23_2 N15_2 1_555 1_555
C24_2 N16 1_555 1_555
C24C Ag8C 1_555 1_555
C25_2 Ag4_2 1_555 1_555
C27B N21B 1_555 1_555
H13B C27B 1_555 1_555
C28B N21B 1_555 1_555
H14B C28B 1_555 1_555
C29B C28B 1_555 1_555
H15B C29B 1_555 1_555
C30B N24B_2 1_555 1_555
H16B C30B 1_555 1_555
C31_2 Ag10_2 1_555 1_555
C33_2 Ag3_2 1_555 1_555
C34_2 Ag7_2 1_555 1_555
C35C Ag9C 1_555 1_555
C36C Ag1C 1_555 1_555
N8 C10 1_555 1_555
N10 C12 1_555 1_555
N18 C13 1_555 1_555
N20 C26 1_555 1_555
N23 C32 1_555 1_555
N24 C27 1_555 1_555
C15 C16 1_555 1_555
C29 C30 1_555 1_555
Ag8_2 C24_2 1_555 1_555
N5C C5C 1_555 1_555
N6C C8C 1_555 1_555
N8_2 C10_2 1_555 1_555
N10_2 C12_2 1_555 1_555
N12_2 C17_2 1_555 1_555
N17_2 C20_2 1_555 1_555
N18_2 C13_2 1_555 1_555
C6C C7C 1_555 1_555
C15_2 C16_2 1_555 1_555
C18_2 C19_2 1_555 1_555
C29B C30B 1_555 1_555

#END
