
#######################################################################
#
#                 Cambridge Crystallographic Data Centre
#                                CCDC 
#
#######################################################################
#
# If this CIF has been generated from an entry in the Cambridge 
# Structural Database, then it will include bibliographic, chemical, 
# crystal, experimental, refinement or atomic coordinate data resulting 
# from the CCDC's data processing and validation procedures.
#
#######################################################################

data_WALNAZ
_symmetry_cell_setting           monoclinic
_symmetry_space_group_name_H-M   'P 21/c'
_symmetry_Int_Tables_number      14
_space_group_name_Hall           '-P 2ybc'
loop_
_symmetry_equiv_pos_site_id
_symmetry_equiv_pos_as_xyz
1 x,y,z
2 -x,1/2+y,1/2-z
3 -x,-y,-z
4 x,1/2-y,1/2+z
_cell_length_a                   17.5612(6)
_cell_length_b                   29.2365(10)
_cell_length_c                   12.2971(5)
_cell_angle_alpha                90
_cell_angle_beta                 97.399(2)
_cell_angle_gamma                90
_cell_volume                     6261.1
loop_
_atom_site_label
_atom_site_type_symbol
_atom_site_fract_x
_atom_site_fract_y
_atom_site_fract_z
Ag1 Ag 0.16742(5) 0.86308(2) 0.15851(7)
Ag2 Ag 0.21794(4) 0.68931(3) -0.11115(6)
Ag3 Ag -0.73972(5) 0.73253(3) -0.36514(7)
Ag4 Ag -0.77085(4) 0.56942(3) -0.76128(7)
Ag5 Ag 0.31916(5) 0.50013(2) 0.12947(7)
Ag6 Ag -0.15849(5) 0.36098(2) -0.37406(7)
Ag7 Ag 0.65992(4) 0.76833(2) -0.13251(6)
Ag8 Ag -0.29167(4) 0.69294(3) -0.27623(6)
Ag9 Ag -0.21386(5) 0.88043(2) 0.11028(6)
Ag10 Ag -0.27092(4) 0.56270(3) -0.60758(6)
Ag11 Ag 0.69078(5) 0.50650(2) 0.16044(7)
Ag12 Ag -0.78542(4) 0.39877(2) -1.15481(7)
Fe1 Fe -0.04482(6) 0.74890(4) -0.03274(8)
Fe2 Fe 0.49319(6) 0.62997(3) -0.01521(8)
Fe3 Fe -0.53203(6) 0.62776(4) -0.51905(8)
Fe4 Fe -1.0000 0.5000 -1.0000
Fe5 Fe 0.0000 0.5000 -0.5000
N1 N -0.1358(3) 0.7090(2) -0.1140(5)
N2 N -0.1239(4) 0.7989(2) 0.0170(5)
N3 N 0.0461(4) 0.7913(2) 0.0485(5)
N4 N 0.0418(4) 0.7045(2) -0.0835(5)
N5 N -0.0406(3) 0.7092(2) 0.1221(5)
N6 N -0.0414(3) 0.7901(2) -0.1851(5)
N7 N -0.5250(3) 0.5880(2) -0.3642(5)
N8 N 0.4910(3) 0.58885(18) -0.1697(5)
N9 N 0.5701(3) 0.68044(19) -0.0592(5)
N10 N 0.3978(4) 0.6688(2) -0.0909(5)
N11 N 0.4133(3) 0.5793(2) 0.0328(5)
N12 N 0.5826(3) 0.5870(2) 0.0612(5)
N13 N 0.4827(3) 0.6682(2) 0.1394(5)
N14 N -0.5318(3) 0.66713(19) -0.6730(5)
N15 N -0.4425(4) 0.5859(2) -0.5683(5)
N16 N -0.4453(4) 0.6729(2) -0.4383(5)
N17 N -0.6204(4) 0.6688(2) -0.4705(5)
N18 N -0.6166(4) 0.5840(2) -0.5988(5)
N19 N -0.9236(4) 0.5497(2) -0.9228(5)
N20 N -0.9040(4) 0.4624(2) -1.0465(5)
N21 N -0.9911(3) 0.4609(2) -0.8449(5)
N22 N -0.0103(3) 0.53859(19) -0.3500(5)
N23 N -0.0745(3) 0.4493(2) -0.4554(5)
N24 N -0.0941(4) 0.5367(2) -0.5823(5)
N25 N -0.1964(5) 0.3062(3) -0.2862(7)
N26 N -0.7320(4) 0.3488(3) -1.2381(6)
N27 N 0.2753(5) 0.4514(3) 0.2248(7)
N28 N 0.7447(6) 0.4501(3) 0.2296(8)
C1 C -0.1913(5) 0.6999(3) -0.1717(7)
C2 C -0.1585(4) 0.8286(3) 0.0406(7)
C3 C 0.0941(4) 0.8141(3) 0.0888(7)
C4 C 0.1020(5) 0.6960(3) -0.0976(7)
C5 C 0.6048(4) 0.7120(2) -0.0789(6)
C6 C 0.3341(5) 0.6781(3) -0.1047(7)
C7 C 0.3768(4) 0.5504(3) 0.0591(7)
C8 C 0.6255(4) 0.5599(3) 0.0956(6)
C9 C -0.3821(5) 0.5750(3) -0.5849(7)
C10 C -0.3899(5) 0.6827(3) -0.3846(7)
C11 C -0.6680(5) 0.6906(3) -0.4389(7)
C12 C -0.6709(5) 0.5756(3) -0.6552(7)
C13 C -0.8686(5) 0.5601(3) -0.8684(7)
C14 C -0.8574(4) 0.4413(3) -1.0794(6)
C15 C -0.1090(5) 0.4182(3) -0.4334(7)
C16 C -0.1570(5) 0.5476(3) -0.6020(7)
C17 C -0.7871(5) 0.7796(3) -0.2730(8)
C18 C 0.7059(5) 0.8210(3) -0.2109(7)
C19 C -0.2539(5) 0.9277(3) 0.2081(8)
C20 C 0.2265(6) 0.9176(4) 0.2309(8)
C21 C -0.0456(4) 0.7309(3) 0.2157(6)
H1 H -0.0524 0.7624 0.2133
C22 C -0.0336(4) 0.8354(3) -0.1852(7)
H2 H -0.0319 0.8513 -0.1194
C23 C -0.0279(4) 0.8592(3) -0.2791(7)
H3 H -0.0209 0.8907 -0.2775
C24 C -0.0326(4) 0.6640(3) 0.1260(7)
H4 H -0.0301 0.6480 0.0612
C25 C 0.4812(4) 0.6087(2) -0.2683(6)
H5 H 0.4783 0.6405 -0.2694
C26 C -0.5226(4) 0.5430(3) -0.3614(7)
H6 H -0.5286 0.5272 -0.4275
C27 C -0.5117(4) 0.5180(3) -0.2654(7)
H7 H -0.5094 0.4863 -0.2652
C28 C 0.4956(4) 0.5433(2) -0.1694(6)
H8 H 0.5039 0.5281 -0.1026
C29 C 0.4792(4) 0.6469(2) 0.2331(6)
H9 H 0.4849 0.6153 0.2338
C30 C -0.5425(4) 0.7128(2) -0.6749(6)
H10 H -0.5524 0.7277 -0.6114
C31 C -0.5392(4) 0.7376(3) -0.7687(6)
H11 H -0.5462 0.7691 -0.7700
C32 C 0.4749(4) 0.7140(3) 0.1391(7)
H12 H 0.4791 0.7301 0.0750
C33 C -0.9952(4) 0.4809(3) -0.7487(6)
H13 H -1.0029 0.5123 -0.7506
C34 C -0.9815(5) 0.4164(3) -0.8416(7)
H14 H -0.9781 0.4010 -0.9068
C35 C -0.9762(5) 0.3917(3) -0.7461(7)
H15 H -0.9705 0.3601 -0.7459
C36 C -0.0202(4) 0.5841(3) -0.3499(7)
H16 H -0.0247 0.5999 -0.4162
Ag1C Ag 0.16742(5) 0.63692(2) -0.34149(7)
Ag1A Ag 0.83258(5) 0.36308(2) 0.34149(7)
Ag2_2 Ag -0.78206(4) 0.68931(3) -0.11115(6)
Ag2C Ag 0.21794(4) 0.81069(3) -0.61115(6)
Ag3A Ag -0.26028(5) 0.23253(3) -0.13486(7)
Ag3_2 Ag 0.26028(5) 0.73253(3) -0.36514(7)
Ag4B Ag -1.22915(4) 0.43058(3) -1.23872(7)
Ag4_2 Ag 0.22915(4) 0.56942(3) -0.76128(7)
Ag5_2 Ag -0.68084(5) 0.50013(2) 0.12947(7)
Ag5A Ag -0.31916(5) 1.00013(2) 0.37053(7)
Ag6B Ag 0.15849(5) 0.63902(2) -0.62594(7)
Ag6A Ag -0.84151(5) 0.86098(2) -0.12594(7)
Ag7A Ag -0.65992(4) 0.26833(2) -1.36749(6)
Ag7_2 Ag -0.34008(4) 0.76833(2) -0.13251(6)
Ag8C Ag -0.29167(4) 0.80706(3) -0.77623(6)
Ag8_2 Ag 0.70833(4) 0.69294(3) -0.27623(6)
Ag9C Ag -0.21386(5) 0.61957(2) -0.38972(6)
Ag9A Ag 0.21386(5) 0.38043(2) 0.38972(6)
Ag10B Ag 0.27092(4) 0.43730(3) -0.39242(6)
Ag10_2 Ag 0.72908(4) 0.56270(3) -0.60758(6)
Ag11_2 Ag -0.30922(5) 0.50650(2) 0.16044(7)
Ag11A Ag 0.30922(5) 1.00650(2) 0.33956(7)
Ag12B Ag -1.21458(4) 0.60123(2) -0.84519(7)
Ag12A Ag 0.78542(4) 0.89877(2) -0.34519(7)
Fe1C Fe -0.04482(6) 0.75110(4) 0.46726(8)
Fe1C_2 Fe -0.04482(6) 0.75110(4) -0.53274(8)
Fe2_2 Fe -0.50681(6) 0.62997(3) -1.01521(8)
Fe2_3 Fe -0.50681(6) 0.62997(3) -0.01521(8)
Fe3_2 Fe 0.46797(6) 0.62776(4) 0.48095(8)
Fe3_3 Fe 0.46797(6) 0.62776(4) -0.51905(8)
Fe4_2 Fe 0.0000 0.5000 0.0000
Fe5_2 Fe -1.0000 0.5000 -0.5000
N1C N -0.1358(3) 0.7910(2) -0.6140(5)
N2C N -0.1239(4) 0.7011(2) -0.4830(5)
N3C N 0.0461(4) 0.7087(2) -0.4515(5)
N4C N 0.0418(4) 0.7955(2) -0.5835(5)
N5C N -0.0406(3) 0.7908(2) -0.3779(5)
N6C N -0.0414(3) 0.7099(2) 0.3149(5)
N6C_2 N -0.0414(3) 0.7099(2) -0.6851(5)
N7_2 N 0.4750(3) 0.5880(2) -0.3642(5)
N8_2 N -0.5090(3) 0.58885(18) -0.1697(5)
N9_2 N -0.4299(3) 0.68044(19) -0.0592(5)
N10_2 N -0.6022(4) 0.6688(2) -0.0909(5)
N11_2 N -0.5867(3) 0.5793(2) 0.0328(5)
N12_2 N -0.4174(3) 0.5870(2) 0.0612(5)
N13_2 N -0.5173(3) 0.6682(2) -0.8606(5)
N13_3 N -0.5173(3) 0.6682(2) 0.1394(5)
N14_2 N 0.4682(3) 0.66713(19) 0.3270(5)
N14_3 N 0.4682(3) 0.66713(19) -0.6730(5)
N15_2 N 0.5575(4) 0.5859(2) -0.5683(5)
N16_2 N 0.5547(4) 0.6729(2) -0.4383(5)
N17_2 N 0.3796(4) 0.6688(2) -0.4705(5)
N18_2 N 0.3834(4) 0.5840(2) -0.5988(5)
N19B N -1.0764(4) 0.4503(2) -1.0772(5)
N20B N -1.0960(4) 0.5376(2) -0.9535(5)
N21B N -1.0089(3) 0.5391(2) -1.1551(5)
N21B_2 N -0.0089(3) 0.5391(2) -0.1551(5)
N22B N 0.0103(3) 0.46141(19) -0.6500(5)
N22B_2 N -0.9897(3) 0.46141(19) -0.6500(5)
N23B N 0.0745(3) 0.5507(2) -0.5446(5)
N24B N 0.0941(4) 0.4633(2) -0.4177(5)
N25A N -0.8036(5) 0.8062(3) -0.2138(7)
N25B N 0.1964(5) 0.6938(3) -0.7138(7)
N26A N 0.7320(4) 0.8488(3) -0.2619(6)
N26B N -1.2680(4) 0.6512(3) -0.7619(6)
N27A N -0.2753(5) 0.9514(3) 0.2752(7)
N27_2 N -0.7247(5) 0.4514(3) 0.2248(7)
N28A N 0.2553(6) 0.9501(3) 0.2704(8)
N28_2 N -0.2553(6) 0.4501(3) 0.2296(8)
C1C C -0.1913(5) 0.8001(3) -0.6717(7)
C2C C -0.1585(4) 0.6714(3) -0.4594(7)
C3C C 0.0941(4) 0.6859(3) -0.4112(7)
C4_2 C -0.8980(5) 0.6960(3) -0.0976(7)
C4C C 0.1020(5) 0.8040(3) -0.5976(7)
C5_2 C -0.3952(4) 0.7120(2) -0.0789(6)
C6_2 C -0.6659(5) 0.6781(3) -0.1047(7)
C7_2 C -0.6232(4) 0.5504(3) 0.0591(7)
C7A C -0.3768(4) 1.0504(3) 0.4409(7)
C8_2 C -0.3745(4) 0.5599(3) 0.0956(6)
C9B C 0.3821(5) 0.4250(3) -0.4151(7)
C9_2 C 0.6179(5) 0.5750(3) -0.5849(7)
C10_2 C 0.6101(5) 0.6827(3) -0.3846(7)
C11A C -0.3320(5) 0.1906(3) -0.0611(7)
C11_2 C 0.3320(5) 0.6906(3) -0.4389(7)
C12B C -1.3291(5) 0.4244(3) -1.3448(7)
C12_2 C 0.3291(5) 0.5756(3) -0.6552(7)
C13B C -1.1314(5) 0.4399(3) -1.1316(7)
C14B C -1.1426(4) 0.5587(3) -0.9206(6)
C15B C 0.1090(5) 0.5818(3) -0.5666(7)
C15A C -0.8910(5) 0.9182(3) -0.0666(7)
C16B C 0.1570(5) 0.4524(3) -0.3980(7)
C17A C -0.2129(5) 0.2796(3) -0.2270(8)
C18A C -0.7059(5) 0.3210(3) -1.2891(7)
C18_2 C -0.2941(5) 0.8210(3) -0.2109(7)
C19A C 0.2539(5) 0.4277(3) 0.2919(8)
C19C C -0.2539(5) 0.5723(3) -0.2919(8)
C20A C 0.7735(6) 0.4176(4) 0.2691(8)
C21C C -0.0456(4) 0.7691(3) -0.2843(6)
H1C H -0.0524 0.7376 -0.2867
C22C C -0.0336(4) 0.6646(3) 0.3148(7)
H2C H -0.0319 0.6487 0.3806
C23C C -0.0279(4) 0.6408(3) 0.2209(7)
H3C H -0.0209 0.6093 0.2225
C24C C -0.0326(4) 0.8360(3) -0.3740(7)
H4C H -0.0301 0.8520 -0.4388
C25_2 C -0.5188(4) 0.6087(2) -0.2683(6)
H5_2 H -0.5217 0.6405 -0.2694
C26_2 C 0.4774(4) 0.5430(3) -0.3614(7)
H6_2 H 0.4714 0.5272 -0.4275
C27_2 C 0.4883(4) 0.5180(3) -0.2654(7)
H7_2 H 0.4906 0.4863 -0.2652
C28_2 C -0.5044(4) 0.5433(2) -0.1694(6)
H8_2 H -0.4961 0.5281 -0.1026
C29_2 C -0.5208(4) 0.6469(2) -0.7669(6)
H9_2 H -0.5151 0.6153 -0.7662
C30_2 C 0.4575(4) 0.7128(2) 0.3251(6)
H10_2 H 0.4476 0.7277 0.3886
C31_2 C 0.4608(4) 0.7376(3) 0.2313(6)
H11_2 H 0.4538 0.7691 0.2300
C32_2 C -0.5251(4) 0.7140(3) -0.8609(7)
H12_2 H -0.5209 0.7301 -0.9250
C33B C -0.0048(4) 0.5191(3) -0.2513(6)
H13B H 0.0029 0.4877 -0.2494
C34B C -0.0185(5) 0.5836(3) -0.1584(7)
H14B H -0.0219 0.5990 -0.0932
C35B C -0.0238(5) 0.6083(3) -0.2539(7)
H15B H -0.0295 0.6399 -0.2541
C36B C -0.9798(4) 0.4159(3) -0.6501(7)
H16B H -0.9753 0.4001 -0.5838
loop_
_geom_bond_atom_site_label_1
_geom_bond_atom_site_label_2
_geom_bond_site_symmetry_1
_geom_bond_site_symmetry_2
Ag1 C3 1_555 1_555
Ag2 C4 1_555 1_555
Ag3 C11 1_555 1_555
Ag4 C12 1_555 1_555
Ag5 N27 1_555 1_555
Ag6 N25 1_555 1_555
Ag7 C5 1_555 1_555
Ag8 C1 1_555 1_555
Ag9 C2 1_555 1_555
Ag10 C9 1_555 1_555
Ag11 N28 1_555 1_555
Ag12 N26 1_555 1_555
Fe1 N1 1_555 1_555
Fe2 N8 1_555 1_555
Fe3 N7 1_555 1_555
Fe4 N19 1_555 1_555
Fe5 N22 1_555 1_555
N1 C1 1_555 1_555
N2 Fe1 1_555 1_555
N3 Fe1 1_555 1_555
N4 Fe1 1_555 1_555
N5 Fe1 1_555 1_555
N6 Fe1 1_555 1_555
N7 C26 1_555 1_555
N8 C25 1_555 1_555
N9 Fe2 1_555 1_555
N10 Fe2 1_555 1_555
N11 Fe2 1_555 1_555
N12 Fe2 1_555 1_555
N13 Fe2 1_555 1_555
N14 Fe3 1_555 1_555
N15 Fe3 1_555 1_555
N16 Fe3 1_555 1_555
N17 Fe3 1_555 1_555
N18 Fe3 1_555 1_555
N19 C13 1_555 1_555
N20 Fe4 1_555 1_555
N21 Fe4 1_555 1_555
N22 C36 1_555 1_555
N23 Fe5 1_555 1_555
N24 Fe5 1_555 1_555
N25 C17A 1_555 1_555
N26 C18A 1_555 1_555
N27 C19A 1_555 1_555
N28 C20A 1_555 1_555
C2 N2 1_555 1_555
C3 N3 1_555 1_555
C4 N4 1_555 1_555
C5 N9 1_555 1_555
C6 Ag2 1_555 1_555
C7 Ag5 1_555 1_555
C8 Ag11 1_555 1_555
C9 N15 1_555 1_555
C10 Ag8 1_555 1_555
C11 N17 1_555 1_555
C12 N18 1_555 1_555
C13 Ag4 1_555 1_555
C14 Ag12 1_555 1_555
C15 Ag6 1_555 1_555
C16 Ag10 1_555 1_555
C17 Ag3 1_555 1_555
C18 Ag7 1_555 1_555
C19 Ag9 1_555 1_555
C20 Ag1 1_555 1_555
C21 N5 1_555 1_555
H1 C21 1_555 1_555
C22 N6 1_555 1_555
H2 C22 1_555 1_555
C23 C22 1_555 1_555
H3 C23 1_555 1_555
C24 N5 1_555 1_555
H4 C24 1_555 1_555
C25 H5 1_555 1_555
C26 H6 1_555 1_555
C27 C26 1_555 1_555
H7 C27 1_555 1_555
C28 N8 1_555 1_555
H8 C28 1_555 1_555
C29 N13 1_555 1_555
H9 C29 1_555 1_555
C30 N14 1_555 1_555
H10 C30 1_555 1_555
C31 C30 1_555 1_555
H11 C31 1_555 1_555
C32 N13 1_555 1_555
H12 C32 1_555 1_555
C33 N21 1_555 1_555
H13 C33 1_555 1_555
C34 N21 1_555 1_555
H14 C34 1_555 1_555
C35 C34 1_555 1_555
H15 C35 1_555 1_555
C36 H16 1_555 1_555
Ag1C C3C 1_555 1_555
Ag1A C20A 1_555 1_555
Ag2_2 C4_2 1_555 1_555
Ag2C C4C 1_555 1_555
Ag3A C11A 1_555 1_555
Ag3_2 C11_2 1_555 1_555
Ag4B C12B 1_555 1_555
Ag4_2 C12_2 1_555 1_555
Ag5_2 N27_2 1_555 1_555
Ag5A N27A 1_555 1_555
Ag6B N25B 1_555 1_555
Ag6A N25A 1_555 1_555
Ag7A C18A 1_555 1_555
Ag7_2 C5_2 1_555 1_555
Ag8C C1C 1_555 1_555
Ag8_2 C10_2 1_555 1_555
Ag9C C2C 1_555 1_555
Ag9A C19A 1_555 1_555
Ag10B C9B 1_555 1_555
Ag10_2 C9_2 1_555 1_555
Ag11_2 N28_2 1_555 1_555
Ag11A N28A 1_555 1_555
Ag12B N26B 1_555 1_555
Ag12A N26A 1_555 1_555
Fe1C N6C 1_555 1_555
Fe1C_2 N1C 1_555 1_555
Fe2_2 N13_2 1_555 1_555
Fe2_3 N8_2 1_555 1_555
Fe3_2 N14_2 1_555 1_555
Fe3_3 N7_2 1_555 1_555
Fe4_2 N21B_2 1_555 1_555
Fe5_2 N22B_2 1_555 1_555
N1C C1C 1_555 1_555
N2C Fe1C_2 1_555 1_555
N3C Fe1C_2 1_555 1_555
N4C Fe1C_2 1_555 1_555
N5C Fe1C_2 1_555 1_555
N6C C21 1_555 1_555
N6C_2 Fe1C_2 1_555 1_555
N7_2 C25 1_555 1_555
N8_2 C25_2 1_555 1_555
N9_2 Fe2_3 1_555 1_555
N10_2 Fe2_3 1_555 1_555
N11_2 Fe2_3 1_555 1_555
N12_2 Fe2_3 1_555 1_555
N13_2 C29_2 1_555 1_555
N13_3 Fe2_3 1_555 1_555
N14_2 C29 1_555 1_555
N14_3 Fe3_3 1_555 1_555
N15_2 Fe3_3 1_555 1_555
N16_2 Fe3_3 1_555 1_555
N17_2 Fe3_3 1_555 1_555
N18_2 Fe3_3 1_555 1_555
N19B Fe4 1_555 1_555
N20B Fe4 1_555 1_555
N21B Fe4 1_555 1_555
N21B_2 C33B 1_555 1_555
N22B Fe5 1_555 1_555
N22B_2 C33 1_555 1_555
N23B Fe5 1_555 1_555
N24B Fe5 1_555 1_555
N25A C17 1_555 1_555
N26A C18 1_555 1_555
N27A C19 1_555 1_555
N28A C20 1_555 1_555
C2C N2C 1_555 1_555
C3C N3C 1_555 1_555
C4C N4C 1_555 1_555
C5_2 N9_2 1_555 1_555
C6_2 Ag2_2 1_555 1_555
C7_2 Ag5_2 1_555 1_555
C7A Ag5A 1_555 1_555
C8_2 Ag11_2 1_555 1_555
C9_2 N15_2 1_555 1_555
C10_2 N16_2 1_555 1_555
C11_2 N17_2 1_555 1_555
C12_2 N18_2 1_555 1_555
C13B Ag4B 1_555 1_555
C14B Ag12B 1_555 1_555
C15B Ag6B 1_555 1_555
C15A Ag6A 1_555 1_555
C16B Ag10B 1_555 1_555
C17A Ag3A 1_555 1_555
C18_2 Ag7_2 1_555 1_555
C19C Ag9C 1_555 1_555
C21C N6 1_555 1_555
H1C C21C 1_555 1_555
C22C N6C 1_555 1_555
H2C C22C 1_555 1_555
C23C C24 1_555 1_555
H3C C23C 1_555 1_555
C24C C23 1_555 1_555
H4C C24C 1_555 1_555
C25_2 N7 1_555 1_555
H5_2 C25_2 1_555 1_555
C26_2 N7_2 1_555 1_555
H6_2 C26_2 1_555 1_555
C27_2 C28 1_555 1_555
H7_2 C27_2 1_555 1_555
C28_2 C27 1_555 1_555
H8_2 C28_2 1_555 1_555
C29_2 N14 1_555 1_555
H9_2 C29_2 1_555 1_555
C30_2 N14_2 1_555 1_555
H10_2 C30_2 1_555 1_555
C31_2 C32 1_555 1_555
H11_2 C31_2 1_555 1_555
C32_2 C31 1_555 1_555
H12_2 C32_2 1_555 1_555
C33B N22 1_555 1_555
H13B C33B 1_555 1_555
C34B N21B_2 1_555 1_555
H14B C34B 1_555 1_555
C35B C36 1_555 1_555
H15B C35B 1_555 1_555
C36B C35 1_555 1_555
H16B C36B 1_555 1_555
N10 C6 1_555 1_555
N11 C7 1_555 1_555
N12 C8 1_555 1_555
N16 C10 1_555 1_555
N20 C14 1_555 1_555
N23 C15 1_555 1_555
N24 C16 1_555 1_555
N5C C21C 1_555 1_555
N5C C24C 1_555 1_555
N8_2 C28_2 1_555 1_555
N10_2 C6_2 1_555 1_555
N11_2 C7_2 1_555 1_555
N12_2 C8_2 1_555 1_555
N13_2 C32_2 1_555 1_555
N19B C13B 1_555 1_555
N20B C14B 1_555 1_555
N22B_2 C36B 1_555 1_555
N23B C15B 1_555 1_555
N24B C16B 1_555 1_555
C22C C23C 1_555 1_555
C26_2 C27_2 1_555 1_555
C30_2 C31_2 1_555 1_555
C34B C35B 1_555 1_555

#END
