
#######################################################################
#
#                 Cambridge Crystallographic Data Centre
#                                CCDC 
#
#######################################################################
#
# If this CIF has been generated from an entry in the Cambridge 
# Structural Database, then it will include bibliographic, chemical, 
# crystal, experimental, refinement or atomic coordinate data resulting 
# from the CCDC's data processing and validation procedures.
#
#######################################################################

data_WALQAC
_symmetry_cell_setting           monoclinic
_symmetry_space_group_name_H-M   'P 21/c'
_symmetry_Int_Tables_number      14
_space_group_name_Hall           '-P 2ybc'
loop_
_symmetry_equiv_pos_site_id
_symmetry_equiv_pos_as_xyz
1 x,y,z
2 -x,1/2+y,1/2-z
3 -x,-y,-z
4 x,1/2-y,1/2+z
_cell_length_a                   14.4236(9)
_cell_length_b                   6.7609(4)
_cell_length_c                   14.5218(9)
_cell_angle_alpha                90
_cell_angle_beta                 94.2490(10)
_cell_angle_gamma                90
_cell_volume                     1412.22
loop_
_atom_site_label
_atom_site_type_symbol
_atom_site_fract_x
_atom_site_fract_y
_atom_site_fract_z
Nd1 Nd 0.190658(12) 0.23856(2) 0.833437(12)
C1 C 0.0662(2) 0.1918(5) 1.0399(2)
H1 H 0.1240 0.1526 1.0663
C2 C -0.0101(2) 0.1793(5) 1.0932(2)
C3 C -0.0959(3) 0.2483(4) 1.0553(3)
C4 C -0.1014(2) 0.3250(5) 0.9664(2)
H2 H -0.1571 0.3759 0.9401
C5 C -0.0227(2) 0.3245(5) 0.9178(2)
H3 H -0.0275 0.3731 0.8577
C6 C 0.0001(2) 0.0873(5) 1.1873(2)
C7 C -0.1852(3) 0.2488(4) 1.1037(3)
C8 C 0.5748(3) 0.2378(5) 0.6748(3)
H4 H 0.6268 0.2358 0.7167
C9 C 0.4880(3) 0.2212(6) 0.7057(3)
H5 H 0.4810 0.2081 0.7685
C10 C 0.4100(3) 0.2238(5) 0.6431(3)
C11 C 0.4230(3) 0.2370(4) 0.5482(3)
C12 C 0.5124(3) 0.2544(4) 0.5218(3)
H6 H 0.5223 0.2645 0.4595
C13 C 0.3163(3) 0.2233(5) 0.6835(3)
C14 C 0.3441(3) 0.2363(4) 0.4745(3)
N1 N 0.0604(3) 0.2576(3) 0.9525(2)
N2 N 0.5852(3) 0.2569(4) 0.5845(3)
O1 O 0.07772(16) 0.0969(4) 1.23202(16)
O2 O -0.07006(16) 0.0021(4) 1.21516(15)
O3 O -0.23155(16) 0.0899(4) 1.10338(17)
O4 O -0.21278(17) 0.4099(4) 1.13234(17)
O5 O 0.28135(18) 0.0616(4) 0.70574(18)
O6 O 0.28353(18) 0.3870(4) 0.70315(18)
O7 O 0.2632(2) 0.2196(4) 0.49905(19)
O8 O 0.3634(2) 0.2545(3) 0.3922(2)
Nd1C Nd 0.190658(12) 0.26144(2) 1.333437(12)
Nd1B Nd -0.190658(12) -0.23856(2) 1.166563(12)
Nd1B_2 Nd -0.190658(12) 0.76144(2) 1.166563(12)
Nd1C_2 Nd 0.190658(12) 0.26144(2) 0.333437(12)
O1C O 0.07772(16) 0.4031(4) 0.73202(16)
O2B O 0.07006(16) -0.0021(4) 0.78484(15)
O3B O 0.23155(16) -0.0899(4) 0.89662(17)
O4B O 0.21278(17) 0.5901(4) 0.86766(17)
O7C O 0.2632(2) 0.2804(4) 0.99905(19)
O8C O 0.3634(2) 0.2455(3) 0.8922(2)
O9 O 0.3330(3) -0.2699(4) 0.6022(3)
H7 H 0.3228 -0.3937 0.6029
H8 H 0.3849 -0.2246 0.6244
loop_
_geom_bond_atom_site_label_1
_geom_bond_atom_site_label_2
_geom_bond_site_symmetry_1
_geom_bond_site_symmetry_2
Nd1 N1 1_555 1_555
C1 H1 1_555 1_555
C2 C1 1_555 1_555
C3 C2 1_555 1_555
C4 C3 1_555 1_555
H2 C4 1_555 1_555
C5 C4 1_555 1_555
H3 C5 1_555 1_555
C6 C2 1_555 1_555
C7 C3 1_555 1_555
C8 H4 1_555 1_555
C9 C8 1_555 1_555
H5 C9 1_555 1_555
C10 C9 1_555 1_555
C11 C10 1_555 1_555
C12 C11 1_555 1_555
H6 C12 1_555 1_555
C13 C10 1_555 1_555
C14 C11 1_555 1_555
N1 C1 1_555 1_555
N2 C8 1_555 1_555
O1 C6 1_555 1_555
O2 C6 1_555 1_555
O3 C7 1_555 1_555
O4 C7 1_555 1_555
O5 Nd1 1_555 1_555
O6 Nd1 1_555 1_555
O7 C14 1_555 1_555
O8 C14 1_555 1_555
O9 H7 1_555 1_555
H8 O9 1_555 1_555
Nd1C O1 1_555 1_555
Nd1B O2 1_555 1_555
Nd1B_2 O4 1_555 1_555
Nd1C_2 O7 1_555 1_555
O1C Nd1 1_555 1_555
O2B Nd1 1_555 1_555
O3B Nd1 1_555 1_555
O4B Nd1 1_555 1_555
O7C Nd1 1_555 1_555
O8C Nd1 1_555 1_555
C5 N1 1_555 1_555
C12 N2 1_555 1_555
C13 O5 1_555 1_555
C13 O6 1_555 1_555
O3 Nd1B 1_555 1_555
O8 Nd1C_2 1_555 1_555

#END
