
#######################################################################
#
#                 Cambridge Crystallographic Data Centre
#                                CCDC 
#
#######################################################################
#
# If this CIF has been generated from an entry in the Cambridge 
# Structural Database, then it will include bibliographic, chemical, 
# crystal, experimental, refinement or atomic coordinate data resulting 
# from the CCDC's data processing and validation procedures.
#
#######################################################################

data_WALQEG
_symmetry_cell_setting           monoclinic
_symmetry_space_group_name_H-M   'P 21/n'
_symmetry_Int_Tables_number      14
_space_group_name_Hall           '-P 2yn'
loop_
_symmetry_equiv_pos_site_id
_symmetry_equiv_pos_as_xyz
1 x,y,z
2 1/2-x,1/2+y,1/2-z
3 -x,-y,-z
4 1/2+x,1/2-y,1/2+z
_cell_length_a                   5.997(2)
_cell_length_b                   25.104(9)
_cell_length_c                   11.272(4)
_cell_angle_alpha                90
_cell_angle_beta                 100.786(7)
_cell_angle_gamma                90
_cell_volume                     1667
loop_
_atom_site_label
_atom_site_type_symbol
_atom_site_fract_x
_atom_site_fract_y
_atom_site_fract_z
Eu1 Eu 0.54683(4) 0.066734(10) 0.89025(2)
C1 C 0.2306(10) -0.0844(3) 0.6578(5)
H1 H 0.3709 -0.0991 0.6906
C2 C 0.1099(9) -0.0554(2) 0.7291(5)
C3 C -0.1011(9) -0.0337(2) 0.6768(4)
C4 C -0.1823(10) -0.0444(3) 0.5551(5)
H2 H -0.3244 -0.0312 0.5202
C5 C -0.0683(9) -0.0722(2) 0.4861(5)
H3 H -0.1294 -0.0784 0.4053
C6 C 0.2074(8) -0.0516(2) 0.8627(5)
C7 C -0.2348(9) -0.0008(2) 0.7478(5)
C8 C 0.9250(17) 0.2720(4) 0.6366(10)
H4 H 1.0379 0.2750 0.5906
C9 C 0.9074(15) 0.2251(3) 0.6959(9)
H5 H 1.0096 0.1977 0.6912
C10 C 0.7401(12) 0.2183(3) 0.7622(7)
C11 C 0.5979(18) 0.2606(3) 0.7660(10)
H6 H 0.4819 0.2585 0.8102
C12 C 0.628(2) 0.3060(4) 0.7040(13)
H7 H 0.5273 0.3339 0.7062
C13 C 0.6991(10) 0.1669(2) 0.8225(5)
N1 N 0.1367(11) -0.0910(3) 0.5356(6)
N2 N 0.7914(16) 0.3131(3) 0.6411(9)
O1 O 0.3425(6) -0.01438(14) 0.9023(3)
O2 O 0.1676(7) -0.08897(16) 0.9277(3)
O3 O -0.1616(6) 0.00398(16) 0.8599(3)
O4 O -0.4117(7) 0.02273(17) 0.6951(3)
O5 O 0.7972(7) 0.12510(17) 0.7959(4)
O6 O 0.5628(7) 0.16596(18) 0.8935(4)
O7 O 0.2163(7) 0.09169(18) 0.7508(3)
H8 H 0.0894 0.1042 0.7786
H9 H 0.2135 0.0890 0.6682
O8 O 0.2925(7) 0.09431(16) 1.0166(3)
H10 H 0.1478 0.1062 0.9825
H11 H 0.3376 0.0932 1.1001
Eu1B Eu 0.45317(4) -0.066734(10) 1.10975(2)
Eu1_2 Eu -0.45317(4) 0.066734(10) 0.89025(2)
O1B O 0.6575(6) 0.01438(14) 1.0977(3)
O2B O 0.8324(7) 0.08897(16) 1.0723(3)
O3_2 O 0.8384(6) 0.00398(16) 0.8599(3)
O4_2 O 0.5883(7) 0.02273(17) 0.6951(3)
loop_
_geom_bond_atom_site_label_1
_geom_bond_atom_site_label_2
_geom_bond_site_symmetry_1
_geom_bond_site_symmetry_2
Eu1 O1 1_555 1_555
C1 H1 1_555 1_555
C2 C1 1_555 1_555
C3 C2 1_555 1_555
C4 C3 1_555 1_555
H2 C4 1_555 1_555
C5 C4 1_555 1_555
H3 C5 1_555 1_555
C6 C2 1_555 1_555
C7 C3 1_555 1_555
C8 H4 1_555 1_555
C9 C8 1_555 1_555
H5 C9 1_555 1_555
C10 C9 1_555 1_555
C11 C10 1_555 1_555
H6 C11 1_555 1_555
C12 C11 1_555 1_555
H7 C12 1_555 1_555
C13 C10 1_555 1_555
N1 C1 1_555 1_555
N2 C8 1_555 1_555
O1 C6 1_555 1_555
O2 C6 1_555 1_555
O3 C7 1_555 1_555
O4 C7 1_555 1_555
O5 Eu1 1_555 1_555
O6 Eu1 1_555 1_555
O7 Eu1 1_555 1_555
H8 O7 1_555 1_555
H9 O7 1_555 1_555
O8 Eu1 1_555 1_555
H10 O8 1_555 1_555
H11 O8 1_555 1_555
Eu1B O1 1_555 1_555
Eu1_2 O3 1_555 1_555
O1B Eu1 1_555 1_555
O2B Eu1 1_555 1_555
O3_2 Eu1 1_555 1_555
O4_2 Eu1 1_555 1_555
C5 N1 1_555 1_555
C12 N2 1_555 1_555
C13 O5 1_555 1_555
C13 O6 1_555 1_555
O2 Eu1B 1_555 1_555
O4 Eu1_2 1_555 1_555
Eu1B O1B 1_555 1_555

#END
