
#######################################################################
#
#                 Cambridge Crystallographic Data Centre
#                                CCDC 
#
#######################################################################
#
# If this CIF has been generated from an entry in the Cambridge 
# Structural Database, then it will include bibliographic, chemical, 
# crystal, experimental, refinement or atomic coordinate data resulting 
# from the CCDC's data processing and validation procedures.
#
#######################################################################

data_WAMTIN
_symmetry_cell_setting           tetragonal
_symmetry_space_group_name_H-M   'P 43'
_symmetry_Int_Tables_number      78
_space_group_name_Hall           'P 4cw'
loop_
_symmetry_equiv_pos_site_id
_symmetry_equiv_pos_as_xyz
1 x,y,z
2 -y,x,3/4+z
3 -x,-y,1/2+z
4 y,-x,1/4+z
_cell_length_a                   9.264(3)
_cell_length_b                   9.264(3)
_cell_length_c                   35.503(12)
_cell_angle_alpha                90
_cell_angle_beta                 90
_cell_angle_gamma                90
_cell_volume                     3046.93
loop_
_atom_site_label
_atom_site_type_symbol
_atom_site_fract_x
_atom_site_fract_y
_atom_site_fract_z
Cu1 Cu -1.0454(1) 0.6148(1) -0.0193
S1 S -0.6087(4) 0.1234(3) -0.0644(1)
O1 O -0.2819(5) 0.6114(5) -0.0236(1)
O2 O -0.3499(5) 0.7174(6) -0.0769(2)
O3 O -0.7971(5) 0.6158(6) -0.0236(2)
O4 O -1.0923(5) 0.7974(5) -0.0909(2)
N1 N -0.6260(5) 0.6318(6) -0.0684(2)
N2 N -0.9934(5) 0.7232(5) -0.0691(2)
C1 C -0.4816(17) 0.0599(13) -0.0318(5)
C2 C -0.6278(9) 0.3090(9) -0.0501(3)
C3 C -0.4957(8) 0.3996(8) -0.0572(3)
C4 C -0.5152(7) 0.5583(8) -0.0457(2)
C5 C -0.3708(6) 0.6384(7) -0.0493(2)
C6 C -0.7598(6) 0.6564(7) -0.0556(2)
C7 C -0.8616(7) 0.7336(7) -0.0808(2)
C8 C -0.8153(8) 0.8150(9) -0.1144(2)
N3 N -1.0472(6) 0.8108(6) 0.0084(2)
C9 C -0.9243(11) 0.8707(10) 0.0217(3)
C10 C -0.9214(14) 0.9970(12) 0.0416(4)
C11 C -1.0522(14) 1.0657(11) 0.0500(3)
C12 C -1.1762(15) 1.0069(12) 0.0364(4)
C13 C -1.1721(10) 0.8792(10) 0.0166(3)
N4 N -1.0449(6) 0.5164(6) 0.0324(2)
C14 C -0.9235(8) 0.4995(9) 0.0527(2)
C15 C -0.9170(10) 0.4538(11) 0.0883(3)
C16 C -1.0456(9) 0.4162(9) 0.1061(2)
C17 C -1.1723(9) 0.4270(9) 0.0856(2)
C18 C -1.1687(8) 0.4759(8) 0.0492(2)
N5 N -1.0470(6) 0.4217(5) -0.0488(2)
C19 C -0.9961(9) 0.2967(8) -0.0344(2)
C20 C -1.0093(14) 0.1697(10) -0.0536(3)
C21 C -1.0696(11) 0.1624(9) -0.0876(3)
C22 C -1.1219(10) 0.2859(10) -0.1021(3)
C23 C -1.1085(8) 0.4134(8) -0.0825(2)
H1 H -1.1716 0.7675 -0.0858
H2 H -0.5984 0.6671 -0.0965
H3 H -0.4596 -0.0526 -0.0372
H4 H -0.5239 0.0720 -0.0036
H5 H -0.3831 0.1214 -0.0344
H6 H -0.6511 0.3114 -0.0203
H7 H -0.7171 0.3556 -0.0655
H8 H -0.4068 0.3548 -0.0414
H9 H -0.4709 0.3957 -0.0869
H10 H -0.5513 0.5596 -0.0167
H11 H -0.6998 0.8056 -0.1177
H12 H -0.8440 0.9273 -0.1111
H13 H -0.8682 0.7718 -0.1390
H14 H -0.8233 0.8162 0.0163
H15 H -0.8201 1.0429 0.0508
H16 H -1.0545 1.1629 0.0668
H17 H -1.2782 1.0605 0.0411
H18 H -1.2724 0.8320 0.0072
H19 H -0.8227 0.5250 0.0389
H20 H -0.8150 0.4463 0.1029
H21 H -1.0465 0.3797 0.1350
H22 H -1.2739 0.3969 0.0983
H23 H -1.2683 0.4821 0.0335
H24 H -0.9440 0.2972 -0.0071
H25 H -0.9695 0.0717 -0.0408
H26 H -1.0762 0.0617 -0.1029
H27 H -1.1745 0.2851 -0.1293
H28 H -1.1500 0.5111 -0.0950
Cu1_2 Cu -0.0454(1) 0.6148(1) -0.0193
O1_2 O -1.2819(5) 0.6114(5) -0.0236(1)
N6 N -0.2977(23) 0.4515(25) -0.1889(4)
O5 O -0.1903(23) 0.3710(25) -0.1962(4)
O6 O -0.3514(23) 0.5309(25) -0.2136(4)
O7 O -0.3466(23) 0.4491(25) -0.1566(4)
O8 O -0.6231(10) 0.5365(11) -0.1494(3)
C24 C -0.7271(10) 0.4381(11) -0.1505(3)
C25 C -0.7977(10) 0.4572(11) -0.1892(3)
N7? N -0.2966(14) 0.4310(15) -0.1911(4)
O9? O -0.2202(14) 0.3238(15) -0.2007(4)
O10? O -0.4209(14) 0.4468(15) -0.2042(4)
O11? O -0.2450(14) 0.5238(15) -0.1680(4)
loop_
_geom_bond_atom_site_label_1
_geom_bond_atom_site_label_2
_geom_bond_site_symmetry_1
_geom_bond_site_symmetry_2
Cu1 O3 1_555 1_555
S1 C1 1_555 1_555
O1 C5 1_555 1_555
O2 C5 1_555 1_555
O3 C6 1_555 1_555
O4 N2 1_555 1_555
N1 C4 1_555 1_555
N2 Cu1 1_555 1_555
C1 H3 1_555 1_555
C2 S1 1_555 1_555
C3 C2 1_555 1_555
C4 C3 1_555 1_555
C5 C4 1_555 1_555
C6 N1 1_555 1_555
C7 N2 1_555 1_555
C8 C7 1_555 1_555
N3 Cu1 1_555 1_555
C9 N3 1_555 1_555
C10 C9 1_555 1_555
C11 C10 1_555 1_555
C12 C11 1_555 1_555
C13 N3 1_555 1_555
N4 Cu1 1_555 1_555
C14 N4 1_555 1_555
C15 C14 1_555 1_555
C16 C15 1_555 1_555
C17 C16 1_555 1_555
C18 N4 1_555 1_555
N5 Cu1 1_555 1_555
C19 N5 1_555 1_555
C20 C19 1_555 1_555
C21 C20 1_555 1_555
C22 C21 1_555 1_555
C23 N5 1_555 1_555
H1 O4 1_555 1_555
H2 N1 1_555 1_555
H4 C1 1_555 1_555
H5 C1 1_555 1_555
H6 C2 1_555 1_555
H7 C2 1_555 1_555
H8 C3 1_555 1_555
H9 C3 1_555 1_555
H10 C4 1_555 1_555
H11 C8 1_555 1_555
H12 C8 1_555 1_555
H13 C8 1_555 1_555
H14 C9 1_555 1_555
H15 C10 1_555 1_555
H16 C11 1_555 1_555
H17 C12 1_555 1_555
H18 C13 1_555 1_555
H19 C14 1_555 1_555
H20 C15 1_555 1_555
H21 C16 1_555 1_555
H22 C17 1_555 1_555
H23 C18 1_555 1_555
H24 C19 1_555 1_555
H25 C20 1_555 1_555
H26 C21 1_555 1_555
H27 C22 1_555 1_555
H28 C23 1_555 1_555
N6 O5 1_555 1_555
O6 N6 1_555 1_555
O7 N6 1_555 1_555
O8 C24 1_555 1_555
C24 C25 1_555 1_555
Cu1_2 O1 1_555 1_555
O1_2 Cu1 1_555 1_555
C6 C7 1_555 1_555
C12 C13 1_555 1_555
C17 C18 1_555 1_555
C22 C23 1_555 1_555

#END
