
#######################################################################
#
#                 Cambridge Crystallographic Data Centre
#                                CCDC 
#
#######################################################################
#
# If this CIF has been generated from an entry in the Cambridge 
# Structural Database, then it will include bibliographic, chemical, 
# crystal, experimental, refinement or atomic coordinate data resulting 
# from the CCDC's data processing and validation procedures.
#
#######################################################################

data_WAMWEO
_symmetry_cell_setting           triclinic
_symmetry_space_group_name_H-M   'P -1'
_symmetry_Int_Tables_number      2
_space_group_name_Hall           '-P 1'
loop_
_symmetry_equiv_pos_site_id
_symmetry_equiv_pos_as_xyz
1 x,y,z
2 -x,-y,-z
_cell_length_a                   8.1924(19)
_cell_length_b                   10.620(3)
_cell_length_c                   11.231(3)
_cell_angle_alpha                111.691(4)
_cell_angle_beta                 100.021(4)
_cell_angle_gamma                102.290(4)
_cell_volume                     852.085
loop_
_atom_site_label
_atom_site_type_symbol
_atom_site_fract_x
_atom_site_fract_y
_atom_site_fract_z
Ag1 Ag 0.43810(3) 0.15602(3) 0.35642(2)
Ag2 Ag 1.11257(3) 0.14623(3) 0.17282(3)
C1 C 0.8351(4) 0.1452(3) 0.3302(3)
C2 C 1.0744(4) 0.3380(3) 0.4501(3)
C3 C 0.8577(5) 0.2937(3) 0.5410(3)
C4 C 0.6365(5) 0.2327(4) 0.6484(3)
H1 H 0.6427 0.2473 0.7416
H2 H 0.6319 0.1328 0.5976
C5 C 0.4726(5) 0.2545(4) 0.5908(3)
H3 H 0.4760 0.3445 0.5910
C6 C 0.3205(5) 0.1509(4) 0.5388(3)
H4 H 0.3150 0.0603 0.5379
H5 H 0.2180 0.1680 0.5028
C7 C 0.9073(5) 0.4334(4) 0.7765(4)
H6 H 0.8348 0.4779 0.8307
H7 H 0.9861 0.5084 0.7629
C8 C 1.0135(5) 0.3738(5) 0.8509(4)
H8 H 1.0840 0.4383 0.9383
C9 C 1.0211(6) 0.2432(5) 0.8101(5)
H9 H 0.9535 0.1739 0.7237
H10 H 1.0941 0.2178 0.8670
C10 C 0.2849(5) -0.0940(4) 0.0600(3)
C11 C 0.3146(5) -0.2122(4) -0.0515(4)
H11 H 0.3908 -0.1684 -0.0940
H12 H 0.2012 -0.2682 -0.1194
C12 C 0.3936(5) -0.3146(4) -0.0163(3)
H13 H 0.3168 -0.3634 0.0227
H14 H 0.5076 -0.2612 0.0515
C13 C 0.4182(5) -0.4246(4) -0.1390(4)
H15 H 0.4598 -0.4956 -0.1155
H16 H 0.3055 -0.4748 -0.2086
C14 C 0.5490(5) -0.3532(4) -0.1925(4)
N1 N 0.9929(4) 0.2193(3) 0.3352(3)
N2 N 1.0148(4) 0.3752(3) 0.5563(3)
N3 N 0.7565(4) 0.1806(3) 0.4270(3)
N4 N 0.7508(4) 0.0251(3) 0.2212(3)
H17 H 0.6480 -0.0269 0.2156
H18 H 0.7979 -0.0023 0.1550
N5 N 1.2282(4) 0.4189(3) 0.4597(3)
H19 H 1.2864 0.4941 0.5346
H20 H 1.2719 0.3974 0.3911
N6 N 0.7954(4) 0.3260(3) 0.6480(3)
O1 O 0.3831(3) -0.0494(2) 0.1752(2)
O2 O 0.1680(3) -0.0433(3) 0.0288(2)
O3 O 0.6986(4) -0.2923(4) -0.1168(3)
O4 O 0.4989(4) -0.3553(3) -0.3048(2)
Ag1_2 Ag 1.43810(3) 0.15602(3) 0.35642(2)
Ag1A Ag 0.56190(3) -0.15602(3) -0.35642(2)
Ag2_2 Ag 0.11257(3) 0.14623(3) 0.17282(3)
Ag2A Ag -0.11257(3) -0.14623(3) -0.17282(3)
Ag2A_2 Ag 0.88743(3) -0.14623(3) -0.17282(3)
O2_2 O 1.1680(3) -0.0433(3) 0.0288(2)
O2A O 0.8320(3) 0.0433(3) -0.0288(2)
O3A O 1.3014(4) 0.2923(4) 0.1168(3)
O4A O 0.5011(4) 0.3553(3) 0.3048(2)
loop_
_geom_bond_atom_site_label_1
_geom_bond_atom_site_label_2
_geom_bond_site_symmetry_1
_geom_bond_site_symmetry_2
Ag1 C5 1_555 1_555
Ag2 N1 1_555 1_555
C1 N1 1_555 1_555
C2 N1 1_555 1_555
C3 N2 1_555 1_555
C4 H1 1_555 1_555
H2 C4 1_555 1_555
C5 C4 1_555 1_555
H3 C5 1_555 1_555
C6 Ag1 1_555 1_555
H4 C6 1_555 1_555
H5 C6 1_555 1_555
C7 H6 1_555 1_555
H7 C7 1_555 1_555
C8 C7 1_555 1_555
H8 C8 1_555 1_555
C9 C8 1_555 1_555
H9 C9 1_555 1_555
H10 C9 1_555 1_555
C10 C11 1_555 1_555
C11 H11 1_555 1_555
H12 C11 1_555 1_555
C12 C11 1_555 1_555
H13 C12 1_555 1_555
H14 C12 1_555 1_555
C13 C12 1_555 1_555
H15 C13 1_555 1_555
H16 C13 1_555 1_555
C14 C13 1_555 1_555
N2 C2 1_555 1_555
N3 Ag1 1_555 1_555
N4 C1 1_555 1_555
H17 N4 1_555 1_555
H18 N4 1_555 1_555
N5 C2 1_555 1_555
H19 N5 1_555 1_555
H20 N5 1_555 1_555
N6 C3 1_555 1_555
O1 Ag1 1_555 1_555
O2 C10 1_555 1_555
O3 C14 1_555 1_555
O4 C14 1_555 1_555
Ag1_2 Ag2 1_555 1_555
Ag1A O4 1_555 1_555
Ag2_2 Ag1 1_555 1_555
Ag2A O2 1_555 1_555
Ag2A_2 O3 1_555 1_555
O2_2 Ag2 1_555 1_555
O2A Ag2 1_555 1_555
O3A Ag2 1_555 1_555
O4A Ag1 1_555 1_555
C1 N3 1_555 1_555
C3 N3 1_555 1_555
C4 N6 1_555 1_555
C5 C6 1_555 1_555
C7 N6 1_555 1_555
C10 O1 1_555 1_555
O2 Ag2_2 1_555 1_555
Ag1A Ag2A_2 1_555 1_555
Ag2A_2 O2_2 1_555 1_555
Ag2A_2 O2A 1_555 1_555

#END
