
#######################################################################
#
#                 Cambridge Crystallographic Data Centre
#                                CCDC 
#
#######################################################################
#
# If this CIF has been generated from an entry in the Cambridge 
# Structural Database, then it will include bibliographic, chemical, 
# crystal, experimental, refinement or atomic coordinate data resulting 
# from the CCDC's data processing and validation procedures.
#
#######################################################################

data_WAMWIS
_symmetry_cell_setting           triclinic
_symmetry_space_group_name_H-M   'P -1'
_symmetry_Int_Tables_number      2
_space_group_name_Hall           '-P 1'
loop_
_symmetry_equiv_pos_site_id
_symmetry_equiv_pos_as_xyz
1 x,y,z
2 -x,-y,-z
_cell_length_a                   9.5359(18)
_cell_length_b                   12.136(2)
_cell_length_c                   16.687(3)
_cell_angle_alpha                76.803(3)
_cell_angle_beta                 89.310(4)
_cell_angle_gamma                67.722(3)
_cell_volume                     1733.85
loop_
_atom_site_label
_atom_site_type_symbol
_atom_site_fract_x
_atom_site_fract_y
_atom_site_fract_z
Ag1 Ag 0.18179(3) 0.40074(3) 0.560538(19)
Ag2 Ag 0.16196(4) 0.40832(3) 0.77475(2)
Ag3 Ag 0.34503(4) 0.10404(3) 0.717831(19)
Ag4 Ag 0.32460(4) 0.10735(3) 0.950074(19)
O1 O 0.4319(3) 0.3145(3) 0.61434(17)
O2 O 0.3607(3) 0.4307(3) 0.70410(19)
O3 O 0.4097(3) 0.1878(3) 0.81223(17)
O4 O 0.5503(4) 0.1584(4) 0.92301(19)
O5 O 1.1090(3) 0.2873(3) 0.70453(18)
O6 O 0.9719(4) 0.3280(3) 0.58924(18)
O7 O 1.1640(3) 0.0417(3) 0.80651(18)
O8 O 1.0843(3) 0.1536(3) 0.89860(17)
N1 N 0.0753(4) 0.4092(3) 0.2976(2)
N2 N 0.2034(4) 0.3731(3) 0.4281(2)
N3 N 0.3332(4) 0.3879(3) 0.3057(2)
N4 N -0.0463(4) 0.3948(3) 0.4168(2)
H1 H -0.1061 0.3772 0.3846
H2 H -0.0225 0.3385 0.4654
N5 N 0.4531(4) 0.3500(4) 0.4320(2)
H3 H 0.5363 0.3466 0.4075
H4 H 0.4536 0.3389 0.4860
N6 N 0.2086(4) 0.4150(3) 0.1828(2)
N7 N 0.5716(4) -0.0970(3) 0.7892(2)
N8 N 0.7001(4) -0.1358(3) 0.9197(2)
N9 N 0.8325(4) -0.1267(3) 0.7985(2)
N10 N 0.4482(4) -0.1062(3) 0.9076(2)
H5 H 0.4691 -0.1686 0.9528
H6 H 0.3823 -0.1126 0.8725
N11 N 0.9500(4) -0.1610(3) 0.9244(2)
H7 H 1.0340 -0.1657 0.9003
H8 H 0.9493 -0.1702 0.9783
N12 N 0.7031(4) -0.0986(3) 0.6746(2)
C1 C 0.0837(4) 0.3907(4) 0.3794(2)
C2 C 0.3273(5) 0.3716(4) 0.3876(3)
C3 C 0.2064(5) 0.4037(4) 0.2647(2)
C4 C 0.3435(5) 0.4192(4) 0.1420(3)
H9 H 0.4335 0.3667 0.1790
H10 H 0.3499 0.3877 0.0931
C5 C 0.3403(7) 0.5439(5) 0.1184(3)
H11 H 0.3396 0.5815 0.1612
C6 C 0.3382(7) 0.6080(5) 0.0437(4)
H12 H 0.3387 0.5747 -0.0013
H13 H 0.3362 0.6871 0.0356
C7 C 0.0798(5) 0.4234(4) 0.1336(3)
H14 H 0.1162 0.3942 0.0848
H15 H 0.0363 0.3683 0.1652
C8 C -0.0442(5) 0.5483(4) 0.1064(2)
H16 H -0.0192 0.6186 0.0973
C9 C -0.1889(6) 0.5632(5) 0.0949(3)
H17 H -0.2152 0.4935 0.1038
H18 H -0.2658 0.6433 0.0777
C10 C 0.5781(5) -0.1141(4) 0.8710(2)
C11 C 0.8241(5) -0.1400(4) 0.8795(2)
C12 C 0.7030(5) -0.1077(4) 0.7566(2)
C13 C 0.8344(5) -0.0922(4) 0.6309(3)
H19 H 0.8301 -0.1123 0.5782
H20 H 0.9267 -0.1527 0.6629
C14 C 0.8404(6) 0.0308(4) 0.6166(3)
H21 H 0.8438 0.0604 0.6629
C15 C 0.8413(7) 0.1012(5) 0.5453(3)
H22 H 0.8380 0.0754 0.4972
H23 H 0.8452 0.1775 0.5423
C16 C 0.5692(5) -0.0874(4) 0.6280(2)
H24 H 0.5223 -0.1380 0.6619
H25 H 0.6010 -0.1200 0.5799
C17 C 0.4526(5) 0.0392(4) 0.5998(2)
H26 H 0.4846 0.1059 0.5855
C18 C 0.3031(5) 0.0625(5) 0.5939(3)
H27 H 0.2694 -0.0033 0.6079
H28 H 0.2312 0.1445 0.5757
C19 C 0.7283(4) 0.3095(4) 0.6758(2)
H29 H 0.7070 0.3584 0.6221
C20 C 0.6125(4) 0.2871(3) 0.7178(2)
C21 C 0.6455(4) 0.2120(4) 0.7970(2)
C22 C 0.7938(4) 0.1621(4) 0.8332(2)
H30 H 0.8152 0.1130 0.8867
C23 C 0.9097(4) 0.1842(4) 0.7911(2)
C24 C 0.8760(4) 0.2605(4) 0.7122(2)
C25 C 0.4539(5) 0.3488(4) 0.6754(2)
C26 C 0.5277(5) 0.1855(4) 0.8473(3)
C27 C 0.9929(5) 0.2937(4) 0.6645(3)
C28 C 1.0664(4) 0.1222(4) 0.8350(2)
Ag1_2 Ag 1.18179(3) 0.40074(3) 0.560538(19)
Ag1A Ag -0.18179(3) 0.59926(3) 0.439462(19)
Ag2_2 Ag 1.16196(4) 0.40832(3) 0.77475(2)
Ag2A Ag -0.16196(4) 0.59168(3) 0.22525(2)
Ag3_2 Ag 1.34503(4) 0.10404(3) 0.717831(19)
Ag4_2 Ag 1.32460(4) 0.10735(3) 0.950074(19)
Ag4A Ag 0.67540(4) -0.10735(3) 1.049926(19)
O5_2 O 0.1090(3) 0.2873(3) 0.70453(18)
O6_2 O -0.0281(4) 0.3280(3) 0.58924(18)
O7_2 O 0.1640(3) 0.0417(3) 0.80651(18)
O8_2 O 0.0843(3) 0.1536(3) 0.89860(17)
N1A N -0.0753(4) 0.5908(3) 0.7024(2)
N4A N 0.0463(4) 0.6052(3) 0.5832(2)
H1A H 0.1061 0.6228 0.6154
H2A H 0.0225 0.6615 0.5346
N8A N 0.2999(4) 0.1358(3) 1.0803(2)
C8A C 0.0442(5) 0.4517(4) 0.8936(2)
H16A H 0.0192 0.3814 0.9027
C9A C 0.1889(6) 0.4368(5) 0.9051(3)
H17A H 0.2152 0.5065 0.8962
H18A H 0.2658 0.3567 0.9223
O9 O 0.7322(3) 0.3189(3) 0.33825(18)
H31 H 0.7677 0.2818 0.3005
H32 H 0.6796 0.3954 0.3186
O10 O 0.8547(4) 0.1652(3) 0.2283(2)
H33 H 0.9459 0.1576 0.2298
H34 H 0.8433 0.1033 0.2001
loop_
_geom_bond_atom_site_label_1
_geom_bond_atom_site_label_2
_geom_bond_site_symmetry_1
_geom_bond_site_symmetry_2
Ag1 O1 1_555 1_555
Ag2 O2 1_555 1_555
Ag3 O3 1_555 1_555
Ag4 O3 1_555 1_555
O1 C25 1_555 1_555
O2 C25 1_555 1_555
O3 C26 1_555 1_555
O4 Ag4 1_555 1_555
O5 C27 1_555 1_555
O6 C27 1_555 1_555
O7 C28 1_555 1_555
O8 C28 1_555 1_555
N1 C1 1_555 1_555
N2 Ag1 1_555 1_555
N3 C2 1_555 1_555
N4 H1 1_555 1_555
H2 N4 1_555 1_555
N5 H3 1_555 1_555
H4 N5 1_555 1_555
N6 C3 1_555 1_555
N7 Ag3 1_555 1_555
N8 C10 1_555 1_555
N9 C11 1_555 1_555
N10 H5 1_555 1_555
H6 N10 1_555 1_555
N11 H7 1_555 1_555
H8 N11 1_555 1_555
N12 C12 1_555 1_555
C1 N2 1_555 1_555
C2 N2 1_555 1_555
C3 N1 1_555 1_555
C4 N6 1_555 1_555
H9 C4 1_555 1_555
H10 C4 1_555 1_555
C5 C4 1_555 1_555
H11 C5 1_555 1_555
C6 C5 1_555 1_555
H12 C6 1_555 1_555
H13 C6 1_555 1_555
C7 N6 1_555 1_555
H14 C7 1_555 1_555
H15 C7 1_555 1_555
C8 C7 1_555 1_555
H16 C8 1_555 1_555
C9 C8 1_555 1_555
H17 C9 1_555 1_555
H18 C9 1_555 1_555
C10 N7 1_555 1_555
C11 N8 1_555 1_555
C12 N7 1_555 1_555
C13 N12 1_555 1_555
H19 C13 1_555 1_555
H20 C13 1_555 1_555
C14 C13 1_555 1_555
H21 C14 1_555 1_555
C15 C14 1_555 1_555
H22 C15 1_555 1_555
H23 C15 1_555 1_555
C16 N12 1_555 1_555
H24 C16 1_555 1_555
H25 C16 1_555 1_555
C17 Ag3 1_555 1_555
H26 C17 1_555 1_555
C18 Ag3 1_555 1_555
H27 C18 1_555 1_555
H28 C18 1_555 1_555
C19 H29 1_555 1_555
C20 C19 1_555 1_555
C21 C20 1_555 1_555
C22 C21 1_555 1_555
H30 C22 1_555 1_555
C23 C22 1_555 1_555
C24 C19 1_555 1_555
C25 C20 1_555 1_555
C26 O4 1_555 1_555
C27 C24 1_555 1_555
C28 C23 1_555 1_555
O9 H31 1_555 1_555
H32 O9 1_555 1_555
O10 H33 1_555 1_555
H34 O10 1_555 1_555
Ag1_2 O6 1_555 1_555
Ag1A N4 1_555 1_555
Ag2_2 O5 1_555 1_555
Ag2A N1 1_555 1_555
Ag3_2 O5 1_555 1_555
Ag4_2 O8 1_555 1_555
Ag4A N8 1_555 1_555
O5_2 Ag2 1_555 1_555
O6_2 Ag1 1_555 1_555
O7_2 Ag3 1_555 1_555
O8_2 Ag4 1_555 1_555
N1A Ag2 1_555 1_555
N4A Ag1 1_555 1_555
H1A N4A 1_555 1_555
H2A N4A 1_555 1_555
N8A Ag4 1_555 1_555
C8A Ag2 1_555 1_555
H16A C8A 1_555 1_555
C9A Ag2 1_555 1_555
H17A C9A 1_555 1_555
H18A C9A 1_555 1_555
Ag3 O5_2 1_555 1_555
O7 Ag3_2 1_555 1_555
N3 C3 1_555 1_555
N4 C1 1_555 1_555
N5 C2 1_555 1_555
N9 C12 1_555 1_555
N10 C10 1_555 1_555
N11 C11 1_555 1_555
C8 Ag2A 1_555 1_555
C9 Ag2A 1_555 1_555
C16 C17 1_555 1_555
C17 C18 1_555 1_555
C21 C26 1_555 1_555
C23 C24 1_555 1_555
C8A C9A 1_555 1_555

#END
