
#######################################################################
#
#                 Cambridge Crystallographic Data Centre
#                                CCDC 
#
#######################################################################
#
# If this CIF has been generated from an entry in the Cambridge 
# Structural Database, then it will include bibliographic, chemical, 
# crystal, experimental, refinement or atomic coordinate data resulting 
# from the CCDC's data processing and validation procedures.
#
#######################################################################

data_WAMYUG
_symmetry_cell_setting           monoclinic
_symmetry_space_group_name_H-M   'P 21/c'
_symmetry_Int_Tables_number      14
_space_group_name_Hall           '-P 2ybc'
loop_
_symmetry_equiv_pos_site_id
_symmetry_equiv_pos_as_xyz
1 x,y,z
2 -x,1/2+y,1/2-z
3 -x,-y,-z
4 x,1/2-y,1/2+z
_cell_length_a                   12.577(3)
_cell_length_b                   5.5313(11)
_cell_length_c                   10.798(2)
_cell_angle_alpha                90
_cell_angle_beta                 94.32(3)
_cell_angle_gamma                90
_cell_volume                     749.052
loop_
_atom_site_label
_atom_site_type_symbol
_atom_site_fract_x
_atom_site_fract_y
_atom_site_fract_z
Cd1 Cd 0.89339(2) 1.08760(5) 0.28117(3)
P1 P 0.86303(8) 0.5997(2) 0.08652(9)
O1 O 0.9432(2) 0.7364(5) 0.1742(2)
O2 O 0.8723(2) 0.6500(5) -0.0500(3)
O3 O 0.8598(2) 0.3299(5) 0.1141(3)
O4 O 0.8037(3) 1.3796(6) 0.3926(3)
H1 H 0.827(4) 1.511(10) 0.390(4)
H2 H 0.812(5) 1.340(11) 0.458(2)
N1 N 0.7325(3) 0.9167(7) 0.1962(3)
N2 N 0.5428(3) 0.7343(8) 0.0837(4)
C1 C 0.7336(3) 0.7241(8) 0.1206(4)
C2 C 0.6367(4) 0.6353(8) 0.0662(4)
H3 H 0.6383 0.5000 0.0153
C3 C 0.5449(4) 0.9291(9) 0.1570(4)
H4 H 0.4811 1.0075 0.1692
C4 C 0.6379(4) 1.0181(9) 0.2153(4)
H5 H 0.6353 1.1499 0.2684
Cd1_2 Cd 0.89339(2) 0.08760(5) 0.28117(3)
Cd1A Cd 1.10661(2) 0.58760(5) 0.21883(3)
Cd1C Cd 0.89339(2) 0.41240(5) -0.21883(3)
O1A O 1.0568(2) 1.2364(5) 0.3258(2)
O2C O 0.8723(2) 0.8500(5) 0.4500(3)
O3_2 O 0.8598(2) 1.3299(5) 0.1141(3)
loop_
_geom_bond_atom_site_label_1
_geom_bond_atom_site_label_2
_geom_bond_site_symmetry_1
_geom_bond_site_symmetry_2
Cd1 O1 1_555 1_555
P1 O1 1_555 1_555
O1 Cd1A 1_555 1_555
O2 P1 1_555 1_555
O3 P1 1_555 1_555
O4 Cd1 1_555 1_555
H1 O4 1_555 1_555
H2 O4 1_555 1_555
N1 Cd1 1_555 1_555
N2 C2 1_555 1_555
C1 P1 1_555 1_555
C2 C1 1_555 1_555
H3 C2 1_555 1_555
C3 N2 1_555 1_555
H4 C3 1_555 1_555
C4 N1 1_555 1_555
H5 C4 1_555 1_555
Cd1_2 O3 1_555 1_555
Cd1C O2 1_555 1_555
O1A Cd1 1_555 1_555
O2C Cd1 1_555 1_555
O3_2 Cd1 1_555 1_555
N1 C1 1_555 1_555
C3 C4 1_555 1_555

#END
