
#######################################################################
#
#                 Cambridge Crystallographic Data Centre
#                                CCDC 
#
#######################################################################
#
# If this CIF has been generated from an entry in the Cambridge 
# Structural Database, then it will include bibliographic, chemical, 
# crystal, experimental, refinement or atomic coordinate data resulting 
# from the CCDC's data processing and validation procedures.
#
#######################################################################

data_WANMOO
_symmetry_cell_setting           monoclinic
_symmetry_space_group_name_H-M   'C 2/c'
_symmetry_Int_Tables_number      15
_space_group_name_Hall           '-C 2yn'
loop_
_symmetry_equiv_pos_site_id
_symmetry_equiv_pos_as_xyz
1 x,y,z
2 1/2+x,1/2+y,z
3 -x,y,1/2-z
4 1/2-x,1/2+y,1/2-z
5 -x,-y,-z
6 1/2-x,1/2-y,-z
7 x,-y,1/2+z
8 1/2+x,1/2-y,1/2+z
_cell_length_a                   26.6065(13)
_cell_length_b                   11.0944(5)
_cell_length_c                   17.0945(9)
_cell_angle_alpha                90
_cell_angle_beta                 106.9610(10)
_cell_angle_gamma                90
_cell_volume                     4826.52
loop_
_atom_site_label
_atom_site_type_symbol
_atom_site_fract_x
_atom_site_fract_y
_atom_site_fract_z
Cu1 Cu 0.444342(12) 0.44053(3) 0.226633(19)
Cu2 Cu 0.421413(13) 0.89425(3) 0.056533(19)
Cu3 Cu 0.340734(12) 1.36539(3) 0.076031(19)
Cu4 Cu 0.343800(13) 0.11434(3) 0.38666(2)
N1 N 0.39956(8) 0.18553(18) 0.35961(12)
N2 N 0.43897(8) 0.31914(18) 0.29949(12)
N3 N 0.44509(8) 0.55809(18) 0.14910(12)
N4 N 0.43374(8) 0.73194(18) 0.08070(12)
N5 N 0.41230(8) 1.05984(18) 0.04244(12)
N6 N 0.38374(8) 1.24509(18) 0.05547(12)
N7 N 0.20796(8) -0.02015(19) 0.41438(13)
N8 N 0.27954(9) 0.0708(2) 0.40041(13)
C1 C 0.44976(11) 0.1464(2) 0.36742(15)
H1 H 0.4650 0.0743 0.3940
C2 C 0.47400(10) 0.2269(2) 0.33129(15)
H2 H 0.5090 0.2211 0.3282
C3 C 0.39523(10) 0.2907(2) 0.31908(14)
C4 C 0.34762(11) 0.3692(2) 0.30077(17)
H3 H 0.3167 0.3190 0.2999
H4 H 0.3415 0.4047 0.2456
C5 C 0.35220(15) 0.4696(3) 0.3619(2)
H5 H 0.3199 0.5179 0.3468
H6 H 0.3822 0.5210 0.3622
H7 H 0.3574 0.4352 0.4165
C6 C 0.46615(10) 0.5472(2) 0.08454(15)
H8 H 0.4828 0.4773 0.0716
C7 C 0.45916(10) 0.6526(2) 0.04284(15)
H9 H 0.4699 0.6692 -0.0044
C8 C 0.42628(9) 0.6715(2) 0.14423(15)
C9 C 0.40014(11) 0.7232(2) 0.20300(16)
H10 H 0.3816 0.6578 0.2227
H11 H 0.3734 0.7825 0.1738
C10 C 0.43768(13) 0.7845(3) 0.27601(19)
H12 H 0.4180 0.8162 0.3119
H13 H 0.4555 0.8508 0.2572
H14 H 0.4638 0.7260 0.3062
C11 C 0.42650(10) 1.1342(2) -0.01209(15)
H15 H 0.4454 1.1104 -0.0489
C12 C 0.40909(10) 1.2468(2) -0.00441(15)
H16 H 0.4135 1.3154 -0.0350
C13 C 0.38671(10) 1.1309(2) 0.08182(15)
C14 C 0.36331(11) 1.0877(2) 0.14613(15)
H17 H 0.3607 1.1563 0.1818
H18 H 0.3870 1.0270 0.1805
C15 C 0.30911(12) 1.0321(3) 0.11142(18)
H19 H 0.2958 1.0056 0.1564
H20 H 0.3114 0.9628 0.0771
H21 H 0.2851 1.0922 0.0784
C16 C 0.20498(11) 0.1007(2) 0.43131(17)
H22 H 0.1774 0.1387 0.4469
C17 C 0.24830(11) 0.1560(2) 0.42193(17)
H23 H 0.2559 0.2396 0.4290
C18 C 0.25379(10) -0.0342(2) 0.39661(15)
C19 C 0.27361(11) -0.1537(2) 0.37800(17)
H24 H 0.2442 -0.2119 0.3655
H25 H 0.3005 -0.1828 0.4275
C20 C 0.29729(12) -0.1525(3) 0.30728(19)
H26 H 0.3093 -0.2338 0.2991
H27 H 0.3272 -0.0969 0.3196
H28 H 0.2707 -0.1261 0.2574
Cu3C Cu 0.159266(12) -0.13461(3) 0.423969(19)
N7C N 0.29204(8) 1.47985(19) 0.08562(13)
loop_
_geom_bond_atom_site_label_1
_geom_bond_atom_site_label_2
_geom_bond_site_symmetry_1
_geom_bond_site_symmetry_2
Cu1 N2 1_555 1_555
Cu2 N4 1_555 1_555
Cu3 N6 1_555 1_555
Cu4 N1 1_555 1_555
N1 C1 1_555 1_555
N2 C2 1_555 1_555
N3 Cu1 1_555 1_555
N4 C7 1_555 1_555
N5 Cu2 1_555 1_555
N6 C12 1_555 1_555
N7 C16 1_555 1_555
N8 Cu4 1_555 1_555
C1 H1 1_555 1_555
C2 C1 1_555 1_555
H2 C2 1_555 1_555
C3 N1 1_555 1_555
C4 C3 1_555 1_555
H3 C4 1_555 1_555
H4 C4 1_555 1_555
C5 C4 1_555 1_555
H5 C5 1_555 1_555
H6 C5 1_555 1_555
H7 C5 1_555 1_555
C6 N3 1_555 1_555
H8 C6 1_555 1_555
C7 C6 1_555 1_555
H9 C7 1_555 1_555
C8 N3 1_555 1_555
C9 C8 1_555 1_555
H10 C9 1_555 1_555
H11 C9 1_555 1_555
C10 C9 1_555 1_555
H12 C10 1_555 1_555
H13 C10 1_555 1_555
H14 C10 1_555 1_555
C11 N5 1_555 1_555
H15 C11 1_555 1_555
C12 C11 1_555 1_555
H16 C12 1_555 1_555
C13 N5 1_555 1_555
C14 C13 1_555 1_555
H17 C14 1_555 1_555
H18 C14 1_555 1_555
C15 C14 1_555 1_555
H19 C15 1_555 1_555
H20 C15 1_555 1_555
H21 C15 1_555 1_555
C16 H22 1_555 1_555
C17 N8 1_555 1_555
H23 C17 1_555 1_555
C18 N7 1_555 1_555
C19 C18 1_555 1_555
H24 C19 1_555 1_555
H25 C19 1_555 1_555
C20 C19 1_555 1_555
H26 C20 1_555 1_555
H27 C20 1_555 1_555
H28 C20 1_555 1_555
Cu3C N7 1_555 1_555
N7C Cu3 1_555 1_555
N2 C3 1_555 1_555
N4 C8 1_555 1_555
N6 C13 1_555 1_555
N8 C18 1_555 1_555
C16 C17 1_555 1_555

#END
