
#######################################################################
#
#                 Cambridge Crystallographic Data Centre
#                                CCDC 
#
#######################################################################
#
# If this CIF has been generated from an entry in the Cambridge 
# Structural Database, then it will include bibliographic, chemical, 
# crystal, experimental, refinement or atomic coordinate data resulting 
# from the CCDC's data processing and validation procedures.
#
#######################################################################

data_WANQEH
_symmetry_cell_setting           monoclinic
_symmetry_space_group_name_H-M   'C 2/m'
_symmetry_Int_Tables_number      12
_space_group_name_Hall           '-C 2y'
loop_
_symmetry_equiv_pos_site_id
_symmetry_equiv_pos_as_xyz
1 x,y,z
2 -x,y,-z
3 1/2+x,1/2+y,z
4 1/2-x,1/2+y,-z
5 -x,-y,-z
6 x,-y,z
7 1/2-x,1/2-y,-z
8 1/2+x,1/2-y,z
_cell_length_a                   9.175(2)
_cell_length_b                   9.607(2)
_cell_length_c                   11.214(4)
_cell_angle_alpha                90
_cell_angle_beta                 112.67(2)
_cell_angle_gamma                90
_cell_volume                     912.082
loop_
_atom_site_label
_atom_site_type_symbol
_atom_site_fract_x
_atom_site_fract_y
_atom_site_fract_z
Y1 Y 0.12111(4) 0.00000 0.29632(3)
O1 O -0.3533(4) 0.00000 -0.2494(4)
O2 O -0.2760(2) 0.2035(2) -0.3588(2)
O3 O -0.4376(3) 0.3550(2) -0.3254(2)
O4 O 0.0414(3) 0.1380(2) 0.1078(2)
O5 O 0.2088(4) 0.00000 0.5228(3)
C1 C -0.4310(4) 0.1253(3) -0.2445(4)
C2 C -0.3779(3) 0.2357(3) -0.3153(3)
C3 C 0.00000 0.0803(4) 0.00000
H1 H 0.18193 0.08050 0.55172
H2 H -0.54429 0.11550 -0.29194
H3 H -0.41321 0.15906 -0.15694
O2D O 0.2760(2) -0.2035(2) 0.3588(2)
O4A O -0.0414(3) 0.1380(2) -0.1078(2)
C3D C 0.00000 -0.0803(4) 0.00000
O4D O -0.0414(3) -0.1380(2) -0.1078(2)
O4E O 0.0414(3) -0.1380(2) 0.1078(2)
H1E H 0.18193 -0.08050 0.55172
O3C O -0.0624(3) -0.1450(2) 0.3254(2)
O3F O -0.0624(3) 0.1450(2) 0.3254(2)
Y1A Y -0.12111(4) 0.00000 -0.29632(3)
O1A O 0.3533(4) 0.00000 0.2494(4)
O2A O 0.2760(2) 0.2035(2) 0.3588(2)
C1E C -0.4310(4) -0.1253(3) -0.2445(4)
C2E C -0.3779(3) -0.2357(3) -0.3153(3)
O2E O -0.2760(2) -0.2035(2) -0.3588(2)
O3E O -0.4376(3) -0.3550(2) -0.3254(2)
H2E H -0.54429 -0.11550 -0.29194
H3E H -0.41321 -0.15906 -0.15694
O1B O 0.1467(4) -0.50000 -0.2494(4)
O2B O 0.2240(2) -0.2965(2) -0.3588(2)
O3B O 0.0624(3) -0.1450(2) -0.3254(2)
C1B C 0.0690(4) -0.3747(3) -0.2445(4)
C2B C 0.1221(3) -0.2643(3) -0.3153(3)
H2B H -0.04429 -0.38450 -0.29194
H3B H 0.08679 -0.34094 -0.15694
C1G C 0.0690(4) -0.6253(3) -0.2445(4)
C2G C 0.1221(3) -0.7357(3) -0.3153(3)
O2G O 0.2240(2) -0.7035(2) -0.3588(2)
O3G O 0.0624(3) -0.8550(2) -0.3254(2)
H2G H -0.04429 -0.61550 -0.29194
H3G H 0.08679 -0.65906 -0.15694
O3G_2 O 0.0624(3) 0.1450(2) -0.3254(2)
O5A O -0.2088(4) 0.00000 -0.5228(3)
H1A H -0.18193 0.08050 -0.55172
H1D H -0.18193 -0.08050 -0.55172
Y1C Y 0.37889(4) -0.50000 -0.29632(3)
Y1C_2 Y -0.62111(4) 0.50000 -0.29632(3)
Y1F Y -0.62111(4) -0.50000 -0.29632(3)
Y1D Y -0.12111(4) -1.00000 -0.29632(3)
loop_
_geom_bond_atom_site_label_1
_geom_bond_atom_site_label_2
_geom_bond_site_symmetry_1
_geom_bond_site_symmetry_2
Y1 O4 1_555 1_555
O1 C1 1_555 1_555
O2 C2 1_555 1_555
O3 C2 1_555 1_555
O4 C3 1_555 1_555
O5 Y1 1_555 1_555
C1 C2 1_555 1_555
C3 O4A 1_555 1_555
H1 O5 1_555 1_555
H2 C1 1_555 1_555
H3 C1 1_555 1_555
O2D Y1 1_555 1_555
O4A Y1A 1_555 1_555
C3D C3 1_555 1_555
O4D C3D 1_555 1_555
O4E Y1 1_555 1_555
H1E O5 1_555 1_555
O3C Y1 1_555 1_555
O3F Y1 1_555 1_555
Y1A O1 1_555 1_555
O1A Y1 1_555 1_555
O2A Y1 1_555 1_555
C1E O1 1_555 1_555
C2E C1E 1_555 1_555
O2E Y1A 1_555 1_555
O3E C2E 1_555 1_555
H2E C1E 1_555 1_555
H3E C1E 1_555 1_555
O1B C1B 1_555 1_555
O2B C2B 1_555 1_555
O3B Y1A 1_555 1_555
C1B C2B 1_555 1_555
C2B O3B 1_555 1_555
H2B C1B 1_555 1_555
H3B C1B 1_555 1_555
C1G O1B 1_555 1_555
C2G C1G 1_555 1_555
O2G C2G 1_555 1_555
O3G C2G 1_555 1_555
H2G C1G 1_555 1_555
H3G C1G 1_555 1_555
O3G_2 Y1A 1_555 1_555
O5A Y1A 1_555 1_555
H1A O5A 1_555 1_555
H1D O5A 1_555 1_555
Y1C O1B 1_555 1_555
Y1C_2 O3 1_555 1_555
Y1F O3E 1_555 1_555
Y1D O3G 1_555 1_555
O2 Y1A 1_555 1_555
C3D O4E 1_555 1_555
O4D Y1A 1_555 1_555
C2E O2E 1_555 1_555
O2B Y1C 1_555 1_555
O2G Y1C 1_555 1_555

#END
