
#######################################################################
#
#                 Cambridge Crystallographic Data Centre
#                                CCDC 
#
#######################################################################
#
# If this CIF has been generated from an entry in the Cambridge 
# Structural Database, then it will include bibliographic, chemical, 
# crystal, experimental, refinement or atomic coordinate data resulting 
# from the CCDC's data processing and validation procedures.
#
#######################################################################

data_WANSOU
_symmetry_cell_setting           monoclinic
_symmetry_space_group_name_H-M   'P 2/c'
_symmetry_Int_Tables_number      13
_space_group_name_Hall           '-P 2yc'
loop_
_symmetry_equiv_pos_site_id
_symmetry_equiv_pos_as_xyz
1 x,y,z
2 -x,y,1/2-z
3 -x,-y,-z
4 x,-y,1/2+z
_cell_length_a                   11.312(2)
_cell_length_b                   10.012(2)
_cell_length_c                   16.597(3)
_cell_angle_alpha                90
_cell_angle_beta                 97.25(3)
_cell_angle_gamma                90
_cell_volume                     1864.68
loop_
_atom_site_label
_atom_site_type_symbol
_atom_site_fract_x
_atom_site_fract_y
_atom_site_fract_z
I1 I -0.21779(4) 0.87971(4) -0.23185(3)
I2 I 0.05321(4) 0.60401(4) -0.10526(3)
Cu1 Cu -0.12037(8) 0.64865(9) -0.25422(6)
Cu2 Cu -0.00199(9) 0.83210(8) -0.16796(6)
N1 N -0.3827(4) 0.3041(5) 0.0037(3)
H1 H -0.3846 0.2288 -0.0213
N2 N -0.6023(4) 0.1941(5) 0.0486(3)
H2 H -0.6287 0.2693 0.0289
C1 C -0.4122(6) 0.3085(6) 0.0855(4)
H3 H -0.4530 0.3915 0.0940
H4 H -0.3396 0.3057 0.1235
C2 C -0.4917(6) 0.1908(6) 0.1014(4)
H5 H -0.4505 0.1079 0.0932
H6 H -0.5077 0.1933 0.1575
O1 O -0.3497(4) 0.5242(4) -0.0031(3)
C3 C -0.3207(6) 0.3955(6) -0.1201(4)
C4 C -0.2634(6) 0.5008(6) -0.1517(4)
H7 H -0.2476 0.5765 -0.1197
N3 N -0.2290(5) 0.5001(6) -0.2261(4)
C5 C -0.2555(9) 0.3926(7) -0.2726(5)
H8 H -0.2356 0.3914 -0.3253
C6 C -0.3113(10) 0.2845(9) -0.2443(6)
H9 H -0.3281 0.2107 -0.2778
C7 C -0.3433(8) 0.2832(8) -0.1664(5)
H10 H -0.3789 0.2087 -0.1463
C8 C -0.3529(5) 0.4129(6) -0.0338(4)
O2 O -0.6303(4) -0.0271(4) 0.0512(3)
C9 C -0.7827(5) 0.1017(5) -0.0219(4)
C10 C -0.8394(6) -0.0111(6) -0.0557(4)
H11 H -0.8021 -0.0931 -0.0451
N4 N -0.9436(5) -0.0094(5) -0.1020(3)
C11 C -0.9978(7) 0.1079(6) -0.1137(5)
H12 H -1.0715 0.1103 -0.1456
C12 C -0.9518(6) 0.2250(7) -0.0816(5)
H13 H -0.9932 0.3049 -0.0910
C13 C -0.8422(6) 0.2217(6) -0.0346(4)
H14 H -0.8085 0.2998 -0.0117
C14 C -0.6646(5) 0.0846(6) 0.0297(4)
I1A I 0.21779(4) 0.87971(4) -0.26815(3)
I2A I -0.05321(4) 0.60401(4) -0.39474(3)
Cu1A Cu 0.12037(8) 0.64865(9) -0.24578(6)
Cu2A Cu 0.00199(9) 0.83210(8) -0.33204(6)
Cu2_2 Cu -1.00199(9) -0.16790(8) -0.16796(6)
N4_2 N 0.0564(5) 0.9906(5) -0.1020(3)
loop_
_geom_bond_atom_site_label_1
_geom_bond_atom_site_label_2
_geom_bond_site_symmetry_1
_geom_bond_site_symmetry_2
I1 Cu1 1_555 1_555
I2 Cu1 1_555 1_555
Cu1 N3 1_555 1_555
Cu2 I1 1_555 1_555
N1 H1 1_555 1_555
N2 H2 1_555 1_555
C1 N1 1_555 1_555
H3 C1 1_555 1_555
H4 C1 1_555 1_555
C2 N2 1_555 1_555
H5 C2 1_555 1_555
H6 C2 1_555 1_555
O1 C8 1_555 1_555
C3 C4 1_555 1_555
C4 H7 1_555 1_555
N3 C4 1_555 1_555
C5 N3 1_555 1_555
H8 C5 1_555 1_555
C6 C5 1_555 1_555
H9 C6 1_555 1_555
C7 C3 1_555 1_555
H10 C7 1_555 1_555
C8 N1 1_555 1_555
O2 C14 1_555 1_555
C9 C10 1_555 1_555
C10 H11 1_555 1_555
N4 C10 1_555 1_555
C11 N4 1_555 1_555
H12 C11 1_555 1_555
C12 C11 1_555 1_555
H13 C12 1_555 1_555
C13 C9 1_555 1_555
H14 C13 1_555 1_555
C14 N2 1_555 1_555
I1A Cu2 1_555 1_555
I2A Cu1 1_555 1_555
Cu1A I2 1_555 1_555
Cu2A I1 1_555 1_555
Cu2_2 N4 1_555 1_555
N4_2 Cu2 1_555 1_555
I2 Cu2 1_555 1_555
C1 C2 1_555 1_555
C3 C8 1_555 1_555
C6 C7 1_555 1_555
C9 C14 1_555 1_555
C12 C13 1_555 1_555
I1A Cu1A 1_555 1_555
I1A Cu2A 1_555 1_555
I2A Cu1A 1_555 1_555
I2A Cu2A 1_555 1_555

#END
