
#######################################################################
#
#                 Cambridge Crystallographic Data Centre
#                                CCDC 
#
#######################################################################
#
# If this CIF has been generated from an entry in the Cambridge 
# Structural Database, then it will include bibliographic, chemical, 
# crystal, experimental, refinement or atomic coordinate data resulting 
# from the CCDC's data processing and validation procedures.
#
#######################################################################

data_WANXIU
_symmetry_cell_setting           orthorhombic
_symmetry_space_group_name_H-M   'P 21 21 21'
_symmetry_Int_Tables_number      19
_space_group_name_Hall           'P 2ac 2ab'
loop_
_symmetry_equiv_pos_site_id
_symmetry_equiv_pos_as_xyz
1 x,y,z
2 1/2-x,-y,1/2+z
3 -x,1/2+y,1/2-z
4 1/2+x,1/2-y,-z
_cell_length_a                   7.7915(3)
_cell_length_b                   7.7915(3)
_cell_length_c                   16.5088(9)
_cell_angle_alpha                90
_cell_angle_beta                 90
_cell_angle_gamma                90
_cell_volume                     1002.21
loop_
_atom_site_label
_atom_site_type_symbol
_atom_site_fract_x
_atom_site_fract_y
_atom_site_fract_z
Co1 Co 0.08183(13) 0.80958(13) 0.37295(7)
S1 S -0.1612(2) 0.5964(3) 0.24110(12)
S2 S -0.1134(3) 0.8953(3) 0.54221(11)
N1 N 0.1669(8) 0.6686(7) 0.2739(3)
N2 N 0.1081(8) 0.4738(7) 0.1657(3)
N3 N -0.0435(6) 0.6325(7) 0.4456(3)
N4 N -0.2337(7) 0.5796(7) 0.5549(3)
C1 C 0.0512(9) 0.5813(9) 0.2266(4)
C2 C 0.3332(10) 0.6574(10) 0.2543(4)
H1 H 0.4119 0.7204 0.2845
C3 C 0.3928(10) 0.5591(10) 0.1931(4)
H2 H 0.5088 0.5568 0.1798
C4 C 0.2748(10) 0.4630(10) 0.1512(4)
H3 H 0.3133 0.3879 0.1114
C5 C -0.1321(8) 0.6885(10) 0.5117(4)
C6 C -0.0481(9) 0.4650(9) 0.4286(4)
H4 H 0.0134 0.4257 0.3840
C7 C -0.1382(10) 0.3489(9) 0.4731(4)
H5 H -0.1345 0.2321 0.4616
C8 C -0.2344(9) 0.4118(9) 0.5355(4)
H6 H -0.3022 0.3367 0.5654
Co1B Co -0.08183(13) 0.30958(13) 0.12705(7)
Co1C Co -0.41817(13) 0.69042(13) 0.62705(7)
N2B N -0.1081(8) 0.9738(7) 0.3343(3)
N4C N 0.2663(7) 0.9204(7) 0.4451(3)
loop_
_geom_bond_atom_site_label_1
_geom_bond_atom_site_label_2
_geom_bond_site_symmetry_1
_geom_bond_site_symmetry_2
Co1 N1 1_555 1_555
S1 C1 1_555 1_555
S2 C5 1_555 1_555
N1 C1 1_555 1_555
N2 C1 1_555 1_555
N3 Co1 1_555 1_555
N4 C5 1_555 1_555
C2 N1 1_555 1_555
H1 C2 1_555 1_555
C3 C2 1_555 1_555
H2 C3 1_555 1_555
C4 N2 1_555 1_555
H3 C4 1_555 1_555
C5 N3 1_555 1_555
C6 N3 1_555 1_555
H4 C6 1_555 1_555
C7 C6 1_555 1_555
H5 C7 1_555 1_555
C8 N4 1_555 1_555
H6 C8 1_555 1_555
Co1B N2 1_555 1_555
Co1C N4 1_555 1_555
N2B Co1 1_555 1_555
N4C Co1 1_555 1_555
C3 C4 1_555 1_555
C7 C8 1_555 1_555

#END
