
#######################################################################
#
#                 Cambridge Crystallographic Data Centre
#                                CCDC 
#
#######################################################################
#
# If this CIF has been generated from an entry in the Cambridge 
# Structural Database, then it will include bibliographic, chemical, 
# crystal, experimental, refinement or atomic coordinate data resulting 
# from the CCDC's data processing and validation procedures.
#
#######################################################################

data_WANXUG
_symmetry_cell_setting           monoclinic
_symmetry_space_group_name_H-M   'P 21/c'
_symmetry_Int_Tables_number      14
_space_group_name_Hall           '-P 2ybc'
loop_
_symmetry_equiv_pos_site_id
_symmetry_equiv_pos_as_xyz
1 x,y,z
2 -x,1/2+y,1/2-z
3 -x,-y,-z
4 x,1/2-y,1/2+z
_cell_length_a                   14.2433(2)
_cell_length_b                   17.2891(2)
_cell_length_c                   17.5885(2)
_cell_angle_alpha                90
_cell_angle_beta                 91.6160(10)
_cell_angle_gamma                90
_cell_volume                     4329.51
loop_
_atom_site_label
_atom_site_type_symbol
_atom_site_fract_x
_atom_site_fract_y
_atom_site_fract_z
C1 C 0.6868(2) 0.15175(17) -0.11595(16)
C2 C 0.7094(2) 0.21284(17) -0.05817(16)
C3 C 0.6368(2) 0.25633(17) -0.02921(16)
H1 H 0.5754 0.2474 -0.0464
C4 C 0.6546(2) 0.31315(17) 0.02529(16)
C5 C 0.7462(2) 0.32708(18) 0.05097(16)
C6 C 0.7707(2) 0.3887(2) 0.10997(18)
C7 C 0.8182(2) 0.2835(2) 0.0216(2)
H2 H 0.8797 0.2925 0.0385
C8 C 0.8004(2) 0.2272(2) -0.03231(19)
H3 H 0.8498 0.1987 -0.0514
C9 C 0.7417(2) -0.26454(16) 0.15926(15)
C10 C 0.7139(2) -0.21702(16) 0.09160(15)
C11 C 0.7826(2) -0.19257(17) 0.04161(15)
H4 H 0.8455 -0.2041 0.0516
C12 C 0.7562(2) -0.15130(18) -0.02249(15)
C13 C 0.6629(2) -0.13239(17) -0.03765(15)
C14 C 0.6293(2) -0.09055(17) -0.10841(16)
C15 C 0.5956(2) -0.15533(18) 0.01372(16)
H5 H 0.5330 -0.1415 0.0054
C16 C 0.6213(2) -0.19836(17) 0.07681(15)
H6 H 0.5755 -0.2150 0.1098
C17 C 0.4352(2) -0.07742(19) -0.33576(17)
H7 H 0.4597 -0.0400 -0.3676
C18 C 0.3390(2) -0.08585(19) -0.33430(17)
H8 H 0.3001 -0.0546 -0.3645
C19 C 0.3007(2) -0.14153(19) -0.28735(17)
C20 C 0.3631(2) -0.1887(2) -0.24625(19)
H9 H 0.3406 -0.2282 -0.2159
C21 C 0.4579(2) -0.17635(19) -0.25078(18)
H10 H 0.4985 -0.2083 -0.2229
C22 C 0.1975(2) -0.14696(19) -0.27993(17)
C23 C 0.1360(2) -0.1273(2) -0.33834(18)
H11 H 0.1588 -0.1131 -0.3853
C24 C 0.0409(2) -0.1287(2) -0.32752(19)
H12 H 0.0009 -0.1164 -0.3684
C25 C 0.0621(2) -0.1663(2) -0.2044(2)
H13 H 0.0372 -0.1794 -0.1578
C26 C 0.1581(2) -0.1679(2) -0.2114(2)
H14 H 0.1965 -0.1830 -0.1704
C27 C 0.3740(2) 0.09209(19) -0.24413(17)
H15 H 0.4108 0.1189 -0.2781
C28 C 0.2779(2) 0.0972(2) -0.25160(17)
H16 H 0.2507 0.1265 -0.2907
C29 C 0.2212(2) 0.05852(19) -0.20076(17)
C30 C 0.2661(2) 0.0152(2) -0.14360(18)
H17 H 0.2309 -0.0117 -0.1085
C31 C 0.3619(2) 0.01230(19) -0.13928(18)
H18 H 0.3909 -0.0163 -0.1005
C32 C 0.1181(2) 0.06292(19) -0.20837(17)
C33 C 0.0732(2) 0.0650(2) -0.27933(18)
H19 H 0.1080 0.0656 -0.3232
C34 C -0.0229(2) 0.0662(2) -0.28425(19)
H20 H -0.0519 0.0673 -0.3323
C35 C -0.0342(2) 0.06609(19) -0.15494(17)
H21 H -0.0707 0.0676 -0.1119
C36 C 0.0620(2) 0.0643(2) -0.14527(18)
H22 H 0.0893 0.0640 -0.0966
N1 N 0.41619(16) 0.04952(15) -0.18930(14)
N2 N -0.07743(16) 0.06578(15) -0.22303(14)
N3 N 0.00306(17) -0.14679(15) -0.26159(14)
N4 N 0.49510(16) -0.12034(15) -0.29359(13)
O1 O 0.75267(14) 0.11649(13) -0.14546(11)
O2 O 0.60010(15) 0.14028(13) -0.13043(13)
O3 O 0.47788(16) 0.34439(15) 0.01218(14)
O6 O 0.5392(7) 0.3260(10) 0.1384(4)
O7 O 0.5826(4) 0.4498(3) 0.0233(5)
O8 O 0.76451(15) 0.36731(13) 0.17793(12)
O9 O 0.79680(19) 0.45285(14) 0.08833(13)
O10 O 0.62963(13) 0.02312(12) -0.26331(10)
H23 H 0.616(2) 0.0518(16) -0.3047(13)
O11 O 0.64510(15) -0.08158(13) -0.40799(11)
H24 H 0.6317 -0.0370 -0.4201
H25 H 0.6034 -0.1080 -0.4280
O12 O 0.78933(13) -0.05767(11) -0.28420(11)
H26 H 0.799(2) -0.0476(19) -0.3261(19)
O13 O 0.67782(15) -0.29241(12) 0.19862(11)
O14 O 0.82840(15) -0.27275(13) 0.17372(12)
O15 O 0.8193(2) -0.04511(15) -0.11206(14)
O16 O 0.84888(15) -0.17881(14) -0.14469(12)
O17 O 0.93241(18) -0.1212(2) -0.03799(13)
O18 O 0.57919(16) -0.03160(14) -0.09733(12)
O19 O 0.64900(16) -0.11857(13) -0.17025(11)
S1 S 0.84723(6) -0.11981(6) -0.08292(4)
S2 S 0.55742(6) 0.36677(6) 0.05779(6)
Zn1 Zn 0.55615(2) 0.044870(19) -0.176440(18)
Zn2 Zn 0.64095(2) -0.093190(19) -0.287850(17)
Zn3 Zn 0.86096(2) -0.35229(2) 0.249110(18)
Zn4 Zn -0.22395(2) 0.05246(2) -0.239190(18)
N3C N 1.00306(17) -0.35321(15) 0.23841(14)
O1_2 O -0.24733(14) 0.11649(13) -0.14546(11)
O8C O -0.23549(15) 0.13269(13) -0.32207(12)
O10_2 O -0.37037(13) 0.02312(12) -0.26331(10)
H23_2 H -0.384(2) 0.0518(16) -0.3047(13)
O12C O 0.78933(13) -0.44233(11) 0.21580(11)
O12_2 O -0.21067(13) -0.05767(11) -0.28420(11)
H26C H 0.799(2) -0.4524(19) 0.1739(19)
H26_2 H -0.201(2) -0.0476(19) -0.3261(19)
O13C O 0.67782(15) -0.20759(12) -0.30138(11)
O16C O 0.84888(15) -0.32119(14) 0.35531(12)
Zn2C Zn 0.64095(2) -0.406810(19) 0.212150(17)
Zn3C Zn -0.13904(2) -0.14771(2) -0.250890(18)
Zn3C_2 Zn 0.86096(2) -0.14771(2) -0.250890(18)
Zn4_2 Zn 0.77605(2) 0.05246(2) -0.239190(18)
Zn4C Zn 0.77605(2) 0.44754(2) 0.260810(18)
O20 O 0.1997(4) 0.0417(4) 0.5503(3)
H27 H 0.205(6) 0.0979(19) 0.535(5)
H28 H 0.136(3) 0.032(5) 0.526(5)
O21 O 1.0027(12) 0.5545(13) 0.0007(9)
O22 O 0.0517(11) 0.3366(11) 1.0360(11)
O23 O 0.6893(4) 0.8191(3) 0.4036(4)
H29 H 0.660(6) 0.775(4) 0.381(6)
H30 H 0.754(2) 0.805(5) 0.413(5)
O24 O 0.1268(11) 0.5653(9) 0.4734(7)
O4? O 0.5567(5) 0.3729(5) 0.1303(4)
O5? O 0.5812(4) 0.4351(5) 0.0831(8)
loop_
_geom_bond_atom_site_label_1
_geom_bond_atom_site_label_2
_geom_bond_site_symmetry_1
_geom_bond_site_symmetry_2
C1 C2 1_555 1_555
C2 C3 1_555 1_555
C3 H1 1_555 1_555
C4 C3 1_555 1_555
C5 C4 1_555 1_555
C6 C5 1_555 1_555
C7 C5 1_555 1_555
H2 C7 1_555 1_555
C8 C2 1_555 1_555
H3 C8 1_555 1_555
C9 C10 1_555 1_555
C10 C11 1_555 1_555
C11 H4 1_555 1_555
C12 C11 1_555 1_555
C13 C12 1_555 1_555
C14 C13 1_555 1_555
C15 C13 1_555 1_555
H5 C15 1_555 1_555
C16 C10 1_555 1_555
H6 C16 1_555 1_555
C17 H7 1_555 1_555
C18 C17 1_555 1_555
H8 C18 1_555 1_555
C19 C18 1_555 1_555
C20 C19 1_555 1_555
H9 C20 1_555 1_555
C21 C20 1_555 1_555
H10 C21 1_555 1_555
C22 C19 1_555 1_555
C23 C22 1_555 1_555
H11 C23 1_555 1_555
C24 C23 1_555 1_555
H12 C24 1_555 1_555
C25 H13 1_555 1_555
C26 C22 1_555 1_555
H14 C26 1_555 1_555
C27 H15 1_555 1_555
C28 C27 1_555 1_555
H16 C28 1_555 1_555
C29 C28 1_555 1_555
C30 C29 1_555 1_555
H17 C30 1_555 1_555
C31 C30 1_555 1_555
H18 C31 1_555 1_555
C32 C29 1_555 1_555
C33 C32 1_555 1_555
H19 C33 1_555 1_555
C34 C33 1_555 1_555
H20 C34 1_555 1_555
C35 H21 1_555 1_555
C36 C32 1_555 1_555
H22 C36 1_555 1_555
N1 C27 1_555 1_555
N2 C34 1_555 1_555
N3 C24 1_555 1_555
N4 C17 1_555 1_555
O1 C1 1_555 1_555
O2 C1 1_555 1_555
O3 S2 1_555 1_555
O6 S2 1_555 1_555
O7 S2 1_555 1_555
O8 C6 1_555 1_555
O9 C6 1_555 1_555
O10 H23 1_555 1_555
O11 H24 1_555 1_555
H25 O11 1_555 1_555
O12 H26 1_555 1_555
O13 C9 1_555 1_555
O14 C9 1_555 1_555
O15 S1 1_555 1_555
O16 S1 1_555 1_555
O17 S1 1_555 1_555
O18 C14 1_555 1_555
O19 C14 1_555 1_555
O20 H27 1_555 1_555
H28 O20 1_555 1_555
O23 H29 1_555 1_555
H30 O23 1_555 1_555
S1 C12 1_555 1_555
S2 C4 1_555 1_555
Zn1 N1 1_555 1_555
Zn2 N4 1_555 1_555
Zn3 O14 1_555 1_555
Zn4 N2 1_555 1_555
N3C Zn3 1_555 1_555
O1_2 Zn4 1_555 1_555
O8C Zn4 1_555 1_555
O10_2 Zn4 1_555 1_555
H23_2 O10_2 1_555 1_555
O12C Zn3 1_555 1_555
O12_2 Zn4 1_555 1_555
H26C O12C 1_555 1_555
H26_2 O12_2 1_555 1_555
O13C Zn2 1_555 1_555
O16C Zn3 1_555 1_555
Zn2C O13 1_555 1_555
Zn3C N3 1_555 1_555
Zn3C_2 O12 1_555 1_555
Zn4_2 O1 1_555 1_555
Zn4C O8 1_555 1_555
C7 C8 1_555 1_555
C15 C16 1_555 1_555
C21 N4 1_555 1_555
C25 C26 1_555 1_555
C25 N3 1_555 1_555
C31 N1 1_555 1_555
C35 C36 1_555 1_555
C35 N2 1_555 1_555
O2 Zn1 1_555 1_555
O10 Zn1 1_555 1_555
O10 Zn2 1_555 1_555
O10 Zn4_2 1_555 1_555
O11 Zn2 1_555 1_555
O12 Zn2 1_555 1_555
O12 Zn4_2 1_555 1_555
O16 Zn3C_2 1_555 1_555
O18 Zn1 1_555 1_555
O19 Zn2 1_555 1_555
O12C Zn2C 1_555 1_555
O12_2 Zn3C 1_555 1_555

#END
