
#######################################################################
#
#                 Cambridge Crystallographic Data Centre
#                                CCDC 
#
#######################################################################
#
# If this CIF has been generated from an entry in the Cambridge 
# Structural Database, then it will include bibliographic, chemical, 
# crystal, experimental, refinement or atomic coordinate data resulting 
# from the CCDC's data processing and validation procedures.
#
#######################################################################

data_WANYOB
_symmetry_cell_setting           orthorhombic
_symmetry_space_group_name_H-M   'P b c a'
_symmetry_Int_Tables_number      61
_space_group_name_Hall           '-P 2ac 2ab'
loop_
_symmetry_equiv_pos_site_id
_symmetry_equiv_pos_as_xyz
1 x,y,z
2 1/2-x,-y,1/2+z
3 -x,1/2+y,1/2-z
4 1/2+x,1/2-y,-z
5 -x,-y,-z
6 1/2+x,y,1/2-z
7 x,1/2-y,1/2+z
8 1/2-x,1/2+y,z
_cell_length_a                   7.3596(3)
_cell_length_b                   14.5732(7)
_cell_length_c                   22.8091(10)
_cell_angle_alpha                90
_cell_angle_beta                 90
_cell_angle_gamma                90
_cell_volume                     2446.34
loop_
_atom_site_label
_atom_site_type_symbol
_atom_site_fract_x
_atom_site_fract_y
_atom_site_fract_z
C1 C 0.0984(6) 0.0310(3) 0.32206(19)
C2 C 0.1222(6) 0.0786(3) 0.26437(19)
C3 C 0.1671(6) 0.1709(3) 0.26226(18)
H1 H 0.1794 0.2038 0.2970
C4 C 0.1938(6) 0.2145(3) 0.20926(19)
H2 H 0.2245 0.2764 0.2087
C5 C 0.1755(6) 0.1669(3) 0.15632(18)
C6 C 0.2234(6) 0.2159(3) 0.10027(19)
C7 C 0.1272(6) 0.0747(3) 0.15927(19)
C8 C 0.1007(6) 0.0307(3) 0.21214(18)
H3 H 0.0685 -0.0310 0.2128
O1 O 0.1127(4) 0.0787(2) 0.36727(13)
O2 O 0.0651(4) -0.0547(2) 0.32117(13)
O3 O 0.1364(4) 0.2874(2) 0.08687(14)
O4 O 0.3489(4) 0.1878(2) 0.06884(13)
O5 O 0.0316(5) 0.0678(2) 0.04969(14)
O6 O 0.2910(4) -0.0192(2) 0.07980(13)
O7 O -0.0060(5) -0.0693(2) 0.10865(16)
O8 O 0.2645(4) -0.2087(2) 0.38700(15)
H4 H 0.366(4) -0.182(3) 0.385(2)
H5 H 0.270(6) -0.255(2) 0.4087(18)
O9 O 0.1124(4) -0.05798(19) 0.46697(13)
H6 H 0.225(3) -0.056(3) 0.469(2)
O10 O 0.2188(4) 0.1563(2) 0.47392(13)
H7 H 0.318(4) 0.132(3) 0.4656(18)
H8 H 0.218(6) 0.176(3) 0.5087(11)
S1 S 0.10598(15) 0.00817(8) 0.09451(5)
Zn1 Zn 0.00245(7) 0.07304(3) 0.45040(2)
Zn2 Zn 0.05069(7) -0.12256(3) 0.39427(2)
O3B O -0.1364(4) -0.2126(2) 0.41313(14)
O4E O -0.1511(4) 0.1878(2) 0.43116(13)
O6E O -0.2090(4) -0.0192(2) 0.42020(13)
O9D O -0.1124(4) 0.05798(19) 0.53303(13)
H6D H -0.225(3) 0.056(3) 0.531(2)
Zn1E Zn 0.50245(7) 0.07304(3) 0.04960(2)
Zn1D Zn -0.00245(7) -0.07304(3) 0.54960(2)
Zn2B Zn -0.05069(7) 0.37744(3) 0.10573(2)
loop_
_geom_bond_atom_site_label_1
_geom_bond_atom_site_label_2
_geom_bond_site_symmetry_1
_geom_bond_site_symmetry_2
C1 C2 1_555 1_555
C2 C3 1_555 1_555
C3 H1 1_555 1_555
C4 C3 1_555 1_555
H2 C4 1_555 1_555
C5 C4 1_555 1_555
C6 C5 1_555 1_555
C7 C5 1_555 1_555
C8 C2 1_555 1_555
H3 C8 1_555 1_555
O1 C1 1_555 1_555
O2 C1 1_555 1_555
O3 C6 1_555 1_555
O4 C6 1_555 1_555
O5 S1 1_555 1_555
O6 S1 1_555 1_555
O7 S1 1_555 1_555
O8 H4 1_555 1_555
H5 O8 1_555 1_555
O9 H6 1_555 1_555
O10 H7 1_555 1_555
H8 O10 1_555 1_555
S1 C7 1_555 1_555
Zn1 O1 1_555 1_555
Zn2 O2 1_555 1_555
O3B Zn2 1_555 1_555
O4E Zn1 1_555 1_555
O6E Zn1 1_555 1_555
O9D Zn1 1_555 1_555
H6D O9D 1_555 1_555
Zn1E O4 1_555 1_555
Zn1D O9 1_555 1_555
Zn2B O3 1_555 1_555
C7 C8 1_555 1_555
O6 Zn1E 1_555 1_555
O8 Zn2 1_555 1_555
O9 Zn1 1_555 1_555
O9 Zn2 1_555 1_555
O10 Zn1 1_555 1_555
O9D Zn1D 1_555 1_555

#END
