
#######################################################################
#
#                 Cambridge Crystallographic Data Centre
#                                CCDC 
#
#######################################################################
#
# If this CIF has been generated from an entry in the Cambridge 
# Structural Database, then it will include bibliographic, chemical, 
# crystal, experimental, refinement or atomic coordinate data resulting 
# from the CCDC's data processing and validation procedures.
#
#######################################################################

data_WANYIV
_symmetry_cell_setting           orthorhombic
_symmetry_space_group_name_H-M   'P b c a'
_symmetry_Int_Tables_number      61
_space_group_name_Hall           '-P 2ac 2ab'
loop_
_symmetry_equiv_pos_site_id
_symmetry_equiv_pos_as_xyz
1 x,y,z
2 1/2-x,-y,1/2+z
3 -x,1/2+y,1/2-z
4 1/2+x,1/2-y,-z
5 -x,-y,-z
6 1/2+x,y,1/2-z
7 x,1/2-y,1/2+z
8 1/2-x,1/2+y,z
_cell_length_a                   8.1269(2)
_cell_length_b                   11.9840(2)
_cell_length_c                   22.0101(4)
_cell_angle_alpha                90
_cell_angle_beta                 90
_cell_angle_gamma                90
_cell_volume                     2143.62
loop_
_atom_site_label
_atom_site_type_symbol
_atom_site_fract_x
_atom_site_fract_y
_atom_site_fract_z
C1 C -0.3344(3) -0.0703(2) -0.08703(11)
C2 C -0.3804(3) -0.0399(2) -0.15154(11)
C3 C -0.3269(3) -0.1094(3) -0.19808(12)
H1 H -0.2723 -0.1755 -0.1889
C4 C -0.3548(3) -0.0804(3) -0.25850(12)
H2 H -0.3157 -0.1260 -0.2895
C5 C -0.4408(3) 0.0167(2) -0.27273(12)
C6 C -0.4724(3) 0.0472(2) -0.33804(11)
C7 C -0.4995(3) 0.0842(2) -0.22601(11)
H3 H -0.5598 0.1480 -0.2351
C8 C -0.4683(3) 0.0565(2) -0.16618(11)
O1 O -0.2576(2) 0.00168(15) -0.05627(8)
O2 O -0.3733(2) -0.16448(16) -0.06694(8)
O3 O -0.4048(3) -0.01265(17) -0.37744(8)
O4 O -0.5672(2) 0.12868(17) -0.34742(8)
O5 O -0.4043(2) 0.21430(17) -0.08874(8)
O6 O -0.6029(2) 0.07558(17) -0.05949(8)
O7 O -0.6722(2) 0.21447(17) -0.13551(9)
O8 O 0.0012(2) 0.11631(18) -0.01156(9)
O9 O -0.2943(2) 0.15289(18) 0.04158(9)
S1 S -0.54497(8) 0.14619(6) -0.10872(3)
Zn1 Zn -0.16143(4) 0.16688(3) -0.072530(13)
Zn2 Zn -0.16755(4) -0.00180(3) 0.035680(13)
H4 H 0.031(4) 0.159(3) 0.0054(16)
H5 H -0.410(2) 0.148(3) 0.0471(18)
H6 H -0.257(5) 0.195(3) 0.0751(14)
O2G O -0.1267(2) 0.33552(16) -0.06694(8)
O3A O -0.0952(3) 0.01265(17) 0.12256(8)
O4E O -0.0672(2) 0.12868(17) -0.15258(8)
O6D O -0.3971(2) -0.07558(17) 0.05949(8)
O8D O -0.0012(2) -0.11631(18) 0.01156(9)
Zn1E Zn -0.66143(4) 0.16688(3) -0.427470(13)
Zn1G Zn -0.33857(4) -0.33312(3) -0.072530(13)
Zn2D Zn -0.83245(4) 0.00180(3) -0.035680(13)
Zn2A Zn -0.33245(4) 0.00180(3) -0.464320(13)
Zn2D_2 Zn 0.16755(4) 0.00180(3) -0.035680(13)
H4D H -0.031(4) -0.159(3) -0.0054(16)
loop_
_geom_bond_atom_site_label_1
_geom_bond_atom_site_label_2
_geom_bond_site_symmetry_1
_geom_bond_site_symmetry_2
C1 C2 1_555 1_555
C2 C3 1_555 1_555
C3 H1 1_555 1_555
C4 C3 1_555 1_555
H2 C4 1_555 1_555
C5 C4 1_555 1_555
C6 C5 1_555 1_555
C7 C5 1_555 1_555
H3 C7 1_555 1_555
C8 C2 1_555 1_555
O1 C1 1_555 1_555
O2 C1 1_555 1_555
O3 C6 1_555 1_555
O4 C6 1_555 1_555
O5 S1 1_555 1_555
O6 S1 1_555 1_555
O7 S1 1_555 1_555
O8 Zn1 1_555 1_555
O9 Zn2 1_555 1_555
S1 C8 1_555 1_555
Zn1 O1 1_555 1_555
Zn2 O1 1_555 1_555
H4 O8 1_555 1_555
H5 O9 1_555 1_555
H6 O9 1_555 1_555
O2G Zn1 1_555 1_555
O3A Zn2 1_555 1_555
O4E Zn1 1_555 1_555
O6D Zn2 1_555 1_555
O8D Zn2 1_555 1_555
Zn1E O4 1_555 1_555
Zn1G O2 1_555 1_555
Zn2D O6 1_555 1_555
Zn2A O3 1_555 1_555
Zn2D_2 O8 1_555 1_555
H4D O8D 1_555 1_555
C7 C8 1_555 1_555
O5 Zn1 1_555 1_555
O8 Zn2 1_555 1_555
O8D Zn2D_2 1_555 1_555

#END
