
#######################################################################
#
#                 Cambridge Crystallographic Data Centre
#                                CCDC 
#
#######################################################################
#
# If this CIF has been generated from an entry in the Cambridge 
# Structural Database, then it will include bibliographic, chemical, 
# crystal, experimental, refinement or atomic coordinate data resulting 
# from the CCDC's data processing and validation procedures.
#
#######################################################################

data_WAPBIA
_symmetry_cell_setting           orthorhombic
_symmetry_space_group_name_H-M   'P b c a'
_symmetry_Int_Tables_number      61
_space_group_name_Hall           '-P 2ac 2ab'
loop_
_symmetry_equiv_pos_site_id
_symmetry_equiv_pos_as_xyz
1 x,y,z
2 1/2-x,-y,1/2+z
3 1/2+x,1/2-y,-z
4 -x,1/2+y,1/2-z
5 -x,-y,-z
6 1/2+x,y,1/2-z
7 1/2-x,1/2+y,z
8 x,1/2-y,1/2+z
_cell_length_a                   17.549(3)
_cell_length_b                   12.607(3)
_cell_length_c                   24.921(5)
_cell_angle_alpha                90
_cell_angle_beta                 90
_cell_angle_gamma                90
_cell_volume                     5513.53
loop_
_atom_site_label
_atom_site_type_symbol
_atom_site_fract_x
_atom_site_fract_y
_atom_site_fract_z
Zn1 Zn 0.23895(4) 0.34541(5) 0.10672(2)
O1 O 0.2311(2) 0.2505(3) 0.16904(15)
O2 O 0.2820(3) 0.3826(4) 0.21490(16)
O3 O 0.2938(3) -0.2656(3) 0.54123(16)
O4 O 0.1832(3) -0.1932(3) 0.56226(17)
O5 O 0.3841(3) 0.2978(4) 0.39255(17)
O6 O 0.3804(3) 0.1379(4) 0.42134(19)
O7 O 0.3613(3) -0.0649(4) 0.3192(2)
O8 O 0.4105(5) -0.1683(7) 0.3736(3)
N1 N 0.3605(3) 0.2068(5) 0.39021(18)
N2 N 0.3634(4) -0.1030(5) 0.3632(2)
N3 N 0.1477(3) 0.4440(4) 0.11496(17)
N4 N 0.0769(3) 0.5803(4) 0.13875(19)
N5 N -0.1702(3) 0.4360(4) 0.40759(17)
N6 N -0.0906(3) 0.5699(4) 0.40034(18)
C1 C 0.2626(3) 0.0869(4) 0.3505(2)
C2 C 0.3071(3) 0.1787(4) 0.3474(2)
C3 C 0.3037(3) 0.2458(4) 0.3038(2)
H1 H 0.3334 0.3069 0.3032
C4 C 0.2561(3) 0.2228(4) 0.2609(2)
C5 C 0.2097(4) 0.1333(5) 0.2643(2)
H2 H 0.1763 0.1176 0.2365
C6 C 0.2127(4) 0.0681(5) 0.3084(2)
H3 H 0.1805 0.0096 0.3100
C7 C 0.2570(4) 0.2929(5) 0.2121(2)
C8 C 0.2622(3) 0.0115(5) 0.3975(2)
C9 C 0.3078(3) -0.0778(5) 0.4031(2)
C10 C 0.3032(3) -0.1446(4) 0.4475(2)
H4 H 0.3364 -0.2017 0.4509
C11 C 0.2495(3) -0.1254(4) 0.4859(2)
C12 C 0.2028(4) -0.0389(5) 0.4810(2)
H5 H 0.1670 -0.0252 0.5076
C13 C 0.2077(4) 0.0286(5) 0.4376(2)
H6 H 0.1746 0.0859 0.4349
C14 C 0.2411(4) -0.2003(5) 0.5341(2)
C15 C 0.1423(3) 0.5288(5) 0.1461(2)
H7 H 0.1798 0.5498 0.1703
C16 C 0.0806(4) 0.4424(5) 0.0868(3)
H8 H 0.0671 0.3915 0.0615
C17 C 0.0367(4) 0.5264(6) 0.1012(3)
H9 H -0.0113 0.5434 0.0880
C18 C 0.0561(4) 0.6811(5) 0.1639(3)
H10 H 0.0177 0.7153 0.1419
H11 H 0.1006 0.7267 0.1641
C19 C 0.0262(3) 0.6729(4) 0.2203(2)
C20 C 0.0175(5) 0.5797(5) 0.2476(3)
H12 H 0.0307 0.5162 0.2310
C21 C -0.0107(4) 0.5777(5) 0.2998(3)
H13 H -0.0158 0.5132 0.3175
C22 C -0.0309(3) 0.6680(4) 0.3251(2)
C23 C -0.0227(4) 0.7623(5) 0.2978(2)
H14 H -0.0360 0.8257 0.3144
C24 C 0.0050(4) 0.7636(5) 0.2459(3)
H15 H 0.0093 0.8281 0.2280
C25 C -0.0603(4) 0.6706(5) 0.3819(2)
H16 H -0.0191 0.6919 0.4055
H17 H -0.1000 0.7239 0.3844
C26 C -0.1585(4) 0.5297(5) 0.3862(2)
H18 H -0.1931 0.5640 0.3639
C27 C -0.1064(4) 0.4155(6) 0.4368(3)
H19 H -0.0982 0.3543 0.4568
C28 C -0.0568(4) 0.4966(6) 0.4327(3)
H20 H -0.0090 0.5016 0.4487
Zn1A Zn 0.26105(4) -0.34541(5) 0.60672(2)
Zn1E Zn -0.26105(4) 0.34541(5) 0.39328(2)
O3A O 0.2062(3) 0.2656(3) 0.04123(16)
N5E N 0.3298(3) 0.4360(4) 0.09241(17)
loop_
_geom_bond_atom_site_label_1
_geom_bond_atom_site_label_2
_geom_bond_site_symmetry_1
_geom_bond_site_symmetry_2
Zn1 O1 1_555 1_555
O1 C7 1_555 1_555
O2 C7 1_555 1_555
O3 C14 1_555 1_555
O4 C14 1_555 1_555
O5 N1 1_555 1_555
O6 N1 1_555 1_555
O7 N2 1_555 1_555
O8 N2 1_555 1_555
N1 C2 1_555 1_555
N2 C9 1_555 1_555
N3 Zn1 1_555 1_555
N4 C15 1_555 1_555
N5 C26 1_555 1_555
N6 C25 1_555 1_555
C1 C2 1_555 1_555
C2 C3 1_555 1_555
C3 H1 1_555 1_555
C4 C3 1_555 1_555
C5 C4 1_555 1_555
H2 C5 1_555 1_555
C6 C1 1_555 1_555
H3 C6 1_555 1_555
C7 C4 1_555 1_555
C8 C1 1_555 1_555
C9 C8 1_555 1_555
C10 C9 1_555 1_555
H4 C10 1_555 1_555
C11 C10 1_555 1_555
C12 C11 1_555 1_555
H5 C12 1_555 1_555
C13 C8 1_555 1_555
H6 C13 1_555 1_555
C14 C11 1_555 1_555
C15 N3 1_555 1_555
H7 C15 1_555 1_555
C16 N3 1_555 1_555
H8 C16 1_555 1_555
C17 N4 1_555 1_555
H9 C17 1_555 1_555
C18 N4 1_555 1_555
H10 C18 1_555 1_555
H11 C18 1_555 1_555
C19 C18 1_555 1_555
C20 C19 1_555 1_555
H12 C20 1_555 1_555
C21 C20 1_555 1_555
H13 C21 1_555 1_555
C22 C21 1_555 1_555
C23 C22 1_555 1_555
H14 C23 1_555 1_555
C24 C19 1_555 1_555
H15 C24 1_555 1_555
C25 C22 1_555 1_555
H16 C25 1_555 1_555
H17 C25 1_555 1_555
C26 N6 1_555 1_555
H18 C26 1_555 1_555
C27 N5 1_555 1_555
H19 C27 1_555 1_555
C28 N6 1_555 1_555
H20 C28 1_555 1_555
Zn1A O3 1_555 1_555
Zn1E N5 1_555 1_555
O3A Zn1 1_555 1_555
N5E Zn1 1_555 1_555
C5 C6 1_555 1_555
C12 C13 1_555 1_555
C16 C17 1_555 1_555
C23 C24 1_555 1_555
C27 C28 1_555 1_555

#END
