
#######################################################################
#
#                 Cambridge Crystallographic Data Centre
#                                CCDC 
#
#######################################################################
#
# If this CIF has been generated from an entry in the Cambridge 
# Structural Database, then it will include bibliographic, chemical, 
# crystal, experimental, refinement or atomic coordinate data resulting 
# from the CCDC's data processing and validation procedures.
#
#######################################################################

data_WAPSOV
_symmetry_cell_setting           monoclinic
_symmetry_space_group_name_H-M   'P 21'
_symmetry_Int_Tables_number      4
_space_group_name_Hall           'P 2yb'
loop_
_symmetry_equiv_pos_site_id
_symmetry_equiv_pos_as_xyz
1 x,y,z
2 -x,1/2+y,-z
_cell_length_a                   6.311(7)
_cell_length_b                   23.119(6)
_cell_length_c                   14.064(3)
_cell_angle_alpha                90
_cell_angle_beta                 93.42(4)
_cell_angle_gamma                90
_cell_volume                     2048.34
loop_
_atom_site_label
_atom_site_type_symbol
_atom_site_fract_x
_atom_site_fract_y
_atom_site_fract_z
Cu1 Cu -0.5683(4) -0.0415 -0.1286(2)
Cu2 Cu -0.0705(4) -0.0283(1) -0.1295(2)
O1 O -0.4964(19) 0.0398(5) -0.1254(8)
O2 O -0.1538(17) 0.0519(5) -0.1432(8)
C1 C -0.3377(18) 0.0698(3) -0.1334(10)
C2 C -0.3766(12) 0.1349(3) -0.1445(6)
C3 C -0.2481(16) 0.1691(5) -0.0685(10)
N1 N -0.6068(12) 0.1479(4) -0.1388(8)
O3 O -0.6507(17) -0.1220(5) -0.1266(8)
O4 O -1.0068(17) -0.1097(5) -0.1147(7)
C4 C -0.8371(17) -0.1397(3) -0.1198(9)
C5 C -0.8744(11) -0.2046(3) -0.1074(5)
C6 C -0.7685(17) -0.2395(5) -0.1833(10)
N2 N -1.1063(11) -0.2172(4) -0.1120(7)
O5 O -0.2799(19) -0.0519(5) -0.2327(8)
O6 O -0.7761(19) -0.0229(5) -0.2359(8)
O7 O -0.3499(17) -0.0539(5) -0.0248(7)
O8 O -0.8623(19) -0.0120(5) -0.0231(8)
O6_2 O 0.2239(19) -0.0229(5) -0.2359(8)
O8_2 O 0.1377(19) -0.0120(5) -0.0231(8)
O4_2 O -0.0068(17) -0.1097(5) -0.1147(7)
Cu2_2 Cu -1.0705(4) -0.0283(1) -0.1295(2)
Cu3 Cu -0.0984(4) -0.0355(1) -0.6243(2)
Cu4 Cu -0.5970(4) -0.0395(1) -0.6232(2)
O9 O -0.5162(18) 0.0414(5) -0.6213(8)
O10 O -0.1696(16) 0.0467(5) -0.6387(7)
C7 C -0.3629(18) 0.0678(3) -0.6256(9)
C8 C -0.3715(12) 0.1328(3) -0.6461(6)
C9 C -0.2312(17) 0.1664(5) -0.5737(10)
N3 N -0.5944(13) 0.1539(4) -0.6451(9)
O11 O -0.0348(19) -0.1175(5) -0.6114(8)
O12 O 0.3187(16) -0.1195(5) -0.6206(7)
C10 C 0.1565(20) -0.1427(3) -0.6248(10)
C11 C 0.1410(12) -0.2087(3) -0.6186(6)
C12 C 0.2529(18) -0.2377(5) -0.6990(10)
N4 N -0.0859(13) -0.2268(4) -0.6223(8)
O13 O -0.3829(19) -0.0559(5) -0.5191(8)
O14 O -0.3111(17) -0.0564(5) -0.7271(7)
O15 O 0.1868(18) -0.0226(5) -0.7293(8)
O16 O 0.1149(19) -0.0185(6) -0.5179(8)
O15_2 O -0.8132(18) -0.0226(5) -0.7293(8)
O16_2 O -0.8851(19) -0.0185(6) -0.5179(8)
O12_2 O -0.6813(16) -0.1195(5) -0.6206(7)
Cu4_2 Cu 0.4030(4) -0.0395(1) -0.6232(2)
S1 S -0.2946(8) -0.1862(2) -0.3743(3)
O17 O -0.4497(29) -0.1515(8) -0.4260(12)
O18 O -0.1832(32) -0.1524(7) -0.3008(13)
O19 O -0.1451(33) -0.2102(10) -0.4402(10)
O20 O -0.3827(31) -0.2311(7) -0.3304(14)
S2 S -0.1867(9) -0.3878(2) -0.6230(3)
O21 O -0.3367(20) -0.4236(6) -0.6852(8)
O22 O -0.0840(23) -0.3449(6) -0.6846(10)
O23 O -0.3136(27) -0.3596(7) -0.5531(11)
O24 O -0.0312(18) -0.4270(5) -0.5747(8)
S3 S -1.1649(9) -0.3886(2) -0.1234(3)
O25 O -1.2908(22) -0.4248(5) -0.1935(10)
O26 O -0.9481(22) -0.3957(8) -0.1310(13)
O27 O -1.2294(30) -0.4066(6) -0.0269(9)
O28 O -1.2118(33) -0.3282(7) -0.1360(12)
S4 S -0.3353(7) -0.1833(2) -0.8783(3)
O29 O -0.2679(24) -0.2432(6) -0.8854(11)
O30 O -0.2213(19) -0.1483(5) -0.9440(8)
O31 O -0.5636(28) -0.1730(9) -0.9020(12)
O32 O -0.2758(23) -0.1629(5) -0.7819(8)
O33 O -0.6824(21) -0.4759(6) -0.6215(8)
O34 O -0.6610(23) -0.4778(7) -0.1245(8)
O35 O -0.8264(22) -0.0966(6) -0.3775(8)
O36 O 0.1488(19) -0.0901(6) -0.8806(9)
loop_
_geom_bond_atom_site_label_1
_geom_bond_atom_site_label_2
_geom_bond_site_symmetry_1
_geom_bond_site_symmetry_2
Cu1 O1 1_555 1_555
Cu2 O2 1_555 1_555
O1 C1 1_555 1_555
O2 C1 1_555 1_555
C1 C2 1_555 1_555
C2 C3 1_555 1_555
N1 C2 1_555 1_555
O3 Cu1 1_555 1_555
O4 C4 1_555 1_555
C4 O3 1_555 1_555
C5 C4 1_555 1_555
C6 C5 1_555 1_555
N2 C5 1_555 1_555
O5 Cu1 1_555 1_555
O6 Cu1 1_555 1_555
O7 Cu1 1_555 1_555
O8 Cu1 1_555 1_555
Cu3 O10 1_555 1_555
Cu4 O9 1_555 1_555
O9 C7 1_555 1_555
O10 C7 1_555 1_555
C7 C8 1_555 1_555
C8 C9 1_555 1_555
N3 C8 1_555 1_555
O11 Cu3 1_555 1_555
O12 C10 1_555 1_555
C10 O11 1_555 1_555
C11 C10 1_555 1_555
C12 C11 1_555 1_555
N4 C11 1_555 1_555
O13 Cu3 1_555 1_555
O14 Cu3 1_555 1_555
O15 Cu3 1_555 1_555
O16 Cu3 1_555 1_555
S1 O17 1_555 1_555
O18 S1 1_555 1_555
O19 S1 1_555 1_555
O20 S1 1_555 1_555
S2 O21 1_555 1_555
O22 S2 1_555 1_555
O23 S2 1_555 1_555
O24 S2 1_555 1_555
S3 O25 1_555 1_555
O26 S3 1_555 1_555
O27 S3 1_555 1_555
O28 S3 1_555 1_555
S4 O29 1_555 1_555
O30 S4 1_555 1_555
O31 S4 1_555 1_555
O32 S4 1_555 1_555
O6_2 Cu2 1_555 1_555
O8_2 Cu2 1_555 1_555
O4_2 Cu2 1_555 1_555
Cu2_2 O4 1_555 1_555
O15_2 Cu4 1_555 1_555
O16_2 Cu4 1_555 1_555
O12_2 Cu4 1_555 1_555
Cu4_2 O12 1_555 1_555
Cu2 O5 1_555 1_555
Cu2 O7 1_555 1_555
O6 Cu2_2 1_555 1_555
O8 Cu2_2 1_555 1_555
Cu4 O13 1_555 1_555
Cu4 O14 1_555 1_555
O15 Cu4_2 1_555 1_555
O16 Cu4_2 1_555 1_555

#END
