
#######################################################################
#
#                 Cambridge Crystallographic Data Centre
#                                CCDC 
#
#######################################################################
#
# If this CIF has been generated from an entry in the Cambridge 
# Structural Database, then it will include bibliographic, chemical, 
# crystal, experimental, refinement or atomic coordinate data resulting 
# from the CCDC's data processing and validation procedures.
#
#######################################################################

data_WAPSAH
_symmetry_cell_setting           monoclinic
_symmetry_space_group_name_H-M   'P 21/c'
_symmetry_Int_Tables_number      14
_space_group_name_Hall           '-P 2ybc'
loop_
_symmetry_equiv_pos_site_id
_symmetry_equiv_pos_as_xyz
1 x,y,z
2 -x,1/2+y,1/2-z
3 -x,-y,-z
4 x,1/2-y,1/2+z
_cell_length_a                   19.807(5)
_cell_length_b                   8.46(1)
_cell_length_c                   31.079(7)
_cell_angle_alpha                90
_cell_angle_beta                 90.40(3)
_cell_angle_gamma                90
_cell_volume                     5207.69
loop_
_atom_site_label
_atom_site_type_symbol
_atom_site_fract_x
_atom_site_fract_y
_atom_site_fract_z
Sb1 Sb 0.29753(9) -0.0020(2) 0.27555(5)
C5 C 0.269(1) -0.182(3) 0.2321(9)
C6 C 0.312(1) -0.222(4) 0.198(1)
C7 C 0.295(2) -0.356(4) 0.173(1)
C8 C 0.236(2) -0.441(4) 0.184(1)
C9 C 0.192(2) -0.399(5) 0.217(1)
C10 C 0.207(2) -0.262(4) 0.243(1)
C11 C 0.353(1) -0.145(3) 0.3227(8)
C12 C 0.364(1) -0.060(3) 0.365(1)
C13 C 0.402(2) -0.162(5) 0.3957(9)
C14 C 0.426(2) -0.300(4) 0.383(1)
C15 C 0.414(2) -0.369(4) 0.344(1)
C16 C 0.379(2) -0.287(3) 0.3114(9)
C17 C 0.366(1) 0.161(3) 0.2503(9)
C18 C 0.359(1) 0.218(3) 0.208(1)
C19 C 0.408(2) 0.331(4) 0.194(1)
C20 C 0.460(2) 0.388(4) 0.221(1)
C21 C 0.465(1) 0.320(4) 0.262(1)
C22 C 0.420(1) 0.208(3) 0.2775(8)
C23 C 0.222(1) 0.128(4) 0.3095(9)
C24 C 0.218(2) 0.277(5) 0.302(1)
C25 C 0.168(2) 0.382(5) 0.325(1)
C26 C 0.121(2) 0.289(6) 0.352(1)
C27 C 0.130(2) 0.155(6) 0.361(1)
C28 C 0.175(2) 0.048(5) 0.337(1)
Sb2 Sb 0.20422(8) 0.0444(2) 0.52731(6)
C29 C 0.145(1) -0.079(3) 0.5739(8)
C30 C 0.158(1) -0.236(4) 0.5794(8)
C31 C 0.120(2) -0.325(4) 0.611(1)
C32 C 0.076(2) -0.242(4) 0.638(1)
C33 C 0.062(1) -0.088(4) 0.632(1)
C34 C 0.099(1) 0.006(4) 0.601(1)
C35 C 0.277(2) 0.188(4) 0.5590(8)
C36 C 0.347(2) 0.136(4) 0.5539(9)
C37 C 0.393(2) 0.247(6) 0.574(1)
C38 C 0.373(2) 0.385(5) 0.596(1)
C39 C 0.303(2) 0.419(3) 0.6021(8)
C40 C 0.252(2) 0.320(4) 0.5833(9)
C41 C 0.243(1) -0.143(3) 0.4896(9)
C42 C 0.210(1) -0.166(3) 0.4495(9)
C43 C 0.227(2) -0.298(3) 0.423(1)
C44 C 0.275(2) -0.400(4) 0.437(1)
C45 C 0.309(1) -0.375(4) 0.478(1)
C46 C 0.292(1) -0.246(4) 0.5053(9)
C47 C 0.132(1) 0.197(3) 0.4962(7)
C48 C 0.150(1) 0.346(3) 0.4860(8)
C49 C 0.099(2) 0.445(3) 0.4667(9)
C50 C 0.035(2) 0.396(4) 0.458(1)
C51 C 0.021(1) 0.247(5) 0.468(1)
C52 C 0.066(2) 0.132(4) 0.4881(9)
Cd2 Cd 0.4581(1) 0.2498(2) 0.44672(6)
N3 N 0.296(1) 0.196(3) 0.4539(7)
N4 N 0.544(1) 0.260(5) 0.3595(9)
C53 C 0.491(1) 0.454(3) 0.4887(7)
C54 C 0.494(2) 0.047(3) 0.4895(8)
C55 C 0.350(1) 0.228(4) 0.4466(9)
C56 C 0.514(1) 0.259(5) 0.3854(9)
C53B C 0.509(1) 0.546(3) 0.5113(7)
C54B C 0.506(2) -0.047(3) 0.5105(8)
Cd1 Cd 0.0360(1) 0.3281(3) 0.69647(6)
N1 N 0.193(1) 0.355(4) 0.696(1)
N2 N -0.059(2) 0.293(4) 0.612(1)
C1 C 0.002(1) 0.526(3) 0.7376(8)
C2 C 0.011(1) 0.125(3) 0.7400(8)
C3 C 0.142(2) 0.346(6) 0.692(1)
C4 C -0.026(2) 0.309(4) 0.637(1)
C2A C -0.011(1) 0.625(3) 0.7600(8)
C1A C -0.002(1) 0.026(3) 0.7624(8)
loop_
_geom_bond_atom_site_label_1
_geom_bond_atom_site_label_2
_geom_bond_site_symmetry_1
_geom_bond_site_symmetry_2
Cd1 C1 1_555 1_555
N1 C3 1_555 1_555
N2 C4 1_555 1_555
C1 C2A 1_555 1_555
C2 Cd1 1_555 1_555
C3 Cd1 1_555 1_555
C4 Cd1 1_555 1_555
Sb1 C5 1_555 1_555
C5 C6 1_555 1_555
C6 C7 1_555 1_555
C7 C8 1_555 1_555
C8 C9 1_555 1_555
C9 C10 1_555 1_555
C10 C5 1_555 1_555
C11 Sb1 1_555 1_555
C12 C11 1_555 1_555
C13 C12 1_555 1_555
C14 C13 1_555 1_555
C15 C14 1_555 1_555
C16 C11 1_555 1_555
C17 Sb1 1_555 1_555
C18 C17 1_555 1_555
C19 C18 1_555 1_555
C20 C19 1_555 1_555
C21 C20 1_555 1_555
C22 C17 1_555 1_555
C23 Sb1 1_555 1_555
C24 C23 1_555 1_555
C25 C24 1_555 1_555
C26 C25 1_555 1_555
C27 C26 1_555 1_555
C28 C23 1_555 1_555
Sb2 C29 1_555 1_555
C29 C30 1_555 1_555
C30 C31 1_555 1_555
C31 C32 1_555 1_555
C32 C33 1_555 1_555
C33 C34 1_555 1_555
C34 C29 1_555 1_555
C35 Sb2 1_555 1_555
C36 C35 1_555 1_555
C37 C36 1_555 1_555
C38 C37 1_555 1_555
C39 C38 1_555 1_555
C40 C35 1_555 1_555
C41 Sb2 1_555 1_555
C42 C41 1_555 1_555
C43 C42 1_555 1_555
C44 C43 1_555 1_555
C45 C44 1_555 1_555
C46 C41 1_555 1_555
C47 Sb2 1_555 1_555
C48 C47 1_555 1_555
C49 C48 1_555 1_555
C50 C49 1_555 1_555
C51 C50 1_555 1_555
C52 C47 1_555 1_555
Cd2 C53 1_555 1_555
N3 C55 1_555 1_555
N4 C56 1_555 1_555
C53 C53B 1_555 1_555
C54 Cd2 1_555 1_555
C55 Cd2 1_555 1_555
C56 Cd2 1_555 1_555
C1A C2 1_555 1_555
C54B C54 1_555 1_555
C15 C16 1_555 1_555
C21 C22 1_555 1_555
C27 C28 1_555 1_555
C39 C40 1_555 1_555
C45 C46 1_555 1_555
C51 C52 1_555 1_555

#END
