
#######################################################################
#
#                 Cambridge Crystallographic Data Centre
#                                CCDC 
#
#######################################################################
#
# If this CIF has been generated from an entry in the Cambridge 
# Structural Database, then it will include bibliographic, chemical, 
# crystal, experimental, refinement or atomic coordinate data resulting 
# from the CCDC's data processing and validation procedures.
#
#######################################################################

data_WAPYET
_symmetry_cell_setting           monoclinic
_symmetry_space_group_name_H-M   'C 2/c'
_symmetry_Int_Tables_number      15
_space_group_name_Hall           '-C 2yn'
loop_
_symmetry_equiv_pos_site_id
_symmetry_equiv_pos_as_xyz
1 x,y,z
2 -x,y,1/2-z
3 1/2+x,1/2+y,z
4 1/2-x,1/2+y,1/2-z
5 -x,-y,-z
6 x,-y,1/2+z
7 1/2-x,1/2-y,-z
8 1/2+x,1/2-y,1/2+z
_cell_length_a                   18.853(2)
_cell_length_b                   22.631(2)
_cell_length_c                   16.1982(16)
_cell_angle_alpha                90
_cell_angle_beta                 95.732(2)
_cell_angle_gamma                90
_cell_volume                     6876.6
loop_
_atom_site_label
_atom_site_type_symbol
_atom_site_fract_x
_atom_site_fract_y
_atom_site_fract_z
Mo1 Mo 0.12282(3) 0.44056(2) -1.18278(3)
Mo2 Mo 0.07635(3) 0.32250(2) -1.03982(3)
Mo3 Mo -0.04763(3) 0.21888(2) -1.10689(3)
Mo4 Mo -0.17670(3) 0.33237(3) -1.19202(4)
Mo5 Mo -0.11898(3) 0.21378(3) -1.32773(3)
Mo6 Mo 0.05718(3) 0.43519(3) -1.38789(4)
Cu1 Cu -0.07585(4) 0.15045(4) -0.90977(5)
Cu2 Cu 0.0000 0.24170(5) -0.7500
S1 S -0.1792(3) -0.04327(14) -0.74393(19)
S2 S -0.08178(11) 0.08144(8) -0.49796(11)
S3 S -0.1330(2) 0.37883(18) -0.7725(3)
P1 P 0.0000 0.32685(8) -1.2500
O1 O -0.1433(2) 0.3922(2) -1.1114(3)
O2 O -0.2572(2) 0.3190(2) -1.1638(3)
O3 O 0.0313(2) 0.45788(18) -1.1538(3)
O4 O 0.1959(2) 0.39389(19) -1.2303(3)
O5 O -0.1832(3) 0.1636(2) -1.3494(3)
O6 O 0.1118(3) 0.3354(2) -0.9428(3)
O7 O 0.1747(3) 0.4907(2) -1.1300(3)
O8 O 0.1348(2) 0.26041(18) -1.0706(2)
O9 O -0.0849(3) 0.1660(2) -1.0510(3)
O10 O 0.1227(2) 0.37746(17) -1.1013(2)
O11 O 0.0053(2) 0.26189(19) -1.0225(2)
O12 O -0.1175(2) 0.27685(19) -1.1218(2)
O13 O 0.0686(3) 0.4871(2) -1.4581(3)
O14 O -0.0801(2) 0.19466(19) -1.2198(2)
O15 O 0.1036(2) 0.47535(19) -1.2880(3)
O16 O -0.0042(2) 0.37730(19) -1.0518(3)
O17 O 0.02487(19) 0.28803(16) -1.1755(2)
O18 O 0.0414(2) 0.17943(17) -1.1249(3)
O19 O 0.06168(19) 0.36594(16) -1.2720(2)
O20 O -0.1684(2) 0.27677(19) -1.2763(2)
N1 N -0.1314(3) 0.0810(2) -0.8873(3)
N2 N -0.1180(4) 0.0513(3) -0.8164(4)
N3 N -0.2071(3) 0.0128(2) -0.8885(4)
N4 N -0.1857(3) 0.0588(2) -0.9327(4)
N5 N -0.0308(3) 0.1552(2) -0.6122(3)
N6 N -0.0575(3) 0.1981(2) -0.6654(3)
N7 N -0.1238(3) 0.2073(3) -0.6565(3)
N8 N -0.1410(3) 0.1710(2) -0.5969(3)
N9 N -0.0849(3) 0.2713(2) -0.8288(3)
N10 N -0.1079(3) 0.2346(2) -0.8924(3)
N11 N -0.1620(3) 0.2568(3) -0.9368(3)
N12 N -0.1753(3) 0.3081(3) -0.9021(4)
C1 C -0.2666(4) -0.0248(4) -0.9213(6)
H1 H -0.2743 -0.0551 -0.8818
H2 H -0.2557 -0.0426 -0.9723
H3 H -0.3089 -0.0012 -0.9314
C2 C -0.2119(4) 0.1714(4) -0.5695(5)
H4 H -0.2407 0.2003 -0.6006
H5 H -0.2089 0.1811 -0.5116
H6 H -0.2332 0.1331 -0.5782
C3 C -0.1666(5) 0.0094(3) -0.8180(4)
C4 C -0.0839(3) 0.1379(3) -0.5704(4)
C5 C -0.2346(5) 0.3462(5) -0.9376(7)
H7 H -0.2583 0.3276 -0.9860
H8 H -0.2160 0.3838 -0.9527
H9 H -0.2679 0.3520 -0.8972
C6 C -0.1290(4) 0.3171(4) -0.8349(5)
C7 C -0.0540(7) 0.3814(4) -0.7128(7)
C8 C 0.0095(11) 0.4055(7) -0.7107(12)
C9 C -0.0928(10) -0.0426(5) -0.6870(7)
H10 H -0.0912 -0.0765 -0.6502
H11 H -0.0589 -0.0504 -0.7269
C10 C -0.1015(11) 0.0201(4) -0.5730(9)
H12 H -0.1016 -0.0158 -0.5403
H13 H -0.1501 0.0261 -0.5972
C11 C -0.0634(7) 0.0083(5) -0.6355(7)
H14 H -0.0148 -0.0006 -0.6138
H15 H -0.0623 0.0430 -0.6705
Mo1A Mo -0.12282(3) 0.44056(2) -1.31722(3)
Mo2A Mo -0.07635(3) 0.32250(2) -1.46018(3)
Mo3A Mo 0.04763(3) 0.21888(2) -1.39311(3)
Mo4A Mo 0.17670(3) 0.33237(3) -1.30798(4)
Mo5A Mo 0.11898(3) 0.21378(3) -1.17227(3)
Mo6A Mo -0.05718(3) 0.43519(3) -1.11211(4)
Cu1A Cu 0.07585(4) 0.15045(4) -0.59023(5)
Cu1A_2 Cu 0.07585(4) 0.15045(4) -1.59023(5)
S1A S 0.1792(3) -0.04327(14) -0.75607(19)
S2A S 0.08178(11) 0.08144(8) -1.00204(11)
S3A S 0.1330(2) 0.37883(18) -0.7275(3)
O1A O 0.1433(2) 0.3922(2) -1.3886(3)
O2A O 0.2572(2) 0.3190(2) -1.3362(3)
O3A O -0.0313(2) 0.45788(18) -1.3462(3)
O4A O -0.1959(2) 0.39389(19) -1.2697(3)
O5A O 0.1832(3) 0.1636(2) -1.1506(3)
O6A O -0.1118(3) 0.3354(2) -1.5572(3)
O7A O -0.1747(3) 0.4907(2) -1.3700(3)
O8A O -0.1348(2) 0.26041(18) -1.4294(2)
O9A O 0.0849(3) 0.1660(2) -0.4490(3)
O9A_2 O 0.0849(3) 0.1660(2) -1.4490(3)
O10A O -0.1227(2) 0.37746(17) -1.3987(2)
O11A O -0.0053(2) 0.26189(19) -1.4775(2)
O12A O 0.1175(2) 0.27685(19) -1.3782(2)
O13A O -0.0686(3) 0.4871(2) -1.0419(3)
O14A O 0.0801(2) 0.19466(19) -1.2802(2)
O15A O -0.1036(2) 0.47535(19) -1.2120(3)
O16A O 0.0042(2) 0.37730(19) -1.4482(3)
O17A O -0.02487(19) 0.28803(16) -1.3245(2)
O18A O -0.0414(2) 0.17943(17) -1.3751(3)
O19A O -0.06168(19) 0.36594(16) -1.2280(2)
O20A O 0.1684(2) 0.27677(19) -1.2237(2)
N1A N 0.1314(3) 0.0810(2) -0.6127(3)
N2A N 0.1180(4) 0.0513(3) -0.6836(4)
N3A N 0.2071(3) 0.0128(2) -0.6115(4)
N4A N 0.1857(3) 0.0588(2) -0.5673(4)
N5A N 0.0308(3) 0.1552(2) -0.8878(3)
N6A N 0.0575(3) 0.1981(2) -0.8346(3)
N7A N 0.1238(3) 0.2073(3) -0.8435(3)
N8A N 0.1410(3) 0.1710(2) -0.9031(3)
N9A N 0.0849(3) 0.2713(2) -0.6712(3)
N10A N 0.1079(3) 0.2346(2) -0.6076(3)
N11A N 0.1620(3) 0.2568(3) -0.5632(3)
N12A N 0.1753(3) 0.3081(3) -0.5979(4)
C1A C 0.2666(4) -0.0248(4) -0.5787(6)
H1A H 0.2743 -0.0551 -0.6182
H2A H 0.2557 -0.0426 -0.5277
H3A H 0.3089 -0.0012 -0.5686
C2A C 0.2119(4) 0.1714(4) -0.9305(5)
H4A H 0.2407 0.2003 -0.8994
H5A H 0.2089 0.1811 -0.9884
H6A H 0.2332 0.1331 -0.9218
C3A C 0.1666(5) 0.0094(3) -0.6820(4)
C4A C 0.0839(3) 0.1379(3) -0.9296(4)
C5A C 0.2346(5) 0.3462(5) -0.5624(7)
H7A H 0.2583 0.3276 -0.5140
H8A H 0.2160 0.3838 -0.5473
H9A H 0.2679 0.3520 -0.6028
C6A C 0.1290(4) 0.3171(4) -0.6651(5)
C7A C 0.0540(7) 0.3814(4) -0.7872(7)
C8A C -0.0095(11) 0.4055(7) -0.7893(12)
C9A C 0.0928(10) -0.0426(5) -0.8130(7)
H10A H 0.0912 -0.0765 -0.8498
H11A H 0.0589 -0.0504 -0.7731
C10A C 0.1015(11) 0.0201(4) -0.9270(9)
H12A H 0.1016 -0.0158 -0.9597
H13A H 0.1501 0.0261 -0.9028
C11A C 0.0634(7) 0.0083(5) -0.8645(7)
H14A H 0.0148 -0.0006 -0.8862
H15A H 0.0623 0.0430 -0.8295
loop_
_geom_bond_atom_site_label_1
_geom_bond_atom_site_label_2
_geom_bond_site_symmetry_1
_geom_bond_site_symmetry_2
Mo1 O3 1_555 1_555
Mo2 O6 1_555 1_555
Mo3 O9 1_555 1_555
Mo4 O1 1_555 1_555
Mo5 O5 1_555 1_555
Mo6 O13 1_555 1_555
Cu1 O9 1_555 1_555
Cu2 N6 1_555 1_555
S1 C3 1_555 1_555
S2 C4 1_555 1_555
S3 C6 1_555 1_555
P1 O17 1_555 1_555
O1 Mo6A 1_555 1_555
O2 Mo4 1_555 1_555
O3 Mo6A 1_555 1_555
O4 Mo1 1_555 1_555
O7 Mo1 1_555 1_555
O8 Mo2 1_555 1_555
O10 Mo1 1_555 1_555
O11 Mo2 1_555 1_555
O12 Mo3 1_555 1_555
O14 Mo3 1_555 1_555
O15 Mo1 1_555 1_555
O16 Mo2 1_555 1_555
O17 Mo2 1_555 1_555
O18 Mo3 1_555 1_555
O19 Mo1 1_555 1_555
O20 Mo4 1_555 1_555
N1 Cu1 1_555 1_555
N2 N1 1_555 1_555
N3 N4 1_555 1_555
N4 N1 1_555 1_555
N5 N6 1_555 1_555
N6 N7 1_555 1_555
N7 N8 1_555 1_555
N8 C2 1_555 1_555
N9 Cu2 1_555 1_555
N10 Cu1 1_555 1_555
N11 N10 1_555 1_555
N12 N11 1_555 1_555
C1 N3 1_555 1_555
H1 C1 1_555 1_555
H2 C1 1_555 1_555
H3 C1 1_555 1_555
C2 H4 1_555 1_555
H5 C2 1_555 1_555
H6 C2 1_555 1_555
C3 N2 1_555 1_555
C4 N5 1_555 1_555
C5 N12 1_555 1_555
H7 C5 1_555 1_555
H8 C5 1_555 1_555
H9 C5 1_555 1_555
C6 N9 1_555 1_555
C7 S3 1_555 1_555
C8 C7 1_555 1_555
C9 S1 1_555 1_555
H10 C9 1_555 1_555
H11 C9 1_555 1_555
C10 S2 1_555 1_555
H12 C10 1_555 1_555
H13 C10 1_555 1_555
C11 C9 1_555 1_555
H14 C11 1_555 1_555
H15 C11 1_555 1_555
Mo1A O3A 1_555 1_555
Mo2A O6A 1_555 1_555
Mo3A O9A_2 1_555 1_555
Mo4A O4 1_555 1_555
Mo5A O8 1_555 1_555
Mo6A O16 1_555 1_555
Cu1A N5 1_555 1_555
Cu1A_2 O9A_2 1_555 1_555
S1A C3A 1_555 1_555
S2A C4A 1_555 1_555
S3A C6A 1_555 1_555
O1A Mo6 1_555 1_555
O2A Mo4A 1_555 1_555
O3A Mo6 1_555 1_555
O4A Mo4 1_555 1_555
O5A Mo5A 1_555 1_555
O7A Mo1A 1_555 1_555
O8A Mo5 1_555 1_555
O9A Cu1A 1_555 1_555
O10A Mo1A 1_555 1_555
O11A Mo2A 1_555 1_555
O12A Mo3A 1_555 1_555
O13A Mo6A 1_555 1_555
O14A Mo3A 1_555 1_555
O15A Mo1A 1_555 1_555
O16A Mo6 1_555 1_555
O17A Mo5 1_555 1_555
O18A Mo5 1_555 1_555
O19A Mo4 1_555 1_555
O20A Mo4A 1_555 1_555
N1A Cu1A 1_555 1_555
N2A N1A 1_555 1_555
N3A N4A 1_555 1_555
N4A N1A 1_555 1_555
N5A Cu1 1_555 1_555
N6A Cu2 1_555 1_555
N7A N6A 1_555 1_555
N8A N7A 1_555 1_555
N9A Cu2 1_555 1_555
N10A Cu1A 1_555 1_555
N11A N10A 1_555 1_555
N12A N11A 1_555 1_555
C1A N3A 1_555 1_555
H1A C1A 1_555 1_555
H2A C1A 1_555 1_555
H3A C1A 1_555 1_555
C2A N8A 1_555 1_555
H4A C2A 1_555 1_555
H5A C2A 1_555 1_555
H6A C2A 1_555 1_555
C3A N2A 1_555 1_555
C4A N5A 1_555 1_555
C5A N12A 1_555 1_555
H7A C5A 1_555 1_555
H8A C5A 1_555 1_555
H9A C5A 1_555 1_555
C6A N9A 1_555 1_555
C7A C8 1_555 1_555
C8A C7 1_555 1_555
C9A S1A 1_555 1_555
H10A C9A 1_555 1_555
H11A C9A 1_555 1_555
C10A S2A 1_555 1_555
H12A C10A 1_555 1_555
H13A C10A 1_555 1_555
C11A C9A 1_555 1_555
H14A C11A 1_555 1_555
H15A C11A 1_555 1_555
Mo2 O10 1_555 1_555
Mo3 O11 1_555 1_555
Mo3 O17 1_555 1_555
Mo4 O12 1_555 1_555
Mo5 O14 1_555 1_555
Mo5 O20 1_555 1_555
Mo6 O15 1_555 1_555
Mo6 O19 1_555 1_555
P1 O19 1_555 1_555
P1 O17A 1_555 1_555
P1 O19A 1_555 1_555
O17 Mo5A 1_555 1_555
O18 Mo5A 1_555 1_555
O19 Mo4A 1_555 1_555
N3 C3 1_555 1_555
N8 C4 1_555 1_555
N9 N10 1_555 1_555
N12 C6 1_555 1_555
C8 C8A 1_555 1_555
C10 C11 1_555 1_555
Mo1A O4A 1_555 1_555
Mo1A O19A 1_555 1_555
Mo2A O8A 1_555 1_555
Mo2A O10A 1_555 1_555
Mo2A O16A 1_555 1_555
Mo2A O17A 1_555 1_555
Mo3A O11A 1_555 1_555
Mo3A O17A 1_555 1_555
Mo3A O18A 1_555 1_555
Mo4A O1A 1_555 1_555
Mo4A O12A 1_555 1_555
Mo5A O14A 1_555 1_555
Mo5A O20A 1_555 1_555
Mo6A O15A 1_555 1_555
Mo6A O19A 1_555 1_555
S3A C7A 1_555 1_555
N3A C3A 1_555 1_555
N5A N6A 1_555 1_555
N8A C4A 1_555 1_555
N9A N10A 1_555 1_555
N12A C6A 1_555 1_555
C7A C8A 1_555 1_555
C10A C11A 1_555 1_555

#END
