
#######################################################################
#
#                 Cambridge Crystallographic Data Centre
#                                CCDC 
#
#######################################################################
#
# If this CIF has been generated from an entry in the Cambridge 
# Structural Database, then it will include bibliographic, chemical, 
# crystal, experimental, refinement or atomic coordinate data resulting 
# from the CCDC's data processing and validation procedures.
#
#######################################################################

data_WAPZIY
_symmetry_cell_setting           monoclinic
_symmetry_space_group_name_H-M   'C 2/c'
_symmetry_Int_Tables_number      15
_space_group_name_Hall           '-C 2yn'
loop_
_symmetry_equiv_pos_site_id
_symmetry_equiv_pos_as_xyz
1 x,y,z
2 -x,y,1/2-z
3 1/2+x,1/2+y,z
4 1/2-x,1/2+y,1/2-z
5 -x,-y,-z
6 x,-y,1/2+z
7 1/2-x,1/2-y,-z
8 1/2+x,1/2-y,1/2+z
_cell_length_a                   28.28(2)
_cell_length_b                   7.547(6)
_cell_length_c                   6.390(6)
_cell_angle_alpha                90
_cell_angle_beta                 101.26(2)
_cell_angle_gamma                90
_cell_volume                     1337.56
loop_
_atom_site_label
_atom_site_type_symbol
_atom_site_fract_x
_atom_site_fract_y
_atom_site_fract_z
P1 P 0.426613(16) 0.29491(6) -0.00840(7)
Na1 Na 0.5000 0.39382(14) -0.2500
Na2 Na 0.5000 0.03804(14) 0.2500
O1 O 0.46108(5) 0.16775(17) -0.0808(2)
O2 O 0.44145(5) 0.48674(17) -0.01670(19)
O3 O 0.42402(5) 0.24636(18) 0.2296(2)
C1 C 0.36706(7) 0.2663(2) -0.1647(3)
C2 C 0.35984(7) 0.1804(3) -0.3597(3)
C3 C 0.32733(7) 0.3414(3) -0.0996(3)
C4 C 0.28179(7) 0.3338(3) -0.2302(3)
C5 C 0.31429(7) 0.1730(3) -0.4906(3)
C6 C 0.27447(6) 0.2512(3) -0.4285(3)
H1 H 0.3115(8) 0.125(3) -0.623(4)
H2 H 0.3857(8) 0.129(3) -0.405(4)
H3 H 0.2559(9) 0.390(3) -0.179(4)
H4 H 0.3321(9) 0.404(4) 0.039(4)
H5 H 0.4276(11) 0.329(4) 0.319(5)
P1F P 0.073387(16) 0.20509(6) -0.99160(7)
Na1D Na 0.5000 0.60618(14) 0.2500
Na1F Na 0.0000 0.10618(14) -0.7500
Na1B Na 0.0000 -0.10618(14) -1.2500
Na2D Na 0.5000 -0.03804(14) -0.2500
Na2F Na 0.0000 0.46196(14) -1.2500
Na2B Na 0.0000 0.53804(14) -0.7500
O1F O 0.03892(5) 0.33225(17) -0.9192(2)
O1A O 0.53892(5) 0.16775(17) -0.4192(2)
O1A_2 O 0.53892(5) 0.16775(17) 0.5808(2)
O1D O 0.53892(5) -0.16775(17) 0.0808(2)
O1E O 0.46108(5) -0.16775(17) 0.4192(2)
O2F O 0.05855(5) 0.01326(17) -0.98330(19)
O2D O 0.55855(5) 0.51326(17) 0.01670(19)
O2E O 0.44145(5) 0.51326(17) -0.51670(19)
O3F O 0.07598(5) 0.25364(18) -1.2296(2)
C1F C 0.13294(7) 0.2337(2) -0.8353(3)
C2F C 0.14016(7) 0.3196(3) -0.6403(3)
C3F C 0.17267(7) 0.1586(3) -0.9004(3)
C4F C 0.21821(7) 0.1662(3) -0.7698(3)
C5F C 0.18571(7) 0.3270(3) -0.5094(3)
C6F C 0.22553(6) 0.2488(3) -0.5715(3)
H1F H 0.1885(8) 0.375(3) -0.377(4)
H2F H 0.1143(8) 0.371(3) -0.595(4)
H3F H 0.2441(9) 0.110(3) -0.821(4)
H4F H 0.1679(9) 0.096(4) -1.039(4)
H5F H 0.0724(11) 0.171(4) -1.319(5)
loop_
_geom_bond_atom_site_label_1
_geom_bond_atom_site_label_2
_geom_bond_site_symmetry_1
_geom_bond_site_symmetry_2
P1 O1 1_555 1_555
Na1 O1 1_555 1_555
Na2 O1 1_555 1_555
O1 Na2D 1_555 1_555
O2 P1 1_555 1_555
O3 P1 1_555 1_555
C1 P1 1_555 1_555
C2 C1 1_555 1_555
C3 C1 1_555 1_555
C4 C3 1_555 1_555
C5 C2 1_555 1_555
C6 C4 1_555 1_555
H1 C5 1_555 1_555
H2 C2 1_555 1_555
H3 C4 1_555 1_555
H4 C3 1_555 1_555
H5 O3 1_555 1_555
P1F O1F 1_555 1_555
Na1D O2 1_555 1_555
Na1F O1F 1_555 1_555
Na1B O2F 1_555 1_555
Na2D O1A 1_555 1_555
Na2F O1F 1_555 1_555
Na2B O1F 1_555 1_555
O1A Na1 1_555 1_555
O1A_2 Na2 1_555 1_555
O1D Na2 1_555 1_555
O1E Na2 1_555 1_555
O2F P1F 1_555 1_555
O2D Na1 1_555 1_555
O2E Na1 1_555 1_555
O3F P1F 1_555 1_555
C1F P1F 1_555 1_555
C2F C1F 1_555 1_555
C3F C1F 1_555 1_555
C4F C3F 1_555 1_555
C5F C2F 1_555 1_555
C6F C6 1_555 1_555
H1F C5F 1_555 1_555
H2F C2F 1_555 1_555
H3F C4F 1_555 1_555
H4F C3F 1_555 1_555
H5F O3F 1_555 1_555
C5 C6 1_555 1_555
Na2D O1D 1_555 1_555
C4F C6F 1_555 1_555
C5F C6F 1_555 1_555

#END
