
#######################################################################
#
#                 Cambridge Crystallographic Data Centre
#                                CCDC 
#
#######################################################################
#
# If this CIF has been generated from an entry in the Cambridge 
# Structural Database, then it will include bibliographic, chemical, 
# crystal, experimental, refinement or atomic coordinate data resulting 
# from the CCDC's data processing and validation procedures.
#
#######################################################################

data_WAQBAS
_symmetry_cell_setting           orthorhombic
_symmetry_space_group_name_H-M   'P 21 21 21'
_symmetry_Int_Tables_number      19
_space_group_name_Hall           'P 2ac 2ab'
loop_
_symmetry_equiv_pos_site_id
_symmetry_equiv_pos_as_xyz
1 x,y,z
2 1/2-x,-y,1/2+z
3 -x,1/2+y,1/2-z
4 1/2+x,1/2-y,-z
_cell_length_a                   12.1401(2)
_cell_length_b                   15.87220(10)
_cell_length_c                   39.9533(5)
_cell_angle_alpha                90
_cell_angle_beta                 90
_cell_angle_gamma                90
_cell_volume                     7698.61
loop_
_atom_site_label
_atom_site_type_symbol
_atom_site_fract_x
_atom_site_fract_y
_atom_site_fract_z
As1 As 0.65805(11) 0.41922(9) 0.21337(3)
As2 As 1.17786(11) 0.35587(9) 0.10075(4)
As3 As 0.55438(12) 0.26795(9) 0.05667(4)
As4 As 0.76504(11) 0.23945(9) 0.19291(4)
As5 As 0.44928(12) 0.44765(9) 0.07839(4)
As6 As 0.86951(12) 0.70227(9) 0.06503(4)
As7 As 0.98170(12) 0.68895(9) 0.13860(4)
As8 As 1.06767(13) 0.36854(9) 0.02742(4)
V1 V 0.94333(19) 0.41351(14) 0.20088(5)
V2 V 0.56005(18) 0.51844(14) 0.14781(5)
V3 V 0.56671(18) 0.32471(13) 0.13995(5)
V4 V 0.81842(19) 0.57668(14) 0.18962(6)
V5 V 1.07812(18) 0.49712(14) 0.15285(6)
V6 V 0.95617(18) 0.21978(14) 0.08255(6)
V7 V 0.74329(18) 0.20020(14) 0.11192(6)
V8 V 0.8822(2) 0.52275(16) 0.02351(6)
V9 V 1.00441(18) 0.26913(14) 0.15411(6)
V10 V 1.06319(19) 0.54531(14) 0.07774(6)
V11 V 0.8101(2) 0.29532(16) 0.02881(6)
V12 V 0.6661(2) 0.45046(15) 0.02058(6)
V13 V 0.69698(18) 0.66506(14) 0.13298(6)
V14 V 0.62529(19) 0.60508(15) 0.06399(6)
Co1 Co 1.06379(15) 0.00960(11) 0.06444(4)
Co2 Co 0.32292(15) 0.56687(11) 0.19907(5)
O1 O 0.5574(8) 0.4918(6) 0.0544(2)
O2 O 0.9682(8) 0.3001(6) 0.0449(2)
O3 O 0.6759(8) 0.5811(6) 0.1680(2)
O4 O 0.6090(7) 0.4154(6) 0.1714(2)
O5 O 1.0131(8) 0.1308(6) 0.0730(3)
O6 O 0.7909(7) 0.4587(6) 0.2047(2)
O7 O 0.9323(8) 0.6033(6) 0.0590(2)
O8 O 0.9981(8) 0.4078(6) 0.2373(2)
O9 O 0.8854(7) 0.3021(5) 0.1863(2)
O10 O 0.5499(9) 0.6745(7) 0.0464(3)
O11 O 1.0148(8) 0.4657(6) 0.0434(2)
O12 O 0.6942(7) 0.2566(6) 0.1546(2)
O13 O 0.6905(7) 0.3114(6) 0.2191(2)
O14 O 1.0308(8) 0.5904(6) 0.1233(2)
O15 O 0.6080(7) 0.2665(6) 0.0981(2)
O16 O 0.9625(7) 0.5261(5) 0.1832(2)
O17 O 1.0659(7) 0.2854(5) 0.1086(2)
O18 O 0.8495(7) 0.6565(6) 0.1520(3)
O19 O 0.8047(7) 0.2251(6) 0.0688(2)
O20 O 0.4453(8) 0.5424(6) 0.1660(2)
O21 O 1.0469(7) 0.3837(5) 0.1661(2)
O22 O 0.7294(8) 0.5567(6) 0.0328(2)
O23 O 0.8110(8) 0.6291(6) 0.2237(3)
O24 O 0.7087(8) 0.1043(6) 0.1142(3)
O25 O 0.8169(8) 0.4139(6) 0.0167(3)
O26 O 0.5848(8) 0.5945(6) 0.1112(2)
O27 O 0.7495(8) 0.6676(6) 0.0866(2)
O28 O 0.8081(10) 0.2397(8) -0.0039(3)
O29 O 1.1752(8) 0.3543(6) 0.0565(2)
O30 O 1.1063(8) 0.4532(6) 0.1072(2)
O31 O 0.4491(8) 0.3449(6) 0.0629(2)
O32 O 0.6550(8) 0.3339(6) 0.0382(2)
O33 O 0.9487(8) 0.7368(6) 0.1001(3)
O34 O 0.5273(8) 0.4277(5) 0.1157(2)
O35 O 0.6473(8) 0.7546(6) 0.1433(3)
O36 O 0.4553(8) 0.2833(6) 0.1536(2)
O37 O 1.0822(8) 0.2020(7) 0.1720(3)
O38 O 1.1734(9) 0.5882(7) 0.0645(3)
O39 O 0.9236(9) 0.5601(8) -0.0109(3)
O40 O 0.8952(7) 0.2149(6) 0.1265(2)
O41 O 1.1067(8) 0.0437(6) 0.0157(2)
O42 O 0.1975(8) 0.5246(6) 0.1679(2)
N1 N 1.2248(9) 0.0323(7) 0.0834(3)
N2 N 1.1457(10) -0.1044(7) 0.0537(3)
N3 N 0.9940(10) -0.0306(8) 0.1110(3)
N4 N 0.9030(10) -0.0274(8) 0.0509(3)
N5 N 0.4237(10) 0.5850(7) 0.2421(3)
N6 N 0.3259(11) 0.4460(7) 0.2228(3)
N7 N 0.1939(10) 0.6196(7) 0.2272(3)
N8 N 0.3194(10) 0.6947(7) 0.1814(3)
C1 C 1.2597(14) 0.1059(11) 0.0955(5)
H1 H 1.2091 0.1496 0.0975
C2 C 1.3645(15) 0.1202(12) 0.1048(6)
H2 H 1.3844 0.1716 0.1142
C3 C 1.4422(15) 0.0578(14) 0.1002(5)
H3 H 1.5162 0.0671 0.1050
C4 C 1.4063(13) -0.0193(12) 0.0882(4)
H4 H 1.4559 -0.0637 0.0860
C5 C 1.2959(12) -0.0311(9) 0.0792(4)
C6 C 1.2527(13) -0.1082(9) 0.0642(4)
C7 C 1.3159(16) -0.1790(11) 0.0579(5)
H5 H 1.3887 -0.1808 0.0651
C8 C 1.2726(17) -0.2459(12) 0.0412(5)
H6 H 1.3142 -0.2944 0.0379
C9 C 1.1655(16) -0.2411(9) 0.0290(5)
H7 H 1.1346 -0.2843 0.0164
C10 C 1.1068(15) -0.1680(9) 0.0368(4)
H8 H 1.0344 -0.1644 0.0294
C11 C 1.0439(14) -0.0298(11) 0.1405(4)
H9 H 1.1162 -0.0105 0.1412
C12 C 0.9967(17) -0.0556(13) 0.1704(5)
H10 H 1.0342 -0.0512 0.1906
C13 C 0.893(2) -0.0876(13) 0.1687(5)
H11 H 0.8597 -0.1096 0.1878
C14 C 0.8352(16) -0.0873(11) 0.1377(5)
H12 H 0.7629 -0.1062 0.1364
C15 C 0.8895(11) -0.0582(8) 0.1099(4)
C16 C 0.8387(13) -0.0576(10) 0.0763(4)
C17 C 0.7315(14) -0.0839(14) 0.0693(6)
H13 H 0.6883 -0.1076 0.0860
C18 C 0.6900(16) -0.0746(18) 0.0373(5)
H14 H 0.6172 -0.0893 0.0329
C19 C 0.7505(17) -0.0458(13) 0.0133(5)
H15 H 0.7228 -0.0422 -0.0083
C20 C 0.8590(13) -0.0200(12) 0.0203(5)
H16 H 0.9013 0.0029 0.0032
C21 C 0.4701(13) 0.6561(11) 0.2523(4)
H17 H 0.4738 0.7001 0.2369
C22 C 0.5122(12) 0.6701(12) 0.2830(4)
H18 H 0.5457 0.7211 0.2883
C23 C 0.5043(16) 0.6088(13) 0.3053(4)
H19 H 0.5312 0.6171 0.3268
C24 C 0.4574(15) 0.5335(11) 0.2972(4)
H20 H 0.4526 0.4903 0.3128
C25 C 0.4171(12) 0.5231(10) 0.2651(4)
C26 C 0.3662(13) 0.4429(11) 0.2538(4)
C27 C 0.3564(15) 0.3729(10) 0.2735(5)
H21 H 0.3820 0.3733 0.2954
C28 C 0.3098(15) 0.3037(12) 0.2608(5)
H22 H 0.3066 0.2552 0.2738
C29 C 0.2662(12) 0.3024(11) 0.2288(6)
H23 H 0.2299 0.2552 0.2205
C30 C 0.2790(12) 0.3752(10) 0.2095(5)
H24 H 0.2554 0.3754 0.1874
C31 C 0.1271(11) 0.5779(11) 0.2470(4)
H25 H 0.1425 0.5216 0.2515
C32 C 0.0350(12) 0.6136(12) 0.2616(5)
H26 H -0.0092 0.5830 0.2761
C33 C 0.0109(12) 0.6960(12) 0.2538(4)
H27 H -0.0511 0.7216 0.2629
C34 C 0.0764(13) 0.7399(10) 0.2330(4)
H28 H 0.0591 0.7950 0.2271
C35 C 0.1715(11) 0.7008(9) 0.2203(3)
C36 C 0.2481(11) 0.7451(9) 0.1977(4)
C37 C 0.2491(15) 0.8306(10) 0.1933(5)
H29 H 0.1992 0.8646 0.2046
C38 C 0.3230(18) 0.8647(12) 0.1723(6)
H30 H 0.3251 0.9228 0.1694
C39 C 0.3963(15) 0.8138(12) 0.1549(5)
H31 H 0.4485 0.8365 0.1404
C40 C 0.3885(15) 0.7284(11) 0.1601(5)
H32 H 0.4343 0.6929 0.1478
V5_2 V 0.07812(18) 0.49712(14) 0.15285(6)
V12C V 1.1661(2) 0.04954(15) -0.02058(6)
O41C O 0.6067(8) 0.4563(6) -0.0157(2)
O42_2 O 1.1975(8) 0.5246(6) 0.1679(2)
O43 O 1.2169(12) 0.0613(10) 0.2013(5)
O44 O 0.808(2) 0.4387(15) 0.1070(6)
loop_
_geom_bond_atom_site_label_1
_geom_bond_atom_site_label_2
_geom_bond_site_symmetry_1
_geom_bond_site_symmetry_2
As1 O4 1_555 1_555
As2 O17 1_555 1_555
As3 O15 1_555 1_555
As4 O9 1_555 1_555
As5 O1 1_555 1_555
As6 O7 1_555 1_555
As7 O14 1_555 1_555
As8 O2 1_555 1_555
V1 O6 1_555 1_555
V2 O3 1_555 1_555
V3 O4 1_555 1_555
V4 O3 1_555 1_555
V5 O14 1_555 1_555
V6 O2 1_555 1_555
V7 O12 1_555 1_555
V8 O7 1_555 1_555
V9 O9 1_555 1_555
V10 O7 1_555 1_555
V11 O2 1_555 1_555
V12 O1 1_555 1_555
V13 O3 1_555 1_555
V14 O1 1_555 1_555
Co1 O5 1_555 1_555
Co2 O20 1_555 1_555
O4 V2 1_555 1_555
O5 V6 1_555 1_555
O6 As1 1_555 1_555
O8 V1 1_555 1_555
O9 V1 1_555 1_555
O10 V14 1_555 1_555
O11 As8 1_555 1_555
O12 As4 1_555 1_555
O13 As1 1_555 1_555
O14 V10 1_555 1_555
O15 V3 1_555 1_555
O16 V1 1_555 1_555
O17 V6 1_555 1_555
O18 As7 1_555 1_555
O19 V6 1_555 1_555
O20 V2 1_555 1_555
O21 V1 1_555 1_555
O22 V8 1_555 1_555
O23 V4 1_555 1_555
O24 V7 1_555 1_555
O25 V8 1_555 1_555
O26 V2 1_555 1_555
O27 As6 1_555 1_555
O28 V11 1_555 1_555
O29 As2 1_555 1_555
O30 As2 1_555 1_555
O31 As3 1_555 1_555
O32 As3 1_555 1_555
O33 As6 1_555 1_555
O34 As5 1_555 1_555
O35 V13 1_555 1_555
O36 V3 1_555 1_555
O37 V9 1_555 1_555
O38 V10 1_555 1_555
O39 V8 1_555 1_555
O40 V6 1_555 1_555
O41 Co1 1_555 1_555
O42 Co2 1_555 1_555
N1 Co1 1_555 1_555
N2 Co1 1_555 1_555
N3 Co1 1_555 1_555
N4 Co1 1_555 1_555
N5 Co2 1_555 1_555
N6 Co2 1_555 1_555
N7 Co2 1_555 1_555
N8 Co2 1_555 1_555
C1 N1 1_555 1_555
H1 C1 1_555 1_555
C2 C1 1_555 1_555
H2 C2 1_555 1_555
C3 C2 1_555 1_555
H3 C3 1_555 1_555
C4 C3 1_555 1_555
H4 C4 1_555 1_555
C5 N1 1_555 1_555
C6 N2 1_555 1_555
C7 C6 1_555 1_555
H5 C7 1_555 1_555
C8 C7 1_555 1_555
H6 C8 1_555 1_555
C9 C8 1_555 1_555
H7 C9 1_555 1_555
C10 N2 1_555 1_555
H8 C10 1_555 1_555
C11 N3 1_555 1_555
H9 C11 1_555 1_555
C12 C11 1_555 1_555
H10 C12 1_555 1_555
C13 C12 1_555 1_555
H11 C13 1_555 1_555
C14 C13 1_555 1_555
H12 C14 1_555 1_555
C15 N3 1_555 1_555
C16 N4 1_555 1_555
C17 C16 1_555 1_555
H13 C17 1_555 1_555
C18 C17 1_555 1_555
H14 C18 1_555 1_555
C19 C18 1_555 1_555
H15 C19 1_555 1_555
C20 N4 1_555 1_555
H16 C20 1_555 1_555
C21 N5 1_555 1_555
H17 C21 1_555 1_555
C22 C21 1_555 1_555
H18 C22 1_555 1_555
C23 C22 1_555 1_555
H19 C23 1_555 1_555
C24 C23 1_555 1_555
H20 C24 1_555 1_555
C25 N5 1_555 1_555
C26 N6 1_555 1_555
C27 C26 1_555 1_555
H21 C27 1_555 1_555
C28 C27 1_555 1_555
H22 C28 1_555 1_555
C29 C28 1_555 1_555
H23 C29 1_555 1_555
C30 N6 1_555 1_555
H24 C30 1_555 1_555
C31 N7 1_555 1_555
H25 C31 1_555 1_555
C32 C31 1_555 1_555
H26 C32 1_555 1_555
C33 C32 1_555 1_555
H27 C33 1_555 1_555
C34 C33 1_555 1_555
H28 C34 1_555 1_555
C35 N7 1_555 1_555
C36 N8 1_555 1_555
C37 C36 1_555 1_555
H29 C37 1_555 1_555
C38 C37 1_555 1_555
H30 C38 1_555 1_555
C39 C38 1_555 1_555
H31 C39 1_555 1_555
C40 N8 1_555 1_555
H32 C40 1_555 1_555
V5_2 O42 1_555 1_555
V12C O41 1_555 1_555
O41C V12 1_555 1_555
O42_2 V5 1_555 1_555
As4 O13 1_555 1_555
As5 O31 1_555 1_555
As7 O33 1_555 1_555
As8 O29 1_555 1_555
V2 O34 1_555 1_555
V3 O12 1_555 1_555
V3 O34 1_555 1_555
V4 O6 1_555 1_555
V4 O16 1_555 1_555
V4 O18 1_555 1_555
V5 O16 1_555 1_555
V5 O21 1_555 1_555
V5 O30 1_555 1_555
V7 O15 1_555 1_555
V7 O19 1_555 1_555
V7 O40 1_555 1_555
V8 O11 1_555 1_555
V9 O17 1_555 1_555
V9 O21 1_555 1_555
V9 O40 1_555 1_555
V10 O11 1_555 1_555
V10 O30 1_555 1_555
V11 O19 1_555 1_555
V11 O25 1_555 1_555
V11 O32 1_555 1_555
V12 O22 1_555 1_555
V12 O25 1_555 1_555
V12 O32 1_555 1_555
V13 O18 1_555 1_555
V13 O26 1_555 1_555
V13 O27 1_555 1_555
V14 O22 1_555 1_555
V14 O26 1_555 1_555
V14 O27 1_555 1_555
C4 C5 1_555 1_555
C5 C6 1_555 1_555
C9 C10 1_555 1_555
C14 C15 1_555 1_555
C15 C16 1_555 1_555
C19 C20 1_555 1_555
C24 C25 1_555 1_555
C25 C26 1_555 1_555
C29 C30 1_555 1_555
C34 C35 1_555 1_555
C35 C36 1_555 1_555
C39 C40 1_555 1_555

#END
