
#######################################################################
#
#                 Cambridge Crystallographic Data Centre
#                                CCDC 
#
#######################################################################
#
# If this CIF has been generated from an entry in the Cambridge 
# Structural Database, then it will include bibliographic, chemical, 
# crystal, experimental, refinement or atomic coordinate data resulting 
# from the CCDC's data processing and validation procedures.
#
#######################################################################

data_WAQCOI
_symmetry_cell_setting           monoclinic
_symmetry_space_group_name_H-M   'P 21/c'
_symmetry_Int_Tables_number      14
_space_group_name_Hall           '-P 2ybc'
loop_
_symmetry_equiv_pos_site_id
_symmetry_equiv_pos_as_xyz
1 x,y,z
2 -x,1/2+y,1/2-z
3 -x,-y,-z
4 x,1/2-y,1/2+z
_cell_length_a                   7.7548(16)
_cell_length_b                   21.365(4)
_cell_length_c                   8.3830(17)
_cell_angle_alpha                90
_cell_angle_beta                 100.00(3)
_cell_angle_gamma                90
_cell_volume                     1367.81
loop_
_atom_site_label
_atom_site_type_symbol
_atom_site_fract_x
_atom_site_fract_y
_atom_site_fract_z
C1 C 0.3163(2) 0.43770(9) 0.2436(2)
H1 H 0.2086 0.4379 0.1745
C2 C 0.5851(3) 0.44860(9) 0.3463(2)
H2 H 0.7028 0.4592 0.3559
C3 C 0.2189(3) 0.39446(9) 0.4947(2)
H3 H 0.1468 0.4296 0.5156
H4 H 0.2819 0.3798 0.5981
C4 C 0.1009(2) 0.34236(9) 0.4163(2)
C5 C 0.1318(3) 0.28072(9) 0.4665(2)
H5 H 0.2264 0.2712 0.5472
C6 C 0.0210(3) 0.23324(9) 0.3958(3)
H6 H 0.0428 0.1921 0.4298
C7 C -0.1228(2) 0.24645(9) 0.2742(2)
C8 C -0.1559(3) 0.30819(9) 0.2274(2)
H7 H -0.2528 0.3178 0.1493
C9 C -0.0448(3) 0.35577(9) 0.2968(2)
H8 H -0.0674 0.3969 0.2635
C10 C -0.2362(3) 0.19443(9) 0.1870(2)
H9 H -0.3152 0.2124 0.0962
H10 H -0.1612 0.1649 0.1438
C11 C -0.3328(2) 0.10001(9) 0.3255(2)
H11 H -0.2522 0.0717 0.2973
C12 C -0.5402(2) 0.14216(9) 0.4176(2)
H12 H -0.6354 0.1469 0.4704
Cu1 Cu 0.5000 0.5000 0.0000
N1 N 0.4653(2) 0.45892(7) 0.20725(18)
N2 N 0.5193(2) 0.42265(8) 0.4639(2)
N3 N 0.3459(2) 0.41598(7) 0.39561(18)
N4 N -0.3391(2) 0.16063(7) 0.28915(18)
N5 N -0.45848(19) 0.08611(7) 0.40790(18)
N6 N -0.4739(2) 0.18893(7) 0.34652(19)
N7 N 0.08768(19) 0.46717(7) -0.16871(18)
O1 O 0.08407(19) 0.41270(7) -0.11526(19)
O2 O -0.01838(19) 0.48115(7) -0.29916(17)
O3 O 0.18786(18) 0.50684(6) -0.09648(17)
C1B C 0.6837(2) 0.56230(9) -0.2436(2)
H1B H 0.7914 0.5621 -0.1745
C2B C 0.4149(3) 0.55140(9) -0.3463(2)
H2B H 0.2972 0.5408 -0.3559
C3B C 0.7811(3) 0.60554(9) -0.4947(2)
H3B H 0.8532 0.5704 -0.5156
H4B H 0.7181 0.6202 -0.5981
C4B C 0.8991(2) 0.65764(9) -0.4163(2)
C5B C 0.8682(3) 0.71928(9) -0.4665(2)
H5B H 0.7736 0.7288 -0.5472
C6B C 0.9790(3) 0.76676(9) -0.3958(3)
H6B H 0.9572 0.8079 -0.4298
C7B C 1.1228(2) 0.75355(9) -0.2742(2)
C8B C 1.1559(3) 0.69181(9) -0.2274(2)
H7B H 1.2528 0.6822 -0.1493
C9B C 1.0448(3) 0.64423(9) -0.2968(2)
H8B H 1.0674 0.6031 -0.2635
C10B C 1.2362(3) 0.80557(9) -0.1870(2)
H9B H 1.3152 0.7876 -0.0962
H10B H 1.1612 0.8351 -0.1438
C11B C 1.3328(2) 0.89999(9) -0.3255(2)
H11B H 1.2522 0.9283 -0.2973
C12B C 1.5402(2) 0.85784(9) -0.4176(2)
H12B H 1.6354 0.8531 -0.4704
Cu1A Cu -0.5000 0.0000 0.5000
Cu1A_2 Cu 1.5000 1.0000 -0.5000
N1B N 0.5347(2) 0.54108(7) -0.20725(18)
N2B N 0.4807(2) 0.57735(8) -0.4639(2)
N3B N 0.6541(2) 0.58402(7) -0.39561(18)
N4B N 1.3391(2) 0.83937(7) -0.28915(18)
N5B N 1.45848(19) 0.91389(7) -0.40790(18)
N5A N 0.45848(19) 0.58611(7) 0.09210(18)
N5C N 0.54152(19) 0.41389(7) -0.09210(18)
N6B N 1.4739(2) 0.81107(7) -0.34652(19)
N7B N 0.91232(19) 0.53283(7) 0.16871(18)
O1B O 0.91593(19) 0.58730(7) 0.11526(19)
O2B O 1.01838(19) 0.51885(7) 0.29916(17)
O3B O 0.81214(18) 0.49316(6) 0.09648(17)
loop_
_geom_bond_atom_site_label_1
_geom_bond_atom_site_label_2
_geom_bond_site_symmetry_1
_geom_bond_site_symmetry_2
C1 H1 1_555 1_555
C2 H2 1_555 1_555
C3 H3 1_555 1_555
H4 C3 1_555 1_555
C4 C3 1_555 1_555
C5 C4 1_555 1_555
H5 C5 1_555 1_555
C6 C5 1_555 1_555
H6 C6 1_555 1_555
C7 C6 1_555 1_555
C8 C7 1_555 1_555
H7 C8 1_555 1_555
C9 C4 1_555 1_555
H8 C9 1_555 1_555
C10 C7 1_555 1_555
H9 C10 1_555 1_555
H10 C10 1_555 1_555
C11 H11 1_555 1_555
C12 H12 1_555 1_555
Cu1 N1 1_555 1_555
N1 C1 1_555 1_555
N2 C2 1_555 1_555
N3 C1 1_555 1_555
N4 C10 1_555 1_555
N5 C11 1_555 1_555
N6 C12 1_555 1_555
N7 O1 1_555 1_555
O2 N7 1_555 1_555
O3 Cu1 1_555 1_555
C1B H1B 1_555 1_555
C2B H2B 1_555 1_555
C3B H3B 1_555 1_555
H4B C3B 1_555 1_555
C4B C3B 1_555 1_555
C5B C4B 1_555 1_555
H5B C5B 1_555 1_555
C6B C5B 1_555 1_555
H6B C6B 1_555 1_555
C7B C6B 1_555 1_555
C8B C7B 1_555 1_555
H7B C8B 1_555 1_555
C9B C4B 1_555 1_555
H8B C9B 1_555 1_555
C10B C7B 1_555 1_555
H9B C10B 1_555 1_555
H10B C10B 1_555 1_555
C11B H11B 1_555 1_555
C12B H12B 1_555 1_555
Cu1A N5 1_555 1_555
Cu1A_2 N5B 1_555 1_555
N1B Cu1 1_555 1_555
N2B C2B 1_555 1_555
N3B C1B 1_555 1_555
N4B C10B 1_555 1_555
N5B C11B 1_555 1_555
N5A Cu1 1_555 1_555
N5C Cu1 1_555 1_555
N6B C12B 1_555 1_555
N7B O1B 1_555 1_555
O2B N7B 1_555 1_555
O3B Cu1 1_555 1_555
C2 N1 1_555 1_555
C3 N3 1_555 1_555
C8 C9 1_555 1_555
C11 N4 1_555 1_555
C12 N5 1_555 1_555
N2 N3 1_555 1_555
N4 N6 1_555 1_555
N7 O3 1_555 1_555
C1B N1B 1_555 1_555
C2B N1B 1_555 1_555
C3B N3B 1_555 1_555
C8B C9B 1_555 1_555
C11B N4B 1_555 1_555
C12B N5B 1_555 1_555
N2B N3B 1_555 1_555
N4B N6B 1_555 1_555
N7B O3B 1_555 1_555

#END
