
#######################################################################
#
#                 Cambridge Crystallographic Data Centre
#                                CCDC 
#
#######################################################################
#
# If this CIF has been generated from an entry in the Cambridge 
# Structural Database, then it will include bibliographic, chemical, 
# crystal, experimental, refinement or atomic coordinate data resulting 
# from the CCDC's data processing and validation procedures.
#
#######################################################################

data_WAQCAS
_symmetry_cell_setting           monoclinic
_symmetry_space_group_name_H-M   'P 2/c'
_symmetry_Int_Tables_number      13
_space_group_name_Hall           '-P 2yc'
loop_
_symmetry_equiv_pos_site_id
_symmetry_equiv_pos_as_xyz
1 x,y,z
2 x,-y,1/2+z
3 -x,-y,-z
4 -x,y,1/2-z
_cell_length_a                   21.182(2)
_cell_length_b                   9.035(2)
_cell_length_c                   16.431(2)
_cell_angle_alpha                90.00
_cell_angle_beta                 121.637(10)
_cell_angle_gamma                90.00
_cell_volume                     2677.24
loop_
_atom_site_label
_atom_site_type_symbol
_atom_site_fract_x
_atom_site_fract_y
_atom_site_fract_z
Ni1 Ni -0.5000 0.5000 0.0000
O1 O 0.4107(3) -0.4086(7) 0.0079(4)
O2 O 0.3458(4) -0.5957(7) 0.0180(7)
O3 O -0.7874(5) 0.1512(11) -0.2522(8)
H1 H -0.7941(5) 0.209(14) -0.2192(64)
N1 N -0.5639(4) 0.5236(9) -0.1485(5)
H2 H -0.6114(4) 0.5435(9) -0.1656(5)
N2 N -0.4623(3) 0.7128(8) 0.0068(5)
H3 H -0.5828(3) 0.2934(8) -0.0129(5)
N3 N -0.5937(4) 0.2582(9) -0.1749(6)
C1 C -0.5320(6) 0.6602(12) -0.1666(9)
H4 H -0.4867(6) 0.6351(12) -0.1647(9)
H5 H -0.5671(6) 0.6999(12) -0.2294(9)
C2 C -0.5157(6) 0.7754(10) -0.0902(7)
H6 H -0.4386(6) 0.1965(10) 0.0941(7)
H7 H -0.5054(6) 0.1368(10) 0.1008(7)
C3 C -0.5637(6) 0.3853(10) -0.1982(7)
H8 H -0.5133(6) 0.3635(10) -0.1807(7)
H9 H -0.5928(6) 0.4016(10) -0.2667(7)
C4 C -0.6719(6) 0.2749(12) -0.2063(9)
H10 H -0.6759(6) 0.3407(12) -0.1626(9)
H11 H -0.6978(6) 0.3207(12) -0.2691(9)
C5 C -0.7088(7) 0.1305(14) -0.2111(11)
H12 H -0.6870(7) 0.0896(14) -0.1473(11)
H13 H -0.7007(7) 0.0607(14) -0.2496(11)
C6 C -0.5454(5) 0.1930(11) -0.0815(8)
H14 H -0.5655(5) 0.0984(11) -0.0781(8)
H15 H -0.4969(5) 0.1754(11) -0.0725(8)
C7 C 0.3572(5) -0.4632(10) 0.0095(7)
C8 C 0.3030(4) -0.3483(10) 0.0070(6)
C9 C 0.3009(5) -0.2065(10) -0.0234(7)
H16 H 0.3338(5) -0.1779(10) -0.0418(7)
C10 C 0.2477(4) -0.3971(11) 0.0227(6)
H17 H 0.2455(4) -0.4961(11) 0.0365(6)
Ni2 Ni 0.0000 0.0000 0.0000
O4 O 0.0898(3) -0.0897(7) -0.0069(5)
O5 O 0.1593(4) 0.0972(8) -0.0021(6)
O6 O 0.2868(4) 0.3449(11) 0.2502(6)
H18 H 0.2891(6) 0.313(14) 0.2051(26)
N4 N 0.0319(4) 0.2126(8) -0.0029(6)
H19 H 0.0773(4) 0.2058(8) 0.0040(6)
N5 N 0.0622(4) -0.0239(8) 0.1429(6)
H20 H 0.1091(4) -0.0465(8) 0.1585(6)
N6 N 0.0935(4) 0.2419(10) 0.1774(6)
C11 C 0.0434(5) 0.3023(10) 0.0836(7)
H21 H 0.0613(5) 0.3998(10) 0.0807(7)
H22 H -0.0046(5) 0.3154(10) 0.0768(7)
C12 C 0.0336(5) -0.1500(10) 0.1682(6)
H23 H -0.0113(5) -0.1225(10) 0.1666(6)
H24 H 0.0699(5) -0.1832(10) 0.2323(6)
C13 C 0.1725(4) 0.2253(12) 0.2029(6)
H25 H 0.1991(4) 0.1643(12) 0.2597(6)
H26 H 0.1730(4) 0.1746(12) 0.1513(6)
C14 C 0.2115(5) 0.3694(14) 0.2207(10)
H27 H 0.1875(5) 0.4283(14) 0.1628(10)
H28 H 0.2090(5) 0.4235(14) 0.2699(10)
C15 C -0.0174(5) 0.2712(11) -0.0981(7)
H29 H 0.0059(5) 0.3538(11) -0.1101(7)
H30 H -0.0631(5) 0.3059(11) -0.1042(7)
C16 C 0.0669(5) 0.1065(13) 0.1999(8)
H31 H 0.0181(5) 0.1257(13) 0.1896(8)
H32 H 0.0999(5) 0.0836(13) 0.2671(8)
C17 C 0.1449(5) -0.0414(12) -0.0070(7)
C18 C 0.2010(5) -0.1460(11) -0.0013(8)
C19 C 0.2519(6) -0.1072(11) -0.0270(9)
H33 H 0.2521(6) -0.0110(11) -0.0470(9)
C20 C 0.1951(6) -0.2945(12) 0.0174(8)
H34 H 0.1573(6) -0.3255(12) 0.0264(8)
O4B O -0.0898(3) 0.0897(7) 0.0069(5)
C17B C -0.1449(5) 0.0414(12) 0.0070(7)
O5B O -0.1593(4) -0.0972(8) 0.0021(6)
C18B C -0.2010(5) 0.1460(11) 0.0013(8)
C19B C -0.2519(6) 0.1072(11) 0.0270(9)
C9B C -0.3009(5) 0.2065(10) 0.0234(7)
C8B C -0.3030(4) 0.3483(10) -0.0070(6)
C7B C -0.3572(5) 0.4632(10) -0.0095(7)
O1B O -0.4107(3) 0.4086(7) -0.0079(4)
Ni1_2 Ni 0.5000 -0.5000 0.0000
O1_2 O -0.5893(3) 0.5914(7) 0.0079(4)
N1B N -0.4361(4) 0.4764(9) 0.1485(5)
H2B H -0.3886(4) 0.4565(9) 0.1656(5)
C1B C -0.4680(6) 0.3398(12) 0.1666(9)
H4B H -0.5133(6) 0.3649(12) 0.1647(9)
H5B H -0.4329(6) 0.3001(12) 0.2294(9)
C2B C -0.4843(6) 0.2246(10) 0.0902(7)
N2B N -0.5377(3) 0.2872(8) -0.0068(5)
C3B C -0.4363(6) 0.6147(10) 0.1982(7)
N3B N -0.4063(4) 0.7418(9) 0.1749(6)
C4B C -0.3281(6) 0.7251(12) 0.2063(9)
H10B H -0.3241(6) 0.6593(12) 0.1626(9)
H11B H -0.3022(6) 0.6793(12) 0.2691(9)
C5B C -0.2912(7) 0.8695(14) 0.2111(11)
O3B O -0.2126(5) 0.8488(11) 0.2522(8)
H1B H -0.2059(5) 0.791(14) 0.2192(64)
H12B H -0.3130(7) 0.9104(14) 0.1473(11)
H13B H -0.2993(7) 0.9393(14) 0.2496(11)
C6B C -0.4546(5) 0.8070(11) 0.0815(8)
H3B H -0.4172(3) 0.7066(8) 0.0129(5)
H14B H -0.4345(5) 0.9016(11) 0.0781(8)
H15B H -0.5031(5) 0.8246(11) 0.0725(8)
H8B H -0.4867(6) 0.6365(10) 0.1807(7)
H9B H -0.4072(6) 0.5984(10) 0.2667(7)
H6B H -0.5614(6) 0.8035(10) -0.0941(7)
H7B H -0.4946(6) 0.8632(10) -0.1008(7)
O2B O -0.3458(4) 0.5957(7) -0.0180(7)
C10B C -0.2477(4) 0.3971(11) -0.0227(6)
H17B H -0.2455(4) 0.4961(11) -0.0365(6)
C20B C -0.1951(6) 0.2945(12) -0.0174(8)
H34B H -0.1573(6) 0.3255(12) -0.0264(8)
H16B H -0.3338(5) 0.1779(10) 0.0418(7)
H33B H -0.2521(6) 0.0110(11) 0.0470(9)
N4B N -0.0319(4) -0.2126(8) 0.0029(6)
H19B H -0.0773(4) -0.2058(8) -0.0040(6)
C11B C -0.0434(5) -0.3023(10) -0.0836(7)
N6B N -0.0935(4) -0.2419(10) -0.1774(6)
C13B C -0.1725(4) -0.2253(12) -0.2029(6)
H25B H -0.1991(4) -0.1643(12) -0.2597(6)
H26B H -0.1730(4) -0.1746(12) -0.1513(6)
C14B C -0.2115(5) -0.3694(14) -0.2207(10)
O6B O -0.2868(4) -0.3449(11) -0.2502(6)
H18B H -0.2891(6) -0.313(14) -0.2051(26)
H27B H -0.1875(5) -0.4283(14) -0.1628(10)
H28B H -0.2090(5) -0.4235(14) -0.2699(10)
C16B C -0.0669(5) -0.1065(13) -0.1999(8)
N5B N -0.0622(4) 0.0239(8) -0.1429(6)
H20B H -0.1091(4) 0.0465(8) -0.1585(6)
C12B C -0.0336(5) 0.1500(10) -0.1682(6)
H23B H 0.0113(5) 0.1225(10) -0.1666(6)
H24B H -0.0699(5) 0.1832(10) -0.2323(6)
H31B H -0.0181(5) -0.1257(13) -0.1896(8)
H32B H -0.0999(5) -0.0836(13) -0.2671(8)
H21B H -0.0613(5) -0.3998(10) -0.0807(7)
H22B H 0.0046(5) -0.3154(10) -0.0768(7)
C15B C 0.0174(5) -0.2712(11) 0.0981(7)
H29B H -0.0059(5) -0.3538(11) 0.1101(7)
H30B H 0.0631(5) -0.3059(11) 0.1042(7)
O7 O 0.0766(7) -0.5226(12) 0.2929(9)
H35 H 0.0866(66) -0.612(13) 0.2710(87)
H36 H 0.0473(58) -0.560(13) 0.3080(82)
O8 O 0.4236(5) -1.0139(12) 0.2074(7)
H37 H 0.4090(76) -1.076(15) 0.216(10)
H38 H 0.4232(50) -0.973(11) 0.1354(69)
O9 O 0.1905(5) -0.2982(11) 0.3782(7)
H39 H 0.2487(57) -0.327(12) 0.4347(72)
H40 H 0.1600(52) -0.263(11) 0.4285(69)
O10 O 0.3062(6) -0.7986(12) 0.1183(9)
H41 H 0.2851(63) -0.883(12) 0.0992(84)
H42 H 0.3439(61) -0.746(13) 0.1441(80)
loop_
_geom_bond_atom_site_label_1
_geom_bond_atom_site_label_2
_geom_bond_site_symmetry_1
_geom_bond_site_symmetry_2
Ni1 N1 1_555 1_555
O1 C7 1_555 1_555
O2 C7 1_555 1_555
O3 H1 1_555 1_555
N1 H2 1_555 1_555
N2 Ni1 1_555 1_555
H3 N2B 1_555 1_555
N3 C3 1_555 1_555
C1 N1 1_555 1_555
H4 C1 1_555 1_555
H5 C1 1_555 1_555
C2 N2 1_555 1_555
H6 C2B 1_555 1_555
H7 C2B 1_555 1_555
C3 N1 1_555 1_555
H8 C3 1_555 1_555
H9 C3 1_555 1_555
C4 N3 1_555 1_555
H10 C4 1_555 1_555
H11 C4 1_555 1_555
C5 O3 1_555 1_555
H12 C5 1_555 1_555
H13 C5 1_555 1_555
C6 N3 1_555 1_555
H14 C6 1_555 1_555
H15 C6 1_555 1_555
C7 C8 1_555 1_555
C8 C9 1_555 1_555
C9 H16 1_555 1_555
C10 C8 1_555 1_555
H17 C10 1_555 1_555
Ni2 O4 1_555 1_555
O4 C17 1_555 1_555
O5 C17 1_555 1_555
O6 H18 1_555 1_555
N4 Ni2 1_555 1_555
H19 N4 1_555 1_555
N5 Ni2 1_555 1_555
H20 N5 1_555 1_555
N6 C11 1_555 1_555
C11 N4 1_555 1_555
H21 C11 1_555 1_555
H22 C11 1_555 1_555
C12 N5 1_555 1_555
H23 C12 1_555 1_555
H24 C12 1_555 1_555
C13 N6 1_555 1_555
H25 C13 1_555 1_555
H26 C13 1_555 1_555
C14 O6 1_555 1_555
H27 C14 1_555 1_555
H28 C14 1_555 1_555
C15 N4 1_555 1_555
H29 C15 1_555 1_555
H30 C15 1_555 1_555
C16 N5 1_555 1_555
H31 C16 1_555 1_555
H32 C16 1_555 1_555
C17 C18 1_555 1_555
C18 C19 1_555 1_555
C19 C9 1_555 1_555
H33 C19 1_555 1_555
C20 C10 1_555 1_555
H34 C20 1_555 1_555
O7 H35 1_555 1_555
H36 O7 1_555 1_555
O8 H37 1_555 1_555
H38 O8 1_555 1_555
O9 H39 1_555 1_555
H40 O9 1_555 1_555
O10 H41 1_555 1_555
H42 O10 1_555 1_555
O4B Ni2 1_555 1_555
C17B O4B 1_555 1_555
O5B C17B 1_555 1_555
C18B C17B 1_555 1_555
C19B C18B 1_555 1_555
C9B C19B 1_555 1_555
C8B C9B 1_555 1_555
C7B C8B 1_555 1_555
O1B Ni1 1_555 1_555
Ni1_2 O1 1_555 1_555
O1_2 Ni1 1_555 1_555
N1B Ni1 1_555 1_555
H2B N1B 1_555 1_555
C1B N1B 1_555 1_555
H4B C1B 1_555 1_555
H5B C1B 1_555 1_555
C2B C1B 1_555 1_555
N2B Ni1 1_555 1_555
C3B N1B 1_555 1_555
N3B C3B 1_555 1_555
C4B N3B 1_555 1_555
H10B C4B 1_555 1_555
H11B C4B 1_555 1_555
C5B C4B 1_555 1_555
O3B C5B 1_555 1_555
H1B O3B 1_555 1_555
H12B C5B 1_555 1_555
H13B C5B 1_555 1_555
C6B N2 1_555 1_555
H3B N2 1_555 1_555
H14B C6B 1_555 1_555
H15B C6B 1_555 1_555
H8B C3B 1_555 1_555
H9B C3B 1_555 1_555
H6B C2 1_555 1_555
H7B C2 1_555 1_555
O2B C7B 1_555 1_555
C10B C8B 1_555 1_555
H17B C10B 1_555 1_555
C20B C18B 1_555 1_555
H34B C20B 1_555 1_555
H16B C9B 1_555 1_555
H33B C19B 1_555 1_555
N4B Ni2 1_555 1_555
H19B N4B 1_555 1_555
C11B N4B 1_555 1_555
N6B C11B 1_555 1_555
C13B N6B 1_555 1_555
H25B C13B 1_555 1_555
H26B C13B 1_555 1_555
C14B C13B 1_555 1_555
O6B C14B 1_555 1_555
H18B O6B 1_555 1_555
H27B C14B 1_555 1_555
H28B C14B 1_555 1_555
C16B N6B 1_555 1_555
N5B Ni2 1_555 1_555
H20B N5B 1_555 1_555
C12B C15 1_555 1_555
H23B C12B 1_555 1_555
H24B C12B 1_555 1_555
H31B C16B 1_555 1_555
H32B C16B 1_555 1_555
H21B C11B 1_555 1_555
H22B C11B 1_555 1_555
C15B C12 1_555 1_555
H29B C15B 1_555 1_555
H30B C15B 1_555 1_555
C1 C2 1_555 1_555
C4 C5 1_555 1_555
C6 N2B 1_555 1_555
N6 C16 1_555 1_555
C13 C14 1_555 1_555
C18 C20 1_555 1_555
C7B O1B 1_555 1_555
C2B N2B 1_555 1_555
N3B C6B 1_555 1_555
C10B C20B 1_555 1_555
N4B C15B 1_555 1_555
C16B N5B 1_555 1_555
N5B C12B 1_555 1_555

#END
