
#######################################################################
#
#                 Cambridge Crystallographic Data Centre
#                                CCDC 
#
#######################################################################
#
# If this CIF has been generated from an entry in the Cambridge 
# Structural Database, then it will include bibliographic, chemical, 
# crystal, experimental, refinement or atomic coordinate data resulting 
# from the CCDC's data processing and validation procedures.
#
#######################################################################

data_WAQCAU
_symmetry_cell_setting           tetragonal
_symmetry_space_group_name_H-M   'I 41/a'
_symmetry_Int_Tables_number      88
_space_group_name_Hall           '-I 4ad'
loop_
_symmetry_equiv_pos_site_id
_symmetry_equiv_pos_as_xyz
1 x,y,z
2 3/4-y,1/4+x,1/4+z
3 1/2-x,-y,1/2+z
4 3/4+y,3/4-x,3/4+z
5 1/2+x,1/2+y,1/2+z
6 1/4-y,3/4+x,3/4+z
7 -x,1/2-y,z
8 1/4+y,1/4-x,1/4+z
9 -x,-y,-z
10 1/4+y,3/4-x,3/4-z
11 1/2+x,y,1/2-z
12 1/4-y,1/4+x,1/4-z
13 1/2-x,1/2-y,1/2-z
14 3/4+y,1/4-x,1/4-z
15 x,1/2+y,-z
16 3/4-y,3/4+x,3/4-z
_cell_length_a                   19.768(3)
_cell_length_b                   19.768(3)
_cell_length_c                   15.590(3)
_cell_angle_alpha                90
_cell_angle_beta                 90
_cell_angle_gamma                90
_cell_volume                     6092.16
loop_
_atom_site_label
_atom_site_type_symbol
_atom_site_fract_x
_atom_site_fract_y
_atom_site_fract_z
C1 C 0.7324(3) 0.3305(3) 0.9149(3)
H1 H 0.6983 0.3013 0.9326
C2 C 0.8108(3) 0.3730(3) 0.8401(3)
H2 H 0.8426 0.3812 0.7974
C3 C 0.8381(3) 0.4725(3) 0.9369(3)
H3 H 0.8052 0.5061 0.9546
H4 H 0.8624 0.4905 0.8879
C4 C 0.8883(3) 0.4603(3) 1.0106(3)
C5 C 0.9091(3) 0.3957(3) 1.0340(4)
H5 H 0.8928 0.3585 1.0040
C6 C 0.9535(3) 0.3860(3) 1.1013(4)
H6 H 0.9670 0.3425 1.1159
C7 C 0.9781(3) 0.4410(4) 1.1474(5)
H7 H 1.0069 0.4346 1.1939
C8 C 0.9592(3) 0.5051(3) 1.1229(4)
H8 H 0.9764 0.5420 1.1529
C9 C 0.9152(3) 0.5166(3) 1.0551(3)
C10 C 0.8978(3) 0.5889(3) 1.0291(4)
H9 H 0.9372 0.6174 1.0378
H10 H 0.8868 0.5897 0.9684
C11 C 0.8391(3) 0.6691(3) 1.1318(4)
H11 H 0.8765 0.6955 1.1458
C12 C 0.7415(3) 0.6304(3) 1.1224(5)
H12 H 0.6951 0.6255 1.1300
Cu1 Cu 0.7500 0.2500 0.7500
N1 N 0.7519(2) 0.3838(2) 0.9606(3)
N2 N 0.7667(2) 0.3222(2) 0.8400(3)
N3 N 0.8025(2) 0.4109(2) 0.9110(3)
N4 N 0.8405(2) 0.6169(2) 1.0780(3)
N5 N 0.7776(2) 0.6783(2) 1.1629(3)
N6 N 0.7771(3) 0.5907(3) 1.0709(4)
O1 O 0.62034(15) 0.23805(19) 0.8077(2)
C1L C 0.7676(3) 0.1695(3) 0.5851(3)
H1L H 0.8017 0.1987 0.5674
C2L C 0.6892(3) 0.1270(3) 0.6599(3)
H2L H 0.6574 0.1188 0.7026
C3L C 0.6619(3) 0.0275(3) 0.5631(3)
H3L H 0.6948 -0.0061 0.5454
H4L H 0.6376 0.0095 0.6121
C4L C 0.6117(3) 0.0397(3) 0.4894(3)
C5L C 0.5909(3) 0.1043(3) 0.4660(4)
H5L H 0.6072 0.1415 0.4960
C6L C 0.5465(3) 0.1140(3) 0.3987(4)
H6L H 0.5330 0.1575 0.3841
C7L C 0.5219(3) 0.0590(4) 0.3526(5)
H7L H 0.4931 0.0654 0.3061
C8L C 0.5408(3) -0.0051(3) 0.3771(4)
H8L H 0.5236 -0.0420 0.3471
C9L C 0.5848(3) -0.0166(3) 0.4449(3)
C10L C 0.6022(3) -0.0889(3) 0.4709(4)
H9L H 0.5628 -0.1174 0.4622
H10L H 0.6132 -0.0897 0.5316
C11L C 0.6609(3) -0.1691(3) 0.3682(4)
H11L H 0.6235 -0.1955 0.3542
C12L C 0.7585(3) -0.1304(3) 0.3776(5)
H12L H 0.8049 -0.1255 0.3700
Cu1B Cu 0.7500 0.7500 1.2500
Cu1B_2 Cu 0.7500 -0.2500 0.2500
N1L N 0.7481(2) 0.1162(2) 0.5394(3)
N2L N 0.7333(2) 0.1778(2) 0.6600(3)
N3L N 0.6975(2) 0.0891(2) 0.5890(3)
N4L N 0.6595(2) -0.1169(2) 0.4220(3)
N5L N 0.7224(2) -0.1783(2) 0.3371(3)
N5B N 0.7224(2) 0.3217(2) 0.6629(3)
N5N N 0.7776(2) 0.1783(2) 0.8371(3)
N6L N 0.7229(3) -0.0907(3) 0.4291(4)
O1L O 0.87966(15) 0.26195(19) 0.6923(2)
Cl1 Cl 0.0000 0.7500 0.06400(19)
Cl2 Cl 0.5948(4) 0.2691(5) 1.0272(6)
loop_
_geom_bond_atom_site_label_1
_geom_bond_atom_site_label_2
_geom_bond_site_symmetry_1
_geom_bond_site_symmetry_2
C1 H1 1_555 1_555
C2 H2 1_555 1_555
C3 H3 1_555 1_555
H4 C3 1_555 1_555
C4 C3 1_555 1_555
C5 C4 1_555 1_555
H5 C5 1_555 1_555
C6 C5 1_555 1_555
H6 C6 1_555 1_555
C7 C6 1_555 1_555
H7 C7 1_555 1_555
C8 C7 1_555 1_555
H8 C8 1_555 1_555
C9 C4 1_555 1_555
C10 C9 1_555 1_555
H9 C10 1_555 1_555
H10 C10 1_555 1_555
C11 H11 1_555 1_555
C12 H12 1_555 1_555
Cu1 N2 1_555 1_555
N1 C1 1_555 1_555
N2 C1 1_555 1_555
N3 C2 1_555 1_555
N4 C10 1_555 1_555
N5 C11 1_555 1_555
N6 C12 1_555 1_555
O1 Cu1 1_555 1_555
C1L H1L 1_555 1_555
C2L H2L 1_555 1_555
C3L H3L 1_555 1_555
H4L C3L 1_555 1_555
C4L C3L 1_555 1_555
C5L C4L 1_555 1_555
H5L C5L 1_555 1_555
C6L C5L 1_555 1_555
H6L C6L 1_555 1_555
C7L C6L 1_555 1_555
H7L C7L 1_555 1_555
C8L C7L 1_555 1_555
H8L C8L 1_555 1_555
C9L C4L 1_555 1_555
C10L C9L 1_555 1_555
H9L C10L 1_555 1_555
H10L C10L 1_555 1_555
C11L H11L 1_555 1_555
C12L H12L 1_555 1_555
Cu1B N5 1_555 1_555
Cu1B_2 N5L 1_555 1_555
N1L C1L 1_555 1_555
N2L Cu1 1_555 1_555
N3L C2L 1_555 1_555
N4L C10L 1_555 1_555
N5L C11L 1_555 1_555
N5B Cu1 1_555 1_555
N5N Cu1 1_555 1_555
N6L C12L 1_555 1_555
O1L Cu1 1_555 1_555
C2 N2 1_555 1_555
C3 N3 1_555 1_555
C8 C9 1_555 1_555
C11 N4 1_555 1_555
C12 N5 1_555 1_555
N1 N3 1_555 1_555
N4 N6 1_555 1_555
C1L N2L 1_555 1_555
C2L N2L 1_555 1_555
C3L N3L 1_555 1_555
C8L C9L 1_555 1_555
C11L N4L 1_555 1_555
C12L N5L 1_555 1_555
N1L N3L 1_555 1_555
N4L N6L 1_555 1_555

#END
