
#######################################################################
#
#                 Cambridge Crystallographic Data Centre
#                                CCDC 
#
#######################################################################
#
# If this CIF has been generated from an entry in the Cambridge 
# Structural Database, then it will include bibliographic, chemical, 
# crystal, experimental, refinement or atomic coordinate data resulting 
# from the CCDC's data processing and validation procedures.
#
#######################################################################

data_WAQPEK
_symmetry_cell_setting           triclinic
_symmetry_space_group_name_H-M   'P -1'
_symmetry_Int_Tables_number      2
_space_group_name_Hall           '-P 1'
loop_
_symmetry_equiv_pos_site_id
_symmetry_equiv_pos_as_xyz
1 x,y,z
2 -x,-y,-z
_cell_length_a                   7.6210(4)
_cell_length_b                   10.4049(6)
_cell_length_c                   13.1550(8)
_cell_angle_alpha                68.0030(10)
_cell_angle_beta                 85.6420(10)
_cell_angle_gamma                78.6510(10)
_cell_volume                     948.284
loop_
_atom_site_label
_atom_site_type_symbol
_atom_site_fract_x
_atom_site_fract_y
_atom_site_fract_z
Cu1 Cu 0.76994(3) 0.77409(3) 0.72318(2)
N1 N 0.6878(2) 0.69287(19) 0.62238(15)
N2 N 0.8478(2) 0.84690(19) 0.83112(15)
O1 O 0.7444(2) 0.96274(16) 0.60200(13)
O2 O 0.4596(2) 0.8269(2) 0.78229(17)
O3 O 0.7890(2) 0.58623(17) 0.84677(14)
O4 O 1.0681(2) 0.7348(2) 0.65960(15)
C1 C 0.5223(3) 0.7370(2) 0.58109(19)
H1 H 0.4559 0.8200 0.5853
C2 C 0.4455(3) 0.6652(2) 0.53262(19)
H2 H 0.3294 0.6997 0.5056
C3 C 0.5403(3) 0.5416(2) 0.52382(17)
C4 C 0.7162(3) 0.4999(3) 0.5620(2)
H3 H 0.7876 0.4199 0.5554
C5 C 0.7836(3) 0.5774(3) 0.6093(2)
H4 H 0.9016 0.5482 0.6335
C6 C 0.7429(3) 0.9493(3) 0.8567(2)
H5 H 0.6273 0.9807 0.8286
C7 C 0.7960(3) 1.0106(3) 0.9222(2)
H6 H 0.7173 1.0821 0.9369
C8 C 0.9677(3) 0.9662(2) 0.96678(17)
C9 C 1.0730(3) 0.8545(3) 0.9441(2)
H7 H 1.1869 0.8175 0.9742
C10 C 1.0098(3) 0.7985(3) 0.8777(2)
H8 H 1.0829 0.7236 0.8645
H13 H 0.804(3) 1.017(3) 0.612(2)
H14 H 0.766(4) 0.963(3) 0.5384(12)
H15 H 0.380(3) 0.881(3) 0.737(2)
H16 H 0.427(4) 0.7478(17) 0.808(2)
H17 H 0.737(4) 0.524(2) 0.844(3)
H18 H 0.755(4) 0.598(3) 0.9056(15)
H19 H 1.143(3) 0.679(3) 0.7075(19)
H20 H 1.101(4) 0.8136(18) 0.637(2)
Cu1A Cu 0.23006(3) 0.22591(3) 0.27682(2)
Cu1A_2 Cu 1.23006(3) 1.22591(3) 1.27682(2)
N1A N 0.3122(2) 0.30713(19) 0.37762(15)
N2A N 1.1522(2) 1.15310(19) 1.16888(15)
N2A_2 N 0.1522(2) 0.15310(19) 0.16888(15)
O1A O 0.2556(2) 0.03726(16) 0.39800(13)
O2A O 0.5404(2) 0.1731(2) 0.21771(17)
O3A O 0.2110(2) 0.41377(17) 0.15323(14)
O4A O -0.0681(2) 0.2652(2) 0.34040(15)
C1A C 0.4777(3) 0.2630(2) 0.41891(19)
H1A H 0.5441 0.1800 0.4147
C2A C 0.5545(3) 0.3348(2) 0.46738(19)
H2A H 0.6706 0.3003 0.4944
C3A C 0.4597(3) 0.4584(2) 0.47618(17)
C4A C 0.2838(3) 0.5001(3) 0.4380(2)
H3A H 0.2124 0.5801 0.4446
C5A C 0.2164(3) 0.4226(3) 0.3907(2)
H4A H 0.0984 0.4518 0.3665
C6A C 1.2571(3) 1.0507(3) 1.1433(2)
H5A H 1.3727 1.0193 1.1714
C7A C 1.2040(3) 0.9894(3) 1.0778(2)
H6A H 1.2827 0.9179 1.0631
C8A C 1.0323(3) 1.0338(2) 1.03322(17)
C9A C 0.9270(3) 1.1455(3) 1.0559(2)
H7A H 0.8131 1.1825 1.0258
C10A C 0.9902(3) 1.2015(3) 1.1223(2)
H8A H 0.9171 1.2764 1.1355
H13A H 0.196(3) -0.017(3) 0.388(2)
H14A H 0.234(4) 0.037(3) 0.4616(12)
H15A H 0.620(3) 0.119(3) 0.263(2)
H16A H 0.573(4) 0.2522(17) 0.192(2)
H17A H 0.263(4) 0.476(2) 0.156(3)
H18A H 0.245(4) 0.402(3) 0.0944(15)
H19A H -0.143(3) 0.321(3) 0.2925(19)
H20A H -0.101(4) 0.1864(18) 0.363(2)
S1 S 0.58731(8) 0.58494(6) 0.13375(5)
O5 O 1.0813(2) 0.86271(18) 0.37104(16)
O6 O 0.8142(2) 0.99364(18) 0.38042(14)
O7 O 0.6628(2) 0.43680(18) 0.18504(17)
O8 O 0.6368(4) 0.6452(3) 0.02050(16)
O9 O 0.3953(2) 0.6121(2) 0.15093(19)
C11 C 0.9161(3) 0.8972(2) 0.35564(18)
C12 C 0.8321(3) 0.8185(2) 0.30192(18)
C13 C 0.6482(3) 0.8250(2) 0.30432(18)
H9 H 0.5752 0.8790 0.3391
C14 C 0.5724(3) 0.7521(2) 0.25545(18)
H10 H 0.4493 0.7553 0.2588
C15 C 0.6805(3) 0.6743(2) 0.20165(18)
C16 C 0.8653(3) 0.6675(2) 0.1975(2)
H11 H 0.9377 0.6158 0.1608
C17 C 0.9393(3) 0.7382(2) 0.2484(2)
H12 H 1.0628 0.7324 0.2470
loop_
_geom_bond_atom_site_label_1
_geom_bond_atom_site_label_2
_geom_bond_site_symmetry_1
_geom_bond_site_symmetry_2
Cu1 N1 1_555 1_555
S1 O7 1_555 1_555
N1 C1 1_555 1_555
N2 Cu1 1_555 1_555
O1 Cu1 1_555 1_555
O2 Cu1 1_555 1_555
O3 Cu1 1_555 1_555
O4 Cu1 1_555 1_555
O5 C11 1_555 1_555
O6 C11 1_555 1_555
O8 S1 1_555 1_555
O9 S1 1_555 1_555
C1 H1 1_555 1_555
C2 C1 1_555 1_555
H2 C2 1_555 1_555
C3 C2 1_555 1_555
C4 C3 1_555 1_555
H3 C4 1_555 1_555
C5 N1 1_555 1_555
H4 C5 1_555 1_555
C6 N2 1_555 1_555
H5 C6 1_555 1_555
C7 C6 1_555 1_555
H6 C7 1_555 1_555
C8 C7 1_555 1_555
C9 C8 1_555 1_555
H7 C9 1_555 1_555
C10 N2 1_555 1_555
H8 C10 1_555 1_555
C11 C12 1_555 1_555
C12 C13 1_555 1_555
C13 H9 1_555 1_555
C14 C13 1_555 1_555
H10 C14 1_555 1_555
C15 S1 1_555 1_555
C16 C15 1_555 1_555
H11 C16 1_555 1_555
C17 C12 1_555 1_555
H12 C17 1_555 1_555
H13 O1 1_555 1_555
H14 O1 1_555 1_555
H15 O2 1_555 1_555
H16 O2 1_555 1_555
H17 O3 1_555 1_555
H18 O3 1_555 1_555
H19 O4 1_555 1_555
H20 O4 1_555 1_555
Cu1A N1A 1_555 1_555
Cu1A_2 N2A 1_555 1_555
N1A C1A 1_555 1_555
N2A C6A 1_555 1_555
N2A_2 Cu1A 1_555 1_555
O1A Cu1A 1_555 1_555
O2A Cu1A 1_555 1_555
O3A Cu1A 1_555 1_555
O4A Cu1A 1_555 1_555
C1A H1A 1_555 1_555
C2A C1A 1_555 1_555
H2A C2A 1_555 1_555
C3A C3 1_555 1_555
C4A C3A 1_555 1_555
H3A C4A 1_555 1_555
C5A N1A 1_555 1_555
H4A C5A 1_555 1_555
C6A H5A 1_555 1_555
C7A C6A 1_555 1_555
H6A C7A 1_555 1_555
C8A C8 1_555 1_555
C9A C8A 1_555 1_555
H7A C9A 1_555 1_555
C10A N2A 1_555 1_555
H8A C10A 1_555 1_555
H13A O1A 1_555 1_555
H14A O1A 1_555 1_555
H15A O2A 1_555 1_555
H16A O2A 1_555 1_555
H17A O3A 1_555 1_555
H18A O3A 1_555 1_555
H19A O4A 1_555 1_555
H20A O4A 1_555 1_555
C4 C5 1_555 1_555
C9 C10 1_555 1_555
C14 C15 1_555 1_555
C16 C17 1_555 1_555
C2A C3A 1_555 1_555
C4A C5A 1_555 1_555
C7A C8A 1_555 1_555
C9A C10A 1_555 1_555

#END
