
#######################################################################
#
#                 Cambridge Crystallographic Data Centre
#                                CCDC 
#
#######################################################################
#
# If this CIF has been generated from an entry in the Cambridge 
# Structural Database, then it will include bibliographic, chemical, 
# crystal, experimental, refinement or atomic coordinate data resulting 
# from the CCDC's data processing and validation procedures.
#
#######################################################################

data_WAQREM01
_symmetry_cell_setting           orthorhombic
_symmetry_space_group_name_H-M   'P b c n'
_symmetry_Int_Tables_number      60
_space_group_name_Hall           '-P 2n 2ab'
loop_
_symmetry_equiv_pos_site_id
_symmetry_equiv_pos_as_xyz
1 x,y,z
2 1/2-x,1/2-y,1/2+z
3 -x,y,1/2-z
4 1/2+x,1/2-y,-z
5 -x,-y,-z
6 1/2+x,1/2+y,1/2-z
7 x,-y,1/2+z
8 1/2-x,1/2+y,z
_cell_length_a                   10.190(6)
_cell_length_b                   14.035(7)
_cell_length_c                   25.64(6)
_cell_angle_alpha                90
_cell_angle_beta                 90
_cell_angle_gamma                90
_cell_volume                     3666.95
loop_
_atom_site_label
_atom_site_type_symbol
_atom_site_fract_x
_atom_site_fract_y
_atom_site_fract_z
Zn1 Zn 0.0000 0.70658(5) 0.2500
Zn2 Zn 0.0000 0.97369(5) 0.2500
N1 N 0.1536(4) 0.6243(3) 0.23710(15)
N2 N 0.0293(4) 0.8864(3) 0.31123(16)
N3 N 0.0314(4) 0.7918(3) 0.31083(16)
N4 N 0.0677(4) 0.7599(3) 0.35725(16)
N5 N 0.0641(4) 0.9178(3) 0.35835(17)
C1 C 0.0879(5) 0.8381(4) 0.3860(2)
N6 N 0.1351(4) 0.5439(3) 0.20760(16)
C2 C 0.1328(6) 0.8381(4) 0.4404(2)
C3 C 0.3381(4) 0.6917(3) 0.28939(19)
C4 C 0.2768(4) 0.6204(3) 0.25485(19)
C5 C 0.3905(5) 0.6650(4) 0.3368(2)
D1 D 0.3929 0.6009 0.3460
C6 C 0.3377(5) 0.7874(3) 0.2758(2)
D2 D 0.3038 0.8063 0.2438
C7 C 0.4380(6) 0.8286(4) 0.3575(2)
C8 C 0.1754(7) 0.7554(5) 0.4629(2)
D3 D 0.1727 0.6988 0.4441
C9 C 0.2245(7) 0.8384(8) 0.5424(3)
C10 C 0.3873(5) 0.8544(4) 0.3096(2)
D4 D 0.3867 0.9183 0.3000
C11 C 0.4397(6) 0.7331(4) 0.3707(2)
D5 D 0.4741 0.7144 0.4027
C12 C 0.2232(8) 0.7554(7) 0.5142(3)
D6 D 0.2539 0.6993 0.5291
C13 C 0.1356(7) 0.9209(5) 0.4693(3)
D7 D 0.1066 0.9777 0.4545
C14 C 0.2759(8) 0.8372(7) 0.5987(3)
D8 D 0.2701 0.9001 0.6132
D9 D 0.3657 0.8166 0.5989
D10 D 0.2239 0.7941 0.6192
C15 C 0.1815(8) 0.9199(7) 0.5201(3)
D11 D 0.1827 0.9762 0.5393
C16 C 0.4885(7) 0.9033(5) 0.3951(3)
D12 D 0.4798 0.9653 0.3796
D13 D 0.5792 0.8911 0.4027
D14 D 0.4384 0.9008 0.4268
N7 N 0.2417(4) 0.4945(3) 0.20832(15)
N8 N 0.3328(4) 0.5409(3) 0.23781(15)
Zn1E Zn -0.5000 1.20658(5) 0.2500
Zn2E Zn 0.5000 0.47369(5) 0.2500
N1B N -0.1536(4) 0.6243(3) 0.26290(15)
N1E N -0.3464(4) 1.1243(3) 0.26290(15)
N2B N -0.0293(4) 0.8864(3) 0.18877(16)
N3B N -0.0314(4) 0.7918(3) 0.18917(16)
N4B N -0.0677(4) 0.7599(3) 0.14275(16)
N5B N -0.0641(4) 0.9178(3) 0.14165(17)
C1B C -0.0879(5) 0.8381(4) 0.1140(2)
N6E N -0.3649(4) 1.0439(3) 0.29240(16)
C2B C -0.1328(6) 0.8381(4) 0.0596(2)
C3E C -0.1619(4) 1.1917(3) 0.21061(19)
C4E C -0.2232(4) 1.1204(3) 0.24515(19)
C5E C -0.1095(5) 1.1650(4) 0.1632(2)
D1E D -0.1071 1.1009 0.1540
C6E C -0.1623(5) 1.2874(3) 0.2242(2)
D2E D -0.1962 1.3063 0.2562
C7E C -0.0620(6) 1.3286(4) 0.1425(2)
C8B C -0.1754(7) 0.7554(5) 0.0371(2)
D3B D -0.1727 0.6988 0.0559
C9B C -0.2245(7) 0.8384(8) -0.0424(3)
C10E C -0.1127(5) 1.3544(4) 0.1904(2)
D4E D -0.1133 1.4183 0.2000
C11E C -0.0603(6) 1.2331(4) 0.1293(2)
D5E D -0.0259 1.2144 0.0973
C12B C -0.2232(8) 0.7554(7) -0.0142(3)
D6B D -0.2539 0.6993 -0.0291
C13B C -0.1356(7) 0.9209(5) 0.0307(3)
D7B D -0.1066 0.9777 0.0455
C14B C -0.2759(8) 0.8372(7) -0.0987(3)
D8B D -0.2701 0.9001 -0.1132
D9B D -0.3657 0.8166 -0.0989
D10B D -0.2239 0.7941 -0.1192
C15B C -0.1815(8) 0.9199(7) -0.0201(3)
D11B D -0.1827 0.9762 -0.0393
C16E C -0.0115(7) 1.4033(5) 0.1049(3)
D12E D -0.0202 1.4653 0.1204
D13E D 0.0792 1.3911 0.0973
D14E D -0.0616 1.4008 0.0732
N7E N -0.2583(4) 0.9945(3) 0.29168(15)
N8E N -0.1672(4) 1.0409(3) 0.26219(15)
N8G N 0.1672(4) 1.0409(3) 0.23781(15)
loop_
_geom_bond_atom_site_label_1
_geom_bond_atom_site_label_2
_geom_bond_site_symmetry_1
_geom_bond_site_symmetry_2
Zn1 N1 1_555 1_555
Zn2 N2 1_555 1_555
N1 N6 1_555 1_555
N2 N3 1_555 1_555
N3 Zn1 1_555 1_555
N4 N3 1_555 1_555
N5 N2 1_555 1_555
C1 N4 1_555 1_555
N6 N7 1_555 1_555
C2 C1 1_555 1_555
C3 C4 1_555 1_555
C4 N1 1_555 1_555
C5 C3 1_555 1_555
D1 C5 1_555 1_555
C6 C3 1_555 1_555
D2 C6 1_555 1_555
C7 C10 1_555 1_555
C8 C2 1_555 1_555
D3 C8 1_555 1_555
C9 C12 1_555 1_555
C10 C6 1_555 1_555
D4 C10 1_555 1_555
C11 C5 1_555 1_555
D5 C11 1_555 1_555
C12 C8 1_555 1_555
D6 C12 1_555 1_555
C13 C2 1_555 1_555
D7 C13 1_555 1_555
C14 C9 1_555 1_555
D8 C14 1_555 1_555
D9 C14 1_555 1_555
D10 C14 1_555 1_555
C15 C9 1_555 1_555
D11 C15 1_555 1_555
C16 C7 1_555 1_555
D12 C16 1_555 1_555
D13 C16 1_555 1_555
D14 C16 1_555 1_555
N7 N8 1_555 1_555
N8 C4 1_555 1_555
Zn1E N1E 1_555 1_555
Zn2E N8 1_555 1_555
N1B Zn1 1_555 1_555
N1E N6E 1_555 1_555
N2B Zn2 1_555 1_555
N3B Zn1 1_555 1_555
N4B N3B 1_555 1_555
N5B N2B 1_555 1_555
C1B N4B 1_555 1_555
N6E N7E 1_555 1_555
C2B C1B 1_555 1_555
C3E C4E 1_555 1_555
C4E N1E 1_555 1_555
C5E C3E 1_555 1_555
D1E C5E 1_555 1_555
C6E C3E 1_555 1_555
D2E C6E 1_555 1_555
C7E C10E 1_555 1_555
C8B C2B 1_555 1_555
D3B C8B 1_555 1_555
C9B C12B 1_555 1_555
C10E C6E 1_555 1_555
D4E C10E 1_555 1_555
C11E C5E 1_555 1_555
D5E C11E 1_555 1_555
C12B C8B 1_555 1_555
D6B C12B 1_555 1_555
C13B C2B 1_555 1_555
D7B C13B 1_555 1_555
C14B C9B 1_555 1_555
D8B C14B 1_555 1_555
D9B C14B 1_555 1_555
D10B C14B 1_555 1_555
C15B C9B 1_555 1_555
D11B C15B 1_555 1_555
C16E C7E 1_555 1_555
D12E C16E 1_555 1_555
D13E C16E 1_555 1_555
D14E C16E 1_555 1_555
N7E N8E 1_555 1_555
N8E Zn2 1_555 1_555
N8G Zn2 1_555 1_555
N5 C1 1_555 1_555
C7 C11 1_555 1_555
C13 C15 1_555 1_555
N2B N3B 1_555 1_555
N5B C1B 1_555 1_555
C4E N8E 1_555 1_555
C7E C11E 1_555 1_555
C13B C15B 1_555 1_555

#END
