
#######################################################################
#
#                 Cambridge Crystallographic Data Centre
#                                CCDC 
#
#######################################################################
#
# If this CIF has been generated from an entry in the Cambridge 
# Structural Database, then it will include bibliographic, chemical, 
# crystal, experimental, refinement or atomic coordinate data resulting 
# from the CCDC's data processing and validation procedures.
#
#######################################################################

data_WAQVER
_symmetry_cell_setting           monoclinic
_symmetry_space_group_name_H-M   'C 2/c'
_symmetry_Int_Tables_number      15
_space_group_name_Hall           '-C 2yn'
loop_
_symmetry_equiv_pos_site_id
_symmetry_equiv_pos_as_xyz
1 x,y,z
2 -x,y,1/2-z
3 1/2+x,1/2+y,z
4 1/2-x,1/2+y,1/2-z
5 -x,-y,-z
6 x,-y,1/2+z
7 1/2-x,1/2-y,-z
8 1/2+x,1/2-y,1/2+z
_cell_length_a                   45.3030(8)
_cell_length_b                   10.6226(2)
_cell_length_c                   8.8701(2)
_cell_angle_alpha                90
_cell_angle_beta                 90.2150(10)
_cell_angle_gamma                90
_cell_volume                     4268.58
loop_
_atom_site_label
_atom_site_type_symbol
_atom_site_fract_x
_atom_site_fract_y
_atom_site_fract_z
C1 C 0.95979(4) 0.41697(18) 0.9566(2)
C2 C 0.92901(4) 0.37382(18) 0.9162(2)
C3 C 0.91674(4) 0.40154(19) 0.7774(2)
H1 H 0.9270 0.4525 0.7105
C4 C 0.91270(4) 0.30275(19) 1.0161(2)
H2 H 0.9202 0.2861 1.1118
C5 C 0.88534(4) 0.25608(19) 0.9759(2)
H3 H 0.8747 0.2084 1.0448
C6 C 0.88934(4) 0.35472(19) 0.7359(2)
H4 H 0.8816 0.3741 0.6415
C7 C 0.87343(4) 0.27931(17) 0.8336(2)
C8 C 0.84480(4) 0.20908(18) 0.7900(2)
C9 C 0.85442(4) 0.07079(19) 0.7657(2)
C10 C 0.83099(4) 0.2571(2) 0.6418(2)
C11 C 0.82098(4) 0.22092(18) 0.9136(2)
C12 C 0.81940(5) 0.3309(2) 0.9966(3)
H5 H 0.8314 0.3987 0.9710
C13 C 0.80085(4) 0.12595(19) 0.9460(2)
H6 H 0.8000 0.0548 0.8850
C14 C 0.78218(4) 0.13601(19) 1.0672(2)
H7 H 0.7692 0.0707 1.0887
C15 C 0.80034(5) 0.3416(2) 1.1165(3)
H8 H 0.7995 0.4166 1.1704
C16 C 0.78247(4) 0.24207(19) 1.1576(2)
C17 C 0.76620(4) 0.2480(2) 1.3007(2)
C18 C 1.01270(6) 0.1230(2) 1.2013(3)
C19 C 1.04672(7) 0.2363(3) 1.0690(4)
H9 H 1.0541 0.3136 1.0372
C20 C 1.06092(10) 0.1285(5) 1.0227(5)
H10 H 1.0777 0.1336 0.9631
C21 C 1.05028(11) 0.0156(5) 1.0646(6)
H11 H 1.0595 -0.0577 1.0323
C22 C 1.02541(9) 0.0085(3) 1.1563(5)
C23 C 1.01181(12) -0.1064(3) 1.2064(7)
H12 H 1.0199 -0.1829 1.1766
F1 F 0.86061(3) 0.01435(11) 0.89533(13)
F2 F 0.83416(3) 0.00004(11) 0.69679(14)
F3 F 0.87869(3) 0.06287(11) 0.68155(13)
F4 F 0.80494(3) 0.20315(14) 0.61416(15)
F5 F 0.84760(3) 0.23656(13) 0.52072(13)
F6 F 0.82625(3) 0.38073(12) 0.64893(16)
Mg1 Mg 1.0000 0.40615(9) 1.2500
N1 N 1.02323(4) 0.23575(18) 1.1560(2)
O1 O 0.96899(3) 0.38904(17) 1.08268(17)
O2 O 0.97353(3) 0.47509(16) 0.85770(19)
O3 O 0.75439(4) 0.14486(14) 1.34618(19)
H13 H 0.7467 0.1562 1.4287
O4 O 0.76530(4) 0.34793(14) 1.37496(18)
C1A C 1.04021(4) 0.41697(18) 1.5434(2)
C2A C 1.07099(4) 0.37382(18) 1.5838(2)
C3A C 1.08326(4) 0.40154(19) 1.7226(2)
H1A H 1.0730 0.4525 1.7895
C4A C 1.08730(4) 0.30275(19) 1.4839(2)
H2A H 1.0798 0.2861 1.3882
C5A C 1.11466(4) 0.25608(19) 1.5241(2)
H3A H 1.1253 0.2084 1.4552
C6A C 1.11066(4) 0.35472(19) 1.7641(2)
H4A H 1.1184 0.3741 1.8585
C7A C 1.12657(4) 0.27931(17) 1.6664(2)
C8A C 1.15520(4) 0.20908(18) 1.7100(2)
C9A C 1.14558(4) 0.07079(19) 1.7343(2)
C10A C 1.16901(4) 0.2571(2) 1.8582(2)
C11A C 1.17902(4) 0.22092(18) 1.5864(2)
C12A C 1.18060(5) 0.3309(2) 1.5034(3)
H5A H 1.1686 0.3987 1.5290
C13A C 1.19915(4) 0.12595(19) 1.5540(2)
H6A H 1.2000 0.0548 1.6150
C14A C 1.21782(4) 0.13601(19) 1.4328(2)
H7A H 1.2308 0.0707 1.4113
C15A C 1.19966(5) 0.3416(2) 1.3835(3)
H8A H 1.2005 0.4166 1.3296
C16A C 1.21753(4) 0.24207(19) 1.3424(2)
C17A C 1.23380(4) 0.2480(2) 1.1993(2)
C18A C 0.98730(6) 0.1230(2) 1.2987(3)
C19A C 0.95328(7) 0.2363(3) 1.4310(4)
H9A H 0.9459 0.3136 1.4628
C20A C 0.93908(10) 0.1285(5) 1.4773(5)
H10A H 0.9223 0.1336 1.5369
C21A C 0.94972(11) 0.0156(5) 1.4354(6)
H11A H 0.9405 -0.0577 1.4677
C22A C 0.97459(9) 0.0085(3) 1.3437(5)
C23A C 0.98819(12) -0.1064(3) 1.2936(7)
H12A H 0.9801 -0.1829 1.3234
F1A F 1.13939(3) 0.01435(11) 1.60467(13)
F2A F 1.16584(3) 0.00004(11) 1.80321(14)
F3A F 1.12131(3) 0.06287(11) 1.81845(13)
F4A F 1.19506(3) 0.20315(14) 1.88584(15)
F5A F 1.15240(3) 0.23656(13) 1.97928(13)
F6A F 1.17375(3) 0.38073(12) 1.85107(16)
Mg1D Mg 1.0000 0.59385(9) 0.7500
Mg1D_2 Mg 1.0000 0.59385(9) 1.7500
N1A N 0.97677(4) 0.23575(18) 1.3440(2)
O1A O 1.03101(3) 0.38904(17) 1.41732(17)
O2A O 1.02647(3) 0.47509(16) 1.64230(19)
O2D O 1.02647(3) 0.52491(16) 1.14230(19)
O2E O 0.97353(3) 0.52491(16) 1.35770(19)
O3A O 1.24561(4) 0.14486(14) 1.15382(19)
H13A H 1.2533 0.1562 1.0713
O4A O 1.23470(4) 0.34793(14) 1.12504(18)
loop_
_geom_bond_atom_site_label_1
_geom_bond_atom_site_label_2
_geom_bond_site_symmetry_1
_geom_bond_site_symmetry_2
C1 C2 1_555 1_555
C2 C3 1_555 1_555
C3 H1 1_555 1_555
C4 C2 1_555 1_555
H2 C4 1_555 1_555
C5 C4 1_555 1_555
H3 C5 1_555 1_555
C6 C3 1_555 1_555
H4 C6 1_555 1_555
C7 C5 1_555 1_555
C8 C7 1_555 1_555
C9 C8 1_555 1_555
C10 C8 1_555 1_555
C11 C8 1_555 1_555
C12 C11 1_555 1_555
H5 C12 1_555 1_555
C13 C11 1_555 1_555
H6 C13 1_555 1_555
C14 C13 1_555 1_555
H7 C14 1_555 1_555
C15 C12 1_555 1_555
H8 C15 1_555 1_555
C16 C14 1_555 1_555
C17 C16 1_555 1_555
C18 C22 1_555 1_555
C19 H9 1_555 1_555
C20 C19 1_555 1_555
H10 C20 1_555 1_555
C21 C20 1_555 1_555
H11 C21 1_555 1_555
C22 C21 1_555 1_555
C23 C22 1_555 1_555
H12 C23 1_555 1_555
F1 C9 1_555 1_555
F2 C9 1_555 1_555
F3 C9 1_555 1_555
F4 C10 1_555 1_555
F5 C10 1_555 1_555
F6 C10 1_555 1_555
Mg1 N1 1_555 1_555
N1 C18 1_555 1_555
O1 C1 1_555 1_555
O2 C1 1_555 1_555
O3 C17 1_555 1_555
H13 O3 1_555 1_555
O4 C17 1_555 1_555
C1A C2A 1_555 1_555
C2A C3A 1_555 1_555
C3A H1A 1_555 1_555
C4A C2A 1_555 1_555
H2A C4A 1_555 1_555
C5A C4A 1_555 1_555
H3A C5A 1_555 1_555
C6A C3A 1_555 1_555
H4A C6A 1_555 1_555
C7A C5A 1_555 1_555
C8A C7A 1_555 1_555
C9A C8A 1_555 1_555
C10A C8A 1_555 1_555
C11A C8A 1_555 1_555
C12A C11A 1_555 1_555
H5A C12A 1_555 1_555
C13A C11A 1_555 1_555
H6A C13A 1_555 1_555
C14A C13A 1_555 1_555
H7A C14A 1_555 1_555
C15A C12A 1_555 1_555
H8A C15A 1_555 1_555
C16A C14A 1_555 1_555
C17A C16A 1_555 1_555
C18A C18 1_555 1_555
C19A H9A 1_555 1_555
C20A C19A 1_555 1_555
H10A C20A 1_555 1_555
C21A C20A 1_555 1_555
H11A C21A 1_555 1_555
C22A C18A 1_555 1_555
C23A C23 1_555 1_555
H12A C23A 1_555 1_555
F1A C9A 1_555 1_555
F2A C9A 1_555 1_555
F3A C9A 1_555 1_555
F4A C10A 1_555 1_555
F5A C10A 1_555 1_555
F6A C10A 1_555 1_555
Mg1D O2 1_555 1_555
Mg1D_2 O2A 1_555 1_555
N1A Mg1 1_555 1_555
O1A Mg1 1_555 1_555
O2A C1A 1_555 1_555
O2D Mg1 1_555 1_555
O2E Mg1 1_555 1_555
O3A C17A 1_555 1_555
H13A O3A 1_555 1_555
O4A C17A 1_555 1_555
C6 C7 1_555 1_555
C15 C16 1_555 1_555
C19 N1 1_555 1_555
Mg1 O1 1_555 1_555
C1A O1A 1_555 1_555
C6A C7A 1_555 1_555
C15A C16A 1_555 1_555
C18A N1A 1_555 1_555
C19A N1A 1_555 1_555
C21A C22A 1_555 1_555
C22A C23A 1_555 1_555

#END
