
#######################################################################
#
#                 Cambridge Crystallographic Data Centre
#                                CCDC 
#
#######################################################################
#
# If this CIF has been generated from an entry in the Cambridge 
# Structural Database, then it will include bibliographic, chemical, 
# crystal, experimental, refinement or atomic coordinate data resulting 
# from the CCDC's data processing and validation procedures.
#
#######################################################################

data_WAQVOB
_symmetry_cell_setting           orthorhombic
_symmetry_space_group_name_H-M   'P b c a'
_symmetry_Int_Tables_number      61
_space_group_name_Hall           '-P 2ac 2ab'
loop_
_symmetry_equiv_pos_site_id
_symmetry_equiv_pos_as_xyz
1 x,y,z
2 1/2-x,-y,1/2+z
3 -x,1/2+y,1/2-z
4 1/2+x,1/2-y,-z
5 -x,-y,-z
6 1/2+x,y,1/2-z
7 x,1/2-y,1/2+z
8 1/2-x,1/2+y,z
_cell_length_a                   20.9727(5)
_cell_length_b                   9.3428(2)
_cell_length_c                   27.9724(6)
_cell_angle_alpha                90
_cell_angle_beta                 90
_cell_angle_gamma                90
_cell_volume                     5481.02
loop_
_atom_site_label
_atom_site_type_symbol
_atom_site_fract_x
_atom_site_fract_y
_atom_site_fract_z
C1 C 0.22049(8) 0.51403(19) 0.95299(6)
C2 C 0.19552(8) 0.45003(18) 0.90733(6)
C3 C 0.17031(9) 0.5366(2) 0.87187(6)
H1 H 0.1710 0.6355 0.8756
C4 C 0.19329(9) 0.3038(2) 0.90115(6)
H2 H 0.2105 0.2439 0.9244
C5 C 0.16560(9) 0.2448(2) 0.86062(6)
H3 H 0.1636 0.1458 0.8575
C6 C 0.14415(9) 0.4776(2) 0.83112(6)
H4 H 0.1284 0.5375 0.8074
C7 C 0.14102(8) 0.33025(19) 0.82503(6)
C8 C 0.10840(9) 0.2719(2) 0.77938(6)
C9 C 0.03602(10) 0.2845(3) 0.78782(7)
C10 C 0.12396(11) 0.1129(2) 0.77054(7)
C11 C 0.13120(9) 0.3555(2) 0.73488(6)
C12 C 0.09171(10) 0.4025(2) 0.69872(7)
H5 H 0.0482 0.3838 0.7003
C13 C 0.19571(9) 0.3839(2) 0.73095(7)
H6 H 0.2234 0.3512 0.7545
C14 C 0.11618(10) 0.4774(2) 0.65997(7)
H7 H 0.0888 0.5078 0.6358
C15 C 0.21963(10) 0.4598(2) 0.69277(7)
H8 H 0.2631 0.4792 0.6913
C16 C 0.18018(9) 0.5075(2) 0.65667(6)
C17 C 0.20807(10) 0.5932(2) 0.61626(7)
C18 C 0.09113(11) 0.9343(2) 0.94960(8)
H9 H 0.1249 0.9861 0.9367
C19 C 0.03011(13) 0.9561(3) 0.93084(9)
H10 H 0.0238 1.0202 0.9059
C20 C -0.01992(12) 0.8823(3) 0.94956(9)
H11 H -0.0609 0.8968 0.9378
C21 C -0.00961(10) 0.7850(3) 0.98638(8)
C22 C 0.05333(9) 0.7687(2) 1.00264(7)
C23 C -0.05946(10) 0.7031(3) 1.00830(10)
H12 H -0.1012 0.7141 0.9978
C24 C -0.04674(11) 0.6112(3) 1.04359(10)
H13 H -0.0800 0.5602 1.0575
C25 C 0.06662(9) 0.6665(2) 1.04000(7)
C26 C 0.01648(10) 0.5893(2) 1.06048(8)
C27 C 0.03219(13) 0.4912(3) 1.09661(9)
H14 H 0.0002 0.4389 1.1117
C28 C 0.09370(13) 0.4726(3) 1.10948(8)
H15 H 0.1046 0.4071 1.1331
C29 C 0.14042(11) 0.5532(2) 1.08673(8)
H16 H 0.1827 0.5393 1.0957
F1 F 0.10506(7) 0.07042(14) 0.72729(4)
F2 F 0.18621(6) 0.08781(13) 0.77291(4)
F3 F 0.09607(7) 0.02402(13) 0.80183(4)
F4 F 0.00114(6) 0.21727(16) 0.75481(5)
F5 F 0.01865(6) 0.22993(15) 0.83007(4)
F6 F 0.01725(6) 0.42048(15) 0.78816(4)
H17 H 0.2915(14) 0.611(2) 1.0456(10)
H18 H 0.2778(12) 0.743(3) 1.0775(7)
Mg1 Mg 0.19828(3) 0.78776(6) 1.01534(2)
N1 N 0.10316(7) 0.84388(17) 0.98469(5)
N2 N 0.12812(7) 0.64848(17) 1.05307(5)
O1 O 0.28131(6) 0.70950(15) 1.04486(5)
O2 O 0.20061(6) 0.63637(13) 0.96277(4)
O3 O 0.25925(6) 0.44465(14) 0.97772(5)
O4 O 0.25456(8) 0.67015(17) 0.62600(5)
O5 O 0.18359(6) 0.57916(13) 0.57495(4)
Mg1F Mg 0.19828(3) 0.71224(6) 0.51534(2)
Mg1G Mg 0.30172(3) 0.28776(6) 1.01534(2)
O3G O 0.24075(6) 0.94465(14) 0.97772(5)
O5F O 0.18359(6) 0.92084(13) 1.07495(4)
loop_
_geom_bond_atom_site_label_1
_geom_bond_atom_site_label_2
_geom_bond_site_symmetry_1
_geom_bond_site_symmetry_2
C1 C2 1_555 1_555
C2 C3 1_555 1_555
C3 H1 1_555 1_555
C4 C2 1_555 1_555
H2 C4 1_555 1_555
C5 C4 1_555 1_555
H3 C5 1_555 1_555
C6 C3 1_555 1_555
H4 C6 1_555 1_555
C7 C5 1_555 1_555
C8 C7 1_555 1_555
C9 C8 1_555 1_555
C10 C8 1_555 1_555
C11 C8 1_555 1_555
C12 C11 1_555 1_555
H5 C12 1_555 1_555
C13 C11 1_555 1_555
H6 C13 1_555 1_555
C14 C12 1_555 1_555
H7 C14 1_555 1_555
C15 C13 1_555 1_555
H8 C15 1_555 1_555
C16 C14 1_555 1_555
C17 C16 1_555 1_555
C18 H9 1_555 1_555
C19 C18 1_555 1_555
H10 C19 1_555 1_555
C20 C19 1_555 1_555
H11 C20 1_555 1_555
C21 C20 1_555 1_555
C22 C21 1_555 1_555
C23 C21 1_555 1_555
H12 C23 1_555 1_555
C24 C23 1_555 1_555
H13 C24 1_555 1_555
C25 C22 1_555 1_555
C26 C24 1_555 1_555
C27 C26 1_555 1_555
H14 C27 1_555 1_555
C28 C27 1_555 1_555
H15 C28 1_555 1_555
C29 C28 1_555 1_555
H16 C29 1_555 1_555
F1 C10 1_555 1_555
F2 C10 1_555 1_555
F3 C10 1_555 1_555
F4 C9 1_555 1_555
F5 C9 1_555 1_555
F6 C9 1_555 1_555
H17 O1 1_555 1_555
H18 O1 1_555 1_555
Mg1 N1 1_555 1_555
N1 C18 1_555 1_555
N2 C25 1_555 1_555
O1 Mg1 1_555 1_555
O2 C1 1_555 1_555
O3 C1 1_555 1_555
O4 C17 1_555 1_555
O5 C17 1_555 1_555
Mg1F O5 1_555 1_555
Mg1G O3 1_555 1_555
O3G Mg1 1_555 1_555
O5F Mg1 1_555 1_555
C6 C7 1_555 1_555
C15 C16 1_555 1_555
C22 N1 1_555 1_555
C25 C26 1_555 1_555
C29 N2 1_555 1_555
Mg1 N2 1_555 1_555
Mg1 O2 1_555 1_555

#END
