
#######################################################################
#
#                 Cambridge Crystallographic Data Centre
#                                CCDC 
#
#######################################################################
#
# If this CIF has been generated from an entry in the Cambridge 
# Structural Database, then it will include bibliographic, chemical, 
# crystal, experimental, refinement or atomic coordinate data resulting 
# from the CCDC's data processing and validation procedures.
#
#######################################################################

data_WAQVUH
_symmetry_cell_setting           orthorhombic
_symmetry_space_group_name_H-M   'P c c 2'
_symmetry_Int_Tables_number      27
_space_group_name_Hall           'P 2 -2c'
loop_
_symmetry_equiv_pos_site_id
_symmetry_equiv_pos_as_xyz
1 x,y,z
2 -x,-y,z
3 x,-y,1/2+z
4 -x,y,1/2+z
_cell_length_a                   27.6862(13)
_cell_length_b                   27.7671(13)
_cell_length_c                   13.9934(7)
_cell_angle_alpha                90
_cell_angle_beta                 90
_cell_angle_gamma                90
_cell_volume                     10757.6
loop_
_atom_site_label
_atom_site_type_symbol
_atom_site_fract_x
_atom_site_fract_y
_atom_site_fract_z
Cu1 Cu 0.63042(8) 0.30608(8) 0.50518(16)
Cu2 Cu 0.63016(8) 0.19722(8) 0.49344(16)
Cu3 Cu 0.67435(8) 0.24714(7) 0.68479(17)
Cu4 Cu 1.14527(8) 0.30246(7) 0.65637(16)
Cu5 Cu 1.14392(8) 0.19389(7) 0.64577(17)
Cu6 Cu 1.10019(8) 0.25147(7) 0.46624(17)
O1 O 0.6154(5) 0.3452(5) 0.6269(11)
O2 O 0.6693(5) 0.3125(4) 0.7300(10)
O3 O 0.5652(5) 0.2926(5) 0.4457(10)
O4 O 0.5650(5) 0.2112(5) 0.4429(9)
O5 O 0.6124(5) 0.1522(5) 0.6095(11)
O6 O 0.6690(6) 0.1797(5) 0.7119(12)
O7 O 0.7000(5) 0.2118(5) 0.4745(11)
O8 O 0.7009(5) 0.2913(5) 0.4852(12)
O9 O 1.0730(5) 0.2898(5) 0.6680(11)
O10 O 1.0755(5) 0.2079(5) 0.6693(10)
O11 O 1.1578(5) 0.3482(5) 0.5411(9)
O12 O 1.1064(5) 0.3195(5) 0.4295(9)
O13 O 1.2090(5) 0.2844(5) 0.7158(10)
O14 O 1.2106(5) 0.2055(6) 0.7006(12)
O15 O 1.1650(5) 0.1547(5) 0.5237(9)
O16 O 1.1043(5) 0.1835(5) 0.4265(10)
O17 O 0.6247(5) 0.2497(4) 0.5842(9)
H1 H 0.5969 0.2491 0.6100
O18 O 1.1491(4) 0.2501(4) 0.5660(9)
H2 H 1.1824 0.2504 0.5350
N1 N 0.6362(7) 0.6302(6) 0.9417(13)
N2 N 0.2360(7) 0.2528(7) 0.4824(13)
N3 N 0.6339(8) -0.1383(7) 0.9144(14)
N4 N 0.7438(6) 0.2451(6) 0.7137(12)
N5 N 1.0294(6) 0.2517(6) 0.4370(12)
N6 N 1.1388(6) 0.6393(6) 0.2373(14)
N7 N 1.5392(7) 0.2496(6) 0.6633(13)
N8 N 1.1392(7) -0.1306(7) 0.2119(14)
C1 C 0.5970(10) 0.6080(11) 0.907(3)
H3 H 0.5690 0.6261 0.8988
C2 C 0.5957(10) 0.5604(11) 0.883(3)
H4 H 0.5665 0.5451 0.8701
C3 C 0.6404(9) 0.5347(8) 0.8769(18)
C4 C 0.6797(10) 0.5594(9) 0.912(2)
H5 H 0.7091 0.5434 0.9165
C5 C 0.6773(9) 0.6059(8) 0.941(2)
H6 H 0.7054 0.6213 0.9610
C6 C 0.6408(8) 0.4855(7) 0.8383(16)
C7 C 0.6050(14) 0.4705(11) 0.766(3)
H7 H 0.5799 0.4910 0.7483
C8 C 0.6090(13) 0.4284(13) 0.726(4)
H8 H 0.5880 0.4211 0.6766
C9 C 0.6427(8) 0.3929(8) 0.7530(16)
C10 C 0.6741(8) 0.4055(7) 0.8233(15)
H9 H 0.6966 0.3827 0.8434
C11 C 0.6747(8) 0.4501(7) 0.8669(15)
H10 H 0.6971 0.4569 0.9145
C12 C 0.6423(7) 0.3486(7) 0.7002(15)
C13 C 0.4653(9) 0.2955(8) 0.4168(16)
H11 H 0.4817 0.3243 0.4068
C14 C 0.4153(7) 0.2948(7) 0.4193(15)
H12 H 0.3985 0.3237 0.4130
C15 C 0.3898(7) 0.2523(7) 0.4310(14)
C16 C 0.4146(7) 0.2097(8) 0.4413(15)
H13 H 0.3981 0.1809 0.4500
C17 C 0.4650(8) 0.2103(8) 0.4387(16)
H14 H 0.4815 0.1813 0.4434
C18 C 0.3361(8) 0.2534(7) 0.4445(14)
C19 C 0.3115(8) 0.2920(7) 0.4807(15)
H15 H 0.3285 0.3199 0.4951
C20 C 0.2617(7) 0.2911(7) 0.4969(16)
H16 H 0.2465 0.3189 0.5187
C21 C 0.2584(8) 0.2134(7) 0.4527(16)
H17 H 0.2406 0.1852 0.4452
C22 C 0.3081(8) 0.2126(8) 0.4319(15)
H18 H 0.3223 0.1844 0.4096
C23 C 0.5426(7) 0.2531(7) 0.4376(13)
C24 C 0.6384(8) 0.1001(7) 0.7255(18)
C25 C 0.6774(9) 0.0826(8) 0.7803(16)
H19 H 0.7030 0.1031 0.7943
C26 C 0.6784(9) 0.0347(9) 0.8145(17)
H20 H 0.7054 0.0235 0.8470
C27 C 0.6390(8) 0.0042(9) 0.7998(17)
C28 C 0.5998(8) 0.0230(8) 0.7446(19)
H21 H 0.5728 0.0039 0.7337
C29 C 0.6015(9) 0.0679(10) 0.708(2)
H22 H 0.5763 0.0778 0.6689
C30 C 0.6386(9) -0.0460(8) 0.8355(17)
C31 C 0.5933(10) -0.0665(9) 0.8638(18)
H23 H 0.5648 -0.0489 0.8591
C32 C 0.5930(9) -0.1130(9) 0.8982(18)
H24 H 0.5635 -0.1276 0.9109
C33 C 0.6762(9) -0.1173(9) 0.8862(17)
H25 H 0.7047 -0.1349 0.8914
C34 C 0.6783(9) -0.0723(8) 0.8513(16)
H26 H 0.7083 -0.0590 0.8377
C35 C 0.6390(7) 0.1458(7) 0.6788(13)
C36 C 1.0013(9) 0.2473(7) 0.6900(15)
C37 C 0.9732(8) 0.2917(8) 0.6851(19)
H27 H 0.9888 0.3213 0.6809
C38 C 0.9223(8) 0.2897(7) 0.6866(15)
H28 H 0.9046 0.3174 0.6745
C39 C 0.8981(8) 0.2461(7) 0.7062(14)
C40 C 0.9274(7) 0.2035(7) 0.7106(15)
H29 H 0.9120 0.1741 0.7188
C41 C 0.4914(7) 0.2525(6) 0.4293(14)
C42 C 0.8465(8) 0.2449(7) 0.7135(15)
C43 C 0.8198(8) 0.2848(8) 0.7453(14)
H30 H 0.8354 0.3117 0.7700
C44 C 0.7695(9) 0.2837(8) 0.7395(17)
H31 H 0.7527 0.3117 0.7546
C45 C 0.7688(8) 0.2048(7) 0.6856(17)
H32 H 0.7518 0.1775 0.6668
C46 C 0.8187(8) 0.2039(8) 0.6846(17)
H33 H 0.8346 0.1761 0.6648
C47 C 1.0521(7) 0.2493(6) 0.6744(13)
C48 C 0.7746(7) 0.2519(6) 0.4577(14)
C49 C 0.8004(8) 0.2930(8) 0.4713(18)
H34 H 0.7847 0.3216 0.4865
C50 C 0.8505(8) 0.2923(8) 0.4622(17)
H35 H 0.8680 0.3205 0.4715
C51 C 0.8746(7) 0.2503(7) 0.4398(14)
C52 C 0.8486(8) 0.2080(7) 0.4235(16)
H36 H 0.8643 0.1796 0.4067
C53 C 0.7980(8) 0.2096(8) 0.4333(15)
H37 H 0.7800 0.1817 0.4232
C54 C 0.9280(8) 0.2507(7) 0.4333(15)
C55 C 0.9549(7) 0.2078(7) 0.4521(15)
H38 H 0.9394 0.1786 0.4628
C56 C 1.0046(8) 0.2113(8) 0.4538(18)
H39 H 1.0220 0.1836 0.4677
C57 C 1.0043(7) 0.2918(7) 0.4181(16)
H40 H 1.0209 0.3202 0.4055
C58 C 0.9542(8) 0.2920(8) 0.4168(18)
H41 H 0.9379 0.3206 0.4045
C59 C 0.7210(7) 0.2513(6) 0.4725(13)
C60 C 1.0999(9) 0.6113(8) 0.222(2)
H42 H 1.0747 0.6225 0.1836
C61 C 1.0971(9) 0.5651(9) 0.262(2)
H43 H 1.0680 0.5485 0.2590
C62 C 1.1362(7) 0.5428(7) 0.3082(14)
C63 C 1.1751(9) 0.5744(8) 0.320(2)
H44 H 1.2020 0.5638 0.3536
C64 C 1.1755(8) 0.6205(8) 0.283(2)
H45 H 1.2031 0.6392 0.2921
C65 C 1.1329(8) 0.4948(8) 0.3466(16)
C66 C 1.1027(8) 0.4608(8) 0.3111(15)
H46 H 1.0823 0.4688 0.2607
C67 C 1.1014(8) 0.4136(8) 0.3487(15)
H47 H 1.0790 0.3913 0.3265
C68 C 1.1337(8) 0.4014(7) 0.4185(16)
C69 C 1.1638(11) 0.4346(10) 0.456(2)
H48 H 1.1838 0.4266 0.5074
C70 C 1.1645(11) 0.4821(12) 0.417(2)
H49 H 1.1865 0.5045 0.4402
C71 C 1.1328(7) 0.3508(6) 0.4666(14)
C72 C 1.2841(7) 0.2455(7) 0.7188(15)
C73 C 1.3100(8) 0.2848(8) 0.7442(17)
H50 H 1.2934 0.3125 0.7614
C74 C 1.3588(9) 0.2859(8) 0.7460(16)
H51 H 1.3749 0.3131 0.7678
C75 C 1.3840(8) 0.2468(8) 0.7158(17)
C76 C 1.3604(10) 0.2041(9) 0.6900(17)
H52 H 1.3779 0.1773 0.6697
C77 C 1.3096(8) 0.2027(7) 0.6957(15)
H53 H 1.2930 0.1741 0.6845
C78 C 1.4387(9) 0.2468(8) 0.7047(15)
C79 C 1.4638(8) 0.2926(9) 0.6769(16)
H54 H 1.4471 0.3215 0.6705
C80 C 1.5113(9) 0.2898(8) 0.6618(17)
H55 H 1.5271 0.3186 0.6488
C81 C 1.5139(8) 0.2079(8) 0.6867(18)
H56 H 1.5311 0.1791 0.6880
C82 C 1.4673(8) 0.2061(8) 0.7071(17)
H57 H 1.4535 0.1767 0.7236
C83 C 1.2294(7) 0.2452(6) 0.7123(13)
C84 C 1.1331(7) 0.1039(7) 0.4051(13)
C85 C 1.1739(9) 0.0731(8) 0.414(2)
H58 H 1.2013 0.0833 0.4471
C86 C 1.1720(8) 0.0286(8) 0.3743(15)
H59 H 1.1983 0.0081 0.3810
C87 C 1.1321(8) 0.0130(8) 0.3238(15)
C88 C 1.0937(7) 0.0421(7) 0.3138(17)
H60 H 1.0668 0.0312 0.2804
C89 C 1.0931(7) 0.0887(7) 0.3527(14)
H61 H 1.0668 0.1089 0.3436
C90 C 1.1358(8) -0.0360(8) 0.2808(15)
C91 C 1.1757(9) -0.0548(9) 0.243(2)
H62 H 1.2036 -0.0363 0.2411
C92 C 1.1768(9) -0.1011(9) 0.2077(19)
H63 H 1.2052 -0.1121 0.1796
C93 C 1.0969(9) -0.1123(9) 0.2497(16)
H64 H 1.0699 -0.1322 0.2536
C94 C 1.0937(9) -0.0667(9) 0.281(2)
H65 H 1.0643 -0.0548 0.3026
C95 C 1.1349(7) 0.1527(7) 0.4582(14)
C96 C 0.9753(7) 0.2035(7) 0.7037(13)
H66 H 0.9921 0.1746 0.7079
Cu1B Cu 0.63042(8) 0.69392(8) 1.00518(16)
Cu2B Cu 0.63016(8) -0.19722(8) 0.99344(16)
Cu4B Cu 1.14527(8) 0.69754(7) 0.15637(16)
Cu5B Cu 1.14392(8) -0.19389(7) 0.14577(17)
N1B N 0.6362(7) 0.3698(6) 0.4417(13)
N3B N 0.6339(8) 0.1383(7) 0.4144(14)
N6B N 1.1388(6) 0.3607(6) 0.7373(14)
N8B N 1.1392(7) 0.1306(7) 0.7119(14)
I1 I 0.49415(18) 0.4287(2) 0.5333(7)
I2 I 0.39814(14) 0.41966(11) 0.5885(3)
I3 I 0.29366(13) 0.40739(7) 0.64534(19)
I4 I 0.25017(7) 0.50052(6) 0.63997(14)
I5 I 0.20093(7) 0.59320(7) 0.62831(17)
I11 I 0.09034(7) 0.57971(6) 0.55824(14)
I12 I -0.00464(9) 0.57504(7) 0.5000(2)
I6 I 0.34912(14) 1.08613(8) 0.56074(19)
I7 I 0.28410(7) 1.00769(6) 0.56893(13)
I8 I 0.22006(8) 0.92087(8) 0.5680(2)
I9 I 0.10817(7) 0.92584(6) 0.55673(13)
I10 I 0.00805(8) 0.92432(7) 0.5512(3)
loop_
_geom_bond_atom_site_label_1
_geom_bond_atom_site_label_2
_geom_bond_site_symmetry_1
_geom_bond_site_symmetry_2
Cu1 O1 1_555 1_555
Cu2 O4 1_555 1_555
Cu3 O2 1_555 1_555
Cu4 O9 1_555 1_555
Cu5 O10 1_555 1_555
Cu6 O12 1_555 1_555
I1 I2 1_555 1_555
I2 I3 1_555 1_555
I3 I4 1_555 1_555
I4 I5 1_555 1_555
I5 I11 1_555 1_555
I6 I7 1_555 1_555
I7 I8 1_555 1_555
I8 I9 1_555 1_555
I9 I10 1_555 1_555
I11 I12 1_555 1_555
O1 C12 1_555 1_555
O2 C12 1_555 1_555
O3 Cu1 1_555 1_555
O4 C23 1_555 1_555
O5 Cu2 1_555 1_555
O6 Cu3 1_555 1_555
O7 Cu2 1_555 1_555
O8 Cu1 1_555 1_555
O9 C47 1_555 1_555
O10 C47 1_555 1_555
O11 Cu4 1_555 1_555
O12 C71 1_555 1_555
O13 Cu4 1_555 1_555
O14 Cu5 1_555 1_555
O15 Cu5 1_555 1_555
O16 Cu6 1_555 1_555
O17 Cu1 1_555 1_555
H1 O17 1_555 1_555
O18 Cu4 1_555 1_555
H2 O18 1_555 1_555
N1 C1 1_555 1_555
N2 C20 1_555 1_555
N3 C32 1_555 1_555
N4 Cu3 1_555 1_555
N5 Cu6 1_555 1_555
N6 C60 1_555 1_555
N7 C80 1_555 1_555
N8 C92 1_555 1_555
C1 H3 1_555 1_555
C2 C1 1_555 1_555
H4 C2 1_555 1_555
C3 C2 1_555 1_555
C4 C3 1_555 1_555
H5 C4 1_555 1_555
C5 N1 1_555 1_555
H6 C5 1_555 1_555
C6 C3 1_555 1_555
C7 C6 1_555 1_555
H7 C7 1_555 1_555
C8 C7 1_555 1_555
H8 C8 1_555 1_555
C9 C8 1_555 1_555
C10 C9 1_555 1_555
H9 C10 1_555 1_555
C11 C6 1_555 1_555
H10 C11 1_555 1_555
C12 C9 1_555 1_555
C13 H11 1_555 1_555
C14 C13 1_555 1_555
H12 C14 1_555 1_555
C15 C14 1_555 1_555
C16 C15 1_555 1_555
H13 C16 1_555 1_555
C17 C16 1_555 1_555
H14 C17 1_555 1_555
C18 C15 1_555 1_555
C19 C18 1_555 1_555
H15 C19 1_555 1_555
C20 C19 1_555 1_555
H16 C20 1_555 1_555
C21 N2 1_555 1_555
H17 C21 1_555 1_555
C22 C18 1_555 1_555
H18 C22 1_555 1_555
C23 O3 1_555 1_555
C24 C25 1_555 1_555
C25 H19 1_555 1_555
C26 C25 1_555 1_555
H20 C26 1_555 1_555
C27 C26 1_555 1_555
C28 C27 1_555 1_555
H21 C28 1_555 1_555
C29 C24 1_555 1_555
H22 C29 1_555 1_555
C30 C27 1_555 1_555
C31 C30 1_555 1_555
H23 C31 1_555 1_555
C32 C31 1_555 1_555
H24 C32 1_555 1_555
C33 N3 1_555 1_555
H25 C33 1_555 1_555
C34 C30 1_555 1_555
H26 C34 1_555 1_555
C35 O5 1_555 1_555
C36 C37 1_555 1_555
C37 H27 1_555 1_555
C38 C37 1_555 1_555
H28 C38 1_555 1_555
C39 C38 1_555 1_555
C40 C39 1_555 1_555
H29 C40 1_555 1_555
C41 C13 1_555 1_555
C42 C39 1_555 1_555
C43 C42 1_555 1_555
H30 C43 1_555 1_555
C44 N4 1_555 1_555
H31 C44 1_555 1_555
C45 N4 1_555 1_555
H32 C45 1_555 1_555
C46 C42 1_555 1_555
H33 C46 1_555 1_555
C47 C36 1_555 1_555
C48 C49 1_555 1_555
C49 H34 1_555 1_555
C50 C49 1_555 1_555
H35 C50 1_555 1_555
C51 C50 1_555 1_555
C52 C51 1_555 1_555
H36 C52 1_555 1_555
C53 C48 1_555 1_555
H37 C53 1_555 1_555
C54 C51 1_555 1_555
C55 C54 1_555 1_555
H38 C55 1_555 1_555
C56 N5 1_555 1_555
H39 C56 1_555 1_555
C57 N5 1_555 1_555
H40 C57 1_555 1_555
C58 C54 1_555 1_555
H41 C58 1_555 1_555
C59 O7 1_555 1_555
C60 H42 1_555 1_555
C61 C60 1_555 1_555
H43 C61 1_555 1_555
C62 C61 1_555 1_555
C63 C62 1_555 1_555
H44 C63 1_555 1_555
C64 N6 1_555 1_555
H45 C64 1_555 1_555
C65 C62 1_555 1_555
C66 C65 1_555 1_555
H46 C66 1_555 1_555
C67 C66 1_555 1_555
H47 C67 1_555 1_555
C68 C67 1_555 1_555
C69 C68 1_555 1_555
H48 C69 1_555 1_555
C70 C65 1_555 1_555
H49 C70 1_555 1_555
C71 O11 1_555 1_555
C72 C73 1_555 1_555
C73 H50 1_555 1_555
C74 C73 1_555 1_555
H51 C74 1_555 1_555
C75 C74 1_555 1_555
C76 C75 1_555 1_555
H52 C76 1_555 1_555
C77 C72 1_555 1_555
H53 C77 1_555 1_555
C78 C75 1_555 1_555
C79 C78 1_555 1_555
H54 C79 1_555 1_555
C80 C79 1_555 1_555
H55 C80 1_555 1_555
C81 N7 1_555 1_555
H56 C81 1_555 1_555
C82 C78 1_555 1_555
H57 C82 1_555 1_555
C83 O13 1_555 1_555
C84 C85 1_555 1_555
C85 H58 1_555 1_555
C86 C85 1_555 1_555
H59 C86 1_555 1_555
C87 C86 1_555 1_555
C88 C87 1_555 1_555
H60 C88 1_555 1_555
C89 C84 1_555 1_555
H61 C89 1_555 1_555
C90 C87 1_555 1_555
C91 C90 1_555 1_555
H62 C91 1_555 1_555
C92 C91 1_555 1_555
H63 C92 1_555 1_555
C93 N8 1_555 1_555
H64 C93 1_555 1_555
C94 C90 1_555 1_555
H65 C94 1_555 1_555
C95 O15 1_555 1_555
C96 C36 1_555 1_555
H66 C96 1_555 1_555
Cu1B N1 1_555 1_555
Cu2B N3 1_555 1_555
Cu4B N6 1_555 1_555
Cu5B N8 1_555 1_555
N1B Cu1 1_555 1_555
N3B Cu2 1_555 1_555
N6B Cu4 1_555 1_555
N8B Cu5 1_555 1_555
Cu2 O17 1_555 1_555
Cu3 O17 1_555 1_555
Cu5 O18 1_555 1_555
Cu6 O18 1_555 1_555
O6 C35 1_555 1_555
O8 C59 1_555 1_555
O14 C83 1_555 1_555
O16 C95 1_555 1_555
C4 C5 1_555 1_555
C10 C11 1_555 1_555
C17 C41 1_555 1_555
C21 C22 1_555 1_555
C23 C41 1_555 1_555
C24 C35 1_555 1_555
C28 C29 1_555 1_555
C33 C34 1_555 1_555
C40 C96 1_555 1_555
C43 C44 1_555 1_555
C45 C46 1_555 1_555
C48 C59 1_555 1_555
C52 C53 1_555 1_555
C55 C56 1_555 1_555
C57 C58 1_555 1_555
C63 C64 1_555 1_555
C68 C71 1_555 1_555
C69 C70 1_555 1_555
C72 C83 1_555 1_555
C76 C77 1_555 1_555
C81 C82 1_555 1_555
C84 C95 1_555 1_555
C88 C89 1_555 1_555
C93 C94 1_555 1_555

#END
