
#######################################################################
#
#                 Cambridge Crystallographic Data Centre
#                                CCDC 
#
#######################################################################
#
# If this CIF has been generated from an entry in the Cambridge 
# Structural Database, then it will include bibliographic, chemical, 
# crystal, experimental, refinement or atomic coordinate data resulting 
# from the CCDC's data processing and validation procedures.
#
#######################################################################

data_WARFEB
_symmetry_cell_setting           triclinic
_symmetry_space_group_name_H-M   'P -1'
_symmetry_Int_Tables_number      2
_space_group_name_Hall           '-P 1'
loop_
_symmetry_equiv_pos_site_id
_symmetry_equiv_pos_as_xyz
1 x,y,z
2 -x,-y,-z
_cell_length_a                   13.4650(3)
_cell_length_b                   13.4669(2)
_cell_length_c                   13.7977(3)
_cell_angle_alpha                85.4380(10)
_cell_angle_beta                 76.2910(10)
_cell_angle_gamma                88.4590(10)
_cell_volume                     2422.9
loop_
_atom_site_label
_atom_site_type_symbol
_atom_site_fract_x
_atom_site_fract_y
_atom_site_fract_z
Pb1 Pb 0.97914(4) 0.08060(4) 0.35515(4)
O1 O 0.9008(8) -0.0799(7) 0.3038(9)
O2 O 1.0199(7) -0.7815(7) 0.4456(8)
O3 O 1.1039(7) -0.0075(8) 0.4567(8)
O4 O 1.8084(8) 0.1674(8) 0.3927(10)
O9 O 1.1381(15) 0.0432(15) 0.1952(18)
O10 O 1.1908(19) 0.164(3) 0.2426(19)
O11 O 1.2251(14) 0.1558(17) 0.0900(14)
O12 O 0.9821(9) 0.2338(9) 0.2188(10)
O13 O 0.8992(11) 0.1131(9) 0.1833(10)
O14 O 0.9051(10) 0.2552(10) 0.0983(10)
N1 N 0.9188(9) -0.1774(9) 0.3188(10)
N2 N 1.0034(9) -0.6880(9) 0.4217(8)
N3 N 1.2005(9) 0.0189(10) 0.4361(9)
N4 N 1.7156(9) 0.1483(9) 0.3863(9)
N9 N 1.1831(14) 0.1203(17) 0.166(2)
N10 N 0.9293(11) 0.2016(11) 0.1651(12)
C1 C 0.8399(11) -0.2387(11) 0.3393(12)
H7 H 0.7746 -0.2142 0.3393
C2 C 0.8551(11) -0.3398(10) 0.3608(9)
H8 H 0.7991 -0.3822 0.3771
C3 C 1.0138(10) -0.2073(12) 0.3129(12)
H9 H 1.0679 -0.1628 0.2951
C4 C 1.0300(11) -0.3087(10) 0.3347(11)
H10 H 1.0966 -0.3301 0.3332
C5 C 0.9536(11) -0.3796(10) 0.3584(9)
C6 C 0.9701(10) -0.4846(10) 0.3796(9)
C7 C 0.8919(12) -0.5488(10) 0.4261(12)
H11 H 0.8254 -0.5240 0.4440
C8 C 0.9097(10) -0.6487(10) 0.4465(11)
H12 H 0.8552 -0.6895 0.4783
C9 C 1.0674(10) -0.5286(11) 0.3559(11)
H13 H 1.1237 -0.4893 0.3258
C10 C 1.0812(12) -0.6283(10) 0.3761(11)
H14 H 1.1466 -0.6555 0.3578
C11 C 1.2747(11) -0.0453(11) 0.4004(11)
H15 H 1.2571 -0.1082 0.3870
C12 C 1.3770(11) -0.0214(11) 0.3826(11)
H16 H 1.4270 -0.0680 0.3580
C13 C 1.2262(10) 0.1125(12) 0.4492(10)
H17 H 1.1751 0.1598 0.4680
C14 C 1.3265(10) 0.1387(11) 0.4354(11)
H18 H 1.3417 0.2023 0.4491
C15 C 1.4053(10) 0.0738(10) 0.4017(10)
C16 C 1.5133(10) 0.0997(11) 0.3903(10)
C17 C 1.5925(11) 0.0310(11) 0.3686(12)
H19 H 1.5789 -0.0333 0.3555
C18 C 1.6906(11) 0.0571(12) 0.3662(11)
H20 H 1.7423 0.0099 0.3500
C19 C 1.5421(10) 0.1931(10) 0.4059(10)
H21 H 1.4922 0.2426 0.4179
C20 C 1.6412(10) 0.2169(12) 0.4044(12)
H22 H 1.6565 0.2811 0.4162
Pb1_2 Pb 0.97914(4) -0.91940(4) 0.35515(4)
Pb1A Pb 1.02086(4) -0.08060(4) 0.64485(4)
Pb1_3 Pb 1.97914(4) 0.08060(4) 0.35515(4)
O2_2 O 1.0199(7) 0.2185(7) 0.4456(8)
O3A O 0.8961(7) 0.0075(8) 0.5433(8)
O4_2 O 0.8084(8) 0.1674(8) 0.3927(10)
Pb2 Pb 0.50995(4) 0.54211(4) 0.14936(4)
O5 O 0.6092(8) 0.3859(7) 0.1588(9)
O6 O 0.4517(8) -0.2945(7) 0.0710(8)
O7 O 0.3966(7) 0.4709(8) 0.0389(7)
O8 O -0.3257(7) 0.6189(8) 0.1544(9)
O15 O 0.4523(11) 0.4436(13) 0.3429(11)
O16 O 0.3305(10) 0.4555(11) 0.2712(9)
O17 O 0.3076(13) 0.3974(13) 0.4276(11)
N5 N 0.5844(10) 0.2899(9) 0.1532(9)
N6 N 0.4721(9) -0.2061(9) 0.0909(9)
N7 N 0.2964(8) 0.4907(10) 0.0627(8)
N8 N -0.2283(8) 0.5975(9) 0.1476(9)
N11 N 0.3569(12) 0.4327(10) 0.3495(11)
N12 N 0.5913(13) 0.7779(13) 0.3543(13)
N13 N 0.4674(10) 0.6783(12) 0.2996(12)
N14 N 0.2794(11) 0.7116(13) 0.3449(13)
C21 C 0.4859(14) 0.2614(12) 0.1648(13)
H23 H 0.4341 0.3090 0.1774
C22 C 0.4613(11) 0.1661(9) 0.1587(11)
H24 H 0.3932 0.1481 0.1684
C23 C 0.6608(11) 0.2223(10) 0.1349(10)
H25 H 0.7282 0.2415 0.1274
C24 C 0.6384(11) 0.1252(10) 0.1275(11)
H26 H 0.6911 0.0784 0.1153
C25 C 0.5386(11) 0.0952(10) 0.1377(10)
C26 C 0.5127(11) -0.0106(11) 0.1266(11)
C27 C 0.4150(11) -0.0414(11) 0.1350(12)
H27 H 0.3610 0.0030 0.1537
C28 C 0.3947(10) -0.1390(11) 0.1161(11)
H28 H 0.3277 -0.1579 0.1208
C29 C 0.5886(14) -0.0818(11) 0.1027(13)
H29 H 0.6563 -0.0653 0.0980
C30 C 0.5652(13) -0.1776(12) 0.0856(12)
H30 H 0.6182 -0.2235 0.0697
C31 C 0.2643(10) 0.5879(10) 0.0643(10)
H31 H 0.3118 0.6390 0.0518
C32 C 0.1621(11) 0.6095(12) 0.0844(12)
H32 H 0.1406 0.6757 0.0840
C33 C 0.2298(10) 0.4142(11) 0.0858(11)
H33 H 0.2539 0.3489 0.0888
C34 C 0.1250(10) 0.4333(11) 0.1053(11)
H34 H 0.0789 0.3810 0.1182
C35 C 0.0891(10) 0.5340(11) 0.1053(11)
C36 C -0.0223(9) 0.5573(10) 0.1227(10)
C37 C -0.0556(10) 0.6511(12) 0.1022(12)
H35 H -0.0085 0.7021 0.0796
C38 C -0.1595(10) 0.6714(12) 0.1145(12)
H36 H -0.1817 0.7357 0.1001
C39 C -0.1995(11) 0.5061(10) 0.1723(12)
H37 H -0.2479 0.4568 0.1975
C40 C -0.0950(10) 0.4843(13) 0.1600(11)
H38 H -0.0742 0.4202 0.1771
C41 C 0.5314(14) 0.7312(14) 0.3331(14)
C42 C 0.3659(14) 0.6991(13) 0.3286(14)
Pb2_2 Pb 0.50995(4) -0.45789(4) 0.14936(4)
Pb2A Pb 0.49005(4) 0.45789(4) -0.14936(4)
Pb2_3 Pb -0.49005(4) 0.54211(4) 0.14936(4)
O6_2 O 0.4517(8) 0.7055(7) 0.0710(8)
O7A O 0.6034(7) 0.5291(8) -0.0389(7)
O8_2 O 0.6743(7) 0.6189(8) 0.1544(9)
O18 O 0.842(2) -0.0810(16) 0.109(2)
H1 H 0.8709 -0.0969 0.1560
H2 H 0.8602 -0.1217 0.0644
O19 O 0.6361(12) 0.4758(14) 0.4209(14)
H3 H 0.6128 0.5176 0.3795
H4 H 0.5808 0.4396 0.4493
O20 O 0.8502(16) 0.1329(15) -0.0716(15)
H5 H 0.8969 0.1640 -0.0550
H6 H 0.8788 0.0885 -0.1096
loop_
_geom_bond_atom_site_label_1
_geom_bond_atom_site_label_2
_geom_bond_site_symmetry_1
_geom_bond_site_symmetry_2
Pb1 O1 1_555 1_555
Pb2 O5 1_555 1_555
O1 N1 1_555 1_555
O2 N2 1_555 1_555
O3 Pb1 1_555 1_555
O4 N4 1_555 1_555
O5 N5 1_555 1_555
O6 N6 1_555 1_555
O7 Pb2 1_555 1_555
O8 N8 1_555 1_555
O9 Pb1 1_555 1_555
O10 N9 1_555 1_555
O11 N9 1_555 1_555
O12 Pb1 1_555 1_555
O13 Pb1 1_555 1_555
O14 N10 1_555 1_555
O15 Pb2 1_555 1_555
O16 Pb2 1_555 1_555
O17 N11 1_555 1_555
O18 H1 1_555 1_555
O19 H3 1_555 1_555
O20 H5 1_555 1_555
H2 O18 1_555 1_555
H4 O19 1_555 1_555
H6 O20 1_555 1_555
N1 C1 1_555 1_555
N2 C8 1_555 1_555
N3 O3 1_555 1_555
N4 C18 1_555 1_555
N5 C21 1_555 1_555
N6 C28 1_555 1_555
N7 O7 1_555 1_555
N8 C38 1_555 1_555
N9 O9 1_555 1_555
N10 O12 1_555 1_555
N11 O15 1_555 1_555
N12 C41 1_555 1_555
N13 Pb2 1_555 1_555
N14 C42 1_555 1_555
C1 H7 1_555 1_555
C2 C1 1_555 1_555
H8 C2 1_555 1_555
C3 N1 1_555 1_555
H9 C3 1_555 1_555
C4 C3 1_555 1_555
H10 C4 1_555 1_555
C5 C2 1_555 1_555
C6 C5 1_555 1_555
C7 C6 1_555 1_555
H11 C7 1_555 1_555
C8 C7 1_555 1_555
H12 C8 1_555 1_555
C9 C6 1_555 1_555
H13 C9 1_555 1_555
C10 N2 1_555 1_555
H14 C10 1_555 1_555
C11 N3 1_555 1_555
H15 C11 1_555 1_555
C12 C11 1_555 1_555
H16 C12 1_555 1_555
C13 N3 1_555 1_555
H17 C13 1_555 1_555
C14 C13 1_555 1_555
H18 C14 1_555 1_555
C15 C12 1_555 1_555
C16 C15 1_555 1_555
C17 C16 1_555 1_555
H19 C17 1_555 1_555
C18 C17 1_555 1_555
H20 C18 1_555 1_555
C19 C16 1_555 1_555
H21 C19 1_555 1_555
C20 N4 1_555 1_555
H22 C20 1_555 1_555
C21 H23 1_555 1_555
C22 C21 1_555 1_555
H24 C22 1_555 1_555
C23 N5 1_555 1_555
H25 C23 1_555 1_555
C24 C23 1_555 1_555
H26 C24 1_555 1_555
C25 C22 1_555 1_555
C26 C25 1_555 1_555
C27 C26 1_555 1_555
H27 C27 1_555 1_555
C28 C27 1_555 1_555
H28 C28 1_555 1_555
C29 C26 1_555 1_555
H29 C29 1_555 1_555
C30 N6 1_555 1_555
H30 C30 1_555 1_555
C31 N7 1_555 1_555
H31 C31 1_555 1_555
C32 C31 1_555 1_555
H32 C32 1_555 1_555
C33 N7 1_555 1_555
H33 C33 1_555 1_555
C34 C33 1_555 1_555
H34 C34 1_555 1_555
C35 C32 1_555 1_555
C36 C35 1_555 1_555
C37 C36 1_555 1_555
H35 C37 1_555 1_555
C38 C37 1_555 1_555
H36 C38 1_555 1_555
C39 N8 1_555 1_555
H37 C39 1_555 1_555
C40 C36 1_555 1_555
H38 C40 1_555 1_555
C41 N13 1_555 1_555
C42 N13 1_555 1_555
Pb1_2 O2 1_555 1_555
Pb1A O3 1_555 1_555
Pb1_3 O4 1_555 1_555
Pb2_2 O6 1_555 1_555
Pb2A O7 1_555 1_555
Pb2_3 O8 1_555 1_555
O2_2 Pb1 1_555 1_555
O3A Pb1 1_555 1_555
O4_2 Pb1 1_555 1_555
O6_2 Pb2 1_555 1_555
O7A Pb2 1_555 1_555
O8_2 Pb2 1_555 1_555
O13 N10 1_555 1_555
O16 N11 1_555 1_555
C4 C5 1_555 1_555
C9 C10 1_555 1_555
C14 C15 1_555 1_555
C19 C20 1_555 1_555
C24 C25 1_555 1_555
C29 C30 1_555 1_555
C34 C35 1_555 1_555
C39 C40 1_555 1_555
Pb1A O3A 1_555 1_555
Pb2A O7A 1_555 1_555

#END
