
#######################################################################
#
#                 Cambridge Crystallographic Data Centre
#                                CCDC 
#
#######################################################################
#
# If this CIF has been generated from an entry in the Cambridge 
# Structural Database, then it will include bibliographic, chemical, 
# crystal, experimental, refinement or atomic coordinate data resulting 
# from the CCDC's data processing and validation procedures.
#
#######################################################################

data_WARLOR
_symmetry_cell_setting           triclinic
_symmetry_space_group_name_H-M   'P -1'
_symmetry_Int_Tables_number      2
_space_group_name_Hall           '-P 1'
loop_
_symmetry_equiv_pos_site_id
_symmetry_equiv_pos_as_xyz
1 x,y,z
2 -x,-y,-z
_cell_length_a                   7.6722(15)
_cell_length_b                   10.600(2)
_cell_length_c                   13.271(3)
_cell_angle_alpha                72.81(3)
_cell_angle_beta                 84.64(3)
_cell_angle_gamma                87.28(3)
_cell_volume                     1026.33
loop_
_atom_site_label
_atom_site_type_symbol
_atom_site_fract_x
_atom_site_fract_y
_atom_site_fract_z
Cu1 Cu -0.43747(6) 0.11710(4) 0.30374(4)
O1 O -0.6853(4) 0.0779(3) 0.4185(2)
H1 H -0.789(3) 0.099(5) 0.403(3)
H2 H -0.676(5) 0.071(5) 0.4830(14)
O3 O -0.1398(5) 0.1586(3) 0.1644(3)
H5 H -0.149(8) 0.0766(15) 0.171(4)
H6 H -0.091(7) 0.167(4) 0.217(3)
O4 O -0.9219(5) 0.4723(3) 0.1505(3)
H7 H -0.941(9) 0.547(3) 0.107(4)
O5 O -0.6604(5) 0.1665(3) -0.0682(3)
H8 H -0.690(8) 0.129(5) -0.113(4)
O6 O -0.3118(3) 0.1897(2) 0.3967(2)
O7 O -0.0322(4) 0.1338(3) 0.3610(2)
O8 O -0.2116(4) 0.3146(2) 0.5388(2)
O9 O -0.3469(3) 0.9357(2) 0.3679(2)
O10 O -0.2171(4) 0.8989(3) 0.2212(2)
N1 N -0.5195(4) 0.3046(3) 0.2327(3)
N2 N -0.5693(4) 0.0509(3) 0.2041(3)
C1 C -0.6881(6) 0.3323(4) 0.2173(3)
H9 H -0.7684 0.2649 0.2436
C2 C -0.7489(6) 0.4571(4) 0.1639(4)
C3 C -0.6294(7) 0.5575(4) 0.1276(4)
H10 H -0.6652 0.6429 0.0921
C4 C -0.4562(8) 0.5281(5) 0.1451(5)
H11 H -0.3738 0.5943 0.1216
C5 C -0.4040(6) 0.4014(4) 0.1973(4)
H12 H -0.2863 0.3829 0.2080
C6 C -0.5711(5) 0.1181(4) 0.1017(3)
H13 H -0.5029 0.1929 0.0758
C7 C -0.6677(5) 0.0831(4) 0.0327(3)
C8 C -0.7663(6) -0.0296(4) 0.0698(4)
H14 H -0.8326 -0.0564 0.0249
C9 C -0.7642(6) -0.1012(4) 0.1746(4)
H15 H -0.8292 -0.1776 0.2014
C10 C -0.6647(5) -0.0593(4) 0.2403(3)
H16 H -0.6638 -0.1085 0.3110
C11 C -0.1517(5) 0.1815(3) 0.4112(3)
C12 C -0.0923(5) 0.2305(4) 0.4991(3)
H17 H -0.0662 0.1541 0.5577
H18 H 0.0161 0.2773 0.4731
C13 C -0.2190(5) 0.4450(4) 0.4809(3)
C14 C -0.3183(5) 0.5289(4) 0.5298(3)
H19 H -0.3705 0.4950 0.5981
C15 C -0.1413(5) 0.4969(4) 0.3799(3)
H20 H -0.0756 0.4424 0.3467
C16 C -0.1608(5) 0.6303(4) 0.3277(3)
H21 H -0.1073 0.6641 0.2597
C17 C -0.3388(5) 0.6615(4) 0.4769(3)
H22 H -0.4064 0.7158 0.5095
C18 C -0.2590(5) 0.7150(4) 0.3749(3)
C19 C -0.2744(5) 0.8586(4) 0.3172(3)
Cu1_2 Cu -0.43747(6) 1.11710(4) 0.30374(4)
O9_2 O -0.3469(3) -0.0643(2) 0.3679(2)
O2 O -0.0031(5) 0.2925(4) -0.0297(3)
H3 H -0.0464 0.2495 0.0308
H4 H 0.1006 0.2619 -0.0297
loop_
_geom_bond_atom_site_label_1
_geom_bond_atom_site_label_2
_geom_bond_site_symmetry_1
_geom_bond_site_symmetry_2
Cu1 O1 1_555 1_555
O1 H1 1_555 1_555
H2 O1 1_555 1_555
O2 H3 1_555 1_555
H4 O2 1_555 1_555
O3 Cu1 1_555 1_555
H5 O3 1_555 1_555
H6 O3 1_555 1_555
O4 H7 1_555 1_555
O5 H8 1_555 1_555
O6 Cu1 1_555 1_555
O7 C11 1_555 1_555
O8 C12 1_555 1_555
O9 C19 1_555 1_555
O10 C19 1_555 1_555
N1 Cu1 1_555 1_555
N2 Cu1 1_555 1_555
C1 N1 1_555 1_555
H9 C1 1_555 1_555
C2 O4 1_555 1_555
C3 C2 1_555 1_555
H10 C3 1_555 1_555
C4 C3 1_555 1_555
H11 C4 1_555 1_555
C5 N1 1_555 1_555
H12 C5 1_555 1_555
C6 N2 1_555 1_555
H13 C6 1_555 1_555
C7 O5 1_555 1_555
C8 C7 1_555 1_555
H14 C8 1_555 1_555
C9 C8 1_555 1_555
H15 C9 1_555 1_555
C10 N2 1_555 1_555
H16 C10 1_555 1_555
C11 O6 1_555 1_555
C12 C11 1_555 1_555
H17 C12 1_555 1_555
H18 C12 1_555 1_555
C13 O8 1_555 1_555
C14 C13 1_555 1_555
H19 C14 1_555 1_555
C15 C13 1_555 1_555
H20 C15 1_555 1_555
C16 C15 1_555 1_555
H21 C16 1_555 1_555
C17 C14 1_555 1_555
H22 C17 1_555 1_555
C18 C16 1_555 1_555
C19 C18 1_555 1_555
Cu1_2 O9 1_555 1_555
O9_2 Cu1 1_555 1_555
C1 C2 1_555 1_555
C4 C5 1_555 1_555
C6 C7 1_555 1_555
C9 C10 1_555 1_555
C17 C18 1_555 1_555

#END
