
#######################################################################
#
#                 Cambridge Crystallographic Data Centre
#                                CCDC 
#
#######################################################################
#
# If this CIF has been generated from an entry in the Cambridge 
# Structural Database, then it will include bibliographic, chemical, 
# crystal, experimental, refinement or atomic coordinate data resulting 
# from the CCDC's data processing and validation procedures.
#
#######################################################################

data_WARPAH
_symmetry_cell_setting           monoclinic
_symmetry_space_group_name_H-M   'P 21'
_symmetry_Int_Tables_number      4
_space_group_name_Hall           'P 2yb'
loop_
_symmetry_equiv_pos_site_id
_symmetry_equiv_pos_as_xyz
1 x,y,z
2 -x,1/2+y,-z
_cell_length_a                   8.0833(7)
_cell_length_b                   11.5444(10)
_cell_length_c                   10.5565(9)
_cell_angle_alpha                90
_cell_angle_beta                 108.335(2)
_cell_angle_gamma                90
_cell_volume                     935.089
loop_
_atom_site_label
_atom_site_type_symbol
_atom_site_fract_x
_atom_site_fract_y
_atom_site_fract_z
Cu1 Cu 0.60758(4) 0.33336(3) 0.05187(3)
V1 V 0.89275(6) 0.16316(4) -0.07648(5)
P1 P 0.86191(9) 0.44769(6) -0.08633(7)
P2 P 0.71667(9) 0.73007(6) -0.12898(7)
O1 O 0.7351(3) 0.17708(18) -0.0119(2)
O2 O 0.8147(3) 0.11475(19) -0.2273(2)
O3 O 0.9003(2) 0.32587(18) -0.12476(19)
O4 O 1.0371(3) 0.50452(17) -0.0070(2)
O5 O 0.7314(3) 0.45122(18) -0.0095(2)
O6 O 0.8545(3) 0.68934(17) -0.0041(2)
O7 O 0.5354(3) 0.7308(2) -0.1187(2)
O8 O 0.7646(3) 0.85111(19) -0.1745(2)
H1 H 0.8480 0.8798 -0.1135
N1 N 0.4169(3) 0.3402(2) -0.1232(2)
N2 N -0.2157(3) 0.3398(2) -0.7618(2)
C1 C 0.3525(4) 0.2404(3) -0.1837(3)
H2 H 0.3949 0.1695 -0.1399
C2 C 0.2259(4) 0.2371(3) -0.3083(3)
H3 H 0.1839 0.1650 -0.3492
C3 C 0.1617(3) 0.3402(3) -0.3721(3)
C4 C 0.2249(4) 0.4437(3) -0.3060(3)
H4 H 0.1803 0.5159 -0.3452
C5 C 0.3530(4) 0.4404(3) -0.1827(3)
H5 H 0.3967 0.5111 -0.1391
C6 C -0.2172(4) 0.2583(2) -0.6702(3)
H6 H -0.3045 0.1999 -0.6941
C7 C -0.0984(4) 0.2559(3) -0.5444(3)
H7 H -0.1041 0.1967 -0.4834
C8 C 0.0308(3) 0.3410(3) -0.5064(3)
C9 C 0.0333(4) 0.4246(3) -0.6005(3)
H8 H 0.1200 0.4834 -0.5792
C10 C -0.0908(4) 0.4218(3) -0.7251(3)
H9 H -0.0881 0.4803 -0.7877
C11 C 0.7052(4) 0.6348(2) -0.2659(3)
C12 C 0.6147(4) 0.6746(3) -0.3938(3)
H10 H 0.5815 0.7537 -0.4058
C13 C 0.5720(5) 0.6020(3) -0.5031(3)
H11 H 0.5058 0.6298 -0.5888
C14 C 0.6282(5) 0.4867(3) -0.4853(3)
H12 H 0.6019 0.4356 -0.5595
C15 C 0.7216(4) 0.4474(3) -0.3598(3)
H13 H 0.7598 0.3691 -0.3496
C16 C 0.7619(4) 0.5187(2) -0.2471(3)
Cu1A Cu 0.39242(4) 0.83336(3) -0.05187(3)
Cu1_2 Cu -0.39242(4) 0.33336(3) -0.94813(3)
V1A V 1.10725(6) 0.66316(4) 0.07648(5)
O4A O 0.9629(3) 0.00452(17) 0.0070(2)
O6A O 1.1455(3) 0.18934(17) 0.0041(2)
O7A O 0.4646(3) 0.2308(2) 0.1187(2)
N2_2 N 0.7843(3) 0.3398(2) 0.2382(2)
loop_
_geom_bond_atom_site_label_1
_geom_bond_atom_site_label_2
_geom_bond_site_symmetry_1
_geom_bond_site_symmetry_2
Cu1 O1 1_555 1_555
V1 O1 1_555 1_555
P1 O3 1_555 1_555
P2 O6 1_555 1_555
O2 V1 1_555 1_555
O3 V1 1_555 1_555
O4 P1 1_555 1_555
O5 Cu1 1_555 1_555
O6 V1A 1_555 1_555
O7 P2 1_555 1_555
O8 P2 1_555 1_555
H1 O8 1_555 1_555
N1 Cu1 1_555 1_555
N2 C6 1_555 1_555
C1 N1 1_555 1_555
H2 C1 1_555 1_555
C2 C1 1_555 1_555
H3 C2 1_555 1_555
C3 C2 1_555 1_555
C4 C3 1_555 1_555
H4 C4 1_555 1_555
C5 N1 1_555 1_555
H5 C5 1_555 1_555
C6 H6 1_555 1_555
C7 C6 1_555 1_555
H7 C7 1_555 1_555
C8 C3 1_555 1_555
C9 C8 1_555 1_555
H8 C9 1_555 1_555
C10 N2 1_555 1_555
H9 C10 1_555 1_555
C11 P2 1_555 1_555
C12 C11 1_555 1_555
H10 C12 1_555 1_555
C13 C12 1_555 1_555
H11 C13 1_555 1_555
C14 C13 1_555 1_555
H12 C14 1_555 1_555
C15 C14 1_555 1_555
H13 C15 1_555 1_555
C16 P1 1_555 1_555
Cu1A O7 1_555 1_555
Cu1_2 N2 1_555 1_555
V1A O4 1_555 1_555
O4A V1 1_555 1_555
O6A V1 1_555 1_555
O7A Cu1 1_555 1_555
N2_2 Cu1 1_555 1_555
P1 O5 1_555 1_555
C4 C5 1_555 1_555
C7 C8 1_555 1_555
C9 C10 1_555 1_555
C11 C16 1_555 1_555
C15 C16 1_555 1_555

#END
