
#######################################################################
#
#                 Cambridge Crystallographic Data Centre
#                                CCDC 
#
#######################################################################
#
# If this CIF has been generated from an entry in the Cambridge 
# Structural Database, then it will include bibliographic, chemical, 
# crystal, experimental, refinement or atomic coordinate data resulting 
# from the CCDC's data processing and validation procedures.
#
#######################################################################

data_WARPEL
_symmetry_cell_setting           orthorhombic
_symmetry_space_group_name_H-M   'F d d 2'
_symmetry_Int_Tables_number      43
_space_group_name_Hall           'F 2 -2d'
loop_
_symmetry_equiv_pos_site_id
_symmetry_equiv_pos_as_xyz
1 x,y,z
2 -x,-y,z
3 1/4+x,1/4-y,1/4+z
4 1/4-x,1/4+y,1/4+z
5 x,1/2+y,1/2+z
6 -x,1/2-y,1/2+z
7 1/4+x,3/4-y,3/4+z
8 1/4-x,3/4+y,3/4+z
9 1/2+x,y,1/2+z
10 1/2-x,-y,1/2+z
11 3/4+x,1/4-y,3/4+z
12 3/4-x,1/4+y,3/4+z
13 1/2+x,1/2+y,z
14 1/2-x,1/2-y,z
15 3/4+x,3/4-y,1/4+z
16 3/4-x,3/4+y,1/4+z
_cell_length_a                   20.7505(10)
_cell_length_b                   45.726(2)
_cell_length_c                   6.0304(3)
_cell_angle_alpha                90
_cell_angle_beta                 90
_cell_angle_gamma                90
_cell_volume                     5721.87
loop_
_atom_site_label
_atom_site_type_symbol
_atom_site_fract_x
_atom_site_fract_y
_atom_site_fract_z
Cu1 Cu 0.42743(2) 0.158450(10) 0.16129(7)
Cu2 Cu 0.60860(2) 0.139940(10) -0.30377(8)
P1 P 0.47155(4) 0.15848(2) -0.34914(17)
P2 P 0.57091(4) 0.14697(2) 0.21152(16)
O1 O 0.44350(13) 0.17133(6) -0.1369(4)
O2 O 0.51590(11) 0.13240(5) -0.3135(5)
O3 O 0.41676(12) 0.15218(6) 0.4853(4)
O4 O 0.61223(12) 0.12984(6) -0.6200(4)
O5 O 0.60909(13) 0.15188(6) 0.0007(4)
O6 O 0.50476(12) 0.13307(5) 0.1783(5)
O8 O 0.69164(14) 0.16142(7) -0.3498(6)
H1 H 0.7043 0.1683 -0.2284
N1 N 0.35958(14) 0.19048(7) 0.1769(6)
C1 C 0.35296(19) 0.20818(9) 0.3536(7)
H2 H 0.3781 0.2044 0.4821
C2 C 0.31107(18) 0.23158(9) 0.3549(6)
H3 H 0.3084 0.2438 0.4821
C3 C 0.27296(17) 0.23737(8) 0.1719(7)
C4 C 0.27807(18) 0.21856(8) -0.0079(6)
H4 H 0.2515 0.2213 -0.1346
C5 C 0.32195(19) 0.19592(9) -0.0012(7)
H5 H 0.3259 0.1836 -0.1274
C6 C 0.52028(18) 0.18744(8) 0.5260(6)
C7 C 0.51905(19) 0.21484(8) 0.6265(6)
H6 H 0.4951 0.2176 0.7592
C8 C 0.55241(19) 0.23824(9) 0.5348(7)
H7 H 0.5513 0.2569 0.6047
C9 C 0.5873(2) 0.23435(9) 0.3409(7)
H8 H 0.6091 0.2504 0.2754
C10 C 0.59034(19) 0.20691(8) 0.2423(7)
H9 H 0.6144 0.2044 0.1097
C11 C 0.55860(18) 0.18307(8) 0.3349(6)
H10 H 0.714(3) 0.1501(11) -0.385(10)
Cu1B Cu 0.67743(2) 0.091550(10) -0.58871(7)
Cu1B_2 Cu 0.67743(2) 0.091550(10) 0.41129(7)
Cu1_2 Cu 0.42743(2) 0.158450(10) 1.16129(7)
Cu1_3 Cu 0.42743(2) 0.158450(10) -0.83871(7)
Cu1M Cu 0.07257(2) 0.341550(10) 0.16129(7)
Cu2J Cu 0.35860(2) 0.110060(10) 0.44623(8)
Cu2_2 Cu 0.60860(2) 0.139940(10) 0.69623(8)
Cu2J_2 Cu 0.35860(2) 0.110060(10) -0.55377(8)
Cu2_3 Cu 0.60860(2) 0.139940(10) -1.30377(8)
P1_2 P 0.47155(4) 0.15848(2) 0.65086(17)
P2_2 P 0.57091(4) 0.14697(2) -0.78848(16)
O1_2 O 0.44350(13) 0.17133(6) 0.8631(4)
O2_2 O 0.51590(11) 0.13240(5) 0.6865(5)
O3B O 0.66676(12) 0.09782(6) -0.2647(4)
O3_2 O 0.41676(12) 0.15218(6) -0.5147(4)
O3B_2 O 0.66676(12) 0.09782(6) 0.7353(4)
O3_3 O 0.41676(12) 0.15218(6) 1.4853(4)
O4_2 O 0.61223(12) 0.12984(6) 0.3800(4)
O4J O 0.36223(12) 0.12016(6) 0.1300(4)
O4J_2 O 0.36223(12) 0.12016(6) 1.1300(4)
O5_2 O 0.60909(13) 0.15188(6) 1.0007(4)
O5_3 O 0.60909(13) 0.15188(6) -0.9993(4)
O6_2 O 0.50476(12) 0.13307(5) 1.1783(5)
O6_3 O 0.50476(12) 0.13307(5) -0.8217(5)
O8_2 O 0.69164(14) 0.16142(7) 0.6502(6)
H1_2 H 0.7043 0.1683 0.7716
N1_2 N 0.35958(14) 0.19048(7) 1.1769(6)
N1M N 0.14042(14) 0.30952(7) 0.1769(6)
C1M C 0.14704(19) 0.29182(9) 0.3536(7)
H2M H 0.1219 0.2956 0.4821
C2M C 0.18893(18) 0.26842(9) 0.3549(6)
H3M H 0.1916 0.2562 0.4821
C3M C 0.22704(17) 0.26263(8) 0.1719(7)
C4M C 0.22193(18) 0.28144(8) -0.0079(6)
H4M H 0.2485 0.2787 -0.1346
C5M C 0.17805(19) 0.30408(9) -0.0012(7)
H5M H 0.1741 0.3164 -0.1274
C6_2 C 0.52028(18) 0.18744(8) -0.4740(6)
C7_2 C 0.51905(19) 0.21484(8) -0.3735(6)
H6_2 H 0.4951 0.2176 -0.2408
C8_2 C 0.55241(19) 0.23824(9) -0.4652(7)
H7_2 H 0.5513 0.2569 -0.3953
C9_2 C 0.5873(2) 0.23435(9) -0.6591(7)
H8_2 H 0.6091 0.2504 -0.7246
C10_2 C 0.59034(19) 0.20691(8) -0.7577(7)
H9_2 H 0.6144 0.2044 -0.8903
C11_2 C 0.55860(18) 0.18307(8) -0.6651(6)
H10_2 H 0.714(3) 0.1501(11) 0.615(10)
O7 O 0.23886(16) 0.17308(8) 0.5783(6)
H11 H 0.256(3) 0.1535(15) 0.558(12)
H12 H 0.210(3) 0.1664(15) 0.689(15)
loop_
_geom_bond_atom_site_label_1
_geom_bond_atom_site_label_2
_geom_bond_site_symmetry_1
_geom_bond_site_symmetry_2
Cu1 O1 1_555 1_555
Cu2 O2 1_555 1_555
P1 O1 1_555 1_555
P2 O5 1_555 1_555
O2 P1 1_555 1_555
O3 Cu1 1_555 1_555
O4 Cu2 1_555 1_555
O5 Cu2 1_555 1_555
O6 Cu1 1_555 1_555
O7 H11 1_555 1_555
O8 Cu2 1_555 1_555
H1 O8 1_555 1_555
N1 Cu1 1_555 1_555
C1 N1 1_555 1_555
H2 C1 1_555 1_555
C2 C1 1_555 1_555
H3 C2 1_555 1_555
C3 C2 1_555 1_555
C4 C3 1_555 1_555
H4 C4 1_555 1_555
C5 N1 1_555 1_555
H5 C5 1_555 1_555
C6 C7 1_555 1_555
C7 H6 1_555 1_555
C8 C7 1_555 1_555
H7 C8 1_555 1_555
C9 C8 1_555 1_555
H8 C9 1_555 1_555
C10 C9 1_555 1_555
H9 C10 1_555 1_555
C11 P2 1_555 1_555
H10 O8 1_555 1_555
H12 O7 1_555 1_555
Cu1B O4 1_555 1_555
Cu1B_2 O3B_2 1_555 1_555
Cu1_2 O1_2 1_555 1_555
Cu1_3 O3_2 1_555 1_555
Cu1M N1M 1_555 1_555
Cu2J O3 1_555 1_555
Cu2_2 O2_2 1_555 1_555
Cu2J_2 O3_2 1_555 1_555
Cu2_3 O5_3 1_555 1_555
P1_2 O3 1_555 1_555
P2_2 O4 1_555 1_555
O1_2 P1_2 1_555 1_555
O2_2 P1_2 1_555 1_555
O3B Cu2 1_555 1_555
O3_2 P1 1_555 1_555
O3B_2 Cu2_2 1_555 1_555
O3_3 Cu1_2 1_555 1_555
O4_2 P2 1_555 1_555
O4J Cu1 1_555 1_555
O4J_2 Cu1_2 1_555 1_555
O5_2 Cu2_2 1_555 1_555
O5_3 P2_2 1_555 1_555
O6_2 Cu1_2 1_555 1_555
O6_3 Cu1_3 1_555 1_555
O8_2 Cu2_2 1_555 1_555
H1_2 O8_2 1_555 1_555
N1_2 Cu1_2 1_555 1_555
N1M C1M 1_555 1_555
C1M H2M 1_555 1_555
C2M C1M 1_555 1_555
H3M C2M 1_555 1_555
C3M C3 1_555 1_555
C4M C3M 1_555 1_555
H4M C4M 1_555 1_555
C5M N1M 1_555 1_555
H5M C5M 1_555 1_555
C6_2 P1 1_555 1_555
C7_2 C6_2 1_555 1_555
H6_2 C7_2 1_555 1_555
C8_2 C7_2 1_555 1_555
H7_2 C8_2 1_555 1_555
C9_2 C8_2 1_555 1_555
H8_2 C9_2 1_555 1_555
C10_2 C9_2 1_555 1_555
H9_2 C10_2 1_555 1_555
C11_2 P2_2 1_555 1_555
H10_2 O8_2 1_555 1_555
P2 O6 1_555 1_555
C4 C5 1_555 1_555
C6 C11 1_555 1_555
C6 P1_2 1_555 1_555
C10 C11 1_555 1_555
Cu1B O3B 1_555 1_555
Cu1B_2 O4_2 1_555 1_555
Cu2J O4J 1_555 1_555
Cu2_2 O4_2 1_555 1_555
P2_2 O6_3 1_555 1_555
C2M C3M 1_555 1_555
C4M C5M 1_555 1_555
C6_2 C11_2 1_555 1_555
C10_2 C11_2 1_555 1_555

#END
