
#######################################################################
#
#                 Cambridge Crystallographic Data Centre
#                                CCDC 
#
#######################################################################
#
# If this CIF has been generated from an entry in the Cambridge 
# Structural Database, then it will include bibliographic, chemical, 
# crystal, experimental, refinement or atomic coordinate data resulting 
# from the CCDC's data processing and validation procedures.
#
#######################################################################

data_WARSEO01
_symmetry_cell_setting           monoclinic
_symmetry_space_group_name_H-M   'P 21/c'
_symmetry_Int_Tables_number      14
_space_group_name_Hall           '-P 2ybc'
loop_
_symmetry_equiv_pos_site_id
_symmetry_equiv_pos_as_xyz
1 x,y,z
2 -x,1/2+y,1/2-z
3 -x,-y,-z
4 x,1/2-y,1/2+z
_cell_length_a                   9.4786(6)
_cell_length_b                   18.9589(11)
_cell_length_c                   10.7557(6)
_cell_angle_alpha                90
_cell_angle_beta                 92.313(1)
_cell_angle_gamma                90
_cell_volume                     1931.27
loop_
_atom_site_label
_atom_site_type_symbol
_atom_site_fract_x
_atom_site_fract_y
_atom_site_fract_z
O1 O 0.5962(2) 0.55792(12) -0.1958(2)
Gd1 Gd 0.752460(15) 0.509995(7) -0.043256(12)
C1 C 0.7433(3) 0.60647(16) 0.1627(3)
C2 C 0.7397(3) 0.64748(17) 0.2816(3)
O2 O 0.8820(3) 0.47313(14) -0.2220(2)
O3 O 0.3942(2) 0.53715(12) -0.10665(18)
O4 O 0.9145(2) 0.42758(11) 0.0353(2)
O5 O 0.6381(2) 0.40567(12) -0.1344(2)
C3 C 0.6672(4) 0.71045(18) 0.2911(3)
H1 H 0.6153 0.7285 0.2232
N1 N 0.7408(4) 0.7220(2) 0.5057(3)
C4 C 0.6733(4) 0.7460(2) 0.4033(4)
H2 H 0.6275 0.7893 0.4076
C5 C 0.4646(3) 0.55342(15) -0.1983(3)
N2 N 0.2473(4) 0.57540(18) -0.5549(3)
C6 C 0.2422(4) 0.56044(18) -0.3345(3)
H3 H 0.1883 0.5533 -0.2652
C7 C 0.3870(3) 0.56572(16) -0.3216(3)
C8 C 0.1788(4) 0.5658(2) -0.4511(3)
H4 H 0.0809 0.5626 -0.4578
C9 C 0.8133(4) 0.6229(2) 0.3861(3)
H5 H 0.8658 0.5816 0.3833
C10 C 0.8074(5) 0.6613(3) 0.4954(4)
H6 H 0.8534 0.6430 0.5663
O6 O 1.1211(2) 0.38840(11) 0.1093(2)
C11 C 0.9197(3) 0.31977(15) 0.1482(3)
C12 C 0.9910(3) 0.38314(15) 0.0928(3)
C13 C 0.4607(4) 0.5785(2) -0.4275(3)
H7 H 0.5581 0.5847 -0.4225
C14 C 0.3870(5) 0.5821(2) -0.5414(3)
H8 H 0.4380 0.5895 -0.6123
O7 O 0.6452(2) 0.61156(11) 0.08095(19)
O8 O 0.8464(2) 0.56526(11) 0.14872(19)
N3 N 0.7840(3) 0.20752(15) 0.2622(3)
C15 C 0.9898(3) 0.27771(17) 0.2350(3)
H9 H 1.0844 0.2859 0.2565
C16 C 0.7804(4) 0.30338(18) 0.1172(3)
H10 H 0.7292 0.3298 0.0581
C17 C 0.9179(4) 0.22308(18) 0.2898(3)
H11 H 0.9663 0.1958 0.3493
C18 C 0.7191(4) 0.24716(19) 0.1757(4)
H12 H 0.6260 0.2362 0.1530
H13 H 0.846(4) 0.456(2) -0.286(2)
H14 H 0.561(2) 0.3912(19) -0.114(3)
H15 H 0.962(2) 0.458(2) -0.215(4)
H16 H 0.677(4) 0.3713(14) -0.164(3)
Gd1B Gd 0.247540(15) 0.490005(7) 0.043256(12)
Gd1B_2 Gd 1.247540(15) 0.490005(7) 0.043256(12)
O3B O 0.6058(2) 0.46285(12) 0.10665(18)
O6B O 0.8789(2) 0.61160(11) -0.1093(2)
loop_
_geom_bond_atom_site_label_1
_geom_bond_atom_site_label_2
_geom_bond_site_symmetry_1
_geom_bond_site_symmetry_2
O1 Gd1 1_555 1_555
Gd1 O2 1_555 1_555
C1 C2 1_555 1_555
C2 C3 1_555 1_555
O2 H13 1_555 1_555
O3 C5 1_555 1_555
O4 Gd1 1_555 1_555
O5 Gd1 1_555 1_555
C3 H1 1_555 1_555
N1 C4 1_555 1_555
C4 C3 1_555 1_555
H2 C4 1_555 1_555
C5 O1 1_555 1_555
N2 C8 1_555 1_555
C6 H3 1_555 1_555
C7 C5 1_555 1_555
C8 C6 1_555 1_555
H4 C8 1_555 1_555
C9 C2 1_555 1_555
H5 C9 1_555 1_555
C10 N1 1_555 1_555
H6 C10 1_555 1_555
O6 C12 1_555 1_555
C11 C12 1_555 1_555
C12 O4 1_555 1_555
C13 C7 1_555 1_555
H7 C13 1_555 1_555
C14 N2 1_555 1_555
H8 C14 1_555 1_555
O7 Gd1 1_555 1_555
O8 Gd1 1_555 1_555
N3 C17 1_555 1_555
C15 C11 1_555 1_555
H9 C15 1_555 1_555
C16 C11 1_555 1_555
H10 C16 1_555 1_555
C17 C15 1_555 1_555
H11 C17 1_555 1_555
C18 N3 1_555 1_555
H12 C18 1_555 1_555
H14 O5 1_555 1_555
H15 O2 1_555 1_555
H16 O5 1_555 1_555
Gd1B O3 1_555 1_555
Gd1B_2 O6 1_555 1_555
O3B Gd1 1_555 1_555
O6B Gd1 1_555 1_555
C1 O7 1_555 1_555
C1 O8 1_555 1_555
C6 C7 1_555 1_555
C9 C10 1_555 1_555
C13 C14 1_555 1_555
C16 C18 1_555 1_555

#END
