
#######################################################################
#
#                 Cambridge Crystallographic Data Centre
#                                CCDC 
#
#######################################################################
#
# If this CIF has been generated from an entry in the Cambridge 
# Structural Database, then it will include bibliographic, chemical, 
# crystal, experimental, refinement or atomic coordinate data resulting 
# from the CCDC's data processing and validation procedures.
#
#######################################################################

data_WARSUE
_symmetry_cell_setting           monoclinic
_symmetry_space_group_name_H-M   'C 2/c'
_symmetry_Int_Tables_number      15
_space_group_name_Hall           '-C 2yn'
loop_
_symmetry_equiv_pos_site_id
_symmetry_equiv_pos_as_xyz
1 x,y,z
2 1/2+x,1/2+y,z
3 -x,y,1/2-z
4 1/2-x,1/2+y,1/2-z
5 -x,-y,-z
6 1/2-x,1/2-y,-z
7 x,-y,1/2+z
8 1/2+x,1/2-y,1/2+z
_cell_length_a                   13.1888(13)
_cell_length_b                   24.230(2)
_cell_length_c                   15.4218(17)
_cell_angle_alpha                90
_cell_angle_beta                 93.291(6)
_cell_angle_gamma                90
_cell_volume                     4920.13
loop_
_atom_site_label
_atom_site_type_symbol
_atom_site_fract_x
_atom_site_fract_y
_atom_site_fract_z
Co1 Co 0.5000 0.22491(2) -0.2500
S1 S 0.85081(14) 0.24955(10) -0.1543(2)
O1 O 0.1219(2) 0.03650(10) 0.01270(15)
N1 N 0.6519(2) 0.22603(12) -0.2059(2)
C1 C 0.7343(4) 0.23501(17) -0.1861(3)
O2 O 0.3391(2) 0.03317(10) 0.06141(15)
N2 N 0.0300(2) 0.21147(11) 0.15293(18)
C2 C -0.0037(3) 0.17062(15) 0.0137(2)
H1 H -0.0384 0.1722 -0.0405
N3 N 0.4621(2) 0.16512(11) -0.15094(19)
C3 C -0.0182(3) 0.21077(14) 0.0734(2)
H2 H -0.0635 0.2391 0.0587
C4 C 0.0955(3) 0.17023(14) 0.1709(2)
H3 H 0.1308 0.1701 0.2249
C5 C 0.1134(3) 0.12802(14) 0.1142(2)
H4 H 0.1594 0.1002 0.1302
C6 C 0.0627(3) 0.12733(13) 0.0335(2)
C7 C 0.0746(3) 0.08155(15) -0.0303(2)
H5 H 0.0085 0.0706 -0.0554
H6 H 0.1154 0.0940 -0.0769
C8 C 0.1444(3) -0.00881(14) -0.0356(2)
C9 C 0.1102(3) -0.01657(16) -0.1213(2)
H7 H 0.0703 0.0102 -0.1500
C10 C 0.1356(4) -0.06404(18) -0.1639(3)
H8 H 0.1121 -0.0692 -0.2213
C11 C 0.1943(4) -0.10356(18) -0.1236(3)
H9 H 0.2126 -0.1349 -0.1537
C12 C 0.2269(3) -0.09664(16) -0.0369(3)
H10 H 0.2644 -0.1245 -0.0086
C13 C 0.2045(3) -0.04881(14) 0.0083(2)
C14 C 0.2408(3) -0.04210(14) 0.1003(2)
C15 C 0.2120(3) -0.07956(16) 0.1626(3)
H11 H 0.1675 -0.1080 0.1464
C16 C 0.2485(3) -0.07527(18) 0.2483(3)
H12 H 0.2282 -0.1007 0.2890
C17 C 0.3140(3) -0.03401(19) 0.2734(3)
H13 H 0.3379 -0.0311 0.3312
C18 C 0.3451(3) 0.00380(17) 0.2123(2)
H14 H 0.3901 0.0319 0.2292
C19 C 0.3092(3) -0.00036(14) 0.1265(2)
C20 C 0.4137(3) 0.07371(17) 0.0813(2)
H15 H 0.4768 0.0565 0.1025
H16 H 0.3914 0.0985 0.1258
C21 C 0.4290(3) 0.10491(15) -0.0009(2)
C22 C 0.3607(3) 0.14420(17) -0.0321(3)
H17 H 0.3022 0.1511 -0.0030
C23 C 0.3791(3) 0.17305(15) -0.1060(3)
H18 H 0.8319 0.3007 -0.6259
C24 C 1.0264(3) 0.37418(15) -0.6223(3)
H19 H 1.0833 0.3813 -0.6534
C25 C 0.5122(3) 0.09534(15) -0.0489(3)
H20 H 0.5589 0.0682 -0.0315
Co1G Co 0.0000 0.27509(2) 0.2500
Co1G_2 Co 1.0000 0.27509(2) -0.7500
S1B S 0.14919(14) 0.24955(10) -0.3457(2)
O1G O 0.6219(2) 0.46350(10) -0.48730(15)
N1B N 0.3481(2) 0.22603(12) -0.2941(2)
C1B C 0.2657(4) 0.23501(17) -0.3139(3)
O2G O 0.8391(2) 0.46683(10) -0.43859(15)
N2G N 0.5300(2) 0.28853(11) -0.34707(18)
N2E N 0.4700(2) 0.28853(11) -0.15293(18)
C2G C 0.4963(3) 0.32938(15) -0.4863(2)
H1G H 0.4616 0.3278 -0.5405
N3G N 0.9621(2) 0.33488(11) -0.65094(19)
N3B N 0.5379(2) 0.16512(11) -0.34906(19)
C3G C 0.4818(3) 0.28923(14) -0.4266(2)
H2G H 0.4365 0.2609 -0.4413
C4G C 0.5955(3) 0.32977(14) -0.3291(2)
H3G H 0.6308 0.3299 -0.2751
C5G C 0.6134(3) 0.37198(14) -0.3858(2)
H4G H 0.6594 0.3998 -0.3698
C6G C 0.5627(3) 0.37267(13) -0.4665(2)
C7G C 0.5746(3) 0.41845(15) -0.5303(2)
H5G H 0.5085 0.4294 -0.5554
H6G H 0.6154 0.4060 -0.5769
C8G C 0.6444(3) 0.50881(14) -0.5356(2)
C9G C 0.6102(3) 0.51657(16) -0.6213(2)
H7G H 0.5703 0.4898 -0.6500
C10G C 0.6356(4) 0.56404(18) -0.6639(3)
H8G H 0.6121 0.5692 -0.7213
C11G C 0.6943(4) 0.60356(18) -0.6236(3)
H9G H 0.7126 0.6349 -0.6537
C12G C 0.7269(3) 0.59664(16) -0.5369(3)
H10G H 0.7644 0.6245 -0.5086
C13G C 0.7045(3) 0.54881(14) -0.4917(2)
C14G C 0.7408(3) 0.54210(14) -0.3997(2)
C15G C 0.7120(3) 0.57956(16) -0.3374(3)
H11G H 0.6675 0.6080 -0.3536
C16G C 0.7485(3) 0.57527(18) -0.2517(3)
H12G H 0.7282 0.6007 -0.2110
C17G C 0.8140(3) 0.53401(19) -0.2266(3)
H13G H 0.8379 0.5311 -0.1688
C18G C 0.8451(3) 0.49620(17) -0.2877(2)
H14G H 0.8901 0.4681 -0.2708
C19G C 0.8092(3) 0.50036(14) -0.3735(2)
C20G C 0.9137(3) 0.42629(17) -0.4187(2)
H15G H 0.9768 0.4435 -0.3975
H16G H 0.8914 0.4015 -0.3742
C21G C 0.9290(3) 0.39509(15) -0.5009(2)
C22G C 0.8607(3) 0.35580(17) -0.5321(3)
H17G H 0.8022 0.3489 -0.5030
C23G C 0.8791(3) 0.32695(15) -0.6060(3)
H18G H 0.3319 0.1993 -0.1259
C24G C 0.5264(3) 0.12582(15) -0.1223(3)
H19G H 0.5833 0.1187 -0.1534
C25G C 1.0122(3) 0.40466(15) -0.5489(3)
H20G H 1.0589 0.4318 -0.5315
O3 O 0.5000(3) 0.15232(15) 0.2500(3)
loop_
_geom_bond_atom_site_label_1
_geom_bond_atom_site_label_2
_geom_bond_site_symmetry_1
_geom_bond_site_symmetry_2
Co1 N1 1_555 1_555
S1 C1 1_555 1_555
O1 C7 1_555 1_555
N1 C1 1_555 1_555
O2 C19 1_555 1_555
N2 C3 1_555 1_555
C2 H1 1_555 1_555
N3 Co1 1_555 1_555
C3 C2 1_555 1_555
H2 C3 1_555 1_555
C4 N2 1_555 1_555
H3 C4 1_555 1_555
C5 C4 1_555 1_555
H4 C5 1_555 1_555
C6 C2 1_555 1_555
C7 C6 1_555 1_555
H5 C7 1_555 1_555
H6 C7 1_555 1_555
C8 O1 1_555 1_555
C9 C8 1_555 1_555
H7 C9 1_555 1_555
C10 C9 1_555 1_555
H8 C10 1_555 1_555
C11 C10 1_555 1_555
H9 C11 1_555 1_555
C12 C11 1_555 1_555
H10 C12 1_555 1_555
C13 C8 1_555 1_555
C14 C13 1_555 1_555
C15 C14 1_555 1_555
H11 C15 1_555 1_555
C16 C15 1_555 1_555
H12 C16 1_555 1_555
C17 C16 1_555 1_555
H13 C17 1_555 1_555
C18 C17 1_555 1_555
H14 C18 1_555 1_555
C19 C14 1_555 1_555
C20 O2 1_555 1_555
H15 C20 1_555 1_555
H16 C20 1_555 1_555
C21 C20 1_555 1_555
C22 C21 1_555 1_555
H17 C22 1_555 1_555
C23 N3 1_555 1_555
H18 C23G 1_555 1_555
C24 H19 1_555 1_555
C25 C21 1_555 1_555
H20 C25 1_555 1_555
Co1G N2 1_555 1_555
Co1G_2 N3G 1_555 1_555
S1B C1B 1_555 1_555
O1G C7G 1_555 1_555
N1B Co1 1_555 1_555
C1B N1B 1_555 1_555
O2G C19G 1_555 1_555
N2G Co1 1_555 1_555
N2E Co1 1_555 1_555
C2G H1G 1_555 1_555
N3G C24 1_555 1_555
N3B Co1 1_555 1_555
C3G N2G 1_555 1_555
H2G C3G 1_555 1_555
C4G N2G 1_555 1_555
H3G C4G 1_555 1_555
C5G C4G 1_555 1_555
H4G C5G 1_555 1_555
C6G C2G 1_555 1_555
C7G C6G 1_555 1_555
H5G C7G 1_555 1_555
H6G C7G 1_555 1_555
C8G O1G 1_555 1_555
C9G C8G 1_555 1_555
H7G C9G 1_555 1_555
C10G C9G 1_555 1_555
H8G C10G 1_555 1_555
C11G C10G 1_555 1_555
H9G C11G 1_555 1_555
C12G C11G 1_555 1_555
H10G C12G 1_555 1_555
C13G C8G 1_555 1_555
C14G C13G 1_555 1_555
C15G C14G 1_555 1_555
H11G C15G 1_555 1_555
C16G C15G 1_555 1_555
H12G C16G 1_555 1_555
C17G C16G 1_555 1_555
H13G C17G 1_555 1_555
C18G C17G 1_555 1_555
H14G C18G 1_555 1_555
C19G C14G 1_555 1_555
C20G O2G 1_555 1_555
H15G C20G 1_555 1_555
H16G C20G 1_555 1_555
C21G C20G 1_555 1_555
C22G C21G 1_555 1_555
H17G C22G 1_555 1_555
C23G N3G 1_555 1_555
H18G C23 1_555 1_555
C24G N3 1_555 1_555
H19G C24G 1_555 1_555
C25G C24 1_555 1_555
H20G C25G 1_555 1_555
C5 C6 1_555 1_555
C12 C13 1_555 1_555
C18 C19 1_555 1_555
C22 C23 1_555 1_555
C25 C24G 1_555 1_555
C2G C3G 1_555 1_555
C5G C6G 1_555 1_555
C12G C13G 1_555 1_555
C18G C19G 1_555 1_555
C21G C25G 1_555 1_555
C22G C23G 1_555 1_555

#END
