
#######################################################################
#
#                 Cambridge Crystallographic Data Centre
#                                CCDC 
#
#######################################################################
#
# If this CIF has been generated from an entry in the Cambridge 
# Structural Database, then it will include bibliographic, chemical, 
# crystal, experimental, refinement or atomic coordinate data resulting 
# from the CCDC's data processing and validation procedures.
#
#######################################################################

data_WASDAW
_symmetry_cell_setting           monoclinic
_symmetry_space_group_name_H-M   'P 21/n'
_symmetry_Int_Tables_number      14
_space_group_name_Hall           '-P 2yn'
loop_
_symmetry_equiv_pos_site_id
_symmetry_equiv_pos_as_xyz
1 x,y,z
2 1/2-x,1/2+y,1/2-z
3 -x,-y,-z
4 1/2+x,1/2-y,1/2+z
_cell_length_a                   13.1160(2)
_cell_length_b                   10.2671(2)
_cell_length_c                   25.7648(2)
_cell_angle_alpha                90
_cell_angle_beta                 96.4740(10)
_cell_angle_gamma                90
_cell_volume                     3447.45
loop_
_atom_site_label
_atom_site_type_symbol
_atom_site_fract_x
_atom_site_fract_y
_atom_site_fract_z
Fe1 Fe 0.39482(6) 0.21137(8) 0.14115(3)
Cu1 Cu 0.60002(6) 0.26713(8) 0.31691(3)
Cu2 Cu 0.68636(6) 0.44909(8) 0.07591(3)
N1 N 0.4605(4) 0.0430(5) 0.12885(18)
C1 C 0.4648(4) 0.2303(5) 0.2107(2)
N2 N 0.5078(4) 0.2435(5) 0.2518(2)
N3 N 0.2777(4) 0.1250(4) 0.17093(17)
C2 C 0.2261(5) 0.3444(6) 0.1747(2)
N4 N 0.3308(4) 0.1828(5) 0.06756(18)
C3 C 0.2094(4) 0.2125(6) 0.1865(2)
N5 N 0.3122(4) 0.3693(5) 0.15082(18)
C4 C 0.4875(5) 0.5567(6) 0.4175(2)
N6 N 0.6477(4) 0.4651(5) 0.31527(19)
C5 C 0.2610(5) -0.0001(6) 0.1804(2)
H1 H 0.3063 -0.0615 0.1696
N7 N 0.5211(4) 0.3504(5) 0.37658(18)
N8 N 0.5685(4) 0.3639(6) 0.1003(2)
C6 C 0.4280(5) -0.0098(6) 0.0811(2)
C7 C 0.3586(4) 0.0662(6) 0.0477(2)
C8 C 0.5366(4) 0.4805(6) 0.3825(2)
C9 C 0.7977(7) 0.4184(9) -0.0217(3)
C10 C 0.6069(4) 0.5414(6) 0.3508(2)
C11 C 0.1580(5) 0.4411(6) 0.1880(2)
C12 C 0.4582(5) 0.2936(7) 0.4066(2)
H2 H 0.4494 0.2039 0.4040
C13 C 0.2383(5) 0.2300(7) -0.0161(3)
H3 H 0.1990 0.2883 -0.0376
C14 C 0.2708(5) 0.2612(7) 0.0366(2)
H4 H 0.2493 0.3393 0.0501
C15 C 0.1250(5) 0.1760(7) 0.2133(2)
C16 C 0.6990(5) 0.7279(7) 0.3256(3)
H5 H 0.7181 0.8149 0.3295
C17 C 0.5032(5) 0.3054(6) 0.1151(2)
C18 C 0.3286(5) 0.4932(6) 0.1384(2)
H6 H 0.3857 0.5131 0.1215
C19 C 0.1785(5) -0.0438(7) 0.2059(2)
H7 H 0.1692 -0.1325 0.2111
C20 C 0.6285(5) 0.6744(7) 0.3574(3)
C21 C 0.0733(5) 0.4023(8) 0.2146(3)
H8 H 0.0270 0.4652 0.2232
C22 C 0.5287(5) -0.0250(6) 0.1598(3)
H9 H 0.5534 0.0100 0.1921
C23 C 0.1121(5) 0.0440(7) 0.2231(2)
H10 H 0.0587 0.0161 0.2413
C24 C 0.4616(5) -0.1312(6) 0.0645(3)
C25 C 0.4192(5) 0.4925(8) 0.4465(3)
H11 H 0.3831 0.5397 0.4693
C26 C 0.2660(6) 0.1118(8) -0.0348(3)
H12 H 0.2436 0.0888 -0.0692
C27 C 0.5314(6) -0.2006(7) 0.0989(3)
H13 H 0.5547 -0.2821 0.0898
C28 C 0.4048(5) 0.3618(8) 0.4419(3)
H14 H 0.3603 0.3187 0.4617
C29 C 0.1797(6) 0.5694(7) 0.1746(3)
H15 H 0.1372 0.6372 0.1826
C30 C 0.4240(6) -0.1723(7) 0.0121(3)
H16 H 0.4440 -0.2528 0.0002
C31 C 0.5648(6) -0.1460(7) 0.1462(3)
H17 H 0.6121 -0.1903 0.1694
C32 C 0.3610(6) -0.0969(8) -0.0198(3)
H18 H 0.3391 -0.1261 -0.0534
C33 C 0.0585(5) 0.2780(8) 0.2275(3)
H19 H 0.0039 0.2572 0.2461
C34 C 0.2634(6) 0.5936(6) 0.1498(3)
H20 H 0.2776 0.6785 0.1404
C35 C 0.5785(6) 0.7490(7) 0.3938(3)
H21 H 0.5928 0.8374 0.3980
C36 C 0.3271(5) 0.0259(7) -0.0035(2)
C37 C 0.7109(5) 0.5226(8) 0.2857(3)
H22 H 0.7382 0.4722 0.2607
C38 C 0.5111(6) 0.6918(7) 0.4218(3)
H23 H 0.4785 0.7422 0.4450
C39 C 0.7391(6) 0.6537(8) 0.2895(3)
H24 H 0.7842 0.6890 0.2679
N9 N 0.7529(6) 0.4290(7) 0.0132(3)
C40 C 0.6968(5) 0.1419(7) 0.3459(2)
N10 N 0.7496(5) 0.0676(6) 0.3687(2)
Cu2A Cu 0.81364(6) -0.05091(8) 0.42409(3)
N10A N 0.7504(5) 0.5676(6) 0.1313(2)
O1 O 0.497(2) 0.013(3) 0.4659(15)
O2 O -0.068(2) 0.049(3) 0.3053(13)
loop_
_geom_bond_atom_site_label_1
_geom_bond_atom_site_label_2
_geom_bond_site_symmetry_1
_geom_bond_site_symmetry_2
Fe1 N1 1_555 1_555
Cu1 N2 1_555 1_555
Cu2 N8 1_555 1_555
N1 C6 1_555 1_555
C1 Fe1 1_555 1_555
N2 C1 1_555 1_555
N3 Fe1 1_555 1_555
C2 C3 1_555 1_555
N4 Fe1 1_555 1_555
C3 N3 1_555 1_555
N5 Fe1 1_555 1_555
C4 C8 1_555 1_555
N6 Cu1 1_555 1_555
C5 N3 1_555 1_555
H1 C5 1_555 1_555
N7 Cu1 1_555 1_555
N8 C17 1_555 1_555
C6 C7 1_555 1_555
C7 N4 1_555 1_555
C8 N7 1_555 1_555
C9 N9 1_555 1_555
C10 N6 1_555 1_555
C11 C2 1_555 1_555
C12 N7 1_555 1_555
H2 C12 1_555 1_555
C13 H3 1_555 1_555
C14 N4 1_555 1_555
H4 C14 1_555 1_555
C15 C3 1_555 1_555
C16 H5 1_555 1_555
C17 Fe1 1_555 1_555
C18 N5 1_555 1_555
H6 C18 1_555 1_555
C19 C5 1_555 1_555
H7 C19 1_555 1_555
C20 C10 1_555 1_555
C21 C11 1_555 1_555
H8 C21 1_555 1_555
C22 N1 1_555 1_555
H9 C22 1_555 1_555
C23 C15 1_555 1_555
H10 C23 1_555 1_555
C24 C6 1_555 1_555
C25 C4 1_555 1_555
H11 C25 1_555 1_555
C26 C13 1_555 1_555
H12 C26 1_555 1_555
C27 C24 1_555 1_555
H13 C27 1_555 1_555
C28 C12 1_555 1_555
H14 C28 1_555 1_555
C29 C11 1_555 1_555
H15 C29 1_555 1_555
C30 C24 1_555 1_555
H16 C30 1_555 1_555
C31 C22 1_555 1_555
H17 C31 1_555 1_555
C32 C30 1_555 1_555
H18 C32 1_555 1_555
C33 C15 1_555 1_555
H19 C33 1_555 1_555
C34 C18 1_555 1_555
H20 C34 1_555 1_555
C35 C20 1_555 1_555
H21 C35 1_555 1_555
C36 C7 1_555 1_555
C37 N6 1_555 1_555
H22 C37 1_555 1_555
C38 C4 1_555 1_555
H23 C38 1_555 1_555
C39 C16 1_555 1_555
H24 C39 1_555 1_555
N9 Cu2 1_555 1_555
C40 Cu1 1_555 1_555
N10 C40 1_555 1_555
Cu2A N10 1_555 1_555
N10A Cu2 1_555 1_555
C2 N5 1_555 1_555
C8 C10 1_555 1_555
C13 C14 1_555 1_555
C16 C20 1_555 1_555
C19 C23 1_555 1_555
C21 C33 1_555 1_555
C25 C28 1_555 1_555
C26 C36 1_555 1_555
C27 C31 1_555 1_555
C29 C34 1_555 1_555
C32 C36 1_555 1_555
C35 C38 1_555 1_555
C37 C39 1_555 1_555

#END
