
#######################################################################
#
#                 Cambridge Crystallographic Data Centre
#                                CCDC 
#
#######################################################################
#
# If this CIF has been generated from an entry in the Cambridge 
# Structural Database, then it will include bibliographic, chemical, 
# crystal, experimental, refinement or atomic coordinate data resulting 
# from the CCDC's data processing and validation procedures.
#
#######################################################################

data_WASDEA
_symmetry_cell_setting           triclinic
_symmetry_space_group_name_H-M   'P -1'
_symmetry_Int_Tables_number      2
_space_group_name_Hall           '-P 1'
loop_
_symmetry_equiv_pos_site_id
_symmetry_equiv_pos_as_xyz
1 x,y,z
2 -x,-y,-z
_cell_length_a                   8.345(3)
_cell_length_b                   10.653(4)
_cell_length_c                   14.929(6)
_cell_angle_alpha                99.357(4)
_cell_angle_beta                 102.672(4)
_cell_angle_gamma                93.668(4)
_cell_volume                     1270.76
loop_
_atom_site_label
_atom_site_type_symbol
_atom_site_fract_x
_atom_site_fract_y
_atom_site_fract_z
Fe1 Fe 0.25854(5) 0.25510(4) 0.74875(3)
C1 C 0.0757(4) 0.1768(3) 0.8848(2)
H1 H -0.0121 0.1479 0.8336
N1 N 0.2159(3) 0.2294(2) 0.87014(18)
Cu1 Cu -0.42005(5) 0.64481(4) 0.53635(3)
C2 C 0.0552(5) 0.1633(4) 0.9720(2)
H2 H -0.0442 0.1264 0.9792
N2 N 0.4719(3) 0.3317(2) 0.82930(17)
Cu2 Cu 0.06749(5) 0.69299(4) 0.79607(3)
C3 C 0.1851(5) 0.2055(4) 1.0483(2)
H3 H 0.1739 0.1986 1.1080
N3 N 0.3290(3) 0.0801(2) 0.72924(17)
Cu3 Cu 0.5000 1.0000 1.0000
C4 C 0.3327(5) 0.2584(3) 1.0351(2)
H4 H 0.4225 0.2854 1.0854
N4 N 0.0475(3) 0.1629(2) 0.67442(17)
Cu4 Cu -1.0000 0.5000 0.5000
C5 C 0.3440(4) 0.2705(3) 0.9450(2)
N5 N 0.1398(3) 0.5210(3) 0.78143(19)
C6 C 0.4900(4) 0.3296(3) 0.9220(2)
N6 N 0.3535(3) 0.2947(3) 0.56776(18)
C7 C 0.6344(4) 0.3807(3) 0.9876(2)
H5 H 0.6432 0.3790 1.0505
N7 N -0.1464(4) 0.6912(3) 0.7159(2)
C8 C 0.7646(5) 0.4340(4) 0.9584(3)
H6 H 0.8625 0.4675 1.0013
N8 N 0.3145(4) 0.9014(3) 0.9270(2)
C9 C 0.7474(5) 0.4368(4) 0.8642(3)
H7 H 0.8338 0.4720 0.8429
N9 N -0.6513(5) 0.5966(3) 0.5168(2)
C10 C 0.5993(4) 0.3862(3) 0.8022(2)
H8 H 0.5875 0.3900 0.7393
C11 C 0.4814(4) 0.0462(3) 0.7585(2)
H9 H 0.5649 0.1096 0.7914
C12 C 0.5197(4) -0.0780(4) 0.7420(2)
H10 H 0.6274 -0.0971 0.7623
C13 C 0.3963(5) -0.1742(3) 0.6950(2)
H11 H 0.4184 -0.2591 0.6851
C14 C 0.2387(5) -0.1403(3) 0.6630(2)
H12 H 0.1540 -0.2026 0.6298
C15 C 0.2081(4) -0.0129(3) 0.6809(2)
C16 C 0.0478(4) 0.0341(3) 0.6486(2)
C17 C -0.0927(4) -0.0421(3) 0.5954(2)
H13 H -0.0897 -0.1297 0.5784
C18 C -0.2374(4) 0.0125(3) 0.5676(2)
H14 H -0.3326 -0.0376 0.5323
C19 C -0.2371(4) 0.1429(3) 0.5935(2)
H15 H -0.3330 0.1818 0.5763
C20 C -0.0934(4) 0.2152(3) 0.6453(2)
H16 H -0.0939 0.3033 0.6607
C21 C 0.1799(4) 0.4203(3) 0.7653(2)
C22 C 0.3164(4) 0.2823(3) 0.6361(2)
C23 C -0.2591(4) 0.6785(3) 0.6518(2)
C24 C 0.2108(4) 0.8272(3) 0.8791(2)
C25 C -0.7908(4) 0.5677(3) 0.5095(2)
Fe1A Fe 0.74146(5) 1.74490(4) 1.25125(3)
Fe1A_2 Fe -0.25854(5) 0.74490(4) 0.25125(3)
C1A C 0.9243(4) 1.8232(3) 1.1152(2)
H1A H 1.0121 1.8521 1.1664
N1A N 0.7841(3) 1.7706(2) 1.12986(18)
Cu1A Cu 1.42005(5) 1.35519(4) 1.46365(3)
Cu1A_2 Cu 0.42005(5) 0.35519(4) 0.46365(3)
C2A C 0.9448(5) 1.8367(4) 1.0280(2)
H2A H 1.0442 1.8736 1.0208
N2A N 0.5281(3) 1.6683(2) 1.17070(17)
Cu2A Cu 0.93251(5) 1.30701(4) 1.20393(3)
C3A C 0.8149(5) 1.7945(4) 0.9517(2)
H3A H 0.8261 1.8014 0.8920
N3A N 0.6710(3) 1.9199(2) 1.27076(17)
C4A C 0.6673(5) 1.7416(3) 0.9649(2)
H4A H 0.5775 1.7146 0.9146
N4A N 0.9525(3) 1.8371(2) 1.32558(17)
Cu4_2 Cu 2.0000 1.5000 1.5000
C5A C 0.6560(4) 1.7295(3) 1.0550(2)
N5A N 0.8602(3) 1.4790(3) 1.21857(19)
C6A C 0.5100(4) 1.6704(3) 1.0780(2)
N6A N -0.3535(3) 0.7053(3) 0.43224(18)
N6_2 N 1.3535(3) 1.2947(3) 1.56776(18)
C7A C 0.3656(4) 1.6193(3) 1.0124(2)
H5A H 0.3568 1.6210 0.9495
N7A N 1.1464(4) 1.3088(3) 1.2841(2)
C8A C 0.2354(5) 1.5660(4) 1.0416(3)
H6A H 0.1375 1.5325 0.9987
N8A N 0.6855(4) 1.0986(3) 1.0730(2)
C9A C 0.2526(5) 1.5632(4) 1.1358(3)
H7A H 0.1662 1.5280 1.1571
N9A N 1.6513(5) 1.4034(3) 1.4832(2)
C10A C 0.4007(4) 1.6138(3) 1.1978(2)
H8A H 0.4125 1.6100 1.2607
C11A C 0.5186(4) 1.9538(3) 1.2415(2)
H9A H 0.4351 1.8904 1.2086
C12A C 0.4803(4) 2.0780(4) 1.2580(2)
H10A H 0.3726 2.0971 1.2377
C13A C 0.6037(5) 2.1742(3) 1.3050(2)
H11A H 0.5816 2.2591 1.3149
C14A C 0.7613(5) 2.1403(3) 1.3370(2)
H12A H 0.8460 2.2026 1.3702
C15A C 0.7919(4) 2.0129(3) 1.3191(2)
C16A C 0.9522(4) 1.9659(3) 1.3514(2)
C17A C 1.0927(4) 2.0421(3) 1.4046(2)
H13A H 1.0897 2.1297 1.4216
C18A C 1.2374(4) 1.9875(3) 1.4324(2)
H14A H 1.3326 2.0376 1.4677
C19A C 1.2371(4) 1.8571(3) 1.4065(2)
H15A H 1.3330 1.8182 1.4237
C20A C 1.0934(4) 1.7848(3) 1.3547(2)
H16A H 1.0939 1.6967 1.3393
C21A C 0.8201(4) 1.5797(3) 1.2347(2)
C22A C -0.3164(4) 0.7177(3) 0.3639(2)
C22A_2 C 0.6836(4) 1.7177(3) 1.3639(2)
C23A C 1.2591(4) 1.3215(3) 1.3482(2)
C24A C 0.7892(4) 1.1728(3) 1.1209(2)
C25A C 1.7908(4) 1.4323(3) 1.4905(2)
C25A_2 C -1.2092(4) 0.4323(3) 0.4905(2)
loop_
_geom_bond_atom_site_label_1
_geom_bond_atom_site_label_2
_geom_bond_site_symmetry_1
_geom_bond_site_symmetry_2
Fe1 N1 1_555 1_555
C1 H1 1_555 1_555
N1 C1 1_555 1_555
Cu1 N9 1_555 1_555
C2 C1 1_555 1_555
H2 C2 1_555 1_555
N2 Fe1 1_555 1_555
Cu2 N5 1_555 1_555
C3 C2 1_555 1_555
H3 C3 1_555 1_555
N3 Fe1 1_555 1_555
Cu3 N8 1_555 1_555
C4 C3 1_555 1_555
H4 C4 1_555 1_555
N4 Fe1 1_555 1_555
Cu4 C25 1_555 1_555
C5 N1 1_555 1_555
N5 C21 1_555 1_555
C6 N2 1_555 1_555
N6 C22 1_555 1_555
C7 C6 1_555 1_555
H5 C7 1_555 1_555
N7 Cu2 1_555 1_555
C8 C7 1_555 1_555
H6 C8 1_555 1_555
N8 C24 1_555 1_555
C9 C8 1_555 1_555
H7 C9 1_555 1_555
N9 C25 1_555 1_555
C10 N2 1_555 1_555
H8 C10 1_555 1_555
C11 N3 1_555 1_555
H9 C11 1_555 1_555
C12 C11 1_555 1_555
H10 C12 1_555 1_555
C13 C12 1_555 1_555
H11 C13 1_555 1_555
C14 C13 1_555 1_555
H12 C14 1_555 1_555
C15 N3 1_555 1_555
C16 N4 1_555 1_555
C17 C16 1_555 1_555
H13 C17 1_555 1_555
C18 C17 1_555 1_555
H14 C18 1_555 1_555
C19 C18 1_555 1_555
H15 C19 1_555 1_555
C20 N4 1_555 1_555
H16 C20 1_555 1_555
C21 Fe1 1_555 1_555
C22 Fe1 1_555 1_555
C23 Cu1 1_555 1_555
C24 Cu2 1_555 1_555
Fe1A N1A 1_555 1_555
Fe1A_2 C22A 1_555 1_555
C1A H1A 1_555 1_555
N1A C1A 1_555 1_555
Cu1A N6_2 1_555 1_555
Cu1A_2 N6 1_555 1_555
C2A C1A 1_555 1_555
H2A C2A 1_555 1_555
N2A Fe1A 1_555 1_555
Cu2A N5A 1_555 1_555
C3A C2A 1_555 1_555
H3A C3A 1_555 1_555
N3A Fe1A 1_555 1_555
C4A C3A 1_555 1_555
H4A C4A 1_555 1_555
N4A Fe1A 1_555 1_555
Cu4_2 C25A 1_555 1_555
C5A N1A 1_555 1_555
N5A C21A 1_555 1_555
C6A N2A 1_555 1_555
N6A Cu1 1_555 1_555
C7A C6A 1_555 1_555
H5A C7A 1_555 1_555
N7A Cu2A 1_555 1_555
C8A C7A 1_555 1_555
H6A C8A 1_555 1_555
N8A Cu3 1_555 1_555
C9A C8A 1_555 1_555
H7A C9A 1_555 1_555
N9A Cu1A 1_555 1_555
C10A N2A 1_555 1_555
H8A C10A 1_555 1_555
C11A N3A 1_555 1_555
H9A C11A 1_555 1_555
C12A C11A 1_555 1_555
H10A C12A 1_555 1_555
C13A C12A 1_555 1_555
H11A C13A 1_555 1_555
C14A C13A 1_555 1_555
H12A C14A 1_555 1_555
C15A N3A 1_555 1_555
C16A N4A 1_555 1_555
C17A C16A 1_555 1_555
H13A C17A 1_555 1_555
C18A C17A 1_555 1_555
H14A C18A 1_555 1_555
C19A C18A 1_555 1_555
H15A C19A 1_555 1_555
C20A N4A 1_555 1_555
H16A C20A 1_555 1_555
C21A Fe1A 1_555 1_555
C22A N6A 1_555 1_555
C22A_2 Fe1A 1_555 1_555
C23A Cu1A 1_555 1_555
C24A Cu2A 1_555 1_555
C25A N9A 1_555 1_555
C25A_2 Cu4 1_555 1_555
C4 C5 1_555 1_555
C5 C6 1_555 1_555
N7 C23 1_555 1_555
C9 C10 1_555 1_555
C14 C15 1_555 1_555
C15 C16 1_555 1_555
C19 C20 1_555 1_555
C4A C5A 1_555 1_555
C5A C6A 1_555 1_555
N7A C23A 1_555 1_555
N8A C24A 1_555 1_555
C9A C10A 1_555 1_555
C14A C15A 1_555 1_555
C15A C16A 1_555 1_555
C19A C20A 1_555 1_555

#END
