
#######################################################################
#
#                 Cambridge Crystallographic Data Centre
#                                CCDC 
#
#######################################################################
#
# If this CIF has been generated from an entry in the Cambridge 
# Structural Database, then it will include bibliographic, chemical, 
# crystal, experimental, refinement or atomic coordinate data resulting 
# from the CCDC's data processing and validation procedures.
#
#######################################################################

data_WASLAE
_symmetry_cell_setting           triclinic
_symmetry_space_group_name_H-M   'P -1'
_symmetry_Int_Tables_number      2
_space_group_name_Hall           '-P 1'
loop_
_symmetry_equiv_pos_site_id
_symmetry_equiv_pos_as_xyz
1 x,y,z
2 -x,-y,-z
_cell_length_a                   8.170(2)
_cell_length_b                   9.904(3)
_cell_length_c                   15.134(4)
_cell_angle_alpha                108.673(4)
_cell_angle_beta                 93.420(5)
_cell_angle_gamma                92.342(5)
_cell_volume                     1155.72
loop_
_atom_site_label
_atom_site_type_symbol
_atom_site_fract_x
_atom_site_fract_y
_atom_site_fract_z
Mn1 Mn 0.42287(9) 0.03848(7) 0.14417(4)
N1 N 0.6125(5) 0.0940(4) 0.2664(3)
N2 N 0.2131(5) -0.1119(4) 0.0614(3)
N3 N 0.2936(5) 0.2117(4) 0.2599(3)
N4 N 0.3254(5) -0.0821(4) 0.2425(3)
O1 O 0.5832(4) -0.1140(3) 0.0658(2)
O2 O 0.5324(5) -0.2015(3) -0.0890(2)
C1 C 0.4716(7) -0.1005(6) 0.3004(4)
H1 H 0.5248 -0.1848 0.2654
H2 H 0.4351 -0.1162 0.3564
C2 C 0.5938(6) 0.0248(6) 0.3283(3)
C3 C 0.6872(9) 0.0634(8) 0.4127(4)
H3 H 0.6734 0.0135 0.4547
C4 C 0.7996(10) 0.1759(10) 0.4329(5)
H4 H 0.8627 0.2036 0.4897
C5 C 0.8219(8) 0.2495(8) 0.3710(6)
H5 H 0.8995 0.3261 0.3846
C6 C 0.7235(7) 0.2050(6) 0.2867(4)
H6 H 0.7354 0.2535 0.2438
C7 C 0.2459(6) -0.2213(5) 0.1837(4)
H7 H 0.1693 -0.2552 0.2197
H8 H 0.3288 -0.2904 0.1660
C8 C 0.1557(6) -0.2109(5) 0.0970(3)
C9 C 0.0251(6) -0.3077(5) 0.0509(4)
H9 H -0.0184 -0.3717 0.0781
C10 C -0.0387(7) -0.3078(6) -0.0349(4)
H10 H -0.1236 -0.3738 -0.0671
C11 C 0.0234(6) -0.2100(5) -0.0731(4)
H11 H -0.0173 -0.2093 -0.1317
C12 C 0.1468(6) -0.1133(5) -0.0228(3)
H12 H 0.1869 -0.0452 -0.0478
C13 C 0.2050(7) 0.0056(5) 0.3000(4)
H13 H 0.1945 -0.0219 0.3555
H14 H 0.0987 -0.0132 0.2648
C14 C 0.2529(6) 0.1638(5) 0.3292(3)
C15 C 0.2524(7) 0.2529(7) 0.4208(4)
H15 H 0.2261 0.2160 0.4678
C16 C 0.2907(8) 0.3952(7) 0.4410(4)
H16 H 0.2896 0.4565 0.5020
C17 C 0.3311(9) 0.4477(7) 0.3709(5)
H17 H 0.3584 0.5445 0.3835
C18 C 0.3301(7) 0.3510(6) 0.2793(4)
H18 H 0.3556 0.3854 0.2310
C19 C 0.5491(5) -0.2142(5) -0.0088(3)
C20 C 0.5236(5) -0.3629(4) -0.0046(3)
C21 C 0.4281(5) -0.4659(4) -0.0749(3)
H19 H 0.3805 -0.4436 -0.1255
C22 C 0.5960(5) -0.3979(4) 0.0694(3)
H20 H 0.6615 -0.3292 0.1161
Mn1A Mn 0.57713(9) -1.03848(7) -0.14417(4)
Mn1A_2 Mn 0.57713(9) -0.03848(7) -0.14417(4)
Mn1_2 Mn 0.42287(9) -0.96152(7) 0.14417(4)
N1A N 0.3875(5) -1.0940(4) -0.2664(3)
N2A N 0.7869(5) -0.8881(4) -0.0614(3)
N3A N 0.7064(5) -1.2117(4) -0.2599(3)
N4A N 0.6746(5) -0.9179(4) -0.2425(3)
O1A O 0.4168(4) -0.8860(3) -0.0658(2)
O2A O 0.4676(5) -0.7985(3) 0.0890(2)
O2A_2 O 0.4676(5) 0.2015(3) 0.0890(2)
O2_2 O 0.5324(5) -1.2015(3) -0.0890(2)
C1A C 0.5284(7) -0.8995(6) -0.3004(4)
H1A H 0.4752 -0.8152 -0.2654
H2A H 0.5649 -0.8838 -0.3564
C2A C 0.4062(6) -1.0248(6) -0.3283(3)
C3A C 0.3128(9) -1.0634(8) -0.4127(4)
H3A H 0.3266 -1.0135 -0.4547
C4A C 0.2004(10) -1.1759(10) -0.4329(5)
H4A H 0.1373 -1.2036 -0.4897
C5A C 0.1781(8) -1.2495(8) -0.3710(6)
H5A H 0.1005 -1.3261 -0.3846
C6A C 0.2765(7) -1.2050(6) -0.2867(4)
H6A H 0.2646 -1.2535 -0.2438
C7A C 0.7541(6) -0.7787(5) -0.1837(4)
H7A H 0.8307 -0.7448 -0.2197
H8A H 0.6712 -0.7096 -0.1660
C8A C 0.8443(6) -0.7891(5) -0.0970(3)
C9A C 0.9749(6) -0.6923(5) -0.0509(4)
H9A H 1.0184 -0.6283 -0.0781
C10A C 1.0387(7) -0.6922(6) 0.0349(4)
H10A H 1.1236 -0.6262 0.0671
C11A C 0.9766(6) -0.7900(5) 0.0731(4)
H11A H 1.0173 -0.7907 0.1317
C12A C 0.8532(6) -0.8867(5) 0.0228(3)
H12A H 0.8131 -0.9548 0.0478
C13A C 0.7950(7) -1.0056(5) -0.3000(4)
H13A H 0.8055 -0.9781 -0.3555
H14A H 0.9013 -0.9868 -0.2648
C14A C 0.7471(6) -1.1638(5) -0.3292(3)
C15A C 0.7476(7) -1.2529(7) -0.4208(4)
H15A H 0.7739 -1.2160 -0.4678
C16A C 0.7093(8) -1.3952(7) -0.4410(4)
H16A H 0.7104 -1.4565 -0.5020
C17A C 0.6689(9) -1.4477(7) -0.3709(5)
H17A H 0.6416 -1.5445 -0.3835
C18A C 0.6699(7) -1.3510(6) -0.2793(4)
H18A H 0.6444 -1.3854 -0.2310
C19A C 0.4509(5) -0.7858(5) 0.0088(3)
C20A C 0.4764(5) -0.6371(4) 0.0046(3)
C21A C 0.5719(5) -0.5341(4) 0.0749(3)
H19A H 0.6195 -0.5564 0.1255
C22A C 0.4040(5) -0.6021(4) -0.0694(3)
H20A H 0.3385 -0.6708 -0.1161
Cl1 Cl 0.1312(2) 0.36066(19) 0.68894(11)
O3 O 0.2979(7) 0.3822(8) 0.6748(4)
O4 O 0.1272(11) 0.2389(8) 0.7115(10)
O5 O 0.0365(9) 0.3521(15) 0.6164(4)
O6 O 0.0793(8) 0.4636(7) 0.7671(4)
loop_
_geom_bond_atom_site_label_1
_geom_bond_atom_site_label_2
_geom_bond_site_symmetry_1
_geom_bond_site_symmetry_2
Mn1 N1 1_555 1_555
N1 C2 1_555 1_555
N2 Mn1 1_555 1_555
N3 Mn1 1_555 1_555
N4 Mn1 1_555 1_555
O1 Mn1 1_555 1_555
O2 C19 1_555 1_555
C1 N4 1_555 1_555
H1 C1 1_555 1_555
H2 C1 1_555 1_555
C2 C1 1_555 1_555
C3 C2 1_555 1_555
H3 C3 1_555 1_555
C4 C3 1_555 1_555
H4 C4 1_555 1_555
C5 C4 1_555 1_555
H5 C5 1_555 1_555
C6 N1 1_555 1_555
H6 C6 1_555 1_555
C7 N4 1_555 1_555
H7 C7 1_555 1_555
H8 C7 1_555 1_555
C8 N2 1_555 1_555
C9 C8 1_555 1_555
H9 C9 1_555 1_555
C10 C9 1_555 1_555
H10 C10 1_555 1_555
C11 C10 1_555 1_555
H11 C11 1_555 1_555
C12 N2 1_555 1_555
H12 C12 1_555 1_555
C13 N4 1_555 1_555
H13 C13 1_555 1_555
H14 C13 1_555 1_555
C14 N3 1_555 1_555
C15 C14 1_555 1_555
H15 C15 1_555 1_555
C16 C15 1_555 1_555
H16 C16 1_555 1_555
C17 C16 1_555 1_555
H17 C17 1_555 1_555
C18 N3 1_555 1_555
H18 C18 1_555 1_555
C19 O1 1_555 1_555
C20 C19 1_555 1_555
C21 C20 1_555 1_555
H19 C21 1_555 1_555
C22 C20 1_555 1_555
H20 C22 1_555 1_555
Cl1 O3 1_555 1_555
O4 Cl1 1_555 1_555
O5 Cl1 1_555 1_555
O6 Cl1 1_555 1_555
Mn1A N1A 1_555 1_555
Mn1A_2 O2 1_555 1_555
Mn1_2 O2A 1_555 1_555
N1A C2A 1_555 1_555
N2A Mn1A 1_555 1_555
N3A Mn1A 1_555 1_555
N4A Mn1A 1_555 1_555
O1A Mn1A 1_555 1_555
O2A C19A 1_555 1_555
O2A_2 Mn1 1_555 1_555
O2_2 Mn1A 1_555 1_555
C1A N4A 1_555 1_555
H1A C1A 1_555 1_555
H2A C1A 1_555 1_555
C2A C1A 1_555 1_555
C3A C2A 1_555 1_555
H3A C3A 1_555 1_555
C4A C3A 1_555 1_555
H4A C4A 1_555 1_555
C5A C4A 1_555 1_555
H5A C5A 1_555 1_555
C6A N1A 1_555 1_555
H6A C6A 1_555 1_555
C7A N4A 1_555 1_555
H7A C7A 1_555 1_555
H8A C7A 1_555 1_555
C8A N2A 1_555 1_555
C9A C8A 1_555 1_555
H9A C9A 1_555 1_555
C10A C9A 1_555 1_555
H10A C10A 1_555 1_555
C11A C10A 1_555 1_555
H11A C11A 1_555 1_555
C12A N2A 1_555 1_555
H12A C12A 1_555 1_555
C13A N4A 1_555 1_555
H13A C13A 1_555 1_555
H14A C13A 1_555 1_555
C14A N3A 1_555 1_555
C15A C14A 1_555 1_555
H15A C15A 1_555 1_555
C16A C15A 1_555 1_555
H16A C16A 1_555 1_555
C17A C16A 1_555 1_555
H17A C17A 1_555 1_555
C18A N3A 1_555 1_555
H18A C18A 1_555 1_555
C19A O1A 1_555 1_555
C20A C19A 1_555 1_555
C21A C22 1_555 1_555
H19A C21A 1_555 1_555
C22A C21 1_555 1_555
H20A C22A 1_555 1_555
C5 C6 1_555 1_555
C7 C8 1_555 1_555
C11 C12 1_555 1_555
C13 C14 1_555 1_555
C17 C18 1_555 1_555
C5A C6A 1_555 1_555
C7A C8A 1_555 1_555
C11A C12A 1_555 1_555
C13A C14A 1_555 1_555
C17A C18A 1_555 1_555
C20A C21A 1_555 1_555
C20A C22A 1_555 1_555

#END
