
#######################################################################
#
#                 Cambridge Crystallographic Data Centre
#                                CCDC 
#
#######################################################################
#
# If this CIF has been generated from an entry in the Cambridge 
# Structural Database, then it will include bibliographic, chemical, 
# crystal, experimental, refinement or atomic coordinate data resulting 
# from the CCDC's data processing and validation procedures.
#
#######################################################################

data_WASQOW
_symmetry_cell_setting           monoclinic
_symmetry_space_group_name_H-M   'P 21/n'
_symmetry_Int_Tables_number      14
_space_group_name_Hall           '-P 2yn'
loop_
_symmetry_equiv_pos_site_id
_symmetry_equiv_pos_as_xyz
1 x,y,z
2 1/2+x,1/2-y,1/2+z
3 -x,-y,-z
4 1/2-x,1/2+y,1/2-z
_cell_length_a                   12.755(6)
_cell_length_b                   15.215(6)
_cell_length_c                   13.395(5)
_cell_angle_alpha                90.00
_cell_angle_beta                 97.78
_cell_angle_gamma                90.00
_cell_volume                     2575.6
loop_
_atom_site_label
_atom_site_type_symbol
_atom_site_fract_x
_atom_site_fract_y
_atom_site_fract_z
Ag1 Ag 0.23991(6) 0.28936(6) 0.22451(5)
Ag2 Ag 0.50664(5) 0.24550(5) -0.01097(6)
O1 O 0.6608(4) 0.2038(4) -0.1096(4)
O2 O 0.3423(5) 0.2997(5) 0.0713(5)
N1 N 0.5810(5) 0.1264(4) 0.0476(5)
N2 N 0.4457(5) 0.3692(4) -0.0718(5)
N3 N 0.1382(5) 0.3374(4) 0.0899(5)
N4 N 0.8612(5) 0.1776(4) -0.1469(4)
C1 C 0.5353(6) 0.0748(7) 0.1105(6)
H1 H 0.4727 0.0961 0.1351
C2 C 0.5725(8) -0.0062(6) 0.1409(6)
H2 H 0.5382 -0.0402 0.1875
C3 C 0.6592(7) -0.0376(6) 0.1031(7)
H3 H 0.6851 -0.0955 0.1213
C4 C 0.7087(6) 0.0130(5) 0.0393(6)
H4 H 0.7704 -0.0075 0.0124
C5 C 0.6684(5) 0.0951(5) 0.0149(5)
C6 C 0.7160(6) 0.1547(5) -0.0552(5)
C7 C 0.8327(6) 0.1505(5) -0.0592(6)
C8 C 0.9040(6) 0.1275(5) 0.0218(7)
H5 H 0.8800 0.1112 0.0842
C9 C 1.0097(7) 0.1289(6) 0.0123(8)
H6 H 1.0610 0.1111 0.0677
C10 C 1.0406(7) 0.1542(6) -0.0779(8)
H7 H 1.1144 0.1558 -0.0856
C11 C 0.9640(7) 0.1788(5) -0.1556(7)
H8 H 0.9851 0.1972 -0.2184
C12 C 0.0333(7) 0.3435(6) 0.0881(7)
H9 H 0.0023 0.3272 0.1468
C13 C -0.0315(7) 0.3718(6) 0.0029(9)
H10 H -0.1066 0.3759 0.0032
C14 C 0.0111(8) 0.3931(7) -0.0809(8)
H11 H -0.0328 0.4125 -0.1407
C15 C 0.1184(7) 0.3879(6) -0.0780(7)
H12 H 0.1513 0.4026 -0.1362
C16 C 0.1792(6) 0.3606(5) 0.0071(6)
C17 C 0.2959(6) 0.3513(6) 0.0147(6)
C18 C 0.3566(6) 0.4055(6) -0.0490(6)
C19 C 0.3277(7) 0.4889(6) -0.0807(6)
H13 H 0.2625 0.5125 -0.0640
C20 C 0.3885(8) 0.5370(6) -0.1375(8)
H14 H 0.3704 0.5965 -0.1565
C21 C 0.4769(8) 0.4964(7) -0.1636(8)
H15 H 0.5197 0.5260 -0.2069
C22 C 0.5030(6) 0.4153(7) -0.1281(7)
H16 H 0.5673 0.3893 -0.1440
Cl1 Cl 0.26065(18) 0.04842(16) 0.24330(18)
O3 O 0.2952(8) 0.1288(6) 0.2136(9)
O4 O 0.2522(6) 0.0472(7) 0.3442(5)
O5 O 0.3377(5) -0.0122(5) 0.2219(5)
O6 O 0.1636(6) 0.0280(6) 0.1888(6)
O1A O 0.1608(4) 0.2962(4) 0.3904(4)
Ag1A Ag 0.73991(6) 0.21064(6) -0.27549(5)
N4A N 0.3612(5) 0.3224(4) 0.3531(4)
Cl2 Cl -0.2216(2) 0.24989(18) 0.22558(18)
O7 O -0.2404(7) 0.2819(5) 0.1252(6)
O8 O -0.2174(5) 0.1572(4) 0.2251(4)
O9 O -0.1194(7) 0.2859(6) 0.2627(7)
O10 O -0.2918(8) 0.2791(6) 0.2827(8)
loop_
_geom_bond_atom_site_label_1
_geom_bond_atom_site_label_2
_geom_bond_site_symmetry_1
_geom_bond_site_symmetry_2
Ag1 O2 1_555 1_555
Ag2 O1 1_555 1_555
O1 C6 1_555 1_555
O2 C17 1_555 1_555
N1 Ag2 1_555 1_555
N2 Ag2 1_555 1_555
N3 Ag1 1_555 1_555
N4 C7 1_555 1_555
C1 N1 1_555 1_555
H1 C1 1_555 1_555
C2 C1 1_555 1_555
H2 C2 1_555 1_555
C3 C2 1_555 1_555
H3 C3 1_555 1_555
C4 C3 1_555 1_555
H4 C4 1_555 1_555
C5 N1 1_555 1_555
C6 C5 1_555 1_555
C7 C6 1_555 1_555
C8 C7 1_555 1_555
H5 C8 1_555 1_555
C9 C8 1_555 1_555
H6 C9 1_555 1_555
C10 C9 1_555 1_555
H7 C10 1_555 1_555
C11 N4 1_555 1_555
H8 C11 1_555 1_555
C12 N3 1_555 1_555
H9 C12 1_555 1_555
C13 C12 1_555 1_555
H10 C13 1_555 1_555
C14 C13 1_555 1_555
H11 C14 1_555 1_555
C15 C14 1_555 1_555
H12 C15 1_555 1_555
C16 N3 1_555 1_555
C17 C16 1_555 1_555
C18 N2 1_555 1_555
C19 C18 1_555 1_555
H13 C19 1_555 1_555
C20 C19 1_555 1_555
H14 C20 1_555 1_555
C21 C20 1_555 1_555
H15 C21 1_555 1_555
C22 N2 1_555 1_555
H16 C22 1_555 1_555
Cl1 O3 1_555 1_555
O3 Ag1 1_555 1_555
O4 Cl1 1_555 1_555
O5 Cl1 1_555 1_555
O6 Cl1 1_555 1_555
Cl2 O7 1_555 1_555
O8 Cl2 1_555 1_555
O9 Cl2 1_555 1_555
O10 Cl2 1_555 1_555
O1A Ag1 1_555 1_555
Ag1A O1 1_555 1_555
N4A Ag1 1_555 1_555
N4 Ag1A 1_555 1_555
C4 C5 1_555 1_555
C10 C11 1_555 1_555
C15 C16 1_555 1_555
C17 C18 1_555 1_555
C21 C22 1_555 1_555

#END
