
#######################################################################
#
#                 Cambridge Crystallographic Data Centre
#                                CCDC 
#
#######################################################################
#
# If this CIF has been generated from an entry in the Cambridge 
# Structural Database, then it will include bibliographic, chemical, 
# crystal, experimental, refinement or atomic coordinate data resulting 
# from the CCDC's data processing and validation procedures.
#
#######################################################################

data_WASSUF
_symmetry_cell_setting           monoclinic
_symmetry_space_group_name_H-M   'C 2/c'
_symmetry_Int_Tables_number      15
_space_group_name_Hall           '-C 2yn'
loop_
_symmetry_equiv_pos_site_id
_symmetry_equiv_pos_as_xyz
1 x,y,z
2 1/2+x,1/2+y,z
3 -x,y,1/2-z
4 1/2-x,1/2+y,1/2-z
5 -x,-y,-z
6 1/2-x,1/2-y,-z
7 x,-y,1/2+z
8 1/2+x,1/2-y,1/2+z
_cell_length_a                   16.9060(10)
_cell_length_b                   6.6260(10)
_cell_length_c                   20.6540(10)
_cell_angle_alpha                90
_cell_angle_beta                 104.890(10)
_cell_angle_gamma                90
_cell_volume                     2235.95
loop_
_atom_site_label
_atom_site_type_symbol
_atom_site_fract_x
_atom_site_fract_y
_atom_site_fract_z
P1 P 0.01897(5) 0.18801(12) 0.58413(4)
K1 K -0.38933(5) -0.33320(12) 0.30757(4)
C1 C -0.2429(2) 0.0592(5) 0.3874(2)
C2 C -0.1833(2) 0.0200(5) 0.5087(2)
C3 C -0.1413(2) 0.2097(4) 0.5089(2)
C4 C -0.1544(2) 0.3105(5) 0.4504(2)
H1 H -0.1278(2) 0.4384(5) 0.4500(2)
C5 C -0.0833(2) 0.2882(4) 0.5709(2)
H2 H -0.0809(2) 0.4326(4) 0.5684(2)
H3 H -0.1040(2) 0.2544(4) 0.6086(2)
N1 N -0.2038(2) 0.2384(4) 0.39141(13)
H4 H -0.2106(2) 0.3135(4) 0.35409(13)
N2 N -0.2298(2) -0.0439(4) 0.44709(13)
H5 H -0.2541(2) -0.1652(4) 0.44586(13)
O1 O -0.28814(15) -0.0081(4) 0.33524(11)
O2 O -0.18146(15) -0.0854(3) 0.55901(11)
O3 O 0.04733(13) 0.2586(3) 0.52075(11)
O4 O 0.07320(15) 0.2876(3) 0.64507(12)
O5 O 0.0138(2) -0.0377(3) 0.58513(11)
O6 O -0.2298(2) -0.4471(3) 0.29532(12)
O7 O -0.4581(2) -0.1824(3) 0.18392(13)
O8 O -0.5000 -0.6379(5) 0.2500
P1E P -0.51897(5) -0.68801(12) 0.41587(4)
K1E K -0.11067(5) -0.16680(12) 0.69243(4)
K1B K -0.61067(5) -0.33320(12) 0.19243(4)
C1E C -0.2571(2) -0.5592(5) 0.6126(2)
C2E C -0.3167(2) -0.5200(5) 0.4913(2)
C3E C -0.3587(2) -0.7097(4) 0.4911(2)
C4E C -0.3456(2) -0.8105(5) 0.5496(2)
H1E H -0.3722(2) -0.9384(5) 0.5500(2)
C5E C -0.4167(2) -0.7882(4) 0.4291(2)
H2E H -0.4191(2) -0.9326(4) 0.4316(2)
H3E H -0.3960(2) -0.7544(4) 0.3914(2)
N1E N -0.2962(2) -0.7384(4) 0.60859(13)
H4E H -0.2894(2) -0.8135(4) 0.64591(13)
N2E N -0.2702(2) -0.4561(4) 0.55291(13)
H5E H -0.2459(2) -0.3348(4) 0.55414(13)
O1E O -0.21186(15) -0.4919(4) 0.66476(11)
O2E O -0.31854(15) -0.4146(3) 0.44099(11)
O3E O -0.54733(13) -0.7586(3) 0.47925(11)
O4E O -0.57320(15) -0.7876(3) 0.35493(12)
O5E O -0.5138(2) -0.4623(3) 0.41487(11)
O6E O -0.2702(2) -0.0529(3) 0.70468(12)
O7B O -0.5419(2) -0.1824(3) 0.31608(13)
O7G O 0.0419(2) -0.3176(3) 0.68392(13)
O7E O -0.0419(2) -0.3176(3) 0.81608(13)
O8G O 0.0000 0.1379(5) 0.7500
loop_
_geom_bond_atom_site_label_1
_geom_bond_atom_site_label_2
_geom_bond_site_symmetry_1
_geom_bond_site_symmetry_2
P1 C5 1_555 1_555
K1 O1 1_555 1_555
C1 N1 1_555 1_555
C2 C3 1_555 1_555
C3 C4 1_555 1_555
C4 H1 1_555 1_555
C5 C3 1_555 1_555
H2 C5 1_555 1_555
H3 C5 1_555 1_555
N1 C4 1_555 1_555
H4 N1 1_555 1_555
N2 C1 1_555 1_555
H5 N2 1_555 1_555
O1 C1 1_555 1_555
O2 C2 1_555 1_555
O3 P1 1_555 1_555
O4 P1 1_555 1_555
O5 P1 1_555 1_555
O6 K1 1_555 1_555
O7 K1 1_555 1_555
O8 K1 1_555 1_555
P1E C5E 1_555 1_555
K1E O2 1_555 1_555
K1B O7 1_555 1_555
C1E N1E 1_555 1_555
C2E C3E 1_555 1_555
C3E C4E 1_555 1_555
C4E H1E 1_555 1_555
C5E C3E 1_555 1_555
H2E C5E 1_555 1_555
H3E C5E 1_555 1_555
N1E C4E 1_555 1_555
H4E N1E 1_555 1_555
N2E C1E 1_555 1_555
H5E N2E 1_555 1_555
O1E K1E 1_555 1_555
O2E K1 1_555 1_555
O3E P1E 1_555 1_555
O4E P1E 1_555 1_555
O5E P1E 1_555 1_555
O6E K1E 1_555 1_555
O7B K1 1_555 1_555
O7G K1E 1_555 1_555
O7E K1E 1_555 1_555
O8G K1E 1_555 1_555
C2 N2 1_555 1_555
O8 K1B 1_555 1_555
K1B O7B 1_555 1_555
C1E O1E 1_555 1_555
C2E N2E 1_555 1_555
C2E O2E 1_555 1_555

#END
