
#######################################################################
#
#                 Cambridge Crystallographic Data Centre
#                                CCDC 
#
#######################################################################
#
# If this CIF has been generated from an entry in the Cambridge 
# Structural Database, then it will include bibliographic, chemical, 
# crystal, experimental, refinement or atomic coordinate data resulting 
# from the CCDC's data processing and validation procedures.
#
#######################################################################

data_WASXUK
_symmetry_cell_setting           triclinic
_symmetry_space_group_name_H-M   'P -1'
_symmetry_Int_Tables_number      2
_space_group_name_Hall           '-P 1'
loop_
_symmetry_equiv_pos_site_id
_symmetry_equiv_pos_as_xyz
1 x,y,z
2 -x,-y,-z
_cell_length_a                   8.8014(6)
_cell_length_b                   9.2140(7)
_cell_length_c                   13.9886(10)
_cell_angle_alpha                97.4200(10)
_cell_angle_beta                 94.5960(10)
_cell_angle_gamma                113.97
_cell_volume                     1016.84
loop_
_atom_site_label
_atom_site_type_symbol
_atom_site_fract_x
_atom_site_fract_y
_atom_site_fract_z
Cd1 Cd 0.57976(4) 0.33196(4) 0.48511(2)
S1 S -0.25840(16) 0.00326(16) 0.16196(9)
O1 O 0.3450(5) 0.2171(5) 0.3734(3)
O2 O 0.3328(4) 0.0637(4) 0.4821(3)
O3 O -0.2036(5) -0.4486(5) 0.4519(3)
O4 O -0.4359(4) -0.4260(4) 0.4020(3)
O5 O -0.3646(7) -0.1390(6) 0.0952(4)
O6 O -0.1310(7) 0.1149(8) 0.1190(5)
O7 O -0.3494(9) 0.0795(9) 0.2114(3)
O8 O 0.7072(5) 0.1781(5) 0.4126(3)
N1 N 0.7442(5) 0.3555(5) 0.6265(3)
N2 N 1.2695(6) 0.4314(7) 1.0511(4)
C1 C 0.2665(6) 0.0958(6) 0.4105(4)
C2 C 0.0862(6) -0.0079(5) 0.3672(3)
C3 C 0.0117(6) 0.0367(6) 0.2921(4)
C4 C -0.1572(6) -0.0564(6) 0.2544(3)
C5 C -0.2508(6) -0.1915(6) 0.2922(4)
C6 C -0.1756(6) -0.2352(5) 0.3676(3)
C7 C -0.2783(6) -0.3789(6) 0.4104(3)
C8 C -0.0068(6) -0.1436(6) 0.4041(4)
C9 C 0.8987(7) 0.4767(7) 0.6509(4)
C10 C 1.0026(7) 0.4976(7) 0.7348(4)
C11 C 0.6924(7) 0.2510(7) 0.6878(4)
C12 C 0.7892(7) 0.2634(7) 0.7735(4)
C13 C 0.9507(6) 0.3887(7) 0.7975(4)
C14 C 1.0623(7) 0.4037(7) 0.8874(4)
C15 C 1.1996(8) 0.5476(8) 0.9265(5)
C16 C 1.3001(9) 0.5589(9) 1.0088(5)
C17 C 1.1407(8) 0.2909(9) 1.0153(5)
C18 C 1.0342(8) 0.2726(7) 0.9334(4)
H1 H 1.340(10) 0.438(9) 1.100(6)
H2 H 0.069(7) 0.124(7) 0.269(4)
H3 H -0.362(8) -0.245(7) 0.263(4)
H4 H 0.042(6) -0.166(6) 0.449(4)
H5 H 0.930(7) 0.545(6) 0.607(4)
H6 H 1.121(10) 0.589(9) 0.747(6)
H7 H 0.588(8) 0.168(7) 0.675(4)
H8 H 0.747(8) 0.184(7) 0.820(4)
H9 H 1.209(9) 0.630(9) 0.906(5)
H10 H 1.382(8) 0.637(8) 1.032(4)
H11 H 1.120(8) 0.206(8) 1.046(5)
H12 H 0.952(8) 0.172(8) 0.908(4)
Cd1_2 Cd -0.42024(4) -0.66804(4) 0.48511(2)
Cd1A Cd -0.57976(4) -0.33196(4) 0.51489(2)
O3_2 O 0.7964(5) 0.5514(5) 0.4519(3)
O4A O 0.4359(4) 0.4260(4) 0.5980(3)
O9 O 0.4353(8) 0.3989(7) 0.2078(4)
O10 O 0.3536(6) 0.0796(7) 0.1124(4)
loop_
_geom_bond_atom_site_label_1
_geom_bond_atom_site_label_2
_geom_bond_site_symmetry_1
_geom_bond_site_symmetry_2
Cd1 O1 1_555 1_555
S1 O5 1_555 1_555
O1 C1 1_555 1_555
O2 Cd1 1_555 1_555
O3 C7 1_555 1_555
O4 C7 1_555 1_555
O6 S1 1_555 1_555
O7 S1 1_555 1_555
O8 Cd1 1_555 1_555
N1 Cd1 1_555 1_555
N2 C16 1_555 1_555
C1 O2 1_555 1_555
C2 C1 1_555 1_555
C3 C2 1_555 1_555
C4 S1 1_555 1_555
C5 C4 1_555 1_555
C6 C5 1_555 1_555
C7 C6 1_555 1_555
C8 C2 1_555 1_555
C9 N1 1_555 1_555
C10 C9 1_555 1_555
C11 N1 1_555 1_555
C12 C11 1_555 1_555
C13 C10 1_555 1_555
C14 C13 1_555 1_555
C15 C14 1_555 1_555
C16 C15 1_555 1_555
C17 N2 1_555 1_555
C18 C14 1_555 1_555
H1 N2 1_555 1_555
H2 C3 1_555 1_555
H3 C5 1_555 1_555
H4 C8 1_555 1_555
H5 C9 1_555 1_555
H6 C10 1_555 1_555
H7 C11 1_555 1_555
H8 C12 1_555 1_555
H9 C15 1_555 1_555
H10 C16 1_555 1_555
H11 C17 1_555 1_555
H12 C18 1_555 1_555
Cd1_2 O3 1_555 1_555
Cd1A O4 1_555 1_555
O3_2 Cd1 1_555 1_555
O4A Cd1 1_555 1_555
C3 C4 1_555 1_555
C6 C8 1_555 1_555
C12 C13 1_555 1_555
C17 C18 1_555 1_555

#END
