
#######################################################################
#
#                 Cambridge Crystallographic Data Centre
#                                CCDC 
#
#######################################################################
#
# If this CIF has been generated from an entry in the Cambridge 
# Structural Database, then it will include bibliographic, chemical, 
# crystal, experimental, refinement or atomic coordinate data resulting 
# from the CCDC's data processing and validation procedures.
#
#######################################################################

data_WASYIZ
_symmetry_cell_setting           triclinic
_symmetry_space_group_name_H-M   'P -1'
_symmetry_Int_Tables_number      2
_space_group_name_Hall           '-P 1'
loop_
_symmetry_equiv_pos_site_id
_symmetry_equiv_pos_as_xyz
1 x,y,z
2 -x,-y,-z
_cell_length_a                   9.2730(10)
_cell_length_b                   10.9400(13)
_cell_length_c                   16.6940(16)
_cell_angle_alpha                86.560(10)
_cell_angle_beta                 79.097(10)
_cell_angle_gamma                82.550(10)
_cell_volume                     1647.85
loop_
_atom_site_label
_atom_site_type_symbol
_atom_site_fract_x
_atom_site_fract_y
_atom_site_fract_z
C1 C 0.7818(7) 0.0224(7) 0.8877(4)
H1 H 0.7139 0.0213 0.9365
C2 C 0.7310(7) 0.0331(7) 0.8167(5)
H2 H 0.6295 0.0408 0.8180
C3 C 0.8275(7) 0.0328(6) 0.7408(4)
C4 C 0.9790(8) 0.0223(7) 0.7462(5)
H3 H 1.0492 0.0221 0.6983
C5 C 1.0244(8) 0.0126(7) 0.8181(5)
H4 H 1.1253 0.0052 0.8187
C6 C 0.6219(9) 0.0621(10) 0.6686(6)
H5 H 0.6071 0.0678 0.6131
H6 H 0.5782 0.1369 0.6953
H7 H 0.5764 -0.0063 0.6966
C7 C 0.8825(10) 0.0358(10) 0.5920(5)
H8 H 0.8278 0.0454 0.5481
H9 H 0.9418 -0.0431 0.5893
H10 H 0.9454 0.0999 0.5872
C8 C 1.2212(7) 0.2725(6) 0.9275(4)
C9 C 1.3655(8) 0.2113(8) 0.8834(5)
H11 H 1.4319 0.2721 0.8659
H12 H 1.3495 0.1715 0.8367
H13 H 1.4078 0.1510 0.9193
C10 C 1.1081(8) 0.3083(7) 1.1374(5)
H14 H 1.1792 0.2862 1.0918
C11 C 1.1497(8) 0.2952(6) 1.2111(5)
H15 H 1.2462 0.2636 1.2152
C12 C 1.0465(9) 0.3295(7) 1.2814(5)
C13 C 0.9054(9) 0.3743(9) 1.2663(6)
H16 H 0.8310 0.3975 1.3103
C14 C 0.8738(9) 0.3852(9) 1.1918(5)
H17 H 0.7789 0.4182 1.1853
C15 C 1.2340(11) 0.2781(9) 1.3676(6)
H18 H 1.2388 0.2769 1.4246
H19 H 1.2994 0.3333 1.3381
H20 H 1.2632 0.1966 1.3474
C16 C 0.9725(13) 0.3534(12) 1.4288(6)
H21 H 1.0176 0.3404 1.4764
H22 H 0.8936 0.3030 1.4339
H23 H 0.9337 0.4386 1.4238
C17 C 0.9034(8) 0.3519(6) 0.8326(5)
H24 H 1.0010 0.3170 0.8300
C18 C 0.8487(8) 0.3626(6) 0.7635(5)
H25 H 0.9083 0.3359 0.7149
C19 C 0.7012(8) 0.4142(6) 0.7641(5)
C20 C 0.6206(8) 0.4518(7) 0.8405(5)
H26 H 0.5224 0.4862 0.8451
C21 C 0.6844(8) 0.4384(7) 0.9072(5)
H27 H 0.6278 0.4649 0.9566
C22 C 0.7227(11) 0.3895(9) 0.6169(6)
H28 H 0.6601 0.4082 0.5770
H29 H 0.7542 0.3024 0.6188
H30 H 0.8078 0.4333 0.6023
C23 C 0.4876(10) 0.4826(10) 0.6993(6)
H31 H 0.4644 0.4854 0.6455
H32 H 0.4758 0.5648 0.7187
H33 H 0.4222 0.4340 0.7354
N1 N 0.9271(6) 0.0133(5) 0.8908(4)
N2 N 0.7795(7) 0.0436(6) 0.6700(4)
N3 N 0.8251(6) 0.3889(5) 0.9063(4)
N4 N 0.6412(7) 0.4268(6) 0.6966(4)
N5 N 0.9729(6) 0.3505(5) 1.1259(4)
N6 N 1.0828(8) 0.3200(7) 1.3565(4)
O1 O 1.1221(5) 0.2040(4) 0.9544(3)
O2 O 1.2031(5) 0.3872(4) 0.9359(3)
Hg1 Hg 1.0000 0.0000 1.0000
Hg2 Hg 0.91567(3) 0.36449(2) 1.011178(18)
C1A C 1.2182(7) -0.0224(7) 1.1123(4)
H1A H 1.2861 -0.0213 1.0635
C2A C 1.2690(7) -0.0331(7) 1.1833(5)
H2A H 1.3705 -0.0408 1.1820
C3A C 1.1725(7) -0.0328(6) 1.2592(4)
C4A C 1.0210(8) -0.0223(7) 1.2538(5)
H3A H 0.9508 -0.0221 1.3017
C5A C 0.9756(8) -0.0126(7) 1.1819(5)
H4A H 0.8747 -0.0052 1.1813
C6A C 1.3781(9) -0.0621(10) 1.3314(6)
H5A H 1.3929 -0.0678 1.3869
H6A H 1.4218 -0.1369 1.3047
H7A H 1.4236 0.0063 1.3034
C7A C 1.1175(10) -0.0358(10) 1.4080(5)
H8A H 1.1722 -0.0454 1.4519
H9A H 1.0582 0.0431 1.4107
H10A H 1.0546 -0.0999 1.4128
C8A C 0.7788(7) -0.2725(6) 1.0725(4)
C9A C 0.6345(8) -0.2113(8) 1.1166(5)
H11A H 0.5681 -0.2721 1.1341
H12A H 0.6505 -0.1715 1.1633
H13A H 0.5922 -0.1510 1.0807
C10A C 0.8919(8) -0.3083(7) 0.8626(5)
H14A H 0.8208 -0.2862 0.9082
C11A C 0.8503(8) -0.2952(6) 0.7889(5)
H15A H 0.7538 -0.2636 0.7848
C12A C 0.9535(9) -0.3295(7) 0.7186(5)
C13A C 1.0946(9) -0.3743(9) 0.7337(6)
H16A H 1.1690 -0.3975 0.6897
C14A C 1.1262(9) -0.3852(9) 0.8082(5)
H17A H 1.2211 -0.4182 0.8147
C15A C 0.7660(11) -0.2781(9) 0.6324(6)
H18A H 0.7612 -0.2769 0.5754
H19A H 0.7006 -0.3333 0.6619
H20A H 0.7368 -0.1966 0.6526
C16A C 1.0275(13) -0.3534(12) 0.5712(6)
H21A H 0.9824 -0.3404 0.5236
H22A H 1.1064 -0.3030 0.5661
H23A H 1.0663 -0.4386 0.5762
C17A C 1.0966(8) -0.3519(6) 1.1674(5)
H24A H 0.9990 -0.3170 1.1700
C18A C 1.1513(8) -0.3626(6) 1.2365(5)
H25A H 1.0917 -0.3359 1.2851
C19A C 1.2988(8) -0.4142(6) 1.2359(5)
C20A C 1.3794(8) -0.4518(7) 1.1595(5)
H26A H 1.4776 -0.4862 1.1549
C21A C 1.3156(8) -0.4384(7) 1.0928(5)
H27A H 1.3722 -0.4649 1.0434
C22A C 1.2773(11) -0.3895(9) 1.3831(6)
H28A H 1.3399 -0.4082 1.4230
H29A H 1.2458 -0.3024 1.3812
H30A H 1.1922 -0.4333 1.3977
C23A C 1.5124(10) -0.4826(10) 1.3007(6)
H31A H 1.5356 -0.4854 1.3545
H32A H 1.5242 -0.5648 1.2813
H33A H 1.5778 -0.4340 1.2646
N1A N 1.0729(6) -0.0133(5) 1.1092(4)
N2A N 1.2205(7) -0.0436(6) 1.3300(4)
N3A N 1.1749(6) -0.3889(5) 1.0937(4)
N4A N 1.3588(7) -0.4268(6) 1.3034(4)
N5A N 1.0271(6) -0.3505(5) 0.8741(4)
N6A N 0.9172(8) -0.3200(7) 0.6435(4)
O1A O 0.8779(5) -0.2040(4) 1.0456(3)
O2A O 0.7969(5) -0.3872(4) 1.0641(3)
Hg2A Hg 1.08433(3) -0.36449(2) 0.988822(18)
Hg2A_2 Hg 1.08433(3) 0.63551(2) 0.988822(18)
Hg2_2 Hg 0.91567(3) -0.63551(2) 1.011178(18)
O3 O 0.7492(7) 0.1412(6) 0.0692(5)
O4 O 0.5044(9) 0.1511(10) 0.0637(5)
O5 O 0.6099(9) 0.3212(6) 0.0923(6)
O6 O 0.5692(11) 0.1629(11) 0.1857(5)
Cl1 Cl 0.6037(2) 0.19269(18) 0.10402(12)
O7 O 0.2602(11) 0.2332(13) 0.6903(5)
O8 O 0.279(2) 0.1294(13) 0.5760(11)
O9 O 0.3599(13) 0.3069(13) 0.5650(6)
O10 O 0.1138(10) 0.2818(13) 0.5966(6)
Cl2 Cl 0.2551(3) 0.2452(3) 0.60823(16)
loop_
_geom_bond_atom_site_label_1
_geom_bond_atom_site_label_2
_geom_bond_site_symmetry_1
_geom_bond_site_symmetry_2
C1 H1 1_555 1_555
C2 C1 1_555 1_555
H2 C2 1_555 1_555
C3 C2 1_555 1_555
C4 C3 1_555 1_555
H3 C4 1_555 1_555
C5 C4 1_555 1_555
H4 C5 1_555 1_555
C6 H5 1_555 1_555
H6 C6 1_555 1_555
H7 C6 1_555 1_555
C7 H8 1_555 1_555
H9 C7 1_555 1_555
H10 C7 1_555 1_555
C8 C9 1_555 1_555
C9 H11 1_555 1_555
H12 C9 1_555 1_555
H13 C9 1_555 1_555
C10 H14 1_555 1_555
C11 C10 1_555 1_555
H15 C11 1_555 1_555
C12 C11 1_555 1_555
C13 C12 1_555 1_555
H16 C13 1_555 1_555
C14 C13 1_555 1_555
H17 C14 1_555 1_555
C15 H18 1_555 1_555
H19 C15 1_555 1_555
H20 C15 1_555 1_555
C16 H21 1_555 1_555
H22 C16 1_555 1_555
H23 C16 1_555 1_555
C17 H24 1_555 1_555
C18 C17 1_555 1_555
H25 C18 1_555 1_555
C19 C18 1_555 1_555
C20 C19 1_555 1_555
H26 C20 1_555 1_555
C21 C20 1_555 1_555
H27 C21 1_555 1_555
C22 H28 1_555 1_555
H29 C22 1_555 1_555
H30 C22 1_555 1_555
C23 H31 1_555 1_555
H32 C23 1_555 1_555
H33 C23 1_555 1_555
N1 C1 1_555 1_555
N2 C3 1_555 1_555
N3 C17 1_555 1_555
N4 C19 1_555 1_555
N5 C10 1_555 1_555
N6 C12 1_555 1_555
O1 C8 1_555 1_555
O2 C8 1_555 1_555
O3 Cl1 1_555 1_555
O4 Cl1 1_555 1_555
O5 Cl1 1_555 1_555
O6 Cl1 1_555 1_555
O7 Cl2 1_555 1_555
O8 Cl2 1_555 1_555
O9 Cl2 1_555 1_555
O10 Cl2 1_555 1_555
Hg1 N1 1_555 1_555
Hg2 N3 1_555 1_555
C1A H1A 1_555 1_555
C2A C1A 1_555 1_555
H2A C2A 1_555 1_555
C3A C2A 1_555 1_555
C4A C3A 1_555 1_555
H3A C4A 1_555 1_555
C5A C4A 1_555 1_555
H4A C5A 1_555 1_555
C6A H5A 1_555 1_555
H6A C6A 1_555 1_555
H7A C6A 1_555 1_555
C7A H8A 1_555 1_555
H9A C7A 1_555 1_555
H10A C7A 1_555 1_555
C8A C9A 1_555 1_555
C9A H11A 1_555 1_555
H12A C9A 1_555 1_555
H13A C9A 1_555 1_555
C10A H14A 1_555 1_555
C11A C10A 1_555 1_555
H15A C11A 1_555 1_555
C12A C11A 1_555 1_555
C13A C12A 1_555 1_555
H16A C13A 1_555 1_555
C14A C13A 1_555 1_555
H17A C14A 1_555 1_555
C15A H18A 1_555 1_555
H19A C15A 1_555 1_555
H20A C15A 1_555 1_555
C16A H21A 1_555 1_555
H22A C16A 1_555 1_555
H23A C16A 1_555 1_555
C17A H24A 1_555 1_555
C18A C17A 1_555 1_555
H25A C18A 1_555 1_555
C19A C18A 1_555 1_555
C20A C19A 1_555 1_555
H26A C20A 1_555 1_555
C21A C20A 1_555 1_555
H27A C21A 1_555 1_555
C22A H28A 1_555 1_555
H29A C22A 1_555 1_555
H30A C22A 1_555 1_555
C23A H31A 1_555 1_555
H32A C23A 1_555 1_555
H33A C23A 1_555 1_555
N1A Hg1 1_555 1_555
N2A C3A 1_555 1_555
N3A C17A 1_555 1_555
N4A C19A 1_555 1_555
N5A C10A 1_555 1_555
N6A C12A 1_555 1_555
O1A Hg1 1_555 1_555
O2A C8A 1_555 1_555
Hg2A N3A 1_555 1_555
Hg2A_2 Hg2 1_555 1_555
Hg2_2 Hg2A 1_555 1_555
C5 N1 1_555 1_555
C6 N2 1_555 1_555
C7 N2 1_555 1_555
C14 N5 1_555 1_555
C15 N6 1_555 1_555
C16 N6 1_555 1_555
C21 N3 1_555 1_555
C22 N4 1_555 1_555
C23 N4 1_555 1_555
N5 Hg2 1_555 1_555
O1 Hg1 1_555 1_555
O1 Hg2 1_555 1_555
C1A N1A 1_555 1_555
C5A N1A 1_555 1_555
C6A N2A 1_555 1_555
C7A N2A 1_555 1_555
C8A O1A 1_555 1_555
C14A N5A 1_555 1_555
C15A N6A 1_555 1_555
C16A N6A 1_555 1_555
C21A N3A 1_555 1_555
C22A N4A 1_555 1_555
C23A N4A 1_555 1_555
N5A Hg2A 1_555 1_555
O1A Hg2A 1_555 1_555

#END
