
#######################################################################
#
#                 Cambridge Crystallographic Data Centre
#                                CCDC 
#
#######################################################################
#
# If this CIF has been generated from an entry in the Cambridge 
# Structural Database, then it will include bibliographic, chemical, 
# crystal, experimental, refinement or atomic coordinate data resulting 
# from the CCDC's data processing and validation procedures.
#
#######################################################################

data_WATYOH
_symmetry_cell_setting           monoclinic
_symmetry_space_group_name_H-M   'C 2'
_symmetry_Int_Tables_number      5
_space_group_name_Hall           'C 2y'
loop_
_symmetry_equiv_pos_site_id
_symmetry_equiv_pos_as_xyz
1 x,y,z
2 -x,y,-z
3 1/2+x,1/2+y,z
4 1/2-x,1/2+y,-z
_cell_length_a                   20.7481(11)
_cell_length_b                   7.6446(4)
_cell_length_c                   14.9105(7)
_cell_angle_alpha                90
_cell_angle_beta                 107.187(3)
_cell_angle_gamma                90
_cell_volume                     2259.36
loop_
_atom_site_label
_atom_site_type_symbol
_atom_site_fract_x
_atom_site_fract_y
_atom_site_fract_z
N1 N 0.5496(3) 0.8118(13) 0.3910(4)
C1 C 0.5475(4) 0.9670(11) 0.3416(5)
H1 H 0.5270 1.0679 0.3583
C2 C 0.5756(5) 0.9745(12) 0.2678(6)
H2 H 0.5742 1.0805 0.2341
C3 C 0.6058(5) 0.8268(14) 0.2434(6)
C4 C 0.6078(5) 0.6717(12) 0.2928(8)
H3 H 0.6284 0.5707 0.2761
C5 C 0.5797(4) 0.6642(11) 0.3666(7)
H4 H 0.5811 0.5581 0.4003
Zn1 Zn 0.5000 0.80988(17) 0.5000
Si1 Si 0.5000 1.3110(9) 0.5000
F1 F 0.5000 1.0852(15) 0.5000
F2 F 0.4724(3) 1.3102(15) 0.3837(4)
F3 F 0.4209(3) 1.3075(13) 0.5043(4)
F4 F 0.5000 1.5346(13) 0.5000
C6 C 0.6423(7) 0.845(3) 0.1638(9)
O1 O 0.6700(12) 0.728(3) 0.1504(15)
O2 O 0.6124(7) 0.957(3) 0.1056(8)
C7 C 0.6413(8) 0.977(3) 0.0331(8)
H5 H 0.6821 0.9017 0.0426
C8 C 0.5854(9) 0.924(3) -0.0544(10)
H6 H 0.5506 0.8552 -0.0368
H7 H 0.6040 0.8519 -0.0959
C9 C 0.5530(5) 1.099(4) -0.1072(7)
H8 H 0.5440 1.1855 -0.0631
H9 H 0.5108 1.0745 -0.1577
C10 C 0.6127(9) 1.164(5) -0.1491(9)
H10 H 0.6167 1.0848 -0.1999
H11 H 0.6040 1.2840 -0.1742
C11 C 0.6773(7) 1.157(5) -0.0640(11)
H12 H 0.7010 1.0443 -0.0643
H13 H 0.7081 1.2527 -0.0688
C12 C 0.6588(7) 1.174(3) 0.0287(8)
H14 H 0.6213 1.2578 0.0270
O3 O 0.7191(5) 1.1966(17) 0.1064(6)
C13 C 0.7133(7) 1.2746(17) 0.1833(9)
O4 O 0.6605(6) 1.337(2) 0.1928(9)
C14 C 0.7793(6) 1.291(3) 0.2568(8)
C15 C 0.7979(7) 1.4371(18) 0.3138(10)
H15 H 0.7684 1.5344 0.3071
C16 C 0.8613(6) 1.4376(16) 0.3814(9)
H16 H 0.8745 1.5374 0.4206
N2 N 0.9039(4) 1.3028(19) 0.3928(5)
C17 C 0.8861(7) 1.1646(16) 0.3384(8)
H17 H 0.9168 1.0696 0.3468
C18 C 0.8261(7) 1.152(2) 0.2711(10)
H18 H 0.8154 1.0495 0.2335
N1A N 0.4504(3) 0.8118(13) 0.6090(4)
C1A C 0.4525(4) 0.9670(11) 0.6584(5)
H1A H 0.4730 1.0679 0.6417
C2A C 0.4244(5) 0.9745(12) 0.7322(6)
H2A H 0.4258 1.0805 0.7659
C3A C 0.3942(5) 0.8268(14) 0.7566(6)
C4A C 0.3922(5) 0.6717(12) 0.7072(8)
H3A H 0.3716 0.5707 0.7239
C5A C 0.4203(4) 0.6642(11) 0.6334(7)
H4A H 0.4189 0.5581 0.5997
Zn1_2 Zn 0.5000 1.80988(17) 0.5000
Zn1B Zn 0.0000 1.30988(17) 0.5000
Zn1B_2 Zn 1.0000 1.30988(17) 0.5000
F2A F 0.5276(3) 1.3102(15) 0.6163(4)
F3A F 0.5791(3) 1.3075(13) 0.4957(4)
F4_2 F 0.5000 0.5346(13) 0.5000
C6A C 0.3577(7) 0.845(3) 0.8362(9)
O1A O 0.3300(12) 0.728(3) 0.8496(15)
O2A O 0.3876(7) 0.957(3) 0.8944(8)
C7A C 0.3587(8) 0.977(3) 0.9669(8)
H5A H 0.3179 0.9017 0.9574
C8A C 0.4146(9) 0.924(3) 1.0544(10)
H6A H 0.4494 0.8552 1.0368
H7A H 0.3960 0.8519 1.0959
C9A C 0.4470(5) 1.099(4) 1.1072(7)
H8A H 0.4560 1.1855 1.0631
H9A H 0.4892 1.0745 1.1577
C10A C 0.3873(9) 1.164(5) 1.1491(9)
H10A H 0.3833 1.0848 1.1999
H11A H 0.3960 1.2840 1.1742
C11A C 0.3227(7) 1.157(5) 1.0640(11)
H12A H 0.2990 1.0443 1.0643
H13A H 0.2919 1.2527 1.0688
C12A C 0.3412(7) 1.174(3) 0.9713(8)
H14A H 0.3787 1.2578 0.9730
O3A O 0.2809(5) 1.1966(17) 0.8936(6)
C13A C 0.2867(7) 1.2746(17) 0.8167(9)
O4A O 0.3395(6) 1.337(2) 0.8072(9)
C14A C 0.2207(6) 1.291(3) 0.7432(8)
C15A C 0.2021(7) 1.4371(18) 0.6862(10)
H15A H 0.2316 1.5344 0.6929
C16A C 0.1387(6) 1.4376(16) 0.6186(9)
H16A H 0.1255 1.5374 0.5794
N2A N 0.0961(4) 1.3028(19) 0.6072(5)
N2B N 0.4039(4) 0.8028(19) 0.3928(5)
N2C N 0.5961(4) 0.8028(19) 0.6072(5)
C17A C 0.1139(7) 1.1646(16) 0.6616(8)
H17A H 0.0832 1.0696 0.6532
C18A C 0.1739(7) 1.152(2) 0.7289(10)
H18A H 0.1846 1.0495 0.7665
loop_
_geom_bond_atom_site_label_1
_geom_bond_atom_site_label_2
_geom_bond_site_symmetry_1
_geom_bond_site_symmetry_2
N1 C1 1_555 1_555
C1 H1 1_555 1_555
C2 C1 1_555 1_555
H2 C2 1_555 1_555
C3 C2 1_555 1_555
C4 C3 1_555 1_555
H3 C4 1_555 1_555
C5 N1 1_555 1_555
H4 C5 1_555 1_555
Zn1 N1 1_555 1_555
Si1 F1 1_555 1_555
F1 Zn1 1_555 1_555
F2 Si1 1_555 1_555
F3 Si1 1_555 1_555
F4 Si1 1_555 1_555
C6 C3 1_555 1_555
O1 C6 1_555 1_555
O2 C6 1_555 1_555
C7 O2 1_555 1_555
H5 C7 1_555 1_555
C8 C7 1_555 1_555
H6 C8 1_555 1_555
H7 C8 1_555 1_555
C9 C8 1_555 1_555
H8 C9 1_555 1_555
H9 C9 1_555 1_555
C10 C9 1_555 1_555
H10 C10 1_555 1_555
H11 C10 1_555 1_555
C11 C10 1_555 1_555
H12 C11 1_555 1_555
H13 C11 1_555 1_555
C12 C7 1_555 1_555
H14 C12 1_555 1_555
O3 C12 1_555 1_555
C13 O3 1_555 1_555
O4 C13 1_555 1_555
C14 C13 1_555 1_555
C15 C14 1_555 1_555
H15 C15 1_555 1_555
C16 C15 1_555 1_555
H16 C16 1_555 1_555
N2 C16 1_555 1_555
C17 N2 1_555 1_555
H17 C17 1_555 1_555
C18 C14 1_555 1_555
H18 C18 1_555 1_555
N1A Zn1 1_555 1_555
C1A N1A 1_555 1_555
H1A C1A 1_555 1_555
C2A C1A 1_555 1_555
H2A C2A 1_555 1_555
C3A C2A 1_555 1_555
C4A C3A 1_555 1_555
H3A C4A 1_555 1_555
C5A N1A 1_555 1_555
H4A C5A 1_555 1_555
Zn1_2 F4 1_555 1_555
Zn1B N2A 1_555 1_555
Zn1B_2 N2 1_555 1_555
F2A Si1 1_555 1_555
F3A Si1 1_555 1_555
F4_2 Zn1 1_555 1_555
C6A C3A 1_555 1_555
O1A C6A 1_555 1_555
O2A C6A 1_555 1_555
C7A O2A 1_555 1_555
H5A C7A 1_555 1_555
C8A C7A 1_555 1_555
H6A C8A 1_555 1_555
H7A C8A 1_555 1_555
C9A C8A 1_555 1_555
H8A C9A 1_555 1_555
H9A C9A 1_555 1_555
C10A C9A 1_555 1_555
H10A C10A 1_555 1_555
H11A C10A 1_555 1_555
C11A C10A 1_555 1_555
H12A C11A 1_555 1_555
H13A C11A 1_555 1_555
C12A C7A 1_555 1_555
H14A C12A 1_555 1_555
O3A C12A 1_555 1_555
C13A O3A 1_555 1_555
O4A C13A 1_555 1_555
C14A C13A 1_555 1_555
C15A C14A 1_555 1_555
H15A C15A 1_555 1_555
C16A C15A 1_555 1_555
H16A C16A 1_555 1_555
N2A C16A 1_555 1_555
N2B Zn1 1_555 1_555
N2C Zn1 1_555 1_555
C17A N2A 1_555 1_555
H17A C17A 1_555 1_555
C18A C14A 1_555 1_555
H18A C18A 1_555 1_555
C4 C5 1_555 1_555
C11 C12 1_555 1_555
C17 C18 1_555 1_555
C4A C5A 1_555 1_555
C11A C12A 1_555 1_555
C17A C18A 1_555 1_555

#END
