
#######################################################################
#
#                 Cambridge Crystallographic Data Centre
#                                CCDC 
#
#######################################################################
#
# If this CIF has been generated from an entry in the Cambridge 
# Structural Database, then it will include bibliographic, chemical, 
# crystal, experimental, refinement or atomic coordinate data resulting 
# from the CCDC's data processing and validation procedures.
#
#######################################################################

data_WATZIC
_symmetry_cell_setting           monoclinic
_symmetry_space_group_name_H-M   'C 2'
_symmetry_Int_Tables_number      5
_space_group_name_Hall           'C 2y'
loop_
_symmetry_equiv_pos_site_id
_symmetry_equiv_pos_as_xyz
1 x,y,z
2 -x,y,-z
3 1/2+x,1/2+y,z
4 1/2-x,1/2+y,-z
_cell_length_a                   23.2828(4)
_cell_length_b                   7.59880(10)
_cell_length_c                   16.6091(3)
_cell_angle_alpha                90
_cell_angle_beta                 100.1650(10)
_cell_angle_gamma                90
_cell_volume                     2892.38
loop_
_atom_site_label
_atom_site_type_symbol
_atom_site_fract_x
_atom_site_fract_y
_atom_site_fract_z
Zn1 Zn 0.0000 0.21742(4) 0.5000
Si1 Si 0.0000 0.71253(19) 0.5000
F1 F 0.0000 0.4878(4) 0.5000
F2 F 0.01378(8) 0.7101(3) 0.60096(8)
F3 F 0.07121(6) 0.7130(4) 0.49714(12)
F4 F 0.0000 0.9392(4) 0.5000
N1 N 0.08164(7) 0.2153(5) 0.58210(10)
C1 C 0.12413(11) 0.1026(4) 0.57158(15)
H1 H 0.1172 0.0243 0.5263
C2 C 0.17710(11) 0.0953(4) 0.62329(16)
H2 H 0.2066 0.0167 0.6128
C3 C 0.18668(9) 0.2052(5) 0.69132(13)
C4 C 0.14339(11) 0.3221(5) 0.70356(17)
H3 H 0.1489 0.3985 0.7496
C5 C 0.09141(12) 0.3254(4) 0.64680(17)
H4 H 0.0620 0.4077 0.6540
C6 C 0.24451(10) 0.1988(5) 0.74623(14)
O1 O 0.28762(9) 0.1379(4) 0.72679(13)
O2 O 0.24310(7) 0.2730(3) 0.81990(10)
C7 C 0.29803(11) 0.2857(5) 0.87441(14)
H5 H 0.3272 0.2067 0.8552
C8 C 0.32144(11) 0.4706(5) 0.88361(14)
H6 H 0.2886 0.5572 0.8775
C9 C 0.35565(11) 0.4732(6) 0.97123(16)
N2 N 0.33213(9) 0.3415(4) 1.01279(12)
C10 C 0.29185(10) 0.2364(5) 0.96187(14)
O3 O 0.35830(9) 0.5059(3) 0.82562(12)
C11 C 0.35966(11) 0.6751(5) 0.79992(16)
O4 O 0.33494(12) 0.7950(4) 0.82582(17)
C12 C 0.39594(10) 0.6892(5) 0.73339(14)
C13 C 0.43018(12) 0.5509(5) 0.71548(17)
H7 H 0.4335 0.4461 0.7471
C14 C 0.45934(13) 0.5690(5) 0.65071(17)
H8 H 0.4827 0.4739 0.6381
N3 N 0.45616(7) 0.7158(4) 0.60437(10)
C15 C 0.42376(11) 0.8509(4) 0.62320(16)
H9 H 0.4214 0.9555 0.5915
C16 C 0.39360(12) 0.8405(4) 0.68834(17)
H10 H 0.3715 0.9381 0.7014
O5 O 0.39452(10) 0.5703(5) 0.99800(14)
C17 C 0.34660(12) 0.3166(5) 1.09987(15)
C18 C 0.40447(13) 0.2926(6) 1.13549(17)
H11 H 0.4342 0.2938 1.1030
C19 C 0.41832(14) 0.2667(6) 1.21993(17)
H12 H 0.4578 0.2504 1.2454
C20 C 0.37479(15) 0.2646(5) 1.26640(16)
H13 H 0.3844 0.2476 1.3239
C21 C 0.31735(14) 0.2869(5) 1.22994(17)
H14 H 0.2876 0.2825 1.2623
C22 C 0.30260(12) 0.3159(4) 1.14603(16)
H15 H 0.2631 0.3347 1.1210
O6 O 0.26161(10) 0.1246(4) 0.98300(13)
Zn1_2 Zn 0.0000 1.21742(4) 0.5000
Zn1B Zn -0.5000 0.71742(4) 0.5000
Zn1B_2 Zn 0.5000 0.71742(4) 0.5000
F2A F -0.01378(8) 0.7101(3) 0.39904(8)
F3A F -0.07121(6) 0.7130(4) 0.50286(12)
F4_2 F 0.0000 -0.0608(4) 0.5000
N1A N -0.08164(7) 0.2153(5) 0.41790(10)
C1A C -0.12413(11) 0.1026(4) 0.42842(15)
H1A H -0.1172 0.0243 0.4737
C2A C -0.17710(11) 0.0953(4) 0.37671(16)
H2A H -0.2066 0.0167 0.3872
C3A C -0.18668(9) 0.2052(5) 0.30868(13)
C4A C -0.14339(11) 0.3221(5) 0.29644(17)
H3A H -0.1489 0.3985 0.2504
C5A C -0.09141(12) 0.3254(4) 0.35320(17)
H4A H -0.0620 0.4077 0.3460
C6A C -0.24451(10) 0.1988(5) 0.25377(14)
O1A O -0.28762(9) 0.1379(4) 0.27321(13)
O2A O -0.24310(7) 0.2730(3) 0.18010(10)
C7A C -0.29803(11) 0.2857(5) 0.12559(14)
H5A H -0.3272 0.2067 0.1448
C8A C -0.32144(11) 0.4706(5) 0.11639(14)
H6A H -0.2886 0.5572 0.1225
C9A C -0.35565(11) 0.4732(6) 0.02877(16)
N2A N -0.33213(9) 0.3415(4) -0.01279(12)
C10A C -0.29185(10) 0.2364(5) 0.03813(14)
O3A O -0.35830(9) 0.5059(3) 0.17438(12)
C11A C -0.35966(11) 0.6751(5) 0.20008(16)
O4A O -0.33494(12) 0.7950(4) 0.17418(17)
C12A C -0.39594(10) 0.6892(5) 0.26661(14)
C13A C -0.43018(12) 0.5509(5) 0.28452(17)
H7A H -0.4335 0.4461 0.2529
C14A C -0.45934(13) 0.5690(5) 0.34929(17)
H8A H -0.4827 0.4739 0.3619
N3A N -0.45616(7) 0.7158(4) 0.39563(10)
N3B N -0.04384(7) 0.2158(4) 0.60437(10)
N3C N 0.04384(7) 0.2158(4) 0.39563(10)
C15A C -0.42376(11) 0.8509(4) 0.37680(16)
H9A H -0.4214 0.9555 0.4085
C16A C -0.39360(12) 0.8405(4) 0.31166(17)
H10A H -0.3715 0.9381 0.2986
O5A O -0.39452(10) 0.5703(5) 0.00200(14)
C17A C -0.34660(12) 0.3166(5) -0.09987(15)
C18A C -0.40447(13) 0.2926(6) -0.13549(17)
H11A H -0.4342 0.2938 -0.1030
C19A C -0.41832(14) 0.2667(6) -0.21993(17)
H12A H -0.4578 0.2504 -0.2454
C20A C -0.37479(15) 0.2646(5) -0.26640(16)
H13A H -0.3844 0.2476 -0.3239
C21A C -0.31735(14) 0.2869(5) -0.22994(17)
H14A H -0.2876 0.2825 -0.2623
C22A C -0.30260(12) 0.3159(4) -0.14603(16)
H15A H -0.2631 0.3347 -0.1210
O6A O -0.26161(10) 0.1246(4) 0.01700(13)
C23 C 0.27172(16) 0.5334(8) 0.5825(3)
H16 H 0.2938 0.6413 0.5771
H17 H 0.2921 0.4326 0.5639
H18 H 0.2682 0.5166 0.6400
C24 C 0.21304(14) 0.5483(6) 0.5323(2)
H19 H 0.2158 0.5603 0.4738
H20 H 0.1896 0.4425 0.5391
O7 O 0.18701(11) 0.7001(6) 0.55994(19)
H21 H 0.1548 0.6729 0.5727
Cl1 Cl 0.45113(7) 1.1133(5) 0.91670(17)
C25 C 0.4871(3) 0.9066(14) 0.9586(6)
H22 H 0.4576 0.8114 0.9500
H23 H 0.5175 0.8766 0.9261
Cl1A Cl 0.54887(7) 1.1133(5) 1.08330(17)
C25A C 0.5129(3) 0.9066(14) 1.0414(6)
H22A H 0.5424 0.8114 1.0500
H23A H 0.4825 0.8766 1.0739
loop_
_geom_bond_atom_site_label_1
_geom_bond_atom_site_label_2
_geom_bond_site_symmetry_1
_geom_bond_site_symmetry_2
Zn1 F1 1_555 1_555
Si1 F1 1_555 1_555
F2 Si1 1_555 1_555
F3 Si1 1_555 1_555
F4 Si1 1_555 1_555
N1 Zn1 1_555 1_555
C1 N1 1_555 1_555
H1 C1 1_555 1_555
C2 C1 1_555 1_555
H2 C2 1_555 1_555
C3 C2 1_555 1_555
C4 C3 1_555 1_555
H3 C4 1_555 1_555
C5 N1 1_555 1_555
H4 C5 1_555 1_555
C6 C3 1_555 1_555
O1 C6 1_555 1_555
O2 C6 1_555 1_555
C7 O2 1_555 1_555
H5 C7 1_555 1_555
C8 C7 1_555 1_555
H6 C8 1_555 1_555
C9 C8 1_555 1_555
N2 C9 1_555 1_555
C10 C7 1_555 1_555
O3 C8 1_555 1_555
C11 O3 1_555 1_555
O4 C11 1_555 1_555
C12 C11 1_555 1_555
C13 C12 1_555 1_555
H7 C13 1_555 1_555
C14 C13 1_555 1_555
H8 C14 1_555 1_555
N3 C14 1_555 1_555
C15 N3 1_555 1_555
H9 C15 1_555 1_555
C16 C12 1_555 1_555
H10 C16 1_555 1_555
O5 C9 1_555 1_555
C17 N2 1_555 1_555
C18 C17 1_555 1_555
H11 C18 1_555 1_555
C19 C18 1_555 1_555
H12 C19 1_555 1_555
C20 C19 1_555 1_555
H13 C20 1_555 1_555
C21 C20 1_555 1_555
H14 C21 1_555 1_555
C22 C17 1_555 1_555
H15 C22 1_555 1_555
O6 C10 1_555 1_555
C23 H16 1_555 1_555
H17 C23 1_555 1_555
H18 C23 1_555 1_555
C24 C23 1_555 1_555
H19 C24 1_555 1_555
H20 C24 1_555 1_555
O7 C24 1_555 1_555
H21 O7 1_555 1_555
Cl1 C25 1_555 1_555
C25 H22 1_555 1_555
H23 C25 1_555 1_555
Zn1_2 F4 1_555 1_555
Zn1B N3A 1_555 1_555
Zn1B_2 N3 1_555 1_555
F2A Si1 1_555 1_555
F3A Si1 1_555 1_555
F4_2 Zn1 1_555 1_555
N1A Zn1 1_555 1_555
C1A N1A 1_555 1_555
H1A C1A 1_555 1_555
C2A C1A 1_555 1_555
H2A C2A 1_555 1_555
C3A C2A 1_555 1_555
C4A C3A 1_555 1_555
H3A C4A 1_555 1_555
C5A N1A 1_555 1_555
H4A C5A 1_555 1_555
C6A C3A 1_555 1_555
O1A C6A 1_555 1_555
O2A C6A 1_555 1_555
C7A O2A 1_555 1_555
H5A C7A 1_555 1_555
C8A C7A 1_555 1_555
H6A C8A 1_555 1_555
C9A C8A 1_555 1_555
N2A C9A 1_555 1_555
C10A C7A 1_555 1_555
O3A C8A 1_555 1_555
C11A O3A 1_555 1_555
O4A C11A 1_555 1_555
C12A C11A 1_555 1_555
C13A C12A 1_555 1_555
H7A C13A 1_555 1_555
C14A C13A 1_555 1_555
H8A C14A 1_555 1_555
N3A C14A 1_555 1_555
N3B Zn1 1_555 1_555
N3C Zn1 1_555 1_555
C15A N3A 1_555 1_555
H9A C15A 1_555 1_555
C16A C12A 1_555 1_555
H10A C16A 1_555 1_555
O5A C9A 1_555 1_555
C17A N2A 1_555 1_555
C18A C17A 1_555 1_555
H11A C18A 1_555 1_555
C19A C18A 1_555 1_555
H12A C19A 1_555 1_555
C20A C19A 1_555 1_555
H13A C20A 1_555 1_555
C21A C20A 1_555 1_555
H14A C21A 1_555 1_555
C22A C17A 1_555 1_555
H15A C22A 1_555 1_555
O6A C10A 1_555 1_555
Cl1A C25A 1_555 1_555
C25A C25 1_555 1_555
H22A C25A 1_555 1_555
H23A C25A 1_555 1_555
C4 C5 1_555 1_555
N2 C10 1_555 1_555
C15 C16 1_555 1_555
C21 C22 1_555 1_555
C4A C5A 1_555 1_555
N2A C10A 1_555 1_555
C15A C16A 1_555 1_555
C21A C22A 1_555 1_555

#END
