
#######################################################################
#
#                 Cambridge Crystallographic Data Centre
#                                CCDC 
#
#######################################################################
#
# If this CIF has been generated from an entry in the Cambridge 
# Structural Database, then it will include bibliographic, chemical, 
# crystal, experimental, refinement or atomic coordinate data resulting 
# from the CCDC's data processing and validation procedures.
#
#######################################################################

data_WATZOI
_symmetry_cell_setting           monoclinic
_symmetry_space_group_name_H-M   'C 2'
_symmetry_Int_Tables_number      5
_space_group_name_Hall           'C 2y'
loop_
_symmetry_equiv_pos_site_id
_symmetry_equiv_pos_as_xyz
1 x,y,z
2 -x,y,-z
3 1/2+x,1/2+y,z
4 1/2-x,1/2+y,-z
_cell_length_a                   24.0625(16)
_cell_length_b                   7.6315(4)
_cell_length_c                   16.3387(10)
_cell_angle_alpha                90
_cell_angle_beta                 99.928(3)
_cell_angle_gamma                90
_cell_volume                     2955.39
loop_
_atom_site_label
_atom_site_type_symbol
_atom_site_fract_x
_atom_site_fract_y
_atom_site_fract_z
Zn1 Zn 0.0000 0.74893(5) 0.5000
Si1 Si 0.0000 0.2537(2) 0.5000
F1 F 0.0000 0.4781(5) 0.5000
F2 F 0.01430(11) 0.2574(4) 0.60264(12)
F3 F -0.06881(9) 0.2545(4) 0.50463(17)
F4 F 0.0000 0.0279(4) 0.5000
N1 N 0.32691(16) 0.6250(6) 1.0094(2)
C1 C 0.28804(17) 0.7273(7) 0.9597(2)
O1 O 0.25931(16) 0.8399(5) 0.9822(2)
C2 C 0.29299(18) 0.6833(6) 0.8689(2)
H1 H 0.3207 0.7630 0.8487
C3 C 0.31546(17) 0.4991(7) 0.8779(2)
H2 H 0.2837 0.4129 0.8716
C4 C 0.3485(2) 0.4957(8) 0.9665(3)
O2 O 0.3850(2) 0.3907(8) 0.9930(2)
O3 O 0.23939(12) 0.6942(4) 0.81642(16)
C5 C 0.24009(16) 0.7684(6) 0.7405(2)
O4 O 0.28058(13) 0.8288(5) 0.7198(2)
C6 C 0.18316(15) 0.7593(7) 0.6871(2)
C7 C 0.14115(18) 0.6445(6) 0.7009(3)
H3 H 0.1472 0.5677 0.7474
C8 C 0.09062(18) 0.6427(5) 0.6469(3)
H4 H 0.0625 0.5611 0.6560
N2 N 0.07948(11) 0.7531(5) 0.58111(16)
C9 C 0.11972(17) 0.8653(5) 0.5687(2)
H5 H 0.1120 0.9448 0.5234
C10 C 0.17192(16) 0.8704(5) 0.6188(2)
H6 H 0.2000 0.9492 0.6069
O5 O 0.35151(12) 0.4645(4) 0.81832(16)
C11 C 0.3526(2) 0.3000(6) 0.7911(3)
O6 O 0.3272(2) 0.1806(6) 0.8142(3)
C12 C 0.39055(17) 0.2841(5) 0.7270(2)
C13 C 0.4253(2) 0.4208(6) 0.7120(3)
H7 H 0.4269 0.5265 0.7430
C14 C 0.45759(19) 0.3989(6) 0.6504(2)
H8 H 0.4816 0.4920 0.6397
N3 N 0.45660(11) 0.2518(6) 0.60493(16)
C15 C 0.42290(17) 0.1205(5) 0.6204(3)
H9 H 0.4218 0.0161 0.5885
C16 C 0.38961(19) 0.1320(6) 0.6814(3)
H10 H 0.3665 0.0364 0.6917
C17 C 0.3432(2) 0.6492(6) 1.0984(2)
C18 C 0.3015(2) 0.6498(6) 1.1472(3)
H11 H 0.2630 0.6314 1.1234
C19 C 0.3176(2) 0.6781(6) 1.2320(3)
H12 H 0.2897 0.6835 1.2666
C20 C 0.3736(2) 0.6984(6) 1.2666(3)
H13 H 0.3842 0.7152 1.3248
C21 C 0.4136(3) 0.6943(8) 1.2170(3)
H14 H 0.4523 0.7081 1.2408
C22 C 0.3982(2) 0.6698(10) 1.1310(3)
H15 H 0.4260 0.6679 1.0963
Zn1_2 Zn 0.0000 -0.25107(5) 0.5000
Zn1B Zn -0.5000 0.24893(5) 0.5000
Zn1B_2 Zn 0.5000 0.24893(5) 0.5000
F2A F -0.01430(11) 0.2574(4) 0.39736(12)
F3A F 0.06881(9) 0.2545(4) 0.49537(17)
F4_2 F 0.0000 1.0279(4) 0.5000
N1A N -0.32691(16) 0.6250(6) -0.0094(2)
C1A C -0.28804(17) 0.7273(7) 0.0403(2)
O1A O -0.25931(16) 0.8399(5) 0.0178(2)
C2A C -0.29299(18) 0.6833(6) 0.1311(2)
H1A H -0.3207 0.7630 0.1513
C3A C -0.31546(17) 0.4991(7) 0.1221(2)
H2A H -0.2837 0.4129 0.1284
C4A C -0.3485(2) 0.4957(8) 0.0335(3)
O2A O -0.3850(2) 0.3907(8) 0.0070(2)
O3A O -0.23939(12) 0.6942(4) 0.18358(16)
C5A C -0.24009(16) 0.7684(6) 0.2595(2)
O4A O -0.28058(13) 0.8288(5) 0.2802(2)
C6A C -0.18316(15) 0.7593(7) 0.3129(2)
C7A C -0.14115(18) 0.6445(6) 0.2991(3)
H3A H -0.1472 0.5677 0.2526
C8A C -0.09062(18) 0.6427(5) 0.3531(3)
H4A H -0.0625 0.5611 0.3440
N2A N -0.07948(11) 0.7531(5) 0.41889(16)
C9A C -0.11972(17) 0.8653(5) 0.4313(2)
H5A H -0.1120 0.9448 0.4766
C10A C -0.17192(16) 0.8704(5) 0.3812(2)
H6A H -0.2000 0.9492 0.3931
O5A O -0.35151(12) 0.4645(4) 0.18168(16)
C11A C -0.3526(2) 0.3000(6) 0.2089(3)
O6A O -0.3272(2) 0.1806(6) 0.1858(3)
C12A C -0.39055(17) 0.2841(5) 0.2730(2)
C13A C -0.4253(2) 0.4208(6) 0.2880(3)
H7A H -0.4269 0.5265 0.2570
C14A C -0.45759(19) 0.3989(6) 0.3496(2)
H8A H -0.4816 0.4920 0.3603
N3A N -0.45660(11) 0.2518(6) 0.39507(16)
N3B N -0.04340(11) 0.7518(6) 0.60493(16)
N3C N 0.04340(11) 0.7518(6) 0.39507(16)
C15A C -0.42290(17) 0.1205(5) 0.3796(3)
H9A H -0.4218 0.0161 0.4115
C16A C -0.38961(19) 0.1320(6) 0.3186(3)
H10A H -0.3665 0.0364 0.3083
C17A C -0.3432(2) 0.6492(6) -0.0984(2)
C18A C -0.3015(2) 0.6498(6) -0.1472(3)
H11A H -0.2630 0.6314 -0.1234
C19A C -0.3176(2) 0.6781(6) -0.2320(3)
H12A H -0.2897 0.6835 -0.2666
C20A C -0.3736(2) 0.6984(6) -0.2666(3)
H13A H -0.3842 0.7152 -0.3248
C21A C -0.4136(3) 0.6943(8) -0.2170(3)
H14A H -0.4523 0.7081 -0.2408
C22A C -0.3982(2) 0.6698(10) -0.1310(3)
H15A H -0.4260 0.6679 -0.0963
O7 O 0.18165(17) 0.2612(7) 0.5501(3)
H16 H 0.1465 0.2752 0.5418
C23 C 0.2075(2) 0.4126(7) 0.5251(3)
H17 H 0.1853 0.5183 0.5335
H18 H 0.2109 0.4050 0.4656
C24 C 0.2649(3) 0.4191(10) 0.5791(4)
H19 H 0.2608 0.4452 0.6365
H20 H 0.2876 0.5109 0.5587
H21 H 0.2837 0.3057 0.5771
O8 O 0.5481(7) 0.787(3) 0.0922(17)
O9 O 0.4480(7) 0.170(3) 0.9102(12)
H22 H 0.4563 0.0788 0.9382
C25 C 0.5005(8) 0.270(3) 0.9041(13)
H23 H 0.5230 0.2857 0.9603
H24 H 0.4906 0.3868 0.8801
C26 C 0.5354(9) 0.171(3) 0.8497(13)
H25 H 0.5587 0.0825 0.8831
H26 H 0.5598 0.2532 0.8265
H27 H 0.5101 0.1127 0.8042
loop_
_geom_bond_atom_site_label_1
_geom_bond_atom_site_label_2
_geom_bond_site_symmetry_1
_geom_bond_site_symmetry_2
Zn1 F1 1_555 1_555
Si1 F1 1_555 1_555
F2 Si1 1_555 1_555
F3 Si1 1_555 1_555
F4 Si1 1_555 1_555
N1 C1 1_555 1_555
C1 O1 1_555 1_555
C2 C1 1_555 1_555
H1 C2 1_555 1_555
C3 C2 1_555 1_555
H2 C3 1_555 1_555
C4 N1 1_555 1_555
O2 C4 1_555 1_555
O3 C2 1_555 1_555
C5 O3 1_555 1_555
O4 C5 1_555 1_555
C6 C5 1_555 1_555
C7 C6 1_555 1_555
H3 C7 1_555 1_555
C8 C7 1_555 1_555
H4 C8 1_555 1_555
N2 Zn1 1_555 1_555
C9 N2 1_555 1_555
H5 C9 1_555 1_555
C10 C6 1_555 1_555
H6 C10 1_555 1_555
O5 C3 1_555 1_555
C11 O5 1_555 1_555
O6 C11 1_555 1_555
C12 C11 1_555 1_555
C13 C12 1_555 1_555
H7 C13 1_555 1_555
C14 C13 1_555 1_555
H8 C14 1_555 1_555
N3 C14 1_555 1_555
C15 N3 1_555 1_555
H9 C15 1_555 1_555
C16 C12 1_555 1_555
H10 C16 1_555 1_555
C17 N1 1_555 1_555
C18 C17 1_555 1_555
H11 C18 1_555 1_555
C19 C18 1_555 1_555
H12 C19 1_555 1_555
C20 C19 1_555 1_555
H13 C20 1_555 1_555
C21 C20 1_555 1_555
H14 C21 1_555 1_555
C22 C17 1_555 1_555
H15 C22 1_555 1_555
O7 H16 1_555 1_555
C23 O7 1_555 1_555
H17 C23 1_555 1_555
H18 C23 1_555 1_555
C24 C23 1_555 1_555
H19 C24 1_555 1_555
H20 C24 1_555 1_555
H21 C24 1_555 1_555
O9 H22 1_555 1_555
C25 O9 1_555 1_555
H23 C25 1_555 1_555
H24 C25 1_555 1_555
C26 C25 1_555 1_555
H25 C26 1_555 1_555
H26 C26 1_555 1_555
H27 C26 1_555 1_555
Zn1_2 F4 1_555 1_555
Zn1B N3A 1_555 1_555
Zn1B_2 N3 1_555 1_555
F2A Si1 1_555 1_555
F3A Si1 1_555 1_555
F4_2 Zn1 1_555 1_555
N1A C1A 1_555 1_555
C1A O1A 1_555 1_555
C2A C1A 1_555 1_555
H1A C2A 1_555 1_555
C3A C2A 1_555 1_555
H2A C3A 1_555 1_555
C4A N1A 1_555 1_555
O2A C4A 1_555 1_555
O3A C2A 1_555 1_555
C5A O3A 1_555 1_555
O4A C5A 1_555 1_555
C6A C5A 1_555 1_555
C7A C6A 1_555 1_555
H3A C7A 1_555 1_555
C8A C7A 1_555 1_555
H4A C8A 1_555 1_555
N2A Zn1 1_555 1_555
C9A N2A 1_555 1_555
H5A C9A 1_555 1_555
C10A C6A 1_555 1_555
H6A C10A 1_555 1_555
O5A C3A 1_555 1_555
C11A O5A 1_555 1_555
O6A C11A 1_555 1_555
C12A C11A 1_555 1_555
C13A C12A 1_555 1_555
H7A C13A 1_555 1_555
C14A C13A 1_555 1_555
H8A C14A 1_555 1_555
N3A C14A 1_555 1_555
N3B Zn1 1_555 1_555
N3C Zn1 1_555 1_555
C15A N3A 1_555 1_555
H9A C15A 1_555 1_555
C16A C12A 1_555 1_555
H10A C16A 1_555 1_555
C17A N1A 1_555 1_555
C18A C17A 1_555 1_555
H11A C18A 1_555 1_555
C19A C18A 1_555 1_555
H12A C19A 1_555 1_555
C20A C19A 1_555 1_555
H13A C20A 1_555 1_555
C21A C20A 1_555 1_555
H14A C21A 1_555 1_555
C22A C17A 1_555 1_555
H15A C22A 1_555 1_555
C3 C4 1_555 1_555
C8 N2 1_555 1_555
C9 C10 1_555 1_555
C15 C16 1_555 1_555
C21 C22 1_555 1_555
C3A C4A 1_555 1_555
C8A N2A 1_555 1_555
C9A C10A 1_555 1_555
C15A C16A 1_555 1_555
C21A C22A 1_555 1_555

#END
