
#######################################################################
#
#                 Cambridge Crystallographic Data Centre
#                                CCDC 
#
#######################################################################
#
# If this CIF has been generated from an entry in the Cambridge 
# Structural Database, then it will include bibliographic, chemical, 
# crystal, experimental, refinement or atomic coordinate data resulting 
# from the CCDC's data processing and validation procedures.
#
#######################################################################

data_WAVXOI
_symmetry_cell_setting           triclinic
_symmetry_space_group_name_H-M   'P -1'
_symmetry_Int_Tables_number      2
_space_group_name_Hall           '-P 1'
loop_
_symmetry_equiv_pos_site_id
_symmetry_equiv_pos_as_xyz
1 x,y,z
2 -x,-y,-z
_cell_length_a                   8.3288(3)
_cell_length_b                   12.8219(4)
_cell_length_c                   13.9669(5)
_cell_angle_alpha                100.5100(10)
_cell_angle_beta                 100.8400(10)
_cell_angle_gamma                108.7500(10)
_cell_volume                     1339.05
loop_
_atom_site_label
_atom_site_type_symbol
_atom_site_fract_x
_atom_site_fract_y
_atom_site_fract_z
Mn1 Mn 0.78480(3) 0.67398(2) 0.500286(18)
Mn2 Mn 1.0000 1.0000 0.5000
Mn3 Mn 0.0000 0.5000 -0.5000
C1 C 0.5787(2) 0.75454(16) 0.28925(13)
H1 H 0.5102 0.7598 0.3340
C2 C 0.5013(2) 0.71601(16) 0.18694(13)
H2 H 0.3805 0.6958 0.1631
C3 C 0.6010(2) 0.70692(15) 0.11874(13)
C4 C 0.7809(2) 0.74008(17) 0.15954(14)
H3 H 0.8529 0.7360 0.1166
C5 C 0.8544(2) 0.77873(16) 0.26195(14)
H4 H 0.9751 0.8010 0.2878
C6 C 0.5215(2) 0.66276(14) 0.00810(12)
C7 C 0.3645(2) 0.67196(16) -0.03764(13)
H5 H 0.3082 0.7068 0.0018
C8 C 0.2909(2) 0.62988(16) -0.14110(13)
H6 H 0.1882 0.6389 -0.1707
C9 C 0.3703(2) 0.57432(14) -0.20046(12)
C10 C 0.5265(2) 0.56481(16) -0.15580(13)
H7 H 0.5808 0.5280 -0.1951
C11 C 0.6020(2) 0.60972(16) -0.05311(13)
H8 H 0.7083 0.6044 -0.0244
C12 C 0.2874(2) 0.52309(14) -0.31250(12)
C13 C 0.9915(2) 0.88469(15) 0.68351(12)
C14 C 1.0765(2) 0.90983(14) 0.79445(12)
C15 C 1.2359(2) 0.99946(16) 0.83872(13)
H9 H 1.2927 1.0413 0.7989
C16 C 1.3117(2) 1.02756(16) 0.94170(14)
H10 H 1.4197 1.0873 0.9701
C17 C 1.2279(2) 0.96722(15) 1.00319(13)
C18 C 1.0709(3) 0.87453(17) 0.95730(14)
H11 H 1.0150 0.8314 0.9966
C19 C 0.9967(3) 0.84554(16) 0.85426(14)
H12 H 0.8927 0.7826 0.8249
C20 C 1.3047(2) 1.00413(15) 1.11411(13)
C21 C 1.4072(3) 1.11753(17) 1.16332(15)
H13 H 1.4290 1.1708 1.1256
C22 C 1.4771(3) 1.15303(17) 1.26597(15)
H14 H 1.5469 1.2292 1.2967
C23 C 1.3494(3) 0.96658(16) 1.27777(14)
H15 H 1.3313 0.9148 1.3171
C24 C 1.2785(3) 0.92879(16) 1.17502(14)
H16 H 1.2121 0.8518 1.1457
O1 O 0.82667(16) 0.81709(10) 0.42481(8)
O2 O 0.18305(18) 0.56349(11) -0.35420(9)
O3 O 0.32945(18) 0.44465(11) -0.35476(9)
O4 O 1.0452(2) 0.96205(12) 0.64111(10)
O5 O 0.87199(19) 0.79005(12) 0.64263(9)
O6 O 1.50748(18) 1.11449(11) 1.42228(9)
O7 O 0.7521(2) 1.02033(15) 0.50830(14)
H17 H 0.712(4) 1.062(3) 0.484(2)
H18 H 0.681(4) 0.977(3) 0.518(2)
O8 O 0.52416(19) 0.67087(13) 0.50633(12)
H19 H 0.499(4) 0.721(3) 0.523(2)
H20 H 0.439(4) 0.618(3) 0.489(2)
N1 N 0.75278(19) 0.78446(11) 0.32451(10)
N2 N 1.4448(2) 1.07793(13) 1.32223(11)
N3 N 1.0575(2) 0.67804(13) 0.48383(12)
N4 N 1.1320(2) 0.70477(13) 0.42184(12)
N5 N 1.2067(3) 0.73160(18) 0.36305(16)
N6 N 0.79212(19) 0.53058(12) 0.57233(11)
N7 N 0.8214(2) 0.54129(13) 0.66234(12)
N8 N 0.8488(3) 0.5496(2) 0.74732(14)
Mn1A Mn 1.21520(3) 1.32602(2) 0.499714(18)
Mn1A_2 Mn 0.21520(3) 0.32602(2) -0.500286(18)
Mn1_2 Mn 1.78480(3) 1.67398(2) 1.500286(18)
Mn1_3 Mn -0.21520(3) 0.67398(2) -0.499714(18)
Mn3_2 Mn 1.0000 0.5000 0.5000
Mn3_3 Mn 2.0000 1.5000 1.5000
C1A C 1.4213(2) 1.24546(16) 0.71075(13)
H1A H 1.4898 1.2402 0.6660
C2A C 1.4987(2) 1.28399(16) 0.81306(13)
H2A H 1.6195 1.3042 0.8369
C3A C 1.3990(2) 1.29308(15) 0.88126(13)
C4A C 1.2191(2) 1.25992(17) 0.84046(14)
H3A H 1.1471 1.2640 0.8834
C5A C 1.1456(2) 1.22127(16) 0.73805(14)
H4A H 1.0249 1.1990 0.7122
C6A C 1.4785(2) 1.33724(14) 0.99190(12)
C7A C 1.6355(2) 1.32804(16) 1.03764(13)
H5A H 1.6918 1.2932 0.9982
C8A C 1.7091(2) 1.37012(16) 1.14110(13)
H6A H 1.8118 1.3611 1.1707
C9A C 1.6297(2) 1.42568(14) 1.20046(12)
C10A C 1.4735(2) 1.43519(16) 1.15580(13)
H7A H 1.4192 1.4720 1.1951
C11A C 1.3980(2) 1.39028(16) 1.05311(13)
H8A H 1.2917 1.3956 1.0244
C12A C 1.7126(2) 1.47691(14) 1.31250(12)
C13A C 1.0085(2) 1.11531(15) 0.31649(12)
C14A C 0.9235(2) 1.09017(14) 0.20555(12)
C15A C 0.7641(2) 1.00054(16) 0.16128(13)
H9A H 0.7073 0.9587 0.2011
C16A C 0.6883(2) 0.97244(16) 0.05830(14)
H10A H 0.5803 0.9127 0.0299
C17A C 0.7721(2) 1.03278(15) -0.00319(13)
C18A C 0.9291(3) 1.12547(17) 0.04270(14)
H11A H 0.9850 1.1686 0.0034
C19A C 1.0033(3) 1.15446(16) 0.14574(14)
H12A H 1.1073 1.2174 0.1751
C20A C 0.6953(2) 0.99587(15) -0.11411(13)
C21A C 0.5928(3) 0.88247(17) -0.16332(15)
H13A H 0.5710 0.8292 -0.1256
C22A C 0.5229(3) 0.84697(17) -0.26597(15)
H14A H 0.4531 0.7708 -0.2967
C23A C 0.6506(3) 1.03342(16) -0.27777(14)
H15A H 0.6687 1.0852 -0.3171
C24A C 0.7215(3) 1.07121(16) -0.17502(14)
H16A H 0.7879 1.1482 -0.1457
O1A O 1.17333(16) 1.18291(10) 0.57519(8)
O2A O 1.81695(18) 1.43651(11) 1.35420(9)
O2A_2 O -0.18305(18) 0.43651(11) -0.64580(9)
O3A O 1.67055(18) 1.55535(11) 1.35476(9)
O3A_2 O 0.67055(18) 0.55535(11) 0.35476(9)
O3_2 O 1.32945(18) 1.44465(11) 0.64524(9)
O4A O 0.9548(2) 1.03795(12) 0.35889(10)
O5A O 1.12801(19) 1.20995(12) 0.35737(9)
O6A O 0.49252(18) 0.88551(11) -0.42228(9)
O7A O 1.2479(2) 0.97967(15) 0.49170(14)
H17A H 1.288(4) 0.938(3) 0.516(2)
H18A H 1.319(4) 1.023(3) 0.482(2)
O8A O 1.47584(19) 1.32913(13) 0.49367(12)
H19A H 1.501(4) 1.279(3) 0.477(2)
H20A H 1.561(4) 1.382(3) 0.511(2)
N1A N 1.24722(19) 1.21554(11) 0.67549(10)
N2A N 0.5552(2) 0.92207(13) -0.32223(11)
N3_2 N 0.0575(2) 0.67804(13) -0.51617(12)
N3A N -0.0575(2) 0.32196(13) -0.48383(12)
N3A_2 N 0.9425(2) 1.32196(13) 0.51617(12)
N4_2 N 0.1320(2) 0.70477(13) -0.57816(12)
N5_2 N 0.2067(3) 0.73160(18) -0.63695(16)
N6A N 0.20788(19) 0.46942(12) -0.57233(11)
N6_2 N -0.20788(19) 0.53058(12) -0.42767(11)
N6A_2 N 1.20788(19) 1.46942(12) 0.42767(11)
N7A N 0.1786(2) 0.45871(13) -0.66234(12)
N8A N 0.1512(3) 0.4504(2) -0.74732(14)
O9 O 0.0741(16) 0.6341(13) 0.1325(7)
O10? O 0.0349(15) 0.574(3) 0.091(3)
loop_
_geom_bond_atom_site_label_1
_geom_bond_atom_site_label_2
_geom_bond_site_symmetry_1
_geom_bond_site_symmetry_2
Mn1 O1 1_555 1_555
Mn2 O1 1_555 1_555
Mn3 O2 1_555 1_555
C1 H1 1_555 1_555
C2 C1 1_555 1_555
H2 C2 1_555 1_555
C3 C2 1_555 1_555
C4 C3 1_555 1_555
H3 C4 1_555 1_555
C5 C4 1_555 1_555
H4 C5 1_555 1_555
C6 C3 1_555 1_555
C7 C6 1_555 1_555
H5 C7 1_555 1_555
C8 C7 1_555 1_555
H6 C8 1_555 1_555
C9 C8 1_555 1_555
C10 C9 1_555 1_555
H7 C10 1_555 1_555
C11 C6 1_555 1_555
H8 C11 1_555 1_555
C12 C9 1_555 1_555
C13 C14 1_555 1_555
C14 C15 1_555 1_555
C15 H9 1_555 1_555
C16 C15 1_555 1_555
H10 C16 1_555 1_555
C17 C16 1_555 1_555
C18 C17 1_555 1_555
H11 C18 1_555 1_555
C19 C14 1_555 1_555
H12 C19 1_555 1_555
C20 C17 1_555 1_555
C21 C20 1_555 1_555
H13 C21 1_555 1_555
C22 C21 1_555 1_555
H14 C22 1_555 1_555
C23 H15 1_555 1_555
C24 C20 1_555 1_555
H16 C24 1_555 1_555
O1 N1 1_555 1_555
O2 C12 1_555 1_555
O3 C12 1_555 1_555
O4 Mn2 1_555 1_555
O5 Mn1 1_555 1_555
O6 N2 1_555 1_555
O7 Mn2 1_555 1_555
H17 O7 1_555 1_555
H18 O7 1_555 1_555
O8 Mn1 1_555 1_555
H19 O8 1_555 1_555
H20 O8 1_555 1_555
N1 C1 1_555 1_555
N2 C22 1_555 1_555
N3 Mn1 1_555 1_555
N4 N3 1_555 1_555
N5 N4 1_555 1_555
N6 Mn1 1_555 1_555
N7 N6 1_555 1_555
N8 N7 1_555 1_555
Mn1A O1A 1_555 1_555
Mn1A_2 O3 1_555 1_555
Mn1_2 O3A 1_555 1_555
Mn1_3 N3_2 1_555 1_555
Mn3_2 N3 1_555 1_555
Mn3_3 O2A 1_555 1_555
C1A H1A 1_555 1_555
C2A C1A 1_555 1_555
H2A C2A 1_555 1_555
C3A C2A 1_555 1_555
C4A C3A 1_555 1_555
H3A C4A 1_555 1_555
C5A C4A 1_555 1_555
H4A C5A 1_555 1_555
C6A C3A 1_555 1_555
C7A C6A 1_555 1_555
H5A C7A 1_555 1_555
C8A C7A 1_555 1_555
H6A C8A 1_555 1_555
C9A C8A 1_555 1_555
C10A C9A 1_555 1_555
H7A C10A 1_555 1_555
C11A C6A 1_555 1_555
H8A C11A 1_555 1_555
C12A C9A 1_555 1_555
C13A C14A 1_555 1_555
C14A C15A 1_555 1_555
C15A H9A 1_555 1_555
C16A C15A 1_555 1_555
H10A C16A 1_555 1_555
C17A C16A 1_555 1_555
C18A C17A 1_555 1_555
H11A C18A 1_555 1_555
C19A C14A 1_555 1_555
H12A C19A 1_555 1_555
C20A C17A 1_555 1_555
C21A C20A 1_555 1_555
H13A C21A 1_555 1_555
C22A C21A 1_555 1_555
H14A C22A 1_555 1_555
C23A H15A 1_555 1_555
C24A C20A 1_555 1_555
H16A C24A 1_555 1_555
O1A Mn2 1_555 1_555
O2A C12A 1_555 1_555
O2A_2 Mn3 1_555 1_555
O3A C12A 1_555 1_555
O3A_2 Mn1 1_555 1_555
O3_2 Mn1A 1_555 1_555
O4A Mn2 1_555 1_555
O5A Mn1A 1_555 1_555
O6A N2A 1_555 1_555
O7A Mn2 1_555 1_555
H17A O7A 1_555 1_555
H18A O7A 1_555 1_555
O8A Mn1A 1_555 1_555
H19A O8A 1_555 1_555
H20A O8A 1_555 1_555
N1A C1A 1_555 1_555
N2A C22A 1_555 1_555
N3_2 Mn3 1_555 1_555
N3A Mn3 1_555 1_555
N3A_2 Mn1A 1_555 1_555
N4_2 N3_2 1_555 1_555
N5_2 N4_2 1_555 1_555
N6A Mn3 1_555 1_555
N6_2 Mn3 1_555 1_555
N6A_2 Mn1A 1_555 1_555
N7A N6A 1_555 1_555
N8A N7A 1_555 1_555
C5 N1 1_555 1_555
C10 C11 1_555 1_555
C13 O4 1_555 1_555
C13 O5 1_555 1_555
C18 C19 1_555 1_555
C23 C24 1_555 1_555
C23 N2 1_555 1_555
N6 Mn3_2 1_555 1_555
Mn1A_2 N3A 1_555 1_555
Mn1A_2 N6A 1_555 1_555
Mn1_3 N6_2 1_555 1_555
C5A N1A 1_555 1_555
C10A C11A 1_555 1_555
C13A O4A 1_555 1_555
C13A O5A 1_555 1_555
C18A C19A 1_555 1_555
C23A C24A 1_555 1_555
C23A N2A 1_555 1_555
O1A N1A 1_555 1_555

#END
