
#######################################################################
#
#                 Cambridge Crystallographic Data Centre
#                                CCDC 
#
#######################################################################
#
# If this CIF has been generated from an entry in the Cambridge 
# Structural Database, then it will include bibliographic, chemical, 
# crystal, experimental, refinement or atomic coordinate data resulting 
# from the CCDC's data processing and validation procedures.
#
#######################################################################

data_WAVZIE
_symmetry_cell_setting           monoclinic
_symmetry_space_group_name_H-M   'P 21/n'
_symmetry_Int_Tables_number      14
_space_group_name_Hall           '-P 2yn'
loop_
_symmetry_equiv_pos_site_id
_symmetry_equiv_pos_as_xyz
1 x,y,z
2 1/2-x,1/2+y,1/2-z
3 -x,-y,-z
4 1/2+x,1/2-y,1/2+z
_cell_length_a                   14.8070(12)
_cell_length_b                   12.1079(10)
_cell_length_c                   17.1135(14)
_cell_angle_alpha                90
_cell_angle_beta                 109.9670(10)
_cell_angle_gamma                90
_cell_volume                     2883.71
loop_
_atom_site_label
_atom_site_type_symbol
_atom_site_fract_x
_atom_site_fract_y
_atom_site_fract_z
Cu1 Cu 0.5000 1.0000 0.0000
Cu2 Cu 0.92524(3) 0.72057(3) 0.55616(2)
Cu3 Cu 0.46917(2) 0.98151(3) 0.17945(2)
N1 N 1.01963(19) 0.8424(2) 0.56866(16)
N2 N 1.1310(2) 0.9437(2) 0.5457(2)
N3 N 1.48299(19) 0.9744(2) 0.70130(15)
N4 N 1.3903(2) 0.8926(2) 0.58724(16)
O1 O 0.60064(14) 0.92804(18) 0.19967(12)
O2 O 0.61628(14) 0.92121(17) 0.07370(11)
O3 O 0.97076(15) 0.64817(17) 0.40080(12)
O4 O 0.86127(15) 0.74132(17) 0.43750(12)
O5 O 0.97083(16) 0.8808(2) 0.15004(15)
O6 O 0.65450(16) 0.9609(2) 0.82350(13)
O7 O 0.74283(16) 0.9721(2) 0.95754(13)
O8 O 0.80533(18) 0.8191(2) 0.62204(14)
O9 O 0.94019(17) 0.72467(18) 0.67372(13)
O10 O 1.06054(18) 0.8210(2) 0.97948(16)
O11 O 0.42206(12) 0.94018(15) 0.06130(10)
H1 H 0.3556 0.9657 0.0356
C1 C 0.74742(19) 0.8653(2) 0.19114(16)
C2 C 0.8153(2) 0.8886(3) 0.15396(17)
H2 H 0.7975 0.9271 0.1040
C3 C 0.9101(2) 0.8541(3) 0.19168(18)
C4 C 0.9362(2) 0.7946(2) 0.26548(18)
H3 H 0.9991 0.7699 0.2899
C5 C 0.8679(2) 0.7718(2) 0.30284(16)
C6 C 0.77370(19) 0.8073(2) 0.26661(16)
H4 H 0.7285 0.7929 0.2920
C7 C 0.64596(19) 0.9080(2) 0.15092(16)
C8 C 0.90247(19) 0.7132(2) 0.38589(17)
C9 C 1.0702(2) 0.8550(4) 0.1873(2)
H5 H 1.0968 0.8961 0.2380
H6 H 1.1033 0.8743 0.1497
H7 H 1.0775 0.7774 0.1992
C10 C 0.8136(2) 0.8944(3) 0.86570(18)
C11 C 0.8029(2) 0.8609(3) 0.78496(18)
H8 H 0.7446 0.8707 0.7421
C12 C 0.8800(2) 0.8130(3) 0.76928(18)
C13 C 0.9669(2) 0.7969(3) 0.83294(19)
H9 H 1.0176 0.7627 0.8222
C14 C 0.9776(2) 0.8321(3) 0.9127(2)
C15 C 0.9015(2) 0.8814(3) 0.92919(18)
H10 H 0.9092 0.9056 0.9827
C16 C 0.7315(2) 0.9465(3) 0.88503(18)
C17 C 0.8719(2) 0.7835(3) 0.68178(19)
C18 C 1.1440(3) 0.7852(4) 0.9635(3)
H11 H 1.1565 0.8343 0.9243
H12 H 1.1979 0.7854 1.0144
H13 H 1.1339 0.7118 0.9410
C19 C 1.0718(3) 0.8951(3) 0.6407(2)
H14 H 1.0618 0.8887 0.6913
C20 C 1.1397(3) 0.9572(3) 0.6268(3)
H15 H 1.1845 1.0015 0.6655
C21 C 1.0580(3) 0.8742(3) 0.5130(2)
H16 H 1.0367 0.8509 0.4579
C22 C 1.1891(3) 0.9965(3) 0.5019(3)
H17 H 1.1478 1.0425 0.4576
H18 H 1.2365 1.0441 0.5403
C23 C 1.5334(3) 0.9633(4) 0.6476(2)
H19 H 1.5964 0.9861 0.6579
C24 C 1.4762(3) 0.9140(4) 0.5772(2)
H20 H 1.4925 0.8976 0.5306
C25 C 1.3979(2) 0.9306(3) 0.66266(19)
H21 H 1.3490 0.9266 0.6851
C26 C 1.3065(3) 0.8360(3) 0.5284(2)
H22 H 1.3287 0.7791 0.4994
H23 H 1.2707 0.8001 0.5594
C27 C 1.2401(3) 0.9138(4) 0.4652(2)
H24 H 1.1922 0.8704 0.4236
H25 H 1.2772 0.9536 0.4374
Cu1A Cu 1.0000 0.5000 0.5000
Cu1A_2 Cu 0.0000 1.5000 -0.5000
Cu2B Cu 0.07476(3) 1.27943(3) -0.55616(2)
Cu2C Cu 0.42524(3) 0.77943(3) 0.05616(2)
Cu2A Cu 0.57476(3) 1.22057(3) -0.05616(2)
Cu2B_2 Cu 1.07476(3) 1.27943(3) 0.44384(2)
Cu2B_3 Cu 0.07476(3) 1.27943(3) 0.44384(2)
Cu3B Cu 0.53083(2) 1.01849(3) -0.17945(2)
Cu3B_2 Cu 1.53083(2) 1.01849(3) 0.82055(2)
Cu3B_3 Cu 0.53083(2) 1.01849(3) 0.82055(2)
N1B N 0.98037(19) 1.1576(2) 0.43134(16)
N1B_2 N -0.01963(19) 1.1576(2) -0.56866(16)
N2B N 0.8690(2) 1.0563(2) 0.4543(2)
N3B N 0.51701(19) 1.0256(2) 0.29870(15)
N3_2 N 0.48299(19) 0.9744(2) -0.29870(15)
N4B N 0.6097(2) 1.1074(2) 0.41276(16)
O1B O 0.39936(14) 1.07196(18) -0.19967(12)
O2B O 0.38372(14) 1.07879(17) -0.07370(11)
O3B O 0.02924(15) 1.35183(17) -0.40080(12)
O3A O 0.52924(15) 1.14817(17) 0.09920(12)
O3C O 0.47076(15) 0.85183(17) -0.09920(12)
O4B O 0.13873(15) 1.25868(17) -0.43750(12)
O5B O 0.02917(16) 1.1192(2) -0.15004(15)
O6B O 0.34550(16) 1.0391(2) 0.17650(13)
O6_2 O 0.65450(16) 0.9609(2) -0.17650(13)
O7B O 0.25717(16) 1.0279(2) 0.04246(13)
O8B O 0.19467(18) 1.1809(2) 0.37796(14)
O9B O 0.05981(17) 1.27533(18) 0.32628(13)
O9B_2 O 0.05981(17) 1.27533(18) -0.67372(13)
O10B O -0.06054(18) 1.1790(2) 0.02052(16)
O11B O 0.57794(12) 1.05982(15) -0.06130(10)
O11C O 0.92206(12) 0.55982(15) 0.56130(10)
O11A O 0.07794(12) 1.44018(15) -0.56130(10)
H1B H 0.6444 1.0343 -0.0356
H1C H 0.8556 0.5343 0.5356
H1A H 0.1444 1.4657 -0.5356
C1B C 0.25258(19) 1.1347(2) -0.19114(16)
C2B C 0.1847(2) 1.1114(3) -0.15396(17)
H2B H 0.2025 1.0729 -0.1040
C3B C 0.0899(2) 1.1459(3) -0.19168(18)
C4B C 0.0638(2) 1.2054(2) -0.26548(18)
H3B H 0.0009 1.2301 -0.2899
C5B C 0.1321(2) 1.2282(2) -0.30284(16)
C6B C 0.22630(19) 1.1927(2) -0.26661(16)
H4B H 0.2715 1.2071 -0.2920
C7B C 0.35404(19) 1.0920(2) -0.15092(16)
C8B C 0.09753(19) 1.2868(2) -0.38589(17)
C9B C -0.0702(2) 1.1450(4) -0.1873(2)
H5B H -0.0968 1.1039 -0.2380
H6B H -0.1033 1.1257 -0.1497
H7B H -0.0775 1.2226 -0.1992
C10B C 0.1864(2) 1.1056(3) 0.13430(18)
C11B C 0.1971(2) 1.1391(3) 0.21504(18)
H8B H 0.2554 1.1293 0.2579
C12B C 0.1200(2) 1.1870(3) 0.23072(18)
C13B C 0.0331(2) 1.2031(3) 0.16706(19)
H9B H -0.0176 1.2373 0.1778
C14B C 0.0224(2) 1.1679(3) 0.0873(2)
C15B C 0.0985(2) 1.1186(3) 0.07081(18)
H10B H 0.0908 1.0944 0.0173
C16B C 0.2685(2) 1.0535(3) 0.11497(18)
C17B C 0.1281(2) 1.2165(3) 0.31822(19)
C18B C -0.1440(3) 1.2148(4) 0.0365(3)
H11B H -0.1565 1.1657 0.0757
H12B H -0.1979 1.2146 -0.0144
H13B H -0.1339 1.2882 0.0590
C19B C 0.9282(3) 1.1049(3) 0.3593(2)
H14B H 0.9382 1.1113 0.3087
C20B C 0.8603(3) 1.0428(3) 0.3732(3)
H15B H 0.8155 0.9985 0.3345
C21B C 0.9420(3) 1.1258(3) 0.4870(2)
H16B H 0.9633 1.1491 0.5421
C22B C 0.8109(3) 1.0035(3) 0.4981(3)
H17B H 0.8522 0.9575 0.5424
H18B H 0.7635 0.9559 0.4597
C23B C 0.4666(3) 1.0367(4) 0.3524(2)
H19B H 0.4036 1.0139 0.3421
C24B C 0.5238(3) 1.0860(4) 0.4228(2)
H20B H 0.5075 1.1024 0.4694
C25B C 0.6021(2) 1.0694(3) 0.33734(19)
H21B H 0.6510 1.0734 0.3149
C26B C 0.6935(3) 1.1640(3) 0.4716(2)
H22B H 0.6713 1.2209 0.5006
H23B H 0.7293 1.1999 0.4406
C27B C 0.7599(3) 1.0862(4) 0.5348(2)
H24B H 0.8078 1.1296 0.5764
H25B H 0.7228 1.0464 0.5626
loop_
_geom_bond_atom_site_label_1
_geom_bond_atom_site_label_2
_geom_bond_site_symmetry_1
_geom_bond_site_symmetry_2
Cu1 O2 1_555 1_555
Cu2 N1 1_555 1_555
Cu3 O1 1_555 1_555
N1 C19 1_555 1_555
N2 C20 1_555 1_555
N3 C23 1_555 1_555
N4 C24 1_555 1_555
O1 C7 1_555 1_555
O2 C7 1_555 1_555
O3 C8 1_555 1_555
O4 Cu2 1_555 1_555
O5 C3 1_555 1_555
O6 C16 1_555 1_555
O7 C16 1_555 1_555
O8 C17 1_555 1_555
O9 Cu2 1_555 1_555
O10 C14 1_555 1_555
O11 Cu1 1_555 1_555
H1 O11 1_555 1_555
C1 C2 1_555 1_555
C2 H2 1_555 1_555
C3 C2 1_555 1_555
C4 C3 1_555 1_555
H3 C4 1_555 1_555
C5 C4 1_555 1_555
C6 C1 1_555 1_555
H4 C6 1_555 1_555
C7 C1 1_555 1_555
C8 O4 1_555 1_555
C9 O5 1_555 1_555
H5 C9 1_555 1_555
H6 C9 1_555 1_555
H7 C9 1_555 1_555
C10 C11 1_555 1_555
C11 H8 1_555 1_555
C12 C11 1_555 1_555
C13 C12 1_555 1_555
H9 C13 1_555 1_555
C14 C13 1_555 1_555
C15 C10 1_555 1_555
H10 C15 1_555 1_555
C16 C10 1_555 1_555
C17 O9 1_555 1_555
C18 O10 1_555 1_555
H11 C18 1_555 1_555
H12 C18 1_555 1_555
H13 C18 1_555 1_555
C19 H14 1_555 1_555
C20 C19 1_555 1_555
H15 C20 1_555 1_555
C21 N1 1_555 1_555
H16 C21 1_555 1_555
C22 N2 1_555 1_555
H17 C22 1_555 1_555
H18 C22 1_555 1_555
C23 H19 1_555 1_555
C24 C23 1_555 1_555
H20 C24 1_555 1_555
C25 N3 1_555 1_555
H21 C25 1_555 1_555
C26 N4 1_555 1_555
H22 C26 1_555 1_555
H23 C26 1_555 1_555
C27 C22 1_555 1_555
H24 C27 1_555 1_555
H25 C27 1_555 1_555
Cu1A O3 1_555 1_555
Cu1A_2 O3B 1_555 1_555
Cu2B N1B_2 1_555 1_555
Cu2C O11 1_555 1_555
Cu2A O11B 1_555 1_555
Cu2B_2 N1B 1_555 1_555
Cu2B_3 O9B 1_555 1_555
Cu3B N3_2 1_555 1_555
Cu3B_2 N3 1_555 1_555
Cu3B_3 O6 1_555 1_555
N1B C19B 1_555 1_555
N2B C20B 1_555 1_555
N3B Cu3 1_555 1_555
N4B C24B 1_555 1_555
O1B Cu3B 1_555 1_555
O2B Cu1 1_555 1_555
O3B C8B 1_555 1_555
O3A Cu1 1_555 1_555
O3C Cu1 1_555 1_555
O4B Cu2B 1_555 1_555
O5B C3B 1_555 1_555
O6B Cu3 1_555 1_555
O6_2 Cu3B 1_555 1_555
O7B C16B 1_555 1_555
O8B C17B 1_555 1_555
O9B C17B 1_555 1_555
O9B_2 Cu2B 1_555 1_555
O10B C14B 1_555 1_555
O11B Cu1 1_555 1_555
O11C Cu2 1_555 1_555
O11A Cu1A_2 1_555 1_555
H1B O11B 1_555 1_555
H1C O11C 1_555 1_555
H1A O11A 1_555 1_555
C1B C2B 1_555 1_555
C2B H2B 1_555 1_555
C3B C2B 1_555 1_555
C4B C3B 1_555 1_555
H3B C4B 1_555 1_555
C5B C4B 1_555 1_555
C6B C1B 1_555 1_555
H4B C6B 1_555 1_555
C7B O1B 1_555 1_555
C8B O4B 1_555 1_555
C9B O5B 1_555 1_555
H5B C9B 1_555 1_555
H6B C9B 1_555 1_555
H7B C9B 1_555 1_555
C10B C11B 1_555 1_555
C11B H8B 1_555 1_555
C12B C11B 1_555 1_555
C13B C12B 1_555 1_555
H9B C13B 1_555 1_555
C14B C13B 1_555 1_555
C15B C10B 1_555 1_555
H10B C15B 1_555 1_555
C16B O6B 1_555 1_555
C17B C12B 1_555 1_555
C18B O10B 1_555 1_555
H11B C18B 1_555 1_555
H12B C18B 1_555 1_555
H13B C18B 1_555 1_555
C19B H14B 1_555 1_555
C20B C19B 1_555 1_555
H15B C20B 1_555 1_555
C21B N1B 1_555 1_555
H16B C21B 1_555 1_555
C22B N2B 1_555 1_555
H17B C22B 1_555 1_555
H18B C22B 1_555 1_555
C23B N3B 1_555 1_555
H19B C23B 1_555 1_555
C24B C23B 1_555 1_555
H20B C24B 1_555 1_555
C25B N3B 1_555 1_555
H21B C25B 1_555 1_555
C26B N4B 1_555 1_555
H22B C26B 1_555 1_555
H23B C26B 1_555 1_555
C27B C22B 1_555 1_555
H24B C27B 1_555 1_555
H25B C27B 1_555 1_555
Cu3 O11 1_555 1_555
N2 C21 1_555 1_555
N4 C25 1_555 1_555
C5 C6 1_555 1_555
C5 C8 1_555 1_555
C12 C17 1_555 1_555
C14 C15 1_555 1_555
C26 C27 1_555 1_555
Cu1A O11C 1_555 1_555
Cu2B O11A 1_555 1_555
Cu3B O11B 1_555 1_555
N2B C21B 1_555 1_555
N4B C25B 1_555 1_555
O2B C7B 1_555 1_555
C1B C7B 1_555 1_555
C5B C6B 1_555 1_555
C5B C8B 1_555 1_555
C10B C16B 1_555 1_555
C14B C15B 1_555 1_555
C26B C27B 1_555 1_555

#END
