
#######################################################################
#
#                 Cambridge Crystallographic Data Centre
#                                CCDC 
#
#######################################################################
#
# If this CIF has been generated from an entry in the Cambridge 
# Structural Database, then it will include bibliographic, chemical, 
# crystal, experimental, refinement or atomic coordinate data resulting 
# from the CCDC's data processing and validation procedures.
#
#######################################################################

data_WAWKUB
_symmetry_cell_setting           triclinic
_symmetry_space_group_name_H-M   'P -1'
_symmetry_Int_Tables_number      2
_space_group_name_Hall           '-P 1'
loop_
_symmetry_equiv_pos_site_id
_symmetry_equiv_pos_as_xyz
1 x,y,z
2 -x,-y,-z
_cell_length_a                   8.2459(8)
_cell_length_b                   12.6631(15)
_cell_length_c                   14.3286(16)
_cell_angle_alpha                111.782(2)
_cell_angle_beta                 98.825(2)
_cell_angle_gamma                100.605(2)
_cell_volume                     1324.72
loop_
_atom_site_label
_atom_site_type_symbol
_atom_site_fract_x
_atom_site_fract_y
_atom_site_fract_z
Sm1 Sm 0.781720(19) 0.565469(13) 0.529619(11)
O1 O 0.8531(3) 0.4493(2) 0.63592(17)
O2 O 0.6943(3) 0.5701(2) 0.69022(17)
O3 O 0.5300(3) 0.39386(19) 0.47128(17)
O4 O 0.3006(3) 0.2467(2) 0.41408(19)
O5 O 0.8865(3) 0.41318(19) 0.41783(16)
O6 O 0.9950(3) 0.2866(2) 0.31192(18)
O7 O 0.6364(3) 0.5384(2) 0.35607(17)
H1 H 0.5329(18) 0.499(3) 0.335(2)
H2 H 0.679(3) 0.533(3) 0.3049(16)
O8 O 0.9550(3) 0.6918(2) 0.46166(18)
H3 H 1.016(4) 0.658(3) 0.425(2)
H4 H 0.908(4) 0.732(3) 0.437(2)
N1 N 0.7293(4) 0.5283(4) 1.1685(3)
N2 N 0.7913(4) -0.1654(3) 0.3829(2)
N3 N 0.2294(7) 0.0697(3) -0.0816(3)
C1 C 0.7771(4) 0.4988(3) 0.7022(2)
C2 C 0.7835(4) 0.4750(3) 0.7964(3)
H9 H 0.8237 0.4105 0.7998
C3 C 0.7338(4) 0.5428(3) 0.8756(3)
H10 H 0.6910 0.6041 0.8669
C4 C 0.7365(5) 0.5351(3) 0.9754(3)
C5 C 0.6781(5) 0.6164(4) 1.0492(3)
H11 H 0.6396 0.6764 1.0351
C6 C 0.6766(6) 0.6094(4) 1.1426(4)
H12 H 0.6357 0.6656 1.1915
C7 C 0.7863(6) 0.4511(4) 1.0978(4)
H13 H 0.8261 0.3932 1.1149
C8 C 0.7915(5) 0.4496(4) 1.0014(3)
H14 H 0.8317 0.3915 0.9538
C9 C 0.4602(4) 0.2839(3) 0.4367(2)
C10 C 0.5702(4) 0.2026(3) 0.4264(3)
H15 H 0.6901 0.2341 0.4470
C11 C 0.5067(4) 0.0868(3) 0.3892(3)
H16 H 0.3868 0.0571 0.3644
C12 C 0.6071(4) 0.0005(3) 0.3833(3)
C13 C 0.5276(5) -0.1110(3) 0.3732(3)
H17 H 0.4081 -0.1336 0.3648
C14 C 0.6238(5) -0.1889(3) 0.3753(3)
H18 H 0.5676 -0.2636 0.3712
C15 C 0.8654(5) -0.0597(3) 0.3876(3)
H19 H 0.9835 -0.0421 0.3901
C16 C 0.7809(5) 0.0259(3) 0.3892(3)
H20 H 0.8405 0.1003 0.3942
C17 C 0.8716(4) 0.3278(3) 0.3312(2)
C18 C 0.7059(4) 0.2804(3) 0.2541(3)
H21 H 0.6088 0.3015 0.2757
C19 C 0.6880(5) 0.2100(3) 0.1566(3)
H22 H 0.7853 0.1869 0.1369
C20 C 0.5275(6) 0.1645(3) 0.0754(3)
C21 C 0.5313(7) 0.1257(4) -0.0281(3)
H23 H 0.6368 0.1305 -0.0473
C22 C 0.3791(6) 0.0798(4) -0.1032(4)
H24 H 0.3835 0.0544 -0.1738
C23 C 0.2235(6) 0.1081(4) 0.0171(3)
H25 H 0.1154 0.1025 0.0331
C24 C 0.3689(6) 0.1562(4) 0.0986(3)
H26 H 0.3600 0.1827 0.1684
Sm1A Sm 0.218280(19) 0.434531(13) 0.470381(11)
Sm1A_2 Sm 1.218280(19) 0.434531(13) 0.470381(11)
O3A O 0.4700(3) 0.60614(19) 0.52872(17)
O4A O 0.6994(3) 0.7533(2) 0.58592(19)
O5A O 1.1135(3) 0.58682(19) 0.58217(16)
O6A O 1.0050(3) 0.7134(2) 0.68808(18)
O9 O 1.1028(5) 0.0278(4) 0.2276(3)
H5 H 1.142(7) 0.086(3) 0.286(2)
H6 H 1.017(5) 0.039(5) 0.195(4)
O10 O 1.1122(8) -0.2044(5) 0.2021(9)
H7 H 1.168(13) -0.153(8) 0.185(10)
H8 H 1.033(10) -0.179(9) 0.227(8)
loop_
_geom_bond_atom_site_label_1
_geom_bond_atom_site_label_2
_geom_bond_site_symmetry_1
_geom_bond_site_symmetry_2
Sm1 O1 1_555 1_555
O1 C1 1_555 1_555
O2 Sm1 1_555 1_555
O3 Sm1 1_555 1_555
O4 C9 1_555 1_555
O5 Sm1 1_555 1_555
O6 C17 1_555 1_555
O7 Sm1 1_555 1_555
H1 O7 1_555 1_555
H2 O7 1_555 1_555
O8 Sm1 1_555 1_555
H3 O8 1_555 1_555
H4 O8 1_555 1_555
O9 H5 1_555 1_555
H6 O9 1_555 1_555
O10 H7 1_555 1_555
H8 O10 1_555 1_555
N1 C6 1_555 1_555
N2 C14 1_555 1_555
N3 C22 1_555 1_555
C1 O2 1_555 1_555
C2 C1 1_555 1_555
H9 C2 1_555 1_555
C3 C2 1_555 1_555
H10 C3 1_555 1_555
C4 C3 1_555 1_555
C5 C4 1_555 1_555
H11 C5 1_555 1_555
C6 C5 1_555 1_555
H12 C6 1_555 1_555
C7 N1 1_555 1_555
H13 C7 1_555 1_555
C8 C4 1_555 1_555
H14 C8 1_555 1_555
C9 O3 1_555 1_555
C10 C9 1_555 1_555
H15 C10 1_555 1_555
C11 C10 1_555 1_555
H16 C11 1_555 1_555
C12 C11 1_555 1_555
C13 C12 1_555 1_555
H17 C13 1_555 1_555
C14 C13 1_555 1_555
H18 C14 1_555 1_555
C15 N2 1_555 1_555
H19 C15 1_555 1_555
C16 C12 1_555 1_555
H20 C16 1_555 1_555
C17 O5 1_555 1_555
C18 C17 1_555 1_555
H21 C18 1_555 1_555
C19 C18 1_555 1_555
H22 C19 1_555 1_555
C20 C19 1_555 1_555
C21 C20 1_555 1_555
H23 C21 1_555 1_555
C22 C21 1_555 1_555
H24 C22 1_555 1_555
C23 N3 1_555 1_555
H25 C23 1_555 1_555
C24 C20 1_555 1_555
H26 C24 1_555 1_555
Sm1A O3 1_555 1_555
Sm1A_2 O5 1_555 1_555
O3A Sm1 1_555 1_555
O4A Sm1 1_555 1_555
O5A Sm1 1_555 1_555
O6A Sm1 1_555 1_555
O4 Sm1A 1_555 1_555
O6 Sm1A_2 1_555 1_555
C7 C8 1_555 1_555
C15 C16 1_555 1_555
C23 C24 1_555 1_555
Sm1A O3A 1_555 1_555
Sm1A_2 O5A 1_555 1_555

#END
