
#######################################################################
#
#                 Cambridge Crystallographic Data Centre
#                                CCDC 
#
#######################################################################
#
# If this CIF has been generated from an entry in the Cambridge 
# Structural Database, then it will include bibliographic, chemical, 
# crystal, experimental, refinement or atomic coordinate data resulting 
# from the CCDC's data processing and validation procedures.
#
#######################################################################

data_WAWRES01
_symmetry_cell_setting           monoclinic
_symmetry_space_group_name_H-M   'C 2'
_symmetry_Int_Tables_number      5
_space_group_name_Hall           'C 2y'
loop_
_symmetry_equiv_pos_site_id
_symmetry_equiv_pos_as_xyz
1 x,y,z
2 -x,y,-z
3 1/2+x,1/2+y,z
4 1/2-x,1/2+y,-z
_cell_length_a                   19.257(1)
_cell_length_b                   9.343(1)
_cell_length_c                   5.430(1)
_cell_angle_alpha                90
_cell_angle_beta                 93.31(1)
_cell_angle_gamma                90
_cell_volume                     975.326
loop_
_atom_site_label
_atom_site_type_symbol
_atom_site_fract_x
_atom_site_fract_y
_atom_site_fract_z
Cu1 Cu 0.189811(17) 0.76854(5) 0.93237(6)
O1 O 0.24021(13) 0.9561(3) 0.9792(5)
O2 O 0.25008(14) 1.1731(3) 0.8139(5)
O3 O 0.11218(13) 0.8157(3) 0.2362(5)
N1 N 0.13520(17) 0.5981(4) 0.7933(6)
H1 H 0.1616 0.5187 0.8060
H2 H 0.0972 0.5841 0.8795
N2 N 0.15636(15) 0.8583(3) 0.6344(6)
C1 C 0.1144(2) 0.6254(4) 0.5345(7)
H3 H 0.0652 0.6049 0.5066
H4 H 0.1397 0.5611 0.4317
C2 C 0.12796(14) 0.7778(6) 0.4584(5)
C3 C 0.17737(19) 1.0052(4) 0.5908(7)
H5 H 0.2038 1.0077 0.4418
C4 C 0.22595(18) 1.0467(4) 0.8123(7)
C5 C 0.1141(2) 1.1068(4) 0.5539(7)
H6 H 0.0820 1.0617 0.4305
C6 C 0.0748(3) 1.1220(7) 0.7872(11)
H7 H 0.0635 1.0288 0.8475
H8 H 0.0328 1.1751 0.7511
H9 H 0.1033 1.1717 0.9103
C7 C 0.1334(3) 1.2514(7) 0.4496(10)
H10 H 0.0918 1.3035 0.4019
H11 H 0.1603 1.2376 0.3081
H12 H 0.1603 1.3046 0.5728
Cu1C Cu 0.310189(17) 0.26854(5) 1.06763(6)
Cu1C_2 Cu 0.310189(17) 1.26854(5) 1.06763(6)
Cu1_2 Cu 0.189811(17) 0.76854(5) -0.06763(6)
Cu1C_3 Cu 0.310189(17) 0.26854(5) 2.06763(6)
O1C O 0.25979(13) 0.4561(3) 1.0208(5)
O2C O 0.24992(14) 0.6731(3) 1.1861(5)
O2_2 O 0.25008(14) 0.1731(3) 0.8139(5)
O3C O 0.38782(13) 0.3157(3) 1.7638(5)
O3_2 O 0.11218(13) 0.8157(3) 1.2362(5)
O3C_2 O 0.38782(13) 0.3157(3) 0.7638(5)
N1C N 0.36480(17) 0.0981(4) 1.2067(6)
H1C H 0.3384 0.0187 1.1940
H2C H 0.4028 0.0841 1.1205
N2C N 0.34364(15) 0.3583(3) 1.3656(6)
C1C C 0.3856(2) 0.1254(4) 1.4655(7)
H3C H 0.4348 0.1049 1.4934
H4C H 0.3603 0.0611 1.5683
C2C C 0.37204(14) 0.2778(6) 1.5416(5)
C3C C 0.32263(19) 0.5052(4) 1.4092(7)
H5C H 0.2962 0.5077 1.5582
C4C C 0.27405(18) 0.5467(4) 1.1877(7)
C5C C 0.3859(2) 0.6068(4) 1.4461(7)
H6C H 0.4180 0.5617 1.5695
C6C C 0.4252(3) 0.6220(7) 1.2128(11)
H7C H 0.4365 0.5288 1.1525
H8C H 0.4672 0.6751 1.2489
H9C H 0.3967 0.6717 1.0897
C7C C 0.3666(3) 0.7514(7) 1.5504(10)
H10C H 0.4082 0.8035 1.5981
H11C H 0.3397 0.7376 1.6919
H12C H 0.3397 0.8046 1.4272
O4 O 0.0000 0.6792(5) 1.0000
H13 H 0.0310(14) 0.731(2) 1.075(7)
H13A H -0.0310(14) 0.731(2) 0.925(7)
loop_
_geom_bond_atom_site_label_1
_geom_bond_atom_site_label_2
_geom_bond_site_symmetry_1
_geom_bond_site_symmetry_2
Cu1 O1 1_555 1_555
O1 C4 1_555 1_555
O2 C4 1_555 1_555
O3 C2 1_555 1_555
N1 Cu1 1_555 1_555
H1 N1 1_555 1_555
H2 N1 1_555 1_555
N2 Cu1 1_555 1_555
C1 N1 1_555 1_555
H3 C1 1_555 1_555
H4 C1 1_555 1_555
C2 N2 1_555 1_555
C3 N2 1_555 1_555
H5 C3 1_555 1_555
C4 C3 1_555 1_555
C5 C3 1_555 1_555
H6 C5 1_555 1_555
C6 C5 1_555 1_555
H7 C6 1_555 1_555
H8 C6 1_555 1_555
H9 C6 1_555 1_555
C7 C5 1_555 1_555
H10 C7 1_555 1_555
H11 C7 1_555 1_555
H12 C7 1_555 1_555
O4 H13 1_555 1_555
Cu1C O1C 1_555 1_555
Cu1C_2 O2 1_555 1_555
Cu1_2 O3 1_555 1_555
Cu1C_3 O3C 1_555 1_555
O1C C4C 1_555 1_555
O2C Cu1 1_555 1_555
O2_2 Cu1C 1_555 1_555
O3C C2C 1_555 1_555
O3_2 Cu1 1_555 1_555
O3C_2 Cu1C 1_555 1_555
N1C Cu1C 1_555 1_555
H1C N1C 1_555 1_555
H2C N1C 1_555 1_555
N2C Cu1C 1_555 1_555
C1C N1C 1_555 1_555
H3C C1C 1_555 1_555
H4C C1C 1_555 1_555
C2C N2C 1_555 1_555
C3C N2C 1_555 1_555
H5C C3C 1_555 1_555
C4C O2C 1_555 1_555
C5C C3C 1_555 1_555
H6C C5C 1_555 1_555
C6C C5C 1_555 1_555
H7C C6C 1_555 1_555
H8C C6C 1_555 1_555
H9C C6C 1_555 1_555
C7C C5C 1_555 1_555
H10C C7C 1_555 1_555
H11C C7C 1_555 1_555
H12C C7C 1_555 1_555
H13A O4 1_555 1_555
C1 C2 1_555 1_555
C1C C2C 1_555 1_555
C3C C4C 1_555 1_555

#END
