
#######################################################################
#
#                 Cambridge Crystallographic Data Centre
#                                CCDC 
#
#######################################################################
#
# If this CIF has been generated from an entry in the Cambridge 
# Structural Database, then it will include bibliographic, chemical, 
# crystal, experimental, refinement or atomic coordinate data resulting 
# from the CCDC's data processing and validation procedures.
#
#######################################################################

data_WAYWAW
_symmetry_cell_setting           monoclinic
_symmetry_space_group_name_H-M   'P 21/c'
_symmetry_Int_Tables_number      14
_space_group_name_Hall           '-P 2ybc'
loop_
_symmetry_equiv_pos_site_id
_symmetry_equiv_pos_as_xyz
1 x,y,z
2 -x,1/2+y,1/2-z
3 -x,-y,-z
4 x,1/2-y,1/2+z
_cell_length_a                   5.1765(9)
_cell_length_b                   15.095(3)
_cell_length_c                   6.4715(11)
_cell_angle_alpha                90
_cell_angle_beta                 103.229(2)
_cell_angle_gamma                90
_cell_volume                     492.259
loop_
_atom_site_label
_atom_site_type_symbol
_atom_site_fract_x
_atom_site_fract_y
_atom_site_fract_z
Cu1 Cu 0.05273(10) 0.28913(3) 0.32769(8)
N1 N -0.1790(7) 0.2807(2) 0.0218(6)
N2 N -0.4108(6) 0.28404(18) -0.0575(5)
N3 N 0.0410(6) 0.4139(2) 0.4360(5)
C1 C 0.1410(7) 0.4840(3) 0.3513(6)
N4 N -0.6339(7) 0.2894(2) -0.1434(6)
C2 C 0.2983(9) 0.4671(3) 0.1886(6)
H1 H 0.4375 0.4256 0.2439
H2 H 0.3743 0.5216 0.1545
H3 H 0.1843 0.4431 0.0629
C3 C -0.0968(8) 0.4316(3) 0.5835(6)
H4 H -0.1662 0.3842 0.6451
Cu1B Cu -0.05273(10) 0.71087(3) 0.67231(8)
Cu1A Cu -0.05273(10) 0.78913(3) 1.17231(8)
Cu1A_2 Cu 0.94727(10) 0.78913(3) 1.17231(8)
Cu1C Cu -0.94727(10) 0.21087(3) -0.17231(8)
Cu1C_2 Cu 0.05273(10) 0.21087(3) -0.17231(8)
N1B N 0.1790(7) 0.7193(2) 0.9782(6)
N1A N 0.1790(7) 0.7807(2) 0.4782(6)
N1C N -0.1790(7) 0.2193(2) 0.5218(6)
N2B N 0.4108(6) 0.71596(18) 1.0575(5)
N3B N -0.0410(6) 0.5861(2) 0.5640(5)
C1B C -0.1410(7) 0.5160(3) 0.6487(6)
N4B N 0.6339(7) 0.7106(2) 1.1434(6)
N4A N -0.3661(7) 0.7894(2) 0.6434(6)
N4C N 0.3661(7) 0.2106(2) 0.3566(6)
C2B C -0.2983(9) 0.5329(3) 0.8114(6)
H1B H -0.4375 0.5744 0.7561
H2B H -0.3743 0.4784 0.8455
H3B H -0.1843 0.5569 0.9371
C3B C 0.0968(8) 0.5684(3) 0.4165(6)
H4B H 0.1662 0.6158 0.3549
loop_
_geom_bond_atom_site_label_1
_geom_bond_atom_site_label_2
_geom_bond_site_symmetry_1
_geom_bond_site_symmetry_2
Cu1 N1 1_555 1_555
N1 N2 1_555 1_555
N2 N4 1_555 1_555
N3 Cu1 1_555 1_555
C1 N3 1_555 1_555
N4 Cu1C 1_555 1_555
C2 C1 1_555 1_555
H1 C2 1_555 1_555
H2 C2 1_555 1_555
H3 C2 1_555 1_555
C3 N3 1_555 1_555
H4 C3 1_555 1_555
Cu1B N1B 1_555 1_555
Cu1A N1B 1_555 1_555
Cu1A_2 N4B 1_555 1_555
Cu1C_2 N1 1_555 1_555
N1B N2B 1_555 1_555
N1A Cu1B 1_555 1_555
N1C Cu1 1_555 1_555
N2B N4B 1_555 1_555
N3B Cu1B 1_555 1_555
C1B C3 1_555 1_555
N4A Cu1B 1_555 1_555
N4C Cu1 1_555 1_555
C2B C1B 1_555 1_555
H1B C2B 1_555 1_555
H2B C2B 1_555 1_555
H3B C2B 1_555 1_555
C3B C1 1_555 1_555
H4B C3B 1_555 1_555
N3B C1B 1_555 1_555
N3B C3B 1_555 1_555

#END
