
#######################################################################
#
#                 Cambridge Crystallographic Data Centre
#                                CCDC 
#
#######################################################################
#
# If this CIF has been generated from an entry in the Cambridge 
# Structural Database, then it will include bibliographic, chemical, 
# crystal, experimental, refinement or atomic coordinate data resulting 
# from the CCDC's data processing and validation procedures.
#
#######################################################################

data_WAYYUS
_symmetry_cell_setting           monoclinic
_symmetry_space_group_name_H-M   'P 21/c'
_symmetry_Int_Tables_number      14
_space_group_name_Hall           '-P 2ybc'
loop_
_symmetry_equiv_pos_site_id
_symmetry_equiv_pos_as_xyz
1 x,y,z
2 -x,1/2+y,1/2-z
3 -x,-y,-z
4 x,1/2-y,1/2+z
_cell_length_a                   11.903(2)
_cell_length_b                   10.225(2)
_cell_length_c                   8.4420(17)
_cell_angle_alpha                90
_cell_angle_beta                 106.98(3)
_cell_angle_gamma                90
_cell_volume                     982.67
loop_
_atom_site_label
_atom_site_type_symbol
_atom_site_fract_x
_atom_site_fract_y
_atom_site_fract_z
Cu1 Cu 0.945202(19) 0.06933(2) 0.12389(3)
N1 N 1.10065(15) 0.0281(2) 0.0921(2)
N2 N 1.19339(16) 0.0238(2) 0.1972(2)
N3 N 1.2805(2) 0.0214(3) 0.2956(4)
N4 N 1.01800(16) 0.1162(2) 0.3563(2)
N5 N 0.91627(18) 0.2167(2) 0.5198(3)
N6 N 0.96451(14) 0.16770(16) 0.43541(19)
N7 N 0.78202(14) 0.08042(15) 0.1389(2)
N8 N 0.71433(14) 0.18780(16) 0.0933(2)
H1 H 0.7356 0.2569 0.0516
C1 C 0.71929(18) -0.0031(2) 0.1978(3)
C2 C 0.6107(2) 0.0523(2) 0.1884(3)
H2 H 0.5504 0.0140 0.2216
C3 C 0.60992(18) 0.1731(2) 0.1212(3)
C4 C 0.7683(2) -0.1342(3) 0.2619(4)
H3 H 0.8459 -0.1431 0.2508
H4 H 0.7187 -0.2018 0.1994
H5 H 0.7715 -0.1418 0.3765
C5 C 0.5180(2) 0.2776(3) 0.0783(5)
H6 H 0.5473 0.3514 0.0323
H7 H 0.4989 0.3041 0.1764
H8 H 0.4489 0.2443 -0.0014
Cu1B Cu 1.054798(19) -0.06933(2) -0.12389(3)
Cu1C Cu 0.945202(19) 0.43067(2) 0.62389(3)
N1B N 0.89935(15) -0.0281(2) -0.0921(2)
N5C N 0.91627(18) 0.2833(2) 0.0198(3)
loop_
_geom_bond_atom_site_label_1
_geom_bond_atom_site_label_2
_geom_bond_site_symmetry_1
_geom_bond_site_symmetry_2
Cu1 N1 1_555 1_555
N1 N2 1_555 1_555
N2 N3 1_555 1_555
N4 Cu1 1_555 1_555
N5 N6 1_555 1_555
N6 N4 1_555 1_555
N7 Cu1 1_555 1_555
N8 N7 1_555 1_555
H1 N8 1_555 1_555
C1 N7 1_555 1_555
C2 C1 1_555 1_555
H2 C2 1_555 1_555
C3 N8 1_555 1_555
C4 C1 1_555 1_555
H3 C4 1_555 1_555
H4 C4 1_555 1_555
H5 C4 1_555 1_555
C5 C3 1_555 1_555
H6 C5 1_555 1_555
H7 C5 1_555 1_555
H8 C5 1_555 1_555
Cu1B N1 1_555 1_555
Cu1C N5 1_555 1_555
N1B Cu1 1_555 1_555
N5C Cu1 1_555 1_555
C2 C3 1_555 1_555
Cu1B N1B 1_555 1_555

#END
