
#######################################################################
#
#                 Cambridge Crystallographic Data Centre
#                                CCDC 
#
#######################################################################
#
# If this CIF has been generated from an entry in the Cambridge 
# Structural Database, then it will include bibliographic, chemical, 
# crystal, experimental, refinement or atomic coordinate data resulting 
# from the CCDC's data processing and validation procedures.
#
#######################################################################

data_WAZCEF
_symmetry_cell_setting           rhombohedral
_symmetry_space_group_name_H-M   'R -3 c'
_symmetry_Int_Tables_number      167
_space_group_name_Hall           '-R 3 2"c'
loop_
_symmetry_equiv_pos_site_id
_symmetry_equiv_pos_as_xyz
1 x,y,z
2 1/3+x,2/3+y,2/3+z
3 2/3+x,1/3+y,1/3+z
4 -y,x-y,z
5 -x+y,-x,z
6 1/3-y,2/3+x-y,2/3+z
7 1/3-x+y,2/3-x,2/3+z
8 2/3-y,1/3+x-y,1/3+z
9 2/3-x+y,1/3-x,1/3+z
10 -y,-x,1/2+z
11 1/3-y,2/3-x,1/6+z
12 2/3-y,1/3-x,5/6+z
13 -x+y,y,1/2+z
14 x,x-y,1/2+z
15 1/3-x+y,2/3+y,1/6+z
16 1/3+x,2/3+x-y,1/6+z
17 2/3-x+y,1/3+y,5/6+z
18 2/3+x,1/3+x-y,5/6+z
19 -x,-y,-z
20 2/3-x,1/3-y,1/3-z
21 1/3-x,2/3-y,2/3-z
22 y,-x+y,-z
23 x-y,x,-z
24 2/3+y,1/3-x+y,1/3-z
25 2/3+x-y,1/3+x,1/3-z
26 1/3+y,2/3-x+y,2/3-z
27 1/3+x-y,2/3+x,2/3-z
28 y,x,1/2-z
29 2/3+y,1/3+x,5/6-z
30 1/3+y,2/3+x,1/6-z
31 x-y,-y,1/2-z
32 -x,-x+y,1/2-z
33 2/3+x-y,1/3-y,5/6-z
34 2/3-x,1/3-x+y,5/6-z
35 1/3+x-y,2/3-y,1/6-z
36 1/3-x,2/3-x+y,1/6-z
_cell_length_a                   13.987(2)
_cell_length_b                   13.987(2)
_cell_length_c                   43.769(8)
_cell_angle_alpha                90
_cell_angle_beta                 90
_cell_angle_gamma                120
_cell_volume                     7415.6
loop_
_atom_site_label
_atom_site_type_symbol
_atom_site_fract_x
_atom_site_fract_y
_atom_site_fract_z
Cd1 Cd 0.22926(9) 0.00000 0.2500
Cd2 Cd 0.6667 0.3333 0.26985(4)
C1 C 0.1840(10) 0.1373(10) 0.2494(3)
C2 C 0.6667 0.3333 0.3206(5)
C3 C 0.5051(11) 0.2002(11) 0.2554(3)
N1 N 0.4181(9) 0.1312(10) 0.2493(3)
N2 N 0.2467(11) 0.0160(11) 0.3040(3)
C4 C 0.1792(23) 0.0101(30) 0.3210(6)
C5 C 0.1989(41) 0.0385(40) 0.3535(7)
C6 C 0.2531(29) 0.0132(32) 0.3654(7)
C7 C 0.3397(30) 0.0337(41) 0.3520(8)
C8 C 0.3221(32) 0.0035(28) 0.3185(5)
H1 H 0.09721 -0.01811 0.31218
H2 H 0.16316 0.08123 0.36513
H3 H 0.23169 -0.02693 0.38747
H4 H 0.41922 0.06940 0.36312
H5 H 0.36964 -0.02717 0.30695
C1DA C 0.0467(14) -0.1373(10) 0.2506(3)
N1DA N 0.2869(13) -0.1312(10) 0.2507(3)
N2DA N 0.2307(16) -0.0160(11) 0.1960(3)
C3C C 0.7998(11) 0.3049(16) 0.2554(3)
C3D C 0.6951(16) 0.4949(11) 0.2554(3)
C1AA C 0.1373(10) 0.1840(10) 0.2506(3)
C2T C 0.6666 0.3334 0.3461(5)
loop_
_geom_bond_atom_site_label_1
_geom_bond_atom_site_label_2
_geom_bond_site_symmetry_1
_geom_bond_site_symmetry_2
Cd1 C1 1_555 1_555
Cd2 C2 1_555 1_555
C1 C1AA 1_555 1_555
C2 C2T 1_555 1_555
C3 Cd2 1_555 1_555
N1 Cd1 1_555 1_555
N2 Cd1 1_555 1_555
C4 N2 1_555 1_555
C5 C4 1_555 1_555
C6 C5 1_555 1_555
C7 C6 1_555 1_555
C8 N2 1_555 1_555
H1 C4 1_555 1_555
H2 C5 1_555 1_555
H3 C6 1_555 1_555
H4 C7 1_555 1_555
H5 C8 1_555 1_555
C1DA Cd1 1_555 1_555
N1DA Cd1 1_555 1_555
N2DA Cd1 1_555 1_555
C3C Cd2 1_555 1_555
C3D Cd2 1_555 1_555
C3 N1 1_555 1_555
C7 C8 1_555 1_555

#END
