
#######################################################################
#
#                 Cambridge Crystallographic Data Centre
#                                CCDC 
#
#######################################################################
#
# If this CIF has been generated from an entry in the Cambridge 
# Structural Database, then it will include bibliographic, chemical, 
# crystal, experimental, refinement or atomic coordinate data resulting 
# from the CCDC's data processing and validation procedures.
#
#######################################################################

data_WAZJUE
_symmetry_cell_setting           triclinic
_symmetry_space_group_name_H-M   'P -1'
_symmetry_Int_Tables_number      2
_space_group_name_Hall           '-P 1'
loop_
_symmetry_equiv_pos_site_id
_symmetry_equiv_pos_as_xyz
1 x,y,z
2 -x,-y,-z
_cell_length_a                   10.1091(10)
_cell_length_b                   10.7350(11)
_cell_length_c                   10.9284(11)
_cell_angle_alpha                73.8250(10)
_cell_angle_beta                 64.9710(10)
_cell_angle_gamma                83.5950(10)
_cell_volume                     1032.03
loop_
_atom_site_label
_atom_site_type_symbol
_atom_site_fract_x
_atom_site_fract_y
_atom_site_fract_z
Co1 Co 0.07965(6) 0.69294(6) 0.35023(6)
O1 O 0.2481(4) 0.7102(4) 0.1456(4)
O2 O 0.1412(4) 0.6141(6) 0.0556(4)
O3 O 0.8218(3) 0.4748(3) -0.4179(4)
O4 O 0.8997(4) 0.6713(3) -0.4452(4)
O5 O -0.0555(4) 0.6002(4) 0.3018(4)
H1 H -0.0055 0.5902 0.2205
H2 H -0.0753 0.5273 0.3615
N1 N 0.0055(5) 0.8811(5) 0.2797(5)
N2 N 0.1894(5) 0.8135(4) 0.4001(5)
C1 C -0.0848(8) 0.9067(8) 0.2153(7)
H3 H -0.1227 0.8387 0.2024
C2 C -0.1227(12) 1.0327(11) 0.1674(10)
H4 H -0.1846 1.0494 0.1216
C3 C -0.0684(12) 1.1328(10) 0.1879(11)
H5 H -0.0936 1.2180 0.1567
C4 C 0.0225(9) 1.1064(7) 0.2543(9)
H6 H 0.0597 1.1734 0.2695
C5 C 0.0594(6) 0.9794(5) 0.2993(6)
C6 C 0.1607(6) 0.9414(5) 0.3686(6)
C7 C 0.2247(8) 1.0319(6) 0.3989(8)
H7 H 0.2031 1.1197 0.3780
C8 C 0.3206(8) 0.9861(8) 0.4606(10)
H8 H 0.3650 1.0439 0.4814
C9 C 0.3510(8) 0.8575(7) 0.4914(10)
H9 H 0.4165 0.8267 0.5321
C10 C 0.2815(6) 0.7730(6) 0.4604(7)
H10 H 0.3005 0.6847 0.4830
C11 C 0.2503(5) 0.6589(5) 0.0551(5)
C12 C 0.4169(5) 0.4431(5) -0.3611(5)
H11 H 0.3601 0.4045 -0.2676
C13 C 0.5158(5) 0.5416(5) -0.3958(5)
C14 C 0.5972(5) 0.5978(5) -0.5348(5)
H12 H 0.6626 0.6642 -0.5596
C15 C 0.5258(5) 0.5858(5) -0.2821(5)
C16 C 0.3970(5) 0.6073(5) -0.1743(5)
H13 H 0.3086 0.5946 -0.1765
C17 C 0.3950(5) 0.6471(5) -0.0634(5)
C18 C 0.5266(5) 0.6707(5) -0.0627(5)
H14 H 0.5274 0.6990 0.0100
C19 C 0.6559(5) 0.6524(5) -0.1696(5)
H15 H 0.7436 0.6690 -0.1683
C20 C 0.6586(5) 0.6093(4) -0.2800(5)
C21 C 0.8049(5) 0.5833(4) -0.3891(4)
Co1A Co -0.07965(6) 0.30706(6) -0.35023(6)
Co1_2 Co 0.07965(6) 0.69294(6) -0.64977(6)
Co1_3 Co 1.07965(6) 0.69294(6) -0.64977(6)
Co1A_2 Co 0.92035(6) 0.30706(6) -1.35023(6)
Co1A_3 Co 0.92035(6) 0.30706(6) -0.35023(6)
O1A O 0.7519(4) 0.2898(4) -1.1456(4)
O1A_2 O -0.2481(4) 0.2898(4) -0.1456(4)
O2A O 0.8588(4) 0.3859(6) -1.0556(4)
O3A O 0.1782(3) 0.5252(3) -0.5821(4)
O3_2 O -0.1782(3) 0.4748(3) -0.4179(4)
O3A_2 O 0.1782(3) 0.5252(3) 0.4179(4)
O4A O 0.1003(4) 0.3287(3) -0.5548(4)
O4_2 O -0.1003(4) 0.6713(3) 0.5548(4)
O5A O 0.0555(4) 0.3998(4) -0.3018(4)
H1A H 0.0055 0.4098 -0.2205
H2A H 0.0753 0.4727 -0.3615
N1A N -0.0055(5) 0.1189(5) -0.2797(5)
N2A N -0.1894(5) 0.1865(4) -0.4001(5)
C1A C 0.0848(8) 0.0933(8) -0.2153(7)
H3A H 0.1227 0.1613 -0.2024
C2A C 0.1227(12) -0.0327(11) -0.1674(10)
H4A H 0.1846 -0.0494 -0.1216
C3A C 0.0684(12) -0.1328(10) -0.1879(11)
H5A H 0.0936 -0.2180 -0.1567
C4A C -0.0225(9) -0.1064(7) -0.2543(9)
H6A H -0.0597 -0.1734 -0.2695
C5A C -0.0594(6) 0.0206(5) -0.2993(6)
C6A C -0.1607(6) 0.0586(5) -0.3686(6)
C7A C -0.2247(8) -0.0319(6) -0.3989(8)
H7A H -0.2031 -0.1197 -0.3780
C8A C -0.3206(8) 0.0139(8) -0.4606(10)
H8A H -0.3650 -0.0439 -0.4814
C9A C -0.3510(8) 0.1425(7) -0.4914(10)
H9A H -0.4165 0.1733 -0.5321
C10A C -0.2815(6) 0.2270(6) -0.4604(7)
H10A H -0.3005 0.3153 -0.4830
C11A C 0.7497(5) 0.3411(5) -1.0551(5)
C12A C 0.5831(5) 0.5569(5) -0.6389(5)
H11A H 0.6399 0.5955 -0.7324
C13A C 0.4842(5) 0.4584(5) -0.6042(5)
C14A C 0.4028(5) 0.4022(5) -0.4652(5)
H12A H 0.3374 0.3358 -0.4404
C15A C 0.4742(5) 0.4142(5) -0.7179(5)
C16A C 0.6030(5) 0.3927(5) -0.8257(5)
H13A H 0.6914 0.4054 -0.8235
C17A C 0.6050(5) 0.3529(5) -0.9366(5)
C18A C 0.4734(5) 0.3293(5) -0.9373(5)
H14A H 0.4726 0.3010 -1.0100
C19A C 0.3441(5) 0.3476(5) -0.8304(5)
H15A H 0.2564 0.3310 -0.8317
C20A C 0.3414(5) 0.3907(4) -0.7200(5)
C21A C 0.1951(5) 0.4167(4) -0.6109(4)
loop_
_geom_bond_atom_site_label_1
_geom_bond_atom_site_label_2
_geom_bond_site_symmetry_1
_geom_bond_site_symmetry_2
Co1 O1 1_555 1_555
O1 C11 1_555 1_555
O2 C11 1_555 1_555
O3 C21 1_555 1_555
O4 C21 1_555 1_555
O5 Co1 1_555 1_555
H1 O5 1_555 1_555
H2 O5 1_555 1_555
N1 Co1 1_555 1_555
N2 Co1 1_555 1_555
C1 N1 1_555 1_555
H3 C1 1_555 1_555
C2 C1 1_555 1_555
H4 C2 1_555 1_555
C3 C2 1_555 1_555
H5 C3 1_555 1_555
C4 C3 1_555 1_555
H6 C4 1_555 1_555
C5 N1 1_555 1_555
C6 N2 1_555 1_555
C7 C6 1_555 1_555
H7 C7 1_555 1_555
C8 C7 1_555 1_555
H8 C8 1_555 1_555
C9 C8 1_555 1_555
H9 C9 1_555 1_555
C10 N2 1_555 1_555
H10 C10 1_555 1_555
C11 C17 1_555 1_555
C12 H11 1_555 1_555
C13 C12 1_555 1_555
C14 C13 1_555 1_555
H12 C14 1_555 1_555
C15 C13 1_555 1_555
C16 C15 1_555 1_555
H13 C16 1_555 1_555
C17 C16 1_555 1_555
C18 C17 1_555 1_555
H14 C18 1_555 1_555
C19 C18 1_555 1_555
H15 C19 1_555 1_555
C20 C15 1_555 1_555
C21 C20 1_555 1_555
Co1A O1A_2 1_555 1_555
Co1_2 O3A 1_555 1_555
Co1_3 O4 1_555 1_555
Co1A_2 O1A 1_555 1_555
Co1A_3 O3 1_555 1_555
O1A C11A 1_555 1_555
O2A C11A 1_555 1_555
O3A C21A 1_555 1_555
O3_2 Co1A 1_555 1_555
O3A_2 Co1 1_555 1_555
O4A Co1A 1_555 1_555
O4_2 Co1 1_555 1_555
O5A Co1A 1_555 1_555
H1A O5A 1_555 1_555
H2A O5A 1_555 1_555
N1A Co1A 1_555 1_555
N2A Co1A 1_555 1_555
C1A N1A 1_555 1_555
H3A C1A 1_555 1_555
C2A C1A 1_555 1_555
H4A C2A 1_555 1_555
C3A C2A 1_555 1_555
H5A C3A 1_555 1_555
C4A C3A 1_555 1_555
H6A C4A 1_555 1_555
C5A N1A 1_555 1_555
C6A N2A 1_555 1_555
C7A C6A 1_555 1_555
H7A C7A 1_555 1_555
C8A C7A 1_555 1_555
H8A C8A 1_555 1_555
C9A C8A 1_555 1_555
H9A C9A 1_555 1_555
C10A N2A 1_555 1_555
H10A C10A 1_555 1_555
C11A C17A 1_555 1_555
C12A C14 1_555 1_555
H11A C12A 1_555 1_555
C13A C12A 1_555 1_555
C14A C12 1_555 1_555
H12A C14A 1_555 1_555
C15A C13A 1_555 1_555
C16A C15A 1_555 1_555
H13A C16A 1_555 1_555
C17A C16A 1_555 1_555
C18A C17A 1_555 1_555
H14A C18A 1_555 1_555
C19A C18A 1_555 1_555
H15A C19A 1_555 1_555
C20A C15A 1_555 1_555
C21A O4A 1_555 1_555
C4 C5 1_555 1_555
C5 C6 1_555 1_555
C9 C10 1_555 1_555
C19 C20 1_555 1_555
C4A C5A 1_555 1_555
C5A C6A 1_555 1_555
C9A C10A 1_555 1_555
C13A C14A 1_555 1_555
C19A C20A 1_555 1_555
C20A C21A 1_555 1_555

#END
