
#######################################################################
#
#                 Cambridge Crystallographic Data Centre
#                                CCDC 
#
#######################################################################
#
# If this CIF has been generated from an entry in the Cambridge 
# Structural Database, then it will include bibliographic, chemical, 
# crystal, experimental, refinement or atomic coordinate data resulting 
# from the CCDC's data processing and validation procedures.
#
#######################################################################

data_WAZKIT
_symmetry_cell_setting           monoclinic
_symmetry_space_group_name_H-M   'P 21/c'
_symmetry_Int_Tables_number      14
_space_group_name_Hall           '-P 2ybc'
loop_
_symmetry_equiv_pos_site_id
_symmetry_equiv_pos_as_xyz
1 x,y,z
2 -x,1/2+y,1/2-z
3 -x,-y,-z
4 x,1/2-y,1/2+z
_cell_length_a                   11.453(2)
_cell_length_b                   13.103(3)
_cell_length_c                   15.760(5)
_cell_angle_alpha                90
_cell_angle_beta                 125.39(2)
_cell_angle_gamma                90
_cell_volume                     1928.08
loop_
_atom_site_label
_atom_site_type_symbol
_atom_site_fract_x
_atom_site_fract_y
_atom_site_fract_z
Ag1 Ag -0.26180(5) 0.99084(4) 0.83174(4)
N1 N -0.0889(5) 0.8746(4) 0.8742(4)
N2 N 0.1327(5) 0.7325(4) 0.9549(4)
N3 N 0.3517(5) 0.9510(4) 1.0830(4)
N4 N 0.4121(5) 0.8221(4) 1.0234(3)
N5 N 0.4276(5) 0.6397(4) 1.0258(3)
N6 N 0.5458(5) 0.6354(4) 1.1247(4)
N7 N 0.5458(5) 0.5481(4) 1.1643(4)
C1 C 0.0483(6) 0.9025(5) 0.9281(4)
H1 H 0.0711 0.9716 0.9394
C2 C -0.1148(7) 0.7750(6) 0.8598(5)
H2 H -0.2091 0.7521 0.8209
C3 C -0.0051(7) 0.7047(5) 0.9012(6)
H3 H -0.0276 0.6356 0.8915
C4 C 0.1572(6) 0.8322(5) 0.9677(4)
C5 C 0.3062(6) 0.8681(4) 1.0256(4)
C6 C 0.4959(6) 0.9611(5) 1.1204(4)
C7 C 0.5937(7) 1.0367(5) 1.1834(5)
H4 H 0.5690 1.0902 1.2089
C8 C 0.7293(7) 1.0285(6) 1.2062(6)
H5 H 0.7974 1.0782 1.2471
C9 C 0.7662(7) 0.9472(6) 1.1691(6)
H6 H 0.8588 0.9439 1.1864
C10 C 0.6710(6) 0.8722(5) 1.1081(5)
H7 H 0.6963 0.8180 1.0837
C11 C 0.5341(6) 0.8811(5) 1.0845(4)
C12 C 0.4005(6) 0.7320(4) 0.9660(4)
H8 H 0.4687 0.7365 0.9485
H9 H 0.3051 0.7288 0.9016
C13 C 0.3512(6) 0.5515(5) 1.0005(4)
C14 C 0.2240(7) 0.5168(5) 0.9095(5)
H10 H 0.1734 0.5557 0.8490
C15 C 0.1799(7) 0.4235(6) 0.9152(6)
H11 H 0.0966 0.3973 0.8561
C16 C 0.2529(8) 0.3638(5) 1.0054(6)
H12 H 0.2160 0.3004 1.0049
C17 C 0.3790(7) 0.3970(5) 1.0955(5)
H13 H 0.4286 0.3578 1.1559
C18 C 0.4272(6) 0.4931(5) 1.0901(4)
N8 N -0.1115(8) 1.1871(5) 0.8140(5)
O1 O -0.0767(6) 1.2485(5) 0.7742(5)
O2 O -0.2384(7) 1.1722(5) 0.7767(5)
O3 O -0.0246(8) 1.1365(6) 0.8853(6)
Ag1B Ag 0.26180(5) 1.00916(4) 1.16826(4)
Ag1C Ag 0.73820(5) 0.50916(4) 1.33174(4)
N3B N -0.3517(5) 1.0490(4) 0.9170(4)
N7C N -0.4542(5) 0.9519(4) 0.6643(4)
loop_
_geom_bond_atom_site_label_1
_geom_bond_atom_site_label_2
_geom_bond_site_symmetry_1
_geom_bond_site_symmetry_2
Ag1 N1 1_555 1_555
N1 C1 1_555 1_555
N2 C3 1_555 1_555
N3 C5 1_555 1_555
N4 C5 1_555 1_555
N5 N6 1_555 1_555
N6 N7 1_555 1_555
N7 C18 1_555 1_555
C1 H1 1_555 1_555
C2 N1 1_555 1_555
H2 C2 1_555 1_555
C3 C2 1_555 1_555
H3 C3 1_555 1_555
C4 N2 1_555 1_555
C5 C4 1_555 1_555
C6 N3 1_555 1_555
C7 C6 1_555 1_555
H4 C7 1_555 1_555
C8 C7 1_555 1_555
H5 C8 1_555 1_555
C9 C8 1_555 1_555
H6 C9 1_555 1_555
C10 C9 1_555 1_555
H7 C10 1_555 1_555
C11 N4 1_555 1_555
C12 N4 1_555 1_555
H8 C12 1_555 1_555
H9 C12 1_555 1_555
C13 N5 1_555 1_555
C14 C13 1_555 1_555
H10 C14 1_555 1_555
C15 C14 1_555 1_555
H11 C15 1_555 1_555
C16 C15 1_555 1_555
H12 C16 1_555 1_555
C17 C16 1_555 1_555
H13 C17 1_555 1_555
C18 C13 1_555 1_555
N8 O1 1_555 1_555
O2 Ag1 1_555 1_555
O3 N8 1_555 1_555
Ag1B N3 1_555 1_555
Ag1C N7 1_555 1_555
N3B Ag1 1_555 1_555
N7C Ag1 1_555 1_555
N5 C12 1_555 1_555
C1 C4 1_555 1_555
C6 C11 1_555 1_555
C10 C11 1_555 1_555
C17 C18 1_555 1_555
N8 O2 1_555 1_555

#END
