
#######################################################################
#
#                 Cambridge Crystallographic Data Centre
#                                CCDC 
#
#######################################################################
#
# If this CIF has been generated from an entry in the Cambridge 
# Structural Database, then it will include bibliographic, chemical, 
# crystal, experimental, refinement or atomic coordinate data resulting 
# from the CCDC's data processing and validation procedures.
#
#######################################################################

data_WAZNAO
_symmetry_cell_setting           orthorhombic
_symmetry_space_group_name_H-M   'P n m a'
_symmetry_Int_Tables_number      62
_space_group_name_Hall           '-P 2ac 2n'
loop_
_symmetry_equiv_pos_site_id
_symmetry_equiv_pos_as_xyz
1 x,y,z
2 1/2-x,-y,1/2+z
3 -x,1/2+y,-z
4 1/2+x,1/2-y,1/2-z
5 -x,-y,-z
6 1/2+x,y,1/2-z
7 x,1/2-y,z
8 1/2-x,1/2+y,1/2+z
_cell_length_a                   15.220(2)
_cell_length_b                   6.7786(10)
_cell_length_c                   7.1846(11)
_cell_angle_alpha                90
_cell_angle_beta                 90
_cell_angle_gamma                90
_cell_volume                     741.237
loop_
_atom_site_label
_atom_site_type_symbol
_atom_site_fract_x
_atom_site_fract_y
_atom_site_fract_z
Yb1 Yb 0.851515(15) 0.7500 0.50717(3)
P1 P 0.83577(9) 0.2500 0.69297(19)
O1 O 0.7467(4) 0.7500 0.7436(8)
H1 H 0.7288 0.8642 0.7867
O2 O 0.9682(3) 0.7500 0.7033(6)
H2 H 0.9997 0.8491 0.6970
O3 O 0.84172(19) 0.4342(4) 0.5752(5)
O4 O 0.7535(3) 0.2500 0.8111(6)
O5 O 1.05308(18) 0.4106(4) 0.7167(4)
C1 C 0.9275(3) 0.2500 0.8561(8)
H3 H 0.9231 0.3655 0.9352
C2 C 1.0159(4) 0.2500 0.7632(8)
Yb1A Yb 0.648485(15) 0.2500 1.00717(3)
Yb1B Yb 1.148485(15) 0.2500 0.49283(3)
Yb1_2 Yb 0.851515(15) -0.2500 0.50717(3)
H1F H 0.7288 0.6358 0.7867
H2F H 0.9997 0.6509 0.6970
O3F O 0.84172(19) 0.0658(4) 0.5752(5)
O3F_2 O 0.84172(19) 1.0658(4) 0.5752(5)
O4A O 0.7465(3) 0.7500 0.3111(6)
O5F O 1.05308(18) 0.0894(4) 0.7167(4)
O5B O 0.94692(18) 0.9106(4) 0.2833(4)
O5D O 0.94692(18) 0.5894(4) 0.2833(4)
H3F H 0.9231 0.1345 0.9352
loop_
_geom_bond_atom_site_label_1
_geom_bond_atom_site_label_2
_geom_bond_site_symmetry_1
_geom_bond_site_symmetry_2
Yb1 O1 1_555 1_555
P1 O3 1_555 1_555
O1 H1 1_555 1_555
O2 Yb1 1_555 1_555
H2 O2 1_555 1_555
O3 Yb1 1_555 1_555
O4 P1 1_555 1_555
O5 C2 1_555 1_555
C1 P1 1_555 1_555
H3 C1 1_555 1_555
C2 C1 1_555 1_555
Yb1A O4 1_555 1_555
Yb1B O5 1_555 1_555
Yb1_2 O3F 1_555 1_555
H1F O1 1_555 1_555
H2F O2 1_555 1_555
O3F P1 1_555 1_555
O3F_2 Yb1 1_555 1_555
O4A Yb1 1_555 1_555
O5F C2 1_555 1_555
O5B Yb1 1_555 1_555
O5D Yb1 1_555 1_555
H3F C1 1_555 1_555
Yb1B O5F 1_555 1_555

#END
