
#######################################################################
#
#                 Cambridge Crystallographic Data Centre
#                                CCDC 
#
#######################################################################
#
# If this CIF has been generated from an entry in the Cambridge 
# Structural Database, then it will include bibliographic, chemical, 
# crystal, experimental, refinement or atomic coordinate data resulting 
# from the CCDC's data processing and validation procedures.
#
#######################################################################

data_WAZWID
_symmetry_cell_setting           monoclinic
_symmetry_space_group_name_H-M   'P 21/c'
_symmetry_Int_Tables_number      14
_space_group_name_Hall           '-P 2ybc'
loop_
_symmetry_equiv_pos_site_id
_symmetry_equiv_pos_as_xyz
1 x,y,z
2 -x,1/2+y,1/2-z
3 -x,-y,-z
4 x,1/2-y,1/2+z
_cell_length_a                   10.730(2)
_cell_length_b                   21.081(4)
_cell_length_c                   9.868(2)
_cell_angle_alpha                90
_cell_angle_beta                 111.62(2)
_cell_angle_gamma                90
_cell_volume                     2075.1
loop_
_atom_site_label
_atom_site_type_symbol
_atom_site_fract_x
_atom_site_fract_y
_atom_site_fract_z
Zn1 Zn 0.15152(3) 0.33933(1) -0.00572(3)
Li1 Li -0.0322(4) 0.4395(2) -0.0116(6)
Li2 Li 0.1716(5) 0.2148(2) 0.1950(5)
O1 O 0.0736(2) 0.29477(8) 0.1190(2)
O2 O -0.0505(2) 0.37873(8) 0.1195(2)
C1 C -0.0193(3) 0.32282(12) 0.1499(3)
C2 C -0.0904(3) 0.28335(13) 0.2229(3)
H1 H -0.0582(3) 0.24310(13) 0.2514(3)
C3 C -0.1937(3) 0.3012(2) 0.2493(4)
H2 H -0.2230(3) 0.3422(2) 0.2240(4)
C4 C -0.2710(4) 0.2618(2) 0.3174(6)
H3 H -0.3636(10) 0.2588(16) 0.2511(19)
H4 H -0.2670(34) 0.2813(11) 0.4078(23)
H5 H -0.2322(26) 0.2196(6) 0.3372(42)
O3 O 0.2820(2) 0.40657(8) 0.0783(2)
O4 O 0.1400(2) 0.48640(7) 0.0521(2)
C5 C 0.2552(2) 0.46521(11) 0.0766(3)
C6 C 0.3708(3) 0.50830(13) 0.1022(3)
H6 H 0.4546(3) 0.49006(13) 0.1350(3)
C7 C 0.3652(3) 0.56903(13) 0.0828(3)
H7 H 0.2821(3) 0.58763(13) 0.0569(3)
C8 C 0.4805(3) 0.6121(2) 0.0981(4)
H8 H 0.4805(17) 0.6473(7) 0.1614(24)
H9 H 0.4719(15) 0.6281(10) 0.0030(6)
H10 H 0.5638(4) 0.5887(4) 0.1400(28)
O5 O -0.0008(2) 0.38424(8) -0.1547(2)
O6 O 0.0638(2) 0.35895(9) -0.3362(2)
C9 C -0.0061(3) 0.39019(11) -0.2872(3)
C10 C -0.1040(3) 0.43727(14) -0.3780(4)
H11 H -0.1534(3) 0.46019(14) -0.3362(4)
C11 C -0.1232(3) 0.4477(2) -0.5148(4)
H12 H -0.0727(3) 0.4242(2) -0.5543(4)
C12 C -0.2192(4) 0.4941(2) -0.6129(5)
H13 H -0.2945(23) 0.4715(3) -0.6824(32)
H14 H -0.1744(13) 0.5186(15) -0.6647(37)
H15 H -0.2513(34) 0.5224(13) -0.5553(7)
O7 O 0.2405(2) 0.27953(7) -0.0925(2)
O8 O 0.3023(2) 0.22212(10) 0.1090(2)
C13 C 0.3043(2) 0.23271(11) -0.0123(3)
C14 C 0.3818(3) 0.19225(13) -0.0741(3)
H16 H 0.3888(3) 0.20415(13) -0.1607(3)
C15 C 0.4403(4) 0.1409(2) -0.0121(4)
H17 H 0.4323(4) 0.1301(2) 0.0746(4)
C16 C 0.5204(4) 0.0971(2) -0.0684(5)
H18 H 0.4790(21) 0.0554(5) -0.0855(38)
H19 H 0.6110(11) 0.0938(14) 0.0029(19)
H20 H 0.5230(31) 0.1137(9) -0.1590(22)
O7C O 0.2405(2) 0.22047(7) 0.4075(2)
O4B O -0.1400(2) 0.51360(7) -0.0521(2)
Li1B Li 0.0322(4) 0.5605(2) 0.0116(6)
O6C O 0.0638(2) 0.14105(9) 0.1638(2)
Li2C Li 0.1716(5) 0.2852(2) -0.3050(5)
loop_
_geom_bond_atom_site_label_1
_geom_bond_atom_site_label_2
_geom_bond_site_symmetry_1
_geom_bond_site_symmetry_2
Zn1 O1 1_555 1_555
Li1 O2 1_555 1_555
Li2 O1 1_555 1_555
O1 C1 1_555 1_555
O2 C1 1_555 1_555
C1 C2 1_555 1_555
C2 H1 1_555 1_555
C3 C2 1_555 1_555
H2 C3 1_555 1_555
C4 C3 1_555 1_555
H3 C4 1_555 1_555
H4 C4 1_555 1_555
H5 C4 1_555 1_555
O3 Zn1 1_555 1_555
O4 Li1 1_555 1_555
C5 O3 1_555 1_555
C6 C5 1_555 1_555
H6 C6 1_555 1_555
C7 C6 1_555 1_555
H7 C7 1_555 1_555
C8 C7 1_555 1_555
H8 C8 1_555 1_555
H9 C8 1_555 1_555
H10 C8 1_555 1_555
O5 Zn1 1_555 1_555
O6 C9 1_555 1_555
C9 O5 1_555 1_555
C10 C9 1_555 1_555
H11 C10 1_555 1_555
C11 C10 1_555 1_555
H12 C11 1_555 1_555
C12 C11 1_555 1_555
H13 C12 1_555 1_555
H14 C12 1_555 1_555
H15 C12 1_555 1_555
O7 Zn1 1_555 1_555
O8 Li2 1_555 1_555
C13 O7 1_555 1_555
C14 C13 1_555 1_555
H16 C14 1_555 1_555
C15 C14 1_555 1_555
H17 C15 1_555 1_555
C16 C15 1_555 1_555
H18 C16 1_555 1_555
H19 C16 1_555 1_555
H20 C16 1_555 1_555
O7C Li2 1_555 1_555
O4B Li1 1_555 1_555
Li1B O4 1_555 1_555
O6C Li2 1_555 1_555
Li2C O6 1_555 1_555
Li1 O5 1_555 1_555
O4 C5 1_555 1_555
O7 Li2C 1_555 1_555
O8 C13 1_555 1_555
O4B Li1B 1_555 1_555

#END
