
#######################################################################
#
#                 Cambridge Crystallographic Data Centre
#                                CCDC 
#
#######################################################################
#
# If this CIF has been generated from an entry in the Cambridge 
# Structural Database, then it will include bibliographic, chemical, 
# crystal, experimental, refinement or atomic coordinate data resulting 
# from the CCDC's data processing and validation procedures.
#
#######################################################################

data_WAZYED
_symmetry_cell_setting           monoclinic
_symmetry_space_group_name_H-M   'C 2/c'
_symmetry_Int_Tables_number      15
_space_group_name_Hall           '-C 2yn'
loop_
_symmetry_equiv_pos_site_id
_symmetry_equiv_pos_as_xyz
1 x,y,z
2 -x,y,1/2-z
3 1/2+x,1/2+y,z
4 1/2-x,1/2+y,1/2-z
5 -x,-y,-z
6 x,-y,1/2+z
7 1/2-x,1/2-y,-z
8 1/2+x,1/2-y,1/2+z
_cell_length_a                   23.477(4)
_cell_length_b                   13.367(2)
_cell_length_c                   17.168(3)
_cell_angle_alpha                90
_cell_angle_beta                 97.5749(8)
_cell_angle_gamma                90
_cell_volume                     5340.6
loop_
_atom_site_label
_atom_site_type_symbol
_atom_site_fract_x
_atom_site_fract_y
_atom_site_fract_z
Eu1 Eu 1.0000 0.217409(9) 0.7500
P1 P 0.85636(2) 0.30064(4) 0.79251(3)
F1 F 0.92774(11) 0.08394(18) 0.47389(15)
F2 F 1.01782(10) 0.10574(15) 0.47688(11)
F3 F 0.95921(17) 0.20450(16) 0.40974(11)
F4 F 0.93655(10) 0.51986(13) 0.51153(11)
F5 F 0.88063(8) 0.50188(14) 0.59809(14)
F6 F 0.96541(9) 0.55561(12) 0.63054(13)
F7 F 0.85856(9) -0.05257(15) 0.66638(13)
F8 F 0.89943(10) -0.17922(14) 0.7243(2)
F9 F 0.86175(9) -0.0684(2) 0.78855(15)
O1 O 0.91733(6) 0.26505(11) 0.80076(9)
O2 O 0.97838(7) 0.17187(11) 0.61313(9)
O3 O 0.96393(6) 0.36210(11) 0.67396(9)
O4 O 0.94043(6) 0.06993(11) 0.74330(9)
C1 C 0.82154(9) 0.29030(14) 0.69299(12)
C2 C 0.83830(10) 0.21395(19) 0.64638(15)
C3 C 0.81126(10) 0.2003(2) 0.57075(16)
C4 C 0.76568(9) 0.25997(15) 0.53991(11)
C5 C 0.75020(13) 0.33759(18) 0.58636(14)
C6 C 0.77805(12) 0.35349(18) 0.66173(14)
C7 C 0.81475(10) 0.22725(17) 0.85218(13)
C8 C 0.84196(14) 0.1821(2) 0.91886(18)
C9 C 0.81041(19) 0.1253(3) 0.9662(2)
C10 C 0.75231(17) 0.1148(2) 0.9468(2)
C11 C 0.72490(15) 0.1588(3) 0.8808(2)
C12 C 0.75577(12) 0.2148(2) 0.83281(19)
C13 C 0.85257(9) 0.42965(16) 0.82041(12)
C14 C 0.80668(13) 0.4679(2) 0.8529(2)
C15 C 0.80522(17) 0.5695(2) 0.8696(2)
C16 C 0.84830(13) 0.6315(2) 0.85375(19)
C17 C 0.89338(13) 0.59437(19) 0.82006(17)
C18 C 0.89605(11) 0.49287(18) 0.80380(15)
C19 C 0.96899(11) 0.21898(16) 0.54995(14)
C20 C 0.95445(9) 0.38307(16) 0.60252(13)
C21 C 0.95746(12) 0.32059(18) 0.53873(14)
C22 C 0.96883(16) 0.1537(2) 0.47634(16)
C23 C 0.93438(11) 0.49141(17) 0.58503(15)
C24 C 0.94826(10) -0.02176(15) 0.74178(12)
C25 C 1.0000 -0.0733(2) 0.7500
C26 C 0.89207(12) -0.08248(19) 0.72963(19)
H1 H 0.8687 0.1706 0.6667
H2 H 0.8242 0.1488 0.5392
H3 H 0.7198 0.3810 0.5661
H4 H 0.7671 0.4081 0.6919
H5 H 0.8823 0.1895 0.9327
H6 H 0.8293 0.0938 1.0121
H7 H 0.7310 0.0765 0.9796
H8 H 0.6845 0.1511 0.8676
H9 H 0.7366 0.2448 0.7865
H10 H 0.7763 0.4253 0.8639
H11 H 0.7737 0.5961 0.8924
H12 H 0.8469 0.7007 0.8661
H13 H 0.9229 0.6379 0.8078
H14 H 0.9278 0.4668 0.7812
H15 H 0.9516 0.3473 0.4870
H16 H 1.0000 -0.1444 0.7500
Eu1F Eu 0.5000 0.282591(9) 0.2500
P1F P 0.64364(2) 0.19936(4) 0.20749(3)
F1A F 1.07226(11) 0.08394(18) 1.02611(15)
F2A F 0.98218(10) 0.10574(15) 1.02312(11)
F3A F 1.04079(17) 0.20450(16) 1.09026(11)
F4A F 1.06345(10) 0.51986(13) 0.98847(11)
F5A F 1.11937(8) 0.50188(14) 0.90191(14)
F6A F 1.03459(9) 0.55561(12) 0.86946(13)
F7A F 1.14144(9) -0.05257(15) 0.83362(13)
F8A F 1.10057(10) -0.17922(14) 0.7757(2)
F9A F 1.13825(9) -0.0684(2) 0.71145(15)
O1F O 0.58267(6) 0.23495(11) 0.19924(9)
O1A O 1.08267(6) 0.26505(11) 0.69924(9)
O2A O 1.02162(7) 0.17187(11) 0.88687(9)
O3A O 1.03607(6) 0.36210(11) 0.82604(9)
O4A O 1.05957(6) 0.06993(11) 0.75670(9)
C1F C 0.67846(9) 0.20970(14) 0.30701(12)
C2F C 0.66170(10) 0.28605(19) 0.35362(15)
C3F C 0.68874(10) 0.2997(2) 0.42925(16)
C4F C 0.73432(9) 0.24003(15) 0.46009(11)
C5F C 0.74980(13) 0.16241(18) 0.41364(14)
C6F C 0.72195(12) 0.14651(18) 0.33827(14)
C7F C 0.68525(10) 0.27275(17) 0.14782(13)
C8F C 0.65804(14) 0.3179(2) 0.08114(18)
C9F C 0.68959(19) 0.3747(3) 0.0338(2)
C10F C 0.74769(17) 0.3852(2) 0.0532(2)
C11F C 0.77510(15) 0.3412(3) 0.1192(2)
C12F C 0.74423(12) 0.2852(2) 0.16719(19)
C13F C 0.64743(9) 0.07035(16) 0.17959(12)
C14F C 0.69332(13) 0.0321(2) 0.1471(2)
C15F C 0.69478(17) -0.0695(2) 0.1304(2)
C16F C 0.65170(13) -0.1315(2) 0.14625(19)
C17F C 0.60662(13) -0.09437(19) 0.17994(17)
C18F C 0.60395(11) 0.00713(18) 0.19620(15)
C19A C 1.03101(11) 0.21898(16) 0.95005(14)
C20A C 1.04555(9) 0.38307(16) 0.89748(13)
C21A C 1.04254(12) 0.32059(18) 0.96127(14)
C22A C 1.03117(16) 0.1537(2) 1.02366(16)
C23A C 1.06562(11) 0.49141(17) 0.91497(15)
C24A C 1.05174(10) -0.02176(15) 0.75822(12)
C26A C 1.10793(12) -0.08248(19) 0.77037(19)
H1F H 0.6313 0.3294 0.3333
H2F H 0.6758 0.3512 0.4608
H3F H 0.7802 0.1190 0.4339
H4F H 0.7329 0.0919 0.3081
H5F H 0.6177 0.3105 0.0673
H6F H 0.6707 0.4062 -0.0121
H7F H 0.7690 0.4235 0.0204
H8F H 0.8155 0.3489 0.1324
H9F H 0.7634 0.2552 0.2135
H10F H 0.7237 0.0747 0.1361
H11F H 0.7263 -0.0961 0.1076
H12F H 0.6531 -0.2007 0.1339
H13F H 0.5771 -0.1379 0.1922
H14F H 0.5722 0.0332 0.2188
H15A H 1.0484 0.3473 1.0130
loop_
_geom_bond_atom_site_label_1
_geom_bond_atom_site_label_2
_geom_bond_site_symmetry_1
_geom_bond_site_symmetry_2
Eu1 O1 1_555 1_555
P1 O1 1_555 1_555
F1 C22 1_555 1_555
F2 C22 1_555 1_555
F3 C22 1_555 1_555
F4 C23 1_555 1_555
F5 C23 1_555 1_555
F6 C23 1_555 1_555
F7 C26 1_555 1_555
F8 C26 1_555 1_555
F9 C26 1_555 1_555
O2 Eu1 1_555 1_555
O3 Eu1 1_555 1_555
O4 Eu1 1_555 1_555
C1 P1 1_555 1_555
C2 C1 1_555 1_555
C3 C2 1_555 1_555
C4 C3 1_555 1_555
C5 C4 1_555 1_555
C6 C1 1_555 1_555
C7 P1 1_555 1_555
C8 C7 1_555 1_555
C9 C8 1_555 1_555
C10 C9 1_555 1_555
C11 C10 1_555 1_555
C12 C7 1_555 1_555
C13 P1 1_555 1_555
C14 C13 1_555 1_555
C15 C14 1_555 1_555
C16 C15 1_555 1_555
C17 C16 1_555 1_555
C18 C13 1_555 1_555
C19 O2 1_555 1_555
C20 O3 1_555 1_555
C21 C19 1_555 1_555
C22 C19 1_555 1_555
C23 C20 1_555 1_555
C24 O4 1_555 1_555
C25 C24 1_555 1_555
C26 C24 1_555 1_555
H1 C2 1_555 1_555
H2 C3 1_555 1_555
H3 C5 1_555 1_555
H4 C6 1_555 1_555
H5 C8 1_555 1_555
H6 C9 1_555 1_555
H7 C10 1_555 1_555
H8 C11 1_555 1_555
H9 C12 1_555 1_555
H10 C14 1_555 1_555
H11 C15 1_555 1_555
H12 C16 1_555 1_555
H13 C17 1_555 1_555
H14 C18 1_555 1_555
H15 C21 1_555 1_555
H16 C25 1_555 1_555
Eu1F O1F 1_555 1_555
P1F O1F 1_555 1_555
F1A C22A 1_555 1_555
F2A C22A 1_555 1_555
F3A C22A 1_555 1_555
F4A C23A 1_555 1_555
F5A C23A 1_555 1_555
F6A C23A 1_555 1_555
F7A C26A 1_555 1_555
F8A C26A 1_555 1_555
F9A C26A 1_555 1_555
O1A Eu1 1_555 1_555
O2A Eu1 1_555 1_555
O3A Eu1 1_555 1_555
O4A Eu1 1_555 1_555
C1F P1F 1_555 1_555
C2F C1F 1_555 1_555
C3F C2F 1_555 1_555
C4F C4 1_555 1_555
C5F C4F 1_555 1_555
C6F C1F 1_555 1_555
C7F P1F 1_555 1_555
C8F C7F 1_555 1_555
C9F C8F 1_555 1_555
C10F C9F 1_555 1_555
C11F C10F 1_555 1_555
C12F C7F 1_555 1_555
C13F P1F 1_555 1_555
C14F C13F 1_555 1_555
C15F C14F 1_555 1_555
C16F C15F 1_555 1_555
C17F C16F 1_555 1_555
C18F C13F 1_555 1_555
C19A O2A 1_555 1_555
C20A O3A 1_555 1_555
C21A C19A 1_555 1_555
C22A C19A 1_555 1_555
C23A C20A 1_555 1_555
C24A C25 1_555 1_555
C26A C24A 1_555 1_555
H1F C2F 1_555 1_555
H2F C3F 1_555 1_555
H3F C5F 1_555 1_555
H4F C6F 1_555 1_555
H5F C8F 1_555 1_555
H6F C9F 1_555 1_555
H7F C10F 1_555 1_555
H8F C11F 1_555 1_555
H9F C12F 1_555 1_555
H10F C14F 1_555 1_555
H11F C15F 1_555 1_555
H12F C16F 1_555 1_555
H13F C17F 1_555 1_555
H14F C18F 1_555 1_555
H15A C21A 1_555 1_555
C5 C6 1_555 1_555
C11 C12 1_555 1_555
C17 C18 1_555 1_555
C20 C21 1_555 1_555
O4A C24A 1_555 1_555
C3F C4F 1_555 1_555
C5F C6F 1_555 1_555
C11F C12F 1_555 1_555
C17F C18F 1_555 1_555
C20A C21A 1_555 1_555

#END
