
#######################################################################
#
#                 Cambridge Crystallographic Data Centre
#                                CCDC 
#
#######################################################################
#
# If this CIF has been generated from an entry in the Cambridge 
# Structural Database, then it will include bibliographic, chemical, 
# crystal, experimental, refinement or atomic coordinate data resulting 
# from the CCDC's data processing and validation procedures.
#
#######################################################################

data_WEBHUG
_symmetry_cell_setting           monoclinic
_symmetry_space_group_name_H-M   'P 21'
_symmetry_Int_Tables_number      4
_space_group_name_Hall           'P 2yb'
loop_
_symmetry_equiv_pos_site_id
_symmetry_equiv_pos_as_xyz
1 x,y,z
2 -x,1/2+y,-z
_cell_length_a                   10.666(2)
_cell_length_b                   16.270(3)
_cell_length_c                   12.002(3)
_cell_angle_alpha                90
_cell_angle_beta                 114.81(2)
_cell_angle_gamma                90
_cell_volume                     1890.55
loop_
_atom_site_label
_atom_site_type_symbol
_atom_site_fract_x
_atom_site_fract_y
_atom_site_fract_z
Sm1 Sm -0.00318(6) -0.12259(4) -0.06526(5)
Zn1 Zn -0.09206(13) 0.07577(8) 0.00166(11)
Se1 Se 0.14902(12) 0.02494(7) 0.11668(10)
Se2 Se -0.12092(11) 0.06214(7) -0.21291(10)
Se3 Se -0.24639(12) -0.04156(7) -0.01420(10)
Se4 Se 0.14746(12) -0.29268(7) -0.06585(10)
O1 O -0.2103(9) -0.1843(5) -0.2353(7)
O2 O 0.1295(7) -0.0991(5) -0.1920(7)
O3 O 0.0939(9) -0.1864(5) 0.1461(7)
C1 C 0.2603(11) 0.0806(7) 0.0467(11)
C2 C 0.4018(12) 0.0615(8) 0.0967(12)
H1 H 0.4400 0.0220 0.1605
C3 C 0.4860(13) 0.1027(8) 0.0494(13)
H2 H 0.5819 0.0905 0.0828
C4 C 0.4349(14) 0.1583(10) -0.0407(14)
H3 H 0.4930 0.1849 -0.0716
C5 C 0.2968(14) 0.1758(9) -0.0872(13)
H4 H 0.2591 0.2153 -0.1510
C6 C 0.2111(12) 0.1373(8) -0.0435(12)
H5 H 0.1157 0.1509 -0.0776
C7 C -0.3145(11) 0.0744(7) -0.3215(10)
C8 C -0.4132(13) 0.0980(7) -0.2807(12)
H6 H -0.3870 0.1084 -0.1960
C9 C -0.5491(13) 0.1064(9) -0.3631(12)
H7 H -0.6161 0.1237 -0.3353
C10 C -0.5888(14) 0.0896(10) -0.4872(12)
H8 H -0.6833 0.0923 -0.5436
C11 C -0.4905(14) 0.0694(10) -0.5259(12)
H9 H -0.5157 0.0617 -0.6111
C12 C -0.3548(13) 0.0599(8) -0.4441(10)
H10 H -0.2883 0.0430 -0.4729
C13 C -0.2599(15) -0.0641(8) 0.1354(13)
C14 C -0.1751(18) -0.0262(9) 0.2458(12)
H11 H -0.1087 0.0132 0.2471
C15 C -0.187(2) -0.0451(12) 0.3529(16)
H12 H -0.1260 -0.0216 0.4290
C16 C -0.290(2) -0.0999(12) 0.3458(19)
H13 H -0.3018 -0.1108 0.4184
C17 C -0.370(2) -0.1366(11) 0.2460(17)
H14 H -0.4352 -0.1760 0.2466
C18 C -0.3586(15) -0.1172(10) 0.1344(13)
H15 H -0.4203 -0.1415 0.0594
C19 C 0.1084(11) -0.3084(7) -0.2374(9)
C20 C 0.2171(12) -0.3032(7) -0.2725(11)
H16 H 0.3085 -0.2927 -0.2132
C21 C 0.1903(13) -0.3137(8) -0.3946(12)
H17 H 0.2638 -0.3098 -0.4193
C22 C 0.0585(14) -0.3296(9) -0.4810(12)
H18 H 0.0401 -0.3369 -0.5650
C23 C -0.0445(15) -0.3347(10) -0.4430(13)
H19 H -0.1357 -0.3451 -0.5026
C24 C -0.0236(13) -0.3256(8) -0.3236(11)
H20 H -0.0980 -0.3309 -0.3002
C25 C -0.2951(17) -0.1547(11) -0.3523(14)
H21 H -0.2982 -0.1930 -0.4175
H22 H -0.2652 -0.0997 -0.3671
C26 C -0.433(2) -0.1509(14) -0.343(2)
H23 H -0.4424 -0.0984 -0.3055
H24 H -0.5106 -0.1559 -0.4252
C27 C -0.432(2) -0.2199(14) -0.266(2)
H25 H -0.4726 -0.2044 -0.2087
H26 H -0.4837 -0.2670 -0.3164
C28 C -0.2873(17) -0.2403(10) -0.1997(18)
H27 H -0.2600 -0.2364 -0.1102
H28 H -0.2702 -0.2971 -0.2192
C29 C 0.2773(13) -0.0958(8) -0.1360(12)
H29 H 0.3168 -0.1516 -0.1300
H30 H 0.3111 -0.0721 -0.0526
C30 C 0.3177(16) -0.0422(12) -0.2175(15)
H31 H 0.3203 0.0164 -0.1946
H32 H 0.4090 -0.0582 -0.2136
C31 C 0.2119(17) -0.0571(13) -0.3349(15)
H33 H 0.2413 -0.1004 -0.3769
H34 H 0.1924 -0.0064 -0.3850
C32 C 0.0832(14) -0.0845(9) -0.3213(12)
H35 H 0.0116 -0.0411 -0.3497
H36 H 0.0449 -0.1353 -0.3688
C33 C 0.2422(15) -0.1928(10) 0.2123(13)
H37 H 0.2888 -0.1543 0.1780
H38 H 0.2731 -0.2494 0.2063
C34 C 0.276(2) -0.1716(12) 0.3435(15)
H39 H 0.3209 -0.2187 0.3980
H40 H 0.3390 -0.1237 0.3702
C35 C 0.1432(19) -0.1521(10) 0.3470(13)
H41 H 0.1270 -0.0921 0.3423
H42 H 0.1399 -0.1735 0.4229
C36 C 0.0390(17) -0.1947(9) 0.2359(11)
H43 H 0.0298 -0.2533 0.2533
H44 H -0.0526 -0.1679 0.2077
Se4A Se -0.14746(12) 0.20732(7) 0.06585(10)
Zn1A Zn 0.09206(13) -0.42423(8) -0.00166(11)
loop_
_geom_bond_atom_site_label_1
_geom_bond_atom_site_label_2
_geom_bond_site_symmetry_1
_geom_bond_site_symmetry_2
Sm1 Se1 1_555 1_555
Zn1 Se1 1_555 1_555
Se1 C1 1_555 1_555
Se2 Sm1 1_555 1_555
Se3 Sm1 1_555 1_555
Se4 Sm1 1_555 1_555
O1 Sm1 1_555 1_555
O2 Sm1 1_555 1_555
O3 Sm1 1_555 1_555
C1 C2 1_555 1_555
C2 H1 1_555 1_555
C3 C2 1_555 1_555
H2 C3 1_555 1_555
C4 C3 1_555 1_555
H3 C4 1_555 1_555
C5 C4 1_555 1_555
H4 C5 1_555 1_555
C6 C1 1_555 1_555
H5 C6 1_555 1_555
C7 Se2 1_555 1_555
C8 C7 1_555 1_555
H6 C8 1_555 1_555
C9 C8 1_555 1_555
H7 C9 1_555 1_555
C10 C9 1_555 1_555
H8 C10 1_555 1_555
C11 C10 1_555 1_555
H9 C11 1_555 1_555
C12 C7 1_555 1_555
H10 C12 1_555 1_555
C13 Se3 1_555 1_555
C14 C13 1_555 1_555
H11 C14 1_555 1_555
C15 C14 1_555 1_555
H12 C15 1_555 1_555
C16 C15 1_555 1_555
H13 C16 1_555 1_555
C17 C16 1_555 1_555
H14 C17 1_555 1_555
C18 C13 1_555 1_555
H15 C18 1_555 1_555
C19 Se4 1_555 1_555
C20 C19 1_555 1_555
H16 C20 1_555 1_555
C21 C20 1_555 1_555
H17 C21 1_555 1_555
C22 C21 1_555 1_555
H18 C22 1_555 1_555
C23 C22 1_555 1_555
H19 C23 1_555 1_555
C24 C19 1_555 1_555
H20 C24 1_555 1_555
C25 O1 1_555 1_555
H21 C25 1_555 1_555
H22 C25 1_555 1_555
C26 C25 1_555 1_555
H23 C26 1_555 1_555
H24 C26 1_555 1_555
C27 C26 1_555 1_555
H25 C27 1_555 1_555
H26 C27 1_555 1_555
C28 O1 1_555 1_555
H27 C28 1_555 1_555
H28 C28 1_555 1_555
C29 O2 1_555 1_555
H29 C29 1_555 1_555
H30 C29 1_555 1_555
C30 C29 1_555 1_555
H31 C30 1_555 1_555
H32 C30 1_555 1_555
C31 C30 1_555 1_555
H33 C31 1_555 1_555
H34 C31 1_555 1_555
C32 O2 1_555 1_555
H35 C32 1_555 1_555
H36 C32 1_555 1_555
C33 O3 1_555 1_555
H37 C33 1_555 1_555
H38 C33 1_555 1_555
C34 C33 1_555 1_555
H39 C34 1_555 1_555
H40 C34 1_555 1_555
C35 C34 1_555 1_555
H41 C35 1_555 1_555
H42 C35 1_555 1_555
C36 O3 1_555 1_555
H43 C36 1_555 1_555
H44 C36 1_555 1_555
Se4A Zn1 1_555 1_555
Zn1A Se4 1_555 1_555
Zn1 Se2 1_555 1_555
Zn1 Se3 1_555 1_555
C5 C6 1_555 1_555
C11 C12 1_555 1_555
C17 C18 1_555 1_555
C23 C24 1_555 1_555
C27 C28 1_555 1_555
C31 C32 1_555 1_555
C35 C36 1_555 1_555

#END
