
#######################################################################
#
#                 Cambridge Crystallographic Data Centre
#                                CCDC 
#
#######################################################################
#
# If this CIF has been generated from an entry in the Cambridge 
# Structural Database, then it will include bibliographic, chemical, 
# crystal, experimental, refinement or atomic coordinate data resulting 
# from the CCDC's data processing and validation procedures.
#
#######################################################################

data_WEBLAQ
_symmetry_cell_setting           monoclinic
_symmetry_space_group_name_H-M   'P 21/n'
_symmetry_Int_Tables_number      14
_space_group_name_Hall           '-P 2yn'
loop_
_symmetry_equiv_pos_site_id
_symmetry_equiv_pos_as_xyz
1 x,y,z
2 1/2+x,1/2-y,1/2+z
3 -x,-y,-z
4 1/2-x,1/2+y,1/2-z
_cell_length_a                   19.0382(3)
_cell_length_b                   23.8341(4)
_cell_length_c                   21.7556(3)
_cell_angle_alpha                90.00
_cell_angle_beta                 97.58
_cell_angle_gamma                90.00
_cell_volume                     9785.52
loop_
_atom_site_label
_atom_site_type_symbol
_atom_site_fract_x
_atom_site_fract_y
_atom_site_fract_z
Cl1 Cl -0.0471(3) 0.2235(3) 0.9693(3)
O23 O 0.0005(11) 0.2396(11) 0.9470(11)
O24 O -0.0967(12) 0.2321(12) 0.9308(11)
O25 O -0.0464(17) 0.1760(9) 0.9757(16)
O26 O -0.0551(15) 0.2462(13) 1.0124(11)
C67 C -0.571(2) 0.5364(16) 0.5399(19)
C68 C -0.622(3) 0.558(2) 0.574(3)
C69 C -0.535(2) 0.564(3) 0.481(2)
C70 C -0.527(2) 0.4760(19) 0.545(2)
C70B C -0.473(2) 0.5240(19) 0.455(2)
C69B C -0.465(2) 0.436(3) 0.519(2)
Cd1 Cd 0.21270(3) 0.24277(3) 0.75575(3)
Cd2 Cd -0.23042(3) 0.38309(3) 0.66589(3)
Cd3 Cd -0.32921(3) 0.38240(2) 0.84007(3)
Cd4 Cd 0.26972(3) 0.36378(3) 0.66560(3)
Cd5 Cd -0.28762(3) 0.51004(3) 0.74663(3)
Cd6 Cd 0.17088(3) 0.37649(2) 0.83928(3)
O1 O -0.3601(3) 0.4317(2) 0.7445(3)
O2 O 0.3029(3) 0.3086(2) 0.7602(3)
O3 O 0.1789(4) 0.4538(3) 0.7806(3)
O4 O 0.1609(3) 0.3005(3) 0.9005(3)
O5 O -0.1975(3) 0.4438(2) 0.7555(3)
O6 O 0.1403(3) 0.3221(2) 0.7476(3)
O7 O 0.2891(3) 0.3610(3) 0.8426(3)
O8 O -0.2356(4) 0.3086(3) 0.7276(3)
O9 O 0.2604(4) 0.4456(3) 0.7154(3)
O10 O -0.3358(3) 0.4620(3) 0.8950(3)
O11 O 0.2818(4) 0.2814(3) 0.6180(3)
O12 O 0.2316(4) 0.2410(3) 0.8596(3)
O13 O -0.3504(3) 0.3885(3) 0.6552(3)
O14 O -0.2161(3) 0.4584(3) 0.6082(3)
O15 O 0.1502(3) 0.3593(3) 0.6553(3)
O16 O -0.2099(3) 0.3982(3) 0.8432(3)
O17 O -0.3201(3) 0.3004(3) 0.7904(3)
O18 O -0.2915(4) 0.5194(3) 0.6422(3)
O19 O 0.1983(4) 0.2286(3) 0.6534(3)
O20 O -0.2654(4) 0.5196(3) 0.8489(3)
O21 O -0.3993(4) 0.5573(3) 0.7440(4)
O22 O -0.4123(15) 0.5858(14) 0.6472(10)
C1 C 0.0362(5) 0.3500(4) 0.6846(4)
C2 C -0.4634(5) 0.3986(4) 0.6849(4)
C3 C -0.0640(5) 0.3712(4) 0.8586(4)
H1 H -0.0922 0.3478 0.8794
C4 C 0.2015(5) 0.2601(4) 0.9034(4)
C5 C 0.0219(5) 0.4395(4) 0.8038(4)
H2 H 0.0516 0.4641 0.7862
C6 C -0.0074(5) 0.3154(4) 0.7139(4)
H3 H 0.0117 0.2867 0.7399
C7 C -0.4946(5) 0.3552(4) 0.6491(4)
H4 H -0.4670 0.3313 0.6283
C8 C -0.0948(5) 0.4130(4) 0.8189(4)
C9 C 0.0067(5) 0.3654(4) 0.8665(4)
H5 H 0.0261 0.3368 0.8925
C10 C 0.0046(5) 0.3925(4) 0.6448(5)
H6 H 0.0319 0.4156 0.6230
C11 C -0.3860(5) 0.4065(4) 0.6960(4)
C12 C -0.0672(5) 0.3984(4) 0.6395(4)
H7 H -0.0882 0.4272 0.6147
C13 C 0.1157(5) 0.3434(4) 0.6961(4)
C14 C -0.2757(5) 0.2815(4) 0.7585(4)
C15 C -0.5077(5) 0.4357(4) 0.7111(4)
H8 H -0.4892 0.4663 0.7343
C16 C -0.1736(4) 0.4183(3) 0.8053(4)
C17 C 0.2255(5) 0.5357(4) 0.7423(4)
C18 C -0.2536(5) 0.5012(4) 0.6030(4)
C19 C 0.2180(5) 0.2297(4) 0.9635(4)
C20 C 0.2210(5) 0.4731(4) 0.7461(4)
C21 C -0.2902(5) 0.4999(4) 0.8954(4)
C22 C 0.3261(5) 0.3366(3) 0.8079(4)
C23 C -0.5669(5) 0.3476(4) 0.6444(4)
H9 H -0.5866 0.3168 0.6222
C24 C -0.5795(5) 0.4256(4) 0.7018(4)
H10 H -0.6087 0.4509 0.7188
C25 C -0.2966(6) 0.1837(4) 0.7968(5)
H11 H -0.3201 0.1993 0.8275
C26 C -0.0787(5) 0.3237(4) 0.7040(5)
H12 H -0.1076 0.2996 0.7231
C27 C -0.0514(5) 0.4482(4) 0.7915(4)
H13 H -0.0699 0.4771 0.7654
C28 C -0.2605(5) 0.5246(4) 0.9571(4)
C29 C -0.2706(5) 0.2177(4) 0.7544(4)
C30 C 0.1805(5) 0.2401(4) 1.0125(4)
H14 H 0.1452 0.2673 1.0092
C31 C -0.2533(5) 0.5348(4) 0.5440(4)
C32 C 0.2228(5) 0.2143(4) 0.5514(4)
C33 C 0.2557(6) 0.5608(4) 0.6953(5)
H15 H 0.2724 0.5393 0.6646
C34 C -0.2316(7) 0.1365(4) 0.7085(5)
H16 H -0.2103 0.1203 0.6767
C35 C 0.2718(6) 0.1896(5) 0.9728(5)
H17 H 0.2988 0.1814 0.9413
C36 C 0.2362(6) 0.2437(4) 0.6127(4)
C37 C -0.2879(7) 0.1269(4) 0.7941(6)
H18 H -0.3057 0.1045 0.8235
C38 C -0.2375(7) 0.1931(4) 0.7097(5)
H19 H -0.2191 0.2149 0.6802
C39 C -0.2117(6) 0.5189(5) 0.5001(5)
H20 H -0.1821 0.4879 0.5072
C40 C -0.2048(7) 0.5630(5) 0.9615(5)
H21 H -0.1845 0.5729 0.9264
C41 C -0.2898(5) 0.5115(4) 1.0096(4)
H22 H -0.3274 0.4864 1.0084
C42 C -0.2135(6) 0.5487(5) 0.4451(5)
H23 H -0.1847 0.5374 0.4161
C43 C -0.2958(6) 0.5816(4) 0.5317(5)
H24 H -0.3245 0.5938 0.5605
C44 C -0.2953(6) 0.6098(5) 0.4767(5)
H25 H -0.3235 0.6416 0.4694
C45 C -0.1804(6) 0.5860(5) 1.0174(5)
H26 H -0.1430 0.6112 1.0196
C46 C -0.2606(6) 0.5377(4) 1.0658(5)
H27 H -0.2795 0.5288 1.1019
C47 C 0.1960(6) 0.2096(5) 1.0663(5)
H28 H 0.1694 0.2162 1.0985
C48 C 0.2845(6) 0.1624(5) 1.0282(5)
H29 H 0.3212 0.1364 1.0336
C49 C 0.2004(6) 0.5703(4) 0.7848(5)
H30 H 0.1779 0.5550 0.8162
C50 C 0.2607(7) 0.6186(4) 0.6947(5)
H31 H 0.2806 0.6352 0.6624
C51 C 0.2083(6) 0.6267(4) 0.7812(5)
H32 H 0.1913 0.6490 0.8111
C52 C 0.1723(6) 0.1720(5) 0.5405(5)
H33 H 0.1463 0.1609 0.5716
C53 C 0.1613(6) 0.1466(5) 0.4825(5)
H34 H 0.1277 0.1182 0.4757
C54 C 0.2479(6) 0.2005(5) 0.4481(5)
H35 H 0.2753 0.2094 0.4170
C55 C 0.2612(6) 0.2280(5) 0.5040(5)
H36 H 0.2959 0.2557 0.5098
C56 C 0.4354(5) 0.3878(4) 0.8579(4)
H37 H 0.4070 0.4121 0.8772
C57 C 0.5223(5) 0.3163(4) 0.8068(5)
H38 H 0.5523 0.2910 0.7906
C58 C 0.5065(5) 0.3957(4) 0.8643(4)
H39 H 0.5256 0.4266 0.8868
C59 C 0.4047(5) 0.3432(4) 0.8224(4)
C60 C 0.4511(5) 0.3069(4) 0.7966(4)
H40 H 0.4333 0.2766 0.7725
C61 C -0.4269(8) 0.5899(8) 0.7038(7)
C62 C -0.4871(7) 0.6269(5) 0.7182(6)
C63 C -0.5093(11) 0.6668(9) 0.6799(10)
H41 H -0.4872 0.6729 0.6448
C64 C -0.5683(9) 0.7020(7) 0.6914(8)
H42 H -0.5826 0.7311 0.6642
C65 C -0.5799(9) 0.6531(7) 0.7770(8)
H43 H -0.6035 0.6453 0.8108
C66 C -0.5169(9) 0.6170(7) 0.7690(8)
H44 H -0.5000 0.5897 0.7977
N1 N 0.0517(4) 0.3983(3) 0.8392(3)
N2 N -0.1090(4) 0.3650(3) 0.6683(3)
N3 N -0.2452(5) 0.6022(3) 0.7493(4)
N4 N 0.2558(4) 0.4064(3) 0.5671(4)
N5 N 0.2080(5) 0.4262(4) 0.9305(4)
N6 N 0.3898(4) 0.3823(3) 0.6700(3)
N7 N 0.2474(4) 0.1711(4) 1.0748(4)
N8 N 0.2608(5) 0.1516(3) 0.7631(4)
N9 N 0.1969(4) 0.1612(4) 0.4363(4)
N10 N 0.5510(4) 0.3605(3) 0.8392(3)
N11 N 0.1037(4) 0.1932(3) 0.7581(4)
N7A N -0.2526(4) 0.3289(4) 0.5748(4)
N9A N -0.3031(4) 0.3388(4) 0.9363(4)
N10_2 N -0.4490(4) 0.3605(3) 0.8392(3)
N6_2 N -0.6102(4) 0.3823(3) 0.6700(3)
N3C N -0.2548(5) 0.1022(3) 0.7507(4)
N4B N -0.2558(4) 0.5936(3) 0.4329(4)
N5B N -0.2080(5) 0.5738(4) 1.0695(4)
N8C N 0.2392(5) 0.6516(3) 0.7369(4)
N11C N -0.6037(4) 0.6932(3) 0.7419(4)
C34C C -0.2684(7) 0.6365(4) 0.7915(5)
C37C C -0.2121(7) 0.6269(4) 0.7059(6)
C42B C 0.2135(6) 0.4513(5) 0.5549(5)
C44B C 0.2953(6) 0.3902(5) 0.5233(5)
C45B C 0.1804(6) 0.4140(5) 0.9826(5)
C46B C 0.2606(6) 0.4623(4) 0.9342(5)
C23_2 C 0.4331(5) 0.3476(4) 0.6444(4)
C24_2 C 0.4205(5) 0.4256(4) 0.7018(4)
Cd2A Cd 0.26958(3) 0.11691(3) 1.16589(3)
C50C C 0.2393(7) 0.1186(4) 0.8053(5)
C51C C 0.2917(6) 0.1267(4) 0.7188(5)
Cd3A Cd 0.17079(3) 0.11760(2) 0.34007(3)
Cd3_2 Cd 0.67079(3) 0.38240(2) 0.84007(3)
C64C C 0.0683(9) 0.2020(7) 0.8086(8)
C65C C 0.0799(9) 0.1531(7) 0.7230(8)
Cl2? Cl 0.0226(7) 0.0419(5) 0.5549(6)
O27? O 0.0165(18) 0.0069(15) 0.5104(15)
O28? O -0.0307(16) 0.0375(15) 0.5836(15)
O29? O 0.0784(18) 0.0304(18) 0.5915(17)
O30? O 0.028(2) 0.0908(14) 0.5345(19)
O31? O 0.0189(12) 0.5218(9) 0.5221(9)
loop_
_geom_bond_atom_site_label_1
_geom_bond_atom_site_label_2
_geom_bond_site_symmetry_1
_geom_bond_site_symmetry_2
Cd1 O2 1_555 1_555
Cd2 O5 1_555 1_555
Cd3 O1 1_555 1_555
Cd4 O2 1_555 1_555
Cd5 O1 1_555 1_555
Cd6 O3 1_555 1_555
O1 C11 1_555 1_555
O2 C22 1_555 1_555
O3 C20 1_555 1_555
O4 Cd6 1_555 1_555
O5 Cd5 1_555 1_555
O6 Cd1 1_555 1_555
O7 Cd6 1_555 1_555
O8 Cd2 1_555 1_555
O9 Cd4 1_555 1_555
O10 Cd3 1_555 1_555
O11 Cd4 1_555 1_555
O12 Cd1 1_555 1_555
O13 Cd2 1_555 1_555
O14 Cd2 1_555 1_555
O15 Cd4 1_555 1_555
O16 Cd3 1_555 1_555
O17 Cd3 1_555 1_555
O18 Cd5 1_555 1_555
O19 Cd1 1_555 1_555
O20 Cd5 1_555 1_555
O21 Cd5 1_555 1_555
O22 C61 1_555 1_555
C1 C6 1_555 1_555
C2 C7 1_555 1_555
C3 H1 1_555 1_555
C4 O4 1_555 1_555
C5 H2 1_555 1_555
C6 H3 1_555 1_555
C7 H4 1_555 1_555
C8 C3 1_555 1_555
C9 C3 1_555 1_555
H5 C9 1_555 1_555
C10 C1 1_555 1_555
H6 C10 1_555 1_555
C11 O13 1_555 1_555
C12 C10 1_555 1_555
H7 C12 1_555 1_555
C13 O6 1_555 1_555
C14 O8 1_555 1_555
C15 C2 1_555 1_555
H8 C15 1_555 1_555
C16 O5 1_555 1_555
C17 C20 1_555 1_555
C18 O14 1_555 1_555
C19 C4 1_555 1_555
C20 O9 1_555 1_555
C21 O10 1_555 1_555
C22 O7 1_555 1_555
C23 C7 1_555 1_555
H9 C23 1_555 1_555
C24 C15 1_555 1_555
H10 C24 1_555 1_555
C25 H11 1_555 1_555
C26 C6 1_555 1_555
H12 C26 1_555 1_555
C27 C5 1_555 1_555
H13 C27 1_555 1_555
C28 C21 1_555 1_555
C29 C14 1_555 1_555
C30 C19 1_555 1_555
H14 C30 1_555 1_555
C31 C18 1_555 1_555
C32 C36 1_555 1_555
C33 C17 1_555 1_555
H15 C33 1_555 1_555
C34 H16 1_555 1_555
C35 C19 1_555 1_555
H17 C35 1_555 1_555
C36 O11 1_555 1_555
C37 C25 1_555 1_555
H18 C37 1_555 1_555
C38 C29 1_555 1_555
H19 C38 1_555 1_555
C39 C31 1_555 1_555
H20 C39 1_555 1_555
C40 C28 1_555 1_555
H21 C40 1_555 1_555
C41 C28 1_555 1_555
H22 C41 1_555 1_555
C42 C39 1_555 1_555
H23 C42 1_555 1_555
C43 C31 1_555 1_555
H24 C43 1_555 1_555
C44 C43 1_555 1_555
H25 C44 1_555 1_555
C45 C40 1_555 1_555
H26 C45 1_555 1_555
C46 C41 1_555 1_555
H27 C46 1_555 1_555
C47 C30 1_555 1_555
H28 C47 1_555 1_555
C48 C35 1_555 1_555
H29 C48 1_555 1_555
C49 C17 1_555 1_555
H30 C49 1_555 1_555
C50 C33 1_555 1_555
H31 C50 1_555 1_555
C51 C49 1_555 1_555
H32 C51 1_555 1_555
C52 C32 1_555 1_555
H33 C52 1_555 1_555
C53 C52 1_555 1_555
H34 C53 1_555 1_555
C54 H35 1_555 1_555
C55 C32 1_555 1_555
H36 C55 1_555 1_555
C56 H37 1_555 1_555
C57 H38 1_555 1_555
C58 C56 1_555 1_555
H39 C58 1_555 1_555
C59 C22 1_555 1_555
C60 C57 1_555 1_555
H40 C60 1_555 1_555
C61 O21 1_555 1_555
C62 C61 1_555 1_555
C63 C62 1_555 1_555
H41 C63 1_555 1_555
C64 C63 1_555 1_555
H42 C64 1_555 1_555
C65 H43 1_555 1_555
C66 C62 1_555 1_555
H44 C66 1_555 1_555
N1 Cd6 1_555 1_555
N2 Cd2 1_555 1_555
N3 Cd5 1_555 1_555
N4 Cd4 1_555 1_555
N5 Cd6 1_555 1_555
N6 Cd4 1_555 1_555
N7 C47 1_555 1_555
N8 Cd1 1_555 1_555
N9 C53 1_555 1_555
N10 C57 1_555 1_555
N11 Cd1 1_555 1_555
Cl1 O23 1_555 1_555
O24 Cl1 1_555 1_555
O25 Cl1 1_555 1_555
O26 Cl1 1_555 1_555
C67 C68 1_555 1_555
C69 C67 1_555 1_555
C70 C67 1_555 1_555
N7A Cd2 1_555 1_555
N9A Cd3 1_555 1_555
N10_2 Cd3 1_555 1_555
N6_2 C23 1_555 1_555
N3C C34 1_555 1_555
N4B C42 1_555 1_555
N5B C45 1_555 1_555
N8C C50 1_555 1_555
N11C C64 1_555 1_555
C34C N3 1_555 1_555
C37C N3 1_555 1_555
C42B N4 1_555 1_555
C44B N4 1_555 1_555
C45B N5 1_555 1_555
C46B N5 1_555 1_555
C23_2 N6 1_555 1_555
C24_2 N6 1_555 1_555
Cd2A N7 1_555 1_555
C50C N8 1_555 1_555
C51C N8 1_555 1_555
Cd3A N9 1_555 1_555
Cd3_2 N10 1_555 1_555
C64C N11 1_555 1_555
C65C N11 1_555 1_555
C70B C69 1_555 1_555
C69B C70 1_555 1_555
Cd6 O6 1_555 1_555
O12 C4 1_555 1_555
O15 C13 1_555 1_555
O16 C16 1_555 1_555
O17 C14 1_555 1_555
O18 C18 1_555 1_555
O19 C36 1_555 1_555
O20 C21 1_555 1_555
C1 C13 1_555 1_555
C2 C11 1_555 1_555
C5 N1 1_555 1_555
C8 C16 1_555 1_555
C8 C27 1_555 1_555
C9 N1 1_555 1_555
C12 N2 1_555 1_555
C24 N6_2 1_555 1_555
C25 C29 1_555 1_555
C26 N2 1_555 1_555
C34 C38 1_555 1_555
C37 N3C 1_555 1_555
C44 N4B 1_555 1_555
C46 N5B 1_555 1_555
C48 N7 1_555 1_555
C51 N8C 1_555 1_555
C54 C55 1_555 1_555
C54 N9 1_555 1_555
C56 C59 1_555 1_555
C58 N10 1_555 1_555
C59 C60 1_555 1_555
C65 C66 1_555 1_555
C65 N11C 1_555 1_555

#END
