
#######################################################################
#
#                 Cambridge Crystallographic Data Centre
#                                CCDC 
#
#######################################################################
#
# If this CIF has been generated from an entry in the Cambridge 
# Structural Database, then it will include bibliographic, chemical, 
# crystal, experimental, refinement or atomic coordinate data resulting 
# from the CCDC's data processing and validation procedures.
#
#######################################################################

data_WEBVAC
_symmetry_cell_setting           monoclinic
_symmetry_space_group_name_H-M   'C 2/c'
_symmetry_Int_Tables_number      15
_space_group_name_Hall           '-C 2yn'
loop_
_symmetry_equiv_pos_site_id
_symmetry_equiv_pos_as_xyz
1 x,y,z
2 -x,y,1/2-z
3 1/2+x,1/2+y,z
4 1/2-x,1/2+y,1/2-z
5 -x,-y,-z
6 x,-y,1/2+z
7 1/2-x,1/2-y,-z
8 1/2+x,1/2-y,1/2+z
_cell_length_a                   23.3599(13)
_cell_length_b                   7.2198(4)
_cell_length_c                   19.7793(11)
_cell_angle_alpha                90
_cell_angle_beta                 106.034(2)
_cell_angle_gamma                90
_cell_volume                     3206.08
loop_
_atom_site_label
_atom_site_type_symbol
_atom_site_fract_x
_atom_site_fract_y
_atom_site_fract_z
O11 O 0.48305(18) 0.8074(6) 0.2720(2)
O11A O 0.51695(18) 0.8074(6) 0.2280(2)
Ce1 Ce 0.294854(5) 0.137543(17) 0.278313(7)
O1 O 0.3682(2) 0.2914(6) 0.2234(2)
H1 H 0.3672(9) 0.4172(13) 0.2098(11)
H2 H 0.3639(9) 0.216(2) 0.1823(9)
P1 P 0.17144(3) 0.27929(9) 0.34413(3)
P2 P 0.17405(3) 0.86522(8) 0.65155(3)
P3 P -0.05672(3) 0.62873(9) 0.41140(4)
O2 O 0.22351(8) 0.1532(2) 0.34751(9)
O3 O 0.11192(8) 0.1653(3) 0.31094(11)
H3 H 0.0856 0.2368 0.2871
O4 O 0.17004(9) 0.4550(2) 0.30360(10)
O5 O 0.20989(7) 0.6911(2) 0.67843(9)
O6 O 0.20115(7) 1.0236(2) 0.70071(9)
O7 O 0.10712(7) 0.8438(2) 0.64841(10)
H4 H 0.0933 0.7487 0.6252
O8 O -0.04673(7) 0.7108(2) 0.48694(10)
H5 H -0.0162 0.6631 0.5142
O9 O -0.12044(8) 0.6672(2) 0.37134(11)
O10 O -0.04043(8) 0.4243(3) 0.41374(11)
C1 C 0.16999(11) 0.3299(3) 0.43282(14)
H6 H 0.1482 0.2291 0.4490
H7 H 0.2114 0.3286 0.4634
C2 C 0.14186(11) 0.5120(3) 0.44323(13)
C3 C 0.08480(11) 0.5580(4) 0.40203(13)
H8 H 0.0646 0.4765 0.3655
C4 C 0.05700(11) 0.7209(4) 0.41342(13)
C5 C 0.08790(11) 0.8423(3) 0.46579(13)
H9 H 0.0696 0.9548 0.4737
C6 C 0.14538(11) 0.8002(3) 0.50672(13)
C7 C 0.17142(10) 0.6341(3) 0.49527(13)
H10 H 0.2102 0.6038 0.5237
C8 C 0.17786(11) 0.9283(4) 0.56490(13)
H11 H 0.1613 1.0545 0.5542
H12 H 0.2203 0.9331 0.5651
C9 C -0.00731(11) 0.7554(4) 0.37254(14)
H13 H -0.0137 0.7159 0.3231
H14 H -0.0162 0.8895 0.3727
Ce1C Ce 0.205146(5) -0.362457(17) 0.221687(7)
Ce1C_2 Ce 0.205146(5) 0.637543(17) 0.221687(7)
Ce1E Ce 0.294854(5) 0.862457(17) 0.778313(7)
Ce1F Ce 0.205146(5) 0.362457(17) 0.721687(7)
Ce1F_2 Ce 0.205146(5) 1.362457(17) 0.721687(7)
Ce1B Ce -0.205146(5) 0.637543(17) 0.278313(7)
Ce1F_3 Ce 0.205146(5) 0.362457(17) -0.278313(7)
Ce1E_2 Ce 0.294854(5) -0.137543(17) -0.221687(7)
Ce1E_3 Ce 0.294854(5) 0.862457(17) -0.221687(7)
Ce1A Ce 0.705146(5) 0.137543(17) 0.221687(7)
O1C O 0.1318(2) -0.2086(6) 0.2766(2)
H1C H 0.1328(9) -0.0828(13) 0.2902(11)
H2C H 0.1361(9) -0.284(2) 0.3177(9)
P1C P 0.32856(3) -0.22071(9) 0.15587(3)
P2C P 0.32595(3) 0.36522(8) -0.15155(3)
P3C P 0.55672(3) 0.12873(9) 0.08860(4)
O2C O 0.27649(8) -0.3468(2) 0.15249(9)
O3C O 0.38808(8) -0.3347(3) 0.18906(11)
H3C H 0.4144 -0.2632 0.2129
O4C O 0.32996(9) -0.0450(2) 0.19640(10)
O4_2 O 0.17004(9) -0.5450(2) 0.30360(10)
O5C O 0.29011(7) 0.1911(2) -0.17843(9)
O5E O 0.20989(7) 0.3089(2) 0.17843(9)
O5F O 0.29011(7) -0.1911(2) 0.32157(9)
O5E_2 O 0.20989(7) -0.6911(2) 0.17843(9)
O6C O 0.29885(7) 0.5236(2) -0.20071(9)
O6E O 0.20115(7) -0.0236(2) 0.20071(9)
O6F O 0.29885(7) 0.4764(2) 0.29929(9)
O6F_2 O 0.29885(7) -0.5236(2) 0.29929(9)
O7C O 0.39288(7) 0.3438(2) -0.14841(10)
H4C H 0.4067 0.2487 -0.1252
O8C O 0.54673(7) 0.2108(2) 0.01306(10)
H5C H 0.5162 0.1631 -0.0142
O9C O 0.62044(8) 0.1672(2) 0.12866(11)
O9B O 0.37956(8) 0.1672(2) 0.37134(11)
O9A O 0.12044(8) -0.3328(2) 0.12866(11)
O10C O 0.54043(8) -0.0757(3) 0.08626(11)
C1C C 0.33001(11) -0.1701(3) 0.06718(14)
H6C H 0.3518 -0.2709 0.0510
H7C H 0.2886 -0.1714 0.0366
C2C C 0.35814(11) 0.0120(3) 0.05677(13)
C3C C 0.41520(11) 0.0580(4) 0.09797(13)
H8C H 0.4354 -0.0235 0.1345
C4C C 0.44300(11) 0.2209(4) 0.08658(13)
C5C C 0.41210(11) 0.3423(3) 0.03421(13)
H9C H 0.4304 0.4548 0.0263
C6C C 0.35462(11) 0.3002(3) -0.00672(13)
C7C C 0.32858(10) 0.1341(3) 0.00473(13)
H10C H 0.2898 0.1038 -0.0237
C8C C 0.32214(11) 0.4283(4) -0.06490(13)
H11C H 0.3387 0.5545 -0.0542
H12C H 0.2797 0.4331 -0.0651
C9C C 0.50731(11) 0.2554(4) 0.12746(14)
H13C H 0.5137 0.2159 0.1769
H14C H 0.5162 0.3895 0.1273
O12? O 0.1588(2) 0.8186(6) 0.3109(3)
loop_
_geom_bond_atom_site_label_1
_geom_bond_atom_site_label_2
_geom_bond_site_symmetry_1
_geom_bond_site_symmetry_2
Ce1 O1 1_555 1_555
O1 H1 1_555 1_555
H2 O1 1_555 1_555
P1 O2 1_555 1_555
P2 O5 1_555 1_555
P3 O8 1_555 1_555
O2 Ce1 1_555 1_555
O3 P1 1_555 1_555
H3 O3 1_555 1_555
O4 P1 1_555 1_555
O5 Ce1E 1_555 1_555
O6 P2 1_555 1_555
O7 P2 1_555 1_555
H4 O7 1_555 1_555
O8 H5 1_555 1_555
O9 P3 1_555 1_555
O10 P3 1_555 1_555
C1 P1 1_555 1_555
H6 C1 1_555 1_555
H7 C1 1_555 1_555
C2 C1 1_555 1_555
C3 C2 1_555 1_555
H8 C3 1_555 1_555
C4 C3 1_555 1_555
C5 C4 1_555 1_555
H9 C5 1_555 1_555
C6 C5 1_555 1_555
C7 C2 1_555 1_555
H10 C7 1_555 1_555
C8 P2 1_555 1_555
H11 C8 1_555 1_555
H12 C8 1_555 1_555
C9 P3 1_555 1_555
H13 C9 1_555 1_555
H14 C9 1_555 1_555
O11 O11A 1_555 1_555
Ce1C O1C 1_555 1_555
Ce1C_2 O4 1_555 1_555
Ce1E O6 1_555 1_555
Ce1F O5 1_555 1_555
Ce1F_2 O6 1_555 1_555
Ce1B O9 1_555 1_555
Ce1F_3 O5C 1_555 1_555
Ce1E_2 O5C 1_555 1_555
Ce1E_3 O6C 1_555 1_555
Ce1A O9C 1_555 1_555
O1C H1C 1_555 1_555
H2C O1C 1_555 1_555
P1C O2C 1_555 1_555
P2C O5C 1_555 1_555
P3C O8C 1_555 1_555
O2C Ce1C 1_555 1_555
O3C P1C 1_555 1_555
H3C O3C 1_555 1_555
O4C Ce1 1_555 1_555
O4_2 Ce1C 1_555 1_555
O5E Ce1 1_555 1_555
O5F Ce1 1_555 1_555
O5E_2 Ce1C 1_555 1_555
O6C Ce1F_3 1_555 1_555
O6E Ce1 1_555 1_555
O6F Ce1 1_555 1_555
O6F_2 Ce1C 1_555 1_555
O7C P2C 1_555 1_555
H4C O7C 1_555 1_555
O8C H5C 1_555 1_555
O9C P3C 1_555 1_555
O9B Ce1 1_555 1_555
O9A Ce1C 1_555 1_555
O10C P3C 1_555 1_555
C1C P1C 1_555 1_555
H6C C1C 1_555 1_555
H7C C1C 1_555 1_555
C2C C1C 1_555 1_555
C3C C2C 1_555 1_555
H8C C3C 1_555 1_555
C4C C3C 1_555 1_555
C5C C4C 1_555 1_555
H9C C5C 1_555 1_555
C6C C5C 1_555 1_555
C7C C2C 1_555 1_555
H10C C7C 1_555 1_555
C8C P2C 1_555 1_555
H11C C8C 1_555 1_555
H12C C8C 1_555 1_555
C9C P3C 1_555 1_555
H13C C9C 1_555 1_555
H14C C9C 1_555 1_555
C4 C9 1_555 1_555
C6 C7 1_555 1_555
C6 C8 1_555 1_555
Ce1C O5F 1_555 1_555
Ce1C O6E 1_555 1_555
Ce1C_2 O5E 1_555 1_555
Ce1C_2 O6F 1_555 1_555
P1C O4C 1_555 1_555
P2C O6C 1_555 1_555
C4C C9C 1_555 1_555
C6C C7C 1_555 1_555
C6C C8C 1_555 1_555

#END
