
#######################################################################
#
#                 Cambridge Crystallographic Data Centre
#                                CCDC 
#
#######################################################################
#
# If this CIF has been generated from an entry in the Cambridge 
# Structural Database, then it will include bibliographic, chemical, 
# crystal, experimental, refinement or atomic coordinate data resulting 
# from the CCDC's data processing and validation procedures.
#
#######################################################################

data_WECHUJ
_symmetry_cell_setting           monoclinic
_symmetry_space_group_name_H-M   'P 21/n'
_symmetry_Int_Tables_number      14
_space_group_name_Hall           '-P 2yn'
loop_
_symmetry_equiv_pos_site_id
_symmetry_equiv_pos_as_xyz
1 x,y,z
2 1/2-x,1/2+y,1/2-z
3 -x,-y,-z
4 1/2+x,1/2-y,1/2+z
_cell_length_a                   7.503(3)
_cell_length_b                   18.281(6)
_cell_length_c                   19.375(6)
_cell_angle_alpha                90
_cell_angle_beta                 100.470(15)
_cell_angle_gamma                90
_cell_volume                     2613.27
loop_
_atom_site_label
_atom_site_type_symbol
_atom_site_fract_x
_atom_site_fract_y
_atom_site_fract_z
C1 C 0.0675(12) 0.0509(5) 0.8842(5)
C2 C 0.0782(12) 0.0918(5) 0.8197(5)
C3 C 0.1681(12) 0.0781(5) 0.7683(5)
H1 H 0.2429 0.0361 0.7687
C4 C 0.1467(12) 0.1296(5) 0.7125(5)
C5 C 0.0344(12) 0.1871(5) 0.7283(5)
C6 C -0.0090(12) 0.2554(5) 0.6878(4)
C7 C 0.1109(12) 0.3099(5) 0.6794(5)
C8 C 0.0196(13) 0.3676(5) 0.6385(5)
H2 H 0.0811 0.4103 0.6276
C9 C -0.1595(12) 0.3581(5) 0.6162(5)
C10 C -0.2934(14) 0.4058(5) 0.5709(5)
C11 C 0.2239(12) 0.1231(5) 0.6472(5)
H3 H 0.3574 0.1196 0.6601
H4 H 0.1951 0.1682 0.6191
C12 C 0.1540(13) 0.0576(5) 0.6020(5)
H5 H 0.1907 0.0122 0.6287
H6 H 0.2111 0.0572 0.5598
C13 C -0.0525(13) 0.0578(5) 0.5789(6)
H7 H -0.1081 0.0630 0.6212
H8 H -0.0898 0.0097 0.5577
C14 C -0.1300(13) 0.1177(6) 0.5265(6)
H9 H -0.0898 0.1660 0.5465
H10 H -0.0806 0.1113 0.4829
C15 C -0.3360(15) 0.1167(7) 0.5085(6)
H11 H -0.3860 0.1204 0.5523
H12 H -0.3766 0.0696 0.4857
C16 C -0.4102(16) 0.1795(7) 0.4594(6)
H13 H -0.5428 0.1771 0.4491
H14 H -0.3629 0.1755 0.4157
H15 H -0.3722 0.2263 0.4822
C17 C 0.3100(12) 0.3111(5) 0.7098(5)
H16 H 0.3604 0.2615 0.7064
H17 H 0.3719 0.3446 0.6817
C18 C 0.3491(12) 0.3351(5) 0.7849(5)
H18 H 0.3026 0.2977 0.8140
H19 H 0.2832 0.3812 0.7895
C19 C 0.5514(13) 0.3471(6) 0.8132(5)
H20 H 0.5705 0.3530 0.8648
H21 H 0.6199 0.3034 0.8028
C20 C 0.6245(12) 0.4145(5) 0.7809(5)
H22 H 0.6024 0.4085 0.7292
H23 H 0.5550 0.4578 0.7915
C21 C 0.8224(12) 0.4292(5) 0.8057(6)
H24 H 0.8932 0.3867 0.7941
H25 H 0.8460 0.4348 0.8574
C22 C 0.8870(13) 0.4985(5) 0.7724(5)
H26 H 1.0168 0.5057 0.7899
H27 H 0.8197 0.5410 0.7848
H28 H 0.8657 0.4930 0.7212
C23 C -0.3122(14) 0.1981(5) 0.9944(5)
H29 H -0.2540 0.2033 1.0437
H30 H -0.4176 0.2306 0.9845
H31 H -0.2256 0.2112 0.9642
C24 C -0.4656(13) 0.1139(5) 0.9066(5)
H32 H -0.5074 0.0634 0.8980
H33 H -0.3816 0.1263 0.8751
H34 H -0.5699 0.1471 0.8979
O1 O -0.0495(8) 0.0718(3) 0.9193(3)
O2 O 0.1775(8) -0.0022(3) 0.9002(3)
O3 O -0.4557(8) 0.3892(3) 0.5634(3)
O4 O -0.2206(8) 0.4585(3) 0.5437(3)
S1 S -0.0410(3) 0.17335(12) 0.80479(13)
S2 S -0.2270(3) 0.27446(13) 0.64695(13)
Zn1 Zn -0.15888(14) 0.04970(6) 1.00612(6)
N1 N -0.3715(12) 0.1215(4) 0.9806(5)
H35 H -0.443(10) 0.107(5) 1.006(4)
C1B C -0.0675(12) -0.0509(5) 1.1158(5)
C2B C -0.0782(12) -0.0918(5) 1.1803(5)
C3B C -0.1681(12) -0.0781(5) 1.2317(5)
H1B H -0.2429 -0.0361 1.2313
C4B C -0.1467(12) -0.1296(5) 1.2875(5)
C5B C -0.0344(12) -0.1871(5) 1.2717(5)
C6B C 0.0090(12) -0.2554(5) 1.3122(4)
C7B C -0.1109(12) -0.3099(5) 1.3206(5)
C8B C -0.0196(13) -0.3676(5) 1.3615(5)
H2B H -0.0811 -0.4103 1.3724
C9B C 0.1595(12) -0.3581(5) 1.3838(5)
C10B C 0.2934(14) -0.4058(5) 1.4291(5)
C11B C -0.2239(12) -0.1231(5) 1.3528(5)
H3B H -0.3574 -0.1196 1.3399
H4B H -0.1951 -0.1682 1.3809
C12B C -0.1540(13) -0.0576(5) 1.3980(5)
H5B H -0.1907 -0.0122 1.3713
H6B H -0.2111 -0.0572 1.4402
C13B C 0.0525(13) -0.0578(5) 1.4211(6)
H7B H 0.1081 -0.0630 1.3788
H8B H 0.0898 -0.0097 1.4423
C14B C 0.1300(13) -0.1177(6) 1.4735(6)
H9B H 0.0898 -0.1660 1.4535
H10B H 0.0806 -0.1113 1.5171
C15B C 0.3360(15) -0.1167(7) 1.4915(6)
H11B H 0.3860 -0.1204 1.4477
H12B H 0.3766 -0.0696 1.5143
C16B C 0.4102(16) -0.1795(7) 1.5406(6)
H13B H 0.5428 -0.1771 1.5509
H14B H 0.3629 -0.1755 1.5843
H15B H 0.3722 -0.2263 1.5178
C17B C -0.3100(12) -0.3111(5) 1.2902(5)
H16B H -0.3604 -0.2615 1.2936
H17B H -0.3719 -0.3446 1.3183
C18B C -0.3491(12) -0.3351(5) 1.2151(5)
H18B H -0.3026 -0.2977 1.1860
H19B H -0.2832 -0.3812 1.2105
C19B C -0.5514(13) -0.3471(6) 1.1868(5)
H20B H -0.5705 -0.3530 1.1352
H21B H -0.6199 -0.3034 1.1972
C20B C -0.6245(12) -0.4145(5) 1.2191(5)
H22B H -0.6024 -0.4085 1.2708
H23B H -0.5550 -0.4578 1.2085
C21B C -0.8224(12) -0.4292(5) 1.1943(6)
H24B H -0.8932 -0.3867 1.2059
H25B H -0.8460 -0.4348 1.1426
C22B C -0.8870(13) -0.4985(5) 1.2276(5)
H26B H -1.0168 -0.5057 1.2101
H27B H -0.8197 -0.5410 1.2152
H28B H -0.8657 -0.4930 1.2788
C23B C 0.3122(14) -0.1981(5) 1.0056(5)
H29B H 0.2540 -0.2033 0.9563
H30B H 0.4176 -0.2306 1.0155
H31B H 0.2256 -0.2112 1.0358
C24B C 0.4656(13) -0.1139(5) 1.0934(5)
H32B H 0.5074 -0.0634 1.1020
H33B H 0.3816 -0.1263 1.1249
H34B H 0.5699 -0.1471 1.1021
O1B O 0.0495(8) -0.0718(3) 1.0807(3)
O2B O -0.1775(8) 0.0022(3) 1.0998(3)
O3B O 0.4557(8) -0.3892(3) 1.4366(3)
O3A O -0.0443(8) -0.1108(3) 0.9366(3)
O3C O 0.0443(8) 0.1108(3) 1.0634(3)
O4B O 0.2206(8) -0.4585(3) 1.4563(3)
O4A O -0.2794(8) -0.0415(3) 0.9563(3)
O4C O 0.2794(8) 0.0415(3) 1.0437(3)
S1B S 0.0410(3) -0.17335(12) 1.19521(13)
S2B S 0.2270(3) -0.27446(13) 1.35305(13)
Zn1B Zn 0.15888(14) -0.04970(6) 0.99388(6)
Zn1A Zn -0.34112(14) 0.54970(6) 0.49388(6)
Zn1A_2 Zn 0.65888(14) -0.45030(6) 1.49388(6)
Zn1C Zn -0.65888(14) 0.45030(6) 0.50612(6)
Zn1C_2 Zn 0.34112(14) -0.54970(6) 1.50612(6)
N1B N 0.3715(12) -0.1215(4) 1.0194(5)
H35B H 0.443(10) -0.107(5) 0.994(4)
loop_
_geom_bond_atom_site_label_1
_geom_bond_atom_site_label_2
_geom_bond_site_symmetry_1
_geom_bond_site_symmetry_2
C1 C2 1_555 1_555
C2 C3 1_555 1_555
C3 H1 1_555 1_555
C4 C3 1_555 1_555
C5 C4 1_555 1_555
C6 C5 1_555 1_555
C7 C6 1_555 1_555
C8 C7 1_555 1_555
H2 C8 1_555 1_555
C9 C8 1_555 1_555
C10 C9 1_555 1_555
C11 C4 1_555 1_555
H3 C11 1_555 1_555
H4 C11 1_555 1_555
C12 C11 1_555 1_555
H5 C12 1_555 1_555
H6 C12 1_555 1_555
C13 C12 1_555 1_555
H7 C13 1_555 1_555
H8 C13 1_555 1_555
C14 C13 1_555 1_555
H9 C14 1_555 1_555
H10 C14 1_555 1_555
C15 C14 1_555 1_555
H11 C15 1_555 1_555
H12 C15 1_555 1_555
C16 C15 1_555 1_555
H13 C16 1_555 1_555
H14 C16 1_555 1_555
H15 C16 1_555 1_555
C17 C7 1_555 1_555
H16 C17 1_555 1_555
H17 C17 1_555 1_555
C18 C17 1_555 1_555
H18 C18 1_555 1_555
H19 C18 1_555 1_555
C19 C18 1_555 1_555
H20 C19 1_555 1_555
H21 C19 1_555 1_555
C20 C19 1_555 1_555
H22 C20 1_555 1_555
H23 C20 1_555 1_555
C21 C20 1_555 1_555
H24 C21 1_555 1_555
H25 C21 1_555 1_555
C22 C21 1_555 1_555
H26 C22 1_555 1_555
H27 C22 1_555 1_555
H28 C22 1_555 1_555
C23 H29 1_555 1_555
H30 C23 1_555 1_555
H31 C23 1_555 1_555
C24 H32 1_555 1_555
H33 C24 1_555 1_555
H34 C24 1_555 1_555
O1 C1 1_555 1_555
O2 C1 1_555 1_555
O3 C10 1_555 1_555
O4 C10 1_555 1_555
S1 C2 1_555 1_555
S2 C6 1_555 1_555
Zn1 O1 1_555 1_555
N1 C23 1_555 1_555
H35 N1 1_555 1_555
C1B C2B 1_555 1_555
C2B C3B 1_555 1_555
C3B H1B 1_555 1_555
C4B C3B 1_555 1_555
C5B C4B 1_555 1_555
C6B C5B 1_555 1_555
C7B C6B 1_555 1_555
C8B C7B 1_555 1_555
H2B C8B 1_555 1_555
C9B C8B 1_555 1_555
C10B C9B 1_555 1_555
C11B C4B 1_555 1_555
H3B C11B 1_555 1_555
H4B C11B 1_555 1_555
C12B C11B 1_555 1_555
H5B C12B 1_555 1_555
H6B C12B 1_555 1_555
C13B C12B 1_555 1_555
H7B C13B 1_555 1_555
H8B C13B 1_555 1_555
C14B C13B 1_555 1_555
H9B C14B 1_555 1_555
H10B C14B 1_555 1_555
C15B C14B 1_555 1_555
H11B C15B 1_555 1_555
H12B C15B 1_555 1_555
C16B C15B 1_555 1_555
H13B C16B 1_555 1_555
H14B C16B 1_555 1_555
H15B C16B 1_555 1_555
C17B C7B 1_555 1_555
H16B C17B 1_555 1_555
H17B C17B 1_555 1_555
C18B C17B 1_555 1_555
H18B C18B 1_555 1_555
H19B C18B 1_555 1_555
C19B C18B 1_555 1_555
H20B C19B 1_555 1_555
H21B C19B 1_555 1_555
C20B C19B 1_555 1_555
H22B C20B 1_555 1_555
H23B C20B 1_555 1_555
C21B C20B 1_555 1_555
H24B C21B 1_555 1_555
H25B C21B 1_555 1_555
C22B C21B 1_555 1_555
H26B C22B 1_555 1_555
H27B C22B 1_555 1_555
H28B C22B 1_555 1_555
C23B H29B 1_555 1_555
H30B C23B 1_555 1_555
H31B C23B 1_555 1_555
C24B H32B 1_555 1_555
H33B C24B 1_555 1_555
H34B C24B 1_555 1_555
O1B C1B 1_555 1_555
O2B Zn1 1_555 1_555
O3B C10B 1_555 1_555
O3A Zn1B 1_555 1_555
O3C Zn1 1_555 1_555
O4B C10B 1_555 1_555
O4A Zn1 1_555 1_555
O4C Zn1B 1_555 1_555
S1B C2B 1_555 1_555
S2B C6B 1_555 1_555
Zn1B O2 1_555 1_555
Zn1A O4 1_555 1_555
Zn1A_2 O3B 1_555 1_555
Zn1C O3 1_555 1_555
Zn1C_2 O4B 1_555 1_555
N1B C23B 1_555 1_555
H35B N1B 1_555 1_555
C5 S1 1_555 1_555
C9 S2 1_555 1_555
C24 N1 1_555 1_555
Zn1 N1 1_555 1_555
C1B O2B 1_555 1_555
C5B S1B 1_555 1_555
C9B S2B 1_555 1_555
C24B N1B 1_555 1_555
O1B Zn1B 1_555 1_555
Zn1B N1B 1_555 1_555

#END
