
#######################################################################
#
#                 Cambridge Crystallographic Data Centre
#                                CCDC 
#
#######################################################################
#
# If this CIF has been generated from an entry in the Cambridge 
# Structural Database, then it will include bibliographic, chemical, 
# crystal, experimental, refinement or atomic coordinate data resulting 
# from the CCDC's data processing and validation procedures.
#
#######################################################################

data_WECHOD
_symmetry_cell_setting           monoclinic
_symmetry_space_group_name_H-M   'P 21/n'
_symmetry_Int_Tables_number      14
_space_group_name_Hall           '-P 2yn'
loop_
_symmetry_equiv_pos_site_id
_symmetry_equiv_pos_as_xyz
1 x,y,z
2 1/2-x,1/2+y,1/2-z
3 -x,-y,-z
4 1/2+x,1/2-y,1/2+z
_cell_length_a                   16.3642(6)
_cell_length_b                   17.0748(6)
_cell_length_c                   20.6230(7)
_cell_angle_alpha                90
_cell_angle_beta                 90.226(2)
_cell_angle_gamma                90
_cell_volume                     5762.34
loop_
_atom_site_label
_atom_site_type_symbol
_atom_site_fract_x
_atom_site_fract_y
_atom_site_fract_z
C1 C 0.67614(16) 0.07425(16) 0.58698(13)
C2 C 0.64726(16) 0.11542(15) 0.64618(13)
C3 C 0.60309(17) 0.08603(17) 0.69645(14)
H1 H 0.5850 0.0344 0.6982
C4 C 0.58722(17) 0.14199(17) 0.74623(14)
C5 C 0.62089(17) 0.21417(17) 0.73148(14)
C6 C 0.62085(17) 0.28647(17) 0.77020(14)
C7 C 0.58583(18) 0.35818(17) 0.75613(14)
C8 C 0.60259(17) 0.41419(16) 0.80531(14)
H2 H 0.5837 0.4655 0.8038
C9 C 0.64909(17) 0.38549(16) 0.85492(13)
C10 C 0.68134(17) 0.42743(16) 0.91272(13)
C11 C 0.53877(19) 0.12355(19) 0.80453(15)
C12 C 0.5490(3) 0.0528(2) 0.83652(18)
H3 H 0.5881 0.0174 0.8223
C13 C 0.5005(3) 0.0346(3) 0.8902(2)
H4 H 0.5073 -0.0129 0.9116
C14 C 0.4424(3) 0.0876(3) 0.9113(2)
H5 H 0.4100 0.0754 0.9469
C15 C 0.4320(2) 0.1579(3) 0.8801(2)
H6 H 0.3929 0.1932 0.8946
C16 C 0.4798(2) 0.1765(2) 0.82714(18)
H7 H 0.4727 0.2243 0.8063
C17 C 0.5354(2) 0.37648(19) 0.69848(16)
C18 C 0.5412(2) 0.4493(2) 0.66900(17)
H8 H 0.5785 0.4858 0.6847
C19 C 0.4923(3) 0.4682(2) 0.6166(2)
H9 H 0.4968 0.5174 0.5975
C20 C 0.4369(3) 0.4147(3) 0.5924(2)
H10 H 0.4043 0.4275 0.5569
C21 C 0.4302(3) 0.3424(2) 0.62098(19)
H11 H 0.3928 0.3062 0.6049
C22 C 0.4785(2) 0.3233(2) 0.67333(18)
H12 H 0.4733 0.2742 0.6923
C23 C 0.82310(18) -0.07885(16) 0.40960(13)
C24 C 0.86762(18) -0.12364(16) 0.35917(14)
C25 C 0.94086(17) -0.10683(17) 0.33155(14)
H13 H 0.9726 -0.0640 0.3436
C26 C 0.96430(17) -0.16079(17) 0.28259(14)
C27 C 0.90703(18) -0.21957(17) 0.27557(14)
C28 C 1.04059(19) -0.15242(17) 0.24416(14)
C29 C 1.11157(19) -0.12478(19) 0.27346(16)
H14 H 1.1120 -0.1139 0.3176
C30 C 1.1819(2) -0.1133(2) 0.23731(18)
H15 H 1.2289 -0.0939 0.2571
C31 C 1.1819(2) -0.1308(2) 0.17201(19)
H16 H 1.2291 -0.1236 0.1478
C32 C 1.1119(2) -0.1589(2) 0.14239(17)
H17 H 1.1123 -0.1708 0.0984
C33 C 1.0413(2) -0.16935(19) 0.17799(16)
H18 H 0.9941 -0.1877 0.1578
C34 C 0.82867(17) -0.42518(16) 0.09377(13)
C35 C 0.87101(17) -0.38176(16) 0.14602(13)
C36 C 0.94436(18) -0.39800(17) 0.17473(14)
H19 H 0.9769 -0.4401 0.1626
C37 C 0.96665(18) -0.34465(17) 0.22497(14)
C38 C 0.90757(17) -0.28733(17) 0.23241(14)
C39 C 1.04205(18) -0.35203(17) 0.26389(15)
C40 C 1.11541(19) -0.37472(19) 0.23509(17)
H20 H 1.1173 -0.3831 0.1906
C41 C 1.1857(2) -0.3850(2) 0.27239(19)
H21 H 1.2341 -0.4009 0.2528
C42 C 1.1838(2) -0.3715(2) 0.3385(2)
H22 H 1.2308 -0.3784 0.3633
C43 C 1.1121(2) -0.3479(2) 0.36762(18)
H23 H 1.1109 -0.3383 0.4120
C44 C 1.0423(2) -0.3386(2) 0.33076(16)
H24 H 0.9942 -0.3231 0.3509
C45 C 0.5381(2) -0.1478(2) 0.5426(2)
H25 H 0.5698 -0.1522 0.5817
H26 H 0.5031 -0.1926 0.5384
H27 H 0.5055 -0.1011 0.5443
C46 C 0.5468(2) -0.1372(2) 0.42606(19)
H28 H 0.5840 -0.1348 0.3902
H29 H 0.5142 -0.0905 0.4270
H30 H 0.5119 -0.1820 0.4213
C47 C 0.9487(3) 0.1345(2) 0.4262(2)
H31 H 0.9138 0.1264 0.3892
H32 H 0.9839 0.0900 0.4316
H33 H 0.9811 0.1806 0.4196
C48 C 0.9488(3) 0.1569(3) 0.5418(2)
H34 H 0.9139 0.1632 0.5787
H35 H 0.9812 0.2033 0.5362
H36 H 0.9840 0.1127 0.5484
O1 O 0.74977(12) -0.09693(12) 0.41881(10)
O2 O 0.86358(12) -0.02670(12) 0.43855(10)
O3 O 0.64866(13) 0.00684(12) 0.57622(10)
O4 O 0.72760(13) 0.11093(12) 0.55278(10)
O5 O 0.86934(12) -0.47613(12) 0.06401(10)
O6 O 0.75496(12) -0.40702(12) 0.08343(10)
O7 O 0.65405(13) 0.49537(11) 0.92313(9)
O8 O 0.73357(13) 0.39132(12) 0.94603(10)
S1 S 0.67437(4) 0.28891(4) 0.84221(3)
S2 S 0.67196(5) 0.21202(4) 0.65869(3)
S3 S 0.82646(4) -0.30035(4) 0.17971(4)
S4 S 0.82510(4) -0.20685(4) 0.32696(4)
Zn1 Zn 0.678963(19) -0.058875(18) 0.495615(14)
Zn2 Zn 0.814390(19) 0.058729(18) 0.495281(14)
N1 N 0.59316(15) -0.14380(15) 0.48651(12)
N2 N 0.89890(16) 0.14418(15) 0.48393(13)
H37 H 0.878(2) 0.183(2) 0.4813(18)
H38 H 0.621(3) -0.188(3) 0.486(2)
O5A O 0.63066(12) 0.02387(12) 0.43599(10)
O6A O 0.74504(12) 0.09298(12) 0.41657(10)
O7A O 0.84595(13) -0.00463(11) 0.57687(9)
O8A O 0.76643(13) -0.10868(12) 0.55397(10)
Zn1A Zn 0.821037(19) -0.558875(18) 0.004385(14)
Zn1A_2 Zn 0.821037(19) 0.441125(18) 1.004385(14)
Zn2A Zn 0.685610(19) -0.441271(18) 0.004719(14)
Zn2A_2 Zn 0.685610(19) 0.558729(18) 1.004719(14)
C49 C 0.7281(3) 0.2903(2) 0.49108(19)
H39 H 0.7085 0.2523 0.5193
C50 C 0.5922(3) 0.3467(4) 0.4925(3)
H40 H 0.5858 0.3107 0.5279
H41 H 0.5549 0.3331 0.4583
H42 H 0.5809 0.3989 0.5071
C51 C 0.6942(3) 0.3937(3) 0.4117(3)
H43 H 0.7482 0.3814 0.3968
H44 H 0.6921 0.4478 0.4244
H45 H 0.6555 0.3845 0.3775
O9 O 0.8005(2) 0.28725(18) 0.47802(18)
N3 N 0.6736(2) 0.3426(2) 0.4691(2)
C52 C 0.7529(2) -0.2849(2) 0.49449(17)
H46 H 0.7719 -0.2346 0.4862
C53 C 0.8941(3) -0.3242(3) 0.4934(3)
H47 H 0.9149 -0.3547 0.4580
H48 H 0.9227 -0.3378 0.5325
H49 H 0.9018 -0.2695 0.4844
C54 C 0.7849(3) -0.4210(2) 0.5127(2)
H50 H 0.7275 -0.4237 0.5218
H51 H 0.8152 -0.4411 0.5490
H52 H 0.7968 -0.4517 0.4749
O10 O 0.67813(16) -0.29350(15) 0.49807(13)
N4 N 0.80801(19) -0.3400(2) 0.50126(17)
C55 C 0.8290(8) -0.4522(6) 0.3181(4)
H53 H 0.8836 -0.4663 0.3234
C56 C 0.8206(7) -0.5564(7) 0.2382(5)
H54 H 0.7802 -0.5779 0.2094
H55 H 0.8390 -0.5962 0.2677
H56 H 0.8661 -0.5375 0.2135
C57 C 0.6988(9) -0.4775(15) 0.2630(10)
H57 H 0.6778 -0.5127 0.2306
H58 H 0.6920 -0.4245 0.2485
H59 H 0.6695 -0.4850 0.3028
O11 O 0.8042(9) -0.3973(7) 0.3529(7)
N5 N 0.7860(7) -0.4935(8) 0.2738(5)
C58? C 0.7785(7) -0.4164(7) 0.3262(5)
C59? C 0.6823(11) -0.4582(11) 0.2449(9)
C60? C 0.8061(10) -0.5348(6) 0.2622(7)
H60? H 0.7428 -0.3754 0.3348
H61? H 0.6763 -0.5009 0.2150
H62? H 0.6846 -0.4098 0.2214
H63? H 0.6365 -0.4574 0.2738
H64? H 0.7787 -0.5649 0.2293
H65? H 0.8158 -0.5673 0.2995
H66? H 0.8572 -0.5161 0.2458
N6? N 0.7547(9) -0.4680(8) 0.2808(7)
O12? O 0.8431(6) -0.4178(9) 0.3580(7)
loop_
_geom_bond_atom_site_label_1
_geom_bond_atom_site_label_2
_geom_bond_site_symmetry_1
_geom_bond_site_symmetry_2
C1 C2 1_555 1_555
C2 C3 1_555 1_555
C3 H1 1_555 1_555
C4 C3 1_555 1_555
C5 C4 1_555 1_555
C6 C5 1_555 1_555
C7 C6 1_555 1_555
C8 C7 1_555 1_555
H2 C8 1_555 1_555
C9 C8 1_555 1_555
C10 C9 1_555 1_555
C11 C4 1_555 1_555
C12 C11 1_555 1_555
H3 C12 1_555 1_555
C13 C12 1_555 1_555
H4 C13 1_555 1_555
C14 C13 1_555 1_555
H5 C14 1_555 1_555
C15 C14 1_555 1_555
H6 C15 1_555 1_555
C16 C11 1_555 1_555
H7 C16 1_555 1_555
C17 C7 1_555 1_555
C18 C17 1_555 1_555
H8 C18 1_555 1_555
C19 C18 1_555 1_555
H9 C19 1_555 1_555
C20 C19 1_555 1_555
H10 C20 1_555 1_555
C21 C20 1_555 1_555
H11 C21 1_555 1_555
C22 C17 1_555 1_555
H12 C22 1_555 1_555
C23 C24 1_555 1_555
C24 C25 1_555 1_555
C25 H13 1_555 1_555
C26 C25 1_555 1_555
C27 C26 1_555 1_555
C28 C26 1_555 1_555
C29 C28 1_555 1_555
H14 C29 1_555 1_555
C30 C29 1_555 1_555
H15 C30 1_555 1_555
C31 C30 1_555 1_555
H16 C31 1_555 1_555
C32 C31 1_555 1_555
H17 C32 1_555 1_555
C33 C28 1_555 1_555
H18 C33 1_555 1_555
C34 C35 1_555 1_555
C35 C36 1_555 1_555
C36 H19 1_555 1_555
C37 C36 1_555 1_555
C38 C27 1_555 1_555
C39 C37 1_555 1_555
C40 C39 1_555 1_555
H20 C40 1_555 1_555
C41 C40 1_555 1_555
H21 C41 1_555 1_555
C42 C41 1_555 1_555
H22 C42 1_555 1_555
C43 C42 1_555 1_555
H23 C43 1_555 1_555
C44 C39 1_555 1_555
H24 C44 1_555 1_555
C45 H25 1_555 1_555
H26 C45 1_555 1_555
H27 C45 1_555 1_555
C46 H28 1_555 1_555
H29 C46 1_555 1_555
H30 C46 1_555 1_555
C47 H31 1_555 1_555
H32 C47 1_555 1_555
H33 C47 1_555 1_555
C48 H34 1_555 1_555
H35 C48 1_555 1_555
H36 C48 1_555 1_555
O1 C23 1_555 1_555
O2 C23 1_555 1_555
O3 C1 1_555 1_555
O4 C1 1_555 1_555
O5 C34 1_555 1_555
O6 C34 1_555 1_555
O7 C10 1_555 1_555
O8 C10 1_555 1_555
S1 C6 1_555 1_555
S2 C2 1_555 1_555
S3 C35 1_555 1_555
S4 C24 1_555 1_555
Zn1 O1 1_555 1_555
Zn2 O2 1_555 1_555
N1 C45 1_555 1_555
N2 C47 1_555 1_555
H37 N2 1_555 1_555
H38 N1 1_555 1_555
C49 H39 1_555 1_555
C50 H40 1_555 1_555
H41 C50 1_555 1_555
H42 C50 1_555 1_555
C51 H43 1_555 1_555
H44 C51 1_555 1_555
H45 C51 1_555 1_555
O9 C49 1_555 1_555
N3 C49 1_555 1_555
C52 H46 1_555 1_555
C53 H47 1_555 1_555
H48 C53 1_555 1_555
H49 C53 1_555 1_555
C54 H50 1_555 1_555
H51 C54 1_555 1_555
H52 C54 1_555 1_555
O10 C52 1_555 1_555
N4 C52 1_555 1_555
C55 H53 1_555 1_555
C56 H54 1_555 1_555
H55 C56 1_555 1_555
H56 C56 1_555 1_555
C57 H57 1_555 1_555
H58 C57 1_555 1_555
H59 C57 1_555 1_555
O11 C55 1_555 1_555
N5 C55 1_555 1_555
O5A Zn1 1_555 1_555
O6A Zn2 1_555 1_555
O7A Zn2 1_555 1_555
O8A Zn1 1_555 1_555
Zn1A O5 1_555 1_555
Zn1A_2 O8 1_555 1_555
Zn2A O6 1_555 1_555
Zn2A_2 O7 1_555 1_555
C5 S2 1_555 1_555
C9 S1 1_555 1_555
C15 C16 1_555 1_555
C21 C22 1_555 1_555
C27 S4 1_555 1_555
C32 C33 1_555 1_555
C37 C38 1_555 1_555
C38 S3 1_555 1_555
C43 C44 1_555 1_555
C46 N1 1_555 1_555
C48 N2 1_555 1_555
O3 Zn1 1_555 1_555
O4 Zn2 1_555 1_555
Zn1 N1 1_555 1_555
Zn2 N2 1_555 1_555
C50 N3 1_555 1_555
C51 N3 1_555 1_555
C53 N4 1_555 1_555
C54 N4 1_555 1_555
C56 N5 1_555 1_555
C57 N5 1_555 1_555

#END
