
#######################################################################
#
#                 Cambridge Crystallographic Data Centre
#                                CCDC 
#
#######################################################################
#
# If this CIF has been generated from an entry in the Cambridge 
# Structural Database, then it will include bibliographic, chemical, 
# crystal, experimental, refinement or atomic coordinate data resulting 
# from the CCDC's data processing and validation procedures.
#
#######################################################################

data_WECJEV
_symmetry_cell_setting           triclinic
_symmetry_space_group_name_H-M   'P -1'
_symmetry_Int_Tables_number      2
_space_group_name_Hall           '-P 1'
loop_
_symmetry_equiv_pos_site_id
_symmetry_equiv_pos_as_xyz
1 x,y,z
2 -x,-y,-z
_cell_length_a                   8.6855(15)
_cell_length_b                   12.7109(18)
_cell_length_c                   18.183(3)
_cell_angle_alpha                91.810(8)
_cell_angle_beta                 102.910(9)
_cell_angle_gamma                106.455(8)
_cell_volume                     1866.84
loop_
_atom_site_label
_atom_site_type_symbol
_atom_site_fract_x
_atom_site_fract_y
_atom_site_fract_z
C1 C 0.0841(8) 0.9600(4) 0.2576(3)
C2 C 0.1894(7) 1.0486(4) 0.2235(3)
C3 C 0.1517(7) 1.0849(4) 0.1535(3)
H1 H 0.0516 1.0513 0.1164
C4 C 0.2787(7) 1.1787(4) 0.1417(3)
C5 C 0.4090(7) 1.2106(4) 0.2037(3)
C6 C 0.5553(6) 1.3098(4) 0.2175(3)
C7 C 0.6780(7) 1.3418(4) 0.1792(3)
C8 C 0.7807(7) 1.4503(4) 0.2069(3)
H2 H 0.8701 1.4877 0.1862
C9 C 0.7404(7) 1.4963(4) 0.2657(3)
C10 C 0.8224(7) 1.6047(4) 0.3115(3)
C11 C 0.2617(7) 1.2350(4) 0.0717(3)
C12 C 0.2990(7) 1.3499(5) 0.0749(3)
H3 H 0.3354 1.3929 0.1227
C13 C 0.2830(8) 1.4013(5) 0.0088(4)
H4 H 0.3102 1.4794 0.0114
C14 C 0.2278(8) 1.3397(5) -0.0610(4)
H5 H 0.2154 1.3753 -0.1062
C15 C 0.1909(7) 1.2266(5) -0.0650(3)
H6 H 0.1554 1.1843 -0.1130
C16 C 0.2050(7) 1.1742(5) 0.0006(3)
H7 H 0.1758 1.0960 -0.0028
C17 C 0.7051(7) 1.2733(4) 0.1185(3)
C18 C 0.7951(7) 1.3231(5) 0.0673(3)
H8 H 0.8314 1.4012 0.0691
C19 C 0.8319(8) 1.2603(5) 0.0142(3)
H9 H 0.8935 1.2955 -0.0199
C20 C 0.7799(8) 1.1465(5) 0.0103(3)
H10 H 0.8047 1.1035 -0.0265
C21 C 0.6910(7) 1.0956(5) 0.0608(3)
H11 H 0.6545 1.0175 0.0585
C22 C 0.6553(7) 1.1585(4) 0.1145(3)
H12 H 0.5958 1.1228 0.1492
C23 C 0.3224(7) 0.7445(4) 0.3837(3)
H13 H 0.3357 0.7889 0.3432
C24 C 0.1844(8) 0.6820(5) 0.4736(3)
H14 H 0.0979 0.6802 0.4980
C25 C 0.4287(7) 0.6824(4) 0.4041(3)
H15 H 0.5139 0.6856 0.3786
C26 C 0.2879(8) 0.6172(5) 0.4983(3)
H16 H 0.2743 0.5746 0.5397
C27 C 0.4112(7) 0.6162(5) 0.4612(3)
C28 C 0.5134(8) 0.5409(4) 0.4783(3)
H17 H 0.6057 0.5520 0.4564
C29 C -0.4383(7) 0.9815(4) 0.5177(3)
H18 H -0.4244 0.9767 0.5707
C30 C -0.3229(7) 0.9477(4) 0.4818(3)
C31 C -0.3101(7) 0.9692(4) 0.4088(3)
H19 H -0.3744 1.0104 0.3807
C32 C -0.2217(7) 0.8900(4) 0.5203(3)
H20 H -0.2232 0.8759 0.5711
C33 C -0.2041(7) 0.9307(4) 0.3770(3)
H21 H -0.1969 0.9466 0.3270
C34 C -0.1190(7) 0.8532(4) 0.4852(3)
H22 H -0.0517 0.8133 0.5127
N1 N 0.2003(6) 0.7459(3) 0.4180(2)
N2 N -0.1102(5) 0.8714(3) 0.4137(2)
O1 O 0.1653(4) 0.9272(3) 0.3166(2)
O2 O -0.0656(5) 0.9244(3) 0.2310(2)
O3 O 0.9148(5) 1.6786(3) 0.2805(2)
O4 O 0.7986(5) 1.6191(3) 0.3755(2)
S1 S 0.38146(18) 1.12758(11) 0.27622(8)
S2 S 0.57350(18) 1.40794(11) 0.28921(8)
Zn1 Zn 0.02072(8) 0.80608(5) 0.35707(4)
C1A C -1.0841(8) 1.0400(4) 0.7424(3)
C2A C -1.1894(7) 0.9514(4) 0.7765(3)
C3A C -1.1517(7) 0.9151(4) 0.8465(3)
H1A H -1.0516 0.9487 0.8836
C4A C -1.2787(7) 0.8213(4) 0.8583(3)
C5A C -1.4090(7) 0.7894(4) 0.7963(3)
C6A C -1.5553(6) 0.6902(4) 0.7825(3)
C7A C -1.6780(7) 0.6582(4) 0.8208(3)
C8A C -1.7807(7) 0.5497(4) 0.7931(3)
H2A H -1.8701 0.5123 0.8138
C9A C -1.7404(7) 0.5037(4) 0.7343(3)
C10A C -1.8224(7) 0.3953(4) 0.6885(3)
C11A C -1.2617(7) 0.7650(4) 0.9283(3)
C12A C -1.2990(7) 0.6501(5) 0.9251(3)
H3A H -1.3354 0.6071 0.8773
C13A C -1.2830(8) 0.5987(5) 0.9912(4)
H4A H -1.3102 0.5206 0.9886
C14A C -1.2278(8) 0.6603(5) 1.0610(4)
H5A H -1.2154 0.6247 1.1062
C15A C -1.1909(7) 0.7734(5) 1.0650(3)
H6A H -1.1554 0.8157 1.1130
C16A C -1.2050(7) 0.8258(5) 0.9994(3)
H7A H -1.1758 0.9040 1.0028
C17A C -1.7051(7) 0.7267(4) 0.8815(3)
C18A C -1.7951(7) 0.6769(5) 0.9327(3)
H8A H -1.8314 0.5988 0.9309
C19A C -1.8319(8) 0.7397(5) 0.9858(3)
H9A H -1.8935 0.7045 1.0199
C20A C -1.7799(8) 0.8535(5) 0.9897(3)
H10A H -1.8047 0.8965 1.0265
C21A C -1.6910(7) 0.9044(5) 0.9392(3)
H11A H -1.6545 0.9825 0.9415
C22A C -1.6553(7) 0.8415(4) 0.8855(3)
H12A H -1.5958 0.8772 0.8508
C23A C 0.6776(7) 0.2555(4) 0.6163(3)
H13A H 0.6643 0.2111 0.6568
C24A C 0.8156(8) 0.3180(5) 0.5264(3)
H14A H 0.9021 0.3198 0.5020
C25A C 0.5713(7) 0.3176(4) 0.5959(3)
H15A H 0.4861 0.3144 0.6214
C26A C 0.7121(8) 0.3828(5) 0.5017(3)
H16A H 0.7257 0.4254 0.4603
C27A C 0.5888(7) 0.3838(5) 0.5388(3)
C28A C 0.4866(8) 0.4591(4) 0.5217(3)
H17A H 0.3943 0.4480 0.5436
C29A C -0.5617(7) 1.0185(4) 0.4823(3)
H18A H -0.5756 1.0233 0.4293
C30A C -0.6771(7) 1.0523(4) 0.5182(3)
C31A C -0.6899(7) 1.0308(4) 0.5912(3)
H19A H -0.6256 0.9896 0.6193
C32A C -0.7783(7) 1.1100(4) 0.4797(3)
H20A H -0.7768 1.1241 0.4289
C33A C -0.7959(7) 1.0693(4) 0.6230(3)
H21A H -0.8031 1.0534 0.6730
C34A C -0.8810(7) 1.1468(4) 0.5148(3)
H22A H -0.9483 1.1867 0.4873
N1A N 0.7997(6) 0.2541(3) 0.5820(2)
N1A_2 N -1.2003(6) 1.2541(3) 0.5820(2)
N2A N -0.8898(5) 1.1286(3) 0.5863(2)
O1A O -1.1653(4) 1.0728(3) 0.6834(2)
O2A O -0.9344(5) 1.0756(3) 0.7690(2)
O3A O -1.9148(5) 0.3214(3) 0.7195(2)
O3_2 O -0.0852(5) 0.6786(3) 0.2805(2)
O3A_2 O -0.9148(5) 1.3214(3) 0.7195(2)
O4A O -1.7986(5) 0.3809(3) 0.6245(2)
S1A S -1.38146(18) 0.87242(11) 0.72378(8)
S2A S -1.57350(18) 0.59206(11) 0.71079(8)
Zn1A Zn -1.02072(8) 1.19392(5) 0.64293(4)
Zn1_2 Zn 1.02072(8) 1.80608(5) 0.35707(4)
Zn1A_2 Zn -2.02072(8) 0.19392(5) 0.64293(4)
Zn1A_3 Zn 0.97928(8) 0.19392(5) 0.64293(4)
C35 C 0.2093(9) 0.6715(6) 0.1824(4)
H23 H 0.1358 0.7117 0.1894
C36 C 0.4847(9) 0.6755(6) 0.1738(5)
H24 H 0.4555 0.6013 0.1903
H25 H 0.5946 0.7184 0.2039
H26 H 0.4858 0.6703 0.1201
C37 C 0.4155(9) 0.8473(5) 0.1884(4)
H27 H 0.3196 0.8738 0.1874
H28 H 0.4614 0.8710 0.1449
H29 H 0.4999 0.8778 0.2355
N3 N 0.3650(6) 0.7289(4) 0.1843(3)
O5 O 0.1540(6) 0.5707(4) 0.1724(3)
C38 C 0.9039(9) 0.2191(5) 0.3132(4)
H30 H 0.8704 0.1599 0.2743
C39 C 1.0752(9) 0.4019(6) 0.3620(4)
H31 H 0.9952 0.3969 0.3931
H32 H 1.0884 0.4700 0.3370
H33 H 1.1821 0.4023 0.3943
C40 C 1.0917(9) 0.3167(6) 0.2415(4)
H34 H 1.0403 0.2480 0.2078
H35 H 1.2107 0.3274 0.2593
H36 H 1.0736 0.3788 0.2138
N4 N 1.0175(6) 0.3105(4) 0.3066(3)
O6 O 0.8391(7) 0.2073(4) 0.3680(3)
loop_
_geom_bond_atom_site_label_1
_geom_bond_atom_site_label_2
_geom_bond_site_symmetry_1
_geom_bond_site_symmetry_2
C1 C2 1_555 1_555
C2 C3 1_555 1_555
C3 H1 1_555 1_555
C4 C3 1_555 1_555
C5 C4 1_555 1_555
C6 C5 1_555 1_555
C7 C6 1_555 1_555
C8 C7 1_555 1_555
H2 C8 1_555 1_555
C9 C8 1_555 1_555
C10 C9 1_555 1_555
C11 C4 1_555 1_555
C12 C11 1_555 1_555
H3 C12 1_555 1_555
C13 C12 1_555 1_555
H4 C13 1_555 1_555
C14 C13 1_555 1_555
H5 C14 1_555 1_555
C15 C14 1_555 1_555
H6 C15 1_555 1_555
C16 C11 1_555 1_555
H7 C16 1_555 1_555
C17 C7 1_555 1_555
C18 C17 1_555 1_555
H8 C18 1_555 1_555
C19 C18 1_555 1_555
H9 C19 1_555 1_555
C20 C19 1_555 1_555
H10 C20 1_555 1_555
C21 C20 1_555 1_555
H11 C21 1_555 1_555
C22 C17 1_555 1_555
H12 C22 1_555 1_555
C23 H13 1_555 1_555
C24 H14 1_555 1_555
C25 C23 1_555 1_555
H15 C25 1_555 1_555
C26 C24 1_555 1_555
H16 C26 1_555 1_555
C27 C25 1_555 1_555
C28 C27 1_555 1_555
H17 C28 1_555 1_555
C29 H18 1_555 1_555
C30 C29 1_555 1_555
C31 C30 1_555 1_555
H19 C31 1_555 1_555
C32 C30 1_555 1_555
H20 C32 1_555 1_555
C33 C31 1_555 1_555
H21 C33 1_555 1_555
C34 C32 1_555 1_555
H22 C34 1_555 1_555
C35 H23 1_555 1_555
C36 H24 1_555 1_555
H25 C36 1_555 1_555
H26 C36 1_555 1_555
C37 H27 1_555 1_555
H28 C37 1_555 1_555
H29 C37 1_555 1_555
C38 H30 1_555 1_555
C39 H31 1_555 1_555
H32 C39 1_555 1_555
H33 C39 1_555 1_555
C40 H34 1_555 1_555
H35 C40 1_555 1_555
H36 C40 1_555 1_555
N1 C23 1_555 1_555
N2 C33 1_555 1_555
N3 C35 1_555 1_555
N4 C38 1_555 1_555
O1 C1 1_555 1_555
O2 C1 1_555 1_555
O3 C10 1_555 1_555
O4 C10 1_555 1_555
O5 C35 1_555 1_555
O6 C38 1_555 1_555
S1 C2 1_555 1_555
S2 C6 1_555 1_555
Zn1 N1 1_555 1_555
C1A C2A 1_555 1_555
C2A C3A 1_555 1_555
C3A H1A 1_555 1_555
C4A C3A 1_555 1_555
C5A C4A 1_555 1_555
C6A C5A 1_555 1_555
C7A C6A 1_555 1_555
C8A C7A 1_555 1_555
H2A C8A 1_555 1_555
C9A C8A 1_555 1_555
C10A C9A 1_555 1_555
C11A C4A 1_555 1_555
C12A C11A 1_555 1_555
H3A C12A 1_555 1_555
C13A C12A 1_555 1_555
H4A C13A 1_555 1_555
C14A C13A 1_555 1_555
H5A C14A 1_555 1_555
C15A C14A 1_555 1_555
H6A C15A 1_555 1_555
C16A C11A 1_555 1_555
H7A C16A 1_555 1_555
C17A C7A 1_555 1_555
C18A C17A 1_555 1_555
H8A C18A 1_555 1_555
C19A C18A 1_555 1_555
H9A C19A 1_555 1_555
C20A C19A 1_555 1_555
H10A C20A 1_555 1_555
C21A C20A 1_555 1_555
H11A C21A 1_555 1_555
C22A C17A 1_555 1_555
H12A C22A 1_555 1_555
C23A H13A 1_555 1_555
C24A H14A 1_555 1_555
C25A C23A 1_555 1_555
H15A C25A 1_555 1_555
C26A C24A 1_555 1_555
H16A C26A 1_555 1_555
C27A C25A 1_555 1_555
C28A C28 1_555 1_555
H17A C28A 1_555 1_555
C29A C29 1_555 1_555
H18A C29A 1_555 1_555
C30A C29A 1_555 1_555
C31A C30A 1_555 1_555
H19A C31A 1_555 1_555
C32A C30A 1_555 1_555
H20A C32A 1_555 1_555
C33A C31A 1_555 1_555
H21A C33A 1_555 1_555
C34A C32A 1_555 1_555
H22A C34A 1_555 1_555
N1A C23A 1_555 1_555
N1A_2 Zn1A 1_555 1_555
N2A C33A 1_555 1_555
O1A C1A 1_555 1_555
O2A C1A 1_555 1_555
O3A C10A 1_555 1_555
O3_2 Zn1 1_555 1_555
O3A_2 Zn1A 1_555 1_555
O4A C10A 1_555 1_555
S1A C2A 1_555 1_555
S2A C6A 1_555 1_555
Zn1A N2A 1_555 1_555
Zn1_2 O3 1_555 1_555
Zn1A_2 O3A 1_555 1_555
Zn1A_3 N1A 1_555 1_555
C5 S1 1_555 1_555
C9 S2 1_555 1_555
C15 C16 1_555 1_555
C21 C22 1_555 1_555
C24 N1 1_555 1_555
C26 C27 1_555 1_555
C34 N2 1_555 1_555
C36 N3 1_555 1_555
C37 N3 1_555 1_555
C39 N4 1_555 1_555
C40 N4 1_555 1_555
N2 Zn1 1_555 1_555
O1 Zn1 1_555 1_555
C5A S1A 1_555 1_555
C9A S2A 1_555 1_555
C15A C16A 1_555 1_555
C21A C22A 1_555 1_555
C24A N1A 1_555 1_555
C26A C27A 1_555 1_555
C27A C28A 1_555 1_555
C34A N2A 1_555 1_555
O1A Zn1A 1_555 1_555

#END
