
#######################################################################
#
#                 Cambridge Crystallographic Data Centre
#                                CCDC 
#
#######################################################################
#
# If this CIF has been generated from an entry in the Cambridge 
# Structural Database, then it will include bibliographic, chemical, 
# crystal, experimental, refinement or atomic coordinate data resulting 
# from the CCDC's data processing and validation procedures.
#
#######################################################################

data_WECJIZ
_symmetry_cell_setting           monoclinic
_symmetry_space_group_name_H-M   'C 2/c'
_symmetry_Int_Tables_number      15
_space_group_name_Hall           '-C 2yn'
loop_
_symmetry_equiv_pos_site_id
_symmetry_equiv_pos_as_xyz
1 x,y,z
2 -x,y,1/2-z
3 1/2+x,1/2+y,z
4 1/2-x,1/2+y,1/2-z
5 -x,-y,-z
6 x,-y,1/2+z
7 1/2-x,1/2-y,-z
8 1/2+x,1/2-y,1/2+z
_cell_length_a                   31.138(2)
_cell_length_b                   39.627(2)
_cell_length_c                   22.721(2)
_cell_angle_alpha                90
_cell_angle_beta                 121.737(2)
_cell_angle_gamma                90
_cell_volume                     23843.5
loop_
_atom_site_label
_atom_site_type_symbol
_atom_site_fract_x
_atom_site_fract_y
_atom_site_fract_z
C91 C 0.4704(4) 0.2068(2) 0.9680(4)
H105 H 0.4789 0.2234 0.9449
H106 H 0.5007 0.1976 1.0065
H107 H 0.4508 0.2173 0.9844
N1 N 0.4406(2) 0.17952(13) 0.9191(3)
C92 C 0.4341(2) 0.18182(17) 0.8529(3)
H108 H 0.4171 0.1620 0.8267
H109 H 0.4665 0.1837 0.8576
H110 H 0.4142 0.2014 0.8295
C93 C 0.4240(3) 0.15393(18) 0.9381(4)
H111 H 0.4086 0.1365 0.9062
O1 O 0.4267(2) 0.15063(13) 0.9937(3)
C94 C 0.5452(4) 0.2381(2) 0.2048(6)
H112 H 0.5205 0.2326 0.2163
H113 H 0.5354 0.2584 0.1779
H114 H 0.5775 0.2413 0.2465
C95 C 0.5231(4) 0.1783(2) 0.1548(5)
H115 H 0.5009 0.1800 0.1721
H116 H 0.5476 0.1610 0.1795
H117 H 0.5038 0.1729 0.1064
C96 C 0.5810(4) 0.2138(2) 0.1427(4)
H118 H 0.5981 0.2342 0.1511
N6 N 0.5487(3) 0.21054(18) 0.1647(4)
O15 O 0.5899(2) 0.19105(15) 0.1114(3)
C97 C 0.1592(3) 0.1400(2) 0.6494(4)
H119 H 0.1749 0.1585 0.6405
H120 H 0.1299 0.1329 0.6068
H121 H 0.1827 0.1216 0.6692
C98 C 0.1308(4) 0.1247(3) 0.7335(6)
H122 H 0.1298 0.1027 0.7151
H123 H 0.0983 0.1300 0.7263
H124 H 0.1557 0.1250 0.7821
C99 C 0.1479(3) 0.1832(3) 0.7146(5)
H125 H 0.1586 0.1986 0.6941
N7 N 0.1445(2) 0.15060(19) 0.6970(4)
O14 O 0.1372(3) 0.1941(2) 0.7578(5)
O17 O 0.6818(4) 0.0853(2) 1.2092(6)
C1 C 0.07469(19) 0.48924(12) 0.4584(3)
C2 C 0.1213(2) 0.46818(12) 0.5001(3)
C3 C 0.1596(3) 0.47232(15) 0.5641(3)
H1 H 0.1615 0.4901 0.5921
C4 C 0.1982(2) 0.44701(16) 0.5868(3)
C5 C 0.18586(19) 0.42380(12) 0.5365(3)
C6 C 0.21151(18) 0.39213(12) 0.5411(3)
C7 C 0.22829(18) 0.37951(13) 0.5003(3)
C8 C 0.24831(18) 0.34655(12) 0.5220(3)
H2 H 0.2614 0.3340 0.5005
C9 C 0.24662(18) 0.33497(12) 0.5769(3)
C10 C 0.26238(18) 0.30215(12) 0.6132(3)
C11 C -0.1005(2) 0.51516(13) 0.3155(3)
C12 C -0.14107(18) 0.49001(11) 0.2960(3)
C13 C -0.1918(2) 0.49472(13) 0.2593(3)
H3 H -0.2066 0.5155 0.2405
C14 C -0.22064(19) 0.46515(13) 0.2516(3)
C15 C -0.18941(18) 0.43793(12) 0.2826(3)
C16 C -0.20246(17) 0.40304(12) 0.2863(3)
C17 C -0.22191(19) 0.39004(13) 0.3234(3)
C18 C -0.22684(18) 0.35423(12) 0.3164(3)
H4 H -0.2397 0.3412 0.3377
C19 C -0.21115(17) 0.34107(12) 0.2761(3)
C20 C -0.21241(17) 0.30594(13) 0.2546(3)
C21 C 0.19397(19) 0.22518(12) 0.5890(3)
C22 C 0.14509(17) 0.21319(12) 0.5306(3)
C23 C 0.13560(17) 0.19915(12) 0.4696(3)
H5 H 0.1605 0.1952 0.4596
C24 C 0.08386(19) 0.19126(12) 0.4235(3)
C25 C 0.05540(18) 0.20024(12) 0.4506(3)
C26 C -0.00019(17) 0.19918(12) 0.4181(3)
C27 C -0.0284(2) 0.18599(14) 0.4427(3)
C28 C -0.08023(18) 0.19340(13) 0.3991(3)
H6 H -0.1047 0.1863 0.4080
C29 C -0.09075(17) 0.21224(12) 0.3423(3)
C30 C -0.14028(18) 0.22536(12) 0.2866(3)
C31 C 0.00439(17) 0.56221(11) 0.5248(3)
H7 H 0.0267 0.5447 0.5492
C32 C -0.04664(19) 0.59008(12) 0.4239(3)
H8 H -0.0610 0.5918 0.3763
C33 C -0.00676(17) 0.58528(12) 0.5610(3)
H9 H 0.0075 0.5828 0.6084
C34 C -0.0585(2) 0.61410(13) 0.4555(3)
H10 H -0.0794 0.6320 0.4300
C35 C -0.03906(17) 0.61187(11) 0.5264(3)
C36 C -0.05349(17) 0.63482(12) 0.5625(3)
H11 H -0.0414 0.6305 0.6089
C37 C -0.08295(17) 0.66175(12) 0.5336(3)
H12 H -0.0901 0.6684 0.4901
C38 C -0.10495(18) 0.68164(12) 0.5661(3)
C39 C -0.0936(2) 0.67667(15) 0.6330(3)
H13 H -0.0681 0.6617 0.6620
C40 C -0.14138(17) 0.70583(12) 0.5274(3)
H14 H -0.1490 0.7112 0.4831
C41 C -0.1198(2) 0.69375(15) 0.6568(3)
H15 H -0.1118 0.6899 0.7019
C42 C -0.16591(18) 0.72172(12) 0.5547(3)
H16 H -0.1905 0.7376 0.5275
C43 C 0.1950(2) 0.72552(15) 0.2928(3)
H17 H 0.1983 0.7487 0.3009
C44 C 0.2100(3) 0.67931(16) 0.2482(4)
H18 H 0.2247 0.6694 0.2260
C45 C 0.1701(2) 0.70734(15) 0.3164(4)
H19 H 0.1589 0.7178 0.3426
C46 C 0.1837(3) 0.65856(16) 0.2689(4)
H20 H 0.1812 0.6354 0.2607
C47 C 0.1615(2) 0.67343(15) 0.3016(3)
C48 C 0.1326(2) 0.65342(15) 0.3236(3)
H21 H 0.1240 0.6640 0.3526
C49 C 0.1180(2) 0.62258(15) 0.3065(3)
H22 H 0.1272 0.6118 0.2784
C50 C 0.0878(2) 0.60272(13) 0.3276(3)
C51 C 0.07518(18) 0.57015(13) 0.3044(3)
H23 H 0.0841 0.5612 0.2744
C52 C 0.0742(2) 0.61463(14) 0.3726(3)
H24 H 0.0823 0.6365 0.3897
C53 C 0.04902(17) 0.55085(12) 0.3260(3)
H25 H 0.0407 0.5288 0.3099
C54 C 0.0487(2) 0.59380(13) 0.3918(3)
H26 H 0.0402 0.6021 0.4227
C55 C 0.2537(3) 0.4521(3) 0.6469(5)
H27 H 0.2699 0.4301 0.6585
H28 H 0.2531 0.4599 0.6869
C56 C 0.2875(3) 0.4763(3) 0.6361(7)
H29 H 0.2716 0.4984 0.6246
H30 H 0.2887 0.4685 0.5965
C57 C 0.3417(3) 0.4802(4) 0.6975(6)
H31 H 0.3421 0.4971 0.7286
H32 H 0.3524 0.4590 0.7225
C58 C 0.3802(6) 0.4903(8) 0.6778(10)
H33 H 0.3824 0.4723 0.6505
H34 H 0.3681 0.5104 0.6490
C59 C 0.4334(6) 0.4974(8) 0.7409(13)
H35 H 0.4567 0.4808 0.7418
H36 H 0.4326 0.4946 0.7827
C60 C 0.4536(11) 0.5329(8) 0.741(2)
H37 H 0.4874 0.5351 0.7805
H38 H 0.4536 0.5363 0.6995
H39 H 0.4323 0.5495 0.7442
C61 C 0.2272(2) 0.39756(14) 0.4424(3)
H40 H 0.2014 0.3874 0.3991
H41 H 0.2175 0.4208 0.4425
C62 C 0.2769(2) 0.39716(15) 0.4451(3)
H42 H 0.2723 0.4083 0.4041
H43 H 0.2864 0.3739 0.4441
C63 C 0.3195(2) 0.41427(16) 0.5083(4)
H44 H 0.3126 0.4383 0.5057
H45 H 0.3211 0.4055 0.5492
C64 C 0.3702(3) 0.4090(2) 0.5152(5)
H46 H 0.3768 0.3850 0.5168
H47 H 0.3688 0.4182 0.4747
C65 C 0.4143(3) 0.4259(3) 0.5806(6)
H48 H 0.4077 0.4499 0.5790
H49 H 0.4156 0.4168 0.6212
C66 C 0.4664(4) 0.4205(4) 0.5881(9)
H50 H 0.4922 0.4313 0.6295
H51 H 0.4734 0.3968 0.5905
H52 H 0.4657 0.4300 0.5488
C67 C -0.2781(2) 0.46365(17) 0.2111(5)
H53 H -0.2887 0.4404 0.1980
H54 H -0.2900 0.4710 0.2409
C68 C -0.3029(2) 0.4856(2) 0.1458(4)
H55 H -0.2928 0.4774 0.1146
H56 H -0.2907 0.5086 0.1585
C69 C -0.3600(3) 0.4858(3) 0.1082(5)
H57 H -0.3730 0.4636 0.0890
H58 H -0.3705 0.4911 0.1404
C70 C -0.3824(4) 0.5133(4) 0.0471(6)
H59 H -0.3761 0.5064 0.0113
H60 H -0.3667 0.5350 0.0649
C71 C -0.4394(5) 0.5155(5) 0.0175(9)
H61 H -0.4552 0.4937 0.0002
H62 H -0.4459 0.5229 0.0528
C72 C -0.4607(7) 0.5424(6) -0.0441(10)
H63 H -0.4966 0.5443 -0.0654
H64 H -0.4452 0.5639 -0.0259
H65 H -0.4531 0.5350 -0.0778
C73 C -0.2304(7) 0.4103(5) 0.3783(5)
H66 H -0.2664 0.4111 0.3607
H67 H -0.2188 0.4333 0.3817
C74 C -0.2033(4) 0.3947(2) 0.4510(5)
H68 H -0.1671 0.3963 0.4712
H69 H -0.2121 0.3710 0.4475
C75 C -0.2172(5) 0.4123(2) 0.4989(5)
H70 H -0.2044 0.3989 0.5406
H71 H -0.2536 0.4132 0.4760
C76 C -0.1961(6) 0.4479(3) 0.5187(7)
H72 H -0.1598 0.4473 0.5397
H73 H -0.2104 0.4618 0.4776
C77 C -0.2089(4) 0.4634(3) 0.5705(6)
H74 H -0.1938 0.4498 0.6122
H75 H -0.2452 0.4633 0.5500
C78 C -0.1890(6) 0.4997(3) 0.5891(7)
H76 H -0.1975 0.5089 0.6208
H77 H -0.1530 0.4997 0.6103
H78 H -0.2042 0.5132 0.5479
C79 C 0.06409(19) 0.17513(14) 0.3535(3)
H79 H 0.0444 0.1917 0.3179
H80 H 0.0416 0.1568 0.3479
C80 C 0.10470(19) 0.16154(13) 0.3427(3)
H81 H 0.1248 0.1803 0.3429
H82 H 0.1268 0.1470 0.3813
C81 C 0.0848(2) 0.14177(14) 0.2757(3)
H83 H 0.0599 0.1554 0.2373
H84 H 0.0680 0.1215 0.2776
C82 C 0.1260(2) 0.13185(16) 0.2625(3)
H85 H 0.1508 0.1182 0.3010
H86 H 0.1429 0.1521 0.2610
C83 C 0.1070(3) 0.11231(19) 0.1960(4)
H87 H 0.0956 0.0902 0.2003
H88 H 0.0784 0.1241 0.1582
C84 C 0.1495(3) 0.1083(2) 0.1793(4)
H89 H 0.1794 0.0994 0.2191
H90 H 0.1383 0.0931 0.1411
H91 H 0.1569 0.1299 0.1676
C85 C -0.008(2) 0.1645(5) 0.5045(15)
H92 H -0.0252 0.1428 0.4909
H93 H 0.0273 0.1607 0.5233
C86 C -0.0151(5) 0.1796(3) 0.5623(6)
H94 H 0.0069 0.1991 0.5806
H95 H -0.0495 0.1879 0.5400
C87 C -0.0054(6) 0.1578(4) 0.6258(6)
H96 H 0.0272 0.1471 0.6442
H97 H -0.0304 0.1399 0.6076
C88 C -0.0057(8) 0.1734(4) 0.6884(7)
H98 H 0.0211 0.1900 0.7086
H99 H -0.0372 0.1857 0.6695
C89 C 0.0000 0.1517(5) 0.7500
C90 C 0.0529(7) 0.1416(17) 0.813(2)
H102 H 0.0486 0.1265 0.8426
H103 H 0.0721 0.1306 0.7966
H104 H 0.0704 0.1615 0.8384
N2 N -0.01569(13) 0.56413(9) 0.4566(2)
N3 N -0.15659(14) 0.71581(10) 0.6175(2)
N4 N 0.21478(15) 0.71223(11) 0.2589(2)
N5 N 0.03517(14) 0.56220(9) 0.3687(2)
O2 O 0.04933(12) 0.48532(8) 0.3946(2)
O3 O 0.06413(13) 0.50963(8) 0.49058(19)
O4 O 0.28592(12) 0.28222(8) 0.59740(17)
O5 O 0.25051(12) 0.29678(8) 0.65752(18)
O6 O -0.05575(12) 0.50283(7) 0.35170(18)
O7 O -0.11099(13) 0.54475(9) 0.29771(19)
O8 O -0.19442(12) 0.30038(8) 0.21709(18)
O9 O -0.23245(12) 0.28423(8) 0.27326(18)
O10 O 0.23196(12) 0.22231(8) 0.58359(18)
O11 O 0.19364(12) 0.23761(8) 0.63973(18)
O12 O -0.14019(11) 0.23923(8) 0.23665(17)
O13 O 0.32266(12) 0.27824(9) 0.79424(17)
S1 S 0.13047(5) 0.43390(3) 0.46213(7)
S2 S 0.21906(5) 0.36371(3) 0.60323(7)
S3 S -0.12664(5) 0.44883(3) 0.32121(7)
S4 S -0.18912(5) 0.37193(3) 0.24543(7)
S5 S 0.09099(5) 0.21804(3) 0.53168(7)
S6 S -0.03710(4) 0.22094(3) 0.34198(7)
Zn1 Zn 0.00362(2) 0.530389(12) 0.40658(3)
Zn2 Zn 0.252335(19) 0.261263(14) 0.72454(3)
Zn3 Zn 0.303071(19) 0.237821(13) 0.65207(3)
C30G C 0.35972(18) 0.27464(12) 0.7866(3)
C88A C 0.0057(8) 0.1734(4) 0.8116(7)
C90A C -0.0529(7) 0.1416(17) 0.687(2)
N3B N 0.34341(14) 0.21581(10) 0.6175(2)
N4E N 0.21478(15) 0.28777(11) 0.7589(2)
O8G O 0.30558(12) 0.19962(8) 0.71709(18)
O9G O 0.26755(12) 0.21577(8) 0.77326(18)
O12G O 0.35981(11) 0.26077(8) 0.73665(17)
O13G O -0.17734(12) 0.22176(9) 0.29424(17)
Zn2E Zn 0.252335(19) 0.738737(14) 0.22454(3)
Zn2G Zn -0.247665(19) 0.238737(14) 0.22454(3)
Zn3B Zn -0.196929(19) 0.737821(13) 0.65207(3)
Zn3G Zn -0.196929(19) 0.262179(13) 0.15207(3)
H100? H 0.4815 0.3691 1.2302
H101? H 0.4825 0.3363 1.2685
C100? C 0.5339(4) 0.0612(3) 0.7567(9)
H126? H 0.5541 0.0803 0.7601
H127? H 0.5281 0.0472 0.7187
H128? H 0.5512 0.0484 0.7989
C101? C 0.4765(4) 0.1054(3) 0.7405(5)
H129? H 0.4456 0.1117 0.7340
C102? C 0.4514(6) 0.0466(3) 0.7376(9)
H130? H 0.4216 0.0568 0.7321
H131? H 0.4669 0.0324 0.7779
H132? H 0.4425 0.0332 0.6975
N8? N 0.4867(3) 0.0727(3) 0.7453(8)
O16? O 0.505(2) 0.12795(17) 0.744(3)
C103? C 0.7293(5) 0.0599(3) 1.1681(8)
C104? C 0.7685(5) 0.0310(4) 1.1908(7)
C105? C 0.8026(6) 0.0349(5) 1.1600(11)
C106? C 0.8120(8) 0.0015(7) 1.1337(11)
C107? C 0.8670(8) -0.0113(9) 1.176(2)
C108? C 0.8726(14) -0.0488(10) 1.161(3)
C109? C 0.2591(8) 0.0897(8) 0.8526(10)
C110? C 0.2987(6) 0.0771(3) 0.9255(8)
C111? C 0.2769(5) 0.0516(4) 0.9536(7)
C112? C 0.3147(7) 0.0404(5) 1.0276(7)
C113? C 0.2956(7) 0.0103(4) 1.0500(8)
C114? C 0.3318(8) 0.0003(6) 1.1257(9)
C115? C 0.494(2) 0.3343(5) 1.0121(16)
C116? C 0.4923(10) 0.3724(4) 0.9972(8)
C117? C 0.5149(11) 0.3931(4) 1.0652(9)
C118? C 0.5136(17) 0.4314(4) 1.0509(11)
C119? C 0.5318(17) 0.4523(7) 1.1173(13)
C120? C 0.5424(19) 0.4895(7) 1.1069(18)
H133? H 0.7452 0.0819 1.1793
H134? H 0.7085 0.0575 1.1880
H135? H 0.7509 0.0096 1.1761
H136? H 0.7896 0.0307 1.2409
H137? H 0.7868 0.0509 1.1219
H138? H 0.8348 0.0443 1.1952
H139? H 0.7900 -0.0157 1.1342
H140? H 0.8027 0.0045 1.0860
H141? H 0.8794 -0.0088 1.2251
H142? H 0.8878 0.0026 1.1659
H143? H 0.9077 -0.0546 1.1846
H144? H 0.8574 -0.0520 1.1123
H145? H 0.8560 -0.0631 1.1775
H146? H 0.2433 0.0703 0.8228
H147? H 0.2331 0.1019 0.8550
H148? H 0.3264 0.0667 0.9243
H149? H 0.3120 0.0962 0.9567
H150? H 0.2478 0.0615 0.9519
H151? H 0.2654 0.0319 0.9238
H152? H 0.3214 0.0592 1.0587
H153? H 0.3462 0.0343 1.0313
H154? H 0.2630 0.0159 1.0434
H155? H 0.2909 -0.0089 1.0206
H156? H 0.3175 -0.0180 1.1375
H157? H 0.3372 0.0192 1.1551
H158? H 0.3635 -0.0067 1.1319
H159? H 0.4742 0.3297 1.0331
H160? H 0.5284 0.3274 1.0443
H161? H 0.4576 0.3794 0.9655
H162? H 0.5114 0.3769 0.9754
H163? H 0.4957 0.3887 1.0870
H164? H 0.5495 0.3862 1.0969
H165? H 0.4793 0.4380 1.0162
H166? H 0.5349 0.4361 1.0326
H167? H 0.5624 0.4424 1.1551
H168? H 0.5063 0.4519 1.1295
H169? H 0.5473 0.5029 1.1451
H170? H 0.5143 0.4981 1.0647
H171? H 0.5723 0.4904 1.1046
loop_
_geom_bond_atom_site_label_1
_geom_bond_atom_site_label_2
_geom_bond_site_symmetry_1
_geom_bond_site_symmetry_2
C1 C2 1_555 1_555
C2 C3 1_555 1_555
C3 H1 1_555 1_555
C4 C3 1_555 1_555
C5 C4 1_555 1_555
C6 C5 1_555 1_555
C7 C6 1_555 1_555
C8 C7 1_555 1_555
H2 C8 1_555 1_555
C9 C8 1_555 1_555
C10 C9 1_555 1_555
C11 C12 1_555 1_555
C12 C13 1_555 1_555
C13 H3 1_555 1_555
C14 C13 1_555 1_555
C15 C14 1_555 1_555
C16 C15 1_555 1_555
C17 C16 1_555 1_555
C18 C17 1_555 1_555
H4 C18 1_555 1_555
C19 C18 1_555 1_555
C20 C19 1_555 1_555
C21 C22 1_555 1_555
C22 C23 1_555 1_555
C23 H5 1_555 1_555
C24 C23 1_555 1_555
C25 C24 1_555 1_555
C26 C25 1_555 1_555
C27 C26 1_555 1_555
C28 C27 1_555 1_555
H6 C28 1_555 1_555
C29 C28 1_555 1_555
C30 C29 1_555 1_555
C31 H7 1_555 1_555
C32 H8 1_555 1_555
C33 C31 1_555 1_555
H9 C33 1_555 1_555
C34 C32 1_555 1_555
H10 C34 1_555 1_555
C35 C33 1_555 1_555
C36 C35 1_555 1_555
H11 C36 1_555 1_555
C37 C36 1_555 1_555
H12 C37 1_555 1_555
C38 C37 1_555 1_555
C39 C38 1_555 1_555
H13 C39 1_555 1_555
C40 C38 1_555 1_555
H14 C40 1_555 1_555
C41 C39 1_555 1_555
H15 C41 1_555 1_555
C42 C40 1_555 1_555
H16 C42 1_555 1_555
C43 H17 1_555 1_555
C44 H18 1_555 1_555
C45 C43 1_555 1_555
H19 C45 1_555 1_555
C46 C44 1_555 1_555
H20 C46 1_555 1_555
C47 C45 1_555 1_555
C48 C47 1_555 1_555
H21 C48 1_555 1_555
C49 C48 1_555 1_555
H22 C49 1_555 1_555
C50 C49 1_555 1_555
C51 C50 1_555 1_555
H23 C51 1_555 1_555
C52 C50 1_555 1_555
H24 C52 1_555 1_555
C53 C51 1_555 1_555
H25 C53 1_555 1_555
C54 C52 1_555 1_555
H26 C54 1_555 1_555
C55 C4 1_555 1_555
H27 C55 1_555 1_555
H28 C55 1_555 1_555
C56 C55 1_555 1_555
H29 C56 1_555 1_555
H30 C56 1_555 1_555
C57 C56 1_555 1_555
H31 C57 1_555 1_555
H32 C57 1_555 1_555
C58 C57 1_555 1_555
H33 C58 1_555 1_555
H34 C58 1_555 1_555
C59 C58 1_555 1_555
H35 C59 1_555 1_555
H36 C59 1_555 1_555
C60 C59 1_555 1_555
H37 C60 1_555 1_555
H38 C60 1_555 1_555
H39 C60 1_555 1_555
C61 C7 1_555 1_555
H40 C61 1_555 1_555
H41 C61 1_555 1_555
C62 C61 1_555 1_555
H42 C62 1_555 1_555
H43 C62 1_555 1_555
C63 C62 1_555 1_555
H44 C63 1_555 1_555
H45 C63 1_555 1_555
C64 C63 1_555 1_555
H46 C64 1_555 1_555
H47 C64 1_555 1_555
C65 C64 1_555 1_555
H48 C65 1_555 1_555
H49 C65 1_555 1_555
C66 C65 1_555 1_555
H50 C66 1_555 1_555
H51 C66 1_555 1_555
H52 C66 1_555 1_555
C67 C14 1_555 1_555
H53 C67 1_555 1_555
H54 C67 1_555 1_555
C68 C67 1_555 1_555
H55 C68 1_555 1_555
H56 C68 1_555 1_555
C69 C68 1_555 1_555
H57 C69 1_555 1_555
H58 C69 1_555 1_555
C70 C69 1_555 1_555
H59 C70 1_555 1_555
H60 C70 1_555 1_555
C71 C70 1_555 1_555
H61 C71 1_555 1_555
H62 C71 1_555 1_555
C72 C71 1_555 1_555
H63 C72 1_555 1_555
H64 C72 1_555 1_555
H65 C72 1_555 1_555
C73 C17 1_555 1_555
H66 C73 1_555 1_555
H67 C73 1_555 1_555
C74 C73 1_555 1_555
H68 C74 1_555 1_555
H69 C74 1_555 1_555
C75 C74 1_555 1_555
H70 C75 1_555 1_555
H71 C75 1_555 1_555
C76 C75 1_555 1_555
H72 C76 1_555 1_555
H73 C76 1_555 1_555
C77 C76 1_555 1_555
H74 C77 1_555 1_555
H75 C77 1_555 1_555
C78 C77 1_555 1_555
H76 C78 1_555 1_555
H77 C78 1_555 1_555
H78 C78 1_555 1_555
C79 C24 1_555 1_555
H79 C79 1_555 1_555
H80 C79 1_555 1_555
C80 C79 1_555 1_555
H81 C80 1_555 1_555
H82 C80 1_555 1_555
C81 C80 1_555 1_555
H83 C81 1_555 1_555
H84 C81 1_555 1_555
C82 C81 1_555 1_555
H85 C82 1_555 1_555
H86 C82 1_555 1_555
C83 C82 1_555 1_555
H87 C83 1_555 1_555
H88 C83 1_555 1_555
C84 C83 1_555 1_555
H89 C84 1_555 1_555
H90 C84 1_555 1_555
H91 C84 1_555 1_555
C85 C27 1_555 1_555
H92 C85 1_555 1_555
H93 C85 1_555 1_555
C86 C85 1_555 1_555
H94 C86 1_555 1_555
H95 C86 1_555 1_555
C87 C86 1_555 1_555
H96 C87 1_555 1_555
H97 C87 1_555 1_555
C88 C87 1_555 1_555
H98 C88 1_555 1_555
H99 C88 1_555 1_555
C89 C88 1_555 1_555
C90 C89 1_555 1_555
H102 C90 1_555 1_555
H103 C90 1_555 1_555
H104 C90 1_555 1_555
C91 H105 1_555 1_555
H106 C91 1_555 1_555
H107 C91 1_555 1_555
N1 C91 1_555 1_555
C92 N1 1_555 1_555
H108 C92 1_555 1_555
H109 C92 1_555 1_555
H110 C92 1_555 1_555
C93 N1 1_555 1_555
H111 C93 1_555 1_555
O1 C93 1_555 1_555
C94 H112 1_555 1_555
H113 C94 1_555 1_555
H114 C94 1_555 1_555
C95 H115 1_555 1_555
H116 C95 1_555 1_555
H117 C95 1_555 1_555
C96 H118 1_555 1_555
C97 H119 1_555 1_555
H120 C97 1_555 1_555
H121 C97 1_555 1_555
C98 H122 1_555 1_555
H123 C98 1_555 1_555
H124 C98 1_555 1_555
C99 H125 1_555 1_555
N2 C31 1_555 1_555
N3 C41 1_555 1_555
N4 C43 1_555 1_555
N5 C53 1_555 1_555
N6 C94 1_555 1_555
N7 C97 1_555 1_555
O2 C1 1_555 1_555
O3 C1 1_555 1_555
O4 C10 1_555 1_555
O5 C10 1_555 1_555
O6 C11 1_555 1_555
O7 C11 1_555 1_555
O8 C20 1_555 1_555
O9 C20 1_555 1_555
O10 C21 1_555 1_555
O11 C21 1_555 1_555
O12 C30 1_555 1_555
O13 Zn2 1_555 1_555
O14 C99 1_555 1_555
O15 C96 1_555 1_555
S1 C2 1_555 1_555
S2 C6 1_555 1_555
S3 C12 1_555 1_555
S4 C16 1_555 1_555
S5 C22 1_555 1_555
S6 C26 1_555 1_555
Zn1 N2 1_555 1_555
Zn2 O5 1_555 1_555
Zn3 O4 1_555 1_555
C30G O13 1_555 1_555
C88A C89 1_555 1_555
C90A C89 1_555 1_555
N3B Zn3 1_555 1_555
N4E Zn2 1_555 1_555
O8G Zn3 1_555 1_555
O9G Zn2 1_555 1_555
O12G Zn3 1_555 1_555
O13G C30 1_555 1_555
Zn2E N4 1_555 1_555
Zn2G O9 1_555 1_555
Zn3B N3 1_555 1_555
Zn3G O8 1_555 1_555
C5 S1 1_555 1_555
C9 S2 1_555 1_555
C15 S3 1_555 1_555
C19 S4 1_555 1_555
C25 S5 1_555 1_555
C29 S6 1_555 1_555
C32 N2 1_555 1_555
C34 C35 1_555 1_555
C42 N3 1_555 1_555
C44 N4 1_555 1_555
C46 C47 1_555 1_555
C54 N5 1_555 1_555
C95 N6 1_555 1_555
C96 N6 1_555 1_555
C98 N7 1_555 1_555
C99 N7 1_555 1_555
N5 Zn1 1_555 1_555
O3 Zn1 1_555 1_555
O6 Zn1 1_555 1_555
O10 Zn3 1_555 1_555
O11 Zn2 1_555 1_555
O12 Zn3G 1_555 1_555
C30G O12G 1_555 1_555
O13G Zn2G 1_555 1_555

#END
