
#######################################################################
#
#                 Cambridge Crystallographic Data Centre
#                                CCDC 
#
#######################################################################
#
# If this CIF has been generated from an entry in the Cambridge 
# Structural Database, then it will include bibliographic, chemical, 
# crystal, experimental, refinement or atomic coordinate data resulting 
# from the CCDC's data processing and validation procedures.
#
#######################################################################

data_WEDJUM
_symmetry_cell_setting           triclinic
_symmetry_space_group_name_H-M   'P -1'
_symmetry_Int_Tables_number      2
_space_group_name_Hall           '-P 1'
loop_
_symmetry_equiv_pos_site_id
_symmetry_equiv_pos_as_xyz
1 x,y,z
2 -x,-y,-z
_cell_length_a                   11.380(2)
_cell_length_b                   13.015(2)
_cell_length_c                   16.866(3)
_cell_angle_alpha                101.322(2)
_cell_angle_beta                 108.603(2)
_cell_angle_gamma                90.544(2)
_cell_volume                     2314.44
loop_
_atom_site_label
_atom_site_type_symbol
_atom_site_fract_x
_atom_site_fract_y
_atom_site_fract_z
Si1 Si 0.5000 0.5000 0.5000
W1 W 0.48058(5) 0.76941(4) 0.58035(3)
W2 W 0.49235(5) 0.68527(4) 0.37178(3)
W3 W 0.22214(5) 0.62244(4) 0.41839(3)
W4 W 0.23756(5) 0.34985(4) 0.35045(3)
W5 W 0.23777(5) 0.45129(4) 0.55938(3)
W6 W 0.48955(5) 0.41425(4) 0.28654(3)
O1 O 0.4426(14) 0.6112(12) 0.4752(9)
O2 O 0.3485(13) 0.4831(11) 0.4665(9)
O3 O 0.4537(13) 0.4092(12) 0.4156(9)
O4 O 0.4566(14) 0.4747(11) 0.5754(9)
O5 O 0.5253(16) 0.7479(14) 0.4826(10)
O7 O 0.3032(15) 0.7527(14) 0.5112(10)
O9 O 0.3075(16) 0.6881(14) 0.3504(10)
O11 O 0.1513(18) 0.4833(13) 0.3388(11)
O13 O 0.4661(9) 0.7128(9) 0.6707(8)
O14 O 0.2329(19) 0.3650(13) 0.4552(11)
O16 O 0.6566(9) 0.7541(10) 0.6240(9)
O17 O 0.3357(9) 0.5437(7) 0.6579(7)
O18 O 0.6607(10) 0.6598(8) 0.4037(7)
O19 O 0.1876(12) 0.5618(7) 0.5050(6)
O20 O 0.447(3) 0.553(2) 0.3008(18)
O22 O 0.315(2) 0.3642(16) 0.2586(14)
O24 O 0.4729(9) 0.8956(6) 0.6188(6)
O25 O 0.4869(10) 0.7718(7) 0.3074(6)
O26 O 0.0940(9) 0.6819(7) 0.3821(6)
O27 O 0.1082(9) 0.2815(8) 0.2784(6)
O28 O 0.1137(9) 0.4247(7) 0.5852(7)
O29 O 0.4894(10) 0.3722(9) 0.1856(6)
W1A W 0.51942(5) 0.23059(4) 0.41965(3)
W2A W 0.50765(5) 0.31473(4) 0.62822(3)
W3A W 0.77786(5) 0.37756(4) 0.58161(3)
W4A W 0.76244(5) 0.65015(4) 0.64955(3)
W5A W 0.76223(5) 0.54871(4) 0.44062(3)
W6A W 0.51045(5) 0.58575(4) 0.71346(3)
O1A O 0.5574(14) 0.3888(12) 0.5248(9)
O2A O 0.6515(13) 0.5169(11) 0.5335(9)
O3A O 0.5463(13) 0.5908(12) 0.5844(9)
O4A O 0.5434(14) 0.5253(11) 0.4246(9)
O5A O 0.4747(16) 0.2521(14) 0.5174(10)
O7A O 0.6968(15) 0.2473(14) 0.4888(10)
O9A O 0.6925(16) 0.3119(14) 0.6496(10)
O11A O 0.8487(18) 0.5167(13) 0.6612(11)
O13A O 0.5339(9) 0.2872(9) 0.3293(8)
O14A O 0.7671(19) 0.6350(13) 0.5448(11)
O16A O 0.3434(9) 0.2459(10) 0.3760(9)
O17A O 0.6643(9) 0.4563(7) 0.3421(7)
O18A O 0.3393(10) 0.3402(8) 0.5963(7)
O19A O 0.8124(12) 0.4382(7) 0.4950(6)
O20A O 0.553(3) 0.447(2) 0.6992(18)
O22A O 0.685(2) 0.6358(16) 0.7414(14)
O24A O 0.5271(9) 0.1044(6) 0.3812(6)
O25A O 0.5131(10) 0.2282(7) 0.6926(6)
O26A O 0.9060(9) 0.3181(7) 0.6179(6)
O27A O 0.8918(9) 0.7185(8) 0.7216(6)
O28A O 0.8863(9) 0.5753(7) 0.4148(7)
O29A O 0.5106(10) 0.6278(9) 0.8144(6)
O34 O -0.5432(11) 0.6078(8) 0.1148(6)
O35 O 1.1462(12) 0.1908(8) 0.6139(9)
O36 O 0.4151(11) 0.8146(7) 0.1291(7)
O37 O 0.7307(11) 0.7813(8) 0.1154(8)
Cu1 Cu -0.5000 0.5000 0.0000
Cu2 Cu 1.0000 0.0000 0.5000
O30 O -0.2753(10) 0.1536(8) 0.0316(7)
O31 O 0.6327(11) -0.0417(8) 0.1854(8)
O32 O 0.9847(11) -0.2009(11) 0.1920(8)
C1 C -0.3179(11) 0.3597(9) 0.0705(7)
H1 H -0.3728 0.3108 0.0259
C2 C -0.2700(12) 0.5296(9) 0.1474(7)
H2 H -0.2908 0.5986 0.1583
C3 C -0.1574(14) 0.5014(10) 0.2002(8)
H3 H -0.1020 0.5512 0.2437
C4 C -0.1323(13) 0.3984(11) 0.1853(9)
H4 H -0.0597 0.3767 0.2199
C5 C -0.2139(12) 0.3263(10) 0.1193(7)
C6 C -0.1975(12) 0.2090(10) 0.0949(8)
C7 C -0.0709(14) 0.0585(11) 0.1278(10)
H5 H -0.1034 0.0200 0.1610
H6 H -0.1093 0.0264 0.0677
C8 C 0.0639(15) 0.0543(13) 0.1522(11)
H7 H 0.0985 0.0831 0.2131
H8 H 0.0810 -0.0192 0.1432
C9 C 0.1320(18) 0.1074(14) 0.1097(12)
H9 H 0.1315 0.1829 0.1275
H10 H 0.0914 0.0882 0.0482
C10 C 0.273(2) 0.0751(16) 0.1331(13)
H11 H 0.3161 0.0976 0.1941
H12 H 0.2746 -0.0006 0.1174
C11 C 0.3323(19) 0.1262(16) 0.0860(12)
H13 H 0.3406 0.2015 0.1082
H14 H 0.2800 0.1130 0.0264
C12 C 0.4601(14) 0.0882(12) 0.0915(10)
H15 H 0.4513 0.0122 0.0741
H16 H 0.4881 0.1153 0.0504
C13 C 0.6360(13) 0.0571(11) 0.2134(11)
C14 C 0.7397(12) 0.1098(11) 0.2894(9)
C15 C 0.7838(12) 0.2136(10) 0.3069(9)
H17 H 0.7427 0.2578 0.2716
C16 C 0.8881(15) 0.2527(14) 0.3761(11)
H18 H 0.9170 0.3230 0.3883
C17 C 0.9484(15) 0.1859(15) 0.4267(11)
H19 H 1.0223 0.2102 0.4709
C18 C 0.8031(13) 0.0475(12) 0.3447(10)
H20 H 0.7764 -0.0231 0.3344
C19 C 1.0799(14) -0.0901(11) 0.3547(9)
H21 H 0.9972 -0.1169 0.3319
C20 C 1.2395(14) 0.0091(12) 0.4689(10)
H22 H 1.2678 0.0503 0.5240
C21 C 1.3191(13) -0.0107(12) 0.4224(10)
H23 H 1.4016 0.0167 0.4460
C22 C 1.2774(14) -0.0702(11) 0.3420(9)
H24 H 1.3317 -0.0834 0.3107
C23 C 1.1538(13) -0.1122(9) 0.3055(9)
C24 C 1.0942(16) -0.1831(13) 0.2208(11)
C25 C 1.129(2) -0.3075(16) 0.0970(11)
H25 H 1.0543 -0.2840 0.0603
H26 H 1.1920 -0.3096 0.0695
C26 C 1.103(3) -0.4105(19) 0.1080(15)
H27 H 1.0379 -0.4069 0.1343
H28 H 1.1766 -0.4304 0.1479
C27 C 1.061(2) -0.499(3) 0.0262(17)
H29 H 1.1150 -0.4922 -0.0071
H30 H 1.0732 -0.5660 0.0434
N1 N -0.3475(10) 0.4607(8) 0.0826(6)
N2 N 0.9040(12) 0.0886(15) 0.4140(8)
N3 N -0.1000(10) 0.1704(8) 0.1439(7)
H31 H -0.0507 0.2127 0.1881
N4 N 0.5558(11) 0.1166(9) 0.1737(7)
H32 H 0.5604 0.1809 0.2002
N5 N 1.1198(11) -0.0313(11) 0.4348(8)
N6 N 1.1738(14) -0.2313(11) 0.1820(9)
H33 H 1.2525 -0.2180 0.2075
O33 O -0.6010(9) 0.3750(8) 0.0109(6)
Cu2_2 Cu 1.0000 -1.0000 -0.5000
Cu2_3 Cu -2.0000 1.0000 -0.5000
O30A O -0.7247(10) 0.8464(8) -0.0316(7)
O31A O -1.6327(11) 1.0417(8) -0.1854(8)
O32A O 1.0153(11) -0.7991(11) -0.1920(8)
C1A C -0.6821(11) 0.6403(9) -0.0705(7)
H1A H -0.6272 0.6892 -0.0259
C2A C -0.7300(12) 0.4704(9) -0.1474(7)
H2A H -0.7092 0.4014 -0.1583
C3A C -0.8426(14) 0.4986(10) -0.2002(8)
H3A H -0.8980 0.4488 -0.2437
C4A C -0.8677(13) 0.6016(11) -0.1853(9)
H4A H -0.9403 0.6233 -0.2199
C5A C -0.7861(12) 0.6737(10) -0.1193(7)
C6A C -0.8025(12) 0.7910(10) -0.0949(8)
C7A C -0.9291(14) 0.9415(11) -0.1278(10)
H5A H -0.8966 0.9800 -0.1610
H6A H -0.8907 0.9736 -0.0677
C8A C -1.0639(15) 0.9457(13) -0.1522(11)
H7A H -1.0985 0.9169 -0.2131
H8A H -1.0810 1.0192 -0.1432
C9A C -1.1320(18) 0.8926(14) -0.1097(12)
H9A H -1.1315 0.8171 -0.1275
H10A H -1.0914 0.9118 -0.0482
C10A C -1.273(2) 0.9249(16) -0.1331(13)
H11A H -1.3161 0.9024 -0.1941
H12A H -1.2746 1.0006 -0.1174
C11A C -1.3323(19) 0.8738(16) -0.0860(12)
H13A H -1.3406 0.7985 -0.1082
H14A H -1.2800 0.8870 -0.0264
C12A C -1.4601(14) 0.9118(12) -0.0915(10)
H15A H -1.4513 0.9878 -0.0741
H16A H -1.4881 0.8847 -0.0504
C13A C -1.6360(13) 0.9429(11) -0.2134(11)
C14A C -1.7397(12) 0.8902(11) -0.2894(9)
C15A C -1.7838(12) 0.7864(10) -0.3069(9)
H17A H -1.7427 0.7422 -0.2716
C16A C -1.8881(15) 0.7473(14) -0.3761(11)
H18A H -1.9170 0.6770 -0.3883
C17A C -1.9484(15) 0.8141(15) -0.4267(11)
H19A H -2.0223 0.7898 -0.4709
C18A C -1.8031(13) 0.9525(12) -0.3447(10)
H20A H -1.7764 1.0231 -0.3344
C19A C 0.9201(14) -0.9099(11) -0.3547(9)
H21A H 1.0028 -0.8831 -0.3319
C20A C 0.7605(14) -1.0091(12) -0.4689(10)
H22A H 0.7322 -1.0503 -0.5240
C21A C 0.6809(13) -0.9893(12) -0.4224(10)
H23A H 0.5984 -1.0167 -0.4460
C22A C 0.7226(14) -0.9298(11) -0.3420(9)
H24A H 0.6683 -0.9166 -0.3107
C23A C 0.8462(13) -0.8878(9) -0.3055(9)
C24A C 0.9058(16) -0.8169(13) -0.2208(11)
C25A C 0.871(2) -0.6925(16) -0.0970(11)
H25A H 0.9457 -0.7160 -0.0603
H26A H 0.8080 -0.6904 -0.0695
C26A C 0.897(3) -0.5895(19) -0.1080(15)
H27A H 0.9621 -0.5931 -0.1343
H28A H 0.8234 -0.5696 -0.1479
C27A C 0.939(2) -0.501(3) -0.0262(17)
H29A H 0.8850 -0.5078 0.0071
H30A H 0.9268 -0.4340 -0.0434
N1A N -0.6525(10) 0.5393(8) -0.0826(6)
N2A N -1.9040(12) 0.9114(15) -0.4140(8)
N2A_2 N 1.0960(12) -0.0886(15) 0.5860(8)
N3A N -0.9000(10) 0.8296(8) -0.1439(7)
H31A H -0.9493 0.7873 -0.1881
N4A N -1.5558(11) 0.8834(9) -0.1737(7)
H32A H -1.5604 0.8191 -0.2002
N5A N 0.8802(11) -0.9687(11) -0.4348(8)
N5A_2 N 0.8802(11) 0.0313(11) 0.5652(8)
N6A N 0.8262(14) -0.7687(11) -0.1820(9)
H33A H 0.7475 -0.7820 -0.2075
O33A O -0.3990(9) 0.6250(8) -0.0109(6)
O6? O 0.5054(16) 0.8018(14) 0.4722(10)
O8? O 0.3303(19) 0.6995(17) 0.5210(13)
O10? O 0.3323(19) 0.6395(16) 0.3675(12)
O12? O 0.2185(16) 0.4963(11) 0.3520(10)
O15? O 0.165(2) 0.3502(14) 0.4438(12)
O21? O 0.467(2) 0.5577(17) 0.2739(15)
O23? O 0.342(2) 0.3980(18) 0.2956(15)
loop_
_geom_bond_atom_site_label_1
_geom_bond_atom_site_label_2
_geom_bond_site_symmetry_1
_geom_bond_site_symmetry_2
Cu1 N1 1_555 1_555
Cu2 N2 1_555 1_555
Si1 O1 1_555 1_555
W1 O1 1_555 1_555
W2 O1 1_555 1_555
W3 O1 1_555 1_555
W4 O2 1_555 1_555
W5 O2 1_555 1_555
W6 O3 1_555 1_555
O2 Si1 1_555 1_555
O3 Si1 1_555 1_555
O4 Si1 1_555 1_555
O5 W1 1_555 1_555
O7 W1 1_555 1_555
O9 W2 1_555 1_555
O11 W3 1_555 1_555
O13 W1 1_555 1_555
O14 W4 1_555 1_555
O16 W1 1_555 1_555
O17 W5 1_555 1_555
O18 W2 1_555 1_555
O19 W3 1_555 1_555
O20 W2 1_555 1_555
O22 W4 1_555 1_555
O24 W1 1_555 1_555
O25 W2 1_555 1_555
O26 W3 1_555 1_555
O27 W4 1_555 1_555
O28 W5 1_555 1_555
O29 W6 1_555 1_555
O30 C6 1_555 1_555
O31 C13 1_555 1_555
O32 C24 1_555 1_555
C1 H1 1_555 1_555
C2 H2 1_555 1_555
C3 C2 1_555 1_555
H3 C3 1_555 1_555
C4 C3 1_555 1_555
H4 C4 1_555 1_555
C5 C1 1_555 1_555
C6 C5 1_555 1_555
C7 H5 1_555 1_555
H6 C7 1_555 1_555
C8 C7 1_555 1_555
H7 C8 1_555 1_555
H8 C8 1_555 1_555
C9 C8 1_555 1_555
H9 C9 1_555 1_555
H10 C9 1_555 1_555
C10 C9 1_555 1_555
H11 C10 1_555 1_555
H12 C10 1_555 1_555
C11 C10 1_555 1_555
H13 C11 1_555 1_555
H14 C11 1_555 1_555
C12 C11 1_555 1_555
H15 C12 1_555 1_555
H16 C12 1_555 1_555
C13 C14 1_555 1_555
C14 C15 1_555 1_555
C15 H17 1_555 1_555
C16 C15 1_555 1_555
H18 C16 1_555 1_555
C17 C16 1_555 1_555
H19 C17 1_555 1_555
C18 C14 1_555 1_555
H20 C18 1_555 1_555
C19 H21 1_555 1_555
C20 H22 1_555 1_555
C21 C20 1_555 1_555
H23 C21 1_555 1_555
C22 C21 1_555 1_555
H24 C22 1_555 1_555
C23 C19 1_555 1_555
C24 C23 1_555 1_555
C25 H25 1_555 1_555
H26 C25 1_555 1_555
C26 C25 1_555 1_555
H27 C26 1_555 1_555
H28 C26 1_555 1_555
C27 C26 1_555 1_555
H29 C27 1_555 1_555
H30 C27 1_555 1_555
N1 C1 1_555 1_555
N2 C17 1_555 1_555
N3 C6 1_555 1_555
H31 N3 1_555 1_555
N4 C12 1_555 1_555
H32 N4 1_555 1_555
N5 Cu2 1_555 1_555
N6 C24 1_555 1_555
H33 N6 1_555 1_555
O33 Cu1 1_555 1_555
Cu2_2 N5A 1_555 1_555
Cu2_3 N2A 1_555 1_555
W1A O1A 1_555 1_555
W2A O4 1_555 1_555
W3A O1A 1_555 1_555
W4A O16 1_555 1_555
W5A O18 1_555 1_555
W6A O4 1_555 1_555
O1A Si1 1_555 1_555
O2A Si1 1_555 1_555
O3A Si1 1_555 1_555
O4A Si1 1_555 1_555
O5A W1A 1_555 1_555
O7A W1A 1_555 1_555
O9A W2A 1_555 1_555
O11A W3A 1_555 1_555
O13A W6 1_555 1_555
O14A W4A 1_555 1_555
O16A W4 1_555 1_555
O17A W6 1_555 1_555
O18A W5 1_555 1_555
O19A W3A 1_555 1_555
O20A W2A 1_555 1_555
O22A W4A 1_555 1_555
O24A W1A 1_555 1_555
O25A W2A 1_555 1_555
O26A W3A 1_555 1_555
O27A W4A 1_555 1_555
O28A W5A 1_555 1_555
O29A W6A 1_555 1_555
O30A C6A 1_555 1_555
O31A C13A 1_555 1_555
O32A C24A 1_555 1_555
C1A H1A 1_555 1_555
C2A H2A 1_555 1_555
C3A C2A 1_555 1_555
H3A C3A 1_555 1_555
C4A C3A 1_555 1_555
H4A C4A 1_555 1_555
C5A C1A 1_555 1_555
C6A C5A 1_555 1_555
C7A H5A 1_555 1_555
H6A C7A 1_555 1_555
C8A C7A 1_555 1_555
H7A C8A 1_555 1_555
H8A C8A 1_555 1_555
C9A C8A 1_555 1_555
H9A C9A 1_555 1_555
H10A C9A 1_555 1_555
C10A C9A 1_555 1_555
H11A C10A 1_555 1_555
H12A C10A 1_555 1_555
C11A C10A 1_555 1_555
H13A C11A 1_555 1_555
H14A C11A 1_555 1_555
C12A C11A 1_555 1_555
H15A C12A 1_555 1_555
H16A C12A 1_555 1_555
C13A C14A 1_555 1_555
C14A C15A 1_555 1_555
C15A H17A 1_555 1_555
C16A C15A 1_555 1_555
H18A C16A 1_555 1_555
C17A C16A 1_555 1_555
H19A C17A 1_555 1_555
C18A C14A 1_555 1_555
H20A C18A 1_555 1_555
C19A H21A 1_555 1_555
C20A H22A 1_555 1_555
C21A C20A 1_555 1_555
H23A C21A 1_555 1_555
C22A C21A 1_555 1_555
H24A C22A 1_555 1_555
C23A C19A 1_555 1_555
C24A C23A 1_555 1_555
C25A H25A 1_555 1_555
H26A C25A 1_555 1_555
C26A C25A 1_555 1_555
H27A C26A 1_555 1_555
H28A C26A 1_555 1_555
C27A C27 1_555 1_555
H29A C27A 1_555 1_555
H30A C27A 1_555 1_555
N1A Cu1 1_555 1_555
N2A C17A 1_555 1_555
N2A_2 Cu2 1_555 1_555
N3A C6A 1_555 1_555
H31A N3A 1_555 1_555
N4A C12A 1_555 1_555
H32A N4A 1_555 1_555
N5A C19A 1_555 1_555
N5A_2 Cu2 1_555 1_555
N6A C24A 1_555 1_555
H33A N6A 1_555 1_555
O33A Cu1 1_555 1_555
W2 O5 1_555 1_555
W2 O4A 1_555 1_555
W3 O2 1_555 1_555
W3 O7 1_555 1_555
W3 O9 1_555 1_555
W4 O3 1_555 1_555
W4 O11 1_555 1_555
W5 O4 1_555 1_555
W5 O14 1_555 1_555
W5 O19 1_555 1_555
W6 O20 1_555 1_555
W6 O22 1_555 1_555
W6 O4A 1_555 1_555
O13 W6A 1_555 1_555
O17 W6A 1_555 1_555
C2 N1 1_555 1_555
C4 C5 1_555 1_555
C7 N3 1_555 1_555
C13 N4 1_555 1_555
C18 N2 1_555 1_555
C19 N5 1_555 1_555
C20 N5 1_555 1_555
C22 C23 1_555 1_555
C25 N6 1_555 1_555
W1A O13A 1_555 1_555
W1A O16A 1_555 1_555
W2A O1A 1_555 1_555
W2A O5A 1_555 1_555
W2A O18A 1_555 1_555
W3A O2A 1_555 1_555
W3A O7A 1_555 1_555
W3A O9A 1_555 1_555
W4A O2A 1_555 1_555
W4A O3A 1_555 1_555
W4A O11A 1_555 1_555
W5A O2A 1_555 1_555
W5A O4A 1_555 1_555
W5A O14A 1_555 1_555
W5A O17A 1_555 1_555
W5A O19A 1_555 1_555
W6A O3A 1_555 1_555
W6A O20A 1_555 1_555
W6A O22A 1_555 1_555
C1A N1A 1_555 1_555
C2A N1A 1_555 1_555
C4A C5A 1_555 1_555
C7A N3A 1_555 1_555
C13A N4A 1_555 1_555
C18A N2A 1_555 1_555
C20A N5A 1_555 1_555
C22A C23A 1_555 1_555
C25A N6A 1_555 1_555
C26A C27A 1_555 1_555

#END
