
#######################################################################
#
#                 Cambridge Crystallographic Data Centre
#                                CCDC 
#
#######################################################################
#
# If this CIF has been generated from an entry in the Cambridge 
# Structural Database, then it will include bibliographic, chemical, 
# crystal, experimental, refinement or atomic coordinate data resulting 
# from the CCDC's data processing and validation procedures.
#
#######################################################################

data_WEDPUS
_symmetry_cell_setting           monoclinic
_symmetry_space_group_name_H-M   'P 21/c'
_symmetry_Int_Tables_number      14
_space_group_name_Hall           '-P 2ybc'
loop_
_symmetry_equiv_pos_site_id
_symmetry_equiv_pos_as_xyz
1 x,y,z
2 -x,1/2+y,1/2-z
3 -x,-y,-z
4 x,1/2-y,1/2+z
_cell_length_a                   9.762(3)
_cell_length_b                   11.378(3)
_cell_length_c                   23.668(7)
_cell_angle_alpha                90
_cell_angle_beta                 100.998(5)
_cell_angle_gamma                90
_cell_volume                     2580.57
loop_
_atom_site_label
_atom_site_type_symbol
_atom_site_fract_x
_atom_site_fract_y
_atom_site_fract_z
Cd1 Cd 0.074411(18) 0.825317(16) 0.187167(8)
O1 O -0.08825(19) 0.92652(16) 0.22929(9)
H1 H -0.1767(11) 0.896(2) 0.2293(12)
H2 H -0.102(2) 1.0065(5) 0.2224(11)
O2 O 0.25108(19) 0.83424(16) 0.26817(8)
O3 O 0.12622(17) 0.67233(16) 0.26485(8)
C1 C 0.2255(3) 0.7363(2) 0.28850(12)
C2 C 0.3193(2) 0.6971(2) 0.34267(11)
C3 C 0.2695(3) 0.6257(3) 0.38114(12)
H3 H 0.1771 0.6007 0.3731
C4 C 0.3552(4) 0.5911(3) 0.43139(14)
H4 H 0.3194 0.5459 0.4580
C5 C 0.4932(4) 0.6229(3) 0.44241(15)
H5 H 0.5517 0.5973 0.4758
C6 C 0.5446(3) 0.6924(3) 0.40420(15)
H6 H 0.6383 0.7137 0.4117
C7 C 0.4587(3) 0.7309(2) 0.35469(13)
H7 H 0.4939 0.7795 0.3293
O4 O 0.1485(2) 1.00911(16) 0.17126(9)
O5 O 0.00766(19) 0.95541(16) 0.09170(9)
C8 C 0.0798(3) 1.0309(2) 0.12132(14)
C9 C 0.0843(2) 1.1552(2) 0.10042(12)
C10 C 0.0623(2) 1.1794(3) 0.04249(12)
H8 H 0.0447 1.1188 0.0157
C11 C 0.0666(3) 1.2954(3) 0.02443(14)
H9 H 0.0533 1.3121 -0.0147
C12 C 0.0902(3) 1.3852(3) 0.06325(16)
H10 H 0.0924 1.4625 0.0507
C13 C 0.1106(3) 1.3605(2) 0.12096(15)
H11 H 0.1258 1.4214 0.1476
C14 C 0.1089(3) 1.2455(2) 0.13968(13)
H12 H 0.1243 1.2292 0.1789
N1 N -0.1125(2) 0.70904(18) 0.14206(9)
N2 N -0.7696(2) 0.72496(19) 0.13604(10)
C15 C -0.2149(3) 0.7524(2) 0.10220(12)
H13 H -0.2190 0.8333 0.0967
C16 C -0.3152(2) 0.6840(2) 0.06868(11)
H14 H -0.3846 0.7192 0.0416
C17 C -0.3132(2) 0.5627(2) 0.07508(11)
C18 C -0.2108(3) 0.5187(2) 0.11715(12)
H15 H -0.2062 0.4382 0.1242
C19 C -0.1135(3) 0.5930(2) 0.14954(12)
H16 H -0.0454 0.5600 0.1780
C20 C -0.4116(2) 0.4812(2) 0.03626(11)
H17 H -0.3863 0.3992 0.0456
C21 C -0.5736(2) 0.4978(2) 0.02918(11)
H18 H -0.6143 0.4207 0.0345
C22 C -0.6338(2) 0.5853(2) 0.06609(11)
C23 C -0.6191(3) 0.5651(2) 0.12430(12)
H19 H -0.5621 0.5044 0.1414
C24 C -0.6883(3) 0.6344(2) 0.15721(12)
H20 H -0.6781 0.6176 0.1962
C25 C -0.7770(3) 0.7481(2) 0.08094(13)
H21 H -0.8290 0.8129 0.0655
C26 C -0.7120(3) 0.6816(2) 0.04477(12)
H22 H -0.7211 0.7020 0.0062
Cd1B Cd -1.074411(18) 0.174683(16) -0.187167(8)
Cd1_2 Cd -0.925589(18) 0.825317(16) 0.187167(8)
Cd1B_2 Cd -0.074411(18) 0.174683(16) -0.187167(8)
O1B O -0.91175(19) 0.07348(16) -0.22929(9)
H1B H -0.8233(11) 0.104(2) -0.2293(12)
H2B H -0.898(2) -0.0065(5) -0.2224(11)
O2B O -1.25108(19) 0.16576(16) -0.26817(8)
O3B O -1.12622(17) 0.32767(16) -0.26485(8)
C1B C -1.2255(3) 0.2637(2) -0.28850(12)
C2B C -1.3193(2) 0.3029(2) -0.34267(11)
C3B C -1.2695(3) 0.3743(3) -0.38114(12)
H3B H -1.1771 0.3993 -0.3731
C4B C -1.3552(4) 0.4089(3) -0.43139(14)
H4B H -1.3194 0.4541 -0.4580
C5B C -1.4932(4) 0.3771(3) -0.44241(15)
H5B H -1.5517 0.4027 -0.4758
C6B C -1.5446(3) 0.3076(3) -0.40420(15)
H6B H -1.6383 0.2863 -0.4117
C7B C -1.4587(3) 0.2691(2) -0.35469(13)
H7B H -1.4939 0.2205 -0.3293
O4B O -1.1485(2) -0.00911(16) -0.17126(9)
O5B O -1.00766(19) 0.04459(16) -0.09170(9)
C8B C -1.0798(3) -0.0309(2) -0.12132(14)
C9B C -1.0843(2) -0.1552(2) -0.10042(12)
C10B C -1.0623(2) -0.1794(3) -0.04249(12)
H8B H -1.0447 -0.1188 -0.0157
C11B C -1.0666(3) -0.2954(3) -0.02443(14)
H9B H -1.0533 -0.3121 0.0147
C12B C -1.0902(3) -0.3852(3) -0.06325(16)
H10B H -1.0924 -0.4625 -0.0507
C13B C -1.1106(3) -0.3605(2) -0.12096(15)
H11B H -1.1258 -0.4214 -0.1476
C14B C -1.1089(3) -0.2455(2) -0.13968(13)
H12B H -1.1243 -0.2292 -0.1789
N1B N -0.8875(2) 0.29096(18) -0.14206(9)
N2B N -0.2304(2) 0.27504(19) -0.13604(10)
N2_2 N 0.2304(2) 0.72496(19) 0.13604(10)
N2B_2 N -1.2304(2) 0.27504(19) -0.13604(10)
C15B C -0.7851(3) 0.2476(2) -0.10220(12)
H13B H -0.7810 0.1667 -0.0967
C16B C -0.6848(2) 0.3160(2) -0.06868(11)
H14B H -0.6154 0.2808 -0.0416
C17B C -0.6868(2) 0.4373(2) -0.07508(11)
C18B C -0.7892(3) 0.4813(2) -0.11715(12)
H15B H -0.7938 0.5618 -0.1242
C19B C -0.8865(3) 0.4070(2) -0.14954(12)
H16B H -0.9546 0.4400 -0.1780
C20B C -0.5884(2) 0.5188(2) -0.03626(11)
H17B H -0.6137 0.6008 -0.0456
C21B C -0.4264(2) 0.5022(2) -0.02918(11)
H18B H -0.3857 0.5793 -0.0345
C22B C -0.3662(2) 0.4147(2) -0.06609(11)
C23B C -0.3809(3) 0.4349(2) -0.12430(12)
H19B H -0.4379 0.4956 -0.1414
C24B C -0.3117(3) 0.3656(2) -0.15721(12)
H20B H -0.3219 0.3824 -0.1962
C25B C -0.2230(3) 0.2519(2) -0.08094(13)
H21B H -0.1710 0.1871 -0.0655
C26B C -0.2880(3) 0.3184(2) -0.04477(12)
H22B H -0.2789 0.2980 -0.0062
O6 O 0.6576(3) 0.8358(2) 0.22976(15)
H23 H 0.6467 0.7644 0.2307
C27 C 0.5461(4) 0.8848(4) 0.19614(19)
H24 H 0.4634 0.8643 0.2103
H25 H 0.5385 0.8566 0.1574
H26 H 0.5567 0.9687 0.1967
O7 O 0.3507(3) 0.0954(3) 0.25715(13)
H27 H 0.405(3) 0.031(2) 0.2511(18)
H28 H 0.274(2) 0.081(3) 0.2280(11)
loop_
_geom_bond_atom_site_label_1
_geom_bond_atom_site_label_2
_geom_bond_site_symmetry_1
_geom_bond_site_symmetry_2
Cd1 O1 1_555 1_555
O1 H1 1_555 1_555
H2 O1 1_555 1_555
O2 Cd1 1_555 1_555
O3 Cd1 1_555 1_555
C1 O2 1_555 1_555
C2 C1 1_555 1_555
C3 C2 1_555 1_555
H3 C3 1_555 1_555
C4 C3 1_555 1_555
H4 C4 1_555 1_555
C5 C4 1_555 1_555
H5 C5 1_555 1_555
C6 C5 1_555 1_555
H6 C6 1_555 1_555
C7 C2 1_555 1_555
H7 C7 1_555 1_555
O4 Cd1 1_555 1_555
O5 Cd1 1_555 1_555
C8 O4 1_555 1_555
C9 C8 1_555 1_555
C10 C9 1_555 1_555
H8 C10 1_555 1_555
C11 C10 1_555 1_555
H9 C11 1_555 1_555
C12 C11 1_555 1_555
H10 C12 1_555 1_555
C13 C12 1_555 1_555
H11 C13 1_555 1_555
C14 C9 1_555 1_555
H12 C14 1_555 1_555
N1 Cd1 1_555 1_555
N2 C24 1_555 1_555
C15 N1 1_555 1_555
H13 C15 1_555 1_555
C16 C15 1_555 1_555
H14 C16 1_555 1_555
C17 C16 1_555 1_555
C18 C17 1_555 1_555
H15 C18 1_555 1_555
C19 N1 1_555 1_555
H16 C19 1_555 1_555
C20 C17 1_555 1_555
H17 C20 1_555 1_555
C21 C20 1_555 1_555
H18 C21 1_555 1_555
C22 C21 1_555 1_555
C23 C22 1_555 1_555
H19 C23 1_555 1_555
C24 C23 1_555 1_555
H20 C24 1_555 1_555
C25 N2 1_555 1_555
H21 C25 1_555 1_555
C26 C22 1_555 1_555
H22 C26 1_555 1_555
O6 H23 1_555 1_555
C27 O6 1_555 1_555
H24 C27 1_555 1_555
H25 C27 1_555 1_555
H26 C27 1_555 1_555
O7 H27 1_555 1_555
H28 O7 1_555 1_555
Cd1B O1B 1_555 1_555
Cd1_2 N2 1_555 1_555
Cd1B_2 N2B 1_555 1_555
O1B H1B 1_555 1_555
H2B O1B 1_555 1_555
O2B Cd1B 1_555 1_555
O3B Cd1B 1_555 1_555
C1B O2B 1_555 1_555
C2B C1B 1_555 1_555
C3B C2B 1_555 1_555
H3B C3B 1_555 1_555
C4B C3B 1_555 1_555
H4B C4B 1_555 1_555
C5B C4B 1_555 1_555
H5B C5B 1_555 1_555
C6B C5B 1_555 1_555
H6B C6B 1_555 1_555
C7B C2B 1_555 1_555
H7B C7B 1_555 1_555
O4B Cd1B 1_555 1_555
O5B Cd1B 1_555 1_555
C8B O4B 1_555 1_555
C9B C8B 1_555 1_555
C10B C9B 1_555 1_555
H8B C10B 1_555 1_555
C11B C10B 1_555 1_555
H9B C11B 1_555 1_555
C12B C11B 1_555 1_555
H10B C12B 1_555 1_555
C13B C12B 1_555 1_555
H11B C13B 1_555 1_555
C14B C9B 1_555 1_555
H12B C14B 1_555 1_555
N1B Cd1B 1_555 1_555
N2B C24B 1_555 1_555
N2_2 Cd1 1_555 1_555
N2B_2 Cd1B 1_555 1_555
C15B N1B 1_555 1_555
H13B C15B 1_555 1_555
C16B C15B 1_555 1_555
H14B C16B 1_555 1_555
C17B C16B 1_555 1_555
C18B C17B 1_555 1_555
H15B C18B 1_555 1_555
C19B N1B 1_555 1_555
H16B C19B 1_555 1_555
C20B C21 1_555 1_555
H17B C20B 1_555 1_555
C21B C20 1_555 1_555
H18B C21B 1_555 1_555
C22B C21B 1_555 1_555
C23B C22B 1_555 1_555
H19B C23B 1_555 1_555
C24B C23B 1_555 1_555
H20B C24B 1_555 1_555
C25B N2B 1_555 1_555
H21B C25B 1_555 1_555
C26B C22B 1_555 1_555
H22B C26B 1_555 1_555
O3 C1 1_555 1_555
C6 C7 1_555 1_555
O5 C8 1_555 1_555
C13 C14 1_555 1_555
C18 C19 1_555 1_555
C25 C26 1_555 1_555
O3B C1B 1_555 1_555
C6B C7B 1_555 1_555
O5B C8B 1_555 1_555
C13B C14B 1_555 1_555
C17B C20B 1_555 1_555
C18B C19B 1_555 1_555
C20B C21B 1_555 1_555
C25B C26B 1_555 1_555

#END
