
#######################################################################
#
#                 Cambridge Crystallographic Data Centre
#                                CCDC 
#
#######################################################################
#
# If this CIF has been generated from an entry in the Cambridge 
# Structural Database, then it will include bibliographic, chemical, 
# crystal, experimental, refinement or atomic coordinate data resulting 
# from the CCDC's data processing and validation procedures.
#
#######################################################################

data_WEDVIL
_symmetry_cell_setting           orthorhombic
_symmetry_space_group_name_H-M   'P 21 21 21'
_symmetry_Int_Tables_number      19
_space_group_name_Hall           'P 2ac 2ab'
loop_
_symmetry_equiv_pos_site_id
_symmetry_equiv_pos_as_xyz
1 x,y,z
2 1/2-x,-y,1/2+z
3 1/2+x,1/2-y,-z
4 -x,1/2+y,1/2-z
_cell_length_a                   9.2740(1)
_cell_length_b                   14.9330(2)
_cell_length_c                   17.3490(2)
_cell_angle_alpha                90
_cell_angle_beta                 90
_cell_angle_gamma                90
_cell_volume                     2402.64
loop_
_atom_site_label
_atom_site_type_symbol
_atom_site_fract_x
_atom_site_fract_y
_atom_site_fract_z
Li1 Li 0.30103(18) 0.68778(11) 0.66404(9)
O1 O 0.25692(8) 0.61719(4) 0.74641(3)
N1 N 0.28203(10) 0.35513(5) 1.05910(4)
N2 N 0.52766(9) 0.67023(6) 0.64383(5)
N3 N 0.26271(9) 0.82760(5) 0.65449(4)
C1 C 0.25599(9) 0.56627(6) 0.80585(4)
C2 C 0.26137(10) 0.60398(6) 0.88316(5)
C3 C 0.26829(10) 0.54716(6) 0.94591(5)
C4 C 0.26730(10) 0.45371(6) 0.93730(5)
C5 C 0.25545(10) 0.41642(6) 0.86317(5)
C6 C 0.24927(9) 0.46935(5) 0.79800(4)
C7 C 0.27562(10) 0.39829(6) 1.00411(5)
C8 C 0.25895(12) 0.70581(6) 0.89456(5)
C9 C 0.25841(18) 0.73181(7) 0.98045(6)
C10 C 0.12179(15) 0.74514(8) 0.85840(7)
C11 C 0.39319(15) 0.74902(8) 0.85830(7)
C12 C 0.23456(10) 0.42692(6) 0.71749(5)
C13 C 0.22676(12) 0.32414(6) 0.72149(5)
C14 C 0.09501(11) 0.46045(7) 0.67906(6)
C15 C 0.36606(11) 0.45061(7) 0.66727(5)
C16 C 0.59137(11) 0.69055(7) 0.57667(6)
C17 C 0.73266(12) 0.66853(8) 0.55928(6)
C18 C 0.81327(13) 0.62310(9) 0.61372(7)
C19 C 0.74926(13) 0.60126(8) 0.68342(6)
C20 C 0.60724(11) 0.62571(7) 0.69589(6)
C21 C 0.37776(11) 0.88182(7) 0.65063(6)
C22 C 0.37047(11) 0.97140(7) 0.63024(7)
C23 C 0.23636(12) 1.00777(7) 0.61360(6)
C24 C 0.11598(11) 0.95347(8) 0.61822(7)
C25 C 0.13433(11) 0.86441(8) 0.63835(6)
H1 H 0.2738(14) 0.5705(8) 0.9979(7)
H2 H 0.2520(13) 0.3519(8) 0.8573(6)
H3 H 0.1717(17) 0.7049(11) 1.0088(9)
H4 H 0.3479(18) 0.7115(11) 1.0075(9)
H5 H 0.2612(17) 0.7985(10) 0.9860(8)
H6 H 0.0379(17) 0.7194(10) 0.8842(9)
H7 H 0.1199(19) 0.8107(13) 0.8660(10)
H8 H 0.1131(16) 0.7310(10) 0.8029(9)
H9 H 0.3962(16) 0.7387(10) 0.8048(9)
H10 H 0.4826(18) 0.7244(11) 0.8805(10)
H11 H 0.3917(16) 0.8146(11) 0.8673(9)
H12 H 0.3157(15) 0.2990(9) 0.7436(8)
H13 H 0.1456(14) 0.3026(9) 0.7544(7)
H14 H 0.2163(15) 0.3012(9) 0.6682(8)
H15 H 0.0937(15) 0.5263(9) 0.6740(8)
H16 H 0.0098(14) 0.4413(9) 0.7087(8)
H17 H 0.0885(16) 0.4351(10) 0.6243(8)
H18 H 0.3633(15) 0.4168(9) 0.6180(8)
H19 H 0.3692(15) 0.5145(10) 0.6561(8)
H20 H 0.4540(14) 0.4325(9) 0.6928(8)
H21 H 0.5308(16) 0.7215(9) 0.5391(8)
H22 H 0.7749(17) 0.6852(10) 0.5074(8)
H23 H 0.9106(18) 0.6061(10) 0.6029(9)
H24 H 0.8010(17) 0.5668(11) 0.7213(9)
H25 H 0.5619(14) 0.6117(9) 0.7435(8)
H26 H 0.4694(13) 0.8535(8) 0.6638(7)
H27 H 0.4561(17) 1.0059(10) 0.6288(9)
H28 H 0.2301(15) 1.0708(9) 0.5977(8)
H29 H 0.0225(17) 0.9741(10) 0.6076(9)
H30 H 0.0535(15) 0.8233(9) 0.6405(8)
Li1A Li 0.19897(18) 0.31222(11) 1.16404(9)
N1A N 0.21797(10) 0.64487(5) 0.55910(4)
loop_
_geom_bond_atom_site_label_1
_geom_bond_atom_site_label_2
_geom_bond_site_symmetry_1
_geom_bond_site_symmetry_2
Li1 O1 1_555 1_555
O1 C1 1_555 1_555
N1 C7 1_555 1_555
N2 Li1 1_555 1_555
N3 Li1 1_555 1_555
C1 C2 1_555 1_555
C2 C3 1_555 1_555
C3 C4 1_555 1_555
C4 C5 1_555 1_555
C5 C6 1_555 1_555
C6 C1 1_555 1_555
C7 C4 1_555 1_555
C8 C2 1_555 1_555
C9 C8 1_555 1_555
C10 C8 1_555 1_555
C11 C8 1_555 1_555
C12 C6 1_555 1_555
C13 C12 1_555 1_555
C14 C12 1_555 1_555
C15 C12 1_555 1_555
C16 N2 1_555 1_555
C17 C16 1_555 1_555
C18 C17 1_555 1_555
C19 C18 1_555 1_555
C20 N2 1_555 1_555
C21 N3 1_555 1_555
C22 C21 1_555 1_555
C23 C22 1_555 1_555
C24 C23 1_555 1_555
C25 N3 1_555 1_555
H1 C3 1_555 1_555
H2 C5 1_555 1_555
H3 C9 1_555 1_555
H4 C9 1_555 1_555
H5 C9 1_555 1_555
H6 C10 1_555 1_555
H7 C10 1_555 1_555
H8 C10 1_555 1_555
H9 C11 1_555 1_555
H10 C11 1_555 1_555
H11 C11 1_555 1_555
H12 C13 1_555 1_555
H13 C13 1_555 1_555
H14 C13 1_555 1_555
H15 C14 1_555 1_555
H16 C14 1_555 1_555
H17 C14 1_555 1_555
H18 C15 1_555 1_555
H19 C15 1_555 1_555
H20 C15 1_555 1_555
H21 C16 1_555 1_555
H22 C17 1_555 1_555
H23 C18 1_555 1_555
H24 C19 1_555 1_555
H25 C20 1_555 1_555
H26 C21 1_555 1_555
H27 C22 1_555 1_555
H28 C23 1_555 1_555
H29 C24 1_555 1_555
H30 C25 1_555 1_555
Li1A N1 1_555 1_555
N1A Li1 1_555 1_555
C19 C20 1_555 1_555
C24 C25 1_555 1_555

#END
