
#######################################################################
#
#                 Cambridge Crystallographic Data Centre
#                                CCDC 
#
#######################################################################
#
# If this CIF has been generated from an entry in the Cambridge 
# Structural Database, then it will include bibliographic, chemical, 
# crystal, experimental, refinement or atomic coordinate data resulting 
# from the CCDC's data processing and validation procedures.
#
#######################################################################

data_WEDWUZ
_symmetry_cell_setting           triclinic
_symmetry_space_group_name_H-M   'P -1'
_symmetry_Int_Tables_number      2
_space_group_name_Hall           '-P 1'
loop_
_symmetry_equiv_pos_site_id
_symmetry_equiv_pos_as_xyz
1 x,y,z
2 -x,-y,-z
_cell_length_a                   9.851(4)
_cell_length_b                   14.822(6)
_cell_length_c                   20.233(9)
_cell_angle_alpha                73.448(5)
_cell_angle_beta                 82.987(5)
_cell_angle_gamma                77.721(5)
_cell_volume                     2761.08
loop_
_atom_site_label
_atom_site_type_symbol
_atom_site_fract_x
_atom_site_fract_y
_atom_site_fract_z
Sm1 Sm 0.66373(4) 0.95299(3) 0.18839(3)
Sm2 Sm 1.12957(4) 0.94780(3) 0.20334(3)
Br1 Br 1.50232(14) 0.57690(12) 0.13579(8)
Br2 Br 1.37573(12) 0.38309(8) 0.05492(6)
Br3 Br 0.96259(11) 0.50287(7) 0.33786(6)
Br4 Br 0.78374(13) 0.32436(9) 0.27204(8)
Br5 Br 1.32729(12) 0.62675(9) 0.50820(6)
Br6 Br 1.01729(14) 1.18481(10) 0.43655(8)
C1 C 1.0235(12) 0.5204(7) 0.1438(6)
H1 H 1.0400 0.4560 0.1445
C2 C 0.8896(11) 0.5665(8) 0.1483(6)
H2 H 0.8169 0.5334 0.1533
C3 C 0.8618(10) 0.6636(7) 0.1452(6)
H3 H 0.7707 0.6972 0.1464
C4 C 0.9733(9) 0.7085(7) 0.1404(5)
C5 C 1.1068(10) 0.6562(7) 0.1379(6)
H4 H 1.1812 0.6866 0.1358
C6 C 0.9539(10) 0.8130(7) 0.1390(6)
C7 C 0.8862(11) 1.3990(8) 0.0427(6)
H5 H 0.8957 1.4628 0.0267
C8 C 1.0047(11) 1.3319(8) 0.0489(7)
H6 H 1.0912 1.3499 0.0366
C9 C 0.9950(10) 1.2364(7) 0.0737(7)
H7 H 1.0741 1.1886 0.0800
C10 C 0.8641(9) 1.2148(6) 0.0888(5)
C11 C 0.7490(10) 1.2888(6) 0.0796(5)
H8 H 0.6610 1.2729 0.0893
C12 C 0.8418(9) 1.1133(7) 0.1152(5)
C13 C 0.5626(9) 0.6251(6) 0.2913(5)
H9 H 0.6468 0.6461 0.2781
C14 C 0.4409(8) 0.6898(6) 0.2720(5)
C15 C 0.3159(9) 0.6582(7) 0.2924(6)
H10 H 0.2319 0.6991 0.2800
C16 C 0.3182(10) 0.5652(8) 0.3314(6)
H11 H 0.2353 0.5427 0.3457
C17 C 0.4425(11) 0.5060(8) 0.3489(6)
H12 H 0.4419 0.4440 0.3764
C18 C 0.4477(9) 0.7897(6) 0.2283(5)
C19 C 0.9819(10) 0.7020(7) 0.4222(5)
H13 H 1.0695 0.7186 0.4127
C20 C 0.8826(9) 0.7463(6) 0.3741(5)
C21 C 0.7508(10) 0.7216(7) 0.3887(5)
H14 H 0.6804 0.7512 0.3586
C22 C 0.7275(11) 0.6515(8) 0.4493(6)
H15 H 0.6423 0.6315 0.4594
C23 C 0.8307(11) 0.6130(8) 0.4933(6)
H16 H 0.8129 0.5674 0.5340
C24 C 0.9177(10) 0.8161(7) 0.3095(6)
C25 C 0.5141(13) 1.1749(9) 0.4632(7)
H17 H 0.4953 1.2107 0.4954
C26 C 0.4140(13) 1.1258(11) 0.4567(7)
H18 H 0.3313 1.1273 0.4843
C27 C 0.4409(13) 1.0749(10) 0.4081(7)
H19 H 0.3751 1.0418 0.4022
C28 C 0.5636(10) 1.0723(8) 0.3683(6)
C29 C 0.6590(11) 1.1234(8) 0.3802(6)
H20 H 0.7437 1.1217 0.3542
C30 C 0.5982(10) 1.0226(7) 0.3126(6)
C31 C 0.1926(10) 1.2275(7) 0.2460(6)
H21 H 0.1179 1.1988 0.2448
C32 C 0.3203(8) 1.1924(6) 0.2178(5)
C33 C 0.4342(10) 1.2344(7) 0.2208(5)
H22 H 0.5228 1.2120 0.2034
C34 C 0.4096(10) 1.3101(7) 0.2508(6)
H23 H 0.4825 1.3393 0.2538
C35 C 0.2785(10) 1.3418(7) 0.2758(6)
H24 H 0.2640 1.3942 0.2942
C36 C 0.3360(9) 1.1100(6) 0.1870(5)
Cu1 Cu 1.32821(15) 0.50302(11) 0.11462(9)
Cu2 Cu 0.59362(16) 1.48721(10) 0.05298(9)
Cu3 Cu 0.74107(15) 0.43905(11) 0.34141(10)
Cu4 Cu 1.09836(17) 0.59986(12) 0.55335(8)
Cu5 Cu 0.77388(16) 1.25655(11) 0.42846(10)
Cu6 Cu -0.01460(15) 1.33135(13) 0.32708(10)
N1 N 1.1342(9) 0.5629(6) 0.1385(5)
N2 N 0.7574(8) 1.3813(5) 0.0576(4)
N3 N 0.5657(8) 0.5337(5) 0.3280(4)
N4 N 0.9585(8) 0.6371(6) 0.4812(4)
N5 N 0.6346(9) 1.1742(7) 0.4266(5)
N6 N 0.1695(8) 1.3009(6) 0.2751(5)
O1 O 1.0557(7) 0.8408(5) 0.1513(4)
O2 O 0.8339(7) 0.8628(5) 0.1262(4)
O3 O 0.7253(7) 1.0960(5) 0.1080(4)
O4 O 0.9363(7) 1.0493(5) 0.1446(4)
O5 O 0.3393(6) 0.8390(5) 0.2013(4)
O6 O 0.5625(7) 0.8163(5) 0.2219(4)
O7 O 1.0409(7) 0.8329(5) 0.2985(4)
O8 O 0.8248(7) 0.8562(6) 0.2672(4)
O9 O 0.5328(7) 0.9612(5) 0.3084(4)
O10 O 0.6948(7) 1.0479(5) 0.2667(4)
O11 O 0.2283(7) 1.0857(5) 0.1781(4)
O12 O 0.4563(7) 1.0691(5) 0.1732(4)
O13 O 0.5632(9) 0.9577(6) 0.0791(5)
O14 O 1.2584(8) 0.9317(6) 0.3090(4)
O15 O 0.9764(7) 1.0395(5) 0.2798(4)
O16 O 1.2270(9) 0.9764(6) 0.0787(4)
Sm1_2 Sm -0.33627(4) 0.95299(3) 0.18839(3)
Sm1_3 Sm 1.66373(4) 0.95299(3) 0.18839(3)
Sm2_2 Sm 0.12957(4) 0.94780(3) 0.20334(3)
Br1_2 Br 0.50232(14) 1.57690(12) 0.13579(8)
Br2A Br 0.62427(12) 1.61691(8) -0.05492(6)
Br2_2 Br 0.37573(12) 1.38309(8) 0.05492(6)
Br2A_2 Br 1.62427(12) 0.61691(8) -0.05492(6)
Br3A Br 1.03741(11) 0.49713(7) 0.66214(6)
Br3_2 Br -0.03741(11) 1.50287(7) 0.33786(6)
Br4_2 Br -0.21626(13) 1.32436(9) 0.27204(8)
Br4A Br 1.21626(13) 0.67564(9) 0.72796(8)
Br5A Br 0.67271(12) 1.37325(9) 0.49180(6)
Br5A_2 Br 0.67271(12) 0.37325(9) 0.49180(6)
Br6_2 Br 0.01729(14) 1.18481(10) 0.43655(8)
Br6A Br 0.98271(14) 0.81519(10) 0.56345(8)
Br6_3 Br 1.01729(14) 0.18481(10) 0.43655(8)
C1_2 C 0.0235(12) 0.5204(7) 0.1438(6)
H1_2 H 0.0400 0.4560 0.1445
C2_2 C -0.1104(11) 0.5665(8) 0.1483(6)
H2_2 H -0.1831 0.5334 0.1533
C3_2 C -0.1382(10) 0.6636(7) 0.1452(6)
H3_2 H -0.2293 0.6972 0.1464
C4_2 C -0.0267(9) 0.7085(7) 0.1404(5)
C5_2 C 0.1068(10) 0.6562(7) 0.1379(6)
H4_2 H 0.1812 0.6866 0.1358
C6_2 C -0.0461(10) 0.8130(7) 0.1390(6)
C7_2 C -0.1138(11) 1.3990(8) 0.0427(6)
H5_2 H -0.1043 1.4628 0.0267
C8_2 C 0.0047(11) 1.3319(8) 0.0489(7)
H6_2 H 0.0912 1.3499 0.0366
C9_2 C -0.0050(10) 1.2364(7) 0.0737(7)
H7_2 H 0.0741 1.1886 0.0800
C10_2 C -0.1359(9) 1.2148(6) 0.0888(5)
C11_2 C -0.2510(10) 1.2888(6) 0.0796(5)
H8_2 H -0.3390 1.2729 0.0893
C12_2 C -0.1582(9) 1.1133(7) 0.1152(5)
C13_2 C 1.5626(9) 0.6251(6) 0.2913(5)
H9_2 H 1.6468 0.6461 0.2781
C14_2 C 1.4409(8) 0.6898(6) 0.2720(5)
C15_2 C 1.3159(9) 0.6582(7) 0.2924(6)
H10_2 H 1.2319 0.6991 0.2800
C16_2 C 1.3182(10) 0.5652(8) 0.3314(6)
H11_2 H 1.2353 0.5427 0.3457
C17_2 C 1.4425(11) 0.5060(8) 0.3489(6)
H12_2 H 1.4419 0.4440 0.3764
C18_2 C 1.4477(9) 0.7897(6) 0.2283(5)
C19_2 C -0.0181(10) 0.7020(7) 0.4222(5)
H13_2 H 0.0695 0.7186 0.4127
C20_2 C -0.1174(9) 0.7463(6) 0.3741(5)
C21_2 C -0.2492(10) 0.7216(7) 0.3887(5)
H14_2 H -0.3196 0.7512 0.3586
C22_2 C -0.2725(11) 0.6515(8) 0.4493(6)
H15_2 H -0.3577 0.6315 0.4594
C23_2 C -0.1693(11) 0.6130(8) 0.4933(6)
H16_2 H -0.1871 0.5674 0.5340
C24_2 C -0.0823(10) 0.8161(7) 0.3095(6)
C25_2 C -0.4859(13) 1.1749(9) 0.4632(7)
H17_2 H -0.5047 1.2107 0.4954
C26_2 C -0.5860(13) 1.1258(11) 0.4567(7)
H18_2 H -0.6687 1.1273 0.4843
C27_2 C -0.5591(13) 1.0749(10) 0.4081(7)
H19_2 H -0.6249 1.0418 0.4022
C28_2 C -0.4364(10) 1.0723(8) 0.3683(6)
C29_2 C -0.3410(11) 1.1234(8) 0.3802(6)
H20_2 H -0.2563 1.1217 0.3542
C30_2 C -0.4018(10) 1.0226(7) 0.3126(6)
C31_2 C 1.1926(10) 1.2275(7) 0.2460(6)
H21_2 H 1.1179 1.1988 0.2448
C32_2 C 1.3203(8) 1.1924(6) 0.2178(5)
C33_2 C 1.4342(10) 1.2344(7) 0.2208(5)
H22_2 H 1.5228 1.2120 0.2034
C34_2 C 1.4096(10) 1.3101(7) 0.2508(6)
H23_2 H 1.4825 1.3393 0.2538
C35_2 C 1.2785(10) 1.3418(7) 0.2758(6)
H24_2 H 1.2640 1.3942 0.2942
C36_2 C 1.3360(9) 1.1100(6) 0.1870(5)
Cu1_2 Cu 0.32821(15) 1.50302(11) 0.11462(9)
Cu1A Cu 0.67179(15) 1.49698(11) -0.11462(9)
Cu1_3 Cu 0.32821(15) 0.50302(11) 0.11462(9)
Cu2_2 Cu 1.59362(16) 0.48721(10) 0.05298(9)
Cu2A Cu 1.40638(16) 0.51279(10) -0.05298(9)
Cu2_3 Cu -0.40638(16) 1.48721(10) 0.05298(9)
Cu3A Cu 1.25893(15) 0.56095(11) 0.65859(10)
Cu3_2 Cu 1.74107(15) 0.43905(11) 0.34141(10)
Cu3_3 Cu -0.25893(15) 1.43905(11) 0.34141(10)
Cu4A Cu 0.90164(17) 0.40014(12) 0.44665(8)
Cu4A_2 Cu 0.90164(17) 1.40014(12) 0.44665(8)
Cu4_2 Cu 0.09836(17) 0.59986(12) 0.55335(8)
Cu5A Cu 1.22612(16) 0.74345(11) 0.57154(10)
Cu5_2 Cu -0.22612(16) 1.25655(11) 0.42846(10)
Cu6_2 Cu 0.98540(15) 0.33135(13) 0.32708(10)
Cu6_3 Cu 0.98540(15) 1.33135(13) 0.32708(10)
Cu6A Cu 1.01460(15) 0.66865(13) 0.67292(10)
N1_2 N 0.1342(9) 0.5629(6) 0.1385(5)
N1_3 N 0.1342(9) 1.5629(6) 0.1385(5)
N2_2 N -0.2426(8) 1.3813(5) 0.0576(4)
N2_3 N 1.7574(8) 0.3813(5) 0.0576(4)
N3_2 N 1.5657(8) 0.5337(5) 0.3280(4)
N3A N 1.4343(8) 0.4663(5) 0.6720(4)
N4_2 N -0.0415(8) 0.6371(6) 0.4812(4)
N4A N 1.0415(8) 0.3629(6) 0.5188(4)
N5_2 N -0.3654(9) 1.1742(7) 0.4266(5)
N5A N 1.3654(9) 0.8258(7) 0.5734(5)
N6_2 N 1.1695(8) 1.3009(6) 0.2751(5)
N6_3 N 1.1695(8) 0.3009(6) 0.2751(5)
O1_2 O 0.0557(7) 0.8408(5) 0.1513(4)
O2_2 O -0.1661(7) 0.8628(5) 0.1262(4)
O3_2 O -0.2747(7) 1.0960(5) 0.1080(4)
O4_2 O -0.0637(7) 1.0493(5) 0.1446(4)
O5_2 O 1.3393(6) 0.8390(5) 0.2013(4)
O6_2 O 1.5625(7) 0.8163(5) 0.2219(4)
O6_3 O -0.4375(7) 0.8163(5) 0.2219(4)
O7_2 O 0.0409(7) 0.8329(5) 0.2985(4)
O8_2 O -0.1752(7) 0.8562(6) 0.2672(4)
O9_2 O -0.4672(7) 0.9612(5) 0.3084(4)
O10_2 O -0.3052(7) 1.0479(5) 0.2667(4)
O11_2 O 1.2283(7) 1.0857(5) 0.1781(4)
O12_2 O 1.4563(7) 1.0691(5) 0.1732(4)
O12_3 O -0.5437(7) 1.0691(5) 0.1732(4)
O13_2 O -0.4368(9) 0.9577(6) 0.0791(5)
O14_2 O 0.2584(8) 0.9317(6) 0.3090(4)
O15_2 O -0.0236(7) 1.0395(5) 0.2798(4)
O16_2 O 0.2270(9) 0.9764(6) 0.0787(4)
O17 O 0.0720(14) 0.9680(8) 0.4148(6)
O18 O 0.0000 0.0000 0.0000
O19 O 0.4028(17) 0.8232(10) 0.0282(7)
O20 O 0.675(2) 0.8426(13) 0.9957(9)
loop_
_geom_bond_atom_site_label_1
_geom_bond_atom_site_label_2
_geom_bond_site_symmetry_1
_geom_bond_site_symmetry_2
Sm1 O2 1_555 1_555
Sm2 O1 1_555 1_555
Br1 Cu1 1_555 1_555
Br2 Cu1 1_555 1_555
Br3 Cu3 1_555 1_555
Br4 Cu3 1_555 1_555
Br5 Cu4 1_555 1_555
Br6 Cu5 1_555 1_555
C1 H1 1_555 1_555
C2 C1 1_555 1_555
H2 C2 1_555 1_555
C3 C2 1_555 1_555
H3 C3 1_555 1_555
C4 C3 1_555 1_555
C5 C4 1_555 1_555
H4 C5 1_555 1_555
C6 C4 1_555 1_555
C7 H5 1_555 1_555
C8 C7 1_555 1_555
H6 C8 1_555 1_555
C9 C8 1_555 1_555
H7 C9 1_555 1_555
C10 C9 1_555 1_555
C11 C10 1_555 1_555
H8 C11 1_555 1_555
C12 C10 1_555 1_555
C13 H9 1_555 1_555
C14 C13 1_555 1_555
C15 C14 1_555 1_555
H10 C15 1_555 1_555
C16 C15 1_555 1_555
H11 C16 1_555 1_555
C17 C16 1_555 1_555
H12 C17 1_555 1_555
C18 C14 1_555 1_555
C19 H13 1_555 1_555
C20 C19 1_555 1_555
C21 C20 1_555 1_555
H14 C21 1_555 1_555
C22 C21 1_555 1_555
H15 C22 1_555 1_555
C23 C22 1_555 1_555
H16 C23 1_555 1_555
C24 C20 1_555 1_555
C25 H17 1_555 1_555
C26 C25 1_555 1_555
H18 C26 1_555 1_555
C27 C26 1_555 1_555
H19 C27 1_555 1_555
C28 C27 1_555 1_555
C29 C28 1_555 1_555
H20 C29 1_555 1_555
C30 C28 1_555 1_555
C31 H21 1_555 1_555
C32 C31 1_555 1_555
C33 C32 1_555 1_555
H22 C33 1_555 1_555
C34 C33 1_555 1_555
H23 C34 1_555 1_555
C35 C34 1_555 1_555
H24 C35 1_555 1_555
C36 C32 1_555 1_555
Cu1 N1 1_555 1_555
Cu2 N2 1_555 1_555
Cu3 N3 1_555 1_555
Cu4 N4 1_555 1_555
Cu5 N5 1_555 1_555
Cu6 N6 1_555 1_555
N1 C1 1_555 1_555
N2 C7 1_555 1_555
N3 C13 1_555 1_555
N4 C19 1_555 1_555
N5 C25 1_555 1_555
N6 C31 1_555 1_555
O1 C6 1_555 1_555
O2 C6 1_555 1_555
O3 Sm1 1_555 1_555
O4 Sm2 1_555 1_555
O5 C18 1_555 1_555
O6 Sm1 1_555 1_555
O7 Sm2 1_555 1_555
O8 Sm1 1_555 1_555
O9 Sm1 1_555 1_555
O10 Sm1 1_555 1_555
O11 C36 1_555 1_555
O12 Sm1 1_555 1_555
O13 Sm1 1_555 1_555
O14 Sm2 1_555 1_555
O15 Sm2 1_555 1_555
O16 Sm2 1_555 1_555
Sm1_2 O2_2 1_555 1_555
Sm1_3 O6_2 1_555 1_555
Sm2_2 O5 1_555 1_555
Br1_2 Cu2 1_555 1_555
Br2A Cu2 1_555 1_555
Br2_2 Cu1_2 1_555 1_555
Br2A_2 Cu2_2 1_555 1_555
Br3A Cu4 1_555 1_555
Br3_2 Cu6 1_555 1_555
Br4_2 Cu6 1_555 1_555
Br4A Cu3A 1_555 1_555
Br5A Cu5 1_555 1_555
Br5A_2 Cu4A 1_555 1_555
Br6_2 Cu6 1_555 1_555
Br6A Cu5A 1_555 1_555
Br6_3 Cu6_2 1_555 1_555
C1_2 H1_2 1_555 1_555
C2_2 C1_2 1_555 1_555
H2_2 C2_2 1_555 1_555
C3_2 C2_2 1_555 1_555
H3_2 C3_2 1_555 1_555
C4_2 C3_2 1_555 1_555
C5_2 C4_2 1_555 1_555
H4_2 C5_2 1_555 1_555
C6_2 C4_2 1_555 1_555
C7_2 H5_2 1_555 1_555
C8_2 C7_2 1_555 1_555
H6_2 C8_2 1_555 1_555
C9_2 C8_2 1_555 1_555
H7_2 C9_2 1_555 1_555
C10_2 C9_2 1_555 1_555
C11_2 C10_2 1_555 1_555
H8_2 C11_2 1_555 1_555
C12_2 C10_2 1_555 1_555
C13_2 H9_2 1_555 1_555
C14_2 C13_2 1_555 1_555
C15_2 C14_2 1_555 1_555
H10_2 C15_2 1_555 1_555
C16_2 C15_2 1_555 1_555
H11_2 C16_2 1_555 1_555
C17_2 C16_2 1_555 1_555
H12_2 C17_2 1_555 1_555
C18_2 C14_2 1_555 1_555
C19_2 H13_2 1_555 1_555
C20_2 C19_2 1_555 1_555
C21_2 C20_2 1_555 1_555
H14_2 C21_2 1_555 1_555
C22_2 C21_2 1_555 1_555
H15_2 C22_2 1_555 1_555
C23_2 C22_2 1_555 1_555
H16_2 C23_2 1_555 1_555
C24_2 C20_2 1_555 1_555
C25_2 H17_2 1_555 1_555
C26_2 C25_2 1_555 1_555
H18_2 C26_2 1_555 1_555
C27_2 C26_2 1_555 1_555
H19_2 C27_2 1_555 1_555
C28_2 C27_2 1_555 1_555
C29_2 C28_2 1_555 1_555
H20_2 C29_2 1_555 1_555
C30_2 C28_2 1_555 1_555
C31_2 H21_2 1_555 1_555
C32_2 C31_2 1_555 1_555
C33_2 C32_2 1_555 1_555
H22_2 C33_2 1_555 1_555
C34_2 C33_2 1_555 1_555
H23_2 C34_2 1_555 1_555
C35_2 C34_2 1_555 1_555
H24_2 C35_2 1_555 1_555
C36_2 C32_2 1_555 1_555
Cu1_2 Br1_2 1_555 1_555
Cu1A Br2A 1_555 1_555
Cu1_3 N1_2 1_555 1_555
Cu2_2 Br1 1_555 1_555
Cu2A Br2 1_555 1_555
Cu2_3 N2_2 1_555 1_555
Cu3A Br3A 1_555 1_555
Cu3_2 N3_2 1_555 1_555
Cu3_3 Br3_2 1_555 1_555
Cu4A Br3 1_555 1_555
Cu4A_2 Br5A 1_555 1_555
Cu4_2 N4_2 1_555 1_555
Cu5A Br5 1_555 1_555
Cu5_2 Br6_2 1_555 1_555
Cu6_2 Br3 1_555 1_555
Cu6_3 Br6 1_555 1_555
Cu6A Br3A 1_555 1_555
N1_2 C1_2 1_555 1_555
N1_3 Cu1_2 1_555 1_555
N2_2 C7_2 1_555 1_555
N2_3 Cu2_2 1_555 1_555
N3_2 C13_2 1_555 1_555
N3A Cu3A 1_555 1_555
N4_2 C19_2 1_555 1_555
N4A Cu4A 1_555 1_555
N5_2 C25_2 1_555 1_555
N5A Cu5A 1_555 1_555
N6_2 C31_2 1_555 1_555
N6_3 Cu6_2 1_555 1_555
O1_2 Sm2_2 1_555 1_555
O2_2 C6_2 1_555 1_555
O3_2 Sm1_2 1_555 1_555
O4_2 Sm2_2 1_555 1_555
O5_2 Sm2 1_555 1_555
O6_2 C18_2 1_555 1_555
O6_3 Sm1_2 1_555 1_555
O7_2 Sm2_2 1_555 1_555
O8_2 Sm1_2 1_555 1_555
O9_2 Sm1_2 1_555 1_555
O10_2 Sm1_2 1_555 1_555
O11_2 Sm2 1_555 1_555
O12_2 Sm1_3 1_555 1_555
O12_3 Sm1_2 1_555 1_555
O13_2 Sm1_2 1_555 1_555
O14_2 Sm2_2 1_555 1_555
O15_2 Sm2_2 1_555 1_555
O16_2 Sm2_2 1_555 1_555
Br4 Cu6_2 1_555 1_555
C5 N1 1_555 1_555
C11 N2 1_555 1_555
C12 O3 1_555 1_555
C12 O4 1_555 1_555
C17 N3 1_555 1_555
C18 O6 1_555 1_555
C23 N4 1_555 1_555
C24 O7 1_555 1_555
C24 O8 1_555 1_555
C29 N5 1_555 1_555
C30 O9 1_555 1_555
C30 O10 1_555 1_555
C35 N6 1_555 1_555
C36 O12 1_555 1_555
O11 Sm2_2 1_555 1_555
Br4_2 Cu3_3 1_555 1_555
Br4A Cu6A 1_555 1_555
Br6A Cu6A 1_555 1_555
C5_2 N1_2 1_555 1_555
C6_2 O1_2 1_555 1_555
C11_2 N2_2 1_555 1_555
C12_2 O3_2 1_555 1_555
C12_2 O4_2 1_555 1_555
C17_2 N3_2 1_555 1_555
C18_2 O5_2 1_555 1_555
C23_2 N4_2 1_555 1_555
C24_2 O7_2 1_555 1_555
C24_2 O8_2 1_555 1_555
C29_2 N5_2 1_555 1_555
C30_2 O9_2 1_555 1_555
C30_2 O10_2 1_555 1_555
C35_2 N6_2 1_555 1_555
C36_2 O11_2 1_555 1_555
C36_2 O12_2 1_555 1_555
Cu5_2 N5_2 1_555 1_555
Cu6_3 N6_2 1_555 1_555

#END
