
#######################################################################
#
#                 Cambridge Crystallographic Data Centre
#                                CCDC 
#
#######################################################################
#
# If this CIF has been generated from an entry in the Cambridge 
# Structural Database, then it will include bibliographic, chemical, 
# crystal, experimental, refinement or atomic coordinate data resulting 
# from the CCDC's data processing and validation procedures.
#
#######################################################################

data_WEDWAF
_symmetry_cell_setting           rhombohedral
_symmetry_space_group_name_H-M   'R 3'
_symmetry_Int_Tables_number      146
_space_group_name_Hall           'R 3'
loop_
_symmetry_equiv_pos_site_id
_symmetry_equiv_pos_as_xyz
1 x,y,z
2 -y,x-y,z
3 -x+y,-x,z
4 2/3+x,1/3+y,1/3+z
5 2/3-y,1/3+x-y,1/3+z
6 2/3-x+y,1/3-x,1/3+z
7 1/3+x,2/3+y,2/3+z
8 1/3-y,2/3+x-y,2/3+z
9 1/3-x+y,2/3-x,2/3+z
_cell_length_a                   14.0511(8)
_cell_length_b                   14.0511(8)
_cell_length_c                   22.6054(16)
_cell_angle_alpha                90
_cell_angle_beta                 90
_cell_angle_gamma                120
_cell_volume                     3865.12
loop_
_atom_site_label
_atom_site_type_symbol
_atom_site_fract_x
_atom_site_fract_y
_atom_site_fract_z
F1 F 0.5014(3) 0.4976(3) 0.89704(11)
F2 F 0.5316(2) 0.4350(2) 0.80962(12)
F3 F 0.3796(2) 0.4519(2) 0.82090(13)
F4 F 0.5491(2) 0.6045(2) 0.81529(14)
B1 B 0.4912(4) 0.4981(4) 0.83562(18)
F5 F 0.3333 0.6667 0.55605(14)
F6 F 0.2276(4) 0.6004(3) 0.63790(10)
B2 B 0.3333 0.6667 0.6186(2)
F6B F 0.3728(5) 0.7724(4) 0.63790(10)
F6A F 0.3996(3) 0.6272(5) 0.63790(10)
O1 O 0.3333 0.6667 0.2956(10)
C1 C 0.3333 0.6667 0.2345(15)
H2 H 0.4040 0.7261 0.2200
H2A H 0.2739 0.6779 0.2200
H2B H 0.3221 0.5960 0.2200
Cu1 Cu -0.13842(4) -0.29042(3) 0.795810(13)
Cu2 Cu 0.6666 0.3333 0.63456(2)
N1 N 0.0177(2) -0.2006(3) 0.76472(13)
N2 N 0.1800(3) -0.0234(2) 0.76928(13)
N3 N 0.5342(3) 0.1946(2) 0.66730(12)
N4 N 0.3796(3) 0.1290(2) 0.73254(12)
N5 N 0.6666 0.3333 0.5487(2)
C2 C -0.2169(5) -0.3718(3) 0.87218(16)
H3 H -0.2704 -0.3531 0.8892
H4 H -0.2418 -0.4512 0.8738
C3 C -0.1107(4) -0.3028(3) 0.88451(15)
H5 H -0.0656 -0.3368 0.8941
H6 H -0.0942 -0.2386 0.9096
C4 C 0.0787(4) -0.0975(3) 0.78617(13)
H7 H 0.0462 -0.0758 0.8162
C5 C 0.2272(4) -0.0560(3) 0.72861(16)
C6 C 0.1732(4) -0.1621(3) 0.70667(13)
H8 H 0.2092 -0.1857 0.6798
C7 C 0.0656(4) -0.2338(3) 0.72441(16)
C8 C 0.4776(4) 0.2048(3) 0.71303(15)
H9 H 0.5116 0.2733 0.7332
C9 C 0.3362(4) 0.0281(3) 0.70680(14)
C10 C 0.3900(4) 0.0077(3) 0.66167(14)
H10 H 0.3605 -0.0639 0.6454
C11 C 0.4884(4) 0.0945(3) 0.64055(14)
C12 C 0.0010(4) -0.3450(3) 0.69804(17)
H11 H -0.0729 -0.3824 0.7152
H12 H 0.0375 -0.3874 0.7064
H13 H -0.0041 -0.3383 0.6551
C13 C 0.5438(4) 0.0805(3) 0.58769(13)
H14 H 0.6116 0.1496 0.5795
H15 H 0.4946 0.0601 0.5534
H16 H 0.5614 0.0223 0.5954
C14 C 0.6666 0.3333 0.4983(3)
C15 C 0.6694(10) 0.3545(13) 0.4337(3)
Cu1A Cu 1.29042(3) 0.15200(5) 0.795810(13)
Cu1B Cu 0.84800(5) 1.13842(4) 0.795810(13)
Cu1A_2 Cu 0.29042(3) 0.15200(5) 0.795810(13)
Cu1B_2 Cu 0.84800(5) 0.13842(4) 0.795810(13)
Cu1_2 Cu 0.86158(4) 0.70958(3) 0.795810(13)
N1A N 1.2006(3) 0.2183(4) 0.76472(13)
N1B N 0.7817(4) 0.9823(2) 0.76472(13)
N2A N 1.0234(2) 0.2034(4) 0.76928(13)
N2B N 0.7966(4) 0.8200(3) 0.76928(13)
N2B_2 N -0.2034(4) -0.1800(3) 0.76928(13)
N2_2 N 1.1800(3) -0.0234(2) 0.76928(13)
N2A_2 N 1.0234(2) 1.2034(4) 0.76928(13)
N3A N 0.8054(2) 0.3396(4) 0.66730(12)
N3B N 0.6604(4) 0.4658(3) 0.66730(12)
N4A N 0.8710(2) 0.2506(4) 0.73254(12)
N4B N 0.7494(4) 0.6204(3) 0.73254(12)
N4B_2 N -0.2506(4) -0.3796(3) 0.73254(12)
N4_2 N 1.3796(3) 0.1290(2) 0.73254(12)
N4A_2 N 0.8710(2) 1.2506(4) 0.73254(12)
C2A C 1.3718(3) 0.1549(6) 0.87218(16)
C2B C 0.8451(6) 1.2169(5) 0.87218(16)
H3A H 1.3531 0.0827 0.8892
H3B H 0.9173 1.2704 0.8892
H4A H 1.4512 0.2094 0.8738
H4B H 0.7906 1.2418 0.8738
C3A C 1.3028(3) 0.1921(5) 0.88451(15)
C3B C 0.8079(5) 1.1107(4) 0.88451(15)
H5A H 1.3368 0.2712 0.8941
H5B H 0.7288 1.0656 0.8941
H6A H 1.2386 0.1444 0.9096
H6B H 0.8556 1.0942 0.9096
C4A C 1.0975(3) 0.1762(5) 0.78617(13)
C4B C 0.8238(5) 0.9213(4) 0.78617(13)
H7A H 1.0758 0.1220 0.8162
H7B H 0.8780 0.9538 0.8162
C5A C 1.0560(3) 0.2832(5) 0.72861(16)
C5B C 0.7168(5) 0.7728(4) 0.72861(16)
C6A C 1.1621(3) 0.3353(5) 0.70667(13)
C6B C 0.6647(5) 0.8268(4) 0.70667(13)
H8A H 1.1857 0.3949 0.6798
H8B H 0.6051 0.7908 0.6798
C7A C 1.2338(3) 0.2994(5) 0.72441(16)
C7B C 0.7006(5) 0.9344(4) 0.72441(16)
C8A C 0.7952(3) 0.2728(5) 0.71303(15)
C8B C 0.7272(5) 0.5224(4) 0.71303(15)
H9A H 0.7267 0.2383 0.7332
H9B H 0.7617 0.4884 0.7332
C9A C 0.9719(3) 0.3081(5) 0.70680(14)
C9B C 0.6919(5) 0.6638(4) 0.70680(14)
C10A C 0.9923(3) 0.3823(5) 0.66167(14)
C10B C 0.6177(5) 0.6100(4) 0.66167(14)
H10A H 1.0639 0.4244 0.6454
H10B H 0.5756 0.6395 0.6454
C11A C 0.9055(3) 0.3939(5) 0.64055(14)
C11B C 0.6061(5) 0.5116(4) 0.64055(14)
C12A C 1.3450(3) 0.3460(5) 0.69804(17)
C12B C 0.6540(5) 0.9990(4) 0.69804(17)
H11A H 1.3824 0.3095 0.7152
H11B H 0.6905 1.0729 0.7152
H12A H 1.3874 0.4249 0.7064
H12B H 0.5751 0.9625 0.7064
H13A H 1.3383 0.3342 0.6551
H13B H 0.6658 1.0041 0.6551
C13A C 0.9195(3) 0.4633(5) 0.58769(13)
C13B C 0.5367(5) 0.4562(4) 0.58769(13)
H14A H 0.8504 0.4620 0.5795
H14B H 0.5380 0.3884 0.5795
H15A H 0.9399 0.4345 0.5534
H15B H 0.5655 0.5054 0.5534
H16A H 0.9777 0.5391 0.5954
H16B H 0.4609 0.4386 0.5954
C15B C 0.6851(16) 0.3306(10) 0.4337(3)
C15A C 0.6455(13) 0.3149(16) 0.4337(3)
H1? H 0.3422 0.7269 0.3080
loop_
_geom_bond_atom_site_label_1
_geom_bond_atom_site_label_2
_geom_bond_site_symmetry_1
_geom_bond_site_symmetry_2
Cu1 N1 1_555 1_555
Cu2 N3 1_555 1_555
F1 B1 1_555 1_555
F2 B1 1_555 1_555
F3 B1 1_555 1_555
F4 B1 1_555 1_555
F5 B2 1_555 1_555
F6 B2 1_555 1_555
O1 C1 1_555 1_555
C1 H2 1_555 1_555
N1 C4 1_555 1_555
N2 C4 1_555 1_555
N3 C8 1_555 1_555
N4 C8 1_555 1_555
N5 Cu2 1_555 1_555
C2 Cu1 1_555 1_555
H3 C2 1_555 1_555
H4 C2 1_555 1_555
C3 Cu1 1_555 1_555
H5 C3 1_555 1_555
H6 C3 1_555 1_555
C4 H7 1_555 1_555
C5 N2 1_555 1_555
C6 C5 1_555 1_555
H8 C6 1_555 1_555
C7 N1 1_555 1_555
C8 H9 1_555 1_555
C9 N4 1_555 1_555
C10 C9 1_555 1_555
H10 C10 1_555 1_555
C11 N3 1_555 1_555
C12 C7 1_555 1_555
H11 C12 1_555 1_555
H12 C12 1_555 1_555
H13 C12 1_555 1_555
C13 C11 1_555 1_555
H14 C13 1_555 1_555
H15 C13 1_555 1_555
H16 C13 1_555 1_555
C14 N5 1_555 1_555
B2 F6B 1_555 1_555
C15 C14 1_555 1_555
Cu1A N1A 1_555 1_555
Cu1B N1B 1_555 1_555
Cu1A_2 N2 1_555 1_555
Cu1B_2 N2A 1_555 1_555
Cu1_2 N2B 1_555 1_555
F6A B2 1_555 1_555
H2A C1 1_555 1_555
H2B C1 1_555 1_555
N1A C4A 1_555 1_555
N1B C4B 1_555 1_555
N2A C4A 1_555 1_555
N2B C4B 1_555 1_555
N2B_2 Cu1 1_555 1_555
N2_2 Cu1A 1_555 1_555
N2A_2 Cu1B 1_555 1_555
N3A Cu2 1_555 1_555
N3B Cu2 1_555 1_555
N4A Cu1B_2 1_555 1_555
N4B Cu1_2 1_555 1_555
N4B_2 Cu1 1_555 1_555
N4_2 Cu1A 1_555 1_555
N4A_2 Cu1B 1_555 1_555
C2A Cu1A 1_555 1_555
C2B Cu1B 1_555 1_555
H3A C2A 1_555 1_555
H3B C2B 1_555 1_555
H4A C2A 1_555 1_555
H4B C2B 1_555 1_555
C3A Cu1A 1_555 1_555
C3B Cu1B 1_555 1_555
H5A C3A 1_555 1_555
H5B C3B 1_555 1_555
H6A C3A 1_555 1_555
H6B C3B 1_555 1_555
C4A H7A 1_555 1_555
C4B H7B 1_555 1_555
C5A N2A 1_555 1_555
C5B N2B 1_555 1_555
C6A C5A 1_555 1_555
C6B C5B 1_555 1_555
H8A C6A 1_555 1_555
H8B C6B 1_555 1_555
C7A N1A 1_555 1_555
C7B N1B 1_555 1_555
C8A N3A 1_555 1_555
C8B N3B 1_555 1_555
H9A C8A 1_555 1_555
H9B C8B 1_555 1_555
C9A N4A 1_555 1_555
C9B N4B 1_555 1_555
C10A C9A 1_555 1_555
C10B C9B 1_555 1_555
H10A C10A 1_555 1_555
H10B C10B 1_555 1_555
C11A N3A 1_555 1_555
C11B N3B 1_555 1_555
C12A C7A 1_555 1_555
C12B C7B 1_555 1_555
H11A C12A 1_555 1_555
H11B C12B 1_555 1_555
H12A C12A 1_555 1_555
H12B C12B 1_555 1_555
H13A C12A 1_555 1_555
H13B C12B 1_555 1_555
C13A C11A 1_555 1_555
C13B C11B 1_555 1_555
H14A C13A 1_555 1_555
H14B C13B 1_555 1_555
H15A C13A 1_555 1_555
H15B C13B 1_555 1_555
H16A C13A 1_555 1_555
H16B C13B 1_555 1_555
C15B C14 1_555 1_555
C15A C14 1_555 1_555
N4 Cu1A_2 1_555 1_555
C2 C3 1_555 1_555
C5 C9 1_555 1_555
C6 C7 1_555 1_555
C10 C11 1_555 1_555
C15 C15B 1_555 1_555
C15 C15A 1_555 1_555
N4A C8A 1_555 1_555
N4B C8B 1_555 1_555
C2A C3A 1_555 1_555
C2B C3B 1_555 1_555
C5A C9A 1_555 1_555
C5B C9B 1_555 1_555
C6A C7A 1_555 1_555
C6B C7B 1_555 1_555
C10A C11A 1_555 1_555
C10B C11B 1_555 1_555
C15B C15A 1_555 1_555

#END
