
#######################################################################
#
#                 Cambridge Crystallographic Data Centre
#                                CCDC 
#
#######################################################################
#
# If this CIF has been generated from an entry in the Cambridge 
# Structural Database, then it will include bibliographic, chemical, 
# crystal, experimental, refinement or atomic coordinate data resulting 
# from the CCDC's data processing and validation procedures.
#
#######################################################################

data_WEDXIO
_symmetry_cell_setting           orthorhombic
_symmetry_space_group_name_H-M   'P b c n'
_symmetry_Int_Tables_number      60
_space_group_name_Hall           '-P 2n 2ab'
loop_
_symmetry_equiv_pos_site_id
_symmetry_equiv_pos_as_xyz
1 x,y,z
2 1/2-x,1/2-y,1/2+z
3 -x,y,1/2-z
4 1/2+x,1/2-y,-z
5 -x,-y,-z
6 1/2+x,1/2+y,1/2-z
7 x,-y,1/2+z
8 1/2-x,1/2+y,z
_cell_length_a                   9.9176(8)
_cell_length_b                   32.983(3)
_cell_length_c                   12.9111(9)
_cell_angle_alpha                90
_cell_angle_beta                 90
_cell_angle_gamma                90
_cell_volume                     4223.38
loop_
_atom_site_label
_atom_site_type_symbol
_atom_site_fract_x
_atom_site_fract_y
_atom_site_fract_z
Br1 Br 0.11809(17) 0.27892(4) 0.11395(11)
Br2 Br 0.16662(18) 0.19658(5) 0.36723(12)
C1 C 0.2578(10) 0.4213(3) 0.3164(7)
C2 C 0.3043(9) 0.3795(3) 0.3431(7)
C3 C 0.4360(10) 0.3707(3) 0.3701(8)
H1 H 0.4988 0.3915 0.3766
C4 C 0.4735(12) 0.3316(4) 0.3873(9)
H2 H 0.5620 0.3254 0.4049
C5 C 0.3789(14) 0.3013(3) 0.3783(9)
H3 H 0.4048 0.2746 0.3906
C6 C 0.2151(11) 0.3474(3) 0.3374(8)
H4 H 0.1254 0.3531 0.3222
C7 C 0.7621(11) 0.5573(3) 0.3191(7)
C8 C 0.7950(10) 0.5997(3) 0.3510(7)
C9 C 0.9252(11) 0.6124(4) 0.3733(10)
H5 H 0.9963 0.5940 0.3707
C10 C 0.9485(13) 0.6519(4) 0.3989(11)
H6 H 1.0349 0.6609 0.4153
C11 C 0.8417(14) 0.6781(4) 0.3999(10)
H7 H 0.8583 0.7051 0.4157
C12 C 0.6943(11) 0.6281(3) 0.3578(8)
H8 H 0.6062 0.6196 0.3464
C13 C 0.5626(9) 0.5144(3) 0.0009(7)
Cu1 Cu 0.1174(2) 0.26532(6) 0.31438(19)
Cu2 Cu 0.5701(2) 0.70735(6) 0.35095(17)
Gd1 Gd 0.5000 0.496490(19) 0.2500
Gd2 Gd 0.0000 0.48208(2) 0.2500
N1 N 0.2499(11) 0.3090(3) 0.3523(8)
N2 N 0.7147(10) 0.6671(3) 0.3797(7)
O1 O 0.3433(7) 0.4482(2) 0.2974(5)
O2 O 0.1316(7) 0.4275(2) 0.3132(5)
O3 O 0.6419(7) 0.5498(2) 0.2993(6)
O4 O 0.8564(8) 0.5324(2) 0.3126(7)
O5 O 0.6062(6) 0.5262(2) -0.0850(5)
O6 O 0.6094(6) 0.5229(2) 0.0893(5)
O9 O -0.1134(7) 0.5101(3) 0.0963(6)
O10 O 0.1223(7) 0.4530(2) 0.0993(5)
Br1B Br -0.11809(17) 0.27892(4) 0.38605(11)
Br1E Br 0.61809(17) 0.77892(4) 0.38605(11)
Br1B_2 Br 0.88191(17) 0.27892(4) 0.38605(11)
Br1_2 Br 1.11809(17) 0.27892(4) 0.11395(11)
Br1G Br 0.38191(17) 0.77892(4) 0.11395(11)
Br2G Br 0.33338(18) 0.69658(5) 0.36723(12)
Br2B Br 0.83338(18) 0.19658(5) 0.13277(12)
Br2E Br 0.66662(18) 0.69658(5) 0.13277(12)
C1B C 0.7422(10) 0.4213(3) 0.1836(7)
C2B C 0.6957(9) 0.3795(3) 0.1569(7)
C3B C 0.5640(10) 0.3707(3) 0.1299(8)
H1B H 0.5012 0.3915 0.1234
C4B C 0.5265(12) 0.3316(4) 0.1127(9)
H2B H 0.4380 0.3254 0.0951
C5B C 0.6211(14) 0.3013(3) 0.1217(9)
H3B H 0.5952 0.2746 0.1094
C6B C 0.7849(11) 0.3474(3) 0.1626(8)
H4B H 0.8746 0.3531 0.1778
C7B C 0.2379(11) 0.5573(3) 0.1809(7)
C8B C 0.2050(10) 0.5997(3) 0.1490(7)
C9B C 0.0748(11) 0.6124(4) 0.1267(10)
H5B H 0.0037 0.5940 0.1293
C10B C 0.0515(13) 0.6519(4) 0.1011(11)
H6B H -0.0349 0.6609 0.0847
C11B C 0.1583(14) 0.6781(4) 0.1001(10)
H7B H 0.1417 0.7051 0.0843
C12B C 0.3057(11) 0.6281(3) 0.1422(8)
H8B H 0.3938 0.6196 0.1536
C13D C 0.4374(9) 0.4856(3) -0.0009(7)
Cu1B Cu 0.8826(2) 0.26532(6) 0.18562(19)
Cu1B_2 Cu -0.1174(2) 0.26532(6) 0.18562(19)
Cu1G Cu 0.3826(2) 0.76532(6) 0.31438(19)
Cu2B Cu 0.4299(2) 0.70735(6) 0.14905(17)
Cu2E Cu 0.0701(2) 0.20735(6) 0.14905(17)
Cu2G Cu -0.0701(2) 0.20735(6) 0.35095(17)
Gd1D Gd 0.5000 0.503510(19) -0.2500
Gd2_2 Gd 1.0000 0.48208(2) 0.2500
N1B N 0.7501(11) 0.3090(3) 0.1477(8)
N2B N 0.2853(10) 0.6671(3) 0.1203(7)
O1B O 0.6567(7) 0.4482(2) 0.2026(5)
O2B O 0.8684(7) 0.4275(2) 0.1868(5)
O2B_2 O -0.1316(7) 0.4275(2) 0.1868(5)
O3B O 0.3581(7) 0.5498(2) 0.2007(6)
O4B O 0.1436(8) 0.5324(2) 0.1874(7)
O4_2 O -0.1436(8) 0.5324(2) 0.3126(7)
O5D O 0.3938(6) 0.4738(2) 0.0850(5)
O5F O 0.6062(6) 0.4738(2) 0.4150(5)
O6D O 0.3906(6) 0.4771(2) -0.0893(5)
O6B O 0.3906(6) 0.5229(2) 0.4107(5)
O9B O 0.1134(7) 0.5101(3) 0.4037(6)
O10B O -0.1223(7) 0.4530(2) 0.4007(5)
O7 O 0.6965(14) 0.8760(3) 0.4214(11)
O8 O 0.797(2) 0.8951(4) 0.5857(15)
loop_
_geom_bond_atom_site_label_1
_geom_bond_atom_site_label_2
_geom_bond_site_symmetry_1
_geom_bond_site_symmetry_2
Br1 Cu1 1_555 1_555
Br2 Cu1 1_555 1_555
C1 C2 1_555 1_555
C2 C3 1_555 1_555
C3 H1 1_555 1_555
C4 C3 1_555 1_555
H2 C4 1_555 1_555
C5 C4 1_555 1_555
H3 C5 1_555 1_555
C6 C2 1_555 1_555
H4 C6 1_555 1_555
C7 C8 1_555 1_555
C8 C9 1_555 1_555
C9 H5 1_555 1_555
C10 C9 1_555 1_555
H6 C10 1_555 1_555
C11 C10 1_555 1_555
H7 C11 1_555 1_555
C12 C8 1_555 1_555
H8 C12 1_555 1_555
C13 O5 1_555 1_555
Cu1 N1 1_555 1_555
Cu2 N2 1_555 1_555
Gd1 O1 1_555 1_555
Gd2 O2 1_555 1_555
N1 C5 1_555 1_555
N2 C11 1_555 1_555
O1 C1 1_555 1_555
O2 C1 1_555 1_555
O3 C7 1_555 1_555
O4 C7 1_555 1_555
O5 Gd1D 1_555 1_555
O6 C13 1_555 1_555
O9 Gd2 1_555 1_555
O10 Gd2 1_555 1_555
Br1B Cu1 1_555 1_555
Br1E Cu2 1_555 1_555
Br1B_2 Cu1B 1_555 1_555
Br1_2 Cu1B 1_555 1_555
Br1G Cu1G 1_555 1_555
Br2G Cu2 1_555 1_555
Br2B Cu1B 1_555 1_555
Br2E Cu2B 1_555 1_555
C1B C2B 1_555 1_555
C2B C3B 1_555 1_555
C3B H1B 1_555 1_555
C4B C3B 1_555 1_555
H2B C4B 1_555 1_555
C5B C4B 1_555 1_555
H3B C5B 1_555 1_555
C6B C2B 1_555 1_555
H4B C6B 1_555 1_555
C7B C8B 1_555 1_555
C8B C9B 1_555 1_555
C9B H5B 1_555 1_555
C10B C9B 1_555 1_555
H6B C10B 1_555 1_555
C11B C10B 1_555 1_555
H7B C11B 1_555 1_555
C12B C8B 1_555 1_555
H8B C12B 1_555 1_555
C13D C13 1_555 1_555
Cu1B N1B 1_555 1_555
Cu1B_2 Br1 1_555 1_555
Cu1G Br1E 1_555 1_555
Cu2B Br1G 1_555 1_555
Cu2E Br1 1_555 1_555
Cu2G Br2 1_555 1_555
Gd1D O6D 1_555 1_555
Gd2_2 O4 1_555 1_555
N1B C5B 1_555 1_555
N2B C11B 1_555 1_555
O1B Gd1 1_555 1_555
O2B C1B 1_555 1_555
O2B_2 Gd2 1_555 1_555
O3B Gd1 1_555 1_555
O4B Gd2 1_555 1_555
O4_2 Gd2 1_555 1_555
O5D Gd1 1_555 1_555
O5F Gd1 1_555 1_555
O6D C13D 1_555 1_555
O6B Gd1 1_555 1_555
O9B Gd2 1_555 1_555
O10B Gd2 1_555 1_555
C6 N1 1_555 1_555
C12 N2 1_555 1_555
Gd1 O3 1_555 1_555
Gd1 O6 1_555 1_555
Br1B Cu1B_2 1_555 1_555
Br1B Cu2G 1_555 1_555
Br2G Cu1G 1_555 1_555
C1B O1B 1_555 1_555
C6B N1B 1_555 1_555
C7B O3B 1_555 1_555
C7B O4B 1_555 1_555
C12B N2B 1_555 1_555
C13D O5D 1_555 1_555
Cu2B N2B 1_555 1_555
Gd2_2 O2B 1_555 1_555

#END
