
#######################################################################
#
#                 Cambridge Crystallographic Data Centre
#                                CCDC 
#
#######################################################################
#
# If this CIF has been generated from an entry in the Cambridge 
# Structural Database, then it will include bibliographic, chemical, 
# crystal, experimental, refinement or atomic coordinate data resulting 
# from the CCDC's data processing and validation procedures.
#
#######################################################################

data_WEDYUB
_symmetry_cell_setting           monoclinic
_symmetry_space_group_name_H-M   'P 21/n'
_symmetry_Int_Tables_number      14
_space_group_name_Hall           '-P 2yn'
loop_
_symmetry_equiv_pos_site_id
_symmetry_equiv_pos_as_xyz
1 x,y,z
2 1/2-x,1/2+y,1/2-z
3 -x,-y,-z
4 1/2+x,1/2-y,1/2+z
_cell_length_a                   12.1730(6)
_cell_length_b                   24.0550(10)
_cell_length_c                   14.2350(6)
_cell_angle_alpha                90
_cell_angle_beta                 91.543(4)
_cell_angle_gamma                90
_cell_volume                     4166.8
loop_
_atom_site_label
_atom_site_type_symbol
_atom_site_fract_x
_atom_site_fract_y
_atom_site_fract_z
Zn1 Zn 0.18642(7) 0.09642(3) 0.16320(6)
C1 C 0.0316(7) 0.1713(3) 0.1173(6)
C2 C -0.0476(6) 0.2186(3) 0.1233(5)
C3 C -0.0375(7) 0.2580(3) 0.1919(6)
H1 H 0.0187 0.2552 0.2373
C4 C -0.1123(7) 0.3030(3) 0.1942(6)
H2 H -0.1042 0.3301 0.2404
C5 C -0.1965(7) 0.3069(3) 0.1285(6)
C6 C -0.2066(7) 0.2660(3) 0.0614(6)
H3 H -0.2641 0.2674 0.0171
C7 C -0.1318(6) 0.2228(3) 0.0594(6)
H4 H -0.1395 0.1958 0.0129
C8 C -0.2729(7) 0.3553(3) 0.1301(6)
H5 H -0.3428 0.3450 0.1007
H6 H -0.2859 0.3657 0.1947
C9 C -0.1685(7) 0.4445(4) 0.1282(7)
C10 C -0.1322(7) 0.4898(4) 0.0760(6)
H7 H -0.0965 0.5190 0.1068
C11 C -0.1480(7) 0.4922(4) -0.0199(6)
H8 H -0.1241 0.5231 -0.0529
C12 C -0.1994(6) 0.4487(3) -0.0678(6)
C13 C -0.2382(6) 0.4056(3) -0.0173(6)
H9 H -0.2739 0.3765 -0.0484
C14 C -0.2161(7) 0.4488(4) -0.1728(6)
C15 C -0.0159(6) 0.0265(3) 0.2341(5)
H10 H -0.0244 0.0554 0.2766
C16 C -0.0889(6) -0.0155(3) 0.2349(5)
H11 H -0.1457 -0.0157 0.2773
C17 C -0.0776(6) -0.0567(3) 0.1737(5)
H12 H -0.1278 -0.0858 0.1726
C18 C 0.0073(6) -0.0566(3) 0.1117(5)
H13 H 0.0157 -0.0854 0.0688
C19 C 0.0791(6) -0.0127(3) 0.1155(5)
C20 C 0.1742(5) -0.0071(3) 0.0505(5)
C21 C 0.2022(5) -0.0461(3) -0.0145(4)
H14 H 0.1634 -0.0793 -0.0195
C22 C 0.2902(5) -0.0355(3) -0.0738(5)
C23 C 0.3470(5) 0.0143(3) -0.0618(5)
H15 H 0.4067 0.0225 -0.0988
C24 C 0.3136(6) 0.0513(3) 0.0056(5)
C25 C 0.3633(6) 0.1066(3) 0.0226(5)
C26 C 0.4518(6) 0.1262(3) -0.0270(5)
H16 H 0.4843 0.1046 -0.0727
C27 C 0.4909(7) 0.1803(3) -0.0057(6)
H17 H 0.5495 0.1951 -0.0381
C28 C 0.4422(7) 0.2105(4) 0.0624(6)
H18 H 0.4667 0.2461 0.0770
C29 C 0.3560(7) 0.1873(3) 0.1094(6)
H19 H 0.3227 0.2081 0.1558
C30 C 0.3192(6) -0.0760(3) -0.1494(5)
C31 C 0.2461(6) -0.1148(3) -0.1827(5)
H20 H 0.1764 -0.1159 -0.1575
C32 C 0.2710(6) -0.1523(3) -0.2516(5)
H21 H 0.2181 -0.1780 -0.2712
C33 C 0.3722(6) -0.1529(3) -0.2926(5)
C34 C 0.4467(6) -0.1141(3) -0.2596(5)
H22 H 0.5162 -0.1133 -0.2851
C35 C 0.4223(6) -0.0755(3) -0.1888(5)
H23 H 0.4749 -0.0498 -0.1685
C36 C 0.4019(7) -0.1916(3) -0.3699(6)
C37 C 0.4260(12) -0.1599(5) -0.4594(8)
H24 H 0.4447 -0.1857 -0.5079
H25 H 0.4864 -0.1349 -0.4477
H26 H 0.3622 -0.1391 -0.4791
C38 C 0.5045(11) -0.2224(6) -0.3404(9)
H27 H 0.5245 -0.2476 -0.3894
H28 H 0.4914 -0.2430 -0.2840
H29 H 0.5630 -0.1964 -0.3288
C39 C 0.3163(11) -0.2350(6) -0.3917(11)
H30 H 0.3404 -0.2582 -0.4420
H31 H 0.2485 -0.2172 -0.4101
H32 H 0.3052 -0.2574 -0.3369
N1 N -0.2259(5) 0.4038(3) 0.0792(4)
N2 N 0.0685(5) 0.0289(2) 0.1754(4)
N3 N 0.2290(4) 0.0405(2) 0.0595(3)
N4 N 0.3186(5) 0.1362(2) 0.0908(4)
O1 O 0.0952(5) 0.1642(2) 0.1858(4)
O2 O 0.0278(5) 0.1409(2) 0.0529(4)
O3 O -0.1523(6) 0.4383(3) 0.2132(4)
O4 O -0.2581(5) 0.4060(2) -0.2059(3)
O5 O -0.1899(6) 0.4896(3) -0.2178(5)
Zn1C Zn -0.31358(7) 0.40358(3) -0.33680(6)
O4C O 0.2419(5) 0.0940(2) 0.2941(3)
C40 C 0.781(3) 0.1554(14) -0.276(3)
C41 C 0.753(3) 0.1614(12) -0.193(2)
O6 O 0.6684(13) 0.1669(6) -0.1767(10)
O7 O 0.4393(6) -0.0653(3) 0.2090(5)
H33 H 0.5126 -0.0575 0.2334
H34 H 0.3978 -0.0412 0.2434
O8 O 0.0764(18) 0.1881(9) 0.3894(14)
O9? O 0.1535(15) 0.2166(7) 0.3632(11)
C42? C 0.4019(7) -0.1916(3) -0.3699(6)
C43? C 0.491(2) -0.1664(11) -0.428(2)
C44? C 0.415(3) -0.2490(7) -0.3316(18)
C45? C 0.3057(17) -0.1974(13) -0.4403(17)
H35? H 0.5096 -0.1917 -0.4771
H36? H 0.5545 -0.1592 -0.3887
H37? H 0.4647 -0.1321 -0.4552
H38? H 0.4341 -0.2739 -0.3813
H39? H 0.3470 -0.2608 -0.3052
H40? H 0.4719 -0.2493 -0.2837
H41? H 0.3255 -0.2224 -0.4896
H42? H 0.2882 -0.1616 -0.4666
H43? H 0.2429 -0.2118 -0.4089
O10? O -0.004(2) 0.1561(11) 0.4983(19)
loop_
_geom_bond_atom_site_label_1
_geom_bond_atom_site_label_2
_geom_bond_site_symmetry_1
_geom_bond_site_symmetry_2
Zn1 N2 1_555 1_555
C1 C2 1_555 1_555
C2 C3 1_555 1_555
C3 H1 1_555 1_555
C4 C3 1_555 1_555
H2 C4 1_555 1_555
C5 C4 1_555 1_555
C6 C5 1_555 1_555
H3 C6 1_555 1_555
C7 C2 1_555 1_555
H4 C7 1_555 1_555
C8 C5 1_555 1_555
H5 C8 1_555 1_555
H6 C8 1_555 1_555
C9 C10 1_555 1_555
C10 H7 1_555 1_555
C11 C10 1_555 1_555
H8 C11 1_555 1_555
C12 C11 1_555 1_555
C13 C12 1_555 1_555
H9 C13 1_555 1_555
C14 C12 1_555 1_555
C15 H10 1_555 1_555
C16 C15 1_555 1_555
H11 C16 1_555 1_555
C17 C16 1_555 1_555
H12 C17 1_555 1_555
C18 C17 1_555 1_555
H13 C18 1_555 1_555
C19 C18 1_555 1_555
C20 C19 1_555 1_555
C21 C20 1_555 1_555
H14 C21 1_555 1_555
C22 C21 1_555 1_555
C23 C22 1_555 1_555
H15 C23 1_555 1_555
C24 C23 1_555 1_555
C25 C24 1_555 1_555
C26 C25 1_555 1_555
H16 C26 1_555 1_555
C27 C26 1_555 1_555
H17 C27 1_555 1_555
C28 C27 1_555 1_555
H18 C28 1_555 1_555
C29 C28 1_555 1_555
H19 C29 1_555 1_555
C30 C22 1_555 1_555
C31 C30 1_555 1_555
H20 C31 1_555 1_555
C32 C31 1_555 1_555
H21 C32 1_555 1_555
C33 C32 1_555 1_555
C34 C33 1_555 1_555
H22 C34 1_555 1_555
C35 C30 1_555 1_555
H23 C35 1_555 1_555
C36 C33 1_555 1_555
C37 C36 1_555 1_555
H24 C37 1_555 1_555
H25 C37 1_555 1_555
H26 C37 1_555 1_555
C38 C36 1_555 1_555
H27 C38 1_555 1_555
H28 C38 1_555 1_555
H29 C38 1_555 1_555
C39 C36 1_555 1_555
H30 C39 1_555 1_555
H31 C39 1_555 1_555
H32 C39 1_555 1_555
N1 C8 1_555 1_555
N2 C15 1_555 1_555
N3 Zn1 1_555 1_555
N4 Zn1 1_555 1_555
O1 Zn1 1_555 1_555
O2 C1 1_555 1_555
O3 C9 1_555 1_555
O4 C14 1_555 1_555
O5 C14 1_555 1_555
C40 C41 1_555 1_555
C41 O6 1_555 1_555
O7 H33 1_555 1_555
H34 O7 1_555 1_555
Zn1C O4 1_555 1_555
O4C Zn1 1_555 1_555
C1 O1 1_555 1_555
C6 C7 1_555 1_555
C9 N1 1_555 1_555
C13 N1 1_555 1_555
C19 N2 1_555 1_555
C20 N3 1_555 1_555
C24 N3 1_555 1_555
C25 N4 1_555 1_555
C29 N4 1_555 1_555
C34 C35 1_555 1_555

#END
