
#######################################################################
#
#                 Cambridge Crystallographic Data Centre
#                                CCDC 
#
#######################################################################
#
# If this CIF has been generated from an entry in the Cambridge 
# Structural Database, then it will include bibliographic, chemical, 
# crystal, experimental, refinement or atomic coordinate data resulting 
# from the CCDC's data processing and validation procedures.
#
#######################################################################

data_WEDYIP
_symmetry_cell_setting           monoclinic
_symmetry_space_group_name_H-M   'C 2/c'
_symmetry_Int_Tables_number      15
_space_group_name_Hall           '-C 2yn'
loop_
_symmetry_equiv_pos_site_id
_symmetry_equiv_pos_as_xyz
1 x,y,z
2 -x,y,1/2-z
3 1/2+x,1/2+y,z
4 1/2-x,1/2+y,1/2-z
5 -x,-y,-z
6 x,-y,1/2+z
7 1/2-x,1/2-y,-z
8 1/2+x,1/2-y,1/2+z
_cell_length_a                   20.4862(5)
_cell_length_b                   16.2663(5)
_cell_length_c                   16.9774(5)
_cell_angle_alpha                90
_cell_angle_beta                 99.120(3)
_cell_angle_gamma                90
_cell_volume                     5585.94
loop_
_atom_site_label
_atom_site_type_symbol
_atom_site_fract_x
_atom_site_fract_y
_atom_site_fract_z
Zn1 Zn 0.35418(2) 0.83067(3) 0.46295(3)
C1 C 0.8175(2) 0.4125(3) 0.5901(3)
C2 C 0.7741(2) 0.4453(3) 0.6449(2)
C3 C 0.7994(2) 0.4906(3) 0.7139(3)
H1 H 0.8446 0.5007 0.7255
C4 C 0.7593(2) 0.5195(3) 0.7632(3)
H2 H 0.7775 0.5491 0.8082
C5 C 0.6903(2) 0.5058(3) 0.7481(3)
C6 C 0.7081(2) 0.4317(3) 0.6309(2)
H3 H 0.6902 0.4017 0.5859
C7 C 0.5958(2) 0.4447(3) 0.6624(3)
H4 H 0.5795 0.4329 0.7118
H5 H 0.5881 0.3964 0.6286
C8 C 0.55715(19) 0.5162(3) 0.6212(2)
C9 C 0.5799(2) 0.5612(3) 0.5632(3)
H6 H 0.6216 0.5502 0.5506
C10 C 0.5421(2) 0.6223(3) 0.5234(3)
H7 H 0.5583 0.6514 0.4834
C11 C 0.4809(2) 0.6417(3) 0.5413(2)
C12 C 0.4576(2) 0.5973(3) 0.5997(3)
H8 H 0.4165 0.6096 0.6132
C13 C 0.4950(2) 0.5343(3) 0.6387(3)
H9 H 0.4781 0.5037 0.6772
C14 C 0.4406(2) 0.7094(3) 0.4981(3)
C15 C 0.3111(3) 0.7656(3) 0.2955(3)
H10 H 0.3542 0.7614 0.2848
C16 C 0.2561(3) 0.7514(4) 0.2429(3)
H11 H 0.2540 0.7363 0.1897
C17 C 0.2288(2) 0.7845(3) 0.3573(3)
H12 H 0.2037 0.7959 0.3971
C18 C 0.1328(3) 0.7568(4) 0.2523(3)
H13 H 0.1159 0.8102 0.2338
H14 H 0.1097 0.7395 0.2950
C19 C 0.1196(3) 0.6935(4) 0.1821(4)
H15 H 0.1388 0.7139 0.1371
H16 H 0.1409 0.6417 0.1989
C20 C 0.0501(3) 0.6802(4) 0.1577(4)
H17 H 0.0280 0.7330 0.1502
H18 H 0.0326 0.6516 0.2000
C21 C 0.0344(3) 0.6312(3) 0.0822(3)
H19 H -0.0124 0.6366 0.0617
H20 H 0.0588 0.6539 0.0427
C22 C 0.0933(2) 0.5001(3) 0.0584(3)
H21 H 0.1200 0.5224 0.0243
N1 N 0.09334(17) 0.4221(2) 0.0778(2)
C23 C 0.0208(3) 0.4901(3) 0.1375(4)
H22 H -0.0116 0.5022 0.1684
N2 N 0.66711(16) 0.4602(2) 0.6802(2)
N3 N 0.29387(17) 0.7871(2) 0.3672(2)
N4 N 0.20363(19) 0.7632(3) 0.2825(2)
N5 N 0.05067(19) 0.5435(2) 0.0931(2)
C24 C 0.0477(3) 0.4161(3) 0.1277(3)
H23 H 0.0366 0.3677 0.1517
O1 O 0.79043(15) 0.3805(2) 0.52506(19)
O2 O 0.87850(18) 0.4170(2) 0.6110(2)
O3 O 0.65020(18) 0.5298(3) 0.7905(2)
O4 O 0.45410(17) 0.7363(2) 0.4343(2)
O5 O 0.39324(15) 0.7381(2) 0.52973(19)
Zn1B Zn 0.85418(2) 0.33067(3) 0.46295(3)
Zn1C Zn 0.14582(2) 0.33067(3) 0.03705(3)
N1C N 0.40666(17) 0.9221(2) 0.4222(2)
O1B O 0.29043(15) 0.8805(2) 0.52506(19)
O6 O 0.5418(9) 0.7214(17) 0.3237(9)
O7 O 0.7046(3) 0.4963(5) 0.9476(4)
O8 O 0.6304(6) 0.8624(8) 0.3981(8)
O9 O 0.6612(8) 0.3540(13) 0.8895(11)
O10 O 0.775(3) 0.316(4) 0.982(4)
O11 O 0.4670(18) 0.731(3) 0.1708(14)
O12? O 0.733(3) 0.848(3) 0.534(3)
loop_
_geom_bond_atom_site_label_1
_geom_bond_atom_site_label_2
_geom_bond_site_symmetry_1
_geom_bond_site_symmetry_2
Zn1 N3 1_555 1_555
C1 C2 1_555 1_555
C2 C3 1_555 1_555
C3 H1 1_555 1_555
C4 C3 1_555 1_555
H2 C4 1_555 1_555
C5 C4 1_555 1_555
C6 C2 1_555 1_555
H3 C6 1_555 1_555
C7 H4 1_555 1_555
H5 C7 1_555 1_555
C8 C7 1_555 1_555
C9 C8 1_555 1_555
H6 C9 1_555 1_555
C10 C9 1_555 1_555
H7 C10 1_555 1_555
C11 C10 1_555 1_555
C12 C11 1_555 1_555
H8 C12 1_555 1_555
C13 C8 1_555 1_555
H9 C13 1_555 1_555
C14 C11 1_555 1_555
C15 H10 1_555 1_555
C16 C15 1_555 1_555
H11 C16 1_555 1_555
C17 H12 1_555 1_555
C18 H13 1_555 1_555
H14 C18 1_555 1_555
C19 C18 1_555 1_555
H15 C19 1_555 1_555
H16 C19 1_555 1_555
C20 C19 1_555 1_555
H17 C20 1_555 1_555
H18 C20 1_555 1_555
C21 C20 1_555 1_555
H19 C21 1_555 1_555
H20 C21 1_555 1_555
C22 H21 1_555 1_555
N1 C22 1_555 1_555
C23 H22 1_555 1_555
N2 C5 1_555 1_555
N3 C15 1_555 1_555
N4 C16 1_555 1_555
N5 C21 1_555 1_555
C24 N1 1_555 1_555
H23 C24 1_555 1_555
O1 C1 1_555 1_555
O2 C1 1_555 1_555
O3 C5 1_555 1_555
O4 C14 1_555 1_555
O5 Zn1 1_555 1_555
Zn1B O1 1_555 1_555
Zn1C N1 1_555 1_555
N1C Zn1 1_555 1_555
O1B Zn1 1_555 1_555
C6 N2 1_555 1_555
C7 N2 1_555 1_555
C12 C13 1_555 1_555
C14 O5 1_555 1_555
C17 N3 1_555 1_555
C17 N4 1_555 1_555
C18 N4 1_555 1_555
C22 N5 1_555 1_555
C23 N5 1_555 1_555
C23 C24 1_555 1_555

#END
