
#######################################################################
#
#                 Cambridge Crystallographic Data Centre
#                                CCDC 
#
#######################################################################
#
# If this CIF has been generated from an entry in the Cambridge 
# Structural Database, then it will include bibliographic, chemical, 
# crystal, experimental, refinement or atomic coordinate data resulting 
# from the CCDC's data processing and validation procedures.
#
#######################################################################

data_WEFCER
_symmetry_cell_setting           monoclinic
_symmetry_space_group_name_H-M   'C 2/c'
_symmetry_Int_Tables_number      15
_space_group_name_Hall           '-C 2yn'
loop_
_symmetry_equiv_pos_site_id
_symmetry_equiv_pos_as_xyz
1 x,y,z
2 -x,y,1/2-z
3 1/2+x,1/2+y,z
4 1/2-x,1/2+y,1/2-z
5 -x,-y,-z
6 x,-y,1/2+z
7 1/2-x,1/2-y,-z
8 1/2+x,1/2-y,1/2+z
_cell_length_a                   16.5531(9)
_cell_length_b                   11.7181(7)
_cell_length_c                   17.4935(8)
_cell_angle_alpha                90
_cell_angle_beta                 103.372(5)
_cell_angle_gamma                90
_cell_volume                     3301.24
loop_
_atom_site_label
_atom_site_type_symbol
_atom_site_fract_x
_atom_site_fract_y
_atom_site_fract_z
Fe1 Fe 0.0000 1.0000 0.5000
S1 S -0.20719(5) 1.28960(6) 0.39144(3)
O1 O -0.03517(7) 0.60798(10) 0.33034(7)
O2 O 0.09171(8) 0.30819(11) 0.30033(8)
N1 N -0.07501(8) 0.86675(11) 0.42316(7)
C1 C 0.0000 0.46152(19) 0.2500
N2 N -0.09214(9) 1.12405(11) 0.45887(8)
N3 N 0.06405(8) 0.04937(12) 0.40679(7)
C2 C -0.07064(10) 0.53528(14) 0.26542(9)
H1 H -0.0948 0.5805 0.2194
H2 H -0.1137 0.4877 0.2781
C3 C -0.08179(10) 0.69677(14) 0.34560(9)
C4 C -0.03966(10) 0.77354(14) 0.40131(9)
H3 H 0.0159 0.7593 0.4245
C5 C 0.12393(11) 0.11857(16) 0.27841(10)
H4 H 0.1429 0.1415 0.2347
C6 C 0.06230(10) 0.15946(14) 0.38611(9)
H5 H 0.0407 0.2126 0.4155
C7 C -0.16440(10) 0.71597(15) 0.31111(10)
H6 H -0.1941 0.6670 0.2729
C8 C 0.09151(10) 0.19702(14) 0.32245(9)
C9 C -0.15612(11) 0.88385(15) 0.39089(10)
H7 H -0.1823 0.9470 0.4066
C10 C -0.14029(11) 1.19239(15) 0.43140(9)
C11 C 0.03363(11) 0.38640(14) 0.32185(10)
H8 H 0.0611 0.4328 0.3662
H9 H -0.0113 0.3449 0.3363
C12 C -0.20169(11) 0.81137(15) 0.33559(10)
H10 H -0.2576 0.8261 0.3145
C13 C 0.09724(12) -0.02543(15) 0.36536(11)
H11 H 0.1003 -0.1018 0.3803
C14 C 0.12736(13) 0.00620(15) 0.30093(11)
H12 H 0.1497 -0.0483 0.2731
Fe1_2 Fe 0.0000 0.0000 0.5000
Fe1A Fe 0.0000 0.0000 0.0000
Fe1A_2 Fe 0.0000 1.0000 0.0000
S1D S 0.20719(5) 0.71040(6) 0.60856(3)
O1A O 0.03517(7) 0.60798(10) 0.16966(7)
O2A O -0.09171(8) 0.30819(11) 0.19967(8)
N1A N 0.07501(8) 0.86675(11) 0.07684(7)
N1D N 0.07501(8) 1.13325(11) 0.57684(7)
N2D N 0.09214(9) 0.87595(11) 0.54113(8)
N3A N -0.06405(8) 0.04937(12) 0.09321(7)
N3_2 N 0.06405(8) 1.04937(12) 0.40679(7)
N3D N -0.06405(8) 0.95063(12) 0.59321(7)
C2A C 0.07064(10) 0.53528(14) 0.23458(9)
H1A H 0.0948 0.5805 0.2806
H2A H 0.1137 0.4877 0.2219
C3A C 0.08179(10) 0.69677(14) 0.15440(9)
C4A C 0.03966(10) 0.77354(14) 0.09869(9)
H3A H -0.0159 0.7593 0.0755
C5A C -0.12393(11) 0.11857(16) 0.22159(10)
H4A H -0.1429 0.1415 0.2653
C6A C -0.06230(10) 0.15946(14) 0.11389(9)
H5A H -0.0407 0.2126 0.0845
C7A C 0.16440(10) 0.71597(15) 0.18889(10)
H6A H 0.1941 0.6670 0.2271
C8A C -0.09151(10) 0.19702(14) 0.17755(9)
C9A C 0.15612(11) 0.88385(15) 0.10911(10)
H7A H 0.1823 0.9470 0.0934
C10D C 0.14029(11) 0.80761(15) 0.56860(9)
C11A C -0.03363(11) 0.38640(14) 0.17815(10)
H8A H -0.0611 0.4328 0.1338
H9A H 0.0113 0.3449 0.1637
C12A C 0.20169(11) 0.81137(15) 0.16441(10)
H10A H 0.2576 0.8261 0.1855
C13A C -0.09724(12) -0.02543(15) 0.13464(11)
H11A H -0.1003 -0.1018 0.1197
C14A C -0.12736(13) 0.00620(15) 0.19907(11)
H12A H -0.1497 -0.0483 0.2269
O3 O -0.30915(11) 1.01553(15) 0.45432(10)
C15 C -0.3089(2) 0.9289(3) 0.51022(18)
H13 H -0.363(2) 0.965(3) 0.526(2)
H14 H -0.258(2) 0.928(3) 0.558(2)
H15 H -0.320(2) 0.847(3) 0.485(2)
loop_
_geom_bond_atom_site_label_1
_geom_bond_atom_site_label_2
_geom_bond_site_symmetry_1
_geom_bond_site_symmetry_2
Fe1 N1 1_555 1_555
S1 C10 1_555 1_555
O1 C2 1_555 1_555
O2 C8 1_555 1_555
N1 C4 1_555 1_555
C1 C2 1_555 1_555
N2 Fe1 1_555 1_555
N3 C6 1_555 1_555
C2 H1 1_555 1_555
H2 C2 1_555 1_555
C3 O1 1_555 1_555
C4 C3 1_555 1_555
H3 C4 1_555 1_555
C5 H4 1_555 1_555
C6 H5 1_555 1_555
C7 C3 1_555 1_555
H6 C7 1_555 1_555
C8 C5 1_555 1_555
C9 N1 1_555 1_555
H7 C9 1_555 1_555
C10 N2 1_555 1_555
C11 O2 1_555 1_555
H8 C11 1_555 1_555
H9 C11 1_555 1_555
C12 C7 1_555 1_555
H10 C12 1_555 1_555
C13 N3 1_555 1_555
H11 C13 1_555 1_555
C14 C5 1_555 1_555
H12 C14 1_555 1_555
O3 C15 1_555 1_555
C15 H13 1_555 1_555
H14 C15 1_555 1_555
H15 C15 1_555 1_555
Fe1_2 N3 1_555 1_555
Fe1A N3A 1_555 1_555
Fe1A_2 N1A 1_555 1_555
S1D C10D 1_555 1_555
O1A C2A 1_555 1_555
O2A C8A 1_555 1_555
N1A C4A 1_555 1_555
N1D Fe1 1_555 1_555
N2D Fe1 1_555 1_555
N3A C6A 1_555 1_555
N3_2 Fe1 1_555 1_555
N3D Fe1 1_555 1_555
C2A C1 1_555 1_555
H1A C2A 1_555 1_555
H2A C2A 1_555 1_555
C3A O1A 1_555 1_555
C4A C3A 1_555 1_555
H3A C4A 1_555 1_555
C5A H4A 1_555 1_555
C6A H5A 1_555 1_555
C7A C3A 1_555 1_555
H6A C7A 1_555 1_555
C8A C5A 1_555 1_555
C9A N1A 1_555 1_555
H7A C9A 1_555 1_555
C10D N2D 1_555 1_555
C11A C1 1_555 1_555
H8A C11A 1_555 1_555
H9A C11A 1_555 1_555
C12A C7A 1_555 1_555
H10A C12A 1_555 1_555
C13A N3A 1_555 1_555
H11A C13A 1_555 1_555
C14A C5A 1_555 1_555
H12A C14A 1_555 1_555
C1 C11 1_555 1_555
C6 C8 1_555 1_555
C9 C12 1_555 1_555
C13 C14 1_555 1_555
O2A C11A 1_555 1_555
C6A C8A 1_555 1_555
C9A C12A 1_555 1_555
C13A C14A 1_555 1_555

#END
