
#######################################################################
#
#                 Cambridge Crystallographic Data Centre
#                                CCDC 
#
#######################################################################
#
# If this CIF has been generated from an entry in the Cambridge 
# Structural Database, then it will include bibliographic, chemical, 
# crystal, experimental, refinement or atomic coordinate data resulting 
# from the CCDC's data processing and validation procedures.
#
#######################################################################

data_WEFDES
_symmetry_cell_setting           tetragonal
_symmetry_space_group_name_H-M   'I 41/a'
_symmetry_Int_Tables_number      88
_space_group_name_Hall           '-I 4ad'
loop_
_symmetry_equiv_pos_site_id
_symmetry_equiv_pos_as_xyz
1 x,y,z
2 3/4-y,1/4+x,1/4+z
3 -x,1/2-y,z
4 1/4+y,1/4-x,1/4+z
5 1/2+x,1/2+y,1/2+z
6 1/4-y,3/4+x,3/4+z
7 1/2-x,-y,1/2+z
8 3/4+y,3/4-x,3/4+z
9 -x,-y,-z
10 1/4+y,3/4-x,3/4-z
11 x,1/2+y,-z
12 3/4-y,3/4+x,3/4-z
13 1/2-x,1/2-y,1/2-z
14 3/4+y,1/4-x,1/4-z
15 1/2+x,y,1/2-z
16 1/4-y,1/4+x,1/4-z
_cell_length_a                   21.4229(6)
_cell_length_b                   21.4229(6)
_cell_length_c                   11.3047(6)
_cell_angle_alpha                90
_cell_angle_beta                 90
_cell_angle_gamma                90
_cell_volume                     5188.19
loop_
_atom_site_label
_atom_site_type_symbol
_atom_site_fract_x
_atom_site_fract_y
_atom_site_fract_z
Tb1 Tb 0.428178(8) 0.563644(8) 0.031841(15)
O1 O 0.50567(12) 0.49201(12) 0.1147(2)
N1 N 0.43817(14) 0.56186(14) 0.2711(3)
C1 C 0.49356(18) 0.44297(19) 0.1754(3)
O2 O 0.26595(17) 0.47241(17) 0.5390(3)
O3 O 0.51498(15) 0.39162(13) 0.1436(3)
C2 C 0.45254(18) 0.44675(18) 0.2830(3)
O4 O 0.30949(16) 0.38914(17) 0.6156(3)
C3 C 0.42166(18) 0.50177(19) 0.3206(3)
C4 C 0.3742(2) 0.49625(19) 0.4042(4)
H1 H 0.3500 0.5317 0.4252
O5 O 0.50936(14) 0.62428(14) 0.1101(3)
C5 C 0.3621(2) 0.4382(2) 0.4576(4)
O6 O 0.58554(15) 0.64232(18) 0.2381(3)
C6 C 0.3967(2) 0.3863(2) 0.4293(4)
H2 H 0.3904 0.3482 0.4705
O7 O 0.33130(13) 0.57218(14) 0.1472(3)
C7 C 0.4405(2) 0.3901(2) 0.3411(4)
H3 H 0.4631 0.3538 0.3189
O8 O 0.28635(13) 0.63083(14) 0.2898(3)
C8 C 0.3104(2) 0.4315(2) 0.5456(4)
C9 C 0.50263(19) 0.5802(2) 0.3044(4)
H4 H 0.5276 0.5422 0.3191
H5 H 0.5012 0.6045 0.3789
C10 C 0.5343(2) 0.6189(2) 0.2098(4)
C11 C 0.39511(18) 0.61279(18) 0.3014(4)
H6 H 0.4136 0.6531 0.2765
H7 H 0.3894 0.6141 0.3883
C12 C 0.33215(18) 0.60463(18) 0.2423(3)
H8 H 0.2345 0.4541 0.5900
Tb1H Tb 0.571822(8) 0.436356(8) -0.031841(15)
Tb1G Tb 0.313644(8) 0.321822(8) 0.781841(15)
Tb1O Tb 0.686356(8) 0.678178(8) 0.218159(15)
Tb1A Tb 0.186356(8) 0.678178(8) 0.281841(15)
Tb1G_2 Tb 0.313644(8) 0.321822(8) -0.218159(15)
Tb1K Tb 0.186356(8) 0.178178(8) -0.281841(15)
Tb1F Tb 0.071822(8) 0.436356(8) 0.531841(15)
Tb1J Tb 0.428178(8) 0.063644(8) -0.031841(15)
O1H O 0.49433(12) 0.50799(12) -0.1147(2)
O1C O 0.74201(12) 0.74433(12) 0.3647(2)
O1O O 0.75799(12) 0.75567(12) 0.1353(2)
O1G O 0.24201(12) 0.24433(12) -0.1353(2)
N1O N 0.68814(14) 0.68817(14) -0.0211(3)
N1G N 0.31186(14) 0.31183(14) 0.0211(3)
C1G C 0.19297(19) 0.25644(18) -0.0746(3)
O2G O 0.22241(17) 0.48405(17) 0.2890(3)
O3H O 0.48502(15) 0.60838(13) -0.1436(3)
O3C O 0.64162(13) 0.73502(15) 0.3936(3)
O3G O 0.14162(13) 0.23502(15) -0.1064(3)
C2G C 0.19675(18) 0.29746(18) 0.0330(3)
O4A O 0.36086(17) 0.55949(16) -0.1344(3)
O4H O 0.69051(16) 0.61086(17) 0.3844(3)
O4G O 0.13914(17) 0.44051(16) 0.3656(3)
C3G C 0.25177(19) 0.32834(18) 0.0706(3)
C4G C 0.24625(19) 0.3758(2) 0.1542(4)
H1G H 0.2817 0.4000 0.1752
O5O O 0.62572(14) 0.75936(14) 0.1399(3)
O5G O 0.37428(14) 0.24064(14) -0.1399(3)
C5G C 0.1882(2) 0.3879(2) 0.2076(4)
O6M O 0.39232(18) 0.66446(15) 0.0119(3)
O6G O 0.39232(18) 0.16446(15) -0.0119(3)
C6G C 0.1363(2) 0.3533(2) 0.1793(4)
H2G H 0.0982 0.3596 0.2205
O7O O 0.67782(14) 0.58130(13) 0.1028(3)
O7G O 0.32218(14) 0.41870(13) -0.1028(3)
C7G C 0.1401(2) 0.3095(2) 0.0911(4)
H3G H 0.1038 0.2869 0.0689
O8G O 0.38083(14) 0.46365(13) 0.0398(3)
O8N O 0.78635(13) 0.63083(14) 0.2102(3)
C8G C 0.1815(2) 0.4396(2) 0.2956(4)
C9G C 0.3302(2) 0.24737(19) 0.0544(4)
H4G H 0.2922 0.2224 0.0691
H5G H 0.3545 0.2488 0.1289
C10G C 0.3689(2) 0.2157(2) -0.0402(4)
C11G C 0.36279(18) 0.35489(18) 0.0514(4)
H6G H 0.4031 0.3364 0.0265
H7G H 0.3641 0.3606 0.1383
C12G C 0.35463(18) 0.41785(18) -0.0077(3)
H8G H 0.2041 0.5155 0.3400
O9 O 0.5000 0.7500 0.4256(15)
O10? O 0.5000 0.7500 0.283(2)
loop_
_geom_bond_atom_site_label_1
_geom_bond_atom_site_label_2
_geom_bond_site_symmetry_1
_geom_bond_site_symmetry_2
Tb1 O1 1_555 1_555
O1 C1 1_555 1_555
N1 Tb1 1_555 1_555
C1 O3 1_555 1_555
O2 C8 1_555 1_555
O3 Tb1H 1_555 1_555
C2 C1 1_555 1_555
O4 C8 1_555 1_555
C3 N1 1_555 1_555
C4 C3 1_555 1_555
H1 C4 1_555 1_555
O5 Tb1 1_555 1_555
C5 C4 1_555 1_555
O6 C10 1_555 1_555
C6 C5 1_555 1_555
H2 C6 1_555 1_555
O7 Tb1 1_555 1_555
C7 C2 1_555 1_555
H3 C7 1_555 1_555
O8 C12 1_555 1_555
C8 C5 1_555 1_555
C9 N1 1_555 1_555
H4 C9 1_555 1_555
H5 C9 1_555 1_555
C10 O5 1_555 1_555
C11 N1 1_555 1_555
H6 C11 1_555 1_555
H7 C11 1_555 1_555
C12 O7 1_555 1_555
H8 O2 1_555 1_555
Tb1H O1 1_555 1_555
Tb1G O4 1_555 1_555
Tb1O O6 1_555 1_555
Tb1A O8 1_555 1_555
Tb1G_2 O1G 1_555 1_555
Tb1K O1G 1_555 1_555
Tb1F O4G 1_555 1_555
Tb1J O6G 1_555 1_555
O1H Tb1 1_555 1_555
O1C Tb1O 1_555 1_555
O1O Tb1O 1_555 1_555
O1G C1G 1_555 1_555
N1O Tb1O 1_555 1_555
N1G Tb1G_2 1_555 1_555
C1G O3G 1_555 1_555
O2G C8G 1_555 1_555
O3H Tb1 1_555 1_555
O3C Tb1O 1_555 1_555
O3G Tb1K 1_555 1_555
C2G C1G 1_555 1_555
O4A Tb1 1_555 1_555
O4H Tb1O 1_555 1_555
O4G C8G 1_555 1_555
C3G N1G 1_555 1_555
C4G C3G 1_555 1_555
H1G C4G 1_555 1_555
O5O Tb1O 1_555 1_555
O5G Tb1G_2 1_555 1_555
C5G C4G 1_555 1_555
O6M Tb1 1_555 1_555
O6G C10G 1_555 1_555
C6G C5G 1_555 1_555
H2G C6G 1_555 1_555
O7O Tb1O 1_555 1_555
O7G Tb1G_2 1_555 1_555
C7G C2G 1_555 1_555
H3G C7G 1_555 1_555
O8G Tb1 1_555 1_555
O8N Tb1O 1_555 1_555
C8G C5G 1_555 1_555
C9G N1G 1_555 1_555
H4G C9G 1_555 1_555
H5G C9G 1_555 1_555
C10G O5G 1_555 1_555
C11G N1G 1_555 1_555
H6G C11G 1_555 1_555
H7G C11G 1_555 1_555
C12G O7G 1_555 1_555
H8G O2G 1_555 1_555
C2 C3 1_555 1_555
C6 C7 1_555 1_555
C9 C10 1_555 1_555
C11 C12 1_555 1_555
Tb1H O1H 1_555 1_555
C2G C3G 1_555 1_555
C6G C7G 1_555 1_555
O8G C12G 1_555 1_555
C9G C10G 1_555 1_555
C11G C12G 1_555 1_555

#END
