
#######################################################################
#
#                 Cambridge Crystallographic Data Centre
#                                CCDC 
#
#######################################################################
#
# If this CIF has been generated from an entry in the Cambridge 
# Structural Database, then it will include bibliographic, chemical, 
# crystal, experimental, refinement or atomic coordinate data resulting 
# from the CCDC's data processing and validation procedures.
#
#######################################################################

data_WEFKIB
_symmetry_cell_setting           triclinic
_symmetry_space_group_name_H-M   'P -1'
_symmetry_Int_Tables_number      2
_space_group_name_Hall           '-P 1'
loop_
_symmetry_equiv_pos_site_id
_symmetry_equiv_pos_as_xyz
1 x,y,z
2 -x,-y,-z
_cell_length_a                   9.419(2)
_cell_length_b                   9.930(2)
_cell_length_c                   13.671(3)
_cell_angle_alpha                98.28(2)
_cell_angle_beta                 91.33(2)
_cell_angle_gamma                117.40(1)
_cell_volume                     1117.54
loop_
_atom_site_label
_atom_site_type_symbol
_atom_site_fract_x
_atom_site_fract_y
_atom_site_fract_z
Cd1 Cd -0.50000 0.00000 0.50000
Cd2 Cd 0.08839(3) 0.29272(3) 0.29447(2)
S1 S -0.2064(1) 0.1634(1) 0.2105(1)
C1 C -0.3099(4) 0.0618(4) 0.2933(3)
N1 N -0.3884(4) -0.0096(4) 0.3489(3)
S2 S 0.0340(1) 0.0057(1) 0.3268(1)
C2 C 0.2052(5) 0.0417(4) 0.3857(3)
N2 N 0.3243(4) 0.0625(4) 0.4246(3)
S3 S 0.2995(2) 0.2520(3) -0.0203(1)
C3 C 0.2695(5) 0.2783(5) 0.0949(3)
N3 N 0.2496(5) 0.2946(5) 0.1779(3)
O1 O -0.0030(3) 0.3282(3) 0.4560(2)
O2 O 0.2527(3) 0.3904(3) 0.4494(2)
C4 C 0.1349(4) 0.3720(4) 0.4964(3)
C5 C 0.1500(4) 0.4007(4) 0.6100(3)
N4 N 0.3124(4) 0.4584(3) 0.6638(2)
C6 C 0.3820(5) 0.3502(5) 0.6382(3)
C7 C 0.2929(6) 0.4705(6) 0.7733(3)
C8 C 0.4259(5) 0.6154(4) 0.6432(3)
O3 O 0.1736(4) 0.5479(3) 0.2900(2)
O4 O 0.0406(4) 0.4877(3) 0.1410(2)
C9 C 0.1405(4) 0.5778(4) 0.2078(3)
C10 C 0.2435(5) 0.7489(4) 0.2014(3)
N5 N 0.2371(4) 0.7964(3) 0.1027(2)
C11 C 0.2842(6) 0.7063(6) 0.0245(3)
C12 C 0.3533(7) 0.9633(5) 0.1133(4)
C13 C 0.0742(5) 0.7745(6) 0.0713(4)
O5 O -0.7044(3) -0.2520(3) 0.4674(2)
H1 H -0.7312 -0.3032 0.4004
H2 H 0.0796 0.3053 0.6304
H3 H 0.1108 0.4726 0.6317
H4 H 0.3949 0.3400 0.5685
H5 H 0.4848 0.3908 0.6757
H6 H 0.3112 0.2511 0.6537
H7 H 0.2209 0.3709 0.7877
H8 H 0.3960 0.5080 0.8099
H9 H 0.2504 0.5406 0.7923
H10 H 0.4384 0.6089 0.5734
H11 H 0.3829 0.6850 0.6626
H12 H 0.5285 0.6525 0.6801
H13 H 0.3534 0.7774 0.2214
H14 H 0.2109 0.8076 0.2489
H15 H 0.2788 0.7365 -0.0386
H16 H 0.3917 0.7249 0.0421
H17 H 0.2112 0.5987 0.0201
H18 H 0.3227 1.0206 0.1633
H19 H 0.4591 0.9791 0.1329
H20 H 0.3529 0.9977 0.0512
H21 H 0.0438 0.8330 0.1205
H22 H 0.0758 0.8088 0.0089
H23 H -0.0020 0.6672 0.0639
N2_2 N -0.6757(4) 0.0625(4) 0.4246(3)
Cd1_2 Cd 0.50000 0.00000 0.50000
N1A N 0.3884(4) 0.0096(4) 0.6511(3)
C1A C 0.3099(4) -0.0618(4) 0.7067(3)
S1A S 0.2064(1) -0.1634(1) 0.7895(1)
Cd2A Cd -0.08839(3) -0.29272(3) 0.70553(2)
S2A S -0.0340(1) -0.0057(1) 0.6732(1)
C2A C -0.2052(5) -0.0417(4) 0.6143(3)
N2A N -0.3243(4) -0.0625(4) 0.5754(3)
N1A_2 N -0.6116(4) 0.0096(4) 0.6511(3)
O5A O -0.2956(3) 0.2520(3) 0.5326(2)
H1A H -0.2688 0.3032 0.5996
N3A N -0.2496(5) -0.2946(5) 0.8221(3)
C3A C -0.2695(5) -0.2783(5) 0.9051(3)
S3A S -0.2995(2) -0.2520(3) 1.0203(1)
O1A O 0.0030(3) -0.3282(3) 0.5440(2)
C4A C -0.1349(4) -0.3720(4) 0.5036(3)
O2A O -0.2527(3) -0.3904(3) 0.5506(2)
O3A O -0.1736(4) -0.5479(3) 0.7100(2)
C9A C -0.1405(4) -0.5778(4) 0.7922(3)
O4A O -0.0406(4) -0.4877(3) 0.8590(2)
C10A C -0.2435(5) -0.7489(4) 0.7986(3)
N5A N -0.2371(4) -0.7964(3) 0.8973(2)
C11A C -0.2842(6) -0.7063(6) 0.9755(3)
H15A H -0.2788 -0.7365 1.0386
H16A H -0.3917 -0.7249 0.9579
H17A H -0.2112 -0.5987 0.9799
C12A C -0.3533(7) -0.9633(5) 0.8867(4)
H18A H -0.3227 -1.0206 0.8367
H19A H -0.4591 -0.9791 0.8671
H20A H -0.3529 -0.9977 0.9488
C13A C -0.0742(5) -0.7745(6) 0.9287(4)
H21A H -0.0438 -0.8330 0.8795
H22A H -0.0758 -0.8088 0.9911
H23A H 0.0020 -0.6672 0.9361
H13A H -0.3534 -0.7774 0.7786
H14A H -0.2109 -0.8076 0.7511
C5A C -0.1500(4) -0.4007(4) 0.3900(3)
N4A N -0.3124(4) -0.4584(3) 0.3362(2)
C6A C -0.3820(5) -0.3502(5) 0.3618(3)
H4A H -0.3949 -0.3400 0.4315
H5A H -0.4848 -0.3908 0.3243
H6A H -0.3112 -0.2511 0.3463
C7A C -0.2929(6) -0.4705(6) 0.2267(3)
H7A H -0.2209 -0.3709 0.2123
H8A H -0.3960 -0.5080 0.1901
H9A H -0.2504 -0.5406 0.2077
C8A C -0.4259(5) -0.6154(4) 0.3568(3)
H10A H -0.4384 -0.6089 0.4266
H11A H -0.3829 -0.6850 0.3374
H12A H -0.5285 -0.6525 0.3199
H2A H -0.0796 -0.3053 0.3696
H3A H -0.1108 -0.4726 0.3683
loop_
_geom_bond_atom_site_label_1
_geom_bond_atom_site_label_2
_geom_bond_site_symmetry_1
_geom_bond_site_symmetry_2
Cd1 N1 1_555 1_555
Cd2 S1 1_555 1_555
S1 C1 1_555 1_555
C1 N1 1_555 1_555
S2 Cd2 1_555 1_555
C2 S2 1_555 1_555
N2 C2 1_555 1_555
S3 C3 1_555 1_555
C3 N3 1_555 1_555
N3 Cd2 1_555 1_555
O1 Cd2 1_555 1_555
O2 Cd2 1_555 1_555
C4 O1 1_555 1_555
C5 C4 1_555 1_555
N4 C5 1_555 1_555
C6 N4 1_555 1_555
C7 N4 1_555 1_555
C8 N4 1_555 1_555
O3 Cd2 1_555 1_555
O4 C9 1_555 1_555
C9 O3 1_555 1_555
C10 C9 1_555 1_555
N5 C10 1_555 1_555
C11 N5 1_555 1_555
C12 N5 1_555 1_555
C13 N5 1_555 1_555
O5 Cd1 1_555 1_555
H1 O5 1_555 1_555
H2 C5 1_555 1_555
H3 C5 1_555 1_555
H4 C6 1_555 1_555
H5 C6 1_555 1_555
H6 C6 1_555 1_555
H7 C7 1_555 1_555
H8 C7 1_555 1_555
H9 C7 1_555 1_555
H10 C8 1_555 1_555
H11 C8 1_555 1_555
H12 C8 1_555 1_555
H13 C10 1_555 1_555
H14 C10 1_555 1_555
H15 C11 1_555 1_555
H16 C11 1_555 1_555
H17 C11 1_555 1_555
H18 C12 1_555 1_555
H19 C12 1_555 1_555
H20 C12 1_555 1_555
H21 C13 1_555 1_555
H22 C13 1_555 1_555
H23 C13 1_555 1_555
N2_2 Cd1 1_555 1_555
Cd1_2 N2 1_555 1_555
N1A Cd1_2 1_555 1_555
C1A N1A 1_555 1_555
S1A C1A 1_555 1_555
Cd2A S1A 1_555 1_555
S2A Cd2A 1_555 1_555
C2A S2A 1_555 1_555
N2A Cd1 1_555 1_555
N1A_2 Cd1 1_555 1_555
O5A Cd1 1_555 1_555
H1A O5A 1_555 1_555
N3A Cd2A 1_555 1_555
C3A N3A 1_555 1_555
S3A C3A 1_555 1_555
O1A Cd2A 1_555 1_555
C4A O1A 1_555 1_555
O2A Cd2A 1_555 1_555
O3A Cd2A 1_555 1_555
C9A O3A 1_555 1_555
O4A C9A 1_555 1_555
C10A C9A 1_555 1_555
N5A C10A 1_555 1_555
C11A N5A 1_555 1_555
H15A C11A 1_555 1_555
H16A C11A 1_555 1_555
H17A C11A 1_555 1_555
C12A N5A 1_555 1_555
H18A C12A 1_555 1_555
H19A C12A 1_555 1_555
H20A C12A 1_555 1_555
C13A N5A 1_555 1_555
H21A C13A 1_555 1_555
H22A C13A 1_555 1_555
H23A C13A 1_555 1_555
H13A C10A 1_555 1_555
H14A C10A 1_555 1_555
C5A C4A 1_555 1_555
N4A C5A 1_555 1_555
C6A N4A 1_555 1_555
H4A C6A 1_555 1_555
H5A C6A 1_555 1_555
H6A C6A 1_555 1_555
C7A N4A 1_555 1_555
H7A C7A 1_555 1_555
H8A C7A 1_555 1_555
H9A C7A 1_555 1_555
C8A N4A 1_555 1_555
H10A C8A 1_555 1_555
H11A C8A 1_555 1_555
H12A C8A 1_555 1_555
H2A C5A 1_555 1_555
H3A C5A 1_555 1_555
O2 C4 1_555 1_555
C2A N2A 1_555 1_555
C4A O2A 1_555 1_555

#END
