
#######################################################################
#
#                 Cambridge Crystallographic Data Centre
#                                CCDC 
#
#######################################################################
#
# If this CIF has been generated from an entry in the Cambridge 
# Structural Database, then it will include bibliographic, chemical, 
# crystal, experimental, refinement or atomic coordinate data resulting 
# from the CCDC's data processing and validation procedures.
#
#######################################################################

data_WEFSUW
_symmetry_cell_setting           monoclinic
_symmetry_space_group_name_H-M   'P 21/n'
_symmetry_Int_Tables_number      14
_space_group_name_Hall           '-P 2yn'
loop_
_symmetry_equiv_pos_site_id
_symmetry_equiv_pos_as_xyz
1 x,y,z
2 1/2-x,1/2+y,1/2-z
3 -x,-y,-z
4 1/2+x,1/2-y,1/2+z
_cell_length_a                   10.754(3)
_cell_length_b                   10.073(2)
_cell_length_c                   15.911(4)
_cell_angle_alpha                90
_cell_angle_beta                 106.308(4)
_cell_angle_gamma                90
_cell_volume                     1654.21
loop_
_atom_site_label
_atom_site_type_symbol
_atom_site_fract_x
_atom_site_fract_y
_atom_site_fract_z
C1 C 0.2358(3) 0.8540(4) 0.2030(2)
H1 H 0.3148 0.8098 0.2209
C2 C 0.1349(3) 0.8090(4) 0.2324(2)
H2 H 0.1453 0.7359 0.2695
C3 C 0.0183(3) 0.8744(4) 0.2059(2)
H3 H -0.0519 0.8455 0.2243
C4 C 0.0067(3) 0.9828(3) 0.1522(2)
H4 H -0.0711 1.0290 0.1345
C5 C 0.1126(3) 1.0228(3) 0.12450(19)
C6 C 0.1058(2) 1.1374(3) 0.06493(16)
C7 C -0.0038(3) 1.2154(3) 0.0366(2)
H5 H -0.0770 1.1969 0.0547
C8 C -0.0039(3) 1.3205(4) -0.0185(3)
H6 H -0.0766 1.3745 -0.0373
C9 C 0.1041(3) 1.3446(3) -0.0452(2)
H7 H 0.1063 1.4155 -0.0822
C10 C 0.2094(3) 1.2623(3) -0.01652(19)
H8 H 0.2821 1.2779 -0.0359
C11 C 0.7859(2) 1.4460(2) 0.20587(15)
C12 C 0.7587(2) 1.3317(2) 0.15676(15)
H9 H 0.8216 1.2662 0.1632
C13 C 0.6372(2) 1.3137(2) 0.09752(15)
C14 C 0.5434(2) 1.4105(2) 0.08996(16)
H10 H 0.4607 1.3968 0.0528
C15 C 0.5714(3) 1.5281(2) 0.13730(17)
C16 C 0.6940(3) 1.5467(3) 0.19381(16)
H11 H 0.7149 1.6265 0.2238
C17 C 0.9127(2) 1.4621(3) 0.27448(16)
C18 C 0.6076(2) 1.1910(2) 0.04204(15)
Cd1 Cd 0.385813(16) 1.013259(18) 0.079398(11)
N1 N 0.2254(2) 0.9583(3) 0.14978(16)
N2 N 0.21206(19) 1.1610(2) 0.03785(14)
O1 O 0.49204(14) 1.15694(18) 0.00821(10)
O2 O 0.70161(17) 1.12871(19) 0.02928(13)
O3 O 0.97706(18) 1.36086(19) 0.30502(13)
O4 O 0.94978(17) 1.57563(19) 0.30148(12)
O5 O 0.47469(18) 1.61788(19) 0.12533(13)
H12 H 0.5032 1.6872 0.1504
Cd1B Cd 0.614187(16) 0.986741(18) -0.079398(11)
Cd1A Cd 1.114187(16) 1.513259(18) 0.420602(11)
O2B O 0.29839(17) 0.87129(19) -0.02928(13)
O3A O 0.52294(18) 0.86086(19) 0.19498(13)
O4A O 0.55022(17) 1.07563(19) 0.19852(12)
loop_
_geom_bond_atom_site_label_1
_geom_bond_atom_site_label_2
_geom_bond_site_symmetry_1
_geom_bond_site_symmetry_2
C1 H1 1_555 1_555
C2 C1 1_555 1_555
H2 C2 1_555 1_555
C3 C2 1_555 1_555
H3 C3 1_555 1_555
C4 C3 1_555 1_555
H4 C4 1_555 1_555
C5 C4 1_555 1_555
C6 C5 1_555 1_555
C7 C6 1_555 1_555
H5 C7 1_555 1_555
C8 C7 1_555 1_555
H6 C8 1_555 1_555
C9 C8 1_555 1_555
H7 C9 1_555 1_555
C10 C9 1_555 1_555
H8 C10 1_555 1_555
C11 C12 1_555 1_555
C12 H9 1_555 1_555
C13 C12 1_555 1_555
C14 C13 1_555 1_555
H10 C14 1_555 1_555
C15 C14 1_555 1_555
C16 C11 1_555 1_555
H11 C16 1_555 1_555
C17 C11 1_555 1_555
C18 C13 1_555 1_555
Cd1 N1 1_555 1_555
N1 C1 1_555 1_555
N2 C6 1_555 1_555
O1 C18 1_555 1_555
O2 C18 1_555 1_555
O3 C17 1_555 1_555
O4 C17 1_555 1_555
O5 C15 1_555 1_555
H12 O5 1_555 1_555
Cd1B O2 1_555 1_555
Cd1A O3 1_555 1_555
O2B Cd1 1_555 1_555
O3A Cd1 1_555 1_555
O4A Cd1 1_555 1_555
C5 N1 1_555 1_555
C10 N2 1_555 1_555
C15 C16 1_555 1_555
Cd1 N2 1_555 1_555
Cd1 O1 1_555 1_555
O4 Cd1A 1_555 1_555

#END
