
#######################################################################
#
#                 Cambridge Crystallographic Data Centre
#                                CCDC 
#
#######################################################################
#
# If this CIF has been generated from an entry in the Cambridge 
# Structural Database, then it will include bibliographic, chemical, 
# crystal, experimental, refinement or atomic coordinate data resulting 
# from the CCDC's data processing and validation procedures.
#
#######################################################################

data_WEFXAH
_symmetry_cell_setting           monoclinic
_symmetry_space_group_name_H-M   'P 21/c'
_symmetry_Int_Tables_number      14
_space_group_name_Hall           '-P 2ybc'
loop_
_symmetry_equiv_pos_site_id
_symmetry_equiv_pos_as_xyz
1 x,y,z
2 -x,1/2+y,1/2-z
3 -x,-y,-z
4 x,1/2-y,1/2+z
_cell_length_a                   10.7940(10)
_cell_length_b                   7.1516(6)
_cell_length_c                   12.4170(10)
_cell_angle_alpha                90
_cell_angle_beta                 106.150(10)
_cell_angle_gamma                90
_cell_volume                     920.696
loop_
_atom_site_label
_atom_site_type_symbol
_atom_site_fract_x
_atom_site_fract_y
_atom_site_fract_z
K1 K 0.43521(6) 0.53657(9) 0.74392(5)
S1 S 0.37624(7) 0.27936(10) 0.96669(6)
O1 O 0.4524(2) 0.2314(3) 0.89107(17)
O2 O 0.3285(2) 0.4709(3) 0.95242(18)
O3 O 0.4386(2) 0.2303(3) 1.08251(17)
O4 O -0.1962(2) -0.1461(3) 0.81470(18)
O5 O -0.0704(2) -0.3883(3) 0.85935(18)
O6 O 0.3076(2) 0.8669(3) 0.6626(2)
H1 H 0.315(4) 0.900(5) 0.605(3)
H2 H 0.252(4) 0.945(6) 0.672(3)
N1 N -0.0886(2) -0.2181(4) 0.8463(2)
C1 C 0.2366(3) 0.1340(4) 0.9267(2)
C2 C 0.1131(3) 0.2119(4) 0.9060(2)
H3 H 0.1032 0.3432 0.9118
C3 C 0.0058(3) 0.0975(4) 0.8772(2)
H4 H -0.0787 0.1482 0.8622
C4 C 0.0250(3) -0.0950(4) 0.8708(2)
C5 C 0.1463(3) -0.1745(4) 0.8908(2)
H5 H 0.1559 -0.3060 0.8859
C6 C 0.2534(3) -0.0582(4) 0.9183(2)
H6 H 0.3376 -0.1092 0.9312
K1A K 0.56479(6) 0.03657(9) 0.75608(5)
K1A_2 K 0.56479(6) 1.03657(9) 0.75608(5)
K1C K 0.43521(6) -0.03657(9) 1.24392(5)
K1B K 0.56479(6) 0.46343(9) 1.25608(5)
K1A_3 K -0.43521(6) 0.03657(9) 0.75608(5)
O1A O 0.5476(2) 0.7314(3) 0.60893(17)
O3C O 0.4386(2) 0.2697(3) 0.58251(17)
O3B O 0.5614(2) 0.7697(3) 0.91749(17)
O4A O 0.1962(2) 0.3539(3) 0.68530(18)
O6A O 0.6924(2) 0.3669(3) 0.8374(2)
H1A H 0.685(4) 0.400(5) 0.895(3)
H2A H 0.748(4) 0.445(6) 0.828(3)
loop_
_geom_bond_atom_site_label_1
_geom_bond_atom_site_label_2
_geom_bond_site_symmetry_1
_geom_bond_site_symmetry_2
K1 O1 1_555 1_555
S1 O1 1_555 1_555
O1 K1A 1_555 1_555
O2 K1 1_555 1_555
O3 S1 1_555 1_555
O4 N1 1_555 1_555
O5 N1 1_555 1_555
O6 K1 1_555 1_555
H1 O6 1_555 1_555
H2 O6 1_555 1_555
N1 C4 1_555 1_555
C1 S1 1_555 1_555
C2 C1 1_555 1_555
H3 C2 1_555 1_555
C3 C2 1_555 1_555
H4 C3 1_555 1_555
C4 C3 1_555 1_555
C5 C4 1_555 1_555
H5 C5 1_555 1_555
C6 C1 1_555 1_555
H6 C6 1_555 1_555
K1A O3C 1_555 1_555
K1A_2 O6 1_555 1_555
K1C O3 1_555 1_555
K1B O3 1_555 1_555
K1A_3 O4 1_555 1_555
O1A K1 1_555 1_555
O3C K1 1_555 1_555
O3B K1 1_555 1_555
O4A K1 1_555 1_555
O6A K1 1_555 1_555
H1A O6A 1_555 1_555
H2A O6A 1_555 1_555
S1 O2 1_555 1_555
C5 C6 1_555 1_555
K1A O6A 1_555 1_555
K1A_2 O1A 1_555 1_555
K1A_2 O3B 1_555 1_555

#END
