
#######################################################################
#
#                 Cambridge Crystallographic Data Centre
#                                CCDC 
#
#######################################################################
#
# If this CIF has been generated from an entry in the Cambridge 
# Structural Database, then it will include bibliographic, chemical, 
# crystal, experimental, refinement or atomic coordinate data resulting 
# from the CCDC's data processing and validation procedures.
#
#######################################################################

data_WEFZOY
_symmetry_cell_setting           monoclinic
_symmetry_space_group_name_H-M   'P 21'
_symmetry_Int_Tables_number      4
_space_group_name_Hall           'P 2yb'
loop_
_symmetry_equiv_pos_site_id
_symmetry_equiv_pos_as_xyz
1 x,y,z
2 -x,1/2+y,-z
_cell_length_a                   7.7777(16)
_cell_length_b                   13.889(3)
_cell_length_c                   16.589(3)
_cell_angle_alpha                90
_cell_angle_beta                 90.79(3)
_cell_angle_gamma                90
_cell_volume                     1791.85
loop_
_atom_site_label
_atom_site_type_symbol
_atom_site_fract_x
_atom_site_fract_y
_atom_site_fract_z
Cu1 Cu 0.77975(6) 0.61022(3) 0.42840(3)
O1 O 0.7809(4) 0.6694(2) 0.31824(18)
H1 H 0.709(4) 0.710(2) 0.304(3)
H2 H 0.8788(19) 0.691(3) 0.316(3)
O2 O 1.0692(4) 0.6090(2) 0.43129(17)
O3 O 1.4817(4) 0.5972(3) 0.42485(19)
O4 O 1.4892(4) 0.7673(2) 0.29150(17)
O5 O 1.0655(4) 0.7699(3) 0.2902(2)
N1 N 0.7888(5) 0.4718(3) 0.3916(2)
N2 N 0.7686(5) 0.5473(3) 0.5371(2)
H13 H 0.8806 0.5414 0.5569
N3 N 0.7638(4) 0.7310(3) 0.4934(2)
C3 C 0.7524(6) 0.4080(3) 0.4504(3)
C5 C 0.7172(5) 0.7153(4) 0.5704(2)
C6 C 0.7362(6) 0.8829(3) 0.6006(3)
H16 H 0.7277 0.9348 0.6377
C7 C 0.6750(6) 0.6119(4) 0.5920(3)
H17 H 0.7097 0.5988 0.6486
H18 H 0.5497 0.6009 0.5864
C10 C 0.6966(6) 0.4502(3) 0.5294(3)
H21 H 0.5695 0.4531 0.5311
H22 H 0.7379 0.4094 0.5746
C11 C 0.7643(7) 0.3099(4) 0.4347(3)
H23 H 0.7355 0.2649 0.4755
C12 C 0.7825(6) 0.8995(3) 0.5207(3)
H24 H 0.8028 0.9630 0.5017
C15 C 0.7978(6) 0.8216(3) 0.4706(3)
H28 H 0.8343 0.8323 0.4170
C16 C 0.7033(6) 0.7896(3) 0.6247(3)
H29 H 0.6710 0.7768 0.6787
C17 C 0.8173(7) 0.2775(3) 0.3610(3)
H30 H 0.8281 0.2105 0.3508
C20 C 0.8390(6) 0.4402(3) 0.3191(3)
H34 H 0.8646 0.4858 0.2783
C22 C 0.8543(8) 0.3435(4) 0.3024(3)
H36 H 0.8901 0.3227 0.2507
C27 C 1.1824(6) 0.7261(3) 0.3287(3)
C29 C 1.3707(5) 0.6489(3) 0.3903(2)
C30 C 1.1825(6) 0.6520(3) 0.3918(3)
C32 C 1.3714(6) 0.7243(3) 0.3294(2)
Cu1_2 Cu 1.77975(6) 0.61022(3) 0.42840(3)
O3_2 O 0.4817(4) 0.5972(3) 0.42485(19)
Cu2 Cu 0.66664(6) 0.75926(3) 0.92767(3)
O6 O 0.6540(4) 0.6950(2) 0.81962(18)
H3 H 0.747(2) 0.671(3) 0.808(3)
H4 H 0.576(3) 0.656(2) 0.815(3)
O7 O 0.9666(4) 0.7836(2) 0.91463(19)
O8 O 1.3753(4) 0.7527(3) 0.94158(18)
O9 O 1.3747(4) 0.5872(2) 0.8057(2)
O10 O 0.9539(4) 0.6081(2) 0.78756(17)
N4 N 0.6970(5) 0.8252(2) 1.0335(2)
H14 H 0.5905 0.8270 1.0583
N5 N 0.7249(4) 0.6416(2) 0.9932(2)
N6 N 0.6347(4) 0.8945(3) 0.8878(2)
C1 C 0.7073(6) 0.5491(3) 0.9717(3)
H15 H 0.6531 0.5345 0.9215
C2 C 0.7978(6) 0.6632(3) 1.0656(3)
C4 C 0.6824(5) 0.9620(3) 0.9415(3)
C8 C 0.8615(6) 0.5915(3) 1.1160(3)
H19 H 0.9149 0.6075 1.1661
C9 C 0.8460(6) 0.4969(3) 1.0924(3)
H20 H 0.8908 0.4470 1.1259
C13 C 0.7647(6) 0.4741(3) 1.0195(3)
H25 H 0.7494 0.4091 1.0032
C14 C 0.7532(6) 0.9256(3) 1.0205(3)
H26 H 0.8804 0.9285 1.0202
H27 H 0.7122 0.9668 1.0649
C18 C 0.5528(6) 1.0179(3) 0.7946(3)
H31 H 0.5049 1.0353 0.7437
C19 C 0.8140(6) 0.7685(4) 1.0850(2)
H32 H 0.7862 0.7794 1.1423
H33 H 0.9339 0.7897 1.0764
C21 C 0.6687(6) 1.0604(4) 0.9237(3)
H35 H 0.7028 1.1075 0.9622
C23 C 0.5717(6) 0.9218(3) 0.8155(3)
H37 H 0.5390 0.8738 0.7775
C24 C 0.6043(6) 1.0878(3) 0.8486(3)
H38 H 0.5959 1.1540 0.8347
C25 C 1.2623(6) 0.7147(3) 0.8985(3)
C26 C 1.2591(6) 0.6372(3) 0.8370(3)
C28 C 1.0728(5) 0.6473(3) 0.8299(2)
C31 C 1.0748(6) 0.7266(3) 0.8879(3)
Cu2_2 Cu 1.66664(6) 0.75926(3) 0.92767(3)
O8_2 O 0.3753(4) 0.7527(3) 0.94158(18)
O11 O 0.6115(5) 0.9603(3) 0.32359(19)
H5 H 0.580(7) 0.9055(14) 0.312(3)
H6 H 0.599(7) 0.996(3) 0.2844(19)
O12 O 0.4199(4) 0.8462(3) 0.14092(19)
H7 H 0.3170(18) 0.859(4) 0.139(3)
H8 H 0.444(6) 0.813(4) 0.180(2)
O13 O 0.0906(4) 0.9101(2) 0.17173(18)
H9 H 0.088(7) 0.872(2) 0.2097(18)
H10 H 0.073(7) 0.9653(12) 0.187(3)
O14 O 0.0620(5) 0.5284(3) 0.63933(19)
H11 H 0.161(3) 0.509(4) 0.646(3)
H12 H 0.032(6) 0.562(4) 0.677(2)
loop_
_geom_bond_atom_site_label_1
_geom_bond_atom_site_label_2
_geom_bond_site_symmetry_1
_geom_bond_site_symmetry_2
Cu1 O1 1_555 1_555
Cu2 O6 1_555 1_555
O1 H1 1_555 1_555
H2 O1 1_555 1_555
O2 Cu1 1_555 1_555
O3 C29 1_555 1_555
O4 C32 1_555 1_555
O5 C27 1_555 1_555
O6 H3 1_555 1_555
H4 O6 1_555 1_555
O7 Cu2 1_555 1_555
O8 C25 1_555 1_555
O9 C26 1_555 1_555
O10 C28 1_555 1_555
O11 H5 1_555 1_555
H6 O11 1_555 1_555
O12 H7 1_555 1_555
H8 O12 1_555 1_555
O13 H9 1_555 1_555
H10 O13 1_555 1_555
O14 H11 1_555 1_555
H12 O14 1_555 1_555
N1 Cu1 1_555 1_555
N2 Cu1 1_555 1_555
H13 N2 1_555 1_555
N3 Cu1 1_555 1_555
N4 Cu2 1_555 1_555
H14 N4 1_555 1_555
N5 Cu2 1_555 1_555
N6 Cu2 1_555 1_555
C1 N5 1_555 1_555
H15 C1 1_555 1_555
C2 N5 1_555 1_555
C3 N1 1_555 1_555
C4 N6 1_555 1_555
C5 N3 1_555 1_555
C6 H16 1_555 1_555
C7 N2 1_555 1_555
H17 C7 1_555 1_555
H18 C7 1_555 1_555
C8 C2 1_555 1_555
H19 C8 1_555 1_555
C9 C8 1_555 1_555
H20 C9 1_555 1_555
C10 N2 1_555 1_555
H21 C10 1_555 1_555
H22 C10 1_555 1_555
C11 C3 1_555 1_555
H23 C11 1_555 1_555
C12 C6 1_555 1_555
H24 C12 1_555 1_555
C13 C1 1_555 1_555
H25 C13 1_555 1_555
C14 N4 1_555 1_555
H26 C14 1_555 1_555
H27 C14 1_555 1_555
C15 N3 1_555 1_555
H28 C15 1_555 1_555
C16 C5 1_555 1_555
H29 C16 1_555 1_555
C17 C11 1_555 1_555
H30 C17 1_555 1_555
C18 H31 1_555 1_555
C19 N4 1_555 1_555
H32 C19 1_555 1_555
H33 C19 1_555 1_555
C20 N1 1_555 1_555
H34 C20 1_555 1_555
C21 C4 1_555 1_555
H35 C21 1_555 1_555
C22 C17 1_555 1_555
H36 C22 1_555 1_555
C23 N6 1_555 1_555
H37 C23 1_555 1_555
C24 C18 1_555 1_555
H38 C24 1_555 1_555
C25 C26 1_555 1_555
C26 C28 1_555 1_555
C27 C30 1_555 1_555
C28 C31 1_555 1_555
C29 C30 1_555 1_555
C30 O2 1_555 1_555
C31 O7 1_555 1_555
C32 C27 1_555 1_555
Cu1_2 O3 1_555 1_555
Cu2_2 O8 1_555 1_555
O3_2 Cu1 1_555 1_555
O8_2 Cu2 1_555 1_555
C2 C19 1_555 1_555
C3 C10 1_555 1_555
C4 C14 1_555 1_555
C5 C7 1_555 1_555
C6 C16 1_555 1_555
C9 C13 1_555 1_555
C12 C15 1_555 1_555
C18 C23 1_555 1_555
C20 C22 1_555 1_555
C21 C24 1_555 1_555
C25 C31 1_555 1_555
C29 C32 1_555 1_555

#END
