
#######################################################################
#
#                 Cambridge Crystallographic Data Centre
#                                CCDC 
#
#######################################################################
#
# If this CIF has been generated from an entry in the Cambridge 
# Structural Database, then it will include bibliographic, chemical, 
# crystal, experimental, refinement or atomic coordinate data resulting 
# from the CCDC's data processing and validation procedures.
#
#######################################################################

data_WEGDET
_symmetry_cell_setting           monoclinic
_symmetry_space_group_name_H-M   'P 21/c'
_symmetry_Int_Tables_number      14
_space_group_name_Hall           '-P 2ybc'
loop_
_symmetry_equiv_pos_site_id
_symmetry_equiv_pos_as_xyz
1 x,y,z
2 -x,1/2+y,1/2-z
3 -x,-y,-z
4 x,1/2-y,1/2+z
_cell_length_a                   11.890(10)
_cell_length_b                   14.865(12)
_cell_length_c                   16.590(14)
_cell_angle_alpha                90
_cell_angle_beta                 98.250(12)
_cell_angle_gamma                90
_cell_volume                     2901.85
loop_
_atom_site_label
_atom_site_type_symbol
_atom_site_fract_x
_atom_site_fract_y
_atom_site_fract_z
C1 C 0.2242(7) 0.5613(6) -0.0660(5)
H1 H 0.2666 0.5121 -0.0444
C2 C 0.1683(7) 0.5554(7) -0.1446(5)
H2 H 0.1709 0.5030 -0.1748
C3 C 0.1080(7) 0.6302(7) -0.1773(6)
H3 H 0.0701 0.6294 -0.2304
C4 C 0.1056(7) 0.7046(7) -0.1299(5)
H4 H 0.0646 0.7548 -0.1505
C5 C 0.1624(6) 0.7065(5) -0.0526(4)
C6 C 0.1638(6) 0.7861(5) 0.0005(5)
C7 C 0.1273(7) 0.8720(6) -0.0279(6)
H5 H 0.0991 0.8813 -0.0825
C8 C 0.1343(8) 0.9411(6) 0.0265(8)
H6 H 0.1116 0.9984 0.0085
C9 C 0.1741(8) 0.9277(6) 0.1064(7)
H7 H 0.1763 0.9741 0.1442
C10 C 0.2111(7) 0.8420(5) 0.1293(5)
H8 H 0.2411 0.8324 0.1835
C11 C 0.6362(6) 0.1698(5) 0.1948(5)
C12 C 0.5753(5) 0.2377(4) 0.1380(4)
C13 C 0.5226(5) 0.3113(4) 0.1699(4)
H9 H 0.5234 0.3170 0.2258
C14 C 0.4692(5) 0.3759(4) 0.1167(4)
C15 C 0.4088(5) 0.4532(5) 0.1481(4)
C16 C 0.4725(5) 0.3678(5) 0.0334(4)
H10 H 0.4398 0.4126 -0.0015
C17 C 0.5224(5) 0.2956(4) 0.0014(4)
C18 C 0.5730(5) 0.2294(4) 0.0550(4)
H11 H 0.6055 0.1792 0.0342
C19 C 0.0751(6) 0.5910(4) 0.1836(5)
C20 C -0.0137(5) 0.6474(4) 0.1320(4)
C21 C -0.0615(6) 0.7182(4) 0.1679(4)
H12 H -0.0439 0.7281 0.2237
C22 C -0.1359(6) 0.7745(5) 0.1205(4)
C23 C -0.1670(6) 0.7559(5) 0.0381(5)
H13 H -0.2181 0.7936 0.0065
C24 C -0.1226(6) 0.6816(5) 0.0021(4)
C25 C -0.0422(6) 0.6288(5) 0.0491(4)
H14 H -0.0075 0.5814 0.0255
C26 C -0.1802(6) 0.8571(5) 0.1588(5)
Mn1 Mn 0.29776(9) 0.64085(7) 0.11085(6)
Mn2 Mn 0.75962(8) -0.00187(7) 0.23038(6)
N1 N 0.2207(5) 0.6334(4) -0.0195(4)
N2 N 0.2066(5) 0.7727(4) 0.0787(4)
N3 N 0.5326(5) 0.2887(4) -0.0820(3)
H15 H 0.5068 0.3309 -0.1150
H16 H 0.5645 0.2423 -0.0998
N4 N -0.1587(6) 0.6630(5) -0.0792(4)
H17 H -0.1311 0.6177 -0.1020
H18 H -0.2087 0.6968 -0.1070
O1 O 0.6500(4) 0.1862(3) 0.2693(3)
O2 O 0.6716(4) 0.0998(3) 0.1629(3)
O3 O 0.3841(4) 0.5189(3) 0.1011(3)
O4 O 0.3828(4) 0.4476(3) 0.2196(3)
O5 O 0.1570(4) 0.5574(3) 0.1494(3)
O6 O 0.0714(4) 0.5781(3) 0.2578(3)
O7 O -0.1564(4) 0.8661(3) 0.2349(3)
O8 O -0.2353(5) 0.9158(4) 0.1166(3)
Mn1B Mn 0.70224(9) 0.35915(7) -0.11085(6)
Mn1A Mn 0.70224(9) 0.14085(7) 0.38915(6)
Mn2A Mn 0.24038(8) 0.49813(7) 0.26962(6)
Mn2_2 Mn -0.24038(8) 0.99813(7) 0.23038(6)
N3B N 0.4674(5) 0.7113(4) 0.0820(3)
H15B H 0.4932 0.6691 0.1150
H16B H 0.4355 0.7577 0.0998
O1A O 0.3500(4) 0.6862(3) 0.2307(3)
O4A O 0.6172(4) -0.0524(3) 0.2804(3)
O5A O 0.8430(4) 0.0574(3) 0.3506(3)
O6A O 0.9286(4) 0.0781(3) 0.2422(3)
O7_2 O 0.8436(4) -0.1339(3) 0.2349(3)
O8_2 O 0.7647(5) -0.0842(4) 0.1166(3)
O9 O 0.4755(6) 0.9086(4) 0.1212(4)
H19 H 0.4907 0.8642 0.1529
H20 H 0.4804 0.9548 0.1518
O10 O 0.6173(7) 0.9434(6) 0.9722(5)
H21 H 0.6048 0.9977 0.9565
H22 H 0.6714 0.9461 1.0118
O11 O 0.6743(13) 0.8642(11) 0.763(2)
H23 H 0.6707 0.8239 0.7257
H24 H 0.7243 0.8465 0.8022
loop_
_geom_bond_atom_site_label_1
_geom_bond_atom_site_label_2
_geom_bond_site_symmetry_1
_geom_bond_site_symmetry_2
C1 H1 1_555 1_555
C2 C1 1_555 1_555
H2 C2 1_555 1_555
C3 C2 1_555 1_555
H3 C3 1_555 1_555
C4 C3 1_555 1_555
H4 C4 1_555 1_555
C5 C4 1_555 1_555
C6 C5 1_555 1_555
C7 C6 1_555 1_555
H5 C7 1_555 1_555
C8 C7 1_555 1_555
H6 C8 1_555 1_555
C9 C8 1_555 1_555
H7 C9 1_555 1_555
C10 C9 1_555 1_555
H8 C10 1_555 1_555
C11 C12 1_555 1_555
C12 C13 1_555 1_555
C13 H9 1_555 1_555
C14 C13 1_555 1_555
C15 C14 1_555 1_555
C16 C14 1_555 1_555
H10 C16 1_555 1_555
C17 C16 1_555 1_555
C18 C12 1_555 1_555
H11 C18 1_555 1_555
C19 C20 1_555 1_555
C20 C21 1_555 1_555
C21 H12 1_555 1_555
C22 C21 1_555 1_555
C23 C22 1_555 1_555
H13 C23 1_555 1_555
C24 C23 1_555 1_555
C25 C20 1_555 1_555
H14 C25 1_555 1_555
C26 C22 1_555 1_555
Mn1 N1 1_555 1_555
Mn2 O2 1_555 1_555
N1 C1 1_555 1_555
N2 C6 1_555 1_555
N3 C17 1_555 1_555
H15 N3 1_555 1_555
H16 N3 1_555 1_555
N4 C24 1_555 1_555
H17 N4 1_555 1_555
H18 N4 1_555 1_555
O1 C11 1_555 1_555
O2 C11 1_555 1_555
O3 C15 1_555 1_555
O4 C15 1_555 1_555
O5 C19 1_555 1_555
O6 C19 1_555 1_555
O7 C26 1_555 1_555
O8 C26 1_555 1_555
O9 H19 1_555 1_555
H20 O9 1_555 1_555
O10 H21 1_555 1_555
H22 O10 1_555 1_555
O11 H23 1_555 1_555
H24 O11 1_555 1_555
Mn1B N3 1_555 1_555
Mn1A O1 1_555 1_555
Mn2A O4 1_555 1_555
Mn2_2 O7 1_555 1_555
N3B Mn1 1_555 1_555
H15B N3B 1_555 1_555
H16B N3B 1_555 1_555
O1A Mn1 1_555 1_555
O4A Mn2 1_555 1_555
O5A Mn2 1_555 1_555
O6A Mn2 1_555 1_555
O7_2 Mn2 1_555 1_555
O8_2 Mn2 1_555 1_555
C5 N1 1_555 1_555
C10 N2 1_555 1_555
C17 C18 1_555 1_555
C24 C25 1_555 1_555
Mn1 N2 1_555 1_555
Mn1 O3 1_555 1_555
Mn1 O5 1_555 1_555
O5 Mn2A 1_555 1_555
O6 Mn2A 1_555 1_555
O8 Mn2_2 1_555 1_555
Mn1A O5A 1_555 1_555

#END
