
#######################################################################
#
#                 Cambridge Crystallographic Data Centre
#                                CCDC 
#
#######################################################################
#
# If this CIF has been generated from an entry in the Cambridge 
# Structural Database, then it will include bibliographic, chemical, 
# crystal, experimental, refinement or atomic coordinate data resulting 
# from the CCDC's data processing and validation procedures.
#
#######################################################################

data_WEGKEA
_symmetry_cell_setting           orthorhombic
_symmetry_space_group_name_H-M   'P b c a'
_symmetry_Int_Tables_number      61
_space_group_name_Hall           '-P 2ac 2ab'
loop_
_symmetry_equiv_pos_site_id
_symmetry_equiv_pos_as_xyz
1 x,y,z
2 1/2-x,-y,1/2+z
3 -x,1/2+y,1/2-z
4 1/2+x,1/2-y,-z
5 -x,-y,-z
6 1/2+x,y,1/2-z
7 x,1/2-y,1/2+z
8 1/2-x,1/2+y,z
_cell_length_a                   19.3873(15)
_cell_length_b                   9.1297(7)
_cell_length_c                   21.5662(16)
_cell_angle_alpha                90
_cell_angle_beta                 90
_cell_angle_gamma                90
_cell_volume                     3817.22
loop_
_atom_site_label
_atom_site_type_symbol
_atom_site_fract_x
_atom_site_fract_y
_atom_site_fract_z
Co1 Co 0.02276(3) 0.23051(7) 0.16339(3)
O1 O -0.04183(13) 0.3453(3) 0.23206(13)
O2 O -0.04506(13) 0.5109(3) 0.30733(14)
O3 O 0.06563(14) 0.6501(3) 0.38155(13)
O4 O 0.17942(15) 0.6246(4) 0.37809(16)
N1 N 0.09417(16) 0.3084(3) 0.23710(15)
N2 N 0.17568(15) 0.4070(4) 0.29419(15)
N3 N 0.03148(16) 0.4507(4) 0.10873(15)
N4 N 0.09647(17) 0.1937(4) 0.08315(14)
C1 C 0.16107(19) 0.3085(4) 0.24942(17)
C2 C 0.11505(18) 0.4741(4) 0.31287(16)
C3 C 0.06428(18) 0.4111(4) 0.27658(16)
C4 C -0.01267(18) 0.4253(4) 0.27240(17)
C5 C 0.12023(19) 0.5919(4) 0.36119(18)
C6 C 0.2137(2) 0.2107(5) 0.2202(2)
H1 H 0.1901 0.1288 0.2009
H2 H 0.2432 0.1715 0.2525
C7 C 0.2585(2) 0.2848(5) 0.1720(2)
H3 H 0.2791 0.3718 0.1899
H4 H 0.2300 0.3152 0.1374
C8 C 0.3157(3) 0.1828(7) 0.1485(4)
H5 H 0.3408 0.1439 0.1831
H6 H 0.3465 0.2368 0.1222
H7 H 0.2955 0.1037 0.1254
C9 C -0.0014(2) 0.5766(5) 0.1201(2)
H8 H -0.0301 0.5816 0.1546
C10 C 0.0053(2) 0.7008(5) 0.0828(2)
H9 H -0.0192 0.7856 0.0920
C11 C 0.0486(2) 0.6959(5) 0.0323(2)
H10 H 0.0535 0.7776 0.0069
C12 C 0.08552(19) 0.5668(4) 0.01924(18)
C13 C 0.1314(2) 0.5544(5) -0.0323(2)
H11 H 0.1383 0.6345 -0.0582
C14 C 0.1647(2) 0.4275(5) -0.0438(2)
H12 H 0.1954 0.4225 -0.0769
C15 C 0.15385(19) 0.3009(5) -0.00624(18)
C16 C 0.1839(2) 0.1632(6) -0.0184(2)
H13 H 0.2135 0.1522 -0.0520
C17 C 0.1699(3) 0.0461(6) 0.0188(2)
H14 H 0.1889 -0.0452 0.0104
C18 C 0.1261(2) 0.0662(5) 0.0698(2)
H15 H 0.1174 -0.0134 0.0956
C19 C 0.10960(18) 0.3101(4) 0.04576(17)
C20 C 0.07504(18) 0.4461(4) 0.05876(17)
Co1B Co -0.02276(3) 0.73051(7) 0.33661(3)
O2B O 0.04506(13) 0.0109(3) 0.19267(14)
O3B O -0.06563(14) 0.1501(3) 0.11845(13)
O5 O 0.32117(16) 0.4072(4) 0.31712(17)
loop_
_geom_bond_atom_site_label_1
_geom_bond_atom_site_label_2
_geom_bond_site_symmetry_1
_geom_bond_site_symmetry_2
Co1 O1 1_555 1_555
O1 C4 1_555 1_555
O2 C4 1_555 1_555
O3 C5 1_555 1_555
O4 C5 1_555 1_555
N1 Co1 1_555 1_555
N2 C1 1_555 1_555
N3 Co1 1_555 1_555
N4 Co1 1_555 1_555
C1 N1 1_555 1_555
C2 N2 1_555 1_555
C3 N1 1_555 1_555
C4 C3 1_555 1_555
C5 C2 1_555 1_555
C6 C1 1_555 1_555
H1 C6 1_555 1_555
H2 C6 1_555 1_555
C7 C6 1_555 1_555
H3 C7 1_555 1_555
H4 C7 1_555 1_555
C8 C7 1_555 1_555
H5 C8 1_555 1_555
H6 C8 1_555 1_555
H7 C8 1_555 1_555
C9 N3 1_555 1_555
H8 C9 1_555 1_555
C10 C9 1_555 1_555
H9 C10 1_555 1_555
C11 C10 1_555 1_555
H10 C11 1_555 1_555
C12 C11 1_555 1_555
C13 C12 1_555 1_555
H11 C13 1_555 1_555
C14 C13 1_555 1_555
H12 C14 1_555 1_555
C15 C14 1_555 1_555
C16 C15 1_555 1_555
H13 C16 1_555 1_555
C17 C16 1_555 1_555
H14 C17 1_555 1_555
C18 N4 1_555 1_555
H15 C18 1_555 1_555
C19 N4 1_555 1_555
C20 N3 1_555 1_555
Co1B O2 1_555 1_555
O2B Co1 1_555 1_555
O3B Co1 1_555 1_555
O3 Co1B 1_555 1_555
C2 C3 1_555 1_555
C12 C20 1_555 1_555
C15 C19 1_555 1_555
C17 C18 1_555 1_555
C19 C20 1_555 1_555

#END
