
#######################################################################
#
#                 Cambridge Crystallographic Data Centre
#                                CCDC 
#
#######################################################################
#
# If this CIF has been generated from an entry in the Cambridge 
# Structural Database, then it will include bibliographic, chemical, 
# crystal, experimental, refinement or atomic coordinate data resulting 
# from the CCDC's data processing and validation procedures.
#
#######################################################################

data_WEGLAX
_symmetry_cell_setting           orthorhombic
_symmetry_space_group_name_H-M   'F d d 2'
_symmetry_Int_Tables_number      43
_space_group_name_Hall           'F 2 -2d'
loop_
_symmetry_equiv_pos_site_id
_symmetry_equiv_pos_as_xyz
1 x,y,z
2 -x,-y,z
3 1/4-x,1/4+y,1/4+z
4 1/4+x,1/4-y,1/4+z
5 x,1/2+y,1/2+z
6 -x,1/2-y,1/2+z
7 1/4-x,3/4+y,3/4+z
8 1/4+x,3/4-y,3/4+z
9 1/2+x,y,1/2+z
10 1/2-x,-y,1/2+z
11 3/4-x,1/4+y,3/4+z
12 3/4+x,1/4-y,3/4+z
13 1/2+x,1/2+y,z
14 1/2-x,1/2-y,z
15 3/4-x,3/4+y,1/4+z
16 3/4+x,3/4-y,1/4+z
_cell_length_a                   16.305(10)
_cell_length_b                   38.90(2)
_cell_length_c                   5.146(3)
_cell_angle_alpha                90
_cell_angle_beta                 90
_cell_angle_gamma                90
_cell_volume                     3263.93
loop_
_atom_site_label
_atom_site_type_symbol
_atom_site_fract_x
_atom_site_fract_y
_atom_site_fract_z
Cu1 Cu 0.22377(6) 0.025403(19) 0.27866(17)
S1 S 0.07774(12) 0.22631(4) 0.3538(3)
N1 N 0.0132(4) 0.18920(13) 0.7606(12)
O1 O 0.0781(3) 0.15882(10) 0.4659(9)
N2 N 0.1271(4) 0.05171(12) 0.4766(12)
C1 C 0.0538(4) 0.19166(14) 0.5419(14)
C2 C 0.0847(5) 0.03257(17) 0.6447(15)
H1 H 0.0936 0.0084 0.6455
C3 C 0.0152(5) 0.08067(17) 0.8184(16)
H2 H -0.0235 0.0906 0.9344
C4 C 0.0590(4) 0.10095(16) 0.6472(14)
N3 N 0.0088(4) 0.15448(13) 0.8321(11)
C5 C 0.0288(5) 0.04602(19) 0.8168(16)
H3 H 0.0000 0.0314 0.9332
C6 C 0.1145(5) 0.08579(15) 0.4817(14)
H4 H 0.1450 0.1000 0.3667
C7 C 0.0473(5) 0.13810(16) 0.6555(13)
Cu1B Cu 0.02623(6) 0.275403(19) 0.52866(17)
Cu1K Cu -0.02623(6) 0.224597(19) 0.02866(17)
Cu1K_2 Cu -0.02623(6) 0.224597(19) 1.02866(17)
S1C S 0.32774(12) 0.02369(4) 0.6038(3)
S1F S 0.17226(12) -0.02369(4) 0.1038(3)
N1C N 0.2632(4) 0.06080(13) 0.0106(12)
loop_
_geom_bond_atom_site_label_1
_geom_bond_atom_site_label_2
_geom_bond_site_symmetry_1
_geom_bond_site_symmetry_2
Cu1 N2 1_555 1_555
S1 C1 1_555 1_555
N1 C1 1_555 1_555
O1 C1 1_555 1_555
N2 C2 1_555 1_555
C2 H1 1_555 1_555
C3 H2 1_555 1_555
C4 C3 1_555 1_555
N3 N1 1_555 1_555
C5 C2 1_555 1_555
H3 C5 1_555 1_555
C6 N2 1_555 1_555
H4 C6 1_555 1_555
C7 O1 1_555 1_555
Cu1B S1 1_555 1_555
Cu1K S1 1_555 1_555
Cu1K_2 N1 1_555 1_555
S1C Cu1 1_555 1_555
S1F Cu1 1_555 1_555
N1C Cu1 1_555 1_555
C3 C5 1_555 1_555
C4 C6 1_555 1_555
C4 C7 1_555 1_555
N3 C7 1_555 1_555

#END
