
#######################################################################
#
#                 Cambridge Crystallographic Data Centre
#                                CCDC 
#
#######################################################################
#
# If this CIF has been generated from an entry in the Cambridge 
# Structural Database, then it will include bibliographic, chemical, 
# crystal, experimental, refinement or atomic coordinate data resulting 
# from the CCDC's data processing and validation procedures.
#
#######################################################################

data_WEGMEC
_symmetry_cell_setting           monoclinic
_symmetry_space_group_name_H-M   'C 2/c'
_symmetry_Int_Tables_number      15
_space_group_name_Hall           '-C 2yn'
loop_
_symmetry_equiv_pos_site_id
_symmetry_equiv_pos_as_xyz
1 x,y,z
2 -x,y,1/2-z
3 1/2+x,1/2+y,z
4 1/2-x,1/2+y,1/2-z
5 -x,-y,-z
6 x,-y,1/2+z
7 1/2-x,1/2-y,-z
8 1/2+x,1/2-y,1/2+z
_cell_length_a                   29.425(6)
_cell_length_b                   9.4342(19)
_cell_length_c                   20.233(4)
_cell_angle_alpha                90
_cell_angle_beta                 123.71(3)
_cell_angle_gamma                90
_cell_volume                     4672.3
loop_
_atom_site_label
_atom_site_type_symbol
_atom_site_fract_x
_atom_site_fract_y
_atom_site_fract_z
C1 C 0.14805(17) 0.5724(4) 0.1773(2)
H1 H 0.1689 0.5191 0.2234
C2 C 0.10803(17) 0.5204(4) 0.1061(2)
H2 H 0.0966 0.4265 0.0941
C3 C 0.11602(15) 0.7484(4) 0.0969(2)
H3 H 0.1101 0.8393 0.0759
C4 C 0.04429(15) 0.6317(4) -0.0283(2)
C5 C 0.03769(16) 0.5136(4) -0.0732(2)
H4 H 0.0602 0.4350 -0.0498
C6 C -0.00324(17) 0.5139(4) -0.1541(2)
H5 H -0.0081 0.4343 -0.1845
C7 C -0.03686(15) 0.6308(4) -0.1902(2)
C8 C -0.02955(16) 0.7467(4) -0.1433(2)
H6 H -0.0519 0.8256 -0.1664
C9 C 0.01067(16) 0.7472(4) -0.0620(2)
H7 H 0.0147 0.8251 -0.0310
C10 C -0.07946(16) 0.6339(4) -0.2773(2)
C11 C -0.11256(17) 0.5167(4) -0.3151(2)
H8 H -0.1080 0.4356 -0.2858
C12 C -0.15233(16) 0.5193(4) -0.3960(2)
H9 H -0.1751 0.4415 -0.4206
C13 C -0.15791(15) 0.6383(4) -0.4400(2)
C14 C -0.12551(16) 0.7556(4) -0.4039(2)
H10 H -0.1294 0.8354 -0.4336
C15 C -0.08689(17) 0.7529(4) -0.3222(2)
H11 H -0.0656 0.8328 -0.2973
C16 C -0.23055(16) 0.7460(4) -0.5710(2)
H12 H -0.2299 0.8391 -0.5554
C17 C -0.26385(16) 0.6916(4) -0.6449(2)
H13 H -0.2905 0.7422 -0.6891
C18 C -0.21241(16) 0.5213(4) -0.5709(2)
H14 H -0.1962 0.4326 -0.5535
C19 C -0.00164(15) 0.8909(4) 0.3829(2)
C20 C 0.16032(15) 0.8418(4) 0.3637(2)
C21 C 0.14912(15) 0.8728(4) 0.54081(19)
C22 C 0.17122(14) 0.8560(4) 0.4959(2)
H15 H 0.2088 0.8463 0.5209
C23 C 0.13681(14) 0.8538(4) 0.4132(2)
C24 C 0.08089(15) 0.8643(4) 0.3774(2)
H16 H 0.0577 0.8618 0.3223
C25 C 0.05878(14) 0.8786(4) 0.4225(2)
C26 C 0.09352(15) 0.8847(4) 0.5052(2)
H17 H 0.0793 0.8968 0.5359
N1 N 0.15339(12) 0.7160(3) 0.17148(17)
N2 N 0.08748(12) 0.6338(3) 0.05482(17)
N3 N -0.25233(12) 0.5506(3) -0.64464(17)
N4 N -0.19799(12) 0.6365(3) -0.52385(17)
O1 O -0.02804(13) 0.8716(5) 0.30604(18)
H18 H -0.058(3) 0.880(6) 0.284(4)
O2 O -0.02333(11) 0.9181(3) 0.41665(16)
O3 O 0.13191(10) 0.8885(3) 0.29246(14)
O4 O 0.20639(11) 0.7902(3) 0.39277(16)
O5 O 0.21332(10) 0.7387(3) 0.67244(14)
O6 O 0.23720(15) 0.9781(4) 0.66355(19)
O7 O 0.16106(14) 0.9346(4) 0.67341(16)
S1 S 0.19387(4) 0.88163(10) 0.64626(5)
Cd1 Cd 0.202008(10) 0.87338(3) 0.268947(14)
N3B N 0.24767(12) 1.0506(3) 0.35536(17)
O5F O 0.28668(10) 0.7613(3) 0.32756(14)
O7E O 0.16106(14) 1.0654(4) 0.17341(16)
Cd1B Cd -0.297992(10) 0.37338(3) -0.731053(14)
Cd1F Cd 0.297992(10) 0.62662(3) 0.731053(14)
Cd1E Cd 0.202008(10) 1.12662(3) 0.768947(14)
loop_
_geom_bond_atom_site_label_1
_geom_bond_atom_site_label_2
_geom_bond_site_symmetry_1
_geom_bond_site_symmetry_2
C1 H1 1_555 1_555
C2 C1 1_555 1_555
H2 C2 1_555 1_555
C3 H3 1_555 1_555
C4 C5 1_555 1_555
C5 H4 1_555 1_555
C6 C5 1_555 1_555
H5 C6 1_555 1_555
C7 C6 1_555 1_555
C8 C7 1_555 1_555
H6 C8 1_555 1_555
C9 C4 1_555 1_555
H7 C9 1_555 1_555
C10 C7 1_555 1_555
C11 C10 1_555 1_555
H8 C11 1_555 1_555
C12 C11 1_555 1_555
H9 C12 1_555 1_555
C13 C12 1_555 1_555
C14 C13 1_555 1_555
H10 C14 1_555 1_555
C15 C10 1_555 1_555
H11 C15 1_555 1_555
C16 H12 1_555 1_555
C17 C16 1_555 1_555
H13 C17 1_555 1_555
C18 H14 1_555 1_555
C19 C25 1_555 1_555
C20 C23 1_555 1_555
C21 C22 1_555 1_555
C22 H15 1_555 1_555
C23 C22 1_555 1_555
C24 C23 1_555 1_555
H16 C24 1_555 1_555
C25 C24 1_555 1_555
C26 C21 1_555 1_555
H17 C26 1_555 1_555
N1 C1 1_555 1_555
N2 C2 1_555 1_555
N3 C17 1_555 1_555
N4 C13 1_555 1_555
O1 C19 1_555 1_555
H18 O1 1_555 1_555
O2 C19 1_555 1_555
O3 C20 1_555 1_555
O4 C20 1_555 1_555
O5 S1 1_555 1_555
O6 S1 1_555 1_555
O7 S1 1_555 1_555
S1 C21 1_555 1_555
Cd1 N1 1_555 1_555
N3B Cd1 1_555 1_555
O5F Cd1 1_555 1_555
O7E Cd1 1_555 1_555
Cd1B N3 1_555 1_555
Cd1F O5 1_555 1_555
Cd1E O7 1_555 1_555
C3 N1 1_555 1_555
C3 N2 1_555 1_555
C4 N2 1_555 1_555
C8 C9 1_555 1_555
C14 C15 1_555 1_555
C16 N4 1_555 1_555
C18 N3 1_555 1_555
C18 N4 1_555 1_555
C25 C26 1_555 1_555
O3 Cd1 1_555 1_555
O4 Cd1 1_555 1_555

#END
