
#######################################################################
#
#                 Cambridge Crystallographic Data Centre
#                                CCDC 
#
#######################################################################
#
# If this CIF has been generated from an entry in the Cambridge 
# Structural Database, then it will include bibliographic, chemical, 
# crystal, experimental, refinement or atomic coordinate data resulting 
# from the CCDC's data processing and validation procedures.
#
#######################################################################

data_WEGMAY
_symmetry_cell_setting           triclinic
_symmetry_space_group_name_H-M   'P -1'
_symmetry_Int_Tables_number      2
_space_group_name_Hall           '-P 1'
loop_
_symmetry_equiv_pos_site_id
_symmetry_equiv_pos_as_xyz
1 x,y,z
2 -x,-y,-z
_cell_length_a                   9.967(2)
_cell_length_b                   12.179(2)
_cell_length_c                   15.859(3)
_cell_angle_alpha                96.41(3)
_cell_angle_beta                 96.96(3)
_cell_angle_gamma                104.19(3)
_cell_volume                     1832.51
loop_
_atom_site_label
_atom_site_type_symbol
_atom_site_fract_x
_atom_site_fract_y
_atom_site_fract_z
C1 C 0.5656(5) 0.7924(4) 0.1676(3)
H1 H 0.6400 0.7608 0.1599
C2 C 0.5007(5) 0.8408(5) 0.1084(3)
H2 H 0.5210 0.8483 0.0533
C3 C 0.4059(4) 0.8482(4) 0.2256(3)
H3 H 0.3480 0.8628 0.2649
C4 C 0.2904(5) 0.9215(4) 0.1050(3)
C5 C 0.2648(7) 0.9102(7) 0.0170(3)
H4 H 0.3227 0.8805 -0.0156
C6 C 0.1519(7) 0.9435(7) -0.0235(4)
H5 H 0.1368 0.9367 -0.0831
C7 C 0.0629(5) 0.9858(4) 0.0221(3)
C8 C 0.0927(6) 0.9988(5) 0.1099(3)
H6 H 0.0351 1.0286 0.1427
C9 C 0.2065(6) 0.9687(5) 0.1515(3)
H7 H 0.2255 0.9808 0.2112
C10 C 1.4397(5) 0.5171(4) 0.0159(3)
C11 C 1.3603(6) 0.5735(5) -0.0326(3)
H8 H 1.3813 0.5880 -0.0865
C12 C 1.2511(5) 0.6086(5) -0.0026(3)
H9 H 1.2002 0.6467 -0.0362
C13 C 1.2166(5) 0.5877(4) 0.0767(3)
C14 C 1.2902(6) 0.5292(5) 0.1247(3)
H10 H 1.2669 0.5130 0.1778
C15 C 1.4007(6) 0.4939(5) 0.0938(3)
H11 H 1.4494 0.4536 0.1268
C16 C 1.0013(5) 0.6625(5) 0.0634(3)
H12 H 0.9808 0.6560 0.0040
C17 C 0.9319(5) 0.7050(5) 0.1213(3)
H13 H 0.8541 0.7328 0.1081
C18 C 1.0989(5) 0.6565(4) 0.1929(3)
H14 H 1.1597 0.6443 0.2381
C19 C 0.7109(5) 0.5666(4) 0.3626(3)
C20 C 0.9324(4) 0.3152(4) 0.5330(3)
C21 C 0.7923(4) 0.4793(4) 0.3678(3)
C22 C 0.8158(4) 0.4334(4) 0.4433(3)
H15 H 0.7753 0.4543 0.4904
C23 C 0.8991(4) 0.3568(4) 0.4496(3)
C24 C 0.9546(5) 0.3218(4) 0.3785(3)
H16 H 1.0079 0.2691 0.3808
C25 C 0.9290(5) 0.3671(4) 0.3042(3)
C26 C 0.8498(4) 0.4458(4) 0.2965(3)
H17 H 0.8356 0.4752 0.2455
C27 C 0.8057(4) 0.9440(4) 0.3212(3)
C28 C 0.5466(4) 1.1569(4) 0.5038(3)
C29 C 0.7226(4) 1.0319(4) 0.3316(3)
C30 C 0.6772(4) 1.0556(4) 0.4096(3)
H18 H 0.7029 1.0205 0.4559
C31 C 0.5936(4) 1.1314(4) 0.4191(3)
C32 C 0.5548(5) 1.1827(4) 0.3503(3)
H19 H 0.4976 1.2323 0.3551
C33 C 0.6028(5) 1.1586(4) 0.2739(3)
C34 C 0.6881(5) 1.0861(4) 0.2634(3)
H20 H 0.7214 1.0740 0.2118
N1 N 0.5064(4) 0.7967(3) 0.2408(2)
N2 N 0.3979(4) 0.8770(3) 0.1457(2)
N3 N 0.9933(4) 0.7011(3) 0.2028(2)
N4 N 1.1085(4) 0.6303(3) 0.1089(2)
N5 N 0.9881(5) 0.3291(4) 0.2287(3)
N6 N 0.5615(5) 1.2147(4) 0.2012(3)
O1 O 0.6398(4) 0.5826(3) 0.4206(2)
O2 O 0.7212(3) 0.6263(3) 0.3025(2)
O3 O 1.0197(3) 0.2544(3) 0.5359(2)
O4 O 0.8789(4) 0.3412(3) 0.5973(2)
O5 O 1.0538(7) 0.2593(5) 0.2340(3)
O6 O 0.9730(5) 0.3725(4) 0.1644(3)
O7 O 0.7942(3) 0.8717(3) 0.3745(2)
O8 O 0.8784(4) 0.9421(3) 0.2640(2)
O9 O 0.4481(3) 1.2071(3) 0.5031(2)
O10 O 0.6035(3) 1.1327(3) 0.5703(2)
O11 O 0.4980(6) 1.2849(5) 0.2118(3)
O12 O 0.5933(8) 1.1875(6) 0.1327(3)
O13 O 0.3426(3) 0.5993(3) 0.3447(2)
H21 H 0.3201 0.6262 0.3855
H22 H 0.3621 0.5351 0.3545
O14 O 1.1642(3) 0.9210(3) 0.3557(2)
H23 H 1.2319 0.9103 0.4004
H24 H 1.1066 0.9015 0.3787
Cd1 Cd 0.95377(3) 0.77996(3) 0.32727(2)
Cd2 Cd 0.56300(3) 0.73022(3) 0.36186(2)
C1A C -0.5656(5) 1.2076(4) -0.1676(3)
H1A H -0.6400 1.2392 -0.1599
C2A C -0.5007(5) 1.1592(5) -0.1084(3)
H2A H -0.5210 1.1517 -0.0533
C3A C -0.4059(4) 1.1518(4) -0.2256(3)
H3A H -0.3480 1.1372 -0.2649
C4A C -0.2904(5) 1.0785(4) -0.1050(3)
C5A C -0.2648(7) 1.0898(7) -0.0170(3)
H4A H -0.3227 1.1195 0.0156
C6A C -0.1519(7) 1.0565(7) 0.0235(4)
H5A H -0.1368 1.0633 0.0831
C7A C -0.0629(5) 1.0142(4) -0.0221(3)
C8A C -0.0927(6) 1.0012(5) -0.1099(3)
H6A H -0.0351 0.9714 -0.1427
C9A C -0.2065(6) 1.0313(5) -0.1515(3)
H7A H -0.2255 1.0192 -0.2112
C10A C 1.5603(5) 0.4829(4) -0.0159(3)
C11A C 1.6397(6) 0.4265(5) 0.0326(3)
H8A H 1.6187 0.4120 0.0865
C12A C 1.7489(5) 0.3914(5) 0.0026(3)
H9A H 1.7998 0.3533 0.0362
C13A C 1.7834(5) 0.4123(4) -0.0767(3)
C14A C 1.7098(6) 0.4708(5) -0.1247(3)
H10A H 1.7331 0.4870 -0.1778
C15A C 1.5993(6) 0.5061(5) -0.0938(3)
H11A H 1.5506 0.5464 -0.1268
C16A C 1.9987(5) 0.3375(5) -0.0634(3)
H12A H 2.0192 0.3440 -0.0040
C17A C 2.0681(5) 0.2950(5) -0.1213(3)
H13A H 2.1459 0.2672 -0.1081
C18A C 1.9011(5) 0.3435(4) -0.1929(3)
H14A H 1.8403 0.3557 -0.2381
C19A C 1.2891(5) 0.4334(4) 0.6374(3)
C20A C 1.0676(4) 0.6848(4) 0.4670(3)
C21A C 1.2077(4) 0.5207(4) 0.6322(3)
C22A C 1.1842(4) 0.5666(4) 0.5567(3)
H15A H 1.2247 0.5457 0.5096
C23A C 1.1009(4) 0.6432(4) 0.5504(3)
C24A C 1.0454(5) 0.6782(4) 0.6215(3)
H16A H 0.9921 0.7309 0.6192
C25A C 1.0710(5) 0.6329(4) 0.6958(3)
C26A C 1.1502(4) 0.5542(4) 0.7035(3)
H17A H 1.1644 0.5248 0.7545
C27A C 0.1943(4) 1.0560(4) 0.6788(3)
C28A C 0.4534(4) 0.8431(4) 0.4962(3)
C29A C 0.2774(4) 0.9681(4) 0.6684(3)
C30A C 0.3228(4) 0.9444(4) 0.5904(3)
H18A H 0.2971 0.9795 0.5441
C31A C 0.4064(4) 0.8686(4) 0.5809(3)
C32A C 0.4452(5) 0.8173(4) 0.6497(3)
H19A H 0.5024 0.7677 0.6449
C33A C 0.3972(5) 0.8414(4) 0.7261(3)
C34A C 0.3119(5) 0.9139(4) 0.7366(3)
H20A H 0.2786 0.9260 0.7882
N1A N -0.5064(4) 1.2033(3) -0.2408(2)
N1A_2 N 1.4936(4) 0.2033(3) 0.7592(2)
N2A N -0.3979(4) 1.1230(3) -0.1457(2)
N3A N 2.0067(4) 0.2989(3) -0.2028(2)
N4A N 1.8915(4) 0.3697(3) -0.1089(2)
N5A N 1.0119(5) 0.6709(4) 0.7713(3)
N6A N 0.4385(5) 0.7853(4) 0.7988(3)
O1A O 1.3602(4) 0.4174(3) 0.5794(2)
O2A O 1.2788(3) 0.3737(3) 0.6975(2)
O2A_2 O 2.2788(3) 0.3737(3) -0.3025(2)
O3A O 0.9803(3) 0.7456(3) 0.4641(2)
O3_2 O 2.0197(3) 0.2544(3) -0.4641(2)
O4A O 1.1211(4) 0.6588(3) 0.4027(2)
O5A O 0.9462(7) 0.7407(5) 0.7660(3)
O6A O 1.0270(5) 0.6275(4) 0.8356(3)
O7A O 0.2058(3) 1.1283(3) 0.6255(2)
O7A_2 O 2.2058(3) 0.1283(3) -0.3745(2)
O7A_3 O 1.2058(3) 0.1283(3) 0.6255(2)
O8A O 0.1216(4) 1.0579(3) 0.7360(2)
O8A_2 O 2.1216(4) 0.0579(3) -0.2640(2)
O9A O 0.5519(3) 0.7929(3) 0.4969(2)
O9_2 O 1.4481(3) 0.2071(3) 0.5031(2)
O10A O 0.3965(3) 0.8673(3) 0.4297(2)
O11A O 0.5020(6) 0.7151(5) 0.7882(3)
O12A O 0.4067(8) 0.8125(6) 0.8673(3)
O13A O 1.6574(3) 0.4007(3) 0.6553(2)
H21A H 1.6799 0.3738 0.6145
H22A H 1.6379 0.4649 0.6455
O14A O 1.8358(3) 0.0790(3) -0.3557(2)
H23A H 1.7681 0.0897 -0.4004
H24A H 1.8934 0.0985 -0.3787
Cd1A Cd 2.04623(3) 0.22004(3) -0.32727(2)
Cd1A_2 Cd 1.04623(3) 0.22004(3) 0.67273(2)
Cd1A_3 Cd 0.04623(3) 1.22004(3) 0.67273(2)
Cd2A Cd 1.43700(3) 0.26978(3) 0.63814(2)
Cd2A_2 Cd 0.43700(3) 1.26978(3) 0.63814(2)
Cd2A_3 Cd -0.56300(3) 1.26978(3) -0.36186(2)
O15 O 0.8276(4) 0.8578(3) 0.5797(2)
H25 H 0.8839 0.8666 0.5458
H26 H 0.7533 0.8680 0.5583
O16 O 0.3379(5) 0.3899(4) 0.3912(3)
H27 H 0.2676 0.3582 0.3527
H28 H 0.3725 0.3892 0.4407
loop_
_geom_bond_atom_site_label_1
_geom_bond_atom_site_label_2
_geom_bond_site_symmetry_1
_geom_bond_site_symmetry_2
C1 H1 1_555 1_555
C2 C1 1_555 1_555
H2 C2 1_555 1_555
C3 H3 1_555 1_555
C4 C5 1_555 1_555
C5 H4 1_555 1_555
C6 C5 1_555 1_555
H5 C6 1_555 1_555
C7 C6 1_555 1_555
C8 C7 1_555 1_555
H6 C8 1_555 1_555
C9 C4 1_555 1_555
H7 C9 1_555 1_555
C10 C11 1_555 1_555
C11 H8 1_555 1_555
C12 C11 1_555 1_555
H9 C12 1_555 1_555
C13 C12 1_555 1_555
C14 C13 1_555 1_555
H10 C14 1_555 1_555
C15 C10 1_555 1_555
H11 C15 1_555 1_555
C16 H12 1_555 1_555
C17 C16 1_555 1_555
H13 C17 1_555 1_555
C18 H14 1_555 1_555
C19 C21 1_555 1_555
C20 C23 1_555 1_555
C21 C22 1_555 1_555
C22 H15 1_555 1_555
C23 C22 1_555 1_555
C24 C23 1_555 1_555
H16 C24 1_555 1_555
C25 C24 1_555 1_555
C26 C21 1_555 1_555
H17 C26 1_555 1_555
C27 C29 1_555 1_555
C28 C31 1_555 1_555
C29 C30 1_555 1_555
C30 H18 1_555 1_555
C31 C30 1_555 1_555
C32 C31 1_555 1_555
H19 C32 1_555 1_555
C33 C32 1_555 1_555
C34 C29 1_555 1_555
H20 C34 1_555 1_555
N1 C1 1_555 1_555
N2 C2 1_555 1_555
N3 C17 1_555 1_555
N4 C13 1_555 1_555
N5 C25 1_555 1_555
N6 C33 1_555 1_555
O1 C19 1_555 1_555
O2 C19 1_555 1_555
O3 C20 1_555 1_555
O4 C20 1_555 1_555
O5 N5 1_555 1_555
O6 N5 1_555 1_555
O7 C27 1_555 1_555
O8 C27 1_555 1_555
O9 C28 1_555 1_555
O10 C28 1_555 1_555
O11 N6 1_555 1_555
O12 N6 1_555 1_555
O13 H21 1_555 1_555
H22 O13 1_555 1_555
O14 H23 1_555 1_555
H24 O14 1_555 1_555
O15 H25 1_555 1_555
H26 O15 1_555 1_555
O16 H27 1_555 1_555
H28 O16 1_555 1_555
Cd1 N3 1_555 1_555
Cd2 N1 1_555 1_555
C1A H1A 1_555 1_555
C2A C1A 1_555 1_555
H2A C2A 1_555 1_555
C3A H3A 1_555 1_555
C4A C5A 1_555 1_555
C5A H4A 1_555 1_555
C6A C5A 1_555 1_555
H5A C6A 1_555 1_555
C7A C7 1_555 1_555
C8A C7A 1_555 1_555
H6A C8A 1_555 1_555
C9A C4A 1_555 1_555
H7A C9A 1_555 1_555
C10A C10 1_555 1_555
C11A C10A 1_555 1_555
H8A C11A 1_555 1_555
C12A C11A 1_555 1_555
H9A C12A 1_555 1_555
C13A C12A 1_555 1_555
C14A C13A 1_555 1_555
H10A C14A 1_555 1_555
C15A C10A 1_555 1_555
H11A C15A 1_555 1_555
C16A H12A 1_555 1_555
C17A C16A 1_555 1_555
H13A C17A 1_555 1_555
C18A H14A 1_555 1_555
C19A C21A 1_555 1_555
C20A C23A 1_555 1_555
C21A C22A 1_555 1_555
C22A H15A 1_555 1_555
C23A C22A 1_555 1_555
C24A C23A 1_555 1_555
H16A C24A 1_555 1_555
C25A C24A 1_555 1_555
C26A C21A 1_555 1_555
H17A C26A 1_555 1_555
C27A C29A 1_555 1_555
C28A C31A 1_555 1_555
C29A C30A 1_555 1_555
C30A H18A 1_555 1_555
C31A C30A 1_555 1_555
C32A C31A 1_555 1_555
H19A C32A 1_555 1_555
C33A C32A 1_555 1_555
C34A C29A 1_555 1_555
H20A C34A 1_555 1_555
N1A C1A 1_555 1_555
N1A_2 Cd2A 1_555 1_555
N2A C2A 1_555 1_555
N3A C17A 1_555 1_555
N4A C13A 1_555 1_555
N5A C25A 1_555 1_555
N6A C33A 1_555 1_555
O1A C19A 1_555 1_555
O2A C19A 1_555 1_555
O2A_2 Cd1A 1_555 1_555
O3A Cd1 1_555 1_555
O3_2 Cd1A 1_555 1_555
O4A C20A 1_555 1_555
O5A N5A 1_555 1_555
O6A N5A 1_555 1_555
O7A C27A 1_555 1_555
O7A_2 Cd1A 1_555 1_555
O7A_3 Cd1A_2 1_555 1_555
O8A C27A 1_555 1_555
O8A_2 Cd1A 1_555 1_555
O9A Cd2 1_555 1_555
O9_2 Cd2A 1_555 1_555
O10A C28A 1_555 1_555
O11A N6A 1_555 1_555
O12A N6A 1_555 1_555
O13A H21A 1_555 1_555
H22A O13A 1_555 1_555
O14A H23A 1_555 1_555
H24A O14A 1_555 1_555
Cd1A N3A 1_555 1_555
Cd1A_2 O3 1_555 1_555
Cd1A_3 O7A 1_555 1_555
Cd2A O1A 1_555 1_555
Cd2A_2 O9 1_555 1_555
Cd2A_3 N1A 1_555 1_555
C3 N1 1_555 1_555
C3 N2 1_555 1_555
C4 N2 1_555 1_555
C8 C9 1_555 1_555
C14 C15 1_555 1_555
C16 N4 1_555 1_555
C18 N3 1_555 1_555
C18 N4 1_555 1_555
C25 C26 1_555 1_555
C33 C34 1_555 1_555
O1 Cd2 1_555 1_555
O2 Cd1 1_555 1_555
O2 Cd2 1_555 1_555
O7 Cd1 1_555 1_555
O7 Cd2 1_555 1_555
O8 Cd1 1_555 1_555
O13 Cd2 1_555 1_555
O14 Cd1 1_555 1_555
C3A N1A 1_555 1_555
C3A N2A 1_555 1_555
C4A N2A 1_555 1_555
C6A C7A 1_555 1_555
C8A C9A 1_555 1_555
C14A C15A 1_555 1_555
C16A N4A 1_555 1_555
C18A N3A 1_555 1_555
C18A N4A 1_555 1_555
C20A O3A 1_555 1_555
C25A C26A 1_555 1_555
C28A O9A 1_555 1_555
C33A C34A 1_555 1_555
O2A Cd1A_2 1_555 1_555
O2A Cd2A 1_555 1_555
O7A Cd2A_2 1_555 1_555
O7A_3 Cd2A 1_555 1_555
O8A Cd1A_3 1_555 1_555
O13A Cd2A 1_555 1_555
O14A Cd1A 1_555 1_555

#END
