
#######################################################################
#
#                 Cambridge Crystallographic Data Centre
#                                CCDC 
#
#######################################################################
#
# If this CIF has been generated from an entry in the Cambridge 
# Structural Database, then it will include bibliographic, chemical, 
# crystal, experimental, refinement or atomic coordinate data resulting 
# from the CCDC's data processing and validation procedures.
#
#######################################################################

data_WEHJAW
_symmetry_cell_setting           tetragonal
_symmetry_space_group_name_H-M   'P 4/n c c'
_symmetry_Int_Tables_number      130
_space_group_name_Hall           '-P 4a 2ac'
loop_
_symmetry_equiv_pos_site_id
_symmetry_equiv_pos_as_xyz
1 x,y,z
2 1/2-x,1/2-y,z
3 1/2+x,-y,1/2-z
4 -x,1/2+y,1/2-z
5 -y,-x,1/2-z
6 1/2+y,1/2+x,1/2-z
7 y,1/2-x,z
8 1/2-y,x,z
9 -x,-y,-z
10 1/2+x,1/2+y,-z
11 1/2-x,y,1/2+z
12 x,1/2-y,1/2+z
13 y,x,1/2+z
14 1/2-y,1/2-x,1/2+z
15 -y,1/2+x,-z
16 1/2+y,-x,-z
_cell_length_a                   19.0396(17)
_cell_length_b                   19.0396(17)
_cell_length_c                   23.563(2)
_cell_angle_alpha                90
_cell_angle_beta                 90
_cell_angle_gamma                90
_cell_volume                     8541.74
loop_
_atom_site_label
_atom_site_type_symbol
_atom_site_fract_x
_atom_site_fract_y
_atom_site_fract_z
Zn1 Zn 0.47292(3) 0.45114(3) 0.703969(19)
O1 O 0.78007(14) 0.33965(18) 0.56550(12)
C1 C 0.7690(2) 0.3886(2) 0.60720(18)
C2 C 0.7500 0.2500 0.5000
C3 C 0.6994(2) 0.4536(2) 0.67363(17)
O2 O 0.57611(16) 0.44257(18) 0.67802(13)
C4 C 0.7034(2) 0.4066(2) 0.62810(17)
H1 H 0.6628 0.3877 0.6122
C5 C 0.72181(19) 0.3092(2) 0.53751(16)
H2 H 0.6980 0.3441 0.5145
H3 H 0.6887 0.2907 0.5650
C6 C 0.7602(2) 0.4811(3) 0.69742(18)
H4 H 0.7572 0.5114 0.7283
C7 C 0.8293(2) 0.4171(3) 0.63044(17)
H5 H 0.8730 0.4048 0.6157
C8 C 0.8254(2) 0.4636(2) 0.67524(18)
O3 O 0.4277(2) 0.4051(2) 0.63830(16)
C9 C 0.6282(2) 0.4692(2) 0.70094(17)
O4 O 0.62959(16) 0.50913(18) 0.74284(12)
C10 C 0.8924(3) 0.4884(3) 0.70296(18)
O5 O 0.94839(17) 0.47332(19) 0.67855(15)
O6 O 0.88604(17) 0.52290(18) 0.74847(13)
Zn1A Zn 1.02708(3) 0.04886(3) 0.703969(19)
Zn1D Zn 0.54886(3) 0.52708(3) 0.796031(19)
Zn1E Zn 0.95114(3) -0.02708(3) 0.796031(19)
Zn1B Zn 0.97292(3) 0.54886(3) 0.796031(19)
Zn1C Zn 0.52708(3) -0.04886(3) 0.796031(19)
Zn1F Zn 0.45114(3) 0.02708(3) 0.703969(19)
Zn1G Zn 1.04886(3) 0.47292(3) 0.703969(19)
Zn1H Zn 0.52708(3) 0.54886(3) 0.296031(19)
Zn1I Zn 0.97292(3) -0.04886(3) 0.296031(19)
Zn1J Zn 1.02708(3) 0.45114(3) 0.203969(19)
Zn1K Zn 0.47292(3) 0.04886(3) 0.203969(19)
Zn1L Zn 0.45114(3) 0.47292(3) 0.203969(19)
Zn1M Zn 1.04886(3) 0.02708(3) 0.203969(19)
Zn1N Zn 0.54886(3) -0.02708(3) 0.296031(19)
Zn1O Zn 0.95114(3) 0.52708(3) 0.296031(19)
O1A O 0.71993(14) 0.16035(18) 0.56550(12)
O1N O 0.66035(18) 0.28007(14) 0.43450(12)
O1O O 0.83965(18) 0.21993(14) 0.43450(12)
C1A C 0.7310(2) 0.1114(2) 0.60720(18)
C1N C 0.6114(2) 0.2690(2) 0.39280(18)
C1O C 0.8886(2) 0.2310(2) 0.39280(18)
C3A C 0.8006(2) 0.0464(2) 0.67363(17)
C3N C 0.5464(2) 0.1994(2) 0.32637(17)
C3O C 0.9536(2) 0.3006(2) 0.32637(17)
O2A O 0.92389(16) 0.05743(18) 0.67802(13)
O2N O 0.55743(18) 0.07611(16) 0.32198(13)
O2O O 0.94257(18) 0.42389(16) 0.32198(13)
O2E O 0.94257(18) 0.07611(16) 0.82198(13)
O2D O 0.55743(18) 0.42389(16) 0.82198(13)
C4A C 0.7966(2) 0.0934(2) 0.62810(17)
C4N C 0.5934(2) 0.2034(2) 0.37190(17)
C4O C 0.9066(2) 0.2966(2) 0.37190(17)
H1A H 0.8372 0.1123 0.6122
H1N H 0.6123 0.1628 0.3878
H1O H 0.8877 0.3372 0.3878
C5A C 0.77819(19) 0.1908(2) 0.53751(16)
C5N C 0.6908(2) 0.22181(19) 0.46249(16)
C5O C 0.8092(2) 0.27819(19) 0.46249(16)
H2A H 0.8020 0.1559 0.5145
H2N H 0.6559 0.1980 0.4855
H2O H 0.8441 0.3020 0.4855
H3A H 0.8113 0.2093 0.5650
H3N H 0.7093 0.1887 0.4350
H3O H 0.7907 0.3113 0.4350
C6A C 0.7398(2) 0.0189(3) 0.69742(18)
C6N C 0.5189(3) 0.2602(2) 0.30258(18)
C6O C 0.9811(3) 0.2398(2) 0.30258(18)
H4A H 0.7428 -0.0114 0.7283
H4N H 0.4886 0.2572 0.2717
H4O H 1.0114 0.2428 0.2717
C7A C 0.6707(2) 0.0829(3) 0.63044(17)
C7N C 0.5829(3) 0.3293(2) 0.36956(17)
C7O C 0.9171(3) 0.1707(2) 0.36956(17)
H5A H 0.6270 0.0952 0.6157
H5N H 0.5952 0.3730 0.3843
H5O H 0.9048 0.1270 0.3843
C8A C 0.6746(2) 0.0364(2) 0.67524(18)
C8N C 0.5364(2) 0.3254(2) 0.32476(18)
C8O C 0.9636(2) 0.1746(2) 0.32476(18)
O3A O 1.0723(2) 0.0949(2) 0.63830(16)
O3D O 0.5949(2) 0.5723(2) 0.86170(16)
O3E O 0.9051(2) -0.0723(2) 0.86170(16)
C9A C 0.8718(2) 0.0308(2) 0.70094(17)
C9N C 0.5308(2) 0.1282(2) 0.29906(17)
C9O C 0.9692(2) 0.3718(2) 0.29906(17)
O4A O 0.87041(16) -0.00913(18) 0.74284(12)
O4N O 0.49087(18) 0.12959(16) 0.25716(12)
O4O O 1.00913(18) 0.37041(16) 0.25716(12)
O4E O 1.00913(18) 0.12959(16) 0.75716(12)
O4D O 0.49087(18) 0.37041(16) 0.75716(12)
C10A C 0.6076(3) 0.0116(3) 0.70296(18)
C10N C 0.5116(3) 0.3924(3) 0.29704(18)
C10O C 0.9884(3) 0.1076(3) 0.29704(18)
O5A O 0.55161(17) 0.02668(19) 0.67855(15)
O5N O 0.52668(19) 0.44839(17) 0.32145(15)
O5O O 0.97332(19) 0.05161(17) 0.32145(15)
O5B O 0.44839(17) 0.52668(19) 0.82145(15)
O5C O 1.05161(17) -0.02668(19) 0.82145(15)
O5F O 0.47332(19) 0.55161(17) 0.67855(15)
O5G O 1.02668(19) -0.05161(17) 0.67855(15)
O6A O 0.61396(17) -0.02290(18) 0.74847(13)
O6N O 0.47710(18) 0.38604(17) 0.25153(13)
O6O O 1.02290(18) 0.11396(17) 0.25153(13)
O6B O 0.38604(17) 0.47710(18) 0.75153(13)
O6C O 1.11396(17) 0.02290(18) 0.75153(13)
O6F O 0.52290(18) 0.61396(17) 0.74847(13)
O6G O 0.97710(18) -0.11396(17) 0.74847(13)
loop_
_geom_bond_atom_site_label_1
_geom_bond_atom_site_label_2
_geom_bond_site_symmetry_1
_geom_bond_site_symmetry_2
Zn1 O2 1_555 1_555
O1 C1 1_555 1_555
C1 C4 1_555 1_555
C2 C5 1_555 1_555
C3 C4 1_555 1_555
O2 C9 1_555 1_555
C4 H1 1_555 1_555
C5 O1 1_555 1_555
H2 C5 1_555 1_555
H3 C5 1_555 1_555
C6 C3 1_555 1_555
H4 C6 1_555 1_555
C7 C1 1_555 1_555
H5 C7 1_555 1_555
C8 C6 1_555 1_555
O3 Zn1 1_555 1_555
C9 C3 1_555 1_555
O4 C9 1_555 1_555
C10 C8 1_555 1_555
O5 C10 1_555 1_555
O6 C10 1_555 1_555
Zn1A O2A 1_555 1_555
Zn1D O4 1_555 1_555
Zn1E O2E 1_555 1_555
Zn1B O6 1_555 1_555
Zn1C O6A 1_555 1_555
Zn1F O5A 1_555 1_555
Zn1G O5 1_555 1_555
Zn1H O5N 1_555 1_555
Zn1I O5O 1_555 1_555
Zn1J O4O 1_555 1_555
Zn1K O4N 1_555 1_555
Zn1L O6N 1_555 1_555
Zn1M O6O 1_555 1_555
Zn1N O2N 1_555 1_555
Zn1O O2O 1_555 1_555
O1A C1A 1_555 1_555
O1N C1N 1_555 1_555
O1O C1O 1_555 1_555
C1A C4A 1_555 1_555
C1N C4N 1_555 1_555
C1O C4O 1_555 1_555
C3A C4A 1_555 1_555
C3N C4N 1_555 1_555
C3O C4O 1_555 1_555
O2A C9A 1_555 1_555
O2N C9N 1_555 1_555
O2O C9O 1_555 1_555
O2D Zn1D 1_555 1_555
C4A H1A 1_555 1_555
C4N H1N 1_555 1_555
C4O H1O 1_555 1_555
C5A C2 1_555 1_555
C5N C2 1_555 1_555
C5O C2 1_555 1_555
H2A C5A 1_555 1_555
H2N C5N 1_555 1_555
H2O C5O 1_555 1_555
H3A C5A 1_555 1_555
H3N C5N 1_555 1_555
H3O C5O 1_555 1_555
C6A C3A 1_555 1_555
C6N C3N 1_555 1_555
C6O C3O 1_555 1_555
H4A C6A 1_555 1_555
H4N C6N 1_555 1_555
H4O C6O 1_555 1_555
C7A C1A 1_555 1_555
C7N C1N 1_555 1_555
C7O C1O 1_555 1_555
H5A C7A 1_555 1_555
H5N C7N 1_555 1_555
H5O C7O 1_555 1_555
C8A C6A 1_555 1_555
C8N C6N 1_555 1_555
C8O C6O 1_555 1_555
O3A Zn1A 1_555 1_555
O3D Zn1D 1_555 1_555
O3E Zn1E 1_555 1_555
C9A C3A 1_555 1_555
C9N C3N 1_555 1_555
C9O C3O 1_555 1_555
O4A Zn1E 1_555 1_555
O4N C9N 1_555 1_555
O4O C9O 1_555 1_555
O4E Zn1A 1_555 1_555
O4D Zn1 1_555 1_555
C10A C8A 1_555 1_555
C10N C8N 1_555 1_555
C10O C8O 1_555 1_555
O5A C10A 1_555 1_555
O5N C10N 1_555 1_555
O5O C10O 1_555 1_555
O5B Zn1D 1_555 1_555
O5C Zn1E 1_555 1_555
O5F Zn1 1_555 1_555
O5G Zn1A 1_555 1_555
O6A C10A 1_555 1_555
O6N C10N 1_555 1_555
O6O C10O 1_555 1_555
O6B Zn1 1_555 1_555
O6C Zn1A 1_555 1_555
O6F Zn1D 1_555 1_555
O6G Zn1E 1_555 1_555
C7 C8 1_555 1_555
O1A C5A 1_555 1_555
O1N C5N 1_555 1_555
O1O C5O 1_555 1_555
C7A C8A 1_555 1_555
C7N C8N 1_555 1_555
C7O C8O 1_555 1_555
C9A O4A 1_555 1_555

#END
