
#######################################################################
#
#                 Cambridge Crystallographic Data Centre
#                                CCDC 
#
#######################################################################
#
# If this CIF has been generated from an entry in the Cambridge 
# Structural Database, then it will include bibliographic, chemical, 
# crystal, experimental, refinement or atomic coordinate data resulting 
# from the CCDC's data processing and validation procedures.
#
#######################################################################

data_WEHMEC
_symmetry_cell_setting           monoclinic
_symmetry_space_group_name_H-M   'P 21/c'
_symmetry_Int_Tables_number      14
_space_group_name_Hall           '-P 2ybc'
loop_
_symmetry_equiv_pos_site_id
_symmetry_equiv_pos_as_xyz
1 x,y,z
2 -x,1/2+y,1/2-z
3 -x,-y,-z
4 x,1/2-y,1/2+z
_cell_length_a                   8.9561(5)
_cell_length_b                   24.4637(18)
_cell_length_c                   25.428(2)
_cell_angle_alpha                90
_cell_angle_beta                 99.424(3)
_cell_angle_gamma                90
_cell_volume                     5496.07
loop_
_atom_site_label
_atom_site_type_symbol
_atom_site_fract_x
_atom_site_fract_y
_atom_site_fract_z
Pb1 Pb 0.5000 0.5000 0.5000
Pb2 Pb 0.0000 0.5000 0.5000
Ag1 Ag 0.21586(9) 0.44042(3) 0.38078(3)
Ag2 Ag 0.20511(9) 0.57463(3) 0.38989(3)
I1 I 0.24669(7) 0.40528(2) 0.49189(2)
I2 I 0.45804(6) 0.51095(2) 0.37256(2)
I3 I -0.06033(7) 0.50453(2) 0.37226(2)
I4 I 0.74688(7) 0.40458(2) 0.49660(2)
P1 P 0.1552(2) 0.35885(9) 0.32558(8)
P2 P 0.1195(2) 0.65628(9) 0.33783(8)
C1 C 0.2188(10) 0.2948(4) 0.3555(3)
C2 C 0.3629(12) 0.2930(5) 0.3863(4)
H1 H 0.4207 0.3247 0.3923
C3 C 0.4182(18) 0.2445(9) 0.4076(6)
H2 H 0.5152 0.2434 0.4273
C4 C 0.334(2) 0.1971(7) 0.4006(6)
H3 H 0.3734 0.1646 0.4160
C5 C 0.196(2) 0.1980(5) 0.3719(5)
H4 H 0.1400 0.1659 0.3668
C6 C 0.1349(14) 0.2469(4) 0.3493(4)
H5 H 0.0372 0.2473 0.3300
C7 C -0.0500(9) 0.3541(3) 0.3098(3)
C8 C -0.1311(11) 0.3571(4) 0.3516(4)
H6 H -0.0802 0.3583 0.3866
C9 C -0.2857(11) 0.3584(5) 0.3417(5)
H7 H -0.3400 0.3580 0.3699
C10 C -0.3612(12) 0.3602(5) 0.2901(6)
H8 H -0.4655 0.3654 0.2833
C11 C -0.2824(12) 0.3544(6) 0.2494(5)
H9 H -0.3339 0.3509 0.2147
C12 C -0.1279(11) 0.3535(4) 0.2588(4)
H10 H -0.0750 0.3525 0.2303
C13 C 0.2196(9) 0.3570(4) 0.2608(3)
C14 C 0.2643(11) 0.3106(4) 0.2382(3)
H11 H 0.2615 0.2771 0.2553
C15 C 0.3139(12) 0.3136(5) 0.1897(4)
H12 H 0.3437 0.2816 0.1746
C16 C 0.3206(13) 0.3615(6) 0.1633(4)
H13 H 0.3562 0.3624 0.1310
C17 C 0.2738(12) 0.4089(5) 0.1852(4)
H14 H 0.2750 0.4419 0.1670
C18 C 0.2246(11) 0.4073(4) 0.2345(4)
H15 H 0.1953 0.4392 0.2498
C19 C -0.0848(9) 0.6596(3) 0.3250(3)
C20 C -0.1603(10) 0.6537(4) 0.3680(4)
H16 H -0.1047 0.6503 0.4021
C21 C -0.3168(11) 0.6526(4) 0.3612(5)
H17 H -0.3653 0.6492 0.3907
C22 C -0.3997(11) 0.6565(5) 0.3116(5)
H18 H -0.5047 0.6543 0.3068
C23 C -0.3266(11) 0.6637(5) 0.2679(4)
H19 H -0.3831 0.6681 0.2340
C24 C -0.1686(10) 0.6646(4) 0.2745(3)
H20 H -0.1201 0.6685 0.2451
C25 C 0.1723(9) 0.6584(4) 0.2717(3)
C26 C 0.1607(11) 0.6097(4) 0.2427(4)
H21 H 0.1283 0.5780 0.2577
C27 C 0.1967(15) 0.6080(6) 0.1920(5)
H22 H 0.1821 0.5759 0.1722
C28 C 0.2535(15) 0.6530(7) 0.1708(4)
H23 H 0.2818 0.6513 0.1372
C29 C 0.2692(13) 0.7019(5) 0.1999(4)
H24 H 0.3074 0.7329 0.1857
C30 C 0.2270(11) 0.7036(4) 0.2502(3)
H25 H 0.2365 0.7362 0.2695
C31 C 0.1768(9) 0.7224(4) 0.3663(3)
C32 C 0.0823(11) 0.7674(4) 0.3603(3)
H26 H -0.0151 0.7636 0.3413
C33 C 0.1280(14) 0.8178(4) 0.3815(4)
H27 H 0.0629 0.8476 0.3755
C34 C 0.2662(16) 0.8240(6) 0.4109(5)
H28 H 0.2953 0.8576 0.4264
C35 C 0.3646(15) 0.7801(6) 0.4178(5)
H29 H 0.4623 0.7848 0.4362
C36 C 0.3182(11) 0.7285(5) 0.3973(4)
H30 H 0.3820 0.6984 0.4044
Pb2_2 Pb 1.0000 0.5000 0.5000
Ag1B Ag 0.78414(9) 0.55958(3) 0.61922(3)
Ag1B_2 Ag -0.21586(9) 0.55958(3) 0.61922(3)
Ag2B Ag 0.79489(9) 0.42537(3) 0.61011(3)
Ag2B_2 Ag -0.20511(9) 0.42537(3) 0.61011(3)
I1B I 0.75331(7) 0.59472(2) 0.50811(2)
I1B_2 I -0.24669(7) 0.59472(2) 0.50811(2)
I2B I 0.54196(6) 0.48905(2) 0.62744(2)
I3B I 0.06033(7) 0.49547(2) 0.62774(2)
I3B_2 I 1.06033(7) 0.49547(2) 0.62774(2)
I4B I 0.25312(7) 0.59542(2) 0.50340(2)
I4_2 I -0.25312(7) 0.40458(2) 0.49660(2)
P1B P 0.8448(2) 0.64115(9) 0.67442(8)
P2B P 0.8805(2) 0.34372(9) 0.66217(8)
C1B C 0.7812(10) 0.7052(4) 0.6445(3)
C2B C 0.6371(12) 0.7070(5) 0.6137(4)
H1B H 0.5793 0.6753 0.6077
C3B C 0.5818(18) 0.7555(9) 0.5924(6)
H2B H 0.4848 0.7566 0.5727
C4B C 0.666(2) 0.8029(7) 0.5994(6)
H3B H 0.6266 0.8354 0.5840
C5B C 0.804(2) 0.8020(5) 0.6281(5)
H4B H 0.8600 0.8341 0.6332
C6B C 0.8651(14) 0.7531(4) 0.6507(4)
H5B H 0.9628 0.7527 0.6700
C7B C 1.0500(9) 0.6459(3) 0.6902(3)
C8B C 1.1311(11) 0.6429(4) 0.6484(4)
H6B H 1.0802 0.6417 0.6134
C9B C 1.2857(11) 0.6416(5) 0.6583(5)
H7B H 1.3400 0.6420 0.6301
C10B C 1.3612(12) 0.6398(5) 0.7099(6)
H8B H 1.4655 0.6346 0.7167
C11B C 1.2824(12) 0.6456(6) 0.7506(5)
H9B H 1.3339 0.6491 0.7853
C12B C 1.1279(11) 0.6465(4) 0.7412(4)
H10B H 1.0750 0.6475 0.7697
C13B C 0.7804(9) 0.6430(4) 0.7392(3)
C14B C 0.7357(11) 0.6894(4) 0.7618(3)
H11B H 0.7385 0.7229 0.7447
C15B C 0.6861(12) 0.6864(5) 0.8103(4)
H12B H 0.6563 0.7184 0.8254
C16B C 0.6794(13) 0.6385(6) 0.8367(4)
H13B H 0.6438 0.6376 0.8690
C17B C 0.7262(12) 0.5911(5) 0.8148(4)
H14B H 0.7250 0.5581 0.8330
C18B C 0.7754(11) 0.5927(4) 0.7655(4)
H15B H 0.8047 0.5608 0.7502
C19B C 1.0848(9) 0.3404(3) 0.6750(3)
C20B C 1.1603(10) 0.3463(4) 0.6320(4)
H16B H 1.1047 0.3497 0.5979
C21B C 1.3168(11) 0.3474(4) 0.6388(5)
H17B H 1.3653 0.3508 0.6093
C22B C 1.3997(11) 0.3435(5) 0.6884(5)
H18B H 1.5047 0.3457 0.6932
C23B C 1.3266(11) 0.3363(5) 0.7321(4)
H19B H 1.3831 0.3319 0.7660
C24B C 1.1686(10) 0.3354(4) 0.7255(3)
H20B H 1.1201 0.3315 0.7549
C25B C 0.8277(9) 0.3416(4) 0.7283(3)
C26B C 0.8393(11) 0.3903(4) 0.7573(4)
H21B H 0.8717 0.4220 0.7423
C27B C 0.8033(15) 0.3920(6) 0.8080(5)
H22B H 0.8179 0.4241 0.8278
C28B C 0.7465(15) 0.3470(7) 0.8292(4)
H23B H 0.7182 0.3487 0.8628
C29B C 0.7308(13) 0.2981(5) 0.8001(4)
H24B H 0.6926 0.2671 0.8143
C30B C 0.7730(11) 0.2964(4) 0.7498(3)
H25B H 0.7635 0.2638 0.7305
C31B C 0.8232(9) 0.2776(4) 0.6337(3)
C32B C 0.9177(11) 0.2326(4) 0.6397(3)
H26B H 1.0151 0.2364 0.6587
C33B C 0.8720(14) 0.1822(4) 0.6185(4)
H27B H 0.9371 0.1524 0.6245
C34B C 0.7338(16) 0.1760(6) 0.5891(5)
H28B H 0.7047 0.1424 0.5736
C35B C 0.6354(15) 0.2199(6) 0.5822(5)
H29B H 0.5377 0.2152 0.5638
C36B C 0.6818(11) 0.2715(5) 0.6027(4)
H30B H 0.6180 0.3016 0.5956
Pb3 Pb -0.73761(4) 0.530752(14) 0.029773(13)
I5 I -1.01549(8) 0.48283(3) 0.07907(2)
I6 I -0.57529(8) 0.41949(3) 0.01250(3)
O1 O -0.5855(9) 0.5315(3) 0.1233(2)
O2 O -0.8377(9) 0.6301(3) 0.0364(3)
N1 N -0.3804(11) 0.5215(4) 0.1866(3)
N2 N -0.9924(10) 0.7005(3) 0.0097(3)
C37 C -0.4491(16) 0.5270(6) 0.1371(4)
H31 H -0.3890 0.5275 0.1105
C38 C -0.2170(17) 0.5174(8) 0.2008(5)
H32 H -0.1719 0.5196 0.1691
H33 H -0.1910 0.4832 0.2183
H34 H -0.1802 0.5469 0.2244
C39 C -0.4578(18) 0.5191(6) 0.2308(5)
H35 H -0.5650 0.5198 0.2185
H36 H -0.4296 0.5499 0.2536
H37 H -0.4313 0.4859 0.2503
C40 C -0.9584(13) 0.6492(4) 0.0151(4)
H38 H -1.0334 0.6244 0.0012
C41 C -0.8848(16) 0.7422(5) 0.0291(6)
H39 H -0.7919 0.7256 0.0456
H40 H -0.9245 0.7644 0.0547
H41 H -0.8662 0.7647 -0.0002
C42 C -1.1416(14) 0.7191(6) -0.0169(5)
H42 H -1.2034 0.6879 -0.0286
H43 H -1.1299 0.7413 -0.0470
H44 H -1.1891 0.7401 0.0077
Pb3B Pb -1.26239(4) 0.469248(14) -0.029773(13)
I5B I -0.98451(8) 0.51717(3) -0.07907(2)
I6B I -1.42471(8) 0.58051(3) -0.01250(3)
O1B O -1.4145(9) 0.4685(3) -0.1233(2)
O2B O -1.1623(9) 0.3699(3) -0.0364(3)
N1B N -1.6196(11) 0.4785(4) -0.1866(3)
N2B N -1.0076(10) 0.2995(3) -0.0097(3)
C37B C -1.5509(16) 0.4730(6) -0.1371(4)
H31B H -1.6110 0.4725 -0.1105
C38B C -1.7830(17) 0.4826(8) -0.2008(5)
H32B H -1.8281 0.4804 -0.1691
H33B H -1.8090 0.5168 -0.2183
H34B H -1.8198 0.4531 -0.2244
C39B C -1.5422(18) 0.4809(6) -0.2308(5)
H35B H -1.4350 0.4802 -0.2185
H36B H -1.5704 0.4501 -0.2536
H37B H -1.5687 0.5141 -0.2503
C40B C -1.0416(13) 0.3508(4) -0.0151(4)
H38B H -0.9666 0.3756 -0.0012
C41B C -1.1152(16) 0.2578(5) -0.0291(6)
H39B H -1.2081 0.2744 -0.0456
H40B H -1.0755 0.2356 -0.0547
H41B H -1.1338 0.2353 0.0002
C42B C -0.8584(14) 0.2809(6) 0.0169(5)
H42B H -0.7966 0.3121 0.0286
H43B H -0.8701 0.2587 0.0470
H44B H -0.8109 0.2599 -0.0077
loop_
_geom_bond_atom_site_label_1
_geom_bond_atom_site_label_2
_geom_bond_site_symmetry_1
_geom_bond_site_symmetry_2
Pb1 I1 1_555 1_555
Pb2 I1 1_555 1_555
Ag1 I1 1_555 1_555
Ag2 I2 1_555 1_555
I2 Pb1 1_555 1_555
I3 Pb2 1_555 1_555
I4 Pb1 1_555 1_555
P1 Ag1 1_555 1_555
P2 Ag2 1_555 1_555
C1 P1 1_555 1_555
C2 C1 1_555 1_555
H1 C2 1_555 1_555
C3 C2 1_555 1_555
H2 C3 1_555 1_555
C4 C3 1_555 1_555
H3 C4 1_555 1_555
C5 C4 1_555 1_555
H4 C5 1_555 1_555
C6 C1 1_555 1_555
H5 C6 1_555 1_555
C7 P1 1_555 1_555
C8 C7 1_555 1_555
H6 C8 1_555 1_555
C9 C8 1_555 1_555
H7 C9 1_555 1_555
C10 C9 1_555 1_555
H8 C10 1_555 1_555
C11 C10 1_555 1_555
H9 C11 1_555 1_555
C12 C7 1_555 1_555
H10 C12 1_555 1_555
C13 P1 1_555 1_555
C14 C13 1_555 1_555
H11 C14 1_555 1_555
C15 C14 1_555 1_555
H12 C15 1_555 1_555
C16 C15 1_555 1_555
H13 C16 1_555 1_555
C17 C16 1_555 1_555
H14 C17 1_555 1_555
C18 C13 1_555 1_555
H15 C18 1_555 1_555
C19 P2 1_555 1_555
C20 C19 1_555 1_555
H16 C20 1_555 1_555
C21 C20 1_555 1_555
H17 C21 1_555 1_555
C22 C21 1_555 1_555
H18 C22 1_555 1_555
C23 C22 1_555 1_555
H19 C23 1_555 1_555
C24 C19 1_555 1_555
H20 C24 1_555 1_555
C25 P2 1_555 1_555
C26 C25 1_555 1_555
H21 C26 1_555 1_555
C27 C26 1_555 1_555
H22 C27 1_555 1_555
C28 C27 1_555 1_555
H23 C28 1_555 1_555
C29 C28 1_555 1_555
H24 C29 1_555 1_555
C30 C25 1_555 1_555
H25 C30 1_555 1_555
C31 P2 1_555 1_555
C32 C31 1_555 1_555
H26 C32 1_555 1_555
C33 C32 1_555 1_555
H27 C33 1_555 1_555
C34 C33 1_555 1_555
H28 C34 1_555 1_555
C35 C34 1_555 1_555
H29 C35 1_555 1_555
C36 C31 1_555 1_555
H30 C36 1_555 1_555
Pb3 I5 1_555 1_555
I5 Pb3B 1_555 1_555
I6 Pb3 1_555 1_555
O1 Pb3 1_555 1_555
O2 Pb3 1_555 1_555
N1 C37 1_555 1_555
N2 C40 1_555 1_555
C37 O1 1_555 1_555
H31 C37 1_555 1_555
C38 N1 1_555 1_555
H32 C38 1_555 1_555
H33 C38 1_555 1_555
H34 C38 1_555 1_555
C39 N1 1_555 1_555
H35 C39 1_555 1_555
H36 C39 1_555 1_555
H37 C39 1_555 1_555
C40 O2 1_555 1_555
H38 C40 1_555 1_555
C41 N2 1_555 1_555
H39 C41 1_555 1_555
H40 C41 1_555 1_555
H41 C41 1_555 1_555
C42 N2 1_555 1_555
H42 C42 1_555 1_555
H43 C42 1_555 1_555
H44 C42 1_555 1_555
Pb2_2 I4 1_555 1_555
Ag1B I1B 1_555 1_555
Ag1B_2 I1B_2 1_555 1_555
Ag2B I4 1_555 1_555
Ag2B_2 I3B 1_555 1_555
I1B Pb1 1_555 1_555
I1B_2 Pb2 1_555 1_555
I2B Pb1 1_555 1_555
I3B Pb2 1_555 1_555
I3B_2 Pb2_2 1_555 1_555
I4B Pb1 1_555 1_555
I4_2 Pb2 1_555 1_555
P1B Ag1B 1_555 1_555
P2B Ag2B 1_555 1_555
C1B P1B 1_555 1_555
C2B C1B 1_555 1_555
H1B C2B 1_555 1_555
C3B C2B 1_555 1_555
H2B C3B 1_555 1_555
C4B C3B 1_555 1_555
H3B C4B 1_555 1_555
C5B C4B 1_555 1_555
H4B C5B 1_555 1_555
C6B C1B 1_555 1_555
H5B C6B 1_555 1_555
C7B P1B 1_555 1_555
C8B C7B 1_555 1_555
H6B C8B 1_555 1_555
C9B C8B 1_555 1_555
H7B C9B 1_555 1_555
C10B C9B 1_555 1_555
H8B C10B 1_555 1_555
C11B C10B 1_555 1_555
H9B C11B 1_555 1_555
C12B C7B 1_555 1_555
H10B C12B 1_555 1_555
C13B P1B 1_555 1_555
C14B C13B 1_555 1_555
H11B C14B 1_555 1_555
C15B C14B 1_555 1_555
H12B C15B 1_555 1_555
C16B C15B 1_555 1_555
H13B C16B 1_555 1_555
C17B C16B 1_555 1_555
H14B C17B 1_555 1_555
C18B C13B 1_555 1_555
H15B C18B 1_555 1_555
C19B P2B 1_555 1_555
C20B C19B 1_555 1_555
H16B C20B 1_555 1_555
C21B C20B 1_555 1_555
H17B C21B 1_555 1_555
C22B C21B 1_555 1_555
H18B C22B 1_555 1_555
C23B C22B 1_555 1_555
H19B C23B 1_555 1_555
C24B C19B 1_555 1_555
H20B C24B 1_555 1_555
C25B P2B 1_555 1_555
C26B C25B 1_555 1_555
H21B C26B 1_555 1_555
C27B C26B 1_555 1_555
H22B C27B 1_555 1_555
C28B C27B 1_555 1_555
H23B C28B 1_555 1_555
C29B C28B 1_555 1_555
H24B C29B 1_555 1_555
C30B C25B 1_555 1_555
H25B C30B 1_555 1_555
C31B P2B 1_555 1_555
C32B C31B 1_555 1_555
H26B C32B 1_555 1_555
C33B C32B 1_555 1_555
H27B C33B 1_555 1_555
C34B C33B 1_555 1_555
H28B C34B 1_555 1_555
C35B C34B 1_555 1_555
H29B C35B 1_555 1_555
C36B C31B 1_555 1_555
H30B C36B 1_555 1_555
Pb3B I5B 1_555 1_555
I5B Pb3 1_555 1_555
I6B Pb3B 1_555 1_555
O1B Pb3B 1_555 1_555
O2B Pb3B 1_555 1_555
N1B C37B 1_555 1_555
N2B C40B 1_555 1_555
C37B O1B 1_555 1_555
H31B C37B 1_555 1_555
C38B N1B 1_555 1_555
H32B C38B 1_555 1_555
H33B C38B 1_555 1_555
H34B C38B 1_555 1_555
C39B N1B 1_555 1_555
H35B C39B 1_555 1_555
H36B C39B 1_555 1_555
H37B C39B 1_555 1_555
C40B O2B 1_555 1_555
H38B C40B 1_555 1_555
C41B N2B 1_555 1_555
H39B C41B 1_555 1_555
H40B C41B 1_555 1_555
H41B C41B 1_555 1_555
C42B N2B 1_555 1_555
H42B C42B 1_555 1_555
H43B C42B 1_555 1_555
H44B C42B 1_555 1_555
Pb2 I4B 1_555 1_555
Ag1 I2 1_555 1_555
Ag1 I3 1_555 1_555
Ag2 I3 1_555 1_555
Ag2 I4B 1_555 1_555
C5 C6 1_555 1_555
C11 C12 1_555 1_555
C17 C18 1_555 1_555
C23 C24 1_555 1_555
C29 C30 1_555 1_555
C35 C36 1_555 1_555
Pb2_2 I1B 1_555 1_555
Ag1B I2B 1_555 1_555
Ag1B I3B_2 1_555 1_555
Ag1B_2 I3B 1_555 1_555
Ag2B I2B 1_555 1_555
Ag2B I3B_2 1_555 1_555
Ag2B_2 I4_2 1_555 1_555
C5B C6B 1_555 1_555
C11B C12B 1_555 1_555
C17B C18B 1_555 1_555
C23B C24B 1_555 1_555
C29B C30B 1_555 1_555
C35B C36B 1_555 1_555

#END
