
#######################################################################
#
#                 Cambridge Crystallographic Data Centre
#                                CCDC 
#
#######################################################################
#
# If this CIF has been generated from an entry in the Cambridge 
# Structural Database, then it will include bibliographic, chemical, 
# crystal, experimental, refinement or atomic coordinate data resulting 
# from the CCDC's data processing and validation procedures.
#
#######################################################################

data_WEHPEF
_symmetry_cell_setting           monoclinic
_symmetry_space_group_name_H-M   'P 2/n'
_symmetry_Int_Tables_number      13
_space_group_name_Hall           '-P 2yac'
loop_
_symmetry_equiv_pos_site_id
_symmetry_equiv_pos_as_xyz
1 x,y,z
2 1/2-x,y,1/2-z
3 -x,-y,-z
4 1/2+x,-y,1/2+z
_cell_length_a                   9.7716(9)
_cell_length_b                   9.8378(7)
_cell_length_c                   11.9907(12)
_cell_angle_alpha                90
_cell_angle_beta                 90.770(8)
_cell_angle_gamma                90
_cell_volume                     1152.57
loop_
_atom_site_label
_atom_site_type_symbol
_atom_site_fract_x
_atom_site_fract_y
_atom_site_fract_z
C1 C 0.1914(2) 0.6013(2) -0.01557(17)
H1 H 0.1937 0.6804 0.0299
C2 C 0.2293(2) 0.6084(2) -0.12517(17)
H2 H 0.2577 0.6927 -0.1557
C3 C 0.2263(2) 0.4924(2) -0.19196(16)
C4 C 0.1771(2) 0.3728(2) -0.14510(17)
H3 H 0.1689 0.2932 -0.1895
C5 C 0.1406(2) 0.3694(2) -0.03542(17)
H4 H 0.1078 0.2873 -0.0037
C6 C 0.0652(2) 0.2172(2) 0.32350(17)
H5 H 0.0817 0.2295 0.2463
C7 C 0.0377(2) 0.0898(2) 0.36382(17)
H6 H 0.0352 0.0147 0.3140
C8 C 0.0134(2) 0.0686(2) 0.47703(16)
C9 C 0.0143(2) 0.1831(2) 0.54468(17)
H7 H -0.0039 0.1738 0.6219
C10 C 0.0410(2) 0.3095(2) 0.50199(16)
H8 H 0.0399 0.3868 0.5495
N1 N 0.15094(17) 0.48166(18) 0.02716(14)
N2 N 0.06888(17) 0.32479(17) 0.39259(14)
O1 O 0.11246(15) 0.47386(15) 0.13453(11)
O2 O 0.09508(15) 0.45067(14) 0.35508(11)
O3 O 0.2500 0.7107(2) 0.2500
H9 H 0.199(4) 0.759(3) 0.217(3)
Cu1 Cu 0.2500 0.48073(3) 0.2500
C1A C 0.3086(2) 0.6013(2) -0.48443(17)
H1A H 0.3063 0.6804 -0.5299
C2A C 0.2707(2) 0.6084(2) -0.37483(17)
H2A H 0.2423 0.6927 -0.3443
C3A C 0.2737(2) 0.4924(2) -0.30804(16)
C4A C 0.3229(2) 0.3728(2) -0.35490(17)
H3A H 0.3311 0.2932 -0.3105
C5A C 0.3594(2) 0.3694(2) -0.46458(17)
H4A H 0.3922 0.2873 -0.4963
C6B C -0.0652(2) -0.2172(2) 0.67650(17)
H5B H -0.0817 -0.2295 0.7537
C7B C -0.0377(2) -0.0898(2) 0.63618(17)
H6B H -0.0352 -0.0147 0.6860
C8B C -0.0134(2) -0.0686(2) 0.52297(16)
C9B C -0.0143(2) -0.1831(2) 0.45532(17)
H7B H 0.0039 -0.1738 0.3781
C10B C -0.0410(2) -0.3095(2) 0.49801(16)
H8B H -0.0399 -0.3868 0.4505
N1A N 0.34906(17) 0.48166(18) -0.52716(14)
N2B N -0.06888(17) -0.32479(17) 0.60741(14)
O1A O 0.38754(15) 0.47386(15) -0.63453(11)
O1A_2 O 0.38754(15) 0.47386(15) 0.36547(11)
O2B O -0.09508(15) -0.45067(14) 0.64492(11)
O2A O 0.40492(15) 0.45067(14) 0.14492(11)
H9A H 0.301(4) 0.759(3) 0.283(3)
Cu1_2 Cu 0.2500 0.48073(3) -0.7500
Cu1C Cu -0.2500 -0.48073(3) 0.7500
O4 O 0.2500 1.0766(3) -0.2500
H10 H 0.228(4) 1.031(3) -0.201(3)
H10A H 0.272(4) 1.031(3) -0.299(3)
O5 O 0.18015(16) 0.92523(17) -0.05106(13)
O6 O 0.06197(16) 0.86845(15) 0.11950(12)
O7 O 0.14247(17) 1.09887(15) 0.09046(13)
S1 S 0.09569(5) 0.97418(5) 0.03915(4)
O5B O -0.18015(16) 1.07477(17) 0.05106(13)
O6B O -0.06197(16) 1.13155(15) -0.11950(12)
O7B O -0.14247(17) 0.90113(15) -0.09046(13)
S1B S -0.09569(5) 1.02582(5) -0.03915(4)
loop_
_geom_bond_atom_site_label_1
_geom_bond_atom_site_label_2
_geom_bond_site_symmetry_1
_geom_bond_site_symmetry_2
C1 H1 1_555 1_555
C2 C1 1_555 1_555
H2 C2 1_555 1_555
C3 C2 1_555 1_555
C4 C3 1_555 1_555
H3 C4 1_555 1_555
C5 C4 1_555 1_555
H4 C5 1_555 1_555
C6 H5 1_555 1_555
C7 C6 1_555 1_555
H6 C7 1_555 1_555
C8 C7 1_555 1_555
C9 C8 1_555 1_555
H7 C9 1_555 1_555
C10 C9 1_555 1_555
H8 C10 1_555 1_555
N1 C1 1_555 1_555
N2 C6 1_555 1_555
O1 N1 1_555 1_555
O2 N2 1_555 1_555
O3 H9 1_555 1_555
O4 H10 1_555 1_555
O5 S1 1_555 1_555
O6 S1 1_555 1_555
O7 S1 1_555 1_555
S1 S1B 1_555 1_555
Cu1 O1 1_555 1_555
C1A H1A 1_555 1_555
C2A C1A 1_555 1_555
H2A C2A 1_555 1_555
C3A C3 1_555 1_555
C4A C3A 1_555 1_555
H3A C4A 1_555 1_555
C5A C4A 1_555 1_555
H4A C5A 1_555 1_555
C6B H5B 1_555 1_555
C7B C6B 1_555 1_555
H6B C7B 1_555 1_555
C8B C8 1_555 1_555
C9B C8B 1_555 1_555
H7B C9B 1_555 1_555
C10B C9B 1_555 1_555
H8B C10B 1_555 1_555
N1A C1A 1_555 1_555
N2B C6B 1_555 1_555
O1A N1A 1_555 1_555
O1A_2 Cu1 1_555 1_555
O2B N2B 1_555 1_555
O2A Cu1 1_555 1_555
H9A O3 1_555 1_555
H10A O4 1_555 1_555
O5B S1B 1_555 1_555
O6B S1B 1_555 1_555
O7B S1B 1_555 1_555
Cu1_2 O1A 1_555 1_555
Cu1C O2B 1_555 1_555
C5 N1 1_555 1_555
C10 N2 1_555 1_555
O2 Cu1 1_555 1_555
O3 Cu1 1_555 1_555
C2A C3A 1_555 1_555
C5A N1A 1_555 1_555
C7B C8B 1_555 1_555
C10B N2B 1_555 1_555

#END
