
#######################################################################
#
#                 Cambridge Crystallographic Data Centre
#                                CCDC 
#
#######################################################################
#
# If this CIF has been generated from an entry in the Cambridge 
# Structural Database, then it will include bibliographic, chemical, 
# crystal, experimental, refinement or atomic coordinate data resulting 
# from the CCDC's data processing and validation procedures.
#
#######################################################################

data_WEHQOQ01
_symmetry_cell_setting           triclinic
_symmetry_space_group_name_H-M   'P -1'
_symmetry_Int_Tables_number      2
_space_group_name_Hall           '-P 1'
loop_
_symmetry_equiv_pos_site_id
_symmetry_equiv_pos_as_xyz
1 x,y,z
2 -x,-y,-z
_cell_length_a                   10.8840(16)
_cell_length_b                   13.0047(19)
_cell_length_c                   16.524(3)
_cell_angle_alpha                104.084(2)
_cell_angle_beta                 94.263(2)
_cell_angle_gamma                104.432(2)
_cell_volume                     2174.16
loop_
_atom_site_label
_atom_site_type_symbol
_atom_site_fract_x
_atom_site_fract_y
_atom_site_fract_z
Ag1 Ag 0.35134(4) 0.23314(3) 0.15453(3)
Ag2 Ag 0.59586(4) 0.14904(3) 0.25236(3)
N1 N 0.4691(3) 0.0275(3) 0.1322(2)
N2 N 0.3736(3) 0.0613(3) 0.0930(2)
N3 N -0.2448(5) 0.6576(4) -0.1300(3)
N4 N 1.2622(4) -0.1463(4) 0.6519(3)
C1 C 0.4586(4) -0.0724(3) 0.0895(2)
C2 C 0.5335(4) -0.1486(3) 0.1013(2)
C3 C 0.5100(4) -0.2486(3) 0.0411(3)
H1 H 0.4484 -0.2667 -0.0060
C4 C 0.5797(5) -0.3216(4) 0.0521(3)
H2 H 0.5652 -0.3888 0.0119
C5 C 0.6693(4) -0.2952(4) 0.1217(3)
H3 H 0.7137 -0.3456 0.1290
C6 C 0.6952(4) -0.1943(4) 0.1818(3)
C7 C 0.6258(4) -0.1209(3) 0.1707(3)
H4 H 0.6418 -0.0529 0.2102
C8 C 0.7892(4) -0.1684(4) 0.2552(3)
C9 C 0.8644(4) -0.1554(4) 0.3149(3)
C10 C 0.9504(4) -0.1468(4) 0.3871(3)
C11 C 1.0792(5) -0.1365(6) 0.3842(4)
H5 H 1.1117 -0.1313 0.3344
C12 C 1.1593(5) -0.1338(6) 0.4518(4)
H6 H 1.2455 -0.1275 0.4478
C13 C 1.1142(5) -0.1402(4) 0.5257(3)
C14 C 1.1985(5) -0.1435(5) 0.5963(4)
C15 C 0.9874(5) -0.1474(5) 0.5326(3)
H7 H 0.9568 -0.1499 0.5833
C16 C 0.9058(5) -0.1507(5) 0.4627(3)
H8 H 0.8199 -0.1557 0.4669
C17 C 0.3128(4) -0.0197(3) 0.0298(3)
C18 C 0.2083(4) -0.0275(3) -0.0340(3)
C19 C 0.1611(4) -0.1233(3) -0.0994(3)
H9 H 0.1937 -0.1834 -0.1014
C20 C 0.0662(5) -0.1290(4) -0.1612(3)
H10 H 0.0359 -0.1925 -0.2058
C21 C 0.0155(5) -0.0407(4) -0.1576(3)
H11 H -0.0499 -0.0456 -0.1991
C22 C 0.0617(4) 0.0547(4) -0.0923(3)
C23 C 0.1575(4) 0.0608(3) -0.0310(3)
H12 H 0.1887 0.1248 0.0130
C24 C 0.0145(4) 0.1490(4) -0.0911(3)
C25 C -0.0222(4) 0.2268(4) -0.0922(3)
C26 C -0.0632(4) 0.3230(4) -0.0968(3)
C27 C -0.0290(5) 0.3731(4) -0.1592(3)
H13 H 0.0243 0.3475 -0.1959
C28 C -0.0738(5) 0.4620(4) -0.1677(3)
H14 H -0.0518 0.4952 -0.2105
C29 C -0.1503(5) 0.4997(4) -0.1125(3)
C30 C -0.2002(5) 0.5891(4) -0.1221(3)
C31 C -0.1826(5) 0.4527(4) -0.0472(3)
H15 H -0.2328 0.4803 -0.0090
C32 C -0.1381(5) 0.3635(4) -0.0403(3)
H16 H -0.1590 0.3308 0.0029
C33 C 0.3759(11) 0.3468(10) 0.4185(7)
C34 C 0.6960(10) 0.4867(6) 0.2817(5)
O1 O 0.3623(3) -0.1069(2) 0.02389(17)
O2 O 0.5961(4) 0.2923(3) 0.1795(3)
O3 O 0.6845(7) 0.4438(4) 0.1235(3)
O4 O 0.8179(6) 0.3722(5) 0.2007(6)
O5 O 0.4042(5) 0.2047(5) 0.2911(3)
O6 O 0.3098(7) 0.1389(5) 0.4030(4)
O7 O 0.1960(5) 0.2096(6) 0.3142(4)
F1 F 0.5869(10) 0.5163(8) 0.2788(6)
F2 F 0.7815(7) 0.5756(4) 0.2933(3)
F3 F 0.6891(7) 0.4464(5) 0.3445(3)
F4 F 0.3855(8) 0.4175(4) 0.3776(5)
F5 F 0.3122(8) 0.3597(5) 0.4795(4)
F6 F 0.5019(8) 0.3508(7) 0.4514(5)
S1 S 0.68709(17) 0.39061(11) 0.18448(9)
S2 S 0.31795(15) 0.20915(14) 0.34979(10)
Ag1A Ag -0.35134(4) 0.76686(3) -0.15453(3)
Ag2A Ag 1.40414(4) -0.14904(3) 0.74764(3)
N3A N 0.2448(5) 0.3424(4) 0.1300(3)
N4A N 0.7378(4) 0.1463(4) 0.3481(3)
C35 C 0.4184(10) 0.7158(9) 0.2917(8)
H17 H 0.4032 0.6414 0.2642
C36 C 0.3598(8) 0.7797(12) 0.2613(5)
H18 H 0.2998 0.7486 0.2128
C37 C 0.3864(8) 0.8929(9) 0.3007(7)
H19 H 0.3459 0.9372 0.2787
C38 C 0.4744(10) 0.9363(8) 0.3732(7)
H20 H 0.4962 1.0112 0.4006
C39 C 0.5258(9) 0.8711(13) 0.4022(6)
H21 H 0.5831 0.8996 0.4520
C40 C 0.4991(11) 0.7624(11) 0.3624(9)
H22 H 0.5391 0.7189 0.3858
loop_
_geom_bond_atom_site_label_1
_geom_bond_atom_site_label_2
_geom_bond_site_symmetry_1
_geom_bond_site_symmetry_2
Ag1 N2 1_555 1_555
Ag2 N1 1_555 1_555
N1 N2 1_555 1_555
N2 C17 1_555 1_555
N3 C30 1_555 1_555
N4 C14 1_555 1_555
C1 N1 1_555 1_555
C2 C1 1_555 1_555
C3 C2 1_555 1_555
H1 C3 1_555 1_555
C4 C3 1_555 1_555
H2 C4 1_555 1_555
C5 C4 1_555 1_555
H3 C5 1_555 1_555
C6 C5 1_555 1_555
C7 C2 1_555 1_555
H4 C7 1_555 1_555
C8 C6 1_555 1_555
C9 C8 1_555 1_555
C10 C9 1_555 1_555
C11 C10 1_555 1_555
H5 C11 1_555 1_555
C12 C11 1_555 1_555
H6 C12 1_555 1_555
C13 C12 1_555 1_555
C14 C13 1_555 1_555
C15 C13 1_555 1_555
H7 C15 1_555 1_555
C16 C10 1_555 1_555
H8 C16 1_555 1_555
C17 C18 1_555 1_555
C18 C19 1_555 1_555
C19 H9 1_555 1_555
C20 C19 1_555 1_555
H10 C20 1_555 1_555
C21 C20 1_555 1_555
H11 C21 1_555 1_555
C22 C21 1_555 1_555
C23 C18 1_555 1_555
H12 C23 1_555 1_555
C24 C22 1_555 1_555
C25 C24 1_555 1_555
C26 C25 1_555 1_555
C27 C26 1_555 1_555
H13 C27 1_555 1_555
C28 C27 1_555 1_555
H14 C28 1_555 1_555
C29 C28 1_555 1_555
C30 C29 1_555 1_555
C31 C29 1_555 1_555
H15 C31 1_555 1_555
C32 C26 1_555 1_555
H16 C32 1_555 1_555
C33 F4 1_555 1_555
C34 F1 1_555 1_555
C35 H17 1_555 1_555
C36 C35 1_555 1_555
H18 C36 1_555 1_555
C37 C36 1_555 1_555
H19 C37 1_555 1_555
C38 C37 1_555 1_555
H20 C38 1_555 1_555
C39 C38 1_555 1_555
H21 C39 1_555 1_555
C40 C35 1_555 1_555
H22 C40 1_555 1_555
O1 C1 1_555 1_555
O2 Ag1 1_555 1_555
O3 S1 1_555 1_555
O4 S1 1_555 1_555
O5 Ag1 1_555 1_555
O6 S2 1_555 1_555
O7 S2 1_555 1_555
F2 C34 1_555 1_555
F3 C34 1_555 1_555
F5 C33 1_555 1_555
F6 C33 1_555 1_555
S1 C34 1_555 1_555
S2 C33 1_555 1_555
Ag1A N3 1_555 1_555
Ag2A N4 1_555 1_555
N3A Ag1 1_555 1_555
N4A Ag2 1_555 1_555
Ag2 O2 1_555 1_555
Ag2 O5 1_555 1_555
C6 C7 1_555 1_555
C15 C16 1_555 1_555
C17 O1 1_555 1_555
C22 C23 1_555 1_555
C31 C32 1_555 1_555
C39 C40 1_555 1_555
O2 S1 1_555 1_555
O5 S2 1_555 1_555

#END
