
#######################################################################
#
#                 Cambridge Crystallographic Data Centre
#                                CCDC 
#
#######################################################################
#
# If this CIF has been generated from an entry in the Cambridge 
# Structural Database, then it will include bibliographic, chemical, 
# crystal, experimental, refinement or atomic coordinate data resulting 
# from the CCDC's data processing and validation procedures.
#
#######################################################################

data_WEHQIJ03
_symmetry_cell_setting           orthorhombic
_symmetry_space_group_name_H-M   'P 21 21 21'
_symmetry_Int_Tables_number      19
_space_group_name_Hall           'P 2ac 2ab'
loop_
_symmetry_equiv_pos_site_id
_symmetry_equiv_pos_as_xyz
1 x,y,z
2 1/2-x,-y,1/2+z
3 1/2+x,1/2-y,-z
4 -x,1/2+y,1/2-z
_cell_length_a                   9.483(1)
_cell_length_b                   14.762(3)
_cell_length_c                   8.077(5)
_cell_angle_alpha                90
_cell_angle_beta                 90
_cell_angle_gamma                90
_cell_volume                     1130.68
loop_
_atom_site_label
_atom_site_type_symbol
_atom_site_fract_x
_atom_site_fract_y
_atom_site_fract_z
Zn1 Zn 0.05078(9) 0.12338(5) 0.20742(8)
S1 S 0.0636(2) 0.2414(1) 0.4016(2)
S2 S -0.1636(2) 0.1361(1) 0.0605(3)
O1 O 0.0870(5) -0.0089(3) 0.2563(6)
O2 O -0.0515(7) 0.0119(4) 0.4762(7)
O3 O 0.1275(6) -0.1372(4) 0.7235(6)
O4 O 0.2947(5) -0.1322(4) 0.5287(6)
N1 N 0.2381(7) 0.1234(4) 0.5449(9)
N2 N 0.1029(9) 0.2131(5) 0.7198(7)
N3 N -0.0623(9) -0.0052(5) -0.1087(9)
N4 N -0.1933(8) 0.0924(5) -0.2556(8)
C1 C 0.0242(7) -0.0340(5) 0.3900(8)
C2 C 0.0562(7) -0.1353(4) 0.4389(8)
C3 C 0.1680(8) -0.1353(5) 0.5773(9)
C4 C 0.1393(7) 0.1895(5) 0.5697(8)
C5 C -0.1383(8) 0.0704(6) -0.1157(10)
H1 H 0.2812 0.0903 0.6364
H2 H 0.2658 0.1051 0.4353
H3 H 0.1418 0.1851 0.8208
H4 H 0.0364 0.2612 0.7378
H5 H -0.0202 -0.0277 -0.0054
H6 H -0.0506 -0.0461 -0.2031
H7 H -0.2487 0.1474 -0.2685
H8 H -0.1832 0.0557 -0.3549
H9 H -0.0299 -0.1643 0.4770
H10 H 0.0883 -0.1687 0.3446
O4A O 0.2053(5) 0.1322(4) 0.0287(6)
Zn1A Zn 0.44922(9) -0.12338(5) 0.70742(8)
loop_
_geom_bond_atom_site_label_1
_geom_bond_atom_site_label_2
_geom_bond_site_symmetry_1
_geom_bond_site_symmetry_2
Zn1 S1 1_555 1_555
S1 C4 1_555 1_555
S2 Zn1 1_555 1_555
O1 Zn1 1_555 1_555
O2 C1 1_555 1_555
O3 C3 1_555 1_555
O4 C3 1_555 1_555
N1 C4 1_555 1_555
N2 C4 1_555 1_555
N3 C5 1_555 1_555
N4 C5 1_555 1_555
C1 O1 1_555 1_555
C2 C1 1_555 1_555
C3 C2 1_555 1_555
C5 S2 1_555 1_555
H1 N1 1_555 1_555
H2 N1 1_555 1_555
H3 N2 1_555 1_555
H4 N2 1_555 1_555
H5 N3 1_555 1_555
H6 N3 1_555 1_555
H7 N4 1_555 1_555
H8 N4 1_555 1_555
H9 C2 1_555 1_555
H10 C2 1_555 1_555
O4A Zn1 1_555 1_555
Zn1A O4 1_555 1_555

#END
