
#######################################################################
#
#                 Cambridge Crystallographic Data Centre
#                                CCDC 
#
#######################################################################
#
# If this CIF has been generated from an entry in the Cambridge 
# Structural Database, then it will include bibliographic, chemical, 
# crystal, experimental, refinement or atomic coordinate data resulting 
# from the CCDC's data processing and validation procedures.
#
#######################################################################

data_WEHTAG
_symmetry_cell_setting           monoclinic
_symmetry_space_group_name_H-M   'P c'
_symmetry_Int_Tables_number      7
_space_group_name_Hall           'P -2yc'
loop_
_symmetry_equiv_pos_site_id
_symmetry_equiv_pos_as_xyz
1 x,y,z
2 x,-y,1/2+z
_cell_length_a                   9.3148(2)
_cell_length_b                   10.3964(2)
_cell_length_c                   12.4509(3)
_cell_angle_alpha                90
_cell_angle_beta                 106.685(3)
_cell_angle_gamma                90
_cell_volume                     1154.99
loop_
_atom_site_label
_atom_site_type_symbol
_atom_site_fract_x
_atom_site_fract_y
_atom_site_fract_z
Ce1 Ce 1.110407 0.12849(3) 0.671058
Ce2 Ce 0.61590(6) -0.42427(3) 0.67304(5)
N1 N 0.9549(5) -0.0912(4) 0.5856(3)
C1 C 0.8839(7) -0.1725(6) 0.6359(5)
H1 H 0.897653 -0.160676 0.714722
N2 N 0.7953(7) -0.2690(6) 0.5854(5)
C2 C 0.7780(8) -0.2857(7) 0.4762(6)
C3 C 0.8516(8) -0.2092(7) 0.4176(6)
H2 H 0.840748 -0.223031 0.339476
C4 C 0.9412(7) -0.1121(7) 0.4770(5)
C5 C 1.0279(8) -0.0228(7) 0.4216(6)
C6 C 0.6702(8) -0.3884(7) 0.4165(6)
N3 N 1.0389(4) 0.3037(4) 0.5023(3)
C7 C 0.9087(8) 0.3151(6) 0.4224(6)
H3 H 0.828124 0.25986 0.426997
N4 N 0.8817(8) 0.3974(6) 0.3365(5)
C8 C 0.9946(8) 0.4730(6) 0.3299(6)
C9 C 1.1354(8) 0.4647(6) 0.4066(6)
H4 H 1.216964 0.51781 0.400419
C10 C 1.1529(8) 0.3766(6) 0.4924(6)
C11 C 1.3025(8) 0.3587(6) 0.5809(6)
C12 C 0.9627(9) 0.5724(7) 0.2379(6)
N5 N 1.4644(4) 0.2270(4) 1.0425(3)
C13 C 1.3717(7) 0.2339(6) 0.9387(6)
H5 H 1.33631 0.317580 0.910600
N6 N 1.3242(7) 0.1335(6) 0.8708(6)
C14 C 1.3725(7) 0.0174(7) 0.9108(6)
C15 C 1.4645(8) 0.0002(6) 1.0190(6)
H6 H 1.496850 -0.083800 1.048010
C16 C 1.5074(7) 0.1095(6) 1.0832(6)
C17 C 1.6074(8) 0.1021(6) 1.2033(6)
C18 C 1.3281(8) -0.0956(7) 0.8323(7)
O1 O 1.1136(5) 0.0543(4) 0.4850(4)
O2 O 1.0179(5) -0.0466(4) 0.3209(4)
O3 O 0.6066(5) -0.4534(4) 0.4727(4)
O4 O 0.6611(5) -0.4026(5) 0.3150(3)
O5 O 1.3122(5) 0.2656(5) 0.6470(4)
O6 O 1.4054(5) 0.4377(4) 0.5797(4)
O7 O 0.8358(5) 0.5675(4) 0.1641(4)
O8 O 1.0604(5) 0.6570(4) 0.2458(4)
O9 O 1.6351(5) 0.2096(4) 1.2539(4)
O10 O 1.6699(5) -0.0025(5) 1.2364(4)
O11 O 1.2647(5) -0.0664(5) 0.7290(4)
O12 O 1.3521(6) -0.2032(5) 0.8721(4)
O13 O 0.8222(5) 0.1632(5) 0.6151(4)
O14 O 0.4334(5) -0.4103(4) 0.7885(4)
H7 H 0.820853 0.241701 0.636525
H8 H 0.775811 0.122301 0.654624
H9 H 0.481920 -0.450610 0.846780
H10 H 0.403970 -0.341760 0.813450
Ce1A Ce 1.110407 -0.12849(3) 0.171058
Ce1A_2 Ce 1.110407 0.87151(3) 0.171058
Ce2A Ce 0.61590(6) 0.42427(3) 0.17304(5)
Ce2A_2 Ce 1.61590(6) 0.42427(3) 1.17304(5)
Ce2A_3 Ce 0.61590(6) -0.57573(3) 0.17304(5)
Ce2_2 Ce 1.61590(6) 0.57573(3) 0.67304(5)
N4A N 0.8817(8) -0.3974(6) 0.8365(5)
N5A N 0.4644(4) -0.2270(4) 0.5425(3)
O2A O 1.0179(5) 0.0466(4) 0.8209(4)
O4A O 0.6611(5) -0.5974(5) 0.8150(3)
O6_2 O 0.4054(5) -0.5623(4) 0.5797(4)
O7A O 0.8358(5) -0.5675(4) 0.6641(4)
O8A O 1.0604(5) 0.3430(4) 0.7458(4)
O9A O 0.6351(5) -0.2096(4) 0.7539(4)
O15 O 0.1565(7) 0.3218(6) 0.1182(5)
H11 H 0.164063 0.24333 0.148585
H12 H 0.228682 0.360217 0.16824
loop_
_geom_bond_atom_site_label_1
_geom_bond_atom_site_label_2
_geom_bond_site_symmetry_1
_geom_bond_site_symmetry_2
Ce1 N1 1_555 1_555
Ce2 N2 1_555 1_555
N1 C1 1_555 1_555
C1 H1 1_555 1_555
N2 C1 1_555 1_555
C2 N2 1_555 1_555
C3 C2 1_555 1_555
H2 C3 1_555 1_555
C4 N1 1_555 1_555
C5 C4 1_555 1_555
C6 C2 1_555 1_555
N3 Ce1 1_555 1_555
C7 N3 1_555 1_555
H3 C7 1_555 1_555
N4 C7 1_555 1_555
C8 N4 1_555 1_555
C9 C8 1_555 1_555
H4 C9 1_555 1_555
C10 N3 1_555 1_555
C11 C10 1_555 1_555
C12 C8 1_555 1_555
N5 C13 1_555 1_555
C13 H5 1_555 1_555
N6 Ce1 1_555 1_555
C14 N6 1_555 1_555
C15 C14 1_555 1_555
H6 C15 1_555 1_555
C16 N5 1_555 1_555
C17 C16 1_555 1_555
C18 C14 1_555 1_555
O1 Ce1 1_555 1_555
O2 C5 1_555 1_555
O3 Ce2 1_555 1_555
O4 C6 1_555 1_555
O5 Ce1 1_555 1_555
O6 C11 1_555 1_555
O7 C12 1_555 1_555
O8 C12 1_555 1_555
O9 C17 1_555 1_555
O10 C17 1_555 1_555
O11 Ce1 1_555 1_555
O12 C18 1_555 1_555
O13 Ce1 1_555 1_555
O14 Ce2 1_555 1_555
H7 O13 1_555 1_555
H8 O13 1_555 1_555
H9 O14 1_555 1_555
H10 O14 1_555 1_555
O15 H11 1_555 1_555
H12 O15 1_555 1_555
Ce1A O2 1_555 1_555
Ce1A_2 O8 1_555 1_555
Ce2A N4 1_555 1_555
Ce2A_2 N5 1_555 1_555
Ce2A_3 O4 1_555 1_555
Ce2_2 O6 1_555 1_555
N4A Ce2 1_555 1_555
N5A Ce2 1_555 1_555
O2A Ce1 1_555 1_555
O4A Ce2 1_555 1_555
O6_2 Ce2 1_555 1_555
O7A Ce2 1_555 1_555
O8A Ce1 1_555 1_555
O9A Ce2 1_555 1_555
C3 C4 1_555 1_555
C5 O1 1_555 1_555
C6 O3 1_555 1_555
C9 C10 1_555 1_555
C11 O5 1_555 1_555
C13 N6 1_555 1_555
C15 C16 1_555 1_555
C18 O11 1_555 1_555
O7 Ce2A 1_555 1_555
O9 Ce2A_2 1_555 1_555

#END
