
#######################################################################
#
#                 Cambridge Crystallographic Data Centre
#                                CCDC 
#
#######################################################################
#
# If this CIF has been generated from an entry in the Cambridge 
# Structural Database, then it will include bibliographic, chemical, 
# crystal, experimental, refinement or atomic coordinate data resulting 
# from the CCDC's data processing and validation procedures.
#
#######################################################################

data_WEHVIP02
_symmetry_cell_setting           monoclinic
_symmetry_space_group_name_H-M   'P 21/c'
_symmetry_Int_Tables_number      14
_space_group_name_Hall           '-P 2ybc'
loop_
_symmetry_equiv_pos_site_id
_symmetry_equiv_pos_as_xyz
1 x,y,z
2 -x,1/2+y,1/2-z
3 -x,-y,-z
4 x,1/2-y,1/2+z
_cell_length_a                   3.7875(8)
_cell_length_b                   15.059(3)
_cell_length_c                   10.875(2)
_cell_angle_alpha                90
_cell_angle_beta                 96.262(4)
_cell_angle_gamma                90
_cell_volume                     616.565
loop_
_atom_site_label
_atom_site_type_symbol
_atom_site_fract_x
_atom_site_fract_y
_atom_site_fract_z
Cu1 Cu 0.26866(12) 0.43740(3) 0.55972(4)
Cl1 Cl 0.1882(2) 0.50097(5) 0.34202(7)
C1 C 0.3763(7) 0.12364(19) 0.4909(3)
C2 C 0.4825(8) 0.2533(2) 0.6159(3)
H1 H 0.5821 0.2783 0.6898
C3 C 0.4127(8) 0.02999(18) 0.4642(3)
H2 H 0.3015 0.0100 0.3888
C4 C 0.1988(8) 0.17953(19) 0.4035(3)
H3 H 0.0961 0.1562 0.3289
C5 C 0.1733(8) 0.2685(2) 0.4260(3)
H4 H 0.0530 0.3039 0.3651
C6 C 0.5195(8) 0.16355(18) 0.6008(3)
H5 H 0.6392 0.1295 0.6635
N1 N 0.3123(6) 0.30749(16) 0.5311(2)
Cu1B Cu -0.26866(12) 0.56260(3) 0.44028(4)
Cu1_2 Cu -0.73134(12) 0.43740(3) 0.55972(4)
Cu1B_2 Cu 0.73134(12) -0.43740(3) 0.44028(4)
Cu1B_3 Cu 0.73134(12) 0.56260(3) 0.44028(4)
Cl1B Cl -0.1882(2) 0.49903(5) 0.65798(7)
Cl1_2 Cl -0.8118(2) 0.50097(5) 0.34202(7)
Cl1B_2 Cl 0.8118(2) 0.49903(5) 0.65798(7)
C1B C 0.6237(7) -0.12364(19) 0.5091(3)
C2B C 0.5175(8) -0.2533(2) 0.3841(3)
H1B H 0.4179 -0.2783 0.3102
C3B C 0.5873(8) -0.02999(18) 0.5358(3)
H2B H 0.6985 -0.0100 0.6112
C4B C 0.8012(8) -0.17953(19) 0.5965(3)
H3B H 0.9039 -0.1562 0.6711
C5B C 0.8267(8) -0.2685(2) 0.5740(3)
H4B H 0.9470 -0.3039 0.6349
C6B C 0.4805(8) -0.16355(18) 0.3992(3)
H5B H 0.3608 -0.1295 0.3365
N1B N 0.6877(6) -0.30749(16) 0.4689(2)
N1B_2 N -0.3123(6) 0.69251(16) 0.4689(2)
loop_
_geom_bond_atom_site_label_1
_geom_bond_atom_site_label_2
_geom_bond_site_symmetry_1
_geom_bond_site_symmetry_2
Cu1 Cl1 1_555 1_555
Cl1 Cu1B 1_555 1_555
C1 C3 1_555 1_555
C2 H1 1_555 1_555
C3 H2 1_555 1_555
C4 C1 1_555 1_555
H3 C4 1_555 1_555
C5 C4 1_555 1_555
H4 C5 1_555 1_555
C6 C1 1_555 1_555
H5 C6 1_555 1_555
N1 Cu1 1_555 1_555
Cu1B Cl1B 1_555 1_555
Cu1_2 Cl1B 1_555 1_555
Cu1B_2 N1B 1_555 1_555
Cu1B_3 Cl1 1_555 1_555
Cl1B Cu1 1_555 1_555
Cl1_2 Cu1B 1_555 1_555
Cl1B_2 Cu1 1_555 1_555
C1B C3B 1_555 1_555
C2B H1B 1_555 1_555
C3B C3 1_555 1_555
H2B C3B 1_555 1_555
C4B C1B 1_555 1_555
H3B C4B 1_555 1_555
C5B C4B 1_555 1_555
H4B C5B 1_555 1_555
C6B C1B 1_555 1_555
H5B C6B 1_555 1_555
N1B C2B 1_555 1_555
N1B_2 Cu1B 1_555 1_555
C2 C6 1_555 1_555
C2 N1 1_555 1_555
C5 N1 1_555 1_555
Cu1_2 Cl1_2 1_555 1_555
Cu1B_3 Cl1B_2 1_555 1_555
C2B C6B 1_555 1_555
C5B N1B 1_555 1_555

#END
