
#######################################################################
#
#                 Cambridge Crystallographic Data Centre
#                                CCDC 
#
#######################################################################
#
# If this CIF has been generated from an entry in the Cambridge 
# Structural Database, then it will include bibliographic, chemical, 
# crystal, experimental, refinement or atomic coordinate data resulting 
# from the CCDC's data processing and validation procedures.
#
#######################################################################

data_WEJKEC
_symmetry_cell_setting           monoclinic
_symmetry_space_group_name_H-M   'P 21/c'
_symmetry_Int_Tables_number      14
_space_group_name_Hall           '-P 2ybc'
loop_
_symmetry_equiv_pos_site_id
_symmetry_equiv_pos_as_xyz
1 x,y,z
2 -x,1/2+y,1/2-z
3 -x,-y,-z
4 x,1/2-y,1/2+z
_cell_length_a                   10.4627(16)
_cell_length_b                   9.8602(14)
_cell_length_c                   13.3477(19)
_cell_angle_alpha                90
_cell_angle_beta                 90.610(2)
_cell_angle_gamma                90
_cell_volume                     1376.93
loop_
_atom_site_label
_atom_site_type_symbol
_atom_site_fract_x
_atom_site_fract_y
_atom_site_fract_z
Cu1 Cu 0.78561(4) -0.02147(4) 0.02001(3)
O1 O 0.6619(2) -0.1711(2) 0.00564(19)
O2 O 0.8617(2) 0.1629(2) 0.0167(2)
O3 O 0.5932(3) -0.2160(3) 0.1602(2)
O4 O 1.0397(2) 0.1438(2) -0.07378(18)
N1 N 0.7255(3) 0.0281(3) 0.1573(2)
H1 H 0.6812 -0.0448 0.1801
N2 N 0.8236(3) -0.0391(3) -0.1274(2)
H2 H 0.9030 -0.0031 -0.1350
C1 C 0.7385(5) 0.0481(6) -0.1853(4)
H3 H 0.7674 0.0526 -0.2533
H4 H 0.7387 0.1375 -0.1568
H5 H 0.6534 0.0118 -0.1842
C2 C 0.8295(4) -0.1750(4) -0.1738(3)
H6 H 0.7451 -0.2127 -0.1780
H7 H 0.8831 -0.2330 -0.1337
H8 H 0.8643 -0.1675 -0.2398
C3 C 0.6325(4) 0.1396(4) 0.1479(3)
H9 H 0.5988 0.1606 0.2127
H10 H 0.5640 0.1126 0.1038
H11 H 0.6740 0.2183 0.1211
C4 C 0.8234(4) 0.0575(5) 0.2332(3)
H12 H 0.8728 0.1344 0.2126
H13 H 0.8784 -0.0198 0.2410
H14 H 0.7831 0.0770 0.2958
C5 C 0.5479(3) -0.4091(4) -0.0679(3)
H15 H 0.5804 -0.3484 -0.1144
C6 C 0.5020(3) -0.4699(4) 0.1002(3)
H16 H 0.5034 -0.4502 0.1683
C7 C 1.0939(3) 0.4201(3) -0.0408(3)
H17 H 1.1576 0.3666 -0.0685
C8 C 0.8856(3) 0.4427(3) 0.0282(3)
H18 H 0.8082 0.4046 0.0472
C9 C 0.9798(3) 0.3612(3) -0.0127(3)
C10 C 0.9609(3) 0.2104(3) -0.0252(3)
C11 C 0.6049(3) -0.2434(4) 0.0718(3)
C12 C 0.5506(3) -0.3758(4) 0.0328(3)
Cu1B Cu 0.21439(4) -0.97853(4) -0.02001(3)
Cu1B_2 Cu 1.21439(4) 0.02147(4) -0.02001(3)
Cu1B_3 Cu 1.21439(4) 1.02147(4) -0.02001(3)
Cu1_2 Cu 0.78561(4) 0.97853(4) 0.02001(3)
O1B O 0.3381(2) -0.8289(2) -0.00564(19)
O2B O 1.1383(2) 0.8371(2) -0.0167(2)
O2B_2 O 0.1383(2) -1.1629(2) -0.0167(2)
O3B O 0.4068(3) -0.7840(3) -0.1602(2)
O4B O 0.9603(2) 0.8562(2) 0.07378(18)
O4B_2 O 0.9603(2) -0.1438(2) 0.07378(18)
O4_2 O 0.0397(2) -0.8562(2) -0.07378(18)
N1B N 0.2745(3) -1.0281(3) -0.1573(2)
H1B H 0.3188 -0.9552 -0.1801
N2B N 0.1764(3) -0.9609(3) 0.1274(2)
H2B H 0.0970 -0.9969 0.1350
C1B C 0.2615(5) -1.0481(6) 0.1853(4)
H3B H 0.2326 -1.0526 0.2533
H4B H 0.2613 -1.1375 0.1568
H5B H 0.3466 -1.0118 0.1842
C2B C 0.1705(4) -0.8250(4) 0.1738(3)
H6B H 0.2549 -0.7873 0.1780
H7B H 0.1169 -0.7670 0.1337
H8B H 0.1357 -0.8325 0.2398
C3B C 0.3675(4) -1.1396(4) -0.1479(3)
H9B H 0.4012 -1.1606 -0.2127
H10B H 0.4360 -1.1126 -0.1038
H11B H 0.3260 -1.2183 -0.1211
C4B C 0.1766(4) -1.0575(5) -0.2332(3)
H12B H 0.1272 -1.1344 -0.2126
H13B H 0.1216 -0.9802 -0.2410
H14B H 0.2169 -1.0770 -0.2958
C5B C 0.4521(3) -0.5909(4) 0.0679(3)
H15B H 0.4196 -0.6516 0.1144
C6B C 0.4980(3) -0.5301(4) -0.1002(3)
H16B H 0.4966 -0.5498 -0.1683
C7B C 0.9061(3) 0.5799(3) 0.0408(3)
H17B H 0.8424 0.6334 0.0685
C8B C 1.1144(3) 0.5573(3) -0.0282(3)
H18B H 1.1918 0.5954 -0.0472
C9B C 1.0202(3) 0.6388(3) 0.0127(3)
C10B C 1.0391(3) 0.7896(3) 0.0252(3)
C11B C 0.3951(3) -0.7566(4) -0.0718(3)
C12B C 0.4494(3) -0.6242(4) -0.0328(3)
loop_
_geom_bond_atom_site_label_1
_geom_bond_atom_site_label_2
_geom_bond_site_symmetry_1
_geom_bond_site_symmetry_2
Cu1 O1 1_555 1_555
O1 C11 1_555 1_555
O2 Cu1 1_555 1_555
O3 C11 1_555 1_555
O4 C10 1_555 1_555
N1 Cu1 1_555 1_555
H1 N1 1_555 1_555
N2 Cu1 1_555 1_555
H2 N2 1_555 1_555
C1 N2 1_555 1_555
H3 C1 1_555 1_555
H4 C1 1_555 1_555
H5 C1 1_555 1_555
C2 N2 1_555 1_555
H6 C2 1_555 1_555
H7 C2 1_555 1_555
H8 C2 1_555 1_555
C3 N1 1_555 1_555
H9 C3 1_555 1_555
H10 C3 1_555 1_555
H11 C3 1_555 1_555
C4 N1 1_555 1_555
H12 C4 1_555 1_555
H13 C4 1_555 1_555
H14 C4 1_555 1_555
C5 H15 1_555 1_555
C6 H16 1_555 1_555
C7 H17 1_555 1_555
C8 H18 1_555 1_555
C9 C7 1_555 1_555
C10 O2 1_555 1_555
C11 C12 1_555 1_555
C12 C5 1_555 1_555
Cu1B O1B 1_555 1_555
Cu1B_2 O4 1_555 1_555
Cu1B_3 O2B 1_555 1_555
Cu1_2 O4B 1_555 1_555
O1B C11B 1_555 1_555
O2B C10B 1_555 1_555
O2B_2 Cu1B 1_555 1_555
O3B C11B 1_555 1_555
O4B C10B 1_555 1_555
O4B_2 Cu1 1_555 1_555
O4_2 Cu1B 1_555 1_555
N1B Cu1B 1_555 1_555
H1B N1B 1_555 1_555
N2B Cu1B 1_555 1_555
H2B N2B 1_555 1_555
C1B N2B 1_555 1_555
H3B C1B 1_555 1_555
H4B C1B 1_555 1_555
H5B C1B 1_555 1_555
C2B N2B 1_555 1_555
H6B C2B 1_555 1_555
H7B C2B 1_555 1_555
H8B C2B 1_555 1_555
C3B N1B 1_555 1_555
H9B C3B 1_555 1_555
H10B C3B 1_555 1_555
H11B C3B 1_555 1_555
C4B N1B 1_555 1_555
H12B C4B 1_555 1_555
H13B C4B 1_555 1_555
H14B C4B 1_555 1_555
C5B C6 1_555 1_555
H15B C5B 1_555 1_555
C6B C5 1_555 1_555
H16B C6B 1_555 1_555
C7B C8 1_555 1_555
H17B C7B 1_555 1_555
C8B C7 1_555 1_555
H18B C8B 1_555 1_555
C9B C7B 1_555 1_555
C10B C9B 1_555 1_555
C11B C12B 1_555 1_555
C12B C5B 1_555 1_555
C6 C12 1_555 1_555
C8 C9 1_555 1_555
C9 C10 1_555 1_555
C6B C12B 1_555 1_555
C8B C9B 1_555 1_555

#END
