
#######################################################################
#
#                 Cambridge Crystallographic Data Centre
#                                CCDC 
#
#######################################################################
#
# If this CIF has been generated from an entry in the Cambridge 
# Structural Database, then it will include bibliographic, chemical, 
# crystal, experimental, refinement or atomic coordinate data resulting 
# from the CCDC's data processing and validation procedures.
#
#######################################################################

data_WEJMEE
_symmetry_cell_setting           monoclinic
_symmetry_space_group_name_H-M   'P 21/c'
_symmetry_Int_Tables_number      14
_space_group_name_Hall           '-P 2ybc'
loop_
_symmetry_equiv_pos_site_id
_symmetry_equiv_pos_as_xyz
1 x,y,z
2 -x,1/2+y,1/2-z
3 -x,-y,-z
4 x,1/2-y,1/2+z
_cell_length_a                   14.7217(5)
_cell_length_b                   13.7581(5)
_cell_length_c                   10.5960(4)
_cell_angle_alpha                90
_cell_angle_beta                 95.6470(10)
_cell_angle_gamma                90
_cell_volume                     2135.73
loop_
_atom_site_label
_atom_site_type_symbol
_atom_site_fract_x
_atom_site_fract_y
_atom_site_fract_z
Pb1 Pb 0.5000 0.5000 0.5000
Pb2 Pb 0.48919(2) 0.83516(3) 0.34231(3)
S1 S 0.5479(2) 0.64837(18) 0.3139(3)
C1 C 0.6662(7) 0.6580(6) 0.3398(9)
C2 C 0.7211(9) 0.6009(8) 0.2709(10)
C3 C 0.8152(10) 0.6078(10) 0.2843(12)
C4 C 0.8573(8) 0.6744(10) 0.3658(13)
C5 C 0.8056(8) 0.7317(8) 0.4379(10)
C6 C 0.7127(8) 0.7239(7) 0.4252(9)
F1 F 0.6822(6) 0.5361(5) 0.1889(7)
F2 F 0.8639(6) 0.5513(7) 0.2147(8)
F3 F 0.9481(5) 0.6837(7) 0.3774(9)
F4 F 0.8453(6) 0.7980(6) 0.5190(7)
F5 F 0.6630(4) 0.7838(4) 0.4935(5)
S2 S 0.37825(17) 0.38874(16) 0.3029(2)
C7 C 0.2967(6) 0.4544(6) 0.2072(7)
C8 C 0.3179(7) 0.5166(6) 0.1106(9)
C9 C 0.2523(8) 0.5694(7) 0.0385(8)
C10 C 0.1621(8) 0.5592(8) 0.0598(10)
C11 C 0.1372(7) 0.4989(8) 0.1537(10)
C12 C 0.2045(7) 0.4465(7) 0.2246(9)
F6 F 0.4050(4) 0.5277(5) 0.0852(6)
F7 F 0.2756(5) 0.6314(5) -0.0517(6)
F8 F 0.0978(5) 0.6118(6) -0.0091(7)
F9 F 0.0496(5) 0.4888(7) 0.1736(9)
F10 F 0.1785(4) 0.3855(5) 0.3135(6)
S3 S 0.59071(16) 0.32156(18) 0.3998(2)
C13 C 0.7067(6) 0.3294(6) 0.3796(8)
C14 C 0.7485(7) 0.2704(7) 0.2951(8)
C15 C 0.8393(7) 0.2720(8) 0.2827(9)
C16 C 0.8951(7) 0.3338(8) 0.3560(10)
C17 C 0.8580(7) 0.3956(8) 0.4399(10)
C18 C 0.7655(8) 0.3925(7) 0.4496(9)
F11 F 0.6950(4) 0.2074(4) 0.2208(5)
F12 F 0.8759(5) 0.2129(6) 0.2004(6)
F13 F 0.9836(4) 0.3380(6) 0.3450(7)
F14 F 0.9098(5) 0.4585(6) 0.5100(8)
F15 F 0.7298(5) 0.4535(5) 0.5323(6)
Pb2B Pb 0.51081(2) 0.16484(3) 0.65769(3)
Pb2A Pb 0.51081(2) 0.33516(3) 0.15769(3)
Pb2C Pb 0.48919(2) 0.66484(3) 0.84231(3)
S1B S 0.4521(2) 0.35163(18) 0.6861(3)
C1B C 0.3338(7) 0.3420(6) 0.6602(9)
C2B C 0.2789(9) 0.3991(8) 0.7291(10)
C3B C 0.1848(10) 0.3922(10) 0.7157(12)
C4B C 0.1427(8) 0.3256(10) 0.6342(13)
C5B C 0.1944(8) 0.2683(8) 0.5621(10)
C6B C 0.2873(8) 0.2761(7) 0.5748(9)
F1B F 0.3178(6) 0.4639(5) 0.8111(7)
F2B F 0.1361(6) 0.4487(7) 0.7853(8)
F3B F 0.0519(5) 0.3163(7) 0.6226(9)
F4B F 0.1547(6) 0.2020(6) 0.4810(7)
F5B F 0.3370(4) 0.2162(4) 0.5065(5)
S2B S 0.62175(17) 0.61126(16) 0.6971(2)
S2A S 0.62175(17) 0.88874(16) 0.1971(2)
S2C S 0.37825(17) 0.11126(16) 0.8029(2)
C7B C 0.7033(6) 0.5456(6) 0.7928(7)
C8B C 0.6821(7) 0.4834(6) 0.8894(9)
C9B C 0.7477(8) 0.4306(7) 0.9615(8)
C10B C 0.8379(8) 0.4408(8) 0.9402(10)
C11B C 0.8628(7) 0.5011(8) 0.8463(10)
C12B C 0.7955(7) 0.5535(7) 0.7754(9)
F6B F 0.5950(4) 0.4723(5) 0.9148(6)
F7B F 0.7244(5) 0.3686(5) 1.0517(6)
F8B F 0.9022(5) 0.3882(6) 1.0091(7)
F9B F 0.9504(5) 0.5112(7) 0.8264(9)
F10B F 0.8215(4) 0.6145(5) 0.6865(6)
S3B S 0.40929(16) 0.67844(18) 0.6002(2)
S3A S 0.40929(16) 0.82156(18) 0.1002(2)
S3C S 0.59071(16) 0.17844(18) 0.8998(2)
C13B C 0.2933(6) 0.6706(6) 0.6204(8)
C14B C 0.2515(7) 0.7296(7) 0.7049(8)
C15B C 0.1607(7) 0.7280(8) 0.7173(9)
C16B C 0.1049(7) 0.6662(8) 0.6440(10)
C17B C 0.1420(7) 0.6044(8) 0.5601(10)
C18B C 0.2345(8) 0.6075(7) 0.5504(9)
F11B F 0.3050(4) 0.7926(4) 0.7792(5)
F12B F 0.1241(5) 0.7871(6) 0.7996(6)
F13B F 0.0164(4) 0.6620(6) 0.6550(7)
F14B F 0.0902(5) 0.5415(6) 0.4900(8)
F15B F 0.2702(5) 0.5465(5) 0.4677(6)
loop_
_geom_bond_atom_site_label_1
_geom_bond_atom_site_label_2
_geom_bond_site_symmetry_1
_geom_bond_site_symmetry_2
Pb1 S1 1_555 1_555
Pb2 S1 1_555 1_555
S1 C1 1_555 1_555
C1 C2 1_555 1_555
C2 C3 1_555 1_555
C3 C4 1_555 1_555
C4 C5 1_555 1_555
C5 C6 1_555 1_555
C6 C1 1_555 1_555
F1 C2 1_555 1_555
F2 C3 1_555 1_555
F3 C4 1_555 1_555
F4 C5 1_555 1_555
F5 C6 1_555 1_555
S2 Pb1 1_555 1_555
C7 S2 1_555 1_555
C8 C7 1_555 1_555
C9 C8 1_555 1_555
C10 C9 1_555 1_555
C11 C10 1_555 1_555
C12 C7 1_555 1_555
F6 C8 1_555 1_555
F7 C9 1_555 1_555
F8 C10 1_555 1_555
F9 C11 1_555 1_555
F10 C12 1_555 1_555
S3 Pb1 1_555 1_555
C13 S3 1_555 1_555
C14 C13 1_555 1_555
C15 C14 1_555 1_555
C16 C15 1_555 1_555
C17 C16 1_555 1_555
C18 C13 1_555 1_555
F11 C14 1_555 1_555
F12 C15 1_555 1_555
F13 C16 1_555 1_555
F14 C17 1_555 1_555
F15 C18 1_555 1_555
Pb2B S1B 1_555 1_555
Pb2A S2 1_555 1_555
Pb2C S2B 1_555 1_555
S1B Pb1 1_555 1_555
C1B S1B 1_555 1_555
C2B C1B 1_555 1_555
C3B C2B 1_555 1_555
C4B C3B 1_555 1_555
C5B C4B 1_555 1_555
C6B C1B 1_555 1_555
F1B C2B 1_555 1_555
F2B C3B 1_555 1_555
F3B C4B 1_555 1_555
F4B C5B 1_555 1_555
F5B C6B 1_555 1_555
S2B Pb1 1_555 1_555
S2A Pb2 1_555 1_555
S2C Pb2B 1_555 1_555
C7B S2B 1_555 1_555
C8B C7B 1_555 1_555
C9B C8B 1_555 1_555
C10B C9B 1_555 1_555
C11B C10B 1_555 1_555
C12B C7B 1_555 1_555
F6B C8B 1_555 1_555
F7B C9B 1_555 1_555
F8B C10B 1_555 1_555
F9B C11B 1_555 1_555
F10B C12B 1_555 1_555
S3B Pb1 1_555 1_555
S3A Pb2 1_555 1_555
S3C Pb2B 1_555 1_555
C13B S3B 1_555 1_555
C14B C13B 1_555 1_555
C15B C14B 1_555 1_555
C16B C15B 1_555 1_555
C17B C16B 1_555 1_555
C18B C13B 1_555 1_555
F11B C14B 1_555 1_555
F12B C15B 1_555 1_555
F13B C16B 1_555 1_555
F14B C17B 1_555 1_555
F15B C18B 1_555 1_555
C11 C12 1_555 1_555
S3 Pb2A 1_555 1_555
C17 C18 1_555 1_555
Pb2C S3B 1_555 1_555
C5B C6B 1_555 1_555
C11B C12B 1_555 1_555
C17B C18B 1_555 1_555

#END
