
#######################################################################
#
#                 Cambridge Crystallographic Data Centre
#                                CCDC 
#
#######################################################################
#
# If this CIF has been generated from an entry in the Cambridge 
# Structural Database, then it will include bibliographic, chemical, 
# crystal, experimental, refinement or atomic coordinate data resulting 
# from the CCDC's data processing and validation procedures.
#
#######################################################################

data_WEJPIK01
_symmetry_cell_setting           monoclinic
_symmetry_space_group_name_H-M   'C 2/c'
_symmetry_Int_Tables_number      15
_space_group_name_Hall           '-C 2yn'
loop_
_symmetry_equiv_pos_site_id
_symmetry_equiv_pos_as_xyz
1 x,y,z
2 1/2+x,1/2+y,z
3 x,-y,1/2+z
4 1/2+x,1/2-y,1/2+z
5 -x,-y,-z
6 1/2-x,1/2-y,-z
7 -x,y,1/2-z
8 1/2-x,1/2+y,1/2-z
_cell_length_a                   18.320(4)
_cell_length_b                   9.817(2)
_cell_length_c                   7.4830(15)
_cell_angle_alpha                90
_cell_angle_beta                 107.86(3)
_cell_angle_gamma                90
_cell_volume                     1280.94
loop_
_atom_site_label
_atom_site_type_symbol
_atom_site_fract_x
_atom_site_fract_y
_atom_site_fract_z
Cu1 Cu 0.5000 0.43042(7) 0.2500
Br1 Br 0.41803(3) 0.60362(5) 0.06040(8)
N1 N 0.43384(18) 0.2715(4) 0.1202(5)
C1 C 0.4617(2) 0.1457(4) 0.1777(6)
C2 C 0.4204(2) 0.0289(5) 0.1089(7)
H1 H 0.441(3) -0.054(6) 0.155(8)
C3 C 0.3484(2) 0.0372(4) -0.0228(6)
C4 C 0.3220(3) 0.1661(5) -0.0831(7)
H2 H 0.280(3) 0.176(6) -0.168(8)
C5 C 0.3655(3) 0.2790(5) -0.0117(7)
H3 H 0.348(3) 0.366(5) -0.046(7)
C6 C 0.3006(3) -0.0875(6) -0.0941(10)
H4 H 0.276(4) -0.079(6) -0.211(11)
H5 H 0.260(5) -0.090(7) -0.056(12)
H6 H 0.324(5) -0.162(10) -0.058(14)
C1F C 0.5383(2) 0.1457(4) 0.3223(6)
N1F N 0.56616(18) 0.2715(4) 0.3798(5)
C5F C 0.6345(3) 0.2790(5) 0.5117(7)
C4F C 0.6780(3) 0.1661(5) 0.5831(7)
C3F C 0.6516(2) 0.0372(4) 0.5228(6)
C2F C 0.5796(2) 0.0289(5) 0.3911(7)
H1F H 0.559(3) -0.054(6) 0.345(8)
C6F C 0.6994(3) -0.0875(6) 0.5941(10)
H4F H 0.724(4) -0.079(6) 0.711(11)
H5F H 0.740(5) -0.090(7) 0.556(12)
H6F H 0.676(5) -0.162(10) 0.558(14)
H2F H 0.720(3) 0.176(6) 0.668(8)
H3F H 0.652(3) 0.366(5) 0.546(7)
Br1B Br 0.41803(3) 0.39638(5) 0.56040(8)
Br1D Br 0.58197(3) 0.39638(5) -0.06040(8)
Br1F Br 0.58197(3) 0.60362(5) 0.43960(8)
Cu1B Cu 0.5000 0.56958(7) -0.2500
Cu1B_2 Cu 0.5000 0.56958(7) 0.7500
loop_
_geom_bond_atom_site_label_1
_geom_bond_atom_site_label_2
_geom_bond_site_symmetry_1
_geom_bond_site_symmetry_2
Cu1 Br1 1_555 1_555
Br1 Cu1B 1_555 1_555
N1 Cu1 1_555 1_555
C1 N1 1_555 1_555
C2 C1 1_555 1_555
H1 C2 1_555 1_555
C3 C2 1_555 1_555
C4 C3 1_555 1_555
H2 C4 1_555 1_555
C5 N1 1_555 1_555
H3 C5 1_555 1_555
C6 C3 1_555 1_555
H4 C6 1_555 1_555
H5 C6 1_555 1_555
H6 C6 1_555 1_555
C1F C1 1_555 1_555
N1F Cu1 1_555 1_555
C5F N1F 1_555 1_555
C4F C5F 1_555 1_555
C3F C4F 1_555 1_555
C2F C1F 1_555 1_555
H1F C2F 1_555 1_555
C6F C3F 1_555 1_555
H4F C6F 1_555 1_555
H5F C6F 1_555 1_555
H6F C6F 1_555 1_555
H2F C4F 1_555 1_555
H3F C5F 1_555 1_555
Br1B Cu1 1_555 1_555
Br1D Cu1 1_555 1_555
Br1F Cu1 1_555 1_555
Cu1B Br1D 1_555 1_555
Cu1B_2 Br1B 1_555 1_555
C4 C5 1_555 1_555
C1F N1F 1_555 1_555
C3F C2F 1_555 1_555
Br1F Cu1B_2 1_555 1_555

#END
