
#######################################################################
#
#                 Cambridge Crystallographic Data Centre
#                                CCDC 
#
#######################################################################
#
# If this CIF has been generated from an entry in the Cambridge 
# Structural Database, then it will include bibliographic, chemical, 
# crystal, experimental, refinement or atomic coordinate data resulting 
# from the CCDC's data processing and validation procedures.
#
#######################################################################

data_WEJTUB
_symmetry_cell_setting           monoclinic
_symmetry_space_group_name_H-M   'P 21/c'
_symmetry_Int_Tables_number      14
_space_group_name_Hall           '-P 2ybc'
loop_
_symmetry_equiv_pos_site_id
_symmetry_equiv_pos_as_xyz
1 x,y,z
2 -x,1/2+y,1/2-z
3 -x,-y,-z
4 x,1/2-y,1/2+z
_cell_length_a                   20.868(3)
_cell_length_b                   11.2548(13)
_cell_length_c                   19.991(2)
_cell_angle_alpha                90
_cell_angle_beta                 98.217(2)
_cell_angle_gamma                90
_cell_volume                     4646.99
loop_
_atom_site_label
_atom_site_type_symbol
_atom_site_fract_x
_atom_site_fract_y
_atom_site_fract_z
Pt1 Pt 0.498201(9) 1.230530(19) 0.254481(9)
Pt2 Pt 0.996030(9) 1.362460(18) 0.247600(10)
Ag1 Ag 0.492914(19) 0.97947(3) 0.282530(19)
Ag2 Ag 0.98491(2) 1.11346(3) 0.25090(2)
N1 N 0.4312(2) 1.1996(4) 0.1738(2)
H1 H 0.4222 1.2593 0.1456
N2 N 0.5716(2) 1.1989(4) 0.2019(2)
H2 H 0.5914 1.1300 0.2087
N3 N 0.5605(2) 1.2695(4) 0.3413(2)
H3 H 0.5906 1.2099 0.3504
H4 H 0.5820 1.3394 0.3358
N4 N 0.4277(2) 1.2713(4) 0.3125(2)
H5 H 0.3955 1.3153 0.2877
H6 H 0.4096 1.2028 0.3265
N5 N 1.0268(2) 1.3431(4) 0.1571(2)
N6 N 1.0874(2) 1.3407(4) 0.2941(2)
H7 H 1.1131 1.3760 0.2660
N7 N 0.9581(2) 1.3844(4) 0.3361(3)
H8 H 0.9555 1.3119 0.3568
H9 H 0.9848 1.4327 0.3649
N8 N 0.9019(2) 1.3943(4) 0.2044(3)
H10 H 0.8988 1.4690 0.1856
H11 H 0.8897 1.3398 0.1707
O1 O 0.4133(2) 1.0056(3) 0.1911(2)
O2 O 0.5653(2) 1.3705(3) 0.1427(2)
O3 O 1.00125(19) 1.1479(3) 0.13662(19)
O4 O 1.0890(2) 1.1416(3) 0.3122(2)
O5 O 0.58894(18) 1.0066(3) 0.3561(2)
O6 O 0.6321(2) 0.9636(3) 0.26339(19)
O7 O 0.9250(2) 1.1217(4) 0.3447(3)
O8 O 0.8598(2) 1.0713(4) 0.2514(3)
C1 C 0.3995(3) 1.1016(4) 0.1586(3)
C2 C 0.3444(3) 1.0995(5) 0.0989(3)
C3 C 0.3753(5) 1.0842(10) 0.0339(4)
H12 H 0.3421 1.0939 -0.0056
H13 H 0.3944 1.0047 0.0332
H14 H 0.4092 1.1442 0.0327
C4 C 0.2983(5) 0.9993(9) 0.1061(7)
H15 H 0.2786 1.0108 0.1473
H16 H 0.3219 0.9238 0.1089
H17 H 0.2644 0.9980 0.0668
C5 C 0.3075(4) 1.2146(6) 0.0902(4)
H18 H 0.2694 1.2048 0.0558
H19 H 0.3354 1.2769 0.0759
H20 H 0.2936 1.2372 0.1332
C6 C 0.5928(3) 1.2714(4) 0.1585(3)
C7 C 0.6520(3) 1.2389(4) 0.1254(3)
C8 C 0.6405(4) 1.2770(7) 0.0515(4)
H21 H 0.6029 1.2346 0.0279
H22 H 0.6789 1.2581 0.0303
H23 H 0.6325 1.3627 0.0487
C9 C 0.7083(3) 1.3103(8) 0.1625(5)
H24 H 0.6986 1.3953 0.1577
H25 H 0.7478 1.2926 0.1430
H26 H 0.7147 1.2888 0.2105
C10 C 0.6693(4) 1.1074(5) 0.1280(4)
H27 H 0.6750 1.0800 0.1750
H28 H 0.7097 1.0955 0.1091
H29 H 0.6345 1.0621 0.1014
C11 C 0.4580(3) 1.3406(5) 0.3717(3)
H30 H 0.4295 1.3414 0.4072
H31 H 0.4655 1.4236 0.3584
C12 C 0.5219(3) 1.2810(5) 0.3980(3)
H32 H 0.5460 1.3292 0.4347
H33 H 0.5139 1.2015 0.4163
C13 C 1.1174(3) 1.2408(4) 0.3138(3)
C14 C 1.1914(3) 1.2429(4) 0.3385(3)
C15 C 1.2242(3) 1.2221(6) 0.2761(4)
H34 H 1.2110 1.2844 0.2427
H35 H 1.2113 1.1443 0.2566
H36 H 1.2713 1.2242 0.2889
C16 C 1.2140(3) 1.3607(5) 0.3726(4)
H37 H 1.2608 1.3577 0.3873
H38 H 1.1917 1.3736 0.4120
H39 H 1.2039 1.4261 0.3405
C17 C 1.2098(3) 1.1424(6) 0.3901(3)
H40 H 1.2567 1.1431 0.4044
H41 H 1.1969 1.0657 0.3691
H42 H 1.1875 1.1546 0.4295
C18 C 1.0246(3) 1.2464(4) 0.1203(3)
C19 C 1.0532(4) 1.2518(5) 0.0536(3)
C20 C 1.0450(7) 1.1383(9) 0.0152(5)
H43 H 0.9987 1.1221 0.0022
H44 H 1.0648 1.0734 0.0435
H45 H 1.0659 1.1447 -0.0255
C21 C 1.1319(5) 1.2504(10) 0.0747(5)
H46 H 1.1442 1.1839 0.1055
H47 H 1.1459 1.3252 0.0973
H48 H 1.1527 1.2412 0.0340
C22 C 1.0396(7) 1.3619(10) 0.0154(6)
H49 H 1.0541 1.3541 -0.0289
H50 H 1.0625 1.4279 0.0402
H51 H 0.9929 1.3775 0.0092
C23 C 0.8927(3) 1.4382(5) 0.3217(3)
H52 H 0.8963 1.5255 0.3174
H53 H 0.8676 1.4208 0.3590
C24 C 0.8591(3) 1.3853(5) 0.2560(3)
H54 H 0.8484 1.3009 0.2630
H55 H 0.8183 1.4286 0.2410
C25 C 0.6367(2) 0.9963(4) 0.3241(3)
C26 C 0.7027(3) 1.0331(5) 0.3596(3)
C27 C 0.7541(3) 1.0423(4) 0.3231(3)
H56 H 0.7481 1.0218 0.2766
C28 C 0.8147(3) 1.0813(5) 0.3538(3)
C29 C 0.8703(3) 1.0914(5) 0.3132(4)
C30 C 0.8223(3) 1.1092(7) 0.4227(4)
H57 H 0.8630 1.1370 0.4444
C31 C 0.7723(3) 1.0974(8) 0.4593(4)
H58 H 0.7788 1.1149 0.5062
C32 C 0.7118(3) 1.0597(6) 0.4281(3)
H59 H 0.6769 1.0522 0.4535
Pt1A Pt 0.501799(9) 0.730530(19) 0.245519(9)
Pt2A Pt 1.003970(9) 0.862460(18) 0.252400(10)
Ag1A Ag 0.507086(19) 1.47947(3) 0.217470(19)
Ag2A Ag 1.01509(2) 1.61346(3) 0.24910(2)
O2A O 0.4347(2) 0.8705(3) 0.3573(2)
O9 O 0.8621(2) 0.1800(3) 0.1216(2)
O10 O 0.5474(3) 0.8945(5) 0.4643(3)
O11 O 0.3919(2) 0.0859(3) 0.3999(2)
loop_
_geom_bond_atom_site_label_1
_geom_bond_atom_site_label_2
_geom_bond_site_symmetry_1
_geom_bond_site_symmetry_2
Pt1 Ag1 1_555 1_555
Pt2 Ag2 1_555 1_555
Ag1 O1 1_555 1_555
Ag2 O3 1_555 1_555
N1 Pt1 1_555 1_555
H1 N1 1_555 1_555
N2 Pt1 1_555 1_555
H2 N2 1_555 1_555
N3 Pt1 1_555 1_555
H3 N3 1_555 1_555
H4 N3 1_555 1_555
N4 Pt1 1_555 1_555
H5 N4 1_555 1_555
H6 N4 1_555 1_555
N5 Pt2 1_555 1_555
N6 Pt2 1_555 1_555
H7 N6 1_555 1_555
N7 Pt2 1_555 1_555
H8 N7 1_555 1_555
H9 N7 1_555 1_555
N8 Pt2 1_555 1_555
H10 N8 1_555 1_555
H11 N8 1_555 1_555
O1 C1 1_555 1_555
O2 C6 1_555 1_555
O3 C18 1_555 1_555
O4 Ag2 1_555 1_555
O5 Ag1 1_555 1_555
O6 C25 1_555 1_555
O7 Ag2 1_555 1_555
O8 C29 1_555 1_555
C1 N1 1_555 1_555
C2 C1 1_555 1_555
C3 C2 1_555 1_555
H12 C3 1_555 1_555
H13 C3 1_555 1_555
H14 C3 1_555 1_555
C4 C2 1_555 1_555
H15 C4 1_555 1_555
H16 C4 1_555 1_555
H17 C4 1_555 1_555
C5 C2 1_555 1_555
H18 C5 1_555 1_555
H19 C5 1_555 1_555
H20 C5 1_555 1_555
C6 N2 1_555 1_555
C7 C6 1_555 1_555
C8 C7 1_555 1_555
H21 C8 1_555 1_555
H22 C8 1_555 1_555
H23 C8 1_555 1_555
C9 C7 1_555 1_555
H24 C9 1_555 1_555
H25 C9 1_555 1_555
H26 C9 1_555 1_555
C10 C7 1_555 1_555
H27 C10 1_555 1_555
H28 C10 1_555 1_555
H29 C10 1_555 1_555
C11 N4 1_555 1_555
H30 C11 1_555 1_555
H31 C11 1_555 1_555
C12 N3 1_555 1_555
H32 C12 1_555 1_555
H33 C12 1_555 1_555
C13 N6 1_555 1_555
C14 C13 1_555 1_555
C15 C14 1_555 1_555
H34 C15 1_555 1_555
H35 C15 1_555 1_555
H36 C15 1_555 1_555
C16 C14 1_555 1_555
H37 C16 1_555 1_555
H38 C16 1_555 1_555
H39 C16 1_555 1_555
C17 C14 1_555 1_555
H40 C17 1_555 1_555
H41 C17 1_555 1_555
H42 C17 1_555 1_555
C18 N5 1_555 1_555
C19 C18 1_555 1_555
C20 C19 1_555 1_555
H43 C20 1_555 1_555
H44 C20 1_555 1_555
H45 C20 1_555 1_555
C21 C19 1_555 1_555
H46 C21 1_555 1_555
H47 C21 1_555 1_555
H48 C21 1_555 1_555
C22 C19 1_555 1_555
H49 C22 1_555 1_555
H50 C22 1_555 1_555
H51 C22 1_555 1_555
C23 N7 1_555 1_555
H52 C23 1_555 1_555
H53 C23 1_555 1_555
C24 N8 1_555 1_555
H54 C24 1_555 1_555
H55 C24 1_555 1_555
C25 O5 1_555 1_555
C26 C25 1_555 1_555
C27 C26 1_555 1_555
H56 C27 1_555 1_555
C28 C27 1_555 1_555
C29 O7 1_555 1_555
C30 C28 1_555 1_555
H57 C30 1_555 1_555
C31 C30 1_555 1_555
H58 C31 1_555 1_555
C32 C26 1_555 1_555
H59 C32 1_555 1_555
Pt1A Ag1 1_555 1_555
Pt2A Ag2 1_555 1_555
Ag1A Pt1 1_555 1_555
Ag2A Pt2 1_555 1_555
O2A Ag1 1_555 1_555
O2 Ag1A 1_555 1_555
O4 C13 1_555 1_555
C11 C12 1_555 1_555
C23 C24 1_555 1_555
C28 C29 1_555 1_555
C31 C32 1_555 1_555

#END
