
#######################################################################
#
#                 Cambridge Crystallographic Data Centre
#                                CCDC 
#
#######################################################################
#
# If this CIF has been generated from an entry in the Cambridge 
# Structural Database, then it will include bibliographic, chemical, 
# crystal, experimental, refinement or atomic coordinate data resulting 
# from the CCDC's data processing and validation procedures.
#
#######################################################################

data_WEJTOV
_symmetry_cell_setting           monoclinic
_symmetry_space_group_name_H-M   'P 21/c'
_symmetry_Int_Tables_number      14
_space_group_name_Hall           '-P 2ybc'
loop_
_symmetry_equiv_pos_site_id
_symmetry_equiv_pos_as_xyz
1 x,y,z
2 -x,1/2+y,1/2-z
3 -x,-y,-z
4 x,1/2-y,1/2+z
_cell_length_a                   24.233(4)
_cell_length_b                   11.1380(19)
_cell_length_c                   15.983(3)
_cell_angle_alpha                90
_cell_angle_beta                 94.223(3)
_cell_angle_gamma                90
_cell_volume                     4302.21
loop_
_atom_site_label
_atom_site_type_symbol
_atom_site_fract_x
_atom_site_fract_y
_atom_site_fract_z
Pt1 Pt 0.50146(3) 0.13161(5) 0.75729(4)
Pt2 Pt -0.00090(3) 0.13937(6) 0.74277(5)
Ag1 Ag 0.48926(5) -0.11701(11) 0.74739(8)
Ag2 Ag 0.01091(5) -0.10835(11) 0.75208(10)
N1 N 0.5362(6) 0.1152(15) 0.6481(9)
H1 H 0.5082 0.1265 0.6068
N2 N 0.5754(6) 0.1082(14) 0.8196(9)
H2 H 0.6012 0.1306 0.7831
N3 N 0.4665(6) 0.1559(13) 0.8693(9)
H3 H 0.4528 0.2318 0.8716
H4 H 0.4926 0.1446 0.9124
H5 H 0.4386 0.1021 0.8734
N4 N 0.4248(6) 0.1621(15) 0.6918(9)
H6 H 0.4253 0.2344 0.6654
H7 H 0.3977 0.1621 0.7285
H8 H 0.4179 0.1030 0.6532
N5 N -0.0367(7) 0.1136(13) 0.8515(10)
H9 H -0.0606 0.1773 0.8554
N6 N -0.0743(6) 0.1089(14) 0.6802(10)
H10 H -0.0967 0.1710 0.6739
N7 N 0.0738(6) 0.1699(15) 0.8088(10)
H11 H 0.0746 0.1307 0.8588
H12 H 0.0781 0.2501 0.8180
H13 H 0.1017 0.1425 0.7787
N8 N 0.0329(7) 0.1643(15) 0.6299(10)
H14 H 0.0059 0.1578 0.5874
H15 H 0.0593 0.1075 0.6235
H16 H 0.0485 0.2385 0.6287
O1 O 0.5642(5) -0.0865(12) 0.8574(7)
O2 O 0.5611(5) -0.0802(12) 0.6577(7)
O3 O -0.0609(5) -0.0843(13) 0.8408(8)
O4 O -0.0646(5) -0.0891(12) 0.6432(8)
O5 O 0.3974(5) -0.1291(11) 0.7277(7)
O6 O 0.3883(5) -0.0480(14) 0.8551(8)
O7 O 0.1027(6) -0.1266(14) 0.7724(9)
O8 O 0.1115(6) -0.0504(17) 0.6453(9)
C1 C 0.5648(7) 0.0200(14) 0.6245(11)
C2 C 0.6025(7) 0.0333(16) 0.5521(10)
C3 C 0.5699(8) 0.087(2) 0.4735(11)
H17 H 0.5932 0.0860 0.4260
H18 H 0.5594 0.1701 0.4852
H19 H 0.5365 0.0394 0.4598
C4 C 0.6254(11) -0.085(3) 0.5294(16)
H20 H 0.6470 -0.1189 0.5781
H21 H 0.6492 -0.0752 0.4830
H22 H 0.5949 -0.1399 0.5123
C5 C 0.6499(7) 0.124(2) 0.5804(13)
H23 H 0.6695 0.0950 0.6324
H24 H 0.6340 0.2029 0.5900
H25 H 0.6759 0.1297 0.5364
C6 C 0.5937(8) 0.0076(16) 0.8534(11)
C7 C 0.6551(8) 0.0002(18) 0.8869(13)
C8 C 0.6884(10) -0.029(3) 0.8189(16)
H26 H 0.7228 -0.0675 0.8411
H27 H 0.6971 0.0445 0.7890
H28 H 0.6679 -0.0841 0.7802
C9 C 0.6776(10) 0.119(2) 0.9179(19)
H29 H 0.7150 0.1081 0.9448
H30 H 0.6535 0.1526 0.9587
H31 H 0.6791 0.1746 0.8705
C10 C 0.6615(10) -0.088(3) 0.9602(16)
H32 H 0.6414 -0.1624 0.9450
H33 H 0.6463 -0.0524 1.0096
H34 H 0.7008 -0.1063 0.9730
C11 C -0.0646(7) 0.0186(19) 0.8758(11)
C12 C -0.1020(8) 0.037(2) 0.9497(12)
C13 C -0.0699(9) 0.083(2) 1.0268(12)
H35 H -0.0422 0.0234 1.0465
H36 H -0.0952 0.0978 1.0708
H37 H -0.0514 0.1581 1.0135
C14 C -0.1285(11) -0.088(2) 0.9682(15)
H38 H -0.1496 -0.1169 0.9176
H39 H -0.1533 -0.0789 1.0136
H40 H -0.0992 -0.1453 0.9851
C15 C -0.1485(10) 0.121(2) 0.9211(15)
H41 H -0.1331 0.1991 0.9063
H42 H -0.1731 0.1322 0.9666
H43 H -0.1696 0.0873 0.8720
C16 C -0.0931(8) 0.007(2) 0.6473(13)
C17 C -0.1548(8) 0.000(2) 0.6105(13)
C18 C -0.1613(10) -0.091(3) 0.5411(16)
H44 H -0.2002 -0.0943 0.5195
H45 H -0.1497 -0.1698 0.5628
H46 H -0.1384 -0.0676 0.4958
C19 C -0.1740(13) 0.121(3) 0.573(2)
H47 H -0.1754 0.1807 0.6180
H48 H -0.2109 0.1121 0.5443
H49 H -0.1480 0.1481 0.5329
C20 C -0.1865(10) -0.062(3) 0.6835(18)
H50 H -0.1729 -0.0286 0.7379
H51 H -0.1798 -0.1487 0.6831
H52 H -0.2263 -0.0466 0.6741
C21 C 0.3687(8) -0.0887(18) 0.7854(11)
C22 C 0.3068(7) -0.0868(17) 0.7667(11)
C23 C 0.2724(8) -0.088(2) 0.8320(12)
H53 H 0.2876 -0.0862 0.8885
C24 C 0.2156(8) -0.092(2) 0.8143(12)
H54 H 0.1923 -0.0955 0.8595
C25 C 0.1919(7) -0.0906(17) 0.7329(12)
C26 C 0.1303(7) -0.0894(17) 0.7146(10)
C27 C 0.2273(8) -0.086(2) 0.6680(12)
H55 H 0.2122 -0.0819 0.6115
C28 C 0.2845(7) -0.0880(19) 0.6846(12)
H56 H 0.3081 -0.0902 0.6397
Pt1A Pt 0.49854(3) -0.36839(5) 0.74271(4)
Pt2A Pt 0.00090(3) -0.36063(6) 0.75723(5)
Ag1A Ag 0.51074(5) 0.38299(11) 0.75261(8)
Ag2A Ag -0.01091(5) 0.39165(11) 0.74792(10)
O9 O 0.9781(6) 0.3575(14) 0.9565(9)
O10 O 0.4773(5) 0.6376(12) 0.4560(8)
loop_
_geom_bond_atom_site_label_1
_geom_bond_atom_site_label_2
_geom_bond_site_symmetry_1
_geom_bond_site_symmetry_2
Pt1 Ag1 1_555 1_555
Pt2 Ag2 1_555 1_555
Ag1 O1 1_555 1_555
Ag2 O3 1_555 1_555
N1 Pt1 1_555 1_555
H1 N1 1_555 1_555
N2 Pt1 1_555 1_555
H2 N2 1_555 1_555
N3 Pt1 1_555 1_555
H3 N3 1_555 1_555
H4 N3 1_555 1_555
H5 N3 1_555 1_555
N4 Pt1 1_555 1_555
H6 N4 1_555 1_555
H7 N4 1_555 1_555
H8 N4 1_555 1_555
N5 Pt2 1_555 1_555
H9 N5 1_555 1_555
N6 Pt2 1_555 1_555
H10 N6 1_555 1_555
N7 Pt2 1_555 1_555
H11 N7 1_555 1_555
H12 N7 1_555 1_555
H13 N7 1_555 1_555
N8 Pt2 1_555 1_555
H14 N8 1_555 1_555
H15 N8 1_555 1_555
H16 N8 1_555 1_555
O1 C6 1_555 1_555
O2 Ag1 1_555 1_555
O3 C11 1_555 1_555
O4 Ag2 1_555 1_555
O5 Ag1 1_555 1_555
O6 C21 1_555 1_555
O7 Ag2 1_555 1_555
O8 C26 1_555 1_555
C1 N1 1_555 1_555
C2 C1 1_555 1_555
C3 C2 1_555 1_555
H17 C3 1_555 1_555
H18 C3 1_555 1_555
H19 C3 1_555 1_555
C4 C2 1_555 1_555
H20 C4 1_555 1_555
H21 C4 1_555 1_555
H22 C4 1_555 1_555
C5 C2 1_555 1_555
H23 C5 1_555 1_555
H24 C5 1_555 1_555
H25 C5 1_555 1_555
C6 N2 1_555 1_555
C7 C6 1_555 1_555
C8 C7 1_555 1_555
H26 C8 1_555 1_555
H27 C8 1_555 1_555
H28 C8 1_555 1_555
C9 C7 1_555 1_555
H29 C9 1_555 1_555
H30 C9 1_555 1_555
H31 C9 1_555 1_555
C10 C7 1_555 1_555
H32 C10 1_555 1_555
H33 C10 1_555 1_555
H34 C10 1_555 1_555
C11 N5 1_555 1_555
C12 C11 1_555 1_555
C13 C12 1_555 1_555
H35 C13 1_555 1_555
H36 C13 1_555 1_555
H37 C13 1_555 1_555
C14 C12 1_555 1_555
H38 C14 1_555 1_555
H39 C14 1_555 1_555
H40 C14 1_555 1_555
C15 C12 1_555 1_555
H41 C15 1_555 1_555
H42 C15 1_555 1_555
H43 C15 1_555 1_555
C16 N6 1_555 1_555
C17 C16 1_555 1_555
C18 C17 1_555 1_555
H44 C18 1_555 1_555
H45 C18 1_555 1_555
H46 C18 1_555 1_555
C19 C17 1_555 1_555
H47 C19 1_555 1_555
H48 C19 1_555 1_555
H49 C19 1_555 1_555
C20 C17 1_555 1_555
H50 C20 1_555 1_555
H51 C20 1_555 1_555
H52 C20 1_555 1_555
C21 O5 1_555 1_555
C22 C21 1_555 1_555
C23 C22 1_555 1_555
H53 C23 1_555 1_555
C24 C23 1_555 1_555
H54 C24 1_555 1_555
C25 C24 1_555 1_555
C26 O7 1_555 1_555
C27 C25 1_555 1_555
H55 C27 1_555 1_555
C28 C22 1_555 1_555
H56 C28 1_555 1_555
Pt1A Ag1 1_555 1_555
Pt2A Ag2 1_555 1_555
Ag1A Pt1 1_555 1_555
Ag2A Pt2 1_555 1_555
O2 C1 1_555 1_555
O4 C16 1_555 1_555
C25 C26 1_555 1_555
C27 C28 1_555 1_555

#END
