
#######################################################################
#
#                 Cambridge Crystallographic Data Centre
#                                CCDC 
#
#######################################################################
#
# If this CIF has been generated from an entry in the Cambridge 
# Structural Database, then it will include bibliographic, chemical, 
# crystal, experimental, refinement or atomic coordinate data resulting 
# from the CCDC's data processing and validation procedures.
#
#######################################################################

data_WEJWAL
_symmetry_cell_setting           monoclinic
_symmetry_space_group_name_H-M   'P 21/c'
_symmetry_Int_Tables_number      14
_space_group_name_Hall           '-P 2ybc'
loop_
_symmetry_equiv_pos_site_id
_symmetry_equiv_pos_as_xyz
1 x,y,z
2 -x,1/2+y,1/2-z
3 -x,-y,-z
4 x,1/2-y,1/2+z
_cell_length_a                   6.6737(3)
_cell_length_b                   18.8769(9)
_cell_length_c                   13.5525(7)
_cell_angle_alpha                90
_cell_angle_beta                 95.266(3)
_cell_angle_gamma                90
_cell_volume                     1700.12
loop_
_atom_site_label
_atom_site_type_symbol
_atom_site_fract_x
_atom_site_fract_y
_atom_site_fract_z
Ag1 Ag 0.27094(7) 0.00853(2) 0.94594(3)
N1 N 0.5222(6) 0.0690(2) 0.8911(3)
N2 N 0.5087(7) 0.1413(2) 0.9078(3)
N3 N 0.7081(6) 0.1223(2) 0.7895(3)
N4 N 1.0916(7) 0.4041(2) 0.5242(4)
N5 N 0.9217(7) 0.4146(2) 0.5720(4)
N6 N 1.0052(6) 0.3030(2) 0.5877(3)
C1 C 0.6405(7) 0.0595(3) 0.8201(4)
H1 H 0.6731 0.0157 0.7946
C2 C 0.6203(8) 0.1707(3) 0.8452(4)
H2 H 0.6376 0.2194 0.8395
C3 C 1.1380(8) 0.3371(3) 0.5351(4)
H3 H 1.2481 0.3157 0.5100
C4 C 0.8715(8) 0.3536(3) 0.6091(4)
H4 H 0.7607 0.3461 0.6447
C5 C 0.8431(7) 0.1333(3) 0.7092(4)
C6 C 0.8557(7) 0.2132(3) 0.6891(4)
H5 H 0.7227 0.2317 0.6688
H6 H 0.9079 0.2377 0.7489
C7 C 0.9945(7) 0.2254(2) 0.6073(4)
C8 C 0.9121(8) 0.1882(3) 0.5129(4)
H7 H 1.0000 0.1965 0.4610
H8 H 0.7798 0.2067 0.4911
C9 C 0.8981(8) 0.1083(3) 0.5333(4)
H9 H 0.8453 0.0840 0.4725
C10 C 0.7562(7) 0.0954(3) 0.6148(4)
H10 H 0.6232 0.1137 0.5939
H11 H 0.7449 0.0450 0.6271
C11 C 1.0539(7) 0.1051(3) 0.7437(4)
H12 H 1.1071 0.1296 0.8034
H13 H 1.0472 0.0549 0.7583
C12 C 1.1904(7) 0.1176(3) 0.6604(4)
H14 H 1.3248 0.0990 0.6812
C13 C 1.2072(7) 0.1974(3) 0.6401(4)
H15 H 1.2959 0.2055 0.5884
H16 H 1.2620 0.2218 0.6996
C14 C 1.1082(8) 0.0797(3) 0.5666(4)
H17 H 1.1010 0.0292 0.5789
H18 H 1.1970 0.0873 0.5148
Ag1C Ag 1.27094(7) 0.49147(2) 0.44594(3)
Ag1A Ag 0.72906(7) 0.50853(2) 0.55406(3)
N4C N 0.0916(7) 0.0959(2) 1.0242(4)
N5A N 0.0783(7) -0.0854(2) 0.9280(4)
Cl1 Cl 0.4123(3) 0.37020(9) 0.81510(14)
O1 O 0.4912(11) 0.3360(4) 0.7356(5)
O2 O 0.4183(13) 0.3265(5) 0.8992(5)
O3 O 0.2137(9) 0.3933(5) 0.7858(6)
O4 O 0.5263(14) 0.4333(4) 0.8394(7)
O5? O 0.5968(18) 0.3415(9) 0.7868(14)
O6? O 0.304(2) 0.3125(8) 0.8534(14)
O7? O 0.300(2) 0.3984(9) 0.7330(10)
O8? O 0.463(3) 0.4239(10) 0.8858(13)
loop_
_geom_bond_atom_site_label_1
_geom_bond_atom_site_label_2
_geom_bond_site_symmetry_1
_geom_bond_site_symmetry_2
Ag1 N1 1_555 1_555
Cl1 O1 1_555 1_555
O2 Cl1 1_555 1_555
O3 Cl1 1_555 1_555
O4 Cl1 1_555 1_555
N1 N2 1_555 1_555
N2 C2 1_555 1_555
N3 C1 1_555 1_555
N4 N5 1_555 1_555
N5 C4 1_555 1_555
N6 C3 1_555 1_555
C1 N1 1_555 1_555
H1 C1 1_555 1_555
C2 N3 1_555 1_555
H2 C2 1_555 1_555
C3 N4 1_555 1_555
H3 C3 1_555 1_555
C4 N6 1_555 1_555
H4 C4 1_555 1_555
C5 N3 1_555 1_555
C6 C5 1_555 1_555
H5 C6 1_555 1_555
H6 C6 1_555 1_555
C7 N6 1_555 1_555
C8 C7 1_555 1_555
H7 C8 1_555 1_555
H8 C8 1_555 1_555
C9 C8 1_555 1_555
H9 C9 1_555 1_555
C10 C5 1_555 1_555
H10 C10 1_555 1_555
H11 C10 1_555 1_555
C11 C5 1_555 1_555
H12 C11 1_555 1_555
H13 C11 1_555 1_555
C12 C11 1_555 1_555
H14 C12 1_555 1_555
C13 C7 1_555 1_555
H15 C13 1_555 1_555
H16 C13 1_555 1_555
C14 C9 1_555 1_555
H17 C14 1_555 1_555
H18 C14 1_555 1_555
Ag1C N4 1_555 1_555
Ag1A N5 1_555 1_555
N4C Ag1 1_555 1_555
N5A Ag1 1_555 1_555
C6 C7 1_555 1_555
C9 C10 1_555 1_555
C12 C13 1_555 1_555
C12 C14 1_555 1_555

#END
