
#######################################################################
#
#                 Cambridge Crystallographic Data Centre
#                                CCDC 
#
#######################################################################
#
# If this CIF has been generated from an entry in the Cambridge 
# Structural Database, then it will include bibliographic, chemical, 
# crystal, experimental, refinement or atomic coordinate data resulting 
# from the CCDC's data processing and validation procedures.
#
#######################################################################

data_WEKLAB
_symmetry_cell_setting           triclinic
_symmetry_space_group_name_H-M   'P -1'
_symmetry_Int_Tables_number      2
_space_group_name_Hall           '-P 1'
loop_
_symmetry_equiv_pos_site_id
_symmetry_equiv_pos_as_xyz
1 x,y,z
2 -x,-y,-z
_cell_length_a                   12.271(3)
_cell_length_b                   13.775(3)
_cell_length_c                   14.061(3)
_cell_angle_alpha                89.21(2)
_cell_angle_beta                 65.01(3)
_cell_angle_gamma                71.28(3)
_cell_volume                     2019.66
loop_
_atom_site_label
_atom_site_type_symbol
_atom_site_fract_x
_atom_site_fract_y
_atom_site_fract_z
Mn1 Mn -0.5000 0.5000 0.5000
O1 O -0.3336(3) 0.5292(3) 0.4799(3)
O2 O -0.3599(3) 0.6962(3) 0.5111(3)
O3 O 0.4821(4) -0.1553(3) -0.2637(4)
O4 O 0.6645(4) -0.2527(3) -0.2607(4)
O5 O 1.2580(4) 0.7685(3) -0.2602(4)
O6 O 1.3940(4) 0.6144(3) -0.3414(3)
O7 O 0.2949(4) 0.6294(3) 0.2388(3)
O8 O 0.7831(4) 0.1577(3) -0.0731(4)
O9 O 0.7000(4) 0.6459(3) -0.0018(4)
N1 N -0.4316(5) 0.3622(4) 0.5733(4)
N2 N 0.3720(5) -0.1183(4) 0.5613(4)
N3 N -0.2765(4) 0.2387(4) 0.5909(4)
N4 N 0.2195(5) 0.0074(4) 0.5414(4)
N5 N 0.2556(4) 0.4788(3) 0.2713(4)
H1 H 0.2932 0.4133 0.2663
N6 N 0.5752(5) 0.1934(3) -0.0450(4)
H2 H 0.5010 0.2413 -0.0166
N7 N 0.8826(4) 0.5051(3) -0.0730(4)
H3 H 0.9107 0.4386 -0.0797
C1 C 0.9775(5) 0.5514(5) -0.1222(5)
C2 C -0.2900(5) 0.6006(4) 0.4762(4)
C3 C -0.1480(5) 0.5737(4) 0.4269(4)
C4 C -0.0883(5) 0.6463(4) 0.3978(5)
H4 H -0.1389 0.7160 0.4126
C5 C 0.0433(5) 0.6196(4) 0.3477(5)
H5 H 0.0801 0.6705 0.3278
C6 C 0.1203(5) 0.5159(4) 0.3272(4)
C7 C 0.0630(5) 0.4413(4) 0.3568(5)
H6 H 0.1135 0.3716 0.3439
C8 C -0.0686(5) 0.4707(4) 0.4054(5)
H7 H -0.1057 0.4198 0.4244
C9 C 0.3335(5) 0.5342(4) 0.2244(5)
C10 C 0.4689(5) 0.4742(4) 0.1457(4)
C11 C 0.5539(5) 0.5276(4) 0.1071(4)
H8 H 0.5278 0.5958 0.1370
C12 C 0.6773(5) 0.4822(4) 0.0250(4)
C13 C 0.7168(5) 0.3791(4) -0.0183(4)
H9 H 0.7997 0.3467 -0.0712
C14 C 0.6311(5) 0.3246(4) 0.0184(4)
C15 C 0.5084(5) 0.3720(4) 0.1000(4)
H10 H 0.4523 0.3354 0.1243
C16 C 0.6729(6) 0.2161(5) -0.0379(5)
C17 C 0.5815(6) 0.1013(4) -0.0932(5)
C18 C 0.4766(6) 0.1044(5) -0.1092(5)
H11 H 0.4062 0.1654 -0.0875
C19 C 0.4750(6) 0.0174(5) -0.1574(5)
H12 H 0.4040 0.0216 -0.1681
C20 C 0.5771(6) -0.0750(4) -0.1894(5)
C21 C 0.6818(6) -0.0784(5) -0.1713(5)
H13 H 0.7507 -0.1402 -0.1908
C22 C 0.6856(6) 0.0080(5) -0.1252(5)
H14 H 0.7573 0.0040 -0.1154
C23 C 0.5765(6) -0.1697(5) -0.2422(5)
C24 C 0.7545(6) 0.5515(5) -0.0171(5)
C25 C 0.9483(6) 0.6574(5) -0.1292(6)
H15 H 0.8635 0.7021 -0.1002
C26 C 1.0485(6) 0.6947(5) -0.1804(6)
H16 H 1.0290 0.7651 -0.1849
C27 C 1.1767(5) 0.6306(5) -0.2252(5)
C28 C 1.2024(6) 0.5260(5) -0.2172(5)
H17 H 1.2870 0.4809 -0.2474
C29 C 1.1053(6) 0.4873(5) -0.1657(5)
H18 H 1.1256 0.4171 -0.1599
C30 C 1.2805(6) 0.6730(5) -0.2769(5)
C31 C -0.4837(6) 0.3029(4) 0.6467(5)
H19 H -0.5706 0.3129 0.6822
C32 C -0.3897(6) 0.2278(5) 0.6597(5)
H20 H -0.3999 0.1789 0.7059
C33 C -0.3073(6) 0.3208(5) 0.5430(5)
H21 H -0.2474 0.3459 0.4936
C34 C -0.1500(6) 0.1804(4) 0.5790(5)
C35 C -0.1333(6) 0.1436(4) 0.6653(5)
H22 H -0.2036 0.1558 0.7310
C36 C -0.0105(6) 0.0881(4) 0.6532(5)
H23 H 0.0019 0.0641 0.7113
C37 C 0.0934(6) 0.0688(4) 0.5546(5)
C38 C 0.0761(6) 0.1083(5) 0.4695(5)
H24 H 0.1464 0.0971 0.4039
C39 C -0.0452(6) 0.1645(5) 0.4811(5)
H25 H -0.0568 0.1917 0.4238
C40 C 0.3360(6) 0.0102(5) 0.4659(6)
H26 H 0.3490 0.0556 0.4162
C41 C 0.4268(7) -0.0672(5) 0.4799(6)
H27 H 0.5147 -0.0835 0.4397
C42 C 0.2478(6) -0.0713(5) 0.5954(5)
H28 H 0.1862 -0.0901 0.6505
Mn2 Mn -0.54156(8) 0.75790(7) 0.63377(8)
Mn1_2 Mn 1.5000 0.5000 -0.5000
Mn1_3 Mn -2.5000 0.5000 1.5000
O1A O -0.6664(3) 0.4708(3) 0.5201(3)
O2A O -0.6401(3) 0.3038(3) 0.4889(3)
O3A O -1.4821(4) 1.1553(3) 1.2637(4)
O3_2 O -0.5179(4) 0.8447(3) 0.7363(4)
O3A_2 O -0.4821(4) 0.1553(3) 0.2637(4)
O4A O -1.6645(4) 1.2527(3) 1.2607(4)
O5A O -2.2580(4) 0.2315(3) 1.2602(4)
O5_2 O -0.7420(4) 0.7685(3) 0.7398(4)
O5A_2 O -0.2580(4) 0.2315(3) 0.2602(4)
O6A O -2.3940(4) 0.3856(3) 1.3414(3)
O6_2 O -0.6060(4) 0.6144(3) 0.6586(3)
O6A_2 O -0.3940(4) 0.3856(3) 0.3414(3)
O7A O -1.2949(4) 0.3706(3) 0.7612(3)
O8A O -1.7831(4) 0.8423(3) 1.0731(4)
O9A O -1.7000(4) 0.3541(3) 1.0018(4)
N1A N -0.5684(5) 0.6378(4) 0.4267(4)
N2A N -1.3720(5) 1.1183(4) 0.4387(4)
N2_2 N -0.6280(5) 0.8817(4) 0.5613(4)
N2A_2 N -0.3720(5) 0.1183(4) 0.4387(4)
N3A N -0.7235(4) 0.7613(4) 0.4091(4)
N4A N -1.2195(5) 0.9926(4) 0.4586(4)
N5A N -1.2556(4) 0.5212(3) 0.7287(4)
H1A H -1.2932 0.5867 0.7337
N6A N -1.5752(5) 0.8066(3) 1.0450(4)
H2A H -1.5010 0.7587 1.0166
N7A N -1.8826(4) 0.4949(3) 1.0730(4)
H3A H -1.9107 0.5614 1.0797
C1A C -1.9775(5) 0.4486(5) 1.1222(5)
C2A C -0.7100(5) 0.3994(4) 0.5238(4)
C3A C -0.8520(5) 0.4263(4) 0.5731(4)
C4A C -0.9117(5) 0.3537(4) 0.6022(5)
H4A H -0.8611 0.2840 0.5874
C5A C -1.0433(5) 0.3804(4) 0.6523(5)
H5A H -1.0801 0.3295 0.6722
C6A C -1.1203(5) 0.4841(4) 0.6728(4)
C7A C -1.0630(5) 0.5587(4) 0.6432(5)
H6A H -1.1135 0.6284 0.6561
C8A C -0.9314(5) 0.5293(4) 0.5946(5)
H7A H -0.8943 0.5802 0.5756
C9A C -1.3335(5) 0.4658(4) 0.7756(5)
C10A C -1.4689(5) 0.5258(4) 0.8543(4)
C11A C -1.5539(5) 0.4724(4) 0.8929(4)
H8A H -1.5278 0.4042 0.8630
C12A C -1.6773(5) 0.5178(4) 0.9750(4)
C13A C -1.7168(5) 0.6209(4) 1.0183(4)
H9A H -1.7997 0.6533 1.0712
C14A C -1.6311(5) 0.6754(4) 0.9816(4)
C15A C -1.5084(5) 0.6280(4) 0.9000(4)
H10A H -1.4523 0.6646 0.8757
C16A C -1.6729(6) 0.7839(5) 1.0379(5)
C17A C -1.5815(6) 0.8987(4) 1.0932(5)
C18A C -1.4766(6) 0.8956(5) 1.1092(5)
H11A H -1.4062 0.8346 1.0875
C19A C -1.4750(6) 0.9826(5) 1.1574(5)
H12A H -1.4040 0.9784 1.1681
C20A C -1.5771(6) 1.0750(4) 1.1894(5)
C21A C -1.6818(6) 1.0784(5) 1.1713(5)
H13A H -1.7507 1.1402 1.1908
C22A C -1.6856(6) 0.9920(5) 1.1252(5)
H14A H -1.7573 0.9960 1.1154
C23A C -1.5765(6) 1.1697(5) 1.2422(5)
C24A C -1.7545(6) 0.4485(5) 1.0171(5)
C25A C -1.9483(6) 0.3426(5) 1.1292(6)
H15A H -1.8635 0.2979 1.1002
C26A C -2.0485(6) 0.3053(5) 1.1804(6)
H16A H -2.0290 0.2349 1.1849
C27A C -2.1767(5) 0.3694(5) 1.2252(5)
C28A C -2.2024(6) 0.4740(5) 1.2172(5)
H17A H -2.2870 0.5191 1.2474
C29A C -2.1053(6) 0.5127(5) 1.1657(5)
H18A H -2.1256 0.5829 1.1599
C30A C -2.2805(6) 0.3270(5) 1.2769(5)
C31A C -0.5163(6) 0.6971(4) 0.3533(5)
H19A H -0.4294 0.6871 0.3178
C32A C -0.6103(6) 0.7722(5) 0.3403(5)
H20A H -0.6001 0.8211 0.2941
C33A C -0.6927(6) 0.6792(5) 0.4570(5)
H21A H -0.7526 0.6541 0.5064
C34A C -0.8500(6) 0.8196(4) 0.4210(5)
C35A C -0.8667(6) 0.8564(4) 0.3347(5)
H22A H -0.7964 0.8442 0.2690
C36A C -0.9895(6) 0.9119(4) 0.3468(5)
H23A H -1.0019 0.9359 0.2887
C37A C -1.0934(6) 0.9312(4) 0.4454(5)
C38A C -1.0761(6) 0.8917(5) 0.5305(5)
H24A H -1.1464 0.9029 0.5961
C39A C -0.9548(6) 0.8355(5) 0.5189(5)
H25A H -0.9432 0.8083 0.5762
C40A C -1.3360(6) 0.9898(5) 0.5341(6)
H26A H -1.3490 0.9444 0.5838
C41A C -1.4268(7) 1.0672(5) 0.5201(6)
H27A H -1.5147 1.0835 0.5603
C42A C -1.2478(6) 1.0713(5) 0.4046(5)
H28A H -1.1862 1.0901 0.3495
Mn2A Mn -0.45844(8) 0.24210(7) 0.36623(8)
Mn2_2 Mn 0.45844(8) -0.24210(7) -0.36623(8)
Mn2_3 Mn 1.45844(8) 0.75790(7) -0.36623(8)
Mn2_4 Mn 0.45844(8) -0.24210(7) 0.63377(8)
Mn2A_2 Mn -1.45844(8) 1.24210(7) 1.36623(8)
Mn2A_3 Mn -2.45844(8) 0.24210(7) 1.36623(8)
Mn2A_4 Mn -1.45844(8) 1.24210(7) 0.36623(8)
O10 O 0.0299(7) 0.2842(6) 0.8881(7)
N8 N 0.1348(13) 0.1144(10) 0.8534(10)
C43 C 0.0281(15) 0.2008(11) 0.9175(13)
H29 H -0.0393 0.1947 0.9782
C44 C 0.2327(14) 0.1366(12) 0.7511(12)
H30 H 0.1948 0.1573 0.7034
H31 H 0.3071 0.0752 0.7182
H32 H 0.2572 0.1911 0.7680
C45 C 0.1499(14) 0.0061(11) 0.8832(12)
H33 H 0.1270 0.0084 0.9576
H34 H 0.2374 -0.0386 0.8435
H35 H 0.0949 -0.0201 0.8673
loop_
_geom_bond_atom_site_label_1
_geom_bond_atom_site_label_2
_geom_bond_site_symmetry_1
_geom_bond_site_symmetry_2
Mn1 O1 1_555 1_555
O1 C2 1_555 1_555
O2 C2 1_555 1_555
O3 C23 1_555 1_555
O4 C23 1_555 1_555
O5 C30 1_555 1_555
O6 C30 1_555 1_555
O7 C9 1_555 1_555
O8 C16 1_555 1_555
O9 C24 1_555 1_555
N1 Mn1 1_555 1_555
N2 C41 1_555 1_555
N3 C32 1_555 1_555
N4 C37 1_555 1_555
N5 H1 1_555 1_555
N6 H2 1_555 1_555
N7 H3 1_555 1_555
C1 N7 1_555 1_555
C2 C3 1_555 1_555
C3 C4 1_555 1_555
C4 H4 1_555 1_555
C5 C4 1_555 1_555
H5 C5 1_555 1_555
C6 N5 1_555 1_555
C7 C6 1_555 1_555
H6 C7 1_555 1_555
C8 C3 1_555 1_555
H7 C8 1_555 1_555
C9 N5 1_555 1_555
C10 C9 1_555 1_555
C11 C10 1_555 1_555
H8 C11 1_555 1_555
C12 C11 1_555 1_555
C13 C12 1_555 1_555
H9 C13 1_555 1_555
C14 C13 1_555 1_555
C15 C10 1_555 1_555
H10 C15 1_555 1_555
C16 N6 1_555 1_555
C17 N6 1_555 1_555
C18 C17 1_555 1_555
H11 C18 1_555 1_555
C19 C18 1_555 1_555
H12 C19 1_555 1_555
C20 C19 1_555 1_555
C21 C20 1_555 1_555
H13 C21 1_555 1_555
C22 C17 1_555 1_555
H14 C22 1_555 1_555
C23 C20 1_555 1_555
C24 N7 1_555 1_555
C25 C1 1_555 1_555
H15 C25 1_555 1_555
C26 C25 1_555 1_555
H16 C26 1_555 1_555
C27 C26 1_555 1_555
C28 C27 1_555 1_555
H17 C28 1_555 1_555
C29 C1 1_555 1_555
H18 C29 1_555 1_555
C30 C27 1_555 1_555
C31 N1 1_555 1_555
H19 C31 1_555 1_555
C32 C31 1_555 1_555
H20 C32 1_555 1_555
C33 N1 1_555 1_555
H21 C33 1_555 1_555
C34 N3 1_555 1_555
C35 C34 1_555 1_555
H22 C35 1_555 1_555
C36 C35 1_555 1_555
H23 C36 1_555 1_555
C37 C36 1_555 1_555
C38 C37 1_555 1_555
H24 C38 1_555 1_555
C39 C34 1_555 1_555
H25 C39 1_555 1_555
C40 N4 1_555 1_555
H26 C40 1_555 1_555
C41 C40 1_555 1_555
H27 C41 1_555 1_555
C42 N2 1_555 1_555
H28 C42 1_555 1_555
Mn2 O2 1_555 1_555
O10 C43 1_555 1_555
N8 C43 1_555 1_555
C43 H29 1_555 1_555
C44 N8 1_555 1_555
H30 C44 1_555 1_555
H31 C44 1_555 1_555
H32 C44 1_555 1_555
C45 N8 1_555 1_555
H33 C45 1_555 1_555
H34 C45 1_555 1_555
H35 C45 1_555 1_555
Mn1_2 O6 1_555 1_555
Mn1_3 O6A 1_555 1_555
O1A Mn1 1_555 1_555
O2A C2A 1_555 1_555
O3A C23A 1_555 1_555
O3_2 Mn2 1_555 1_555
O3A_2 Mn2A 1_555 1_555
O4A C23A 1_555 1_555
O5A C30A 1_555 1_555
O5_2 Mn2 1_555 1_555
O5A_2 Mn2A 1_555 1_555
O6A C30A 1_555 1_555
O6_2 Mn1 1_555 1_555
O6A_2 Mn1 1_555 1_555
O7A C9A 1_555 1_555
O8A C16A 1_555 1_555
O9A C24A 1_555 1_555
N1A Mn1 1_555 1_555
N2A C41A 1_555 1_555
N2_2 Mn2 1_555 1_555
N2A_2 Mn2A 1_555 1_555
N3A C32A 1_555 1_555
N4A C37A 1_555 1_555
N5A H1A 1_555 1_555
N6A H2A 1_555 1_555
N7A H3A 1_555 1_555
C1A N7A 1_555 1_555
C2A O1A 1_555 1_555
C3A C2A 1_555 1_555
C4A C3A 1_555 1_555
H4A C4A 1_555 1_555
C5A C4A 1_555 1_555
H5A C5A 1_555 1_555
C6A N5A 1_555 1_555
C7A C6A 1_555 1_555
H6A C7A 1_555 1_555
C8A C3A 1_555 1_555
H7A C8A 1_555 1_555
C9A N5A 1_555 1_555
C10A C9A 1_555 1_555
C11A C10A 1_555 1_555
H8A C11A 1_555 1_555
C12A C11A 1_555 1_555
C13A C12A 1_555 1_555
H9A C13A 1_555 1_555
C14A C13A 1_555 1_555
C15A C10A 1_555 1_555
H10A C15A 1_555 1_555
C16A N6A 1_555 1_555
C17A N6A 1_555 1_555
C18A C17A 1_555 1_555
H11A C18A 1_555 1_555
C19A C18A 1_555 1_555
H12A C19A 1_555 1_555
C20A C19A 1_555 1_555
C21A C20A 1_555 1_555
H13A C21A 1_555 1_555
C22A C17A 1_555 1_555
H14A C22A 1_555 1_555
C23A C20A 1_555 1_555
C24A N7A 1_555 1_555
C25A C1A 1_555 1_555
H15A C25A 1_555 1_555
C26A C25A 1_555 1_555
H16A C26A 1_555 1_555
C27A C26A 1_555 1_555
C28A C27A 1_555 1_555
H17A C28A 1_555 1_555
C29A C1A 1_555 1_555
H18A C29A 1_555 1_555
C30A C27A 1_555 1_555
C31A N1A 1_555 1_555
H19A C31A 1_555 1_555
C32A C31A 1_555 1_555
H20A C32A 1_555 1_555
C33A N1A 1_555 1_555
H21A C33A 1_555 1_555
C34A N3A 1_555 1_555
C35A C34A 1_555 1_555
H22A C35A 1_555 1_555
C36A C35A 1_555 1_555
H23A C36A 1_555 1_555
C37A C36A 1_555 1_555
C38A C37A 1_555 1_555
H24A C38A 1_555 1_555
C39A C34A 1_555 1_555
H25A C39A 1_555 1_555
C40A N4A 1_555 1_555
H26A C40A 1_555 1_555
C41A C40A 1_555 1_555
H27A C41A 1_555 1_555
C42A N2A 1_555 1_555
H28A C42A 1_555 1_555
Mn2A O2A 1_555 1_555
Mn2_2 O3 1_555 1_555
Mn2_3 O5 1_555 1_555
Mn2_4 N2 1_555 1_555
Mn2A_2 O3A 1_555 1_555
Mn2A_3 O5A 1_555 1_555
Mn2A_4 N2A 1_555 1_555
O6 Mn2_3 1_555 1_555
N3 C33 1_555 1_555
N4 C42 1_555 1_555
C5 C6 1_555 1_555
C7 C8 1_555 1_555
C12 C24 1_555 1_555
C14 C15 1_555 1_555
C14 C16 1_555 1_555
C21 C22 1_555 1_555
C28 C29 1_555 1_555
C38 C39 1_555 1_555
Mn2 O6_2 1_555 1_555
O6A Mn2A_3 1_555 1_555
O6A_2 Mn2A 1_555 1_555
N3A C33A 1_555 1_555
N4A C42A 1_555 1_555
C5A C6A 1_555 1_555
C7A C8A 1_555 1_555
C12A C24A 1_555 1_555
C14A C15A 1_555 1_555
C14A C16A 1_555 1_555
C21A C22A 1_555 1_555
C28A C29A 1_555 1_555
C38A C39A 1_555 1_555

#END
