
#######################################################################
#
#                 Cambridge Crystallographic Data Centre
#                                CCDC 
#
#######################################################################
#
# If this CIF has been generated from an entry in the Cambridge 
# Structural Database, then it will include bibliographic, chemical, 
# crystal, experimental, refinement or atomic coordinate data resulting 
# from the CCDC's data processing and validation procedures.
#
#######################################################################

data_WEKLUV
_symmetry_cell_setting           monoclinic
_symmetry_space_group_name_H-M   'C 2/c'
_symmetry_Int_Tables_number      15
_space_group_name_Hall           '-C 2yn'
loop_
_symmetry_equiv_pos_site_id
_symmetry_equiv_pos_as_xyz
1 x,y,z
2 -x,y,1/2-z
3 1/2+x,1/2+y,z
4 1/2-x,1/2+y,1/2-z
5 -x,-y,-z
6 x,-y,1/2+z
7 1/2-x,1/2-y,-z
8 1/2+x,1/2-y,1/2+z
_cell_length_a                   18.365(3)
_cell_length_b                   10.5691(18)
_cell_length_c                   17.065(3)
_cell_angle_alpha                90
_cell_angle_beta                 106.028(7)
_cell_angle_gamma                90
_cell_volume                     3183.58
loop_
_atom_site_label
_atom_site_type_symbol
_atom_site_fract_x
_atom_site_fract_y
_atom_site_fract_z
Zn1 Zn -0.211056(14) 0.02814(3) 0.322943(15)
O1 O -0.57535(11) -0.06482(18) 0.07014(13)
O3 O -0.23140(9) -0.11224(15) 0.38788(10)
O5 O -0.10905(10) 0.00551(19) 0.30938(12)
O6 O -0.15909(10) 0.14164(19) 0.21256(11)
O7 O -0.13266(10) -0.06368(18) 0.49215(11)
N1 N -0.31269(11) 0.02723(17) 0.23550(12)
N2 N -0.56376(10) 0.13974(19) 0.03479(12)
H3 H -0.5319 0.2037 0.0431
N3 N -0.70945(10) 0.30292(18) -0.11863(11)
C1 C -0.33318(13) 0.1185(2) 0.17892(14)
H4 H -0.2966 0.1800 0.1750
C2 C -0.40483(13) 0.1267(2) 0.12645(15)
H5 H -0.4176 0.1936 0.0879
C3 C -0.45823(13) 0.0362(2) 0.13042(14)
C4 C -0.43604(14) -0.0607(2) 0.18699(15)
H6 H -0.4707 -0.1261 0.1899
C5 C -0.36407(13) -0.0617(2) 0.23852(15)
H7 H -0.3501 -0.1276 0.2777
C6 C -0.64378(12) 0.2688(2) -0.06690(14)
H8 H -0.6008 0.3213 -0.0621
C7 C -0.63536(12) 0.1605(2) -0.01996(14)
C8 C -0.69766(13) 0.0817(2) -0.02857(15)
H9 H -0.6940 0.0060 0.0023
C9 C -0.76534(13) 0.1170(2) -0.08357(15)
H10 H -0.8087 0.0644 -0.0914
C10 C -0.76993(13) 0.2276(2) -0.12666(14)
H11 H -0.8171 0.2515 -0.1631
C11 C -0.53856(14) 0.0320(2) 0.07611(15)
C12 C -0.10551(14) 0.0772(3) 0.25009(15)
C13 C -0.03379(14) 0.0777(3) 0.22583(17)
H12 H -0.0383 0.0781 0.1690
C14 C -0.21725(13) -0.2201(2) 0.51233(14)
H13 H -0.1854 -0.2382 0.5653
C15 C -0.19058(13) -0.1255(2) 0.46150(14)
Zn1F Zn -0.288944(14) -0.52814(3) 0.677057(15)
Zn1G Zn -0.711056(14) 0.47186(3) -0.177057(15)
Zn1A Zn 0.211056(14) 0.02814(3) 0.177057(15)
Zn1G_2 Zn 0.288944(14) 0.47186(3) 0.822943(15)
O1G O -0.07535(11) 0.56482(18) 0.57014(13)
O3F O -0.26860(9) -0.38776(15) 0.61212(10)
O3A O 0.23140(9) -0.11224(15) 0.11212(10)
O5A O 0.10905(10) 0.00551(19) 0.19062(12)
O6A O 0.15909(10) 0.14164(19) 0.28744(11)
O7F O -0.36734(10) -0.43632(18) 0.50785(11)
N1G N 0.18731(11) 0.47277(17) 0.73550(12)
N1A N 0.31269(11) 0.02723(17) 0.26450(12)
N2G N -0.06376(10) 0.36026(19) 0.53479(12)
H3G H -0.0319 0.2963 0.5431
N3G N -0.20945(10) 0.19708(18) 0.38137(11)
N3F N 0.20945(10) 0.19708(18) 0.11863(11)
C1G C 0.16682(13) 0.3815(2) 0.67892(14)
H4G H 0.2034 0.3200 0.6750
C2G C 0.09517(13) 0.3733(2) 0.62645(15)
H5G H 0.0824 0.3064 0.5879
C3G C 0.04177(13) 0.4638(2) 0.63042(14)
C4G C 0.06396(14) 0.5607(2) 0.68699(15)
H6G H 0.0293 0.6261 0.6899
C5G C 0.13593(13) 0.5617(2) 0.73852(15)
H7G H 0.1499 0.6276 0.7777
C6G C -0.14378(12) 0.2312(2) 0.43310(14)
H8G H -0.1008 0.1787 0.4379
C7G C -0.13536(12) 0.3395(2) 0.48004(14)
C8G C -0.19766(13) 0.4183(2) 0.47143(15)
H9G H -0.1940 0.4940 0.5023
C9G C -0.26534(13) 0.3830(2) 0.41643(15)
H10G H -0.3087 0.4356 0.4086
C10G C -0.26993(13) 0.2724(2) 0.37334(14)
H11G H -0.3171 0.2485 0.3369
C11G C -0.03856(14) 0.4680(2) 0.57611(15)
C12A C 0.10551(14) 0.0772(3) 0.24991(15)
C13A C 0.03379(14) 0.0777(3) 0.27417(17)
H12A H 0.0383 0.0781 0.3310
C14F C -0.28275(13) -0.2799(2) 0.48767(14)
H13F H -0.3146 -0.2618 0.4347
C15F C -0.30942(13) -0.3745(2) 0.53850(14)
O2 O -0.01419(13) -0.1085(2) 0.07293(16)
H1 H 0.0309(12) -0.113(3) 0.068(2)
H2 H -0.0380(16) -0.044(2) 0.049(2)
O4? O -0.0407(4) -0.2371(7) 0.2241(5)
loop_
_geom_bond_atom_site_label_1
_geom_bond_atom_site_label_2
_geom_bond_site_symmetry_1
_geom_bond_site_symmetry_2
Zn1 O3 1_555 1_555
O1 C11 1_555 1_555
O2 H1 1_555 1_555
H2 O2 1_555 1_555
O3 C15 1_555 1_555
O5 Zn1 1_555 1_555
O6 C12 1_555 1_555
O7 C15 1_555 1_555
N1 Zn1 1_555 1_555
N2 H3 1_555 1_555
N3 C6 1_555 1_555
C1 N1 1_555 1_555
H4 C1 1_555 1_555
C2 C1 1_555 1_555
H5 C2 1_555 1_555
C3 C2 1_555 1_555
C4 C3 1_555 1_555
H6 C4 1_555 1_555
C5 N1 1_555 1_555
H7 C5 1_555 1_555
C6 H8 1_555 1_555
C7 N2 1_555 1_555
C8 C7 1_555 1_555
H9 C8 1_555 1_555
C9 C8 1_555 1_555
H10 C9 1_555 1_555
C10 N3 1_555 1_555
H11 C10 1_555 1_555
C11 N2 1_555 1_555
C12 O5 1_555 1_555
C13 C12 1_555 1_555
H12 C13 1_555 1_555
C14 H13 1_555 1_555
C15 C14 1_555 1_555
Zn1F O3F 1_555 1_555
Zn1G N3 1_555 1_555
Zn1A O3A 1_555 1_555
Zn1G_2 N1G 1_555 1_555
O1G C11G 1_555 1_555
O3F C15F 1_555 1_555
O5A Zn1A 1_555 1_555
O6A C12A 1_555 1_555
O7F C15F 1_555 1_555
N1G C1G 1_555 1_555
N1A Zn1A 1_555 1_555
N2G H3G 1_555 1_555
N3G Zn1 1_555 1_555
N3F Zn1A 1_555 1_555
C1G H4G 1_555 1_555
C2G C1G 1_555 1_555
H5G C2G 1_555 1_555
C3G C2G 1_555 1_555
C4G C3G 1_555 1_555
H6G C4G 1_555 1_555
C5G N1G 1_555 1_555
H7G C5G 1_555 1_555
C6G N3G 1_555 1_555
H8G C6G 1_555 1_555
C7G N2G 1_555 1_555
C8G C7G 1_555 1_555
H9G C8G 1_555 1_555
C9G C8G 1_555 1_555
H10G C9G 1_555 1_555
C10G N3G 1_555 1_555
H11G C10G 1_555 1_555
C11G N2G 1_555 1_555
C12A O5A 1_555 1_555
C13A C13 1_555 1_555
H12A C13A 1_555 1_555
C14F C14 1_555 1_555
H13F C14F 1_555 1_555
C15F C14F 1_555 1_555
C3 C11 1_555 1_555
C4 C5 1_555 1_555
C6 C7 1_555 1_555
C9 C10 1_555 1_555
C3G C11G 1_555 1_555
C4G C5G 1_555 1_555
C6G C7G 1_555 1_555
C9G C10G 1_555 1_555
C12A C13A 1_555 1_555

#END
