
#######################################################################
#
#                 Cambridge Crystallographic Data Centre
#                                CCDC 
#
#######################################################################
#
# If this CIF has been generated from an entry in the Cambridge 
# Structural Database, then it will include bibliographic, chemical, 
# crystal, experimental, refinement or atomic coordinate data resulting 
# from the CCDC's data processing and validation procedures.
#
#######################################################################

data_WEKMAC
_symmetry_cell_setting           monoclinic
_symmetry_space_group_name_H-M   'P 21/c'
_symmetry_Int_Tables_number      14
_space_group_name_Hall           '-P 2ybc'
loop_
_symmetry_equiv_pos_site_id
_symmetry_equiv_pos_as_xyz
1 x,y,z
2 -x,1/2+y,1/2-z
3 -x,-y,-z
4 x,1/2-y,1/2+z
_cell_length_a                   7.8778(15)
_cell_length_b                   23.005(4)
_cell_length_c                   8.2756(15)
_cell_angle_alpha                90
_cell_angle_beta                 107.346(2)
_cell_angle_gamma                90
_cell_volume                     1431.57
loop_
_atom_site_label
_atom_site_type_symbol
_atom_site_fract_x
_atom_site_fract_y
_atom_site_fract_z
Zn1 Zn 0.02366(6) 0.585289(18) 0.17777(5)
O1 O 0.3181(4) 0.60996(12) 0.3758(3)
O2 O 0.1863(3) 0.52507(12) 0.3188(3)
O3 O -0.1849(3) 0.53496(11) 0.0946(3)
O4 O -0.3179(4) 0.59729(11) -0.1108(4)
O5 O -0.5899(4) 0.73595(13) 0.5001(4)
N1 N -0.0884(4) 0.65148(14) 0.2774(4)
N2 N -0.4044(4) 0.78435(14) 0.3805(4)
H1 H -0.374(5) 0.8200(11) 0.354(5)
N3 N -0.8818(4) 0.88706(13) 0.4879(4)
C1 C -0.0447(5) 0.70760(18) 0.2765(5)
H2 H 0.0605 0.7173 0.2488
C2 C -0.1441(6) 0.75241(17) 0.3139(5)
H3 H -0.1087 0.7917 0.3090
C3 C -0.2963(5) 0.73924(17) 0.3586(4)
C4 C -0.3380(5) 0.68060(17) 0.3694(5)
H4 H -0.4361 0.6694 0.4069
C5 C -0.2343(5) 0.63959(17) 0.3246(5)
H5 H -0.2675 0.6000 0.3269
C6 C -0.8693(5) 0.89670(18) 0.2046(5)
H6 H -0.9109 0.9150 0.0971
C7 C -0.6794(5) 0.82910(16) 0.3923(5)
C8 C -0.7371(5) 0.85487(17) 0.2331(5)
H7 H -0.6871 0.8441 0.1462
C9 C -0.7549(5) 0.84661(17) 0.5146(5)
H8 H -0.7146 0.8290 0.6233
C10 C -0.9401(5) 0.91165(16) 0.3317(5)
H9 H -1.0322 0.9399 0.3099
C11 C -0.5532(5) 0.77904(17) 0.4316(5)
C12 C 0.3204(5) 0.55650(17) 0.3914(5)
C13 C 0.4860(5) 0.52832(17) 0.4997(5)
H10 H 0.5755 0.5522 0.5715
C14 C -0.3186(5) 0.55359(17) -0.0241(5)
C15 C -0.4865(5) 0.51963(16) -0.0532(5)
H11 H -0.5798 0.5267 -0.1545
Zn1B Zn 0.97634(6) 0.414711(18) 0.82223(5)
Zn1C Zn -0.97634(6) 0.914711(18) 0.67777(5)
Zn1B_2 Zn -1.02366(6) 0.414711(18) -0.17777(5)
Zn1C_2 Zn 1.02366(6) 0.914711(18) -0.32223(5)
O1B O 0.6819(4) 0.39004(12) 0.6242(3)
O2B O 0.8137(3) 0.47493(12) 0.6812(3)
O3B O -0.8151(3) 0.46504(11) -0.0946(3)
O3B_2 O 1.1849(3) 0.46504(11) 0.9054(3)
O4B O -0.6821(4) 0.40271(11) 0.1108(4)
O5C O 0.4101(4) 0.76405(13) 0.0001(4)
N1C N 0.9116(4) 0.84852(14) -0.2226(4)
N1B N 1.0884(4) 0.34852(14) 0.7226(4)
N2C N 0.5956(4) 0.71565(14) -0.1195(4)
H1C H 0.626(5) 0.6800(11) -0.146(5)
N3C N 0.1182(4) 0.61294(13) -0.0121(4)
N3A N 0.8818(4) 0.38706(13) 1.0121(4)
C1C C 0.9553(5) 0.79240(18) -0.2235(5)
H2C H 1.0605 0.7827 -0.2512
C2C C 0.8559(6) 0.74759(17) -0.1861(5)
H3C H 0.8913 0.7083 -0.1910
C3C C 0.7037(5) 0.76076(17) -0.1414(4)
C4C C 0.6620(5) 0.81940(17) -0.1306(5)
H4C H 0.5639 0.8306 -0.0931
C5C C 0.7657(5) 0.86041(17) -0.1754(5)
H5C H 0.7325 0.9000 -0.1731
C6C C 0.1307(5) 0.60330(18) -0.2954(5)
H6C H 0.0891 0.5850 -0.4029
C7C C 0.3206(5) 0.67090(16) -0.1077(5)
C8C C 0.2629(5) 0.64513(17) -0.2669(5)
H7C H 0.3129 0.6559 -0.3538
C9C C 0.2451(5) 0.65339(17) 0.0146(5)
H8C H 0.2854 0.6710 0.1233
C10C C 0.0599(5) 0.58835(16) -0.1683(5)
H9C H -0.0322 0.5601 -0.1901
C11C C 0.4468(5) 0.72096(17) -0.0684(5)
C12B C 0.6796(5) 0.44350(17) 0.6086(5)
C13B C 0.5140(5) 0.47168(17) 0.5003(5)
H10B H 0.4245 0.4478 0.4285
C14B C -0.6814(5) 0.44641(17) 0.0241(5)
C15B C -0.5135(5) 0.48037(16) 0.0532(5)
H11B H -0.4202 0.4733 0.1545
loop_
_geom_bond_atom_site_label_1
_geom_bond_atom_site_label_2
_geom_bond_site_symmetry_1
_geom_bond_site_symmetry_2
Zn1 O1 1_555 1_555
O1 C12 1_555 1_555
O2 Zn1 1_555 1_555
O3 Zn1 1_555 1_555
O4 C14 1_555 1_555
O5 C11 1_555 1_555
N1 Zn1 1_555 1_555
N2 H1 1_555 1_555
N3 C9 1_555 1_555
C1 N1 1_555 1_555
H2 C1 1_555 1_555
C2 C1 1_555 1_555
H3 C2 1_555 1_555
C3 N2 1_555 1_555
C4 C3 1_555 1_555
H4 C4 1_555 1_555
C5 N1 1_555 1_555
H5 C5 1_555 1_555
C6 H6 1_555 1_555
C7 C8 1_555 1_555
C8 C6 1_555 1_555
H7 C8 1_555 1_555
C9 C7 1_555 1_555
H8 C9 1_555 1_555
C10 N3 1_555 1_555
H9 C10 1_555 1_555
C11 N2 1_555 1_555
C12 O2 1_555 1_555
C13 C12 1_555 1_555
H10 C13 1_555 1_555
C14 O3 1_555 1_555
C15 C14 1_555 1_555
H11 C15 1_555 1_555
Zn1B O1B 1_555 1_555
Zn1C N3 1_555 1_555
Zn1B_2 O3B 1_555 1_555
Zn1C_2 N1C 1_555 1_555
O1B C12B 1_555 1_555
O2B Zn1B 1_555 1_555
O3B C14B 1_555 1_555
O3B_2 Zn1B 1_555 1_555
O4B C14B 1_555 1_555
O5C C11C 1_555 1_555
N1C C1C 1_555 1_555
N1B Zn1B 1_555 1_555
N2C H1C 1_555 1_555
N3C Zn1 1_555 1_555
N3A Zn1B 1_555 1_555
C1C H2C 1_555 1_555
C2C C1C 1_555 1_555
H3C C2C 1_555 1_555
C3C N2C 1_555 1_555
C4C C3C 1_555 1_555
H4C C4C 1_555 1_555
C5C N1C 1_555 1_555
H5C C5C 1_555 1_555
C6C H6C 1_555 1_555
C7C C8C 1_555 1_555
C8C C6C 1_555 1_555
H7C C8C 1_555 1_555
C9C N3C 1_555 1_555
H8C C9C 1_555 1_555
C10C N3C 1_555 1_555
H9C C10C 1_555 1_555
C11C N2C 1_555 1_555
C12B O2B 1_555 1_555
C13B C13 1_555 1_555
H10B C13B 1_555 1_555
C14B C15B 1_555 1_555
C15B C15 1_555 1_555
H11B C15B 1_555 1_555
C2 C3 1_555 1_555
C4 C5 1_555 1_555
C6 C10 1_555 1_555
C7 C11 1_555 1_555
C2C C3C 1_555 1_555
C4C C5C 1_555 1_555
C6C C10C 1_555 1_555
C7C C9C 1_555 1_555
C7C C11C 1_555 1_555
C12B C13B 1_555 1_555

#END
