
#######################################################################
#
#                 Cambridge Crystallographic Data Centre
#                                CCDC 
#
#######################################################################
#
# If this CIF has been generated from an entry in the Cambridge 
# Structural Database, then it will include bibliographic, chemical, 
# crystal, experimental, refinement or atomic coordinate data resulting 
# from the CCDC's data processing and validation procedures.
#
#######################################################################

data_WELNIL
_symmetry_cell_setting           orthorhombic
_symmetry_space_group_name_H-M   'C c c m'
_symmetry_Int_Tables_number      66
_space_group_name_Hall           '-C 2 2n'
loop_
_symmetry_equiv_pos_site_id
_symmetry_equiv_pos_as_xyz
1 x,y,z
2 1/2+x,1/2+y,z
3 -x,-y,z
4 -x,y,1/2-z
5 x,-y,1/2-z
6 1/2-x,1/2-y,z
7 1/2-x,1/2+y,1/2-z
8 1/2+x,1/2-y,1/2-z
9 -x,-y,-z
10 1/2-x,1/2-y,-z
11 x,y,-z
12 x,-y,1/2+z
13 -x,y,1/2+z
14 1/2+x,1/2+y,-z
15 1/2+x,1/2-y,1/2+z
16 1/2-x,1/2+y,1/2+z
_cell_length_a                   13.964(3)
_cell_length_b                   16.187(3)
_cell_length_c                   7.5800(15)
_cell_angle_alpha                90
_cell_angle_beta                 90
_cell_angle_gamma                90
_cell_volume                     1713.35
loop_
_atom_site_label
_atom_site_type_symbol
_atom_site_fract_x
_atom_site_fract_y
_atom_site_fract_z
Mn1 Mn 0.2500 0.2500 0.5000
N1 N 0.22646(13) 0.39182(11) 0.5000
C1 C 0.14196(17) 0.43466(14) 0.5000
N2 N 0.13587(15) 0.51850(12) 0.5000
H1 H 0.0802 0.5439 0.5000
C2 C 0.2177(2) 0.56038(16) 0.5000
H2 H 0.2148 0.6190 0.5000
C3 C 0.3073(2) 0.52295(15) 0.5000
H3 H 0.3650 0.5540 0.5000
C4 C 0.30703(17) 0.43742(14) 0.5000
H4 H 0.3668 0.4095 0.5000
N3 N 0.05944(14) 0.39244(12) 0.5000
H5 H 0.0045 0.4191 0.5000
H6 H 0.0602 0.3381 0.5000
N4 N 0.14207(10) 0.23304(8) 0.28817(17)
C5 C 0.10842(10) 0.22669(9) 0.14933(19)
N5 N 0.06241(14) 0.21755(15) 0.0000
Mn1_2 Mn 0.2500 0.2500 -0.5000
Mn1_3 Mn 0.2500 0.2500 1.5000
N1I N 0.27354(13) 0.10818(11) 0.5000
C1I C 0.35804(17) 0.06534(14) 0.5000
N2I N 0.36413(15) -0.01850(12) 0.5000
H1I H 0.4198 -0.0439 0.5000
C2I C 0.2823(2) -0.06038(16) 0.5000
H2I H 0.2852 -0.1190 0.5000
C3I C 0.1927(2) -0.02295(15) 0.5000
H3I H 0.1350 -0.0540 0.5000
C4I C 0.19297(17) 0.06258(14) 0.5000
H4I H 0.1332 0.0905 0.5000
N3I N 0.44056(14) 0.10756(12) 0.5000
H5I H 0.4955 0.0809 0.5000
H6I H 0.4398 0.1619 0.5000
N4J N 0.14207(10) 0.23304(8) -0.28817(17)
N4J_2 N 0.14207(10) 0.23304(8) 0.71183(17)
N4_2 N 0.14207(10) 0.23304(8) 1.28817(17)
N4I N 0.35793(10) 0.26696(8) 0.71183(17)
N4E N 0.35793(10) 0.26696(8) 0.28817(17)
C5J C 0.10842(10) 0.22669(9) -0.14933(19)
C5J_2 C 0.10842(10) 0.22669(9) 0.85067(19)
C5_2 C 0.10842(10) 0.22669(9) 1.14933(19)
N5_2 N 0.06241(14) 0.21755(15) 1.0000
loop_
_geom_bond_atom_site_label_1
_geom_bond_atom_site_label_2
_geom_bond_site_symmetry_1
_geom_bond_site_symmetry_2
Mn1 N1 1_555 1_555
N1 C1 1_555 1_555
C1 N2 1_555 1_555
N2 H1 1_555 1_555
C2 N2 1_555 1_555
H2 C2 1_555 1_555
C3 C2 1_555 1_555
H3 C3 1_555 1_555
C4 N1 1_555 1_555
H4 C4 1_555 1_555
N3 C1 1_555 1_555
H5 N3 1_555 1_555
H6 N3 1_555 1_555
N4 Mn1 1_555 1_555
C5 N4 1_555 1_555
N5 C5 1_555 1_555
Mn1_2 N4J 1_555 1_555
Mn1_3 N4_2 1_555 1_555
N1I Mn1 1_555 1_555
C1I N1I 1_555 1_555
N2I C1I 1_555 1_555
H1I N2I 1_555 1_555
C2I N2I 1_555 1_555
H2I C2I 1_555 1_555
C3I C2I 1_555 1_555
H3I C3I 1_555 1_555
C4I N1I 1_555 1_555
H4I C4I 1_555 1_555
N3I C1I 1_555 1_555
H5I N3I 1_555 1_555
H6I N3I 1_555 1_555
N4J C5J 1_555 1_555
N4J_2 Mn1 1_555 1_555
N4_2 C5_2 1_555 1_555
N4I Mn1 1_555 1_555
N4E Mn1 1_555 1_555
C5J N5 1_555 1_555
C5J_2 N4J_2 1_555 1_555
C5_2 N5_2 1_555 1_555
N5_2 C5J_2 1_555 1_555
C3 C4 1_555 1_555
C3I C4I 1_555 1_555

#END
