
#######################################################################
#
#                 Cambridge Crystallographic Data Centre
#                                CCDC 
#
#######################################################################
#
# If this CIF has been generated from an entry in the Cambridge 
# Structural Database, then it will include bibliographic, chemical, 
# crystal, experimental, refinement or atomic coordinate data resulting 
# from the CCDC's data processing and validation procedures.
#
#######################################################################

data_WELYET
_symmetry_cell_setting           triclinic
_symmetry_space_group_name_H-M   'P -1'
_symmetry_Int_Tables_number      2
_space_group_name_Hall           '-P 1'
loop_
_symmetry_equiv_pos_site_id
_symmetry_equiv_pos_as_xyz
1 x,y,z
2 -x,-y,-z
_cell_length_a                   14.9671(7)
_cell_length_b                   17.1019(8)
_cell_length_c                   17.3543(8)
_cell_angle_alpha                87.020(1)
_cell_angle_beta                 77.318(1)
_cell_angle_gamma                74.0413(4)
_cell_volume                     4166.55
loop_
_atom_site_label
_atom_site_type_symbol
_atom_site_fract_x
_atom_site_fract_y
_atom_site_fract_z
U1 U 0.365327(7) 0.966514(6) 0.126149(5)
P1 P 0.20745(5) 0.97101(4) 0.41522(4)
P2 P 0.18631(5) 0.75284(4) 0.06137(4)
P3 P 0.43769(5) 0.87350(4) -0.21313(4)
O1 O 0.46122(13) 0.88757(11) 0.14704(12)
O2 O 0.26904(13) 1.04414(11) 0.10499(11)
O3 O 0.33231(13) 1.00937(11) 0.25624(10)
O4 O 0.24432(15) 1.13840(12) 0.27192(11)
O5 O 0.25154(13) 0.89565(11) 0.20058(10)
O6 O 0.30224(13) 0.86362(11) 0.07463(11)
O7 O 0.43338(15) 0.95419(13) -0.00676(11)
O8 O 0.54190(13) 0.93841(11) -0.11834(10)
C1 C 0.1461(2) 0.82660(18) -0.00827(16)
H1 H 0.1423 0.7997 -0.0541
H2 H 0.1898 0.8593 -0.0233
H3 H 0.0843 0.8607 0.0150
C2 C 0.27678(19) 1.07144(17) 0.29735(15)
C3 C 0.2562(2) 1.05577(16) 0.38621(15)
H4 H 0.2120 1.1043 0.4126
H5 H 0.3149 1.0466 0.4046
C4 C 0.1079(2) 0.97813(18) 0.37291(17)
H6 H 0.1278 0.9754 0.3164
H7 H 0.0611 1.0289 0.3883
H8 H 0.0808 0.9340 0.3911
C5 C 0.2926(2) 0.87721(16) 0.38474(17)
H9 H 0.2659 0.8331 0.4041
H10 H 0.3481 0.8730 0.4055
H11 H 0.3098 0.8747 0.3281
C6 C 0.1729(2) 0.97516(19) 0.52043(16)
H12 H 0.1452 0.9314 0.5389
H13 H 0.1271 1.0262 0.5367
H14 H 0.2277 0.9701 0.5424
C7 C 0.25031(18) 0.85662(16) 0.14115(16)
C8 C 0.18626(19) 0.80114(16) 0.15092(15)
H15 H 0.1218 0.8323 0.1733
H16 H 0.2054 0.7593 0.1885
C9 C 0.1057(2) 0.69179(18) 0.08861(17)
H17 H 0.0447 0.7251 0.1147
H18 H 0.1295 0.6498 0.1237
H19 H 0.0995 0.6675 0.0421
C10 C 0.3016(2) 0.68931(17) 0.02012(17)
H20 H 0.3218 0.6492 0.0581
H21 H 0.3457 0.7218 0.0065
H22 H 0.2993 0.6626 -0.0264
C11 C 0.46790(18) 0.92649(15) -0.07431(15)
C12 C 0.41617(19) 0.87572(16) -0.10741(14)
H23 H 0.3484 0.8969 -0.0868
H24 H 0.4352 0.8204 -0.0887
C13 C 0.5508(2) 0.80616(17) -0.25188(16)
H25 H 0.5544 0.7535 -0.2286
H26 H 0.5997 0.8269 -0.2399
H27 H 0.5595 0.8016 -0.3081
C14 C 0.3485(2) 0.83484(19) -0.23783(18)
H28 H 0.3571 0.8328 -0.2942
H29 H 0.2868 0.8698 -0.2157
H30 H 0.3535 0.7811 -0.2169
C15 C 0.4280(2) 0.97228(16) -0.25468(16)
H31 H 0.4729 0.9956 -0.2390
H32 H 0.3647 1.0063 -0.2362
H33 H 0.4413 0.9681 -0.3112
U1A U 0.634673(7) 1.033486(6) -0.126149(5)
O8A O 0.45810(13) 1.06159(11) 0.11834(10)
U2 U 0.388987(7) 0.444916(6) 0.131598(5)
P4 P 0.21667(5) 0.39873(4) 0.43026(4)
P5 P 0.15546(5) 0.27752(4) 0.12847(4)
P6 P 0.45507(5) 0.34509(4) -0.20637(4)
O9 O 0.49381(13) 0.36581(12) 0.13115(11)
O10 O 0.28416(14) 0.52472(11) 0.13387(11)
O11 O 0.39177(14) 0.48554(12) 0.26516(11)
O12 O 0.31106(13) 0.39750(11) 0.25913(10)
O13 O 0.31433(13) 0.35203(11) 0.10137(10)
O14 O 0.42748(13) 0.24802(11) 0.03624(11)
O15 O 0.42357(14) 0.45875(12) -0.00469(11)
O16 O 0.52253(14) 0.45596(12) -0.12055(10)
C16 C 0.34017(19) 0.44155(16) 0.29922(15)
C17 C 0.31391(19) 0.44146(17) 0.38807(15)
H34 H 0.2976 0.4971 0.4069
H35 H 0.3694 0.4113 0.4075
C18 C 0.11133(19) 0.44963(17) 0.39728(17)
H36 H 0.1251 0.4513 0.3406
H37 H 0.0882 0.5041 0.4182
H38 H 0.0638 0.4209 0.4152
C19 C 0.1949(2) 0.4117(2) 0.53431(16)
H39 H 0.1754 0.4687 0.5471
H40 H 0.2520 0.3863 0.5526
H41 H 0.1455 0.3872 0.5594
C20 C 0.2484(2) 0.29347(16) 0.40651(17)
H42 H 0.1988 0.2701 0.4337
H43 H 0.3067 0.2666 0.4225
H44 H 0.2568 0.2868 0.3506
C21 C 0.34795(19) 0.27755(16) 0.07530(15)
C22 C 0.27905(18) 0.22494(15) 0.09637(15)
H45 H 0.2980 0.1881 0.1379
H46 H 0.2858 0.1920 0.0505
C23 C 0.1198(2) 0.34982(18) 0.05552(16)
H47 H 0.1361 0.3231 0.0051
H48 H 0.1518 0.3918 0.0528
H49 H 0.0522 0.3735 0.0695
C24 C 0.13429(19) 0.32515(16) 0.22163(15)
H50 H 0.0679 0.3524 0.2379
H51 H 0.1708 0.3640 0.2175
H52 H 0.1528 0.2848 0.2599
C25 C 0.0884(2) 0.20477(17) 0.13944(17)
H53 H 0.1073 0.1659 0.1787
H54 H 0.0997 0.1772 0.0900
H55 H 0.0219 0.2319 0.1555
C26 C 0.45706(19) 0.43434(16) -0.07418(15)
C27 C 0.41245(19) 0.37568(16) -0.10421(14)
H56 H 0.3444 0.4004 -0.0956
H57 H 0.4221 0.3271 -0.0722
C28 C 0.43608(19) 0.42844(16) -0.27204(15)
H58 H 0.4695 0.4662 -0.2622
H59 H 0.3693 0.4552 -0.2638
H60 H 0.4593 0.4090 -0.3256
C29 C 0.57787(19) 0.29251(17) -0.22350(17)
H61 H 0.5983 0.2703 -0.2761
H62 H 0.5878 0.2492 -0.1862
H63 H 0.6138 0.3296 -0.2175
C30 C 0.3883(2) 0.27707(17) -0.22056(16)
H64 H 0.3223 0.3062 -0.2135
H65 H 0.3956 0.2340 -0.1828
H66 H 0.4110 0.2545 -0.2730
U2A U 0.611013(7) 0.555084(6) -0.131598(5)
O16A O 0.47747(14) 0.54404(12) 0.12055(10)
S1 S 0.15318(5) 0.68493(5) 0.38992(5)
S2 S 0.02170(5) 0.76726(5) 0.51837(5)
F1 F 0.14022(16) 0.66784(12) 0.59382(12)
F2 F 0.14305(14) 0.79166(12) 0.59588(11)
F3 F 0.02640(15) 0.75445(14) 0.66694(11)
F4 F 0.04477(14) 0.73836(11) 0.28707(11)
F5 F 0.12213(14) 0.61190(11) 0.27594(11)
F6 F -0.00144(13) 0.65183(12) 0.36863(10)
N1 N 0.09928(18) 0.76457(14) 0.44009(14)
O17 O 0.16873(16) 0.61151(13) 0.43399(14)
O18 O 0.23055(17) 0.70197(17) 0.33386(15)
O19 O -0.02866(17) 0.70732(17) 0.52477(13)
O20 O -0.02961(18) 0.85057(15) 0.53368(14)
C31 C 0.0741(2) 0.67204(19) 0.32746(18)
C32 C 0.0873(2) 0.7434(2) 0.59793(19)
S3 S 0.48913(5) 0.28966(5) 0.52815(4)
S4 S 0.46269(5) 0.13926(5) 0.49620(4)
F7 F 0.36579(17) 0.15854(13) 0.64204(10)
F8 F 0.35890(14) 0.05455(11) 0.58244(11)
F9 F 0.27934(14) 0.17321(13) 0.55554(12)
F16 F 0.57684(16) 0.32292(14) 0.38846(11)
F17 F 0.64317(15) 0.33630(15) 0.48339(13)
F18 F 0.65512(13) 0.21697(13) 0.44074(12)
N2 N 0.44532(17) 0.23477(15) 0.48582(13)
O21 O 0.43091(15) 0.37114(12) 0.52997(12)
O22 O 0.52071(14) 0.25754(12) 0.59821(11)
O23 O 0.54428(16) 0.09672(13) 0.52557(13)
O24 O 0.44488(15) 0.10825(13) 0.42767(11)
C33 C 0.5972(2) 0.2917(2) 0.45611(19)
C34 C 0.3606(2) 0.13154(19) 0.57426(17)
S5 S 0.14160(5) 0.07356(5) 0.90070(4)
S6 S 0.09018(5) 0.04257(4) 0.76266(4)
F10 F 0.24639(13) 0.14704(11) 0.79590(11)
F11 F 0.14611(15) 0.22615(11) 0.88614(13)
F12 F 0.27205(14) 0.14355(13) 0.91329(12)
F13 F 0.04883(15) -0.08775(11) 0.72924(12)
F14 F -0.05140(13) -0.01786(12) 0.82602(13)
F15 F 0.08459(14) -0.09114(11) 0.84278(11)
N3 N 0.06941(16) 0.08993(14) 0.84387(14)
O25 O 0.08947(15) 0.09709(14) 0.97896(12)
O26 O 0.21534(14) -0.00129(12) 0.88882(12)
O27 O 0.18754(15) 0.00678(13) 0.72785(12)
O28 O 0.02917(16) 0.08990(12) 0.71492(12)
C35 C 0.2048(2) 0.15182(19) 0.87179(19)
C36 C 0.0398(2) -0.04336(18) 0.79229(19)
S7 S 0.88445(5) 0.50318(4) 0.24960(4)
S8 S 0.82659(5) 0.40782(4) 0.15491(4)
F19 F 1.03836(14) 0.52605(12) 0.15697(12)
F20 F 0.93800(14) 0.63457(11) 0.21269(12)
F21 F 0.90994(18) 0.57927(14) 0.11530(12)
F22 F 0.72129(13) 0.39965(12) 0.29630(11)
F23 F 0.68032(15) 0.35064(13) 0.20160(14)
F24 F 0.80415(15) 0.28350(11) 0.24472(13)
N4 N 0.90095(16) 0.42344(14) 0.19957(13)
O29 O 0.78922(14) 0.55292(12) 0.27075(13)
O30 O 0.75939(14) 0.47774(12) 0.13337(12)
O31 O 0.87571(16) 0.34586(14) 0.09673(13)
O32 O 0.94011(14) 0.48362(12) 0.30804(11)
C37 C 0.9462(2) 0.5641(2) 0.17889(19)
C38 C 0.7542(2) 0.35763(19) 0.2297(2)
loop_
_geom_bond_atom_site_label_1
_geom_bond_atom_site_label_2
_geom_bond_site_symmetry_1
_geom_bond_site_symmetry_2
U1 O1 1_555 1_555
U2 O9 1_555 1_555
P1 C3 1_555 1_555
P2 C1 1_555 1_555
P3 C12 1_555 1_555
P4 C17 1_555 1_555
P5 C22 1_555 1_555
P6 C27 1_555 1_555
S1 N1 1_555 1_555
S2 N1 1_555 1_555
S3 N2 1_555 1_555
S4 N2 1_555 1_555
S5 N3 1_555 1_555
S6 N3 1_555 1_555
S7 N4 1_555 1_555
S8 N4 1_555 1_555
F1 C32 1_555 1_555
F2 C32 1_555 1_555
F3 C32 1_555 1_555
F4 C31 1_555 1_555
F5 C31 1_555 1_555
F6 C31 1_555 1_555
F7 C34 1_555 1_555
F8 C34 1_555 1_555
F9 C34 1_555 1_555
F10 C35 1_555 1_555
F11 C35 1_555 1_555
F12 C35 1_555 1_555
F13 C36 1_555 1_555
F14 C36 1_555 1_555
F15 C36 1_555 1_555
F16 C33 1_555 1_555
F17 C33 1_555 1_555
F18 C33 1_555 1_555
F19 C37 1_555 1_555
F20 C37 1_555 1_555
F21 C37 1_555 1_555
F22 C38 1_555 1_555
F23 C38 1_555 1_555
F24 C38 1_555 1_555
O2 U1 1_555 1_555
O3 U1 1_555 1_555
O4 C2 1_555 1_555
O5 U1 1_555 1_555
O6 U1 1_555 1_555
O7 U1 1_555 1_555
O8 C11 1_555 1_555
O10 U2 1_555 1_555
O11 U2 1_555 1_555
O12 U2 1_555 1_555
O13 U2 1_555 1_555
O14 C21 1_555 1_555
O15 U2 1_555 1_555
O16 C26 1_555 1_555
O17 S1 1_555 1_555
O18 S1 1_555 1_555
O19 S2 1_555 1_555
O20 S2 1_555 1_555
O21 S3 1_555 1_555
O22 S3 1_555 1_555
O23 S4 1_555 1_555
O24 S4 1_555 1_555
O25 S5 1_555 1_555
O26 S5 1_555 1_555
O27 S6 1_555 1_555
O28 S6 1_555 1_555
O29 S7 1_555 1_555
O30 S8 1_555 1_555
O31 S8 1_555 1_555
O32 S7 1_555 1_555
C1 H1 1_555 1_555
H2 C1 1_555 1_555
H3 C1 1_555 1_555
C2 O3 1_555 1_555
C3 C2 1_555 1_555
H4 C3 1_555 1_555
H5 C3 1_555 1_555
C4 P1 1_555 1_555
H6 C4 1_555 1_555
H7 C4 1_555 1_555
H8 C4 1_555 1_555
C5 P1 1_555 1_555
H9 C5 1_555 1_555
H10 C5 1_555 1_555
H11 C5 1_555 1_555
C6 P1 1_555 1_555
H12 C6 1_555 1_555
H13 C6 1_555 1_555
H14 C6 1_555 1_555
C7 O5 1_555 1_555
C8 P2 1_555 1_555
H15 C8 1_555 1_555
H16 C8 1_555 1_555
C9 P2 1_555 1_555
H17 C9 1_555 1_555
H18 C9 1_555 1_555
H19 C9 1_555 1_555
C10 P2 1_555 1_555
H20 C10 1_555 1_555
H21 C10 1_555 1_555
H22 C10 1_555 1_555
C11 O7 1_555 1_555
C12 C11 1_555 1_555
H23 C12 1_555 1_555
H24 C12 1_555 1_555
C13 P3 1_555 1_555
H25 C13 1_555 1_555
H26 C13 1_555 1_555
H27 C13 1_555 1_555
C14 P3 1_555 1_555
H28 C14 1_555 1_555
H29 C14 1_555 1_555
H30 C14 1_555 1_555
C15 P3 1_555 1_555
H31 C15 1_555 1_555
H32 C15 1_555 1_555
H33 C15 1_555 1_555
C16 O11 1_555 1_555
C17 C16 1_555 1_555
H34 C17 1_555 1_555
H35 C17 1_555 1_555
C18 P4 1_555 1_555
H36 C18 1_555 1_555
H37 C18 1_555 1_555
H38 C18 1_555 1_555
C19 P4 1_555 1_555
H39 C19 1_555 1_555
H40 C19 1_555 1_555
H41 C19 1_555 1_555
C20 P4 1_555 1_555
H42 C20 1_555 1_555
H43 C20 1_555 1_555
H44 C20 1_555 1_555
C21 O13 1_555 1_555
C22 C21 1_555 1_555
H45 C22 1_555 1_555
H46 C22 1_555 1_555
C23 P5 1_555 1_555
H47 C23 1_555 1_555
H48 C23 1_555 1_555
H49 C23 1_555 1_555
C24 P5 1_555 1_555
H50 C24 1_555 1_555
H51 C24 1_555 1_555
H52 C24 1_555 1_555
C25 P5 1_555 1_555
H53 C25 1_555 1_555
H54 C25 1_555 1_555
H55 C25 1_555 1_555
C26 O15 1_555 1_555
C27 C26 1_555 1_555
H56 C27 1_555 1_555
H57 C27 1_555 1_555
C28 P6 1_555 1_555
H58 C28 1_555 1_555
H59 C28 1_555 1_555
H60 C28 1_555 1_555
C29 P6 1_555 1_555
H61 C29 1_555 1_555
H62 C29 1_555 1_555
H63 C29 1_555 1_555
C30 P6 1_555 1_555
H64 C30 1_555 1_555
H65 C30 1_555 1_555
H66 C30 1_555 1_555
C31 S1 1_555 1_555
C32 S2 1_555 1_555
C33 S3 1_555 1_555
C34 S4 1_555 1_555
C35 S5 1_555 1_555
C36 S6 1_555 1_555
C37 S7 1_555 1_555
C38 S8 1_555 1_555
U1A O8 1_555 1_555
U2A O16 1_555 1_555
O8A U1 1_555 1_555
O16A U2 1_555 1_555
O6 C7 1_555 1_555
O12 C16 1_555 1_555
C7 C8 1_555 1_555

#END
