
#######################################################################
#
#                 Cambridge Crystallographic Data Centre
#                                CCDC 
#
#######################################################################
#
# If this CIF has been generated from an entry in the Cambridge 
# Structural Database, then it will include bibliographic, chemical, 
# crystal, experimental, refinement or atomic coordinate data resulting 
# from the CCDC's data processing and validation procedures.
#
#######################################################################

data_WEMCIB
_symmetry_cell_setting           orthorhombic
_symmetry_space_group_name_H-M   'P c c n'
_symmetry_Int_Tables_number      56
_space_group_name_Hall           '-P 2ab 2ac'
loop_
_symmetry_equiv_pos_site_id
_symmetry_equiv_pos_as_xyz
1 x,y,z
2 1/2-x,1/2-y,z
3 -x,1/2+y,1/2-z
4 1/2+x,-y,1/2-z
5 -x,-y,-z
6 1/2+x,1/2+y,-z
7 x,1/2-y,1/2+z
8 1/2-x,y,1/2+z
_cell_length_a                   21.618(3)
_cell_length_b                   4.2267(7)
_cell_length_c                   15.212(2)
_cell_angle_alpha                90
_cell_angle_beta                 90
_cell_angle_gamma                90
_cell_volume                     1389.96
loop_
_atom_site_label
_atom_site_type_symbol
_atom_site_fract_x
_atom_site_fract_y
_atom_site_fract_z
I1 I 0.2500 -0.7500 0.540560(16)
Cu1 Cu 0.2500 -0.2500 0.64118(3)
N1 N 0.32400(11) -0.2723(6) 0.72771(15)
C1 C 0.32003(15) -0.1306(8) 0.80683(19)
H1 H 0.2863 0.0083 0.8171
C2 C 0.36210(15) -0.1757(7) 0.87359(19)
H2 H 0.3566 -0.0718 0.9284
C3 C 0.41285(14) -0.3739(8) 0.86065(19)
C4 C 0.41857(14) -0.5085(8) 0.77712(19)
H3 H 0.4536 -0.6348 0.7633
C5 C 0.37329(14) -0.4579(8) 0.71467(19)
H4 H 0.3774 -0.5606 0.6594
C6 C 0.45788(15) -0.4369(8) 0.93171(19)
C7 C 0.51914(15) -0.5100(8) 0.91374(19)
H5 H 0.5326 -0.5188 0.8543
C8 C 0.43902(15) -0.4298(8) 1.0196(2)
H6 H 0.3972 -0.3833 1.0336
I1_2 I 0.2500 0.2500 0.540560(16)
Cu1_2 Cu 0.2500 -1.2500 0.64118(3)
Cu1E Cu 0.7500 -0.7500 1.35882(3)
N1D N 0.67600(11) -0.7277(6) 1.27229(15)
N1A N 0.17600(11) -0.2277(6) 0.72771(15)
C1D C 0.67997(15) -0.8694(8) 1.19317(19)
H1D H 0.7137 -1.0083 1.1829
C2D C 0.63790(15) -0.8243(7) 1.12641(19)
H2D H 0.6434 -0.9282 1.0716
C3D C 0.58715(14) -0.6261(8) 1.13935(19)
C4D C 0.58143(14) -0.4915(8) 1.22288(19)
H3D H 0.5464 -0.3652 1.2367
C5D C 0.62671(14) -0.5421(8) 1.28533(19)
H4D H 0.6226 -0.4394 1.3406
C6D C 0.54212(15) -0.5631(8) 1.06829(19)
C7D C 0.48086(15) -0.4900(8) 1.08626(19)
H5D H 0.4674 -0.4812 1.1457
C8D C 0.56098(15) -0.5702(8) 0.9804(2)
H6D H 0.6028 -0.6167 0.9664
loop_
_geom_bond_atom_site_label_1
_geom_bond_atom_site_label_2
_geom_bond_site_symmetry_1
_geom_bond_site_symmetry_2
I1 Cu1 1_555 1_555
Cu1 N1 1_555 1_555
N1 C1 1_555 1_555
C1 H1 1_555 1_555
C2 C1 1_555 1_555
H2 C2 1_555 1_555
C3 C2 1_555 1_555
C4 C3 1_555 1_555
H3 C4 1_555 1_555
C5 N1 1_555 1_555
H4 C5 1_555 1_555
C6 C3 1_555 1_555
C7 C6 1_555 1_555
H5 C7 1_555 1_555
C8 C6 1_555 1_555
H6 C8 1_555 1_555
I1_2 Cu1 1_555 1_555
Cu1_2 I1 1_555 1_555
Cu1E N1D 1_555 1_555
N1D C1D 1_555 1_555
N1A Cu1 1_555 1_555
C1D H1D 1_555 1_555
C2D C1D 1_555 1_555
H2D C2D 1_555 1_555
C3D C2D 1_555 1_555
C4D C3D 1_555 1_555
H3D C4D 1_555 1_555
C5D N1D 1_555 1_555
H4D C5D 1_555 1_555
C6D C3D 1_555 1_555
C7D C8 1_555 1_555
H5D C7D 1_555 1_555
C8D C7 1_555 1_555
H6D C8D 1_555 1_555
C4 C5 1_555 1_555
C4D C5D 1_555 1_555
C6D C7D 1_555 1_555
C6D C8D 1_555 1_555

#END
