
#######################################################################
#
#                 Cambridge Crystallographic Data Centre
#                                CCDC 
#
#######################################################################
#
# If this CIF has been generated from an entry in the Cambridge 
# Structural Database, then it will include bibliographic, chemical, 
# crystal, experimental, refinement or atomic coordinate data resulting 
# from the CCDC's data processing and validation procedures.
#
#######################################################################

data_WEMCEY
_symmetry_cell_setting           tetragonal
_symmetry_space_group_name_H-M   'I 41/a'
_symmetry_Int_Tables_number      88
_space_group_name_Hall           '-I 4ad'
loop_
_symmetry_equiv_pos_site_id
_symmetry_equiv_pos_as_xyz
1 x,y,z
2 1/2-x,-y,1/2+z
3 3/4-y,1/4+x,1/4+z
4 3/4+y,3/4-x,3/4+z
5 1/2+x,1/2+y,1/2+z
6 -x,1/2-y,z
7 1/4-y,3/4+x,3/4+z
8 1/4+y,1/4-x,1/4+z
9 -x,-y,-z
10 1/2+x,y,1/2-z
11 1/4+y,3/4-x,3/4-z
12 1/4-y,1/4+x,1/4-z
13 1/2-x,1/2-y,1/2-z
14 x,1/2+y,-z
15 3/4+y,1/4-x,1/4-z
16 3/4-y,3/4+x,3/4-z
_cell_length_a                   20.423(3)
_cell_length_b                   20.423(3)
_cell_length_c                   16.226(3)
_cell_angle_alpha                90
_cell_angle_beta                 90
_cell_angle_gamma                90
_cell_volume                     6767.85
loop_
_atom_site_label
_atom_site_type_symbol
_atom_site_fract_x
_atom_site_fract_y
_atom_site_fract_z
Sm1 Sm 0.923628(13) 0.543833(14) -0.161283(15)
Sm2 Sm 0.568600(12) 0.544660(13) -0.081290(15)
O1 O 0.8742(2) 0.6330(2) -0.2344(3)
O2 O 0.7916(2) 0.6627(2) -0.3143(2)
O3 O 0.6525(2) 0.6691(2) -0.2840(2)
O4 O 0.58981(18) 0.6178(2) -0.1941(2)
O5 O 0.96511(18) 0.53266(18) -0.3148(2)
O6 O 0.96457(18) 0.47958(19) -0.4331(2)
O7 O 0.8753(2) 0.3808(2) -0.4953(2)
O8 O 0.7884(2) 0.3308(2) -0.4421(2)
O9 O 1.0111(2) 0.6226(3) -0.1681(3)
H1 H 1.0454 0.6039 -0.1798
H2 H 1.0024 0.6511 -0.2047
O10 O 1.0171(2) 0.4717(3) -0.1639(3)
H3 H 1.0419 0.4827 -0.2011
H4 H 1.0371 0.4741 -0.1181
O11 O 0.4931(2) 0.6361(2) -0.0534(3)
H5 H 0.5135 0.6667 -0.0331
H6 H 0.4637 0.6235 -0.0198
N1 N 0.7982(2) 0.5565(2) -0.1406(3)
N2 N 0.6881(2) 0.5516(2) -0.1256(3)
N3 N 0.8098(2) 0.3769(2) -0.2912(3)
N4 N 0.8754(2) 0.4565(2) -0.2430(3)
C1 C 0.7473(3) 0.5301(3) -0.1011(3)
H7 H 0.7523 0.4991 -0.0595
C2 C 0.7018(3) 0.5955(3) -0.1871(3)
C3 C 0.7690(3) 0.5985(2) -0.1963(3)
C4 C 0.6460(3) 0.6301(3) -0.2254(3)
C5 C 0.8133(3) 0.6343(3) -0.2525(3)
C6 C 0.8278(3) 0.4131(3) -0.2266(3)
H8 H 0.8090 0.4087 -0.1747
C7 C 0.8896(3) 0.4467(3) -0.3254(3)
C8 C 0.8491(3) 0.3974(3) -0.3545(3)
C9 C 0.9413(3) 0.4882(3) -0.3607(3)
C10 C 0.8377(3) 0.3683(3) -0.4371(3)
Sm1G Sm 0.793833(14) 0.326372(13) 0.088717(15)
Sm1F Sm 0.706167(14) 0.673628(13) -0.411283(15)
Sm1A Sm 0.576372(13) 0.456167(14) 0.338717(15)
Sm1I Sm 0.423628(13) 0.543833(14) -0.338717(15)
Sm1A_2 Sm 0.576372(13) 0.456167(14) -0.661283(15)
Sm2G Sm 0.794660(13) 0.681400(12) 0.168710(15)
Sm2I Sm 1.068600(12) 0.544660(13) -0.418710(15)
Sm2A Sm 0.931400(12) 0.455340(13) -0.581290(15)
Sm2F Sm 0.705340(13) 0.318600(12) -0.331290(15)
Sm2H Sm 0.431400(12) 0.455340(13) 0.081290(15)
Sm2O Sm 0.205340(13) 0.318600(12) -0.168710(15)
Sm2J Sm 0.794660(13) 0.181400(12) -0.168710(15)
Sm2A_2 Sm 0.931400(12) 0.455340(13) 0.418710(15)
O1G O 0.8830(2) 0.3758(2) 0.0156(3)
O1A O 0.6258(2) 0.3670(2) 0.2656(3)
O1F O 0.6170(2) 0.6242(2) -0.4844(3)
O2G O 0.9127(2) 0.4584(2) -0.0643(2)
O2A O 0.7084(2) 0.3373(2) 0.1857(2)
O2F O 0.5873(2) 0.5416(2) -0.5643(2)
O2F_2 O 0.5873(2) 0.5416(2) 0.4357(2)
O3G O 0.9191(2) 0.5975(2) -0.0340(2)
O3A O 0.8475(2) 0.3309(2) 0.2160(2)
O3F O 0.5809(2) 0.4025(2) -0.5340(2)
O3F_2 O 0.5809(2) 0.4025(2) 0.4660(2)
O4G O 0.8678(2) 0.66019(18) 0.0559(2)
O4A O 0.91019(18) 0.3822(2) 0.3059(2)
O4F O 0.6322(2) 0.33981(18) -0.4441(2)
O4I O 1.08981(18) 0.6178(2) -0.3059(2)
O4A_2 O 0.91019(18) 0.3822(2) -0.6941(2)
O5I O 0.46511(18) 0.53266(18) -0.1852(2)
O5A O 0.53489(18) 0.46734(18) 0.1852(2)
O5G O 0.78266(18) 0.28489(18) -0.0648(2)
O5F O 0.71734(18) 0.71511(18) -0.5648(2)
O5J O 0.78266(18) 0.78489(18) 0.0648(2)
O5H O 1.03489(18) 0.46734(18) -0.6852(2)
O6I O 0.46457(18) 0.47958(19) -0.0669(2)
O6A O 0.53543(18) 0.52042(19) 0.0669(2)
O6G O 0.72958(19) 0.28543(18) -0.1831(2)
O6J O 0.72958(19) 0.78543(18) 0.1831(2)
O6F O 0.77042(19) 0.71457(18) 0.3169(2)
O6H O 1.03543(18) 0.52042(19) -0.5669(2)
O7I O 0.3753(2) 0.3808(2) -0.0047(2)
O7A O 0.6247(2) 0.6192(2) 0.0047(2)
O7G O 0.6308(2) 0.3747(2) -0.2453(2)
O7F O 0.8692(2) 0.6253(2) 0.2547(2)
O7H O 1.1247(2) 0.6192(2) -0.5047(2)
O8I O 0.2884(2) 0.3308(2) -0.0579(2)
O8A O 0.7116(2) 0.6692(2) 0.0579(2)
O8G O 0.5808(2) 0.4616(2) -0.1921(2)
O8N O 1.0808(2) 0.4616(2) -0.3079(2)
O8F O 0.9192(2) 0.5384(2) -0.6921(2)
O9G O 0.8726(3) 0.2389(2) 0.0819(3)
O9F O 0.6274(3) 0.7611(2) -0.4181(3)
O9A O 0.4889(2) 0.3774(3) 0.3319(3)
H1G H 0.8539 0.2046 0.0702
H1F H 0.6461 0.7954 -0.4298
H1A H 0.4546 0.3961 0.3202
H2G H 0.9011 0.2476 0.0453
H2F H 0.5989 0.7524 -0.4547
H2A H 0.4976 0.3489 0.2953
O10G O 0.7217(3) 0.2329(2) 0.0861(3)
O10F O 0.7783(3) 0.7671(2) -0.4139(3)
O10A O 0.4829(2) 0.5283(3) 0.3361(3)
H3G H 0.7327 0.2081 0.0489
H3F H 0.7673 0.7919 -0.4511
H3A H 0.4581 0.5173 0.2989
H4G H 0.7241 0.2129 0.1319
H4F H 0.7759 0.7871 -0.3681
H4A H 0.4629 0.5259 0.3819
O11G O 0.8861(2) 0.7569(2) 0.1966(3)
O11I O 0.9931(2) 0.6361(2) -0.4466(3)
O11A O 1.0069(2) 0.3639(2) -0.5534(3)
H5G H 0.9167 0.7365 0.2169
H5I H 1.0135 0.6667 -0.4669
H5A H 0.9865 0.3333 -0.5331
H6G H 0.8735 0.7863 0.2302
H6I H 0.9637 0.6235 -0.4802
H6A H 1.0363 0.3765 -0.5198
N1G N 0.8065(2) 0.4518(2) 0.1094(3)
N1A N 0.7018(2) 0.4435(2) 0.3594(3)
N1F N 0.6935(2) 0.5482(2) -0.3906(3)
N2G N 0.8016(2) 0.5619(2) 0.1244(3)
N2A N 0.8119(2) 0.4484(2) 0.3744(3)
N2F N 0.6984(2) 0.4381(2) -0.3756(3)
N2I N 1.1881(2) 0.5516(2) -0.3744(3)
N2A_2 N 0.8119(2) 0.4484(2) -0.6256(3)
N3I N 0.3098(2) 0.3769(2) -0.2088(3)
N3A N 0.6902(2) 0.6231(2) 0.2088(3)
N3G N 0.6269(2) 0.4402(2) -0.0412(3)
N3N N 1.1269(2) 0.4402(2) -0.4588(3)
N3F N 0.8731(2) 0.5598(2) -0.5412(3)
N4I N 0.3754(2) 0.4565(2) -0.2570(3)
N4A N 0.6246(2) 0.5435(2) 0.2570(3)
N4G N 0.7065(2) 0.3746(2) 0.0070(3)
N4F N 0.7935(2) 0.6254(2) -0.4930(3)
C1G C 0.7801(3) 0.5027(3) 0.1489(3)
C1A C 0.7527(3) 0.4699(3) 0.3989(3)
C1F C 0.7199(3) 0.4973(3) -0.3511(3)
H7G H 0.7491 0.4977 0.1905
H7A H 0.7477 0.5009 0.4405
H7F H 0.7509 0.5023 -0.3095
C2G C 0.8455(3) 0.5482(3) 0.0629(3)
C2A C 0.7982(3) 0.4045(3) 0.3129(3)
C2F C 0.6545(3) 0.4518(3) -0.4371(3)
C3G C 0.8485(2) 0.4810(3) 0.0537(3)
C3A C 0.7310(3) 0.4015(2) 0.3037(3)
C3F C 0.6515(2) 0.5190(3) -0.4463(3)
C4G C 0.8801(3) 0.6040(3) 0.0246(3)
C4A C 0.8540(3) 0.3699(3) 0.2746(3)
C4F C 0.6199(3) 0.3960(3) -0.4754(3)
C5G C 0.8843(3) 0.4367(3) -0.0025(3)
C5A C 0.6867(3) 0.3657(3) 0.2475(3)
C5F C 0.6157(3) 0.5633(3) -0.5025(3)
C6I C 0.3278(3) 0.4131(3) -0.2734(3)
C6A C 0.6722(3) 0.5869(3) 0.2734(3)
C6G C 0.6631(3) 0.4222(3) 0.0234(3)
H8I H 0.3090 0.4087 -0.3253
H8A H 0.6910 0.5913 0.3253
H8G H 0.6587 0.4410 0.0753
C7I C 0.3896(3) 0.4467(3) -0.1746(3)
C7A C 0.6104(3) 0.5533(3) 0.1746(3)
C7G C 0.6967(3) 0.3604(3) -0.0754(3)
C8I C 0.3491(3) 0.3974(3) -0.1455(3)
C8A C 0.6509(3) 0.6026(3) 0.1455(3)
C8G C 0.6474(3) 0.4009(3) -0.1045(3)
C9I C 0.4413(3) 0.4882(3) -0.1393(3)
C9A C 0.5587(3) 0.5118(3) 0.1393(3)
C9G C 0.7382(3) 0.3087(3) -0.1107(3)
C10I C 0.3377(3) 0.3683(3) -0.0629(3)
C10A C 0.6623(3) 0.6317(3) 0.0629(3)
C10G C 0.6183(3) 0.4123(3) -0.1871(3)
O12 O 0.9231(4) 0.7239(4) -0.3541(5)
H9 H 0.8845 0.7391 -0.3586
H10 H 0.9485 0.7537 -0.3364
O13 O 1.0024(14) 0.2000(11) -0.3071(14)
H11 H 1.0403 0.1893 -0.2901
H12 H 0.9743 0.1732 -0.2884
O14 O 1.0000 0.2500 0.1250
H13? H 1.0315 0.2257 0.1097
H14? H 0.9907 0.2544 0.0742
loop_
_geom_bond_atom_site_label_1
_geom_bond_atom_site_label_2
_geom_bond_site_symmetry_1
_geom_bond_site_symmetry_2
Sm1 O1 1_555 1_555
Sm2 O4 1_555 1_555
O1 C5 1_555 1_555
O2 C5 1_555 1_555
O3 C4 1_555 1_555
O4 C4 1_555 1_555
O5 Sm1 1_555 1_555
O6 C9 1_555 1_555
O7 C10 1_555 1_555
O8 C10 1_555 1_555
O9 Sm1 1_555 1_555
H1 O9 1_555 1_555
H2 O9 1_555 1_555
O10 Sm1 1_555 1_555
H3 O10 1_555 1_555
H4 O10 1_555 1_555
O11 Sm2 1_555 1_555
H5 O11 1_555 1_555
H6 O11 1_555 1_555
N1 Sm1 1_555 1_555
N2 Sm2 1_555 1_555
N3 C6 1_555 1_555
N4 Sm1 1_555 1_555
C1 N1 1_555 1_555
H7 C1 1_555 1_555
C2 N2 1_555 1_555
C3 N1 1_555 1_555
C4 C2 1_555 1_555
C5 C3 1_555 1_555
C6 N4 1_555 1_555
H8 C6 1_555 1_555
C7 N4 1_555 1_555
C8 N3 1_555 1_555
C9 O5 1_555 1_555
C10 C8 1_555 1_555
O12 H9 1_555 1_555
H10 O12 1_555 1_555
O13 H11 1_555 1_555
H12 O13 1_555 1_555
Sm1G O1G 1_555 1_555
Sm1F O2 1_555 1_555
Sm1A O1A 1_555 1_555
Sm1I O5I 1_555 1_555
Sm1A_2 O2F 1_555 1_555
Sm2G O4G 1_555 1_555
Sm2I O5 1_555 1_555
Sm2A O6 1_555 1_555
Sm2F O8 1_555 1_555
Sm2H O5A 1_555 1_555
Sm2O O8I 1_555 1_555
Sm2J O5G 1_555 1_555
Sm2A_2 O4A 1_555 1_555
O1G C5G 1_555 1_555
O1A C5A 1_555 1_555
O1F Sm1F 1_555 1_555
O2G Sm1 1_555 1_555
O2A Sm1G 1_555 1_555
O2F C5F 1_555 1_555
O2F_2 Sm1A 1_555 1_555
O3G Sm1 1_555 1_555
O3A Sm1G 1_555 1_555
O3F Sm1A_2 1_555 1_555
O3F_2 Sm1A 1_555 1_555
O4G C4G 1_555 1_555
O4A C4A 1_555 1_555
O4F Sm2F 1_555 1_555
O4I Sm2I 1_555 1_555
O4A_2 Sm2A 1_555 1_555
O5I Sm2 1_555 1_555
O5A Sm1A 1_555 1_555
O5G Sm1G 1_555 1_555
O5F Sm1F 1_555 1_555
O5J Sm2G 1_555 1_555
O5H Sm2A 1_555 1_555
O6I Sm2 1_555 1_555
O6A Sm2 1_555 1_555
O6G Sm2F 1_555 1_555
O6J Sm2G 1_555 1_555
O6F Sm2G 1_555 1_555
O6H Sm2I 1_555 1_555
O7I Sm2H 1_555 1_555
O7A Sm2 1_555 1_555
O7G Sm2F 1_555 1_555
O7F Sm2G 1_555 1_555
O7H Sm2I 1_555 1_555
O8I C10I 1_555 1_555
O8A Sm2G 1_555 1_555
O8G Sm2 1_555 1_555
O8N Sm2I 1_555 1_555
O8F Sm2A 1_555 1_555
O9G Sm1G 1_555 1_555
O9F Sm1F 1_555 1_555
O9A Sm1A 1_555 1_555
H1G O9G 1_555 1_555
H1F O9F 1_555 1_555
H1A O9A 1_555 1_555
H2G O9G 1_555 1_555
H2F O9F 1_555 1_555
H2A O9A 1_555 1_555
O10G Sm1G 1_555 1_555
O10F Sm1F 1_555 1_555
O10A Sm1A 1_555 1_555
H3G O10G 1_555 1_555
H3F O10F 1_555 1_555
H3A O10A 1_555 1_555
H4G O10G 1_555 1_555
H4F O10F 1_555 1_555
H4A O10A 1_555 1_555
O11G Sm2G 1_555 1_555
O11I Sm2I 1_555 1_555
O11A Sm2A 1_555 1_555
H5G O11G 1_555 1_555
H5I O11I 1_555 1_555
H5A O11A 1_555 1_555
H6G O11G 1_555 1_555
H6I O11I 1_555 1_555
H6A O11A 1_555 1_555
N1G Sm1G 1_555 1_555
N1A Sm1A 1_555 1_555
N1F Sm1F 1_555 1_555
N2G Sm2G 1_555 1_555
N2A Sm2A_2 1_555 1_555
N2F Sm2F 1_555 1_555
N2I Sm2I 1_555 1_555
N2A_2 Sm2A 1_555 1_555
N3I Sm2O 1_555 1_555
N3A Sm2G 1_555 1_555
N3G Sm2 1_555 1_555
N3N Sm2I 1_555 1_555
N3F Sm2A 1_555 1_555
N4I Sm1I 1_555 1_555
N4A Sm1A 1_555 1_555
N4G Sm1G 1_555 1_555
N4F Sm1F 1_555 1_555
C1G N1G 1_555 1_555
C1A N1A 1_555 1_555
C1F N1F 1_555 1_555
H7G C1G 1_555 1_555
H7A C1A 1_555 1_555
H7F C1F 1_555 1_555
C2G N2G 1_555 1_555
C2A N2A 1_555 1_555
C2F N2F 1_555 1_555
C3G N1G 1_555 1_555
C3A N1A 1_555 1_555
C3F N1F 1_555 1_555
C4G O3G 1_555 1_555
C4A O3A 1_555 1_555
C4F O3F 1_555 1_555
C5G O2G 1_555 1_555
C5A O2A 1_555 1_555
C5F O1F 1_555 1_555
C6I N3I 1_555 1_555
C6A N3A 1_555 1_555
C6G N3G 1_555 1_555
H8I C6I 1_555 1_555
H8A C6A 1_555 1_555
H8G C6G 1_555 1_555
C7I N4I 1_555 1_555
C7A N4A 1_555 1_555
C7G N4G 1_555 1_555
C8I N3I 1_555 1_555
C8A N3A 1_555 1_555
C8G N3G 1_555 1_555
C9I O5I 1_555 1_555
C9A O5A 1_555 1_555
C9G O5G 1_555 1_555
C10I O7I 1_555 1_555
C10A O7A 1_555 1_555
C10G O7G 1_555 1_555
O3 Sm1F 1_555 1_555
O6 Sm2I 1_555 1_555
O7 Sm2A 1_555 1_555
N2 C1 1_555 1_555
N3 Sm2F 1_555 1_555
C2 C3 1_555 1_555
C7 C8 1_555 1_555
C7 C9 1_555 1_555
Sm2A O6H 1_555 1_555
Sm2H O6I 1_555 1_555
Sm2H O6A 1_555 1_555
Sm2J O6G 1_555 1_555
O4F C4F 1_555 1_555
O6I C9I 1_555 1_555
O6A C9A 1_555 1_555
O6G C9G 1_555 1_555
O8A C10A 1_555 1_555
O8G C10G 1_555 1_555
N2G C1G 1_555 1_555
N2A C1A 1_555 1_555
N2F C1F 1_555 1_555
N4I C6I 1_555 1_555
N4A C6A 1_555 1_555
N4G C6G 1_555 1_555
C2G C3G 1_555 1_555
C2G C4G 1_555 1_555
C2A C3A 1_555 1_555
C2A C4A 1_555 1_555
C2F C3F 1_555 1_555
C2F C4F 1_555 1_555
C3G C5G 1_555 1_555
C3A C5A 1_555 1_555
C3F C5F 1_555 1_555
C7I C8I 1_555 1_555
C7I C9I 1_555 1_555
C7A C8A 1_555 1_555
C7A C9A 1_555 1_555
C7G C8G 1_555 1_555
C7G C9G 1_555 1_555
C8I C10I 1_555 1_555
C8A C10A 1_555 1_555
C8G C10G 1_555 1_555

#END
