
#######################################################################
#
#                 Cambridge Crystallographic Data Centre
#                                CCDC 
#
#######################################################################
#
# If this CIF has been generated from an entry in the Cambridge 
# Structural Database, then it will include bibliographic, chemical, 
# crystal, experimental, refinement or atomic coordinate data resulting 
# from the CCDC's data processing and validation procedures.
#
#######################################################################

data_WEMCOH
_symmetry_cell_setting           monoclinic
_symmetry_space_group_name_H-M   'P 2/c'
_symmetry_Int_Tables_number      13
_space_group_name_Hall           '-P 2yc'
loop_
_symmetry_equiv_pos_site_id
_symmetry_equiv_pos_as_xyz
1 x,y,z
2 -x,y,1/2-z
3 -x,-y,-z
4 x,-y,1/2+z
_cell_length_a                   13.624(2)
_cell_length_b                   16.235(3)
_cell_length_c                   30.292(5)
_cell_angle_alpha                90
_cell_angle_beta                 100.617(2)
_cell_angle_gamma                90
_cell_volume                     6585.45
loop_
_atom_site_label
_atom_site_type_symbol
_atom_site_fract_x
_atom_site_fract_y
_atom_site_fract_z
Cu1 Cu 0.79549(16) 0.25653(13) 0.85753(8)
Cu2 Cu 0.75299(15) 0.26985(13) 0.75650(8)
Cu3 Cu 0.21837(15) -0.13496(13) 0.66951(8)
Cu4 Cu 0.22144(16) 0.68286(15) 0.68180(8)
Cu5 Cu 0.33412(16) -0.13386(14) 0.95543(8)
Cu6 Cu 0.33028(16) 0.65016(14) 0.94966(8)
I1 I 0.61350(8) 0.26616(7) 0.80848(4)
I2 I 0.93509(8) 0.26827(7) 0.80824(4)
I3 I 0.18853(9) -0.23748(7) 0.60077(4)
I4 I 0.24898(9) -0.20872(8) 0.74846(4)
I5 I 0.36410(10) -0.24825(7) 1.02023(4)
I6 I 0.29956(9) -0.23650(7) 0.88368(4)
N1 N 0.3551(10) 0.6220(9) 0.6864(5)
N2 N 0.7413(10) 0.3849(9) 0.7281(5)
N3 N 1.0923(10) 0.6242(9) 0.6854(5)
N4 N 0.3493(11) -0.0745(9) 0.6693(5)
N5 N 0.7389(10) 0.1599(8) 0.7218(5)
N6 N 1.0865(10) -0.0745(9) 0.6690(5)
N7 N 0.4625(11) -0.0738(9) 0.9526(5)
N8 N 0.8121(11) 0.1482(9) 0.8924(5)
N9 N 1.2049(11) -0.0722(9) 0.9560(5)
N10 N 0.4577(10) 0.5908(9) 0.9434(5)
N11 N 0.8097(10) 0.3600(9) 0.8957(5)
N12 N 1.2006(11) 0.5909(9) 0.9467(5)
C1 C 0.3589(14) 0.5400(12) 0.6819(7)
H1 H 0.2991 0.5087 0.6752
C2 C 0.4536(13) 0.5001(12) 0.6873(6)
H2 H 0.4574 0.4417 0.6862
C3 C 0.5413(13) 0.5476(11) 0.6942(6)
C4 C 0.5327(14) 0.6299(12) 0.6943(7)
H3 H 0.5901 0.6637 0.6957
C5 C 0.4391(13) 0.6652(12) 0.6922(7)
H4 H 0.4350 0.7233 0.6951
C6 C 0.8216(13) 0.4273(11) 0.7187(6)
H5 H 0.8849 0.4010 0.7257
C7 C 0.8189(13) 0.5047(10) 0.6999(6)
C8 C 0.7261(12) 0.5476(11) 0.6914(6)
H6 H 0.7221 0.6026 0.6805
C9 C 0.6402(13) 0.5062(10) 0.6997(6)
C10 C 0.6528(13) 0.4276(11) 0.7194(6)
H7 H 0.5957 0.4020 0.7273
C11 C 1.0133(13) 0.6694(12) 0.6928(7)
H8 H 1.0184 0.7275 0.6960
C12 C 0.9219(13) 0.6278(11) 0.6958(6)
H9 H 0.8656 0.6595 0.6999
C13 C 0.9134(12) 0.5480(11) 0.6932(6)
C14 C 0.9921(13) 0.5015(12) 0.6853(7)
H10 H 0.9864 0.4434 0.6824
C15 C 1.0811(15) 0.5413(12) 0.6816(7)
H11 H 1.1358 0.5090 0.6762
C16 C 0.4308(13) -0.1129(11) 0.6596(6)
H12 H 0.4230 -0.1666 0.6470
C17 C 0.5250(14) -0.0778(11) 0.6671(7)
H13 H 0.5795 -0.1070 0.6591
C18 C 0.5401(13) 0.0000(10) 0.6863(6)
C19 C 0.4560(13) 0.0393(11) 0.6948(6)
H14 H 0.4614 0.0934 0.7069
C20 C 0.3645(13) 0.0015(11) 0.6859(6)
H15 H 0.3085 0.0313 0.6920
C21 C 0.6522(13) 0.1213(10) 0.7128(6)
H16 H 0.5947 0.1495 0.7185
C22 C 0.6398(12) 0.0404(10) 0.6951(6)
C23 C 0.7258(13) 0.0015(11) 0.6850(6)
H17 H 0.7211 -0.0523 0.6725
C24 C 0.8178(12) 0.0423(9) 0.6935(6)
C25 C 0.8202(14) 0.1217(11) 0.7116(7)
H18 H 0.8821 0.1503 0.7170
C26 C 1.0873(14) 0.0027(11) 0.6861(7)
H19 H 1.1486 0.0318 0.6934
C27 C 1.0005(14) 0.0397(12) 0.6931(7)
H20 H 1.0038 0.0945 0.7041
C28 C 0.9099(13) 0.0014(10) 0.6848(6)
C29 C 0.9097(14) -0.0758(10) 0.6655(7)
H21 H 0.8489 -0.1051 0.6568
C30 C 1.0006(13) -0.1103(12) 0.6589(6)
H22 H 0.9987 -0.1638 0.6461
C31 C 0.5473(13) -0.1142(11) 0.9608(6)
H23 H 0.5471 -0.1693 0.9713
C32 C 0.6383(14) -0.0799(11) 0.9547(6)
H24 H 0.6984 -0.1104 0.9629
C33 C 0.6407(13) 0.0012(10) 0.9362(6)
C34 C 0.5514(13) 0.0408(11) 0.9294(7)
H25 H 0.5484 0.0963 0.9195
C35 C 0.4660(14) 0.0036(11) 0.9365(7)
H26 H 0.4054 0.0338 0.9296
C36 C 0.7281(14) 0.1110(10) 0.9022(6)
H27 H 0.6647 0.1355 0.8918
C37 C 0.7336(13) 0.0375(10) 0.9271(6)
C38 C 0.8280(13) 0.0008(10) 0.9403(6)
H28 H 0.8348 -0.0497 0.9564
C39 C 0.9119(13) 0.0402(10) 0.9293(6)
C40 C 0.9003(14) 0.1128(11) 0.9058(6)
H29 H 0.9579 0.1388 0.8987
C41 C 1.1900(14) 0.0057(11) 0.9473(6)
H30 H 1.2468 0.0385 0.9454
C42 C 1.0980(14) 0.0447(11) 0.9405(7)
H31 H 1.0945 0.1025 0.9357
C43 C 1.0137(13) 0.0017(11) 0.9405(6)
C44 C 1.0272(15) -0.0799(11) 0.9525(7)
H32 H 0.9708 -0.1124 0.9555
C45 C 1.1228(14) -0.1163(12) 0.9604(6)
H33 H 1.1298 -0.1725 0.9690
C46 C 0.4687(14) 0.5102(12) 0.9447(8)
H34 H 0.4130 0.4770 0.9480
C47 C 0.5594(14) 0.4709(12) 0.9415(7)
H35 H 0.5664 0.4130 0.9459
C48 C 0.6367(13) 0.5163(11) 0.9322(7)
C49 C 0.6274(13) 0.6017(11) 0.9311(7)
H36 H 0.6814 0.6356 0.9265
C50 C 0.5361(15) 0.6365(12) 0.9369(8)
H37 H 0.5295 0.6948 0.9362
C51 C 0.8997(13) 0.3945(11) 0.9086(6)
H38 H 0.9578 0.3652 0.9046
C52 C 0.9098(13) 0.4748(11) 0.9282(7)
C53 C 0.8251(13) 0.5156(11) 0.9352(6)
H39 H 0.8298 0.5702 0.9467
C54 C 0.7349(13) 0.4770(10) 0.9257(7)
C55 C 0.7290(14) 0.3989(10) 0.9057(6)
H40 H 0.6658 0.3723 0.8990
C56 C 1.1149(15) 0.6318(12) 0.9380(10)
H41 H 1.1187 0.6897 0.9342
C57 C 1.0204(16) 0.5978(13) 0.9338(9)
H42 H 0.9627 0.6318 0.9299
C58 C 1.0124(13) 0.5149(11) 0.9356(6)
C59 C 1.0948(14) 0.4680(13) 0.9474(8)
H43 H 1.0903 0.4106 0.9526
C60 C 1.1907(16) 0.5095(13) 0.9518(9)
H44 H 1.2496 0.4771 0.9587
Cu3_2 Cu 1.21837(15) -0.13496(13) 0.66951(8)
Cu4_2 Cu 0.22144(16) -0.31714(15) 0.68180(8)
Cu4_3 Cu 1.22144(16) 0.68286(15) 0.68180(8)
Cu5_2 Cu 1.33412(16) -0.13386(14) 0.95543(8)
Cu6_2 Cu 0.33028(16) -0.34984(14) 0.94966(8)
Cu6_3 Cu 1.33028(16) 0.65016(14) 0.94966(8)
I3_2 I 0.18853(9) 0.76252(7) 0.60077(4)
I4_2 I 0.24898(9) 0.79128(8) 0.74846(4)
I5_2 I 0.36410(10) 0.75175(7) 1.02023(4)
I6_2 I 0.29956(9) 0.76350(7) 0.88368(4)
N3_2 N 0.0923(10) 0.6242(9) 0.6854(5)
N6_2 N 0.0865(10) -0.0745(9) 0.6690(5)
N9_2 N 0.2049(11) -0.0722(9) 0.9560(5)
N12_2 N 0.2006(11) 0.5909(9) 0.9467(5)
loop_
_geom_bond_atom_site_label_1
_geom_bond_atom_site_label_2
_geom_bond_site_symmetry_1
_geom_bond_site_symmetry_2
Cu1 I1 1_555 1_555
Cu2 I1 1_555 1_555
Cu3 I3 1_555 1_555
Cu4 N1 1_555 1_555
Cu5 I5 1_555 1_555
Cu6 N10 1_555 1_555
I2 Cu1 1_555 1_555
I3 Cu4_2 1_555 1_555
I4 Cu3 1_555 1_555
I5 Cu6_2 1_555 1_555
I6 Cu5 1_555 1_555
N1 C1 1_555 1_555
N2 Cu2 1_555 1_555
N3 C11 1_555 1_555
N4 Cu3 1_555 1_555
N5 Cu2 1_555 1_555
N6 C26 1_555 1_555
N7 Cu5 1_555 1_555
N8 Cu1 1_555 1_555
N9 C41 1_555 1_555
N10 C46 1_555 1_555
N11 Cu1 1_555 1_555
N12 C56 1_555 1_555
C1 H1 1_555 1_555
C2 C1 1_555 1_555
H2 C2 1_555 1_555
C3 C2 1_555 1_555
C4 C3 1_555 1_555
H3 C4 1_555 1_555
C5 N1 1_555 1_555
H4 C5 1_555 1_555
C6 N2 1_555 1_555
H5 C6 1_555 1_555
C7 C6 1_555 1_555
C8 C7 1_555 1_555
H6 C8 1_555 1_555
C9 C3 1_555 1_555
C10 N2 1_555 1_555
H7 C10 1_555 1_555
C11 H8 1_555 1_555
C12 C11 1_555 1_555
H9 C12 1_555 1_555
C13 C7 1_555 1_555
C14 C13 1_555 1_555
H10 C14 1_555 1_555
C15 N3 1_555 1_555
H11 C15 1_555 1_555
C16 N4 1_555 1_555
H12 C16 1_555 1_555
C17 C16 1_555 1_555
H13 C17 1_555 1_555
C18 C17 1_555 1_555
C19 C18 1_555 1_555
H14 C19 1_555 1_555
C20 N4 1_555 1_555
H15 C20 1_555 1_555
C21 N5 1_555 1_555
H16 C21 1_555 1_555
C22 C18 1_555 1_555
C23 C22 1_555 1_555
H17 C23 1_555 1_555
C24 C23 1_555 1_555
C25 N5 1_555 1_555
H18 C25 1_555 1_555
C26 H19 1_555 1_555
C27 C26 1_555 1_555
H20 C27 1_555 1_555
C28 C24 1_555 1_555
C29 C28 1_555 1_555
H21 C29 1_555 1_555
C30 N6 1_555 1_555
H22 C30 1_555 1_555
C31 N7 1_555 1_555
H23 C31 1_555 1_555
C32 C31 1_555 1_555
H24 C32 1_555 1_555
C33 C32 1_555 1_555
C34 C33 1_555 1_555
H25 C34 1_555 1_555
C35 N7 1_555 1_555
H26 C35 1_555 1_555
C36 N8 1_555 1_555
H27 C36 1_555 1_555
C37 C33 1_555 1_555
C38 C37 1_555 1_555
H28 C38 1_555 1_555
C39 C38 1_555 1_555
C40 N8 1_555 1_555
H29 C40 1_555 1_555
C41 H30 1_555 1_555
C42 C41 1_555 1_555
H31 C42 1_555 1_555
C43 C39 1_555 1_555
C44 C43 1_555 1_555
H32 C44 1_555 1_555
C45 N9 1_555 1_555
H33 C45 1_555 1_555
C46 H34 1_555 1_555
C47 C46 1_555 1_555
H35 C47 1_555 1_555
C48 C47 1_555 1_555
C49 C48 1_555 1_555
H36 C49 1_555 1_555
C50 N10 1_555 1_555
H37 C50 1_555 1_555
C51 N11 1_555 1_555
H38 C51 1_555 1_555
C52 C51 1_555 1_555
C53 C52 1_555 1_555
H39 C53 1_555 1_555
C54 C48 1_555 1_555
C55 N11 1_555 1_555
H40 C55 1_555 1_555
C56 H41 1_555 1_555
C57 C56 1_555 1_555
H42 C57 1_555 1_555
C58 C52 1_555 1_555
C59 C58 1_555 1_555
H43 C59 1_555 1_555
C60 N12 1_555 1_555
H44 C60 1_555 1_555
Cu3_2 N6 1_555 1_555
Cu4_2 I4 1_555 1_555
Cu4_3 N3 1_555 1_555
Cu5_2 N9 1_555 1_555
Cu6_2 I6 1_555 1_555
Cu6_3 N12 1_555 1_555
I3_2 Cu4 1_555 1_555
I4_2 Cu4 1_555 1_555
I5_2 Cu6 1_555 1_555
I6_2 Cu6 1_555 1_555
N3_2 Cu4 1_555 1_555
N6_2 Cu3 1_555 1_555
N9_2 Cu5 1_555 1_555
N12_2 Cu6 1_555 1_555
Cu2 I2 1_555 1_555
C4 C5 1_555 1_555
C8 C9 1_555 1_555
C9 C10 1_555 1_555
C12 C13 1_555 1_555
C14 C15 1_555 1_555
C19 C20 1_555 1_555
C21 C22 1_555 1_555
C24 C25 1_555 1_555
C27 C28 1_555 1_555
C29 C30 1_555 1_555
C34 C35 1_555 1_555
C36 C37 1_555 1_555
C39 C40 1_555 1_555
C42 C43 1_555 1_555
C44 C45 1_555 1_555
C49 C50 1_555 1_555
C53 C54 1_555 1_555
C54 C55 1_555 1_555
C57 C58 1_555 1_555
C59 C60 1_555 1_555

#END
