
#######################################################################
#
#                 Cambridge Crystallographic Data Centre
#                                CCDC 
#
#######################################################################
#
# If this CIF has been generated from an entry in the Cambridge 
# Structural Database, then it will include bibliographic, chemical, 
# crystal, experimental, refinement or atomic coordinate data resulting 
# from the CCDC's data processing and validation procedures.
#
#######################################################################

data_WEMDAV
_symmetry_cell_setting           tetragonal
_symmetry_space_group_name_H-M   'I 41/a'
_symmetry_Int_Tables_number      88
_space_group_name_Hall           '-I 4ad'
loop_
_symmetry_equiv_pos_site_id
_symmetry_equiv_pos_as_xyz
1 x,y,z
2 1/2-x,-y,1/2+z
3 3/4-y,1/4+x,1/4+z
4 3/4+y,3/4-x,3/4+z
5 1/2+x,1/2+y,1/2+z
6 -x,1/2-y,z
7 1/4-y,3/4+x,3/4+z
8 1/4+y,1/4-x,1/4+z
9 -x,-y,-z
10 1/2+x,y,1/2-z
11 1/4+y,3/4-x,3/4-z
12 1/4-y,1/4+x,1/4-z
13 1/2-x,1/2-y,1/2-z
14 x,1/2+y,-z
15 3/4+y,1/4-x,1/4-z
16 3/4-y,3/4+x,3/4-z
_cell_length_a                   20.2130(15)
_cell_length_b                   20.2130(15)
_cell_length_c                   16.001(2)
_cell_angle_alpha                90
_cell_angle_beta                 90
_cell_angle_gamma                90
_cell_volume                     6537.45
loop_
_atom_site_label
_atom_site_type_symbol
_atom_site_fract_x
_atom_site_fract_y
_atom_site_fract_z
Dy1 Dy 0.293290(16) 0.327101(15) -0.090546(18)
Dy2 Dy 0.430958(15) 0.455952(15) -0.419419(18)
O1 O 0.3486(2) 0.3312(2) -0.2156(3)
O2 O 0.4114(2) 0.3827(2) -0.3076(3)
O3 O 0.1247(2) 0.3677(3) -0.2665(3)
O4 O 0.2081(2) 0.3362(3) -0.1871(3)
O5 O 0.2833(2) 0.2846(2) 0.0630(3)
O6 O 0.2294(2) 0.2837(2) 0.1825(3)
O7 O 0.0810(2) 0.4627(2) 0.1921(3)
O8 O 0.1313(2) 0.3747(2) 0.2464(3)
O9 O 0.2235(3) 0.2336(3) -0.0879(3)
H1 H 0.1997 0.2337 -0.1293
H2 H 0.1996 0.2349 -0.0441
O10 O 0.3713(3) 0.2411(3) -0.0815(3)
H3 H 0.3708 0.2194 -0.1248
H4 H 0.3613 0.2161 -0.0406
O11 O 0.5058(3) 0.3662(3) -0.4490(3)
H5 H 0.5346 0.3789 -0.4815
H6 H 0.5238 0.3534 -0.4038
N1 N 0.2020(3) 0.4448(3) -0.3616(3)
N2 N 0.3131(3) 0.4491(3) -0.3767(3)
N3 N 0.1263(3) 0.4407(3) 0.0388(3)
N4 N 0.2061(3) 0.3743(3) -0.0095(3)
C1 C 0.2533(3) 0.4714(3) -0.4014(4)
H7 H 0.2483 0.5031 -0.4431
C2 C 0.2990(3) 0.4052(3) -0.3145(4)
C3 C 0.2305(3) 0.4024(3) -0.3051(4)
C4 C 0.3551(3) 0.3701(3) -0.2758(4)
C5 C 0.1863(3) 0.3663(3) -0.2493(4)
C6 C 0.1625(4) 0.4224(3) -0.0253(4)
H8 H 0.1581 0.4415 -0.0779
C7 C 0.1963(3) 0.3593(3) 0.0732(4)
C8 C 0.1464(3) 0.4010(3) 0.1030(4)
C9 C 0.2382(3) 0.3071(3) 0.1098(4)
C10 C 0.1188(3) 0.4125(3) 0.1872(4)
Dy1B Dy 0.422899(15) 0.543290(16) 0.159454(18)
Dy1C Dy 0.077101(15) 0.456710(16) -0.340546(18)
Dy1A Dy 0.206710(16) 0.672899(15) 0.409454(18)
Dy1J Dy 0.577101(15) 0.456710(16) -0.159454(18)
Dy1B_2 Dy 0.422899(15) 0.543290(16) -0.840546(18)
Dy1A_2 Dy 0.206710(16) 0.672899(15) -0.590546(18)
Dy2B Dy 0.294048(15) 0.680958(15) -0.169419(18)
Dy2O Dy 0.294048(15) 0.180958(15) 0.169419(18)
Dy2C Dy 0.205952(15) 0.319042(15) 0.330581(18)
Dy2A Dy 0.069042(15) 0.544048(15) 0.080581(18)
Dy2H Dy 0.569042(15) 0.544048(15) -0.580581(18)
Dy2K Dy 0.794048(15) 0.680958(15) -0.330581(18)
Dy2C_2 Dy 0.205952(15) 0.319042(15) -0.669419(18)
Dy2N Dy 0.205952(15) 0.819042(15) -0.330581(18)
O1B O 0.4188(2) 0.5986(2) 0.0344(3)
O1A O 0.1514(2) 0.6688(2) 0.2844(3)
O1C O 0.0812(2) 0.4014(2) -0.4656(3)
O2B O 0.3673(2) 0.6614(2) -0.0576(3)
O2A O 0.0886(2) 0.6173(2) 0.1924(3)
O2C O 0.1327(2) 0.3386(2) -0.5576(3)
O2O O 0.3673(2) 0.1614(2) 0.0576(3)
O2C_2 O 0.1327(2) 0.3386(2) 0.4424(3)
O3B O 0.3823(3) 0.3747(2) -0.0165(3)
O3A O 0.3753(2) 0.6323(3) 0.2335(3)
O3C O 0.1177(3) 0.6253(2) -0.5165(3)
O3C_2 O 0.1177(3) 0.6253(2) 0.4835(3)
O4B O 0.4138(3) 0.4581(2) 0.0629(3)
O4A O 0.2919(2) 0.6638(3) 0.3129(3)
O4C O 0.0862(3) 0.5419(2) -0.4371(3)
O5J O 0.5346(2) 0.4667(2) -0.3130(3)
O5B O 0.4654(2) 0.5333(2) -0.6870(3)
O5A O 0.2167(2) 0.7154(2) -0.4370(3)
O5B_2 O 0.4654(2) 0.5333(2) 0.3130(3)
O5C O 0.0346(2) 0.4667(2) -0.1870(3)
O5M O 0.2833(2) 0.7846(2) -0.0630(3)
O5L O 0.2167(2) 0.2154(2) 0.4370(3)
O5A_2 O 0.2167(2) 0.7154(2) 0.5630(3)
O6J O 0.5337(2) 0.5206(2) -0.4325(3)
O6B O 0.4663(2) 0.4794(2) -0.5675(3)
O6A O 0.2706(2) 0.7163(2) -0.3175(3)
O6M O 0.2294(2) 0.7837(2) -0.1825(3)
O6L O 0.2706(2) 0.2163(2) 0.3175(3)
O7J O 0.7127(2) 0.6690(2) -0.4421(3)
O7B O 0.2873(2) 0.3310(2) -0.5579(3)
O7A O 0.4190(2) 0.5373(2) -0.3079(3)
O7C O 0.2127(2) 0.6690(2) -0.0579(3)
O7N O 0.2127(2) 0.1690(2) 0.0579(3)
O7B_2 O 0.2873(2) 0.3310(2) 0.4421(3)
O8J O 0.6247(2) 0.6187(2) -0.4964(3)
O8B O 0.3753(2) 0.3813(2) -0.5036(3)
O8A O 0.3687(2) 0.6253(2) -0.2536(3)
O8L O 0.3687(2) 0.1253(2) 0.2536(3)
O9B O 0.5164(3) 0.4735(3) 0.1621(3)
O9C O -0.0164(3) 0.5265(3) -0.3379(3)
O9A O 0.2765(3) 0.7664(3) 0.4121(3)
H1B H 0.5163 0.4497 0.1207
H1C H -0.0163 0.5503 -0.3793
H1A H 0.3003 0.7663 0.3707
H2B H 0.5151 0.4496 0.2059
H2C H -0.0151 0.5504 -0.2941
H2A H 0.3004 0.7651 0.4559
O10B O 0.5089(3) 0.6213(3) 0.1685(3)
O10C O -0.0089(3) 0.3787(3) -0.3315(3)
O10A O 0.1287(3) 0.7589(3) 0.4185(3)
H3B H 0.5306 0.6208 0.1252
H3C H -0.0306 0.3792 -0.3748
H3A H 0.1292 0.7806 0.3752
H4B H 0.5339 0.6113 0.2094
H4C H -0.0339 0.3887 -0.2906
H4A H 0.1387 0.7839 0.4594
O11B O 0.3838(3) 0.7558(3) -0.1990(3)
O11O O 0.3838(3) 0.2558(3) 0.1990(3)
O11C O 0.1162(3) 0.2442(3) 0.3010(3)
H5B H 0.3711 0.7846 -0.2315
H5O H 0.3711 0.2846 0.2315
H5C H 0.1289 0.2154 0.2685
H6B H 0.3966 0.7738 -0.1538
H6O H 0.3966 0.2738 0.1538
H6C H 0.1034 0.2262 0.3462
N1B N 0.3052(3) 0.4520(3) -0.1116(3)
N1A N 0.2980(3) 0.5552(3) 0.1384(3)
N1C N 0.1948(3) 0.5480(3) -0.6116(3)
N1C_2 N 0.1948(3) 0.5480(3) 0.3884(3)
N2B N 0.3009(3) 0.5631(3) -0.1267(3)
N2A N 0.1869(3) 0.5509(3) 0.1233(3)
N2C N 0.1991(3) 0.4369(3) -0.6267(3)
N2O N 0.3009(3) 0.0631(3) 0.1267(3)
N2C_2 N 0.1991(3) 0.4369(3) 0.3733(3)
N3J N 0.6907(3) 0.6237(3) -0.2888(3)
N3B N 0.3093(3) 0.3763(3) -0.7112(3)
N3A N 0.3737(3) 0.5593(3) -0.4612(3)
N3C N 0.1907(3) 0.6237(3) -0.2112(3)
N3N N 0.1907(3) 0.1237(3) 0.2112(3)
N3B_2 N 0.3093(3) 0.3763(3) 0.2888(3)
N4J N 0.6243(3) 0.5439(3) -0.2405(3)
N4B N 0.3757(3) 0.4561(3) -0.7595(3)
N4A N 0.2939(3) 0.6257(3) -0.5095(3)
N4B_2 N 0.3757(3) 0.4561(3) 0.2405(3)
N4C N 0.1243(3) 0.5439(3) -0.2595(3)
N4A_2 N 0.2939(3) 0.6257(3) 0.4905(3)
C1B C 0.2786(3) 0.5033(3) -0.1514(4)
C1A C 0.2467(3) 0.5286(3) 0.0986(4)
C1C C 0.2214(3) 0.4967(3) -0.6514(4)
H7B H 0.2469 0.4983 -0.1931
H7A H 0.2517 0.4969 0.0569
H7C H 0.2531 0.5017 -0.6931
C2B C 0.3448(3) 0.5490(3) -0.0645(4)
C2A C 0.2010(3) 0.5948(3) 0.1855(4)
C2C C 0.1552(3) 0.4510(3) -0.5645(4)
C3B C 0.3476(3) 0.4805(3) -0.0551(4)
C3A C 0.2695(3) 0.5976(3) 0.1949(4)
C3C C 0.1524(3) 0.5195(3) -0.5551(4)
C4B C 0.3799(3) 0.6051(3) -0.0258(4)
C4A C 0.1449(3) 0.6299(3) 0.2242(4)
C4C C 0.1201(3) 0.3949(3) -0.5258(4)
C5B C 0.3837(3) 0.4363(3) 0.0007(4)
C5A C 0.3137(3) 0.6337(3) 0.2507(4)
C5C C 0.1163(3) 0.5637(3) -0.4993(4)
C6J C 0.6724(3) 0.5875(4) -0.2247(4)
C6B C 0.3276(3) 0.4125(4) -0.7753(4)
C6A C 0.3375(4) 0.5776(3) -0.5253(4)
H8J H 0.6915 0.5919 -0.1721
H8B H 0.3085 0.4081 -0.8279
H8A H 0.3419 0.5585 -0.5779
C7J C 0.6093(3) 0.5537(3) -0.3232(4)
C7B C 0.3907(3) 0.4463(3) -0.6768(4)
C7A C 0.3037(3) 0.6407(3) -0.4268(4)
C8J C 0.6510(3) 0.6036(3) -0.3530(4)
C8B C 0.3490(3) 0.3964(3) -0.6470(4)
C8A C 0.3536(3) 0.5990(3) -0.3970(4)
C9J C 0.5571(3) 0.5118(3) -0.3598(4)
C9B C 0.4429(3) 0.4882(3) -0.6402(4)
C9A C 0.2618(3) 0.6929(3) -0.3902(4)
C10J C 0.6625(3) 0.6312(3) -0.4372(4)
C10B C 0.3375(3) 0.3688(3) -0.5628(4)
C10A C 0.3812(3) 0.5875(3) -0.3128(4)
O12 O 0.0000 0.7500 0.3750
O13 O -0.0732(5) 0.7236(5) 0.1493(6)
O14 O -0.0473(13) 0.747(2) -0.0504(18)
H13 H -0.0839 0.7661 -0.0617
H14 H -0.0176 0.7766 -0.0436
H9? H 0.0072 0.7570 0.4266
H10? H -0.0358 0.7454 0.3478
H11? H -0.0831 0.7591 0.1748
H12? H -0.1010 0.7167 0.1104
loop_
_geom_bond_atom_site_label_1
_geom_bond_atom_site_label_2
_geom_bond_site_symmetry_1
_geom_bond_site_symmetry_2
Dy1 O1 1_555 1_555
Dy2 O2 1_555 1_555
O1 C4 1_555 1_555
O2 C4 1_555 1_555
O3 C5 1_555 1_555
O4 Dy1 1_555 1_555
O5 Dy1 1_555 1_555
O6 C9 1_555 1_555
O7 C10 1_555 1_555
O8 C10 1_555 1_555
O9 Dy1 1_555 1_555
H1 O9 1_555 1_555
H2 O9 1_555 1_555
O10 Dy1 1_555 1_555
H3 O10 1_555 1_555
H4 O10 1_555 1_555
O11 Dy2 1_555 1_555
H5 O11 1_555 1_555
H6 O11 1_555 1_555
N1 C1 1_555 1_555
N2 Dy2 1_555 1_555
N3 C6 1_555 1_555
N4 Dy1 1_555 1_555
C1 N2 1_555 1_555
H7 C1 1_555 1_555
C2 N2 1_555 1_555
C3 N1 1_555 1_555
C4 C2 1_555 1_555
C5 O4 1_555 1_555
C6 N4 1_555 1_555
H8 C6 1_555 1_555
C7 N4 1_555 1_555
C8 N3 1_555 1_555
C9 O5 1_555 1_555
C10 C8 1_555 1_555
O14 H13 1_555 1_555
H14 O14 1_555 1_555
Dy1B O1B 1_555 1_555
Dy1C O3 1_555 1_555
Dy1A O1A 1_555 1_555
Dy1J O5J 1_555 1_555
Dy1B_2 O5B 1_555 1_555
Dy1A_2 O3C 1_555 1_555
Dy2B O2B 1_555 1_555
Dy2O O5 1_555 1_555
Dy2C O6 1_555 1_555
Dy2A O7 1_555 1_555
Dy2H O5B 1_555 1_555
Dy2K O7J 1_555 1_555
Dy2C_2 O2C 1_555 1_555
Dy2N O5A 1_555 1_555
O1B C4B 1_555 1_555
O1A C4A 1_555 1_555
O1C Dy1C 1_555 1_555
O2B C4B 1_555 1_555
O2A Dy2A 1_555 1_555
O2C C4C 1_555 1_555
O2O Dy2O 1_555 1_555
O2C_2 Dy2C 1_555 1_555
O3B Dy1 1_555 1_555
O3A Dy1B 1_555 1_555
O3C C5C 1_555 1_555
O3C_2 Dy1A 1_555 1_555
O4B Dy1B 1_555 1_555
O4A Dy1A 1_555 1_555
O4C Dy1C 1_555 1_555
O5J Dy2 1_555 1_555
O5B C9B 1_555 1_555
O5A Dy1A_2 1_555 1_555
O5B_2 Dy1B 1_555 1_555
O5C Dy1C 1_555 1_555
O5M Dy2B 1_555 1_555
O5L Dy2C 1_555 1_555
O5A_2 Dy1A 1_555 1_555
O6J Dy2 1_555 1_555
O6B Dy2 1_555 1_555
O6A Dy2B 1_555 1_555
O6M Dy2B 1_555 1_555
O6L Dy2O 1_555 1_555
O7J C10J 1_555 1_555
O7B Dy2C_2 1_555 1_555
O7A Dy2 1_555 1_555
O7C Dy2B 1_555 1_555
O7N Dy2O 1_555 1_555
O7B_2 Dy2C 1_555 1_555
O8J Dy2H 1_555 1_555
O8B Dy2 1_555 1_555
O8A Dy2B 1_555 1_555
O8L Dy2O 1_555 1_555
O9B Dy1B 1_555 1_555
O9C Dy1C 1_555 1_555
O9A Dy1A 1_555 1_555
H1B O9B 1_555 1_555
H1C O9C 1_555 1_555
H1A O9A 1_555 1_555
H2B O9B 1_555 1_555
H2C O9C 1_555 1_555
H2A O9A 1_555 1_555
O10B Dy1B 1_555 1_555
O10C Dy1C 1_555 1_555
O10A Dy1A 1_555 1_555
H3B O10B 1_555 1_555
H3C O10C 1_555 1_555
H3A O10A 1_555 1_555
H4B O10B 1_555 1_555
H4C O10C 1_555 1_555
H4A O10A 1_555 1_555
O11B Dy2B 1_555 1_555
O11O Dy2O 1_555 1_555
O11C Dy2C 1_555 1_555
H5B O11B 1_555 1_555
H5O O11O 1_555 1_555
H5C O11C 1_555 1_555
H6B O11B 1_555 1_555
H6O O11O 1_555 1_555
H6C O11C 1_555 1_555
N1B Dy1 1_555 1_555
N1A Dy1B 1_555 1_555
N1C Dy1A_2 1_555 1_555
N1C_2 Dy1A 1_555 1_555
N2B Dy2B 1_555 1_555
N2A Dy2A 1_555 1_555
N2C Dy2C_2 1_555 1_555
N2O Dy2O 1_555 1_555
N2C_2 Dy2C 1_555 1_555
N3J Dy2K 1_555 1_555
N3B Dy2C_2 1_555 1_555
N3A Dy2 1_555 1_555
N3C Dy2B 1_555 1_555
N3N Dy2O 1_555 1_555
N3B_2 Dy2C 1_555 1_555
N4J Dy1J 1_555 1_555
N4B Dy1B_2 1_555 1_555
N4A Dy1A_2 1_555 1_555
N4B_2 Dy1B 1_555 1_555
N4C Dy1C 1_555 1_555
N4A_2 Dy1A 1_555 1_555
C1B N1B 1_555 1_555
C1A N1A 1_555 1_555
C1C N1C 1_555 1_555
H7B C1B 1_555 1_555
H7A C1A 1_555 1_555
H7C C1C 1_555 1_555
C2B N2B 1_555 1_555
C2A N2A 1_555 1_555
C2C N2C 1_555 1_555
C3B N1B 1_555 1_555
C3A N1A 1_555 1_555
C3C N1C 1_555 1_555
C4B C2B 1_555 1_555
C4A O2A 1_555 1_555
C4C O1C 1_555 1_555
C5B O3B 1_555 1_555
C5A O3A 1_555 1_555
C5C O4C 1_555 1_555
C6J N3J 1_555 1_555
C6B N3B 1_555 1_555
C6A N3A 1_555 1_555
H8J C6J 1_555 1_555
H8B C6B 1_555 1_555
H8A C6A 1_555 1_555
C7J N4J 1_555 1_555
C7B N4B 1_555 1_555
C7A N4A 1_555 1_555
C8J N3J 1_555 1_555
C8B N3B 1_555 1_555
C8A N3A 1_555 1_555
C9J O5J 1_555 1_555
C9B O6B 1_555 1_555
C9A O5A 1_555 1_555
C10J O8J 1_555 1_555
C10B O7B 1_555 1_555
C10A O7A 1_555 1_555
O6 Dy2O 1_555 1_555
O8 Dy2C 1_555 1_555
N1 Dy1C 1_555 1_555
N3 Dy2A 1_555 1_555
C2 C3 1_555 1_555
C3 C5 1_555 1_555
C7 C8 1_555 1_555
C7 C9 1_555 1_555
Dy2C O6L 1_555 1_555
Dy2H O6J 1_555 1_555
Dy2H O6B 1_555 1_555
Dy2N O6A 1_555 1_555
Dy2N O6M 1_555 1_555
O4B C5B 1_555 1_555
O4A C5A 1_555 1_555
O6J C9J 1_555 1_555
O6A C9A 1_555 1_555
O8B C10B 1_555 1_555
O8A C10A 1_555 1_555
N2B C1B 1_555 1_555
N2A C1A 1_555 1_555
N2C C1C 1_555 1_555
N4J C6J 1_555 1_555
N4B C6B 1_555 1_555
N4A C6A 1_555 1_555
C2B C3B 1_555 1_555
C2A C3A 1_555 1_555
C2A C4A 1_555 1_555
C2C C3C 1_555 1_555
C2C C4C 1_555 1_555
C3B C5B 1_555 1_555
C3A C5A 1_555 1_555
C3C C5C 1_555 1_555
C7J C8J 1_555 1_555
C7J C9J 1_555 1_555
C7B C8B 1_555 1_555
C7B C9B 1_555 1_555
C7A C8A 1_555 1_555
C7A C9A 1_555 1_555
C8J C10J 1_555 1_555
C8B C10B 1_555 1_555
C8A C10A 1_555 1_555

#END
