
#######################################################################
#
#                 Cambridge Crystallographic Data Centre
#                                CCDC 
#
#######################################################################
#
# If this CIF has been generated from an entry in the Cambridge 
# Structural Database, then it will include bibliographic, chemical, 
# crystal, experimental, refinement or atomic coordinate data resulting 
# from the CCDC's data processing and validation procedures.
#
#######################################################################

data_WEMHON
_symmetry_cell_setting           monoclinic
_symmetry_space_group_name_H-M   'P 21/n'
_symmetry_Int_Tables_number      14
_space_group_name_Hall           '-P 2yn'
loop_
_symmetry_equiv_pos_site_id
_symmetry_equiv_pos_as_xyz
1 x,y,z
2 1/2-x,1/2+y,1/2-z
3 -x,-y,-z
4 1/2+x,1/2-y,1/2+z
_cell_length_a                   10.3392(14)
_cell_length_b                   16.2364(12)
_cell_length_c                   22.526(2)
_cell_angle_alpha                90
_cell_angle_beta                 102.756(4)
_cell_angle_gamma                90
_cell_volume                     3688.14
loop_
_atom_site_label
_atom_site_type_symbol
_atom_site_fract_x
_atom_site_fract_y
_atom_site_fract_z
Cd1 Cd -0.08723(3) -0.313950(19) 0.075410(12)
Cd2 Cd -0.33393(3) -0.228940(18) 0.459940(12)
C1 C -0.2937(4) -0.3258(2) 0.1335(2)
C2 C -0.4154(4) -0.3281(2) 0.15917(17)
C3 C -0.4026(4) -0.3293(2) 0.22134(17)
H1 H -0.3183 -0.3283 0.2467
C4 C -0.5110(4) -0.3319(3) 0.24648(17)
H2 H -0.5009 -0.3331 0.2885
C5 C -0.6365(4) -0.3326(2) 0.20868(16)
H3 H -0.7107 -0.3350 0.2256
C6 C -0.6528(3) -0.3300(2) 0.14626(15)
C7 C -0.5416(4) -0.3280(2) 0.12178(16)
H4 H -0.5513 -0.3266 0.0798
C8 C -0.7918(4) -0.3271(2) 0.10681(18)
C9 C -0.1238(4) -0.2495(2) 0.40636(18)
C10 C -0.0031(3) -0.2592(2) 0.37988(17)
C11 C -0.0174(4) -0.2831(2) 0.31983(17)
H5 H -0.1015 -0.2933 0.2961
C12 C 0.0921(4) -0.2920(3) 0.29513(18)
H6 H 0.0819 -0.3067 0.2545
C13 C 0.2170(4) -0.2791(2) 0.33067(16)
H7 H 0.2908 -0.2855 0.3138
C14 C 0.2339(3) -0.2569(2) 0.39051(15)
C15 C 0.1233(3) -0.2456(2) 0.41492(16)
H8 H 0.1339 -0.2286 0.4551
C16 C 0.3717(4) -0.2426(2) 0.42755(17)
C17 C -0.3770(4) -0.0240(3) 0.45517(19)
H9 H -0.3499 -0.0220 0.4974
C18 C -0.4471(4) 0.0115(3) 0.36556(19)
H10 H -0.4796 0.0421 0.3306
C19 C -0.4501(5) -0.1259(3) 0.31375(16)
H11 H -0.5357 -0.1523 0.3101
H12 H -0.3825 -0.1684 0.3211
C20 C -0.4465(5) -0.0813(2) 0.25519(18)
C21 C -0.5653(5) -0.0591(3) 0.2164(2)
C22 C -0.5633(5) -0.0188(3) 0.1611(2)
C23 C -0.4429(6) -0.0042(2) 0.14593(19)
C24 C -0.6968(6) -0.0776(3) 0.2322(2)
H13 H -0.7226 -0.1331 0.2205
H14 H -0.7628 -0.0402 0.2109
H15 H -0.6885 -0.0714 0.2753
C25 C -0.4433(6) 0.0304(3) 0.0828(2)
H16 H -0.3536 0.0376 0.0785
H17 H -0.4881 0.0825 0.0779
H18 H -0.4883 -0.0073 0.0523
C26 C -0.3239(5) -0.0219(3) 0.1869(2)
C27 C -0.3264(5) -0.0609(3) 0.2427(2)
C28 C -0.1988(5) -0.0785(3) 0.2873(2)
H19 H -0.1257 -0.0604 0.2708
H20 H -0.1914 -0.1366 0.2951
H21 H -0.1977 -0.0498 0.3247
C29 C -0.1943(5) 0.0039(3) 0.1727(2)
H22 H -0.2088 0.0515 0.1460
H23 H -0.1331 0.0198 0.2101
C30 C -0.1734(9) -0.1313(5) 0.1186(5)
H24 H -0.2610 -0.1484 0.1137
C31 C 0.0138(10) -0.1322(7) 0.1252(8)
H25 H 0.0999 -0.1499 0.1265
N1 N -0.0125(8) -0.0612(5) 0.1482(6)
C32 C -0.6892(5) 0.0135(3) 0.1204(2)
H26 H -0.7550 0.0222 0.1445
H27 H -0.6711 0.0664 0.1038
C33 C -0.8686(6) -0.0805(4) -0.0106(3)
H28 H -0.9325 -0.0795 -0.0468
C34 C -0.7211(5) -0.1209(3) 0.0595(2)
H29 H -0.6571 -0.1534 0.0843
N2 N -0.3807(3) -0.0936(2) 0.42315(14)
N3 N -0.4270(3) -0.0680(2) 0.36549(14)
N4 N -0.4163(3) 0.0432(2) 0.42054(15)
N5 N -0.1358(5) -0.0628(3) 0.1435(2)
N6 N -0.0896(4) -0.1759(3) 0.1006(2)
N7 N -0.7433(4) -0.0428(2) 0.07021(17)
N8 N -0.8390(5) -0.0137(3) 0.0249(3)
N9 N -0.8011(4) -0.1472(2) 0.00920(17)
O1 O -0.1098(2) -0.21718(18) 0.45812(12)
O2 O -0.2340(2) -0.27282(17) 0.37666(11)
O3 O -0.3093(2) -0.31703(18) 0.07592(12)
O4 O -0.1821(2) -0.33041(17) 0.16764(11)
O5 O -0.8058(3) -0.33382(18) 0.05105(12)
O6 O -0.8836(2) -0.31879(18) 0.13365(12)
O7 O 0.4663(2) -0.26716(17) 0.40602(11)
O8 O 0.3875(3) -0.20562(19) 0.47642(12)
Cd1A Cd -0.41277(3) 0.186050(19) 0.424590(12)
Cd1_2 Cd -1.08723(3) -0.313950(19) 0.075410(12)
Cd1C Cd 0.41277(3) -0.186050(19) 0.575410(12)
Cd2C Cd -0.83393(3) -0.271060(18) -0.040060(12)
Cd2_2 Cd 0.66607(3) -0.228940(18) 0.459940(12)
N4A N -0.0837(3) -0.4568(2) 0.07946(15)
N9C N -0.3011(4) -0.3528(2) 0.50920(17)
O5C O -0.3058(3) -0.16618(18) 0.55105(12)
O6_2 O 0.1164(2) -0.31879(18) 0.13365(12)
O7_2 O -0.5337(2) -0.26716(17) 0.40602(11)
O8C O -0.1125(3) -0.29438(19) -0.02358(12)
O9 O -0.0491(5) 0.0643(3) 0.5271(3)
O10 O -0.7457(8) 0.4599(4) 0.1037(3)
H30 H -0.678(4) 0.459(4) 0.131(2)
O11 O -0.0473(6) 0.3331(4) 0.4594(3)
C35? C -0.378(5) 0.352(3) 0.350(2)
C36? C -0.416(3) 0.3837(16) 0.4402(12)
H31? H -0.3663 0.3211 0.3163
H32? H -0.4422 0.3744 0.4766
N10? N -0.379(3) 0.4605(15) 0.4225(12)
loop_
_geom_bond_atom_site_label_1
_geom_bond_atom_site_label_2
_geom_bond_site_symmetry_1
_geom_bond_site_symmetry_2
Cd1 N6 1_555 1_555
Cd2 N2 1_555 1_555
C1 C2 1_555 1_555
C2 C3 1_555 1_555
C3 H1 1_555 1_555
C4 C3 1_555 1_555
H2 C4 1_555 1_555
C5 C4 1_555 1_555
H3 C5 1_555 1_555
C6 C5 1_555 1_555
C7 C2 1_555 1_555
H4 C7 1_555 1_555
C8 C6 1_555 1_555
C9 C10 1_555 1_555
C10 C11 1_555 1_555
C11 H5 1_555 1_555
C12 C11 1_555 1_555
H6 C12 1_555 1_555
C13 C12 1_555 1_555
H7 C13 1_555 1_555
C14 C13 1_555 1_555
C15 C10 1_555 1_555
H8 C15 1_555 1_555
C16 C14 1_555 1_555
C17 H9 1_555 1_555
C18 H10 1_555 1_555
C19 H11 1_555 1_555
H12 C19 1_555 1_555
C20 C19 1_555 1_555
C21 C20 1_555 1_555
C22 C21 1_555 1_555
C23 C22 1_555 1_555
C24 C21 1_555 1_555
H13 C24 1_555 1_555
H14 C24 1_555 1_555
H15 C24 1_555 1_555
C25 C23 1_555 1_555
H16 C25 1_555 1_555
H17 C25 1_555 1_555
H18 C25 1_555 1_555
C26 C23 1_555 1_555
C27 C20 1_555 1_555
C28 C27 1_555 1_555
H19 C28 1_555 1_555
H20 C28 1_555 1_555
H21 C28 1_555 1_555
C29 C26 1_555 1_555
H22 C29 1_555 1_555
H23 C29 1_555 1_555
C30 H24 1_555 1_555
C31 H25 1_555 1_555
N1 C31 1_555 1_555
C32 C22 1_555 1_555
H26 C32 1_555 1_555
H27 C32 1_555 1_555
C33 H28 1_555 1_555
C34 H29 1_555 1_555
N2 C17 1_555 1_555
N3 C18 1_555 1_555
N4 C17 1_555 1_555
N5 C29 1_555 1_555
N6 C30 1_555 1_555
N7 C32 1_555 1_555
N8 C33 1_555 1_555
N9 C33 1_555 1_555
O1 Cd2 1_555 1_555
O2 Cd2 1_555 1_555
O3 Cd1 1_555 1_555
O4 Cd1 1_555 1_555
O5 C8 1_555 1_555
O6 C8 1_555 1_555
O7 C16 1_555 1_555
O8 C16 1_555 1_555
O10 H30 1_555 1_555
Cd1A N4 1_555 1_555
Cd1_2 O6 1_555 1_555
Cd1C O8 1_555 1_555
Cd2C N9 1_555 1_555
Cd2_2 O7 1_555 1_555
N4A Cd1 1_555 1_555
N9C Cd2 1_555 1_555
O5C Cd2 1_555 1_555
O6_2 Cd1 1_555 1_555
O7_2 Cd2 1_555 1_555
O8C Cd1 1_555 1_555
C1 O3 1_555 1_555
C1 O4 1_555 1_555
C6 C7 1_555 1_555
C9 O1 1_555 1_555
C9 O2 1_555 1_555
C14 C15 1_555 1_555
C18 N4 1_555 1_555
C19 N3 1_555 1_555
C26 C27 1_555 1_555
C30 N5 1_555 1_555
C31 N6 1_555 1_555
N1 N5 1_555 1_555
C34 N7 1_555 1_555
C34 N9 1_555 1_555
N2 N3 1_555 1_555
N7 N8 1_555 1_555
O5 Cd2C 1_555 1_555

#END
