
#######################################################################
#
#                 Cambridge Crystallographic Data Centre
#                                CCDC 
#
#######################################################################
#
# If this CIF has been generated from an entry in the Cambridge 
# Structural Database, then it will include bibliographic, chemical, 
# crystal, experimental, refinement or atomic coordinate data resulting 
# from the CCDC's data processing and validation procedures.
#
#######################################################################

data_WEMJII
_symmetry_cell_setting           orthorhombic
_symmetry_space_group_name_H-M   'P n m a'
_symmetry_Int_Tables_number      62
_space_group_name_Hall           '-P 2ac 2n'
loop_
_symmetry_equiv_pos_site_id
_symmetry_equiv_pos_as_xyz
1 x,y,z
2 1/2-x,-y,1/2+z
3 -x,1/2+y,-z
4 1/2+x,1/2-y,1/2-z
5 -x,-y,-z
6 1/2+x,y,1/2-z
7 x,1/2-y,z
8 1/2-x,1/2+y,1/2+z
_cell_length_a                   9.5276(10)
_cell_length_b                   28.682(5)
_cell_length_c                   11.657(3)
_cell_angle_alpha                90
_cell_angle_beta                 90
_cell_angle_gamma                90
_cell_volume                     3185.52
loop_
_atom_site_label
_atom_site_type_symbol
_atom_site_fract_x
_atom_site_fract_y
_atom_site_fract_z
Ca1 Ca 0.65856(13) 0.46385(5) 0.18746(11)
O1 O 0.6309(5) 0.53857(16) 0.1097(4)
O2 O 0.5223(4) 0.55289(16) -0.0569(4)
O3 O 0.5252(5) 0.53815(17) 0.6794(4)
O4 O 0.6746(4) 0.54693(17) 0.5351(4)
N1 N 0.4863(5) 0.59366(19) 0.4035(5)
N2 N 0.4947(5) 0.60733(19) 0.2218(5)
C1 C 0.5484(6) 0.5608(2) 0.0466(5)
C2 C 0.4704(7) 0.6024(2) 0.0984(6)
H1 H 0.5009 0.6312 0.0592
H2 H 0.3685 0.5985 0.0846
C3 C 0.4317(6) 0.5829(2) 0.3021(5)
H3 H 0.3587 0.5609 0.2895
C4 C 0.5950(7) 0.6357(3) 0.2725(6)
H4 H 0.6557 0.6569 0.2346
C5 C 0.5897(8) 0.6272(2) 0.3864(6)
H5 H 0.6460 0.6414 0.4439
C6 C 0.4401(6) 0.5757(2) 0.5123(6)
H6 H 0.3637 0.5529 0.4991
H7 H 0.4011 0.6016 0.5584
C7 C 0.5568(6) 0.5521(2) 0.5806(5)
O5 O 0.7200(5) 0.39171(17) 0.2490(5)
O6 O 0.7529(6) 0.33495(19) 0.1233(5)
N3 N 0.9267(6) 0.2872(2) 0.2670(5)
C8 C 0.7779(7) 0.3552(2) 0.2139(7)
C9 C 0.8877(8) 0.3357(2) 0.2958(7)
H8 H 0.9725 0.3555 0.2931
H9 H 0.8504 0.3366 0.3750
C10 C 0.8791(10) 0.2500 0.3206(8)
H10 H 0.8206 0.2500 0.3866
C11 C 1.0092(7) 0.2734(3) 0.1771(6)
H11 H 1.0572 0.2932 0.1248
O7 O 0.7722(4) 0.50292(16) 0.3429(4)
H12 H 0.711(7) 0.514(3) 0.406(4)
H13 H 0.843(6) 0.482(2) 0.377(5)
Ca1D Ca 0.34144(13) 0.53615(5) -0.18746(11)
Ca1D_2 Ca 0.34144(13) 0.53615(5) 0.81254(11)
Ca1A Ca 0.84144(13) 0.53615(5) 0.68746(11)
Ca1F Ca 0.65856(13) 0.03615(5) 0.18746(11)
Ca1_2 Ca 0.65856(13) 0.46385(5) -0.81254(11)
Ca1E Ca 0.15856(13) 0.46385(5) -0.68746(11)
O1D O 0.3691(5) 0.46143(16) -0.1097(4)
O2D O 0.4777(4) 0.44711(16) 0.0569(4)
O3D O 0.4748(5) 0.46185(17) -0.6794(4)
O3D_2 O 0.4748(5) 0.46185(17) 0.3206(4)
O3_2 O 0.5252(5) 0.53815(17) -0.3206(4)
O4D O 0.3254(4) 0.45307(17) -0.5351(4)
O4A O 0.8254(4) 0.45307(17) 0.0351(4)
O4E O 0.1746(4) 0.54693(17) -0.0351(4)
N1D N 0.5137(5) 0.40634(19) -0.4035(5)
N2D N 0.5053(5) 0.39267(19) -0.2218(5)
C1D C 0.4516(6) 0.4392(2) -0.0466(5)
C2D C 0.5296(7) 0.3976(2) -0.0984(6)
H1D H 0.4991 0.3688 -0.0592
H2D H 0.6315 0.4015 -0.0846
C3D C 0.5683(6) 0.4171(2) -0.3021(5)
H3D H 0.6413 0.4391 -0.2895
C4D C 0.4050(7) 0.3643(3) -0.2725(6)
H4D H 0.3443 0.3431 -0.2346
C5D C 0.4103(8) 0.3728(2) -0.3864(6)
H5D H 0.3540 0.3586 -0.4439
C6D C 0.5599(6) 0.4243(2) -0.5123(6)
H6D H 0.6363 0.4471 -0.4991
H7D H 0.5989 0.3984 -0.5584
C7D C 0.4432(6) 0.4479(2) -0.5806(5)
O5F O 0.7200(5) 0.10829(17) 0.2490(5)
O5D O 0.2800(5) 0.60829(17) -0.2490(5)
O6F O 0.7529(6) 0.16505(19) 0.1233(5)
N3F N 0.9267(6) 0.2128(2) 0.2670(5)
C8F C 0.7779(7) 0.1448(2) 0.2139(7)
C9F C 0.8877(8) 0.1643(2) 0.2958(7)
H8F H 0.9725 0.1445 0.2931
H9F H 0.8504 0.1634 0.3750
C11F C 1.0092(7) 0.2266(3) 0.1771(6)
H11F H 1.0572 0.2068 0.1248
O7D O 0.2278(4) 0.49708(16) -0.3429(4)
H12D H 0.289(7) 0.486(3) -0.406(4)
H13D H 0.157(6) 0.518(2) -0.377(5)
Br1 Br 0.78245(14) 0.68701(5) 0.05473(12)
O8 O 0.6996(15) 0.2500 0.0260(13)
H14 H 0.602(7) 0.2500 0.000(16)
H15 H 0.70(2) 0.2500 0.110(2)
O9 O 0.512(2) 0.7500 0.3320(12)
H16 H 0.50(2) 0.7500 0.248(3)
H17 H 0.419(12) 0.7500 0.368(18)
O10? O 0.5272(15) 0.7152(4) 0.0954(16)
H18? H 0.627(6) 0.707(6) 0.10(2)
H19? H 0.519(17) 0.7500 0.105(14)
loop_
_geom_bond_atom_site_label_1
_geom_bond_atom_site_label_2
_geom_bond_site_symmetry_1
_geom_bond_site_symmetry_2
Ca1 O1 1_555 1_555
O1 C1 1_555 1_555
O2 C1 1_555 1_555
O3 C7 1_555 1_555
O4 C7 1_555 1_555
N1 C3 1_555 1_555
N2 C2 1_555 1_555
C1 C2 1_555 1_555
C2 H1 1_555 1_555
H2 C2 1_555 1_555
C3 N2 1_555 1_555
H3 C3 1_555 1_555
C4 N2 1_555 1_555
H4 C4 1_555 1_555
C5 N1 1_555 1_555
H5 C5 1_555 1_555
C6 N1 1_555 1_555
H6 C6 1_555 1_555
H7 C6 1_555 1_555
C7 C6 1_555 1_555
O5 Ca1 1_555 1_555
O6 C8 1_555 1_555
N3 C9 1_555 1_555
C8 O5 1_555 1_555
C9 C8 1_555 1_555
H8 C9 1_555 1_555
H9 C9 1_555 1_555
C10 N3 1_555 1_555
H10 C10 1_555 1_555
C11 N3 1_555 1_555
H11 C11 1_555 1_555
O7 Ca1 1_555 1_555
H12 O7 1_555 1_555
H13 O7 1_555 1_555
O8 H14 1_555 1_555
H15 O8 1_555 1_555
O9 H16 1_555 1_555
H17 O9 1_555 1_555
Ca1D O2 1_555 1_555
Ca1D_2 O3 1_555 1_555
Ca1A O4 1_555 1_555
Ca1F O5F 1_555 1_555
Ca1_2 O3D 1_555 1_555
Ca1E O4D 1_555 1_555
O1D Ca1D 1_555 1_555
O2D Ca1 1_555 1_555
O3D C7D 1_555 1_555
O3D_2 Ca1 1_555 1_555
O3_2 Ca1D 1_555 1_555
O4D C7D 1_555 1_555
O4A Ca1 1_555 1_555
O4E Ca1D 1_555 1_555
N1D C3D 1_555 1_555
N2D C2D 1_555 1_555
C1D O1D 1_555 1_555
C2D C1D 1_555 1_555
H1D C2D 1_555 1_555
H2D C2D 1_555 1_555
C3D N2D 1_555 1_555
H3D C3D 1_555 1_555
C4D N2D 1_555 1_555
H4D C4D 1_555 1_555
C5D N1D 1_555 1_555
H5D C5D 1_555 1_555
C6D N1D 1_555 1_555
H6D C6D 1_555 1_555
H7D C6D 1_555 1_555
C7D C6D 1_555 1_555
O5F C8F 1_555 1_555
O5D Ca1D 1_555 1_555
O6F C8F 1_555 1_555
N3F C10 1_555 1_555
C8F C9F 1_555 1_555
C9F N3F 1_555 1_555
H8F C9F 1_555 1_555
H9F C9F 1_555 1_555
C11F C11 1_555 1_555
H11F C11F 1_555 1_555
O7D Ca1D 1_555 1_555
H12D O7D 1_555 1_555
H13D O7D 1_555 1_555
C4 C5 1_555 1_555
O2D C1D 1_555 1_555
C4D C5D 1_555 1_555
N3F C11F 1_555 1_555

#END
