
#######################################################################
#
#                 Cambridge Crystallographic Data Centre
#                                CCDC 
#
#######################################################################
#
# If this CIF has been generated from an entry in the Cambridge 
# Structural Database, then it will include bibliographic, chemical, 
# crystal, experimental, refinement or atomic coordinate data resulting 
# from the CCDC's data processing and validation procedures.
#
#######################################################################

data_WEMJUU
_symmetry_cell_setting           orthorhombic
_symmetry_space_group_name_H-M   'P m c 21'
_symmetry_Int_Tables_number      26
_space_group_name_Hall           'P 2c -2'
loop_
_symmetry_equiv_pos_site_id
_symmetry_equiv_pos_as_xyz
1 x,y,z
2 -x,-y,1/2+z
3 x,-y,1/2+z
4 -x,y,z
_cell_length_a                   12.4238(10)
_cell_length_b                   5.1394(4)
_cell_length_c                   10.2685(7)
_cell_angle_alpha                90
_cell_angle_beta                 90
_cell_angle_gamma                90
_cell_volume                     655.653
loop_
_atom_site_label
_atom_site_type_symbol
_atom_site_fract_x
_atom_site_fract_y
_atom_site_fract_z
Cs1 Cs 0.0000 0.97164(3) 0.1521
O1 O 0.1511(2) 0.4700(4) 0.0428(3)
O2 O 0.29527(11) 0.7246(4) 0.0148(3)
N1 N 0.4133(2) 0.4591(4) 0.1990(3)
C1 C 0.2460(3) 0.5420(5) 0.0678(3)
C2 C 0.30117(16) 0.3820(5) 0.1735(4)
H1 H 0.2595 0.3987 0.2552
H2 H 0.3000 0.1964 0.1476
C3 C 0.5000 0.3360(5) 0.1551(6)
H3 H 0.5000 0.1854 0.1015
C4 C 0.4457(2) 0.6674(5) 0.2743(3)
H4 H 0.4001 0.7878 0.3179
O3 O 0.19415(19) 0.9216(5) 0.3501(3)
H5 H 0.219(4) 1.050(7) 0.415(4)
H6 H 0.177(3) 0.767(5) 0.399(3)
O5 O 0.0000 0.4348(7) 0.3460(4)
H8 H -0.049(3) 0.431(8) 0.420(3)
Cs1_2 Cs 0.0000 -0.02836(3) 0.1521
Cs1_3 Cs 1.0000 -0.02836(3) 0.1521
Cs1_4 Cs 1.0000 0.97164(3) 0.1521
O1C O 0.8489(2) 0.4700(4) 0.0428(3)
O1_2 O 0.1511(2) 1.4700(4) 0.0428(3)
O1C_2 O -0.1511(2) 0.4700(4) 0.0428(3)
O1C_3 O -0.1511(2) 1.4700(4) 0.0428(3)
O2C O 0.70473(11) 0.7246(4) 0.0148(3)
N1C N 0.5867(2) 0.4591(4) 0.1990(3)
C1C C 0.7540(3) 0.5420(5) 0.0678(3)
C2C C 0.69883(16) 0.3820(5) 0.1735(4)
H1C H 0.7405 0.3987 0.2552
H2C H 0.7000 0.1964 0.1476
C4C C 0.5543(2) 0.6674(5) 0.2743(3)
H4C H 0.5999 0.7878 0.3179
O3C O -0.19415(19) 0.9216(5) 0.3501(3)
H5C H -0.219(4) 1.050(7) 0.415(4)
H6C H -0.177(3) 0.767(5) 0.399(3)
O5_2 O 0.0000 1.4348(7) 0.3460(4)
H8C H 0.049(3) 0.431(8) 0.420(3)
H8_2 H -0.049(3) 1.431(8) 0.420(3)
H8C_2 H 0.049(3) 1.431(8) 0.420(3)
O4 O 0.5000 0.8865(6) 0.9548(3)
H7 H 0.4429(17) 0.797(7) 0.986(3)
H7C H 0.5571(17) 0.797(7) 0.986(3)
loop_
_geom_bond_atom_site_label_1
_geom_bond_atom_site_label_2
_geom_bond_site_symmetry_1
_geom_bond_site_symmetry_2
Cs1 O1 1_555 1_555
O1 C1 1_555 1_555
O2 C1 1_555 1_555
N1 C2 1_555 1_555
C1 C2 1_555 1_555
C2 H1 1_555 1_555
H2 C2 1_555 1_555
C3 N1 1_555 1_555
H3 C3 1_555 1_555
C4 N1 1_555 1_555
H4 C4 1_555 1_555
O3 Cs1 1_555 1_555
H5 O3 1_555 1_555
H6 O3 1_555 1_555
O4 H7 1_555 1_555
O5 Cs1 1_555 1_555
H8 O5 1_555 1_555
Cs1_2 O1 1_555 1_555
Cs1_3 O1C 1_555 1_555
Cs1_4 O1C 1_555 1_555
O1C C1C 1_555 1_555
O1_2 Cs1 1_555 1_555
O1C_2 Cs1 1_555 1_555
O1C_3 Cs1 1_555 1_555
O2C C1C 1_555 1_555
N1C C3 1_555 1_555
C1C C2C 1_555 1_555
C2C N1C 1_555 1_555
H1C C2C 1_555 1_555
H2C C2C 1_555 1_555
C4C C4 1_555 1_555
H4C C4C 1_555 1_555
O3C Cs1 1_555 1_555
H5C O3C 1_555 1_555
H6C O3C 1_555 1_555
H7C O4 1_555 1_555
O5_2 Cs1 1_555 1_555
H8C O5 1_555 1_555
H8_2 O5_2 1_555 1_555
H8C_2 O5_2 1_555 1_555
O5 Cs1_2 1_555 1_555
Cs1_2 O1C_2 1_555 1_555
N1C C4C 1_555 1_555

#END
