
#######################################################################
#
#                 Cambridge Crystallographic Data Centre
#                                CCDC 
#
#######################################################################
#
# If this CIF has been generated from an entry in the Cambridge 
# Structural Database, then it will include bibliographic, chemical, 
# crystal, experimental, refinement or atomic coordinate data resulting 
# from the CCDC's data processing and validation procedures.
#
#######################################################################

data_WEMJOP
_symmetry_cell_setting           triclinic
_symmetry_space_group_name_H-M   'P -1'
_symmetry_Int_Tables_number      2
_space_group_name_Hall           '-P 1'
loop_
_symmetry_equiv_pos_site_id
_symmetry_equiv_pos_as_xyz
1 x,y,z
2 -x,-y,-z
_cell_length_a                   9.064(3)
_cell_length_b                   9.558(3)
_cell_length_c                   13.644(4)
_cell_angle_alpha                95.546(4)
_cell_angle_beta                 91.307(5)
_cell_angle_gamma                90.209(5)
_cell_volume                     1176.17
loop_
_atom_site_label
_atom_site_type_symbol
_atom_site_fract_x
_atom_site_fract_y
_atom_site_fract_z
Cd1 Cd 0.88039(2) 0.071471(19) 0.117362(12)
O1 O 0.7280(2) 0.1867(2) 0.02118(14)
N1 N 0.9664(2) 0.1270(2) 0.28054(16)
C1 C 0.9030(3) 0.2325(3) 0.33446(19)
H1 H 0.8309 0.2837 0.3042
O3 O 0.7708(2) 0.3314(2) 0.15493(14)
N2 N 0.8566(2) 0.3847(2) 0.47926(15)
H4 H 0.8227 0.4450 0.4418
C2 C 1.0688(3) 0.0519(3) 0.3249(2)
H5 H 1.1116 -0.0247 0.2892
O4 O 1.0876(2) 0.12949(19) 0.02452(14)
N3 N 0.6637(2) 0.5935(2) 0.52697(15)
C3 C 0.9375(3) 0.2711(3) 0.43311(18)
O5 O 1.0357(2) 0.1512(2) -0.13364(15)
N4 N 0.5784(2) 0.7612(3) 0.38333(16)
H6 H 0.6454 0.6976 0.3771
C4 C 1.0473(3) 0.1961(3) 0.4778(2)
H7 H 1.0761 0.2199 0.5431
N5 N 0.6576(3) 0.9783(2) 0.18353(16)
C5 C 1.1123(3) 0.0855(3) 0.4225(2)
H8 H 1.1855 0.0334 0.4508
C6 C 0.8275(3) 0.4080(3) 0.57591(19)
C7 C 0.6683(4) 0.5457(3) 0.6963(2)
H9 H 0.7062 0.4938 0.7452
C8 C 0.5099(3) 0.7241(3) 0.6437(2)
H10 H 0.4401 0.7942 0.6566
O6 O 0.8831(2) 0.3429(2) 0.64072(14)
C9 C 0.5622(3) 0.6930(3) 0.54917(19)
O7 O 0.3981(2) 0.8551(2) 0.48308(15)
C10 C 0.7153(3) 0.5217(3) 0.60075(18)
C11 C 0.5637(4) 0.6488(4) 0.7180(2)
H11 H 0.5302 0.6669 0.7819
C12 C 0.5040(3) 0.7771(3) 0.4685(2)
C13 C 0.5519(3) 0.8436(3) 0.30386(19)
C14 C 0.4102(3) 0.8722(3) 0.2694(2)
H12 H 0.3274 0.8367 0.2977
C15 C 0.6708(3) 0.8974(3) 0.2581(2)
H13 H 0.7652 0.8764 0.2803
C16 C 0.5200(3) 1.0060(3) 0.1513(2)
H14 H 0.5086 1.0620 0.0996
C17 C 0.3962(3) 0.9547(3) 0.1919(2)
H15 H 0.3030 0.9755 0.1674
C18 C 1.0505(3) 0.2030(3) -0.0452(2)
C19 C 0.9515(3) 0.4332(3) -0.0898(2)
H16 H 0.9191 0.3885 -0.1501
C20 C 0.7078(3) 0.3017(3) 0.07273(19)
C21 C 0.6014(3) 0.4056(3) 0.03484(18)
C22 C 0.5967(4) 0.5422(3) 0.0766(2)
H17 H 0.6612 0.5716 0.1286
C23 C 0.5038(4) 0.3630(3) -0.0419(2)
H18 H 0.5052 0.2706 -0.0704
C24 C 1.0732(3) 0.4250(3) 0.0681(2)
H19 H 1.1225 0.3746 0.1136
C25 C 1.0243(3) 0.3567(3) -0.02208(19)
Cd1A Cd 0.11961(2) 0.928529(19) -0.117362(12)
Cd1A_2 Cd 1.11961(2) -0.071471(19) -0.117362(12)
Cd1_2 Cd 0.88039(2) 1.071471(19) 0.117362(12)
Cd1A_3 Cd 1.11961(2) 0.928529(19) -0.117362(12)
Cd1_3 Cd 0.88039(2) -0.928529(19) 0.117362(12)
O1A O 0.2720(2) 0.8133(2) -0.02118(14)
N1_2 N 0.9664(2) -0.8730(2) 0.28054(16)
N1A N 0.0336(2) 0.8730(2) -0.28054(16)
C1_2 C 0.9030(3) -0.7675(3) 0.33446(19)
H1_2 H 0.8309 -0.7163 0.3042
O3A O 0.2292(2) 0.6686(2) -0.15493(14)
N2_2 N 0.8566(2) -0.6153(2) 0.47926(15)
H4_2 H 0.8227 -0.5550 0.4418
C2_2 C 1.0688(3) -0.9481(3) 0.3249(2)
H5_2 H 1.1116 -1.0247 0.2892
O4A O 0.9124(2) 0.87051(19) -0.02452(14)
O4A_2 O -0.0876(2) 0.87051(19) -0.02452(14)
N3_2 N 0.6637(2) -0.4065(2) 0.52697(15)
C3_2 C 0.9375(3) -0.7289(3) 0.43311(18)
O5A O 0.9643(2) 0.8488(2) 0.13364(15)
O5A_2 O 0.9643(2) -0.1512(2) 0.13364(15)
O5_2 O 0.0357(2) 1.1512(2) -0.13364(15)
N4_2 N 0.5784(2) -0.2388(3) 0.38333(16)
H6_2 H 0.6454 -0.3024 0.3771
C4_2 C 1.0473(3) -0.8039(3) 0.4778(2)
H7_2 H 1.0761 -0.7801 0.5431
N5_2 N 0.6576(3) -0.0217(2) 0.18353(16)
N5A N 0.3424(3) 1.0217(2) -0.18353(16)
C5_2 C 1.1123(3) -0.9145(3) 0.4225(2)
H8_2 H 1.1855 -0.9666 0.4508
C6_2 C 0.8275(3) -0.5920(3) 0.57591(19)
C7_2 C 0.6683(4) -0.4543(3) 0.6963(2)
H9_2 H 0.7062 -0.5062 0.7452
C8_2 C 0.5099(3) -0.2759(3) 0.6437(2)
H10_2 H 0.4401 -0.2058 0.6566
O6_2 O 0.8831(2) -0.6571(2) 0.64072(14)
C9_2 C 0.5622(3) -0.3070(3) 0.54917(19)
O7_2 O 0.3981(2) -0.1449(2) 0.48308(15)
C10_2 C 0.7153(3) -0.4783(3) 0.60075(18)
C11_2 C 0.5637(4) -0.3512(4) 0.7180(2)
H11_2 H 0.5302 -0.3331 0.7819
C12_2 C 0.5040(3) -0.2229(3) 0.4685(2)
C13_2 C 0.5519(3) -0.1564(3) 0.30386(19)
C14_2 C 0.4102(3) -0.1278(3) 0.2694(2)
H12_2 H 0.3274 -0.1633 0.2977
C15_2 C 0.6708(3) -0.1026(3) 0.2581(2)
H13_2 H 0.7652 -0.1236 0.2803
C16_2 C 0.5200(3) 0.0060(3) 0.1513(2)
H14_2 H 0.5086 0.0620 0.0996
C17_2 C 0.3962(3) -0.0453(3) 0.1919(2)
H15_2 H 0.3030 -0.0245 0.1674
C18A C 0.9495(3) 0.7970(3) 0.0452(2)
C19A C 1.0485(3) 0.5668(3) 0.0898(2)
H16A H 1.0809 0.6115 0.1501
C20A C 0.2922(3) 0.6983(3) -0.07273(19)
C21A C 0.3986(3) 0.5944(3) -0.03484(18)
C22A C 0.4033(4) 0.4578(3) -0.0766(2)
H17A H 0.3388 0.4284 -0.1286
C23A C 0.4962(4) 0.6370(3) 0.0419(2)
H18A H 0.4948 0.7294 0.0704
C24A C 0.9268(3) 0.5750(3) -0.0681(2)
H19A H 0.8775 0.6254 -0.1136
C25A C 0.9757(3) 0.6433(3) 0.02208(19)
O2 O 0.8154(2) 0.5638(2) 0.30337(15)
H2 H 0.8091 0.5183 0.2467
H3 H 0.9008 0.6010 0.3096
loop_
_geom_bond_atom_site_label_1
_geom_bond_atom_site_label_2
_geom_bond_site_symmetry_1
_geom_bond_site_symmetry_2
Cd1 O1 1_555 1_555
O1 C20 1_555 1_555
N1 Cd1 1_555 1_555
C1 N1 1_555 1_555
H1 C1 1_555 1_555
O2 H2 1_555 1_555
H3 O2 1_555 1_555
O3 C20 1_555 1_555
N2 H4 1_555 1_555
C2 N1 1_555 1_555
H5 C2 1_555 1_555
O4 Cd1 1_555 1_555
N3 C9 1_555 1_555
C3 C1 1_555 1_555
O5 C18 1_555 1_555
N4 H6 1_555 1_555
C4 C3 1_555 1_555
H7 C4 1_555 1_555
N5 C15 1_555 1_555
C5 C2 1_555 1_555
H8 C5 1_555 1_555
C6 N2 1_555 1_555
C7 H9 1_555 1_555
C8 H10 1_555 1_555
O6 C6 1_555 1_555
C9 C8 1_555 1_555
O7 C12 1_555 1_555
C10 N3 1_555 1_555
C11 C7 1_555 1_555
H11 C11 1_555 1_555
C12 N4 1_555 1_555
C13 N4 1_555 1_555
C14 C13 1_555 1_555
H12 C14 1_555 1_555
C15 C13 1_555 1_555
H13 C15 1_555 1_555
C16 N5 1_555 1_555
H14 C16 1_555 1_555
C17 C14 1_555 1_555
H15 C17 1_555 1_555
C18 O4 1_555 1_555
C19 H16 1_555 1_555
C20 C21 1_555 1_555
C21 C22 1_555 1_555
C22 H17 1_555 1_555
C23 C21 1_555 1_555
H18 C23 1_555 1_555
C24 H19 1_555 1_555
C25 C18 1_555 1_555
Cd1A O1A 1_555 1_555
Cd1A_2 O5 1_555 1_555
Cd1_2 N5 1_555 1_555
Cd1A_3 O4A 1_555 1_555
Cd1_3 N1_2 1_555 1_555
O1A C20A 1_555 1_555
N1_2 C1_2 1_555 1_555
N1A Cd1A 1_555 1_555
C1_2 H1_2 1_555 1_555
O3A C20A 1_555 1_555
N2_2 H4_2 1_555 1_555
C2_2 N1_2 1_555 1_555
H5_2 C2_2 1_555 1_555
O4A C18A 1_555 1_555
O4A_2 Cd1A 1_555 1_555
N3_2 C9_2 1_555 1_555
C3_2 C1_2 1_555 1_555
O5A Cd1_2 1_555 1_555
O5A_2 Cd1 1_555 1_555
O5_2 Cd1A 1_555 1_555
N4_2 H6_2 1_555 1_555
C4_2 C3_2 1_555 1_555
H7_2 C4_2 1_555 1_555
N5_2 Cd1 1_555 1_555
N5A Cd1A 1_555 1_555
C5_2 C2_2 1_555 1_555
H8_2 C5_2 1_555 1_555
C6_2 N2_2 1_555 1_555
C7_2 H9_2 1_555 1_555
C8_2 H10_2 1_555 1_555
O6_2 C6_2 1_555 1_555
C9_2 C8_2 1_555 1_555
O7_2 C12_2 1_555 1_555
C10_2 N3_2 1_555 1_555
C11_2 C7_2 1_555 1_555
H11_2 C11_2 1_555 1_555
C12_2 N4_2 1_555 1_555
C13_2 N4_2 1_555 1_555
C14_2 C13_2 1_555 1_555
H12_2 C14_2 1_555 1_555
C15_2 N5_2 1_555 1_555
H13_2 C15_2 1_555 1_555
C16_2 N5_2 1_555 1_555
H14_2 C16_2 1_555 1_555
C17_2 C14_2 1_555 1_555
H15_2 C17_2 1_555 1_555
C18A O5A 1_555 1_555
C19A C24 1_555 1_555
H16A C19A 1_555 1_555
C20A C21A 1_555 1_555
C21A C22A 1_555 1_555
C22A C23 1_555 1_555
H17A C22A 1_555 1_555
C23A C22 1_555 1_555
H18A C23A 1_555 1_555
C24A C19 1_555 1_555
H19A C24A 1_555 1_555
C25A C18A 1_555 1_555
N2 C3 1_555 1_555
C4 C5 1_555 1_555
C6 C10 1_555 1_555
C7 C10 1_555 1_555
C8 C11 1_555 1_555
C9 C12 1_555 1_555
C16 C17 1_555 1_555
C19 C25 1_555 1_555
C24 C25 1_555 1_555
N2_2 C3_2 1_555 1_555
C4_2 C5_2 1_555 1_555
C6_2 C10_2 1_555 1_555
C7_2 C10_2 1_555 1_555
C8_2 C11_2 1_555 1_555
C9_2 C12_2 1_555 1_555
C13_2 C15_2 1_555 1_555
C16_2 C17_2 1_555 1_555
C19A C25A 1_555 1_555
C21A C23A 1_555 1_555
C24A C25A 1_555 1_555

#END
