
#######################################################################
#
#                 Cambridge Crystallographic Data Centre
#                                CCDC 
#
#######################################################################
#
# If this CIF has been generated from an entry in the Cambridge 
# Structural Database, then it will include bibliographic, chemical, 
# crystal, experimental, refinement or atomic coordinate data resulting 
# from the CCDC's data processing and validation procedures.
#
#######################################################################

data_WEMJEF
_symmetry_cell_setting           tetragonal
_symmetry_space_group_name_H-M   'P 43 21 2'
_symmetry_Int_Tables_number      96
_space_group_name_Hall           'P 4nw 2abw'
loop_
_symmetry_equiv_pos_site_id
_symmetry_equiv_pos_as_xyz
1 x,y,z
2 -x,-y,1/2+z
3 1/2+x,1/2-y,1/4-z
4 1/2-x,1/2+y,3/4-z
5 -y,-x,1/2-z
6 y,x,-z
7 1/2+y,1/2-x,1/4+z
8 1/2-y,1/2+x,3/4+z
_cell_length_a                   11.896(2)
_cell_length_b                   11.896(2)
_cell_length_c                   34.2854(17)
_cell_angle_alpha                90
_cell_angle_beta                 90
_cell_angle_gamma                90
_cell_volume                     4851.89
loop_
_atom_site_label
_atom_site_type_symbol
_atom_site_fract_x
_atom_site_fract_y
_atom_site_fract_z
Cd1 Cd 0.91625(2) 0.08047(2) 0.127453(6)
C1 C 1.0651(3) 0.1636(3) 0.06871(10)
C2 C 1.1418(3) 0.1809(3) 0.03463(10)
C3 C 1.2277(3) 0.2596(3) 0.03478(9)
C4 C 1.1216(3) 0.1216(3) 0.0000
H1 H 1.0663 0.0663 0.0000
C5 C 1.2838(3) 0.2838(3) 0.0000
H2 H 1.3391 0.3391 0.0000
C6 C 1.2752(3) 0.3184(3) 0.07001(10)
C7 C 1.0101(4) -0.1656(4) 0.16996(14)
H3 H 0.9653 -0.1648 0.1922
C8 C 1.0665(4) -0.1335(4) 0.11321(14)
H4 H 1.0723 -0.1077 0.0877
C9 C 1.2489(4) -0.2424(4) 0.11580(13)
H5 H 1.2398 -0.3211 0.1090
H6 H 1.3059 -0.2373 0.1359
C10 C 1.2865(4) -0.1782(4) 0.08066(13)
C11 C 1.2566(3) -0.2159(4) 0.04365(13)
C12 C 1.3031(3) -0.1621(3) 0.01091(11)
C13 C 1.3782(3) -0.0724(4) 0.01496(11)
C14 C 1.4000(3) -0.0293(3) 0.05220(11)
C15 C 1.3545(3) -0.0834(4) 0.08555(11)
C16 C 1.3795(4) -0.0384(5) 0.12612(13)
H7 H 1.3173 -0.0544 0.1431
H8 H 1.3908 0.0414 0.1248
H9 H 1.4461 -0.0737 0.1361
C17 C 1.1787(4) -0.3142(4) 0.03884(17)
H10 H 1.2213 -0.3827 0.0395
H11 H 1.1404 -0.3084 0.0143
H12 H 1.1247 -0.3145 0.0596
C18 C 1.2712(4) -0.1991(4) -0.03001(12)
H13 H 1.1913 -0.2155 -0.0308
H14 H 1.2856 -0.1380 -0.0481
C19 C 1.3361(3) -0.3429(4) -0.07805(10)
H15 H 1.3053 -0.3104 -0.1003
C20 C 1.4206(4) -0.4521(3) -0.03968(11)
H16 H 1.4612 -0.5132 -0.0303
C21 C 1.4754(3) 0.0711(4) 0.05725(13)
H17 H 1.4743 0.1154 0.0335
H18 H 1.4462 0.1177 0.0782
C22 C 1.4376(4) -0.0241(4) -0.02004(13)
H19 H 1.4273 -0.0732 -0.0420
H20 H 1.5163 -0.0170 -0.0145
H21 H 1.4069 0.0485 -0.0260
C23 C 1.6565(3) 0.0668(4) 0.09682(11)
H22 H 1.6318 0.1075 0.1183
C24 C 1.7545(4) -0.0267(3) 0.05795(11)
H23 H 1.8155 -0.0645 0.0472
N1 N 0.9823(3) -0.1111(3) 0.13697(11)
N2 N 1.1064(4) -0.2203(4) 0.16818(12)
N3 N 1.1419(3) -0.1982(3) 0.13088(11)
N4 N 1.3336(3) -0.2981(3) -0.04251(10)
N5 N 1.3889(3) -0.4407(3) -0.07710(9)
N6 N 1.3882(4) -0.3672(4) -0.01759(10)
N7 N 1.5925(3) 0.0397(3) 0.06631(9)
N8 N 1.7593(3) 0.0279(3) 0.09239(9)
N9 N 1.6555(3) -0.0215(3) 0.04101(10)
O1 O 1.0126(2) 0.0723(3) 0.07056(8)
O2 O 1.0516(2) 0.2400(3) 0.09286(7)
O3 O 1.3077(2) 0.2611(2) 0.09868(7)
O4 O 1.2918(2) 0.4229(3) 0.06785(7)
Cd1F Cd 1.58047(2) 0.58375(2) 0.377453(6)
Cd1G Cd 1.41953(2) -0.58375(2) -0.122547(6)
Cd1_2 Cd 1.91625(2) 0.08047(2) 0.127453(6)
Cd1B Cd 1.41625(2) 0.41953(2) 0.122547(6)
Cd1E Cd 1.08047(2) -0.08375(2) -0.127453(6)
Cd1G_2 Cd 1.41953(2) 0.41625(2) -0.122547(6)
Cd1F_2 Cd 1.58047(2) -0.41625(2) 0.377453(6)
C1E C 1.1636(3) 0.0651(3) -0.06871(10)
C2E C 1.1809(3) 0.1418(3) -0.03463(10)
C3E C 1.2596(3) 0.2277(3) -0.03478(9)
C6E C 1.3184(3) 0.2752(3) -0.07001(10)
C7F C 1.3344(4) 0.4899(4) 0.41996(14)
H3F H 1.3352 0.5347 0.4422
C8F C 1.3665(4) 0.4335(4) 0.36321(14)
H4F H 1.3923 0.4277 0.3377
C9F C 1.2576(4) 0.2511(4) 0.36580(13)
H5F H 1.1789 0.2602 0.3590
H6F H 1.2627 0.1941 0.3859
C10F C 1.3218(4) 0.2135(4) 0.33066(13)
C11F C 1.2841(4) 0.2434(3) 0.29365(13)
C12F C 1.3379(3) 0.1969(3) 0.26091(11)
C13F C 1.4276(4) 0.1218(3) 0.26496(11)
C14F C 1.4707(3) 0.1000(3) 0.30220(11)
C15F C 1.4166(4) 0.1455(3) 0.33555(11)
C16F C 1.4616(5) 0.1205(4) 0.37612(13)
H7F H 1.4456 0.1827 0.3931
H8F H 1.5414 0.1092 0.3748
H9F H 1.4263 0.0539 0.3861
C17F C 1.1858(4) 0.3213(4) 0.28884(17)
H10F H 1.1173 0.2787 0.2895
H11F H 1.1916 0.3596 0.2643
H12F H 1.1855 0.3753 0.3096
C18F C 1.3009(4) 0.2288(4) 0.21999(12)
H13F H 1.2845 0.3087 0.2192
H14F H 1.3620 0.2144 0.2019
C19F C 1.1571(4) 0.1639(3) 0.17195(10)
H15F H 1.1896 0.1947 0.1497
C20F C 1.0479(3) 0.0794(4) 0.21032(11)
H16F H 0.9868 0.0388 0.2197
C21F C 1.5711(4) 0.0246(3) 0.30725(13)
H17F H 1.6154 0.0257 0.2835
H18F H 1.6177 0.0538 0.3282
C22F C 1.4759(4) 0.0624(4) 0.22996(13)
H19F H 1.4268 0.0727 0.2080
H20F H 1.4830 -0.0163 0.2355
H21F H 1.5485 0.0931 0.2240
C23F C 1.5668(4) -0.1565(3) 0.34682(11)
H22F H 1.6075 -0.1318 0.3683
C24F C 1.4733(3) -0.2545(4) 0.30795(11)
H23F H 1.4355 -0.3155 0.2972
N1F N 1.3889(3) 0.5177(3) 0.38697(11)
N2F N 1.2797(4) 0.3936(4) 0.41818(12)
N3F N 1.3018(3) 0.3581(3) 0.38088(11)
N4F N 1.2019(3) 0.1664(3) 0.20749(10)
N5F N 1.0593(3) 0.1111(3) 0.17290(9)
N5A N 1.6111(3) 0.4407(3) 0.42290(9)
N6F N 1.1328(4) 0.1118(4) 0.23241(10)
N7F N 1.5397(3) -0.0925(3) 0.31631(9)
N8F N 1.5279(3) -0.2593(3) 0.34239(9)
N8_2 N 0.7593(3) 0.0279(3) 0.09239(9)
N8F_2 N 1.5279(3) 0.7407(3) 0.34239(9)
N9F N 1.4785(3) -0.1555(3) 0.29101(10)
O1E O 1.0723(3) 0.0126(2) -0.07056(8)
O1F O 1.5723(3) 0.4874(2) 0.32056(8)
O2E O 1.2400(3) 0.0516(2) -0.09286(7)
O3E O 1.2611(2) 0.3077(2) -0.09868(7)
O3B O 0.8077(2) 0.2389(2) 0.15132(7)
O3D O 1.7389(2) 0.6923(2) 0.40132(7)
O4E O 1.4229(3) 0.2918(2) -0.06785(7)
O4B O 0.7918(2) 0.0771(3) 0.18215(7)
O4D O 1.5771(3) 0.7082(2) 0.43215(7)
O5 O 1.7101(11) -0.1653(11) -0.0302(3)
loop_
_geom_bond_atom_site_label_1
_geom_bond_atom_site_label_2
_geom_bond_site_symmetry_1
_geom_bond_site_symmetry_2
Cd1 N1 1_555 1_555
C1 C2 1_555 1_555
C2 C3 1_555 1_555
C3 C5 1_555 1_555
C4 C2 1_555 1_555
H1 C4 1_555 1_555
C5 H2 1_555 1_555
C6 C3 1_555 1_555
C7 H3 1_555 1_555
C8 H4 1_555 1_555
C9 H5 1_555 1_555
H6 C9 1_555 1_555
C10 C9 1_555 1_555
C11 C10 1_555 1_555
C12 C11 1_555 1_555
C13 C12 1_555 1_555
C14 C13 1_555 1_555
C15 C10 1_555 1_555
C16 C15 1_555 1_555
H7 C16 1_555 1_555
H8 C16 1_555 1_555
H9 C16 1_555 1_555
C17 C11 1_555 1_555
H10 C17 1_555 1_555
H11 C17 1_555 1_555
H12 C17 1_555 1_555
C18 C12 1_555 1_555
H13 C18 1_555 1_555
H14 C18 1_555 1_555
C19 H15 1_555 1_555
C20 H16 1_555 1_555
C21 C14 1_555 1_555
H17 C21 1_555 1_555
H18 C21 1_555 1_555
C22 C13 1_555 1_555
H19 C22 1_555 1_555
H20 C22 1_555 1_555
H21 C22 1_555 1_555
C23 H22 1_555 1_555
C24 H23 1_555 1_555
N1 C7 1_555 1_555
N2 C7 1_555 1_555
N3 C8 1_555 1_555
N4 C18 1_555 1_555
N5 C19 1_555 1_555
N6 C20 1_555 1_555
N7 C21 1_555 1_555
N8 C23 1_555 1_555
N9 C24 1_555 1_555
O1 Cd1 1_555 1_555
O2 C1 1_555 1_555
O3 C6 1_555 1_555
O4 C6 1_555 1_555
Cd1F N1F 1_555 1_555
Cd1G N5 1_555 1_555
Cd1_2 N8 1_555 1_555
Cd1B O3 1_555 1_555
Cd1E O1E 1_555 1_555
Cd1G_2 O3E 1_555 1_555
Cd1F_2 N8F 1_555 1_555
C1E C2E 1_555 1_555
C2E C4 1_555 1_555
C3E C5 1_555 1_555
C6E C3E 1_555 1_555
C7F H3F 1_555 1_555
C8F H4F 1_555 1_555
C9F H5F 1_555 1_555
H6F C9F 1_555 1_555
C10F C9F 1_555 1_555
C11F C10F 1_555 1_555
C12F C11F 1_555 1_555
C13F C12F 1_555 1_555
C14F C13F 1_555 1_555
C15F C10F 1_555 1_555
C16F C15F 1_555 1_555
H7F C16F 1_555 1_555
H8F C16F 1_555 1_555
H9F C16F 1_555 1_555
C17F C11F 1_555 1_555
H10F C17F 1_555 1_555
H11F C17F 1_555 1_555
H12F C17F 1_555 1_555
C18F C12F 1_555 1_555
H13F C18F 1_555 1_555
H14F C18F 1_555 1_555
C19F H15F 1_555 1_555
C20F H16F 1_555 1_555
C21F C14F 1_555 1_555
H17F C21F 1_555 1_555
H18F C21F 1_555 1_555
C22F C13F 1_555 1_555
H19F C22F 1_555 1_555
H20F C22F 1_555 1_555
H21F C22F 1_555 1_555
C23F H22F 1_555 1_555
C24F H23F 1_555 1_555
N1F C7F 1_555 1_555
N2F C7F 1_555 1_555
N3F C8F 1_555 1_555
N4F C18F 1_555 1_555
N5F Cd1 1_555 1_555
N5A Cd1F 1_555 1_555
N6F C20F 1_555 1_555
N7F C21F 1_555 1_555
N8F C23F 1_555 1_555
N8_2 Cd1 1_555 1_555
N8F_2 Cd1F 1_555 1_555
N9F C24F 1_555 1_555
O1E C1E 1_555 1_555
O1F Cd1F 1_555 1_555
O2E C1E 1_555 1_555
O3E C6E 1_555 1_555
O3B Cd1 1_555 1_555
O3D Cd1F 1_555 1_555
O4E Cd1G_2 1_555 1_555
O4B Cd1 1_555 1_555
O4D Cd1F 1_555 1_555
C1 O1 1_555 1_555
C8 N1 1_555 1_555
C9 N3 1_555 1_555
C14 C15 1_555 1_555
C19 N4 1_555 1_555
C20 N5 1_555 1_555
C23 N7 1_555 1_555
C24 N8 1_555 1_555
N2 N3 1_555 1_555
N4 N6 1_555 1_555
N7 N9 1_555 1_555
O4 Cd1B 1_555 1_555
C2E C3E 1_555 1_555
C6E O4E 1_555 1_555
C8F N1F 1_555 1_555
C9F N3F 1_555 1_555
C14F C15F 1_555 1_555
C19F N4F 1_555 1_555
C19F N5F 1_555 1_555
C20F N5F 1_555 1_555
C23F N7F 1_555 1_555
C24F N8F 1_555 1_555
N2F N3F 1_555 1_555
N4F N6F 1_555 1_555
N7F N9F 1_555 1_555

#END
