
#######################################################################
#
#                 Cambridge Crystallographic Data Centre
#                                CCDC 
#
#######################################################################
#
# If this CIF has been generated from an entry in the Cambridge 
# Structural Database, then it will include bibliographic, chemical, 
# crystal, experimental, refinement or atomic coordinate data resulting 
# from the CCDC's data processing and validation procedures.
#
#######################################################################

data_WEMMEI
_symmetry_cell_setting           triclinic
_symmetry_space_group_name_H-M   'P -1'
_symmetry_Int_Tables_number      2
_space_group_name_Hall           '-P 1'
loop_
_symmetry_equiv_pos_site_id
_symmetry_equiv_pos_as_xyz
1 x,y,z
2 -x,-y,-z
_cell_length_a                   8.3270(4)
_cell_length_b                   9.9585(5)
_cell_length_c                   13.2645(7)
_cell_angle_alpha                68.0340(10)
_cell_angle_beta                 82.3390(10)
_cell_angle_gamma                72.1690(10)
_cell_volume                     970.88
loop_
_atom_site_label
_atom_site_type_symbol
_atom_site_fract_x
_atom_site_fract_y
_atom_site_fract_z
Mn1 Mn 1.02645(5) 0.14617(5) 0.38823(3)
Mn2 Mn 1.5000 0.0000 0.5000
O1 O 1.4775(2) 0.2215(2) 0.37171(17)
O2 O 1.3040(3) -0.0224(2) 0.40766(18)
H1 H 1.2806 -0.1027 0.4498
H2 H 1.3465 -0.0189 0.3451
O3 O 1.1386(3) 0.3305(2) 0.35358(18)
H3 H 1.1240 0.3789 0.2859
H4 H 1.2448 0.3052 0.3607
O4 O 1.6322(3) 0.2992(2) 0.19697(17)
H5 H 1.7171 0.3247 0.1688
O5 O 1.7663(3) 0.2509(2) 0.37560(17)
O7 O 1.6964(3) 0.8825(2) 0.42143(17)
O9 O 1.8562(3) 0.9960(2) 0.25362(17)
H10 H 1.9187 1.0492 0.2452
O10 O 1.9836(3) 0.9139(2) 0.43680(16)
O11 O 1.8527(3) 0.6017(2) -0.11854(17)
H11 H 1.8644 0.5283 -0.0620
O12 O 2.1130(3) 0.6326(2) -0.05924(17)
O13 O 1.9468(3) 0.8315(2) -0.22194(16)
P1 P 1.60455(9) 0.30728(8) 0.31460(6)
P2 P 1.86942(9) 0.88007(8) 0.37286(6)
P3 P 1.94104(10) 0.71542(9) -0.10856(6)
C1 C 1.6380(4) 0.5974(3) 0.2462(2)
C2 C 1.7369(4) 0.6095(3) 0.3191(2)
C3 C 1.8682(4) 0.6787(3) 0.2779(2)
C4 C 1.8994(4) 0.7345(3) 0.1653(2)
C5 C 1.7889(4) 0.7342(3) 0.0939(2)
C6 C 1.6581(4) 0.6648(3) 0.1338(2)
C7 C 1.5109(4) 0.5061(3) 0.2930(2)
H12 H 1.4178 0.5457 0.2437
H13 H 1.4660 0.5172 0.3617
C8 C 1.6972(4) 0.5531(4) 0.4393(2)
H14 H 1.6046 0.5099 0.4522
H15 H 1.6672 0.6357 0.4654
H16 H 1.7945 0.4780 0.4768
C9 C 1.9685(4) 0.7008(3) 0.3558(2)
H17 H 2.0826 0.6973 0.3274
H18 H 1.9745 0.6199 0.4258
C10 C 2.0476(4) 0.7986(4) 0.1201(3)
H19 H 2.1100 0.7905 0.1790
H20 H 2.0072 0.9027 0.0751
H21 H 2.1197 0.7433 0.0776
C11 C 1.8059(4) 0.8176(3) -0.0274(2)
H22 H 1.8462 0.9032 -0.0366
H23 H 1.6938 0.8576 -0.0574
C12 C 1.5360(4) 0.6697(4) 0.0563(2)
H24 H 1.4552 0.6175 0.0969
H25 H 1.5972 0.6221 0.0063
H26 H 1.4783 0.7728 0.0167
Mn1A Mn 1.97355(5) -0.14617(5) 0.61177(3)
Mn1_2 Mn 2.02645(5) 0.14617(5) 0.38823(3)
Mn1_3 Mn 2.02645(5) 1.14617(5) 0.38823(3)
Mn1A_2 Mn 1.97355(5) 0.85383(5) 0.61177(3)
Mn1A_3 Mn 1.97355(5) 0.85383(5) -0.38823(3)
Mn1A_4 Mn 0.97355(5) -0.14617(5) 0.61177(3)
Mn1A_5 Mn 0.97355(5) -1.14617(5) 0.61177(3)
Mn1_4 Mn 1.02645(5) -0.85383(5) 0.38823(3)
Mn1_5 Mn 1.02645(5) -0.85383(5) 1.38823(3)
Mn2_2 Mn 1.5000 1.0000 0.5000
Mn2_3 Mn 1.5000 -1.0000 0.5000
O1A O 1.5225(2) -0.2215(2) 0.62829(17)
O2A O 1.6960(3) 0.0224(2) 0.59234(18)
H1A H 1.7194 0.1027 0.5502
H2A H 1.6535 0.0189 0.6549
O3A O 1.8614(3) -0.3305(2) 0.64642(18)
H3A H 1.8760 -0.3789 0.7141
H4A H 1.7552 -0.3052 0.6393
O4A O 1.3678(3) -0.2992(2) 0.80303(17)
H5A H 1.2829 -0.3247 0.8312
O5A O 1.2337(3) -0.2509(2) 0.62440(17)
O5_2 O 0.7663(3) 0.2509(2) 0.37560(17)
O5A_2 O 2.2337(3) -0.2509(2) 0.62440(17)
O7A O 1.3036(3) -0.8825(2) 0.57857(17)
O7_2 O 1.6964(3) -0.1175(2) 0.42143(17)
O7A_2 O 1.3036(3) 0.1175(2) 0.57857(17)
O9A O 1.1438(3) -0.9960(2) 0.74638(17)
H10A H 1.0813 -1.0492 0.7548
O10A O 1.0164(3) -0.9139(2) 0.56320(16)
O10_2 O 0.9836(3) -0.0861(2) 0.43680(16)
O10A_2 O 1.0164(3) 0.0861(2) 0.56320(16)
O10A_3 O 2.0164(3) 0.0861(2) 0.56320(16)
O10_3 O 1.9836(3) -0.0861(2) 0.43680(16)
O11A O 1.1473(3) -0.6017(2) 1.11854(17)
H11A H 1.1356 -0.5283 1.0620
O12A O 0.8870(3) -0.6326(2) 1.05924(17)
O13A O 1.0532(3) -0.8315(2) 1.22194(16)
O13A_2 O 1.0532(3) 0.1685(2) 0.22194(16)
O13_2 O 1.9468(3) -0.1685(2) 0.77806(16)
P1A P 1.39545(9) -0.30728(8) 0.68540(6)
P2A P 1.13058(9) -0.88007(8) 0.62714(6)
P3A P 1.05896(10) -0.71542(9) 1.10856(6)
C1A C 1.3620(4) -0.5974(3) 0.7538(2)
C2A C 1.2631(4) -0.6095(3) 0.6809(2)
C3A C 1.1318(4) -0.6787(3) 0.7221(2)
C4A C 1.1006(4) -0.7345(3) 0.8347(2)
C5A C 1.2111(4) -0.7342(3) 0.9061(2)
C6A C 1.3419(4) -0.6648(3) 0.8662(2)
C7A C 1.4891(4) -0.5061(3) 0.7070(2)
H12A H 1.5822 -0.5457 0.7563
H13A H 1.5340 -0.5172 0.6383
C8A C 1.3028(4) -0.5531(4) 0.5607(2)
H14A H 1.3954 -0.5099 0.5478
H15A H 1.3328 -0.6357 0.5346
H16A H 1.2055 -0.4780 0.5232
C9A C 1.0315(4) -0.7008(3) 0.6442(2)
H17A H 0.9174 -0.6973 0.6726
H18A H 1.0255 -0.6199 0.5742
C10A C 0.9524(4) -0.7986(4) 0.8799(3)
H19A H 0.8900 -0.7905 0.8210
H20A H 0.9928 -0.9027 0.9249
H21A H 0.8803 -0.7433 0.9224
C11A C 1.1941(4) -0.8176(3) 1.0274(2)
H22A H 1.1538 -0.9032 1.0366
H23A H 1.3062 -0.8576 1.0574
C12A C 1.4640(4) -0.6697(4) 0.9437(2)
H24A H 1.5448 -0.6175 0.9031
H25A H 1.4028 -0.6221 0.9937
H26A H 1.5217 -0.7728 0.9833
O6 O 0.4873(4) 0.0101(4) 0.2161(2)
H6 H 0.5643 -0.0689 0.2158
H7 H 0.5663 0.0469 0.2175
O8 O 0.335(4) -0.124(3) 0.2593(19)
H8 H 0.3262 -0.1008 0.1913
H9 H 0.4043 -0.2089 0.2916
loop_
_geom_bond_atom_site_label_1
_geom_bond_atom_site_label_2
_geom_bond_site_symmetry_1
_geom_bond_site_symmetry_2
Mn1 O2 1_555 1_555
Mn2 O1 1_555 1_555
O1 P1 1_555 1_555
O2 Mn2 1_555 1_555
H1 O2 1_555 1_555
H2 O2 1_555 1_555
O3 Mn1 1_555 1_555
H3 O3 1_555 1_555
H4 O3 1_555 1_555
O4 H5 1_555 1_555
O5 P1 1_555 1_555
O6 H6 1_555 1_555
H7 O6 1_555 1_555
O7 P2 1_555 1_555
O8 H8 1_555 1_555
H9 O8 1_555 1_555
O9 H10 1_555 1_555
O10 P2 1_555 1_555
O11 H11 1_555 1_555
O12 P3 1_555 1_555
O13 P3 1_555 1_555
P1 O4 1_555 1_555
P2 O9 1_555 1_555
P3 O11 1_555 1_555
C1 C2 1_555 1_555
C2 C3 1_555 1_555
C3 C4 1_555 1_555
C4 C5 1_555 1_555
C5 C6 1_555 1_555
C6 C1 1_555 1_555
C7 P1 1_555 1_555
H12 C7 1_555 1_555
H13 C7 1_555 1_555
C8 C2 1_555 1_555
H14 C8 1_555 1_555
H15 C8 1_555 1_555
H16 C8 1_555 1_555
C9 P2 1_555 1_555
H17 C9 1_555 1_555
H18 C9 1_555 1_555
C10 C4 1_555 1_555
H19 C10 1_555 1_555
H20 C10 1_555 1_555
H21 C10 1_555 1_555
C11 P3 1_555 1_555
H22 C11 1_555 1_555
H23 C11 1_555 1_555
C12 C6 1_555 1_555
H24 C12 1_555 1_555
H25 C12 1_555 1_555
H26 C12 1_555 1_555
Mn1A O2A 1_555 1_555
Mn1_2 O5 1_555 1_555
Mn1_3 O10 1_555 1_555
Mn1A_2 O10 1_555 1_555
Mn1A_3 O13 1_555 1_555
Mn1A_4 O5A 1_555 1_555
Mn1A_5 O10A 1_555 1_555
Mn1_4 O10A 1_555 1_555
Mn1_5 O13A 1_555 1_555
Mn2_2 O7 1_555 1_555
Mn2_3 O7A 1_555 1_555
O1A Mn2 1_555 1_555
O2A Mn2 1_555 1_555
H1A O2A 1_555 1_555
H2A O2A 1_555 1_555
O3A Mn1A 1_555 1_555
H3A O3A 1_555 1_555
H4A O3A 1_555 1_555
O4A H5A 1_555 1_555
O5A P1A 1_555 1_555
O5_2 Mn1 1_555 1_555
O5A_2 Mn1A 1_555 1_555
O7A P2A 1_555 1_555
O7_2 Mn2 1_555 1_555
O7A_2 Mn2 1_555 1_555
O9A H10A 1_555 1_555
O10A P2A 1_555 1_555
O10_2 Mn1 1_555 1_555
O10A_2 Mn1 1_555 1_555
O10A_3 Mn1A 1_555 1_555
O10_3 Mn1A 1_555 1_555
O11A H11A 1_555 1_555
O12A P3A 1_555 1_555
O13A P3A 1_555 1_555
O13A_2 Mn1 1_555 1_555
O13_2 Mn1A 1_555 1_555
P1A O1A 1_555 1_555
P2A O9A 1_555 1_555
P3A O11A 1_555 1_555
C1A C2A 1_555 1_555
C2A C3A 1_555 1_555
C3A C4A 1_555 1_555
C4A C5A 1_555 1_555
C5A C6A 1_555 1_555
C6A C1A 1_555 1_555
C7A P1A 1_555 1_555
H12A C7A 1_555 1_555
H13A C7A 1_555 1_555
C8A C2A 1_555 1_555
H14A C8A 1_555 1_555
H15A C8A 1_555 1_555
H16A C8A 1_555 1_555
C9A P2A 1_555 1_555
H17A C9A 1_555 1_555
H18A C9A 1_555 1_555
C10A C4A 1_555 1_555
H19A C10A 1_555 1_555
H20A C10A 1_555 1_555
H21A C10A 1_555 1_555
C11A P3A 1_555 1_555
H22A C11A 1_555 1_555
H23A C11A 1_555 1_555
C12A C6A 1_555 1_555
H24A C12A 1_555 1_555
H25A C12A 1_555 1_555
H26A C12A 1_555 1_555
C1 C7 1_555 1_555
C3 C9 1_555 1_555
C5 C11 1_555 1_555
Mn1_2 O10A_3 1_555 1_555
Mn1_2 O10_3 1_555 1_555
Mn1A_4 O10_2 1_555 1_555
Mn1A_4 O10A_2 1_555 1_555
O4A P1A 1_555 1_555
C1A C7A 1_555 1_555
C3A C9A 1_555 1_555
C5A C11A 1_555 1_555

#END
