
#######################################################################
#
#                 Cambridge Crystallographic Data Centre
#                                CCDC 
#
#######################################################################
#
# If this CIF has been generated from an entry in the Cambridge 
# Structural Database, then it will include bibliographic, chemical, 
# crystal, experimental, refinement or atomic coordinate data resulting 
# from the CCDC's data processing and validation procedures.
#
#######################################################################

data_WEMPEJ
_symmetry_cell_setting           orthorhombic
_symmetry_space_group_name_H-M   'P b c a'
_symmetry_Int_Tables_number      61
_space_group_name_Hall           '-P 2ac 2ab'
loop_
_symmetry_equiv_pos_site_id
_symmetry_equiv_pos_as_xyz
1 x,y,z
2 1/2-x,-y,1/2+z
3 1/2+x,1/2-y,-z
4 -x,1/2+y,1/2-z
5 -x,-y,-z
6 1/2+x,y,1/2-z
7 1/2-x,1/2+y,z
8 x,1/2-y,1/2+z
_cell_length_a                   28.567(6)
_cell_length_b                   17.560(9)
_cell_length_c                   11.512(9)
_cell_angle_alpha                90
_cell_angle_beta                 90
_cell_angle_gamma                90
_cell_volume                     5774.84
loop_
_atom_site_label
_atom_site_type_symbol
_atom_site_fract_x
_atom_site_fract_y
_atom_site_fract_z
Cl2 Cl 0.4642(2) 0.1313(3) 0.7284(4)
O5 O 0.4294(5) 0.1363(8) 0.814(1)
O6 O 0.5024(4) 0.0849(7) 0.773(1)
O7 O 0.4778(5) 0.2032(9) 0.697(1)
O8 O 0.4430(6) 0.095(1) 0.635(2)
Cu1 Cu 0.57288(6) 0.1395(1) 0.0987(1)
Cu2 Cu 0.81595(6) 0.1488(1) 0.1252(1)
Cl3 Cl 0.6431(1) -0.0085(2) 0.1837(4)
Cl4 Cl 0.8214(2) -0.1392(2) -0.0908(3)
Cl5 Cl 0.8049(2) 0.0672(2) 0.3817(3)
N1 N 0.6475(4) 0.1269(6) 0.095(1)
N2 N 0.7446(4) 0.1357(6) 0.120(1)
N3 N 0.8473(4) 0.0476(6) 0.082(1)
N4 N 0.8878(5) -0.0932(7) 0.042(1)
N5 N 0.8343(4) 0.1910(6) 0.285(1)
N6 N 0.8326(4) 0.2764(6) 0.491(1)
C1 C 0.6725(5) 0.0714(8) 0.136(1)
C2 C 0.7210(4) 0.0728(7) 0.148(1)
C3 C 0.7190(5) 0.1949(7) 0.078(1)
C4 C 0.6712(5) 0.1880(7) 0.065(1)
C5 C 0.8272(5) -0.0032(8) 0.016(1)
C6 C 0.8476(6) -0.0732(8) -0.002(1)
C7 C 0.9078(6) -0.043(1) 0.107(2)
C8 C 0.8878(5) 0.0290(8) 0.130(1)
C9 C 0.8208(5) 0.1625(7) 0.384(1)
C10 C 0.8199(5) 0.2018(7) 0.485(1)
C11 C 0.8494(5) 0.3042(7) 0.393(1)
C12 C 0.8500(5) 0.2635(8) 0.291(1)
H1 H 0.7376 0.0280 0.1795
H2 H 0.7342 0.2429 0.0575
H3 H 0.6540 0.2311 0.0322
H4 H 0.7975 0.0084 -0.0214
H5 H 0.9383 -0.0528 0.1452
H6 H 0.9040 0.0663 0.1798
H7 H 0.8098 0.1753 0.5562
H8 H 0.8622 0.3559 0.3941
H9 H 0.8625 0.2874 0.2212
Cl6 Cl 0.5208(2) 0.0887(2) 0.3454(4)
N7 N 0.5669(4) 0.1991(6) 0.248(1)
N8 N 0.5669(4) 0.2874(6) 0.452(1)
C13 C 0.5458(4) 0.1782(7) 0.346(1)
C14 C 0.5440(5) 0.2197(7) 0.444(1)
C15 C 0.5881(5) 0.3096(7) 0.356(1)
C16 C 0.5876(5) 0.2678(8) 0.257(1)
H10 H 0.5266 0.2007 0.5122
H11 H 0.6059 0.3578 0.3572
H12 H 0.6029 0.2886 0.1876
Cl7 Cl 0.4600(3) 0.1459(4) 0.1012(7)
N9 N 0.5306(4) 0.0546(6) 0.046(1)
C17 C 0.4853(5) 0.0635(8) 0.047(1)
C18 C 0.5458(5) -0.0100(8) -0.004(1)
H13 H 0.5804 -0.0106 -0.0002
Cl7D Cl 0.5400(3) -0.1459(4) -0.1012(7)
N9D N 0.4694(4) -0.0546(6) -0.046(1)
C17D C 0.5147(5) -0.0635(8) -0.047(1)
C18D C 0.4542(5) 0.0100(8) 0.004(1)
H13D H 0.4196 0.0106 0.0002
Cu1D Cu 0.42712(6) -0.1395(1) -0.0987(1)
Cu2D Cu 0.18405(6) -0.1488(1) -0.1252(1)
Cl3D Cl 0.3569(1) 0.0085(2) -0.1837(4)
Cl4D Cl 0.1786(2) 0.1392(2) 0.0908(3)
Cl5D Cl 0.1951(2) -0.0672(2) -0.3817(3)
N1D N 0.3525(4) -0.1269(6) -0.095(1)
N2D N 0.2554(4) -0.1357(6) -0.120(1)
N3D N 0.1527(4) -0.0476(6) -0.082(1)
N4D N 0.1122(5) 0.0932(7) -0.042(1)
N5D N 0.1657(4) -0.1910(6) -0.285(1)
N6D N 0.1674(4) -0.2764(6) -0.491(1)
C1D C 0.3275(5) -0.0714(8) -0.136(1)
C2D C 0.2790(4) -0.0728(7) -0.148(1)
C3D C 0.2810(5) -0.1949(7) -0.078(1)
C4D C 0.3288(5) -0.1880(7) -0.065(1)
C5D C 0.1728(5) 0.0032(8) -0.016(1)
C6D C 0.1524(6) 0.0732(8) 0.002(1)
C7D C 0.0922(6) 0.043(1) -0.107(2)
C8D C 0.1122(5) -0.0290(8) -0.130(1)
C9D C 0.1792(5) -0.1625(7) -0.384(1)
C10D C 0.1801(5) -0.2018(7) -0.485(1)
C11D C 0.1506(5) -0.3042(7) -0.393(1)
C12D C 0.1500(5) -0.2635(8) -0.291(1)
H1D H 0.2624 -0.0280 -0.1795
H2D H 0.2658 -0.2429 -0.0575
H3D H 0.3460 -0.2311 -0.0322
H4D H 0.2025 -0.0084 0.0214
H5D H 0.0617 0.0528 -0.1452
H6D H 0.0960 -0.0663 -0.1798
H7D H 0.1902 -0.1753 -0.5562
H8D H 0.1378 -0.3559 -0.3941
H9D H 0.1375 -0.2874 -0.2212
Cl6D Cl 0.4792(2) -0.0887(2) -0.3454(4)
N7D N 0.4331(4) -0.1991(6) -0.248(1)
N8D N 0.4331(4) -0.2874(6) -0.452(1)
C13D C 0.4542(4) -0.1782(7) -0.346(1)
C14D C 0.4560(5) -0.2197(7) -0.444(1)
C15D C 0.4119(5) -0.3096(7) -0.356(1)
C16D C 0.4124(5) -0.2678(8) -0.257(1)
H10D H 0.4734 -0.2007 -0.5122
H11D H 0.3941 -0.3578 -0.3572
H12D H 0.3971 -0.2886 -0.1876
Cu1G Cu 0.57288(6) 0.3605(1) 0.5987(1)
Cu1C Cu 0.42712(6) -0.3605(1) -0.5987(1)
Cu2G Cu 0.81595(6) 0.3512(1) 0.6252(1)
Cu2C Cu 0.18405(6) -0.3512(1) -0.6252(1)
N6G N 0.8326(4) 0.2236(6) -0.009(1)
N6C N 0.1674(4) -0.2236(6) 0.009(1)
N8G N 0.5669(4) 0.2126(6) -0.048(1)
N8C N 0.4331(4) -0.2126(6) 0.048(1)
Cl1 Cl 0.2276(1) 0.1336(2) 0.7257(3)
O1 O 0.2494(5) 0.0859(7) 0.642(1)
O2 O 0.2473(5) 0.1198(7) 0.837(1)
O3 O 0.2350(4) 0.2107(6) 0.691(1)
O4 O 0.1811(5) 0.1143(8) 0.732(1)
loop_
_geom_bond_atom_site_label_1
_geom_bond_atom_site_label_2
_geom_bond_site_symmetry_1
_geom_bond_site_symmetry_2
Cl1 O1 1_555 1_555
O2 Cl1 1_555 1_555
O3 Cl1 1_555 1_555
O4 Cl1 1_555 1_555
Cl2 O5 1_555 1_555
O6 Cl2 1_555 1_555
O7 Cl2 1_555 1_555
O8 Cl2 1_555 1_555
Cu1 N1 1_555 1_555
Cu2 N2 1_555 1_555
Cl3 C1 1_555 1_555
Cl4 C6 1_555 1_555
Cl5 C9 1_555 1_555
N1 C1 1_555 1_555
N2 C2 1_555 1_555
N3 Cu2 1_555 1_555
N4 C6 1_555 1_555
N5 Cu2 1_555 1_555
N6 C10 1_555 1_555
C1 C2 1_555 1_555
C2 H1 1_555 1_555
C3 N2 1_555 1_555
C4 N1 1_555 1_555
C5 N3 1_555 1_555
C6 C5 1_555 1_555
C7 N4 1_555 1_555
C8 N3 1_555 1_555
C9 N5 1_555 1_555
C10 C9 1_555 1_555
C11 N6 1_555 1_555
C12 N5 1_555 1_555
H2 C3 1_555 1_555
H3 C4 1_555 1_555
H4 C5 1_555 1_555
H5 C7 1_555 1_555
H6 C8 1_555 1_555
H7 C10 1_555 1_555
H8 C11 1_555 1_555
H9 C12 1_555 1_555
Cl6 C13 1_555 1_555
N7 Cu1 1_555 1_555
N8 C14 1_555 1_555
C13 N7 1_555 1_555
C14 C13 1_555 1_555
C15 N8 1_555 1_555
C16 N7 1_555 1_555
H10 C14 1_555 1_555
H11 C15 1_555 1_555
H12 C16 1_555 1_555
Cl7 C17 1_555 1_555
N9 Cu1 1_555 1_555
C17 N9 1_555 1_555
C18 N9 1_555 1_555
H13 C18 1_555 1_555
Cl7D C17D 1_555 1_555
N9D C17D 1_555 1_555
C17D C18 1_555 1_555
C18D C17 1_555 1_555
H13D C18D 1_555 1_555
Cu1D N9D 1_555 1_555
Cu2D N2D 1_555 1_555
Cl3D C1D 1_555 1_555
Cl4D C6D 1_555 1_555
Cl5D C9D 1_555 1_555
N1D Cu1D 1_555 1_555
N2D C2D 1_555 1_555
N3D Cu2D 1_555 1_555
N4D C6D 1_555 1_555
N5D Cu2D 1_555 1_555
N6D C10D 1_555 1_555
C1D N1D 1_555 1_555
C2D C1D 1_555 1_555
C3D N2D 1_555 1_555
C4D N1D 1_555 1_555
C5D N3D 1_555 1_555
C6D C5D 1_555 1_555
C7D N4D 1_555 1_555
C8D N3D 1_555 1_555
C9D N5D 1_555 1_555
C10D C9D 1_555 1_555
C11D N6D 1_555 1_555
C12D N5D 1_555 1_555
H1D C2D 1_555 1_555
H2D C3D 1_555 1_555
H3D C4D 1_555 1_555
H4D C5D 1_555 1_555
H5D C7D 1_555 1_555
H6D C8D 1_555 1_555
H7D C10D 1_555 1_555
H8D C11D 1_555 1_555
H9D C12D 1_555 1_555
Cl6D C13D 1_555 1_555
N7D Cu1D 1_555 1_555
N8D C14D 1_555 1_555
C13D N7D 1_555 1_555
C14D C13D 1_555 1_555
C15D N8D 1_555 1_555
C16D N7D 1_555 1_555
H10D C14D 1_555 1_555
H11D C15D 1_555 1_555
H12D C16D 1_555 1_555
Cu1G N8 1_555 1_555
Cu1C N8D 1_555 1_555
Cu2G N6 1_555 1_555
Cu2C N6D 1_555 1_555
N6G Cu2 1_555 1_555
N6C Cu2D 1_555 1_555
N8G Cu1 1_555 1_555
N8C Cu1D 1_555 1_555
C3 C4 1_555 1_555
C7 C8 1_555 1_555
C11 C12 1_555 1_555
C15 C16 1_555 1_555
N9D C18D 1_555 1_555
C3D C4D 1_555 1_555
C7D C8D 1_555 1_555
C11D C12D 1_555 1_555
C15D C16D 1_555 1_555

#END
