
#######################################################################
#
#                 Cambridge Crystallographic Data Centre
#                                CCDC 
#
#######################################################################
#
# If this CIF has been generated from an entry in the Cambridge 
# Structural Database, then it will include bibliographic, chemical, 
# crystal, experimental, refinement or atomic coordinate data resulting 
# from the CCDC's data processing and validation procedures.
#
#######################################################################

data_WEMRAI
_symmetry_cell_setting           triclinic
_symmetry_space_group_name_H-M   'P -1'
_symmetry_Int_Tables_number      2
_space_group_name_Hall           '-P 1'
loop_
_symmetry_equiv_pos_site_id
_symmetry_equiv_pos_as_xyz
1 x,y,z
2 -x,-y,-z
_cell_length_a                   7.324(2)
_cell_length_b                   9.992(3)
_cell_length_c                   12.862(4)
_cell_angle_alpha                112.223(4)
_cell_angle_beta                 91.469(4)
_cell_angle_gamma                98.044(5)
_cell_volume                     859.594
loop_
_atom_site_label
_atom_site_type_symbol
_atom_site_fract_x
_atom_site_fract_y
_atom_site_fract_z
Yb1 Yb 0.70693(3) 0.57316(2) 0.688050(17)
O1 O 0.4190(5) 0.5019(4) 0.6196(4)
O2 O 0.2125(5) 0.4041(4) 0.4715(3)
O3 O -0.0306(5) 0.4685(4) 0.6831(3)
O4 O -0.2758(5) 0.3199(4) 0.5833(3)
O5 O 0.6481(7) 0.4661(5) 0.8220(4)
O6 O 0.5768(6) 0.6825(4) 0.8632(3)
N1 N 0.6361(6) 0.8161(5) 0.7019(4)
N2 N 0.9574(6) 0.7823(5) 0.7937(4)
C1 C 0.2869(7) 0.4061(6) 0.5601(4)
C2 C 0.2161(8) 0.2837(6) 0.5980(5)
H1 H 0.2383 0.3190 0.6793
H2 H 0.2851 0.2037 0.5652
C3 C 0.0114(8) 0.2267(6) 0.5648(5)
H3 H -0.0099 0.1863 0.4833
H4 H -0.0258 0.1484 0.5907
C4 C -0.1053(7) 0.3439(6) 0.6132(4)
C5 C 0.5741(8) 0.5705(6) 0.8837(5)
C6 C 0.4747(9) 0.5588(7) 0.9818(5)
H5 H 0.5024 0.6523 1.0452
H6 H 0.3424 0.5393 0.9615
C7 C 0.4839(8) 0.8336(7) 0.6540(5)
H7 H 0.3960 0.7512 0.6154
C8 C 0.4486(9) 0.9687(7) 0.6583(6)
H8 H 0.3417 0.9748 0.6208
C9 C 0.5713(9) 1.0920(7) 0.7176(6)
H9 H 0.5482 1.1833 0.7226
C10 C 0.7337(8) 1.0789(6) 0.7714(5)
C11 C 0.8695(9) 1.2033(7) 0.8357(6)
H10 H 0.8502 1.2967 0.8441
C12 C 1.0254(9) 1.1860(7) 0.8843(6)
H11 H 1.1115 1.2682 0.9261
C13 C 1.0608(8) 1.0443(6) 0.8727(5)
C14 C 1.2234(8) 1.0217(7) 0.9209(5)
H12 H 1.3115 1.1011 0.9648
C15 C 1.2496(8) 0.8835(7) 0.9025(5)
H13 H 1.3572 0.8671 0.9324
C16 C 1.1140(8) 0.7656(6) 0.8383(5)
H14 H 1.1343 0.6712 0.8263
C17 C 0.9291(7) 0.9186(6) 0.8100(4)
C18 C 0.7622(7) 0.9397(6) 0.7605(4)
Yb1A Yb 0.29307(3) 0.42684(2) 0.311950(17)
Yb1_2 Yb -0.29307(3) 0.57316(2) 0.688050(17)
Yb1A_2 Yb 0.29307(3) 0.42684(2) 1.311950(17)
Yb1A_3 Yb 1.29307(3) 0.42684(2) 0.311950(17)
O1A O 0.5810(5) 0.4981(4) 0.3804(4)
O2A O 0.7875(5) 0.5959(4) 0.5285(3)
O3A O 1.0306(5) 0.5315(4) 0.3169(3)
O3_2 O 0.9694(5) 0.4685(4) 0.6831(3)
O3A_2 O 0.0306(5) 0.5315(4) 0.3169(3)
O4A O 1.2758(5) 0.6801(4) 0.4167(3)
O4_2 O 0.7242(5) 0.3199(4) 0.5833(3)
O4A_2 O 0.2758(5) 0.6801(4) 0.4167(3)
O5A O 0.3519(7) 0.5339(5) 1.1780(4)
O5A_2 O 0.3519(7) 0.5339(5) 0.1780(4)
O6A O 0.4232(6) 0.3175(4) 1.1368(3)
O6A_2 O 0.4232(6) 0.3175(4) 0.1368(3)
N1A N 0.3639(6) 0.1839(5) 0.2981(4)
N2A N 0.0426(6) 0.2177(5) 0.2063(4)
C1A C 0.7131(7) 0.5939(6) 0.4399(4)
C2A C 0.7839(8) 0.7163(6) 0.4020(5)
H1A H 0.7617 0.6810 0.3207
H2A H 0.7149 0.7963 0.4348
C3A C 0.9886(8) 0.7733(6) 0.4352(5)
H3A H 1.0099 0.8137 0.5167
H4A H 1.0258 0.8516 0.4093
C4A C 1.1053(7) 0.6561(6) 0.3868(4)
C5A C 0.4259(8) 0.4295(6) 1.1163(5)
C6A C 0.5253(9) 0.4412(7) 1.0182(5)
H5A H 0.4976 0.3477 0.9548
H6A H 0.6576 0.4607 1.0385
C7A C 0.5161(8) 0.1664(7) 0.3460(5)
H7A H 0.6040 0.2488 0.3846
C8A C 0.5514(9) 0.0313(7) 0.3417(6)
H8A H 0.6583 0.0252 0.3792
C9A C 0.4287(9) -0.0920(7) 0.2824(6)
H9A H 0.4518 -0.1833 0.2774
C10A C 0.2663(8) -0.0789(6) 0.2286(5)
C11A C 0.1305(9) -0.2033(7) 0.1643(6)
H10A H 0.1498 -0.2967 0.1559
C12A C -0.0254(9) -0.1860(7) 0.1157(6)
H11A H -0.1115 -0.2682 0.0739
C13A C -0.0608(8) -0.0443(6) 0.1273(5)
C14A C -0.2234(8) -0.0217(7) 0.0791(5)
H12A H -0.3115 -0.1011 0.0352
C15A C -0.2496(8) 0.1165(7) 0.0975(5)
H13A H -0.3572 0.1329 0.0676
C16A C -0.1140(8) 0.2344(6) 0.1617(5)
H14A H -0.1343 0.3288 0.1737
C17A C 0.0709(7) 0.0814(6) 0.1900(4)
C18A C 0.2378(7) 0.0603(6) 0.2395(4)
loop_
_geom_bond_atom_site_label_1
_geom_bond_atom_site_label_2
_geom_bond_site_symmetry_1
_geom_bond_site_symmetry_2
Yb1 O1 1_555 1_555
O1 C1 1_555 1_555
O2 C1 1_555 1_555
O3 C4 1_555 1_555
O4 C4 1_555 1_555
O5 Yb1 1_555 1_555
O6 Yb1 1_555 1_555
N1 Yb1 1_555 1_555
N2 Yb1 1_555 1_555
C1 C2 1_555 1_555
C2 H1 1_555 1_555
H2 C2 1_555 1_555
C3 C2 1_555 1_555
H3 C3 1_555 1_555
H4 C3 1_555 1_555
C4 C3 1_555 1_555
C5 O5 1_555 1_555
C6 C5 1_555 1_555
H5 C6 1_555 1_555
H6 C6 1_555 1_555
C7 N1 1_555 1_555
H7 C7 1_555 1_555
C8 C7 1_555 1_555
H8 C8 1_555 1_555
C9 C8 1_555 1_555
H9 C9 1_555 1_555
C10 C9 1_555 1_555
C11 C10 1_555 1_555
H10 C11 1_555 1_555
C12 C11 1_555 1_555
H11 C12 1_555 1_555
C13 C12 1_555 1_555
C14 C13 1_555 1_555
H12 C14 1_555 1_555
C15 C14 1_555 1_555
H13 C15 1_555 1_555
C16 N2 1_555 1_555
H14 C16 1_555 1_555
C17 N2 1_555 1_555
C18 N1 1_555 1_555
Yb1A O2 1_555 1_555
Yb1_2 O3 1_555 1_555
Yb1A_2 O5A 1_555 1_555
Yb1A_3 O3A 1_555 1_555
O1A Yb1A 1_555 1_555
O2A Yb1 1_555 1_555
O3A C4A 1_555 1_555
O3_2 Yb1 1_555 1_555
O3A_2 Yb1A 1_555 1_555
O4A Yb1A_3 1_555 1_555
O4_2 Yb1 1_555 1_555
O4A_2 Yb1A 1_555 1_555
O5A C5A 1_555 1_555
O5A_2 Yb1A 1_555 1_555
O6A Yb1A_2 1_555 1_555
O6A_2 Yb1A 1_555 1_555
N1A Yb1A 1_555 1_555
N2A Yb1A 1_555 1_555
C1A O1A 1_555 1_555
C2A C1A 1_555 1_555
H1A C2A 1_555 1_555
H2A C2A 1_555 1_555
C3A C2A 1_555 1_555
H3A C3A 1_555 1_555
H4A C3A 1_555 1_555
C4A O4A 1_555 1_555
C5A O6A 1_555 1_555
C6A C6 1_555 1_555
H5A C6A 1_555 1_555
H6A C6A 1_555 1_555
C7A N1A 1_555 1_555
H7A C7A 1_555 1_555
C8A C7A 1_555 1_555
H8A C8A 1_555 1_555
C9A C8A 1_555 1_555
H9A C9A 1_555 1_555
C10A C9A 1_555 1_555
C11A C10A 1_555 1_555
H10A C11A 1_555 1_555
C12A C11A 1_555 1_555
H11A C12A 1_555 1_555
C13A C12A 1_555 1_555
C14A C13A 1_555 1_555
H12A C14A 1_555 1_555
C15A C14A 1_555 1_555
H13A C15A 1_555 1_555
C16A N2A 1_555 1_555
H14A C16A 1_555 1_555
C17A N2A 1_555 1_555
C18A N1A 1_555 1_555
O4 Yb1_2 1_555 1_555
O6 C5 1_555 1_555
C10 C18 1_555 1_555
C13 C17 1_555 1_555
C15 C16 1_555 1_555
C17 C18 1_555 1_555
O2A C1A 1_555 1_555
C3A C4A 1_555 1_555
C5A C6A 1_555 1_555
C10A C18A 1_555 1_555
C13A C17A 1_555 1_555
C15A C16A 1_555 1_555
C17A C18A 1_555 1_555

#END
