
#######################################################################
#
#                 Cambridge Crystallographic Data Centre
#                                CCDC 
#
#######################################################################
#
# If this CIF has been generated from an entry in the Cambridge 
# Structural Database, then it will include bibliographic, chemical, 
# crystal, experimental, refinement or atomic coordinate data resulting 
# from the CCDC's data processing and validation procedures.
#
#######################################################################

data_WEMSEN
_symmetry_cell_setting           monoclinic
_symmetry_space_group_name_H-M   'P 21/c'
_symmetry_Int_Tables_number      14
_space_group_name_Hall           '-P 2ybc'
loop_
_symmetry_equiv_pos_site_id
_symmetry_equiv_pos_as_xyz
1 x,y,z
2 -x,1/2+y,1/2-z
3 -x,-y,-z
4 x,1/2-y,1/2+z
_cell_length_a                   5.4762(10)
_cell_length_b                   15.6136(10)
_cell_length_c                   13.904(2)
_cell_angle_alpha                90
_cell_angle_beta                 98.584(10)
_cell_angle_gamma                90
_cell_volume                     1175.52
loop_
_atom_site_label
_atom_site_type_symbol
_atom_site_fract_x
_atom_site_fract_y
_atom_site_fract_z
Cu1 Cu 0.97861(12) 0.40778(4) 1.03533(5)
Cu2 Cu 0.5000 0.5000 1.0000
N1 N 0.5410(11) 0.1625(3) 0.9354(4)
H1 H 0.5980 0.1492 0.9945
C1 C 0.5310(13) 0.3191(4) 0.9606(4)
C2 C 0.3927(11) 0.2394(4) 0.9170(5)
H2 H 0.2416 0.2327 0.9449
H3 H 0.3479 0.2471 0.8474
C3 C 0.5924(14) 0.1114(4) 0.8636(5)
C4 C 0.7578(17) 0.0340(5) 0.9131(3)
H4 H 0.7924 -0.0052 0.8636
H5 H 0.6700 0.0047 0.9580
H6 H 0.9101 0.0562 0.9471
O1 O 0.7557(8) 0.3145(3) 0.9896(3)
O2 O 0.3971(8) 0.3834(3) 0.9642(3)
O3 O 0.4969(9) 0.1203(3) 0.7776(3)
O4 O 0.1951(8) 0.5093(3) 1.0591(3)
H7 H 0.2175 0.5267 1.1177
O5 O 0.7352(8) 0.4612(3) 1.1467(3)
H8 H 0.7335 0.4649 1.2134
O6 O 1.1470(9) 0.3283(3) 1.1304(3)
H9 H 1.2871 0.3158 1.1149
H10 H 1.1667 0.3516 1.1863
Cu1B Cu 0.02139(12) 0.59222(4) 0.96467(5)
Cu1_2 Cu -0.02139(12) 0.40778(4) 1.03533(5)
Cu1B_2 Cu 1.02139(12) 0.59222(4) 0.96467(5)
N1B N 0.4590(11) 0.8375(3) 1.0646(4)
H1B H 0.4020 0.8508 1.0055
C1B C 0.4690(13) 0.6809(4) 1.0394(4)
C2B C 0.6073(11) 0.7606(4) 1.0830(5)
H2B H 0.7584 0.7673 1.0551
H3B H 0.6521 0.7529 1.1526
C3B C 0.4076(14) 0.8886(4) 1.1364(5)
C4B C 0.2422(17) 0.9660(5) 1.0869(3)
H4B H 0.2076 1.0052 1.1364
H5B H 0.3300 0.9953 1.0420
H6B H 0.0899 0.9438 1.0529
O1B O 0.2443(8) 0.6855(3) 1.0104(3)
O2B O 0.6029(8) 0.6166(3) 1.0358(3)
O3B O 0.5031(9) 0.8797(3) 1.2224(3)
O4B O 0.8049(8) 0.4907(3) 0.9409(3)
O4_2 O 1.1951(8) 0.5093(3) 1.0591(3)
O4B_2 O -0.1951(8) 0.4907(3) 0.9409(3)
H7B H 0.7825 0.4733 0.8823
H7_2 H 1.2175 0.5267 1.1177
H7B_2 H -0.2175 0.4733 0.8823
O5B O 0.2648(8) 0.5388(3) 0.8533(3)
H8B H 0.2665 0.5351 0.7866
O6B O -0.1470(9) 0.6717(3) 0.8696(3)
H9B H -0.2871 0.6842 0.8851
H10B H -0.1667 0.6484 0.8137
Cl1 Cl 0.8021(4) 0.35890(14) 0.71351(16)
O7 O 0.7824(13) 0.2687(3) 0.7055(5)
O8 O 0.7858(12) 0.3953(4) 0.6196(4)
O9 O 1.0319(11) 0.3807(4) 0.7688(5)
O10 O 0.6082(11) 0.3909(4) 0.7601(5)
O11? O 0.544(2) 0.3521(9) 0.6809(11)
O12? O 0.856(3) 0.4412(7) 0.7557(10)
O13? O 0.933(3) 0.3480(8) 0.6331(10)
O14? O 0.876(3) 0.2943(8) 0.7843(9)
loop_
_geom_bond_atom_site_label_1
_geom_bond_atom_site_label_2
_geom_bond_site_symmetry_1
_geom_bond_site_symmetry_2
Cu1 O1 1_555 1_555
Cu2 O2 1_555 1_555
N1 H1 1_555 1_555
C1 C2 1_555 1_555
C2 N1 1_555 1_555
H2 C2 1_555 1_555
H3 C2 1_555 1_555
C3 N1 1_555 1_555
C4 C3 1_555 1_555
H4 C4 1_555 1_555
H5 C4 1_555 1_555
H6 C4 1_555 1_555
O1 C1 1_555 1_555
O2 C1 1_555 1_555
O3 C3 1_555 1_555
O4 Cu2 1_555 1_555
H7 O4 1_555 1_555
O5 Cu1 1_555 1_555
H8 O5 1_555 1_555
O6 Cu1 1_555 1_555
H9 O6 1_555 1_555
H10 O6 1_555 1_555
Cl1 O7 1_555 1_555
O8 Cl1 1_555 1_555
O9 Cl1 1_555 1_555
O10 Cl1 1_555 1_555
Cu1B O4 1_555 1_555
Cu1_2 O4 1_555 1_555
Cu1B_2 O4B 1_555 1_555
N1B H1B 1_555 1_555
C1B C2B 1_555 1_555
C2B N1B 1_555 1_555
H2B C2B 1_555 1_555
H3B C2B 1_555 1_555
C3B N1B 1_555 1_555
C4B C3B 1_555 1_555
H4B C4B 1_555 1_555
H5B C4B 1_555 1_555
H6B C4B 1_555 1_555
O1B Cu1B 1_555 1_555
O2B Cu2 1_555 1_555
O3B C3B 1_555 1_555
O4B Cu1 1_555 1_555
O4_2 Cu1 1_555 1_555
O4B_2 Cu1B 1_555 1_555
H7B O4B 1_555 1_555
H7_2 O4_2 1_555 1_555
H7B_2 O4B_2 1_555 1_555
O5B Cu2 1_555 1_555
H8B O5B 1_555 1_555
O6B Cu1B 1_555 1_555
H9B O6B 1_555 1_555
H10B O6B 1_555 1_555
Cu2 O5 1_555 1_555
Cu2 O4B 1_555 1_555
Cu1B O5B 1_555 1_555
Cu1_2 O4B_2 1_555 1_555
Cu1B_2 O4_2 1_555 1_555
C1B O1B 1_555 1_555
C1B O2B 1_555 1_555

#END
