
#######################################################################
#
#                 Cambridge Crystallographic Data Centre
#                                CCDC 
#
#######################################################################
#
# If this CIF has been generated from an entry in the Cambridge 
# Structural Database, then it will include bibliographic, chemical, 
# crystal, experimental, refinement or atomic coordinate data resulting 
# from the CCDC's data processing and validation procedures.
#
#######################################################################

data_WENFUS
_symmetry_cell_setting           orthorhombic
_symmetry_space_group_name_H-M   'P n a 21'
_symmetry_Int_Tables_number      33
_space_group_name_Hall           'P 2c -2n'
loop_
_symmetry_equiv_pos_site_id
_symmetry_equiv_pos_as_xyz
1 x,y,z
2 -x,-y,1/2+z
3 1/2-x,1/2+y,1/2+z
4 1/2+x,1/2-y,z
_cell_length_a                   25.707(6)
_cell_length_b                   10.625(3)
_cell_length_c                   11.749(3)
_cell_angle_alpha                90
_cell_angle_beta                 90
_cell_angle_gamma                90
_cell_volume                     3209.09
loop_
_atom_site_label
_atom_site_type_symbol
_atom_site_fract_x
_atom_site_fract_y
_atom_site_fract_z
Cu1 Cu 0.19783(3) 0.13692(7) 0.43737(8)
Cu2 Cu 0.25906(3) 0.17896(7) 0.03658(8)
N1 N 0.2612(3) 0.2032(6) 0.5172(6)
N2 N 0.1655(3) 0.2490(5) 0.5564(5)
N3 N 0.1307(2) 0.0743(6) 0.3761(6)
N4 N 0.0054(3) -0.1283(7) 0.2430(6)
H1 H -0.0092 -0.1867 0.2824
H2 H -0.0045 -0.1144 0.1742
N5 N 0.2296(2) 0.1419(5) 0.2829(5)
N6 N 0.3060(3) 0.0691(4) -0.0634(6)
N7 N 0.2055(3) 0.0939(5) -0.0707(6)
N8 N 0.2177(2) -0.0426(7) 0.4830(5)
C1 C 0.3105(4) 0.1725(7) 0.4895(6)
H3 H 0.3163 0.1263 0.4235
C2 C 0.3528(4) 0.2071(8) 0.5551(10)
H4 H 0.3866 0.1850 0.5349
C3 C 0.3424(4) 0.2765(9) 0.6529(10)
H5 H 0.3700 0.3028 0.6983
C4 C 0.2945(4) 0.3061(7) 0.6832(7)
H6 H 0.2880 0.3508 0.7497
C5 C 0.2533(3) 0.2679(7) 0.6113(7)
C6 C 0.1979(4) 0.2964(6) 0.6355(7)
C7 C 0.1805(4) 0.3655(7) 0.7248(7)
H7 H 0.2038 0.3952 0.7792
C8 C 0.1284(5) 0.3912(9) 0.7345(9)
H8 H 0.1162 0.4404 0.7943
C9 C 0.0943(4) 0.3440(8) 0.6552(9)
H9 H 0.0587 0.3583 0.6600
C10 C 0.1153(4) 0.2757(7) 0.5702(7)
H10 H 0.0925 0.2442 0.5158
C11 C 0.1123(3) 0.0971(7) 0.2747(8)
H11 H 0.1284 0.1595 0.2318
C12 C 0.0703(4) 0.0348(9) 0.2268(7)
H12 H 0.0588 0.0550 0.1540
C13 C 0.0460(3) -0.0580(9) 0.2894(9)
C14 C 0.0627(4) -0.0802(8) 0.3980(8)
H13 H 0.0464 -0.1385 0.4450
C15 C 0.1039(3) -0.0131(8) 0.4330(8)
H14 H 0.1154 -0.0296 0.5066
C16 C 0.2448(3) 0.1454(7) 0.1890(7)
C17 C 0.3586(3) 0.0714(6) -0.0690(9)
H15 H 0.3762 0.1138 -0.0113
C18 C 0.3879(3) 0.0170(8) -0.1518(8)
H16 H 0.4240 0.0207 -0.1489
C19 C 0.3636(4) -0.0424(8) -0.2384(8)
H17 H 0.3823 -0.0798 -0.2971
C20 C 0.3091(4) -0.0453(7) -0.2362(7)
H18 H 0.2915 -0.0861 -0.2946
C21 C 0.2815(3) 0.0093(6) -0.1518(7)
C22 C 0.2253(3) 0.0147(7) -0.1481(7)
C23 C 0.1930(4) -0.0549(7) -0.2203(7)
H19 H 0.2069 -0.1108 -0.2730
C24 C 0.1398(4) -0.0383(9) -0.2112(8)
H20 H 0.1176 -0.0822 -0.2595
C25 C 0.1199(4) 0.0404(9) -0.1335(8)
H21 H 0.0842 0.0513 -0.1273
C26 C 0.1526(4) 0.1035(7) -0.0645(9)
H22 H 0.1383 0.1564 -0.0097
C27 C 0.2276(3) -0.1519(8) 0.4986(5)
Cu2B Cu 0.24094(3) -0.32104(7) 0.53658(8)
C27B C 0.2724(3) 0.3481(8) -0.0014(5)
N9 N 0.4884(4) 0.3149(12) 0.4842(8)
C28 C 0.4807(5) 0.2613(13) 0.4049(11)
C29 C 0.4751(4) 0.1914(10) 0.3025(10)
H23 H 0.5076 0.1911 0.2619
H24 H 0.4487 0.2294 0.2560
H25 H 0.4653 0.1064 0.3203
F1 F 0.4495(3) 0.7812(7) 0.5422(8)
F2 F 0.5117(3) 0.9002(11) 0.5459(7)
F3 F 0.4798(2) 0.8588(7) 0.3885(5)
F4 F 0.4385(4) 0.9648(9) 0.5015(8)
B1 B 0.4731(8) 0.8718(19) 0.4940(14)
loop_
_geom_bond_atom_site_label_1
_geom_bond_atom_site_label_2
_geom_bond_site_symmetry_1
_geom_bond_site_symmetry_2
Cu1 N1 1_555 1_555
Cu2 N6 1_555 1_555
N1 C1 1_555 1_555
N2 Cu1 1_555 1_555
N3 Cu1 1_555 1_555
N4 H1 1_555 1_555
H2 N4 1_555 1_555
N5 Cu1 1_555 1_555
N6 C17 1_555 1_555
N7 Cu2 1_555 1_555
N8 Cu1 1_555 1_555
C1 H3 1_555 1_555
C2 C1 1_555 1_555
H4 C2 1_555 1_555
C3 C2 1_555 1_555
H5 C3 1_555 1_555
C4 C3 1_555 1_555
H6 C4 1_555 1_555
C5 N1 1_555 1_555
C6 N2 1_555 1_555
C7 C6 1_555 1_555
H7 C7 1_555 1_555
C8 C7 1_555 1_555
H8 C8 1_555 1_555
C9 C8 1_555 1_555
H9 C9 1_555 1_555
C10 N2 1_555 1_555
H10 C10 1_555 1_555
C11 N3 1_555 1_555
H11 C11 1_555 1_555
C12 C11 1_555 1_555
H12 C12 1_555 1_555
C13 N4 1_555 1_555
C14 C13 1_555 1_555
H13 C14 1_555 1_555
C15 N3 1_555 1_555
H14 C15 1_555 1_555
C16 Cu2 1_555 1_555
C17 H15 1_555 1_555
C18 C17 1_555 1_555
H16 C18 1_555 1_555
C19 C18 1_555 1_555
H17 C19 1_555 1_555
C20 C19 1_555 1_555
H18 C20 1_555 1_555
C21 N6 1_555 1_555
C22 N7 1_555 1_555
C23 C22 1_555 1_555
H19 C23 1_555 1_555
C24 C23 1_555 1_555
H20 C24 1_555 1_555
C25 C24 1_555 1_555
H21 C25 1_555 1_555
C26 N7 1_555 1_555
H22 C26 1_555 1_555
C27 N8 1_555 1_555
N9 C28 1_555 1_555
C28 C29 1_555 1_555
C29 H23 1_555 1_555
H24 C29 1_555 1_555
H25 C29 1_555 1_555
F1 B1 1_555 1_555
F2 B1 1_555 1_555
F3 B1 1_555 1_555
F4 B1 1_555 1_555
Cu2B C27 1_555 1_555
C27B Cu2 1_555 1_555
N5 C16 1_555 1_555
C4 C5 1_555 1_555
C5 C6 1_555 1_555
C9 C10 1_555 1_555
C12 C13 1_555 1_555
C14 C15 1_555 1_555
C20 C21 1_555 1_555
C21 C22 1_555 1_555
C25 C26 1_555 1_555

#END
