
#######################################################################
#
#                 Cambridge Crystallographic Data Centre
#                                CCDC 
#
#######################################################################
#
# If this CIF has been generated from an entry in the Cambridge 
# Structural Database, then it will include bibliographic, chemical, 
# crystal, experimental, refinement or atomic coordinate data resulting 
# from the CCDC's data processing and validation procedures.
#
#######################################################################

data_WENSOY
_symmetry_cell_setting           orthorhombic
_symmetry_space_group_name_H-M   'P c c a'
_symmetry_Int_Tables_number      54
_space_group_name_Hall           '-P 2a 2ac'
loop_
_symmetry_equiv_pos_site_id
_symmetry_equiv_pos_as_xyz
1 x,y,z
2 1/2-x,-y,z
3 1/2+x,-y,1/2-z
4 -x,y,1/2-z
5 -x,-y,-z
6 1/2+x,y,-z
7 1/2-x,y,1/2+z
8 x,-y,1/2+z
_cell_length_a                   13.920(3)
_cell_length_b                   9.879(2)
_cell_length_c                   28.548(6)
_cell_angle_alpha                90
_cell_angle_beta                 90
_cell_angle_gamma                90
_cell_volume                     3925.8
loop_
_atom_site_label
_atom_site_type_symbol
_atom_site_fract_x
_atom_site_fract_y
_atom_site_fract_z
C1 C 0.87324(19) 0.5288(3) 0.69951(9)
H1 H 0.8724 0.6073 0.6815
C2 C 0.8750(2) 0.5416(3) 0.74805(9)
H2 H 0.8758 0.6267 0.7619
C3 C 0.87549(19) 0.4282(3) 0.77486(9)
H3 H 0.8767 0.4350 0.8073
C4 C 0.87428(18) 0.3012(3) 0.75331(8)
C5 C 0.87347(18) 0.2969(3) 0.70369(8)
C6 C 0.87325(17) 0.1693(3) 0.67876(8)
C7 C 0.8725(2) 0.0613(3) 0.60736(9)
H4 H 0.8719 0.0655 0.5748
C8 C 0.8740(2) -0.0663(3) 0.62881(10)
H5 H 0.8746 -0.1448 0.6108
C9 C 0.8748(2) -0.0735(3) 0.67639(10)
H6 H 0.8758 -0.1572 0.6912
C10 C 0.87398(19) 0.0453(3) 0.70283(9)
C11 C 0.87428(19) 0.0509(3) 0.75281(9)
C12 C 0.87438(18) 0.1728(3) 0.77617(8)
C13 C 0.8748(2) 0.0021(3) 0.82519(9)
C14 C 0.8783(2) -0.0722(3) 0.86938(10)
C15 C 0.8869(3) -0.2083(4) 0.86953(12)
H7 H 0.8871 -0.2546 0.8412
C16 C 0.8953(3) -0.2807(5) 0.91090(15)
H8 H 0.9015 -0.3744 0.9099
C17 C 0.8946(3) -0.2163(6) 0.95252(15)
H9 H 0.9011 -0.2649 0.9802
C18 C 0.8844(3) -0.0802(5) 0.95345(13)
H10 H 0.8832 -0.0352 0.9821
C19 C 0.8757(3) -0.0069(5) 0.91230(11)
H11 H 0.8682 0.0866 0.9135
C20 C 1.0717(2) 0.3486(3) 0.56921(9)
C21 C 1.14314(19) 0.3399(3) 0.52998(9)
H12 H 1.2059 0.3154 0.5372
C22 C 1.12210(18) 0.3645(3) 0.48671(9)
H13 H 1.0585 0.3850 0.4797
C23 C 1.1917(2) 0.3628(3) 0.44725(9)
N1 N 0.87177(15) 0.1751(2) 0.63111(7)
N2 N 0.87275(15) 0.4106(2) 0.67759(7)
N3 N 0.87459(15) 0.1398(2) 0.82301(7)
H14 H 0.8746 0.1952 0.8463
N4 N 0.87427(16) -0.0565(2) 0.78343(8)
O1 O 0.98593(14) 0.3705(2) 0.55735(6)
O2 O 1.09945(16) 0.3377(3) 0.60994(6)
O3 O 1.16425(15) 0.40996(19) 0.40803(6)
O4 O 1.27396(14) 0.3180(2) 0.45377(6)
Mn1 Mn 0.86972(3) 0.38117(4) 0.600105(12)
O3D O 0.83575(15) 0.59004(19) 0.59197(6)
O4E O 0.77396(14) 0.3180(2) 0.54623(6)
Mn1D Mn 1.13028(3) 0.61883(4) 0.399895(12)
Mn1E Mn 1.36972(3) 0.38117(4) 0.399895(12)
loop_
_geom_bond_atom_site_label_1
_geom_bond_atom_site_label_2
_geom_bond_site_symmetry_1
_geom_bond_site_symmetry_2
C1 H1 1_555 1_555
C2 C1 1_555 1_555
H2 C2 1_555 1_555
C3 C2 1_555 1_555
H3 C3 1_555 1_555
C4 C3 1_555 1_555
C5 C4 1_555 1_555
C6 C5 1_555 1_555
C7 H4 1_555 1_555
C8 C7 1_555 1_555
H5 C8 1_555 1_555
C9 C8 1_555 1_555
H6 C9 1_555 1_555
C10 C6 1_555 1_555
C11 C10 1_555 1_555
C12 C4 1_555 1_555
C13 C14 1_555 1_555
C14 C15 1_555 1_555
C15 H7 1_555 1_555
C16 C15 1_555 1_555
H8 C16 1_555 1_555
C17 C16 1_555 1_555
H9 C17 1_555 1_555
C18 C17 1_555 1_555
H10 C18 1_555 1_555
C19 C14 1_555 1_555
H11 C19 1_555 1_555
C20 C21 1_555 1_555
C21 H12 1_555 1_555
C22 C21 1_555 1_555
H13 C22 1_555 1_555
C23 C22 1_555 1_555
N1 C6 1_555 1_555
N2 C1 1_555 1_555
N3 C12 1_555 1_555
H14 N3 1_555 1_555
N4 C11 1_555 1_555
O1 C20 1_555 1_555
O2 C20 1_555 1_555
O3 C23 1_555 1_555
O4 C23 1_555 1_555
Mn1 N1 1_555 1_555
O3D Mn1 1_555 1_555
O4E Mn1 1_555 1_555
Mn1D O3 1_555 1_555
Mn1E O4 1_555 1_555
C5 N2 1_555 1_555
C7 N1 1_555 1_555
C9 C10 1_555 1_555
C11 C12 1_555 1_555
C13 N3 1_555 1_555
C13 N4 1_555 1_555
C18 C19 1_555 1_555
N2 Mn1 1_555 1_555
O1 Mn1 1_555 1_555

#END
