
#######################################################################
#
#                 Cambridge Crystallographic Data Centre
#                                CCDC 
#
#######################################################################
#
# If this CIF has been generated from an entry in the Cambridge 
# Structural Database, then it will include bibliographic, chemical, 
# crystal, experimental, refinement or atomic coordinate data resulting 
# from the CCDC's data processing and validation procedures.
#
#######################################################################

data_WENVOC
_symmetry_cell_setting           triclinic
_symmetry_space_group_name_H-M   'P 1'
_symmetry_Int_Tables_number      1
_space_group_name_Hall           'P 1'
loop_
_symmetry_equiv_pos_site_id
_symmetry_equiv_pos_as_xyz
1 x,y,z
_cell_length_a                   9.1100(3)
_cell_length_b                   10.3806(7)
_cell_length_c                   16.1429(10)
_cell_angle_alpha                82.065(13)
_cell_angle_beta                 77.497(9)
_cell_angle_gamma                82.299(13)
_cell_volume                     1467.53
loop_
_atom_site_label
_atom_site_type_symbol
_atom_site_fract_x
_atom_site_fract_y
_atom_site_fract_z
Cu1 Cu 0.18297(4) -0.11307(4) 0.36392(3)
Cu2 Cu -0.03516(5) -0.00528(4) 0.23196(3)
Cu3 Cu -0.80783(5) -0.30666(5) 0.86843(3)
Cu4 Cu -0.02137(4) 0.82522(4) 0.74070(3)
C1 C -0.0098(4) 0.3784(3) 0.4628(2)
C2 C 0.1306(4) 0.4067(4) 0.4696(2)
H1 H 0.1913 0.4470 0.4218
C3 C 0.1846(4) 0.3784(4) 0.5436(2)
H2 H 0.2798 0.3996 0.5452
C4 C 0.0956(4) 0.3167(3) 0.6174(2)
C5 C -0.0455(5) 0.2876(4) 0.6117(3)
H3 H -0.1068 0.2480 0.6596
C6 C -0.0971(4) 0.3167(4) 0.5353(2)
H4 H -0.1915 0.2945 0.5326
C7 C -0.0745(5) 0.4181(4) 0.3835(3)
H5 H -0.1474 0.3586 0.3824
H6 H -0.1283 0.5050 0.3868
C8 C 0.1619(4) 0.2836(4) 0.6966(2)
H7 H 0.2212 0.1988 0.6943
H8 H 0.2295 0.3478 0.6975
C9 C 0.1009(5) 0.5254(4) 0.2636(3)
C10 C 0.2049(6) 0.4925(4) 0.1822(3)
H9 H 0.3088 0.5001 0.1846
H10 H 0.1784 0.5510 0.1341
C11 C 0.1851(7) 0.3540(4) 0.1738(3)
H11 H 0.2818 0.3005 0.1674
H12 H 0.1423 0.3508 0.1242
C12 C 0.0765(5) 0.3033(3) 0.2565(2)
H13 H -0.0145 0.2793 0.2420
C13 C 0.1515(5) 0.1859(3) 0.3067(2)
C14 C -0.0479(4) 0.3993(4) 0.7978(3)
H14 H -0.1090 0.4284 0.7542
C15 C -0.1530(6) 0.3546(5) 0.8820(3)
H15 H -0.1624 0.4162 0.9234
H16 H -0.2529 0.3463 0.8727
C16 C -0.0775(7) 0.2239(5) 0.9120(3)
H17 H -0.0287 0.2318 0.9586
H18 H -0.1513 0.1614 0.9318
C17 C 0.0372(6) 0.1802(4) 0.8369(3)
C18 C 0.0408(6) 0.5087(4) 0.8043(3)
C19 C -0.2282(4) -0.1958(3) 0.5955(2)
C20 C -0.3645(4) -0.2230(4) 0.6637(2)
C21 C -0.1989(5) -0.0681(4) 0.5628(3)
H19 H -0.2606 0.0028 0.5853
C22 C -0.0756(5) -0.0487(4) 0.4958(3)
H20 H -0.0577 0.0370 0.4748
C23 C -0.0101(5) -0.2677(4) 0.4924(3)
H21 H 0.0538 -0.3370 0.4691
C24 C -0.1308(5) -0.2954(4) 0.5590(3)
H22 H -0.1459 -0.3819 0.5791
C25 C -0.4659(5) -0.1193(4) 0.6980(3)
H23 H -0.4486 -0.0327 0.6797
C26 C -0.5916(5) -0.1495(4) 0.7595(3)
H24 H -0.6565 -0.0808 0.7829
C27 C -0.5282(5) -0.3702(4) 0.7547(3)
H25 H -0.5497 -0.4558 0.7732
C28 C -0.3961(5) -0.3490(4) 0.6941(3)
H26 H -0.3299 -0.4196 0.6744
C29 C 0.6383(4) -0.2078(4) 0.1644(2)
C30 C 0.7793(4) -0.2332(4) 0.0976(2)
C31 C 0.5745(4) -0.0806(4) 0.1778(3)
H27 H 0.6199 -0.0098 0.1457
C32 C 0.4454(5) -0.0597(4) 0.2380(3)
H28 H 0.4070 0.0262 0.2463
C33 C 0.4313(5) -0.2780(4) 0.2743(3)
H29 H 0.3829 -0.3465 0.3077
C34 C 0.5633(5) -0.3089(4) 0.2149(3)
H30 H 0.6008 -0.3958 0.2091
C35 C 0.8514(5) -0.1310(4) 0.0474(3)
H31 H 0.8161 -0.0449 0.0567
C36 C 0.9736(5) -0.1573(4) -0.0155(3)
H32 H 1.0201 -0.0871 -0.0478
C37 C 0.9655(5) -0.3774(4) 0.0164(3)
H33 H 1.0058 -0.4627 0.0074
C38 C 0.8394(5) -0.3587(4) 0.0813(3)
H34 H 0.7957 -0.4303 0.1136
C39 C -0.4740(4) -0.0778(4) 0.4429(2)
C40 C -0.6089(4) -0.1019(4) 0.5109(2)
C41 C -0.7098(5) 0.0007(4) 0.5455(3)
H35 H -0.6960 0.0869 0.5236
C42 C -0.8282(5) -0.0254(4) 0.6113(3)
H36 H -0.8928 0.0445 0.6333
C43 C -0.7634(5) -0.2467(4) 0.6114(3)
H37 H -0.7825 -0.3319 0.6334
C44 C -0.6422(5) -0.2284(4) 0.5454(3)
H38 H -0.5818 -0.3004 0.5235
C45 C -0.4392(5) 0.0476(4) 0.4092(3)
H39 H -0.5030 0.1195 0.4288
C46 C -0.3135(5) 0.0668(4) 0.3480(3)
H40 H -0.2938 0.1523 0.3274
C47 C -0.2458(5) -0.1554(4) 0.3482(3)
H41 H -0.1784 -0.2255 0.3286
C48 C -0.3729(5) -0.1813(4) 0.4096(3)
H42 H -0.3916 -0.2673 0.4288
C49 C 0.3800(5) -0.0761(4) 0.0038(2)
C50 C 0.5201(4) -0.0980(4) -0.0592(2)
C51 C 0.2950(5) 0.0461(4) 0.0098(3)
H43 H 0.3234 0.1166 -0.0301
C52 C 0.1698(5) 0.0629(4) 0.0741(3)
H44 H 0.1161 0.1456 0.0764
C53 C 0.1971(5) -0.1523(4) 0.1279(3)
H45 H 0.1636 -0.2213 0.1676
C54 C 0.3238(5) -0.1765(4) 0.0650(3)
H46 H 0.3727 -0.2610 0.0633
C55 C 0.5962(5) 0.0074(4) -0.1065(3)
H47 H 0.5566 0.0932 -0.0985
C56 C 0.7266(5) -0.0169(4) -0.1632(3)
H48 H 0.7733 0.0542 -0.1941
C57 C 0.7213(5) -0.2400(4) -0.1322(3)
H49 H 0.7646 -0.3250 -0.1399
C58 C 0.5871(5) -0.2242(4) -0.0747(3)
H50 H 0.5408 -0.2969 -0.0462
N1 N 0.0376(4) 0.4186(3) 0.3035(2)
N2 N 0.0468(4) 0.2804(3) 0.77547(19)
N3 N 0.0180(4) -0.1445(3) 0.4601(2)
N4 N -0.6254(4) -0.2720(3) 0.7874(2)
N5 N 0.3709(4) -0.1564(3) 0.2856(2)
N6 N 1.0317(4) -0.2796(3) -0.0338(2)
N7 N -0.2151(4) -0.0325(4) 0.3154(2)
N8 N -0.8556(4) -0.1474(3) 0.6457(2)
N9 N 0.1212(4) -0.0340(3) 0.1338(2)
N10 N 0.7949(4) -0.1408(4) -0.1782(2)
O1 O 0.0941(3) 0.0802(2) 0.31138(17)
O2 O 0.2617(3) 0.1967(3) 0.3354(2)
O3 O 0.0750(4) 0.6338(3) 0.2911(2)
O4 O 0.0059(5) 0.6166(3) 0.7651(3)
O5 O 0.1394(4) 0.4879(4) 0.8479(3)
O6 O 0.1105(5) 0.0729(3) 0.8314(2)
Cu3_2 Cu 1.19217(5) -0.30666(5) -0.13157(3)
Cu3_3 Cu 0.19217(5) 0.69334(5) 0.86843(3)
Cu4_2 Cu -1.02137(4) -0.17478(4) 0.74070(3)
Cu4_3 Cu 0.97863(4) -0.17478(4) -0.25930(3)
N6_2 N -0.9683(4) -0.2796(3) 0.9662(2)
N8_2 N 0.1444(4) 0.8526(3) 0.6457(2)
N10_2 N -0.2051(4) 0.8592(4) 0.8218(2)
O5_2 O -0.8606(4) -0.5121(4) 0.8479(3)
N11 N -0.4545(4) 0.2668(4) 0.6530(3)
O7 O -0.4831(4) 0.3889(3) 0.6424(2)
O8 O -0.4344(6) 0.2089(5) 0.7194(3)
O9 O -0.4522(5) 0.2070(4) 0.5908(3)
N12 N -0.2814(7) 0.2705(5) 0.1378(3)
O10 O -0.1728(6) 0.1855(5) 0.1323(3)
O11 O -0.3763(9) 0.2439(8) 0.1038(5)
O12 O -0.2817(7) 0.3549(6) 0.1829(4)
O13 O 0.3991(5) 0.3202(4) 0.8740(2)
H51 H 0.3078 0.3385 0.8712
H52 H 0.4492 0.3006 0.8258
O14 O 0.4687(4) 0.3794(3) 0.3246(2)
H53 H 0.3950 0.3458 0.3162
H54 H 0.5468 0.3561 0.2881
O15 O 0.4750(6) 0.4758(4) -0.0013(3)
H55 H 0.4065 0.4269 0.0202
H56 H 0.5537 0.4442 0.0192
O16 O -0.4531(4) 0.4998(3) 0.4581(2)
H57 H -0.4134 0.4399 0.4914
H58 H -0.5360 0.4786 0.4538
loop_
_geom_bond_atom_site_label_1
_geom_bond_atom_site_label_2
_geom_bond_site_symmetry_1
_geom_bond_site_symmetry_2
Cu1 N3 1_555 1_555
Cu2 N7 1_555 1_555
Cu3 N4 1_555 1_555
Cu4 O4 1_555 1_555
C1 C2 1_555 1_555
C2 H1 1_555 1_555
C3 C2 1_555 1_555
H2 C3 1_555 1_555
C4 C3 1_555 1_555
C5 C4 1_555 1_555
H3 C5 1_555 1_555
C6 C1 1_555 1_555
H4 C6 1_555 1_555
C7 C1 1_555 1_555
H5 C7 1_555 1_555
H6 C7 1_555 1_555
C8 C4 1_555 1_555
H7 C8 1_555 1_555
H8 C8 1_555 1_555
C9 C10 1_555 1_555
C10 H9 1_555 1_555
H10 C10 1_555 1_555
C11 C10 1_555 1_555
H11 C11 1_555 1_555
H12 C11 1_555 1_555
C12 C11 1_555 1_555
H13 C12 1_555 1_555
C13 C12 1_555 1_555
C14 H14 1_555 1_555
C15 C14 1_555 1_555
H15 C15 1_555 1_555
H16 C15 1_555 1_555
C16 C15 1_555 1_555
H17 C16 1_555 1_555
H18 C16 1_555 1_555
C17 C16 1_555 1_555
C18 C14 1_555 1_555
C19 C20 1_555 1_555
C20 C25 1_555 1_555
C21 C19 1_555 1_555
H19 C21 1_555 1_555
C22 C21 1_555 1_555
H20 C22 1_555 1_555
C23 H21 1_555 1_555
C24 C19 1_555 1_555
H22 C24 1_555 1_555
C25 H23 1_555 1_555
C26 C25 1_555 1_555
H24 C26 1_555 1_555
C27 H25 1_555 1_555
C28 C20 1_555 1_555
H26 C28 1_555 1_555
C29 C30 1_555 1_555
C30 C35 1_555 1_555
C31 C29 1_555 1_555
H27 C31 1_555 1_555
C32 C31 1_555 1_555
H28 C32 1_555 1_555
C33 H29 1_555 1_555
C34 C29 1_555 1_555
H30 C34 1_555 1_555
C35 H31 1_555 1_555
C36 C35 1_555 1_555
H32 C36 1_555 1_555
C37 H33 1_555 1_555
C38 C30 1_555 1_555
H34 C38 1_555 1_555
C39 C40 1_555 1_555
C40 C41 1_555 1_555
C41 H35 1_555 1_555
C42 C41 1_555 1_555
H36 C42 1_555 1_555
C43 H37 1_555 1_555
C44 C40 1_555 1_555
H38 C44 1_555 1_555
C45 C39 1_555 1_555
H39 C45 1_555 1_555
C46 C45 1_555 1_555
H40 C46 1_555 1_555
C47 H41 1_555 1_555
C48 C39 1_555 1_555
H42 C48 1_555 1_555
C49 C50 1_555 1_555
C50 C55 1_555 1_555
C51 C49 1_555 1_555
H43 C51 1_555 1_555
C52 C51 1_555 1_555
H44 C52 1_555 1_555
C53 H45 1_555 1_555
C54 C49 1_555 1_555
H46 C54 1_555 1_555
C55 H47 1_555 1_555
C56 C55 1_555 1_555
H48 C56 1_555 1_555
C57 H49 1_555 1_555
C58 C50 1_555 1_555
H50 C58 1_555 1_555
N1 C7 1_555 1_555
N2 C8 1_555 1_555
N3 C22 1_555 1_555
N4 C26 1_555 1_555
N5 Cu1 1_555 1_555
N6 C36 1_555 1_555
N7 C46 1_555 1_555
N8 C42 1_555 1_555
N9 Cu2 1_555 1_555
N10 C56 1_555 1_555
O1 Cu1 1_555 1_555
O2 C13 1_555 1_555
O3 C9 1_555 1_555
O4 C18 1_555 1_555
O5 C18 1_555 1_555
O6 C17 1_555 1_555
N11 O7 1_555 1_555
O8 N11 1_555 1_555
O9 N11 1_555 1_555
N12 O10 1_555 1_555
O11 N12 1_555 1_555
O12 N12 1_555 1_555
O13 H51 1_555 1_555
H52 O13 1_555 1_555
O14 H53 1_555 1_555
H54 O14 1_555 1_555
O15 H55 1_555 1_555
H56 O15 1_555 1_555
O16 H57 1_555 1_555
H58 O16 1_555 1_555
Cu3_2 N6 1_555 1_555
Cu3_3 O5 1_555 1_555
Cu4_2 N8 1_555 1_555
Cu4_3 N10 1_555 1_555
N6_2 Cu3 1_555 1_555
N8_2 Cu4 1_555 1_555
N10_2 Cu4 1_555 1_555
O5_2 Cu3 1_555 1_555
Cu2 O1 1_555 1_555
C5 C6 1_555 1_555
C9 N1 1_555 1_555
C12 N1 1_555 1_555
C13 O1 1_555 1_555
C14 N2 1_555 1_555
C17 N2 1_555 1_555
C23 C24 1_555 1_555
C23 N3 1_555 1_555
C27 C28 1_555 1_555
C27 N4 1_555 1_555
C32 N5 1_555 1_555
C33 C34 1_555 1_555
C33 N5 1_555 1_555
C37 C38 1_555 1_555
C37 N6 1_555 1_555
C43 C44 1_555 1_555
C43 N8 1_555 1_555
C47 C48 1_555 1_555
C47 N7 1_555 1_555
C52 N9 1_555 1_555
C53 C54 1_555 1_555
C53 N9 1_555 1_555
C57 C58 1_555 1_555
C57 N10 1_555 1_555

#END
