
#######################################################################
#
#                 Cambridge Crystallographic Data Centre
#                                CCDC 
#
#######################################################################
#
# If this CIF has been generated from an entry in the Cambridge 
# Structural Database, then it will include bibliographic, chemical, 
# crystal, experimental, refinement or atomic coordinate data resulting 
# from the CCDC's data processing and validation procedures.
#
#######################################################################

data_WENWES
_symmetry_cell_setting           monoclinic
_symmetry_space_group_name_H-M   'P 21/c'
_symmetry_Int_Tables_number      14
_space_group_name_Hall           '-P 2ybc'
loop_
_symmetry_equiv_pos_site_id
_symmetry_equiv_pos_as_xyz
1 x,y,z
2 -x,1/2+y,1/2-z
3 -x,-y,-z
4 x,1/2-y,1/2+z
_cell_length_a                   7.5954(5)
_cell_length_b                   16.901(4)
_cell_length_c                   7.2755(5)
_cell_angle_alpha                90
_cell_angle_beta                 117.378(5)
_cell_angle_gamma                90
_cell_volume                     829.344
loop_
_atom_site_label
_atom_site_type_symbol
_atom_site_fract_x
_atom_site_fract_y
_atom_site_fract_z
Co1 Co 0.5000 0.5000 0.0000
O1 O 0.2914(2) 0.56593(8) 0.0644(2)
H1 H 0.3050 0.5635 0.2008
H2 H 0.3342 0.6177 0.0531
O2 O 0.3785(2) 0.39410(8) 0.0432(2)
O3 O 0.5445(2) 0.30181(9) -0.0367(3)
C1 C 0.4039(3) 0.32543(12) -0.0069(3)
C2 C 0.2446(3) 0.26546(11) -0.0403(3)
C3 C 0.0615(3) 0.28745(12) -0.0571(3)
H3 H 0.0354 0.3403 -0.0432
C4 C -0.0815(3) 0.23052(13) -0.0945(3)
H4 H -0.2026 0.2443 -0.1003
C5 C -0.0426(3) 0.15315(12) -0.1232(3)
H5 H -0.1384 0.1145 -0.1494
C6 C 0.2770(3) 0.18703(11) -0.0687(3)
H6 H 0.3993 0.1714 -0.0568
N1 N 0.1329(3) 0.13312(9) -0.1134(3)
C7 C 0.1639(3) 0.05182(11) -0.1694(3)
H7 H 0.2351 0.0553 -0.2507
H8 H 0.0353 0.0286 -0.2568
C8 C 0.2773(3) -0.00384(12) 0.0126(3)
O4 O 0.2943(2) 0.01652(9) 0.1861(2)
O5 O 0.3343(2) -0.06625(9) -0.0338(2)
Co1C Co 0.5000 0.0000 0.5000
Co1C_2 Co 0.5000 1.0000 -0.5000
O1B O 0.7086(2) 0.43407(8) -0.0644(2)
H1B H 0.6950 0.4365 -0.2008
H2B H 0.6658 0.3823 -0.0531
O2B O 0.6215(2) 0.60590(8) -0.0432(2)
O3B O 0.4555(2) 0.69819(9) 0.0367(3)
C1B C 0.5961(3) 0.67457(12) 0.0069(3)
C2B C 0.7554(3) 0.73454(11) 0.0403(3)
C3B C 0.9385(3) 0.71255(12) 0.0571(3)
H3B H 0.9646 0.6597 0.0432
C4B C 1.0815(3) 0.76948(13) 0.0945(3)
H4B H 1.2026 0.7557 0.1003
C5B C 1.0426(3) 0.84685(12) 0.1232(3)
H5B H 1.1384 0.8855 0.1494
C6B C 0.7230(3) 0.81297(11) 0.0687(3)
H6B H 0.6007 0.8286 0.0568
N1B N 0.8671(3) 0.86688(9) 0.1134(3)
C7B C 0.8361(3) 0.94818(11) 0.1694(3)
H7B H 0.7649 0.9447 0.2507
H8B H 0.9647 0.9714 0.2568
C8B C 0.7227(3) 1.00384(12) -0.0126(3)
O4B O 0.7057(2) 0.98348(9) -0.1861(2)
O4C O 0.2943(2) 0.48348(9) -0.3139(2)
O4A O 0.7057(2) 0.51652(9) 0.3139(2)
O5B O 0.6657(2) 1.06625(9) 0.0338(2)
loop_
_geom_bond_atom_site_label_1
_geom_bond_atom_site_label_2
_geom_bond_site_symmetry_1
_geom_bond_site_symmetry_2
Co1 O1 1_555 1_555
O1 H1 1_555 1_555
H2 O1 1_555 1_555
O2 Co1 1_555 1_555
O3 C1 1_555 1_555
C1 O2 1_555 1_555
C2 C1 1_555 1_555
C3 C2 1_555 1_555
H3 C3 1_555 1_555
C4 C3 1_555 1_555
H4 C4 1_555 1_555
C5 C4 1_555 1_555
H5 C5 1_555 1_555
C6 C2 1_555 1_555
H6 C6 1_555 1_555
N1 C5 1_555 1_555
C7 N1 1_555 1_555
H7 C7 1_555 1_555
H8 C7 1_555 1_555
C8 C7 1_555 1_555
O4 C8 1_555 1_555
O5 C8 1_555 1_555
Co1C O4 1_555 1_555
Co1C_2 O4B 1_555 1_555
O1B Co1 1_555 1_555
H1B O1B 1_555 1_555
H2B O1B 1_555 1_555
O2B Co1 1_555 1_555
O3B C1B 1_555 1_555
C1B O2B 1_555 1_555
C2B C1B 1_555 1_555
C3B C2B 1_555 1_555
H3B C3B 1_555 1_555
C4B C3B 1_555 1_555
H4B C4B 1_555 1_555
C5B C4B 1_555 1_555
H5B C5B 1_555 1_555
C6B C2B 1_555 1_555
H6B C6B 1_555 1_555
N1B C5B 1_555 1_555
C7B N1B 1_555 1_555
H7B C7B 1_555 1_555
H8B C7B 1_555 1_555
C8B C7B 1_555 1_555
O4B C8B 1_555 1_555
O4C Co1 1_555 1_555
O4A Co1 1_555 1_555
O5B C8B 1_555 1_555
C6 N1 1_555 1_555
C6B N1B 1_555 1_555

#END
