
#######################################################################
#
#                 Cambridge Crystallographic Data Centre
#                                CCDC 
#
#######################################################################
#
# If this CIF has been generated from an entry in the Cambridge 
# Structural Database, then it will include bibliographic, chemical, 
# crystal, experimental, refinement or atomic coordinate data resulting 
# from the CCDC's data processing and validation procedures.
#
#######################################################################

data_WEPJIL
_symmetry_cell_setting           monoclinic
_symmetry_space_group_name_H-M   'P 21/c'
_symmetry_Int_Tables_number      14
_space_group_name_Hall           '-P 2ybc'
loop_
_symmetry_equiv_pos_site_id
_symmetry_equiv_pos_as_xyz
1 x,y,z
2 -x,1/2+y,1/2-z
3 -x,-y,-z
4 x,1/2-y,1/2+z
_cell_length_a                   6.2930(13)
_cell_length_b                   19.784(4)
_cell_length_c                   8.7620(18)
_cell_angle_alpha                90
_cell_angle_beta                 99.24(3)
_cell_angle_gamma                90
_cell_volume                     1076.72
loop_
_atom_site_label
_atom_site_type_symbol
_atom_site_fract_x
_atom_site_fract_y
_atom_site_fract_z
Ca1 Ca -0.21422(5) -0.528140(15) -0.39335(3)
O1 O -0.60779(19) -0.52260(6) -0.37409(13)
O2 O -0.86580(18) -0.56976(6) -0.26103(15)
O3 O 0.0346(2) -0.42793(6) -0.39700(15)
O4 O -0.2765(2) -0.40681(7) -0.32185(16)
N1 N -0.2950(2) -0.55511(8) -0.12888(17)
C1 C -0.6737(2) -0.55318(7) -0.26503(17)
O5 O -0.3797(2) -0.63727(7) -0.44858(18)
C2 C -0.0479(3) -0.31452(9) -0.3433(2)
C3 C -0.1005(3) -0.38724(8) -0.35611(18)
N2 N -0.3388(3) -0.59186(9) 0.10047(18)
C4 C -0.5099(2) -0.56939(8) -0.12927(18)
C5 C -0.5372(3) -0.59250(10) 0.0127(2)
N3 N 0.1456(3) -0.28937(9) -0.3709(2)
C6 C -0.1984(3) -0.56929(10) 0.0114(2)
N4 N -0.0497(3) -0.20610(9) -0.3041(3)
C7 C -0.1696(4) -0.26300(10) -0.3011(3)
C8 C 0.1380(4) -0.22438(10) -0.3452(3)
H1 H -0.082(5) -0.1647(18) -0.281(4)
H2 H -0.296(6) -0.2612(18) -0.271(4)
H3 H -0.662(5) -0.6057(15) 0.056(3)
H4 H 0.251(5) -0.1954(16) -0.352(3)
H5 H -0.047(4) -0.5652(13) 0.047(3)
H6 H -0.494(6) -0.6276(17) -0.510(4)
H7 H -0.305(5) -0.5981(16) 0.199(4)
H8 H -0.314(6) -0.6590(18) -0.501(4)
Ca1B Ca -0.78578(5) -0.471860(15) -0.60665(3)
Ca1B_2 Ca 0.21422(5) -0.471860(15) -0.60665(3)
Ca1_2 Ca -1.21422(5) -0.528140(15) -0.39335(3)
O1B O -0.39221(19) -0.47740(6) -0.62591(13)
O2_2 O 0.13420(18) -0.56976(6) -0.26103(15)
O3B O -0.0346(2) -0.57207(6) -0.60300(15)
loop_
_geom_bond_atom_site_label_1
_geom_bond_atom_site_label_2
_geom_bond_site_symmetry_1
_geom_bond_site_symmetry_2
Ca1 O1 1_555 1_555
O1 C1 1_555 1_555
O2 C1 1_555 1_555
O3 Ca1 1_555 1_555
O4 Ca1 1_555 1_555
N1 Ca1 1_555 1_555
C1 C4 1_555 1_555
O5 Ca1 1_555 1_555
C2 C3 1_555 1_555
C3 O3 1_555 1_555
N2 C5 1_555 1_555
C4 N1 1_555 1_555
C5 C4 1_555 1_555
N3 C2 1_555 1_555
C6 N1 1_555 1_555
N4 C7 1_555 1_555
C7 C2 1_555 1_555
C8 N3 1_555 1_555
H1 N4 1_555 1_555
H2 C7 1_555 1_555
H3 C5 1_555 1_555
H4 C8 1_555 1_555
H5 C6 1_555 1_555
H6 O5 1_555 1_555
H7 N2 1_555 1_555
H8 O5 1_555 1_555
Ca1B O1 1_555 1_555
Ca1B_2 O3 1_555 1_555
Ca1_2 O2 1_555 1_555
O1B Ca1 1_555 1_555
O2_2 Ca1 1_555 1_555
O3B Ca1 1_555 1_555
O4 C3 1_555 1_555
N2 C6 1_555 1_555
N4 C8 1_555 1_555
Ca1B O1B 1_555 1_555
Ca1B_2 O3B 1_555 1_555

#END
