
#######################################################################
#
#                 Cambridge Crystallographic Data Centre
#                                CCDC 
#
#######################################################################
#
# If this CIF has been generated from an entry in the Cambridge 
# Structural Database, then it will include bibliographic, chemical, 
# crystal, experimental, refinement or atomic coordinate data resulting 
# from the CCDC's data processing and validation procedures.
#
#######################################################################

data_WEPNEL
_symmetry_cell_setting           monoclinic
_symmetry_space_group_name_H-M   'C 2/c'
_symmetry_Int_Tables_number      15
_space_group_name_Hall           '-C 2yn'
loop_
_symmetry_equiv_pos_site_id
_symmetry_equiv_pos_as_xyz
1 x,y,z
2 1/2+x,1/2+y,z
3 -x,y,1/2-z
4 1/2-x,1/2+y,1/2-z
5 -x,-y,-z
6 1/2-x,1/2-y,-z
7 x,-y,1/2+z
8 1/2+x,1/2-y,1/2+z
_cell_length_a                   22.018(4)
_cell_length_b                   8.9600(18)
_cell_length_c                   16.371(3)
_cell_angle_alpha                90
_cell_angle_beta                 92.49(3)
_cell_angle_gamma                90
_cell_volume                     3226.64
loop_
_atom_site_label
_atom_site_type_symbol
_atom_site_fract_x
_atom_site_fract_y
_atom_site_fract_z
Ni1 Ni 0.902824(12) 0.35453(3) 0.857256(16)
N1 N 0.81335(9) 0.2954(2) 0.83859(12)
N2 N 0.86862(9) 0.4467(2) 0.96070(11)
O1 O 0.94713(8) 0.15587(18) 0.89271(9)
O2 O 0.93194(8) 0.21155(19) 0.76394(9)
O3 O 1.01924(8) -0.1440(2) 0.95146(10)
O4 O 0.91851(9) -0.1705(2) 0.95658(11)
O5 O 0.90510(7) -0.44072(18) 0.79280(10)
O6 O 0.98354(7) -0.52381(17) 0.86585(9)
C1 C 0.78741(13) 0.2137(4) 0.77850(17)
H1 H 0.8120 0.1670 0.7414
C2 C 0.72423(15) 0.1962(5) 0.7695(2)
H2 H 0.7073 0.1388 0.7271
C3 C 0.68809(13) 0.2636(5) 0.8231(2)
H3 H 0.6461 0.2524 0.8173
C4 C 0.71318(12) 0.3502(4) 0.88740(19)
C5 C 0.67951(13) 0.4271(5) 0.9478(2)
H4 H 0.6373 0.4221 0.9448
C6 C 0.70726(15) 0.5060(5) 1.0085(2)
H5 H 0.6839 0.5556 1.0460
C7 C 0.77247(13) 0.5151(4) 1.01667(18)
C8 C 0.80477(16) 0.5896(4) 1.08044(19)
H6 H 0.7838 0.6394 1.1203
C9 C 0.86665(15) 0.5892(4) 1.08413(17)
H7 H 0.8882 0.6360 1.1270
C10 C 0.89725(12) 0.5168(3) 1.02188(15)
H8 H 0.9395 0.5183 1.0239
C11 C 0.80676(10) 0.4441(3) 0.95836(14)
C12 C 0.77736(10) 0.3608(3) 0.89305(15)
C13 C 0.95634(10) 0.1295(2) 0.81794(13)
C14 C 0.99478(10) -0.0044(2) 0.79603(13)
H9 H 1.0344 0.0046 0.8253
C15 C 0.96382(9) -0.1480(2) 0.82531(13)
H10 H 0.9217 -0.1493 0.8032
C16 C 0.96322(11) -0.1532(3) 0.91831(14)
C17 C 0.99619(9) -0.2900(2) 0.79650(12)
H11 H 1.0365 -0.2954 0.8241
C18 C 0.95958(9) -0.4275(2) 0.81973(12)
H12 H 1.0186(17) -0.148(4) 1.004(2)
Ni1B Ni 1.097176(12) 0.35453(3) 0.642744(16)
Ni1_2 Ni 0.902824(12) -0.64547(3) 0.857256(16)
Ni1B_2 Ni 1.097176(12) -0.64547(3) 0.642744(16)
N1B N 1.18665(9) 0.2954(2) 0.66141(12)
N2B N 1.13138(9) 0.4467(2) 0.53930(11)
O1B O 1.05287(8) 0.15587(18) 0.60729(9)
O2B O 1.06806(8) 0.21155(19) 0.73606(9)
O3B O 0.98076(8) -0.1440(2) 0.54854(10)
O4B O 1.08149(9) -0.1705(2) 0.54342(11)
O5B O 1.09490(7) -0.44072(18) 0.70720(10)
O5_2 O 0.90510(7) 0.55928(18) 0.79280(10)
O5B_2 O 1.09490(7) 0.55928(18) 0.70720(10)
O6B O 1.01646(7) -0.52381(17) 0.63415(9)
O6_2 O 0.98354(7) 0.47619(17) 0.86585(9)
O6B_2 O 1.01646(7) 0.47619(17) 0.63415(9)
C1B C 1.21259(13) 0.2137(4) 0.72150(17)
H1B H 1.1880 0.1670 0.7586
C2B C 1.27577(15) 0.1962(5) 0.7305(2)
H2B H 1.2927 0.1388 0.7729
C3B C 1.31191(13) 0.2636(5) 0.6769(2)
H3B H 1.3539 0.2524 0.6827
C4B C 1.28682(12) 0.3502(4) 0.61260(19)
C5B C 1.32049(13) 0.4271(5) 0.5522(2)
H4B H 1.3627 0.4221 0.5552
C6B C 1.29274(15) 0.5060(5) 0.4915(2)
H5B H 1.3161 0.5556 0.4540
C7B C 1.22753(13) 0.5151(4) 0.48333(18)
C8B C 1.19523(16) 0.5896(4) 0.41956(19)
H6B H 1.2162 0.6394 0.3797
C9B C 1.13335(15) 0.5892(4) 0.41587(17)
H7B H 1.1118 0.6360 0.3730
C10B C 1.10275(12) 0.5168(3) 0.47812(15)
H8B H 1.0605 0.5183 0.4761
C11B C 1.19324(10) 0.4441(3) 0.54164(14)
C12B C 1.22264(10) 0.3608(3) 0.60695(15)
C13B C 1.04366(10) 0.1295(2) 0.68206(13)
C14B C 1.00522(10) -0.0044(2) 0.70397(13)
H9B H 0.9656 0.0046 0.6747
C15B C 1.03618(9) -0.1480(2) 0.67469(13)
H10B H 1.0783 -0.1493 0.6968
C16B C 1.03678(11) -0.1532(3) 0.58169(14)
C17B C 1.00381(9) -0.2900(2) 0.70350(12)
H11B H 0.9635 -0.2954 0.6759
C18B C 1.04042(9) -0.4275(2) 0.68027(12)
H12B H 0.9814(17) -0.148(4) 0.496(2)
loop_
_geom_bond_atom_site_label_1
_geom_bond_atom_site_label_2
_geom_bond_site_symmetry_1
_geom_bond_site_symmetry_2
Ni1 N1 1_555 1_555
N1 C1 1_555 1_555
N2 Ni1 1_555 1_555
O1 Ni1 1_555 1_555
O2 Ni1 1_555 1_555
O3 C16 1_555 1_555
O4 C16 1_555 1_555
O5 C18 1_555 1_555
O6 C18 1_555 1_555
C1 H1 1_555 1_555
C2 C1 1_555 1_555
H2 C2 1_555 1_555
C3 C2 1_555 1_555
H3 C3 1_555 1_555
C4 C3 1_555 1_555
C5 C4 1_555 1_555
H4 C5 1_555 1_555
C6 C5 1_555 1_555
H5 C6 1_555 1_555
C7 C6 1_555 1_555
C8 C7 1_555 1_555
H6 C8 1_555 1_555
C9 C8 1_555 1_555
H7 C9 1_555 1_555
C10 N2 1_555 1_555
H8 C10 1_555 1_555
C11 N2 1_555 1_555
C12 N1 1_555 1_555
C13 O1 1_555 1_555
C14 C13 1_555 1_555
H9 C14 1_555 1_555
C15 C14 1_555 1_555
H10 C15 1_555 1_555
C16 C15 1_555 1_555
C17 C15 1_555 1_555
H11 C17 1_555 1_555
C18 C17 1_555 1_555
H12 O3 1_555 1_555
Ni1B N1B 1_555 1_555
Ni1_2 O5 1_555 1_555
Ni1B_2 O5B 1_555 1_555
N1B C1B 1_555 1_555
N2B Ni1B 1_555 1_555
O1B Ni1B 1_555 1_555
O2B Ni1B 1_555 1_555
O3B C16B 1_555 1_555
O4B C16B 1_555 1_555
O5B C18B 1_555 1_555
O5_2 Ni1 1_555 1_555
O5B_2 Ni1B 1_555 1_555
O6B Ni1B_2 1_555 1_555
O6_2 Ni1 1_555 1_555
O6B_2 Ni1B 1_555 1_555
C1B H1B 1_555 1_555
C2B C1B 1_555 1_555
H2B C2B 1_555 1_555
C3B C2B 1_555 1_555
H3B C3B 1_555 1_555
C4B C3B 1_555 1_555
C5B C4B 1_555 1_555
H4B C5B 1_555 1_555
C6B C5B 1_555 1_555
H5B C6B 1_555 1_555
C7B C6B 1_555 1_555
C8B C7B 1_555 1_555
H6B C8B 1_555 1_555
C9B C8B 1_555 1_555
H7B C9B 1_555 1_555
C10B N2B 1_555 1_555
H8B C10B 1_555 1_555
C11B N2B 1_555 1_555
C12B N1B 1_555 1_555
C13B O1B 1_555 1_555
C14B C14 1_555 1_555
H9B C14B 1_555 1_555
C15B C14B 1_555 1_555
H10B C15B 1_555 1_555
C16B C15B 1_555 1_555
C17B C17 1_555 1_555
H11B C17B 1_555 1_555
C18B O6B 1_555 1_555
H12B O3B 1_555 1_555
O2 C13 1_555 1_555
O6 Ni1_2 1_555 1_555
C4 C12 1_555 1_555
C7 C11 1_555 1_555
C9 C10 1_555 1_555
C11 C12 1_555 1_555
O2B C13B 1_555 1_555
C4B C12B 1_555 1_555
C7B C11B 1_555 1_555
C9B C10B 1_555 1_555
C11B C12B 1_555 1_555
C13B C14B 1_555 1_555
C15B C17B 1_555 1_555
C17B C18B 1_555 1_555

#END
