
#######################################################################
#
#                 Cambridge Crystallographic Data Centre
#                                CCDC 
#
#######################################################################
#
# If this CIF has been generated from an entry in the Cambridge 
# Structural Database, then it will include bibliographic, chemical, 
# crystal, experimental, refinement or atomic coordinate data resulting 
# from the CCDC's data processing and validation procedures.
#
#######################################################################

data_WEPROZ
_symmetry_cell_setting           monoclinic
_symmetry_space_group_name_H-M   'P 21/c'
_symmetry_Int_Tables_number      14
_space_group_name_Hall           '-P 2ybc'
loop_
_symmetry_equiv_pos_site_id
_symmetry_equiv_pos_as_xyz
1 x,y,z
2 -x,1/2+y,1/2-z
3 -x,-y,-z
4 x,1/2-y,1/2+z
_cell_length_a                   10.9140(16)
_cell_length_b                   8.7717(13)
_cell_length_c                   15.692(2)
_cell_angle_alpha                90
_cell_angle_beta                 101.488(3)
_cell_angle_gamma                90
_cell_volume                     1472.17
loop_
_atom_site_label
_atom_site_type_symbol
_atom_site_fract_x
_atom_site_fract_y
_atom_site_fract_z
Cd1 Cd 0.5000 0.5000 0.5000
S1 S 0.29960(7) 0.51548(9) 0.74310(5)
N1 N 0.37597(19) 0.0519(2) 0.58345(14)
N2 N 0.3507(2) 0.0267(3) 0.49581(15)
N3 N 0.43983(19) 0.2561(2) 0.52712(14)
N4 N -0.11685(19) 0.3462(2) 0.63188(14)
N5 N -0.0765(2) 0.4344(3) 0.57120(16)
N6 N -0.2863(2) 0.4396(3) 0.55171(15)
N7 N 0.4790(2) 0.5645(3) 0.64135(15)
C1 C 0.1936(2) -0.0362(3) 0.63697(17)
C2 C 0.1476(2) 0.0953(3) 0.66964(16)
H1 H 0.2044 0.1692 0.6989
C3 C 0.0201(2) 0.1194(3) 0.65995(16)
C4 C -0.0625(2) 0.0097(3) 0.61718(16)
H2 H -0.1501 0.0247 0.6102
C5 C -0.0174(3) -0.1201(3) 0.58510(17)
H3 H -0.0742 -0.1941 0.5558
C6 C 0.1104(2) -0.1440(3) 0.59521(16)
H4 H 0.1407 -0.2346 0.5734
C7 C 0.3326(2) -0.0546(3) 0.64292(19)
H5 H 0.3772 -0.0346 0.7032
H6 H 0.3512 -0.1604 0.6277
C8 C -0.0286(3) 0.2609(3) 0.69710(17)
H7 H -0.0705 0.2311 0.7450
H8 H 0.0427 0.3278 0.7217
C9 C 0.3916(2) 0.1526(3) 0.46503(17)
H9 H 0.3877 0.1694 0.4047
C10 C 0.4281(2) 0.1885(3) 0.60029(17)
H10 H 0.4533 0.2311 0.6567
C11 C -0.1811(3) 0.4887(3) 0.52541(19)
H11 H -0.1835 0.5565 0.4779
C12 C -0.2404(2) 0.3502(3) 0.61845(18)
H12 H -0.2894 0.2962 0.6521
C13 C 0.4035(3) 0.5444(3) 0.68332(17)
Cd1_2 Cd -0.5000 0.5000 0.5000
Cd1_3 Cd 1.5000 0.5000 0.5000
S1B S 0.70040(7) 0.48452(9) 0.25690(5)
N1B N 0.62403(19) 0.9481(2) 0.41655(14)
N2B N 0.6493(2) 0.9733(3) 0.50419(15)
N3B N 0.56017(19) 0.7439(2) 0.47288(14)
N4B N 1.11685(19) 0.6538(2) 0.36812(14)
N5B N 1.0765(2) 0.5656(3) 0.42880(16)
N6B N 1.2863(2) 0.5604(3) 0.44829(15)
N6_2 N 0.7137(2) 0.4396(3) 0.55171(15)
N6B_2 N 0.2863(2) 0.5604(3) 0.44829(15)
N7B N 0.5210(2) 0.4355(3) 0.35865(15)
C1B C 0.8064(2) 1.0362(3) 0.36303(17)
C2B C 0.8524(2) 0.9047(3) 0.33036(16)
H1B H 0.7956 0.8308 0.3011
C3B C 0.9799(2) 0.8806(3) 0.34005(16)
C4B C 1.0625(2) 0.9903(3) 0.38282(16)
H2B H 1.1501 0.9753 0.3898
C5B C 1.0174(3) 1.1201(3) 0.41490(17)
H3B H 1.0742 1.1941 0.4442
C6B C 0.8896(2) 1.1440(3) 0.40479(16)
H4B H 0.8593 1.2346 0.4266
C7B C 0.6674(2) 1.0546(3) 0.35708(19)
H5B H 0.6228 1.0346 0.2968
H6B H 0.6488 1.1604 0.3723
C8B C 1.0286(3) 0.7391(3) 0.30290(17)
H7B H 1.0705 0.7689 0.2550
H8B H 0.9573 0.6722 0.2783
C9B C 0.6084(2) 0.8474(3) 0.53497(17)
H9B H 0.6123 0.8306 0.5953
C10B C 0.5719(2) 0.8115(3) 0.39971(17)
H10B H 0.5467 0.7689 0.3433
C11B C 1.1811(3) 0.5113(3) 0.47459(19)
H11B H 1.1835 0.4435 0.5221
C12B C 1.2404(2) 0.6498(3) 0.38155(18)
H12B H 1.2894 0.7038 0.3479
C13B C 0.5965(3) 0.4556(3) 0.31668(17)
loop_
_geom_bond_atom_site_label_1
_geom_bond_atom_site_label_2
_geom_bond_site_symmetry_1
_geom_bond_site_symmetry_2
Cd1 N3 1_555 1_555
S1 C13 1_555 1_555
N1 N2 1_555 1_555
N2 C9 1_555 1_555
N3 C9 1_555 1_555
N4 N5 1_555 1_555
N5 C11 1_555 1_555
N6 C11 1_555 1_555
N7 Cd1 1_555 1_555
C1 C2 1_555 1_555
C2 H1 1_555 1_555
C3 C2 1_555 1_555
C4 C3 1_555 1_555
H2 C4 1_555 1_555
C5 C4 1_555 1_555
H3 C5 1_555 1_555
C6 C1 1_555 1_555
H4 C6 1_555 1_555
C7 N1 1_555 1_555
H5 C7 1_555 1_555
H6 C7 1_555 1_555
C8 N4 1_555 1_555
H7 C8 1_555 1_555
H8 C8 1_555 1_555
C9 H9 1_555 1_555
C10 N1 1_555 1_555
H10 C10 1_555 1_555
C11 H11 1_555 1_555
C12 N4 1_555 1_555
H12 C12 1_555 1_555
C13 N7 1_555 1_555
Cd1_2 N6 1_555 1_555
Cd1_3 N6B 1_555 1_555
S1B C13B 1_555 1_555
N1B N2B 1_555 1_555
N2B C9B 1_555 1_555
N3B Cd1 1_555 1_555
N4B N5B 1_555 1_555
N5B C11B 1_555 1_555
N6B C11B 1_555 1_555
N6_2 Cd1 1_555 1_555
N6B_2 Cd1 1_555 1_555
N7B Cd1 1_555 1_555
C1B C2B 1_555 1_555
C2B H1B 1_555 1_555
C3B C2B 1_555 1_555
C4B C3B 1_555 1_555
H2B C4B 1_555 1_555
C5B C4B 1_555 1_555
H3B C5B 1_555 1_555
C6B C1B 1_555 1_555
H4B C6B 1_555 1_555
C7B N1B 1_555 1_555
H5B C7B 1_555 1_555
H6B C7B 1_555 1_555
C8B N4B 1_555 1_555
H7B C8B 1_555 1_555
H8B C8B 1_555 1_555
C9B N3B 1_555 1_555
H9B C9B 1_555 1_555
C10B N1B 1_555 1_555
H10B C10B 1_555 1_555
C11B H11B 1_555 1_555
C12B N4B 1_555 1_555
H12B C12B 1_555 1_555
C13B N7B 1_555 1_555
N3 C10 1_555 1_555
N6 C12 1_555 1_555
C1 C7 1_555 1_555
C3 C8 1_555 1_555
C5 C6 1_555 1_555
N3B C10B 1_555 1_555
N6B C12B 1_555 1_555
C1B C7B 1_555 1_555
C3B C8B 1_555 1_555
C5B C6B 1_555 1_555

#END
