
#######################################################################
#
#                 Cambridge Crystallographic Data Centre
#                                CCDC 
#
#######################################################################
#
# If this CIF has been generated from an entry in the Cambridge 
# Structural Database, then it will include bibliographic, chemical, 
# crystal, experimental, refinement or atomic coordinate data resulting 
# from the CCDC's data processing and validation procedures.
#
#######################################################################

data_WEQKAF
_symmetry_cell_setting           tetragonal
_symmetry_space_group_name_H-M   'P 42/m b c'
_symmetry_Int_Tables_number      135
_space_group_name_Hall           '-P 4c 2ab'
loop_
_symmetry_equiv_pos_site_id
_symmetry_equiv_pos_as_xyz
1 x,y,z
2 -y,x,1/2+z
3 y,-x,1/2+z
4 1/2+y,1/2+x,1/2-z
5 -x,-y,z
6 1/2-x,1/2+y,-z
7 1/2+x,1/2-y,-z
8 1/2-y,1/2-x,1/2-z
9 -x,-y,-z
10 y,-x,1/2-z
11 -y,x,1/2-z
12 1/2-y,1/2-x,1/2+z
13 x,y,-z
14 1/2+x,1/2-y,z
15 1/2-x,1/2+y,z
16 1/2+y,1/2+x,1/2+z
_cell_length_a                   10.8168(7)
_cell_length_b                   10.8168(7)
_cell_length_c                   12.5692(17)
_cell_angle_alpha                90
_cell_angle_beta                 90
_cell_angle_gamma                90
_cell_volume                     1470.64
loop_
_atom_site_label
_atom_site_type_symbol
_atom_site_fract_x
_atom_site_fract_y
_atom_site_fract_z
Sm1 Sm 1.0000 0.5000 0.2500
Cr1 Cr 1.0000 1.0000 0.0000
O1 O 0.99768(18) 0.62310(19) 0.41197(14)
O2 O 1.00852(19) 0.71333(19) 0.20019(17)
O3 O 1.05785(19) 0.88223(19) 0.10950(16)
N1 N 0.8472(3) 0.8873(3) 0.0000
H1 H 0.7691 0.9349 0.0000
C1 C 0.9991(3) 0.5709(4) 0.5000
C2 C 0.9816(3) 0.7992(3) 0.1395(2)
C3 C 0.8503(3) 0.8132(3) 0.0995(2)
H2 H 0.8153 0.7321 0.0861
H3 H 0.8005 0.8534 0.1535
Sm1L Sm 1.0000 0.5000 0.7500
Sm1L_2 Sm 1.0000 0.5000 -0.2500
Cr1C Cr 1.5000 0.5000 0.5000
O1L O 0.99768(18) 0.62310(19) 0.58803(14)
O1H O 1.00232(18) 0.37690(19) 0.58803(14)
O1D O 1.00232(18) 0.37690(19) 0.41197(14)
O1C O 1.12310(19) 0.49768(18) 0.08803(14)
O1G O 0.87690(19) 0.50232(18) 0.08803(14)
O2L O 1.00852(19) 0.71333(19) -0.20019(17)
O2D O 0.99148(19) 0.28667(19) 0.20019(17)
O2C O 1.21333(19) 0.50852(19) 0.29981(17)
O2G O 0.78667(19) 0.49148(19) 0.29981(17)
O2O O 1.21333(19) 0.50852(19) 0.70019(17)
O3L O 1.05785(19) 0.88223(19) -0.10950(16)
O3H O 0.94215(19) 1.11777(19) -0.10950(16)
O3D O 0.94215(19) 1.11777(19) 0.10950(16)
O3C O 1.38223(19) 0.55785(19) 0.39050(16)
O3O O 1.38223(19) 0.55785(19) 0.60950(16)
N1H N 1.1528(3) 1.1127(3) 0.0000
N1C N 1.3873(3) 0.3472(3) 0.5000
H1H H 1.2309 1.0651 0.0000
H1C H 1.4349 0.2691 0.5000
C1H C 1.0009(3) 0.4291(4) 0.5000
C2L C 0.9816(3) 0.7992(3) -0.1395(2)
C2C C 1.2992(3) 0.4816(3) 0.3605(2)
C2O C 1.2992(3) 0.4816(3) 0.6395(2)
C3L C 0.8503(3) 0.8132(3) -0.0995(2)
C3C C 1.3132(3) 0.3503(3) 0.4005(2)
C3O C 1.3132(3) 0.3503(3) 0.5995(2)
H2L H 0.8153 0.7321 -0.0861
H2C H 1.2321 0.3153 0.4139
H2O H 1.2321 0.3153 0.5861
H3L H 0.8005 0.8534 -0.1535
H3C H 1.3534 0.3005 0.3465
H3O H 1.3534 0.3005 0.6535
loop_
_geom_bond_atom_site_label_1
_geom_bond_atom_site_label_2
_geom_bond_site_symmetry_1
_geom_bond_site_symmetry_2
Sm1 O1 1_555 1_555
Cr1 O3 1_555 1_555
O1 C1 1_555 1_555
O2 Sm1 1_555 1_555
O3 C2 1_555 1_555
N1 Cr1 1_555 1_555
H1 N1 1_555 1_555
C1 O1L 1_555 1_555
C2 O2 1_555 1_555
C3 N1 1_555 1_555
H2 C3 1_555 1_555
H3 C3 1_555 1_555
Sm1L O1L 1_555 1_555
Sm1L_2 O2L 1_555 1_555
Cr1C O3C 1_555 1_555
O1H Sm1L 1_555 1_555
O1D Sm1 1_555 1_555
O1C Sm1 1_555 1_555
O1G Sm1 1_555 1_555
O2L C2L 1_555 1_555
O2D Sm1 1_555 1_555
O2C Sm1 1_555 1_555
O2G Sm1 1_555 1_555
O2O Sm1L 1_555 1_555
O3L Cr1 1_555 1_555
O3H Cr1 1_555 1_555
O3D Cr1 1_555 1_555
O3C C2C 1_555 1_555
O3O Cr1C 1_555 1_555
N1H Cr1 1_555 1_555
N1C Cr1C 1_555 1_555
H1H N1H 1_555 1_555
H1C N1C 1_555 1_555
C1H C1 1_555 1_555
C2L O3L 1_555 1_555
C2C O2C 1_555 1_555
C2O O2O 1_555 1_555
C3L N1 1_555 1_555
C3C N1C 1_555 1_555
C3O N1C 1_555 1_555
H2L C3L 1_555 1_555
H2C C3C 1_555 1_555
H2O C3O 1_555 1_555
H3L C3L 1_555 1_555
H3C C3C 1_555 1_555
H3O C3O 1_555 1_555
C2 C3 1_555 1_555
O1H C1H 1_555 1_555
O1D C1H 1_555 1_555
O3O C2O 1_555 1_555
C2L C3L 1_555 1_555
C2C C3C 1_555 1_555
C2O C3O 1_555 1_555

#END
