
#######################################################################
#
#                 Cambridge Crystallographic Data Centre
#                                CCDC 
#
#######################################################################
#
# If this CIF has been generated from an entry in the Cambridge 
# Structural Database, then it will include bibliographic, chemical, 
# crystal, experimental, refinement or atomic coordinate data resulting 
# from the CCDC's data processing and validation procedures.
#
#######################################################################

data_WEQPOY
_symmetry_cell_setting           monoclinic
_symmetry_space_group_name_H-M   'P 2/c'
_symmetry_Int_Tables_number      13
_space_group_name_Hall           '-P 2yc'
loop_
_symmetry_equiv_pos_site_id
_symmetry_equiv_pos_as_xyz
1 x,y,z
2 -x,y,1/2-z
3 -x,-y,-z
4 x,-y,1/2+z
_cell_length_a                   9.9698(8)
_cell_length_b                   12.0247(9)
_cell_length_c                   12.4202(9)
_cell_angle_alpha                90
_cell_angle_beta                 98.146(2)
_cell_angle_gamma                90
_cell_volume                     1473.96
loop_
_atom_site_label
_atom_site_type_symbol
_atom_site_fract_x
_atom_site_fract_y
_atom_site_fract_z
Ru1 Ru -0.00430(8) 0.53648(6) 0.41489(5)
O1 O 0.1821(9) 0.4765(7) 0.4081(8)
O2 O -0.0826(7) 0.3947(5) 0.3482(4)
O3 O 0.1900(9) 0.4062(7) 0.5758(8)
O4 O -0.0723(8) 0.3204(5) 0.5158(5)
C1 C 0.2472(11) 0.4159(10) 0.4992(11)
C2 C -0.0976(10) 0.3096(5) 0.4224(6)
C3 C -0.1525(12) 0.2041(7) 0.3641(7)
C4 C -0.1806(14) 0.1998(10) 0.2398(7)
H1 H -0.1123 0.1557 0.2128
H2 H -0.1792 0.2739 0.2110
H3 H -0.2680 0.1672 0.2175
C5 C 0.3766(14) 0.3831(15) 0.4525(12)
C6 C 0.429(2) 0.4264(17) 0.3494(14)
H4 H 0.4562 0.3647 0.3085
H5 H 0.5051 0.4746 0.3698
H6 H 0.3582 0.4670 0.3057
C7 C 0.4422(15) 0.3331(14) 0.5394(14)
H7 H 0.4085 0.3302 0.6054
C8 C 0.5786(17) 0.2799(19) 0.5227(17)
H8 H 0.6429 0.3356 0.5060
H9 H 0.5666 0.2249 0.4649
C9 C 0.625(3) 0.225(2) 0.6342(19)
H10 H 0.5999 0.2721 0.6908
H11 H 0.7212 0.2156 0.6442
H12 H 0.5815 0.1542 0.6370
C10 C -0.1509(17) 0.1183(10) 0.4313(12)
H13 H -0.1139 0.1236 0.5042
C11 C -0.214(3) 0.0092(14) 0.3820(16)
H14 H -0.1625 -0.0185 0.3268
H15 H -0.3065 0.0216 0.3489
C12 C -0.209(2) -0.0748(18) 0.4760(16)
H16 H -0.1166 -0.0959 0.4999
H17 H -0.2607 -0.1395 0.4514
H18 H -0.2463 -0.0414 0.5353
O5 O 0.0000 0.6144(10) 0.2500
C13 C 0.0000 0.7298(10) 0.2500
N1 N 0.0000 0.8284(11) 0.2500
Ru1B Ru 0.00430(8) 0.46352(6) 0.58511(5)
Ru1A Ru 0.00430(8) 0.53648(6) 0.08511(5)
O1B O -0.1821(9) 0.5235(7) 0.5919(8)
O2B O 0.0826(7) 0.6053(5) 0.6518(4)
O3B O -0.1900(9) 0.5938(7) 0.4242(8)
O4B O 0.0723(8) 0.6796(5) 0.4842(5)
C1B C -0.2472(11) 0.5841(10) 0.5008(11)
C2B C 0.0976(10) 0.6904(5) 0.5776(6)
C3B C 0.1525(12) 0.7959(7) 0.6359(7)
C4B C 0.1806(14) 0.8002(10) 0.7602(7)
H1B H 0.1123 0.8443 0.7872
H2B H 0.1792 0.7261 0.7890
H3B H 0.2680 0.8328 0.7825
C5B C -0.3766(14) 0.6169(15) 0.5475(12)
C6B C -0.429(2) 0.5736(17) 0.6506(14)
H4B H -0.4562 0.6353 0.6915
H5B H -0.5051 0.5254 0.6302
H6B H -0.3582 0.5330 0.6943
C7B C -0.4422(15) 0.6669(14) 0.4606(14)
H7B H -0.4085 0.6698 0.3946
C8B C -0.5786(17) 0.7201(19) 0.4773(17)
H8B H -0.6429 0.6644 0.4940
H9B H -0.5666 0.7751 0.5351
C9B C -0.625(3) 0.775(2) 0.3658(19)
H10B H -0.5999 0.7279 0.3092
H11B H -0.7212 0.7844 0.3558
H12B H -0.5815 0.8458 0.3630
C10B C 0.1509(17) 0.8817(10) 0.5687(12)
H13B H 0.1139 0.8764 0.4958
C11B C 0.214(3) 0.9908(14) 0.6180(16)
H14B H 0.1625 1.0185 0.6732
H15B H 0.3065 0.9784 0.6511
C12B C 0.209(2) 1.0748(18) 0.5240(16)
H16B H 0.1166 1.0959 0.5001
H17B H 0.2607 1.1395 0.5486
H18B H 0.2463 1.0414 0.4647
O5C O 0.0000 0.3856(10) 0.7500
loop_
_geom_bond_atom_site_label_1
_geom_bond_atom_site_label_2
_geom_bond_site_symmetry_1
_geom_bond_site_symmetry_2
Ru1 O1 1_555 1_555
O1 C1 1_555 1_555
O2 Ru1 1_555 1_555
O3 C1 1_555 1_555
O4 C2 1_555 1_555
C1 C5 1_555 1_555
C2 O2 1_555 1_555
C3 C2 1_555 1_555
C4 C3 1_555 1_555
H1 C4 1_555 1_555
H2 C4 1_555 1_555
H3 C4 1_555 1_555
C5 C6 1_555 1_555
C6 H4 1_555 1_555
H5 C6 1_555 1_555
H6 C6 1_555 1_555
C7 C5 1_555 1_555
H7 C7 1_555 1_555
C8 C7 1_555 1_555
H8 C8 1_555 1_555
H9 C8 1_555 1_555
C9 C8 1_555 1_555
H10 C9 1_555 1_555
H11 C9 1_555 1_555
H12 C9 1_555 1_555
C10 C3 1_555 1_555
H13 C10 1_555 1_555
C11 C10 1_555 1_555
H14 C11 1_555 1_555
H15 C11 1_555 1_555
C12 C11 1_555 1_555
H16 C12 1_555 1_555
H17 C12 1_555 1_555
H18 C12 1_555 1_555
O5 Ru1 1_555 1_555
C13 O5 1_555 1_555
N1 C13 1_555 1_555
Ru1B Ru1 1_555 1_555
Ru1A O5 1_555 1_555
O1B Ru1B 1_555 1_555
O2B Ru1B 1_555 1_555
O3B Ru1 1_555 1_555
O4B Ru1 1_555 1_555
C1B O1B 1_555 1_555
C2B O2B 1_555 1_555
C3B C2B 1_555 1_555
C4B C3B 1_555 1_555
H1B C4B 1_555 1_555
H2B C4B 1_555 1_555
H3B C4B 1_555 1_555
C5B C1B 1_555 1_555
C6B C5B 1_555 1_555
H4B C6B 1_555 1_555
H5B C6B 1_555 1_555
H6B C6B 1_555 1_555
C7B C5B 1_555 1_555
H7B C7B 1_555 1_555
C8B C7B 1_555 1_555
H8B C8B 1_555 1_555
H9B C8B 1_555 1_555
C9B C8B 1_555 1_555
H10B C9B 1_555 1_555
H11B C9B 1_555 1_555
H12B C9B 1_555 1_555
C10B C3B 1_555 1_555
H13B C10B 1_555 1_555
C11B C10B 1_555 1_555
H14B C11B 1_555 1_555
H15B C11B 1_555 1_555
C12B C11B 1_555 1_555
H16B C12B 1_555 1_555
H17B C12B 1_555 1_555
H18B C12B 1_555 1_555
O5C Ru1B 1_555 1_555
O3 Ru1B 1_555 1_555
O4 Ru1B 1_555 1_555
O3B C1B 1_555 1_555
O4B C2B 1_555 1_555

#END
