
#######################################################################
#
#                 Cambridge Crystallographic Data Centre
#                                CCDC 
#
#######################################################################
#
# If this CIF has been generated from an entry in the Cambridge 
# Structural Database, then it will include bibliographic, chemical, 
# crystal, experimental, refinement or atomic coordinate data resulting 
# from the CCDC's data processing and validation procedures.
#
#######################################################################

data_WEQREQ
_symmetry_cell_setting           orthorhombic
_symmetry_space_group_name_H-M   'P c c n'
_symmetry_Int_Tables_number      56
_space_group_name_Hall           '-P 2ab 2ac'
loop_
_symmetry_equiv_pos_site_id
_symmetry_equiv_pos_as_xyz
1 x,y,z
2 1/2-x,1/2-y,z
3 1/2+x,-y,1/2-z
4 -x,1/2+y,1/2-z
5 -x,-y,-z
6 1/2+x,1/2+y,-z
7 1/2-x,y,1/2+z
8 x,1/2-y,1/2+z
_cell_length_a                   18.2626(13)
_cell_length_b                   11.4913(9)
_cell_length_c                   16.0515(10)
_cell_angle_alpha                90
_cell_angle_beta                 90
_cell_angle_gamma                90
_cell_volume                     3368.58
loop_
_atom_site_label
_atom_site_type_symbol
_atom_site_fract_x
_atom_site_fract_y
_atom_site_fract_z
Fe1 Fe 0.56549(3) 0.52443(5) 0.10415(3)
S1 S 0.81270(5) 0.49691(11) 0.26890(6)
O1 O 0.69260(16) 0.5208(3) 0.13857(18)
O2 O 0.60245(15) 0.5302(3) 0.22904(18)
O3 O 0.95623(14) 0.4768(3) 0.35708(18)
O4 O 0.91442(17) 0.5261(3) 0.48173(18)
N1 N 0.56415(19) 0.7156(3) 0.0995(2)
N2 N 0.56913(18) 1.3335(3) 0.1040(2)
C1 C 0.5062(3) 0.8984(4) 0.1248(4)
H1 H 0.4635 0.9384 0.1427
C2 C 0.5073(3) 0.7787(4) 0.1233(4)
H2 H 0.4643 0.7387 0.1405
C3 C 0.6232(3) 0.7752(4) 0.0776(4)
H3 H 0.6655 0.7328 0.0614
C4 C 0.6270(3) 0.8945(4) 0.0771(4)
H4 H 0.6712 0.9318 0.0608
C5 C 0.5674(2) 0.9605(4) 0.1000(2)
C6 C 0.5688(2) 1.0891(3) 0.1025(3)
C7 C 0.6199(3) 1.1531(4) 0.0579(3)
H5 H 0.6559 1.1145 0.0253
C8 C 0.6182(3) 1.2733(4) 0.0611(3)
H6 H 0.6543 1.3151 0.0308
C9 C 0.5211(3) 1.2720(4) 0.1478(3)
H7 H 0.4863 1.3129 0.1807
C10 C 0.5188(3) 1.1519(4) 0.1482(3)
H8 H 0.4826 1.1126 0.1801
C11 C 0.6699(2) 0.5259(4) 0.2116(3)
C12 C 0.7224(2) 0.5274(4) 0.2825(3)
C13 C 0.7076(2) 0.5528(6) 0.3639(3)
H9 H 0.6601 0.5720 0.3837
C14 C 0.7696(2) 0.5478(6) 0.4152(3)
H10 H 0.7689 0.5634 0.4733
C15 C 0.8311(2) 0.5178(4) 0.3723(2)
C16 C 0.9062(2) 0.5055(3) 0.4055(2)
Fe1B Fe 1.06549(3) 0.47557(5) 0.39585(3)
Fe1F Fe 0.93451(3) 0.52443(5) 0.60415(3)
Fe1_2 Fe 0.56549(3) 1.52443(5) 0.10415(3)
O3B O 0.45623(14) 0.5232(3) 0.14292(18)
O4F O 0.58558(17) 0.5261(3) -0.01827(18)
N2_2 N 0.56913(18) 0.3335(3) 0.1040(2)
loop_
_geom_bond_atom_site_label_1
_geom_bond_atom_site_label_2
_geom_bond_site_symmetry_1
_geom_bond_site_symmetry_2
Fe1 O1 1_555 1_555
S1 C12 1_555 1_555
O1 C11 1_555 1_555
O2 Fe1 1_555 1_555
O3 C16 1_555 1_555
O4 C16 1_555 1_555
N1 Fe1 1_555 1_555
N2 C8 1_555 1_555
C1 H1 1_555 1_555
C2 N1 1_555 1_555
H2 C2 1_555 1_555
C3 N1 1_555 1_555
H3 C3 1_555 1_555
C4 C3 1_555 1_555
H4 C4 1_555 1_555
C5 C1 1_555 1_555
C6 C5 1_555 1_555
C7 C6 1_555 1_555
H5 C7 1_555 1_555
C8 C7 1_555 1_555
H6 C8 1_555 1_555
C9 N2 1_555 1_555
H7 C9 1_555 1_555
C10 C6 1_555 1_555
H8 C10 1_555 1_555
C11 O2 1_555 1_555
C12 C11 1_555 1_555
C13 C12 1_555 1_555
H9 C13 1_555 1_555
C14 C13 1_555 1_555
H10 C14 1_555 1_555
C15 S1 1_555 1_555
C16 C15 1_555 1_555
Fe1B O3 1_555 1_555
Fe1F O4 1_555 1_555
Fe1_2 N2 1_555 1_555
O3B Fe1 1_555 1_555
O4F Fe1 1_555 1_555
N2_2 Fe1 1_555 1_555
C1 C2 1_555 1_555
C4 C5 1_555 1_555
C9 C10 1_555 1_555
C14 C15 1_555 1_555

#END
