
#######################################################################
#
#                 Cambridge Crystallographic Data Centre
#                                CCDC 
#
#######################################################################
#
# If this CIF has been generated from an entry in the Cambridge 
# Structural Database, then it will include bibliographic, chemical, 
# crystal, experimental, refinement or atomic coordinate data resulting 
# from the CCDC's data processing and validation procedures.
#
#######################################################################

data_WEQRAM01
_symmetry_cell_setting           orthorhombic
_symmetry_space_group_name_H-M   'P c c n'
_symmetry_Int_Tables_number      56
_space_group_name_Hall           '-P 2ab 2ac'
loop_
_symmetry_equiv_pos_site_id
_symmetry_equiv_pos_as_xyz
1 x,y,z
2 1/2-x,1/2-y,z
3 1/2+x,-y,1/2-z
4 -x,1/2+y,1/2-z
5 -x,-y,-z
6 1/2+x,1/2+y,-z
7 1/2-x,y,1/2+z
8 x,1/2-y,1/2+z
_cell_length_a                   11.382(2)
_cell_length_b                   17.907(3)
_cell_length_c                   16.171(3)
_cell_angle_alpha                90
_cell_angle_beta                 90
_cell_angle_gamma                90
_cell_volume                     3295.93
loop_
_atom_site_label
_atom_site_type_symbol
_atom_site_fract_x
_atom_site_fract_y
_atom_site_fract_z
C1 C 0.0398(5) 0.3320(2) 0.7877(3)
C2 C 0.0416(5) 0.2781(2) 0.7170(2)
C3 C 0.0773(5) 0.2933(3) 0.6385(3)
H1 H 0.1033 0.3404 0.6207
C4 C 0.0709(5) 0.2305(3) 0.5875(3)
H2 H 0.0945 0.2307 0.5318
C5 C 0.0278(5) 0.1697(2) 0.6258(2)
C6 C 0.0109(4) 0.0945(2) 0.5896(2)
C7 C 0.7892(5) 0.3823(3) 0.9436(3)
H3 H 0.8308 0.3488 0.9775
C8 C 0.6691(5) 0.3809(3) 0.9460(3)
H4 H 0.6304 0.3464 0.9803
C9 C 0.6039(4) 0.4305(3) 0.8976(3)
C10 C 0.6683(5) 0.4761(3) 0.8472(3)
H5 H 0.6293 0.5093 0.8114
C11 C 0.7884(5) 0.4745(3) 0.8479(3)
H6 H 0.8294 0.5073 0.813
C12 C 0.2866(5) 0.3742(3) 0.9182(3)
H7 H 0.2437 0.3312 0.9327
C13 C 0.4080(5) 0.3699(3) 0.9197(3)
H8 H 0.4457 0.3252 0.9344
C14 C 0.4728(4) 0.4322(3) 0.8994(3)
C15 C 0.4129(4) 0.4948(3) 0.8766(3)
H9 H 0.4536 0.5382 0.8609
C16 C 0.2909(4) 0.4936(3) 0.8767(3)
H10 H 0.2512 0.5374 0.861
Co1 Co 0.03806(6) 0.43369(3) 0.89586(4)
N1 N 0.8498(3) 0.4286(3) 0.8957(3)
N2 N 0.2268(3) 0.4351(3) 0.8975(3)
O1 O 0.0312(3) 0.30867(15) 0.86083(16)
O2 O 0.0460(4) 0.40037(16) 0.77088(17)
O3 O 0.0475(3) 0.08557(15) 0.51666(17)
O4 O -0.0360(3) 0.04479(14) 0.63309(16)
S1 S -0.00219(12) 0.18784(6) 0.72679(6)
Co1_2 Co 1.03806(6) 0.43369(3) 0.89586(4)
Co1C Co -0.03806(6) -0.06631(3) 0.60414(4)
Co1G Co 0.03806(6) 0.06631(3) 0.39586(4)
N1_2 N -0.1502(3) 0.4286(3) 0.8957(3)
O3G O 0.0475(3) 0.41443(15) 1.01666(17)
O4C O 0.0360(3) 0.54479(14) 0.86691(16)
loop_
_geom_bond_atom_site_label_1
_geom_bond_atom_site_label_2
_geom_bond_site_symmetry_1
_geom_bond_site_symmetry_2
C1 C2 1_555 1_555
C2 C3 1_555 1_555
C3 H1 1_555 1_555
C4 C3 1_555 1_555
H2 C4 1_555 1_555
C5 C4 1_555 1_555
C6 C5 1_555 1_555
C7 H3 1_555 1_555
C8 C7 1_555 1_555
H4 C8 1_555 1_555
C9 C8 1_555 1_555
C10 C9 1_555 1_555
H5 C10 1_555 1_555
C11 C10 1_555 1_555
H6 C11 1_555 1_555
C12 H7 1_555 1_555
C13 C12 1_555 1_555
H8 C13 1_555 1_555
C14 C9 1_555 1_555
C15 C14 1_555 1_555
H9 C15 1_555 1_555
C16 C15 1_555 1_555
H10 C16 1_555 1_555
Co1 N2 1_555 1_555
N1 C7 1_555 1_555
N2 C12 1_555 1_555
O1 C1 1_555 1_555
O2 C1 1_555 1_555
O3 C6 1_555 1_555
O4 C6 1_555 1_555
S1 C2 1_555 1_555
Co1_2 N1 1_555 1_555
Co1C O4 1_555 1_555
Co1G O3 1_555 1_555
N1_2 Co1 1_555 1_555
O3G Co1 1_555 1_555
O4C Co1 1_555 1_555
C5 S1 1_555 1_555
C11 N1 1_555 1_555
C13 C14 1_555 1_555
C16 N2 1_555 1_555
Co1 O1 1_555 1_555
Co1 O2 1_555 1_555

#END
