
#######################################################################
#
#                 Cambridge Crystallographic Data Centre
#                                CCDC 
#
#######################################################################
#
# If this CIF has been generated from an entry in the Cambridge 
# Structural Database, then it will include bibliographic, chemical, 
# crystal, experimental, refinement or atomic coordinate data resulting 
# from the CCDC's data processing and validation procedures.
#
#######################################################################

data_WERGEG
_symmetry_cell_setting           triclinic
_symmetry_space_group_name_H-M   'P -1'
_symmetry_Int_Tables_number      2
_space_group_name_Hall           '-P 1'
loop_
_symmetry_equiv_pos_site_id
_symmetry_equiv_pos_as_xyz
1 x,y,z
2 -x,-y,-z
_cell_length_a                   8.5012(3)
_cell_length_b                   12.7906(5)
_cell_length_c                   23.8761(9)
_cell_angle_alpha                101.124(1)
_cell_angle_beta                 97.332(1)
_cell_angle_gamma                95.830(1)
_cell_volume                     2505.24
loop_
_atom_site_label
_atom_site_type_symbol
_atom_site_fract_x
_atom_site_fract_y
_atom_site_fract_z
Pb1 Pb -0.19745(3) 0.372921(17) 0.140689(9)
Pb2 Pb -0.65621(3) 0.351880(18) 0.516230(10)
Pb3 Pb -0.66284(2) 0.647040(18) 0.177700(9)
O1 O -0.2925(5) 0.3327(4) 0.22922(18)
O2 O -0.0308(5) 0.3757(4) 0.24271(19)
O3 O -0.4859(5) 0.4425(3) 0.43522(19)
O4 O -0.4560(5) 0.2913(3) 0.46520(19)
O5 O -0.1456(7) 0.4264(5) 0.5266(2)
O6 O -0.0530(7) 0.2734(5) 0.5222(2)
O7 O 0.1341(5) 0.2699(4) 0.43388(19)
O8 O 0.2441(6) 0.3439(5) 0.3312(3)
O9 O 0.1123(7) 0.1880(4) 0.2915(2)
O10 O -0.4225(5) 0.5058(4) 0.1297(2)
O11 O -0.4442(5) 0.6774(3) 0.13256(18)
O12 O -0.2343(6) 0.4837(4) -0.08358(18)
O13 O -0.0763(5) 0.6261(4) -0.09387(18)
O14 O 0.1314(6) 0.8132(4) -0.0016(2)
O15 O 0.2326(6) 0.6645(4) -0.0143(2)
O16 O 0.1763(5) 0.7549(3) 0.12013(16)
O17 O -0.0199(8) 0.7903(4) 0.2073(2)
O18 O -0.1068(7) 0.6296(4) 0.2076(2)
O19 O -0.7112(9) 0.4408(6) 0.2065(3)
N1 N -0.4332(6) 0.2301(4) 0.0997(2)
N2 N -0.1355(6) 0.1856(4) 0.1355(2)
N3 N -0.1084(6) 0.3419(5) 0.4997(2)
N4 N 0.1242(7) 0.2789(5) 0.3222(3)
N5 N -0.6684(5) 0.1610(4) 0.52766(19)
N6 N -0.4405(6) 0.3180(4) 0.5950(2)
N7 N 0.1337(6) 0.7194(4) 0.0028(2)
N8 N -0.0712(6) 0.6997(4) 0.1822(2)
N9 N -0.5338(6) 0.8478(4) 0.2239(2)
N10 N -0.4210(5) 0.6814(4) 0.2664(2)
C1 C -0.5776(7) 0.2521(6) 0.0817(3)
H1 H -0.5934 0.3237 0.0842
C2 C -0.7064(8) 0.1731(6) 0.0593(3)
H2 H -0.8066 0.1917 0.0477
C3 C -0.6848(9) 0.0680(6) 0.0544(3)
H3 H -0.7695 0.0141 0.0387
C4 C -0.5351(9) 0.0419(5) 0.0731(3)
C5 C -0.5012(10) -0.0677(6) 0.0711(3)
H4 H -0.5824 -0.1244 0.0562
C6 C -0.3545(10) -0.0888(6) 0.0903(3)
H5 H -0.3366 -0.1596 0.0893
C7 C -0.2258(9) -0.0039(5) 0.1123(3)
C8 C -0.0705(10) -0.0226(6) 0.1324(4)
H6 H -0.0472 -0.0923 0.1315
C9 C 0.0441(10) 0.0619(7) 0.1528(4)
H7 H 0.1472 0.0503 0.1662
C10 C 0.0097(8) 0.1653(6) 0.1541(3)
H8 H 0.0907 0.2224 0.1683
C11 C -0.2532(8) 0.1033(5) 0.1148(3)
C12 C -0.4106(7) 0.1254(5) 0.0950(3)
C13 C -0.1570(8) 0.3470(5) 0.2596(2)
C14 C -0.1490(7) 0.3323(5) 0.3212(2)
C15 C -0.2803(7) 0.3498(5) 0.3501(3)
H9 H -0.3751 0.3626 0.3301
C16 C -0.2704(7) 0.3481(4) 0.4082(2)
C17 C -0.1265(7) 0.3262(5) 0.4369(2)
C18 C 0.0055(7) 0.2986(5) 0.4097(3)
C19 C -0.0126(7) 0.3068(5) 0.3510(3)
C20 C -0.4141(7) 0.3634(5) 0.4382(2)
C21 C -0.7785(7) 0.0839(5) 0.4964(3)
H10 H -0.8550 0.1032 0.4702
C22 C -0.7878(8) -0.0231(5) 0.5001(3)
H11 H -0.8682 -0.0739 0.4772
C23 C -0.6738(8) -0.0517(5) 0.5387(3)
H12 H -0.6756 -0.1232 0.5418
C24 C -0.5555(7) 0.0261(5) 0.5735(3)
C25 C -0.4355(8) 0.0008(6) 0.6151(3)
H13 H -0.4336 -0.0699 0.6192
C26 C -0.3256(8) 0.0794(6) 0.6481(3)
H14 H -0.2496 0.0615 0.6751
C27 C -0.3220(7) 0.1880(5) 0.6433(2)
C28 C -0.2116(7) 0.2715(6) 0.6770(3)
H15 H -0.1341 0.2571 0.7047
C29 C -0.2165(7) 0.3728(6) 0.6697(3)
H16 H -0.1429 0.4284 0.6923
C30 C -0.3329(7) 0.3943(6) 0.6278(3)
H17 H -0.3345 0.4647 0.6230
C31 C -0.4370(7) 0.2144(5) 0.6016(2)
C32 C -0.5566(7) 0.1317(5) 0.5666(2)
C33 C -0.3779(6) 0.5936(5) 0.1197(2)
C34 C -0.2337(6) 0.6120(4) 0.0893(2)
C35 C -0.2459(6) 0.5787(4) 0.0301(2)
H18 H -0.3371 0.5346 0.0098
C36 C -0.1256(6) 0.6096(4) 0.0004(2)
C37 C 0.0081(6) 0.6740(4) 0.0319(2)
C38 C 0.0389(6) 0.7053(4) 0.0928(2)
C39 C -0.0907(6) 0.6717(4) 0.1195(2)
C40 C -0.1440(7) 0.5700(5) -0.0647(2)
C41 C -0.5911(8) 0.9298(5) 0.2051(3)
H19 H -0.6869 0.9168 0.1797
C42 C -0.5133(10) 1.0340(6) 0.2218(3)
H20 H -0.5572 1.0893 0.2078
C43 C -0.3742(9) 1.0550(6) 0.2582(3)
H21 H -0.3202 1.1245 0.2688
C44 C -0.3115(8) 0.9718(5) 0.2801(3)
C45 C -0.1691(8) 0.9894(6) 0.3221(3)
H22 H -0.1113 1.0577 0.3333
C46 C -0.1195(8) 0.9108(6) 0.3448(3)
H23 H -0.0278 0.9248 0.3723
C47 C -0.2034(7) 0.8033(5) 0.3283(2)
C48 C -0.1586(8) 0.7162(6) 0.3524(3)
H24 H -0.0722 0.7275 0.3820
C49 C -0.2396(8) 0.6170(6) 0.3330(3)
H25 H -0.2094 0.5595 0.3486
C50 C -0.3703(8) 0.6024(5) 0.2889(3)
H26 H -0.4240 0.5335 0.2748
C51 C -0.3397(6) 0.7811(5) 0.2854(2)
C52 C -0.3966(7) 0.8688(5) 0.2625(2)
H27 H -0.8010 0.4173 0.2159
H28 H -0.6406 0.4081 0.2247
Pb1A Pb 0.19745(3) 0.627079(17) -0.140689(9)
Pb2A Pb -0.34379(3) 0.648120(18) 0.483770(10)
Pb2_2 Pb 0.34379(3) 0.351880(18) 0.516230(10)
Pb3A Pb -0.33716(2) 0.352960(18) -0.177700(9)
Pb3_2 Pb 0.33716(2) 0.647040(18) 0.177700(9)
O3A O -0.5141(5) 0.5575(3) 0.56478(19)
O7_2 O -0.8659(5) 0.2699(4) 0.43388(19)
O12A O -0.7657(6) 0.5163(4) 0.08358(18)
O13A O 0.0763(5) 0.3739(4) 0.09387(18)
O15A O -0.2326(6) 0.3355(4) 0.0143(2)
O16_2 O -0.8237(5) 0.7549(3) 0.12013(16)
loop_
_geom_bond_atom_site_label_1
_geom_bond_atom_site_label_2
_geom_bond_site_symmetry_1
_geom_bond_site_symmetry_2
Pb1 O1 1_555 1_555
Pb2 O3 1_555 1_555
Pb3 O11 1_555 1_555
O1 C13 1_555 1_555
O2 Pb1 1_555 1_555
O3 C20 1_555 1_555
O4 Pb2 1_555 1_555
O5 N3 1_555 1_555
O6 N3 1_555 1_555
O7 C18 1_555 1_555
O8 N4 1_555 1_555
O9 N4 1_555 1_555
O10 Pb1 1_555 1_555
O11 C33 1_555 1_555
O12 C40 1_555 1_555
O13 C40 1_555 1_555
O14 N7 1_555 1_555
O15 N7 1_555 1_555
O16 C38 1_555 1_555
O17 N8 1_555 1_555
O18 N8 1_555 1_555
O19 Pb3 1_555 1_555
N1 Pb1 1_555 1_555
N2 Pb1 1_555 1_555
N3 C17 1_555 1_555
N4 C19 1_555 1_555
N5 Pb2 1_555 1_555
N6 Pb2 1_555 1_555
N7 C37 1_555 1_555
N8 C39 1_555 1_555
N9 Pb3 1_555 1_555
N10 Pb3 1_555 1_555
C1 N1 1_555 1_555
H1 C1 1_555 1_555
C2 C1 1_555 1_555
H2 C2 1_555 1_555
C3 C2 1_555 1_555
H3 C3 1_555 1_555
C4 C3 1_555 1_555
C5 C4 1_555 1_555
H4 C5 1_555 1_555
C6 C5 1_555 1_555
H5 C6 1_555 1_555
C7 C6 1_555 1_555
C8 C7 1_555 1_555
H6 C8 1_555 1_555
C9 C8 1_555 1_555
H7 C9 1_555 1_555
C10 N2 1_555 1_555
H8 C10 1_555 1_555
C11 N2 1_555 1_555
C12 N1 1_555 1_555
C13 O2 1_555 1_555
C14 C13 1_555 1_555
C15 C14 1_555 1_555
H9 C15 1_555 1_555
C16 C15 1_555 1_555
C17 C16 1_555 1_555
C18 C17 1_555 1_555
C19 C14 1_555 1_555
C20 O4 1_555 1_555
C21 N5 1_555 1_555
H10 C21 1_555 1_555
C22 C21 1_555 1_555
H11 C22 1_555 1_555
C23 C22 1_555 1_555
H12 C23 1_555 1_555
C24 C23 1_555 1_555
C25 C24 1_555 1_555
H13 C25 1_555 1_555
C26 C25 1_555 1_555
H14 C26 1_555 1_555
C27 C26 1_555 1_555
C28 C27 1_555 1_555
H15 C28 1_555 1_555
C29 C28 1_555 1_555
H16 C29 1_555 1_555
C30 N6 1_555 1_555
H17 C30 1_555 1_555
C31 N6 1_555 1_555
C32 N5 1_555 1_555
C33 O10 1_555 1_555
C34 C33 1_555 1_555
C35 C34 1_555 1_555
H18 C35 1_555 1_555
C36 C35 1_555 1_555
C37 C36 1_555 1_555
C38 C37 1_555 1_555
C39 C34 1_555 1_555
C40 C36 1_555 1_555
C41 N9 1_555 1_555
H19 C41 1_555 1_555
C42 C41 1_555 1_555
H20 C42 1_555 1_555
C43 C42 1_555 1_555
H21 C43 1_555 1_555
C44 C43 1_555 1_555
C45 C44 1_555 1_555
H22 C45 1_555 1_555
C46 C45 1_555 1_555
H23 C46 1_555 1_555
C47 C46 1_555 1_555
C48 C47 1_555 1_555
H24 C48 1_555 1_555
C49 C48 1_555 1_555
H25 C49 1_555 1_555
C50 N10 1_555 1_555
H26 C50 1_555 1_555
C51 N10 1_555 1_555
C52 N9 1_555 1_555
H27 O19 1_555 1_555
H28 O19 1_555 1_555
Pb1A O13 1_555 1_555
Pb2A O3 1_555 1_555
Pb2_2 O7 1_555 1_555
Pb3A O12 1_555 1_555
Pb3_2 O16 1_555 1_555
O3A Pb2 1_555 1_555
O7_2 Pb2 1_555 1_555
O12A Pb3 1_555 1_555
O13A Pb1 1_555 1_555
O15A Pb1 1_555 1_555
O16_2 Pb3 1_555 1_555
O15 Pb1A 1_555 1_555
C4 C12 1_555 1_555
C7 C11 1_555 1_555
C9 C10 1_555 1_555
C11 C12 1_555 1_555
C16 C20 1_555 1_555
C18 C19 1_555 1_555
C24 C32 1_555 1_555
C27 C31 1_555 1_555
C29 C30 1_555 1_555
C31 C32 1_555 1_555
C38 C39 1_555 1_555
C44 C52 1_555 1_555
C47 C51 1_555 1_555
C49 C50 1_555 1_555
C51 C52 1_555 1_555
Pb2A O3A 1_555 1_555

#END
