
#######################################################################
#
#                 Cambridge Crystallographic Data Centre
#                                CCDC 
#
#######################################################################
#
# If this CIF has been generated from an entry in the Cambridge 
# Structural Database, then it will include bibliographic, chemical, 
# crystal, experimental, refinement or atomic coordinate data resulting 
# from the CCDC's data processing and validation procedures.
#
#######################################################################

data_WERJEJ
_symmetry_cell_setting           monoclinic
_symmetry_space_group_name_H-M   'C 2/c'
_symmetry_Int_Tables_number      15
_space_group_name_Hall           '-C 2yn'
loop_
_symmetry_equiv_pos_site_id
_symmetry_equiv_pos_as_xyz
1 x,y,z
2 1/2+x,1/2+y,z
3 -x,y,1/2-z
4 1/2-x,1/2+y,1/2-z
5 -x,-y,-z
6 1/2-x,1/2-y,-z
7 x,-y,1/2+z
8 1/2+x,1/2-y,1/2+z
_cell_length_a                   21.965(4)
_cell_length_b                   10.671(2)
_cell_length_c                   13.662(3)
_cell_angle_alpha                90
_cell_angle_beta                 93.50(3)
_cell_angle_gamma                90
_cell_volume                     3196.24
loop_
_atom_site_label
_atom_site_type_symbol
_atom_site_fract_x
_atom_site_fract_y
_atom_site_fract_z
Cu1 Cu 0.003036(19) -0.43064(4) 0.38172(3)
O1 O -0.04219(10) -0.5744(2) 0.42604(16)
O2 O 0.05077(10) -0.5456(2) 0.31614(17)
O3 O -0.05183(11) -0.7778(2) 0.39222(18)
N1 N -0.05595(13) -0.3030(3) 0.4212(2)
N2 N 0.05052(14) -0.2763(3) 0.3523(2)
C1 C -0.11023(17) -0.3267(4) 0.4551(3)
H1 H -0.1215 -0.4097 0.4645
C2 C -0.1505(2) -0.2328(4) 0.4767(3)
H2 H -0.1883 -0.2515 0.5002
C3 C -0.1331(2) -0.1120(4) 0.4627(3)
H3 H -0.1595 -0.0470 0.4763
C4 C -0.0771(2) -0.0854(4) 0.4287(3)
H4 H -0.0650 -0.0030 0.4194
C5 C -0.03924(18) -0.1832(4) 0.4087(3)
C6 C 0.02170(18) -0.1686(4) 0.3704(3)
C7 C 0.0489(2) -0.0541(4) 0.3527(3)
H5 H 0.0282 0.0202 0.3638
C8 C 0.1058(2) -0.0512(4) 0.3189(3)
H6 H 0.1243 0.0253 0.3068
C9 C 0.1363(2) -0.1619(4) 0.3025(3)
H7 H 0.1757 -0.1620 0.2813
C10 C 0.10569(18) -0.2724(4) 0.3188(3)
H8 H 0.1249 -0.3477 0.3055
C11 C -0.02904(16) -0.6730(4) 0.3790(2)
C12 C 0.01730(14) -0.6571(3) 0.3011(2)
H9 H 0.0456 -0.7283 0.3051
Cu1B Cu -0.003036(19) -0.43064(4) 0.11828(3)
Cu1D Cu -0.003036(19) -0.56936(4) 0.61828(3)
Cu1F Cu 0.003036(19) -0.56936(4) -0.11828(3)
O1B O 0.04219(10) -0.5744(2) 0.07396(16)
O1D O 0.04219(10) -0.4256(2) 0.57396(16)
O1F O -0.04219(10) -0.4256(2) -0.07396(16)
O2B O -0.05077(10) -0.5456(2) 0.18386(17)
O3B O 0.05183(11) -0.7778(2) 0.10778(18)
N1B N 0.05595(13) -0.3030(3) 0.0788(2)
N2B N -0.05052(14) -0.2763(3) 0.1477(2)
C1B C 0.11023(17) -0.3267(4) 0.0449(3)
H1B H 0.1215 -0.4097 0.0355
C2B C 0.1505(2) -0.2328(4) 0.0233(3)
H2B H 0.1883 -0.2515 -0.0002
C3B C 0.1331(2) -0.1120(4) 0.0373(3)
H3B H 0.1595 -0.0470 0.0237
C4B C 0.0771(2) -0.0854(4) 0.0713(3)
H4B H 0.0650 -0.0030 0.0806
C5B C 0.03924(18) -0.1832(4) 0.0913(3)
C6B C -0.02170(18) -0.1686(4) 0.1296(3)
C7B C -0.0489(2) -0.0541(4) 0.1473(3)
H5B H -0.0282 0.0202 0.1362
C8B C -0.1058(2) -0.0512(4) 0.1811(3)
H6B H -0.1243 0.0253 0.1932
C9B C -0.1363(2) -0.1619(4) 0.1975(3)
H7B H -0.1757 -0.1620 0.2187
C10B C -0.10569(18) -0.2724(4) 0.1812(3)
H8B H -0.1249 -0.3477 0.1945
C11B C 0.02904(16) -0.6730(4) 0.1210(2)
C12B C -0.01730(14) -0.6571(3) 0.1989(2)
H9B H -0.0456 -0.7283 0.1949
O4 O 0.22586(12) -0.4293(3) 0.4809(2)
H10 H 0.2624 -0.3805 0.4733
H11 H 0.2122 -0.4399 0.4210
O5 O 0.16976(11) -0.5666(3) 0.32604(19)
H12 H 0.1861 -0.5427 0.3829
H13 H 0.1832 -0.6627 0.3223
O6 O 0.17000(12) -0.2140(2) 0.5598(2)
H15 H 0.1275 -0.2248 0.5634
H16 H 0.1804 -0.2892 0.5457
O7 O -0.22692(16) -0.4770(3) 0.3324(2)
H17 H -0.2462 -0.4057 0.3081
H18 H -0.2205 -0.5013 0.4014
O8 O 0.20074(18) 0.2055(3) 0.2636(2)
H19 H 0.2324 0.2620 0.2558
H14? H 0.1186 -0.5423 0.3313
H20? H 0.2009 0.1464 0.1768
loop_
_geom_bond_atom_site_label_1
_geom_bond_atom_site_label_2
_geom_bond_site_symmetry_1
_geom_bond_site_symmetry_2
Cu1 O1 1_555 1_555
O1 C11 1_555 1_555
O2 Cu1 1_555 1_555
O3 C11 1_555 1_555
O4 H10 1_555 1_555
O5 H12 1_555 1_555
O6 H15 1_555 1_555
O7 H17 1_555 1_555
O8 H19 1_555 1_555
N1 Cu1 1_555 1_555
N2 Cu1 1_555 1_555
C1 N1 1_555 1_555
H1 C1 1_555 1_555
C2 C1 1_555 1_555
H2 C2 1_555 1_555
C3 C2 1_555 1_555
H3 C3 1_555 1_555
C4 C3 1_555 1_555
H4 C4 1_555 1_555
C5 N1 1_555 1_555
C6 N2 1_555 1_555
C7 C6 1_555 1_555
H5 C7 1_555 1_555
C8 C7 1_555 1_555
H6 C8 1_555 1_555
C9 C8 1_555 1_555
H7 C9 1_555 1_555
C10 N2 1_555 1_555
H8 C10 1_555 1_555
C11 C12 1_555 1_555
C12 O2 1_555 1_555
H9 C12 1_555 1_555
H11 O4 1_555 1_555
H13 O5 1_555 1_555
H16 O6 1_555 1_555
H18 O7 1_555 1_555
Cu1B O1B 1_555 1_555
Cu1D O1 1_555 1_555
Cu1F O1B 1_555 1_555
O1B C11B 1_555 1_555
O1D Cu1 1_555 1_555
O1F Cu1B 1_555 1_555
O2B Cu1B 1_555 1_555
O3B C11B 1_555 1_555
N1B Cu1B 1_555 1_555
N2B Cu1B 1_555 1_555
C1B N1B 1_555 1_555
H1B C1B 1_555 1_555
C2B C1B 1_555 1_555
H2B C2B 1_555 1_555
C3B C2B 1_555 1_555
H3B C3B 1_555 1_555
C4B C3B 1_555 1_555
H4B C4B 1_555 1_555
C5B N1B 1_555 1_555
C6B N2B 1_555 1_555
C7B C6B 1_555 1_555
H5B C7B 1_555 1_555
C8B C7B 1_555 1_555
H6B C8B 1_555 1_555
C9B C8B 1_555 1_555
H7B C9B 1_555 1_555
C10B N2B 1_555 1_555
H8B C10B 1_555 1_555
C11B C12B 1_555 1_555
C12B C12 1_555 1_555
H9B C12B 1_555 1_555
C4 C5 1_555 1_555
C5 C6 1_555 1_555
C9 C10 1_555 1_555
Cu1D O1D 1_555 1_555
Cu1F O1F 1_555 1_555
O2B C12B 1_555 1_555
C4B C5B 1_555 1_555
C5B C6B 1_555 1_555
C9B C10B 1_555 1_555

#END
