
#######################################################################
#
#                 Cambridge Crystallographic Data Centre
#                                CCDC 
#
#######################################################################
#
# If this CIF has been generated from an entry in the Cambridge 
# Structural Database, then it will include bibliographic, chemical, 
# crystal, experimental, refinement or atomic coordinate data resulting 
# from the CCDC's data processing and validation procedures.
#
#######################################################################

data_WERREQ
_symmetry_cell_setting           monoclinic
_symmetry_space_group_name_H-M   'P 21/n'
_symmetry_Int_Tables_number      14
_space_group_name_Hall           '-P 2yn'
loop_
_symmetry_equiv_pos_site_id
_symmetry_equiv_pos_as_xyz
1 x,y,z
2 1/2+x,1/2-y,1/2+z
3 -x,-y,-z
4 1/2-x,1/2+y,1/2-z
_cell_length_a                   11.5067(7)
_cell_length_b                   13.6942(8)
_cell_length_c                   19.183(2)
_cell_angle_alpha                90
_cell_angle_beta                 95.479(6)
_cell_angle_gamma                90
_cell_volume                     3008.95
loop_
_atom_site_label
_atom_site_type_symbol
_atom_site_fract_x
_atom_site_fract_y
_atom_site_fract_z
Ce1 Ce 0.89577(3) 0.25467(2) 0.12912(2)
C1 C 0.9151(8) 0.5662(7) 0.0600(5)
H1 H 0.9611(9) 0.6102(43) 0.0350(32)
H2 H 0.8627(49) 0.6030(47) 0.0859(7)
H3 H 0.8710(54) 0.5241(8) 0.0274(28)
O1 O 0.9744(6) 0.4188(4) 0.1183(4)
C2 C 0.9935(7) 0.5064(6) 0.1092(4)
N1 N 1.0852(6) 0.5500(5) 0.1421(4)
H4 H 1.0965(6) 0.6107(5) 0.1333(4)
C3 C 1.1681(8) 0.5011(5) 0.1924(5)
H5 H 1.1619(8) 0.4306(5) 0.1842(5)
C4 C 1.1431(9) 0.5206(12) 0.2648(7)
H6 H 1.0643(9) 0.4994(12) 0.2711(7)
H7 H 1.1479(9) 0.5903(12) 0.2738(7)
C5 C 1.2875(11) 0.5315(20) 0.1824(9)
H8 H 1.2943(11) 0.6018(20) 0.1880(9)
H9 H 1.3047(11) 0.5152(20) 0.1352(9)
C6 C 0.7500(10) 0.4834(7) 0.2418(6)
H10 H 0.7147(67) 0.5446(36) 0.2523(19)
H11 H 0.8334(14) 0.4904(68) 0.2465(14)
H12 H 0.7279(73) 0.4344(35) 0.2738(7)
O2 O 0.7405(5) 0.3777(4) 0.1429(3)
C7 C 0.7095(6) 0.4538(5) 0.1686(5)
N2 N 0.6385(6) 0.5155(5) 0.1307(4)
H13 H 0.6179(6) 0.5686(5) 0.1500(4)
C8 C 0.5947(7) 0.4965(6) 0.0582(4)
H14 H 0.6587(7) 0.4700(6) 0.0337(4)
C9 C 0.5539(10) 0.5928(6) 0.0224(6)
H15 H 0.4946(10) 0.6225(6) 0.0483(6)
H16 H 0.6194(10) 0.6375(6) 0.0233(6)
C10 C 0.4950(10) 0.4235(7) 0.0519(5)
H17 H 0.5226(10) 0.3617(7) 0.0719(5)
H18 H 0.4333(10) 0.4468(7) 0.0787(5)
C11 C 0.5684(9) 0.2330(8) 0.2135(6)
H19 H 0.4849(9) 0.2350(61) 0.2127(25)
H20 H 0.5986(70) 0.2984(23) 0.2145(26)
H21 H 0.6004(69) 0.1985(39) 0.2545(6)
O3 O 0.7055(5) 0.1726(4) 0.1368(4)
C12 C 0.6019(7) 0.1814(5) 0.1490(5)
N3 N 0.5153(6) 0.1451(5) 0.1059(4)
H22 H 0.4447(6) 0.1587(5) 0.1136(4)
C13 C 0.5343(7) 0.0838(6) 0.0465(5)
H23 H 0.6027(7) 0.1081(6) 0.0251(5)
C14 C 0.4277(9) 0.0880(8) -0.0085(6)
H24 H 0.3584(9) 0.0689(8) 0.0131(6)
H25 H 0.4168(9) 0.1546(8) -0.0252(6)
C15 C 0.5571(9) -0.0220(7) 0.0692(5)
H26 H 0.6269(9) -0.0247(7) 0.1018(5)
H27 H 0.4922(9) -0.0452(7) 0.0935(5)
C16 C 1.6098(8) 0.4421(7) 0.4399(6)
H28 H 1.6864(22) 0.4382(56) 0.4241(23)
H29 H 1.5797(43) 0.3775(23) 0.4453(35)
H30 H 1.6140(61) 0.4757(35) 0.4840(13)
O4 O 1.5548(5) 0.5811(4) 0.3695(3)
C17 C 1.5298(7) 0.4974(5) 0.3865(4)
N4 N 1.4368(6) 0.4516(4) 0.3588(4)
H31 H 1.4256(6) 0.3922(4) 0.3711(4)
C18 C 1.3497(7) 0.4981(5) 0.3069(5)
H32 H 1.3538(7) 0.5688(5) 0.3149(5)
C19 C 1.3756(11) 0.4807(18) 0.2355(7)
H33 H 1.3743(11) 0.4110(18) 0.2265(7)
H34 H 1.4535(11) 0.5045(18) 0.2297(7)
C20 C 1.2299(9) 0.4670(14) 0.3167(6)
H35 H 1.2129(9) 0.4812(14) 0.3642(6)
H36 H 1.2225(9) 0.3971(14) 0.3094(6)
N5 N 0.8428(6) 0.2478(5) -0.0328(3)
O5 O 0.8355(7) 0.3256(5) 0.0011(4)
O6 O 0.8461(7) 0.1704(5) 0.0011(4)
O7 O 0.8545(7) 0.2479(4) -0.0959(3)
N6 N 0.9355(9) 0.2552(6) 0.2903(4)
O8 O 0.9001(9) 0.1830(6) 0.2569(4)
O9 O 0.9508(8) 0.3301(5) 0.2551(4)
O10 O 0.9526(20) 0.2530(9) 0.3527(5)
N7 N 1.1560(6) 0.2420(5) 0.1092(5)
O11 O 1.0785(6) 0.2412(5) 0.0580(4)
O12 O 1.1218(5) 0.2451(4) 0.1696(3)
O13 O 1.2588(6) 0.2356(8) 0.1010(7)
C10B C 0.5050(10) 0.5765(7) -0.0519(5)
C8B C 0.4053(7) 0.5035(6) -0.0582(4)
N2B N 0.3615(6) 0.4845(5) -0.1307(4)
C7B C 0.2905(6) 0.5462(5) -0.1686(5)
C6B C 0.2500(10) 0.5166(7) -0.2418(6)
H10B H 0.2853(67) 0.4554(36) -0.2523(19)
H11B H 0.1666(14) 0.5096(68) -0.2465(14)
H12B H 0.2721(73) 0.5656(35) -0.2738(7)
O2B O 0.2595(5) 0.6223(4) -0.1429(3)
H13B H 0.3821(6) 0.4314(5) -0.1500(4)
H14B H 0.3413(7) 0.5300(6) -0.0337(4)
C9B C 0.4461(10) 0.4072(6) -0.0224(6)
H15B H 0.5054(10) 0.3775(6) -0.0483(6)
H16B H 0.3806(10) 0.3625(6) -0.0233(6)
H17B H 0.4774(10) 0.6383(7) -0.0719(5)
H18B H 0.5667(10) 0.5532(7) -0.0787(5)
C15B C 0.4429(9) 0.0220(7) -0.0692(5)
C13B C 0.4657(7) -0.0838(6) -0.0465(5)
N3B N 0.4847(6) -0.1451(5) -0.1059(4)
C12B C 0.3981(7) -0.1814(5) -0.1490(5)
C11B C 0.4316(9) -0.2330(8) -0.2135(6)
H19B H 0.5151(9) -0.2350(61) -0.2127(25)
H20B H 0.4014(70) -0.2984(23) -0.2145(26)
H21B H 0.3996(69) -0.1985(39) -0.2545(6)
O3B O 0.2945(5) -0.1726(4) -0.1368(4)
H22B H 0.5553(6) -0.1587(5) -0.1136(4)
H23B H 0.3973(7) -0.1081(6) -0.0251(5)
C14B C 0.5723(9) -0.0880(8) 0.0085(6)
H24B H 0.6416(9) -0.0689(8) -0.0131(6)
H25B H 0.5832(9) -0.1546(8) 0.0252(6)
H26B H 0.3731(9) 0.0247(7) -0.1018(5)
H27B H 0.5078(9) 0.0452(7) -0.0935(5)
C1C C 1.5849(8) 0.0662(7) 0.4400(5)
H1C H 1.5389(9) 0.1102(43) 0.4650(32)
H2C H 1.6373(49) 0.1030(47) 0.4141(7)
H3C H 1.6290(54) 0.0241(8) 0.4726(28)
O1C O 1.5256(6) -0.0812(4) 0.3817(4)
C2C C 1.5065(7) 0.0064(6) 0.3908(4)
N1C N 1.4148(6) 0.0500(5) 0.3579(4)
H4C H 1.4035(6) 0.1107(5) 0.3667(4)
C3C C 1.3319(8) 0.0011(5) 0.3076(5)
H5C H 1.3381(8) -0.0694(5) 0.3158(5)
C4C C 1.3569(9) 0.0206(12) 0.2352(7)
H6C H 1.4357(9) -0.0006(12) 0.2289(7)
H7C H 1.3521(9) 0.0903(12) 0.2262(7)
C5C C 1.2125(11) 0.0315(20) 0.3176(9)
H8C H 1.2057(11) 0.1018(20) 0.3120(9)
H9C H 1.1953(11) 0.0152(20) 0.3648(9)
C16C C 0.8902(8) -0.0579(7) 0.0601(6)
H28C H 0.8136(22) -0.0618(56) 0.0759(23)
H29C H 0.9203(43) -0.1225(23) 0.0547(35)
H30C H 0.8860(61) -0.0243(35) 0.0160(13)
O4C O 0.9452(5) 0.0811(4) 0.1305(3)
C17C C 0.9702(7) -0.0026(5) 0.1135(4)
N4C N 1.0632(6) -0.0484(4) 0.1412(4)
H31C H 1.0744(6) -0.1078(4) 0.1289(4)
C18C C 1.1503(7) -0.0019(5) 0.1931(5)
H32C H 1.1462(7) 0.0688(5) 0.1851(5)
C19C C 1.1244(11) -0.0193(18) 0.2645(7)
H33C H 1.1257(11) -0.0890(18) 0.2735(7)
H34C H 1.0465(11) 0.0045(18) 0.2703(7)
C20C C 1.2701(9) -0.0330(14) 0.1833(6)
H35C H 1.2871(9) -0.0188(14) 0.1358(6)
H36C H 1.2775(9) -0.1029(14) 0.1906(6)
Ce1C Ce 1.60423(3) -0.24533(2) 0.37088(2)
Ce1B Ce 0.10423(3) 0.74533(2) -0.12912(2)
Ce1B_2 Ce 0.10423(3) -0.25467(2) -0.12912(2)
Ce1C_2 Ce 1.60423(3) 0.75467(2) 0.37088(2)
O1B O 0.0256(6) 0.5812(4) -0.1183(4)
O3B_2 O 0.2945(5) 0.8274(4) -0.1368(4)
O4A O 0.0548(5) 0.9189(4) -0.1305(3)
N5B N 0.1572(6) 0.7522(5) 0.0328(3)
O5B O 0.1645(7) 0.6744(5) -0.0011(4)
O6B O 0.1539(7) 0.8296(5) -0.0011(4)
O7B O 0.1455(7) 0.7521(4) 0.0959(3)
N6B N 0.0645(9) 0.7448(6) -0.2903(4)
O8B O 0.0999(9) 0.8170(6) -0.2569(4)
O9B O 0.0492(8) 0.6699(5) -0.2551(4)
O10B O 0.0474(20) 0.7470(9) -0.3527(5)
N7B N -0.1560(6) 0.7580(5) -0.1092(5)
O11B O -0.0785(6) 0.7588(5) -0.0580(4)
O12B O -0.1218(5) 0.7549(4) -0.1696(3)
O13B O -0.2588(6) 0.7644(8) -0.1010(7)
loop_
_geom_bond_atom_site_label_1
_geom_bond_atom_site_label_2
_geom_bond_site_symmetry_1
_geom_bond_site_symmetry_2
Ce1 O1 1_555 1_555
C1 H1 1_555 1_555
H2 C1 1_555 1_555
H3 C1 1_555 1_555
O1 C2 1_555 1_555
C2 C1 1_555 1_555
N1 C2 1_555 1_555
H4 N1 1_555 1_555
C3 N1 1_555 1_555
H5 C3 1_555 1_555
C4 C3 1_555 1_555
H6 C4 1_555 1_555
H7 C4 1_555 1_555
C5 C3 1_555 1_555
H8 C5 1_555 1_555
H9 C5 1_555 1_555
C6 H10 1_555 1_555
H11 C6 1_555 1_555
H12 C6 1_555 1_555
O2 Ce1 1_555 1_555
C7 C6 1_555 1_555
N2 C7 1_555 1_555
H13 N2 1_555 1_555
C8 N2 1_555 1_555
H14 C8 1_555 1_555
C9 C8 1_555 1_555
H15 C9 1_555 1_555
H16 C9 1_555 1_555
C10 C8 1_555 1_555
H17 C10 1_555 1_555
H18 C10 1_555 1_555
C11 H19 1_555 1_555
H20 C11 1_555 1_555
H21 C11 1_555 1_555
O3 Ce1 1_555 1_555
C12 C11 1_555 1_555
N3 C12 1_555 1_555
H22 N3 1_555 1_555
C13 N3 1_555 1_555
H23 C13 1_555 1_555
C14 C13 1_555 1_555
H24 C14 1_555 1_555
H25 C14 1_555 1_555
C15 C13 1_555 1_555
H26 C15 1_555 1_555
H27 C15 1_555 1_555
C16 H28 1_555 1_555
H29 C16 1_555 1_555
H30 C16 1_555 1_555
O4 C17 1_555 1_555
C17 C16 1_555 1_555
N4 C17 1_555 1_555
H31 N4 1_555 1_555
C18 N4 1_555 1_555
H32 C18 1_555 1_555
C19 C5 1_555 1_555
H33 C19 1_555 1_555
H34 C19 1_555 1_555
C20 C4 1_555 1_555
H35 C20 1_555 1_555
H36 C20 1_555 1_555
N5 O5 1_555 1_555
O5 Ce1 1_555 1_555
O6 Ce1 1_555 1_555
O7 N5 1_555 1_555
N6 O8 1_555 1_555
O8 Ce1 1_555 1_555
O9 Ce1 1_555 1_555
O10 N6 1_555 1_555
N7 O11 1_555 1_555
O11 Ce1 1_555 1_555
O12 Ce1 1_555 1_555
O13 N7 1_555 1_555
C10B C9 1_555 1_555
C8B C10B 1_555 1_555
N2B C8B 1_555 1_555
C7B N2B 1_555 1_555
C6B C7B 1_555 1_555
H10B C6B 1_555 1_555
H11B C6B 1_555 1_555
H12B C6B 1_555 1_555
O2B C7B 1_555 1_555
H13B N2B 1_555 1_555
H14B C8B 1_555 1_555
C9B C10 1_555 1_555
H15B C9B 1_555 1_555
H16B C9B 1_555 1_555
H17B C10B 1_555 1_555
H18B C10B 1_555 1_555
C15B C14 1_555 1_555
C13B C15B 1_555 1_555
N3B C13B 1_555 1_555
C12B N3B 1_555 1_555
C11B C12B 1_555 1_555
H19B C11B 1_555 1_555
H20B C11B 1_555 1_555
H21B C11B 1_555 1_555
O3B C12B 1_555 1_555
H22B N3B 1_555 1_555
H23B C13B 1_555 1_555
C14B C15 1_555 1_555
H24B C14B 1_555 1_555
H25B C14B 1_555 1_555
H26B C15B 1_555 1_555
H27B C15B 1_555 1_555
C1C H1C 1_555 1_555
H2C C1C 1_555 1_555
H3C C1C 1_555 1_555
O1C C2C 1_555 1_555
C2C C1C 1_555 1_555
N1C C2C 1_555 1_555
H4C N1C 1_555 1_555
C3C N1C 1_555 1_555
H5C C3C 1_555 1_555
C4C C3C 1_555 1_555
H6C C4C 1_555 1_555
H7C C4C 1_555 1_555
C5C C3C 1_555 1_555
H8C C5C 1_555 1_555
H9C C5C 1_555 1_555
C16C H28C 1_555 1_555
H29C C16C 1_555 1_555
H30C C16C 1_555 1_555
O4C Ce1 1_555 1_555
C17C C16C 1_555 1_555
N4C C17C 1_555 1_555
H31C N4C 1_555 1_555
C18C N4C 1_555 1_555
H32C C18C 1_555 1_555
C19C C5C 1_555 1_555
H33C C19C 1_555 1_555
H34C C19C 1_555 1_555
C20C C4C 1_555 1_555
H35C C20C 1_555 1_555
H36C C20C 1_555 1_555
Ce1C O1C 1_555 1_555
Ce1B O2B 1_555 1_555
Ce1B_2 O3B 1_555 1_555
Ce1C_2 O4 1_555 1_555
O1B Ce1B 1_555 1_555
O3B_2 Ce1B 1_555 1_555
O4A Ce1B 1_555 1_555
N5B O5B 1_555 1_555
O5B Ce1B 1_555 1_555
O6B Ce1B 1_555 1_555
O7B N5B 1_555 1_555
N6B O8B 1_555 1_555
O8B Ce1B 1_555 1_555
O9B Ce1B 1_555 1_555
O10B N6B 1_555 1_555
N7B O11B 1_555 1_555
O11B Ce1B 1_555 1_555
O12B Ce1B 1_555 1_555
O13B N7B 1_555 1_555
O2 C7 1_555 1_555
O3 C12 1_555 1_555
C18 C20 1_555 1_555
C18 C19 1_555 1_555
N5 O6 1_555 1_555
N6 O9 1_555 1_555
N7 O12 1_555 1_555
C8B C9B 1_555 1_555
C13B C14B 1_555 1_555
O4C C17C 1_555 1_555
C18C C20C 1_555 1_555
C18C C19C 1_555 1_555
N5B O6B 1_555 1_555
N6B O9B 1_555 1_555
N7B O12B 1_555 1_555

#END
