
#######################################################################
#
#                 Cambridge Crystallographic Data Centre
#                                CCDC 
#
#######################################################################
#
# If this CIF has been generated from an entry in the Cambridge 
# Structural Database, then it will include bibliographic, chemical, 
# crystal, experimental, refinement or atomic coordinate data resulting 
# from the CCDC's data processing and validation procedures.
#
#######################################################################

data_WESYEZ
_symmetry_cell_setting           orthorhombic
_symmetry_space_group_name_H-M   'P 21 21 21'
_symmetry_Int_Tables_number      19
_space_group_name_Hall           'P 2ac 2ab'
loop_
_symmetry_equiv_pos_site_id
_symmetry_equiv_pos_as_xyz
1 x,y,z
2 1/2-x,-y,1/2+z
3 1/2+x,1/2-y,-z
4 -x,1/2+y,1/2-z
_cell_length_a                   7.4389(5)
_cell_length_b                   10.5720(10)
_cell_length_c                   14.7775(10)
_cell_angle_alpha                90
_cell_angle_beta                 90
_cell_angle_gamma                90
_cell_volume                     1162.16
loop_
_atom_site_label
_atom_site_type_symbol
_atom_site_fract_x
_atom_site_fract_y
_atom_site_fract_z
Ag1 Ag -0.03506(3) -0.235654(14) 1.499506(15)
O4 O -0.2936(3) -0.07517(17) 1.52752(13)
H1 H -0.2886 -0.0213 1.4886
H2 H -0.2850 -0.0418 1.5777
N1 N 0.1381(3) -0.10306(19) 1.39279(14)
N2 N 0.3203(3) -0.1225(2) 1.38997(14)
N3 N 0.1826(3) 0.17613(19) 1.13839(13)
N4 N 0.3651(4) 0.15679(19) 1.13577(13)
C1 C 0.0616(4) -0.0248(2) 1.33602(16)
H5 H -0.0621 -0.0130 1.3391
C2 C 0.1619(4) 0.0434(2) 1.26971(15)
C3 C 0.0861(4) 0.1242(2) 1.20291(16)
H6 H -0.0364 0.1413 1.2054
C4 C 0.4194(4) -0.0624(2) 1.33046(16)
H7 H 0.5427 -0.0771 1.3295
C5 C 0.3445(4) 0.0242(2) 1.26688(15)
C6 C 0.4432(4) 0.0870(2) 1.19806(17)
H8 H 0.5677 0.0785 1.1970
Ag1B Ag 0.46494(3) -0.264346(14) 1.500494(15)
Ag1C Ag 0.03506(3) 0.264346(14) 1.000494(15)
Ag1A Ag 0.53506(3) 0.235654(14) 0.999506(15)
N2B N -0.1797(3) -0.3775(2) 1.61003(14)
N3C N -0.1826(3) -0.32387(19) 1.36161(13)
N4A N 0.1349(4) -0.15679(19) 1.63577(13)
S1 S 0.30029(9) -0.24839(5) 1.11585(4)
O1 O 0.4673(3) -0.2109(2) 1.15874(13)
O2 O 0.2993(4) -0.38163(17) 1.09396(15)
O3 O 0.1455(3) -0.2116(2) 1.16794(13)
C7 C 0.2910(5) -0.1647(3) 1.01295(19)
H9 H 0.1732 -0.1737 0.9872
H10 H 0.3790 -0.1970 0.9714
H11 H 0.3157 -0.0767 1.0232
O5 O -0.1978(3) -0.09530(18) 1.17482(14)
H3 H -0.2814 -0.1402 1.1661
H4 H -0.1022 -0.1385 1.1673
loop_
_geom_bond_atom_site_label_1
_geom_bond_atom_site_label_2
_geom_bond_site_symmetry_1
_geom_bond_site_symmetry_2
Ag1 O4 1_555 1_555
S1 O1 1_555 1_555
O2 S1 1_555 1_555
O3 S1 1_555 1_555
O4 H1 1_555 1_555
H2 O4 1_555 1_555
O5 H3 1_555 1_555
H4 O5 1_555 1_555
N1 Ag1 1_555 1_555
N2 N1 1_555 1_555
N3 N4 1_555 1_555
N4 C6 1_555 1_555
C1 N1 1_555 1_555
H5 C1 1_555 1_555
C2 C1 1_555 1_555
C3 N3 1_555 1_555
H6 C3 1_555 1_555
C4 N2 1_555 1_555
H7 C4 1_555 1_555
C5 C2 1_555 1_555
C6 C5 1_555 1_555
H8 C6 1_555 1_555
C7 S1 1_555 1_555
H9 C7 1_555 1_555
H10 C7 1_555 1_555
H11 C7 1_555 1_555
Ag1B N2 1_555 1_555
Ag1C N3 1_555 1_555
Ag1A N4 1_555 1_555
N2B Ag1 1_555 1_555
N3C Ag1 1_555 1_555
N4A Ag1 1_555 1_555
C2 C3 1_555 1_555
C4 C5 1_555 1_555

#END
