
#######################################################################
#
#                 Cambridge Crystallographic Data Centre
#                                CCDC 
#
#######################################################################
#
# If this CIF has been generated from an entry in the Cambridge 
# Structural Database, then it will include bibliographic, chemical, 
# crystal, experimental, refinement or atomic coordinate data resulting 
# from the CCDC's data processing and validation procedures.
#
#######################################################################

data_WESYAV
_symmetry_cell_setting           monoclinic
_symmetry_space_group_name_H-M   'P 21/c'
_symmetry_Int_Tables_number      14
_space_group_name_Hall           '-P 2ybc'
loop_
_symmetry_equiv_pos_site_id
_symmetry_equiv_pos_as_xyz
1 x,y,z
2 -x,1/2+y,1/2-z
3 -x,-y,-z
4 x,1/2-y,1/2+z
_cell_length_a                   6.7875(7)
_cell_length_b                   10.5615(9)
_cell_length_c                   14.2118(11)
_cell_angle_alpha                90
_cell_angle_beta                 97.567(10)
_cell_angle_gamma                90
_cell_volume                     1009.92
loop_
_atom_site_label
_atom_site_type_symbol
_atom_site_fract_x
_atom_site_fract_y
_atom_site_fract_z
Cu1 Cu -0.5000 0.5000 0.5000
Cu2 Cu 0.0000 0.5000 0.5000
O1 O -0.2525(3) 0.58977(19) 0.49363(15)
H1 H -0.2544 0.6784 0.4873
N1 N -0.3301(4) 0.3593(2) 0.39243(17)
N2 N -0.1340(4) 0.3866(2) 0.38737(17)
N3 N -0.3502(4) 0.1084(2) 0.11073(17)
N4 N -0.1509(4) 0.1291(2) 0.10904(17)
C1 C -0.4288(5) 0.2865(3) 0.3275(2)
H6 H -0.5630 0.2685 0.3317
C2 C -0.3397(5) 0.2341(3) 0.2512(2)
C3 C -0.4419(5) 0.1575(3) 0.1778(2)
H7 H -0.5782 0.1417 0.1776
C4 C -0.0420(5) 0.3410(3) 0.3193(2)
H8 H 0.0925 0.3612 0.3179
C5 C -0.1420(5) 0.2612(3) 0.2470(2)
C6 C -0.0510(5) 0.2034(3) 0.1723(2)
H9 H 0.0840 0.2193 0.1684
Cu1C Cu -0.5000 0.0000 0.0000
Cu1C_2 Cu -0.5000 1.0000 1.0000
Cu2C Cu 0.0000 0.0000 0.0000
Cu2_2 Cu -1.0000 0.5000 0.5000
Cu2C_2 Cu -1.0000 1.0000 1.0000
O1B O -0.7475(3) 0.41023(19) 0.50637(15)
O1B_2 O 0.2525(3) 0.41023(19) 0.50637(15)
H1B H -0.7456 0.3216 0.5127
H1B_2 H 0.2544 0.3216 0.5127
N1B N -0.6699(4) 0.6407(2) 0.60757(17)
N2B N -0.8660(4) 0.6134(2) 0.61263(17)
N2B_2 N 0.1340(4) 0.6134(2) 0.61263(17)
N3B N -0.6498(4) 0.8916(2) 0.88927(17)
N3C N -0.3502(4) 0.3916(2) 0.61073(17)
N3A N -0.6498(4) 0.6084(2) 0.38927(17)
N4B N -0.8491(4) 0.8709(2) 0.89096(17)
N4C N -0.1509(4) 0.3709(2) 0.60904(17)
N4A N 0.1509(4) 0.6291(2) 0.39096(17)
C1B C -0.5712(5) 0.7135(3) 0.6725(2)
H6B H -0.4370 0.7315 0.6683
C2B C -0.6603(5) 0.7659(3) 0.7488(2)
C3B C -0.5581(5) 0.8425(3) 0.8222(2)
H7B H -0.4218 0.8583 0.8224
C4B C -0.9580(5) 0.6590(3) 0.6807(2)
H8B H -1.0925 0.6388 0.6821
C5B C -0.8580(5) 0.7388(3) 0.7530(2)
C6B C -0.9490(5) 0.7966(3) 0.8277(2)
H9B H -1.0840 0.7807 0.8316
S1 S -0.77388(14) 0.04733(8) 0.40877(6)
O2 O -0.6826(4) 0.1474(2) 0.47107(19)
O3 O -0.9872(4) 0.0656(3) 0.3881(2)
O4 O -0.6754(5) 0.0356(3) 0.32372(19)
N5 N -0.7457(5) -0.0904(3) 0.4606(2)
H4 H -0.6327 -0.1085 0.4888
H5 H -0.8198 -0.0973 0.5007
O5 O -1.2970(5) -0.0851(3) 0.3043(2)
H2 H -1.1914 -0.0543 0.3289
H3 H -1.3862 -0.0440 0.3143
loop_
_geom_bond_atom_site_label_1
_geom_bond_atom_site_label_2
_geom_bond_site_symmetry_1
_geom_bond_site_symmetry_2
Cu1 O1 1_555 1_555
Cu2 O1 1_555 1_555
S1 O2 1_555 1_555
O1 H1 1_555 1_555
O3 S1 1_555 1_555
O4 S1 1_555 1_555
O5 H2 1_555 1_555
H3 O5 1_555 1_555
N1 Cu1 1_555 1_555
N2 Cu2 1_555 1_555
N3 N4 1_555 1_555
N4 C6 1_555 1_555
N5 S1 1_555 1_555
H4 N5 1_555 1_555
H5 N5 1_555 1_555
C1 N1 1_555 1_555
H6 C1 1_555 1_555
C2 C1 1_555 1_555
C3 N3 1_555 1_555
H7 C3 1_555 1_555
C4 N2 1_555 1_555
H8 C4 1_555 1_555
C5 C2 1_555 1_555
C6 C5 1_555 1_555
H9 C6 1_555 1_555
Cu1C N3 1_555 1_555
Cu1C_2 N3B 1_555 1_555
Cu2C N4 1_555 1_555
Cu2_2 O1B 1_555 1_555
Cu2C_2 N4B 1_555 1_555
O1B Cu1 1_555 1_555
O1B_2 Cu2 1_555 1_555
H1B O1B 1_555 1_555
H1B_2 O1B_2 1_555 1_555
N1B Cu1 1_555 1_555
N2B Cu2_2 1_555 1_555
N2B_2 Cu2 1_555 1_555
N3B N4B 1_555 1_555
N3C Cu1 1_555 1_555
N3A Cu1 1_555 1_555
N4B C6B 1_555 1_555
N4C Cu2 1_555 1_555
N4A Cu2 1_555 1_555
C1B N1B 1_555 1_555
H6B C1B 1_555 1_555
C2B C1B 1_555 1_555
C3B N3B 1_555 1_555
H7B C3B 1_555 1_555
C4B N2B 1_555 1_555
H8B C4B 1_555 1_555
C5B C2B 1_555 1_555
C6B C5B 1_555 1_555
H9B C6B 1_555 1_555
N1 N2 1_555 1_555
C2 C3 1_555 1_555
C4 C5 1_555 1_555
N1B N2B 1_555 1_555
N3C N4C 1_555 1_555
C2B C3B 1_555 1_555
C4B C5B 1_555 1_555

#END
