
#######################################################################
#
#                 Cambridge Crystallographic Data Centre
#                                CCDC 
#
#######################################################################
#
# If this CIF has been generated from an entry in the Cambridge 
# Structural Database, then it will include bibliographic, chemical, 
# crystal, experimental, refinement or atomic coordinate data resulting 
# from the CCDC's data processing and validation procedures.
#
#######################################################################

data_WESZIE
_symmetry_cell_setting           monoclinic
_symmetry_space_group_name_H-M   'P 21/c'
_symmetry_Int_Tables_number      14
_space_group_name_Hall           '-P 2ybc'
loop_
_symmetry_equiv_pos_site_id
_symmetry_equiv_pos_as_xyz
1 x,y,z
2 -x,1/2+y,1/2-z
3 -x,-y,-z
4 x,1/2-y,1/2+z
_cell_length_a                   8.439(6)
_cell_length_b                   29.12(2)
_cell_length_c                   10.064(8)
_cell_angle_alpha                90
_cell_angle_beta                 113.611(12)
_cell_angle_gamma                90
_cell_volume                     2266.13
loop_
_atom_site_label
_atom_site_type_symbol
_atom_site_fract_x
_atom_site_fract_y
_atom_site_fract_z
Ag1 Ag -0.24730(2) 0.742990(7) -0.14447(2)
N1 N -0.0656(3) 0.74700(6) -0.2479(2)
N2 N 0.5672(3) 0.75316(6) -0.5458(2)
N3 N -0.2135(4) 0.65402(9) -0.1174(3)
C1 C -0.0177(4) 0.70902(9) -0.2979(3)
H1 H -0.073(4) 0.6811(10) -0.289(3)
C2 C 0.1008(4) 0.70898(8) -0.3583(3)
H2 H 0.125(4) 0.6835(10) -0.392(3)
C3 C 0.1830(4) 0.74974(7) -0.3678(3)
C4 C 0.1318(4) 0.78901(8) -0.3178(3)
H3 H 0.182(4) 0.8180(9) -0.321(3)
C5 C 0.0097(4) 0.78644(9) -0.2602(3)
H4 H -0.026(3) 0.8117(9) -0.226(3)
C6 C 0.3170(3) 0.75095(7) -0.4268(3)
C7 C 0.4089(3) 0.71164(8) -0.4338(3)
H5 H 0.390(4) 0.6830(10) -0.396(3)
C8 C 0.3581(4) 0.79146(8) -0.4799(3)
H6 H 0.302(4) 0.8205(9) -0.483(3)
C9 C 0.5281(3) 0.71406(8) -0.4939(3)
H7 H 0.589(4) 0.6890(9) -0.503(3)
C10 C 0.4812(4) 0.79105(9) -0.5368(3)
H8 H 0.508(4) 0.8165(9) -0.577(3)
C11 C -0.2117(4) 0.61545(10) -0.1020(3)
C12 C -0.2105(6) 0.56613(10) -0.0833(4)
H9 H -0.100(7) 0.5557(15) -0.059(5)
H10 H -0.276(5) 0.5520(13) -0.169(4)
H11 H -0.256(7) 0.5593(15) -0.016(5)
Ag1C Ag 0.75270(2) 0.757010(7) -0.64447(2)
N2C N -0.4328(3) 0.74684(6) -0.0458(2)
N4 N -0.5130(3) 0.88505(7) -0.2093(3)
S1 S -0.65743(10) 0.92187(2) -0.28988(8)
S2 S -0.31947(10) 0.88873(2) -0.18789(7)
O1 O -0.7946(3) 0.90126(7) -0.4102(2)
O2 O -0.5988(3) 0.96639(6) -0.3087(3)
O3 O -0.2886(3) 0.91370(7) -0.2964(2)
O4 O -0.2413(3) 0.84449(7) -0.1454(2)
F1 F -0.0455(3) 0.92447(9) 0.0102(3)
F2 F -0.2365(3) 0.90291(8) 0.0868(2)
F3 F -0.2734(3) 0.96451(6) -0.0359(2)
F4 F -0.6313(3) 0.94526(7) -0.0311(2)
F5 F -0.8771(3) 0.95956(7) -0.2040(3)
F6 F -0.8096(3) 0.89005(6) -0.1278(2)
C13 C -0.7479(4) 0.92928(11) -0.1538(4)
C14 C -0.2131(4) 0.92229(11) -0.0227(3)
N5 N 0.3435(4) 0.61123(10) -0.2376(4)
C15 C 0.3072(4) 0.57573(10) -0.2130(3)
C16 C 0.2598(5) 0.53034(10) -0.1817(4)
H12 H 0.1436 0.5226 -0.2526
H13 H 0.2609 0.5300 -0.0840
H14 H 0.3428 0.5077 -0.1875
loop_
_geom_bond_atom_site_label_1
_geom_bond_atom_site_label_2
_geom_bond_site_symmetry_1
_geom_bond_site_symmetry_2
Ag1 N1 1_555 1_555
N1 C1 1_555 1_555
N2 C9 1_555 1_555
N3 Ag1 1_555 1_555
N4 S1 1_555 1_555
N5 C15 1_555 1_555
S1 O1 1_555 1_555
S2 N4 1_555 1_555
O2 S1 1_555 1_555
O3 S2 1_555 1_555
O4 S2 1_555 1_555
F1 C14 1_555 1_555
F2 C14 1_555 1_555
F3 C14 1_555 1_555
F4 C13 1_555 1_555
F5 C13 1_555 1_555
F6 C13 1_555 1_555
C1 H1 1_555 1_555
C2 C1 1_555 1_555
H2 C2 1_555 1_555
C3 C2 1_555 1_555
C4 C3 1_555 1_555
H3 C4 1_555 1_555
C5 N1 1_555 1_555
H4 C5 1_555 1_555
C6 C3 1_555 1_555
C7 C6 1_555 1_555
H5 C7 1_555 1_555
C8 C6 1_555 1_555
H6 C8 1_555 1_555
C9 C7 1_555 1_555
H7 C9 1_555 1_555
C10 N2 1_555 1_555
H8 C10 1_555 1_555
C11 N3 1_555 1_555
C12 C11 1_555 1_555
H9 C12 1_555 1_555
H10 C12 1_555 1_555
H11 C12 1_555 1_555
C13 S1 1_555 1_555
C14 S2 1_555 1_555
C15 C16 1_555 1_555
C16 H12 1_555 1_555
H13 C16 1_555 1_555
H14 C16 1_555 1_555
Ag1C N2 1_555 1_555
N2C Ag1 1_555 1_555
C4 C5 1_555 1_555
C8 C10 1_555 1_555

#END
