
#######################################################################
#
#                 Cambridge Crystallographic Data Centre
#                                CCDC 
#
#######################################################################
#
# If this CIF has been generated from an entry in the Cambridge 
# Structural Database, then it will include bibliographic, chemical, 
# crystal, experimental, refinement or atomic coordinate data resulting 
# from the CCDC's data processing and validation procedures.
#
#######################################################################

data_WETDII
_symmetry_cell_setting           orthorhombic
_symmetry_space_group_name_H-M   'P m c 21'
_symmetry_Int_Tables_number      26
_space_group_name_Hall           'P 2c -2'
loop_
_symmetry_equiv_pos_site_id
_symmetry_equiv_pos_as_xyz
1 x,y,z
2 -x,y,z
3 x,-y,1/2+z
4 -x,-y,1/2+z
_cell_length_a                   6.540(1)
_cell_length_b                   8.192(1)
_cell_length_c                   12.794(3)
_cell_angle_alpha                90
_cell_angle_beta                 90
_cell_angle_gamma                90
_cell_volume                     685.447
loop_
_atom_site_label
_atom_site_type_symbol
_atom_site_fract_x
_atom_site_fract_y
_atom_site_fract_z
Au1 Au 0.000 0.23468(15) 0.25000
Au2 Au 0.500 0.17336(17) 0.27519(15)
Cl1 Cl 0.000 -0.0426(10) 0.2416(9)
Cl2 Cl 0.500 0.3460(17) 0.1342(9)
S1 S 0.000 0.5128(11) 0.2476(7)
C1 C 0.199(4) 0.574(4) 0.336(3)
C2 C 0.098(11) 0.586(11) 0.439(4)
S2 S 0.500 -0.0077(13) 0.4084(7)
C3 C 0.297(4) 0.071(5) 0.497(2)
C4 C 0.401(9) 0.210(5) 0.560(4)
Au2_2 Au -0.500 0.17336(17) 0.27519(15)
Au1_2 Au 1.000 0.23468(15) 0.25000
C1A C -0.199(4) 0.574(4) 0.336(3)
C2A C -0.098(11) 0.586(11) 0.439(4)
C3A C 0.703(4) 0.071(5) 0.497(2)
C4A C 0.599(9) 0.210(5) 0.560(4)
loop_
_geom_bond_atom_site_label_1
_geom_bond_atom_site_label_2
_geom_bond_site_symmetry_1
_geom_bond_site_symmetry_2
Au1 Au2 1_555 1_555
Au2 Cl2 1_555 1_555
Cl1 Au1 1_555 1_555
S1 Au1 1_555 1_555
C1 S1 1_555 1_555
C2 C1 1_555 1_555
S2 Au2 1_555 1_555
C3 S2 1_555 1_555
C4 C3 1_555 1_555
Au2_2 Au1 1_555 1_555
Au1_2 Au2 1_555 1_555
C1A S1 1_555 1_555
C2A C2 1_555 1_555
C3A S2 1_555 1_555
C4A C4 1_555 1_555
C1A C2A 1_555 1_555
C3A C4A 1_555 1_555

#END
