
#######################################################################
#
#                 Cambridge Crystallographic Data Centre
#                                CCDC 
#
#######################################################################
#
# If this CIF has been generated from an entry in the Cambridge 
# Structural Database, then it will include bibliographic, chemical, 
# crystal, experimental, refinement or atomic coordinate data resulting 
# from the CCDC's data processing and validation procedures.
#
#######################################################################

data_WETJUB
_symmetry_cell_setting           triclinic
_symmetry_space_group_name_H-M   'P -1'
_symmetry_Int_Tables_number      2
_space_group_name_Hall           '-P 1'
loop_
_symmetry_equiv_pos_site_id
_symmetry_equiv_pos_as_xyz
1 x,y,z
2 -x,-y,-z
_cell_length_a                   9.1889(15)
_cell_length_b                   9.6352(16)
_cell_length_c                   11.697(2)
_cell_angle_alpha                76.106(3)
_cell_angle_beta                 72.734(3)
_cell_angle_gamma                68.376(3)
_cell_volume                     909.322
loop_
_atom_site_label
_atom_site_type_symbol
_atom_site_fract_x
_atom_site_fract_y
_atom_site_fract_z
O1 O 0.2802(3) 0.5799(3) 1.21546(18)
O2 O 0.4605(3) 0.2445(2) 0.92210(17)
O3 O -0.1595(2) 0.5049(2) 0.96581(15)
O4 O 0.0356(2) 0.33723(19) 0.87051(19)
O5 O 0.3092(5) 0.7993(3) 0.4452(3)
O6 O -0.0611(3) 1.1036(2) 0.7323(3)
O7 O 0.3730(2) 0.44517(18) 0.80077(16)
O8 O 0.0548(4) 0.3412(3) 0.5374(3)
O9 O 0.2084(3) 0.1519(3) 0.44461(19)
O10 O 0.7518(3) 0.2269(2) 1.0429(2)
O11 O -0.2018(3) 1.0074(3) 0.8927(3)
O12 O 0.3441(4) 0.5697(3) 0.4570(2)
N1 N 0.1747(3) 0.2317(2) 0.5221(2)
N2 N -0.0403(2) 0.4697(2) 0.88100(17)
N3 N 0.2795(3) 0.6861(3) 0.49699(19)
N4 N 0.4045(2) 0.3082(2) 0.83207(16)
N5 N -0.1014(3) 0.9966(2) 0.7959(3)
N6 N 0.2058(2) 0.4299(2) 0.64791(17)
C1 C 0.1339(2) 0.5580(2) 0.68692(17)
C2 C 0.0094(2) 0.5884(2) 0.79679(18)
C3 C 0.1624(2) 0.6942(2) 0.61423(18)
C4 C -0.0676(2) 0.7305(2) 0.8295(2)
H1 H -0.1466 0.7445 0.9009
C5 C 0.2789(2) 0.2878(2) 0.67548(17)
C6 C 0.0860(3) 0.8341(2) 0.6464(2)
H2 H 0.1088 0.9177 0.5958
C7 C 0.3779(2) 0.2177(2) 0.76286(17)
C8 C 0.4519(2) 0.0641(2) 0.78607(18)
H3 H 0.5097 0.0238 0.8461
C9 C 0.4391(2) -0.0292(2) 0.71924(18)
C10 C 0.3531(2) 0.0285(2) 0.62921(19)
H4 H 0.3491 -0.0352 0.5825
C11 C 0.2745(2) 0.1798(2) 0.61046(18)
N7 N 0.5109(2) -0.1903(2) 0.74517(18)
O13 O 0.5826(2) -0.24054(18) 0.82823(16)
O14 O 0.4959(3) -0.27098(19) 0.6861(2)
C12 C -0.0270(3) 0.8510(2) 0.7562(2)
Ba1 Ba 0.5000 0.5000 1.0000
H5 H 0.754(5) 0.160(5) 1.003(4)
H6 H 0.313(6) 0.537(6) 1.261(5)
H7 H 0.829(5) 0.242(5) 1.026(4)
H8 H 0.206(5) 0.650(5) 1.239(4)
O1A O 0.7198(3) 0.4201(3) 0.78454(18)
O2A O 0.5395(3) 0.7555(2) 1.07790(17)
O3A O 1.1595(2) 0.4951(2) 1.03419(15)
O3_2 O 0.8405(2) 0.5049(2) 0.96581(15)
O3A_2 O 0.1595(2) 0.4951(2) 1.03419(15)
O4A O 0.9644(2) 0.66277(19) 1.12949(19)
O5A O 0.6908(5) 0.2007(3) 1.5548(3)
O6A O 1.0611(3) -0.1036(2) 1.2677(3)
O7A O 0.6270(2) 0.55483(18) 1.19923(16)
O8A O 0.9452(4) 0.6588(3) 1.4626(3)
O9A O 0.7916(3) 0.8481(3) 1.55539(19)
O10A O 0.2482(3) 0.7731(2) 0.9571(2)
O11A O 1.2018(3) -0.0074(3) 1.1073(3)
O12A O 0.6559(4) 0.4303(3) 1.5430(2)
N1A N 0.8253(3) 0.7683(2) 1.4779(2)
N2A N 1.0403(2) 0.5303(2) 1.11900(17)
N3A N 0.7205(3) 0.3139(3) 1.50301(19)
N4A N 0.5955(2) 0.6918(2) 1.16793(16)
N5A N 1.1014(3) 0.0034(2) 1.2041(3)
N6A N 0.7942(2) 0.5701(2) 1.35209(17)
C1A C 0.8661(2) 0.4420(2) 1.31308(17)
C2A C 0.9906(2) 0.4116(2) 1.20321(18)
C3A C 0.8376(2) 0.3058(2) 1.38577(18)
C4A C 1.0676(2) 0.2695(2) 1.1705(2)
H1A H 1.1466 0.2555 1.0991
C5A C 0.7211(2) 0.7122(2) 1.32452(17)
C6A C 0.9140(3) 0.1659(2) 1.3536(2)
H2A H 0.8912 0.0823 1.4042
C7A C 0.6221(2) 0.7823(2) 1.23714(17)
C8A C 0.5481(2) 0.9359(2) 1.21393(18)
H3A H 0.4903 0.9762 1.1539
C9A C 0.5609(2) 1.0292(2) 1.28076(18)
C10A C 0.6469(2) 0.9715(2) 1.37079(19)
H4A H 0.6509 1.0352 1.4175
C11A C 0.7255(2) 0.8202(2) 1.38954(18)
N7A N 0.4891(2) 1.1903(2) 1.25483(18)
O13A O 0.4174(2) 1.24054(18) 1.17177(16)
O13_2 O 0.5826(2) 0.75946(18) 0.82823(16)
O13A_2 O 0.4174(2) 0.24054(18) 1.17177(16)
O14A O 0.5041(3) 1.27098(19) 1.3139(2)
C12A C 1.0270(3) 0.1490(2) 1.2438(2)
Ba1_2 Ba -0.5000 0.5000 1.0000
Ba1_3 Ba 0.5000 -0.5000 1.0000
Ba1_4 Ba 1.5000 0.5000 1.0000
Ba1_5 Ba 0.5000 1.5000 1.0000
H5A H 0.246(5) 0.840(5) 0.997(4)
H6A H 0.687(6) 0.463(6) 0.739(5)
H7A H 0.171(5) 0.758(5) 0.974(4)
H8A H 0.794(5) 0.350(5) 0.761(4)
loop_
_geom_bond_atom_site_label_1
_geom_bond_atom_site_label_2
_geom_bond_site_symmetry_1
_geom_bond_site_symmetry_2
O1 Ba1 1_555 1_555
O2 N4 1_555 1_555
O3 N2 1_555 1_555
O4 N2 1_555 1_555
O5 N3 1_555 1_555
O6 N5 1_555 1_555
O7 N4 1_555 1_555
O8 N1 1_555 1_555
O9 N1 1_555 1_555
O10 Ba1 1_555 1_555
O11 N5 1_555 1_555
O12 N3 1_555 1_555
N1 C11 1_555 1_555
N2 C2 1_555 1_555
N3 C3 1_555 1_555
N4 C7 1_555 1_555
N5 C12 1_555 1_555
N6 C1 1_555 1_555
C1 C2 1_555 1_555
C2 C4 1_555 1_555
C3 C1 1_555 1_555
C4 H1 1_555 1_555
C5 N6 1_555 1_555
C6 C3 1_555 1_555
H2 C6 1_555 1_555
C7 C5 1_555 1_555
C8 C7 1_555 1_555
H3 C8 1_555 1_555
C9 C8 1_555 1_555
C10 C9 1_555 1_555
H4 C10 1_555 1_555
C11 C5 1_555 1_555
N7 C9 1_555 1_555
O13 N7 1_555 1_555
O14 N7 1_555 1_555
C12 C4 1_555 1_555
Ba1 O2 1_555 1_555
H5 O10 1_555 1_555
H6 O1 1_555 1_555
H7 O10 1_555 1_555
H8 O1 1_555 1_555
O1A Ba1 1_555 1_555
O2A Ba1 1_555 1_555
O3A N2A 1_555 1_555
O3_2 Ba1 1_555 1_555
O3A_2 Ba1 1_555 1_555
O4A N2A 1_555 1_555
O5A N3A 1_555 1_555
O6A N5A 1_555 1_555
O7A Ba1 1_555 1_555
O8A N1A 1_555 1_555
O9A N1A 1_555 1_555
O10A Ba1 1_555 1_555
O11A N5A 1_555 1_555
O12A N3A 1_555 1_555
N1A C11A 1_555 1_555
N2A C2A 1_555 1_555
N3A C3A 1_555 1_555
N4A O2A 1_555 1_555
N5A C12A 1_555 1_555
N6A C1A 1_555 1_555
C1A C2A 1_555 1_555
C2A C4A 1_555 1_555
C3A C1A 1_555 1_555
C4A H1A 1_555 1_555
C5A N6A 1_555 1_555
C6A C3A 1_555 1_555
H2A C6A 1_555 1_555
C7A N4A 1_555 1_555
C8A C7A 1_555 1_555
H3A C8A 1_555 1_555
C9A C8A 1_555 1_555
C10A C9A 1_555 1_555
H4A C10A 1_555 1_555
C11A C5A 1_555 1_555
N7A C9A 1_555 1_555
O13A N7A 1_555 1_555
O13_2 Ba1 1_555 1_555
O13A_2 Ba1 1_555 1_555
O14A N7A 1_555 1_555
C12A C4A 1_555 1_555
Ba1_2 O3 1_555 1_555
Ba1_3 O13 1_555 1_555
Ba1_4 O3A 1_555 1_555
Ba1_5 O13A 1_555 1_555
H5A O10A 1_555 1_555
H6A O1A 1_555 1_555
H7A O10A 1_555 1_555
H8A O1A 1_555 1_555
O7 Ba1 1_555 1_555
C6 C12 1_555 1_555
C10 C11 1_555 1_555
O7A N4A 1_555 1_555
C5A C7A 1_555 1_555
C6A C12A 1_555 1_555
C10A C11A 1_555 1_555

#END
