
#######################################################################
#
#                 Cambridge Crystallographic Data Centre
#                                CCDC 
#
#######################################################################
#
# If this CIF has been generated from an entry in the Cambridge 
# Structural Database, then it will include bibliographic, chemical, 
# crystal, experimental, refinement or atomic coordinate data resulting 
# from the CCDC's data processing and validation procedures.
#
#######################################################################

data_WEVKUE
_symmetry_cell_setting           monoclinic
_symmetry_space_group_name_H-M   'P 21/a'
_symmetry_Int_Tables_number      14
_space_group_name_Hall           '-P 2yab'
loop_
_symmetry_equiv_pos_site_id
_symmetry_equiv_pos_as_xyz
1 x,y,z
2 1/2-x,1/2+y,-z
3 -x,-y,-z
4 1/2+x,1/2-y,z
_cell_length_a                   9.488(4)
_cell_length_b                   10.894(5)
_cell_length_c                   17.871(7)
_cell_angle_alpha                90
_cell_angle_beta                 96.03(2)
_cell_angle_gamma                90
_cell_volume                     1836.97
loop_
_atom_site_label
_atom_site_type_symbol
_atom_site_fract_x
_atom_site_fract_y
_atom_site_fract_z
Sn1 Sn 0.41588(2) 0.32914(2) 0.249318(13)
O1 O 0.2339(3) 0.1696(2) 0.25150(16)
O2 O 0.0699(2) 0.0237(2) 0.24681(14)
C1 C 0.1998(4) 0.0584(3) 0.24930(18)
C2 C 0.3100(3) -0.0428(3) 0.24994(19)
H1 H 0.4042 -0.0022 0.2487
C3 C 0.2826(4) -0.1204(3) 0.17720(19)
H2 H 0.1871 -0.1594 0.1768
C4 C 0.2818(4) -0.0401(3) 0.1067(2)
H3 H 0.2079 0.0239 0.1077
H4 H 0.3745 0.0016 0.1071
C5 C 0.2533(4) -0.1146(4) 0.0341(2)
H5 H 0.1563 -0.1489 0.0307
H6 H 0.2592 -0.0598 -0.0097
C6 C 0.3602(5) -0.2192(4) 0.0314(2)
H7 H 0.3343 -0.2701 -0.0138
H8 H 0.4558 -0.1847 0.0279
C7 C 0.3628(4) -0.2989(4) 0.1016(2)
H9 H 0.4367 -0.3628 0.1002
H10 H 0.2702 -0.3407 0.1020
C8 C 0.3929(4) -0.2232(3) 0.1736(2)
H11 H 0.4887 -0.1866 0.1753
H12 H 0.3912 -0.2775 0.2179
C9 C 0.3177(3) -0.1198(3) 0.32347(19)
H13 H 0.4071 -0.1689 0.3255
C10 C 0.1968(4) -0.2120(3) 0.3277(2)
H14 H 0.1057 -0.1675 0.3270
H15 H 0.1910 -0.2669 0.2833
C11 C 0.2218(4) -0.2887(4) 0.3997(2)
H16 H 0.1433 -0.3481 0.4015
H17 H 0.3111 -0.3356 0.3994
C12 C 0.2307(4) -0.2067(4) 0.4693(2)
H18 H 0.1389 -0.1644 0.4717
H19 H 0.2496 -0.2577 0.5151
C13 C 0.3480(4) -0.1116(4) 0.4671(2)
H20 H 0.4411 -0.1535 0.4721
H21 H 0.3460 -0.0548 0.5103
C14 C 0.3309(4) -0.0379(3) 0.3936(2)
H22 H 0.2454 0.0143 0.3928
H23 H 0.4138 0.0169 0.3921
C15 C 0.2467(4) 0.4579(4) 0.2477(3)
H24 H 0.2164 0.4819 0.1957
H25 H 0.2789 0.5306 0.2769
H26 H 0.1669 0.4203 0.2699
C16 C 0.4527(5) 0.2600(4) 0.1426(2)
H27 H 0.4004 0.3095 0.1032
H28 H 0.4206 0.1746 0.1381
H29 H 0.5543 0.2639 0.1371
C17 C 0.4938(5) 0.2677(4) 0.3579(2)
H30 H 0.4562 0.3199 0.3958
H31 H 0.5976 0.2720 0.3638
H32 H 0.4639 0.1826 0.3646
Sn1C Sn -0.08412(2) 0.17086(2) 0.249318(13)
O2C O 0.5699(2) 0.4763(2) 0.24681(14)
loop_
_geom_bond_atom_site_label_1
_geom_bond_atom_site_label_2
_geom_bond_site_symmetry_1
_geom_bond_site_symmetry_2
Sn1 O1 1_555 1_555
O1 C1 1_555 1_555
O2 C1 1_555 1_555
C1 C2 1_555 1_555
C2 H1 1_555 1_555
C3 C2 1_555 1_555
H2 C3 1_555 1_555
C4 C3 1_555 1_555
H3 C4 1_555 1_555
H4 C4 1_555 1_555
C5 C4 1_555 1_555
H5 C5 1_555 1_555
H6 C5 1_555 1_555
C6 C5 1_555 1_555
H7 C6 1_555 1_555
H8 C6 1_555 1_555
C7 C6 1_555 1_555
H9 C7 1_555 1_555
H10 C7 1_555 1_555
C8 C3 1_555 1_555
H11 C8 1_555 1_555
H12 C8 1_555 1_555
C9 C2 1_555 1_555
H13 C9 1_555 1_555
C10 C9 1_555 1_555
H14 C10 1_555 1_555
H15 C10 1_555 1_555
C11 C10 1_555 1_555
H16 C11 1_555 1_555
H17 C11 1_555 1_555
C12 C11 1_555 1_555
H18 C12 1_555 1_555
H19 C12 1_555 1_555
C13 C12 1_555 1_555
H20 C13 1_555 1_555
H21 C13 1_555 1_555
C14 C9 1_555 1_555
H22 C14 1_555 1_555
H23 C14 1_555 1_555
C15 Sn1 1_555 1_555
H24 C15 1_555 1_555
H25 C15 1_555 1_555
H26 C15 1_555 1_555
C16 Sn1 1_555 1_555
H27 C16 1_555 1_555
H28 C16 1_555 1_555
H29 C16 1_555 1_555
C17 Sn1 1_555 1_555
H30 C17 1_555 1_555
H31 C17 1_555 1_555
H32 C17 1_555 1_555
Sn1C O2 1_555 1_555
O2C Sn1 1_555 1_555
C7 C8 1_555 1_555
C13 C14 1_555 1_555

#END
