
#######################################################################
#
#                 Cambridge Crystallographic Data Centre
#                                CCDC 
#
#######################################################################
#
# If this CIF has been generated from an entry in the Cambridge 
# Structural Database, then it will include bibliographic, chemical, 
# crystal, experimental, refinement or atomic coordinate data resulting 
# from the CCDC's data processing and validation procedures.
#
#######################################################################

data_WEVLAK
_symmetry_cell_setting           triclinic
_symmetry_space_group_name_H-M   'P -1'
_symmetry_Int_Tables_number      2
_space_group_name_Hall           '-P 1'
loop_
_symmetry_equiv_pos_site_id
_symmetry_equiv_pos_as_xyz
1 x,y,z
2 -x,-y,-z
_cell_length_a                   5.288(1)
_cell_length_b                   9.675(2)
_cell_length_c                   9.925(2)
_cell_angle_alpha                110.38(2)
_cell_angle_beta                 100.48(2)
_cell_angle_gamma                92.37(2)
_cell_volume                     465.023
loop_
_atom_site_label
_atom_site_type_symbol
_atom_site_fract_x
_atom_site_fract_y
_atom_site_fract_z
Cu1 Cu 0.22585(6) 0.00555(4) 0.12777(5)
N1 N 0.36150(47) -0.14376(30) 0.20879(32)
N2 N 0.05704(47) 0.13574(28) 0.02837(32)
N3 N 0.07974(50) 0.26940(32) 0.07836(34)
N4 N 0.10625(75) 0.39475(40) 0.12312(49)
N5 N 0.54724(48) 0.14539(33) 0.20966(39)
N6 N 0.74944(46) 0.11653(29) 0.25986(30)
N7 N 0.95320(53) 0.09417(36) 0.30939(35)
C1 C 0.33595(72) -0.14693(41) 0.33834(42)
C2 C 0.45506(82) -0.24025(44) 0.39928(44)
C3 C 0.60971(63) -0.33840(36) 0.32718(41)
C4 C 0.62930(69) -0.33875(43) 0.19131(45)
C5 C 0.50411(67) -0.24174(42) 0.13422(45)
C6 C 0.74366(95) -0.44187(51) 0.39272(53)
H1 H 0.21617(72) -0.07116(41) 0.39852(42)
H2 H 0.42841(82) -0.23692(44) 0.50566(44)
H3 H 0.74376(69) -0.41589(43) 0.12809(45)
H4 H 0.52149(67) -0.24534(42) 0.02633(45)
H5 H 0.85363(95) -0.50958(51) 0.31807(45)
H6 H 0.60133(95) -0.51240(51) 0.41173(53)
H7 H 0.87253(95) -0.37735(51) 0.49575(53)
N2A N -0.05704(47) -0.13574(28) -0.02837(32)
N7_2 N -0.04680(53) 0.09417(36) 0.30939(35)
Cu1A Cu -0.22585(6) -0.00555(4) -0.12777(5)
Cu1_2 Cu 1.22585(6) 0.00555(4) 0.12777(5)
loop_
_geom_bond_atom_site_label_1
_geom_bond_atom_site_label_2
_geom_bond_site_symmetry_1
_geom_bond_site_symmetry_2
Cu1 N1 1_555 1_555
N1 C1 1_555 1_555
N2 Cu1 1_555 1_555
N3 N2 1_555 1_555
N4 N3 1_555 1_555
N5 Cu1 1_555 1_555
N6 N5 1_555 1_555
N7 N6 1_555 1_555
C1 C2 1_555 1_555
C2 C3 1_555 1_555
C3 C4 1_555 1_555
C4 C5 1_555 1_555
C5 N1 1_555 1_555
C6 C3 1_555 1_555
H1 C1 1_555 1_555
H2 C2 1_555 1_555
H3 C4 1_555 1_555
H4 C5 1_555 1_555
H5 C6 1_555 1_555
H6 C6 1_555 1_555
H7 C6 1_555 1_555
N2A Cu1 1_555 1_555
N7_2 Cu1 1_555 1_555
Cu1A N2 1_555 1_555
Cu1_2 N7 1_555 1_555
N2A Cu1A 1_555 1_555

#END
