
#######################################################################
#
#                 Cambridge Crystallographic Data Centre
#                                CCDC 
#
#######################################################################
#
# If this CIF has been generated from an entry in the Cambridge 
# Structural Database, then it will include bibliographic, chemical, 
# crystal, experimental, refinement or atomic coordinate data resulting 
# from the CCDC's data processing and validation procedures.
#
#######################################################################

data_WEVPAP
_symmetry_cell_setting           triclinic
_symmetry_space_group_name_H-M   'P -1'
_symmetry_Int_Tables_number      2
_space_group_name_Hall           '-P 1'
loop_
_symmetry_equiv_pos_site_id
_symmetry_equiv_pos_as_xyz
1 x,y,z
2 -x,-y,-z
_cell_length_a                   10.9891(11)
_cell_length_b                   11.4986(11)
_cell_length_c                   14.8928(15)
_cell_angle_alpha                82.308(2)
_cell_angle_beta                 83.418(2)
_cell_angle_gamma                66.000(2)
_cell_volume                     1699.91
loop_
_atom_site_label
_atom_site_type_symbol
_atom_site_fract_x
_atom_site_fract_y
_atom_site_fract_z
Mn1 Mn 1.0000 0.5000 1.0000
Mn2 Mn 0.53658(6) 0.59642(6) 0.89577(4)
O1 O 0.7154(3) 0.6198(3) 0.88344(18)
O2 O 0.9328(3) 0.5692(3) 0.86428(18)
Fe1 Fe 0.79051(6) 0.58642(6) 0.63538(4)
C1 C 0.8042(4) 0.6750(4) 0.7411(3)
C2 C 0.9105(4) 0.6643(4) 0.6726(3)
H1 H 1.0063 0.6199 0.6811
C3 C 0.8517(5) 0.7315(4) 0.5908(3)
H2 H 0.9004 0.7395 0.5325
C4 C 0.7115(5) 0.7813(4) 0.6067(3)
H3 H 0.6466 0.8297 0.5614
C5 C 0.6805(4) 0.7481(4) 0.6994(3)
H4 H 0.5908 0.7699 0.7292
C6 C 0.8187(5) 0.4031(4) 0.6832(3)
H5 H 0.8401 0.3636 0.7450
C7 C 0.9115(5) 0.4035(4) 0.6098(4)
H6 H 1.0089 0.3643 0.6118
C8 C 0.8402(5) 0.4704(5) 0.5332(3)
H7 H 0.8787 0.4855 0.4723
C9 C 0.7027(5) 0.5103(5) 0.5603(3)
H8 H 0.6290 0.5590 0.5212
C10 C 0.6897(5) 0.4688(4) 0.6519(3)
H9 H 0.6055 0.4833 0.6883
C11 C 0.8183(4) 0.6172(4) 0.8355(3)
O3 O 0.6180(3) 0.4056(3) 0.85991(19)
O4 O 0.4744(3) 0.3806(3) 0.96866(18)
Fe2 Fe 0.46868(7) 0.21055(6) 0.76441(4)
C12 C 0.5694(4) 0.2224(4) 0.8675(3)
C13 C 0.4924(5) 0.1491(4) 0.8992(3)
H10 H 0.4210 0.1696 0.9478
C14 C 0.5337(6) 0.0442(5) 0.8478(4)
H11 H 0.4971 -0.0215 0.8547
C15 C 0.6363(6) 0.0496(5) 0.7856(4)
H12 H 0.6837 -0.0119 0.7410
C16 C 0.6598(4) 0.1593(4) 0.7956(3)
H13 H 0.7268 0.1860 0.7606
C17 C 0.3534(6) 0.3910(5) 0.7138(4)
H14 H 0.3450 0.4700 0.7370
C18 C 0.2719(6) 0.3237(7) 0.7424(4)
H15 H 0.1967 0.3468 0.7882
C19 C 0.3188(6) 0.2166(6) 0.6908(4)
H16 H 0.2820 0.1512 0.6957
C20 C 0.4268(7) 0.2189(7) 0.6335(4)
H17 H 0.4782 0.1565 0.5903
C21 C 0.4477(7) 0.3278(6) 0.6467(4)
H18 H 0.5160 0.3549 0.6143
C22 C 0.5537(4) 0.3428(4) 0.9005(2)
O5 O 0.8029(3) 0.5279(4) 1.0666(2)
H19 H 0.778(5) 0.480(4) 1.095(3)
H20 H 0.744(4) 0.574(5) 1.040(4)
N1 N 0.9756(3) 0.6996(3) 1.0187(2)
C23 C 0.8826(4) 0.8052(4) 0.9817(4)
H21 H 0.8101 0.7982 0.9600
C24 C 0.8862(4) 0.9245(4) 0.9734(4)
H22 H 0.8180 0.9952 0.9469
C25 C 0.9939(4) 0.9370(3) 1.0055(3)
C26 C 1.0884(5) 0.8293(4) 1.0441(3)
H23 H 1.1620 0.8333 1.0666
C27 C 1.0757(5) 0.7139(4) 1.0501(3)
H24 H 1.1414 0.6422 1.0778
O6 O 0.4028(3) 0.7858(3) 0.8429(2)
O7 O 0.3321(3) 0.6327(3) 0.8512(2)
Fe3 Fe 0.17992(6) 0.87763(6) 0.65468(5)
C28 C 0.1887(4) 0.8393(4) 0.7915(3)
C29 C 0.1532(5) 0.9726(4) 0.7662(3)
H25 H 0.2029 1.0225 0.7779
C30 C 0.0336(5) 1.0195(5) 0.7215(4)
H26 H -0.0135 1.1079 0.6958
C31 C -0.0059(5) 0.9184(6) 0.7186(4)
H27 H -0.0850 0.9242 0.6908
C32 C 0.0878(4) 0.8072(5) 0.7624(3)
H28 H 0.0853 0.7222 0.7703
C33 C 0.3653(5) 0.7802(6) 0.6002(4)
H29 H 0.4446 0.7299 0.6340
C34 C 0.3216(7) 0.9108(7) 0.5693(5)
H30 H 0.3648 0.9683 0.5767
C35 C 0.2066(7) 0.9415(7) 0.5227(4)
H31 H 0.1533 1.0257 0.4930
C36 C 0.1817(6) 0.8319(7) 0.5257(4)
H32 H 0.1073 0.8256 0.4991
C37 C 0.2785(6) 0.7345(6) 0.5725(4)
H33 H 0.2849 0.6464 0.5850
C38 C 0.3133(4) 0.7486(4) 0.8307(3)
Mn1_2 Mn 1.0000 1.5000 1.0000
Mn2A Mn 1.46342(6) 0.40358(6) 1.10423(4)
Mn2A_2 Mn 0.46342(6) 0.40358(6) 1.10423(4)
O1A O 1.2846(3) 0.3802(3) 1.11656(18)
O2A O 1.0672(3) 0.4308(3) 1.13572(18)
Fe1A Fe 1.20949(6) 0.41358(6) 1.36462(4)
C1A C 1.1958(4) 0.3250(4) 1.2589(3)
C2A C 1.0895(4) 0.3357(4) 1.3274(3)
H1A H 0.9937 0.3801 1.3189
C3A C 1.1483(5) 0.2685(4) 1.4092(3)
H2A H 1.0996 0.2605 1.4675
C4A C 1.2885(5) 0.2187(4) 1.3933(3)
H3A H 1.3534 0.1703 1.4386
C5A C 1.3195(4) 0.2519(4) 1.3006(3)
H4A H 1.4092 0.2301 1.2708
C6A C 1.1813(5) 0.5969(4) 1.3168(3)
H5A H 1.1599 0.6364 1.2550
C7A C 1.0885(5) 0.5965(4) 1.3902(4)
H6A H 0.9911 0.6357 1.3882
C8A C 1.1598(5) 0.5296(5) 1.4668(3)
H7A H 1.1213 0.5145 1.5277
C9A C 1.2973(5) 0.4897(5) 1.4397(3)
H8A H 1.3710 0.4410 1.4788
C10A C 1.3103(5) 0.5312(4) 1.3481(3)
H9A H 1.3945 0.5167 1.3117
C11A C 1.1817(4) 0.3828(4) 1.1645(3)
O3A O 0.3820(3) 0.5944(3) 1.14009(19)
O3A_2 O 1.3820(3) 0.5944(3) 1.14009(19)
O4A O 0.5256(3) 0.6194(3) 1.03134(18)
O4_2 O 1.4744(3) 0.3806(3) 0.96866(18)
Fe2A Fe 0.53132(7) 0.78945(6) 1.23559(4)
C12A C 0.4306(4) 0.7776(4) 1.1325(3)
C13A C 0.5076(5) 0.8509(4) 1.1008(3)
H10A H 0.5790 0.8304 1.0522
C14A C 0.4663(6) 0.9558(5) 1.1522(4)
H11A H 0.5029 1.0215 1.1453
C15A C 0.3637(6) 0.9504(5) 1.2144(4)
H12A H 0.3163 1.0119 1.2590
C16A C 0.3402(4) 0.8407(4) 1.2044(3)
H13A H 0.2732 0.8140 1.2394
C17A C 0.6466(6) 0.6090(5) 1.2862(4)
H14A H 0.6550 0.5300 1.2630
C18A C 0.7281(6) 0.6763(7) 1.2576(4)
H15A H 0.8033 0.6532 1.2118
C19A C 0.6812(6) 0.7834(6) 1.3092(4)
H16A H 0.7180 0.8488 1.3043
C20A C 0.5732(7) 0.7811(7) 1.3665(4)
H17A H 0.5218 0.8435 1.4097
C21A C 0.5523(7) 0.6722(6) 1.3533(4)
H18A H 0.4840 0.6451 1.3857
C22A C 0.4463(4) 0.6572(4) 1.0995(2)
O5A O 1.1971(3) 0.4721(4) 0.9334(2)
H19A H 1.222(5) 0.520(4) 0.905(3)
H20A H 1.256(4) 0.426(5) 0.960(4)
N1A N 1.0244(3) 1.3004(3) 0.9813(2)
N1A_2 N 1.0244(3) 0.3004(3) 0.9813(2)
C23A C 1.1174(4) 1.1948(4) 1.0183(4)
H21A H 1.1899 1.2018 1.0400
C24A C 1.1138(4) 1.0755(4) 1.0266(4)
H22A H 1.1820 1.0048 1.0531
C25A C 1.0061(4) 1.0630(3) 0.9945(3)
C26A C 0.9116(5) 1.1707(4) 0.9559(3)
H23A H 0.8380 1.1667 0.9334
C27A C 0.9243(5) 1.2861(4) 0.9499(3)
H24A H 0.8586 1.3578 0.9222
O6A O 1.5972(3) 0.2142(3) 1.1571(2)
O7A O 1.6679(3) 0.3673(3) 1.1488(2)
Fe3A Fe 1.82008(6) 0.12237(6) 1.34532(5)
C28A C 1.8113(4) 0.1607(4) 1.2085(3)
C29A C 1.8468(5) 0.0274(4) 1.2338(3)
H25A H 1.7971 -0.0225 1.2221
C30A C 1.9664(5) -0.0195(5) 1.2785(4)
H26A H 2.0135 -0.1079 1.3042
C31A C 2.0059(5) 0.0816(6) 1.2814(4)
H27A H 2.0850 0.0758 1.3092
C32A C 1.9122(4) 0.1928(5) 1.2376(3)
H28A H 1.9147 0.2778 1.2297
C33A C 1.6347(5) 0.2198(6) 1.3998(4)
H29A H 1.5554 0.2701 1.3660
C34A C 1.6784(7) 0.0892(7) 1.4307(5)
H30A H 1.6352 0.0317 1.4233
C35A C 1.7934(7) 0.0585(7) 1.4773(4)
H31A H 1.8467 -0.0257 1.5070
C36A C 1.8183(6) 0.1681(7) 1.4743(4)
H32A H 1.8927 0.1744 1.5009
C37A C 1.7215(6) 0.2655(6) 1.4275(4)
H33A H 1.7151 0.3536 1.4150
C38A C 1.6867(4) 0.2514(4) 1.1693(3)
loop_
_geom_bond_atom_site_label_1
_geom_bond_atom_site_label_2
_geom_bond_site_symmetry_1
_geom_bond_site_symmetry_2
Mn1 O2 1_555 1_555
Mn2 O1 1_555 1_555
O1 C11 1_555 1_555
O2 C11 1_555 1_555
Fe1 C1 1_555 1_555
C1 C2 1_555 1_555
C2 Fe1 1_555 1_555
H1 C2 1_555 1_555
C3 Fe1 1_555 1_555
H2 C3 1_555 1_555
C4 Fe1 1_555 1_555
H3 C4 1_555 1_555
C5 Fe1 1_555 1_555
H4 C5 1_555 1_555
C6 Fe1 1_555 1_555
H5 C6 1_555 1_555
C7 Fe1 1_555 1_555
H6 C7 1_555 1_555
C8 Fe1 1_555 1_555
H7 C8 1_555 1_555
C9 Fe1 1_555 1_555
H8 C9 1_555 1_555
C10 Fe1 1_555 1_555
H9 C10 1_555 1_555
C11 C1 1_555 1_555
O3 Mn2 1_555 1_555
O4 C22 1_555 1_555
Fe2 C12 1_555 1_555
C12 C13 1_555 1_555
C13 Fe2 1_555 1_555
H10 C13 1_555 1_555
C14 Fe2 1_555 1_555
H11 C14 1_555 1_555
C15 Fe2 1_555 1_555
H12 C15 1_555 1_555
C16 Fe2 1_555 1_555
H13 C16 1_555 1_555
C17 Fe2 1_555 1_555
H14 C17 1_555 1_555
C18 Fe2 1_555 1_555
H15 C18 1_555 1_555
C19 Fe2 1_555 1_555
H16 C19 1_555 1_555
C20 Fe2 1_555 1_555
H17 C20 1_555 1_555
C21 Fe2 1_555 1_555
H18 C21 1_555 1_555
C22 O3 1_555 1_555
O5 Mn1 1_555 1_555
H19 O5 1_555 1_555
H20 O5 1_555 1_555
N1 Mn1 1_555 1_555
C23 N1 1_555 1_555
H21 C23 1_555 1_555
C24 C23 1_555 1_555
H22 C24 1_555 1_555
C25 C24 1_555 1_555
C26 C25 1_555 1_555
H23 C26 1_555 1_555
C27 N1 1_555 1_555
H24 C27 1_555 1_555
O6 Mn2 1_555 1_555
O7 Mn2 1_555 1_555
Fe3 C28 1_555 1_555
C28 C29 1_555 1_555
C29 Fe3 1_555 1_555
H25 C29 1_555 1_555
C30 Fe3 1_555 1_555
H26 C30 1_555 1_555
C31 Fe3 1_555 1_555
H27 C31 1_555 1_555
C32 Fe3 1_555 1_555
H28 C32 1_555 1_555
C33 Fe3 1_555 1_555
H29 C33 1_555 1_555
C34 Fe3 1_555 1_555
H30 C34 1_555 1_555
C35 Fe3 1_555 1_555
H31 C35 1_555 1_555
C36 Fe3 1_555 1_555
H32 C36 1_555 1_555
C37 Fe3 1_555 1_555
H33 C37 1_555 1_555
C38 O6 1_555 1_555
Mn1_2 N1A 1_555 1_555
Mn2A O1A 1_555 1_555
Mn2A_2 O4 1_555 1_555
O1A C11A 1_555 1_555
O2A Mn1 1_555 1_555
Fe1A C1A 1_555 1_555
C1A C2A 1_555 1_555
C2A Fe1A 1_555 1_555
H1A C2A 1_555 1_555
C3A Fe1A 1_555 1_555
H2A C3A 1_555 1_555
C4A Fe1A 1_555 1_555
H3A C4A 1_555 1_555
C5A Fe1A 1_555 1_555
H4A C5A 1_555 1_555
C6A Fe1A 1_555 1_555
H5A C6A 1_555 1_555
C7A Fe1A 1_555 1_555
H6A C7A 1_555 1_555
C8A Fe1A 1_555 1_555
H7A C8A 1_555 1_555
C9A Fe1A 1_555 1_555
H8A C9A 1_555 1_555
C10A Fe1A 1_555 1_555
H9A C10A 1_555 1_555
C11A O2A 1_555 1_555
O3A Mn2A_2 1_555 1_555
O3A_2 Mn2A 1_555 1_555
O4A Mn2 1_555 1_555
O4_2 Mn2A 1_555 1_555
Fe2A C12A 1_555 1_555
C12A C13A 1_555 1_555
C13A Fe2A 1_555 1_555
H10A C13A 1_555 1_555
C14A Fe2A 1_555 1_555
H11A C14A 1_555 1_555
C15A Fe2A 1_555 1_555
H12A C15A 1_555 1_555
C16A Fe2A 1_555 1_555
H13A C16A 1_555 1_555
C17A Fe2A 1_555 1_555
H14A C17A 1_555 1_555
C18A Fe2A 1_555 1_555
H15A C18A 1_555 1_555
C19A Fe2A 1_555 1_555
H16A C19A 1_555 1_555
C20A Fe2A 1_555 1_555
H17A C20A 1_555 1_555
C21A Fe2A 1_555 1_555
H18A C21A 1_555 1_555
C22A O3A 1_555 1_555
O5A Mn1 1_555 1_555
H19A O5A 1_555 1_555
H20A O5A 1_555 1_555
N1A C23A 1_555 1_555
N1A_2 Mn1 1_555 1_555
C23A H21A 1_555 1_555
C24A C23A 1_555 1_555
H22A C24A 1_555 1_555
C25A C25 1_555 1_555
C26A C25A 1_555 1_555
H23A C26A 1_555 1_555
C27A N1A 1_555 1_555
H24A C27A 1_555 1_555
O6A Mn2A 1_555 1_555
O7A Mn2A 1_555 1_555
Fe3A C28A 1_555 1_555
C28A C29A 1_555 1_555
C29A Fe3A 1_555 1_555
H25A C29A 1_555 1_555
C30A Fe3A 1_555 1_555
H26A C30A 1_555 1_555
C31A Fe3A 1_555 1_555
H27A C31A 1_555 1_555
C32A Fe3A 1_555 1_555
H28A C32A 1_555 1_555
C33A Fe3A 1_555 1_555
H29A C33A 1_555 1_555
C34A Fe3A 1_555 1_555
H30A C34A 1_555 1_555
C35A Fe3A 1_555 1_555
H31A C35A 1_555 1_555
C36A Fe3A 1_555 1_555
H32A C36A 1_555 1_555
C37A Fe3A 1_555 1_555
H33A C37A 1_555 1_555
C38A O6A 1_555 1_555
C1 C5 1_555 1_555
C2 C3 1_555 1_555
C3 C4 1_555 1_555
C4 C5 1_555 1_555
C6 C7 1_555 1_555
C6 C10 1_555 1_555
C7 C8 1_555 1_555
C8 C9 1_555 1_555
C9 C10 1_555 1_555
C12 C16 1_555 1_555
C12 C22 1_555 1_555
C13 C14 1_555 1_555
C14 C15 1_555 1_555
C15 C16 1_555 1_555
C17 C18 1_555 1_555
C17 C21 1_555 1_555
C18 C19 1_555 1_555
C19 C20 1_555 1_555
C20 C21 1_555 1_555
C26 C27 1_555 1_555
O7 C38 1_555 1_555
C28 C32 1_555 1_555
C28 C38 1_555 1_555
C29 C30 1_555 1_555
C30 C31 1_555 1_555
C31 C32 1_555 1_555
C33 C34 1_555 1_555
C33 C37 1_555 1_555
C34 C35 1_555 1_555
C35 C36 1_555 1_555
C36 C37 1_555 1_555
C1A C5A 1_555 1_555
C1A C11A 1_555 1_555
C2A C3A 1_555 1_555
C3A C4A 1_555 1_555
C4A C5A 1_555 1_555
C6A C7A 1_555 1_555
C6A C10A 1_555 1_555
C7A C8A 1_555 1_555
C8A C9A 1_555 1_555
C9A C10A 1_555 1_555
O4A C22A 1_555 1_555
C12A C16A 1_555 1_555
C12A C22A 1_555 1_555
C13A C14A 1_555 1_555
C14A C15A 1_555 1_555
C15A C16A 1_555 1_555
C17A C18A 1_555 1_555
C17A C21A 1_555 1_555
C18A C19A 1_555 1_555
C19A C20A 1_555 1_555
C20A C21A 1_555 1_555
C24A C25A 1_555 1_555
C26A C27A 1_555 1_555
O7A C38A 1_555 1_555
C28A C32A 1_555 1_555
C28A C38A 1_555 1_555
C29A C30A 1_555 1_555
C30A C31A 1_555 1_555
C31A C32A 1_555 1_555
C33A C34A 1_555 1_555
C33A C37A 1_555 1_555
C34A C35A 1_555 1_555
C35A C36A 1_555 1_555
C36A C37A 1_555 1_555

#END
