
#######################################################################
#
#                 Cambridge Crystallographic Data Centre
#                                CCDC 
#
#######################################################################
#
# If this CIF has been generated from an entry in the Cambridge 
# Structural Database, then it will include bibliographic, chemical, 
# crystal, experimental, refinement or atomic coordinate data resulting 
# from the CCDC's data processing and validation procedures.
#
#######################################################################

data_WEVQEU
_symmetry_cell_setting           monoclinic
_symmetry_space_group_name_H-M   'P 21/n'
_symmetry_Int_Tables_number      14
_space_group_name_Hall           '-P 2yn'
loop_
_symmetry_equiv_pos_site_id
_symmetry_equiv_pos_as_xyz
1 x,y,z
2 1/2-x,1/2+y,1/2-z
3 -x,-y,-z
4 1/2+x,1/2-y,1/2+z
_cell_length_a                   12.823(3)
_cell_length_b                   8.2800(17)
_cell_length_c                   16.776(3)
_cell_angle_alpha                90
_cell_angle_beta                 101.53(3)
_cell_angle_gamma                90
_cell_volume                     1745.24
loop_
_atom_site_label
_atom_site_type_symbol
_atom_site_fract_x
_atom_site_fract_y
_atom_site_fract_z
Cu1 Cu 0.34039(6) 0.77279(11) 0.65020(5)
Cu2 Cu 1.19686(6) 0.76237(13) 0.87936(5)
N1 N 0.1932(3) 0.7471(7) 0.6048(3)
N2 N 0.4955(4) 0.7642(7) 0.6881(3)
N3 N 1.0504(4) 0.7645(7) 0.8352(3)
O1 O 0.3285(3) 0.9247(6) 0.5545(2)
O2 O 0.2102(3) 1.0078(5) 0.4450(3)
O3 O -0.1606(3) 0.7382(7) 0.4273(2)
O4 O -0.1828(3) 0.5813(6) 0.5322(3)
O5 O 0.1610(4) 0.4703(6) 0.7544(3)
O6 O 0.3024(3) 0.6023(6) 0.7259(3)
C1 C 0.1528(5) 0.8274(8) 0.5364(4)
C2 C 0.0471(5) 0.8050(8) 0.5000(4)
H1 H 0.0179 0.8599 0.4524
C3 C -0.0146(5) 0.7006(9) 0.5349(4)
C4 C 0.0314(5) 0.6200(8) 0.6062(4)
H2 H -0.0090 0.5502 0.6312
C5 C 0.1380(5) 0.6450(8) 0.6396(4)
C6 C 0.2363(5) 0.9301(8) 0.5081(4)
C7 C -0.1304(5) 0.6712(9) 0.4960(4)
C8 C 0.2041(5) 0.5618(8) 0.7146(4)
C9 C 0.5626(5) 0.7573(9) 0.6365(4)
H3 H 0.5344 0.7569 0.5809
C10 C 0.6721(5) 0.7508(9) 0.6618(4)
H4 H 0.7163 0.7396 0.6245
C11 C 0.7139(5) 0.7614(9) 0.7445(4)
C12 C 0.6439(5) 0.7714(8) 0.7980(4)
H5 H 0.6696 0.7790 0.8538
C13 C 0.5363(5) 0.7699(8) 0.7671(4)
H6 H 0.4900 0.7729 0.8033
C14 C 0.8315(4) 0.7619(8) 0.7750(4)
C15 C 0.8993(5) 0.8451(8) 0.7359(4)
H7 H 0.8732 0.9008 0.6879
C16 C 1.0066(5) 0.8444(9) 0.7691(4)
H8 H 1.0512 0.9045 0.7430
C17 C 0.9835(5) 0.6806(9) 0.8730(4)
H9 H 1.0123 0.6225 0.9196
C18 C 0.8764(5) 0.6772(8) 0.8459(4)
H10 H 0.8332 0.6192 0.8741
Cu1A Cu 0.15961(6) 0.27279(11) 0.84980(5)
Cu2C Cu -0.30314(6) 0.73763(13) 0.37936(5)
O3C O 1.3394(3) 0.7618(7) 0.9273(2)
O5A O 0.3390(4) 0.9703(6) 0.7456(3)
O7 O 0.3857(5) 0.5501(8) 0.5152(4)
H11 H 0.3701 0.6454 0.5275
H12 H 0.3192 0.5324 0.5020
loop_
_geom_bond_atom_site_label_1
_geom_bond_atom_site_label_2
_geom_bond_site_symmetry_1
_geom_bond_site_symmetry_2
Cu1 N1 1_555 1_555
Cu2 N3 1_555 1_555
N1 C1 1_555 1_555
N2 Cu1 1_555 1_555
N3 C16 1_555 1_555
O1 Cu1 1_555 1_555
O2 C6 1_555 1_555
O3 C7 1_555 1_555
O4 C7 1_555 1_555
O5 C8 1_555 1_555
O6 Cu1 1_555 1_555
C1 C2 1_555 1_555
C2 H1 1_555 1_555
C3 C2 1_555 1_555
C4 C3 1_555 1_555
H2 C4 1_555 1_555
C5 N1 1_555 1_555
C6 O1 1_555 1_555
C7 C3 1_555 1_555
C8 O6 1_555 1_555
C9 N2 1_555 1_555
H3 C9 1_555 1_555
C10 C9 1_555 1_555
H4 C10 1_555 1_555
C11 C10 1_555 1_555
C12 C11 1_555 1_555
H5 C12 1_555 1_555
C13 N2 1_555 1_555
H6 C13 1_555 1_555
C14 C11 1_555 1_555
C15 C14 1_555 1_555
H7 C15 1_555 1_555
C16 C15 1_555 1_555
H8 C16 1_555 1_555
C17 N3 1_555 1_555
H9 C17 1_555 1_555
C18 C14 1_555 1_555
H10 C18 1_555 1_555
O7 H11 1_555 1_555
H12 O7 1_555 1_555
Cu1A O5 1_555 1_555
Cu2C O3 1_555 1_555
O3C Cu2 1_555 1_555
O5A Cu1 1_555 1_555
C1 C6 1_555 1_555
C4 C5 1_555 1_555
C5 C8 1_555 1_555
C12 C13 1_555 1_555
C17 C18 1_555 1_555

#END
