
#######################################################################
#
#                 Cambridge Crystallographic Data Centre
#                                CCDC 
#
#######################################################################
#
# If this CIF has been generated from an entry in the Cambridge 
# Structural Database, then it will include bibliographic, chemical, 
# crystal, experimental, refinement or atomic coordinate data resulting 
# from the CCDC's data processing and validation procedures.
#
#######################################################################

data_WEWMAO
_symmetry_cell_setting           triclinic
_symmetry_space_group_name_H-M   'P -1'
_symmetry_Int_Tables_number      2
_space_group_name_Hall           '-P 1'
loop_
_symmetry_equiv_pos_site_id
_symmetry_equiv_pos_as_xyz
1 x,y,z
2 -x,-y,-z
_cell_length_a                   9.1915(9)
_cell_length_b                   10.9652(10)
_cell_length_c                   10.9987(8)
_cell_angle_alpha                118.544(6)
_cell_angle_beta                 91.019(5)
_cell_angle_gamma                105.361(3)
_cell_volume                     925.257
loop_
_atom_site_label
_atom_site_type_symbol
_atom_site_fract_x
_atom_site_fract_y
_atom_site_fract_z
Ni1 Ni 0.54025(5) 0.61133(5) -0.05674(5)
C1 C 0.8069(4) 0.8990(4) 0.0604(4)
H1 H 0.8697 0.8419 0.0178
C2 C 0.8733(5) 1.0500(5) 0.1417(5)
H2 H 0.9784 1.0921 0.1530
C3 C 0.7835(5) 1.1352(4) 0.2042(5)
H3 H 0.8268 1.2361 0.2584
C4 C 0.6250(4) 1.0708(4) 0.1868(4)
C5 C 0.5684(4) 0.9186(4) 0.1031(4)
C6 C 0.4086(4) 0.8442(4) 0.0829(4)
C7 C 0.3108(4) 0.9248(4) 0.1513(4)
C8 C 0.3725(5) 1.0804(4) 0.2354(4)
H4 H 0.3078 1.1345 0.2797
C9 C 0.5213(5) 1.1496(4) 0.2516(4)
H5 H 0.5577 1.2509 0.3061
C10 C 0.1571(4) 0.8452(4) 0.1336(4)
H6 H 0.0885 0.8932 0.1798
C11 C 0.1088(4) 0.6971(4) 0.0483(4)
H7 H 0.0065 0.6440 0.0338
C12 C 0.2142(4) 0.6257(4) -0.0170(4)
H8 H 0.1797 0.5248 -0.0751
C13 C 0.6863(4) 0.7062(4) 0.2303(4)
C14 C 0.6392(4) 0.8299(4) 0.3423(3)
C15 C 0.4879(4) 0.8155(4) 0.3517(4)
H9 H 0.4138 0.7276 0.2898
C16 C 0.4424(4) 0.9329(3) 0.4545(3)
C17 C 0.7525(4) 0.9625(4) 0.4354(4)
H10 H 0.8552 0.9709 0.4300
C18 C 0.7132(4) 1.0791(4) 0.5337(4)
H11 H 0.7891 1.1667 0.5930
C19 C 0.7550(4) 0.5656(4) -0.4643(4)
H12 H 0.6670 0.5901 -0.4711
C20 C 0.7880(4) 0.5368(4) -0.3571(3)
C21 C 0.9141(4) 0.4955(4) -0.3495(3)
H13 H 0.9335 0.4749 -0.2791
C22 C 1.0159(4) 0.4835(4) -0.4471(3)
C23 C 1.1481(4) 0.4425(4) -0.4414(4)
H14 H 1.1694 0.4206 -0.3725
C24 C 0.6877(4) 0.5570(4) -0.2465(4)
N1 N 0.3612(3) 0.6961(3) 0.0006(3)
N2 N 0.6586(3) 0.8337(3) 0.0413(3)
O1 O 0.5611(3) 0.5770(3) -0.2618(2)
O2 O 0.7342(3) 0.5571(3) -0.1374(2)
O3 O 0.5783(3) 0.6041(2) 0.1258(2)
O4 O 0.8200(3) 0.7092(3) 0.2398(3)
C13A C 0.3137(4) 1.2938(4) 0.7697(4)
C14A C 0.3608(4) 1.1701(4) 0.6577(3)
C15A C 0.5121(4) 1.1845(4) 0.6483(4)
H9A H 0.5862 1.2724 0.7102
C16A C 0.5576(4) 1.0671(3) 0.5455(3)
C17A C 0.2475(4) 1.0375(4) 0.5646(4)
H10A H 0.1448 1.0291 0.5700
C18A C 0.2868(4) 0.9209(4) 0.4663(4)
H11A H 0.2109 0.8333 0.4070
O3A O 0.4217(3) 1.3959(2) 0.8742(2)
O4A O 0.1800(3) 1.2908(3) 0.7602(3)
C19A C 1.2450(4) 0.4344(4) -0.5357(4)
H12A H 1.3330 0.4099 -0.5289
C20A C 1.2120(4) 0.4632(4) -0.6429(3)
C21A C 1.0859(4) 0.5045(4) -0.6505(3)
H13A H 1.0665 0.5251 -0.7209
C22A C 0.9841(4) 0.5165(4) -0.5529(3)
C23A C 0.8519(4) 0.5575(4) -0.5586(4)
H14A H 0.8306 0.5794 -0.6275
C24A C 1.3123(4) 0.4430(4) -0.7535(4)
O1A O 1.4389(3) 0.4230(3) -0.7382(2)
O2A O 1.2658(3) 0.4429(3) -0.8626(2)
Ni1A Ni 0.45975(5) 0.38867(5) 0.05674(5)
C1A C 0.1931(4) 0.1010(4) -0.0604(4)
H1A H 0.1303 0.1581 -0.0178
C2A C 0.1267(5) -0.0500(5) -0.1417(5)
H2A H 0.0216 -0.0921 -0.1530
C3A C 0.2165(5) -0.1352(4) -0.2042(5)
H3A H 0.1732 -0.2361 -0.2584
C4A C 0.3750(4) -0.0708(4) -0.1868(4)
C5A C 0.4316(4) 0.0814(4) -0.1031(4)
C6A C 0.5914(4) 0.1558(4) -0.0829(4)
C7A C 0.6892(4) 0.0752(4) -0.1513(4)
C8A C 0.6275(5) -0.0804(4) -0.2354(4)
H4A H 0.6922 -0.1345 -0.2797
C9A C 0.4787(5) -0.1496(4) -0.2516(4)
H5A H 0.4423 -0.2509 -0.3061
C10A C 0.8429(4) 0.1548(4) -0.1336(4)
H6A H 0.9115 0.1068 -0.1798
C11A C 0.8912(4) 0.3029(4) -0.0483(4)
H7A H 0.9935 0.3560 -0.0338
C12A C 0.7858(4) 0.3743(4) 0.0170(4)
H8A H 0.8203 0.4752 0.0751
N1A N 0.6388(3) 0.3039(3) -0.0006(3)
N2A N 0.3414(3) 0.1663(3) -0.0413(3)
Ni1_2 Ni 0.54025(5) 1.61133(5) 0.94326(5)
Ni1A_2 Ni 0.45975(5) 1.38867(5) 1.05674(5)
Ni1A_3 Ni 1.45975(5) 0.38867(5) -0.94326(5)
O1A_2 O 0.4389(3) 0.4230(3) 0.2618(2)
O2A_2 O 0.2658(3) 0.4429(3) 0.1374(2)
O3A_2 O 0.4217(3) 0.3959(2) -0.1258(2)
loop_
_geom_bond_atom_site_label_1
_geom_bond_atom_site_label_2
_geom_bond_site_symmetry_1
_geom_bond_site_symmetry_2
Ni1 N1 1_555 1_555
C1 H1 1_555 1_555
C2 C1 1_555 1_555
H2 C2 1_555 1_555
C3 C2 1_555 1_555
H3 C3 1_555 1_555
C4 C3 1_555 1_555
C5 C4 1_555 1_555
C6 C5 1_555 1_555
C7 C6 1_555 1_555
C8 C7 1_555 1_555
H4 C8 1_555 1_555
C9 C4 1_555 1_555
H5 C9 1_555 1_555
C10 C7 1_555 1_555
H6 C10 1_555 1_555
C11 C10 1_555 1_555
H7 C11 1_555 1_555
C12 C11 1_555 1_555
H8 C12 1_555 1_555
C13 C14 1_555 1_555
C14 C15 1_555 1_555
C15 H9 1_555 1_555
C16 C15 1_555 1_555
C17 C14 1_555 1_555
H10 C17 1_555 1_555
C18 C17 1_555 1_555
H11 C18 1_555 1_555
C19 H12 1_555 1_555
C20 C19 1_555 1_555
C21 C20 1_555 1_555
H13 C21 1_555 1_555
C22 C21 1_555 1_555
C23 C22 1_555 1_555
H14 C23 1_555 1_555
C24 C20 1_555 1_555
N1 C6 1_555 1_555
N2 Ni1 1_555 1_555
O1 Ni1 1_555 1_555
O2 Ni1 1_555 1_555
O3 Ni1 1_555 1_555
O4 C13 1_555 1_555
C13A C14A 1_555 1_555
C14A C15A 1_555 1_555
C15A H9A 1_555 1_555
C16A C16 1_555 1_555
C17A C14A 1_555 1_555
H10A C17A 1_555 1_555
C18A C16 1_555 1_555
H11A C18A 1_555 1_555
O3A C13A 1_555 1_555
O4A C13A 1_555 1_555
C19A C23 1_555 1_555
H12A C19A 1_555 1_555
C20A C19A 1_555 1_555
C21A C20A 1_555 1_555
H13A C21A 1_555 1_555
C22A C22 1_555 1_555
C23A C19 1_555 1_555
H14A C23A 1_555 1_555
C24A C20A 1_555 1_555
O1A C24A 1_555 1_555
O2A C24A 1_555 1_555
Ni1A O3 1_555 1_555
C1A H1A 1_555 1_555
C2A C1A 1_555 1_555
H2A C2A 1_555 1_555
C3A C2A 1_555 1_555
H3A C3A 1_555 1_555
C4A C3A 1_555 1_555
C5A C4A 1_555 1_555
C6A C5A 1_555 1_555
C7A C6A 1_555 1_555
C8A C7A 1_555 1_555
H4A C8A 1_555 1_555
C9A C4A 1_555 1_555
H5A C9A 1_555 1_555
C10A C7A 1_555 1_555
H6A C10A 1_555 1_555
C11A C10A 1_555 1_555
H7A C11A 1_555 1_555
C12A C11A 1_555 1_555
H8A C12A 1_555 1_555
N1A Ni1A 1_555 1_555
N2A Ni1A 1_555 1_555
Ni1_2 O3A 1_555 1_555
Ni1A_2 O3A 1_555 1_555
Ni1A_3 O1A 1_555 1_555
O1A_2 Ni1A 1_555 1_555
O2A_2 Ni1A 1_555 1_555
O3A_2 Ni1 1_555 1_555
C1 N2 1_555 1_555
C5 N2 1_555 1_555
C8 C9 1_555 1_555
C12 N1 1_555 1_555
C13 O3 1_555 1_555
C18 C16A 1_555 1_555
C24 O1 1_555 1_555
C24 O2 1_555 1_555
C15A C16A 1_555 1_555
C17A C18A 1_555 1_555
C21A C22A 1_555 1_555
C22A C23A 1_555 1_555
O2A Ni1A_3 1_555 1_555
Ni1A O3A_2 1_555 1_555
C1A N2A 1_555 1_555
C5A N2A 1_555 1_555
C6A N1A 1_555 1_555
C8A C9A 1_555 1_555
C12A N1A 1_555 1_555

#END
