
#######################################################################
#
#                 Cambridge Crystallographic Data Centre
#                                CCDC 
#
#######################################################################
#
# If this CIF has been generated from an entry in the Cambridge 
# Structural Database, then it will include bibliographic, chemical, 
# crystal, experimental, refinement or atomic coordinate data resulting 
# from the CCDC's data processing and validation procedures.
#
#######################################################################

data_WEWQEU
_symmetry_cell_setting           monoclinic
_symmetry_space_group_name_H-M   'P 21/c'
_symmetry_Int_Tables_number      14
_space_group_name_Hall           '-P 2ybc'
loop_
_symmetry_equiv_pos_site_id
_symmetry_equiv_pos_as_xyz
1 x,y,z
2 x,1/2-y,1/2+z
3 -x,-y,-z
4 -x,1/2+y,1/2-z
_cell_length_a                   10.767(2)
_cell_length_b                   11.754(2)
_cell_length_c                   11.875(2)
_cell_angle_alpha                90
_cell_angle_beta                 100.287(4)
_cell_angle_gamma                90
_cell_volume                     1478.69
loop_
_atom_site_label
_atom_site_type_symbol
_atom_site_fract_x
_atom_site_fract_y
_atom_site_fract_z
Cu1 Cu 0.32426(5) -0.43037(4) -0.22566(4)
Cl1 Cl 0.55087(9) -0.52743(8) -0.16454(8)
N1 N 0.5667(3) -0.1778(3) -0.0666(3)
C1 C 0.4960(4) -0.2481(4) -0.1391(4)
H1 H 0.5298 -0.2697 -0.2046
N2 N 0.3843(3) -0.2915(3) -0.1314(3)
C2 C 0.3410(4) -0.2517(3) -0.0384(3)
C3 C 0.4043(4) -0.1795(3) 0.0437(3)
C4 C 0.5255(4) -0.1433(3) 0.0297(3)
N3 N 0.6019(4) -0.0788(3) 0.1022(3)
H2 H 0.686(3) -0.063(4) 0.086(4)
H3 H 0.559(4) -0.043(4) 0.160(4)
N4 N 0.3286(3) -0.1584(3) 0.1252(3)
C5 C 0.2248(4) -0.2157(4) 0.0892(3)
H4 H 0.1549 -0.2161 0.1280
N5 N 0.2269(3) -0.2745(3) -0.0090(3)
C6 C 0.1241(4) -0.3406(4) -0.0743(4)
H5 H 0.0442 -0.3196 -0.0494
H6 H 0.1157 -0.3209 -0.1564
C7 C 0.1443(4) -0.4672(4) -0.0600(4)
H7 H 0.0734 -0.5074 -0.1085
H8 H 0.1432 -0.4879 0.0206
N6 N 0.2640(4) -0.5065(3) -0.0907(3)
H9 H 0.319(4) -0.499(4) -0.028(5)
C8 C 0.2599(5) -0.6303(4) -0.1187(4)
H10 H 0.3467 -0.6610 -0.1101
H11 H 0.2147 -0.6721 -0.0659
C9 C 0.1927(5) -0.6452(4) -0.2396(4)
H12 H 0.1014 -0.6303 -0.2448
H13 H 0.2034 -0.7242 -0.2653
N7 N 0.2474(4) -0.5637(3) -0.3135(3)
H14 H 0.311(5) -0.583(4) -0.343(4)
H15 H 0.186(4) -0.542(4) -0.373(5)
N4A N 0.3286(3) -0.3416(3) -0.3748(3)
Cu1A Cu 0.32426(5) -0.06963(4) 0.27434(4)
N8 N 0.0682(3) 0.0892(3) -1.0902(3)
O1 O -0.0089(4) 0.0844(4) -1.1787(3)
O2 O 0.0710(4) 0.1716(3) -1.0232(4)
O3 O 0.1461(3) 0.0091(3) -1.0633(3)
O4 O 0.1611(4) -0.1004(4) -1.2733(4)
H16 H 0.138(7) -0.073(7) -1.204(7)
H17 H 0.174(7) -0.022(8) -1.299(7)
loop_
_geom_bond_atom_site_label_1
_geom_bond_atom_site_label_2
_geom_bond_site_symmetry_1
_geom_bond_site_symmetry_2
Cu1 Cl1 1_555 1_555
N1 C1 1_555 1_555
C1 H1 1_555 1_555
N2 Cu1 1_555 1_555
C2 N2 1_555 1_555
C3 C2 1_555 1_555
C4 N1 1_555 1_555
N3 C4 1_555 1_555
H2 N3 1_555 1_555
H3 N3 1_555 1_555
N4 C3 1_555 1_555
C5 N4 1_555 1_555
H4 C5 1_555 1_555
N5 C2 1_555 1_555
C6 N5 1_555 1_555
H5 C6 1_555 1_555
H6 C6 1_555 1_555
C7 C6 1_555 1_555
H7 C7 1_555 1_555
H8 C7 1_555 1_555
N6 Cu1 1_555 1_555
H9 N6 1_555 1_555
C8 N6 1_555 1_555
H10 C8 1_555 1_555
H11 C8 1_555 1_555
C9 C8 1_555 1_555
H12 C9 1_555 1_555
H13 C9 1_555 1_555
N7 Cu1 1_555 1_555
H14 N7 1_555 1_555
H15 N7 1_555 1_555
N8 O1 1_555 1_555
O2 N8 1_555 1_555
O3 N8 1_555 1_555
O4 H16 1_555 1_555
H17 O4 1_555 1_555
N4A Cu1 1_555 1_555
Cu1A N4 1_555 1_555
C1 N2 1_555 1_555
C3 C4 1_555 1_555
C5 N5 1_555 1_555
C7 N6 1_555 1_555
C9 N7 1_555 1_555

#END
