
#######################################################################
#
#                 Cambridge Crystallographic Data Centre
#                                CCDC 
#
#######################################################################
#
# If this CIF has been generated from an entry in the Cambridge 
# Structural Database, then it will include bibliographic, chemical, 
# crystal, experimental, refinement or atomic coordinate data resulting 
# from the CCDC's data processing and validation procedures.
#
#######################################################################

data_WEWTOI
_symmetry_cell_setting           orthorhombic
_symmetry_space_group_name_H-M   'P 21 21 21'
_symmetry_Int_Tables_number      19
_space_group_name_Hall           'P 2ac 2ab'
loop_
_symmetry_equiv_pos_site_id
_symmetry_equiv_pos_as_xyz
1 x,y,z
2 1/2-x,-y,1/2+z
3 -x,1/2+y,1/2-z
4 1/2+x,1/2-y,-z
_cell_length_a                   5.742(3)
_cell_length_b                   8.550(5)
_cell_length_c                   18.512(10)
_cell_angle_alpha                90
_cell_angle_beta                 90
_cell_angle_gamma                90
_cell_volume                     908.83
loop_
_atom_site_label
_atom_site_type_symbol
_atom_site_fract_x
_atom_site_fract_y
_atom_site_fract_z
Np1 Np -1.49210(5) -0.08055(4) 0.483860(17)
O1 O -1.1854(13) 0.1122(12) 0.5162(6)
O2 O -1.4231(14) -0.1033(11) 0.6132(5)
O3 O -1.1783(15) -0.3039(11) 0.6207(4)
N1 N -1.1365(16) -0.0663(14) 0.8669(6)
C1 C -0.997(3) -0.1590(17) 0.8295(7)
H1 H -0.8648 -0.1982 0.8520
C2 C -1.336(2) -0.0174(17) 0.8337(7)
H2 H -1.4412 0.0416 0.8603
C3 C -1.040(2) -0.2003(19) 0.7587(7)
H3 H -0.9333 -0.2631 0.7343
C4 C -1.3888(19) -0.0515(16) 0.7620(6)
H4 H -1.5211 -0.0098 0.7404
C5 C -1.2404(17) -0.1490(14) 0.7234(6)
C6 C -1.2831(19) -0.1864(16) 0.6458(5)
O4 O -1.7185(12) 0.0651(8) 0.4940(5)
O5 O -1.2538(12) -0.2209(8) 0.4704(4)
Np1A Np -1.00790(5) 0.08055(4) 0.983860(17)
Np1C Np -0.99210(5) -0.41945(4) 0.516140(17)
O3C O -1.6783(15) -0.1961(11) 0.3793(4)
N1A N -1.3635(16) 0.0663(14) 0.3669(6)
O5C O -1.7538(12) -0.2791(8) 0.5296(4)
loop_
_geom_bond_atom_site_label_1
_geom_bond_atom_site_label_2
_geom_bond_site_symmetry_1
_geom_bond_site_symmetry_2
Np1 O1 1_555 1_555
O2 Np1 1_555 1_555
O3 C6 1_555 1_555
N1 C1 1_555 1_555
C1 H1 1_555 1_555
C2 N1 1_555 1_555
H2 C2 1_555 1_555
C3 C1 1_555 1_555
H3 C3 1_555 1_555
C4 C2 1_555 1_555
H4 C4 1_555 1_555
C5 C3 1_555 1_555
C6 O2 1_555 1_555
O4 Np1 1_555 1_555
O5 Np1 1_555 1_555
Np1A N1 1_555 1_555
Np1C O3 1_555 1_555
O3C Np1 1_555 1_555
N1A Np1 1_555 1_555
O5C Np1 1_555 1_555
C4 C5 1_555 1_555
C5 C6 1_555 1_555
O5 Np1C 1_555 1_555

#END
