
#######################################################################
#
#                 Cambridge Crystallographic Data Centre
#                                CCDC 
#
#######################################################################
#
# If this CIF has been generated from an entry in the Cambridge 
# Structural Database, then it will include bibliographic, chemical, 
# crystal, experimental, refinement or atomic coordinate data resulting 
# from the CCDC's data processing and validation procedures.
#
#######################################################################

data_WEWYEE
_symmetry_cell_setting           triclinic
_symmetry_space_group_name_H-M   'P -1'
_symmetry_Int_Tables_number      2
_space_group_name_Hall           '-P 1'
loop_
_symmetry_equiv_pos_site_id
_symmetry_equiv_pos_as_xyz
1 x,y,z
2 -x,-y,-z
_cell_length_a                   7.2090(2)
_cell_length_b                   11.2721(3)
_cell_length_c                   13.7334(4)
_cell_angle_alpha                68.326(1)
_cell_angle_beta                 89.157(1)
_cell_angle_gamma                88.081(2)
_cell_volume                     1036.5
loop_
_atom_site_label
_atom_site_type_symbol
_atom_site_fract_x
_atom_site_fract_y
_atom_site_fract_z
V1 V 0.24998(4) 0.20398(3) 0.73654(2)
Na1 Na 0.24974(9) 0.50067(6) 0.49343(5)
O1 O -0.00940(17) 0.16988(13) 0.75327(10)
O2 O 0.07325(18) 0.15193(12) 0.66182(10)
O3 O 0.51217(17) 0.17201(13) 0.75585(10)
O4 O 0.44095(18) 0.15392(12) 0.66358(10)
O5 O 0.24214(19) 0.35720(12) 0.67989(10)
O6 O 0.00393(19) 0.36963(14) 0.48088(12)
O7 O 0.48595(19) 0.63171(14) 0.51643(13)
O8 O 0.2537(2) 0.62430(13) 0.30952(11)
N1 N 0.25760(19) -0.00285(13) 0.85692(10)
C1 C 0.2665(3) -0.10745(17) 0.83334(14)
H1 H 0.2698 -0.0978 0.7631
C2 C 0.2712(3) -0.22966(19) 0.90857(16)
H2 H 0.2789 -0.3008 0.8895
C3 C 0.2642(3) -0.2433(2) 1.01258(16)
H3 H 0.2655 -0.3242 1.0650
C4 C 0.2552(3) -0.13604(19) 1.03825(14)
H4 H 0.2508 -0.1434 1.1080
C5 C 0.2526(2) -0.01670(16) 0.95800(13)
C6 C 0.2437(2) 0.10411(17) 0.97708(13)
C7 C 0.2374(3) 0.1084(2) 1.07681(15)
H5 H 0.2390 0.0332 1.1356
C8 C 0.2286(3) 0.2251(2) 1.08788(18)
H6 H 0.2241 0.2294 1.1542
C9 C 0.2265(3) 0.3351(2) 1.00008(19)
H7 H 0.2213 0.4147 1.0061
C10 C 0.2324(3) 0.3253(2) 0.90284(17)
H8 H 0.2300 0.3999 0.8435
N2 N 0.2413(2) 0.21257(14) 0.89042(11)
H9 H 0.019(4) 0.306(3) 0.529(2)
H10 H -0.017(3) 0.344(2) 0.435(2)
H11 H 0.494(3) 0.697(3) 0.466(2)
H12 H 0.472(4) 0.654(3) 0.563(2)
H13 H 0.164(4) 0.681(3) 0.292(2)
H14 H 0.347(4) 0.673(3) 0.293(2)
Na1A Na -0.24974(9) 0.49933(6) 0.50657(5)
Na1A_2 Na 0.75026(9) 0.49933(6) 0.50657(5)
O6A O -0.00393(19) 0.63037(14) 0.51912(12)
O7A O 0.51405(19) 0.36829(14) 0.48357(13)
O9 O 0.4632(2) 0.70529(19) 0.69491(15)
H15 H 0.495(4) 0.7766(18) 0.673(3)
H16 H 0.545(4) 0.655(2) 0.729(2)
O10 O 0.2329(3) 0.45080(18) 0.21048(14)
H17 H 0.242(4) 0.495(3) 0.244(2)
H18 H 0.135(3) 0.413(3) 0.228(3)
O11 O -0.0747(3) 0.29747(18) 0.30723(15)
H19 H -0.044(4) 0.2220(18) 0.329(2)
H20 H -0.188(2) 0.302(3) 0.303(2)
O12 O -0.0487(3) -0.04257(17) 0.60710(15)
H21 H -0.074(7) -0.011(5) 0.5467(16)
H22 H -0.022(4) 0.015(3) 0.628(2)
O13 O 0.5662(2) -0.03996(17) 0.60341(16)
H23 H 0.681(3) -0.046(5) 0.609(4)
H24 H 0.529(4) 0.014(3) 0.626(3)
loop_
_geom_bond_atom_site_label_1
_geom_bond_atom_site_label_2
_geom_bond_site_symmetry_1
_geom_bond_site_symmetry_2
V1 O1 1_555 1_555
Na1 O5 1_555 1_555
O1 O2 1_555 1_555
O2 V1 1_555 1_555
O3 V1 1_555 1_555
O4 V1 1_555 1_555
O5 V1 1_555 1_555
O6 Na1 1_555 1_555
O7 Na1 1_555 1_555
O8 Na1 1_555 1_555
N1 V1 1_555 1_555
C1 N1 1_555 1_555
H1 C1 1_555 1_555
C2 C1 1_555 1_555
H2 C2 1_555 1_555
C3 C2 1_555 1_555
H3 C3 1_555 1_555
C4 C3 1_555 1_555
H4 C4 1_555 1_555
C5 N1 1_555 1_555
C6 C5 1_555 1_555
C7 C6 1_555 1_555
H5 C7 1_555 1_555
C8 C7 1_555 1_555
H6 C8 1_555 1_555
C9 C8 1_555 1_555
H7 C9 1_555 1_555
C10 C9 1_555 1_555
H8 C10 1_555 1_555
N2 V1 1_555 1_555
H9 O6 1_555 1_555
H10 O6 1_555 1_555
H11 O7 1_555 1_555
H12 O7 1_555 1_555
H13 O8 1_555 1_555
H14 O8 1_555 1_555
O9 H15 1_555 1_555
H16 O9 1_555 1_555
O10 H17 1_555 1_555
H18 O10 1_555 1_555
O11 H19 1_555 1_555
H20 O11 1_555 1_555
O12 H21 1_555 1_555
H22 O12 1_555 1_555
O13 H23 1_555 1_555
H24 O13 1_555 1_555
Na1A O6 1_555 1_555
Na1A_2 O7 1_555 1_555
O6A Na1 1_555 1_555
O7A Na1 1_555 1_555
O3 O4 1_555 1_555
C4 C5 1_555 1_555
C6 N2 1_555 1_555
C10 N2 1_555 1_555
Na1A O6A 1_555 1_555
Na1A_2 O7A 1_555 1_555

#END
