
#######################################################################
#
#                 Cambridge Crystallographic Data Centre
#                                CCDC 
#
#######################################################################
#
# If this CIF has been generated from an entry in the Cambridge 
# Structural Database, then it will include bibliographic, chemical, 
# crystal, experimental, refinement or atomic coordinate data resulting 
# from the CCDC's data processing and validation procedures.
#
#######################################################################

data_WEWZAB
_symmetry_cell_setting           monoclinic
_symmetry_space_group_name_H-M   'P 21'
_symmetry_Int_Tables_number      4
_space_group_name_Hall           'P 2yb'
loop_
_symmetry_equiv_pos_site_id
_symmetry_equiv_pos_as_xyz
1 x,y,z
2 -x,1/2+y,-z
_cell_length_a                   10.3068(18)
_cell_length_b                   9.4653(16)
_cell_length_c                   25.245(4)
_cell_angle_alpha                90
_cell_angle_beta                 99.671(3)
_cell_angle_gamma                90
_cell_volume                     2427.83
loop_
_atom_site_label
_atom_site_type_symbol
_atom_site_fract_x
_atom_site_fract_y
_atom_site_fract_z
C1 C 0.4312(10) 0.3082(11) 0.1788(4)
H1 H 0.3639 0.2512 0.1871
C2 C 0.4500(10) 0.4428(12) 0.2008(4)
H2 H 0.3952 0.4758 0.2239
C3 C 0.5506(11) 0.5279(9) 0.1884(4)
C4 C 0.6324(9) 0.4785(11) 0.1540(4)
H3 H 0.6997 0.5354 0.1457
C5 C 0.6137(10) 0.3439(12) 0.1320(4)
H4 H 0.6684 0.3109 0.1089
C6 C 0.5131(11) 0.2588(9) 0.1444(4)
C7 C 0.6067(16) 0.670(2) 0.2056(6)
H5 H 0.6954 0.6763 0.1987
H6 H 0.6065 0.6829 0.2433
H7 H 0.5542 0.7426 0.1857
C8 C 0.3184(12) 0.0988(16) 0.0315(6)
H8 H 0.2733 0.1657 0.0518
C9 C 0.3141(11) 0.1539(17) -0.0227(5)
H9 H 0.2252 0.1408 -0.0419
H10 H 0.3713 0.0952 -0.0403
C10 C 0.3516(11) 0.3057(15) -0.0301(6)
H11 H 0.4440 0.3165 -0.0150
H12 H 0.3429 0.3235 -0.0684
C11 C 0.2784(14) 0.4150(17) -0.0070(6)
C12 C 0.2421(13) -0.0466(17) 0.0281(6)
C13 C 0.2138(8) -0.2685(12) 0.1385(5)
H13 H 0.2740 -0.1990 0.1332
C14 C 0.1721(10) -0.2803(13) 0.1879(4)
H14 H 0.2044 -0.2185 0.2156
C15 C 0.0820(11) -0.3842(15) 0.1958(3)
C16 C 0.0337(9) -0.4765(13) 0.1543(4)
H15 H -0.0265 -0.5461 0.1596
C17 C 0.0754(9) -0.4648(12) 0.1049(3)
H16 H 0.0431 -0.5266 0.0772
N1 N 0.1655(9) -0.3608(13) 0.0970(3)
N2 N 0.4494(10) 0.0836(13) 0.0582(4)
H17 H 0.5115 0.0741 0.0396
C18 C 0.0486(10) -0.3850(12) 0.2501(3)
N3 N -0.0514(9) -0.4812(12) 0.2536(3)
C19 C -0.0919(8) -0.5050(12) 0.3027(4)
H18 H -0.1589 -0.5694 0.3050
C20 C -0.0324(10) -0.4326(13) 0.3482(3)
H19 H -0.0595 -0.4485 0.3810
C21 C 0.0676(10) -0.3363(12) 0.3447(3)
H20 H 0.1075 -0.2879 0.3752
C22 C 0.1082(8) -0.3125(11) 0.2957(4)
H21 H 0.1751 -0.2481 0.2933
O1 O 0.3050(6) -0.1529(7) 0.0276(3)
O2 O 0.1210(6) -0.0376(7) 0.0234(3)
O3 O 0.1764(7) 0.3900(8) 0.0082(3)
O4 O 0.3257(6) 0.5407(8) -0.0013(3)
O5 O 0.3783(7) 0.0183(9) 0.1436(3)
O6 O 0.6084(8) 0.0078(9) 0.1391(3)
O7 O 0.02660(11) -0.3102(2) -0.02139(5)
H22 H -0.0282 -0.3733 -0.0164
H23 H 0.0183 -0.2281 -0.0092
S1 S 0.48463(11) 0.0838(2) 0.12231(5)
Zn1 Zn 0.20615(11) -0.3290(2) 0.02405(5)
O4_2 O 0.3257(6) -0.4593(8) -0.0013(3)
Zn1_2 Zn 0.20615(11) 0.6710(2) 0.02405(5)
N4 N 0.5495(9) 0.5556(13) 0.4404(4)
H24 H 0.4877 0.5498 0.4593
C23 C 0.5769(8) 0.3128(11) 0.3345(4)
H25 H 0.6593 0.3503 0.3323
C24 C 0.5475(10) 0.1743(11) 0.3186(4)
H26 H 0.6101 0.1190 0.3058
C25 C 0.4244(11) 0.1183(8) 0.3218(5)
C26 C 0.3308(8) 0.2008(11) 0.3410(4)
H27 H 0.2484 0.1634 0.3432
C27 C 0.3602(9) 0.3394(11) 0.3569(4)
H28 H 0.2976 0.3946 0.3697
C28 C 0.4833(11) 0.3953(8) 0.3536(5)
C29 C 0.4457(15) -0.0326(19) 0.2927(7)
H29 H 0.4967 -0.0177 0.2647
H30 H 0.3616 -0.0716 0.2776
H31 H 0.4912 -0.0971 0.3188
C30 C 0.7254(13) 0.2323(18) 0.5072(6)
C31 C 0.6333(10) 0.3469(16) 0.5256(6)
H32 H 0.5500 0.3476 0.5011
H33 H 0.6157 0.3231 0.5611
C32 C 0.6951(10) 0.4930(19) 0.5271(5)
H34 H 0.7861 0.4877 0.5448
H35 H 0.6488 0.5563 0.5477
C33 C 0.6888(11) 0.5540(17) 0.4680(6)
H36 H 0.7363 0.4877 0.4484
C34 C 0.7909(7) 0.9129(8) 0.3602(3)
H37 H 0.7375 0.8380 0.3668
C35 C 0.8254(9) 0.9289(10) 0.3096(3)
H38 H 0.7952 0.8647 0.2824
C36 C 0.9052(9) 1.0409(11) 0.2996(2)
C37 C 0.9504(8) 1.1368(9) 0.3402(3)
H39 H 1.0038 1.2117 0.3335
C38 C 0.9159(8) 1.1209(9) 0.3908(3)
H40 H 0.9461 1.1851 0.4179
N5 N 0.8361(8) 1.0089(10) 0.4007(2)
C39 C 0.7587(11) 0.6878(18) 0.4705(6)
C40 C 0.9569(8) 1.0599(11) 0.2502(3)
C41 C 0.8867(6) 1.0267(11) 0.1998(3)
H41 H 0.8016 0.9911 0.1966
C42 C 0.9435(8) 1.0467(11) 0.1542(3)
H42 H 0.8965 1.0245 0.1205
C43 C 1.0707(8) 1.0999(12) 0.1590(3)
H43 H 1.1087 1.1133 0.1285
C44 C 1.1409(7) 1.1331(12) 0.2094(3)
H44 H 1.2260 1.1687 0.2126
N6 N 1.0841(8) 1.1131(11) 0.2550(2)
O8 O 0.39259(11) 0.6410(2) 0.36740(5)
O9 O 0.62888(11) 0.6002(2) 0.35677(5)
O10 O 0.88155(11) 0.6897(2) 0.46993(5)
O11 O 0.69186(11) 0.8036(2) 0.47390(5)
O12 O 0.83853(11) 0.2591(2) 0.49688(5)
O13 O 0.67474(11) 0.1080(2) 0.50544(5)
O14 O 0.96987(11) 0.9626(2) 0.51933(5)
H45 H 1.0318 0.9331 0.5037
H46 H 0.9896 1.0349 0.5392
S2 S 0.51136(11) 0.5679(2) 0.37640(5)
Zn2 Zn 0.79329(11) 0.9798(2) 0.47652(5)
O13_2 O 0.67474(11) 1.1080(2) 0.50544(5)
Zn2_2 Zn 0.79329(11) -0.0202(2) 0.47652(5)
loop_
_geom_bond_atom_site_label_1
_geom_bond_atom_site_label_2
_geom_bond_site_symmetry_1
_geom_bond_site_symmetry_2
C1 H1 1_555 1_555
C2 C1 1_555 1_555
H2 C2 1_555 1_555
C3 C2 1_555 1_555
C4 C3 1_555 1_555
H3 C4 1_555 1_555
C5 C4 1_555 1_555
H4 C5 1_555 1_555
C6 C1 1_555 1_555
C7 C3 1_555 1_555
H5 C7 1_555 1_555
H6 C7 1_555 1_555
H7 C7 1_555 1_555
C8 H8 1_555 1_555
C9 C8 1_555 1_555
H9 C9 1_555 1_555
H10 C9 1_555 1_555
C10 C9 1_555 1_555
H11 C10 1_555 1_555
H12 C10 1_555 1_555
C11 C10 1_555 1_555
C12 C8 1_555 1_555
C13 H13 1_555 1_555
C14 C13 1_555 1_555
H14 C14 1_555 1_555
C15 C14 1_555 1_555
C16 C15 1_555 1_555
H15 C16 1_555 1_555
C17 C16 1_555 1_555
H16 C17 1_555 1_555
N1 C13 1_555 1_555
N2 C8 1_555 1_555
H17 N2 1_555 1_555
C18 C15 1_555 1_555
N3 C18 1_555 1_555
C19 N3 1_555 1_555
H18 C19 1_555 1_555
C20 C19 1_555 1_555
H19 C20 1_555 1_555
C21 C20 1_555 1_555
H20 C21 1_555 1_555
C22 C18 1_555 1_555
H21 C22 1_555 1_555
O1 C12 1_555 1_555
O2 C12 1_555 1_555
O3 C11 1_555 1_555
O4 C11 1_555 1_555
O5 S1 1_555 1_555
O6 S1 1_555 1_555
O7 H22 1_555 1_555
H23 O7 1_555 1_555
S1 C6 1_555 1_555
Zn1 N1 1_555 1_555
N4 H24 1_555 1_555
C23 H25 1_555 1_555
C24 C23 1_555 1_555
H26 C24 1_555 1_555
C25 C24 1_555 1_555
C26 C25 1_555 1_555
H27 C26 1_555 1_555
C27 C26 1_555 1_555
H28 C27 1_555 1_555
C28 C23 1_555 1_555
C29 C25 1_555 1_555
H29 C29 1_555 1_555
H30 C29 1_555 1_555
H31 C29 1_555 1_555
C30 C31 1_555 1_555
C31 H32 1_555 1_555
H33 C31 1_555 1_555
C32 C31 1_555 1_555
H34 C32 1_555 1_555
H35 C32 1_555 1_555
C33 N4 1_555 1_555
H36 C33 1_555 1_555
C34 H37 1_555 1_555
C35 C34 1_555 1_555
H38 C35 1_555 1_555
C36 C35 1_555 1_555
C37 C36 1_555 1_555
H39 C37 1_555 1_555
C38 C37 1_555 1_555
H40 C38 1_555 1_555
N5 C34 1_555 1_555
C39 C33 1_555 1_555
C40 C36 1_555 1_555
C41 C40 1_555 1_555
H41 C41 1_555 1_555
C42 C41 1_555 1_555
H42 C42 1_555 1_555
C43 C42 1_555 1_555
H43 C43 1_555 1_555
C44 C43 1_555 1_555
H44 C44 1_555 1_555
N6 C40 1_555 1_555
O8 S2 1_555 1_555
O9 S2 1_555 1_555
O10 C39 1_555 1_555
O11 C39 1_555 1_555
O12 C30 1_555 1_555
O13 C30 1_555 1_555
O14 H45 1_555 1_555
H46 O14 1_555 1_555
S2 N4 1_555 1_555
Zn2 N5 1_555 1_555
O4_2 Zn1 1_555 1_555
Zn1_2 O4 1_555 1_555
O13_2 Zn2 1_555 1_555
Zn2_2 O13 1_555 1_555
C5 C6 1_555 1_555
C17 N1 1_555 1_555
N2 S1 1_555 1_555
C21 C22 1_555 1_555
O1 Zn1 1_555 1_555
O7 Zn1 1_555 1_555
C27 C28 1_555 1_555
C28 S2 1_555 1_555
C32 C33 1_555 1_555
C38 N5 1_555 1_555
C44 N6 1_555 1_555
O11 Zn2 1_555 1_555
O14 Zn2 1_555 1_555

#END
