
#######################################################################
#
#                 Cambridge Crystallographic Data Centre
#                                CCDC 
#
#######################################################################
#
# If this CIF has been generated from an entry in the Cambridge 
# Structural Database, then it will include bibliographic, chemical, 
# crystal, experimental, refinement or atomic coordinate data resulting 
# from the CCDC's data processing and validation procedures.
#
#######################################################################

data_WEWZEF
_symmetry_cell_setting           monoclinic
_symmetry_space_group_name_H-M   'P 21/c'
_symmetry_Int_Tables_number      14
_space_group_name_Hall           '-P 2ybc'
loop_
_symmetry_equiv_pos_site_id
_symmetry_equiv_pos_as_xyz
1 x,y,z
2 -x,1/2+y,1/2-z
3 -x,-y,-z
4 x,1/2-y,1/2+z
_cell_length_a                   9.6731(8)
_cell_length_b                   5.3414(5)
_cell_length_c                   15.4107(10)
_cell_angle_alpha                90
_cell_angle_beta                 121.766(4)
_cell_angle_gamma                90
_cell_volume                     676.966
loop_
_atom_site_label
_atom_site_type_symbol
_atom_site_fract_x
_atom_site_fract_y
_atom_site_fract_z
Cu1 Cu 0.0000 1.0000 0.0000
V1 V 0.38245(5) 0.95083(9) 0.22582(3)
O1 O 0.2238(2) 1.0179(4) 0.10897(14)
O2 O 0.5095(2) 0.7326(4) 0.21098(14)
O3 O 0.3226(3) 0.8267(4) 0.29572(16)
N1 N 0.0538(3) 0.7098(4) -0.05867(16)
N2 N 0.1904(3) 0.3986(5) -0.07288(17)
C1 C 0.1995(3) 0.6035(5) -0.0199(2)
H1 H 0.2949 0.6637 0.0365
C2 C -0.0520(3) 0.5603(6) -0.1399(2)
H2 H -0.1633 0.5874 -0.1819
C3 C 0.0304(3) 0.3685(6) -0.1493(2)
H3 H -0.0126 0.2415 -0.1978
C4 C 0.3263(4) 0.2375(6) -0.0532(3)
H4 H 0.4104 0.2475 0.0176
H5 H 0.3684 0.2916 -0.0943
H6 H 0.2892 0.0676 -0.0701
V1B V -0.38245(5) 1.04917(9) -0.22582(3)
O1B O -0.2238(2) 0.9821(4) -0.10897(14)
O2B O -0.5095(2) 1.2674(4) -0.21098(14)
O3B O -0.3226(3) 1.1733(4) -0.29572(16)
N1B N -0.0538(3) 1.2902(4) 0.05867(16)
N2B N -0.1904(3) 1.6014(5) 0.07288(17)
C1B C -0.1995(3) 1.3965(5) 0.0199(2)
H1B H -0.2949 1.3363 -0.0365
C2B C 0.0520(3) 1.4397(6) 0.1399(2)
H2B H 0.1633 1.4126 0.1819
C3B C -0.0304(3) 1.6315(6) 0.1493(2)
H3B H 0.0126 1.7585 0.1978
C4B C -0.3263(4) 1.7625(6) 0.0532(3)
H4B H -0.4104 1.7525 -0.0176
H5B H -0.3684 1.7084 0.0943
H6B H -0.2892 1.9324 0.0701
V1A V 0.61755(5) 0.45083(9) 0.27418(3)
V1C V -0.61755(5) 1.54917(9) -0.27418(3)
O2A O 0.4905(2) 1.2326(4) 0.28902(14)
O2C O -0.4905(2) 0.7674(4) -0.28902(14)
loop_
_geom_bond_atom_site_label_1
_geom_bond_atom_site_label_2
_geom_bond_site_symmetry_1
_geom_bond_site_symmetry_2
Cu1 O1 1_555 1_555
V1 O1 1_555 1_555
O2 V1 1_555 1_555
O3 V1 1_555 1_555
N1 Cu1 1_555 1_555
N2 C1 1_555 1_555
C1 N1 1_555 1_555
H1 C1 1_555 1_555
C2 N1 1_555 1_555
H2 C2 1_555 1_555
C3 N2 1_555 1_555
H3 C3 1_555 1_555
C4 N2 1_555 1_555
H4 C4 1_555 1_555
H5 C4 1_555 1_555
H6 C4 1_555 1_555
V1B O1B 1_555 1_555
O1B Cu1 1_555 1_555
O2B V1B 1_555 1_555
O3B V1B 1_555 1_555
N1B Cu1 1_555 1_555
N2B C1B 1_555 1_555
C1B N1B 1_555 1_555
H1B C1B 1_555 1_555
C2B N1B 1_555 1_555
H2B C2B 1_555 1_555
C3B N2B 1_555 1_555
H3B C3B 1_555 1_555
C4B N2B 1_555 1_555
H4B C4B 1_555 1_555
H5B C4B 1_555 1_555
H6B C4B 1_555 1_555
V1A O2 1_555 1_555
V1C O2B 1_555 1_555
O2A V1 1_555 1_555
O2C V1B 1_555 1_555
C2 C3 1_555 1_555
C2B C3B 1_555 1_555

#END
