
#######################################################################
#
#                 Cambridge Crystallographic Data Centre
#                                CCDC 
#
#######################################################################
#
# If this CIF has been generated from an entry in the Cambridge 
# Structural Database, then it will include bibliographic, chemical, 
# crystal, experimental, refinement or atomic coordinate data resulting 
# from the CCDC's data processing and validation procedures.
#
#######################################################################

data_WEXBUY
_symmetry_cell_setting           monoclinic
_symmetry_space_group_name_H-M   'P 21/n'
_symmetry_Int_Tables_number      14
_space_group_name_Hall           '-P 2yn'
loop_
_symmetry_equiv_pos_site_id
_symmetry_equiv_pos_as_xyz
1 x,y,z
2 1/2-x,1/2+y,1/2-z
3 -x,-y,-z
4 1/2+x,1/2-y,1/2+z
_cell_length_a                   10.550(3)
_cell_length_b                   10.559(3)
_cell_length_c                   13.782(5)
_cell_angle_alpha                90
_cell_angle_beta                 95.16(2)
_cell_angle_gamma                90
_cell_volume                     1529.06
loop_
_atom_site_label
_atom_site_type_symbol
_atom_site_fract_x
_atom_site_fract_y
_atom_site_fract_z
Eu1 Eu 0.49444(12) 0.70846(6) 0.74825(14)
N1 N 0.685(2) 0.546(2) 0.7442(16)
N2 N 0.8349(18) 0.3972(18) 0.7461(14)
N3 N 0.327(2) 0.529(2) 0.7227(16)
N4 N 0.1746(18) 0.3719(18) 0.7110(13)
N5 N 0.4574(19) 0.735(2) 0.5574(18)
N6 N 0.3489(16) 0.7292(17) 0.4129(11)
H1 H 0.2930 0.7077 0.3645
N7 N 0.531(2) 0.694(2) 0.9404(18)
N8 N 0.6058(16) 0.6432(16) 1.0885(11)
H2 H 0.6484 0.6027 1.1368
C1 C 0.735(2) 0.445(2) 0.7854(16)
H3 H 0.7022 0.4075 0.8406
C2 C 0.858(2) 0.492(2) 0.6752(14)
H4 H 0.9269 0.4918 0.6353
C3 C 0.770(2) 0.5775(19) 0.6741(14)
H5 H 0.7629 0.6497 0.6328
C4 C 0.212(2) 0.493(2) 0.7383(15)
H6 H 0.1556 0.5482 0.7677
C5 C 0.277(2) 0.3307(18) 0.6672(14)
H7 H 0.2827 0.2513 0.6356
C6 C 0.373(2) 0.4238(19) 0.6757(14)
H8 H 0.4552 0.4162 0.6532
C7 C 0.367(2) 0.667(2) 0.5028(13)
H9 H 0.3251 0.5928 0.5219
C8 C 0.430(2) 0.8264(19) 0.4122(14)
H10 H 0.4409 0.8806 0.3586
C9 C 0.493(3) 0.833(3) 0.502(2)
H11 H 0.5531 0.8968 0.5225
C10 C 0.606(3) 0.614(3) 0.995(2)
H12 H 0.6523 0.5459 0.9708
C11 C 0.530(3) 0.745(3) 1.098(2)
H13 H 0.5140 0.7868 1.1566
C12 C 0.483(2) 0.775(2) 1.0070(14)
H14 H 0.4249 0.8416 0.9908
Eu1A Eu 0.00556(12) 0.20846(6) 0.75175(14)
Eu1A_2 Eu 1.00556(12) 0.20846(6) 0.75175(14)
N2A N 0.6651(18) 0.8972(18) 0.7539(14)
N4A N 0.3254(18) 0.8719(18) 0.7890(13)
loop_
_geom_bond_atom_site_label_1
_geom_bond_atom_site_label_2
_geom_bond_site_symmetry_1
_geom_bond_site_symmetry_2
Eu1 N1 1_555 1_555
N1 C1 1_555 1_555
N2 C1 1_555 1_555
N3 Eu1 1_555 1_555
N4 C4 1_555 1_555
N5 Eu1 1_555 1_555
N6 H1 1_555 1_555
N7 Eu1 1_555 1_555
N8 H2 1_555 1_555
C1 H3 1_555 1_555
C2 N2 1_555 1_555
H4 C2 1_555 1_555
C3 N1 1_555 1_555
H5 C3 1_555 1_555
C4 N3 1_555 1_555
H6 C4 1_555 1_555
C5 N4 1_555 1_555
H7 C5 1_555 1_555
C6 N3 1_555 1_555
H8 C6 1_555 1_555
C7 N5 1_555 1_555
H9 C7 1_555 1_555
C8 N6 1_555 1_555
H10 C8 1_555 1_555
C9 N5 1_555 1_555
H11 C9 1_555 1_555
C10 N7 1_555 1_555
H12 C10 1_555 1_555
C11 N8 1_555 1_555
H13 C11 1_555 1_555
C12 N7 1_555 1_555
H14 C12 1_555 1_555
Eu1A N4 1_555 1_555
Eu1A_2 N2 1_555 1_555
N2A Eu1 1_555 1_555
N4A Eu1 1_555 1_555
N6 C7 1_555 1_555
N8 C10 1_555 1_555
C2 C3 1_555 1_555
C5 C6 1_555 1_555
C8 C9 1_555 1_555
C11 C12 1_555 1_555

#END
