
#######################################################################
#
#                 Cambridge Crystallographic Data Centre
#                                CCDC 
#
#######################################################################
#
# If this CIF has been generated from an entry in the Cambridge 
# Structural Database, then it will include bibliographic, chemical, 
# crystal, experimental, refinement or atomic coordinate data resulting 
# from the CCDC's data processing and validation procedures.
#
#######################################################################

data_WEXCEJ
_symmetry_cell_setting           monoclinic
_symmetry_space_group_name_H-M   'C 2/c'
_symmetry_Int_Tables_number      15
_space_group_name_Hall           '-C 2yn'
loop_
_symmetry_equiv_pos_site_id
_symmetry_equiv_pos_as_xyz
1 x,y,z
2 -x,y,1/2-z
3 1/2+x,1/2+y,z
4 1/2-x,1/2+y,1/2-z
5 -x,-y,-z
6 x,-y,1/2+z
7 1/2-x,1/2-y,-z
8 1/2+x,1/2-y,1/2+z
_cell_length_a                   9.436(3)
_cell_length_b                   10.408(3)
_cell_length_c                   7.177(2)
_cell_angle_alpha                90
_cell_angle_beta                 90.05(2)
_cell_angle_gamma                90
_cell_volume                     704.852
loop_
_atom_site_label
_atom_site_type_symbol
_atom_site_fract_x
_atom_site_fract_y
_atom_site_fract_z
Eu1 Eu 0.5000 0.09744(3) 0.2500
N1 N 0.3570(4) 0.0896(6) -0.0732(6)
N2 N 0.1743(5) 0.2218(4) -0.1537(6)
C1 C 0.3146(5) 0.2000(5) -0.1562(7)
H1 H 0.3796 0.2580 -0.2122
C2 C 0.1212(5) 0.1166(6) -0.0610(7)
H2 H 0.0239 0.1019 -0.0351
C3 C 0.2302(5) 0.0362(5) -0.0115(8)
H3 H 0.2207 -0.0427 0.0539
N1A N 0.6430(4) 0.0896(6) 0.5732(6)
N2A N 0.8257(5) 0.2218(4) 0.6537(6)
C1A C 0.6854(5) 0.2000(5) 0.6562(7)
H1A H 0.6204 0.2580 0.7122
C2A C 0.8788(5) 0.1166(6) 0.5610(7)
H2A H 0.9761 0.1019 0.5351
C3A C 0.7698(5) 0.0362(5) 0.5115(8)
H3A H 0.7793 -0.0427 0.4461
Eu1D Eu 0.5000 -0.09744(3) -0.2500
Eu1D_2 Eu 0.5000 -0.09744(3) 0.7500
Eu1F Eu 0.0000 0.40256(3) -0.2500
Eu1F_2 Eu 1.0000 0.40256(3) 0.7500
N1D N 0.6430(4) -0.0896(6) 0.0732(6)
N1E N 0.3570(4) -0.0896(6) 0.4268(6)
N2F N 0.3257(5) 0.2782(4) 0.1537(6)
N2G N 0.6743(5) 0.2782(4) 0.3463(6)
loop_
_geom_bond_atom_site_label_1
_geom_bond_atom_site_label_2
_geom_bond_site_symmetry_1
_geom_bond_site_symmetry_2
Eu1 N1 1_555 1_555
N1 C1 1_555 1_555
N2 C1 1_555 1_555
C1 H1 1_555 1_555
C2 N2 1_555 1_555
H2 C2 1_555 1_555
C3 N1 1_555 1_555
H3 C3 1_555 1_555
N1A Eu1 1_555 1_555
N2A C1A 1_555 1_555
C1A N1A 1_555 1_555
H1A C1A 1_555 1_555
C2A N2A 1_555 1_555
H2A C2A 1_555 1_555
C3A N1A 1_555 1_555
H3A C3A 1_555 1_555
Eu1D N1 1_555 1_555
Eu1D_2 N1A 1_555 1_555
Eu1F N2 1_555 1_555
Eu1F_2 N2A 1_555 1_555
N1D Eu1 1_555 1_555
N1E Eu1 1_555 1_555
N2F Eu1 1_555 1_555
N2G Eu1 1_555 1_555
C2 C3 1_555 1_555
C2A C3A 1_555 1_555
Eu1D N1D 1_555 1_555
Eu1D_2 N1E 1_555 1_555

#END
