
#######################################################################
#
#                 Cambridge Crystallographic Data Centre
#                                CCDC 
#
#######################################################################
#
# If this CIF has been generated from an entry in the Cambridge 
# Structural Database, then it will include bibliographic, chemical, 
# crystal, experimental, refinement or atomic coordinate data resulting 
# from the CCDC's data processing and validation procedures.
#
#######################################################################

data_WEXRUN
_symmetry_cell_setting           monoclinic
_symmetry_space_group_name_H-M   'P 21/c'
_symmetry_Int_Tables_number      14
_space_group_name_Hall           '-P 2ybc'
loop_
_symmetry_equiv_pos_site_id
_symmetry_equiv_pos_as_xyz
1 x,y,z
2 -x,1/2+y,1/2-z
3 -x,-y,-z
4 x,1/2-y,1/2+z
_cell_length_a                   5.84040(10)
_cell_length_b                   18.0023(5)
_cell_length_c                   8.2554(2)
_cell_angle_alpha                90
_cell_angle_beta                 98.1670(10)
_cell_angle_gamma                90
_cell_volume                     859.175
loop_
_atom_site_label
_atom_site_type_symbol
_atom_site_fract_x
_atom_site_fract_y
_atom_site_fract_z
Ni1 Ni 1.04361(7) 0.06524(2) 0.23364(5)
O1 O 0.7518(4) 0.07543(13) 0.3411(3)
O2 O 0.5819(5) 0.15374(15) 0.4966(3)
O3 O 0.8441(4) 0.42473(13) 0.4970(3)
O4 O 1.0062(5) 0.45367(14) 0.2747(3)
O5 O 1.3344(5) 0.05976(17) 0.1147(4)
O6 O 1.2421(6) 0.0507(2) 0.4542(4)
N1 N 1.0515(5) 0.17816(16) 0.2748(4)
C1 C 1.1942(6) 0.2305(2) 0.2292(5)
H1 H 1.3159 0.2159 0.1750
C2 C 1.1658(6) 0.3056(2) 0.2604(4)
H2 H 1.2665 0.3405 0.2267
C3 C 0.8792(6) 0.2003(2) 0.3570(4)
C4 C 0.8408(6) 0.2734(2) 0.3927(4)
H3 H 0.7203 0.2863 0.4496
C5 C 0.9850(6) 0.32804(19) 0.3424(4)
C6 C 0.9428(6) 0.40875(19) 0.3737(4)
C7 C 0.7243(6) 0.13916(19) 0.4048(4)
H4 H 1.311(10) 0.024(3) 0.071(7)
H5 H 1.245(9) 0.015(3) 0.499(7)
H6 H 1.347(9) 0.074(3) 0.481(6)
H7 H 1.463(12) 0.063(3) 0.181(8)
Ni1C Ni 1.04361(7) 0.43476(2) 0.73364(5)
Ni1A Ni 0.95639(7) 0.56524(2) 0.26636(5)
O3C O 0.8441(4) 0.07527(13) -0.0030(3)
O4A O 0.9938(5) -0.04633(14) 0.2253(3)
loop_
_geom_bond_atom_site_label_1
_geom_bond_atom_site_label_2
_geom_bond_site_symmetry_1
_geom_bond_site_symmetry_2
Ni1 O1 1_555 1_555
O1 C7 1_555 1_555
O2 C7 1_555 1_555
O3 C6 1_555 1_555
O4 C6 1_555 1_555
O5 Ni1 1_555 1_555
O6 Ni1 1_555 1_555
N1 Ni1 1_555 1_555
C1 N1 1_555 1_555
H1 C1 1_555 1_555
C2 C1 1_555 1_555
H2 C2 1_555 1_555
C3 N1 1_555 1_555
C4 C3 1_555 1_555
H3 C4 1_555 1_555
C5 C2 1_555 1_555
C6 C5 1_555 1_555
C7 C3 1_555 1_555
H4 O5 1_555 1_555
H5 O6 1_555 1_555
H6 O6 1_555 1_555
H7 O5 1_555 1_555
Ni1C O3 1_555 1_555
Ni1A O4 1_555 1_555
O3C Ni1 1_555 1_555
O4A Ni1 1_555 1_555
C4 C5 1_555 1_555

#END
