
#######################################################################
#
#                 Cambridge Crystallographic Data Centre
#                                CCDC 
#
#######################################################################
#
# If this CIF has been generated from an entry in the Cambridge 
# Structural Database, then it will include bibliographic, chemical, 
# crystal, experimental, refinement or atomic coordinate data resulting 
# from the CCDC's data processing and validation procedures.
#
#######################################################################

data_WEXSAV
_symmetry_cell_setting           monoclinic
_symmetry_space_group_name_H-M   'P 21/m'
_symmetry_Int_Tables_number      11
_space_group_name_Hall           '-P 2yb'
loop_
_symmetry_equiv_pos_site_id
_symmetry_equiv_pos_as_xyz
1 x,y,z
2 -x,1/2+y,-z
3 -x,-y,-z
4 x,1/2-y,z
_cell_length_a                   13.9401(9)
_cell_length_b                   23.1952(15)
_cell_length_c                   14.6689(10)
_cell_angle_alpha                90
_cell_angle_beta                 108.094(1)
_cell_angle_gamma                90
_cell_volume                     4508.54
loop_
_atom_site_label
_atom_site_type_symbol
_atom_site_fract_x
_atom_site_fract_y
_atom_site_fract_z
P1 P 0.1608(2) 0.2500 0.3494(2)
P2 P 0.2032(2) 0.2500 0.0948(2)
W1 W 0.19448(3) 0.401805(14) 0.09960(3)
W2 W 0.15422(3) 0.402806(14) 0.34086(3)
W3 W -0.06224(3) 0.330022(15) 0.24968(3)
W4 W -0.02257(3) 0.329401(15) 0.00672(3)
W5 W 0.39216(3) 0.322970(15) 0.43927(3)
W6 W 0.08633(4) 0.2500 -0.15692(3)
W7 W 0.43297(3) 0.322874(15) 0.19856(3)
W8 W -0.01653(4) 0.2500 0.47769(4)
W9 W 0.20191(3) 0.322429(14) 0.56830(2)
W10 W 0.30415(3) 0.323412(14) -0.06518(2)
Mn1 Mn 0.29135(11) 0.43850(6) 0.75778(10)
O1 O 0.2203(6) 0.2500 -0.0071(5)
O2 O -0.0420(4) 0.3411(2) 0.1279(4)
O3 O 0.1561(4) 0.4060(2) 0.2123(4)
O4 O 0.3594(4) 0.3705(2) -0.1257(4)
O5 O 0.2346(6) 0.2500 0.6320(6)
O6 O 0.4307(4) 0.3145(2) 0.3280(4)
O7 O 0.4000(4) 0.3185(2) 0.0587(4)
O8 O 0.1840(4) 0.3070(2) -0.1662(4)
O9 O 0.3071(6) 0.2500 0.1696(5)
O10 O 0.3548(6) 0.2500 -0.0937(6)
O11 O 0.1462(6) 0.2500 0.4525(5)
O12 O 0.2331(4) 0.3733(2) -0.0089(4)
O13 O 0.3215(4) 0.3741(2) 0.1734(4)
O14 O 0.0648(4) 0.3076(2) 0.5616(4)
O15 O -0.0483(4) 0.3058(2) 0.3775(4)
O16 O 0.0293(4) 0.3052(2) -0.0947(4)
O17 O 0.4544(6) 0.2500 0.4853(6)
O18 O 0.2372(4) 0.3685(2) 0.6656(4)
O19 O -0.0499(6) 0.2500 0.0184(6)
O20 O -0.0840(6) 0.2500 0.2152(6)
O21 O 0.5006(6) 0.2500 0.2071(6)
O22 O 0.2891(4) 0.3742(2) 0.3740(4)
O23 O 0.0563(5) 0.3980(2) 0.0235(4)
O24 O 0.3218(4) 0.3175(2) 0.5339(4)
O25 O 0.1105(4) 0.3046(2) 0.2985(4)
O26 O 0.1553(4) 0.3733(2) 0.4644(4)
O27 O 0.2746(6) 0.2500 0.3663(6)
O28 O 0.1434(4) 0.3046(2) 0.0999(4)
O29 O -0.1209(7) 0.2500 0.5143(6)
O30 O 0.0109(4) 0.3993(2) 0.2978(4)
O31 O 0.4859(5) 0.3670(3) 0.5033(4)
O32 O 0.2176(5) 0.4730(2) 0.0889(4)
O33 O -0.1357(5) 0.3534(3) -0.0650(4)
O34 O 0.5341(4) 0.3677(3) 0.2204(4)
O35 O 0.1732(5) 0.4736(3) 0.3707(4)
O36 O 0.0033(6) 0.2500 -0.2704(6)
O37 O -0.1828(5) 0.3540(3) 0.2217(5)
C1 C 0.0512(9) 0.4979(4) 0.8712(8)
H1 H 0.0486 0.5269 0.9142
C2 C 0.1417(8) 0.4876(4) 0.8505(7)
C3 C 0.0624(7) 0.4154(4) 0.7448(7)
H2 H 0.0655 0.3871 0.7007
C4 C 0.2412(9) 0.5657(4) 0.9590(7)
H3 H 0.1852 0.5758 0.9773
C5 C 0.2358(8) 0.5209(4) 0.8941(7)
C6 C 0.4272(9) 0.4971(4) 0.6565(8)
C7 C -0.0327(8) 0.4658(5) 0.8288(9)
H4 H -0.0922 0.4722 0.8432
C8 C -0.0278(8) 0.4234(5) 0.7641(8)
H5 H -0.0838 0.4008 0.7342
C9 C 0.4122(10) 0.5792(5) 0.9675(8)
H6 H 0.4729 0.5990 0.9918
C10 C 0.4027(9) 0.5342(5) 0.9032(8)
H7 H 0.4584 0.5233 0.8851
C11 C 0.3286(10) 0.5937(5) 0.9942(7)
H8 H 0.3333 0.6237 1.0375
C12 C 0.5159(8) 0.4265(5) 0.7565(9)
H9 H 0.5173 0.3969 0.7997
C13 C 0.3267(9) 0.5262(5) 0.6127(8)
C14 C 0.1434(11) 0.5758(5) 0.5437(9)
H10 H 0.0797 0.5925 0.5220
C15 C 0.1586(10) 0.5297(5) 0.6040(9)
H11 H 0.1044 0.5149 0.6207
C16 C 0.5142(11) 0.5121(6) 0.6348(11)
H12 H 0.5119 0.5419 0.5919
C17 C 0.6034(10) 0.4396(6) 0.7381(11)
H13 H 0.6628 0.4195 0.7668
C18 C 0.2154(14) 0.5969(6) 0.5159(11)
H14 H 0.2028 0.6276 0.4732
C19 C 0.3105(13) 0.5737(6) 0.5497(10)
H15 H 0.3634 0.5891 0.5314
C20 C 0.5995(11) 0.4848(7) 0.6740(12)
H16 H 0.6572 0.4955 0.6591
N1 N 0.3142(7) 0.5058(3) 0.8659(6)
N2 N 0.1456(6) 0.4465(3) 0.7867(6)
N3 N 0.2488(7) 0.5053(4) 0.6395(7)
N4 N 0.4280(7) 0.4535(4) 0.7162(6)
O25C O 0.1105(4) 0.1954(2) 0.2985(4)
O28C O 0.1434(4) 0.1954(2) 0.0999(4)
W1C W 0.19448(3) 0.098195(14) 0.09960(3)
W2C W 0.15422(3) 0.097194(14) 0.34086(3)
W3C W -0.06224(3) 0.169978(15) 0.24968(3)
W4C W -0.02257(3) 0.170599(15) 0.00672(3)
W5C W 0.39216(3) 0.177030(15) 0.43927(3)
W7C W 0.43297(3) 0.177126(15) 0.19856(3)
W9C W 0.20191(3) 0.177571(14) 0.56830(2)
W10C W 0.30415(3) 0.176588(14) -0.06518(2)
Mn1C Mn 0.29135(11) 0.06150(6) 0.75778(10)
O2C O -0.0420(4) 0.1589(2) 0.1279(4)
O3C O 0.1561(4) 0.0940(2) 0.2123(4)
O4C O 0.3594(4) 0.1295(2) -0.1257(4)
O6C O 0.4307(4) 0.1855(2) 0.3280(4)
O7C O 0.4000(4) 0.1815(2) 0.0587(4)
O8C O 0.1840(4) 0.1930(2) -0.1662(4)
O12C O 0.2331(4) 0.1267(2) -0.0089(4)
O13C O 0.3215(4) 0.1259(2) 0.1734(4)
O14C O 0.0648(4) 0.1924(2) 0.5616(4)
O15C O -0.0483(4) 0.1942(2) 0.3775(4)
O16C O 0.0293(4) 0.1948(2) -0.0947(4)
O18C O 0.2372(4) 0.1315(2) 0.6656(4)
O22C O 0.2891(4) 0.1258(2) 0.3740(4)
O23C O 0.0563(5) 0.1020(2) 0.0235(4)
O24C O 0.3218(4) 0.1825(2) 0.5339(4)
O26C O 0.1553(4) 0.1267(2) 0.4644(4)
O30C O 0.0109(4) 0.1007(2) 0.2978(4)
O31C O 0.4859(5) 0.1330(3) 0.5033(4)
O32C O 0.2176(5) 0.0270(2) 0.0889(4)
O33C O -0.1357(5) 0.1466(3) -0.0650(4)
O34C O 0.5341(4) 0.1323(3) 0.2204(4)
O35C O 0.1732(5) 0.0264(3) 0.3707(4)
O37C O -0.1828(5) 0.1460(3) 0.2217(5)
C1C C 0.0512(9) 0.0021(4) 0.8712(8)
H1C H 0.0486 -0.0269 0.9142
C2C C 0.1417(8) 0.0124(4) 0.8505(7)
C3C C 0.0624(7) 0.0846(4) 0.7448(7)
H2C H 0.0655 0.1129 0.7007
C4C C 0.2412(9) -0.0657(4) 0.9590(7)
H3C H 0.1852 -0.0758 0.9773
C5C C 0.2358(8) -0.0209(4) 0.8941(7)
C6C C 0.4272(9) 0.0029(4) 0.6565(8)
C7C C -0.0327(8) 0.0342(5) 0.8288(9)
H4C H -0.0922 0.0278 0.8432
C8C C -0.0278(8) 0.0766(5) 0.7641(8)
H5C H -0.0838 0.0992 0.7342
C9C C 0.4122(10) -0.0792(5) 0.9675(8)
H6C H 0.4729 -0.0990 0.9918
C10C C 0.4027(9) -0.0342(5) 0.9032(8)
H7C H 0.4584 -0.0233 0.8851
C11C C 0.3286(10) -0.0937(5) 0.9942(7)
H8C H 0.3333 -0.1237 1.0375
C12C C 0.5159(8) 0.0735(5) 0.7565(9)
H9C H 0.5173 0.1031 0.7997
C13C C 0.3267(9) -0.0262(5) 0.6127(8)
C14C C 0.1434(11) -0.0758(5) 0.5437(9)
H10C H 0.0797 -0.0925 0.5220
C15C C 0.1586(10) -0.0297(5) 0.6040(9)
H11C H 0.1044 -0.0149 0.6207
C16C C 0.5142(11) -0.0121(6) 0.6348(11)
H12C H 0.5119 -0.0419 0.5919
C17C C 0.6034(10) 0.0604(6) 0.7381(11)
H13C H 0.6628 0.0805 0.7668
C18C C 0.2154(14) -0.0969(6) 0.5159(11)
H14C H 0.2028 -0.1276 0.4732
C19C C 0.3105(13) -0.0737(6) 0.5497(10)
H15C H 0.3634 -0.0891 0.5314
C20C C 0.5995(11) 0.0152(7) 0.6740(12)
H16C H 0.6572 0.0045 0.6591
N1C N 0.3142(7) -0.0058(3) 0.8659(6)
N2C N 0.1456(6) 0.0535(3) 0.7867(6)
N3C N 0.2488(7) -0.0053(4) 0.6395(7)
N4C N 0.4280(7) 0.0465(4) 0.7162(6)
Mn1_2 Mn 0.29135(11) 0.43850(6) -0.24222(10)
Mn1C_2 Mn 0.29135(11) 0.06150(6) -0.24222(10)
O4_2 O 0.3594(4) 0.3705(2) 0.8743(4)
O4C_2 O 0.3594(4) 0.1295(2) 0.8743(4)
C21 C 0.5782(11) 0.2500 0.0331(11)
H17 H 0.5158 0.2500 0.0438
C22 C 0.6645(14) 0.2500 0.0990(13)
H18 H 0.6731 0.2500 0.1645
C23 C 0.6966(12) 0.2500 -0.0359(12)
H19 H 0.7313 0.2500 -0.0807
N5 N 0.7395(9) 0.2500 0.0612(9)
N6 N 0.5927(12) 0.2500 -0.0565(14)
O38 O 0.444(2) 0.2322(13) 0.744(2)
C24? C 0.6648(19) 0.2827(12) 0.7130(19)
N7? N 0.742(3) 0.3325(17) 0.703(3)
C25? C 0.779(2) 0.2744(14) 0.733(3)
H20? H 0.8267 0.2995 0.7790
C26? C 0.7229(18) 0.2500 0.6034(18)
H21? H 0.7200 0.2500 0.5392
N8? N 0.797(2) 0.242(3) 0.661(2)
N9? N 0.6364(11) 0.2500 0.6223(12)
H22? H 0.6265 0.3105 0.7382
O39? O 0.457(2) 0.2654(13) 0.717(2)
loop_
_geom_bond_atom_site_label_1
_geom_bond_atom_site_label_2
_geom_bond_site_symmetry_1
_geom_bond_site_symmetry_2
P1 O11 1_555 1_555
P2 O1 1_555 1_555
W1 O3 1_555 1_555
W2 O3 1_555 1_555
W3 O2 1_555 1_555
W4 O2 1_555 1_555
W5 O6 1_555 1_555
W6 O1 1_555 1_555
W7 O6 1_555 1_555
W8 O11 1_555 1_555
W9 O5 1_555 1_555
W10 O1 1_555 1_555
Mn1 O18 1_555 1_555
O1 W10C 1_555 1_555
O4 W10 1_555 1_555
O5 W9C 1_555 1_555
O7 W7 1_555 1_555
O8 W6 1_555 1_555
O9 P2 1_555 1_555
O10 W10 1_555 1_555
O11 W9 1_555 1_555
O12 W1 1_555 1_555
O13 W1 1_555 1_555
O14 W8 1_555 1_555
O15 W3 1_555 1_555
O16 W4 1_555 1_555
O17 W5 1_555 1_555
O18 W9 1_555 1_555
O19 W4 1_555 1_555
O20 W3 1_555 1_555
O21 W7 1_555 1_555
O22 W2 1_555 1_555
O23 W1 1_555 1_555
O24 W5 1_555 1_555
O25 P1 1_555 1_555
O26 W2 1_555 1_555
O27 P1 1_555 1_555
O28 P2 1_555 1_555
O29 W8 1_555 1_555
O30 W2 1_555 1_555
O31 W5 1_555 1_555
O32 W1 1_555 1_555
O33 W4 1_555 1_555
O34 W7 1_555 1_555
O35 W2 1_555 1_555
O36 W6 1_555 1_555
O37 W3 1_555 1_555
C1 H1 1_555 1_555
C2 C1 1_555 1_555
C3 H2 1_555 1_555
C4 H3 1_555 1_555
C5 C2 1_555 1_555
C6 C13 1_555 1_555
C7 C1 1_555 1_555
H4 C7 1_555 1_555
C8 C3 1_555 1_555
H5 C8 1_555 1_555
C9 H6 1_555 1_555
C10 C9 1_555 1_555
H7 C10 1_555 1_555
C11 C4 1_555 1_555
H8 C11 1_555 1_555
C12 H9 1_555 1_555
C13 C19 1_555 1_555
C14 H10 1_555 1_555
C15 C14 1_555 1_555
H11 C15 1_555 1_555
C16 C6 1_555 1_555
H12 C16 1_555 1_555
C17 C12 1_555 1_555
H13 C17 1_555 1_555
C18 C14 1_555 1_555
H14 C18 1_555 1_555
C19 C18 1_555 1_555
H15 C19 1_555 1_555
C20 C16 1_555 1_555
H16 C20 1_555 1_555
N1 Mn1 1_555 1_555
N2 Mn1 1_555 1_555
N3 Mn1 1_555 1_555
N4 Mn1 1_555 1_555
C21 H17 1_555 1_555
C22 C21 1_555 1_555
H18 C22 1_555 1_555
C23 H19 1_555 1_555
N5 C22 1_555 1_555
N6 C21 1_555 1_555
O25C P1 1_555 1_555
O28C P2 1_555 1_555
W1C O28C 1_555 1_555
W2C O25C 1_555 1_555
W3C O20 1_555 1_555
W4C O19 1_555 1_555
W5C O17 1_555 1_555
W7C O9 1_555 1_555
W9C O11 1_555 1_555
W10C O10 1_555 1_555
Mn1C O18C 1_555 1_555
O2C W3C 1_555 1_555
O3C W1C 1_555 1_555
O4C W10C 1_555 1_555
O6C W5C 1_555 1_555
O7C W7C 1_555 1_555
O8C W6 1_555 1_555
O12C W1C 1_555 1_555
O13C W1C 1_555 1_555
O14C W8 1_555 1_555
O15C W8 1_555 1_555
O16C W6 1_555 1_555
O18C W9C 1_555 1_555
O22C W2C 1_555 1_555
O23C W1C 1_555 1_555
O24C W5C 1_555 1_555
O26C W2C 1_555 1_555
O30C W2C 1_555 1_555
O31C W5C 1_555 1_555
O32C W1C 1_555 1_555
O33C W4C 1_555 1_555
O34C W7C 1_555 1_555
O35C W2C 1_555 1_555
O37C W3C 1_555 1_555
C1C H1C 1_555 1_555
C2C C1C 1_555 1_555
C3C H2C 1_555 1_555
C4C H3C 1_555 1_555
C5C C2C 1_555 1_555
C6C C13C 1_555 1_555
C7C C1C 1_555 1_555
H4C C7C 1_555 1_555
C8C C3C 1_555 1_555
H5C C8C 1_555 1_555
C9C H6C 1_555 1_555
C10C C9C 1_555 1_555
H7C C10C 1_555 1_555
C11C C4C 1_555 1_555
H8C C11C 1_555 1_555
C12C H9C 1_555 1_555
C13C C19C 1_555 1_555
C14C H10C 1_555 1_555
C15C C14C 1_555 1_555
H11C C15C 1_555 1_555
C16C C6C 1_555 1_555
H12C C16C 1_555 1_555
C17C C12C 1_555 1_555
H13C C17C 1_555 1_555
C18C C14C 1_555 1_555
H14C C18C 1_555 1_555
C19C C18C 1_555 1_555
H15C C19C 1_555 1_555
C20C C16C 1_555 1_555
H16C C20C 1_555 1_555
N1C Mn1C 1_555 1_555
N2C Mn1C 1_555 1_555
N3C Mn1C 1_555 1_555
N4C Mn1C 1_555 1_555
Mn1_2 O4 1_555 1_555
Mn1C_2 O4C 1_555 1_555
O4_2 Mn1 1_555 1_555
O4C_2 Mn1C 1_555 1_555
W1 O28 1_555 1_555
W2 O25 1_555 1_555
W3 O25 1_555 1_555
W3 O30 1_555 1_555
W4 O23 1_555 1_555
W4 O28 1_555 1_555
W5 O22 1_555 1_555
W5 O27 1_555 1_555
W6 O16 1_555 1_555
W7 O9 1_555 1_555
W7 O13 1_555 1_555
W8 O15 1_555 1_555
W9 O14 1_555 1_555
W9 O24 1_555 1_555
W9 O26 1_555 1_555
W10 O7 1_555 1_555
W10 O8 1_555 1_555
W10 O12 1_555 1_555
O21 W7C 1_555 1_555
O27 W5C 1_555 1_555
C2 N2 1_555 1_555
C3 N2 1_555 1_555
C4 C5 1_555 1_555
C5 N1 1_555 1_555
C6 N4 1_555 1_555
C7 C8 1_555 1_555
C9 C11 1_555 1_555
C10 N1 1_555 1_555
C12 N4 1_555 1_555
C13 N3 1_555 1_555
C15 N3 1_555 1_555
C17 C20 1_555 1_555
C23 N5 1_555 1_555
C23 N6 1_555 1_555
O25C W3C 1_555 1_555
O28C W4C 1_555 1_555
W2C O3C 1_555 1_555
W3C O15C 1_555 1_555
W3C O30C 1_555 1_555
W4C O2C 1_555 1_555
W4C O16C 1_555 1_555
W4C O23C 1_555 1_555
W5C O22C 1_555 1_555
W7C O6C 1_555 1_555
W7C O13C 1_555 1_555
W9C O14C 1_555 1_555
W9C O24C 1_555 1_555
W9C O26C 1_555 1_555
W10C O7C 1_555 1_555
W10C O8C 1_555 1_555
W10C O12C 1_555 1_555
C2C N2C 1_555 1_555
C3C N2C 1_555 1_555
C4C C5C 1_555 1_555
C5C N1C 1_555 1_555
C6C N4C 1_555 1_555
C7C C8C 1_555 1_555
C9C C11C 1_555 1_555
C10C N1C 1_555 1_555
C12C N4C 1_555 1_555
C13C N3C 1_555 1_555
C15C N3C 1_555 1_555
C17C C20C 1_555 1_555

#END
