
#######################################################################
#
#                 Cambridge Crystallographic Data Centre
#                                CCDC 
#
#######################################################################
#
# If this CIF has been generated from an entry in the Cambridge 
# Structural Database, then it will include bibliographic, chemical, 
# crystal, experimental, refinement or atomic coordinate data resulting 
# from the CCDC's data processing and validation procedures.
#
#######################################################################

data_WEXTIE
_symmetry_cell_setting           trigonal
_symmetry_space_group_name_H-M   'P 32 2 1'
_symmetry_Int_Tables_number      154
_space_group_name_Hall           'P 32 2"'
loop_
_symmetry_equiv_pos_site_id
_symmetry_equiv_pos_as_xyz
1 x,y,z
2 -y,x-y,2/3+z
3 -x+y,-x,1/3+z
4 y,x,-z
5 x-y,-y,1/3-z
6 -x,-x+y,2/3-z
_cell_length_a                   10.2480(11)
_cell_length_b                   10.2480(11)
_cell_length_c                   26.943(6)
_cell_angle_alpha                90
_cell_angle_beta                 90
_cell_angle_gamma                120
_cell_volume                     2450.5
loop_
_atom_site_label
_atom_site_type_symbol
_atom_site_fract_x
_atom_site_fract_y
_atom_site_fract_z
Co1 Co 0.91093(5) 1.0000 0.1667
N1 N 0.6903(3) 0.8724(3) 0.13380(10)
N2 N -0.0061(3) 0.8575(3) 0.13837(9)
C1 C 0.3893(3) 0.7147(3) 0.10235(11)
C2 C 0.4564(4) 0.6420(4) 0.12566(12)
H1 H 0.4012 0.5388 0.1314
C3 C 0.6057(4) 0.7240(4) 0.14028(12)
H2 H 0.6490 0.6732 0.1553
C4 C 0.6251(4) 0.9414(4) 0.11082(15)
H3 H 0.6827 1.0448 0.1056
C5 C 0.4788(4) 0.8686(3) 0.09465(13)
H4 H 0.4397 0.9219 0.0786
C6 C 0.2273(3) 0.6289(3) 0.08414(11)
C7 C 0.1436(3) 0.7101(3) 0.10179(11)
C8 C 0.0894(5) 0.7786(4) 0.07074(12)
H5 H 0.1019 0.7771 0.0366
C9 C 0.0160(4) 0.8500(4) 0.09028(12)
H6 H -0.0196 0.8950 0.0684
C10 C 0.0454(4) 0.7903(4) 0.16861(12)
H7 H 0.0310 0.7929 0.2026
C11 C 0.1193(4) 0.7167(4) 0.15175(13)
H8 H 0.1527 0.6714 0.1744
C12 C 0.3055(5) 0.5334(4) 0.00699(13)
H9 H 0.4045 0.5762 0.0221
H10 H 0.2480 0.4282 0.0166
C13 C 0.3225(5) 0.5437(5) -0.04928(14)
H11 H 0.3508 0.4713 -0.0605
H12 H 0.2257 0.5162 -0.0640
O1 O 0.1587(3) 0.4853(2) 0.10753(8)
H13 H 0.0950 0.4221 0.0890
N3 N 0.2264(4) 0.6164(4) 0.02655(11)
H14 H 0.1852 0.6528 0.0074
N4 N 0.9353(4) 1.1473(3) 0.06093(11)
O2 O 0.9381(4) 1.2610(3) 0.04537(11)
O3 O 0.9867(3) 1.1488(3) 0.10366(8)
O4 O 0.8757(4) 1.0305(4) 0.03629(11)
C14 C 0.4366(8) 0.6963(7) -0.0674(2)
H15 H 0.4420 0.6952 -0.1029
H16 H 0.5333 0.7237 -0.0536
H17 H 0.4080 0.7684 -0.0573
N1D N 0.8179(4) 1.1276(3) 0.19953(10)
N2D N 0.1364(4) 1.1425(3) 0.19496(9)
C1D C 0.6746(4) 1.2853(3) 0.23098(11)
C2D C 0.8144(6) 1.3580(4) 0.20767(12)
H1D H 0.8624 1.4612 0.2019
C3D C 0.8817(6) 1.2760(4) 0.19305(12)
H2D H 0.9758 1.3268 0.1780
C4D C 0.6837(6) 1.0586(4) 0.22251(15)
H3D H 0.6379 0.9552 0.2277
C5D C 0.6102(5) 1.1314(3) 0.23868(13)
H4D H 0.5178 1.0781 0.2547
C6D C 0.5984(4) 1.3711(3) 0.24919(11)
C7D C 0.4335(4) 1.2899(3) 0.23154(11)
C8D C 0.3108(6) 1.2214(4) 0.26259(12)
H5D H 0.3248 1.2229 0.2967
C9D C 0.1660(6) 1.1500(4) 0.24305(12)
H6D H 0.0854 1.1050 0.2649
C10D C 0.2551(6) 1.2097(4) 0.16472(12)
H7D H 0.2381 1.2071 0.1307
C11D C 0.4026(6) 1.2833(4) 0.18158(13)
H8D H 0.4813 1.3286 0.1589
C12D C 0.7721(6) 1.4666(4) 0.32634(13)
H9D H 0.8283 1.4238 0.3112
H10D H 0.8198 1.5718 0.3167
C13D C 0.7788(7) 1.4563(5) 0.38261(14)
H11D H 0.8795 1.5287 0.3938
H12D H 0.7095 1.4838 0.3973
O1D O 0.6734(4) 1.5147(2) 0.22580(8)
H13D H 0.6729 1.5779 0.2443
N3D N 0.6100(6) 1.3836(4) 0.30678(11)
H14D H 0.5324 1.3472 0.3259
N4D N 0.7880(5) 0.8527(3) 0.27240(11)
O2D O 0.6771(5) 0.7390(3) 0.28796(11)
O3D O 0.8379(4) 0.8512(3) 0.22967(8)
O4D O 0.8452(6) 0.9695(4) 0.29704(11)
C14D C 0.7403(11) 1.3037(7) 0.4007(2)
H15D H 0.7468 1.3048 0.4362
H16D H 0.8096 1.2763 0.3869
H17D H 0.6396 1.2316 0.3906
Co1_2 Co -0.08907(5) 1.0000 0.1667
N2_2 N 0.9939(3) 0.8575(3) 0.13837(9)
N2D_2 N 1.1364(4) 1.1425(3) 0.19496(9)
loop_
_geom_bond_atom_site_label_1
_geom_bond_atom_site_label_2
_geom_bond_site_symmetry_1
_geom_bond_site_symmetry_2
Co1 N1 1_555 1_555
N1 C3 1_555 1_555
N2 C9 1_555 1_555
C1 C2 1_555 1_555
C2 H1 1_555 1_555
C3 C2 1_555 1_555
H2 C3 1_555 1_555
C4 N1 1_555 1_555
H3 C4 1_555 1_555
C5 C1 1_555 1_555
H4 C5 1_555 1_555
C6 C1 1_555 1_555
C7 C6 1_555 1_555
C8 C7 1_555 1_555
H5 C8 1_555 1_555
C9 C8 1_555 1_555
H6 C9 1_555 1_555
C10 N2 1_555 1_555
H7 C10 1_555 1_555
C11 C7 1_555 1_555
H8 C11 1_555 1_555
C12 H9 1_555 1_555
H10 C12 1_555 1_555
C13 C12 1_555 1_555
H11 C13 1_555 1_555
H12 C13 1_555 1_555
O1 C6 1_555 1_555
H13 O1 1_555 1_555
N3 C6 1_555 1_555
H14 N3 1_555 1_555
N4 O2 1_555 1_555
O3 Co1 1_555 1_555
O4 N4 1_555 1_555
C14 C13 1_555 1_555
H15 C14 1_555 1_555
H16 C14 1_555 1_555
H17 C14 1_555 1_555
N1D Co1 1_555 1_555
N2D C9D 1_555 1_555
C1D C2D 1_555 1_555
C2D H1D 1_555 1_555
C3D N1D 1_555 1_555
H2D C3D 1_555 1_555
C4D N1D 1_555 1_555
H3D C4D 1_555 1_555
C5D C1D 1_555 1_555
H4D C5D 1_555 1_555
C6D C1D 1_555 1_555
C7D C6D 1_555 1_555
C8D C7D 1_555 1_555
H5D C8D 1_555 1_555
C9D C8D 1_555 1_555
H6D C9D 1_555 1_555
C10D N2D 1_555 1_555
H7D C10D 1_555 1_555
C11D C7D 1_555 1_555
H8D C11D 1_555 1_555
C12D H9D 1_555 1_555
H10D C12D 1_555 1_555
C13D C12D 1_555 1_555
H11D C13D 1_555 1_555
H12D C13D 1_555 1_555
O1D C6D 1_555 1_555
H13D O1D 1_555 1_555
N3D C6D 1_555 1_555
H14D N3D 1_555 1_555
N4D O2D 1_555 1_555
O3D Co1 1_555 1_555
O4D N4D 1_555 1_555
C14D C13D 1_555 1_555
H15D C14D 1_555 1_555
H16D C14D 1_555 1_555
H17D C14D 1_555 1_555
Co1_2 N2 1_555 1_555
N2_2 Co1 1_555 1_555
N2D_2 Co1 1_555 1_555
C4 C5 1_555 1_555
C10 C11 1_555 1_555
C12 N3 1_555 1_555
N4 O3 1_555 1_555
N2D Co1_2 1_555 1_555
C2D C3D 1_555 1_555
C4D C5D 1_555 1_555
C10D C11D 1_555 1_555
C12D N3D 1_555 1_555
N4D O3D 1_555 1_555

#END
