
#######################################################################
#
#                 Cambridge Crystallographic Data Centre
#                                CCDC 
#
#######################################################################
#
# If this CIF has been generated from an entry in the Cambridge 
# Structural Database, then it will include bibliographic, chemical, 
# crystal, experimental, refinement or atomic coordinate data resulting 
# from the CCDC's data processing and validation procedures.
#
#######################################################################

data_WEXYOP
_symmetry_cell_setting           triclinic
_symmetry_space_group_name_H-M   'P -1'
_symmetry_Int_Tables_number      2
_space_group_name_Hall           '-P 1'
loop_
_symmetry_equiv_pos_site_id
_symmetry_equiv_pos_as_xyz
1 x,y,z
2 -x,-y,-z
_cell_length_a                   12.5125(2)
_cell_length_b                   12.5311(2)
_cell_length_c                   15.2681(2)
_cell_angle_alpha                64.6060(10)
_cell_angle_beta                 64.6120(10)
_cell_angle_gamma                68.2920(10)
_cell_volume                     1902.38
loop_
_atom_site_label
_atom_site_type_symbol
_atom_site_fract_x
_atom_site_fract_y
_atom_site_fract_z
Mn1 Mn 0.37673(5) 0.57304(5) 0.07055(5)
Mn2 Mn 0.45434(6) 0.66629(6) 0.19972(5)
Mn3 Mn 0.50971(6) 0.79026(5) -0.04737(5)
O1 O 0.2825(3) 0.4786(2) 0.0809(2)
O2 O 0.3604(3) 0.5445(2) 0.2750(2)
N1 N 0.2960(3) 0.5456(3) 0.2201(3)
O3 O 0.4529(3) 0.6683(3) 0.3222(2)
O4 O 0.5521(3) 0.8587(2) 0.0195(2)
N2 N 0.5467(3) 0.7983(3) 0.1200(3)
O5 O 0.5864(3) 0.8986(2) -0.1689(2)
O6 O 0.4707(2) 0.5936(2) -0.0773(2)
N3 N 0.5065(3) 0.7034(3) -0.1309(3)
O7 O 0.2451(2) 0.7322(2) 0.0284(2)
O8 O 0.3275(2) 0.8932(2) -0.0387(2)
O9 O 0.4687(2) 0.6610(2) 0.0724(2)
O10 O 0.2809(3) 0.8101(3) 0.2028(2)
O11 O 0.6330(4) 0.5336(3) 0.1939(4)
C1 C 0.1656(5) 0.4921(4) 0.1320(4)
C2 C 0.0899(5) 0.4699(5) 0.0986(4)
H1 H 0.1242 0.4436 0.0404
C3 C -0.0318(6) 0.4856(6) 0.1481(5)
H2 H -0.0810 0.4707 0.1233
C4 C -0.0861(5) 0.5227(6) 0.2339(6)
H3 H -0.1717 0.5364 0.2657
C5 C -0.0140(5) 0.5396(5) 0.2726(4)
H4 H -0.0500 0.5627 0.3326
C6 C 0.1128(4) 0.5225(4) 0.2233(4)
C7 C 0.1849(4) 0.5356(4) 0.2690(4)
H5 H 0.1495 0.5368 0.3375
C8 C 0.5336(5) 0.6986(4) 0.3355(4)
C9 C 0.5531(6) 0.6448(5) 0.4303(4)
H6 H 0.5094 0.5859 0.4831
C10 C 0.6364(6) 0.6766(5) 0.4484(5)
H7 H 0.6527 0.6360 0.5116
C11 C 0.6951(6) 0.7681(6) 0.3733(5)
H8 H 0.7475 0.7938 0.3867
C12 C 0.6772(5) 0.8197(5) 0.2819(5)
H9 H 0.7179 0.8818 0.2311
C13 C 0.6006(4) 0.7850(4) 0.2589(4)
C14 C 0.5946(4) 0.8393(4) 0.1556(4)
H10 H 0.6275 0.9086 0.1118
C15 C 0.6079(4) 0.9167(4) -0.2665(3)
C16 C 0.6586(4) 1.0141(4) -0.3409(4)
H11 H 0.6784 1.0644 -0.3207
C17 C 0.6805(5) 1.0384(4) -0.4444(4)
H12 H 0.7155 1.1048 -0.4941
C18 C 0.6519(5) 0.9666(5) -0.4753(4)
H13 H 0.6642 0.9853 -0.5457
C19 C 0.6057(5) 0.8685(4) -0.4038(4)
H14 H 0.5883 0.8180 -0.4256
C20 C 0.5831(4) 0.8403(4) -0.2983(3)
C21 C 0.5373(4) 0.7339(4) -0.2279(3)
H15 H 0.5294 0.6832 -0.2556
C22 C 0.2386(4) 0.8439(4) -0.0031(3)
C23 C 0.1157(4) 0.9260(3) -0.0016(3)
C24 C 0.0972(4) 1.0510(3) -0.0332(3)
H16 H 0.1634 1.0864 -0.0551
C25 C 0.0164(4) 0.8755(4) 0.0333(3)
H17 H 0.0272 0.7898 0.0573
C26 C 0.2653(4) 0.9225(4) 0.1671(4)
H18 H 0.3344 0.9562 0.1239
N4 N 0.1569(4) 0.9976(3) 0.1864(3)
C27 C 0.1439(5) 1.1283(4) 0.1470(4)
H19 H 0.1059 1.1607 0.2042
H20 H 0.0929 1.1654 0.1027
H21 H 0.2242 1.1468 0.1073
C28 C 0.0466(5) 0.9523(5) 0.2482(4)
H22 H -0.0104 0.9885 0.2093
H23 H 0.0092 0.9741 0.3111
H24 H 0.0669 0.8638 0.2658
C29 C 0.6828(5) 0.4461(6) 0.1689(4)
H25 H 0.7031 0.4557 0.0989
N5 N 0.7121(4) 0.3383(4) 0.2292(4)
C30 C 0.6742(10) 0.3212(7) 0.3370(6)
H26 H 0.7458 0.2880 0.3596
H27 H 0.6201 0.2648 0.3757
H28 H 0.6310 0.3994 0.3488
C31 C 0.7764(8) 0.2342(8) 0.1958(9)
H29 H 0.7250 0.1756 0.2288
H30 H 0.8509 0.1965 0.2145
H31 H 0.7974 0.2591 0.1213
O7A O -0.2451(2) 1.2678(2) -0.0284(2)
O8A O -0.3275(2) 1.1068(2) 0.0387(2)
C22A C -0.2386(4) 1.1561(4) 0.0031(3)
C23A C -0.1157(4) 1.0740(3) 0.0016(3)
C24A C -0.0972(4) 0.9490(3) 0.0332(3)
H16A H -0.1634 0.9136 0.0551
C25A C -0.0164(4) 1.1245(4) -0.0333(3)
H17A H -0.0272 1.2102 -0.0573
Mn1A Mn -0.37673(5) 1.42696(5) -0.07055(5)
Mn2A Mn -0.45434(6) 1.33371(6) -0.19972(5)
Mn3A Mn -0.50971(6) 1.20974(5) 0.04737(5)
O1A O -0.2825(3) 1.5214(2) -0.0809(2)
O2A O -0.3604(3) 1.4555(2) -0.2750(2)
N1A N -0.2960(3) 1.4544(3) -0.2201(3)
O3A O -0.4529(3) 1.3317(3) -0.3222(2)
O4A O -0.5521(3) 1.1413(2) -0.0195(2)
N2A N -0.5467(3) 1.2017(3) -0.1200(3)
O5A O -0.5864(3) 1.1014(2) 0.1689(2)
O6A O -0.4707(2) 1.4064(2) 0.0773(2)
N3A N -0.5065(3) 1.2966(3) 0.1309(3)
O9A O -0.4687(2) 1.3390(2) -0.0724(2)
O10A O -0.2809(3) 1.1899(3) -0.2028(2)
O11A O -0.6330(4) 1.4664(3) -0.1939(4)
C1A C -0.1656(5) 1.5079(4) -0.1320(4)
C2A C -0.0899(5) 1.5301(5) -0.0986(4)
H1A H -0.1242 1.5564 -0.0404
C3A C 0.0318(6) 1.5144(6) -0.1481(5)
H2A H 0.0810 1.5293 -0.1233
C4A C 0.0861(5) 1.4773(6) -0.2339(6)
H3A H 0.1717 1.4636 -0.2657
C5A C 0.0140(5) 1.4604(5) -0.2726(4)
H4A H 0.0500 1.4373 -0.3326
C6A C -0.1128(4) 1.4775(4) -0.2233(4)
C7A C -0.1849(4) 1.4644(4) -0.2690(4)
H5A H -0.1495 1.4632 -0.3375
C8A C -0.5336(5) 1.3014(4) -0.3355(4)
C9A C -0.5531(6) 1.3552(5) -0.4303(4)
H6A H -0.5094 1.4141 -0.4831
C10A C -0.6364(6) 1.3234(5) -0.4484(5)
H7A H -0.6527 1.3640 -0.5116
C11A C -0.6951(6) 1.2319(6) -0.3733(5)
H8A H -0.7475 1.2062 -0.3867
C12A C -0.6772(5) 1.1803(5) -0.2819(5)
H9A H -0.7179 1.1182 -0.2311
C13A C -0.6006(4) 1.2150(4) -0.2589(4)
C14A C -0.5946(4) 1.1607(4) -0.1556(4)
H10A H -0.6275 1.0914 -0.1118
C15A C -0.6079(4) 1.0833(4) 0.2665(3)
C16A C -0.6586(4) 0.9859(4) 0.3409(4)
H11A H -0.6784 0.9356 0.3207
C17A C -0.6805(5) 0.9616(4) 0.4444(4)
H12A H -0.7155 0.8952 0.4941
C18A C -0.6519(5) 1.0334(5) 0.4753(4)
H13A H -0.6642 1.0147 0.5457
C19A C -0.6057(5) 1.1315(4) 0.4038(4)
H14A H -0.5883 1.1820 0.4256
C20A C -0.5831(4) 1.1597(4) 0.2983(3)
C21A C -0.5373(4) 1.2661(4) 0.2279(3)
H15A H -0.5294 1.3168 0.2556
C26A C -0.2653(4) 1.0775(4) -0.1671(4)
H18A H -0.3344 1.0438 -0.1239
N4A N -0.1569(4) 1.0024(3) -0.1864(3)
C27A C -0.1439(5) 0.8717(4) -0.1470(4)
H19A H -0.1059 0.8393 -0.2042
H20A H -0.0929 0.8346 -0.1027
H21A H -0.2242 0.8532 -0.1073
C28A C -0.0466(5) 1.0477(5) -0.2482(4)
H22A H 0.0104 1.0115 -0.2093
H23A H -0.0092 1.0259 -0.3111
H24A H -0.0669 1.1362 -0.2658
C29A C -0.6828(5) 1.5539(6) -0.1689(4)
H25A H -0.7031 1.5443 -0.0989
N5A N -0.7121(4) 1.6617(4) -0.2292(4)
C30A C -0.6742(10) 1.6788(7) -0.3370(6)
H26A H -0.7458 1.7120 -0.3596
H27A H -0.6201 1.7352 -0.3757
H28A H -0.6310 1.6006 -0.3488
C31A C -0.7764(8) 1.7658(8) -0.1958(9)
H29A H -0.7250 1.8244 -0.2288
H30A H -0.8509 1.8035 -0.2145
H31A H -0.7974 1.7409 -0.1213
Mn1_2 Mn -0.62327(5) 1.57304(5) 0.07055(5)
Mn1A_2 Mn 0.62327(5) 0.42696(5) -0.07055(5)
O6_2 O -0.5293(2) 1.5936(2) -0.0773(2)
O6A_2 O 0.5293(2) 0.4064(2) 0.0773(2)
O12 O 0.0244(7) 0.3861(8) 0.5263(6)
C32 C 0.0492(6) 0.3056(6) 0.4917(5)
N6 N -0.0354(5) 0.2661(4) 0.4823(3)
C33 C -0.1657(6) 0.3097(6) 0.5267(5)
C34 C 0.0087(7) 0.1913(7) 0.4222(6)
O13? O -0.0582(9) 0.1674(8) 0.3951(7)
loop_
_geom_bond_atom_site_label_1
_geom_bond_atom_site_label_2
_geom_bond_site_symmetry_1
_geom_bond_site_symmetry_2
Mn1 O1 1_555 1_555
Mn2 O2 1_555 1_555
Mn3 O4 1_555 1_555
O1 C1 1_555 1_555
O2 N1 1_555 1_555
N1 Mn1 1_555 1_555
O3 Mn2 1_555 1_555
O4 N2 1_555 1_555
N2 Mn2 1_555 1_555
O5 Mn3 1_555 1_555
O6 Mn1 1_555 1_555
N3 Mn3 1_555 1_555
O7 Mn1 1_555 1_555
O8 Mn3 1_555 1_555
O9 Mn1 1_555 1_555
O10 Mn2 1_555 1_555
O11 Mn2 1_555 1_555
C1 C2 1_555 1_555
C2 H1 1_555 1_555
C3 C2 1_555 1_555
H2 C3 1_555 1_555
C4 C3 1_555 1_555
H3 C4 1_555 1_555
C5 C4 1_555 1_555
H4 C5 1_555 1_555
C6 C1 1_555 1_555
C7 N1 1_555 1_555
H5 C7 1_555 1_555
C8 O3 1_555 1_555
C9 C8 1_555 1_555
H6 C9 1_555 1_555
C10 C9 1_555 1_555
H7 C10 1_555 1_555
C11 C10 1_555 1_555
H8 C11 1_555 1_555
C12 C11 1_555 1_555
H9 C12 1_555 1_555
C13 C8 1_555 1_555
C14 N2 1_555 1_555
H10 C14 1_555 1_555
C15 O5 1_555 1_555
C16 C15 1_555 1_555
H11 C16 1_555 1_555
C17 C16 1_555 1_555
H12 C17 1_555 1_555
C18 C17 1_555 1_555
H13 C18 1_555 1_555
C19 C18 1_555 1_555
H14 C19 1_555 1_555
C20 C15 1_555 1_555
C21 N3 1_555 1_555
H15 C21 1_555 1_555
C22 O7 1_555 1_555
C23 C22 1_555 1_555
C24 C23 1_555 1_555
H16 C24 1_555 1_555
C25 C23 1_555 1_555
H17 C25 1_555 1_555
C26 O10 1_555 1_555
H18 C26 1_555 1_555
N4 C26 1_555 1_555
C27 N4 1_555 1_555
H19 C27 1_555 1_555
H20 C27 1_555 1_555
H21 C27 1_555 1_555
C28 N4 1_555 1_555
H22 C28 1_555 1_555
H23 C28 1_555 1_555
H24 C28 1_555 1_555
C29 O11 1_555 1_555
H25 C29 1_555 1_555
N5 C29 1_555 1_555
C30 N5 1_555 1_555
H26 C30 1_555 1_555
H27 C30 1_555 1_555
H28 C30 1_555 1_555
C31 N5 1_555 1_555
H29 C31 1_555 1_555
H30 C31 1_555 1_555
H31 C31 1_555 1_555
O12 C32 1_555 1_555
C32 N6 1_555 1_555
N6 C33 1_555 1_555
C34 N6 1_555 1_555
O7A C22A 1_555 1_555
O8A C22A 1_555 1_555
C22A C23A 1_555 1_555
C23A C24A 1_555 1_555
C24A C25 1_555 1_555
H16A C24A 1_555 1_555
C25A C24 1_555 1_555
H17A C25A 1_555 1_555
Mn1A O7A 1_555 1_555
Mn2A O2A 1_555 1_555
Mn3A O8A 1_555 1_555
O1A Mn1A 1_555 1_555
O2A N1A 1_555 1_555
N1A Mn1A 1_555 1_555
O3A Mn2A 1_555 1_555
O4A Mn3A 1_555 1_555
N2A Mn2A 1_555 1_555
O5A Mn3A 1_555 1_555
O6A Mn1A 1_555 1_555
N3A Mn3A 1_555 1_555
O9A Mn1A 1_555 1_555
O10A Mn2A 1_555 1_555
O11A Mn2A 1_555 1_555
C1A O1A 1_555 1_555
C2A C1A 1_555 1_555
H1A C2A 1_555 1_555
C3A C2A 1_555 1_555
H2A C3A 1_555 1_555
C4A C3A 1_555 1_555
H3A C4A 1_555 1_555
C5A C4A 1_555 1_555
H4A C5A 1_555 1_555
C6A C1A 1_555 1_555
C7A N1A 1_555 1_555
H5A C7A 1_555 1_555
C8A O3A 1_555 1_555
C9A C8A 1_555 1_555
H6A C9A 1_555 1_555
C10A C9A 1_555 1_555
H7A C10A 1_555 1_555
C11A C10A 1_555 1_555
H8A C11A 1_555 1_555
C12A C11A 1_555 1_555
H9A C12A 1_555 1_555
C13A C8A 1_555 1_555
C14A N2A 1_555 1_555
H10A C14A 1_555 1_555
C15A O5A 1_555 1_555
C16A C15A 1_555 1_555
H11A C16A 1_555 1_555
C17A C16A 1_555 1_555
H12A C17A 1_555 1_555
C18A C17A 1_555 1_555
H13A C18A 1_555 1_555
C19A C18A 1_555 1_555
H14A C19A 1_555 1_555
C20A C15A 1_555 1_555
C21A N3A 1_555 1_555
H15A C21A 1_555 1_555
C26A O10A 1_555 1_555
H18A C26A 1_555 1_555
N4A C26A 1_555 1_555
C27A N4A 1_555 1_555
H19A C27A 1_555 1_555
H20A C27A 1_555 1_555
H21A C27A 1_555 1_555
C28A N4A 1_555 1_555
H22A C28A 1_555 1_555
H23A C28A 1_555 1_555
H24A C28A 1_555 1_555
C29A O11A 1_555 1_555
H25A C29A 1_555 1_555
N5A C29A 1_555 1_555
C30A N5A 1_555 1_555
H26A C30A 1_555 1_555
H27A C30A 1_555 1_555
H28A C30A 1_555 1_555
C31A N5A 1_555 1_555
H29A C31A 1_555 1_555
H30A C31A 1_555 1_555
H31A C31A 1_555 1_555
Mn1_2 O6A 1_555 1_555
Mn1A_2 O6 1_555 1_555
O6_2 Mn1A 1_555 1_555
O6A_2 Mn1 1_555 1_555
Mn2 O9 1_555 1_555
Mn3 O9 1_555 1_555
O6 N3 1_555 1_555
O8 C22 1_555 1_555
C5 C6 1_555 1_555
C6 C7 1_555 1_555
C12 C13 1_555 1_555
C13 C14 1_555 1_555
C19 C20 1_555 1_555
C20 C21 1_555 1_555
C23A C25A 1_555 1_555
Mn2A O9A 1_555 1_555
Mn3A O9A 1_555 1_555
O4A N2A 1_555 1_555
O6A N3A 1_555 1_555
C5A C6A 1_555 1_555
C6A C7A 1_555 1_555
C12A C13A 1_555 1_555
C13A C14A 1_555 1_555
C19A C20A 1_555 1_555
C20A C21A 1_555 1_555
Mn1_2 O6_2 1_555 1_555
Mn1A_2 O6A_2 1_555 1_555

#END
