
#######################################################################
#
#                 Cambridge Crystallographic Data Centre
#                                CCDC 
#
#######################################################################
#
# If this CIF has been generated from an entry in the Cambridge 
# Structural Database, then it will include bibliographic, chemical, 
# crystal, experimental, refinement or atomic coordinate data resulting 
# from the CCDC's data processing and validation procedures.
#
#######################################################################

data_WEYHIT
_symmetry_cell_setting           monoclinic
_symmetry_space_group_name_H-M   'P 21/c'
_symmetry_Int_Tables_number      14
_space_group_name_Hall           '-P 2ybc'
loop_
_symmetry_equiv_pos_site_id
_symmetry_equiv_pos_as_xyz
1 x,y,z
2 -x,1/2+y,1/2-z
3 -x,-y,-z
4 x,1/2-y,1/2+z
_cell_length_a                   11.5417(10)
_cell_length_b                   19.8125(17)
_cell_length_c                   15.9144(14)
_cell_angle_alpha                90
_cell_angle_beta                 99.277(2)
_cell_angle_gamma                90
_cell_volume                     3591.55
loop_
_atom_site_label
_atom_site_type_symbol
_atom_site_fract_x
_atom_site_fract_y
_atom_site_fract_z
Zn1 Zn 0.66007(3) 0.636196(15) 0.223181(18)
C1 C 0.6539(2) 0.48934(13) 0.25490(17)
C2 C 0.6483(2) 0.46839(13) 0.16900(16)
C3 C 0.6427(3) 0.39614(14) 0.17256(17)
C4 C 0.6449(3) 0.34294(14) 0.10573(18)
H1 H 0.5889 0.3557 0.0544
H2 H 0.6178 0.2997 0.1270
C5 C 0.7651(3) 0.33225(14) 0.08073(18)
C6 C 0.8678(3) 0.35091(17) 0.1332(2)
H3 H 0.8634 0.3718 0.1864
C7 C 0.9769(3) 0.3398(2) 0.1097(3)
H4 H 1.0463 0.3529 0.1466
C8 C 0.9841(4) 0.3097(2) 0.0333(3)
H5 H 1.0585 0.3019 0.0168
C9 C 0.8830(4) 0.2908(2) -0.0195(2)
H6 H 0.8878 0.2696 -0.0724
C10 C 0.7750(3) 0.30249(18) 0.0036(2)
H7 H 0.7060 0.2899 -0.0341
C11 C 0.6492(2) 0.51371(13) 0.09786(16)
C12 C 0.6650(3) 0.48823(15) 0.01118(18)
H8 H 0.6126 0.5136 -0.0332
H9 H 0.6427 0.4400 0.0059
C13 C 0.7921(3) 0.49650(18) -0.0025(2)
H10 H 0.8138 0.5443 0.0020
H11 H 0.8004 0.4798 -0.0592
H12 H 0.8438 0.4707 0.0408
C14 C 0.6562(2) 0.68298(13) 0.05771(16)
C15 C 0.6606(2) 0.72587(14) -0.01930(16)
C16 C 0.6754(3) 0.69708(14) -0.09643(18)
H13 H 0.6827 0.6495 -0.1013
C17 C 0.6793(3) 0.73801(14) -0.16580(18)
H14 H 0.6899 0.7174 -0.2179
C18 C 0.6551(3) 0.83325(14) -0.08945(18)
H15 H 0.6476 0.8809 -0.0866
C19 C 0.6515(3) 0.79541(15) -0.01597(18)
H16 H 0.6427 0.8172 0.0358
C20 C 0.4037(3) 0.58731(14) 0.20258(18)
H17 H 0.4432 0.5470 0.1914
C21 C 0.2859(3) 0.58339(15) 0.20847(19)
H18 H 0.2462 0.5413 0.2020
C22 C 0.2260(3) 0.64207(15) 0.22404(18)
C23 C 0.2881(2) 0.70166(15) 0.23184(19)
H19 H 0.2501 0.7428 0.2415
C24 C 0.4063(3) 0.70132(15) 0.22560(18)
H20 H 0.4478 0.7429 0.2313
N1 N 0.6514(3) 0.43120(12) 0.30113(15)
N2 N 0.6446(3) 0.37385(12) 0.25105(16)
N3 N 0.6440(2) 0.57859(11) 0.11175(13)
N4 N 0.6461(2) 0.61868(11) 0.03955(14)
N5 N 0.6689(2) 0.80537(11) -0.16383(14)
N6 N 0.4652(2) 0.64474(11) 0.21180(14)
N7 N -0.1402(10) 0.6338(5) 0.2370(16)
C25 C -0.0678(4) 0.6753(3) 0.2896(4)
H21 H -0.1005 0.7027 0.3289
C26 C 0.0520(4) 0.6793(3) 0.2881(4)
H22 H 0.1011 0.7082 0.3260
C27 C 0.0988(6) 0.6386(5) 0.2281(16)
C28 C 0.0277(5) 0.5910(4) 0.1867(4)
H23 H 0.0589 0.5579 0.1533
C29 C -0.0912(5) 0.5904(4) 0.1928(4)
H24 H -0.1391 0.5563 0.1631
O1 O 0.66158(18) 0.54746(9) 0.29024(11)
O2 O 0.66306(19) 0.71170(9) 0.13128(12)
C30 C 0.7387(5) 0.4722(3) 0.4433(3)
H25 H 0.7743 0.5092 0.4193
C31 C 0.7490(6) 0.4660(3) 0.5311(3)
H26 H 0.7916 0.4987 0.5673
C32 C 0.6968(7) 0.4118(4) 0.5661(3)
H27 H 0.7038 0.4075 0.6262
C33 C 0.6344(7) 0.3639(3) 0.5132(5)
H28 H 0.5988 0.3269 0.5372
C34 C 0.6241(6) 0.3702(3) 0.4254(4)
H29 H 0.5815 0.3374 0.3892
C35 C 0.6763(5) 0.4243(3) 0.3904(2)
Zn1_2 Zn -0.33993(3) 0.636196(15) 0.223181(18)
Zn1C Zn 0.66007(3) 0.863804(15) -0.276819(18)
N5C N 0.6689(2) 0.69463(11) 0.33617(14)
N7_2 N 0.8598(10) 0.6338(5) 0.2370(16)
C36 C 0.3514(7) 0.4178(3) 0.2843(4)
O3 O 0.2328(4) 0.41956(17) 0.2394(2)
N8? N -0.145(3) 0.6404(15) 0.245(6)
C37? C -0.0837(11) 0.6977(8) 0.2355(11)
H30? H -0.1261 0.7389 0.2287
C38? C 0.0354(11) 0.7003(8) 0.2351(11)
H31? H 0.0728 0.7427 0.2321
C39? C 0.1025(19) 0.6403(15) 0.239(6)
C40? C 0.0315(18) 0.5867(12) 0.2200(15)
H32? H 0.0633 0.5465 0.2006
C41? C -0.0863(18) 0.5882(12) 0.2276(14)
H33? H -0.1280 0.5467 0.2192
C42? C 0.5712(4) 0.4743(2) 0.4276(2)
H34? H 0.5388 0.5126 0.3963
C43? C 0.5612(5) 0.4676(2) 0.5130(2)
H35? H 0.5219 0.5013 0.5402
C44? C 0.6085(6) 0.4115(3) 0.5587(2)
H36? H 0.6017 0.4070 0.6171
C45? C 0.6659(6) 0.3622(2) 0.5189(4)
H37? H 0.6983 0.3239 0.5501
C46? C 0.6759(6) 0.3688(3) 0.4334(4)
H38? H 0.7152 0.3351 0.4062
C47? C 0.6286(5) 0.4249(3) 0.3878(2)
loop_
_geom_bond_atom_site_label_1
_geom_bond_atom_site_label_2
_geom_bond_site_symmetry_1
_geom_bond_site_symmetry_2
Zn1 N3 1_555 1_555
C1 C2 1_555 1_555
C2 C3 1_555 1_555
C3 C4 1_555 1_555
C4 H1 1_555 1_555
H2 C4 1_555 1_555
C5 C4 1_555 1_555
C6 C5 1_555 1_555
H3 C6 1_555 1_555
C7 C6 1_555 1_555
H4 C7 1_555 1_555
C8 C7 1_555 1_555
H5 C8 1_555 1_555
C9 C8 1_555 1_555
H6 C9 1_555 1_555
C10 C5 1_555 1_555
H7 C10 1_555 1_555
C11 C2 1_555 1_555
C12 C11 1_555 1_555
H8 C12 1_555 1_555
H9 C12 1_555 1_555
C13 C12 1_555 1_555
H10 C13 1_555 1_555
H11 C13 1_555 1_555
H12 C13 1_555 1_555
C14 C15 1_555 1_555
C15 C16 1_555 1_555
C16 H13 1_555 1_555
C17 C16 1_555 1_555
H14 C17 1_555 1_555
C18 H15 1_555 1_555
C19 C15 1_555 1_555
H16 C19 1_555 1_555
C20 H17 1_555 1_555
C21 C20 1_555 1_555
H18 C21 1_555 1_555
C22 C21 1_555 1_555
C23 C22 1_555 1_555
H19 C23 1_555 1_555
C24 C23 1_555 1_555
H20 C24 1_555 1_555
N1 C1 1_555 1_555
N2 C3 1_555 1_555
N3 C11 1_555 1_555
N4 C14 1_555 1_555
N5 C17 1_555 1_555
N6 Zn1 1_555 1_555
N7 C25 1_555 1_555
C25 H21 1_555 1_555
C26 C25 1_555 1_555
H22 C26 1_555 1_555
C27 C22 1_555 1_555
C28 C27 1_555 1_555
H23 C28 1_555 1_555
C29 N7 1_555 1_555
H24 C29 1_555 1_555
O1 Zn1 1_555 1_555
O2 Zn1 1_555 1_555
C30 H25 1_555 1_555
C31 C30 1_555 1_555
H26 C31 1_555 1_555
C32 C31 1_555 1_555
H27 C32 1_555 1_555
C33 C32 1_555 1_555
H28 C33 1_555 1_555
C34 C33 1_555 1_555
H29 C34 1_555 1_555
C35 N1 1_555 1_555
C36 O3 1_555 1_555
Zn1_2 N7 1_555 1_555
Zn1C N5 1_555 1_555
N5C Zn1 1_555 1_555
N7_2 Zn1 1_555 1_555
C1 O1 1_555 1_555
C9 C10 1_555 1_555
C14 O2 1_555 1_555
C18 C19 1_555 1_555
C18 N5 1_555 1_555
C20 N6 1_555 1_555
C24 N6 1_555 1_555
N1 N2 1_555 1_555
N3 N4 1_555 1_555
C26 C27 1_555 1_555
C28 C29 1_555 1_555
C30 C35 1_555 1_555
C34 C35 1_555 1_555

#END
