
#######################################################################
#
#                 Cambridge Crystallographic Data Centre
#                                CCDC 
#
#######################################################################
#
# If this CIF has been generated from an entry in the Cambridge 
# Structural Database, then it will include bibliographic, chemical, 
# crystal, experimental, refinement or atomic coordinate data resulting 
# from the CCDC's data processing and validation procedures.
#
#######################################################################

data_WEYPAS
_symmetry_cell_setting           monoclinic
_symmetry_space_group_name_H-M   'C c'
_symmetry_Int_Tables_number      9
_space_group_name_Hall           'C -2yc'
loop_
_symmetry_equiv_pos_site_id
_symmetry_equiv_pos_as_xyz
1 x,y,z
2 x,-y,1/2+z
3 1/2+x,1/2+y,z
4 1/2+x,1/2-y,1/2+z
_cell_length_a                   14.491(3)
_cell_length_b                   15.479(2)
_cell_length_c                   17.360(3)
_cell_angle_alpha                90
_cell_angle_beta                 90.30(3)
_cell_angle_gamma                90
_cell_volume                     3893.9
loop_
_atom_site_label
_atom_site_type_symbol
_atom_site_fract_x
_atom_site_fract_y
_atom_site_fract_z
C1 C 0.2534(3) 0.2768(2) 0.2005(2)
C2 C 0.0740(3) 0.3022(2) 0.2264(2)
C3 C 0.0997(2) 0.4777(2) 0.2254(2)
C4 C 0.2805(3) 0.4540(2) 0.1954(2)
C5 C 0.1524(3) 0.3782(2) 0.1132(3)
C6 C 0.3417(3) 0.0272(3) 0.2557(2)
C7 C 0.2807(3) 0.0454(4) 0.3144(3)
H1 H 0.2742 0.1020 0.3315
C8 C 0.2290(4) -0.0199(4) 0.3483(3)
H2 H 0.1874 -0.0065 0.3871
C9 C 0.2391(5) -0.1026(4) 0.3252(4)
H3 H 0.2053 -0.1461 0.3489
C10 C 0.2986(4) -0.1227(3) 0.2671(4)
H4 H 0.3046 -0.1796 0.2506
C11 C 0.3494(3) -0.0586(3) 0.2332(3)
H5 H 0.3902 -0.0729 0.1941
C12 C 0.4455(3) 0.1225(3) 0.0839(3)
C13 C 0.4833(4) 0.0500(3) 0.0500(3)
H6 H 0.5008 0.0034 0.0805
C14 C 0.4953(4) 0.0462(4) -0.0294(3)
H7 H 0.5215 -0.0027 -0.0514
C15 C 0.4693(4) 0.1131(4) -0.0750(3)
H8 H 0.4772 0.1100 -0.1281
C16 C 0.4313(4) 0.1850(4) -0.0425(3)
H9 H 0.4136 0.2310 -0.0737
C17 C 0.4189(3) 0.1904(3) 0.0357(3)
H10 H 0.3925 0.2397 0.0568
C18 C 0.4758(3) 0.2182(3) 0.2837(2)
C19 C 0.4575(3) 0.3058(3) 0.2767(3)
H11 H 0.4300 0.3265 0.2319
C20 C 0.4794(4) 0.3621(3) 0.3345(3)
H12 H 0.4662 0.4205 0.3285
C21 C 0.5202(4) 0.3344(4) 0.4009(3)
H13 H 0.5336 0.3733 0.4402
C22 C 0.5411(4) 0.2491(4) 0.4091(3)
H14 H 0.5703 0.2296 0.4536
C23 C 0.5186(3) 0.1916(3) 0.3510(3)
H15 H 0.5327 0.1334 0.3574
C24 C 0.0450(3) 0.0745(3) 0.1436(2)
C25 C 0.0655(4) -0.0121(3) 0.1535(3)
H16 H 0.0274 -0.0463 0.1839
C26 C 0.1422(4) -0.0485(4) 0.1186(3)
H17 H 0.1553 -0.1068 0.1255
C27 C 0.1985(4) 0.0018(4) 0.0740(3)
H18 H 0.2498 -0.0228 0.0505
C28 C 0.1803(3) 0.0874(4) 0.0637(3)
H19 H 0.2190 0.1211 0.0335
C29 C 0.1042(3) 0.1236(3) 0.0980(3)
H20 H 0.0920 0.1820 0.0908
C30 C -0.1621(3) 0.1965(3) 0.1183(2)
C31 C -0.2532(3) 0.1752(3) 0.1077(3)
H21 H -0.2797 0.1330 0.1387
C32 C -0.3068(4) 0.2155(4) 0.0516(4)
H22 H -0.3686 0.2007 0.0461
C33 C -0.2698(4) 0.2761(4) 0.0051(3)
H23 H -0.3059 0.3023 -0.0327
C34 C -0.1790(4) 0.2987(4) 0.0139(3)
H24 H -0.1530 0.3400 -0.0183
C35 C -0.1261(3) 0.2605(3) 0.0703(3)
H25 H -0.0651 0.2775 0.0767
C36 C -0.0925(4) 0.1124(3) 0.3155(3)
C37 C -0.1803(5) 0.1084(4) 0.3468(3)
H26 H -0.2323 0.1174 0.3162
C38 C -0.1888(7) 0.0904(6) 0.4253(5)
H27 H -0.2471 0.0888 0.4473
C39 C -0.1136(9) 0.0752(5) 0.4701(4)
H28 H -0.1205 0.0611 0.5219
C40 C -0.0284(6) 0.0806(4) 0.4390(4)
H29 H 0.0234 0.0721 0.4699
C41 C -0.0178(4) 0.0986(3) 0.3628(3)
H30 H 0.0414 0.1016 0.3424
N1 N 0.2978(2) 0.2172(2) 0.1903(2)
N2 N 0.0130(2) 0.2544(2) 0.2216(2)
N3 N 0.0521(2) 0.5364(2) 0.2249(2)
N4 N 0.3383(2) 0.5020(2) 0.18161(19)
N5 N 0.1325(3) 0.3789(2) 0.0501(3)
N6 N 0.2045(3) 0.3794(2) 0.3158(3)
O1 O 0.2228(4) 0.3829(3) 0.3788(2)
Fe1 Fe 0.17943(4) 0.37806(3) 0.22262(3)
Sn1 Sn 0.422820(17) 0.125453(18) 0.204624(15)
Sn2 Sn -0.073001(15) 0.130112(17) 0.195355(14)
N3B N 0.5521(2) 0.0364(2) 0.2249(2)
N4B N -0.1617(2) 0.0020(2) 0.18161(19)
Sn1B Sn -0.077180(17) 0.625453(18) 0.204624(15)
Sn2B Sn 0.426999(15) 0.630112(17) 0.195355(14)
loop_
_geom_bond_atom_site_label_1
_geom_bond_atom_site_label_2
_geom_bond_site_symmetry_1
_geom_bond_site_symmetry_2
C1 N1 1_555 1_555
C2 N2 1_555 1_555
C3 N3 1_555 1_555
C4 N4 1_555 1_555
C5 N5 1_555 1_555
C6 C7 1_555 1_555
C7 H1 1_555 1_555
C8 C7 1_555 1_555
H2 C8 1_555 1_555
C9 C8 1_555 1_555
H3 C9 1_555 1_555
C10 C9 1_555 1_555
H4 C10 1_555 1_555
C11 C6 1_555 1_555
H5 C11 1_555 1_555
C12 C13 1_555 1_555
C13 H6 1_555 1_555
C14 C13 1_555 1_555
H7 C14 1_555 1_555
C15 C14 1_555 1_555
H8 C15 1_555 1_555
C16 C15 1_555 1_555
H9 C16 1_555 1_555
C17 C12 1_555 1_555
H10 C17 1_555 1_555
C18 C19 1_555 1_555
C19 H11 1_555 1_555
C20 C19 1_555 1_555
H12 C20 1_555 1_555
C21 C20 1_555 1_555
H13 C21 1_555 1_555
C22 C21 1_555 1_555
H14 C22 1_555 1_555
C23 C18 1_555 1_555
H15 C23 1_555 1_555
C24 C25 1_555 1_555
C25 H16 1_555 1_555
C26 C25 1_555 1_555
H17 C26 1_555 1_555
C27 C26 1_555 1_555
H18 C27 1_555 1_555
C28 C27 1_555 1_555
H19 C28 1_555 1_555
C29 C24 1_555 1_555
H20 C29 1_555 1_555
C30 C31 1_555 1_555
C31 H21 1_555 1_555
C32 C31 1_555 1_555
H22 C32 1_555 1_555
C33 C32 1_555 1_555
H23 C33 1_555 1_555
C34 C33 1_555 1_555
H24 C34 1_555 1_555
C35 C30 1_555 1_555
H25 C35 1_555 1_555
C36 C37 1_555 1_555
C37 H26 1_555 1_555
C38 C37 1_555 1_555
H27 C38 1_555 1_555
C39 C38 1_555 1_555
H28 C39 1_555 1_555
C40 C39 1_555 1_555
H29 C40 1_555 1_555
C41 C36 1_555 1_555
H30 C41 1_555 1_555
N1 Sn1 1_555 1_555
N2 Sn2 1_555 1_555
N3 Sn1B 1_555 1_555
N4 Sn2B 1_555 1_555
N6 O1 1_555 1_555
Fe1 C1 1_555 1_555
Sn1 C6 1_555 1_555
Sn2 C24 1_555 1_555
N3B Sn1 1_555 1_555
N4B Sn2 1_555 1_555
C2 Fe1 1_555 1_555
C3 Fe1 1_555 1_555
C4 Fe1 1_555 1_555
C5 Fe1 1_555 1_555
C10 C11 1_555 1_555
C12 Sn1 1_555 1_555
C16 C17 1_555 1_555
C18 Sn1 1_555 1_555
C22 C23 1_555 1_555
C28 C29 1_555 1_555
C30 Sn2 1_555 1_555
C34 C35 1_555 1_555
C36 Sn2 1_555 1_555
C40 C41 1_555 1_555
N6 Fe1 1_555 1_555

#END
