
#######################################################################
#
#                 Cambridge Crystallographic Data Centre
#                                CCDC 
#
#######################################################################
#
# If this CIF has been generated from an entry in the Cambridge 
# Structural Database, then it will include bibliographic, chemical, 
# crystal, experimental, refinement or atomic coordinate data resulting 
# from the CCDC's data processing and validation procedures.
#
#######################################################################

data_WEYPOG
_symmetry_cell_setting           tetragonal
_symmetry_space_group_name_H-M   'P 4/n'
_symmetry_Int_Tables_number      85
_space_group_name_Hall           '-P 4a'
loop_
_symmetry_equiv_pos_site_id
_symmetry_equiv_pos_as_xyz
1 x,y,z
2 1/2-y,x,z
3 y,1/2-x,z
4 1/2-x,1/2-y,z
5 -x,-y,-z
6 1/2+y,-x,-z
7 -y,1/2+x,-z
8 1/2+x,1/2+y,-z
_cell_length_a                   19.886(3)
_cell_length_b                   19.886(3)
_cell_length_c                   10.595(2)
_cell_angle_alpha                90
_cell_angle_beta                 90
_cell_angle_gamma                90
_cell_volume                     4189.82
loop_
_atom_site_label
_atom_site_type_symbol
_atom_site_fract_x
_atom_site_fract_y
_atom_site_fract_z
C1 C 0.3271(3) 0.0668(4) 0.0334(6)
H1 H 0.3062 0.0227 0.0317
H2 H 0.2935 0.0986 0.0627
C2 C 0.3469(3) 0.0854(3) -0.0983(5)
C3 C 0.3577(3) 0.1525(4) -0.1319(6)
H3 H 0.3533 0.1858 -0.0709
C4 C 0.3745(4) 0.1699(4) -0.2513(7)
H4 H 0.3818 0.2148 -0.2714
C5 C 0.3806(4) 0.1216(7) -0.3428(8)
H5 H 0.3917 0.1335 -0.4252
C6 C 0.3703(4) 0.0558(5) -0.3116(7)
H6 H 0.3744 0.0228 -0.3733
C7 C 0.3542(4) 0.0380(4) -0.1918(6)
H7 H 0.3480 -0.0072 -0.1725
C8 C 0.4670(4) 0.1554(3) 0.1727(6)
H8 H 0.4885 0.1610 0.0912
H9 H 0.4365 0.1930 0.1840
C9 C 0.5197(4) 0.1598(3) 0.2712(6)
C10 C 0.5836(4) 0.1389(4) 0.2493(8)
H10 H 0.5946 0.1216 0.1705
C11 C 0.6325(6) 0.1427(5) 0.3409(13)
H11 H 0.6762 0.1283 0.3246
C12 C 0.6149(7) 0.1691(7) 0.4604(12)
H12 H 0.6467 0.1713 0.5246
C13 C 0.5516(7) 0.1910(6) 0.4810(9)
H13 H 0.5406 0.2100 0.5585
C14 C 0.5036(5) 0.1857(5) 0.3897(7)
H14 H 0.4599 0.1994 0.4066
C15 C 0.4147(4) -0.0168(3) 0.2966(6)
H15 H 0.4600 -0.0189 0.3303
H16 H 0.3842 -0.0087 0.3664
C16 C 0.3977(3) -0.0825(3) 0.2372(5)
C17 C 0.4474(4) -0.1261(3) 0.1947(7)
H17 H 0.4925 -0.1148 0.2038
C18 C 0.4299(6) -0.1860(4) 0.1391(8)
H18 H 0.4636 -0.2141 0.1087
C19 C 0.3660(8) -0.2052(5) 0.1276(9)
H19 H 0.3558 -0.2467 0.0919
C20 C 0.3156(5) -0.1641(5) 0.1678(9)
H20 H 0.2709 -0.1767 0.1577
C21 C 0.3318(4) -0.1033(4) 0.2241(8)
H21 H 0.2975 -0.0757 0.2538
C22 C 0.3004(3) 0.1683(3) 0.3392(5)
C23 C 0.2500 0.2500 0.1788(11)
N1 N 0.3320(3) 0.1214(3) 0.3168(5)
N2 N 0.2500 0.2500 0.0690(10)
N3 N 0.2500 0.2500 0.5172(8)
N4 N 0.4814(3) 0.0126(3) 0.0312(6)
C24 C 0.5186(3) -0.0126(3) -0.0312(6)
O1 O 0.2500 0.2500 0.6222(9)
Fe1 Fe 0.2500 0.2500 0.36047(13)
Sn1 Sn 0.40818(2) 0.064966(19) 0.16650(4)
C1A C 0.4332(4) 0.3271(3) 0.0334(6)
C1B C 0.0668(4) 0.1729(3) 0.0334(6)
C1C C 0.1729(3) 0.4332(4) 0.0334(6)
H1A H 0.4773 0.3062 0.0317
H1B H 0.0227 0.1938 0.0317
H1C H 0.1938 0.4773 0.0317
H2A H 0.4014 0.2935 0.0627
H2B H 0.0986 0.2065 0.0627
H2C H 0.2065 0.4014 0.0627
C2A C 0.4146(3) 0.3469(3) -0.0983(5)
C2B C 0.0854(3) 0.1531(3) -0.0983(5)
C2C C 0.1531(3) 0.4146(3) -0.0983(5)
C3A C 0.3475(4) 0.3577(3) -0.1319(6)
C3B C 0.1525(4) 0.1423(3) -0.1319(6)
C3C C 0.1423(3) 0.3475(4) -0.1319(6)
H3A H 0.3142 0.3533 -0.0709
H3B H 0.1858 0.1467 -0.0709
H3C H 0.1467 0.3142 -0.0709
C4A C 0.3301(4) 0.3745(4) -0.2513(7)
C4B C 0.1699(4) 0.1255(4) -0.2513(7)
C4C C 0.1255(4) 0.3301(4) -0.2513(7)
H4A H 0.2852 0.3818 -0.2714
H4B H 0.2148 0.1182 -0.2714
H4C H 0.1182 0.2852 -0.2714
C5A C 0.3784(7) 0.3806(4) -0.3428(8)
C5B C 0.1216(7) 0.1194(4) -0.3428(8)
C5C C 0.1194(4) 0.3784(7) -0.3428(8)
H5A H 0.3665 0.3917 -0.4252
H5B H 0.1335 0.1083 -0.4252
H5C H 0.1083 0.3665 -0.4252
C6A C 0.4442(5) 0.3703(4) -0.3116(7)
C6B C 0.0558(5) 0.1297(4) -0.3116(7)
C6C C 0.1297(4) 0.4442(5) -0.3116(7)
H6A H 0.4772 0.3744 -0.3733
H6B H 0.0228 0.1256 -0.3733
H6C H 0.1256 0.4772 -0.3733
C7A C 0.4620(4) 0.3542(4) -0.1918(6)
C7B C 0.0380(4) 0.1458(4) -0.1918(6)
C7C C 0.1458(4) 0.4620(4) -0.1918(6)
H7A H 0.5072 0.3480 -0.1725
H7B H -0.0072 0.1520 -0.1725
H7C H 0.1520 0.5072 -0.1725
C8A C 0.3446(3) 0.4670(4) 0.1727(6)
C8B C 0.1554(3) 0.0330(4) 0.1727(6)
C8C C 0.0330(4) 0.3446(3) 0.1727(6)
H8A H 0.3390 0.4885 0.0912
H8B H 0.1610 0.0115 0.0912
H8C H 0.0115 0.3390 0.0912
H9A H 0.3070 0.4365 0.1840
H9B H 0.1930 0.0635 0.1840
H9C H 0.0635 0.3070 0.1840
C9A C 0.3402(3) 0.5197(4) 0.2712(6)
C9B C 0.1598(3) -0.0197(4) 0.2712(6)
C9C C -0.0197(4) 0.3402(3) 0.2712(6)
C10A C 0.3611(4) 0.5836(4) 0.2493(8)
C10B C 0.1389(4) -0.0836(4) 0.2493(8)
C10C C -0.0836(4) 0.3611(4) 0.2493(8)
H10A H 0.3784 0.5946 0.1705
H10B H 0.1216 -0.0946 0.1705
H10C H -0.0946 0.3784 0.1705
C11A C 0.3573(5) 0.6325(6) 0.3409(13)
C11B C 0.1427(5) -0.1325(6) 0.3409(13)
C11C C -0.1325(6) 0.3573(5) 0.3409(13)
H11A H 0.3717 0.6762 0.3246
H11B H 0.1283 -0.1762 0.3246
H11C H -0.1762 0.3717 0.3246
C12A C 0.3309(7) 0.6149(7) 0.4604(12)
C12B C 0.1691(7) -0.1149(7) 0.4604(12)
C12C C -0.1149(7) 0.3309(7) 0.4604(12)
H12A H 0.3287 0.6467 0.5246
H12B H 0.1713 -0.1467 0.5246
H12C H -0.1467 0.3287 0.5246
C13A C 0.3090(6) 0.5516(7) 0.4810(9)
C13B C 0.1910(6) -0.0516(7) 0.4810(9)
C13C C -0.0516(7) 0.3090(6) 0.4810(9)
H13A H 0.2900 0.5406 0.5585
H13B H 0.2100 -0.0406 0.5585
H13C H -0.0406 0.2900 0.5585
C14A C 0.3143(5) 0.5036(5) 0.3897(7)
C14B C 0.1857(5) -0.0036(5) 0.3897(7)
C14C C -0.0036(5) 0.3143(5) 0.3897(7)
H14A H 0.3006 0.4599 0.4066
H14B H 0.1994 0.0401 0.4066
H14C H 0.0401 0.3006 0.4066
C15A C 0.5168(3) 0.4147(4) 0.2966(6)
C15B C -0.0168(3) 0.0853(4) 0.2966(6)
C15C C 0.0853(4) 0.5168(3) 0.2966(6)
H15A H 0.5189 0.4600 0.3303
H15B H -0.0189 0.0400 0.3303
H15C H 0.0400 0.5189 0.3303
H16A H 0.5087 0.3842 0.3664
H16B H -0.0087 0.1158 0.3664
H16C H 0.1158 0.5087 0.3664
C16A C 0.5825(3) 0.3977(3) 0.2372(5)
C16B C -0.0825(3) 0.1023(3) 0.2372(5)
C16C C 0.1023(3) 0.5825(3) 0.2372(5)
C17A C 0.6261(3) 0.4474(4) 0.1947(7)
C17B C -0.1261(3) 0.0526(4) 0.1947(7)
C17C C 0.0526(4) 0.6261(3) 0.1947(7)
H17A H 0.6148 0.4925 0.2038
H17B H -0.1148 0.0075 0.2038
H17C H 0.0075 0.6148 0.2038
C18A C 0.6860(4) 0.4299(6) 0.1391(8)
C18B C -0.1860(4) 0.0701(6) 0.1391(8)
C18C C 0.0701(6) 0.6860(4) 0.1391(8)
H18A H 0.7141 0.4636 0.1087
H18B H -0.2141 0.0364 0.1087
H18C H 0.0364 0.7141 0.1087
C19A C 0.7052(5) 0.3660(8) 0.1276(9)
C19B C -0.2052(5) 0.1340(8) 0.1276(9)
C19C C 0.1340(8) 0.7052(5) 0.1276(9)
H19A H 0.7467 0.3558 0.0919
H19B H -0.2467 0.1442 0.0919
H19C H 0.1442 0.7467 0.0919
C20A C 0.6641(5) 0.3156(5) 0.1678(9)
C20B C -0.1641(5) 0.1844(5) 0.1678(9)
C20C C 0.1844(5) 0.6641(5) 0.1678(9)
H20A H 0.6767 0.2709 0.1577
H20B H -0.1767 0.2291 0.1577
H20C H 0.2291 0.6767 0.1577
C21A C 0.6033(4) 0.3318(4) 0.2241(8)
C21B C -0.1033(4) 0.1682(4) 0.2241(8)
C21C C 0.1682(4) 0.6033(4) 0.2241(8)
H21A H 0.5757 0.2975 0.2538
H21B H -0.0757 0.2025 0.2538
H21C H 0.2025 0.5757 0.2538
C22A C 0.3317(3) 0.3004(3) 0.3392(5)
C22B C 0.1683(3) 0.1996(3) 0.3392(5)
C22C C 0.1996(3) 0.3317(3) 0.3392(5)
N1A N 0.3786(3) 0.3320(3) 0.3168(5)
N1B N 0.1214(3) 0.1680(3) 0.3168(5)
N1C N 0.1680(3) 0.3786(3) 0.3168(5)
N4A N 0.4874(3) 0.4814(3) 0.0312(6)
N4B N 0.0126(3) 0.0186(3) 0.0312(6)
N4C N 0.0186(3) 0.4874(3) 0.0312(6)
C24B C -0.0126(3) -0.0186(3) -0.0312(6)
Sn1A Sn 0.435034(19) 0.40818(2) 0.16650(4)
Sn1B Sn 0.064966(19) 0.09182(2) 0.16650(4)
Sn1C Sn 0.09182(2) 0.435034(19) 0.16650(4)
Sn1D Sn 0.59182(2) -0.064966(19) -0.16650(4)
Sn1F Sn -0.064966(19) -0.09182(2) -0.16650(4)
loop_
_geom_bond_atom_site_label_1
_geom_bond_atom_site_label_2
_geom_bond_site_symmetry_1
_geom_bond_site_symmetry_2
C1 H1 1_555 1_555
H2 C1 1_555 1_555
C2 C1 1_555 1_555
C3 C2 1_555 1_555
H3 C3 1_555 1_555
C4 C3 1_555 1_555
H4 C4 1_555 1_555
C5 C4 1_555 1_555
H5 C5 1_555 1_555
C6 C5 1_555 1_555
H6 C6 1_555 1_555
C7 C2 1_555 1_555
H7 C7 1_555 1_555
C8 H8 1_555 1_555
H9 C8 1_555 1_555
C9 C8 1_555 1_555
C10 C9 1_555 1_555
H10 C10 1_555 1_555
C11 C10 1_555 1_555
H11 C11 1_555 1_555
C12 C11 1_555 1_555
H12 C12 1_555 1_555
C13 C12 1_555 1_555
H13 C13 1_555 1_555
C14 C9 1_555 1_555
H14 C14 1_555 1_555
C15 H15 1_555 1_555
H16 C15 1_555 1_555
C16 C15 1_555 1_555
C17 C16 1_555 1_555
H17 C17 1_555 1_555
C18 C17 1_555 1_555
H18 C18 1_555 1_555
C19 C18 1_555 1_555
H19 C19 1_555 1_555
C20 C19 1_555 1_555
H20 C20 1_555 1_555
C21 C16 1_555 1_555
H21 C21 1_555 1_555
C22 N1 1_555 1_555
C23 N2 1_555 1_555
N1 Sn1 1_555 1_555
N3 O1 1_555 1_555
N4 C24 1_555 1_555
C24 Sn1D 1_555 1_555
Fe1 C22 1_555 1_555
Sn1 C1 1_555 1_555
C1A H1A 1_555 1_555
C1B H1B 1_555 1_555
C1C H1C 1_555 1_555
H2A C1A 1_555 1_555
H2B C1B 1_555 1_555
H2C C1C 1_555 1_555
C2A C1A 1_555 1_555
C2B C1B 1_555 1_555
C2C C1C 1_555 1_555
C3A C2A 1_555 1_555
C3B C2B 1_555 1_555
C3C C2C 1_555 1_555
H3A C3A 1_555 1_555
H3B C3B 1_555 1_555
H3C C3C 1_555 1_555
C4A C3A 1_555 1_555
C4B C3B 1_555 1_555
C4C C3C 1_555 1_555
H4A C4A 1_555 1_555
H4B C4B 1_555 1_555
H4C C4C 1_555 1_555
C5A C4A 1_555 1_555
C5B C4B 1_555 1_555
C5C C4C 1_555 1_555
H5A C5A 1_555 1_555
H5B C5B 1_555 1_555
H5C C5C 1_555 1_555
C6A C5A 1_555 1_555
C6B C5B 1_555 1_555
C6C C5C 1_555 1_555
H6A C6A 1_555 1_555
H6B C6B 1_555 1_555
H6C C6C 1_555 1_555
C7A C2A 1_555 1_555
C7B C2B 1_555 1_555
C7C C2C 1_555 1_555
H7A C7A 1_555 1_555
H7B C7B 1_555 1_555
H7C C7C 1_555 1_555
C8A H8A 1_555 1_555
C8B H8B 1_555 1_555
C8C H8C 1_555 1_555
H9A C8A 1_555 1_555
H9B C8B 1_555 1_555
H9C C8C 1_555 1_555
C9A C8A 1_555 1_555
C9B C8B 1_555 1_555
C9C C8C 1_555 1_555
C10A C9A 1_555 1_555
C10B C9B 1_555 1_555
C10C C9C 1_555 1_555
H10A C10A 1_555 1_555
H10B C10B 1_555 1_555
H10C C10C 1_555 1_555
C11A C10A 1_555 1_555
C11B C10B 1_555 1_555
C11C C10C 1_555 1_555
H11A C11A 1_555 1_555
H11B C11B 1_555 1_555
H11C C11C 1_555 1_555
C12A C11A 1_555 1_555
C12B C11B 1_555 1_555
C12C C11C 1_555 1_555
H12A C12A 1_555 1_555
H12B C12B 1_555 1_555
H12C C12C 1_555 1_555
C13A C12A 1_555 1_555
C13B C12B 1_555 1_555
C13C C12C 1_555 1_555
H13A C13A 1_555 1_555
H13B C13B 1_555 1_555
H13C C13C 1_555 1_555
C14A C9A 1_555 1_555
C14B C9B 1_555 1_555
C14C C9C 1_555 1_555
H14A C14A 1_555 1_555
H14B C14B 1_555 1_555
H14C C14C 1_555 1_555
C15A H15A 1_555 1_555
C15B H15B 1_555 1_555
C15C H15C 1_555 1_555
H16A C15A 1_555 1_555
H16B C15B 1_555 1_555
H16C C15C 1_555 1_555
C16A C15A 1_555 1_555
C16B C15B 1_555 1_555
C16C C15C 1_555 1_555
C17A C16A 1_555 1_555
C17B C16B 1_555 1_555
C17C C16C 1_555 1_555
H17A C17A 1_555 1_555
H17B C17B 1_555 1_555
H17C C17C 1_555 1_555
C18A C17A 1_555 1_555
C18B C17B 1_555 1_555
C18C C17C 1_555 1_555
H18A C18A 1_555 1_555
H18B C18B 1_555 1_555
H18C C18C 1_555 1_555
C19A C18A 1_555 1_555
C19B C18B 1_555 1_555
C19C C18C 1_555 1_555
H19A C19A 1_555 1_555
H19B C19B 1_555 1_555
H19C C19C 1_555 1_555
C20A C19A 1_555 1_555
C20B C19B 1_555 1_555
C20C C19C 1_555 1_555
H20A C20A 1_555 1_555
H20B C20B 1_555 1_555
H20C C20C 1_555 1_555
C21A C16A 1_555 1_555
C21B C16B 1_555 1_555
C21C C16C 1_555 1_555
H21A C21A 1_555 1_555
H21B C21B 1_555 1_555
H21C C21C 1_555 1_555
C22A Fe1 1_555 1_555
C22B Fe1 1_555 1_555
C22C Fe1 1_555 1_555
N1A C22A 1_555 1_555
N1B C22B 1_555 1_555
N1C C22C 1_555 1_555
N4A Sn1A 1_555 1_555
N4B C24B 1_555 1_555
N4C Sn1C 1_555 1_555
C24B Sn1F 1_555 1_555
Sn1A C1A 1_555 1_555
Sn1B C1B 1_555 1_555
Sn1C C1C 1_555 1_555
C6 C7 1_555 1_555
C8 Sn1 1_555 1_555
C13 C14 1_555 1_555
C15 Sn1 1_555 1_555
C20 C21 1_555 1_555
C23 Fe1 1_555 1_555
N3 Fe1 1_555 1_555
N4 Sn1 1_555 1_555
C6A C7A 1_555 1_555
C6B C7B 1_555 1_555
C6C C7C 1_555 1_555
C8A Sn1A 1_555 1_555
C8B Sn1B 1_555 1_555
C8C Sn1C 1_555 1_555
C13A C14A 1_555 1_555
C13B C14B 1_555 1_555
C13C C14C 1_555 1_555
C15A Sn1A 1_555 1_555
C15B Sn1B 1_555 1_555
C15C Sn1C 1_555 1_555
C20A C21A 1_555 1_555
C20B C21B 1_555 1_555
C20C C21C 1_555 1_555
N1A Sn1A 1_555 1_555
N1B Sn1B 1_555 1_555
N1C Sn1C 1_555 1_555
N4B Sn1B 1_555 1_555

#END
