
#######################################################################
#
#                 Cambridge Crystallographic Data Centre
#                                CCDC 
#
#######################################################################
#
# If this CIF has been generated from an entry in the Cambridge 
# Structural Database, then it will include bibliographic, chemical, 
# crystal, experimental, refinement or atomic coordinate data resulting 
# from the CCDC's data processing and validation procedures.
#
#######################################################################

data_WEYXII
_symmetry_cell_setting           monoclinic
_symmetry_space_group_name_H-M   'P 21/n'
_symmetry_Int_Tables_number      14
_space_group_name_Hall           '-P 2yn'
loop_
_symmetry_equiv_pos_site_id
_symmetry_equiv_pos_as_xyz
1 x,y,z
2 1/2-x,1/2+y,1/2-z
3 -x,-y,-z
4 1/2+x,1/2-y,1/2+z
_cell_length_a                   8.4386(17)
_cell_length_b                   8.1733(15)
_cell_length_c                   15.695(3)
_cell_angle_alpha                90
_cell_angle_beta                 93.522(5)
_cell_angle_gamma                90
_cell_volume                     1080.46
loop_
_atom_site_label
_atom_site_type_symbol
_atom_site_fract_x
_atom_site_fract_y
_atom_site_fract_z
Cu1 Cu 0.5000 0.0000 0.5000
N1 N 0.8125(2) 0.3725(2) 0.58084(12)
N2 N 0.7506(2) 0.4499(2) 0.50927(13)
N3 N 0.6260(2) 0.2106(2) 0.52913(13)
N4 N 0.8627(2) 0.7222(2) 0.61406(12)
N5 N 0.9457(2) 0.7809(3) 0.54881(13)
N6 N 0.6939(2) 0.8737(2) 0.53989(12)
N7 N 0.7948(3) 0.0960(3) 0.25841(16)
N8 N 0.5908(3) 0.0303(3) 0.35850(14)
N9 N 1.0468(3) -0.0529(3) 0.24693(17)
C1 C 0.6391(3) 0.3482(3) 0.48095(16)
H1 H 0.5729 0.3688 0.4309
C2 C 0.7387(3) 0.2315(3) 0.59141(15)
H2 H 0.7626 0.1566 0.6367
C3 C 0.8390(3) 0.8710(3) 0.50585(16)
H3 H 0.8611 0.9292 0.4555
C4 C 0.7151(3) 0.7781(3) 0.60822(15)
H4 H 0.6363 0.7536 0.6470
C5 C 0.9562(3) 0.4365(3) 0.62680(15)
H5 H 1.0394 0.4528 0.5858
H6 H 0.9960 0.3544 0.6693
C6 C 0.9282(3) 0.5979(3) 0.67241(15)
H7 H 0.8541 0.5793 0.7180
H8 H 1.0299 0.6375 0.6996
C7 C 0.6915(3) 0.0556(3) 0.31364(16)
C8 C 0.9264(3) 0.0119(3) 0.25472(16)
Cu1_2 Cu 0.5000 1.0000 0.5000
Cu1_3 Cu 0.5000 -1.0000 0.5000
N1B N 0.1875(2) -0.3725(2) 0.41916(12)
N2B N 0.2494(2) -0.4499(2) 0.49073(13)
N3B N 0.3740(2) -0.2106(2) 0.47087(13)
N4B N 0.1373(2) -0.7222(2) 0.38594(12)
N5B N 0.0543(2) -0.7809(3) 0.45119(13)
N6B N 0.3061(2) -0.8737(2) 0.46011(12)
N6_2 N 0.6939(2) -0.1263(2) 0.53989(12)
N6B_2 N 0.3061(2) 0.1263(2) 0.46011(12)
N7B N 0.2052(3) -0.0960(3) 0.74159(16)
N8B N 0.4092(3) -0.0303(3) 0.64150(14)
N9B N -0.0468(3) 0.0529(3) 0.75307(17)
C1B C 0.3609(3) -0.3482(3) 0.51905(16)
H1B H 0.4271 -0.3688 0.5691
C2B C 0.2613(3) -0.2315(3) 0.40859(15)
H2B H 0.2374 -0.1566 0.3633
C3B C 0.1610(3) -0.8710(3) 0.49415(16)
H3B H 0.1389 -0.9292 0.5445
C4B C 0.2849(3) -0.7781(3) 0.39178(15)
H4B H 0.3637 -0.7536 0.3530
C5B C 0.0438(3) -0.4365(3) 0.37320(15)
H5B H -0.0394 -0.4528 0.4142
H6B H 0.0040 -0.3544 0.3307
C6B C 0.0718(3) -0.5979(3) 0.32759(15)
H7B H 0.1459 -0.5793 0.2820
H8B H -0.0299 -0.6375 0.3004
C7B C 0.3085(3) -0.0556(3) 0.68636(16)
C8B C 0.0736(3) -0.0119(3) 0.74528(16)
loop_
_geom_bond_atom_site_label_1
_geom_bond_atom_site_label_2
_geom_bond_site_symmetry_1
_geom_bond_site_symmetry_2
Cu1 N3 1_555 1_555
N1 N2 1_555 1_555
N2 C1 1_555 1_555
N3 C1 1_555 1_555
N4 N5 1_555 1_555
N5 C3 1_555 1_555
N6 C3 1_555 1_555
N7 C7 1_555 1_555
N8 Cu1 1_555 1_555
N9 C8 1_555 1_555
C1 H1 1_555 1_555
C2 N1 1_555 1_555
H2 C2 1_555 1_555
C3 H3 1_555 1_555
C4 N4 1_555 1_555
H4 C4 1_555 1_555
C5 N1 1_555 1_555
H5 C5 1_555 1_555
H6 C5 1_555 1_555
C6 N4 1_555 1_555
H7 C6 1_555 1_555
H8 C6 1_555 1_555
C7 N8 1_555 1_555
C8 N7 1_555 1_555
Cu1_2 N6 1_555 1_555
Cu1_3 N6B 1_555 1_555
N1B N2B 1_555 1_555
N2B C1B 1_555 1_555
N3B Cu1 1_555 1_555
N4B N5B 1_555 1_555
N5B C3B 1_555 1_555
N6B C3B 1_555 1_555
N6_2 Cu1 1_555 1_555
N6B_2 Cu1 1_555 1_555
N7B C7B 1_555 1_555
N8B Cu1 1_555 1_555
N9B C8B 1_555 1_555
C1B N3B 1_555 1_555
H1B C1B 1_555 1_555
C2B N1B 1_555 1_555
H2B C2B 1_555 1_555
C3B H3B 1_555 1_555
C4B N4B 1_555 1_555
H4B C4B 1_555 1_555
C5B N1B 1_555 1_555
H5B C5B 1_555 1_555
H6B C5B 1_555 1_555
C6B N4B 1_555 1_555
H7B C6B 1_555 1_555
H8B C6B 1_555 1_555
C7B N8B 1_555 1_555
C8B N7B 1_555 1_555
N3 C2 1_555 1_555
N6 C4 1_555 1_555
C5 C6 1_555 1_555
N3B C2B 1_555 1_555
N6B C4B 1_555 1_555
C5B C6B 1_555 1_555

#END
