
#######################################################################
#
#                 Cambridge Crystallographic Data Centre
#                                CCDC 
#
#######################################################################
#
# If this CIF has been generated from an entry in the Cambridge 
# Structural Database, then it will include bibliographic, chemical, 
# crystal, experimental, refinement or atomic coordinate data resulting 
# from the CCDC's data processing and validation procedures.
#
#######################################################################

data_WEZHEP
_symmetry_cell_setting           triclinic
_symmetry_space_group_name_H-M   'P -1'
_symmetry_Int_Tables_number      2
_space_group_name_Hall           '-P 1'
loop_
_symmetry_equiv_pos_site_id
_symmetry_equiv_pos_as_xyz
1 x,y,z
2 -x,-y,-z
_cell_length_a                   7.5293(15)
_cell_length_b                   8.0461(16)
_cell_length_c                   8.6034(17)
_cell_angle_alpha                77.685(3)
_cell_angle_beta                 73.330(3)
_cell_angle_gamma                73.928(3)
_cell_volume                     474.686
loop_
_atom_site_label
_atom_site_type_symbol
_atom_site_fract_x
_atom_site_fract_y
_atom_site_fract_z
Ag1 Ag 0.74341(4) 0.67445(4) 1.09361(3)
O1 O 0.5753(4) 0.9760(4) 1.1769(3)
O2 O 0.5452(5) 1.2591(4) 1.0819(4)
O3 O 0.6455(5) 1.4729(4) 0.7689(4)
O4 O 0.8562(5) 1.4518(4) 0.9137(5)
O5 O 1.3101(4) 1.0593(4) 0.4245(3)
O6 O 1.3423(4) 0.7755(4) 0.5248(4)
O7 O 0.7100(5) 0.5735(5) 1.3700(4)
N1 N 0.8630(4) 0.8960(4) 0.9070(4)
C1 C 0.6211(5) 1.1029(5) 1.0741(4)
C2 C 0.7866(5) 1.0636(5) 0.9257(4)
C3 C 0.8562(5) 1.2002(5) 0.8154(4)
C4 C 0.7821(5) 1.3881(5) 0.8424(5)
C5 C 1.0117(5) 1.1580(5) 0.6854(4)
H1 H 1.0616 1.2459 0.6112
C6 C 1.0926(5) 0.9831(5) 0.6669(4)
C7 C 1.2612(5) 0.9283(5) 0.5315(5)
C8 C 1.0111(5) 0.8566(5) 0.7815(5)
H2 H 1.0629 0.7396 0.7694
H3 H 0.707(8) 0.468(2) 1.407(7)
H4 H 0.621(7) 0.651(5) 1.417(8)
H5 H 1.408(5) 1.027(7) 0.350(5)
H6 H 0.600(10) 1.569(5) 0.808(8)
Ag1_2 Ag 0.74341(4) 1.67445(4) 1.09361(3)
O4_2 O 0.8562(5) 0.4518(4) 0.9137(5)
loop_
_geom_bond_atom_site_label_1
_geom_bond_atom_site_label_2
_geom_bond_site_symmetry_1
_geom_bond_site_symmetry_2
Ag1 O1 1_555 1_555
O1 C1 1_555 1_555
O2 C1 1_555 1_555
O3 C4 1_555 1_555
O4 C4 1_555 1_555
O5 C7 1_555 1_555
O6 C7 1_555 1_555
O7 Ag1 1_555 1_555
N1 Ag1 1_555 1_555
C1 C2 1_555 1_555
C2 N1 1_555 1_555
C3 C2 1_555 1_555
C4 C3 1_555 1_555
C5 C3 1_555 1_555
H1 C5 1_555 1_555
C6 C5 1_555 1_555
C7 C6 1_555 1_555
C8 N1 1_555 1_555
H2 C8 1_555 1_555
H3 O7 1_555 1_555
H4 O7 1_555 1_555
H5 O5 1_555 1_555
H6 O3 1_555 1_555
Ag1_2 O4 1_555 1_555
O4_2 Ag1 1_555 1_555
C6 C8 1_555 1_555

#END
