
#######################################################################
#
#                 Cambridge Crystallographic Data Centre
#                                CCDC 
#
#######################################################################
#
# If this CIF has been generated from an entry in the Cambridge 
# Structural Database, then it will include bibliographic, chemical, 
# crystal, experimental, refinement or atomic coordinate data resulting 
# from the CCDC's data processing and validation procedures.
#
#######################################################################

data_WEZNUM
_symmetry_cell_setting           monoclinic
_symmetry_space_group_name_H-M   'C 2/c'
_symmetry_Int_Tables_number      15
_space_group_name_Hall           '-C 2yn'
loop_
_symmetry_equiv_pos_site_id
_symmetry_equiv_pos_as_xyz
1 x,y,z
2 -x,y,1/2-z
3 1/2+x,1/2+y,z
4 1/2-x,1/2+y,1/2-z
5 -x,-y,-z
6 x,-y,1/2+z
7 1/2-x,1/2-y,-z
8 1/2+x,1/2-y,1/2+z
_cell_length_a                   19.580(3)
_cell_length_b                   5.0137(8)
_cell_length_c                   15.975(3)
_cell_angle_alpha                90
_cell_angle_beta                 121.629(2)
_cell_angle_gamma                90
_cell_volume                     1335.29
loop_
_atom_site_label
_atom_site_type_symbol
_atom_site_fract_x
_atom_site_fract_y
_atom_site_fract_z
Zn1 Zn 0.0000 0.2062(3) 0.2500
Zn2 Zn 0.18161(5) 0.2236(2) 0.28572(8)
O1 O -0.0110(3) 0.4690(13) 0.1500(4)
O2 O 0.1157(3) 0.5044(12) 0.1882(4)
O3 O -0.1020(4) 0.0434(13) 0.1980(5)
H1 H -0.141(4) 0.10(2) 0.200(8)
H2 H -0.106(6) -0.113(8) 0.181(8)
O4 O 0.2024(4) 0.7145(16) 0.0928(4)
O5 O 0.2087(3) 0.9820(12) 0.2045(4)
C1 C 0.0213(4) 0.7968(15) 0.0687(5)
C2 C 0.0805(4) 0.9235(15) 0.0601(5)
C3 C -0.0579(4) 0.8729(16) 0.0092(5)
H3 H -0.0971 0.7867 0.0155
C4 C 0.0431(4) 0.5698(15) 0.1418(5)
C5 C 0.1689(4) 0.8663(16) 0.1240(6)
O1D O 0.0110(3) 1.5310(13) -0.1500(4)
O2D O -0.1157(3) 1.4956(12) -0.1882(4)
O4D O -0.2024(4) 1.2855(16) -0.0928(4)
O5D O -0.2087(3) 1.0180(12) -0.2045(4)
C1D C -0.0213(4) 1.2032(15) -0.0687(5)
C2D C -0.0805(4) 1.0765(15) -0.0601(5)
C3D C 0.0579(4) 1.1271(16) -0.0092(5)
H3D H 0.0971 1.2133 -0.0155
C4D C -0.0431(4) 1.4302(15) -0.1418(5)
C5D C -0.1689(4) 1.1337(16) -0.1240(6)
Zn2A Zn -0.18161(5) 0.2236(2) 0.21428(8)
O3A O 0.1020(4) 0.0434(13) 0.3020(5)
H1A H 0.141(4) 0.10(2) 0.300(8)
H2A H 0.106(6) -0.113(8) 0.319(8)
Zn1D Zn 0.0000 1.7938(3) -0.2500
Zn2_2 Zn 0.18161(5) 1.2236(2) 0.28572(8)
Zn2C Zn 0.31839(5) 0.7236(2) 0.21428(8)
Zn2D Zn -0.18161(5) 0.7764(2) -0.28572(8)
Zn2D_2 Zn -0.18161(5) 1.7764(2) -0.28572(8)
Zn2G Zn -0.31839(5) 1.2764(2) -0.21428(8)
O1A O 0.0110(3) 0.4690(13) 0.3500(4)
O2A O -0.1157(3) 0.5044(12) 0.3118(4)
O4B O -0.2976(4) 0.2145(16) 0.0928(4)
O4C O 0.2976(4) 0.2145(16) 0.4072(4)
O5_2 O 0.2087(3) -0.0180(12) 0.2045(4)
O5A O -0.2087(3) -0.0180(12) 0.2955(4)
O5B O -0.2913(3) 0.4820(12) 0.2045(4)
O5C O 0.2913(3) 0.4820(12) 0.2955(4)
O6 O 0.1884(7) 0.568(2) 0.4236(12)
H4 H 0.179(12) 0.47(4) 0.456(14)
loop_
_geom_bond_atom_site_label_1
_geom_bond_atom_site_label_2
_geom_bond_site_symmetry_1
_geom_bond_site_symmetry_2
Zn1 O1 1_555 1_555
Zn2 O2 1_555 1_555
O1 C4 1_555 1_555
O2 C4 1_555 1_555
O3 Zn1 1_555 1_555
H1 O3 1_555 1_555
H2 O3 1_555 1_555
O4 C5 1_555 1_555
O5 C5 1_555 1_555
C1 C2 1_555 1_555
C2 C5 1_555 1_555
C3 C1 1_555 1_555
H3 C3 1_555 1_555
C4 C1 1_555 1_555
O6 H4 1_555 1_555
O1D C4D 1_555 1_555
O2D C4D 1_555 1_555
O4D C5D 1_555 1_555
O5D C5D 1_555 1_555
C1D C2D 1_555 1_555
C2D C3 1_555 1_555
C3D C2 1_555 1_555
H3D C3D 1_555 1_555
C4D C1D 1_555 1_555
C5D C2D 1_555 1_555
Zn2A O3 1_555 1_555
O3A Zn1 1_555 1_555
H1A O3A 1_555 1_555
H2A O3A 1_555 1_555
Zn1D O1D 1_555 1_555
Zn2_2 O5 1_555 1_555
Zn2C O4 1_555 1_555
Zn2D O5D 1_555 1_555
Zn2D_2 O2D 1_555 1_555
Zn2G O4D 1_555 1_555
O1A Zn1 1_555 1_555
O2A Zn2A 1_555 1_555
O4B Zn2A 1_555 1_555
O4C Zn2 1_555 1_555
O5_2 Zn2 1_555 1_555
O5A Zn2A 1_555 1_555
O5B Zn2A 1_555 1_555
O5C Zn2 1_555 1_555
Zn2 O3A 1_555 1_555
O5 Zn2C 1_555 1_555
O5D Zn2G 1_555 1_555
C1D C3D 1_555 1_555
Zn2C O5C 1_555 1_555

#END
