
#######################################################################
#
#                 Cambridge Crystallographic Data Centre
#                                CCDC 
#
#######################################################################
#
# If this CIF has been generated from an entry in the Cambridge 
# Structural Database, then it will include bibliographic, chemical, 
# crystal, experimental, refinement or atomic coordinate data resulting 
# from the CCDC's data processing and validation procedures.
#
#######################################################################

data_WIBBIT
_symmetry_cell_setting           monoclinic
_symmetry_space_group_name_H-M   'P 21/c'
_symmetry_Int_Tables_number      14
_space_group_name_Hall           '-P 2ybc'
loop_
_symmetry_equiv_pos_site_id
_symmetry_equiv_pos_as_xyz
1 x,y,z
2 -x,1/2+y,1/2-z
3 -x,-y,-z
4 x,1/2-y,1/2+z
_cell_length_a                   13.433(3)
_cell_length_b                   10.076(2)
_cell_length_c                   22.511(5)
_cell_angle_alpha                90
_cell_angle_beta                 99.16(3)
_cell_angle_gamma                90
_cell_volume                     3008.03
loop_
_atom_site_label
_atom_site_type_symbol
_atom_site_fract_x
_atom_site_fract_y
_atom_site_fract_z
C1 C 0.7258(4) 1.0565(5) 0.8030(2)
H1 H 0.6839 1.0177 0.7676
H2 H 0.7969 1.0509 0.7983
H3 H 0.7070 1.1497 0.8069
C2 C 0.7096(3) 0.9821(4) 0.85798(18)
C3 C 0.7847(3) 0.9566(4) 0.9102(2)
C4 C 0.7373(3) 0.8888(4) 0.94998(19)
C5 C 0.6325(3) 0.8717(4) 0.92138(17)
C6 C 0.5600(3) 0.8047(4) 0.94509(17)
H4 H 0.5816 0.7706 0.9844
C7 C 0.4571(3) 0.7768(4) 0.92128(16)
C8 C 0.3881(3) 0.7082(4) 0.95297(17)
C9 C 0.2960(3) 0.7083(4) 0.91533(17)
C10 C 0.3120(3) 0.7758(4) 0.86122(17)
C11 C 0.2361(3) 0.8013(5) 0.81162(19)
H5 H 0.1723 0.7646 0.8155
C12 C 0.2370(3) 0.8688(5) 0.75912(19)
C13 C 0.1517(4) 0.8855(5) 0.7116(2)
C14 C 0.1851(4) 0.9581(5) 0.6672(2)
C15 C 0.2902(4) 0.9846(5) 0.68848(19)
C16 C 0.3581(4) 1.0630(5) 0.6546(2)
H6 H 0.3519 1.1577 0.6633
H7 H 0.3387 1.0476 0.6114
H8 H 0.4281 1.0347 0.6672
C17 C 0.8931(3) 1.0002(5) 0.9171(2)
H9 H 0.9194 0.9793 0.8795
H10 H 0.9328 0.9484 0.9500
C18 C 0.9091(4) 1.1471(5) 0.9306(2)
H11 H 0.8672 1.1994 0.8995
H12 H 0.9802 1.1695 0.9312
H13 H 0.8901 1.1672 0.9699
C19 C 0.7819(3) 0.8429(5) 1.0116(2)
H14 H 0.8460 0.7961 1.0092
H15 H 0.7353 0.7784 1.0258
C20 C 0.8026(4) 0.9543(6) 1.0575(2)
H16 H 0.8536 1.0144 1.0458
H17 H 0.8274 0.9167 1.0972
H18 H 0.7402 1.0037 1.0590
C21 C 0.4092(3) 0.6547(5) 1.01571(18)
H19 H 0.4808 0.6275 1.0248
H20 H 0.3672 0.5749 1.0184
C22 C 0.3876(4) 0.7555(6) 1.0624(2)
H21 H 0.4321 0.8325 1.0617
H22 H 0.3998 0.7147 1.1025
H23 H 0.3172 0.7842 1.0532
C23 C 0.1990(3) 0.6516(5) 0.9283(2)
H24 H 0.1426 0.7069 0.9082
H25 H 0.1984 0.6559 0.9722
C24 C 0.1819(4) 0.5095(6) 0.9076(3)
H26 H 0.1779 0.5052 0.8638
H27 H 0.1186 0.4770 0.9188
H28 H 0.2379 0.4542 0.9268
C25 C 0.0456(4) 0.8325(6) 0.7131(2)
H29 H 0.0076 0.8291 0.6717
H30 H 0.0499 0.7411 0.7296
C26 C -0.0084(6) 0.9184(8) 0.7509(3)
H31 H 0.0318 0.9272 0.7910
H32 H -0.0738 0.8785 0.7543
H33 H -0.0190 1.0062 0.7323
C27 C 0.1269(5) 1.0071(7) 0.6089(3)
H34 H 0.1706 1.0051 0.5774
H35 H 0.0686 0.9479 0.5961
C28 C 0.0909(5) 1.1434(7) 0.6156(4)
H36 H 0.0440 1.1442 0.6448
H37 H 0.0564 1.1756 0.5767
H38 H 0.1485 1.2012 0.6299
N1 N 0.3209(3) 0.9307(4) 0.74126(14)
N2 N 0.6207(2) 0.9319(3) 0.86442(15)
N3 N 0.4097(2) 0.8156(3) 0.86587(14)
Cd1 Cd 0.47638(2) 0.92943(3) 0.797088(12)
O1 O 0.5602(3) 0.8711(3) 0.72146(14)
O2 O 0.5145(2) 0.6590(3) 0.71842(13)
C29 C 0.5619(3) 0.7525(4) 0.70450(16)
C30 C 0.6372(4) 0.7309(5) 0.6607(2)
F1 F 0.6288(3) 0.8226(4) 0.61737(13)
F2 F 0.6259(3) 0.6140(4) 0.63300(16)
F3 F 0.7320(2) 0.7370(5) 0.68939(17)
Cd1A Cd 0.52362(2) 0.42943(3) 0.702912(12)
O2A O 0.4855(2) 1.1590(3) 0.78158(13)
loop_
_geom_bond_atom_site_label_1
_geom_bond_atom_site_label_2
_geom_bond_site_symmetry_1
_geom_bond_site_symmetry_2
C1 H1 1_555 1_555
H2 C1 1_555 1_555
H3 C1 1_555 1_555
C2 C1 1_555 1_555
C3 C2 1_555 1_555
C4 C3 1_555 1_555
C5 C4 1_555 1_555
C6 C5 1_555 1_555
H4 C6 1_555 1_555
C7 C6 1_555 1_555
C8 C7 1_555 1_555
C9 C8 1_555 1_555
C10 C9 1_555 1_555
C11 C10 1_555 1_555
H5 C11 1_555 1_555
C12 C11 1_555 1_555
C13 C12 1_555 1_555
C14 C13 1_555 1_555
C15 C14 1_555 1_555
C16 C15 1_555 1_555
H6 C16 1_555 1_555
H7 C16 1_555 1_555
H8 C16 1_555 1_555
C17 C3 1_555 1_555
H9 C17 1_555 1_555
H10 C17 1_555 1_555
C18 C17 1_555 1_555
H11 C18 1_555 1_555
H12 C18 1_555 1_555
H13 C18 1_555 1_555
C19 C4 1_555 1_555
H14 C19 1_555 1_555
H15 C19 1_555 1_555
C20 C19 1_555 1_555
H16 C20 1_555 1_555
H17 C20 1_555 1_555
H18 C20 1_555 1_555
C21 C8 1_555 1_555
H19 C21 1_555 1_555
H20 C21 1_555 1_555
C22 C21 1_555 1_555
H21 C22 1_555 1_555
H22 C22 1_555 1_555
H23 C22 1_555 1_555
C23 C9 1_555 1_555
H24 C23 1_555 1_555
H25 C23 1_555 1_555
C24 C23 1_555 1_555
H26 C24 1_555 1_555
H27 C24 1_555 1_555
H28 C24 1_555 1_555
C25 C13 1_555 1_555
H29 C25 1_555 1_555
H30 C25 1_555 1_555
C26 C25 1_555 1_555
H31 C26 1_555 1_555
H32 C26 1_555 1_555
H33 C26 1_555 1_555
C27 C14 1_555 1_555
H34 C27 1_555 1_555
H35 C27 1_555 1_555
C28 C27 1_555 1_555
H36 C28 1_555 1_555
H37 C28 1_555 1_555
H38 C28 1_555 1_555
N1 C12 1_555 1_555
N2 C2 1_555 1_555
N3 C7 1_555 1_555
Cd1 N1 1_555 1_555
O1 Cd1 1_555 1_555
O2 C29 1_555 1_555
C29 O1 1_555 1_555
C30 C29 1_555 1_555
F1 C30 1_555 1_555
F2 C30 1_555 1_555
F3 C30 1_555 1_555
Cd1A O2 1_555 1_555
O2A Cd1 1_555 1_555
C5 N2 1_555 1_555
C10 N3 1_555 1_555
C15 N1 1_555 1_555
N2 Cd1 1_555 1_555
N3 Cd1 1_555 1_555

#END
