
#######################################################################
#
#                 Cambridge Crystallographic Data Centre
#                                CCDC 
#
#######################################################################
#
# If this CIF has been generated from an entry in the Cambridge 
# Structural Database, then it will include bibliographic, chemical, 
# crystal, experimental, refinement or atomic coordinate data resulting 
# from the CCDC's data processing and validation procedures.
#
#######################################################################

data_WIBMID
_symmetry_cell_setting           monoclinic
_symmetry_space_group_name_H-M   'P 21/n'
_symmetry_Int_Tables_number      14
_space_group_name_Hall           '-P 2yn'
loop_
_symmetry_equiv_pos_site_id
_symmetry_equiv_pos_as_xyz
1 x,y,z
2 1/2+x,1/2-y,1/2+z
3 -x,-y,-z
4 1/2-x,1/2+y,1/2-z
_cell_length_a                   7.593(2)
_cell_length_b                   19.152(4)
_cell_length_c                   9.852(2)
_cell_angle_alpha                90
_cell_angle_beta                 107.14(3)
_cell_angle_gamma                90
_cell_volume                     1369.06
loop_
_atom_site_label
_atom_site_type_symbol
_atom_site_fract_x
_atom_site_fract_y
_atom_site_fract_z
Ag1 Ag -0.07659(4) 0.194260(13) 0.31090(3)
S1 S 0.44681(12) 0.20683(4) 0.65361(9)
N1 N 0.0928(4) 0.10502(13) 0.4095(3)
N2 N 0.2764(4) 0.03652(13) 0.5750(3)
C1 C 0.2110(4) -0.0045(2) 0.4546(3)
C2 C 0.2384(5) -0.0747(2) 0.4292(4)
H1 H 0.3099(64) -0.1074(26) 0.4925(48)
C3 C 0.1493(6) -0.0987(2) 0.2927(4)
H2 H 0.1541(82) -0.1396(32) 0.2703(62)
C4 C 0.0393(5) -0.0552(2) 0.1885(4)
H3 H -0.0185(64) -0.0677(24) 0.1031(49)
C5 C 0.0104(5) 0.0144(2) 0.2144(3)
H4 H -0.0614(53) 0.0443(20) 0.1484(40)
C6 C 0.0976(5) 0.0395(2) 0.3510(3)
C7 C 0.4018(6) 0.0129(2) 0.7092(4)
H5 H 0.3815(86) -0.0303(36) 0.7294(67)
H6 H 0.3591(94) 0.0221(35) 0.7806(69)
H7 H 0.496(11) 0.0386(40) 0.7352(75)
C8 C 0.2000(4) 0.1008(2) 0.5425(3)
C9 C 0.2333(5) 0.1605(2) 0.6433(3)
H8 H 0.2419(61) 0.1472(23) 0.7336(48)
H9 H 0.1366(68) 0.1924(22) 0.6126(51)
C10 C 0.4002(7) 0.2419(3) 0.4769(5)
H10 H 0.4954(81) 0.2609(30) 0.4706(57)
H11 H 0.3044(84) 0.2755(33) 0.4532(60)
H12 H 0.3816(81) 0.2018(27) 0.4081(62)
P1 P -0.05001(14) 0.33538(5) 0.59461(9)
O1 O -0.1133(6) 0.2776(2) 0.4982(4)
O2 O 0.1006(4) 0.3326(2) 0.7261(3)
F1 F -0.2191(5) 0.3637(3) 0.6328(5)
F2 F -0.0253(11) 0.3985(3) 0.5113(4)
O2A O -0.3994(4) 0.1674(2) 0.2261(3)
S1A S -0.05319(12) 0.29317(4) 0.15361(9)
Ag1A Ag 0.42341(4) 0.305740(13) 0.81090(3)
loop_
_geom_bond_atom_site_label_1
_geom_bond_atom_site_label_2
_geom_bond_site_symmetry_1
_geom_bond_site_symmetry_2
Ag1 N1 1_555 1_555
S1 C9 1_555 1_555
N1 C6 1_555 1_555
N2 C1 1_555 1_555
C1 C2 1_555 1_555
C2 H1 1_555 1_555
C3 C2 1_555 1_555
H2 C3 1_555 1_555
C4 C3 1_555 1_555
H3 C4 1_555 1_555
C5 C4 1_555 1_555
H4 C5 1_555 1_555
C6 C1 1_555 1_555
C7 N2 1_555 1_555
H5 C7 1_555 1_555
H6 C7 1_555 1_555
H7 C7 1_555 1_555
C8 N1 1_555 1_555
C9 C8 1_555 1_555
H8 C9 1_555 1_555
H9 C9 1_555 1_555
C10 S1 1_555 1_555
H10 C10 1_555 1_555
H11 C10 1_555 1_555
H12 C10 1_555 1_555
P1 O1 1_555 1_555
O1 Ag1 1_555 1_555
O2 P1 1_555 1_555
F1 P1 1_555 1_555
F2 P1 1_555 1_555
O2A Ag1 1_555 1_555
S1A Ag1 1_555 1_555
Ag1A S1 1_555 1_555
N2 C8 1_555 1_555
C5 C6 1_555 1_555
O2 Ag1A 1_555 1_555

#END
