
#######################################################################
#
#                 Cambridge Crystallographic Data Centre
#                                CCDC 
#
#######################################################################
#
# If this CIF has been generated from an entry in the Cambridge 
# Structural Database, then it will include bibliographic, chemical, 
# crystal, experimental, refinement or atomic coordinate data resulting 
# from the CCDC's data processing and validation procedures.
#
#######################################################################

data_WIBMOJ
_symmetry_cell_setting           triclinic
_symmetry_space_group_name_H-M   'P -1'
_symmetry_Int_Tables_number      2
_space_group_name_Hall           '-P 1'
loop_
_symmetry_equiv_pos_site_id
_symmetry_equiv_pos_as_xyz
1 x,y,z
2 -x,-y,-z
_cell_length_a                   9.321(2)
_cell_length_b                   11.947(2)
_cell_length_c                   8.066(2)
_cell_angle_alpha                104.86(1)
_cell_angle_beta                 109.44(1)
_cell_angle_gamma                91.79(1)
_cell_volume                     811.953
loop_
_atom_site_label
_atom_site_type_symbol
_atom_site_fract_x
_atom_site_fract_y
_atom_site_fract_z
Cr1 Cr -0.33246(3) 0.28763(2) 0.29828(4)
O1 O -0.5105(1) 0.2735(1) 0.0732(2)
O2 O -0.4868(1) 0.2146(1) 0.3704(2)
O3 O -0.1851(1) 0.3432(1) 0.1985(2)
O4 O -0.2747(1) 0.1328(1) 0.1982(2)
O5 O -0.3566(1) 0.4476(1) 0.4198(2)
O6 O -0.1667(1) 0.3051(1) 0.5372(2)
O7 O -0.7598(1) 0.2042(1) -0.0532(2)
O8 O -0.7344(2) 0.1401(1) 0.2568(2)
O9 O -0.0180(1) 0.2742(1) 0.0651(2)
O10 O -0.0999(2) 0.0586(1) 0.0808(2)
O11 O -0.2705(2) 0.5788(1) 0.6969(2)
O12 O -0.0682(2) 0.4314(1) 0.8170(2)
O13 O -0.9053(2) -0.0831(1) 0.2890(2)
O14 O -0.6409(2) 0.0348(2) 0.6283(3)
O15 O -0.2602(2) 0.5421(1) 1.0621(2)
O18 O -0.8865(2) 0.1890(2) 0.5735(2)
C1 C -0.6351(2) 0.2252(1) 0.0726(2)
C2 C -0.6216(2) 0.1894(1) 0.2477(2)
C3 C -0.1162(2) 0.2628(2) 0.1304(2)
C4 C -0.1666(2) 0.1391(1) 0.1351(2)
C5 C -0.2711(2) 0.4858(2) 0.5899(2)
C6 C -0.1576(2) 0.4013(2) 0.6580(2)
Li1 Li -0.9295(4) 0.1122(3) -0.0148(5)
Li2 Li -0.1061(4) 0.5968(3) 0.9624(5)
Li3 Li -0.7923(5) 0.0767(3) 0.4282(5)
H1 H -0.9602 -0.1157 0.3428
H2 H -0.8339 -0.1318 0.2817
H3 H -0.6631 -0.0150 0.7021
H4 H -0.5500 0.0789 0.7001
H5 H -0.2253 0.4949 1.1200
H6 H -0.3329 0.4972 0.9658
H11 H -0.8689 0.2592 0.5437
H12 H -0.8274 0.2192 0.6975
Li1_2 Li 0.0705(4) 0.1122(3) -0.0148(5)
Li1A Li -0.0705(4) -0.1122(3) 0.0148(5)
Li2A Li 0.1061(4) 0.4032(3) 0.0376(5)
Li2A_2 Li 0.1061(4) 0.4032(3) 1.0376(5)
O9_2 O -1.0180(1) 0.2742(1) 0.0651(2)
O10_2 O -1.0999(2) 0.0586(1) 0.0808(2)
O10A O -0.9001(2) -0.0586(1) -0.0808(2)
O13A O -1.0947(2) 0.0831(1) -0.2890(2)
O9A O 0.0180(1) 0.7258(1) 0.9349(2)
O12A O 0.0682(2) 0.5686(1) 1.1830(2)
Li1A_2 Li -1.0705(4) -0.1122(3) 0.0148(5)
H1A H -1.0398 0.1157 -0.3428
H2A H -1.1661 0.1318 -0.2817
O16 O -0.3678(2) 0.1801(2) 0.7288(2)
H7 H -0.4027 0.2617 0.7654
H8 H -0.4029 0.1682 0.6027
O17 O -0.5017(2) 0.3923(2) 0.7759(3)
H9 H -0.5386 0.4383 0.7090
H10 H -0.5674 0.3905 0.8246
loop_
_geom_bond_atom_site_label_1
_geom_bond_atom_site_label_2
_geom_bond_site_symmetry_1
_geom_bond_site_symmetry_2
Cr1 O1 1_555 1_555
O1 C1 1_555 1_555
O2 Cr1 1_555 1_555
O3 Cr1 1_555 1_555
O4 Cr1 1_555 1_555
O5 Cr1 1_555 1_555
O6 Cr1 1_555 1_555
O7 C1 1_555 1_555
O8 C2 1_555 1_555
O9 C3 1_555 1_555
O10 C4 1_555 1_555
O11 C5 1_555 1_555
O12 C6 1_555 1_555
O13 Li3 1_555 1_555
O14 Li3 1_555 1_555
O15 Li2 1_555 1_555
O16 H7 1_555 1_555
O17 H9 1_555 1_555
O18 Li3 1_555 1_555
C1 C2 1_555 1_555
C2 O2 1_555 1_555
C3 O3 1_555 1_555
C4 O4 1_555 1_555
C5 O5 1_555 1_555
C6 O6 1_555 1_555
Li1 O7 1_555 1_555
Li2 O11 1_555 1_555
Li3 O8 1_555 1_555
H1 O13 1_555 1_555
H2 O13 1_555 1_555
H3 O14 1_555 1_555
H4 O14 1_555 1_555
H5 O15 1_555 1_555
H6 O15 1_555 1_555
H8 O16 1_555 1_555
H10 O17 1_555 1_555
H11 O18 1_555 1_555
H12 O18 1_555 1_555
Li1_2 O9 1_555 1_555
Li1A O10 1_555 1_555
Li2A O9 1_555 1_555
Li2A_2 O12 1_555 1_555
O9_2 Li1 1_555 1_555
O10_2 Li1 1_555 1_555
O10A Li1 1_555 1_555
O13A Li1 1_555 1_555
O9A Li2 1_555 1_555
O12A Li2 1_555 1_555
Li1A_2 O13 1_555 1_555
H1A O13A 1_555 1_555
H2A O13A 1_555 1_555
O8 Li1 1_555 1_555
O10 Li1_2 1_555 1_555
O12 Li2 1_555 1_555
C3 C4 1_555 1_555
C5 C6 1_555 1_555
Li2A_2 O12A 1_555 1_555
O10_2 Li1A_2 1_555 1_555
O10A Li1A_2 1_555 1_555

#END
