
#######################################################################
#
#                 Cambridge Crystallographic Data Centre
#                                CCDC 
#
#######################################################################
#
# If this CIF has been generated from an entry in the Cambridge 
# Structural Database, then it will include bibliographic, chemical, 
# crystal, experimental, refinement or atomic coordinate data resulting 
# from the CCDC's data processing and validation procedures.
#
#######################################################################

data_WIBNOK
_symmetry_cell_setting           monoclinic
_symmetry_space_group_name_H-M   'P 21/n'
_symmetry_Int_Tables_number      14
_space_group_name_Hall           '-P 2yn'
loop_
_symmetry_equiv_pos_site_id
_symmetry_equiv_pos_as_xyz
1 x,y,z
2 1/2-x,1/2+y,1/2-z
3 -x,-y,-z
4 1/2+x,1/2-y,1/2+z
_cell_length_a                   8.987(1)
_cell_length_b                   14.090(3)
_cell_length_c                   15.543(2)
_cell_angle_alpha                90
_cell_angle_beta                 101.67(1)
_cell_angle_gamma                90
_cell_volume                     1927.48
loop_
_atom_site_label
_atom_site_type_symbol
_atom_site_fract_x
_atom_site_fract_y
_atom_site_fract_z
Co1 Co -0.05782(2) 0.23048(2) 0.21749(1)
Na1 Na -0.07221(8) -0.17037(5) 0.07731(5)
O1 O -0.1471(2) -0.0324(1) 0.1297(1)
O2 O 0.3238(2) 0.2981(1) 0.3865(1)
N1 N 0.1163(2) 0.2168(1) 0.30812(9)
N2 N -0.0106(2) 0.3669(1) 0.2353(1)
N3 N -0.2396(2) 0.2134(1) 0.12331(9)
N4 N -0.0620(2) 0.0963(1) 0.21929(9)
N5 N -0.2730(2) 0.2421(1) 0.3460(1)
N6 N 0.1312(2) 0.2099(1) 0.0746(1)
C1 C 0.0486(2) 0.0554(1) 0.2861(1)
C2 C 0.0624(2) -0.0408(2) 0.3067(1)
C3 C 0.1761(3) -0.0694(2) 0.3764(2)
C4 C 0.2730(3) -0.0042(2) 0.4246(2)
C5 C 0.2605(2) 0.0919(2) 0.4053(1)
C6 C 0.1472(2) 0.1228(1) 0.3352(1)
C7 C 0.1989(2) 0.2934(2) 0.3346(1)
C8 C 0.1202(2) 0.3808(1) 0.2951(1)
C9 C 0.1734(3) 0.4713(2) 0.3198(1)
C10 C 0.0916(3) 0.5486(2) 0.2837(2)
C11 C -0.0404(3) 0.5353(2) 0.2229(2)
C12 C -0.0878(3) 0.4435(2) 0.1999(2)
C13 C -0.3447(2) 0.2754(2) 0.0835(1)
C14 C -0.4655(2) 0.2492(2) 0.0178(1)
C15 C -0.4786(2) 0.1566(2) -0.0093(1)
C16 C -0.3714(2) 0.0914(2) 0.0312(1)
C17 C -0.2562(2) 0.1212(1) 0.0983(1)
C18 C -0.1468(2) 0.0527(1) 0.1508(1)
C19 C -0.1900(2) 0.2376(1) 0.2999(1)
C20 C 0.0648(2) 0.2222(1) 0.1289(1)
H1 H -0.006 -0.086 0.274
H2 H 0.188 -0.135 0.390
H3 H 0.350 -0.026 0.473
H4 H 0.328 0.137 0.439
H5 H 0.265 0.479 0.362
H6 H 0.126 0.611 0.301
H7 H -0.099 0.588 0.198
H8 H -0.179 0.434 0.157
H9 H -0.335 0.340 0.101
H10 H -0.539 0.295 -0.008
H11 H -0.559 0.137 -0.055
H12 H -0.378 0.027 0.013
O2A O 0.1762(2) -0.2019(1) 0.1135(1)
N5A N -0.2270(2) -0.2579(1) 0.1540(1)
N6B N -0.1312(2) -0.2099(1) -0.0746(1)
Na1A Na 0.57221(8) 0.32963(5) 0.42269(5)
Na1A_2 Na -0.42779(8) 0.32963(5) 0.42269(5)
Na1B Na 0.07221(8) 0.17037(5) -0.07731(5)
loop_
_geom_bond_atom_site_label_1
_geom_bond_atom_site_label_2
_geom_bond_site_symmetry_1
_geom_bond_site_symmetry_2
Co1 N1 1_555 1_555
Na1 O1 1_555 1_555
O1 C18 1_555 1_555
O2 C7 1_555 1_555
N1 C6 1_555 1_555
N2 Co1 1_555 1_555
N3 Co1 1_555 1_555
N4 Co1 1_555 1_555
N5 C19 1_555 1_555
N6 C20 1_555 1_555
C1 N4 1_555 1_555
C2 C1 1_555 1_555
C3 C2 1_555 1_555
C4 C3 1_555 1_555
C5 C4 1_555 1_555
C6 C1 1_555 1_555
C7 N1 1_555 1_555
C8 N2 1_555 1_555
C9 C8 1_555 1_555
C10 C9 1_555 1_555
C11 C10 1_555 1_555
C12 N2 1_555 1_555
C13 N3 1_555 1_555
C14 C13 1_555 1_555
C15 C14 1_555 1_555
C16 C15 1_555 1_555
C17 N3 1_555 1_555
C18 N4 1_555 1_555
C19 Co1 1_555 1_555
C20 Co1 1_555 1_555
H1 C2 1_555 1_555
H2 C3 1_555 1_555
H3 C4 1_555 1_555
H4 C5 1_555 1_555
H5 C9 1_555 1_555
H6 C10 1_555 1_555
H7 C11 1_555 1_555
H8 C12 1_555 1_555
H9 C13 1_555 1_555
H10 C14 1_555 1_555
H11 C15 1_555 1_555
H12 C16 1_555 1_555
O2A Na1 1_555 1_555
N5A Na1 1_555 1_555
N6B Na1 1_555 1_555
Na1A O2 1_555 1_555
Na1A_2 N5 1_555 1_555
Na1B N6 1_555 1_555
C5 C6 1_555 1_555
C7 C8 1_555 1_555
C11 C12 1_555 1_555
C16 C17 1_555 1_555
C17 C18 1_555 1_555

#END
