
#######################################################################
#
#                 Cambridge Crystallographic Data Centre
#                                CCDC 
#
#######################################################################
#
# If this CIF has been generated from an entry in the Cambridge 
# Structural Database, then it will include bibliographic, chemical, 
# crystal, experimental, refinement or atomic coordinate data resulting 
# from the CCDC's data processing and validation procedures.
#
#######################################################################

data_WIBTAC
_symmetry_cell_setting           monoclinic
_symmetry_space_group_name_H-M   'C 2/c'
_symmetry_Int_Tables_number      15
_space_group_name_Hall           '-C 2yn'
loop_
_symmetry_equiv_pos_site_id
_symmetry_equiv_pos_as_xyz
1 x,y,z
2 1/2+x,1/2+y,z
3 -x,y,1/2-z
4 1/2-x,1/2+y,1/2-z
5 -x,-y,-z
6 1/2-x,1/2-y,-z
7 x,-y,1/2+z
8 1/2+x,1/2-y,1/2+z
_cell_length_a                   39.262(4)
_cell_length_b                   7.897(1)
_cell_length_c                   46.352(5)
_cell_angle_alpha                90
_cell_angle_beta                 160.47(2)
_cell_angle_gamma                90
_cell_volume                     4804.41
loop_
_atom_site_label
_atom_site_type_symbol
_atom_site_fract_x
_atom_site_fract_y
_atom_site_fract_z
Ag1 Ag 0.42101(1) 0.56587(7) 0.41995(1)
Ag2 Ag 0.81518(1) 0.31042(8) 0.73223(1)
Ag3 Ag 0.44744(1) 0.42123(9) 0.36839(1)
O1 O 0.5421(1) 0.5792(6) 0.48242(9)
O2 O 0.6712(1) 0.5086(5) 0.61461(9)
O3 O 0.9228(1) 0.2538(7) 0.7840(1)
O4 O 1.0323(1) 0.0984(8) 0.8972(1)
O5 O 0.3241(1) 0.4287(6) 0.3015(1)
O6 O 0.2203(1) 0.2616(6) 0.1939(1)
C1 C 0.7087(2) 0.6357(7) 0.5995(1)
C2 C 0.7556(2) 0.5497(8) 0.6147(1)
C3 C 0.8227(2) 0.626(1) 0.6494(2)
C4 C 0.8451(2) 0.796(1) 0.6714(2)
C5 C 0.8012(2) 0.8880(9) 0.6583(2)
C6 C 0.7343(2) 0.8080(8) 0.6233(2)
C7 C 0.6345(2) 0.5640(7) 0.5621(1)
O7 O 0.7729(1) 0.2965(8) 0.6047(1)
O8 O 0.6874(1) 0.2966(6) 0.5751(1)
N1 N 0.7367(1) 0.3689(7) 0.5962(1)
C8 C 1.0669(2) 0.1411(9) 0.8761(2)
C9 C 1.0933(2) 0.2686(9) 0.8777(2)
C10 C 1.1442(2) 0.237(1) 0.8929(2)
C11 C 1.1705(2) 0.067(1) 0.9075(2)
C12 C 1.1458(2) -0.059(1) 0.9065(2)
C13 C 1.0947(2) -0.022(1) 0.8911(2)
C14 C 1.0029(2) 0.1681(9) 0.8515(1)
O9 O 1.0793(2) 0.4929(8) 0.8973(1)
O10 O 1.0593(2) 0.5432(9) 0.8366(2)
N2 N 1.0738(2) 0.4483(8) 0.8685(2)
C15 C 0.1540(2) 0.4026(7) 0.1817(1)
C16 C 0.0719(2) 0.5072(8) 0.1097(1)
C17 C -0.0063(2) 0.5334(9) 0.0665(2)
C18 C -0.0044(2) 0.459(1) 0.0943(2)
C19 C 0.0779(2) 0.355(1) 0.1680(2)
C20 C 0.1561(2) 0.3274(9) 0.2106(1)
C21 C 0.2394(2) 0.3638(7) 0.2294(1)
O11 O -0.0115(2) 0.6712(9) 0.0095(2)
O12 O 0.1420(2) 0.5973(8) 0.1230(1)
N3 N 0.0675(2) 0.5985(7) 0.0791(1)
H1 H 0.850 0.564 0.655
H2 H 0.865 0.856 0.673
H3 H 0.814 1.045 0.671
H4 H 0.676 0.881 0.587
H5 H 1.188 0.362 0.921
H6 H 1.212 0.010 0.923
H7 H 1.134 -0.184 0.888
H8 H 1.056 -0.123 0.868
H9 H -0.062 0.603 0.017
H10 H -0.062 0.497 0.064
H11 H 0.107 0.279 0.215
H12 H 0.226 0.255 0.273
Ag1D Ag 0.57899(1) 0.43413(7) 0.58005(1)
O2D O 0.3288(1) 0.4914(5) 0.38539(9)
O6C O 0.2797(1) 0.7616(6) 0.3061(1)
Ag3G Ag 0.94744(1) 0.07877(9) 0.86839(1)
O6G O 0.7203(1) 0.2384(6) 0.6939(1)
Ag2G Ag 0.31518(1) 0.18958(8) 0.23223(1)
O4G O 0.5323(1) 0.4016(8) 0.3972(1)
Ag1C Ag 0.07899(1) 0.06587(7) 0.08005(1)
loop_
_geom_bond_atom_site_label_1
_geom_bond_atom_site_label_2
_geom_bond_site_symmetry_1
_geom_bond_site_symmetry_2
Ag1 O1 1_555 1_555
Ag2 O2 1_555 1_555
Ag3 O1 1_555 1_555
O1 C7 1_555 1_555
O2 C7 1_555 1_555
O3 Ag2 1_555 1_555
O4 C14 1_555 1_555
O5 Ag1 1_555 1_555
O6 C21 1_555 1_555
C1 C2 1_555 1_555
C2 C3 1_555 1_555
C3 C4 1_555 1_555
C4 C5 1_555 1_555
C5 C6 1_555 1_555
C6 C1 1_555 1_555
C7 C1 1_555 1_555
O7 N1 1_555 1_555
O8 N1 1_555 1_555
N1 C2 1_555 1_555
C8 C9 1_555 1_555
C9 C10 1_555 1_555
C10 C11 1_555 1_555
C11 C12 1_555 1_555
C12 C13 1_555 1_555
C13 C8 1_555 1_555
C14 O3 1_555 1_555
O9 N2 1_555 1_555
O10 N2 1_555 1_555
N2 C9 1_555 1_555
C15 C16 1_555 1_555
C16 C17 1_555 1_555
C17 C18 1_555 1_555
C18 C19 1_555 1_555
C19 C20 1_555 1_555
C20 C15 1_555 1_555
C21 O5 1_555 1_555
O11 N3 1_555 1_555
O12 N3 1_555 1_555
N3 C16 1_555 1_555
H1 C3 1_555 1_555
H2 C4 1_555 1_555
H3 C5 1_555 1_555
H4 C6 1_555 1_555
H5 C10 1_555 1_555
H6 C11 1_555 1_555
H7 C12 1_555 1_555
H8 C13 1_555 1_555
H9 C17 1_555 1_555
H10 C18 1_555 1_555
H11 C19 1_555 1_555
H12 C20 1_555 1_555
Ag1D Ag1 1_555 1_555
O2D Ag1 1_555 1_555
O6C Ag1 1_555 1_555
Ag3G Ag2 1_555 1_555
O6G Ag2 1_555 1_555
Ag2G Ag3 1_555 1_555
O4G Ag3 1_555 1_555
Ag1C O6 1_555 1_555
Ag3 O5 1_555 1_555
O2 Ag1D 1_555 1_555
O4 Ag3G 1_555 1_555
O6 Ag2G 1_555 1_555
C8 C14 1_555 1_555
C15 C21 1_555 1_555
Ag1D O6G 1_555 1_555

#END
