
#######################################################################
#
#                 Cambridge Crystallographic Data Centre
#                                CCDC 
#
#######################################################################
#
# If this CIF has been generated from an entry in the Cambridge 
# Structural Database, then it will include bibliographic, chemical, 
# crystal, experimental, refinement or atomic coordinate data resulting 
# from the CCDC's data processing and validation procedures.
#
#######################################################################

data_WICNEC
_symmetry_cell_setting           triclinic
_symmetry_space_group_name_H-M   'P -1'
_symmetry_Int_Tables_number      2
_space_group_name_Hall           '-P 1'
loop_
_symmetry_equiv_pos_site_id
_symmetry_equiv_pos_as_xyz
1 x,y,z
2 -x,-y,-z
_cell_length_a                   12.336(3)
_cell_length_b                   13.411(3)
_cell_length_c                   22.475(5)
_cell_angle_alpha                76.27(3)
_cell_angle_beta                 75.26(3)
_cell_angle_gamma                67.95(3)
_cell_volume                     3290.86
loop_
_atom_site_label
_atom_site_type_symbol
_atom_site_fract_x
_atom_site_fract_y
_atom_site_fract_z
La1 La -0.05039(2) 1.01366(2) 0.351318(13)
La2 La 0.13006(2) 0.69904(2) 0.256780(12)
La3 La -0.50926(2) 1.55728(2) 0.147270(12)
La4 La -0.16752(3) 1.37730(2) 0.231900(12)
O1 O -0.0041(4) 0.8550(3) 0.2008(2)
O2 O -0.1110(4) 0.9631(3) 0.27055(19)
O3 O -0.3242(3) 1.3593(3) 0.18244(16)
O4 O -0.4235(3) 1.3712(3) 0.1106(2)
O5 O -0.1907(5) 1.1200(4) -0.0425(2)
O6 O -0.0991(5) 0.9537(4) -0.0091(2)
O7 O 0.0026(4) 1.2461(3) 0.17633(19)
O8 O 0.0209(4) 1.1050(3) 0.25126(18)
O9 O 0.3015(3) 0.7452(3) 0.17973(16)
O10 O 0.4670(4) 0.7537(3) 0.1176(2)
O11 O 0.5391(4) 1.0947(4) 0.0351(2)
O12 O 0.4039(4) 1.2460(3) 0.05536(19)
O13 O 0.0381(4) 0.6867(3) 0.36597(17)
O14 O -0.0476(4) 0.8360(3) 0.40903(16)
O15 O 0.0344(4) 0.8327(3) 0.61380(16)
O16 O 0.0776(3) 0.6744(3) 0.67729(15)
O17 O 0.2331(5) 0.3413(3) 0.5884(2)
O18 O 0.2015(4) 0.3411(3) 0.4997(2)
O19 O 0.1567(3) 0.9287(3) 0.3767(2)
O20 O 0.1618(3) 0.8400(3) 0.30409(17)
O21 O 0.5757(4) 0.5756(4) 0.2317(2)
O22 O 0.7053(5) 0.5204(4) 0.2937(2)
O23 O 0.5631(5) 0.5805(5) 0.5098(2)
O24 O 0.3858(6) 0.6844(6) 0.5381(2)
O25 O -0.8090(4) 1.5037(3) 0.3085(2)
O26 O -0.6436(4) 1.5204(3) 0.25004(18)
O27 O -0.2560(4) 1.2479(4) 0.30542(19)
O28 O -0.2631(4) 1.1036(4) 0.3745(2)
O29 O -0.6382(5) 1.0616(5) 0.4818(3)
O30 O -0.7893(4) 1.1468(3) 0.4396(2)
O31 O 0.1498(3) 0.5218(3) -0.12737(15)
O32 O 0.3154(3) 0.4462(3) -0.08757(15)
O33 O 0.3255(3) 0.5331(3) 0.11376(16)
O34 O 0.1520(3) 0.6149(3) 0.17120(17)
O35 O -0.1990(4) 0.7867(4) 0.0816(2)
O36 O -0.2108(4) 0.7404(4) -0.0005(2)
O37 O -0.1126(4) 1.0130(3) 0.47444(18)
O38 O -0.0591(4) 0.6501(3) 0.27324(19)
O39 O -0.5202(4) 1.6160(4) 0.02777(19)
O40 O 0.0053(4) 1.4518(3) 0.21382(19)
N1 N -0.1539(5) 1.0468(4) -0.0012(2)
N2 N 0.4400(4) 1.1463(4) 0.0588(2)
N3 N 0.1976(5) 0.3878(3) 0.5404(2)
N4 N 0.4680(6) 0.6436(5) 0.4985(3)
N5 N -0.6899(4) 1.1320(4) 0.4452(3)
N6 N -0.1551(4) 0.7376(4) 0.0377(2)
C1 C -0.1388(4) 1.0250(4) 0.1657(2)
C2 C -0.2104(4) 1.1299(4) 0.1763(2)
H1 H -0.2224 1.1491 0.2153
C3 C -0.2635(4) 1.2056(4) 0.1300(2)
C4 C -0.2477(4) 1.1780(4) 0.0720(2)
H2 H -0.2852 1.2281 0.0408
C5 C -0.1750(5) 1.0746(4) 0.0618(2)
C6 C -0.1205(5) 0.9974(4) 0.1072(2)
H3 H -0.0723 0.9279 0.0990
C7 C -0.0807(5) 0.9420(4) 0.2167(3)
C8 C -0.3421(4) 1.3184(4) 0.1415(2)
C9 C 0.1745(4) 1.0912(4) 0.1631(2)
C10 C 0.2140(4) 0.9778(4) 0.1705(2)
H4 H 0.1659 0.9401 0.1970
C11 C 0.3234(5) 0.9211(4) 0.1392(2)
C12 C 0.3992(5) 0.9760(4) 0.1019(2)
H5 H 0.4747 0.9384 0.0819
C13 C 0.3579(5) 1.0880(4) 0.0957(2)
C14 C 0.2483(5) 1.1463(4) 0.1240(2)
H6 H 0.2230 1.2220 0.1174
C15 C 0.0580(5) 1.1509(4) 0.1993(2)
C16 C 0.3666(5) 0.7986(4) 0.1461(2)
C17 C 0.0582(4) 0.6748(4) 0.4687(2)
C18 C 0.0470(4) 0.7282(4) 0.5170(2)
H7 H 0.0143 0.8038 0.5119
C19 C 0.0832(4) 0.6715(4) 0.5722(2)
C20 C 0.1326(4) 0.5581(4) 0.5807(2)
H8 H 0.1563 0.5184 0.6179
C21 C 0.1448(5) 0.5073(4) 0.5316(2)
C22 C 0.1100(5) 0.5618(4) 0.4760(2)
H9 H 0.1208 0.5242 0.4439
C23 C 0.0137(5) 0.7370(4) 0.4105(2)
C24 C 0.0646(4) 0.7307(4) 0.6250(2)
C25 C 0.3217(5) 0.7695(4) 0.3607(2)
C26 C 0.4048(5) 0.7110(4) 0.3159(2)
H10 H 0.3888 0.7231 0.2760
C27 C 0.5117(5) 0.6347(4) 0.3299(2)
C28 C 0.5330(5) 0.6136(5) 0.3900(3)
H11 H 0.6038 0.5625 0.4003
C29 C 0.4473(5) 0.6700(5) 0.4342(3)
C30 C 0.3438(5) 0.7491(5) 0.4210(3)
H12 H 0.2896 0.7882 0.4515
C31 C 0.2076(5) 0.8516(4) 0.3458(3)
C32 C 0.6041(6) 0.5722(5) 0.2812(3)
C33 C -0.6300(4) 1.3623(4) 0.3279(2)
C34 C -0.5081(5) 1.3287(4) 0.3204(2)
H13 H -0.4673 1.3714 0.2921
C35 C -0.4445(4) 1.2329(4) 0.3538(2)
C36 C -0.5064(5) 1.1694(4) 0.3969(2)
H14 H -0.4662 1.1058 0.4209
C37 C -0.6264(5) 1.2033(4) 0.4025(2)
C38 C -0.6913(5) 1.2985(4) 0.3696(2)
H15 H -0.7736 1.3193 0.3752
C39 C -0.6988(5) 1.4686(4) 0.2929(2)
C40 C -0.3127(5) 1.1940(5) 0.3443(3)
C41 C 0.1439(4) 0.5559(4) -0.0274(2)
C42 C 0.2053(4) 0.5408(4) 0.0194(2)
H16 H 0.2848 0.4964 0.0158
C43 C 0.1495(4) 0.5912(4) 0.0721(2)
C44 C 0.0305(5) 0.6562(4) 0.0774(2)
H17 H -0.0083 0.6897 0.1124
C45 C -0.0295(4) 0.6704(4) 0.0305(2)
C46 C 0.0256(4) 0.6218(4) -0.0229(2)
H18 H -0.0160 0.6333 -0.0545
C47 C 0.2081(5) 0.5034(4) -0.0849(2)
C48 C 0.2158(5) 0.5784(4) 0.1224(2)
La1A La 0.05039(2) 0.98634(2) 0.648682(13)
La2_2 La -0.86994(2) 1.69904(2) 0.256780(12)
La3_2 La 0.49074(2) 0.55728(2) 0.147270(12)
La3A La 0.50926(2) 0.44272(2) -0.147270(12)
La4A La 0.16752(3) 0.62270(2) 0.768100(12)
La4_2 La 0.83248(3) 0.37730(2) 0.231900(12)
La4A_2 La 0.16752(3) 0.62270(2) -0.231900(12)
O9_2 O -0.6985(3) 1.7452(3) 0.17973(16)
O10_2 O -0.5330(4) 1.7537(3) 0.1176(2)
O15A O -0.0344(4) 1.1673(3) 0.38620(16)
O16A O -0.0776(3) 1.3256(3) 0.32271(15)
O21_2 O -0.4243(4) 1.5756(4) 0.2317(2)
O22_2 O -0.2947(5) 1.5204(4) 0.2937(2)
O25_2 O 0.1910(4) 0.5037(3) 0.3085(2)
O26_2 O 0.3564(4) 0.5204(3) 0.25004(18)
O31A O -0.1498(3) 1.4782(3) 0.12737(15)
O32A O -0.3154(3) 1.5538(3) 0.08757(15)
O33_2 O -0.6745(3) 1.5331(3) 0.11376(16)
N7 N 0.2276(5) 0.2889(4) 0.2334(3)
N8 N 0.7210(5) -0.1949(4) 0.2730(3)
C49 C 0.2184(6) 0.2030(5) 0.2761(3)
H19 H 0.1442 0.2083 0.3010
C50 C 0.3114(6) 0.1063(5) 0.2861(3)
H20 H 0.2995 0.0494 0.3169
C51 C 0.4224(5) 0.0964(5) 0.2491(3)
C52 C 0.4335(5) 0.1852(5) 0.2050(3)
H21 H 0.5064 0.1821 0.1793
C53 C 0.3354(6) 0.2786(5) 0.1996(3)
H22 H 0.3456 0.3379 0.1704
C54 C 0.5253(5) -0.0050(5) 0.2574(3)
C55 C 0.5974(6) -0.0559(6) 0.2083(3)
H23 H 0.5832 -0.0269 0.1680
C56 C 0.6897(7) -0.1489(6) 0.2188(4)
H24 H 0.7346 -0.1830 0.1847
C57 C 0.6512(8) -0.1450(6) 0.3207(4)
H25 H 0.6695 -0.1744 0.3603
C58 C 0.5533(8) -0.0521(5) 0.3146(3)
H26 H 0.5065 -0.0217 0.3497
loop_
_geom_bond_atom_site_label_1
_geom_bond_atom_site_label_2
_geom_bond_site_symmetry_1
_geom_bond_site_symmetry_2
La1 O2 1_555 1_555
La2 O1 1_555 1_555
La3 O3 1_555 1_555
La4 O3 1_555 1_555
O1 C7 1_555 1_555
O2 C7 1_555 1_555
O3 C8 1_555 1_555
O4 La3 1_555 1_555
O5 N1 1_555 1_555
O6 N1 1_555 1_555
O7 La4 1_555 1_555
O8 La1 1_555 1_555
O9 La2 1_555 1_555
O10 C16 1_555 1_555
O11 N2 1_555 1_555
O12 N2 1_555 1_555
O13 La2 1_555 1_555
O14 La1 1_555 1_555
O15 C24 1_555 1_555
O16 C24 1_555 1_555
O17 N3 1_555 1_555
O18 N3 1_555 1_555
O19 La1 1_555 1_555
O20 La1 1_555 1_555
O21 C32 1_555 1_555
O22 C32 1_555 1_555
O23 N4 1_555 1_555
O24 N4 1_555 1_555
O25 C39 1_555 1_555
O26 La3 1_555 1_555
O27 La4 1_555 1_555
O28 La1 1_555 1_555
O29 N5 1_555 1_555
O30 N5 1_555 1_555
O31 C47 1_555 1_555
O32 C47 1_555 1_555
O33 C48 1_555 1_555
O34 La2 1_555 1_555
O35 N6 1_555 1_555
O36 N6 1_555 1_555
O37 La1 1_555 1_555
O38 La2 1_555 1_555
O39 La3 1_555 1_555
O40 La4 1_555 1_555
N1 C5 1_555 1_555
N2 C13 1_555 1_555
N3 C21 1_555 1_555
N4 C29 1_555 1_555
N5 C37 1_555 1_555
N6 C45 1_555 1_555
N7 C49 1_555 1_555
N8 C56 1_555 1_555
C1 C2 1_555 1_555
C2 H1 1_555 1_555
C3 C2 1_555 1_555
C4 C3 1_555 1_555
H2 C4 1_555 1_555
C5 C4 1_555 1_555
C6 C1 1_555 1_555
H3 C6 1_555 1_555
C7 C1 1_555 1_555
C8 O4 1_555 1_555
C9 C10 1_555 1_555
C10 H4 1_555 1_555
C11 C10 1_555 1_555
C12 C11 1_555 1_555
H5 C12 1_555 1_555
C13 C12 1_555 1_555
C14 C9 1_555 1_555
H6 C14 1_555 1_555
C15 O7 1_555 1_555
C16 O9 1_555 1_555
C17 C18 1_555 1_555
C18 H7 1_555 1_555
C19 C18 1_555 1_555
C20 C19 1_555 1_555
H8 C20 1_555 1_555
C21 C20 1_555 1_555
C22 C17 1_555 1_555
H9 C22 1_555 1_555
C23 O13 1_555 1_555
C24 C19 1_555 1_555
C25 C26 1_555 1_555
C26 H10 1_555 1_555
C27 C26 1_555 1_555
C28 C27 1_555 1_555
H11 C28 1_555 1_555
C29 C28 1_555 1_555
C30 C25 1_555 1_555
H12 C30 1_555 1_555
C31 O19 1_555 1_555
C32 C27 1_555 1_555
C33 C34 1_555 1_555
C34 H13 1_555 1_555
C35 C34 1_555 1_555
C36 C35 1_555 1_555
H14 C36 1_555 1_555
C37 C36 1_555 1_555
C38 C33 1_555 1_555
H15 C38 1_555 1_555
C39 O26 1_555 1_555
C40 O27 1_555 1_555
C41 C42 1_555 1_555
C42 H16 1_555 1_555
C43 C42 1_555 1_555
C44 C43 1_555 1_555
H17 C44 1_555 1_555
C45 C44 1_555 1_555
C46 C41 1_555 1_555
H18 C46 1_555 1_555
C47 C41 1_555 1_555
C48 O34 1_555 1_555
C49 H19 1_555 1_555
C50 C49 1_555 1_555
H20 C50 1_555 1_555
C51 C50 1_555 1_555
C52 C51 1_555 1_555
H21 C52 1_555 1_555
C53 N7 1_555 1_555
H22 C53 1_555 1_555
C54 C51 1_555 1_555
C55 C54 1_555 1_555
H23 C55 1_555 1_555
C56 C55 1_555 1_555
H24 C56 1_555 1_555
C57 N8 1_555 1_555
H25 C57 1_555 1_555
C58 C54 1_555 1_555
H26 C58 1_555 1_555
La1A O15 1_555 1_555
La2_2 O25 1_555 1_555
La3_2 O9 1_555 1_555
La3A O32 1_555 1_555
La4A O16 1_555 1_555
La4_2 O22 1_555 1_555
La4A_2 O31 1_555 1_555
O9_2 La3 1_555 1_555
O10_2 La3 1_555 1_555
O15A La1 1_555 1_555
O16A La4 1_555 1_555
O21_2 La3 1_555 1_555
O22_2 La4 1_555 1_555
O25_2 La2 1_555 1_555
O26_2 La2 1_555 1_555
O31A La4 1_555 1_555
O32A La3 1_555 1_555
O33_2 La3 1_555 1_555
La2 O20 1_555 1_555
O8 C15 1_555 1_555
O10 La3_2 1_555 1_555
O14 C23 1_555 1_555
O20 C31 1_555 1_555
O21 La3_2 1_555 1_555
O26 La2_2 1_555 1_555
O28 C40 1_555 1_555
O33 La3_2 1_555 1_555
C3 C8 1_555 1_555
C5 C6 1_555 1_555
C9 C15 1_555 1_555
C11 C16 1_555 1_555
C13 C14 1_555 1_555
C17 C23 1_555 1_555
C21 C22 1_555 1_555
C25 C31 1_555 1_555
C29 C30 1_555 1_555
C33 C39 1_555 1_555
C35 C40 1_555 1_555
C37 C38 1_555 1_555
C43 C48 1_555 1_555
C45 C46 1_555 1_555
C52 C53 1_555 1_555
C57 C58 1_555 1_555
La2_2 O9_2 1_555 1_555
La3_2 O26_2 1_555 1_555

#END
