
#######################################################################
#
#                 Cambridge Crystallographic Data Centre
#                                CCDC 
#
#######################################################################
#
# If this CIF has been generated from an entry in the Cambridge 
# Structural Database, then it will include bibliographic, chemical, 
# crystal, experimental, refinement or atomic coordinate data resulting 
# from the CCDC's data processing and validation procedures.
#
#######################################################################

data_WICRIK
_symmetry_cell_setting           tetragonal
_symmetry_space_group_name_H-M   'I 41/a'
_symmetry_Int_Tables_number      88
_space_group_name_Hall           '-I 4ad'
loop_
_symmetry_equiv_pos_site_id
_symmetry_equiv_pos_as_xyz
1 x,y,z
2 3/4-y,1/4+x,1/4+z
3 1/4+y,1/4-x,1/4+z
4 1/2+x,1/2+y,1/2+z
5 1/4-y,3/4+x,3/4+z
6 -x,1/2-y,z
7 1/2-x,-y,1/2+z
8 3/4+y,3/4-x,3/4+z
9 -x,-y,-z
10 1/4+y,3/4-x,3/4-z
11 3/4-y,3/4+x,3/4-z
12 1/2-x,1/2-y,1/2-z
13 3/4+y,1/4-x,1/4-z
14 x,1/2+y,-z
15 1/2+x,y,1/2-z
16 1/4-y,1/4+x,1/4-z
_cell_length_a                   13.1259(3)
_cell_length_b                   13.1259(3)
_cell_length_c                   22.2808(6)
_cell_angle_alpha                90
_cell_angle_beta                 90
_cell_angle_gamma                90
_cell_volume                     3838.74
loop_
_atom_site_label
_atom_site_type_symbol
_atom_site_fract_x
_atom_site_fract_y
_atom_site_fract_z
Cu1 Cu 0.13268(3) 0.71075(3) 0.085357(15)
Cl1 Cl 0.08542(6) 0.85263(6) 0.03803(3)
O1 O 0.13156(18) 0.65190(18) 0.31945(9)
H1 H 0.1300 0.5916 0.3068
N1 N 0.12057(18) 0.75965(18) 0.16917(11)
O2 O 0.08790(17) 0.48363(16) 0.27701(9)
N2 N 0.13256(18) 0.57888(18) 0.12680(10)
C1 C 0.1205(2) 0.6856(2) 0.21230(13)
C2 C 0.1194(2) 0.5804(2) 0.18741(12)
C3 C 0.1251(2) 0.7160(2) 0.27324(13)
C4 C 0.1059(2) 0.4868(2) 0.21855(13)
C5 C 0.1267(2) 0.8192(2) 0.28677(14)
H2 H 0.128(3) 0.835(3) 0.3218(16)
C6 C 0.1121(2) 0.3964(2) 0.18526(14)
H3 H 0.104(3) 0.343(3) 0.2045(16)
C7 C 0.1271(2) 0.8910(2) 0.24209(14)
H4 H 0.130(3) 0.959(3) 0.2503(16)
C8 C 0.1258(2) 0.3986(2) 0.12424(14)
H5 H 0.132(3) 0.340(3) 0.1038(18)
C9 C 0.1244(2) 0.8584(2) 0.18302(14)
H6 H 0.121(3) 0.906(3) 0.1499(17)
C10 C 0.1347(2) 0.4914(2) 0.09593(14)
H7 H 0.147(3) 0.497(3) 0.0544(17)
Cu1A Cu 0.03925(3) 0.38268(3) 0.335357(15)
O2G O 0.23363(16) 0.66210(17) 0.02701(9)
loop_
_geom_bond_atom_site_label_1
_geom_bond_atom_site_label_2
_geom_bond_site_symmetry_1
_geom_bond_site_symmetry_2
Cu1 Cl1 1_555 1_555
O1 H1 1_555 1_555
N1 Cu1 1_555 1_555
O2 C4 1_555 1_555
N2 Cu1 1_555 1_555
C1 N1 1_555 1_555
C2 N2 1_555 1_555
C3 O1 1_555 1_555
C4 C2 1_555 1_555
C5 C3 1_555 1_555
H2 C5 1_555 1_555
C6 C4 1_555 1_555
H3 C6 1_555 1_555
C7 C5 1_555 1_555
H4 C7 1_555 1_555
C8 C6 1_555 1_555
H5 C8 1_555 1_555
C9 N1 1_555 1_555
H6 C9 1_555 1_555
C10 N2 1_555 1_555
H7 C10 1_555 1_555
Cu1A O2 1_555 1_555
O2G Cu1 1_555 1_555
C1 C2 1_555 1_555
C1 C3 1_555 1_555
C7 C9 1_555 1_555
C8 C10 1_555 1_555

#END
