
#######################################################################
#
#                 Cambridge Crystallographic Data Centre
#                                CCDC 
#
#######################################################################
#
# If this CIF has been generated from an entry in the Cambridge 
# Structural Database, then it will include bibliographic, chemical, 
# crystal, experimental, refinement or atomic coordinate data resulting 
# from the CCDC's data processing and validation procedures.
#
#######################################################################

data_WICTUY
_symmetry_cell_setting           triclinic
_symmetry_space_group_name_H-M   'P -1'
_symmetry_Int_Tables_number      2
_space_group_name_Hall           '-P 1'
loop_
_symmetry_equiv_pos_site_id
_symmetry_equiv_pos_as_xyz
1 x,y,z
2 -x,-y,-z
_cell_length_a                   10.4762(7)
_cell_length_b                   12.3802(9)
_cell_length_c                   23.4254(16)
_cell_angle_alpha                96.1230(10)
_cell_angle_beta                 100.4500(10)
_cell_angle_gamma                111.8460(10)
_cell_volume                     2722.31
loop_
_atom_site_label
_atom_site_type_symbol
_atom_site_fract_x
_atom_site_fract_y
_atom_site_fract_z
Er1 Er 0.48358(2) 0.693660(19) 0.288615(9)
Er2 Er 0.45769(2) 0.89040(2) 0.426447(9)
Er3 Er 0.33370(2) 1.38370(2) 0.152900(9)
Cu1 Cu 0.46636(6) 1.18091(6) 0.06025(3)
O1 O 0.4948(4) 0.8771(4) 0.25838(16)
O2 O 0.3740(4) 0.8257(3) 0.32516(14)
O3 O 0.2205(3) 1.1832(3) 0.12571(14)
O4 O 0.3693(4) 1.0960(3) 0.11533(15)
O5 O 0.4667(4) 0.5627(3) 0.14006(15)
O6 O 0.6054(4) 0.7107(3) 0.21464(14)
O7 O 0.8060(4) 0.6383(3) -0.05737(14)
O8 O 0.6091(4) 0.6635(3) -0.05707(14)
O9 O 0.2786(3) 0.6300(3) 0.21945(14)
O10 O 0.1644(4) 0.4404(4) 0.17450(16)
O11 O -0.3622(4) 0.2794(3) 0.12067(15)
O12 O -0.4692(3) 0.3530(3) 0.17909(15)
O13 O 0.3254(4) 0.3180(3) 0.24502(14)
O14 O 0.4725(4) 0.5069(3) 0.26910(15)
O15 O 0.4994(4) 0.1281(3) 0.47925(14)
O16 O 0.4622(4) 0.0562(3) 0.38494(15)
O17 O -0.0895(7) 0.1729(5) 0.2592(3)
O18 O -0.2600(6) 0.1270(6) 0.3071(3)
H1 H -0.2812 0.0604 0.2884
O19 O 0.3169(4) 0.5793(3) 0.33429(14)
O20 O 0.3118(4) 0.6941(3) 0.41305(15)
O21 O 1.3107(3) 0.9813(3) 0.54072(15)
O22 O 1.2537(3) 0.8983(3) 0.44505(15)
O23 O 0.7299(4) 0.7635(4) 0.33926(15)
O24 O 0.5890(3) 0.7848(3) 0.39305(15)
N1 N 0.5763(5) 1.2232(4) -0.00131(19)
N2 N 0.3286(5) 1.0571(4) -0.0093(2)
C1 C 0.7005(7) 1.3139(6) 0.0061(3)
H2 H 0.7464 1.3594 0.0437
C2 C 0.7630(8) 1.3425(8) -0.0399(4)
H3 H 0.8475 1.4088 -0.0336
C3 C 0.7011(9) 1.2734(8) -0.0948(3)
H4 H 0.7447 1.2893 -0.1260
C4 C 0.5717(8) 1.1789(7) -0.1031(3)
H5 H 0.5258 1.1321 -0.1404
C5 C 0.5108(7) 1.1541(6) -0.0557(2)
C6 C 0.3738(6) 1.0575(6) -0.0594(2)
C7 C 0.2906(8) 0.9732(7) -0.1104(3)
H6 H 0.3216 0.9744 -0.1452
C8 C 0.1628(8) 0.8884(7) -0.1084(3)
H7 H 0.1073 0.8305 -0.1416
C9 C 0.1177(8) 0.8894(7) -0.0579(3)
H8 H 0.0302 0.8336 -0.0564
C10 C 0.2026(7) 0.9738(7) -0.0088(3)
H9 H 0.1717 0.9733 0.0260
C11 C 0.2464(5) 1.0531(4) 0.1902(2)
C12 C 0.3308(5) 0.9966(5) 0.2127(2)
H10 H 0.4047 0.9967 0.1959
C13 C 0.3062(5) 0.9406(4) 0.2594(2)
C14 C 0.1945(6) 0.9413(5) 0.2850(2)
H11 H 0.1770 0.9035 0.3167
C15 C 0.1119(6) 0.9982(5) 0.2628(2)
H12 H 0.0379 0.9983 0.2795
C16 C 0.1371(6) 1.0550(5) 0.2161(2)
H13 H 0.0816 1.0945 0.2019
C17 C 0.2801(5) 1.1155(5) 0.1401(2)
C18 C 0.3986(5) 0.8808(4) 0.2826(2)
C19 C 0.6929(5) 0.6860(5) 0.1294(2)
C20 C 0.8332(6) 0.7426(5) 0.1590(2)
H14 H 0.8577 0.7656 0.2000
C21 C 0.9385(6) 0.7656(6) 0.1277(2)
H15 H 1.0334 0.8015 0.1478
C22 C 0.9011(6) 0.7347(6) 0.0668(2)
H16 H 0.9714 0.7477 0.0459
C23 C 0.7610(5) 0.6848(5) 0.0367(2)
C24 C 0.6561(5) 0.6571(4) 0.0683(2)
H17 H 0.5613 0.6191 0.0483
C25 C 0.5806(5) 0.6513(5) 0.1642(2)
C26 C 0.7221(5) 0.6606(4) -0.0300(2)
C27 C -0.2200(5) 0.4391(5) 0.2004(2)
C28 C -0.2144(5) 0.5210(5) 0.2470(2)
H18 H -0.2971 0.5162 0.2579
C29 C -0.0845(6) 0.6107(5) 0.2776(2)
H19 H -0.0808 0.6656 0.3089
C30 C 0.0378(5) 0.6178(5) 0.2615(2)
H20 H 0.1237 0.6793 0.2811
C31 C 0.0335(5) 0.5335(5) 0.2163(2)
C32 C -0.0953(5) 0.4437(5) 0.1858(2)
H21 H -0.0982 0.3868 0.1557
C33 C -0.3601(5) 0.3499(5) 0.1647(2)
C34 C 0.1674(5) 0.5336(5) 0.2024(2)
C35 C 0.4722(5) 0.3863(4) 0.3436(2)
C36 C 0.5431(6) 0.4832(5) 0.3895(2)
H22 H 0.5590 0.5588 0.3820
C37 C 0.5906(6) 0.4699(5) 0.4461(2)
H23 H 0.6372 0.5357 0.4765
C38 C 0.5683(6) 0.3581(5) 0.4570(2)
H24 H 0.5998 0.3486 0.4952
C39 C 0.4997(5) 0.2594(4) 0.4120(2)
C40 C 0.4501(5) 0.2732(4) 0.3545(2)
H25 H 0.4029 0.2074 0.3241
C41 C 0.4184(5) 0.4036(5) 0.2822(2)
C42 C 0.4854(5) 0.1399(4) 0.4250(2)
C43 C -0.0738(6) 0.3152(6) 0.3399(3)
C44 C -0.1444(7) 0.3432(7) 0.3808(3)
H26 H -0.2342 0.2899 0.3813
C45 C -0.0806(7) 0.4499(7) 0.4204(3)
H27 H -0.1265 0.4671 0.4483
C46 C 0.0508(6) 0.5311(6) 0.4188(3)
H28 H 0.0915 0.6034 0.4451
C47 C 0.1235(5) 0.5064(5) 0.3781(2)
C48 C 0.0614(6) 0.3980(5) 0.3389(2)
H29 H 0.1091 0.3801 0.3119
C49 C -0.1390(8) 0.2019(7) 0.2974(3)
C50 C 0.2607(5) 0.5991(5) 0.3749(2)
C51 C 1.0677(5) 0.8776(5) 0.4939(2)
C52 C 0.9634(5) 0.8480(5) 0.4420(2)
H30 H 0.9880 0.8513 0.4059
C53 C 0.8220(5) 0.8135(4) 0.4442(2)
C54 C 0.7858(5) 0.8044(5) 0.4978(2)
H31 H 0.6913 0.7814 0.4991
C55 C 0.8882(6) 0.8291(5) 0.5499(2)
H32 H 0.8628 0.8197 0.5856
C56 C 1.0288(6) 0.8677(5) 0.5473(2)
H33 H 1.0985 0.8876 0.5821
C57 C 1.2223(5) 0.9222(5) 0.4933(2)
C58 C 0.7107(5) 0.7887(5) 0.3894(2)
Er2A Er 0.54231(2) 0.10960(2) 0.573553(9)
Er2_2 Er 0.45769(2) -0.10960(2) 0.426447(9)
Er2A_2 Er 1.54231(2) 1.10960(2) 0.573553(9)
Er2_3 Er 1.45769(2) 0.89040(2) 0.426447(9)
Er3_2 Er 0.33370(2) 0.38370(2) 0.152900(9)
Er3A Er 0.66630(2) 0.61630(2) -0.152900(9)
Er3_3 Er -0.66630(2) 0.38370(2) 0.152900(9)
Cu1A Cu 0.53364(6) 0.81909(6) -0.06025(3)
Cu1_2 Cu -0.53364(6) 0.18091(6) 0.06025(3)
O5_2 O 0.4667(4) 1.5627(3) 0.14006(15)
O7A O 0.1940(4) 1.3617(3) 0.05737(14)
O8A O 0.3909(4) 1.3365(3) 0.05707(14)
O10_2 O 0.1644(4) 1.4404(4) 0.17450(16)
O11_2 O 0.6378(4) 1.2794(3) 0.12067(15)
O12_2 O 0.5308(3) 1.3530(3) 0.17909(15)
O13_2 O 0.3254(4) 1.3180(3) 0.24502(14)
O15A O 0.5006(4) 0.8719(3) 0.52075(14)
O16_2 O 0.4622(4) 1.0562(3) 0.38494(15)
O21A O 0.6893(3) 1.0187(3) 0.45928(15)
O22_2 O 0.2537(3) 0.8983(3) 0.44505(15)
O25 O 0.7495(17) 0.9509(14) 0.2315(8)
loop_
_geom_bond_atom_site_label_1
_geom_bond_atom_site_label_2
_geom_bond_site_symmetry_1
_geom_bond_site_symmetry_2
Er1 O1 1_555 1_555
Er2 O2 1_555 1_555
Er3 O3 1_555 1_555
Cu1 O4 1_555 1_555
O1 C18 1_555 1_555
O2 Er1 1_555 1_555
O3 C17 1_555 1_555
O4 C17 1_555 1_555
O5 C25 1_555 1_555
O6 Er1 1_555 1_555
O7 C26 1_555 1_555
O8 C26 1_555 1_555
O9 Er1 1_555 1_555
O10 C34 1_555 1_555
O11 C33 1_555 1_555
O12 C33 1_555 1_555
O13 C41 1_555 1_555
O14 Er1 1_555 1_555
O15 C42 1_555 1_555
O16 C42 1_555 1_555
O17 C49 1_555 1_555
O18 H1 1_555 1_555
O19 Er1 1_555 1_555
O20 Er2 1_555 1_555
O21 C57 1_555 1_555
O22 C57 1_555 1_555
O23 Er1 1_555 1_555
O24 Er1 1_555 1_555
N1 Cu1 1_555 1_555
N2 Cu1 1_555 1_555
C1 N1 1_555 1_555
H2 C1 1_555 1_555
C2 C1 1_555 1_555
H3 C2 1_555 1_555
C3 C2 1_555 1_555
H4 C3 1_555 1_555
C4 C3 1_555 1_555
H5 C4 1_555 1_555
C5 N1 1_555 1_555
C6 N2 1_555 1_555
C7 C6 1_555 1_555
H6 C7 1_555 1_555
C8 C7 1_555 1_555
H7 C8 1_555 1_555
C9 C8 1_555 1_555
H8 C9 1_555 1_555
C10 N2 1_555 1_555
H9 C10 1_555 1_555
C11 C12 1_555 1_555
C12 H10 1_555 1_555
C13 C12 1_555 1_555
C14 C13 1_555 1_555
H11 C14 1_555 1_555
C15 C14 1_555 1_555
H12 C15 1_555 1_555
C16 C11 1_555 1_555
H13 C16 1_555 1_555
C17 C11 1_555 1_555
C18 O2 1_555 1_555
C19 C20 1_555 1_555
C20 H14 1_555 1_555
C21 C20 1_555 1_555
H15 C21 1_555 1_555
C22 C21 1_555 1_555
H16 C22 1_555 1_555
C23 C22 1_555 1_555
C24 C19 1_555 1_555
H17 C24 1_555 1_555
C25 O6 1_555 1_555
C26 C23 1_555 1_555
C27 C28 1_555 1_555
C28 H18 1_555 1_555
C29 C28 1_555 1_555
H19 C29 1_555 1_555
C30 C29 1_555 1_555
H20 C30 1_555 1_555
C31 C30 1_555 1_555
C32 C27 1_555 1_555
H21 C32 1_555 1_555
C33 C27 1_555 1_555
C34 O9 1_555 1_555
C35 C36 1_555 1_555
C36 H22 1_555 1_555
C37 C36 1_555 1_555
H23 C37 1_555 1_555
C38 C37 1_555 1_555
H24 C38 1_555 1_555
C39 C38 1_555 1_555
C40 C35 1_555 1_555
H25 C40 1_555 1_555
C41 O14 1_555 1_555
C42 C39 1_555 1_555
C43 C44 1_555 1_555
C44 H26 1_555 1_555
C45 C44 1_555 1_555
H27 C45 1_555 1_555
C46 C45 1_555 1_555
H28 C46 1_555 1_555
C47 C46 1_555 1_555
C48 C43 1_555 1_555
H29 C48 1_555 1_555
C49 O18 1_555 1_555
C50 O19 1_555 1_555
C51 C52 1_555 1_555
C52 H30 1_555 1_555
C53 C52 1_555 1_555
C54 C53 1_555 1_555
H31 C54 1_555 1_555
C55 C54 1_555 1_555
H32 C55 1_555 1_555
C56 C51 1_555 1_555
H33 C56 1_555 1_555
C57 C51 1_555 1_555
C58 O23 1_555 1_555
Er2A O15 1_555 1_555
Er2_2 O16 1_555 1_555
Er2A_2 O21 1_555 1_555
Er2_3 O22 1_555 1_555
Er3_2 O5 1_555 1_555
Er3A O7 1_555 1_555
Er3_3 O12 1_555 1_555
Cu1A O8 1_555 1_555
Cu1_2 O11 1_555 1_555
O5_2 Er3 1_555 1_555
O7A Er3 1_555 1_555
O8A Er3 1_555 1_555
O10_2 Er3 1_555 1_555
O11_2 Cu1 1_555 1_555
O12_2 Er3 1_555 1_555
O13_2 Er3 1_555 1_555
O15A Er2 1_555 1_555
O16_2 Er2 1_555 1_555
O21A Er2 1_555 1_555
O22_2 Er2 1_555 1_555
Er2 O24 1_555 1_555
Cu1 O8A 1_555 1_555
O8 Er3A 1_555 1_555
O10 Er3_2 1_555 1_555
O13 Er3_2 1_555 1_555
O20 C50 1_555 1_555
O24 C58 1_555 1_555
C4 C5 1_555 1_555
C5 C6 1_555 1_555
C9 C10 1_555 1_555
C13 C18 1_555 1_555
C15 C16 1_555 1_555
C19 C25 1_555 1_555
C23 C24 1_555 1_555
C31 C32 1_555 1_555
C31 C34 1_555 1_555
C35 C41 1_555 1_555
C39 C40 1_555 1_555
C43 C49 1_555 1_555
C47 C48 1_555 1_555
C47 C50 1_555 1_555
C53 C58 1_555 1_555
C55 C56 1_555 1_555

#END
