
#######################################################################
#
#                 Cambridge Crystallographic Data Centre
#                                CCDC 
#
#######################################################################
#
# If this CIF has been generated from an entry in the Cambridge 
# Structural Database, then it will include bibliographic, chemical, 
# crystal, experimental, refinement or atomic coordinate data resulting 
# from the CCDC's data processing and validation procedures.
#
#######################################################################

data_WICVIO
_symmetry_cell_setting           triclinic
_symmetry_space_group_name_H-M   'P -1'
_symmetry_Int_Tables_number      2
_space_group_name_Hall           '-P 1'
loop_
_symmetry_equiv_pos_site_id
_symmetry_equiv_pos_as_xyz
1 x,y,z
2 -x,-y,-z
_cell_length_a                   11.0119(15)
_cell_length_b                   12.8729(19)
_cell_length_c                   13.295(2)
_cell_angle_alpha                75.334(2)
_cell_angle_beta                 81.530(3)
_cell_angle_gamma                69.204(2)
_cell_volume                     1701.01
loop_
_atom_site_label
_atom_site_type_symbol
_atom_site_fract_x
_atom_site_fract_y
_atom_site_fract_z
Gd1 Gd 1.95331(3) 0.31779(3) 0.30146(2)
Cu1 Cu 1.0000 0.5000 0.5000
Cu2 Cu 1.67394(8) 0.37585(7) 0.11072(6)
O1 O 1.7473(4) 0.4702(4) 0.2804(3)
O2 O 1.5779(4) 0.4542(4) 0.2175(3)
O3 O 1.1701(4) 0.5158(4) 0.4434(3)
O4 O 1.1131(4) 0.6543(4) 0.5294(3)
O5 O 1.0051(4) 0.4830(3) 0.2772(3)
O6 O 0.9196(4) 0.6095(4) 0.3765(3)
O7 O 1.0584(4) 0.6363(4) -0.1088(3)
O8 O 0.9055(4) 0.7912(4) -0.1775(3)
O9 O 1.8108(4) 0.2202(4) 0.3043(3)
O10 O 1.6693(5) 0.2319(4) 0.1960(3)
O11 O 1.9480(4) -0.1314(3) 0.5835(3)
O12 O 1.8336(4) -0.2473(4) 0.6221(3)
N1 N 1.7429(5) 0.3075(5) -0.0117(4)
N2 N 1.6560(5) 0.5194(5) 0.0024(4)
C1 C 1.6281(6) 0.4891(5) 0.2770(5)
C2 C 1.5320(6) 0.5612(5) 0.3459(4)
C3 C 1.5614(6) 0.6427(6) 0.3798(5)
H1 H 1.6421 0.6525 0.3616
C4 C 1.4694(6) 0.7089(6) 0.4408(5)
H2 H 1.4881 0.7643 0.4628
C5 C 1.3506(6) 0.6941(5) 0.4695(5)
H3 H 1.2893 0.7401 0.5099
C6 C 1.3213(6) 0.6107(5) 0.4384(4)
C7 C 1.1937(6) 0.5923(6) 0.4733(4)
C8 C 1.4119(6) 0.5452(5) 0.3760(4)
H4 H 1.3928 0.4900 0.3539
C9 C 0.9429(5) 0.5815(5) 0.2893(4)
C10 C 0.8979(6) 0.6736(5) 0.1947(4)
C11 C 0.8182(7) 0.7818(6) 0.2056(5)
H5 H 0.7916 0.7970 0.2716
C12 C 0.7782(8) 0.8674(6) 0.1174(5)
H6 H 0.7212 0.9387 0.1247
C13 C 0.8220(7) 0.8476(6) 0.0204(5)
H7 H 0.7956 0.9057 -0.0379
C14 C 0.9065(6) 0.7400(5) 0.0081(5)
C15 C 0.9598(6) 0.7210(6) -0.0978(5)
C16 C 0.9407(6) 0.6537(5) 0.0962(4)
H8 H 0.9934 0.5811 0.0888
C17 C 1.7310(6) 0.1846(5) 0.2770(5)
C18 C 1.7056(6) 0.0806(5) 0.3448(4)
C19 C 1.6069(6) 0.0479(5) 0.3231(5)
H9 H 1.5545 0.0918 0.2684
C20 C 1.5867(6) -0.0496(6) 0.3826(5)
H10 H 1.5199 -0.0711 0.3685
C21 C 1.6647(6) -0.1153(6) 0.4629(5)
H11 H 1.6508 -0.1812 0.5027
C22 C 1.7631(6) -0.0836(5) 0.4843(4)
C23 C 1.8522(6) -0.1588(5) 0.5692(4)
C24 C 1.7836(6) 0.0160(5) 0.4258(4)
H12 H 1.8489 0.0385 0.4412
C25 C 1.7867(9) 0.1969(7) -0.0118(6)
H13 H 1.7834 0.1449 0.0506
C26 C 1.8368(10) 0.1572(8) -0.1010(7)
H14 H 1.8656 0.0796 -0.0994
C27 C 1.8435(9) 0.2334(9) -0.1918(7)
H15 H 1.8789 0.2079 -0.2526
C28 C 1.7987(7) 0.3465(8) -0.1938(5)
H16 H 1.8014 0.3989 -0.2560
C29 C 1.7490(6) 0.3829(6) -0.1025(5)
C30 C 1.7022(6) 0.5011(6) -0.0942(5)
C31 C 1.7033(7) 0.5929(7) -0.1769(5)
H17 H 1.7364 0.5808 -0.2430
C32 C 1.6557(7) 0.6998(7) -0.1596(6)
H18 H 1.6554 0.7615 -0.2142
C33 C 1.6081(8) 0.7175(7) -0.0624(7)
H19 H 1.5754 0.7907 -0.0501
C34 C 1.6094(7) 0.6253(6) 0.0170(6)
H20 H 1.5766 0.6373 0.0833
Gd1A Gd 0.04669(3) 0.68221(3) 0.69854(2)
Gd1A_2 Gd 1.04669(3) 0.68221(3) 0.69854(2)
Gd1_2 Gd 0.95331(3) 0.31779(3) 0.30146(2)
Gd1A_3 Gd 1.04669(3) 0.68221(3) -0.30146(2)
Gd1A_4 Gd 2.04669(3) -0.31779(3) 0.69854(2)
Gd1_3 Gd 0.95331(3) 0.31779(3) 1.30146(2)
Cu2A Cu 0.32606(8) 0.62415(7) 0.88928(6)
Cu2A_2 Cu 2.32606(8) -0.37585(7) 0.88928(6)
O1A O 0.2527(4) 0.5298(4) 0.7196(3)
O2A O 0.4221(4) 0.5458(4) 0.7825(3)
O3A O 0.8299(4) 0.4842(4) 0.5566(3)
O4A O 0.8869(4) 0.3457(4) 0.4706(3)
O4A_2 O 1.8869(4) 0.3457(4) 0.4706(3)
O4_2 O 0.1131(4) 0.6543(4) 0.5294(3)
O5A O 0.9949(4) 0.5170(3) 0.7228(3)
O5_2 O 2.0051(4) 0.4830(3) 0.2772(3)
O5A_2 O -0.0051(4) 0.5170(3) 0.7228(3)
O6A O 1.0804(4) 0.3905(4) 0.6235(3)
O7A O 0.9416(4) 0.3637(4) 1.1088(3)
O7A_2 O 1.9416(4) 0.3637(4) 0.1088(3)
O7_2 O 0.0584(4) 0.6363(4) 0.8912(3)
O8A O 1.0945(4) 0.2088(4) 1.1775(3)
O8A_2 O 2.0945(4) 0.2088(4) 0.1775(3)
O8_2 O -0.0945(4) 0.7912(4) 0.8225(3)
O9A O 2.1892(4) -0.2202(4) 0.6957(3)
O9A_2 O 0.1892(4) 0.7798(4) 0.6957(3)
O10A O 2.3307(5) -0.2319(4) 0.8040(3)
O10A_2 O 0.3307(5) 0.7681(4) 0.8040(3)
O11A O 2.0520(4) 0.1314(3) 0.4165(3)
O11_2 O -0.0520(4) 0.8686(3) 0.5835(3)
O12A O 2.1664(4) 0.2473(4) 0.3779(3)
O12_2 O -0.1664(4) 0.7527(4) 0.6221(3)
N1A N 0.2571(5) 0.6925(5) 1.0117(4)
N2A N 0.3440(5) 0.4806(5) 0.9976(4)
C1A C 0.3719(6) 0.5109(5) 0.7230(5)
C2A C 0.4680(6) 0.4388(5) 0.6541(4)
C3A C 0.4386(6) 0.3573(6) 0.6202(5)
H1A H 0.3579 0.3475 0.6384
C4A C 0.5306(6) 0.2911(6) 0.5592(5)
H2A H 0.5119 0.2357 0.5372
C5A C 0.6494(6) 0.3059(5) 0.5305(5)
H3A H 0.7107 0.2599 0.4901
C6A C 0.6787(6) 0.3893(5) 0.5616(4)
C7A C 0.8063(6) 0.4077(6) 0.5267(4)
C8A C 0.5881(6) 0.4548(5) 0.6240(4)
H4A H 0.6072 0.5100 0.6461
C9A C 1.0571(5) 0.4185(5) 0.7107(4)
C10A C 1.1021(6) 0.3264(5) 0.8053(4)
C11A C 1.1818(7) 0.2182(6) 0.7944(5)
H5A H 1.2084 0.2030 0.7284
C12A C 1.2218(8) 0.1326(6) 0.8826(5)
H6A H 1.2788 0.0613 0.8753
C13A C 1.1780(7) 0.1524(6) 0.9796(5)
H7A H 1.2044 0.0943 1.0379
C14A C 1.0935(6) 0.2600(5) 0.9919(5)
C15A C 1.0402(6) 0.2790(6) 1.0978(5)
C16A C 1.0593(6) 0.3463(5) 0.9038(4)
H8A H 1.0066 0.4189 0.9112
C17A C 2.2690(6) -0.1846(5) 0.7230(5)
C18A C 2.2944(6) -0.0806(5) 0.6552(4)
C19A C 2.3931(6) -0.0479(5) 0.6769(5)
H9A H 2.4455 -0.0918 0.7316
C20A C 2.4133(6) 0.0496(6) 0.6174(5)
H10A H 2.4801 0.0711 0.6315
C21A C 2.3353(6) 0.1153(6) 0.5371(5)
H11A H 2.3492 0.1812 0.4973
C22A C 2.2369(6) 0.0836(5) 0.5157(4)
C23A C 2.1478(6) 0.1588(5) 0.4308(4)
C24A C 2.2164(6) -0.0160(5) 0.5742(4)
H12A H 2.1511 -0.0385 0.5588
C25A C 0.2133(9) 0.8031(7) 1.0118(6)
H13A H 0.2166 0.8551 0.9494
C26A C 0.1632(10) 0.8428(8) 1.1010(7)
H14A H 0.1344 0.9204 1.0994
C27A C 0.1565(9) 0.7666(9) 1.1918(7)
H15A H 0.1211 0.7921 1.2526
C28A C 0.2013(7) 0.6535(8) 1.1938(5)
H16A H 0.1986 0.6011 1.2560
C29A C 0.2510(6) 0.6171(6) 1.1025(5)
C30A C 0.2978(6) 0.4989(6) 1.0942(5)
C31A C 0.2967(7) 0.4071(7) 1.1769(5)
H17A H 0.2636 0.4192 1.2430
C32A C 0.3443(7) 0.3002(7) 1.1596(6)
H18A H 0.3446 0.2385 1.2142
C33A C 0.3919(8) 0.2825(7) 1.0624(7)
H19A H 0.4246 0.2093 1.0501
C34A C 0.3906(7) 0.3747(6) 0.9830(6)
H20A H 0.4234 0.3627 0.9167
O13 O 0.1014(7) 0.9160(6) 0.3696(5)
H21 H 0.0584 0.9403 0.4253
H22 H 0.1496 0.9523 0.3299
O14 O 0.7016(7) 1.0024(6) 0.7566(5)
H23 H 0.7438 0.9298 0.7716
H24 H 0.6462 1.0333 0.8069
O15 O 0.5375(15) 0.0908(15) 0.9180(14)
H25 H 0.5143 0.1412 0.8613
H26 H 0.5102 0.0343 0.9320
loop_
_geom_bond_atom_site_label_1
_geom_bond_atom_site_label_2
_geom_bond_site_symmetry_1
_geom_bond_site_symmetry_2
Gd1 O1 1_555 1_555
Cu1 O3 1_555 1_555
Cu2 O2 1_555 1_555
O1 C1 1_555 1_555
O2 C1 1_555 1_555
O3 C7 1_555 1_555
O4 C7 1_555 1_555
O5 C9 1_555 1_555
O6 Cu1 1_555 1_555
O7 C15 1_555 1_555
O8 C15 1_555 1_555
O9 Gd1 1_555 1_555
O10 Cu2 1_555 1_555
O11 C23 1_555 1_555
O12 C23 1_555 1_555
N1 Cu2 1_555 1_555
N2 Cu2 1_555 1_555
C1 C2 1_555 1_555
C2 C3 1_555 1_555
C3 H1 1_555 1_555
C4 C3 1_555 1_555
H2 C4 1_555 1_555
C5 C4 1_555 1_555
H3 C5 1_555 1_555
C6 C5 1_555 1_555
C7 C6 1_555 1_555
C8 C2 1_555 1_555
H4 C8 1_555 1_555
C9 O6 1_555 1_555
C10 C9 1_555 1_555
C11 C10 1_555 1_555
H5 C11 1_555 1_555
C12 C11 1_555 1_555
H6 C12 1_555 1_555
C13 C12 1_555 1_555
H7 C13 1_555 1_555
C14 C13 1_555 1_555
C15 C14 1_555 1_555
C16 C10 1_555 1_555
H8 C16 1_555 1_555
C17 O9 1_555 1_555
C18 C17 1_555 1_555
C19 C18 1_555 1_555
H9 C19 1_555 1_555
C20 C19 1_555 1_555
H10 C20 1_555 1_555
C21 C20 1_555 1_555
H11 C21 1_555 1_555
C22 C21 1_555 1_555
C23 C22 1_555 1_555
C24 C18 1_555 1_555
H12 C24 1_555 1_555
C25 N1 1_555 1_555
H13 C25 1_555 1_555
C26 C25 1_555 1_555
H14 C26 1_555 1_555
C27 C26 1_555 1_555
H15 C27 1_555 1_555
C28 C27 1_555 1_555
H16 C28 1_555 1_555
C29 N1 1_555 1_555
C30 N2 1_555 1_555
C31 C30 1_555 1_555
H17 C31 1_555 1_555
C32 C31 1_555 1_555
H18 C32 1_555 1_555
C33 C32 1_555 1_555
H19 C33 1_555 1_555
C34 N2 1_555 1_555
H20 C34 1_555 1_555
O13 H21 1_555 1_555
H22 O13 1_555 1_555
O14 H23 1_555 1_555
H24 O14 1_555 1_555
O15 H25 1_555 1_555
H26 O15 1_555 1_555
Gd1A O1A 1_555 1_555
Gd1A_2 O4 1_555 1_555
Gd1_2 O5 1_555 1_555
Gd1A_3 O7 1_555 1_555
Gd1A_4 O11 1_555 1_555
Gd1_3 O7A 1_555 1_555
Cu2A O2A 1_555 1_555
Cu2A_2 O10A 1_555 1_555
O1A C1A 1_555 1_555
O2A C1A 1_555 1_555
O3A Cu1 1_555 1_555
O4A Gd1_2 1_555 1_555
O4A_2 Gd1 1_555 1_555
O4_2 Gd1A 1_555 1_555
O5A Gd1A_2 1_555 1_555
O5_2 Gd1 1_555 1_555
O5A_2 Gd1A 1_555 1_555
O6A Cu1 1_555 1_555
O7A C15A 1_555 1_555
O7A_2 Gd1 1_555 1_555
O7_2 Gd1A 1_555 1_555
O8A Gd1_3 1_555 1_555
O8A_2 Gd1 1_555 1_555
O8_2 Gd1A 1_555 1_555
O9A Gd1A_4 1_555 1_555
O9A_2 Gd1A 1_555 1_555
O10A C17A 1_555 1_555
O10A_2 Cu2A 1_555 1_555
O11A Gd1 1_555 1_555
O11_2 Gd1A 1_555 1_555
O12A Gd1 1_555 1_555
O12_2 Gd1A 1_555 1_555
N1A Cu2A 1_555 1_555
N2A Cu2A 1_555 1_555
C1A C2A 1_555 1_555
C2A C3A 1_555 1_555
C3A H1A 1_555 1_555
C4A C3A 1_555 1_555
H2A C4A 1_555 1_555
C5A C4A 1_555 1_555
H3A C5A 1_555 1_555
C6A C5A 1_555 1_555
C7A O3A 1_555 1_555
C8A C2A 1_555 1_555
H4A C8A 1_555 1_555
C9A O5A 1_555 1_555
C10A C9A 1_555 1_555
C11A C10A 1_555 1_555
H5A C11A 1_555 1_555
C12A C11A 1_555 1_555
H6A C12A 1_555 1_555
C13A C12A 1_555 1_555
H7A C13A 1_555 1_555
C14A C13A 1_555 1_555
C15A O8A 1_555 1_555
C16A C10A 1_555 1_555
H8A C16A 1_555 1_555
C17A O9A 1_555 1_555
C18A C17A 1_555 1_555
C19A C18A 1_555 1_555
H9A C19A 1_555 1_555
C20A C19A 1_555 1_555
H10A C20A 1_555 1_555
C21A C20A 1_555 1_555
H11A C21A 1_555 1_555
C22A C21A 1_555 1_555
C23A O11A 1_555 1_555
C24A C18A 1_555 1_555
H12A C24A 1_555 1_555
C25A N1A 1_555 1_555
H13A C25A 1_555 1_555
C26A C25A 1_555 1_555
H14A C26A 1_555 1_555
C27A C26A 1_555 1_555
H15A C27A 1_555 1_555
C28A C27A 1_555 1_555
H16A C28A 1_555 1_555
C29A N1A 1_555 1_555
C30A N2A 1_555 1_555
C31A C30A 1_555 1_555
H17A C31A 1_555 1_555
C32A C31A 1_555 1_555
H18A C32A 1_555 1_555
C33A C32A 1_555 1_555
H19A C33A 1_555 1_555
C34A N2A 1_555 1_555
H20A C34A 1_555 1_555
O8 Gd1A_3 1_555 1_555
O10 C17 1_555 1_555
O12 Gd1A_4 1_555 1_555
C6 C8 1_555 1_555
C14 C16 1_555 1_555
C22 C24 1_555 1_555
C28 C29 1_555 1_555
C29 C30 1_555 1_555
C33 C34 1_555 1_555
O4A C7A 1_555 1_555
O6A C9A 1_555 1_555
O12A C23A 1_555 1_555
C6A C7A 1_555 1_555
C6A C8A 1_555 1_555
C14A C15A 1_555 1_555
C14A C16A 1_555 1_555
C22A C23A 1_555 1_555
C22A C24A 1_555 1_555
C28A C29A 1_555 1_555
C29A C30A 1_555 1_555
C33A C34A 1_555 1_555

#END
