
#######################################################################
#
#                 Cambridge Crystallographic Data Centre
#                                CCDC 
#
#######################################################################
#
# If this CIF has been generated from an entry in the Cambridge 
# Structural Database, then it will include bibliographic, chemical, 
# crystal, experimental, refinement or atomic coordinate data resulting 
# from the CCDC's data processing and validation procedures.
#
#######################################################################

data_WICYEN
_symmetry_cell_setting           rhombohedral
_symmetry_space_group_name_H-M   'R -3'
_symmetry_Int_Tables_number      148
_space_group_name_Hall           '-R 3'
loop_
_symmetry_equiv_pos_site_id
_symmetry_equiv_pos_as_xyz
1 x,y,z
2 -y,x-y,z
3 -x+y,-x,z
4 2/3+x,1/3+y,1/3+z
5 2/3-y,1/3+x-y,1/3+z
6 2/3-x+y,1/3-x,1/3+z
7 1/3+x,2/3+y,2/3+z
8 1/3-y,2/3+x-y,2/3+z
9 1/3-x+y,2/3-x,2/3+z
10 -x,-y,-z
11 y,-x+y,-z
12 x-y,x,-z
13 1/3-x,2/3-y,2/3-z
14 1/3+y,2/3-x+y,2/3-z
15 1/3+x-y,2/3+x,2/3-z
16 2/3-x,1/3-y,1/3-z
17 2/3+y,1/3-x+y,1/3-z
18 2/3+x-y,1/3+x,1/3-z
_cell_length_a                   18.696(3)
_cell_length_b                   18.696(3)
_cell_length_c                   10.161(2)
_cell_angle_alpha                90
_cell_angle_beta                 90
_cell_angle_gamma                120.00
_cell_volume                     3075.85
loop_
_atom_site_label
_atom_site_type_symbol
_atom_site_fract_x
_atom_site_fract_y
_atom_site_fract_z
Tb1 Tb 0.6667 0.3333 0.3333
Tb2 Tb 0.6667 0.3333 -0.1667
Cu1 Cu 0.8333 0.1667 0.1667
P1 P 0.73914(8) 0.24548(7) 0.08835(12)
O1 O 0.82189(18) 0.24902(18) 0.0732(3)
O2 O 0.73979(19) 0.29653(19) 0.2029(3)
O3 O 0.70875(19) 0.26187(18) -0.0385(3)
N1 N 0.7112(2) 0.0967(2) 0.1612(4)
C1 C 0.6712(3) 0.1375(3) 0.1312(4)
C2 C 0.5862(3) 0.0963(3) 0.1303(5)
H1 H 0.5584 0.1252 0.1151
C3 C 0.5422(3) 0.0122(3) 0.1518(5)
H2 H 0.4848 -0.0162 0.1502
C4 C 0.5848(3) -0.0288(3) 0.1757(5)
H3 H 0.5566 -0.0858 0.1873
C5 C 0.6693(3) 0.0154(3) 0.1820(5)
H4 H 0.6981 -0.0119 0.2013
Tb2_2 Tb 0.6667 0.3333 0.8333
Cu1A Cu 0.8333 0.6666 0.1667
Cu1B Cu 0.3334 0.1667 0.1667
Cu1C Cu 0.5000 0.5000 0.5000
Cu1D Cu 0.5000 -0.0001 0.5000
Cu1E Cu 1.0001 0.5000 0.5000
P1A P 0.75452(7) 0.49366(11) 0.08835(12)
P1B P 0.50634(11) 0.26086(8) 0.08835(12)
P1L P 0.59419(8) 0.42119(7) 0.57832(12)
P1M P 0.57881(7) 0.17301(11) 0.57832(12)
P1N P 0.82699(11) 0.40581(8) 0.57832(12)
O1A O 0.75098(18) 0.57287(25) 0.0732(3)
O1B O 0.42713(25) 0.17811(18) 0.0732(3)
O1L O 0.51144(18) 0.41765(18) 0.5935(3)
O1M O 0.58235(18) 0.09380(25) 0.5935(3)
O1N O 0.90620(25) 0.48856(18) 0.5935(3)
O1O O 0.84478(18) 0.08431(18) 0.2601(3)
O1P O 0.91569(18) 0.76046(25) 0.2601(3)
O1Q O 0.23954(25) 0.15522(18) 0.2601(3)
O2A O 0.70347(19) 0.44326(27) 0.2029(3)
O2B O 0.55674(27) 0.26021(19) 0.2029(3)
O2L O 0.59354(19) 0.37014(19) 0.4638(3)
O2M O 0.62986(19) 0.22341(27) 0.4638(3)
O2N O 0.77659(27) 0.40646(19) 0.4638(3)
O3A O 0.73813(18) 0.44688(26) -0.0385(3)
O3B O 0.55312(26) 0.29125(19) -0.0385(3)
O3L O 0.62458(19) 0.40480(18) 0.7052(3)
O3M O 0.59520(18) 0.21979(26) 0.7052(3)
O3N O 0.78021(26) 0.37542(19) 0.7052(3)
O3L_2 O 0.62458(19) 0.40480(18) -0.2948(3)
O3M_2 O 0.59520(18) 0.21979(26) -0.2948(3)
O3N_2 O 0.78021(26) 0.37542(19) -0.2948(3)
N1A N 0.9033(2) 0.6145(3) 0.1612(4)
N1B N 0.3855(3) 0.2888(2) 0.1612(4)
N1L N 0.6221(2) 0.5700(2) 0.5055(4)
N1M N 0.4300(2) 0.0522(3) 0.5055(4)
N1N N 0.9478(3) 0.3779(2) 0.5055(4)
N1O N 0.9555(2) 0.2366(2) 0.1721(4)
N1P N 0.7634(2) 0.7188(3) 0.1721(4)
N1Q N 0.2812(3) 0.0445(2) 0.1721(4)
C1A C 0.8625(3) 0.5337(4) 0.1312(4)
C1B C 0.4663(4) 0.3288(3) 0.1312(4)
C1L C 0.6621(3) 0.5292(3) 0.5355(4)
C1M C 0.4708(3) 0.1330(4) 0.5355(4)
C1N C 0.8670(4) 0.3379(3) 0.5355(4)
C2A C 0.9037(3) 0.4899(4) 0.1303(5)
C2B C 0.5101(4) 0.4138(3) 0.1303(5)
C2L C 0.7471(3) 0.5704(3) 0.5364(5)
C2M C 0.4296(3) 0.1768(4) 0.5364(5)
C2N C 0.8232(4) 0.2529(3) 0.5364(5)
H1A H 0.8748 0.4332 0.1151
H1B H 0.5668 0.4416 0.1151
H1L H 0.7749 0.5415 0.5516
H1M H 0.4585 0.2335 0.5516
H1N H 0.7665 0.2251 0.5516
C3A C 0.9878(3) 0.5300(4) 0.1518(5)
C3B C 0.4700(4) 0.4578(3) 0.1518(5)
C3L C 0.7911(3) 0.6545(3) 0.5149(5)
C3M C 0.3455(3) 0.1367(4) 0.5149(5)
C3N C 0.8633(4) 0.2089(3) 0.5149(5)
H2A H 1.0162 0.5010 0.1502
H2B H 0.4990 0.5152 0.1502
H2L H 0.8485 0.6829 0.5165
H2M H 0.3171 0.1657 0.5165
H2N H 0.8343 0.1515 0.5165
C4A C 1.0288(3) 0.6136(4) 0.1757(5)
C4B C 0.3864(4) 0.4152(3) 0.1757(5)
C4L C 0.7485(3) 0.6955(3) 0.4910(5)
C4M C 0.3045(3) 0.0531(4) 0.4910(5)
C4N C 0.9469(4) 0.2515(3) 0.4910(5)
H3A H 1.0858 0.6424 0.1873
H3B H 0.3576 0.4434 0.1873
H3L H 0.7767 0.7525 0.4794
H3M H 0.2475 0.0243 0.4794
H3N H 0.9757 0.2233 0.4794
C5A C 0.9846(3) 0.6539(4) 0.1820(5)
C5B C 0.3461(4) 0.3307(3) 0.1820(5)
C5L C 0.6640(3) 0.6513(3) 0.4847(5)
C5M C 0.3487(3) 0.0128(4) 0.4847(5)
C5N C 0.9872(4) 0.3360(3) 0.4847(5)
H4A H 1.0119 0.7100 0.2013
H4B H 0.2900 0.3019 0.2013
H4L H 0.6352 0.6786 0.4654
H4M H 0.3214 -0.0433 0.4654
H4N H 1.0433 0.3648 0.4654
loop_
_geom_bond_atom_site_label_1
_geom_bond_atom_site_label_2
_geom_bond_site_symmetry_1
_geom_bond_site_symmetry_2
Tb1 O2 1_555 1_555
Tb2 O3 1_555 1_555
Cu1 O1 1_555 1_555
P1 O1 1_555 1_555
O2 P1 1_555 1_555
O3 P1 1_555 1_555
N1 Cu1 1_555 1_555
C1 P1 1_555 1_555
C2 C1 1_555 1_555
H1 C2 1_555 1_555
C3 C2 1_555 1_555
H2 C3 1_555 1_555
C4 C3 1_555 1_555
H3 C4 1_555 1_555
C5 N1 1_555 1_555
H4 C5 1_555 1_555
Tb2_2 O3L 1_555 1_555
Cu1A O1A 1_555 1_555
Cu1B O1B 1_555 1_555
Cu1C O1L 1_555 1_555
Cu1D O1M 1_555 1_555
Cu1E O1N 1_555 1_555
P1A O1A 1_555 1_555
P1B O1B 1_555 1_555
P1L O1L 1_555 1_555
P1M O1M 1_555 1_555
P1N O1N 1_555 1_555
O1O Cu1 1_555 1_555
O1P Cu1A 1_555 1_555
O1Q Cu1B 1_555 1_555
O2A Tb1 1_555 1_555
O2B Tb1 1_555 1_555
O2L Tb1 1_555 1_555
O2M Tb1 1_555 1_555
O2N Tb1 1_555 1_555
O3A Tb2 1_555 1_555
O3B Tb2 1_555 1_555
O3L P1L 1_555 1_555
O3M Tb2_2 1_555 1_555
O3N Tb2_2 1_555 1_555
O3L_2 Tb2 1_555 1_555
O3M_2 Tb2 1_555 1_555
O3N_2 Tb2 1_555 1_555
N1A Cu1A 1_555 1_555
N1B Cu1B 1_555 1_555
N1L Cu1C 1_555 1_555
N1M Cu1D 1_555 1_555
N1N Cu1E 1_555 1_555
N1O Cu1 1_555 1_555
N1P Cu1A 1_555 1_555
N1Q Cu1B 1_555 1_555
C1A P1A 1_555 1_555
C1B P1B 1_555 1_555
C1L P1L 1_555 1_555
C1M P1M 1_555 1_555
C1N P1N 1_555 1_555
C2A C1A 1_555 1_555
C2B C1B 1_555 1_555
C2L C1L 1_555 1_555
C2M C1M 1_555 1_555
C2N C1N 1_555 1_555
H1A C2A 1_555 1_555
H1B C2B 1_555 1_555
H1L C2L 1_555 1_555
H1M C2M 1_555 1_555
H1N C2N 1_555 1_555
C3A C2A 1_555 1_555
C3B C2B 1_555 1_555
C3L C2L 1_555 1_555
C3M C2M 1_555 1_555
C3N C2N 1_555 1_555
H2A C3A 1_555 1_555
H2B C3B 1_555 1_555
H2L C3L 1_555 1_555
H2M C3M 1_555 1_555
H2N C3N 1_555 1_555
C4A C3A 1_555 1_555
C4B C3B 1_555 1_555
C4L C3L 1_555 1_555
C4M C3M 1_555 1_555
C4N C3N 1_555 1_555
H3A C4A 1_555 1_555
H3B C4B 1_555 1_555
H3L C4L 1_555 1_555
H3M C4M 1_555 1_555
H3N C4N 1_555 1_555
C5A N1A 1_555 1_555
C5B N1B 1_555 1_555
C5L N1L 1_555 1_555
C5M N1M 1_555 1_555
C5N N1N 1_555 1_555
H4A C5A 1_555 1_555
H4B C5B 1_555 1_555
H4L C5L 1_555 1_555
H4M C5M 1_555 1_555
H4N C5N 1_555 1_555
N1 C1 1_555 1_555
C4 C5 1_555 1_555
P1A O2A 1_555 1_555
P1A O3A 1_555 1_555
P1B O2B 1_555 1_555
P1B O3B 1_555 1_555
P1L O2L 1_555 1_555
P1M O2M 1_555 1_555
P1M O3M 1_555 1_555
P1N O2N 1_555 1_555
P1N O3N 1_555 1_555
N1A C1A 1_555 1_555
N1B C1B 1_555 1_555
N1L C1L 1_555 1_555
N1M C1M 1_555 1_555
N1N C1N 1_555 1_555
C4A C5A 1_555 1_555
C4B C5B 1_555 1_555
C4L C5L 1_555 1_555
C4M C5M 1_555 1_555
C4N C5N 1_555 1_555

#END
