
#######################################################################
#
#                 Cambridge Crystallographic Data Centre
#                                CCDC 
#
#######################################################################
#
# If this CIF has been generated from an entry in the Cambridge 
# Structural Database, then it will include bibliographic, chemical, 
# crystal, experimental, refinement or atomic coordinate data resulting 
# from the CCDC's data processing and validation procedures.
#
#######################################################################

data_WIDPAB
_symmetry_cell_setting           triclinic
_symmetry_space_group_name_H-M   'P -1'
_symmetry_Int_Tables_number      2
_space_group_name_Hall           '-P 1'
loop_
_symmetry_equiv_pos_site_id
_symmetry_equiv_pos_as_xyz
1 x,y,z
2 -x,-y,-z
_cell_length_a                   9.092(1)
_cell_length_b                   11.037(1)
_cell_length_c                   12.942(1)
_cell_angle_alpha                77.92(1)
_cell_angle_beta                 82.23(1)
_cell_angle_gamma                80.92(1)
_cell_volume                     1247
loop_
_atom_site_label
_atom_site_type_symbol
_atom_site_fract_x
_atom_site_fract_y
_atom_site_fract_z
Li1 Li 0.6135(3) -0.0957(2) 0.5213(2)
Li2 Li 0.5928(3) -0.4529(2) 0.9150(2)
N1 N 0.74112(17) -0.23563(14) 0.94798(11)
N2 N 0.69314(14) -0.43363(13) 1.04968(10)
N3 N 0.49408(14) -0.28909(12) 0.98073(10)
C1 C 0.7855(2) -0.33368(18) 1.03556(14)
H1 H 0.7739 -0.2994 1.1014
H2 H 0.8923 -0.3672 1.0210
C2 C 0.53071(17) -0.39019(16) 1.07328(13)
H3 H 0.5216(16) -0.3494(14) 1.1387(13)
C3 C 0.5842(2) -0.18787(16) 0.96659(14)
H4 H 0.5545 -0.1222 0.9055
H5 H 0.5670 -0.1501 1.0309
C4 C 0.8341(3) -0.1354(2) 0.93043(18)
H6 H 0.8065 -0.0730 0.8679
H7 H 0.9397 -0.1700 0.9188
H8 H 0.8186 -0.0958 0.9928
C5 C 0.7417(2) -0.53250(19) 1.13630(15)
H9 H 0.8466 -0.5656 1.1190
H10 H 0.6793 -0.5998 1.1467
H11 H 0.7317 -0.4989 1.2016
C6 C 0.3364(2) -0.23793(18) 0.99698(16)
H12 H 0.3188 -0.2011 1.0609
H13 H 0.2741 -0.3050 1.0056
H14 H 0.3103 -0.1734 0.9353
N4 N 0.78788(14) -0.48272(12) 0.59210(10)
N5 N 0.74273(13) -0.26193(11) 0.59960(9)
N6 N 0.72494(13) -0.42659(11) 0.76373(9)
C7 C 0.73002(18) -0.35724(14) 0.53995(12)
H15 H 0.6234 -0.3551 0.5304
H16 H 0.7856 -0.3377 0.4686
C8 C 0.67793(16) -0.29855(14) 0.70969(11)
H17 H 0.5676 -0.2867 0.7106
H18 H 0.7029 -0.2405 0.7515
C9 C 0.70363(18) -0.51182(14) 0.69653(12)
H19 H 0.7374 -0.5989 0.7308
H20 H 0.5958 -0.5050 0.6882
C10 C 0.7731(2) -0.57187(17) 0.52691(15)
H21 H 0.6672 -0.5693 0.5182
H22 H 0.8295 -0.5502 0.4571
H23 H 0.8127 -0.6562 0.5616
C11 C 0.89469(17) -0.22989(17) 0.58969(14)
H24 H 0.9242 -0.1926 0.5156
H25 H 0.8977 -0.1699 0.6352
H26 H 0.9641 -0.3057 0.6116
C12 C 0.87740(17) -0.45191(17) 0.79569(13)
H27 H 0.9495 -0.4639 0.7340
H28 H 0.8981 -0.3811 0.8236
H29 H 0.8864 -0.5277 0.8508
N7 N 0.84118(14) -0.13224(12) 0.32643(10)
N8 N 0.57509(13) -0.10183(12) 0.36042(10)
N9 N 0.71574(13) 0.03915(11) 0.40273(10)
C13 C 0.70189(17) -0.14535(15) 0.28952(12)
H30 H 0.6996 -0.2342 0.2873
H31 H 0.6950 -0.0959 0.2167
C14 C 0.57013(16) 0.03215(14) 0.36485(13)
H32 H 0.5734(18) 0.0812(16) 0.2882(14)
C15 C 0.84446(17) -0.00321(15) 0.33312(13)
H33 H 0.8425 0.0500 0.2614
H34 H 0.9380 0.0040 0.3612
C16 C 0.9696(2) -0.17606(19) 0.25663(16)
H35 H 0.9635 -0.1274 0.1843
H36 H 0.9690 -0.2647 0.2562
H37 H 1.0623 -0.1655 0.2824
C17 C 0.43801(19) -0.11942(18) 0.32207(14)
H38 H 0.4329 -0.0729 0.2490
H39 H 0.3512 -0.0887 0.3677
H40 H 0.4377 -0.2085 0.3236
C18 C 0.72419(19) 0.16769(15) 0.40945(15)
H41 H 0.8139 0.1709 0.4426
H42 H 0.6350 0.1995 0.4524
H43 H 0.7294 0.2193 0.3379
Li1A Li 0.3865(3) 0.0957(2) 0.4787(2)
Li2A Li 0.4072(3) -0.5471(2) 1.0850(2)
C2A C 0.46929(17) -0.60981(16) 0.92672(13)
H3A H 0.4784(16) -0.6506(14) 0.8613(13)
C14A C 0.42987(16) -0.03215(14) 0.63515(13)
H32A H 0.4266(18) -0.0812(16) 0.7118(14)
loop_
_geom_bond_atom_site_label_1
_geom_bond_atom_site_label_2
_geom_bond_site_symmetry_1
_geom_bond_site_symmetry_2
Li1 N5 1_555 1_555
Li2 N2 1_555 1_555
N1 C1 1_555 1_555
N2 C1 1_555 1_555
N3 Li2 1_555 1_555
C1 H1 1_555 1_555
H2 C1 1_555 1_555
C2 N2 1_555 1_555
H3 C2 1_555 1_555
C3 N1 1_555 1_555
H4 C3 1_555 1_555
H5 C3 1_555 1_555
C4 N1 1_555 1_555
H6 C4 1_555 1_555
H7 C4 1_555 1_555
H8 C4 1_555 1_555
C5 N2 1_555 1_555
H9 C5 1_555 1_555
H10 C5 1_555 1_555
H11 C5 1_555 1_555
C6 N3 1_555 1_555
H12 C6 1_555 1_555
H13 C6 1_555 1_555
H14 C6 1_555 1_555
N4 C7 1_555 1_555
N5 C7 1_555 1_555
N6 Li2 1_555 1_555
C7 H15 1_555 1_555
H16 C7 1_555 1_555
C8 N5 1_555 1_555
H17 C8 1_555 1_555
H18 C8 1_555 1_555
C9 N4 1_555 1_555
H19 C9 1_555 1_555
H20 C9 1_555 1_555
C10 N4 1_555 1_555
H21 C10 1_555 1_555
H22 C10 1_555 1_555
H23 C10 1_555 1_555
C11 N5 1_555 1_555
H24 C11 1_555 1_555
H25 C11 1_555 1_555
H26 C11 1_555 1_555
C12 N6 1_555 1_555
H27 C12 1_555 1_555
H28 C12 1_555 1_555
H29 C12 1_555 1_555
N7 C13 1_555 1_555
N8 Li1 1_555 1_555
N9 Li1 1_555 1_555
C13 N8 1_555 1_555
H30 C13 1_555 1_555
H31 C13 1_555 1_555
C14 N8 1_555 1_555
H32 C14 1_555 1_555
C15 N7 1_555 1_555
H33 C15 1_555 1_555
H34 C15 1_555 1_555
C16 N7 1_555 1_555
H35 C16 1_555 1_555
H36 C16 1_555 1_555
H37 C16 1_555 1_555
C17 N8 1_555 1_555
H38 C17 1_555 1_555
H39 C17 1_555 1_555
H40 C17 1_555 1_555
C18 N9 1_555 1_555
H41 C18 1_555 1_555
H42 C18 1_555 1_555
H43 C18 1_555 1_555
Li1A C14 1_555 1_555
Li2A C2 1_555 1_555
C2A Li2 1_555 1_555
H3A C2A 1_555 1_555
C14A Li1 1_555 1_555
H32A C14A 1_555 1_555
N3 C2 1_555 1_555
N3 C3 1_555 1_555
N6 C8 1_555 1_555
N6 C9 1_555 1_555
N9 C14 1_555 1_555
N9 C15 1_555 1_555

#END
