
#######################################################################
#
#                 Cambridge Crystallographic Data Centre
#                                CCDC 
#
#######################################################################
#
# If this CIF has been generated from an entry in the Cambridge 
# Structural Database, then it will include bibliographic, chemical, 
# crystal, experimental, refinement or atomic coordinate data resulting 
# from the CCDC's data processing and validation procedures.
#
#######################################################################

data_WIDROR
_symmetry_cell_setting           monoclinic
_symmetry_space_group_name_H-M   'P 21/c'
_symmetry_Int_Tables_number      14
_space_group_name_Hall           '-P 2ybc'
loop_
_symmetry_equiv_pos_site_id
_symmetry_equiv_pos_as_xyz
1 x,y,z
2 -x,1/2+y,1/2-z
3 -x,-y,-z
4 x,1/2-y,1/2+z
_cell_length_a                   8.146(3)
_cell_length_b                   19.807(6)
_cell_length_c                   8.246(3)
_cell_angle_alpha                90
_cell_angle_beta                 114.820(6)
_cell_angle_gamma                90
_cell_volume                     1207.58
loop_
_atom_site_label
_atom_site_type_symbol
_atom_site_fract_x
_atom_site_fract_y
_atom_site_fract_z
Cu1 Cu 0.29946(8) 0.36978(3) 0.39906(9)
C1 C 0.1114(6) 0.3049(3) 0.5800(7)
C2 C -0.1872(7) 0.2926(3) 0.4866(8)
H1 H -0.2861 0.2780 0.5057
C3 C -0.2195(6) 0.3231(3) 0.3273(7)
H2 H -0.3364 0.3282 0.2392
C4 C -0.0707(6) 0.3462(2) 0.3022(7)
C5 C -0.0688(6) 0.3787(2) 0.1462(7)
C6 C -0.2199(7) 0.3923(3) -0.0086(7)
H3 H -0.3351 0.3840 -0.0158
C7 C -0.1970(7) 0.4183(3) -0.1516(8)
H4 H -0.2977 0.4281 -0.2567
C8 C -0.0288(7) 0.4298(3) -0.1415(7)
H5 H -0.0122 0.4459 -0.2395
C9 C 0.1190(7) 0.4167(3) 0.0211(8)
H6 H 0.2351 0.4254 0.0310
C10 C 0.5938(7) 0.4583(3) 0.3806(7)
N1 N 0.0948(5) 0.33584(19) 0.4336(6)
N2 N -0.0212(5) 0.2823(2) 0.6171(6)
N3 N 0.0991(5) 0.3926(2) 0.1598(5)
N4 N 0.4881(5) 0.4216(2) 0.3840(6)
O1 O 0.4408(4) 0.32463(17) 0.6413(5)
O2 O 0.3650(5) 0.33195(19) 0.8944(5)
O3 O 0.3715(4) 0.22365(18) 0.7634(5)
S1 S 0.34314(17) 0.29491(7) 0.73866(19)
S2 S 0.7510(2) 0.50856(9) 0.3806(3)
Cu1C Cu 0.29946(8) 0.13022(3) 0.89906(9)
O3C O 0.3715(4) 0.27635(18) 0.2634(5)
loop_
_geom_bond_atom_site_label_1
_geom_bond_atom_site_label_2
_geom_bond_site_symmetry_1
_geom_bond_site_symmetry_2
Cu1 N1 1_555 1_555
C1 N1 1_555 1_555
C2 H1 1_555 1_555
C3 C2 1_555 1_555
H2 C3 1_555 1_555
C4 C3 1_555 1_555
C5 C4 1_555 1_555
C6 C5 1_555 1_555
H3 C6 1_555 1_555
C7 C6 1_555 1_555
H4 C7 1_555 1_555
C8 C7 1_555 1_555
H5 C8 1_555 1_555
C9 C8 1_555 1_555
H6 C9 1_555 1_555
C10 N4 1_555 1_555
N1 C4 1_555 1_555
N2 C1 1_555 1_555
N3 Cu1 1_555 1_555
N4 Cu1 1_555 1_555
O1 Cu1 1_555 1_555
O2 S1 1_555 1_555
O3 S1 1_555 1_555
S1 C1 1_555 1_555
S2 C10 1_555 1_555
Cu1C O3 1_555 1_555
O3C Cu1 1_555 1_555
C2 N2 1_555 1_555
C5 N3 1_555 1_555
C9 N3 1_555 1_555
O1 S1 1_555 1_555

#END
