
#######################################################################
#
#                 Cambridge Crystallographic Data Centre
#                                CCDC 
#
#######################################################################
#
# If this CIF has been generated from an entry in the Cambridge 
# Structural Database, then it will include bibliographic, chemical, 
# crystal, experimental, refinement or atomic coordinate data resulting 
# from the CCDC's data processing and validation procedures.
#
#######################################################################

data_WIDREH
_symmetry_cell_setting           rhombohedral
_symmetry_space_group_name_H-M   'R -3 c'
_symmetry_Int_Tables_number      167
_space_group_name_Hall           '-R 3 2"c'
loop_
_symmetry_equiv_pos_site_id
_symmetry_equiv_pos_as_xyz
1 x,y,z
2 -y,x-y,z
3 -x+y,-x,z
4 y,x,1/2-z
5 2/3+x,1/3+y,1/3+z
6 2/3-y,1/3+x-y,1/3+z
7 2/3-x+y,1/3-x,1/3+z
8 2/3+y,1/3+x,5/6-z
9 1/3+x,2/3+y,2/3+z
10 1/3+y,2/3+x,1/6-z
11 x-y,-y,1/2-z
12 -x,-x+y,1/2-z
13 1/3-y,2/3+x-y,2/3+z
14 1/3-x+y,2/3-x,2/3+z
15 1/3+x-y,2/3-y,1/6-z
16 1/3-x,2/3-x+y,1/6-z
17 2/3+x-y,1/3-y,5/6-z
18 2/3-x,1/3-x+y,5/6-z
19 -x,-y,-z
20 y,-x+y,-z
21 x-y,x,-z
22 -y,-x,1/2+z
23 1/3-x,2/3-y,2/3-z
24 1/3+y,2/3-x+y,2/3-z
25 1/3+x-y,2/3+x,2/3-z
26 1/3-y,2/3-x,1/6+z
27 2/3-x,1/3-y,1/3-z
28 2/3-y,1/3-x,5/6+z
29 -x+y,y,1/2+z
30 x,x-y,1/2+z
31 2/3+y,1/3-x+y,1/3-z
32 2/3+x-y,1/3+x,1/3-z
33 2/3-x+y,1/3+y,5/6+z
34 2/3+x,1/3+x-y,5/6+z
35 1/3-x+y,2/3+y,1/6+z
36 1/3+x,2/3+x-y,1/6+z
_cell_length_a                   14.099(2)
_cell_length_b                   14.099(2)
_cell_length_c                   69.409(6)
_cell_angle_alpha                90
_cell_angle_beta                 90
_cell_angle_gamma                120.00
_cell_volume                     11948.8
loop_
_atom_site_label
_atom_site_type_symbol
_atom_site_fract_x
_atom_site_fract_y
_atom_site_fract_z
Eu1 Eu 0.0000 0.0000 0.06543(3)
Eu2 Eu 0.25191(13) -0.08143(13) 0.0833
Eu3 Eu 0.0000 0.0000 0.0000
N1 N 0.243(3) 0.106(2) 0.0902(5)
N2 N 0.1652(19) 0.1237(18) 0.0882(3)
N3 N 0.167(2) 0.215(2) 0.0961(3)
N4 N 0.326(4) 0.344(3) 0.1118(6)
N5 N 0.258(2) -0.023(3) 0.0479(4)
N6 N 0.175(2) -0.024(2) 0.0501(4)
N7 N 0.1373(17) 0.008(2) 0.0329(5)
C1 C 0.289(3) 0.265(2) 0.1031(3)
C2 C 0.441(3) 0.376(4) 0.1184(6)
H1 H 0.4839 0.4375 0.1264
C3 C 0.484(3) 0.301(3) 0.1115(6)
H2 H 0.5601 0.3266 0.1131
C4 C 0.426(3) 0.207(4) 0.1036(6)
H3 H 0.4512 0.1573 0.1011
C5 C 0.301(3) 0.182(2) 0.0984(4)
C6 C 0.2202(16) 0.0175(17) 0.0206(3)
N8 N 0.238(3) 0.040(2) 0.0010(3)
C7 C 0.326(3) 0.041(3) -0.0080(2)
H4 H 0.3381 0.0563 -0.0214
C8 C 0.398(3) 0.020(4) 0.0026(4)
H5 H 0.4584 0.0215 -0.0036
C9 C 0.380(2) -0.002(3) 0.0222(3)
H6 H 0.4292 -0.0158 0.0294
C10 C 0.2916(18) -0.003(2) 0.0312(2)
Eu1R Eu 0.0000 0.0000 -0.06543(3)
Eu1I Eu 0.3333 -0.3333 0.10124(3)
Eu2A Eu 0.08143(13) 0.33334(18) 0.0833
Eu2B Eu -0.33334(18) -0.25191(13) 0.0833
Eu2R Eu -0.25191(13) 0.08143(13) -0.0833
Eu2S Eu -0.08143(13) -0.33334(18) -0.0833
Eu2T Eu 0.33334(18) 0.25191(13) -0.0833
Eu2B_2 Eu 0.66666(18) -0.25191(13) 0.0833
Eu2A_2 Eu 0.08143(13) -0.66666(18) 0.0833
N1A N -0.106(2) 0.137(4) 0.0902(5)
N1B N -0.137(4) -0.243(3) 0.0902(5)
N1I N 0.439(2) -0.090(3) 0.0765(5)
N1O N 0.090(3) -0.470(4) 0.0765(5)
N1R N -0.243(3) -0.106(2) -0.0902(5)
N1O_2 N 0.090(3) 0.530(4) 0.0765(5)
N1N N -0.530(4) -0.439(2) 0.0765(5)
N1AA N -0.439(2) 0.090(3) -0.0765(5)
N1GA N -0.090(3) -0.530(4) -0.0765(5)
N1S N 0.106(2) -0.137(4) -0.0902(5)
N1FA N 0.530(4) 0.439(2) -0.0765(5)
N1T N 0.137(4) 0.243(3) -0.0902(5)
N2A N -0.1237(18) 0.0415(26) 0.0882(3)
N2B N -0.0415(26) -0.1652(19) 0.0882(3)
N2I N 0.4570(18) -0.1681(19) 0.0785(3)
N2O N 0.1681(19) -0.3748(26) 0.0785(3)
N2R N -0.1652(19) -0.1237(18) -0.0882(3)
N2S N 0.1237(18) -0.0415(26) -0.0882(3)
N2T N 0.0415(26) 0.1652(19) -0.0882(3)
N3A N -0.215(2) -0.048(3) 0.0961(3)
N3B N 0.048(3) -0.167(2) 0.0961(3)
N3I N 0.548(2) -0.166(2) 0.0706(3)
N3O N 0.166(2) -0.285(3) 0.0706(3)
N3R N -0.167(2) -0.215(2) -0.0961(3)
N3N N 0.285(3) 0.452(2) 0.0706(3)
N3I_2 N -0.452(2) -0.166(2) 0.0706(3)
N3GA N -0.166(2) 0.285(3) -0.0706(3)
N3T N -0.048(3) 0.167(2) -0.0961(3)
N3FA N -0.285(3) -0.452(2) -0.0706(3)
N3S N 0.215(2) 0.048(3) -0.0961(3)
N3AA N 0.452(2) 0.166(2) -0.0706(3)
N4A N -0.344(3) -0.018(5) 0.1118(6)
N4B N 0.018(5) -0.326(4) 0.1118(6)
N4I N 0.677(3) -0.007(4) 0.0549(6)
N4O N 0.007(4) -0.315(5) 0.0549(6)
N4R N -0.326(4) -0.344(3) -0.1118(6)
N5A N 0.023(3) 0.281(4) 0.0479(4)
N5B N -0.281(4) -0.258(2) 0.0479(4)
N5R N -0.258(2) 0.023(3) -0.0479(4)
N5S N -0.023(3) -0.281(4) -0.0479(4)
N5T N 0.281(4) 0.258(2) -0.0479(4)
N5I N 0.310(3) -0.075(2) 0.1188(4)
N5O N 0.075(2) 0.386(4) 0.1188(4)
N5N N -0.386(4) -0.310(3) 0.1188(4)
N5AA N -0.310(3) 0.075(2) -0.1188(4)
N5GA N -0.075(2) -0.386(4) -0.1188(4)
N5FA N 0.386(4) 0.310(3) -0.1188(4)
N6A N 0.024(2) 0.199(3) 0.0501(4)
N6B N -0.199(3) -0.175(2) 0.0501(4)
N6R N -0.175(2) 0.024(2) -0.0501(4)
N6S N -0.024(2) -0.199(3) -0.0501(4)
N6T N 0.199(3) 0.175(2) -0.0501(4)
N6I N 0.309(2) -0.158(2) 0.1166(4)
N6O N 0.158(2) 0.468(3) 0.1166(4)
N6N N -0.468(3) -0.309(2) 0.1166(4)
N6AA N -0.309(2) 0.158(2) -0.1166(4)
N6GA N -0.158(2) -0.468(3) -0.1166(4)
N6FA N 0.468(3) 0.309(2) -0.1166(4)
N7A N -0.008(2) 0.1293(26) 0.0329(5)
N7B N -0.1293(26) -0.1373(17) 0.0329(5)
N7R N -0.1373(17) -0.008(2) -0.0329(5)
N7S N 0.008(2) -0.1293(26) -0.0329(5)
N7T N 0.1293(26) 0.1373(17) -0.0329(5)
C1A C -0.265(2) 0.024(4) 0.1031(3)
C1B C -0.024(4) -0.289(3) 0.1031(3)
C1I C 0.598(2) -0.044(3) 0.0636(3)
C1O C 0.044(3) -0.357(4) 0.0636(3)
C1R C -0.289(3) -0.265(2) -0.1031(3)
C2A C -0.376(4) 0.065(5) 0.1184(6)
C2B C -0.065(5) -0.441(3) 0.1184(6)
C2I C 0.709(4) 0.108(3) 0.0483(6)
C2O C -0.108(3) -0.398(5) 0.0483(6)
C2R C -0.441(3) -0.376(4) -0.1184(6)
H1A H -0.4375 0.0464 0.1264
H1B H -0.0464 -0.4839 0.1264
H1I H 0.7708 0.1506 0.0403
H1O H -0.1506 -0.3797 0.0403
H1R H -0.4839 -0.4375 -0.1264
C3A C -0.301(3) 0.183(4) 0.1115(6)
C3B C -0.183(4) -0.484(3) 0.1115(6)
C3I C 0.634(3) 0.151(3) 0.0552(6)
C3O C -0.151(3) -0.516(4) 0.0552(6)
C3R C -0.484(3) -0.301(3) -0.1115(6)
H2A H -0.3266 0.2335 0.1131
H2B H -0.2335 -0.5601 0.1131
H2I H 0.6599 0.2268 0.0536
H2O H -0.2268 -0.5668 0.0536
H2R H -0.5601 -0.3266 -0.1131
C4A C -0.207(4) 0.219(5) 0.1036(6)
C4B C -0.219(5) -0.426(3) 0.1036(6)
C4I C 0.540(4) 0.093(3) 0.0631(6)
C4O C -0.093(3) -0.552(5) 0.0631(6)
C4R C -0.426(3) -0.207(4) -0.1036(6)
H3A H -0.1573 0.2939 0.1011
H3B H -0.2939 -0.4512 0.1011
H3I H 0.4906 0.1179 0.0656
H3O H -0.1179 -0.6272 0.0656
H3R H -0.4512 -0.1573 -0.1011
C5A C -0.182(2) 0.119(4) 0.0984(4)
C5B C -0.119(4) -0.301(3) 0.0984(4)
C5I C 0.515(2) -0.032(3) 0.0683(4)
C5O C 0.032(3) -0.452(4) 0.0683(4)
C5R C -0.301(3) -0.182(2) -0.0984(4)
C6A C -0.0175(17) 0.2027(23) 0.0206(3)
C6B C -0.2027(23) -0.2202(16) 0.0206(3)
C6R C -0.2202(16) -0.0175(17) -0.0206(3)
C6S C 0.0175(17) -0.2027(23) -0.0206(3)
C6T C 0.2027(23) 0.2202(16) -0.0206(3)
N8A N -0.040(2) 0.198(4) 0.0010(3)
N8B N -0.198(4) -0.238(3) 0.0010(3)
N8R N -0.238(3) -0.040(2) -0.0010(3)
N8S N 0.040(2) -0.198(4) -0.0010(3)
N8T N 0.198(4) 0.238(3) -0.0010(3)
C7A C -0.041(3) 0.285(4) -0.0080(2)
C7B C -0.285(4) -0.326(3) -0.0080(2)
C7R C -0.326(3) -0.041(3) 0.0080(2)
C7S C 0.041(3) -0.285(4) 0.0080(2)
C7T C 0.285(4) 0.326(3) 0.0080(2)
H4A H -0.0563 0.2818 -0.0214
H4B H -0.2818 -0.3381 -0.0214
H4R H -0.3381 -0.0563 0.0214
H4S H 0.0563 -0.2818 0.0214
H4T H 0.2818 0.3381 0.0214
C8A C -0.020(4) 0.378(5) 0.0026(4)
C8B C -0.378(5) -0.398(3) 0.0026(4)
C8R C -0.398(3) -0.020(4) -0.0026(4)
C8S C 0.020(4) -0.378(5) -0.0026(4)
C8T C 0.378(5) 0.398(3) -0.0026(4)
H5A H -0.0215 0.4369 -0.0036
H5B H -0.4369 -0.4584 -0.0036
H5R H -0.4584 -0.0215 0.0036
H5S H 0.0215 -0.4369 0.0036
H5T H 0.4369 0.4584 0.0036
C9A C 0.002(3) 0.382(4) 0.0222(3)
C9B C -0.382(4) -0.380(2) 0.0222(3)
C9R C -0.380(2) 0.002(3) -0.0222(3)
C9S C -0.002(3) -0.382(4) -0.0222(3)
C9T C 0.382(4) 0.380(2) -0.0222(3)
H6A H 0.0158 0.4450 0.0294
H6B H -0.4450 -0.4292 0.0294
H6R H -0.4292 0.0158 -0.0294
H6S H -0.0158 -0.4450 -0.0294
H6T H 0.4450 0.4292 -0.0294
C10A C 0.003(2) 0.2946(27) 0.0312(2)
C10B C -0.2946(27) -0.2916(18) 0.0312(2)
C10R C -0.2916(18) 0.003(2) -0.0312(2)
C10S C -0.003(2) -0.2946(27) -0.0312(2)
C10T C 0.2946(27) 0.2916(18) -0.0312(2)
loop_
_geom_bond_atom_site_label_1
_geom_bond_atom_site_label_2
_geom_bond_site_symmetry_1
_geom_bond_site_symmetry_2
Eu1 N2 1_555 1_555
Eu2 N1 1_555 1_555
Eu3 N7 1_555 1_555
N1 N2 1_555 1_555
N2 N3 1_555 1_555
N3 C1 1_555 1_555
N4 C1 1_555 1_555
N5 Eu2 1_555 1_555
N6 Eu1 1_555 1_555
N7 Eu1 1_555 1_555
C1 C5 1_555 1_555
C2 N4 1_555 1_555
H1 C2 1_555 1_555
C3 C2 1_555 1_555
H2 C3 1_555 1_555
C4 C3 1_555 1_555
H3 C4 1_555 1_555
C5 N1 1_555 1_555
C6 N7 1_555 1_555
N8 Eu3 1_555 1_555
C7 N8 1_555 1_555
H4 C7 1_555 1_555
C8 C7 1_555 1_555
H5 C8 1_555 1_555
C9 C8 1_555 1_555
H6 C9 1_555 1_555
C10 N5 1_555 1_555
Eu1R N2R 1_555 1_555
Eu1I N2I 1_555 1_555
Eu2A N3 1_555 1_555
Eu2B N1B 1_555 1_555
Eu2R N1R 1_555 1_555
Eu2S N1GA 1_555 1_555
Eu2T N1FA 1_555 1_555
Eu2B_2 N3I 1_555 1_555
Eu2A_2 N1O 1_555 1_555
N1A Eu2A 1_555 1_555
N1B N2B 1_555 1_555
N1I Eu2 1_555 1_555
N1O N2O 1_555 1_555
N1R N2R 1_555 1_555
N1O_2 Eu2A 1_555 1_555
N1N Eu2B 1_555 1_555
N1AA Eu2R 1_555 1_555
N1S Eu2S 1_555 1_555
N1T Eu2T 1_555 1_555
N2A Eu1 1_555 1_555
N2B Eu1 1_555 1_555
N2I N1I 1_555 1_555
N2O Eu1I 1_555 1_555
N2R N3R 1_555 1_555
N2S Eu1R 1_555 1_555
N2T Eu1R 1_555 1_555
N3A Eu2B 1_555 1_555
N3B Eu2 1_555 1_555
N3I N2I 1_555 1_555
N3O Eu2 1_555 1_555
N3R Eu2S 1_555 1_555
N3N Eu2A 1_555 1_555
N3I_2 Eu2B 1_555 1_555
N3GA Eu2R 1_555 1_555
N3T Eu2R 1_555 1_555
N3FA Eu2S 1_555 1_555
N3S Eu2T 1_555 1_555
N3AA Eu2T 1_555 1_555
N4A C1A 1_555 1_555
N4B C1B 1_555 1_555
N4I C1I 1_555 1_555
N4O C1O 1_555 1_555
N4R C1R 1_555 1_555
N5A Eu2A 1_555 1_555
N5B Eu2B 1_555 1_555
N5R Eu2R 1_555 1_555
N5S Eu2S 1_555 1_555
N5T Eu2T 1_555 1_555
N5I Eu2 1_555 1_555
N5O Eu2A 1_555 1_555
N5N Eu2B 1_555 1_555
N5AA Eu2R 1_555 1_555
N5GA Eu2S 1_555 1_555
N5FA Eu2T 1_555 1_555
N6A Eu1 1_555 1_555
N6B Eu1 1_555 1_555
N6R Eu1R 1_555 1_555
N6S Eu1R 1_555 1_555
N6T Eu1R 1_555 1_555
N6I Eu2 1_555 1_555
N6O Eu2A 1_555 1_555
N6N Eu2B 1_555 1_555
N6AA Eu2R 1_555 1_555
N6GA Eu2S 1_555 1_555
N6FA Eu2T 1_555 1_555
N7A Eu1 1_555 1_555
N7B Eu1 1_555 1_555
N7R Eu3 1_555 1_555
N7S Eu3 1_555 1_555
N7T Eu3 1_555 1_555
C1A N3A 1_555 1_555
C1B N3B 1_555 1_555
C1I N3I 1_555 1_555
C1O N3O 1_555 1_555
C1R N3R 1_555 1_555
C2A N4A 1_555 1_555
C2B N4B 1_555 1_555
C2I N4I 1_555 1_555
C2O N4O 1_555 1_555
C2R N4R 1_555 1_555
H1A C2A 1_555 1_555
H1B C2B 1_555 1_555
H1I C2I 1_555 1_555
H1O C2O 1_555 1_555
H1R C2R 1_555 1_555
C3A C2A 1_555 1_555
C3B C2B 1_555 1_555
C3I C2I 1_555 1_555
C3O C2O 1_555 1_555
C3R C2R 1_555 1_555
H2A C3A 1_555 1_555
H2B C3B 1_555 1_555
H2I C3I 1_555 1_555
H2O C3O 1_555 1_555
H2R C3R 1_555 1_555
C4A C3A 1_555 1_555
C4B C3B 1_555 1_555
C4I C3I 1_555 1_555
C4O C3O 1_555 1_555
C4R C3R 1_555 1_555
H3A C4A 1_555 1_555
H3B C4B 1_555 1_555
H3I C4I 1_555 1_555
H3O C4O 1_555 1_555
H3R C4R 1_555 1_555
C5A N1A 1_555 1_555
C5B N1B 1_555 1_555
C5I N1I 1_555 1_555
C5O N1O 1_555 1_555
C5R N1R 1_555 1_555
C6A N7A 1_555 1_555
C6B N7B 1_555 1_555
C6R N7R 1_555 1_555
C6S N7S 1_555 1_555
C6T N7T 1_555 1_555
N8A Eu3 1_555 1_555
N8B Eu3 1_555 1_555
N8R Eu3 1_555 1_555
N8S Eu3 1_555 1_555
N8T Eu3 1_555 1_555
C7A N8A 1_555 1_555
C7B N8B 1_555 1_555
C7R N8R 1_555 1_555
C7S N8S 1_555 1_555
C7T N8T 1_555 1_555
H4A C7A 1_555 1_555
H4B C7B 1_555 1_555
H4R C7R 1_555 1_555
H4S C7S 1_555 1_555
H4T C7T 1_555 1_555
C8A C7A 1_555 1_555
C8B C7B 1_555 1_555
C8R C7R 1_555 1_555
C8S C7S 1_555 1_555
C8T C7T 1_555 1_555
H5A C8A 1_555 1_555
H5B C8B 1_555 1_555
H5R C8R 1_555 1_555
H5S C8S 1_555 1_555
H5T C8T 1_555 1_555
C9A C8A 1_555 1_555
C9B C8B 1_555 1_555
C9R C8R 1_555 1_555
C9S C8S 1_555 1_555
C9T C8T 1_555 1_555
H6A C9A 1_555 1_555
H6B C9B 1_555 1_555
H6R C9R 1_555 1_555
H6S C9S 1_555 1_555
H6T C9T 1_555 1_555
C10A N5A 1_555 1_555
C10B N5B 1_555 1_555
C10R N5R 1_555 1_555
C10S N5S 1_555 1_555
C10T N5T 1_555 1_555
Eu2 N6 1_555 1_555
Eu3 N7A 1_555 1_555
Eu3 N7B 1_555 1_555
N5 N6 1_555 1_555
N6 N7 1_555 1_555
C4 C5 1_555 1_555
C6 N8 1_555 1_555
C6 C10 1_555 1_555
C9 C10 1_555 1_555
Eu1R N7R 1_555 1_555
Eu1R N7S 1_555 1_555
Eu1R N7T 1_555 1_555
Eu1I N6I 1_555 1_555
Eu2A N6A 1_555 1_555
Eu2B N6B 1_555 1_555
Eu2R N6R 1_555 1_555
Eu2S N6S 1_555 1_555
Eu2T N6T 1_555 1_555
N1A N2A 1_555 1_555
N1S N2S 1_555 1_555
N1T N2T 1_555 1_555
N2A N3A 1_555 1_555
N2B N3B 1_555 1_555
N2O N3O 1_555 1_555
N2S N3S 1_555 1_555
N2T N3T 1_555 1_555
N5A N6A 1_555 1_555
N5B N6B 1_555 1_555
N5R N6R 1_555 1_555
N5S N6S 1_555 1_555
N5T N6T 1_555 1_555
N5I N6I 1_555 1_555
N5O N6O 1_555 1_555
N5N N6N 1_555 1_555
N5AA N6AA 1_555 1_555
N5GA N6GA 1_555 1_555
N5FA N6FA 1_555 1_555
N6A N7A 1_555 1_555
N6B N7B 1_555 1_555
N6R N7R 1_555 1_555
N6S N7S 1_555 1_555
N6T N7T 1_555 1_555
C1A C5A 1_555 1_555
C1B C5B 1_555 1_555
C1I C5I 1_555 1_555
C1O C5O 1_555 1_555
C1R C5R 1_555 1_555
C4A C5A 1_555 1_555
C4B C5B 1_555 1_555
C4I C5I 1_555 1_555
C4O C5O 1_555 1_555
C4R C5R 1_555 1_555
C6A N8A 1_555 1_555
C6A C10A 1_555 1_555
C6B N8B 1_555 1_555
C6B C10B 1_555 1_555
C6R N8R 1_555 1_555
C6R C10R 1_555 1_555
C6S N8S 1_555 1_555
C6S C10S 1_555 1_555
C6T N8T 1_555 1_555
C6T C10T 1_555 1_555
C9A C10A 1_555 1_555
C9B C10B 1_555 1_555
C9R C10R 1_555 1_555
C9S C10S 1_555 1_555
C9T C10T 1_555 1_555

#END
