
#######################################################################
#
#                 Cambridge Crystallographic Data Centre
#                                CCDC 
#
#######################################################################
#
# If this CIF has been generated from an entry in the Cambridge 
# Structural Database, then it will include bibliographic, chemical, 
# crystal, experimental, refinement or atomic coordinate data resulting 
# from the CCDC's data processing and validation procedures.
#
#######################################################################

data_WIFBET
_symmetry_cell_setting           monoclinic
_symmetry_space_group_name_H-M   'C 2/c'
_symmetry_Int_Tables_number      15
_space_group_name_Hall           '-C 2yn'
loop_
_symmetry_equiv_pos_site_id
_symmetry_equiv_pos_as_xyz
1 x,y,z
2 1/2+x,1/2+y,z
3 -x,y,1/2-z
4 1/2-x,1/2+y,1/2-z
5 -x,-y,-z
6 1/2-x,1/2-y,-z
7 x,-y,1/2+z
8 1/2+x,1/2-y,1/2+z
_cell_length_a                   17.048(3)
_cell_length_b                   14.728(3)
_cell_length_c                   15.739(3)
_cell_angle_alpha                90
_cell_angle_beta                 117.14(3)
_cell_angle_gamma                90
_cell_volume                     3516.68
loop_
_atom_site_label
_atom_site_type_symbol
_atom_site_fract_x
_atom_site_fract_y
_atom_site_fract_z
Cd1 Cd 0.253266(10) 0.552824(10) 0.138220(10)
O1 O 0.36406(11) 0.47909(12) 0.27412(11)
O2 O 0.24712(10) 0.53168(10) 0.28374(10)
O3 O 0.22005(15) 0.70806(14) 0.13753(16)
O4 O 0.35563(13) 0.68994(13) 0.23679(14)
O5 O 0.30155(17) 0.82454(13) 0.20308(19)
N1 N 0.33985(13) 0.43459(12) 0.56027(13)
N2 N 0.11969(13) 0.55401(11) -0.00159(14)
N3 N 0.20854(13) 0.39945(12) 0.08541(13)
N4 N 0.29335(15) 0.74243(14) 0.19232(15)
C1 C 0.31010(15) 0.46464(14) 0.47047(15)
H3 H 0.2553 0.4928 0.4416
C2 C 0.35643(14) 0.45592(13) 0.41898(15)
C3 C 0.43755(15) 0.41244(15) 0.46195(15)
H4 H 0.4702 0.4039 0.4287
C4 C 0.46912(15) 0.38204(16) 0.55454(16)
H5 H 0.5236 0.3534 0.5849
C5 C 0.41909(15) 0.39459(16) 0.60089(15)
H6 H 0.4410 0.3744 0.6636
C6 C 0.31979(14) 0.49135(14) 0.31862(14)
C7 C 0.25042(17) 0.32383(17) 0.12900(18)
H7 H 0.3031 0.3289 0.1849
C8 C 0.2185(2) 0.23712(17) 0.0942(2)
H8 H 0.2490 0.1858 0.1272
C9 C 0.14233(19) 0.22855(16) 0.0116(2)
H9 H 0.1217 0.1712 -0.0134
C10 C 0.09510(16) 0.30601(15) -0.03582(17)
C11 C 0.01319(18) 0.30278(18) -0.1203(2)
H10 H -0.0100 0.2467 -0.1473
C12 C -0.03118(17) 0.37839(18) -0.16191(19)
H11 H -0.0851 0.3740 -0.2164
C13 C 0.00323(15) 0.46613(16) -0.12363(16)
C14 C -0.04064(17) 0.54687(16) -0.16644(18)
H12 H -0.0945 0.5449 -0.2212
C15 C -0.00371(17) 0.62813(17) -0.12728(18)
H13 H -0.0316 0.6823 -0.1553
C16 C 0.07645(16) 0.62881(15) -0.04456(17)
H14 H 0.1009 0.6846 -0.0181
C17 C 0.08371(14) 0.47283(15) -0.04122(15)
C18 C 0.13145(15) 0.39070(14) 0.00474(15)
Cd1F Cd 0.253266(10) 0.447176(10) 0.638220(10)
N1F N 0.33985(13) 0.56541(12) 0.06027(13)
O6 O 0.5000 0.3925(2) 0.2500
H1 H 0.5542(16) 0.385(6) 0.266(6)
H1B H 0.4458(16) 0.385(6) 0.234(6)
H2? H 0.531(3) 0.430(3) 0.237(4)
loop_
_geom_bond_atom_site_label_1
_geom_bond_atom_site_label_2
_geom_bond_site_symmetry_1
_geom_bond_site_symmetry_2
Cd1 O1 1_555 1_555
O1 C6 1_555 1_555
O2 Cd1 1_555 1_555
O3 Cd1 1_555 1_555
O4 N4 1_555 1_555
O5 N4 1_555 1_555
O6 H1 1_555 1_555
N1 C1 1_555 1_555
N2 Cd1 1_555 1_555
N3 Cd1 1_555 1_555
N4 O3 1_555 1_555
C1 H3 1_555 1_555
C2 C1 1_555 1_555
C3 C2 1_555 1_555
H4 C3 1_555 1_555
C4 C3 1_555 1_555
H5 C4 1_555 1_555
C5 N1 1_555 1_555
H6 C5 1_555 1_555
C6 O2 1_555 1_555
C7 N3 1_555 1_555
H7 C7 1_555 1_555
C8 C7 1_555 1_555
H8 C8 1_555 1_555
C9 C8 1_555 1_555
H9 C9 1_555 1_555
C10 C9 1_555 1_555
C11 C10 1_555 1_555
H10 C11 1_555 1_555
C12 C11 1_555 1_555
H11 C12 1_555 1_555
C13 C12 1_555 1_555
C14 C13 1_555 1_555
H12 C14 1_555 1_555
C15 C14 1_555 1_555
H13 C15 1_555 1_555
C16 N2 1_555 1_555
H14 C16 1_555 1_555
C17 N2 1_555 1_555
C18 N3 1_555 1_555
Cd1F N1 1_555 1_555
H1B O6 1_555 1_555
N1F Cd1 1_555 1_555
C2 C6 1_555 1_555
C4 C5 1_555 1_555
C10 C18 1_555 1_555
C13 C17 1_555 1_555
C15 C16 1_555 1_555
C17 C18 1_555 1_555

#END
