
#######################################################################
#
#                 Cambridge Crystallographic Data Centre
#                                CCDC 
#
#######################################################################
#
# If this CIF has been generated from an entry in the Cambridge 
# Structural Database, then it will include bibliographic, chemical, 
# crystal, experimental, refinement or atomic coordinate data resulting 
# from the CCDC's data processing and validation procedures.
#
#######################################################################

data_WIFBIX
_symmetry_cell_setting           monoclinic
_symmetry_space_group_name_H-M   'P 21/c'
_symmetry_Int_Tables_number      14
_space_group_name_Hall           '-P 2ybc'
loop_
_symmetry_equiv_pos_site_id
_symmetry_equiv_pos_as_xyz
1 x,y,z
2 -x,1/2+y,1/2-z
3 -x,-y,-z
4 x,1/2-y,1/2+z
_cell_length_a                   16.017(3)
_cell_length_b                   14.720(3)
_cell_length_c                   10.175(2)
_cell_angle_alpha                90
_cell_angle_beta                 100.30(3)
_cell_angle_gamma                90
_cell_volume                     2360.3
loop_
_atom_site_label
_atom_site_type_symbol
_atom_site_fract_x
_atom_site_fract_y
_atom_site_fract_z
Cd1 Cd 0.418388(8) 0.658734(9) 0.336261(14)
N1 N 0.51200(10) 0.58614(10) 0.22236(16)
O1 O 0.53166(10) 0.30530(9) 0.23323(15)
O2 O 0.61753(9) 0.30450(10) 0.08810(15)
O3 O 0.31070(9) 0.61727(10) 0.44686(15)
O4 O 0.38556(9) 0.49765(10) 0.41560(16)
O5 O 0.31824(10) 0.65552(12) 0.14361(16)
H1 H 0.2758(13) 0.685(2) 0.154(3)
H2 H 0.3337(17) 0.6733(18) 0.0734(18)
O6 O 0.51967(10) 0.65668(10) 0.52779(15)
H3 H 0.5528(12) 0.6121(11) 0.540(2)
H4 H 0.4981(17) 0.6633(18) 0.5963(18)
C1 C 0.56545(13) 0.63241(14) 0.1603(2)
H6 H 0.5644 0.6955 0.1634
C2 C 0.62173(13) 0.59114(14) 0.0923(2)
H7 H 0.6569 0.6258 0.0485
C3 C 0.62548(12) 0.49744(13) 0.0898(2)
H8 H 0.6635 0.4680 0.0450
C4 C 0.57169(11) 0.44818(13) 0.15489(18)
C5 C 0.51566(12) 0.49543(12) 0.21811(19)
H9 H 0.4785 0.4623 0.2600
C6 C 0.57381(12) 0.34625(12) 0.15874(19)
C7 C 0.27427(12) 0.47769(14) 0.5403(2)
C8 C 0.22312(13) 0.51881(17) 0.6190(2)
H10 H 0.2207 0.5818 0.6234
C9 C 0.17574(14) 0.46661(19) 0.6908(2)
H11 H 0.1419 0.4952 0.7437
C10 C 0.17730(16) 0.3732(2) 0.6863(3)
C11 C 0.22740(18) 0.33249(17) 0.6058(3)
H12 H 0.2283 0.2695 0.5994
C12 C 0.27623(15) 0.38392(16) 0.5347(3)
H13 H 0.3106 0.3552 0.4828
C13 C 0.32674(12) 0.53315(14) 0.4629(2)
C14 C 0.1255(3) 0.3166(3) 0.7664(4)
H14 H 0.0943 0.3559 0.8153
H15 H 0.1627 0.2787 0.8277
H16 H 0.0866 0.2792 0.7070
Cd1A Cd 0.581612(8) 0.158734(9) 0.163739(14)
O1A O 0.46834(10) 0.80530(9) 0.26677(15)
O2A O 0.38247(9) 0.80450(10) 0.41190(15)
O7 O 0.17774(11) 0.75843(16) 0.70944(17)
O8 O 0.17487(13) 0.77972(15) 0.92270(17)
H5 H 0.2140(15) 0.8076(18) 0.924(2)
C15 C -0.06550(17) 0.5681(2) 0.7962(3)
C16 C -0.03722(16) 0.59074(19) 0.6812(3)
H17 H -0.0650 0.5678 0.5999
C17 C 0.03168(16) 0.64697(17) 0.6844(2)
H18 H 0.0502 0.6615 0.6054
C18 C 0.07363(13) 0.68205(15) 0.8041(2)
C19 C 0.04632(16) 0.65876(17) 0.9209(3)
H19 H 0.0744 0.6811 1.0024
C20 C -0.02306(17) 0.6020(2) 0.9160(3)
H20 H -0.0413 0.5864 0.9948
C21 C 0.14743(13) 0.74371(16) 0.8061(2)
C22 C -0.1436(2) 0.5079(3) 0.7952(4)
H21 H -0.1534 0.5003 0.8849
H22 H -0.1342 0.4497 0.7581
H23 H -0.1923 0.5361 0.7419
loop_
_geom_bond_atom_site_label_1
_geom_bond_atom_site_label_2
_geom_bond_site_symmetry_1
_geom_bond_site_symmetry_2
Cd1 N1 1_555 1_555
N1 C1 1_555 1_555
O1 C6 1_555 1_555
O2 C6 1_555 1_555
O3 Cd1 1_555 1_555
O4 Cd1 1_555 1_555
O5 Cd1 1_555 1_555
H1 O5 1_555 1_555
H2 O5 1_555 1_555
O6 Cd1 1_555 1_555
H3 O6 1_555 1_555
H4 O6 1_555 1_555
O7 C21 1_555 1_555
O8 H5 1_555 1_555
C1 H6 1_555 1_555
C2 C1 1_555 1_555
H7 C2 1_555 1_555
C3 C2 1_555 1_555
H8 C3 1_555 1_555
C4 C3 1_555 1_555
C5 N1 1_555 1_555
H9 C5 1_555 1_555
C6 C4 1_555 1_555
C7 C8 1_555 1_555
C8 H10 1_555 1_555
C9 C8 1_555 1_555
H11 C9 1_555 1_555
C10 C9 1_555 1_555
C11 C10 1_555 1_555
H12 C11 1_555 1_555
C12 C7 1_555 1_555
H13 C12 1_555 1_555
C13 O3 1_555 1_555
C14 C10 1_555 1_555
H14 C14 1_555 1_555
H15 C14 1_555 1_555
H16 C14 1_555 1_555
C15 C16 1_555 1_555
C16 H17 1_555 1_555
C17 C16 1_555 1_555
H18 C17 1_555 1_555
C18 C17 1_555 1_555
C19 C18 1_555 1_555
H19 C19 1_555 1_555
C20 C15 1_555 1_555
H20 C20 1_555 1_555
C21 O8 1_555 1_555
C22 C15 1_555 1_555
H21 C22 1_555 1_555
H22 C22 1_555 1_555
H23 C22 1_555 1_555
Cd1A O1 1_555 1_555
O1A Cd1 1_555 1_555
O2A Cd1 1_555 1_555
O2 Cd1A 1_555 1_555
O4 C13 1_555 1_555
C4 C5 1_555 1_555
C7 C13 1_555 1_555
C11 C12 1_555 1_555
C18 C21 1_555 1_555
C19 C20 1_555 1_555

#END
