
#######################################################################
#
#                 Cambridge Crystallographic Data Centre
#                                CCDC 
#
#######################################################################
#
# If this CIF has been generated from an entry in the Cambridge 
# Structural Database, then it will include bibliographic, chemical, 
# crystal, experimental, refinement or atomic coordinate data resulting 
# from the CCDC's data processing and validation procedures.
#
#######################################################################

data_WIFVUC01
_symmetry_cell_setting           triclinic
_symmetry_space_group_name_H-M   'P -1'
_symmetry_Int_Tables_number      2
_space_group_name_Hall           '-P 1'
loop_
_symmetry_equiv_pos_site_id
_symmetry_equiv_pos_as_xyz
1 x,y,z
2 -x,-y,-z
_cell_length_a                   7.146(3)
_cell_length_b                   10.323(4)
_cell_length_c                   14.009(6)
_cell_angle_alpha                109.922(15)
_cell_angle_beta                 92.24(2)
_cell_angle_gamma                105.002(16)
_cell_volume                     929.197
loop_
_atom_site_label
_atom_site_type_symbol
_atom_site_fract_x
_atom_site_fract_y
_atom_site_fract_z
Pb1 Pb 0.82071(6) 0.06380(4) 0.38035(3)
Pb2 Pb 1.0000 0.5000 0.5000
Pb3 Pb 1.44070(6) 0.30900(4) 0.54631(3)
O1 O 0.6890(12) -0.1166(9) 0.1981(6)
O2 O 0.7948(10) 0.2767(7) 0.3260(5)
O3 O 1.0994(11) 0.3598(8) 0.6131(6)
O4 O 0.6186(12) -0.1945(8) 0.3222(6)
O5 O 0.2335(10) 0.4727(7) 0.3531(5)
O6 O 0.1852(10) 0.2696(7) 0.3842(5)
O7 O 0.5276(10) -0.0824(7) 0.6034(6)
O8 O 0.8058(10) -0.0318(7) 0.5425(5)
O9 O 0.7820(11) 0.2452(7) 0.5538(5)
O10 O 0.6087(9) 0.4058(7) 0.4115(5)
C1 C 0.8683(16) 0.1930(13) 0.8933(8)
H1 H 0.8561 0.1733 0.9532
C2 C 1.0087(15) 0.3531(11) 0.8068(8)
H2 H 1.0883 0.4413 0.8090
C3 C 0.9880(16) 0.3239(13) 0.8975(8)
H3 H 1.0548 0.3925 0.9599
C4 C 0.7893(14) 0.1162(10) 0.7106(8)
C5 C 0.9103(13) 0.2502(10) 0.7147(7)
C6 C 0.2446(14) 0.3479(11) 0.3315(7)
C7 C 0.9342(15) 0.2880(11) 0.6197(7)
C8 C 0.5092(14) 0.2736(10) 0.2314(7)
C9 C 0.7670(15) 0.0918(11) 0.8018(8)
H4 H 0.6825 0.0059 0.8008
C10 C 0.7013(14) -0.0031(10) 0.6108(7)
C11 C 0.6445(13) 0.3199(10) 0.3284(7)
C12 C 0.3164(14) 0.2840(10) 0.2349(7)
C13 C 0.6132(15) -0.2155(12) 0.2273(8)
C14 C 0.4475(19) 0.1686(14) 0.0477(8)
H5 H 0.4907 0.1308 -0.0148
C15 C 0.2610(19) 0.1765(14) 0.0493(9)
H6 H 0.1768 0.1411 -0.0120
C16 C 0.5740(16) 0.2162(12) 0.1378(8)
H7 H 0.7014 0.2100 0.1360
C17 C 0.1935(16) 0.2374(13) 0.1420(8)
H8 H 0.0675 0.2469 0.1418
C18 C 0.5065(18) -0.3633(14) 0.1524(10)
H9 H 0.5135 -0.3649 0.0837
H10 H 0.3720 -0.3875 0.1631
H11 H 0.5659 -0.4320 0.1623
Pb1A Pb 1.17929(6) 0.93620(4) 0.61965(3)
Pb1A_2 Pb 0.17929(6) -0.06380(4) 0.61965(3)
Pb1_2 Pb 1.82071(6) 1.06380(4) 0.38035(3)
Pb1A_3 Pb 1.17929(6) -0.06380(4) 0.61965(3)
Pb2_2 Pb 0.0000 0.5000 0.5000
Pb2_3 Pb 2.0000 0.5000 0.5000
Pb3A Pb 0.55930(6) 0.69100(4) 0.45369(3)
Pb3A_2 Pb 0.55930(6) -0.30900(4) 0.45369(3)
Pb3_2 Pb 0.44070(6) 0.30900(4) 0.54631(3)
Pb3A_3 Pb 1.55930(6) 0.69100(4) 0.45369(3)
Pb3_3 Pb 1.44070(6) 1.30900(4) 0.54631(3)
O1A O 1.3110(12) 0.1166(9) 0.8019(6)
O1A_2 O 1.3110(12) 1.1166(9) 0.8019(6)
O2A O 1.2052(10) 0.7233(7) 0.6740(5)
O3A O 0.9006(11) 0.6402(8) 0.3869(6)
O4A O 1.3814(12) 0.1945(8) 0.6778(6)
O4A_2 O 1.3814(12) 1.1945(8) 0.6778(6)
O4_2 O 0.6186(12) 0.8055(8) 0.3222(6)
O5A O 1.7665(10) 0.5273(7) 0.6469(5)
O5_2 O 1.2335(10) 0.4727(7) 0.3531(5)
O5A_2 O 0.7665(10) 0.5273(7) 0.6469(5)
O6A O 1.8148(10) 0.7304(7) 0.6158(5)
O6_2 O 1.1852(10) 0.2696(7) 0.3842(5)
O6A_2 O 0.8148(10) 0.7304(7) 0.6158(5)
O7A O 1.4724(10) 1.0824(7) 0.3966(6)
O7A_2 O 0.4724(10) 0.0824(7) 0.3966(6)
O7A_3 O 1.4724(10) 0.0824(7) 0.3966(6)
O7_2 O 1.5276(10) 0.9176(7) 0.6034(6)
O7_3 O 0.5276(10) 0.9176(7) 0.6034(6)
O8A O 1.1942(10) 1.0318(7) 0.4575(5)
O8A_2 O 1.1942(10) 0.0318(7) 0.4575(5)
O8_2 O 0.8058(10) 0.9682(7) 0.5425(5)
O9A O 1.2180(11) 0.7548(7) 0.4462(5)
O9_2 O 1.7820(11) 0.2452(7) 0.5538(5)
O9A_2 O 0.2180(11) 0.7548(7) 0.4462(5)
O10A O 1.3913(9) 0.5942(7) 0.5885(5)
O10_2 O 1.6087(9) 0.4058(7) 0.4115(5)
O10A_2 O 0.3913(9) 0.5942(7) 0.5885(5)
C1A C 1.1317(16) 0.8070(13) 0.1067(8)
H1A H 1.1439 0.8267 0.0468
C2A C 0.9913(15) 0.6469(11) 0.1932(8)
H2A H 0.9117 0.5587 0.1910
C3A C 1.0120(16) 0.6761(13) 0.1025(8)
H3A H 0.9452 0.6075 0.0401
C4A C 1.2107(14) 0.8838(10) 0.2894(8)
C5A C 1.0897(13) 0.7498(10) 0.2853(7)
C6A C 1.7554(14) 0.6521(11) 0.6685(7)
C7A C 1.0658(15) 0.7120(11) 0.3803(7)
C8A C 1.4908(14) 0.7264(10) 0.7686(7)
C9A C 1.2330(15) 0.9082(11) 0.1982(8)
H4A H 1.3175 0.9941 0.1992
C10A C 1.2987(14) 1.0031(10) 0.3892(7)
C11A C 1.3555(13) 0.6801(10) 0.6716(7)
C12A C 1.6836(14) 0.7160(10) 0.7651(7)
C13A C 1.3868(15) 0.2155(12) 0.7727(8)
C14A C 1.5525(19) 0.8314(14) 0.9523(8)
H5A H 1.5093 0.8692 1.0148
C15A C 1.7390(19) 0.8235(14) 0.9507(9)
H6A H 1.8232 0.8589 1.0120
C16A C 1.4260(16) 0.7838(12) 0.8622(8)
H7A H 1.2986 0.7900 0.8640
C17A C 1.8065(16) 0.7626(13) 0.8580(8)
H8A H 1.9325 0.7531 0.8582
C18A C 1.4935(18) 0.3633(14) 0.8476(10)
H9A H 1.4865 0.3649 0.9163
H10A H 1.6280 0.3875 0.8369
H11A H 1.4341 0.4320 0.8377
loop_
_geom_bond_atom_site_label_1
_geom_bond_atom_site_label_2
_geom_bond_site_symmetry_1
_geom_bond_site_symmetry_2
Pb1 O1 1_555 1_555
Pb2 O2 1_555 1_555
Pb3 O3 1_555 1_555
O1 C13 1_555 1_555
O2 Pb1 1_555 1_555
O3 Pb2 1_555 1_555
O4 Pb1 1_555 1_555
O5 C6 1_555 1_555
O6 C6 1_555 1_555
O7 C10 1_555 1_555
O8 Pb1 1_555 1_555
O9 Pb1 1_555 1_555
O10 Pb2 1_555 1_555
C1 H1 1_555 1_555
C2 H2 1_555 1_555
C3 C1 1_555 1_555
H3 C3 1_555 1_555
C4 C5 1_555 1_555
C5 C2 1_555 1_555
C6 C12 1_555 1_555
C7 O3 1_555 1_555
C8 C11 1_555 1_555
C9 C1 1_555 1_555
H4 C9 1_555 1_555
C10 O8 1_555 1_555
C11 O2 1_555 1_555
C12 C8 1_555 1_555
C13 O4 1_555 1_555
C14 H5 1_555 1_555
C15 C14 1_555 1_555
H6 C15 1_555 1_555
C16 C8 1_555 1_555
H7 C16 1_555 1_555
C17 C12 1_555 1_555
H8 C17 1_555 1_555
C18 C13 1_555 1_555
H9 C18 1_555 1_555
H10 C18 1_555 1_555
H11 C18 1_555 1_555
Pb1A O1A_2 1_555 1_555
Pb1A_2 O7 1_555 1_555
Pb1_2 O7A 1_555 1_555
Pb1A_3 O1A 1_555 1_555
Pb2_2 O5 1_555 1_555
Pb2_3 O5A 1_555 1_555
Pb3A O5 1_555 1_555
Pb3A_2 O4 1_555 1_555
Pb3_2 O6 1_555 1_555
Pb3A_3 O5_2 1_555 1_555
Pb3_3 O4A_2 1_555 1_555
O1A C13A 1_555 1_555
O2A Pb2 1_555 1_555
O3A Pb2 1_555 1_555
O4A Pb3 1_555 1_555
O4A_2 Pb1A 1_555 1_555
O4_2 Pb3A 1_555 1_555
O5A Pb3 1_555 1_555
O5_2 Pb2 1_555 1_555
O5A_2 Pb2 1_555 1_555
O6A Pb3A_3 1_555 1_555
O6_2 Pb3 1_555 1_555
O6A_2 Pb3A 1_555 1_555
O7A Pb3_3 1_555 1_555
O7A_2 Pb1 1_555 1_555
O7A_3 Pb3 1_555 1_555
O7_2 Pb1A 1_555 1_555
O7_3 Pb3A 1_555 1_555
O8A Pb1A 1_555 1_555
O8A_2 Pb3 1_555 1_555
O8_2 Pb3A 1_555 1_555
O9A Pb1A 1_555 1_555
O9_2 Pb3 1_555 1_555
O9A_2 Pb3A 1_555 1_555
O10A Pb2 1_555 1_555
O10_2 Pb3 1_555 1_555
O10A_2 Pb2_2 1_555 1_555
C1A H1A 1_555 1_555
C2A H2A 1_555 1_555
C3A C1A 1_555 1_555
H3A C3A 1_555 1_555
C4A C5A 1_555 1_555
C5A C2A 1_555 1_555
C6A O5A 1_555 1_555
C7A O3A 1_555 1_555
C8A C11A 1_555 1_555
C9A C1A 1_555 1_555
H4A C9A 1_555 1_555
C10A O7A 1_555 1_555
C11A O2A 1_555 1_555
C12A C6A 1_555 1_555
C13A O4A 1_555 1_555
C14A H5A 1_555 1_555
C15A C14A 1_555 1_555
H6A C15A 1_555 1_555
C16A C8A 1_555 1_555
H7A C16A 1_555 1_555
C17A C12A 1_555 1_555
H8A C17A 1_555 1_555
C18A C13A 1_555 1_555
H9A C18A 1_555 1_555
H10A C18A 1_555 1_555
H11A C18A 1_555 1_555
O7 Pb3A_2 1_555 1_555
O8 Pb3A_2 1_555 1_555
O9 C7 1_555 1_555
O9 Pb3_2 1_555 1_555
O10 C11 1_555 1_555
O10 Pb3_2 1_555 1_555
C2 C3 1_555 1_555
C4 C9 1_555 1_555
C4 C10 1_555 1_555
C5 C7 1_555 1_555
C14 C16 1_555 1_555
C15 C17 1_555 1_555
Pb1A O2A 1_555 1_555
Pb1A_3 O4A 1_555 1_555
Pb1A_3 O8A_2 1_555 1_555
Pb2_3 O10_2 1_555 1_555
Pb3A O3A 1_555 1_555
Pb3A O10A_2 1_555 1_555
Pb3_2 O5A_2 1_555 1_555
Pb3_2 O7A_2 1_555 1_555
Pb3A_3 O7_2 1_555 1_555
Pb3A_3 O9A 1_555 1_555
Pb3A_3 O10A 1_555 1_555
Pb3_3 O8A 1_555 1_555
O6A C6A 1_555 1_555
O8A C10A 1_555 1_555
O9A C7A 1_555 1_555
O10A C11A 1_555 1_555
C2A C3A 1_555 1_555
C4A C9A 1_555 1_555
C4A C10A 1_555 1_555
C5A C7A 1_555 1_555
C8A C12A 1_555 1_555
C14A C16A 1_555 1_555
C15A C17A 1_555 1_555

#END
