
#######################################################################
#
#                 Cambridge Crystallographic Data Centre
#                                CCDC 
#
#######################################################################
#
# If this CIF has been generated from an entry in the Cambridge 
# Structural Database, then it will include bibliographic, chemical, 
# crystal, experimental, refinement or atomic coordinate data resulting 
# from the CCDC's data processing and validation procedures.
#
#######################################################################

data_WIFVUC
_symmetry_cell_setting           triclinic
_symmetry_space_group_name_H-M   'P -1'
_symmetry_Int_Tables_number      2
_space_group_name_Hall           '-P 1'
loop_
_symmetry_equiv_pos_site_id
_symmetry_equiv_pos_as_xyz
1 x,y,z
2 -x,-y,-z
_cell_length_a                   7.157(2)
_cell_length_b                   10.331(3)
_cell_length_c                   14.009(7)
_cell_angle_alpha                109.94(3)
_cell_angle_beta                 92.23(3)
_cell_angle_gamma                105.05(3)
_cell_volume                     931
loop_
_atom_site_label
_atom_site_type_symbol
_atom_site_fract_x
_atom_site_fract_y
_atom_site_fract_z
Pb1 Pb 1.0594(1) 0.1910(1) -0.0463(1)
C1 C 1.1794(10) 0.2150(8) 0.2658(4)
C2 C 0.9893(10) 0.2261(8) 0.2677(4)
C3 C 0.9252(10) 0.2857(85) 0.3611(4)
C4 C 1.0512(10) 0.3341(8) 0.4527(4)
C5 C 1.2412(10) 0.3230(8) 0.4508(4)
C6 C 1.3053(10) 0.2635(8) 0.3574(4)
C7 C 1.2525(16) 0.1529(12) 0.1687(8)
C8 C 0.8540(17) 0.1775(13) 0.1711(9)
O1 O 1.3151(12) 0.2265(9) 0.1152(6)
O2 O 1.2677(12) 0.0286(9) 0.1480(6)
O3 O 0.8922(11) 0.0933(9) 0.0897(6)
O4 O 0.7061(11) 0.2245(9) 0.1735(6)
Pb2 Pb 1.5000 0.0000 0.0000
C9 C 1.4128(11) -0.2495(8) 0.2151(4)
C10 C 1.2910(11) -0.3842(8) 0.2120(4)
C11 C 1.2687(11) -0.4079(8) 0.3035(4)
C12 C 1.3677(11) -0.3050(8) 0.3939(4)
C13 C 1.4867(11) -0.1742(8) 0.3980(4)
C14 C 1.5101(11) -0.1477(8) 0.3077(4)
C15 C 1.4334(18) -0.2147(12) 0.1201(9)
C16 C 1.2035(18) -0.5065(12) 0.1115(9)
O5 O 1.5974(13) -0.1426(10) 0.1123(7)
O6 O 1.2842(13) -0.2546(9) 0.0541(6)
O7 O 1.3077(13) -0.5340(9) 0.0431(7)
O8 O 1.0266(11) -0.5789(9) 0.1032(6)
Pb3 Pb 0.6795(1) 0.4362(1) 0.1197(1)
C17 C 1.1152(18) 0.2820(14) -0.2739(9)
C18 C 1.0082(22) 0.1310(16) -0.3466(14)
O9 O 1.1209(14) 0.3056(10) -0.1777(7)
O10 O 1.1898(15) 0.3833(9) -0.3031(7)
H1 H 0.7944(10) 0.2933(8) 0.3624(4)
H2 H 1.0070(10) 0.3751(8) 0.5170(4)
H3 H 1.3279(10) 0.3564(8) 0.5138(4)
H4 H 1.4361(10) 0.2558(8) 0.3561(4)
H5 H 1.1833(11) -0.4969(8) 0.3029(4)
H6 H 1.3543(11) -0.3240(8) 0.4562(4)
H7 H 1.5528(11) -0.1021(8) 0.4626(4)
H8 H 1.5950(11) -0.0576(8) 0.3100(4)
C1A C 0.8206(10) -0.2150(8) -0.2658(4)
C2A C 1.0107(10) -0.2261(8) -0.2677(4)
C3A C 1.0748(10) -0.2857(85) -0.3611(4)
C4A C 0.9488(10) -0.3341(8) -0.4527(4)
C5A C 0.7588(10) -0.3230(8) -0.4508(4)
C6A C 0.6947(10) -0.2635(8) -0.3574(4)
C7A C 0.7475(16) -0.1529(12) -0.1687(8)
C8A C 1.1460(17) -0.1775(13) -0.1711(9)
O1A O 0.6849(12) -0.2265(9) -0.1152(6)
O2A O 0.7323(12) -0.0286(9) -0.1480(6)
O3A O 1.1078(11) -0.0933(9) -0.0897(6)
O4A O 1.2939(11) -0.2245(9) -0.1735(6)
H1A H 1.2056(10) -0.2933(8) -0.3624(4)
H2A H 0.9930(10) -0.3751(8) -0.5170(4)
H3A H 0.6721(10) -0.3564(8) -0.5138(4)
H4A H 0.5639(10) -0.2558(8) -0.3561(4)
C9A C 1.5872(11) 0.2495(8) -0.2151(4)
C10A C 1.7090(11) 0.3842(8) -0.2120(4)
C11A C 1.7313(11) 0.4079(8) -0.3035(4)
C12A C 1.6323(11) 0.3050(8) -0.3939(4)
C13A C 1.5133(11) 0.1742(8) -0.3980(4)
C14A C 1.4899(11) 0.1477(8) -0.3077(4)
C15A C 1.5666(18) 0.2147(12) -0.1201(9)
C16A C 1.7965(18) 0.5065(12) -0.1115(9)
O5A O 1.4026(13) 0.1426(10) -0.1123(7)
O6A O 1.7158(13) 0.2546(9) -0.0541(6)
O7A O 1.6923(13) 0.5340(9) -0.0431(7)
O8A O 1.9734(11) 0.5789(9) -0.1032(6)
H5A H 1.8167(11) 0.4969(8) -0.3029(4)
H6A H 1.6457(11) 0.3240(8) -0.4562(4)
H7A H 1.4472(11) 0.1021(8) -0.4626(4)
H8A H 1.4050(11) 0.0576(8) -0.3100(4)
Pb1A Pb 0.9406(1) -0.1910(1) 0.0463(1)
Pb3A Pb 1.3205(1) -0.4362(1) -0.1197(1)
C17A C 0.8848(18) 0.7180(14) 0.2739(9)
C18A C 0.9918(22) 0.8690(16) 0.3466(14)
O9A O 0.8791(14) 0.6944(10) 0.1777(7)
O10A O 0.8102(15) 0.6167(9) 0.3031(7)
O6A_2 O 0.7158(13) 0.2546(9) -0.0541(6)
O7_2 O 1.3077(13) 0.4660(9) 0.0431(7)
O8_2 O 1.0266(11) 0.4211(9) 0.1032(6)
Pb2A Pb 0.5000 0.0000 0.0000
O2A_2 O 1.7323(12) -0.0286(9) -0.1480(6)
O3_2 O 1.8922(11) 0.0933(9) 0.0897(6)
O4_2 O 1.7061(11) 0.2245(9) 0.1735(6)
Pb1A_2 Pb 1.9406(1) -0.1910(1) 0.0463(1)
Pb1_2 Pb 1.0594(1) -0.8090(1) -0.0463(1)
Pb3_2 Pb 0.6795(1) -0.5638(1) 0.1197(1)
O7A_2 O 0.6923(13) 0.5340(9) -0.0431(7)
Pb3A_2 Pb 1.3205(1) 0.5638(1) -0.1197(1)
Pb1_3 Pb 2.0594(1) 0.1910(1) -0.0463(1)
Pb3_3 Pb 1.6795(1) 0.4362(1) 0.1197(1)
Pb1A_3 Pb 1.9406(1) 0.8090(1) 0.0463(1)
Pb3A_3 Pb 2.3205(1) 0.5638(1) -0.1197(1)
O5_2 O 0.5974(13) -0.1426(10) 0.1123(7)
O9A_2 O 0.8791(14) -0.3056(10) 0.1777(7)
O7A_3 O 0.6923(13) -0.4660(9) -0.0431(7)
O8A_2 O 0.9734(11) -0.4211(9) -0.1032(6)
O9_2 O 1.1209(14) -0.6944(10) -0.1777(7)
O10_2 O 1.1898(15) -0.6167(9) -0.3031(7)
Pb1A_4 Pb 0.9406(1) 0.8090(1) 0.0463(1)
loop_
_geom_bond_atom_site_label_1
_geom_bond_atom_site_label_2
_geom_bond_site_symmetry_1
_geom_bond_site_symmetry_2
Pb1 O1 1_555 1_555
C1 C2 1_555 1_555
C2 C3 1_555 1_555
C3 C4 1_555 1_555
C4 C5 1_555 1_555
C5 C6 1_555 1_555
C6 C1 1_555 1_555
C7 C1 1_555 1_555
C8 C2 1_555 1_555
O1 C7 1_555 1_555
O2 C7 1_555 1_555
O3 Pb1 1_555 1_555
O4 C8 1_555 1_555
Pb2 O2 1_555 1_555
C9 C10 1_555 1_555
C10 C11 1_555 1_555
C11 C12 1_555 1_555
C12 C13 1_555 1_555
C13 C14 1_555 1_555
C14 C9 1_555 1_555
C15 C9 1_555 1_555
C16 C10 1_555 1_555
O5 Pb2 1_555 1_555
O6 C15 1_555 1_555
O7 C16 1_555 1_555
O8 C16 1_555 1_555
Pb3 O4 1_555 1_555
C17 C18 1_555 1_555
O9 Pb1 1_555 1_555
O10 C17 1_555 1_555
H1 C3 1_555 1_555
H2 C4 1_555 1_555
H3 C5 1_555 1_555
H4 C6 1_555 1_555
H5 C11 1_555 1_555
H6 C12 1_555 1_555
H7 C13 1_555 1_555
H8 C14 1_555 1_555
C1A C2A 1_555 1_555
C2A C3A 1_555 1_555
C3A C4A 1_555 1_555
C4A C5A 1_555 1_555
C5A C6A 1_555 1_555
C6A C1A 1_555 1_555
C7A C1A 1_555 1_555
C8A C2A 1_555 1_555
O1A C7A 1_555 1_555
O2A Pb1 1_555 1_555
O3A Pb2 1_555 1_555
O4A Pb2 1_555 1_555
H1A C3A 1_555 1_555
H2A C4A 1_555 1_555
H3A C5A 1_555 1_555
H4A C6A 1_555 1_555
C9A C10A 1_555 1_555
C10A C11A 1_555 1_555
C11A C12A 1_555 1_555
C12A C13A 1_555 1_555
C13A C14A 1_555 1_555
C14A C9A 1_555 1_555
C15A C9A 1_555 1_555
C16A C10A 1_555 1_555
O5A Pb1 1_555 1_555
O6A C15A 1_555 1_555
O7A C16A 1_555 1_555
O8A C16A 1_555 1_555
H5A C11A 1_555 1_555
H6A C12A 1_555 1_555
H7A C13A 1_555 1_555
H8A C14A 1_555 1_555
Pb1A O2 1_555 1_555
Pb3A O6 1_555 1_555
C17A C18A 1_555 1_555
O9A Pb3 1_555 1_555
O10A Pb3 1_555 1_555
O6A_2 Pb1 1_555 1_555
O7_2 Pb1 1_555 1_555
O8_2 Pb1 1_555 1_555
Pb2A O3 1_555 1_555
O2A_2 Pb2 1_555 1_555
O3_2 Pb2 1_555 1_555
O4_2 Pb2 1_555 1_555
Pb1A_2 O5 1_555 1_555
Pb1_2 O7 1_555 1_555
Pb3_2 O8 1_555 1_555
O7A_2 Pb3 1_555 1_555
Pb3A_2 O9 1_555 1_555
Pb1_3 O6A 1_555 1_555
Pb3_3 O6A 1_555 1_555
Pb1A_3 O7A 1_555 1_555
Pb3A_3 O8A 1_555 1_555
O5_2 Pb1A 1_555 1_555
O9A_2 Pb1A 1_555 1_555
O7A_3 Pb1A 1_555 1_555
O8A_2 Pb1A 1_555 1_555
O9_2 Pb3A 1_555 1_555
O10_2 Pb3A 1_555 1_555
Pb1A_4 O9A 1_555 1_555
C8 O3 1_555 1_555
O4 Pb2A 1_555 1_555
Pb2 O5A 1_555 1_555
C15 O5 1_555 1_555
O6 Pb1A 1_555 1_555
O7 Pb3A 1_555 1_555
O8 Pb1_2 1_555 1_555
Pb3 O6A_2 1_555 1_555
Pb3 O8_2 1_555 1_555
C17 O9 1_555 1_555
O10 Pb3A_2 1_555 1_555
C7A O2A 1_555 1_555
C8A O3A 1_555 1_555
C8A O4A 1_555 1_555
O1A Pb1A 1_555 1_555
O2A Pb2A 1_555 1_555
O3A Pb1A 1_555 1_555
O4A Pb3A 1_555 1_555
C15A O5A 1_555 1_555
O7A Pb3_3 1_555 1_555
O8A Pb1A_3 1_555 1_555
Pb3A O8A_2 1_555 1_555
C17A O9A 1_555 1_555
C17A O10A 1_555 1_555
O7_2 Pb3A_2 1_555 1_555
Pb2A O5_2 1_555 1_555
O2A_2 Pb1_3 1_555 1_555
O3_2 Pb1_3 1_555 1_555
O4_2 Pb3_3 1_555 1_555
Pb1_2 O9_2 1_555 1_555
Pb3_2 O7A_3 1_555 1_555
Pb3_2 O9A_2 1_555 1_555
O7A_2 Pb1A_4 1_555 1_555

#END
