
#######################################################################
#
#                 Cambridge Crystallographic Data Centre
#                                CCDC 
#
#######################################################################
#
# If this CIF has been generated from an entry in the Cambridge 
# Structural Database, then it will include bibliographic, chemical, 
# crystal, experimental, refinement or atomic coordinate data resulting 
# from the CCDC's data processing and validation procedures.
#
#######################################################################

data_WIGDOF
_symmetry_cell_setting           triclinic
_symmetry_space_group_name_H-M   'P -1'
_symmetry_Int_Tables_number      2
_space_group_name_Hall           '-P 1'
loop_
_symmetry_equiv_pos_site_id
_symmetry_equiv_pos_as_xyz
1 x,y,z
2 -x,-y,-z
_cell_length_a                   8.001(5)
_cell_length_b                   8.078(5)
_cell_length_c                   10.705(6)
_cell_angle_alpha                69.09(3)
_cell_angle_beta                 69.34(3)
_cell_angle_gamma                82.11(3)
_cell_volume                     604.705
loop_
_atom_site_label
_atom_site_type_symbol
_atom_site_fract_x
_atom_site_fract_y
_atom_site_fract_z
Cu1 Cu 0.0000 0.5000 0.5000
Cu2 Cu 0.3318(1) 0.3752(1) 0.6036(1)
N1 N 0.2356(4) 0.3937(5) 0.4318(4)
N2 N 0.2961(5) 0.3136(5) 0.3512(4)
N3 N 0.3636(6) 0.2383(7) 0.2744(5)
N4 N 0.0794(4) 0.4568(5) 0.6637(3)
N5 N 0.0123(4) 0.5109(5) 0.7625(4)
N6 N -0.0504(7) 0.5589(8) 0.8568(5)
N7 N 0.5815(4) 0.3362(5) 0.5037(4)
N8 N 0.6866(4) 0.2465(5) 0.5598(4)
N9 N 0.7940(5) 0.1721(6) 0.6047(5)
N10 N 0.3033(4) 0.1735(4) 0.7865(3)
C1 C 0.2476(5) 0.0144(6) 0.8049(5)
C2 C 0.2077(6) -0.1184(6) 0.9348(5)
C3 C 0.2211(6) -0.0866(7) 1.0488(5)
C4 C 0.2811(6) 0.0767(6) 1.0300(5)
C5 C 0.3217(5) 0.2045(6) 0.8976(4)
C6 C 0.2307(8) -0.0148(7) 0.6795(6)
C7 C 0.3945(6) 0.3820(6) 0.8682(5)
H1 H 0.1663(6) -0.2466(6) 0.9470(5)
H2 H 0.1851(6) -0.1877(7) 1.1520(5)
H3 H 0.2957(6) 0.1030(6) 1.1177(5)
H4 H 0.1847(56) -0.1463(26) 0.7066(42)
H5 H 0.3551(29) 0.0071(55) 0.5931(28)
H6 H 0.1358(48) 0.0801(47) 0.6404(45)
H7 H 0.4120(58) 0.3983(52) 0.9582(28)
H8 H 0.5207(34) 0.3979(55) 0.7834(35)
H9 H 0.3075(46) 0.4882(37) 0.8309(48)
N1A N -0.2356(4) 0.6063(5) 0.5682(4)
N4A N -0.0794(4) 0.5432(5) 0.3363(3)
N7A N 0.4185(4) 0.6638(5) 0.4963(4)
Cu2A Cu 0.6682(1) 0.6248(1) 0.3964(1)
Cu2A_2 Cu -0.3318(1) 0.6248(1) 0.3964(1)
N2A N -0.2961(5) 0.6864(5) 0.6488(4)
N5A N -0.0123(4) 0.4891(5) 0.2375(4)
N8A N 0.3134(4) 0.7535(5) 0.4402(4)
N1A_2 N 0.7644(4) 0.6063(5) 0.5682(4)
N4A_2 N 0.9206(4) 0.5432(5) 0.3363(3)
N10A N 0.6967(4) 0.8265(4) 0.2135(3)
N3A N -0.3636(6) 0.7617(7) 0.7256(5)
N6A N 0.0504(7) 0.4411(8) 0.1432(5)
N9A N 0.2060(5) 0.8279(6) 0.3953(5)
C1A C 0.7524(5) 0.9856(6) 0.1951(5)
C5A C 0.6783(5) 0.7955(6) 0.1024(4)
C2A C 0.7923(6) 1.1184(6) 0.0652(5)
C6A C 0.7693(8) 1.0148(7) 0.3205(6)
C4A C 0.7189(6) 0.9233(6) -0.0300(5)
C7A C 0.6055(6) 0.6180(6) 0.1318(5)
C3A C 0.7789(6) 1.0866(7) -0.0488(5)
H1A H 0.8337(6) 1.2466(6) 0.0530(5)
H4A H 0.8153(56) 1.1463(26) 0.2934(42)
H5A H 0.6449(29) 0.9929(55) 0.4069(28)
H6A H 0.8642(48) 0.9199(47) 0.3596(45)
H3A H 0.7043(6) 0.8970(6) -0.1177(5)
H7A H 0.5880(58) 0.6017(52) 0.0418(28)
H8A H 0.4793(34) 0.6021(55) 0.2166(35)
H9A H 0.6925(46) 0.5118(37) 0.1691(48)
H2A H 0.8149(6) 1.1877(7) -0.1520(5)
loop_
_geom_bond_atom_site_label_1
_geom_bond_atom_site_label_2
_geom_bond_site_symmetry_1
_geom_bond_site_symmetry_2
Cu1 N1 1_555 1_555
Cu2 N1 1_555 1_555
N1 N2 1_555 1_555
N2 N3 1_555 1_555
N4 Cu1 1_555 1_555
N5 N4 1_555 1_555
N6 N5 1_555 1_555
N7 Cu2 1_555 1_555
N8 N7 1_555 1_555
N9 N8 1_555 1_555
N10 Cu2 1_555 1_555
C1 N10 1_555 1_555
C2 C1 1_555 1_555
C3 C2 1_555 1_555
C4 C3 1_555 1_555
C5 N10 1_555 1_555
C6 C1 1_555 1_555
C7 C5 1_555 1_555
H1 C2 1_555 1_555
H2 C3 1_555 1_555
H3 C4 1_555 1_555
H4 C6 1_555 1_555
H5 C6 1_555 1_555
H6 C6 1_555 1_555
H7 C7 1_555 1_555
H8 C7 1_555 1_555
H9 C7 1_555 1_555
N1A Cu1 1_555 1_555
N4A Cu1 1_555 1_555
N7A Cu2 1_555 1_555
Cu2A N7 1_555 1_555
Cu2A_2 N1A 1_555 1_555
N2A N1A 1_555 1_555
N5A N4A 1_555 1_555
N8A N7A 1_555 1_555
N1A_2 Cu2A 1_555 1_555
N4A_2 Cu2A 1_555 1_555
N10A Cu2A 1_555 1_555
N3A N2A 1_555 1_555
N6A N5A 1_555 1_555
N9A N8A 1_555 1_555
C1A N10A 1_555 1_555
C5A N10A 1_555 1_555
C2A C1A 1_555 1_555
C6A C1A 1_555 1_555
C4A C5A 1_555 1_555
C7A C5A 1_555 1_555
C3A C2A 1_555 1_555
H1A C2A 1_555 1_555
H4A C6A 1_555 1_555
H5A C6A 1_555 1_555
H6A C6A 1_555 1_555
H3A C4A 1_555 1_555
H7A C7A 1_555 1_555
H8A C7A 1_555 1_555
H9A C7A 1_555 1_555
H2A C3A 1_555 1_555
Cu2 N4 1_555 1_555
C4 C5 1_555 1_555
N4A Cu2A_2 1_555 1_555
N7A Cu2A 1_555 1_555
C4A C3A 1_555 1_555

#END
