
#######################################################################
#
#                 Cambridge Crystallographic Data Centre
#                                CCDC 
#
#######################################################################
#
# If this CIF has been generated from an entry in the Cambridge 
# Structural Database, then it will include bibliographic, chemical, 
# crystal, experimental, refinement or atomic coordinate data resulting 
# from the CCDC's data processing and validation procedures.
#
#######################################################################

data_WIGDUL
_symmetry_cell_setting           triclinic
_symmetry_space_group_name_H-M   'P -1'
_symmetry_Int_Tables_number      2
_space_group_name_Hall           '-P 1'
loop_
_symmetry_equiv_pos_site_id
_symmetry_equiv_pos_as_xyz
1 x,y,z
2 -x,-y,-z
_cell_length_a                   5.649(2)
_cell_length_b                   9.727(3)
_cell_length_c                   10.426(4)
_cell_angle_alpha                111.98(3)
_cell_angle_beta                 100.45(3)
_cell_angle_gamma                91.64(3)
_cell_volume                     519.5
loop_
_atom_site_label
_atom_site_type_symbol
_atom_site_fract_x
_atom_site_fract_y
_atom_site_fract_z
Cu1 Cu 0.2033(1) 0.0094 0.4188
N1 N 0.4484(5) -0.1232(3) 0.3531(3)
N2 N 0.0286(4) -0.1337(3) 0.4757(3)
N3 N 0.2561(4) 0.1478(3) 0.3251(3)
N4 N 0.5515(5) -0.1243(3) 0.2631(3)
N5 N 0.0015(5) -0.2673(3) 0.4204(3)
C1 C 0.0871(6) 0.1527(4) 0.2198(4)
C2 C 0.4539(6) 0.2436(4) 0.3692(5)
N6 N 0.6605(7) -0.1293(4) 0.1800(4)
N7 N -0.0199(7) -0.3924(4) 0.3721(6)
C3 C 0.1071(6) 0.2504(4) 0.1541(4)
H1 H -0.075 0.076 0.184
C4 C 0.4868(7) 0.3443(4) 0.3092(5)
H2 H 0.593 0.242 0.454
C5 C 0.3149(6) 0.3504(3) 0.2003(4)
C6 C -0.0952(8) 0.2495(6) 0.0382(5)
H3 H 0.650 0.420 0.348
C7 C 0.3494(9) 0.4625(5) 0.1352(5)
H4 H -0.031(7) 0.228(5) -0.059(2)
H5 H -0.171(8) 0.355(3) 0.064(5)
H6 H -0.234(6) 0.161(4) 0.019(5)
H7 H 0.196(4) 0.527(3) 0.137(4)
H8 H 0.360(6) 0.406(3) 0.026(2)
H9 H 0.511(4) 0.539(4) 0.188(4)
N1A N 0.5516(5) 0.1232(3) 0.6469(3)
N2A N -0.0286(4) 0.1337(3) 0.5243(3)
Cu1A Cu 0.7967(1) -0.0094 0.5812
Cu1A_2 Cu -0.2033(1) -0.0094 0.5812
N4A N 0.4485(5) 0.1243(3) 0.7369(3)
N5A N -0.0015(5) 0.2673(3) 0.5796(3)
N2A_2 N 0.9714(4) 0.1337(3) 0.5243(3)
N3A N 0.7439(4) -0.1478(3) 0.6749(3)
N2_2 N 1.0286(4) -0.1337(3) 0.4757(3)
N6A N 0.3395(7) 0.1293(4) 0.8200(4)
N7A N 0.0199(7) 0.3924(4) 0.6279(6)
C2A C 0.5461(6) -0.2436(4) 0.6308(5)
C1A C 0.9129(6) -0.1527(4) 0.7802(4)
H2A H 0.407 -0.242 0.546
C4A C 0.5132(7) -0.3443(4) 0.6908(5)
C3A C 0.8929(6) -0.2504(4) 0.8459(4)
H1A H 1.075 -0.076 0.816
C5A C 0.6851(6) -0.3504(3) 0.7997(4)
H3A H 0.350 -0.420 0.652
C6A C 1.0952(8) -0.2495(6) 0.9618(5)
C7A C 0.6506(9) -0.4625(5) 0.8648(5)
H4A H 1.031(7) -0.228(5) 1.059(2)
H6A H 1.234(6) -0.161(4) 0.981(5)
H5A H 1.171(8) -0.355(3) 0.936(5)
H7A H 0.804(4) -0.527(3) 0.863(4)
H8A H 0.640(6) -0.406(3) 0.974(2)
H9A H 0.489(4) -0.539(4) 0.812(4)
loop_
_geom_bond_atom_site_label_1
_geom_bond_atom_site_label_2
_geom_bond_site_symmetry_1
_geom_bond_site_symmetry_2
Cu1 N1 1_555 1_555
N1 N4 1_555 1_555
N2 Cu1 1_555 1_555
N3 Cu1 1_555 1_555
N4 N6 1_555 1_555
N5 N2 1_555 1_555
C1 N3 1_555 1_555
C2 N3 1_555 1_555
N7 N5 1_555 1_555
C3 C1 1_555 1_555
H1 C1 1_555 1_555
C4 C2 1_555 1_555
H2 C2 1_555 1_555
C5 C3 1_555 1_555
C6 C3 1_555 1_555
H3 C4 1_555 1_555
C7 C5 1_555 1_555
H4 C6 1_555 1_555
H5 C6 1_555 1_555
H6 C6 1_555 1_555
H7 C7 1_555 1_555
H8 C7 1_555 1_555
H9 C7 1_555 1_555
N1A Cu1 1_555 1_555
N2A Cu1 1_555 1_555
Cu1A N1 1_555 1_555
Cu1A_2 N2 1_555 1_555
N4A N1A 1_555 1_555
N5A N2A 1_555 1_555
N2A_2 Cu1A 1_555 1_555
N3A Cu1A 1_555 1_555
N2_2 Cu1A 1_555 1_555
N6A N4A 1_555 1_555
N7A N5A 1_555 1_555
C2A N3A 1_555 1_555
C1A N3A 1_555 1_555
H2A C2A 1_555 1_555
C4A C2A 1_555 1_555
C3A C1A 1_555 1_555
H1A C1A 1_555 1_555
C5A C4A 1_555 1_555
H3A C4A 1_555 1_555
C6A C3A 1_555 1_555
C7A C5A 1_555 1_555
H4A C6A 1_555 1_555
H6A C6A 1_555 1_555
H5A C6A 1_555 1_555
H7A C7A 1_555 1_555
H8A C7A 1_555 1_555
H9A C7A 1_555 1_555
C4 C5 1_555 1_555
N1A Cu1A 1_555 1_555
N2A Cu1A_2 1_555 1_555
C3A C5A 1_555 1_555

#END
