
#######################################################################
#
#                 Cambridge Crystallographic Data Centre
#                                CCDC 
#
#######################################################################
#
# If this CIF has been generated from an entry in the Cambridge 
# Structural Database, then it will include bibliographic, chemical, 
# crystal, experimental, refinement or atomic coordinate data resulting 
# from the CCDC's data processing and validation procedures.
#
#######################################################################

data_WIHKUV
_symmetry_cell_setting           monoclinic
_symmetry_space_group_name_H-M   'P 21/c'
_symmetry_Int_Tables_number      14
_space_group_name_Hall           '-P 2ybc'
loop_
_symmetry_equiv_pos_site_id
_symmetry_equiv_pos_as_xyz
1 x,y,z
2 -x,1/2+y,1/2-z
3 -x,-y,-z
4 x,1/2-y,1/2+z
_cell_length_a                   12.525(3)
_cell_length_b                   13.950(3)
_cell_length_c                   14.626(3)
_cell_angle_alpha                90
_cell_angle_beta                 97.72(3)
_cell_angle_gamma                90
_cell_volume                     2532.35
loop_
_atom_site_label
_atom_site_type_symbol
_atom_site_fract_x
_atom_site_fract_y
_atom_site_fract_z
Cu1 Cu 0.70815(2) 1.19154(2) 0.36895(2)
N1 N 0.40269(16) 0.95445(14) 0.35587(13)
C1 C 0.5696(2) 0.89759(19) 0.25992(17)
H1 H 0.6257 0.8784 0.2285
C2 C 0.4814(2) 0.83892(18) 0.26281(17)
H2 H 0.4773 0.7794 0.2339
C3 C 0.3990(2) 0.87086(17) 0.30999(16)
C4 C 0.48924(19) 1.00992(17) 0.35293(16)
C5 C 0.5735(2) 0.98545(18) 0.30444(17)
H3 H 0.6311 1.0270 0.3020
S1 S 0.21354(5) 0.84000(5) 0.39190(4)
N2 N 0.27744(16) 0.73513(14) 0.26615(14)
N3 N 0.17898(16) 0.59744(15) 0.15433(14)
C6 C 0.3024(2) 0.81261(17) 0.31486(16)
C7 C 0.18499(19) 0.69316(17) 0.28980(17)
C8 C 0.1400(2) 0.74016(19) 0.35688(17)
H4 H 0.0781 0.7207 0.3803
C9 C 0.14469(19) 0.60735(18) 0.23785(17)
C10 C 0.0784(2) 0.5404(2) 0.27187(18)
H5 H 0.0574 0.5484 0.3300
C11 C 0.0438(2) 0.4617(2) 0.21859(19)
H6 H -0.0001 0.4157 0.2405
C12 C 0.0757(2) 0.4527(2) 0.13181(19)
H7 H 0.0520 0.4015 0.0937
C13 C 0.1432(2) 0.52119(18) 0.10326(18)
H8 H 0.1652 0.5142 0.0454
S2 S 0.37811(5) 1.12599(5) 0.46088(4)
N4 N 0.56301(16) 1.16578(14) 0.41446(13)
N5 N 0.69867(17) 1.31538(14) 0.43946(14)
C14 C 0.48752(19) 1.09985(18) 0.40534(16)
C15 C 0.5353(2) 1.24125(18) 0.46810(16)
C16 C 0.4376(2) 1.23154(18) 0.49859(17)
H9 H 0.4076 1.2762 0.5349
C17 C 0.6105(2) 1.32303(18) 0.48297(17)
C18 C 0.5930(2) 1.40191(19) 0.53706(18)
H10 H 0.5330 1.4047 0.5682
C19 C 0.6670(2) 1.47623(19) 0.54353(19)
H11 H 0.6566 1.5303 0.5785
C20 C 0.7559(2) 1.46972(19) 0.49804(18)
H12 H 0.8059 1.5193 0.5013
C21 C 0.7696(2) 1.38795(19) 0.44740(18)
H13 H 0.8305 1.3831 0.4176
Cu1A Cu 0.29185(2) 0.69154(2) 0.13105(2)
N2A N 0.72256(16) 1.23513(14) 0.23385(14)
N3A N 0.82102(16) 1.09744(15) 0.34567(14)
P1 P 0.91781(5) 0.77051(5) 0.06197(5)
F1 F 1.02028(15) 0.72763(13) 0.02232(14)
F2 F 0.9637(5) 0.7561(5) 0.1692(5)
F3 F 0.8706(11) 0.6650(9) 0.0595(7)
F4 F 0.8738(5) 0.7876(5) -0.0432(4)
F5 F 0.9640(8) 0.8778(6) 0.0694(4)
F6 F 0.81523(16) 0.81302(15) 0.10063(17)
C22 C 0.1934(3) 0.1022(3) 0.2238(2)
H14 H 0.1468 0.0772 0.1718
H15 H 0.1637 0.1606 0.2442
H16 H 0.2001 0.0562 0.2730
C23 C 0.2998(3) 0.1214(2) 0.19694(19)
N6 N 0.3824(2) 0.13309(19) 0.17597(18)
F7? F 1.0012(6) 0.7796(6) 0.1511(5)
F8? F 0.8878(13) 0.6654(11) 0.0896(8)
F9? F 0.8345(5) 0.7575(6) -0.0299(5)
F10? F 0.9533(8) 0.8721(7) 0.0272(6)
loop_
_geom_bond_atom_site_label_1
_geom_bond_atom_site_label_2
_geom_bond_site_symmetry_1
_geom_bond_site_symmetry_2
Cu1 N4 1_555 1_555
N1 C3 1_555 1_555
C1 H1 1_555 1_555
C2 C1 1_555 1_555
H2 C2 1_555 1_555
C3 C2 1_555 1_555
C4 N1 1_555 1_555
C5 C1 1_555 1_555
H3 C5 1_555 1_555
S1 C6 1_555 1_555
N2 C6 1_555 1_555
N3 C9 1_555 1_555
C6 C3 1_555 1_555
C7 N2 1_555 1_555
C8 S1 1_555 1_555
H4 C8 1_555 1_555
C9 C7 1_555 1_555
C10 C9 1_555 1_555
H5 C10 1_555 1_555
C11 C10 1_555 1_555
H6 C11 1_555 1_555
C12 C11 1_555 1_555
H7 C12 1_555 1_555
C13 N3 1_555 1_555
H8 C13 1_555 1_555
S2 C14 1_555 1_555
N4 C14 1_555 1_555
N5 Cu1 1_555 1_555
C14 C4 1_555 1_555
C15 N4 1_555 1_555
C16 S2 1_555 1_555
H9 C16 1_555 1_555
C17 N5 1_555 1_555
C18 C17 1_555 1_555
H10 C18 1_555 1_555
C19 C18 1_555 1_555
H11 C19 1_555 1_555
C20 C19 1_555 1_555
H12 C20 1_555 1_555
C21 N5 1_555 1_555
H13 C21 1_555 1_555
P1 F1 1_555 1_555
F2 P1 1_555 1_555
F3 P1 1_555 1_555
F4 P1 1_555 1_555
F5 P1 1_555 1_555
F6 P1 1_555 1_555
C22 H14 1_555 1_555
H15 C22 1_555 1_555
H16 C22 1_555 1_555
C23 C22 1_555 1_555
N6 C23 1_555 1_555
Cu1A N2 1_555 1_555
N2A Cu1 1_555 1_555
N3A Cu1 1_555 1_555
C4 C5 1_555 1_555
N3 Cu1A 1_555 1_555
C7 C8 1_555 1_555
C12 C13 1_555 1_555
C15 C16 1_555 1_555
C15 C17 1_555 1_555
C20 C21 1_555 1_555

#END
