
#######################################################################
#
#                 Cambridge Crystallographic Data Centre
#                                CCDC 
#
#######################################################################
#
# If this CIF has been generated from an entry in the Cambridge 
# Structural Database, then it will include bibliographic, chemical, 
# crystal, experimental, refinement or atomic coordinate data resulting 
# from the CCDC's data processing and validation procedures.
#
#######################################################################

data_WIHPEK
_symmetry_cell_setting           monoclinic
_symmetry_space_group_name_H-M   'P 21/c'
_symmetry_Int_Tables_number      14
_space_group_name_Hall           '-P 2ybc'
loop_
_symmetry_equiv_pos_site_id
_symmetry_equiv_pos_as_xyz
1 x,y,z
2 -x,1/2+y,1/2-z
3 -x,-y,-z
4 x,1/2-y,1/2+z
_cell_length_a                   8.3413(12)
_cell_length_b                   14.840(2)
_cell_length_c                   15.986(2)
_cell_angle_alpha                90
_cell_angle_beta                 99.151(2)
_cell_angle_gamma                90
_cell_volume                     1953.64
loop_
_atom_site_label
_atom_site_type_symbol
_atom_site_fract_x
_atom_site_fract_y
_atom_site_fract_z
Co1 Co 1.04898(4) 0.64199(2) 0.69156(2)
N1 N 0.9434(2) 0.53256(15) 0.61984(13)
N2 N 0.1446(2) 0.18408(14) 0.74773(13)
O1 O 1.2867(2) 0.58575(14) 0.68238(12)
O2 O 1.1775(2) 0.56868(14) 0.79666(12)
O3 O 1.8415(2) 0.26974(13) 0.80449(12)
O4 O 2.0240(2) 0.24080(13) 0.91424(12)
C1 C 1.2941(3) 0.55721(18) 0.75652(17)
C2 C 1.4453(3) 0.50908(18) 0.79739(15)
C3 C 1.5745(3) 0.5020(2) 0.75371(18)
H1 H 1.5647 0.5239 0.6986
C4 C 1.7173(3) 0.46306(19) 0.79066(18)
H2 H 1.8034 0.4596 0.7604
C5 C 1.7359(3) 0.42871(17) 0.87242(16)
C6 C 1.6062(3) 0.43404(19) 0.91532(17)
H3 H 1.6155 0.4108 0.9699
C7 C 1.4599(3) 0.47398(19) 0.87810(17)
H4 H 1.3727 0.4768 0.9078
C8 C 1.8947(3) 0.3854(2) 0.91014(19)
H5 H 1.8984 0.3799 0.9709
H6 H 1.9830 0.4246 0.9006
C9 C 1.9212(3) 0.29260(18) 0.87388(17)
C10 C 0.9825(4) 0.4469(2) 0.63838(19)
H7 H 1.0713 0.4354 0.6801
C11 C 0.8993(4) 0.3748(2) 0.5995(2)
H8 H 0.9317 0.3165 0.6154
C12 C 0.7679(3) 0.38836(19) 0.53688(17)
C13 C 0.7325(4) 0.4763(2) 0.51493(18)
H9 H 0.6481 0.4893 0.4712
C14 C 0.8210(3) 0.5458(2) 0.55706(17)
H10 H 0.7936 0.6046 0.5407
C15 C 0.6664(4) 0.3115(2) 0.4960(2)
H11 H 0.7327 0.2575 0.4997
H12 H 0.6327 0.3251 0.4364
C16 C 0.5166(4) 0.2929(2) 0.53616(18)
H13 H 0.4564 0.3487 0.5378
H14 H 0.4475 0.2509 0.5005
C17 C 0.5517(4) 0.2557(2) 0.62268(19)
H15 H 0.6198 0.2982 0.6582
H16 H 0.6136 0.2006 0.6209
C18 C 0.4028(3) 0.2349(2) 0.66443(17)
C19 C 0.4050(3) 0.2525(2) 0.74926(17)
H17 H 0.4933 0.2819 0.7805
C20 C 0.2763(3) 0.22628(19) 0.78750(17)
H18 H 0.2812 0.2388 0.8449
C21 C 0.1416(3) 0.1684(2) 0.66532(17)
H19 H 0.0516 0.1391 0.6355
C22 C 0.2648(4) 0.1934(2) 0.62216(18)
H20 H 0.2552 0.1822 0.5643
Co1A Co -0.04898(4) 0.14199(2) 0.80844(2)
Co1A_2 Co 1.95102(4) 0.14199(2) 0.80844(2)
N2A N 0.8554(2) 0.68408(14) 0.75227(13)
O3A O 1.1585(2) 0.76974(13) 0.69551(12)
O4A O 0.9760(2) 0.74080(13) 0.58576(12)
loop_
_geom_bond_atom_site_label_1
_geom_bond_atom_site_label_2
_geom_bond_site_symmetry_1
_geom_bond_site_symmetry_2
Co1 N1 1_555 1_555
N1 C10 1_555 1_555
N2 C20 1_555 1_555
O1 Co1 1_555 1_555
O2 Co1 1_555 1_555
O3 C9 1_555 1_555
O4 C9 1_555 1_555
C1 O1 1_555 1_555
C2 C1 1_555 1_555
C3 C2 1_555 1_555
H1 C3 1_555 1_555
C4 C3 1_555 1_555
H2 C4 1_555 1_555
C5 C4 1_555 1_555
C6 C5 1_555 1_555
H3 C6 1_555 1_555
C7 C2 1_555 1_555
H4 C7 1_555 1_555
C8 C5 1_555 1_555
H5 C8 1_555 1_555
H6 C8 1_555 1_555
C9 C8 1_555 1_555
C10 H7 1_555 1_555
C11 C10 1_555 1_555
H8 C11 1_555 1_555
C12 C11 1_555 1_555
C13 C12 1_555 1_555
H9 C13 1_555 1_555
C14 N1 1_555 1_555
H10 C14 1_555 1_555
C15 C12 1_555 1_555
H11 C15 1_555 1_555
H12 C15 1_555 1_555
C16 C15 1_555 1_555
H13 C16 1_555 1_555
H14 C16 1_555 1_555
C17 C16 1_555 1_555
H15 C17 1_555 1_555
H16 C17 1_555 1_555
C18 C17 1_555 1_555
C19 C18 1_555 1_555
H17 C19 1_555 1_555
C20 C19 1_555 1_555
H18 C20 1_555 1_555
C21 N2 1_555 1_555
H19 C21 1_555 1_555
C22 C18 1_555 1_555
H20 C22 1_555 1_555
Co1A N2 1_555 1_555
Co1A_2 O3 1_555 1_555
N2A Co1 1_555 1_555
O3A Co1 1_555 1_555
O4A Co1 1_555 1_555
O2 C1 1_555 1_555
O4 Co1A_2 1_555 1_555
C6 C7 1_555 1_555
C13 C14 1_555 1_555
C21 C22 1_555 1_555

#END
