
#######################################################################
#
#                 Cambridge Crystallographic Data Centre
#                                CCDC 
#
#######################################################################
#
# If this CIF has been generated from an entry in the Cambridge 
# Structural Database, then it will include bibliographic, chemical, 
# crystal, experimental, refinement or atomic coordinate data resulting 
# from the CCDC's data processing and validation procedures.
#
#######################################################################

data_WIHPIO
_symmetry_cell_setting           monoclinic
_symmetry_space_group_name_H-M   'P 21/n'
_symmetry_Int_Tables_number      14
_space_group_name_Hall           '-P 2yn'
loop_
_symmetry_equiv_pos_site_id
_symmetry_equiv_pos_as_xyz
1 x,y,z
2 1/2-x,1/2+y,1/2-z
3 -x,-y,-z
4 1/2+x,1/2-y,1/2+z
_cell_length_a                   11.325(3)
_cell_length_b                   30.344(8)
_cell_length_c                   12.026(4)
_cell_angle_alpha                90
_cell_angle_beta                 92.645(4)
_cell_angle_gamma                90
_cell_volume                     4128.28
loop_
_atom_site_label
_atom_site_type_symbol
_atom_site_fract_x
_atom_site_fract_y
_atom_site_fract_z
Co1 Co -0.00417(4) 0.866894(13) 0.52192(3)
Co2 Co -0.22383(4) 0.861691(14) 0.72350(3)
N1 N 0.0562(2) 0.83622(9) 0.3756(2)
N2 N 0.6219(2) 0.83326(8) -0.2111(2)
N3 N 0.1685(2) 0.88770(9) 0.5819(2)
N4 N 0.6006(5) 1.08036(16) 0.9780(4)
O1 O -0.1494(2) 0.96232(8) 0.5259(2)
O2 O -0.0240(2) 0.92438(7) 0.42847(17)
O3 O -0.1266(2) 0.80739(7) 0.73701(19)
O4 O 0.0212(2) 0.81014(7) 0.61865(18)
O5 O -0.08440(18) 0.90027(7) 0.65496(16)
O6 O -0.0073(2) 0.91190(10) -0.1424(2)
O7 O -0.1978(2) 0.89554(8) -0.13497(17)
O8 O 0.3253(2) 0.65141(8) 0.96495(19)
O9 O 0.18699(19) 0.63031(8) 1.07908(18)
C1 C -0.0946(3) 0.95565(10) 0.4410(2)
C2 C -0.1110(4) 0.98849(11) 0.3464(3)
H1 H -0.1864 1.0032 0.3528
H2 H -0.0495 1.0107 0.3543
C3 C -0.1073(3) 0.96839(10) 0.2320(2)
C4 C -0.0051(4) 0.96623(12) 0.1759(3)
H3 H 0.0643 0.9777 0.2086
C5 C -0.0031(3) 0.94731(12) 0.0714(3)
H4 H 0.0671 0.9467 0.0343
C6 C -0.1038(3) 0.92936(10) 0.0219(2)
C7 C -0.2064(3) 0.93064(11) 0.0792(3)
H5 H -0.2751 0.9181 0.0479
C8 C -0.2083(3) 0.95030(11) 0.1822(3)
H6 H -0.2788 0.9514 0.2188
C9 C -0.1003(3) 0.91086(11) -0.0935(3)
C10 C -0.0327(3) 0.79330(10) 0.6964(3)
C11 C 0.0160(3) 0.75157(10) 0.7474(3)
C12 C 0.1134(3) 0.73077(11) 0.7060(3)
H7 H 0.1520 0.7436 0.6476
C13 C 0.1540(3) 0.69141(12) 0.7495(3)
H8 H 0.2200 0.6782 0.7205
C14 C 0.0984(3) 0.67125(11) 0.8357(3)
C15 C 0.0032(3) 0.69239(12) 0.8794(3)
H9 H -0.0343 0.6797 0.9386
C16 C -0.0373(3) 0.73214(12) 0.8366(3)
H10 H -0.1009 0.7460 0.8679
C17 C 0.1414(4) 0.62835(11) 0.8854(3)
H11 H 0.1810 0.6114 0.8299
H12 H 0.0748 0.6113 0.9094
C18 C 0.2264(3) 0.63733(10) 0.9841(3)
C19 C 0.0164(4) 0.84999(13) 0.2753(3)
H13 H -0.0352 0.8738 0.2717
C20 C 0.0475(4) 0.83095(13) 0.1771(3)
H14 H 0.0171 0.8420 0.1095
C21 C 0.1232(3) 0.79568(11) 0.1787(3)
C22 C 0.1623(3) 0.78113(11) 0.2818(3)
H15 H 0.2126 0.7570 0.2877
C23 C 0.1281(3) 0.80169(11) 0.3757(3)
H16 H 0.1569 0.7909 0.4441
C24 C 0.1631(3) 0.77470(12) 0.0738(3)
H17 H 0.1002 0.7771 0.0165
H18 H 0.1778 0.7436 0.0873
C25 C 0.2742(3) 0.79579(12) 0.0321(3)
H19 H 0.3357 0.7950 0.0910
H20 H 0.2581 0.8264 0.0143
C26 C 0.3183(3) 0.77277(12) -0.0701(3)
H21 H 0.3388 0.7426 -0.0505
H22 H 0.2546 0.7718 -0.1268
C27 C 0.4234(3) 0.79435(11) -0.1182(3)
C28 C 0.4329(3) 0.79883(12) -0.2322(3)
H23 H 0.3726 0.7886 -0.2806
C29 C 0.5307(3) 0.81836(11) -0.2737(3)
H24 H 0.5334 0.8214 -0.3505
C30 C 0.6126(3) 0.82906(12) -0.1009(3)
H25 H 0.6740 0.8395 -0.0541
C31 C 0.5171(3) 0.81018(12) -0.0540(3)
H26 H 0.5157 0.8080 0.0231
C32 C 0.2411(3) 0.90920(13) 0.5169(3)
H27 H 0.2191 0.9121 0.4418
C33 C 0.3469(3) 0.92737(13) 0.5546(3)
H28 H 0.3948 0.9416 0.5051
C34 C 0.3818(3) 0.92446(11) 0.6659(3)
C35 C 0.3073(3) 0.90205(12) 0.7335(3)
H29 H 0.3270 0.8990 0.8090
C36 C 0.2041(3) 0.88426(12) 0.6894(3)
H30 H 0.1561 0.8689 0.7368
C37 C 0.4953(3) 0.94442(13) 0.7156(3)
H31 H 0.4767 0.9599 0.7832
H32 H 0.5485 0.9205 0.7370
C38 C 0.5608(3) 0.97579(13) 0.6434(3)
H33 H 0.5085 0.9997 0.6202
H34 H 0.5839 0.9604 0.5771
C39 C 0.6706(3) 0.99473(13) 0.7039(3)
H35 H 0.7193 0.9705 0.7322
H36 H 0.7158 1.0108 0.6508
C40 C 0.6450(3) 1.02492(11) 0.7992(3)
C41 C 0.5961(5) 1.06543(16) 0.7847(4)
H37 H 0.5777 1.0757 0.7131
C42 C 0.5735(6) 1.09130(19) 0.8750(5)
H38 H 0.5366 1.1183 0.8619
C43 C 0.6518(6) 1.0416(2) 0.9903(4)
H39 H 0.6751 1.0328 1.0620
C44 C 0.6732(5) 1.01345(16) 0.9045(4)
H40 H 0.7075 0.9861 0.9196
Co1C Co 0.49583(4) 0.633106(13) 1.02192(3)
Co2_2 Co -0.22383(4) 0.861691(14) -0.27650(3)
Co2_3 Co 0.77617(4) 0.861691(14) -0.27650(3)
Co2C Co 0.27617(4) 0.638309(14) 1.22350(3)
N2_2 N -0.3781(2) 0.83326(8) 0.7889(2)
O7_2 O -0.1978(2) 0.89554(8) 0.86503(17)
O8C O -0.1747(2) 0.84859(8) 0.46495(19)
O9C O -0.31301(19) 0.86969(8) 0.57908(18)
loop_
_geom_bond_atom_site_label_1
_geom_bond_atom_site_label_2
_geom_bond_site_symmetry_1
_geom_bond_site_symmetry_2
Co1 N1 1_555 1_555
Co2 O3 1_555 1_555
N1 C19 1_555 1_555
N2 C29 1_555 1_555
N3 Co1 1_555 1_555
N4 C42 1_555 1_555
O1 C1 1_555 1_555
O2 Co1 1_555 1_555
O3 C10 1_555 1_555
O4 Co1 1_555 1_555
O5 Co1 1_555 1_555
O6 C9 1_555 1_555
O7 C9 1_555 1_555
O8 C18 1_555 1_555
O9 C18 1_555 1_555
C1 O2 1_555 1_555
C2 C1 1_555 1_555
H1 C2 1_555 1_555
H2 C2 1_555 1_555
C3 C2 1_555 1_555
C4 C3 1_555 1_555
H3 C4 1_555 1_555
C5 C4 1_555 1_555
H4 C5 1_555 1_555
C6 C5 1_555 1_555
C7 C6 1_555 1_555
H5 C7 1_555 1_555
C8 C3 1_555 1_555
H6 C8 1_555 1_555
C9 C6 1_555 1_555
C10 O4 1_555 1_555
C11 C10 1_555 1_555
C12 C11 1_555 1_555
H7 C12 1_555 1_555
C13 C12 1_555 1_555
H8 C13 1_555 1_555
C14 C13 1_555 1_555
C15 C14 1_555 1_555
H9 C15 1_555 1_555
C16 C11 1_555 1_555
H10 C16 1_555 1_555
C17 C14 1_555 1_555
H11 C17 1_555 1_555
H12 C17 1_555 1_555
C18 C17 1_555 1_555
C19 H13 1_555 1_555
C20 C19 1_555 1_555
H14 C20 1_555 1_555
C21 C20 1_555 1_555
C22 C21 1_555 1_555
H15 C22 1_555 1_555
C23 N1 1_555 1_555
H16 C23 1_555 1_555
C24 C21 1_555 1_555
H17 C24 1_555 1_555
H18 C24 1_555 1_555
C25 C24 1_555 1_555
H19 C25 1_555 1_555
H20 C25 1_555 1_555
C26 C25 1_555 1_555
H21 C26 1_555 1_555
H22 C26 1_555 1_555
C27 C26 1_555 1_555
C28 C27 1_555 1_555
H23 C28 1_555 1_555
C29 C28 1_555 1_555
H24 C29 1_555 1_555
C30 N2 1_555 1_555
H25 C30 1_555 1_555
C31 C27 1_555 1_555
H26 C31 1_555 1_555
C32 N3 1_555 1_555
H27 C32 1_555 1_555
C33 C32 1_555 1_555
H28 C33 1_555 1_555
C34 C33 1_555 1_555
C35 C34 1_555 1_555
H29 C35 1_555 1_555
C36 N3 1_555 1_555
H30 C36 1_555 1_555
C37 C34 1_555 1_555
H31 C37 1_555 1_555
H32 C37 1_555 1_555
C38 C37 1_555 1_555
H33 C38 1_555 1_555
H34 C38 1_555 1_555
C39 C38 1_555 1_555
H35 C39 1_555 1_555
H36 C39 1_555 1_555
C40 C39 1_555 1_555
C41 C40 1_555 1_555
H37 C41 1_555 1_555
C42 C41 1_555 1_555
H38 C42 1_555 1_555
C43 N4 1_555 1_555
H39 C43 1_555 1_555
C44 C40 1_555 1_555
H40 C44 1_555 1_555
Co1C O8 1_555 1_555
Co2_2 O7 1_555 1_555
Co2_3 N2 1_555 1_555
Co2C O9 1_555 1_555
N2_2 Co2 1_555 1_555
O7_2 Co2 1_555 1_555
O8C Co1 1_555 1_555
O9C Co2 1_555 1_555
Co2 O5 1_555 1_555
C7 C8 1_555 1_555
C15 C16 1_555 1_555
C22 C23 1_555 1_555
C30 C31 1_555 1_555
C35 C36 1_555 1_555
C43 C44 1_555 1_555

#END
