
#######################################################################
#
#                 Cambridge Crystallographic Data Centre
#                                CCDC 
#
#######################################################################
#
# If this CIF has been generated from an entry in the Cambridge 
# Structural Database, then it will include bibliographic, chemical, 
# crystal, experimental, refinement or atomic coordinate data resulting 
# from the CCDC's data processing and validation procedures.
#
#######################################################################

data_WIHQEL
_symmetry_cell_setting           monoclinic
_symmetry_space_group_name_H-M   'P 21/n'
_symmetry_Int_Tables_number      14
_space_group_name_Hall           '-P 2yn'
loop_
_symmetry_equiv_pos_site_id
_symmetry_equiv_pos_as_xyz
1 x,y,z
2 1/2-x,1/2+y,1/2-z
3 -x,-y,-z
4 1/2+x,1/2-y,1/2+z
_cell_length_a                   6.1807(2)
_cell_length_b                   7.9197(3)
_cell_length_c                   16.6645(6)
_cell_angle_alpha                90
_cell_angle_beta                 100.400(3)
_cell_angle_gamma                90
_cell_volume                     802.314
loop_
_atom_site_label
_atom_site_type_symbol
_atom_site_fract_x
_atom_site_fract_y
_atom_site_fract_z
Cu1 Cu 0.22299(3) 0.09838(3) 0.437953(12)
N1 N -0.1070(2) 0.10185(18) 0.42829(9)
O1 O 0.2569(3) 0.3391(2) 0.51934(11)
N2 N -0.0823(3) 0.2933(2) 0.32244(10)
C1 C -0.2022(3) 0.2074(2) 0.36970(10)
N3 N 0.1416(2) 0.2391(2) 0.33488(10)
C2 C -0.1814(4) 0.3619(4) 0.24484(16)
O2 O 0.3020(3) -0.41361(17) 0.32262(9)
O3 O 0.2281(3) -0.15339(18) 0.34728(9)
O4 O 0.1652(3) -0.3521(2) 0.42986(9)
N4 N 0.2319(3) -0.3061(2) 0.36632(10)
N5 N -0.2737(2) 0.0467(2) 0.46376(9)
N6 N -0.4186(2) 0.2193(2) 0.36639(9)
N7 N -0.4561(2) 0.11688(18) 0.42650(9)
H1 H 0.217(4) 0.330(3) 0.3397(13)
H2 H 0.160(4) 0.188(3) 0.2943(15)
H3 H -0.097(6) 0.434(4) 0.226(2)
H4 H -0.319(5) 0.393(3) 0.2447(16)
H5 H -0.198(6) 0.263(5) 0.203(2)
H6 H 0.257(5) 0.430(4) 0.4991(18)
H7 H 0.167(6) 0.345(4) 0.541(2)
Cu1_2 Cu -0.77701(3) 0.09838(3) 0.437953(12)
Cu1B Cu -0.22299(3) -0.09838(3) 0.562047(12)
N5B N 0.2737(2) -0.0467(2) 0.53624(9)
N7_2 N 0.5439(2) 0.11688(18) 0.42650(9)
loop_
_geom_bond_atom_site_label_1
_geom_bond_atom_site_label_2
_geom_bond_site_symmetry_1
_geom_bond_site_symmetry_2
Cu1 N1 1_555 1_555
N1 C1 1_555 1_555
O1 Cu1 1_555 1_555
N2 C1 1_555 1_555
C1 N6 1_555 1_555
N3 Cu1 1_555 1_555
C2 N2 1_555 1_555
O2 N4 1_555 1_555
O3 Cu1 1_555 1_555
O4 N4 1_555 1_555
N4 O3 1_555 1_555
N5 N1 1_555 1_555
N6 N7 1_555 1_555
N7 N5 1_555 1_555
H1 N3 1_555 1_555
H2 N3 1_555 1_555
H3 C2 1_555 1_555
H4 C2 1_555 1_555
H5 C2 1_555 1_555
H6 O1 1_555 1_555
H7 O1 1_555 1_555
Cu1_2 N7 1_555 1_555
Cu1B N5 1_555 1_555
N5B Cu1 1_555 1_555
N7_2 Cu1 1_555 1_555
N2 N3 1_555 1_555

#END
