
#######################################################################
#
#                 Cambridge Crystallographic Data Centre
#                                CCDC 
#
#######################################################################
#
# If this CIF has been generated from an entry in the Cambridge 
# Structural Database, then it will include bibliographic, chemical, 
# crystal, experimental, refinement or atomic coordinate data resulting 
# from the CCDC's data processing and validation procedures.
#
#######################################################################

data_WIHWIV
_symmetry_cell_setting           monoclinic
_symmetry_space_group_name_H-M   'P 21/c'
_symmetry_Int_Tables_number      14
_space_group_name_Hall           '-P 2ybc'
loop_
_symmetry_equiv_pos_site_id
_symmetry_equiv_pos_as_xyz
1 x,y,z
2 -x,1/2+y,1/2-z
3 -x,-y,-z
4 x,1/2-y,1/2+z
_cell_length_a                   8.0592(16)
_cell_length_b                   16.813(3)
_cell_length_c                   10.417(2)
_cell_angle_alpha                90
_cell_angle_beta                 90.19(3)
_cell_angle_gamma                90
_cell_volume                     1411.49
loop_
_atom_site_label
_atom_site_type_symbol
_atom_site_fract_x
_atom_site_fract_y
_atom_site_fract_z
Ag1 Ag 0.73614(9) 0.44171(3) 0.09886(6)
N1 N 0.7089(9) 0.5404(4) 0.2303(8)
N2 N 0.4943(9) 0.7862(4) 0.4609(8)
H1 H 0.5021 0.8237 0.4051
N3 N 0.2396(8) 0.8364(4) 0.5153(6)
C1 C 0.5801(13) 0.5875(5) 0.2193(10)
H2 H 0.5042 0.5772 0.1539
C2 C 0.5508(12) 0.6505(5) 0.2978(9)
H3 H 0.4569 0.6817 0.2852
C3 C 0.6586(10) 0.6680(5) 0.3948(9)
C4 C 0.7934(12) 0.6180(7) 0.4087(10)
H4 H 0.8708 0.6278 0.4731
C5 C 0.8140(12) 0.5557(6) 0.3307(13)
H5 H 0.9029 0.5216 0.3452
C6 C 0.6362(12) 0.7373(6) 0.4858(11)
H6 H 0.6279 0.7166 0.5725
H7 H 0.7347 0.7703 0.4821
C7 C 0.3467(11) 0.7754(5) 0.5229(8)
C8 C 0.3113(14) 0.7058(6) 0.5911(11)
H8 H 0.3869 0.6640 0.5936
C9 C 0.1660(14) 0.7006(6) 0.6528(11)
H9 H 0.1390 0.6539 0.6959
C10 C 0.0558(13) 0.7635(7) 0.6533(12)
H10 H -0.0413 0.7618 0.7012
C11 C 0.0959(12) 0.8287(6) 0.5799(10)
H11 H 0.0193 0.8700 0.5746
Ag1A Ag 0.26386(9) 0.94171(3) 0.40114(6)
N3A N 0.7604(8) 0.3364(4) -0.0153(6)
Cl1 Cl 0.7693(3) 0.56237(14) -0.1953(3)
O1 O 0.6495(12) 0.5523(5) -0.0997(9)
O2 O 0.9164(16) 0.5519(11) -0.1337(19)
O3 O 0.7636(15) 0.5046(9) -0.2885(12)
O4 O 0.766(3) 0.6363(9) -0.2430(18)
loop_
_geom_bond_atom_site_label_1
_geom_bond_atom_site_label_2
_geom_bond_site_symmetry_1
_geom_bond_site_symmetry_2
Ag1 N1 1_555 1_555
N1 C1 1_555 1_555
N2 H1 1_555 1_555
N3 C7 1_555 1_555
C1 H2 1_555 1_555
C2 C1 1_555 1_555
H3 C2 1_555 1_555
C3 C2 1_555 1_555
C4 C3 1_555 1_555
H4 C4 1_555 1_555
C5 N1 1_555 1_555
H5 C5 1_555 1_555
C6 N2 1_555 1_555
H6 C6 1_555 1_555
H7 C6 1_555 1_555
C7 N2 1_555 1_555
C8 C7 1_555 1_555
H8 C8 1_555 1_555
C9 C8 1_555 1_555
H9 C9 1_555 1_555
C10 C9 1_555 1_555
H10 C10 1_555 1_555
C11 N3 1_555 1_555
H11 C11 1_555 1_555
Cl1 O1 1_555 1_555
O2 Cl1 1_555 1_555
O3 Cl1 1_555 1_555
O4 Cl1 1_555 1_555
Ag1A N3 1_555 1_555
N3A Ag1 1_555 1_555
C3 C6 1_555 1_555
C4 C5 1_555 1_555
C10 C11 1_555 1_555

#END
