
#######################################################################
#
#                 Cambridge Crystallographic Data Centre
#                                CCDC 
#
#######################################################################
#
# If this CIF has been generated from an entry in the Cambridge 
# Structural Database, then it will include bibliographic, chemical, 
# crystal, experimental, refinement or atomic coordinate data resulting 
# from the CCDC's data processing and validation procedures.
#
#######################################################################

data_WIHWUH
_symmetry_cell_setting           monoclinic
_symmetry_space_group_name_H-M   'P 21/c'
_symmetry_Int_Tables_number      14
_space_group_name_Hall           '-P 2ybc'
loop_
_symmetry_equiv_pos_site_id
_symmetry_equiv_pos_as_xyz
1 x,y,z
2 -x,1/2+y,1/2-z
3 -x,-y,-z
4 x,1/2-y,1/2+z
_cell_length_a                   9.6867(19)
_cell_length_b                   10.515(2)
_cell_length_c                   13.614(3)
_cell_angle_alpha                90
_cell_angle_beta                 108.63(3)
_cell_angle_gamma                90
_cell_volume                     1314
loop_
_atom_site_label
_atom_site_type_symbol
_atom_site_fract_x
_atom_site_fract_y
_atom_site_fract_z
Ag1 Ag 0.58517(8) 0.36902(8) 0.46942(6)
N1 N 0.7392(9) 0.5166(7) 0.4724(8)
N2 N 0.8087(9) 0.7601(8) 0.3060(7)
H1 H 0.8833 0.8035 0.3045
N3 N 0.5685(9) 0.7186(7) 0.0390(8)
C1 C 0.7274(11) 0.5871(10) 0.3912(7)
H2 H 0.6522 0.5702 0.3302
C2 C 0.8216(13) 0.6856(11) 0.3918(9)
C3 C 0.9403(11) 0.7038(10) 0.4842(9)
H3 H 1.0091 0.7665 0.4867
C4 C 0.9542(11) 0.6309(12) 0.5685(8)
H4 H 1.0301 0.6425 0.6301
C5 C 0.8454(12) 0.5347(10) 0.5576(8)
H5 H 0.8513 0.4831 0.6143
C6 C 0.6782(11) 0.7692(10) 0.2192(8)
H6 H 0.6654 0.8573 0.1970
H7 H 0.5965 0.7466 0.2423
C7 C 0.6716(12) 0.6894(11) 0.1279(10)
C8 C 0.7658(13) 0.5901(12) 0.1317(9)
H8 H 0.8375 0.5703 0.1938
C9 C 0.7548(15) 0.5215(12) 0.0460(11)
H9 H 0.8198 0.4558 0.0476
C10 C 0.6465(15) 0.5506(11) -0.0430(10)
H10 H 0.6336 0.5021 -0.1024
C11 C 0.5571(11) 0.6510(11) -0.0447(8)
H11 H 0.4860 0.6724 -0.1066
Ag1A Ag 0.41483(8) 0.86902(8) 0.03058(6)
N3A N 0.4315(9) 0.2186(7) 0.4610(8)
Cl1 Cl 0.7516(3) 0.1632(3) 0.2584(2)
O1 O 0.7119(8) 0.2374(9) 0.3314(6)
O2 O 0.6264(7) 0.0960(7) 0.1972(5)
O3 O 0.8090(8) 0.2358(7) 0.1931(6)
O4 O 0.8608(7) 0.0774(7) 0.3133(5)
loop_
_geom_bond_atom_site_label_1
_geom_bond_atom_site_label_2
_geom_bond_site_symmetry_1
_geom_bond_site_symmetry_2
Ag1 N1 1_555 1_555
N1 C1 1_555 1_555
N2 H1 1_555 1_555
N3 C7 1_555 1_555
C1 H2 1_555 1_555
C2 N2 1_555 1_555
C3 C2 1_555 1_555
H3 C3 1_555 1_555
C4 C3 1_555 1_555
H4 C4 1_555 1_555
C5 N1 1_555 1_555
H5 C5 1_555 1_555
C6 N2 1_555 1_555
H6 C6 1_555 1_555
H7 C6 1_555 1_555
C7 C6 1_555 1_555
C8 C7 1_555 1_555
H8 C8 1_555 1_555
C9 C8 1_555 1_555
H9 C9 1_555 1_555
C10 C9 1_555 1_555
H10 C10 1_555 1_555
C11 N3 1_555 1_555
H11 C11 1_555 1_555
Cl1 O1 1_555 1_555
O2 Cl1 1_555 1_555
O3 Cl1 1_555 1_555
O4 Cl1 1_555 1_555
Ag1A N3 1_555 1_555
N3A Ag1 1_555 1_555
C1 C2 1_555 1_555
C4 C5 1_555 1_555
C10 C11 1_555 1_555

#END
