
#######################################################################
#
#                 Cambridge Crystallographic Data Centre
#                                CCDC 
#
#######################################################################
#
# If this CIF has been generated from an entry in the Cambridge 
# Structural Database, then it will include bibliographic, chemical, 
# crystal, experimental, refinement or atomic coordinate data resulting 
# from the CCDC's data processing and validation procedures.
#
#######################################################################

data_WIJWES01
_symmetry_cell_setting           monoclinic
_symmetry_space_group_name_H-M   'P 21/n'
_symmetry_Int_Tables_number      14
_space_group_name_Hall           '-P 2yn'
loop_
_symmetry_equiv_pos_site_id
_symmetry_equiv_pos_as_xyz
1 x,y,z
2 1/2-x,1/2+y,1/2-z
3 -x,-y,-z
4 1/2+x,1/2-y,1/2+z
_cell_length_a                   6.703(4)
_cell_length_b                   22.048(11)
_cell_length_c                   15.533(8)
_cell_angle_alpha                90.00
_cell_angle_beta                 91.797(7)
_cell_angle_gamma                90.00
_cell_volume                     2294.46
loop_
_atom_site_label
_atom_site_type_symbol
_atom_site_fract_x
_atom_site_fract_y
_atom_site_fract_z
Cd1 Cd 0.70576(5) 0.185838(16) 0.68458(2)
Cd2 Cd 1.20323(5) 0.104022(16) 0.68984(2)
N1 N 0.7696(7) 0.2733(2) 0.7635(3)
N2 N 0.6471(7) 0.2697(2) 0.5914(3)
H1 H 0.7237 0.2659 0.5451
H2 H 0.5186 0.2692 0.5727
N3 N 1.2627(6) 0.01982(18) 0.7802(3)
N4 N 1.1394(6) 0.01723(18) 0.6056(2)
H3 H 1.0112 0.0178 0.5867
H4 H 1.2166 0.0183 0.5593
N5 N 1.0163(7) 0.1697(2) 0.6013(3)
N6 N 1.1034(7) 0.2143(2) 0.5801(3)
N7 N 1.1868(8) 0.2575(2) 0.5586(4)
N8 N 0.8965(7) 0.1180(2) 0.7622(3)
N9 N 0.8549(8) 0.1038(2) 0.8325(3)
N10 N 0.8210(12) 0.0903(3) 0.9019(4)
N11 N 0.3996(7) 0.1719(2) 0.7646(3)
N12 N 0.3576(8) 0.18761(19) 0.8360(3)
N13 N 0.3145(11) 0.2025(3) 0.9031(4)
N14 N 0.5128(6) 0.11620(19) 0.6041(3)
N15 N 0.6008(6) 0.07076(19) 0.5861(2)
N16 N 0.6813(7) 0.0266(2) 0.5669(3)
C1 C 0.8171(9) 0.2734(3) 0.8471(4)
H5 H 0.8325 0.2367 0.8760
C2 C 0.8451(9) 0.3288(3) 0.8934(4)
H6 H 0.8771 0.3274 0.9521
C3 C 0.8262(9) 0.3827(3) 0.8540(4)
H7 H 0.8456 0.4188 0.8843
C4 C 0.7754(8) 0.3829(3) 0.7642(5)
C5 C 0.7508(9) 0.4378(3) 0.7195(5)
H8 H 0.7685 0.4748 0.7475
C6 C 0.6996(9) 0.4354(3) 0.6327(5)
H9 H 0.6839 0.4716 0.6025
C7 C 0.6702(8) 0.3801(3) 0.5883(4)
H10 H 0.6381 0.3802 0.5296
C8 C 0.6891(8) 0.3260(2) 0.6320(3)
C9 C 0.7477(7) 0.3264(2) 0.7220(3)
C10 C 1.3028(9) 0.0211(3) 0.8622(4)
H11 H 1.3224 0.0587 0.8882
C11 C 1.3185(9) -0.0304(3) 0.9138(4)
H12 H 1.3438 -0.0267 0.9728
C12 C 1.2969(8) -0.0857(3) 0.8781(4)
H13 H 1.3101 -0.1202 0.9123
C13 C 1.2542(8) -0.0915(3) 0.7888(4)
C14 C 1.2285(8) -0.1468(2) 0.7451(4)
H14 H 1.2435 -0.1830 0.7755
C15 C 1.1825(9) -0.1488(3) 0.6598(4)
H15 H 1.1699 -0.1860 0.6321
C16 C 1.1534(8) -0.0949(2) 0.6129(4)
H16 H 1.1178 -0.0969 0.5546
C17 C 1.1769(7) -0.0386(2) 0.6519(3)
C18 C 1.2320(7) -0.0362(2) 0.7414(3)
Cd2_2 Cd 0.20323(5) 0.104022(16) 0.68984(2)
N11_2 N 1.3996(7) 0.1719(2) 0.7646(3)
N14_2 N 1.5128(6) 0.11620(19) 0.6041(3)
loop_
_geom_bond_atom_site_label_1
_geom_bond_atom_site_label_2
_geom_bond_site_symmetry_1
_geom_bond_site_symmetry_2
Cd1 N1 1_555 1_555
Cd2 N3 1_555 1_555
N1 C1 1_555 1_555
N2 Cd1 1_555 1_555
H1 N2 1_555 1_555
H2 N2 1_555 1_555
N3 C10 1_555 1_555
N4 Cd2 1_555 1_555
H3 N4 1_555 1_555
H4 N4 1_555 1_555
N5 Cd1 1_555 1_555
N6 N5 1_555 1_555
N7 N6 1_555 1_555
N8 Cd1 1_555 1_555
N9 N8 1_555 1_555
N10 N9 1_555 1_555
N11 Cd1 1_555 1_555
N12 N11 1_555 1_555
N13 N12 1_555 1_555
N14 Cd1 1_555 1_555
N15 N14 1_555 1_555
N16 N15 1_555 1_555
C1 H5 1_555 1_555
C2 C1 1_555 1_555
H6 C2 1_555 1_555
C3 C2 1_555 1_555
H7 C3 1_555 1_555
C4 C3 1_555 1_555
C5 C4 1_555 1_555
H8 C5 1_555 1_555
C6 C5 1_555 1_555
H9 C6 1_555 1_555
C7 C6 1_555 1_555
H10 C7 1_555 1_555
C8 N2 1_555 1_555
C9 N1 1_555 1_555
C10 H11 1_555 1_555
C11 C10 1_555 1_555
H12 C11 1_555 1_555
C12 C11 1_555 1_555
H13 C12 1_555 1_555
C13 C12 1_555 1_555
C14 C13 1_555 1_555
H14 C14 1_555 1_555
C15 C14 1_555 1_555
H15 C15 1_555 1_555
C16 C15 1_555 1_555
H16 C16 1_555 1_555
C17 N4 1_555 1_555
C18 N3 1_555 1_555
Cd2_2 N11 1_555 1_555
N11_2 Cd2 1_555 1_555
N14_2 Cd2 1_555 1_555
Cd2 N5 1_555 1_555
Cd2 N8 1_555 1_555
N14 Cd2_2 1_555 1_555
C4 C9 1_555 1_555
C7 C8 1_555 1_555
C8 C9 1_555 1_555
C13 C18 1_555 1_555
C16 C17 1_555 1_555
C17 C18 1_555 1_555

#END
