
#######################################################################
#
#                 Cambridge Crystallographic Data Centre
#                                CCDC 
#
#######################################################################
#
# If this CIF has been generated from an entry in the Cambridge 
# Structural Database, then it will include bibliographic, chemical, 
# crystal, experimental, refinement or atomic coordinate data resulting 
# from the CCDC's data processing and validation procedures.
#
#######################################################################

data_WIJXEU
_symmetry_cell_setting           monoclinic
_symmetry_space_group_name_H-M   'C 2/c'
_symmetry_Int_Tables_number      15
_space_group_name_Hall           '-C 2yn'
loop_
_symmetry_equiv_pos_site_id
_symmetry_equiv_pos_as_xyz
1 x,y,z
2 -x,y,1/2-z
3 1/2+x,1/2+y,z
4 1/2-x,1/2+y,1/2-z
5 -x,-y,-z
6 x,-y,1/2+z
7 1/2-x,1/2-y,-z
8 1/2+x,1/2-y,1/2+z
_cell_length_a                   39.826(8)
_cell_length_b                   14.012(2)
_cell_length_c                   29.269(4)
_cell_angle_alpha                90
_cell_angle_beta                 123.206(9)
_cell_angle_gamma                90
_cell_volume                     13666.2
loop_
_atom_site_label
_atom_site_type_symbol
_atom_site_fract_x
_atom_site_fract_y
_atom_site_fract_z
Zn1 Zn -0.010493(19) 0.47169(4) -0.05490(2)
N1 N -0.03537(13) 0.4441(3) -0.13669(17)
O1 O 0.04823(12) 0.4377(3) -0.02114(16)
O2 O -0.01697(13) 0.3457(2) -0.02700(17)
O3 O -0.06175(12) 0.5193(3) -0.05958(17)
O4 O 0.00196(13) 0.6121(2) -0.05649(16)
C1 C -0.0460(2) 0.3440(4) -0.1503(3)
C2 C -0.00717(18) 0.4685(5) -0.1520(2)
C3 C -0.0716(2) 0.5007(6) -0.1702(3)
C4 C 0.07220(19) 0.4447(4) 0.0297(3)
C5 C -0.01247(18) 0.3293(4) 0.0192(2)
H1 H -0.0635 0.3244 -0.1386
H2 H -0.0219 0.3052 -0.1312
C6 C -0.0677(3) 0.3277(5) -0.2131(3)
H3 H 0.0176 0.4333 -0.1292
H4 H -0.0010 0.5361 -0.1460
C7 C -0.0250(2) 0.4444(5) -0.2120(2)
H5 H -0.0654 0.5677 -0.1610
H6 H -0.0915 0.4822 -0.1626
C8 C -0.0887(2) 0.4860(5) -0.2315(2)
C9 C 0.11373(18) 0.4119(5) 0.0557(2)
C10 C -0.0201(2) 0.2280(4) 0.0282(2)
N2 N -0.06596(14) 0.4118(3) -0.23905(17)
H7 H -0.0551 0.2753 -0.2198
H8 H -0.0956 0.3108 -0.2283
H9 H -0.0240 0.5006 -0.2306
H10 H -0.0089 0.3951 -0.2144
H11 H -0.1167 0.4674 -0.2503
H12 H -0.0873 0.5455 -0.2473
C11 C 0.12740(19) 0.3812(4) 0.0236(3)
C12 C 0.1388(2) 0.4120(7) 0.1115(3)
C13 C -0.0286(2) 0.1555(4) -0.0096(3)
C14 C -0.0176(2) 0.2072(4) 0.0760(2)
Zn2 Zn -0.09365(2) 0.39157(5) -0.32373(3)
H13 H 0.1109 0.3815 -0.0143
C15 C 0.16632(19) 0.3504(5) 0.0503(2)
C16 C 0.1759(2) 0.3798(7) 0.1375(3)
H14 H 0.1292 0.4358 0.1320
H15 H -0.0285 0.1699 -0.0405
C17 C -0.0370(3) 0.0632(4) -0.0023(3)
C18 C -0.0258(2) 0.1129(4) 0.0838(3)
H16 H -0.0108 0.2539 0.1022
O5 O -0.0936(4) 0.5145(5) -0.3403(4)
O6 O -0.14432(14) 0.3478(4) -0.33723(19)
O7 O -0.07167(17) 0.3353(4) -0.3635(3)
N3 N 0.18768(15) 0.3158(4) 0.02968(19)
C19 C 0.1920(2) 0.3459(7) 0.1063(3)
H17 H 0.1916 0.3787 0.1755
H18 H -0.0441 0.0170 -0.0289
C20 C -0.0347(2) 0.0415(4) 0.0446(3)
N4 N -0.0272(2) 0.0744(4) 0.1262(2)
H19 H 0.1786 0.3118 -0.0045
C21 C 0.22647(19) 0.2875(6) 0.0720(2)
C22 C 0.2303(2) 0.3040(7) 0.1223(3)
C23 C -0.0410(2) -0.0471(4) 0.0665(3)
H20 H -0.0231 0.1042 0.1545
C24 C -0.0367(3) -0.0229(5) 0.1142(3)
C25 C 0.25738(18) 0.2469(6) 0.0702(3)
C26 C 0.2660(3) 0.2788(8) 0.1707(3)
C27 C -0.0504(2) -0.1388(4) 0.0482(3)
C28 C -0.0429(2) -0.0849(5) 0.1459(3)
H21 H 0.2543 0.2344 0.0369
C29 C 0.2924(2) 0.2256(5) 0.1181(3)
C30 C 0.2980(3) 0.2413(8) 0.1701(3)
H22 H 0.2684 0.2872 0.2038
C31 C -0.0559(2) -0.2067(5) 0.0781(3)
H23 H -0.0532 -0.1559 0.0155
H24 H -0.0412 -0.0655 0.1775
C32 C -0.0522(2) -0.1791(5) 0.1264(3)
C33 C 0.3271(2) 0.1824(6) 0.1181(3)
H25 H 0.3222 0.2269 0.2023
H26 H -0.0619 -0.2696 0.0661
C34 C -0.0622(2) -0.2545(7) 0.1561(4)
O8 O 0.32532(16) 0.1733(5) 0.0748(2)
O9 O -0.0636(2) -0.2256(4) 0.1951(3)
O3D O 0.06175(12) 0.4807(3) 0.05958(17)
O4D O -0.00196(13) 0.3879(2) 0.05649(16)
Zn1D Zn 0.010493(19) 0.52831(4) 0.05490(2)
O6G O 0.35568(14) 0.1522(4) 0.16277(19)
O7E O -0.07167(17) -0.3353(4) 0.1365(3)
Zn2G Zn 0.40635(2) 0.10843(5) 0.17627(3)
Zn2E Zn -0.09365(2) -0.39157(5) 0.17627(3)
loop_
_geom_bond_atom_site_label_1
_geom_bond_atom_site_label_2
_geom_bond_site_symmetry_1
_geom_bond_site_symmetry_2
Zn1 N1 1_555 1_555
N1 C1 1_555 1_555
O1 Zn1 1_555 1_555
O2 Zn1 1_555 1_555
O3 Zn1 1_555 1_555
O4 Zn1 1_555 1_555
C1 H1 1_555 1_555
C2 N1 1_555 1_555
C3 N1 1_555 1_555
C4 O1 1_555 1_555
C5 O2 1_555 1_555
H2 C1 1_555 1_555
C6 C1 1_555 1_555
H3 C2 1_555 1_555
H4 C2 1_555 1_555
C7 C2 1_555 1_555
H5 C3 1_555 1_555
H6 C3 1_555 1_555
C8 C3 1_555 1_555
C9 C4 1_555 1_555
C10 C5 1_555 1_555
N2 C6 1_555 1_555
H7 C6 1_555 1_555
H8 C6 1_555 1_555
H9 C7 1_555 1_555
H10 C7 1_555 1_555
H11 C8 1_555 1_555
H12 C8 1_555 1_555
C11 C9 1_555 1_555
C12 C9 1_555 1_555
C13 C10 1_555 1_555
C14 C10 1_555 1_555
Zn2 N2 1_555 1_555
H13 C11 1_555 1_555
C15 C11 1_555 1_555
C16 C12 1_555 1_555
H14 C12 1_555 1_555
H15 C13 1_555 1_555
C17 C13 1_555 1_555
C18 C14 1_555 1_555
H16 C14 1_555 1_555
O5 Zn2 1_555 1_555
O6 Zn2 1_555 1_555
O7 Zn2 1_555 1_555
N3 C15 1_555 1_555
C19 C15 1_555 1_555
H17 C16 1_555 1_555
H18 C17 1_555 1_555
C20 C17 1_555 1_555
N4 C18 1_555 1_555
H19 N3 1_555 1_555
C21 N3 1_555 1_555
C22 C19 1_555 1_555
C23 C20 1_555 1_555
H20 N4 1_555 1_555
C24 N4 1_555 1_555
C25 C21 1_555 1_555
C26 C22 1_555 1_555
C27 C23 1_555 1_555
C28 C24 1_555 1_555
H21 C25 1_555 1_555
C29 C25 1_555 1_555
C30 C26 1_555 1_555
H22 C26 1_555 1_555
C31 C27 1_555 1_555
H23 C27 1_555 1_555
H24 C28 1_555 1_555
C32 C28 1_555 1_555
C33 C29 1_555 1_555
H25 C30 1_555 1_555
H26 C31 1_555 1_555
C34 C32 1_555 1_555
O8 C33 1_555 1_555
O9 C34 1_555 1_555
O3D C4 1_555 1_555
O4D C5 1_555 1_555
Zn1D O3D 1_555 1_555
O6G C33 1_555 1_555
O7E C34 1_555 1_555
Zn2G O6G 1_555 1_555
Zn2E O7E 1_555 1_555
C7 N2 1_555 1_555
C8 N2 1_555 1_555
C16 C19 1_555 1_555
C18 C20 1_555 1_555
C21 C22 1_555 1_555
C23 C24 1_555 1_555
C29 C30 1_555 1_555
C31 C32 1_555 1_555
O4D Zn1D 1_555 1_555

#END
