
#######################################################################
#
#                 Cambridge Crystallographic Data Centre
#                                CCDC 
#
#######################################################################
#
# If this CIF has been generated from an entry in the Cambridge 
# Structural Database, then it will include bibliographic, chemical, 
# crystal, experimental, refinement or atomic coordinate data resulting 
# from the CCDC's data processing and validation procedures.
#
#######################################################################

data_WIJXIY
_symmetry_cell_setting           orthorhombic
_symmetry_space_group_name_H-M   'P c c n'
_symmetry_Int_Tables_number      56
_space_group_name_Hall           '-P 2ab 2ac'
loop_
_symmetry_equiv_pos_site_id
_symmetry_equiv_pos_as_xyz
1 x,y,z
2 1/2-x,1/2-y,z
3 1/2+x,-y,1/2-z
4 -x,1/2+y,1/2-z
5 -x,-y,-z
6 1/2+x,1/2+y,-z
7 1/2-x,y,1/2+z
8 x,1/2-y,1/2+z
_cell_length_a                   22.8973(12)
_cell_length_b                   26.5061(14)
_cell_length_c                   31.6472(17)
_cell_angle_alpha                90
_cell_angle_beta                 90
_cell_angle_gamma                90
_cell_volume                     19207.3
loop_
_atom_site_label
_atom_site_type_symbol
_atom_site_fract_x
_atom_site_fract_y
_atom_site_fract_z
Zn1 Zn 0.7500 0.7500 0.751103(13)
Zn2 Zn 0.719043(13) 0.656400(11) 0.680913(10)
Zn3 Zn 0.616646(13) 0.717503(12) 0.733330(10)
N1 N 0.93159(12) 0.48878(10) 0.75105(9)
H1 H 0.9125 0.4677 0.7357
N2 N 0.76990(10) 0.68724(9) 0.45863(8)
H2 H 0.7371 0.6727 0.4536
N3 N 0.5275(2) 0.8319(2) 0.67020(18)
O1 O 0.80837(7) 0.69005(7) 0.75133(6)
O2 O 0.77390(8) 0.62198(7) 0.71739(6)
O3 O 1.15156(9) 0.38986(7) 0.81589(7)
O4 O 1.08576(9) 0.35046(8) 0.77479(7)
O5 O 0.80687(9) 0.70321(7) 0.64747(6)
O6 O 0.73446(9) 0.65976(8) 0.61990(6)
O7 O 0.79747(9) 0.71150(7) 0.29665(6)
O8 O 0.89244(8) 0.72992(7) 0.29341(6)
O9 O 0.55770(10) 0.75915(10) 0.70532(8)
O10 O 0.69205(8) 0.72106(7) 0.70481(6)
H3 H 0.6921(12) 0.7413(10) 0.6894(8)
C1 C 0.81033(12) 0.64433(11) 0.74091(9)
C2 C 0.86072(13) 0.61392(12) 0.75705(10)
C3 C 0.90248(15) 0.63655(12) 0.78355(12)
H4 H 0.8976 0.6699 0.7920
C4 C 0.95055(16) 0.60986(13) 0.79706(13)
H5 H 0.9783 0.6253 0.8142
C5 C 0.95762(14) 0.55970(12) 0.78500(11)
C6 C 0.91539(14) 0.53783(12) 0.75906(11)
C7 C 0.86706(13) 0.56449(12) 0.74459(10)
H6 H 0.8397 0.5493 0.7270
C8 C 1.00030(14) 0.52188(13) 0.79357(11)
C9 C 1.05067(17) 0.52039(13) 0.81725(13)
H7 H 1.0623 0.5483 0.8329
C10 C 1.08354(15) 0.47688(14) 0.81740(12)
H8 H 1.1178 0.4760 0.8332
C11 C 1.06722(14) 0.43433(12) 0.79470(10)
C12 C 1.01631(14) 0.43509(12) 0.77166(11)
H9 H 1.0043 0.4069 0.7565
C13 C 0.98312(15) 0.47912(13) 0.77153(11)
C14 C 1.10481(14) 0.38797(13) 0.79526(11)
C15 C 0.77990(15) 0.68677(11) 0.61590(10)
C16 C 0.80129(13) 0.69804(11) 0.57274(9)
C17 C 0.85382(16) 0.72417(14) 0.56820(10)
H10 H 0.8742 0.7337 0.5924
C18 C 0.87659(15) 0.73636(15) 0.52930(11)
H11 H 0.9116 0.7539 0.5271
C19 C 0.84606(14) 0.72179(13) 0.49319(10)
C20 C 0.79226(13) 0.69615(11) 0.49822(10)
C21 C 0.77036(13) 0.68446(11) 0.53756(10)
H12 H 0.7350 0.6675 0.5402
C22 C 0.85568(14) 0.72742(12) 0.44835(10)
C23 C 0.90014(14) 0.74732(15) 0.42440(11)
H13 H 0.9324 0.7618 0.4376
C24 C 0.89700(14) 0.74591(14) 0.38112(11)
H14 H 0.9272 0.7594 0.3650
C25 C 0.84799(13) 0.72402(11) 0.36098(9)
C26 C 0.80293(12) 0.70449(11) 0.38447(9)
H15 H 0.7700 0.6912 0.3714
C27 C 0.80769(12) 0.70509(11) 0.42816(10)
C28 C 0.84531(14) 0.72181(10) 0.31382(9)
C29 C 0.5638(2) 0.7981(2) 0.68731(16)
H16 H 0.6029 0.8071 0.6844
C30 C 0.4667(5) 0.8125(4) 0.6701(4)
H17 H 0.4642 0.7766 0.6761
H18 H 0.4454 0.8207 0.6445
C31 C 0.5400(5) 0.8835(4) 0.6495(4)
H19 H 0.5132 0.9097 0.6586
H20 H 0.5801 0.8945 0.6534
C32 C 0.4491(6) 0.8479(7) 0.7102(5)
H21 H 0.4085 0.8433 0.7167
H22 H 0.4561 0.8827 0.7033
H23 H 0.4723 0.8386 0.7343
C33 C 0.5277(9) 0.8649(8) 0.6047(4)
H24 H 0.5361 0.8914 0.5849
H25 H 0.4874 0.8555 0.6024
H26 H 0.5519 0.8362 0.5987
Zn2A Zn 0.780957(13) 0.843600(11) 0.680913(10)
Zn3A Zn 0.883354(13) 0.782497(12) 0.733330(10)
N1A N 0.56841(12) 1.01122(10) 0.75105(9)
H1A H 0.5875 1.0323 0.7357
N2A N 0.73010(10) 0.81276(9) 0.45863(8)
H2A H 0.7629 0.8273 0.4536
N3A N 0.9725(2) 0.6681(2) 0.67020(18)
O1A O 0.69163(7) 0.80995(7) 0.75133(6)
O2A O 0.72610(8) 0.87802(7) 0.71739(6)
O3A O 0.34844(9) 1.11014(7) 0.81589(7)
O4A O 0.41424(9) 1.14954(8) 0.77479(7)
O5A O 0.69313(9) 0.79679(7) 0.64747(6)
O6A O 0.76554(9) 0.84024(8) 0.61990(6)
O7A O 0.70253(9) 0.78850(7) 0.29665(6)
O8A O 0.60756(8) 0.77008(7) 0.29341(6)
O9A O 0.94230(10) 0.74085(10) 0.70532(8)
O10A O 0.80795(8) 0.77894(7) 0.70481(6)
H3A H 0.8079(12) 0.7587(10) 0.6894(8)
C1A C 0.68967(12) 0.85567(11) 0.74091(9)
C2A C 0.63928(13) 0.88608(12) 0.75705(10)
C3A C 0.59752(15) 0.86345(12) 0.78355(12)
H4A H 0.6024 0.8301 0.7920
C4A C 0.54945(16) 0.89014(13) 0.79706(13)
H5A H 0.5217 0.8747 0.8142
C5A C 0.54238(14) 0.94030(12) 0.78500(11)
C6A C 0.58461(14) 0.96217(12) 0.75906(11)
C7A C 0.63294(13) 0.93551(12) 0.74459(10)
H6A H 0.6603 0.9507 0.7270
C8A C 0.49970(14) 0.97812(13) 0.79357(11)
C9A C 0.44933(17) 0.97961(13) 0.81725(13)
H7A H 0.4377 0.9517 0.8329
C10A C 0.41646(15) 1.02312(14) 0.81740(12)
H8A H 0.3822 1.0240 0.8332
C11A C 0.43278(14) 1.06567(12) 0.79470(10)
C12A C 0.48369(14) 1.06491(12) 0.77166(11)
H9A H 0.4957 1.0931 0.7565
C13A C 0.51688(15) 1.02088(13) 0.77153(11)
C14A C 0.39519(14) 1.11203(13) 0.79526(11)
C15A C 0.72010(15) 0.81323(11) 0.61590(10)
C16A C 0.69871(13) 0.80196(11) 0.57274(9)
C17A C 0.64618(16) 0.77583(14) 0.56820(10)
H10A H 0.6258 0.7663 0.5924
C18A C 0.62341(15) 0.76364(15) 0.52930(11)
H11A H 0.5884 0.7461 0.5271
C19A C 0.65394(14) 0.77821(13) 0.49319(10)
C20A C 0.70774(13) 0.80385(11) 0.49822(10)
C21A C 0.72964(13) 0.81554(11) 0.53756(10)
H12A H 0.7650 0.8325 0.5402
C22A C 0.64432(14) 0.77258(12) 0.44835(10)
C23A C 0.59986(14) 0.75268(15) 0.42440(11)
H13A H 0.5676 0.7382 0.4376
C24A C 0.60300(14) 0.75409(14) 0.38112(11)
H14A H 0.5728 0.7406 0.3650
C25A C 0.65201(13) 0.77598(11) 0.36098(9)
C26A C 0.69707(12) 0.79551(11) 0.38447(9)
H15A H 0.7300 0.8088 0.3714
C27A C 0.69231(12) 0.79491(11) 0.42816(10)
C28A C 0.65469(14) 0.77819(10) 0.31382(9)
C29A C 0.9362(2) 0.7019(2) 0.68731(16)
H16A H 0.8971 0.6929 0.6844
C30A C 1.0333(5) 0.6875(4) 0.6701(4)
H17A H 1.0358 0.7234 0.6761
H18A H 1.0546 0.6793 0.6445
C31A C 0.9600(5) 0.6165(4) 0.6495(4)
H19A H 0.9868 0.5903 0.6586
H20A H 0.9199 0.6055 0.6534
C32A C 1.0509(6) 0.6521(7) 0.7102(5)
H21A H 1.0915 0.6567 0.7167
H22A H 1.0439 0.6173 0.7033
H23A H 1.0277 0.6614 0.7343
C33A C 0.9723(9) 0.6351(8) 0.6047(4)
H24A H 0.9639 0.6086 0.5849
H25A H 1.0126 0.6445 0.6024
H26A H 0.9481 0.6638 0.5987
Zn1F Zn 0.7500 0.7500 0.251103(13)
Zn2B Zn 1.219043(13) 0.343600(11) 0.819087(10)
Zn2C Zn 0.280957(13) 1.156400(11) 0.819087(10)
Zn3B Zn 1.116646(13) 0.282497(12) 0.766670(10)
Zn3C Zn 0.383354(13) 1.217503(12) 0.766670(10)
Zn3F Zn 0.883354(13) 0.717503(12) 0.233330(10)
Zn3G Zn 0.616646(13) 0.782497(12) 0.233330(10)
O3B O 0.65156(9) 0.61014(7) 0.68411(7)
O3C O 0.84844(9) 0.88986(7) 0.68411(7)
O4B O 0.58576(9) 0.64954(8) 0.72521(7)
O4C O 0.91424(9) 0.85046(8) 0.72521(7)
O7F O 0.70253(9) 0.71150(7) 0.79665(6)
O7G O 0.79747(9) 0.78850(7) 0.79665(6)
O8F O 0.60756(8) 0.72992(7) 0.79341(6)
O8G O 0.89244(8) 0.77008(7) 0.79341(6)
loop_
_geom_bond_atom_site_label_1
_geom_bond_atom_site_label_2
_geom_bond_site_symmetry_1
_geom_bond_site_symmetry_2
Zn1 O1 1_555 1_555
Zn2 O2 1_555 1_555
Zn3 O9 1_555 1_555
N1 H1 1_555 1_555
N2 H2 1_555 1_555
N3 C29 1_555 1_555
O1 C1 1_555 1_555
O2 C1 1_555 1_555
O3 C14 1_555 1_555
O4 C14 1_555 1_555
O5 C15 1_555 1_555
O6 Zn2 1_555 1_555
O7 C28 1_555 1_555
O8 C28 1_555 1_555
O9 C29 1_555 1_555
O10 Zn1 1_555 1_555
H3 O10 1_555 1_555
C1 C2 1_555 1_555
C2 C3 1_555 1_555
C3 H4 1_555 1_555
C4 C3 1_555 1_555
H5 C4 1_555 1_555
C5 C4 1_555 1_555
C6 N1 1_555 1_555
C7 C2 1_555 1_555
H6 C7 1_555 1_555
C8 C5 1_555 1_555
C9 C8 1_555 1_555
H7 C9 1_555 1_555
C10 C9 1_555 1_555
H8 C10 1_555 1_555
C11 C10 1_555 1_555
C12 C11 1_555 1_555
H9 C12 1_555 1_555
C13 N1 1_555 1_555
C14 C11 1_555 1_555
C15 O6 1_555 1_555
C16 C15 1_555 1_555
C17 C16 1_555 1_555
H10 C17 1_555 1_555
C18 C17 1_555 1_555
H11 C18 1_555 1_555
C19 C18 1_555 1_555
C20 N2 1_555 1_555
C21 C16 1_555 1_555
H12 C21 1_555 1_555
C22 C19 1_555 1_555
C23 C22 1_555 1_555
H13 C23 1_555 1_555
C24 C23 1_555 1_555
H14 C24 1_555 1_555
C25 C24 1_555 1_555
C26 C25 1_555 1_555
H15 C26 1_555 1_555
C27 N2 1_555 1_555
C28 C25 1_555 1_555
C29 H16 1_555 1_555
C30 N3 1_555 1_555
H17 C30 1_555 1_555
H18 C30 1_555 1_555
C31 N3 1_555 1_555
H19 C31 1_555 1_555
H20 C31 1_555 1_555
C32 C30 1_555 1_555
H21 C32 1_555 1_555
H22 C32 1_555 1_555
H23 C32 1_555 1_555
C33 C31 1_555 1_555
H24 C33 1_555 1_555
H25 C33 1_555 1_555
H26 C33 1_555 1_555
Zn2A O2A 1_555 1_555
Zn3A O9A 1_555 1_555
N1A H1A 1_555 1_555
N2A H2A 1_555 1_555
N3A C29A 1_555 1_555
O1A Zn1 1_555 1_555
O2A C1A 1_555 1_555
O3A C14A 1_555 1_555
O4A C14A 1_555 1_555
O5A C15A 1_555 1_555
O6A Zn2A 1_555 1_555
O7A C28A 1_555 1_555
O8A C28A 1_555 1_555
O9A C29A 1_555 1_555
O10A Zn1 1_555 1_555
H3A O10A 1_555 1_555
C1A O1A 1_555 1_555
C2A C1A 1_555 1_555
C3A C2A 1_555 1_555
H4A C3A 1_555 1_555
C4A C3A 1_555 1_555
H5A C4A 1_555 1_555
C5A C4A 1_555 1_555
C6A N1A 1_555 1_555
C7A C2A 1_555 1_555
H6A C7A 1_555 1_555
C8A C5A 1_555 1_555
C9A C8A 1_555 1_555
H7A C9A 1_555 1_555
C10A C9A 1_555 1_555
H8A C10A 1_555 1_555
C11A C10A 1_555 1_555
C12A C11A 1_555 1_555
H9A C12A 1_555 1_555
C13A N1A 1_555 1_555
C14A C11A 1_555 1_555
C15A O6A 1_555 1_555
C16A C15A 1_555 1_555
C17A C16A 1_555 1_555
H10A C17A 1_555 1_555
C18A C17A 1_555 1_555
H11A C18A 1_555 1_555
C19A C18A 1_555 1_555
C20A N2A 1_555 1_555
C21A C16A 1_555 1_555
H12A C21A 1_555 1_555
C22A C19A 1_555 1_555
C23A C22A 1_555 1_555
H13A C23A 1_555 1_555
C24A C23A 1_555 1_555
H14A C24A 1_555 1_555
C25A C24A 1_555 1_555
C26A C25A 1_555 1_555
H15A C26A 1_555 1_555
C27A N2A 1_555 1_555
C28A C25A 1_555 1_555
C29A H16A 1_555 1_555
C30A N3A 1_555 1_555
H17A C30A 1_555 1_555
H18A C30A 1_555 1_555
C31A N3A 1_555 1_555
H19A C31A 1_555 1_555
H20A C31A 1_555 1_555
C32A C30A 1_555 1_555
H21A C32A 1_555 1_555
H22A C32A 1_555 1_555
H23A C32A 1_555 1_555
C33A C31A 1_555 1_555
H24A C33A 1_555 1_555
H25A C33A 1_555 1_555
H26A C33A 1_555 1_555
Zn1F O7 1_555 1_555
Zn2B O3 1_555 1_555
Zn2C O3A 1_555 1_555
Zn3B O4 1_555 1_555
Zn3C O4A 1_555 1_555
Zn3F O8 1_555 1_555
Zn3G O8A 1_555 1_555
O3B Zn2 1_555 1_555
O3C Zn2A 1_555 1_555
O4B Zn3 1_555 1_555
O4C Zn3A 1_555 1_555
O7F Zn1 1_555 1_555
O7G Zn1 1_555 1_555
O8F Zn3 1_555 1_555
O8G Zn3A 1_555 1_555
Zn2 O10 1_555 1_555
Zn3 O10 1_555 1_555
C5 C6 1_555 1_555
C6 C7 1_555 1_555
C8 C13 1_555 1_555
C12 C13 1_555 1_555
C19 C20 1_555 1_555
C20 C21 1_555 1_555
C22 C27 1_555 1_555
C26 C27 1_555 1_555
Zn2A O10A 1_555 1_555
Zn3A O10A 1_555 1_555
O7A Zn1F 1_555 1_555
C5A C6A 1_555 1_555
C6A C7A 1_555 1_555
C8A C13A 1_555 1_555
C12A C13A 1_555 1_555
C19A C20A 1_555 1_555
C20A C21A 1_555 1_555
C22A C27A 1_555 1_555
C26A C27A 1_555 1_555

#END
