
#######################################################################
#
#                 Cambridge Crystallographic Data Centre
#                                CCDC 
#
#######################################################################
#
# If this CIF has been generated from an entry in the Cambridge 
# Structural Database, then it will include bibliographic, chemical, 
# crystal, experimental, refinement or atomic coordinate data resulting 
# from the CCDC's data processing and validation procedures.
#
#######################################################################

data_WIKJOQ
_symmetry_cell_setting           monoclinic
_symmetry_space_group_name_H-M   'P 21/c'
_symmetry_Int_Tables_number      14
_space_group_name_Hall           '-P 2ybc'
loop_
_symmetry_equiv_pos_site_id
_symmetry_equiv_pos_as_xyz
1 x,y,z
2 -x,1/2+y,1/2-z
3 -x,-y,-z
4 x,1/2-y,1/2+z
_cell_length_a                   15.8042(8)
_cell_length_b                   9.5830(5)
_cell_length_c                   19.5633(10)
_cell_angle_alpha                90
_cell_angle_beta                 91.1800(10)
_cell_angle_gamma                90
_cell_volume                     2962.27
loop_
_atom_site_label
_atom_site_type_symbol
_atom_site_fract_x
_atom_site_fract_y
_atom_site_fract_z
Cu1 Cu 0.049703(12) 0.38915(2) 0.271618(10)
Cu2 Cu 0.453677(12) 0.36790(2) 0.725650(10)
S1 S -0.02545(2) 0.20877(4) 0.16175(2)
S2 S 0.47091(2) 0.68846(4) 0.66470(2)
O1 O -0.01403(7) 0.35670(12) 0.18903(6)
O2 O -0.02293(8) 0.11532(12) 0.22174(6)
O3 O -0.10662(8) 0.20514(15) 0.12493(7)
O4 O 0.04512(8) 0.17705(14) 0.11672(6)
O5 O 0.47789(8) 0.59362(13) 0.72446(6)
O6 O 0.48209(8) 0.83586(13) 0.69205(6)
O7 O 0.38813(8) 0.68164(15) 0.63067(7)
O8 O 0.53952(8) 0.65933(14) 0.61738(6)
N1 N 0.16409(9) 0.42011(15) 0.22831(7)
N2 N 0.12251(9) 0.38389(14) 0.35215(7)
N3 N -0.03551(9) 0.32832(15) 0.34292(7)
N4 N 0.53939(9) 0.30997(15) 0.65359(7)
N5 N 0.38133(9) 0.36438(14) 0.64477(7)
N6 N 0.33882(9) 0.39671(15) 0.76880(7)
C1 C 0.17869(11) 0.43567(18) 0.16168(9)
H1 H 0.1325 0.4313 0.1299
C2 C 0.25970(11) 0.45805(19) 0.13757(9)
H2 H 0.2686 0.4707 0.0901
C3 C 0.32742(11) 0.46168(19) 0.18377(9)
H3 H 0.3833 0.4758 0.1682
C4 C 0.31264(10) 0.44445(18) 0.25312(9)
H4 H 0.3582 0.4453 0.2855
C5 C 0.23004(10) 0.42606(17) 0.27398(8)
C6 C 0.20543(10) 0.40587(16) 0.34569(8)
C7 C 0.25933(10) 0.40470(17) 0.40282(8)
H5 H 0.3182 0.4214 0.3984
C8 C 0.22500(10) 0.37838(17) 0.46710(9)
C9 C 0.13769(10) 0.35507(18) 0.47197(9)
H6 H 0.1131 0.3368 0.5150
C10 C 0.08792(10) 0.35933(17) 0.41266(8)
C11 C -0.00430(10) 0.33511(17) 0.40786(8)
C12 C -0.05503(10) 0.32048(18) 0.46428(9)
H7 H -0.0317 0.3264 0.5093
C13 C -0.14098(11) 0.29682(19) 0.45325(9)
H8 H -0.1775 0.2874 0.4909
C14 C -0.17331(10) 0.28697(18) 0.38670(9)
H9 H -0.2318 0.2701 0.3782
C15 C -0.11803(10) 0.30245(17) 0.33293(9)
H10 H -0.1396 0.2944 0.2874
C16 C 0.62143(10) 0.28106(17) 0.66347(9)
H11 H 0.6428 0.2710 0.7089
C17 C 0.67673(11) 0.26513(19) 0.60962(9)
H12 H 0.7350 0.2458 0.6180
C18 C 0.64452(11) 0.2782(2) 0.54322(10)
H13 H 0.6810 0.2688 0.5055
C19 C 0.55902(11) 0.3048(2) 0.53209(9)
H14 H 0.5359 0.3126 0.4870
C20 C 0.50844(10) 0.31970(17) 0.58861(8)
C21 C 0.41620(10) 0.34617(17) 0.58383(8)
C22 C 0.36728(10) 0.35071(18) 0.52402(9)
H15 H 0.3923 0.3387 0.4807
C23 C 0.27973(10) 0.37358(16) 0.52937(9)
C24 C 0.24517(10) 0.39152(16) 0.59400(8)
H16 H 0.1862 0.4067 0.5986
C25 C 0.29840(10) 0.38675(16) 0.65125(8)
C26 C 0.27324(10) 0.40337(17) 0.72313(8)
C27 C 0.19042(10) 0.42188(17) 0.74345(9)
H17 H 0.1451 0.4228 0.7108
C28 C 0.17529(11) 0.43905(17) 0.81281(9)
H18 H 0.1193 0.4532 0.8282
C29 C 0.24259(11) 0.43530(18) 0.85917(9)
H19 H 0.2335 0.4482 0.9066
C30 C 0.32378(11) 0.41240(18) 0.83539(9)
H20 H 0.3698 0.4078 0.8673
Cu1A Cu -0.049703(12) -0.11085(2) 0.228382(10)
Cu2A Cu 0.546323(12) 0.86790(2) 0.774350(10)
O2A O 0.02293(8) 0.61532(12) 0.27826(6)
O6A O 0.51791(8) 0.33586(13) 0.80795(6)
O9 O 0.8952(4) 0.4829(4) 0.0364(2)
O10 O 0.5375(7) 0.4891(6) 0.9395(4)
loop_
_geom_bond_atom_site_label_1
_geom_bond_atom_site_label_2
_geom_bond_site_symmetry_1
_geom_bond_site_symmetry_2
Cu1 O1 1_555 1_555
Cu2 O5 1_555 1_555
S1 O1 1_555 1_555
S2 O5 1_555 1_555
O2 S1 1_555 1_555
O3 S1 1_555 1_555
O4 S1 1_555 1_555
O6 S2 1_555 1_555
O7 S2 1_555 1_555
O8 S2 1_555 1_555
N1 Cu1 1_555 1_555
N2 Cu1 1_555 1_555
N3 Cu1 1_555 1_555
N4 Cu2 1_555 1_555
N5 Cu2 1_555 1_555
N6 Cu2 1_555 1_555
C1 N1 1_555 1_555
H1 C1 1_555 1_555
C2 C1 1_555 1_555
H2 C2 1_555 1_555
C3 C2 1_555 1_555
H3 C3 1_555 1_555
C4 C3 1_555 1_555
H4 C4 1_555 1_555
C5 N1 1_555 1_555
C6 N2 1_555 1_555
C7 C6 1_555 1_555
H5 C7 1_555 1_555
C8 C7 1_555 1_555
C9 C8 1_555 1_555
H6 C9 1_555 1_555
C10 N2 1_555 1_555
C11 N3 1_555 1_555
C12 C11 1_555 1_555
H7 C12 1_555 1_555
C13 C12 1_555 1_555
H8 C13 1_555 1_555
C14 C13 1_555 1_555
H9 C14 1_555 1_555
C15 N3 1_555 1_555
H10 C15 1_555 1_555
C16 N4 1_555 1_555
H11 C16 1_555 1_555
C17 C16 1_555 1_555
H12 C17 1_555 1_555
C18 C17 1_555 1_555
H13 C18 1_555 1_555
C19 C18 1_555 1_555
H14 C19 1_555 1_555
C20 N4 1_555 1_555
C21 N5 1_555 1_555
C22 C21 1_555 1_555
H15 C22 1_555 1_555
C23 C8 1_555 1_555
C24 C23 1_555 1_555
H16 C24 1_555 1_555
C25 N5 1_555 1_555
C26 N6 1_555 1_555
C27 C26 1_555 1_555
H17 C27 1_555 1_555
C28 C27 1_555 1_555
H18 C28 1_555 1_555
C29 C28 1_555 1_555
H19 C29 1_555 1_555
C30 N6 1_555 1_555
H20 C30 1_555 1_555
Cu1A O2 1_555 1_555
Cu2A O6 1_555 1_555
O2A Cu1 1_555 1_555
O6A Cu2 1_555 1_555
C4 C5 1_555 1_555
C5 C6 1_555 1_555
C9 C10 1_555 1_555
C10 C11 1_555 1_555
C14 C15 1_555 1_555
C19 C20 1_555 1_555
C20 C21 1_555 1_555
C22 C23 1_555 1_555
C24 C25 1_555 1_555
C25 C26 1_555 1_555
C29 C30 1_555 1_555

#END
