
#######################################################################
#
#                 Cambridge Crystallographic Data Centre
#                                CCDC 
#
#######################################################################
#
# If this CIF has been generated from an entry in the Cambridge 
# Structural Database, then it will include bibliographic, chemical, 
# crystal, experimental, refinement or atomic coordinate data resulting 
# from the CCDC's data processing and validation procedures.
#
#######################################################################

data_WIKKOR
_symmetry_cell_setting           monoclinic
_symmetry_space_group_name_H-M   'P 21/n'
_symmetry_Int_Tables_number      14
_space_group_name_Hall           '-P 2yn'
loop_
_symmetry_equiv_pos_site_id
_symmetry_equiv_pos_as_xyz
1 x,y,z
2 1/2-x,1/2+y,1/2-z
3 -x,-y,-z
4 1/2+x,1/2-y,1/2+z
_cell_length_a                   10.1177(6)
_cell_length_b                   22.9781(14)
_cell_length_c                   10.5128(7)
_cell_angle_alpha                90
_cell_angle_beta                 95.228(3)
_cell_angle_gamma                90
_cell_volume                     2433.91
loop_
_atom_site_label
_atom_site_type_symbol
_atom_site_fract_x
_atom_site_fract_y
_atom_site_fract_z
Ni1 Ni 0.35464(3) 0.243290(12) 0.75787(3)
C1 C 0.0820(2) 0.28055(9) 0.6598(2)
C2 C -0.0077(2) 0.33068(9) 0.6187(2)
C3 C -0.1374(2) 0.33034(10) 0.6537(2)
H1 H -0.1671 0.2990 0.6992
C4 C -0.2225(2) 0.37651(11) 0.6210(3)
H2 H -0.3086 0.3762 0.6455
C5 C -0.1796(2) 0.42264(10) 0.5524(3)
H3 H -0.2366 0.4535 0.5304
C6 C -0.0510(2) 0.42304(9) 0.5160(2)
H4 H -0.0231 0.4543 0.4689
C7 C 0.0370(2) 0.37761(9) 0.5485(2)
C8 C 0.1288(2) 0.29028(9) 0.3650(2)
C9 C 0.2177(2) 0.33877(9) 0.4186(2)
C10 C 0.3458(2) 0.34235(11) 0.3801(3)
H5 H 0.3748 0.3146 0.3245
C11 C 0.4306(2) 0.38721(12) 0.4245(3)
H6 H 0.5154 0.3899 0.3977
C12 C 0.3874(2) 0.42757(11) 0.5087(3)
H7 H 0.4440 0.4573 0.5395
C13 C 0.2604(2) 0.42418(10) 0.5478(2)
H8 H 0.2327 0.4518 0.6043
C14 C 0.1735(2) 0.37982(9) 0.5035(2)
O1 O 0.36181(17) 0.20896(8) 0.57267(18)
H9 H 0.4290 0.2206 0.5426
H10 H 0.3022(17) 0.2221(14) 0.519(3)
O2 O 0.19776(15) 0.29340(7) 0.70300(17)
O3 O 0.03462(17) 0.22979(7) 0.64985(19)
O4 O 0.34441(16) 0.28291(7) 0.93917(18)
H11 H 0.3487 0.3184 0.9318
H12 H 0.400(3) 0.2759(11) 1.001(2)
O5 O 0.22950(17) 0.17380(7) 0.79510(18)
H13 H 0.1553 0.1796 0.7591
H14 H 0.253(2) 0.1423(9) 0.775(3)
O6 O 0.01403(15) 0.30504(7) 0.31843(17)
O7 O 0.47905(18) 0.31215(8) 0.71771(19)
H15 H 0.5527 0.3072 0.7555
H16 H 0.485(3) 0.3122(16) 0.6436(14)
O8 O 0.17342(17) 0.23943(7) 0.36864(19)
Ni1C Ni -0.14536(3) 0.256710(12) 0.25787(3)
O6C O 0.51403(15) 0.19496(7) 0.81843(17)
C15 C 0.5026(3) 0.06852(11) 0.7025(3)
H17 H 0.4928 0.1076 0.7223
C16 C 0.6244(3) 0.04821(11) 0.6755(3)
H18 H 0.6957 0.0738 0.6770
C17 C 0.6430(2) -0.01049(10) 0.6456(2)
C18 C 0.5307(2) -0.04564(10) 0.6425(2)
H19 H 0.5379 -0.0848 0.6220
C19 C 0.4096(2) -0.02418(11) 0.6687(2)
H20 H 0.3361 -0.0487 0.6644
C20 C 1.0143(2) -0.02756(11) 0.6469(3)
H21 H 1.0908 -0.0079 0.6780
C21 C 0.8923(2) -0.00514(11) 0.6667(3)
H22 H 0.8875 0.0297 0.7110
C22 C 0.7749(2) -0.03354(10) 0.6218(2)
C23 C 0.7896(2) -0.08539(10) 0.5547(3)
H23 H 0.7145 -0.1057 0.5221
C24 C 0.9128(2) -0.10670(11) 0.5363(3)
H24 H 0.9199 -0.1413 0.4915
O9 O 0.28101(18) 0.05246(8) 0.7318(2)
O10 O 1.14288(18) -0.09908(8) 0.5634(3)
N1 N 0.3965(2) 0.03265(9) 0.7009(2)
N2 N 1.0245(2) -0.07830(9) 0.5821(2)
O11 O 0.0919(3) 0.24655(15) 0.9901(3)
H25 H 0.126(5) 0.2803(14) 1.008(6)
H26 H 0.128(19) 0.239(6) 0.924(13)
loop_
_geom_bond_atom_site_label_1
_geom_bond_atom_site_label_2
_geom_bond_site_symmetry_1
_geom_bond_site_symmetry_2
Ni1 O1 1_555 1_555
C1 C2 1_555 1_555
C2 C3 1_555 1_555
C3 H1 1_555 1_555
C4 C3 1_555 1_555
H2 C4 1_555 1_555
C5 C4 1_555 1_555
H3 C5 1_555 1_555
C6 C5 1_555 1_555
H4 C6 1_555 1_555
C7 C2 1_555 1_555
C8 C9 1_555 1_555
C9 C10 1_555 1_555
C10 H5 1_555 1_555
C11 C10 1_555 1_555
H6 C11 1_555 1_555
C12 C11 1_555 1_555
H7 C12 1_555 1_555
C13 C12 1_555 1_555
H8 C13 1_555 1_555
C14 C7 1_555 1_555
O1 H9 1_555 1_555
H10 O1 1_555 1_555
O2 Ni1 1_555 1_555
O3 C1 1_555 1_555
O4 Ni1 1_555 1_555
H11 O4 1_555 1_555
H12 O4 1_555 1_555
O5 Ni1 1_555 1_555
H13 O5 1_555 1_555
H14 O5 1_555 1_555
O6 C8 1_555 1_555
O7 Ni1 1_555 1_555
H15 O7 1_555 1_555
H16 O7 1_555 1_555
O8 C8 1_555 1_555
C15 H17 1_555 1_555
C16 C15 1_555 1_555
H18 C16 1_555 1_555
C17 C16 1_555 1_555
C18 C17 1_555 1_555
H19 C18 1_555 1_555
C19 C18 1_555 1_555
H20 C19 1_555 1_555
C20 H21 1_555 1_555
C21 C20 1_555 1_555
H22 C21 1_555 1_555
C22 C17 1_555 1_555
C23 C22 1_555 1_555
H23 C23 1_555 1_555
C24 C23 1_555 1_555
H24 C24 1_555 1_555
O9 N1 1_555 1_555
O10 N2 1_555 1_555
N1 C15 1_555 1_555
N2 C20 1_555 1_555
O11 H25 1_555 1_555
H26 O11 1_555 1_555
Ni1C O6 1_555 1_555
O6C Ni1 1_555 1_555
C1 O2 1_555 1_555
C6 C7 1_555 1_555
C9 C14 1_555 1_555
C13 C14 1_555 1_555
C19 N1 1_555 1_555
C21 C22 1_555 1_555
C24 N2 1_555 1_555

#END
