
#######################################################################
#
#                 Cambridge Crystallographic Data Centre
#                                CCDC 
#
#######################################################################
#
# If this CIF has been generated from an entry in the Cambridge 
# Structural Database, then it will include bibliographic, chemical, 
# crystal, experimental, refinement or atomic coordinate data resulting 
# from the CCDC's data processing and validation procedures.
#
#######################################################################

data_WILHUW
_symmetry_cell_setting           hexagonal
_symmetry_space_group_name_H-M   'P 65 2 2'
_symmetry_Int_Tables_number      179
_space_group_name_Hall           "P 65 2' (0,0,1)"
loop_
_symmetry_equiv_pos_site_id
_symmetry_equiv_pos_as_xyz
1 x,y,z
2 x-y,x,5/6+z
3 -y,x-y,2/3+z
4 -x,-y,1/2+z
5 -x+y,-x,1/3+z
6 y,-x+y,1/6+z
7 x-y,-y,-z
8 -x,-x+y,1/3-z
9 y,x,2/3-z
10 -y,-x,1/6-z
11 -x+y,y,1/2-z
12 x,x-y,5/6-z
_cell_length_a                   11.2503(1)
_cell_length_b                   11.2503(1)
_cell_length_c                   59.7860(11)
_cell_angle_alpha                90
_cell_angle_beta                 90
_cell_angle_gamma                120
_cell_volume                     6553.27
loop_
_atom_site_label
_atom_site_type_symbol
_atom_site_fract_x
_atom_site_fract_y
_atom_site_fract_z
O10 O -0.8825(6) -0.8077(6) 0.32121(8)
N2 N -1.0217(6) -1.0217(6) 0.3333
C16 C -0.9021(7) -0.9021(7) 0.3333
C17 C -1.0437(9) -1.1343(7) 0.34742(13)
H15 H -1.0311 -1.2008 0.3387
H16 H -1.1373 -1.1789 0.3534
H17 H -0.9778 -1.1001 0.3598
O10H O -0.8077(6) -0.8825(6) 0.34546(8)
C17H C -1.1343(7) -1.0437(9) 0.31925(13)
H15H H -1.2008 -1.0311 0.3280
H16H H -1.1789 -1.1373 0.3133
H17H H -1.1001 -0.9778 0.3069
Zn1 Zn -0.10095(4) -0.57304(4) 0.204404(5)
Zn2 Zn -0.28235(2) -0.56471(5) 0.2500
O1 O -0.1428(2) -0.7423(2) 0.22147(3)
O2 O -0.2363(3) -0.7204(2) 0.25320(3)
O3 O -0.4164(2) -1.3884(2) 0.28233(3)
O4 O -0.3477(3) -0.9196(3) 0.28164(4)
H1 H -0.3242 -0.8413 0.2766
O5 O -0.2076(3) -1.2079(3) 0.22261(4)
H2 H -0.2138 -1.2781 0.2287
O6 O -0.3352(3) -1.4125(2) 0.24944(3)
O7 O -0.2679(2) -0.5575(2) 0.21564(3)
O8 O -0.2076(2) -0.6134(2) 0.17576(3)
O9 O 0.0609(2) -0.5802(3) 0.18991(4)
N1 N -0.5279(3) -0.6251(3) 0.16368(4)
C1 C -0.2021(3) -0.7862(3) 0.24000(4)
C2 C -0.2384(3) -0.9272(3) 0.24681(4)
C3 C -0.3110(4) -0.9879(3) 0.26689(5)
C4 C -0.3446(4) -1.1204(3) 0.27196(5)
H3 H -0.3906 -1.1596 0.2856
C5 C -0.3136(3) -1.1982(3) 0.25774(4)
C6 C -0.2411(4) -1.1383(3) 0.23778(4)
C7 C -0.2034(3) -1.0043(3) 0.23295(5)
H4 H -0.1520 -0.9633 0.2198
C8 C -0.3576(3) -1.3433(3) 0.26383(5)
C9 C -0.3541(3) -0.5754(3) 0.19942(4)
C10 C -0.3208(3) -0.6079(3) 0.17779(4)
C11 C -0.4119(4) -0.6327(4) 0.16024(5)
C12 C -0.5567(4) -0.5921(4) 0.18378(5)
H5 H -0.6372 -0.5856 0.1855
C13 C -0.4716(3) -0.5676(4) 0.20186(5)
H6 H -0.4940 -0.5453 0.2160
C14 C -0.3897(4) -0.6762(4) 0.13741(5)
H7 H -0.4461 -0.7761 0.1360
H8 H -0.2927 -0.6486 0.1356
H9 H -0.4159 -0.6320 0.1258
C15 C -0.6254(4) -0.6523(5) 0.14519(6)
H10 H -0.7023 -0.6425 0.1506
H11 H -0.6602 -0.7458 0.1396
H12 H -0.5786 -0.5866 0.1331
H13 H 0.117(4) -0.511(4) 0.1788(6)
H14 H 0.087(8) -0.649(5) 0.1870(12)
Zn1J Zn -0.47209(6) -0.57304(4) 0.295596(5)
O1J O -0.5995(3) -0.7423(2) 0.27853(3)
O2J O -0.4841(4) -0.7204(2) 0.24680(3)
O3J O -0.9720(3) -1.3884(2) 0.21767(3)
O4J O -0.5719(4) -0.9196(3) 0.21836(4)
H1J H -0.5171 -0.8413 0.2234
O5J O -1.0003(4) -1.2079(3) 0.27739(4)
H2J H -1.0643 -1.2781 0.2713
O6J O -1.0773(4) -1.4125(2) 0.25056(3)
O7J O -0.2896(3) -0.5575(2) 0.28436(3)
O8J O -0.4058(3) -0.6134(2) 0.32424(3)
O9J O -0.6411(4) -0.5802(3) 0.31009(4)
N1J N -0.0972(4) -0.6251(3) 0.33632(4)
C1J C -0.5841(4) -0.7862(3) 0.26000(4)
C2J C -0.6888(4) -0.9272(3) 0.25319(4)
C3J C -0.6769(5) -0.9879(3) 0.23311(5)
C4J C -0.7758(5) -1.1204(3) 0.22804(5)
H3J H -0.7690 -1.1596 0.2144
C5J C -0.8846(4) -1.1982(3) 0.24226(4)
C6J C -0.8972(5) -1.1383(3) 0.26222(4)
C7J C -0.8009(4) -1.0043(3) 0.26705(5)
H4J H -0.8113 -0.9633 0.2802
C8J C -0.9857(4) -1.3433(3) 0.23617(5)
C9J C -0.2213(4) -0.5754(3) 0.30058(4)
C10J C -0.2871(4) -0.6079(3) 0.32221(4)
C11J C -0.2208(6) -0.6327(4) 0.33976(5)
C12J C -0.0354(6) -0.5921(4) 0.31622(5)
H5J H 0.0516 -0.5856 0.3145
C13J C -0.0960(5) -0.5676(4) 0.29814(5)
H6J H -0.0513 -0.5453 0.2840
C14J C -0.2865(6) -0.6762(4) 0.36259(5)
H7J H -0.3300 -0.7761 0.3640
H8J H -0.3559 -0.6486 0.3644
H9J H -0.2161 -0.6320 0.3742
C15J C -0.0269(6) -0.6523(5) 0.35481(6)
H10J H 0.0598 -0.6425 0.3494
H11J H -0.0856 -0.7458 0.3604
H12J H -0.0080 -0.5866 0.3669
H13J H -0.628(6) -0.511(4) 0.3212(6)
H14J H -0.736(9) -0.649(5) 0.3130(12)
Zn1_2 Zn -1.10095(4) -1.57304(4) 0.204404(5)
Zn1J_2 Zn -0.47209(6) -1.57304(4) 0.295596(5)
Zn2_2 Zn -1.28235(2) -1.56471(5) 0.2500
Zn2_3 Zn -0.28235(2) -1.56471(5) 0.2500
O3_2 O -0.4164(2) -0.3884(2) 0.28233(3)
O3J_2 O 0.0280(3) -0.3884(2) 0.21767(3)
O6_2 O -0.3352(3) -0.4125(2) 0.24944(3)
O6J_2 O -0.0773(4) -0.4125(2) 0.25056(3)
H18? H 0.1722 -0.4997 0.2451
H19? H 0.3115 -0.4997 0.2397
H20? H 0.2668 -0.4997 0.2651
O11? O 0.1805(6) -0.6969(7) 0.21200(8)
N3? N 0.1588(3) -0.6824(5) 0.2500
C18? C 0.1474(5) -0.7518(5) 0.23021(6)
H21? H 0.1116 -0.8482 0.2310
C19? C 0.2334(4) -0.5332(8) 0.2500
loop_
_geom_bond_atom_site_label_1
_geom_bond_atom_site_label_2
_geom_bond_site_symmetry_1
_geom_bond_site_symmetry_2
Zn1 O1 1_555 1_555
Zn2 O2 1_555 1_555
O1 C1 1_555 1_555
O2 C1 1_555 1_555
O3 C8 1_555 1_555
O4 H1 1_555 1_555
O5 H2 1_555 1_555
O6 C8 1_555 1_555
O7 Zn1 1_555 1_555
O8 Zn1 1_555 1_555
O9 Zn1 1_555 1_555
N1 C11 1_555 1_555
C1 C2 1_555 1_555
C2 C3 1_555 1_555
C3 O4 1_555 1_555
C4 C3 1_555 1_555
H3 C4 1_555 1_555
C5 C4 1_555 1_555
C6 O5 1_555 1_555
C7 C2 1_555 1_555
H4 C7 1_555 1_555
C8 C5 1_555 1_555
C9 O7 1_555 1_555
C10 O8 1_555 1_555
C11 C10 1_555 1_555
C12 N1 1_555 1_555
H5 C12 1_555 1_555
C13 C9 1_555 1_555
H6 C13 1_555 1_555
C14 C11 1_555 1_555
H7 C14 1_555 1_555
H8 C14 1_555 1_555
H9 C14 1_555 1_555
C15 N1 1_555 1_555
H10 C15 1_555 1_555
H11 C15 1_555 1_555
H12 C15 1_555 1_555
H13 O9 1_555 1_555
H14 O9 1_555 1_555
O10 C16 1_555 1_555
N2 C16 1_555 1_555
C16 O10H 1_555 1_555
C17 N2 1_555 1_555
H15 C17 1_555 1_555
H16 C17 1_555 1_555
H17 C17 1_555 1_555
Zn1J O1J 1_555 1_555
O1J C1J 1_555 1_555
O2J Zn2 1_555 1_555
O3J C8J 1_555 1_555
O4J H1J 1_555 1_555
O5J H2J 1_555 1_555
O6J C8J 1_555 1_555
O7J Zn2 1_555 1_555
O8J Zn1J 1_555 1_555
O9J Zn1J 1_555 1_555
N1J C11J 1_555 1_555
C1J O2J 1_555 1_555
C2J C1J 1_555 1_555
C3J O4J 1_555 1_555
C4J C3J 1_555 1_555
H3J C4J 1_555 1_555
C5J C4J 1_555 1_555
C6J O5J 1_555 1_555
C7J C2J 1_555 1_555
H4J C7J 1_555 1_555
C8J C5J 1_555 1_555
C9J O7J 1_555 1_555
C10J O8J 1_555 1_555
C11J C10J 1_555 1_555
C12J N1J 1_555 1_555
H5J C12J 1_555 1_555
C13J C9J 1_555 1_555
H6J C13J 1_555 1_555
C14J C11J 1_555 1_555
H7J C14J 1_555 1_555
H8J C14J 1_555 1_555
H9J C14J 1_555 1_555
C15J N1J 1_555 1_555
H10J C15J 1_555 1_555
H11J C15J 1_555 1_555
H12J C15J 1_555 1_555
H13J O9J 1_555 1_555
H14J O9J 1_555 1_555
Zn1_2 O3J 1_555 1_555
Zn1J_2 O3 1_555 1_555
Zn2_2 O6J 1_555 1_555
Zn2_3 O6 1_555 1_555
O3_2 Zn1J 1_555 1_555
O3J_2 Zn1 1_555 1_555
O6_2 Zn2 1_555 1_555
O6J_2 Zn2 1_555 1_555
C17H N2 1_555 1_555
H15H C17H 1_555 1_555
H16H C17H 1_555 1_555
H17H C17H 1_555 1_555
Zn2 O7 1_555 1_555
C5 C6 1_555 1_555
C6 C7 1_555 1_555
C9 C10 1_555 1_555
C12 C13 1_555 1_555
Zn1J O7J 1_555 1_555
C2J C3J 1_555 1_555
C5J C6J 1_555 1_555
C6J C7J 1_555 1_555
C9J C10J 1_555 1_555
C12J C13J 1_555 1_555

#END
