
#######################################################################
#
#                 Cambridge Crystallographic Data Centre
#                                CCDC 
#
#######################################################################
#
# If this CIF has been generated from an entry in the Cambridge 
# Structural Database, then it will include bibliographic, chemical, 
# crystal, experimental, refinement or atomic coordinate data resulting 
# from the CCDC's data processing and validation procedures.
#
#######################################################################

data_WILPUD
_symmetry_cell_setting           monoclinic
_symmetry_space_group_name_H-M   'P 21/c'
_symmetry_Int_Tables_number      14
_space_group_name_Hall           '-P 2ybc'
loop_
_symmetry_equiv_pos_site_id
_symmetry_equiv_pos_as_xyz
1 x,y,z
2 -x,1/2+y,1/2-z
3 -x,-y,-z
4 x,1/2-y,1/2+z
_cell_length_a                   7.7814(16)
_cell_length_b                   24.643(5)
_cell_length_c                   13.928(3)
_cell_angle_alpha                90
_cell_angle_beta                 103.83(3)
_cell_angle_gamma                90
_cell_volume                     2593.36
loop_
_atom_site_label
_atom_site_type_symbol
_atom_site_fract_x
_atom_site_fract_y
_atom_site_fract_z
C1 C 0.4687(8) 0.3271(2) -0.0052(5)
H1 H 0.5134 0.2920 -0.0035
C2 C 0.3550(9) 0.3448(2) -0.0918(5)
H2 H 0.3254 0.3223 -0.1469
C3 C 0.2869(8) 0.3964(2) -0.0944(5)
H3 H 0.2114 0.4095 -0.1519
C4 C 0.3323(7) 0.42892(19) -0.0102(5)
C5 C 0.4511(7) 0.40884(19) 0.0726(5)
C6 C 0.5136(7) 0.44330(19) 0.1601(4)
C7 C 0.6992(8) 0.4533(2) 0.3130(5)
H4 H 0.7842 0.4390 0.3655
C8 C 0.6465(8) 0.5065(2) 0.3189(5)
H5 H 0.6962 0.5274 0.3740
C9 C 0.5223(8) 0.5277(2) 0.2439(5)
H6 H 0.4836 0.5632 0.2475
C10 C 0.4526(7) 0.4961(2) 0.1610(4)
C11 C 0.3207(7) 0.51730(19) 0.0756(5)
C12 C 0.2624(7) 0.48413(19) -0.0094(4)
C13 C 0.0830(7) 0.5529(2) -0.0842(5)
C14 C 0.1434(7) 0.5862(2) 0.0000(5)
C15 C 0.0770(8) 0.6401(2) 0.0014(5)
H7 H 0.1169 0.6625 0.0560
C16 C -0.0450(8) 0.6578(3) -0.0785(6)
H8 H -0.0871 0.6931 -0.0788
C17 C -0.1104(8) 0.6245(3) -0.1609(6)
H9 H -0.1986 0.6375 -0.2132
C18 C -0.0460(7) 0.5736(2) -0.1651(5)
H10 H -0.0869 0.5523 -0.2210
C19 C 0.5246(7) 0.3195(2) 0.3750(4)
C20 C 0.3907(7) 0.3204(2) 0.4354(4)
C21 C 0.2273(7) 0.2944(2) 0.3976(5)
H11 H 0.2055 0.2783 0.3355
C22 C 0.1001(8) 0.2923(2) 0.4504(5)
H12 H -0.0063 0.2745 0.4244
C23 C 0.1293(9) 0.3164(3) 0.5419(6)
H13 H 0.0426 0.3156 0.5776
C24 C 0.2895(8) 0.3417(2) 0.5798(5)
H14 H 0.3087 0.3581 0.6416
C25 C 0.4225(7) 0.3437(2) 0.5293(5)
C26 C 0.5873(8) 0.3736(2) 0.5758(4)
C27 C 0.6104(8) 0.4259(2) 0.5426(5)
H15 H 0.5281 0.4401 0.4888
C28 C 0.7559(9) 0.4570(2) 0.5894(5)
H16 H 0.7712 0.4914 0.5652
C29 C 0.8762(9) 0.4379(2) 0.6702(6)
H17 H 0.9711 0.4594 0.7020
C30 C 0.7090(8) 0.2969(2) 0.6957(5)
C31 C 0.7141(7) 0.35394(19) 0.6570(5)
C32 C 0.8548(8) 0.3863(2) 0.7040(5)
H18 H 0.9361 0.3730 0.7592
N1 N 0.5173(6) 0.35735(16) 0.0752(4)
N2 N 0.6340(6) 0.42190(17) 0.2360(4)
N3 N 0.1443(6) 0.50142(16) -0.0883(4)
N4 N 0.2641(6) 0.56786(17) 0.0796(4)
O1 O 0.6841(5) 0.32919(17) 0.4129(3)
O2 O 0.4713(5) 0.30956(15) 0.2820(3)
O3 O 0.6245(6) 0.26126(14) 0.6386(3)
O4 O 0.7925(7) 0.28604(16) 0.7806(4)
Pb1 Pb 0.73137(3) 0.317273(8) 0.233552(17)
O3C O 0.6245(6) 0.23874(14) 0.1386(3)
O4C O 0.7925(7) 0.21396(16) 0.2806(4)
Pb1C Pb 0.73137(3) 0.182727(8) 0.733552(17)
loop_
_geom_bond_atom_site_label_1
_geom_bond_atom_site_label_2
_geom_bond_site_symmetry_1
_geom_bond_site_symmetry_2
C1 H1 1_555 1_555
C2 C1 1_555 1_555
H2 C2 1_555 1_555
C3 C2 1_555 1_555
H3 C3 1_555 1_555
C4 C3 1_555 1_555
C5 C4 1_555 1_555
C6 C5 1_555 1_555
C7 H4 1_555 1_555
C8 C7 1_555 1_555
H5 C8 1_555 1_555
C9 C8 1_555 1_555
H6 C9 1_555 1_555
C10 C6 1_555 1_555
C11 C10 1_555 1_555
C12 C4 1_555 1_555
C13 C14 1_555 1_555
C14 C15 1_555 1_555
C15 H7 1_555 1_555
C16 C15 1_555 1_555
H8 C16 1_555 1_555
C17 C16 1_555 1_555
H9 C17 1_555 1_555
C18 C13 1_555 1_555
H10 C18 1_555 1_555
C19 C20 1_555 1_555
C20 C21 1_555 1_555
C21 H11 1_555 1_555
C22 C21 1_555 1_555
H12 C22 1_555 1_555
C23 C22 1_555 1_555
H13 C23 1_555 1_555
C24 C23 1_555 1_555
H14 C24 1_555 1_555
C25 C20 1_555 1_555
C26 C25 1_555 1_555
C27 C26 1_555 1_555
H15 C27 1_555 1_555
C28 C27 1_555 1_555
H16 C28 1_555 1_555
C29 C28 1_555 1_555
H17 C29 1_555 1_555
C30 C31 1_555 1_555
C31 C26 1_555 1_555
C32 C29 1_555 1_555
H18 C32 1_555 1_555
N1 C1 1_555 1_555
N2 C6 1_555 1_555
N3 C12 1_555 1_555
N4 C11 1_555 1_555
O1 C19 1_555 1_555
O2 C19 1_555 1_555
O3 C30 1_555 1_555
O4 C30 1_555 1_555
Pb1 N1 1_555 1_555
O3C Pb1 1_555 1_555
O4C Pb1 1_555 1_555
Pb1C O3 1_555 1_555
C5 N1 1_555 1_555
C7 N2 1_555 1_555
C9 C10 1_555 1_555
C11 C12 1_555 1_555
C13 N3 1_555 1_555
C14 N4 1_555 1_555
C17 C18 1_555 1_555
C24 C25 1_555 1_555
C31 C32 1_555 1_555
N2 Pb1 1_555 1_555
O1 Pb1 1_555 1_555
O2 Pb1 1_555 1_555
O4 Pb1C 1_555 1_555

#END
