
#######################################################################
#
#                 Cambridge Crystallographic Data Centre
#                                CCDC 
#
#######################################################################
#
# If this CIF has been generated from an entry in the Cambridge 
# Structural Database, then it will include bibliographic, chemical, 
# crystal, experimental, refinement or atomic coordinate data resulting 
# from the CCDC's data processing and validation procedures.
#
#######################################################################

data_WILTIU
_symmetry_cell_setting           monoclinic
_symmetry_space_group_name_H-M   'C 2/c'
_symmetry_Int_Tables_number      15
_space_group_name_Hall           '-C 2yn'
loop_
_symmetry_equiv_pos_site_id
_symmetry_equiv_pos_as_xyz
1 x,y,z
2 -x,y,1/2-z
3 1/2+x,1/2+y,z
4 1/2-x,1/2+y,1/2-z
5 -x,-y,-z
6 x,-y,1/2+z
7 1/2-x,1/2-y,-z
8 1/2+x,1/2-y,1/2+z
_cell_length_a                   9.098(3)
_cell_length_b                   17.871(5)
_cell_length_c                   14.610(1)
_cell_angle_alpha                90
_cell_angle_beta                 99.44(6)
_cell_angle_gamma                90
_cell_volume                     2343.28
loop_
_atom_site_label
_atom_site_type_symbol
_atom_site_fract_x
_atom_site_fract_y
_atom_site_fract_z
Zn1 Zn 0.0000 0.2152(2) 0.2500
S1 S 0.3542(5) 0.3592(3) 0.4184(3)
S2 S 0.0339(7) 0.3742(4) 0.4869(4)
O1 O 0.3568(2) 0.3790(9) 0.5148(1)
O2 O 0.4885(2) 0.3254(9) 0.3962(1)
N1 N 0.3142(2) 0.6485(9) 0.2098(1)
N2 N 0.2208(2) 0.3060(9) 0.3773(1)
N3 N -0.0303(2) 0.2766(8) 0.3584(1)
C1 C 0.3124(2) 0.5778(1) 0.2578(1)
C2 C 0.3032(3) 0.5104(1) 0.2109(1)
C3 C 0.3135(3) 0.4438(1) 0.2599(2)
C4 C 0.3298(2) 0.4447(1) 0.3557(1)
C5 C 0.3385(3) 0.5118(1) 0.4030(1)
C6 C 0.3316(3) 0.5783(1) 0.3541(1)
C7 C 0.0853(2) 0.3155(9) 0.4019(1)
C8 C -0.1607(2) 0.2924(1) 0.3919(1)
C9 C -0.1485(3) 0.3434(1) 0.4592(2)
Zn1B Zn 0.5000 0.7152(2) 0.2500
N1B N -0.1858(2) 0.1485(9) 0.2098(1)
N1C N 0.1858(2) 0.1485(9) 0.2902(1)
C1C C 0.1876(2) 0.0778(1) 0.2422(1)
C2C C 0.1968(3) 0.0104(1) 0.2891(1)
C3C C 0.1865(3) -0.0562(1) 0.2401(2)
C4C C 0.1702(2) -0.0553(1) 0.1443(1)
S1C S 0.1458(5) -0.1408(3) 0.0816(3)
O1C O 0.1432(2) -0.1210(9) -0.0148(1)
O2C O 0.0115(2) -0.1746(9) 0.1038(1)
N2C N 0.2792(2) -0.1940(9) 0.1227(1)
C7C C 0.4147(2) -0.1845(9) 0.0981(1)
S2C S 0.4661(7) -0.1258(4) 0.0131(4)
C9C C 0.6485(3) -0.1566(1) 0.0408(2)
C8C C 0.6607(2) -0.2076(1) 0.1081(1)
N3C N 0.5303(2) -0.2234(8) 0.1416(1)
Zn1B_2 Zn 0.5000 -0.2848(2) 0.2500
C5C C 0.1615(3) 0.0118(1) 0.0970(1)
C6C C 0.1684(3) 0.0783(1) 0.1459(1)
N3A N 0.0303(2) 0.2766(8) 0.1416(1)
O3 O 0.5000 0.2195(2) 0.2500
loop_
_geom_bond_atom_site_label_1
_geom_bond_atom_site_label_2
_geom_bond_site_symmetry_1
_geom_bond_site_symmetry_2
Zn1 N3 1_555 1_555
S1 O1 1_555 1_555
S2 C7 1_555 1_555
O2 S1 1_555 1_555
N1 C1 1_555 1_555
N2 S1 1_555 1_555
N3 C7 1_555 1_555
C1 C2 1_555 1_555
C2 C3 1_555 1_555
C3 C4 1_555 1_555
C4 S1 1_555 1_555
C5 C4 1_555 1_555
C6 C1 1_555 1_555
C7 N2 1_555 1_555
C8 N3 1_555 1_555
C9 S2 1_555 1_555
Zn1B N1 1_555 1_555
N1B Zn1 1_555 1_555
N1C Zn1 1_555 1_555
C1C N1C 1_555 1_555
C2C C1C 1_555 1_555
C3C C2C 1_555 1_555
C4C C3C 1_555 1_555
S1C C4C 1_555 1_555
O1C S1C 1_555 1_555
O2C S1C 1_555 1_555
N2C S1C 1_555 1_555
C7C N2C 1_555 1_555
S2C C7C 1_555 1_555
C9C S2C 1_555 1_555
C8C C9C 1_555 1_555
N3C C7C 1_555 1_555
Zn1B_2 N3C 1_555 1_555
C5C C4C 1_555 1_555
C6C C1C 1_555 1_555
N3A Zn1 1_555 1_555
C5 C6 1_555 1_555
C8 C9 1_555 1_555
C8C N3C 1_555 1_555
C5C C6C 1_555 1_555

#END
