
#######################################################################
#
#                 Cambridge Crystallographic Data Centre
#                                CCDC 
#
#######################################################################
#
# If this CIF has been generated from an entry in the Cambridge 
# Structural Database, then it will include bibliographic, chemical, 
# crystal, experimental, refinement or atomic coordinate data resulting 
# from the CCDC's data processing and validation procedures.
#
#######################################################################

data_WILWUL
_symmetry_cell_setting           triclinic
_symmetry_space_group_name_H-M   'P -1'
_symmetry_Int_Tables_number      2
_space_group_name_Hall           '-P 1'
loop_
_symmetry_equiv_pos_site_id
_symmetry_equiv_pos_as_xyz
1 x,y,z
2 -x,-y,-z
_cell_length_a                   8.350(6)
_cell_length_b                   8.632(6)
_cell_length_c                   9.444(7)
_cell_angle_alpha                89.466(9)
_cell_angle_beta                 68.867(8)
_cell_angle_gamma                84.553(8)
_cell_volume                     631.823
loop_
_atom_site_label
_atom_site_type_symbol
_atom_site_fract_x
_atom_site_fract_y
_atom_site_fract_z
Co1 Co 0.5000 0.5000 0.0000
O1 O 0.5415(2) 0.1457(2) 0.1433(2)
O2 O 0.3022(2) 0.3441(2) 0.1117(2)
H1 H 0.3610 0.2604 0.1238
H2 H 0.3055 0.4401 0.0849
O3 O 0.6889(2) 0.32014(19) -0.01494(19)
N1 N 0.5003(3) 0.5805(2) 0.2118(2)
N2 N 0.4043(3) 0.7287(2) 0.4230(2)
C1 C 0.3706(3) 0.6700(3) 0.3065(3)
H3 H 0.2652 0.6909 0.2942
C2 C 0.5708(3) 0.6709(3) 0.4049(3)
C3 C 0.6700(3) 0.6910(3) 0.4918(3)
H4 H 0.6273 0.7506 0.5815
C4 C 0.8354(4) 0.6179(3) 0.4384(3)
H5 H 0.9068 0.6292 0.4930
C5 C 0.8983(3) 0.5276(3) 0.3047(3)
H6 H 1.0108 0.4802 0.2722
C6 C 0.7987(3) 0.5067(3) 0.2195(3)
H7 H 0.8417 0.4464 0.1303
C7 C 0.6310(3) 0.5792(3) 0.2718(3)
C8 C 0.2949(3) 0.8358(3) 0.5477(3)
H8 H 0.3644 0.9129 0.5636
H9 H 0.2535 0.7775 0.6401
C9 C 0.1423(3) 0.9181(3) 0.5198(3)
C10 C -0.0206(3) 0.9182(3) 0.6301(3)
H10 H -0.0352 0.8634 0.7184
C11 C -0.1616(3) 0.9987(3) 0.6107(3)
H11 H -0.2703 0.9972 0.6857
C12 C 0.6773(3) 0.1928(3) 0.0543(3)
C13 C 0.8449(3) 0.0923(3) 0.0253(3)
C14 C 1.0009(3) 0.1438(3) -0.0649(3)
H12 H 1.0024 0.2408 -0.1087
C15 C 0.8456(3) -0.0524(3) 0.0903(3)
H13 H 0.7420 -0.0882 0.1515
O1A O 1.4585(2) -0.1457(2) -0.1433(2)
O3A O 1.3111(2) -0.32014(19) 0.01494(19)
C12A C 1.3227(3) -0.1928(3) -0.0543(3)
C13A C 1.1551(3) -0.0923(3) -0.0253(3)
C14A C 0.9991(3) -0.1438(3) 0.0649(3)
H12A H 0.9976 -0.2408 0.1087
C15A C 1.1544(3) 0.0524(3) -0.0903(3)
H13A H 1.2580 0.0882 -0.1515
N1A N -0.5003(3) 1.4195(2) 0.7882(2)
N2A N -0.4043(3) 1.2713(2) 0.5770(2)
C1A C -0.3706(3) 1.3300(3) 0.6935(3)
H3A H -0.2652 1.3091 0.7058
C2A C -0.5708(3) 1.3291(3) 0.5951(3)
C3A C -0.6700(3) 1.3090(3) 0.5082(3)
H4A H -0.6273 1.2494 0.4185
C4A C -0.8354(4) 1.3821(3) 0.5616(3)
H5A H -0.9068 1.3708 0.5070
C5A C -0.8983(3) 1.4724(3) 0.6953(3)
H6A H -1.0108 1.5198 0.7278
C6A C -0.7987(3) 1.4933(3) 0.7805(3)
H7A H -0.8417 1.5536 0.8697
C7A C -0.6310(3) 1.4208(3) 0.7282(3)
C8A C -0.2949(3) 1.1642(3) 0.4523(3)
H8A H -0.3644 1.0871 0.4364
H9A H -0.2535 1.2225 0.3599
C9A C -0.1423(3) 1.0819(3) 0.4802(3)
C10A C 0.0206(3) 1.0818(3) 0.3699(3)
H10A H 0.0352 1.1366 0.2816
C11A C 0.1616(3) 1.0013(3) 0.3893(3)
H11A H 0.2703 1.0028 0.3143
O2A O 0.6978(2) 0.6559(2) -0.1117(2)
H1A H 0.6390 0.7396 -0.1238
H2A H 0.6945 0.5599 -0.0849
Co1_2 Co -0.5000 1.5000 1.0000
Co1_3 Co 1.5000 -0.5000 0.0000
O3A_2 O 0.3111(2) 0.67986(19) 0.01494(19)
N1A_2 N 0.4997(3) 0.4195(2) -0.2118(2)
loop_
_geom_bond_atom_site_label_1
_geom_bond_atom_site_label_2
_geom_bond_site_symmetry_1
_geom_bond_site_symmetry_2
Co1 O2 1_555 1_555
O1 C12 1_555 1_555
O2 H1 1_555 1_555
H2 O2 1_555 1_555
O3 Co1 1_555 1_555
N1 Co1 1_555 1_555
N2 C1 1_555 1_555
C1 N1 1_555 1_555
H3 C1 1_555 1_555
C2 N2 1_555 1_555
C3 C2 1_555 1_555
H4 C3 1_555 1_555
C4 C3 1_555 1_555
H5 C4 1_555 1_555
C5 C4 1_555 1_555
H6 C5 1_555 1_555
C6 C5 1_555 1_555
H7 C6 1_555 1_555
C7 N1 1_555 1_555
C8 N2 1_555 1_555
H8 C8 1_555 1_555
H9 C8 1_555 1_555
C9 C8 1_555 1_555
C10 C9 1_555 1_555
H10 C10 1_555 1_555
C11 C10 1_555 1_555
H11 C11 1_555 1_555
C12 O3 1_555 1_555
C13 C12 1_555 1_555
C14 C13 1_555 1_555
H12 C14 1_555 1_555
C15 C13 1_555 1_555
H13 C15 1_555 1_555
O1A C12A 1_555 1_555
O3A C12A 1_555 1_555
C12A C13A 1_555 1_555
C13A C14A 1_555 1_555
C14A C15 1_555 1_555
H12A C14A 1_555 1_555
C15A C14 1_555 1_555
H13A C15A 1_555 1_555
N1A C1A 1_555 1_555
N2A C1A 1_555 1_555
C1A H3A 1_555 1_555
C2A N2A 1_555 1_555
C3A C2A 1_555 1_555
H4A C3A 1_555 1_555
C4A C3A 1_555 1_555
H5A C4A 1_555 1_555
C5A C4A 1_555 1_555
H6A C5A 1_555 1_555
C6A C5A 1_555 1_555
H7A C6A 1_555 1_555
C7A N1A 1_555 1_555
C8A N2A 1_555 1_555
H8A C8A 1_555 1_555
H9A C8A 1_555 1_555
C9A C11 1_555 1_555
C10A C9A 1_555 1_555
H10A C10A 1_555 1_555
C11A C9 1_555 1_555
H11A C11A 1_555 1_555
O2A Co1 1_555 1_555
H1A O2A 1_555 1_555
H2A O2A 1_555 1_555
Co1_2 N1A 1_555 1_555
Co1_3 O3A 1_555 1_555
O3A_2 Co1 1_555 1_555
N1A_2 Co1 1_555 1_555
C2 C7 1_555 1_555
C6 C7 1_555 1_555
C13A C15A 1_555 1_555
C2A C7A 1_555 1_555
C6A C7A 1_555 1_555
C8A C9A 1_555 1_555
C10A C11A 1_555 1_555

#END
