
#######################################################################
#
#                 Cambridge Crystallographic Data Centre
#                                CCDC 
#
#######################################################################
#
# If this CIF has been generated from an entry in the Cambridge 
# Structural Database, then it will include bibliographic, chemical, 
# crystal, experimental, refinement or atomic coordinate data resulting 
# from the CCDC's data processing and validation procedures.
#
#######################################################################

data_WIMCAX
_symmetry_cell_setting           monoclinic
_symmetry_space_group_name_H-M   'C 2/c'
_symmetry_Int_Tables_number      15
_space_group_name_Hall           '-C 2yn'
loop_
_symmetry_equiv_pos_site_id
_symmetry_equiv_pos_as_xyz
1 x,y,z
2 1/2+x,1/2+y,z
3 -x,y,1/2-z
4 1/2-x,1/2+y,1/2-z
5 -x,-y,-z
6 1/2-x,1/2-y,-z
7 x,-y,1/2+z
8 1/2+x,1/2-y,1/2+z
_cell_length_a                   23.999(5)
_cell_length_b                   11.498(2)
_cell_length_c                   11.968(2)
_cell_angle_alpha                90
_cell_angle_beta                 95.26(3)
_cell_angle_gamma                90
_cell_volume                     3288.55
loop_
_atom_site_label
_atom_site_type_symbol
_atom_site_fract_x
_atom_site_fract_y
_atom_site_fract_z
Co1 Co 0.0000 0.24159(2) 0.7500
C1 C 0.11498(7) 0.24706(13) 0.66482(14)
C2 C 0.14691(6) 0.28308(14) 0.56703(13)
C3 C 0.15675(6) 0.40165(14) 0.55061(13)
C4 C 0.13979(7) 0.48946(15) 0.62528(14)
H1 H 0.1209 0.4680 0.6865
C5 C 0.15089(7) 0.60355(15) 0.60812(15)
H2 H 0.1399 0.6591 0.6582
C6 C 0.17902(8) 0.63888(16) 0.51458(16)
H3 H 0.1864 0.7173 0.5038
C7 C 0.19524(7) 0.55901(16) 0.44098(15)
H4 H 0.2132 0.5836 0.3795
C8 C 0.18538(7) 0.43803(15) 0.45598(14)
C9 C 0.20273(7) 0.35414(16) 0.38323(14)
H5 H 0.2214 0.3777 0.3223
C10 C 0.19313(7) 0.23629(15) 0.39831(14)
C11 C 0.21040(7) 0.14988(17) 0.32281(14)
H6 H 0.2289 0.1727 0.2615
C12 C 0.20034(7) 0.03561(17) 0.33884(15)
H7 H 0.2111 -0.0190 0.2877
C13 C 0.17339(7) -0.00114(16) 0.43341(15)
H8 H 0.1676 -0.0801 0.4447
C14 C 0.15590(7) 0.07747(15) 0.50792(14)
H9 H 0.1380 0.0516 0.5690
C15 C 0.16469(6) 0.19901(15) 0.49329(13)
C16 C -0.04779(7) -0.01003(14) 0.73458(13)
H10 H -0.0814 0.0306 0.7258
C17 C -0.04955(7) -0.13004(14) 0.73109(12)
H11 H -0.0835 -0.1684 0.7162
C18 C 0.0000 -0.19319(19) 0.7500
C19 C 0.0000 -0.32255(19) 0.7500
C20 C -0.03066(7) -0.38550(14) 0.66605(13)
H12 H -0.0521 -0.3470 0.6087
C21 C -0.02905(7) -0.50574(14) 0.66862(13)
H13 H -0.0491 -0.5464 0.6110
C22 C 0.05362(7) 0.17765(15) 0.98975(13)
H14 H 0.0859 0.1894 1.0421
H15 H 0.0498 0.0963 0.9726
H16 H 0.0208 0.2045 1.0221
N1 N 0.0000 0.05110(16) 0.7500
N2 N 0.0000 -0.56683(16) 0.7500
O1 O 0.06220(5) 0.24507(9) 0.64317(9)
O2 O 0.14150(5) 0.22388(10) 0.75674(9)
O3 O 0.06019(5) 0.24117(9) 0.88922(9)
H17 H 0.0894(9) 0.2289(16) 0.8621(17)
Co1_2 Co 0.0000 -0.75841(2) 0.7500
C1B C -0.11498(7) 0.24706(13) 0.83518(14)
C2B C -0.14691(6) 0.28308(14) 0.93297(13)
C3B C -0.15675(6) 0.40165(14) 0.94939(13)
C4B C -0.13979(7) 0.48946(15) 0.87472(14)
H1B H -0.1209 0.4680 0.8135
C5B C -0.15089(7) 0.60355(15) 0.89188(15)
H2B H -0.1399 0.6591 0.8418
C6B C -0.17902(8) 0.63888(16) 0.98542(16)
H3B H -0.1864 0.7173 0.9962
C7B C -0.19524(7) 0.55901(16) 1.05902(15)
H4B H -0.2132 0.5836 1.1205
C8B C -0.18538(7) 0.43803(15) 1.04402(14)
C9B C -0.20273(7) 0.35414(16) 1.11677(14)
H5B H -0.2214 0.3777 1.1777
C10B C -0.19313(7) 0.23629(15) 1.10169(14)
C11B C -0.21040(7) 0.14988(17) 1.17719(14)
H6B H -0.2289 0.1727 1.2385
C12B C -0.20034(7) 0.03561(17) 1.16116(15)
H7B H -0.2111 -0.0190 1.2123
C13B C -0.17339(7) -0.00114(16) 1.06659(15)
H8B H -0.1676 -0.0801 1.0553
C14B C -0.15590(7) 0.07747(15) 0.99208(14)
H9B H -0.1380 0.0516 0.9310
C15B C -0.16469(6) 0.19901(15) 1.00671(13)
C16B C 0.04779(7) -0.01003(14) 0.76542(13)
H10B H 0.0814 0.0306 0.7742
C17B C 0.04955(7) -0.13004(14) 0.76891(12)
H11B H 0.0835 -0.1684 0.7838
C20B C 0.03066(7) -0.38550(14) 0.83395(13)
H12B H 0.0521 -0.3470 0.8913
C21B C 0.02905(7) -0.50574(14) 0.83138(13)
H13B H 0.0491 -0.5464 0.8890
C22B C -0.05362(7) 0.17765(15) 0.51025(13)
H14B H -0.0859 0.1894 0.4579
H15B H -0.0498 0.0963 0.5274
H16B H -0.0208 0.2045 0.4779
N2_2 N 0.0000 0.43317(16) 0.7500
O1B O -0.06220(5) 0.24507(9) 0.85683(9)
O2B O -0.14150(5) 0.22388(10) 0.74326(9)
O3B O -0.06019(5) 0.24117(9) 0.61078(9)
H17B H -0.0894(9) 0.2289(16) 0.6379(17)
loop_
_geom_bond_atom_site_label_1
_geom_bond_atom_site_label_2
_geom_bond_site_symmetry_1
_geom_bond_site_symmetry_2
Co1 N1 1_555 1_555
C1 C2 1_555 1_555
C2 C3 1_555 1_555
C3 C4 1_555 1_555
C4 H1 1_555 1_555
C5 C4 1_555 1_555
H2 C5 1_555 1_555
C6 C5 1_555 1_555
H3 C6 1_555 1_555
C7 C6 1_555 1_555
H4 C7 1_555 1_555
C8 C3 1_555 1_555
C9 C8 1_555 1_555
H5 C9 1_555 1_555
C10 C9 1_555 1_555
C11 C10 1_555 1_555
H6 C11 1_555 1_555
C12 C11 1_555 1_555
H7 C12 1_555 1_555
C13 C12 1_555 1_555
H8 C13 1_555 1_555
C14 C13 1_555 1_555
H9 C14 1_555 1_555
C15 C2 1_555 1_555
C16 H10 1_555 1_555
C17 C16 1_555 1_555
H11 C17 1_555 1_555
C18 C17 1_555 1_555
C19 C18 1_555 1_555
C20 C19 1_555 1_555
H12 C20 1_555 1_555
C21 C20 1_555 1_555
H13 C21 1_555 1_555
C22 H14 1_555 1_555
H15 C22 1_555 1_555
H16 C22 1_555 1_555
N1 C16 1_555 1_555
N2 C21 1_555 1_555
O1 Co1 1_555 1_555
O2 C1 1_555 1_555
O3 Co1 1_555 1_555
H17 O3 1_555 1_555
Co1_2 N2 1_555 1_555
C1B C2B 1_555 1_555
C2B C3B 1_555 1_555
C3B C4B 1_555 1_555
C4B H1B 1_555 1_555
C5B C4B 1_555 1_555
H2B C5B 1_555 1_555
C6B C5B 1_555 1_555
H3B C6B 1_555 1_555
C7B C6B 1_555 1_555
H4B C7B 1_555 1_555
C8B C3B 1_555 1_555
C9B C8B 1_555 1_555
H5B C9B 1_555 1_555
C10B C9B 1_555 1_555
C11B C10B 1_555 1_555
H6B C11B 1_555 1_555
C12B C11B 1_555 1_555
H7B C12B 1_555 1_555
C13B C12B 1_555 1_555
H8B C13B 1_555 1_555
C14B C13B 1_555 1_555
H9B C14B 1_555 1_555
C15B C2B 1_555 1_555
C16B N1 1_555 1_555
H10B C16B 1_555 1_555
C17B C18 1_555 1_555
H11B C17B 1_555 1_555
C20B C19 1_555 1_555
H12B C20B 1_555 1_555
C21B N2 1_555 1_555
H13B C21B 1_555 1_555
C22B H14B 1_555 1_555
H15B C22B 1_555 1_555
H16B C22B 1_555 1_555
N2_2 Co1 1_555 1_555
O1B Co1 1_555 1_555
O2B C1B 1_555 1_555
O3B Co1 1_555 1_555
H17B O3B 1_555 1_555
C1 O1 1_555 1_555
C7 C8 1_555 1_555
C10 C15 1_555 1_555
C14 C15 1_555 1_555
C22 O3 1_555 1_555
C1B O1B 1_555 1_555
C7B C8B 1_555 1_555
C10B C15B 1_555 1_555
C14B C15B 1_555 1_555
C16B C17B 1_555 1_555
C20B C21B 1_555 1_555
C22B O3B 1_555 1_555

#END
