
#######################################################################
#
#                 Cambridge Crystallographic Data Centre
#                                CCDC 
#
#######################################################################
#
# If this CIF has been generated from an entry in the Cambridge 
# Structural Database, then it will include bibliographic, chemical, 
# crystal, experimental, refinement or atomic coordinate data resulting 
# from the CCDC's data processing and validation procedures.
#
#######################################################################

data_WIMCEB
_symmetry_cell_setting           monoclinic
_symmetry_space_group_name_H-M   'C 2/c'
_symmetry_Int_Tables_number      15
_space_group_name_Hall           '-C 2yn'
loop_
_symmetry_equiv_pos_site_id
_symmetry_equiv_pos_as_xyz
1 x,y,z
2 1/2+x,1/2+y,z
3 -x,y,1/2-z
4 1/2-x,1/2+y,1/2-z
5 -x,-y,-z
6 1/2-x,1/2-y,-z
7 x,-y,1/2+z
8 1/2+x,1/2-y,1/2+z
_cell_length_a                   24.075(5)
_cell_length_b                   11.397(2)
_cell_length_c                   12.050(2)
_cell_angle_alpha                90
_cell_angle_beta                 94.356(3)
_cell_angle_gamma                90
_cell_volume                     3296.76
loop_
_atom_site_label
_atom_site_type_symbol
_atom_site_fract_x
_atom_site_fract_y
_atom_site_fract_z
Ni1 Ni 0.5000 0.76355(6) 0.7500
C1 C 0.38659(17) 0.7526(3) 0.8358(3)
C2 C 0.35463(17) 0.7151(4) 0.9336(3)
C3 C 0.34419(17) 0.5963(4) 0.9488(4)
C4 C 0.3615(2) 0.5084(4) 0.8746(4)
H1 H 0.3813 0.5303 0.8145
C5 C 0.3498(2) 0.3941(4) 0.8900(5)
H2 H 0.3603 0.3385 0.8392
C6 C 0.3217(3) 0.3586(5) 0.9828(5)
H3 H 0.3141 0.2796 0.9931
C7 C 0.3058(2) 0.4378(5) 1.0563(5)
H4 H 0.2881 0.4124 1.1179
C8 C 0.31548(19) 0.5601(4) 1.0421(4)
C9 C 0.2981(2) 0.6432(5) 1.1146(4)
H5 H 0.2797 0.6189 1.1757
C10 C 0.30716(18) 0.7624(4) 1.0995(4)
C11 C 0.2894(2) 0.8484(6) 1.1751(5)
H6 H 0.2706 0.8250 1.2361
C12 C 0.2994(2) 0.9630(6) 1.1590(5)
H7 H 0.2881 1.0180 1.2097
C13 C 0.3269(2) 1.0005(5) 1.0658(5)
H8 H 0.3326 1.0802 1.0546
C14 C 0.34511(19) 0.9219(4) 0.9928(4)
H9 H 0.3636 0.9483 0.9326
C15 C 0.33633(17) 0.7993(4) 1.0066(3)
C16 C 0.45293(17) 1.0132(3) 0.7340(3)
H10 H 0.4195 0.9723 0.7242
C17 C 0.45137(18) 1.1335(3) 0.7314(4)
H11 H 0.4175 1.1719 0.7170
C18 C 0.5000 1.1981(5) 0.7500
C19 C 0.5000 1.3280(5) 0.7500
C20 C 0.47122(19) 1.3912(4) 0.6664(4)
H12 H 0.4509 1.3524 0.6088
C21 C 0.47287(19) 1.5117(4) 0.6689(4)
H13 H 0.4540 1.5525 0.6108
C22 C 0.5508(2) 0.8219(5) 0.9868(4)
H14 H 0.5833 0.8096 1.0366
H15 H 0.5187 0.7907 1.0195
H16 H 0.5456 0.9044 0.9737
N1 N 0.5000 0.9521(4) 0.7500
N2 N 0.5000 1.5736(4) 0.7500
O1 O 0.43862(11) 0.7582(2) 0.8573(2)
O2 O 0.36078(13) 0.7733(3) 0.7446(3)
O3 O 0.55751(12) 0.7640(2) 0.8844(2)
H17 H 0.5893(8) 0.774(4) 0.864(4)
Ni1_2 Ni 0.5000 1.76355(6) 0.7500
C1B C 0.61341(17) 0.7526(3) 0.6642(3)
C2B C 0.64537(17) 0.7151(4) 0.5664(3)
C3B C 0.65581(17) 0.5963(4) 0.5512(4)
C4B C 0.6385(2) 0.5084(4) 0.6254(4)
H1B H 0.6187 0.5303 0.6855
C5B C 0.6502(2) 0.3941(4) 0.6100(5)
H2B H 0.6397 0.3385 0.6608
C6B C 0.6783(3) 0.3586(5) 0.5172(5)
H3B H 0.6859 0.2796 0.5069
C7B C 0.6942(2) 0.4378(5) 0.4437(5)
H4B H 0.7119 0.4124 0.3821
C8B C 0.68452(19) 0.5601(4) 0.4579(4)
C9B C 0.7019(2) 0.6432(5) 0.3854(4)
H5B H 0.7203 0.6189 0.3243
C10B C 0.69284(18) 0.7624(4) 0.4005(4)
C11B C 0.7106(2) 0.8484(6) 0.3249(5)
H6B H 0.7294 0.8250 0.2639
C12B C 0.7006(2) 0.9630(6) 0.3410(5)
H7B H 0.7119 1.0180 0.2903
C13B C 0.6731(2) 1.0005(5) 0.4342(5)
H8B H 0.6674 1.0802 0.4454
C14B C 0.65489(19) 0.9219(4) 0.5072(4)
H9B H 0.6364 0.9483 0.5674
C15B C 0.66367(17) 0.7993(4) 0.4934(3)
C16B C 0.54707(17) 1.0132(3) 0.7660(3)
H10B H 0.5805 0.9723 0.7758
C17B C 0.54863(18) 1.1335(3) 0.7686(4)
H11B H 0.5825 1.1719 0.7830
C20B C 0.52878(19) 1.3912(4) 0.8336(4)
H12B H 0.5491 1.3524 0.8912
C21B C 0.52713(19) 1.5117(4) 0.8311(4)
H13B H 0.5460 1.5525 0.8892
C22B C 0.4492(2) 0.8219(5) 0.5132(4)
H14B H 0.4167 0.8096 0.4634
H15B H 0.4813 0.7907 0.4805
H16B H 0.4544 0.9044 0.5263
N2_2 N 0.5000 0.5736(4) 0.7500
O1B O 0.56138(11) 0.7582(2) 0.6427(2)
O2B O 0.63922(13) 0.7733(3) 0.7554(3)
O3B O 0.44249(12) 0.7640(2) 0.6156(2)
H17B H 0.4107(8) 0.774(4) 0.636(4)
loop_
_geom_bond_atom_site_label_1
_geom_bond_atom_site_label_2
_geom_bond_site_symmetry_1
_geom_bond_site_symmetry_2
Ni1 N1 1_555 1_555
C1 C2 1_555 1_555
C2 C3 1_555 1_555
C3 C4 1_555 1_555
C4 H1 1_555 1_555
C5 C4 1_555 1_555
H2 C5 1_555 1_555
C6 C5 1_555 1_555
H3 C6 1_555 1_555
C7 C6 1_555 1_555
H4 C7 1_555 1_555
C8 C3 1_555 1_555
C9 C8 1_555 1_555
H5 C9 1_555 1_555
C10 C9 1_555 1_555
C11 C10 1_555 1_555
H6 C11 1_555 1_555
C12 C11 1_555 1_555
H7 C12 1_555 1_555
C13 C12 1_555 1_555
H8 C13 1_555 1_555
C14 C13 1_555 1_555
H9 C14 1_555 1_555
C15 C2 1_555 1_555
C16 H10 1_555 1_555
C17 C16 1_555 1_555
H11 C17 1_555 1_555
C18 C17 1_555 1_555
C19 C18 1_555 1_555
C20 C19 1_555 1_555
H12 C20 1_555 1_555
C21 C20 1_555 1_555
H13 C21 1_555 1_555
C22 H14 1_555 1_555
H15 C22 1_555 1_555
H16 C22 1_555 1_555
N1 C16 1_555 1_555
N2 C21 1_555 1_555
O1 Ni1 1_555 1_555
O2 C1 1_555 1_555
O3 Ni1 1_555 1_555
H17 O3 1_555 1_555
Ni1_2 N2 1_555 1_555
C1B C2B 1_555 1_555
C2B C3B 1_555 1_555
C3B C4B 1_555 1_555
C4B H1B 1_555 1_555
C5B C4B 1_555 1_555
H2B C5B 1_555 1_555
C6B C5B 1_555 1_555
H3B C6B 1_555 1_555
C7B C6B 1_555 1_555
H4B C7B 1_555 1_555
C8B C3B 1_555 1_555
C9B C8B 1_555 1_555
H5B C9B 1_555 1_555
C10B C9B 1_555 1_555
C11B C10B 1_555 1_555
H6B C11B 1_555 1_555
C12B C11B 1_555 1_555
H7B C12B 1_555 1_555
C13B C12B 1_555 1_555
H8B C13B 1_555 1_555
C14B C13B 1_555 1_555
H9B C14B 1_555 1_555
C15B C2B 1_555 1_555
C16B N1 1_555 1_555
H10B C16B 1_555 1_555
C17B C18 1_555 1_555
H11B C17B 1_555 1_555
C20B C19 1_555 1_555
H12B C20B 1_555 1_555
C21B N2 1_555 1_555
H13B C21B 1_555 1_555
C22B H14B 1_555 1_555
H15B C22B 1_555 1_555
H16B C22B 1_555 1_555
N2_2 Ni1 1_555 1_555
O1B Ni1 1_555 1_555
O2B C1B 1_555 1_555
O3B Ni1 1_555 1_555
H17B O3B 1_555 1_555
C1 O1 1_555 1_555
C7 C8 1_555 1_555
C10 C15 1_555 1_555
C14 C15 1_555 1_555
C22 O3 1_555 1_555
C1B O1B 1_555 1_555
C7B C8B 1_555 1_555
C10B C15B 1_555 1_555
C14B C15B 1_555 1_555
C16B C17B 1_555 1_555
C20B C21B 1_555 1_555
C22B O3B 1_555 1_555

#END
