
#######################################################################
#
#                 Cambridge Crystallographic Data Centre
#                                CCDC 
#
#######################################################################
#
# If this CIF has been generated from an entry in the Cambridge 
# Structural Database, then it will include bibliographic, chemical, 
# crystal, experimental, refinement or atomic coordinate data resulting 
# from the CCDC's data processing and validation procedures.
#
#######################################################################

data_WIMCUQ
_symmetry_cell_setting           monoclinic
_symmetry_space_group_name_H-M   'C 2/c'
_symmetry_Int_Tables_number      15
_space_group_name_Hall           '-C 2yn'
loop_
_symmetry_equiv_pos_site_id
_symmetry_equiv_pos_as_xyz
1 x,y,z
2 1/2+x,1/2+y,z
3 x,-y,1/2+z
4 1/2+x,1/2-y,1/2+z
5 -x,-y,-z
6 1/2-x,1/2-y,-z
7 -x,y,1/2-z
8 1/2-x,1/2+y,1/2-z
_cell_length_a                   47.428(9)
_cell_length_b                   19.695(2)
_cell_length_c                   17.513(3)
_cell_angle_alpha                90
_cell_angle_beta                 100.21(2)
_cell_angle_gamma                90
_cell_volume                     16099.7
loop_
_atom_site_label
_atom_site_type_symbol
_atom_site_fract_x
_atom_site_fract_y
_atom_site_fract_z
O16 O 0.19257(15) 0.7620(4) 0.0413(4)
H51 H 0.1812 0.7844 0.0612
C57 C 0.1974(3) 0.7948(7) -0.0278(8)
H52 H 0.2124 0.7709 -0.0478
H53 H 0.2040 0.8407 -0.0152
C58 C 0.1712(3) 0.7975(7) -0.0895(7)
H54 H 0.1759 0.8206 -0.1345
H55 H 0.1567 0.8242 -0.0705
C59 C 0.1589(2) 0.7288(7) -0.1141(7)
H56 H 0.1548 0.7048 -0.0689
H57 H 0.1730 0.7027 -0.1352
C60 C 0.1312(3) 0.7331(8) -0.1753(8)
H58 H 0.1350 0.7574 -0.2199
H59 H 0.1167 0.7565 -0.1537
H60 H 0.1247 0.6881 -0.1904
O17 O 0.0319(6) 0.5815(14) 0.0289(16)
H61 H 0.0474 0.5979 0.0243
C61 C 0.0115(12) 0.640(3) 0.053(4)
C62 C -0.0203(12) 0.603(3) 0.011(3)
C63 C -0.0431(13) 0.629(3) 0.063(4)
O19 O 0.1385(10) 0.299(3) -0.082(3)
Ni1 Ni 0.15052(3) 0.51068(8) 0.11341(9)
O1 O 0.1227(2) 0.4605(4) 0.0294(6)
H1 H 0.113(3) 0.496(5) 0.042(7)
H2 H 0.124(3) 0.4151(13) 0.029(7)
Ni2 Ni 0.14206(3) 0.01069(7) 0.09645(8)
O2 O 0.16934(16) -0.0401(4) 0.1817(5)
H3 H 0.173(2) -0.080(4) 0.164(8)
H4 H 0.1838(19) -0.013(5) 0.199(8)
Ni3 Ni 0.0000 0.74016(11) -0.2500
O3 O -0.0071(5) 0.8437(7) -0.2328(16)
H5 H 0.009(3) 0.863(9) -0.211(12)
C1 C 0.1846(2) 0.1119(6) 0.1772(7)
O4 O 0.16157(15) 0.1012(3) 0.1286(4)
O5 O 0.20162(16) 0.0685(4) 0.2089(5)
C2 C 0.1910(2) 0.1870(6) 0.1962(6)
C3 C 0.2146(2) 0.2045(6) 0.2522(6)
H6 H 0.2261 0.1703 0.2777
C4 C 0.2213(2) 0.2715(6) 0.2708(6)
C5 C 0.2468(2) 0.2898(7) 0.3288(7)
O6 O 0.26133(16) 0.2372(4) 0.3605(5)
H7 H 0.2750(17) 0.247(7) 0.394(5)
O7 O 0.25334(18) 0.3480(5) 0.3466(5)
C6 C 0.2043(2) 0.3216(6) 0.2314(7)
H8 H 0.2089 0.3668 0.2425
C7 C 0.1806(2) 0.3059(6) 0.1756(7)
C8 C 0.1624(3) 0.3618(7) 0.1344(8)
O8 O 0.13951(19) 0.3460(4) 0.0912(6)
O9 O 0.17077(15) 0.4219(4) 0.1471(5)
C9 C 0.1742(2) 0.2388(6) 0.1599(6)
H9 H 0.1580 0.2280 0.1236
C10 C 0.1081(2) 0.6138(6) 0.0337(7)
O10 O 0.13053(15) 0.6007(4) 0.0808(5)
O11 O 0.09068(17) 0.5687(4) 0.0041(5)
C11 C 0.1012(2) 0.6867(6) 0.0138(6)
C12 C 0.1191(2) 0.7373(6) 0.0489(7)
H10 H 0.1354 0.7261 0.0844
C13 C 0.1126(2) 0.8051(6) 0.0309(6)
C14 C 0.1323(3) 0.8608(6) 0.0673(6)
O12 O 0.15701(15) 0.8460(4) 0.1006(4)
O13 O 0.12146(15) -0.0786(4) 0.0637(4)
C15 C 0.0878(2) 0.8204(6) -0.0221(6)
H11 H 0.0832 0.8656 -0.0333
C16 C 0.0702(2) 0.7704(6) -0.0583(6)
C17 C 0.0448(2) 0.7896(7) -0.1179(7)
O14 O 0.03912(18) 0.8487(5) -0.1322(5)
O15 O 0.03000(16) 0.7397(4) -0.1510(5)
C18 C 0.0771(2) 0.7029(6) -0.0397(7)
H12 H 0.0654 0.6684 -0.0637
N1 N 0.18092(19) 0.5624(5) 0.1928(6)
C19 C 0.1751(3) 0.6217(7) 0.2220(7)
H13 H 0.1565 0.6381 0.2098
C20 C 0.1951(3) 0.6605(8) 0.2692(8)
H14 H 0.1902 0.7022 0.2881
C21 C 0.2221(3) 0.6363(9) 0.2874(8)
H15 H 0.2359 0.6610 0.3205
C22 C 0.2295(3) 0.5745(8) 0.2571(8)
H16 H 0.2481 0.5578 0.2685
C23 C 0.2082(2) 0.5392(7) 0.2099(7)
H17 H 0.2126 0.4980 0.1890
N2 N 0.1772(2) 0.5255(6) 0.0313(6)
C24 C 0.1896(3) 0.5849(7) 0.0208(8)
H18 H 0.1857 0.6219 0.0504
C25 C 0.2080(3) 0.5945(8) -0.0322(9)
H19 H 0.2164 0.6366 -0.0373
C26 C 0.2135(3) 0.5398(10) -0.0766(9)
H20 H 0.2260 0.5438 -0.1118
C27 C 0.2003(4) 0.4803(9) -0.0678(9)
H21 H 0.2033 0.4432 -0.0982
C28 C 0.1826(3) 0.4739(8) -0.0147(8)
H22 H 0.1739 0.4322 -0.0100
N3 N 0.1252(2) 0.4937(5) 0.1997(6)
C29 C 0.1372(3) 0.4715(7) 0.2703(9)
H23 H 0.1568 0.4633 0.2803
C30 C 0.1213(3) 0.4601(8) 0.3303(9)
H24 H 0.1304 0.4465 0.3793
C31 C 0.0924(3) 0.4695(8) 0.3143(10)
H25 H 0.0814 0.4625 0.3527
C32 C 0.0798(3) 0.4888(9) 0.2430(11)
H26 H 0.0599 0.4930 0.2313
C33 C 0.0964(2) 0.5028(7) 0.1858(9)
H27 H 0.0874 0.5187 0.1376
N4 N 0.11593(18) 0.0275(5) 0.1797(5)
C34 C 0.1083(3) -0.0243(7) 0.2230(8)
H28 H 0.1149 -0.0678 0.2149
C35 C 0.0911(4) -0.0155(10) 0.2788(10)
H29 H 0.0865 -0.0527 0.3070
C36 C 0.0810(3) 0.0465(10) 0.2921(10)
H30 H 0.0689 0.0527 0.3280
C37 C 0.0890(3) 0.1002(9) 0.2512(10)
H31 H 0.0830 0.1439 0.2603
C38 C 0.1067(3) 0.0890(8) 0.1949(8)
H32 H 0.1120 0.1259 0.1676
N5 N 0.1114(2) 0.0618(5) 0.0161(6)
C39 C 0.0844(2) 0.0391(7) -0.0032(7)
H33 H 0.0799 -0.0018 0.0185
C40 C 0.0627(3) 0.0716(9) -0.0523(9)
H34 H 0.0443 0.0537 -0.0627
C41 C 0.0690(4) 0.1294(10) -0.0847(9)
H35 H 0.0550 0.1523 -0.1191
C42 C 0.0970(4) 0.1558(8) -0.0665(8)
H36 H 0.1015 0.1967 -0.0880
C43 C 0.1173(3) 0.1210(7) -0.0170(7)
H37 H 0.1358 0.1384 -0.0056
N6 N 0.1673(2) -0.0035(5) 0.0106(5)
C44 C 0.1553(3) -0.0189(7) -0.0624(7)
H38 H 0.1356 -0.0242 -0.0734
C45 C 0.1705(3) -0.0276(8) -0.1231(9)
H39 H 0.1612 -0.0394 -0.1726
C46 C 0.2000(3) -0.0181(9) -0.1065(10)
H40 H 0.2109 -0.0216 -0.1456
C47 C 0.2128(3) -0.0035(9) -0.0324(9)
H41 H 0.2326 0.0008 -0.0199
C48 C 0.1960(3) 0.0047(7) 0.0240(8)
H42 H 0.2050 0.0166 0.0739
N7 N -0.0336(2) 0.7395(6) -0.1863(7)
C49 C -0.0326(4) 0.7780(10) -0.1260(11)
H43 H -0.0163 0.8048 -0.1116
C50 C -0.0532(5) 0.7820(11) -0.0824(12)
H44 H -0.0514 0.8108 -0.0397
C51 C -0.0765(4) 0.7432(12) -0.1024(11)
H45 H -0.0914 0.7462 -0.0744
C52 C -0.0787(3) 0.6989(9) -0.1643(10)
H46 H -0.0945 0.6705 -0.1777
C53 C -0.0564(3) 0.6988(8) -0.2053(9)
H47 H -0.0572 0.6695 -0.2474
N8 N 0.0000 0.6338(6) -0.2500
C54 C -0.0067(2) 0.5973(7) -0.3151(8)
H48 H -0.0119 0.6203 -0.3618
C55 C -0.0064(3) 0.5287(7) -0.3168(9)
H49 H -0.0105 0.5058 -0.3639
C56 C 0.0000 0.4937(12) -0.2500
H50 H 0.0000 0.4465 -0.2500
O3F O 0.0071(5) 0.8437(7) -0.2672(16)
O15F O -0.03000(16) 0.7397(4) -0.3490(5)
N7F N 0.0336(2) 0.7395(6) -0.3137(7)
H5F H -0.009(3) 0.863(9) -0.289(12)
O13_2 O 0.12146(15) 0.9214(4) 0.0637(4)
C14_2 C 0.1323(3) -0.1392(6) 0.0673(6)
C54F C 0.0067(2) 0.5973(7) -0.1849(8)
C55F C 0.0064(3) 0.5287(7) -0.1832(9)
C17F C -0.0448(2) 0.7896(7) -0.3821(7)
C49F C 0.0326(4) 0.7780(10) -0.3740(11)
C53F C 0.0564(3) 0.6988(8) -0.2947(9)
Ni2_2 Ni 0.14206(3) 1.01069(7) 0.09645(8)
C13_2 C 0.1126(2) -0.1949(6) 0.0309(6)
O12_2 O 0.15701(15) -0.1540(4) 0.1006(4)
H48F H 0.0119 0.6203 -0.1382
H49F H 0.0105 0.5058 -0.1361
C16F C -0.0702(2) 0.7704(6) -0.4417(6)
O14F O -0.03912(18) 0.8487(5) -0.3678(5)
H43F H 0.0163 0.8048 -0.3884
C50F C 0.0532(5) 0.7820(11) -0.4176(12)
C52F C 0.0787(3) 0.6989(9) -0.3357(10)
H47F H 0.0572 0.6695 -0.2526
O2_2 O 0.16934(16) 0.9599(4) 0.1817(5)
O4_2 O 0.16157(15) 1.1012(3) 0.1286(4)
N4_2 N 0.11593(18) 1.0275(5) 0.1797(5)
N5_2 N 0.1114(2) 1.0618(5) 0.0161(6)
N6_2 N 0.1673(2) 0.9965(5) 0.0106(5)
C12_2 C 0.1191(2) -0.2627(6) 0.0489(7)
C15_2 C 0.0878(2) -0.1796(6) -0.0221(6)
C15F C -0.0878(2) 0.8204(6) -0.4779(6)
C18F C -0.0771(2) 0.7029(6) -0.4603(7)
H44F H 0.0514 0.8108 -0.4603
C51F C 0.0765(4) 0.7432(12) -0.3976(11)
H46F H 0.0945 0.6705 -0.3223
H3_2 H 0.173(2) 0.920(4) 0.164(8)
H4_2 H 0.1838(19) 0.987(5) 0.199(8)
C1_2 C 0.1846(2) 1.1119(6) 0.1772(7)
C34_2 C 0.1083(3) 0.9757(7) 0.2230(8)
C38_2 C 0.1067(3) 1.0890(8) 0.1949(8)
C39_2 C 0.0844(2) 1.0391(7) -0.0032(7)
C43_2 C 0.1173(3) 1.1210(7) -0.0170(7)
C44_2 C 0.1553(3) 0.9811(7) -0.0624(7)
C48_2 C 0.1960(3) 1.0047(7) 0.0240(8)
C11_2 C 0.1012(2) -0.3133(6) 0.0138(6)
H10_2 H 0.1354 -0.2739 0.0844
H11_2 H 0.0832 -0.1344 -0.0333
C16_2 C 0.0702(2) -0.2296(6) -0.0583(6)
C13F C -0.1126(2) 0.8051(6) -0.5309(6)
H11F H -0.0832 0.8656 -0.4667
C11F C -0.1012(2) 0.6867(6) -0.5138(6)
H12F H -0.0654 0.6684 -0.4363
H45F H 0.0914 0.7462 -0.4256
O5_2 O 0.20162(16) 1.0685(4) 0.2089(5)
C2_2 C 0.1910(2) 1.1870(6) 0.1962(6)
H28_2 H 0.1149 0.9322 0.2149
C35_2 C 0.0911(4) 0.9845(10) 0.2788(10)
C37_2 C 0.0890(3) 1.1002(9) 0.2512(10)
H32_2 H 0.1120 1.1259 0.1676
H33_2 H 0.0799 0.9982 0.0185
C40_2 C 0.0627(3) 1.0716(9) -0.0523(9)
C42_2 C 0.0970(4) 1.1558(8) -0.0665(8)
H37_2 H 0.1358 1.1384 -0.0056
H38_2 H 0.1356 0.9758 -0.0734
C45_2 C 0.1705(3) 0.9724(8) -0.1231(9)
C47_2 C 0.2128(3) 0.9965(9) -0.0324(9)
H42_2 H 0.2050 1.0166 0.0739
C10_2 C 0.1081(2) -0.3862(6) 0.0337(7)
C18_2 C 0.0771(2) -0.2971(6) -0.0397(7)
C17_2 C 0.0448(2) -0.2104(7) -0.1179(7)
C12F C -0.1191(2) 0.7373(6) -0.5489(7)
C14F C -0.1323(3) 0.8608(6) -0.5673(6)
C10F C -0.1081(2) 0.6138(6) -0.5337(7)
C3_2 C 0.2146(2) 1.2045(6) 0.2522(6)
C9_2 C 0.1742(2) 1.2388(6) 0.1599(6)
H29_2 H 0.0865 0.9473 0.3070
C36_2 C 0.0810(3) 1.0465(10) 0.2921(10)
H31_2 H 0.0830 1.1439 0.2603
H34_2 H 0.0443 1.0537 -0.0627
C41_2 C 0.0690(4) 1.1294(10) -0.0847(9)
H36_2 H 0.1015 1.1967 -0.0880
H39_2 H 0.1612 0.9606 -0.1726
C46_2 C 0.2000(3) 0.9819(9) -0.1065(10)
H41_2 H 0.2326 1.0008 -0.0199
O10_2 O 0.13053(15) -0.3993(4) 0.0808(5)
O11_2 O 0.09068(17) -0.4313(4) 0.0041(5)
H12_2 H 0.0654 -0.3316 -0.0637
O14_2 O 0.03912(18) -0.1513(5) -0.1322(5)
O15_2 O 0.03000(16) -0.2603(4) -0.1510(5)
H10F H -0.1354 0.7261 -0.5844
O12F O -0.15701(15) 0.8460(4) -0.6006(4)
O13F O -0.12146(15) 0.9214(4) -0.5637(4)
O10F O -0.13053(15) 0.6007(4) -0.5808(5)
O11F O -0.09068(17) 0.5687(4) -0.5041(5)
H6_2 H 0.2261 1.1703 0.2777
C4_2 C 0.2213(2) 1.2715(6) 0.2708(6)
C7_2 C 0.1806(2) 1.3059(6) 0.1756(7)
H9_2 H 0.1580 1.2280 0.1236
H30_2 H 0.0689 1.0527 0.3280
H35_2 H 0.0550 1.1523 -0.1191
H40_2 H 0.2109 0.9784 -0.1456
Ni1_2 Ni 0.15052(3) -0.48932(8) 0.11341(9)
Ni3_2 Ni 0.0000 -0.25984(11) -0.2500
Ni2F Ni -0.14206(3) 1.01069(7) -0.59645(8)
Ni1F Ni -0.15052(3) 0.51068(8) -0.61341(9)
C5_2 C 0.2468(2) 1.2898(7) 0.3288(7)
C6_2 C 0.2043(2) 1.3216(6) 0.2314(7)
C8_2 C 0.1624(3) 1.3618(7) 0.1344(8)
O1_2 O 0.1227(2) -0.5395(4) 0.0294(6)
O9_2 O 0.17077(15) -0.5781(4) 0.1471(5)
N1_2 N 0.18092(19) -0.4376(5) 0.1928(6)
N2_2 N 0.1772(2) -0.4745(6) 0.0313(6)
N3_2 N 0.1252(2) -0.5063(5) 0.1997(6)
O3_2 O -0.0071(5) -0.1563(7) -0.2328(16)
O3F_2 O 0.0071(5) -0.1563(7) -0.2672(16)
O15F_2 O -0.03000(16) -0.2603(4) -0.3490(5)
N7_2 N -0.0336(2) -0.2605(6) -0.1863(7)
N7F_2 N 0.0336(2) -0.2605(6) -0.3137(7)
N8_2 N 0.0000 -0.3662(6) -0.2500
O18? O 0.0222(7) 0.9275(18) 0.000(2)
H62? H 0.0234 0.8989 -0.0337
C64? C 0.0282(10) 0.894(2) 0.080(3)
C65? C 0.0200(11) 0.965(3) 0.112(3)
C66? C 0.009(2) 0.951(4) 0.191(4)
loop_
_geom_bond_atom_site_label_1
_geom_bond_atom_site_label_2
_geom_bond_site_symmetry_1
_geom_bond_site_symmetry_2
Ni1 O1 1_555 1_555
O1 H1 1_555 1_555
H2 O1 1_555 1_555
Ni2 O2 1_555 1_555
O2 H3 1_555 1_555
H4 O2 1_555 1_555
Ni3 O3 1_555 1_555
O3 H5 1_555 1_555
H5 O3F 1_555 1_555
C1 O4 1_555 1_555
O4 Ni2 1_555 1_555
O5 C1 1_555 1_555
C2 C1 1_555 1_555
C3 C2 1_555 1_555
H6 C3 1_555 1_555
C4 C3 1_555 1_555
C5 C4 1_555 1_555
O6 C5 1_555 1_555
H7 O6 1_555 1_555
O7 C5 1_555 1_555
C6 C4 1_555 1_555
H8 C6 1_555 1_555
C7 C6 1_555 1_555
C8 C7 1_555 1_555
O8 C8 1_555 1_555
O9 Ni1 1_555 1_555
C9 C2 1_555 1_555
H9 C9 1_555 1_555
C10 O10 1_555 1_555
O10 Ni1 1_555 1_555
O11 C10 1_555 1_555
C11 C10 1_555 1_555
C12 C11 1_555 1_555
H10 C12 1_555 1_555
C13 C12 1_555 1_555
C14 C13 1_555 1_555
O12 C14 1_555 1_555
O13 Ni2 1_555 1_555
C15 C13 1_555 1_555
H11 C15 1_555 1_555
C16 C15 1_555 1_555
C17 C16 1_555 1_555
O14 C17 1_555 1_555
O15 Ni3 1_555 1_555
C18 C11 1_555 1_555
H12 C18 1_555 1_555
N1 Ni1 1_555 1_555
C19 N1 1_555 1_555
H13 C19 1_555 1_555
C20 C19 1_555 1_555
H14 C20 1_555 1_555
C21 C20 1_555 1_555
H15 C21 1_555 1_555
C22 C21 1_555 1_555
H16 C22 1_555 1_555
C23 N1 1_555 1_555
H17 C23 1_555 1_555
N2 Ni1 1_555 1_555
C24 N2 1_555 1_555
H18 C24 1_555 1_555
C25 C24 1_555 1_555
H19 C25 1_555 1_555
C26 C25 1_555 1_555
H20 C26 1_555 1_555
C27 C26 1_555 1_555
H21 C27 1_555 1_555
C28 N2 1_555 1_555
H22 C28 1_555 1_555
N3 Ni1 1_555 1_555
C29 N3 1_555 1_555
H23 C29 1_555 1_555
C30 C29 1_555 1_555
H24 C30 1_555 1_555
C31 C30 1_555 1_555
H25 C31 1_555 1_555
C32 C31 1_555 1_555
H26 C32 1_555 1_555
C33 N3 1_555 1_555
H27 C33 1_555 1_555
N4 Ni2 1_555 1_555
C34 N4 1_555 1_555
H28 C34 1_555 1_555
C35 C34 1_555 1_555
H29 C35 1_555 1_555
C36 C35 1_555 1_555
H30 C36 1_555 1_555
C37 C36 1_555 1_555
H31 C37 1_555 1_555
C38 N4 1_555 1_555
H32 C38 1_555 1_555
N5 Ni2 1_555 1_555
C39 N5 1_555 1_555
H33 C39 1_555 1_555
C40 C39 1_555 1_555
H34 C40 1_555 1_555
C41 C40 1_555 1_555
H35 C41 1_555 1_555
C42 C41 1_555 1_555
H36 C42 1_555 1_555
C43 N5 1_555 1_555
H37 C43 1_555 1_555
N6 Ni2 1_555 1_555
C44 N6 1_555 1_555
H38 C44 1_555 1_555
C45 C44 1_555 1_555
H39 C45 1_555 1_555
C46 C45 1_555 1_555
H40 C46 1_555 1_555
C47 C46 1_555 1_555
H41 C47 1_555 1_555
C48 N6 1_555 1_555
H42 C48 1_555 1_555
N7 Ni3 1_555 1_555
C49 N7 1_555 1_555
H43 C49 1_555 1_555
C50 C49 1_555 1_555
H44 C50 1_555 1_555
C51 C50 1_555 1_555
H45 C51 1_555 1_555
C52 C51 1_555 1_555
H46 C52 1_555 1_555
C53 N7 1_555 1_555
H47 C53 1_555 1_555
N8 Ni3 1_555 1_555
C54 N8 1_555 1_555
H48 C54 1_555 1_555
C55 C54 1_555 1_555
H49 C55 1_555 1_555
C56 C55 1_555 1_555
H50 C56 1_555 1_555
O16 H51 1_555 1_555
C57 O16 1_555 1_555
H52 C57 1_555 1_555
H53 C57 1_555 1_555
C58 C57 1_555 1_555
H54 C58 1_555 1_555
H55 C58 1_555 1_555
C59 C58 1_555 1_555
H56 C59 1_555 1_555
H57 C59 1_555 1_555
C60 C59 1_555 1_555
H58 C60 1_555 1_555
H59 C60 1_555 1_555
H60 C60 1_555 1_555
O17 H61 1_555 1_555
C61 O17 1_555 1_555
C62 C61 1_555 1_555
C63 C62 1_555 1_555
O3F Ni3 1_555 1_555
O15F Ni3 1_555 1_555
N7F Ni3 1_555 1_555
H5F O3 1_555 1_555
O13_2 C14 1_555 1_555
C14_2 O13 1_555 1_555
C54F N8 1_555 1_555
C55F C56 1_555 1_555
C17F O15F 1_555 1_555
C49F N7F 1_555 1_555
C53F N7F 1_555 1_555
Ni2_2 O13_2 1_555 1_555
C13_2 C14_2 1_555 1_555
O12_2 C14_2 1_555 1_555
H48F C54F 1_555 1_555
H49F C55F 1_555 1_555
C16F C17F 1_555 1_555
O14F C17F 1_555 1_555
H43F C49F 1_555 1_555
C50F C49F 1_555 1_555
C52F C53F 1_555 1_555
H47F C53F 1_555 1_555
O2_2 Ni2_2 1_555 1_555
O4_2 Ni2_2 1_555 1_555
N4_2 Ni2_2 1_555 1_555
N5_2 Ni2_2 1_555 1_555
N6_2 Ni2_2 1_555 1_555
C12_2 C13_2 1_555 1_555
C15_2 C13_2 1_555 1_555
C15F C16F 1_555 1_555
C18F C16F 1_555 1_555
H44F C50F 1_555 1_555
C51F C50F 1_555 1_555
H46F C52F 1_555 1_555
H3_2 O2_2 1_555 1_555
H4_2 O2_2 1_555 1_555
C1_2 O4_2 1_555 1_555
C34_2 N4_2 1_555 1_555
C38_2 N4_2 1_555 1_555
C39_2 N5_2 1_555 1_555
C43_2 N5_2 1_555 1_555
C44_2 N6_2 1_555 1_555
C48_2 N6_2 1_555 1_555
C11_2 C12_2 1_555 1_555
H10_2 C12_2 1_555 1_555
H11_2 C15_2 1_555 1_555
C16_2 C15_2 1_555 1_555
C13F C15F 1_555 1_555
H11F C15F 1_555 1_555
C11F C18F 1_555 1_555
H12F C18F 1_555 1_555
H45F C51F 1_555 1_555
O5_2 C1_2 1_555 1_555
C2_2 C1_2 1_555 1_555
H28_2 C34_2 1_555 1_555
C35_2 C34_2 1_555 1_555
C37_2 C38_2 1_555 1_555
H32_2 C38_2 1_555 1_555
H33_2 C39_2 1_555 1_555
C40_2 C39_2 1_555 1_555
C42_2 C43_2 1_555 1_555
H37_2 C43_2 1_555 1_555
H38_2 C44_2 1_555 1_555
C45_2 C44_2 1_555 1_555
C47_2 C48_2 1_555 1_555
H42_2 C48_2 1_555 1_555
C10_2 C11_2 1_555 1_555
C18_2 C11_2 1_555 1_555
C17_2 C16_2 1_555 1_555
C12F C13F 1_555 1_555
C14F C13F 1_555 1_555
C10F C11F 1_555 1_555
C3_2 C2_2 1_555 1_555
C9_2 C2_2 1_555 1_555
H29_2 C35_2 1_555 1_555
C36_2 C35_2 1_555 1_555
H31_2 C37_2 1_555 1_555
H34_2 C40_2 1_555 1_555
C41_2 C40_2 1_555 1_555
H36_2 C42_2 1_555 1_555
H39_2 C45_2 1_555 1_555
C46_2 C45_2 1_555 1_555
H41_2 C47_2 1_555 1_555
O10_2 C10_2 1_555 1_555
O11_2 C10_2 1_555 1_555
H12_2 C18_2 1_555 1_555
O14_2 C17_2 1_555 1_555
O15_2 C17_2 1_555 1_555
H10F C12F 1_555 1_555
O12F C14F 1_555 1_555
O13F C14F 1_555 1_555
O10F C10F 1_555 1_555
O11F C10F 1_555 1_555
H6_2 C3_2 1_555 1_555
C4_2 C3_2 1_555 1_555
C7_2 C9_2 1_555 1_555
H9_2 C9_2 1_555 1_555
H30_2 C36_2 1_555 1_555
H35_2 C41_2 1_555 1_555
H40_2 C46_2 1_555 1_555
Ni1_2 O10_2 1_555 1_555
Ni3_2 O15_2 1_555 1_555
Ni2F O13F 1_555 1_555
Ni1F O10F 1_555 1_555
C5_2 C4_2 1_555 1_555
C6_2 C4_2 1_555 1_555
C8_2 C7_2 1_555 1_555
O1_2 Ni1_2 1_555 1_555
O9_2 Ni1_2 1_555 1_555
N1_2 Ni1_2 1_555 1_555
N2_2 Ni1_2 1_555 1_555
N3_2 Ni1_2 1_555 1_555
O3_2 Ni3_2 1_555 1_555
O3F_2 Ni3_2 1_555 1_555
O15F_2 Ni3_2 1_555 1_555
N7_2 Ni3_2 1_555 1_555
N7F_2 Ni3_2 1_555 1_555
N8_2 Ni3_2 1_555 1_555
O3 O3F 1_555 1_555
C7 C9 1_555 1_555
C8 O9 1_555 1_555
C16 C18 1_555 1_555
C17 O15 1_555 1_555
C22 C23 1_555 1_555
C27 C28 1_555 1_555
C32 C33 1_555 1_555
C37 C38 1_555 1_555
C42 C43 1_555 1_555
C47 C48 1_555 1_555
C52 C53 1_555 1_555
O3F H5F 1_555 1_555
C54F C55F 1_555 1_555
C52F C51F 1_555 1_555
C16_2 C18_2 1_555 1_555
C11F C12F 1_555 1_555
C37_2 C36_2 1_555 1_555
C42_2 C41_2 1_555 1_555
C47_2 C46_2 1_555 1_555
C7_2 C6_2 1_555 1_555

#END
