
#######################################################################
#
#                 Cambridge Crystallographic Data Centre
#                                CCDC 
#
#######################################################################
#
# If this CIF has been generated from an entry in the Cambridge 
# Structural Database, then it will include bibliographic, chemical, 
# crystal, experimental, refinement or atomic coordinate data resulting 
# from the CCDC's data processing and validation procedures.
#
#######################################################################

data_WIMJOT
_symmetry_cell_setting           monoclinic
_symmetry_space_group_name_H-M   'C 2/c'
_symmetry_Int_Tables_number      15
_space_group_name_Hall           '-C 2yn'
loop_
_symmetry_equiv_pos_site_id
_symmetry_equiv_pos_as_xyz
1 x,y,z
2 -x,y,1/2-z
3 1/2+x,1/2+y,z
4 1/2-x,1/2+y,1/2-z
5 -x,-y,-z
6 x,-y,1/2+z
7 1/2-x,1/2-y,-z
8 1/2+x,1/2-y,1/2+z
_cell_length_a                   30.979(2)
_cell_length_b                   6.2775(4)
_cell_length_c                   18.9572(14)
_cell_angle_alpha                90
_cell_angle_beta                 107.0530(10)
_cell_angle_gamma                90
_cell_volume                     3524.53
loop_
_atom_site_label
_atom_site_type_symbol
_atom_site_fract_x
_atom_site_fract_y
_atom_site_fract_z
Co1 Co 1.0000 1.18680(4) 0.7500
C1 C 1.03710(6) 1.8744(3) 1.03214(10)
H1 H 1.0622 1.7906 1.0541
C2 C 1.00905(6) 1.8207(3) 0.96210(9)
C3 C 0.97196(6) 1.9498(3) 0.93091(9)
H2 H 0.9529 1.9171 0.8843
C4 C 1.01736(5) 1.6325(2) 0.92226(9)
C5 C 0.99788(6) 1.5648(3) 0.85169(9)
H3 H 0.9754 1.6375 0.8165
C6 C 1.04668(6) 1.3267(3) 0.90345(9)
H4 H 1.0645 1.2046 0.9118
C7 C 0.91002(5) 1.0573(3) 0.72439(9)
C8 C 0.87079(6) 0.9211(3) 0.68334(9)
C9 C 0.87829(7) 0.7364(4) 0.64869(13)
H5 H 0.9077 0.6938 0.6528
C10 C 0.84217(8) 0.6144(4) 0.60787(15)
H6 H 0.8473 0.4899 0.5850
C11 C 0.79908(7) 0.6778(3) 0.60146(11)
C12 C 0.79086(7) 0.8576(4) 0.63614(12)
H7 H 0.7614 0.8983 0.6321
C13 C 0.82692(6) 0.9789(3) 0.67748(12)
H8 H 0.8214 1.1005 0.7015
C14 C 0.73410(7) 0.4548(3) 0.58211(10)
C15 C 0.74392(6) 0.3888(3) 0.65418(10)
H9 H 0.7708 0.4293 0.6884
C16 C 0.71362(6) 0.2620(3) 0.67535(10)
H10 H 0.7207 0.2141 0.7238
C17 C 0.67282(6) 0.2046(3) 0.62593(9)
C18 C 0.66319(8) 0.2787(5) 0.55441(12)
H11 H 0.6356 0.2441 0.5206
C19 C 0.69335(9) 0.4022(5) 0.53194(12)
H12 H 0.6864 0.4498 0.4834
C20 C 0.63979(6) 0.0628(3) 0.64549(9)
N1 N 1.01633(4) 1.3732(2) 0.84027(7)
N2 N 1.04850(5) 1.4775(2) 0.95386(7)
H13 H 1.0661 1.4779 0.9984
O1 O 0.60264(5) 0.0270(3) 0.60395(7)
O2 O 0.65425(4) -0.0221(3) 0.71140(7)
H14 H 0.6349 -0.1021 0.7180
O3 O 0.90419(5) 1.2293(2) 0.75174(9)
O4 O 0.94899(4) 0.98760(19) 0.72687(7)
O5 O 0.76355(5) 0.5650(3) 0.55391(8)
C1D C 0.96290(6) 2.1256(3) 0.96786(10)
H1D H 0.9378 2.2094 0.9459
C2D C 0.99095(6) 2.1793(3) 1.03790(9)
C3D C 1.02804(6) 2.0502(3) 1.06909(9)
H2D H 1.0471 2.0829 1.1157
C4D C 0.98264(5) 2.3675(2) 1.07774(9)
C5D C 1.00212(6) 2.4352(3) 1.14831(9)
H3D H 1.0246 2.3625 1.1835
C6D C 0.95332(6) 2.6733(3) 1.09655(9)
H4D H 0.9355 2.7954 1.0882
N1D N 0.98367(4) 2.6268(2) 1.15973(7)
N2D N 0.95150(5) 2.5225(2) 1.04614(7)
H13D H 0.9339 2.5221 1.0016
C7A C 1.08998(5) 1.0573(3) 0.77561(9)
C8A C 1.12921(6) 0.9211(3) 0.81666(9)
C9A C 1.12171(7) 0.7364(4) 0.85131(13)
H5A H 1.0923 0.6938 0.8472
C10A C 1.15783(8) 0.6144(4) 0.89213(15)
H6A H 1.1527 0.4899 0.9150
C11A C 1.20092(7) 0.6778(3) 0.89854(11)
C12A C 1.20914(7) 0.8576(4) 0.86386(12)
H7A H 1.2386 0.8983 0.8679
C13A C 1.17308(6) 0.9789(3) 0.82252(12)
H8A H 1.1786 1.1005 0.7985
C14A C 1.26590(7) 0.4548(3) 0.91789(10)
C15A C 1.25608(6) 0.3888(3) 0.84582(10)
H9A H 1.2292 0.4293 0.8116
C16A C 1.28638(6) 0.2620(3) 0.82465(10)
H10A H 1.2793 0.2141 0.7762
C17A C 1.32718(6) 0.2046(3) 0.87407(9)
C18A C 1.33681(8) 0.2787(5) 0.94559(12)
H11A H 1.3644 0.2441 0.9794
C19A C 1.30665(9) 0.4022(5) 0.96806(12)
H12A H 1.3136 0.4498 1.0166
C20A C 1.36021(6) 0.0628(3) 0.85451(9)
O1A O 1.39736(5) 0.0270(3) 0.89605(7)
O2A O 1.34575(4) -0.0221(3) 0.78860(7)
H14A H 1.3651 -0.1021 0.7820
O3A O 1.09581(5) 1.2293(2) 0.74826(9)
O4A O 1.05101(4) 0.98760(19) 0.77313(7)
O5A O 1.23645(5) 0.5650(3) 0.94609(8)
Co1D Co 1.0000 2.81320(4) 1.2500
N1A N 0.98367(4) 1.3732(2) 0.65973(7)
loop_
_geom_bond_atom_site_label_1
_geom_bond_atom_site_label_2
_geom_bond_site_symmetry_1
_geom_bond_site_symmetry_2
Co1 N1 1_555 1_555
C1 H1 1_555 1_555
C2 C1 1_555 1_555
C3 C2 1_555 1_555
H2 C3 1_555 1_555
C4 C2 1_555 1_555
C5 C4 1_555 1_555
H3 C5 1_555 1_555
C6 H4 1_555 1_555
C7 C8 1_555 1_555
C8 C9 1_555 1_555
C9 H5 1_555 1_555
C10 C9 1_555 1_555
H6 C10 1_555 1_555
C11 C10 1_555 1_555
C12 C11 1_555 1_555
H7 C12 1_555 1_555
C13 C8 1_555 1_555
H8 C13 1_555 1_555
C14 C15 1_555 1_555
C15 H9 1_555 1_555
C16 C15 1_555 1_555
H10 C16 1_555 1_555
C17 C16 1_555 1_555
C18 C17 1_555 1_555
H11 C18 1_555 1_555
C19 C14 1_555 1_555
H12 C19 1_555 1_555
C20 C17 1_555 1_555
N1 C5 1_555 1_555
N2 C4 1_555 1_555
H13 N2 1_555 1_555
O1 C20 1_555 1_555
O2 C20 1_555 1_555
H14 O2 1_555 1_555
O3 C7 1_555 1_555
O4 Co1 1_555 1_555
O5 C11 1_555 1_555
C1D C3 1_555 1_555
H1D C1D 1_555 1_555
C2D C1D 1_555 1_555
C3D C1 1_555 1_555
H2D C3D 1_555 1_555
C4D C2D 1_555 1_555
C5D C4D 1_555 1_555
H3D C5D 1_555 1_555
C6D H4D 1_555 1_555
N1D C5D 1_555 1_555
N2D C4D 1_555 1_555
H13D N2D 1_555 1_555
C7A C8A 1_555 1_555
C8A C9A 1_555 1_555
C9A H5A 1_555 1_555
C10A C9A 1_555 1_555
H6A C10A 1_555 1_555
C11A C10A 1_555 1_555
C12A C11A 1_555 1_555
H7A C12A 1_555 1_555
C13A C8A 1_555 1_555
H8A C13A 1_555 1_555
C14A C15A 1_555 1_555
C15A H9A 1_555 1_555
C16A C15A 1_555 1_555
H10A C16A 1_555 1_555
C17A C16A 1_555 1_555
C18A C17A 1_555 1_555
H11A C18A 1_555 1_555
C19A C14A 1_555 1_555
H12A C19A 1_555 1_555
C20A C17A 1_555 1_555
O1A C20A 1_555 1_555
O2A C20A 1_555 1_555
H14A O2A 1_555 1_555
O3A C7A 1_555 1_555
O4A Co1 1_555 1_555
O5A C11A 1_555 1_555
Co1D N1D 1_555 1_555
N1A Co1 1_555 1_555
C6 N1 1_555 1_555
C6 N2 1_555 1_555
C7 O4 1_555 1_555
C12 C13 1_555 1_555
C14 O5 1_555 1_555
C18 C19 1_555 1_555
C2D C3D 1_555 1_555
C6D N1D 1_555 1_555
C6D N2D 1_555 1_555
C7A O4A 1_555 1_555
C12A C13A 1_555 1_555
C14A O5A 1_555 1_555
C18A C19A 1_555 1_555

#END
