
#######################################################################
#
#                 Cambridge Crystallographic Data Centre
#                                CCDC 
#
#######################################################################
#
# If this CIF has been generated from an entry in the Cambridge 
# Structural Database, then it will include bibliographic, chemical, 
# crystal, experimental, refinement or atomic coordinate data resulting 
# from the CCDC's data processing and validation procedures.
#
#######################################################################

data_WIMLAG
_symmetry_cell_setting           triclinic
_symmetry_space_group_name_H-M   'P -1'
_symmetry_Int_Tables_number      2
_space_group_name_Hall           '-P 1'
loop_
_symmetry_equiv_pos_site_id
_symmetry_equiv_pos_as_xyz
1 x,y,z
2 -x,-y,-z
_cell_length_a                   10.0888(5)
_cell_length_b                   10.3628(5)
_cell_length_c                   10.7442(6)
_cell_angle_alpha                88.834(1)
_cell_angle_beta                 88.418(1)
_cell_angle_gamma                67.372(1)
_cell_volume                     1036.37
loop_
_atom_site_label
_atom_site_type_symbol
_atom_site_fract_x
_atom_site_fract_y
_atom_site_fract_z
Pb1 Pb 0.38644(2) 0.69614(2) 0.657881(18)
S1 S 0.29179(14) 0.59202(14) 1.37220(12)
N1 N 0.4833(5) 0.8649(5) 0.7405(4)
N2 N 0.2855(5) 0.9463(5) 0.5630(4)
O1 O 0.3870(4) 0.6568(4) 0.8897(4)
O2 O 0.1832(4) 0.8002(4) 0.8091(4)
O3 O -0.0471(4) 0.8899(5) 0.9430(4)
O4 O 0.3274(5) 0.4441(4) 1.3507(4)
O5 O 0.1994(4) 0.6443(5) 1.4806(4)
O6 O 0.4212(4) 0.6228(4) 1.3748(4)
C1 C 0.2560(6) 0.7313(6) 0.9015(5)
C2 C 0.1818(5) 0.7424(5) 1.0258(5)
C3 C 0.0338(6) 0.8224(6) 1.0405(5)
C4 C -0.0319(6) 0.8315(6) 1.1554(6)
H1 H -0.1298 0.8837 1.1648
C5 C 0.0464(6) 0.7636(6) 1.2568(5)
H2 H 0.0016 0.7718 1.3348
C6 C 0.1921(5) 0.6830(5) 1.2430(5)
C7 C 0.2586(5) 0.6713(5) 1.1280(5)
H3 H 0.3557 0.6155 1.1187
C8 C 0.5794(6) 0.8195(7) 0.8310(6)
H4 H 0.6012 0.7297 0.8628
C9 C 0.6471(7) 0.8986(7) 0.8790(6)
H5 H 0.7114 0.8646 0.9435
C10 C 0.6173(7) 1.0291(8) 0.8293(7)
H6 H 0.6631 1.0847 0.8586
C11 C 0.5186(7) 1.0779(6) 0.7351(6)
H7 H 0.4976 1.1663 0.7004
C12 C 0.4519(6) 0.9935(6) 0.6935(5)
C13 C 0.3431(6) 1.0389(6) 0.5931(5)
C14 C 0.3024(7) 1.1670(7) 0.5335(6)
H8 H 0.3450 1.2287 0.5539
C15 C 0.1993(7) 1.2038(7) 0.4441(6)
H9 H 0.1717 1.2900 0.4035
C16 C 0.1380(7) 1.1115(7) 0.4157(6)
H10 H 0.0666 1.1347 0.3567
C17 C 0.1840(6) 0.9823(7) 0.4764(6)
H11 H 0.1431 0.9191 0.4564
H16 H 0.005(7) 0.878(9) 0.877(4)
Pb1A Pb 0.61356(2) 0.30386(2) 1.342119(18)
Pb1_2 Pb 0.38644(2) 0.69614(2) 1.657881(18)
Pb1A_2 Pb 0.61356(2) 0.30386(2) 0.342119(18)
S1A S 0.70821(14) 0.40798(14) 0.62780(12)
N1A N 0.5167(5) 0.1351(5) 1.2595(4)
N2A N 0.7145(5) 0.0537(5) 1.4370(4)
O1A O 0.6130(4) 0.3432(4) 1.1103(4)
O2A O 0.8168(4) 0.1998(4) 1.1909(4)
O3A O 1.0471(4) 0.1101(5) 1.0570(4)
O4A O 0.6726(5) 0.5559(4) 0.6493(4)
O5A O 0.8006(4) 0.3557(5) 0.5194(4)
O5_2 O 0.1994(4) 0.6443(5) 0.4806(4)
O5A_2 O 0.8006(4) 0.3557(5) 1.5194(4)
O6A O 0.5788(4) 0.3772(4) 0.6252(4)
O6_2 O 0.4212(4) 0.6228(4) 0.3748(4)
O6A_2 O 0.5788(4) 0.3772(4) 1.6252(4)
C1A C 0.7440(6) 0.2687(6) 1.0985(5)
C2A C 0.8182(5) 0.2576(5) 0.9742(5)
C3A C 0.9662(6) 0.1776(6) 0.9595(5)
C4A C 1.0319(6) 0.1685(6) 0.8446(6)
H1A H 1.1298 0.1163 0.8352
C5A C 0.9536(6) 0.2364(6) 0.7432(5)
H2A H 0.9984 0.2282 0.6652
C6A C 0.8079(5) 0.3170(5) 0.7570(5)
C7A C 0.7414(5) 0.3287(5) 0.8720(5)
H3A H 0.6443 0.3845 0.8813
C8A C 0.4206(6) 0.1805(7) 1.1690(6)
H4A H 0.3988 0.2703 1.1372
C9A C 0.3529(7) 0.1014(7) 1.1210(6)
H5A H 0.2886 0.1354 1.0565
C10A C 0.3827(7) -0.0291(8) 1.1707(7)
H6A H 0.3369 -0.0847 1.1414
C11A C 0.4814(7) -0.0779(6) 1.2649(6)
H7A H 0.5024 -0.1663 1.2996
C12A C 0.5481(6) 0.0065(6) 1.3065(5)
C13A C 0.6569(6) -0.0389(6) 1.4069(5)
C14A C 0.6976(7) -0.1670(7) 1.4665(6)
H8A H 0.6550 -0.2287 1.4461
C15A C 0.8007(7) -0.2038(7) 1.5559(6)
H9A H 0.8283 -0.2900 1.5965
C16A C 0.8620(7) -0.1115(7) 1.5843(6)
H10A H 0.9334 -0.1347 1.6433
C17A C 0.8160(6) 0.0177(7) 1.5236(6)
H11A H 0.8569 0.0809 1.5436
H16A H 0.995(7) 0.122(9) 1.123(4)
N3 N 0.7528(7) 0.5582(7) 0.2463(7)
C18 C 0.7160(7) 0.6036(7) 0.1250(7)
H12 H 0.6193 0.6523 0.1083
C19 C 0.8097(5) 0.5818(5) 0.0323(5)
H13 H 0.7792 0.6145 -0.0474
C20 C 0.9493(6) 0.5121(6) 0.0539(6)
C21 C 0.9958(7) 0.4649(7) 0.1722(6)
H14 H 1.0933 0.4168 0.1859
C22 C 0.8986(7) 0.4888(7) 0.2696(7)
H15 H 0.9296 0.4591 0.3498
N3A N 1.2472(7) 0.4418(7) -0.2463(7)
C18A C 1.2840(7) 0.3964(7) -0.1250(7)
H12A H 1.3807 0.3477 -0.1083
C19A C 1.1903(5) 0.4182(5) -0.0323(5)
H13A H 1.2208 0.3855 0.0474
C20A C 1.0507(6) 0.4879(6) -0.0539(6)
C21A C 1.0042(7) 0.5351(7) -0.1722(6)
H14A H 0.9067 0.5832 -0.1859
C22A C 1.1014(7) 0.5112(7) -0.2696(7)
H15A H 1.0704 0.5409 -0.3498
loop_
_geom_bond_atom_site_label_1
_geom_bond_atom_site_label_2
_geom_bond_site_symmetry_1
_geom_bond_site_symmetry_2
Pb1 N1 1_555 1_555
S1 O4 1_555 1_555
N1 C8 1_555 1_555
N2 Pb1 1_555 1_555
N3 C18 1_555 1_555
O1 Pb1 1_555 1_555
O2 Pb1 1_555 1_555
O3 C3 1_555 1_555
O4 Pb1A 1_555 1_555
O5 S1 1_555 1_555
O6 S1 1_555 1_555
C1 O1 1_555 1_555
C2 C1 1_555 1_555
C3 C2 1_555 1_555
C4 C3 1_555 1_555
H1 C4 1_555 1_555
C5 C4 1_555 1_555
H2 C5 1_555 1_555
C6 S1 1_555 1_555
C7 C2 1_555 1_555
H3 C7 1_555 1_555
C8 H4 1_555 1_555
C9 C8 1_555 1_555
H5 C9 1_555 1_555
C10 C9 1_555 1_555
H6 C10 1_555 1_555
C11 C10 1_555 1_555
H7 C11 1_555 1_555
C12 N1 1_555 1_555
C13 N2 1_555 1_555
C14 C13 1_555 1_555
H8 C14 1_555 1_555
C15 C14 1_555 1_555
H9 C15 1_555 1_555
C16 C15 1_555 1_555
H10 C16 1_555 1_555
C17 N2 1_555 1_555
H11 C17 1_555 1_555
C18 H12 1_555 1_555
C19 C18 1_555 1_555
H13 C19 1_555 1_555
C20 C19 1_555 1_555
C21 C20 1_555 1_555
H14 C21 1_555 1_555
C22 N3 1_555 1_555
H15 C22 1_555 1_555
H16 O3 1_555 1_555
Pb1A O6 1_555 1_555
Pb1_2 O5 1_555 1_555
Pb1A_2 O5A 1_555 1_555
S1A O4A 1_555 1_555
N1A Pb1A 1_555 1_555
N2A Pb1A 1_555 1_555
N3A C18A 1_555 1_555
O1A Pb1A 1_555 1_555
O2A Pb1A 1_555 1_555
O3A C3A 1_555 1_555
O4A Pb1 1_555 1_555
O5A S1A 1_555 1_555
O5_2 Pb1 1_555 1_555
O5A_2 Pb1A 1_555 1_555
O6A Pb1 1_555 1_555
O6_2 Pb1 1_555 1_555
O6A_2 Pb1A 1_555 1_555
C1A O1A 1_555 1_555
C2A C1A 1_555 1_555
C3A C2A 1_555 1_555
C4A C3A 1_555 1_555
H1A C4A 1_555 1_555
C5A C4A 1_555 1_555
H2A C5A 1_555 1_555
C6A S1A 1_555 1_555
C7A C2A 1_555 1_555
H3A C7A 1_555 1_555
C8A N1A 1_555 1_555
H4A C8A 1_555 1_555
C9A C8A 1_555 1_555
H5A C9A 1_555 1_555
C10A C9A 1_555 1_555
H6A C10A 1_555 1_555
C11A C10A 1_555 1_555
H7A C11A 1_555 1_555
C12A N1A 1_555 1_555
C13A N2A 1_555 1_555
C14A C13A 1_555 1_555
H8A C14A 1_555 1_555
C15A C14A 1_555 1_555
H9A C15A 1_555 1_555
C16A C15A 1_555 1_555
H10A C16A 1_555 1_555
C17A N2A 1_555 1_555
H11A C17A 1_555 1_555
C18A H12A 1_555 1_555
C19A C18A 1_555 1_555
H13A C19A 1_555 1_555
C20A C20 1_555 1_555
C21A C20A 1_555 1_555
H14A C21A 1_555 1_555
C22A N3A 1_555 1_555
H15A C22A 1_555 1_555
H16A O3A 1_555 1_555
O2 C1 1_555 1_555
O6 Pb1_2 1_555 1_555
C5 C6 1_555 1_555
C6 C7 1_555 1_555
C11 C12 1_555 1_555
C12 C13 1_555 1_555
C16 C17 1_555 1_555
C21 C22 1_555 1_555
Pb1_2 O6A_2 1_555 1_555
Pb1A_2 O6A 1_555 1_555
Pb1A_2 O6_2 1_555 1_555
S1A O6A 1_555 1_555
O2A C1A 1_555 1_555
C5A C6A 1_555 1_555
C6A C7A 1_555 1_555
C11A C12A 1_555 1_555
C12A C13A 1_555 1_555
C16A C17A 1_555 1_555
C19A C20A 1_555 1_555
C21A C22A 1_555 1_555

#END
