
#######################################################################
#
#                 Cambridge Crystallographic Data Centre
#                                CCDC 
#
#######################################################################
#
# If this CIF has been generated from an entry in the Cambridge 
# Structural Database, then it will include bibliographic, chemical, 
# crystal, experimental, refinement or atomic coordinate data resulting 
# from the CCDC's data processing and validation procedures.
#
#######################################################################

data_WIMPEN
_symmetry_cell_setting           monoclinic
_symmetry_space_group_name_H-M   'C 2/c'
_symmetry_Int_Tables_number      15
_space_group_name_Hall           '-C 2yn'
loop_
_symmetry_equiv_pos_site_id
_symmetry_equiv_pos_as_xyz
1 x,y,z
2 -x,y,1/2-z
3 1/2+x,1/2+y,z
4 1/2-x,1/2+y,1/2-z
5 -x,-y,-z
6 x,-y,1/2+z
7 1/2-x,1/2-y,-z
8 1/2+x,1/2-y,1/2+z
_cell_length_a                   12.127(2)
_cell_length_b                   12.927(2)
_cell_length_c                   8.642(1)
_cell_angle_alpha                90
_cell_angle_beta                 132.68(1)
_cell_angle_gamma                90
_cell_volume                     995.96
loop_
_atom_site_label
_atom_site_type_symbol
_atom_site_fract_x
_atom_site_fract_y
_atom_site_fract_z
Na1 Na 0.1392(1) 0.4107(1) 0.2483(1)
O1 O 0.1781(1) 0.2623(1) 0.1226(1)
O2 O 0.2060(1) 0.0645(1) 0.1204(1)
O3 O -0.0553(1) 0.4358(1) -0.4124(1)
O4 O 0.0844(1) -0.1093(1) -0.0810(2)
N1 N 0.0000 0.3865(1) -0.2500
N2 N 0.0000 -0.0615(1) -0.2500
C1 C 0.0000 0.2770(1) -0.2500
C2 C 0.0951(1) 0.2232(1) -0.0533(2)
C3 C 0.1054(1) 0.1027(1) -0.0542(2)
C4 C 0.0000 0.0488(1) -0.2500
O5 O -0.1160(1) 0.3328(1) 0.0305(1)
H1 H -0.1070(21) 0.2693(15) 0.0463(30)
H2 H -0.1782(23) 0.3401(13) -0.0915(33)
O3A O 0.0553(1) 0.4358(1) -0.0876(1)
C2A C -0.0951(1) 0.2232(1) -0.4467(2)
O1A O -0.1781(1) 0.2623(1) -0.6226(1)
C3A C -0.1054(1) 0.1027(1) -0.4458(2)
O2A O -0.2060(1) 0.0645(1) -0.6204(1)
O4A O -0.0844(1) -0.1093(1) -0.4190(2)
O5A O 0.1160(1) 0.3328(1) 0.4695(1)
H1A H 0.1070(21) 0.2693(15) 0.4537(30)
H2A H 0.1782(23) 0.3401(13) 0.5915(33)
Na1A Na -0.1392(1) 0.4107(1) -0.7483(1)
Na1A_2 Na -0.1392(1) 0.4107(1) 0.2517(1)
Na1D Na -0.1392(1) 0.5893(1) -0.2483(1)
O2C O 0.2940(1) 0.5645(1) 0.3796(1)
O3D O 0.0553(1) 0.5642(1) 0.4124(1)
O3E O -0.0553(1) 0.5642(1) 0.0876(1)
O4C O 0.4156(1) 0.3907(1) 0.5810(2)
Na1C Na 0.3608(1) -0.0893(1) 0.2517(1)
Na1E Na 0.1392(1) 0.5893(1) -0.2517(1)
Na1B Na -0.3608(1) -0.0893(1) -0.7517(1)
Na1_2 Na 0.1392(1) 0.4107(1) -0.7517(1)
O2B O -0.2940(1) 0.5645(1) -0.8796(1)
O3D_2 O 0.0553(1) 0.5642(1) -0.5876(1)
O3E_2 O -0.0553(1) 0.5642(1) -0.9124(1)
O4B O -0.4156(1) 0.3907(1) -1.0810(2)
O5_2 O -0.1160(1) 0.3328(1) -0.9695(1)
O5A_2 O 0.1160(1) 0.3328(1) -0.5305(1)
H1_2 H -0.1070(21) 0.2693(15) -0.9537(30)
H2_2 H -0.1782(23) 0.3401(13) -1.0915(33)
H1A_2 H 0.1070(21) 0.2693(15) -0.5463(30)
H2A_2 H 0.1782(23) 0.3401(13) -0.4085(33)
loop_
_geom_bond_atom_site_label_1
_geom_bond_atom_site_label_2
_geom_bond_site_symmetry_1
_geom_bond_site_symmetry_2
Na1 O1 1_555 1_555
O1 C2 1_555 1_555
O2 C3 1_555 1_555
O3 N1 1_555 1_555
O4 N2 1_555 1_555
N1 C1 1_555 1_555
N2 C4 1_555 1_555
C1 C2 1_555 1_555
C2 C3 1_555 1_555
C3 C4 1_555 1_555
C4 C3A 1_555 1_555
O5 Na1 1_555 1_555
H1 O5 1_555 1_555
H2 O5 1_555 1_555
O3A Na1 1_555 1_555
C2A C1 1_555 1_555
O1A C2A 1_555 1_555
C3A C2A 1_555 1_555
O2A C3A 1_555 1_555
O4A N2 1_555 1_555
O5A Na1 1_555 1_555
H1A O5A 1_555 1_555
H2A O5A 1_555 1_555
Na1A O3 1_555 1_555
Na1A_2 O5 1_555 1_555
Na1D O3 1_555 1_555
O2C Na1 1_555 1_555
O3D Na1 1_555 1_555
O3E Na1 1_555 1_555
O4C Na1 1_555 1_555
Na1C O2 1_555 1_555
Na1E O3 1_555 1_555
Na1B O2A 1_555 1_555
Na1_2 O3D_2 1_555 1_555
O2B Na1A 1_555 1_555
O3D_2 Na1A 1_555 1_555
O3E_2 Na1A 1_555 1_555
O4B Na1A 1_555 1_555
O5_2 Na1A 1_555 1_555
O5A_2 Na1A 1_555 1_555
H1_2 O5_2 1_555 1_555
H2_2 O5_2 1_555 1_555
H1A_2 O5A_2 1_555 1_555
H2A_2 O5A_2 1_555 1_555
O4 Na1C 1_555 1_555
N1 O3A 1_555 1_555
O3A Na1D 1_555 1_555
O3A Na1E 1_555 1_555
O1A Na1A 1_555 1_555
O4A Na1B 1_555 1_555
O5A Na1A_2 1_555 1_555
Na1A_2 O3D 1_555 1_555
Na1A_2 O3E 1_555 1_555
Na1D O3E 1_555 1_555
Na1E O3D_2 1_555 1_555
Na1_2 O3E_2 1_555 1_555
Na1_2 O5_2 1_555 1_555
Na1_2 O5A_2 1_555 1_555

#END
