
#######################################################################
#
#                 Cambridge Crystallographic Data Centre
#                                CCDC 
#
#######################################################################
#
# If this CIF has been generated from an entry in the Cambridge 
# Structural Database, then it will include bibliographic, chemical, 
# crystal, experimental, refinement or atomic coordinate data resulting 
# from the CCDC's data processing and validation procedures.
#
#######################################################################

data_WIMRUG
_symmetry_cell_setting           triclinic
_symmetry_space_group_name_H-M   'P -1'
_symmetry_Int_Tables_number      2
_space_group_name_Hall           '-P 1'
loop_
_symmetry_equiv_pos_site_id
_symmetry_equiv_pos_as_xyz
1 x,y,z
2 -x,-y,-z
_cell_length_a                   9.031(4)
_cell_length_b                   9.158(4)
_cell_length_c                   9.368(4)
_cell_angle_alpha                68.222(4)
_cell_angle_beta                 89.470(5)
_cell_angle_gamma                83.464(5)
_cell_volume                     714.358
loop_
_atom_site_label
_atom_site_type_symbol
_atom_site_fract_x
_atom_site_fract_y
_atom_site_fract_z
Mn1 Mn 0.5000 0.5000 -0.5000
N1 N 0.5527(2) -0.0044(2) -0.1860(2)
N2 N 0.5676(2) 0.2415(2) -0.3416(2)
N3 N 0.5347(2) -0.2739(2) -0.1610(2)
N4 N 0.5406(2) -0.4173(2) -0.3049(2)
O3 O 0.26903(17) 0.48110(19) -0.4459(2)
H1 H 0.2145 0.4212 -0.4665
H2 H 0.2223 0.5124 -0.3813
C1 C 0.4786(3) 0.1318(3) -0.2823(3)
H9 H 0.3766 0.1467 -0.3044
C2 C 0.7071(3) 0.1700(3) -0.2798(3)
H10 H 0.7940 0.2186 -0.3018
C3 C 0.6996(3) 0.0196(3) -0.1829(3)
H11 H 0.7780 -0.0529 -0.1257
C4 C 0.4725(3) -0.2944(3) -0.2810(3)
H12 H 0.3911 -0.2293 -0.3400
C5 C 0.6522(3) -0.4787(3) -0.1930(3)
H13 H 0.7198 -0.5675 -0.1802
C6 C 0.6495(3) -0.3917(3) -0.1044(3)
H14 H 0.7135 -0.4087 -0.0211
C7 C 0.4886(3) -0.1505(3) -0.1019(3)
H15 H 0.5192 -0.1875 0.0059
H16 H 0.3807 -0.1288 -0.1093
Mn1_2 Mn 0.5000 -0.5000 -0.5000
Mn1_3 Mn 0.5000 1.5000 -0.5000
N1A N 0.4473(2) 1.0044(2) -0.8140(2)
N2A N 0.4324(2) 0.7585(2) -0.6584(2)
N3A N 0.4653(2) 1.2739(2) -0.8390(2)
N4A N 0.4594(2) 0.4173(2) -0.6951(2)
N4_2 N 0.5406(2) 0.5827(2) -0.3049(2)
N4A_2 N 0.4594(2) 1.4173(2) -0.6951(2)
O3A O 0.73097(17) 0.51890(19) -0.5541(2)
H1A H 0.7855 0.5788 -0.5335
H2A H 0.7777 0.4876 -0.6187
C1A C 0.5214(3) 0.8682(3) -0.7177(3)
H9A H 0.6234 0.8533 -0.6956
C2A C 0.2929(3) 0.8300(3) -0.7202(3)
H10A H 0.2060 0.7814 -0.6982
C3A C 0.3004(3) 0.9804(3) -0.8171(3)
H11A H 0.2220 1.0529 -0.8743
C4A C 0.5275(3) 1.2944(3) -0.7190(3)
H12A H 0.6089 1.2293 -0.6600
C5A C 0.3478(3) 1.4787(3) -0.8070(3)
H13A H 0.2802 1.5675 -0.8198
C6A C 0.3505(3) 1.3917(3) -0.8956(3)
H14A H 0.2865 1.4087 -0.9789
C7A C 0.5114(3) 1.1505(3) -0.8981(3)
H15A H 0.4808 1.1875 -1.0059
H16A H 0.6193 1.1288 -0.8907
O1 O 0.1215(2) 0.0863(2) -0.3016(2)
O2 O 0.1157(2) 0.2902(2) -0.5225(2)
C8 C 0.0957(3) 0.1514(3) -0.4437(3)
C9 C 0.0377(3) 0.0594(3) -0.5300(3)
H17 H 0.0573 0.0901 -0.6341
O1A O -0.1215(2) -0.0863(2) -0.6984(2)
O2A O -0.1157(2) -0.2902(2) -0.4775(2)
C8A C -0.0957(3) -0.1514(3) -0.5563(3)
C9A C -0.0377(3) -0.0594(3) -0.4700(3)
H17A H -0.0573 -0.0901 -0.3659
O4 O 0.0916(2) 0.56923(19) -0.2413(2)
H3 H 0.0192 0.6129 -0.3059
H4 H 0.1060 0.6315 -0.1958
O5 O 0.1357(2) 0.7783(2) -0.1010(2)
H5 H 0.1177 0.8709 -0.1692
H6 H 0.0668 0.7722 -0.0373
O6 O 0.0921(3) 0.2472(2) -0.1022(2)
H7 H 0.0814 0.3468 -0.1514
H8 H 0.0950 0.2078 -0.1714
loop_
_geom_bond_atom_site_label_1
_geom_bond_atom_site_label_2
_geom_bond_site_symmetry_1
_geom_bond_site_symmetry_2
Mn1 N2 1_555 1_555
N1 C1 1_555 1_555
N2 C1 1_555 1_555
N3 C4 1_555 1_555
N4 C4 1_555 1_555
O1 C8 1_555 1_555
O2 C8 1_555 1_555
O3 Mn1 1_555 1_555
H1 O3 1_555 1_555
H2 O3 1_555 1_555
O4 H3 1_555 1_555
H4 O4 1_555 1_555
O5 H5 1_555 1_555
H6 O5 1_555 1_555
O6 H7 1_555 1_555
H8 O6 1_555 1_555
C1 H9 1_555 1_555
C2 N2 1_555 1_555
H10 C2 1_555 1_555
C3 N1 1_555 1_555
H11 C3 1_555 1_555
C4 H12 1_555 1_555
C5 N4 1_555 1_555
H13 C5 1_555 1_555
C6 N3 1_555 1_555
H14 C6 1_555 1_555
C7 N1 1_555 1_555
H15 C7 1_555 1_555
H16 C7 1_555 1_555
C8 C9 1_555 1_555
C9 H17 1_555 1_555
Mn1_2 N4 1_555 1_555
Mn1_3 N4A_2 1_555 1_555
N1A C1A 1_555 1_555
N2A Mn1 1_555 1_555
N3A C4A 1_555 1_555
N4A Mn1 1_555 1_555
N4_2 Mn1 1_555 1_555
N4A_2 C4A 1_555 1_555
O1A C8A 1_555 1_555
O2A C8A 1_555 1_555
O3A Mn1 1_555 1_555
H1A O3A 1_555 1_555
H2A O3A 1_555 1_555
C1A N2A 1_555 1_555
H9A C1A 1_555 1_555
C2A N2A 1_555 1_555
H10A C2A 1_555 1_555
C3A N1A 1_555 1_555
H11A C3A 1_555 1_555
C4A H12A 1_555 1_555
C5A N4A_2 1_555 1_555
H13A C5A 1_555 1_555
C6A N3A 1_555 1_555
H14A C6A 1_555 1_555
C7A N1A 1_555 1_555
H15A C7A 1_555 1_555
H16A C7A 1_555 1_555
C8A C9A 1_555 1_555
C9A C9 1_555 1_555
H17A C9A 1_555 1_555
N3 C7 1_555 1_555
C2 C3 1_555 1_555
C5 C6 1_555 1_555
N3A C7A 1_555 1_555
C2A C3A 1_555 1_555
C5A C6A 1_555 1_555

#END
