
#######################################################################
#
#                 Cambridge Crystallographic Data Centre
#                                CCDC 
#
#######################################################################
#
# If this CIF has been generated from an entry in the Cambridge 
# Structural Database, then it will include bibliographic, chemical, 
# crystal, experimental, refinement or atomic coordinate data resulting 
# from the CCDC's data processing and validation procedures.
#
#######################################################################

data_WIMTAO
_symmetry_cell_setting           tetragonal
_symmetry_space_group_name_H-M   'I 41/a c d'
_symmetry_Int_Tables_number      142
_space_group_name_Hall           '-I 4bd 2c'
loop_
_symmetry_equiv_pos_site_id
_symmetry_equiv_pos_as_xyz
1 x,y,z
2 1/4-y,3/4+x,1/4+z
3 1/4+y,1/4-x,3/4+z
4 1/4+y,3/4+x,3/4-z
5 1/4-y,1/4-x,1/4-z
6 1/2+x,1/2+y,1/2+z
7 3/4-y,1/4+x,3/4+z
8 3/4+y,3/4-x,1/4+z
9 3/4+y,1/4+x,1/4-z
10 1/2-x,-y,1/2+z
11 1/2-x,y,-z
12 x,-y,1/2-z
13 -x,1/2-y,z
14 -x,1/2+y,1/2-z
15 1/2+x,1/2-y,-z
16 3/4-y,3/4-x,3/4-z
17 -x,-y,-z
18 3/4+y,1/4-x,3/4-z
19 3/4-y,3/4+x,1/4-z
20 3/4-y,1/4-x,1/4+z
21 3/4+y,3/4+x,3/4+z
22 1/2-x,1/2-y,1/2-z
23 1/4+y,3/4-x,1/4-z
24 1/4-y,1/4+x,3/4-z
25 1/4-y,3/4-x,3/4+z
26 1/2+x,y,1/2-z
27 1/2+x,-y,z
28 -x,y,1/2+z
29 x,1/2+y,-z
30 x,1/2-y,1/2+z
31 1/2-x,1/2+y,z
32 1/4+y,1/4+x,1/4+z
_cell_length_a                   23.6850(10)
_cell_length_b                   23.6850(10)
_cell_length_c                   46.509(2)
_cell_angle_alpha                90
_cell_angle_beta                 90
_cell_angle_gamma                90
_cell_volume                     26090.6
loop_
_atom_site_label
_atom_site_type_symbol
_atom_site_fract_x
_atom_site_fract_y
_atom_site_fract_z
Ag1 Ag 0.21200(3) -0.07127(3) 0.186510(15)
Ag2 Ag 0.1757 0.00000(4) 0.2500
Ag3 Ag 0.28981(3) -0.03981(3) 0.1250
O1 O 0.0751(4) 0.0370(3) 0.2400(2)
N1 N 0.0620(5) 0.0197(4) 0.16639(19)
H1 H 0.0438 0.0525 0.1635
N2 N 0.1333(4) -0.0360(3) 0.17760(17)
N3 N 0.3456(4) 0.1315(4) 0.14813(17)
H2 H 0.3371 0.1677 0.1522
N4 N 0.3269(4) 0.0415(3) 0.13771(16)
N5 N 0.2599(3) 0.1623(3) 0.23022(16)
H3 H 0.2918 0.1819 0.2269
N6 N 0.2077(3) 0.0850(3) 0.23893(14)
N7 N 0.3821(3) -0.1166(3) 0.20524(16)
H4 H 0.4176 -0.1063 0.2099
N8 N 0.2918(3) -0.1044(3) 0.19507(15)
N9 N 0.0470 0.0000(5) 0.2500
C1 C 0.0361(7) -0.0329(5) 0.1689(3)
H5 H 0.0251 -0.0455 0.1501
H6 H 0.0036 -0.0329 0.1813
C2 C 0.0823(5) -0.0707(5) 0.1795(3)
H7 H 0.0747 0.0805 0.3008
H8 H 0.0866 0.1048 0.3314
C3 C 0.1169(5) 0.0147(4) 0.17021(18)
C4 C 0.1554(4) 0.0626(4) 0.16597(19)
C5 C 0.1346(6) 0.1179(5) 0.1668(2)
H9 H 0.0956 -0.1247 0.3289
C6 C 0.1714(5) 0.1633(6) 0.1617(2)
H10 H 0.1572 -0.2013 0.3381
C7 C 0.2260(5) 0.1541(5) 0.1556(2)
H11 H 0.2508 -0.1855 0.3475
C8 C 0.2487(4) 0.1006(4) 0.15400(16)
C9 C 0.2122(4) -0.0541(4) 0.34058(17)
H12 H 0.2273 -0.0166 0.3413
C10 C 0.3076(5) 0.0887(4) 0.14643(18)
C11 C 0.4010(5) 0.1091(5) 0.1429(2)
H13 H 0.4238 0.1096 0.1599
H14 H 0.4195 0.1306 0.1281
C12 C 0.3885(6) 0.0483(4) 0.1330(2)
H15 H 0.3974 0.0436 0.1130
H16 H 0.4096 0.0215 0.1441
C13 C 0.2050(3) 0.1862(4) 0.2358(2)
H17 H 0.1895 0.2033 0.2188
H18 H 0.2064 0.2136 0.2509
C14 C 0.1710(4) 0.1343(4) 0.2447(2)
H19 H 0.1618 -0.1357 0.2352
H20 H 0.1367 -0.1314 0.2662
C15 C 0.2556(3) 0.1043(3) 0.23075(15)
C16 C 0.3055(3) 0.0707(3) 0.22292(14)
C17 C 0.3607(4) 0.0930(4) 0.22360(17)
H21 H 0.3667 -0.1322 0.2720
C18 C 0.4065(4) 0.0591(4) 0.2178(2)
H22 H 0.4439 -0.0746 0.2817
C19 C 0.3998(4) 0.0034(4) 0.21099(18)
H23 H 0.4320 0.0200 0.2929
C20 C 0.3456(3) -0.0199(3) 0.20991(16)
C21 C 0.2997(3) -0.0141(3) 0.28417(14)
H24 H 0.2626 0.0021 0.2852
C22 C 0.3385(3) -0.0808(4) 0.20311(16)
C23 C 0.3637(4) -0.1742(5) 0.1989(2)
H25 H 0.3679 -0.1985 0.2153
H26 H 0.3842 -0.1899 0.1830
C24 C 0.3030(4) -0.1648(4) 0.1913(2)
H27 H 0.2954 -0.1762 0.1719
H28 H 0.2790 -0.1859 0.2040
Ag1K Ag 0.21200(3) 0.07127(3) 0.313490(15)
Ag3A Ag 0.28981(3) 0.03981(3) 0.3750
O1K O 0.0751(4) -0.0370(3) 0.2600(2)
N1K N 0.0620(5) -0.0197(4) 0.33361(19)
H1K H 0.0438 -0.0525 0.3365
N2K N 0.1333(4) 0.0360(3) 0.32240(17)
N3K N 0.3456(4) -0.1315(4) 0.35187(17)
H2K H 0.3371 -0.1677 0.3478
N4D N 0.2085(3) -0.0769(4) 0.11229(16)
N4K N 0.3269(4) -0.0415(3) 0.36229(16)
N5K N 0.2599(3) -0.1623(3) 0.26978(16)
H3K H 0.2918 -0.1819 0.2731
N6K N 0.2077(3) -0.0850(3) 0.26107(14)
N7K N 0.3821(3) 0.1166(3) 0.29476(16)
H4K H 0.4176 0.1063 0.2901
N8K N 0.2918(3) 0.1044(3) 0.30493(15)
C1K C 0.0361(7) 0.0329(5) 0.3311(3)
H5K H 0.0251 0.0455 0.3499
H6K H 0.0036 0.0329 0.3187
C2K C 0.0823(5) 0.0707(5) 0.3205(3)
H7K H 0.0747 -0.0805 0.1992
H8K H 0.0866 -0.1048 0.1686
C3K C 0.1169(5) -0.0147(4) 0.32979(18)
C4K C 0.1554(4) -0.0626(4) 0.33403(19)
C5K C 0.1346(6) -0.1179(5) 0.3332(2)
H9K H 0.0956 0.1247 0.1711
C6K C 0.1714(5) -0.1633(6) 0.3383(2)
H10K H 0.1572 0.2013 0.1619
C7K C 0.2260(5) -0.1541(5) 0.3444(2)
H11K H 0.2508 0.1855 0.1525
C8K C 0.2487(4) -0.1006(4) 0.34600(16)
C9K C 0.2122(4) 0.0541(4) 0.15942(17)
H12K H 0.2273 0.0166 0.1587
C10K C 0.3076(5) -0.0887(4) 0.35357(18)
C11K C 0.4010(5) -0.1091(5) 0.3571(2)
H13K H 0.4238 -0.1096 0.3401
H14K H 0.4195 -0.1306 0.3719
C12K C 0.3885(6) -0.0483(4) 0.3670(2)
H15K H 0.3974 -0.0436 0.3870
H16K H 0.4096 -0.0215 0.3559
C13K C 0.2050(3) -0.1862(4) 0.2642(2)
H17K H 0.1895 -0.2033 0.2812
H18K H 0.2064 -0.2136 0.2491
C14K C 0.1710(4) -0.1343(4) 0.2553(2)
H19K H 0.1618 0.1357 0.2648
H20K H 0.1367 0.1314 0.2338
C15K C 0.2556(3) -0.1043(3) 0.26925(15)
C16K C 0.3055(3) -0.0707(3) 0.27708(14)
C17K C 0.3607(4) -0.0930(4) 0.27640(17)
H21K H 0.3667 0.1322 0.2280
C18K C 0.4065(4) -0.0591(4) 0.2822(2)
H22K H 0.4439 0.0746 0.2183
C19K C 0.3998(4) -0.0034(4) 0.28901(18)
H23K H 0.4320 -0.0200 0.2071
C20K C 0.3456(3) 0.0199(3) 0.29009(16)
C21K C 0.2997(3) 0.0141(3) 0.21583(14)
H24K H 0.2626 -0.0021 0.2148
C22K C 0.3385(3) 0.0808(4) 0.29689(16)
C23K C 0.3637(4) 0.1742(5) 0.3011(2)
H25K H 0.3679 0.1985 0.2847
H26K H 0.3842 0.1899 0.3170
C24K C 0.3030(4) 0.1648(4) 0.3087(2)
H27K H 0.2954 0.1762 0.3281
H28K H 0.2790 0.1859 0.2960
O2 O 0.3895(6) -0.0845(6) 0.1345(3)
N10 N 0.3799(7) -0.1299(7) 0.1250
O2D O 0.3345(6) -0.1395(6) 0.1155(3)
O5 O 0.3696(5) -0.2507(4) 0.0285(3)
H29 H 0.3555 -0.2179 0.0268
H30 H 0.3443 -0.2737 0.0230
O6 O 0.1377(8) 0.2557(6) 0.1006(4)
H31 H 0.1358 0.2538 0.0824
H32 H 0.1462 0.2892 0.1054
O7 O 0.0777(15) -0.2479(16) 0.0277(8)
H33 H 0.0771 -0.2416 0.0439
O8 O 0.4651(14) -0.2897(15) 0.0502(8)
H34 H 0.4599 -0.2630 0.0618
H35 H 0.4655 -0.2981 0.0335
O3? O -0.0503(11) -0.0981(10) 0.0632(3)
O4? O 0.0209(6) -0.0835(7) 0.0591(3)
N11? N -0.0105(5) -0.1059(16) 0.0625(9)
O9? O 0.0334(15) 0.2114(14) 0.1116(6)
H36? H 0.0623 0.2264 0.1040
O10? O 0.0000 -0.2500 0.1087(11)
H37? H 0.0000 -0.2500 0.1247
loop_
_geom_bond_atom_site_label_1
_geom_bond_atom_site_label_2
_geom_bond_site_symmetry_1
_geom_bond_site_symmetry_2
Ag1 N2 1_555 1_555
Ag2 O1 1_555 1_555
Ag3 N4 1_555 1_555
O1 N9 1_555 1_555
O2 N10 1_555 1_555
N1 H1 1_555 1_555
N2 C2 1_555 1_555
N3 H2 1_555 1_555
N4 C10 1_555 1_555
N5 H3 1_555 1_555
N6 Ag2 1_555 1_555
N7 H4 1_555 1_555
N8 Ag1 1_555 1_555
N9 O1K 1_555 1_555
N10 O2D 1_555 1_555
C1 N1 1_555 1_555
H5 C1 1_555 1_555
H6 C1 1_555 1_555
C2 C1 1_555 1_555
H7 C2K 1_555 1_555
H8 C2K 1_555 1_555
C3 N1 1_555 1_555
C4 C3 1_555 1_555
C5 C4 1_555 1_555
H9 C5K 1_555 1_555
C6 C5 1_555 1_555
H10 C6K 1_555 1_555
C7 C6 1_555 1_555
H11 C7K 1_555 1_555
C8 C7 1_555 1_555
C9 H12 1_555 1_555
C10 N3 1_555 1_555
C11 N3 1_555 1_555
H13 C11 1_555 1_555
H14 C11 1_555 1_555
C12 N4 1_555 1_555
H15 C12 1_555 1_555
H16 C12 1_555 1_555
C13 N5 1_555 1_555
H17 C13 1_555 1_555
H18 C13 1_555 1_555
C14 N6 1_555 1_555
H19 C14K 1_555 1_555
H20 C14K 1_555 1_555
C15 N5 1_555 1_555
C16 C15 1_555 1_555
C17 C16 1_555 1_555
H21 C17K 1_555 1_555
C18 C17 1_555 1_555
H22 C18K 1_555 1_555
C19 C18 1_555 1_555
H23 C19K 1_555 1_555
C20 C19 1_555 1_555
C21 H24 1_555 1_555
C22 N7 1_555 1_555
C23 N7 1_555 1_555
H25 C23 1_555 1_555
H26 C23 1_555 1_555
C24 N8 1_555 1_555
H27 C24 1_555 1_555
H28 C24 1_555 1_555
O5 H29 1_555 1_555
H30 O5 1_555 1_555
O6 H31 1_555 1_555
H32 O6 1_555 1_555
O7 H33 1_555 1_555
O8 H34 1_555 1_555
H35 O8 1_555 1_555
Ag1K N2K 1_555 1_555
Ag3A N4K 1_555 1_555
O1K Ag2 1_555 1_555
N1K H1K 1_555 1_555
N2K C2K 1_555 1_555
N3K H2K 1_555 1_555
N4D Ag3 1_555 1_555
N4K C10K 1_555 1_555
N5K H3K 1_555 1_555
N6K Ag2 1_555 1_555
N7K H4K 1_555 1_555
N8K Ag1K 1_555 1_555
C1K N1K 1_555 1_555
H5K C1K 1_555 1_555
H6K C1K 1_555 1_555
C2K C1K 1_555 1_555
H7K C2 1_555 1_555
H8K C2 1_555 1_555
C3K N1K 1_555 1_555
C4K C9 1_555 1_555
C5K C4K 1_555 1_555
H9K C5 1_555 1_555
C6K C5K 1_555 1_555
H10K C6 1_555 1_555
C7K C6K 1_555 1_555
H11K C7 1_555 1_555
C8K C9 1_555 1_555
C9K C4 1_555 1_555
H12K C9K 1_555 1_555
C10K N3K 1_555 1_555
C11K N3K 1_555 1_555
H13K C11K 1_555 1_555
H14K C11K 1_555 1_555
C12K N4K 1_555 1_555
H15K C12K 1_555 1_555
H16K C12K 1_555 1_555
C13K N5K 1_555 1_555
H17K C13K 1_555 1_555
H18K C13K 1_555 1_555
C14K N6K 1_555 1_555
H19K C14 1_555 1_555
H20K C14 1_555 1_555
C15K N5K 1_555 1_555
C16K C21 1_555 1_555
C17K C16K 1_555 1_555
H21K C17 1_555 1_555
C18K C17K 1_555 1_555
H22K C18 1_555 1_555
C19K C18K 1_555 1_555
H23K C19 1_555 1_555
C20K C21 1_555 1_555
C21K C16 1_555 1_555
H24K C21K 1_555 1_555
C22K N7K 1_555 1_555
C23K N7K 1_555 1_555
H25K C23K 1_555 1_555
H26K C23K 1_555 1_555
C24K N8K 1_555 1_555
H27K C24K 1_555 1_555
H28K C24K 1_555 1_555
N2 C3 1_555 1_555
N6 C15 1_555 1_555
N8 C22 1_555 1_555
C8 C10 1_555 1_555
C8 C9K 1_555 1_555
C11 C12 1_555 1_555
C13 C14 1_555 1_555
C20 C22 1_555 1_555
C20 C21K 1_555 1_555
C23 C24 1_555 1_555
N2K C3K 1_555 1_555
N6K C15K 1_555 1_555
N8K C22K 1_555 1_555
C3K C4K 1_555 1_555
C7K C8K 1_555 1_555
C8K C10K 1_555 1_555
C11K C12K 1_555 1_555
C13K C14K 1_555 1_555
C15K C16K 1_555 1_555
C19K C20K 1_555 1_555
C20K C22K 1_555 1_555
C23K C24K 1_555 1_555

#END
