
#######################################################################
#
#                 Cambridge Crystallographic Data Centre
#                                CCDC 
#
#######################################################################
#
# If this CIF has been generated from an entry in the Cambridge 
# Structural Database, then it will include bibliographic, chemical, 
# crystal, experimental, refinement or atomic coordinate data resulting 
# from the CCDC's data processing and validation procedures.
#
#######################################################################

data_WIMXOH
_symmetry_cell_setting           monoclinic
_symmetry_space_group_name_H-M   'P 21/n'
_symmetry_Int_Tables_number      14
_space_group_name_Hall           '-P 2yn'
loop_
_symmetry_equiv_pos_site_id
_symmetry_equiv_pos_as_xyz
1 x,y,z
2 1/2-x,1/2+y,1/2-z
3 -x,-y,-z
4 1/2+x,1/2-y,1/2+z
_cell_length_a                   12.884(9)
_cell_length_b                   10.024(7)
_cell_length_c                   17.347(13)
_cell_angle_alpha                90
_cell_angle_beta                 109.320(10)
_cell_angle_gamma                90
_cell_volume                     2114.19
loop_
_atom_site_label
_atom_site_type_symbol
_atom_site_fract_x
_atom_site_fract_y
_atom_site_fract_z
Zn1 Zn 0.80649(8) 0.06536(9) 0.07727(6)
Zn2 Zn 1.0000 0.0000 0.0000
Cl1 Cl 0.6834(2) 0.2000(3) 0.10064(18)
O1 O 0.7209(5) -0.0554(6) -0.0101(4)
O2 O 0.8646(5) -0.1094(7) -0.0498(4)
O3 O 0.5235(6) -0.4275(6) -0.3866(4)
O4 O 0.3925(5) -0.4562(6) -0.3305(4)
O5 O 0.9022(5) 0.1682(5) 0.0286(4)
O6 O 0.9734(6) 0.2607(6) 0.1522(4)
C1 C 0.6922(7) -0.1974(9) -0.1234(5)
C2 C 0.7328(8) -0.2507(11) -0.1818(6)
H1 H 0.8064 -0.2387 -0.1764
C3 C 0.6649(9) -0.3212(11) -0.2475(7)
H2 H 0.6929 -0.3559 -0.2864
C4 C 0.5555(8) -0.3404(9) -0.2558(5)
C5 C 0.5146(7) -0.2902(9) -0.1984(6)
H3 H 0.4413 -0.3041 -0.2035
C6 C 0.5826(7) -0.2185(9) -0.1327(5)
H4 H 0.5541 -0.1841 -0.0941
C7 C 0.7671(8) -0.1157(9) -0.0555(6)
C8 C 0.4852(9) -0.4127(8) -0.3297(6)
C9 C 0.9780(8) 0.3845(9) 0.0376(6)
C10 C 0.9590(8) 0.3891(9) -0.0457(6)
H5 H 0.9344 0.3127 -0.0768
C11 C 1.0248(9) 0.4980(9) 0.0834(6)
H6 H 1.0448 0.4958 0.1400
C12 C 0.9510(7) 0.2635(9) 0.0760(7)
O5B O 1.0978(5) 0.8318(5) -0.0286(4)
O6B O 1.0266(6) 0.7393(6) -0.1522(4)
C9B C 1.0220(8) 0.6155(9) -0.0376(6)
C10B C 1.0410(8) 0.6109(9) 0.0457(6)
H5B H 1.0656 0.6873 0.0768
C11B C 0.9752(9) 0.5020(9) -0.0834(6)
H6B H 0.9552 0.5042 -0.1400
C12B C 1.0490(7) 0.7365(9) -0.0760(7)
Zn1B Zn 1.19351(8) -0.06536(9) -0.07727(6)
Cl1B Cl 1.3166(2) -0.2000(3) -0.10064(18)
O1B O 1.2791(5) 0.0554(6) 0.0101(4)
O2B O 1.1354(5) 0.1094(7) 0.0498(4)
O3B O 1.4765(6) 0.4275(6) 0.3866(4)
O4B O 1.6075(5) 0.4562(6) 0.3305(4)
C1B C 1.3078(7) 0.1974(9) 0.1234(5)
C2B C 1.2672(8) 0.2507(11) 0.1818(6)
H1B H 1.1936 0.2387 0.1764
C3B C 1.3351(9) 0.3212(11) 0.2475(7)
H2B H 1.3071 0.3559 0.2864
C4B C 1.4445(8) 0.3404(9) 0.2558(5)
C5B C 1.4854(7) 0.2902(9) 0.1984(6)
H3B H 1.5587 0.3041 0.2035
C6B C 1.4174(7) 0.2185(9) 0.1327(5)
H4B H 1.4459 0.1841 0.0941
C7B C 1.2329(8) 0.1157(9) 0.0555(6)
C8B C 1.5148(9) 0.4127(8) 0.3297(6)
Zn1A Zn 1.69351(8) 0.56536(9) 0.42273(6)
Zn1B_2 Zn 1.19351(8) 0.93464(9) -0.07727(6)
Zn1C Zn 0.30649(8) -0.56536(9) -0.42273(6)
Zn2_2 Zn 1.0000 1.0000 0.0000
Zn2A Zn 0.5000 -0.5000 -0.5000
Zn2A_2 Zn 1.5000 0.5000 0.5000
O3A O 0.9765(6) 0.0725(6) -0.1134(4)
O3C O 1.0235(6) -0.0725(6) 0.1134(4)
O4A O 1.1075(5) 0.0438(6) -0.1695(4)
O4C O 0.8925(5) -0.0438(6) 0.1695(4)
O5B_2 O 1.0978(5) -0.1682(5) -0.0286(4)
N1 N 0.5398(17) -0.2378(18) 0.1872(8)
H7 H 0.5398 -0.2524 0.2433
C13 C 0.593(4) -0.110(3) 0.188(2)
H8 H 0.6399 -0.1232 0.1554
H9 H 0.5342 -0.0513 0.1566
C14 C 0.6470(19) -0.043(2) 0.2463(17)
H10 H 0.6809 0.0292 0.2272
H11 H 0.7029 -0.0979 0.2830
H12 H 0.6000 -0.0081 0.2743
C15 C 0.431(5) -0.230(7) 0.127(2)
H13 H 0.4032 -0.1404 0.1282
H14 H 0.4371 -0.2446 0.0737
C16 C 0.361(3) -0.312(4) 0.137(2)
H15 H 0.2892 -0.2884 0.1015
H16 H 0.3629 -0.3090 0.1928
H17 H 0.3791 -0.4004 0.1243
C17 C 0.597(3) -0.348(2) 0.1686(13)
H18 H 0.5547 -0.4278 0.1688
H19 H 0.6666 -0.3566 0.2125
C18 C 0.621(2) -0.343(3) 0.0865(12)
H20 H 0.6634 -0.4200 0.0826
H21 H 0.6612 -0.2637 0.0843
H22 H 0.5527 -0.3435 0.0418
loop_
_geom_bond_atom_site_label_1
_geom_bond_atom_site_label_2
_geom_bond_site_symmetry_1
_geom_bond_site_symmetry_2
Zn1 Cl1 1_555 1_555
Zn2 O2 1_555 1_555
O1 Zn1 1_555 1_555
O2 C7 1_555 1_555
O3 C8 1_555 1_555
O4 C8 1_555 1_555
O5 Zn1 1_555 1_555
O6 C12 1_555 1_555
C1 C2 1_555 1_555
C2 H1 1_555 1_555
C3 C2 1_555 1_555
H2 C3 1_555 1_555
C4 C3 1_555 1_555
C5 C4 1_555 1_555
H3 C5 1_555 1_555
C6 C1 1_555 1_555
H4 C6 1_555 1_555
C7 O1 1_555 1_555
C8 C4 1_555 1_555
C9 C10 1_555 1_555
C10 H5 1_555 1_555
C11 C9 1_555 1_555
H6 C11 1_555 1_555
C12 O5 1_555 1_555
N1 H7 1_555 1_555
C13 N1 1_555 1_555
H8 C13 1_555 1_555
H9 C13 1_555 1_555
C14 C13 1_555 1_555
H10 C14 1_555 1_555
H11 C14 1_555 1_555
H12 C14 1_555 1_555
C15 N1 1_555 1_555
H13 C15 1_555 1_555
H14 C15 1_555 1_555
C16 C15 1_555 1_555
H15 C16 1_555 1_555
H16 C16 1_555 1_555
H17 C16 1_555 1_555
C17 N1 1_555 1_555
H18 C17 1_555 1_555
H19 C17 1_555 1_555
C18 C17 1_555 1_555
H20 C18 1_555 1_555
H21 C18 1_555 1_555
H22 C18 1_555 1_555
O5B C12B 1_555 1_555
O6B C12B 1_555 1_555
C9B C10B 1_555 1_555
C10B C11 1_555 1_555
H5B C10B 1_555 1_555
C11B C10 1_555 1_555
H6B C11B 1_555 1_555
C12B C9B 1_555 1_555
Zn1B Cl1B 1_555 1_555
O1B Zn1B 1_555 1_555
O2B Zn2 1_555 1_555
O3B C8B 1_555 1_555
O4B C8B 1_555 1_555
C1B C2B 1_555 1_555
C2B H1B 1_555 1_555
C3B C2B 1_555 1_555
H2B C3B 1_555 1_555
C4B C3B 1_555 1_555
C5B C4B 1_555 1_555
H3B C5B 1_555 1_555
C6B C1B 1_555 1_555
H4B C6B 1_555 1_555
C7B O1B 1_555 1_555
C8B C4B 1_555 1_555
Zn1A O4B 1_555 1_555
Zn1B_2 O5B 1_555 1_555
Zn1C O4 1_555 1_555
Zn2_2 O5B 1_555 1_555
Zn2A O3 1_555 1_555
Zn2A_2 O3B 1_555 1_555
O3A Zn2 1_555 1_555
O3C Zn2 1_555 1_555
O4A Zn1B 1_555 1_555
O4C Zn1 1_555 1_555
O5B_2 Zn2 1_555 1_555
Zn2 O5 1_555 1_555
C1 C7 1_555 1_555
C5 C6 1_555 1_555
C9 C12 1_555 1_555
C9B C11B 1_555 1_555
Zn1B O5B_2 1_555 1_555
O2B C7B 1_555 1_555
C1B C7B 1_555 1_555
C5B C6B 1_555 1_555

#END
