
#######################################################################
#
#                 Cambridge Crystallographic Data Centre
#                                CCDC 
#
#######################################################################
#
# If this CIF has been generated from an entry in the Cambridge 
# Structural Database, then it will include bibliographic, chemical, 
# crystal, experimental, refinement or atomic coordinate data resulting 
# from the CCDC's data processing and validation procedures.
#
#######################################################################

data_WIMYUO
_symmetry_cell_setting           monoclinic
_symmetry_space_group_name_H-M   'P 21/c'
_symmetry_Int_Tables_number      14
_space_group_name_Hall           '-P 2ybc'
loop_
_symmetry_equiv_pos_site_id
_symmetry_equiv_pos_as_xyz
1 x,y,z
2 -x,1/2+y,1/2-z
3 -x,-y,-z
4 x,1/2-y,1/2+z
_cell_length_a                   15.2162(12)
_cell_length_b                   9.3657(6)
_cell_length_c                   9.1510(6)
_cell_angle_alpha                90
_cell_angle_beta                 91.565(5)
_cell_angle_gamma                90
_cell_volume                     1303.63
loop_
_atom_site_label
_atom_site_type_symbol
_atom_site_fract_x
_atom_site_fract_y
_atom_site_fract_z
Zn1 Zn 0.05660(3) 0.34137(4) 0.15194(4)
P1 P 0.10019(6) 0.43691(9) -0.16988(9)
H1 H 0.1813 0.4505 -0.2014
O1 O 0.11137(18) 0.3422(2) -0.0363(2)
O2 O 0.05347(18) 0.3612(2) -0.2964(3)
O3 O 0.06060(17) 0.5811(2) -0.1374(3)
N1 N 0.1157(2) 0.4467(3) 0.3220(3)
H2 H 0.1196 0.3778 0.3776
H3 H 0.0788 0.5229 0.3496
C1 C 0.2036(3) 0.5180(4) 0.3125(4)
C2 C 0.1899(3) 0.6430(4) 0.2088(5)
H4 H 0.1737 0.6081 0.1132
H5 H 0.2434 0.6969 0.2039
H6 H 0.1439 0.7032 0.2438
C3 C 0.2294(3) 0.5703(5) 0.4654(5)
H7 H 0.2377 0.4898 0.5293
H8 H 0.1836 0.6301 0.5016
H9 H 0.2830 0.6239 0.4616
C4 C 0.2658(3) 0.4031(4) 0.2564(4)
H10 H 0.2650 0.3198 0.3146
H11 H 0.2381 0.3491 0.1760
C5 C 0.3594(3) 0.4316(5) 0.2060(5)
C6 C 0.3592(5) 0.5045(9) 0.0579(8)
H12 H 0.3336 0.5978 0.0658
H13 H 0.3254 0.4488 -0.0115
H14 H 0.4185 0.5131 0.0256
C7 C 0.4170(4) 0.5117(10) 0.3116(9)
H15 H 0.3922 0.6042 0.3286
H16 H 0.4744 0.5223 0.2720
H17 H 0.4215 0.4601 0.4021
C8 C 0.4012(4) 0.2847(7) 0.1814(9)
H18 H 0.4041 0.2331 0.2721
H19 H 0.4594 0.2969 0.1457
H20 H 0.3662 0.2321 0.1111
Zn1B Zn -0.05660(3) 0.65863(4) -0.15194(4)
Zn1C Zn 0.05660(3) 0.15863(4) -0.34806(4)
O2C O 0.05347(18) 0.1388(2) 0.2036(3)
O3B O -0.06060(17) 0.4189(2) 0.1374(3)
loop_
_geom_bond_atom_site_label_1
_geom_bond_atom_site_label_2
_geom_bond_site_symmetry_1
_geom_bond_site_symmetry_2
Zn1 O1 1_555 1_555
P1 H1 1_555 1_555
O1 P1 1_555 1_555
O2 P1 1_555 1_555
O3 P1 1_555 1_555
N1 Zn1 1_555 1_555
H2 N1 1_555 1_555
H3 N1 1_555 1_555
C1 N1 1_555 1_555
C2 C1 1_555 1_555
H4 C2 1_555 1_555
H5 C2 1_555 1_555
H6 C2 1_555 1_555
C3 C1 1_555 1_555
H7 C3 1_555 1_555
H8 C3 1_555 1_555
H9 C3 1_555 1_555
C4 C1 1_555 1_555
H10 C4 1_555 1_555
H11 C4 1_555 1_555
C5 C4 1_555 1_555
C6 C5 1_555 1_555
H12 C6 1_555 1_555
H13 C6 1_555 1_555
H14 C6 1_555 1_555
C7 C5 1_555 1_555
H15 C7 1_555 1_555
H16 C7 1_555 1_555
H17 C7 1_555 1_555
C8 C5 1_555 1_555
H18 C8 1_555 1_555
H19 C8 1_555 1_555
H20 C8 1_555 1_555
Zn1B O3 1_555 1_555
Zn1C O2 1_555 1_555
O2C Zn1 1_555 1_555
O3B Zn1 1_555 1_555

#END
