
#######################################################################
#
#                 Cambridge Crystallographic Data Centre
#                                CCDC 
#
#######################################################################
#
# If this CIF has been generated from an entry in the Cambridge 
# Structural Database, then it will include bibliographic, chemical, 
# crystal, experimental, refinement or atomic coordinate data resulting 
# from the CCDC's data processing and validation procedures.
#
#######################################################################

data_WINCEC
_symmetry_cell_setting           orthorhombic
_symmetry_space_group_name_H-M   'I m a 2'
_symmetry_Int_Tables_number      46
_space_group_name_Hall           'I 2 -2a'
loop_
_symmetry_equiv_pos_site_id
_symmetry_equiv_pos_as_xyz
1 x,y,z
2 -x,-y,z
3 1/2+x,-y,z
4 1/2-x,y,z
5 1/2+x,1/2+y,1/2+z
6 1/2-x,1/2-y,1/2+z
7 x,1/2-y,1/2+z
8 -x,1/2+y,1/2+z
_cell_length_a                   16.4011(3)
_cell_length_b                   7.17860(10)
_cell_length_c                   14.2586(2)
_cell_angle_alpha                90
_cell_angle_beta                 90
_cell_angle_gamma                90
_cell_volume                     1678.76
loop_
_atom_site_label
_atom_site_type_symbol
_atom_site_fract_x
_atom_site_fract_y
_atom_site_fract_z
Co1 Co 0.5000 -0.5000 -0.17251(2)
O1 O 0.59187(6) -0.43889(14) -0.26664(6)
O2 O 0.54019(5) -0.19011(13) -0.34170(6)
O3 O 0.56026(5) -0.36184(13) -0.53656(7)
O4 O 0.58410(6) -0.05896(14) -0.56637(6)
C1 C 0.7500 -0.3092(3) -0.32939(12)
H1 H 0.7500 -0.3483 -0.2657
C2 C 0.67589(7) -0.28092(16) -0.37548(9)
C3 C 0.67626(7) -0.22442(17) -0.46926(8)
C4 C 0.7500 -0.1944(2) -0.51565(12)
H2 H 0.7500 -0.1535 -0.5790
C5 C 0.59580(7) -0.30529(17) -0.32394(8)
C6 C 0.59980(7) -0.21361(17) -0.52772(8)
O5 O 0.45721(5) -0.22279(11) -0.17604(8)
H3 H 0.4770 -0.1808 -0.1219
H4 H 0.4806 -0.1745 -0.2268
Co1F Co 0.5000 0.0000 -0.67251(2)
Co1D Co 1.0000 0.0000 -0.67251(2)
Co1B Co 1.0000 -0.5000 -0.17251(2)
O1A O 0.40813(6) -0.56111(14) -0.26664(6)
O1C O 0.90813(6) -0.43889(14) -0.26664(6)
O2C O 0.95981(5) -0.19011(13) -0.34170(6)
O3C O 0.93974(5) -0.36184(13) -0.53656(7)
O4F O 0.58410(6) -0.44104(14) -0.06637(6)
O4G O 0.41590(6) -0.55896(14) -0.06637(6)
O4C O 0.91590(6) -0.05896(14) -0.56637(6)
C2C C 0.82411(7) -0.28092(16) -0.37548(9)
C3C C 0.82374(7) -0.22442(17) -0.46926(8)
C5C C 0.90420(7) -0.30529(17) -0.32394(8)
C6C C 0.90020(7) -0.21361(17) -0.52772(8)
O5A O 0.54279(5) -0.77721(11) -0.17604(8)
H3A H 0.5230 -0.8192 -0.1219
H4A H 0.5194 -0.8255 -0.2268
N1 N 0.40163(6) -0.26598(16) -0.45362(8)
H5 H 0.4460 -0.2578 -0.4156
H6 H 0.4044 -0.1759 -0.4984
H7 H 0.4006 -0.3800 -0.4815
C7 C 0.32604(8) -0.24009(19) -0.39680(9)
H8 H 0.3248 -0.1119 -0.3712
H9 H 0.3264 -0.3282 -0.3434
C8 C 0.2500 -0.2735(3) -0.45660(14)
H10 H 0.2500 -0.4029 -0.4805
H11 H 0.2500 -0.1877 -0.5110
N1C N 0.09837(6) -0.26598(16) -0.45362(8)
H5C H 0.0540 -0.2578 -0.4156
H6C H 0.0956 -0.1759 -0.4984
H7C H 0.0994 -0.3800 -0.4815
C7C C 0.17396(8) -0.24009(19) -0.39680(9)
H8C H 0.1752 -0.1119 -0.3712
H9C H 0.1736 -0.3282 -0.3434
O6 O 0.2991(5) -0.0219(12) -0.1781(7)
H12? H 0.3333 -0.1155 -0.1895
H13? H 0.2500 -0.0680 -0.1899
loop_
_geom_bond_atom_site_label_1
_geom_bond_atom_site_label_2
_geom_bond_site_symmetry_1
_geom_bond_site_symmetry_2
Co1 O1 1_555 1_555
O1 C5 1_555 1_555
O2 C5 1_555 1_555
O3 C6 1_555 1_555
O4 C6 1_555 1_555
C1 H1 1_555 1_555
C2 C1 1_555 1_555
C3 C2 1_555 1_555
C4 C3 1_555 1_555
H2 C4 1_555 1_555
C5 C2 1_555 1_555
C6 C3 1_555 1_555
O5 Co1 1_555 1_555
H3 O5 1_555 1_555
H4 O5 1_555 1_555
N1 H5 1_555 1_555
H6 N1 1_555 1_555
H7 N1 1_555 1_555
C7 N1 1_555 1_555
H8 C7 1_555 1_555
H9 C7 1_555 1_555
C8 C7 1_555 1_555
H10 C8 1_555 1_555
H11 C8 1_555 1_555
Co1F O4 1_555 1_555
Co1D O4C 1_555 1_555
Co1B O1C 1_555 1_555
O1A Co1 1_555 1_555
O1C C5C 1_555 1_555
O2C C5C 1_555 1_555
O3C C6C 1_555 1_555
O4F Co1 1_555 1_555
O4G Co1 1_555 1_555
O4C C6C 1_555 1_555
C2C C1 1_555 1_555
C3C C4 1_555 1_555
C5C C2C 1_555 1_555
C6C C3C 1_555 1_555
O5A Co1 1_555 1_555
H3A O5A 1_555 1_555
H4A O5A 1_555 1_555
N1C H5C 1_555 1_555
H6C N1C 1_555 1_555
H7C N1C 1_555 1_555
C7C C8 1_555 1_555
H8C C7C 1_555 1_555
H9C C7C 1_555 1_555
C2C C3C 1_555 1_555
N1C C7C 1_555 1_555

#END
