
#######################################################################
#
#                 Cambridge Crystallographic Data Centre
#                                CCDC 
#
#######################################################################
#
# If this CIF has been generated from an entry in the Cambridge 
# Structural Database, then it will include bibliographic, chemical, 
# crystal, experimental, refinement or atomic coordinate data resulting 
# from the CCDC's data processing and validation procedures.
#
#######################################################################

data_WINDED
_symmetry_cell_setting           triclinic
_symmetry_space_group_name_H-M   'P -1'
_symmetry_Int_Tables_number      2
_space_group_name_Hall           '-P 1'
loop_
_symmetry_equiv_pos_site_id
_symmetry_equiv_pos_as_xyz
1 x,y,z
2 -x,-y,-z
_cell_length_a                   9.855(2)
_cell_length_b                   10.046(2)
_cell_length_c                   13.539(3)
_cell_angle_alpha                100.36(3)
_cell_angle_beta                 101.14(3)
_cell_angle_gamma                92.04(3)
_cell_volume                     1290.27
loop_
_atom_site_label
_atom_site_type_symbol
_atom_site_fract_x
_atom_site_fract_y
_atom_site_fract_z
C1 C -0.2476(5) 0.5869(5) 0.5700(4)
C2 C -0.1185(4) 0.5438(4) 0.5338(3)
C3 C 0.0097(5) 0.5650(5) 0.6012(4)
H1 H 0.0164 0.6088 0.6688
C4 C -0.1274(5) 0.4795(5) 0.4329(4)
H2 H -0.2128 0.4660 0.3877
C5 C 0.4756(5) 0.3888(5) 0.1806(4)
C6 C 0.4880(5) 0.4456(5) 0.0863(3)
C7 C 0.5240(5) 0.3662(5) 0.0025(4)
H3 H 0.5396 0.2757 0.0037
C8 C 0.5374(5) 0.4184(5) -0.0840(4)
H4 H 0.4370 0.6362 0.1395
C9 C 0.4150(6) 0.2319(5) 0.6084(4)
H5 H 0.4698 0.3131 0.6303
C10 C 0.3518(6) 0.1813(5) 0.6793(4)
H6 H 0.3612 0.2315 0.7454
C11 C 0.2760(5) 0.0583(5) 0.6527(4)
C12 C 0.2633(5) -0.0139(5) 0.5488(3)
C13 C 0.3243(5) 0.0485(4) 0.4812(3)
C14 C 0.3053(5) -0.0147(4) 0.3738(3)
C15 C 0.2235(5) -0.1398(4) 0.3386(3)
C16 C 0.1715(5) -0.2039(5) 0.4114(4)
H7 H 0.1236 -0.2888 0.3895
C17 C 0.1905(5) -0.1436(5) 0.5116(3)
H8 H 0.1552 -0.1879 0.5569
C18 C 0.7880(5) 0.9937(5) -0.7304(4)
C19 C 0.9241(6) 1.0477(5) -0.7107(4)
H9 H 0.9778 1.0560 -0.6451
C20 C 0.9818(6) 1.0897(5) -0.7865(4)
H10 H 1.0733 1.1255 -0.7720
C21 C 0.9020(7) 1.0776(6) -0.8838(5)
H11 H 0.9395 1.1064 -0.9351
C22 C 0.7686(7) 1.0238(7) -0.9049(4)
H12 H 0.7161 1.0150 -0.9710
C23 C 0.7091(6) 0.9817(6) -0.8293(4)
H13 H 0.6175 0.9459 -0.8447
C24 C 0.1961(5) -0.1944(4) 0.2326(3)
C25 C 0.3386(6) -0.0051(5) 0.2125(4)
H14 H 0.3777 0.0390 0.1688
C26 C 0.1010(5) -0.3178(5) 0.1887(3)
C27 C -0.0344(7) -0.3022(6) 0.1431(5)
H15 H -0.0640 -0.2161 0.1391
C28 C -0.1262(7) -0.4166(8) 0.1030(6)
H16 H -0.2180 -0.4064 0.0745
C29 C -0.0815(7) -0.5449(6) 0.1055(4)
H17 H -0.1429 -0.6208 0.0778
C30 C 0.0528(7) -0.5603(6) 0.1487(5)
H18 H 0.0833 -0.6468 0.1496
C31 C 0.1436(6) -0.4469(5) 0.1913(4)
H19 H 0.2344 -0.4579 0.2220
C32 C 0.2575(6) -0.1269(5) 0.1698(3)
H20 H 0.7550 1.1622 -0.1001
N1 N 0.4005(4) 0.1701(4) 0.5120(3)
N2 N 0.3630(4) 0.0512(4) 0.3114(3)
O1 O -0.3621(3) 0.5309(4) 0.5201(3)
O2 O -0.2393(3) 0.6793(3) 0.6469(2)
O3 O 0.4732(4) 0.4722(4) 0.2616(3)
O4 O 0.5308(5) 0.7365(4) -0.1747(3)
Pb1 Pb 0.486920(16) 0.301580(16) 0.376730(12)
C1A C 0.2476(5) 0.4131(5) 0.4300(4)
C2A C 0.1185(4) 0.4562(4) 0.4662(3)
C3A C -0.0097(5) 0.4350(5) 0.3988(4)
H1A H -0.0164 0.3912 0.3312
C4A C 0.1274(5) 0.5205(5) 0.5671(4)
H2A H 0.2128 0.5340 0.6123
C5A C 0.5244(5) 0.6112(5) -0.1806(4)
C6A C 0.5120(5) 0.5544(5) -0.0863(3)
C7A C 0.4760(5) 0.6338(5) -0.0025(4)
H3A H 0.4604 0.7243 -0.0037
C8A C 0.4626(5) 0.5816(5) 0.0840(4)
H4A H 0.5630 0.3638 -0.1395
C9A C 0.5850(6) 0.7681(5) -0.6084(4)
H5A H 0.5302 0.6869 -0.6303
C10A C 0.6482(6) 0.8187(5) -0.6793(4)
H6A H 0.6388 0.7685 -0.7454
C11A C 0.7240(5) 0.9417(5) -0.6527(4)
C12A C 0.7367(5) 1.0139(5) -0.5488(3)
C13A C 0.6757(5) 0.9515(4) -0.4812(3)
C14A C 0.6947(5) 1.0147(4) -0.3738(3)
C15A C 0.7765(5) 1.1398(4) -0.3386(3)
C16A C 0.8285(5) 1.2039(5) -0.4114(4)
H7A H 0.8764 1.2888 -0.3895
C17A C 0.8095(5) 1.1436(5) -0.5116(3)
H8A H 0.8448 1.1879 -0.5569
C18A C 0.2120(5) 0.0063(5) 0.7304(4)
C19A C 0.0759(6) -0.0477(5) 0.7107(4)
H9A H 0.0222 -0.0560 0.6451
C20A C 0.0182(6) -0.0897(5) 0.7865(4)
H10A H -0.0733 -0.1255 0.7720
C21A C 0.0980(7) -0.0776(6) 0.8838(5)
H11A H 0.0605 -0.1064 0.9351
C22A C 0.2314(7) -0.0238(7) 0.9049(4)
H12A H 0.2839 -0.0150 0.9710
C23A C 0.2909(6) 0.0183(6) 0.8293(4)
H13A H 0.3825 0.0541 0.8447
C24A C 0.8039(5) 1.1944(4) -0.2326(3)
C25A C 0.6614(6) 1.0051(5) -0.2125(4)
H14A H 0.6223 0.9610 -0.1688
C26A C 0.8990(5) 1.3178(5) -0.1887(3)
C27A C 1.0344(7) 1.3022(6) -0.1431(5)
H15A H 1.0640 1.2161 -0.1391
C28A C 1.1262(7) 1.4166(8) -0.1030(6)
H16A H 1.2180 1.4064 -0.0745
C29A C 1.0815(7) 1.5449(6) -0.1055(4)
H17A H 1.1429 1.6208 -0.0778
C30A C 0.9472(7) 1.5603(6) -0.1487(5)
H18A H 0.9167 1.6468 -0.1496
C31A C 0.8564(6) 1.4469(5) -0.1913(4)
H19A H 0.7656 1.4579 -0.2220
C32A C 0.7425(6) 1.1269(5) -0.1698(3)
H20A H 0.2450 -0.1622 0.1001
N1A N 0.5995(4) 0.8299(4) -0.5120(3)
N2A N 0.6370(4) 0.9488(4) -0.3114(3)
O1A O 0.3621(3) 0.4691(4) 0.4799(3)
O1_2 O 0.6379(3) 0.5309(4) -0.4799(3)
O2A O 0.2393(3) 0.3207(3) 0.3531(2)
O2_2 O 0.7607(3) 0.6793(3) -0.3531(2)
O3A O 0.5268(4) 0.5278(4) -0.2616(3)
O4A O 0.4692(5) 0.2635(4) 0.1747(3)
Pb1A Pb -0.486920(16) 0.698420(16) 0.623270(12)
Pb1A_2 Pb 0.513080(16) 0.698420(16) -0.376730(12)
loop_
_geom_bond_atom_site_label_1
_geom_bond_atom_site_label_2
_geom_bond_site_symmetry_1
_geom_bond_site_symmetry_2
C1 C2 1_555 1_555
C2 C3 1_555 1_555
C3 H1 1_555 1_555
C4 C2 1_555 1_555
H2 C4 1_555 1_555
C5 C6 1_555 1_555
C6 C7 1_555 1_555
C7 H3 1_555 1_555
C8 C7 1_555 1_555
H4 C8A 1_555 1_555
C9 H5 1_555 1_555
C10 C9 1_555 1_555
H6 C10 1_555 1_555
C11 C10 1_555 1_555
C12 C11 1_555 1_555
C13 C12 1_555 1_555
C14 C13 1_555 1_555
C15 C14 1_555 1_555
C16 C15 1_555 1_555
H7 C16 1_555 1_555
C17 C12 1_555 1_555
H8 C17 1_555 1_555
C18 C19 1_555 1_555
C19 H9 1_555 1_555
C20 C19 1_555 1_555
H10 C20 1_555 1_555
C21 C20 1_555 1_555
H11 C21 1_555 1_555
C22 C21 1_555 1_555
H12 C22 1_555 1_555
C23 C18 1_555 1_555
H13 C23 1_555 1_555
C24 C15 1_555 1_555
C25 H14 1_555 1_555
C26 C24 1_555 1_555
C27 C26 1_555 1_555
H15 C27 1_555 1_555
C28 C27 1_555 1_555
H16 C28 1_555 1_555
C29 C28 1_555 1_555
H17 C29 1_555 1_555
C30 C29 1_555 1_555
H18 C30 1_555 1_555
C31 C26 1_555 1_555
H19 C31 1_555 1_555
C32 C24 1_555 1_555
H20 C32A 1_555 1_555
N1 C9 1_555 1_555
N2 C14 1_555 1_555
O1 C1 1_555 1_555
O2 C1 1_555 1_555
O3 C5 1_555 1_555
O4 C5A 1_555 1_555
Pb1 N1 1_555 1_555
C1A C2A 1_555 1_555
C2A C3A 1_555 1_555
C3A C4 1_555 1_555
H1A C3A 1_555 1_555
C4A C3 1_555 1_555
H2A C4A 1_555 1_555
C5A C6A 1_555 1_555
C6A C8 1_555 1_555
C7A C6A 1_555 1_555
H3A C7A 1_555 1_555
C8A C6 1_555 1_555
H4A C8 1_555 1_555
C9A H5A 1_555 1_555
C10A C9A 1_555 1_555
H6A C10A 1_555 1_555
C11A C18 1_555 1_555
C12A C11A 1_555 1_555
C13A C12A 1_555 1_555
C14A C13A 1_555 1_555
C15A C14A 1_555 1_555
C16A C15A 1_555 1_555
H7A C16A 1_555 1_555
C17A C12A 1_555 1_555
H8A C17A 1_555 1_555
C18A C11 1_555 1_555
C19A C18A 1_555 1_555
H9A C19A 1_555 1_555
C20A C19A 1_555 1_555
H10A C20A 1_555 1_555
C21A C20A 1_555 1_555
H11A C21A 1_555 1_555
C22A C21A 1_555 1_555
H12A C22A 1_555 1_555
C23A C18A 1_555 1_555
H13A C23A 1_555 1_555
C24A C15A 1_555 1_555
C25A H14A 1_555 1_555
C26A C24A 1_555 1_555
C27A C26A 1_555 1_555
H15A C27A 1_555 1_555
C28A C27A 1_555 1_555
H16A C28A 1_555 1_555
C29A C28A 1_555 1_555
H17A C29A 1_555 1_555
C30A C29A 1_555 1_555
H18A C30A 1_555 1_555
C31A C26A 1_555 1_555
H19A C31A 1_555 1_555
C32A C24A 1_555 1_555
H20A C32 1_555 1_555
N1A C9A 1_555 1_555
N2A C14A 1_555 1_555
O1A Pb1 1_555 1_555
O1_2 Pb1A_2 1_555 1_555
O2A Pb1 1_555 1_555
O2_2 Pb1A_2 1_555 1_555
O3A C5A 1_555 1_555
O4A C5 1_555 1_555
Pb1A O1 1_555 1_555
Pb1A_2 O4 1_555 1_555
C13 N1 1_555 1_555
C16 C17 1_555 1_555
C22 C23 1_555 1_555
C25 C32 1_555 1_555
C25 N2 1_555 1_555
C30 C31 1_555 1_555
N2 Pb1 1_555 1_555
O2 Pb1A 1_555 1_555
O3 Pb1 1_555 1_555
Pb1 O4A 1_555 1_555
C1A O1A 1_555 1_555
C1A O2A 1_555 1_555
C2A C4A 1_555 1_555
C7A C8A 1_555 1_555
C10A C11A 1_555 1_555
C13A N1A 1_555 1_555
C16A C17A 1_555 1_555
C22A C23A 1_555 1_555
C25A C32A 1_555 1_555
C25A N2A 1_555 1_555
C30A C31A 1_555 1_555
N1A Pb1A_2 1_555 1_555
N2A Pb1A_2 1_555 1_555
O3A Pb1A_2 1_555 1_555

#END
