
#######################################################################
#
#                 Cambridge Crystallographic Data Centre
#                                CCDC 
#
#######################################################################
#
# If this CIF has been generated from an entry in the Cambridge 
# Structural Database, then it will include bibliographic, chemical, 
# crystal, experimental, refinement or atomic coordinate data resulting 
# from the CCDC's data processing and validation procedures.
#
#######################################################################

data_WINDUT
_symmetry_cell_setting           monoclinic
_symmetry_space_group_name_H-M   'C 2/c'
_symmetry_Int_Tables_number      15
_space_group_name_Hall           '-C 2yn'
loop_
_symmetry_equiv_pos_site_id
_symmetry_equiv_pos_as_xyz
1 x,y,z
2 1/2+x,1/2+y,z
3 -x,y,1/2-z
4 1/2-x,1/2+y,1/2-z
5 -x,-y,-z
6 1/2-x,1/2-y,-z
7 x,-y,1/2+z
8 1/2+x,1/2-y,1/2+z
_cell_length_a                   10.1460(6)
_cell_length_b                   15.8638(10)
_cell_length_c                   15.0545(9)
_cell_angle_alpha                90
_cell_angle_beta                 104.256(3)
_cell_angle_gamma                90
_cell_volume                     2348.47
loop_
_atom_site_label
_atom_site_type_symbol
_atom_site_fract_x
_atom_site_fract_y
_atom_site_fract_z
Ni1 Ni 0.0000 -0.25754(3) -0.2500
S1 S -0.11332(7) -0.24132(4) -0.12782(4)
S2 S -0.17407(7) -0.14873(4) -0.29958(4)
O1 O 0.31745(19) -0.13301(12) -0.31808(13)
N1 N -0.8589(2) -0.65417(13) -0.68080(14)
C1 C -0.2118(3) -0.17161(17) -0.19961(17)
C2 C 0.3651(3) -0.1563(2) -0.39940(19)
H1 H 0.2861 -0.1678 -0.4526
C3 C 0.4532(3) -0.2335(2) -0.3764(2)
H2 H 0.3977 -0.2813 -0.3659
H3 H 0.4940 -0.2466 -0.4274
H4 H 0.5253 -0.2229 -0.3209
C4 C 0.4439(4) -0.0799(2) -0.4186(2)
H5 H 0.3822 -0.0317 -0.4343
H6 H 0.5160 -0.0665 -0.3640
H7 H 0.4845 -0.0923 -0.4699
C5 C -0.8042(3) -0.66426(17) -0.59140(17)
H8 H -0.8470 -0.7022 -0.5585
C6 C -0.6899(3) -0.62294(18) -0.54453(18)
H9 H -0.6555 -0.6324 -0.4807
C7 C -0.6242(3) -0.56723(17) -0.59022(19)
C8 C -0.6829(3) -0.55471(17) -0.68196(19)
H10 H -0.6434 -0.5161 -0.7162
C9 C -0.7990(3) -0.59838(17) -0.72407(18)
H11 H -0.8383 -0.5881 -0.7872
C10 C -0.4944(3) -0.5248(2) -0.5417(2)
H12 H -0.4657 -0.4862 -0.5852
H13 H -0.4228 -0.5681 -0.5229
Ni1F Ni -1.0000 -0.74246(3) -0.7500
S1B S 0.11332(7) -0.24132(4) -0.37218(4)
S2B S 0.17407(7) -0.14873(4) -0.20042(4)
O1B O -0.31745(19) -0.13301(12) -0.18192(13)
N1D N -0.1411(2) -0.34583(13) -0.31920(14)
N1F N 0.1411(2) -0.34583(13) -0.18080(14)
C1B C 0.2118(3) -0.17161(17) -0.30039(17)
C2B C -0.3651(3) -0.1563(2) -0.10060(19)
H1B H -0.2861 -0.1678 -0.0474
C3B C -0.4532(3) -0.2335(2) -0.1236(2)
H2B H -0.3977 -0.2813 -0.1341
H3B H -0.4940 -0.2466 -0.0726
H4B H -0.5253 -0.2229 -0.1791
C4B C -0.4439(4) -0.0799(2) -0.0814(2)
H5B H -0.3822 -0.0317 -0.0657
H6B H -0.5160 -0.0665 -0.1360
H7B H -0.4845 -0.0923 -0.0301
C5D C -0.1958(3) -0.33574(17) -0.40860(17)
H8D H -0.1530 -0.2978 -0.4415
C6D C -0.3101(3) -0.37706(18) -0.45547(18)
H9D H -0.3445 -0.3676 -0.5193
C7D C -0.3758(3) -0.43277(17) -0.40978(19)
C8D C -0.3171(3) -0.44529(17) -0.31804(19)
H10D H -0.3566 -0.4839 -0.2838
C9D C -0.2010(3) -0.40162(17) -0.27593(18)
H11D H -0.1617 -0.4119 -0.2128
C10D C -0.5056(3) -0.4752(2) -0.4583(2)
H12D H -0.5343 -0.5138 -0.4148
H13D H -0.5772 -0.4319 -0.4771
loop_
_geom_bond_atom_site_label_1
_geom_bond_atom_site_label_2
_geom_bond_site_symmetry_1
_geom_bond_site_symmetry_2
Ni1 S1 1_555 1_555
S1 C1 1_555 1_555
S2 Ni1 1_555 1_555
O1 C2 1_555 1_555
N1 C5 1_555 1_555
C1 S2 1_555 1_555
C2 H1 1_555 1_555
C3 C2 1_555 1_555
H2 C3 1_555 1_555
H3 C3 1_555 1_555
H4 C3 1_555 1_555
C4 C2 1_555 1_555
H5 C4 1_555 1_555
H6 C4 1_555 1_555
H7 C4 1_555 1_555
C5 H8 1_555 1_555
C6 C5 1_555 1_555
H9 C6 1_555 1_555
C7 C6 1_555 1_555
C8 C7 1_555 1_555
H10 C8 1_555 1_555
C9 N1 1_555 1_555
H11 C9 1_555 1_555
C10 C7 1_555 1_555
H12 C10 1_555 1_555
H13 C10 1_555 1_555
Ni1F N1 1_555 1_555
S1B Ni1 1_555 1_555
S2B Ni1 1_555 1_555
O1B C1 1_555 1_555
N1D Ni1 1_555 1_555
N1F Ni1 1_555 1_555
C1B O1 1_555 1_555
C2B O1B 1_555 1_555
H1B C2B 1_555 1_555
C3B C2B 1_555 1_555
H2B C3B 1_555 1_555
H3B C3B 1_555 1_555
H4B C3B 1_555 1_555
C4B C2B 1_555 1_555
H5B C4B 1_555 1_555
H6B C4B 1_555 1_555
H7B C4B 1_555 1_555
C5D N1D 1_555 1_555
H8D C5D 1_555 1_555
C6D C5D 1_555 1_555
H9D C6D 1_555 1_555
C7D C6D 1_555 1_555
C8D C7D 1_555 1_555
H10D C8D 1_555 1_555
C9D N1D 1_555 1_555
H11D C9D 1_555 1_555
C10D C10 1_555 1_555
H12D C10D 1_555 1_555
H13D C10D 1_555 1_555
C8 C9 1_555 1_555
S1B C1B 1_555 1_555
S2B C1B 1_555 1_555
C7D C10D 1_555 1_555
C8D C9D 1_555 1_555

#END
