
#######################################################################
#
#                 Cambridge Crystallographic Data Centre
#                                CCDC 
#
#######################################################################
#
# If this CIF has been generated from an entry in the Cambridge 
# Structural Database, then it will include bibliographic, chemical, 
# crystal, experimental, refinement or atomic coordinate data resulting 
# from the CCDC's data processing and validation procedures.
#
#######################################################################

data_WINHEI
_symmetry_cell_setting           monoclinic
_symmetry_space_group_name_H-M   'P 21/n'
_symmetry_Int_Tables_number      14
_space_group_name_Hall           '-P 2yn'
loop_
_symmetry_equiv_pos_site_id
_symmetry_equiv_pos_as_xyz
1 x,y,z
2 1/2-x,1/2+y,1/2-z
3 -x,-y,-z
4 1/2+x,1/2-y,1/2+z
_cell_length_a                   8.409(5)
_cell_length_b                   18.026(5)
_cell_length_c                   18.358(5)
_cell_angle_alpha                90
_cell_angle_beta                 92.070(5)
_cell_angle_gamma                90
_cell_volume                     2780.9
loop_
_atom_site_label
_atom_site_type_symbol
_atom_site_fract_x
_atom_site_fract_y
_atom_site_fract_z
Mn1 Mn 0.07414(3) 0.275495(12) 0.627871(12)
Mn2 Mn 0.48388(3) 0.214640(13) 0.692584(12)
O1 O 0.71650(16) 0.26436(8) 1.03880(7)
O2 O 0.86049(15) 0.28782(7) 0.69567(6)
O3 O 0.17842(15) 0.65009(7) 0.75198(7)
O4 O 0.40536(16) 0.67724(7) 0.81292(7)
C1 C 0.40305(19) 0.57374(8) 0.73513(9)
N1 N 0.74450(19) 0.03845(9) 0.58712(9)
O5 O 0.66765(16) 0.24516(9) 0.76324(7)
O6 O 0.96816(17) 0.26118(10) 1.08171(7)
O7 O 0.1657(2) 0.38220(8) 0.65252(9)
C2 C 0.3931(2) 0.44588(9) 0.69904(9)
C3 C 0.5660(2) 0.57434(10) 0.72479(10)
H1 H 0.6235 0.6177 0.7335
N2 N -0.2516(2) 0.39713(10) 0.49402(9)
N3 N 0.5895(2) 0.10818(9) 0.65312(9)
C4 C 0.8755(2) 0.01824(10) 0.54354(10)
C5 C 0.7261(2) 0.10416(10) 0.62098(11)
H2 H 0.8012 0.1421 0.6215
C6 C 0.9259(2) 0.28474(9) 0.95683(9)
C7 C 0.89932(19) 0.28755(9) 0.82574(8)
C8 C 0.9800(2) -0.05325(12) 0.44642(12)
H3 H 0.9663 -0.0889 0.4101
C9 C 1.0572(2) 0.30984(11) 0.82300(9)
H4 H 1.1004 0.3188 0.7779
C10 C 0.6445(2) 0.51106(12) 0.70156(11)
C11 C -0.3796(2) 0.44966(11) 0.49507(10)
N4 N -0.08051(18) 0.31438(9) 0.53751(8)
C12 C 0.80332(19) 0.27309(9) 0.75600(8)
C13 C 0.8322(2) 0.27634(9) 0.89338(9)
H5 H 0.7256 0.2634 0.8960
C14 C 0.5572(2) 0.44618(10) 0.69341(10)
H6 H 0.6097 0.4020 0.6840
O8 O 0.3561(3) 0.31553(8) 0.70155(10)
C15 C -0.2157(2) 0.34859(10) 0.54764(9)
H7 H -0.2791 0.3402 0.5873
C16 C 1.0846(2) 0.30528(11) 0.95222(9)
H8 H 1.1470 0.3098 0.9949
C17 C 1.1525(2) 0.31919(12) 0.88606(10)
C18 C 0.31491(19) 0.51037(8) 0.71837(9)
H9 H 0.2045 0.5112 0.7201
C19 C 0.3223(2) 0.63946(8) 0.76842(9)
C20 C -0.3483(2) 0.52311(13) 0.48394(13)
H10 H -0.2463 0.5385 0.4732
C21 C 0.8629(2) 0.27009(9) 1.03146(9)
C22 C -0.4703(2) 0.57426(12) 0.48885(13)
H11 H -0.4509 0.6244 0.4813
C23 C 0.6095(3) -0.00223(13) 0.59867(14)
H12 H 0.5871 -0.0499 0.5820
C24 C 0.8551(3) -0.03544(12) 0.49027(13)
H13 H 0.7578 -0.0595 0.4839
C25 C 1.3250(3) 0.34195(19) 0.88235(12)
H14 H 1.3783 0.3095 0.8497
H15 H 1.3752 0.3387 0.9300
H16 H 1.3311 0.3921 0.8650
C26 C 0.3000(3) 0.37667(9) 0.68272(10)
C27 C 0.8190(3) 0.51274(17) 0.68440(16)
H17 H 0.8299 0.5097 0.6326
H18 H 0.8723 0.4714 0.7075
H19 H 0.8656 0.5582 0.7022
C28 C -0.1312(3) 0.39377(19) 0.44606(13)
H20 H -0.1228 0.4211 0.4034
C29 C -0.0270(3) 0.34285(17) 0.47297(12)
H21 H 0.0667 0.3290 0.4513
C30 C 0.5159(3) 0.04114(12) 0.63926(14)
H22 H 0.4165 0.0277 0.6555
N1B N 1.25550(19) -0.03845(9) 0.41288(9)
N3B N 1.4105(2) -0.10818(9) 0.34688(9)
C4B C 1.1245(2) -0.01824(10) 0.45646(10)
C5B C 1.2739(2) -0.10416(10) 0.37902(11)
H2B H 1.1988 -0.1421 0.3785
C8B C 1.0200(2) 0.05325(12) 0.55358(12)
H3B H 1.0337 0.0889 0.5899
C23B C 1.3905(3) 0.00223(13) 0.40133(14)
H12B H 1.4129 0.0499 0.4180
C24B C 1.1449(3) 0.03544(12) 0.50973(13)
H13B H 1.2422 0.0595 0.5161
C30B C 1.4841(3) -0.04114(12) 0.36074(14)
H22B H 1.5835 -0.0277 0.3445
N2B N -0.7484(2) 0.60287(10) 0.50598(9)
C11B C -0.6204(2) 0.55034(11) 0.50493(10)
N4B N -0.91949(18) 0.68562(9) 0.46249(8)
C15B C -0.7843(2) 0.65141(10) 0.45236(9)
H7B H -0.7209 0.6598 0.4127
C20B C -0.6517(2) 0.47689(13) 0.51606(13)
H10B H -0.7537 0.4615 0.5268
C22B C -0.5297(2) 0.42574(12) 0.51115(13)
H11B H -0.5491 0.3756 0.5187
C28B C -0.8688(3) 0.60623(19) 0.55394(13)
H20B H -0.8772 0.5789 0.5966
C29B C -0.9730(3) 0.65715(17) 0.52703(12)
H21B H -1.0667 0.6710 0.5487
Mn1B Mn -1.07414(3) 0.724505(12) 0.372129(12)
Mn2B Mn -1.48388(3) 0.785360(13) 0.307416(12)
O1B O -1.71650(16) 0.73564(8) -0.03880(7)
O2B O -1.86049(15) 0.71218(7) 0.30433(6)
O3B O -1.17842(15) 0.34991(7) 0.24802(7)
O4B O -1.40536(16) 0.32276(7) 0.18708(7)
C1B C -1.40305(19) 0.42626(8) 0.26487(9)
O5B O -1.66765(16) 0.75484(9) 0.23676(7)
O6B O -1.96816(17) 0.73882(10) -0.08171(7)
O7B O -1.1657(2) 0.61780(8) 0.34748(9)
C2B C -1.3931(2) 0.55412(9) 0.30096(9)
C3B C -1.5660(2) 0.42566(10) 0.27521(10)
H1B H -1.6235 0.3823 0.2665
C6B C -1.9259(2) 0.71526(9) 0.04317(9)
C7B C -1.89932(19) 0.71245(9) 0.17426(8)
C9B C -2.0572(2) 0.69016(11) 0.17700(9)
H4B H -2.1004 0.6812 0.2221
C10B C -1.6445(2) 0.48894(12) 0.29844(11)
C12B C -1.80332(19) 0.72691(9) 0.24400(8)
C13B C -1.8322(2) 0.72366(9) 0.10662(9)
H5B H -1.7256 0.7366 0.1040
C14B C -1.5572(2) 0.55382(10) 0.30659(10)
H6B H -1.6097 0.5980 0.3160
O8B O -1.3561(3) 0.68447(8) 0.29845(10)
C16B C -2.0846(2) 0.69472(11) 0.04778(9)
H8B H -2.1470 0.6902 0.0051
C17B C -2.1525(2) 0.68081(12) 0.11394(10)
C18B C -1.31491(19) 0.48963(8) 0.28163(9)
H9B H -1.2045 0.4888 0.2799
C19B C -1.3223(2) 0.36054(8) 0.23158(9)
C21B C -1.8629(2) 0.72991(9) -0.03146(9)
C25B C -2.3250(3) 0.65805(19) 0.11765(12)
H14B H -2.3783 0.6905 0.1503
H15B H -2.3752 0.6613 0.0700
H16B H -2.3311 0.6079 0.1350
C26B C -1.3000(3) 0.62333(9) 0.31728(10)
C27B C -1.8190(3) 0.48726(17) 0.31560(16)
H17B H -1.8299 0.4903 0.3674
H18B H -1.8723 0.5286 0.2925
H19B H -1.8656 0.4418 0.2978
Mn1_2 Mn 1.07414(3) 0.275495(12) 0.627871(12)
Mn1A Mn -1.57414(3) 0.775495(12) -0.127871(12)
Mn1A_2 Mn 0.42586(3) 0.775495(12) 0.872129(12)
Mn1B_2 Mn -2.07414(3) 0.724505(12) 0.372129(12)
Mn1C Mn -1.42586(3) 0.224505(12) 0.127871(12)
Mn1C_2 Mn 0.57414(3) 0.224505(12) 1.127871(12)
Mn2A Mn -1.98388(3) 0.714640(13) -0.192584(12)
Mn2A_2 Mn 0.01612(3) 0.714640(13) 0.807416(12)
Mn2B_2 Mn 1.51612(3) -0.214640(13) 0.307416(12)
Mn2C Mn -1.01612(3) 0.285360(13) 0.192584(12)
Mn2C_2 Mn 0.98388(3) 0.285360(13) 1.192584(12)
O1A O -1.21650(16) 0.76436(8) 0.46120(7)
O1C O 0.21650(16) 0.23564(8) 0.53880(7)
O2_2 O -0.13951(15) 0.28782(7) 0.69567(6)
O2B_2 O -0.86049(15) 0.71218(7) 0.30433(6)
O3A O 0.32158(15) 0.15009(7) 0.74802(7)
O3C O -1.32158(15) 0.84991(7) 0.25198(7)
O4A O 0.09464(16) 0.17724(7) 0.68708(7)
O4C O -1.09464(16) 0.82276(7) 0.31292(7)
O6A O -1.46816(17) 0.76118(10) 0.41829(7)
O6C O 0.46816(17) 0.23882(10) 0.58171(7)
N3B_2 N -1.5895(2) 0.89182(9) 0.34688(9)
loop_
_geom_bond_atom_site_label_1
_geom_bond_atom_site_label_2
_geom_bond_site_symmetry_1
_geom_bond_site_symmetry_2
Mn1 O7 1_555 1_555
Mn2 O5 1_555 1_555
O1 C21 1_555 1_555
O2 C12 1_555 1_555
O3 C19 1_555 1_555
O4 C19 1_555 1_555
C1 C3 1_555 1_555
N1 C4 1_555 1_555
O5 C12 1_555 1_555
O6 C21 1_555 1_555
O7 C26 1_555 1_555
C2 C14 1_555 1_555
C3 H1 1_555 1_555
N2 C11 1_555 1_555
N3 Mn2 1_555 1_555
C4 C24 1_555 1_555
C5 N1 1_555 1_555
H2 C5 1_555 1_555
C6 C13 1_555 1_555
C7 C9 1_555 1_555
C8 H3 1_555 1_555
C9 H4 1_555 1_555
C10 C3 1_555 1_555
C11 C20 1_555 1_555
N4 Mn1 1_555 1_555
C12 C7 1_555 1_555
C13 C7 1_555 1_555
H5 C13 1_555 1_555
C14 C10 1_555 1_555
H6 C14 1_555 1_555
O8 Mn2 1_555 1_555
C15 N2 1_555 1_555
H7 C15 1_555 1_555
C16 C6 1_555 1_555
H8 C16 1_555 1_555
C17 C9 1_555 1_555
C18 C1 1_555 1_555
H9 C18 1_555 1_555
C19 C1 1_555 1_555
C20 H10 1_555 1_555
C21 C6 1_555 1_555
C22 C20 1_555 1_555
H11 C22 1_555 1_555
C23 N1 1_555 1_555
H12 C23 1_555 1_555
C24 C8 1_555 1_555
H13 C24 1_555 1_555
C25 C17 1_555 1_555
H14 C25 1_555 1_555
H15 C25 1_555 1_555
H16 C25 1_555 1_555
C26 C2 1_555 1_555
C27 C10 1_555 1_555
H17 C27 1_555 1_555
H18 C27 1_555 1_555
H19 C27 1_555 1_555
C28 N2 1_555 1_555
H20 C28 1_555 1_555
C29 N4 1_555 1_555
H21 C29 1_555 1_555
C30 N3 1_555 1_555
H22 C30 1_555 1_555
N1B C4B 1_555 1_555
N3B C5B 1_555 1_555
C4B C8 1_555 1_555
C5B N1B 1_555 1_555
H2B C5B 1_555 1_555
C8B C4 1_555 1_555
H3B C8B 1_555 1_555
C23B N1B 1_555 1_555
H12B C23B 1_555 1_555
C24B C4B 1_555 1_555
H13B C24B 1_555 1_555
C30B N3B 1_555 1_555
H22B C30B 1_555 1_555
N2B C11B 1_555 1_555
C11B C22 1_555 1_555
N4B C15B 1_555 1_555
C15B N2B 1_555 1_555
H7B C15B 1_555 1_555
C20B C11B 1_555 1_555
H10B C20B 1_555 1_555
C22B C11 1_555 1_555
H11B C22B 1_555 1_555
C28B N2B 1_555 1_555
H20B C28B 1_555 1_555
C29B N4B 1_555 1_555
H21B C29B 1_555 1_555
Mn1B N4B 1_555 1_555
Mn2B O5B 1_555 1_555
O1B C21B 1_555 1_555
O2B C12B 1_555 1_555
O3B C19B 1_555 1_555
O4B C19B 1_555 1_555
C1B C3B 1_555 1_555
O5B C12B 1_555 1_555
O6B C21B 1_555 1_555
O7B Mn1B 1_555 1_555
C2B C14B 1_555 1_555
C3B H1B 1_555 1_555
C6B C13B 1_555 1_555
C7B C9B 1_555 1_555
C9B H4B 1_555 1_555
C10B C3B 1_555 1_555
C12B C7B 1_555 1_555
C13B C7B 1_555 1_555
H5B C13B 1_555 1_555
C14B C10B 1_555 1_555
H6B C14B 1_555 1_555
O8B Mn2B 1_555 1_555
C16B C6B 1_555 1_555
H8B C16B 1_555 1_555
C17B C9B 1_555 1_555
C18B C1B 1_555 1_555
H9B C18B 1_555 1_555
C19B C1B 1_555 1_555
C21B C6B 1_555 1_555
C25B C17B 1_555 1_555
H14B C25B 1_555 1_555
H15B C25B 1_555 1_555
H16B C25B 1_555 1_555
C26B O7B 1_555 1_555
C27B C10B 1_555 1_555
H17B C27B 1_555 1_555
H18B C27B 1_555 1_555
H19B C27B 1_555 1_555
Mn1_2 O2 1_555 1_555
Mn1A O1B 1_555 1_555
Mn1A_2 O4 1_555 1_555
Mn1B_2 O2B 1_555 1_555
Mn1C O4B 1_555 1_555
Mn1C_2 O1 1_555 1_555
Mn2A O6B 1_555 1_555
Mn2A_2 O3 1_555 1_555
Mn2B_2 N3B 1_555 1_555
Mn2C O3B 1_555 1_555
Mn2C_2 O6 1_555 1_555
O1A Mn1B 1_555 1_555
O1C Mn1 1_555 1_555
O2_2 Mn1 1_555 1_555
O2B_2 Mn1B 1_555 1_555
O3A Mn2 1_555 1_555
O3C Mn2B 1_555 1_555
O4A Mn1 1_555 1_555
O4C Mn1B 1_555 1_555
O6A Mn2B 1_555 1_555
O6C Mn2 1_555 1_555
N3B_2 Mn2B 1_555 1_555
C2 C18 1_555 1_555
N3 C5 1_555 1_555
N4 C15 1_555 1_555
O8 C26 1_555 1_555
C16 C17 1_555 1_555
C23 C30 1_555 1_555
C28 C29 1_555 1_555
C8B C24B 1_555 1_555
C23B C30B 1_555 1_555
C20B C22B 1_555 1_555
C28B C29B 1_555 1_555
C2B C18B 1_555 1_555
C2B C26B 1_555 1_555
O8B C26B 1_555 1_555
C16B C17B 1_555 1_555

#END
