
#######################################################################
#
#                 Cambridge Crystallographic Data Centre
#                                CCDC 
#
#######################################################################
#
# If this CIF has been generated from an entry in the Cambridge 
# Structural Database, then it will include bibliographic, chemical, 
# crystal, experimental, refinement or atomic coordinate data resulting 
# from the CCDC's data processing and validation procedures.
#
#######################################################################

data_WINJOS
_symmetry_cell_setting           orthorhombic
_symmetry_space_group_name_H-M   'P b c a'
_symmetry_Int_Tables_number      61
_space_group_name_Hall           '-P 2ac 2ab'
loop_
_symmetry_equiv_pos_site_id
_symmetry_equiv_pos_as_xyz
1 x,y,z
2 1/2-x,-y,1/2+z
3 1/2+x,1/2-y,-z
4 -x,1/2+y,1/2-z
5 -x,-y,-z
6 1/2+x,y,1/2-z
7 1/2-x,1/2+y,z
8 x,1/2-y,1/2+z
_cell_length_a                   7.950(1)
_cell_length_b                   8.880(1)
_cell_length_c                   17.525(3)
_cell_angle_alpha                90
_cell_angle_beta                 90
_cell_angle_gamma                90
_cell_volume                     1237.19
loop_
_atom_site_label
_atom_site_type_symbol
_atom_site_fract_x
_atom_site_fract_y
_atom_site_fract_z
Li1 Li 0.40008(30) -0.03812(30) 0.56034(10)
O1 O 0.30932(19) 0.26594(14) 0.19983(6)
O2 O 0.42606(17) 0.48019(14) 0.16368(6)
O3 O 0.28537(14) 0.31978(12) 0.55740(5)
O4 O 0.41483(14) 0.13751(11) 0.49325(5)
C1 C 0.37677(20) 0.39674(20) 0.21365(10)
C2 C 0.38816(18) 0.44069(16) 0.29603(8)
C3 C 0.35730(20) 0.31830(20) 0.35497(10)
C4 C 0.39193(20) 0.37922(20) 0.43428(10)
C5 C 0.36120(17) 0.26965(15) 0.49910(7)
H1 H 0.298(4) 0.258(3) 0.148(2)
H2 H 0.313(3) 0.519(3) 0.302(2)
H3 H 0.497(3) 0.489(1) 0.303(1)
H4 H 0.424(3) 0.238(3) 0.342(1)
H5 H 0.238(3) 0.289(3) 0.351(1)
H6 H 0.511(3) 0.410(3) 0.437(1)
H7 H 0.326(3) 0.469(3) 0.444(1)
Li1F Li 0.09992(30) 0.46188(30) 0.56034(10)
O3F O 0.21463(14) -0.18022(12) 0.55740(5)
Li1G Li 0.40008(30) 0.53812(30) 0.06034(10)
O2G O 0.42606(17) 0.01981(14) 0.66368(6)
O4D O 0.58517(14) -0.13751(11) 0.50675(5)
Li1D Li 0.59992(30) 0.03812(30) 0.43966(10)
loop_
_geom_bond_atom_site_label_1
_geom_bond_atom_site_label_2
_geom_bond_site_symmetry_1
_geom_bond_site_symmetry_2
Li1 O4 1_555 1_555
O1 C1 1_555 1_555
O2 C1 1_555 1_555
O3 C5 1_555 1_555
O4 C5 1_555 1_555
C1 C2 1_555 1_555
C2 C3 1_555 1_555
C3 C4 1_555 1_555
C4 C5 1_555 1_555
H1 O1 1_555 1_555
H2 C2 1_555 1_555
H3 C2 1_555 1_555
H4 C3 1_555 1_555
H5 C3 1_555 1_555
H6 C4 1_555 1_555
H7 C4 1_555 1_555
Li1F O3 1_555 1_555
O3F Li1 1_555 1_555
Li1G O2 1_555 1_555
O2G Li1 1_555 1_555
O4D Li1 1_555 1_555
Li1D O4 1_555 1_555
O4D Li1D 1_555 1_555

#END
