
#######################################################################
#
#                 Cambridge Crystallographic Data Centre
#                                CCDC 
#
#######################################################################
#
# If this CIF has been generated from an entry in the Cambridge 
# Structural Database, then it will include bibliographic, chemical, 
# crystal, experimental, refinement or atomic coordinate data resulting 
# from the CCDC's data processing and validation procedures.
#
#######################################################################

data_WINJOU
_symmetry_cell_setting           triclinic
_symmetry_space_group_name_H-M   'P -1'
_symmetry_Int_Tables_number      2
_space_group_name_Hall           '-P 1'
loop_
_symmetry_equiv_pos_site_id
_symmetry_equiv_pos_as_xyz
1 x,y,z
2 -x,-y,-z
_cell_length_a                   7.7404(4)
_cell_length_b                   10.7583(5)
_cell_length_c                   14.4175(7)
_cell_angle_alpha                75.2594(7)
_cell_angle_beta                 84.2335(7)
_cell_angle_gamma                75.7419(6)
_cell_volume                     1124.4
loop_
_atom_site_label
_atom_site_type_symbol
_atom_site_fract_x
_atom_site_fract_y
_atom_site_fract_z
Pr1 Pr 0.803130(17) 0.412396(12) 0.663498(10)
O1 O 0.7605(3) 0.2017(2) 0.6363(2)
O2 O 0.5255(3) 0.3661(2) 0.60767(18)
O3 O 0.2858(3) 0.3840(2) 0.45960(16)
O4 O 0.0626(3) 0.3595(2) 0.56589(18)
O5 O -0.0336(3) -0.4554(2) 0.70858(19)
O6 O 0.5749(3) 0.5597(3) 0.75048(18)
O7 O 0.5701(4) 0.3544(3) 0.8143(2)
O8 O 0.4532(5) 0.2221(3) 0.9568(2)
H1 H 0.4615 0.2666 0.9002
O9 O 0.3137(4) 0.2502(3) 1.0912(2)
O10 O -0.0227(4) 1.2572(2) 0.78834(18)
N1 N 0.2115(3) -0.1489(2) 0.62962(18)
N2 N 0.1424(3) 0.8635(2) 0.90188(19)
C1 C 0.5974(4) 0.2470(3) 0.6170(2)
C2 C 0.4911(4) 0.1493(3) 0.6087(2)
C3 C 0.5726(4) 0.0166(3) 0.6406(3)
H2 H 0.6895 -0.0066 0.6600
C4 C 0.4848(4) -0.0825(3) 0.6443(3)
H3 H 0.5425 -0.1709 0.6644
C5 C 0.3091(4) -0.0468(3) 0.6173(2)
C6 C 0.2249(4) 0.0842(3) 0.5837(2)
H4 H 0.1075 0.1065 0.5650
C7 C 0.3162(4) 0.1833(3) 0.57794(19)
C8 C 0.2152(4) 0.3221(3) 0.53198(19)
C9 C 0.2899(4) -0.2668(3) 0.6078(2)
H5 H 0.4024 -0.2772 0.5771
C10 C 0.2079(4) -0.3693(3) 0.6297(2)
H6 H 0.2622 -0.4470 0.6112
C11 C 0.0406(4) -0.3590(3) 0.6805(2)
C12 C -0.0379(4) -0.2338(3) 0.7016(3)
H7 H -0.1489 -0.2210 0.7336
C13 C 0.0476(4) -0.1337(3) 0.6755(2)
H8 H -0.0068 -0.0528 0.6892
C14 C 0.5166(4) 0.4768(3) 0.8127(2)
C15 C 0.3809(4) 0.5231(3) 0.8873(2)
C16 C 0.3144(4) 0.4469(3) 0.9723(2)
C17 C 0.1942(4) 0.5128(3) 1.0319(2)
H9 H 0.1519 0.4635 1.0885
C18 C 0.1350(4) 0.6488(3) 1.0105(2)
H10 H 0.0528 0.6901 1.0512
C19 C 0.2002(4) 0.7215(3) 0.9280(2)
C20 C 0.3217(4) 0.6597(3) 0.8676(2)
H11 H 0.3650 0.7108 0.8123
C21 C 0.3611(5) 0.2982(3) 1.0100(3)
C22 C 0.2646(4) 0.9395(3) 0.8695(2)
H12 H 0.3858 0.8999 0.8722
C23 C 0.2114(4) 1.0709(3) 0.8338(2)
H13 H 0.2971 1.1205 0.8136
C24 C 0.0279(4) 1.1356(3) 0.8263(2)
C25 C -0.0938(4) 1.0536(3) 0.8660(3)
H14 H -0.2156 1.0910 0.8675
C26 C -0.0344(4) 0.9222(3) 0.9015(3)
H15 H -0.1166 0.8708 0.9263
Pr1_2 Pr -0.196870(17) -0.587604(12) 0.663498(10)
Pr1_3 Pr -0.196870(17) 0.412396(12) 0.663498(10)
Pr1_4 Pr -0.196870(17) 1.412396(12) 0.663498(10)
Pr1A Pr 0.196870(17) 0.587604(12) 0.336502(10)
O3A O 0.7142(3) 0.6160(2) 0.54040(16)
O4_2 O 1.0626(3) 0.3595(2) 0.56589(18)
O5_2 O 0.9664(3) 0.5446(2) 0.70858(19)
O10_2 O 0.9773(4) 0.2572(2) 0.78834(18)
loop_
_geom_bond_atom_site_label_1
_geom_bond_atom_site_label_2
_geom_bond_site_symmetry_1
_geom_bond_site_symmetry_2
Pr1 O1 1_555 1_555
O1 C1 1_555 1_555
O2 Pr1 1_555 1_555
O3 C8 1_555 1_555
O4 C8 1_555 1_555
O5 C11 1_555 1_555
O6 Pr1 1_555 1_555
O7 Pr1 1_555 1_555
O8 H1 1_555 1_555
O9 C21 1_555 1_555
O10 C24 1_555 1_555
N1 C5 1_555 1_555
N2 C19 1_555 1_555
C1 O2 1_555 1_555
C2 C1 1_555 1_555
C3 C2 1_555 1_555
H2 C3 1_555 1_555
C4 C3 1_555 1_555
H3 C4 1_555 1_555
C5 C4 1_555 1_555
C6 C5 1_555 1_555
H4 C6 1_555 1_555
C7 C2 1_555 1_555
C8 C7 1_555 1_555
C9 N1 1_555 1_555
H5 C9 1_555 1_555
C10 C9 1_555 1_555
H6 C10 1_555 1_555
C11 C10 1_555 1_555
C12 C11 1_555 1_555
H7 C12 1_555 1_555
C13 N1 1_555 1_555
H8 C13 1_555 1_555
C14 O6 1_555 1_555
C15 C14 1_555 1_555
C16 C15 1_555 1_555
C17 C16 1_555 1_555
H9 C17 1_555 1_555
C18 C17 1_555 1_555
H10 C18 1_555 1_555
C19 C18 1_555 1_555
C20 C15 1_555 1_555
H11 C20 1_555 1_555
C21 O8 1_555 1_555
C22 N2 1_555 1_555
H12 C22 1_555 1_555
C23 C22 1_555 1_555
H13 C23 1_555 1_555
C24 C23 1_555 1_555
C25 C24 1_555 1_555
H14 C25 1_555 1_555
C26 N2 1_555 1_555
H15 C26 1_555 1_555
Pr1_2 O5 1_555 1_555
Pr1_3 O4 1_555 1_555
Pr1_4 O10 1_555 1_555
Pr1A O3 1_555 1_555
O3A Pr1 1_555 1_555
O4_2 Pr1 1_555 1_555
O5_2 Pr1 1_555 1_555
O10_2 Pr1 1_555 1_555
O7 C14 1_555 1_555
C6 C7 1_555 1_555
C12 C13 1_555 1_555
C16 C21 1_555 1_555
C19 C20 1_555 1_555
C25 C26 1_555 1_555

#END
