
#######################################################################
#
#                 Cambridge Crystallographic Data Centre
#                                CCDC 
#
#######################################################################
#
# If this CIF has been generated from an entry in the Cambridge 
# Structural Database, then it will include bibliographic, chemical, 
# crystal, experimental, refinement or atomic coordinate data resulting 
# from the CCDC's data processing and validation procedures.
#
#######################################################################

data_WINKAH
_symmetry_cell_setting           triclinic
_symmetry_space_group_name_H-M   'P -1'
_symmetry_Int_Tables_number      2
_space_group_name_Hall           '-P 1'
loop_
_symmetry_equiv_pos_site_id
_symmetry_equiv_pos_as_xyz
1 x,y,z
2 -x,-y,-z
_cell_length_a                   7.6625(8)
_cell_length_b                   10.6656(11)
_cell_length_c                   14.3777(15)
_cell_angle_alpha                75.5870(10)
_cell_angle_beta                 84.5510(10)
_cell_angle_gamma                75.9420(10)
_cell_volume                     1103.21
loop_
_atom_site_label
_atom_site_type_symbol
_atom_site_fract_x
_atom_site_fract_y
_atom_site_fract_z
Eu1 Eu 1.196673(14) 0.086465(10) 0.836875(8)
O1 O 0.4720(3) -0.87203(17) 0.89297(15)
O2 O 0.2367(2) -0.70546(19) 0.86308(16)
O3 O 1.0390(3) -0.04515(19) 0.79227(16)
O4 O 0.9420(3) -0.86309(19) 0.93303(14)
O5 O 1.0228(3) 0.23750(19) 0.71507(14)
O6 O 0.7184(2) -0.89042(17) 1.04043(13)
O7 O 0.4229(3) 0.9426(2) 0.75205(16)
N1 N 0.7891(3) -0.3525(2) 0.87109(15)
O8 O 0.4279(4) 1.1477(2) 0.68683(17)
C1 C 0.9546(3) -0.3686(3) 0.8250(2)
H1 H 1.0091 -0.4505 0.8116
O9 O 0.6860(3) 1.2500(2) 0.40892(18)
C2 C 0.4009(3) -0.7516(2) 0.88346(18)
N2 N 0.8561(3) 0.6332(2) 0.60064(16)
C3 C 0.7887(3) -0.8268(2) 0.96767(17)
C4 C 0.7108(3) -0.2335(2) 0.89290(18)
H2 H 0.5975 -0.2225 0.9235
O10 O 0.5463(4) 1.2796(2) 0.54376(19)
H3 H 0.5358 1.2356 0.5987
C5 C 0.5080(3) -0.6537(2) 0.89199(17)
C6 C 0.7866(4) 0.4243(3) 0.66906(19)
H4 H 0.7004 0.3742 0.6894
C7 C 0.6852(3) -0.6877(2) 0.92261(16)
C8 C 0.9728(4) 0.3600(3) 0.67645(18)
C9 C 0.8634(4) 0.8489(3) 0.49067(19)
H5 H 0.9453 0.8068 0.4498
C10 C 0.7942(4) -0.1310(3) 0.8712(2)
H6 H 0.7400 -0.0527 0.8899
C11 C 0.4260(3) -0.5199(3) 0.8612(2)
H7 H 0.3076 -0.4969 0.8420
C12 C 0.9628(3) -0.1414(3) 0.82029(18)
C13 C 0.8048(4) 0.9855(3) 0.4692(2)
H8 H 0.8472 1.0345 0.4124
C14 C 1.0409(3) -0.2673(3) 0.7985(2)
H9 H 1.1521 -0.2800 0.7657
C15 C 0.5134(3) -0.4198(2) 0.8579(2)
H10 H 0.4544 -0.3309 0.8385
C16 C 0.7332(4) 0.5572(3) 0.6329(2)
H11 H 0.6110 0.5971 0.6301
C17 C 0.6906(3) -0.4551(2) 0.88410(18)
C18 C 1.0344(4) 0.5745(3) 0.6004(2)
H12 H 1.1172 0.6261 0.5749
C19 C 0.7766(3) -0.5875(2) 0.91655(17)
H13 H 0.8958 -0.6096 0.9343
C20 C 0.6768(4) 0.8399(3) 0.63409(18)
H14 H 0.6330 0.7893 0.6897
C21 C 0.4820(4) 1.0256(3) 0.6890(2)
C22 C 0.6183(3) 0.9775(3) 0.61397(18)
C23 C 0.7979(4) 0.7764(3) 0.57390(18)
C24 C 1.0943(4) 0.4420(3) 0.6366(2)
H15 H 1.2172 0.4045 0.6352
C25 C 0.6852(4) 1.0531(3) 0.52865(19)
C26 C 0.6371(4) 1.2022(3) 0.4901(2)
Eu1_2 Eu 0.196673(14) -0.913535(10) 0.836875(8)
Eu1_3 Eu 0.196673(14) 1.086465(10) 0.836875(8)
Eu1_4 Eu 1.196673(14) -0.913535(10) 0.836875(8)
Eu1A Eu 0.803327(14) -1.086465(10) 1.163125(8)
O1_2 O 1.4720(3) 0.12797(17) 0.89297(15)
O2_2 O 1.2367(2) 0.29454(19) 0.86308(16)
O4_2 O 0.9420(3) 0.13691(19) 0.93303(14)
O6A O 1.2816(2) -0.10958(17) 0.95957(13)
O7_2 O 1.4229(3) -0.0574(2) 0.75205(16)
O8_2 O 1.4279(4) 0.1477(2) 0.68683(17)
loop_
_geom_bond_atom_site_label_1
_geom_bond_atom_site_label_2
_geom_bond_site_symmetry_1
_geom_bond_site_symmetry_2
Eu1 O3 1_555 1_555
O1 C2 1_555 1_555
O2 C2 1_555 1_555
O3 C12 1_555 1_555
O4 C3 1_555 1_555
O5 Eu1 1_555 1_555
O6 C3 1_555 1_555
O7 C21 1_555 1_555
N1 C1 1_555 1_555
O8 C21 1_555 1_555
C1 H1 1_555 1_555
O9 C26 1_555 1_555
C2 C5 1_555 1_555
N2 C16 1_555 1_555
C3 C7 1_555 1_555
C4 N1 1_555 1_555
H2 C4 1_555 1_555
O10 H3 1_555 1_555
C5 C7 1_555 1_555
C6 H4 1_555 1_555
C7 C19 1_555 1_555
C8 O5 1_555 1_555
C9 H5 1_555 1_555
C10 C4 1_555 1_555
H6 C10 1_555 1_555
C11 C5 1_555 1_555
H7 C11 1_555 1_555
C12 C10 1_555 1_555
C13 C9 1_555 1_555
H8 C13 1_555 1_555
C14 C1 1_555 1_555
H9 C14 1_555 1_555
C15 C11 1_555 1_555
H10 C15 1_555 1_555
C16 C6 1_555 1_555
H11 C16 1_555 1_555
C17 N1 1_555 1_555
C18 N2 1_555 1_555
H12 C18 1_555 1_555
C19 C17 1_555 1_555
H13 C19 1_555 1_555
C20 H14 1_555 1_555
C21 C22 1_555 1_555
C22 C20 1_555 1_555
C23 N2 1_555 1_555
C24 C8 1_555 1_555
H15 C24 1_555 1_555
C25 C13 1_555 1_555
C26 O10 1_555 1_555
Eu1_2 O1 1_555 1_555
Eu1_3 O7 1_555 1_555
Eu1_4 O4 1_555 1_555
Eu1A O6 1_555 1_555
O1_2 Eu1 1_555 1_555
O2_2 Eu1 1_555 1_555
O4_2 Eu1 1_555 1_555
O6A Eu1 1_555 1_555
O7_2 Eu1 1_555 1_555
O8_2 Eu1 1_555 1_555
O2 Eu1_2 1_555 1_555
O8 Eu1_3 1_555 1_555
C6 C8 1_555 1_555
C9 C23 1_555 1_555
C12 C14 1_555 1_555
C15 C17 1_555 1_555
C18 C24 1_555 1_555
C20 C23 1_555 1_555
C22 C25 1_555 1_555
C25 C26 1_555 1_555

#END
