
#######################################################################
#
#                 Cambridge Crystallographic Data Centre
#                                CCDC 
#
#######################################################################
#
# If this CIF has been generated from an entry in the Cambridge 
# Structural Database, then it will include bibliographic, chemical, 
# crystal, experimental, refinement or atomic coordinate data resulting 
# from the CCDC's data processing and validation procedures.
#
#######################################################################

data_WINVOG
_symmetry_cell_setting           monoclinic
_symmetry_space_group_name_H-M   'C 2/c'
_symmetry_Int_Tables_number      15
_space_group_name_Hall           '-C 2yn'
loop_
_symmetry_equiv_pos_site_id
_symmetry_equiv_pos_as_xyz
1 x,y,z
2 -x,y,1/2-z
3 1/2+x,1/2+y,z
4 1/2-x,1/2+y,1/2-z
5 -x,-y,-z
6 x,-y,1/2+z
7 1/2-x,1/2-y,-z
8 1/2+x,1/2-y,1/2+z
_cell_length_a                   13.634(3)
_cell_length_b                   10.733(2)
_cell_length_c                   9.916(2)
_cell_angle_alpha                90
_cell_angle_beta                 107.274(3)
_cell_angle_gamma                90
_cell_volume                     1385.6
loop_
_atom_site_label
_atom_site_type_symbol
_atom_site_fract_x
_atom_site_fract_y
_atom_site_fract_z
Tb1 Tb 0.5000 0.36434(2) 0.2500
P1 P 0.65203(6) 0.59897(8) 0.11924(9)
O1 O 0.57830(19) 0.5331(2) 0.1797(2)
O2 O 0.62150(19) 0.6153(2) -0.0383(2)
O3 O 0.75830(19) 0.5281(2) 0.1719(3)
H1 H 0.8000 0.5597 0.1341
O4 O 0.8799(2) 0.7780(2) 0.3471(3)
O5 O 0.4389(2) 0.1409(2) 0.1515(3)
O6 O 0.5000 -0.0358(4) 0.2500
N1 N 0.7174(2) 0.7489(3) 0.3514(3)
N2 N 0.5000 0.0790(4) 0.2500
C1 C 0.6771(3) 0.7528(3) 0.1965(3)
H2 H 0.7274 0.7957 0.1582
H3 H 0.6127 0.8018 0.1691
C2 C 0.8164(3) 0.7641(3) 0.4141(4)
C3 C 0.8583(3) 0.7644(4) 0.5730(4)
H4 H 0.9087 0.6957 0.6018
H5 H 0.8959 0.8435 0.6027
P1F P 0.84797(6) 0.90103(8) 0.88076(9)
O1F O 0.92170(19) 0.9669(2) 0.8203(2)
O2F O 0.87850(19) 0.8847(2) 1.0383(2)
O3F O 0.74170(19) 0.9719(2) 0.8281(3)
H1F H 0.7000 0.9403 0.8659
O4F O 0.6201(2) 0.7220(2) 0.6529(3)
N1F N 0.7826(2) 0.7511(3) 0.6486(3)
C1F C 0.8229(3) 0.7472(3) 0.8035(3)
H2F H 0.7726 0.7043 0.8418
H3F H 0.8873 0.6982 0.8309
C2F C 0.6836(3) 0.7359(3) 0.5859(4)
C3F C 0.6417(3) 0.7356(4) 0.4270(4)
H4F H 0.5913 0.8043 0.3982
H5F H 0.6041 0.6565 0.3973
O5A O 0.5611(2) 0.1409(2) 0.3485(3)
Tb1B Tb 1.0000 0.86434(2) 0.2500
Tb1B_2 Tb 1.0000 0.86434(2) 1.2500
Tb1D Tb 0.5000 0.63566(2) -0.2500
Tb1D_2 Tb 0.5000 0.63566(2) 0.7500
Tb1F Tb 1.0000 1.13566(2) 0.7500
O1A O 0.42170(19) 0.5331(2) 0.3203(2)
O2D O 0.37850(19) 0.3847(2) 0.0383(2)
O2E O 0.62150(19) 0.3847(2) 0.4617(2)
O4B O 0.3799(2) 0.2780(2) 0.3471(3)
O4C O 0.6201(2) 0.2780(2) 0.1529(3)
loop_
_geom_bond_atom_site_label_1
_geom_bond_atom_site_label_2
_geom_bond_site_symmetry_1
_geom_bond_site_symmetry_2
Tb1 O1 1_555 1_555
P1 O1 1_555 1_555
O2 P1 1_555 1_555
O3 P1 1_555 1_555
H1 O3 1_555 1_555
O4 C2 1_555 1_555
O5 Tb1 1_555 1_555
O6 N2 1_555 1_555
N1 C1 1_555 1_555
N2 O5 1_555 1_555
C1 P1 1_555 1_555
H2 C1 1_555 1_555
H3 C1 1_555 1_555
C2 N1 1_555 1_555
C3 C2 1_555 1_555
H4 C3 1_555 1_555
H5 C3 1_555 1_555
P1F O1F 1_555 1_555
O1F Tb1F 1_555 1_555
O2F P1F 1_555 1_555
O3F P1F 1_555 1_555
H1F O3F 1_555 1_555
O4F C2F 1_555 1_555
N1F C3 1_555 1_555
C1F P1F 1_555 1_555
H2F C1F 1_555 1_555
H3F C1F 1_555 1_555
C2F N1F 1_555 1_555
C3F N1 1_555 1_555
H4F C3F 1_555 1_555
H5F C3F 1_555 1_555
O5A Tb1 1_555 1_555
Tb1B O4 1_555 1_555
Tb1B_2 O2F 1_555 1_555
Tb1D O2 1_555 1_555
Tb1D_2 O4F 1_555 1_555
O1A Tb1 1_555 1_555
O2D Tb1 1_555 1_555
O2E Tb1 1_555 1_555
O4B Tb1 1_555 1_555
O4C Tb1 1_555 1_555
N2 O5A 1_555 1_555
N1F C1F 1_555 1_555
C2F C3F 1_555 1_555

#END
