
#######################################################################
#
#                 Cambridge Crystallographic Data Centre
#                                CCDC 
#
#######################################################################
#
# If this CIF has been generated from an entry in the Cambridge 
# Structural Database, then it will include bibliographic, chemical, 
# crystal, experimental, refinement or atomic coordinate data resulting 
# from the CCDC's data processing and validation procedures.
#
#######################################################################

data_WINVIZ
_symmetry_cell_setting           orthorhombic
_symmetry_space_group_name_H-M   'P b c a'
_symmetry_Int_Tables_number      61
_space_group_name_Hall           '-P 2ac 2ab'
loop_
_symmetry_equiv_pos_site_id
_symmetry_equiv_pos_as_xyz
1 x,y,z
2 1/2-x,-y,1/2+z
3 -x,1/2+y,1/2-z
4 1/2+x,1/2-y,-z
5 -x,-y,-z
6 1/2+x,y,1/2-z
7 x,1/2-y,1/2+z
8 1/2-x,1/2+y,z
_cell_length_a                   8.610(5)
_cell_length_b                   9.871(6)
_cell_length_c                   18.892(12)
_cell_angle_alpha                90
_cell_angle_beta                 90
_cell_angle_gamma                90
_cell_volume                     1605.62
loop_
_atom_site_label
_atom_site_type_symbol
_atom_site_fract_x
_atom_site_fract_y
_atom_site_fract_z
Cu1 Cu 1.12936(5) 0.14810(5) 0.35146(3)
P1 P 0.80368(12) 0.01391(10) 0.35635(6)
O1 O 0.7397(3) -0.1226(3) 0.37296(16)
O2 O 0.9538(3) 0.0507(3) 0.39423(15)
O3 O 0.6732(3) 0.1198(3) 0.37279(16)
H1 H 0.7100 0.1964 0.3717
O4 O 0.7112(3) -0.0110(3) 0.22203(15)
H2 H 0.7111 -0.0932 0.2156
O5 O 1.0010(3) 0.2248(3) 0.27486(15)
O6 O 0.8140(3) 0.2309(3) 0.19528(15)
O7 O 1.2579(4) 0.0954(3) 0.43328(16)
H3 H 1.312(5) 0.024(3) 0.430(3)
H4 H 1.317(4) 0.162(3) 0.442(3)
C1 C 0.8444(4) 0.0260(4) 0.2620(2)
H9 H 0.9299 -0.0356 0.2503
C2 C 0.8908(4) 0.1696(4) 0.2423(2)
Cu1E Cu 0.62936(5) 0.14810(5) 0.14854(3)
O4E O 1.2112(3) -0.0110(3) 0.27797(15)
H2E H 1.2111 -0.0932 0.2844
O6E O 1.3140(3) 0.2309(3) 0.30472(15)
O8 O 1.0708(4) 0.3578(3) 0.41515(18)
H5 H 0.979(2) 0.377(5) 0.402(3)
H7 H 1.057(7) 0.326(5) 0.4561(13)
H6 H 0.416(6) 0.356(4) 0.5073(19)
O9 O 0.4439(5) 0.3037(3) 0.47445(19)
H8 H 0.487(6) 0.355(5) 0.444(2)
loop_
_geom_bond_atom_site_label_1
_geom_bond_atom_site_label_2
_geom_bond_site_symmetry_1
_geom_bond_site_symmetry_2
Cu1 O2 1_555 1_555
P1 O1 1_555 1_555
O2 P1 1_555 1_555
O3 P1 1_555 1_555
H1 O3 1_555 1_555
O4 H2 1_555 1_555
O5 Cu1 1_555 1_555
O6 C2 1_555 1_555
O7 Cu1 1_555 1_555
H3 O7 1_555 1_555
H4 O7 1_555 1_555
O8 H5 1_555 1_555
H6 O9 1_555 1_555
O9 H8 1_555 1_555
H7 O8 1_555 1_555
C1 P1 1_555 1_555
H9 C1 1_555 1_555
C2 O5 1_555 1_555
Cu1E O4 1_555 1_555
O4E Cu1 1_555 1_555
H2E O4E 1_555 1_555
O6E Cu1 1_555 1_555
O4 C1 1_555 1_555
O6 Cu1E 1_555 1_555
C1 C2 1_555 1_555

#END
