
#######################################################################
#
#                 Cambridge Crystallographic Data Centre
#                                CCDC 
#
#######################################################################
#
# If this CIF has been generated from an entry in the Cambridge 
# Structural Database, then it will include bibliographic, chemical, 
# crystal, experimental, refinement or atomic coordinate data resulting 
# from the CCDC's data processing and validation procedures.
#
#######################################################################

data_WINWOG
_symmetry_cell_setting           orthorhombic
_symmetry_space_group_name_H-M   'P c c n'
_symmetry_Int_Tables_number      56
_space_group_name_Hall           '-P 2ab 2ac'
loop_
_symmetry_equiv_pos_site_id
_symmetry_equiv_pos_as_xyz
1 x,y,z
2 1/2-x,1/2-y,z
3 -x,1/2+y,1/2-z
4 1/2+x,-y,1/2-z
5 -x,-y,-z
6 1/2+x,1/2+y,-z
7 x,1/2-y,1/2+z
8 1/2-x,y,1/2+z
_cell_length_a                   11.3975(9)
_cell_length_b                   14.8905(12)
_cell_length_c                   17.0136(14)
_cell_angle_alpha                90
_cell_angle_beta                 90
_cell_angle_gamma                90
_cell_volume                     2887.45
loop_
_atom_site_label
_atom_site_type_symbol
_atom_site_fract_x
_atom_site_fract_y
_atom_site_fract_z
Co1 Co 0.11826(4) 0.01219(3) 0.27376(3)
S1 S 0.38959(13) 0.14244(13) 0.44325(9)
S2 S 0.32324(12) -0.12349(10) 0.06501(8)
N1 N 0.0002(3) -0.0711(2) 0.32258(19)
N2 N -0.2500 -0.2500 0.4099(3)
H1 H -0.2500 -0.2500 0.4619(12)
N3 N 0.0200(3) 0.1031(2) 0.21497(18)
N4 N -0.2500 0.2500 0.1100(3)
H2 H -0.2500 0.2500 0.0585(12)
N5 N 0.2067(3) 0.0673(2) 0.3582(2)
N6 N 0.2040(3) -0.0515(2) 0.1925(2)
C1 C -0.0077(4) -0.0918(3) 0.3989(2)
H3 H 0.0447 -0.0653 0.4338
C2 C -0.0899(4) -0.1506(3) 0.4279(2)
H4 H -0.0923 -0.1629 0.4815
C3 C -0.1695(3) -0.1919(3) 0.3779(2)
C4 C -0.1645(4) -0.1677(3) 0.3001(2)
H5 H -0.2188 -0.1907 0.2646
C5 C -0.0789(4) -0.1094(3) 0.2748(2)
H6 H -0.0758 -0.0957 0.2215
C6 C -0.0327(3) 0.1699(3) 0.2534(2)
H7 H -0.0078 0.1827 0.3042
C7 C -0.1216(3) 0.2210(2) 0.2220(2)
H8 H -0.1558 0.2668 0.2513
C8 C -0.1597(3) 0.2033(2) 0.1464(2)
C9 C -0.1012(3) 0.1368(3) 0.1044(2)
H9 H -0.1215 0.1250 0.0525
C10 C -0.0133(4) 0.0888(3) 0.1400(2)
H10 H 0.0248 0.0445 0.1112
C11 C 0.2825(4) 0.0991(3) 0.3950(2)
C12 C 0.2527(4) -0.0810(3) 0.1386(2)
Co1A Co -0.61826(4) -0.51219(3) 0.27376(3)
Co1A_2 Co -0.61826(4) 0.48781(3) 0.27376(3)
S1A S -0.88959(13) -0.64244(13) 0.44325(9)
S2A S -0.82324(12) -0.37651(10) 0.06501(8)
N1A N -0.5002(3) -0.4289(2) 0.32258(19)
N3A N -0.5200(3) 0.3969(2) 0.21497(18)
N3A_2 N -0.5200(3) -0.6031(2) 0.21497(18)
N5A N -0.7067(3) -0.5673(2) 0.3582(2)
N6A N -0.7040(3) -0.4485(2) 0.1925(2)
C1A C -0.4923(4) -0.4082(3) 0.3989(2)
H3A H -0.5447 -0.4347 0.4338
C2A C -0.4101(4) -0.3494(3) 0.4279(2)
H4A H -0.4077 -0.3371 0.4815
C3A C -0.3305(3) -0.3081(3) 0.3779(2)
C4A C -0.3355(4) -0.3323(3) 0.3001(2)
H5A H -0.2812 -0.3093 0.2646
C5A C -0.4211(4) -0.3906(3) 0.2748(2)
H6A H -0.4242 -0.4043 0.2215
C6A C -0.4673(3) 0.3301(3) 0.2534(2)
H7A H -0.4922 0.3173 0.3042
C7A C -0.3784(3) 0.2790(2) 0.2220(2)
H8A H -0.3442 0.2332 0.2513
C8A C -0.3403(3) 0.2967(2) 0.1464(2)
C9A C -0.3988(3) 0.3632(3) 0.1044(2)
H9A H -0.3785 0.3750 0.0525
C10A C -0.4867(4) 0.4112(3) 0.1400(2)
H10A H -0.5248 0.4555 0.1112
C11A C -0.7825(4) -0.5991(3) 0.3950(2)
C12A C -0.7527(4) -0.4190(3) 0.1386(2)
loop_
_geom_bond_atom_site_label_1
_geom_bond_atom_site_label_2
_geom_bond_site_symmetry_1
_geom_bond_site_symmetry_2
Co1 N1 1_555 1_555
S1 C11 1_555 1_555
S2 C12 1_555 1_555
N1 C1 1_555 1_555
N2 H1 1_555 1_555
N3 Co1 1_555 1_555
N4 H2 1_555 1_555
N5 Co1 1_555 1_555
N6 Co1 1_555 1_555
C1 H3 1_555 1_555
C2 C1 1_555 1_555
H4 C2 1_555 1_555
C3 N2 1_555 1_555
C4 C3 1_555 1_555
H5 C4 1_555 1_555
C5 N1 1_555 1_555
H6 C5 1_555 1_555
C6 N3 1_555 1_555
H7 C6 1_555 1_555
C7 C6 1_555 1_555
H8 C7 1_555 1_555
C8 N4 1_555 1_555
C9 C8 1_555 1_555
H9 C9 1_555 1_555
C10 N3 1_555 1_555
H10 C10 1_555 1_555
C11 N5 1_555 1_555
C12 N6 1_555 1_555
Co1A N1A 1_555 1_555
Co1A_2 N3A 1_555 1_555
S1A C11A 1_555 1_555
S2A C12A 1_555 1_555
N1A C1A 1_555 1_555
N3A C6A 1_555 1_555
N3A_2 Co1A 1_555 1_555
N5A Co1A 1_555 1_555
N6A Co1A 1_555 1_555
C1A H3A 1_555 1_555
C2A C1A 1_555 1_555
H4A C2A 1_555 1_555
C3A N2 1_555 1_555
C4A C3A 1_555 1_555
H5A C4A 1_555 1_555
C5A N1A 1_555 1_555
H6A C5A 1_555 1_555
C6A H7A 1_555 1_555
C7A C6A 1_555 1_555
H8A C7A 1_555 1_555
C8A N4 1_555 1_555
C9A C8A 1_555 1_555
H9A C9A 1_555 1_555
C10A N3A 1_555 1_555
H10A C10A 1_555 1_555
C11A N5A 1_555 1_555
C12A N6A 1_555 1_555
C2 C3 1_555 1_555
C4 C5 1_555 1_555
C7 C8 1_555 1_555
C9 C10 1_555 1_555
C2A C3A 1_555 1_555
C4A C5A 1_555 1_555
C7A C8A 1_555 1_555
C9A C10A 1_555 1_555

#END
