
#######################################################################
#
#                 Cambridge Crystallographic Data Centre
#                                CCDC 
#
#######################################################################
#
# If this CIF has been generated from an entry in the Cambridge 
# Structural Database, then it will include bibliographic, chemical, 
# crystal, experimental, refinement or atomic coordinate data resulting 
# from the CCDC's data processing and validation procedures.
#
#######################################################################

data_WINYAV
_symmetry_cell_setting           monoclinic
_symmetry_space_group_name_H-M   'C 2/m'
_symmetry_Int_Tables_number      12
_space_group_name_Hall           '-C 2y'
loop_
_symmetry_equiv_pos_site_id
_symmetry_equiv_pos_as_xyz
1 x,y,z
2 -x,y,-z
3 1/2+x,1/2+y,z
4 1/2-x,1/2+y,-z
5 -x,-y,-z
6 x,-y,z
7 1/2-x,1/2-y,-z
8 1/2+x,1/2-y,z
_cell_length_a                   14.233(3)
_cell_length_b                   7.235(2)
_cell_length_c                   7.214(2)
_cell_angle_alpha                90
_cell_angle_beta                 100.0(2)
_cell_angle_gamma                90
_cell_volume                     731.581
loop_
_atom_site_label
_atom_site_type_symbol
_atom_site_fract_x
_atom_site_fract_y
_atom_site_fract_z
Ni1 Ni 0.00000 0.50000 0.50000
Co1 Co 0.00000 0.00000 0.00000
C1 C 0.019(2) 0.315(3) 0.323(3)
N1 N 0.028(2) 0.206(3) 0.213(3)
C2 C -0.177(2) 0.00000 0.205(3)
C3 C -0.268(2) 0.00000 0.185(3)
C4 C -0.236(2) 0.00000 -0.086(2)
C5 C -0.245(2) 0.00000 -0.294(3)
N2 N -0.156(2) 0.00000 0.036(2)
N3 N -0.302(2) 0.00000 -0.005(3)
C1A C -0.019(2) 0.315(3) -0.323(3)
N1A N -0.028(2) 0.206(3) -0.213(3)
C2A C 0.177(2) 0.00000 -0.205(3)
C3A C 0.268(2) 0.00000 -0.185(3)
C4A C 0.236(2) 0.00000 0.086(2)
C5A C 0.245(2) 0.00000 0.294(3)
N2A N 0.156(2) 0.00000 -0.036(2)
N3A N 0.302(2) 0.00000 0.005(3)
C1D C -0.019(2) -0.315(3) -0.323(3)
N1D N -0.028(2) -0.206(3) -0.213(3)
C1E C 0.019(2) -0.315(3) 0.323(3)
N1E N 0.028(2) -0.206(3) 0.213(3)
Ni1_2 Ni 0.00000 -0.50000 -0.50000
Ni1_3 Ni 0.00000 -0.50000 0.50000
Ni1_4 Ni 0.00000 0.50000 -0.50000
C1A_2 C -0.019(2) 0.315(3) 0.677(3)
C1D_2 C -0.019(2) 0.685(3) 0.677(3)
C1E_2 C 0.019(2) 0.685(3) 0.323(3)
loop_
_geom_bond_atom_site_label_1
_geom_bond_atom_site_label_2
_geom_bond_site_symmetry_1
_geom_bond_site_symmetry_2
Ni1 C1 1_555 1_555
Co1 N1 1_555 1_555
C1 N1 1_555 1_555
C2 C3 1_555 1_555
C3 N3 1_555 1_555
C4 C5 1_555 1_555
N2 Co1 1_555 1_555
N3 C4 1_555 1_555
C1A N1A 1_555 1_555
N1A Co1 1_555 1_555
C2A C3A 1_555 1_555
C3A N3A 1_555 1_555
C4A C5A 1_555 1_555
N2A Co1 1_555 1_555
N3A C4A 1_555 1_555
C1D N1D 1_555 1_555
N1D Co1 1_555 1_555
C1E N1E 1_555 1_555
N1E Co1 1_555 1_555
Ni1_2 C1D 1_555 1_555
Ni1_3 C1E 1_555 1_555
Ni1_4 C1A 1_555 1_555
C1A_2 Ni1 1_555 1_555
C1D_2 Ni1 1_555 1_555
C1E_2 Ni1 1_555 1_555
C2 N2 1_555 1_555
C4 N2 1_555 1_555
C2A N2A 1_555 1_555
C4A N2A 1_555 1_555

#END
