
#######################################################################
#
#                 Cambridge Crystallographic Data Centre
#                                CCDC 
#
#######################################################################
#
# If this CIF has been generated from an entry in the Cambridge 
# Structural Database, then it will include bibliographic, chemical, 
# crystal, experimental, refinement or atomic coordinate data resulting 
# from the CCDC's data processing and validation procedures.
#
#######################################################################

data_WINYEZ
_symmetry_cell_setting           orthorhombic
_symmetry_space_group_name_H-M   'P n c 2'
_symmetry_Int_Tables_number      30
_space_group_name_Hall           'P 2 -2bc'
loop_
_symmetry_equiv_pos_site_id
_symmetry_equiv_pos_as_xyz
1 x,y,z
2 -x,1/2+y,1/2+z
3 x,1/2-y,1/2+z
4 -x,-y,z
_cell_length_a                   7.239(2)
_cell_length_b                   14.708(3)
_cell_length_c                   7.261(2)
_cell_angle_alpha                90
_cell_angle_beta                 90
_cell_angle_gamma                90
_cell_volume                     773.087
loop_
_atom_site_label
_atom_site_type_symbol
_atom_site_fract_x
_atom_site_fract_y
_atom_site_fract_z
Ni1 Ni 0.00000 0.50000 0.037(3)
Co1 Co 0.50000 0.50000 0.537(3)
C1 C 0.181(2) 0.498(3) -0.152(3)
N1 N 0.289(2) 0.498(3) -0.265(3)
C2 C 0.193(2) 0.5006(3) 0.213(3)
N2 N 0.309(2) 0.5009(3) 0.318(3)
N3 N 0.453(2) 0.362(3) 0.516(2)
C3 C 0.285(2) 0.332(3) 0.568(2)
C4 C 0.293(2) 0.242(3) 0.588(3)
N4 N 0.525(2) 0.219(3) 0.502(3)
C5 C 0.593(2) 0.305(3) 0.483(2)
C6 C 0.843(2) 0.254(3) 0.515(2)
C7 C 0.891(2) 0.332(3) 0.659(2)
C1C C -0.181(2) 0.502(3) -0.152(3)
N1C N -0.289(2) 0.502(3) -0.265(3)
C2C C -0.193(2) 0.4994(3) 0.213(3)
N2C N -0.309(2) 0.4991(3) 0.318(3)
N3C N 0.547(2) 0.638(3) 0.516(2)
C3C C 0.715(2) 0.668(3) 0.568(2)
C4C C 0.707(2) 0.758(3) 0.588(3)
N4C N 0.475(2) 0.781(3) 0.502(3)
C5C C 0.407(2) 0.695(3) 0.483(2)
C6C C 0.157(2) 0.746(3) 0.515(2)
C7C C 0.109(2) 0.668(3) 0.659(2)
Co1_2 Co -0.50000 0.50000 -0.463(3)
Co1_3 Co -0.50000 0.50000 0.537(3)
Co1_4 Co 0.50000 0.50000 -0.463(3)
N1_2 N 0.289(2) 0.498(3) 0.735(3)
N1C_2 N 0.711(2) 0.502(3) 0.735(3)
N2C_2 N 0.691(2) 0.4991(3) 0.318(3)
loop_
_geom_bond_atom_site_label_1
_geom_bond_atom_site_label_2
_geom_bond_site_symmetry_1
_geom_bond_site_symmetry_2
Ni1 C1 1_555 1_555
Co1 N2 1_555 1_555
C1 N1 1_555 1_555
N1 Co1_4 1_555 1_555
C2 Ni1 1_555 1_555
N2 C2 1_555 1_555
N3 Co1 1_555 1_555
C3 N3 1_555 1_555
C4 C3 1_555 1_555
N4 C4 1_555 1_555
C5 N3 1_555 1_555
C6 C5 1_555 1_555
C7 C6 1_555 1_555
C1C Ni1 1_555 1_555
N1C C1C 1_555 1_555
C2C Ni1 1_555 1_555
N2C C2C 1_555 1_555
N3C Co1 1_555 1_555
C3C N3C 1_555 1_555
C4C C3C 1_555 1_555
N4C C4C 1_555 1_555
C5C N3C 1_555 1_555
C6C C5C 1_555 1_555
C7C C6C 1_555 1_555
Co1_2 N1C 1_555 1_555
Co1_3 N2C 1_555 1_555
N1_2 Co1 1_555 1_555
N1C_2 Co1 1_555 1_555
N2C_2 Co1 1_555 1_555
N4 C5 1_555 1_555
N4C C5C 1_555 1_555

#END
