
#######################################################################
#
#                 Cambridge Crystallographic Data Centre
#                                CCDC 
#
#######################################################################
#
# If this CIF has been generated from an entry in the Cambridge 
# Structural Database, then it will include bibliographic, chemical, 
# crystal, experimental, refinement or atomic coordinate data resulting 
# from the CCDC's data processing and validation procedures.
#
#######################################################################

data_WIPCAA
_symmetry_cell_setting           orthorhombic
_symmetry_space_group_name_H-M   'P b c a'
_symmetry_Int_Tables_number      61
_space_group_name_Hall           '-P 2ac 2ab'
loop_
_symmetry_equiv_pos_site_id
_symmetry_equiv_pos_as_xyz
1 x,y,z
2 1/2-x,-y,1/2+z
3 1/2+x,1/2-y,-z
4 -x,1/2+y,1/2-z
5 -x,-y,-z
6 1/2+x,y,1/2-z
7 1/2-x,1/2+y,z
8 x,1/2-y,1/2+z
_cell_length_a                   9.2164(18)
_cell_length_b                   15.916(3)
_cell_length_c                   20.147(4)
_cell_angle_alpha                90
_cell_angle_beta                 90
_cell_angle_gamma                90
_cell_volume                     2955.33
loop_
_atom_site_label
_atom_site_type_symbol
_atom_site_fract_x
_atom_site_fract_y
_atom_site_fract_z
Cd1 Cd 0.38102(3) 0.149021(16) 0.655315(10)
O1 O 0.3320(4) 0.00368(18) 0.66148(12)
O2 O 0.1381(3) 0.15728(18) 0.68360(18)
O3 O 0.6552(4) -0.2017(2) 0.85161(15)
N1 N 0.3290(3) 0.15157(18) 0.54033(15)
C1 C 0.4073(4) -0.0036(2) 0.71316(18)
C2 C 0.5658(4) -0.1914(2) 0.80633(19)
C3 C 0.4151(6) 0.1439(4) 0.4283(2)
H1 H 0.4907 0.1332 0.3989
O4 O 0.4623(3) 0.05803(15) 0.74217(13)
C4 C 0.5355(4) -0.1057(2) 0.78291(18)
H2 H 0.5143 -0.0723 0.8220
H3 H 0.6257 -0.0842 0.7648
C5 C 0.4338(4) -0.0883(2) 0.73918(18)
H4 H 0.3429 -0.1072 0.7583
H5 H 0.4521 -0.1240 0.7010
C6 C 0.4369(4) 0.1358(2) 0.49687(18)
O5 O 0.4988(4) -0.25051(18) 0.78076(15)
N2 N 0.5929(3) 0.1157(2) 0.59304(14)
C7 C 0.1996(5) 0.1738(3) 0.5168(2)
H6 H 0.1247 0.1838 0.5467
C8 C 0.2802(7) 0.1679(4) 0.4047(2)
H7 H 0.2643 0.1739 0.3594
C9 C 0.5800(4) 0.1111(2) 0.52581(18)
C10 C 0.7202(4) 0.0959(3) 0.6210(2)
H8 H 0.7289 0.0998 0.6669
C11 C 0.6961(5) 0.0870(3) 0.4861(2)
H9 H 0.6866 0.0845 0.4402
C12 C 0.1716(6) 0.1826(3) 0.4486(2)
H10 H 0.0799 0.1982 0.4338
C13 C 0.8384(5) 0.0703(4) 0.5848(3)
H11 H 0.9247 0.0558 0.6058
C14 C 0.8260(5) 0.0667(4) 0.5164(3)
H12 H 0.9051 0.0505 0.4908
H13 H 0.110(5) 0.1992(19) 0.701(2)
H14 H 0.109(5) 0.1136(18) 0.698(3)
Cd1C Cd 0.61898(3) -0.350979(16) 0.844685(10)
O3C O 0.3448(4) 0.2983(2) 0.64839(15)
O5C O 0.5012(4) 0.24949(18) 0.71924(15)
loop_
_geom_bond_atom_site_label_1
_geom_bond_atom_site_label_2
_geom_bond_site_symmetry_1
_geom_bond_site_symmetry_2
Cd1 O1 1_555 1_555
O1 C1 1_555 1_555
O2 Cd1 1_555 1_555
O3 C2 1_555 1_555
N1 Cd1 1_555 1_555
C1 O4 1_555 1_555
C2 C4 1_555 1_555
C3 H1 1_555 1_555
O4 Cd1 1_555 1_555
C4 H2 1_555 1_555
H3 C4 1_555 1_555
C5 C1 1_555 1_555
H4 C5 1_555 1_555
H5 C5 1_555 1_555
C6 N1 1_555 1_555
O5 C2 1_555 1_555
N2 Cd1 1_555 1_555
C7 N1 1_555 1_555
H6 C7 1_555 1_555
C8 C3 1_555 1_555
H7 C8 1_555 1_555
C9 C6 1_555 1_555
C10 N2 1_555 1_555
H8 C10 1_555 1_555
C11 C9 1_555 1_555
H9 C11 1_555 1_555
C12 C7 1_555 1_555
H10 C12 1_555 1_555
C13 C10 1_555 1_555
H11 C13 1_555 1_555
C14 C11 1_555 1_555
H12 C14 1_555 1_555
H13 O2 1_555 1_555
H14 O2 1_555 1_555
Cd1C O3 1_555 1_555
O3C Cd1 1_555 1_555
O5C Cd1 1_555 1_555
C3 C6 1_555 1_555
C4 C5 1_555 1_555
O5 Cd1C 1_555 1_555
N2 C9 1_555 1_555
C8 C12 1_555 1_555
C13 C14 1_555 1_555

#END
