
#######################################################################
#
#                 Cambridge Crystallographic Data Centre
#                                CCDC 
#
#######################################################################
#
# If this CIF has been generated from an entry in the Cambridge 
# Structural Database, then it will include bibliographic, chemical, 
# crystal, experimental, refinement or atomic coordinate data resulting 
# from the CCDC's data processing and validation procedures.
#
#######################################################################

data_WIPDOQ
_symmetry_cell_setting           triclinic
_symmetry_space_group_name_H-M   'P -1'
_symmetry_Int_Tables_number      2
_space_group_name_Hall           '-P 1'
loop_
_symmetry_equiv_pos_site_id
_symmetry_equiv_pos_as_xyz
1 x,y,z
2 -x,-y,-z
_cell_length_a                   8.024(4)
_cell_length_b                   13.168(7)
_cell_length_c                   14.467(8)
_cell_angle_alpha                85.735(13)
_cell_angle_beta                 83.711(11)
_cell_angle_gamma                82.055(12)
_cell_volume                     1502.07
loop_
_atom_site_label
_atom_site_type_symbol
_atom_site_fract_x
_atom_site_fract_y
_atom_site_fract_z
Ag1 Ag 0.61356(14) 1.10282(7) 0.49841(7)
Ag2 Ag 0.53012(16) 1.27072(8) 0.63118(8)
Ag3 Ag 1.03216(17) 0.67113(8) 0.37961(8)
Ag4 Ag 0.72905(17) 0.95772(10) 0.07691(7)
O1 O 0.7547(11) 1.0337(6) 0.6142(5)
O2 O 0.6370(11) 1.1430(6) 0.7223(5)
O3 O 0.4303(11) 1.1986(6) 0.4134(6)
O4 O 0.3293(11) 1.3035(6) 0.5269(6)
O5 O 1.2399(14) 0.6411(7) 0.4852(7)
O6 O 1.1739(12) 0.7638(7) 0.5842(7)
O7 O 0.542(5) 1.234(2) 0.0979(14)
O8 O 0.501(2) 1.233(2) -0.0283(15)
O9 O 0.511(2) 1.1063(12) 0.0504(18)
N1 N 0.5797(12) 1.0674(7) 0.2727(6)
H1 H 0.5519 1.0776 0.2166
H2 H 0.5361 1.1094 0.3142
N2 N 0.9040(12) 0.8859(7) 0.4838(6)
H3 H 0.8616 0.9281 0.5254
H4 H 0.9819 0.8367 0.4966
N3 N 0.7295(12) 0.9732(7) 0.3836(6)
N4 N 0.7518(12) 0.9251(6) 0.2260(6)
N5 N 0.9153(12) 0.8266(6) 0.3364(6)
N6 N 1.4479(15) 0.4354(8) 0.6817(8)
N7 N 0.0742(13) 1.5077(7) 0.3439(7)
N8 N 0.8464(13) 0.9587(8) 0.9323(6)
N9 N 0.5190(18) 1.1946(11) 0.0433(10)
C1 C 0.8502(14) 0.8964(8) 0.4014(7)
C2 C 0.6875(14) 0.9885(8) 0.2946(7)
C3 C 0.8616(15) 0.8419(9) 0.2534(7)
C4 C 0.9288(15) 0.7680(8) 0.1815(7)
C5 C 0.8138(19) 0.7278(10) 0.1340(9)
H5 H 0.6983 0.7469 0.1479
C6 C 0.872(2) 0.6595(10) 0.0663(10)
H6 H 0.7941 0.6315 0.0357
C7 C 1.040(2) 0.6324(9) 0.0435(9)
H7 H 1.0780 0.5876 -0.0034
C8 C 1.1552(19) 0.6723(10) 0.0908(9)
H8 H 1.2704 0.6548 0.0745
C9 C 1.1028(16) 0.7370(8) 0.1611(8)
H9 H 1.1809 0.7601 0.1948
C10 C 1.2376(17) 0.6755(10) 0.5640(9)
C11 C 1.3238(15) 0.6052(9) 0.6369(9)
C12 C 1.3511(17) 0.6394(11) 0.7213(11)
H10 H 1.3212 0.7081 0.7340
C13 C 1.4240(19) 0.5692(10) 0.7868(10)
H11 H 1.4431 0.5899 0.8444
C14 C 0.7302(15) 1.0629(8) 0.6951(8)
C15 C 0.8203(14) 0.9962(7) 0.7705(8)
C16 C 0.9451(15) 0.9172(8) 0.7480(8)
H12 H 0.9770 0.9020 0.6863
C17 C 1.0220(17) 0.8610(10) 0.8198(9)
H13 H 1.1087 0.8080 0.8065
C18 C 0.7752(17) 1.0147(9) 0.8637(8)
H14 H 0.6913 1.0688 0.8786
C19 C 1.3769(19) 0.5049(10) 0.6194(9)
H15 H 1.3633 0.4831 0.5613
C20 C 1.467(2) 0.4697(12) 0.7648(11)
H16 H 1.5113 0.4226 0.8098
C21 C 0.3373(16) 1.2753(9) 0.4444(9)
C22 C 0.2324(14) 1.3428(8) 0.3782(8)
C23 C 0.2104(17) 1.3121(9) 0.2919(9)
H17 H 0.2579 1.2478 0.2725
C24 C 0.1137(18) 1.3816(10) 0.2345(10)
H18 H 0.0908 1.3621 0.1772
C25 C 0.1643(16) 1.4380(9) 0.4011(8)
H19 H 0.1793 1.4579 0.4596
C26 C 0.9727(16) 0.8823(9) 0.9082(8)
H20 H 1.0268 0.8434 0.9552
C27 C 0.0540(17) 1.4762(9) 0.2615(9)
H21 H -0.0043 1.5218 0.2204
Ag2_2 Ag 1.53012(16) 0.27072(8) 0.63118(8)
Ag2A Ag 1.46988(16) 0.72928(8) 0.36882(8)
Ag3_2 Ag 0.03216(17) 1.67113(8) 0.37961(8)
Ag4_2 Ag 0.72905(17) 0.95772(10) 1.07691(7)
O5A O 0.7601(14) 1.3589(7) 0.5148(7)
N6_2 N 0.4479(15) 1.4354(8) 0.6817(8)
N7_2 N 1.0742(13) 0.5077(7) 0.3439(7)
N8_2 N 0.8464(13) 0.9587(8) -0.0677(6)
loop_
_geom_bond_atom_site_label_1
_geom_bond_atom_site_label_2
_geom_bond_site_symmetry_1
_geom_bond_site_symmetry_2
Ag1 Ag2 1_555 1_555
Ag2 O2 1_555 1_555
Ag3 O5 1_555 1_555
Ag4 O9 1_555 1_555
O1 Ag1 1_555 1_555
O2 C14 1_555 1_555
O3 Ag1 1_555 1_555
O4 Ag2 1_555 1_555
O5 C10 1_555 1_555
O6 C10 1_555 1_555
O7 N9 1_555 1_555
O8 N9 1_555 1_555
O9 N9 1_555 1_555
N1 H1 1_555 1_555
H2 N1 1_555 1_555
N2 H3 1_555 1_555
H4 N2 1_555 1_555
N3 Ag1 1_555 1_555
N4 Ag4 1_555 1_555
N5 Ag3 1_555 1_555
N6 C19 1_555 1_555
N7 C25 1_555 1_555
N8 C18 1_555 1_555
C1 N2 1_555 1_555
C2 N1 1_555 1_555
C3 N4 1_555 1_555
C4 C3 1_555 1_555
C5 C4 1_555 1_555
H5 C5 1_555 1_555
C6 C5 1_555 1_555
H6 C6 1_555 1_555
C7 C6 1_555 1_555
H7 C7 1_555 1_555
C8 C7 1_555 1_555
H8 C8 1_555 1_555
C9 C4 1_555 1_555
H9 C9 1_555 1_555
C10 C11 1_555 1_555
C11 C12 1_555 1_555
C12 H10 1_555 1_555
C13 C12 1_555 1_555
H11 C13 1_555 1_555
C14 O1 1_555 1_555
C15 C14 1_555 1_555
C16 C15 1_555 1_555
H12 C16 1_555 1_555
C17 C16 1_555 1_555
H13 C17 1_555 1_555
C18 C15 1_555 1_555
H14 C18 1_555 1_555
C19 C11 1_555 1_555
H15 C19 1_555 1_555
C20 N6 1_555 1_555
H16 C20 1_555 1_555
C21 O3 1_555 1_555
C22 C21 1_555 1_555
C23 C22 1_555 1_555
H17 C23 1_555 1_555
C24 C23 1_555 1_555
H18 C24 1_555 1_555
C25 C22 1_555 1_555
H19 C25 1_555 1_555
C26 N8 1_555 1_555
H20 C26 1_555 1_555
C27 N7 1_555 1_555
H21 C27 1_555 1_555
Ag2_2 N6 1_555 1_555
Ag2A O5 1_555 1_555
Ag3_2 N7 1_555 1_555
Ag4_2 N8 1_555 1_555
O5A Ag2 1_555 1_555
N6_2 Ag2 1_555 1_555
N7_2 Ag3 1_555 1_555
N8_2 Ag4 1_555 1_555
O4 C21 1_555 1_555
N3 C1 1_555 1_555
N3 C2 1_555 1_555
N4 C2 1_555 1_555
N5 C1 1_555 1_555
N5 C3 1_555 1_555
C8 C9 1_555 1_555
C13 C20 1_555 1_555
C17 C26 1_555 1_555
C24 C27 1_555 1_555

#END
