
#######################################################################
#
#                 Cambridge Crystallographic Data Centre
#                                CCDC 
#
#######################################################################
#
# If this CIF has been generated from an entry in the Cambridge 
# Structural Database, then it will include bibliographic, chemical, 
# crystal, experimental, refinement or atomic coordinate data resulting 
# from the CCDC's data processing and validation procedures.
#
#######################################################################

data_WIPDAB
_symmetry_cell_setting           triclinic
_symmetry_space_group_name_H-M   'P -1'
_symmetry_Int_Tables_number      2
_space_group_name_Hall           '-P 1'
loop_
_symmetry_equiv_pos_site_id
_symmetry_equiv_pos_as_xyz
1 x,y,z
2 -x,-y,-z
_cell_length_a                   9.9500(4)
_cell_length_b                   13.4840(5)
_cell_length_c                   16.3670(7)
_cell_angle_alpha                90.6440(10)
_cell_angle_beta                 98.9230(10)
_cell_angle_gamma                90.18(5)
_cell_volume                     2169.15
loop_
_atom_site_label
_atom_site_type_symbol
_atom_site_fract_x
_atom_site_fract_y
_atom_site_fract_z
Ni1 Ni 0.0000 0.0000 0.0000
Ni2 Ni -0.5000 -0.5000 -0.5000
F1 F 0.18300(15) -0.34926(13) -0.34956(10)
F2 F -0.0332(3) -0.11834(19) -0.53554(14)
F3 F 0.6528(2) -0.03873(15) 0.28791(13)
F4 F 0.3045(4) -0.25197(19) 0.3335(2)
C1 C -0.1906(3) -0.5351(2) -0.47270(16)
H1 H -0.1944 -0.5507 -0.5285
C2 C -0.2524(2) -0.50001(18) -0.35912(14)
H2 H -0.3036 -0.4854 -0.3176
C3 C 0.0983(3) -0.07938(19) -0.15920(16)
H3 H 0.1215 -0.0155 -0.1728
C4 C 0.0192(2) -0.19657(18) -0.09774(14)
H4 H -0.0228 -0.2342 -0.0616
C5 C 0.0803(2) -0.33552(17) -0.18689(14)
H5 H 0.0744 -0.3780 -0.1401
H6 H 0.1670 -0.3478 -0.2052
C6 C -0.0188(2) -0.47334(17) -0.27773(14)
H7 H 0.0725 -0.4847 -0.2896
H8 H -0.0309 -0.5126 -0.2301
C7 C -0.0377(2) -0.29765(17) -0.33329(14)
C8 C -0.1488(3) -0.2387(2) -0.36312(17)
H9 H -0.2254 -0.2401 -0.3370
C9 C -0.1481(4) -0.1782(3) -0.4308(2)
H10 H -0.2230 -0.1392 -0.4499
C10 C -0.0354(4) -0.1765(3) -0.4690(2)
C11 C 0.0769(3) -0.2336(2) -0.44303(19)
H11 H 0.1527 -0.2323 -0.4698
C12 C 0.0722(3) -0.29241(19) -0.37590(16)
C13 C -0.0362(2) -0.36252(17) -0.25787(13)
C14 C 0.3065(2) -0.07666(18) 0.04378(16)
H12 H 0.2863 -0.1396 0.0212
C15 C 0.2832(2) 0.07169(18) 0.07804(15)
H13 H 0.2482 0.1343 0.0861
C16 C 0.5345(2) 0.33248(18) 0.36524(15)
H14 H 0.5380 0.3764 0.3222
C17 C 0.5151(3) 0.2700(2) 0.47903(17)
H15 H 0.5010 0.2642 0.5336
C18 C 0.4307(3) 0.02642(18) 0.27532(15)
C19 C 0.5193(4) -0.0525(2) 0.29330(18)
C20 C 0.4799(5) -0.1458(3) 0.3124(2)
H16 H 0.5422 -0.1971 0.3226
C21 C 0.3464(6) -0.1597(3) 0.3157(3)
C22 C 0.2527(5) -0.0863(3) 0.3019(3)
H17 H 0.1621 -0.0981 0.3066
C23 C 0.2960(3) 0.0076(2) 0.2804(2)
H18 H 0.2326 0.0582 0.2693
C24 C 0.4750(2) 0.12273(17) 0.23960(14)
C25 C 0.5194(2) 0.09977(17) 0.15459(14)
H19 H 0.5383 0.1613 0.1283
H20 H 0.6019 0.0606 0.1625
C26 C 0.5945(2) 0.17833(19) 0.29270(15)
H21 H 0.6627 0.1305 0.3149
H22 H 0.6359 0.2229 0.2575
N1 N 0.1265(2) -0.15881(16) -0.20139(14)
N2 N 0.07500(19) -0.23274(14) -0.16064(12)
N3 N 0.03269(19) -0.09878(14) -0.09464(12)
N4 N -0.11790(18) -0.50439(14) -0.34873(11)
N5 N -0.0762(2) -0.52649(19) -0.42211(13)
N6 N -0.3034(2) -0.51952(15) -0.43763(12)
N7 N 0.41213(19) 0.04546(14) 0.10175(12)
N8 N 0.4280(2) -0.05106(15) 0.08036(13)
N9 N 0.21213(19) -0.00391(14) 0.04146(12)
N10 N 0.5097(2) 0.35794(15) 0.44054(12)
N11 N 0.5535(2) 0.23546(15) 0.36097(12)
N12 N 0.5417(3) 0.19260(18) 0.43427(14)
O14 O 0.35945(16) 0.18486(12) 0.22798(10)
H23 H 0.3794 0.2379 0.2088
O15 O -0.16360(15) -0.34792(12) -0.23072(10)
H24 H -0.1673 -0.3817 -0.1898
O16 O 0.04078(19) 0.11714(13) -0.07380(12)
H25 H 0.1166(19) 0.129(2) -0.0889(19)
H26 H -0.018(2) 0.1620(19) -0.0854(19)
O17 O -0.57702(19) -0.57126(16) -0.40457(11)
H27 H -0.545(3) -0.557(2) -0.3549(12)
H28 H -0.655(2) -0.602(2) -0.4068(18)
Ni2_2 Ni 0.5000 0.5000 0.5000
F1A F -0.18300(15) 0.34926(13) 0.34956(10)
F2A F 0.0332(3) 0.11834(19) 0.53554(14)
F3A F -0.6528(2) 0.03873(15) -0.28791(13)
F4A F -0.3045(4) 0.25197(19) -0.3335(2)
C1A C 0.1906(3) 0.5351(2) 0.47270(16)
H1A H 0.1944 0.5507 0.5285
C2A C 0.2524(2) 0.50001(18) 0.35912(14)
H2A H 0.3036 0.4854 0.3176
C3A C -0.0983(3) 0.07938(19) 0.15920(16)
H3A H -0.1215 0.0155 0.1728
C4A C -0.0192(2) 0.19657(18) 0.09774(14)
H4A H 0.0228 0.2342 0.0616
C5A C -0.0803(2) 0.33552(17) 0.18689(14)
H5A H -0.0744 0.3780 0.1401
H6A H -0.1670 0.3478 0.2052
C6A C 0.0188(2) 0.47334(17) 0.27773(14)
H7A H -0.0725 0.4847 0.2896
H8A H 0.0309 0.5126 0.2301
C7A C 0.0377(2) 0.29765(17) 0.33329(14)
C8A C 0.1488(3) 0.2387(2) 0.36312(17)
H9A H 0.2254 0.2401 0.3370
C9A C 0.1481(4) 0.1782(3) 0.4308(2)
H10A H 0.2230 0.1392 0.4499
C10A C 0.0354(4) 0.1765(3) 0.4690(2)
C11A C -0.0769(3) 0.2336(2) 0.44303(19)
H11A H -0.1527 0.2323 0.4698
C12A C -0.0722(3) 0.29241(19) 0.37590(16)
C13A C 0.0362(2) 0.36252(17) 0.25787(13)
C14A C -0.3065(2) 0.07666(18) -0.04378(16)
H12A H -0.2863 0.1396 -0.0212
C15A C -0.2832(2) -0.07169(18) -0.07804(15)
H13A H -0.2482 -0.1343 -0.0861
C16A C -0.5345(2) -0.33248(18) -0.36524(15)
H14A H -0.5380 -0.3764 -0.3222
C17A C -0.5151(3) -0.2700(2) -0.47903(17)
H15A H -0.5010 -0.2642 -0.5336
C18A C -0.4307(3) -0.02642(18) -0.27532(15)
C19A C -0.5193(4) 0.0525(2) -0.29330(18)
C20A C -0.4799(5) 0.1458(3) -0.3124(2)
H16A H -0.5422 0.1971 -0.3226
C21A C -0.3464(6) 0.1597(3) -0.3157(3)
C22A C -0.2527(5) 0.0863(3) -0.3019(3)
H17A H -0.1621 0.0981 -0.3066
C23A C -0.2960(3) -0.0076(2) -0.2804(2)
H18A H -0.2326 -0.0582 -0.2693
C24A C -0.4750(2) -0.12273(17) -0.23960(14)
C25A C -0.5194(2) -0.09977(17) -0.15459(14)
H19A H -0.5383 -0.1613 -0.1283
H20A H -0.6019 -0.0606 -0.1625
C26A C -0.5945(2) -0.17833(19) -0.29270(15)
H21A H -0.6627 -0.1305 -0.3149
H22A H -0.6359 -0.2229 -0.2575
N1A N -0.1265(2) 0.15881(16) 0.20139(14)
N2A N -0.07500(19) 0.23274(14) 0.16064(12)
N3A N -0.03269(19) 0.09878(14) 0.09464(12)
N4A N 0.11790(18) 0.50439(14) 0.34873(11)
N5A N 0.0762(2) 0.52649(19) 0.42211(13)
N6A N 0.3034(2) 0.51952(15) 0.43763(12)
N6A_2 N -0.6966(2) -0.48048(15) -0.56237(12)
N7A N -0.41213(19) -0.04546(14) -0.10175(12)
N8A N -0.4280(2) 0.05106(15) -0.08036(13)
N9A N -0.21213(19) 0.00391(14) -0.04146(12)
N10A N -0.5097(2) -0.35794(15) -0.44054(12)
N10_2 N -0.4903(2) -0.64206(15) -0.55946(12)
N11A N -0.5535(2) -0.23546(15) -0.36097(12)
N12A N -0.5417(3) -0.19260(18) -0.43427(14)
O14A O -0.35945(16) -0.18486(12) -0.22798(10)
H23A H -0.3794 -0.2379 -0.2088
O15A O 0.16360(15) 0.34792(12) 0.23072(10)
H24A H 0.1673 0.3817 0.1898
O16A O -0.04078(19) -0.11714(13) 0.07380(12)
H25A H -0.1166(19) -0.129(2) 0.0889(19)
H26A H 0.018(2) -0.1620(19) 0.0854(19)
O17A O -0.42298(19) -0.42874(16) -0.59543(11)
H27A H -0.455(3) -0.443(2) -0.6451(12)
H28A H -0.345(2) -0.398(2) -0.5932(18)
Mo1 Mo 0.534981(19) 0.388466(13) 0.054802(11)
Mo2 Mo 0.75730(2) 0.368315(16) -0.086665(13)
Mo3 Mo 0.77867(2) 0.570445(16) 0.023049(13)
Mo4 Mo 0.55643(2) 0.591840(15) 0.161600(12)
O1 O 0.8562(2) 0.26561(15) -0.08489(13)
O2 O 0.7949(2) 0.43765(15) -0.16566(12)
O3 O 0.47841(18) 0.33202(13) 0.13545(10)
O4 O 0.58444(18) 0.31610(12) -0.13878(10)
O5 O 0.65793(17) 0.30946(12) 0.02570(11)
O6 O 0.84944(16) 0.44408(14) 0.00550(11)
O7 O 0.66026(15) 0.48531(12) 0.11439(9)
O8 O 0.39044(16) 0.35452(11) -0.03499(10)
O9 O 0.59273(15) 0.48282(11) -0.05302(9)
O10 O 0.88569(19) 0.61407(17) 0.10594(12)
O11 O 0.81799(19) 0.63420(15) -0.05926(12)
O12 O 0.6836(2) 0.66451(15) 0.21126(12)
O13 O 0.50268(19) 0.52321(14) 0.23795(10)
Mo1A Mo 0.465019(19) 0.611534(13) -0.054802(11)
Mo2A Mo 0.24270(2) 0.631685(16) 0.086665(13)
Mo3A Mo 0.22133(2) 0.429555(16) -0.023049(13)
Mo4A Mo 0.44357(2) 0.408160(15) -0.161600(12)
O1A O 0.1438(2) 0.73439(15) 0.08489(13)
O2A O 0.2051(2) 0.56235(15) 0.16566(12)
O3A O 0.52159(18) 0.66798(13) -0.13545(10)
O4A O 0.41556(18) 0.68390(12) 0.13878(10)
O5A O 0.34207(17) 0.69054(12) -0.02570(11)
O6A O 0.15056(16) 0.55592(14) -0.00550(11)
O7A O 0.33974(15) 0.51469(12) -0.11439(9)
O8A O 0.60956(16) 0.64548(11) 0.03499(10)
O9A O 0.40727(15) 0.51718(11) 0.05302(9)
O10A O 0.11431(19) 0.38593(17) -0.10594(12)
O11A O 0.18201(19) 0.36580(15) 0.05926(12)
O12A O 0.3164(2) 0.33549(15) -0.21126(12)
O13A O 0.49732(19) 0.47679(14) -0.23795(10)
O18 O 0.8209(2) 0.6483(2) 0.39268(18)
H29 H 0.895(3) 0.621(3) 0.417(2)
H30 H 0.831(4) 0.686(3) 0.353(2)
O19 O 0.9743(7) 0.7249(5) 0.2640(4)
H31 H 1.047(7) 0.739(7) 0.243(7)
H32 H 0.929(9) 0.781(4) 0.269(7)
O20 O 0.7062(2) 0.85608(18) 0.1145(2)
H33 H 0.622(3) 0.868(3) 0.092(3)
H34 H 0.706(4) 0.800(2) 0.140(3)
loop_
_geom_bond_atom_site_label_1
_geom_bond_atom_site_label_2
_geom_bond_site_symmetry_1
_geom_bond_site_symmetry_2
Ni1 N3 1_555 1_555
Ni2 N6 1_555 1_555
Mo1 O3 1_555 1_555
Mo2 O1 1_555 1_555
Mo3 O6 1_555 1_555
Mo4 O7 1_555 1_555
F1 C12 1_555 1_555
F2 C10 1_555 1_555
F3 C19 1_555 1_555
F4 C21 1_555 1_555
C1 H1 1_555 1_555
C2 H2 1_555 1_555
C3 H3 1_555 1_555
C4 H4 1_555 1_555
C5 H5 1_555 1_555
H6 C5 1_555 1_555
C6 H7 1_555 1_555
H8 C6 1_555 1_555
C7 C8 1_555 1_555
C8 H9 1_555 1_555
C9 C8 1_555 1_555
H10 C9 1_555 1_555
C10 C9 1_555 1_555
C11 C10 1_555 1_555
H11 C11 1_555 1_555
C12 C7 1_555 1_555
C13 C5 1_555 1_555
C14 H12 1_555 1_555
C15 H13 1_555 1_555
C16 H14 1_555 1_555
C17 H15 1_555 1_555
C18 C19 1_555 1_555
C19 C20 1_555 1_555
C20 H16 1_555 1_555
C21 C20 1_555 1_555
C22 C21 1_555 1_555
H17 C22 1_555 1_555
C23 C18 1_555 1_555
H18 C23 1_555 1_555
C24 C18 1_555 1_555
C25 C24 1_555 1_555
H19 C25 1_555 1_555
H20 C25 1_555 1_555
C26 C24 1_555 1_555
H21 C26 1_555 1_555
H22 C26 1_555 1_555
N1 C3 1_555 1_555
N2 C4 1_555 1_555
N3 C3 1_555 1_555
N4 C2 1_555 1_555
N5 C1 1_555 1_555
N6 C1 1_555 1_555
N7 C15 1_555 1_555
N8 C14 1_555 1_555
N9 Ni1 1_555 1_555
N10 C16 1_555 1_555
N11 C16 1_555 1_555
N12 C17 1_555 1_555
O2 Mo2 1_555 1_555
O4 Mo2 1_555 1_555
O5 Mo1 1_555 1_555
O6 Mo2 1_555 1_555
O7 Mo1 1_555 1_555
O8 Mo1 1_555 1_555
O9 Mo1 1_555 1_555
O10 Mo3 1_555 1_555
O11 Mo3 1_555 1_555
O12 Mo4 1_555 1_555
O13 Mo4 1_555 1_555
O14 C24 1_555 1_555
H23 O14 1_555 1_555
O15 C13 1_555 1_555
H24 O15 1_555 1_555
O16 Ni1 1_555 1_555
H25 O16 1_555 1_555
H26 O16 1_555 1_555
O17 Ni2 1_555 1_555
H27 O17 1_555 1_555
H28 O17 1_555 1_555
O18 H29 1_555 1_555
H30 O18 1_555 1_555
O19 H31 1_555 1_555
H32 O19 1_555 1_555
O20 H33 1_555 1_555
H34 O20 1_555 1_555
Ni2_2 N10 1_555 1_555
Mo1A O9 1_555 1_555
Mo2A O1A 1_555 1_555
Mo3A O8 1_555 1_555
Mo4A O4 1_555 1_555
F1A C12A 1_555 1_555
F2A C10A 1_555 1_555
F3A C19A 1_555 1_555
F4A C21A 1_555 1_555
C1A H1A 1_555 1_555
C2A H2A 1_555 1_555
C3A H3A 1_555 1_555
C4A H4A 1_555 1_555
C5A H5A 1_555 1_555
H6A C5A 1_555 1_555
C6A H7A 1_555 1_555
H8A C6A 1_555 1_555
C7A C8A 1_555 1_555
C8A H9A 1_555 1_555
C9A C8A 1_555 1_555
H10A C9A 1_555 1_555
C10A C9A 1_555 1_555
C11A C10A 1_555 1_555
H11A C11A 1_555 1_555
C12A C7A 1_555 1_555
C13A C5A 1_555 1_555
C14A H12A 1_555 1_555
C15A H13A 1_555 1_555
C16A H14A 1_555 1_555
C17A H15A 1_555 1_555
C18A C19A 1_555 1_555
C19A C20A 1_555 1_555
C20A H16A 1_555 1_555
C21A C20A 1_555 1_555
C22A C21A 1_555 1_555
H17A C22A 1_555 1_555
C23A C18A 1_555 1_555
H18A C23A 1_555 1_555
C24A C18A 1_555 1_555
C25A C24A 1_555 1_555
H19A C25A 1_555 1_555
H20A C25A 1_555 1_555
C26A C24A 1_555 1_555
H21A C26A 1_555 1_555
H22A C26A 1_555 1_555
N1A C3A 1_555 1_555
N2A C4A 1_555 1_555
N3A Ni1 1_555 1_555
N4A C2A 1_555 1_555
N5A C1A 1_555 1_555
N6A Ni2_2 1_555 1_555
N6A_2 Ni2 1_555 1_555
N7A C15A 1_555 1_555
N8A C14A 1_555 1_555
N9A Ni1 1_555 1_555
N10A Ni2 1_555 1_555
N10_2 Ni2 1_555 1_555
N11A C16A 1_555 1_555
N12A C17A 1_555 1_555
O2A Mo2A 1_555 1_555
O3A Mo1A 1_555 1_555
O4A Mo4 1_555 1_555
O5A Mo1A 1_555 1_555
O6A Mo2A 1_555 1_555
O7A Mo1A 1_555 1_555
O8A Mo3 1_555 1_555
O9A Mo1 1_555 1_555
O10A Mo3A 1_555 1_555
O11A Mo3A 1_555 1_555
O12A Mo4A 1_555 1_555
O13A Mo4A 1_555 1_555
O14A C24A 1_555 1_555
H23A O14A 1_555 1_555
O15A C13A 1_555 1_555
H24A O15A 1_555 1_555
O16A Ni1 1_555 1_555
H25A O16A 1_555 1_555
H26A O16A 1_555 1_555
O17A Ni2 1_555 1_555
H27A O17A 1_555 1_555
H28A O17A 1_555 1_555
Mo2 O5 1_555 1_555
Mo2 O9 1_555 1_555
Mo3 O7 1_555 1_555
Mo3 O9 1_555 1_555
Mo4 O8A 1_555 1_555
Mo4 O9A 1_555 1_555
C2 N6 1_555 1_555
C4 N3 1_555 1_555
C5 N2 1_555 1_555
C6 C13 1_555 1_555
C6 N4 1_555 1_555
C7 C13 1_555 1_555
C11 C12 1_555 1_555
C14 N9 1_555 1_555
C15 N9 1_555 1_555
C17 N10 1_555 1_555
C22 C23 1_555 1_555
C25 N7 1_555 1_555
C26 N11 1_555 1_555
N1 N2 1_555 1_555
N4 N5 1_555 1_555
N7 N8 1_555 1_555
N11 N12 1_555 1_555
O8 Mo4A 1_555 1_555
O9 Mo4A 1_555 1_555
Mo1A O8A 1_555 1_555
Mo1A O9A 1_555 1_555
Mo2A O4A 1_555 1_555
Mo2A O5A 1_555 1_555
Mo2A O9A 1_555 1_555
Mo3A O6A 1_555 1_555
Mo3A O7A 1_555 1_555
Mo3A O9A 1_555 1_555
Mo4A O7A 1_555 1_555
C1A N6A 1_555 1_555
C2A N6A 1_555 1_555
C3A N3A 1_555 1_555
C4A N3A 1_555 1_555
C5A N2A 1_555 1_555
C6A C13A 1_555 1_555
C6A N4A 1_555 1_555
C7A C13A 1_555 1_555
C11A C12A 1_555 1_555
C14A N9A 1_555 1_555
C15A N9A 1_555 1_555
C16A N10A 1_555 1_555
C17A N10A 1_555 1_555
C22A C23A 1_555 1_555
C25A N7A 1_555 1_555
C26A N11A 1_555 1_555
N1A N2A 1_555 1_555
N4A N5A 1_555 1_555
N7A N8A 1_555 1_555
N11A N12A 1_555 1_555

#END
