
#######################################################################
#
#                 Cambridge Crystallographic Data Centre
#                                CCDC 
#
#######################################################################
#
# If this CIF has been generated from an entry in the Cambridge 
# Structural Database, then it will include bibliographic, chemical, 
# crystal, experimental, refinement or atomic coordinate data resulting 
# from the CCDC's data processing and validation procedures.
#
#######################################################################

data_WIPFIM
_symmetry_cell_setting           orthorhombic
_symmetry_space_group_name_H-M   'P 21 21 2'
_symmetry_Int_Tables_number      18
_space_group_name_Hall           'P 2 2ab'
loop_
_symmetry_equiv_pos_site_id
_symmetry_equiv_pos_as_xyz
1 x,y,z
2 -x,-y,z
3 1/2-x,1/2+y,-z
4 1/2+x,1/2-y,-z
_cell_length_a                   26.570(6)
_cell_length_b                   12.472(3)
_cell_length_c                   18.622(4)
_cell_angle_alpha                90
_cell_angle_beta                 90
_cell_angle_gamma                90
_cell_volume                     6170.98
loop_
_atom_site_label
_atom_site_type_symbol
_atom_site_fract_x
_atom_site_fract_y
_atom_site_fract_z
Ni1 Ni 0.78780(5) 0.49571(11) 0.54641(7)
Ni2 Ni 0.83399(6) -0.03875(11) 1.03333(8)
P1 P 0.90057(16) -0.2177(3) 0.93692(19)
P2 P 0.84045(15) -0.6489(3) 1.1291(2)
N1 N 0.7886(4) 0.5879(7) 0.4501(5)
N2 N 0.7961(4) 0.4022(7) 0.6407(5)
N3 N 0.8270(4) 0.0665(7) 0.9451(5)
N4 N 0.8364(4) 0.8635(7) 0.1247(5)
N5 N 0.8662(3) 0.4879(7) 0.5367(5)
O1 O 0.8911(3) -0.1200(6) 0.9832(4)
O2 O 0.7688(3) 0.3562(5) 0.4883(4)
H1 H 0.7826 0.3835 0.5252
H2 H 0.7966 0.3283 0.4758
O3 O 0.9210(4) -0.1793(8) 0.8619(5)
H3 H 0.8995 -0.1430 0.8418
O4 O 0.7117(3) 0.5057(5) 0.5634(3)
H4 H 0.6918 0.5215 0.5975
H5 H 0.6960 0.4734 0.5300
O5 O 0.8534(3) -0.2880(7) 0.9282(5)
O6 O 0.7921(3) 0.6327(5) 0.6112(3)
H6 H 0.7673 0.6754 0.6080
H7 H 0.8167 0.6761 0.6084
O7 O 0.8160(4) -0.5845(6) 1.1926(4)
H8 H 0.8194 -0.6182 1.2301
O8 O 0.8889(3) 0.0642(5) 1.0800(4)
H9 H 0.8771 0.0582 1.0377
H10 H 0.8846 0.1041 1.1165
O9 O 0.8365(4) -0.7706(5) 1.1448(4)
O10 O 0.7810(3) -0.1429(5) 0.9896(4)
H11 H 0.7877 -0.1791 0.9521
H12 H 0.7562 -0.1202 0.9650
O11 O 0.8136(3) -0.6145(6) 1.0604(5)
O12 O 0.7801(3) 0.0578(6) 1.0871(4)
H13 H 0.7518 0.0278 1.0804
H14 H 0.7892 -0.0065 1.0950
C1 C 0.8165(5) 0.6777(9) 0.4479(7)
H15 H 0.8291 0.7032 0.4912
C2 C 0.8278(5) 0.7338(9) 0.3883(6)
H16 H 0.8458 0.7976 0.3915
C3 C 0.8123(4) 0.6960(9) 0.3231(6)
C4 C 0.7848(5) 0.5988(9) 0.3229(6)
H17 H 0.7743 0.5687 0.2798
C5 C 0.7741(5) 0.5503(10) 0.3858(7)
H18 H 0.7556 0.4871 0.3845
C6 C 0.7825(5) 0.4345(9) 0.7040(7)
H19 H 0.7675 0.5016 0.7080
C7 C 0.7892(5) 0.3741(9) 0.7667(6)
H20 H 0.7787 0.4012 0.8108
C8 C 0.8112(5) 0.2749(9) 0.7627(7)
C9 C 0.8265(5) 0.2407(10) 0.6953(6)
H21 H 0.8423 0.1746 0.6894
C10 C 0.8178(5) 0.3068(10) 0.6371(7)
H22 H 0.8280 0.2825 0.5922
C11 C 0.8184(5) 0.2034(9) 0.8252(6)
C12 C 0.8199(5) 0.2403(9) 0.8944(7)
H23 H 0.8183 0.3138 0.9024
C13 C 0.8236(5) 0.1717(9) 0.9533(7)
H24 H 0.8238 0.2005 0.9993
C14 C 0.8259(5) 0.0313(9) 0.8759(7)
H25 H 0.8296 -0.0418 0.8678
C15 C 0.8198(5) 0.0944(9) 0.8195(6)
H26 H 0.8162 0.0634 0.7744
C16 C 0.8384(5) 0.9130(9) 0.1904(7)
H27 H 0.8436 0.9867 0.1919
C17 C 0.8332(5) 0.8604(9) 0.2524(6)
H28 H 0.8367 0.8976 0.2954
C18 C 0.8226(5) 0.7511(8) 0.2541(6)
C19 C 0.8219(5) 0.7040(9) 0.1864(6)
H29 H 0.8159 0.6307 0.1828
C20 C 0.8296(5) 0.7604(8) 0.1262(6)
H30 H 0.8302 0.7235 0.0828
C21 C 0.8920(4) 0.4670(8) 0.4761(7)
H31 H 0.8736 0.4491 0.4352
C22 C 0.9430(4) 0.4704(8) 0.4703(6)
H32 H 0.9586 0.4551 0.4268
C23 C 0.9714(4) 0.4969(9) 0.5300(6)
C24 C 0.9449(5) 0.5206(10) 0.5915(7)
H33 H 0.9621 0.5424 0.6325
C25 C 0.8942(5) 0.5126(10) 0.5931(6)
H34 H 0.8780 0.5253 0.6365
C26 C 0.9517(5) -0.2945(10) 0.9686(7)
H35 H 0.9588 -0.3501 0.9335
H36 H 0.9811 -0.2484 0.9710
C27 C 0.9446(5) -0.3479(9) 1.0421(8)
C28 C 0.9282(4) -0.4570(9) 1.0507(6)
C29 C 0.9228(5) -0.5047(10) 1.1189(7)
C30 C 0.9345(5) -0.4464(10) 1.1794(7)
C31 C 0.9524(5) -0.3399(11) 1.1762(7)
H37 H 0.9603 -0.3019 1.2177
C32 C 0.9579(5) -0.2918(10) 1.1052(8)
C33 C 0.9762(5) -0.1743(9) 1.1060(7)
H38 H 1.0048 -0.1670 1.0749
H39 H 0.9855 -0.1546 1.1540
H40 H 0.9497 -0.1282 1.0896
C34 C 0.9304(5) -0.4864(11) 1.2567(7)
H41 H 0.9474 -0.4375 1.2882
H42 H 0.9456 -0.5561 1.2605
H43 H 0.8956 -0.4909 1.2702
C35 C 0.9089(5) -0.6175(10) 1.1272(7)
H44 H 0.9237 -0.6436 1.1715
H45 H 0.9240 -0.6574 1.0881
C36 C 0.9196(5) -0.5230(10) 0.9845(7)
H46 H 0.9488 -0.5658 0.9749
H47 H 0.9133 -0.4765 0.9444
H48 H 0.8911 -0.5690 0.9917
N5A N 1.1338(3) 0.5121(7) 0.5367(5)
C21A C 1.1080(4) 0.5330(8) 0.4761(7)
H31A H 1.1264 0.5509 0.4352
C22A C 1.0570(4) 0.5296(8) 0.4703(6)
H32A H 1.0414 0.5449 0.4268
C23A C 1.0286(4) 0.5031(9) 0.5300(6)
C24A C 1.0551(5) 0.4794(10) 0.5915(7)
H33A H 1.0379 0.4576 0.6325
C25A C 1.1058(5) 0.4874(10) 0.5931(6)
H34A H 1.1220 0.4747 0.6365
Ni1A Ni 1.21220(5) 0.50429(11) 0.54641(7)
Ni2A Ni 1.16601(6) 1.03875(11) 1.03333(8)
P1A P 1.09943(16) 1.2177(3) 0.93692(19)
P2A P 1.15955(15) 1.6489(3) 1.1291(2)
N1A N 1.2114(4) 0.4121(7) 0.4501(5)
N2A N 1.2039(4) 0.5978(7) 0.6407(5)
N3A N 1.1730(4) 0.9335(7) 0.9451(5)
N4A N 1.1636(4) 0.1365(7) 0.1247(5)
O1A O 1.1089(3) 1.1200(6) 0.9832(4)
O2A O 1.2312(3) 0.6438(5) 0.4883(4)
H1A H 1.2174 0.6165 0.5252
H2A H 1.2034 0.6717 0.4758
O3A O 1.0790(4) 1.1793(8) 0.8619(5)
H3A H 1.1005 1.1430 0.8418
O4A O 1.2883(3) 0.4943(5) 0.5634(3)
H4A H 1.3082 0.4785 0.5975
H5A H 1.3040 0.5266 0.5300
O5A O 1.1466(3) 1.2880(7) 0.9282(5)
O6A O 1.2079(3) 0.3673(5) 0.6112(3)
H6A H 1.2327 0.3246 0.6080
H7A H 1.1833 0.3239 0.6084
O7A O 1.1840(4) 1.5845(6) 1.1926(4)
H8A H 1.1806 1.6182 1.2301
O8A O 1.1111(3) 0.9358(5) 1.0800(4)
H9A H 1.1229 0.9418 1.0377
H10A H 1.1154 0.8959 1.1165
O9A O 1.1635(4) 1.7706(5) 1.1448(4)
O10A O 1.2190(3) 1.1429(5) 0.9896(4)
H11A H 1.2123 1.1791 0.9521
H12A H 1.2438 1.1202 0.9650
O11A O 1.1864(3) 1.6145(6) 1.0604(5)
O12A O 1.2199(3) 0.9422(6) 1.0871(4)
H13A H 1.2482 0.9722 1.0804
H14A H 1.2108 1.0065 1.0950
C1A C 1.1835(5) 0.3223(9) 0.4479(7)
H15A H 1.1709 0.2968 0.4912
C2A C 1.1722(5) 0.2662(9) 0.3883(6)
H16A H 1.1542 0.2024 0.3915
C3A C 1.1877(4) 0.3040(9) 0.3231(6)
C4A C 1.2152(5) 0.4012(9) 0.3229(6)
H17A H 1.2257 0.4313 0.2798
C5A C 1.2259(5) 0.4497(10) 0.3858(7)
H18A H 1.2444 0.5129 0.3845
C6A C 1.2175(5) 0.5655(9) 0.7040(7)
H19A H 1.2325 0.4984 0.7080
C7A C 1.2108(5) 0.6259(9) 0.7667(6)
H20A H 1.2213 0.5988 0.8108
C8A C 1.1888(5) 0.7251(9) 0.7627(7)
C9A C 1.1735(5) 0.7593(10) 0.6953(6)
H21A H 1.1577 0.8254 0.6894
C10A C 1.1822(5) 0.6932(10) 0.6371(7)
H22A H 1.1720 0.7175 0.5922
C11A C 1.1816(5) 0.7966(9) 0.8252(6)
C12A C 1.1801(5) 0.7597(9) 0.8944(7)
H23A H 1.1817 0.6862 0.9024
C13A C 1.1764(5) 0.8283(9) 0.9533(7)
H24A H 1.1762 0.7995 0.9993
C14A C 1.1741(5) 0.9687(9) 0.8759(7)
H25A H 1.1704 1.0418 0.8678
C15A C 1.1802(5) 0.9056(9) 0.8195(6)
H26A H 1.1838 0.9366 0.7744
C16A C 1.1616(5) 0.0870(9) 0.1904(7)
H27A H 1.1564 0.0133 0.1919
C17A C 1.1668(5) 0.1396(9) 0.2524(6)
H28A H 1.1633 0.1024 0.2954
C18A C 1.1774(5) 0.2489(8) 0.2541(6)
C19A C 1.1781(5) 0.2960(9) 0.1864(6)
H29A H 1.1841 0.3693 0.1828
C20A C 1.1704(5) 0.2396(8) 0.1262(6)
H30A H 1.1698 0.2765 0.0828
C26A C 1.0483(5) 1.2945(10) 0.9686(7)
H35A H 1.0412 1.3501 0.9335
H36A H 1.0189 1.2484 0.9710
C27A C 1.0554(5) 1.3479(9) 1.0421(8)
C28A C 1.0718(4) 1.4570(9) 1.0507(6)
C29A C 1.0772(5) 1.5047(10) 1.1189(7)
C30A C 1.0655(5) 1.4464(10) 1.1794(7)
C31A C 1.0476(5) 1.3399(11) 1.1762(7)
H37A H 1.0397 1.3019 1.2177
C32A C 1.0421(5) 1.2918(10) 1.1052(8)
C33A C 1.0238(5) 1.1743(9) 1.1060(7)
H38A H 0.9952 1.1670 1.0749
H39A H 1.0145 1.1546 1.1540
H40A H 1.0503 1.1282 1.0896
C34A C 1.0696(5) 1.4864(11) 1.2567(7)
H41A H 1.0526 1.4375 1.2882
H42A H 1.0544 1.5561 1.2605
H43A H 1.1044 1.4909 1.2702
C35A C 1.0911(5) 1.6175(10) 1.1272(7)
H44A H 1.0763 1.6436 1.1715
H45A H 1.0760 1.6574 1.0881
C36A C 1.0804(5) 1.5230(10) 0.9845(7)
H46A H 1.0512 1.5658 0.9749
H47A H 1.0867 1.4765 0.9444
H48A H 1.1089 1.5690 0.9917
Ni2_2 Ni 0.83399(6) 0.96125(11) 0.03333(8)
Ni2A_2 Ni 1.16601(6) 0.03875(11) 0.03333(8)
N4_2 N 0.8364(4) -0.1365(7) 1.1247(5)
N4A_2 N 1.1636(4) 1.1365(7) 1.1247(5)
P3 P 0.84081(15) 0.2353(2) 0.34021(19)
P4 P 0.86751(15) -0.1209(3) 0.5993(2)
O13 O 0.8274(3) 0.1582(6) 0.2758(4)
H49 H 0.8322 0.1895 0.2376
O14 O 0.8400(4) 0.3534(6) 0.3178(4)
O15 O 0.8071(3) 0.2090(6) 0.4032(4)
O16 O 0.8736(3) -0.2372(6) 0.6194(4)
O17 O 0.8597(4) -0.0521(7) 0.6691(5)
H50 H 0.8417 -0.0850 0.6973
O18 O 0.8255(3) -0.1008(6) 0.5481(4)
C37 C 0.9060(4) 0.2061(8) 0.3653(6)
H51 H 0.9273 0.2199 0.3240
H52 H 0.9160 0.2557 0.4028
C38 C 0.9167(4) 0.0910(9) 0.3919(7)
C39 C 0.9134(4) 0.0652(8) 0.4652(7)
C40 C 0.9288(5) -0.0403(11) 0.4866(8)
C41 C 0.9408(5) -0.1148(10) 0.4351(9)
C42 C 0.9442(5) -0.0860(10) 0.3639(9)
H53 H 0.9545 -0.1372 0.3306
C43 C 0.9327(4) 0.0169(10) 0.3399(7)
C44 C 0.9383(5) 0.0453(11) 0.2643(7)
H54 H 0.9098 0.0868 0.2492
H55 H 0.9404 -0.0188 0.2360
H56 H 0.9684 0.0868 0.2580
C45 C 0.9574(5) -0.2285(9) 0.4532(8)
H57 H 0.9897 -0.2265 0.4763
H58 H 0.9598 -0.2698 0.4098
H59 H 0.9332 -0.2608 0.4847
C46 C 0.9271(5) -0.0652(10) 0.5650(8)
H60 H 0.9343 0.0001 0.5913
H61 H 0.9538 -0.1158 0.5756
C47 C 0.8975(5) 0.1465(9) 0.5206(7)
H62 H 0.8710 0.1172 0.5495
H63 H 0.8857 0.2101 0.4969
H64 H 0.9257 0.1641 0.5507
O19 O 0.9533(3) 0.0536(7) 0.9596(6)
O20 O 0.7031(4) 0.0721(8) 0.0018(6)
O21 O 0.7842(5) 0.8486(11) 0.7467(7)
O22 O 0.9648(8) 0.1627(18) 0.8383(10)
O23 O 0.8036(8) 0.6562(14) 0.8078(8)
O24 O 0.9175(10) 0.7006(12) 0.7380(8)
O25 O 0.9397(8) 0.001(2) 0.7633(11)
loop_
_geom_bond_atom_site_label_1
_geom_bond_atom_site_label_2
_geom_bond_site_symmetry_1
_geom_bond_site_symmetry_2
Ni1 N1 1_555 1_555
Ni2 N3 1_555 1_555
P1 O1 1_555 1_555
P2 O7 1_555 1_555
N1 C1 1_555 1_555
N2 Ni1 1_555 1_555
N3 C13 1_555 1_555
N4 C16 1_555 1_555
N5 Ni1 1_555 1_555
O1 Ni2 1_555 1_555
O2 Ni1 1_555 1_555
H1 O2 1_555 1_555
H2 O2 1_555 1_555
O3 P1 1_555 1_555
H3 O3 1_555 1_555
O4 Ni1 1_555 1_555
H4 O4 1_555 1_555
H5 O4 1_555 1_555
O5 P1 1_555 1_555
O6 Ni1 1_555 1_555
H6 O6 1_555 1_555
H7 O6 1_555 1_555
O7 H8 1_555 1_555
O8 Ni2 1_555 1_555
H9 O8 1_555 1_555
H10 O8 1_555 1_555
O9 P2 1_555 1_555
O10 Ni2 1_555 1_555
H11 O10 1_555 1_555
H12 O10 1_555 1_555
O11 P2 1_555 1_555
O12 Ni2 1_555 1_555
H13 O12 1_555 1_555
H14 O12 1_555 1_555
C1 H15 1_555 1_555
C2 C1 1_555 1_555
H16 C2 1_555 1_555
C3 C2 1_555 1_555
C4 C3 1_555 1_555
H17 C4 1_555 1_555
C5 N1 1_555 1_555
H18 C5 1_555 1_555
C6 N2 1_555 1_555
H19 C6 1_555 1_555
C7 C6 1_555 1_555
H20 C7 1_555 1_555
C8 C7 1_555 1_555
C9 C8 1_555 1_555
H21 C9 1_555 1_555
C10 N2 1_555 1_555
H22 C10 1_555 1_555
C11 C8 1_555 1_555
C12 C11 1_555 1_555
H23 C12 1_555 1_555
C13 C12 1_555 1_555
H24 C13 1_555 1_555
C14 N3 1_555 1_555
H25 C14 1_555 1_555
C15 C11 1_555 1_555
H26 C15 1_555 1_555
C16 H27 1_555 1_555
C17 C16 1_555 1_555
H28 C17 1_555 1_555
C18 C3 1_555 1_555
C19 C18 1_555 1_555
H29 C19 1_555 1_555
C20 N4 1_555 1_555
H30 C20 1_555 1_555
C21 N5 1_555 1_555
H31 C21 1_555 1_555
C22 C21 1_555 1_555
H32 C22 1_555 1_555
C23 C22 1_555 1_555
C24 C23 1_555 1_555
H33 C24 1_555 1_555
C25 N5 1_555 1_555
H34 C25 1_555 1_555
C26 P1 1_555 1_555
H35 C26 1_555 1_555
H36 C26 1_555 1_555
C27 C26 1_555 1_555
C28 C27 1_555 1_555
C29 C28 1_555 1_555
C30 C29 1_555 1_555
C31 C30 1_555 1_555
H37 C31 1_555 1_555
C32 C27 1_555 1_555
C33 C32 1_555 1_555
H38 C33 1_555 1_555
H39 C33 1_555 1_555
H40 C33 1_555 1_555
C34 C30 1_555 1_555
H41 C34 1_555 1_555
H42 C34 1_555 1_555
H43 C34 1_555 1_555
C35 P2 1_555 1_555
H44 C35 1_555 1_555
H45 C35 1_555 1_555
C36 C28 1_555 1_555
H46 C36 1_555 1_555
H47 C36 1_555 1_555
H48 C36 1_555 1_555
P3 O13 1_555 1_555
P4 O16 1_555 1_555
O13 H49 1_555 1_555
O14 P3 1_555 1_555
O15 P3 1_555 1_555
O17 P4 1_555 1_555
H50 O17 1_555 1_555
O18 P4 1_555 1_555
C37 P3 1_555 1_555
H51 C37 1_555 1_555
H52 C37 1_555 1_555
C38 C37 1_555 1_555
C39 C38 1_555 1_555
C40 C39 1_555 1_555
C41 C40 1_555 1_555
C42 C41 1_555 1_555
H53 C42 1_555 1_555
C43 C38 1_555 1_555
C44 C43 1_555 1_555
H54 C44 1_555 1_555
H55 C44 1_555 1_555
H56 C44 1_555 1_555
C45 C41 1_555 1_555
H57 C45 1_555 1_555
H58 C45 1_555 1_555
H59 C45 1_555 1_555
C46 P4 1_555 1_555
H60 C46 1_555 1_555
H61 C46 1_555 1_555
C47 C39 1_555 1_555
H62 C47 1_555 1_555
H63 C47 1_555 1_555
H64 C47 1_555 1_555
N5A C21A 1_555 1_555
C21A H31A 1_555 1_555
C22A C21A 1_555 1_555
H32A C22A 1_555 1_555
C23A C23 1_555 1_555
C24A C23A 1_555 1_555
H33A C24A 1_555 1_555
C25A N5A 1_555 1_555
H34A C25A 1_555 1_555
Ni1A N5A 1_555 1_555
Ni2A N3A 1_555 1_555
P1A O1A 1_555 1_555
P2A O7A 1_555 1_555
N1A Ni1A 1_555 1_555
N2A Ni1A 1_555 1_555
N3A C13A 1_555 1_555
N4A C16A 1_555 1_555
O1A Ni2A 1_555 1_555
O2A Ni1A 1_555 1_555
H1A O2A 1_555 1_555
H2A O2A 1_555 1_555
O3A P1A 1_555 1_555
H3A O3A 1_555 1_555
O4A Ni1A 1_555 1_555
H4A O4A 1_555 1_555
H5A O4A 1_555 1_555
O5A P1A 1_555 1_555
O6A Ni1A 1_555 1_555
H6A O6A 1_555 1_555
H7A O6A 1_555 1_555
O7A H8A 1_555 1_555
O8A Ni2A 1_555 1_555
H9A O8A 1_555 1_555
H10A O8A 1_555 1_555
O9A P2A 1_555 1_555
O10A Ni2A 1_555 1_555
H11A O10A 1_555 1_555
H12A O10A 1_555 1_555
O11A P2A 1_555 1_555
O12A Ni2A 1_555 1_555
H13A O12A 1_555 1_555
H14A O12A 1_555 1_555
C1A N1A 1_555 1_555
H15A C1A 1_555 1_555
C2A C1A 1_555 1_555
H16A C2A 1_555 1_555
C3A C2A 1_555 1_555
C4A C3A 1_555 1_555
H17A C4A 1_555 1_555
C5A N1A 1_555 1_555
H18A C5A 1_555 1_555
C6A N2A 1_555 1_555
H19A C6A 1_555 1_555
C7A C6A 1_555 1_555
H20A C7A 1_555 1_555
C8A C7A 1_555 1_555
C9A C8A 1_555 1_555
H21A C9A 1_555 1_555
C10A N2A 1_555 1_555
H22A C10A 1_555 1_555
C11A C8A 1_555 1_555
C12A C11A 1_555 1_555
H23A C12A 1_555 1_555
C13A C12A 1_555 1_555
H24A C13A 1_555 1_555
C14A N3A 1_555 1_555
H25A C14A 1_555 1_555
C15A C11A 1_555 1_555
H26A C15A 1_555 1_555
C16A H27A 1_555 1_555
C17A C16A 1_555 1_555
H28A C17A 1_555 1_555
C18A C3A 1_555 1_555
C19A C18A 1_555 1_555
H29A C19A 1_555 1_555
C20A N4A 1_555 1_555
H30A C20A 1_555 1_555
C26A P1A 1_555 1_555
H35A C26A 1_555 1_555
H36A C26A 1_555 1_555
C27A C26A 1_555 1_555
C28A C27A 1_555 1_555
C29A C28A 1_555 1_555
C30A C29A 1_555 1_555
C31A C30A 1_555 1_555
H37A C31A 1_555 1_555
C32A C27A 1_555 1_555
C33A C32A 1_555 1_555
H38A C33A 1_555 1_555
H39A C33A 1_555 1_555
H40A C33A 1_555 1_555
C34A C30A 1_555 1_555
H41A C34A 1_555 1_555
H42A C34A 1_555 1_555
H43A C34A 1_555 1_555
C35A P2A 1_555 1_555
H44A C35A 1_555 1_555
H45A C35A 1_555 1_555
C36A C28A 1_555 1_555
H46A C36A 1_555 1_555
H47A C36A 1_555 1_555
H48A C36A 1_555 1_555
Ni2_2 N4 1_555 1_555
Ni2A_2 N4A 1_555 1_555
N4_2 Ni2 1_555 1_555
N4A_2 Ni2A 1_555 1_555
C4 C5 1_555 1_555
C9 C10 1_555 1_555
C14 C15 1_555 1_555
C17 C18 1_555 1_555
C19 C20 1_555 1_555
C24 C25 1_555 1_555
C29 C35 1_555 1_555
C31 C32 1_555 1_555
C40 C46 1_555 1_555
C42 C43 1_555 1_555
C22A C23A 1_555 1_555
C24A C25A 1_555 1_555
C4A C5A 1_555 1_555
C9A C10A 1_555 1_555
C14A C15A 1_555 1_555
C17A C18A 1_555 1_555
C19A C20A 1_555 1_555
C29A C35A 1_555 1_555
C31A C32A 1_555 1_555

#END
