
#######################################################################
#
#                 Cambridge Crystallographic Data Centre
#                                CCDC 
#
#######################################################################
#
# If this CIF has been generated from an entry in the Cambridge 
# Structural Database, then it will include bibliographic, chemical, 
# crystal, experimental, refinement or atomic coordinate data resulting 
# from the CCDC's data processing and validation procedures.
#
#######################################################################

data_WIPFOR
_symmetry_cell_setting           monoclinic
_symmetry_space_group_name_H-M   'P 2/c'
_symmetry_Int_Tables_number      13
_space_group_name_Hall           '-P 2yc'
loop_
_symmetry_equiv_pos_site_id
_symmetry_equiv_pos_as_xyz
1 x,y,z
2 -x,y,1/2-z
3 -x,-y,-z
4 x,-y,1/2+z
_cell_length_a                   7.6160(15)
_cell_length_b                   11.372(2)
_cell_length_c                   12.954(4)
_cell_angle_alpha                90
_cell_angle_beta                 123.63(2)
_cell_angle_gamma                90
_cell_volume                     934.158
loop_
_atom_site_label
_atom_site_type_symbol
_atom_site_fract_x
_atom_site_fract_y
_atom_site_fract_z
Ni1 Ni 0.0000 0.72030(2) 0.2500
O1 O 0.3358(2) 0.70882(11) 0.37051(13)
O2 O 0.6416(2) 0.65853(13) 0.39977(15)
N1 N 0.0000 0.90804(17) 0.2500
N2 N 0.0000 1.53103(17) 0.2500
C1 C -0.0330(3) 0.96979(15) 0.15229(16)
H1 H -0.0574 0.9287 0.0834
C2 C -0.0327(3) 1.09169(15) 0.14895(16)
H2 H -0.0542 1.1307 0.0797
C3 C 0.0000 1.1551(2) 0.2500
C4 C 0.0000 1.28534(19) 0.2500
C5 C 0.1289(3) 1.34832(15) 0.22487(18)
H3 H 0.2156 1.3093 0.2064
C6 C 0.1261(3) 1.47013(15) 0.22773(19)
H4 H 0.2161 1.5115 0.2135
C7 C 0.4933(2) 0.84072(14) 0.30166(14)
C8 C 0.4914(3) 0.94753(17) 0.35359(18)
H5 H 0.4854 0.9479 0.4234
C9 C 0.4982(3) 1.05329(17) 0.3028(2)
H6 H 0.5003 1.1240 0.3396
C10 C 0.4895(3) 0.72697(14) 0.36067(16)
O3 O 0.0029(2) 0.71811(10) 0.08697(12)
H8 H -0.091(3) 0.673(2) 0.034(2)
H9 H 0.113(2) 0.705(2) 0.090(2)
Ni1_2 Ni 0.0000 1.72030(2) 0.2500
Ni1_3 Ni 1.0000 0.72030(2) 0.2500
O1A O 0.6642(2) 0.70882(11) 0.12949(13)
O1A_2 O -0.3358(2) 0.70882(11) 0.12949(13)
O2A O 0.3584(2) 0.65853(13) 0.10023(15)
N2_2 N 0.0000 0.53103(17) 0.2500
C1A C 0.0330(3) 0.96979(15) 0.34771(16)
H1A H 0.0574 0.9287 0.4166
C2A C 0.0327(3) 1.09169(15) 0.35105(16)
H2A H 0.0542 1.1307 0.4203
C5A C -0.1289(3) 1.34832(15) 0.27513(18)
H3A H -0.2156 1.3093 0.2936
C6A C -0.1261(3) 1.47013(15) 0.27227(19)
H4A H -0.2161 1.5115 0.2865
C7A C 0.5067(2) 0.84072(14) 0.19834(14)
C8A C 0.5086(3) 0.94753(17) 0.14641(18)
H5A H 0.5146 0.9479 0.0766
C9A C 0.5018(3) 1.05329(17) 0.1972(2)
H6A H 0.4997 1.1240 0.1604
C10A C 0.5105(3) 0.72697(14) 0.13933(16)
O3A O -0.0029(2) 0.71811(10) 0.41303(12)
H8A H 0.091(3) 0.673(2) 0.466(2)
H9A H -0.113(2) 0.705(2) 0.410(2)
O4 O 0.3483(3) 0.58768(15) 0.56342(15)
H7 H 0.385(5) 0.608(2) 0.516(2)
H10 H 0.362(5) 0.5147(9) 0.571(3)
loop_
_geom_bond_atom_site_label_1
_geom_bond_atom_site_label_2
_geom_bond_site_symmetry_1
_geom_bond_site_symmetry_2
Ni1 O1 1_555 1_555
O1 C10 1_555 1_555
O2 C10 1_555 1_555
N1 Ni1 1_555 1_555
N2 C6 1_555 1_555
C1 N1 1_555 1_555
H1 C1 1_555 1_555
C2 C1 1_555 1_555
H2 C2 1_555 1_555
C3 C2 1_555 1_555
C4 C3 1_555 1_555
C5 C4 1_555 1_555
H3 C5 1_555 1_555
C6 C5 1_555 1_555
H4 C6 1_555 1_555
C7 C8 1_555 1_555
C8 H5 1_555 1_555
C9 C8 1_555 1_555
H6 C9 1_555 1_555
C10 C7 1_555 1_555
O3 Ni1 1_555 1_555
O4 H7 1_555 1_555
H8 O3 1_555 1_555
H9 O3 1_555 1_555
H10 O4 1_555 1_555
Ni1_2 N2 1_555 1_555
Ni1_3 O1A 1_555 1_555
O1A C10A 1_555 1_555
O1A_2 Ni1 1_555 1_555
O2A C10A 1_555 1_555
N2_2 Ni1 1_555 1_555
C1A N1 1_555 1_555
H1A C1A 1_555 1_555
C2A C3 1_555 1_555
H2A C2A 1_555 1_555
C5A C4 1_555 1_555
H3A C5A 1_555 1_555
C6A N2 1_555 1_555
H4A C6A 1_555 1_555
C7A C7 1_555 1_555
C8A C7A 1_555 1_555
H5A C8A 1_555 1_555
C9A C9 1_555 1_555
H6A C9A 1_555 1_555
C10A C7A 1_555 1_555
O3A Ni1 1_555 1_555
H8A O3A 1_555 1_555
H9A O3A 1_555 1_555
C1A C2A 1_555 1_555
C5A C6A 1_555 1_555
C8A C9A 1_555 1_555

#END
