
#######################################################################
#
#                 Cambridge Crystallographic Data Centre
#                                CCDC 
#
#######################################################################
#
# If this CIF has been generated from an entry in the Cambridge 
# Structural Database, then it will include bibliographic, chemical, 
# crystal, experimental, refinement or atomic coordinate data resulting 
# from the CCDC's data processing and validation procedures.
#
#######################################################################

data_WIPNEO
_symmetry_cell_setting           monoclinic
_symmetry_space_group_name_H-M   'P 21'
_symmetry_Int_Tables_number      4
_space_group_name_Hall           'P 2yb'
loop_
_symmetry_equiv_pos_site_id
_symmetry_equiv_pos_as_xyz
1 x,y,z
2 -x,1/2+y,-z
_cell_length_a                   10.356(3)
_cell_length_b                   7.097(3)
_cell_length_c                   20.316(2)
_cell_angle_alpha                90
_cell_angle_beta                 94.29(2)
_cell_angle_gamma                90
_cell_volume                     1488.97
loop_
_atom_site_label
_atom_site_type_symbol
_atom_site_fract_x
_atom_site_fract_y
_atom_site_fract_z
Mn1 Mn -0.74618(9) 0.2500 0.32916(5)
S1 S -0.7624(1) 0.7853(3) 0.27825(9)
S2 S -0.8089(2) 0.6039(3) 0.3484(1)
O1 O -0.7012(5) 0.9522(8) 0.3106(3)
O2 O -0.8824(5) 0.8367(9) 0.2401(3)
O3 O -0.6711(5) 0.6956(9) 0.2353(3)
O4 O -0.6304(5) 0.3245(8) 0.2498(3)
O5 O -0.9230(5) 0.200(1) 0.2704(4)
N1 N -0.8343(5) 0.218(1) 0.4281(3)
N2 N -0.5812(5) 0.266(1) 0.4081(3)
C1 C -0.9594(7) 0.187(1) 0.4386(5)
C2 C -1.0040(9) 0.183(2) 0.5009(6)
C3 C -0.9238(8) 0.215(1) 0.5543(5)
C4 C -0.6971(9) 0.273(2) 0.6011(4)
C5 C -0.5720(8) 0.295(2) 0.5906(4)
C6 C -0.3950(7) 0.311(1) 0.5130(4)
C7 C -0.3612(7) 0.304(2) 0.4498(5)
C8 C -0.4578(7) 0.283(1) 0.3986(4)
C9 C -0.6154(6) 0.270(1) 0.4712(3)
C10 C -0.5260(7) 0.293(1) 0.5255(4)
C11 C -0.7518(6) 0.246(1) 0.4821(3)
C12 C -0.7911(7) 0.245(1) 0.5471(4)
O1_2 O -0.7012(5) -0.0478(8) 0.3106(3)
Mn1_2 Mn -0.74618(9) 1.2500 0.32916(5)
Mn2 Mn -0.2664(1) -0.2724(2) 0.17413(6)
S3 S -0.2725(1) 0.2632(3) 0.22299(9)
S4 S -0.1931(2) 0.0825(3) 0.1618(1)
O6 O -0.3149(5) 0.4305(8) 0.1857(3)
O7 O -0.3863(5) 0.1729(9) 0.2491(3)
O8 O -0.1757(5) 0.3115(9) 0.2767(3)
O9 O -0.1261(5) -0.3088(9) 0.2590(3)
O10 O -0.4228(5) -0.191(1) 0.2303(4)
N3 N -0.1243(6) -0.339(1) 0.0979(3)
N4 N -0.3824(6) -0.284(1) 0.0748(3)
C13 C 0.0022(8) -0.369(1) 0.1093(5)
C14 C 0.084(1) -0.403(2) 0.0593(6)
C15 C 0.037(1) -0.404(2) -0.0032(6)
C16 C -0.157(2) -0.381(2) -0.0844(5)
C17 C -0.281(2) -0.352(2) -0.0968(5)
C18 C -0.498(1) -0.290(2) -0.0525(7)
C19 C -0.571(1) -0.263(2) -0.0008(8)
C20 C -0.5095(8) -0.262(2) 0.0635(6)
C21 C -0.3103(9) -0.310(1) 0.0227(4)
C22 C -0.365(1) -0.310(2) -0.0428(5)
C23 C -0.1757(8) -0.343(1) 0.0348(4)
C24 C -0.097(1) -0.376(2) -0.0181(5)
O6_2 O -0.3149(5) -0.5695(8) 0.1857(3)
Mn2_2 Mn -0.2664(1) 0.7276(2) 0.17413(6)
loop_
_geom_bond_atom_site_label_1
_geom_bond_atom_site_label_2
_geom_bond_site_symmetry_1
_geom_bond_site_symmetry_2
Mn1 S2 1_555 1_555
S1 S2 1_555 1_555
O1 S1 1_555 1_555
O2 S1 1_555 1_555
O3 S1 1_555 1_555
O4 Mn1 1_555 1_555
O5 Mn1 1_555 1_555
N1 Mn1 1_555 1_555
N2 Mn1 1_555 1_555
C1 N1 1_555 1_555
C2 C1 1_555 1_555
C3 C2 1_555 1_555
C4 C5 1_555 1_555
C5 C10 1_555 1_555
C6 C7 1_555 1_555
C7 C8 1_555 1_555
C8 N2 1_555 1_555
C9 N2 1_555 1_555
C10 C6 1_555 1_555
C11 N1 1_555 1_555
C12 C3 1_555 1_555
Mn2 S4 1_555 1_555
S3 S4 1_555 1_555
O6 S3 1_555 1_555
O7 S3 1_555 1_555
O8 S3 1_555 1_555
O9 Mn2 1_555 1_555
O10 Mn2 1_555 1_555
N3 Mn2 1_555 1_555
N4 Mn2 1_555 1_555
C13 N3 1_555 1_555
C14 C13 1_555 1_555
C15 C14 1_555 1_555
C16 C17 1_555 1_555
C17 C22 1_555 1_555
C18 C19 1_555 1_555
C19 C20 1_555 1_555
C20 N4 1_555 1_555
C21 N4 1_555 1_555
C22 C18 1_555 1_555
C23 N3 1_555 1_555
C24 C15 1_555 1_555
O1_2 Mn1 1_555 1_555
O6_2 Mn2 1_555 1_555
Mn1_2 O1 1_555 1_555
Mn2_2 O6 1_555 1_555
C4 C12 1_555 1_555
C9 C10 1_555 1_555
C9 C11 1_555 1_555
C11 C12 1_555 1_555
C16 C24 1_555 1_555
C21 C22 1_555 1_555
C21 C23 1_555 1_555
C23 C24 1_555 1_555

#END
