
#######################################################################
#
#                 Cambridge Crystallographic Data Centre
#                                CCDC 
#
#######################################################################
#
# If this CIF has been generated from an entry in the Cambridge 
# Structural Database, then it will include bibliographic, chemical, 
# crystal, experimental, refinement or atomic coordinate data resulting 
# from the CCDC's data processing and validation procedures.
#
#######################################################################

data_WIPQOB
_symmetry_cell_setting           orthorhombic
_symmetry_space_group_name_H-M   'P 21 21 21'
_symmetry_Int_Tables_number      19
_space_group_name_Hall           'P 2ac 2ab'
loop_
_symmetry_equiv_pos_site_id
_symmetry_equiv_pos_as_xyz
1 x,y,z
2 1/2-x,-y,1/2+z
3 1/2+x,1/2-y,-z
4 -x,1/2+y,1/2-z
_cell_length_a                   4.761(2)
_cell_length_b                   12.242(3)
_cell_length_c                   19.337(3)
_cell_angle_alpha                90
_cell_angle_beta                 90
_cell_angle_gamma                90
_cell_volume                     1127.04
loop_
_atom_site_label
_atom_site_type_symbol
_atom_site_fract_x
_atom_site_fract_y
_atom_site_fract_z
Cu1 Cu 0.2031(2) -0.1875(1) 0.2277(1)
N1 N 0.0549(17) -0.0524(6) 0.2631(4)
C1 C 0.0955(24) -0.0138(8) 0.3239(5)
C2 C 0.2858(24) -0.0575(7) 0.3734(4)
C3 C 0.3030(25) -0.0034(8) 0.4365(4)
C4 C 0.4874(23) -0.0356(8) 0.4881(5)
C5 C 0.6546(24) -0.1267(8) 0.4766(4)
C6 C 0.6417(20) -0.1831(9) 0.4144(4)
C7 C 0.4632(22) -0.1493(8) 0.3609(5)
O1 O 0.4646(14) -0.2043(5) 0.3020(3)
C8 C -0.1340(22) 0.0025(8) 0.2163(5)
C9 C 0.0156(24) 0.0965(9) 0.1787(5)
O2 O 0.0931(13) 0.1774(5) 0.2293(4)
C10 C -0.2260(22) -0.0801(7) 0.1603(5)
O3 O -0.4228(15) -0.0576(5) 0.1231(3)
O4 O -0.0813(15) -0.1670(5) 0.1558(3)
O5 O 0.4037(14) -0.2999(6) 0.1706(3)
H1 H 0.002(17) 0.0477(48) 0.3435(46)
H2 H 0.179(17) 0.0565(53) 0.4402(43)
H3 H 0.502(21) -0.0164(71) 0.5358(17)
H4 H 0.797(24) -0.1528(67) 0.5118(43)
H5 H 0.767(16) -0.2397(53) 0.4008(43)
H6 H -0.321(26) 0.0255(91) 0.2244(63)
H7 H 0.164(26) 0.0652(84) 0.1534(60)
H8 H -0.097(28) 0.1254(88) 0.1458(59)
H9 H 0.249(14) 0.2130(78) 0.2090(49)
H10 H 0.414(31) -0.286(10) 0.1225(17)
H11 H 0.5936(89) -0.311(12) 0.1824(64)
O2C O -0.0931(13) -0.3226(5) 0.2707(4)
Cu1C Cu -0.2031(2) 0.3125(1) 0.2723(1)
H9C H -0.249(14) -0.2870(78) 0.2910(49)
O6 O 0.5766(19) 0.2740(6) 0.4632(4)
H12 H 0.590(35) 0.3463(39) 0.4463(58)
H13 H 0.415(19) 0.266(12) 0.4910(64)
loop_
_geom_bond_atom_site_label_1
_geom_bond_atom_site_label_2
_geom_bond_site_symmetry_1
_geom_bond_site_symmetry_2
Cu1 N1 1_555 1_555
N1 C1 1_555 1_555
C1 C2 1_555 1_555
C2 C3 1_555 1_555
C3 C4 1_555 1_555
C4 C5 1_555 1_555
C5 C6 1_555 1_555
C6 C7 1_555 1_555
C7 C2 1_555 1_555
O1 Cu1 1_555 1_555
C8 N1 1_555 1_555
C9 C8 1_555 1_555
O2 C9 1_555 1_555
C10 C8 1_555 1_555
O3 C10 1_555 1_555
O4 Cu1 1_555 1_555
O5 Cu1 1_555 1_555
O6 H12 1_555 1_555
H1 C1 1_555 1_555
H2 C3 1_555 1_555
H3 C4 1_555 1_555
H4 C5 1_555 1_555
H5 C6 1_555 1_555
H6 C8 1_555 1_555
H7 C9 1_555 1_555
H8 C9 1_555 1_555
H9 O2 1_555 1_555
H10 O5 1_555 1_555
H11 O5 1_555 1_555
H13 O6 1_555 1_555
O2C Cu1 1_555 1_555
Cu1C O2 1_555 1_555
H9C O2C 1_555 1_555
C7 O1 1_555 1_555
C10 O4 1_555 1_555

#END
