
#######################################################################
#
#                 Cambridge Crystallographic Data Centre
#                                CCDC 
#
#######################################################################
#
# If this CIF has been generated from an entry in the Cambridge 
# Structural Database, then it will include bibliographic, chemical, 
# crystal, experimental, refinement or atomic coordinate data resulting 
# from the CCDC's data processing and validation procedures.
#
#######################################################################

data_WIPQER
_symmetry_cell_setting           triclinic
_symmetry_space_group_name_H-M   'P -1'
_symmetry_Int_Tables_number      2
_space_group_name_Hall           '-P 1'
loop_
_symmetry_equiv_pos_site_id
_symmetry_equiv_pos_as_xyz
1 x,y,z
2 -x,-y,-z
_cell_length_a                   8.041(3)
_cell_length_b                   8.332(2)
_cell_length_c                   9.322(2)
_cell_angle_alpha                99.84(1)
_cell_angle_beta                 112.17(1)
_cell_angle_gamma                107.24(3)
_cell_volume                     523.407
loop_
_atom_site_label
_atom_site_type_symbol
_atom_site_fract_x
_atom_site_fract_y
_atom_site_fract_z
Co1 Co 0.0000 0.0000 0.0000
O1 O -0.8680(1) -0.7593(1) -0.8031(1)
O2 O -1.0296(1) -0.7391(1) -0.6574(1)
N1 N -0.2694(1) 0.0278(1) -0.0990(1)
N2 N -0.5833(1) -0.0320(2) -0.2040(1)
N3 N 0.0898(1) 0.1709(1) -0.1317(1)
N4 N 0.0734(1) 0.2726(1) -0.3380(1)
C1 C -0.4451(1) -0.0969(1) -0.1572(1)
C2 C -0.4911(2) 0.1456(2) -0.1733(2)
C3 C -0.2963(2) 0.1810(1) -0.1082(2)
C4 C 0.0162(1) 0.1296(1) -0.2920(1)
C5 C 0.1894(2) 0.4156(1) -0.1983(1)
C6 C 0.1986(2) 0.3510(1) -0.0724(1)
C7 C -0.8941(1) -0.6773(1) -0.6948(1)
C8 C -0.7520(1) -0.4845(1) -0.6009(1)
C9 C -0.5403(1) -0.4513(1) -0.5573(1)
H1 H -0.762 -0.445 -0.490
H2 H -0.795 -0.405 -0.674
H3 H -0.441 -0.316 -0.491
H4 H -0.530 -0.490 -0.668
H5 H -0.713 -0.094 -0.248
H6 H 0.041 0.274 -0.441
H7 H -0.472 -0.224 -0.165
H8 H -0.554 0.232 -0.194
H9 H -0.190 0.300 -0.073
H10 H -0.071 0.007 -0.370
H11 H 0.254 0.542 -0.191
H12 H 0.273 0.424 0.046
C9A C -0.4597(1) -0.5487(1) -0.4427(1)
C8A C -0.2480(1) -0.5155(1) -0.3991(1)
C7A C -0.1059(1) -0.3227(1) -0.3052(1)
O1A O -0.1320(1) -0.2407(1) -0.1969(1)
Co1_2 Co -1.0000 -1.0000 -1.0000
O1_2 O 0.1320(1) 0.2407(1) 0.1969(1)
N1A N 0.2694(1) -0.0278(1) 0.0990(1)
C1A C 0.4451(1) 0.0969(1) 0.1572(1)
N2A N 0.5833(1) 0.0320(2) 0.2040(1)
C2A C 0.4911(2) -0.1456(2) 0.1733(2)
C3A C 0.2963(2) -0.1810(1) 0.1082(2)
H9A H 0.190 -0.300 0.073
H8A H 0.554 -0.232 0.194
H5A H 0.713 0.094 0.248
H7A H 0.472 0.224 0.165
N3A N -0.0898(1) -0.1709(1) 0.1317(1)
C4A C -0.0162(1) -0.1296(1) 0.2920(1)
N4A N -0.0734(1) -0.2726(1) 0.3380(1)
C5A C -0.1894(2) -0.4156(1) 0.1983(1)
C6A C -0.1986(2) -0.3510(1) 0.0724(1)
H12A H -0.273 -0.424 -0.046
H11A H -0.254 -0.542 0.191
H6A H -0.041 -0.274 0.441
H10A H 0.071 -0.007 0.370
O2A O 0.0296(1) -0.2609(1) -0.3426(1)
H1A H -0.238 -0.555 -0.510
H2A H -0.205 -0.595 -0.326
H3A H -0.559 -0.684 -0.509
H4A H -0.470 -0.510 -0.332
loop_
_geom_bond_atom_site_label_1
_geom_bond_atom_site_label_2
_geom_bond_site_symmetry_1
_geom_bond_site_symmetry_2
Co1 N1 1_555 1_555
O1 C7 1_555 1_555
O2 C7 1_555 1_555
N1 C1 1_555 1_555
N2 C1 1_555 1_555
N3 Co1 1_555 1_555
N4 C4 1_555 1_555
C1 H7 1_555 1_555
C2 N2 1_555 1_555
C3 N1 1_555 1_555
C4 N3 1_555 1_555
C5 N4 1_555 1_555
C6 N3 1_555 1_555
C7 C8 1_555 1_555
C8 C9 1_555 1_555
C9 H3 1_555 1_555
H1 C8 1_555 1_555
H2 C8 1_555 1_555
H4 C9 1_555 1_555
H5 N2 1_555 1_555
H6 N4 1_555 1_555
H8 C2 1_555 1_555
H9 C3 1_555 1_555
H10 C4 1_555 1_555
H11 C5 1_555 1_555
H12 C6 1_555 1_555
C9A C9 1_555 1_555
C8A C9A 1_555 1_555
C7A C8A 1_555 1_555
O1A Co1 1_555 1_555
Co1_2 O1 1_555 1_555
O1_2 Co1 1_555 1_555
N1A Co1 1_555 1_555
C1A N1A 1_555 1_555
N2A C1A 1_555 1_555
C2A N2A 1_555 1_555
C3A N1A 1_555 1_555
H9A C3A 1_555 1_555
H8A C2A 1_555 1_555
H5A N2A 1_555 1_555
H7A C1A 1_555 1_555
N3A Co1 1_555 1_555
C4A N3A 1_555 1_555
N4A C4A 1_555 1_555
C5A N4A 1_555 1_555
C6A N3A 1_555 1_555
H12A C6A 1_555 1_555
H11A C5A 1_555 1_555
H6A N4A 1_555 1_555
H10A C4A 1_555 1_555
O2A C7A 1_555 1_555
H1A C8A 1_555 1_555
H2A C8A 1_555 1_555
H3A C9A 1_555 1_555
H4A C9A 1_555 1_555
C2 C3 1_555 1_555
C5 C6 1_555 1_555
C7A O1A 1_555 1_555
C2A C3A 1_555 1_555
C5A C6A 1_555 1_555

#END
