
#######################################################################
#
#                 Cambridge Crystallographic Data Centre
#                                CCDC 
#
#######################################################################
#
# If this CIF has been generated from an entry in the Cambridge 
# Structural Database, then it will include bibliographic, chemical, 
# crystal, experimental, refinement or atomic coordinate data resulting 
# from the CCDC's data processing and validation procedures.
#
#######################################################################

data_WIQBEF
_symmetry_cell_setting           triclinic
_symmetry_space_group_name_H-M   'P -1'
_symmetry_Int_Tables_number      2
_space_group_name_Hall           '-P 1'
loop_
_symmetry_equiv_pos_site_id
_symmetry_equiv_pos_as_xyz
1 x,y,z
2 -x,-y,-z
_cell_length_a                   8.1403(16)
_cell_length_b                   9.014(2)
_cell_length_c                   12.635(3)
_cell_angle_alpha                70.20(3)
_cell_angle_beta                 78.72(3)
_cell_angle_gamma                82.05(3)
_cell_volume                     852.842
loop_
_atom_site_label
_atom_site_type_symbol
_atom_site_fract_x
_atom_site_fract_y
_atom_site_fract_z
C1 C 0.6806(7) -0.1319(8) 0.4706(5)
H1 H 0.6827 -0.2179 0.5369
C2 C 0.7601(6) 0.0878(7) 0.3393(4)
H2 H 0.8134 0.1783 0.2942
C3 C 0.5303(7) 0.1153(9) 0.2289(5)
H3 H 0.4665 0.2074 0.2437
H4 H 0.4510 0.0459 0.2266
C4 C 0.6452(7) 0.1695(8) 0.1100(5)
C5 C 0.6965(8) 0.3232(9) 0.0560(6)
H5 H 0.6585 0.3965 0.0941
C6 C 0.8047(9) 0.3796(8) -0.0552(5)
H6 H 0.8365 0.4828 -0.0849
C7 C 0.8535(7) 0.2787(8) -0.1096(5)
C8 C 0.8029(6) 0.1167(7) -0.0563(4)
C9 C 0.6968(6) 0.0602(7) 0.0570(4)
C10 C 0.6506(7) -0.1026(7) 0.1097(5)
H7 H 0.5854 -0.1322 0.1816
C11 C 0.6988(10) -0.2061(8) 0.0578(6)
H8 H 0.6714 -0.3104 0.0905
C12 C 0.7994(10) -0.1494(8) -0.0554(6)
H9 H 0.8333 -0.2219 -0.0946
C13 C 0.8489(7) 0.0048(8) -0.1100(5)
H10 H 0.9129 0.0310 -0.1824
C14 C 0.9688(7) 0.3448(8) -0.2287(5)
H11 H 1.0005 0.4488 -0.2378
H12 H 1.0705 0.2754 -0.2324
C15 C 0.7390(6) 0.4270(7) -0.3404(4)
H13 H 0.6720 0.4803 -0.2940
C16 C 0.8205(7) 0.3362(8) -0.4703(5)
H14 H 0.8281 0.3089 -0.5359
Cl1 Cl 0.88496(15) -0.20583(16) 0.66652(10)
Cl2 Cl 0.61523(15) 0.46071(17) -0.66646(10)
Cu1 Cu 1.0000 0.0000 0.5000
Cu2 Cu 0.5000 0.5000 -0.5000
N1 N 0.8009(5) -0.0153(5) 0.4340(3)
N2 N 0.5677(7) -0.1095(8) 0.4048(5)
N3 N 0.6231(5) 0.0341(6) 0.3210(3)
N4 N 0.8765(5) 0.3549(6) -0.3210(4)
N5 N 0.9313(7) 0.2951(7) -0.4047(4)
N6 N 0.6984(5) 0.4196(5) -0.4338(3)
C1A C 0.3194(7) 1.1319(8) -1.4706(5)
H1A H 0.3173 1.2179 -1.5369
C2A C 0.2399(6) 0.9122(7) -1.3393(4)
H2A H 0.1866 0.8217 -1.2942
C3A C 0.4697(7) 0.8847(9) -1.2289(5)
H3A H 0.5335 0.7926 -1.2437
H4A H 0.5490 0.9541 -1.2266
C4A C 0.3548(7) 0.8305(8) -1.1100(5)
C5A C 0.3035(8) 0.6768(9) -1.0560(6)
H5A H 0.3415 0.6035 -1.0941
C6A C 0.1953(9) 0.6204(8) -0.9448(5)
H6A H 0.1635 0.5172 -0.9151
C7A C 0.1465(7) 0.7213(8) -0.8904(5)
C8A C 0.1971(6) 0.8833(7) -0.9437(4)
C9A C 0.3032(6) 0.9398(7) -1.0570(4)
C10A C 0.3494(7) 1.1026(7) -1.1097(5)
H7A H 0.4146 1.1322 -1.1816
C11A C 0.3012(10) 1.2061(8) -1.0578(6)
H8A H 0.3286 1.3104 -1.0905
C12A C 0.2006(10) 1.1494(8) -0.9446(6)
H9A H 0.1667 1.2219 -0.9054
C13A C 0.1511(7) 0.9952(8) -0.8900(5)
H10A H 0.0871 0.9690 -0.8176
C14A C 0.0312(7) 0.6552(8) -0.7713(5)
H11A H -0.0005 0.5512 -0.7622
H12A H -0.0705 0.7246 -0.7676
C15A C 0.2610(6) 0.5730(7) -0.6596(4)
H13A H 0.3280 0.5197 -0.7060
C16A C 0.1795(7) 0.6638(8) -0.5297(5)
H14A H 0.1719 0.6911 -0.4641
Cl2A Cl 0.38477(15) 0.53929(17) -0.33354(10)
N1A N 0.1991(5) 1.0153(5) -1.4340(3)
N2A N 0.4323(7) 1.1095(8) -1.4048(5)
N3A N 0.3769(5) 0.9659(6) -1.3210(3)
N4A N 0.1235(5) 0.6451(6) -0.6790(4)
N5A N 0.0687(7) 0.7049(7) -0.5953(4)
N6A N 0.3016(5) 0.5804(5) -0.5662(3)
Cl1A Cl 1.11504(15) 0.20583(16) 0.33348(10)
Cu1_2 Cu 0.0000 1.0000 -1.5000
N1A_2 N 1.1991(5) 0.0153(5) 0.5660(3)
loop_
_geom_bond_atom_site_label_1
_geom_bond_atom_site_label_2
_geom_bond_site_symmetry_1
_geom_bond_site_symmetry_2
C1 H1 1_555 1_555
C2 H2 1_555 1_555
C3 H3 1_555 1_555
H4 C3 1_555 1_555
C4 C3 1_555 1_555
C5 C4 1_555 1_555
H5 C5 1_555 1_555
C6 C5 1_555 1_555
H6 C6 1_555 1_555
C7 C6 1_555 1_555
C8 C7 1_555 1_555
C9 C4 1_555 1_555
C10 C9 1_555 1_555
H7 C10 1_555 1_555
C11 C10 1_555 1_555
H8 C11 1_555 1_555
C12 C11 1_555 1_555
H9 C12 1_555 1_555
C13 C8 1_555 1_555
H10 C13 1_555 1_555
C14 C7 1_555 1_555
H11 C14 1_555 1_555
H12 C14 1_555 1_555
C15 H13 1_555 1_555
C16 H14 1_555 1_555
Cl1 Cu1 1_555 1_555
Cl2 Cu2 1_555 1_555
Cu1 N1 1_555 1_555
Cu2 N6 1_555 1_555
N1 C1 1_555 1_555
N2 C1 1_555 1_555
N3 C2 1_555 1_555
N4 C14 1_555 1_555
N5 C16 1_555 1_555
N6 C15 1_555 1_555
C1A H1A 1_555 1_555
C2A H2A 1_555 1_555
C3A H3A 1_555 1_555
H4A C3A 1_555 1_555
C4A C3A 1_555 1_555
C5A C4A 1_555 1_555
H5A C5A 1_555 1_555
C6A C5A 1_555 1_555
H6A C6A 1_555 1_555
C7A C6A 1_555 1_555
C8A C7A 1_555 1_555
C9A C4A 1_555 1_555
C10A C9A 1_555 1_555
H7A C10A 1_555 1_555
C11A C10A 1_555 1_555
H8A C11A 1_555 1_555
C12A C11A 1_555 1_555
H9A C12A 1_555 1_555
C13A C8A 1_555 1_555
H10A C13A 1_555 1_555
C14A C7A 1_555 1_555
H11A C14A 1_555 1_555
H12A C14A 1_555 1_555
C15A H13A 1_555 1_555
C16A H14A 1_555 1_555
Cl2A Cu2 1_555 1_555
N1A C1A 1_555 1_555
N2A C1A 1_555 1_555
N3A C2A 1_555 1_555
N4A C14A 1_555 1_555
N5A C16A 1_555 1_555
N6A Cu2 1_555 1_555
Cl1A Cu1 1_555 1_555
Cu1_2 N1A 1_555 1_555
N1A_2 Cu1 1_555 1_555
C2 N1 1_555 1_555
C3 N3 1_555 1_555
C8 C9 1_555 1_555
C12 C13 1_555 1_555
C15 N4 1_555 1_555
C16 N6 1_555 1_555
N2 N3 1_555 1_555
N4 N5 1_555 1_555
C2A N1A 1_555 1_555
C3A N3A 1_555 1_555
C8A C9A 1_555 1_555
C12A C13A 1_555 1_555
C15A N4A 1_555 1_555
C15A N6A 1_555 1_555
C16A N6A 1_555 1_555
N2A N3A 1_555 1_555
N4A N5A 1_555 1_555

#END
