
#######################################################################
#
#                 Cambridge Crystallographic Data Centre
#                                CCDC 
#
#######################################################################
#
# If this CIF has been generated from an entry in the Cambridge 
# Structural Database, then it will include bibliographic, chemical, 
# crystal, experimental, refinement or atomic coordinate data resulting 
# from the CCDC's data processing and validation procedures.
#
#######################################################################

data_WIQGIO
_symmetry_cell_setting           monoclinic
_symmetry_space_group_name_H-M   'C 2/c'
_symmetry_Int_Tables_number      15
_space_group_name_Hall           '-C 2yn'
loop_
_symmetry_equiv_pos_site_id
_symmetry_equiv_pos_as_xyz
1 x,y,z
2 -x,y,1/2-z
3 1/2+x,1/2+y,z
4 1/2-x,1/2+y,1/2-z
5 -x,-y,-z
6 x,-y,1/2+z
7 1/2-x,1/2-y,-z
8 1/2+x,1/2-y,1/2+z
_cell_length_a                   13.8346(16)
_cell_length_b                   13.6099(17)
_cell_length_c                   11.1243(13)
_cell_angle_alpha                90
_cell_angle_beta                 100.395(2)
_cell_angle_gamma                90
_cell_volume                     2060.19
loop_
_atom_site_label
_atom_site_type_symbol
_atom_site_fract_x
_atom_site_fract_y
_atom_site_fract_z
Ag1 Ag 0.45864(2) 0.94707(2) 0.35717(3)
N1 N 0.3973(2) 0.8143(2) 0.2474(3)
O1 O 0.3680(3) 1.0725(2) 0.2244(3)
O2 O 0.4009(2) 1.0267(2) 0.0447(3)
Cl1 Cl 0.14272(9) 1.05467(8) 0.03755(12)
Cl2 Cl 0.02428(7) 1.23760(10) -0.07893(11)
C1 C 0.4461(3) 0.7327(3) 0.2298(3)
C2 C 0.3967(3) 0.6502(3) 0.1744(4)
H1 H 0.4319 0.5943 0.1612
C3 C 0.2979(3) 0.6516(4) 0.1400(4)
H2 H 0.2644 0.5965 0.1049
C4 C 0.2485(3) 0.7355(4) 0.1579(4)
H3 H 0.1805 0.7383 0.1345
C5 C 0.2991(3) 0.8147(4) 0.2100(4)
H4 H 0.2645 0.8718 0.2203
C6 C 0.3623(3) 1.0804(3) 0.1130(4)
C7 C 0.3037(3) 1.1684(3) 0.0523(3)
C8 C 0.2028(3) 1.1633(3) 0.0169(3)
C9 C 0.1502(3) 1.2452(3) -0.0350(3)
N1A N 0.6027(2) 0.8143(2) 0.2526(3)
C1A C 0.5539(3) 0.7327(3) 0.2702(3)
C2A C 0.6033(3) 0.6502(3) 0.3256(4)
H1A H 0.5681 0.5943 0.3388
C3A C 0.7021(3) 0.6516(4) 0.3600(4)
H2A H 0.7356 0.5965 0.3951
C4A C 0.7515(3) 0.7355(4) 0.3421(4)
H3A H 0.8195 0.7383 0.3655
C5A C 0.7009(3) 0.8147(4) 0.2900(4)
H4A H 0.7355 0.8718 0.2797
O1F O 0.1320(3) 1.4275(2) -0.2244(3)
O2F O 0.0991(2) 1.4733(2) -0.0447(3)
Cl1F Cl 0.35728(9) 1.44533(8) -0.03755(12)
Cl2F Cl 0.47572(7) 1.26240(10) 0.07893(11)
C6F C 0.1377(3) 1.4196(3) -0.1130(4)
C7F C 0.1963(3) 1.3316(3) -0.0523(3)
C8F C 0.2972(3) 1.3367(3) -0.0169(3)
C9F C 0.3498(3) 1.2548(3) 0.0350(3)
Ag1A Ag 0.54136(2) 0.94707(2) 0.14283(3)
Ag1C Ag 0.04136(2) 1.44707(2) 0.14283(3)
Ag1E Ag 0.45864(2) 1.05293(2) -0.14283(3)
Ag1F Ag 0.04136(2) 1.55293(2) -0.35717(3)
Ag1G Ag -0.04136(2) 1.55293(2) -0.14283(3)
O1A O 0.6320(3) 1.0725(2) 0.2756(3)
O2A O 0.5991(2) 1.0267(2) 0.4553(3)
O2D O 0.5991(2) 0.9733(2) -0.0447(3)
O2E O 0.4009(2) 0.9733(2) 0.5447(3)
loop_
_geom_bond_atom_site_label_1
_geom_bond_atom_site_label_2
_geom_bond_site_symmetry_1
_geom_bond_site_symmetry_2
Ag1 N1 1_555 1_555
N1 C1 1_555 1_555
O1 Ag1 1_555 1_555
O2 C6 1_555 1_555
Cl1 C8 1_555 1_555
Cl2 C9 1_555 1_555
C1 C2 1_555 1_555
C2 H1 1_555 1_555
C3 C2 1_555 1_555
H2 C3 1_555 1_555
C4 C3 1_555 1_555
H3 C4 1_555 1_555
C5 N1 1_555 1_555
H4 C5 1_555 1_555
C6 O1 1_555 1_555
C7 C6 1_555 1_555
C8 C7 1_555 1_555
C9 C8 1_555 1_555
N1A C1A 1_555 1_555
C1A C1 1_555 1_555
C2A C1A 1_555 1_555
H1A C2A 1_555 1_555
C3A C2A 1_555 1_555
H2A C3A 1_555 1_555
C4A C3A 1_555 1_555
H3A C4A 1_555 1_555
C5A N1A 1_555 1_555
H4A C5A 1_555 1_555
O1F C6F 1_555 1_555
O2F C6F 1_555 1_555
Cl1F C8F 1_555 1_555
Cl2F C9F 1_555 1_555
C6F C7F 1_555 1_555
C7F C9 1_555 1_555
C8F C7F 1_555 1_555
C9F C7 1_555 1_555
Ag1A Ag1 1_555 1_555
Ag1C O2F 1_555 1_555
Ag1E O2 1_555 1_555
Ag1F O1F 1_555 1_555
Ag1G O2F 1_555 1_555
O1A Ag1A 1_555 1_555
O2A Ag1 1_555 1_555
O2D Ag1A 1_555 1_555
O2E Ag1 1_555 1_555
O2 Ag1A 1_555 1_555
C4 C5 1_555 1_555
N1A Ag1A 1_555 1_555
C4A C5A 1_555 1_555
C8F C9F 1_555 1_555
Ag1E O2D 1_555 1_555
Ag1F Ag1G 1_555 1_555

#END
