
#######################################################################
#
#                 Cambridge Crystallographic Data Centre
#                                CCDC 
#
#######################################################################
#
# If this CIF has been generated from an entry in the Cambridge 
# Structural Database, then it will include bibliographic, chemical, 
# crystal, experimental, refinement or atomic coordinate data resulting 
# from the CCDC's data processing and validation procedures.
#
#######################################################################

data_WIQJAJ
_symmetry_cell_setting           monoclinic
_symmetry_space_group_name_H-M   'C 2/c'
_symmetry_Int_Tables_number      15
_space_group_name_Hall           '-C 2yn'
loop_
_symmetry_equiv_pos_site_id
_symmetry_equiv_pos_as_xyz
1 x,y,z
2 -x,y,1/2-z
3 1/2+x,1/2+y,z
4 1/2-x,1/2+y,1/2-z
5 -x,-y,-z
6 x,-y,1/2+z
7 1/2-x,1/2-y,-z
8 1/2+x,1/2-y,1/2+z
_cell_length_a                   15.036(7)
_cell_length_b                   14.407(7)
_cell_length_c                   12.944(6)
_cell_angle_alpha                90
_cell_angle_beta                 101.948(17)
_cell_angle_gamma                90
_cell_volume                     2743.23
loop_
_atom_site_label
_atom_site_type_symbol
_atom_site_fract_x
_atom_site_fract_y
_atom_site_fract_z
Cu1 Cu 0.51969(3) 0.11258(3) 0.40924(4)
N1 N 0.4536(2) 0.1139(2) 0.5261(3)
N2 N 0.4434(2) 0.0447(2) 0.5923(3)
N3 N 0.3962(3) 0.0764(3) 0.6597(3)
N4 N 0.3745(3) 0.1665(2) 0.6383(3)
C1 C 0.4635(3) 0.3714(3) 0.3899(4)
H1 H 0.5014 0.3815 0.3427
C2 C 0.3498(3) 0.3491(3) 0.5217(4)
H2 H 0.3105 0.3384 0.5673
N5 N 0.6003(2) 0.1259(2) 0.3050(3)
N6 N 0.5957(2) 0.1158(2) 0.2006(3)
N7 N 0.6792(3) 0.1123(2) 0.1823(3)
N8 N 0.7386(3) 0.1185(2) 0.2754(3)
N9 N 0.8233(3) 0.1420(2) 0.6273(3)
N10 N 0.6444(3) 0.1284(2) 0.5113(3)
C3 C 0.4078(3) 0.2777(3) 0.5035(3)
N11 N 0.4647(2) 0.2883(2) 0.4371(3)
C4 C 0.4071(3) 0.4425(3) 0.4100(4)
H3 H 0.4096 0.4995 0.3769
N12 N 0.3491(3) 0.4324(3) 0.4755(3)
C5 C 0.4105(3) 0.1879(3) 0.5561(3)
C6 C 0.7161(3) 0.1312(3) 0.4624(4)
C7 C 0.8038(3) 0.1384(3) 0.5204(4)
H4 H 0.8514 0.1410 0.4847
C8 C 0.7516(3) 0.1374(3) 0.6726(4)
H5 H 0.7618 0.1387 0.7459
C9 C 0.6625(3) 0.1307(3) 0.6168(4)
H6 H 0.6151 0.1277 0.6529
C10 C 0.6889(3) 0.1263(3) 0.3480(4)
Cu1A Cu 0.48031(3) 0.11258(3) 0.09076(4)
Cu1D Cu 0.48031(3) -0.11258(3) 0.59076(4)
N2D N 0.5566(2) -0.0447(2) 0.4077(3)
N6A N 0.4043(2) 0.1158(2) 0.2994(3)
O1 O 0.0691(3) 0.1662(4) 0.1881(4)
H7 H 0.130(4) 0.145(4) 0.201(5)
H8 H 0.077(5) 0.206(4) 0.237(5)
loop_
_geom_bond_atom_site_label_1
_geom_bond_atom_site_label_2
_geom_bond_site_symmetry_1
_geom_bond_site_symmetry_2
Cu1 N1 1_555 1_555
N1 N2 1_555 1_555
N2 N3 1_555 1_555
N3 N4 1_555 1_555
N4 C5 1_555 1_555
C1 H1 1_555 1_555
C2 H2 1_555 1_555
N5 Cu1 1_555 1_555
N6 N5 1_555 1_555
N7 N6 1_555 1_555
N8 N7 1_555 1_555
N9 C7 1_555 1_555
N10 Cu1 1_555 1_555
C3 C2 1_555 1_555
N11 Cu1 1_555 1_555
C4 C1 1_555 1_555
H3 C4 1_555 1_555
N12 C2 1_555 1_555
C5 N1 1_555 1_555
C6 N10 1_555 1_555
C7 C6 1_555 1_555
H4 C7 1_555 1_555
C8 N9 1_555 1_555
H5 C8 1_555 1_555
C9 N10 1_555 1_555
H6 C9 1_555 1_555
C10 N5 1_555 1_555
O1 H7 1_555 1_555
H8 O1 1_555 1_555
Cu1A N6 1_555 1_555
Cu1D N2 1_555 1_555
N2D Cu1 1_555 1_555
N6A Cu1 1_555 1_555
C1 N11 1_555 1_555
N8 C10 1_555 1_555
C3 N11 1_555 1_555
C3 C5 1_555 1_555
C4 N12 1_555 1_555
C6 C10 1_555 1_555
C8 C9 1_555 1_555

#END
