
#######################################################################
#
#                 Cambridge Crystallographic Data Centre
#                                CCDC 
#
#######################################################################
#
# If this CIF has been generated from an entry in the Cambridge 
# Structural Database, then it will include bibliographic, chemical, 
# crystal, experimental, refinement or atomic coordinate data resulting 
# from the CCDC's data processing and validation procedures.
#
#######################################################################

data_WIQSAS01
_symmetry_cell_setting           triclinic
_symmetry_space_group_name_H-M   'P -1'
_symmetry_Int_Tables_number      2
_space_group_name_Hall           '-P 1'
loop_
_symmetry_equiv_pos_site_id
_symmetry_equiv_pos_as_xyz
1 x,y,z
2 -x,-y,-z
_cell_length_a                   12.0916(9)
_cell_length_b                   12.6758(9)
_cell_length_c                   24.058(2)
_cell_angle_alpha                102.978(2)
_cell_angle_beta                 104.452(2)
_cell_angle_gamma                94.397(2)
_cell_volume                     3444.91
loop_
_atom_site_label
_atom_site_type_symbol
_atom_site_fract_x
_atom_site_fract_y
_atom_site_fract_z
Zn1 Zn 0.18055(5) -0.06092(5) 0.20026(3)
O1 O 0.0400(3) -0.1512(3) 0.13046(19)
O2 O 0.0000(4) -0.0804(4) 0.2128(2)
O3 O -0.8613(3) -0.4342(3) -0.01911(19)
H1 H -0.9001 -0.4072 0.0024
O4 O 0.3122(3) -0.0527(3) 0.16663(18)
O5 O 0.2369(3) 0.0720(4) 0.12316(19)
O6 O 1.0625(3) 0.1189(3) 0.03852(18)
H2 H 1.1111 0.0921 0.0593
N1 N 0.2152(4) 0.0925(4) 0.2575(2)
N2 N 0.2395(4) 0.8362(4) 0.2516(2)
C1 C -0.1562(4) -0.1767(4) 0.1316(3)
C2 C -0.2277(4) -0.1964(4) 0.1660(2)
H3 H -0.1976 -0.1827 0.2069
C3 C -0.3432(4) -0.2362(4) 0.1405(2)
H4 H -0.3896 -0.2490 0.1645
C4 C -0.3909(4) -0.2575(4) 0.0799(2)
C5 C -0.3184(4) -0.2375(4) 0.0455(2)
H5 H -0.3485 -0.2509 0.0046
C6 C -0.2029(4) -0.1982(4) 0.0706(3)
H6 H -0.1561 -0.1861 0.0467
C7 C -0.5154(4) -0.2995(4) 0.0528(2)
C8 C -0.5984(4) -0.2655(4) 0.0817(2)
H7 H -0.5753 -0.2128 0.1177
C9 C -0.7134(4) -0.3081(4) 0.0584(2)
H8 H -0.7669 -0.2840 0.0785
C10 C -0.7492(4) -0.3874(4) 0.0046(3)
C11 C -0.6696(5) -0.4212(5) -0.0247(3)
H9 H -0.6929 -0.4741 -0.0606
C12 C -0.5537(4) -0.3767(5) -0.0010(3)
H10 H -0.5010 -0.3995 -0.0218
C13 C -0.0310(5) -0.1330(5) 0.1601(3)
C14 C 0.4304(4) 0.0460(4) 0.1262(2)
C15 C 0.4385(5) 0.0996(5) 0.0832(3)
H11 H 0.3730 0.1222 0.0622
C16 C 0.5438(5) 0.1205(5) 0.0707(3)
H12 H 0.5469 0.1550 0.0407
C17 C 0.6436(4) 0.0903(4) 0.1023(2)
C18 C 0.6348(4) 0.0404(5) 0.1468(3)
H13 H 0.7004 0.0205 0.1693
C19 C 0.5302(4) 0.0195(4) 0.1583(2)
H14 H 0.5272 -0.0136 0.1888
C20 C 0.7554(4) 0.1056(4) 0.0869(2)
C21 C 0.7616(4) 0.1207(5) 0.0330(3)
H15 H 0.6939 0.1281 0.0065
C22 C 0.8624(5) 0.1257(5) 0.0154(3)
H16 H 0.8623 0.1349 -0.0219
C23 C 0.9657(4) 0.1160(4) 0.0566(3)
C24 C 0.9623(4) 0.1051(4) 0.1117(3)
H17 H 1.0303 0.1014 0.1392
C25 C 0.8603(4) 0.0996(4) 0.1269(3)
H18 H 0.8605 0.0917 0.1644
C26 C 0.3171(4) 0.0203(4) 0.1388(2)
C27 C 0.1369(6) 0.1474(5) 0.2738(3)
H19 H 0.0607 0.1139 0.2612
C28 C 0.1623(8) 0.2545(6) 0.3095(4)
H20 H 0.1043 0.2917 0.3200
C29 C 0.2770(8) 0.3043(6) 0.3289(3)
C30 C 0.3567(7) 0.2452(6) 0.3114(3)
H21 H 0.4338 0.2762 0.3234
C31 C 0.3251(6) 0.1401(5) 0.2761(3)
H22 H 0.3816 0.1012 0.2650
C32 C 0.3113(9) 0.4204(6) 0.3662(4)
H23 H 0.3927 0.4318 0.3871
H24 H 0.2680 0.4334 0.3955
C33 C 0.2874(8) 0.5010(6) 0.3270(3)
H25 H 0.3124 0.4753 0.2916
H26 H 0.2050 0.5031 0.3147
C34 C 0.3470(8) 0.6122(6) 0.3579(4)
H27 H 0.4298 0.6122 0.3664
H28 H 0.3283 0.6356 0.3953
C35 C 0.3112(6) 0.6905(6) 0.3202(3)
C36 C 0.2399(7) 0.7630(6) 0.3354(3)
H29 H 0.2142 0.7646 0.3689
C37 C 0.2060(6) 0.8349(6) 0.3004(3)
H30 H 0.1577 0.8844 0.3115
C38 C 0.3120(5) 0.7671(5) 0.2378(3)
H31 H 0.3395 0.7690 0.2052
C39 C 0.3476(6) 0.6932(5) 0.2701(3)
H32 H 0.3963 0.6448 0.2584
Zn1_2 Zn 0.18055(5) 0.93908(5) 0.20026(3)
N2_2 N 0.2395(4) -0.1638(4) 0.2516(2)
Zn2 Zn 0.71493(6) 0.50873(6) 0.27607(3)
O7 O 0.7088(4) 0.6944(4) 0.2710(2)
O8 O 0.6603(5) 0.6214(4) 0.3368(2)
O9 O 0.4430(6) 1.4021(4) 0.5026(2)
H33 H 0.4490 1.4487 0.4843
O10 O 0.7300(5) 0.3657(6) 0.2973(3)
O11 O 0.8655(7) 0.4706(7) 0.3651(4)
O12 O 1.1440(8) -0.2509(8) 0.4628(4)
H34 H 1.1974 -0.2652 0.4483
N3 N 0.5632(4) 0.4529(4) 0.2100(2)
N4 N -0.1605(4) 0.5060(4) 0.2312(3)
C40 C 0.6322(5) 0.8063(5) 0.3420(3)
C41 C 0.5920(6) 0.8182(5) 0.3911(3)
H35 H 0.5894 0.7603 0.4088
C42 C 0.5549(7) 0.9150(5) 0.4152(3)
H36 H 0.5263 0.9207 0.4480
C43 C 0.5606(6) 1.0030(5) 0.3901(3)
C44 C 0.6039(6) 0.9892(5) 0.3399(3)
H37 H 0.6099 1.0472 0.3225
C45 C 0.6365(5) 0.8936(5) 0.3166(3)
H38 H 0.6625 0.8863 0.2829
C46 C 0.5266(6) 1.1081(5) 0.4172(3)
C47 C 0.4243(7) 1.1123(6) 0.4329(3)
H39 H 0.3731 1.0485 0.4245
C48 C 0.3972(8) 1.2127(7) 0.4615(3)
H40 H 0.3283 1.2143 0.4721
C49 C 0.4694(8) 1.3068(6) 0.4737(3)
C50 C 0.5725(7) 1.3054(6) 0.4573(3)
H41 H 0.6224 1.3696 0.4649
C51 C 0.5986(7) 1.2058(6) 0.4295(3)
H42 H 0.6672 1.2047 0.4186
C52 C 0.6703(6) 0.7013(6) 0.3149(3)
C53 C 0.8670(7) 0.2814(8) 0.3572(4)
C54 C 0.8426(6) 0.1819(8) 0.3164(4)
H43 H 0.7953 0.1748 0.2784
C55 C 0.8878(6) 0.0933(7) 0.3315(3)
H44 H 0.8699 0.0269 0.3030
C56 C 0.9600(6) 0.0976(8) 0.3880(4)
C57 C 0.9824(8) 0.1995(9) 0.4278(4)
H45 H 1.0287 0.2073 0.4660
C58 C 0.9378(9) 0.2919(8) 0.4126(4)
H46 H 0.9565 0.3596 0.4401
C59 C 1.0050(6) 0.0066(8) 0.4061(4)
C60 C 0.9520(8) -0.0967(9) 0.3816(4)
H47 H 0.8841 -0.1082 0.3513
C61 C 0.9947(10) -0.1927(9) 0.3998(5)
C62 C 1.1045(9) -0.1573(11) 0.4485(5)
C63 C 1.1536(10) -0.0576(13) 0.4732(6)
H48 H 1.2197 -0.0407 0.5050
C64 C 1.1045(8) 0.0187(10) 0.4510(4)
H49 H 1.1422 0.0898 0.4678
C65 C 0.8152(10) 0.3775(10) 0.3382(5)
C66 C 0.5264(6) 0.5063(5) 0.1693(3)
H50 H 0.5761 0.5649 0.1680
C67 C 0.4207(5) 0.4816(5) 0.1292(3)
H51 H 0.4004 0.5228 0.1017
C68 C 0.3428(5) 0.3948(4) 0.1292(3)
C69 C 0.3821(6) 0.3373(5) 0.1706(3)
H52 H 0.3345 0.2781 0.1728
C70 C 0.4916(6) 0.3667(5) 0.2089(3)
H53 H 0.5166 0.3244 0.2353
C71 C 0.2264(5) 0.3640(6) 0.0865(3)
H54 H 0.2214 0.2904 0.0624
H55 H 0.2176 0.4127 0.0603
C72 C 0.1266(5) 0.3681(5) 0.1148(3)
H56 H 0.0555 0.3365 0.0842
H57 H 0.1378 0.3230 0.1429
C73 C 0.1135(6) 0.4792(5) 0.1459(3)
H58 H 0.1039 0.5243 0.1178
H59 H 0.1845 0.5101 0.1768
C74 C 0.0147(5) 0.4867(5) 0.1736(3)
C75 C -0.0023(6) 0.5848(5) 0.2063(3)
H60 H 0.0462 0.6481 0.2101
C76 C -0.0883(6) 0.5907(5) 0.2330(4)
H61 H -0.0970 0.6591 0.2541
C77 C -0.1486(7) 0.4121(6) 0.1977(4)
H62 H -0.2016 0.3512 0.1927
C78 C -0.0623(7) 0.3984(6) 0.1694(4)
H63 H -0.0566 0.3295 0.1476
Zn2_2 Zn -0.28507(6) 0.50873(6) 0.27607(3)
N4_2 N 0.8395(4) 0.5060(4) 0.2312(3)
O13 O 1.0028(4) 0.6455(4) 0.0463(2)
H64 H 0.9397 0.6074 0.0413
H65 H 1.0244 0.7094 0.0680
O14 O 0.2369(15) 0.4210(12) 0.5347(6)
H66 H 0.1946 0.4390 0.4993
H67 H 0.2361 0.3696 0.5454
loop_
_geom_bond_atom_site_label_1
_geom_bond_atom_site_label_2
_geom_bond_site_symmetry_1
_geom_bond_site_symmetry_2
Zn1 O1 1_555 1_555
O1 C13 1_555 1_555
O2 Zn1 1_555 1_555
O3 H1 1_555 1_555
O4 Zn1 1_555 1_555
O5 C26 1_555 1_555
O6 H2 1_555 1_555
N1 Zn1 1_555 1_555
N2 C37 1_555 1_555
C1 C2 1_555 1_555
C2 H3 1_555 1_555
C3 C2 1_555 1_555
H4 C3 1_555 1_555
C4 C3 1_555 1_555
C5 C4 1_555 1_555
H5 C5 1_555 1_555
C6 C1 1_555 1_555
H6 C6 1_555 1_555
C7 C4 1_555 1_555
C8 C7 1_555 1_555
H7 C8 1_555 1_555
C9 C8 1_555 1_555
H8 C9 1_555 1_555
C10 O3 1_555 1_555
C11 C10 1_555 1_555
H9 C11 1_555 1_555
C12 C7 1_555 1_555
H10 C12 1_555 1_555
C13 O2 1_555 1_555
C14 C15 1_555 1_555
C15 H11 1_555 1_555
C16 C15 1_555 1_555
H12 C16 1_555 1_555
C17 C16 1_555 1_555
C18 C17 1_555 1_555
H13 C18 1_555 1_555
C19 C14 1_555 1_555
H14 C19 1_555 1_555
C20 C17 1_555 1_555
C21 C20 1_555 1_555
H15 C21 1_555 1_555
C22 C21 1_555 1_555
H16 C22 1_555 1_555
C23 O6 1_555 1_555
C24 C23 1_555 1_555
H17 C24 1_555 1_555
C25 C20 1_555 1_555
H18 C25 1_555 1_555
C26 O4 1_555 1_555
C27 N1 1_555 1_555
H19 C27 1_555 1_555
C28 C27 1_555 1_555
H20 C28 1_555 1_555
C29 C28 1_555 1_555
C30 C29 1_555 1_555
H21 C30 1_555 1_555
C31 N1 1_555 1_555
H22 C31 1_555 1_555
C32 C29 1_555 1_555
H23 C32 1_555 1_555
H24 C32 1_555 1_555
C33 C32 1_555 1_555
H25 C33 1_555 1_555
H26 C33 1_555 1_555
C34 C33 1_555 1_555
H27 C34 1_555 1_555
H28 C34 1_555 1_555
C35 C34 1_555 1_555
C36 C35 1_555 1_555
H29 C36 1_555 1_555
C37 C36 1_555 1_555
H30 C37 1_555 1_555
C38 N2 1_555 1_555
H31 C38 1_555 1_555
C39 C35 1_555 1_555
H32 C39 1_555 1_555
Zn2 O7 1_555 1_555
O7 C52 1_555 1_555
O8 Zn2 1_555 1_555
O9 H33 1_555 1_555
O10 Zn2 1_555 1_555
O11 C65 1_555 1_555
O12 H34 1_555 1_555
N3 Zn2 1_555 1_555
N4 C76 1_555 1_555
C40 C41 1_555 1_555
C41 H35 1_555 1_555
C42 C41 1_555 1_555
H36 C42 1_555 1_555
C43 C42 1_555 1_555
C44 C43 1_555 1_555
H37 C44 1_555 1_555
C45 C40 1_555 1_555
H38 C45 1_555 1_555
C46 C43 1_555 1_555
C47 C46 1_555 1_555
H39 C47 1_555 1_555
C48 C47 1_555 1_555
H40 C48 1_555 1_555
C49 O9 1_555 1_555
C50 C49 1_555 1_555
H41 C50 1_555 1_555
C51 C46 1_555 1_555
H42 C51 1_555 1_555
C52 O8 1_555 1_555
C53 C54 1_555 1_555
C54 H43 1_555 1_555
C55 C54 1_555 1_555
H44 C55 1_555 1_555
C56 C55 1_555 1_555
C57 C56 1_555 1_555
H45 C57 1_555 1_555
C58 C53 1_555 1_555
H46 C58 1_555 1_555
C59 C56 1_555 1_555
C60 C59 1_555 1_555
H47 C60 1_555 1_555
C61 C60 1_555 1_555
C62 O12 1_555 1_555
C63 C62 1_555 1_555
H48 C63 1_555 1_555
C64 C59 1_555 1_555
H49 C64 1_555 1_555
C65 O10 1_555 1_555
C66 N3 1_555 1_555
H50 C66 1_555 1_555
C67 C66 1_555 1_555
H51 C67 1_555 1_555
C68 C67 1_555 1_555
C69 C68 1_555 1_555
H52 C69 1_555 1_555
C70 N3 1_555 1_555
H53 C70 1_555 1_555
C71 C68 1_555 1_555
H54 C71 1_555 1_555
H55 C71 1_555 1_555
C72 C71 1_555 1_555
H56 C72 1_555 1_555
H57 C72 1_555 1_555
C73 C72 1_555 1_555
H58 C73 1_555 1_555
H59 C73 1_555 1_555
C74 C73 1_555 1_555
C75 C74 1_555 1_555
H60 C75 1_555 1_555
C76 C75 1_555 1_555
H61 C76 1_555 1_555
C77 N4 1_555 1_555
H62 C77 1_555 1_555
C78 C74 1_555 1_555
H63 C78 1_555 1_555
O13 H64 1_555 1_555
H65 O13 1_555 1_555
O14 H66 1_555 1_555
H67 O14 1_555 1_555
Zn1_2 N2 1_555 1_555
N2_2 Zn1 1_555 1_555
Zn2_2 N4 1_555 1_555
N4_2 Zn2 1_555 1_555
C1 C13 1_555 1_555
C5 C6 1_555 1_555
C9 C10 1_555 1_555
C11 C12 1_555 1_555
C14 C26 1_555 1_555
C18 C19 1_555 1_555
C22 C23 1_555 1_555
C24 C25 1_555 1_555
C30 C31 1_555 1_555
C38 C39 1_555 1_555
C40 C52 1_555 1_555
C44 C45 1_555 1_555
C48 C49 1_555 1_555
C50 C51 1_555 1_555
C53 C65 1_555 1_555
C57 C58 1_555 1_555
C61 C62 1_555 1_555
C63 C64 1_555 1_555
C69 C70 1_555 1_555
C77 C78 1_555 1_555

#END
