
#######################################################################
#
#                 Cambridge Crystallographic Data Centre
#                                CCDC 
#
#######################################################################
#
# If this CIF has been generated from an entry in the Cambridge 
# Structural Database, then it will include bibliographic, chemical, 
# crystal, experimental, refinement or atomic coordinate data resulting 
# from the CCDC's data processing and validation procedures.
#
#######################################################################

data_WIRFUY
_symmetry_cell_setting           monoclinic
_symmetry_space_group_name_H-M   'C 2/c'
_symmetry_Int_Tables_number      15
_space_group_name_Hall           '-C 2yn'
loop_
_symmetry_equiv_pos_site_id
_symmetry_equiv_pos_as_xyz
1 x,y,z
2 -x,y,1/2-z
3 1/2+x,1/2+y,z
4 1/2-x,1/2+y,1/2-z
5 -x,-y,-z
6 x,-y,1/2+z
7 1/2-x,1/2-y,-z
8 1/2+x,1/2-y,1/2+z
_cell_length_a                   11.018(7)
_cell_length_b                   14.184(7)
_cell_length_c                   24.780(10)
_cell_angle_alpha                90
_cell_angle_beta                 94.50(5)
_cell_angle_gamma                90
_cell_volume                     3860.66
loop_
_atom_site_label
_atom_site_type_symbol
_atom_site_fract_x
_atom_site_fract_y
_atom_site_fract_z
Fe1 Fe 0.2906(1) 0.0456(1) 0.1619(1)
O1 O 0.2544(4) 0.1150(2) 0.2338(1)
C1 C 0.4325(4) -0.2802(3) -0.0357(2)
C2 C 0.3923(3) -0.1919(3) -0.0090(2)
C3 C 0.3372(4) -0.1189(3) -0.0390(2)
C4 C 0.2973(4) -0.0386(3) -0.0147(2)
C5 C 0.3100(3) -0.0296(3) 0.0417(1)
C6 C 0.3670(3) -0.1008(3) 0.0719(1)
C7 C 0.4080(3) -0.1812(3) 0.0465(2)
N1 N 0.3814(3) -0.0914(2) 0.1303(1)
C8 C 0.3232(4) -0.1693(3) 0.1582(2)
C9 C 0.3046(4) -0.1392(3) 0.2152(2)
O2 O 0.2826(4) -0.1976(2) 0.2492(1)
O3 O 0.3120(3) -0.0520(2) 0.2244(1)
C10 C 0.5122(3) -0.0833(3) 0.1494(2)
C11 C 0.5506(3) 0.0178(3) 0.1594(1)
O4 O 0.6599(2) 0.0367(2) 0.1654(1)
O5 O 0.4656(2) 0.0789(2) 0.1619(1)
N2 N 0.2603(3) 0.0496(2) 0.0689(1)
C12 C 0.3126(3) 0.1403(3) 0.0535(2)
C13 C 0.2748(3) 0.2145(3) 0.0930(2)
O6 O 0.2658(3) 0.2969(2) 0.0797(1)
O7 O 0.2536(3) 0.1824(2) 0.1399(1)
C14 C 0.1255(3) 0.0522(3) 0.0584(2)
C15 C 0.0614(4) 0.0093(4) 0.1029(2)
O8 O -0.0464(3) -0.0100(4) 0.0948(2)
O9 O 0.1251(2) -0.0053(2) 0.1482(1)
K1 K 0.1579(1) -0.1042(1) 0.3278(1)
O10 O 1.0000 -0.0146(5) 0.2500
O11 O -0.0263(4) -0.2327(3) 0.3123(2)
H1 H 0.2704(45) 0.0904(41) 0.2655(22)
H2 H 0.2344(48) 0.1705(45) 0.2374(21)
H3 H 0.4145(4) -0.2754(3) -0.0741(2)
H4 H 0.3901(4) -0.3333(3) -0.0222(2)
H5 H 0.5185(4) -0.2884(3) -0.0278(2)
H6 H 0.3269(4) -0.1243(3) -0.0765(2)
H7 H 0.2618(4) 0.0097(3) -0.0358(2)
H8 H 0.4467(3) -0.2285(3) 0.0673(2)
H9 H 0.3745(4) -0.2249(3) 0.1587(2)
H10 H 0.2454(4) -0.1847(3) 0.1391(2)
H11 H 0.5613(3) -0.1106(3) 0.1226(2)
H12 H 0.5274(3) -0.1188(3) 0.1827(2)
H13 H 0.2829(3) 0.1570(3) 0.0169(2)
H14 H 0.4007(3) 0.1359(3) 0.0551(2)
H15 H 0.1026(3) 0.0187(3) 0.0250(2)
H16 H 0.0994(3) 0.1172(3) 0.0536(2)
H17 H -0.0082(44) -0.3021(43) 0.3220(20)
H18 H -0.0004(58) -0.2474(53) 0.2873(24)
K1A K 0.8421(1) -0.1042(1) 0.1722(1)
C1A C 0.5675(4) -0.2802(3) 0.5357(2)
C2A C 0.6077(3) -0.1919(3) 0.5090(2)
C3A C 0.6628(4) -0.1189(3) 0.5390(2)
C4A C 0.7027(4) -0.0386(3) 0.5147(2)
C5A C 0.6900(3) -0.0296(3) 0.4583(1)
C6A C 0.6330(3) -0.1008(3) 0.4281(1)
C7A C 0.5920(3) -0.1812(3) 0.4535(2)
N1A N 0.6186(3) -0.0914(2) 0.3697(1)
C8A C 0.6768(4) -0.1693(3) 0.3418(2)
C9A C 0.6954(4) -0.1392(3) 0.2848(2)
O2A O 0.7174(4) -0.1976(2) 0.2508(1)
O3A O 0.6880(3) -0.0520(2) 0.2756(1)
C10A C 0.4878(3) -0.0833(3) 0.3506(2)
C11A C 0.4494(3) 0.0178(3) 0.3406(1)
O4A O 0.3401(2) 0.0367(2) 0.3346(1)
O5A O 0.5344(2) 0.0789(2) 0.3381(1)
N2A N 0.7397(3) 0.0496(2) 0.4311(1)
C12A C 0.6874(3) 0.1403(3) 0.4465(2)
C13A C 0.7252(3) 0.2145(3) 0.4070(2)
O6A O 0.7342(3) 0.2969(2) 0.4203(1)
O7A O 0.7464(3) 0.1824(2) 0.3601(1)
C14A C 0.8745(3) 0.0522(3) 0.4416(2)
C15A C 0.9386(4) 0.0093(4) 0.3971(2)
O8A O 1.0464(3) -0.0100(4) 0.4052(2)
O9A O 0.8749(2) -0.0053(2) 0.3518(1)
H3A H 0.5855(4) -0.2754(3) 0.5741(2)
H4A H 0.6099(4) -0.3333(3) 0.5222(2)
H5A H 0.4815(4) -0.2884(3) 0.5278(2)
H6A H 0.6731(4) -0.1243(3) 0.5765(2)
H7A H 0.7382(4) 0.0097(3) 0.5358(2)
H8A H 0.5533(3) -0.2285(3) 0.4327(2)
H9A H 0.6255(4) -0.2249(3) 0.3413(2)
H10A H 0.7546(4) -0.1847(3) 0.3609(2)
H11A H 0.4387(3) -0.1106(3) 0.3774(2)
H12A H 0.4726(3) -0.1188(3) 0.3173(2)
H13A H 0.7171(3) 0.1570(3) 0.4831(2)
H14A H 0.5993(3) 0.1359(3) 0.4449(2)
H15A H 0.8974(3) 0.0187(3) 0.4750(2)
H16A H 0.9006(3) 0.1172(3) 0.4464(2)
O11A O 1.0263(4) -0.2327(3) 0.1877(2)
H17A H 1.0082(44) -0.3021(43) 0.1780(20)
H18A H 1.0004(58) -0.2474(53) 0.2127(24)
Fe1A Fe 0.7094(1) 0.0456(1) 0.3381(1)
O1A O 0.7456(4) 0.1150(2) 0.2662(1)
H1A H 0.7296(45) 0.0904(41) 0.2345(22)
H2A H 0.7656(48) 0.1705(45) 0.2626(21)
K1C K 0.3421(1) 0.3958(1) 0.1722(1)
K1A_2 K -0.1579(1) -0.1042(1) 0.1722(1)
O6C O 0.2342(3) -0.2031(2) 0.4203(1)
O8A_2 O 0.0464(3) -0.0100(4) 0.4052(2)
O6B O 0.7658(3) -0.2031(2) 0.0797(1)
O8_2 O 0.9536(3) -0.0100(4) 0.0948(2)
O10_2 O 0.0000 -0.0146(5) 0.2500
K1B K 0.6579(1) 0.3958(1) 0.3278(1)
K1_2 K 1.1579(1) -0.1042(1) 0.3278(1)
loop_
_geom_bond_atom_site_label_1
_geom_bond_atom_site_label_2
_geom_bond_site_symmetry_1
_geom_bond_site_symmetry_2
Fe1 O1 1_555 1_555
O1 H1 1_555 1_555
C1 C2 1_555 1_555
C2 C3 1_555 1_555
C3 C4 1_555 1_555
C4 C5 1_555 1_555
C5 C6 1_555 1_555
C6 C7 1_555 1_555
C7 C2 1_555 1_555
N1 Fe1 1_555 1_555
C8 N1 1_555 1_555
C9 C8 1_555 1_555
O2 C9 1_555 1_555
O3 Fe1 1_555 1_555
C10 N1 1_555 1_555
C11 C10 1_555 1_555
O4 C11 1_555 1_555
O5 Fe1 1_555 1_555
N2 Fe1 1_555 1_555
C12 N2 1_555 1_555
C13 C12 1_555 1_555
O6 C13 1_555 1_555
O7 Fe1 1_555 1_555
C14 N2 1_555 1_555
C15 C14 1_555 1_555
O8 C15 1_555 1_555
O9 Fe1 1_555 1_555
K1 O2 1_555 1_555
O10 K1A 1_555 1_555
O11 K1 1_555 1_555
H2 O1 1_555 1_555
H3 C1 1_555 1_555
H4 C1 1_555 1_555
H5 C1 1_555 1_555
H6 C3 1_555 1_555
H7 C4 1_555 1_555
H8 C7 1_555 1_555
H9 C8 1_555 1_555
H10 C8 1_555 1_555
H11 C10 1_555 1_555
H12 C10 1_555 1_555
H13 C12 1_555 1_555
H14 C12 1_555 1_555
H15 C14 1_555 1_555
H16 C14 1_555 1_555
H17 O11 1_555 1_555
H18 O11 1_555 1_555
K1A O4 1_555 1_555
C1A C2A 1_555 1_555
C2A C3A 1_555 1_555
C3A C4A 1_555 1_555
C4A C5A 1_555 1_555
C5A C6A 1_555 1_555
C6A C7A 1_555 1_555
C7A C2A 1_555 1_555
N1A C6A 1_555 1_555
C8A N1A 1_555 1_555
C9A C8A 1_555 1_555
O2A K1A 1_555 1_555
O3A C9A 1_555 1_555
C10A N1A 1_555 1_555
C11A C10A 1_555 1_555
O4A K1 1_555 1_555
O5A C11A 1_555 1_555
N2A C5A 1_555 1_555
C12A N2A 1_555 1_555
C13A C12A 1_555 1_555
O6A C13A 1_555 1_555
O7A C13A 1_555 1_555
C14A N2A 1_555 1_555
C15A C14A 1_555 1_555
O8A C15A 1_555 1_555
O9A C15A 1_555 1_555
H3A C1A 1_555 1_555
H4A C1A 1_555 1_555
H5A C1A 1_555 1_555
H6A C3A 1_555 1_555
H7A C4A 1_555 1_555
H8A C7A 1_555 1_555
H9A C8A 1_555 1_555
H10A C8A 1_555 1_555
H11A C10A 1_555 1_555
H12A C10A 1_555 1_555
H13A C12A 1_555 1_555
H14A C12A 1_555 1_555
H15A C14A 1_555 1_555
H16A C14A 1_555 1_555
O11A K1A 1_555 1_555
H17A O11A 1_555 1_555
H18A O11A 1_555 1_555
Fe1A N1A 1_555 1_555
O1A Fe1A 1_555 1_555
H1A O1A 1_555 1_555
H2A O1A 1_555 1_555
K1C O6 1_555 1_555
K1A_2 O8 1_555 1_555
O6C K1 1_555 1_555
O8A_2 K1 1_555 1_555
O6B K1A 1_555 1_555
O8_2 K1A 1_555 1_555
O10_2 K1 1_555 1_555
K1B O6A 1_555 1_555
K1_2 O10 1_555 1_555
C5 N2 1_555 1_555
C6 N1 1_555 1_555
C9 O3 1_555 1_555
C11 O5 1_555 1_555
C13 O7 1_555 1_555
C15 O9 1_555 1_555
C9A O2A 1_555 1_555
O3A Fe1A 1_555 1_555
C11A O4A 1_555 1_555
O5A Fe1A 1_555 1_555
N2A Fe1A 1_555 1_555
O7A Fe1A 1_555 1_555
O8A K1_2 1_555 1_555
O9A Fe1A 1_555 1_555
K1A_2 O10_2 1_555 1_555

#END
