
#######################################################################
#
#                 Cambridge Crystallographic Data Centre
#                                CCDC 
#
#######################################################################
#
# If this CIF has been generated from an entry in the Cambridge 
# Structural Database, then it will include bibliographic, chemical, 
# crystal, experimental, refinement or atomic coordinate data resulting 
# from the CCDC's data processing and validation procedures.
#
#######################################################################

data_WIRFEI
_symmetry_cell_setting           monoclinic
_symmetry_space_group_name_H-M   'P 21/n'
_symmetry_Int_Tables_number      14
_space_group_name_Hall           '-P 2yn'
loop_
_symmetry_equiv_pos_site_id
_symmetry_equiv_pos_as_xyz
1 x,y,z
2 1/2-x,1/2+y,1/2-z
3 -x,-y,-z
4 1/2+x,1/2-y,1/2+z
_cell_length_a                   6.141(1)
_cell_length_b                   19.570(2)
_cell_length_c                   11.366(1)
_cell_angle_alpha                90
_cell_angle_beta                 91.64(1)
_cell_angle_gamma                90
_cell_volume                     1365.4
loop_
_atom_site_label
_atom_site_type_symbol
_atom_site_fract_x
_atom_site_fract_y
_atom_site_fract_z
Mn1 Mn 0.24529(8) 0.03272(3) 0.44850(4)
O1 O 0.2626(4) 0.1364(1) 0.5132(2)
O2 O 0.2867(4) 0.0615(1) 0.2687(2)
O3 O -0.0405(4) 0.0568(1) 0.5517(2)
O4 O 0.5678(4) 0.0059(1) 0.3977(2)
N1 N 0.1336(4) 0.1480(1) 0.5996(2)
N2 N 0.4833(4) 0.0513(1) 0.2313(2)
N3 N -0.0253(4) 0.1089(1) 0.6247(2)
N4 N 0.6343(4) 0.0227(2) 0.2926(2)
C1 C 0.1768(5) 0.2066(2) 0.6736(3)
C2 C 0.5314(6) 0.0728(2) 0.1129(3)
C3 C 0.0207(6) 0.2296(2) 0.7491(3)
C4 C 0.7320(7) 0.0608(3) 0.0679(4)
C5 C 0.0733(8) 0.2825(2) 0.8255(4)
C6 C 0.7688(8) 0.0793(3) -0.0475(4)
C7 C 0.2756(8) 0.3122(2) 0.8252(4)
C8 C 0.6100(8) 0.1088(2) -0.1142(4)
C9 C 0.4269(7) 0.2898(2) 0.7484(4)
C10 C 0.4131(9) 0.1220(3) -0.0675(4)
C11 C 0.3782(7) 0.2369(2) 0.6710(4)
C12 C 0.3724(7) 0.1036(3) 0.0477(4)
H1 H -0.117(5) 0.211(2) 0.749(3)
H2 H 0.828(7) 0.046(2) 0.114(4)
H3 H -0.035(6) 0.296(2) 0.872(4)
H4 H 0.907(8) 0.070(2) -0.082(4)
H5 H 0.302(7) 0.350(2) 0.883(4)
H6 H 0.630(6) 0.122(2) -0.191(4)
H7 H 0.569(6) 0.310(2) 0.748(3)
H8 H 0.297(8) 0.138(3) -0.113(5)
H9 H 0.466(6) 0.221(2) 0.622(4)
H10 H 0.245(6) 0.113(2) 0.079(3)
O3B O 0.0405(4) -0.0568(1) 0.4483(2)
Mn1B Mn -0.24529(8) -0.03272(3) 0.55150(4)
O4B O 0.4322(4) -0.0059(1) 0.6023(2)
Mn1B_2 Mn 0.75471(8) -0.03272(3) 0.55150(4)
loop_
_geom_bond_atom_site_label_1
_geom_bond_atom_site_label_2
_geom_bond_site_symmetry_1
_geom_bond_site_symmetry_2
Mn1 O1 1_555 1_555
O1 N1 1_555 1_555
O2 Mn1 1_555 1_555
O3 Mn1 1_555 1_555
O4 Mn1 1_555 1_555
N1 N3 1_555 1_555
N2 O2 1_555 1_555
N3 O3 1_555 1_555
N4 O4 1_555 1_555
C1 N1 1_555 1_555
C2 N2 1_555 1_555
C3 C1 1_555 1_555
C4 C2 1_555 1_555
C5 C3 1_555 1_555
C6 C4 1_555 1_555
C7 C5 1_555 1_555
C8 C6 1_555 1_555
C9 C7 1_555 1_555
C10 C8 1_555 1_555
C11 C1 1_555 1_555
C12 C2 1_555 1_555
H1 C3 1_555 1_555
H2 C4 1_555 1_555
H3 C5 1_555 1_555
H4 C6 1_555 1_555
H5 C7 1_555 1_555
H6 C8 1_555 1_555
H7 C9 1_555 1_555
H8 C10 1_555 1_555
H9 C11 1_555 1_555
H10 C12 1_555 1_555
O3B Mn1 1_555 1_555
Mn1B O3 1_555 1_555
O4B Mn1 1_555 1_555
Mn1B_2 O4 1_555 1_555
N2 N4 1_555 1_555
C9 C11 1_555 1_555
C10 C12 1_555 1_555
O3B Mn1B 1_555 1_555
O4B Mn1B_2 1_555 1_555

#END
