
#######################################################################
#
#                 Cambridge Crystallographic Data Centre
#                                CCDC 
#
#######################################################################
#
# If this CIF has been generated from an entry in the Cambridge 
# Structural Database, then it will include bibliographic, chemical, 
# crystal, experimental, refinement or atomic coordinate data resulting 
# from the CCDC's data processing and validation procedures.
#
#######################################################################

data_WIRGIN
_symmetry_cell_setting           monoclinic
_symmetry_space_group_name_H-M   'P 21/n'
_symmetry_Int_Tables_number      14
_space_group_name_Hall           '-P 2yn'
loop_
_symmetry_equiv_pos_site_id
_symmetry_equiv_pos_as_xyz
1 x,y,z
2 1/2-x,1/2+y,1/2-z
3 -x,-y,-z
4 1/2+x,1/2-y,1/2+z
_cell_length_a                   10.4375(7)
_cell_length_b                   15.835(1)
_cell_length_c                   11.0997(8)
_cell_angle_alpha                90
_cell_angle_beta                 104.151(6)
_cell_angle_gamma                90
_cell_volume                     1778.86
loop_
_atom_site_label
_atom_site_type_symbol
_atom_site_fract_x
_atom_site_fract_y
_atom_site_fract_z
Sn1 Sn 0.16188(2) 0.20067(1) 0.38845(2)
Cl1 Cl 0.3826(1) 0.17381(8) 0.3414(1)
Cl2 Cl 0.1764(1) 0.08925(8) 0.5527(1)
O1 O -0.0363(3) 0.2487(2) 0.4224(3)
S1 S -0.1648(1) 0.19913(1) 0.4040(1)
C1 C 0.2429(5) 0.2952(3) 0.5187(5)
C2 C 0.0602(5) 0.1177(3) 0.2486(4)
C3 C -0.2917(4) 0.1172(3) 0.5603(4)
C4 C -0.1701(4) 0.1696(3) 0.5591(4)
C5 C -0.2929(5) 0.2772(3) 0.3646(5)
C6 C -0.2850(6) 0.3486(4) 0.4530(6)
C7 C -0.3910(8) 0.4145(5) 0.4017(8)
O2 O 0.1234(3) 0.2970(2) 0.2266(3)
S2 S 0.1819(1) 0.38357(6) 0.21418(9)
C8 C 0.0457(5) 0.4549(3) 0.1895(4)
C9 C 0.0073(7) 0.4680(3) 0.3130(6)
C10 C -0.0968(7) 0.5346(4) 0.3039(6)
H1 H 0.3164 0.2572 0.5806
H2 H 0.1812 0.3258 0.5708
H3 H 0.2914 0.3425 0.4753
H4 H -0.0112 0.0815 0.2828
H5 H 0.1286 0.0752 0.2206
H6 H 0.0098 0.1550 0.1699
H7 H -0.3683 0.1410 0.5025
H8 H -0.2796 0.0599 0.5343
H9 H -0.0915 0.1374 0.5969
H10 H -0.1702 0.2202 0.6084
H11 H -0.2922 0.3004 0.2838
H12 H -0.3772 0.2492 0.3564
H13 H -0.1984 0.3746 0.4678
H14 H -0.2965 0.3274 0.5317
H15 H -0.3768 0.4662 0.4671
H16 H -0.4895 0.3893 0.3896
H17 H -0.3782 0.4368 0.3135
H18 H 0.0699 0.5085 0.1590
H19 H -0.0286 0.4319 0.1281
H20 H -0.0251 0.4151 0.3384
H21 H 0.0852 0.4841 0.3764
H22 H -0.1251 0.5421 0.3905
H23 H -0.1768 0.5055 0.2362
H24 H -0.0751 0.5957 0.2704
C3C C 0.2083(4) 0.3828(3) 0.0603(4)
C4C C 0.3299(4) 0.3304(3) 0.0591(4)
H9C H 0.4085 0.3626 0.0969
H10C H 0.3298 0.2798 0.1084
H7C H 0.1317 0.3590 0.0025
H8C H 0.2204 0.4401 0.0343
loop_
_geom_bond_atom_site_label_1
_geom_bond_atom_site_label_2
_geom_bond_site_symmetry_1
_geom_bond_site_symmetry_2
Sn1 Cl1 1_555 1_555
Cl2 Sn1 1_555 1_555
O1 Sn1 1_555 1_555
S1 O1 1_555 1_555
C1 Sn1 1_555 1_555
C2 Sn1 1_555 1_555
C3 C4 1_555 1_555
C4 S1 1_555 1_555
C5 S1 1_555 1_555
C6 C5 1_555 1_555
C7 C6 1_555 1_555
O2 Sn1 1_555 1_555
S2 O2 1_555 1_555
C8 S2 1_555 1_555
C9 C8 1_555 1_555
C10 C9 1_555 1_555
H1 C1 1_555 1_555
H2 C1 1_555 1_555
H3 C1 1_555 1_555
H4 C2 1_555 1_555
H5 C2 1_555 1_555
H6 C2 1_555 1_555
H7 C3 1_555 1_555
H8 C3 1_555 1_555
H9 C4 1_555 1_555
H10 C4 1_555 1_555
H11 C5 1_555 1_555
H12 C5 1_555 1_555
H13 C6 1_555 1_555
H14 C6 1_555 1_555
H15 C7 1_555 1_555
H16 C7 1_555 1_555
H17 C7 1_555 1_555
H18 C8 1_555 1_555
H19 C8 1_555 1_555
H20 C9 1_555 1_555
H21 C9 1_555 1_555
H22 C10 1_555 1_555
H23 C10 1_555 1_555
H24 C10 1_555 1_555
C3C S2 1_555 1_555
C4C C3C 1_555 1_555
H9C C4C 1_555 1_555
H10C C4C 1_555 1_555
H7C C3C 1_555 1_555
H8C C3C 1_555 1_555

#END
