
#######################################################################
#
#                 Cambridge Crystallographic Data Centre
#                                CCDC 
#
#######################################################################
#
# If this CIF has been generated from an entry in the Cambridge 
# Structural Database, then it will include bibliographic, chemical, 
# crystal, experimental, refinement or atomic coordinate data resulting 
# from the CCDC's data processing and validation procedures.
#
#######################################################################

data_WIRHUC
_symmetry_cell_setting           monoclinic
_symmetry_space_group_name_H-M   'C 2/c'
_symmetry_Int_Tables_number      15
_space_group_name_Hall           '-C 2yn'
loop_
_symmetry_equiv_pos_site_id
_symmetry_equiv_pos_as_xyz
1 x,y,z
2 -x,y,1/2-z
3 1/2+x,1/2+y,z
4 1/2-x,1/2+y,1/2-z
5 -x,-y,-z
6 x,-y,1/2+z
7 1/2-x,1/2-y,-z
8 1/2+x,1/2-y,1/2+z
_cell_length_a                   17.7765(14)
_cell_length_b                   10.2326(8)
_cell_length_c                   20.9614(17)
_cell_angle_alpha                90
_cell_angle_beta                 108.6810(10)
_cell_angle_gamma                90
_cell_volume                     3612
loop_
_atom_site_label
_atom_site_type_symbol
_atom_site_fract_x
_atom_site_fract_y
_atom_site_fract_z
O1 O 0.4963(3) 0.9152(5) 0.1112(3)
H1 H 0.4755 0.9712 0.1283
H2 H 0.4556 0.8788 0.0753
C1 C 0.0916(3) 0.2850(6) -0.2005(3)
H3 H 0.0714 0.3195 -0.2437
C2 C 0.1414(4) 0.1798(6) -0.1901(3)
H4 H 0.1534 0.1449 -0.2267
C3 C 0.1526(3) 0.1794(5) -0.0793(3)
C4 C 0.1020(3) 0.2861(6) -0.0900(3)
H5 H 0.0894 0.3213 -0.0538
C5 C 0.1873(3) 0.1179(5) -0.0131(3)
C6 C 0.2171(3) 0.0678(5) 0.0889(2)
C7 C 0.2263(3) 0.0652(5) 0.1610(3)
C8 C 0.1795(3) 0.1386(6) 0.1885(3)
H6 H 0.1382 0.1890 0.1611
C9 C 0.1947(4) 0.1365(6) 0.2574(3)
H7 H 0.1620 0.1852 0.2752
C10 C 0.2983(4) -0.0036(6) 0.2728(3)
H8 H 0.3391 -0.0534 0.3013
C11 C 0.2867(4) -0.0077(6) 0.2049(3)
H9 H 0.3193 -0.0594 0.1884
C12 C 0.3998(3) -0.2714(5) -0.0423(3)
C13 C 0.4531(3) -0.3883(5) -0.0199(3)
C14 C 0.4764(3) -0.4603(6) -0.0664(3)
H10 H 0.4607 -0.4339 -0.1112
C15 C 0.4775(3) -0.4291(5) 0.0469(3)
H11 H 0.4627 -0.3814 0.0787
Cd1 Cd 0.28328(2) -0.07525(4) -0.083804(17)
N1 N 0.1731(3) 0.1256(5) -0.1302(2)
N2 N 0.0708(3) 0.3399(5) -0.1511(2)
N3 N 0.1745(3) 0.1572(4) 0.0441(2)
N4 N 0.2346(3) 0.0142(4) -0.0047(2)
N5 N 0.2539(3) -0.0195(4) 0.0620(2)
N6 N 0.2537(3) 0.0685(4) 0.2997(2)
O2 O 0.3753(2) 0.0912(4) -0.0676(2)
H12 H 0.4032 0.0796 -0.0933
H13 H 0.3511 0.1639 -0.0768
O3 O 0.1867(2) -0.2347(3) -0.09931(18)
H14 H 0.2115 -0.3064 -0.0879
H15 H 0.1607 -0.2346 -0.0716
O4 O 0.3781(2) -0.2074(4) 0.0008(2)
O5 O 0.3760(3) -0.2407(5) -0.1029(2)
C12D C 0.6002(3) -0.7286(5) 0.0423(3)
C13D C 0.5469(3) -0.6117(5) 0.0199(3)
C14D C 0.5236(3) -0.5397(6) 0.0664(3)
H10D H 0.5393 -0.5661 0.1112
C15D C 0.5225(3) -0.5709(5) -0.0469(3)
H11D H 0.5373 -0.6186 -0.0787
O4D O 0.6219(2) -0.7926(4) -0.0008(2)
O5D O 0.6240(3) -0.7593(5) 0.1029(2)
C1D C 0.9084(3) -1.2850(6) 0.2005(3)
H3D H 0.9286 -1.3195 0.2437
C2D C 0.8586(4) -1.1798(6) 0.1901(3)
H4D H 0.8466 -1.1449 0.2267
C3D C 0.8474(3) -1.1794(5) 0.0793(3)
C4D C 0.8980(3) -1.2861(6) 0.0900(3)
H5D H 0.9106 -1.3213 0.0538
C5D C 0.8127(3) -1.1179(5) 0.0131(3)
C6D C 0.7829(3) -1.0678(5) -0.0889(2)
C7D C 0.7737(3) -1.0652(5) -0.1610(3)
C8D C 0.8205(3) -1.1386(6) -0.1885(3)
H6D H 0.8618 -1.1890 -0.1611
C9D C 0.8053(4) -1.1365(6) -0.2574(3)
H7D H 0.8380 -1.1852 -0.2752
C10D C 0.7017(4) -0.9964(6) -0.2728(3)
H8D H 0.6609 -0.9466 -0.3013
C11D C 0.7133(4) -0.9923(6) -0.2049(3)
H9D H 0.6807 -0.9406 -0.1884
Cd1D Cd 0.71672(2) -0.92475(4) 0.083804(17)
N1D N 0.8269(3) -1.1256(5) 0.1302(2)
N2D N 0.9292(3) -1.3399(5) 0.1511(2)
N3D N 0.8255(3) -1.1572(4) -0.0441(2)
N4D N 0.7654(3) -1.0142(4) 0.0047(2)
N5D N 0.7461(3) -0.9805(4) -0.0620(2)
N6D N 0.7463(3) -1.0685(4) -0.2997(2)
O2D O 0.6247(2) -1.0912(4) 0.0676(2)
H12D H 0.5968 -1.0796 0.0933
H13D H 0.6489 -1.1639 0.0768
O3D O 0.8133(2) -0.7653(3) 0.09931(18)
H14D H 0.7885 -0.6936 0.0879
H15D H 0.8393 -0.7654 0.0716
Cd1A Cd 0.71672(2) -1.07525(4) -0.416196(17)
Cd1E Cd 0.28328(2) 0.07525(4) 0.416196(17)
N6A N 0.7463(3) -0.9315(4) 0.2003(2)
N6E N 0.2537(3) -0.0685(4) -0.2003(2)
loop_
_geom_bond_atom_site_label_1
_geom_bond_atom_site_label_2
_geom_bond_site_symmetry_1
_geom_bond_site_symmetry_2
O1 H1 1_555 1_555
H2 O1 1_555 1_555
C1 H3 1_555 1_555
C2 C1 1_555 1_555
H4 C2 1_555 1_555
C3 C4 1_555 1_555
C4 H5 1_555 1_555
C5 C3 1_555 1_555
C6 C7 1_555 1_555
C7 C8 1_555 1_555
C8 H6 1_555 1_555
C9 C8 1_555 1_555
H7 C9 1_555 1_555
C10 H8 1_555 1_555
C11 C7 1_555 1_555
H9 C11 1_555 1_555
C12 C13 1_555 1_555
C13 C14 1_555 1_555
C14 H10 1_555 1_555
C15 C13 1_555 1_555
H11 C15 1_555 1_555
Cd1 N1 1_555 1_555
N1 C2 1_555 1_555
N2 C1 1_555 1_555
N3 C5 1_555 1_555
N4 C5 1_555 1_555
N5 C6 1_555 1_555
N6 C9 1_555 1_555
O2 Cd1 1_555 1_555
H12 O2 1_555 1_555
H13 O2 1_555 1_555
O3 Cd1 1_555 1_555
H14 O3 1_555 1_555
H15 O3 1_555 1_555
O4 C12 1_555 1_555
O5 C12 1_555 1_555
C12D C13D 1_555 1_555
C13D C14D 1_555 1_555
C14D C15 1_555 1_555
H10D C14D 1_555 1_555
C15D C14 1_555 1_555
H11D C15D 1_555 1_555
O4D C12D 1_555 1_555
O5D C12D 1_555 1_555
C1D H3D 1_555 1_555
C2D C1D 1_555 1_555
H4D C2D 1_555 1_555
C3D C4D 1_555 1_555
C4D H5D 1_555 1_555
C5D C3D 1_555 1_555
C6D C7D 1_555 1_555
C7D C8D 1_555 1_555
C8D H6D 1_555 1_555
C9D C8D 1_555 1_555
H7D C9D 1_555 1_555
C10D H8D 1_555 1_555
C11D C7D 1_555 1_555
H9D C11D 1_555 1_555
Cd1D O4D 1_555 1_555
N1D C2D 1_555 1_555
N2D C1D 1_555 1_555
N3D C5D 1_555 1_555
N4D C5D 1_555 1_555
N5D C6D 1_555 1_555
N6D C9D 1_555 1_555
O2D Cd1D 1_555 1_555
H12D O2D 1_555 1_555
H13D O2D 1_555 1_555
O3D Cd1D 1_555 1_555
H14D O3D 1_555 1_555
H15D O3D 1_555 1_555
Cd1A N6D 1_555 1_555
Cd1E N6 1_555 1_555
N6A Cd1D 1_555 1_555
N6E Cd1 1_555 1_555
C3 N1 1_555 1_555
C4 N2 1_555 1_555
C6 N3 1_555 1_555
C10 C11 1_555 1_555
C10 N6 1_555 1_555
Cd1 N4 1_555 1_555
Cd1 O4 1_555 1_555
Cd1 O5 1_555 1_555
N4 N5 1_555 1_555
C13D C15D 1_555 1_555
O5D Cd1D 1_555 1_555
C3D N1D 1_555 1_555
C4D N2D 1_555 1_555
C6D N3D 1_555 1_555
C10D C11D 1_555 1_555
C10D N6D 1_555 1_555
Cd1D N1D 1_555 1_555
Cd1D N4D 1_555 1_555
N4D N5D 1_555 1_555

#END
