
#######################################################################
#
#                 Cambridge Crystallographic Data Centre
#                                CCDC 
#
#######################################################################
#
# If this CIF has been generated from an entry in the Cambridge 
# Structural Database, then it will include bibliographic, chemical, 
# crystal, experimental, refinement or atomic coordinate data resulting 
# from the CCDC's data processing and validation procedures.
#
#######################################################################

data_WIRJEO
_symmetry_cell_setting           monoclinic
_symmetry_space_group_name_H-M   'C 2'
_symmetry_Int_Tables_number      5
_space_group_name_Hall           'C 2y'
loop_
_symmetry_equiv_pos_site_id
_symmetry_equiv_pos_as_xyz
1 x,y,z
2 -x,y,-z
3 1/2+x,1/2+y,z
4 1/2-x,1/2+y,-z
_cell_length_a                   21.3268(4)
_cell_length_b                   6.66500(10)
_cell_length_c                   22.7400(4)
_cell_angle_alpha                90
_cell_angle_beta                 116.166(2)
_cell_angle_gamma                90
_cell_volume                     2901.09
loop_
_atom_site_label
_atom_site_type_symbol
_atom_site_fract_x
_atom_site_fract_y
_atom_site_fract_z
Hg1 Hg 1.0000 2.21725(2) 0.5000
Hg2 Hg 0.5000 -0.462078(14) 0.0000
Cl1 Cl 0.42839(5) -0.5373(2) 0.05105(5)
Cl2 Cl 1.07719(5) 2.2914(2) 0.45495(5)
N1 N 0.56762(13) -0.1829(5) 0.06850(13)
C1 C 0.62679(16) -0.1148(8) 0.06811(16)
H1 H 0.6476 -0.1910 0.0460
C2 C 0.65851(16) 0.0619(8) 0.09862(15)
H2 H 0.7001 0.1056 0.0971
C3 C 0.62949(16) 0.1748(7) 0.13144(16)
C4 C 0.56786(18) 0.1074(7) 0.13071(18)
H3 H 0.5454 0.1820 0.1516
C5 C 0.53950(18) -0.0708(7) 0.09904(18)
H4 H 0.4973 -0.1159 0.0991
C6 C 0.66106(17) 0.3591(7) 0.16387(16)
C7 C 0.68929(15) 0.5083(7) 0.19181(15)
C8 C 0.72255(16) 0.6892(7) 0.22314(15)
C9 C 0.78341(16) 0.7549(6) 0.21972(15)
C10 C 0.81392(16) 0.9356(6) 0.24778(15)
H5 H 0.8539 0.9818 0.2436
C11 C 0.78650(15) 1.0497(7) 0.28186(15)
C12 C 0.72653(17) 0.9821(6) 0.28754(16)
C13 C 0.69452(16) 0.8062(6) 0.25709(16)
H6 H 0.6530 0.7638 0.2591
O1 O 0.80901(12) 0.6278(4) 0.18857(12)
C14 C 0.86583(16) 0.6946(9) 0.17605(17)
H7 H 0.9055 0.7383 0.2173
H8 H 0.8510 0.8089 0.1451
C15 C 0.88715(14) 0.5174(5) 0.14665(14)
H9 H 0.9200 0.5697 0.1296
C16 C 0.92691(18) 0.3625(7) 0.19890(16)
H10 H 0.9684 0.4250 0.2334
H11 H 0.9412 0.2517 0.1792
H12 H 0.8967 0.3109 0.2178
C17 C 0.82644(14) 0.4220(4) 0.08957(13)
H13 H 0.7956 0.3561 0.1059
H14 H 0.8446 0.3168 0.0704
C18 C 0.78357(19) 0.5701(9) 0.03626(18)
H15 H 0.7619 0.6679 0.0538
H16 H 0.7471 0.4979 -0.0004
H17 H 0.8140 0.6401 0.0209
O2 O 0.70479(12) 1.1054(4) 0.32253(12)
C19 C 0.64707(17) 1.0453(9) 0.33396(17)
H18 H 0.6553 0.9101 0.3540
H19 H 0.6038 1.0414 0.2922
C20 C 0.64038(16) 1.2002(5) 0.38041(15)
H20 H 0.5987 1.1633 0.3874
C21 C 0.7037(2) 1.1935(10) 0.44636(18)
H21 H 0.7461 1.2140 0.4404
H22 H 0.7061 1.0626 0.4669
H23 H 0.7001 1.2995 0.4745
C22 C 0.62865(15) 1.4107(5) 0.35190(15)
H24 H 0.6694 1.4481 0.3442
H25 H 0.6271 1.5048 0.3849
C23 C 0.5625(2) 1.4397(9) 0.2881(2)
H26 H 0.5685 1.3755 0.2521
H27 H 0.5539 1.5834 0.2790
H28 H 0.5228 1.3788 0.2921
C24 C 0.81967(16) 1.2330(8) 0.31408(14)
C25 C 0.84711(17) 1.3829(7) 0.34139(16)
C26 C 0.87789(16) 1.5675(7) 0.37301(15)
C27 C 0.93840(17) 1.6427(7) 0.37134(16)
H29 H 0.9605 1.5703 0.3497
C28 C 0.96563(17) 1.8237(7) 0.40166(16)
H30 H 1.0071 1.8730 0.4009
N2 N 0.93584(13) 1.9319(6) 0.43203(13)
C29 C 0.87832(18) 1.8615(8) 0.43326(16)
H31 H 0.8572 1.9385 0.4549
C30 C 0.84724(17) 1.6812(8) 0.40459(16)
H32 H 0.8059 1.6366 0.4065
Cl1A Cl 0.57161(5) -0.5373(2) -0.05105(5)
N1A N 0.43238(13) -0.1829(5) -0.06850(13)
C1A C 0.37321(16) -0.1148(8) -0.06811(16)
H1A H 0.3524 -0.1910 -0.0460
C2A C 0.34149(16) 0.0619(8) -0.09862(15)
H2A H 0.2999 0.1056 -0.0971
C3A C 0.37051(16) 0.1748(7) -0.13144(16)
C4A C 0.43214(18) 0.1074(7) -0.13071(18)
H3A H 0.4546 0.1820 -0.1516
C5A C 0.46050(18) -0.0708(7) -0.09904(18)
H4A H 0.5027 -0.1159 -0.0991
C6A C 0.33894(17) 0.3591(7) -0.16387(16)
C7A C 0.31071(15) 0.5083(7) -0.19181(15)
C8A C 0.27745(16) 0.6892(7) -0.22314(15)
C9A C 0.21659(16) 0.7549(6) -0.21972(15)
C10A C 0.18608(16) 0.9356(6) -0.24778(15)
H5A H 0.1461 0.9818 -0.2436
C11A C 0.21350(15) 1.0497(7) -0.28186(15)
C12A C 0.27347(17) 0.9821(6) -0.28754(16)
C13A C 0.30548(16) 0.8062(6) -0.25709(16)
H6A H 0.3470 0.7638 -0.2591
O1A O 0.19099(12) 0.6278(4) -0.18857(12)
C14A C 0.13417(16) 0.6946(9) -0.17605(17)
H7A H 0.0945 0.7383 -0.2173
H8A H 0.1490 0.8089 -0.1451
C15A C 0.11285(14) 0.5174(5) -0.14665(14)
H9A H 0.0800 0.5697 -0.1296
C16A C 0.07309(18) 0.3625(7) -0.19890(16)
H10A H 0.0316 0.4250 -0.2334
H11A H 0.0588 0.2517 -0.1792
H12A H 0.1033 0.3109 -0.2178
C17A C 0.17356(14) 0.4220(4) -0.08957(13)
H13A H 0.2044 0.3561 -0.1059
H14A H 0.1554 0.3168 -0.0704
C18A C 0.21643(19) 0.5701(9) -0.03626(18)
H15A H 0.2381 0.6679 -0.0538
H16A H 0.2529 0.4979 0.0004
H17A H 0.1860 0.6401 -0.0209
O2A O 0.29521(12) 1.1054(4) -0.32253(12)
C19A C 0.35293(17) 1.0453(9) -0.33396(17)
H18A H 0.3447 0.9101 -0.3540
H19A H 0.3962 1.0414 -0.2922
C20A C 0.35962(16) 1.2002(5) -0.38041(15)
H20A H 0.4013 1.1633 -0.3874
C21A C 0.2963(2) 1.1935(10) -0.44636(18)
H21A H 0.2539 1.2140 -0.4404
H22A H 0.2939 1.0626 -0.4669
H23A H 0.2999 1.2995 -0.4745
C22A C 0.37135(15) 1.4107(5) -0.35190(15)
H24A H 0.3306 1.4481 -0.3442
H25A H 0.3729 1.5048 -0.3849
C23A C 0.4375(2) 1.4397(9) -0.2881(2)
H26A H 0.4315 1.3755 -0.2521
H27A H 0.4461 1.5834 -0.2790
H28A H 0.4772 1.3788 -0.2921
C24A C 0.18033(16) 1.2330(8) -0.31408(14)
C25A C 0.15289(17) 1.3829(7) -0.34139(16)
C26A C 0.12211(16) 1.5675(7) -0.37301(15)
C27A C 0.06160(17) 1.6427(7) -0.37134(16)
H29A H 0.0395 1.5703 -0.3497
C28A C 0.03437(17) 1.8237(7) -0.40166(16)
H30A H -0.0071 1.8730 -0.4009
N2A N 0.06416(13) 1.9319(6) -0.43203(13)
C29A C 0.12168(18) 1.8615(8) -0.43326(16)
H31A H 0.1428 1.9385 -0.4549
C30A C 0.15276(17) 1.6812(8) -0.40459(16)
H32A H 0.1941 1.6366 -0.4065
Cl2A Cl 0.92281(5) 2.2914(2) 0.54505(5)
Hg1_2 Hg 0.0000 2.21725(2) -0.5000
N2A_2 N 1.06416(13) 1.9319(6) 0.56797(13)
loop_
_geom_bond_atom_site_label_1
_geom_bond_atom_site_label_2
_geom_bond_site_symmetry_1
_geom_bond_site_symmetry_2
Hg1 Cl2 1_555 1_555
Hg2 Cl1 1_555 1_555
N1 Hg2 1_555 1_555
C1 N1 1_555 1_555
H1 C1 1_555 1_555
C2 C1 1_555 1_555
H2 C2 1_555 1_555
C3 C2 1_555 1_555
C4 C3 1_555 1_555
H3 C4 1_555 1_555
C5 N1 1_555 1_555
H4 C5 1_555 1_555
C6 C3 1_555 1_555
C7 C6 1_555 1_555
C8 C7 1_555 1_555
C9 C8 1_555 1_555
C10 C9 1_555 1_555
H5 C10 1_555 1_555
C11 C10 1_555 1_555
C12 C11 1_555 1_555
C13 C8 1_555 1_555
H6 C13 1_555 1_555
O1 C9 1_555 1_555
C14 O1 1_555 1_555
H7 C14 1_555 1_555
H8 C14 1_555 1_555
C15 C14 1_555 1_555
H9 C15 1_555 1_555
C16 C15 1_555 1_555
H10 C16 1_555 1_555
H11 C16 1_555 1_555
H12 C16 1_555 1_555
C17 C15 1_555 1_555
H13 C17 1_555 1_555
H14 C17 1_555 1_555
C18 C17 1_555 1_555
H15 C18 1_555 1_555
H16 C18 1_555 1_555
H17 C18 1_555 1_555
O2 C12 1_555 1_555
C19 O2 1_555 1_555
H18 C19 1_555 1_555
H19 C19 1_555 1_555
C20 C19 1_555 1_555
H20 C20 1_555 1_555
C21 C20 1_555 1_555
H21 C21 1_555 1_555
H22 C21 1_555 1_555
H23 C21 1_555 1_555
C22 C20 1_555 1_555
H24 C22 1_555 1_555
H25 C22 1_555 1_555
C23 C22 1_555 1_555
H26 C23 1_555 1_555
H27 C23 1_555 1_555
H28 C23 1_555 1_555
C24 C11 1_555 1_555
C25 C24 1_555 1_555
C26 C25 1_555 1_555
C27 C26 1_555 1_555
H29 C27 1_555 1_555
C28 C27 1_555 1_555
H30 C28 1_555 1_555
N2 Hg1 1_555 1_555
C29 N2 1_555 1_555
H31 C29 1_555 1_555
C30 C26 1_555 1_555
H32 C30 1_555 1_555
Cl1A Hg2 1_555 1_555
N1A Hg2 1_555 1_555
C1A N1A 1_555 1_555
H1A C1A 1_555 1_555
C2A C1A 1_555 1_555
H2A C2A 1_555 1_555
C3A C2A 1_555 1_555
C4A C3A 1_555 1_555
H3A C4A 1_555 1_555
C5A N1A 1_555 1_555
H4A C5A 1_555 1_555
C6A C3A 1_555 1_555
C7A C6A 1_555 1_555
C8A C7A 1_555 1_555
C9A C8A 1_555 1_555
C10A C9A 1_555 1_555
H5A C10A 1_555 1_555
C11A C10A 1_555 1_555
C12A C11A 1_555 1_555
C13A C8A 1_555 1_555
H6A C13A 1_555 1_555
O1A C9A 1_555 1_555
C14A O1A 1_555 1_555
H7A C14A 1_555 1_555
H8A C14A 1_555 1_555
C15A C14A 1_555 1_555
H9A C15A 1_555 1_555
C16A C15A 1_555 1_555
H10A C16A 1_555 1_555
H11A C16A 1_555 1_555
H12A C16A 1_555 1_555
C17A C15A 1_555 1_555
H13A C17A 1_555 1_555
H14A C17A 1_555 1_555
C18A C17A 1_555 1_555
H15A C18A 1_555 1_555
H16A C18A 1_555 1_555
H17A C18A 1_555 1_555
O2A C12A 1_555 1_555
C19A O2A 1_555 1_555
H18A C19A 1_555 1_555
H19A C19A 1_555 1_555
C20A C19A 1_555 1_555
H20A C20A 1_555 1_555
C21A C20A 1_555 1_555
H21A C21A 1_555 1_555
H22A C21A 1_555 1_555
H23A C21A 1_555 1_555
C22A C20A 1_555 1_555
H24A C22A 1_555 1_555
H25A C22A 1_555 1_555
C23A C22A 1_555 1_555
H26A C23A 1_555 1_555
H27A C23A 1_555 1_555
H28A C23A 1_555 1_555
C24A C11A 1_555 1_555
C25A C24A 1_555 1_555
C26A C25A 1_555 1_555
C27A C26A 1_555 1_555
H29A C27A 1_555 1_555
C28A C27A 1_555 1_555
H30A C28A 1_555 1_555
N2A C28A 1_555 1_555
C29A N2A 1_555 1_555
H31A C29A 1_555 1_555
C30A C26A 1_555 1_555
H32A C30A 1_555 1_555
Cl2A Hg1 1_555 1_555
Hg1_2 N2A 1_555 1_555
N2A_2 Hg1 1_555 1_555
C4 C5 1_555 1_555
C12 C13 1_555 1_555
C28 N2 1_555 1_555
C29 C30 1_555 1_555
C4A C5A 1_555 1_555
C12A C13A 1_555 1_555
C29A C30A 1_555 1_555

#END
