
#######################################################################
#
#                 Cambridge Crystallographic Data Centre
#                                CCDC 
#
#######################################################################
#
# If this CIF has been generated from an entry in the Cambridge 
# Structural Database, then it will include bibliographic, chemical, 
# crystal, experimental, refinement or atomic coordinate data resulting 
# from the CCDC's data processing and validation procedures.
#
#######################################################################

data_WIRLOA
_symmetry_cell_setting           triclinic
_symmetry_space_group_name_H-M   'P -1'
_symmetry_Int_Tables_number      2
_space_group_name_Hall           '-P 1'
loop_
_symmetry_equiv_pos_site_id
_symmetry_equiv_pos_as_xyz
1 x,y,z
2 -x,-y,-z
_cell_length_a                   11.3952(7)
_cell_length_b                   16.0546(9)
_cell_length_c                   25.1653(16)
_cell_angle_alpha                84.376(4)
_cell_angle_beta                 82.666(4)
_cell_angle_gamma                78.759(4)
_cell_volume                     4465.94
loop_
_atom_site_label
_atom_site_type_symbol
_atom_site_fract_x
_atom_site_fract_y
_atom_site_fract_z
C1 C 0.4680(3) 0.7738(2) 0.12647(15)
C2 C 0.4267(3) 0.7202(2) 0.17509(13)
C3 C 0.3935(5) 0.7544(3) 0.22404(18)
H1 H 0.3954 0.8127 0.2269
C4 C 0.3575(6) 0.7049(3) 0.26915(17)
H2 H 0.3375 0.7290 0.3029
C5 C 0.3504(3) 0.6221(2) 0.26557(13)
C6 C 0.3806(5) 0.5880(3) 0.21730(17)
H3 H 0.3753 0.5304 0.2143
C7 C 0.4192(5) 0.6370(3) 0.17239(16)
H4 H 0.4410 0.6120 0.1390
C8 C 0.3158(3) 0.5700(2) 0.31660(14)
H5 H 0.3890 0.5476 0.3346
H6 H 0.2598 0.6081 0.3410
C9 C 0.1354(3) 0.5178(2) 0.31119(13)
C10 C 0.0706(3) 0.5911(2) 0.28782(14)
H7 H 0.1120 0.6336 0.2699
C11 C -0.0546(3) 0.6037(2) 0.29010(13)
H8 H -0.0981 0.6548 0.2744
C12 C -0.1151(3) 0.5408(2) 0.31562(12)
C13 C -0.0506(3) 0.46844(19) 0.34048(12)
C14 C 0.0741(3) 0.4565(2) 0.33794(12)
C15 C 0.1298(3) 0.37425(19) 0.36910(12)
H9 H 0.2196 0.3654 0.3669
C16 C 0.0679(3) 0.38170(19) 0.42628(13)
C17 C 0.1237(3) 0.3787(2) 0.47240(13)
H10 H 0.2089 0.3699 0.4707
C18 C 0.0520(4) 0.3889(2) 0.52134(14)
H11 H 0.0886 0.3880 0.5533
C19 C -0.0717(4) 0.4004(2) 0.52387(14)
H12 H -0.1192 0.4063 0.5576
C20 C -0.1281(3) 0.4034(2) 0.47745(13)
H13 H -0.2133 0.4116 0.4793
C21 C -0.0576(3) 0.39424(18) 0.42895(13)
C22 C -0.1035(3) 0.39761(19) 0.37393(12)
H14 H -0.1933 0.4065 0.3760
C23 C -0.0404(3) 0.3144(2) 0.35032(12)
C24 C -0.0974(3) 0.2538(2) 0.33334(13)
H15 H -0.1826 0.2624 0.3350
C25 C -0.0256(4) 0.1803(2) 0.31385(14)
H16 H -0.0624 0.1384 0.3019
C26 C 0.0980(4) 0.1673(2) 0.31156(14)
H17 H 0.1450 0.1166 0.2982
C27 C 0.1550(3) 0.2278(2) 0.32871(13)
H18 H 0.2403 0.2184 0.3274
C28 C 0.0844(3) 0.3020(2) 0.34769(12)
C29 C -0.3096(3) 0.6184(2) 0.29605(13)
H19 H -0.3853 0.6040 0.2875
H20 H -0.2660 0.6378 0.2619
C30 C -0.3401(3) 0.6908(2) 0.33258(12)
C31 C -0.3254(3) 0.6779(2) 0.38692(13)
H21 H -0.2916 0.6229 0.4015
C32 C -0.3598(3) 0.7448(2) 0.41996(12)
H22 H -0.3478 0.7354 0.4569
C33 C -0.4113(3) 0.82494(19) 0.39975(12)
C34 C -0.4278(4) 0.8374(2) 0.34552(13)
H23 H -0.4652 0.8916 0.3312
C35 C -0.3902(4) 0.7712(2) 0.31248(13)
H24 H -0.3990 0.7813 0.2752
C36 C -0.4494(2) 0.89704(18) 0.43553(11)
C37 C -0.5324(3) 1.2355(2) 0.37827(14)
C38 C -0.4896(3) 1.2840(2) 0.32759(13)
C39 C -0.4453(3) 1.3582(2) 0.32974(14)
H25 H -0.4437 1.3793 0.3636
C40 C -0.4030(3) 1.4021(2) 0.28262(14)
H26 H -0.3732 1.4529 0.2845
C41 C -0.4048(3) 1.3712(2) 0.23325(13)
C42 C -0.4498(3) 1.2973(2) 0.23122(13)
H27 H -0.4524 1.2766 0.1974
C43 C -0.4907(3) 1.2537(2) 0.27759(14)
H28 H -0.5199 1.2027 0.2755
C44 C -0.3655(3) 1.4163(3) 0.18037(15)
H29 H -0.3072 1.3749 0.1590
H30 H -0.4366 1.4350 0.1603
C45 C -0.1875(3) 1.4733(2) 0.18259(13)
C46 C -0.1212(3) 1.3998(2) 0.20583(13)
H31 H -0.1618 1.3562 0.2227
C47 C 0.0029(3) 1.3888(2) 0.20493(13)
H32 H 0.0465 1.3382 0.2212
C48 C 0.0634(3) 1.4526(2) 0.18002(12)
C49 C -0.0021(3) 1.52452(19) 0.15525(12)
C50 C -0.1269(3) 1.53579(19) 0.15685(12)
C51 C -0.1827(3) 1.61932(19) 0.12722(12)
H33 H -0.2724 1.6280 0.1290
C52 C -0.1385(3) 1.69002(19) 0.15112(12)
C53 C -0.2095(3) 1.7616(2) 0.17308(13)
H34 H -0.2947 1.7706 0.1745
C54 C -0.1536(4) 1.8202(2) 0.19305(14)
H35 H -0.2013 1.8686 0.2090
C55 C -0.0291(4) 1.8083(2) 0.18979(14)
H36 H 0.0077 1.8495 0.2027
C56 C 0.0423(3) 1.7371(2) 0.16783(13)
H37 H 0.1276 1.7288 0.1659
C57 C -0.0132(3) 1.6781(2) 0.14862(12)
C58 C 0.0506(3) 1.59688(19) 0.12316(12)
H38 H 0.1403 1.5883 0.1214
C59 C 0.0055(3) 1.60339(18) 0.06770(13)
C60 C 0.0764(3) 1.5977(2) 0.01916(13)
H39 H 0.1616 1.5888 0.0177
C61 C 0.0214(4) 1.6051(2) -0.02781(14)
H40 H 0.0695 1.6013 -0.0615
C62 C -0.1024(4) 1.6179(2) -0.02587(13)
H41 H -0.1387 1.6230 -0.0583
C63 C -0.1744(3) 1.62323(19) 0.02292(13)
H42 H -0.2596 1.6318 0.0242
C64 C -0.1196(3) 1.61583(18) 0.06995(12)
C65 C 0.2570(3) 1.3784(2) 0.20318(13)
H43 H 0.2100 1.3566 0.2356
H44 H 0.3285 1.3951 0.2147
C66 C 0.2978(3) 1.3085(2) 0.16527(12)
C67 C 0.2892(3) 1.2252(2) 0.18208(13)
H45 H 0.2523 1.2124 0.2172
C68 C 0.3335(3) 1.1600(2) 0.14858(14)
H46 H 0.3269 1.1031 0.1609
C69 C 0.3875(3) 1.17735(19) 0.09702(12)
C70 C 0.3937(3) 1.2615(2) 0.07960(12)
H47 H 0.4286 1.2746 0.0442
C71 C 0.3497(3) 1.3263(2) 0.11322(13)
H48 H 0.3549 1.3834 0.1008
C72 C 0.4393(2) 1.10681(19) 0.06121(11)
C73 C 0.7065(3) 0.9740(2) 0.07003(14)
H49 H 0.6508 1.0229 0.0813
C74 C 0.8268(3) 0.9733(2) 0.07026(15)
H50 H 0.8523 1.0208 0.0818
C75 C 0.9124(3) 0.90316(19) 0.05368(12)
C76 C 0.8671(3) 0.8358(2) 0.03787(14)
H51 H 0.9206 0.7860 0.0264
C77 C 0.7437(3) 0.84169(19) 0.03890(13)
H52 H 0.7151 0.7951 0.0278
C78 C 1.2513(3) 0.8459(2) 0.03210(17)
H53 H 1.3109 0.8033 0.0156
C79 C 1.1314(3) 0.8414(2) 0.03161(16)
H54 H 1.1108 0.7959 0.0154
C80 C 1.0416(3) 0.9020(2) 0.05425(12)
C81 C 1.0807(4) 0.9641(3) 0.0785(2)
H55 H 1.0234 1.0071 0.0957
C82 C 1.2010(4) 0.9639(3) 0.0780(2)
H56 H 1.2241 1.0071 0.0954
C83 C -0.2685(3) 1.0377(2) 0.41743(13)
H57 H -0.2914 0.9976 0.3973
C84 C -0.1475(3) 1.0379(2) 0.41710(14)
H58 H -0.0898 0.9979 0.3975
C85 C -0.1094(3) 1.09615(19) 0.44524(12)
C86 C -0.2001(3) 1.1535(2) 0.47202(15)
H59 H -0.1797 1.1958 0.4912
C87 C -0.3198(3) 1.1491(2) 0.47086(14)
H60 H -0.3796 1.1890 0.4895
C88 C 0.1886(3) 1.1552(2) 0.46070(13)
H61 H 0.2176 1.2019 0.4714
C89 C 0.0656(3) 1.1618(2) 0.46169(13)
H62 H 0.0124 1.2121 0.4726
C90 C 0.0204(3) 1.09451(19) 0.44661(12)
C91 C 0.1042(3) 1.0221(2) 0.43252(15)
H63 H 0.0776 0.9734 0.4233
C92 C 0.2244(3) 1.0214(2) 0.43209(15)
H64 H 0.2797 0.9718 0.4217
O1 O 0.4600(2) 0.85282(17) 0.13249(11)
O2 O 0.5035(3) 0.7424(2) 0.08327(11)
O3 O 0.2602(2) 0.50003(15) 0.30896(11)
O4 O -0.23805(19) 0.54391(13) 0.31845(9)
O5 O -0.50355(18) 0.96709(13) 0.41553(8)
O6 O -0.4215(2) 0.88266(14) 0.48230(8)
O7 O -0.5411(2) 1.15869(15) 0.37308(9)
O8 O -0.5528(2) 1.26927(17) 0.42148(10)
O9 O -0.3115(2) 1.48904(16) 0.18417(10)
O10 O 0.1846(2) 1.45167(14) 0.17872(9)
O11 O 0.42408(19) 1.03306(13) 0.07808(8)
O12 O 0.49628(19) 1.12738(13) 0.01749(8)
Zn1 Zn 0.47473(3) 0.91058(2) 0.058046(14)
Zn2 Zn -0.54251(3) 1.08576(2) 0.441578(14)
N1 N 0.6632(2) 0.90923(16) 0.05463(10)
N2 N 1.2872(2) 0.90691(17) 0.05453(10)
N3 N -0.3558(2) 1.09118(16) 0.44460(10)
N4 N 0.2687(2) 1.08743(16) 0.44565(10)
O6A O -0.5785(2) 1.11734(14) 0.51770(8)
O12A O 0.50372(19) 0.87262(13) -0.01749(8)
Zn1_2 Zn 1.47473(3) 0.91058(2) 0.058046(14)
Zn1A Zn 0.52527(3) 1.08942(2) -0.058046(14)
Zn2_2 Zn 0.45749(3) 1.08576(2) 0.441578(14)
Zn2A Zn -0.45749(3) 0.91424(2) 0.558422(14)
N2_2 N 0.2872(2) 0.90691(17) 0.05453(10)
N4_2 N -0.7313(2) 1.08743(16) 0.44565(10)
O13 O 0.2652(5) 0.9901(4) 0.7333(2)
C93 C 0.3798(5) 0.9691(3) 0.7177(2)
H65 H 0.4020 0.9433 0.6846
N5 N 0.4712(4) 0.9813(2) 0.74499(14)
C94 C 0.5927(4) 0.9632(3) 0.72093(18)
H66 H 0.6463 0.9752 0.7456
H67 H 0.6015 0.9989 0.6873
H68 H 0.6139 0.9030 0.7134
H69 H 0.5269 1.0239 0.8063
H70 H 0.4034 0.9892 0.8208
C95 C 0.4498(6) 1.0216(4) 0.7937(2)
H71 H 0.4045 1.0795 0.7878
Cl1 Cl 0.3142(2) 0.79114(14) 0.90347(9)
C96 C -0.0298(5) 0.8690(5) 0.8268(2)
H72 H -0.1032 0.8856 0.8111
C97 C -0.0231(5) 0.8110(4) 0.8716(2)
C98 C 0.0843(5) 0.7866(4) 0.8945(2)
H73 H 0.0889 0.7470 0.9251
C99 C 0.1850(4) 0.8202(4) 0.8726(2)
C100 C 0.1782(5) 0.8782(5) 0.8278(2)
H74 H 0.2470 0.9012 0.8128
C101 C 0.0708(6) 0.9026(4) 0.8049(2)
H75 H 0.0662 0.9422 0.7742
Cl2 Cl 0.7286(7) 1.2226(4) 0.59418(19)
C102 C 0.8508(13) 1.1813(10) 0.6291(7)
C103 C 0.8415(12) 1.1150(9) 0.6684(8)
H76 H 0.7675 1.0953 0.6770
C104 C 1.0487(13) 1.1065(10) 0.6824(6)
H77 H 1.1163 1.0810 0.7006
C105 C 1.0580(11) 1.1728(9) 0.6431(6)
H78 H 1.1320 1.1926 0.6345
C106 C 0.9590(16) 1.2102(8) 0.6165(5)
H79 H 0.9653 1.2555 0.5896
H80 H 0.9341 1.0323 0.7219
C107 C 0.9404(16) 1.0776(8) 0.6951(6)
O14? O 0.675(2) 0.9968(14) 0.7442(10)
C108? C 0.5927(4) 0.9632(3) 0.72093(18)
H81? H 0.6157 0.9301 0.6908
N6? N 0.4712(4) 0.9813(2) 0.74499(14)
H82? H 0.5269 1.0258 0.8056
H83? H 0.4059 0.9880 0.8211
H84? H 0.4019 1.0788 0.7881
C109? C 0.3798(5) 0.9691(3) 0.7177(2)
H85? H 0.4140 0.9434 0.6841
H86? H 0.3280 1.0241 0.7097
H87? H 0.3322 0.9313 0.7399
O15? O -0.0924(13) 0.9510(10) 0.8053(4)
C110? C 0.0278(16) 0.9158(8) 0.8117(5)
H88? H 0.0867 0.9397 0.7882
N7? N 0.0718(12) 0.8500(8) 0.8486(5)
C111? C -0.003(2) 0.8038(13) 0.8837(8)
H89? H 0.0454 0.7666 0.9093
H90? H -0.0395 0.7691 0.8629
H91? H -0.0661 0.8435 0.9032
C112? C 0.2001(15) 0.8278(14) 0.8493(10)
H92? H 0.2186 0.7849 0.8790
H93? H 0.2319 0.8787 0.8542
H94? H 0.2372 0.8047 0.8152
Cl3? Cl 0.8417(4) 1.0530(3) 0.7404(2)
C113? C 1.0990(16) 1.1524(19) 0.6539(9)
H95? H 1.1825 1.1524 0.6536
C114? C 1.042(2) 1.1023(16) 0.6931(7)
H96? H 1.0857 1.0682 0.7195
C115? C 0.919(2) 1.1023(13) 0.6936(6)
C116? C 0.8548(14) 1.1523(13) 0.6550(7)
H97? H 0.7713 1.1523 0.6554
C117? C 0.9123(19) 1.2024(11) 0.6158(7)
H98? H 0.8681 1.2366 0.5894
C118? C 1.034(2) 1.2024(16) 0.6153(8)
H99? H 1.0737 1.2366 0.5885
Cl4? Cl 0.7188(6) 1.1734(11) 0.6218(7)
C119? C 0.8671(14) 1.1628(13) 0.6330(7)
C120? C 0.9069(19) 1.1110(12) 0.6771(7)
H100? H 0.8554 1.0773 0.6980
C121? C 1.022(2) 1.1085(16) 0.6908(8)
H101? H 1.0492 1.0731 0.7209
C122? C 1.0974(15) 1.158(2) 0.6602(10)
H102? H 1.1761 1.1561 0.6695
C123? C 1.0576(17) 1.2096(17) 0.6161(9)
H103? H 1.1091 1.2433 0.5952
C124? C 0.9425(18) 1.2121(13) 0.6025(6)
H104? H 0.9153 1.2475 0.5723
H105? H 0.2584 0.8036 0.8882
H106? H 0.5883 1.3838 0.5528
Cl5? Cl 0.62187(16) 1.33412(12) 0.56907(7)
H107? H 0.4879 1.3611 0.4815
C125? C 0.4926(4) 1.4172(3) 0.48890(16)
H108? H 0.6011 1.5197 0.5714
C126? C 0.5598(4) 1.5121(3) 0.54229(16)
C127? C 0.5521(4) 1.4312(3) 0.53109(16)
H109? H 0.3784 0.6158 0.9626
C128? C 0.4876(5) 0.5790(3) 1.02038(17)
H110? H 0.4780 0.6334 1.0340
Cl6? Cl 0.34250(18) 0.65627(13) 0.94932(8)
C129? C 0.4287(4) 0.5678(3) 0.97825(18)
C130? C 0.4394(5) 0.4900(3) 0.95760(16)
H111? H 0.3966 0.4844 0.9285
C131? C 0.4498(6) 1.0216(4) 0.7937(2)
loop_
_geom_bond_atom_site_label_1
_geom_bond_atom_site_label_2
_geom_bond_site_symmetry_1
_geom_bond_site_symmetry_2
C1 C2 1_555 1_555
C2 C3 1_555 1_555
C3 H1 1_555 1_555
C4 C3 1_555 1_555
H2 C4 1_555 1_555
C5 C4 1_555 1_555
C6 C5 1_555 1_555
H3 C6 1_555 1_555
C7 C2 1_555 1_555
H4 C7 1_555 1_555
C8 C5 1_555 1_555
H5 C8 1_555 1_555
H6 C8 1_555 1_555
C9 C10 1_555 1_555
C10 H7 1_555 1_555
C11 C10 1_555 1_555
H8 C11 1_555 1_555
C12 C11 1_555 1_555
C13 C12 1_555 1_555
C14 C9 1_555 1_555
C15 C14 1_555 1_555
H9 C15 1_555 1_555
C16 C15 1_555 1_555
C17 C16 1_555 1_555
H10 C17 1_555 1_555
C18 C17 1_555 1_555
H11 C18 1_555 1_555
C19 C18 1_555 1_555
H12 C19 1_555 1_555
C20 C19 1_555 1_555
H13 C20 1_555 1_555
C21 C16 1_555 1_555
C22 C13 1_555 1_555
H14 C22 1_555 1_555
C23 C22 1_555 1_555
C24 C23 1_555 1_555
H15 C24 1_555 1_555
C25 C24 1_555 1_555
H16 C25 1_555 1_555
C26 C25 1_555 1_555
H17 C26 1_555 1_555
C27 C26 1_555 1_555
H18 C27 1_555 1_555
C28 C15 1_555 1_555
C29 H19 1_555 1_555
H20 C29 1_555 1_555
C30 C29 1_555 1_555
C31 C30 1_555 1_555
H21 C31 1_555 1_555
C32 C31 1_555 1_555
H22 C32 1_555 1_555
C33 C32 1_555 1_555
C34 C33 1_555 1_555
H23 C34 1_555 1_555
C35 C30 1_555 1_555
H24 C35 1_555 1_555
C36 C33 1_555 1_555
C37 C38 1_555 1_555
C38 C39 1_555 1_555
C39 H25 1_555 1_555
C40 C39 1_555 1_555
H26 C40 1_555 1_555
C41 C40 1_555 1_555
C42 C41 1_555 1_555
H27 C42 1_555 1_555
C43 C38 1_555 1_555
H28 C43 1_555 1_555
C44 C41 1_555 1_555
H29 C44 1_555 1_555
H30 C44 1_555 1_555
C45 C46 1_555 1_555
C46 H31 1_555 1_555
C47 C46 1_555 1_555
H32 C47 1_555 1_555
C48 C47 1_555 1_555
C49 C48 1_555 1_555
C50 C45 1_555 1_555
C51 C50 1_555 1_555
H33 C51 1_555 1_555
C52 C51 1_555 1_555
C53 C52 1_555 1_555
H34 C53 1_555 1_555
C54 C53 1_555 1_555
H35 C54 1_555 1_555
C55 C54 1_555 1_555
H36 C55 1_555 1_555
C56 C55 1_555 1_555
H37 C56 1_555 1_555
C57 C52 1_555 1_555
C58 C49 1_555 1_555
H38 C58 1_555 1_555
C59 C58 1_555 1_555
C60 C59 1_555 1_555
H39 C60 1_555 1_555
C61 C60 1_555 1_555
H40 C61 1_555 1_555
C62 C61 1_555 1_555
H41 C62 1_555 1_555
C63 C62 1_555 1_555
H42 C63 1_555 1_555
C64 C51 1_555 1_555
C65 H43 1_555 1_555
H44 C65 1_555 1_555
C66 C65 1_555 1_555
C67 C66 1_555 1_555
H45 C67 1_555 1_555
C68 C67 1_555 1_555
H46 C68 1_555 1_555
C69 C68 1_555 1_555
C70 C69 1_555 1_555
H47 C70 1_555 1_555
C71 C66 1_555 1_555
H48 C71 1_555 1_555
C72 C69 1_555 1_555
C73 H49 1_555 1_555
C74 C73 1_555 1_555
H50 C74 1_555 1_555
C75 C74 1_555 1_555
C76 C75 1_555 1_555
H51 C76 1_555 1_555
C77 C76 1_555 1_555
H52 C77 1_555 1_555
C78 H53 1_555 1_555
C79 C78 1_555 1_555
H54 C79 1_555 1_555
C80 C75 1_555 1_555
C81 C80 1_555 1_555
H55 C81 1_555 1_555
C82 C81 1_555 1_555
H56 C82 1_555 1_555
C83 H57 1_555 1_555
C84 C83 1_555 1_555
H58 C84 1_555 1_555
C85 C84 1_555 1_555
C86 C85 1_555 1_555
H59 C86 1_555 1_555
C87 C86 1_555 1_555
H60 C87 1_555 1_555
C88 H61 1_555 1_555
C89 C88 1_555 1_555
H62 C89 1_555 1_555
C90 C85 1_555 1_555
C91 C90 1_555 1_555
H63 C91 1_555 1_555
C92 C91 1_555 1_555
H64 C92 1_555 1_555
O1 C1 1_555 1_555
O2 C1 1_555 1_555
O3 C8 1_555 1_555
O4 C12 1_555 1_555
O5 C36 1_555 1_555
O6 C36 1_555 1_555
O7 C37 1_555 1_555
O8 C37 1_555 1_555
O9 C44 1_555 1_555
O10 C48 1_555 1_555
O11 C72 1_555 1_555
O12 C72 1_555 1_555
Zn1 O1 1_555 1_555
Zn2 O5 1_555 1_555
N1 C73 1_555 1_555
N2 C78 1_555 1_555
N3 C83 1_555 1_555
N4 C88 1_555 1_555
O13 C93 1_555 1_555
C93 H65 1_555 1_555
N5 C93 1_555 1_555
C94 N5 1_555 1_555
H66 C94 1_555 1_555
H67 C94 1_555 1_555
H68 C94 1_555 1_555
H69 C95 1_555 1_555
H70 C95 1_555 1_555
C95 N5 1_555 1_555
H71 C95 1_555 1_555
Cl1 C99 1_555 1_555
C96 H72 1_555 1_555
C97 C96 1_555 1_555
C98 C97 1_555 1_555
H73 C98 1_555 1_555
C99 C98 1_555 1_555
C100 C99 1_555 1_555
H74 C100 1_555 1_555
C101 C96 1_555 1_555
H75 C101 1_555 1_555
Cl2 C102 1_555 1_555
C102 C103 1_555 1_555
C103 H76 1_555 1_555
C104 H77 1_555 1_555
C105 C104 1_555 1_555
H78 C105 1_555 1_555
C106 C102 1_555 1_555
H79 C106 1_555 1_555
H80 C107 1_555 1_555
C107 C103 1_555 1_555
O6A Zn2 1_555 1_555
O12A Zn1 1_555 1_555
Zn1_2 N2 1_555 1_555
Zn1A O12 1_555 1_555
Zn2_2 N4 1_555 1_555
Zn2A O6 1_555 1_555
N2_2 Zn1 1_555 1_555
N4_2 Zn2 1_555 1_555
C6 C7 1_555 1_555
C9 O3 1_555 1_555
C13 C14 1_555 1_555
C20 C21 1_555 1_555
C21 C22 1_555 1_555
C23 C28 1_555 1_555
C27 C28 1_555 1_555
C29 O4 1_555 1_555
C34 C35 1_555 1_555
C42 C43 1_555 1_555
C45 O9 1_555 1_555
C49 C50 1_555 1_555
C56 C57 1_555 1_555
C57 C58 1_555 1_555
C59 C64 1_555 1_555
C63 C64 1_555 1_555
C65 O10 1_555 1_555
C70 C71 1_555 1_555
C77 N1 1_555 1_555
C79 C80 1_555 1_555
C82 N2 1_555 1_555
C87 N3 1_555 1_555
C89 C90 1_555 1_555
C92 N4 1_555 1_555
O7 Zn2 1_555 1_555
O11 Zn1 1_555 1_555
Zn1 N1 1_555 1_555
Zn2 N3 1_555 1_555
C100 C101 1_555 1_555
C104 C107 1_555 1_555
C105 C106 1_555 1_555

#END
