
#######################################################################
#
#                 Cambridge Crystallographic Data Centre
#                                CCDC 
#
#######################################################################
#
# If this CIF has been generated from an entry in the Cambridge 
# Structural Database, then it will include bibliographic, chemical, 
# crystal, experimental, refinement or atomic coordinate data resulting 
# from the CCDC's data processing and validation procedures.
#
#######################################################################

data_WIRMER
_symmetry_cell_setting           triclinic
_symmetry_space_group_name_H-M   'P -1'
_symmetry_Int_Tables_number      2
_space_group_name_Hall           '-P 1'
loop_
_symmetry_equiv_pos_site_id
_symmetry_equiv_pos_as_xyz
1 x,y,z
2 -x,-y,-z
_cell_length_a                   8.1335(19)
_cell_length_b                   16.014(4)
_cell_length_c                   16.343(4)
_cell_angle_alpha                62.282(2)
_cell_angle_beta                 87.655(2)
_cell_angle_gamma                87.504(2)
_cell_volume                     1882.1
loop_
_atom_site_label
_atom_site_type_symbol
_atom_site_fract_x
_atom_site_fract_y
_atom_site_fract_z
Cd1 Cd 0.66033(2) 0.620143(13) 0.741135(12)
Cd2 Cd 0.67144(3) 0.339910(13) 0.765738(13)
Cd3 Cd 0.88370(2) -0.004862(12) 0.667273(12)
O1 O 0.6966(2) 0.76538(12) 0.62545(13)
O2 O 0.8089(2) 0.85955(12) 0.67211(13)
O3 O 0.1431(2) 0.94387(14) 0.65630(13)
O4 O 0.0784(2) 1.07814(14) 0.53516(14)
O5 O 0.4170(3) 0.66358(17) 0.78943(14)
H1 H 0.3243 0.6854 0.7650
H2 H 0.3878 0.6460 0.8455
O6 O 0.9399(3) 0.58977(15) 0.71732(14)
H3 H 0.9627 0.5315 0.7510
H4 H 0.9534 0.6136 0.6590
O7 O 0.4093(3) 0.3211(2) 0.7425(2)
H5 H 0.3679 0.2667 0.7667
H6 H 0.3585 0.3607 0.6949
O8 O 0.7112(3) 0.16810(15) 0.82560(14)
O9 O 0.8920(3) 0.24943(14) 0.85203(15)
O10 O 0.9845(3) 0.07219(13) 0.75458(12)
O11 O 0.8552(3) -0.06263(14) 0.82439(13)
N1 N 0.7478(3) 0.63061(16) 0.87760(15)
N2 N 0.8239(4) 0.6192(2) 1.04683(19)
N3 N 0.6614(3) 0.46986(15) 0.86706(15)
N4 N 0.6228(3) 0.37993(15) 0.88541(15)
N5 N 0.6626(3) 0.38015(16) 1.02053(15)
N6 N 0.5577(3) 0.03172(17) 1.13002(19)
N7 N 0.8219(3) 0.34787(15) 0.62770(15)
N8 N 0.9640(3) 0.37593(16) 0.45965(17)
N9 N 0.6646(3) 0.49234(15) 0.64627(15)
N10 N 0.5815(3) 0.57421(14) 0.63333(15)
N11 N 0.6456(3) 0.58512(15) 0.49306(15)
N12 N 0.2991(3) 0.88649(14) 0.40760(14)
C1 C 0.7957(4) 0.7057(2) 0.8849(2)
H7 H 0.8034 0.7635 0.8320
C2 C 0.8337(5) 0.6992(2) 0.9687(2)
H8 H 0.8677 0.7529 0.9707
C3 C 0.7756(5) 0.5439(2) 1.0403(2)
H9 H 0.7679 0.4864 1.0936
C4 C 0.7366(4) 0.54890(19) 0.95635(19)
C5 C 0.6856(4) 0.46648(18) 0.94832(18)
C6 C 0.6259(4) 0.32908(18) 0.97803(18)
C7 C 0.5971(4) 0.22680(19) 1.02966(19)
C8 C 0.6695(4) 0.1740(2) 1.1154(2)
H10 H 0.7319 0.2030 1.1409
C9 C 0.6465(4) 0.0776(2) 1.1617(2)
H11 H 0.6963 0.0430 1.2185
C10 C 0.4841(4) 0.0836(2) 1.0494(2)
H12 H 0.4175 0.0531 1.0272
C11 C 0.5012(4) 0.1797(2) 0.9971(2)
H13 H 0.4490 0.2125 0.9409
C12 C 0.9203(4) 0.28221(19) 0.6207(2)
H14 H 0.9405 0.2253 0.6733
C13 C 0.9925(4) 0.2971(2) 0.5373(2)
H15 H 1.0630 0.2507 0.5354
C14 C 0.8650(4) 0.44190(19) 0.46597(19)
H16 H 0.8420 0.4977 0.4128
C15 C 0.7959(3) 0.42892(17) 0.55009(18)
C16 C 0.6994(3) 0.50259(17) 0.56160(18)
C17 C 0.5739(3) 0.62687(17) 0.54071(18)
C18 C 0.4844(3) 0.71872(17) 0.49632(17)
C19 C 0.5159(4) 0.7819(2) 0.40420(19)
H17 H 0.6003 0.7693 0.3710
C20 C 0.4200(3) 0.86373(19) 0.36250(19)
H18 H 0.4402 0.9049 0.3004
C21 C 0.2722(3) 0.82601(18) 0.49726(18)
H19 H 0.1900 0.8412 0.5298
C22 C 0.3609(3) 0.74257(18) 0.54315(18)
H20 H 0.3380 0.7025 0.6052
C23 C 0.7171(3) 0.84476(17) 0.62063(16)
C24 C 0.6096(3) 0.92605(16) 0.55415(17)
C25 C 0.4557(3) 0.93618(17) 0.58859(17)
H21 H 0.4254 0.8932 0.6487
C26 C 0.3446(3) 1.00873(17) 0.53610(17)
C27 C 0.1772(3) 1.01170(18) 0.57766(18)
C28 C 0.8377(4) 0.17171(19) 0.86338(17)
C29 C 0.9266(3) 0.08272(17) 0.93087(17)
C30 C 0.9535(3) 0.00279(18) 0.91730(17)
C31 C 1.0255(3) -0.07843(18) 0.98661(17)
H22 H 1.0419 -0.1314 0.9775
C32 C 0.9250(3) 0.00504(18) 0.82611(17)
O1A O 0.3034(2) 1.23462(12) 0.37455(13)
O2A O 0.1911(2) 1.14045(12) 0.32789(13)
O3A O 0.8569(2) 1.05613(14) 0.34370(13)
O4A O 0.9216(2) 0.92186(14) 0.46484(14)
C23A C 0.2829(3) 1.15524(17) 0.37937(16)
C24A C 0.3904(3) 1.07395(16) 0.44585(17)
C25A C 0.5443(3) 1.06382(17) 0.41141(17)
H21A H 0.5746 1.1068 0.3513
C26A C 0.6554(3) 0.99127(17) 0.46390(17)
C27A C 0.8228(3) 0.98830(18) 0.42234(18)
O8A O 1.2888(3) -0.16810(15) 1.17440(14)
O9A O 1.1080(3) -0.24943(14) 1.14797(15)
O10A O 1.0155(3) -0.07219(13) 1.24542(12)
O11A O 1.1448(3) 0.06263(14) 1.17561(13)
C28A C 1.1623(4) -0.17171(19) 1.13662(17)
C29A C 1.0734(3) -0.08272(17) 1.06913(17)
C30A C 1.0465(3) -0.00279(18) 1.08270(17)
C31A C 0.9745(3) 0.07843(18) 1.01339(17)
H22A H 0.9581 0.1314 1.0225
C32A C 1.0750(3) -0.00504(18) 1.17389(17)
Cd1A Cd 0.33967(2) 0.379857(13) 0.258865(12)
Cd2A Cd 0.32856(3) 0.660090(13) 0.234262(13)
Cd3A Cd 0.11630(2) 1.004862(12) 0.332727(12)
O5A O 0.5830(3) 0.33642(17) 0.21057(14)
H1A H 0.6757 0.3146 0.2350
H2A H 0.6122 0.3540 0.1545
O6A O 0.0601(3) 0.41023(15) 0.28268(14)
H3A H 0.0373 0.4685 0.2490
H4A H 0.0466 0.3864 0.3410
O7A O 0.5907(3) 0.6789(2) 0.2575(2)
H5A H 0.6321 0.7333 0.2333
H6A H 0.6415 0.6393 0.3051
N1A N 0.2522(3) 0.36939(16) 0.12240(15)
N2A N 0.1761(4) 0.3808(2) -0.04683(19)
N3A N 0.3386(3) 0.53014(15) 0.13294(15)
N4A N 0.3772(3) 0.62007(15) 0.11459(15)
N5A N 0.3374(3) 0.61985(16) -0.02053(15)
N6A N 0.4423(3) 0.96828(17) -0.13002(19)
N7A N 0.1781(3) 0.65213(15) 0.37230(15)
N8A N 0.0360(3) 0.62407(16) 0.54035(17)
N9A N 0.3354(3) 0.50766(15) 0.35373(15)
N10A N 0.4185(3) 0.42579(14) 0.36667(15)
N11A N 0.3544(3) 0.41488(15) 0.50694(15)
N12A N 0.7009(3) 0.11351(14) 0.59240(14)
C1A C 0.2043(4) 0.2943(2) 0.1151(2)
H7A H 0.1966 0.2365 0.1680
C2A C 0.1663(5) 0.3008(2) 0.0313(2)
H8A H 0.1323 0.2471 0.0293
C3A C 0.2244(5) 0.4561(2) -0.0403(2)
H9A H 0.2321 0.5136 -0.0936
C4A C 0.2634(4) 0.45110(19) 0.04365(19)
C5A C 0.3144(4) 0.53352(18) 0.05168(18)
C6A C 0.3741(4) 0.67092(18) 0.02197(18)
C7A C 0.4029(4) 0.77320(19) -0.02966(19)
C8A C 0.3305(4) 0.8260(2) -0.1154(2)
H10A H 0.2681 0.7970 -0.1409
C9A C 0.3535(4) 0.9224(2) -0.1617(2)
H11A H 0.3037 0.9570 -0.2185
C10A C 0.5159(4) 0.9164(2) -0.0494(2)
H12A H 0.5825 0.9469 -0.0272
C11A C 0.4988(4) 0.8203(2) 0.0029(2)
H13A H 0.5510 0.7875 0.0591
C12A C 0.0797(4) 0.71779(19) 0.3793(2)
H14A H 0.0595 0.7747 0.3267
C13A C 0.0075(4) 0.7029(2) 0.4627(2)
H15A H -0.0630 0.7493 0.4646
C14A C 0.1350(4) 0.55810(19) 0.53403(19)
H16A H 0.1580 0.5023 0.5872
C15A C 0.2041(3) 0.57108(17) 0.44991(18)
C16A C 0.3006(3) 0.49741(17) 0.43840(18)
C17A C 0.4261(3) 0.37313(17) 0.45929(18)
C18A C 0.5156(3) 0.28128(17) 0.50368(17)
C19A C 0.4841(4) 0.2181(2) 0.59580(19)
H17A H 0.3997 0.2307 0.6290
C20A C 0.5800(3) 0.13627(19) 0.63750(19)
H18A H 0.5598 0.0951 0.6996
C21A C 0.7278(3) 0.17399(18) 0.50274(18)
H19A H 0.8100 0.1588 0.4702
C22A C 0.6391(3) 0.25743(18) 0.45685(18)
H20A H 0.6620 0.2975 0.3948
Cd1A_2 Cd 0.33967(2) 1.379857(13) 0.258865(12)
Cd2A_2 Cd 1.32856(3) -0.339910(13) 1.234262(13)
Cd3_2 Cd -0.11630(2) 0.995138(12) 0.667273(12)
Cd3_3 Cd 0.88370(2) 0.995138(12) 0.667273(12)
Cd3A_2 Cd 1.11630(2) 0.004862(12) 1.332727(12)
Cd3A_3 Cd 1.11630(2) 1.004862(12) 0.332727(12)
O1A_2 O 0.3034(2) 0.23462(12) 0.37455(13)
O2_2 O 0.8089(2) -0.14045(12) 0.67211(13)
O3_2 O 1.1431(2) -0.05613(14) 0.65630(13)
O3A_2 O -0.1431(2) 1.05613(14) 0.34370(13)
O4_2 O 1.0784(2) 0.07814(14) 0.53516(14)
O4A_2 O -0.0784(2) 0.92186(14) 0.46484(14)
O8A_2 O 0.2888(3) 0.83190(15) 0.17440(14)
O9A_2 O 0.1080(3) 0.75057(14) 0.14797(15)
O10A_2 O 0.0155(3) 0.92781(13) 0.24542(12)
O11A_2 O 0.1448(3) 1.06263(14) 0.17561(13)
O12 O 0.2912(3) 0.15083(17) 0.8014(2)
H23 H 0.3610 0.1050 0.8221
H24 H 0.1934 0.1367 0.7974
O13 O 0.0898(3) 0.40770(18) 0.77689(17)
H25 H 0.1195 0.3882 0.8322
H26 H 0.0424 0.3551 0.7991
O14 O 0.1273(3) 0.74105(19) 0.72129(19)
H27 H 0.0736 0.6974 0.7199
H28 H 0.0976 0.7969 0.7099
loop_
_geom_bond_atom_site_label_1
_geom_bond_atom_site_label_2
_geom_bond_site_symmetry_1
_geom_bond_site_symmetry_2
Cd1 O1 1_555 1_555
Cd2 O7 1_555 1_555
Cd3 O10 1_555 1_555
O1 C23 1_555 1_555
O2 C23 1_555 1_555
O3 C27 1_555 1_555
O4 C27 1_555 1_555
O5 Cd1 1_555 1_555
H1 O5 1_555 1_555
H2 O5 1_555 1_555
O6 Cd1 1_555 1_555
H3 O6 1_555 1_555
H4 O6 1_555 1_555
O7 H5 1_555 1_555
H6 O7 1_555 1_555
O8 Cd2 1_555 1_555
O9 Cd2 1_555 1_555
O10 C32 1_555 1_555
O11 Cd3 1_555 1_555
N1 Cd1 1_555 1_555
N2 C2 1_555 1_555
N3 Cd1 1_555 1_555
N4 Cd2 1_555 1_555
N5 C5 1_555 1_555
N6 C9 1_555 1_555
N7 Cd2 1_555 1_555
N8 C13 1_555 1_555
N9 Cd2 1_555 1_555
N10 Cd1 1_555 1_555
N11 C16 1_555 1_555
N12 C20 1_555 1_555
C1 N1 1_555 1_555
H7 C1 1_555 1_555
C2 C1 1_555 1_555
H8 C2 1_555 1_555
C3 N2 1_555 1_555
H9 C3 1_555 1_555
C4 N1 1_555 1_555
C5 N3 1_555 1_555
C6 N4 1_555 1_555
C7 C6 1_555 1_555
C8 C7 1_555 1_555
H10 C8 1_555 1_555
C9 C8 1_555 1_555
H11 C9 1_555 1_555
C10 N6 1_555 1_555
H12 C10 1_555 1_555
C11 C7 1_555 1_555
H13 C11 1_555 1_555
C12 N7 1_555 1_555
H14 C12 1_555 1_555
C13 C12 1_555 1_555
H15 C13 1_555 1_555
C14 N8 1_555 1_555
H16 C14 1_555 1_555
C15 N7 1_555 1_555
C16 N9 1_555 1_555
C17 N10 1_555 1_555
C18 C17 1_555 1_555
C19 C18 1_555 1_555
H17 C19 1_555 1_555
C20 C19 1_555 1_555
H18 C20 1_555 1_555
C21 N12 1_555 1_555
H19 C21 1_555 1_555
C22 C18 1_555 1_555
H20 C22 1_555 1_555
C23 C24 1_555 1_555
C24 C25 1_555 1_555
C25 H21 1_555 1_555
C26 C25 1_555 1_555
C27 C26 1_555 1_555
C28 O8 1_555 1_555
C29 C28 1_555 1_555
C30 C29 1_555 1_555
C31 C30 1_555 1_555
H22 C31 1_555 1_555
C32 O11 1_555 1_555
O12 H23 1_555 1_555
H24 O12 1_555 1_555
O13 H25 1_555 1_555
H26 O13 1_555 1_555
O14 H27 1_555 1_555
H28 O14 1_555 1_555
O1A C23A 1_555 1_555
O2A C23A 1_555 1_555
O3A C27A 1_555 1_555
O4A C27A 1_555 1_555
C23A C24A 1_555 1_555
C24A C26 1_555 1_555
C25A C24A 1_555 1_555
H21A C25A 1_555 1_555
C26A C24 1_555 1_555
C27A C26A 1_555 1_555
O8A C28A 1_555 1_555
O9A C28A 1_555 1_555
O10A C32A 1_555 1_555
O11A C32A 1_555 1_555
C28A C29A 1_555 1_555
C29A C31 1_555 1_555
C30A C29A 1_555 1_555
C31A C29 1_555 1_555
H22A C31A 1_555 1_555
C32A C30A 1_555 1_555
Cd1A O5A 1_555 1_555
Cd2A O7A 1_555 1_555
Cd3A N12 1_555 1_555
O5A H1A 1_555 1_555
H2A O5A 1_555 1_555
O6A Cd1A 1_555 1_555
H3A O6A 1_555 1_555
H4A O6A 1_555 1_555
O7A H5A 1_555 1_555
H6A O7A 1_555 1_555
N1A Cd1A 1_555 1_555
N2A C2A 1_555 1_555
N3A Cd1A 1_555 1_555
N4A Cd2A 1_555 1_555
N5A C5A 1_555 1_555
N6A C9A 1_555 1_555
N7A Cd2A 1_555 1_555
N8A C13A 1_555 1_555
N9A Cd2A 1_555 1_555
N10A Cd1A 1_555 1_555
N11A C16A 1_555 1_555
N12A Cd3 1_555 1_555
C1A N1A 1_555 1_555
H7A C1A 1_555 1_555
C2A C1A 1_555 1_555
H8A C2A 1_555 1_555
C3A N2A 1_555 1_555
H9A C3A 1_555 1_555
C4A N1A 1_555 1_555
C5A N3A 1_555 1_555
C6A N4A 1_555 1_555
C7A C6A 1_555 1_555
C8A C7A 1_555 1_555
H10A C8A 1_555 1_555
C9A C8A 1_555 1_555
H11A C9A 1_555 1_555
C10A N6A 1_555 1_555
H12A C10A 1_555 1_555
C11A C7A 1_555 1_555
H13A C11A 1_555 1_555
C12A N7A 1_555 1_555
H14A C12A 1_555 1_555
C13A C12A 1_555 1_555
H15A C13A 1_555 1_555
C14A N8A 1_555 1_555
H16A C14A 1_555 1_555
C15A N7A 1_555 1_555
C16A N9A 1_555 1_555
C17A N10A 1_555 1_555
C18A C17A 1_555 1_555
C19A C18A 1_555 1_555
H17A C19A 1_555 1_555
C20A N12A 1_555 1_555
H18A C20A 1_555 1_555
C21A N12A 1_555 1_555
H19A C21A 1_555 1_555
C22A C18A 1_555 1_555
H20A C22A 1_555 1_555
Cd1A_2 O1A 1_555 1_555
Cd2A_2 O8A 1_555 1_555
Cd3_2 O3 1_555 1_555
Cd3_3 O2 1_555 1_555
Cd3A_2 O10A 1_555 1_555
Cd3A_3 O3A 1_555 1_555
O1A_2 Cd1A 1_555 1_555
O2_2 Cd3 1_555 1_555
O3_2 Cd3 1_555 1_555
O3A_2 Cd3A 1_555 1_555
O4_2 Cd3 1_555 1_555
O4A_2 Cd3A 1_555 1_555
O8A_2 Cd2A 1_555 1_555
O9A_2 Cd2A 1_555 1_555
O10A_2 Cd3A 1_555 1_555
O11A_2 Cd3A 1_555 1_555
O4 Cd3_2 1_555 1_555
O9 C28 1_555 1_555
N3 N4 1_555 1_555
N5 C6 1_555 1_555
N9 N10 1_555 1_555
N11 C17 1_555 1_555
C3 C4 1_555 1_555
C4 C5 1_555 1_555
C10 C11 1_555 1_555
C14 C15 1_555 1_555
C15 C16 1_555 1_555
C21 C22 1_555 1_555
C30 C32 1_555 1_555
O2A Cd3A 1_555 1_555
O4A Cd3A_3 1_555 1_555
C25A C26A 1_555 1_555
O9A Cd2A_2 1_555 1_555
O11A Cd3A_2 1_555 1_555
C30A C31A 1_555 1_555
N3A N4A 1_555 1_555
N5A C6A 1_555 1_555
N9A N10A 1_555 1_555
N11A C17A 1_555 1_555
C3A C4A 1_555 1_555
C4A C5A 1_555 1_555
C10A C11A 1_555 1_555
C14A C15A 1_555 1_555
C15A C16A 1_555 1_555
C19A C20A 1_555 1_555
C21A C22A 1_555 1_555

#END
