
#######################################################################
#
#                 Cambridge Crystallographic Data Centre
#                                CCDC 
#
#######################################################################
#
# If this CIF has been generated from an entry in the Cambridge 
# Structural Database, then it will include bibliographic, chemical, 
# crystal, experimental, refinement or atomic coordinate data resulting 
# from the CCDC's data processing and validation procedures.
#
#######################################################################

data_WIRYED
_symmetry_cell_setting           monoclinic
_symmetry_space_group_name_H-M   'P 21/c'
_symmetry_Int_Tables_number      14
_space_group_name_Hall           '-P 2ybc'
loop_
_symmetry_equiv_pos_site_id
_symmetry_equiv_pos_as_xyz
1 x,y,z
2 -x,1/2+y,1/2-z
3 -x,-y,-z
4 x,1/2-y,1/2+z
_cell_length_a                   11.5901(16)
_cell_length_b                   19.572(3)
_cell_length_c                   16.133(2)
_cell_angle_alpha                90
_cell_angle_beta                 108.472(6)
_cell_angle_gamma                90
_cell_volume                     3471.08
loop_
_atom_site_label
_atom_site_type_symbol
_atom_site_fract_x
_atom_site_fract_y
_atom_site_fract_z
Na1 Na 0.61401(5) 0.35040(3) 0.18821(4)
Na2 Na 0.88988(5) 0.34961(3) 0.34051(4)
O1 O 0.41188(10) 0.38309(6) 0.16584(8)
O2 O 1.09856(10) 0.35935(6) 0.36909(8)
N1 N 0.82408(11) 0.36535(6) 0.17534(8)
N2 N 0.67913(11) 0.35734(6) 0.35110(8)
C1 C 0.85409(14) 0.43193(7) 0.16168(9)
C2 C 0.77304(14) 0.48469(8) 0.16213(10)
C3 C 0.79816(16) 0.55277(8) 0.15640(10)
C4 C 0.90748(17) 0.57243(8) 0.14772(11)
C5 C 0.99143(16) 0.52294(9) 0.14734(11)
C6 C 0.96529(14) 0.45500(8) 0.15497(10)
C7 C 0.86497(13) 0.31288(7) 0.13453(9)
C8 C 0.88304(14) 0.24813(8) 0.17399(9)
C9 C 0.91402(15) 0.19054(8) 0.13695(10)
C10 C 0.93034(15) 0.19497(8) 0.05630(10)
C11 C 0.91418(14) 0.25713(8) 0.01447(9)
C12 C 0.88163(14) 0.31415(8) 0.05187(9)
C13 C 0.64294(13) 0.42218(7) 0.36668(9)
C14 C 0.71822(14) 0.47797(8) 0.36619(10)
C15 C 0.68695(15) 0.54500(8) 0.37252(11)
C16 C 0.57585(16) 0.56067(8) 0.38152(11)
C17 C 0.49800(14) 0.50795(8) 0.38303(10)
C18 C 0.53064(14) 0.44109(8) 0.37521(9)
C19 C 0.64019(13) 0.30207(7) 0.38834(9)
C20 C 0.62066(14) 0.23915(8) 0.34457(9)
C21 C 0.58713(16) 0.18017(8) 0.37745(11)
C22 C 0.57187(15) 0.18126(8) 0.45877(11)
C23 C 0.59105(14) 0.24158(8) 0.50476(10)
C24 C 0.62524(14) 0.29994(8) 0.47126(10)
C25 C 0.38102(17) 0.45451(9) 0.15561(11)
H1 H 0.4542 0.4813 0.1805
H2 H 0.3256 0.4649 0.1880
C26 C 0.3231(2) 0.47511(11) 0.06204(13)
H3 H 0.3772 0.4647 0.0294
H4 H 0.3067 0.5233 0.0590
H5 H 0.2483 0.4505 0.0378
C27 C 0.30648(18) 0.34109(10) 0.14969(15)
H6 H 0.2634 0.3398 0.0874
H7 H 0.2524 0.3604 0.1787
C28 C 0.34085(19) 0.27062(10) 0.18218(15)
H8 H 0.3943 0.2515 0.1534
H9 H 0.2690 0.2430 0.1701
H10 H 0.3815 0.2718 0.2441
C29 C 1.17608(16) 0.41821(9) 0.38780(12)
H11 H 1.2030 0.4285 0.3380
H12 H 1.2474 0.4090 0.4377
C30 C 1.10849(17) 0.47799(9) 0.40720(13)
H13 H 1.0407 0.4886 0.3565
H14 H 1.1619 0.5167 0.4224
H15 H 1.0795 0.4670 0.4551
C31 C 1.16044(18) 0.30009(10) 0.35255(13)
H16 H 1.2036 0.3122 0.3120
H17 H 1.1007 0.2655 0.3248
C32 C 1.2483(2) 0.27076(11) 0.43270(18)
H18 H 1.3124 0.3030 0.4573
H19 H 1.2820 0.2294 0.4182
H20 H 1.2072 0.2609 0.4745
F1 F 0.66238(8) 0.46767(5) 0.16785(6)
F2 F 0.71374(10) 0.60008(5) 0.15615(7)
F3 F 0.93134(11) 0.63880(5) 0.13862(8)
F4 F 1.09991(10) 0.54081(6) 0.14095(8)
F5 F 1.05324(8) 0.40895(5) 0.15781(7)
F6 F 0.86991(9) 0.24205(4) 0.25417(5)
F7 F 0.92812(11) 0.13055(5) 0.17880(6)
F8 F 0.95681(10) 0.13914(5) 0.01614(6)
F9 F 0.92468(9) 0.26069(5) -0.06650(6)
F10 F 0.86078(9) 0.37245(4) 0.00484(6)
F11 F 0.82933(8) 0.46508(5) 0.35838(6)
F12 F 0.76599(10) 0.59517(5) 0.37186(8)
F13 F 0.54410(10) 0.62587(5) 0.38884(8)
F14 F 0.38810(9) 0.52167(5) 0.39016(7)
F15 F 0.44706(8) 0.39231(4) 0.37273(6)
F16 F 0.63191(9) 0.23681(4) 0.26350(6)
F17 F 0.56769(11) 0.12269(5) 0.32998(7)
F18 F 0.54132(10) 0.12454(5) 0.49446(7)
F19 F 0.57903(9) 0.24255(5) 0.58551(6)
F20 F 0.64813(9) 0.35627(5) 0.52190(6)
Na1C Na 0.61401(5) 0.14960(3) 0.68821(4)
Na2C Na 0.88988(5) 0.15039(3) -0.15949(4)
F8C F 0.95681(10) 0.36086(5) 0.51614(6)
F9C F 0.92468(9) 0.23931(5) 0.43350(6)
F19C F 0.57903(9) 0.25745(5) 0.08551(6)
loop_
_geom_bond_atom_site_label_1
_geom_bond_atom_site_label_2
_geom_bond_site_symmetry_1
_geom_bond_site_symmetry_2
Na1 O1 1_555 1_555
Na2 O2 1_555 1_555
O1 C25 1_555 1_555
O2 C29 1_555 1_555
N1 Na1 1_555 1_555
N2 Na1 1_555 1_555
C1 N1 1_555 1_555
C2 C1 1_555 1_555
C3 C2 1_555 1_555
C4 C3 1_555 1_555
C5 C4 1_555 1_555
C6 C1 1_555 1_555
C7 N1 1_555 1_555
C8 C7 1_555 1_555
C9 C8 1_555 1_555
C10 C9 1_555 1_555
C11 C10 1_555 1_555
C12 C7 1_555 1_555
C13 N2 1_555 1_555
C14 C13 1_555 1_555
C15 C14 1_555 1_555
C16 C15 1_555 1_555
C17 C16 1_555 1_555
C18 C13 1_555 1_555
C19 N2 1_555 1_555
C20 C19 1_555 1_555
C21 C20 1_555 1_555
C22 C21 1_555 1_555
C23 C22 1_555 1_555
C24 C19 1_555 1_555
C25 H1 1_555 1_555
H2 C25 1_555 1_555
C26 C25 1_555 1_555
H3 C26 1_555 1_555
H4 C26 1_555 1_555
H5 C26 1_555 1_555
C27 O1 1_555 1_555
H6 C27 1_555 1_555
H7 C27 1_555 1_555
C28 C27 1_555 1_555
H8 C28 1_555 1_555
H9 C28 1_555 1_555
H10 C28 1_555 1_555
C29 H11 1_555 1_555
H12 C29 1_555 1_555
C30 C29 1_555 1_555
H13 C30 1_555 1_555
H14 C30 1_555 1_555
H15 C30 1_555 1_555
C31 O2 1_555 1_555
H16 C31 1_555 1_555
H17 C31 1_555 1_555
C32 C31 1_555 1_555
H18 C32 1_555 1_555
H19 C32 1_555 1_555
H20 C32 1_555 1_555
F1 Na1 1_555 1_555
F2 C3 1_555 1_555
F3 C4 1_555 1_555
F4 C5 1_555 1_555
F5 C6 1_555 1_555
F6 Na2 1_555 1_555
F7 C9 1_555 1_555
F8 C10 1_555 1_555
F9 C11 1_555 1_555
F10 C12 1_555 1_555
F11 Na2 1_555 1_555
F12 C15 1_555 1_555
F13 C16 1_555 1_555
F14 C17 1_555 1_555
F15 C18 1_555 1_555
F16 Na1 1_555 1_555
F17 C21 1_555 1_555
F18 C22 1_555 1_555
F19 C23 1_555 1_555
F20 C24 1_555 1_555
Na1C F19 1_555 1_555
Na2C F8 1_555 1_555
F8C Na2 1_555 1_555
F9C Na2 1_555 1_555
F19C Na1 1_555 1_555
Na2 N1 1_555 1_555
Na2 N2 1_555 1_555
C2 F1 1_555 1_555
C5 C6 1_555 1_555
C8 F6 1_555 1_555
C11 C12 1_555 1_555
C14 F11 1_555 1_555
C17 C18 1_555 1_555
C20 F16 1_555 1_555
C23 C24 1_555 1_555
F9 Na2C 1_555 1_555

#END
