
#######################################################################
#
#                 Cambridge Crystallographic Data Centre
#                                CCDC 
#
#######################################################################
#
# If this CIF has been generated from an entry in the Cambridge 
# Structural Database, then it will include bibliographic, chemical, 
# crystal, experimental, refinement or atomic coordinate data resulting 
# from the CCDC's data processing and validation procedures.
#
#######################################################################

data_WISCOS
_symmetry_cell_setting           monoclinic
_symmetry_space_group_name_H-M   'P 21/c'
_symmetry_Int_Tables_number      14
_space_group_name_Hall           '-P 2ybc'
loop_
_symmetry_equiv_pos_site_id
_symmetry_equiv_pos_as_xyz
1 x,y,z
2 -x,1/2+y,1/2-z
3 -x,-y,-z
4 x,1/2-y,1/2+z
_cell_length_a                   8.6067(11)
_cell_length_b                   16.565(2)
_cell_length_c                   12.6924(16)
_cell_angle_alpha                90
_cell_angle_beta                 108.0050(10)
_cell_angle_gamma                90
_cell_volume                     1720.94
loop_
_atom_site_label
_atom_site_type_symbol
_atom_site_fract_x
_atom_site_fract_y
_atom_site_fract_z
Ca1 Ca 0.42016(4) 0.20320(2) 0.25252(3)
Ca2 Ca 0.24395(4) 0.01875(2) 0.05293(3)
O1 O 0.30215(16) 0.23812(8) 0.39525(10)
C1 C 0.3571(2) 0.21612(12) 0.49684(15)
C2 C 0.5732(3) 0.11511(13) 0.61733(17)
C3 C 0.4882(2) 0.15428(12) 0.52115(16)
C4 C 0.6541(3) 0.07241(14) 0.47673(18)
C5 C 0.7496(3) 0.02644(17) 0.4171(2)
H1 H 0.6862 0.0208 0.3406
H2 H 0.7755 -0.0261 0.4499
H3 H 0.8489 0.0549 0.4222
N1 N 0.5397(2) 0.12707(11) 0.43399(14)
N2 N 0.6753(2) 0.06373(12) 0.58584(15)
H4 H 0.7429 0.0309 0.6292
O2 O 0.17670(16) 0.12292(9) 0.18940(12)
O3 O -0.02408(16) 0.05448(8) 0.07520(11)
C6 C 0.0277(2) 0.10483(11) 0.15192(15)
C7 C -0.0854(2) 0.14515(11) 0.20296(15)
N3 N -0.02119(19) 0.19425(11) 0.29321(14)
H5 H 0.0808 0.2050 0.3229
C8 C -0.1435(2) 0.22277(13) 0.32748(17)
C9 C -0.1178(3) 0.27552(18) 0.4265(2)
H6 H -0.2212 0.2871 0.4371
H7 H -0.0669 0.3250 0.4154
H8 H -0.0486 0.2484 0.4907
C10 C -0.3918(2) 0.10180(11) 0.10865(15)
C11 C -0.2514(2) 0.14588(11) 0.18637(15)
N4 N -0.28571(19) 0.19479(11) 0.26410(14)
C12 C 0.5777(3) 0.11245(13) 0.73654(17)
O4 O 0.30617(19) 0.24357(10) 0.57068(12)
O5 O 0.6751(2) 0.06061(11) 0.79257(13)
O6 O -0.37955(16) 0.07181(9) 0.02197(11)
O7 O -0.51903(16) 0.09821(9) 0.13870(12)
O8 O 0.2555(2) 0.09657(12) -0.10582(14)
O9 O 0.4896(2) 0.15846(9) 0.77083(12)
H9 H 0.245(4) 0.143(2) -0.102(3)
H10 H 0.342(6) 0.088(3) -0.119(4)
Ca1_2 Ca -0.57984(4) 0.20320(2) 0.25252(3)
Ca1C Ca 0.42016(4) 0.29680(2) 0.75252(3)
Ca2_2 Ca -0.75605(4) 0.01875(2) 0.05293(3)
Ca2B Ca -0.24395(4) -0.01875(2) -0.05293(3)
Ca2B_2 Ca 0.75605(4) -0.01875(2) 0.94707(3)
O3B O 0.02408(16) -0.05448(8) -0.07520(11)
N4_2 N 0.71429(19) 0.19479(11) 0.26410(14)
O4C O 0.30617(19) 0.25643(10) 0.07068(12)
O5B O 0.3249(2) -0.06061(11) 0.20743(13)
O6B O 0.37955(16) -0.07181(9) -0.02197(11)
O7_2 O 0.48097(16) 0.09821(9) 0.13870(12)
O9C O 0.4896(2) 0.34154(9) 0.27083(12)
O10 O 0.0529(8) 0.1170(7) 0.6669(5)
loop_
_geom_bond_atom_site_label_1
_geom_bond_atom_site_label_2
_geom_bond_site_symmetry_1
_geom_bond_site_symmetry_2
Ca1 O1 1_555 1_555
Ca2 O2 1_555 1_555
O1 C1 1_555 1_555
C1 C3 1_555 1_555
C2 C3 1_555 1_555
C3 N1 1_555 1_555
C4 C5 1_555 1_555
C5 H1 1_555 1_555
H2 C5 1_555 1_555
H3 C5 1_555 1_555
N1 Ca1 1_555 1_555
N2 C2 1_555 1_555
H4 N2 1_555 1_555
O2 Ca1 1_555 1_555
O3 Ca2 1_555 1_555
C6 O2 1_555 1_555
C7 C6 1_555 1_555
N3 C7 1_555 1_555
H5 N3 1_555 1_555
C8 N3 1_555 1_555
C9 C8 1_555 1_555
H6 C9 1_555 1_555
H7 C9 1_555 1_555
H8 C9 1_555 1_555
C10 C11 1_555 1_555
C11 C7 1_555 1_555
N4 C8 1_555 1_555
C12 C2 1_555 1_555
O4 C1 1_555 1_555
O5 C12 1_555 1_555
O6 C10 1_555 1_555
O7 C10 1_555 1_555
O8 Ca2 1_555 1_555
O9 C12 1_555 1_555
H9 O8 1_555 1_555
H10 O8 1_555 1_555
Ca1_2 N4 1_555 1_555
Ca1C O4 1_555 1_555
Ca2_2 O7 1_555 1_555
Ca2B O3 1_555 1_555
Ca2B_2 O5 1_555 1_555
O3B Ca2 1_555 1_555
N4_2 Ca1 1_555 1_555
O4C Ca1 1_555 1_555
O5B Ca2 1_555 1_555
O6B Ca2 1_555 1_555
O7_2 Ca1 1_555 1_555
O9C Ca1 1_555 1_555
Ca2 O7_2 1_555 1_555
C4 N1 1_555 1_555
C4 N2 1_555 1_555
O3 C6 1_555 1_555
C11 N4 1_555 1_555
O6 Ca2B 1_555 1_555
O7 Ca1_2 1_555 1_555
O9 Ca1C 1_555 1_555
Ca2B O3B 1_555 1_555

#END
