
#######################################################################
#
#                 Cambridge Crystallographic Data Centre
#                                CCDC 
#
#######################################################################
#
# If this CIF has been generated from an entry in the Cambridge 
# Structural Database, then it will include bibliographic, chemical, 
# crystal, experimental, refinement or atomic coordinate data resulting 
# from the CCDC's data processing and validation procedures.
#
#######################################################################

data_WISMES
_symmetry_cell_setting           monoclinic
_symmetry_space_group_name_H-M   'P 21/c'
_symmetry_Int_Tables_number      14
_space_group_name_Hall           '-P 2ybc'
loop_
_symmetry_equiv_pos_site_id
_symmetry_equiv_pos_as_xyz
1 x,y,z
2 -x,1/2+y,1/2-z
3 -x,-y,-z
4 x,1/2-y,1/2+z
_cell_length_a                   11.351(3)
_cell_length_b                   8.492(2)
_cell_length_c                   28.752(6)
_cell_angle_alpha                90
_cell_angle_beta                 111.309(8)
_cell_angle_gamma                90
_cell_volume                     2582.01
loop_
_atom_site_label
_atom_site_type_symbol
_atom_site_fract_x
_atom_site_fract_y
_atom_site_fract_z
C1 C -0.0292(2) 0.1596(3) 0.19736(8)
C2 C -0.0562(3) 0.1670(3) 0.14152(9)
H1 H -0.0231 0.0721 0.1320
H2 H -0.1472 0.1665 0.1241
C3 C 0.1142(3) 0.2869(3) 0.12499(9)
C4 C 0.1434(3) 0.3780(4) 0.09060(10)
H3 H 0.0817 0.4417 0.0684
C5 C 0.2639(3) 0.3747(4) 0.08911(11)
H4 H 0.2831 0.4352 0.0659
C6 C 0.3537(3) 0.2825(4) 0.12183(11)
C7 C 0.3262(3) 0.1908(4) 0.15542(12)
H5 H 0.3884 0.1268 0.1772
C8 C 0.2072(3) 0.1924(4) 0.15719(12)
H6 H 0.1891 0.1296 0.1802
C9 C 0.2144(3) 0.2436(3) 0.41458(9)
C10 C 0.2777(3) 0.3219(4) 0.46475(10)
H7 H 0.2996 0.4292 0.4596
H8 H 0.2185 0.3262 0.4820
C11 C 0.4960(3) 0.2631(4) 0.48543(9)
C12 C 0.5097(3) 0.3643(4) 0.44997(10)
H9 H 0.4401 0.4196 0.4288
C13 C 0.6250(3) 0.3831(4) 0.44596(11)
H10 H 0.6344 0.4540 0.4229
C14 C 0.7275(3) 0.2975(4) 0.47590(12)
C15 C 0.7147(3) 0.1931(4) 0.51024(11)
H11 H 0.7838 0.1347 0.5303
C16 C 0.5998(3) 0.1760(4) 0.51456(11)
H12 H 0.5908 0.1044 0.5375
C17 C 0.3588(2) 0.1958(3) 0.32837(9)
H13 H 0.3369 0.1253 0.3486
C18 C 0.4792(2) 0.1903(3) 0.32810(9)
H14 H 0.5369 0.1174 0.3479
C19 C 0.5148(2) 0.2931(3) 0.29838(8)
C20 C 0.4243(2) 0.3973(3) 0.26986(9)
H15 H 0.4435 0.4681 0.2490
C21 C 0.3054(2) 0.3963(3) 0.27228(9)
H16 H 0.2459 0.4681 0.2529
C22 C 0.6445(2) 0.2911(3) 0.29814(8)
C23 C 0.6727(2) 0.3443(3) 0.25774(8)
H17 H 0.6084 0.3805 0.2292
C24 C 0.7946(2) 0.3435(3) 0.25990(8)
H18 H 0.8107 0.3801 0.2323
C25 C 0.8649(2) 0.2406(4) 0.33781(9)
H19 H 0.9310 0.2032 0.3656
C26 C 0.7454(2) 0.2384(4) 0.33889(9)
H20 H 0.7321 0.2014 0.3670
Cl1 Cl 0.50672(9) 0.27875(13) 0.12117(3)
Cl2 Cl 0.87560(11) 0.32551(17) 0.47221(4)
N1 N 0.27167(18) 0.2972(2) 0.30111(7)
N2 N 0.89205(18) 0.2932(2) 0.29925(7)
O1 O 0.02425(15) 0.27513(18) 0.22358(5)
O2 O -0.06542(14) 0.03978(18) 0.21288(6)
O3 O -0.00542(19) 0.2995(2) 0.12478(7)
O4 O 0.15645(16) 0.3343(2) 0.37929(6)
O5 O 0.2235(2) 0.0999(3) 0.41189(7)
O6 O 0.3884(2) 0.2417(3) 0.49514(7)
O7 O 0.10170(15) 0.05300(19) 0.31772(6)
H21 H 0.0458 -0.0185 0.3076
H22 H 0.1339 0.0416 0.3492
Zn1 Zn 0.08390(2) 0.29472(3) 0.302422(9)
N2_2 N -0.10795(18) 0.2932(2) 0.29925(7)
O2A O 0.06542(14) 0.53978(18) 0.28712(6)
Zn1_2 Zn 1.08390(2) 0.29472(3) 0.302422(9)
Zn1A Zn -0.08390(2) -0.20528(3) 0.197578(9)
loop_
_geom_bond_atom_site_label_1
_geom_bond_atom_site_label_2
_geom_bond_site_symmetry_1
_geom_bond_site_symmetry_2
C1 C2 1_555 1_555
C2 H1 1_555 1_555
H2 C2 1_555 1_555
C3 C4 1_555 1_555
C4 H3 1_555 1_555
C5 C4 1_555 1_555
H4 C5 1_555 1_555
C6 C5 1_555 1_555
C7 C6 1_555 1_555
H5 C7 1_555 1_555
C8 C3 1_555 1_555
H6 C8 1_555 1_555
C9 C10 1_555 1_555
C10 H7 1_555 1_555
H8 C10 1_555 1_555
C11 C12 1_555 1_555
C12 H9 1_555 1_555
C13 C12 1_555 1_555
H10 C13 1_555 1_555
C14 C13 1_555 1_555
C15 C14 1_555 1_555
H11 C15 1_555 1_555
C16 C11 1_555 1_555
H12 C16 1_555 1_555
C17 H13 1_555 1_555
C18 C17 1_555 1_555
H14 C18 1_555 1_555
C19 C18 1_555 1_555
C20 C19 1_555 1_555
H15 C20 1_555 1_555
C21 C20 1_555 1_555
H16 C21 1_555 1_555
C22 C19 1_555 1_555
C23 C22 1_555 1_555
H17 C23 1_555 1_555
C24 C23 1_555 1_555
H18 C24 1_555 1_555
C25 H19 1_555 1_555
C26 C22 1_555 1_555
H20 C26 1_555 1_555
Cl1 C6 1_555 1_555
Cl2 C14 1_555 1_555
N1 C17 1_555 1_555
N2 C24 1_555 1_555
O1 C1 1_555 1_555
O2 C1 1_555 1_555
O3 C2 1_555 1_555
O4 C9 1_555 1_555
O5 C9 1_555 1_555
O6 C10 1_555 1_555
O7 H21 1_555 1_555
H22 O7 1_555 1_555
Zn1 N1 1_555 1_555
N2_2 Zn1 1_555 1_555
O2A Zn1 1_555 1_555
Zn1_2 N2 1_555 1_555
Zn1A O2 1_555 1_555
C3 O3 1_555 1_555
C7 C8 1_555 1_555
C11 O6 1_555 1_555
C15 C16 1_555 1_555
C21 N1 1_555 1_555
C25 C26 1_555 1_555
C25 N2 1_555 1_555
O1 Zn1 1_555 1_555
O4 Zn1 1_555 1_555
O7 Zn1 1_555 1_555

#END
