
#######################################################################
#
#                 Cambridge Crystallographic Data Centre
#                                CCDC 
#
#######################################################################
#
# If this CIF has been generated from an entry in the Cambridge 
# Structural Database, then it will include bibliographic, chemical, 
# crystal, experimental, refinement or atomic coordinate data resulting 
# from the CCDC's data processing and validation procedures.
#
#######################################################################

data_WISZIH
_symmetry_cell_setting           monoclinic
_symmetry_space_group_name_H-M   'P 21/m'
_symmetry_Int_Tables_number      11
_space_group_name_Hall           '-P 2yb'
loop_
_symmetry_equiv_pos_site_id
_symmetry_equiv_pos_as_xyz
1 x,y,z
2 x,1/2-y,z
3 -x,-y,-z
4 -x,1/2+y,-z
_cell_length_a                   4.1192(13)
_cell_length_b                   26.493(7)
_cell_length_c                   6.177(2)
_cell_angle_alpha                90
_cell_angle_beta                 97.16(2)
_cell_angle_gamma                90
_cell_volume                     668.839
loop_
_atom_site_label
_atom_site_type_symbol
_atom_site_fract_x
_atom_site_fract_y
_atom_site_fract_z
Cu1 Cu -0.4937(3) 0.2500 0.7740(2)
I1 I 0.04592(14) 0.2500 1.05841(10)
N1 N -0.5296(13) 0.3201(2) 0.6424(8)
C1 C -0.6517(17) 0.3571(2) 0.7572(10)
H1 H -0.7383(17) 0.3491(2) 0.8850(10)
C2 C -0.6509(16) 0.4065(2) 0.6895(10)
N2 N -0.5259(15) 0.4213(2) 0.5105(9)
C3 C -0.4082(19) 0.3843(3) 0.3971(11)
H2 H -0.3214(19) 0.3923(3) 0.2695(11)
C4 C -0.4098(17) 0.3338(3) 0.4618(10)
H3 H -0.3252(17) 0.3093(3) 0.3767(10)
C5 C -0.8000(17) 0.4461(2) 0.8238(11)
O1 O -0.9367(15) 0.4323(2) 0.9805(8)
N3 N -0.7844(19) 0.4932(2) 0.7602(10)
H4 H -0.652(18) 0.5016(25) 0.670(11)
H5 H -0.823(20) 0.5185(18) 0.839(11)
Cu1_2 Cu 0.5063(3) 0.2500 0.7740(2)
I1_2 I -0.95408(14) 0.2500 1.05841(10)
N1A N -0.5296(13) 0.1799(2) 0.6424(8)
C1A C -0.6517(17) 0.1429(2) 0.7572(10)
H1A H -0.7383(17) 0.1509(2) 0.8850(10)
C2A C -0.6509(16) 0.0935(2) 0.6895(10)
N2A N -0.5259(15) 0.0787(2) 0.5105(9)
C3A C -0.4082(19) 0.1157(3) 0.3971(11)
H2A H -0.3214(19) 0.1077(3) 0.2695(11)
C4A C -0.4098(17) 0.1662(3) 0.4618(10)
H3A H -0.3252(17) 0.1907(3) 0.3767(10)
C5A C -0.8000(17) 0.0539(2) 0.8238(11)
O1A O -0.9367(15) 0.0677(2) 0.9805(8)
N3A N -0.7844(19) 0.0068(2) 0.7602(10)
H4A H -0.652(18) -0.0016(25) 0.670(11)
H5A H -0.823(20) -0.0185(18) 0.839(11)
loop_
_geom_bond_atom_site_label_1
_geom_bond_atom_site_label_2
_geom_bond_site_symmetry_1
_geom_bond_site_symmetry_2
Cu1 I1 1_555 1_555
I1 Cu1_2 1_555 1_555
N1 Cu1 1_555 1_555
C1 N1 1_555 1_555
H1 C1 1_555 1_555
C2 C1 1_555 1_555
N2 C2 1_555 1_555
C3 N2 1_555 1_555
H2 C3 1_555 1_555
C4 N1 1_555 1_555
H3 C4 1_555 1_555
C5 C2 1_555 1_555
O1 C5 1_555 1_555
N3 C5 1_555 1_555
H4 N3 1_555 1_555
H5 N3 1_555 1_555
I1_2 Cu1 1_555 1_555
N1A Cu1 1_555 1_555
C1A N1A 1_555 1_555
H1A C1A 1_555 1_555
C2A C1A 1_555 1_555
N2A C2A 1_555 1_555
C3A N2A 1_555 1_555
H2A C3A 1_555 1_555
C4A N1A 1_555 1_555
H3A C4A 1_555 1_555
C5A C2A 1_555 1_555
O1A C5A 1_555 1_555
N3A C5A 1_555 1_555
H4A N3A 1_555 1_555
H5A N3A 1_555 1_555
C3 C4 1_555 1_555
C3A C4A 1_555 1_555

#END
