
#######################################################################
#
#                 Cambridge Crystallographic Data Centre
#                                CCDC 
#
#######################################################################
#
# If this CIF has been generated from an entry in the Cambridge 
# Structural Database, then it will include bibliographic, chemical, 
# crystal, experimental, refinement or atomic coordinate data resulting 
# from the CCDC's data processing and validation procedures.
#
#######################################################################

data_WITBOS
_symmetry_cell_setting           triclinic
_symmetry_space_group_name_H-M   'P -1'
_symmetry_Int_Tables_number      2
_space_group_name_Hall           '-P 1'
loop_
_symmetry_equiv_pos_site_id
_symmetry_equiv_pos_as_xyz
1 x,y,z
2 -x,-y,-z
_cell_length_a                   14.9041(4)
_cell_length_b                   14.9880(4)
_cell_length_c                   20.4602(5)
_cell_angle_alpha                96.5100(10)
_cell_angle_beta                 90.6430(10)
_cell_angle_gamma                94.1980(10)
_cell_volume                     4527.92
loop_
_atom_site_label
_atom_site_type_symbol
_atom_site_fract_x
_atom_site_fract_y
_atom_site_fract_z
W1 W 0.80996(9) 0.66258(9) 0.67222(7)
W2 W 0.64301(9) 0.54213(8) 0.75352(7)
W3 W 0.78328(9) 0.71574(8) 0.84257(6)
W4 W 0.78352(9) 0.89235(9) 0.64779(7)
W5 W 0.64273(9) 0.71413(9) 0.55753(6)
W6 W 0.47574(8) 0.59233(8) 0.63915(6)
W7 W 0.44633(9) 0.64811(9) 0.81215(7)
W8 W 0.58669(9) 0.82013(8) 0.90091(6)
W9 W 0.75527(9) 0.94453(8) 0.81837(6)
W10 W 0.59077(10) 0.99714(8) 0.70524(7)
W11 W 0.45053(9) 0.81920(9) 0.61565(6)
W12 W 0.42344(9) 0.87444(9) 0.78874(8)
P1 P 0.6158(6) 0.7687(6) 0.7283(4)
C1 C 0.943(2) 0.159(2) 0.3286(16)
H1 H 0.9641 0.2169 0.3453
C2 C 0.977(3) 0.120(2) 0.2688(17)
H2 H 1.0162 0.1522 0.2434
C3 C 0.952(3) 0.034(3) 0.2512(19)
H3 H 0.9758 0.0061 0.2132
C4 C 0.889(3) -0.017(2) 0.2874(17)
C5 C 0.852(2) 0.034(2) 0.3409(15)
C6 C 0.776(2) 0.001(2) 0.3860(16)
C7 C 0.709(3) -0.062(2) 0.3665(17)
C8 C 0.647(3) -0.080(3) 0.416(2)
H4 H 0.5963 -0.1204 0.4061
C9 C 0.661(3) -0.038(3) 0.4786(19)
H5 H 0.6233 -0.0544 0.5118
C10 C 0.729(2) 0.024(2) 0.4933(15)
H6 H 0.7359 0.0553 0.5353
C11 C 0.883(3) -0.113(3) 0.2752(19)
C12 C 0.687(4) -0.099(4) 0.302(3)
C13 C 0.555(2) 0.323(2) 0.6101(15)
H7 H 0.4941 0.3133 0.6199
C14 C 0.578(2) 0.370(2) 0.5571(16)
H8 H 0.5343 0.3865 0.5288
C15 C 0.6687(18) 0.3900(18) 0.5482(13)
H9 H 0.6864 0.4261 0.5159
C16 C 0.7352(19) 0.3572(18) 0.5869(13)
C17 C 0.7037(19) 0.3032(18) 0.6359(13)
C18 C 0.7595(18) 0.2570(17) 0.6754(12)
C19 C 0.8446(18) 0.2192(16) 0.6597(12)
C20 C 0.888(3) 0.187(2) 0.7075(17)
H10 H 0.9433 0.1645 0.6978
C21 C 0.858(2) 0.185(2) 0.7706(16)
H11 H 0.8915 0.1637 0.8031
C22 C 0.772(2) 0.216(2) 0.7830(15)
H12 H 0.7474 0.2145 0.8244
C23 C 0.828(2) 0.3934(18) 0.5827(13)
C24 C 0.884(2) 0.212(2) 0.5928(15)
C25 C 0.881(2) 0.444(2) 0.7798(15)
H13 H 0.8406 0.4098 0.7503
C26 C 0.867(2) 0.444(2) 0.8454(16)
H14 H 0.8153 0.4161 0.8611
C27 C 0.9325(19) 0.4862(18) 0.8871(14)
H15 H 0.9278 0.4793 0.9315
C28 C 1.007(2) 0.5396(19) 0.8675(13)
C29 C 1.010(2) 0.543(2) 0.7971(13)
C30 C 1.082(2) 0.6004(18) 0.7634(14)
C31 C 1.131(2) 0.679(2) 0.7902(15)
C32 C 1.194(2) 0.710(2) 0.7481(15)
H16 H 1.2282 0.7639 0.7612
C33 C 1.210(2) 0.663(2) 0.6851(17)
H17 H 1.2592 0.6798 0.6602
C34 C 1.153(3) 0.595(2) 0.6639(18)
H18 H 1.1569 0.5706 0.6204
C35 C 1.076(2) 0.578(2) 0.9145(17)
C36 C 1.110(2) 0.736(2) 0.8501(15)
C37 C 0.675(2) 0.1459(18) 1.0322(14)
H19 H 0.7129 0.1320 1.0653
C38 C 0.629(2) 0.081(2) 0.9975(15)
H20 H 0.6283 0.0223 1.0087
C39 C 0.580(2) 0.100(2) 0.9415(16)
H21 H 0.5479 0.0550 0.9146
C40 C 0.5825(19) 0.1886(17) 0.9281(13)
C41 C 0.6271(19) 0.2542(18) 0.9729(12)
C42 C 0.628(2) 0.3554(19) 0.9715(13)
C43 C 0.5687(19) 0.4014(19) 0.9408(13)
C44 C 0.594(2) 0.492(2) 0.9413(16)
H22 H 0.5542 0.5273 0.9226
C45 C 0.672(2) 0.532(2) 0.9673(16)
H23 H 0.6897 0.5919 0.9627
C46 C 0.723(2) 0.481(2) 1.0004(15)
H24 H 0.7748 0.5076 1.0229
C47 C 0.547(2) 0.204(2) 0.8594(14)
C48 C 0.479(2) 0.371(2) 0.9165(16)
Cu1 Cu 0.8670(3) 0.1566(3) 0.45647(18)
Cu2 Cu 0.5973(2) 0.2726(2) 0.74101(16)
Cu3 Cu 0.9870(2) 0.4754(2) 0.66244(17)
Cu4 Cu 1.2363(3) 0.6779(3) 0.9371(2)
N1 N 0.8827(18) 0.1171(18) 0.3604(13)
N2 N 0.7837(18) 0.0411(16) 0.4463(12)
N3 N 0.6159(15) 0.2930(15) 0.6467(10)
N4 N 0.7267 0.2489 0.7362
N5 N 0.9502 0.4935 0.7557
N6 N 1.0876 0.5583 0.7016
N7 N 0.6703 0.2303 1.0236
N8 N 0.7029 0.3927 1.0018
O1 O 0.9051(16) 0.6150(15) 0.6432(11)
O2 O 0.6540(15) 0.4346(13) 0.7647(10)
O3 O 0.842(2) 0.6906(19) 0.7582(14)
O4 O 0.7395(19) 0.5626(17) 0.6963(12)
O5 O 0.739(2) 0.6564(19) 0.5965(15)
O6 O 0.834(2) 0.7849(18) 0.6660(14)
O7 O 0.5441(18) 0.5776(18) 0.8071(12)
O8 O 0.6835(16) 0.7496(15) 0.8950(12)
O9 O 0.391(2) 0.755(2) 0.8013(16)
O10 O 0.491(2) 0.882(2) 0.8707(15)
O11 O 0.402(2) 0.838(2) 0.7014(15)
O12 O 0.500(2) 0.9690(19) 0.7640(14)
O13 O 0.5438(17) 0.7840(16) 0.5562(12)
O14 O 0.692(2) 0.973(2) 0.6511(14)
O15 O 0.5609(16) 0.6173(14) 0.5736(11)
O16 O 0.813(2) 0.934(2) 0.7356(14)
O17 O 0.568(2) 0.538(2) 0.6795(13)
O18 O 0.8069(18) 0.8362(16) 0.8354(12)
O19 O 0.4206(16) 0.6944(15) 0.6161(11)
O20 O 0.670(2) 1.013(2) 0.7778(15)
O21 O 0.716(2) 0.8240(19) 0.5847(15)
O22 O 0.422(2) 0.6084(19) 0.7236(13)
O23 O 0.6683(17) 0.9157(15) 0.8776(12)
O24 O 0.660(2) 0.6928(18) 0.4760(13)
O25 O 0.8620(18) 0.9486(18) 0.6078(12)
O26 O 0.3689(16) 0.5895(16) 0.8521(12)
O27 O 0.508(2) 0.7147(18) 0.8893(15)
O28 O 0.5815(18) 0.8486(16) 0.9807(12)
O29 O 0.3293(18) 0.9223(16) 0.8134(12)
O30 O 0.5777(18) 1.1039(16) 0.6939(12)
O31 O 0.3688(19) 0.8452(18) 0.5663(13)
O32 O 0.521(2) 0.9265(19) 0.6384(14)
O33 O 0.8200(19) 1.0217(18) 0.8625(13)
O34 O 0.7163(19) 0.6018(18) 0.8224(13)
O35 O 0.858(2) 0.691(2) 0.8998(14)
O36 O 0.413(2) 0.5113(19) 0.5962(15)
O37 O 0.684(2) 0.704(2) 0.7447(14)
O38 O 0.546(2) 0.772(2) 0.7868(15)
O39 O 0.567(2) 0.740(2) 0.6669(14)
O40 O 0.668(2) 0.865(2) 0.7302(16)
O41 O 0.8593(19) -0.1661(18) 0.3159(13)
O42 O 0.898(2) -0.142(2) 0.2115(14)
H25 H 0.8936 -0.1973 0.2061
O43 O 0.716(2) -0.064(2) 0.2522(15)
O44 O 0.646(3) -0.183(3) 0.298(2)
H26 H 0.6355 -0.2015 0.2589
O45 O 0.8740(15) 0.4076(14) 0.6366(11)
O46 O 0.8583(14) 0.4173(14) 0.5291(10)
O47 O 0.8300(15) 0.1902(14) 0.5449(10)
O48 O 0.9654(19) 0.2226(19) 0.5872(13)
O49 O 1.0548(19) 0.6029(18) 0.9715(12)
O50 O 1.1546(16) 0.5800(15) 0.8952(11)
O51 O 1.0326(19) 0.7586(18) 0.8557(13)
O52 O 1.1775(18) 0.7600(16) 0.8876(12)
O53 O 0.4812(16) 0.1620(15) 0.8377(11)
O54 O 0.5988(13) 0.2583(13) 0.8336(9)
O55 O 0.4397(19) 0.3148(18) 0.9545(13)
H27 H 0.3890 0.2981 0.9400
O56 O 0.4470(18) 0.3955(17) 0.8684(12)
O57 O 0.9943(17) 0.0945(16) 0.4821(12)
H28 H 1.0247 0.0796 0.4483
H29 H 1.0259 0.0876 0.5158
O58 O 0.9214(17) 0.2793(16) 0.4488(11)
H30 H 0.8820 0.3152 0.4619
H31 H 0.9403 0.2935 0.4121
O59 O 0.4754(19) 0.3150(18) 0.7423(13)
H32 H 0.4549 0.3466 0.7751
H33 H 0.4314 0.2968 0.7161
O60 O 1.0230(14) 0.4761(13) 0.5692(9)
H34 H 1.0778 0.4935 0.5640
H35 H 1.0081 0.4345 0.5384
O61 O 1.0606(14) 0.3529(13) 0.6680(10)
H36 H 1.0292 0.3106 0.6452
H37 H 1.1103 0.3327 0.6777
Cu2_2 Cu 0.5973(2) 1.2726(2) 0.74101(16)
Cu4A Cu 0.7637(3) 0.3221(3) 1.0629(2)
N7A N 1.3297 0.7697 0.9764
N8A N 1.2971 0.6073 0.9982
O30_2 O 0.5777(18) 0.1039(16) 0.6939(12)
O62 O 0.848(2) 0.811(2) 0.4507(17)
H38 H 0.7950 0.8265 0.4595
H39 H 0.8554 0.8132 0.4098
O63 O 0.9076(19) 0.6627(19) 0.4962(13)
H40 H 0.8687 0.6536 0.5252
H41 H 0.9267 0.7180 0.5024
O64 O 0.902(3) 0.684(2) 0.1912(18)
H42 H 0.9172 0.6578 0.2241
H43 H 0.9481 0.6883 0.1671
O65 O 0.844(3) 0.259(3) 0.945(2)
H44 H 0.8650 0.2087 0.9508
H45 H 0.8758 0.3000 0.9687
O66 O 0.748(4) 0.580(3) 0.187(2)
H46 H 0.7294 0.5242 0.1814
H47 H 0.8025 0.5828 0.2005
O67 O 0.903(4) 0.655(4) 0.050(3)
H48 H 0.8797 0.6759 0.0172
H49 H 0.9506 0.6313 0.0372
O68 O 0.692(4) 0.882(3) 0.134(2)
H50 H 0.6504 0.8868 0.1615
H51 H 0.7382 0.9144 0.1506
O69 O 0.281(4) 0.278(4) 0.911(3)
H52 H 0.2278 0.2814 0.9255
H53 H 0.2886 0.2221 0.9011
O70 O 0.274(6) 0.371(6) 0.664(4)
H54 H 0.2897 0.4166 0.6453
H55 H 0.2910 0.3246 0.6401
loop_
_geom_bond_atom_site_label_1
_geom_bond_atom_site_label_2
_geom_bond_site_symmetry_1
_geom_bond_site_symmetry_2
W1 O1 1_555 1_555
W2 O2 1_555 1_555
W3 O3 1_555 1_555
W4 O6 1_555 1_555
W5 O5 1_555 1_555
W6 O15 1_555 1_555
W7 O7 1_555 1_555
W8 O8 1_555 1_555
W9 O16 1_555 1_555
W10 O12 1_555 1_555
W11 O11 1_555 1_555
W12 O9 1_555 1_555
P1 O37 1_555 1_555
C1 H1 1_555 1_555
C2 C1 1_555 1_555
H2 C2 1_555 1_555
C3 C2 1_555 1_555
H3 C3 1_555 1_555
C4 C3 1_555 1_555
C5 C4 1_555 1_555
C6 C5 1_555 1_555
C7 C6 1_555 1_555
C8 C7 1_555 1_555
H4 C8 1_555 1_555
C9 C8 1_555 1_555
H5 C9 1_555 1_555
C10 C9 1_555 1_555
H6 C10 1_555 1_555
C11 C4 1_555 1_555
C12 C7 1_555 1_555
C13 H7 1_555 1_555
C14 C13 1_555 1_555
H8 C14 1_555 1_555
C15 C14 1_555 1_555
H9 C15 1_555 1_555
C16 C15 1_555 1_555
C17 C16 1_555 1_555
C18 C17 1_555 1_555
C19 C18 1_555 1_555
C20 C19 1_555 1_555
H10 C20 1_555 1_555
C21 C20 1_555 1_555
H11 C21 1_555 1_555
C22 C21 1_555 1_555
H12 C22 1_555 1_555
C23 C16 1_555 1_555
C24 C19 1_555 1_555
C25 H13 1_555 1_555
C26 C25 1_555 1_555
H14 C26 1_555 1_555
C27 C26 1_555 1_555
H15 C27 1_555 1_555
C28 C27 1_555 1_555
C29 C28 1_555 1_555
C30 C29 1_555 1_555
C31 C30 1_555 1_555
C32 C31 1_555 1_555
H16 C32 1_555 1_555
C33 C32 1_555 1_555
H17 C33 1_555 1_555
C34 C33 1_555 1_555
H18 C34 1_555 1_555
C35 C28 1_555 1_555
C36 C31 1_555 1_555
C37 H19 1_555 1_555
C38 C37 1_555 1_555
H20 C38 1_555 1_555
C39 C38 1_555 1_555
H21 C39 1_555 1_555
C40 C39 1_555 1_555
C41 C40 1_555 1_555
C42 C41 1_555 1_555
C43 C42 1_555 1_555
C44 C43 1_555 1_555
H22 C44 1_555 1_555
C45 C44 1_555 1_555
H23 C45 1_555 1_555
C46 C45 1_555 1_555
H24 C46 1_555 1_555
C47 C40 1_555 1_555
C48 C43 1_555 1_555
Cu1 N1 1_555 1_555
Cu2 N3 1_555 1_555
Cu3 N5 1_555 1_555
Cu4 O50 1_555 1_555
N1 C1 1_555 1_555
N2 C6 1_555 1_555
N3 C13 1_555 1_555
N4 C18 1_555 1_555
N5 C25 1_555 1_555
N6 C30 1_555 1_555
N7 C37 1_555 1_555
N8 C42 1_555 1_555
O1 Cu3 1_555 1_555
O2 Cu2 1_555 1_555
O3 W1 1_555 1_555
O4 W1 1_555 1_555
O5 W1 1_555 1_555
O6 W1 1_555 1_555
O7 W2 1_555 1_555
O8 W3 1_555 1_555
O9 W7 1_555 1_555
O10 W8 1_555 1_555
O11 W12 1_555 1_555
O12 W12 1_555 1_555
O13 W5 1_555 1_555
O14 W4 1_555 1_555
O15 W5 1_555 1_555
O16 W4 1_555 1_555
O17 W2 1_555 1_555
O18 W3 1_555 1_555
O19 W6 1_555 1_555
O20 W9 1_555 1_555
O21 W4 1_555 1_555
O22 W6 1_555 1_555
O23 W8 1_555 1_555
O24 W5 1_555 1_555
O25 W4 1_555 1_555
O26 W7 1_555 1_555
O27 W7 1_555 1_555
O28 W8 1_555 1_555
O29 W12 1_555 1_555
O30 W10 1_555 1_555
O31 W11 1_555 1_555
O32 W10 1_555 1_555
O33 W9 1_555 1_555
O34 W2 1_555 1_555
O35 W3 1_555 1_555
O36 W6 1_555 1_555
O37 W1 1_555 1_555
O38 W7 1_555 1_555
O39 W5 1_555 1_555
O40 W4 1_555 1_555
O41 C11 1_555 1_555
O42 C11 1_555 1_555
H25 O42 1_555 1_555
O43 C12 1_555 1_555
O44 C12 1_555 1_555
H26 O44 1_555 1_555
O45 C23 1_555 1_555
O46 C23 1_555 1_555
O47 C24 1_555 1_555
O48 C24 1_555 1_555
O49 C35 1_555 1_555
O50 C35 1_555 1_555
O51 C36 1_555 1_555
O52 C36 1_555 1_555
O53 C47 1_555 1_555
O54 C47 1_555 1_555
O55 C48 1_555 1_555
H27 O55 1_555 1_555
O56 C48 1_555 1_555
O57 Cu1 1_555 1_555
H28 O57 1_555 1_555
H29 O57 1_555 1_555
O58 Cu1 1_555 1_555
H30 O58 1_555 1_555
H31 O58 1_555 1_555
O59 Cu2 1_555 1_555
H32 O59 1_555 1_555
H33 O59 1_555 1_555
O60 Cu3 1_555 1_555
H34 O60 1_555 1_555
H35 O60 1_555 1_555
O61 Cu3 1_555 1_555
H36 O61 1_555 1_555
H37 O61 1_555 1_555
O62 H38 1_555 1_555
H39 O62 1_555 1_555
O63 H40 1_555 1_555
H41 O63 1_555 1_555
O64 H42 1_555 1_555
H43 O64 1_555 1_555
O65 H44 1_555 1_555
H45 O65 1_555 1_555
O66 H46 1_555 1_555
H47 O66 1_555 1_555
O67 H48 1_555 1_555
H49 O67 1_555 1_555
O68 H50 1_555 1_555
H51 O68 1_555 1_555
O69 H52 1_555 1_555
H53 O69 1_555 1_555
O70 H54 1_555 1_555
H55 O70 1_555 1_555
Cu2_2 O30 1_555 1_555
Cu4A N7 1_555 1_555
N7A Cu4 1_555 1_555
N8A Cu4 1_555 1_555
O30_2 Cu2 1_555 1_555
W2 O4 1_555 1_555
W2 O37 1_555 1_555
W3 O34 1_555 1_555
W3 O37 1_555 1_555
W5 O21 1_555 1_555
W6 O17 1_555 1_555
W6 O39 1_555 1_555
W7 O22 1_555 1_555
W8 O27 1_555 1_555
W8 O38 1_555 1_555
W9 O18 1_555 1_555
W9 O23 1_555 1_555
W9 O40 1_555 1_555
W10 O14 1_555 1_555
W10 O20 1_555 1_555
W10 O40 1_555 1_555
W11 O13 1_555 1_555
W11 O19 1_555 1_555
W11 O32 1_555 1_555
W11 O39 1_555 1_555
W12 O10 1_555 1_555
W12 O38 1_555 1_555
P1 O38 1_555 1_555
P1 O39 1_555 1_555
P1 O40 1_555 1_555
C5 N1 1_555 1_555
C10 N2 1_555 1_555
C17 N3 1_555 1_555
C22 N4 1_555 1_555
C29 N5 1_555 1_555
C34 N6 1_555 1_555
C41 N7 1_555 1_555
C46 N8 1_555 1_555
Cu1 N2 1_555 1_555
Cu1 O47 1_555 1_555
Cu2 N4 1_555 1_555
Cu2 O54 1_555 1_555
Cu3 N6 1_555 1_555
Cu3 O45 1_555 1_555
Cu4 O52 1_555 1_555
N8 Cu4A 1_555 1_555

#END
