
#######################################################################
#
#                 Cambridge Crystallographic Data Centre
#                                CCDC 
#
#######################################################################
#
# If this CIF has been generated from an entry in the Cambridge 
# Structural Database, then it will include bibliographic, chemical, 
# crystal, experimental, refinement or atomic coordinate data resulting 
# from the CCDC's data processing and validation procedures.
#
#######################################################################

data_WITFOW
_symmetry_cell_setting           monoclinic
_symmetry_space_group_name_H-M   'P 21/n'
_symmetry_Int_Tables_number      14
_space_group_name_Hall           '-P 2yn'
loop_
_symmetry_equiv_pos_site_id
_symmetry_equiv_pos_as_xyz
1 x,y,z
2 1/2-x,1/2+y,1/2-z
3 -x,-y,-z
4 1/2+x,1/2-y,1/2+z
_cell_length_a                   16.0577(18)
_cell_length_b                   15.9369(15)
_cell_length_c                   16.9495(15)
_cell_angle_alpha                90
_cell_angle_beta                 109.367(11)
_cell_angle_gamma                90
_cell_volume                     4092.1
loop_
_atom_site_label
_atom_site_type_symbol
_atom_site_fract_x
_atom_site_fract_y
_atom_site_fract_z
Zn1 Zn 0.47649(5) 0.61569(4) 1.65237(3)
Zn2 Zn 0.70493(5) 0.40903(5) 1.64573(4)
O1 O 0.5581(3) 0.6275(3) 1.5891(2)
O2 O 0.6331(3) 0.5141(3) 1.6487(2)
O3 O 0.6387(3) 0.4271(3) 1.5099(2)
O4 O 0.6048(2) 0.4791(2) 1.3821(2)
O5 O 0.8393(4) 0.4868(4) 1.6642(3)
H1 H 0.8573 0.5261 1.6997
H2 H 0.8772 0.4694 1.6430
O6 O 0.5189(3) 0.6014(3) 1.7731(2)
O7 O 0.6304(3) 0.6816(3) 1.7727(2)
O8 O 0.7343(3) 0.8179(3) 1.8928(2)
O9 O 0.5919(3) 0.8480(3) 1.8625(3)
N1 N 0.7642(3) 0.4106(3) 1.7787(3)
N2 N 0.9258(3) 0.7654(3) 2.1337(3)
N3 N 0.8078(6) 0.4095(5) 2.3707(4)
N4 N 1.1071(3) 0.1810(3) 2.1468(2)
C1 C 0.7350(4) 0.4628(4) 1.8239(3)
H3 H 0.6833 0.4934 1.7970
C2 C 0.7766(4) 0.4752(4) 1.9094(3)
H4 H 0.7530 0.5132 1.9388
C3 C 0.8527(4) 0.4313(4) 1.9507(3)
C4 C 0.8817(4) 0.3745(4) 1.9041(3)
H5 H 0.9324 0.3421 1.9299
C5 C 0.8363(4) 0.3650(4) 1.8194(3)
H6 H 0.8567 0.3252 1.7892
C6 C 0.9024(4) 0.4447(4) 2.0421(3)
H7 H 0.9631 0.4630 2.0481
C7 C 0.9372(4) 0.7132(4) 2.1976(3)
H8 H 0.9580 0.7354 2.2520
C8 C 0.9205(4) 0.6291(4) 2.1887(3)
H9 H 0.9311 0.5953 2.2365
C9 C 0.8880(4) 0.5929(4) 2.1101(3)
C10 C 0.8745(4) 0.6475(4) 2.0434(3)
H10 H 0.8519 0.6268 1.9884
C11 C 0.8935(4) 0.7310(4) 2.0565(3)
H11 H 0.8838 0.7661 2.0098
C12 C 0.8671(4) 0.5014(4) 2.0984(3)
H12 H 0.8025 0.4935 2.0830
C13 C 0.8918(7) 0.4220(6) 2.3880(5)
H13 H 0.9285 0.4242 2.4442
C14 C 0.9299(7) 0.4324(6) 2.3234(5)
H14 H 0.9906 0.4435 2.3375
C15 C 0.8775(7) 0.4262(6) 2.2401(5)
C16 C 0.7913(7) 0.4089(6) 2.2261(5)
H15 H 0.7529 0.4017 2.1710
C17 C 0.7575(7) 0.4013(5) 2.2953(5)
H16 H 0.6972 0.3901 2.2842
C18 C 0.9153(4) 0.4410(4) 2.1727(3)
H17 H 0.9776 0.4586 2.1978
C19 C 1.0206(4) 0.1629(4) 2.1198(3)
H18 H 1.0035 0.1066 2.1091
C20 C 0.9560(4) 0.2227(4) 2.1070(3)
H19 H 0.8964 0.2065 2.0874
C21 C 0.9775(4) 0.3053(4) 2.1224(3)
C22 C 1.0673(4) 0.3237(4) 2.1532(3)
H20 H 1.0859 0.3794 2.1665
C23 C 1.1287(4) 0.2615(4) 2.1644(3)
H21 H 1.1888 0.2760 2.1853
C24 C 0.9084(4) 0.3717(4) 2.1053(3)
H22 H 0.8498 0.3444 2.0909
C25 C 0.6227(4) 0.5777(4) 1.6034(3)
C26 C 0.6901(4) 0.6035(4) 1.5633(3)
C27 C 0.7415(4) 0.6737(4) 1.5932(3)
H23 H 0.7349 0.7033 1.6388
C28 C 0.8032(4) 0.7018(4) 1.5567(4)
C29 C 0.8587(5) 0.7711(5) 1.5892(4)
H24 H 0.8558 0.7984 1.6373
C30 C 0.9158(6) 0.7985(6) 1.5519(5)
H25 H 0.9511 0.8457 1.5732
C31 C 0.9230(6) 0.7572(6) 1.4815(6)
H26 H 0.9633 0.7765 1.4562
C32 C 0.8716(5) 0.6888(5) 1.4497(5)
H27 H 0.8772 0.6611 1.4027
C33 C 0.8101(4) 0.6593(4) 1.4866(4)
C34 C 0.7564(4) 0.5889(4) 1.4559(3)
H28 H 0.7601 0.5613 1.4082
C35 C 0.6987(4) 0.5593(4) 1.4936(3)
C36 C 0.6445(4) 0.4827(4) 1.4610(3)
C37 C 0.5876(4) 0.6448(4) 1.8093(3)
C38 C 0.6121(4) 0.6519(4) 1.9029(3)
C39 C 0.5985(4) 0.5859(4) 1.9491(3)
H29 H 0.5754 0.5354 1.9220
C40 C 0.6186(4) 0.5923(4) 2.0365(3)
C41 C 0.5996(4) 0.5270(5) 2.0850(4)
H30 H 0.5787 0.4751 2.0599
C42 C 0.6116(5) 0.5391(6) 2.1683(4)
H31 H 0.5958 0.4967 2.1992
C43 C 0.6465(5) 0.6128(6) 2.2063(4)
H32 H 0.6549 0.6202 2.2634
C44 C 0.6695(5) 0.6758(5) 2.1631(4)
H33 H 0.6949 0.7253 2.1909
C45 C 0.6553(4) 0.6671(5) 2.0761(3)
C46 C 0.6708(4) 0.7337(4) 2.0281(3)
H34 H 0.6968 0.7836 2.0547
C47 C 0.6484(4) 0.7263(4) 1.9432(3)
C48 C 0.6581(4) 0.8038(4) 1.8947(3)
Zn1B Zn 0.52351(5) 0.38431(4) 1.34763(3)
Zn1C Zn 0.97649(5) 0.88431(4) 2.15237(3)
Zn2A Zn 0.79507(5) 0.90903(5) 1.85427(4)
Zn2C Zn 1.20493(5) 0.09097(5) 2.14573(4)
O4B O 0.3952(2) 0.5209(2) 1.6179(2)
O8A O 0.7657(3) 0.3179(3) 1.6072(2)
N2C N 0.4258(3) 0.7346(3) 1.6337(3)
N4C N 0.6071(3) 0.3190(3) 1.6468(2)
loop_
_geom_bond_atom_site_label_1
_geom_bond_atom_site_label_2
_geom_bond_site_symmetry_1
_geom_bond_site_symmetry_2
Zn1 O1 1_555 1_555
Zn2 O2 1_555 1_555
O1 C25 1_555 1_555
O2 C25 1_555 1_555
O3 Zn2 1_555 1_555
O4 C36 1_555 1_555
O5 Zn2 1_555 1_555
H1 O5 1_555 1_555
H2 O5 1_555 1_555
O6 Zn1 1_555 1_555
O7 C37 1_555 1_555
O8 C48 1_555 1_555
O9 C48 1_555 1_555
N1 Zn2 1_555 1_555
N2 C7 1_555 1_555
N3 C13 1_555 1_555
N4 C19 1_555 1_555
C1 N1 1_555 1_555
H3 C1 1_555 1_555
C2 C1 1_555 1_555
H4 C2 1_555 1_555
C3 C2 1_555 1_555
C4 C3 1_555 1_555
H5 C4 1_555 1_555
C5 N1 1_555 1_555
H6 C5 1_555 1_555
C6 C3 1_555 1_555
H7 C6 1_555 1_555
C7 H8 1_555 1_555
C8 C7 1_555 1_555
H9 C8 1_555 1_555
C9 C8 1_555 1_555
C10 C9 1_555 1_555
H10 C10 1_555 1_555
C11 N2 1_555 1_555
H11 C11 1_555 1_555
C12 C6 1_555 1_555
H12 C12 1_555 1_555
C13 H13 1_555 1_555
C14 C13 1_555 1_555
H14 C14 1_555 1_555
C15 C14 1_555 1_555
C16 C15 1_555 1_555
H15 C16 1_555 1_555
C17 N3 1_555 1_555
H16 C17 1_555 1_555
C18 C12 1_555 1_555
H17 C18 1_555 1_555
C19 H18 1_555 1_555
C20 C19 1_555 1_555
H19 C20 1_555 1_555
C21 C20 1_555 1_555
C22 C21 1_555 1_555
H20 C22 1_555 1_555
C23 N4 1_555 1_555
H21 C23 1_555 1_555
C24 C6 1_555 1_555
H22 C24 1_555 1_555
C25 C26 1_555 1_555
C26 C27 1_555 1_555
C27 H23 1_555 1_555
C28 C27 1_555 1_555
C29 C28 1_555 1_555
H24 C29 1_555 1_555
C30 C29 1_555 1_555
H25 C30 1_555 1_555
C31 C30 1_555 1_555
H26 C31 1_555 1_555
C32 C31 1_555 1_555
H27 C32 1_555 1_555
C33 C28 1_555 1_555
C34 C33 1_555 1_555
H28 C34 1_555 1_555
C35 C26 1_555 1_555
C36 O3 1_555 1_555
C37 O6 1_555 1_555
C38 C37 1_555 1_555
C39 C38 1_555 1_555
H29 C39 1_555 1_555
C40 C39 1_555 1_555
C41 C40 1_555 1_555
H30 C41 1_555 1_555
C42 C41 1_555 1_555
H31 C42 1_555 1_555
C43 C42 1_555 1_555
H32 C43 1_555 1_555
C44 C43 1_555 1_555
H33 C44 1_555 1_555
C45 C40 1_555 1_555
C46 C45 1_555 1_555
H34 C46 1_555 1_555
C47 C38 1_555 1_555
C48 C47 1_555 1_555
Zn1B O4 1_555 1_555
Zn1C N2 1_555 1_555
Zn2A O8 1_555 1_555
Zn2C N4 1_555 1_555
O4B Zn1 1_555 1_555
O8A Zn2 1_555 1_555
N2C Zn1 1_555 1_555
N4C Zn2 1_555 1_555
C4 C5 1_555 1_555
C9 C12 1_555 1_555
C10 C11 1_555 1_555
C15 C18 1_555 1_555
C16 C17 1_555 1_555
C18 C24 1_555 1_555
C21 C24 1_555 1_555
C22 C23 1_555 1_555
C32 C33 1_555 1_555
C34 C35 1_555 1_555
C35 C36 1_555 1_555
C44 C45 1_555 1_555
C46 C47 1_555 1_555

#END
