
#######################################################################
#
#                 Cambridge Crystallographic Data Centre
#                                CCDC 
#
#######################################################################
#
# If this CIF has been generated from an entry in the Cambridge 
# Structural Database, then it will include bibliographic, chemical, 
# crystal, experimental, refinement or atomic coordinate data resulting 
# from the CCDC's data processing and validation procedures.
#
#######################################################################

data_WITHIS
_symmetry_cell_setting           orthorhombic
_symmetry_space_group_name_H-M   'P b c a'
_symmetry_Int_Tables_number      61
_space_group_name_Hall           '-P 2ac 2ab'
loop_
_symmetry_equiv_pos_site_id
_symmetry_equiv_pos_as_xyz
1 x,y,z
2 1/2-x,-y,1/2+z
3 1/2+x,1/2-y,-z
4 -x,1/2+y,1/2-z
5 -x,-y,-z
6 1/2+x,y,1/2-z
7 1/2-x,1/2+y,z
8 x,1/2-y,1/2+z
_cell_length_a                   13.1230(10)
_cell_length_b                   20.4789(16)
_cell_length_c                   13.4870(10)
_cell_angle_alpha                90
_cell_angle_beta                 90
_cell_angle_gamma                90
_cell_volume                     3624.56
loop_
_atom_site_label
_atom_site_type_symbol
_atom_site_fract_x
_atom_site_fract_y
_atom_site_fract_z
Ag1 Ag 0.61136(3) 0.23263(2) 0.36484(3)
C1 C 0.3785(4) 0.2658(3) 0.3733(4)
H1 H 0.3618 0.2223 0.3850
C2 C 0.4625(4) 0.3538(3) 0.3467(4)
H2 H 0.5168 0.3824 0.3373
C3 C 0.3642(4) 0.3715(3) 0.3492(4)
H3 H 0.3380 0.4133 0.3403
C4 C 0.2036(3) 0.3114(2) 0.3809(3)
C5 C 0.1406(4) 0.3585(3) 0.4134(4)
H4 H 0.1618 0.4006 0.4290
C6 C 0.0387(4) 0.3370(2) 0.4212(4)
H5 H -0.0149 0.3633 0.4422
C7 C 0.0282(3) 0.2745(2) 0.3948(3)
C8 C -0.1569(4) 0.2638(2) 0.3771(3)
H6 H -0.1705 0.3082 0.3708
C9 C -0.1750(4) 0.1594(2) 0.3867(4)
H7 H -0.2053 0.1184 0.3876
C10 C -0.0742(4) 0.1709(2) 0.3966(4)
H8 H -0.0231 0.1401 0.4062
C11 C 0.4822(7) 0.0119(3) 0.2779(6)
H9 H 0.5264 -0.0219 0.3018
H10 H 0.4800 0.0106 0.2068
H11 H 0.4148 0.0053 0.3039
C12 C 0.5203(7) 0.0748(3) 0.3100(6)
N1 N 0.4718(3) 0.2875(2) 0.3601(3)
N2 N 0.3098(3) 0.31497(19) 0.3675(3)
N3 N -0.0623(3) 0.23778(18) 0.3894(3)
N4 N -0.2264(3) 0.2177(2) 0.3752(3)
N5 N 0.5477(6) 0.1223(3) 0.3300(5)
S1 S 0.14119(10) 0.23827(6) 0.35982(9)
Ag1_2 Ag -0.38864(3) 0.23263(2) 0.36484(3)
Ag1E Ag 0.11136(3) 0.23263(2) 0.13516(3)
N4_2 N 0.7736(3) 0.2177(2) 0.3752(3)
S1E S 0.64119(10) 0.23827(6) 0.14018(9)
F1 F 0.8002(4) 0.3860(3) 0.5387(5)
F2 F 0.6780(8) 0.4976(3) 0.4410(7)
F3 F 0.7457(7) 0.4827(4) 0.5828(7)
F4 F 0.7283(10) 0.4066(5) 0.3912(7)
F5 F 0.6403(5) 0.4133(5) 0.5266(8)
F6 F 0.8356(7) 0.4663(7) 0.4553(10)
P1 P 0.73573(15) 0.44262(8) 0.48891(19)
loop_
_geom_bond_atom_site_label_1
_geom_bond_atom_site_label_2
_geom_bond_site_symmetry_1
_geom_bond_site_symmetry_2
Ag1 N1 1_555 1_555
C1 H1 1_555 1_555
C2 H2 1_555 1_555
C3 C2 1_555 1_555
H3 C3 1_555 1_555
C4 C5 1_555 1_555
C5 H4 1_555 1_555
C6 C5 1_555 1_555
H5 C6 1_555 1_555
C7 C6 1_555 1_555
C8 H6 1_555 1_555
C9 H7 1_555 1_555
C10 C9 1_555 1_555
H8 C10 1_555 1_555
C11 H9 1_555 1_555
H10 C11 1_555 1_555
H11 C11 1_555 1_555
C12 C11 1_555 1_555
N1 C1 1_555 1_555
N2 C1 1_555 1_555
N3 C7 1_555 1_555
N4 C8 1_555 1_555
N5 Ag1 1_555 1_555
S1 C4 1_555 1_555
F1 P1 1_555 1_555
F2 P1 1_555 1_555
F3 P1 1_555 1_555
F4 P1 1_555 1_555
F5 P1 1_555 1_555
F6 P1 1_555 1_555
Ag1_2 N4 1_555 1_555
Ag1E S1 1_555 1_555
N4_2 Ag1 1_555 1_555
S1E Ag1 1_555 1_555
C2 N1 1_555 1_555
C3 N2 1_555 1_555
C4 N2 1_555 1_555
C7 S1 1_555 1_555
C8 N3 1_555 1_555
C9 N4 1_555 1_555
C10 N3 1_555 1_555
C12 N5 1_555 1_555

#END
