
#######################################################################
#
#                 Cambridge Crystallographic Data Centre
#                                CCDC 
#
#######################################################################
#
# If this CIF has been generated from an entry in the Cambridge 
# Structural Database, then it will include bibliographic, chemical, 
# crystal, experimental, refinement or atomic coordinate data resulting 
# from the CCDC's data processing and validation procedures.
#
#######################################################################

data_WITHOY
_symmetry_cell_setting           monoclinic
_symmetry_space_group_name_H-M   'P 21/m'
_symmetry_Int_Tables_number      11
_space_group_name_Hall           '-P 2yb'
loop_
_symmetry_equiv_pos_site_id
_symmetry_equiv_pos_as_xyz
1 x,y,z
2 -x,1/2+y,-z
3 -x,-y,-z
4 x,1/2-y,z
_cell_length_a                   6.434(4)
_cell_length_b                   15.763(2)
_cell_length_c                   8.963(4)
_cell_angle_alpha                90
_cell_angle_beta                 100.968(18)
_cell_angle_gamma                90
_cell_volume                     892.415
loop_
_atom_site_label
_atom_site_type_symbol
_atom_site_fract_x
_atom_site_fract_y
_atom_site_fract_z
Ag1 Ag 0.5000 0.5000 0.5000
C1 C 0.1606(6) 0.3858(2) 0.5847(5)
H1 H 0.2368 0.3829 0.6838
C2 C 0.0632(6) 0.4169(2) 0.3466(4)
H2 H 0.0618 0.4402 0.2512
C3 C -0.0872(6) 0.3655(2) 0.3836(5)
H3 H -0.2092 0.3467 0.3191
C4 C -0.1335(5) 0.29560(18) 0.6286(4)
C5 C -0.2403(5) 0.3281(2) 0.7302(5)
H4 H -0.2560 0.3859 0.7462
N1 N 0.2198(5) 0.42926(18) 0.4741(4)
N2 N -0.0249(4) 0.34626(17) 0.5347(4)
S1 S -0.3439(2) 0.2500 0.8268(2)
C1C C 0.1606(6) 0.1142(2) 0.5847(5)
H1C H 0.2368 0.1171 0.6838
C2C C 0.0632(6) 0.0831(2) 0.3466(4)
H2C H 0.0618 0.0598 0.2512
C3C C -0.0872(6) 0.1345(2) 0.3836(5)
H3C H -0.2092 0.1533 0.3191
C4C C -0.1335(5) 0.20440(18) 0.6286(4)
C5C C -0.2403(5) 0.1719(2) 0.7302(5)
H4C H -0.2560 0.1141 0.7462
N1C N 0.2198(5) 0.07074(18) 0.4741(4)
N2C N -0.0249(4) 0.15374(17) 0.5347(4)
Ag1A Ag 0.5000 0.0000 0.5000
N1B N 0.7802(5) 0.57074(18) 0.5259(4)
C6 C 0.3349(11) 0.2500 0.2099(12)
C7 C 0.1815(17) 0.2500 0.0792(12)
N3 N 0.4568(13) 0.2500 0.3189(12)
F1 F 0.4636(10) 0.4871(3) 0.1686(5)
F2 F 0.505(4) 0.4069(5) -0.0186(17)
F3 F 0.299(2) 0.4474(10) -0.0539(11)
P1 P 0.5000 0.5000 0.0000
F1B F 0.5364(10) 0.5129(3) -0.1686(5)
F2B F 0.495(4) 0.5931(5) 0.0186(17)
F3B F 0.701(2) 0.5526(10) 0.0539(11)
F4? F 0.2896(18) 0.5490(11) -0.0323(10)
H5? H 0.2201 0.2105 0.0076
H6? H 0.1697 0.3058 0.0357
H7? H 0.0481 0.2336 0.1034
loop_
_geom_bond_atom_site_label_1
_geom_bond_atom_site_label_2
_geom_bond_site_symmetry_1
_geom_bond_site_symmetry_2
Ag1 N1 1_555 1_555
C1 H1 1_555 1_555
C2 H2 1_555 1_555
C3 C2 1_555 1_555
H3 C3 1_555 1_555
C4 C5 1_555 1_555
C5 H4 1_555 1_555
N1 C1 1_555 1_555
N2 C1 1_555 1_555
S1 C5 1_555 1_555
C6 C7 1_555 1_555
N3 C6 1_555 1_555
F1 P1 1_555 1_555
F2 P1 1_555 1_555
F3 P1 1_555 1_555
P1 F1B 1_555 1_555
C1C H1C 1_555 1_555
C2C H2C 1_555 1_555
C3C C2C 1_555 1_555
H3C C3C 1_555 1_555
C4C C4 1_555 1_555
C5C S1 1_555 1_555
H4C C5C 1_555 1_555
N1C C1C 1_555 1_555
N2C C1C 1_555 1_555
Ag1A N1C 1_555 1_555
N1B Ag1 1_555 1_555
F2B P1 1_555 1_555
F3B P1 1_555 1_555
C2 N1 1_555 1_555
C3 N2 1_555 1_555
C4 N2 1_555 1_555
C2C N1C 1_555 1_555
C3C N2C 1_555 1_555
C4C C5C 1_555 1_555
C4C N2C 1_555 1_555

#END
