
#######################################################################
#
#                 Cambridge Crystallographic Data Centre
#                                CCDC 
#
#######################################################################
#
# If this CIF has been generated from an entry in the Cambridge 
# Structural Database, then it will include bibliographic, chemical, 
# crystal, experimental, refinement or atomic coordinate data resulting 
# from the CCDC's data processing and validation procedures.
#
#######################################################################

data_WITLIW
_symmetry_cell_setting           triclinic
_symmetry_space_group_name_H-M   'P -1'
_symmetry_Int_Tables_number      2
_space_group_name_Hall           '-P 1'
loop_
_symmetry_equiv_pos_site_id
_symmetry_equiv_pos_as_xyz
1 x,y,z
2 -x,-y,-z
_cell_length_a                   9.6191(10)
_cell_length_b                   10.0535(11)
_cell_length_c                   12.8335(14)
_cell_angle_alpha                71.6760(10)
_cell_angle_beta                 87.048(2)
_cell_angle_gamma                75.9160(10)
_cell_volume                     1142.31
loop_
_atom_site_label
_atom_site_type_symbol
_atom_site_fract_x
_atom_site_fract_y
_atom_site_fract_z
C1 C 1.4108(5) 0.0718(5) -0.2935(4)
H1 H 1.4256 -0.0092 -0.3168
C2 C 1.1903(4) 0.2123(5) -0.0831(3)
Zn1 Zn 0.63385(4) 0.14124(4) 0.53110(3)
O1 O 0.6441(3) 0.3680(3) 0.4950(2)
O2 O 0.8043(3) 0.1966(3) 0.6066(2)
O3 O 0.8186(3) 0.1863(4) -0.0059(2)
O4 O 0.5356(3) 0.8402(3) 0.5716(2)
O5 O 0.7211(3) 0.9260(3) 0.5923(2)
N1 N 0.7553(3) 0.1552(3) 0.3816(2)
N2 N 1.4833(3) 0.1706(3) -0.3411(3)
C3 C 1.3635(4) 0.3053(4) -0.2251(3)
H2 H 1.3493 0.3881 -0.2042
C4 C 1.3144(5) 0.0823(5) -0.2112(4)
H3 H 1.2655 0.0104 -0.1814
C5 C 0.7846(4) 0.2927(4) 0.1949(3)
H4 H 0.7489 0.3718 0.1340
C6 C 0.9151(4) 0.1940(4) 0.1912(3)
C7 C 0.9604(4) 0.0783(4) 0.2839(3)
H5 H 1.0465 0.0115 0.2842
C8 C 0.8784(4) 0.0615(4) 0.3764(3)
H6 H 0.9101 -0.0184 0.4377
C9 C 1.0053(4) 0.2120(4) 0.0921(3)
C10 C 1.1418(5) 0.2295(6) 0.0986(4)
H7 H 1.1741 0.2371 0.1631
C11 C 1.2320(5) 0.2360(6) 0.0097(4)
C12 C 0.9577(4) 0.1991(4) -0.0050(3)
C13 C 1.4116(6) 0.2923(8) 0.0989(5)
H8 H 1.3502 0.3819 0.1018
H9 H 1.5086 0.3021 0.0888
H10 H 1.4062 0.2176 0.1664
C14 C 0.7483(4) 0.3286(4) 0.5598(3)
C15 C 0.8074(4) 0.4392(4) 0.5876(3)
C16 C 0.9464(4) 0.4103(4) 0.6250(3)
H11 H 1.0067 0.3193 0.6352
C17 C 0.7667(4) 0.6809(3) 0.5982(3)
C18 C 0.9077(4) 0.6520(4) 0.6334(3)
H12 H 0.9423 0.7235 0.6475
C19 C 0.6663(4) 0.8276(3) 0.5848(3)
C20 C 0.9972(4) 0.5168(4) 0.6477(4)
H13 H 1.0914 0.4971 0.6724
C21 C 1.4566(4) 0.2882(4) -0.3076(3)
H14 H 1.5031 0.3610 -0.3415
C22 C 0.7634(5) 0.1775(7) -0.1024(4)
H15 H 0.7601 0.2659 -0.1608
H16 H 0.6685 0.1622 -0.0901
H17 H 0.8241 0.0986 -0.1222
C23 C 0.7107(4) 0.2683(4) 0.2924(3)
H18 H 0.6255 0.3345 0.2957
C24 C 0.7156(4) 0.5751(3) 0.5743(3)
H19 H 0.6213 0.5948 0.5497
C25 C 1.2908(4) 0.2005(4) -0.1730(3)
O6 O 1.3678(4) 0.2566(6) 0.0115(3)
C26 C 1.0518(4) 0.1953(5) -0.0903(3)
H20 H 1.0222 0.1812 -0.1531
Zn1_2 Zn 0.63385(4) 1.14124(4) 0.53110(3)
Zn1_3 Zn 1.63385(4) 0.14124(4) -0.46890(3)
Zn1A Zn 0.36615(4) 0.85876(4) 0.46890(3)
O4A O 0.4644(3) 0.1598(3) 0.4284(2)
O5_2 O 0.7211(3) -0.0740(3) 0.5923(2)
N2_2 N 0.4833(3) 0.1706(3) 0.6589(3)
loop_
_geom_bond_atom_site_label_1
_geom_bond_atom_site_label_2
_geom_bond_site_symmetry_1
_geom_bond_site_symmetry_2
C1 H1 1_555 1_555
C2 C11 1_555 1_555
Zn1 O1 1_555 1_555
O1 C14 1_555 1_555
O2 Zn1 1_555 1_555
O3 C12 1_555 1_555
O4 C19 1_555 1_555
O5 C19 1_555 1_555
N1 Zn1 1_555 1_555
N2 C1 1_555 1_555
C3 H2 1_555 1_555
C4 C1 1_555 1_555
H3 C4 1_555 1_555
C5 H4 1_555 1_555
C6 C5 1_555 1_555
C7 C6 1_555 1_555
H5 C7 1_555 1_555
C8 N1 1_555 1_555
H6 C8 1_555 1_555
C9 C6 1_555 1_555
C10 C9 1_555 1_555
H7 C10 1_555 1_555
C11 C10 1_555 1_555
C12 C9 1_555 1_555
C13 H8 1_555 1_555
H9 C13 1_555 1_555
H10 C13 1_555 1_555
C14 O2 1_555 1_555
C15 C14 1_555 1_555
C16 C15 1_555 1_555
H11 C16 1_555 1_555
C17 C18 1_555 1_555
C18 H12 1_555 1_555
C19 C17 1_555 1_555
C20 C16 1_555 1_555
H13 C20 1_555 1_555
C21 N2 1_555 1_555
H14 C21 1_555 1_555
C22 O3 1_555 1_555
H15 C22 1_555 1_555
H16 C22 1_555 1_555
H17 C22 1_555 1_555
C23 N1 1_555 1_555
H18 C23 1_555 1_555
C24 C15 1_555 1_555
H19 C24 1_555 1_555
C25 C2 1_555 1_555
O6 C11 1_555 1_555
C26 C2 1_555 1_555
H20 C26 1_555 1_555
Zn1_2 O5 1_555 1_555
Zn1_3 N2 1_555 1_555
Zn1A O4 1_555 1_555
O4A Zn1 1_555 1_555
O5_2 Zn1 1_555 1_555
N2_2 Zn1 1_555 1_555
C3 C21 1_555 1_555
C3 C25 1_555 1_555
C4 C25 1_555 1_555
C5 C23 1_555 1_555
C7 C8 1_555 1_555
C12 C26 1_555 1_555
C13 O6 1_555 1_555
C17 C24 1_555 1_555
C18 C20 1_555 1_555

#END
