
#######################################################################
#
#                 Cambridge Crystallographic Data Centre
#                                CCDC 
#
#######################################################################
#
# If this CIF has been generated from an entry in the Cambridge 
# Structural Database, then it will include bibliographic, chemical, 
# crystal, experimental, refinement or atomic coordinate data resulting 
# from the CCDC's data processing and validation procedures.
#
#######################################################################

data_WITSEZ
_symmetry_cell_setting           monoclinic
_symmetry_space_group_name_H-M   'P 2/c'
_symmetry_Int_Tables_number      13
_space_group_name_Hall           '-P 2yc'
loop_
_symmetry_equiv_pos_site_id
_symmetry_equiv_pos_as_xyz
1 x,y,z
2 -x,y,1/2-z
3 -x,-y,-z
4 x,-y,1/2+z
_cell_length_a                   13.254(2)
_cell_length_b                   7.3495(13)
_cell_length_c                   13.555(2)
_cell_angle_alpha                90
_cell_angle_beta                 110.680(3)
_cell_angle_gamma                90
_cell_volume                     1235.32
loop_
_atom_site_label
_atom_site_type_symbol
_atom_site_fract_x
_atom_site_fract_y
_atom_site_fract_z
Ag1 Ag 0.5000 1.15200(12) 0.2500
Ag2 Ag 1.0000 0.0000 0.0000
C1 C 0.6151(6) 0.9968(10) 0.1026(6)
H1 H 0.6133 0.8792 0.1272
C2 C 0.5941(6) 1.2841(11) 0.0783(7)
H2 H 0.5746 1.4039 0.0847
C3 C 0.6450(7) 1.2287(11) 0.0149(7)
H3 H 0.6663 1.3003 -0.0309
C4 C 0.7086(5) 0.9267(9) -0.0232(6)
C5 C 0.7282(6) 0.9680(10) -0.1120(6)
H4 H 0.7101 1.0782 -0.1477
C6 C 0.7798(6) 0.8219(10) -0.1438(6)
H5 H 0.8004 0.8264 -0.2026
C7 C 0.7958(6) 0.6769(10) -0.0803(6)
C8 C 0.8384(7) 0.4469(13) -0.1920(6)
H6 H 0.8067 0.5035 -0.2570
C9 C 0.8925(7) 0.2875(13) -0.1727(7)
H7 H 0.9045 0.2142 -0.2234
C10 C 0.8940(6) 0.3814(10) -0.0236(6)
H8 H 0.9055 0.3890 0.0481
N1 N 0.5746(5) 1.1402(8) 0.1328(5)
N2 N 0.6598(5) 1.0437(8) 0.0306(5)
N3 N 0.8395(5) 0.5088(9) -0.0953(5)
N4 N 0.9276(5) 0.2499(9) -0.0656(5)
S1 S 0.75084(17) 0.7109(3) 0.02332(15)
C1A C 0.3849(6) 0.9968(10) 0.3974(6)
H1A H 0.3867 0.8792 0.3728
C2A C 0.4059(6) 1.2841(11) 0.4217(7)
H2A H 0.4254 1.4039 0.4153
C3A C 0.3550(7) 1.2287(11) 0.4851(7)
H3A H 0.3337 1.3003 0.5309
C4A C 0.2914(5) 0.9267(9) 0.5232(6)
C5A C 0.2718(6) 0.9680(10) 0.6120(6)
H4A H 0.2899 1.0782 0.6477
C6A C 0.2202(6) 0.8219(10) 0.6438(6)
H5A H 0.1996 0.8264 0.7026
C7A C 0.2042(6) 0.6769(10) 0.5803(6)
C8A C 0.1616(7) 0.4469(13) 0.6920(6)
H6A H 0.1933 0.5035 0.7570
C9A C 0.1075(7) 0.2875(13) 0.6727(7)
H7A H 0.0955 0.2142 0.7234
C10A C 0.1060(6) 0.3814(10) 0.5236(6)
H8A H 0.0945 0.3890 0.4519
N1A N 0.4254(5) 1.1402(8) 0.3672(5)
N2A N 0.3402(5) 1.0437(8) 0.4694(5)
N3A N 0.1605(5) 0.5088(9) 0.5953(5)
N4A N 0.0724(5) 0.2499(9) 0.5656(5)
S1A S 0.24916(17) 0.7109(3) 0.47668(15)
Ag2A Ag 0.0000 0.0000 0.5000
N4B N 1.0724(5) -0.2499(9) 0.0656(5)
N5 N 1.0000 0.157(2) 0.2500
O1 O 1.0000 0.3165(18) 0.2500
O2 O 0.9299(8) 0.0710(12) 0.1818(7)
O2A O 1.0701(8) 0.0710(12) 0.3182(7)
N6 N 0.5000 0.623(2) 0.2500
O3 O 0.4234(11) 0.5231(19) 0.2090(11)
O4 O 0.5000 0.7798(18) 0.2500
O3A O 0.5766(11) 0.5231(19) 0.2910(11)
loop_
_geom_bond_atom_site_label_1
_geom_bond_atom_site_label_2
_geom_bond_site_symmetry_1
_geom_bond_site_symmetry_2
Ag1 N1 1_555 1_555
Ag2 N4 1_555 1_555
C1 H1 1_555 1_555
C2 H2 1_555 1_555
C3 C2 1_555 1_555
H3 C3 1_555 1_555
C4 C5 1_555 1_555
C5 H4 1_555 1_555
C6 C5 1_555 1_555
H5 C6 1_555 1_555
C7 C6 1_555 1_555
C8 H6 1_555 1_555
C9 C8 1_555 1_555
H7 C9 1_555 1_555
C10 H8 1_555 1_555
N1 C1 1_555 1_555
N2 C1 1_555 1_555
N3 C7 1_555 1_555
N4 C9 1_555 1_555
S1 C4 1_555 1_555
N5 O1 1_555 1_555
O2 N5 1_555 1_555
N6 O3 1_555 1_555
O4 N6 1_555 1_555
C1A H1A 1_555 1_555
C2A H2A 1_555 1_555
C3A C2A 1_555 1_555
H3A C3A 1_555 1_555
C4A C5A 1_555 1_555
C5A H4A 1_555 1_555
C6A C5A 1_555 1_555
H5A C6A 1_555 1_555
C7A C6A 1_555 1_555
C8A H6A 1_555 1_555
C9A C8A 1_555 1_555
H7A C9A 1_555 1_555
C10A H8A 1_555 1_555
N1A Ag1 1_555 1_555
N2A C1A 1_555 1_555
N3A C7A 1_555 1_555
N4A C9A 1_555 1_555
S1A C4A 1_555 1_555
Ag2A N4A 1_555 1_555
N4B Ag2 1_555 1_555
O2A N5 1_555 1_555
O3A N6 1_555 1_555
C2 N1 1_555 1_555
C3 N2 1_555 1_555
C4 N2 1_555 1_555
C7 S1 1_555 1_555
C8 N3 1_555 1_555
C10 N3 1_555 1_555
C10 N4 1_555 1_555
C1A N1A 1_555 1_555
C2A N1A 1_555 1_555
C3A N2A 1_555 1_555
C4A N2A 1_555 1_555
C7A S1A 1_555 1_555
C8A N3A 1_555 1_555
C10A N3A 1_555 1_555
C10A N4A 1_555 1_555

#END
