
#######################################################################
#
#                 Cambridge Crystallographic Data Centre
#                                CCDC 
#
#######################################################################
#
# If this CIF has been generated from an entry in the Cambridge 
# Structural Database, then it will include bibliographic, chemical, 
# crystal, experimental, refinement or atomic coordinate data resulting 
# from the CCDC's data processing and validation procedures.
#
#######################################################################

data_WITWAZ
_symmetry_cell_setting           monoclinic
_symmetry_space_group_name_H-M   'P 21/c'
_symmetry_Int_Tables_number      14
_space_group_name_Hall           '-P 2ybc'
loop_
_symmetry_equiv_pos_site_id
_symmetry_equiv_pos_as_xyz
1 x,y,z
2 -x,1/2+y,1/2-z
3 -x,-y,-z
4 x,1/2-y,1/2+z
_cell_length_a                   6.7987(8)
_cell_length_b                   24.5045(19)
_cell_length_c                   8.2871(10)
_cell_angle_alpha                90
_cell_angle_beta                 91.514(11)
_cell_angle_gamma                90
_cell_volume                     1380.14
loop_
_atom_site_label
_atom_site_type_symbol
_atom_site_fract_x
_atom_site_fract_y
_atom_site_fract_z
Cd1 Cd 0.0000 0.5000 0.5000
O1 O 0.2300(5) 0.87808(12) 0.4690(5)
O2 O 0.7222(5) 0.77722(13) 0.6956(5)
O3 O 0.1005(4) 0.58510(11) 0.4221(4)
O4 O 0.4143(5) 0.58213(12) 0.5109(4)
O5 O -0.3068(4) 0.51452(11) 0.3733(4)
H1 H -0.3886 0.4868 0.3840
H2 H -0.3626 0.5413 0.4186
N1 N 0.4982(5) 0.83914(13) 0.5932(4)
N2 N 0.8770(5) 0.96092(13) 0.2255(4)
C1 C 0.3201(7) 0.83821(17) 0.5089(6)
C2 C 0.5715(7) 0.78735(17) 0.6237(5)
C3 C 0.4247(6) 0.74921(16) 0.5506(5)
C4 C 0.4261(7) 0.69346(16) 0.5451(5)
H3 H 0.5302 0.6735 0.5901
C5 C 0.2676(6) 0.66798(16) 0.4705(5)
C6 C 0.1153(7) 0.69843(17) 0.4019(6)
H4 H 0.0095 0.6805 0.3520
C7 C 0.1169(7) 0.75506(17) 0.4058(6)
H5 H 0.0156 0.7754 0.3581
C8 C 0.2741(7) 0.77974(16) 0.4827(5)
C9 C 0.2584(7) 0.60603(16) 0.4682(5)
C10 C 0.6002(7) 0.88956(17) 0.6324(6)
H6 H 0.6994 0.8825 0.7161
H7 H 0.5071 0.9156 0.6746
C11 C 0.8414(7) 0.90718(17) 0.2302(6)
H8 H 0.8786 0.8856 0.1440
C12 C 0.7516(7) 0.88300(17) 0.3588(6)
H9 H 0.7278 0.8456 0.3581
C13 C 0.6971(6) 0.91407(16) 0.4882(5)
C14 C 0.7336(7) 0.96909(17) 0.4818(6)
H10 H 0.6980 0.9916 0.5666
C15 C 0.8224(6) 0.99061(16) 0.3502(5)
H11 H 0.8457 1.0280 0.3481
O1B O -0.2300(5) 0.12192(12) 0.5310(5)
O2B O -0.7222(5) 0.22278(13) 0.3044(5)
O3B O -0.1005(4) 0.41490(11) 0.5779(4)
O4B O -0.4143(5) 0.41787(12) 0.4891(4)
O5B O 0.3068(4) 0.48548(11) 0.6267(4)
H1B H 0.3886 0.5132 0.6160
H2B H 0.3626 0.4587 0.5814
N1B N -0.4982(5) 0.16086(13) 0.4068(4)
N2B N -0.8770(5) 0.03908(13) 0.7745(4)
C1B C -0.3201(7) 0.16179(17) 0.4911(6)
C2B C -0.5715(7) 0.21265(17) 0.3763(5)
C3B C -0.4247(6) 0.25079(16) 0.4494(5)
C4B C -0.4261(7) 0.30654(16) 0.4549(5)
H3B H -0.5302 0.3265 0.4099
C5B C -0.2676(6) 0.33202(16) 0.5295(5)
C6B C -0.1153(7) 0.30157(17) 0.5981(6)
H4B H -0.0095 0.3195 0.6480
C7B C -0.1169(7) 0.24494(17) 0.5942(6)
H5B H -0.0156 0.2246 0.6419
C8B C -0.2741(7) 0.22026(16) 0.5173(5)
C9B C -0.2584(7) 0.39397(16) 0.5318(5)
C10B C -0.6002(7) 0.11044(17) 0.3676(6)
H6B H -0.6994 0.1175 0.2839
H7B H -0.5071 0.0844 0.3254
C11B C -0.8414(7) 0.09282(17) 0.7698(6)
H8B H -0.8786 0.1144 0.8560
C12B C -0.7516(7) 0.11700(17) 0.6412(6)
H9B H -0.7278 0.1544 0.6419
C13B C -0.6971(6) 0.08593(16) 0.5118(5)
C14B C -0.7336(7) 0.03091(17) 0.5182(6)
H10B H -0.6980 0.0084 0.4334
C15B C -0.8224(6) 0.00939(16) 0.6498(5)
H11B H -0.8457 -0.0280 0.6519
Cd1A Cd -1.0000 0.0000 1.0000
Cd1A_2 Cd 1.0000 1.0000 0.0000
N2A N 0.1230(5) 0.46092(13) 0.2745(4)
N2C N -0.1230(5) 0.53908(13) 0.7255(4)
loop_
_geom_bond_atom_site_label_1
_geom_bond_atom_site_label_2
_geom_bond_site_symmetry_1
_geom_bond_site_symmetry_2
Cd1 O3 1_555 1_555
O1 C1 1_555 1_555
O2 C2 1_555 1_555
O3 C9 1_555 1_555
O4 C9 1_555 1_555
O5 Cd1 1_555 1_555
H1 O5 1_555 1_555
H2 O5 1_555 1_555
N1 C1 1_555 1_555
N2 C11 1_555 1_555
C1 C8 1_555 1_555
C2 N1 1_555 1_555
C3 C2 1_555 1_555
C4 C3 1_555 1_555
H3 C4 1_555 1_555
C5 C4 1_555 1_555
C6 C5 1_555 1_555
H4 C6 1_555 1_555
C7 C6 1_555 1_555
H5 C7 1_555 1_555
C8 C3 1_555 1_555
C9 C5 1_555 1_555
C10 N1 1_555 1_555
H6 C10 1_555 1_555
H7 C10 1_555 1_555
C11 H8 1_555 1_555
C12 C11 1_555 1_555
H9 C12 1_555 1_555
C13 C10 1_555 1_555
C14 C13 1_555 1_555
H10 C14 1_555 1_555
C15 N2 1_555 1_555
H11 C15 1_555 1_555
O1B C1B 1_555 1_555
O2B C2B 1_555 1_555
O3B Cd1 1_555 1_555
O4B C9B 1_555 1_555
O5B Cd1 1_555 1_555
H1B O5B 1_555 1_555
H2B O5B 1_555 1_555
N1B C1B 1_555 1_555
N2B C11B 1_555 1_555
C1B C8B 1_555 1_555
C2B N1B 1_555 1_555
C3B C2B 1_555 1_555
C4B C3B 1_555 1_555
H3B C4B 1_555 1_555
C5B C4B 1_555 1_555
C6B C5B 1_555 1_555
H4B C6B 1_555 1_555
C7B C6B 1_555 1_555
H5B C7B 1_555 1_555
C8B C3B 1_555 1_555
C9B O3B 1_555 1_555
C10B N1B 1_555 1_555
H6B C10B 1_555 1_555
H7B C10B 1_555 1_555
C11B H8B 1_555 1_555
C12B C11B 1_555 1_555
H9B C12B 1_555 1_555
C13B C10B 1_555 1_555
C14B C13B 1_555 1_555
H10B C14B 1_555 1_555
C15B N2B 1_555 1_555
H11B C15B 1_555 1_555
Cd1A N2B 1_555 1_555
Cd1A_2 N2 1_555 1_555
N2A Cd1 1_555 1_555
N2C Cd1 1_555 1_555
C7 C8 1_555 1_555
C12 C13 1_555 1_555
C14 C15 1_555 1_555
C5B C9B 1_555 1_555
C7B C8B 1_555 1_555
C12B C13B 1_555 1_555
C14B C15B 1_555 1_555

#END
