
#######################################################################
#
#                 Cambridge Crystallographic Data Centre
#                                CCDC 
#
#######################################################################
#
# If this CIF has been generated from an entry in the Cambridge 
# Structural Database, then it will include bibliographic, chemical, 
# crystal, experimental, refinement or atomic coordinate data resulting 
# from the CCDC's data processing and validation procedures.
#
#######################################################################

data_WIVFOX
_symmetry_cell_setting           triclinic
_symmetry_space_group_name_H-M   'P -1'
_symmetry_Int_Tables_number      2
_space_group_name_Hall           '-P 1'
loop_
_symmetry_equiv_pos_site_id
_symmetry_equiv_pos_as_xyz
1 x,y,z
2 -x,-y,-z
_cell_length_a                   8.8884(14)
_cell_length_b                   9.9069(16)
_cell_length_c                   11.4065(18)
_cell_angle_alpha                103.168(2)
_cell_angle_beta                 104.716(2)
_cell_angle_gamma                110.765(2)
_cell_volume                     850.406
loop_
_atom_site_label
_atom_site_type_symbol
_atom_site_fract_x
_atom_site_fract_y
_atom_site_fract_z
Cd1 Cd 0.02228(3) 0.29184(3) 0.24783(3)
N1 N -0.4293(5) 0.1878(4) 0.3678(4)
N2 N -0.2345(5) 0.2346(5) 0.2770(4)
N3 N -0.1463(5) -0.2117(4) 0.1637(4)
N4 N -0.0209(6) 0.0419(5) 0.2293(4)
N5 N 0.2384(6) 0.7136(6) 0.1614(5)
N6 N 0.0799(6) 0.5502(5) 0.2636(5)
N7 N 0.1203(6) 0.7800(6) -0.0248(4)
N8 N 0.6047(6) 0.5284(6) 0.3139(5)
N9 N 0.2942(6) 0.3573(6) 0.2330(5)
N10 N 0.8267(6) 0.6228(5) 0.5275(4)
C1 C -0.5706(6) 0.0272(6) 0.4828(5)
H1 H -0.6644 -0.0496 0.4007
H2 H -0.6202 0.0320 0.5513
C2 C -0.5053(7) 0.1836(6) 0.4683(5)
H3 H -0.6027 0.2116 0.4463
H4 H -0.4171 0.2617 0.5521
C3 C -0.2597(6) 0.2545(5) 0.3875(5)
H5 H -0.1697 0.3089 0.4704
C4 C -0.3969(7) 0.1494(6) 0.1816(5)
H6 H -0.4208 0.1167 0.0911
C5 C -0.5173(7) 0.1195(6) 0.2372(5)
H7 H -0.6391 0.0623 0.1937
C6 C -0.4450(6) -0.4136(5) 0.0359(4)
H8 H -0.4721 -0.3571 -0.0214
H9 H -0.4735 -0.3807 0.1128
C7 C -0.2545(6) -0.3734(5) 0.0784(5)
H10 H -0.2309 -0.4413 0.1246
H11 H -0.2230 -0.3925 0.0010
C8 C -0.1129(6) -0.0865(5) 0.1283(5)
H12 H -0.1509 -0.0905 0.0413
C9 C 0.0047(6) -0.0039(5) 0.3352(5)
H13 H 0.0663 0.0637 0.4227
C10 C -0.0712(7) -0.1596(6) 0.2956(5)
H14 H -0.0720 -0.2206 0.3489
C11 C 0.1460(7) 0.6248(6) 0.2094(5)
C12 C 0.1676(6) 0.7427(6) 0.0611(5)
C13 C 0.4398(7) 0.4375(6) 0.2775(5)
C14 C 0.7140(6) 0.5727(5) 0.4292(4)
Cd1A Cd -1.02228(3) -0.29184(3) 0.75217(3)
Cd1A_2 Cd -0.02228(3) 0.70816(3) -0.24783(3)
Cd1A_3 Cd 0.97772(3) 0.70816(3) 0.75217(3)
Cd1A_4 Cd -1.02228(3) -1.29184(3) -0.24783(3)
N1A N -0.5707(5) -0.1878(4) 0.6322(4)
N2A N -0.7655(5) -0.2346(5) 0.7230(4)
N3A N -0.8537(5) -0.7883(4) -0.1637(4)
N4A N -0.9791(6) -1.0419(5) -0.2293(4)
N4A_2 N -0.9791(6) -0.0419(5) 0.7707(4)
N5A N -0.2384(6) 0.2864(6) -0.1614(5)
N6A N -0.0799(6) 0.4498(5) -0.2636(5)
N6A_2 N -1.0799(6) -0.5502(5) 0.7364(5)
N7A N -0.1203(6) 0.2200(6) 0.0248(4)
N7_2 N -0.8797(6) -0.2200(6) 0.9752(4)
N8A N 0.3953(6) 0.4716(6) 0.6861(5)
N9A N 0.7058(6) 0.6427(6) 0.7670(5)
N9A_2 N -1.2942(6) -0.3573(6) 0.7670(5)
N10A N 0.1733(6) 0.3772(5) 0.4725(4)
N10_2 N -1.1733(6) -0.3772(5) 0.5275(4)
C1A C -0.4294(6) -0.0272(6) 0.5172(5)
H1A H -0.3356 0.0496 0.5993
H2A H -0.3798 -0.0320 0.4487
C2A C -0.4947(7) -0.1836(6) 0.5317(5)
H3A H -0.3973 -0.2116 0.5537
H4A H -0.5829 -0.2617 0.4479
C3A C -0.7403(6) -0.2545(5) 0.6125(5)
H5A H -0.8303 -0.3089 0.5296
C4A C -0.6031(7) -0.1494(6) 0.8184(5)
H6A H -0.5792 -0.1167 0.9089
C5A C -0.4827(7) -0.1195(6) 0.7628(5)
H7A H -0.3609 -0.0623 0.8063
C6A C -0.5550(6) -0.5864(5) -0.0359(4)
H8A H -0.5279 -0.6429 0.0214
H9A H -0.5265 -0.6193 -0.1128
C7A C -0.7455(6) -0.6266(5) -0.0784(5)
H10A H -0.7691 -0.5587 -0.1246
H11A H -0.7770 -0.6075 -0.0010
C8A C -0.8871(6) -0.9135(5) -0.1283(5)
H12A H -0.8491 -0.9095 -0.0413
C9A C -1.0047(6) -0.9961(5) -0.3352(5)
H13A H -1.0663 -1.0637 -0.4227
C10A C -0.9288(7) -0.8404(6) -0.2956(5)
H14A H -0.9280 -0.7794 -0.3489
C11A C -0.1460(7) 0.3752(6) -0.2094(5)
C12A C -0.1676(6) 0.2573(6) -0.0611(5)
C13A C 0.5602(7) 0.5625(6) 0.7225(5)
C14A C 0.2860(6) 0.4273(5) 0.5708(4)
loop_
_geom_bond_atom_site_label_1
_geom_bond_atom_site_label_2
_geom_bond_site_symmetry_1
_geom_bond_site_symmetry_2
Cd1 N2 1_555 1_555
N1 C2 1_555 1_555
N2 C3 1_555 1_555
N3 C7 1_555 1_555
N4 Cd1 1_555 1_555
N5 C11 1_555 1_555
N6 Cd1 1_555 1_555
N7 C12 1_555 1_555
N8 C13 1_555 1_555
N9 Cd1 1_555 1_555
N10 C14 1_555 1_555
C1 H1 1_555 1_555
H2 C1 1_555 1_555
C2 C1 1_555 1_555
H3 C2 1_555 1_555
H4 C2 1_555 1_555
C3 N1 1_555 1_555
H5 C3 1_555 1_555
C4 N2 1_555 1_555
H6 C4 1_555 1_555
C5 N1 1_555 1_555
H7 C5 1_555 1_555
C6 H8 1_555 1_555
H9 C6 1_555 1_555
C7 C6 1_555 1_555
H10 C7 1_555 1_555
H11 C7 1_555 1_555
C8 N3 1_555 1_555
H12 C8 1_555 1_555
C9 N4 1_555 1_555
H13 C9 1_555 1_555
C10 N3 1_555 1_555
H14 C10 1_555 1_555
C11 N6 1_555 1_555
C12 N5 1_555 1_555
C13 N9 1_555 1_555
C14 N8 1_555 1_555
Cd1A N2A 1_555 1_555
Cd1A_2 N7 1_555 1_555
Cd1A_3 N10 1_555 1_555
Cd1A_4 N4A 1_555 1_555
N1A C2A 1_555 1_555
N2A C3A 1_555 1_555
N3A C7A 1_555 1_555
N4A C8A 1_555 1_555
N4A_2 Cd1A 1_555 1_555
N5A C11A 1_555 1_555
N6A Cd1A_2 1_555 1_555
N6A_2 Cd1A 1_555 1_555
N7A Cd1 1_555 1_555
N7_2 Cd1A 1_555 1_555
N8A C13A 1_555 1_555
N9A Cd1A_3 1_555 1_555
N9A_2 Cd1A 1_555 1_555
N10A Cd1 1_555 1_555
N10_2 Cd1A 1_555 1_555
C1A C1 1_555 1_555
H1A C1A 1_555 1_555
H2A C1A 1_555 1_555
C2A C1A 1_555 1_555
H3A C2A 1_555 1_555
H4A C2A 1_555 1_555
C3A N1A 1_555 1_555
H5A C3A 1_555 1_555
C4A N2A 1_555 1_555
H6A C4A 1_555 1_555
C5A N1A 1_555 1_555
H7A C5A 1_555 1_555
C6A C6 1_555 1_555
H8A C6A 1_555 1_555
H9A C6A 1_555 1_555
C7A C6A 1_555 1_555
H10A C7A 1_555 1_555
H11A C7A 1_555 1_555
C8A N3A 1_555 1_555
H12A C8A 1_555 1_555
C9A N4A 1_555 1_555
H13A C9A 1_555 1_555
C10A N3A 1_555 1_555
H14A C10A 1_555 1_555
C11A N6A 1_555 1_555
C12A N5A 1_555 1_555
C13A N9A 1_555 1_555
C14A N8A 1_555 1_555
N4 C8 1_555 1_555
C4 C5 1_555 1_555
C9 C10 1_555 1_555
N7A C12A 1_555 1_555
N10A C14A 1_555 1_555
C4A C5A 1_555 1_555
C9A C10A 1_555 1_555

#END
