
#######################################################################
#
#                 Cambridge Crystallographic Data Centre
#                                CCDC 
#
#######################################################################
#
# If this CIF has been generated from an entry in the Cambridge 
# Structural Database, then it will include bibliographic, chemical, 
# crystal, experimental, refinement or atomic coordinate data resulting 
# from the CCDC's data processing and validation procedures.
#
#######################################################################

data_WIVFIR
_symmetry_cell_setting           monoclinic
_symmetry_space_group_name_H-M   'P 21/c'
_symmetry_Int_Tables_number      14
_space_group_name_Hall           '-P 2ybc'
loop_
_symmetry_equiv_pos_site_id
_symmetry_equiv_pos_as_xyz
1 x,y,z
2 -x,1/2+y,1/2-z
3 -x,-y,-z
4 x,1/2-y,1/2+z
_cell_length_a                   9.0805(13)
_cell_length_b                   9.6021(14)
_cell_length_c                   14.556(2)
_cell_angle_alpha                90
_cell_angle_beta                 90.301(3)
_cell_angle_gamma                90
_cell_volume                     1269.15
loop_
_atom_site_label
_atom_site_type_symbol
_atom_site_fract_x
_atom_site_fract_y
_atom_site_fract_z
Cd1 Cd 0.5000 0.5000 0.5000
S1 S 0.27208(6) 0.07166(6) 0.36738(4)
N1 N 0.64999(19) 0.45859(19) 0.78886(12)
N2 N 0.56853(18) 0.43425(19) 0.64683(11)
N3 N 1.06408(19) 0.5445(2) 0.63936(12)
N4 N 1.26197(19) 0.5578(2) 0.55229(12)
N5 N 0.4257(2) 0.2706(2) 0.47041(13)
C1 C 0.7044(2) 0.5290(2) 0.87142(15)
H1 H 0.6707 0.4774 0.9263
H2 H 0.6617 0.6238 0.8741
C2 C 0.8721(2) 0.5401(2) 0.87411(15)
H3 H 0.9134 0.4458 0.8839
H4 H 0.9008 0.5978 0.9277
C3 C 0.9428(2) 0.6026(2) 0.78779(14)
H5 H 0.8797 0.6791 0.7645
H6 H 1.0396 0.6430 0.8045
C4 C 0.9644(2) 0.4954(2) 0.71124(16)
H7 H 1.0045 0.4085 0.7382
H8 H 0.8675 0.4732 0.6833
C5 C 0.5968(2) 0.5229(2) 0.71383(15)
H9 H 0.5813 0.6205 0.7095
C6 C 0.6058(2) 0.3049(2) 0.68127(14)
H10 H 0.5975 0.2194 0.6489
C7 C 0.6564(2) 0.3193(2) 0.76908(15)
H11 H 0.6896 0.2470 0.8087
C8 C 1.1997(2) 0.4938(2) 0.62244(15)
H12 H 1.2449 0.4211 0.6567
C9 C 1.1601(2) 0.6543(2) 0.52280(15)
H13 H 1.1733 0.7165 0.4728
C10 C 1.0378(2) 0.6472(2) 0.57594(15)
H14 H 0.9514 0.7024 0.5703
C11 C 0.3626(2) 0.1882(2) 0.42727(14)
Cd1_2 Cd 1.5000 0.5000 0.5000
Cd1_3 Cd -0.5000 0.5000 0.5000
S1B S 0.72792(6) 0.92834(6) 0.63262(4)
N1B N 0.35001(19) 0.54141(19) 0.21114(12)
N2B N 0.43147(18) 0.56575(19) 0.35317(11)
N3B N -0.06408(19) 0.4555(2) 0.36064(12)
N4B N -0.26197(19) 0.4422(2) 0.44771(12)
N4_2 N 0.26197(19) 0.5578(2) 0.55229(12)
N4B_2 N 0.73803(19) 0.4422(2) 0.44771(12)
N5B N 0.5743(2) 0.7294(2) 0.52959(13)
C1B C 0.2956(2) 0.4710(2) 0.12858(15)
H1B H 0.3293 0.5226 0.0737
H2B H 0.3383 0.3762 0.1259
C2B C 0.1279(2) 0.4599(2) 0.12589(15)
H3B H 0.0866 0.5542 0.1161
H4B H 0.0992 0.4022 0.0723
C3B C 0.0572(2) 0.3974(2) 0.21221(14)
H5B H 0.1203 0.3209 0.2355
H6B H -0.0396 0.3570 0.1955
C4B C 0.0356(2) 0.5046(2) 0.28876(16)
H7B H -0.0045 0.5915 0.2618
H8B H 0.1325 0.5268 0.3167
C5B C 0.4032(2) 0.4771(2) 0.28617(15)
H9B H 0.4187 0.3795 0.2905
C6B C 0.3942(2) 0.6951(2) 0.31873(14)
H10B H 0.4025 0.7806 0.3511
C7B C 0.3436(2) 0.6807(2) 0.23092(15)
H11B H 0.3104 0.7530 0.1913
C8B C -0.1997(2) 0.5062(2) 0.37756(15)
H12B H -0.2449 0.5789 0.3433
C9B C -0.1601(2) 0.3457(2) 0.47720(15)
H13B H -0.1733 0.2835 0.5272
C10B C -0.0378(2) 0.3528(2) 0.42406(15)
H14B H 0.0486 0.2976 0.4297
C11B C 0.6374(2) 0.8118(2) 0.57273(14)
loop_
_geom_bond_atom_site_label_1
_geom_bond_atom_site_label_2
_geom_bond_site_symmetry_1
_geom_bond_site_symmetry_2
Cd1 N2 1_555 1_555
S1 C11 1_555 1_555
N1 C1 1_555 1_555
N2 C5 1_555 1_555
N3 C4 1_555 1_555
N4 C8 1_555 1_555
N5 Cd1 1_555 1_555
C1 H1 1_555 1_555
H2 C1 1_555 1_555
C2 C1 1_555 1_555
H3 C2 1_555 1_555
H4 C2 1_555 1_555
C3 C2 1_555 1_555
H5 C3 1_555 1_555
H6 C3 1_555 1_555
C4 C3 1_555 1_555
H7 C4 1_555 1_555
H8 C4 1_555 1_555
C5 N1 1_555 1_555
H9 C5 1_555 1_555
C6 N2 1_555 1_555
H10 C6 1_555 1_555
C7 N1 1_555 1_555
H11 C7 1_555 1_555
C8 N3 1_555 1_555
H12 C8 1_555 1_555
C9 N4 1_555 1_555
H13 C9 1_555 1_555
C10 N3 1_555 1_555
H14 C10 1_555 1_555
C11 N5 1_555 1_555
Cd1_2 N4 1_555 1_555
Cd1_3 N4B 1_555 1_555
S1B C11B 1_555 1_555
N1B C1B 1_555 1_555
N2B Cd1 1_555 1_555
N3B C4B 1_555 1_555
N4B C8B 1_555 1_555
N4_2 Cd1 1_555 1_555
N4B_2 Cd1 1_555 1_555
N5B Cd1 1_555 1_555
C1B H1B 1_555 1_555
H2B C1B 1_555 1_555
C2B C1B 1_555 1_555
H3B C2B 1_555 1_555
H4B C2B 1_555 1_555
C3B C2B 1_555 1_555
H5B C3B 1_555 1_555
H6B C3B 1_555 1_555
C4B C3B 1_555 1_555
H7B C4B 1_555 1_555
H8B C4B 1_555 1_555
C5B N1B 1_555 1_555
H9B C5B 1_555 1_555
C6B N2B 1_555 1_555
H10B C6B 1_555 1_555
C7B N1B 1_555 1_555
H11B C7B 1_555 1_555
C8B N3B 1_555 1_555
H12B C8B 1_555 1_555
C9B N4B 1_555 1_555
H13B C9B 1_555 1_555
C10B N3B 1_555 1_555
H14B C10B 1_555 1_555
C11B N5B 1_555 1_555
C6 C7 1_555 1_555
C9 C10 1_555 1_555
N2B C5B 1_555 1_555
C6B C7B 1_555 1_555
C9B C10B 1_555 1_555

#END
