
#######################################################################
#
#                 Cambridge Crystallographic Data Centre
#                                CCDC 
#
#######################################################################
#
# If this CIF has been generated from an entry in the Cambridge 
# Structural Database, then it will include bibliographic, chemical, 
# crystal, experimental, refinement or atomic coordinate data resulting 
# from the CCDC's data processing and validation procedures.
#
#######################################################################

data_WIVHEO
_symmetry_cell_setting           monoclinic
_symmetry_space_group_name_H-M   'P 21/c'
_symmetry_Int_Tables_number      14
_space_group_name_Hall           '-P 2ybc'
loop_
_symmetry_equiv_pos_site_id
_symmetry_equiv_pos_as_xyz
1 x,y,z
2 -x,1/2+y,1/2-z
3 -x,-y,-z
4 x,1/2-y,1/2+z
_cell_length_a                   10.308(4)
_cell_length_b                   22.628(10)
_cell_length_c                   15.081(3)
_cell_angle_alpha                90
_cell_angle_beta                 90.85
_cell_angle_gamma                90
_cell_volume                     3517.25
loop_
_atom_site_label
_atom_site_type_symbol
_atom_site_fract_x
_atom_site_fract_y
_atom_site_fract_z
Ag1 Ag 0.17874(6) 0.26743(2) 0.16691(4)
Ag2 Ag 0.26719(6) 0.24315(3) -0.01627(4)
Ag3 Ag 0.35165(6) 0.28574(2) -0.18657(5)
N1 N 0.2700(6) 0.3476(2) 0.1288(4)
N2 N 0.4230(6) 0.4124(2) 0.1056(4)
N3 N 0.4517(5) 0.2566(2) 0.0568(4)
N4 N 0.3684(6) 0.1531(2) 0.1818(4)
N5 N 0.0447(6) 0.0909(2) 0.1788(4)
N6 N 0.0908(5) 0.1857(2) 0.1943(4)
N7 N 0.2380(6) 0.3564(2) -0.1052(4)
N8 N 0.0773(6) 0.4202(3) -0.0948(4)
N9 N 0.0565(5) 0.2652(3) -0.0492(4)
N10 N 0.2179(7) 0.1592(3) -0.1122(6)
N11 N 0.4666(6) 0.2031(2) -0.1808(4)
N12 N 0.5354(6) 0.1118(2) -0.1783(4)
C1 C 0.2204(8) 0.4030(3) 0.1436(5)
H1 H 0.1334 0.4118 0.1612
C2 C 0.3124(8) 0.4430(3) 0.1286(5)
H2 H 0.3054 0.4851 0.1344
C3 C 0.5493(7) 0.4382(3) 0.0825(5)
H3 H 0.6078 0.4068 0.0677
H4 H 0.5396 0.4644 0.0329
H5 H 0.5834 0.4596 0.1326
C4 C 0.3923(7) 0.3536(3) 0.1069(5)
C5 C 0.4867(7) 0.3068(3) 0.0873(4)
H6 H 0.5773 0.3146 0.0971
C6 C 0.5594(7) 0.2144(3) 0.0420(5)
H7 H 0.6324 0.2275 0.0771
H8 H 0.5835 0.2164 -0.0192
C7 C 0.5461(11) 0.1599(5) 0.0784(9)
H9 H 0.6208 0.1375 0.0611
H10 H 0.4761 0.1476 0.0399
C8 C 0.4984(7) 0.1336(3) 0.1541(5)
H11 H 0.5022 0.0912 0.1556
H12 H 0.5617 0.1484 0.1959
C9 C 0.2758(7) 0.1183(3) 0.1603(4)
H13 H 0.2962 0.0825 0.1294
C10 C 0.1407(7) 0.1318(3) 0.1788(5)
C11 C 0.0583(9) 0.0264(3) 0.1643(6)
H14 H 0.1478 0.0173 0.1540
H15 H 0.0303 0.0062 0.2166
H16 H 0.0065 0.0138 0.1144
C12 C -0.0696(8) 0.1188(3) 0.1954(5)
H17 H -0.1536 0.1007 0.1985
C13 C -0.0395(7) 0.1767(3) 0.2046(5)
H18 H -0.1008 0.2072 0.2178
C14 C 0.2866(7) 0.4124(3) -0.1143(5)
H19 H 0.3763 0.4220 -0.1226
C15 C 0.1879(7) 0.4522(3) -0.1071(5)
H20 H 0.1937 0.4944 -0.1122
C16 C -0.0538(7) 0.4442(3) -0.0824(6)
H21 H -0.0522 0.4865 -0.0869
H22 H -0.1100 0.4283 -0.1278
H23 H -0.0852 0.4330 -0.0252
C17 C 0.1112(7) 0.3620(3) -0.0922(5)
C18 C 0.0183(7) 0.3146(3) -0.0785(5)
H24 H -0.0720 0.3210 -0.0918
C19 C -0.0426(7) 0.2184(3) -0.0387(6)
H25 H -0.1192 0.2299 -0.0714
H26 H -0.0650 0.2152 0.0226
C20 C -0.0007(11) 0.1633(5) -0.0745(10)
H27 H -0.0646 0.1561 -0.1202
H28 H -0.0274 0.1388 -0.0262
C21 C 0.0879(9) 0.1335(4) -0.0987(9)
H29 H 0.1010 0.1013 -0.0582
H30 H 0.0593 0.1166 -0.1540
C22 C 0.2984(8) 0.1269(3) -0.1468(5)
H31 H 0.2744 0.0867 -0.1591
C23 C 0.4282(8) 0.1466(3) -0.1691(5)
C24 C 0.5375(8) 0.0457(3) -0.1683(6)
H32 H 0.4523 0.0310 -0.1561
H33 H 0.5682 0.0283 -0.2221
H34 H 0.5954 0.0357 -0.1202
C25 C 0.6396(8) 0.1461(3) -0.1952(5)
H35 H 0.7267 0.1327 -0.2046
C26 C 0.5955(8) 0.2024(3) -0.1970(5)
H36 H 0.6475 0.2367 -0.2081
Ag3C Ag 0.35165(6) 0.21426(2) 0.31343(5)
Ag1C Ag 0.17874(6) 0.23257(2) -0.33309(4)
N4C N 0.3684(6) 0.3469(2) -0.3182(4)
N13 N -0.1212(6) 0.3583(3) 0.1397(5)
O1 O -0.0640(8) 0.3198(3) 0.1766(6)
O2 O -0.1141(7) 0.4088(3) 0.1610(6)
O3 O -0.1942(8) 0.3445(5) 0.0790(6)
N14 N 0.2611(7) 0.5165(3) 0.4628(5)
O4 O 0.3053(8) 0.4729(3) 0.5008(4)
O5 O 0.2654(7) 0.5213(3) 0.3806(4)
O6 O 0.2171(8) 0.5562(3) 0.5061(5)
N15 N 0.6359(6) 0.1334(3) 0.3651(4)
O7 O 0.6261(6) 0.0790(2) 0.3599(5)
O8 O 0.7267(5) 0.1598(3) 0.3326(4)
O9 O 0.5473(5) 0.1616(2) 0.4007(4)
loop_
_geom_bond_atom_site_label_1
_geom_bond_atom_site_label_2
_geom_bond_site_symmetry_1
_geom_bond_site_symmetry_2
Ag1 Ag2 1_555 1_555
Ag2 Ag3 1_555 1_555
Ag3 N7 1_555 1_555
N1 Ag1 1_555 1_555
N2 C2 1_555 1_555
N3 Ag2 1_555 1_555
N4 C8 1_555 1_555
N5 C10 1_555 1_555
N6 Ag1 1_555 1_555
N7 C14 1_555 1_555
N8 C15 1_555 1_555
N9 Ag2 1_555 1_555
N10 Ag2 1_555 1_555
N11 Ag3 1_555 1_555
N12 C23 1_555 1_555
C1 N1 1_555 1_555
H1 C1 1_555 1_555
C2 C1 1_555 1_555
H2 C2 1_555 1_555
C3 N2 1_555 1_555
H3 C3 1_555 1_555
H4 C3 1_555 1_555
H5 C3 1_555 1_555
C4 N1 1_555 1_555
C5 N3 1_555 1_555
H6 C5 1_555 1_555
C6 N3 1_555 1_555
H7 C6 1_555 1_555
H8 C6 1_555 1_555
C7 C6 1_555 1_555
H9 C7 1_555 1_555
H10 C7 1_555 1_555
C8 C7 1_555 1_555
H11 C8 1_555 1_555
H12 C8 1_555 1_555
C9 N4 1_555 1_555
H13 C9 1_555 1_555
C10 N6 1_555 1_555
C11 N5 1_555 1_555
H14 C11 1_555 1_555
H15 C11 1_555 1_555
H16 C11 1_555 1_555
C12 N5 1_555 1_555
H17 C12 1_555 1_555
C13 N6 1_555 1_555
H18 C13 1_555 1_555
C14 H19 1_555 1_555
C15 C14 1_555 1_555
H20 C15 1_555 1_555
C16 N8 1_555 1_555
H21 C16 1_555 1_555
H22 C16 1_555 1_555
H23 C16 1_555 1_555
C17 N7 1_555 1_555
C18 N9 1_555 1_555
H24 C18 1_555 1_555
C19 N9 1_555 1_555
H25 C19 1_555 1_555
H26 C19 1_555 1_555
C20 C19 1_555 1_555
H27 C20 1_555 1_555
H28 C20 1_555 1_555
C21 N10 1_555 1_555
H29 C21 1_555 1_555
H30 C21 1_555 1_555
C22 N10 1_555 1_555
H31 C22 1_555 1_555
C23 N11 1_555 1_555
C24 N12 1_555 1_555
H32 C24 1_555 1_555
H33 C24 1_555 1_555
H34 C24 1_555 1_555
C25 N12 1_555 1_555
H35 C25 1_555 1_555
C26 N11 1_555 1_555
H36 C26 1_555 1_555
N13 O1 1_555 1_555
O2 N13 1_555 1_555
O3 N13 1_555 1_555
N14 O4 1_555 1_555
O5 N14 1_555 1_555
O6 N14 1_555 1_555
N15 O7 1_555 1_555
O8 N15 1_555 1_555
O9 N15 1_555 1_555
Ag3C Ag1 1_555 1_555
Ag1C Ag3 1_555 1_555
N4C Ag3 1_555 1_555
N2 C4 1_555 1_555
N4 Ag3C 1_555 1_555
N8 C17 1_555 1_555
C4 C5 1_555 1_555
C9 C10 1_555 1_555
C12 C13 1_555 1_555
C17 C18 1_555 1_555
C20 C21 1_555 1_555
C22 C23 1_555 1_555
C25 C26 1_555 1_555

#END
