
#######################################################################
#
#                 Cambridge Crystallographic Data Centre
#                                CCDC 
#
#######################################################################
#
# If this CIF has been generated from an entry in the Cambridge 
# Structural Database, then it will include bibliographic, chemical, 
# crystal, experimental, refinement or atomic coordinate data resulting 
# from the CCDC's data processing and validation procedures.
#
#######################################################################

data_WIVHIS
_symmetry_cell_setting           orthorhombic
_symmetry_space_group_name_H-M   'P c a 21'
_symmetry_Int_Tables_number      29
_space_group_name_Hall           'P 2c -2ac'
loop_
_symmetry_equiv_pos_site_id
_symmetry_equiv_pos_as_xyz
1 x,y,z
2 -x,-y,1/2+z
3 1/2+x,-y,z
4 1/2-x,y,1/2+z
_cell_length_a                   33.921(11)
_cell_length_b                   10.103(2)
_cell_length_c                   17.915(4)
_cell_angle_alpha                90
_cell_angle_beta                 90
_cell_angle_gamma                90
_cell_volume                     6139.54
loop_
_atom_site_label
_atom_site_type_symbol
_atom_site_fract_x
_atom_site_fract_y
_atom_site_fract_z
Mn1 Mn 0.62626(6) 0.00009(18) -0.35530(18)
N1 N 0.1761(3) -0.1295(10) -0.3138(5)
N2 N 0.2336(2) -0.2313(9) -0.3114(6)
N3 N 0.5552(3) 0.0509(11) -0.1513(6)
N4 N 0.5990(3) 0.0071(10) -0.2378(6)
N5 N 0.5774(2) -0.1360(11) -0.3906(6)
N6 N 0.5224(3) -0.2493(9) -0.3929(6)
N7 N 0.1984(2) 0.0107(9) -0.5563(5)
N8 N 0.1530(3) -0.0070(9) -0.4675(6)
N9 N 0.5887(2) 0.1738(10) -0.3862(5)
N10 N 0.5434(3) 0.2898(11) -0.4456(6)
N11 N 0.2077(3) 0.3130(11) -0.2801(6)
N12 N 0.1622(3) 0.1810(10) -0.3282(6)
C1 C 0.1852(4) -0.1679(14) -0.2413(7)
H1 H 0.1694 -0.1524 -0.1999
C2 C 0.2206(4) -0.2312(12) -0.2394(8)
H2 H 0.2331 -0.2668 -0.1978
C3 C 0.2058(3) -0.1736(10) -0.3512(7)
H3 H 0.2075 -0.1652 -0.4028
C4 C 0.2721(3) -0.2894(11) -0.3379(7)
H4 H 0.2742 -0.2771 -0.3914
H5 H 0.2721 -0.3838 -0.3280
C5 C 0.3072(4) -0.2278(12) -0.3008(7)
C6 C 0.3133(4) -0.0921(12) -0.2959(7)
H6 H 0.2942 -0.0347 -0.3143
C7 C 0.3473(4) -0.0404(12) -0.2642(7)
H7 H 0.3511 0.0507 -0.2637
C8 C 0.3750(3) -0.1210(12) -0.2338(6)
C9 C 0.3689(3) -0.2537(12) -0.2350(7)
H8 H 0.3871 -0.3116 -0.2140
C10 C 0.3349(4) -0.3004(12) -0.2682(8)
H9 H 0.3310 -0.3915 -0.2677
C11 C 0.4115(4) -0.0620(13) -0.1991(7)
C12 C 0.4135(3) 0.0663(14) -0.1800(8)
H10 H 0.3917 0.1212 -0.1857
C13 C 0.4492(4) 0.1164(12) -0.1511(6)
H11 H 0.4501 0.2042 -0.1356
C14 C 0.4821(3) 0.0421(12) -0.1451(7)
C15 C 0.4790(3) -0.0908(12) -0.1625(7)
H12 H 0.5006 -0.1462 -0.1557
C16 C 0.4450(4) -0.1410(13) -0.1891(8)
H13 H 0.4438 -0.2304 -0.2012
C17 C 0.5193(3) 0.1010(10) -0.1141(6)
H14 H 0.5208 0.0813 -0.0612
H15 H 0.5182 0.1964 -0.1196
C18 C 0.5766(4) -0.0615(13) -0.1296(7)
H16 H 0.5732 -0.1107 -0.0862
C19 C 0.6032(3) -0.0840(12) -0.1843(7)
H17 H 0.6216 -0.1522 -0.1847
C20 C 0.5698(3) 0.0814(12) -0.2168(6)
H18 H 0.5602 0.1506 -0.2458
C21 C 0.5706(3) -0.1829(13) -0.4585(8)
H19 H 0.5875 -0.1686 -0.4987
C22 C 0.5363(4) -0.2546(13) -0.4638(7)
H20 H 0.5254 -0.2960 -0.5053
C23 C 0.5471(3) -0.1744(10) -0.3502(7)
H21 H 0.5431 -0.1536 -0.3002
C24 C 0.4844(3) -0.3057(12) -0.3634(7)
H22 H 0.4827 -0.2896 -0.3101
H23 H 0.4841 -0.4007 -0.3713
C25 C 0.4480(3) -0.2413(13) -0.4035(9)
C26 C 0.4405(3) -0.1125(13) -0.3985(7)
H24 H 0.4577 -0.0577 -0.3724
C27 C 0.4078(4) -0.0604(12) -0.4313(7)
H25 H 0.4033 0.0302 -0.4276
C28 C 0.3808(4) -0.1384(13) -0.4702(8)
C29 C 0.3894(4) -0.2704(15) -0.4700(11)
H26 H 0.3716 -0.3287 -0.4919
C30 C 0.4239(4) -0.3216(15) -0.4383(12)
H27 H 0.4296 -0.4114 -0.4418
C31 C 0.3441(3) -0.0884(13) -0.5002(7)
C32 C 0.3361(4) 0.0454(14) -0.5159(11)
H28 H 0.3565 0.1049 -0.5069
C33 C 0.3024(4) 0.0973(13) -0.5425(10)
H29 H 0.2995 0.1882 -0.5485
C34 C 0.2712(4) 0.0082(11) -0.5610(7)
C35 C 0.2768(4) -0.1283(12) -0.5442(8)
H30 H 0.2566 -0.1892 -0.5515
C36 C 0.3126(3) -0.1676(12) -0.5170(7)
H31 H 0.3158 -0.2579 -0.5090
C37 C 0.2326(3) 0.0583(10) -0.5951(6)
H32 H 0.2325 0.1543 -0.5942
H33 H 0.2312 0.0304 -0.6468
C38 C 0.1792(4) -0.1019(14) -0.5709(7)
H34 H 0.1843 -0.1604 -0.6098
C39 C 0.1505(3) -0.1142(12) -0.5166(7)
H35 H 0.1323 -0.1829 -0.5134
C40 C 0.1821(3) 0.0650(12) -0.4949(7)
H36 H 0.1905 0.1445 -0.4741
C41 C 0.5943(3) 0.3073(14) -0.3718(8)
H37 H 0.6145 0.3418 -0.3426
C42 C 0.5653(4) 0.3825(14) -0.4073(7)
H38 H 0.5616 0.4736 -0.4055
C43 C 0.5574(4) 0.1673(15) -0.4359(8)
H39 H 0.5478 0.0910 -0.4585
C44 C 0.5091(3) 0.3179(14) -0.4962(7)
H40 H 0.5086 0.2535 -0.5363
H41 H 0.5121 0.4051 -0.5182
C45 C 0.4708(3) 0.3118(12) -0.4530(7)
C46 C 0.4669(4) 0.2936(14) -0.3774(7)
H42 H 0.4891 0.2777 -0.3481
C47 C 0.4292(3) 0.2990(12) -0.3440(6)
H43 H 0.4273 0.2888 -0.2926
C48 C 0.3955(3) 0.3187(11) -0.3842(6)
C49 C 0.3990(3) 0.3404(10) -0.4594(7)
H44 H 0.3768 0.3578 -0.4883
C50 C 0.4364(3) 0.3361(11) -0.4922(7)
H45 H 0.4382 0.3503 -0.5433
C51 C 0.3565(3) 0.3273(11) -0.3497(7)
C52 C 0.3518(3) 0.3314(10) -0.2714(8)
H46 H 0.3743 0.3280 -0.2419
C53 C 0.3158(3) 0.3402(11) -0.2363(7)
H47 H 0.3144 0.3478 -0.1846
C54 C 0.2808(3) 0.3375(11) -0.2793(8)
C55 C 0.2851(3) 0.3261(14) -0.3530(9)
H48 H 0.2626 0.3202 -0.3824
C56 C 0.3217(3) 0.3227(13) -0.3878(7)
H49 H 0.3225 0.3171 -0.4396
C57 C 0.2427(3) 0.3553(11) -0.2372(6)
H50 H 0.2439 0.3048 -0.1912
H51 H 0.2398 0.4479 -0.2240
C58 C 0.1856(4) 0.3870(12) -0.3321(7)
H52 H 0.1894 0.4747 -0.3462
C59 C 0.1584(3) 0.3039(14) -0.3565(8)
H53 H 0.1386 0.3279 -0.3897
C60 C 0.1931(3) 0.1908(12) -0.2840(7)
H54 H 0.2038 0.1193 -0.2582
N8B N 0.6530(3) 0.0070(9) -0.4675(6)
Mn1B Mn 0.12626(6) -0.00009(18) -0.35530(18)
N12B N 0.6622(3) -0.1810(10) -0.3282(6)
N1B N 0.6761(3) 0.1295(10) -0.3138(5)
Cl1 Cl 0.76450(17) -0.5083(4) -0.0392(3)
O1 O 0.7713(3) -0.5691(10) -0.1087(6)
O2 O 0.7210(5) -0.5021(18) -0.0335(14)
O3 O 0.7757(4) -0.3765(8) -0.0371(7)
O4 O 0.7754(4) -0.5767(11) 0.0214(6)
Cl2 Cl 0.49534(15) 0.5127(4) -0.6799(2)
O5 O 0.5348(3) 0.4956(10) -0.6968(8)
O6 O 0.4939(4) 0.5679(9) -0.6076(5)
O7 O 0.4792(3) 0.6052(12) -0.7294(6)
O8 O 0.4764(3) 0.3887(9) -0.6807(7)
O9 O 0.3567(4) 0.4333(17) -0.6417(8)
O10 O 0.6232(4) 0.566(2) -0.5768(7)
loop_
_geom_bond_atom_site_label_1
_geom_bond_atom_site_label_2
_geom_bond_site_symmetry_1
_geom_bond_site_symmetry_2
Mn1 N4 1_555 1_555
Cl1 O1 1_555 1_555
Cl2 O5 1_555 1_555
O2 Cl1 1_555 1_555
O3 Cl1 1_555 1_555
O4 Cl1 1_555 1_555
O6 Cl2 1_555 1_555
O7 Cl2 1_555 1_555
O8 Cl2 1_555 1_555
N1 C1 1_555 1_555
N2 C2 1_555 1_555
N3 C17 1_555 1_555
N4 C19 1_555 1_555
N5 Mn1 1_555 1_555
N6 C22 1_555 1_555
N7 C37 1_555 1_555
N8 C39 1_555 1_555
N9 Mn1 1_555 1_555
N10 C42 1_555 1_555
N11 C57 1_555 1_555
N12 C59 1_555 1_555
C1 H1 1_555 1_555
C2 C1 1_555 1_555
H2 C2 1_555 1_555
C3 N1 1_555 1_555
H3 C3 1_555 1_555
C4 N2 1_555 1_555
H4 C4 1_555 1_555
H5 C4 1_555 1_555
C5 C4 1_555 1_555
C6 C5 1_555 1_555
H6 C6 1_555 1_555
C7 C6 1_555 1_555
H7 C7 1_555 1_555
C8 C7 1_555 1_555
C9 C8 1_555 1_555
H8 C9 1_555 1_555
C10 C5 1_555 1_555
H9 C10 1_555 1_555
C11 C8 1_555 1_555
C12 C11 1_555 1_555
H10 C12 1_555 1_555
C13 C12 1_555 1_555
H11 C13 1_555 1_555
C14 C13 1_555 1_555
C15 C14 1_555 1_555
H12 C15 1_555 1_555
C16 C11 1_555 1_555
H13 C16 1_555 1_555
C17 C14 1_555 1_555
H14 C17 1_555 1_555
H15 C17 1_555 1_555
C18 N3 1_555 1_555
H16 C18 1_555 1_555
C19 C18 1_555 1_555
H17 C19 1_555 1_555
C20 N3 1_555 1_555
H18 C20 1_555 1_555
C21 N5 1_555 1_555
H19 C21 1_555 1_555
C22 C21 1_555 1_555
H20 C22 1_555 1_555
C23 N5 1_555 1_555
H21 C23 1_555 1_555
C24 N6 1_555 1_555
H22 C24 1_555 1_555
H23 C24 1_555 1_555
C25 C24 1_555 1_555
C26 C25 1_555 1_555
H24 C26 1_555 1_555
C27 C26 1_555 1_555
H25 C27 1_555 1_555
C28 C27 1_555 1_555
C29 C28 1_555 1_555
H26 C29 1_555 1_555
C30 C25 1_555 1_555
H27 C30 1_555 1_555
C31 C28 1_555 1_555
C32 C31 1_555 1_555
H28 C32 1_555 1_555
C33 C32 1_555 1_555
H29 C33 1_555 1_555
C34 C33 1_555 1_555
C35 C34 1_555 1_555
H30 C35 1_555 1_555
C36 C31 1_555 1_555
H31 C36 1_555 1_555
C37 C34 1_555 1_555
H32 C37 1_555 1_555
H33 C37 1_555 1_555
C38 N7 1_555 1_555
H34 C38 1_555 1_555
C39 C38 1_555 1_555
H35 C39 1_555 1_555
C40 N7 1_555 1_555
H36 C40 1_555 1_555
C41 N9 1_555 1_555
H37 C41 1_555 1_555
C42 C41 1_555 1_555
H38 C42 1_555 1_555
C43 N9 1_555 1_555
H39 C43 1_555 1_555
C44 N10 1_555 1_555
H40 C44 1_555 1_555
H41 C44 1_555 1_555
C45 C44 1_555 1_555
C46 C45 1_555 1_555
H42 C46 1_555 1_555
C47 C46 1_555 1_555
H43 C47 1_555 1_555
C48 C47 1_555 1_555
C49 C48 1_555 1_555
H44 C49 1_555 1_555
C50 C45 1_555 1_555
H45 C50 1_555 1_555
C51 C48 1_555 1_555
C52 C51 1_555 1_555
H46 C52 1_555 1_555
C53 C52 1_555 1_555
H47 C53 1_555 1_555
C54 C53 1_555 1_555
C55 C54 1_555 1_555
H48 C55 1_555 1_555
C56 C51 1_555 1_555
H49 C56 1_555 1_555
C57 C54 1_555 1_555
H50 C57 1_555 1_555
H51 C57 1_555 1_555
C58 N11 1_555 1_555
H52 C58 1_555 1_555
C59 C58 1_555 1_555
H53 C59 1_555 1_555
C60 N11 1_555 1_555
H54 C60 1_555 1_555
N8B Mn1 1_555 1_555
Mn1B N1 1_555 1_555
N12B Mn1 1_555 1_555
N1B Mn1 1_555 1_555
N2 C3 1_555 1_555
N4 C20 1_555 1_555
N6 C23 1_555 1_555
N8 Mn1B 1_555 1_555
N8 C40 1_555 1_555
N10 C43 1_555 1_555
N12 C60 1_555 1_555
N12 Mn1B 1_555 1_555
C9 C10 1_555 1_555
C15 C16 1_555 1_555
C29 C30 1_555 1_555
C35 C36 1_555 1_555
C49 C50 1_555 1_555
C55 C56 1_555 1_555

#END
