
#######################################################################
#
#                 Cambridge Crystallographic Data Centre
#                                CCDC 
#
#######################################################################
#
# If this CIF has been generated from an entry in the Cambridge 
# Structural Database, then it will include bibliographic, chemical, 
# crystal, experimental, refinement or atomic coordinate data resulting 
# from the CCDC's data processing and validation procedures.
#
#######################################################################

data_WIVKIX
_symmetry_cell_setting           triclinic
_symmetry_space_group_name_H-M   'P -1'
_symmetry_Int_Tables_number      2
_space_group_name_Hall           '-P 1'
loop_
_symmetry_equiv_pos_site_id
_symmetry_equiv_pos_as_xyz
1 x,y,z
2 -x,-y,-z
_cell_length_a                   8.8825(5)
_cell_length_b                   11.7704(7)
_cell_length_c                   12.1185(7)
_cell_angle_alpha                118.0820(10)
_cell_angle_beta                 90.8820(10)
_cell_angle_gamma                91.9230(10)
_cell_volume                     1116.51
loop_
_atom_site_label
_atom_site_type_symbol
_atom_site_fract_x
_atom_site_fract_y
_atom_site_fract_z
U1 U 0.022447(9) 0.229699(8) 0.772216(8)
P1 P 0.17857(7) 0.06857(6) 0.93291(6)
P2 P 0.17559(7) 0.46110(6) 1.09194(6)
P3 P 0.17247(7) -0.09080(6) 0.54121(6)
O1 O -0.1303(2) 0.15894(18) 0.81501(18)
O2 O 0.1768(2) 0.29953(18) 0.73046(18)
O3 O 0.2016(2) 0.13969(17) 0.85898(16)
O4 O 0.0706(2) 0.37989(17) 0.98254(17)
O5 O 0.0806(2) 0.02225(17) 0.61737(17)
O6 O 0.1246(2) 0.59098(17) 1.18521(17)
O7 O 0.2064(2) 0.38420(18) 1.16715(18)
H1 H 0.1611 0.3115 1.1306
O8 O 0.0998(2) 0.14287(17) 1.05598(17)
O9 O 0.0916(2) -0.06365(18) 0.84945(17)
H2 H 0.0341 -0.0816 0.8940
O10 O 0.2051(2) -0.16580(19) 0.61828(18)
H3 H 0.1624 -0.1301 0.6870
O11 O 0.1067(2) -0.19044(18) 0.41617(17)
C1 C 0.3576(3) 0.4835(2) 1.0405(2)
C2 C 0.4120(3) 0.6052(3) 1.0640(3)
H4 H 0.3523 0.6777 1.1075
C3 C 0.3599(3) 0.0302(2) 0.9694(2)
C4 C 0.3560(3) -0.0384(3) 0.5176(2)
C5 C 0.3725(3) -0.0104(3) 1.0599(3)
H5 H 0.2852 -0.0178 1.1008
C6 C 0.4288(3) -0.1119(3) 0.4064(2)
H6 H 0.3801 -0.1883 0.3426
C7 C 0.4887(3) 0.0404(3) 0.9090(3)
H7 H 0.4811 0.0677 0.8469
C8 C 0.5529(3) 0.6216(3) 1.0243(3)
H8 H 0.5890 0.7053 1.0414
C9 C 0.4279(3) 0.0739(3) 0.6112(2)
H9 H 0.3787 0.1242 0.6869
P1A P 0.82143(7) -0.06857(6) 1.06709(6)
O3A O 0.7984(2) -0.13969(17) 1.14102(16)
O8A O 0.9002(2) -0.14287(17) 0.94402(17)
O9A O 0.9084(2) 0.06365(18) 1.15055(17)
H2A H 0.9659 0.0816 1.1060
C3A C 0.6401(3) -0.0302(2) 1.0306(2)
C5A C 0.6275(3) 0.0104(3) 0.9401(3)
H5A H 0.7148 0.0178 0.8992
C7A C 0.5113(3) -0.0404(3) 1.0910(3)
H7A H 0.5189 -0.0677 1.1531
P2A P 0.82441(7) 0.53890(6) 0.90806(6)
O4A O 0.9294(2) 0.62011(17) 1.01746(17)
O7A O 0.7936(2) 0.61580(18) 0.83285(18)
H1A H 0.8389 0.6885 0.8694
C1A C 0.6424(3) 0.5165(2) 0.9595(2)
C2A C 0.5880(3) 0.3948(3) 0.9360(3)
H4A H 0.6477 0.3223 0.8925
C8A C 0.4471(3) 0.3784(3) 0.9757(3)
H8A H 0.4110 0.2947 0.9586
O6A O 0.8754(2) 0.40902(17) 0.81479(17)
P3A P 0.82753(7) 0.09080(6) 0.45879(6)
O5A O 0.9194(2) -0.02225(17) 0.38263(17)
O10A O 0.7949(2) 0.16580(19) 0.38172(18)
H3A H 0.8376 0.1301 0.3130
C4A C 0.6440(3) 0.0384(3) 0.4824(2)
C6A C 0.5712(3) 0.1119(3) 0.5936(2)
H6A H 0.6199 0.1883 0.6574
C9A C 0.5721(3) -0.0739(3) 0.3888(2)
H9A H 0.6213 -0.1242 0.3131
O11A O 0.8933(2) 0.19044(18) 0.58383(17)
U1A U -0.022447(9) -0.229699(8) 0.227784(8)
O1A O 0.1303(2) -0.15894(18) 0.18499(18)
O2A O -0.1768(2) -0.29953(18) 0.26954(18)
U1_2 U 1.022447(9) 0.229699(8) 0.772216(8)
U1A_2 U -0.022447(9) 0.770301(8) 1.227784(8)
U1A_3 U 0.977553(9) -0.229699(8) 0.227784(8)
U1A_4 U 0.977553(9) -0.229699(8) 1.227784(8)
U1A_5 U 0.977553(9) 0.770301(8) 1.227784(8)
O3A_2 O -0.2016(2) -0.13969(17) 0.14102(16)
O4A_2 O -0.0706(2) -0.37989(17) 0.01746(17)
O5A_2 O -0.0806(2) -0.02225(17) 0.38263(17)
O6_2 O 0.1246(2) -0.40902(17) 0.18521(17)
O6A_2 O -0.1246(2) 0.40902(17) 0.81479(17)
O11A_2 O -0.1067(2) 0.19044(18) 0.58383(17)
O12 O 0.1135(3) 0.5583(2) 1.4241(2)
C10 C 0.2538(4) -0.5621(4) 0.5806(4)
H10 H 0.1503 -0.5428 0.5866
C11 C 0.4983(5) -0.5625(6) 0.6024(6)
H11 H 0.5972 -0.5328 0.6375
N1 N 0.3179(12) -0.6757(8) 0.4910(10)
C12 C 0.4709(9) -0.6605(8) 0.5149(7)
H12 H 0.5427 -0.7210 0.4671
N2 N 0.3646(7) -0.4896(7) 0.6530(7)
C13 C 0.2036(16) -0.3569(14) 0.8232(15)
H13 H 0.1194 -0.3676 0.7654
H14 H 0.1983 -0.2739 0.8990
H15 H 0.1978 -0.4269 0.8454
C14 C 0.3462(9) -0.3604(7) 0.7628(7)
H16 H 0.4310 -0.3406 0.8240
H17 H 0.3489 -0.2937 0.7349
C15 C 0.222(2) -0.774(3) 0.390(2)
H18 H 0.2178 -0.8528 0.3975
H19 H 0.2635 -0.7913 0.3091
H20 H 0.1201 -0.7423 0.3949
N3? N 0.3096(10) -0.4607(8) 0.6937(8)
C16? C 0.4548(12) -0.4801(10) 0.6928(9)
H21? H 0.5202 -0.4289 0.7630
N4? N 0.3469(17) -0.6294(9) 0.5199(11)
C17? C 0.222(3) -0.814(2) 0.390(2)
H22? H 0.2022 -0.8194 0.4666
H23? H 0.2275 -0.9014 0.3197
H24? H 0.1415 -0.7695 0.3727
C18? C 0.3379(18) -0.7570(16) 0.4023(13)
H25? H 0.3514 -0.7420 0.3292
H26? H 0.4210 -0.8099 0.4047
C19? C 0.231(3) -0.364(2) 0.794(2)
H27? H 0.1939 -0.3991 0.8485
H28? H 0.1456 -0.3383 0.7604
H29? H 0.2995 -0.2892 0.8428
loop_
_geom_bond_atom_site_label_1
_geom_bond_atom_site_label_2
_geom_bond_site_symmetry_1
_geom_bond_site_symmetry_2
U1 O1 1_555 1_555
P1 O3 1_555 1_555
P2 O4 1_555 1_555
P3 O5 1_555 1_555
O2 U1 1_555 1_555
O3 U1 1_555 1_555
O4 U1 1_555 1_555
O5 U1 1_555 1_555
O6 P2 1_555 1_555
O7 P2 1_555 1_555
H1 O7 1_555 1_555
O8 P1 1_555 1_555
O9 P1 1_555 1_555
H2 O9 1_555 1_555
O10 P3 1_555 1_555
H3 O10 1_555 1_555
O11 P3 1_555 1_555
C1 P2 1_555 1_555
C2 C1 1_555 1_555
H4 C2 1_555 1_555
C3 P1 1_555 1_555
C4 P3 1_555 1_555
C5 C3 1_555 1_555
H5 C5 1_555 1_555
C6 C4 1_555 1_555
H6 C6 1_555 1_555
C7 C3 1_555 1_555
H7 C7 1_555 1_555
C8 C2 1_555 1_555
H8 C8 1_555 1_555
C9 C4 1_555 1_555
H9 C9 1_555 1_555
C10 H10 1_555 1_555
C11 H11 1_555 1_555
N1 C10 1_555 1_555
C12 C11 1_555 1_555
H12 C12 1_555 1_555
N2 C10 1_555 1_555
C13 H13 1_555 1_555
H14 C13 1_555 1_555
H15 C13 1_555 1_555
C14 N2 1_555 1_555
H16 C14 1_555 1_555
H17 C14 1_555 1_555
C15 N1 1_555 1_555
H18 C15 1_555 1_555
H19 C15 1_555 1_555
H20 C15 1_555 1_555
P1A O3A 1_555 1_555
O3A U1A_4 1_555 1_555
O8A P1A 1_555 1_555
O9A P1A 1_555 1_555
H2A O9A 1_555 1_555
C3A P1A 1_555 1_555
C5A C7 1_555 1_555
H5A C5A 1_555 1_555
C7A C5 1_555 1_555
H7A C7A 1_555 1_555
P2A O4A 1_555 1_555
O4A U1A_5 1_555 1_555
O7A P2A 1_555 1_555
H1A O7A 1_555 1_555
C1A C8 1_555 1_555
C2A C1A 1_555 1_555
H4A C2A 1_555 1_555
C8A C1 1_555 1_555
H8A C8A 1_555 1_555
O6A P2A 1_555 1_555
P3A O5A 1_555 1_555
O5A U1A_3 1_555 1_555
O10A P3A 1_555 1_555
H3A O10A 1_555 1_555
C4A P3A 1_555 1_555
C6A C9 1_555 1_555
H6A C6A 1_555 1_555
C9A C6 1_555 1_555
H9A C9A 1_555 1_555
O11A P3A 1_555 1_555
U1A O11 1_555 1_555
O1A U1A 1_555 1_555
O2A U1A 1_555 1_555
U1_2 O6A 1_555 1_555
U1A_2 O6 1_555 1_555
O3A_2 U1A 1_555 1_555
O4A_2 U1A 1_555 1_555
O5A_2 U1A 1_555 1_555
O6_2 U1A 1_555 1_555
O6A_2 U1 1_555 1_555
O11A_2 U1 1_555 1_555
C11 N2 1_555 1_555
N1 C12 1_555 1_555
C13 C14 1_555 1_555
C3A C5A 1_555 1_555
C3A C7A 1_555 1_555
P2A C1A 1_555 1_555
C2A C8A 1_555 1_555
C4A C6A 1_555 1_555
C4A C9A 1_555 1_555
O11A U1_2 1_555 1_555

#END
