
#######################################################################
#
#                 Cambridge Crystallographic Data Centre
#                                CCDC 
#
#######################################################################
#
# If this CIF has been generated from an entry in the Cambridge 
# Structural Database, then it will include bibliographic, chemical, 
# crystal, experimental, refinement or atomic coordinate data resulting 
# from the CCDC's data processing and validation procedures.
#
#######################################################################

data_WIVKET
_symmetry_cell_setting           triclinic
_symmetry_space_group_name_H-M   'P -1'
_symmetry_Int_Tables_number      2
_space_group_name_Hall           '-P 1'
loop_
_symmetry_equiv_pos_site_id
_symmetry_equiv_pos_as_xyz
1 x,y,z
2 -x,-y,-z
_cell_length_a                   9.8611(7)
_cell_length_b                   10.0415(7)
_cell_length_c                   10.7103(7)
_cell_angle_alpha                71.7120(10)
_cell_angle_beta                 65.6660(10)
_cell_angle_gamma                68.0820(10)
_cell_volume                     880.269
loop_
_atom_site_label
_atom_site_type_symbol
_atom_site_fract_x
_atom_site_fract_y
_atom_site_fract_z
U1 U 0.287971(13) 0.400591(13) -0.495453(12)
P1 P 0.90434(10) 0.39814(9) -1.24801(9)
O1 O 0.2098(3) 0.5793(2) -0.4539(3)
C1 C 0.7195(4) 0.5697(4) -0.8844(3)
H1 H 0.7543 0.6571 -0.9269
H2 H 0.7949 0.4977 -0.8430
P2 P 0.53747(10) 0.61309(9) -0.74778(9)
O2 O 0.3718(3) 0.2219(2) -0.5353(2)
C2 C 0.7188(4) 0.5102(4) -1.0002(3)
H3 H 0.6760 0.4275 -0.9590
H4 H 0.6541 0.5854 -1.0509
O3 O 1.0783(3) 0.3366(2) -1.3212(2)
C3 C 0.8849(4) 0.4627(4) -1.1007(3)
H5 H 0.9281 0.5449 -1.1355
H6 H 0.9468 0.3857 -1.0485
O4 O 0.8312(3) 0.5298(2) -1.3421(2)
O5 O 0.5660(3) 0.6735(2) -0.6483(2)
O6 O 0.4889(3) 0.4724(2) -0.6775(2)
O7 O 0.8245(3) 0.2772(2) -1.1923(2)
H7 H 0.7460 0.3057 -1.2137
O8 O 0.4202(3) 0.7318(2) -0.8118(2)
U1_2 U 1.287971(13) 0.400591(13) -1.495453(12)
U1A U 0.712029(13) 0.599409(13) -1.504547(12)
U1A_2 U 0.712029(13) 0.599409(13) -0.504547(12)
O3_2 O 0.0783(3) 0.3366(2) -0.3212(2)
O4A O 0.1688(3) 0.4702(2) -0.6579(2)
O5A O 0.4340(3) 0.3265(2) -0.3517(2)
N1 N 0.2230(3) 1.0576(3) -0.6287(3)
N2 N 0.1781(3) 0.9465(3) -0.4139(3)
C4 C 0.2735(4) 0.9384(4) -0.5441(4)
H8 H 0.3612 0.8614 -0.5712
C5 C 0.0620(4) 1.0773(4) -0.4165(4)
H9 H -0.0208 1.1107 -0.3402
C6 C 0.0912(4) 1.1465(4) -0.5496(4)
H10 H 0.0333 1.2378 -0.5829
C7 C 0.2975(5) 1.0922(4) -0.7804(4)
H11 H 0.3492 1.1651 -0.8025
H12 H 0.2203 1.1287 -0.8248
H13 H 0.3719 1.0054 -0.8130
C8 C 0.1891(5) 0.8346(4) -0.2886(4)
H14 H 0.2895 0.7624 -0.3109
H15 H 0.1098 0.7853 -0.2584
C9 C 0.1685(4) 0.9022(4) -0.1708(4)
H16 H 0.0708 0.9785 -0.1531
H17 H 0.1632 0.8279 -0.0866
C10 C 0.2988(4) 0.9668(4) -0.2021(4)
H18 H 0.3967 0.8907 -0.2187
H19 H 0.3047 1.0413 -0.2863
C11 C 0.2732(5) 1.0338(4) -0.0826(4)
H20 H 0.1775 1.1107 -0.0673
H21 H 0.3574 1.0730 -0.1053
H22 H 0.2686 0.9600 0.0006
loop_
_geom_bond_atom_site_label_1
_geom_bond_atom_site_label_2
_geom_bond_site_symmetry_1
_geom_bond_site_symmetry_2
U1 O1 1_555 1_555
P1 O3 1_555 1_555
C1 H1 1_555 1_555
H2 C1 1_555 1_555
P2 C1 1_555 1_555
O2 U1 1_555 1_555
C2 C1 1_555 1_555
H3 C2 1_555 1_555
H4 C2 1_555 1_555
O3 U1_2 1_555 1_555
C3 P1 1_555 1_555
H5 C3 1_555 1_555
H6 C3 1_555 1_555
O4 P1 1_555 1_555
O5 P2 1_555 1_555
O6 U1 1_555 1_555
O7 P1 1_555 1_555
H7 O7 1_555 1_555
O8 P2 1_555 1_555
N1 C4 1_555 1_555
N2 C4 1_555 1_555
C4 H8 1_555 1_555
C5 N2 1_555 1_555
H9 C5 1_555 1_555
C6 N1 1_555 1_555
H10 C6 1_555 1_555
C7 N1 1_555 1_555
H11 C7 1_555 1_555
H12 C7 1_555 1_555
H13 C7 1_555 1_555
C8 N2 1_555 1_555
H14 C8 1_555 1_555
H15 C8 1_555 1_555
C9 C8 1_555 1_555
H16 C9 1_555 1_555
H17 C9 1_555 1_555
C10 C9 1_555 1_555
H18 C10 1_555 1_555
H19 C10 1_555 1_555
C11 C10 1_555 1_555
H20 C11 1_555 1_555
H21 C11 1_555 1_555
H22 C11 1_555 1_555
U1A O4 1_555 1_555
U1A_2 O5 1_555 1_555
O3_2 U1 1_555 1_555
O4A U1 1_555 1_555
O5A U1 1_555 1_555
P2 O6 1_555 1_555
C2 C3 1_555 1_555
C5 C6 1_555 1_555

#END
