
#######################################################################
#
#                 Cambridge Crystallographic Data Centre
#                                CCDC 
#
#######################################################################
#
# If this CIF has been generated from an entry in the Cambridge 
# Structural Database, then it will include bibliographic, chemical, 
# crystal, experimental, refinement or atomic coordinate data resulting 
# from the CCDC's data processing and validation procedures.
#
#######################################################################

data_WIVSOL
_symmetry_cell_setting           hexagonal
_symmetry_space_group_name_H-M   'P 65'
_symmetry_Int_Tables_number      170
_space_group_name_Hall           'P 65'
loop_
_symmetry_equiv_pos_site_id
_symmetry_equiv_pos_as_xyz
1 x,y,z
2 -y,x-y,2/3+z
3 -x+y,-x,1/3+z
4 -x,-y,1/2+z
5 y,-x+y,1/6+z
6 x-y,x,5/6+z
_cell_length_a                   13.2709(19)
_cell_length_b                   13.2709(19)
_cell_length_c                   12.678(3)
_cell_angle_alpha                90
_cell_angle_beta                 90
_cell_angle_gamma                120
_cell_volume                     1933.67
loop_
_atom_site_label
_atom_site_type_symbol
_atom_site_fract_x
_atom_site_fract_y
_atom_site_fract_z
Zn1 Zn 0.61446(3) 0.11618(3) 1.04815(3)
N1 N 0.7155(3) 0.2162(3) 0.9273(2)
N2 N 0.8106(3) 0.3510(3) 0.7999(2)
N3 N 0.8218(2) 0.4521(2) 1.0471(3)
N4 N 0.9695(3) 0.4876(3) 1.1488(3)
O1 O 0.5873(3) -0.0481(3) 1.2145(3)
O2 O 0.7303(3) 0.0949(3) 1.1242(3)
C1 C 0.6902(5) 0.0136(5) 1.1946(5)
C2 C 0.7804(5) -0.0004(5) 1.2525(5)
C3 C 0.7550(3) 0.1676(3) 0.8526(3)
C4 C 0.7490(3) 0.0597(3) 0.8510(3)
H1 H 0.7122 0.0055 0.9046
C5 C 0.7998(3) 0.0367(3) 0.7671(4)
H2 H 0.7970 -0.0346 0.7637
C6 C 0.8559(4) 0.1185(4) 0.6863(3)
H3 H 0.8887 0.0997 0.6303
C7 C 0.8637(3) 0.2259(4) 0.6879(3)
H4 H 0.9013 0.2798 0.6343
C8 C 0.8130(3) 0.2509(3) 0.7728(3)
C9 C 0.7524(3) 0.3243(3) 0.8932(3)
C10 C 0.7409(3) 0.4131(3) 0.9574(3)
H5 H 0.7573 0.4793 0.9133
H6 H 0.6618 0.3796 0.9831
C11 C 0.9215(3) 0.4497(3) 1.0557(3)
H7 H 0.9524 0.4246 1.0029
C12 C 0.8067(3) 0.4970(3) 1.1398(3)
H8 H 0.7463 0.5106 1.1565
C13 C 0.8973(3) 0.5169(3) 1.2013(4)
H9 H 0.9094 0.5463 1.2696
C14 C 0.9059(8) 0.0899(9) 1.2375(9)
C15 C 0.8671(9) -0.0080(10) 1.1690(8)
Zn1A Zn 0.88382(3) 0.49828(4) 0.71482(3)
Zn1D Zn 1.11618(3) 0.50172(4) 1.21482(3)
N2B N 0.5404(4) 0.1894(3) 1.1332(2)
N4E N 0.4819(4) -0.0305(3) 0.9821(3)
C14E C 0.8160(12) -0.0941(8) 1.0708(9)
C15D C 0.9920(10) 0.1249(13) 1.3357(8)
loop_
_geom_bond_atom_site_label_1
_geom_bond_atom_site_label_2
_geom_bond_site_symmetry_1
_geom_bond_site_symmetry_2
Zn1 N1 1_555 1_555
N1 C3 1_555 1_555
N2 C8 1_555 1_555
N3 C10 1_555 1_555
N4 C11 1_555 1_555
O1 C1 1_555 1_555
O2 Zn1 1_555 1_555
C1 O2 1_555 1_555
C2 C1 1_555 1_555
C3 C4 1_555 1_555
C4 H1 1_555 1_555
C5 C4 1_555 1_555
H2 C5 1_555 1_555
C6 C5 1_555 1_555
H3 C6 1_555 1_555
C7 C6 1_555 1_555
H4 C7 1_555 1_555
C8 C3 1_555 1_555
C9 N1 1_555 1_555
C10 C9 1_555 1_555
H5 C10 1_555 1_555
H6 C10 1_555 1_555
C11 N3 1_555 1_555
H7 C11 1_555 1_555
C12 N3 1_555 1_555
H8 C12 1_555 1_555
C13 N4 1_555 1_555
H9 C13 1_555 1_555
C14 C2 1_555 1_555
C15 C2 1_555 1_555
Zn1A N2 1_555 1_555
Zn1D N4 1_555 1_555
N2B Zn1 1_555 1_555
N4E Zn1 1_555 1_555
C14E C15 1_555 1_555
C15D C14 1_555 1_555
N2 C9 1_555 1_555
C7 C8 1_555 1_555
C12 C13 1_555 1_555
C14 C15 1_555 1_555

#END
