
#######################################################################
#
#                 Cambridge Crystallographic Data Centre
#                                CCDC 
#
#######################################################################
#
# If this CIF has been generated from an entry in the Cambridge 
# Structural Database, then it will include bibliographic, chemical, 
# crystal, experimental, refinement or atomic coordinate data resulting 
# from the CCDC's data processing and validation procedures.
#
#######################################################################

data_WIVXUV
_symmetry_cell_setting           cubic
_symmetry_space_group_name_H-M   'I 21 3'
_symmetry_Int_Tables_number      199
_space_group_name_Hall           'I 2b 2c 3'
loop_
_symmetry_equiv_pos_site_id
_symmetry_equiv_pos_as_xyz
1 x,y,z
2 1/2-x,-y,1/2+z
3 -x,1/2+y,1/2-z
4 1/2+x,1/2-y,-z
5 z,x,y
6 1/2+z,1/2-x,-y
7 1/2-z,-x,1/2+y
8 -z,1/2+x,1/2-y
9 y,z,x
10 -y,1/2+z,1/2-x
11 1/2+y,1/2-z,-x
12 1/2-y,-z,1/2+x
13 1/2+x,1/2+y,1/2+z
14 -x,1/2-y,z
15 1/2-x,y,-z
16 x,-y,1/2-z
17 1/2+z,1/2+x,1/2+y
18 z,-x,1/2-y
19 -z,1/2-x,y
20 1/2-z,x,-y
21 1/2+y,1/2+z,1/2+x
22 1/2-y,z,-x
23 y,-z,1/2-x
24 -y,1/2-z,x
_cell_length_a                   16.0836(10)
_cell_length_b                   16.0836(10)
_cell_length_c                   16.0836(10)
_cell_angle_alpha                90
_cell_angle_beta                 90
_cell_angle_gamma                90
_cell_volume                     4160.54
loop_
_atom_site_label
_atom_site_type_symbol
_atom_site_fract_x
_atom_site_fract_y
_atom_site_fract_z
Dy1 Dy 0.37930(2) 0.62070(2) 0.12070(2)
Co1 Co 0.5000 0.7500 0.26700(9)
P1 P 0.40238(12) 0.59326(12) 0.31530(12)
N1 N 0.4133(4) 0.7494(4) 0.3684(4)
O1 O 0.4738(3) 0.6247(3) 0.2621(3)
O2 O 0.3252(3) 0.5925(3) 0.2590(3)
O3 O 0.4186(3) 0.5120(3) 0.3604(3)
C1 C 0.3871(5) 0.6712(5) 0.3927(5)
C2 C 0.3532(6) 0.6579(6) 0.4701(6)
H5 H 0.3358 0.6050 0.4856
C3 C 0.3454(6) 0.7232(7) 0.5240(6)
H6 H 0.3236 0.7145 0.5769
C4 C 0.3697(6) 0.8020(6) 0.5003(6)
H7 H 0.3640 0.8472 0.5360
C5 C 0.4017(5) 0.8111(5) 0.4239(6)
H8 H 0.4172 0.8644 0.4078
Dy1O Dy 0.37930(2) 0.37930(2) 0.37930(2)
Dy1N Dy 0.12070(2) 0.62070(2) -0.12070(2)
Dy1M Dy 0.62070(2) 0.87930(2) 0.12070(2)
Co1F Co 0.23300(9) 0.5000 0.2500
Co1I Co 0.2500 0.76700(9) 0.0000
Co1B Co 0.5000 0.2500 0.23300(9)
Co1D Co 0.26700(9) 0.5000 -0.2500
Co1K Co 0.7500 0.73300(9) 0.0000
P1F P 0.18470(12) 0.59762(12) 0.09326(12)
P1I P 0.40674(12) 0.81530(12) 0.09762(12)
P1O P 0.40238(12) 0.40674(12) 0.18470(12)
P1Q P 0.31530(12) 0.59762(12) -0.09326(12)
P1V P 0.59326(12) 0.68470(12) 0.09762(12)
N1F N 0.1316(4) 0.5867(4) 0.2494(4)
N1I N 0.2506(4) 0.8684(4) 0.0867(4)
N1O N 0.4133(4) 0.2506(4) 0.1316(4)
N1Q N 0.3684(4) 0.5867(4) -0.2494(4)
N1V N 0.7494(4) 0.6316(4) 0.0867(4)
N1M N 0.5867(4) 0.7506(4) 0.3684(4)
N1S N 0.1316(4) 0.4133(4) 0.2506(4)
N1T N 0.2494(4) 0.8684(4) -0.0867(4)
O1F O 0.2379(3) 0.5262(3) 0.1247(3)
O1I O 0.3753(3) 0.7621(3) 0.0262(3)
O1O O 0.4738(3) 0.3753(3) 0.2379(3)
O1Q O 0.2621(3) 0.5262(3) -0.1247(3)
O1V O 0.6247(3) 0.7379(3) 0.0262(3)
O1M O 0.5262(3) 0.8753(3) 0.2621(3)
O1S O 0.2379(3) 0.4738(3) 0.3753(3)
O1W O 0.3753(3) 0.2379(3) 0.4738(3)
O1T O 0.1247(3) 0.7621(3) -0.0262(3)
O2F O 0.2410(3) 0.6748(3) 0.0925(3)
O2I O 0.4075(3) 0.7590(3) 0.1748(3)
O2O O 0.3252(3) 0.4075(3) 0.2410(3)
O2Q O 0.2590(3) 0.6748(3) -0.0925(3)
O2V O 0.5925(3) 0.7410(3) 0.1748(3)
O2S O 0.2410(3) 0.3252(3) 0.4075(3)
O2W O 0.4075(3) 0.2410(3) 0.3252(3)
O3F O 0.1396(3) 0.5814(3) 0.0120(3)
O3I O 0.4880(3) 0.8604(3) 0.0814(3)
O3O O 0.4186(3) 0.4880(3) 0.1396(3)
O3Q O 0.3604(3) 0.5814(3) -0.0120(3)
O3V O 0.5120(3) 0.6396(3) 0.0814(3)
O3D O 0.3604(3) 0.4186(3) 0.5120(3)
O3H O 0.5120(3) 0.3604(3) 0.4186(3)
C1F C 0.1073(5) 0.6129(5) 0.1712(5)
C1I C 0.3288(5) 0.8927(5) 0.1129(5)
C1O C 0.3871(5) 0.3288(5) 0.1073(5)
C1Q C 0.3927(5) 0.6129(5) -0.1712(5)
C1V C 0.6712(5) 0.6073(5) 0.1129(5)
C2F C 0.0299(6) 0.6468(6) 0.1579(6)
C2I C 0.3421(6) 0.9701(6) 0.1468(6)
C2O C 0.3532(6) 0.3421(6) 0.0299(6)
C2Q C 0.4701(6) 0.6468(6) -0.1579(6)
C2V C 0.6579(6) 0.5299(6) 0.1468(6)
H5F H 0.0144 0.6642 0.1050
H5I H 0.3950 0.9856 0.1642
H5O H 0.3358 0.3950 0.0144
H5Q H 0.4856 0.6642 -0.1050
H5V H 0.6050 0.5144 0.1642
C3F C -0.0240(6) 0.6546(6) 0.2232(7)
C3I C 0.2768(7) 1.0240(6) 0.1546(6)
C3O C 0.3454(6) 0.2768(7) -0.0240(6)
C3Q C 0.5240(6) 0.6546(6) -0.2232(7)
C3V C 0.7232(7) 0.4760(6) 0.1546(6)
H6F H -0.0769 0.6764 0.2145
H6I H 0.2855 1.0769 0.1764
H6O H 0.3236 0.2855 -0.0769
H6Q H 0.5769 0.6764 -0.2145
H6V H 0.7145 0.4231 0.1764
C4F C -0.0003(6) 0.6303(6) 0.3020(6)
C4I C 0.1980(6) 1.0003(6) 0.1303(6)
C4O C 0.3697(6) 0.1980(6) -0.0003(6)
C4Q C 0.5003(6) 0.6303(6) -0.3020(6)
C4V C 0.8020(6) 0.4997(6) 0.1303(6)
H7F H -0.0360 0.6360 0.3472
H7I H 0.1528 1.0360 0.1360
H7O H 0.3640 0.1528 -0.0360
H7Q H 0.5360 0.6360 -0.3472
H7V H 0.8472 0.4640 0.1360
C5F C 0.0761(6) 0.5983(5) 0.3111(5)
C5I C 0.1889(5) 0.9239(6) 0.0983(5)
C5O C 0.4017(5) 0.1889(5) 0.0761(6)
C5Q C 0.4239(6) 0.5983(5) -0.3111(5)
C5V C 0.8111(5) 0.5761(6) 0.0983(5)
H8F H 0.0922 0.5828 0.3644
H8I H 0.1356 0.9078 0.0828
H8O H 0.4172 0.1356 0.0922
H8Q H 0.4078 0.5828 -0.3644
H8V H 0.8644 0.5922 0.0828
O4 O 0.2264(5) 0.7736(5) 0.2736(5)
O5 O 0.4758(4) 0.9758(4) 0.5242(4)
H1? H 0.2727 0.7457 0.2709
H2? H 0.1916 0.7497 0.2411
H3? H 0.5285 0.9776 0.5242
H4? H 0.4557 1.0199 0.5042
loop_
_geom_bond_atom_site_label_1
_geom_bond_atom_site_label_2
_geom_bond_site_symmetry_1
_geom_bond_site_symmetry_2
Dy1 O1 1_555 1_555
Co1 N1 1_555 1_555
P1 O1 1_555 1_555
N1 C1 1_555 1_555
O1 Co1 1_555 1_555
O2 Dy1 1_555 1_555
O3 P1 1_555 1_555
C1 P1 1_555 1_555
C2 C1 1_555 1_555
H5 C2 1_555 1_555
C3 C2 1_555 1_555
H6 C3 1_555 1_555
C4 C3 1_555 1_555
H7 C4 1_555 1_555
C5 N1 1_555 1_555
H8 C5 1_555 1_555
Dy1O O3 1_555 1_555
Dy1N O1Q 1_555 1_555
Dy1M O1V 1_555 1_555
Co1F O2 1_555 1_555
Co1I N1I 1_555 1_555
Co1B N1O 1_555 1_555
Co1D N1Q 1_555 1_555
Co1K N1V 1_555 1_555
P1F O1F 1_555 1_555
P1I O1I 1_555 1_555
P1O O1O 1_555 1_555
P1Q O1Q 1_555 1_555
P1V O1V 1_555 1_555
N1F Co1F 1_555 1_555
N1I C1I 1_555 1_555
N1O C1O 1_555 1_555
N1Q C1Q 1_555 1_555
N1V C1V 1_555 1_555
N1M Co1 1_555 1_555
N1S Co1F 1_555 1_555
N1T Co1I 1_555 1_555
O1F Dy1 1_555 1_555
O1I Dy1 1_555 1_555
O1O Dy1O 1_555 1_555
O1Q Co1D 1_555 1_555
O1V Co1K 1_555 1_555
O1M Co1 1_555 1_555
O1S Dy1O 1_555 1_555
O1W Dy1O 1_555 1_555
O1T Dy1N 1_555 1_555
O2F Dy1 1_555 1_555
O2I Dy1 1_555 1_555
O2O Dy1O 1_555 1_555
O2Q Dy1N 1_555 1_555
O2V Co1 1_555 1_555
O2S Dy1O 1_555 1_555
O2W Dy1O 1_555 1_555
O3F Dy1N 1_555 1_555
O3I Dy1M 1_555 1_555
O3O Dy1 1_555 1_555
O3Q Dy1 1_555 1_555
O3V Dy1 1_555 1_555
O3D Dy1O 1_555 1_555
O3H Dy1O 1_555 1_555
C1F P1F 1_555 1_555
C1I P1I 1_555 1_555
C1O P1O 1_555 1_555
C1Q P1Q 1_555 1_555
C1V P1V 1_555 1_555
C2F C1F 1_555 1_555
C2I C1I 1_555 1_555
C2O C1O 1_555 1_555
C2Q C1Q 1_555 1_555
C2V C1V 1_555 1_555
H5F C2F 1_555 1_555
H5I C2I 1_555 1_555
H5O C2O 1_555 1_555
H5Q C2Q 1_555 1_555
H5V C2V 1_555 1_555
C3F C2F 1_555 1_555
C3I C2I 1_555 1_555
C3O C2O 1_555 1_555
C3Q C2Q 1_555 1_555
C3V C2V 1_555 1_555
H6F C3F 1_555 1_555
H6I C3I 1_555 1_555
H6O C3O 1_555 1_555
H6Q C3Q 1_555 1_555
H6V C3V 1_555 1_555
C4F C3F 1_555 1_555
C4I C3I 1_555 1_555
C4O C3O 1_555 1_555
C4Q C3Q 1_555 1_555
C4V C3V 1_555 1_555
H7F C4F 1_555 1_555
H7I C4I 1_555 1_555
H7O C4O 1_555 1_555
H7Q C4Q 1_555 1_555
H7V C4V 1_555 1_555
C5F N1F 1_555 1_555
C5I N1I 1_555 1_555
C5O N1O 1_555 1_555
C5Q N1Q 1_555 1_555
C5V N1V 1_555 1_555
H8F C5F 1_555 1_555
H8I C5I 1_555 1_555
H8O C5O 1_555 1_555
H8Q C5Q 1_555 1_555
H8V C5V 1_555 1_555
Co1 O2I 1_555 1_555
P1 O2 1_555 1_555
C4 C5 1_555 1_555
Dy1M O1M 1_555 1_555
Dy1M O2V 1_555 1_555
Co1F O1F 1_555 1_555
Co1F O1S 1_555 1_555
Co1F O2O 1_555 1_555
Co1I O1I 1_555 1_555
Co1I O1T 1_555 1_555
Co1I O2F 1_555 1_555
Co1I O2Q 1_555 1_555
Co1B O1O 1_555 1_555
Co1B O2W 1_555 1_555
P1F O2F 1_555 1_555
P1F O3F 1_555 1_555
P1I O2I 1_555 1_555
P1I O3I 1_555 1_555
P1O O2O 1_555 1_555
P1O O3O 1_555 1_555
P1Q O2Q 1_555 1_555
P1Q O3Q 1_555 1_555
P1V O2V 1_555 1_555
P1V O3V 1_555 1_555
N1F C1F 1_555 1_555
C4F C5F 1_555 1_555
C4I C5I 1_555 1_555
C4O C5O 1_555 1_555
C4Q C5Q 1_555 1_555
C4V C5V 1_555 1_555

#END
