
#######################################################################
#
#                 Cambridge Crystallographic Data Centre
#                                CCDC 
#
#######################################################################
#
# If this CIF has been generated from an entry in the Cambridge 
# Structural Database, then it will include bibliographic, chemical, 
# crystal, experimental, refinement or atomic coordinate data resulting 
# from the CCDC's data processing and validation procedures.
#
#######################################################################

data_WIVYAC
_symmetry_cell_setting           cubic
_symmetry_space_group_name_H-M   'I 21 3'
_symmetry_Int_Tables_number      199
_space_group_name_Hall           'I 2b 2c 3'
loop_
_symmetry_equiv_pos_site_id
_symmetry_equiv_pos_as_xyz
1 x,y,z
2 1/2-x,-y,1/2+z
3 -x,1/2+y,1/2-z
4 1/2+x,1/2-y,-z
5 z,x,y
6 1/2+z,1/2-x,-y
7 1/2-z,-x,1/2+y
8 -z,1/2+x,1/2-y
9 y,z,x
10 -y,1/2+z,1/2-x
11 1/2+y,1/2-z,-x
12 1/2-y,-z,1/2+x
13 1/2+x,1/2+y,1/2+z
14 -x,1/2-y,z
15 1/2-x,y,-z
16 x,-y,1/2-z
17 1/2+z,1/2+x,1/2+y
18 z,-x,1/2-y
19 -z,1/2-x,y
20 1/2-z,x,-y
21 1/2+y,1/2+z,1/2+x
22 1/2-y,z,-x
23 y,-z,1/2-x
24 -y,1/2-z,x
_cell_length_a                   16.1079(14)
_cell_length_b                   16.1079(14)
_cell_length_c                   16.1079(14)
_cell_angle_alpha                90
_cell_angle_beta                 90
_cell_angle_gamma                90
_cell_volume                     4179.43
loop_
_atom_site_label
_atom_site_type_symbol
_atom_site_fract_x
_atom_site_fract_y
_atom_site_fract_z
Tb1 Tb 0.37921(2) 0.62079(2) 0.12079(2)
Co1 Co 0.5000 0.7500 0.26747(12)
P1 P 0.40229(14) 0.59359(15) 0.31585(14)
N1 N 0.4111(5) 0.7513(4) 0.3684(5)
O1 O 0.4723(3) 0.6267(4) 0.2617(4)
O2 O 0.3258(4) 0.5918(4) 0.2581(4)
O3 O 0.4186(4) 0.5130(4) 0.3596(4)
C1 C 0.3871(5) 0.6706(5) 0.3901(5)
C2 C 0.3537(5) 0.6559(6) 0.4669(6)
H5 H 0.3379 0.6024 0.4818
C3 C 0.3429(7) 0.7242(6) 0.5252(7)
H6 H 0.3195 0.7162 0.5774
C4 C 0.3702(7) 0.8041(7) 0.4983(7)
H7 H 0.3660 0.8495 0.5337
C5 C 0.4023(6) 0.8138(7) 0.4210(6)
H8 H 0.4188 0.8666 0.4043
Tb1O Tb 0.37921(2) 0.37921(2) 0.37921(2)
Tb1N Tb 0.12079(2) 0.62079(2) -0.12079(2)
Tb1M Tb 0.62079(2) 0.87921(2) 0.12079(2)
Co1F Co 0.23253(12) 0.5000 0.2500
Co1I Co 0.2500 0.76747(12) 0.0000
Co1B Co 0.5000 0.2500 0.23253(12)
Co1D Co 0.26747(12) 0.5000 -0.2500
Co1K Co 0.7500 0.73253(12) 0.0000
P1F P 0.18415(14) 0.59771(14) 0.09359(15)
P1I P 0.40641(15) 0.81585(14) 0.09771(14)
P1O P 0.40229(14) 0.40641(15) 0.18415(14)
P1Q P 0.31585(14) 0.59771(14) -0.09359(15)
P1V P 0.59359(15) 0.68415(14) 0.09771(14)
N1F N 0.1316(5) 0.5889(5) 0.2513(4)
N1I N 0.2487(4) 0.8684(5) 0.0889(5)
N1O N 0.4111(5) 0.2487(4) 0.1316(5)
N1Q N 0.3684(5) 0.5889(5) -0.2513(4)
N1V N 0.7513(4) 0.6316(5) 0.0889(5)
N1M N 0.5889(5) 0.7487(4) 0.3684(5)
N1S N 0.1316(5) 0.4111(5) 0.2487(4)
N1T N 0.2513(4) 0.8684(5) -0.0889(5)
O1F O 0.2383(4) 0.5277(3) 0.1267(4)
O1I O 0.3733(4) 0.7617(4) 0.0277(3)
O1O O 0.4723(3) 0.3733(4) 0.2383(4)
O1Q O 0.2617(4) 0.5277(3) -0.1267(4)
O1V O 0.6267(4) 0.7383(4) 0.0277(3)
O1M O 0.5277(3) 0.8733(4) 0.2617(4)
O1S O 0.2383(4) 0.4723(3) 0.3733(4)
O1W O 0.3733(4) 0.2383(4) 0.4723(3)
O1T O 0.1267(4) 0.7617(4) -0.0277(3)
O2F O 0.2419(4) 0.6742(4) 0.0918(4)
O2I O 0.4082(4) 0.7581(4) 0.1742(4)
O2O O 0.3258(4) 0.4082(4) 0.2419(4)
O2Q O 0.2581(4) 0.6742(4) -0.0918(4)
O2V O 0.5918(4) 0.7419(4) 0.1742(4)
O2S O 0.2419(4) 0.3258(4) 0.4082(4)
O2W O 0.4082(4) 0.2419(4) 0.3258(4)
O3F O 0.1404(4) 0.5814(4) 0.0130(4)
O3I O 0.4870(4) 0.8596(4) 0.0814(4)
O3O O 0.4186(4) 0.4870(4) 0.1404(4)
O3Q O 0.3596(4) 0.5814(4) -0.0130(4)
O3V O 0.5130(4) 0.6404(4) 0.0814(4)
O3D O 0.3596(4) 0.4186(4) 0.5130(4)
O3H O 0.5130(4) 0.3596(4) 0.4186(4)
C1F C 0.1099(5) 0.6129(5) 0.1706(5)
C1I C 0.3294(5) 0.8901(5) 0.1129(5)
C1O C 0.3871(5) 0.3294(5) 0.1099(5)
C1Q C 0.3901(5) 0.6129(5) -0.1706(5)
C1V C 0.6706(5) 0.6099(5) 0.1129(5)
C2F C 0.0331(6) 0.6463(5) 0.1559(6)
C2I C 0.3441(6) 0.9669(6) 0.1463(5)
C2O C 0.3537(5) 0.3441(6) 0.0331(6)
C2Q C 0.4669(6) 0.6463(5) -0.1559(6)
C2V C 0.6559(6) 0.5331(6) 0.1463(5)
H5F H 0.0182 0.6621 0.1024
H5I H 0.3976 0.9818 0.1621
H5O H 0.3379 0.3976 0.0182
H5Q H 0.4818 0.6621 -0.1024
H5V H 0.6024 0.5182 0.1621
C3F C -0.0252(7) 0.6571(7) 0.2242(6)
C3I C 0.2758(6) 1.0252(7) 0.1571(7)
C3O C 0.3429(7) 0.2758(6) -0.0252(7)
C3Q C 0.5252(7) 0.6571(7) -0.2242(6)
C3V C 0.7242(6) 0.4748(7) 0.1571(7)
H6F H -0.0774 0.6805 0.2162
H6I H 0.2838 1.0774 0.1805
H6O H 0.3195 0.2838 -0.0774
H6Q H 0.5774 0.6805 -0.2162
H6V H 0.7162 0.4226 0.1805
C4F C 0.0017(7) 0.6298(7) 0.3041(7)
C4I C 0.1959(7) 0.9983(7) 0.1298(7)
C4O C 0.3702(7) 0.1959(7) 0.0017(7)
C4Q C 0.4983(7) 0.6298(7) -0.3041(7)
C4V C 0.8041(7) 0.5017(7) 0.1298(7)
H7F H -0.0337 0.6340 0.3495
H7I H 0.1505 1.0337 0.1340
H7O H 0.3660 0.1505 -0.0337
H7Q H 0.5337 0.6340 -0.3495
H7V H 0.8495 0.4663 0.1340
C5F C 0.0790(6) 0.5977(6) 0.3138(7)
C5I C 0.1862(7) 0.9210(6) 0.0977(6)
C5O C 0.4023(6) 0.1862(7) 0.0790(6)
C5Q C 0.4210(6) 0.5977(6) -0.3138(7)
C5V C 0.8138(7) 0.5790(6) 0.0977(6)
H8F H 0.0957 0.5812 0.3666
H8I H 0.1334 0.9043 0.0812
H8O H 0.4188 0.1334 0.0957
H8Q H 0.4043 0.5812 -0.3666
H8V H 0.8666 0.5957 0.0812
O4 O 0.2300(4) 0.7700(4) 0.2700(4)
O5 O 0.4765(4) 0.9765(4) 0.5235(4)
H1? H 0.2671 0.7494 0.3012
H2? H 0.2046 0.7360 0.2446
H3? H 0.5282 0.9706 0.5253
H4? H 0.4648 1.0026 0.4780
loop_
_geom_bond_atom_site_label_1
_geom_bond_atom_site_label_2
_geom_bond_site_symmetry_1
_geom_bond_site_symmetry_2
Tb1 O1 1_555 1_555
Co1 N1 1_555 1_555
P1 O1 1_555 1_555
N1 C1 1_555 1_555
O1 Co1 1_555 1_555
O2 Tb1 1_555 1_555
O3 P1 1_555 1_555
C1 P1 1_555 1_555
C2 C1 1_555 1_555
H5 C2 1_555 1_555
C3 C2 1_555 1_555
H6 C3 1_555 1_555
C4 C3 1_555 1_555
H7 C4 1_555 1_555
C5 N1 1_555 1_555
H8 C5 1_555 1_555
Tb1O O3 1_555 1_555
Tb1N O1Q 1_555 1_555
Tb1M O1V 1_555 1_555
Co1F O2 1_555 1_555
Co1I N1I 1_555 1_555
Co1B N1O 1_555 1_555
Co1D N1Q 1_555 1_555
Co1K N1V 1_555 1_555
P1F O1F 1_555 1_555
P1I O1I 1_555 1_555
P1O O1O 1_555 1_555
P1Q O1Q 1_555 1_555
P1V O1V 1_555 1_555
N1F Co1F 1_555 1_555
N1I C1I 1_555 1_555
N1O C1O 1_555 1_555
N1Q C1Q 1_555 1_555
N1V C1V 1_555 1_555
N1M Co1 1_555 1_555
N1S Co1F 1_555 1_555
N1T Co1I 1_555 1_555
O1F Tb1 1_555 1_555
O1I Tb1 1_555 1_555
O1O Tb1O 1_555 1_555
O1Q Co1D 1_555 1_555
O1V Co1K 1_555 1_555
O1M Co1 1_555 1_555
O1S Tb1O 1_555 1_555
O1W Tb1O 1_555 1_555
O1T Tb1N 1_555 1_555
O2F Tb1 1_555 1_555
O2I Tb1 1_555 1_555
O2O Tb1O 1_555 1_555
O2Q Tb1N 1_555 1_555
O2V Co1 1_555 1_555
O2S Tb1O 1_555 1_555
O2W Tb1O 1_555 1_555
O3F Tb1N 1_555 1_555
O3I Tb1M 1_555 1_555
O3O Tb1 1_555 1_555
O3Q Tb1 1_555 1_555
O3V Tb1 1_555 1_555
O3D Tb1O 1_555 1_555
O3H Tb1O 1_555 1_555
C1F P1F 1_555 1_555
C1I P1I 1_555 1_555
C1O P1O 1_555 1_555
C1Q P1Q 1_555 1_555
C1V P1V 1_555 1_555
C2F C1F 1_555 1_555
C2I C1I 1_555 1_555
C2O C1O 1_555 1_555
C2Q C1Q 1_555 1_555
C2V C1V 1_555 1_555
H5F C2F 1_555 1_555
H5I C2I 1_555 1_555
H5O C2O 1_555 1_555
H5Q C2Q 1_555 1_555
H5V C2V 1_555 1_555
C3F C2F 1_555 1_555
C3I C2I 1_555 1_555
C3O C2O 1_555 1_555
C3Q C2Q 1_555 1_555
C3V C2V 1_555 1_555
H6F C3F 1_555 1_555
H6I C3I 1_555 1_555
H6O C3O 1_555 1_555
H6Q C3Q 1_555 1_555
H6V C3V 1_555 1_555
C4F C3F 1_555 1_555
C4I C3I 1_555 1_555
C4O C3O 1_555 1_555
C4Q C3Q 1_555 1_555
C4V C3V 1_555 1_555
H7F C4F 1_555 1_555
H7I C4I 1_555 1_555
H7O C4O 1_555 1_555
H7Q C4Q 1_555 1_555
H7V C4V 1_555 1_555
C5F N1F 1_555 1_555
C5I N1I 1_555 1_555
C5O N1O 1_555 1_555
C5Q N1Q 1_555 1_555
C5V N1V 1_555 1_555
H8F C5F 1_555 1_555
H8I C5I 1_555 1_555
H8O C5O 1_555 1_555
H8Q C5Q 1_555 1_555
H8V C5V 1_555 1_555
Co1 O2I 1_555 1_555
P1 O2 1_555 1_555
C4 C5 1_555 1_555
Tb1M O1M 1_555 1_555
Tb1M O2V 1_555 1_555
Co1F O1F 1_555 1_555
Co1F O1S 1_555 1_555
Co1F O2O 1_555 1_555
Co1I O1I 1_555 1_555
Co1I O1T 1_555 1_555
Co1I O2F 1_555 1_555
Co1I O2Q 1_555 1_555
Co1B O1O 1_555 1_555
Co1B O2W 1_555 1_555
P1F O2F 1_555 1_555
P1F O3F 1_555 1_555
P1I O2I 1_555 1_555
P1I O3I 1_555 1_555
P1O O2O 1_555 1_555
P1O O3O 1_555 1_555
P1Q O2Q 1_555 1_555
P1Q O3Q 1_555 1_555
P1V O2V 1_555 1_555
P1V O3V 1_555 1_555
N1F C1F 1_555 1_555
C4F C5F 1_555 1_555
C4I C5I 1_555 1_555
C4O C5O 1_555 1_555
C4Q C5Q 1_555 1_555
C4V C5V 1_555 1_555

#END
