
#######################################################################
#
#                 Cambridge Crystallographic Data Centre
#                                CCDC 
#
#######################################################################
#
# If this CIF has been generated from an entry in the Cambridge 
# Structural Database, then it will include bibliographic, chemical, 
# crystal, experimental, refinement or atomic coordinate data resulting 
# from the CCDC's data processing and validation procedures.
#
#######################################################################

data_WIWBUA
_symmetry_cell_setting           triclinic
_symmetry_space_group_name_H-M   'P -1'
_symmetry_Int_Tables_number      2
_space_group_name_Hall           '-P 1'
loop_
_symmetry_equiv_pos_site_id
_symmetry_equiv_pos_as_xyz
1 x,y,z
2 -x,-y,-z
_cell_length_a                   7.570(2)
_cell_length_b                   9.225(2)
_cell_length_c                   15.163(3)
_cell_angle_alpha                107.51(3)
_cell_angle_beta                 90.37(3)
_cell_angle_gamma                112.14(3)
_cell_volume                     926.711
loop_
_atom_site_label
_atom_site_type_symbol
_atom_site_fract_x
_atom_site_fract_y
_atom_site_fract_z
Zn1 Zn 0.62504(9) 0.55453(8) 0.69259(4)
C1 C 0.5287(7) 0.2968(7) 0.5041(4)
H1 H 0.6249 0.3830 0.4908
C2 C 0.4453(7) 0.1437(6) 0.4326(4)
H2 H 0.4832 0.1306 0.3734
C3 C 0.3093(7) 0.0160(7) 0.4509(3)
H3 H 0.2537 -0.0867 0.4045
C4 C 0.2510(7) 0.0383(6) 0.5409(3)
C5 C 0.3363(7) 0.1949(6) 0.6081(3)
C6 C 0.2775(8) 0.2247(6) 0.6977(4)
H4 H 0.3329 0.3293 0.7424
C7 C 0.1377(7) 0.0972(6) 0.7177(4)
H5 H 0.0987 0.1161 0.7766
C8 C 0.0525(7) -0.0607(6) 0.6514(4)
C9 C 0.1081(7) -0.0908(6) 0.5647(4)
H6 H 0.0521 -0.1964 0.5210
C10 C -0.1056(7) -0.1933(7) 0.6768(4)
C11 C 0.7183(9) 0.0895(9) 1.1280(4)
H7 H 0.7057 0.0609 1.1822
C12 C 0.7565(10) -0.0157(8) 1.0502(4)
H8 H 0.7688 -0.1108 1.0530
C13 C 0.7753(9) 0.0232(8) 0.9703(4)
H9 H 0.7981 -0.0461 0.9171
C14 C 0.7596(8) 0.1720(7) 0.9693(4)
C15 C 0.7224(8) 0.2680(7) 1.0508(4)
C16 C 0.7015(10) 0.4154(8) 1.0522(4)
H10 H 0.6784 0.4825 1.1063
C17 C 0.7162(10) 0.4563(8) 0.9723(4)
H11 H 0.7013 0.5524 0.9734
C18 C 0.7521(8) 0.3628(7) 0.8902(4)
C19 C 0.7735(8) 0.2202(7) 0.8887(4)
H12 H 0.7974 0.1550 0.8341
C20 C 0.7555(8) 0.4099(7) 0.8029(4)
N1 N 0.4793(6) 0.3267(5) 0.5896(3)
N2 N 0.6991(7) 0.2237(6) 1.1302(3)
O1 O -0.1713(5) -0.3413(4) 0.6199(3)
O2 O -0.1698(6) -0.1563(5) 0.7515(3)
O3 O 0.8196(7) 0.3394(6) 0.7351(3)
O4 O 0.6890(6) 0.5151(5) 0.8047(3)
O5 O 0.4038(5) 0.6225(5) 0.7091(2)
H13 H 0.2948 0.5646 0.6809
H14 H 0.3737 0.6548 0.7609
Zn1_2 Zn -0.37496(9) -0.44547(8) 0.69259(4)
O1_2 O 0.8287(5) 0.6587(4) 0.6199(3)
O2_2 O 0.8302(6) 0.8437(5) 0.7515(3)
O6 O 0.0483(5) 0.4647(5) 0.6135(3)
H15 H -0.0050 0.4456 0.6582
H16 H 0.0002 0.5141 0.5909
loop_
_geom_bond_atom_site_label_1
_geom_bond_atom_site_label_2
_geom_bond_site_symmetry_1
_geom_bond_site_symmetry_2
Zn1 N1 1_555 1_555
C1 H1 1_555 1_555
C2 C1 1_555 1_555
H2 C2 1_555 1_555
C3 C2 1_555 1_555
H3 C3 1_555 1_555
C4 C3 1_555 1_555
C5 C4 1_555 1_555
C6 C5 1_555 1_555
H4 C6 1_555 1_555
C7 C6 1_555 1_555
H5 C7 1_555 1_555
C8 C7 1_555 1_555
C9 C4 1_555 1_555
H6 C9 1_555 1_555
C10 C8 1_555 1_555
C11 H7 1_555 1_555
C12 C11 1_555 1_555
H8 C12 1_555 1_555
C13 C12 1_555 1_555
H9 C13 1_555 1_555
C14 C13 1_555 1_555
C15 C14 1_555 1_555
C16 C15 1_555 1_555
H10 C16 1_555 1_555
C17 C16 1_555 1_555
H11 C17 1_555 1_555
C18 C17 1_555 1_555
C19 C14 1_555 1_555
H12 C19 1_555 1_555
C20 C18 1_555 1_555
N1 C1 1_555 1_555
N2 C11 1_555 1_555
O1 C10 1_555 1_555
O2 C10 1_555 1_555
O3 C20 1_555 1_555
O4 Zn1 1_555 1_555
O5 Zn1 1_555 1_555
H13 O5 1_555 1_555
H14 O5 1_555 1_555
O6 H15 1_555 1_555
H16 O6 1_555 1_555
Zn1_2 O1 1_555 1_555
O1_2 Zn1 1_555 1_555
O2_2 Zn1 1_555 1_555
C5 N1 1_555 1_555
C8 C9 1_555 1_555
C15 N2 1_555 1_555
C18 C19 1_555 1_555
C20 O4 1_555 1_555
O2 Zn1_2 1_555 1_555

#END
