
#######################################################################
#
#                 Cambridge Crystallographic Data Centre
#                                CCDC 
#
#######################################################################
#
# If this CIF has been generated from an entry in the Cambridge 
# Structural Database, then it will include bibliographic, chemical, 
# crystal, experimental, refinement or atomic coordinate data resulting 
# from the CCDC's data processing and validation procedures.
#
#######################################################################

data_WIWKET
_symmetry_cell_setting           monoclinic
_symmetry_space_group_name_H-M   'P 21/c'
_symmetry_Int_Tables_number      14
_space_group_name_Hall           '-P 2ybc'
loop_
_symmetry_equiv_pos_site_id
_symmetry_equiv_pos_as_xyz
1 x,y,z
2 -x,1/2+y,1/2-z
3 -x,-y,-z
4 x,1/2-y,1/2+z
_cell_length_a                   22.5500(4)
_cell_length_b                   18.8168(3)
_cell_length_c                   8.7610(2)
_cell_angle_alpha                90
_cell_angle_beta                 92.6734(9)
_cell_angle_gamma                90
_cell_volume                     3713.41
loop_
_atom_site_label
_atom_site_type_symbol
_atom_site_fract_x
_atom_site_fract_y
_atom_site_fract_z
Ni1 Ni 0.25021(2) 0.45665(3) 0.00789(5)
S1 S 0.13970(8) 0.42054(10) -0.46499(18)
S2 S 0.36029(6) 0.41677(7) 0.48506(14)
N1 N 0.19198(15) 0.53690(17) 0.0778(4)
N2 N 0.04669(17) 0.6923(2) 0.3415(5)
N3 N 0.00593(17) 0.7449(2) 0.3723(5)
N4 N -0.18468(15) 0.87979(18) 0.4340(4)
N5 N 0.31024(14) 0.53700(17) -0.0539(4)
N6 N 0.46128(17) 0.6881(2) -0.3068(4)
N7 N 0.49960(17) 0.7426(2) -0.3393(4)
N8 N 0.68605(14) 0.87935(18) -0.4412(4)
N9 N 0.21232(15) 0.45529(19) -0.2099(4)
N10 N 0.28837(16) 0.44886(19) 0.2247(4)
C1 C 0.1718(2) 0.5871(2) -0.0193(5)
H1 H 0.1852 0.5870 -0.1205
C2 C 0.1323(2) 0.6390(2) 0.0213(5)
H2 H 0.1194 0.6742 -0.0506
C3 C 0.11166(18) 0.6394(2) 0.1674(5)
C4 C 0.13268(19) 0.5877(2) 0.2695(5)
H3 H 0.1199 0.5867 0.3712
C5 C 0.17259(19) 0.5377(2) 0.2206(5)
H4 H 0.1869 0.5025 0.2908
C6 C 0.06799(19) 0.6933(2) 0.2107(5)
H5 H 0.0557 0.7290 0.1395
C7 C -0.0485(2) 0.7311(2) 0.3383(5)
H6 H -0.0593 0.6871 0.2920
C8 C -0.12819(18) 0.8903(2) 0.4855(5)
H7 H -0.1194 0.9316 0.5449
C9 C -0.08247(18) 0.8444(2) 0.4564(5)
H8 H -0.0432 0.8544 0.4943
C10 C -0.09447(19) 0.7834(2) 0.3709(5)
C11 C -0.1528(2) 0.7725(3) 0.3168(7)
H9 H -0.1631 0.7314 0.2584
C12 C -0.1957(2) 0.8225(3) 0.3494(6)
H10 H -0.2350 0.8153 0.3089
C13 C 0.33017(18) 0.5865(2) 0.0443(5)
H11 H 0.3158 0.5865 0.1446
C14 C 0.37100(19) 0.6380(2) 0.0065(5)
H12 H 0.3842 0.6724 0.0797
C15 C 0.39228(17) 0.6386(2) -0.1396(4)
C16 C 0.37075(18) 0.5872(2) -0.2432(5)
H13 H 0.3839 0.5863 -0.3447
C17 C 0.33038(18) 0.5379(2) -0.1968(5)
H14 H 0.3161 0.5031 -0.2679
C18 C 0.43543(18) 0.6931(2) -0.1819(5)
H15 H 0.4439 0.7320 -0.1155
C19 C 0.55451(19) 0.7287(2) -0.3238(5)
H16 H 0.5670 0.6834 -0.2862
C20 C 0.6996(2) 0.8225(3) -0.3570(6)
H17 H 0.7398 0.8160 -0.3224
C21 C 0.6583(2) 0.7720(3) -0.3169(7)
H18 H 0.6703 0.7314 -0.2587
C22 C 0.59914(18) 0.7816(2) -0.3632(5)
C23 C 0.58484(18) 0.8422(2) -0.4485(5)
H19 H 0.5448 0.8515 -0.4804
C24 C 0.62883(17) 0.8884(2) -0.4860(5)
H20 H 0.6183 0.9288 -0.5467
C25 C 0.1835(2) 0.4407(2) -0.3173(5)
C26 C 0.31761(19) 0.4352(2) 0.3339(5)
Ni1A Ni -0.25021(2) 0.95665(3) 0.49211(5)
Ni1A_2 Ni 0.74979(2) 0.95665(3) -0.50789(5)
N4A N 0.18468(15) 0.37979(18) 0.0660(4)
N8A N 0.31395(14) 0.37935(18) -0.0588(4)
O1 O 0.3377(2) 0.6892(2) 0.3792(4)
H21 H 0.323(3) 0.699(4) 0.471(4)
H22 H 0.364(2) 0.653(3) 0.386(8)
O2 O 0.41139(16) 0.5715(2) 0.3726(4)
H23 H 0.4035 0.5322 0.4120
C27 C 0.4733(2) 0.5751(3) 0.3471(7)
H24 H 0.4961 0.5674 0.4450
H25 H 0.4831 0.6232 0.3096
C28 C 0.4917(3) 0.5204(3) 0.2323(7)
H26 H 0.5343 0.5253 0.2162
H27 H 0.4692 0.5278 0.1352
H28 H 0.4837 0.4727 0.2709
O3 O 0.28597(18) 0.7622(2) 0.1417(4)
H29 H 0.3040 0.7354 0.2049
C29 C 0.2353(3) 0.7896(4) 0.2065(6)
H30 H 0.2469 0.8179 0.2984
H31 H 0.2095 0.7502 0.2380
C30 C 0.2022(3) 0.8357(4) 0.0916(8)
H32 H 0.1659 0.8536 0.1356
H33 H 0.1917 0.8077 -0.0001
H34 H 0.2273 0.8758 0.0642
O4 O 0.0298(6) 1.0329(6) 0.2948(13)
H35 H 0.0400 1.0585 0.2220
C31 C -0.0041(4) 0.9836(4) 0.2439(14)
H36 H -0.0308 1.0037 0.1620
H37 H -0.0292 0.9680 0.3274
C32 C 0.0252(4) 0.9211(5) 0.1831(10)
H38 H 0.0648 0.9343 0.1515
H39 H 0.0017 0.9028 0.0949
H40 H 0.0287 0.8844 0.2623
loop_
_geom_bond_atom_site_label_1
_geom_bond_atom_site_label_2
_geom_bond_site_symmetry_1
_geom_bond_site_symmetry_2
Ni1 N1 1_555 1_555
S1 C25 1_555 1_555
S2 C26 1_555 1_555
N1 C1 1_555 1_555
N2 N3 1_555 1_555
N3 C7 1_555 1_555
N4 C8 1_555 1_555
N5 Ni1 1_555 1_555
N6 N7 1_555 1_555
N7 C19 1_555 1_555
N8 C20 1_555 1_555
N9 Ni1 1_555 1_555
N10 Ni1 1_555 1_555
C1 H1 1_555 1_555
C2 C1 1_555 1_555
H2 C2 1_555 1_555
C3 C2 1_555 1_555
C4 C3 1_555 1_555
H3 C4 1_555 1_555
C5 N1 1_555 1_555
H4 C5 1_555 1_555
C6 N2 1_555 1_555
H5 C6 1_555 1_555
C7 H6 1_555 1_555
C8 H7 1_555 1_555
C9 C8 1_555 1_555
H8 C9 1_555 1_555
C10 C7 1_555 1_555
C11 C10 1_555 1_555
H9 C11 1_555 1_555
C12 N4 1_555 1_555
H10 C12 1_555 1_555
C13 N5 1_555 1_555
H11 C13 1_555 1_555
C14 C13 1_555 1_555
H12 C14 1_555 1_555
C15 C14 1_555 1_555
C16 C15 1_555 1_555
H13 C16 1_555 1_555
C17 N5 1_555 1_555
H14 C17 1_555 1_555
C18 N6 1_555 1_555
H15 C18 1_555 1_555
C19 H16 1_555 1_555
C20 H17 1_555 1_555
C21 C20 1_555 1_555
H18 C21 1_555 1_555
C22 C19 1_555 1_555
C23 C22 1_555 1_555
H19 C23 1_555 1_555
C24 N8 1_555 1_555
H20 C24 1_555 1_555
C25 N9 1_555 1_555
C26 N10 1_555 1_555
O1 H21 1_555 1_555
H22 O1 1_555 1_555
O2 H23 1_555 1_555
C27 O2 1_555 1_555
H24 C27 1_555 1_555
H25 C27 1_555 1_555
C28 C27 1_555 1_555
H26 C28 1_555 1_555
H27 C28 1_555 1_555
H28 C28 1_555 1_555
O3 H29 1_555 1_555
C29 O3 1_555 1_555
H30 C29 1_555 1_555
H31 C29 1_555 1_555
C30 C29 1_555 1_555
H32 C30 1_555 1_555
H33 C30 1_555 1_555
H34 C30 1_555 1_555
O4 H35 1_555 1_555
C31 O4 1_555 1_555
H36 C31 1_555 1_555
H37 C31 1_555 1_555
C32 C31 1_555 1_555
H38 C32 1_555 1_555
H39 C32 1_555 1_555
H40 C32 1_555 1_555
Ni1A N4 1_555 1_555
Ni1A_2 N8 1_555 1_555
N4A Ni1 1_555 1_555
N8A Ni1 1_555 1_555
C3 C6 1_555 1_555
C4 C5 1_555 1_555
C9 C10 1_555 1_555
C11 C12 1_555 1_555
C15 C18 1_555 1_555
C16 C17 1_555 1_555
C21 C22 1_555 1_555
C23 C24 1_555 1_555

#END
