
#######################################################################
#
#                 Cambridge Crystallographic Data Centre
#                                CCDC 
#
#######################################################################
#
# If this CIF has been generated from an entry in the Cambridge 
# Structural Database, then it will include bibliographic, chemical, 
# crystal, experimental, refinement or atomic coordinate data resulting 
# from the CCDC's data processing and validation procedures.
#
#######################################################################

data_WIWQID
_symmetry_cell_setting           triclinic
_symmetry_space_group_name_H-M   'P -1'
_symmetry_Int_Tables_number      2
_space_group_name_Hall           '-P 1'
loop_
_symmetry_equiv_pos_site_id
_symmetry_equiv_pos_as_xyz
1 x,y,z
2 -x,-y,-z
_cell_length_a                   12.5120(5)
_cell_length_b                   13.2800(5)
_cell_length_c                   19.8050(7)
_cell_angle_alpha                95.6900(10)
_cell_angle_beta                 101.2070(10)
_cell_angle_gamma                91.5290(10)
_cell_volume                     3208.57
loop_
_atom_site_label
_atom_site_type_symbol
_atom_site_fract_x
_atom_site_fract_y
_atom_site_fract_z
Cu1 Cu 0.59834(7) -0.23698(6) 0.86350(4)
Cu2 Cu 0.05208(10) 0.27719(9) 0.33536(5)
Mo5 Mo 1.03154(4) 0.12391(4) 0.86922(2)
Mo6 Mo 1.10547(4) -0.22085(4) 1.01499(3)
Mo7 Mo 0.87237(4) -0.05592(4) 0.94472(2)
Mo8 Mo 1.14162(5) -0.11005(4) 0.86759(3)
C1 C 0.6388(6) -0.5010(5) 0.9502(4)
H1 H 0.6200 -0.5678 0.9549
C2 C 0.7237(5) -0.3542(4) 0.9613(3)
H2 H 0.7763 -0.3017 0.9763
C3 C 0.5822(6) -0.4396(5) 0.9070(4)
H3 H 0.5162 -0.4576 0.8769
C4 C 0.4325(5) -0.1489(5) 0.7713(3)
H4 H 0.3902 -0.2091 0.7610
C5 C 0.5639(5) -0.0385(4) 0.8128(3)
H5 H 0.6301 -0.0089 0.8374
C6 C 0.4870(5) 0.0097(5) 0.7713(3)
H6 H 0.4901 0.0770 0.7622
C7 C 0.3040(5) -0.0464(5) 0.6945(3)
H7 H 0.2616 0.0048 0.7140
H8 H 0.2597 -0.1092 0.6837
C8 C 0.3322(5) -0.0141(5) 0.6293(3)
H9 H 0.3715 -0.0674 0.6090
H10 H 0.3808 0.0459 0.6411
C9 C 0.2349(4) 0.0086(5) 0.5756(3)
H11 H 0.1882 -0.0521 0.5606
H12 H 0.1930 0.0598 0.5956
C10 C 0.2731(5) 0.0456(5) 0.5152(3)
H13 H 0.3253 0.1023 0.5316
H14 H 0.3106 -0.0080 0.4938
C11 C 0.1819(6) 0.1649(4) 0.4349(3)
H15 H 0.2353 0.2169 0.4488
C12 C 0.0405(6) 0.0786(7) 0.3836(4)
H16 H -0.0249 0.0589 0.3533
C13 C 0.0930(5) 0.0228(6) 0.4304(3)
H17 H 0.0712 -0.0413 0.4392
C14 C 1.0187(6) -0.5179(6) 1.2969(3)
H18 H 1.0892 -0.4929 1.3168
C15 C 0.9373(6) -0.4627(5) 1.2661(3)
H19 H 0.9413 -0.3942 1.2602
C16 C 0.8783(6) -0.6179(5) 1.2634(3)
H20 H 0.8321 -0.6757 1.2551
C17 C 0.7382(5) -0.5046(5) 1.2086(3)
H21 H 0.7058 -0.4569 1.2382
H22 H 0.6917 -0.5660 1.1981
C18 C 0.7453(5) -0.4594(5) 1.1415(3)
H23 H 0.6731 -0.4412 1.1197
H24 H 0.7916 -0.3979 1.1524
C19 C 0.7898(5) -0.5308(4) 1.0914(3)
H25 H 0.7353 -0.5848 1.0726
H26 H 0.8533 -0.5611 1.1164
C20 C 0.8219(5) -0.4818(5) 1.0321(3)
H27 H 0.8737 -0.4255 1.0507
H28 H 0.8581 -0.5307 1.0057
N1 N 0.6359(4) -0.3479(4) 0.9142(3)
N2 N 0.7292(4) -0.4449(3) 0.9856(2)
N3 N 0.5296(4) -0.1373(4) 0.8133(2)
N4 N 0.4038(4) -0.0612(4) 0.7457(2)
N5 N 0.1844(4) 0.0777(4) 0.4627(2)
N6 N 0.0970(5) 0.1696(5) 0.3864(3)
N7 N 0.9812(5) -0.6159(5) 1.2943(3)
N8 N 0.8482(4) -0.5282(4) 1.2455(2)
O1 O 0.7647(3) -0.1373(3) 0.9091(2)
O2 O 0.9436(3) -0.0288(3) 0.87889(18)
O3 O 0.9944(4) 0.1034(4) 0.78215(19)
O4 O 0.9000(3) 0.1745(3) 0.89132(17)
O5 O 1.1117(3) 0.2312(3) 0.8842(2)
O6 O 1.2330(3) -0.2651(3) 1.0252(2)
O7 O 1.0232(3) -0.3265(3) 1.0045(2)
O8 O 0.9580(3) -0.1150(3) 1.01257(17)
O9 O 1.0795(3) -0.1961(3) 0.91805(18)
O10 O 1.2724(5) -0.1416(4) 0.8772(4)
O11 O 1.0846(6) -0.1405(4) 0.7828(2)
O12 O 0.8218(3) 0.0557(3) 0.9789(2)
O13 O 1.1498(3) 0.0296(3) 0.88476(19)
Cu1_2 Cu -0.40166(7) 0.76302(6) -0.13650(4)
Cu1_3 Cu 1.59834(7) -1.23698(6) 1.86350(4)
Cu2_2 Cu 1.05208(10) -0.72281(9) 1.33536(5)
Mo5A Mo 0.96846(4) -0.12391(4) 1.13078(2)
Mo6A Mo 0.89453(4) 0.22085(4) 0.98501(3)
Mo7_2 Mo -0.12763(4) 0.94408(4) -0.05528(2)
Mo7A Mo 1.12763(4) 0.05592(4) 1.05528(2)
Mo8A Mo 0.85838(5) 0.11005(4) 1.13241(3)
C1_2 C -0.3612(6) 0.4990(5) -0.0498(4)
H1_2 H -0.3800 0.4322 -0.0451
C2_2 C -0.2763(5) 0.6458(4) -0.0387(3)
H2_2 H -0.2237 0.6983 -0.0237
C3_2 C -0.4178(6) 0.5604(5) -0.0930(4)
H3_2 H -0.4838 0.5424 -0.1231
C4_2 C 1.4325(5) -1.1489(5) 1.7713(3)
H4_2 H 1.3902 -1.2091 1.7610
C5_2 C 1.5639(5) -1.0385(4) 1.8128(3)
H5_2 H 1.6301 -1.0089 1.8374
C6_2 C 1.4870(5) -0.9903(5) 1.7713(3)
H6_2 H 1.4901 -0.9230 1.7622
C7_2 C 1.3040(5) -1.0464(5) 1.6945(3)
H7_2 H 1.2616 -0.9952 1.7140
H8_2 H 1.2597 -1.1092 1.6837
C8_2 C 1.3322(5) -1.0141(5) 1.6293(3)
H9_2 H 1.3715 -1.0674 1.6090
H10_2 H 1.3808 -0.9541 1.6411
C9_2 C 1.2349(4) -0.9914(5) 1.5756(3)
H11_2 H 1.1882 -1.0521 1.5606
H12_2 H 1.1930 -0.9402 1.5956
C10_2 C 1.2731(5) -0.9544(5) 1.5152(3)
H13_2 H 1.3253 -0.8977 1.5316
H14_2 H 1.3106 -1.0080 1.4938
C11_2 C 1.1819(6) -0.8351(4) 1.4349(3)
H15_2 H 1.2353 -0.7831 1.4488
C12_2 C 1.0405(6) -0.9214(7) 1.3836(4)
H16_2 H 0.9751 -0.9411 1.3533
C13_2 C 1.0930(5) -0.9772(6) 1.4304(3)
H17_2 H 1.0712 -1.0413 1.4392
C14_2 C 0.0187(6) 0.4821(6) 0.2969(3)
H18_2 H 0.0892 0.5071 0.3168
C15_2 C -0.0627(6) 0.5373(5) 0.2661(3)
H19_2 H -0.0587 0.6058 0.2602
C16_2 C -0.1217(6) 0.3821(5) 0.2634(3)
H20_2 H -0.1679 0.3243 0.2551
C17_2 C -0.2618(5) 0.4954(5) 0.2086(3)
H21_2 H -0.2942 0.5431 0.2382
H22_2 H -0.3083 0.4340 0.1981
C18_2 C -0.2547(5) 0.5406(5) 0.1415(3)
H23_2 H -0.3269 0.5588 0.1197
H24_2 H -0.2084 0.6021 0.1524
C19_2 C -0.2102(5) 0.4692(4) 0.0914(3)
H25_2 H -0.2647 0.4152 0.0726
H26_2 H -0.1467 0.4389 0.1164
C20_2 C -0.1781(5) 0.5182(5) 0.0321(3)
H27_2 H -0.1263 0.5745 0.0507
H28_2 H -0.1419 0.4693 0.0057
N1_2 N -0.3641(4) 0.6521(4) -0.0858(3)
N2_2 N -0.2708(4) 0.5551(3) -0.0144(2)
N3_2 N 1.5296(4) -1.1373(4) 1.8133(2)
N3_3 N -0.4704(4) 0.8627(4) -0.1867(2)
N4_2 N 1.4038(4) -1.0612(4) 1.7457(2)
N5_2 N 1.1844(4) -0.9223(4) 1.4627(2)
N6_2 N 1.0970(5) -0.8304(5) 1.3864(3)
N7_2 N -0.0188(5) 0.3841(5) 0.2943(3)
N8_2 N -0.1518(4) 0.4718(4) 0.2455(2)
O1_2 O -0.2353(3) 0.8627(3) -0.0909(2)
O2A O 1.0564(3) 0.0288(3) 1.12111(18)
O2_2 O -0.0564(3) 0.9712(3) -0.12111(18)
O3A O 1.0056(4) -0.1034(4) 1.21785(19)
O4A O 1.1000(3) -0.1745(3) 1.10868(17)
O5A O 0.8883(3) -0.2312(3) 1.1158(2)
O6A O 0.7670(3) 0.2651(3) 0.9748(2)
O7A O 0.9768(3) 0.3265(3) 0.9955(2)
O8A O 1.0420(3) 0.1150(3) 0.98743(17)
O8_2 O -0.0420(3) 0.8850(3) 0.01257(17)
O9A O 0.9205(3) 0.1961(3) 1.08195(18)
O10A O 0.7276(5) 0.1416(4) 1.1228(4)
O11A O 0.9154(6) 0.1405(4) 1.2172(2)
O12A O 1.1782(3) -0.0557(3) 1.0211(2)
O12_2 O -0.1782(3) 1.0557(3) -0.0211(2)
O13A O 0.8502(3) -0.0296(3) 1.11524(19)
Cu3 Cu 0.26206(6) 0.23520(6) 0.73047(5)
C31 C 0.5133(5) 0.2364(5) 0.8908(3)
H43 H 0.5842 0.2532 0.9145
C32 C 0.4672(5) 0.2654(5) 0.8296(3)
H44 H 0.5003 0.3069 0.8037
C33 C 0.3499(6) 0.1724(5) 0.8627(4)
H45 H 0.2859 0.1362 0.8642
C34 C 0.4498(8) 0.1269(6) 0.9756(4)
H46 H 0.4957 0.1692 1.0136
H47 H 0.3785 0.1182 0.9872
C35 C 0.4969(7) 0.0283(6) 0.9681(3)
H48 H 0.5698 0.0375 0.9590
H49 H 0.4534 -0.0125 0.9285
C36 C 0.0399(5) 0.2135(5) 0.6509(3)
H50 H 0.0142 0.1715 0.6798
C37 C -0.0214(5) 0.2502(5) 0.5959(4)
H51 H -0.0964 0.2401 0.5808
C38 C 0.1460(5) 0.3023(5) 0.6058(4)
H52 H 0.2075 0.3355 0.5972
C39 C 0.0186(7) 0.3611(6) 0.5068(4)
H53 H -0.0500 0.3333 0.4785
H54 H 0.0744 0.3539 0.4791
C40 C 0.0085(9) 0.4690(6) 0.5285(4)
H55 H -0.0521 0.4758 0.5523
H56 H 0.0743 0.4940 0.5611
N9 N 0.0472(4) 0.3044(4) 0.5670(3)
N10 N 0.1473(4) 0.2481(4) 0.6576(3)
N11 N 0.3629(4) 0.2236(4) 0.8114(3)
N12 N 0.4387(5) 0.1783(4) 0.9122(3)
Cu3A Cu -0.26206(6) 0.76480(6) 0.26953(5)
Cu3A_2 Cu 0.73794(6) -0.23520(6) 1.26953(5)
C31A C 0.4867(5) -0.2364(5) 1.1092(3)
H43A H 0.4158 -0.2532 1.0855
C32A C 0.5328(5) -0.2654(5) 1.1704(3)
H44A H 0.4997 -0.3069 1.1963
C33A C 0.6501(6) -0.1724(5) 1.1373(4)
H45A H 0.7141 -0.1362 1.1358
C34A C 0.5502(8) -0.1269(6) 1.0244(4)
H46A H 0.5043 -0.1692 0.9864
H47A H 0.6215 -0.1182 1.0128
C35A C 0.5031(7) -0.0283(6) 1.0319(3)
H48A H 0.4302 -0.0375 1.0410
H49A H 0.5466 0.0125 1.0715
C36A C -0.0399(5) 0.7865(5) 0.3491(3)
H50A H -0.0142 0.8285 0.3202
C37A C 0.0214(5) 0.7498(5) 0.4041(4)
H51A H 0.0964 0.7599 0.4192
C38A C -0.1460(5) 0.6977(5) 0.3942(4)
H52A H -0.2075 0.6645 0.4028
C39A C -0.0186(7) 0.6389(6) 0.4932(4)
H53A H 0.0500 0.6667 0.5215
H54A H -0.0744 0.6461 0.5209
C40A C -0.0085(9) 0.5310(6) 0.4715(4)
H55A H 0.0521 0.5242 0.4477
H56A H -0.0743 0.5060 0.4389
N9A N -0.0472(4) 0.6956(4) 0.4330(3)
N10A N -0.1473(4) 0.7519(4) 0.3424(3)
N11A N 0.6371(4) -0.2236(4) 1.1886(3)
N11A_2 N -0.3629(4) 0.7764(4) 0.1886(3)
N12A N 0.5613(5) -0.1783(4) 1.0878(3)
Cu4 Cu 0.75847(6) 0.75204(5) 0.75046(4)
C21 C 0.6276(5) 0.8804(5) 0.6580(3)
H29 H 0.5749 0.8300 0.6377
C22 C 0.6293(4) 0.9764(4) 0.6417(3)
H30 H 0.5784 1.0046 0.6090
C23 C 0.7704(5) 0.9572(4) 0.7226(3)
H31 H 0.8346 0.9707 0.7554
C24 C 0.7568(5) 1.1306(4) 0.6849(3)
H32 H 0.7243 1.1549 0.6413
H33 H 0.8353 1.1345 0.6887
C25 C 0.7285(5) 1.2002(4) 0.7430(3)
H34 H 0.6499 1.2051 0.7354
H35 H 0.7514 1.1710 0.7862
C26 C 0.7800(5) 1.3033(4) 0.7495(3)
H36 H 0.7537 1.3342 0.7074
H37 H 0.8583 1.2983 0.7545
C27 C 0.7567(5) 1.3707(4) 0.8102(3)
H38 H 0.6786 1.3679 0.8084
H39 H 0.7912 1.3440 0.8525
C28 C 0.8836(5) 1.5242(4) 0.8571(3)
H40 H 0.9332 1.4956 0.8903
C29 C 0.8856(5) 1.6201(5) 0.8422(3)
H41 H 0.9382 1.6700 0.8637
C30 C 0.7445(5) 1.5460(4) 0.7752(3)
H42 H 0.6804 1.5337 0.7422
N13 N 0.7213(4) 1.0247(4) 0.6830(2)
N14 N 0.7161(4) 0.8691(3) 0.7094(2)
N15 N 0.7938(4) 1.4762(3) 0.8134(2)
N16 N 0.7991(4) 1.6343(3) 0.7907(2)
Cu4_2 Cu 0.75847(6) -0.24796(5) 0.75046(4)
Cu4_3 Cu 0.75847(6) 1.75204(5) 0.75046(4)
C21_2 C 0.6276(5) -0.1196(5) 0.6580(3)
H29_2 H 0.5749 -0.1700 0.6377
C22_2 C 0.6293(4) -0.0236(4) 0.6417(3)
H30_2 H 0.5784 0.0046 0.6090
C23_2 C 0.7704(5) -0.0428(4) 0.7226(3)
H31_2 H 0.8346 -0.0293 0.7554
C24_2 C 0.7568(5) 0.1306(4) 0.6849(3)
H32_2 H 0.7243 0.1549 0.6413
H33_2 H 0.8353 0.1345 0.6887
C25_2 C 0.7285(5) 0.2002(4) 0.7430(3)
H34_2 H 0.6499 0.2051 0.7354
H35_2 H 0.7514 0.1710 0.7862
C26_2 C 0.7800(5) 0.3033(4) 0.7495(3)
H36_2 H 0.7537 0.3342 0.7074
H37_2 H 0.8583 0.2983 0.7545
C27_2 C 0.7567(5) 0.3707(4) 0.8102(3)
H38_2 H 0.6786 0.3679 0.8084
H39_2 H 0.7912 0.3440 0.8525
C28_2 C 0.8836(5) 0.5242(4) 0.8571(3)
H40_2 H 0.9332 0.4956 0.8903
C29_2 C 0.8856(5) 0.6201(5) 0.8422(3)
H41_2 H 0.9382 0.6700 0.8637
C30_2 C 0.7445(5) 0.5460(4) 0.7752(3)
H42_2 H 0.6804 0.5337 0.7422
N13_2 N 0.7213(4) 0.0247(4) 0.6830(2)
N14_2 N 0.7161(4) -0.1309(3) 0.7094(2)
N15_2 N 0.7938(4) 0.4762(3) 0.8134(2)
N16_2 N 0.7991(4) 0.6343(3) 0.7907(2)
N16_3 N 0.7991(4) -0.3657(3) 0.7907(2)
Mo1 Mo 0.37189(5) 0.60296(4) 0.62143(3)
Mo2 Mo 0.63308(4) 0.55524(4) 0.55025(2)
Mo3 Mo 0.46711(4) 0.37093(4) 0.63234(2)
Mo4 Mo 0.40424(4) 0.73716(4) 0.49040(3)
O14 O 0.5230(3) 0.4076(3) 0.71654(19)
O15 O 0.3967(3) 0.2610(3) 0.6349(2)
O16 O 0.4263(5) 0.6299(3) 0.7063(2)
O17 O 0.5401(3) 0.5279(3) 0.60426(19)
O18 O 0.3494(3) 0.4587(3) 0.61569(18)
O19 O 0.2416(4) 0.6391(4) 0.6133(3)
O20 O 0.7538(3) 0.6026(3) 0.5993(2)
O21 O 0.5786(3) 0.6457(3) 0.49420(18)
O22 O 0.3462(3) 0.5597(3) 0.49916(18)
O23 O 0.5927(3) 0.3253(3) 0.59956(18)
O24 O 0.4763(3) 0.8478(3) 0.4935(2)
O25 O 0.2719(3) 0.7710(3) 0.4801(2)
O26 O 0.4381(3) 0.7113(3) 0.58407(18)
Mo1A Mo 0.62811(5) 0.39704(4) 0.37857(3)
Mo2A Mo 0.36692(4) 0.44476(4) 0.44975(2)
Mo3A Mo 0.53289(4) 0.62907(4) 0.36766(2)
Mo4A Mo 0.59576(4) 0.26284(4) 0.50960(3)
O14A O 0.4770(3) 0.5924(3) 0.28346(19)
O15A O 0.6033(3) 0.7390(3) 0.3651(2)
O16A O 0.5737(5) 0.3701(3) 0.2937(2)
O17A O 0.4599(3) 0.4721(3) 0.39574(19)
O18A O 0.6506(3) 0.5413(3) 0.38431(18)
O19A O 0.7584(4) 0.3609(4) 0.3867(3)
O20A O 0.2462(3) 0.3974(3) 0.4007(2)
O21A O 0.4214(3) 0.3543(3) 0.50580(18)
O22A O 0.6538(3) 0.4403(3) 0.50084(18)
O23A O 0.4073(3) 0.6747(3) 0.40044(18)
O24A O 0.5237(3) 0.1522(3) 0.5065(2)
O25A O 0.7281(3) 0.2290(3) 0.5199(2)
O26A O 0.5619(3) 0.2887(3) 0.41593(18)
loop_
_geom_bond_atom_site_label_1
_geom_bond_atom_site_label_2
_geom_bond_site_symmetry_1
_geom_bond_site_symmetry_2
Cu1 N1 1_555 1_555
Cu2 N6 1_555 1_555
Cu3 N10 1_555 1_555
Cu4 N14 1_555 1_555
Mo1 O16 1_555 1_555
Mo2 O17 1_555 1_555
Mo3 O14 1_555 1_555
Mo4 O21 1_555 1_555
Mo5 O2 1_555 1_555
Mo6 O6 1_555 1_555
Mo7 O1 1_555 1_555
Mo8 O9 1_555 1_555
C1 H1 1_555 1_555
C2 H2 1_555 1_555
C3 C1 1_555 1_555
H3 C3 1_555 1_555
C4 H4 1_555 1_555
C5 H5 1_555 1_555
C6 C5 1_555 1_555
H6 C6 1_555 1_555
C7 H7 1_555 1_555
H8 C7 1_555 1_555
C8 C7 1_555 1_555
H9 C8 1_555 1_555
H10 C8 1_555 1_555
C9 C8 1_555 1_555
H11 C9 1_555 1_555
H12 C9 1_555 1_555
C10 C9 1_555 1_555
H13 C10 1_555 1_555
H14 C10 1_555 1_555
C11 H15 1_555 1_555
C12 H16 1_555 1_555
C13 C12 1_555 1_555
H17 C13 1_555 1_555
C14 H18 1_555 1_555
C15 C14 1_555 1_555
H19 C15 1_555 1_555
C16 H20 1_555 1_555
C17 H21 1_555 1_555
H22 C17 1_555 1_555
C18 C17 1_555 1_555
H23 C18 1_555 1_555
H24 C18 1_555 1_555
C19 C18 1_555 1_555
H25 C19 1_555 1_555
H26 C19 1_555 1_555
C20 C19 1_555 1_555
H27 C20 1_555 1_555
H28 C20 1_555 1_555
C21 H29 1_555 1_555
C22 C21 1_555 1_555
H30 C22 1_555 1_555
C23 H31 1_555 1_555
C24 H32 1_555 1_555
H33 C24 1_555 1_555
C25 C24 1_555 1_555
H34 C25 1_555 1_555
H35 C25 1_555 1_555
C26 C25 1_555 1_555
H36 C26 1_555 1_555
H37 C26 1_555 1_555
C27 C26 1_555 1_555
H38 C27 1_555 1_555
H39 C27 1_555 1_555
C28 H40 1_555 1_555
C29 C28 1_555 1_555
H41 C29 1_555 1_555
C30 H42 1_555 1_555
C31 H43 1_555 1_555
C32 C31 1_555 1_555
H44 C32 1_555 1_555
C33 H45 1_555 1_555
C34 H46 1_555 1_555
H47 C34 1_555 1_555
C35 C34 1_555 1_555
H48 C35 1_555 1_555
H49 C35 1_555 1_555
C36 H50 1_555 1_555
C37 C36 1_555 1_555
H51 C37 1_555 1_555
C38 H52 1_555 1_555
C39 H53 1_555 1_555
H54 C39 1_555 1_555
C40 C39 1_555 1_555
H55 C40 1_555 1_555
H56 C40 1_555 1_555
N1 C2 1_555 1_555
N2 C1 1_555 1_555
N3 Cu1 1_555 1_555
N4 C4 1_555 1_555
N5 C10 1_555 1_555
N6 C11 1_555 1_555
N7 C14 1_555 1_555
N8 C15 1_555 1_555
N9 C37 1_555 1_555
N10 C36 1_555 1_555
N11 Cu3 1_555 1_555
N12 C31 1_555 1_555
N13 C22 1_555 1_555
N14 C21 1_555 1_555
N15 C27 1_555 1_555
N16 C29 1_555 1_555
O1 Cu1 1_555 1_555
O2 Mo7 1_555 1_555
O3 Mo5 1_555 1_555
O4 Mo5 1_555 1_555
O5 Mo5 1_555 1_555
O7 Mo6 1_555 1_555
O8 Mo6 1_555 1_555
O9 Mo6 1_555 1_555
O10 Mo8 1_555 1_555
O11 Mo8 1_555 1_555
O12 Mo7 1_555 1_555
O13 Mo5 1_555 1_555
O15 Mo3 1_555 1_555
O17 Mo1 1_555 1_555
O18 Mo1 1_555 1_555
O19 Mo1 1_555 1_555
O20 Mo2 1_555 1_555
O21 Mo2 1_555 1_555
O22 Mo1 1_555 1_555
O23 Mo3 1_555 1_555
O24 Mo4 1_555 1_555
O25 Mo4 1_555 1_555
O26 Mo1 1_555 1_555
Cu1_2 N1_2 1_555 1_555
Cu1_3 N3_2 1_555 1_555
Cu2_2 N7 1_555 1_555
Cu3A N10A 1_555 1_555
Cu3A_2 N11A 1_555 1_555
Cu4_2 N14_2 1_555 1_555
Cu4_3 N16 1_555 1_555
Mo1A O16A 1_555 1_555
Mo2A O22 1_555 1_555
Mo3A O21 1_555 1_555
Mo4A O23 1_555 1_555
Mo5A O8 1_555 1_555
Mo6A O4 1_555 1_555
Mo7_2 O1_2 1_555 1_555
Mo7A O2A 1_555 1_555
Mo8A O9A 1_555 1_555
C1_2 H1_2 1_555 1_555
C2_2 H2_2 1_555 1_555
C3_2 C1_2 1_555 1_555
H3_2 C3_2 1_555 1_555
C4_2 H4_2 1_555 1_555
C5_2 H5_2 1_555 1_555
C6_2 C5_2 1_555 1_555
H6_2 C6_2 1_555 1_555
C7_2 H7_2 1_555 1_555
H8_2 C7_2 1_555 1_555
C8_2 C7_2 1_555 1_555
H9_2 C8_2 1_555 1_555
H10_2 C8_2 1_555 1_555
C9_2 C8_2 1_555 1_555
H11_2 C9_2 1_555 1_555
H12_2 C9_2 1_555 1_555
C10_2 C9_2 1_555 1_555
H13_2 C10_2 1_555 1_555
H14_2 C10_2 1_555 1_555
C11_2 H15_2 1_555 1_555
C12_2 H16_2 1_555 1_555
C13_2 C12_2 1_555 1_555
H17_2 C13_2 1_555 1_555
C14_2 H18_2 1_555 1_555
C15_2 C14_2 1_555 1_555
H19_2 C15_2 1_555 1_555
C16_2 H20_2 1_555 1_555
C17_2 H21_2 1_555 1_555
H22_2 C17_2 1_555 1_555
C18_2 C17_2 1_555 1_555
H23_2 C18_2 1_555 1_555
H24_2 C18_2 1_555 1_555
C19_2 C18_2 1_555 1_555
H25_2 C19_2 1_555 1_555
H26_2 C19_2 1_555 1_555
C20_2 C19_2 1_555 1_555
H27_2 C20_2 1_555 1_555
H28_2 C20_2 1_555 1_555
C21_2 H29_2 1_555 1_555
C22_2 C21_2 1_555 1_555
H30_2 C22_2 1_555 1_555
C23_2 H31_2 1_555 1_555
C24_2 H32_2 1_555 1_555
H33_2 C24_2 1_555 1_555
C25_2 C24_2 1_555 1_555
H34_2 C25_2 1_555 1_555
H35_2 C25_2 1_555 1_555
C26_2 C25_2 1_555 1_555
H36_2 C26_2 1_555 1_555
H37_2 C26_2 1_555 1_555
C27_2 C26_2 1_555 1_555
H38_2 C27_2 1_555 1_555
H39_2 C27_2 1_555 1_555
C28_2 H40_2 1_555 1_555
C29_2 C28_2 1_555 1_555
H41_2 C29_2 1_555 1_555
C30_2 H42_2 1_555 1_555
C31A H43A 1_555 1_555
C32A C31A 1_555 1_555
H44A C32A 1_555 1_555
C33A H45A 1_555 1_555
C34A H46A 1_555 1_555
H47A C34A 1_555 1_555
C35A C35 1_555 1_555
H48A C35A 1_555 1_555
H49A C35A 1_555 1_555
C36A H50A 1_555 1_555
C37A C36A 1_555 1_555
H51A C37A 1_555 1_555
C38A H52A 1_555 1_555
C39A H53A 1_555 1_555
H54A C39A 1_555 1_555
C40A C40 1_555 1_555
H55A C40A 1_555 1_555
H56A C40A 1_555 1_555
N1_2 C2_2 1_555 1_555
N2_2 C1_2 1_555 1_555
N3_2 C4_2 1_555 1_555
N3_3 Cu1_2 1_555 1_555
N4_2 C4_2 1_555 1_555
N5_2 C10_2 1_555 1_555
N6_2 Cu2_2 1_555 1_555
N7_2 Cu2 1_555 1_555
N8_2 C15_2 1_555 1_555
N9A C37A 1_555 1_555
N10A C36A 1_555 1_555
N11A C32A 1_555 1_555
N11A_2 Cu3A 1_555 1_555
N12A C31A 1_555 1_555
N13_2 C22_2 1_555 1_555
N14_2 C21_2 1_555 1_555
N15_2 C27_2 1_555 1_555
N16_2 Cu4 1_555 1_555
N16_3 Cu4_2 1_555 1_555
O1_2 Cu1_2 1_555 1_555
O2A Mo5A 1_555 1_555
O2_2 Mo7_2 1_555 1_555
O3A Mo5A 1_555 1_555
O4A Mo6 1_555 1_555
O5A Mo5A 1_555 1_555
O6A Mo6A 1_555 1_555
O7A Mo6A 1_555 1_555
O8A Mo5 1_555 1_555
O8_2 Mo7_2 1_555 1_555
O9A Mo6A 1_555 1_555
O10A Mo8A 1_555 1_555
O11A Mo8A 1_555 1_555
O12A Mo6 1_555 1_555
O12_2 Mo7_2 1_555 1_555
O13A Mo5A 1_555 1_555
O14A Mo3A 1_555 1_555
O15A Mo3A 1_555 1_555
O17A Mo1A 1_555 1_555
O18A Mo1A 1_555 1_555
O19A Mo1A 1_555 1_555
O20A Mo2A 1_555 1_555
O21A Mo3 1_555 1_555
O22A Mo2 1_555 1_555
O23A Mo4 1_555 1_555
O24A Mo4A 1_555 1_555
O25A Mo4A 1_555 1_555
O26A Mo1A 1_555 1_555
Mo3 O17 1_555 1_555
Mo3 O18 1_555 1_555
Mo4 O22 1_555 1_555
Mo4 O26 1_555 1_555
Mo7 O8 1_555 1_555
Mo8 O13 1_555 1_555
C2 N2 1_555 1_555
C3 N1 1_555 1_555
C4 N3 1_555 1_555
C5 N3 1_555 1_555
C6 N4 1_555 1_555
C7 N4 1_555 1_555
C11 N5 1_555 1_555
C12 N6 1_555 1_555
C13 N5 1_555 1_555
C16 N7 1_555 1_555
C16 N8 1_555 1_555
C17 N8 1_555 1_555
C20 N2 1_555 1_555
C23 N13 1_555 1_555
C23 N14 1_555 1_555
C24 N13 1_555 1_555
C28 N15 1_555 1_555
C30 N15 1_555 1_555
C30 N16 1_555 1_555
C32 N11 1_555 1_555
C33 N11 1_555 1_555
C33 N12 1_555 1_555
C34 N12 1_555 1_555
C38 N9 1_555 1_555
C38 N10 1_555 1_555
C39 N9 1_555 1_555
O12 Mo6A 1_555 1_555
Mo1A O22A 1_555 1_555
Mo2A O17A 1_555 1_555
Mo2A O21A 1_555 1_555
Mo3A O17A 1_555 1_555
Mo3A O18A 1_555 1_555
Mo3A O23A 1_555 1_555
Mo4A O21A 1_555 1_555
Mo4A O22A 1_555 1_555
Mo4A O26A 1_555 1_555
Mo5A O4A 1_555 1_555
Mo6A O8A 1_555 1_555
Mo7A O8A 1_555 1_555
Mo7A O12A 1_555 1_555
Mo8A O13A 1_555 1_555
C2_2 N2_2 1_555 1_555
C3_2 N1_2 1_555 1_555
C5_2 N3_2 1_555 1_555
C6_2 N4_2 1_555 1_555
C7_2 N4_2 1_555 1_555
C11_2 N5_2 1_555 1_555
C11_2 N6_2 1_555 1_555
C12_2 N6_2 1_555 1_555
C13_2 N5_2 1_555 1_555
C14_2 N7_2 1_555 1_555
C16_2 N7_2 1_555 1_555
C16_2 N8_2 1_555 1_555
C17_2 N8_2 1_555 1_555
C20_2 N2_2 1_555 1_555
C23_2 N13_2 1_555 1_555
C23_2 N14_2 1_555 1_555
C24_2 N13_2 1_555 1_555
C28_2 N15_2 1_555 1_555
C29_2 N16_2 1_555 1_555
C30_2 N15_2 1_555 1_555
C30_2 N16_2 1_555 1_555
C33A N11A 1_555 1_555
C33A N12A 1_555 1_555
C34A C35A 1_555 1_555
C34A N12A 1_555 1_555
C38A N9A 1_555 1_555
C38A N10A 1_555 1_555
C39A C40A 1_555 1_555
C39A N9A 1_555 1_555

#END
