
#######################################################################
#
#                 Cambridge Crystallographic Data Centre
#                                CCDC 
#
#######################################################################
#
# If this CIF has been generated from an entry in the Cambridge 
# Structural Database, then it will include bibliographic, chemical, 
# crystal, experimental, refinement or atomic coordinate data resulting 
# from the CCDC's data processing and validation procedures.
#
#######################################################################

data_WIWXUX
_symmetry_cell_setting           monoclinic
_symmetry_space_group_name_H-M   'P n'
_symmetry_Int_Tables_number      7
_space_group_name_Hall           'P -2yac'
loop_
_symmetry_equiv_pos_site_id
_symmetry_equiv_pos_as_xyz
1 x,y,z
2 1/2+x,-y,1/2+z
_cell_length_a                   16.2408(4)
_cell_length_b                   6.7669(2)
_cell_length_c                   31.6169(8)
_cell_angle_alpha                90
_cell_angle_beta                 91.857(3)
_cell_angle_gamma                90
_cell_volume                     3472.87
loop_
_atom_site_label
_atom_site_type_symbol
_atom_site_fract_x
_atom_site_fract_y
_atom_site_fract_z
Ag1 Ag 0.34535(2) 0.49231(5) 0.234849(11)
Ag2 Ag 0.372136(19) 0.47105(6) 0.140751(11)
Ag3 Ag 0.38849(2) 0.98575(6) 0.233972(12)
Ag4 Ag 0.31884(2) 0.97434(6) 0.142948(11)
O1 O 0.3917(2) 0.2216(5) 0.28395(11)
O2 O 0.3028(3) -0.0207(6) 0.43955(12)
O3 O 0.4449(2) 0.2984(5) 0.19273(11)
O4 O 0.7698(2) 0.4778(6) 0.21400(14)
O5 O 0.3510(2) 0.7063(5) 0.09206(11)
O6 O 0.2209(2) 0.5008(5) -0.06275(12)
O7 O 0.26909(18) 0.2957(5) 0.18578(10)
O8 O -0.0560(2) 0.4860(6) 0.16905(14)
O9 O 0.2682(2) 0.7989(5) 0.19969(11)
O10 O -0.0411(2) 0.9733(6) 0.24936(14)
O11 O 0.3558(2) 0.7167(5) 0.28777(11)
O12 O 0.4583(2) 0.4910(5) 0.44585(12)
O13 O 0.4370(2) 0.7951(5) 0.17940(11)
O14 O 0.7523(2) 0.9596(6) 0.13642(14)
O15 O 0.3184(2) 1.2073(5) 0.09210(11)
O16 O 0.3947(2) 1.0024(5) -0.06791(12)
N1 N 0.3672(3) 0.1596(6) 0.32206(13)
N2 N 0.5250(2) 0.3456(6) 0.19876(13)
N3 N 0.3195(3) 0.6520(6) 0.05357(13)
N4 N 0.1889(2) 0.3470(6) 0.18069(13)
N5 N 0.1911(2) 0.8477(6) 0.21105(14)
N6 N 0.3803(3) 0.6535(6) 0.32638(13)
N7 N 0.5144(2) 0.8407(6) 0.16757(13)
N8 N 0.3392(2) 1.1516(6) 0.05302(13)
C1 C 0.2867(3) 0.1431(7) 0.33013(16)
H1 H 0.2467 0.1765 0.3087
C2 C 0.2615(3) 0.0792(7) 0.36851(16)
H2 H 0.2045 0.0625 0.3733
C3 C 0.3192(3) 0.0390(7) 0.40025(17)
C4 C 0.4022(3) 0.0601(8) 0.39202(18)
H3 H 0.4428 0.0332 0.4136
C5 C 0.4254(3) 0.1199(7) 0.35257(16)
H4 H 0.4821 0.1335 0.3467
C6 C 0.2155(4) -0.0480(9) 0.44838(18)
H5 H 0.1931 -0.1572 0.4312
H6 H 0.1851 0.0736 0.4414
H7 H 0.2098 -0.0784 0.4784
C7 C 0.5570(3) 0.3578(7) 0.23828(15)
H8 H 0.5226 0.3358 0.2615
C8 C 0.6392(3) 0.4018(7) 0.24580(16)
H9 H 0.6610 0.4109 0.2740
C9 C 0.6898(3) 0.4328(8) 0.21159(17)
C10 C 0.6541(3) 0.4216(8) 0.17046(17)
H10 H 0.6867 0.4434 0.1465
C11 C 0.5719(3) 0.3790(7) 0.16523(16)
H11 H 0.5477 0.3731 0.1375
C12 C 0.8089(3) 0.4882(9) 0.2552(2)
H12 H 0.8674 0.5193 0.2525
H13 H 0.8033 0.3608 0.2695
H14 H 0.7826 0.5917 0.2717
C13 C 0.3715(3) 0.6092(7) 0.02280(16)
H15 H 0.4292 0.6135 0.0287
C14 C 0.3421(3) 0.5585(7) -0.01775(15)
H16 H 0.3789 0.5303 -0.0397
C15 C 0.2571(3) 0.5506(7) -0.02503(16)
C16 C 0.2048(3) 0.5900(7) 0.00791(16)
H17 H 0.1468 0.5821 0.0034
C17 C 0.2377(3) 0.6403(7) 0.04695(17)
H18 H 0.2022 0.6672 0.0695
C18 C 0.2747(3) 0.4631(8) -0.09736(17)
H19 H 0.2416 0.4304 -0.1229
H20 H 0.3113 0.3522 -0.0901
H21 H 0.3078 0.5812 -0.1026
C19 C 0.1547(3) 0.3570(7) 0.14179(16)
H22 H 0.1873 0.3304 0.1181
C20 C 0.0727(3) 0.4052(7) 0.13547(16)
H23 H 0.0489 0.4139 0.1077
C21 C 0.0256(3) 0.4408(7) 0.17068(17)
C22 C 0.0623(3) 0.4282(8) 0.21029(16)
H24 H 0.0307 0.4511 0.2346
C23 C 0.1442(3) 0.3826(7) 0.21497(16)
H25 H 0.1695 0.3761 0.2424
C24 C -0.0970(4) 0.4907(9) 0.1277(2)
H26 H -0.0742 0.5984 0.1110
H27 H -0.1561 0.5124 0.1310
H28 H -0.0884 0.3646 0.1133
C25 C 0.1745(3) 0.8522(7) 0.25250(16)
H29 H 0.2166 0.8237 0.2731
C26 C 0.0970(3) 0.8976(8) 0.26476(17)
H30 H 0.0858 0.9038 0.2940
C27 C 0.0341(3) 0.9350(8) 0.23490(17)
C28 C 0.0534(3) 0.9305(8) 0.19223(17)
H31 H 0.0122 0.9569 0.1709
C29 C 0.1331(3) 0.8872(7) 0.18145(16)
H32 H 0.1468 0.8855 0.1525
C30 C -0.1078(3) 0.9973(8) 0.21927(19)
H33 H -0.1123 0.8794 0.2013
H34 H -0.0977 1.1134 0.2016
H35 H -0.1592 1.0156 0.2342
C31 C 0.4627(3) 0.6393(7) 0.33712(16)
H36 H 0.5027 0.6671 0.3167
C32 C 0.4871(3) 0.5847(7) 0.37753(16)
H37 H 0.5441 0.5762 0.3850
C33 C 0.4291(3) 0.5422(7) 0.40747(15)
C34 C 0.3456(3) 0.5585(7) 0.39549(15)
H38 H 0.3044 0.5309 0.4153
C35 C 0.3237(3) 0.6143(7) 0.35520(16)
H39 H 0.2669 0.6258 0.3474
C36 C 0.3997(3) 0.4546(9) 0.47787(15)
H40 H 0.3630 0.3467 0.4688
H41 H 0.3672 0.5744 0.4824
H42 H 0.4288 0.4179 0.5043
C37 C 0.5319(3) 0.8453(7) 0.12635(16)
H43 H 0.4897 0.8192 0.1056
C38 C 0.6112(3) 0.8879(7) 0.11367(17)
H44 H 0.6234 0.8924 0.0845
C39 C 0.6726(3) 0.9239(7) 0.14465(17)
C40 C 0.6524(3) 0.9206(8) 0.18678(17)
H45 H 0.6932 0.9477 0.2082
C41 C 0.5734(3) 0.8784(7) 0.19760(17)
H46 H 0.5598 0.8755 0.2266
C42 C 0.7755(3) 0.9581(8) 0.09290(18)
H47 H 0.7435 1.0579 0.0771
H48 H 0.7644 0.8273 0.0807
H49 H 0.8343 0.9881 0.0913
C43 C 0.2802(3) 1.1103(7) 0.02430(15)
H50 H 0.2243 1.1160 0.0322
C44 C 0.2978(3) 1.0596(8) -0.01653(15)
H51 H 0.2549 1.0327 -0.0368
C45 C 0.3812(3) 1.0487(7) -0.02752(16)
C46 C 0.4419(3) 1.0873(7) 0.00323(16)
H52 H 0.4984 1.0791 -0.0034
C47 C 0.4198(3) 1.1372(7) 0.04313(17)
H53 H 0.4613 1.1622 0.0643
C48 C 0.4777(3) 0.9903(9) -0.08097(18)
H54 H 0.4782 0.9574 -0.1111
H55 H 0.5068 0.8875 -0.0646
H56 H 0.5051 1.1178 -0.0761
Ag2_2 Ag 0.372136(19) 1.47105(6) 0.140751(11)
Ag3_2 Ag 0.38849(2) -0.01425(6) 0.233972(12)
Ag4_2 Ag 0.31884(2) -0.02566(6) 0.142948(11)
O1_2 O 0.3917(2) 1.2216(5) 0.28395(11)
O3_2 O 0.4449(2) 1.2984(5) 0.19273(11)
O7_2 O 0.26909(18) 1.2957(5) 0.18578(10)
O15_2 O 0.3184(2) 0.2073(5) 0.09210(11)
O17 O 0.1281(3) 0.4169(7) 0.31165(12)
O18 O 0.1078(2) 0.3387(6) 0.38561(11)
F1 F -0.0451(2) 0.3309(6) 0.33223(14)
F2 F -0.0461(2) 0.5532(7) 0.37940(14)
F3 F -0.0314(2) 0.6321(6) 0.31429(13)
S1 S 0.09965(7) 0.48006(18) 0.35217(4)
C49 C -0.0117(3) 0.4997(9) 0.3439(2)
O19 O 0.1237(2) 0.6797(6) 0.36282(13)
F4 F 0.6149(2) 0.9999(6) 0.38852(12)
F5 F 0.7434(2) 1.0378(6) 0.37758(12)
F6 F 0.6553(2) 1.2507(5) 0.35326(12)
S2 S 0.65581(7) 0.91700(19) 0.31106(4)
C50 C 0.6683(3) 1.0569(9) 0.36027(18)
O20 O 0.6604(2) 0.7159(6) 0.32487(12)
O21 O 0.7227(3) 0.9836(6) 0.28591(14)
O22 O 0.5754(2) 0.9768(5) 0.29611(12)
F7 F 0.68669(18) 0.5232(5) -0.02405(9)
F8 F 0.55467(19) 0.4922(5) -0.02623(9)
F9 F 0.6106(2) 0.7410(5) 0.00509(10)
S3 S 0.62355(7) 0.40952(16) 0.04747(4)
C51 C 0.6188(3) 0.5496(7) -0.00215(14)
O23 O 0.6977(2) 0.4767(5) 0.06840(11)
O24 O 0.62429(19) 0.2066(5) 0.03371(10)
O25 O 0.5480(2) 0.4705(5) 0.06704(11)
F10 F 0.0792(3) 1.0241(6) -0.00973(12)
F11 F -0.0489(2) 1.0462(6) 0.00334(13)
F12 F 0.0352(2) 1.2648(5) 0.02763(12)
S4 S 0.04346(7) 0.92882(19) 0.06804(4)
C52 C 0.0263(4) 1.0731(9) 0.01990(17)
O26 O 0.1269(2) 0.9850(5) 0.08124(12)
O27 O 0.0351(2) 0.7263(6) 0.05418(13)
O28 O -0.0189(2) 0.9988(6) 0.09555(14)
loop_
_geom_bond_atom_site_label_1
_geom_bond_atom_site_label_2
_geom_bond_site_symmetry_1
_geom_bond_site_symmetry_2
Ag1 O1 1_555 1_555
Ag2 O3 1_555 1_555
Ag3 O9 1_555 1_555
Ag4 O5 1_555 1_555
O1 N1 1_555 1_555
O2 C3 1_555 1_555
O3 Ag1 1_555 1_555
O4 C9 1_555 1_555
O5 Ag2 1_555 1_555
O6 C15 1_555 1_555
O7 Ag1 1_555 1_555
O8 C21 1_555 1_555
O9 Ag1 1_555 1_555
O10 C27 1_555 1_555
O11 Ag1 1_555 1_555
O12 C33 1_555 1_555
O13 Ag2 1_555 1_555
O14 C39 1_555 1_555
O15 Ag4 1_555 1_555
O16 C45 1_555 1_555
N1 C1 1_555 1_555
N2 O3 1_555 1_555
N3 O5 1_555 1_555
N4 O7 1_555 1_555
N5 O9 1_555 1_555
N6 O11 1_555 1_555
N7 O13 1_555 1_555
N8 O15 1_555 1_555
C1 H1 1_555 1_555
C2 C1 1_555 1_555
H2 C2 1_555 1_555
C3 C2 1_555 1_555
C4 C3 1_555 1_555
H3 C4 1_555 1_555
C5 N1 1_555 1_555
H4 C5 1_555 1_555
C6 O2 1_555 1_555
H5 C6 1_555 1_555
H6 C6 1_555 1_555
H7 C6 1_555 1_555
C7 N2 1_555 1_555
H8 C7 1_555 1_555
C8 C7 1_555 1_555
H9 C8 1_555 1_555
C9 C8 1_555 1_555
C10 C9 1_555 1_555
H10 C10 1_555 1_555
C11 N2 1_555 1_555
H11 C11 1_555 1_555
C12 O4 1_555 1_555
H12 C12 1_555 1_555
H13 C12 1_555 1_555
H14 C12 1_555 1_555
C13 N3 1_555 1_555
H15 C13 1_555 1_555
C14 C13 1_555 1_555
H16 C14 1_555 1_555
C15 C14 1_555 1_555
C16 C15 1_555 1_555
H17 C16 1_555 1_555
C17 N3 1_555 1_555
H18 C17 1_555 1_555
C18 O6 1_555 1_555
H19 C18 1_555 1_555
H20 C18 1_555 1_555
H21 C18 1_555 1_555
C19 N4 1_555 1_555
H22 C19 1_555 1_555
C20 C19 1_555 1_555
H23 C20 1_555 1_555
C21 C20 1_555 1_555
C22 C21 1_555 1_555
H24 C22 1_555 1_555
C23 N4 1_555 1_555
H25 C23 1_555 1_555
C24 O8 1_555 1_555
H26 C24 1_555 1_555
H27 C24 1_555 1_555
H28 C24 1_555 1_555
C25 N5 1_555 1_555
H29 C25 1_555 1_555
C26 C25 1_555 1_555
H30 C26 1_555 1_555
C27 C26 1_555 1_555
C28 C27 1_555 1_555
H31 C28 1_555 1_555
C29 N5 1_555 1_555
H32 C29 1_555 1_555
C30 O10 1_555 1_555
H33 C30 1_555 1_555
H34 C30 1_555 1_555
H35 C30 1_555 1_555
C31 N6 1_555 1_555
H36 C31 1_555 1_555
C32 C31 1_555 1_555
H37 C32 1_555 1_555
C33 C32 1_555 1_555
C34 C33 1_555 1_555
H38 C34 1_555 1_555
C35 N6 1_555 1_555
H39 C35 1_555 1_555
C36 O12 1_555 1_555
H40 C36 1_555 1_555
H41 C36 1_555 1_555
H42 C36 1_555 1_555
C37 N7 1_555 1_555
H43 C37 1_555 1_555
C38 C37 1_555 1_555
H44 C38 1_555 1_555
C39 C38 1_555 1_555
C40 C39 1_555 1_555
H45 C40 1_555 1_555
C41 N7 1_555 1_555
H46 C41 1_555 1_555
C42 O14 1_555 1_555
H47 C42 1_555 1_555
H48 C42 1_555 1_555
H49 C42 1_555 1_555
C43 N8 1_555 1_555
H50 C43 1_555 1_555
C44 C43 1_555 1_555
H51 C44 1_555 1_555
C45 C44 1_555 1_555
C46 C45 1_555 1_555
H52 C46 1_555 1_555
C47 N8 1_555 1_555
H53 C47 1_555 1_555
C48 O16 1_555 1_555
H54 C48 1_555 1_555
H55 C48 1_555 1_555
H56 C48 1_555 1_555
O17 S1 1_555 1_555
O18 S1 1_555 1_555
F1 C49 1_555 1_555
F2 C49 1_555 1_555
F3 C49 1_555 1_555
S1 C49 1_555 1_555
O19 S1 1_555 1_555
F4 C50 1_555 1_555
F5 C50 1_555 1_555
F6 C50 1_555 1_555
S2 C50 1_555 1_555
O20 S2 1_555 1_555
O21 S2 1_555 1_555
O22 S2 1_555 1_555
F7 C51 1_555 1_555
F8 C51 1_555 1_555
F9 C51 1_555 1_555
S3 C51 1_555 1_555
O23 S3 1_555 1_555
O24 S3 1_555 1_555
O25 S3 1_555 1_555
F10 C52 1_555 1_555
F11 C52 1_555 1_555
F12 C52 1_555 1_555
S4 C52 1_555 1_555
O26 S4 1_555 1_555
O27 S4 1_555 1_555
O28 S4 1_555 1_555
Ag2_2 O15 1_555 1_555
Ag3_2 O1 1_555 1_555
Ag4_2 O7 1_555 1_555
O1_2 Ag3 1_555 1_555
O3_2 Ag3 1_555 1_555
O7_2 Ag4 1_555 1_555
O15_2 Ag2 1_555 1_555
Ag2 O7 1_555 1_555
Ag3 O11 1_555 1_555
Ag3 O13 1_555 1_555
Ag4 O9 1_555 1_555
Ag4 O13 1_555 1_555
O3 Ag3_2 1_555 1_555
C4 C5 1_555 1_555
C10 C11 1_555 1_555
C16 C17 1_555 1_555
C22 C23 1_555 1_555
C28 C29 1_555 1_555
C34 C35 1_555 1_555
C40 C41 1_555 1_555
C46 C47 1_555 1_555
Ag2_2 O3_2 1_555 1_555
Ag2_2 O7_2 1_555 1_555
Ag4_2 O15_2 1_555 1_555

#END
