
#######################################################################
#
#                 Cambridge Crystallographic Data Centre
#                                CCDC 
#
#######################################################################
#
# If this CIF has been generated from an entry in the Cambridge 
# Structural Database, then it will include bibliographic, chemical, 
# crystal, experimental, refinement or atomic coordinate data resulting 
# from the CCDC's data processing and validation procedures.
#
#######################################################################

data_WIXJIW01
_symmetry_cell_setting           trigonal
_symmetry_space_group_name_H-M   'P 32 2 1'
_symmetry_Int_Tables_number      154
_space_group_name_Hall           'P 32 2"'
loop_
_symmetry_equiv_pos_site_id
_symmetry_equiv_pos_as_xyz
1 x,y,z
2 -y,x-y,2/3+z
3 y,x,-z
4 -x+y,-x,1/3+z
5 -x,-x+y,2/3-z
6 x-y,-y,1/3-z
_cell_length_a                   9.865
_cell_length_b                   9.865
_cell_length_c                   44.179
_cell_angle_alpha                90
_cell_angle_beta                 90
_cell_angle_gamma                120
_cell_volume                     3723.41
loop_
_atom_site_label
_atom_site_type_symbol
_atom_site_fract_x
_atom_site_fract_y
_atom_site_fract_z
Zn1 Zn 0.00000 -0.15425 0.33333
Zn2 Zn -0.04848 -0.04848 0.50000
O1 O -0.0436 -0.3498 0.29870
O2 O 0.1472 -0.1110 0.29628
O3 O -0.2219 -0.1150 0.47146
O4 O -0.0588 0.1093 0.44814
N1 N 0.8418 -0.1538 0.18678
N2 N -0.1546 -0.1014 0.31162
C1 C 0.0735 -0.2492 0.28570
C2 C 0.1275 -0.2840 0.25669
C3 C 0.0638 -0.4366 0.24641
C4 C 0.1150 -0.4684 0.21982
C5 C 0.2292 -0.3491 0.20252
C6 C 0.2927 -0.1982 0.21295
C7 C 0.2438 -0.1652 0.23994
C8 C 0.2773 -0.3820 0.17268
C9 C 0.4192 -0.3556 0.16506
C10 C 0.5562 -0.3014 0.18414
C11 C 0.5522 -0.3486 0.21373
C12 C 0.6910 -0.3010 0.22906
C13 C 0.8337 -0.2046 0.21534
C14 C 0.7040 -0.2043 0.17200
C15 C -0.1844 -0.0124 0.44991
C16 C -0.3083 -0.0597 0.42567
C17 C -0.4492 -0.1986 0.42602
C18 C -0.5498 -0.2420 0.40150
C19 C -0.5108 -0.1482 0.37590
C20 C -0.3776 -0.0044 0.37656
C21 C -0.2726 0.0436 0.40145
C22 C -0.6116 -0.2025 0.34935
C23 C -0.5670 -0.1890 0.32010
C24 C -0.4066 -0.1214 0.30840
C25 C -0.3578 -0.0276 0.28285
C26 C -0.2060 0.0334 0.27286
C27 C -0.1070 -0.0050 0.28740
C28 C -0.3006 -0.1566 0.32150
O1D O 0.0436 -0.3062 0.36797
O2D O -0.1472 -0.2582 0.37039
N1D N -0.8418 -0.9956 0.47989
C1D C -0.0735 -0.3227 0.38097
C2D C -0.1275 -0.4115 0.40998
C3D C -0.0638 -0.5004 0.42026
C4D C -0.1150 -0.5834 0.44685
C5D C -0.2292 -0.5783 0.46415
C6D C -0.2927 -0.4909 0.45372
C7D C -0.2438 -0.4090 0.42673
C8D C -0.2773 -0.6593 0.49399
C9D C -0.4192 -0.7748 0.50161
C10D C -0.5562 -0.8576 0.48253
C11D C -0.5522 -0.9008 0.45294
C12D C -0.6910 -0.9920 0.43761
C13D C -0.8337 -1.0383 0.45133
C14D C -0.7040 -0.9083 0.49467
O3D O 0.2219 0.1069 0.19521
O4D O 0.0588 0.1681 0.21853
N2D N 0.1546 0.0532 0.35505
C15D C 0.1844 0.1720 0.21676
C16D C 0.3083 0.2486 0.24100
C17D C 0.4492 0.2506 0.24065
C18D C 0.5498 0.3078 0.26517
C19D C 0.5108 0.3626 0.29077
C20D C 0.3776 0.3732 0.29011
C21D C 0.2726 0.3162 0.26522
C22D C 0.6116 0.4091 0.31732
C23D C 0.5670 0.3780 0.34657
C24D C 0.4066 0.2852 0.35827
C25D C 0.3578 0.3302 0.38382
C26D C 0.2060 0.2394 0.39381
C27D C 0.1070 0.1020 0.37927
C28D C 0.3006 0.1440 0.34517
O3B O -0.1150 -0.2219 0.52854
N1C N 0.0044 0.1582 0.52011
N1D_2 N 0.1582 0.0044 0.47989
Zn2A Zn 1.04848 0.00000 0.16667
Zn2_2 Zn -1.04848 -1.04848 0.50000
Zn2A_2 Zn 0.04848 0.00000 0.16667
O5 O -0.6392 0.00000 0.66670
loop_
_geom_bond_atom_site_label_1
_geom_bond_atom_site_label_2
_geom_bond_site_symmetry_1
_geom_bond_site_symmetry_2
Zn1 O1 1_555 1_555
Zn2 O3 1_555 1_555
O1 C1 1_555 1_555
O2 Zn1 1_555 1_555
O3 C15 1_555 1_555
O4 C15 1_555 1_555
N1 C13 1_555 1_555
N2 Zn1 1_555 1_555
C1 O2 1_555 1_555
C2 C1 1_555 1_555
C3 C2 1_555 1_555
C4 C3 1_555 1_555
C5 C4 1_555 1_555
C6 C5 1_555 1_555
C7 C2 1_555 1_555
C8 C5 1_555 1_555
C9 C8 1_555 1_555
C10 C9 1_555 1_555
C11 C10 1_555 1_555
C12 C11 1_555 1_555
C13 C12 1_555 1_555
C14 N1 1_555 1_555
C15 C16 1_555 1_555
C16 C17 1_555 1_555
C17 C18 1_555 1_555
C18 C19 1_555 1_555
C19 C20 1_555 1_555
C20 C21 1_555 1_555
C21 C16 1_555 1_555
C22 C19 1_555 1_555
C23 C22 1_555 1_555
C24 C23 1_555 1_555
C25 C24 1_555 1_555
C26 C25 1_555 1_555
C27 N2 1_555 1_555
C28 N2 1_555 1_555
O1D Zn1 1_555 1_555
O2D Zn1 1_555 1_555
N1D C13D 1_555 1_555
C1D O1D 1_555 1_555
C2D C1D 1_555 1_555
C3D C2D 1_555 1_555
C4D C3D 1_555 1_555
C5D C4D 1_555 1_555
C6D C5D 1_555 1_555
C7D C2D 1_555 1_555
C8D C5D 1_555 1_555
C9D C8D 1_555 1_555
C10D C9D 1_555 1_555
C11D C10D 1_555 1_555
C12D C11D 1_555 1_555
C13D C12D 1_555 1_555
C14D N1D 1_555 1_555
O3D C15D 1_555 1_555
O4D C15D 1_555 1_555
N2D Zn1 1_555 1_555
C15D C16D 1_555 1_555
C16D C17D 1_555 1_555
C17D C18D 1_555 1_555
C18D C19D 1_555 1_555
C19D C20D 1_555 1_555
C20D C21D 1_555 1_555
C21D C16D 1_555 1_555
C22D C19D 1_555 1_555
C23D C22D 1_555 1_555
C24D C23D 1_555 1_555
C25D C24D 1_555 1_555
C26D C25D 1_555 1_555
C27D N2D 1_555 1_555
C28D N2D 1_555 1_555
O3B Zn2 1_555 1_555
N1C Zn2 1_555 1_555
N1D_2 Zn2 1_555 1_555
Zn2A N1 1_555 1_555
Zn2_2 N1D 1_555 1_555
Zn2A_2 O3D 1_555 1_555
C6 C7 1_555 1_555
C10 C14 1_555 1_555
C24 C28 1_555 1_555
C26 C27 1_555 1_555
O2D C1D 1_555 1_555
C6D C7D 1_555 1_555
C10D C14D 1_555 1_555
C24D C28D 1_555 1_555
C26D C27D 1_555 1_555

#END
