
#######################################################################
#
#                 Cambridge Crystallographic Data Centre
#                                CCDC 
#
#######################################################################
#
# If this CIF has been generated from an entry in the Cambridge 
# Structural Database, then it will include bibliographic, chemical, 
# crystal, experimental, refinement or atomic coordinate data resulting 
# from the CCDC's data processing and validation procedures.
#
#######################################################################

data_WIYKIZ
_symmetry_cell_setting           monoclinic
_symmetry_space_group_name_H-M   'C 2/c'
_symmetry_Int_Tables_number      15
_space_group_name_Hall           '-C 2yn'
loop_
_symmetry_equiv_pos_site_id
_symmetry_equiv_pos_as_xyz
1 x,y,z
2 1/2+x,1/2+y,z
3 -x,y,1/2-z
4 1/2-x,1/2+y,1/2-z
5 -x,-y,-z
6 1/2-x,1/2-y,-z
7 x,-y,1/2+z
8 1/2+x,1/2-y,1/2+z
_cell_length_a                   16.3279(6)
_cell_length_b                   13.6071(5)
_cell_length_c                   18.8434(6)
_cell_angle_alpha                90
_cell_angle_beta                 112.182(2)
_cell_angle_gamma                90
_cell_volume                     3876.69
loop_
_atom_site_label
_atom_site_type_symbol
_atom_site_fract_x
_atom_site_fract_y
_atom_site_fract_z
C1 C -0.1164(8) 0.8655(9) 0.2335(7)
C2 C -0.1803(8) 0.7799(9) 0.2232(7)
H1 H -0.1973 0.7568 0.1703
C3 C -0.1359(10) 0.6953(10) 0.2745(9)
H2 H -0.1133 0.7169 0.3275
H3 H -0.0862 0.6729 0.2625
C4 C -0.2008(10) 0.6101(9) 0.2644(9)
H4 H -0.2164 0.5824 0.2135
H5 H -0.1721 0.5590 0.3014
C5 C -0.2824(10) 0.6422(10) 0.2747(8)
H6 H -0.2675 0.6625 0.3274
H7 H -0.3229 0.5870 0.2648
C6 C -0.2643(8) 0.8129(9) 0.2324(7)
H8 H -0.2924 0.8640 0.1953
H9 H -0.2497 0.8404 0.2832
C7 C -0.3286(9) 0.7275(9) 0.2211(6)
H10 H -0.3770 0.7503 0.2358
C8 C -0.3690(8) 0.6902(9) 0.1398(7)
C9 C -0.2371(11) 0.4547(12) 0.4843(8)
C10 C -0.1411(11) 0.4833(11) 0.5201(9)
H11 H -0.1140 0.4323 0.4994
C11 C -0.0975(15) 0.4648(13) 0.6029(11)
H12 H -0.0355 0.4501 0.6155
H13 H -0.1246 0.4085 0.6170
C12 C -0.1062(19) 0.5564(12) 0.6484(12)
H14 H -0.0739 0.5454 0.7027
H15 H -0.1680 0.5665 0.6402
C13 C -0.0697(18) 0.6494(14) 0.6230(10)
H16 H -0.0821 0.7065 0.6482
H17 H -0.0060 0.6437 0.6393
C14 C -0.1167(17) 0.5718(11) 0.4889(10)
H18 H -0.1608 0.5839 0.4381
H19 H -0.0605 0.5606 0.4837
C15 C -0.109(2) 0.6642(11) 0.5391(11)
H20 H -0.1710 0.6746 0.5314
C16 C -0.0881(13) 0.7583(11) 0.5125(9)
O1 O -0.0896(7) 0.8754(7) 0.1795(5)
O2 O -0.0954(6) 0.9230(6) 0.2893(5)
O3 O -0.4142(7) 0.6151(7) 0.1248(5)
O4 O -0.3568(7) 0.7414(8) 0.0878(5)
O5 O -0.2606(7) 0.3812(8) 0.5108(7)
O6 O -0.2857(7) 0.5054(9) 0.4311(7)
O7 O -0.0577(7) 0.7685(7) 0.4623(6)
O8 O -0.1150(8) 0.8307(7) 0.5404(7)
O9 O 0.0399(5) 0.9547(5) 0.4510(4)
Pb1 Pb -0.10576(3) 0.95308(3) 0.43431(3)
Pb2 Pb -0.05390(4) 1.03607(4) 0.14618(3)
Pb3 Pb -0.10179(3) 0.80137(3) 0.04432(3)
O2B O 0.0954(6) 0.9230(6) 0.2107(5)
O3C O -0.0858(7) 1.1151(7) 0.3752(5)
O3A O 0.0858(7) 1.1151(7) 0.1248(5)
O4E O -0.1432(7) 0.7586(8) -0.0878(5)
O5C O -0.2394(7) 0.8812(8) -0.0108(7)
O6C O -0.2143(7) 1.0054(9) 0.0689(7)
O7B O 0.0577(7) 0.7685(7) 0.0377(6)
O8F O -0.1150(8) 1.1693(7) 0.0404(7)
O9D O -0.0399(5) 1.0453(5) 0.5490(4)
O9B O -0.0399(5) 0.9547(5) 0.0490(4)
Pb1C Pb -0.39424(3) 0.45308(3) 0.06569(3)
Pb1D Pb 0.10576(3) 1.04692(3) 0.56569(3)
Pb2B Pb 0.05390(4) 1.03607(4) 0.35382(3)
Pb2A Pb -0.55390(4) 0.53607(4) 0.14618(3)
Pb2C Pb -0.44610(4) 0.53607(4) 0.35382(3)
Pb2F Pb -0.05390(4) 0.96393(4) 0.64618(3)
Pb3E Pb -0.39821(3) 0.69863(3) -0.04432(3)
Pb3C Pb -0.39821(3) 0.30137(3) 0.45568(3)
Pb3B Pb 0.10179(3) 0.80137(3) 0.45568(3)
loop_
_geom_bond_atom_site_label_1
_geom_bond_atom_site_label_2
_geom_bond_site_symmetry_1
_geom_bond_site_symmetry_2
C1 C2 1_555 1_555
C2 H1 1_555 1_555
C3 C2 1_555 1_555
H2 C3 1_555 1_555
H3 C3 1_555 1_555
C4 C3 1_555 1_555
H4 C4 1_555 1_555
H5 C4 1_555 1_555
C5 C4 1_555 1_555
H6 C5 1_555 1_555
H7 C5 1_555 1_555
C6 C2 1_555 1_555
H8 C6 1_555 1_555
H9 C6 1_555 1_555
C7 C5 1_555 1_555
H10 C7 1_555 1_555
C8 C7 1_555 1_555
C9 C10 1_555 1_555
C10 H11 1_555 1_555
C11 C10 1_555 1_555
H12 C11 1_555 1_555
H13 C11 1_555 1_555
C12 C11 1_555 1_555
H14 C12 1_555 1_555
H15 C12 1_555 1_555
C13 C12 1_555 1_555
H16 C13 1_555 1_555
H17 C13 1_555 1_555
C14 C10 1_555 1_555
H18 C14 1_555 1_555
H19 C14 1_555 1_555
C15 C13 1_555 1_555
H20 C15 1_555 1_555
C16 C15 1_555 1_555
O1 C1 1_555 1_555
O2 C1 1_555 1_555
O3 C8 1_555 1_555
O4 C8 1_555 1_555
O5 C9 1_555 1_555
O6 C9 1_555 1_555
O7 C16 1_555 1_555
O8 C16 1_555 1_555
O9 Pb1 1_555 1_555
Pb1 O2 1_555 1_555
Pb2 O1 1_555 1_555
Pb3 O1 1_555 1_555
O2B Pb2 1_555 1_555
O3C Pb1 1_555 1_555
O3A Pb2 1_555 1_555
O4E Pb3 1_555 1_555
O5C Pb3 1_555 1_555
O6C Pb2 1_555 1_555
O7B Pb3 1_555 1_555
O8F Pb2 1_555 1_555
O9D Pb1 1_555 1_555
O9B Pb2 1_555 1_555
Pb1C O3 1_555 1_555
Pb1D O9 1_555 1_555
Pb2B O2 1_555 1_555
Pb2A O3 1_555 1_555
Pb2C O6 1_555 1_555
Pb2F O8 1_555 1_555
Pb3E O4 1_555 1_555
Pb3C O5 1_555 1_555
Pb3B O7 1_555 1_555
C6 C7 1_555 1_555
C14 C15 1_555 1_555
O7 Pb1 1_555 1_555
O8 Pb1 1_555 1_555
O9 Pb2B 1_555 1_555
O9 Pb3B 1_555 1_555
Pb3 O9B 1_555 1_555
O3C Pb2B 1_555 1_555
O9D Pb1D 1_555 1_555
O9D Pb2F 1_555 1_555

#END
