
#######################################################################
#
#                 Cambridge Crystallographic Data Centre
#                                CCDC 
#
#######################################################################
#
# If this CIF has been generated from an entry in the Cambridge 
# Structural Database, then it will include bibliographic, chemical, 
# crystal, experimental, refinement or atomic coordinate data resulting 
# from the CCDC's data processing and validation procedures.
#
#######################################################################

data_WIYWOS
_symmetry_cell_setting           monoclinic
_symmetry_space_group_name_H-M   'P 21/c'
_symmetry_Int_Tables_number      14
_space_group_name_Hall           '-P 2ybc'
loop_
_symmetry_equiv_pos_site_id
_symmetry_equiv_pos_as_xyz
1 x,y,z
2 -x,1/2+y,1/2-z
3 -x,-y,-z
4 x,1/2-y,1/2+z
_cell_length_a                   13.0882(9)
_cell_length_b                   26.6665(19)
_cell_length_c                   13.1336(9)
_cell_angle_alpha                90
_cell_angle_beta                 116.0720(10)
_cell_angle_gamma                90
_cell_volume                     4117.4
loop_
_atom_site_label
_atom_site_type_symbol
_atom_site_fract_x
_atom_site_fract_y
_atom_site_fract_z
Gd1 Gd 0.82070(2) 0.004864(10) 0.91889(3)
O1 O 0.8771(5) 0.06750(19) 1.0637(5)
O2 O 0.6889(4) 0.05324(18) 0.7820(4)
O3 O 0.6777(6) 0.0136(3) 0.9856(6)
O4 O 0.9434(5) -0.04704(18) 0.8836(5)
O5 O 0.8908(5) -0.04812(18) 1.0740(5)
O6 O 0.9261(4) 0.06527(18) 0.8703(5)
O7 O 0.6953(4) -0.06264(18) 0.8321(5)
C1 C 0.9798(7) 0.0769(3) 1.1128(6)
C2 C 0.6218(5) 0.0812(2) 0.7038(6)
C3 C 0.5865(12) 0.0333(6) 0.9438(15)
C4 C 1.0141(6) 0.1280(2) 1.1663(6)
C5 C 0.6028(6) 0.1330(2) 0.7366(5)
O8 O 0.5699(5) 0.06845(18) 0.6034(4)
H1 H 0.5376 0.0260 0.8687
N1 N 0.5499(10) 0.0671(6) 1.0032(12)
C6 C 1.1172(6) 0.1484(3) 1.1800(7)
C7 C 0.9409(6) 0.1555(3) 1.1948(6)
C8 C 0.5185(6) 0.1638(2) 0.6559(6)
C9 C 0.6681(6) 0.1509(2) 0.8472(5)
Gd2 Gd 0.45081(7) 0.00676(2) 0.50369(6)
C10 C 0.6299(14) 0.0650(8) 1.1205(13)
C11 C 0.4379(13) 0.0814(10) 0.987(2)
H2 H 1.1670 0.1295 1.1624
C12 C 1.1455(6) 0.1972(3) 1.2203(7)
H3 H 0.8720 0.1419 1.1855
C13 C 0.9710(6) 0.2033(2) 1.2371(6)
H4 H 0.4744 0.1521 0.5829
C14 C 0.5024(5) 0.2113(2) 0.6863(5)
H5 H 0.7227 0.1302 0.9004
C15 C 0.6521(6) 0.1989(3) 0.8778(5)
O9 O 0.3125(14) 0.0751(6) 0.5087(15)
O10 O 0.3845(16) 0.0328(7) 0.6490(13)
O11 O 0.2634(14) -0.0286(7) 0.4560(15)
O12 O 0.5783(7) -0.0461(3) 0.6549(6)
H6 H 0.6494 0.0985 1.1495
H7 H 0.6973 0.0478 1.1279
H8 H 0.5968 0.0474 1.1625
H9 H 0.4051 0.0562 1.0154
H10 H 0.3921 0.0851 0.9065
H11 H 0.4409 0.1127 1.0238
H12 H 1.2140 0.2111 1.2289
C16 C 1.0731(5) 0.2245(2) 1.2470(6)
C17 C 0.9071(6) 0.2400(2) 1.2785(6)
C18 C 0.5669(5) 0.2292(2) 0.7962(5)
C19 C 0.4193(5) 0.2512(2) 0.6133(5)
H13 H 0.6966 0.2109 0.9505
N2 N 0.3085(19) 0.0660(9) 0.597(2)
C20 C 0.167(2) -0.0138(10) 0.399(3)
C21 C 1.0776(5) 0.2766(2) 1.2842(5)
C22 C 0.9040(8) 0.2219(3) 1.3875(8)
C23 C 0.7879(6) 0.2504(3) 1.1856(7)
C24 C 0.9820(5) 0.2866(2) 1.3024(6)
C25 C 0.5349(5) 0.2811(2) 0.8028(5)
C26 C 0.2952(6) 0.2324(3) 0.5726(7)
C27 C 0.4393(7) 0.2664(3) 0.5134(6)
C28 C 0.4466(5) 0.2939(2) 0.6989(5)
O13 O 0.2702(16) 0.0885(9) 0.639(2)
H14 H 0.1521 0.0150 0.3551
N3 N 0.0798(17) -0.0428(9) 0.4038(17)
C29 C 1.1560(6) 0.3150(2) 1.3004(6)
H15 H 0.8734 0.2470 1.4181
H16 H 0.9830 0.2150 1.4400
H17 H 0.8587 0.1920 1.3739
H18 H 0.7537 0.2764 1.2103
H19 H 0.7437 0.2204 1.1742
H20 H 0.7880 0.2600 1.1161
C30 C 0.9633(5) 0.3344(2) 1.3324(6)
C31 C 0.5739(6) 0.3144(3) 0.8908(6)
H21 H 0.2838 0.2212 0.6355
H22 H 0.2806 0.2055 0.5205
H23 H 0.2429 0.2594 0.5356
H24 H 0.3923 0.2948 0.4764
H25 H 0.4193 0.2391 0.4613
H26 H 0.5196 0.2747 0.5394
C32 C 0.3978(5) 0.3409(2) 0.6839(6)
C33 C -0.048(3) -0.0098(13) 0.332(3)
C34 C 0.106(3) -0.0896(11) 0.454(2)
H27 H 1.2192 0.3090 1.2873
C35 C 1.1398(6) 0.3613(3) 1.3354(6)
H28 H 0.8976 0.3413 1.3405
C36 C 1.0425(6) 0.3720(2) 1.3502(6)
H29 H 0.6316 0.3050 0.9606
C37 C 0.5285(7) 0.3612(3) 0.8764(6)
H30 H 0.3388 0.3499 0.6145
C38 C 0.4375(6) 0.3745(2) 0.7732(6)
H31 H -0.0494 0.0125 0.2747
H32 H -0.0657 0.0084 0.3844
H33 H -0.1044 -0.0356 0.2976
H34 H 0.1252 -0.1130 0.4097
H35 H 0.0432 -0.1024 0.4654
H36 H 0.1727 -0.0847 0.5250
H37 H 1.1943 0.3861 1.3497
C39 C 1.0253(6) 0.4234(3) 1.3847(6)
H38 H 0.5579 0.3844 0.9351
C40 C 0.3810(7) 0.4254(3) 0.7594(6)
O4B O 1.0566(5) 0.04704(18) 1.1164(5)
Gd1B Gd 1.17930(2) -0.004864(10) 1.08111(3)
O8B O 0.4301(5) -0.06845(18) 0.3966(4)
O12B O 0.4217(7) 0.0461(3) 0.3451(6)
O5A O 1.1092(5) 0.45188(18) 1.4260(5)
O6C O 0.9261(4) 0.43473(18) 1.3703(5)
O12A O 0.4217(7) 0.4539(3) 0.8451(6)
O7A O 0.3047(4) 0.43736(18) 0.6679(5)
Gd1A Gd 1.17930(2) 0.504864(10) 1.58111(3)
Gd1C Gd 0.82070(2) 0.495136(10) 1.41889(3)
Gd2A Gd 0.54919(7) 0.50676(2) 0.99631(6)
Gd1A_2 Gd 0.17930(2) 0.504864(10) 0.58111(3)
loop_
_geom_bond_atom_site_label_1
_geom_bond_atom_site_label_2
_geom_bond_site_symmetry_1
_geom_bond_site_symmetry_2
Gd1 O1 1_555 1_555
O1 C1 1_555 1_555
O2 Gd1 1_555 1_555
O3 Gd1 1_555 1_555
O4 Gd1 1_555 1_555
O5 Gd1 1_555 1_555
O6 Gd1 1_555 1_555
O7 Gd1 1_555 1_555
C1 C4 1_555 1_555
C2 O2 1_555 1_555
C3 O3 1_555 1_555
C4 C6 1_555 1_555
C5 C2 1_555 1_555
O8 C2 1_555 1_555
H1 C3 1_555 1_555
N1 C3 1_555 1_555
C6 H2 1_555 1_555
C7 C4 1_555 1_555
C8 C5 1_555 1_555
C9 C5 1_555 1_555
Gd2 O8 1_555 1_555
C10 N1 1_555 1_555
C11 N1 1_555 1_555
C12 C6 1_555 1_555
H3 C7 1_555 1_555
C13 C7 1_555 1_555
H4 C8 1_555 1_555
C14 C8 1_555 1_555
H5 C9 1_555 1_555
C15 C9 1_555 1_555
O9 Gd2 1_555 1_555
O10 Gd2 1_555 1_555
O11 Gd2 1_555 1_555
O12 Gd2 1_555 1_555
H6 C10 1_555 1_555
H7 C10 1_555 1_555
H8 C10 1_555 1_555
H9 C11 1_555 1_555
H10 C11 1_555 1_555
H11 C11 1_555 1_555
H12 C12 1_555 1_555
C16 C12 1_555 1_555
C17 C13 1_555 1_555
C18 C14 1_555 1_555
C19 C14 1_555 1_555
H13 C15 1_555 1_555
N2 O9 1_555 1_555
C20 O11 1_555 1_555
C21 C16 1_555 1_555
C22 C17 1_555 1_555
C23 C17 1_555 1_555
C24 C17 1_555 1_555
C25 C18 1_555 1_555
C26 C19 1_555 1_555
C27 C19 1_555 1_555
C28 C19 1_555 1_555
O13 N2 1_555 1_555
H14 C20 1_555 1_555
N3 C20 1_555 1_555
C29 C21 1_555 1_555
H15 C22 1_555 1_555
H16 C22 1_555 1_555
H17 C22 1_555 1_555
H18 C23 1_555 1_555
H19 C23 1_555 1_555
H20 C23 1_555 1_555
C30 C24 1_555 1_555
C31 C25 1_555 1_555
H21 C26 1_555 1_555
H22 C26 1_555 1_555
H23 C26 1_555 1_555
H24 C27 1_555 1_555
H25 C27 1_555 1_555
H26 C27 1_555 1_555
C32 C28 1_555 1_555
C33 N3 1_555 1_555
C34 N3 1_555 1_555
H27 C29 1_555 1_555
C35 C29 1_555 1_555
H28 C30 1_555 1_555
C36 C30 1_555 1_555
H29 C31 1_555 1_555
C37 C31 1_555 1_555
H30 C32 1_555 1_555
C38 C32 1_555 1_555
H31 C33 1_555 1_555
H32 C33 1_555 1_555
H33 C33 1_555 1_555
H34 C34 1_555 1_555
H35 C34 1_555 1_555
H36 C34 1_555 1_555
H37 C35 1_555 1_555
C39 C36 1_555 1_555
H38 C37 1_555 1_555
C40 C38 1_555 1_555
O4B C1 1_555 1_555
Gd1B O4B 1_555 1_555
O8B Gd2 1_555 1_555
O12B Gd2 1_555 1_555
O5A C39 1_555 1_555
O6C C39 1_555 1_555
O12A C40 1_555 1_555
O7A C40 1_555 1_555
Gd1A O5A 1_555 1_555
Gd1C O6C 1_555 1_555
Gd2A O12A 1_555 1_555
Gd1A_2 O7A 1_555 1_555
C13 C16 1_555 1_555
C15 C18 1_555 1_555
O10 N2 1_555 1_555
C21 C24 1_555 1_555
C25 C28 1_555 1_555
C35 C36 1_555 1_555
C37 C38 1_555 1_555

#END
