
#######################################################################
#
#                 Cambridge Crystallographic Data Centre
#                                CCDC 
#
#######################################################################
#
# If this CIF has been generated from an entry in the Cambridge 
# Structural Database, then it will include bibliographic, chemical, 
# crystal, experimental, refinement or atomic coordinate data resulting 
# from the CCDC's data processing and validation procedures.
#
#######################################################################

data_WIZFAO
_symmetry_cell_setting           monoclinic
_symmetry_space_group_name_H-M   'P 21/c'
_symmetry_Int_Tables_number      14
_space_group_name_Hall           '-P 2ybc'
loop_
_symmetry_equiv_pos_site_id
_symmetry_equiv_pos_as_xyz
1 x,y,z
2 -x,1/2+y,1/2-z
3 -x,-y,-z
4 x,1/2-y,1/2+z
_cell_length_a                   9.1560(12)
_cell_length_b                   12.1449(16)
_cell_length_c                   14.1202(19)
_cell_angle_alpha                90
_cell_angle_beta                 95.271(2)
_cell_angle_gamma                90
_cell_volume                     1563.51
loop_
_atom_site_label
_atom_site_type_symbol
_atom_site_fract_x
_atom_site_fract_y
_atom_site_fract_z
Cd1 Cd -0.14083(3) 1.12527(2) 0.209579(18)
Cd2 Cd 0.0000 1.0000 0.0000
N1 N 0.4191(4) 0.5470(3) 0.1171(2)
H1 H 0.4817 0.5012 0.0979
H2 H 0.3944 0.5430 0.1744
N2 N 0.4039(4) 0.6268(3) -0.0321(2)
N3 N 0.1226(4) 0.8533(3) 0.0518(2)
C1 C 0.3604(5) 0.6244(3) 0.0582(3)
C2 C 0.2622(4) 0.7038(3) 0.0824(3)
C3 C 0.2125(4) 0.7806(3) 0.0126(3)
N4 N 0.2516(4) 0.7806(3) -0.0786(2)
O1 O -0.1987(4) 0.9437(3) 0.0864(2)
C4 C -0.3075(5) 0.9414(4) 0.1316(3)
N5 N 0.2017(4) 0.7292(2) 0.1662(2)
O2 O -0.3267(4) 1.0050(3) 0.1988(2)
C5 C 0.3476(5) 0.7019(3) -0.0924(3)
H3 H 0.3798 0.6993 -0.1529
C6 C 0.1222(5) 0.8177(3) 0.1425(3)
H4 H 0.0686 0.8536 0.1861
C7 C -0.4270(6) 0.8602(5) 0.1069(4)
H5 H -0.4718 0.8751 0.0440
H6 H -0.4994 0.8661 0.1517
H7 H -0.3869 0.7871 0.1090
O3 O 0.0744(3) 1.0973(2) 0.14355(19)
O4 O -0.0454(4) 0.9966(3) 0.3277(2)
O5 O 0.0711(4) 1.2670(3) 0.1954(2)
C8 C 0.1364(5) 1.1903(4) 0.1580(3)
C9 C 0.2880(6) 1.2042(6) 0.1304(5)
H8 H 0.2843 1.2250 0.0646
H9 H 0.3405 1.1360 0.1398
H10 H 0.3372 1.2605 0.1689
C10 C 0.0961(7) 0.9977(5) 0.3747(5)
H11 H 0.1648 0.9758 0.3298
H12 H 0.1007 0.9426 0.4246
C11 C 0.1449(8) 1.1024(5) 0.4170(5)
H13 H 0.1425 1.1579 0.3684
H14 H 0.2433 1.0949 0.4462
H15 H 0.0812 1.1235 0.4641
H16 H -0.085(6) 0.927(4) 0.317(4)
Cd1B Cd 0.14083(3) 0.87473(2) -0.209579(18)
N1B N -0.4191(4) 1.4530(3) -0.1171(2)
H1B H -0.4817 1.4988 -0.0979
H2B H -0.3944 1.4570 -0.1744
N2B N -0.4039(4) 1.3732(3) 0.0321(2)
N3B N -0.1226(4) 1.1467(3) -0.0518(2)
C1B C -0.3604(5) 1.3756(3) -0.0582(3)
C2B C -0.2622(4) 1.2962(3) -0.0824(3)
C3B C -0.2125(4) 1.2194(3) -0.0126(3)
N4B N -0.2516(4) 1.2194(3) 0.0786(2)
O1B O 0.1987(4) 1.0563(3) -0.0864(2)
C4B C 0.3075(5) 1.0586(4) -0.1316(3)
N5B N -0.2017(4) 1.2708(2) -0.1662(2)
O2B O 0.3267(4) 0.9950(3) -0.1988(2)
C5B C -0.3476(5) 1.2981(3) 0.0924(3)
H3B H -0.3798 1.3007 0.1529
C6B C -0.1222(5) 1.1823(3) -0.1425(3)
H4B H -0.0686 1.1464 -0.1861
C7B C 0.4270(6) 1.1398(5) -0.1069(4)
H5B H 0.4718 1.1249 -0.0440
H6B H 0.4994 1.1339 -0.1517
H7B H 0.3869 1.2129 -0.1090
O3B O -0.0744(3) 0.9027(2) -0.14355(19)
O4B O 0.0454(4) 1.0034(3) -0.3277(2)
O5B O -0.0711(4) 0.7330(3) -0.1954(2)
C8B C -0.1364(5) 0.8097(4) -0.1580(3)
C9B C -0.2880(6) 0.7958(6) -0.1304(5)
H8B H -0.2843 0.7750 -0.0646
H9B H -0.3405 0.8640 -0.1398
H10B H -0.3372 0.7395 -0.1689
C10B C -0.0961(7) 1.0023(5) -0.3747(5)
H11B H -0.1648 1.0242 -0.3298
H12B H -0.1007 1.0574 -0.4246
C11B C -0.1449(8) 0.8976(5) -0.4170(5)
H13B H -0.1425 0.8421 -0.3684
H14B H -0.2433 0.9051 -0.4462
H15B H -0.0812 0.8765 -0.4641
H16B H 0.085(6) 1.073(4) -0.317(4)
Cd1A Cd 0.14083(3) 0.62527(2) 0.290421(18)
Cd1C Cd -0.14083(3) 1.37473(2) -0.290421(18)
N5A N -0.2017(4) 1.2292(2) 0.3338(2)
N5C N 0.2017(4) 0.7708(2) -0.3338(2)
loop_
_geom_bond_atom_site_label_1
_geom_bond_atom_site_label_2
_geom_bond_site_symmetry_1
_geom_bond_site_symmetry_2
Cd1 O2 1_555 1_555
Cd2 N3 1_555 1_555
N1 H1 1_555 1_555
H2 N1 1_555 1_555
N2 C1 1_555 1_555
N3 C3 1_555 1_555
C1 N1 1_555 1_555
C2 C1 1_555 1_555
C3 C2 1_555 1_555
N4 C3 1_555 1_555
O1 Cd2 1_555 1_555
C4 O1 1_555 1_555
N5 C2 1_555 1_555
O2 C4 1_555 1_555
C5 N2 1_555 1_555
H3 C5 1_555 1_555
C6 N3 1_555 1_555
H4 C6 1_555 1_555
C7 C4 1_555 1_555
H5 C7 1_555 1_555
H6 C7 1_555 1_555
H7 C7 1_555 1_555
O3 Cd1 1_555 1_555
O4 Cd1 1_555 1_555
O5 Cd1 1_555 1_555
C8 O3 1_555 1_555
C9 C8 1_555 1_555
H8 C9 1_555 1_555
H9 C9 1_555 1_555
H10 C9 1_555 1_555
C10 O4 1_555 1_555
H11 C10 1_555 1_555
H12 C10 1_555 1_555
C11 C10 1_555 1_555
H13 C11 1_555 1_555
H14 C11 1_555 1_555
H15 C11 1_555 1_555
H16 O4 1_555 1_555
Cd1B N4 1_555 1_555
N1B H1B 1_555 1_555
H2B N1B 1_555 1_555
N2B C1B 1_555 1_555
N3B Cd2 1_555 1_555
C1B N1B 1_555 1_555
C2B C1B 1_555 1_555
C3B N3B 1_555 1_555
N4B Cd1 1_555 1_555
O1B Cd2 1_555 1_555
C4B O1B 1_555 1_555
N5B C2B 1_555 1_555
O2B Cd1B 1_555 1_555
C5B N2B 1_555 1_555
H3B C5B 1_555 1_555
C6B N3B 1_555 1_555
H4B C6B 1_555 1_555
C7B C4B 1_555 1_555
H5B C7B 1_555 1_555
H6B C7B 1_555 1_555
H7B C7B 1_555 1_555
O3B Cd2 1_555 1_555
O4B Cd1B 1_555 1_555
O5B Cd1B 1_555 1_555
C8B O3B 1_555 1_555
C9B C8B 1_555 1_555
H8B C9B 1_555 1_555
H9B C9B 1_555 1_555
H10B C9B 1_555 1_555
C10B O4B 1_555 1_555
H11B C10B 1_555 1_555
H12B C10B 1_555 1_555
C11B C10B 1_555 1_555
H13B C11B 1_555 1_555
H14B C11B 1_555 1_555
H15B C11B 1_555 1_555
H16B O4B 1_555 1_555
Cd1A N5 1_555 1_555
Cd1C N5B 1_555 1_555
N5A Cd1 1_555 1_555
N5C Cd1B 1_555 1_555
Cd2 O3 1_555 1_555
N4 C5 1_555 1_555
N5 C6 1_555 1_555
O5 C8 1_555 1_555
Cd1B O3B 1_555 1_555
C2B C3B 1_555 1_555
C3B N4B 1_555 1_555
N4B C5B 1_555 1_555
C4B O2B 1_555 1_555
N5B C6B 1_555 1_555
O5B C8B 1_555 1_555

#END
