
#######################################################################
#
#                 Cambridge Crystallographic Data Centre
#                                CCDC 
#
#######################################################################
#
# If this CIF has been generated from an entry in the Cambridge 
# Structural Database, then it will include bibliographic, chemical, 
# crystal, experimental, refinement or atomic coordinate data resulting 
# from the CCDC's data processing and validation procedures.
#
#######################################################################

data_WIZKIB
_symmetry_cell_setting           monoclinic
_symmetry_space_group_name_H-M   'C 2/c'
_symmetry_Int_Tables_number      15
_space_group_name_Hall           '-C 2yn'
loop_
_symmetry_equiv_pos_site_id
_symmetry_equiv_pos_as_xyz
1 x,y,z
2 -x,y,1/2-z
3 1/2+x,1/2+y,z
4 1/2-x,1/2+y,1/2-z
5 -x,-y,-z
6 x,-y,1/2+z
7 1/2-x,1/2-y,-z
8 1/2+x,1/2-y,1/2+z
_cell_length_a                   19.543(5)
_cell_length_b                   10.006(3)
_cell_length_c                   15.086(6)
_cell_angle_alpha                90
_cell_angle_beta                 112.97(3)
_cell_angle_gamma                90
_cell_volume                     2716.12
loop_
_atom_site_label
_atom_site_type_symbol
_atom_site_fract_x
_atom_site_fract_y
_atom_site_fract_z
Se1 Se 0.21821(3) 0.90803(5) 0.17355(4)
Co1 Co 0.0000 1.01403(9) 0.2500
C1 C -0.0922(3) 0.7549(5) 0.1816(4)
H1 H -0.0775 0.7444 0.2491
N1 N -0.0648(2) 0.8601(4) 0.1499(3)
C2 C -0.0852(3) 0.8713(5) 0.0540(4)
H2 H -0.0661 0.9434 0.0296
C3 C -0.1331(3) 0.7815(5) -0.0101(4)
H3 H -0.1468 0.7941 -0.0773
C4 C -0.1612(3) 0.6742(5) 0.0218(4)
C5 C -0.1403(3) 0.6617(5) 0.1218(4)
H4 H -0.1589 0.5905 0.1477
C6 C -0.2119(3) 0.5740(5) -0.0470(4)
H5 H -0.2420 0.6170 -0.1024
H6 H -0.2418 0.5357 -0.0197
N2 N -0.0549(2) 0.1725(4) 0.1473(3)
C7 C -0.0217(3) 0.2308(6) 0.0955(5)
H7 H 0.0276 0.2043 0.1063
C8 C -0.0552(3) 0.3287(6) 0.0261(4)
H8 H -0.0287 0.3685 -0.0080
C9 C -0.1269(3) 0.3669(5) 0.0077(4)
C10 C -0.1604(3) 0.3100(6) 0.0629(4)
H9 H -0.2089 0.3379 0.0553
C11 C -0.1245(3) 0.2123(5) 0.1298(4)
H10 H -0.1502 0.1717 0.1647
C12 C -0.1676(3) 0.4636(5) -0.0727(4)
H11 H -0.1998 0.4157 -0.1241
H12 H -0.1334 0.5036 -0.0923
N3 N 0.0828(2) 1.0051(4) 0.1944(3)
C13 C 0.1358(3) 0.9673(5) 0.1850(3)
Se1A Se -0.21821(3) 0.90803(5) 0.32645(4)
C1A C 0.0922(3) 0.7549(5) 0.3184(4)
H1A H 0.0775 0.7444 0.2509
N1A N 0.0648(2) 0.8601(4) 0.3501(3)
C2A C 0.0852(3) 0.8713(5) 0.4460(4)
H2A H 0.0661 0.9434 0.4704
C3A C 0.1331(3) 0.7815(5) 0.5101(4)
H3A H 0.1468 0.7941 0.5773
C4A C 0.1612(3) 0.6742(5) 0.4782(4)
C5A C 0.1403(3) 0.6617(5) 0.3782(4)
H4A H 0.1589 0.5905 0.3523
C6A C 0.2119(3) 0.5740(5) 0.5470(4)
H5A H 0.2420 0.6170 0.6024
H6A H 0.2418 0.5357 0.5197
N2A N 0.0549(2) 0.1725(4) 0.3527(3)
C7A C 0.0217(3) 0.2308(6) 0.4045(5)
H7A H -0.0276 0.2043 0.3937
C8A C 0.0552(3) 0.3287(6) 0.4739(4)
H8A H 0.0287 0.3685 0.5080
C9A C 0.1269(3) 0.3669(5) 0.4923(4)
C10A C 0.1604(3) 0.3100(6) 0.4371(4)
H9A H 0.2089 0.3379 0.4447
C11A C 0.1245(3) 0.2123(5) 0.3702(4)
H10A H 0.1502 0.1717 0.3353
C12A C 0.1676(3) 0.4636(5) 0.5727(4)
H11A H 0.1998 0.4157 0.6241
H12A H 0.1334 0.5036 0.5923
N3A N -0.0828(2) 1.0051(4) 0.3056(3)
C13A C -0.1358(3) 0.9673(5) 0.3150(3)
Co1_2 Co 0.0000 0.01403(9) 0.2500
N2_2 N -0.0549(2) 1.1725(4) 0.1473(3)
N2A_2 N 0.0549(2) 1.1725(4) 0.3527(3)
loop_
_geom_bond_atom_site_label_1
_geom_bond_atom_site_label_2
_geom_bond_site_symmetry_1
_geom_bond_site_symmetry_2
Se1 C13 1_555 1_555
Co1 N1 1_555 1_555
C1 H1 1_555 1_555
N1 C1 1_555 1_555
C2 N1 1_555 1_555
H2 C2 1_555 1_555
C3 C2 1_555 1_555
H3 C3 1_555 1_555
C4 C3 1_555 1_555
C5 C1 1_555 1_555
H4 C5 1_555 1_555
C6 C4 1_555 1_555
H5 C6 1_555 1_555
H6 C6 1_555 1_555
N2 C7 1_555 1_555
C7 H7 1_555 1_555
C8 C7 1_555 1_555
H8 C8 1_555 1_555
C9 C8 1_555 1_555
C10 C9 1_555 1_555
H9 C10 1_555 1_555
C11 N2 1_555 1_555
H10 C11 1_555 1_555
C12 C6 1_555 1_555
H11 C12 1_555 1_555
H12 C12 1_555 1_555
N3 Co1 1_555 1_555
C13 N3 1_555 1_555
Se1A C13A 1_555 1_555
C1A H1A 1_555 1_555
N1A Co1 1_555 1_555
C2A N1A 1_555 1_555
H2A C2A 1_555 1_555
C3A C2A 1_555 1_555
H3A C3A 1_555 1_555
C4A C3A 1_555 1_555
C5A C1A 1_555 1_555
H4A C5A 1_555 1_555
C6A C4A 1_555 1_555
H5A C6A 1_555 1_555
H6A C6A 1_555 1_555
N2A C7A 1_555 1_555
C7A H7A 1_555 1_555
C8A C7A 1_555 1_555
H8A C8A 1_555 1_555
C9A C8A 1_555 1_555
C10A C9A 1_555 1_555
H9A C10A 1_555 1_555
C11A N2A 1_555 1_555
H10A C11A 1_555 1_555
C12A C6A 1_555 1_555
H11A C12A 1_555 1_555
H12A C12A 1_555 1_555
N3A Co1 1_555 1_555
C13A N3A 1_555 1_555
Co1_2 N2 1_555 1_555
N2_2 Co1 1_555 1_555
N2A_2 Co1 1_555 1_555
C4 C5 1_555 1_555
C9 C12 1_555 1_555
C10 C11 1_555 1_555
C1A N1A 1_555 1_555
C4A C5A 1_555 1_555
N2A Co1_2 1_555 1_555
C9A C12A 1_555 1_555
C10A C11A 1_555 1_555

#END
