
#######################################################################
#
#                 Cambridge Crystallographic Data Centre
#                                CCDC 
#
#######################################################################
#
# If this CIF has been generated from an entry in the Cambridge 
# Structural Database, then it will include bibliographic, chemical, 
# crystal, experimental, refinement or atomic coordinate data resulting 
# from the CCDC's data processing and validation procedures.
#
#######################################################################

data_WIZMUP
_symmetry_cell_setting           triclinic
_symmetry_space_group_name_H-M   'P -1'
_symmetry_Int_Tables_number      2
_space_group_name_Hall           '-P 1'
loop_
_symmetry_equiv_pos_site_id
_symmetry_equiv_pos_as_xyz
1 x,y,z
2 -x,-y,-z
_cell_length_a                   6.7257(12)
_cell_length_b                   10.1698(18)
_cell_length_c                   10.3096(19)
_cell_angle_alpha                80.186(2)
_cell_angle_beta                 77.713(2)
_cell_angle_gamma                76.793(2)
_cell_volume                     665.266
loop_
_atom_site_label
_atom_site_type_symbol
_atom_site_fract_x
_atom_site_fract_y
_atom_site_fract_z
C1 C 1.3544(11) 0.8773(8) 0.8112(7)
H1 H 1.4605 0.9138 0.7491
C2 C 1.3207(13) 0.8994(10) 0.9436(8)
H2 H 1.4047 0.9495 0.9707
C3 C 1.1679(13) 0.8500(10) 1.0359(8)
H3 H 1.1439 0.8653 1.1267
C4 C 1.0503(10) 0.7778(8) 0.9936(7)
C5 C 1.0946(10) 0.7563(7) 0.8577(7)
H4 H 1.0157 0.7039 0.8290
C6 C 0.7596(13) 0.6577(8) 1.0724(8)
C7 C 0.5899(11) 0.6286(7) 1.1937(7)
C8 C 0.5320(11) 0.6957(7) 1.3061(7)
H5 H 0.6041 0.7643 1.3112
C9 C 0.2733(10) 0.5725(7) 1.3994(7)
H6 H 0.1648 0.5523 1.4705
C10 C 0.3206(10) 0.5028(7) 1.2879(6)
H7 H 0.2433 0.4371 1.2828
C11 C 0.4805(11) 0.5298(7) 1.1852(7)
H8 H 0.5158 0.4817 1.1094
N1 N 1.2431(8) 0.8065(6) 0.7673(5)
N2 N 0.8877(10) 0.7314(7) 1.0926(6)
H9 H 0.8711 0.7537 1.1736
N3 N 0.3790(8) 0.6691(6) 1.4088(5)
O1 O 0.7675(9) 0.6135(7) 0.9668(5)
O2 O 1.2444(7) 0.9775(4) 0.4624(5)
O3 O 1.4053(6) 1.2220(4) 0.4420(4)
O4 O 0.9835(6) 1.2487(4) 0.4090(4)
O5 O 1.1066(7) 1.1537(5) 0.6681(4)
Cu1 Cu 1.30188(11) 0.77099(8) 0.57281(7)
Mo1 Mo 1.18308(8) 1.14700(6) 0.49659(5)
N3_2 N 1.3790(8) 0.6691(6) 0.4088(5)
O3A O 1.5947(6) 0.7780(4) 0.5580(4)
O4A O 1.0165(6) 0.7513(4) 0.5910(4)
Cu1_2 Cu 0.30188(11) 0.77099(8) 1.57281(7)
Cu1A Cu 0.69812(11) 1.22901(8) 0.42719(7)
Cu1A_2 Cu 1.69812(11) 1.22901(8) 0.42719(7)
loop_
_geom_bond_atom_site_label_1
_geom_bond_atom_site_label_2
_geom_bond_site_symmetry_1
_geom_bond_site_symmetry_2
C1 H1 1_555 1_555
C2 C1 1_555 1_555
H2 C2 1_555 1_555
C3 C2 1_555 1_555
H3 C3 1_555 1_555
C4 C3 1_555 1_555
C5 C4 1_555 1_555
H4 C5 1_555 1_555
C6 C7 1_555 1_555
C7 C8 1_555 1_555
C8 H5 1_555 1_555
C9 H6 1_555 1_555
C10 C9 1_555 1_555
H7 C10 1_555 1_555
C11 C7 1_555 1_555
H8 C11 1_555 1_555
N1 C1 1_555 1_555
N2 C4 1_555 1_555
H9 N2 1_555 1_555
N3 C8 1_555 1_555
O1 C6 1_555 1_555
O2 Cu1 1_555 1_555
O3 Mo1 1_555 1_555
O4 Mo1 1_555 1_555
O5 Mo1 1_555 1_555
Cu1 N1 1_555 1_555
Mo1 O2 1_555 1_555
N3_2 Cu1 1_555 1_555
O3A Cu1 1_555 1_555
O4A Cu1 1_555 1_555
Cu1_2 N3 1_555 1_555
Cu1A O4 1_555 1_555
Cu1A_2 O3 1_555 1_555
C5 N1 1_555 1_555
C6 N2 1_555 1_555
C9 N3 1_555 1_555
C10 C11 1_555 1_555

#END
