
#######################################################################
#
#                 Cambridge Crystallographic Data Centre
#                                CCDC 
#
#######################################################################
#
# If this CIF has been generated from an entry in the Cambridge 
# Structural Database, then it will include bibliographic, chemical, 
# crystal, experimental, refinement or atomic coordinate data resulting 
# from the CCDC's data processing and validation procedures.
#
#######################################################################

data_WIZPAY
_symmetry_cell_setting           triclinic
_symmetry_space_group_name_H-M   'P -1'
_symmetry_Int_Tables_number      2
_space_group_name_Hall           '-P 1'
loop_
_symmetry_equiv_pos_site_id
_symmetry_equiv_pos_as_xyz
1 x,y,z
2 -x,-y,-z
_cell_length_a                   9.7293(3)
_cell_length_b                   11.7545(5)
_cell_length_c                   13.3384(5)
_cell_angle_alpha                86.1040(10)
_cell_angle_beta                 83.7670(10)
_cell_angle_gamma                78.1440(10)
_cell_volume                     1482.42
loop_
_atom_site_label
_atom_site_type_symbol
_atom_site_fract_x
_atom_site_fract_y
_atom_site_fract_z
I1 I -0.00339(3) 0.82339(3) 0.06395(2)
Cu1 Cu 0.06591(6) 1.02660(6) 0.09132(5)
C1 C 0.6976(5) 0.6698(4) 0.4055(4)
C2 C 0.7089(5) 0.5425(4) 0.3761(4)
H1 H 0.6379 0.5073 0.4195
H2 H 0.6877 0.5424 0.3052
C3 C 0.8565(6) 0.4688(5) 0.3878(4)
H3 H 0.8769 0.4671 0.4591
H4 H 0.8591 0.3879 0.3701
C4 C 0.9692(6) 0.5182(5) 0.3200(4)
H5 H 0.9546 0.5125 0.2483
H6 H 1.0636 0.4720 0.3318
C5 C 0.9624(5) 0.6457(5) 0.3415(4)
H7 H 1.0290 0.6783 0.2918
H8 H 0.9921 0.6499 0.4096
C6 C 0.8135(5) 0.7187(4) 0.3358(4)
H9 H 0.7898 0.7230 0.2651
H10 H 0.8127 0.7989 0.3546
C7 C 0.5533(5) 0.7470(4) 0.3866(4)
C8 C 0.5319(5) 0.8667(4) 0.3999(4)
H11 H 0.6071 0.8981 0.4191
C9 C 0.4038(5) 0.9408(4) 0.3857(4)
H12 H 0.3928 1.0221 0.3932
C10 C 0.2908(5) 0.8949(4) 0.3602(4)
C11 C 0.3089(5) 0.7763(4) 0.3482(4)
H13 H 0.2326 0.7442 0.3320
C12 C 0.4405(5) 0.7042(4) 0.3603(4)
H14 H 0.4526 0.6235 0.3501
O1 O 0.1680(3) 0.9747(3) 0.3508(3)
C13 C 0.7111(5) 0.6755(4) 0.5186(4)
C14 C 0.7822(5) 0.7506(4) 0.5583(4)
H15 H 0.8349 0.7952 0.5131
C15 C 0.7792(5) 0.7630(4) 0.6621(4)
H16 H 0.8282 0.8160 0.6864
C16 C 0.7044(5) 0.6978(4) 0.7292(4)
C17 C 0.6344(5) 0.6199(4) 0.6925(4)
H17 H 0.5845 0.5735 0.7381
C18 C 0.6375(5) 0.6098(4) 0.5897(4)
H18 H 0.5881 0.5568 0.5659
O2 O 0.6938(4) 0.7015(3) 0.8332(3)
C19 C 0.0491(5) 0.9307(4) 0.3254(4)
H19 H 0.0195 0.8775 0.3805
H20 H 0.0745 0.8872 0.2628
C20 C -0.0682(5) 1.0330(4) 0.3104(4)
C21 C -0.1694(5) 1.0707(5) 0.3890(4)
H21 H -0.1659 1.0307 0.4533
C22 C -0.2753(6) 1.1667(5) 0.3734(4)
H22 H -0.3452 1.1935 0.4265
C23 C -0.2772(6) 1.2228(5) 0.2790(4)
H23 H -0.3487 1.2887 0.2658
C24 C -0.1726(5) 1.1807(5) 0.2037(4)
H24 H -0.1744 1.2200 0.1391
N1 N -0.0695(4) 1.0880(4) 0.2170(3)
C25 C 0.7543(6) 0.7864(5) 0.8744(4)
H25 H 0.8468 0.7893 0.8362
H26 H 0.7712 0.7624 0.9454
C26 C 0.6616(6) 0.9072(5) 0.8713(4)
C27 C 0.5189(6) 0.9245(6) 0.8572(4)
H27 H 0.4785 0.8605 0.8446
C28 C 0.4368(6) 1.0342(6) 0.8617(4)
H28 H 0.3391 1.0470 0.8529
C29 C 0.4993(6) 1.1266(5) 0.8794(4)
H29 H 0.4457 1.2038 0.8826
C30 C 0.6416(6) 1.1027(5) 0.8922(4)
H30 H 0.6839 1.1657 0.9047
N2 N 0.7240(5) 0.9959(4) 0.8882(3)
I1A I 0.00339(3) 1.17661(3) -0.06395(2)
Cu1A Cu -0.06591(6) 0.97340(6) -0.09132(5)
Cu1A_2 Cu 0.93409(6) 0.97340(6) 0.90868(5)
N2A N 0.2760(5) 1.0041(4) 0.1118(3)
Cl1 Cl 0.2360(6) 0.4703(5) 0.9283(4)
Cl2 Cl 0.4173(6) 0.6238(5) 0.9572(4)
C31 C 0.2995(19) 0.5406(12) 1.0176(11)
H31 H 0.3484 0.4827 1.0660
H32 H 0.2202 0.5917 1.0556
C32? C 0.360(2) 0.536(2) 0.8750(16)
H33? H 0.3243 0.5847 0.8163
H34? H 0.4416 0.4763 0.8496
loop_
_geom_bond_atom_site_label_1
_geom_bond_atom_site_label_2
_geom_bond_site_symmetry_1
_geom_bond_site_symmetry_2
I1 Cu1 1_555 1_555
Cu1 N1 1_555 1_555
C1 C2 1_555 1_555
C2 H1 1_555 1_555
H2 C2 1_555 1_555
C3 C2 1_555 1_555
H3 C3 1_555 1_555
H4 C3 1_555 1_555
C4 C3 1_555 1_555
H5 C4 1_555 1_555
H6 C4 1_555 1_555
C5 C4 1_555 1_555
H7 C5 1_555 1_555
H8 C5 1_555 1_555
C6 C1 1_555 1_555
H9 C6 1_555 1_555
H10 C6 1_555 1_555
C7 C1 1_555 1_555
C8 C7 1_555 1_555
H11 C8 1_555 1_555
C9 C8 1_555 1_555
H12 C9 1_555 1_555
C10 C9 1_555 1_555
C11 C10 1_555 1_555
H13 C11 1_555 1_555
C12 C7 1_555 1_555
H14 C12 1_555 1_555
O1 C10 1_555 1_555
C13 C1 1_555 1_555
C14 C13 1_555 1_555
H15 C14 1_555 1_555
C15 C14 1_555 1_555
H16 C15 1_555 1_555
C16 C15 1_555 1_555
C17 C16 1_555 1_555
H17 C17 1_555 1_555
C18 C13 1_555 1_555
H18 C18 1_555 1_555
O2 C16 1_555 1_555
C19 O1 1_555 1_555
H19 C19 1_555 1_555
H20 C19 1_555 1_555
C20 C19 1_555 1_555
C21 C20 1_555 1_555
H21 C21 1_555 1_555
C22 C21 1_555 1_555
H22 C22 1_555 1_555
C23 C22 1_555 1_555
H23 C23 1_555 1_555
C24 C23 1_555 1_555
H24 C24 1_555 1_555
N1 C20 1_555 1_555
C25 O2 1_555 1_555
H25 C25 1_555 1_555
H26 C25 1_555 1_555
C26 C25 1_555 1_555
C27 C26 1_555 1_555
H27 C27 1_555 1_555
C28 C27 1_555 1_555
H28 C28 1_555 1_555
C29 C28 1_555 1_555
H29 C29 1_555 1_555
C30 C29 1_555 1_555
H30 C30 1_555 1_555
N2 C26 1_555 1_555
Cl1 C31 1_555 1_555
Cl2 C31 1_555 1_555
C31 H31 1_555 1_555
H32 C31 1_555 1_555
I1A Cu1 1_555 1_555
Cu1A I1 1_555 1_555
Cu1A_2 N2 1_555 1_555
N2A Cu1 1_555 1_555
C5 C6 1_555 1_555
C11 C12 1_555 1_555
C17 C18 1_555 1_555
C24 N1 1_555 1_555
C30 N2 1_555 1_555
I1A Cu1A 1_555 1_555

#END
