
#######################################################################
#
#                 Cambridge Crystallographic Data Centre
#                                CCDC 
#
#######################################################################
#
# If this CIF has been generated from an entry in the Cambridge 
# Structural Database, then it will include bibliographic, chemical, 
# crystal, experimental, refinement or atomic coordinate data resulting 
# from the CCDC's data processing and validation procedures.
#
#######################################################################

data_WIZSEE
_symmetry_cell_setting           monoclinic
_symmetry_space_group_name_H-M   'P 21/c'
_symmetry_Int_Tables_number      14
_space_group_name_Hall           '-P 2ybc'
loop_
_symmetry_equiv_pos_site_id
_symmetry_equiv_pos_as_xyz
1 x,y,z
2 -x,1/2+y,1/2-z
3 -x,-y,-z
4 x,1/2-y,1/2+z
_cell_length_a                   11.5011(3)
_cell_length_b                   16.0953(4)
_cell_length_c                   8.8302(2)
_cell_angle_alpha                90
_cell_angle_beta                 111.7840(10)
_cell_angle_gamma                90
_cell_volume                     1517.86
loop_
_atom_site_label
_atom_site_type_symbol
_atom_site_fract_x
_atom_site_fract_y
_atom_site_fract_z
Co1 Co 0.5000 0.5000 0.5000
O1 O 0.57914(16) 0.50222(11) 0.7661(2)
O2 O 0.60753(17) 0.63848(12) 0.8108(2)
O3 O 0.50557(18) 0.62679(12) 0.4969(2)
H1 H 0.539(2) 0.6396(16) 0.5967(13)
H2 H 0.472(2) 0.6689(12) 0.441(3)
N1 N 0.8052(3) 0.72774(16) 1.3063(3)
H7 H 0.806(3) 0.7654(15) 1.373(3)
N2 N 0.30936(19) 0.50106(13) 0.4973(3)
C1 C 0.6121(2) 0.56454(19) 0.8587(3)
C2 C 0.6562(3) 0.55025(19) 1.0415(3)
H8 H 0.5834 0.5440 1.0709
H9 H 0.7028 0.4985 1.0676
C3 C 0.7364(3) 0.61775(17) 1.1427(3)
C4 C 0.7058(3) 0.6757(2) 1.2330(4)
H10 H 0.6285 0.6796 1.2436
C5 C 0.8624(3) 0.63474(17) 1.1623(3)
C6 C 0.9462(3) 0.5963(2) 1.1030(4)
H11 H 0.9216 0.5504 1.0344
C7 C 1.0646(3) 0.6275(3) 1.1475(5)
H12 H 1.1208 0.6022 1.1088
C8 C 1.1028(3) 0.6955(3) 1.2485(5)
H13 H 1.1842 0.7149 1.2761
C9 C 1.0246(3) 0.7352(2) 1.3093(4)
H14 H 1.0510 0.7812 1.3771
C10 C 0.9034(3) 0.70374(18) 1.2654(3)
C11 C 0.2700(2) 0.55901(17) 0.5739(4)
H15 H 0.3255 0.6011 0.6273
C12 C 0.1515(2) 0.56060(17) 0.5789(3)
H16 H 0.1300 0.6025 0.6362
C13 C 0.0644(2) 0.50028(16) 0.4993(3)
C14 C 0.1058(2) 0.44017(18) 0.4190(4)
H17 H 0.0521 0.3977 0.3633
C15 C 0.2258(3) 0.44290(18) 0.4212(4)
H18 H 0.2503 0.4014 0.3659
Co1_2 Co -0.5000 0.5000 0.5000
O1B O 0.42086(16) 0.49778(11) 0.2339(2)
O2B O 0.39247(17) 0.36152(12) 0.1892(2)
O3B O 0.49443(18) 0.37321(12) 0.5031(2)
H1B H 0.461(2) 0.3604(16) 0.4033(13)
H2B H 0.528(2) 0.3311(12) 0.559(3)
N1B N 0.1948(3) 0.27226(16) -0.3063(3)
H7B H 0.194(3) 0.2346(15) -0.373(3)
N2B N -0.30936(19) 0.49894(13) 0.5027(3)
N2B_2 N 0.69064(19) 0.49894(13) 0.5027(3)
C1B C 0.3879(2) 0.43546(19) 0.1413(3)
C2B C 0.3438(3) 0.44975(19) -0.0415(3)
H8B H 0.4166 0.4560 -0.0709
H9B H 0.2972 0.5015 -0.0676
C3B C 0.2636(3) 0.38225(17) -0.1427(3)
C4B C 0.2942(3) 0.3243(2) -0.2330(4)
H10B H 0.3715 0.3204 -0.2436
C5B C 0.1376(3) 0.36526(17) -0.1623(3)
C6B C 0.0538(3) 0.4037(2) -0.1030(4)
H11B H 0.0784 0.4496 -0.0344
C7B C -0.0646(3) 0.3725(3) -0.1475(5)
H12B H -0.1208 0.3978 -0.1088
C8B C -0.1028(3) 0.3045(3) -0.2485(5)
H13B H -0.1842 0.2851 -0.2761
C9B C -0.0246(3) 0.2648(2) -0.3093(4)
H14B H -0.0510 0.2188 -0.3771
C10B C 0.0966(3) 0.29626(18) -0.2654(3)
C11B C -0.2700(2) 0.44099(17) 0.4261(4)
H15B H -0.3255 0.3989 0.3727
C12B C -0.1515(2) 0.43940(17) 0.4211(3)
H16B H -0.1300 0.3975 0.3638
C13B C -0.0644(2) 0.49972(16) 0.5007(3)
C14B C -0.1058(2) 0.55983(18) 0.5810(4)
H17B H -0.0521 0.6023 0.6367
C15B C -0.2258(3) 0.55710(18) 0.5788(4)
H18B H -0.2503 0.5986 0.6341
O4 O 0.4133(2) 0.77242(13) 0.3416(3)
H3 H 0.387(2) 0.7955(17) 0.409(3)
H4 H 0.4825(18) 0.7928(19) 0.348(4)
O5 O 0.6525(2) 0.34501(14) 0.9218(3)
H5 H 0.631(3) 0.3921(10) 0.877(3)
H6 H 0.644(3) 0.3081(13) 0.850(3)
loop_
_geom_bond_atom_site_label_1
_geom_bond_atom_site_label_2
_geom_bond_site_symmetry_1
_geom_bond_site_symmetry_2
Co1 O1 1_555 1_555
O1 C1 1_555 1_555
O2 C1 1_555 1_555
O3 Co1 1_555 1_555
H1 O3 1_555 1_555
H2 O3 1_555 1_555
O4 H3 1_555 1_555
H4 O4 1_555 1_555
O5 H5 1_555 1_555
H6 O5 1_555 1_555
N1 H7 1_555 1_555
N2 Co1 1_555 1_555
C1 C2 1_555 1_555
C2 H8 1_555 1_555
H9 C2 1_555 1_555
C3 C2 1_555 1_555
C4 N1 1_555 1_555
H10 C4 1_555 1_555
C5 C3 1_555 1_555
C6 C5 1_555 1_555
H11 C6 1_555 1_555
C7 C6 1_555 1_555
H12 C7 1_555 1_555
C8 C7 1_555 1_555
H13 C8 1_555 1_555
C9 C8 1_555 1_555
H14 C9 1_555 1_555
C10 N1 1_555 1_555
C11 N2 1_555 1_555
H15 C11 1_555 1_555
C12 C11 1_555 1_555
H16 C12 1_555 1_555
C13 C12 1_555 1_555
C14 C13 1_555 1_555
H17 C14 1_555 1_555
C15 N2 1_555 1_555
H18 C15 1_555 1_555
Co1_2 N2B 1_555 1_555
O1B Co1 1_555 1_555
O2B C1B 1_555 1_555
O3B Co1 1_555 1_555
H1B O3B 1_555 1_555
H2B O3B 1_555 1_555
N1B H7B 1_555 1_555
N2B C11B 1_555 1_555
N2B_2 Co1 1_555 1_555
C1B O1B 1_555 1_555
C2B C1B 1_555 1_555
H8B C2B 1_555 1_555
H9B C2B 1_555 1_555
C3B C2B 1_555 1_555
C4B N1B 1_555 1_555
H10B C4B 1_555 1_555
C5B C3B 1_555 1_555
C6B C5B 1_555 1_555
H11B C6B 1_555 1_555
C7B C6B 1_555 1_555
H12B C7B 1_555 1_555
C8B C7B 1_555 1_555
H13B C8B 1_555 1_555
C9B C8B 1_555 1_555
H14B C9B 1_555 1_555
C10B N1B 1_555 1_555
C11B H15B 1_555 1_555
C12B C11B 1_555 1_555
H16B C12B 1_555 1_555
C13B C13 1_555 1_555
C14B C13B 1_555 1_555
H17B C14B 1_555 1_555
C15B N2B 1_555 1_555
H18B C15B 1_555 1_555
C3 C4 1_555 1_555
C5 C10 1_555 1_555
C9 C10 1_555 1_555
C14 C15 1_555 1_555
C3B C4B 1_555 1_555
C5B C10B 1_555 1_555
C9B C10B 1_555 1_555
C12B C13B 1_555 1_555
C14B C15B 1_555 1_555

#END
