
#######################################################################
#
#                 Cambridge Crystallographic Data Centre
#                                CCDC 
#
#######################################################################
#
# If this CIF has been generated from an entry in the Cambridge 
# Structural Database, then it will include bibliographic, chemical, 
# crystal, experimental, refinement or atomic coordinate data resulting 
# from the CCDC's data processing and validation procedures.
#
#######################################################################

data_WIZSOP
_symmetry_cell_setting           monoclinic
_symmetry_space_group_name_H-M   'P 21/c'
_symmetry_Int_Tables_number      14
_space_group_name_Hall           '-P 2ybc'
loop_
_symmetry_equiv_pos_site_id
_symmetry_equiv_pos_as_xyz
1 x,y,z
2 -x,1/2+y,1/2-z
3 -x,-y,-z
4 x,1/2-y,1/2+z
_cell_length_a                   17.9300(12)
_cell_length_b                   16.9922(12)
_cell_length_c                   13.8066(10)
_cell_angle_alpha                90
_cell_angle_beta                 112.3590(10)
_cell_angle_gamma                90
_cell_volume                     3890.21
loop_
_atom_site_label
_atom_site_type_symbol
_atom_site_fract_x
_atom_site_fract_y
_atom_site_fract_z
Co1 Co 0.49226(3) 0.56995(3) 0.40398(4)
Co2 Co 0.47935(3) 0.74372(3) 0.22922(4)
N1 N 0.61752(18) 0.58491(18) 0.4650(3)
N2 N 0.74372(18) 0.59097(18) 0.4783(2)
N3 N 1.36725(19) 0.55836(18) 0.3368(3)
N4 N 1.23856(18) 0.55704(18) 0.3144(3)
N5 N 0.6062(2) 0.7608(2) 0.2966(3)
N6 N 0.7337(2) 0.7667(2) 0.3123(3)
N7 N 1.3525(2) 0.7329(2) 0.1605(3)
N8 N 1.22356(19) 0.7291(2) 0.1361(3)
O1 O 0.49575(18) 0.54980(16) 0.2530(2)
O2 O 0.49218(19) 0.64957(16) 0.1453(2)
O3 O 0.48065(16) 0.69232(15) 0.3748(2)
O4 O 0.46782(18) 0.81957(16) 0.3539(2)
O5 O 0.49249(15) 0.55555(13) 0.5622(2)
O6 O 0.47384(18) 0.67567(15) 0.6119(2)
C1 C 0.4950(2) 0.5793(2) 0.1711(3)
H1 H 0.4969 0.5435 0.1211
C2 C 0.4740(2) 0.7595(2) 0.4094(3)
H2 H 0.4736 0.7646 0.4763
C3 C 0.4871(2) 0.6050(2) 0.6281(3)
H3 H 0.4938 0.5862 0.6942
C4 C 0.6675(2) 0.5702(2) 0.4177(3)
H4 H 0.6522 0.5484 0.3511
C5 C 0.6634(2) 0.6171(2) 0.5603(3)
H5 H 0.6441 0.6337 0.6107
C6 C 0.7415(2) 0.6208(2) 0.5695(3)
H6 H 0.7850 0.6399 0.6265
C7 C 0.8137(2) 0.5855(2) 0.4524(3)
C8 C 0.8773(2) 0.6372(2) 0.4977(3)
H7 H 0.8736 0.6760 0.5433
C9 C 0.9459(2) 0.6315(2) 0.4756(3)
H8 H 0.9882 0.6665 0.5071
C10 C 0.9535(2) 0.5754(2) 0.4080(3)
C11 C 0.8892(3) 0.5241(3) 0.3635(4)
H9 H 0.8926 0.4855 0.3174
C12 C 0.8208(3) 0.5286(3) 0.3858(4)
H10 H 0.7790 0.4930 0.3554
C13 C 1.3149(2) 0.5736(2) 0.3804(3)
H11 H 1.3286 0.5932 0.4479
C14 C 1.3221(2) 0.5298(3) 0.2386(3)
H12 H 1.3427 0.5134 0.1895
C15 C 1.2433(2) 0.5290(3) 0.2241(3)
H13 H 1.2006 0.5125 0.1644
C16 C 1.1673(2) 0.5624(2) 0.3380(3)
C17 C 1.1020(3) 0.5149(3) 0.2862(4)
H14 H 1.1039 0.4796 0.2357
C18 C 1.0336(2) 0.5197(3) 0.3092(4)
H15 H 0.9902 0.4870 0.2738
C19 C 1.0276(2) 0.5711(2) 0.3823(3)
C20 C 1.0935(3) 0.6190(3) 0.4328(4)
H16 H 1.0913 0.6546 0.4828
C21 C 1.1632(3) 0.6153(3) 0.4106(4)
H17 H 1.2064 0.6486 0.4448
C22 C 0.6590(2) 0.7391(2) 0.2569(4)
H18 H 0.6463 0.7082 0.1972
C23 C 0.6491(3) 0.8053(4) 0.3822(4)
H19 H 0.6274 0.8287 0.4266
C24 C 0.7275(3) 0.8108(4) 0.3936(4)
H20 H 0.7684 0.8382 0.4451
C25 C 0.8045(2) 0.7594(2) 0.2886(3)
C26 C 0.8094(3) 0.7023(3) 0.2210(4)
H21 H 0.7673 0.6668 0.1916
C27 C 0.8777(2) 0.6979(3) 0.1966(4)
H22 H 0.8801 0.6592 0.1503
C28 C 0.9423(2) 0.7489(2) 0.2384(3)
C29 C 0.9366(2) 0.8052(2) 0.3095(3)
H23 H 0.9796 0.8395 0.3408
C30 C 0.8688(2) 0.8114(3) 0.3345(3)
H24 H 0.8662 0.8497 0.3813
C31 C 1.2981(3) 0.7485(2) 0.2011(4)
H25 H 1.3103 0.7704 0.2671
C32 C 1.3085(3) 0.7018(3) 0.0625(4)
H26 H 1.3302 0.6854 0.0145
C33 C 1.2292(3) 0.6987(3) 0.0468(4)
H27 H 1.1872 0.6798 -0.0122
C34 C 1.1514(2) 0.7353(2) 0.1592(3)
C35 C 1.1464(2) 0.7938(3) 0.2260(4)
H28 H 1.1881 0.8300 0.2538
C36 C 1.0785(2) 0.7981(3) 0.2513(3)
H29 H 1.0756 0.8373 0.2966
C37 C 1.0148(2) 0.7452(2) 0.2105(3)
C38 C 1.0217(2) 0.6879(3) 0.1405(3)
H30 H 0.9797 0.6525 0.1102
C39 C 1.0889(2) 0.6830(3) 0.1157(3)
H31 H 1.0921 0.6444 0.0697
Co1_2 Co 1.49226(3) 0.56995(3) 0.40398(4)
Co1B Co 0.50774(3) 0.43005(3) 0.59602(4)
Co2_2 Co 1.47935(3) 0.74372(3) 0.22922(4)
Co2C Co 0.47935(3) 0.75628(3) 0.72922(4)
N3_2 N 0.36725(19) 0.55836(18) 0.3368(3)
N7_2 N 0.3525(2) 0.7329(2) 0.1605(3)
O5B O 0.50751(15) 0.44445(13) 0.4378(2)
O6C O 0.47384(18) 0.82433(15) 0.1119(2)
C40 C 0.2039(8) 0.4650(8) 0.9610(10)
O7 O 0.1669(6) 0.5387(6) 0.8979(8)
O8 O 0.1364(5) 0.4544(5) 0.9826(7)
C41? C 0.1706(9) 0.4942(9) 0.9447(11)
O9? O 0.2113(15) 0.5459(13) 0.8863(19)
O10? O 0.1042(6) 0.5504(6) 0.9244(8)
loop_
_geom_bond_atom_site_label_1
_geom_bond_atom_site_label_2
_geom_bond_site_symmetry_1
_geom_bond_site_symmetry_2
Co1 N1 1_555 1_555
Co2 N5 1_555 1_555
N1 C4 1_555 1_555
N2 C4 1_555 1_555
N3 C13 1_555 1_555
N4 C13 1_555 1_555
N5 C22 1_555 1_555
N6 C22 1_555 1_555
N7 C31 1_555 1_555
N8 C31 1_555 1_555
O1 Co1 1_555 1_555
O2 Co2 1_555 1_555
O3 Co1 1_555 1_555
O4 Co2 1_555 1_555
O5 Co1 1_555 1_555
O6 C3 1_555 1_555
C1 O1 1_555 1_555
H1 C1 1_555 1_555
C2 O3 1_555 1_555
H2 C2 1_555 1_555
C3 O5 1_555 1_555
H3 C3 1_555 1_555
C4 H4 1_555 1_555
C5 N1 1_555 1_555
H5 C5 1_555 1_555
C6 N2 1_555 1_555
H6 C6 1_555 1_555
C7 N2 1_555 1_555
C8 C7 1_555 1_555
H7 C8 1_555 1_555
C9 C8 1_555 1_555
H8 C9 1_555 1_555
C10 C9 1_555 1_555
C11 C10 1_555 1_555
H9 C11 1_555 1_555
C12 C7 1_555 1_555
H10 C12 1_555 1_555
C13 H11 1_555 1_555
C14 N3 1_555 1_555
H12 C14 1_555 1_555
C15 N4 1_555 1_555
H13 C15 1_555 1_555
C16 N4 1_555 1_555
C17 C16 1_555 1_555
H14 C17 1_555 1_555
C18 C17 1_555 1_555
H15 C18 1_555 1_555
C19 C10 1_555 1_555
C20 C19 1_555 1_555
H16 C20 1_555 1_555
C21 C16 1_555 1_555
H17 C21 1_555 1_555
C22 H18 1_555 1_555
C23 N5 1_555 1_555
H19 C23 1_555 1_555
C24 N6 1_555 1_555
H20 C24 1_555 1_555
C25 N6 1_555 1_555
C26 C25 1_555 1_555
H21 C26 1_555 1_555
C27 C26 1_555 1_555
H22 C27 1_555 1_555
C28 C27 1_555 1_555
C29 C28 1_555 1_555
H23 C29 1_555 1_555
C30 C25 1_555 1_555
H24 C30 1_555 1_555
C31 H25 1_555 1_555
C32 N7 1_555 1_555
H26 C32 1_555 1_555
C33 N8 1_555 1_555
H27 C33 1_555 1_555
C34 N8 1_555 1_555
C35 C34 1_555 1_555
H28 C35 1_555 1_555
C36 C35 1_555 1_555
H29 C36 1_555 1_555
C37 C28 1_555 1_555
C38 C37 1_555 1_555
H30 C38 1_555 1_555
C39 C34 1_555 1_555
H31 C39 1_555 1_555
C40 O7 1_555 1_555
O8 C40 1_555 1_555
Co1_2 N3 1_555 1_555
Co1B O5 1_555 1_555
Co2_2 N7 1_555 1_555
Co2C O6 1_555 1_555
N3_2 Co1 1_555 1_555
N7_2 Co2 1_555 1_555
O5B Co1 1_555 1_555
O6C Co2 1_555 1_555
Co2 O3 1_555 1_555
O2 C1 1_555 1_555
O4 C2 1_555 1_555
C5 C6 1_555 1_555
C11 C12 1_555 1_555
C14 C15 1_555 1_555
C18 C19 1_555 1_555
C20 C21 1_555 1_555
C23 C24 1_555 1_555
C29 C30 1_555 1_555
C32 C33 1_555 1_555
C36 C37 1_555 1_555
C38 C39 1_555 1_555
Co1B O5B 1_555 1_555

#END
