
#######################################################################
#
#                 Cambridge Crystallographic Data Centre
#                                CCDC 
#
#######################################################################
#
# If this CIF has been generated from an entry in the Cambridge 
# Structural Database, then it will include bibliographic, chemical, 
# crystal, experimental, refinement or atomic coordinate data resulting 
# from the CCDC's data processing and validation procedures.
#
#######################################################################

data_WOBCIB
_symmetry_cell_setting           triclinic
_symmetry_space_group_name_H-M   'P -1'
_symmetry_Int_Tables_number      2
_space_group_name_Hall           '-P 1'
loop_
_symmetry_equiv_pos_site_id
_symmetry_equiv_pos_as_xyz
1 x,y,z
2 -x,-y,-z
_cell_length_a                   7.5698(15)
_cell_length_b                   8.6050(17)
_cell_length_c                   9.840(2)
_cell_angle_alpha                87.10(3)
_cell_angle_beta                 89.92(3)
_cell_angle_gamma                85.22(3)
_cell_volume                     637.909
loop_
_atom_site_label
_atom_site_type_symbol
_atom_site_fract_x
_atom_site_fract_y
_atom_site_fract_z
Tb1 Tb 0.43498(4) 1.11530(3) 0.16673(3)
O1 O 0.1349(7) 1.2389(5) 0.1334(5)
O2 O 0.6437(9) 1.0695(7) 0.3578(7)
N1 N 0.4331(8) 1.4565(7) -0.3726(6)
C1 C 0.1248(10) 1.5122(8) 0.1105(8)
H1 H 0.1014 1.5188 0.2091
H2 H 0.2539 1.5169 0.0968
O3 O -0.2835(7) 1.2386(6) 0.1194(6)
O4 O 0.2396(8) 1.0477(6) 0.3523(6)
N2 N -0.0306(8) 1.3500(7) -0.0375(6)
C2 C 0.0744(9) 1.3574(8) 0.0671(7)
O5 O -0.3101(7) 1.0288(5) 0.0078(5)
C3 C -0.0901(9) 1.2008(8) -0.0717(7)
H3 H 0.0111 1.1201 -0.0667
H4 H -0.1366 1.2085 -0.1661
O6 O 0.5703(7) 1.6449(6) -0.2755(5)
C4 C -0.2357(9) 1.1533(8) 0.0266(8)
O7 O 0.5005(7) 1.1615(6) -0.2276(5)
C5 C 0.5349(10) 1.5745(8) -0.3769(7)
O8 O 0.4107(7) 1.2788(6) -0.0380(5)
C6 C 0.3905(10) 1.3725(8) -0.4903(7)
H5 H 0.2598 1.3787 -0.4993
H6 H 0.4318 1.2611 -0.4724
C7 C 0.3397(10) 1.4152(8) -0.2444(7)
H7 H 0.2162 1.3959 -0.2668
H8 H 0.3350 1.5055 -0.1857
C8 C 0.4256(9) 1.2728(8) -0.1650(7)
O1A O -0.1349(7) 1.7611(5) -0.1334(5)
C1A C -0.1248(10) 1.4878(8) -0.1105(8)
H1A H -0.1014 1.4812 -0.2091
H2A H -0.2539 1.4831 -0.0968
O3A O 0.2835(7) 1.7614(6) -0.1194(6)
N2A N 0.0306(8) 1.6500(7) 0.0375(6)
C2A C -0.0744(9) 1.6426(8) -0.0671(7)
O5A O 0.3101(7) 1.9712(5) -0.0078(5)
C3A C 0.0901(9) 1.7992(8) 0.0717(7)
H3A H -0.0111 1.8799 0.0667
H4A H 0.1366 1.7915 0.1661
C4A C 0.2357(9) 1.8467(8) -0.0266(8)
N1A N 0.5669(8) 1.5435(7) -0.6274(6)
O6A O 0.4297(7) 1.3551(6) -0.7245(5)
O7A O 0.4995(7) 1.8385(6) -0.7724(5)
C5A C 0.4651(10) 1.4255(8) -0.6231(7)
O8A O 0.5893(7) 1.7212(6) -0.9620(5)
C6A C 0.6095(10) 1.6275(8) -0.5097(7)
H5A H 0.7402 1.6213 -0.5007
H6A H 0.5682 1.7389 -0.5276
C7A C 0.6603(10) 1.5848(8) -0.7556(7)
H7A H 0.7838 1.6041 -0.7332
H8A H 0.6650 1.4945 -0.8143
C8A C 0.5744(9) 1.7272(8) -0.8350(7)
Tb1A Tb -0.43498(4) 0.88470(3) -0.16673(3)
O2A O -0.6437(9) 0.9305(7) -0.3578(7)
O4A O -0.2396(8) 0.9523(6) -0.3523(6)
Tb1_2 Tb -0.56502(4) 1.11530(3) 0.16673(3)
Tb1_3 Tb 0.43498(4) 1.11530(3) -0.83327(3)
Tb1_4 Tb 0.43498(4) 2.11530(3) -0.83327(3)
Tb1_5 Tb 0.43498(4) 2.11530(3) 0.16673(3)
Tb1A_2 Tb -0.43498(4) 1.88470(3) -0.16673(3)
Tb1A_3 Tb 0.56502(4) 0.88470(3) -0.16673(3)
Tb1A_4 Tb 0.56502(4) 1.88470(3) -1.16673(3)
Tb1A_5 Tb 0.56502(4) 1.88470(3) -0.16673(3)
O1A_2 O -0.1349(7) 0.7611(5) -0.1334(5)
O3_2 O 0.7165(7) 1.2386(6) 0.1194(6)
O3A_2 O -0.7165(7) 0.7614(6) -0.1194(6)
O5_2 O 0.6899(7) 1.0288(5) 0.0078(5)
O5A_2 O -0.6899(7) 0.9712(5) -0.0078(5)
O5A_3 O 0.3101(7) 0.9712(5) -0.0078(5)
O6_2 O -0.4297(7) 0.6449(6) -0.2755(5)
O6A_2 O 0.4297(7) 1.3551(6) 0.2755(5)
O7_2 O -0.4995(7) 1.1615(6) -0.2276(5)
O7A_2 O 0.4995(7) 0.8385(6) 0.2276(5)
O8A_2 O -0.4107(7) 0.7212(6) 0.0380(5)
Br1 Br 0.91609(12) 1.26799(10) 0.52201(10)
loop_
_geom_bond_atom_site_label_1
_geom_bond_atom_site_label_2
_geom_bond_site_symmetry_1
_geom_bond_site_symmetry_2
Tb1 O1 1_555 1_555
O1 C2 1_555 1_555
O2 Tb1 1_555 1_555
N1 C5 1_555 1_555
C1 H1 1_555 1_555
H2 C1 1_555 1_555
O3 C4 1_555 1_555
O4 Tb1 1_555 1_555
N2 C2 1_555 1_555
C2 C1 1_555 1_555
O5 C4 1_555 1_555
C3 N2 1_555 1_555
H3 C3 1_555 1_555
H4 C3 1_555 1_555
O6 C5 1_555 1_555
C4 C3 1_555 1_555
O7 C8 1_555 1_555
C5 C6A 1_555 1_555
O8 Tb1 1_555 1_555
C6 N1 1_555 1_555
H5 C6 1_555 1_555
H6 C6 1_555 1_555
C7 N1 1_555 1_555
H7 C7 1_555 1_555
H8 C7 1_555 1_555
C8 O8 1_555 1_555
O1A C2A 1_555 1_555
C1A N2 1_555 1_555
H1A C1A 1_555 1_555
H2A C1A 1_555 1_555
O3A C4A 1_555 1_555
N2A C1 1_555 1_555
C2A C1A 1_555 1_555
O5A C4A 1_555 1_555
C3A N2A 1_555 1_555
H3A C3A 1_555 1_555
H4A C3A 1_555 1_555
C4A C3A 1_555 1_555
N1A C5A 1_555 1_555
O6A C5A 1_555 1_555
O7A C8A 1_555 1_555
C5A C6 1_555 1_555
O8A C8A 1_555 1_555
C6A N1A 1_555 1_555
H5A C6A 1_555 1_555
H6A C6A 1_555 1_555
C7A N1A 1_555 1_555
H7A C7A 1_555 1_555
H8A C7A 1_555 1_555
C8A C7A 1_555 1_555
Tb1A O5 1_555 1_555
O2A Tb1A 1_555 1_555
O4A Tb1A 1_555 1_555
Tb1_2 O3 1_555 1_555
Tb1_3 O6A 1_555 1_555
Tb1_4 O7A 1_555 1_555
Tb1_5 O5A 1_555 1_555
Tb1A_2 O1A 1_555 1_555
Tb1A_3 O7 1_555 1_555
Tb1A_4 O8A 1_555 1_555
Tb1A_5 O6 1_555 1_555
O1A_2 Tb1A 1_555 1_555
O3_2 Tb1 1_555 1_555
O3A_2 Tb1A 1_555 1_555
O5_2 Tb1 1_555 1_555
O5A_2 Tb1A 1_555 1_555
O5A_3 Tb1 1_555 1_555
O6_2 Tb1A 1_555 1_555
O6A_2 Tb1 1_555 1_555
O7_2 Tb1A 1_555 1_555
O7A_2 Tb1 1_555 1_555
O8A_2 Tb1A 1_555 1_555
O5 Tb1_2 1_555 1_555
C7 C8 1_555 1_555
O3A Tb1A_5 1_555 1_555
N2A C2A 1_555 1_555
O5A Tb1A_5 1_555 1_555
Tb1_2 O5A_2 1_555 1_555
Tb1A_3 O5_2 1_555 1_555
Tb1A_3 O5A_3 1_555 1_555

#END
