
#######################################################################
#
#                 Cambridge Crystallographic Data Centre
#                                CCDC 
#
#######################################################################
#
# If this CIF has been generated from an entry in the Cambridge 
# Structural Database, then it will include bibliographic, chemical, 
# crystal, experimental, refinement or atomic coordinate data resulting 
# from the CCDC's data processing and validation procedures.
#
#######################################################################

data_WOBCAT
_symmetry_cell_setting           triclinic
_symmetry_space_group_name_H-M   'P -1'
_symmetry_Int_Tables_number      2
_space_group_name_Hall           '-P 1'
loop_
_symmetry_equiv_pos_site_id
_symmetry_equiv_pos_as_xyz
1 x,y,z
2 -x,-y,-z
_cell_length_a                   7.6497(3)
_cell_length_b                   8.7364(3)
_cell_length_c                   10.0064(5)
_cell_angle_alpha                86.498(3)
_cell_angle_beta                 89.456(4)
_cell_angle_gamma                85.135(3)
_cell_volume                     665.076
loop_
_atom_site_label
_atom_site_type_symbol
_atom_site_fract_x
_atom_site_fract_y
_atom_site_fract_z
La1 La 0.430490(18) 1.115324(15) 0.169024(14)
O1 O 0.1255(2) 1.24257(19) 0.13691(18)
O2 O 0.4257(2) 1.36108(19) 0.27972(18)
O3 O 0.5988(2) 1.7243(2) 0.04595(18)
O4 O -0.3018(2) 1.03398(19) 0.00663(18)
O5 O 0.4975(3) 1.8318(2) 0.23194(19)
N1 N 0.5687(3) 1.5430(2) 0.3729(2)
N2 N -0.0290(3) 1.3529(2) -0.0375(2)
O6 O -0.2857(2) 1.2460(2) 0.1130(2)
O7 O 0.2283(3) 1.0483(2) 0.3651(2)
C1 C -0.0864(3) 1.2051(3) -0.0689(3)
H1 H 0.0136 1.1254 -0.0599
H2 H -0.1276 1.2106 -0.1627
C2 C 0.4639(3) 1.4296(3) 0.3799(3)
C3 C 0.6124(4) 1.6243(3) 0.4896(3)
H3 H 0.5735 1.7347 0.4724
H4 H 0.7417 1.6161 0.4985
C4 C 0.1191(3) 1.5116(3) 0.1092(3)
H5 H 0.0958 1.5188 0.2062
H6 H 0.2471 1.5152 0.0953
C5 C -0.2340(3) 1.1603(3) 0.0246(3)
C6 C 0.0691(3) 1.3595(3) 0.0696(3)
O8 O 0.6505(3) 1.0727(2) 0.3605(2)
C7 C 0.6585(3) 1.5826(3) 0.2487(3)
H7 H 0.6612 1.4940 0.1913
H8 H 0.7814 1.5995 0.2695
C8 C 0.5756(3) 1.7255(3) 0.1696(3)
H9 H 0.206(5) 0.966(5) 0.392(4)
H10 H 0.147(5) 1.114(4) 0.389(4)
H11 H 0.725(7) 1.150(6) 0.399(6)
H12 H 0.689(6) 1.016(5) 0.395(5)
O1A O -0.1255(2) 1.75743(19) -0.13691(18)
O4A O 0.3018(2) 1.96602(19) -0.00663(18)
N2A N 0.0290(3) 1.6471(2) 0.0375(2)
O6A O 0.2857(2) 1.7540(2) -0.1130(2)
C1A C 0.0864(3) 1.7949(3) 0.0689(3)
H1A H -0.0136 1.8746 0.0599
H2A H 0.1276 1.7894 0.1627
C4A C -0.1191(3) 1.4884(3) -0.1092(3)
H5A H -0.0958 1.4812 -0.2062
H6A H -0.2471 1.4848 -0.0953
C5A C 0.2340(3) 1.8397(3) -0.0246(3)
C6A C -0.0691(3) 1.6405(3) -0.0696(3)
O2A O 0.5743(2) 1.63892(19) 0.72028(18)
O3A O 0.4012(2) 1.2757(2) 0.95405(18)
O5A O 0.5025(3) 1.1682(2) 0.76806(19)
N1A N 0.4313(3) 1.4570(2) 0.6271(2)
C2A C 0.5361(3) 1.5704(3) 0.6201(3)
C3A C 0.3876(4) 1.3757(3) 0.5104(3)
H3A H 0.4265 1.2653 0.5276
H4A H 0.2583 1.3839 0.5015
C7A C 0.3415(3) 1.4174(3) 0.7513(3)
H7A H 0.3388 1.5060 0.8087
H8A H 0.2186 1.4005 0.7305
C8A C 0.4244(3) 1.2745(3) 0.8304(3)
La1A La -0.430490(18) 0.884676(15) -0.169024(14)
O7A O -0.2283(3) 0.9517(2) -0.3651(2)
O8A O -0.6505(3) 0.9273(2) -0.3605(2)
H9A H -0.206(5) 1.034(5) -0.392(4)
H10A H -0.147(5) 0.886(4) -0.389(4)
H11A H -0.725(7) 0.850(6) -0.399(6)
H12A H -0.689(6) 0.984(5) -0.395(5)
La1_2 La -0.569510(18) 1.115324(15) 0.169024(14)
La1_3 La 0.430490(18) 1.115324(15) 1.169024(14)
La1_4 La 0.430490(18) 2.115324(15) 0.169024(14)
La1A_2 La -0.430490(18) 1.884676(15) -0.169024(14)
La1A_3 La 0.569510(18) 0.884676(15) 0.830976(14)
La1A_4 La 0.569510(18) 1.884676(15) -0.169024(14)
La1A_5 La 0.569510(18) 1.884676(15) 0.830976(14)
O1A_2 O -0.1255(2) 0.75743(19) -0.13691(18)
O2A_2 O -0.4257(2) 0.63892(19) -0.27972(18)
O3_2 O -0.4012(2) 0.7243(2) 0.04595(18)
O3A_2 O 0.4012(2) 1.2757(2) -0.04595(18)
O4_2 O 0.6982(2) 1.03398(19) 0.00663(18)
O4A_2 O -0.6982(2) 0.96602(19) -0.00663(18)
O4A_3 O 0.3018(2) 0.96602(19) -0.00663(18)
O5_2 O 0.4975(3) 0.8318(2) 0.23194(19)
O5A_2 O -0.4975(3) 1.1682(2) -0.23194(19)
O6_2 O 0.7143(2) 1.2460(2) 0.1130(2)
O6A_2 O -0.7143(2) 0.7540(2) -0.1130(2)
Br1 Br 1.08245(4) 1.72985(3) 0.47657(4)
loop_
_geom_bond_atom_site_label_1
_geom_bond_atom_site_label_2
_geom_bond_site_symmetry_1
_geom_bond_site_symmetry_2
La1 O1 1_555 1_555
O1 C6 1_555 1_555
O2 La1 1_555 1_555
O3 C8 1_555 1_555
O4 C5 1_555 1_555
O5 C8 1_555 1_555
N1 C2 1_555 1_555
N2 C1 1_555 1_555
O6 C5 1_555 1_555
O7 La1 1_555 1_555
C1 H1 1_555 1_555
H2 C1 1_555 1_555
C2 O2 1_555 1_555
C3 N1 1_555 1_555
H3 C3 1_555 1_555
H4 C3 1_555 1_555
C4 H5 1_555 1_555
H6 C4 1_555 1_555
C5 C1 1_555 1_555
C6 N2 1_555 1_555
O8 La1 1_555 1_555
C7 N1 1_555 1_555
H7 C7 1_555 1_555
H8 C7 1_555 1_555
C8 C7 1_555 1_555
H9 O7 1_555 1_555
H10 O7 1_555 1_555
H11 O8 1_555 1_555
H12 O8 1_555 1_555
O1A C6A 1_555 1_555
O4A C5A 1_555 1_555
N2A C4 1_555 1_555
O6A C5A 1_555 1_555
C1A N2A 1_555 1_555
H1A C1A 1_555 1_555
H2A C1A 1_555 1_555
C4A N2 1_555 1_555
H5A C4A 1_555 1_555
H6A C4A 1_555 1_555
C5A C1A 1_555 1_555
C6A N2A 1_555 1_555
O2A C2A 1_555 1_555
O3A C8A 1_555 1_555
O5A C8A 1_555 1_555
N1A C2A 1_555 1_555
C2A C3 1_555 1_555
C3A C2 1_555 1_555
H3A C3A 1_555 1_555
H4A C3A 1_555 1_555
C7A N1A 1_555 1_555
H7A C7A 1_555 1_555
H8A C7A 1_555 1_555
C8A C7A 1_555 1_555
La1A O4 1_555 1_555
O7A La1A 1_555 1_555
O8A La1A 1_555 1_555
H9A O7A 1_555 1_555
H10A O7A 1_555 1_555
H11A O8A 1_555 1_555
H12A O8A 1_555 1_555
La1_2 O4 1_555 1_555
La1_3 O3A 1_555 1_555
La1_4 O5 1_555 1_555
La1A_2 O1A 1_555 1_555
La1A_3 O5A 1_555 1_555
La1A_4 O3 1_555 1_555
La1A_5 O2A 1_555 1_555
O1A_2 La1A 1_555 1_555
O2A_2 La1A 1_555 1_555
O3_2 La1A 1_555 1_555
O3A_2 La1 1_555 1_555
O4_2 La1 1_555 1_555
O4A_2 La1A 1_555 1_555
O4A_3 La1 1_555 1_555
O5_2 La1 1_555 1_555
O5A_2 La1A 1_555 1_555
O6_2 La1 1_555 1_555
O6A_2 La1A 1_555 1_555
O6 La1_2 1_555 1_555
C4 C6 1_555 1_555
O4A La1_4 1_555 1_555
O4A La1A_4 1_555 1_555
O6A La1A_4 1_555 1_555
C4A C6A 1_555 1_555
N1A C3A 1_555 1_555
La1_2 O4A_2 1_555 1_555

#END
