
#######################################################################
#
#                 Cambridge Crystallographic Data Centre
#                                CCDC 
#
#######################################################################
#
# If this CIF has been generated from an entry in the Cambridge 
# Structural Database, then it will include bibliographic, chemical, 
# crystal, experimental, refinement or atomic coordinate data resulting 
# from the CCDC's data processing and validation procedures.
#
#######################################################################

data_WOBDOI
_symmetry_cell_setting           triclinic
_symmetry_space_group_name_H-M   'P -1'
_symmetry_Int_Tables_number      2
_space_group_name_Hall           '-P 1'
loop_
_symmetry_equiv_pos_site_id
_symmetry_equiv_pos_as_xyz
1 x,y,z
2 -x,-y,-z
_cell_length_a                   11.3450(12)
_cell_length_b                   12.1640(13)
_cell_length_c                   13.1690(14)
_cell_angle_alpha                88.9070(18)
_cell_angle_beta                 72.3550(17)
_cell_angle_gamma                74.5680(17)
_cell_volume                     1665.64
loop_
_atom_site_label
_atom_site_type_symbol
_atom_site_fract_x
_atom_site_fract_y
_atom_site_fract_z
Mo1 Mo 0.23051(8) 0.95059(8) 0.76989(7)
Mo2 Mo -0.06275(8) 1.10769(8) 0.78110(7)
Mo3 Mo 0.30666(10) 0.83443(9) 0.98045(8)
Mo4 Mo -0.04017(9) 0.87092(8) 0.96850(7)
Cu1 Cu 0.34349(11) 1.08483(11) 0.52263(11)
Cu2 Cu 0.14453(11) 0.91222(11) 0.50791(11)
O1 O -0.0817(9) 0.7492(8) 0.9554(8)
N1 N 0.4810(7) 1.1509(7) 0.5283(7)
O2 O -0.1640(7) 1.0879(7) 0.7149(6)
C1 C 0.5858(9) 1.2563(9) 0.5659(8)
O3 O 0.2911(7) 1.0533(6) 0.6986(6)
C2 C -0.1623(10) 1.5031(9) 0.2738(8)
O4 O 0.1291(7) 0.8490(7) 0.9012(6)
O5 O 0.3813(8) 0.7082(8) 0.9066(7)
O6 O 0.3202(7) 0.8266(6) 0.6974(6)
N2 N 0.6300(9) 1.8325(8) 0.7719(8)
O7 O -0.1344(8) 0.9851(8) 0.9132(7)
N3 N 0.1436(8) 1.2481(7) 0.4480(7)
H1 H 0.1798 1.3029 0.4364
O8 O -0.0004(7) 1.2100(7) 0.7160(6)
N4 N 0.0072(8) 1.1442(7) 0.4592(7)
N5 N 0.6546(9) 1.6521(8) 0.7368(7)
N6 N 0.6676(7) 1.1521(7) 0.5372(7)
C3 C 0.7212(12) 1.6574(10) 0.8079(10)
H2 H 0.7674 1.5959 0.8357
C4 C 0.6004(10) 1.7589(9) 0.7169(8)
H3 H 0.5500 1.7786 0.6718
O9 O 0.3118(7) 0.9459(7) 0.8805(6)
O10 O 0.0728(7) 1.0923(8) 0.8910(6)
C5 C 0.5191(10) 1.4634(9) 0.6166(8)
H4 H 0.4472 1.4685 0.5950
C6 C 0.7330(10) 1.4476(9) 0.6821(9)
H5 H 0.8048 1.4428 0.7038
N7 N -0.2307(9) 1.5913(8) 0.2220(7)
C7 C -0.1794(11) 1.3944(9) 0.2726(9)
H6 H -0.2324 1.3779 0.2367
C8 C -0.0838(13) 1.5275(10) 0.3268(10)
H7 H -0.0741 1.6009 0.3287
C9 C 0.0346(9) 1.2447(9) 0.4313(8)
N8 N 0.1844(8) 1.1471(7) 0.4869(7)
C10 C -0.3573(12) 1.6837(10) 0.1320(10)
H8 H -0.4116 1.7018 0.0899
O11 O 0.4145(9) 0.8566(9) 1.0392(7)
C11 C 0.6417(10) 1.5511(9) 0.6911(8)
N9 N 0.5986(7) 1.0867(7) 0.5156(7)
C12 C 0.5327(10) 1.5604(9) 0.6593(9)
H9 H 0.4710 1.6301 0.6667
N10 N 0.1037(7) 1.0853(7) 0.4932(6)
C13 C -0.0390(9) 1.3348(8) 0.3806(8)
O12 O -0.1816(7) 1.2049(7) 0.9058(6)
C14 C -0.0195(11) 1.4424(10) 0.3773(10)
H10 H 0.0375 1.4578 0.4094
C15 C -0.2456(12) 1.7024(10) 0.2364(9)
H11 H -0.2099 1.7353 0.2786
C16 C 0.7166(10) 1.3507(9) 0.6402(9)
H12 H 0.7766 1.2804 0.6356
C17 C -0.1163(10) 1.3103(9) 0.3257(9)
H13 H -0.1262 1.2369 0.3242
N11 N 0.4696(8) 1.2566(7) 0.5601(7)
H14 H 0.4020 1.3135 0.5742
C18 C 0.6101(9) 1.3582(9) 0.6050(8)
C19 C -0.3010(12) 1.5772(11) 0.1557(10)
H15 H -0.3083 1.5084 0.1322
O13 O 0.0757(7) 0.9714(6) 0.7319(6)
N12 N -0.3190(10) 1.7585(8) 0.1814(8)
C20 C 0.7061(12) 1.7693(10) 0.8291(10)
H16 H 0.7408 1.7989 0.8743
Mo3A Mo -0.30666(10) 1.16557(9) 1.01955(8)
Mo4A Mo 0.04017(9) 1.12908(8) 1.03150(7)
Cu1A Cu 0.65651(11) 0.91517(11) 0.47737(11)
Cu2A Cu -0.14453(11) 1.08778(11) 0.49209(11)
Cu2A_2 Cu 0.85547(11) 1.08778(11) 0.49209(11)
N4A N -0.0072(8) 0.8558(7) 0.5408(7)
N6A N 0.3324(7) 0.8479(7) 0.4628(7)
O10A O -0.0728(7) 0.9077(8) 1.1090(6)
N9A N 0.4014(7) 0.9133(7) 0.4844(7)
O12A O 0.1816(7) 0.7951(7) 1.0942(6)
O14 O 0.8220(19) 0.4349(10) 0.9170(11)
O15 O 1.0000 0.5000 1.0000
O16 O 0.5752(8) 2.0624(7) 0.7736(6)
loop_
_geom_bond_atom_site_label_1
_geom_bond_atom_site_label_2
_geom_bond_site_symmetry_1
_geom_bond_site_symmetry_2
Mo1 O3 1_555 1_555
Mo2 O2 1_555 1_555
Mo3 O4 1_555 1_555
Mo4 O1 1_555 1_555
Cu1 N1 1_555 1_555
Cu2 N10 1_555 1_555
N1 N9 1_555 1_555
C1 N6 1_555 1_555
O3 Cu1 1_555 1_555
C2 N7 1_555 1_555
O4 Mo1 1_555 1_555
O5 Mo3 1_555 1_555
O6 Mo1 1_555 1_555
N2 C4 1_555 1_555
O7 Mo2 1_555 1_555
N3 H1 1_555 1_555
O8 Mo2 1_555 1_555
N4 C9 1_555 1_555
N5 C3 1_555 1_555
N6 N9 1_555 1_555
C3 H2 1_555 1_555
C4 N5 1_555 1_555
H3 C4 1_555 1_555
O9 Mo1 1_555 1_555
O10 Mo1 1_555 1_555
C5 H4 1_555 1_555
C6 H5 1_555 1_555
N7 C15 1_555 1_555
C7 C2 1_555 1_555
H6 C7 1_555 1_555
C8 C2 1_555 1_555
H7 C8 1_555 1_555
C9 N3 1_555 1_555
N8 Cu1 1_555 1_555
C10 H8 1_555 1_555
O11 Mo3 1_555 1_555
C11 N5 1_555 1_555
N9 Cu1A 1_555 1_555
C12 C5 1_555 1_555
H9 C12 1_555 1_555
N10 N4 1_555 1_555
C13 C9 1_555 1_555
O12 Mo2 1_555 1_555
C14 C8 1_555 1_555
H10 C14 1_555 1_555
C15 H11 1_555 1_555
C16 C6 1_555 1_555
H12 C16 1_555 1_555
C17 C7 1_555 1_555
H13 C17 1_555 1_555
N11 N1 1_555 1_555
H14 N11 1_555 1_555
C18 C1 1_555 1_555
C19 N7 1_555 1_555
H15 C19 1_555 1_555
O13 Mo1 1_555 1_555
N12 C10 1_555 1_555
C20 N2 1_555 1_555
H16 C20 1_555 1_555
Mo3A O12 1_555 1_555
Mo4A O10 1_555 1_555
Cu2A N4 1_555 1_555
Cu2A_2 N6 1_555 1_555
N4A Cu2 1_555 1_555
N6A Cu2 1_555 1_555
O10A Mo4 1_555 1_555
N9A Cu1 1_555 1_555
O12A Mo3 1_555 1_555
Mo2 O10 1_555 1_555
Mo2 O13 1_555 1_555
Mo3 O9 1_555 1_555
Mo4 O4 1_555 1_555
Mo4 O7 1_555 1_555
C1 N11 1_555 1_555
N3 N8 1_555 1_555
C3 C20 1_555 1_555
C5 C18 1_555 1_555
C6 C11 1_555 1_555
N8 N10 1_555 1_555
C10 C19 1_555 1_555
C11 C12 1_555 1_555
C13 C14 1_555 1_555
C13 C17 1_555 1_555
C15 N12 1_555 1_555
C16 C18 1_555 1_555
N6A N9A 1_555 1_555

#END
