
#######################################################################
#
#                 Cambridge Crystallographic Data Centre
#                                CCDC 
#
#######################################################################
#
# If this CIF has been generated from an entry in the Cambridge 
# Structural Database, then it will include bibliographic, chemical, 
# crystal, experimental, refinement or atomic coordinate data resulting 
# from the CCDC's data processing and validation procedures.
#
#######################################################################

data_WOBHEA
_symmetry_cell_setting           monoclinic
_symmetry_space_group_name_H-M   'P 21/n'
_symmetry_Int_Tables_number      14
_space_group_name_Hall           '-P 2yn'
loop_
_symmetry_equiv_pos_site_id
_symmetry_equiv_pos_as_xyz
1 x,y,z
2 1/2+x,1/2-y,1/2+z
3 -x,-y,-z
4 1/2-x,1/2+y,1/2-z
_cell_length_a                   17.7536(3)
_cell_length_b                   9.37460(10)
_cell_length_c                   17.8985(2)
_cell_angle_alpha                90
_cell_angle_beta                 102.9810(10)
_cell_angle_gamma                90
_cell_volume                     2902.77
loop_
_atom_site_label
_atom_site_type_symbol
_atom_site_fract_x
_atom_site_fract_y
_atom_site_fract_z
Sn1 Sn -0.58926(2) 0.25654(2) 0.219490(10)
O1 O -0.5040(2) 0.1554(3) 0.3195(2)
O2 O -0.4101(2) 0.3179(4) 0.3319(2)
O3 O -0.1821(2) 0.1391(3) 0.62700(10)
O4 O -0.1986(2) 0.3116(4) 0.5384(2)
N1 N -0.3293(2) 0.1854(4) 0.4594(2)
C1 C -0.6707(3) 0.0980(5) 0.2371(3)
C2 C -0.647(3) -0.058(2) 0.247(2)
C3 C -0.608(2) -0.109(2) 0.1850(10)
C4 C -0.637(2) -0.248(2) 0.1460(10)
C8 C -0.5910(3) 0.4525(4) 0.2817(2)
C9 C -0.6014(3) 0.4362(5) 0.3629(3)
C10 C -0.6067(3) 0.5779(5) 0.4035(3)
C11 C -0.5347(4) 0.6663(7) 0.4168(3)
C12 C -0.5130(3) 0.2310(5) 0.1452(3)
C13 C -0.4707(4) 0.3638(7) 0.1289(3)
C14 C -0.4161(5) 0.3339(9) 0.0762(5)
C15 C -0.3715(6) 0.4610(10) 0.0600(6)
C16 C -0.4388(2) 0.2092(4) 0.3517(2)
C17 C -0.3950(2) 0.1260(4) 0.4218(2)
C18 C -0.4232(2) 0.0004(4) 0.4441(2)
C19 C -0.3819(3) -0.0649(5) 0.5094(3)
C20 C -0.3140(2) -0.0047(4) 0.5498(2)
C21 C -0.2896(2) 0.1210(4) 0.5227(2)
C22 C -0.2171(2) 0.1973(5) 0.5650(2)
H3 H -0.6886 0.1256 0.2824
H4 H -0.7149 0.1036 0.1941
H5 H -0.6119 -0.0704 0.2964
H6 H -0.6923 -0.1157 0.2457
H7 H -0.5528 -0.1192 0.2075
H8 H -0.6130 -0.0350 0.1461
H9 H -0.6083 -0.2694 0.1072
H10 H -0.6907 -0.2392 0.1219
H11 H -0.6296 -0.3235 0.1828
H19 H -0.5429 0.5028 0.2834
H20 H -0.6326 0.5116 0.2534
H21 H -0.5583 0.3820 0.3924
H22 H -0.6482 0.3820 0.3619
H23 H -0.6489 0.6330 0.3732
H24 H -0.6191 0.5586 0.4526
H25 H -0.5428 0.7534 0.4421
H26 H -0.5224 0.6880 0.3685
H27 H -0.4928 0.6143 0.4483
H28 H -0.4749 0.1596 0.1670
H29 H -0.5423 0.1939 0.0967
H30 H -0.4414 0.4025 0.1770
H31 H -0.5082 0.4351 0.1054
H32 H -0.3799 0.2603 0.0994
H33 H -0.4460 0.2969 0.0280
H34 H -0.3390 0.4336 0.0262
H35 H -0.3401 0.4961 0.1071
H36 H -0.4067 0.5337 0.0363
H37 H -0.4688 -0.0393 0.4159
H38 H -0.3998 -0.1495 0.5264
H39 H -0.2855 -0.0475 0.5940
O3A O -0.6821(2) 0.3609(3) 0.12700(10)
Sn1A Sn -0.08926(2) 0.24346(2) 0.719490(10)
N2 N -0.2712(2) 0.4356(4) 0.4011(2)
C23 C -0.2877(4) 0.5856(6) 0.4216(4)
C24 C -0.2195(3) 0.4203(6) 0.3492(3)
C25 C -0.2421(4) 0.4690(10) 0.2747(4)
C26 C -0.1896(6) 0.4480(10) 0.2269(4)
C27 C -0.1216(6) 0.3900(10) 0.2507(5)
C28 C -0.0999(5) 0.3410(10) 0.3240(6)
C29 C -0.1504(4) 0.3622(9) 0.3739(4)
H1 H -0.2507 0.3883 0.4446
H2 H -0.3164 0.3932 0.3797
H40 H -0.3223 0.5843 0.4559
H41 H -0.3112 0.6370 0.3759
H42 H -0.2403 0.6316 0.4461
H43 H -0.2895 0.5133 0.2568
H44 H -0.2043 0.4769 0.1759
H45 H -0.0881 0.3821 0.2177
H46 H -0.0528 0.2953 0.3410
H47 H -0.1348 0.3346 0.4249
C5? C 0.355(3) -0.051(2) 0.2640(10)
C6? C 0.393(2) -0.138(2) 0.2110(10)
C7? C 0.342(2) -0.160(2) 0.1310(10)
H12? H 0.3110 -0.1029 0.2725
H13? H 0.3920 -0.0427 0.3131
H14? H 0.4069 -0.2302 0.2341
H15? H 0.4400 -0.0905 0.2060
H16? H 0.3705 -0.2131 0.1003
H17? H 0.3273 -0.0697 0.1073
H18? H 0.2967 -0.2130 0.1346
loop_
_geom_bond_atom_site_label_1
_geom_bond_atom_site_label_2
_geom_bond_site_symmetry_1
_geom_bond_site_symmetry_2
Sn1 O1 1_555 1_555
O1 C16 1_555 1_555
O2 C16 1_555 1_555
O3 C22 1_555 1_555
O4 C22 1_555 1_555
N1 C17 1_555 1_555
N2 C23 1_555 1_555
C1 Sn1 1_555 1_555
C2 C1 1_555 1_555
C3 C2 1_555 1_555
C4 C3 1_555 1_555
C8 Sn1 1_555 1_555
C9 C8 1_555 1_555
C10 C9 1_555 1_555
C11 C10 1_555 1_555
C12 Sn1 1_555 1_555
C13 C12 1_555 1_555
C14 C13 1_555 1_555
C15 C14 1_555 1_555
C16 C17 1_555 1_555
C17 C18 1_555 1_555
C18 C19 1_555 1_555
C19 C20 1_555 1_555
C20 C21 1_555 1_555
C21 N1 1_555 1_555
C22 C21 1_555 1_555
C23 H40 1_555 1_555
C24 N2 1_555 1_555
C25 C24 1_555 1_555
C26 C25 1_555 1_555
C27 C26 1_555 1_555
C28 C27 1_555 1_555
C29 C24 1_555 1_555
H1 N2 1_555 1_555
H2 N2 1_555 1_555
H3 C1 1_555 1_555
H4 C1 1_555 1_555
H5 C2 1_555 1_555
H6 C2 1_555 1_555
H7 C3 1_555 1_555
H8 C3 1_555 1_555
H9 C4 1_555 1_555
H10 C4 1_555 1_555
H11 C4 1_555 1_555
H19 C8 1_555 1_555
H20 C8 1_555 1_555
H21 C9 1_555 1_555
H22 C9 1_555 1_555
H23 C10 1_555 1_555
H24 C10 1_555 1_555
H25 C11 1_555 1_555
H26 C11 1_555 1_555
H27 C11 1_555 1_555
H28 C12 1_555 1_555
H29 C12 1_555 1_555
H30 C13 1_555 1_555
H31 C13 1_555 1_555
H32 C14 1_555 1_555
H33 C14 1_555 1_555
H34 C15 1_555 1_555
H35 C15 1_555 1_555
H36 C15 1_555 1_555
H37 C18 1_555 1_555
H38 C19 1_555 1_555
H39 C20 1_555 1_555
H41 C23 1_555 1_555
H42 C23 1_555 1_555
H43 C25 1_555 1_555
H44 C26 1_555 1_555
H45 C27 1_555 1_555
H46 C28 1_555 1_555
H47 C29 1_555 1_555
O3A Sn1 1_555 1_555
Sn1A O3 1_555 1_555
C28 C29 1_555 1_555

#END
