
#######################################################################
#
#                 Cambridge Crystallographic Data Centre
#                                CCDC 
#
#######################################################################
#
# If this CIF has been generated from an entry in the Cambridge 
# Structural Database, then it will include bibliographic, chemical, 
# crystal, experimental, refinement or atomic coordinate data resulting 
# from the CCDC's data processing and validation procedures.
#
#######################################################################

data_WOBHAW
_symmetry_cell_setting           monoclinic
_symmetry_space_group_name_H-M   'P 21/c'
_symmetry_Int_Tables_number      14
_space_group_name_Hall           '-P 2ybc'
loop_
_symmetry_equiv_pos_site_id
_symmetry_equiv_pos_as_xyz
1 x,y,z
2 x,1/2-y,1/2+z
3 -x,-y,-z
4 -x,1/2+y,1/2-z
_cell_length_a                   18.1212(3)
_cell_length_b                   18.0363(2)
_cell_length_c                   21.89370(10)
_cell_angle_alpha                90
_cell_angle_beta                 98.4540(10)
_cell_angle_gamma                90
_cell_volume                     7077.97
loop_
_atom_site_label
_atom_site_type_symbol
_atom_site_fract_x
_atom_site_fract_y
_atom_site_fract_z
Sn1 Sn -0.61557(3) 0.24258(3) -0.01880(2)
O1 O -0.6262(3) 0.1835(3) 0.0718(2)
O2 O -0.5720(3) 0.2729(3) 0.1329(2)
O3 O -0.6176(4) 0.1968(3) 0.3890(2)
O4 O -0.5539(4) 0.2755(3) 0.3372(2)
O5 O -0.6001(2) 0.2044(2) 0.2324(2)
O6 O -0.6869(3) -0.0031(3) 0.2297(2)
C1 C -0.6726(6) 0.1500(6) -0.0637(4)
C2 C -0.7559(7) 0.1542(8) -0.0599(7)
C3 C -0.7975(7) 0.0856(8) -0.0853(8)
C4 C -0.8805(7) 0.1001(9) -0.0904(8)
C5 C -0.4970(6) 0.2388(6) 0.0000(5)
C6 C -0.4744(8) 0.1562(7) 0.0011(8)
C7 C -0.3923(8) 0.1408(9) 0.0100(10)
C8 C -0.3860(10) 0.0590(10) -0.0070(10)
C9 C -0.6809(7) 0.3291(6) 0.0063(5)
C10 C -0.6760(10) 0.4106(8) -0.0070(10)
C11 C -0.5970(10) 0.4360(10) 0.0210(10)
C12 C -0.592(2) 0.5120(10) -0.014(2)
C13 C -0.6050(4) 0.2137(4) 0.1231(3)
C14 C -0.6210(3) 0.1678(4) 0.1780(2)
C15 C -0.6517(4) 0.1013(4) 0.1748(3)
C16 C -0.6640(4) 0.0605(4) 0.2304(3)
C17 C -0.6451(4) 0.1038(4) 0.2862(3)
C18 C -0.6148(4) 0.1700(4) 0.2853(2)
C19 C -0.5918(5) 0.2209(5) 0.3417(3)
H3 H -0.6651 0.1491 -0.1066
H4 H -0.6523 0.1046 -0.0443
H5 H -0.7628 0.1608 -0.0171
H6 H -0.7768 0.1972 -0.0829
H7 H -0.7838 0.0438 -0.0581
H8 H -0.7846 0.0738 -0.1257
H9 H -0.9074 0.0571 -0.1073
H10 H -0.8935 0.1418 -0.1170
H11 H -0.8931 0.1104 -0.0502
H12 H -0.4754 0.2650 -0.0318
H13 H -0.4795 0.2618 0.0395
H14 H -0.4957 0.1319 0.0340
H15 H -0.4965 0.1338 -0.0375
H16 H -0.3705 0.1492 0.0528
H17 H -0.3673 0.1722 -0.0163
H18 H -0.3346 0.0464 -0.0061
H19 H -0.4123 0.0513 -0.0481
H20 H -0.4078 0.0289 0.0215
H21 H -0.7318 0.3155 -0.0100
H22 H -0.6772 0.3257 0.0508
H23 H -0.7129 0.4378 0.0114
H24 H -0.6841 0.4193 -0.0513
H25 H -0.5590 0.4016 0.0117
H26 H -0.5925 0.4436 0.0649
H27 H -0.5453 0.5352 0.0004
H28 H -0.6323 0.5431 -0.0067
H29 H -0.5954 0.5022 -0.0577
H30 H -0.6660 0.0798 0.1363
H31 H -0.6547 0.0844 0.3236
O3A O -0.6176(4) 0.3032(3) -0.1110(2)
Sn1A Sn -0.61557(3) 0.25742(3) 0.48120(2)
N1 N -0.5040(3) 0.3469(3) 0.2380(2)
C20 C -0.5325(4) 0.4239(4) 0.2426(3)
C21 C -0.5067(4) 0.4564(4) 0.3065(4)
C22 C -0.5387(5) 0.5341(5) 0.3125(5)
C23 C -0.6237(5) 0.5325(6) 0.2983(6)
C24 C -0.6492(5) 0.5009(5) 0.2338(5)
C25 C -0.6177(4) 0.4225(4) 0.2285(4)
C26 C -0.4222(4) 0.3393(4) 0.2344(3)
C27 C -0.3990(4) 0.2601(4) 0.2505(5)
C28 C -0.3157(5) 0.2496(7) 0.2483(6)
C29 C -0.2995(5) 0.2689(6) 0.1840(6)
C30 C -0.3231(4) 0.3481(6) 0.1661(5)
C31 C -0.4055(4) 0.3611(5) 0.1709(3)
H1 H -0.5296 0.3255 0.2042
H2 H -0.5140 0.3211 0.2710
H32 H -0.5132 0.4548 0.2118
H33 H -0.4526 0.4588 0.3137
H34 H -0.5226 0.4242 0.3377
H35 H -0.5236 0.5524 0.3541
H36 H -0.5191 0.5674 0.2841
H37 H -0.6431 0.5824 0.3007
H38 H -0.6435 0.5023 0.3288
H39 H -0.6322 0.5329 0.2031
H40 H -0.7033 0.4992 0.2259
H41 H -0.6374 0.3897 0.2573
H42 H -0.6330 0.4036 0.1871
H43 H -0.3945 0.3725 0.2651
H44 H -0.4275 0.2265 0.2215
H45 H -0.4097 0.2484 0.2916
H46 H -0.2868 0.2815 0.2786
H47 H -0.3015 0.1986 0.2581
H48 H -0.3260 0.2347 0.1543
H49 H -0.2465 0.2633 0.1826
H50 H -0.3146 0.3577 0.1241
H51 H -0.2928 0.3825 0.1931
H52 H -0.4176 0.4130 0.1634
H53 H -0.4363 0.3320 0.1397
Sn2 Sn -0.11761(4) 0.27728(3) 0.45858(2)
O7 O -0.1291(4) 0.2207(3) 0.3642(2)
O8 O -0.0663(4) 0.2965(3) 0.3101(2)
O9 O -0.1143(3) 0.1692(3) 0.0539(2)
O10 O -0.0649(4) 0.2662(3) 0.1076(2)
O11 O -0.0988(2) 0.2109(2) 0.2110(2)
O12 O -0.1790(3) 0.0027(3) 0.2234(3)
C32 C -0.1917(7) 0.1914(8) 0.4868(5)
C33 C -0.2636(9) 0.2010(10) 0.4416(9)
C34 C -0.3130(10) 0.1340(10) 0.4470(10)
C35 C -0.3830(10) 0.137(2) 0.3980(10)
C36 C -0.0007(6) 0.2498(6) 0.4712(5)
C37 C 0.0086(7) 0.1642(6) 0.4733(7)
C38 C 0.0904(8) 0.1419(9) 0.4738(9)
C39 C 0.0980(10) 0.0579(9) 0.4930(10)
C40 C -0.1647(6) 0.3795(6) 0.4219(4)
C41 C -0.1076(7) 0.4417(6) 0.4278(6)
C42 C -0.1438(7) 0.5163(6) 0.4056(7)
C43 C -0.0800(9) 0.5724(8) 0.4079(8)
C44 C -0.1022(5) 0.2405(5) 0.3170(3)
C45 C -0.1178(4) 0.1849(4) 0.2653(2)
C46 C -0.1457(4) 0.1175(4) 0.2705(3)
C47 C -0.1585(4) 0.0668(4) 0.2189(3)
C48 C -0.1420(4) 0.0989(4) 0.1624(3)
C49 C -0.1137(4) 0.1665(4) 0.1600(2)
C50 C -0.0944(5) 0.2054(4) 0.1029(3)
H56 H -0.1708 0.1424 0.4833
H57 H -0.2003 0.1991 0.5290
H58 H -0.2894 0.2457 0.4515
H59 H -0.2524 0.2055 0.3998
H60 H -0.3267 0.1316 0.4878
H61 H -0.2847 0.0889 0.4407
H62 H -0.4093 0.0905 0.3974
H63 H -0.3695 0.1465 0.3582
H64 H -0.4152 0.1761 0.4086
H65 H 0.0222 0.2700 0.4374
H66 H 0.0240 0.2713 0.5094
H67 H -0.0088 0.1450 0.5100
H68 H -0.0218 0.1425 0.4375
H69 H 0.1227 0.1720 0.5031
H70 H 0.1046 0.1490 0.4331
H71 H 0.1488 0.0425 0.4945
H72 H 0.0666 0.0284 0.4628
H73 H 0.0825 0.0513 0.5326
H74 H -0.1847 0.3727 0.3787
H75 H -0.2056 0.3933 0.4436
H76 H -0.0686 0.4297 0.4035
H77 H -0.0849 0.4462 0.4706
H78 H -0.1699 0.5118 0.3638
H79 H -0.1790 0.5320 0.4323
H80 H -0.0997 0.6198 0.3939
H81 H -0.0451 0.5558 0.3818
H82 H -0.0550 0.5767 0.4496
H83 H -0.1574 0.1025 0.3086
H84 H -0.1514 0.0713 0.1262
O9A O -0.1143(3) 0.3308(3) 0.5539(2)
Sn2A Sn -0.11761(4) 0.22272(3) -0.04142(2)
N2 N -0.0097(3) 0.3531(3) 0.2080(2)
C51 C -0.0444(3) 0.4269(4) 0.1938(3)
C52 C -0.0238(5) 0.4823(4) 0.2459(4)
C53 C -0.0594(5) 0.5584(4) 0.2278(6)
C54 C -0.1438(5) 0.5512(5) 0.2137(5)
C55 C -0.1658(5) 0.4945(5) 0.1631(5)
C56 C -0.1296(4) 0.4192(4) 0.1804(4)
C57 C 0.0735(4) 0.3487(4) 0.2144(3)
C58 C 0.1023(4) 0.3733(5) 0.1561(4)
C59 C 0.1876(4) 0.3627(6) 0.1608(5)
C60 C 0.2098(6) 0.2840(7) 0.1812(7)
C61 C 0.1831(6) 0.2621(7) 0.2417(7)
C62 C 0.0969(5) 0.2701(4) 0.2343(6)
H54 H -0.0288 0.3215 0.1780
H55 H -0.0236 0.3368 0.2435
H85 H -0.0269 0.4463 0.1567
H86 H 0.0300 0.4875 0.2545
H87 H -0.0413 0.4645 0.2831
H88 H -0.0464 0.5932 0.2614
H89 H -0.0402 0.5773 0.1918
H90 H -0.1633 0.5362 0.2507
H91 H -0.1653 0.5989 0.2008
H92 H -0.1504 0.5119 0.1250
H93 H -0.2196 0.4891 0.1562
H94 H -0.1429 0.3845 0.1467
H95 H -0.1481 0.3998 0.2165
H96 H 0.0941 0.3824 0.2477
H97 H 0.0902 0.4252 0.1485
H98 H 0.0776 0.3449 0.1213
H99 H 0.2030 0.3725 0.1210
H100 H 0.2129 0.3978 0.1904
H101 H 0.2637 0.2797 0.1862
H102 H 0.1891 0.2497 0.1491
H103 H 0.2062 0.2939 0.2749
H104 H 0.1972 0.2113 0.2520
H105 H 0.0739 0.2351 0.2037
H106 H 0.0799 0.2589 0.2733
loop_
_geom_bond_atom_site_label_1
_geom_bond_atom_site_label_2
_geom_bond_site_symmetry_1
_geom_bond_site_symmetry_2
Sn1 O1 1_555 1_555
O1 C13 1_555 1_555
O2 C13 1_555 1_555
O3 C19 1_555 1_555
O4 C19 1_555 1_555
O5 C14 1_555 1_555
O6 C16 1_555 1_555
N1 C20 1_555 1_555
C1 Sn1 1_555 1_555
C2 C1 1_555 1_555
C3 C2 1_555 1_555
C4 C3 1_555 1_555
C5 Sn1 1_555 1_555
C6 C5 1_555 1_555
C7 C6 1_555 1_555
C8 C7 1_555 1_555
C9 Sn1 1_555 1_555
C10 C9 1_555 1_555
C11 C10 1_555 1_555
C12 C11 1_555 1_555
C13 C14 1_555 1_555
C14 C15 1_555 1_555
C15 C16 1_555 1_555
C16 C17 1_555 1_555
C17 C18 1_555 1_555
C18 O5 1_555 1_555
C19 C18 1_555 1_555
C20 C21 1_555 1_555
C21 C22 1_555 1_555
C22 C23 1_555 1_555
C23 C24 1_555 1_555
C24 C25 1_555 1_555
C25 C20 1_555 1_555
C26 N1 1_555 1_555
C27 C26 1_555 1_555
C28 C27 1_555 1_555
C29 C28 1_555 1_555
C30 C29 1_555 1_555
C31 C26 1_555 1_555
Sn2 O7 1_555 1_555
O7 C44 1_555 1_555
O8 C44 1_555 1_555
O9 C50 1_555 1_555
O10 C50 1_555 1_555
O11 C45 1_555 1_555
O12 C47 1_555 1_555
N2 C51 1_555 1_555
C32 Sn2 1_555 1_555
C33 C32 1_555 1_555
C34 C33 1_555 1_555
C35 C34 1_555 1_555
C36 Sn2 1_555 1_555
C37 C36 1_555 1_555
C38 C37 1_555 1_555
C39 C38 1_555 1_555
C40 Sn2 1_555 1_555
C41 C40 1_555 1_555
C42 C41 1_555 1_555
C43 C42 1_555 1_555
C44 C45 1_555 1_555
C45 C46 1_555 1_555
C46 C47 1_555 1_555
C47 C48 1_555 1_555
C48 C49 1_555 1_555
C49 O11 1_555 1_555
C50 C49 1_555 1_555
C51 C52 1_555 1_555
C52 C53 1_555 1_555
C53 C54 1_555 1_555
C54 C55 1_555 1_555
C55 C56 1_555 1_555
C56 C51 1_555 1_555
C57 N2 1_555 1_555
C58 C57 1_555 1_555
C59 C58 1_555 1_555
C60 C59 1_555 1_555
C61 C60 1_555 1_555
C62 C57 1_555 1_555
H1 N1 1_555 1_555
H2 N1 1_555 1_555
H3 C1 1_555 1_555
H4 C1 1_555 1_555
H5 C2 1_555 1_555
H6 C2 1_555 1_555
H7 C3 1_555 1_555
H8 C3 1_555 1_555
H9 C4 1_555 1_555
H10 C4 1_555 1_555
H11 C4 1_555 1_555
H12 C5 1_555 1_555
H13 C5 1_555 1_555
H14 C6 1_555 1_555
H15 C6 1_555 1_555
H16 C7 1_555 1_555
H17 C7 1_555 1_555
H18 C8 1_555 1_555
H19 C8 1_555 1_555
H20 C8 1_555 1_555
H21 C9 1_555 1_555
H22 C9 1_555 1_555
H23 C10 1_555 1_555
H24 C10 1_555 1_555
H25 C11 1_555 1_555
H26 C11 1_555 1_555
H27 C12 1_555 1_555
H28 C12 1_555 1_555
H29 C12 1_555 1_555
H30 C15 1_555 1_555
H31 C17 1_555 1_555
H32 C20 1_555 1_555
H33 C21 1_555 1_555
H34 C21 1_555 1_555
H35 C22 1_555 1_555
H36 C22 1_555 1_555
H37 C23 1_555 1_555
H38 C23 1_555 1_555
H39 C24 1_555 1_555
H40 C24 1_555 1_555
H41 C25 1_555 1_555
H42 C25 1_555 1_555
H43 C26 1_555 1_555
H44 C27 1_555 1_555
H45 C27 1_555 1_555
H46 C28 1_555 1_555
H47 C28 1_555 1_555
H48 C29 1_555 1_555
H49 C29 1_555 1_555
H50 C30 1_555 1_555
H51 C30 1_555 1_555
H52 C31 1_555 1_555
H53 C31 1_555 1_555
H54 N2 1_555 1_555
H55 N2 1_555 1_555
H56 C32 1_555 1_555
H57 C32 1_555 1_555
H58 C33 1_555 1_555
H59 C33 1_555 1_555
H60 C34 1_555 1_555
H61 C34 1_555 1_555
H62 C35 1_555 1_555
H63 C35 1_555 1_555
H64 C35 1_555 1_555
H65 C36 1_555 1_555
H66 C36 1_555 1_555
H67 C37 1_555 1_555
H68 C37 1_555 1_555
H69 C38 1_555 1_555
H70 C38 1_555 1_555
H71 C39 1_555 1_555
H72 C39 1_555 1_555
H73 C39 1_555 1_555
H74 C40 1_555 1_555
H75 C40 1_555 1_555
H76 C41 1_555 1_555
H77 C41 1_555 1_555
H78 C42 1_555 1_555
H79 C42 1_555 1_555
H80 C43 1_555 1_555
H81 C43 1_555 1_555
H82 C43 1_555 1_555
H83 C46 1_555 1_555
H84 C48 1_555 1_555
H85 C51 1_555 1_555
H86 C52 1_555 1_555
H87 C52 1_555 1_555
H88 C53 1_555 1_555
H89 C53 1_555 1_555
H90 C54 1_555 1_555
H91 C54 1_555 1_555
H92 C55 1_555 1_555
H93 C55 1_555 1_555
H94 C56 1_555 1_555
H95 C56 1_555 1_555
H96 C57 1_555 1_555
H97 C58 1_555 1_555
H98 C58 1_555 1_555
H99 C59 1_555 1_555
H100 C59 1_555 1_555
H101 C60 1_555 1_555
H102 C60 1_555 1_555
H103 C61 1_555 1_555
H104 C61 1_555 1_555
H105 C62 1_555 1_555
H106 C62 1_555 1_555
O3A Sn1 1_555 1_555
Sn1A O3 1_555 1_555
O9A Sn2 1_555 1_555
Sn2A O9 1_555 1_555
C30 C31 1_555 1_555
C61 C62 1_555 1_555

#END
