
#######################################################################
#
#                 Cambridge Crystallographic Data Centre
#                                CCDC 
#
#######################################################################
#
# If this CIF has been generated from an entry in the Cambridge 
# Structural Database, then it will include bibliographic, chemical, 
# crystal, experimental, refinement or atomic coordinate data resulting 
# from the CCDC's data processing and validation procedures.
#
#######################################################################

data_WOBLUV01
_symmetry_cell_setting           monoclinic
_symmetry_space_group_name_H-M   'P 21'
_symmetry_Int_Tables_number      4
_space_group_name_Hall           'P 2yb'
loop_
_symmetry_equiv_pos_site_id
_symmetry_equiv_pos_as_xyz
1 x,y,z
2 -x,1/2+y,-z
_cell_length_a                   9.9812(11)
_cell_length_b                   8.961(2)
_cell_length_c                   13.9031(14)
_cell_angle_alpha                90
_cell_angle_beta                 107.504(2)
_cell_angle_gamma                90
_cell_volume                     1185.93
loop_
_atom_site_label
_atom_site_type_symbol
_atom_site_fract_x
_atom_site_fract_y
_atom_site_fract_z
C1 C 0.3070(10) 0.7108(12) -0.1239(8)
H1 H 0.3905 0.6785 -0.1400
H2 H 0.2277 0.6555 -0.1666
C2 C 0.1303(13) 1.0814(12) 0.1270(9)
H3 H 0.1941 1.1345 0.1831
H4 H 0.0351 1.1016 0.1275
C3 C 0.3001(10) 0.9212(11) -0.2441(7)
H5 H 0.3937 0.8949 -0.2478
C4 C 0.2795(11) 1.0886(13) -0.2514(9)
H6 H 0.2092 1.1168 -0.2205
H7 H 0.2498 1.1180 -0.3210
H8 H 0.3665 1.1374 -0.2172
C5 C 0.1886(9) 0.8437(10) -0.3265(8)
C6 C 0.0426(10) 0.8671(13) -0.3426(8)
H9 H 0.0136 0.9372 -0.3038
C7 C -0.0573(9) 0.7869(13) -0.4155(8)
H10 H -0.1516 0.7928 -0.4189
C8 C -0.0158(9) 0.6976(11) -0.4834(7)
H11 H -0.0826 0.6504 -0.5360
C9 C 0.1292(10) 0.6795(13) -0.4714(8)
H12 H 0.1566 0.6179 -0.5159
C10 C 0.2314(10) 0.7509(11) -0.3953(7)
H13 H 0.3261 0.7385 -0.3892
C11 C 0.1688(10) 0.8427(12) 0.2391(8)
H14 H 0.1783 0.7344 0.2337
C12 C 0.0232(10) 0.8749(10) 0.2598(7)
H15 H 0.0205 0.9771 0.2799
H16 H 0.0139 0.8105 0.3126
H17 H -0.0526 0.8566 0.1995
C13 C 0.2959(10) 0.8990(12) 0.3214(7)
C14 C 0.4261(11) 0.8578(12) 0.3125(8)
H18 H 0.4317 0.8032 0.2570
C15 C 0.5495(11) 0.8996(11) 0.3884(8)
H19 H 0.6371 0.8711 0.3841
C16 C 0.5385(9) 0.9842(14) 0.4698(7)
H20 H 0.6193 1.0144 0.5194
C17 C 0.4017(11) 1.0251(12) 0.4770(8)
H21 H 0.3937 1.0772 0.5329
C18 C 0.2863(9) 0.9870(16) 0.4023(7)
H22 H 0.1987 1.0195 0.4042
Cl1 Cl 0.2562(2) 0.4386(2) 0.24388(18)
N1 N 0.2845(8) 0.8748(9) -0.1465(6)
H23 H 0.194(11) 0.894(11) -0.150(7)
N2 N 0.1600(9) 0.9093(9) 0.1400(6)
H24 H 0.092(11) 0.862(12) 0.093(8)
H25 H 0.241(11) 0.891(11) 0.127(7)
O1 O 0.3923(6) 0.8034(7) 0.0649(5)
O2 O 0.1817(6) 0.6427(7) 0.0129(5)
O3 O 0.4179(6) 0.5246(6) 0.0307(5)
O4 O 0.0950(6) 1.2999(7) -0.0009(5)
O5 O 0.3050(6) 1.1388(8) 0.0187(5)
O6 O 0.0671(6) 1.0401(7) -0.0694(5)
P1 P 0.3260(2) 0.6688(3) 0.00288(17)
P2 P 0.1529(2) 1.1464(3) 0.01064(18)
Zn1 Zn 0.40628(9) 0.98051(14) -0.02071(7)
Zn2 Zn 0.12938(10) 0.47777(14) 0.08686(7)
O3A O 0.5821(6) 1.0246(6) -0.0307(5)
O4_2 O 0.0950(6) 0.2999(7) -0.0009(5)
O6A O -0.0671(6) 0.5401(7) 0.0694(5)
Zn1A Zn 0.59372(9) 0.48051(14) 0.02071(7)
Zn2_2 Zn 0.12938(10) 1.47777(14) 0.08686(7)
Zn2A Zn -0.12938(10) 0.97777(14) -0.08686(7)
loop_
_geom_bond_atom_site_label_1
_geom_bond_atom_site_label_2
_geom_bond_site_symmetry_1
_geom_bond_site_symmetry_2
C1 H1 1_555 1_555
H2 C1 1_555 1_555
C2 H3 1_555 1_555
H4 C2 1_555 1_555
C3 H5 1_555 1_555
C4 C3 1_555 1_555
H6 C4 1_555 1_555
H7 C4 1_555 1_555
H8 C4 1_555 1_555
C5 C3 1_555 1_555
C6 C5 1_555 1_555
H9 C6 1_555 1_555
C7 C6 1_555 1_555
H10 C7 1_555 1_555
C8 C7 1_555 1_555
H11 C8 1_555 1_555
C9 C8 1_555 1_555
H12 C9 1_555 1_555
C10 C5 1_555 1_555
H13 C10 1_555 1_555
C11 H14 1_555 1_555
C12 C11 1_555 1_555
H15 C12 1_555 1_555
H16 C12 1_555 1_555
H17 C12 1_555 1_555
C13 C11 1_555 1_555
C14 C13 1_555 1_555
H18 C14 1_555 1_555
C15 C14 1_555 1_555
H19 C15 1_555 1_555
C16 C15 1_555 1_555
H20 C16 1_555 1_555
C17 C16 1_555 1_555
H21 C17 1_555 1_555
C18 C13 1_555 1_555
H22 C18 1_555 1_555
Cl1 Zn2 1_555 1_555
N1 C1 1_555 1_555
H23 N1 1_555 1_555
N2 C2 1_555 1_555
H24 N2 1_555 1_555
H25 N2 1_555 1_555
O1 P1 1_555 1_555
O2 P1 1_555 1_555
O3 P1 1_555 1_555
O4 P2 1_555 1_555
O5 P2 1_555 1_555
O6 P2 1_555 1_555
P1 C1 1_555 1_555
P2 C2 1_555 1_555
Zn1 N1 1_555 1_555
Zn2 O2 1_555 1_555
O3A Zn1 1_555 1_555
O4_2 Zn2 1_555 1_555
O6A Zn2 1_555 1_555
Zn1A O3 1_555 1_555
Zn2_2 O4 1_555 1_555
Zn2A O6 1_555 1_555
C3 N1 1_555 1_555
C9 C10 1_555 1_555
C11 N2 1_555 1_555
C17 C18 1_555 1_555
O1 Zn1 1_555 1_555
O5 Zn1 1_555 1_555

#END
