
#######################################################################
#
#                 Cambridge Crystallographic Data Centre
#                                CCDC 
#
#######################################################################
#
# If this CIF has been generated from an entry in the Cambridge 
# Structural Database, then it will include bibliographic, chemical, 
# crystal, experimental, refinement or atomic coordinate data resulting 
# from the CCDC's data processing and validation procedures.
#
#######################################################################

data_WOBNOS
_symmetry_cell_setting           orthorhombic
_symmetry_space_group_name_H-M   'P b c a'
_symmetry_Int_Tables_number      61
_space_group_name_Hall           '-P 2ac 2ab'
loop_
_symmetry_equiv_pos_site_id
_symmetry_equiv_pos_as_xyz
1 x,y,z
2 1/2-x,-y,1/2+z
3 1/2+x,1/2-y,-z
4 -x,1/2+y,1/2-z
5 -x,-y,-z
6 1/2+x,y,1/2-z
7 1/2-x,1/2+y,z
8 x,1/2-y,1/2+z
_cell_length_a                   15.967(6)
_cell_length_b                   6.815(3)
_cell_length_c                   20.113(8)
_cell_angle_alpha                90
_cell_angle_beta                 90
_cell_angle_gamma                90
_cell_volume                     2188.6
loop_
_atom_site_label
_atom_site_type_symbol
_atom_site_fract_x
_atom_site_fract_y
_atom_site_fract_z
Cd1 Cd 0.945664(9) 0.05015(2) 0.729382(7)
O1 O 0.59113(12) 0.1471(3) 0.31701(8)
O2 O 0.48293(10) 0.2936(3) 0.36668(8)
N1 N 0.81510(12) 0.0423(3) 0.68965(9)
N2 N 0.71292(11) 0.0818(3) 0.61760(9)
N3 N 1.03681(13) -0.1904(3) 0.70314(10)
N4 N 1.08503(13) -0.1641(3) 0.65729(10)
N5 N 1.12868(19) -0.1383(5) 0.61384(15)
C1 C 0.55261(14) 0.2061(4) 0.36753(11)
C2 C 0.59345(14) 0.1738(3) 0.43420(10)
C3 C 0.67275(15) 0.0904(4) 0.43688(11)
H1 H 0.7003 0.0546 0.3968
C4 C 0.71217(15) 0.0588(4) 0.49725(11)
H2 H 0.7664 0.0017 0.4989
C5 C 0.67121(13) 0.1118(3) 0.55535(10)
C6 C 0.59204(14) 0.1957(4) 0.55382(11)
H3 H 0.5647 0.2322 0.5939
C7 C 0.55327(14) 0.2255(4) 0.49284(12)
H4 H 0.4988 0.2816 0.4913
C8 C 0.79663(14) 0.0839(3) 0.62744(10)
H5 H 0.8368 0.1116 0.5939
C9 C 0.74009(16) 0.0131(4) 0.72147(11)
H6 H 0.7339 -0.0202 0.7671
C10 C 0.67623(15) 0.0390(4) 0.67793(11)
H7 H 0.6180 0.0295 0.6871
Cd1A Cd 0.554336(9) -0.05015(2) 0.229382(7)
Cd1B Cd 0.445664(9) 0.44985(2) 0.270618(7)
Cd1C Cd 1.054336(9) -0.44985(2) 0.770618(7)
O1A O 0.90887(12) -0.1471(3) 0.81701(8)
O2B O 0.98293(10) 0.2064(3) 0.63332(8)
N3C N 0.96319(13) 0.3096(3) 0.79686(10)
loop_
_geom_bond_atom_site_label_1
_geom_bond_atom_site_label_2
_geom_bond_site_symmetry_1
_geom_bond_site_symmetry_2
Cd1 N1 1_555 1_555
O1 C1 1_555 1_555
O2 C1 1_555 1_555
N1 C8 1_555 1_555
N2 C5 1_555 1_555
N3 Cd1 1_555 1_555
N4 N3 1_555 1_555
N5 N4 1_555 1_555
C1 C2 1_555 1_555
C2 C3 1_555 1_555
C3 H1 1_555 1_555
C4 C3 1_555 1_555
H2 C4 1_555 1_555
C5 C4 1_555 1_555
C6 C5 1_555 1_555
H3 C6 1_555 1_555
C7 C2 1_555 1_555
H4 C7 1_555 1_555
C8 N2 1_555 1_555
H5 C8 1_555 1_555
C9 N1 1_555 1_555
H6 C9 1_555 1_555
C10 N2 1_555 1_555
H7 C10 1_555 1_555
Cd1A O1 1_555 1_555
Cd1B O2 1_555 1_555
Cd1C N3 1_555 1_555
O1A Cd1 1_555 1_555
O2B Cd1 1_555 1_555
N3C Cd1 1_555 1_555
C6 C7 1_555 1_555
C9 C10 1_555 1_555

#END
