
#######################################################################
#
#                 Cambridge Crystallographic Data Centre
#                                CCDC 
#
#######################################################################
#
# If this CIF has been generated from an entry in the Cambridge 
# Structural Database, then it will include bibliographic, chemical, 
# crystal, experimental, refinement or atomic coordinate data resulting 
# from the CCDC's data processing and validation procedures.
#
#######################################################################

data_WOBPUA
_symmetry_cell_setting           orthorhombic
_symmetry_space_group_name_H-M   'P c a 21'
_symmetry_Int_Tables_number      29
_space_group_name_Hall           'P 2c -2ac'
loop_
_symmetry_equiv_pos_site_id
_symmetry_equiv_pos_as_xyz
1 x,y,z
2 -x,-y,1/2+z
3 1/2-x,y,1/2+z
4 1/2+x,-y,z
_cell_length_a                   9.917(6)
_cell_length_b                   7.450(4)
_cell_length_c                   28.101(16)
_cell_angle_alpha                90
_cell_angle_beta                 90
_cell_angle_gamma                90
_cell_volume                     2076.15
loop_
_atom_site_label
_atom_site_type_symbol
_atom_site_fract_x
_atom_site_fract_y
_atom_site_fract_z
Cu1 Cu 0.27578(10) 0.15274(14) 0.43960(5)
Cu2 Cu 0.49340(10) 0.34708(14) 0.49360(6)
Cu3 Cu 0.45360(10) 0.50821(14) 0.39636(5)
Cu4 Cu 0.31478(11) -0.00776(14) 0.53689(5)
P1 P 0.7007(2) 1.2303(3) 0.39530(10)
P2 P 0.5683(2) 0.7299(4) 0.53786(12)
C1 C 0.7237(9) 0.8117(12) 0.3214(3)
C2 C 0.8048(9) 0.7054(14) 0.2927(4)
H1 H 0.8027 0.5810 0.2953
C3 C 0.8896(10) 0.7888(15) 0.2598(4)
H2 H 0.9462 0.7186 0.2411
C4 C 0.8916(11) 0.9719(16) 0.2545(4)
H3 H 0.9486 1.0248 0.2323
C5 C 0.8061(10) 1.0797(18) 0.2830(4)
H4 H 0.8073 1.2038 0.2795
C6 C 0.7194(10) 1.0008(13) 0.3166(5)
C7 C 0.6332(8) 0.7177(13) 0.3561(3)
C8 C 0.6247(9) 1.1202(13) 0.3447(4)
H5 H 0.5495 1.0482 0.3558
H6 H 0.5888 1.2113 0.3235
C9 C 0.5472(9) 0.3114(13) 0.6120(3)
C10 C 0.4651(9) 0.2063(14) 0.6425(4)
H7 H 0.4689 0.0818 0.6407
C11 C 0.3819(9) 0.2848(15) 0.6740(4)
H8 H 0.3274 0.2151 0.6936
C12 C 0.3781(11) 0.4707(15) 0.6771(5)
H9 H 0.3185 0.5255 0.6981
C13 C 0.4601(10) 0.5729(16) 0.6498(4)
H10 H 0.4578 0.6970 0.6534
C14 C 0.5475(9) 0.4996(11) 0.6166(5)
C15 C 0.6359(9) 0.2183(13) 0.5771(4)
C16 C 0.6423(9) 0.6173(13) 0.5889(3)
H11 H 0.7172 0.5444 0.5779
H12 H 0.6786 0.7076 0.6102
O1 O 0.6297(6) 0.7647(9) 0.3991(3)
O2 O 0.5621(6) 0.5882(9) 0.3411(2)
O3 O 0.7505(6) 1.1027(8) 0.4327(3)
O4 O 0.5894(6) 1.3435(9) 0.4194(2)
O5 O 0.8117(6) 1.3461(10) 0.3740(3)
O6 O 0.7085(6) 0.0868(9) 0.5922(2)
O7 O 0.6412(6) 0.2653(9) 0.5339(3)
O8 O 0.6795(6) 0.8433(9) 0.5138(2)
O9 O 0.4575(6) 0.8456(10) 0.5594(3)
O10 O 0.5149(6) 0.6001(8) 0.5013(3)
O11 O 0.3431(6) 0.3976(8) 0.4476(2)
H13 H 0.2751 0.4796 0.4605
O12 O 0.4258(5) 0.1032(8) 0.4857(2)
H14 H 0.4938 0.0210 0.4728
Cu1C Cu 0.77578(10) 0.84726(14) 0.43960(5)
Cu2_2 Cu 0.49340(10) 1.34708(14) 0.49360(6)
Cu3_2 Cu 0.45360(10) 1.50821(14) 0.39636(5)
Cu3C Cu 0.95360(10) 1.49179(14) 0.39636(5)
Cu4_2 Cu 0.31478(11) 0.99224(14) 0.53689(5)
Cu4C Cu 0.81478(11) 0.00776(14) 0.53689(5)
Cu4C_2 Cu 0.81478(11) 1.00776(14) 0.53689(5)
O1C O 0.1297(6) 0.2353(9) 0.3991(3)
O3C O 0.2505(6) -0.1027(8) 0.4327(3)
O4_2 O 0.5894(6) 0.3435(9) 0.4194(2)
O5C O 0.3117(6) 0.6539(10) 0.3740(3)
O6C O 0.2085(6) -0.0868(9) 0.5922(2)
O7C O 0.1412(6) -0.2653(9) 0.5339(3)
O8C O 0.1795(6) 0.1567(9) 0.5138(2)
O9_2 O 0.4575(6) -0.1544(10) 0.5594(3)
loop_
_geom_bond_atom_site_label_1
_geom_bond_atom_site_label_2
_geom_bond_site_symmetry_1
_geom_bond_site_symmetry_2
Cu1 O11 1_555 1_555
Cu2 O7 1_555 1_555
Cu3 O1 1_555 1_555
Cu4 O12 1_555 1_555
P1 C8 1_555 1_555
P2 C16 1_555 1_555
C1 C2 1_555 1_555
C2 H1 1_555 1_555
C3 C2 1_555 1_555
H2 C3 1_555 1_555
C4 C3 1_555 1_555
H3 C4 1_555 1_555
C5 C4 1_555 1_555
H4 C5 1_555 1_555
C6 C1 1_555 1_555
C7 C1 1_555 1_555
C8 C6 1_555 1_555
H5 C8 1_555 1_555
H6 C8 1_555 1_555
C9 C10 1_555 1_555
C10 H7 1_555 1_555
C11 C10 1_555 1_555
H8 C11 1_555 1_555
C12 C11 1_555 1_555
H9 C12 1_555 1_555
C13 C12 1_555 1_555
H10 C13 1_555 1_555
C14 C9 1_555 1_555
C15 C9 1_555 1_555
C16 C14 1_555 1_555
H11 C16 1_555 1_555
H12 C16 1_555 1_555
O1 C7 1_555 1_555
O2 Cu3 1_555 1_555
O3 P1 1_555 1_555
O4 P1 1_555 1_555
O5 P1 1_555 1_555
O6 C15 1_555 1_555
O7 C15 1_555 1_555
O8 P2 1_555 1_555
O9 P2 1_555 1_555
O10 Cu2 1_555 1_555
O11 Cu2 1_555 1_555
H13 O11 1_555 1_555
O12 Cu1 1_555 1_555
H14 O12 1_555 1_555
Cu1C O1 1_555 1_555
Cu2_2 O4 1_555 1_555
Cu3_2 O4 1_555 1_555
Cu3C O5 1_555 1_555
Cu4_2 O9 1_555 1_555
Cu4C O6 1_555 1_555
Cu4C_2 O8 1_555 1_555
O1C Cu1 1_555 1_555
O3C Cu1 1_555 1_555
O4_2 Cu2 1_555 1_555
O5C Cu3 1_555 1_555
O6C Cu4 1_555 1_555
O7C Cu4 1_555 1_555
O8C Cu1 1_555 1_555
O9_2 Cu4 1_555 1_555
Cu2 O12 1_555 1_555
Cu3 O11 1_555 1_555
Cu3 O4_2 1_555 1_555
Cu4 O8C 1_555 1_555
P2 O10 1_555 1_555
C5 C6 1_555 1_555
C7 O2 1_555 1_555
C13 C14 1_555 1_555
O3 Cu1C 1_555 1_555
O7 Cu4C 1_555 1_555
O8 Cu1C 1_555 1_555

#END
