
#######################################################################
#
#                 Cambridge Crystallographic Data Centre
#                                CCDC 
#
#######################################################################
#
# If this CIF has been generated from an entry in the Cambridge 
# Structural Database, then it will include bibliographic, chemical, 
# crystal, experimental, refinement or atomic coordinate data resulting 
# from the CCDC's data processing and validation procedures.
#
#######################################################################

data_WOCBUL01
_symmetry_cell_setting           monoclinic
_symmetry_space_group_name_H-M   'P 21/n'
_symmetry_Int_Tables_number      14
_space_group_name_Hall           '-P 2yn'
loop_
_symmetry_equiv_pos_site_id
_symmetry_equiv_pos_as_xyz
1 x,y,z
2 1/2+x,1/2-y,1/2+z
3 -x,-y,-z
4 1/2-x,1/2+y,1/2-z
_cell_length_a                   12.5570(10)
_cell_length_b                   14.4340(10)
_cell_length_c                   13.2360(10)
_cell_angle_alpha                90
_cell_angle_beta                 94.400(10)
_cell_angle_gamma                90
_cell_volume                     2391.92
loop_
_atom_site_label
_atom_site_type_symbol
_atom_site_fract_x
_atom_site_fract_y
_atom_site_fract_z
Cu1 Cu 0.15148(6) 0.28841(4) 0.94653(5)
Cl2 Cl -0.12561(13) 0.28467(12) 0.91829(12)
O5 O -0.0297(4) 0.3003(3) 0.9839(3)
O6 O -0.1386(8) 0.1883(5) 0.9113(8)
O7 O -0.1125(6) 0.3177(9) 0.8246(6)
O8 O -0.2134(5) 0.3209(6) 0.9621(6)
N1 N 0.1261(4) 0.2261(3) 0.8122(3)
N2 N 0.1346(4) 0.4040(3) 0.8599(3)
N3 N 0.1761(4) 0.1701(3) 1.0282(3)
N4 N 0.2973(4) -0.1412(3) 1.4286(3)
C1 C 0.1207(5) 0.1363(4) 0.7901(5)
H1 H 0.1266(5) 0.0935(4) 0.8428(5)
C2 C 0.1066(6) 0.1039(5) 0.6906(5)
H2 H 0.1022(6) 0.0406(5) 0.6780(5)
C3 C 0.0994(5) 0.1644(5) 0.6128(5)
H3 H 0.0915(5) 0.1431(5) 0.5463(5)
C4 C 0.1038(5) 0.2601(5) 0.6328(4)
C5 C 0.0976(6) 0.3309(6) 0.5565(5)
H4 H 0.0910(6) 0.3136(6) 0.4886(5)
C6 C 0.1008(6) 0.4200(6) 0.5800(5)
H5 H 0.0960(6) 0.4639(6) 0.5284(5)
C7 C 0.1118(5) 0.4505(4) 0.6839(5)
C8 C 0.1137(5) 0.5436(5) 0.7151(6)
H6 H 0.1090(5) 0.5907(5) 0.6671(6)
C9 C 0.1225(6) 0.5643(4) 0.8149(6)
H7 H 0.1218(6) 0.6258(4) 0.8359(6)
C10 C 0.1326(5) 0.4928(4) 0.8864(5)
H8 H 0.1382(5) 0.5079(4) 0.9549(5)
C11 C 0.1225(4) 0.3824(4) 0.7600(4)
C12 C 0.1181(4) 0.2867(4) 0.7342(4)
C13 C 0.0967(5) 0.1237(4) 1.0662(5)
H9 H 0.0268(5) 0.1367(4) 1.0420(5)
C14 C 0.1142(5) 0.0575(4) 1.1396(5)
H10 H 0.0566(5) 0.0275(4) 1.1653(5)
C15 C 0.2176(4) 0.0350(4) 1.1758(4)
C16 C 0.2999(5) 0.0812(4) 1.1326(4)
H11 H 0.3707(5) 0.0668(4) 1.1520(4)
C17 C 0.2758(5) 0.1483(4) 1.0610(4)
H12 H 0.3316(5) 0.1800(4) 1.0342(4)
C18 C 0.2414(4) -0.0309(4) 1.2607(4)
C19 C 0.1808(5) -0.0316(4) 1.3437(4)
H13 H 0.1199(5) 0.0050(4) 1.3438(4)
C20 C 0.2103(5) -0.0860(4) 1.4252(4)
H14 H 0.1690(5) -0.0851(4) 1.4806(4)
C21 C 0.3542(5) -0.1430(4) 1.3466(4)
H15 H 0.4138(5) -0.1813(4) 1.3472(4)
C22 C 0.3274(5) -0.0905(4) 1.2618(4)
H16 H 0.3671(5) -0.0950(4) 1.2055(4)
N4C N 0.2027(4) 0.3588(3) 1.0714(3)
Cu1C Cu 0.34852(6) -0.21159(4) 1.55347(5)
Cl1 Cl 0.42658(12) 0.31440(10) 0.82696(10)
O1 O 0.5094(5) 0.2552(4) 0.8084(5)
O2 O 0.4696(5) 0.3927(3) 0.8816(5)
O3 O 0.3557(4) 0.2691(4) 0.8888(4)
O4 O 0.3724(5) 0.3433(8) 0.7374(5)
O9 O 0.1511(11) -0.0547(9) 0.9244(12)
loop_
_geom_bond_atom_site_label_1
_geom_bond_atom_site_label_2
_geom_bond_site_symmetry_1
_geom_bond_site_symmetry_2
Cu1 O5 1_555 1_555
Cl1 O1 1_555 1_555
Cl2 O5 1_555 1_555
O2 Cl1 1_555 1_555
O3 Cl1 1_555 1_555
O4 Cl1 1_555 1_555
O6 Cl2 1_555 1_555
O7 Cl2 1_555 1_555
O8 Cl2 1_555 1_555
N1 Cu1 1_555 1_555
N2 Cu1 1_555 1_555
N3 Cu1 1_555 1_555
N4 C20 1_555 1_555
C1 N1 1_555 1_555
H1 C1 1_555 1_555
C2 C1 1_555 1_555
H2 C2 1_555 1_555
C3 C2 1_555 1_555
H3 C3 1_555 1_555
C4 C3 1_555 1_555
C5 C4 1_555 1_555
H4 C5 1_555 1_555
C6 C5 1_555 1_555
H5 C6 1_555 1_555
C7 C6 1_555 1_555
C8 C7 1_555 1_555
H6 C8 1_555 1_555
C9 C8 1_555 1_555
H7 C9 1_555 1_555
C10 N2 1_555 1_555
H8 C10 1_555 1_555
C11 N2 1_555 1_555
C12 N1 1_555 1_555
C13 N3 1_555 1_555
H9 C13 1_555 1_555
C14 C13 1_555 1_555
H10 C14 1_555 1_555
C15 C14 1_555 1_555
C16 C15 1_555 1_555
H11 C16 1_555 1_555
C17 N3 1_555 1_555
H12 C17 1_555 1_555
C18 C15 1_555 1_555
C19 C18 1_555 1_555
H13 C19 1_555 1_555
C20 C19 1_555 1_555
H14 C20 1_555 1_555
C21 N4 1_555 1_555
H15 C21 1_555 1_555
C22 C18 1_555 1_555
H16 C22 1_555 1_555
N4C Cu1 1_555 1_555
Cu1C N4 1_555 1_555
C4 C12 1_555 1_555
C7 C11 1_555 1_555
C9 C10 1_555 1_555
C11 C12 1_555 1_555
C16 C17 1_555 1_555
C21 C22 1_555 1_555

#END
