
#######################################################################
#
#                 Cambridge Crystallographic Data Centre
#                                CCDC 
#
#######################################################################
#
# If this CIF has been generated from an entry in the Cambridge 
# Structural Database, then it will include bibliographic, chemical, 
# crystal, experimental, refinement or atomic coordinate data resulting 
# from the CCDC's data processing and validation procedures.
#
#######################################################################

data_WOCGAY
_symmetry_cell_setting           orthorhombic
_symmetry_space_group_name_H-M   'P c a 21'
_symmetry_Int_Tables_number      29
_space_group_name_Hall           'P 2c -2ac'
loop_
_symmetry_equiv_pos_site_id
_symmetry_equiv_pos_as_xyz
1 x,y,z
2 -x,-y,1/2+z
3 1/2-x,y,1/2+z
4 1/2+x,-y,z
_cell_length_a                   7.6412(4)
_cell_length_b                   17.3648(14)
_cell_length_c                   6.9260(4)
_cell_angle_alpha                90
_cell_angle_beta                 90
_cell_angle_gamma                90
_cell_volume                     918.996
loop_
_atom_site_label
_atom_site_type_symbol
_atom_site_fract_x
_atom_site_fract_y
_atom_site_fract_z
Cs1 Cs 0.04501(7) 0.57609(4) 0.85726(17)
O1 O 0.0228(15) 0.7258(6) 0.5980(16)
O2 O 0.0701(14) 0.5895(6) 0.4156(17)
O3 O -0.1627(15) 0.6037(7) 0.2402(16)
C1 C 0.001(2) 0.7938(8) 0.685(2)
C2 C -0.1197(10) 0.8495(4) 0.6298(13)
C3 C -0.1244(10) 0.9208(4) 0.7212(13)
C4 C -0.0105(10) 0.9363(4) 0.8726(13)
C5 C 0.1082(10) 0.8806(4) 0.9328(13)
C6 C 0.1129(10) 0.8093(4) 0.8414(13)
C7 C -0.0899(17) 0.7073(9) 0.435(2)
C8 C -0.0567(12) 0.6273(6) 0.357(3)
H1 H -0.19980 0.83880 0.52850
H2 H -0.20550 0.95890 0.68010
H3 H -0.01370 0.98510 0.93510
H4 H 0.18600 0.89120 1.03630
H5 H 0.19400 0.77120 0.88250
H6 H -0.07010 0.74530 0.33080
H7 H -0.21370 0.71140 0.47590
Cs1_2 Cs 0.04501(7) 0.57609(4) -0.14274(17)
Cs1A Cs -0.04501(7) 0.42391(4) 0.35726(17)
Cs1B Cs -0.54501(7) 0.57609(4) 0.35726(17)
Cs1B_2 Cs 0.45499(7) 0.57609(4) 0.35726(17)
O2A O -0.0701(14) 0.4105(6) 0.9156(17)
O2B O 0.4299(14) 0.5895(6) 0.9156(17)
O3_2 O -0.1627(15) 0.6037(7) 1.2402(16)
O3A O 0.1627(15) 0.3963(7) 0.7402(16)
O3B O -0.3373(15) 0.6037(7) 0.7402(16)
loop_
_geom_bond_atom_site_label_1
_geom_bond_atom_site_label_2
_geom_bond_site_symmetry_1
_geom_bond_site_symmetry_2
Cs1 O1 1_555 1_555
O1 C1 1_555 1_555
O2 Cs1 1_555 1_555
O3 C8 1_555 1_555
C1 C2 1_555 1_555
C2 C3 1_555 1_555
C3 C4 1_555 1_555
C4 C5 1_555 1_555
C5 C6 1_555 1_555
C6 C1 1_555 1_555
C7 O1 1_555 1_555
C8 O2 1_555 1_555
H1 C2 1_555 1_555
H2 C3 1_555 1_555
H3 C4 1_555 1_555
H4 C5 1_555 1_555
H5 C6 1_555 1_555
H6 C7 1_555 1_555
H7 C7 1_555 1_555
Cs1_2 O3 1_555 1_555
Cs1A O2 1_555 1_555
Cs1B O3 1_555 1_555
Cs1B_2 O2 1_555 1_555
O2A Cs1 1_555 1_555
O2B Cs1 1_555 1_555
O3_2 Cs1 1_555 1_555
O3A Cs1 1_555 1_555
O3B Cs1 1_555 1_555
O3 Cs1A 1_555 1_555
C7 C8 1_555 1_555
Cs1A O3A 1_555 1_555
Cs1B O3B 1_555 1_555

#END
