
#######################################################################
#
#                 Cambridge Crystallographic Data Centre
#                                CCDC 
#
#######################################################################
#
# If this CIF has been generated from an entry in the Cambridge 
# Structural Database, then it will include bibliographic, chemical, 
# crystal, experimental, refinement or atomic coordinate data resulting 
# from the CCDC's data processing and validation procedures.
#
#######################################################################

data_WOCHAY
_symmetry_cell_setting           monoclinic
_symmetry_space_group_name_H-M   'P 21/c'
_symmetry_Int_Tables_number      14
_space_group_name_Hall           '-P 2ybc'
loop_
_symmetry_equiv_pos_site_id
_symmetry_equiv_pos_as_xyz
1 x,y,z
2 -x,1/2+y,1/2-z
3 -x,-y,-z
4 x,1/2-y,1/2+z
_cell_length_a                   9.120(10)
_cell_length_b                   14.078(14)
_cell_length_c                   9.502(10)
_cell_angle_alpha                90
_cell_angle_beta                 96.391(16)
_cell_angle_gamma                90
_cell_volume                     1212.39
loop_
_atom_site_label
_atom_site_type_symbol
_atom_site_fract_x
_atom_site_fract_y
_atom_site_fract_z
C1 C 0.5027(17) 0.3765(10) 0.5761(15)
H1 H 0.4918 0.4301 0.5186
C2 C 0.7702(18) 0.4024(12) 0.5861(14)
C3 C 0.119(2) 0.5081(15) 0.7591(15)
C4 C 0.131(2) 0.5676(14) 0.8914(15)
H2 H 0.0726 0.6248 0.8756
H3 H 0.2334 0.5861 0.9171
C5 C 0.6468(16) 0.3498(11) 0.6254(13)
C6 C 0.2539(17) 0.2128(11) 0.7208(14)
C7 C 0.3969(16) 0.2533(11) 0.6879(15)
C8 C 0.5290(19) 0.2242(12) 0.7413(17)
H4 H 0.5374 0.1728 0.8031
C9 C 0.6511(17) 0.2677(12) 0.7077(18)
H5 H 0.7424 0.2420 0.7406
C10 C 0.076(2) 0.5081(16) 1.0123(16)
H6 H 0.1273 0.4477 1.0196
H7 H 0.0980 0.5414 1.1014
N1 N 0.3806(14) 0.3333(9) 0.6030(11)
O1 O 0.1406(11) 0.2418(7) 0.6491(10)
O2 O -0.0046(14) 0.2520(10) 0.3847(11)
O3 O 0.8915(11) 0.3604(8) 0.6029(10)
O4 O 0.0378(13) 0.5409(7) 0.6487(10)
O5 O 0.7456(11) 0.4807(8) 0.5325(10)
O6 O 0.1792(14) 0.4321(10) 0.7538(11)
O7 O 0.2585(11) 0.1565(8) 0.8196(10)
Tb1 Tb 0.12097(7) 0.38364(5) 0.51305(6)
C1_2 C -0.4973(17) 0.3765(10) 0.5761(15)
H1_2 H -0.5082 0.4301 0.5186
C2_2 C -0.2298(18) 0.4024(12) 0.5861(14)
C3B C -0.119(2) 0.4919(15) 1.2409(15)
C4B C -0.131(2) 0.4324(14) 1.1086(15)
H2B H -0.0726 0.3752 1.1244
H3B H -0.2334 0.4139 1.0829
C5_2 C -0.3532(16) 0.3498(11) 0.6254(13)
C6_2 C -0.7461(17) 0.2128(11) 0.7208(14)
C7_2 C -0.6031(16) 0.2533(11) 0.6879(15)
C8_2 C -0.4710(19) 0.2242(12) 0.7413(17)
H4_2 H -0.4626 0.1728 0.8031
C9_2 C -0.3489(17) 0.2677(12) 0.7077(18)
H5_2 H -0.2576 0.2420 0.7406
C10B C -0.076(2) 0.4919(16) 0.9877(16)
H6B H -0.1273 0.5523 0.9804
H7B H -0.0980 0.4586 0.8986
N1_2 N -0.6194(14) 0.3333(9) 0.6030(11)
O1_2 O -0.8594(11) 0.2418(7) 0.6491(10)
O2_2 O -1.0046(14) 0.2520(10) 0.3847(11)
O3_2 O -0.1085(11) 0.3604(8) 0.6029(10)
O3_3 O -1.1085(11) 0.3604(8) 0.6029(10)
O4B O -0.0378(13) 0.4591(7) 1.3513(10)
O4B_2 O -0.0378(13) 0.4591(7) 0.3513(10)
O4_2 O -0.9622(13) 0.5409(7) 0.6487(10)
O4B_3 O -1.0378(13) 0.4591(7) 0.3513(10)
O5_2 O -0.2544(11) 0.4807(8) 0.5325(10)
O5B O 0.2544(11) 0.5193(8) 0.4675(10)
O5B_2 O -0.7456(11) 0.5193(8) 0.4675(10)
O6B O -0.1792(14) 0.5679(10) 1.2462(11)
O6_2 O -0.8208(14) 0.4321(10) 0.7538(11)
O7_2 O -0.7415(11) 0.1565(8) 0.8196(10)
O7C O 0.2585(11) 0.3435(8) 0.3196(10)
O7C_2 O -0.7415(11) 0.3435(8) 0.3196(10)
Tb1_2 Tb -0.87903(7) 0.38364(5) 0.51305(6)
Tb1_3 Tb 1.12097(7) 0.38364(5) 0.51305(6)
Tb1B Tb -0.12097(7) 0.61636(5) 0.48695(6)
Tb1B_2 Tb 0.87903(7) 0.61636(5) 0.48695(6)
Tb1C Tb 0.12097(7) 0.11636(5) 1.01305(6)
Tb1_4 Tb 0.12097(7) 0.38364(5) 1.51305(6)
Tb1B_3 Tb -0.12097(7) 0.61636(5) 1.48695(6)
Tb1C_2 Tb -0.87903(7) 0.11636(5) 1.01305(6)
loop_
_geom_bond_atom_site_label_1
_geom_bond_atom_site_label_2
_geom_bond_site_symmetry_1
_geom_bond_site_symmetry_2
C1 H1 1_555 1_555
C2 C5 1_555 1_555
C3 C4 1_555 1_555
C4 H2 1_555 1_555
H3 C4 1_555 1_555
C5 C1 1_555 1_555
C6 C7 1_555 1_555
C7 C8 1_555 1_555
C8 H4 1_555 1_555
C9 C5 1_555 1_555
H5 C9 1_555 1_555
C10 C4 1_555 1_555
H6 C10 1_555 1_555
H7 C10 1_555 1_555
N1 C1 1_555 1_555
O1 C6 1_555 1_555
O2 Tb1 1_555 1_555
O3 C2 1_555 1_555
O4 C3 1_555 1_555
O5 C2 1_555 1_555
O6 C3 1_555 1_555
O7 C6 1_555 1_555
Tb1 N1 1_555 1_555
C1_2 H1_2 1_555 1_555
C2_2 C5_2 1_555 1_555
C3B C4B 1_555 1_555
C4B H2B 1_555 1_555
H3B C4B 1_555 1_555
C5_2 C1_2 1_555 1_555
C6_2 C7_2 1_555 1_555
C7_2 C8_2 1_555 1_555
C8_2 H4_2 1_555 1_555
C9_2 C5_2 1_555 1_555
H5_2 C9_2 1_555 1_555
C10B C10 1_555 1_555
H6B C10B 1_555 1_555
H7B C10B 1_555 1_555
N1_2 C1_2 1_555 1_555
O1_2 C6_2 1_555 1_555
O2_2 Tb1_2 1_555 1_555
O3_2 Tb1 1_555 1_555
O3_3 Tb1_2 1_555 1_555
O4B C3B 1_555 1_555
O4B_2 Tb1 1_555 1_555
O4_2 Tb1_2 1_555 1_555
O4B_3 Tb1_2 1_555 1_555
O5_2 C2_2 1_555 1_555
O5B Tb1 1_555 1_555
O5B_2 Tb1_2 1_555 1_555
O6B C3B 1_555 1_555
O6_2 Tb1_2 1_555 1_555
O7_2 C6_2 1_555 1_555
O7C Tb1 1_555 1_555
O7C_2 Tb1_2 1_555 1_555
Tb1_2 N1_2 1_555 1_555
Tb1_3 O3 1_555 1_555
Tb1B O4 1_555 1_555
Tb1B_2 O5 1_555 1_555
Tb1C O7 1_555 1_555
Tb1_4 O4B 1_555 1_555
Tb1B_3 O4B 1_555 1_555
Tb1C_2 O7_2 1_555 1_555
C7 N1 1_555 1_555
C8 C9 1_555 1_555
O1 Tb1 1_555 1_555
O4 Tb1 1_555 1_555
O6 Tb1 1_555 1_555
C2_2 O3_2 1_555 1_555
C4B C10B 1_555 1_555
C7_2 N1_2 1_555 1_555
C8_2 C9_2 1_555 1_555
O1_2 Tb1_2 1_555 1_555
O4B_2 Tb1B 1_555 1_555
O5_2 Tb1B 1_555 1_555
O6B Tb1B_3 1_555 1_555

#END
