
#######################################################################
#
#                 Cambridge Crystallographic Data Centre
#                                CCDC 
#
#######################################################################
#
# If this CIF has been generated from an entry in the Cambridge 
# Structural Database, then it will include bibliographic, chemical, 
# crystal, experimental, refinement or atomic coordinate data resulting 
# from the CCDC's data processing and validation procedures.
#
#######################################################################

data_WOCHOM
_symmetry_cell_setting           monoclinic
_symmetry_space_group_name_H-M   'P 21'
_symmetry_Int_Tables_number      4
_space_group_name_Hall           'P 2yb'
loop_
_symmetry_equiv_pos_site_id
_symmetry_equiv_pos_as_xyz
1 x,y,z
2 -x,1/2+y,-z
_cell_length_a                   6.8815(6)
_cell_length_b                   12.8502(12)
_cell_length_c                   21.837(2)
_cell_angle_alpha                90
_cell_angle_beta                 91.720(2)
_cell_angle_gamma                90
_cell_volume                     1930.15
loop_
_atom_site_label
_atom_site_type_symbol
_atom_site_fract_x
_atom_site_fract_y
_atom_site_fract_z
Mn1 Mn 0.71940(19) 1.33154(11) 0.97822(5)
Mn2 Mn 0.70968(18) 0.93089(10) 0.50842(5)
Mn3 Mn 0.8804(2) 2.05476(9) 1.32192(5)
Mn4 Mn 0.7995(2) 2.19522(9) 1.17081(5)
O1 O 0.8193(10) 1.0045(5) 0.9363(3)
O2 O 1.0149(9) 1.3877(5) 0.9731(2)
H1 H 1.0792 1.3702 1.0054
H2 H 1.0686 1.3623 0.9420
O3 O 0.7892(9) 1.1561(5) 0.9863(2)
O4 O 0.4192(10) 1.3104(6) 0.9898(4)
H3 H 0.3759 1.2711 0.9612
H4 H 0.4035 1.2809 1.0241
O5 O 0.6494(11) 1.4913(5) 0.8044(3)
O6 O 0.4258(8) 0.9583(5) 0.4648(3)
H5 H 0.3635 0.9012 0.4628
H6 H 0.4412 0.9816 0.4289
O7 O 0.6455(9) 1.4537(5) 0.9034(2)
O8 O 1.0062(8) 0.8913(4) 0.5334(2)
H7 H 1.0135 0.8261 0.5398
H8 H 1.0796 0.9076 0.5043
O9 O 0.8048(8) 1.2652(4) 0.5432(2)
O10 O 0.5881(9) 2.1035(5) 1.3532(3)
H9 H 0.5446 2.1520 1.3301
H10 H 0.5116 2.0516 1.3509
O11 O 0.7885(9) 1.1097(5) 0.4977(2)
O12 O 1.1866(9) 2.0027(5) 1.3079(3)
H11 H 1.2324 2.0355 1.2778
H12 H 1.2558 2.0150 1.3400
O13 O 0.5190(9) 0.7959(4) 0.6752(2)
O14 O 1.0229(9) 2.1291(5) 1.4006(2)
H13 H 1.0765 2.1850 1.3889
H14 H 0.9385 2.1434 1.4269
O15 O 0.5948(8) 0.8209(5) 0.5778(2)
O16 O 0.6331(10) 2.1185(5) 1.0982(3)
H15 H 0.5968 2.1634 1.0716
H16 H 0.7046 2.0733 1.0815
O17 O 0.7111(8) 1.7907(4) 1.4385(2)
O18 O 1.0967(10) 2.1724(5) 1.1437(3)
H17 H 1.1315 2.2242 1.1225
H18 H 1.1051 2.1177 1.1236
O19 O 0.8191(8) 1.9433(4) 1.4087(2)
O20 O 0.5091(10) 2.2082(7) 1.2083(3)
H19 H 0.4405 2.1572 1.1954
H20 H 0.5184 2.2062 1.2472
O21 O 0.8682(12) 1.9354(5) 1.1372(3)
O22 O 0.8382(9) 2.0419(4) 1.2163(2)
O23 O 0.6984(9) 1.4696(5) 1.0522(2)
O24 O 0.7802(9) 1.3117(5) 1.0813(2)
O25 O 0.9858(8) 1.3223(5) 1.3500(2)
O26 O 0.8993(8) 1.2124(4) 1.2763(2)
N1 N 0.7176(10) 1.2578(5) 0.8851(3)
N2 N 0.6737(9) 1.0180(5) 0.5960(3)
N3 N 0.8118(10) 1.8884(5) 1.2928(3)
N4 N 0.8305(9) 1.3649(5) 1.1964(3)
C1 C 0.7383(11) 1.1547(6) 0.8793(3)
C2 C 0.7268(11) 1.1059(7) 0.8233(3)
H21 H 0.7452 1.0344 0.8207
C3 C 0.6876(10) 1.1639(6) 0.7706(4)
C4 C 0.6619(10) 1.2705(6) 0.7778(3)
H22 H 0.6329 1.3114 0.7436
C5 C 0.6787(11) 1.3171(6) 0.8351(3)
C6 C 0.7845(12) 1.0973(7) 0.9399(4)
C7 C 0.6563(12) 1.4297(7) 0.8488(4)
C8 C 0.7169(10) 1.1185(6) 0.6005(3)
C9 C 0.7159(10) 1.1685(6) 0.6570(3)
H23 H 0.7443 1.2392 0.6594
C10 C 0.6732(11) 1.1145(6) 0.7094(3)
C11 C 0.6274(11) 1.0098(6) 0.7031(3)
H24 H 0.5968 0.9707 0.7373
C12 C 0.6273(11) 0.9632(6) 0.6453(3)
C13 C 0.7728(11) 1.1704(6) 0.5419(3)
C14 C 0.5769(11) 0.8497(6) 0.6326(3)
C15 C 0.7902(11) 1.8109(6) 1.3335(3)
C16 C 0.7871(10) 1.7080(6) 1.3171(3)
H25 H 0.7700 1.6568 1.3465
C17 C 0.8098(10) 1.6804(6) 1.2555(3)
C18 C 0.8310(11) 1.7610(7) 1.2145(3)
H26 H 0.8465 1.7461 1.1732
C19 C 0.8298(12) 1.8639(6) 1.2336(4)
C20 C 0.7737(11) 1.8501(6) 1.3986(3)
C21 C 0.8459(13) 1.9543(7) 1.1904(4)
C22 C 0.7852(11) 1.4406(7) 1.1577(3)
C23 C 0.7729(10) 1.5430(6) 1.1747(3)
H27 H 0.7364 1.5934 1.1460
C24 C 0.8156(10) 1.5713(6) 1.2353(3)
C25 C 0.8672(12) 1.4930(6) 1.2759(4)
H28 H 0.8972 1.5088 1.3166
C26 C 0.8741(11) 1.3905(6) 1.2556(3)
C27 C 0.7486(12) 1.4049(7) 1.0929(3)
C28 C 0.9215(12) 1.3013(7) 1.2982(4)
Mn2_2 Mn 0.70968(18) 1.93089(10) 1.50842(5)
Mn3_2 Mn 0.8804(2) 1.05476(9) 1.32192(5)
Mn4_2 Mn 0.7995(2) 1.19522(9) 1.17081(5)
O17_2 O 0.7111(8) 0.7907(4) 0.4385(2)
O19_2 O 0.8191(8) 0.9433(4) 0.4087(2)
O24_2 O 0.7802(9) 2.3117(5) 1.0813(2)
O26_2 O 0.8993(8) 2.2124(4) 1.2763(2)
N4_2 N 0.8305(9) 2.3649(5) 1.1964(3)
O27 O 0.2311(10) 0.0773(6) 0.5482(3)
H29 H 0.2579 0.1417 0.5456
H30 H 0.2783 0.0450 0.5181
O28 O 0.1956(16) 0.1449(9) 0.0257(7)
O29 O 0.313(2) 0.3576(11) 0.1457(7)
H31 H 0.3034 0.3858 0.1105
H32 H 0.4105 0.3172 0.1473
O30? O 0.198(6) 0.167(4) -0.034(3)
loop_
_geom_bond_atom_site_label_1
_geom_bond_atom_site_label_2
_geom_bond_site_symmetry_1
_geom_bond_site_symmetry_2
Mn1 O2 1_555 1_555
Mn2 O6 1_555 1_555
Mn3 O10 1_555 1_555
Mn4 O16 1_555 1_555
O1 C6 1_555 1_555
O2 H1 1_555 1_555
H2 O2 1_555 1_555
O3 Mn1 1_555 1_555
O4 Mn1 1_555 1_555
H3 O4 1_555 1_555
H4 O4 1_555 1_555
O5 C7 1_555 1_555
O6 H5 1_555 1_555
H6 O6 1_555 1_555
O7 Mn1 1_555 1_555
O8 Mn2 1_555 1_555
H7 O8 1_555 1_555
H8 O8 1_555 1_555
O9 C13 1_555 1_555
O10 H9 1_555 1_555
H10 O10 1_555 1_555
O11 Mn2 1_555 1_555
O12 Mn3 1_555 1_555
H11 O12 1_555 1_555
H12 O12 1_555 1_555
O13 C14 1_555 1_555
O14 Mn3 1_555 1_555
H13 O14 1_555 1_555
H14 O14 1_555 1_555
O15 Mn2 1_555 1_555
O16 H15 1_555 1_555
H16 O16 1_555 1_555
O17 C20 1_555 1_555
O18 Mn4 1_555 1_555
H17 O18 1_555 1_555
H18 O18 1_555 1_555
O19 Mn3 1_555 1_555
O20 Mn4 1_555 1_555
H19 O20 1_555 1_555
H20 O20 1_555 1_555
O21 C21 1_555 1_555
O22 Mn3 1_555 1_555
O23 Mn1 1_555 1_555
O24 Mn1 1_555 1_555
O25 C28 1_555 1_555
O26 C28 1_555 1_555
N1 Mn1 1_555 1_555
N2 Mn2 1_555 1_555
N3 Mn3 1_555 1_555
N4 C22 1_555 1_555
C1 N1 1_555 1_555
C2 C1 1_555 1_555
H21 C2 1_555 1_555
C3 C2 1_555 1_555
C4 C3 1_555 1_555
H22 C4 1_555 1_555
C5 N1 1_555 1_555
C6 O3 1_555 1_555
C7 O7 1_555 1_555
C8 N2 1_555 1_555
C9 C8 1_555 1_555
H23 C9 1_555 1_555
C10 C3 1_555 1_555
C11 C10 1_555 1_555
H24 C11 1_555 1_555
C12 N2 1_555 1_555
C13 O11 1_555 1_555
C14 O15 1_555 1_555
C15 N3 1_555 1_555
C16 C15 1_555 1_555
H25 C16 1_555 1_555
C17 C16 1_555 1_555
C18 C17 1_555 1_555
H26 C18 1_555 1_555
C19 N3 1_555 1_555
C20 O19 1_555 1_555
C21 O22 1_555 1_555
C22 C23 1_555 1_555
C23 H27 1_555 1_555
C24 C17 1_555 1_555
C25 C24 1_555 1_555
H28 C25 1_555 1_555
C26 N4 1_555 1_555
C27 O23 1_555 1_555
C28 C26 1_555 1_555
O27 H29 1_555 1_555
H30 O27 1_555 1_555
O29 H31 1_555 1_555
H32 O29 1_555 1_555
Mn2_2 O17 1_555 1_555
Mn3_2 O26 1_555 1_555
Mn4_2 O24 1_555 1_555
O17_2 Mn2 1_555 1_555
O19_2 Mn2 1_555 1_555
O24_2 Mn4 1_555 1_555
O26_2 Mn3 1_555 1_555
N4_2 Mn4 1_555 1_555
Mn4 O22 1_555 1_555
Mn4 O26_2 1_555 1_555
O19 Mn2_2 1_555 1_555
O24 C27 1_555 1_555
O26 Mn4_2 1_555 1_555
N4 Mn4_2 1_555 1_555
C1 C6 1_555 1_555
C4 C5 1_555 1_555
C5 C7 1_555 1_555
C8 C13 1_555 1_555
C9 C10 1_555 1_555
C11 C12 1_555 1_555
C12 C14 1_555 1_555
C15 C20 1_555 1_555
C18 C19 1_555 1_555
C19 C21 1_555 1_555
C22 C27 1_555 1_555
C23 C24 1_555 1_555
C25 C26 1_555 1_555

#END
