
#######################################################################
#
#                 Cambridge Crystallographic Data Centre
#                                CCDC 
#
#######################################################################
#
# If this CIF has been generated from an entry in the Cambridge 
# Structural Database, then it will include bibliographic, chemical, 
# crystal, experimental, refinement or atomic coordinate data resulting 
# from the CCDC's data processing and validation procedures.
#
#######################################################################

data_WOCKIJ
_symmetry_cell_setting           orthorhombic
_symmetry_space_group_name_H-M   'P b c a'
_symmetry_Int_Tables_number      61
_space_group_name_Hall           '-P 2ac 2ab'
loop_
_symmetry_equiv_pos_site_id
_symmetry_equiv_pos_as_xyz
1 x,y,z
2 1/2-x,-y,1/2+z
3 -x,1/2+y,1/2-z
4 1/2+x,1/2-y,-z
5 -x,-y,-z
6 1/2+x,y,1/2-z
7 x,1/2-y,1/2+z
8 1/2-x,1/2+y,z
_cell_length_a                   17.5805(10)
_cell_length_b                   18.0403(10)
_cell_length_c                   32.8141(18)
_cell_angle_alpha                90
_cell_angle_beta                 90
_cell_angle_gamma                90
_cell_volume                     10407.2
loop_
_atom_site_label
_atom_site_type_symbol
_atom_site_fract_x
_atom_site_fract_y
_atom_site_fract_z
Cd1 Cd 0.264733(16) 0.021027(16) 0.616202(9)
Cd2 Cd 0.205291(17) 0.431316(16) 0.874017(9)
O1 O 0.37574(17) 0.05450(18) 0.58359(9)
O2 O 0.31775(16) -0.03635(17) 0.55177(9)
O3 O 0.28750(16) 0.12584(16) 0.65472(9)
O4 O 0.19030(17) 0.06273(16) 0.68005(9)
O5 O 0.25191(19) 0.40052(18) 0.80179(9)
O6 O 0.1676(2) 0.33178(18) 0.83430(9)
O7 O 0.17734(18) 0.49885(18) 0.94001(10)
O8 O 0.09882(18) 0.41615(17) 0.91367(9)
N1 N 0.3419(2) -0.0522(2) 0.66172(11)
N2 N 0.6365(2) -0.4756(2) 0.66188(11)
N3 N 0.18177(19) -0.0781(2) 0.61354(10)
N4 N -0.1837(2) -0.49650(19) 0.62829(11)
N5 N -0.2144(2) 0.34806(19) 0.58944(11)
N6 N 0.1872(2) 0.1024(2) 0.57746(11)
C1 C 0.3499(3) -0.0349(3) 0.70118(14)
H1 H 0.3201 0.0044 0.7120
C2 C 0.3990(2) -0.0712(2) 0.72671(14)
H2 H 0.4024 -0.0568 0.7545
C3 C 0.4437(2) -0.1286(2) 0.71254(14)
C4 C 0.4340(3) -0.1479(3) 0.67215(15)
H3 H 0.4622 -0.1878 0.6608
C5 C 0.3831(3) -0.1088(3) 0.64827(15)
H4 H 0.3774 -0.1233 0.6206
C6 C 0.5012(3) -0.1644(3) 0.74087(14)
H5 H 0.5355 -0.1250 0.7511
H6 H 0.4733 -0.1843 0.7647
C7 C 0.5502(3) -0.2263(3) 0.72375(16)
H7 H 0.5949 -0.2334 0.7417
H8 H 0.5693 -0.2113 0.6966
C8 C 0.5080(3) -0.3000(3) 0.71973(15)
H9 H 0.4914 -0.3160 0.7472
H10 H 0.4617 -0.2918 0.7031
C9 C 0.5535(3) -0.3619(2) 0.70065(14)
C10 C 0.6316(3) -0.3706(3) 0.70614(15)
H11 H 0.6588 -0.3369 0.7230
C11 C 0.6694(3) -0.4279(3) 0.68716(14)
H12 H 0.7222 -0.4337 0.6925
C12 C 0.5615(3) -0.4685(3) 0.65790(19)
H13 H 0.5354 -0.5033 0.6412
C13 C 0.5198(3) -0.4140(3) 0.67649(18)
H14 H 0.4663 -0.4123 0.6725
C14 C 0.3730(2) 0.0068(2) 0.55574(13)
C15 C 0.4388(2) 0.0024(2) 0.52660(12)
C16 C 0.5071(2) 0.0363(2) 0.53684(12)
H15 H 0.5116 0.0615 0.5621
C17 C 0.4317(2) -0.0338(2) 0.48929(12)
H16 H 0.3849 -0.0565 0.4819
C18 C 0.1978(3) -0.1390(2) 0.59152(13)
H17 H 0.2419 -0.1387 0.5748
C19 C 0.1534(3) -0.2017(3) 0.59213(13)
H18 H 0.1675 -0.2434 0.5761
C20 C 0.0885(3) -0.2050(3) 0.61565(13)
C21 C 0.0717(3) -0.1418(3) 0.63814(14)
H19 H 0.0269 -0.1403 0.6543
C22 C 0.1194(3) -0.0815(2) 0.63716(13)
H20 H 0.1077 -0.0402 0.6540
C23 C 0.0413(3) -0.2741(3) 0.61821(14)
H21 H 0.0686 -0.3152 0.6045
H22 H -0.0073 -0.2661 0.6036
C24 C 0.0243(3) -0.2962(3) 0.66227(13)
H23 H 0.0656 -0.2776 0.6801
H24 H -0.0237 -0.2722 0.6710
C25 C 0.0170(3) -0.3800(3) 0.66772(14)
H25 H 0.0613 -0.4035 0.6543
H26 H 0.0208 -0.3910 0.6972
C26 C -0.0534(2) -0.4170(2) 0.65189(12)
C27 C -0.0604(3) -0.4923(2) 0.65889(15)
H27 H -0.0202 -0.5184 0.6719
C28 C -0.1247(3) -0.5296(3) 0.64721(15)
H28 H -0.1279 -0.5812 0.6527
C29 C -0.1750(2) -0.4251(2) 0.62002(12)
H29 H -0.2149 -0.4009 0.6057
C30 C -0.1126(2) -0.3835(2) 0.63066(12)
H30 H -0.1100 -0.3325 0.6236
C31 C 0.2345(2) 0.1181(2) 0.68018(12)
C32 C 0.2247(2) 0.1774(2) 0.71161(12)
C33 C 0.2593(2) 0.2460(2) 0.70581(12)
H31 H 0.2870 0.2553 0.6815
C34 C 0.2538(2) 0.3006(2) 0.73506(12)
H32 H 0.2771 0.3474 0.7307
C35 C 0.2140(2) 0.2872(2) 0.77096(12)
C36 C 0.1791(2) 0.2191(2) 0.77632(12)
H33 H 0.1513 0.2100 0.8006
C37 C 0.1838(2) 0.1641(2) 0.74722(12)
H34 H 0.1593 0.1177 0.7514
C38 C 0.2108(3) 0.3443(3) 0.80461(13)
C39 C -0.2012(3) 0.2770(3) 0.59878(16)
H35 H -0.2260 0.2567 0.6220
C40 C -0.1539(3) 0.2318(3) 0.57683(16)
H36 H -0.1466 0.1818 0.5851
C41 C -0.1163(3) 0.2585(2) 0.54254(14)
C42 C -0.1293(3) 0.3322(3) 0.53295(14)
H37 H -0.1046 0.3540 0.5102
C43 C -0.1783(3) 0.3743(2) 0.55657(14)
H38 H -0.1867 0.4244 0.5490
C44 C -0.0688(3) 0.2078(3) 0.51644(15)
H39 H -0.0458 0.1699 0.5344
H40 H -0.1034 0.1816 0.4975
C45 C -0.0059(3) 0.2424(3) 0.49152(16)
H41 H 0.0145 0.2043 0.4727
H42 H -0.0280 0.2824 0.4746
C46 C 0.0605(3) 0.2747(3) 0.5161(2)
H43 H 0.0404 0.3103 0.5364
H44 H 0.0946 0.3023 0.4974
C47 C 0.1057(3) 0.2159(2) 0.53780(18)
C48 C 0.1644(3) 0.1786(3) 0.51967(19)
H45 H 0.1792 0.1913 0.4927
C49 C 0.2024(3) 0.1230(3) 0.53991(16)
H46 H 0.2421 0.0980 0.5259
C50 C 0.1299(3) 0.1374(4) 0.59475(16)
H47 H 0.1155 0.1230 0.6215
C51 C 0.0894(3) 0.1943(4) 0.57618(17)
H48 H 0.0497 0.2184 0.5907
C52 C 0.1153(3) 0.4642(3) 0.93993(13)
C53 C 0.0558(3) 0.4826(2) 0.97138(13)
C54 C 0.0757(3) 0.5183(2) 1.00783(13)
H49 H 0.1272 0.5306 1.0132
C55 C -0.0200(3) 0.4646(2) 0.96418(13)
H50 H -0.0336 0.4402 0.9396
Cd1D Cd 0.735267(16) -0.021027(16) 0.383798(9)
Cd1E Cd -0.235267(16) 1.021027(16) 0.883798(9)
Cd1E_2 Cd 0.764733(16) 1.021027(16) 0.883798(9)
Cd1E_3 Cd 0.764733(16) 0.021027(16) 0.883798(9)
Cd2E Cd 0.705291(17) -0.568684(16) 0.625983(9)
Cd2E_2 Cd -0.294709(17) -0.568684(16) 0.625983(9)
Cd2E_3 Cd -0.294709(17) 0.431316(16) 0.625983(9)
Cd2D Cd -0.205291(17) 0.568684(16) 1.125983(9)
Cd2D_2 Cd 0.794709(17) -0.431316(16) 0.125983(9)
O1D O 0.62426(17) -0.05450(18) 0.41641(9)
O2D O 0.68225(16) 0.03635(17) 0.44823(9)
O3D O 0.71250(16) -0.12584(16) 0.34528(9)
O4D O 0.80970(17) -0.06273(16) 0.31995(9)
O5D O 0.74809(19) -0.40052(18) 0.19821(9)
O5E O 0.75191(19) -0.59948(18) 0.69821(9)
O6D O 0.8324(2) -0.33178(18) 0.16570(9)
O6E O 0.6676(2) -0.66822(18) 0.66570(9)
O7D O -0.17734(18) 0.50115(18) 1.05999(10)
O7E O 0.67734(18) -0.50115(18) 0.55999(10)
O8D O -0.09882(18) 0.58385(17) 1.08633(9)
O8E O 0.59882(18) -0.58385(17) 0.58633(9)
N1E N -0.1581(2) 0.9478(2) 0.83828(11)
N1D N 0.6581(2) 0.0522(2) 0.33828(11)
N2E N 0.1365(2) 0.5244(2) 0.83812(11)
N3E N 0.68177(19) 0.9219(2) 0.88646(10)
N3D N 0.81823(19) 0.0781(2) 0.38646(10)
N4E N 0.3163(2) 0.50350(19) 0.87171(11)
N4_2 N 0.8163(2) -0.49650(19) 0.62829(11)
N5E N 0.2856(2) 0.34806(19) 0.91056(11)
N5_2 N 0.7856(2) -0.65194(19) 0.58944(11)
N6E N 0.6872(2) 0.1024(2) 0.92254(11)
N6D N 0.8128(2) -0.1024(2) 0.42254(11)
C1E C -0.1501(3) 0.9651(3) 0.79882(14)
H1E H -0.1799 1.0044 0.7880
C2E C -0.1010(2) 0.9288(2) 0.77329(14)
H2E H -0.0976 0.9432 0.7455
C3E C -0.0563(2) 0.8714(2) 0.78746(14)
C4E C -0.0660(3) 0.8521(3) 0.82785(15)
H3E H -0.0378 0.8122 0.8392
C5E C -0.1169(3) 0.8912(3) 0.85173(15)
H4E H -0.1226 0.8767 0.8794
C6E C 0.0012(3) 0.8356(3) 0.75913(14)
H5E H 0.0355 0.8750 0.7489
H6E H -0.0267 0.8157 0.7353
C7E C 0.0502(3) 0.7737(3) 0.77625(16)
H7E H 0.0949 0.7666 0.7583
H8E H 0.0693 0.7887 0.8034
C8E C 0.0080(3) 0.7000(3) 0.78027(15)
H9E H -0.0086 0.6840 0.7528
H10E H -0.0383 0.7082 0.7969
C9E C 0.0535(3) 0.6381(2) 0.79935(14)
C10E C 0.1316(3) 0.6294(3) 0.79386(15)
H11E H 0.1588 0.6631 0.7770
C11E C 0.1694(3) 0.5721(3) 0.81284(14)
H12E H 0.2222 0.5663 0.8075
C12E C 0.0615(3) 0.5315(3) 0.84210(19)
H13E H 0.0354 0.4967 0.8588
C13E C 0.0198(3) 0.5860(3) 0.82351(18)
H14E H -0.0337 0.5877 0.8275
C14D C 0.6270(2) -0.0068(2) 0.44426(13)
C15D C 0.5612(2) -0.0024(2) 0.47340(12)
C16D C 0.4929(2) -0.0363(2) 0.46316(12)
H15D H 0.4884 -0.0615 0.4379
C17D C 0.5683(2) 0.0338(2) 0.51071(12)
H16D H 0.6151 0.0565 0.5181
C18E C 0.6978(3) 0.8610(2) 0.90848(13)
H17E H 0.7419 0.8613 0.9252
C19E C 0.6534(3) 0.7983(3) 0.90787(13)
H18E H 0.6675 0.7566 0.9239
C20E C 0.5885(3) 0.7950(3) 0.88435(13)
C21E C 0.5717(3) 0.8582(3) 0.86186(14)
H19E H 0.5269 0.8597 0.8457
C22E C 0.6194(3) 0.9185(2) 0.86284(13)
H20E H 0.6077 0.9598 0.8460
C23E C 0.5413(3) 0.7259(3) 0.88179(14)
H21E H 0.5686 0.6848 0.8955
H22E H 0.4927 0.7339 0.8964
C24E C 0.5243(3) 0.7038(3) 0.83773(13)
H23E H 0.5656 0.7224 0.8199
H24E H 0.4763 0.7278 0.8290
C25E C 0.5170(3) 0.6200(3) 0.83228(14)
H25E H 0.5613 0.5965 0.8457
H26E H 0.5208 0.6090 0.8028
C26E C 0.4466(2) 0.5830(2) 0.84811(12)
C27E C 0.4396(3) 0.5077(2) 0.84111(15)
H27E H 0.4798 0.4816 0.8281
C28E C 0.3753(3) 0.4704(3) 0.85279(15)
H28E H 0.3721 0.4188 0.8473
C29E C 0.3250(2) 0.5749(2) 0.87998(12)
H29E H 0.2851 0.5991 0.8943
C30E C 0.3874(2) 0.6165(2) 0.86934(12)
H30E H 0.3900 0.6675 0.8764
C31D C 0.7655(2) -0.1181(2) 0.31982(12)
C32D C 0.7753(2) -0.1774(2) 0.28839(12)
C33D C 0.7407(2) -0.2460(2) 0.29419(12)
H31D H 0.7130 -0.2553 0.3185
C34D C 0.7462(2) -0.3006(2) 0.26494(12)
H32D H 0.7229 -0.3474 0.2693
C35D C 0.7860(2) -0.2872(2) 0.22904(12)
C36D C 0.8209(2) -0.2191(2) 0.22368(12)
H33D H 0.8487 -0.2100 0.1994
C37D C 0.8162(2) -0.1641(2) 0.25278(12)
H34D H 0.8407 -0.1177 0.2486
C38D C 0.7892(3) -0.3443(3) 0.19539(13)
C39E C 0.2988(3) 0.2770(3) 0.90122(16)
H35E H 0.2740 0.2567 0.8780
C40E C 0.3461(3) 0.2318(3) 0.92317(16)
H36E H 0.3534 0.1818 0.9149
C41E C 0.3837(3) 0.2585(2) 0.95746(14)
C42E C 0.3707(3) 0.3322(3) 0.96705(14)
H37E H 0.3954 0.3540 0.9898
C43E C 0.3217(3) 0.3743(2) 0.94343(14)
H38E H 0.3133 0.4244 0.9510
C44E C 0.4312(3) 0.2078(3) 0.98356(15)
H39E H 0.4542 0.1699 0.9656
H40E H 0.3966 0.1816 1.0025
C45E C 0.4941(3) 0.2424(3) 1.00848(16)
H41E H 0.5145 0.2043 1.0273
H42E H 0.4720 0.2824 1.0254
C46E C 0.5605(3) 0.2747(3) 0.9839(2)
H43E H 0.5404 0.3103 0.9636
H44E H 0.5946 0.3023 1.0026
C47E C 0.6057(3) 0.2159(2) 0.96220(18)
C48E C 0.6644(3) 0.1786(3) 0.98033(19)
H45E H 0.6792 0.1913 1.0073
C49E C 0.7024(3) 0.1230(3) 0.96009(16)
H46E H 0.7421 0.0980 0.9741
C50E C 0.6299(3) 0.1374(4) 0.90525(16)
H47E H 0.6155 0.1230 0.8785
C51E C 0.5894(3) 0.1943(4) 0.92382(17)
H48E H 0.5497 0.2184 0.9093
C52D C -0.1153(3) 0.5358(3) 1.06007(13)
C53D C -0.0558(3) 0.5174(2) 1.02862(13)
C54D C -0.0757(3) 0.4817(2) 0.99217(13)
H49D H -0.1272 0.4694 0.9868
C55D C 0.0200(3) 0.5354(2) 1.03582(13)
H50D H 0.0336 0.5598 1.0604
O9 O 0.25064(19) 0.61492(19) 0.98444(11)
H51 H 0.225(2) 0.5757(15) 0.9701(11)
H52 H 0.275(2) 0.5945(19) 1.0082(8)
O10 O 0.1382(2) -0.0297(2) 0.74662(11)
H53 H 0.162(2) -0.001(2) 0.7255(11)
H54 H 0.1771(16) -0.054(3) 0.7620(13)
loop_
_geom_bond_atom_site_label_1
_geom_bond_atom_site_label_2
_geom_bond_site_symmetry_1
_geom_bond_site_symmetry_2
Cd1 O1 1_555 1_555
Cd2 O5 1_555 1_555
O1 C14 1_555 1_555
O2 Cd1 1_555 1_555
O3 Cd1 1_555 1_555
O4 Cd1 1_555 1_555
O5 C38 1_555 1_555
O6 Cd2 1_555 1_555
O7 Cd2 1_555 1_555
O8 Cd2 1_555 1_555
N1 Cd1 1_555 1_555
N2 C11 1_555 1_555
N3 Cd1 1_555 1_555
N4 C28 1_555 1_555
N5 C39 1_555 1_555
N6 Cd1 1_555 1_555
C1 N1 1_555 1_555
H1 C1 1_555 1_555
C2 C1 1_555 1_555
H2 C2 1_555 1_555
C3 C2 1_555 1_555
C4 C3 1_555 1_555
H3 C4 1_555 1_555
C5 N1 1_555 1_555
H4 C5 1_555 1_555
C6 C3 1_555 1_555
H5 C6 1_555 1_555
H6 C6 1_555 1_555
C7 C6 1_555 1_555
H7 C7 1_555 1_555
H8 C7 1_555 1_555
C8 C7 1_555 1_555
H9 C8 1_555 1_555
H10 C8 1_555 1_555
C9 C8 1_555 1_555
C10 C9 1_555 1_555
H11 C10 1_555 1_555
C11 C10 1_555 1_555
H12 C11 1_555 1_555
C12 N2 1_555 1_555
H13 C12 1_555 1_555
C13 C9 1_555 1_555
H14 C13 1_555 1_555
C14 O2 1_555 1_555
C15 C14 1_555 1_555
C16 C15 1_555 1_555
H15 C16 1_555 1_555
C17 C15 1_555 1_555
H16 C17 1_555 1_555
C18 N3 1_555 1_555
H17 C18 1_555 1_555
C19 C18 1_555 1_555
H18 C19 1_555 1_555
C20 C19 1_555 1_555
C21 C20 1_555 1_555
H19 C21 1_555 1_555
C22 N3 1_555 1_555
H20 C22 1_555 1_555
C23 C20 1_555 1_555
H21 C23 1_555 1_555
H22 C23 1_555 1_555
C24 C23 1_555 1_555
H23 C24 1_555 1_555
H24 C24 1_555 1_555
C25 C24 1_555 1_555
H25 C25 1_555 1_555
H26 C25 1_555 1_555
C26 C25 1_555 1_555
C27 C26 1_555 1_555
H27 C27 1_555 1_555
C28 C27 1_555 1_555
H28 C28 1_555 1_555
C29 N4 1_555 1_555
H29 C29 1_555 1_555
C30 C26 1_555 1_555
H30 C30 1_555 1_555
C31 O3 1_555 1_555
C32 C31 1_555 1_555
C33 C32 1_555 1_555
H31 C33 1_555 1_555
C34 C33 1_555 1_555
H32 C34 1_555 1_555
C35 C34 1_555 1_555
C36 C35 1_555 1_555
H33 C36 1_555 1_555
C37 C32 1_555 1_555
H34 C37 1_555 1_555
C38 O6 1_555 1_555
C39 H35 1_555 1_555
C40 C39 1_555 1_555
H36 C40 1_555 1_555
C41 C40 1_555 1_555
C42 C41 1_555 1_555
H37 C42 1_555 1_555
C43 N5 1_555 1_555
H38 C43 1_555 1_555
C44 C41 1_555 1_555
H39 C44 1_555 1_555
H40 C44 1_555 1_555
C45 C44 1_555 1_555
H41 C45 1_555 1_555
H42 C45 1_555 1_555
C46 C45 1_555 1_555
H43 C46 1_555 1_555
H44 C46 1_555 1_555
C47 C46 1_555 1_555
C48 C47 1_555 1_555
H45 C48 1_555 1_555
C49 N6 1_555 1_555
H46 C49 1_555 1_555
C50 N6 1_555 1_555
H47 C50 1_555 1_555
C51 C47 1_555 1_555
H48 C51 1_555 1_555
C52 O7 1_555 1_555
C53 C52 1_555 1_555
C54 C53 1_555 1_555
H49 C54 1_555 1_555
C55 C53 1_555 1_555
H50 C55 1_555 1_555
O9 H51 1_555 1_555
H52 O9 1_555 1_555
O10 H53 1_555 1_555
H54 O10 1_555 1_555
Cd1D O1D 1_555 1_555
Cd1E N1E 1_555 1_555
Cd1E_2 N3E 1_555 1_555
Cd1E_3 N6E 1_555 1_555
Cd2E N2 1_555 1_555
Cd2E_2 N4 1_555 1_555
Cd2E_3 N5 1_555 1_555
Cd2D O7D 1_555 1_555
Cd2D_2 O5D 1_555 1_555
O1D C14D 1_555 1_555
O2D Cd1D 1_555 1_555
O3D Cd1D 1_555 1_555
O4D Cd1D 1_555 1_555
O5D C38D 1_555 1_555
O5E Cd2E 1_555 1_555
O6D Cd2D_2 1_555 1_555
O6E Cd2E 1_555 1_555
O7D C52D 1_555 1_555
O7E Cd2E 1_555 1_555
O8D Cd2D 1_555 1_555
O8E Cd2E 1_555 1_555
N1E C1E 1_555 1_555
N1D Cd1D 1_555 1_555
N2E Cd2 1_555 1_555
N3E C18E 1_555 1_555
N3D Cd1D 1_555 1_555
N4E Cd2 1_555 1_555
N4_2 Cd2E 1_555 1_555
N5E Cd2 1_555 1_555
N5_2 Cd2E 1_555 1_555
N6E C49E 1_555 1_555
N6D Cd1D 1_555 1_555
C1E H1E 1_555 1_555
C2E C1E 1_555 1_555
H2E C2E 1_555 1_555
C3E C2E 1_555 1_555
C4E C3E 1_555 1_555
H3E C4E 1_555 1_555
C5E N1E 1_555 1_555
H4E C5E 1_555 1_555
C6E C3E 1_555 1_555
H5E C6E 1_555 1_555
H6E C6E 1_555 1_555
C7E C6E 1_555 1_555
H7E C7E 1_555 1_555
H8E C7E 1_555 1_555
C8E C7E 1_555 1_555
H9E C8E 1_555 1_555
H10E C8E 1_555 1_555
C9E C8E 1_555 1_555
C10E C9E 1_555 1_555
H11E C10E 1_555 1_555
C11E N2E 1_555 1_555
H12E C11E 1_555 1_555
C12E N2E 1_555 1_555
H13E C12E 1_555 1_555
C13E C9E 1_555 1_555
H14E C13E 1_555 1_555
C14D O2D 1_555 1_555
C15D C14D 1_555 1_555
C16D C17 1_555 1_555
H15D C16D 1_555 1_555
C17D C16 1_555 1_555
H16D C17D 1_555 1_555
C18E H17E 1_555 1_555
C19E C18E 1_555 1_555
H18E C19E 1_555 1_555
C20E C19E 1_555 1_555
C21E C20E 1_555 1_555
H19E C21E 1_555 1_555
C22E N3E 1_555 1_555
H20E C22E 1_555 1_555
C23E C20E 1_555 1_555
H21E C23E 1_555 1_555
H22E C23E 1_555 1_555
C24E C23E 1_555 1_555
H23E C24E 1_555 1_555
H24E C24E 1_555 1_555
C25E C24E 1_555 1_555
H25E C25E 1_555 1_555
H26E C25E 1_555 1_555
C26E C25E 1_555 1_555
C27E C26E 1_555 1_555
H27E C27E 1_555 1_555
C28E N4E 1_555 1_555
H28E C28E 1_555 1_555
C29E N4E 1_555 1_555
H29E C29E 1_555 1_555
C30E C26E 1_555 1_555
H30E C30E 1_555 1_555
C31D O3D 1_555 1_555
C32D C31D 1_555 1_555
C33D C32D 1_555 1_555
H31D C33D 1_555 1_555
C34D C33D 1_555 1_555
H32D C34D 1_555 1_555
C35D C34D 1_555 1_555
C36D C35D 1_555 1_555
H33D C36D 1_555 1_555
C37D C32D 1_555 1_555
H34D C37D 1_555 1_555
C38D O6D 1_555 1_555
C39E N5E 1_555 1_555
H35E C39E 1_555 1_555
C40E C39E 1_555 1_555
H36E C40E 1_555 1_555
C41E C40E 1_555 1_555
C42E C41E 1_555 1_555
H37E C42E 1_555 1_555
C43E N5E 1_555 1_555
H38E C43E 1_555 1_555
C44E C41E 1_555 1_555
H39E C44E 1_555 1_555
H40E C44E 1_555 1_555
C45E C44E 1_555 1_555
H41E C45E 1_555 1_555
H42E C45E 1_555 1_555
C46E C45E 1_555 1_555
H43E C46E 1_555 1_555
H44E C46E 1_555 1_555
C47E C46E 1_555 1_555
C48E C47E 1_555 1_555
H45E C48E 1_555 1_555
C49E C48E 1_555 1_555
H46E C49E 1_555 1_555
C50E N6E 1_555 1_555
H47E C50E 1_555 1_555
C51E C47E 1_555 1_555
H48E C51E 1_555 1_555
C52D O8D 1_555 1_555
C53D C52D 1_555 1_555
C54D C55 1_555 1_555
H49D C54D 1_555 1_555
C55D C54 1_555 1_555
H50D C55D 1_555 1_555
O4 C31 1_555 1_555
O8 C52 1_555 1_555
C4 C5 1_555 1_555
C12 C13 1_555 1_555
C21 C22 1_555 1_555
C29 C30 1_555 1_555
C35 C38 1_555 1_555
C36 C37 1_555 1_555
C42 C43 1_555 1_555
C48 C49 1_555 1_555
C50 C51 1_555 1_555
O4D C31D 1_555 1_555
C4E C5E 1_555 1_555
C10E C11E 1_555 1_555
C12E C13E 1_555 1_555
C15D C16D 1_555 1_555
C15D C17D 1_555 1_555
C21E C22E 1_555 1_555
C27E C28E 1_555 1_555
C29E C30E 1_555 1_555
C35D C38D 1_555 1_555
C36D C37D 1_555 1_555
C42E C43E 1_555 1_555
C50E C51E 1_555 1_555
C53D C54D 1_555 1_555
C53D C55D 1_555 1_555

#END
