
#######################################################################
#
#                 Cambridge Crystallographic Data Centre
#                                CCDC 
#
#######################################################################
#
# If this CIF has been generated from an entry in the Cambridge 
# Structural Database, then it will include bibliographic, chemical, 
# crystal, experimental, refinement or atomic coordinate data resulting 
# from the CCDC's data processing and validation procedures.
#
#######################################################################

data_WOCQIQ
_symmetry_cell_setting           orthorhombic
_symmetry_space_group_name_H-M   'P 21 21 21'
_symmetry_Int_Tables_number      19
_space_group_name_Hall           'P 2ac 2ab'
loop_
_symmetry_equiv_pos_site_id
_symmetry_equiv_pos_as_xyz
1 x,y,z
2 1/2-x,-y,1/2+z
3 -x,1/2+y,1/2-z
4 1/2+x,1/2-y,-z
_cell_length_a                   6.9732(6)
_cell_length_b                   11.7268(11)
_cell_length_c                   12.1168(11)
_cell_angle_alpha                90
_cell_angle_beta                 90
_cell_angle_gamma                90
_cell_volume                     990.831
loop_
_atom_site_label
_atom_site_type_symbol
_atom_site_fract_x
_atom_site_fract_y
_atom_site_fract_z
Ca1 Ca 0.44376(4) 0.78798(3) 0.42475(3)
O1 O 0.3950(2) 0.59798(11) 0.38337(13)
H1 H 0.454(3) 0.5509(18) 0.3534(18)
H2 H 0.298(3) 0.572(2) 0.4048(19)
Cl1 Cl 0.45531(6) 0.87477(3) 0.21862(3)
Cl2 Cl 0.50503(6) 0.99651(3) 0.52096(3)
O2 O 0.59357(16) 0.72335(10) 0.61765(9)
O3 O 0.27935(17) 0.74180(10) 0.59463(9)
C1 C 0.4268(2) 0.73551(12) 0.65511(13)
C2 C 0.3915(2) 0.74908(15) 0.77839(14)
H3 H 0.2859 0.6965 0.8014
C3 C 0.3380(3) 0.87149(19) 0.80995(17)
H4 H 0.2931 0.9146 0.7446
H5 H 0.2358 0.8721 0.8667
C4 C 0.5211(4) 0.92203(16) 0.85489(17)
H6 H 0.4935 0.9863 0.9054
H7 H 0.6045 0.9494 0.7944
C5 C 0.6140(3) 0.82426(15) 0.91609(16)
H8 H 0.7543 0.8354 0.9224
H9 H 0.5588 0.8155 0.9909
N1 N 0.5675(2) 0.72301(12) 0.84475(11)
H10 H 0.661(3) 0.7074(17) 0.8001(16)
H11 H 0.558(3) 0.6645(14) 0.8897(15)
Ca1C Ca -0.05624(4) 0.71202(3) 0.57525(3)
Ca1C_2 Ca 0.94376(4) 0.71202(3) 0.57525(3)
O2C O 0.09357(16) 0.77665(10) 0.38235(9)
O3C O 0.77935(17) 0.75820(10) 0.40537(9)
loop_
_geom_bond_atom_site_label_1
_geom_bond_atom_site_label_2
_geom_bond_site_symmetry_1
_geom_bond_site_symmetry_2
Ca1 O1 1_555 1_555
O1 H1 1_555 1_555
H2 O1 1_555 1_555
Cl1 Ca1 1_555 1_555
Cl2 Ca1 1_555 1_555
O2 Ca1 1_555 1_555
O3 Ca1 1_555 1_555
C1 O2 1_555 1_555
C2 C1 1_555 1_555
H3 C2 1_555 1_555
C3 C2 1_555 1_555
H4 C3 1_555 1_555
H5 C3 1_555 1_555
C4 C3 1_555 1_555
H6 C4 1_555 1_555
H7 C4 1_555 1_555
C5 C4 1_555 1_555
H8 C5 1_555 1_555
H9 C5 1_555 1_555
N1 C2 1_555 1_555
H10 N1 1_555 1_555
H11 N1 1_555 1_555
Ca1C O3 1_555 1_555
Ca1C_2 O2 1_555 1_555
O2C Ca1 1_555 1_555
O3C Ca1 1_555 1_555
O3 C1 1_555 1_555
C5 N1 1_555 1_555
Ca1C O2C 1_555 1_555
Ca1C_2 O3C 1_555 1_555

#END
