
#######################################################################
#
#                 Cambridge Crystallographic Data Centre
#                                CCDC 
#
#######################################################################
#
# If this CIF has been generated from an entry in the Cambridge 
# Structural Database, then it will include bibliographic, chemical, 
# crystal, experimental, refinement or atomic coordinate data resulting 
# from the CCDC's data processing and validation procedures.
#
#######################################################################

data_WOCXAP
_symmetry_cell_setting           tetragonal
_symmetry_space_group_name_H-M   'I 41/a'
_symmetry_Int_Tables_number      88
_space_group_name_Hall           '-I 4ad'
loop_
_symmetry_equiv_pos_site_id
_symmetry_equiv_pos_as_xyz
1 x,y,z
2 1/2-x,-y,1/2+z
3 3/4-y,1/4+x,1/4+z
4 3/4+y,3/4-x,3/4+z
5 1/2+x,1/2+y,1/2+z
6 -x,1/2-y,z
7 1/4-y,3/4+x,3/4+z
8 1/4+y,1/4-x,1/4+z
9 -x,-y,-z
10 1/2+x,y,1/2-z
11 1/4+y,3/4-x,3/4-z
12 1/4-y,1/4+x,1/4-z
13 1/2-x,1/2-y,1/2-z
14 x,1/2+y,-z
15 3/4+y,1/4-x,1/4-z
16 3/4-y,3/4+x,3/4-z
_cell_length_a                   19.1231(3)
_cell_length_b                   19.1231(3)
_cell_length_c                   19.3407(5)
_cell_angle_alpha                90
_cell_angle_beta                 90
_cell_angle_gamma                90
_cell_volume                     7072.76
loop_
_atom_site_label
_atom_site_type_symbol
_atom_site_fract_x
_atom_site_fract_y
_atom_site_fract_z
Cu1 Cu 0.20102(3) 0.92479(3) 0.12377(3)
C1 C 0.2981(3) 0.8104(3) 0.1053(3)
H1 H 0.2836 0.8166 0.0598
C2 C 0.3481(3) 0.7605(3) 0.1183(3)
H2 H 0.3668 0.7337 0.0827
C3 C 0.3697(3) 0.7515(3) 0.1853(3)
H3 H 0.4039 0.7187 0.1960
C4 C 0.3399(3) 0.7920(3) 0.2368(3)
H4 H 0.3541 0.7862 0.2824
C5 C 0.2894(3) 0.8408(3) 0.2208(2)
C6 C 0.2583(2) 0.8827(3) 0.2784(2)
C7 C 0.2610(3) 0.8886(3) 0.4012(3)
H5 H 0.2779 0.8616 0.4396
H6 H 0.2113 0.8942 0.4051
H7 H 0.2830 0.9337 0.4014
C8 C 0.1608(2) 1.0236(3) 0.2233(2)
C9 C 0.1345(2) 1.0521(2) 0.1562(2)
C10 C 0.1190(3) 1.0331(3) 0.0411(3)
H8 H 0.1248 1.0059 0.0017
C11 C 0.0832(3) 1.0954(3) 0.0369(3)
H9 H 0.0653 1.1091 -0.0057
C12 C 0.0990(3) 1.1137(3) 0.1510(3)
H10 H 0.0926 1.1407 0.1905
N1 N 0.1456(2) 1.0115(2) 0.10114(19)
N2 N 0.1981(2) 0.9663(2) 0.21653(18)
N3 N 0.2197(2) 0.9374(2) 0.27956(19)
N4 N 0.2691(2) 0.8506(2) 0.1541(2)
N5 N 0.0731(3) 1.1364(3) 0.0909(2)
O1 O 0.2772(2) 0.85325(19) 0.33804(17)
O2 O 0.14436(18) 1.05659(17) 0.27744(16)
O3 O 0.1079(2) 0.8516(2) 0.1532(2)
H11 H 0.0662 0.8669 0.1515
H12 H 0.1157 0.8096 0.1655
Cu1G Cu 0.17479(3) 1.04898(3) 0.37377(3)
O2F O 0.19341(17) 0.89436(18) 0.02744(16)
O4 O 0.0000 1.2500 0.0321(3)
H13 H -0.0122 1.2842 0.0575
H13E H 0.0122 1.2158 0.0575
O5 O 0.1022(7) 0.7481(7) 0.0747(7)
H14 H 0.1322 0.7435 0.0426
H15 H 0.0705 0.7174 0.0800
O6 O 0.1503(6) 0.7910(7) 0.5729(10)
O7 O 0.2303(4) 0.8689(3) 0.5686(5)
O8 O 0.2382(6) 0.7831(6) 0.6475(3)
O9 O 0.2542(6) 0.7581(4) 0.5379(3)
Cl1 Cl 0.21665(12) 0.80066(8) 0.58272(8)
loop_
_geom_bond_atom_site_label_1
_geom_bond_atom_site_label_2
_geom_bond_site_symmetry_1
_geom_bond_site_symmetry_2
Cu1 N1 1_555 1_555
C1 H1 1_555 1_555
C2 C1 1_555 1_555
H2 C2 1_555 1_555
C3 C2 1_555 1_555
H3 C3 1_555 1_555
C4 C3 1_555 1_555
H4 C4 1_555 1_555
C5 C4 1_555 1_555
C6 C5 1_555 1_555
C7 H5 1_555 1_555
H6 C7 1_555 1_555
H7 C7 1_555 1_555
C8 C9 1_555 1_555
C9 C12 1_555 1_555
C10 H8 1_555 1_555
C11 C10 1_555 1_555
H9 C11 1_555 1_555
C12 H10 1_555 1_555
N1 C9 1_555 1_555
N2 Cu1 1_555 1_555
N3 C6 1_555 1_555
N4 Cu1 1_555 1_555
N5 C11 1_555 1_555
O1 C6 1_555 1_555
O2 C8 1_555 1_555
O3 Cu1 1_555 1_555
H11 O3 1_555 1_555
H12 O3 1_555 1_555
O4 H13 1_555 1_555
O5 H14 1_555 1_555
H15 O5 1_555 1_555
O6 Cl1 1_555 1_555
O7 Cl1 1_555 1_555
O8 Cl1 1_555 1_555
O9 Cl1 1_555 1_555
Cu1G O2 1_555 1_555
O2F Cu1 1_555 1_555
H13E O4 1_555 1_555
C1 N4 1_555 1_555
C5 N4 1_555 1_555
C7 O1 1_555 1_555
C8 N2 1_555 1_555
C10 N1 1_555 1_555
C12 N5 1_555 1_555
N2 N3 1_555 1_555

#END
