
#######################################################################
#
#                 Cambridge Crystallographic Data Centre
#                                CCDC 
#
#######################################################################
#
# If this CIF has been generated from an entry in the Cambridge 
# Structural Database, then it will include bibliographic, chemical, 
# crystal, experimental, refinement or atomic coordinate data resulting 
# from the CCDC's data processing and validation procedures.
#
#######################################################################

data_WOCXIW
_symmetry_cell_setting           monoclinic
_symmetry_space_group_name_H-M   'C 2/c'
_symmetry_Int_Tables_number      15
_space_group_name_Hall           '-C 2yn'
loop_
_symmetry_equiv_pos_site_id
_symmetry_equiv_pos_as_xyz
1 x,y,z
2 1/2+x,1/2+y,z
3 -x,y,1/2-z
4 1/2-x,1/2+y,1/2-z
5 -x,-y,-z
6 1/2-x,1/2-y,-z
7 x,-y,1/2+z
8 1/2+x,1/2-y,1/2+z
_cell_length_a                   15.727(2)
_cell_length_b                   27.878(4)
_cell_length_c                   12.9629(18)
_cell_angle_alpha                90
_cell_angle_beta                 103.922(6)
_cell_angle_gamma                90
_cell_volume                     5516.46
loop_
_atom_site_label
_atom_site_type_symbol
_atom_site_fract_x
_atom_site_fract_y
_atom_site_fract_z
Ag1 Ag 0.52839(2) 0.678655(10) 0.88514(4)
O1 O 0.37406(17) 0.51769(9) 0.8376(2)
O2 O 0.14838(18) 0.33197(9) 0.6336(2)
O3 O 0.83666(18) 0.67803(9) 0.8327(2)
N1 N 0.3870(2) 0.66333(12) 0.8846(3)
N2 N 0.25215(19) 0.55399(10) 0.8701(2)
H1 H 0.1992 0.5482 0.8783
N3 N 0.2469(2) 0.47597(11) 0.8153(3)
H2 H 0.1907 0.4775 0.8140
N4 N 0.1535(2) 0.41351(10) 0.6465(3)
H3 H 0.1226 0.4402 0.6363
N5 N 0.02221(19) 0.37476(10) 0.6222(2)
H4 H 0.0010 0.4041 0.6178
N6 N -0.0759(2) 0.25426(11) 0.6209(3)
N7 N 0.6174(2) 0.61490(11) 0.8896(3)
N8 N 0.8487(2) 0.59838(10) 0.8787(3)
H5 H 0.8852 0.5740 0.8899
N9 N 0.9656(2) 0.63880(11) 0.8467(3)
H6 H 0.9957 0.6123 0.8657
C1 C 0.3370(3) 0.69406(15) 0.9234(4)
H7 H 0.3549 0.7266 0.9338
C2 C 0.2604(3) 0.68002(13) 0.9489(4)
H8 H 0.2270 0.7025 0.9778
C3 C 0.2328(2) 0.63329(13) 0.9320(3)
H9 H 0.1804 0.6231 0.9494
C4 C 0.2831(2) 0.60073(12) 0.8887(3)
C5 C 0.3590(2) 0.61781(13) 0.8671(3)
H10 H 0.3937 0.5962 0.8381
C6 C 0.2967(2) 0.51578(12) 0.8398(3)
C7 C 0.2835(3) 0.43077(12) 0.7910(3)
H11 H 0.2692 0.4053 0.8375
H12 H 0.3480 0.4336 0.8061
C8 C 0.2482(2) 0.41658(13) 0.6757(3)
H13 H 0.2675 0.4405 0.6296
H14 H 0.2731 0.3851 0.6632
C9 C 0.1105(2) 0.37047(12) 0.6342(3)
C10 C -0.0377(2) 0.33765(12) 0.6162(3)
C11 C -0.1255(2) 0.34942(12) 0.6071(3)
H15 H -0.1432 0.3821 0.6027
C12 C -0.1862(3) 0.31360(13) 0.6044(3)
H16 H -0.2462 0.3213 0.5973
C13 C -0.1592(2) 0.26652(13) 0.6121(4)
H17 H -0.2013 0.2420 0.6111
C14 C -0.0160(3) 0.28934(13) 0.6222(4)
H18 H 0.0433 0.2805 0.6275
C15 C 0.5983(3) 0.57028(13) 0.9133(3)
H19 H 0.5409 0.5632 0.9205
C16 C 0.6603(3) 0.53378(13) 0.9277(3)
H20 H 0.6451 0.5022 0.9442
C17 C 0.7434(2) 0.54349(12) 0.9179(3)
H21 H 0.7865 0.5189 0.9295
C18 C 0.7643(2) 0.58971(12) 0.8910(3)
C19 C 0.6995(2) 0.62447(13) 0.8781(4)
H22 H 0.7129 0.6562 0.8605
C20 C 0.8807(2) 0.64122(12) 0.8509(3)
C21 C 1.0072(3) 0.68006(13) 0.8107(3)
H23 H 1.0709 0.6794 0.8440
H24 H 0.9828 0.7099 0.8334
Ag1C Ag -0.02839(2) 1.178655(10) 0.61486(4)
Ag1C_2 Ag -0.02839(2) 0.178655(10) 0.61486(4)
Ag1B Ag 1.47161(2) 0.678655(10) 0.61486(4)
O1C O 0.12594(17) 1.01769(9) 0.6624(2)
O2C O 0.35162(18) 0.83197(9) 0.8664(2)
O3B O 1.16334(18) 0.67803(9) 0.6673(2)
N1C N 0.1130(2) 1.16333(12) 0.6154(3)
N2C N 0.24785(19) 1.05399(10) 0.6299(2)
H1C H 0.3008 1.0482 0.6217
N3C N 0.2531(2) 0.97597(11) 0.6847(3)
H2C H 0.3093 0.9775 0.6860
N4C N 0.3465(2) 0.91351(10) 0.8535(3)
H3C H 0.3774 0.9402 0.8637
N5C N 0.47779(19) 0.87476(10) 0.8778(2)
H4C H 0.4990 0.9041 0.8822
N6C N 0.5759(2) 0.75426(11) 0.8791(3)
N6_2 N -0.0759(2) 1.25426(11) 0.6209(3)
N7B N 1.3826(2) 0.61490(11) 0.6104(3)
N7C N -0.1174(2) 1.11490(11) 0.6104(3)
N8B N 1.1513(2) 0.59838(10) 0.6213(3)
H5B H 1.1148 0.5740 0.6101
N9B N 1.0344(2) 0.63880(11) 0.6533(3)
H6B H 1.0043 0.6123 0.6343
C1C C 0.1630(3) 1.19406(15) 0.5766(4)
H7C H 0.1451 1.2266 0.5662
C2C C 0.2396(3) 1.18002(13) 0.5511(4)
H8C H 0.2730 1.2025 0.5222
C3C C 0.2672(2) 1.13329(13) 0.5680(3)
H9C H 0.3196 1.1231 0.5506
C4C C 0.2169(2) 1.10073(12) 0.6113(3)
C5C C 0.1410(2) 1.11781(13) 0.6329(3)
H10C H 0.1063 1.0962 0.6619
C6C C 0.2033(2) 1.01578(12) 0.6602(3)
C7C C 0.2165(3) 0.93077(12) 0.7090(3)
H11C H 0.2308 0.9053 0.6625
H12C H 0.1520 0.9336 0.6939
C8C C 0.2518(2) 0.91658(13) 0.8243(3)
H13C H 0.2325 0.9405 0.8704
H14C H 0.2269 0.8851 0.8368
C9C C 0.3895(2) 0.87047(12) 0.8658(3)
C10C C 0.5377(2) 0.83765(12) 0.8838(3)
C11C C 0.6255(2) 0.84942(12) 0.8929(3)
H15C H 0.6432 0.8821 0.8973
C12C C 0.6862(3) 0.81360(13) 0.8956(3)
H16C H 0.7462 0.8213 0.9027
C13C C 0.6592(2) 0.76652(13) 0.8879(4)
H17C H 0.7013 0.7420 0.8889
C14C C 0.5160(3) 0.78934(13) 0.8778(4)
H18C H 0.4567 0.7805 0.8725
C15B C 1.4017(3) 0.57028(13) 0.5867(3)
H19B H 1.4591 0.5632 0.5795
C16B C 1.3397(3) 0.53378(13) 0.5723(3)
H20B H 1.3549 0.5022 0.5558
C17B C 1.2566(2) 0.54349(12) 0.5821(3)
H21B H 1.2135 0.5189 0.5705
C18B C 1.2357(2) 0.58971(12) 0.6090(3)
C19B C 1.3005(2) 0.62447(13) 0.6219(4)
H22B H 1.2871 0.6562 0.6395
C20B C 1.1193(2) 0.64122(12) 0.6491(3)
C21B C 0.9928(3) 0.68006(13) 0.6893(3)
H23B H 0.9291 0.6794 0.6560
H24B H 1.0172 0.7099 0.6666
O4 O 0.06935(17) 0.46917(9) 0.8746(2)
O5 O 0.06750(18) 0.54673(9) 0.8833(2)
O6 O -0.05148(17) 0.50685(9) 0.8787(2)
N10 N 0.02839(18) 0.50750(10) 0.8792(2)
N11 N 0.5695(6) 0.6834(4) 1.1015(8)
C22 C 0.6050(5) 0.6988(4) 1.1775(8)
C23 C 0.6529(4) 0.7171(2) 1.2757(5)
H25 H 0.6230 0.7088 1.3314
H26 H 0.6574 0.7520 1.2710
H27 H 0.7118 0.7030 1.2929
loop_
_geom_bond_atom_site_label_1
_geom_bond_atom_site_label_2
_geom_bond_site_symmetry_1
_geom_bond_site_symmetry_2
Ag1 N1 1_555 1_555
O1 C6 1_555 1_555
O2 C9 1_555 1_555
O3 C20 1_555 1_555
O4 N10 1_555 1_555
O5 N10 1_555 1_555
O6 N10 1_555 1_555
N1 C1 1_555 1_555
N2 H1 1_555 1_555
N3 H2 1_555 1_555
N4 H3 1_555 1_555
N5 H4 1_555 1_555
N6 C13 1_555 1_555
N7 Ag1 1_555 1_555
N8 H5 1_555 1_555
N9 H6 1_555 1_555
N11 C22 1_555 1_555
C1 H7 1_555 1_555
C2 C1 1_555 1_555
H8 C2 1_555 1_555
C3 C2 1_555 1_555
H9 C3 1_555 1_555
C4 N2 1_555 1_555
C5 N1 1_555 1_555
H10 C5 1_555 1_555
C6 N2 1_555 1_555
C7 N3 1_555 1_555
H11 C7 1_555 1_555
H12 C7 1_555 1_555
C8 N4 1_555 1_555
H13 C8 1_555 1_555
H14 C8 1_555 1_555
C9 N4 1_555 1_555
C10 N5 1_555 1_555
C11 C10 1_555 1_555
H15 C11 1_555 1_555
C12 C11 1_555 1_555
H16 C12 1_555 1_555
C13 C12 1_555 1_555
H17 C13 1_555 1_555
C14 N6 1_555 1_555
H18 C14 1_555 1_555
C15 N7 1_555 1_555
H19 C15 1_555 1_555
C16 C15 1_555 1_555
H20 C16 1_555 1_555
C17 C16 1_555 1_555
H21 C17 1_555 1_555
C18 N8 1_555 1_555
C19 N7 1_555 1_555
H22 C19 1_555 1_555
C20 N8 1_555 1_555
C21 N9 1_555 1_555
H23 C21 1_555 1_555
H24 C21 1_555 1_555
C22 C23 1_555 1_555
C23 H25 1_555 1_555
H26 C23 1_555 1_555
H27 C23 1_555 1_555
Ag1C N1C 1_555 1_555
Ag1C_2 N6 1_555 1_555
Ag1B N7B 1_555 1_555
O1C C6C 1_555 1_555
O2C C9C 1_555 1_555
O3B C20B 1_555 1_555
N1C C1C 1_555 1_555
N2C H1C 1_555 1_555
N3C H2C 1_555 1_555
N4C H3C 1_555 1_555
N5C H4C 1_555 1_555
N6C Ag1 1_555 1_555
N6_2 Ag1C 1_555 1_555
N7B C15B 1_555 1_555
N7C Ag1C 1_555 1_555
N8B H5B 1_555 1_555
N9B H6B 1_555 1_555
C1C H7C 1_555 1_555
C2C C1C 1_555 1_555
H8C C2C 1_555 1_555
C3C C2C 1_555 1_555
H9C C3C 1_555 1_555
C4C N2C 1_555 1_555
C5C N1C 1_555 1_555
H10C C5C 1_555 1_555
C6C N2C 1_555 1_555
C7C N3C 1_555 1_555
H11C C7C 1_555 1_555
H12C C7C 1_555 1_555
C8C N4C 1_555 1_555
H13C C8C 1_555 1_555
H14C C8C 1_555 1_555
C9C N4C 1_555 1_555
C10C N5C 1_555 1_555
C11C C10C 1_555 1_555
H15C C11C 1_555 1_555
C12C C11C 1_555 1_555
H16C C12C 1_555 1_555
C13C N6C 1_555 1_555
H17C C13C 1_555 1_555
C14C N6C 1_555 1_555
H18C C14C 1_555 1_555
C15B H19B 1_555 1_555
C16B C15B 1_555 1_555
H20B C16B 1_555 1_555
C17B C16B 1_555 1_555
H21B C17B 1_555 1_555
C18B N8B 1_555 1_555
C19B N7B 1_555 1_555
H22B C19B 1_555 1_555
C20B N8B 1_555 1_555
C21B C21 1_555 1_555
H23B C21B 1_555 1_555
H24B C21B 1_555 1_555
N3 C6 1_555 1_555
N5 C9 1_555 1_555
N9 C20 1_555 1_555
C3 C4 1_555 1_555
C4 C5 1_555 1_555
C7 C8 1_555 1_555
C10 C14 1_555 1_555
C17 C18 1_555 1_555
C18 C19 1_555 1_555
N3C C6C 1_555 1_555
N5C C9C 1_555 1_555
N9B C20B 1_555 1_555
N9B C21B 1_555 1_555
C3C C4C 1_555 1_555
C4C C5C 1_555 1_555
C7C C8C 1_555 1_555
C10C C14C 1_555 1_555
C12C C13C 1_555 1_555
C17B C18B 1_555 1_555
C18B C19B 1_555 1_555

#END
