
#######################################################################
#
#                 Cambridge Crystallographic Data Centre
#                                CCDC 
#
#######################################################################
#
# If this CIF has been generated from an entry in the Cambridge 
# Structural Database, then it will include bibliographic, chemical, 
# crystal, experimental, refinement or atomic coordinate data resulting 
# from the CCDC's data processing and validation procedures.
#
#######################################################################

data_WODCEY
_symmetry_cell_setting           monoclinic
_symmetry_space_group_name_H-M   'P 21'
_symmetry_Int_Tables_number      4
_space_group_name_Hall           'P 2yb'
loop_
_symmetry_equiv_pos_site_id
_symmetry_equiv_pos_as_xyz
1 x,y,z
2 -x,1/2+y,-z
_cell_length_a                   10.806(4)
_cell_length_b                   15.391(6)
_cell_length_c                   11.566(4)
_cell_angle_alpha                90
_cell_angle_beta                 102.882(8)
_cell_angle_gamma                90
_cell_volume                     1875.19
loop_
_atom_site_label
_atom_site_type_symbol
_atom_site_fract_x
_atom_site_fract_y
_atom_site_fract_z
P1 P 0.0898(4) 0.7647(3) 0.8255(4)
O1 O 0.1155(7) 0.7896(5) 0.6962(8)
C1 C -0.0683(13) 0.8602(8) 0.5777(11)
C2 C 0.0526(14) 0.8622(9) 0.6298(12)
C3 C 0.1384(15) 0.9321(9) 0.6208(13)
H1 H 0.2255 0.9284 0.6515
C4 C 0.0799(17) 1.0068(10) 0.5616(12)
H2 H 0.1314 1.0533 0.5516
C5 C -0.0483(17) 1.0146(9) 0.5182(12)
C6 C -0.1069(18) 1.0904(9) 0.4689(13)
H3 H -0.0564 1.1388 0.4652
C7 C -0.2371(18) 1.0978(9) 0.4246(12)
H4 H -0.2721 1.1498 0.3917
C8 C -0.3120(15) 1.0283(11) 0.4302(13)
H5 H -0.3991 1.0333 0.4007
C9 C -0.2617(17) 0.9479(10) 0.4797(13)
H6 H -0.3157 0.9015 0.4838
C10 C -0.1256(15) 0.9383(9) 0.5239(12)
C11 C -0.1464(12) 0.7797(8) 0.5857(13)
C12 C -0.1433(13) 0.7430(9) 0.6958(15)
C13 C -0.2204(14) 0.6723(8) 0.7108(13)
H7 H -0.2143 0.6489 0.7860
C14 C -0.3037(12) 0.6380(12) 0.6166(14)
H8 H -0.3604 0.5951 0.6281
C15 C -0.3041(13) 0.6676(9) 0.5005(16)
C16 C -0.3734(12) 0.6301(13) 0.3930(16)
H9 H -0.4307 0.5868 0.4017
C17 C -0.3676(15) 0.6485(10) 0.2808(16)
H10 H -0.4146 0.6188 0.2156
C18 C -0.2836(18) 0.7171(12) 0.2710(15)
H11 H -0.2777 0.7348 0.1955
C19 C -0.2122(15) 0.7580(10) 0.3643(14)
H12 H -0.1570 0.8015 0.3518
C20 C -0.2186(14) 0.7366(9) 0.4816(15)
O2 O -0.0673(9) 0.7804(6) 0.7974(9)
N1 N 0.1327(11) 0.8435(6) 0.9265(10)
C21 C 0.0708(15) 0.9318(9) 0.9150(14)
H13 H 0.0127 0.9339 0.8368
C22 C 0.1705(15) 1.0037(8) 0.9166(13)
H14 H 0.2143 0.9934 0.8542
H15 H 0.2303 1.0032 0.9917
H16 H 0.1290 1.0592 0.9049
C23 C -0.0083(18) 0.9424(9) 1.0053(17)
C24 C 0.047(2) 0.9840(12) 1.118(2)
H17 H 0.1292 1.0053 1.1325
C25 C -0.017(3) 0.9907(17) 1.192(3)
H18 H 0.0248 1.0174 1.2623
C26 C -0.134(4) 0.9669(16) 1.192(2)
H19 H -0.1710 0.9755 1.2564
C27 C -0.203(2) 0.9253(13) 1.080(3)
H20 H -0.2857 0.9050 1.0696
C28 C -0.131(2) 0.9191(10) 0.9899(18)
H21 H -0.1721 0.8975 0.9161
C29 C 0.2386(15) 0.8243(10) 1.0245(14)
H22 H 0.2403 0.8728 1.0798
C30 C 0.3659(14) 0.8274(8) 0.9922(13)
H23 H 0.3712 0.8787 0.9463
H24 H 0.3760 0.7769 0.9465
H25 H 0.4319 0.8286 1.0632
C31 C 0.2159(17) 0.7429(9) 1.0954(13)
C32 C 0.3009(17) 0.6744(10) 1.1138(13)
H26 H 0.3721 0.6766 1.0812
C33 C 0.2818(19) 0.6026(11) 1.1798(16)
H27 H 0.3391 0.5566 1.1911
C34 C 0.1734(19) 0.6003(11) 1.2298(13)
H28 H 0.1574 0.5522 1.2730
C35 C 0.0909(19) 0.6714(12) 1.2134(17)
H29 H 0.0218 0.6727 1.2490
C36 C 0.113(2) 0.7402(11) 1.1432(14)
H30 H 0.0557 0.7858 1.1287
Ag1 Ag 0.18422(11) 0.62314(8) 0.87261(10)
O3 O 0.3948(12) 0.6159(16) 0.8344(10)
Cl3 Cl 0.5129(5) 0.5888(3) 0.8970(5)
O4 O 0.5934(13) 0.6540(7) 0.9605(13)
O5 O 0.5765(11) 0.5364(8) 0.8308(10)
O6 O 0.4836(18) 0.5405(11) 0.9921(19)
C26A C 0.134(4) 0.4669(16) 0.808(2)
H19A H 0.1710 0.4755 0.7436
Ag1A Ag -0.18422(11) 1.12314(8) 1.12739(10)
C37 C -0.662(5) 0.804(2) 0.433(2)
H31 H -0.6572 0.7462 0.4016
H32 H -0.7486 0.8154 0.4383
Cl1 Cl -0.5553(8) 0.8147(6) 0.5768(12)
Cl2 Cl -0.6153(14) 0.8794(7) 0.3408(11)
loop_
_geom_bond_atom_site_label_1
_geom_bond_atom_site_label_2
_geom_bond_site_symmetry_1
_geom_bond_site_symmetry_2
P1 O1 1_555 1_555
O1 C2 1_555 1_555
C1 C2 1_555 1_555
C2 C3 1_555 1_555
C3 H1 1_555 1_555
C4 C3 1_555 1_555
H2 C4 1_555 1_555
C5 C4 1_555 1_555
C6 C5 1_555 1_555
H3 C6 1_555 1_555
C7 C6 1_555 1_555
H4 C7 1_555 1_555
C8 C7 1_555 1_555
H5 C8 1_555 1_555
C9 C8 1_555 1_555
H6 C9 1_555 1_555
C10 C1 1_555 1_555
C11 C1 1_555 1_555
C12 C11 1_555 1_555
C13 C12 1_555 1_555
H7 C13 1_555 1_555
C14 C13 1_555 1_555
H8 C14 1_555 1_555
C15 C14 1_555 1_555
C16 C15 1_555 1_555
H9 C16 1_555 1_555
C17 C16 1_555 1_555
H10 C17 1_555 1_555
C18 C17 1_555 1_555
H11 C18 1_555 1_555
C19 C18 1_555 1_555
H12 C19 1_555 1_555
C20 C11 1_555 1_555
O2 P1 1_555 1_555
N1 P1 1_555 1_555
C21 N1 1_555 1_555
H13 C21 1_555 1_555
C22 C21 1_555 1_555
H14 C22 1_555 1_555
H15 C22 1_555 1_555
H16 C22 1_555 1_555
C23 C21 1_555 1_555
C24 C23 1_555 1_555
H17 C24 1_555 1_555
C25 C24 1_555 1_555
H18 C25 1_555 1_555
C26 C25 1_555 1_555
H19 C26 1_555 1_555
C27 C26 1_555 1_555
H20 C27 1_555 1_555
C28 C23 1_555 1_555
H21 C28 1_555 1_555
C29 N1 1_555 1_555
H22 C29 1_555 1_555
C30 C29 1_555 1_555
H23 C30 1_555 1_555
H24 C30 1_555 1_555
H25 C30 1_555 1_555
C31 C29 1_555 1_555
C32 C31 1_555 1_555
H26 C32 1_555 1_555
C33 C32 1_555 1_555
H27 C33 1_555 1_555
C34 C33 1_555 1_555
H28 C34 1_555 1_555
C35 C34 1_555 1_555
H29 C35 1_555 1_555
C36 C31 1_555 1_555
H30 C36 1_555 1_555
C37 H31 1_555 1_555
H32 C37 1_555 1_555
Cl1 C37 1_555 1_555
Cl2 C37 1_555 1_555
Ag1 P1 1_555 1_555
O3 Ag1 1_555 1_555
Cl3 O3 1_555 1_555
O4 Cl3 1_555 1_555
O5 Cl3 1_555 1_555
O6 Cl3 1_555 1_555
C26A Ag1 1_555 1_555
H19A C26A 1_555 1_555
Ag1A C26 1_555 1_555
C5 C10 1_555 1_555
C9 C10 1_555 1_555
C12 O2 1_555 1_555
C15 C20 1_555 1_555
C19 C20 1_555 1_555
C27 C28 1_555 1_555
C35 C36 1_555 1_555

#END
