
#######################################################################
#
#                 Cambridge Crystallographic Data Centre
#                                CCDC 
#
#######################################################################
#
# If this CIF has been generated from an entry in the Cambridge 
# Structural Database, then it will include bibliographic, chemical, 
# crystal, experimental, refinement or atomic coordinate data resulting 
# from the CCDC's data processing and validation procedures.
#
#######################################################################

data_WODFUQ
_symmetry_cell_setting           monoclinic
_symmetry_space_group_name_H-M   'P 21/c'
_symmetry_Int_Tables_number      14
_space_group_name_Hall           '-P 2ybc'
loop_
_symmetry_equiv_pos_site_id
_symmetry_equiv_pos_as_xyz
1 x,y,z
2 x,1/2-y,1/2+z
3 -x,-y,-z
4 -x,1/2+y,1/2-z
_cell_length_a                   7.7846(10)
_cell_length_b                   17.781(3)
_cell_length_c                   13.173(3)
_cell_angle_alpha                90.00
_cell_angle_beta                 91.534(13)
_cell_angle_gamma                90.00
_cell_volume                     1822.73
loop_
_atom_site_label
_atom_site_type_symbol
_atom_site_fract_x
_atom_site_fract_y
_atom_site_fract_z
Ag1 Ag 0.22144(4) 0.389820(18) -0.07619(2)
N1 N -0.3542(5) 0.3409(3) -0.4356(3)
N2 N 0.1681(4) 0.41570(17) -0.2559(2)
N3 N 0.3863(4) 0.29079(16) -0.1551(2)
N4 N 0.9618(5) 0.3355(3) -0.0271(3)
N5 N 0.0932(7) 0.6847(3) -0.2567(4)
N6 N 0.2254(7) 0.0382(3) -0.0699(4)
C1 C -0.2132(6) 0.3554(3) -0.4206(3)
C2 C -0.0350(5) 0.3736(2) -0.3995(3)
H1 H -0.0058 0.4195 -0.4349
H2 H 0.0372 0.3335 -0.4245
C3 C 0.0002(5) 0.3841(2) -0.2845(3)
H3 H -0.0881 0.4166 -0.2581
H4 H -0.0107 0.3356 -0.2516
C4 C 0.3126(5) 0.3739(2) -0.3021(3)
H5 H 0.4192 0.4004 -0.2873
H6 H 0.2949 0.3728 -0.3752
C5 C 0.3291(5) 0.2937(2) -0.2632(3)
H7 H 0.2188 0.2686 -0.2710
H8 H 0.4109 0.2667 -0.3038
C6 C 0.5727(5) 0.3008(2) -0.1463(3)
H9 H 0.6081 0.3380 -0.1953
H10 H 0.6288 0.2537 -0.1623
C7 C 0.6301(5) 0.3258(2) -0.0408(3)
H11 H 0.5793 0.3742 -0.0261
H12 H 0.5899 0.2899 0.0087
C8 C 0.8161(5) 0.3316(2) -0.0320(3)
C9 C 0.1839(5) 0.4964(2) -0.2808(3)
H13 H 0.1410 0.5050 -0.3497
H14 H 0.3040 0.5109 -0.2773
C10 C 0.0836(8) 0.5441(2) -0.2080(4)
H15 H -0.0353 0.5278 -0.2091
H16 H 0.1302 0.5371 -0.1396
C11 C 0.0910(7) 0.6236(2) -0.2344(4)
C12 C 0.3263(5) 0.2222(2) -0.1056(3)
H17 H 0.2019 0.2206 -0.1118
H18 H 0.3565 0.2253 -0.0338
C13 C 0.3976(6) 0.1476(2) -0.1471(3)
H19 H 0.5189 0.1434 -0.1290
H20 H 0.3854 0.1470 -0.2205
C14 C 0.3045(7) 0.0842(3) -0.1046(4)
N7 N 0.3440(5) 0.4674(2) 0.1068(3)
O1 O 0.2879(7) 0.4940(2) 0.0265(3)
O2 O 0.3508(7) 0.3985(2) 0.1103(3)
O3 O 0.3875(6) 0.5066(2) 0.1790(3)
N4_2 N -0.0382(5) 0.3355(3) -0.0271(3)
Ag1_2 Ag 1.22144(4) 0.389820(18) -0.07619(2)
loop_
_geom_bond_atom_site_label_1
_geom_bond_atom_site_label_2
_geom_bond_site_symmetry_1
_geom_bond_site_symmetry_2
Ag1 N2 1_555 1_555
N1 C1 1_555 1_555
N2 C3 1_555 1_555
N3 Ag1 1_555 1_555
N4 C8 1_555 1_555
N5 C11 1_555 1_555
N6 C14 1_555 1_555
C1 C2 1_555 1_555
C2 H1 1_555 1_555
H2 C2 1_555 1_555
C3 C2 1_555 1_555
H3 C3 1_555 1_555
H4 C3 1_555 1_555
C4 N2 1_555 1_555
H5 C4 1_555 1_555
H6 C4 1_555 1_555
C5 N3 1_555 1_555
H7 C5 1_555 1_555
H8 C5 1_555 1_555
C6 N3 1_555 1_555
H9 C6 1_555 1_555
H10 C6 1_555 1_555
C7 C6 1_555 1_555
H11 C7 1_555 1_555
H12 C7 1_555 1_555
C8 C7 1_555 1_555
C9 N2 1_555 1_555
H13 C9 1_555 1_555
H14 C9 1_555 1_555
C10 C9 1_555 1_555
H15 C10 1_555 1_555
H16 C10 1_555 1_555
C11 C10 1_555 1_555
C12 N3 1_555 1_555
H17 C12 1_555 1_555
H18 C12 1_555 1_555
C13 C12 1_555 1_555
H19 C13 1_555 1_555
H20 C13 1_555 1_555
C14 C13 1_555 1_555
N7 O1 1_555 1_555
O1 Ag1 1_555 1_555
O2 Ag1 1_555 1_555
O3 N7 1_555 1_555
N4_2 Ag1 1_555 1_555
Ag1_2 N4 1_555 1_555
C4 C5 1_555 1_555
N7 O2 1_555 1_555

#END
