
#######################################################################
#
#                 Cambridge Crystallographic Data Centre
#                                CCDC 
#
#######################################################################
#
# If this CIF has been generated from an entry in the Cambridge 
# Structural Database, then it will include bibliographic, chemical, 
# crystal, experimental, refinement or atomic coordinate data resulting 
# from the CCDC's data processing and validation procedures.
#
#######################################################################

data_WODQOW
_symmetry_cell_setting           cubic
_symmetry_space_group_name_H-M   'P a -3'
_symmetry_Int_Tables_number      205
_space_group_name_Hall           '-P 2ac 2ab 3'
loop_
_symmetry_equiv_pos_site_id
_symmetry_equiv_pos_as_xyz
1 x,y,z
2 z,x,y
3 y,z,x
4 1/2-x,-y,1/2+z
5 -x,1/2+y,1/2-z
6 1/2+x,1/2-y,-z
7 1/2+z,1/2-x,-y
8 1/2-z,-x,1/2+y
9 -z,1/2+x,1/2-y
10 -y,1/2+z,1/2-x
11 1/2+y,1/2-z,-x
12 1/2-y,-z,1/2+x
13 -x,-y,-z
14 -z,-x,-y
15 -y,-z,-x
16 1/2+x,y,1/2-z
17 x,1/2-y,1/2+z
18 1/2-x,1/2+y,z
19 1/2-z,1/2+x,y
20 1/2+z,x,1/2-y
21 z,1/2-x,1/2+y
22 y,1/2-z,1/2+x
23 1/2-y,1/2+z,x
24 1/2+y,z,1/2-x
_cell_length_a                   15.046(2)
_cell_length_b                   15.046(2)
_cell_length_c                   15.046(2)
_cell_angle_alpha                90
_cell_angle_beta                 90
_cell_angle_gamma                90
_cell_volume                     3406.15
loop_
_atom_site_label
_atom_site_type_symbol
_atom_site_fract_x
_atom_site_fract_y
_atom_site_fract_z
N5 N 0.0671(8) 0.0671(8) 0.0671(8)
O1 O 0.0300(10) 0.1330(8) 0.0297(8)
O1A O 0.0297(8) 0.0300(10) 0.1330(8)
O1B O 0.1330(8) 0.0297(8) 0.0300(10)
O3 O 0.1081(9) 0.6331(8) 0.6538(10)
H4 H 0.1249 0.6870 0.6543
H5 H 0.0852 0.6148 0.6055
Co1 Co 0.13718(4) 0.63718(4) 0.86282(4)
Co2 Co 0.0000 0.5000 1.0000
Co3 Co 0.22628(4) 0.27372(4) 0.72628(4)
N1 N 0.1368(3) 0.5057(3) 0.8408(3)
N2 N 0.0906(3) 0.4486(3) 0.8978(3)
N3 N 0.1651(3) 0.3677(3) 0.7979(3)
N4 N 0.0759(4) 0.2910(3) 0.9037(4)
H1 H 0.0398 0.2929 0.9479
H2 H 0.0911 0.2406 0.8814
O2 O 0.1790(13) 0.6952(17) 0.7630(10)
C1 C 0.1090(4) 0.3671(4) 0.8691(3)
C2 C 0.1789(4) 0.4552(4) 0.7843(4)
H6 H 0.2149 0.4773 0.7392
Co1T Co -0.13718(4) 0.36282(4) 1.13718(4)
Co1Q Co 0.36282(4) 0.13718(4) 0.86282(4)
Co3O Co -0.27372(4) 0.27372(4) 0.77372(4)
Co3Q Co 0.27372(4) 0.77372(4) 0.72628(4)
Co3P Co 0.22628(4) 0.22628(4) 1.22628(4)
Co3R Co -0.22628(4) 0.72628(4) 1.27372(4)
Co3B Co 0.27372(4) 0.72628(4) 1.22628(4)
Co3D Co -0.22628(4) 0.77372(4) 0.77372(4)
N1T N -0.1592(3) 0.3632(3) 1.0057(3)
N1V N -0.0057(3) 0.3408(3) 1.1368(3)
N1L N -0.1368(3) 0.4943(3) 1.1592(3)
N1H N 0.1592(3) 0.6368(3) 0.9943(3)
N1J N 0.0057(3) 0.6592(3) 0.8632(3)
N2T N -0.1022(3) 0.4094(3) 0.9486(3)
N2V N 0.0514(3) 0.3978(3) 1.0906(3)
N2L N -0.0906(3) 0.5514(3) 1.1022(3)
N2H N 0.1022(3) 0.5906(3) 1.0514(3)
N2J N -0.0514(3) 0.6022(3) 0.9094(3)
N3T N -0.2021(3) 0.3349(3) 0.8677(3)
N3V N 0.1323(3) 0.2979(3) 1.1651(3)
N3L N -0.1651(3) 0.6323(3) 1.2021(3)
N3H N 0.2021(3) 0.6651(3) 1.1323(3)
N3J N -0.1323(3) 0.7021(3) 0.8349(3)
N3F N 0.2979(3) 0.3349(3) 0.6323(3)
N3K N 0.1323(3) 0.2021(3) 0.6651(3)
N3O N -0.3349(3) 0.3677(3) 0.7021(3)
N3N N -0.3677(3) 0.2021(3) 0.8349(3)
N4T N -0.0963(4) 0.4241(4) 0.7910(3)
N4V N 0.2090(3) 0.4037(4) 1.0759(4)
N4L N -0.0759(4) 0.7090(3) 1.0963(4)
N4H N 0.0963(4) 0.5759(4) 1.2090(3)
N4J N -0.2090(3) 0.5963(4) 0.9241(4)
H1T H -0.0521 0.4602 0.7929
H1V H 0.2071 0.4479 1.0398
H1L H -0.0398 0.7071 1.0521
H1H H 0.0521 0.5398 1.2071
H1J H -0.2071 0.5521 0.9602
H2T H -0.1186 0.4089 0.7406
H2V H 0.2594 0.3814 1.0911
H2L H -0.0911 0.7594 1.1186
H2H H 0.1186 0.5911 1.2594
H2J H -0.2594 0.6186 0.9089
O2H O 0.2370(10) 0.6790(13) 0.8048(17)
O2J O 0.1952(17) 0.7370(10) 0.8210(13)
O2Q O 0.3210(13) 0.1952(17) 0.7630(10)
O2S O 0.2630(10) 0.1790(13) 0.8048(17)
O2N O 0.3048(17) 0.2370(10) 0.8210(13)
O2T O -0.2370(10) 0.3210(13) 1.1952(17)
O2V O -0.1952(17) 0.2630(10) 1.1790(13)
O2L O -0.1790(13) 0.3048(17) 1.2370(10)
O2A O -0.2370(10) 0.1790(13) 0.6952(17)
O2D O -0.1790(13) 0.1952(17) 0.7370(10)
O2K O -0.1952(17) 0.2370(10) 0.6790(13)
C1T C -0.1309(3) 0.3910(4) 0.8671(4)
C1V C 0.1329(4) 0.3691(3) 1.1090(4)
C1L C -0.1090(4) 0.6329(4) 1.1309(3)
C1H C 0.1309(3) 0.6090(4) 1.1329(4)
C1J C -0.1329(4) 0.6309(3) 0.8910(4)
C2T C -0.2157(4) 0.3211(4) 0.9552(4)
C2V C 0.0448(4) 0.2843(4) 1.1789(4)
C2L C -0.1789(4) 0.5448(4) 1.2157(4)
C2H C 0.2157(4) 0.6789(4) 1.0448(4)
C2J C -0.0448(4) 0.7157(4) 0.8211(4)
H6T H -0.2608 0.2851 0.9773
H6V H 0.0227 0.2392 1.2149
H6L H -0.2149 0.5227 1.2608
H6H H 0.2608 0.7149 1.0227
H6J H -0.0227 0.7608 0.7851
H3? H 0.1422 0.7346 0.7796
loop_
_geom_bond_atom_site_label_1
_geom_bond_atom_site_label_2
_geom_bond_site_symmetry_1
_geom_bond_site_symmetry_2
Co1 N1 1_555 1_555
Co2 N2 1_555 1_555
Co3 N3 1_555 1_555
N1 N2 1_555 1_555
N2 C1 1_555 1_555
N3 C1 1_555 1_555
N4 H1 1_555 1_555
H2 N4 1_555 1_555
N5 O1 1_555 1_555
O2 Co1 1_555 1_555
O3 H4 1_555 1_555
H5 O3 1_555 1_555
C1 N4 1_555 1_555
C2 N1 1_555 1_555
H6 C2 1_555 1_555
Co1T N1T 1_555 1_555
Co1Q O2Q 1_555 1_555
Co3O N3T 1_555 1_555
Co3Q O2 1_555 1_555
Co3P N3V 1_555 1_555
Co3R N3L 1_555 1_555
Co3B N3H 1_555 1_555
Co3D N3J 1_555 1_555
N1T N2T 1_555 1_555
N1V Co1T 1_555 1_555
N1L Co1T 1_555 1_555
N1H Co1 1_555 1_555
N1J Co1 1_555 1_555
N2T Co2 1_555 1_555
N2V Co2 1_555 1_555
N2L Co2 1_555 1_555
N2H Co2 1_555 1_555
N2J Co2 1_555 1_555
N3T C1T 1_555 1_555
N3V C1V 1_555 1_555
N3L C1L 1_555 1_555
N3H C1H 1_555 1_555
N3J C1J 1_555 1_555
N3F Co3 1_555 1_555
N3K Co3 1_555 1_555
N3O Co3O 1_555 1_555
N3N Co3O 1_555 1_555
N4T H1T 1_555 1_555
N4V H1V 1_555 1_555
N4L H1L 1_555 1_555
N4H H1H 1_555 1_555
N4J H1J 1_555 1_555
H2T N4T 1_555 1_555
H2V N4V 1_555 1_555
H2L N4L 1_555 1_555
H2H N4H 1_555 1_555
H2J N4J 1_555 1_555
O1A N5 1_555 1_555
O1B N5 1_555 1_555
O2H Co1 1_555 1_555
O2J Co1 1_555 1_555
O2Q Co3 1_555 1_555
O2S Co3 1_555 1_555
O2N Co3 1_555 1_555
O2T Co1T 1_555 1_555
O2V Co1T 1_555 1_555
O2L Co1T 1_555 1_555
O2A Co3O 1_555 1_555
O2D Co3O 1_555 1_555
O2K Co3O 1_555 1_555
C1T N2T 1_555 1_555
C1V N2V 1_555 1_555
C1L N2L 1_555 1_555
C1H N2H 1_555 1_555
C1J N2J 1_555 1_555
C2T N1T 1_555 1_555
C2V N1V 1_555 1_555
C2L N1L 1_555 1_555
C2H N1H 1_555 1_555
C2J N1J 1_555 1_555
H6T C2T 1_555 1_555
H6V C2V 1_555 1_555
H6L C2L 1_555 1_555
H6H C2H 1_555 1_555
H6J C2J 1_555 1_555
N3 C2 1_555 1_555
O2 O2H 1_555 1_555
O2 O2J 1_555 1_555
Co1Q O2S 1_555 1_555
Co1Q O2N 1_555 1_555
Co3Q O2H 1_555 1_555
Co3Q O2J 1_555 1_555
N1V N2V 1_555 1_555
N1L N2L 1_555 1_555
N1H N2H 1_555 1_555
N1J N2J 1_555 1_555
N3T C2T 1_555 1_555
N3V C2V 1_555 1_555
N3L C2L 1_555 1_555
N3H C2H 1_555 1_555
N3J C2J 1_555 1_555
N4T C1T 1_555 1_555
N4V C1V 1_555 1_555
N4L C1L 1_555 1_555
N4H C1H 1_555 1_555
N4J C1J 1_555 1_555
O2H O2J 1_555 1_555
O2Q O2S 1_555 1_555
O2Q O2N 1_555 1_555
O2S O2N 1_555 1_555
O2T O2V 1_555 1_555
O2T O2L 1_555 1_555
O2V O2L 1_555 1_555
O2A O2D 1_555 1_555
O2A O2K 1_555 1_555
O2D O2K 1_555 1_555

#END
