
#######################################################################
#
#                 Cambridge Crystallographic Data Centre
#                                CCDC 
#
#######################################################################
#
# If this CIF has been generated from an entry in the Cambridge 
# Structural Database, then it will include bibliographic, chemical, 
# crystal, experimental, refinement or atomic coordinate data resulting 
# from the CCDC's data processing and validation procedures.
#
#######################################################################

data_WODRUD
_symmetry_cell_setting           triclinic
_symmetry_space_group_name_H-M   'P -1'
_symmetry_Int_Tables_number      2
_space_group_name_Hall           '-P 1'
loop_
_symmetry_equiv_pos_site_id
_symmetry_equiv_pos_as_xyz
1 x,y,z
2 -x,-y,-z
_cell_length_a                   10.238(3)
_cell_length_b                   11.384(4)
_cell_length_c                   11.495(4)
_cell_angle_alpha                98.386(5)
_cell_angle_beta                 116.280(4)
_cell_angle_gamma                107.416(5)
_cell_volume                     1083.83
loop_
_atom_site_label
_atom_site_type_symbol
_atom_site_fract_x
_atom_site_fract_y
_atom_site_fract_z
Eu1 Eu -0.00092(2) 0.13950(2) 0.122190(19)
O1 O -0.1021(3) 0.3004(3) 0.0345(3)
O2 O -0.2734(3) 0.1384(3) 0.0437(3)
O3 O -0.1552(3) -0.0724(3) 0.1134(3)
O4 O -0.1734(3) -0.2238(3) -0.0462(3)
O5 O 0.1388(3) -0.0166(3) 0.1116(3)
O6 O 0.2180(3) 0.1179(3) 0.3100(3)
N1 N 0.1955(4) 0.3760(4) 0.3018(4)
N2 N -0.0205(4) 0.2011(4) 0.3378(3)
C1 C -0.2400(5) 0.2404(4) 0.0149(4)
C2 C -0.3623(5) 0.2977(4) -0.0384(5)
H1 H -0.3600 0.3472 0.0393
H2 H -0.3308 0.3581 -0.0820
C3 C -0.5310(5) 0.2008(5) -0.1386(5)
H3 H -0.5591 0.1342 -0.0997
H4 H -0.5369 0.1589 -0.2216
C4 C -0.6527(5) 0.2606(5) -0.1763(5)
H5 H -0.6127 0.3380 -0.1976
H6 H -0.7507 0.1993 -0.2591
C5 C -0.6926(6) 0.2974(4) -0.0680(5)
H7 H -0.5929 0.3470 0.0184
H8 H -0.7461 0.3550 -0.0922
C6 C -0.2050(5) -0.1887(4) 0.0442(4)
C7 C 0.2241(4) 0.0255(4) 0.2428(4)
C8 C 0.3283(5) -0.0406(4) 0.3136(4)
H9 H 0.3770 -0.0604 0.2621
H10 H 0.2616 -0.1224 0.3123
C9 C 0.4595(5) 0.0391(4) 0.4614(4)
H11 H 0.5390 0.1120 0.4619
H12 H 0.4140 0.0740 0.5086
C10 C 0.3023(6) 0.4619(5) 0.2873(5)
H13 H 0.3056 0.4392 0.2078
C11 C 0.4110(7) 0.5853(5) 0.3848(6)
H14 H 0.4845 0.6423 0.3703
C12 C 0.4065(7) 0.6195(5) 0.5003(6)
H15 H 0.4791 0.7002 0.5669
C13 C 0.2934(6) 0.5344(5) 0.5206(5)
C14 C 0.2783(7) 0.5653(6) 0.6372(5)
H16 H 0.3454 0.6466 0.7042
C15 C 0.1694(7) 0.4796(6) 0.6528(5)
H17 H 0.1611 0.5031 0.7294
C16 C 0.0667(6) 0.3538(5) 0.5542(5)
C17 C -0.0420(7) 0.2605(6) 0.5706(5)
H18 H -0.0513 0.2797 0.6473
C18 C -0.1343(7) 0.1411(6) 0.4732(6)
H19 H -0.2065 0.0775 0.4834
C19 C -0.1206(6) 0.1143(6) 0.3584(5)
H20 H -0.1844 0.0318 0.2931
C20 C 0.0758(5) 0.3185(4) 0.4355(4)
C21 C 0.1896(5) 0.4114(4) 0.4170(4)
Eu1A Eu 0.00092(2) -0.13950(2) -0.122190(19)
Eu1A_2 Eu 1.00092(2) -0.13950(2) 0.877810(19)
Eu1_2 Eu 0.99908(2) 0.13950(2) 1.122190(19)
Eu1A_3 Eu -0.99908(2) -0.13950(2) -0.122190(19)
Eu1_3 Eu -1.00092(2) 0.13950(2) 0.122190(19)
O1A O -0.8979(3) -0.3004(3) -0.0345(3)
O2A O -0.7266(3) -0.1384(3) -0.0437(3)
O3A O -0.8448(3) 0.0724(3) -0.1134(3)
O4A O 0.1734(3) 0.2238(3) 0.0462(3)
O4A_2 O -0.8266(3) 0.2238(3) 0.0462(3)
O4_2 O -1.1734(3) -0.2238(3) -0.0462(3)
O5A O -0.1388(3) 0.0166(3) -0.1116(3)
O5A_2 O 0.8612(3) 0.0166(3) 0.8884(3)
O5_2 O -0.8612(3) -0.0166(3) 0.1116(3)
O5A_3 O -1.1388(3) 0.0166(3) -0.1116(3)
O6A O 0.7820(3) -0.1179(3) 0.6900(3)
O6A_2 O -1.2180(3) -0.1179(3) -0.3100(3)
N1A N -1.1955(4) -0.3760(4) -0.3018(4)
N2A N -0.9795(4) -0.2011(4) -0.3378(3)
C1A C -0.7600(5) -0.2404(4) -0.0149(4)
C2A C -0.6377(5) -0.2977(4) 0.0384(5)
H1A H -0.6400 -0.3472 -0.0393
H2A H -0.6692 -0.3581 0.0820
C3A C -0.4690(5) -0.2008(5) 0.1386(5)
H3A H -0.4409 -0.1342 0.0997
H4A H -0.4631 -0.1589 0.2216
C4A C -0.3473(5) -0.2606(5) 0.1763(5)
H5A H -0.3873 -0.3380 0.1976
H6A H -0.2493 -0.1993 0.2591
C5A C -0.3074(6) -0.2974(4) 0.0680(5)
H7A H -0.4071 -0.3470 -0.0184
H8A H -0.2539 -0.3550 0.0922
C6A C -0.7950(5) 0.1887(4) -0.0442(4)
C7A C 0.7759(4) -0.0255(4) 0.7572(4)
C8A C 0.6717(5) 0.0406(4) 0.6864(4)
H9A H 0.6230 0.0604 0.7379
H10A H 0.7384 0.1224 0.6877
C9A C 0.5405(5) -0.0391(4) 0.5386(4)
H11A H 0.4610 -0.1120 0.5381
H12A H 0.5860 -0.0740 0.4914
C10A C -1.3023(6) -0.4619(5) -0.2873(5)
H13A H -1.3056 -0.4392 -0.2078
C11A C -1.4110(7) -0.5853(5) -0.3848(6)
H14A H -1.4845 -0.6423 -0.3703
C12A C -1.4065(7) -0.6195(5) -0.5003(6)
H15A H -1.4791 -0.7002 -0.5669
C13A C -1.2934(6) -0.5344(5) -0.5206(5)
C14A C -1.2783(7) -0.5653(6) -0.6372(5)
H16A H -1.3454 -0.6466 -0.7042
C15A C -1.1694(7) -0.4796(6) -0.6528(5)
H17A H -1.1611 -0.5031 -0.7294
C16A C -1.0667(6) -0.3538(5) -0.5542(5)
C17A C -0.9580(7) -0.2605(6) -0.5706(5)
H18A H -0.9487 -0.2797 -0.6473
C18A C -0.8657(7) -0.1411(6) -0.4732(6)
H19A H -0.7935 -0.0775 -0.4834
C19A C -0.8794(6) -0.1143(6) -0.3584(5)
H20A H -0.8156 -0.0318 -0.2931
C20A C -1.0758(5) -0.3185(4) -0.4355(4)
C21A C -1.1896(5) -0.4114(4) -0.4170(4)
O7 O -0.9893(6) 0.5878(4) 0.1454(4)
H21 H -0.8933 0.6460 0.1539
H22 H -1.0279 0.5093 0.0961
O8 O -0.4813(5) 0.1227(4) 0.1645(5)
H23 H -0.5533 0.0439 0.1168
H24 H -0.3774 0.1332 0.1850
loop_
_geom_bond_atom_site_label_1
_geom_bond_atom_site_label_2
_geom_bond_site_symmetry_1
_geom_bond_site_symmetry_2
Eu1 O1 1_555 1_555
O1 C1 1_555 1_555
O2 Eu1 1_555 1_555
O3 Eu1 1_555 1_555
O4 C6 1_555 1_555
O5 Eu1 1_555 1_555
O6 Eu1 1_555 1_555
N1 Eu1 1_555 1_555
N2 Eu1 1_555 1_555
C1 O2 1_555 1_555
C2 C1 1_555 1_555
H1 C2 1_555 1_555
H2 C2 1_555 1_555
C3 C2 1_555 1_555
H3 C3 1_555 1_555
H4 C3 1_555 1_555
C4 C3 1_555 1_555
H5 C4 1_555 1_555
H6 C4 1_555 1_555
C5 C4 1_555 1_555
H7 C5 1_555 1_555
H8 C5 1_555 1_555
C6 O3 1_555 1_555
C7 O5 1_555 1_555
C8 C7 1_555 1_555
H9 C8 1_555 1_555
H10 C8 1_555 1_555
C9 C8 1_555 1_555
H11 C9 1_555 1_555
H12 C9 1_555 1_555
C10 N1 1_555 1_555
H13 C10 1_555 1_555
C11 C10 1_555 1_555
H14 C11 1_555 1_555
C12 C11 1_555 1_555
H15 C12 1_555 1_555
C13 C12 1_555 1_555
C14 C13 1_555 1_555
H16 C14 1_555 1_555
C15 C14 1_555 1_555
H17 C15 1_555 1_555
C16 C15 1_555 1_555
C17 C16 1_555 1_555
H18 C17 1_555 1_555
C18 C17 1_555 1_555
H19 C18 1_555 1_555
C19 N2 1_555 1_555
H20 C19 1_555 1_555
C20 N2 1_555 1_555
C21 N1 1_555 1_555
O7 H21 1_555 1_555
H22 O7 1_555 1_555
O8 H23 1_555 1_555
H24 O8 1_555 1_555
Eu1A O4 1_555 1_555
Eu1A_2 O5A_2 1_555 1_555
Eu1_2 O5A_2 1_555 1_555
Eu1A_3 O1A 1_555 1_555
Eu1_3 O4A_2 1_555 1_555
O1A C1A 1_555 1_555
O2A Eu1A_3 1_555 1_555
O3A Eu1A_3 1_555 1_555
O4A Eu1 1_555 1_555
O4A_2 C6A 1_555 1_555
O4_2 Eu1A_3 1_555 1_555
O5A Eu1 1_555 1_555
O5A_2 C7A 1_555 1_555
O5_2 Eu1A_3 1_555 1_555
O5A_3 Eu1A_3 1_555 1_555
O6A Eu1A_2 1_555 1_555
O6A_2 Eu1A_3 1_555 1_555
N1A Eu1A_3 1_555 1_555
N2A Eu1A_3 1_555 1_555
C1A O2A 1_555 1_555
C2A C1A 1_555 1_555
H1A C2A 1_555 1_555
H2A C2A 1_555 1_555
C3A C2A 1_555 1_555
H3A C3A 1_555 1_555
H4A C3A 1_555 1_555
C4A C3A 1_555 1_555
H5A C4A 1_555 1_555
H6A C4A 1_555 1_555
C5A C6 1_555 1_555
H7A C5A 1_555 1_555
H8A C5A 1_555 1_555
C6A C5 1_555 1_555
C7A O6A 1_555 1_555
C8A C7A 1_555 1_555
H9A C8A 1_555 1_555
H10A C8A 1_555 1_555
C9A C9 1_555 1_555
H11A C9A 1_555 1_555
H12A C9A 1_555 1_555
C10A N1A 1_555 1_555
H13A C10A 1_555 1_555
C11A C10A 1_555 1_555
H14A C11A 1_555 1_555
C12A C11A 1_555 1_555
H15A C12A 1_555 1_555
C13A C12A 1_555 1_555
C14A C13A 1_555 1_555
H16A C14A 1_555 1_555
C15A C14A 1_555 1_555
H17A C15A 1_555 1_555
C16A C15A 1_555 1_555
C17A C16A 1_555 1_555
H18A C17A 1_555 1_555
C18A C17A 1_555 1_555
H19A C18A 1_555 1_555
C19A N2A 1_555 1_555
H20A C19A 1_555 1_555
C20A N2A 1_555 1_555
C21A N1A 1_555 1_555
O5 Eu1A 1_555 1_555
O6 C7 1_555 1_555
C13 C21 1_555 1_555
C16 C20 1_555 1_555
C18 C19 1_555 1_555
C20 C21 1_555 1_555
Eu1A O5A 1_555 1_555
Eu1_3 O5_2 1_555 1_555
Eu1_3 O5A_3 1_555 1_555
O3A C6A 1_555 1_555
C4A C5A 1_555 1_555
C8A C9A 1_555 1_555
C13A C21A 1_555 1_555
C16A C20A 1_555 1_555
C18A C19A 1_555 1_555
C20A C21A 1_555 1_555

#END
