
#######################################################################
#
#                 Cambridge Crystallographic Data Centre
#                                CCDC 
#
#######################################################################
#
# If this CIF has been generated from an entry in the Cambridge 
# Structural Database, then it will include bibliographic, chemical, 
# crystal, experimental, refinement or atomic coordinate data resulting 
# from the CCDC's data processing and validation procedures.
#
#######################################################################

data_WODSAK
_symmetry_cell_setting           triclinic
_symmetry_space_group_name_H-M   'P -1'
_symmetry_Int_Tables_number      2
_space_group_name_Hall           '-P 1'
loop_
_symmetry_equiv_pos_site_id
_symmetry_equiv_pos_as_xyz
1 x,y,z
2 -x,-y,-z
_cell_length_a                   10.294(2)
_cell_length_b                   11.482(2)
_cell_length_c                   11.573(2)
_cell_angle_alpha                98.40(3)
_cell_angle_beta                 116.11(3)
_cell_angle_gamma                107.57(3)
_cell_volume                     1107.08
loop_
_atom_site_label
_atom_site_type_symbol
_atom_site_fract_x
_atom_site_fract_y
_atom_site_fract_z
Pr1 Pr -0.00075(4) 0.64091(3) 0.12268(3)
O1 O -0.1600(6) 0.4250(5) 0.1117(5)
O2 O -0.1773(6) 0.2735(5) -0.0464(6)
O3 O -0.8954(6) 0.1959(5) -0.0345(6)
O4 O -0.7233(6) 0.3582(5) -0.0433(6)
O5 O 0.1417(6) 0.4835(5) 0.1160(5)
O6 O 0.2221(6) 0.6181(5) 0.3124(5)
N1 N 0.1976(8) 0.8790(6) 0.3067(6)
N2 N -0.0193(7) 0.7034(7) 0.3414(6)
C1 C -0.2065(8) 0.3087(7) 0.0455(7)
C2 C -0.3076(9) 0.2007(7) 0.0700(9)
H1 H -0.2541 0.1440 0.0942
H2 H -0.4070 0.1509 -0.0152
C3 C -0.3467(9) 0.2388(8) 0.1794(8)
H3 H -0.3857 0.1626 0.2018
H4 H -0.2491 0.3005 0.2609
C4 C -0.4686(8) 0.2974(8) 0.1410(8)
H5 H -0.4646 0.3383 0.2227
H6 H -0.4403 0.3639 0.1028
C5 C -0.6357(9) 0.1993(8) 0.0399(10)
H7 H -0.6679 0.1392 0.0828
H8 H -0.6360 0.1507 -0.0362
C6 C -0.7574(8) 0.2554(7) -0.0145(7)
C7 C 0.2272(7) 0.5256(6) 0.2449(6)
C8 C 0.3302(9) 0.4601(7) 0.3150(7)
H9 H 0.3784 0.4400 0.2637
H10 H 0.2635 0.3790 0.3139
C9 C 0.4606(8) 0.5388(7) 0.4610(7)
H11 H 0.5405 0.6102 0.4611
H12 H 0.4159 0.5749 0.5076
C10 C 0.3040(11) 0.9646(8) 0.2916(10)
H13 H 0.3070 0.9428 0.2125
C11 C 0.4127(12) 1.0872(9) 0.3905(11)
H14 H 0.4874 1.1438 0.3774
C12 C 0.4070(12) 1.1214(8) 0.5046(10)
H15 H 0.4788 1.2014 0.5711
C13 C 0.2929(11) 1.0362(8) 0.5221(8)
C14 C 0.1909(9) 0.9153(7) 0.4217(7)
C15 C 0.0773(9) 0.8229(8) 0.4400(8)
C16 C 0.0663(10) 0.8556(8) 0.5555(8)
C17 C -0.0419(11) 0.7617(11) 0.5707(9)
H16 H -0.0501 0.7805 0.6475
C18 C -0.1348(13) 0.6438(12) 0.4754(11)
H17 H -0.2069 0.5807 0.4854
C19 C -0.1195(10) 0.6195(9) 0.3609(9)
H18 H -0.1846 0.5385 0.2946
C20 C 0.2789(13) 1.0682(9) 0.6406(9)
H19 H 0.3459 1.1488 0.7073
C21 C 0.1699(13) 0.9821(10) 0.6549(9)
H20 H 0.1612 1.0049 0.7308
Pr1A Pr 0.00075(4) 0.35909(3) -0.12268(3)
Pr1A_2 Pr -0.99925(4) 0.35909(3) -0.12268(3)
Pr1_2 Pr 0.99925(4) 0.64091(3) 1.12268(3)
Pr1A_3 Pr 1.00075(4) 0.35909(3) 0.87732(3)
Pr1_3 Pr -1.00075(4) 0.64091(3) 0.12268(3)
O1A O -0.8400(6) 0.5750(5) -0.1117(5)
O2A O 0.1773(6) 0.7265(5) 0.0464(6)
O2_2 O -1.1773(6) 0.2735(5) -0.0464(6)
O2A_2 O -0.8227(6) 0.7265(5) 0.0464(6)
O3A O -0.1046(6) 0.8041(5) 0.0345(6)
O4A O -0.2767(6) 0.6418(5) 0.0433(6)
O5A O 0.8583(6) 0.5165(5) 0.8840(5)
O5A_2 O -0.1417(6) 0.5165(5) -0.1160(5)
O5_2 O -0.8583(6) 0.4835(5) 0.1160(5)
O5A_3 O -1.1417(6) 0.5165(5) -0.1160(5)
O6A O 0.7779(6) 0.3819(5) 0.6876(5)
O6A_2 O -1.2221(6) 0.3819(5) -0.3124(5)
N1A N -1.1976(8) 0.1210(6) -0.3067(6)
N2A N -0.9807(7) 0.2966(7) -0.3414(6)
C1A C -0.7935(8) 0.6913(7) -0.0455(7)
C2A C -0.6924(9) 0.7993(7) -0.0700(9)
H1A H -0.7459 0.8560 -0.0942
H2A H -0.5930 0.8491 0.0152
C3A C -0.6533(9) 0.7612(8) -0.1794(8)
H3A H -0.6143 0.8374 -0.2018
H4A H -0.7509 0.6995 -0.2609
C4A C -0.5314(8) 0.7026(8) -0.1410(8)
H5A H -0.5354 0.6617 -0.2227
H6A H -0.5597 0.6361 -0.1028
C5A C -0.3643(9) 0.8007(8) -0.0399(10)
H7A H -0.3321 0.8608 -0.0828
H8A H -0.3640 0.8493 0.0362
C6A C -0.2426(8) 0.7446(7) 0.0145(7)
C7A C 0.7728(7) 0.4744(6) 0.7551(6)
C8A C 0.6698(9) 0.5399(7) 0.6850(7)
H9A H 0.6216 0.5600 0.7363
H10A H 0.7365 0.6210 0.6861
C9A C 0.5394(8) 0.4612(7) 0.5390(7)
H11A H 0.4595 0.3898 0.5389
H12A H 0.5841 0.4251 0.4924
C10A C -1.3040(11) 0.0354(8) -0.2916(10)
H13A H -1.3070 0.0572 -0.2125
C11A C -1.4127(12) -0.0872(9) -0.3905(11)
H14A H -1.4874 -0.1438 -0.3774
C12A C -1.4070(12) -0.1214(8) -0.5046(10)
H15A H -1.4788 -0.2014 -0.5711
C13A C -1.2929(11) -0.0362(8) -0.5221(8)
C14A C -1.1909(9) 0.0847(7) -0.4217(7)
C15A C -1.0773(9) 0.1771(8) -0.4400(8)
C16A C -1.0663(10) 0.1444(8) -0.5555(8)
C17A C -0.9581(11) 0.2383(11) -0.5707(9)
H16A H -0.9499 0.2195 -0.6475
C18A C -0.8652(13) 0.3562(12) -0.4754(11)
H17A H -0.7931 0.4193 -0.4854
C19A C -0.8805(10) 0.3805(9) -0.3609(9)
H18A H -0.8154 0.4615 -0.2946
C20A C -1.2789(13) -0.0682(9) -0.6406(9)
H19A H -1.3459 -0.1488 -0.7073
C21A C -1.1699(13) 0.0179(10) -0.6549(9)
H20A H -1.1612 -0.0049 -0.7308
O7 O -0.4803(9) 0.6199(7) 0.1634(8)
O8 O -0.9838(11) 0.0897(7) 0.1465(8)
loop_
_geom_bond_atom_site_label_1
_geom_bond_atom_site_label_2
_geom_bond_site_symmetry_1
_geom_bond_site_symmetry_2
Pr1 O1 1_555 1_555
O1 C1 1_555 1_555
O2 C1 1_555 1_555
O3 C6 1_555 1_555
O4 C6 1_555 1_555
O5 Pr1 1_555 1_555
O6 Pr1 1_555 1_555
N1 Pr1 1_555 1_555
N2 Pr1 1_555 1_555
C1 C2 1_555 1_555
C2 H1 1_555 1_555
H2 C2 1_555 1_555
C3 C2 1_555 1_555
H3 C3 1_555 1_555
H4 C3 1_555 1_555
C4 C3 1_555 1_555
H5 C4 1_555 1_555
H6 C4 1_555 1_555
C5 C4 1_555 1_555
H7 C5 1_555 1_555
H8 C5 1_555 1_555
C6 C5 1_555 1_555
C7 O5 1_555 1_555
C8 C7 1_555 1_555
H9 C8 1_555 1_555
H10 C8 1_555 1_555
C9 C8 1_555 1_555
H11 C9 1_555 1_555
H12 C9 1_555 1_555
C10 N1 1_555 1_555
H13 C10 1_555 1_555
C11 C10 1_555 1_555
H14 C11 1_555 1_555
C12 C11 1_555 1_555
H15 C12 1_555 1_555
C13 C12 1_555 1_555
C14 N1 1_555 1_555
C15 N2 1_555 1_555
C16 C15 1_555 1_555
C17 C16 1_555 1_555
H16 C17 1_555 1_555
C18 C17 1_555 1_555
H17 C18 1_555 1_555
C19 N2 1_555 1_555
H18 C19 1_555 1_555
C20 C13 1_555 1_555
H19 C20 1_555 1_555
C21 C16 1_555 1_555
H20 C21 1_555 1_555
Pr1A O2 1_555 1_555
Pr1A_2 O3 1_555 1_555
Pr1_2 O5A 1_555 1_555
Pr1A_3 O5A 1_555 1_555
Pr1_3 O2A_2 1_555 1_555
O1A Pr1A_2 1_555 1_555
O2A Pr1 1_555 1_555
O2_2 Pr1A_2 1_555 1_555
O2A_2 C1A 1_555 1_555
O3A Pr1 1_555 1_555
O4A Pr1 1_555 1_555
O5A C7A 1_555 1_555
O5A_2 Pr1 1_555 1_555
O5_2 Pr1A_2 1_555 1_555
O5A_3 Pr1A_2 1_555 1_555
O6A Pr1A_3 1_555 1_555
O6A_2 Pr1A_2 1_555 1_555
N1A Pr1A_2 1_555 1_555
N2A Pr1A_2 1_555 1_555
C1A O1A 1_555 1_555
C2A C1A 1_555 1_555
H1A C2A 1_555 1_555
H2A C2A 1_555 1_555
C3A C2A 1_555 1_555
H3A C3A 1_555 1_555
H4A C3A 1_555 1_555
C4A C3A 1_555 1_555
H5A C4A 1_555 1_555
H6A C4A 1_555 1_555
C5A C4A 1_555 1_555
H7A C5A 1_555 1_555
H8A C5A 1_555 1_555
C6A O3A 1_555 1_555
C7A O6A 1_555 1_555
C8A C7A 1_555 1_555
H9A C8A 1_555 1_555
H10A C8A 1_555 1_555
C9A C9 1_555 1_555
H11A C9A 1_555 1_555
H12A C9A 1_555 1_555
C10A N1A 1_555 1_555
H13A C10A 1_555 1_555
C11A C10A 1_555 1_555
H14A C11A 1_555 1_555
C12A C11A 1_555 1_555
H15A C12A 1_555 1_555
C13A C12A 1_555 1_555
C14A N1A 1_555 1_555
C15A N2A 1_555 1_555
C16A C15A 1_555 1_555
C17A C16A 1_555 1_555
H16A C17A 1_555 1_555
C18A C17A 1_555 1_555
H17A C18A 1_555 1_555
C19A N2A 1_555 1_555
H18A C19A 1_555 1_555
C20A C13A 1_555 1_555
H19A C20A 1_555 1_555
C21A C16A 1_555 1_555
H20A C21A 1_555 1_555
O4 Pr1A_2 1_555 1_555
O5 Pr1A 1_555 1_555
O6 C7 1_555 1_555
C13 C14 1_555 1_555
C14 C15 1_555 1_555
C18 C19 1_555 1_555
C20 C21 1_555 1_555
Pr1A O5A_2 1_555 1_555
Pr1_3 O5_2 1_555 1_555
Pr1_3 O5A_3 1_555 1_555
O4A C6A 1_555 1_555
C5A C6A 1_555 1_555
C8A C9A 1_555 1_555
C13A C14A 1_555 1_555
C14A C15A 1_555 1_555
C18A C19A 1_555 1_555
C20A C21A 1_555 1_555

#END
