
#######################################################################
#
#                 Cambridge Crystallographic Data Centre
#                                CCDC 
#
#######################################################################
#
# If this CIF has been generated from an entry in the Cambridge 
# Structural Database, then it will include bibliographic, chemical, 
# crystal, experimental, refinement or atomic coordinate data resulting 
# from the CCDC's data processing and validation procedures.
#
#######################################################################

data_WODTOZ
_symmetry_cell_setting           triclinic
_symmetry_space_group_name_H-M   'P -1'
_symmetry_Int_Tables_number      2
_space_group_name_Hall           '-P 1'
loop_
_symmetry_equiv_pos_site_id
_symmetry_equiv_pos_as_xyz
1 x,y,z
2 -x,-y,-z
_cell_length_a                   7.8124(9)
_cell_length_b                   8.5139(11)
_cell_length_c                   12.8593(15)
_cell_angle_alpha                104.4580(10)
_cell_angle_beta                 103.5620(10)
_cell_angle_gamma                96.755(2)
_cell_volume                     790.916
loop_
_atom_site_label
_atom_site_type_symbol
_atom_site_fract_x
_atom_site_fract_y
_atom_site_fract_z
Au1 Au 0.0000 0.5000 0.5000
Au2 Au 1.0000 1.0000 0.5000
Cu1 Cu 0.39687(6) 0.58245(7) 0.25286(4)
O1 O 0.6237(4) 0.7693(4) 0.0484(3)
O2 O 0.7882(4) 0.5027(4) 0.1010(2)
N1 N 0.3018(4) 0.7641(4) 0.1999(3)
N2 N 0.5517(4) 0.6056(4) 0.1579(3)
N3 N 0.5283(4) 0.4003(4) 0.2741(3)
N4 N 0.2344(4) 0.5518(5) 0.3426(3)
N5 N 0.6223(6) 0.7755(6) 0.4227(4)
C1 C 0.1690(6) 0.8386(7) 0.2249(4)
H1 H 0.1110 0.8057 0.2736
C2 C 0.1154(7) 0.9625(7) 0.1809(5)
H2 H 0.0237 1.0129 0.2007
C3 C 0.1972(6) 1.0111(6) 0.1082(4)
H3 H 0.1624 1.0942 0.0774
C4 C 0.3330(5) 0.9334(5) 0.0816(3)
H4 H 0.3905 0.9628 0.0317
C5 C 0.3825(5) 0.8130(5) 0.1290(3)
C6 C 0.5352(5) 0.7269(5) 0.1062(3)
C7 C 0.6732(5) 0.5047(5) 0.1515(3)
C8 C 0.6523(5) 0.3817(5) 0.2170(3)
C9 C 0.7537(5) 0.2610(6) 0.2199(3)
H5 H 0.8379 0.2497 0.1794
C10 C 0.7292(6) 0.1564(6) 0.2839(4)
H6 H 0.7956 0.0730 0.2866
C11 C 0.6046(6) 0.1781(6) 0.3435(4)
H7 H 0.5874 0.1101 0.3881
C12 C 0.5060(5) 0.2998(6) 0.3371(3)
H8 H 0.4216 0.3131 0.3774
C13 C 0.1469(6) 0.5339(6) 0.3994(3)
C14 C 0.7609(7) 0.8566(6) 0.4537(4)
Au1_2 Au 2.0000 1.5000 0.5000
Cu1A Cu 1.60313(6) 1.41755(7) 0.74714(4)
O1A O 1.3763(4) 1.2307(4) 0.9516(3)
O2A O 1.2118(4) 1.4973(4) 0.8990(2)
N1A N 1.6982(4) 1.2359(4) 0.8001(3)
N2A N 1.4483(4) 1.3944(4) 0.8421(3)
N3A N 1.4717(4) 1.5997(4) 0.7259(3)
N4A N 1.7656(4) 1.4482(5) 0.6574(3)
N5A N 1.3777(6) 1.2245(6) 0.5773(4)
C1A C 1.8310(6) 1.1614(7) 0.7751(4)
H1A H 1.8890 1.1943 0.7264
C2A C 1.8846(7) 1.0375(7) 0.8191(5)
H2A H 1.9763 0.9871 0.7993
C3A C 1.8028(6) 0.9889(6) 0.8918(4)
H3A H 1.8376 0.9058 0.9226
C4A C 1.6670(5) 1.0666(5) 0.9184(3)
H4A H 1.6095 1.0372 0.9683
C5A C 1.6175(5) 1.1870(5) 0.8710(3)
C6A C 1.4648(5) 1.2731(5) 0.8938(3)
C7A C 1.3268(5) 1.4953(5) 0.8485(3)
C8A C 1.3477(5) 1.6183(5) 0.7830(3)
C9A C 1.2463(5) 1.7390(6) 0.7801(3)
H5A H 1.1621 1.7503 0.8206
C10A C 1.2708(6) 1.8436(6) 0.7161(4)
H6A H 1.2044 1.9270 0.7134
C11A C 1.3954(6) 1.8219(6) 0.6565(4)
H7A H 1.4126 1.8899 0.6119
C12A C 1.4940(5) 1.7002(6) 0.6629(3)
H8A H 1.5784 1.6869 0.6226
C13A C 1.8531(6) 1.4661(6) 0.6006(3)
C13A_2 C -0.1469(6) 0.4661(6) 0.6006(3)
C14A C 1.2391(7) 1.1434(6) 0.5463(4)
O3 O 0.8673(4) 0.6195(4) 0.9132(3)
H9 H 0.8401 0.6375 0.9748
H10 H 0.9631 0.5818 0.9118
loop_
_geom_bond_atom_site_label_1
_geom_bond_atom_site_label_2
_geom_bond_site_symmetry_1
_geom_bond_site_symmetry_2
Au1 C13 1_555 1_555
Au2 C14 1_555 1_555
Cu1 N1 1_555 1_555
O1 C6 1_555 1_555
O2 C7 1_555 1_555
N1 C1 1_555 1_555
N2 Cu1 1_555 1_555
N3 Cu1 1_555 1_555
N4 Cu1 1_555 1_555
N5 Cu1 1_555 1_555
C1 H1 1_555 1_555
C2 C1 1_555 1_555
H2 C2 1_555 1_555
C3 C2 1_555 1_555
H3 C3 1_555 1_555
C4 C3 1_555 1_555
H4 C4 1_555 1_555
C5 N1 1_555 1_555
C6 N2 1_555 1_555
C7 N2 1_555 1_555
C8 N3 1_555 1_555
C9 C8 1_555 1_555
H5 C9 1_555 1_555
C10 C9 1_555 1_555
H6 C10 1_555 1_555
C11 C10 1_555 1_555
H7 C11 1_555 1_555
C12 N3 1_555 1_555
H8 C12 1_555 1_555
C13 N4 1_555 1_555
C14 N5 1_555 1_555
O3 H9 1_555 1_555
H10 O3 1_555 1_555
Au1_2 C13A 1_555 1_555
Cu1A N1A 1_555 1_555
O1A C6A 1_555 1_555
O2A C7A 1_555 1_555
N1A C1A 1_555 1_555
N2A Cu1A 1_555 1_555
N3A Cu1A 1_555 1_555
N4A Cu1A 1_555 1_555
N5A Cu1A 1_555 1_555
C1A H1A 1_555 1_555
C2A C1A 1_555 1_555
H2A C2A 1_555 1_555
C3A C2A 1_555 1_555
H3A C3A 1_555 1_555
C4A C3A 1_555 1_555
H4A C4A 1_555 1_555
C5A N1A 1_555 1_555
C6A N2A 1_555 1_555
C7A N2A 1_555 1_555
C8A N3A 1_555 1_555
C9A C8A 1_555 1_555
H5A C9A 1_555 1_555
C10A C9A 1_555 1_555
H6A C10A 1_555 1_555
C11A C10A 1_555 1_555
H7A C11A 1_555 1_555
C12A N3A 1_555 1_555
H8A C12A 1_555 1_555
C13A N4A 1_555 1_555
C13A_2 Au1 1_555 1_555
C14A Au2 1_555 1_555
C4 C5 1_555 1_555
C5 C6 1_555 1_555
C7 C8 1_555 1_555
C11 C12 1_555 1_555
N5A C14A 1_555 1_555
C4A C5A 1_555 1_555
C5A C6A 1_555 1_555
C7A C8A 1_555 1_555
C11A C12A 1_555 1_555

#END
