
#######################################################################
#
#                 Cambridge Crystallographic Data Centre
#                                CCDC 
#
#######################################################################
#
# If this CIF has been generated from an entry in the Cambridge 
# Structural Database, then it will include bibliographic, chemical, 
# crystal, experimental, refinement or atomic coordinate data resulting 
# from the CCDC's data processing and validation procedures.
#
#######################################################################

data_WODXAQ
_symmetry_cell_setting           triclinic
_symmetry_space_group_name_H-M   'P -1'
_symmetry_Int_Tables_number      2
_space_group_name_Hall           '-P 1'
loop_
_symmetry_equiv_pos_site_id
_symmetry_equiv_pos_as_xyz
1 x,y,z
2 -x,-y,-z
_cell_length_a                   10.590(2)
_cell_length_b                   11.333(2)
_cell_length_c                   12.464(3)
_cell_angle_alpha                86.46(3)
_cell_angle_beta                 82.19(3)
_cell_angle_gamma                89.17(3)
_cell_volume                     1479.15
loop_
_atom_site_label
_atom_site_type_symbol
_atom_site_fract_x
_atom_site_fract_y
_atom_site_fract_z
Eu1 Eu 0.07151(3) 0.51475(2) 0.23896(2)
Zn1 Zn 0.13215(6) 0.83727(5) 0.79891(5)
O1 O -0.0040(4) 0.6796(4) 0.3590(3)
O2 O 0.0346(4) 0.5900(3) 0.5936(3)
O3 O -0.1431(4) 0.5697(4) 0.2042(4)
O4 O 0.0538(4) 0.6838(3) 0.7400(3)
O5 O 0.0862(4) 0.4242(4) 0.0673(3)
O6 O 0.2247(4) 0.3588(3) 0.2836(3)
O7 O 0.3028(4) 0.5018(3) 0.1667(3)
O8 O -0.2012(4) 0.9976(3) 0.1738(3)
O9 O -0.1420(4) 0.8188(3) 0.1212(4)
O10 O 0.1066(4) 0.6806(3) 0.1238(3)
O11 O 0.0839(4) 0.7510(3) -0.0424(3)
N1 N 0.1469(5) 0.8759(4) 0.6238(4)
N2 N 0.6865(4) 0.2435(4) 0.2050(4)
N3 N 0.0396(4) 1.0660(4) 0.1640(3)
C1 C 0.0669(5) 0.6783(5) 0.6373(4)
C2 C 0.1170(5) 0.7847(5) 0.5689(4)
C3 C 0.1296(6) 0.7890(5) 0.4562(5)
C4 C 0.1688(9) 0.8959(6) 0.4008(5)
H1 H 0.1775 0.9025 0.3254
C5 C 0.1945(9) 0.9906(6) 0.4565(6)
H2 H 0.2187 1.0624 0.4200
C6 C 0.1838(7) 0.9774(5) 0.5698(5)
H3 H 0.2030 1.0410 0.6083
C7 C 0.5834(6) 0.1944(6) 0.2661(6)
H4 H 0.5936 0.1229 0.3047
C8 C 0.4649(6) 0.2447(6) 0.2740(6)
H5 H 0.3968 0.2081 0.3180
C9 C 0.4465(5) 0.3497(5) 0.2165(5)
C10 C 0.5509(6) 0.4001(5) 0.1521(6)
H6 H 0.5420 0.4705 0.1112
C11 C 0.6674(6) 0.3456(6) 0.1489(5)
H7 H 0.7368 0.3811 0.1057
C12 C 0.3175(5) 0.4070(5) 0.2224(5)
C13 C -0.1188(5) 0.9213(5) 0.1421(4)
C14 C 0.0205(5) 0.9582(4) 0.1306(4)
C15 C 0.1210(5) 0.8862(4) 0.0891(4)
C16 C 0.0998(5) 0.7637(5) 0.0542(4)
C17 C 0.2436(5) 0.9294(5) 0.0821(5)
H8 H 0.3127 0.8838 0.0542
C18 C 0.2631(6) 1.0400(5) 0.1162(5)
H9 H 0.3452 1.0699 0.1111
C19 C 0.1597(6) 1.1061(5) 0.1582(5)
H10 H 0.1732 1.1799 0.1831
C20 C 0.1028(6) 0.6869(5) 0.3907(4)
O12 O 0.1928(4) 0.6168(4) 0.3618(3)
Eu1A Eu -0.07151(3) 0.48525(2) 0.76104(2)
Zn1_2 Zn 0.13215(6) 0.83727(5) -0.20109(5)
Zn1A Zn -0.13215(6) 1.16273(5) 0.20109(5)
Zn1A_2 Zn 0.86785(6) 0.16273(5) 0.20109(5)
O2A O -0.0346(4) 0.4100(3) 0.4064(3)
O4A O -0.0538(4) 0.3162(3) 0.2600(3)
O8A O 0.2012(4) 1.0024(3) 0.8262(3)
O11_2 O 0.0839(4) 0.7510(3) 0.9576(3)
N2A N 0.3135(4) 0.7565(4) 0.7950(4)
N3A N -0.0396(4) 0.9340(4) 0.8360(3)
O13 O 0.4524(7) 0.7098(7) 0.1161(10)
O14 O 0.6927(6) 0.6926(5) 0.0176(5)
O15 O 0.4623(7) 0.0960(8) 0.7778(8)
O16 O 0.3409(7) 0.4564(10) 0.6288(7)
O17 O 0.4078(11) 0.6290(14) 0.4624(13)
O18 O 0.2298(5) 0.2825(5) 0.5067(4)
O19 O 0.5339(11) 0.8607(15) 0.4507(9)
loop_
_geom_bond_atom_site_label_1
_geom_bond_atom_site_label_2
_geom_bond_site_symmetry_1
_geom_bond_site_symmetry_2
Eu1 O1 1_555 1_555
Zn1 O4 1_555 1_555
O1 C20 1_555 1_555
O2 C1 1_555 1_555
O3 Eu1 1_555 1_555
O4 C1 1_555 1_555
O5 Eu1 1_555 1_555
O6 Eu1 1_555 1_555
O7 Eu1 1_555 1_555
O8 C13 1_555 1_555
O9 C13 1_555 1_555
O10 Eu1 1_555 1_555
O11 C16 1_555 1_555
N1 Zn1 1_555 1_555
N2 C7 1_555 1_555
N3 C14 1_555 1_555
C1 C2 1_555 1_555
C2 N1 1_555 1_555
C3 C2 1_555 1_555
C4 C3 1_555 1_555
H1 C4 1_555 1_555
C5 C4 1_555 1_555
H2 C5 1_555 1_555
C6 N1 1_555 1_555
H3 C6 1_555 1_555
C7 H4 1_555 1_555
C8 C7 1_555 1_555
H5 C8 1_555 1_555
C9 C8 1_555 1_555
C10 C9 1_555 1_555
H6 C10 1_555 1_555
C11 N2 1_555 1_555
H7 C11 1_555 1_555
C12 O6 1_555 1_555
C13 C14 1_555 1_555
C14 C15 1_555 1_555
C15 C16 1_555 1_555
C16 O10 1_555 1_555
C17 C15 1_555 1_555
H8 C17 1_555 1_555
C18 C17 1_555 1_555
H9 C18 1_555 1_555
C19 N3 1_555 1_555
H10 C19 1_555 1_555
C20 C3 1_555 1_555
O12 Eu1 1_555 1_555
Eu1A O2 1_555 1_555
Zn1_2 O11 1_555 1_555
Zn1A O8 1_555 1_555
Zn1A_2 N2 1_555 1_555
O2A Eu1 1_555 1_555
O4A Eu1 1_555 1_555
O8A Zn1 1_555 1_555
O11_2 Zn1 1_555 1_555
N2A Zn1 1_555 1_555
N3A Zn1 1_555 1_555
O4 Eu1A 1_555 1_555
O7 C12 1_555 1_555
N3 Zn1A 1_555 1_555
C5 C6 1_555 1_555
C9 C12 1_555 1_555
C10 C11 1_555 1_555
C18 C19 1_555 1_555
C20 O12 1_555 1_555

#END
