
#######################################################################
#
#                 Cambridge Crystallographic Data Centre
#                                CCDC 
#
#######################################################################
#
# If this CIF has been generated from an entry in the Cambridge 
# Structural Database, then it will include bibliographic, chemical, 
# crystal, experimental, refinement or atomic coordinate data resulting 
# from the CCDC's data processing and validation procedures.
#
#######################################################################

data_WOFCEB
_symmetry_cell_setting           monoclinic
_symmetry_space_group_name_H-M   'P 21/n'
_symmetry_Int_Tables_number      14
_space_group_name_Hall           '-P 2yn'
loop_
_symmetry_equiv_pos_site_id
_symmetry_equiv_pos_as_xyz
1 x,y,z
2 1/2-x,1/2+y,1/2-z
3 -x,-y,-z
4 1/2+x,1/2-y,1/2+z
_cell_length_a                   12.5570(6)
_cell_length_b                   23.2638(10)
_cell_length_c                   19.0829(9)
_cell_angle_alpha                90
_cell_angle_beta                 94.486(2)
_cell_angle_gamma                90
_cell_volume                     5557.49
loop_
_atom_site_label
_atom_site_type_symbol
_atom_site_fract_x
_atom_site_fract_y
_atom_site_fract_z
P1 P 0.84285(8) 0.68207(4) 0.77472(6)
P2 P 0.58696(7) 0.83954(4) 0.74750(5)
P3 P 0.34503(8) 0.99918(4) 0.67419(5)
P4 P 0.61819(9) 0.82490(5) 0.49845(5)
P5 P 0.91278(8) 0.95488(4) 0.76395(7)
P6 P 0.26556(8) 0.72111(5) 0.74936(5)
P7 P 0.55825(8) 0.84865(5) 0.99205(5)
O1 O 0.7393(3) 0.66812(13) 0.81154(18)
O2 O 0.66872(18) 0.78087(10) 0.76182(13)
O3 O 0.50750(19) 0.89875(10) 0.73004(12)
O4 O 0.3915(2) 1.05670(12) 0.68018(17)
O5 O 0.6182(3) 0.84464(16) 0.42558(16)
O6 O 0.59848(19) 0.82938(10) 0.65968(12)
O7 O 0.8121(3) 0.65936(14) 0.69779(18)
O8 O 0.8329(2) 0.98021(12) 0.70616(17)
O9 O 0.9401(2) 0.65363(12) 0.80166(19)
O10 O 0.57531(19) 0.84868(10) 0.83495(12)
O11 O 0.47852(19) 0.79430(10) 0.74097(12)
O12 O 0.2237(2) 0.77584(13) 0.70569(15)
O13 O 0.3347(2) 0.69073(13) 0.69584(16)
O14 O 0.1817(2) 0.68530(12) 0.77659(14)
O15 O 0.6668(2) 0.82549(15) 0.99977(15)
O16 O 0.4927(2) 0.84509(13) 1.05868(13)
O17 O 0.5520(2) 0.91460(12) 0.97144(15)
O18 O 0.3277(2) 0.97638(12) 0.74942(15)
O19 O 0.2356(2) 0.99578(12) 0.62777(15)
O20 O 0.5799(3) 0.76206(13) 0.50821(16)
O21 O 0.7314(2) 0.81894(13) 0.53833(15)
O22 O 0.69532(18) 0.88491(10) 0.75530(13)
O23 O 1.0249(2) 0.96790(13) 0.7544(2)
O24 O 0.8732(3) 0.97884(13) 0.83515(18)
C1 C 0.6119(4) 0.6717(3) 0.8963(3)
H1 H 0.5983 0.6844 0.9427
H2 H 0.6040 0.6307 0.8934
H3 H 0.5619 0.6897 0.8624
C2 C 0.7219(4) 0.6878(2) 0.8816(2)
H4 H 0.7309 0.7291 0.8847
H5 H 0.7731 0.6699 0.9157
C3 C 0.8586(3) 0.75818(15) 0.7718(2)
C4 C 0.7731(3) 0.79578(15) 0.76519(19)
C5 C 0.4874(3) 0.90729(15) 0.66001(18)
C6 C 0.4205(3) 0.94834(16) 0.6279(2)
C7 C 0.5398(3) 0.87201(16) 0.5477(2)
C8 C 0.5428(3) 0.86848(15) 0.62024(19)
C9 C 0.7328(4) 0.6842(2) 0.6489(3)
H6 H 0.7596 0.7196 0.6301
H7 H 0.6691 0.6930 0.6724
C10 C 0.7070(4) 0.6426(2) 0.5912(3)
H8 H 0.6541 0.6589 0.5579
H9 H 0.6796 0.6078 0.6102
H10 H 0.7704 0.6341 0.5681
C11 C 0.6791(4) 1.0252(2) 0.6483(3)
H11 H 0.6160 1.0474 0.6541
H12 H 0.6595 0.9892 0.6264
H13 H 0.7248 1.0460 0.6192
C12 C 0.7361(4) 1.01456(18) 0.7177(3)
H14 H 0.6906 0.9937 0.7476
H15 H 0.7562 1.0507 0.7403
C13 C 0.8902(3) 0.87907(16) 0.7645(2)
C14 C 0.9771(3) 0.84051(17) 0.7699(2)
H16 H 1.0463 0.8550 0.7707
C15 C 0.9622(3) 0.78184(17) 0.7742(2)
H17 H 1.0212 0.7576 0.7787
C16 C 0.4952(3) 0.81604(15) 0.85816(19)
C17 C 0.4380(3) 0.78633(15) 0.80419(18)
C18 C 0.3504(3) 0.75311(15) 0.81776(19)
C19 C 0.1754(4) 0.7745(2) 0.6354(3)
H18 H 0.0987 0.7699 0.6358
H19 H 0.2032 0.7425 0.6099
C20 C 0.2006(6) 0.8297(3) 0.6011(3)
H20 H 0.1688 0.8300 0.5537
H21 H 0.2767 0.8337 0.6008
H22 H 0.1727 0.8611 0.6268
C21 C 0.3758(8) 0.6345(3) 0.7109(4)
H23 H 0.4528 0.6373 0.7194
H24 H 0.3481 0.6213 0.7541
C22 C 0.3540(14) 0.5955(5) 0.6621(9)
H25 H 0.3853 0.5595 0.6771
H26 H 0.3827 0.6074 0.6192
H27 H 0.2779 0.5911 0.6543
C23 C 0.3244(3) 0.74975(17) 0.88812(19)
H28 H 0.2654 0.7282 0.8987
C24 C 0.3839(3) 0.77757(17) 0.9418(2)
H29 H 0.3657 0.7735 0.9878
C25 C 0.4720(3) 0.81213(15) 0.92768(18)
C26 C 0.5418(4) 0.8660(2) 1.1265(2)
H30 H 0.6189 0.8661 1.1255
H31 H 0.5234 0.8403 1.1637
C27 C 0.5041(5) 0.9253(2) 1.1414(2)
H32 H 0.5371 0.9382 1.1857
H33 H 0.4279 0.9251 1.1432
H34 H 0.5230 0.9508 1.1048
C28 C 0.6379(5) 0.9439(2) 0.9387(3)
H35 H 0.6112 0.9599 0.8937
H36 H 0.6947 0.9170 0.9307
C29 C 0.6798(5) 0.9915(2) 0.9875(3)
H37 H 0.7366 1.0114 0.9669
H38 H 0.7063 0.9752 1.0318
H39 H 0.6231 1.0180 0.9949
C30 C 0.2733(3) 0.92327(19) 0.7627(2)
H40 H 0.3100 0.8912 0.7429
H41 H 0.2007 0.9244 0.7412
C31 C 0.2725(4) 0.9163(2) 0.8414(2)
H42 H 0.2367 0.8812 0.8517
H43 H 0.2358 0.9482 0.8604
H44 H 0.3447 0.9151 0.8621
C32 C 0.1524(4) 1.0378(2) 0.6358(3)
H45 H 0.1787 1.0762 0.6279
H46 H 0.1282 1.0359 0.6828
C33 C 0.0629(4) 1.0232(3) 0.5822(4)
H47 H 0.0055 1.0501 0.5857
H48 H 0.0379 0.9850 0.5905
H49 H 0.0880 1.0253 0.5360
C34 C 0.4762(5) 0.7458(3) 0.4776(3)
H50 H 0.4390 0.7792 0.4574
H51 H 0.4830 0.7177 0.4407
C35 C 0.4199(6) 0.7226(5) 0.5303(5)
H52 H 0.3501 0.7112 0.5110
H53 H 0.4131 0.7508 0.5664
H54 H 0.4573 0.6896 0.5499
C36 C 0.7962(4) 0.8702(2) 0.5549(3)
H55 H 0.7693 0.8905 0.5943
H56 H 0.7930 0.8959 0.5148
C37 C 0.9080(4) 0.8515(3) 0.5730(3)
H57 H 0.9519 0.8846 0.5840
H58 H 0.9340 0.8316 0.5337
H59 H 0.9105 0.8263 0.6129
C38 C 0.4748(3) 0.91493(18) 0.5148(2)
H60 H 0.4716 0.9189 0.4662
C39 C 0.4157(3) 0.95108(18) 0.5537(2)
H61 H 0.3713 0.9781 0.5305
C40 C 0.7889(3) 0.85562(16) 0.76174(19)
C41 C 0.9427(5) 0.9769(3) 0.8996(3)
H62 H 0.9184 1.0058 0.9314
H63 H 1.0141 0.9878 0.8885
C42 C 0.9497(8) 0.9222(4) 0.9367(5)
H64 H 0.9977 0.9258 0.9781
H65 H 0.9758 0.8932 0.9065
H66 H 0.8801 0.9114 0.9498
Li1 Li 0.0875(5) 0.6375(3) 0.8281(3)
O4A O 0.1085(2) 0.55670(12) 0.81982(17)
O5C O 0.1182(3) 0.65536(16) 0.92558(16)
O9_2 O -0.0599(2) 0.65363(12) 0.80166(19)
Li1_2 Li 1.0875(5) 0.6375(3) 0.8281(3)
Li1A Li 0.4125(5) 1.1375(3) 0.6719(3)
Li1C Li 0.5875(5) 0.8625(3) 0.3281(3)
loop_
_geom_bond_atom_site_label_1
_geom_bond_atom_site_label_2
_geom_bond_site_symmetry_1
_geom_bond_site_symmetry_2
P1 O1 1_555 1_555
P2 O2 1_555 1_555
P3 O4 1_555 1_555
P4 O5 1_555 1_555
P5 O8 1_555 1_555
P6 O12 1_555 1_555
P7 O15 1_555 1_555
O1 C2 1_555 1_555
O2 C4 1_555 1_555
O3 P2 1_555 1_555
O4 Li1A 1_555 1_555
O5 Li1C 1_555 1_555
O6 P2 1_555 1_555
O7 P1 1_555 1_555
O8 C12 1_555 1_555
O9 P1 1_555 1_555
O10 P2 1_555 1_555
O11 P2 1_555 1_555
O12 C19 1_555 1_555
O13 P6 1_555 1_555
O14 P6 1_555 1_555
O16 P7 1_555 1_555
O17 P7 1_555 1_555
O18 P3 1_555 1_555
O19 P3 1_555 1_555
O20 P4 1_555 1_555
O21 P4 1_555 1_555
O22 P2 1_555 1_555
O23 P5 1_555 1_555
O24 P5 1_555 1_555
C1 H1 1_555 1_555
H2 C1 1_555 1_555
H3 C1 1_555 1_555
C2 C1 1_555 1_555
H4 C2 1_555 1_555
H5 C2 1_555 1_555
C3 P1 1_555 1_555
C4 C3 1_555 1_555
C5 O3 1_555 1_555
C6 P3 1_555 1_555
C7 P4 1_555 1_555
C8 O6 1_555 1_555
C9 O7 1_555 1_555
H6 C9 1_555 1_555
H7 C9 1_555 1_555
C10 C9 1_555 1_555
H8 C10 1_555 1_555
H9 C10 1_555 1_555
H10 C10 1_555 1_555
C11 H11 1_555 1_555
H12 C11 1_555 1_555
H13 C11 1_555 1_555
C12 C11 1_555 1_555
H14 C12 1_555 1_555
H15 C12 1_555 1_555
C13 P5 1_555 1_555
C14 C13 1_555 1_555
H16 C14 1_555 1_555
C15 C3 1_555 1_555
H17 C15 1_555 1_555
C16 O10 1_555 1_555
C17 O11 1_555 1_555
C18 P6 1_555 1_555
C19 H18 1_555 1_555
H19 C19 1_555 1_555
C20 C19 1_555 1_555
H20 C20 1_555 1_555
H21 C20 1_555 1_555
H22 C20 1_555 1_555
C21 O13 1_555 1_555
H23 C21 1_555 1_555
H24 C21 1_555 1_555
C22 C21 1_555 1_555
H25 C22 1_555 1_555
H26 C22 1_555 1_555
H27 C22 1_555 1_555
C23 C18 1_555 1_555
H28 C23 1_555 1_555
C24 C23 1_555 1_555
H29 C24 1_555 1_555
C25 P7 1_555 1_555
C26 O16 1_555 1_555
H30 C26 1_555 1_555
H31 C26 1_555 1_555
C27 C26 1_555 1_555
H32 C27 1_555 1_555
H33 C27 1_555 1_555
H34 C27 1_555 1_555
C28 O17 1_555 1_555
H35 C28 1_555 1_555
H36 C28 1_555 1_555
C29 C28 1_555 1_555
H37 C29 1_555 1_555
H38 C29 1_555 1_555
H39 C29 1_555 1_555
C30 O18 1_555 1_555
H40 C30 1_555 1_555
H41 C30 1_555 1_555
C31 C30 1_555 1_555
H42 C31 1_555 1_555
H43 C31 1_555 1_555
H44 C31 1_555 1_555
C32 O19 1_555 1_555
H45 C32 1_555 1_555
H46 C32 1_555 1_555
C33 C32 1_555 1_555
H47 C33 1_555 1_555
H48 C33 1_555 1_555
H49 C33 1_555 1_555
C34 O20 1_555 1_555
H50 C34 1_555 1_555
H51 C34 1_555 1_555
C35 C34 1_555 1_555
H52 C35 1_555 1_555
H53 C35 1_555 1_555
H54 C35 1_555 1_555
C36 O21 1_555 1_555
H55 C36 1_555 1_555
H56 C36 1_555 1_555
C37 C36 1_555 1_555
H57 C37 1_555 1_555
H58 C37 1_555 1_555
H59 C37 1_555 1_555
C38 C7 1_555 1_555
H60 C38 1_555 1_555
C39 C6 1_555 1_555
H61 C39 1_555 1_555
C40 O22 1_555 1_555
C41 O24 1_555 1_555
H62 C41 1_555 1_555
H63 C41 1_555 1_555
C42 C41 1_555 1_555
H64 C42 1_555 1_555
H65 C42 1_555 1_555
H66 C42 1_555 1_555
Li1 O14 1_555 1_555
O4A Li1 1_555 1_555
O5C Li1 1_555 1_555
O9_2 Li1 1_555 1_555
Li1_2 O9 1_555 1_555
C4 C40 1_555 1_555
C5 C6 1_555 1_555
C5 C8 1_555 1_555
C7 C8 1_555 1_555
C13 C40 1_555 1_555
C14 C15 1_555 1_555
C16 C17 1_555 1_555
C16 C25 1_555 1_555
C17 C18 1_555 1_555
C24 C25 1_555 1_555
C38 C39 1_555 1_555

#END
