
#######################################################################
#
#                 Cambridge Crystallographic Data Centre
#                                CCDC 
#
#######################################################################
#
# If this CIF has been generated from an entry in the Cambridge 
# Structural Database, then it will include bibliographic, chemical, 
# crystal, experimental, refinement or atomic coordinate data resulting 
# from the CCDC's data processing and validation procedures.
#
#######################################################################

data_WOFCIF
_symmetry_cell_setting           orthorhombic
_symmetry_space_group_name_H-M   'P c a 21'
_symmetry_Int_Tables_number      29
_space_group_name_Hall           'P 2c -2ac'
loop_
_symmetry_equiv_pos_site_id
_symmetry_equiv_pos_as_xyz
1 x,y,z
2 -x,-y,1/2+z
3 1/2-x,y,1/2+z
4 1/2+x,-y,z
_cell_length_a                   18.3347(14)
_cell_length_b                   12.3524(10)
_cell_length_c                   19.2887(14)
_cell_angle_alpha                90
_cell_angle_beta                 90
_cell_angle_gamma                90
_cell_volume                     4368.46
loop_
_atom_site_label
_atom_site_type_symbol
_atom_site_fract_x
_atom_site_fract_y
_atom_site_fract_z
P1 P 0.48672(12) 0.47035(19) 0.14895(11)
P2 P -0.22384(11) 0.0261(3) 0.18527(14)
P3 P 0.04681(12) 0.01631(16) 0.39608(10)
P4 P 0.21739(12) 0.47638(18) -0.06335(11)
O1 O 0.3166(2) 0.4351(4) 0.1797(2)
O2 O -0.0530(3) 0.0679(6) 0.1565(3)
O3 O 0.0453(2) 0.0620(5) 0.2322(2)
O4 O 0.2187(3) 0.4368(5) 0.1024(2)
O5 O 0.2152(2) 0.3124(4) 0.2012(2)
O6 O 0.0479(2) 0.1897(5) 0.1359(2)
O7 O 0.1976(3) 0.4968(5) 0.2219(3)
O8 O 0.0638(3) 0.0053(5) 0.1118(3)
O9 O 0.1405(2) 0.2474(5) 0.2838(2)
O10 O 0.1194(3) 0.2563(5) 0.0515(2)
O11 O 0.1149(3) 0.4830(6) 0.3058(3)
O12 O 0.1440(3) 0.0224(5) 0.0233(2)
O13 O -0.2862(3) -0.0305(6) 0.2155(4)
O14 O 0.5511(3) 0.5232(5) 0.1186(3)
O15 O 0.4974(3) 0.3475(5) 0.1682(3)
O16 O -0.2351(3) 0.1493(6) 0.1715(4)
O17 O 0.4609(3) 0.5186(5) 0.2198(3)
O18 O -0.2002(3) -0.0195(8) 0.1126(3)
O19 O 0.1464(3) 0.4758(5) -0.0267(3)
O20 O 0.1177(3) 0.0341(5) 0.3635(3)
O21 O 0.2290(3) 0.3853(5) -0.1197(3)
O22 O 0.0273(4) 0.0961(4) 0.4559(3)
O23 O 0.2339(4) 0.5744(5) -0.1110(4)
O24 O 0.0387(3) -0.0950(4) 0.4336(3)
C1 C 0.3408(4) 0.4523(6) 0.1130(4)
C2 C -0.0764(4) 0.0448(9) 0.2216(4)
C3 C 0.4113(4) 0.4691(6) 0.0905(4)
C4 C -0.1467(4) 0.0226(8) 0.2414(4)
C5 C 0.4209(4) 0.4827(7) 0.0193(5)
H1 H 0.4687 0.4939 0.0017
C6 C -0.1570(5) 0.0047(7) 0.3151(4)
H2 H -0.2049 -0.0062 0.3325
C7 C 0.3632(5) 0.4804(7) -0.0263(4)
H3 H 0.3726 0.4862 -0.0746
C8 C -0.1005(4) 0.0032(6) 0.3590(4)
H4 H -0.1098 -0.0097 0.4067
C9 C 0.2910(4) 0.4697(6) -0.0035(4)
C10 C -0.0269(4) 0.0203(7) 0.3374(3)
C11 C 0.2814(4) 0.4537(6) 0.0677(4)
C12 C -0.0172(4) 0.0400(7) 0.2671(4)
C13 C 0.1696(4) 0.3224(7) 0.2527(4)
C14 C 0.0933(4) 0.1797(8) 0.0830(4)
C15 C 0.1042(4) 0.0606(7) 0.0670(3)
C16 C 0.1573(4) 0.4422(8) 0.2642(4)
C17 C 0.4466(7) 0.6334(8) 0.2274(6)
H5 H 0.4910 0.6746 0.2148
H6 H 0.4072 0.6548 0.1951
C18 C -0.1657(15) -0.1432(14) 0.1085(8)
H7 H -0.1120 -0.1430 0.1132
H8 H -0.1873 -0.1917 0.1438
C19 C -0.1906(8) -0.1744(16) 0.0329(17)
H9 H -0.1750 -0.2485 0.0225
H10 H -0.1685 -0.1244 -0.0004
H11 H -0.2439 -0.1698 0.0297
C20 C 0.4268(15) 0.6590(17) 0.2925(8)
H12 H 0.4183 0.7372 0.2957
H13 H 0.4658 0.6384 0.3247
H14 H 0.3820 0.6202 0.3047
C21 C 0.5425(6) 0.3178(10) 0.2256(7)
H15 H 0.5237 0.3507 0.2689
H16 H 0.5930 0.3434 0.2181
C22 C -0.2890(5) 0.1837(13) 0.1178(9)
H17 H -0.2812 0.1410 0.0751
H18 H -0.3390 0.1684 0.1347
C23 C -0.2835(5) 0.2853(9) 0.1036(7)
H19 H -0.3162 0.3032 0.0651
H20 H -0.2331 0.3018 0.0903
H21 H -0.2969 0.3280 0.1444
C24 C 0.5409(8) 0.1994(10) 0.2307(8)
H22 H 0.5724 0.1759 0.2688
H23 H 0.5583 0.1678 0.1871
H24 H 0.4908 0.1753 0.2395
C25 C 0.0893(5) -0.1254(7) 0.4865(5)
H25 H 0.0795 -0.0830 0.5291
H26 H 0.1396 -0.1090 0.4710
C26 C 0.2377(8) 0.6786(10) -0.0961(7)
H27 H 0.2613 0.6875 -0.0503
H28 H 0.1876 0.7082 -0.0928
C27 C 0.2806(8) 0.7441(9) -0.1502(8)
H29 H 0.2821 0.8204 -0.1363
H30 H 0.2567 0.7379 -0.1955
H31 H 0.3305 0.7159 -0.1535
C28 C 0.0828(6) -0.2392(9) 0.5013(7)
H32 H 0.1181 -0.2593 0.5373
H33 H 0.0926 -0.2809 0.4591
H34 H 0.0333 -0.2549 0.5177
C29 C 0.1912(5) 0.2854(8) -0.1171(5)
H35 H 0.1792 0.2655 -0.0687
H36 H 0.2207 0.2267 -0.1381
C30 C 0.0175(7) 0.2125(8) 0.4440(7)
H37 H 0.0625 0.2523 0.4561
H38 H 0.0060 0.2264 0.3946
C31 C -0.0430(6) 0.2476(10) 0.4882(7)
H39 H -0.0503 0.3258 0.4828
H40 H -0.0317 0.2313 0.5367
H41 H -0.0876 0.2094 0.4746
C32 C 0.1210(7) 0.3059(17) -0.1598(8)
H42 H 0.0917 0.2396 -0.1611
H43 H 0.1342 0.3270 -0.2071
H44 H 0.0927 0.3641 -0.1381
B1 B 0.2381(5) 0.4231(8) 0.1761(4)
B2 B 0.0252(4) 0.0811(10) 0.1596(5)
Li1 Li 0.6229(7) 0.5833(12) 0.0596(6)
Li2 Li 0.1436(6) 0.0882(14) 0.2737(7)
O4C O 0.7187(3) 0.5632(5) 0.1024(2)
O10C O 0.6194(3) 0.7437(5) 0.0515(2)
O13C O 0.2138(3) 0.0305(6) 0.2155(4)
O19C O 0.6464(3) 0.5242(5) -0.0267(3)
Li1C Li 0.1229(7) 0.4167(12) 0.0596(6)
Li2C Li -0.3564(6) -0.0882(14) 0.2737(7)
loop_
_geom_bond_atom_site_label_1
_geom_bond_atom_site_label_2
_geom_bond_site_symmetry_1
_geom_bond_site_symmetry_2
P1 O14 1_555 1_555
P2 O13 1_555 1_555
P3 O20 1_555 1_555
P4 O19 1_555 1_555
O1 C1 1_555 1_555
O2 C2 1_555 1_555
O3 C12 1_555 1_555
O4 C11 1_555 1_555
O5 C13 1_555 1_555
O6 C14 1_555 1_555
O7 C16 1_555 1_555
O8 C15 1_555 1_555
O9 C13 1_555 1_555
O10 C14 1_555 1_555
O11 C16 1_555 1_555
O12 C15 1_555 1_555
O13 Li2C 1_555 1_555
O14 Li1 1_555 1_555
O15 P1 1_555 1_555
O16 P2 1_555 1_555
O17 P1 1_555 1_555
O18 P2 1_555 1_555
O19 Li1C 1_555 1_555
O20 Li2 1_555 1_555
O21 P4 1_555 1_555
O22 P3 1_555 1_555
O23 P4 1_555 1_555
O24 P3 1_555 1_555
C1 C3 1_555 1_555
C2 C4 1_555 1_555
C3 P1 1_555 1_555
C4 P2 1_555 1_555
C5 C3 1_555 1_555
H1 C5 1_555 1_555
C6 C4 1_555 1_555
H2 C6 1_555 1_555
C7 C5 1_555 1_555
H3 C7 1_555 1_555
C8 C6 1_555 1_555
H4 C8 1_555 1_555
C9 P4 1_555 1_555
C10 P3 1_555 1_555
C11 C1 1_555 1_555
C12 C2 1_555 1_555
C13 C16 1_555 1_555
C14 C15 1_555 1_555
C17 O17 1_555 1_555
H5 C17 1_555 1_555
H6 C17 1_555 1_555
C18 O18 1_555 1_555
H7 C18 1_555 1_555
H8 C18 1_555 1_555
C19 C18 1_555 1_555
H9 C19 1_555 1_555
H10 C19 1_555 1_555
H11 C19 1_555 1_555
C20 C17 1_555 1_555
H12 C20 1_555 1_555
H13 C20 1_555 1_555
H14 C20 1_555 1_555
C21 O15 1_555 1_555
H15 C21 1_555 1_555
H16 C21 1_555 1_555
C22 O16 1_555 1_555
H17 C22 1_555 1_555
H18 C22 1_555 1_555
C23 C22 1_555 1_555
H19 C23 1_555 1_555
H20 C23 1_555 1_555
H21 C23 1_555 1_555
C24 C21 1_555 1_555
H22 C24 1_555 1_555
H23 C24 1_555 1_555
H24 C24 1_555 1_555
C25 O24 1_555 1_555
H25 C25 1_555 1_555
H26 C25 1_555 1_555
C26 O23 1_555 1_555
H27 C26 1_555 1_555
H28 C26 1_555 1_555
C27 C26 1_555 1_555
H29 C27 1_555 1_555
H30 C27 1_555 1_555
H31 C27 1_555 1_555
C28 C25 1_555 1_555
H32 C28 1_555 1_555
H33 C28 1_555 1_555
H34 C28 1_555 1_555
C29 O21 1_555 1_555
H35 C29 1_555 1_555
H36 C29 1_555 1_555
C30 O22 1_555 1_555
H37 C30 1_555 1_555
H38 C30 1_555 1_555
C31 C30 1_555 1_555
H39 C31 1_555 1_555
H40 C31 1_555 1_555
H41 C31 1_555 1_555
C32 C29 1_555 1_555
H42 C32 1_555 1_555
H43 C32 1_555 1_555
H44 C32 1_555 1_555
B1 O1 1_555 1_555
B2 O2 1_555 1_555
Li1 O4C 1_555 1_555
Li2 O3 1_555 1_555
O10C Li1 1_555 1_555
O13C Li2 1_555 1_555
O19C Li1 1_555 1_555
Li1C O4 1_555 1_555
O3 B2 1_555 1_555
O4 B1 1_555 1_555
O5 B1 1_555 1_555
O6 B2 1_555 1_555
O7 B1 1_555 1_555
O8 B2 1_555 1_555
O9 Li2 1_555 1_555
O10 Li1C 1_555 1_555
C7 C9 1_555 1_555
C8 C10 1_555 1_555
C9 C11 1_555 1_555
C10 C12 1_555 1_555

#END
