
#######################################################################
#
#                 Cambridge Crystallographic Data Centre
#                                CCDC 
#
#######################################################################
#
# If this CIF has been generated from an entry in the Cambridge 
# Structural Database, then it will include bibliographic, chemical, 
# crystal, experimental, refinement or atomic coordinate data resulting 
# from the CCDC's data processing and validation procedures.
#
#######################################################################

data_WOFPEM
_symmetry_cell_setting           orthorhombic
_symmetry_space_group_name_H-M   'P b c a'
_symmetry_Int_Tables_number      61
_space_group_name_Hall           '-P 2ac 2ab'
loop_
_symmetry_equiv_pos_site_id
_symmetry_equiv_pos_as_xyz
1 x,y,z
2 1/2-x,-y,1/2+z
3 1/2+x,1/2-y,-z
4 -x,1/2+y,1/2-z
5 -x,-y,-z
6 1/2+x,y,1/2-z
7 1/2-x,1/2+y,z
8 x,1/2-y,1/2+z
_cell_length_a                   16.987(5)
_cell_length_b                   31.846(6)
_cell_length_c                   34.490(10)
_cell_angle_alpha                90
_cell_angle_beta                 90
_cell_angle_gamma                90
_cell_volume                     18658
loop_
_atom_site_label
_atom_site_type_symbol
_atom_site_fract_x
_atom_site_fract_y
_atom_site_fract_z
C112 C 0.4720(8) -0.2873(3) 0.4828(4)
Cl1 Cl 0.4633(5) -0.3341(3) 0.5072(2)
Cl2 Cl 0.4998(5) -0.2490(3) 0.5149(3)
Cl3 Cl 0.3880(5) -0.2771(3) 0.4586(2)
H89 H 0.5142 -0.2904 0.4637
O1 O 0.5019(14) -0.4895(9) 0.4643(6)
C113 C 0.5571(15) -0.4781(6) 0.4970(6)
C114 C 0.4338(16) -0.4849(7) 0.4720(7)
C114D C 0.5662(16) -0.5151(7) 0.5280(7)
C113D C 0.4429(15) -0.5219(6) 0.5030(6)
O1D O 0.4981(14) -0.5105(9) 0.5357(6)
Rh1 Rh 0.23294(3) -0.47136(2) 0.21451(2)
N1 N 0.2248(3) -0.4726(2) 0.2735(1)
N2 N 0.2347(3) -0.5348(2) 0.2133(2)
N3 N 0.2563(3) -0.4703(2) 0.1575(1)
N4 N 0.2197(3) -0.4084(2) 0.2143(2)
C1 C 0.2270(4) -0.4381(2) 0.2970(2)
C2 C 0.2419(4) -0.4514(2) 0.3365(2)
C3 C 0.2459(4) -0.4944(2) 0.3356(2)
C4 C 0.2322(4) -0.5079(2) 0.2963(2)
C5 C 0.2207(4) -0.5489(2) 0.2834(2)
C6 C 0.2104(4) -0.5598(2) 0.2436(2)
C7 C 0.1846(4) -0.6000(2) 0.2287(2)
C8 C 0.1940(4) -0.5988(2) 0.1891(2)
C9 C 0.2287(4) -0.5583(2) 0.1801(2)
C10 C 0.2610(4) -0.5460(2) 0.1443(2)
C11 C 0.2819(4) -0.5036(2) 0.1353(2)
C12 C 0.3180(4) -0.4879(2) 0.1001(2)
C13 C 0.3088(4) -0.4455(2) 0.1006(2)
C14 C 0.2676(4) -0.4345(2) 0.1358(2)
C15 C 0.2354(4) -0.3952(2) 0.1450(2)
C16 C 0.2056(4) -0.3847(2) 0.1816(2)
C17 C 0.1664(4) -0.3464(2) 0.1922(2)
C18 C 0.1594(4) -0.3456(2) 0.2313(2)
C19 C 0.1952(4) -0.3853(2) 0.2462(2)
C20 C 0.2061(4) -0.3975(2) 0.2846(2)
C21 C 0.2617(4) -0.4258(2) 0.3715(2)
C22 C 0.3391(4) -0.4132(2) 0.3776(2)
C23 C 0.3593(5) -0.3927(3) 0.4121(2)
C24 C 0.3034(5) -0.3854(4) 0.4395(3)
C25 C 0.2283(6) -0.3978(3) 0.4340(2)
C26 C 0.2067(5) -0.4183(3) 0.4002(2)
C27 C 0.2645(4) -0.5197(2) 0.3709(2)
C28 C 0.3351(4) -0.5412(2) 0.3741(2)
C29 C 0.3540(5) -0.5631(3) 0.4075(2)
C30 C 0.3029(5) -0.5643(3) 0.4381(3)
C31 C 0.2335(6) -0.5430(3) 0.4357(2)
C32 C 0.2139(5) -0.5206(3) 0.4026(2)
C33 C 0.2118(4) -0.5827(2) 0.3124(2)
C34 C 0.1445(5) -0.5848(2) 0.3347(2)
C35 C 0.1376(6) -0.6164(3) 0.3630(2)
C36 C 0.1965(6) -0.6450(3) 0.3682(3)
C37 C 0.2620(7) -0.6427(3) 0.3457(3)
C38 C 0.2717(6) -0.6114(3) 0.3180(2)
C39 C 0.3438(7) -0.6109(4) 0.2948(3)
C40 C 0.0806(6) -0.5539(4) 0.3294(3)
C41 C 0.1837(14) -0.6792(5) 0.3991(4)
C42 C 0.1441(4) -0.6352(2) 0.2487(2)
C43 C 0.0645(5) -0.6320(3) 0.2567(2)
C44 C 0.0226(5) -0.6645(3) 0.2738(3)
C45 C 0.0618(5) -0.7002(3) 0.2836(3)
C46 C 0.1390(6) -0.7049(3) 0.2753(3)
C47 C 0.1805(5) -0.6730(2) 0.2573(3)
C48 C 0.1621(4) -0.6306(2) 0.1636(2)
C49 C 0.0886(4) -0.6244(3) 0.1473(2)
C50 C 0.0539(5) -0.6556(3) 0.1243(3)
C51 C 0.0925(5) -0.6926(3) 0.1189(3)
C52 C 0.1654(6) -0.6989(3) 0.1331(3)
C53 C 0.1997(5) -0.6682(2) 0.1561(2)
C54 C 0.2774(4) -0.5794(2) 0.1152(2)
C55 C 0.2321(4) -0.5834(2) 0.0816(2)
C56 C 0.2531(6) -0.6134(2) 0.0545(2)
C57 C 0.3166(6) -0.6388(3) 0.0599(3)
C58 C 0.3602(5) -0.6357(3) 0.0930(3)
C59 C 0.3401(5) -0.6065(2) 0.1214(2)
C60 C 0.1611(6) -0.5550(3) 0.0759(3)
C61 C 0.3881(5) -0.6039(3) 0.1588(3)
C62 C 0.3422(10) -0.6704(4) 0.0281(4)
C63 C 0.3656(4) -0.5111(2) 0.0710(2)
C64 C 0.4384(4) -0.5263(2) 0.0809(2)
C65 C 0.4861(5) -0.5446(3) 0.0524(2)
C66 C 0.4618(6) -0.5479(3) 0.0151(3)
C67 C 0.3901(6) -0.5327(3) 0.0046(2)
C68 C 0.3423(5) -0.5144(3) 0.0326(2)
C69 C 0.3484(4) -0.4168(2) 0.0714(2)
C70 C 0.3165(5) -0.4082(2) 0.0352(2)
C71 C 0.3562(5) -0.3825(2) 0.0094(2)
C72 C 0.4262(5) -0.3654(3) 0.0191(2)
C73 C 0.4596(5) -0.3744(3) 0.0541(2)
C74 C 0.4221(4) -0.4008(3) 0.0807(2)
C75 C 0.2319(4) -0.3630(2) 0.1129(2)
C76 C 0.1749(4) -0.3681(2) 0.0843(2)
C77 C 0.1742(5) -0.3403(3) 0.0531(2)
C78 C 0.2295(6) -0.3093(3) 0.0506(3)
C79 C 0.2842(6) -0.3042(3) 0.0792(2)
C80 C 0.2865(4) -0.3309(2) 0.1114(2)
C81 C 0.1156(5) -0.4024(3) 0.0848(3)
C82 C 0.3482(5) -0.3251(3) 0.1429(3)
C83 C 0.2329(9) -0.2803(4) 0.0148(4)
C84 C 0.1252(4) -0.3149(2) 0.1680(2)
C85 C 0.1549(5) -0.2749(2) 0.1631(2)
C86 C 0.1134(5) -0.2456(3) 0.1414(3)
C87 C 0.0439(5) -0.2562(3) 0.1246(3)
C88 C 0.0127(5) -0.2950(3) 0.1300(3)
C89 C 0.0539(4) -0.3246(3) 0.1516(2)
C90 C 0.1158(4) -0.3129(2) 0.2534(2)
C91 C 0.0360(5) -0.3179(3) 0.2577(2)
C92 C -0.0084(6) -0.2872(3) 0.2771(3)
C93 C 0.0281(6) -0.2527(4) 0.2921(4)
C94 C 0.1067(6) -0.2467(3) 0.2866(3)
C95 C 0.1526(6) -0.2773(3) 0.2678(3)
C96 C 0.1934(4) -0.3646(2) 0.3158(2)
C97 C 0.2524(5) -0.3369(2) 0.3249(2)
C98 C 0.2382(5) -0.3076(3) 0.3543(2)
C99 C 0.1684(6) -0.3077(3) 0.3741(3)
C100 C 0.1088(6) -0.3333(3) 0.3629(3)
C101 C 0.1215(5) -0.3638(3) 0.3346(2)
C102 C 0.3293(6) -0.3365(3) 0.3039(3)
C103 C 0.0543(6) -0.3935(3) 0.3249(3)
C104 C 0.1523(10) -0.2738(4) 0.4052(4)
N5 N 0.3643 -0.4666 0.2240
C105 C 0.4198(4) -0.4685(2) 0.2430(2)
C106 C 0.4817(3) -0.4733(2) 0.2721(2)
C107 C 0.5617(3) -0.4711(2) 0.2645(2)
C108 C 0.6169(3) -0.4759(2) 0.2941(2)
C109 C 0.5878(4) -0.4833(3) 0.3306(2)
C110 C 0.5086(4) -0.4852(3) 0.3384(2)
C111 C 0.4543(4) -0.4802(3) 0.3095(2)
H1 H 0.3772 -0.4183 0.3589
H2 H 0.4109 -0.3842 0.4163
H3 H 0.3171 -0.3717 0.4623
H4 H 0.1908 -0.3925 0.4530
H5 H 0.1550 -0.4271 0.3968
H6 H 0.3703 -0.5410 0.3534
H7 H 0.4019 -0.5772 0.4091
H8 H 0.3153 -0.5795 0.4603
H9 H 0.1989 -0.5435 0.4565
H10 H 0.1665 -0.5061 0.4016
H11 H 0.0926 -0.6178 0.3782
H12 H 0.3015 -0.6627 0.3489
H13 H 0.3780 -0.6330 0.3033
H14 H 0.3699 -0.5843 0.2980
H15 H 0.3309 -0.6149 0.2680
H16 H 0.0387 -0.5599 0.3473
H17 H 0.0611 -0.5555 0.3034
H18 H 0.1005 -0.5262 0.3342
H19 H 0.1334 -0.6751 0.4113
H20 H 0.2245 -0.6773 0.4183
H21 H 0.1852 -0.7063 0.3871
H22 H 0.0382 -0.6073 0.2504
H23 H -0.0311 -0.6620 0.2785
H24 H 0.0350 -0.7216 0.2963
H25 H 0.1645 -0.7298 0.2817
H26 H 0.2332 -0.6770 0.2510
H27 H 0.0619 -0.5994 0.1517
H28 H 0.0051 -0.6511 0.1129
H29 H 0.0681 -0.7140 0.1050
H30 H 0.1925 -0.7235 0.1276
H31 H 0.2493 -0.6730 0.1666
H32 H 0.2232 -0.6162 0.0321
H33 H 0.4035 -0.6531 0.0967
H34 H 0.1560 -0.5365 0.0977
H35 H 0.1144 -0.5718 0.0736
H36 H 0.1680 -0.5387 0.0527
H37 H 0.4291 -0.6247 0.1583
H38 H 0.3542 -0.6090 0.1806
H39 H 0.4110 -0.5765 0.1611
H40 H 0.3066 -0.6687 0.0066
H41 H 0.3415 -0.6984 0.0385
H42 H 0.3945 -0.6637 0.0195
H43 H 0.4560 -0.5244 0.1064
H44 H 0.5356 -0.5547 0.0592
H45 H 0.4940 -0.5605 -0.0033
H46 H 0.3733 -0.5345 -0.0210
H47 H 0.2933 -0.5041 0.0253
H48 H 0.2682 -0.4198 0.0283
H49 H 0.3345 -0.3769 -0.0148
H50 H 0.4516 -0.3475 0.0019
H51 H 0.5082 -0.3628 0.0603
H52 H 0.4459 -0.4075 0.1041
H53 H 0.1360 -0.3429 0.0339
H54 H 0.3207 -0.2825 0.0772
H55 H 0.0822 -0.4000 0.0625
H56 H 0.0843 -0.4002 0.1079
H57 H 0.1419 -0.4290 0.0845
H58 H 0.3804 -0.3012 0.1369
H59 H 0.3805 -0.3498 0.1443
H60 H 0.3225 -0.3208 0.1674
H61 H 0.1914 -0.2877 -0.0028
H62 H 0.2828 -0.2835 0.0021
H63 H 0.2265 -0.2517 0.0229
H64 H 0.2026 -0.2676 0.1744
H65 H 0.1334 -0.2186 0.1383
H66 H 0.0175 -0.2368 0.1092
H67 H -0.0360 -0.3018 0.1194
H68 H 0.0328 -0.3513 0.1549
H69 H 0.0113 -0.3416 0.2478
H70 H -0.0626 -0.2904 0.2797
H71 H -0.0008 -0.2331 0.3062
H72 H 0.1303 -0.2221 0.2954
H73 H 0.2066 -0.2736 0.2651
H74 H 0.2766 -0.2879 0.3605
H75 H 0.0593 -0.3305 0.3742
H76 H 0.3627 -0.3153 0.3148
H77 H 0.3204 -0.3305 0.2770
H78 H 0.3541 -0.3635 0.3064
H79 H 0.0102 -0.3875 0.3414
H80 H 0.0710 -0.4219 0.3288
H81 H 0.0392 -0.3897 0.2983
H82 H 0.1997 -0.2582 0.4101
H83 H 0.1354 -0.2871 0.4288
H84 H 0.1120 -0.2551 0.3962
H85 H 0.5789 -0.4663 0.2393
H86 H 0.6231 -0.4872 0.3509
H87 H 0.4917 -0.4898 0.3637
H88 H 0.4007 -0.4815 0.3147
C108E C 0.1169(3) -0.4759(2) 0.2059(2)
Rh1E Rh 0.73294(3) -0.47136(2) 0.28549(2)
loop_
_geom_bond_atom_site_label_1
_geom_bond_atom_site_label_2
_geom_bond_site_symmetry_1
_geom_bond_site_symmetry_2
Rh1 N1 1_555 1_555
N1 C1 1_555 1_555
N2 Rh1 1_555 1_555
N3 Rh1 1_555 1_555
N4 Rh1 1_555 1_555
C1 C2 1_555 1_555
C2 C3 1_555 1_555
C3 C4 1_555 1_555
C4 N1 1_555 1_555
C5 C4 1_555 1_555
C6 N2 1_555 1_555
C7 C6 1_555 1_555
C8 C7 1_555 1_555
C9 N2 1_555 1_555
C10 C9 1_555 1_555
C11 N3 1_555 1_555
C12 C11 1_555 1_555
C13 C12 1_555 1_555
C14 N3 1_555 1_555
C15 C14 1_555 1_555
C16 N4 1_555 1_555
C17 C16 1_555 1_555
C18 C17 1_555 1_555
C19 N4 1_555 1_555
C20 C1 1_555 1_555
C21 C2 1_555 1_555
C22 C21 1_555 1_555
C23 C22 1_555 1_555
C24 C23 1_555 1_555
C25 C24 1_555 1_555
C26 C21 1_555 1_555
C27 C3 1_555 1_555
C28 C27 1_555 1_555
C29 C28 1_555 1_555
C30 C29 1_555 1_555
C31 C30 1_555 1_555
C32 C27 1_555 1_555
C33 C5 1_555 1_555
C34 C33 1_555 1_555
C35 C34 1_555 1_555
C36 C35 1_555 1_555
C37 C36 1_555 1_555
C38 C33 1_555 1_555
C39 C38 1_555 1_555
C40 C34 1_555 1_555
C41 C36 1_555 1_555
C42 C7 1_555 1_555
C43 C42 1_555 1_555
C44 C43 1_555 1_555
C45 C44 1_555 1_555
C46 C45 1_555 1_555
C47 C42 1_555 1_555
C48 C8 1_555 1_555
C49 C48 1_555 1_555
C50 C49 1_555 1_555
C51 C50 1_555 1_555
C52 C51 1_555 1_555
C53 C48 1_555 1_555
C54 C10 1_555 1_555
C55 C54 1_555 1_555
C56 C55 1_555 1_555
C57 C56 1_555 1_555
C58 C57 1_555 1_555
C59 C54 1_555 1_555
C60 C55 1_555 1_555
C61 C59 1_555 1_555
C62 C57 1_555 1_555
C63 C12 1_555 1_555
C64 C63 1_555 1_555
C65 C64 1_555 1_555
C66 C65 1_555 1_555
C67 C66 1_555 1_555
C68 C63 1_555 1_555
C69 C13 1_555 1_555
C70 C69 1_555 1_555
C71 C70 1_555 1_555
C72 C71 1_555 1_555
C73 C72 1_555 1_555
C74 C69 1_555 1_555
C75 C15 1_555 1_555
C76 C75 1_555 1_555
C77 C76 1_555 1_555
C78 C77 1_555 1_555
C79 C78 1_555 1_555
C80 C75 1_555 1_555
C81 C76 1_555 1_555
C82 C80 1_555 1_555
C83 C78 1_555 1_555
C84 C17 1_555 1_555
C85 C84 1_555 1_555
C86 C85 1_555 1_555
C87 C86 1_555 1_555
C88 C87 1_555 1_555
C89 C84 1_555 1_555
C90 C18 1_555 1_555
C91 C90 1_555 1_555
C92 C91 1_555 1_555
C93 C92 1_555 1_555
C94 C93 1_555 1_555
C95 C90 1_555 1_555
C96 C20 1_555 1_555
C97 C96 1_555 1_555
C98 C97 1_555 1_555
C99 C98 1_555 1_555
C100 C99 1_555 1_555
C101 C96 1_555 1_555
C102 C97 1_555 1_555
C103 C101 1_555 1_555
C104 C99 1_555 1_555
N5 Rh1 1_555 1_555
C105 N5 1_555 1_555
C106 C105 1_555 1_555
C107 C106 1_555 1_555
C108 C107 1_555 1_555
C109 C108 1_555 1_555
C110 C109 1_555 1_555
C111 C106 1_555 1_555
C112 Cl1 1_555 1_555
Cl2 C112 1_555 1_555
Cl3 C112 1_555 1_555
O1 C113 1_555 1_555
C113 C114D 1_555 1_555
C114 O1 1_555 1_555
H1 C22 1_555 1_555
H2 C23 1_555 1_555
H3 C24 1_555 1_555
H4 C25 1_555 1_555
H5 C26 1_555 1_555
H6 C28 1_555 1_555
H7 C29 1_555 1_555
H8 C30 1_555 1_555
H9 C31 1_555 1_555
H10 C32 1_555 1_555
H11 C35 1_555 1_555
H12 C37 1_555 1_555
H13 C39 1_555 1_555
H14 C39 1_555 1_555
H15 C39 1_555 1_555
H16 C40 1_555 1_555
H17 C40 1_555 1_555
H18 C40 1_555 1_555
H19 C41 1_555 1_555
H20 C41 1_555 1_555
H21 C41 1_555 1_555
H22 C43 1_555 1_555
H23 C44 1_555 1_555
H24 C45 1_555 1_555
H25 C46 1_555 1_555
H26 C47 1_555 1_555
H27 C49 1_555 1_555
H28 C50 1_555 1_555
H29 C51 1_555 1_555
H30 C52 1_555 1_555
H31 C53 1_555 1_555
H32 C56 1_555 1_555
H33 C58 1_555 1_555
H34 C60 1_555 1_555
H35 C60 1_555 1_555
H36 C60 1_555 1_555
H37 C61 1_555 1_555
H38 C61 1_555 1_555
H39 C61 1_555 1_555
H40 C62 1_555 1_555
H41 C62 1_555 1_555
H42 C62 1_555 1_555
H43 C64 1_555 1_555
H44 C65 1_555 1_555
H45 C66 1_555 1_555
H46 C67 1_555 1_555
H47 C68 1_555 1_555
H48 C70 1_555 1_555
H49 C71 1_555 1_555
H50 C72 1_555 1_555
H51 C73 1_555 1_555
H52 C74 1_555 1_555
H53 C77 1_555 1_555
H54 C79 1_555 1_555
H55 C81 1_555 1_555
H56 C81 1_555 1_555
H57 C81 1_555 1_555
H58 C82 1_555 1_555
H59 C82 1_555 1_555
H60 C82 1_555 1_555
H61 C83 1_555 1_555
H62 C83 1_555 1_555
H63 C83 1_555 1_555
H64 C85 1_555 1_555
H65 C86 1_555 1_555
H66 C87 1_555 1_555
H67 C88 1_555 1_555
H68 C89 1_555 1_555
H69 C91 1_555 1_555
H70 C92 1_555 1_555
H71 C93 1_555 1_555
H72 C94 1_555 1_555
H73 C95 1_555 1_555
H74 C98 1_555 1_555
H75 C100 1_555 1_555
H76 C102 1_555 1_555
H77 C102 1_555 1_555
H78 C102 1_555 1_555
H79 C103 1_555 1_555
H80 C103 1_555 1_555
H81 C103 1_555 1_555
H82 C104 1_555 1_555
H83 C104 1_555 1_555
H84 C104 1_555 1_555
H85 C107 1_555 1_555
H86 C109 1_555 1_555
H87 C110 1_555 1_555
H88 C111 1_555 1_555
H89 C112 1_555 1_555
C108E Rh1 1_555 1_555
C114D O1D 1_555 1_555
C113D C114 1_555 1_555
Rh1E C108 1_555 1_555
O1D C113D 1_555 1_555
C5 C6 1_555 1_555
C8 C9 1_555 1_555
C10 C11 1_555 1_555
C13 C14 1_555 1_555
C15 C16 1_555 1_555
C18 C19 1_555 1_555
C19 C20 1_555 1_555
C25 C26 1_555 1_555
C31 C32 1_555 1_555
C37 C38 1_555 1_555
C46 C47 1_555 1_555
C52 C53 1_555 1_555
C58 C59 1_555 1_555
C67 C68 1_555 1_555
C73 C74 1_555 1_555
C79 C80 1_555 1_555
C88 C89 1_555 1_555
C94 C95 1_555 1_555
C100 C101 1_555 1_555
C110 C111 1_555 1_555

#END
