
#######################################################################
#
#                 Cambridge Crystallographic Data Centre
#                                CCDC 
#
#######################################################################
#
# If this CIF has been generated from an entry in the Cambridge 
# Structural Database, then it will include bibliographic, chemical, 
# crystal, experimental, refinement or atomic coordinate data resulting 
# from the CCDC's data processing and validation procedures.
#
#######################################################################

data_WOFQOY
_symmetry_cell_setting           orthorhombic
_symmetry_space_group_name_H-M   'P b c n'
_symmetry_Int_Tables_number      60
_space_group_name_Hall           '-P 2n 2ab'
loop_
_symmetry_equiv_pos_site_id
_symmetry_equiv_pos_as_xyz
1 x,y,z
2 1/2-x,1/2-y,1/2+z
3 1/2+x,1/2-y,-z
4 -x,y,1/2-z
5 -x,-y,-z
6 1/2+x,1/2+y,1/2-z
7 1/2-x,1/2+y,z
8 x,-y,1/2+z
_cell_length_a                   17.751(3)
_cell_length_b                   10.9826(17)
_cell_length_c                   25.590(4)
_cell_angle_alpha                90
_cell_angle_beta                 90
_cell_angle_gamma                90
_cell_volume                     4988.83
loop_
_atom_site_label
_atom_site_type_symbol
_atom_site_fract_x
_atom_site_fract_y
_atom_site_fract_z
Eu1 Eu 0.132346(13) 0.98109(2) 0.405734(9)
Co1 Co -0.37277(3) 1.02233(5) 0.38626(3)
O1 O -0.35564(18) 0.9005(3) 0.43722(13)
O2 O -0.26277(18) 0.7943(3) 0.47374(13)
O3 O 0.0145(2) 1.1082(4) 0.37808(19)
O4 O 0.0000(2) 0.9486(5) 0.4284(2)
O5 O 0.60539(18) 1.1393(3) 0.43847(12)
O6 O 0.51488(18) 1.2024(3) 0.49178(13)
O7 O 0.25636(19) 0.9941(3) 0.45395(15)
O8 O 0.25116(19) 0.8635(3) 0.38861(15)
O9 O 0.14750(19) 0.4070(3) 0.16692(13)
O10 O 0.1555(4) 0.3862(4) 0.25327(18)
O11 O 0.0961(3) 0.7868(4) 0.35485(15)
O12 O 0.1123(3) 0.9533(4) 0.30856(17)
O13 O 0.12214(19) 0.8393(3) 0.47963(15)
O14 O 0.2119(2) 1.1307(3) 0.35850(15)
O15 O 0.13266(18) 1.1660(3) 0.46160(14)
N1 N -0.2661(2) 1.0519(4) 0.39125(15)
N2 N 0.1111(2) 0.6319(4) 0.17142(15)
N3 N 0.5224(2) 0.9860(3) 0.39028(16)
C1 C -0.2240(3) 1.1362(4) 0.36783(18)
H1 H -0.2482 1.1985 0.3483
C2 C -0.1457(3) 1.1357(5) 0.3711(2)
H2 H -0.1169 1.1972 0.3543
C3 C -0.1105(3) 1.0446(5) 0.39912(18)
C4 C -0.1549(3) 0.9569(5) 0.42414(18)
H3 H -0.1321 0.8929 0.4435
C5 C -0.2317(3) 0.9645(4) 0.42038(19)
C6 C -0.2856(3) 0.8785(4) 0.44656(17)
C7 C -0.0262(3) 1.0350(5) 0.40198(19)
C8 C 0.1239(3) 0.5788(5) 0.2181(2)
C9 C 0.1198(3) 0.6421(5) 0.2647(2)
H4 H 0.1276 0.6024 0.2972
C10 C 0.1038(3) 0.7663(5) 0.26233(19)
C11 C 0.0897(3) 0.8203(5) 0.2145(2)
H5 H 0.0785 0.9048 0.2125
C12 C 0.0921(3) 0.7501(4) 0.16953(19)
H6 H 0.0801 0.7862 0.1368
C13 C 0.1441(3) 0.4471(5) 0.2140(2)
C14 C 0.1035(3) 0.8401(5) 0.3124(2)
C15 C 0.4867(2) 1.0501(4) 0.42812(18)
C16 C 0.4116(3) 1.0335(4) 0.43940(19)
H7 H 0.3880 1.0788 0.4665
C17 C 0.3711(2) 0.9491(5) 0.41040(19)
C18 C 0.4084(3) 0.8834(4) 0.3716(2)
H8 H 0.3817 0.8253 0.3513
C19 C 0.4834(3) 0.9029(5) 0.36284(19)
H9 H 0.5085 0.8566 0.3368
C20 C 0.5375(2) 1.1386(4) 0.45581(17)
C21 C 0.2878(3) 0.9331(4) 0.41909(19)
Eu1_2 Eu 1.132346(13) 0.98109(2) 0.405734(9)
Eu1_3 Eu -0.867654(13) 0.98109(2) 0.405734(9)
Eu1E Eu -0.367654(13) 1.48109(2) 0.094266(9)
Co1_2 Co 0.62723(3) 1.02233(5) 0.38626(3)
Co1E Co 0.12723(3) 0.52233(5) 0.11374(3)
O1_2 O 0.64436(18) 0.9005(3) 0.43722(13)
O2_2 O 0.73723(18) 0.7943(3) 0.47374(13)
O3_2 O 1.0145(2) 1.1082(4) 0.37808(19)
O4_2 O 1.0000(2) 0.9486(5) 0.4284(2)
O5_2 O -0.39461(18) 1.1393(3) 0.43847(12)
O6_2 O -0.48512(18) 1.2024(3) 0.49178(13)
O7_2 O -0.74364(19) 0.9941(3) 0.45395(15)
O7_3 O 1.25636(19) 0.9941(3) 0.45395(15)
O8_2 O -0.74884(19) 0.8635(3) 0.38861(15)
O8_3 O 1.25116(19) 0.8635(3) 0.38861(15)
O9E O -0.35250(19) 0.9070(3) 0.33308(13)
O9E_2 O 0.64750(19) 0.9070(3) 0.33308(13)
O10E O -0.3445(4) 0.8862(4) 0.24673(18)
O11E O -0.4039(3) 1.2868(4) 0.14515(15)
O11_2 O 1.0961(3) 0.7868(4) 0.35485(15)
O12E O -0.3877(3) 1.4533(4) 0.19144(17)
O12_2 O 1.1123(3) 0.9533(4) 0.30856(17)
O13_2 O 1.12214(19) 0.8393(3) 0.47963(15)
O14_2 O 1.2119(2) 1.1307(3) 0.35850(15)
O15_2 O 1.13266(18) 1.1660(3) 0.46160(14)
N1_2 N 0.7339(2) 1.0519(4) 0.39125(15)
N2E N -0.3889(2) 1.1319(4) 0.32858(15)
N2E_2 N 0.6111(2) 1.1319(4) 0.32858(15)
N3_2 N -0.4776(2) 0.9860(3) 0.39028(16)
C1_2 C 0.7760(3) 1.1362(4) 0.36783(18)
H1_2 H 0.7518 1.1985 0.3483
C2_2 C 0.8543(3) 1.1357(5) 0.3711(2)
H2_2 H 0.8831 1.1972 0.3543
C3_2 C 0.8895(3) 1.0446(5) 0.39912(18)
C4_2 C 0.8451(3) 0.9569(5) 0.42414(18)
H3_2 H 0.8679 0.8929 0.4435
C5_2 C 0.7683(3) 0.9645(4) 0.42038(19)
C6_2 C 0.7144(3) 0.8785(4) 0.44656(17)
C7_2 C 0.9738(3) 1.0350(5) 0.40198(19)
C8E C -0.3761(3) 1.0788(5) 0.2819(2)
C9E C -0.3802(3) 1.1421(5) 0.2353(2)
H4E H -0.3724 1.1024 0.2028
C10E C -0.3962(3) 1.2663(5) 0.23767(19)
C11E C -0.4103(3) 1.3203(5) 0.2855(2)
H5E H -0.4215 1.4048 0.2875
C12E C -0.4079(3) 1.2501(4) 0.33047(19)
H6E H -0.4199 1.2862 0.3632
C13E C -0.3559(3) 0.9471(5) 0.2860(2)
C14E C -0.3965(3) 1.3401(5) 0.1876(2)
C15_2 C -0.5133(2) 1.0501(4) 0.42812(18)
C16_2 C -0.5884(3) 1.0335(4) 0.43940(19)
H7_2 H -0.6120 1.0788 0.4665
C17_2 C -0.6289(2) 0.9491(5) 0.41040(19)
C18_2 C -0.5916(3) 0.8834(4) 0.3716(2)
H8_2 H -0.6183 0.8253 0.3513
C19_2 C -0.5166(3) 0.9029(5) 0.36284(19)
H9_2 H -0.4915 0.8566 0.3368
C20_2 C -0.4625(2) 1.1386(4) 0.45581(17)
C21_2 C -0.7122(3) 0.9331(4) 0.41909(19)
O16 O 0.1959(3) 1.1433(4) 0.25400(18)
O17 O 0.0000 0.1490(16) 0.2500
loop_
_geom_bond_atom_site_label_1
_geom_bond_atom_site_label_2
_geom_bond_site_symmetry_1
_geom_bond_site_symmetry_2
Eu1 O3 1_555 1_555
Co1 O1 1_555 1_555
O1 C6 1_555 1_555
O2 C6 1_555 1_555
O3 C7 1_555 1_555
O4 Eu1 1_555 1_555
O5 C20 1_555 1_555
O6 C20 1_555 1_555
O7 Eu1 1_555 1_555
O8 Eu1 1_555 1_555
O9 C13 1_555 1_555
O10 C13 1_555 1_555
O11 Eu1 1_555 1_555
O12 Eu1 1_555 1_555
O13 Eu1 1_555 1_555
O14 Eu1 1_555 1_555
O15 Eu1 1_555 1_555
N1 Co1 1_555 1_555
N2 C8 1_555 1_555
N3 C15 1_555 1_555
C1 N1 1_555 1_555
H1 C1 1_555 1_555
C2 C1 1_555 1_555
H2 C2 1_555 1_555
C3 C2 1_555 1_555
C4 C3 1_555 1_555
H3 C4 1_555 1_555
C5 N1 1_555 1_555
C6 C5 1_555 1_555
C7 O4 1_555 1_555
C8 C9 1_555 1_555
C9 H4 1_555 1_555
C10 C9 1_555 1_555
C11 C10 1_555 1_555
H5 C11 1_555 1_555
C12 N2 1_555 1_555
H6 C12 1_555 1_555
C13 C8 1_555 1_555
C14 O11 1_555 1_555
C15 C16 1_555 1_555
C16 H7 1_555 1_555
C17 C16 1_555 1_555
C18 C17 1_555 1_555
H8 C18 1_555 1_555
C19 N3 1_555 1_555
H9 C19 1_555 1_555
C20 C15 1_555 1_555
C21 O7 1_555 1_555
Eu1_2 O3_2 1_555 1_555
Eu1_3 O7_2 1_555 1_555
Eu1E O11E 1_555 1_555
Co1_2 O5 1_555 1_555
Co1E O9 1_555 1_555
O1_2 Co1_2 1_555 1_555
O2_2 C6_2 1_555 1_555
O3_2 C7_2 1_555 1_555
O4_2 Eu1_2 1_555 1_555
O5_2 Co1 1_555 1_555
O6_2 C20_2 1_555 1_555
O7_2 C21_2 1_555 1_555
O7_3 Eu1_2 1_555 1_555
O8_2 Eu1_3 1_555 1_555
O8_3 Eu1_2 1_555 1_555
O9E Co1 1_555 1_555
O9E_2 Co1_2 1_555 1_555
O10E C13E 1_555 1_555
O11E C14E 1_555 1_555
O11_2 Eu1_2 1_555 1_555
O12E Eu1E 1_555 1_555
O12_2 Eu1_2 1_555 1_555
O13_2 Eu1_2 1_555 1_555
O14_2 Eu1_2 1_555 1_555
O15_2 Eu1_2 1_555 1_555
N1_2 Co1_2 1_555 1_555
N2E Co1 1_555 1_555
N2E_2 Co1_2 1_555 1_555
N3_2 Co1 1_555 1_555
C1_2 N1_2 1_555 1_555
H1_2 C1_2 1_555 1_555
C2_2 C1_2 1_555 1_555
H2_2 C2_2 1_555 1_555
C3_2 C2_2 1_555 1_555
C4_2 C3_2 1_555 1_555
H3_2 C4_2 1_555 1_555
C5_2 N1_2 1_555 1_555
C6_2 O1_2 1_555 1_555
C7_2 O4_2 1_555 1_555
C8E N2E 1_555 1_555
C9E C8E 1_555 1_555
H4E C9E 1_555 1_555
C10E C9E 1_555 1_555
C11E C10E 1_555 1_555
H5E C11E 1_555 1_555
C12E N2E 1_555 1_555
H6E C12E 1_555 1_555
C13E O9E 1_555 1_555
C14E O12E 1_555 1_555
C15_2 N3_2 1_555 1_555
C16_2 C15_2 1_555 1_555
H7_2 C16_2 1_555 1_555
C17_2 C16_2 1_555 1_555
C18_2 C17_2 1_555 1_555
H8_2 C18_2 1_555 1_555
C19_2 N3_2 1_555 1_555
H9_2 C19_2 1_555 1_555
C20_2 O5_2 1_555 1_555
C21_2 O8_2 1_555 1_555
O8 C21 1_555 1_555
O12 C14 1_555 1_555
N2 Co1E 1_555 1_555
N3 Co1_2 1_555 1_555
C3 C7 1_555 1_555
C4 C5 1_555 1_555
C10 C14 1_555 1_555
C11 C12 1_555 1_555
C17 C21 1_555 1_555
C18 C19 1_555 1_555
C3_2 C7_2 1_555 1_555
C4_2 C5_2 1_555 1_555
C5_2 C6_2 1_555 1_555
C8E C13E 1_555 1_555
C10E C14E 1_555 1_555
C11E C12E 1_555 1_555
C15_2 C20_2 1_555 1_555
C17_2 C21_2 1_555 1_555
C18_2 C19_2 1_555 1_555

#END
