
#######################################################################
#
#                 Cambridge Crystallographic Data Centre
#                                CCDC 
#
#######################################################################
#
# If this CIF has been generated from an entry in the Cambridge 
# Structural Database, then it will include bibliographic, chemical, 
# crystal, experimental, refinement or atomic coordinate data resulting 
# from the CCDC's data processing and validation procedures.
#
#######################################################################

data_WOFSOB
_symmetry_cell_setting           monoclinic
_symmetry_space_group_name_H-M   'P 21/c'
_symmetry_Int_Tables_number      14
_space_group_name_Hall           '-P 2ybc'
loop_
_symmetry_equiv_pos_site_id
_symmetry_equiv_pos_as_xyz
1 x,y,z
2 -x,1/2+y,1/2-z
3 -x,-y,-z
4 x,1/2-y,1/2+z
_cell_length_a                   10.9357(2)
_cell_length_b                   9.2133(2)
_cell_length_c                   18.0899(3)
_cell_angle_alpha                90
_cell_angle_beta                 104.6050(10)
_cell_angle_gamma                90
_cell_volume                     1763.73
loop_
_atom_site_label
_atom_site_type_symbol
_atom_site_fract_x
_atom_site_fract_y
_atom_site_fract_z
Cu1 Cu 0.993220(5) 0.001917(6) 0.253148(3)
P1 P 1.163680(12) -0.239473(13) 0.202719(7)
P2 P 0.897000(12) -0.248533(13) 0.130337(7)
O1 O 1.14111(3) -0.11617(4) 0.25288(2)
O2 O 1.15376(3) -0.39254(4) 0.23155(2)
O3 O 0.87845(3) -0.13358(4) 0.18607(2)
O4 O 0.89298(3) -0.40558(4) 0.15587(2)
O5 O 1.01278(4) 0.14001(5) 0.15528(3)
C1 C 1.13018(7) 0.19813(9) 0.14772(4)
C2 C 1.05007(4) -0.21998(5) 0.11095(3)
C3 C 1.32029(4) -0.21800(5) 0.18967(3)
C4 C 1.36283(5) -0.30799(6) 0.13892(3)
C5 C 1.48655(5) -0.29679(7) 0.13214(4)
C6 C 1.56872(5) -0.19595(8) 0.17644(4)
C7 C 1.52621(5) -0.10470(8) 0.22586(3)
C8 C 1.40206(5) -0.11499(6) 0.23248(3)
C9 C 0.77536(4) -0.22408(5) 0.04375(3)
C10 C 0.72439(5) -0.34011(6) -0.00366(3)
C11 C 0.62813(6) -0.31540(6) -0.06949(3)
C12 C 0.58395(6) -0.17576(7) -0.08868(3)
C13 C 0.63484(7) -0.05979(7) -0.04200(4)
C14 C 0.73009(6) -0.08376(6) 0.02422(3)
H1 H 1.0556(11) -0.1259(14) 0.0921(7)
H2 H 1.0631(11) -0.2922(14) 0.0716(7)
H3 H 1.3089(11) -0.3775(14) 0.1085(7)
H4 H 1.5147(13) -0.3529(15) 0.0962(8)
H5 H 1.6510(14) -0.1837(17) 0.1713(9)
H6 H 1.5808(12) -0.0345(14) 0.2557(8)
H7 H 1.3735(11) -0.0514(13) 0.2674(7)
H8 H 0.7580(11) -0.4387(14) 0.0085(7)
H9 H 0.5911(11) -0.3967(13) -0.1056(7)
H10 H 0.5183(12) -0.1531(15) -0.1324(8)
H11 H 0.6041(12) 0.0298(14) -0.0534(7)
H12 H 0.7634(12) -0.0083(12) 0.0558(8)
H13 H 0.9525(14) 0.2013(17) 0.1339(8)
H14 H 1.1321(17) 0.203(2) 0.0973(11)
H15 H 1.1951(18) 0.156(2) 0.1781(11)
H16 H 1.1491(14) 0.2917(17) 0.1664(9)
Cu1A Cu 1.006780(5) -0.498083(6) 0.246852(3)
O2A O 0.84624(3) 0.10746(4) 0.26845(2)
O4A O 1.10702(3) 0.09442(4) 0.34413(2)
O6 O 1.16868(5) -0.33310(5) -0.07656(3)
C15 C 1.29403(7) -0.29372(9) -0.07897(4)
H17 H 1.3317(13) -0.2424(13) -0.0319(8)
H18 H 1.2974(15) -0.2290(16) -0.1196(10)
H19 H 1.1511(14) -0.4077(17) -0.1046(9)
H20 H 1.3481(15) -0.3747(18) -0.0819(10)
loop_
_geom_bond_atom_site_label_1
_geom_bond_atom_site_label_2
_geom_bond_site_symmetry_1
_geom_bond_site_symmetry_2
Cu1 O1 1_555 1_555
P1 O1 1_555 1_555
P2 O3 1_555 1_555
O2 P1 1_555 1_555
O3 Cu1 1_555 1_555
O4 P2 1_555 1_555
O5 Cu1 1_555 1_555
C1 O5 1_555 1_555
C2 P1 1_555 1_555
C3 P1 1_555 1_555
C4 C3 1_555 1_555
C5 C4 1_555 1_555
C6 C5 1_555 1_555
C7 C6 1_555 1_555
C8 C3 1_555 1_555
C9 P2 1_555 1_555
C10 C9 1_555 1_555
C11 C10 1_555 1_555
C12 C11 1_555 1_555
C13 C12 1_555 1_555
C14 C9 1_555 1_555
H1 C2 1_555 1_555
H2 C2 1_555 1_555
H3 C4 1_555 1_555
H4 C5 1_555 1_555
H5 C6 1_555 1_555
H6 C7 1_555 1_555
H7 C8 1_555 1_555
H8 C10 1_555 1_555
H9 C11 1_555 1_555
H10 C12 1_555 1_555
H11 C13 1_555 1_555
H12 C14 1_555 1_555
H13 O5 1_555 1_555
H14 C1 1_555 1_555
H15 C1 1_555 1_555
H16 C1 1_555 1_555
O6 C15 1_555 1_555
C15 H17 1_555 1_555
H18 C15 1_555 1_555
H19 O6 1_555 1_555
H20 C15 1_555 1_555
Cu1A O2 1_555 1_555
O2A Cu1 1_555 1_555
O4A Cu1 1_555 1_555
P2 C2 1_555 1_555
O4 Cu1A 1_555 1_555
C7 C8 1_555 1_555
C13 C14 1_555 1_555

#END
