
#######################################################################
#
#                 Cambridge Crystallographic Data Centre
#                                CCDC 
#
#######################################################################
#
# If this CIF has been generated from an entry in the Cambridge 
# Structural Database, then it will include bibliographic, chemical, 
# crystal, experimental, refinement or atomic coordinate data resulting 
# from the CCDC's data processing and validation procedures.
#
#######################################################################

data_WOFSEQ
_symmetry_cell_setting           trigonal
_symmetry_space_group_name_H-M   'P -3 c 1'
_symmetry_Int_Tables_number      165
_space_group_name_Hall           '-P 3 2"c'
loop_
_symmetry_equiv_pos_site_id
_symmetry_equiv_pos_as_xyz
1 x,y,z
2 -y,x-y,z
3 -x+y,-x,z
4 y,x,1/2-z
5 -x,-x+y,1/2-z
6 x-y,-y,1/2-z
7 -x,-y,-z
8 y,-x+y,-z
9 x-y,x,-z
10 -y,-x,1/2+z
11 x,x-y,1/2+z
12 -x+y,y,1/2+z
_cell_length_a                   13.5601(9)
_cell_length_b                   13.5601(9)
_cell_length_c                   16.6929(9)
_cell_angle_alpha                90
_cell_angle_beta                 90
_cell_angle_gamma                120
_cell_volume                     2658.2
loop_
_atom_site_label
_atom_site_type_symbol
_atom_site_fract_x
_atom_site_fract_y
_atom_site_fract_z
Nd1 Nd 0.3333 -0.3333 0.21032(2)
O1 O 0.2722(4) -0.4857(3) 0.3054(2)
O2 O 0.3615(4) -0.5143(3) 0.4057(3)
H1 H 0.4158 -0.4825 0.3751
O3 O -0.1149(3) -0.5817(3) 0.3168(2)
O4 O -0.2368(3) -0.7318(3) 0.3868(3)
N1 N 0.0708(4) -0.5822(3) 0.3765(2)
H2 H 0.0792 -0.5467 0.3321
C1 C 0.2758(4) -0.5193(4) 0.3740(3)
C2 C 0.1661(5) -0.5785(4) 0.4226(3)
H3 H 0.1484 -0.6554 0.4354
H4 H 0.1761 -0.5378 0.4724
C3 C -0.0409(5) -0.6545(4) 0.4162(3)
H5 H -0.0388 -0.6258 0.4698
H6 H -0.0547 -0.7316 0.4210
C4 C -0.1371(4) -0.6556(4) 0.3694(3)
Nd1C Nd -0.3333 -0.6667 0.28968(2)
Nd1C_2 Nd 0.6667 -0.6667 0.28968(2)
Nd1C_3 Nd 0.6667 0.3333 0.28968(2)
O1A O 0.4857(3) -0.2421(5) 0.3054(2)
O1B O 0.2421(5) -0.2722(4) 0.3054(2)
O2A O 0.5143(3) -0.1242(5) 0.4057(3)
O2B O 0.1242(5) -0.3615(4) 0.4057(3)
H1A H 0.4825 -0.1017 0.3751
H1B H 0.1017 -0.4158 0.3751
O3A O 0.5817(3) -0.5332(4) 0.3168(2)
O3B O 0.5332(4) 0.1149(3) 0.3168(2)
O3C O 0.4183(3) -0.1149(3) 0.1832(2)
O3D O 0.1149(3) -0.4668(4) 0.1832(2)
O3E O 0.4668(4) -0.4183(3) 0.1832(2)
O4A O 0.7318(3) -0.5050(4) 0.3868(3)
O4B O 0.5050(4) 0.2368(3) 0.3868(3)
O4C O 0.2682(3) -0.2368(3) 0.1132(3)
O4D O 0.2368(3) -0.4950(4) 0.1132(3)
O4E O 0.4950(4) -0.2682(3) 0.1132(3)
N1A N 0.5822(3) -0.3470(5) 0.3765(2)
N1B N 0.3470(5) -0.0708(4) 0.3765(2)
H2A H 0.5467 -0.3741 0.3321
H2B H 0.3741 -0.0792 0.3321
C1A C 0.5193(4) -0.2049(6) 0.3740(3)
C1B C 0.2049(6) -0.2758(4) 0.3740(3)
C2A C 0.5785(4) -0.2554(6) 0.4226(3)
C2B C 0.2554(6) -0.1661(5) 0.4226(3)
H3A H 0.6554 -0.1962 0.4354
H3B H 0.1962 -0.1484 0.4354
H4A H 0.5378 -0.2861 0.4724
H4B H 0.2861 -0.1761 0.4724
C3A C 0.6545(4) -0.3864(6) 0.4162(3)
C3B C 0.3864(6) 0.0409(5) 0.4162(3)
H5A H 0.6258 -0.4130 0.4698
H5B H 0.4130 0.0388 0.4698
H6A H 0.7316 -0.3231 0.4210
H6B H 0.3231 0.0547 0.4210
C4A C 0.6556(4) -0.4815(6) 0.3694(3)
C4B C 0.4815(6) 0.1371(4) 0.3694(3)
loop_
_geom_bond_atom_site_label_1
_geom_bond_atom_site_label_2
_geom_bond_site_symmetry_1
_geom_bond_site_symmetry_2
Nd1 O1 1_555 1_555
O1 C1 1_555 1_555
O2 H1 1_555 1_555
O3 C4 1_555 1_555
O4 C4 1_555 1_555
N1 H2 1_555 1_555
C1 O2 1_555 1_555
C2 N1 1_555 1_555
H3 C2 1_555 1_555
H4 C2 1_555 1_555
C3 N1 1_555 1_555
H5 C3 1_555 1_555
H6 C3 1_555 1_555
C4 C3 1_555 1_555
Nd1C O3 1_555 1_555
Nd1C_2 O3A 1_555 1_555
Nd1C_3 O3B 1_555 1_555
O1A Nd1 1_555 1_555
O1B Nd1 1_555 1_555
O2A H1A 1_555 1_555
O2B H1B 1_555 1_555
O3A C4A 1_555 1_555
O3B C4B 1_555 1_555
O3C Nd1 1_555 1_555
O3D Nd1 1_555 1_555
O3E Nd1 1_555 1_555
O4A Nd1C_2 1_555 1_555
O4B Nd1C_3 1_555 1_555
O4C Nd1 1_555 1_555
O4D Nd1 1_555 1_555
O4E Nd1 1_555 1_555
N1A H2A 1_555 1_555
N1B H2B 1_555 1_555
C1A O1A 1_555 1_555
C1B O1B 1_555 1_555
C2A N1A 1_555 1_555
C2B N1B 1_555 1_555
H3A C2A 1_555 1_555
H3B C2B 1_555 1_555
H4A C2A 1_555 1_555
H4B C2B 1_555 1_555
C3A N1A 1_555 1_555
C3B N1B 1_555 1_555
H5A C3A 1_555 1_555
H5B C3B 1_555 1_555
H6A C3A 1_555 1_555
H6B C3B 1_555 1_555
C4A O4A 1_555 1_555
C4B O4B 1_555 1_555
O4 Nd1C 1_555 1_555
C1 C2 1_555 1_555
O2A C1A 1_555 1_555
O2B C1B 1_555 1_555
C1A C2A 1_555 1_555
C1B C2B 1_555 1_555
C3A C4A 1_555 1_555
C3B C4B 1_555 1_555

#END
