
#######################################################################
#
#                 Cambridge Crystallographic Data Centre
#                                CCDC 
#
#######################################################################
#
# If this CIF has been generated from an entry in the Cambridge 
# Structural Database, then it will include bibliographic, chemical, 
# crystal, experimental, refinement or atomic coordinate data resulting 
# from the CCDC's data processing and validation procedures.
#
#######################################################################

data_WOFTER
_symmetry_cell_setting           trigonal
_symmetry_space_group_name_H-M   'P -3 c 1'
_symmetry_Int_Tables_number      165
_space_group_name_Hall           '-P 3 2"c'
loop_
_symmetry_equiv_pos_site_id
_symmetry_equiv_pos_as_xyz
1 x,y,z
2 -y,x-y,z
3 -x+y,-x,z
4 y,x,1/2-z
5 -x,-x+y,1/2-z
6 x-y,-y,1/2-z
7 -x,-y,-z
8 y,-x+y,-z
9 x-y,x,-z
10 -y,-x,1/2+z
11 x,x-y,1/2+z
12 -x+y,y,1/2+z
_cell_length_a                   13.3520(10)
_cell_length_b                   13.3520(10)
_cell_length_c                   16.4030(10)
_cell_angle_alpha                90
_cell_angle_beta                 90
_cell_angle_gamma                120
_cell_volume                     2532.48
loop_
_atom_site_label
_atom_site_type_symbol
_atom_site_fract_x
_atom_site_fract_y
_atom_site_fract_z
Er1 Er 0.3333 0.6667 0.21167(4)
O1 O 0.2520(7) 0.5201(6) 0.3032(5)
O2 O 0.1266(8) 0.4801(7) 0.4030(5)
H1 H 0.1032 0.5121 0.3719
O3 O 0.5396(5) 0.4203(5) 0.3147(4)
O4 O 0.5154(5) 0.2763(6) 0.3843(4)
N1 N 0.3531(7) 0.4207(6) 0.3737(4)
H2 H 0.3799 0.4560 0.3282
C1 C 0.4903(7) 0.3501(8) 0.3668(5)
C2 C 0.3933(8) 0.3472(8) 0.4155(6)
H3 H 0.3297 0.2683 0.4198
H4 H 0.4200 0.3763 0.4701
C3 C 0.2619(9) 0.4240(8) 0.4212(6)
H5 H 0.2943 0.4669 0.4712
H6 H 0.2032 0.3459 0.4357
C4 C 0.2080(8) 0.4798(8) 0.3732(5)
Er1C Er 0.6667 0.3333 0.28833(4)
Er1C_2 Er 0.6667 1.3333 0.28833(4)
Er1C_3 Er -0.3333 0.3333 0.28833(4)
O1A O 0.4799(6) 0.7319(9) 0.3032(5)
O1B O 0.2681(9) 0.7480(7) 0.3032(5)
O2A O 0.5199(7) 0.6465(11) 0.4030(5)
O2B O 0.3535(11) 0.8734(8) 0.4030(5)
H1A H 0.4879 0.5911 0.3719
H1B H 0.4089 0.8968 0.3719
O3A O 0.5797(5) 1.1193(7) 0.3147(4)
O3B O -0.1193(7) 0.4604(5) 0.3147(4)
O3C O 0.4203(5) 0.5396(5) 0.1853(4)
O3D O 0.4604(5) 0.8807(7) 0.1853(4)
O3E O 0.1193(7) 0.5797(5) 0.1853(4)
O4A O 0.7237(6) 1.2391(8) 0.3843(4)
O4B O -0.2391(8) 0.4846(5) 0.3843(4)
O4C O 0.2763(6) 0.5154(5) 0.1157(4)
O4D O 0.4846(5) 0.7609(8) 0.1157(4)
O4E O 0.2391(8) 0.7237(6) 0.1157(4)
N1A N 0.5793(6) 0.9324(9) 0.3737(4)
N1B N 0.0676(9) 0.6469(7) 0.3737(4)
H2A H 0.5440 0.9239 0.3282
H2B H 0.0761 0.6201 0.3282
C1A C 0.6499(8) 1.1402(11) 0.3668(5)
C1B C -0.1402(11) 0.5097(7) 0.3668(5)
C2A C 0.6528(8) 1.0461(11) 0.4155(6)
C2B C -0.0461(11) 0.6067(8) 0.4155(6)
H3A H 0.7317 1.0614 0.4198
H3B H -0.0614 0.6703 0.4198
H4A H 0.6237 1.0437 0.4701
H4B H -0.0437 0.5800 0.4701
C3A C 0.5760(8) 0.8379(12) 0.4212(6)
C3B C 0.1621(12) 0.7381(9) 0.4212(6)
H5A H 0.5331 0.8274 0.4712
H5B H 0.1726 0.7057 0.4712
H6A H 0.6541 0.8573 0.4357
H6B H 0.1427 0.7968 0.4357
C4A C 0.5202(8) 0.7282(11) 0.3732(5)
C4B C 0.2718(11) 0.7920(8) 0.3732(5)
loop_
_geom_bond_atom_site_label_1
_geom_bond_atom_site_label_2
_geom_bond_site_symmetry_1
_geom_bond_site_symmetry_2
Er1 O1 1_555 1_555
O1 C4 1_555 1_555
O2 H1 1_555 1_555
O3 C1 1_555 1_555
O4 C1 1_555 1_555
N1 H2 1_555 1_555
C1 C2 1_555 1_555
C2 N1 1_555 1_555
H3 C2 1_555 1_555
H4 C2 1_555 1_555
C3 N1 1_555 1_555
H5 C3 1_555 1_555
H6 C3 1_555 1_555
C4 O2 1_555 1_555
Er1C O3 1_555 1_555
Er1C_2 O3A 1_555 1_555
Er1C_3 O3B 1_555 1_555
O1A Er1 1_555 1_555
O1B Er1 1_555 1_555
O2A H1A 1_555 1_555
O2B H1B 1_555 1_555
O3A C1A 1_555 1_555
O3B C1B 1_555 1_555
O3C Er1 1_555 1_555
O3D Er1 1_555 1_555
O3E Er1 1_555 1_555
O4A Er1C_2 1_555 1_555
O4B Er1C_3 1_555 1_555
O4C Er1 1_555 1_555
O4D Er1 1_555 1_555
O4E Er1 1_555 1_555
N1A H2A 1_555 1_555
N1B H2B 1_555 1_555
C1A O4A 1_555 1_555
C1B O4B 1_555 1_555
C2A N1A 1_555 1_555
C2B N1B 1_555 1_555
H3A C2A 1_555 1_555
H3B C2B 1_555 1_555
H4A C2A 1_555 1_555
H4B C2B 1_555 1_555
C3A N1A 1_555 1_555
C3B N1B 1_555 1_555
H5A C3A 1_555 1_555
H5B C3B 1_555 1_555
H6A C3A 1_555 1_555
H6B C3B 1_555 1_555
C4A O1A 1_555 1_555
C4B O1B 1_555 1_555
O4 Er1C 1_555 1_555
C3 C4 1_555 1_555
O2A C4A 1_555 1_555
O2B C4B 1_555 1_555
C1A C2A 1_555 1_555
C1B C2B 1_555 1_555
C3A C4A 1_555 1_555
C3B C4B 1_555 1_555

#END
