
#######################################################################
#
#                 Cambridge Crystallographic Data Centre
#                                CCDC 
#
#######################################################################
#
# If this CIF has been generated from an entry in the Cambridge 
# Structural Database, then it will include bibliographic, chemical, 
# crystal, experimental, refinement or atomic coordinate data resulting 
# from the CCDC's data processing and validation procedures.
#
#######################################################################

data_WOFTIV
_symmetry_cell_setting           trigonal
_symmetry_space_group_name_H-M   'P -3 c 1'
_symmetry_Int_Tables_number      165
_space_group_name_Hall           '-P 3 2"c'
loop_
_symmetry_equiv_pos_site_id
_symmetry_equiv_pos_as_xyz
1 x,y,z
2 -y,x-y,z
3 -x+y,-x,z
4 y,x,1/2-z
5 -x,-x+y,1/2-z
6 x-y,-y,1/2-z
7 -x,-y,-z
8 y,-x+y,-z
9 x-y,x,-z
10 -y,-x,1/2+z
11 x,x-y,1/2+z
12 -x+y,y,1/2+z
_cell_length_a                   13.5300(9)
_cell_length_b                   13.5300(9)
_cell_length_c                   16.3440(10)
_cell_angle_alpha                90
_cell_angle_beta                 90
_cell_angle_gamma                120
_cell_volume                     2591.1
loop_
_atom_site_label
_atom_site_type_symbol
_atom_site_fract_x
_atom_site_fract_y
_atom_site_fract_z
Yb1 Yb 0.6667 0.3333 0.21197(2)
O1 O 0.4236(3) 0.5411(4) 0.3143(3)
O2 O 0.2759(4) 0.5161(3) 0.3829(3)
O3 O 0.5220(4) 0.2544(4) 0.3030(3)
O4 O 0.4806(4) 0.1262(4) 0.4018(3)
H1 H 0.5131 0.1039 0.3709
N1 N 0.4200(4) 0.3542(4) 0.3747(3)
H2 H 0.4546 0.3808 0.3290
C1 C 0.3500(4) 0.4910(5) 0.3676(4)
C2 C 0.3490(5) 0.3952(5) 0.4159(4)
H3 H 0.3783 0.4218 0.4705
H4 H 0.2712 0.3326 0.4209
C3 C 0.4245(5) 0.2619(5) 0.4215(4)
H5 H 0.3477 0.2032 0.4357
H6 H 0.4667 0.2931 0.4718
C4 C 0.4813(5) 0.2094(5) 0.3720(4)
Yb1C Yb 0.3333 0.6667 0.28803(2)
Yb1C_2 Yb 0.3333 -0.3333 0.28803(2)
Yb1C_3 Yb 1.3333 0.6667 0.28803(2)
O1D O 0.5764(3) 0.1175(5) 0.1857(3)
O1E O 0.8825(5) 0.4589(4) 0.1857(3)
O1C O 0.5411(4) 0.4236(3) 0.1857(3)
O1A O 0.4589(4) -0.1175(5) 0.3143(3)
O1B O 1.1175(5) 0.5764(3) 0.3143(3)
O2D O 0.7241(4) 0.2402(5) 0.1171(3)
O2E O 0.7598(5) 0.4839(3) 0.1171(3)
O2C O 0.5161(3) 0.2759(4) 0.1171(3)
O2A O 0.4839(3) -0.2402(5) 0.3829(3)
O2B O 1.2402(5) 0.7241(4) 0.3829(3)
O3A O 0.7456(4) 0.2676(6) 0.3030(3)
O3B O 0.7324(6) 0.4780(4) 0.3030(3)
O4A O 0.8738(4) 0.3544(6) 0.4018(3)
O4B O 0.6456(6) 0.5194(4) 0.4018(3)
H1A H 0.8961 0.4092 0.3709
H1B H 0.5908 0.4869 0.3709
N1A N 0.6458(4) 0.0658(6) 0.3747(3)
N1B N 0.9342(6) 0.5800(4) 0.3747(3)
H2A H 0.6192 0.0738 0.3290
H2B H 0.9262 0.5454 0.3290
C1A C 0.5090(5) -0.1410(6) 0.3676(4)
C1B C 1.1410(6) 0.6500(4) 0.3676(4)
C2A C 0.6048(5) -0.0462(7) 0.4159(4)
C2B C 1.0462(7) 0.6510(5) 0.4159(4)
H3A H 0.5782 -0.0435 0.4705
H3B H 1.0435 0.6217 0.4705
H4A H 0.6674 -0.0614 0.4209
H4B H 1.0614 0.7288 0.4209
C3A C 0.7381(5) 0.1626(7) 0.4215(4)
C3B C 0.8374(7) 0.5755(5) 0.4215(4)
H5A H 0.7968 0.1445 0.4357
H5B H 0.8555 0.6523 0.4357
H6A H 0.7069 0.1736 0.4718
H6B H 0.8264 0.5333 0.4718
C4A C 0.7906(5) 0.2719(7) 0.3720(4)
C4B C 0.7281(7) 0.5187(5) 0.3720(4)
loop_
_geom_bond_atom_site_label_1
_geom_bond_atom_site_label_2
_geom_bond_site_symmetry_1
_geom_bond_site_symmetry_2
Yb1 O3 1_555 1_555
O1 C1 1_555 1_555
O2 C1 1_555 1_555
O3 C4 1_555 1_555
O4 H1 1_555 1_555
N1 H2 1_555 1_555
C1 C2 1_555 1_555
C2 N1 1_555 1_555
H3 C2 1_555 1_555
H4 C2 1_555 1_555
C3 N1 1_555 1_555
H5 C3 1_555 1_555
H6 C3 1_555 1_555
C4 O4 1_555 1_555
Yb1C O1 1_555 1_555
Yb1C_2 O1A 1_555 1_555
Yb1C_3 O1B 1_555 1_555
O1D Yb1 1_555 1_555
O1E Yb1 1_555 1_555
O1C Yb1 1_555 1_555
O1A C1A 1_555 1_555
O1B C1B 1_555 1_555
O2D Yb1 1_555 1_555
O2E Yb1 1_555 1_555
O2C Yb1 1_555 1_555
O2A Yb1C_2 1_555 1_555
O2B Yb1C_3 1_555 1_555
O3A Yb1 1_555 1_555
O3B Yb1 1_555 1_555
O4A H1A 1_555 1_555
O4B H1B 1_555 1_555
N1A H2A 1_555 1_555
N1B H2B 1_555 1_555
C1A O2A 1_555 1_555
C1B O2B 1_555 1_555
C2A N1A 1_555 1_555
C2B N1B 1_555 1_555
H3A C2A 1_555 1_555
H3B C2B 1_555 1_555
H4A C2A 1_555 1_555
H4B C2B 1_555 1_555
C3A N1A 1_555 1_555
C3B N1B 1_555 1_555
H5A C3A 1_555 1_555
H5B C3B 1_555 1_555
H6A C3A 1_555 1_555
H6B C3B 1_555 1_555
C4A O3A 1_555 1_555
C4B O3B 1_555 1_555
O2 Yb1C 1_555 1_555
C3 C4 1_555 1_555
O4A C4A 1_555 1_555
O4B C4B 1_555 1_555
C1A C2A 1_555 1_555
C1B C2B 1_555 1_555
C3A C4A 1_555 1_555
C3B C4B 1_555 1_555

#END
