
#######################################################################
#
#                 Cambridge Crystallographic Data Centre
#                                CCDC 
#
#######################################################################
#
# If this CIF has been generated from an entry in the Cambridge 
# Structural Database, then it will include bibliographic, chemical, 
# crystal, experimental, refinement or atomic coordinate data resulting 
# from the CCDC's data processing and validation procedures.
#
#######################################################################

data_WOFVET
_symmetry_cell_setting           monoclinic
_symmetry_space_group_name_H-M   'C 2/c'
_symmetry_Int_Tables_number      15
_space_group_name_Hall           '-C 2yn'
loop_
_symmetry_equiv_pos_site_id
_symmetry_equiv_pos_as_xyz
1 x,y,z
2 1/2+x,1/2+y,z
3 -x,y,1/2-z
4 1/2-x,1/2+y,1/2-z
5 -x,-y,-z
6 1/2-x,1/2-y,-z
7 x,-y,1/2+z
8 1/2+x,1/2-y,1/2+z
_cell_length_a                   29.818(6)
_cell_length_b                   9.1597(18)
_cell_length_c                   16.165(3)
_cell_angle_alpha                90
_cell_angle_beta                 119.29(3)
_cell_angle_gamma                90
_cell_volume                     3850.61
loop_
_atom_site_label
_atom_site_type_symbol
_atom_site_fract_x
_atom_site_fract_y
_atom_site_fract_z
C1 C 0.19602(10) 0.1433(3) 1.36925(19)
C2 C 0.26624(10) -0.0127(3) 1.4007(2)
C3 C 0.30284(11) -0.0688(3) 1.3698(2)
C4 C 0.10150(12) 0.0320(4) 1.0838(2)
H1 H 0.1299 -0.0078 1.1361
C5 C 0.04344(11) 0.1826(3) 0.9904(2)
C6 C 0.22662(10) 0.0764(3) 1.3378(2)
H2 H 0.2207 0.0909 1.2764
C7 C 0.27389(11) -0.0416(3) 1.4931(2)
C8 C 0.20460(11) 0.1179(3) 1.4612(2)
C9 C 0.14164(12) 0.2735(4) 1.3883(2)
H3 H 0.1153 0.3383 1.3775
C10 C 0.24265(12) 0.0243(3) 1.5227(2)
H4 H 0.2471 0.0062 1.5829
C11 C 0.03240(11) 0.0486(3) 0.9442(2)
C12 C -0.00980(12) 0.0293(3) 0.8545(2)
H5 H -0.0157 -0.0600 0.8234
C13 C -0.04279(12) 0.1456(4) 0.8125(2)
C14 C 0.01135(11) 0.3009(3) 0.9482(2)
H6 H 0.0189 0.3915 0.9779
C15 C -0.03221(11) 0.2812(3) 0.8608(2)
C16 C 0.31518(14) -0.1448(4) 1.5587(2)
H7 H 0.3483 -0.1030 1.5776
H8 H 0.3119 -0.2357 1.5267
H9 H 0.3116 -0.1617 1.6139
C17 C -0.08838(14) 0.1262(4) 0.7154(3)
H10 H -0.0881 0.0293 0.6930
H11 H -0.0867 0.1961 0.6727
H12 H -0.1194 0.1409 0.7183
C18 C -0.06893(13) 0.4088(4) 0.8272(2)
Cd1 Cd 0.127004(8) 0.35086(2) 1.184643(15)
H13 H 0.1711(17) 0.220(5) 1.518(3)
H14 H 0.0712(13) -0.127(4) 0.995(2)
N1 N 0.08740(9) 0.1691(3) 1.07882(18)
N2 N 0.07057(10) -0.0444(3) 1.0056(2)
N3 N 0.15568(9) 0.2430(3) 1.32454(17)
N4 N 0.16885(11) 0.2025(3) 1.4697(2)
O1 O -0.11628(9) 0.3894(3) 0.79256(17)
O2 O -0.05014(10) 0.5365(3) 0.8429(2)
O3 O 0.35034(8) -0.0514(3) 1.42375(16)
O4 O 0.28606(9) -0.1255(3) 1.28966(17)
Cd1D Cd -0.127004(8) 0.64914(2) 0.815357(15)
Cd1C Cd 0.372996(8) -0.14914(2) 1.315357(15)
O1D O 0.11628(9) 0.6106(3) 1.20744(17)
O2D O 0.05014(10) 0.4635(3) 1.1571(2)
O3C O 0.14966(8) 0.4486(3) 1.07625(16)
O4C O 0.21394(9) 0.3745(3) 1.21034(17)
H15 H 0.2085(11) 0.189(5) 0.7090(17)
H16 H 0.1683(13) 0.264(4) 0.682(2)
O5 O 0.18191(10) 0.2117(3) 0.65909(17)
H17 H 0.0437(12) 0.607(5) 0.930(4)
H18 H 0.0894(13) 0.580(3) 0.993(3)
O6 O 0.06978(14) 0.6519(3) 0.9700(3)
O7? O 0.0141(3) 0.6433(10) 0.7869(5)
loop_
_geom_bond_atom_site_label_1
_geom_bond_atom_site_label_2
_geom_bond_site_symmetry_1
_geom_bond_site_symmetry_2
C1 C6 1_555 1_555
C2 C3 1_555 1_555
C3 O3 1_555 1_555
C4 H1 1_555 1_555
C5 C11 1_555 1_555
C6 C2 1_555 1_555
H2 C6 1_555 1_555
C7 C2 1_555 1_555
C8 C1 1_555 1_555
C9 H3 1_555 1_555
C10 C7 1_555 1_555
H4 C10 1_555 1_555
C11 C12 1_555 1_555
C12 H5 1_555 1_555
C13 C12 1_555 1_555
C14 C5 1_555 1_555
H6 C14 1_555 1_555
C15 C13 1_555 1_555
C16 C7 1_555 1_555
H7 C16 1_555 1_555
H8 C16 1_555 1_555
H9 C16 1_555 1_555
C17 C13 1_555 1_555
H10 C17 1_555 1_555
H11 C17 1_555 1_555
H12 C17 1_555 1_555
C18 C15 1_555 1_555
Cd1 N1 1_555 1_555
H13 N4 1_555 1_555
H14 N2 1_555 1_555
H15 O5 1_555 1_555
H16 O5 1_555 1_555
H17 O6 1_555 1_555
H18 O6 1_555 1_555
N1 C4 1_555 1_555
N2 C4 1_555 1_555
N3 C1 1_555 1_555
N4 C8 1_555 1_555
O1 C18 1_555 1_555
O2 C18 1_555 1_555
O3 Cd1C 1_555 1_555
O4 C3 1_555 1_555
Cd1D O1 1_555 1_555
Cd1C O4 1_555 1_555
O1D Cd1 1_555 1_555
O2D Cd1 1_555 1_555
O3C Cd1 1_555 1_555
O4C Cd1 1_555 1_555
C5 N1 1_555 1_555
C8 C10 1_555 1_555
C9 N3 1_555 1_555
C9 N4 1_555 1_555
C11 N2 1_555 1_555
C14 C15 1_555 1_555
Cd1 N3 1_555 1_555
O2 Cd1D 1_555 1_555

#END
