
#######################################################################
#
#                 Cambridge Crystallographic Data Centre
#                                CCDC 
#
#######################################################################
#
# If this CIF has been generated from an entry in the Cambridge 
# Structural Database, then it will include bibliographic, chemical, 
# crystal, experimental, refinement or atomic coordinate data resulting 
# from the CCDC's data processing and validation procedures.
#
#######################################################################

data_WOFWIX
_symmetry_cell_setting           triclinic
_symmetry_space_group_name_H-M   'P 1'
_symmetry_Int_Tables_number      1
_space_group_name_Hall           'P 1'
loop_
_symmetry_equiv_pos_site_id
_symmetry_equiv_pos_as_xyz
1 x,y,z
_cell_length_a                   8.627(2)
_cell_length_b                   8.997(2)
_cell_length_c                   12.988(3)
_cell_angle_alpha                91.590(10)
_cell_angle_beta                 98.510(10)
_cell_angle_gamma                105.930(10)
_cell_volume                     956.225
loop_
_atom_site_label
_atom_site_type_symbol
_atom_site_fract_x
_atom_site_fract_y
_atom_site_fract_z
Cd1 Cd -0.00002(4) 0.00000(4) -0.00001(3)
Cd2 Cd -0.21931(5) 0.16432(4) -0.40047(3)
Cd3 Cd 0.38305(6) -0.39589(5) 0.06533(4)
N1 N 0.0879(7) 0.0449(6) 0.1826(4)
N2 N -0.0912(8) 0.2018(6) 0.0672(4)
N3 N -0.2063(8) -0.0554(7) -0.5023(4)
N4 N -0.3339(8) 0.1675(7) -0.5803(5)
N5 N -0.4888(9) 0.0465(7) -0.3673(5)
N6 N -0.3166(10) 0.3420(7) -0.3047(5)
N7 N 0.3557(13) -0.3465(12) 0.3166(7)
N8 N 0.1347(14) 0.4245(11) -0.4234(9)
N9 N 0.1380(9) -0.1792(7) -0.0152(6)
N10 N 0.2477(9) 0.2285(7) -0.0082(6)
N11 N -0.1368(10) 0.0503(8) -0.2504(5)
N12 N -0.2439(9) -0.1888(8) 0.0303(6)
C1 C 0.1614(9) -0.0447(9) 0.2401(6)
H1 H 0.1786 -0.1301 0.2066
C2 C 0.2136(11) -0.0175(11) 0.3471(6)
H2 H 0.2655 -0.0819 0.3846
C3 C 0.1857(11) 0.1075(11) 0.3951(6)
H3 H 0.2172 0.1285 0.4669
C4 C 0.1109(10) 0.2030(10) 0.3375(5)
H4 H 0.0932 0.2893 0.3697
C5 C 0.0623(7) 0.1675(7) 0.2299(5)
C6 C -0.0220(8) 0.2623(7) 0.1639(5)
C7 C -0.0295(11) 0.4087(8) 0.1973(6)
H5 H 0.0185 0.4501 0.2647
C8 C -0.1069(13) 0.4913(10) 0.1317(8)
H6 H -0.1086 0.5904 0.1528
C9 C -0.1819(13) 0.4258(10) 0.0340(7)
H7 H -0.2391 0.4781 -0.0110
C10 C -0.1715(12) 0.2812(10) 0.0037(6)
H8 H -0.2215 0.2373 -0.0628
C11 C -0.1440(13) -0.1641(9) -0.4601(6)
H9 H -0.1174 -0.1601 -0.3878
C12 C -0.1172(14) -0.2816(10) -0.5183(7)
H10 H -0.0717 -0.3544 -0.4860
C13 C -0.1583(12) -0.2897(9) -0.6238(7)
H11 H -0.1420 -0.3684 -0.6651
C14 C -0.2246(10) -0.1789(9) -0.6685(6)
H12 H -0.2521 -0.1819 -0.7407
C15 C -0.2505(8) -0.0627(7) -0.6060(5)
C16 C -0.3237(7) 0.0579(7) -0.6484(5)
C17 C -0.3819(10) 0.0577(9) -0.7548(6)
H13 H -0.3741 -0.0194 -0.8013
C18 C -0.4510(11) 0.1721(11) -0.7911(7)
H14 H -0.4911 0.1727 -0.8616
C19 C -0.4587(10) 0.2837(10) -0.7207(7)
H15 H -0.5024 0.3633 -0.7428
C20 C -0.4009(11) 0.2783(9) -0.6155(7)
H16 H -0.4089 0.3540 -0.5680
C21 C -0.5593(12) -0.1040(10) -0.3871(7)
H17 H -0.5158 -0.1589 -0.4313
C22 C -0.6944(12) -0.1840(11) -0.3455(10)
H18 H -0.7424 -0.2892 -0.3631
C23 C -0.7557(14) -0.1044(14) -0.2779(9)
H19 H -0.8427 -0.1559 -0.2458
C24 C -0.6865(13) 0.0532(13) -0.2582(9)
H20 H -0.7298 0.1098 -0.2149
C25 C -0.5521(10) 0.1269(9) -0.3031(5)
C26 C -0.4661(10) 0.2938(9) -0.2804(5)
C27 C -0.5380(14) 0.3951(12) -0.2370(7)
H21 H -0.6448 0.3611 -0.2240
C28 C -0.4458(18) 0.5501(11) -0.2132(7)
H22 H -0.4892 0.6205 -0.1820
C29 C -0.2922(19) 0.5953(10) -0.2364(8)
H23 H -0.2278 0.6971 -0.2212
C30 C -0.2358(16) 0.4903(9) -0.2816(7)
H24 H -0.1311 0.5237 -0.2983
C31 C 0.3699(10) -0.3662(9) 0.2333(7)
C32 C 0.0167(12) 0.3403(10) -0.4128(7)
C33 C 0.2146(10) -0.2605(9) -0.0041(6)
C34 C 0.3036(8) 0.3566(7) 0.0115(6)
C35 C -0.0923(10) 0.0248(8) -0.1670(5)
C36 C -0.3688(9) -0.2635(8) 0.0401(6)
C34_2 C 0.3036(8) -0.6434(7) 0.0115(6)
C36_2 C 0.6312(9) -0.2635(8) 0.0401(6)
Cd3_2 Cd 0.38305(6) 0.60411(5) 0.06533(4)
Cd3_3 Cd -0.61695(6) -0.39589(5) 0.06533(4)
O1 O 0.4618(10) 0.5317(10) 0.5138(6)
loop_
_geom_bond_atom_site_label_1
_geom_bond_atom_site_label_2
_geom_bond_site_symmetry_1
_geom_bond_site_symmetry_2
Cd1 N1 1_555 1_555
Cd2 N3 1_555 1_555
Cd3 C31 1_555 1_555
N1 C1 1_555 1_555
N2 Cd1 1_555 1_555
N3 C11 1_555 1_555
N4 Cd2 1_555 1_555
N5 Cd2 1_555 1_555
N6 Cd2 1_555 1_555
N7 C31 1_555 1_555
N8 C32 1_555 1_555
N9 Cd1 1_555 1_555
N10 Cd1 1_555 1_555
N11 Cd2 1_555 1_555
N12 Cd1 1_555 1_555
C1 H1 1_555 1_555
C2 C1 1_555 1_555
H2 C2 1_555 1_555
C3 C2 1_555 1_555
H3 C3 1_555 1_555
C4 C3 1_555 1_555
H4 C4 1_555 1_555
C5 N1 1_555 1_555
C6 N2 1_555 1_555
C7 C6 1_555 1_555
H5 C7 1_555 1_555
C8 C7 1_555 1_555
H6 C8 1_555 1_555
C9 C8 1_555 1_555
H7 C9 1_555 1_555
C10 N2 1_555 1_555
H8 C10 1_555 1_555
C11 H9 1_555 1_555
C12 C11 1_555 1_555
H10 C12 1_555 1_555
C13 C12 1_555 1_555
H11 C13 1_555 1_555
C14 C13 1_555 1_555
H12 C14 1_555 1_555
C15 N3 1_555 1_555
C16 N4 1_555 1_555
C17 C16 1_555 1_555
H13 C17 1_555 1_555
C18 C17 1_555 1_555
H14 C18 1_555 1_555
C19 C18 1_555 1_555
H15 C19 1_555 1_555
C20 N4 1_555 1_555
H16 C20 1_555 1_555
C21 N5 1_555 1_555
H17 C21 1_555 1_555
C22 C21 1_555 1_555
H18 C22 1_555 1_555
C23 C22 1_555 1_555
H19 C23 1_555 1_555
C24 C23 1_555 1_555
H20 C24 1_555 1_555
C25 N5 1_555 1_555
C26 N6 1_555 1_555
C27 C26 1_555 1_555
H21 C27 1_555 1_555
C28 C27 1_555 1_555
H22 C28 1_555 1_555
C29 C28 1_555 1_555
H23 C29 1_555 1_555
C30 N6 1_555 1_555
H24 C30 1_555 1_555
C32 Cd2 1_555 1_555
C33 Cd3 1_555 1_555
C34 N10 1_555 1_555
C35 Cd1 1_555 1_555
C36 N12 1_555 1_555
C34_2 Cd3 1_555 1_555
C36_2 Cd3 1_555 1_555
Cd3_2 C34 1_555 1_555
Cd3_3 C36 1_555 1_555
N9 C33 1_555 1_555
N11 C35 1_555 1_555
C4 C5 1_555 1_555
C5 C6 1_555 1_555
C9 C10 1_555 1_555
C14 C15 1_555 1_555
C15 C16 1_555 1_555
C19 C20 1_555 1_555
C24 C25 1_555 1_555
C25 C26 1_555 1_555
C29 C30 1_555 1_555

#END
