
#######################################################################
#
#                 Cambridge Crystallographic Data Centre
#                                CCDC 
#
#######################################################################
#
# If this CIF has been generated from an entry in the Cambridge 
# Structural Database, then it will include bibliographic, chemical, 
# crystal, experimental, refinement or atomic coordinate data resulting 
# from the CCDC's data processing and validation procedures.
#
#######################################################################

data_WOGJOT
_symmetry_cell_setting           monoclinic
_symmetry_space_group_name_H-M   'P 21'
_symmetry_Int_Tables_number      4
_space_group_name_Hall           'P 2yb'
loop_
_symmetry_equiv_pos_site_id
_symmetry_equiv_pos_as_xyz
1 x,y,z
2 -x,1/2+y,-z
_cell_length_a                   9.1963(9)
_cell_length_b                   28.385(3)
_cell_length_c                   11.4281(11)
_cell_angle_alpha                90
_cell_angle_beta                 94.4450(10)
_cell_angle_gamma                90
_cell_volume                     2974.18
loop_
_atom_site_label
_atom_site_type_symbol
_atom_site_fract_x
_atom_site_fract_y
_atom_site_fract_z
Ag1 Ag 0.44896(12) 0.98571(4) 0.86898(7)
N1 N 0.4527(9) 0.9873(4) 0.6811(6)
N2 N 0.4507(9) 0.9836(4) 0.0587(6)
C1 C 0.5800(11) 0.9875(5) 0.6280(7)
H1 H 0.6680 0.9893 0.6737
C2 C 0.5808(11) 0.9850(5) 0.5074(7)
H2 H 0.6696 0.9825 0.4741
C3 C 0.4544(10) 0.9862(4) 0.4348(6)
C4 C 0.3288(11) 0.9874(6) 0.4904(7)
H3 H 0.2394 0.9871 0.4464
C5 C 0.3327(11) 0.9890(6) 0.6098(7)
H4 H 0.2442 0.9915 0.6436
C6 C 0.5764(11) 0.9871(6) 0.1278(7)
H5 H 0.6636 0.9887 0.0919
C7 C 0.5821(10) 0.9884(5) 0.2478(7)
H6 H 0.6715 0.9910 0.2912
C8 C 0.4546(10) 0.9859(4) 0.3046(7)
C9 C 0.3264(10) 0.9820(5) 0.2337(6)
H7 H 0.2376 0.9798 0.2672
C10 C 0.3305(11) 0.9813(5) 0.1131(7)
H8 H 0.2424 0.9791 0.0676
Ag1_2 Ag 0.44896(12) 0.98571(4) -0.13102(7)
N2_2 N 0.4507(9) 0.9836(4) 1.0587(6)
O1 O 0.1812(9) 1.0218(3) 0.8452(6)
H9 H 0.1107 1.0231 0.8890
H10 H 0.1811 1.0470 0.8049
Ag2 Ag 0.45865(11) 0.72878(3) 0.32458(6)
N3 N 0.4545(9) 0.7342(4) 0.5147(6)
N4 N 0.4593(9) 0.7390(3) 1.1358(6)
C11 C 0.5760(11) 0.7330(5) 0.5827(8)
H11 H 0.6636 0.7295 0.5481
C12 C 0.5800(12) 0.7366(5) 0.7031(8)
H12 H 0.6697 0.7362 0.7468
C13 C 0.4572(11) 0.7407(4) 0.7589(7)
C14 C 0.3303(11) 0.7423(5) 0.6884(8)
H13 H 0.2414 0.7452 0.7214
C15 C 0.3342(12) 0.7396(5) 0.5675(8)
H14 H 0.2466 0.7419 0.5213
C16 C 0.3367(12) 0.7402(5) 1.0678(8)
H15 H 0.2488 0.7407 1.1029
C17 C 0.3334(12) 0.7406(5) 0.9465(7)
H16 H 0.2440 0.7399 0.9025
C18 C 0.4566(12) 0.7421(4) 0.8915(8)
C19 C 0.5858(12) 0.7434(5) 0.9615(7)
H17 H 0.6750 0.7453 0.9286
C20 C 0.5791(13) 0.7419(5) 1.0809(8)
H18 H 0.6670 0.7431 1.1269
Ag2_2 Ag 0.45865(11) 0.72878(3) 1.32458(6)
N4_2 N 0.4593(9) 0.7390(3) 0.1358(6)
O2 O 0.2034(9) 0.6815(3) 0.3013(6)
H19 H 0.1817 0.6537 0.2782
H20 H 0.1279 0.6987 0.2915
O3 O 0.7343(9) 0.7029(3) 0.3497(6)
H21 H 0.7568 0.6749 0.3324
H22 H 0.8045 0.7209 0.3348
Ag3 Ag 0.41148(11) 0.86774(3) 0.97179(6)
N5 N 0.4114(10) 0.8666(4) 0.7815(6)
N6 N 0.4097(10) 0.8599(4) 0.1603(6)
C21 C 0.5316(12) 0.8628(5) 0.7300(9)
H23 H 0.6191 0.8616 0.7765
C22 C 0.5363(12) 0.8603(4) 0.6097(8)
H24 H 0.6262 0.8575 0.5782
C23 C 0.4148(11) 0.8618(4) 0.5371(7)
C24 C 0.2880(12) 0.8661(6) 0.5912(7)
H25 H 0.1990 0.8679 0.5468
C25 C 0.2929(12) 0.8677(6) 0.7118(7)
H26 H 0.2046 0.8696 0.7460
C26 C 0.5333(14) 0.8623(5) 0.2289(9)
H27 H 0.6206 0.8640 0.1931
C27 C 0.5395(11) 0.8625(5) 0.3491(8)
H28 H 0.6295 0.8647 0.3919
C28 C 0.4155(11) 0.8595(4) 0.4068(8)
C29 C 0.2875(11) 0.8544(4) 0.3354(7)
H29 H 0.1994 0.8506 0.3692
C30 C 0.2895(12) 0.8549(5) 0.2138(7)
H30 H 0.2017 0.8515 0.1684
Ag3_2 Ag 0.41148(11) 0.86774(3) -0.02821(6)
N6_2 N 0.4097(10) 0.8599(4) 1.1603(6)
O4 O 0.7021(8) 0.8803(3) 0.9969(5)
H31 H 0.7803 0.8642 1.0011
H32 H 0.7185 0.9064 0.9637
Ag4 Ag 0.48223(13) 0.60975(4) 0.25322(6)
N7 N 0.4917(11) 0.6104(4) 0.4418(6)
N8 N 0.4882(10) 0.6121(4) 1.0653(6)
C31 C 0.3697(12) 0.6118(5) 0.4961(7)
H33 H 0.2817 0.6131 0.4503
C32 C 0.3650(11) 0.6116(5) 0.6180(7)
H34 H 0.2756 0.6121 0.6509
C33 C 0.4914(11) 0.6105(4) 0.6891(6)
C34 C 0.6179(12) 0.6092(5) 0.6318(7)
H35 H 0.7075 0.6090 0.6755
C35 C 0.6139(13) 0.6083(5) 0.5102(8)
H36 H 0.7016 0.6062 0.4752
C36 C 0.3645(13) 0.6131(6) 0.9966(8)
H37 H 0.2765 0.6142 1.0316
C37 C 0.3615(12) 0.6126(6) 0.8743(7)
H38 H 0.2726 0.6132 0.8295
C38 C 0.4911(12) 0.6113(4) 0.8192(7)
C39 C 0.6154(11) 0.6110(5) 0.8939(7)
H39 H 0.7060 0.6101 0.8629
C40 C 0.6087(13) 0.6120(6) 1.0122(8)
H40 H 0.6963 0.6128 1.0587
Ag4_2 Ag 0.48223(13) 0.60975(4) 1.25322(6)
N8_2 N 0.4882(10) 0.6121(4) 0.0653(6)
N9 N 0.9817(11) 0.6626(3) 0.6814(7)
H41 H 0.9913 0.6426 0.7378
H42 H 0.9817 0.6532 0.6098
O5 O 0.9474(13) 0.8169(3) 0.4479(6)
O6 O 0.8855(9) 0.8709(3) 0.5706(5)
O7 O 0.9610(8) 0.8301(3) 1.0076(5)
O8 O 0.9608(8) 0.7535(2) 1.0547(5)
C41 C 0.9185(11) 0.8296(4) 0.5453(7)
C42 C 0.9600(11) 0.7868(4) 0.9818(8)
C43 C 0.9388(10) 0.7922(4) 0.6439(7)
C44 C 0.9386(10) 0.8066(3) 0.7625(6)
H43 H 0.9281 0.8382 0.7810
C45 C 0.9545(10) 0.7726(4) 0.8518(6)
C46 C 0.9666(10) 0.7247(4) 0.8213(6)
H44 H 0.9749 0.7023 0.8807
C47 C 0.9663(10) 0.7100(3) 0.7056(7)
C48 C 0.9531(10) 0.7452(3) 0.6160(7)
H45 H 0.9543 0.7363 0.5378
N10 N 0.0744(9) 0.3949(3) 0.7351(6)
H46 H 0.0783 0.3773 0.6743
H47 H 0.0785 0.3826 0.8040
O9 O 0.0705(9) 0.5174(2) 0.3956(5)
O10 O -0.0090(9) 0.5829(3) 0.4795(5)
O11 O -0.0047(8) 0.5966(2) 0.9007(5)
O12 O 0.0618(8) 0.5363(2) 1.0174(5)
C49 C 0.0306(11) 0.5404(4) 0.4821(7)
C50 C 0.0301(12) 0.5532(4) 0.9179(7)
C51 C 0.0378(10) 0.5146(3) 0.5991(7)
C52 C 0.0291(11) 0.5422(3) 0.7012(7)
H48 H 0.0171 0.5747 0.6943
C53 C 0.0381(10) 0.5216(3) 0.8114(7)
C54 C 0.0508(9) 0.4725(3) 0.8219(6)
H49 H 0.0522 0.4589 0.8959
C55 C 0.0617(10) 0.4431(4) 0.7222(7)
C56 C 0.0546(9) 0.4656(3) 0.6125(6)
H50 H 0.0612 0.4473 0.5457
O13 O 0.7617(8) 0.9643(2) 0.8886(5)
H51 H 0.8079 0.9869 0.9232
H52 H 0.8145 0.9530 0.8376
O14 O 0.1308(8) 0.9070(3) 0.9466(6)
H53 H 0.0845 0.8834 0.9704
H54 H 0.0854 0.9173 0.8841
O15 O 0.1910(8) 0.5789(3) 0.2339(5)
H55 H 0.1587 0.5617 0.2871
H56 H 0.1574 0.5683 0.1676
O16 O 0.8408(8) 0.6130(3) 0.2815(5)
H57 H 0.8986 0.6047 0.3395
H58 H 0.8905 0.6249 0.2293
O17 O 0.9906(12) 0.7517(3) 0.2896(6)
H59 H 0.9716 0.7761 0.3288
H60 H 0.9754 0.7579 0.2169
O18 O 0.9666(10) 0.6536(3) 0.0953(5)
H61 H 0.9658 0.6828 0.0784
H62 H 0.9759 0.6380 0.0328
O19 O 0.0470(9) 0.4361(3) 0.2682(5)
H63 H 0.0686 0.4142 0.3171
H64 H 0.0534 0.4622 0.3046
loop_
_geom_bond_atom_site_label_1
_geom_bond_atom_site_label_2
_geom_bond_site_symmetry_1
_geom_bond_site_symmetry_2
Ag1 N1 1_555 1_555
N1 C1 1_555 1_555
N2 C6 1_555 1_555
C1 H1 1_555 1_555
C2 C1 1_555 1_555
H2 C2 1_555 1_555
C3 C2 1_555 1_555
C4 C3 1_555 1_555
H3 C4 1_555 1_555
C5 N1 1_555 1_555
H4 C5 1_555 1_555
C6 H5 1_555 1_555
C7 C6 1_555 1_555
H6 C7 1_555 1_555
C8 C3 1_555 1_555
C9 C8 1_555 1_555
H7 C9 1_555 1_555
C10 N2 1_555 1_555
H8 C10 1_555 1_555
O1 H9 1_555 1_555
H10 O1 1_555 1_555
Ag2 N3 1_555 1_555
N3 C11 1_555 1_555
N4 C16 1_555 1_555
C11 H11 1_555 1_555
C12 C11 1_555 1_555
H12 C12 1_555 1_555
C13 C12 1_555 1_555
C14 C13 1_555 1_555
H13 C14 1_555 1_555
C15 N3 1_555 1_555
H14 C15 1_555 1_555
C16 H15 1_555 1_555
C17 C16 1_555 1_555
H16 C17 1_555 1_555
C18 C13 1_555 1_555
C19 C18 1_555 1_555
H17 C19 1_555 1_555
C20 N4 1_555 1_555
H18 C20 1_555 1_555
O2 H19 1_555 1_555
H20 O2 1_555 1_555
O3 H21 1_555 1_555
H22 O3 1_555 1_555
Ag3 N5 1_555 1_555
N5 C21 1_555 1_555
N6 C26 1_555 1_555
C21 H23 1_555 1_555
C22 C21 1_555 1_555
H24 C22 1_555 1_555
C23 C22 1_555 1_555
C24 C23 1_555 1_555
H25 C24 1_555 1_555
C25 N5 1_555 1_555
H26 C25 1_555 1_555
C26 H27 1_555 1_555
C27 C26 1_555 1_555
H28 C27 1_555 1_555
C28 C23 1_555 1_555
C29 C28 1_555 1_555
H29 C29 1_555 1_555
C30 N6 1_555 1_555
H30 C30 1_555 1_555
O4 H31 1_555 1_555
H32 O4 1_555 1_555
Ag4 N7 1_555 1_555
N7 C31 1_555 1_555
N8 C36 1_555 1_555
C31 H33 1_555 1_555
C32 C31 1_555 1_555
H34 C32 1_555 1_555
C33 C32 1_555 1_555
C34 C33 1_555 1_555
H35 C34 1_555 1_555
C35 N7 1_555 1_555
H36 C35 1_555 1_555
C36 H37 1_555 1_555
C37 C36 1_555 1_555
H38 C37 1_555 1_555
C38 C33 1_555 1_555
C39 C38 1_555 1_555
H39 C39 1_555 1_555
C40 N8 1_555 1_555
H40 C40 1_555 1_555
N9 H41 1_555 1_555
H42 N9 1_555 1_555
O5 C41 1_555 1_555
O6 C41 1_555 1_555
O7 C42 1_555 1_555
O8 C42 1_555 1_555
C41 C43 1_555 1_555
C42 C45 1_555 1_555
C43 C44 1_555 1_555
C44 H43 1_555 1_555
C45 C44 1_555 1_555
C46 C45 1_555 1_555
H44 C46 1_555 1_555
C47 N9 1_555 1_555
C48 C43 1_555 1_555
H45 C48 1_555 1_555
N10 H46 1_555 1_555
H47 N10 1_555 1_555
O9 C49 1_555 1_555
O10 C49 1_555 1_555
O11 C50 1_555 1_555
O12 C50 1_555 1_555
C49 C51 1_555 1_555
C50 C53 1_555 1_555
C51 C52 1_555 1_555
C52 H48 1_555 1_555
C53 C52 1_555 1_555
C54 C53 1_555 1_555
H49 C54 1_555 1_555
C55 N10 1_555 1_555
C56 C51 1_555 1_555
H50 C56 1_555 1_555
O13 H51 1_555 1_555
H52 O13 1_555 1_555
O14 H53 1_555 1_555
H54 O14 1_555 1_555
O15 H55 1_555 1_555
H56 O15 1_555 1_555
O16 H57 1_555 1_555
H58 O16 1_555 1_555
O17 H59 1_555 1_555
H60 O17 1_555 1_555
O18 H61 1_555 1_555
H62 O18 1_555 1_555
O19 H63 1_555 1_555
H64 O19 1_555 1_555
Ag1_2 N2 1_555 1_555
N2_2 Ag1 1_555 1_555
Ag2_2 N4 1_555 1_555
N4_2 Ag2 1_555 1_555
Ag3_2 N6 1_555 1_555
N6_2 Ag3 1_555 1_555
Ag4_2 N8 1_555 1_555
N8_2 Ag4 1_555 1_555
C4 C5 1_555 1_555
C7 C8 1_555 1_555
C9 C10 1_555 1_555
C14 C15 1_555 1_555
C17 C18 1_555 1_555
C19 C20 1_555 1_555
C24 C25 1_555 1_555
C27 C28 1_555 1_555
C29 C30 1_555 1_555
C34 C35 1_555 1_555
C37 C38 1_555 1_555
C39 C40 1_555 1_555
C46 C47 1_555 1_555
C47 C48 1_555 1_555
C54 C55 1_555 1_555
C55 C56 1_555 1_555

#END
