
#######################################################################
#
#                 Cambridge Crystallographic Data Centre
#                                CCDC 
#
#######################################################################
#
# If this CIF has been generated from an entry in the Cambridge 
# Structural Database, then it will include bibliographic, chemical, 
# crystal, experimental, refinement or atomic coordinate data resulting 
# from the CCDC's data processing and validation procedures.
#
#######################################################################

data_WOGKUZ
_symmetry_cell_setting           monoclinic
_symmetry_space_group_name_H-M   'P 21'
_symmetry_Int_Tables_number      4
_space_group_name_Hall           'P 2yb'
loop_
_symmetry_equiv_pos_site_id
_symmetry_equiv_pos_as_xyz
1 x,y,z
2 -x,1/2+y,-z
_cell_length_a                   7.0347(2)
_cell_length_b                   7.4802(2)
_cell_length_c                   7.3586(3)
_cell_angle_alpha                90
_cell_angle_beta                 117.9650(10)
_cell_angle_gamma                90
_cell_volume                     342.003
loop_
_atom_site_label
_atom_site_type_symbol
_atom_site_fract_x
_atom_site_fract_y
_atom_site_fract_z
C1 C 0.0018(2) 0.2816(2) 0.3810(3)
H1 H -0.1371 0.2586 0.2780
C2 C 0.3445(2) 0.3194(2) 0.5429(2)
C3 C 0.2691(2) 0.3621(2) 0.6795(2)
C4 C 0.5624(2) 0.3126(2) 0.5582(2)
C5 C 0.3754(2) 0.4182(2) 0.8992(2)
N1 N 0.1768(2) 0.2658(2) 0.3582(2)
N2 N 0.0505(2) 0.3350(2) 0.5718(2)
O1 O -0.0142(2) 0.09900(18) -0.0597(2)
O2 O 0.57796(19) 0.22724(18) 0.41953(19)
O3 O 0.71991(17) 0.39052(16) 0.70491(18)
O4 O 0.5416(2) 0.51092(19) 0.96647(18)
O5 O 0.28338(18) 0.36929(17) 1.00333(18)
Mg1 Mg 0.29466(8) 0.13725(7) 0.16305(8)
H2 H -0.102(5) 0.040(6) -0.072(5)
H3 H -0.089(5) 0.181(4) -0.133(4)
H4 H -0.042(4) 0.355(4) 0.615(4)
O3A O 0.28009(17) -0.10948(16) 0.29509(18)
O4A O 0.4584(2) 0.01092(19) 0.03353(18)
O5_2 O 0.28338(18) 0.36929(17) 0.00333(18)
Mg1A Mg 0.70534(8) 0.63725(7) 0.83695(8)
Mg1_2 Mg 0.29466(8) 0.13725(7) 1.16305(8)
loop_
_geom_bond_atom_site_label_1
_geom_bond_atom_site_label_2
_geom_bond_site_symmetry_1
_geom_bond_site_symmetry_2
C1 H1 1_555 1_555
C2 C3 1_555 1_555
C3 C5 1_555 1_555
C4 C2 1_555 1_555
C5 O4 1_555 1_555
N1 C1 1_555 1_555
N2 C1 1_555 1_555
O1 Mg1 1_555 1_555
O2 C4 1_555 1_555
O3 C4 1_555 1_555
O4 Mg1A 1_555 1_555
O5 C5 1_555 1_555
Mg1 N1 1_555 1_555
H2 O1 1_555 1_555
H3 O1 1_555 1_555
H4 N2 1_555 1_555
O3A Mg1 1_555 1_555
O4A Mg1 1_555 1_555
O5_2 Mg1 1_555 1_555
Mg1A O3 1_555 1_555
Mg1_2 O5 1_555 1_555
C2 N1 1_555 1_555
C3 N2 1_555 1_555
O2 Mg1 1_555 1_555

#END
