
#######################################################################
#
#                 Cambridge Crystallographic Data Centre
#                                CCDC 
#
#######################################################################
#
# If this CIF has been generated from an entry in the Cambridge 
# Structural Database, then it will include bibliographic, chemical, 
# crystal, experimental, refinement or atomic coordinate data resulting 
# from the CCDC's data processing and validation procedures.
#
#######################################################################

data_WOGRUF
_symmetry_cell_setting           orthorhombic
_symmetry_space_group_name_H-M   'A m a 2'
_symmetry_Int_Tables_number      40
_space_group_name_Hall           'A 2 -2a'
loop_
_symmetry_equiv_pos_site_id
_symmetry_equiv_pos_as_xyz
1 x,y,z
2 -x,-y,z
3 1/2+x,-y,z
4 1/2-x,y,z
5 x,1/2+y,1/2+z
6 -x,1/2-y,1/2+z
7 1/2+x,1/2-y,1/2+z
8 1/2-x,1/2+y,1/2+z
_cell_length_a                   7.4129(3)
_cell_length_b                   17.0895(6)
_cell_length_c                   5.5991(2)
_cell_angle_alpha                90
_cell_angle_beta                 90
_cell_angle_gamma                90
_cell_volume                     709.309
loop_
_atom_site_label
_atom_site_type_symbol
_atom_site_fract_x
_atom_site_fract_y
_atom_site_fract_z
Co1 Co 0.2500 0.13907(2) 0.0000
N1 N 0.0401(3) 0.18649(12) 0.2059(4)
N2 N -0.2500 0.24941(17) 0.3066(6)
N3 N 0.2500 0.03291(19) 0.1966(7)
N4 N 0.5417(3) -0.10036(12) 0.7748(4)
C1 C -0.0980(3) 0.21415(14) 0.2481(5)
C2 C 0.2500 -0.0093(3) 0.3637(9)
C3 C 0.2500 -0.0634(2) 0.5663(6)
C4 C 0.0898(3) -0.08364(14) 0.6797(5)
N1C N 0.4599(3) 0.18649(12) 0.2059(4)
N4A N 0.4583(3) 0.10036(12) -0.2252(4)
N2E N 0.2500 0.25059(17) -0.1934(6)
C4C C 0.4102(3) -0.08364(14) 0.6797(5)
N4B N 0.0417(3) 0.10036(12) -0.2252(4)
N4C N -0.0417(3) -0.10036(12) 0.7748(4)
Co1A Co 0.7500 -0.13907(2) 1.0000
Co1A_2 Co -0.2500 -0.13907(2) 1.0000
Co1E Co -0.2500 0.36093(2) 0.5000
C1C C -0.4020(3) 0.21415(14) 0.2481(5)
N1C_2 N -0.5401(3) 0.18649(12) 0.2059(4)
Co1_2 Co -0.7500 0.13907(2) 0.0000
loop_
_geom_bond_atom_site_label_1
_geom_bond_atom_site_label_2
_geom_bond_site_symmetry_1
_geom_bond_site_symmetry_2
Co1 N1 1_555 1_555
N1 C1 1_555 1_555
N2 C1 1_555 1_555
N3 Co1 1_555 1_555
N4 C4C 1_555 1_555
C2 N3 1_555 1_555
C3 C2 1_555 1_555
C4 C3 1_555 1_555
N1C Co1 1_555 1_555
N4A Co1 1_555 1_555
N2E Co1 1_555 1_555
C4C C3 1_555 1_555
N4B Co1 1_555 1_555
N4C C4 1_555 1_555
Co1A N4 1_555 1_555
Co1A_2 N4C 1_555 1_555
Co1E N2 1_555 1_555
C1C N2 1_555 1_555
N1C_2 C1C 1_555 1_555
Co1_2 N1C_2 1_555 1_555

#END
