
#######################################################################
#
#                 Cambridge Crystallographic Data Centre
#                                CCDC 
#
#######################################################################
#
# If this CIF has been generated from an entry in the Cambridge 
# Structural Database, then it will include bibliographic, chemical, 
# crystal, experimental, refinement or atomic coordinate data resulting 
# from the CCDC's data processing and validation procedures.
#
#######################################################################

data_WOGSER
_symmetry_cell_setting           monoclinic
_symmetry_space_group_name_H-M   'P 21/n'
_symmetry_Int_Tables_number      14
_space_group_name_Hall           '-P 2yn'
loop_
_symmetry_equiv_pos_site_id
_symmetry_equiv_pos_as_xyz
1 x,y,z
2 1/2-x,1/2+y,1/2-z
3 -x,-y,-z
4 1/2+x,1/2-y,1/2+z
_cell_length_a                   11.407(3)
_cell_length_b                   16.575(3)
_cell_length_c                   21.675(6)
_cell_angle_alpha                90
_cell_angle_beta                 101.758(10)
_cell_angle_gamma                90
_cell_volume                     4012.12
loop_
_atom_site_label
_atom_site_type_symbol
_atom_site_fract_x
_atom_site_fract_y
_atom_site_fract_z
Ni1 Ni 0.76937(4) 0.21301(2) 0.898586(19)
C1 C 0.5251(3) 0.0013(2) 0.84876(18)
C2 C 0.5463(4) -0.0627(3) 0.8114(2)
H1 H 0.6008 -0.0565 0.7852
C3 C 0.4876(5) -0.1363(3) 0.8124(3)
H2 H 0.5032 -0.1786 0.7871
C4 C 0.4075(4) -0.1459(3) 0.8502(2)
H3 H 0.3674 -0.1947 0.8505
C5 C 0.3859(4) -0.0837(3) 0.8880(2)
H4 H 0.3307 -0.0902 0.9138
C6 C 0.4457(4) -0.0118(2) 0.8878(2)
C7 C 0.3299(4) 0.0644(3) 0.9479(2)
H5 H 0.3091 0.0169 0.9696
H6 H 0.2668 0.0734 0.9112
C8 C 0.3383(4) 0.1346(3) 0.9901(2)
H7 H 0.2583 0.1526 0.9920
H8 H 0.3779 0.1185 1.0322
C9 C 0.4113(3) 0.2674(2) 1.00719(17)
C10 C 0.3125(4) 0.3033(3) 1.0236(2)
H9 H 0.2367 0.2809 1.0106
C11 C 0.3278(5) 0.3727(4) 1.0595(3)
H10 H 0.2621 0.3977 1.0706
C12 C 0.4397(6) 0.4046(4) 1.0786(3)
H11 H 0.4500 0.4506 1.1037
C13 C 0.5377(5) 0.3695(3) 1.0612(2)
H12 H 0.6131 0.3923 1.0742
C14 C 0.5245(3) 0.3001(2) 1.02442(17)
C15 C 0.6303(3) 0.2610(2) 1.00410(16)
H13 H 0.7025 0.2758 1.0340
H14 H 0.6216 0.2029 1.0062
C16 C 0.6834(4) 0.3678(2) 0.93574(19)
H15 H 0.6499 0.4007 0.9649
H16 H 0.6541 0.3882 0.8935
C17 C 0.8183(4) 0.3724(2) 0.95182(19)
H17 H 0.8440 0.4281 0.9509
H18 H 0.8479 0.3512 0.9938
C18 C 0.8686(4) 0.3707(2) 0.84692(18)
H19 H 0.7875 0.3871 0.8282
H20 H 0.8962 0.3354 0.8171
C19 C 0.9472(4) 0.4448(2) 0.85675(18)
C20 C 0.8995(5) 0.5222(2) 0.8504(2)
H21 H 0.8169 0.5296 0.8406
C21 C 0.9760(6) 0.5892(3) 0.8586(3)
H22 H 0.9442 0.6410 0.8549
C22 C 1.0953(6) 0.5787(3) 0.8720(3)
H23 H 1.1452 0.6236 0.8768
C23 C 1.1447(5) 0.5027(3) 0.8786(2)
H24 H 1.2274 0.4961 0.8883
C24 C 1.0705(4) 0.4364(2) 0.8707(2)
C25 C 1.2162(4) 0.3402(3) 0.8544(3)
H25 H 1.2857 0.3572 0.8853
H26 H 1.2160 0.3694 0.8156
C26 C 1.2233(4) 0.2533(3) 0.8431(3)
H27 H 1.2944 0.2420 0.8265
H28 H 1.2305 0.2247 0.8827
C27 C 1.1211(4) 0.1467(2) 0.78328(19)
C28 C 1.2200(4) 0.1073(3) 0.7688(2)
H29 H 1.2932 0.1336 0.7733
C29 C 1.2076(5) 0.0288(3) 0.7478(2)
H30 H 1.2738 0.0016 0.7393
C30 C 1.0996(5) -0.0101(3) 0.7394(2)
H31 H 1.0920 -0.0628 0.7243
C31 C 1.0018(4) 0.0298(3) 0.7534(2)
H32 H 0.9281 0.0038 0.7470
C32 C 1.0114(4) 0.1088(2) 0.77716(18)
C33 C 0.9067(3) 0.1515(2) 0.79519(17)
H33 H 0.9145 0.2089 0.7883
H34 H 0.8338 0.1334 0.7674
C34 C 0.8639(4) 0.0525(3) 0.8715(3)
H35 H 0.8305 0.0284 0.8310
H36 H 0.9374 0.0239 0.8890
C35 C 0.7792(4) 0.0404(3) 0.9134(3)
H37 H 0.7457 -0.0135 0.9075
H38 H 0.8211 0.0453 0.9569
C36 C 0.5845(4) 0.0823(2) 0.84676(19)
H39 H 0.6153 0.0855 0.8083
H40 H 0.5243 0.1240 0.8449
C37 C 0.5795(3) 0.2704(2) 0.78663(15)
C38 C 0.5548(3) 0.2906(2) 0.71679(15)
C39 C 0.4375(3) 0.2997(2) 0.68456(16)
H41 H 0.3755 0.2989 0.7066
C40 C 0.4119(3) 0.3100(2) 0.61992(16)
H42 H 0.3326 0.3154 0.5990
C41 C 0.5016(3) 0.3125(2) 0.58600(15)
C42 C 0.4709(3) 0.3139(2) 0.51426(16)
C43 C 0.6199(3) 0.3074(2) 0.61860(16)
H43 H 0.6820 0.3117 0.5969
C44 C 0.6456(3) 0.2961(2) 0.68337(16)
H44 H 0.7249 0.2921 0.7046
O1 O 0.4368(3) 0.05093(19) 0.92886(16)
O2 O 0.4008(3) 0.19793(19) 0.97062(16)
O3 O 1.1119(3) 0.35817(18) 0.87622(17)
O4 O 1.1251(3) 0.22632(19) 0.80180(18)
O5 O 0.4986(2) 0.2814(2) 0.81597(12)
O6 O 0.6840(2) 0.24327(14) 0.80900(10)
O7 O 0.3600(2) 0.31285(15) 0.49024(10)
O8 O 0.5516(2) 0.3137(2) 0.48444(13)
N1 N 0.6832(3) 0.09923(18) 0.90061(15)
H45 H 0.653(3) 0.100(2) 0.9325(13)
N2 N 0.8942(3) 0.13883(19) 0.86124(13)
H46 H 0.954(2) 0.153(2) 0.8863(15)
N3 N 0.8662(3) 0.32447(18) 0.90502(14)
H47 H 0.9388(19) 0.317(2) 0.9209(17)
N4 N 0.6460(2) 0.28272(18) 0.93980(13)
H48 H 0.582(2) 0.275(2) 0.9139(15)
Ni1C Ni 0.26937(4) 0.28699(2) 0.398586(19)
O7C O 0.8600(2) 0.18715(15) 0.99024(10)
loop_
_geom_bond_atom_site_label_1
_geom_bond_atom_site_label_2
_geom_bond_site_symmetry_1
_geom_bond_site_symmetry_2
Ni1 O6 1_555 1_555
C1 C2 1_555 1_555
C2 H1 1_555 1_555
C3 C2 1_555 1_555
H2 C3 1_555 1_555
C4 C3 1_555 1_555
H3 C4 1_555 1_555
C5 C4 1_555 1_555
H4 C5 1_555 1_555
C6 C1 1_555 1_555
C7 H5 1_555 1_555
H6 C7 1_555 1_555
C8 C7 1_555 1_555
H7 C8 1_555 1_555
H8 C8 1_555 1_555
C9 C10 1_555 1_555
C10 H9 1_555 1_555
C11 C10 1_555 1_555
H10 C11 1_555 1_555
C12 C11 1_555 1_555
H11 C12 1_555 1_555
C13 C12 1_555 1_555
H12 C13 1_555 1_555
C14 C9 1_555 1_555
C15 C14 1_555 1_555
H13 C15 1_555 1_555
H14 C15 1_555 1_555
C16 H15 1_555 1_555
H16 C16 1_555 1_555
C17 C16 1_555 1_555
H17 C17 1_555 1_555
H18 C17 1_555 1_555
C18 H19 1_555 1_555
H20 C18 1_555 1_555
C19 C18 1_555 1_555
C20 C19 1_555 1_555
H21 C20 1_555 1_555
C21 C20 1_555 1_555
H22 C21 1_555 1_555
C22 C21 1_555 1_555
H23 C22 1_555 1_555
C23 C22 1_555 1_555
H24 C23 1_555 1_555
C24 C19 1_555 1_555
C25 H25 1_555 1_555
H26 C25 1_555 1_555
C26 C25 1_555 1_555
H27 C26 1_555 1_555
H28 C26 1_555 1_555
C27 C28 1_555 1_555
C28 H29 1_555 1_555
C29 C28 1_555 1_555
H30 C29 1_555 1_555
C30 C29 1_555 1_555
H31 C30 1_555 1_555
C31 C30 1_555 1_555
H32 C31 1_555 1_555
C32 C27 1_555 1_555
C33 C32 1_555 1_555
H33 C33 1_555 1_555
H34 C33 1_555 1_555
C34 H35 1_555 1_555
H36 C34 1_555 1_555
C35 C34 1_555 1_555
H37 C35 1_555 1_555
H38 C35 1_555 1_555
C36 C1 1_555 1_555
H39 C36 1_555 1_555
H40 C36 1_555 1_555
C37 C38 1_555 1_555
C38 C39 1_555 1_555
C39 H41 1_555 1_555
C40 C39 1_555 1_555
H42 C40 1_555 1_555
C41 C40 1_555 1_555
C42 C41 1_555 1_555
C43 C41 1_555 1_555
H43 C43 1_555 1_555
C44 C38 1_555 1_555
H44 C44 1_555 1_555
O1 C6 1_555 1_555
O2 C8 1_555 1_555
O3 C24 1_555 1_555
O4 C26 1_555 1_555
O5 C37 1_555 1_555
O6 C37 1_555 1_555
O7 C42 1_555 1_555
O8 C42 1_555 1_555
N1 Ni1 1_555 1_555
H45 N1 1_555 1_555
N2 Ni1 1_555 1_555
H46 N2 1_555 1_555
N3 Ni1 1_555 1_555
H47 N3 1_555 1_555
N4 Ni1 1_555 1_555
H48 N4 1_555 1_555
Ni1C O7 1_555 1_555
O7C Ni1 1_555 1_555
C5 C6 1_555 1_555
C7 O1 1_555 1_555
C9 O2 1_555 1_555
C13 C14 1_555 1_555
C15 N4 1_555 1_555
C16 N4 1_555 1_555
C17 N3 1_555 1_555
C18 N3 1_555 1_555
C23 C24 1_555 1_555
C25 O3 1_555 1_555
C27 O4 1_555 1_555
C31 C32 1_555 1_555
C33 N2 1_555 1_555
C34 N2 1_555 1_555
C35 N1 1_555 1_555
C36 N1 1_555 1_555
C43 C44 1_555 1_555

#END
