
#######################################################################
#
#                 Cambridge Crystallographic Data Centre
#                                CCDC 
#
#######################################################################
#
# If this CIF has been generated from an entry in the Cambridge 
# Structural Database, then it will include bibliographic, chemical, 
# crystal, experimental, refinement or atomic coordinate data resulting 
# from the CCDC's data processing and validation procedures.
#
#######################################################################

data_WOGTOD
_symmetry_cell_setting           monoclinic
_symmetry_space_group_name_H-M   'P 21/n'
_symmetry_Int_Tables_number      14
_space_group_name_Hall           '-P 2yn'
loop_
_symmetry_equiv_pos_site_id
_symmetry_equiv_pos_as_xyz
1 x,y,z
2 1/2-x,1/2+y,1/2-z
3 -x,-y,-z
4 1/2+x,1/2-y,1/2+z
_cell_length_a                   14.3358(5)
_cell_length_b                   10.6313(4)
_cell_length_c                   15.8957(8)
_cell_angle_alpha                90
_cell_angle_beta                 116.6170(10)
_cell_angle_gamma                90
_cell_volume                     2165.89
loop_
_atom_site_label
_atom_site_type_symbol
_atom_site_fract_x
_atom_site_fract_y
_atom_site_fract_z
Ni1 Ni 0.45192(10) 0.24989(12) 0.19891(9)
O1 O 0.4122(8) 0.1069(10) 0.0984(7)
O2 O 0.6015(9) 0.2388(12) 0.2139(10)
O3 O 0.4704(7) 0.1045(8) 0.2836(5)
N1 N 0.4187(7) 0.3955(9) 0.1018(6)
N2 N 0.4972(7) 0.3652(9) 0.3124(6)
C1 C 0.5484(8) 0.3318(10) 0.3983(7)
N3 N 0.6240(8) -0.0353(10) 0.5033(7)
C2 C 0.4791(11) 0.5010(11) 0.2943(9)
C3 C 0.4513(9) 0.5152(11) 0.1246(8)
C4 C 0.5326(8) 0.0978(10) 0.3716(7)
C5 C 0.5608(8) -0.0247(11) 0.4116(8)
C6 C 0.5760(8) 0.2028(10) 0.4325(7)
C7 C 0.4233(11) 0.6059(13) 0.0564(10)
H1 H 0.4475 0.6877 0.0735
C8 C 0.5196(11) 0.5468(12) 0.2259(9)
C9 C 0.6457(8) 0.1825(10) 0.5282(7)
C10 C 0.5237(12) -0.1373(12) 0.3521(9)
H2 H 0.5676 -0.2075 0.3837
H3 H 0.5260 -0.1227 0.2935
H4 H 0.4532 -0.1552 0.3403
C11 C 0.6675(9) 0.0624(11) 0.5624(8)
H5 H 0.7118 0.0481 0.6257
C12 C 0.3580(10) 0.3684(13) 0.0107(8)
H6 H 0.3353 0.2860 -0.0053
C13 C 0.3603(12) 0.5791(15) -0.0369(10)
H7 H 0.3405 0.6416 -0.0826
C14 C 0.3277(11) 0.4568(15) -0.0604(9)
H8 H 0.2862 0.4341 -0.1227
H9 H 0.640(10) -0.104(14) 0.527(9)
H10 H 0.572(10) 0.396(13) 0.443(9)
H11 H 0.527(12) 0.637(17) 0.231(11)
H12 H 0.431(15) 0.092(19) 0.062(15)
H13 H 0.411(13) 0.036(19) 0.118(12)
C15 C 0.7013(9) 0.2910(12) 0.5936(8)
H14 H 0.7226 0.3523 0.5604
H15 H 0.6539 0.3320 0.6134
O4 O 0.7911(7) 0.2470(8) 0.6745(6)
H16 H 0.508(10) 0.547(13) 0.350(10)
H17 H 0.405(12) 0.515(13) 0.271(10)
H18 H 0.792(15) 0.262(16) 0.720(14)
H19 H 0.587(12) 0.511(15) 0.246(11)
H20 H 0.623(16) 0.18(2) 0.207(14)
H21 H 0.651(17) 0.27(2) 0.247(15)
Ni1C Ni 0.95192(10) 0.25011(12) 0.69891(9)
O4C O 0.2911(7) 0.2530(8) 0.1745(6)
Cl1 Cl 0.2647(3) 0.3416(3) 0.3802(2)
O5 O 0.2662(12) 0.4333(11) 0.3163(10)
O6 O 0.2651(16) 0.2204(13) 0.3416(12)
O7 O 0.1730(14) 0.3598(14) 0.3908(13)
O8 O 0.3544(18) 0.351(3) 0.4643(12)
Cl2 Cl 0.6621(3) 0.9124(4) 0.1524(3)
O9 O 0.7439(8) 0.8699(13) 0.1326(8)
O10 O 0.5654(9) 0.9013(15) 0.0748(8)
O11 O 0.6625(19) 0.852(7) 0.2241(16)
O12 O 0.685(2) 1.033(3) 0.179(4)
loop_
_geom_bond_atom_site_label_1
_geom_bond_atom_site_label_2
_geom_bond_site_symmetry_1
_geom_bond_site_symmetry_2
Ni1 O1 1_555 1_555
O1 H12 1_555 1_555
O2 Ni1 1_555 1_555
O3 Ni1 1_555 1_555
N1 Ni1 1_555 1_555
N2 Ni1 1_555 1_555
C1 N2 1_555 1_555
N3 C5 1_555 1_555
C2 N2 1_555 1_555
C3 N1 1_555 1_555
C4 O3 1_555 1_555
C5 C4 1_555 1_555
C6 C1 1_555 1_555
C7 C3 1_555 1_555
H1 C7 1_555 1_555
C8 C2 1_555 1_555
C9 C6 1_555 1_555
C10 C5 1_555 1_555
H2 C10 1_555 1_555
H3 C10 1_555 1_555
H4 C10 1_555 1_555
C11 N3 1_555 1_555
H5 C11 1_555 1_555
C12 N1 1_555 1_555
H6 C12 1_555 1_555
C13 C7 1_555 1_555
H7 C13 1_555 1_555
C14 C12 1_555 1_555
H8 C14 1_555 1_555
H9 N3 1_555 1_555
H10 C1 1_555 1_555
H11 C8 1_555 1_555
H13 O1 1_555 1_555
C15 C9 1_555 1_555
H14 C15 1_555 1_555
H15 C15 1_555 1_555
O4 C15 1_555 1_555
H16 C2 1_555 1_555
H17 C2 1_555 1_555
H18 O4 1_555 1_555
H19 C8 1_555 1_555
H20 O2 1_555 1_555
H21 O2 1_555 1_555
Cl1 O5 1_555 1_555
O6 Cl1 1_555 1_555
O7 Cl1 1_555 1_555
O8 Cl1 1_555 1_555
Cl2 O9 1_555 1_555
O10 Cl2 1_555 1_555
O11 Cl2 1_555 1_555
O12 Cl2 1_555 1_555
Ni1C O4 1_555 1_555
O4C Ni1 1_555 1_555
C3 C8 1_555 1_555
C4 C6 1_555 1_555
C9 C11 1_555 1_555
C13 C14 1_555 1_555

#END
