
#######################################################################
#
#                 Cambridge Crystallographic Data Centre
#                                CCDC 
#
#######################################################################
#
# If this CIF has been generated from an entry in the Cambridge 
# Structural Database, then it will include bibliographic, chemical, 
# crystal, experimental, refinement or atomic coordinate data resulting 
# from the CCDC's data processing and validation procedures.
#
#######################################################################

data_WOHDED
_symmetry_cell_setting           cubic
_symmetry_space_group_name_H-M   'P a -3'
_symmetry_Int_Tables_number      205
_space_group_name_Hall           '-P 2ac 2ab 3'
loop_
_symmetry_equiv_pos_site_id
_symmetry_equiv_pos_as_xyz
1 x,y,z
2 z,x,y
3 y,z,x
4 1/2-x,-y,1/2+z
5 -x,1/2+y,1/2-z
6 1/2+x,1/2-y,-z
7 1/2+z,1/2-x,-y
8 1/2-z,-x,1/2+y
9 -z,1/2+x,1/2-y
10 -y,1/2+z,1/2-x
11 1/2+y,1/2-z,-x
12 1/2-y,-z,1/2+x
13 -x,-y,-z
14 -z,-x,-y
15 -y,-z,-x
16 1/2+x,y,1/2-z
17 x,1/2-y,1/2+z
18 1/2-x,1/2+y,z
19 1/2-z,1/2+x,y
20 1/2+z,x,1/2-y
21 z,1/2-x,1/2+y
22 y,1/2-z,1/2+x
23 1/2-y,1/2+z,x
24 1/2+y,z,1/2-x
_cell_length_a                   15.0416(2)
_cell_length_b                   15.0416(2)
_cell_length_c                   15.0416(2)
_cell_angle_alpha                90
_cell_angle_beta                 90
_cell_angle_gamma                90
_cell_volume                     3403.16
loop_
_atom_site_label
_atom_site_type_symbol
_atom_site_fract_x
_atom_site_fract_y
_atom_site_fract_z
O2 O 0.1338(6) 0.1421(7) 0.6022(5)
H1 H 0.0899 0.1092 0.6156
H2 H 0.1442 0.1548 0.5482
Zn1 Zn 0.13649(2) 0.13649(2) 1.13649(2)
Zn2 Zn 0.27352(3) 0.22648(3) 0.77352(3)
Zn3 Zn 0.0000 0.0000 1.0000
N2 N 0.2019(2) 0.1659(2) 0.8679(2)
N3 N 0.1592(2) 0.1374(2) 1.00524(19)
N4 N 0.10225(19) 0.0911(2) 0.94849(19)
N5 N 0.0947(3) 0.0780(3) 0.7913(2)
H3 H 0.0502 0.0421 0.7940
H4 H 0.1162 0.0931 0.7405
C1 C 0.2155(3) 0.1796(3) 0.9555(3)
C2 C 0.1308(2) 0.1105(3) 0.8667(2)
O3 O 0.1772(10) 0.1979(13) 1.2375(6)
H5 H 0.269(3) 0.217(3) 0.976(3)
Zn1L Zn -0.13649(2) -0.13649(2) 0.86351(2)
Zn1P Zn 0.13649(2) 0.36351(2) 0.63649(2)
Zn2A Zn -0.22648(3) 0.27352(3) 1.22648(3)
Zn2P Zn 0.27352(3) 0.27352(3) 1.27352(3)
Zn2B Zn 0.22648(3) -0.22648(3) 1.27352(3)
Zn2R Zn -0.27352(3) -0.22648(3) 1.22648(3)
Zn2Q Zn 0.22648(3) -0.27352(3) 0.77352(3)
Zn2O Zn -0.22648(3) 0.22648(3) 0.72648(3)
N2A N -0.1321(2) 0.2019(2) 1.1659(2)
N2B N 0.1659(2) -0.1321(2) 1.2019(2)
N2L N -0.2019(2) -0.1659(2) 1.1321(2)
N2M N 0.1321(2) -0.2019(2) 0.8341(2)
N2N N -0.1659(2) 0.1321(2) 0.7981(2)
N2F N 0.3679(2) 0.2981(2) 0.8341(2)
N2K N 0.3341(2) 0.1321(2) 0.7019(2)
N2E N -0.2981(2) 0.3341(2) 1.1321(2)
N2I N -0.1659(2) 0.3679(2) 1.2981(2)
N3A N 0.00524(19) 0.1592(2) 1.1374(2)
N3B N 0.1374(2) 0.00524(19) 1.1592(2)
N3L N -0.1592(2) -0.1374(2) 0.99476(19)
N3M N -0.00524(19) -0.1592(2) 0.8626(2)
N3N N -0.1374(2) -0.00524(19) 0.8408(2)
N4A N -0.05151(19) 0.10225(19) 1.0911(2)
N4B N 0.0911(2) -0.05151(19) 1.10225(19)
N4L N -0.10225(19) -0.0911(2) 1.05151(19)
N4M N 0.05151(19) -0.10225(19) 0.9089(2)
N4N N -0.0911(2) 0.05151(19) 0.89775(19)
N5A N -0.2087(2) 0.0947(3) 1.0780(3)
N5B N 0.0780(3) -0.2087(2) 1.0947(3)
N5L N -0.0947(3) -0.0780(3) 1.2087(2)
N5M N 0.2087(2) -0.0947(3) 0.9220(3)
N5N N -0.0780(3) 0.2087(2) 0.9053(3)
H3A H -0.2060 0.0502 1.0421
H3B H 0.0421 -0.2060 1.0502
H3L H -0.0502 -0.0421 1.2060
H3M H 0.2060 -0.0502 0.9579
H3N H -0.0421 0.2060 0.9498
H4A H -0.2595 0.1162 1.0931
H4B H 0.0931 -0.2595 1.1162
H4L H -0.1162 -0.0931 1.2595
H4M H 0.2595 -0.1162 0.9069
H4N H -0.0931 0.2595 0.8838
C1A C -0.0445(3) 0.2155(3) 1.1796(3)
C1B C 0.1796(3) -0.0445(3) 1.2155(3)
C1L C -0.2155(3) -0.1796(3) 1.0445(3)
C1M C 0.0445(3) -0.2155(3) 0.8204(3)
C1N C -0.1796(3) 0.0445(3) 0.7845(3)
C2A C -0.1333(2) 0.1308(2) 1.1105(3)
C2B C 0.1105(3) -0.1333(2) 1.1308(2)
C2L C -0.1308(2) -0.1105(3) 1.1333(2)
C2M C 0.1333(2) -0.1308(2) 0.8895(3)
C2N C -0.1105(3) 0.1333(2) 0.8692(2)
O3A O 0.2375(6) 0.1772(10) 1.1979(13)
O3B O 0.1979(13) 0.2375(6) 1.1772(10)
O3P O 0.1772(10) 0.3021(13) 0.7375(6)
O3T O 0.2375(6) 0.3228(10) 0.6979(13)
O3U O 0.1979(13) 0.2625(6) 0.6772(10)
O3L O -0.1772(10) -0.1979(13) 0.7625(6)
O3M O -0.2375(6) -0.1772(10) 0.8021(13)
O3N O -0.1979(13) -0.2375(6) 0.8228(10)
O3O O -0.3228(10) 0.1979(13) 1.2625(6)
O3S O -0.2625(6) 0.1772(10) 1.3021(13)
O3W O -0.3021(13) 0.2375(6) 1.3228(10)
H5A H -0.024(3) 0.269(3) 1.217(3)
H5B H 0.217(3) -0.024(3) 1.269(3)
H5L H -0.269(3) -0.217(3) 1.024(3)
H5M H 0.024(3) -0.269(3) 0.783(3)
H5N H -0.217(3) 0.024(3) 0.731(3)
O1 O 0.9725(7) 0.0257(8) 0.6344(5)
N1 N 0.9332(7) 0.0668(7) 0.5668(7)
O1I O 0.9743(8) 0.1344(5) 0.5275(7)
O1G O 0.8656(5) 0.0275(7) 0.5257(8)
loop_
_geom_bond_atom_site_label_1
_geom_bond_atom_site_label_2
_geom_bond_site_symmetry_1
_geom_bond_site_symmetry_2
O1 N1 1_555 1_555
N1 O1I 1_555 1_555
O2 H1 1_555 1_555
H2 O2 1_555 1_555
Zn1 N3 1_555 1_555
Zn2 N2 1_555 1_555
Zn3 N4 1_555 1_555
N2 C1 1_555 1_555
N3 N4 1_555 1_555
N4 C2 1_555 1_555
N5 H3 1_555 1_555
H4 N5 1_555 1_555
C1 N3 1_555 1_555
C2 N2 1_555 1_555
O3 Zn1 1_555 1_555
H5 C1 1_555 1_555
O1G N1 1_555 1_555
Zn1L N3L 1_555 1_555
Zn1P O3P 1_555 1_555
Zn2A N2A 1_555 1_555
Zn2P O3 1_555 1_555
Zn2B N2B 1_555 1_555
Zn2R N2L 1_555 1_555
Zn2Q N2M 1_555 1_555
Zn2O N2N 1_555 1_555
N2A C1A 1_555 1_555
N2B C1B 1_555 1_555
N2L C1L 1_555 1_555
N2M C1M 1_555 1_555
N2N C1N 1_555 1_555
N2F Zn2 1_555 1_555
N2K Zn2 1_555 1_555
N2E Zn2A 1_555 1_555
N2I Zn2A 1_555 1_555
N3A Zn1 1_555 1_555
N3B Zn1 1_555 1_555
N3L N4L 1_555 1_555
N3M Zn1L 1_555 1_555
N3N Zn1L 1_555 1_555
N4A Zn3 1_555 1_555
N4B Zn3 1_555 1_555
N4L Zn3 1_555 1_555
N4M Zn3 1_555 1_555
N4N Zn3 1_555 1_555
N5A H3A 1_555 1_555
N5B H3B 1_555 1_555
N5L H3L 1_555 1_555
N5M H3M 1_555 1_555
N5N H3N 1_555 1_555
H4A N5A 1_555 1_555
H4B N5B 1_555 1_555
H4L N5L 1_555 1_555
H4M N5M 1_555 1_555
H4N N5N 1_555 1_555
C1A N3A 1_555 1_555
C1B N3B 1_555 1_555
C1L N3L 1_555 1_555
C1M N3M 1_555 1_555
C1N N3N 1_555 1_555
C2A N2A 1_555 1_555
C2B N2B 1_555 1_555
C2L N2L 1_555 1_555
C2M N2M 1_555 1_555
C2N N2N 1_555 1_555
O3A Zn1 1_555 1_555
O3B Zn1 1_555 1_555
O3P Zn2 1_555 1_555
O3T Zn2 1_555 1_555
O3U Zn2 1_555 1_555
O3L Zn1L 1_555 1_555
O3M Zn1L 1_555 1_555
O3N Zn1L 1_555 1_555
O3O Zn2A 1_555 1_555
O3S Zn2A 1_555 1_555
O3W Zn2A 1_555 1_555
H5A C1A 1_555 1_555
H5B C1B 1_555 1_555
H5L C1L 1_555 1_555
H5M C1M 1_555 1_555
H5N C1N 1_555 1_555
N5 C2 1_555 1_555
O3 O3A 1_555 1_555
O3 O3B 1_555 1_555
Zn1P O3T 1_555 1_555
Zn1P O3U 1_555 1_555
Zn2P O3A 1_555 1_555
Zn2P O3B 1_555 1_555
N3A N4A 1_555 1_555
N3B N4B 1_555 1_555
N3M N4M 1_555 1_555
N3N N4N 1_555 1_555
N4A C2A 1_555 1_555
N4B C2B 1_555 1_555
N4L C2L 1_555 1_555
N4M C2M 1_555 1_555
N4N C2N 1_555 1_555
N5A C2A 1_555 1_555
N5B C2B 1_555 1_555
N5L C2L 1_555 1_555
N5M C2M 1_555 1_555
N5N C2N 1_555 1_555
O3A O3B 1_555 1_555
O3P O3T 1_555 1_555
O3P O3U 1_555 1_555
O3T O3U 1_555 1_555
O3L O3M 1_555 1_555
O3L O3N 1_555 1_555
O3M O3N 1_555 1_555
O3O O3S 1_555 1_555
O3O O3W 1_555 1_555
O3S O3W 1_555 1_555

#END
