
#######################################################################
#
#                 Cambridge Crystallographic Data Centre
#                                CCDC 
#
#######################################################################
#
# If this CIF has been generated from an entry in the Cambridge 
# Structural Database, then it will include bibliographic, chemical, 
# crystal, experimental, refinement or atomic coordinate data resulting 
# from the CCDC's data processing and validation procedures.
#
#######################################################################

data_WOHNUC
_symmetry_cell_setting           orthorhombic
_symmetry_space_group_name_H-M   'P c a 21'
_symmetry_Int_Tables_number      29
_space_group_name_Hall           'P 2c -2ac'
loop_
_symmetry_equiv_pos_site_id
_symmetry_equiv_pos_as_xyz
1 x,y,z
2 -x,-y,1/2+z
3 1/2+x,-y,z
4 1/2-x,y,1/2+z
_cell_length_a                   6.9561(11)
_cell_length_b                   12.2621(13)
_cell_length_c                   16.3550(19)
_cell_angle_alpha                90
_cell_angle_beta                 90
_cell_angle_gamma                90
_cell_volume                     1395.02
loop_
_atom_site_label
_atom_site_type_symbol
_atom_site_fract_x
_atom_site_fract_y
_atom_site_fract_z
Cu1 Cu 0.43828(7) 0.89783(3) 0.33119(3)
Cl1 Cl 0.33271(17) 1.06781(8) 0.31979(7)
N1 N 0.4521(5) 0.8898(3) 0.4559(2)
N2 N 0.4956(5) 0.7447(3) 0.3450(2)
O1 O 0.5763(5) 0.5505(3) -0.09544(19)
N3 N 0.5109(6) 0.6817(3) 0.2773(3)
O2 O 0.4218(5) 0.8448(2) 0.21720(19)
C1 C 0.4254(7) 0.9672(4) 0.5120(3)
H1 H 0.3831 1.0354 0.4946
C2 C 0.4571(7) 0.9516(4) 0.5943(3)
H2 H 0.4383 1.0081 0.6314
C3 C 0.5172(8) 0.8506(4) 0.6204(3)
H3 H 0.5402 0.8382 0.6756
C4 C 0.5434(7) 0.7673(4) 0.5640(3)
H4 H 0.5829 0.6983 0.5806
C5 C 0.5088(6) 0.7900(4) 0.4818(3)
C6 C 0.5288(7) 0.7092(4) 0.4171(3)
H5 H 0.5632 0.6373 0.4275
C7 C 0.4738(6) 0.7448(3) 0.2131(3)
C8 C 0.4928(6) 0.6940(3) 0.1317(3)
C9 C 0.5710(7) 0.5880(3) 0.1232(3)
H6 H 0.6060 0.5484 0.1694
C10 C 0.5950(6) 0.5438(4) 0.0471(3)
H7 H 0.6459 0.4740 0.0419
C11 C 0.5438(6) 0.6025(4) -0.0234(3)
C12 C 0.4703(6) 0.7061(4) -0.0158(3)
H8 H 0.4377 0.7460 -0.0621
C13 C 0.4449(6) 0.7509(4) 0.0619(3)
H9 H 0.3944 0.8209 0.0667
C14 C 0.5130(8) 0.6006(4) -0.1693(5)
H10 H 0.3755 0.6074 -0.1685
H11 H 0.5508 0.5565 -0.2151
H12 H 0.5699 0.6716 -0.1741
Cu1B Cu -0.06172(7) 1.10217(3) 0.33119(3)
Cl1B Cl 0.83271(17) 0.93219(8) 0.31979(7)
loop_
_geom_bond_atom_site_label_1
_geom_bond_atom_site_label_2
_geom_bond_site_symmetry_1
_geom_bond_site_symmetry_2
Cu1 Cl1 1_555 1_555
Cl1 Cu1B 1_555 1_555
N1 Cu1 1_555 1_555
N2 Cu1 1_555 1_555
O1 C11 1_555 1_555
N3 N2 1_555 1_555
O2 Cu1 1_555 1_555
C1 N1 1_555 1_555
H1 C1 1_555 1_555
C2 C1 1_555 1_555
H2 C2 1_555 1_555
C3 C2 1_555 1_555
H3 C3 1_555 1_555
C4 C3 1_555 1_555
H4 C4 1_555 1_555
C5 N1 1_555 1_555
C6 N2 1_555 1_555
H5 C6 1_555 1_555
C7 N3 1_555 1_555
C8 C7 1_555 1_555
C9 C8 1_555 1_555
H6 C9 1_555 1_555
C10 C9 1_555 1_555
H7 C10 1_555 1_555
C11 C10 1_555 1_555
C12 C11 1_555 1_555
H8 C12 1_555 1_555
C13 C8 1_555 1_555
H9 C13 1_555 1_555
C14 O1 1_555 1_555
H10 C14 1_555 1_555
H11 C14 1_555 1_555
H12 C14 1_555 1_555
Cl1B Cu1 1_555 1_555
O2 C7 1_555 1_555
C4 C5 1_555 1_555
C5 C6 1_555 1_555
C12 C13 1_555 1_555

#END
