
#######################################################################
#
#                 Cambridge Crystallographic Data Centre
#                                CCDC 
#
#######################################################################
#
# If this CIF has been generated from an entry in the Cambridge 
# Structural Database, then it will include bibliographic, chemical, 
# crystal, experimental, refinement or atomic coordinate data resulting 
# from the CCDC's data processing and validation procedures.
#
#######################################################################

data_WOHYOH01
_symmetry_cell_setting           monoclinic
_symmetry_space_group_name_H-M   'C 2/c'
_symmetry_Int_Tables_number      15
_space_group_name_Hall           '-C 2yn'
loop_
_symmetry_equiv_pos_site_id
_symmetry_equiv_pos_as_xyz
1 x,y,z
2 1/2+x,1/2+y,z
3 x,-y,1/2+z
4 1/2+x,1/2-y,1/2+z
5 -x,-y,-z
6 1/2-x,1/2-y,-z
7 -x,y,1/2-z
8 1/2-x,1/2+y,1/2-z
_cell_length_a                   14.7930(12)
_cell_length_b                   9.6011(8)
_cell_length_c                   8.7631(7)
_cell_angle_alpha                90
_cell_angle_beta                 114.229(2)
_cell_angle_gamma                90
_cell_volume                     1134.98
loop_
_atom_site_label
_atom_site_type_symbol
_atom_site_fract_x
_atom_site_fract_y
_atom_site_fract_z
Mn1 Mn 0.5000 0.38380(7) 0.2500
N1 N 0.59297(19) 0.2273(3) 0.1647(3)
C1 C 0.6876(2) 0.2036(3) 0.2671(4)
H1 H 0.7110 0.2420 0.3738
C2 C 0.7535(2) 0.1263(3) 0.2263(4)
C3 C 0.7193(3) 0.0721(5) 0.0667(5)
H2 H 0.7608 0.0200 0.0329
C4 C 0.6223(4) 0.0967(5) -0.0414(6)
H3 H 0.5975 0.0612 -0.1497
C5 C 0.5623(3) 0.1739(5) 0.0115(5)
H4 H 0.4970 0.1895 -0.0635
C6 C 0.8595(2) 0.1020(3) 0.3523(4)
O1 O 0.91644(16) 0.0433(3) 0.3002(3)
O2 O 0.88155(16) 0.1444(2) 0.4986(3)
N1F N 0.40703(19) 0.2273(3) 0.3353(3)
C1F C 0.3124(2) 0.2036(3) 0.2329(4)
H1F H 0.2890 0.2420 0.1262
C2F C 0.2465(2) 0.1263(3) 0.2737(4)
C3F C 0.2807(3) 0.0721(5) 0.4333(5)
H2F H 0.2392 0.0200 0.4671
C4F C 0.3777(4) 0.0967(5) 0.5414(6)
H3F H 0.4025 0.0612 0.6497
C5F C 0.4377(3) 0.1739(5) 0.4885(5)
H4F H 0.5030 0.1895 0.5635
C6F C 0.1405(2) 0.1020(3) 0.1477(4)
O1F O 0.08356(16) 0.0433(3) 0.1998(3)
O2F O 0.11845(16) 0.1444(2) 0.0014(3)
O1A O 0.41644(16) 0.5433(3) 0.3002(3)
O1G O 0.58356(16) 0.5433(3) 0.1998(3)
O2C O 0.38155(16) 0.3556(2) -0.0014(3)
O2E O 0.61845(16) 0.3556(2) 0.5014(3)
Mn1A Mn 1.0000 -0.11620(7) 0.2500
Mn1C Mn 1.0000 0.11620(7) 0.7500
Mn1A_2 Mn 0.0000 -0.11620(7) 0.2500
Mn1C_2 Mn 0.0000 0.11620(7) -0.2500
loop_
_geom_bond_atom_site_label_1
_geom_bond_atom_site_label_2
_geom_bond_site_symmetry_1
_geom_bond_site_symmetry_2
Mn1 N1 1_555 1_555
N1 C1 1_555 1_555
C1 H1 1_555 1_555
C2 C1 1_555 1_555
C3 C2 1_555 1_555
H2 C3 1_555 1_555
C4 C3 1_555 1_555
H3 C4 1_555 1_555
C5 N1 1_555 1_555
H4 C5 1_555 1_555
C6 C2 1_555 1_555
O1 C6 1_555 1_555
O2 C6 1_555 1_555
N1F Mn1 1_555 1_555
C1F N1F 1_555 1_555
H1F C1F 1_555 1_555
C2F C1F 1_555 1_555
C3F C2F 1_555 1_555
H2F C3F 1_555 1_555
C4F C3F 1_555 1_555
H3F C4F 1_555 1_555
C5F N1F 1_555 1_555
H4F C5F 1_555 1_555
C6F C2F 1_555 1_555
O1F C6F 1_555 1_555
O2F C6F 1_555 1_555
O1A Mn1 1_555 1_555
O1G Mn1 1_555 1_555
O2C Mn1 1_555 1_555
O2E Mn1 1_555 1_555
Mn1A O1 1_555 1_555
Mn1C O2 1_555 1_555
Mn1A_2 O1F 1_555 1_555
Mn1C_2 O2F 1_555 1_555
C4 C5 1_555 1_555
C4F C5F 1_555 1_555

#END
