
#######################################################################
#
#                 Cambridge Crystallographic Data Centre
#                                CCDC 
#
#######################################################################
#
# If this CIF has been generated from an entry in the Cambridge 
# Structural Database, then it will include bibliographic, chemical, 
# crystal, experimental, refinement or atomic coordinate data resulting 
# from the CCDC's data processing and validation procedures.
#
#######################################################################

data_WOHYOH
_symmetry_cell_setting           monoclinic
_symmetry_space_group_name_H-M   'C 2/c'
_symmetry_Int_Tables_number      15
_space_group_name_Hall           '-C 2yn'
loop_
_symmetry_equiv_pos_site_id
_symmetry_equiv_pos_as_xyz
1 x,y,z
2 1/2+x,1/2+y,z
3 x,-y,1/2+z
4 1/2+x,1/2-y,1/2+z
5 -x,-y,-z
6 1/2-x,1/2-y,-z
7 -x,y,1/2-z
8 1/2-x,1/2+y,1/2-z
_cell_length_a                   14.9180(8)
_cell_length_b                   9.3492(5)
_cell_length_c                   8.8051(5)
_cell_angle_alpha                90.00
_cell_angle_beta                 114.7560(10)
_cell_angle_gamma                90.00
_cell_volume                     1115.2
loop_
_atom_site_label
_atom_site_type_symbol
_atom_site_fract_x
_atom_site_fract_y
_atom_site_fract_z
Mn1 Mn 0.5000 0.38387(3) 0.2500
O1 O 0.38154(7) 0.35412(12) -0.00112(12)
C1 C 0.36020(10) 0.39523(13) -0.14844(17)
C2 C 0.25407(10) 0.37219(13) -0.27441(17)
C3 C 0.22015(13) 0.4280(2) -0.4348(2)
O2 O 0.41752(7) 0.45051(12) -0.20120(13)
N1 N 0.59295(9) 0.22647(13) 0.16427(14)
C4 C 0.18800(10) 0.29556(15) -0.23257(16)
C5 C 0.12215(15) 0.4062(3) -0.5436(2)
C6 C 0.56143(12) 0.1709(2) 0.0101(2)
H1 H 0.2092(17) 0.256(2) -0.125(3)
H2 H 0.4964(18) 0.191(2) -0.060(3)
H3 H 0.2598(17) 0.480(2) -0.470(3)
H4 H 0.099(2) 0.442(3) -0.643(4)
O1F O 0.61846(7) 0.35412(12) 0.50112(12)
O2D O 0.58248(7) 0.54949(12) 0.20120(13)
N1F N 0.40705(9) 0.22647(13) 0.33573(14)
O2B O 0.41752(7) 0.54949(12) 0.29880(13)
C4C C 0.68800(10) 0.20444(15) 0.26743(16)
N1C N 0.09295(9) 0.27353(13) -0.33573(14)
C6C C 0.06143(12) 0.3291(2) -0.4899(2)
C5C C 0.62215(15) 0.0938(3) -0.0436(2)
Mn1B Mn 0.5000 0.61613(3) -0.2500
C2C C 0.75407(10) 0.12781(13) 0.22559(17)
H1C H 0.7092(17) 0.244(2) 0.375(3)
Mn1C Mn 0.0000 0.11613(3) -0.2500
H2C H -0.0036(18) 0.309(2) -0.560(3)
C3C C 0.72015(13) 0.0720(2) 0.0652(2)
H4C H 0.599(2) 0.058(3) -0.143(4)
C1C C 0.86020(10) 0.10477(13) 0.35156(17)
H3C H 0.7598(17) 0.020(2) 0.030(3)
O1C O 0.88154(7) 0.14588(12) 0.49888(12)
O2C O 0.91752(7) 0.04949(12) 0.29880(13)
Mn1C_2 Mn 1.0000 0.11613(3) 0.7500
Mn1A Mn 1.0000 -0.11613(3) 0.2500
loop_
_geom_bond_atom_site_label_1
_geom_bond_atom_site_label_2
_geom_bond_site_symmetry_1
_geom_bond_site_symmetry_2
Mn1 O1 1_555 1_555
O1 C1 1_555 1_555
C1 C2 1_555 1_555
C2 C3 1_555 1_555
C3 C5 1_555 1_555
O2 C1 1_555 1_555
N1 Mn1 1_555 1_555
C4 C2 1_555 1_555
C5 H4 1_555 1_555
C6 N1 1_555 1_555
H1 C4 1_555 1_555
H2 C6 1_555 1_555
H3 C3 1_555 1_555
O1F Mn1 1_555 1_555
O2D Mn1 1_555 1_555
N1F Mn1 1_555 1_555
O2B Mn1 1_555 1_555
C4C N1 1_555 1_555
N1C C4 1_555 1_555
C6C C5 1_555 1_555
C5C C6 1_555 1_555
Mn1B O2 1_555 1_555
C2C C4C 1_555 1_555
H1C C4C 1_555 1_555
Mn1C N1C 1_555 1_555
H2C C6C 1_555 1_555
C3C C5C 1_555 1_555
H4C C5C 1_555 1_555
C1C C2C 1_555 1_555
H3C C3C 1_555 1_555
O1C C1C 1_555 1_555
O2C C1C 1_555 1_555
Mn1C_2 O1C 1_555 1_555
Mn1A O2C 1_555 1_555
N1C C6C 1_555 1_555
C2C C3C 1_555 1_555

#END
