
#######################################################################
#
#                 Cambridge Crystallographic Data Centre
#                                CCDC 
#
#######################################################################
#
# If this CIF has been generated from an entry in the Cambridge 
# Structural Database, then it will include bibliographic, chemical, 
# crystal, experimental, refinement or atomic coordinate data resulting 
# from the CCDC's data processing and validation procedures.
#
#######################################################################

data_WOHZAU
_symmetry_cell_setting           monoclinic
_symmetry_space_group_name_H-M   'C 2/c'
_symmetry_Int_Tables_number      15
_space_group_name_Hall           '-C 2yn'
loop_
_symmetry_equiv_pos_site_id
_symmetry_equiv_pos_as_xyz
1 x,y,z
2 1/2+x,1/2+y,z
3 x,-y,1/2+z
4 1/2+x,1/2-y,1/2+z
5 -x,-y,-z
6 1/2-x,1/2-y,-z
7 -x,y,1/2-z
8 1/2-x,1/2+y,1/2-z
_cell_length_a                   13.4186(2)
_cell_length_b                   12.2468(2)
_cell_length_c                   15.9193(3)
_cell_angle_alpha                90
_cell_angle_beta                 92.1430(10)
_cell_angle_gamma                90
_cell_volume                     2614.27
loop_
_atom_site_label
_atom_site_type_symbol
_atom_site_fract_x
_atom_site_fract_y
_atom_site_fract_z
C1 C 0.6613(4) 0.3059(5) -0.2216(3)
H1 H 0.5951 0.3396 -0.2218
C2 C 0.7315(5) 0.3845(5) -0.2657(3)
H2 H 0.7976 0.3526 -0.2673
H3 H 0.7366 0.4524 -0.2345
C3 C 0.6914(4) 0.4074(4) -0.3558(3)
H4 H 0.6247 0.4395 -0.3532
C4 C 0.6838(4) 0.2995(5) -0.4058(3)
H5 H 0.7498 0.2685 -0.4107
H6 H 0.6566 0.3141 -0.4620
C5 C 0.6162(4) 0.2172(4) -0.3615(3)
H7 H 0.5482 0.2465 -0.3616
C6 C 0.6524(5) 0.1977(5) -0.2702(3)
H8 H 0.7168 0.1617 -0.2695
H9 H 0.6059 0.1500 -0.2428
C7 C 0.6930(5) 0.2814(5) -0.1312(3)
O1 O 0.6333(4) 0.2259(4) -0.0898(3)
O2 O 0.7753(3) 0.3152(4) -0.1024(3)
C8 C 0.7569(4) 0.4840(5) -0.4032(3)
O3 O 0.7177(3) 0.5563(4) -0.4508(3)
O4 O 0.8502(3) 0.4732(4) -0.3994(3)
C9 C 0.6149(4) 0.1107(5) -0.4096(3)
O5 O 0.5375(3) 0.0799(4) -0.4505(3)
O6 O 0.6914(3) 0.0522(4) -0.4097(3)
O7 O 0.5545(9) 0.2922(9) 0.0414(8)
O8 O 0.5240(5) 0.1308(9) 0.1266(6)
Er1 Er 0.622293(17) 0.09986(2) 0.010995(14)
Er1E Er 0.877707(17) 0.40014(2) -0.010995(14)
Er1G Er 0.877707(17) 0.59986(2) -0.510995(14)
Er1B Er 0.622293(17) -0.09986(2) -0.489005(14)
Er1F Er 0.377707(17) 0.09986(2) -0.510995(14)
O2E O 0.7247(3) 0.1848(4) 0.1024(3)
O3G O 0.7823(3) 0.0563(4) -0.0492(3)
O4G O 0.6498(3) -0.0268(4) -0.1006(3)
O5B O 0.5375(3) -0.0799(4) 0.0495(3)
O5F O 0.4625(3) 0.0799(4) -0.0495(3)
O6B O 0.6914(3) -0.0522(4) 0.0903(3)
O9 O 0.5000 0.2962(7) 0.2500
O10 O 0.8990(5) 0.0754(7) -0.3699(5)
O11 O 0.5309(10) 0.4291(11) -0.0093(11)
loop_
_geom_bond_atom_site_label_1
_geom_bond_atom_site_label_2
_geom_bond_site_symmetry_1
_geom_bond_site_symmetry_2
C1 H1 1_555 1_555
C2 C1 1_555 1_555
H2 C2 1_555 1_555
H3 C2 1_555 1_555
C3 C2 1_555 1_555
H4 C3 1_555 1_555
C4 C3 1_555 1_555
H5 C4 1_555 1_555
H6 C4 1_555 1_555
C5 C4 1_555 1_555
H7 C5 1_555 1_555
C6 C1 1_555 1_555
H8 C6 1_555 1_555
H9 C6 1_555 1_555
C7 C1 1_555 1_555
O1 C7 1_555 1_555
O2 C7 1_555 1_555
C8 C3 1_555 1_555
O3 C8 1_555 1_555
O4 C8 1_555 1_555
C9 C5 1_555 1_555
O5 C9 1_555 1_555
O6 C9 1_555 1_555
O7 Er1 1_555 1_555
O8 Er1 1_555 1_555
Er1 O1 1_555 1_555
Er1E O2 1_555 1_555
Er1G O3 1_555 1_555
Er1B O5 1_555 1_555
Er1F O5 1_555 1_555
O2E Er1 1_555 1_555
O3G Er1 1_555 1_555
O4G Er1 1_555 1_555
O5B Er1 1_555 1_555
O5F Er1 1_555 1_555
O6B Er1 1_555 1_555
C5 C6 1_555 1_555
O4 Er1G 1_555 1_555
O6 Er1B 1_555 1_555

#END
