
#######################################################################
#
#                 Cambridge Crystallographic Data Centre
#                                CCDC 
#
#######################################################################
#
# If this CIF has been generated from an entry in the Cambridge 
# Structural Database, then it will include bibliographic, chemical, 
# crystal, experimental, refinement or atomic coordinate data resulting 
# from the CCDC's data processing and validation procedures.
#
#######################################################################

data_WOJKIP
_symmetry_cell_setting           triclinic
_symmetry_space_group_name_H-M   'P -1'
_symmetry_Int_Tables_number      2
_space_group_name_Hall           '-P 1'
loop_
_symmetry_equiv_pos_site_id
_symmetry_equiv_pos_as_xyz
1 x,y,z
2 -x,-y,-z
_cell_length_a                   7.950(4)
_cell_length_b                   10.450(6)
_cell_length_c                   10.504(6)
_cell_angle_alpha                66.21
_cell_angle_beta                 68.31
_cell_angle_gamma                74.400(10)
_cell_volume                     734.555
loop_
_atom_site_label
_atom_site_type_symbol
_atom_site_fract_x
_atom_site_fract_y
_atom_site_fract_z
Ag1 Ag -1.17206(5) 0.92470(3) 0.02552(4)
N1 N -0.3760(4) 0.1038(3) 0.0308(3)
N2 N -0.0097(4) 0.2677(3) -0.0285(4)
C1 C -0.4191(7) 0.1932(5) -0.0878(4)
H1 H -0.3613 0.1732 -0.1771
C2 C -0.5425(7) 0.3126(5) -0.0896(5)
H2 H -0.5692 0.3737 -0.1788
C3 C -0.6302(5) 0.3467(3) 0.0344(4)
C4 C -0.5909(6) 0.2509(4) 0.1585(4)
H3 H -0.6519 0.2669 0.2496
C5 C -0.4642(7) 0.1330(5) 0.1523(5)
H4 H -0.4390 0.0682 0.2409
C6 C -0.7566(5) 0.4793(4) 0.0329(4)
C7 C -0.7860(6) 0.5779(4) -0.0927(4)
H5 H -0.7260 0.5604 -0.1831
C8 C -0.0979(6) 0.2987(4) 0.0905(5)
H6 H -0.0817 0.2311 0.1811
C9 C -0.1483(7) 0.4891(5) -0.1577(5)
H7 H -0.1603 0.5554 -0.2501
C10 C -0.0362(7) 0.3630(5) -0.1509(5)
H8 H 0.0259 0.3425 -0.2395
P1 P -0.93096(13) 1.10007(10) -0.40388(10)
O1 O -0.8591(4) 1.1108(3) -0.2972(3)
O2 O -0.9943(4) 1.2474(3) -0.5037(4)
H9 H -1.1221 1.2657 -0.4924
O3 O -0.7959(4) 1.0249(3) -0.5039(3)
O4 O -1.1014(4) 1.0223(3) -0.3122(3)
H10 H -1.1494 1.0124 -0.3580
Ag1_2 Ag -0.17206(5) -0.07530(3) 0.02552(4)
C8A C -0.9021(6) 0.7013(4) -0.0905(5)
N2A N -0.9903(4) 0.7323(3) 0.0285(4)
Ag1A Ag 0.17206(5) 0.07530(3) -0.02552(4)
Ag1A_2 Ag -0.82794(5) 1.07530(3) -0.02552(4)
N1A N -0.6240(4) 0.8962(3) -0.0308(3)
C1A C -0.5809(7) 0.8068(5) 0.0878(4)
H1A H -0.6387 0.8268 0.1771
C2A C -0.4575(7) 0.6874(5) 0.0896(5)
H2A H -0.4308 0.6263 0.1788
C3A C -0.3698(5) 0.6533(3) -0.0344(4)
C4A C -0.4091(6) 0.7491(4) -0.1585(4)
H3A H -0.3481 0.7331 -0.2496
C5A C -0.5358(7) 0.8670(5) -0.1523(5)
H4A H -0.5610 0.9318 -0.2409
C6A C -0.2434(5) 0.5207(4) -0.0329(4)
C7A C -0.2140(6) 0.4221(4) 0.0927(4)
H5A H -0.2740 0.4396 0.1831
N2_2 N -1.0097(4) 1.2677(3) -0.0285(4)
N1_2 N -1.3760(4) 1.1038(3) 0.0308(3)
O1A O -1.1409(4) 0.8892(3) 0.2972(3)
P1A P -1.06904(13) 0.89993(10) 0.40388(10)
O2A O -1.0057(4) 0.7526(3) 0.5037(4)
H9A H -0.8779 0.7343 0.4924
O3A O -1.2041(4) 0.9751(3) 0.5039(3)
O4A O -0.8986(4) 0.9777(3) 0.3122(3)
H10A H -0.8506 0.9876 0.3580
C10A C -0.9638(7) 0.6370(5) 0.1509(5)
C9A C -0.8517(7) 0.5109(5) 0.1577(5)
H7A H -0.8397 0.4446 0.2501
H8A H -1.0259 0.6575 0.2395
H6A H -0.9183 0.7689 -0.1811
P2 P 0.52019(14) 0.29738(10) -0.49134(11)
O5 O 0.4008(4) 0.2248(3) -0.3415(3)
H11 H 0.3039 0.1835 -0.3159
O6 O 0.5943(4) 0.1994(3) -0.5812(3)
H12 H 0.6687 0.1274 -0.5483
O7 O 0.6632(4) 0.3513(3) -0.4750(4)
O8 O 0.4027(4) 0.4180(3) -0.5808(3)
H13 H 0.3975 0.4937 -0.5699
loop_
_geom_bond_atom_site_label_1
_geom_bond_atom_site_label_2
_geom_bond_site_symmetry_1
_geom_bond_site_symmetry_2
Ag1 N2A 1_555 1_555
N1 C1 1_555 1_555
N2 C8 1_555 1_555
C1 H1 1_555 1_555
C2 C1 1_555 1_555
H2 C2 1_555 1_555
C3 C2 1_555 1_555
C4 C3 1_555 1_555
H3 C4 1_555 1_555
C5 N1 1_555 1_555
H4 C5 1_555 1_555
C6 C3 1_555 1_555
C7 C6 1_555 1_555
H5 C7 1_555 1_555
C8 H6 1_555 1_555
C9 H7 1_555 1_555
C10 N2 1_555 1_555
H8 C10 1_555 1_555
P1 O1 1_555 1_555
O1 Ag1A_2 1_555 1_555
O2 P1 1_555 1_555
H9 O2 1_555 1_555
O3 P1 1_555 1_555
O4 P1 1_555 1_555
H10 O4 1_555 1_555
P2 O5 1_555 1_555
O5 H11 1_555 1_555
O6 P2 1_555 1_555
H12 O6 1_555 1_555
O7 P2 1_555 1_555
O8 P2 1_555 1_555
H13 O8 1_555 1_555
Ag1_2 N1 1_555 1_555
C8A C7 1_555 1_555
N2A C8A 1_555 1_555
Ag1A N2 1_555 1_555
Ag1A_2 Ag1 1_555 1_555
N1A Ag1A_2 1_555 1_555
C1A N1A 1_555 1_555
H1A C1A 1_555 1_555
C2A C1A 1_555 1_555
H2A C2A 1_555 1_555
C3A C2A 1_555 1_555
C4A C3A 1_555 1_555
H3A C4A 1_555 1_555
C5A N1A 1_555 1_555
H4A C5A 1_555 1_555
C6A C9 1_555 1_555
C7A C8 1_555 1_555
H5A C7A 1_555 1_555
N2_2 Ag1A_2 1_555 1_555
N1_2 Ag1 1_555 1_555
O1A Ag1 1_555 1_555
P1A O1A 1_555 1_555
O2A P1A 1_555 1_555
H9A O2A 1_555 1_555
O3A P1A 1_555 1_555
O4A P1A 1_555 1_555
H10A O4A 1_555 1_555
C10A N2A 1_555 1_555
C9A C6 1_555 1_555
H7A C9A 1_555 1_555
H8A C10A 1_555 1_555
H6A C8A 1_555 1_555
C4 C5 1_555 1_555
C9 C10 1_555 1_555
Ag1_2 Ag1A 1_555 1_555
C3A C6A 1_555 1_555
C4A C5A 1_555 1_555
C6A C7A 1_555 1_555
C10A C9A 1_555 1_555

#END
