
#######################################################################
#
#                 Cambridge Crystallographic Data Centre
#                                CCDC 
#
#######################################################################
#
# If this CIF has been generated from an entry in the Cambridge 
# Structural Database, then it will include bibliographic, chemical, 
# crystal, experimental, refinement or atomic coordinate data resulting 
# from the CCDC's data processing and validation procedures.
#
#######################################################################

data_WOJMOY
_symmetry_cell_setting           orthorhombic
_symmetry_space_group_name_H-M   'I 21 21 21'
_symmetry_Int_Tables_number      24
_space_group_name_Hall           'I 2b 2c'
loop_
_symmetry_equiv_pos_site_id
_symmetry_equiv_pos_as_xyz
1 x,y,z
2 -x,1/2-y,z
3 x,-y,1/2-z
4 1/2-x,y,-z
5 1/2+x,1/2+y,1/2+z
6 1/2-x,-y,1/2+z
7 1/2+x,1/2-y,-z
8 -x,1/2+y,1/2-z
_cell_length_a                   11.6841(11)
_cell_length_b                   11.9242(11)
_cell_length_c                   13.9294(11)
_cell_angle_alpha                90
_cell_angle_beta                 90
_cell_angle_gamma                90
_cell_volume                     1940.69
loop_
_atom_site_label
_atom_site_type_symbol
_atom_site_fract_x
_atom_site_fract_y
_atom_site_fract_z
B1 B 0.0000 0.2500 0.2892(2)
F1 F 0.0137(2) 0.34566(14) 0.24301(11)
F2 F 0.1364(2) 0.2281(3) 0.2850(2)
F1A F -0.0137(2) 0.15434(14) 0.24301(11)
F2A F -0.1364(2) 0.2719(3) 0.2850(2)
Ag1 Ag 0.0000 0.2500 0.050175(15)
C1 C 0.1690(2) 0.0485(2) 0.0443(2)
C2 C 0.2500 0.2149(3) 0.0000
C3 C 0.2500 0.3374(3) 0.0000
C4 C 0.2159(2) 0.3965(2) 0.0814(2)
H1 H 0.1926 0.3576 0.1376
C5 C 0.2164(3) 0.5126(3) 0.0795(2)
H2 H 0.1928 0.5526 0.1351
C6 C 0.2500 0.5716(4) 0.0000
C7 C 0.2500 0.6984(4) 0.0000
H3 H 0.2759 0.7290 -0.0612
N1 N 0.15957(16) 0.16235(16) 0.03825(14)
N2 N 0.2500 -0.0116(3) 0.0000
N3 N 0.0899(2) -0.0059(2) 0.0928(2)
H6 H 0.0913 -0.0796 0.0954
H7 H 0.0355 0.0314 0.1226
Ag1C Ag 0.5000 0.2500 -0.050175(15)
C1C C 0.3310(2) 0.0485(2) -0.0443(2)
C4C C 0.2841(2) 0.3965(2) -0.0814(2)
H1C H 0.3074 0.3576 -0.1376
C5C C 0.2836(3) 0.5126(3) -0.0795(2)
H2C H 0.3072 0.5526 -0.1351
H3C H 0.2241 0.7290 0.0612
N1C N 0.34043(16) 0.16235(16) -0.03825(14)
N1A N -0.15957(16) 0.33765(16) 0.03825(14)
N3C N 0.4101(2) -0.0059(2) -0.0928(2)
H6C H 0.4087 -0.0796 -0.0954
H7C H 0.4645 0.0314 -0.1226
H4? H 0.1738 0.7290 0.0118
H5? H 0.3003 0.7290 0.0494
F3? F -0.0116(12) 0.252(2) 0.38262(16)
loop_
_geom_bond_atom_site_label_1
_geom_bond_atom_site_label_2
_geom_bond_site_symmetry_1
_geom_bond_site_symmetry_2
Ag1 N1 1_555 1_555
C1 N1 1_555 1_555
C2 C3 1_555 1_555
C3 C4 1_555 1_555
C4 H1 1_555 1_555
C5 C4 1_555 1_555
H2 C5 1_555 1_555
C6 C5 1_555 1_555
C7 C6 1_555 1_555
H3 C7 1_555 1_555
N1 C2 1_555 1_555
N2 C1 1_555 1_555
N3 C1 1_555 1_555
H6 N3 1_555 1_555
H7 N3 1_555 1_555
B1 F1 1_555 1_555
F2 B1 1_555 1_555
Ag1C N1C 1_555 1_555
C1C N2 1_555 1_555
C4C C3 1_555 1_555
H1C C4C 1_555 1_555
C5C C6 1_555 1_555
H2C C5C 1_555 1_555
H3C C7 1_555 1_555
N1C C2 1_555 1_555
N1A Ag1 1_555 1_555
N3C C1C 1_555 1_555
H6C N3C 1_555 1_555
H7C N3C 1_555 1_555
F1A B1 1_555 1_555
F2A B1 1_555 1_555
C1C N1C 1_555 1_555
C4C C5C 1_555 1_555

#END
