
#######################################################################
#
#                 Cambridge Crystallographic Data Centre
#                                CCDC 
#
#######################################################################
#
# If this CIF has been generated from an entry in the Cambridge 
# Structural Database, then it will include bibliographic, chemical, 
# crystal, experimental, refinement or atomic coordinate data resulting 
# from the CCDC's data processing and validation procedures.
#
#######################################################################

data_WOJSOF
_symmetry_cell_setting           monoclinic
_symmetry_space_group_name_H-M   'P 21/c'
_symmetry_Int_Tables_number      14
_space_group_name_Hall           '-P 2ybc'
loop_
_symmetry_equiv_pos_site_id
_symmetry_equiv_pos_as_xyz
1 x,y,z
2 -x,1/2+y,1/2-z
3 -x,-y,-z
4 x,1/2-y,1/2+z
_cell_length_a                   8.4143(12)
_cell_length_b                   24.421(4)
_cell_length_c                   9.2884(14)
_cell_angle_alpha                90
_cell_angle_beta                 113.322(2)
_cell_angle_gamma                90
_cell_volume                     1752.69
loop_
_atom_site_label
_atom_site_type_symbol
_atom_site_fract_x
_atom_site_fract_y
_atom_site_fract_z
C1 C 0.5475(6) 0.02677(18) 0.5426(6)
C2 C -0.0727(6) 0.00051(18) 0.4182(6)
C3 C 0.0325(7) 0.0938(2) 0.0435(7)
H1 H -0.0628 0.0983 0.0692
C4 C 0.0141(7) 0.1061(2) -0.1055(7)
H2 H -0.0906 0.1187 -0.1797
C5 C 0.1578(7) 0.0990(2) -0.1424(6)
H3 H 0.1507 0.1079 -0.2422
C6 C 0.3094(6) 0.07904(17) -0.0329(6)
C7 C 0.3141(6) 0.06856(18) 0.1129(6)
H4 H 0.4172 0.0555 0.1884
C8 C 0.4646(6) 0.06836(16) -0.0724(6)
H5 H 0.5578 0.0537 0.0195
H6 H 0.4343 0.0409 -0.1543
C9 C 0.5876(6) 0.15839(19) -0.0278(6)
C10 C 0.6436(5) 0.20856(18) -0.0958(6)
C11 C 0.7359(6) 0.30333(18) -0.0376(6)
H7 H 0.7224 0.3306 0.0328
H8 H 0.6576 0.3130 -0.1432
C12 C 0.9189(6) 0.30606(19) -0.0279(5)
C13 C 1.0379(7) 0.2660(2) 0.0275(7)
H9 H 1.0094 0.2334 0.0632
C14 C 1.2033(7) 0.2734(2) 0.0312(8)
H10 H 1.2859 0.2458 0.0666
C15 C 1.2411(7) 0.3229(2) -0.0193(7)
H11 H 1.3517 0.3281 -0.0165
C16 C 0.9683(6) 0.35427(19) -0.0767(6)
H12 H 0.8861 0.3819 -0.1153
N1 N 0.1806(5) 0.07571(16) 0.1551(5)
N2 N 0.5257(5) 0.11716(15) -0.1243(4)
H13 H 0.5213 0.1190 -0.2183
N3 N 0.6855(4) 0.25082(15) 0.0010(4)
H14 H 0.6826 0.2467 0.0918
N4 N 1.1276(5) 0.36374(16) -0.0717(5)
O1 O -0.0491(4) 0.02611(12) 0.3106(4)
O2 O -0.2077(4) -0.02540(13) 0.4033(4)
O3 O 0.4618(4) 0.07115(12) 0.5055(4)
O4 O 0.6991(4) 0.02217(12) 0.6401(4)
O5 O 0.5999(5) 0.15868(13) 0.1070(4)
O6 O 0.6455(4) 0.20801(12) -0.2267(4)
Co1 Co 0.20072(8) 0.05586(2) 0.38091(8)
C1B C 0.4525(6) -0.02677(18) 0.4574(6)
O3B O 0.5382(4) -0.07115(12) 0.4945(4)
O4B O 0.3009(4) -0.02217(12) 0.3599(4)
C2B C 0.0727(6) -0.00051(18) 0.5818(6)
O1B O 0.0491(4) -0.02611(12) 0.6894(4)
O2B O 0.2077(4) 0.02540(13) 0.5967(4)
C3B C -0.0325(7) -0.0938(2) 0.9565(7)
H1B H 0.0628 -0.0983 0.9308
C4B C -0.0141(7) -0.1061(2) 1.1055(7)
H2B H 0.0906 -0.1187 1.1797
C5B C -0.1578(7) -0.0990(2) 1.1424(6)
H3B H -0.1507 -0.1079 1.2422
C6B C -0.3094(6) -0.07904(17) 1.0329(6)
C7B C -0.3141(6) -0.06856(18) 0.8871(6)
H4B H -0.4172 -0.0555 0.8116
C8B C -0.4646(6) -0.06836(16) 1.0724(6)
H5B H -0.5578 -0.0537 0.9805
H6B H -0.4343 -0.0409 1.1543
C9B C -0.5876(6) -0.15839(19) 1.0278(6)
C10B C -0.6436(5) -0.20856(18) 1.0958(6)
C11B C -0.7359(6) -0.30333(18) 1.0376(6)
H7B H -0.7224 -0.3306 0.9672
H8B H -0.6576 -0.3130 1.1432
C12B C -0.9189(6) -0.30606(19) 1.0279(5)
C13B C -1.0379(7) -0.2660(2) 0.9725(7)
H9B H -1.0094 -0.2334 0.9368
C14B C -1.2033(7) -0.2734(2) 0.9688(8)
H10B H -1.2859 -0.2458 0.9334
C15B C -1.2411(7) -0.3229(2) 1.0193(7)
H11B H -1.3517 -0.3281 1.0165
C16B C -0.9683(6) -0.35427(19) 1.0767(6)
H12B H -0.8861 -0.3819 1.1153
N1B N -0.1806(5) -0.07571(16) 0.8449(5)
N2B N -0.5257(5) -0.11716(15) 1.1243(4)
H13B H -0.5213 -0.1190 1.2183
N3B N -0.6855(4) -0.25082(15) 0.9990(4)
H14B H -0.6826 -0.2467 0.9082
N4B N -1.1276(5) -0.36374(16) 1.0717(5)
O5B O -0.5999(5) -0.15868(13) 0.8930(4)
O6B O -0.6455(4) -0.20801(12) 1.2267(4)
Co1B Co -0.20072(8) -0.05586(2) 0.61909(8)
N4A N -0.1276(5) -0.13626(16) 0.5717(5)
N4C N 0.1276(5) 0.13626(16) 0.4283(5)
O3B_2 O -0.4618(4) -0.07115(12) 0.4945(4)
O4_2 O -0.3009(4) 0.02217(12) 0.6401(4)
Co1A Co -1.20072(8) -0.44414(2) 1.11909(8)
Co1B_2 Co 0.79928(8) -0.05586(2) 0.61909(8)
Co1C Co 1.20072(8) 0.44414(2) -0.11909(8)
loop_
_geom_bond_atom_site_label_1
_geom_bond_atom_site_label_2
_geom_bond_site_symmetry_1
_geom_bond_site_symmetry_2
C1 O3 1_555 1_555
C2 O1 1_555 1_555
C3 H1 1_555 1_555
C4 C3 1_555 1_555
H2 C4 1_555 1_555
C5 C4 1_555 1_555
H3 C5 1_555 1_555
C6 C5 1_555 1_555
C7 C6 1_555 1_555
H4 C7 1_555 1_555
C8 C6 1_555 1_555
H5 C8 1_555 1_555
H6 C8 1_555 1_555
C9 C10 1_555 1_555
C10 N3 1_555 1_555
C11 H7 1_555 1_555
H8 C11 1_555 1_555
C12 C11 1_555 1_555
C13 C12 1_555 1_555
H9 C13 1_555 1_555
C14 C13 1_555 1_555
H10 C14 1_555 1_555
C15 C14 1_555 1_555
H11 C15 1_555 1_555
C16 C12 1_555 1_555
H12 C16 1_555 1_555
N1 C3 1_555 1_555
N2 C8 1_555 1_555
H13 N2 1_555 1_555
N3 C11 1_555 1_555
H14 N3 1_555 1_555
N4 C15 1_555 1_555
O1 Co1 1_555 1_555
O2 C2 1_555 1_555
O3 Co1 1_555 1_555
O4 C1 1_555 1_555
O5 C9 1_555 1_555
O6 C10 1_555 1_555
Co1 N1 1_555 1_555
C1B C1 1_555 1_555
O3B C1B 1_555 1_555
O4B Co1 1_555 1_555
C2B C2 1_555 1_555
O1B C2B 1_555 1_555
O2B Co1 1_555 1_555
C3B H1B 1_555 1_555
C4B C3B 1_555 1_555
H2B C4B 1_555 1_555
C5B C4B 1_555 1_555
H3B C5B 1_555 1_555
C6B C5B 1_555 1_555
C7B C6B 1_555 1_555
H4B C7B 1_555 1_555
C8B C6B 1_555 1_555
H5B C8B 1_555 1_555
H6B C8B 1_555 1_555
C9B C10B 1_555 1_555
C10B N3B 1_555 1_555
C11B H7B 1_555 1_555
H8B C11B 1_555 1_555
C12B C11B 1_555 1_555
C13B C12B 1_555 1_555
H9B C13B 1_555 1_555
C14B C13B 1_555 1_555
H10B C14B 1_555 1_555
C15B C14B 1_555 1_555
H11B C15B 1_555 1_555
C16B C12B 1_555 1_555
H12B C16B 1_555 1_555
N1B C3B 1_555 1_555
N2B C8B 1_555 1_555
H13B N2B 1_555 1_555
N3B C11B 1_555 1_555
H14B N3B 1_555 1_555
N4B C15B 1_555 1_555
O5B C9B 1_555 1_555
O6B C10B 1_555 1_555
Co1B O2 1_555 1_555
N4A Co1B 1_555 1_555
N4C Co1 1_555 1_555
O3B_2 Co1B 1_555 1_555
O4_2 Co1B 1_555 1_555
Co1A N4B 1_555 1_555
Co1B_2 O4 1_555 1_555
Co1C N4 1_555 1_555
C7 N1 1_555 1_555
C9 N2 1_555 1_555
C16 N4 1_555 1_555
C1B O4B 1_555 1_555
O3B Co1B_2 1_555 1_555
C2B O2B 1_555 1_555
O1B Co1B 1_555 1_555
C7B N1B 1_555 1_555
C9B N2B 1_555 1_555
C16B N4B 1_555 1_555
N1B Co1B 1_555 1_555

#END
