
#######################################################################
#
#                 Cambridge Crystallographic Data Centre
#                                CCDC 
#
#######################################################################
#
# If this CIF has been generated from an entry in the Cambridge 
# Structural Database, then it will include bibliographic, chemical, 
# crystal, experimental, refinement or atomic coordinate data resulting 
# from the CCDC's data processing and validation procedures.
#
#######################################################################

data_WOJWUO
_symmetry_cell_setting           orthorhombic
_symmetry_space_group_name_H-M   'P n n a'
_symmetry_Int_Tables_number      52
_space_group_name_Hall           '-P 2a 2bc'
loop_
_symmetry_equiv_pos_site_id
_symmetry_equiv_pos_as_xyz
1 x,y,z
2 1/2-x,-y,z
3 1/2-x,1/2+y,1/2-z
4 x,1/2-y,1/2-z
5 -x,-y,-z
6 1/2+x,y,-z
7 1/2+x,1/2-y,1/2+z
8 -x,1/2+y,1/2+z
_cell_length_a                   15.9667(2)
_cell_length_b                   54.5343(7)
_cell_length_c                   10.57280(10)
_cell_angle_alpha                90
_cell_angle_beta                 90
_cell_angle_gamma                90
_cell_volume                     9206.08
loop_
_atom_site_label
_atom_site_type_symbol
_atom_site_fract_x
_atom_site_fract_y
_atom_site_fract_z
Cu1 Cu 0.09477(3) 0.2500 0.7500
Cu2 Cu 0.2500 0.0000 0.33765(5)
S1 S 0.42397(5) 0.123259(16) 0.42328(7)
S2 S 0.33084(6) 0.176102(15) 0.44930(8)
C1 C 0.3957(3) 0.2500 0.7500
H1 H 0.4540 0.2500 0.7500
C2 C 0.09037(19) 0.23236(6) 1.0200(3)
H2 H 0.0816 0.2489 1.0369
C3 C -0.0785(2) 0.24374(6) 0.6471(3)
H3 H -0.0496 0.2392 0.5745
C4 C 0.2669(2) 0.23169(6) 0.6999(3)
H4 H 0.2378 0.2186 0.6650
C5 C 0.1118(2) 0.20164(7) 0.8802(3)
H5 H 0.1170 0.1962 0.7972
C6 C 0.0946(2) 0.21638(6) 1.1203(3)
H6 H 0.0879 0.2220 1.2027
C7 C 0.1085(2) 0.19250(7) 1.0978(3)
H7 H 0.1111 0.1814 1.1645
C8 C -0.1641(2) 0.24374(7) 0.6434(3)
H8 H -0.1923 0.2395 0.5695
C9 C 0.1187(3) 0.18468(7) 0.9756(3)
H9 H 0.1300 0.1683 0.9578
C10 C 0.3531(2) 0.23113(7) 0.6968(3)
H10 H 0.3814 0.2181 0.6591
C11 C 0.29279(19) 0.10604(5) 0.5650(3)
C12 C 0.2148(2) 0.15141(6) 0.5864(3)
C13 C 0.07861(19) 0.20414(6) 0.5104(3)
C14 C 0.22155(18) 0.10829(6) 0.6437(3)
C15 C 0.18235(18) 0.13133(6) 0.6551(3)
C16 C 0.32755(17) 0.12601(5) 0.5064(3)
C17 C 0.28692(19) 0.14935(5) 0.5147(3)
C18 C 0.1163(2) 0.17883(6) 0.4987(3)
H11 H 0.0718 0.1667 0.5011
H12 H 0.1445 0.1774 0.4178
C19 C 0.4945(2) 0.13024(7) 0.6579(3)
H13 H 0.4620 0.1444 0.6625
C20 C 0.49076(19) 0.11556(6) 0.5522(3)
C21 C 0.1894(2) 0.08799(6) 0.7111(3)
H14 H 0.2138 0.0726 0.7025
C22 C 0.2810(2) 0.15373(6) 0.2254(3)
H15 H 0.2434 0.1444 0.2723
C23 C 0.3336(2) 0.17000(6) 0.2856(3)
C24 C 0.0840(2) 0.11418(8) 0.8009(3)
H16 H 0.0384 0.1160 0.8548
C25 C 0.1124(2) 0.13378(7) 0.7354(3)
H17 H 0.0858 0.1489 0.7433
C26 C 0.3373(3) 0.16538(8) 0.0226(4)
C27 C 0.5418(2) 0.09514(7) 0.5460(3)
H18 H 0.5405 0.0853 0.4742
C28 C 0.5945(2) 0.08915(7) 0.6445(4)
H19 H 0.6293 0.0755 0.6388
C29 C 0.2842(2) 0.15117(7) 0.0936(4)
H20 H 0.2500 0.1397 0.0538
C30 C 0.5949(3) 0.10340(9) 0.7500(4)
C31 C 0.1223(2) 0.09115(8) 0.7888(3)
H21 H 0.1016 0.0779 0.8344
C32 C 0.5461(3) 0.12411(8) 0.7563(4)
H22 H 0.5482 0.1340 0.8278
C33 C 0.3897(2) 0.18344(7) 0.2140(3)
H23 H 0.4273 0.1940 0.2537
C34 C 0.3903(3) 0.18129(7) 0.0833(4)
H24 H 0.4272 0.1908 0.0360
C35 C 0.32181(19) 0.07058(5) 0.4409(3)
H25 H 0.3766 0.0694 0.4018
H26 H 0.2863 0.0802 0.3853
C36 C -0.0478(3) 0.01184(8) 0.3347(4)
H27 H -0.1055 0.0140 0.3332
C37 C 0.28548(19) 0.04509(6) 0.4527(4)
C38 C 0.0865(2) 0.02259(6) 0.4107(3)
H28 H 0.1192 0.0326 0.4621
C39 C 0.0746(2) -0.00884(7) 0.2701(3)
H29 H 0.0991 -0.0212 0.2218
C40 C 0.0013(3) 0.02639(7) 0.4083(4)
H30 H -0.0226 0.0388 0.4566
C41 C -0.0113(3) -0.00590(8) 0.2634(3)
H31 H -0.0435 -0.0159 0.2112
C42 C 0.2426(4) 0.02054(12) -0.0862(5)
H32 H 0.2374 0.0354 -0.1288
C43 C 0.2500 0.0000 -0.1496(7)
H33 H 0.2500 0.0000 -0.2376
C44 C 0.2427(3) 0.01995(8) 0.0452(4)
H34 H 0.2371 0.0347 0.0883
N1 N 0.2229(2) 0.2500 0.7500
N2 N -0.0339(2) 0.2500 0.7500
N3 N 0.09824(14) 0.22534(5) 0.8989(2)
N4 N 0.12439(16) 0.00507(5) 0.3421(2)
N5 N 0.2500 0.0000 0.1116(4)
O1 O 0.32980(12) 0.08315(3) 0.55907(17)
O2 O 0.09220(12) 0.21600(3) 0.61040(17)
O3 O 0.26947(13) 0.03535(4) 0.3445(2)
O4 O 0.17523(13) 0.17381(4) 0.59893(17)
O5 O 0.03532(14) 0.21068(4) 0.41854(19)
O6 O 0.27361(14) 0.03553(4) 0.5562(2)
O7 O 0.3385(3) 0.16284(9) -0.1169(4)
O8 O 0.6430(3) 0.09923(10) 0.8661(4)
C45 C 0.6769(7) 0.07966(19) 0.8779(11)
H35 H 0.6355 0.0669 0.8769
H36 H 0.7066 0.0792 0.9568
H37 H 0.7155 0.0772 0.8095
C46 C 0.3506(17) 0.1769(5) -0.1793(15)
H38 H 0.3721 0.1703 -0.2569
H39 H 0.3912 0.1878 -0.1431
H40 H 0.2998 0.1857 -0.1962
C47 C -0.2079(3) 0.2500 0.7500
H41 H -0.2661 0.2500 0.7500
Cu2B Cu 0.2500 0.5000 1.16235(5)
S1C S 0.42397(5) 0.376741(16) 1.07672(7)
S2C S 0.33084(6) 0.323898(15) 1.05070(8)
C2C C 0.09037(19) 0.26764(6) 0.4800(3)
H2C H 0.0816 0.2511 0.4631
C3C C -0.0785(2) 0.25626(6) 0.8529(3)
H3C H -0.0496 0.2608 0.9255
C4C C 0.2669(2) 0.26831(6) 0.8001(3)
H4C H 0.2378 0.2814 0.8350
C5C C 0.1118(2) 0.29836(7) 0.6198(3)
H5C H 0.1170 0.3038 0.7028
C6C C 0.0946(2) 0.28362(6) 0.3797(3)
H6C H 0.0879 0.2780 0.2973
C7C C 0.1085(2) 0.30750(7) 0.4022(3)
H7C H 0.1111 0.3186 0.3355
C8C C -0.1641(2) 0.25626(7) 0.8566(3)
H8C H -0.1923 0.2605 0.9305
C9C C 0.1187(3) 0.31532(7) 0.5244(3)
H9C H 0.1300 0.3317 0.5422
C10C C 0.3531(2) 0.26887(7) 0.8032(3)
H10C H 0.3814 0.2819 0.8409
C11C C 0.29279(19) 0.39396(5) 0.9350(3)
C12C C 0.2148(2) 0.34859(6) 0.9136(3)
C13C C 0.07861(19) 0.29586(6) 0.9896(3)
C14C C 0.22155(18) 0.39171(6) 0.8563(3)
C15C C 0.18235(18) 0.36867(6) 0.8449(3)
C16C C 0.32755(17) 0.37399(5) 0.9936(3)
C17C C 0.28692(19) 0.35065(5) 0.9853(3)
C18C C 0.1163(2) 0.32117(6) 1.0013(3)
H11C H 0.0718 0.3333 0.9989
H12C H 0.1445 0.3226 1.0822
C19C C 0.4945(2) 0.36976(7) 0.8421(3)
H13C H 0.4620 0.3556 0.8375
C20C C 0.49076(19) 0.38444(6) 0.9478(3)
C21C C 0.1894(2) 0.41201(6) 0.7889(3)
H14C H 0.2138 0.4274 0.7975
C22C C 0.2810(2) 0.34627(6) 1.2746(3)
H15C H 0.2434 0.3556 1.2277
C23C C 0.3336(2) 0.33000(6) 1.2144(3)
C24C C 0.0840(2) 0.38582(8) 0.6991(3)
H16C H 0.0384 0.3840 0.6452
C25C C 0.1124(2) 0.36622(7) 0.7646(3)
H17C H 0.0858 0.3511 0.7567
C26C C 0.3373(3) 0.33462(8) 1.4774(4)
C27C C 0.5418(2) 0.40486(7) 0.9540(3)
H18C H 0.5405 0.4147 1.0258
C28C C 0.5945(2) 0.41085(7) 0.8555(4)
H19C H 0.6293 0.4245 0.8612
C29C C 0.2842(2) 0.34883(7) 1.4064(4)
H20C H 0.2500 0.3603 1.4462
C30C C 0.5949(3) 0.39660(9) 0.7500(4)
C31C C 0.1223(2) 0.40885(8) 0.7112(3)
H21C H 0.1016 0.4221 0.6656
C32C C 0.5461(3) 0.37589(8) 0.7437(4)
H22C H 0.5482 0.3660 0.6722
C33C C 0.3897(2) 0.31656(7) 1.2860(3)
H23C H 0.4273 0.3060 1.2463
C34C C 0.3903(3) 0.31871(7) 1.4167(4)
H24C H 0.4272 0.3092 1.4640
C35C C 0.32181(19) 0.42942(5) 1.0591(3)
H25C H 0.3766 0.4306 1.0982
H26C H 0.2863 0.4198 1.1147
C36A C 0.5478(3) -0.01184(8) 0.3347(4)
H27A H 0.6055 -0.0140 0.3332
C37C C 0.28548(19) 0.45491(6) 1.0473(4)
C38A C 0.4135(2) -0.02259(6) 0.4107(3)
H28A H 0.3808 -0.0326 0.4621
C39A C 0.4254(2) 0.00884(7) 0.2701(3)
H29A H 0.4009 0.0212 0.2218
C40A C 0.4987(3) -0.02639(7) 0.4083(4)
H30A H 0.5226 -0.0388 0.4566
C41A C 0.5113(3) 0.00590(8) 0.2634(3)
H31A H 0.5435 0.0159 0.2112
C42A C 0.2574(4) -0.02054(12) -0.0862(5)
H32A H 0.2626 -0.0354 -0.1288
C44A C 0.2573(3) -0.01995(8) 0.0452(4)
H34A H 0.2629 -0.0347 0.0883
N3C N 0.09824(14) 0.27466(5) 0.6011(2)
N4A N 0.37561(16) -0.00507(5) 0.3421(2)
O1C O 0.32980(12) 0.41685(3) 0.94093(17)
O2C O 0.09220(12) 0.28400(3) 0.88960(17)
O3C O 0.26947(13) 0.46465(4) 1.1555(2)
O3A O 0.23053(13) -0.03535(4) 0.3445(2)
O4C O 0.17523(13) 0.32619(4) 0.90107(17)
O5C O 0.03532(14) 0.28932(4) 1.08146(19)
O6C O 0.27361(14) 0.46447(4) 0.9438(2)
O7C O 0.3385(3) 0.33716(9) 1.6169(4)
O8C O 0.6430(3) 0.40077(10) 0.6339(4)
C45C C 0.6769(7) 0.42034(19) 0.6221(11)
H35C H 0.6355 0.4331 0.6231
H36C H 0.7066 0.4208 0.5432
H37C H 0.7155 0.4228 0.6905
C46C C 0.3506(17) 0.3231(5) 1.6793(15)
H38C H 0.3721 0.3297 1.7569
H39C H 0.3912 0.3122 1.6431
H40C H 0.2998 0.3143 1.6962
N6 N 0.0439(4) 0.94516(9) 1.0551(6)
C48 C 0.0767(4) 0.92701(18) 1.1041(5)
H42 H 0.0750 0.9258 1.1918
C49 C 0.0873(4) 0.93043(17) 0.8606(5)
H43 H 0.0904 0.9326 0.7735
C50 C 0.1202(4) 0.91118(14) 0.9141(11)
H44 H 0.1472 0.8992 0.8667
C51 C 0.0504(4) 0.94649(12) 0.9310(7)
H45 H 0.0266 0.9600 0.8912
C52 C 0.1135(4) 0.90935(17) 1.0418(10)
H46 H 0.1348 0.8958 1.0842
loop_
_geom_bond_atom_site_label_1
_geom_bond_atom_site_label_2
_geom_bond_site_symmetry_1
_geom_bond_site_symmetry_2
Cu1 N1 1_555 1_555
Cu2 N4 1_555 1_555
S1 C16 1_555 1_555
S2 C17 1_555 1_555
C1 H1 1_555 1_555
C2 H2 1_555 1_555
C3 H3 1_555 1_555
C4 H4 1_555 1_555
C5 H5 1_555 1_555
C6 C2 1_555 1_555
H6 C6 1_555 1_555
C7 C6 1_555 1_555
H7 C7 1_555 1_555
C8 C3 1_555 1_555
H8 C8 1_555 1_555
C9 C5 1_555 1_555
H9 C9 1_555 1_555
C10 C1 1_555 1_555
H10 C10 1_555 1_555
C11 C14 1_555 1_555
C12 C15 1_555 1_555
C13 C18 1_555 1_555
C14 C15 1_555 1_555
C15 C25 1_555 1_555
C16 C11 1_555 1_555
C17 C12 1_555 1_555
C18 H11 1_555 1_555
H12 C18 1_555 1_555
C19 H13 1_555 1_555
C20 S1 1_555 1_555
C21 C14 1_555 1_555
H14 C21 1_555 1_555
C22 H15 1_555 1_555
C23 S2 1_555 1_555
C24 H16 1_555 1_555
C25 C24 1_555 1_555
H17 C25 1_555 1_555
C26 C29 1_555 1_555
C27 C20 1_555 1_555
H18 C27 1_555 1_555
C28 C27 1_555 1_555
H19 C28 1_555 1_555
C29 C22 1_555 1_555
H20 C29 1_555 1_555
C30 C28 1_555 1_555
C31 C21 1_555 1_555
H21 C31 1_555 1_555
C32 C19 1_555 1_555
H22 C32 1_555 1_555
C33 C23 1_555 1_555
H23 C33 1_555 1_555
C34 C26 1_555 1_555
H24 C34 1_555 1_555
C35 H25 1_555 1_555
H26 C35 1_555 1_555
C36 H27 1_555 1_555
C37 C35 1_555 1_555
C38 H28 1_555 1_555
C39 H29 1_555 1_555
C40 C36 1_555 1_555
H30 C40 1_555 1_555
C41 C36 1_555 1_555
H31 C41 1_555 1_555
C42 H32 1_555 1_555
C43 C42 1_555 1_555
H33 C43 1_555 1_555
C44 C42 1_555 1_555
H34 C44 1_555 1_555
N1 C4 1_555 1_555
N2 Cu1 1_555 1_555
N3 Cu1 1_555 1_555
N4 C38 1_555 1_555
N5 Cu2 1_555 1_555
O1 C11 1_555 1_555
O2 Cu1 1_555 1_555
O3 Cu2 1_555 1_555
O4 C12 1_555 1_555
O5 C13 1_555 1_555
O6 C37 1_555 1_555
O7 C26 1_555 1_555
O8 C30 1_555 1_555
C45 O8 1_555 1_555
H35 C45 1_555 1_555
H36 C45 1_555 1_555
H37 C45 1_555 1_555
C46 O7 1_555 1_555
H38 C46 1_555 1_555
H39 C46 1_555 1_555
H40 C46 1_555 1_555
C47 C8 1_555 1_555
H41 C47 1_555 1_555
N6 C48 1_555 1_555
C48 H42 1_555 1_555
C49 H43 1_555 1_555
C50 C49 1_555 1_555
H44 C50 1_555 1_555
C51 N6 1_555 1_555
H45 C51 1_555 1_555
C52 C48 1_555 1_555
H46 C52 1_555 1_555
Cu2B O3C 1_555 1_555
S1C C16C 1_555 1_555
S2C C17C 1_555 1_555
C2C H2C 1_555 1_555
C3C N2 1_555 1_555
H3C C3C 1_555 1_555
C4C N1 1_555 1_555
H4C C4C 1_555 1_555
C5C H5C 1_555 1_555
C6C C2C 1_555 1_555
H6C C6C 1_555 1_555
C7C C6C 1_555 1_555
H7C C7C 1_555 1_555
C8C C47 1_555 1_555
H8C C8C 1_555 1_555
C9C C5C 1_555 1_555
H9C C9C 1_555 1_555
C10C C1 1_555 1_555
H10C C10C 1_555 1_555
C11C C14C 1_555 1_555
C12C C15C 1_555 1_555
C13C C18C 1_555 1_555
C14C C15C 1_555 1_555
C15C C25C 1_555 1_555
C16C C11C 1_555 1_555
C17C C12C 1_555 1_555
C18C H11C 1_555 1_555
H12C C18C 1_555 1_555
C19C H13C 1_555 1_555
C20C S1C 1_555 1_555
C21C C14C 1_555 1_555
H14C C21C 1_555 1_555
C22C H15C 1_555 1_555
C23C S2C 1_555 1_555
C24C H16C 1_555 1_555
C25C C24C 1_555 1_555
H17C C25C 1_555 1_555
C26C C29C 1_555 1_555
C27C C20C 1_555 1_555
H18C C27C 1_555 1_555
C28C C27C 1_555 1_555
H19C C28C 1_555 1_555
C29C C22C 1_555 1_555
H20C C29C 1_555 1_555
C30C C28C 1_555 1_555
C31C C21C 1_555 1_555
H21C C31C 1_555 1_555
C32C C19C 1_555 1_555
H22C C32C 1_555 1_555
C33C C23C 1_555 1_555
H23C C33C 1_555 1_555
C34C C26C 1_555 1_555
H24C C34C 1_555 1_555
C35C H25C 1_555 1_555
H26C C35C 1_555 1_555
C36A H27A 1_555 1_555
C37C C35C 1_555 1_555
C38A H28A 1_555 1_555
C39A H29A 1_555 1_555
C40A C36A 1_555 1_555
H30A C40A 1_555 1_555
C41A C36A 1_555 1_555
H31A C41A 1_555 1_555
C42A C43 1_555 1_555
H32A C42A 1_555 1_555
C44A N5 1_555 1_555
H34A C44A 1_555 1_555
N3C Cu1 1_555 1_555
N4A Cu2 1_555 1_555
O1C C11C 1_555 1_555
O2C Cu1 1_555 1_555
O3C C37C 1_555 1_555
O3A Cu2 1_555 1_555
O4C C12C 1_555 1_555
O5C C13C 1_555 1_555
O6C C37C 1_555 1_555
O7C C26C 1_555 1_555
O8C C30C 1_555 1_555
C45C O8C 1_555 1_555
H35C C45C 1_555 1_555
H36C C45C 1_555 1_555
H37C C45C 1_555 1_555
C46C O7C 1_555 1_555
H38C C46C 1_555 1_555
H39C C46C 1_555 1_555
H40C C46C 1_555 1_555
C2 N3 1_555 1_555
C3 N2 1_555 1_555
C4 C10 1_555 1_555
C5 N3 1_555 1_555
C7 C9 1_555 1_555
C13 O2 1_555 1_555
C16 C17 1_555 1_555
C18 O4 1_555 1_555
C19 C20 1_555 1_555
C22 C23 1_555 1_555
C24 C31 1_555 1_555
C30 C32 1_555 1_555
C33 C34 1_555 1_555
C35 O1 1_555 1_555
C37 O3 1_555 1_555
C38 C40 1_555 1_555
C39 C41 1_555 1_555
C39 N4 1_555 1_555
C44 N5 1_555 1_555
C49 C51 1_555 1_555
C50 C52 1_555 1_555
C2C N3C 1_555 1_555
C3C C8C 1_555 1_555
C4C C10C 1_555 1_555
C5C N3C 1_555 1_555
C7C C9C 1_555 1_555
C13C O2C 1_555 1_555
C16C C17C 1_555 1_555
C18C O4C 1_555 1_555
C19C C20C 1_555 1_555
C22C C23C 1_555 1_555
C24C C31C 1_555 1_555
C30C C32C 1_555 1_555
C33C C34C 1_555 1_555
C35C O1C 1_555 1_555
C38A C40A 1_555 1_555
C38A N4A 1_555 1_555
C39A C41A 1_555 1_555
C39A N4A 1_555 1_555
C42A C44A 1_555 1_555

#END
