
#######################################################################
#
#                 Cambridge Crystallographic Data Centre
#                                CCDC 
#
#######################################################################
#
# If this CIF has been generated from an entry in the Cambridge 
# Structural Database, then it will include bibliographic, chemical, 
# crystal, experimental, refinement or atomic coordinate data resulting 
# from the CCDC's data processing and validation procedures.
#
#######################################################################

data_WOJXIE
_symmetry_cell_setting           orthorhombic
_symmetry_space_group_name_H-M   'P 21 21 21'
_symmetry_Int_Tables_number      19
_space_group_name_Hall           'P 2ac 2ab'
loop_
_symmetry_equiv_pos_site_id
_symmetry_equiv_pos_as_xyz
1 x,y,z
2 1/2-x,-y,1/2+z
3 -x,1/2+y,1/2-z
4 1/2+x,1/2-y,-z
_cell_length_a                   10.517(2)
_cell_length_b                   10.889(2)
_cell_length_c                   15.206(3)
_cell_angle_alpha                90
_cell_angle_beta                 90
_cell_angle_gamma                90
_cell_volume                     1741.39
loop_
_atom_site_label
_atom_site_type_symbol
_atom_site_fract_x
_atom_site_fract_y
_atom_site_fract_z
Zn1 Zn 0.28887(2) 0.91377(2) -0.007130(14)
S1 S 0.83315(5) 1.18943(5) -0.00691(5)
O1 O 0.44620(13) 1.00427(13) 0.01411(10)
O2 O 0.52248(15) 0.88273(14) -0.09032(10)
O3 O 0.74792(14) 0.76229(14) 0.02204(9)
O4 O 0.86992(17) 0.78173(15) -0.09533(12)
C1 C 0.5352(2) 0.96318(18) -0.03406(14)
C2 C 0.6629(2) 1.02301(18) -0.02238(14)
C3 C 0.67665(19) 1.14587(19) -0.00881(17)
H1 H 0.6090 1.1999 -0.0014
C4 C 0.8820(2) 1.04151(19) -0.02386(15)
H2 H 0.9668 1.0179 -0.0278
C5 C 0.7825(2) 0.96245(19) -0.03095(12)
C6 C 0.80195(19) 0.82539(19) -0.03743(13)
C7 C 0.1657(2) 1.0689(2) 0.14427(14)
H3 H 0.2225 1.1342 0.1415
C8 C 0.0653(2) 1.0607(2) 0.19949(16)
H4 H 0.0405 1.1185 0.2411
C9 C 0.0732(2) 0.8965(2) 0.11762(13)
H5 H 0.0529 0.8205 0.0935
C10 C -0.1119(2) 0.9047(2) 0.22103(15)
H6 H -0.0987 0.8893 0.2832
H7 H -0.1345 0.8274 0.1934
C11 C -0.2201(2) 0.9944(2) 0.20985(15)
H8 H -0.2250 1.0188 0.1486
H9 H -0.2025 1.0674 0.2444
C12 C -0.3472(2) 0.9419(2) 0.23778(16)
H10 H -0.3436 0.9191 0.2994
H11 H -0.3650 0.8684 0.2039
C13 C -0.4536(2) 1.0345(2) 0.22402(16)
H12 H -0.4237 1.1154 0.2407
H13 H -0.4758 1.0369 0.1621
C14 C -0.61156(19) 1.0718(2) 0.34270(13)
H14 H -0.5777 1.1469 0.3599
C15 C -0.7293(2) 0.9106(2) 0.33558(13)
H15 H -0.7927 0.8534 0.3474
C16 C -0.6416(2) 0.9020(2) 0.27044(14)
H16 H -0.6336 0.8384 0.2300
N1 N 0.17032(17) 0.96433(17) 0.09250(11)
N2 N 0.00737(17) 0.95049(16) 0.18211(12)
N3 N -0.56771(17) 1.00429(17) 0.27567(12)
N4 N -0.70905(17) 1.01783(15) 0.38127(10)
Zn1A Zn -0.78887(2) 1.08623(2) 0.492870(14)
Zn1C Zn 0.78887(2) 0.58623(2) 0.007130(14)
O3C O 0.24792(14) 0.73771(14) -0.02204(9)
N4A N 0.20905(17) 0.98217(15) -0.11873(10)
loop_
_geom_bond_atom_site_label_1
_geom_bond_atom_site_label_2
_geom_bond_site_symmetry_1
_geom_bond_site_symmetry_2
Zn1 O1 1_555 1_555
S1 C3 1_555 1_555
O1 C1 1_555 1_555
O2 C1 1_555 1_555
O3 C6 1_555 1_555
O4 C6 1_555 1_555
C1 C2 1_555 1_555
C2 C3 1_555 1_555
C3 H1 1_555 1_555
C4 S1 1_555 1_555
H2 C4 1_555 1_555
C5 C2 1_555 1_555
C6 C5 1_555 1_555
C7 H3 1_555 1_555
C8 C7 1_555 1_555
H4 C8 1_555 1_555
C9 H5 1_555 1_555
C10 H6 1_555 1_555
H7 C10 1_555 1_555
C11 C10 1_555 1_555
H8 C11 1_555 1_555
H9 C11 1_555 1_555
C12 C11 1_555 1_555
H10 C12 1_555 1_555
H11 C12 1_555 1_555
C13 C12 1_555 1_555
H12 C13 1_555 1_555
H13 C13 1_555 1_555
C14 H14 1_555 1_555
C15 H15 1_555 1_555
C16 C15 1_555 1_555
H16 C16 1_555 1_555
N1 Zn1 1_555 1_555
N2 C8 1_555 1_555
N3 C13 1_555 1_555
N4 C14 1_555 1_555
Zn1A N4 1_555 1_555
Zn1C O3 1_555 1_555
O3C Zn1 1_555 1_555
N4A Zn1 1_555 1_555
C4 C5 1_555 1_555
C7 N1 1_555 1_555
C9 N1 1_555 1_555
C9 N2 1_555 1_555
C10 N2 1_555 1_555
C14 N3 1_555 1_555
C15 N4 1_555 1_555
C16 N3 1_555 1_555

#END
