
#######################################################################
#
#                 Cambridge Crystallographic Data Centre
#                                CCDC 
#
#######################################################################
#
# If this CIF has been generated from an entry in the Cambridge 
# Structural Database, then it will include bibliographic, chemical, 
# crystal, experimental, refinement or atomic coordinate data resulting 
# from the CCDC's data processing and validation procedures.
#
#######################################################################

data_WOJZAX
_symmetry_cell_setting           rhombohedral
_symmetry_space_group_name_H-M   'R -3'
_symmetry_Int_Tables_number      148
_space_group_name_Hall           '-R 3'
loop_
_symmetry_equiv_pos_site_id
_symmetry_equiv_pos_as_xyz
1 x,y,z
2 -y,x-y,z
3 -x+y,-x,z
4 2/3+x,1/3+y,1/3+z
5 2/3-y,1/3+x-y,1/3+z
6 2/3-x+y,1/3-x,1/3+z
7 1/3+x,2/3+y,2/3+z
8 1/3-y,2/3+x-y,2/3+z
9 1/3-x+y,2/3-x,2/3+z
10 -x,-y,-z
11 y,-x+y,-z
12 x-y,x,-z
13 1/3-x,2/3-y,2/3-z
14 1/3+y,2/3-x+y,2/3-z
15 1/3+x-y,2/3+x,2/3-z
16 2/3-x,1/3-y,1/3-z
17 2/3+y,1/3-x+y,1/3-z
18 2/3+x-y,1/3+x,1/3-z
_cell_length_a                   15.5200(8)
_cell_length_b                   15.5200(8)
_cell_length_c                   19.4176(14)
_cell_angle_alpha                90
_cell_angle_beta                 90
_cell_angle_gamma                120.00
_cell_volume                     4050.51
loop_
_atom_site_label
_atom_site_type_symbol
_atom_site_fract_x
_atom_site_fract_y
_atom_site_fract_z
I1 I 1.0000 1.0000 0.65562(4)
I2 I 1.03235(4) 0.84976(4) 0.84379(3)
Cu1 Cu 0.75831(7) 0.90983(7) 0.66765(6)
Cu2 Cu 1.0000 1.0000 0.86434(14)
Cu3 Cu 0.91413(10) 0.87452(9) 0.76611(8)
N1 N 0.7404(4) 0.7813(4) 0.6813(3)
C1 C 0.7838(7) 0.6050(6) 0.7738(5)
H1 H 0.8439 0.6507 0.7974
H2 H 0.7956 0.5607 0.7461
H3 H 0.7326 0.5673 0.8069
N2 N 0.6725(4) 0.6185(4) 0.6856(3)
C2 C 0.6684(5) 0.6958(5) 0.6579(4)
C3 C 0.7518(5) 0.6614(5) 0.7289(4)
N3 N 0.7943(4) 0.7594(4) 0.7272(3)
O1 O 1.0000 1.0000 1.0000
C4 C 0.5930(7) 0.6870(7) 0.6076(5)
H4 H 0.5986 0.7509 0.6011
H5 H 0.6036 0.6635 0.5644
H6 H 0.5278 0.6408 0.6246
I1I I 1.0000 1.0000 1.34438(4)
I2B I 0.81741(6) 0.96765(4) 0.84379(3)
I2A I 1.15024(4) 1.18259(6) 0.84379(3)
I2I I 0.96765(4) 1.15024(4) 1.15621(3)
I2K I 1.18259(6) 1.03235(4) 1.15621(3)
I2J I 0.84976(4) 0.81741(6) 1.15621(3)
Cu1B Cu 1.15152(10) 1.24169(7) 0.66765(6)
Cu1A Cu 1.09017(7) 0.84848(10) 0.66765(6)
Cu1P Cu 0.57650(7) 0.48485(10) 0.66568(6)
Cu1O Cu 0.90836(7) 1.42350(7) 0.66568(6)
Cu1Q Cu 1.51515(10) 1.09164(7) 0.66568(6)
Cu1Q_2 Cu 0.51515(10) 1.09164(7) 0.66568(6)
Cu1P_2 Cu 1.57650(7) 1.48485(10) 0.66568(6)
Cu1O_2 Cu 0.90836(7) 0.42350(7) 0.66568(6)
Cu2I Cu 1.0000 1.0000 1.13566(14)
Cu3B Cu 0.96039(13) 1.08587(10) 0.76611(8)
Cu3A Cu 1.12548(9) 1.03961(13) 0.76611(8)
Cu3I Cu 1.08587(10) 1.12548(9) 1.23389(8)
Cu3K Cu 1.03961(13) 0.91413(10) 1.23389(8)
Cu3J Cu 0.87452(9) 0.96039(13) 1.23389(8)
Cu3Q Cu 0.70628(13) 1.24746(10) 0.56722(8)
Cu3P Cu 1.54119(9) 1.29372(13) 0.56722(8)
Cu3O Cu 0.75254(10) 0.45881(9) 0.56722(8)
N1B N 1.0409(6) 1.2596(4) 0.6813(3)
N1A N 1.2187(4) 0.9591(6) 0.6813(3)
N1Q N 0.6258(6) 1.0737(4) 0.6520(3)
N1P N 1.4480(4) 1.3742(6) 0.6520(3)
N1O N 0.9263(4) 0.5520(4) 0.6520(3)
N1P_2 N 0.4480(4) 0.3742(6) 0.6520(3)
N1O_2 N 0.9263(4) 1.5520(4) 0.6520(3)
N1Q_2 N 1.6258(6) 1.0737(4) 0.6520(3)
C1B C 0.8212(9) 1.2162(7) 0.7738(5)
C1A C 1.3950(6) 1.1788(9) 0.7738(5)
C1Q C 0.8455(9) 1.1171(7) 0.5595(5)
C1P C 1.2717(6) 1.1545(9) 0.5595(5)
C1O C 0.8829(7) 0.7283(6) 0.5595(5)
H1B H 0.8068 1.1561 0.7974
H1A H 1.3493 1.1932 0.7974
H1Q H 0.8599 1.1772 0.5359
H1P H 1.3174 1.1401 0.5359
H1O H 0.8228 0.6826 0.5359
H2B H 0.7651 1.2044 0.7461
H2A H 1.4393 1.2349 0.7461
H2Q H 0.9016 1.1289 0.5872
H2P H 1.2274 1.0984 0.5872
H2O H 0.8711 0.7726 0.5872
H3B H 0.8347 1.2674 0.8069
H3A H 1.4327 1.1653 0.8069
H3Q H 0.8320 1.0659 0.5264
H3P H 1.2340 1.1680 0.5264
H3O H 0.9341 0.7660 0.5264
N2B N 0.9460(6) 1.3275(4) 0.6856(3)
N2A N 1.3815(4) 1.0540(6) 0.6856(3)
N2Q N 0.7207(6) 1.0058(4) 0.6477(3)
N2P N 1.2852(4) 1.2793(6) 0.6477(3)
N2O N 0.9942(4) 0.7148(4) 0.6477(3)
C2B C 1.0274(7) 1.3316(5) 0.6579(4)
C2A C 1.3042(5) 0.9726(7) 0.6579(4)
C2Q C 0.6393(7) 1.0017(5) 0.6754(4)
C2P C 1.3625(5) 1.3607(7) 0.6754(4)
C2O C 0.9983(5) 0.6375(5) 0.6754(4)
C3B C 0.9096(7) 1.2482(5) 0.7289(4)
C3A C 1.3386(5) 1.0904(7) 0.7289(4)
C3Q C 0.7571(7) 1.0851(5) 0.6044(4)
C3P C 1.3281(5) 1.2429(7) 0.6044(4)
C3O C 0.9149(5) 0.6719(5) 0.6044(4)
N3B N 0.9651(6) 1.2057(4) 0.7272(3)
N3A N 1.2406(4) 1.0349(6) 0.7272(3)
N3Q N 0.7016(6) 1.1276(4) 0.6061(3)
N3P N 1.4261(4) 1.2984(6) 0.6061(3)
N3O N 0.8724(4) 0.5739(4) 0.6061(3)
N3I N 1.2057(4) 1.2406(4) 1.2728(3)
N3K N 1.0349(6) 0.7943(4) 1.2728(3)
N3J N 0.7594(4) 0.9651(6) 1.2728(3)
C4B C 1.0940(10) 1.4070(7) 0.6076(5)
C4A C 1.3130(7) 0.9060(10) 0.6076(5)
C4Q C 0.5727(10) 0.9263(7) 0.7257(5)
C4P C 1.3537(7) 1.4273(10) 0.7257(5)
C4O C 1.0737(7) 0.6463(7) 0.7257(5)
H4B H 1.1523 1.4014 0.6011
H4A H 1.2491 0.8477 0.6011
H4Q H 0.5144 0.9319 0.7322
H4P H 1.4176 1.4856 0.7322
H4O H 1.0681 0.5824 0.7322
H5B H 1.0599 1.3964 0.5644
H5A H 1.3365 0.9401 0.5644
H5Q H 0.6068 0.9369 0.7689
H5P H 1.3302 1.3932 0.7689
H5O H 1.0631 0.6698 0.7689
H6B H 1.1130 1.4722 0.6246
H6A H 1.3592 0.8870 0.6246
H6Q H 0.5537 0.8611 0.7087
H6P H 1.3075 1.4463 0.7087
H6O H 1.1389 0.6925 0.7087
loop_
_geom_bond_atom_site_label_1
_geom_bond_atom_site_label_2
_geom_bond_site_symmetry_1
_geom_bond_site_symmetry_2
I1 Cu3 1_555 1_555
I2 Cu2 1_555 1_555
Cu1 N1 1_555 1_555
Cu2 O1 1_555 1_555
Cu3 I2 1_555 1_555
N1 C2 1_555 1_555
C1 H1 1_555 1_555
H2 C1 1_555 1_555
H3 C1 1_555 1_555
N2 C2 1_555 1_555
C2 C4 1_555 1_555
C3 C1 1_555 1_555
N3 Cu3 1_555 1_555
O1 Cu2I 1_555 1_555
C4 H4 1_555 1_555
H5 C4 1_555 1_555
H6 C4 1_555 1_555
I1I Cu3I 1_555 1_555
I2B Cu2 1_555 1_555
I2A Cu2 1_555 1_555
I2I Cu2I 1_555 1_555
I2K Cu2I 1_555 1_555
I2J Cu2I 1_555 1_555
Cu1B N1B 1_555 1_555
Cu1A N1A 1_555 1_555
Cu1P N2 1_555 1_555
Cu1O N1O_2 1_555 1_555
Cu1Q N1Q_2 1_555 1_555
Cu1Q_2 N1Q 1_555 1_555
Cu1P_2 N1P 1_555 1_555
Cu1O_2 N1O 1_555 1_555
Cu3B I1 1_555 1_555
Cu3A I1 1_555 1_555
Cu3I I2I 1_555 1_555
Cu3K I1I 1_555 1_555
Cu3J I1I 1_555 1_555
Cu3Q N3Q 1_555 1_555
Cu3P N3P 1_555 1_555
Cu3O N3O 1_555 1_555
N1B C2B 1_555 1_555
N1A C2A 1_555 1_555
N1Q C2Q 1_555 1_555
N1P C2P 1_555 1_555
N1O C2O 1_555 1_555
N1P_2 Cu1P 1_555 1_555
C1B H1B 1_555 1_555
C1A H1A 1_555 1_555
C1Q H1Q 1_555 1_555
C1P H1P 1_555 1_555
C1O H1O 1_555 1_555
H2B C1B 1_555 1_555
H2A C1A 1_555 1_555
H2Q C1Q 1_555 1_555
H2P C1P 1_555 1_555
H2O C1O 1_555 1_555
H3B C1B 1_555 1_555
H3A C1A 1_555 1_555
H3Q C1Q 1_555 1_555
H3P C1P 1_555 1_555
H3O C1O 1_555 1_555
N2B Cu1O 1_555 1_555
N2A Cu1Q 1_555 1_555
N2Q Cu1 1_555 1_555
N2P Cu1B 1_555 1_555
N2O Cu1A 1_555 1_555
C2B N2B 1_555 1_555
C2A N2A 1_555 1_555
C2Q N2Q 1_555 1_555
C2P N2P 1_555 1_555
C2O N2O 1_555 1_555
C3B C1B 1_555 1_555
C3A C1A 1_555 1_555
C3Q C1Q 1_555 1_555
C3P C1P 1_555 1_555
C3O C1O 1_555 1_555
N3B Cu3B 1_555 1_555
N3A Cu3A 1_555 1_555
N3Q N1Q 1_555 1_555
N3P N1P 1_555 1_555
N3O N1O 1_555 1_555
N3I Cu3I 1_555 1_555
N3K Cu3K 1_555 1_555
N3J Cu3J 1_555 1_555
C4B C2B 1_555 1_555
C4A C2A 1_555 1_555
C4Q C2Q 1_555 1_555
C4P C2P 1_555 1_555
C4O C2O 1_555 1_555
H4B C4B 1_555 1_555
H4A C4A 1_555 1_555
H4Q C4Q 1_555 1_555
H4P C4P 1_555 1_555
H4O C4O 1_555 1_555
H5B C4B 1_555 1_555
H5A C4A 1_555 1_555
H5Q C4Q 1_555 1_555
H5P C4P 1_555 1_555
H5O C4O 1_555 1_555
H6B C4B 1_555 1_555
H6A C4A 1_555 1_555
H6Q C4Q 1_555 1_555
H6P C4P 1_555 1_555
H6O C4O 1_555 1_555
I2 Cu3A 1_555 1_555
Cu3 I2B 1_555 1_555
N1 N3 1_555 1_555
N2 C3 1_555 1_555
C3 N3 1_555 1_555
I2B Cu3B 1_555 1_555
I2A Cu3B 1_555 1_555
I2A Cu3A 1_555 1_555
I2I Cu3J 1_555 1_555
I2K Cu3I 1_555 1_555
I2K Cu3K 1_555 1_555
I2J Cu3K 1_555 1_555
I2J Cu3J 1_555 1_555
N1B N3B 1_555 1_555
N1A N3A 1_555 1_555
N2B C3B 1_555 1_555
N2A C3A 1_555 1_555
N2Q C3Q 1_555 1_555
N2P C3P 1_555 1_555
N2O C3O 1_555 1_555
C3B N3B 1_555 1_555
C3A N3A 1_555 1_555
C3Q N3Q 1_555 1_555
C3P N3P 1_555 1_555
C3O N3O 1_555 1_555

#END
