
#######################################################################
#
#                 Cambridge Crystallographic Data Centre
#                                CCDC 
#
#######################################################################
#
# If this CIF has been generated from an entry in the Cambridge 
# Structural Database, then it will include bibliographic, chemical, 
# crystal, experimental, refinement or atomic coordinate data resulting 
# from the CCDC's data processing and validation procedures.
#
#######################################################################

data_WOJZOK
_symmetry_cell_setting           monoclinic
_symmetry_space_group_name_H-M   'C 2'
_symmetry_Int_Tables_number      5
_space_group_name_Hall           'C 2y'
loop_
_symmetry_equiv_pos_site_id
_symmetry_equiv_pos_as_xyz
1 x,y,z
2 -x,y,-z
3 1/2+x,1/2+y,z
4 1/2-x,1/2+y,-z
_cell_length_a                   21.4550(2)
_cell_length_b                   8.8584(2)
_cell_length_c                   13.2661(2)
_cell_angle_alpha                90
_cell_angle_beta                 93.8150(10)
_cell_angle_gamma                90
_cell_volume                     2515.73
loop_
_atom_site_label
_atom_site_type_symbol
_atom_site_fract_x
_atom_site_fract_y
_atom_site_fract_z
Zn1 Zn -0.5000 0.50718(10) 0.0000
Zn2 Zn 0.0000 -0.41993(10) -0.5000
O1 O -0.0526(2) -0.3595(7) -0.3794(4)
O2 O -0.0805(3) -0.2493(8) -0.5196(4)
O3 O -0.4471(2) -1.3831(7) -0.8993(4)
O4 O -0.3946(3) -1.3526(10) -1.0347(4)
N1 N -0.4560(2) 0.3498(7) -0.0870(4)
N2 N -0.0527(2) -0.5804(7) -0.5830(4)
C1 C -0.0860(3) -0.2682(8) -0.4270(6)
C2 C -0.1363(3) -0.1856(8) -0.3762(5)
C3 C -0.1805(4) -0.1022(10) -0.4299(7)
H1 H -0.1795(4) -0.0954(10) -0.4997(7)
C4 C -0.2273(4) -0.0265(10) -0.3809(7)
H2 H -0.2576(4) 0.0282(10) -0.4186(7)
C5 C -0.2287(3) -0.0328(9) -0.2777(7)
C6 C -0.1831(4) -0.1145(11) -0.2240(7)
H3 H -0.1833(4) -0.1182(11) -0.1540(7)
C7 C -0.1369(3) -0.1914(10) -0.2711(5)
H4 H -0.1067(3) -0.2461(10) -0.2332(5)
C8 C -0.2764(4) 0.0424(10) -0.2203(8)
H5 H -0.2716(4) 0.0345(10) -0.1503(8)
C9 C -0.3235(4) 0.1168(11) -0.2563(8)
H6 H -0.3290(4) 0.1252(11) -0.3262(8)
C10 C -0.3704(3) 0.1916(9) -0.1951(6)
C11 C -0.4134(3) 0.2880(10) -0.2423(6)
H7 H -0.4144(3) 0.3015(10) -0.3119(6)
C12 C -0.4548(3) 0.3638(9) -0.1864(5)
H8 H -0.4835(3) 0.4283(9) -0.2198(5)
C13 C -0.4170(4) 0.2531(11) -0.0410(6)
H9 H -0.4194(4) 0.2376(11) 0.0279(6)
C14 C -0.3726(4) 0.1735(11) -0.0905(7)
H10 H -0.3449(4) 0.1092(11) -0.0550(7)
C15 C -0.4017(3) -1.3286(9) -0.9448(6)
C16 C -0.3567(3) -1.2254(9) -0.8866(5)
C17 C -0.3057(3) -1.1685(9) -0.9344(5)
H11 H -0.3001(3) -1.1935(9) -1.0013(5)
C18 C -0.2634(3) -1.0745(9) -0.8817(6)
H12 H -0.2301(3) -1.0350(9) -0.9146(6)
C19 C -0.2695(3) -1.0378(9) -0.7810(6)
C20 C -0.3219(4) -1.0960(12) -0.7365(7)
H13 H -0.3286(4) -1.0691(12) -0.6704(7)
C21 C -0.3639(4) -1.1914(11) -0.7870(7)
H14 H -0.3968(4) -1.2324(11) -0.7540(7)
C22 C -0.2263(3) -0.9390(10) -0.7206(6)
H15 H -0.2368(3) -0.9132(10) -0.6559(6)
C23 C -0.1744(3) -0.8853(9) -0.7516(6)
H16 H -0.1635(3) -0.9118(9) -0.8159(6)
C24 C -0.1316(3) -0.7845(9) -0.6903(6)
C25 C -0.0824(3) -0.7159(9) -0.7343(6)
H17 H -0.0744(3) -0.7376(9) -0.8008(6)
C26 C -0.0448(3) -0.6142(8) -0.6783(5)
H18 H -0.0124(3) -0.5674(8) -0.7095(5)
C27 C -0.0990(4) -0.6504(11) -0.5386(6)
H19 H -0.1046(4) -0.6289(11) -0.4712(6)
C28 C -0.1387(3) -0.7531(10) -0.5881(6)
H20 H -0.1697(3) -0.8007(10) -0.5540(6)
O3A O -0.5529(2) 0.6169(7) -0.1007(4)
N1A N -0.5440(2) 0.3498(7) 0.0870(4)
O1A O 0.0526(2) -0.3595(7) -0.6206(4)
O2A O 0.0805(3) -0.2493(8) -0.4804(4)
N2A N 0.0527(2) -0.5804(7) -0.4170(4)
C1A C 0.0860(3) -0.2682(8) -0.5730(6)
C26A C 0.0448(3) -0.6142(8) -0.3217(5)
C27A C 0.0990(4) -0.6504(11) -0.4614(6)
C2A C 0.1363(3) -0.1856(8) -0.6238(5)
C25A C 0.0824(3) -0.7159(9) -0.2657(6)
H18A H 0.0124(3) -0.5674(8) -0.2905(5)
H19A H 0.1046(4) -0.6289(11) -0.5288(6)
C28A C 0.1387(3) -0.7531(10) -0.4119(6)
C3A C 0.1805(4) -0.1022(10) -0.5701(7)
C7A C 0.1369(3) -0.1914(10) -0.7289(5)
C24A C 0.1316(3) -0.7845(9) -0.3097(6)
H17A H 0.0744(3) -0.7376(9) -0.1992(6)
H20A H 0.1697(3) -0.8007(10) -0.4460(6)
H1A H 0.1795(4) -0.0954(10) -0.5003(7)
C4A C 0.2273(4) -0.0265(10) -0.6191(7)
C6A C 0.1831(4) -0.1145(11) -0.7760(7)
H4A H 0.1067(3) -0.2461(10) -0.7668(5)
C23A C 0.1744(3) -0.8853(9) -0.2484(6)
H2A H 0.2576(4) 0.0282(10) -0.5814(7)
C5A C 0.2287(3) -0.0328(9) -0.7223(7)
H3A H 0.1833(4) -0.1182(11) -0.8460(7)
C22A C 0.2263(3) -0.9390(10) -0.2794(6)
H16A H 0.1635(3) -0.9118(9) -0.1841(6)
C8A C 0.2764(4) 0.0424(10) -0.7797(8)
C19A C 0.2695(3) -1.0378(9) -0.2190(6)
H15A H 0.2368(3) -0.9132(10) -0.3441(6)
H5A H 0.2716(4) 0.0345(10) -0.8497(8)
C9A C 0.3235(4) 0.1168(11) -0.7437(8)
C18A C 0.2634(3) -1.0745(9) -0.1183(6)
C20A C 0.3219(4) -1.0960(12) -0.2635(7)
H6A H 0.3290(4) 0.1252(11) -0.6738(8)
C10A C 0.3704(3) 0.1916(9) -0.8049(6)
C17A C 0.3057(3) -1.1685(9) -0.0656(5)
H12A H 0.2301(3) -1.0350(9) -0.0854(6)
H13A H 0.3286(4) -1.0691(12) -0.3296(7)
C21A C 0.3639(4) -1.1914(11) -0.2130(7)
C11A C 0.4134(3) 0.2880(10) -0.7577(6)
C14A C 0.3726(4) 0.1735(11) -0.9095(7)
C16A C 0.3567(3) -1.2254(9) -0.1134(5)
H11A H 0.3001(3) -1.1935(9) 0.0013(5)
H14A H 0.3968(4) -1.2324(11) -0.2460(7)
O3_2 O -0.4471(2) 0.6169(7) 0.1007(4)
H7A H 0.4144(3) 0.3015(10) -0.6881(6)
C12A C 0.4548(3) 0.3638(9) -0.8136(5)
C13A C 0.4170(4) 0.2531(11) -0.9590(6)
H10A H 0.3449(4) 0.1092(11) -0.9450(7)
C15A C 0.4017(3) -1.3286(9) -0.0552(6)
Zn1_2 Zn -0.5000 -1.49282(10) -1.0000
N1A_2 N 0.4560(2) 0.3498(7) -0.9130(4)
H8A H 0.4835(3) 0.4283(9) -0.7802(5)
H9A H 0.4194(4) 0.2376(11) -1.0279(6)
O3A_2 O 0.4471(2) -1.3831(7) -0.1007(4)
O4A O 0.3946(3) -1.3526(10) 0.0347(4)
Zn1_3 Zn 0.5000 0.50718(10) -1.0000
Zn1_4 Zn 0.5000 -1.49282(10) 0.0000
loop_
_geom_bond_atom_site_label_1
_geom_bond_atom_site_label_2
_geom_bond_site_symmetry_1
_geom_bond_site_symmetry_2
Zn1 N1 1_555 1_555
Zn2 O1 1_555 1_555
O1 C1 1_555 1_555
O2 Zn2 1_555 1_555
O3 C15 1_555 1_555
O4 C15 1_555 1_555
N1 C12 1_555 1_555
N2 Zn2 1_555 1_555
C1 O2 1_555 1_555
C2 C1 1_555 1_555
C3 C2 1_555 1_555
H1 C3 1_555 1_555
C4 C3 1_555 1_555
H2 C4 1_555 1_555
C5 C4 1_555 1_555
C6 C5 1_555 1_555
H3 C6 1_555 1_555
C7 C2 1_555 1_555
H4 C7 1_555 1_555
C8 C5 1_555 1_555
H5 C8 1_555 1_555
C9 C8 1_555 1_555
H6 C9 1_555 1_555
C10 C9 1_555 1_555
C11 C10 1_555 1_555
H7 C11 1_555 1_555
C12 C11 1_555 1_555
H8 C12 1_555 1_555
C13 N1 1_555 1_555
H9 C13 1_555 1_555
C14 C10 1_555 1_555
H10 C14 1_555 1_555
C15 C16 1_555 1_555
C16 C17 1_555 1_555
C17 H11 1_555 1_555
C18 C17 1_555 1_555
H12 C18 1_555 1_555
C19 C18 1_555 1_555
C20 C19 1_555 1_555
H13 C20 1_555 1_555
C21 C16 1_555 1_555
H14 C21 1_555 1_555
C22 C19 1_555 1_555
H15 C22 1_555 1_555
C23 C22 1_555 1_555
H16 C23 1_555 1_555
C24 C23 1_555 1_555
C25 C24 1_555 1_555
H17 C25 1_555 1_555
C26 N2 1_555 1_555
H18 C26 1_555 1_555
C27 N2 1_555 1_555
H19 C27 1_555 1_555
C28 C24 1_555 1_555
H20 C28 1_555 1_555
O3A Zn1 1_555 1_555
N1A Zn1 1_555 1_555
O1A Zn2 1_555 1_555
O2A Zn2 1_555 1_555
N2A Zn2 1_555 1_555
C1A O1A 1_555 1_555
C26A N2A 1_555 1_555
C27A N2A 1_555 1_555
C2A C1A 1_555 1_555
C25A C26A 1_555 1_555
H18A C26A 1_555 1_555
H19A C27A 1_555 1_555
C28A C27A 1_555 1_555
C3A C2A 1_555 1_555
C7A C2A 1_555 1_555
C24A C25A 1_555 1_555
H17A C25A 1_555 1_555
H20A C28A 1_555 1_555
H1A C3A 1_555 1_555
C4A C3A 1_555 1_555
C6A C7A 1_555 1_555
H4A C7A 1_555 1_555
C23A C24A 1_555 1_555
H2A C4A 1_555 1_555
C5A C4A 1_555 1_555
H3A C6A 1_555 1_555
C22A C23A 1_555 1_555
H16A C23A 1_555 1_555
C8A C5A 1_555 1_555
C19A C22A 1_555 1_555
H15A C22A 1_555 1_555
H5A C8A 1_555 1_555
C9A C8A 1_555 1_555
C18A C19A 1_555 1_555
C20A C19A 1_555 1_555
H6A C9A 1_555 1_555
C10A C9A 1_555 1_555
C17A C18A 1_555 1_555
H12A C18A 1_555 1_555
H13A C20A 1_555 1_555
C21A C20A 1_555 1_555
C11A C10A 1_555 1_555
C14A C10A 1_555 1_555
C16A C17A 1_555 1_555
H11A C17A 1_555 1_555
H14A C21A 1_555 1_555
O3_2 Zn1 1_555 1_555
H7A C11A 1_555 1_555
C12A C11A 1_555 1_555
C13A C14A 1_555 1_555
H10A C14A 1_555 1_555
C15A C16A 1_555 1_555
Zn1_2 O3 1_555 1_555
N1A_2 C12A 1_555 1_555
H8A C12A 1_555 1_555
H9A C13A 1_555 1_555
O3A_2 C15A 1_555 1_555
O4A C15A 1_555 1_555
Zn1_3 N1A_2 1_555 1_555
Zn1_4 O3A_2 1_555 1_555
C6 C7 1_555 1_555
C13 C14 1_555 1_555
C20 C21 1_555 1_555
C25 C26 1_555 1_555
C27 C28 1_555 1_555
O2A C1A 1_555 1_555
C28A C24A 1_555 1_555
C6A C5A 1_555 1_555
C21A C16A 1_555 1_555
C13A N1A_2 1_555 1_555

#END
