
#######################################################################
#
#                 Cambridge Crystallographic Data Centre
#                                CCDC 
#
#######################################################################
#
# If this CIF has been generated from an entry in the Cambridge 
# Structural Database, then it will include bibliographic, chemical, 
# crystal, experimental, refinement or atomic coordinate data resulting 
# from the CCDC's data processing and validation procedures.
#
#######################################################################

data_WOJZEC
_symmetry_cell_setting           monoclinic
_symmetry_space_group_name_H-M   'C 2/c'
_symmetry_Int_Tables_number      15
_space_group_name_Hall           '-C 2yn'
loop_
_symmetry_equiv_pos_site_id
_symmetry_equiv_pos_as_xyz
1 x,y,z
2 -x,y,1/2-z
3 1/2+x,1/2+y,z
4 1/2-x,1/2+y,1/2-z
5 -x,-y,-z
6 x,-y,1/2+z
7 1/2-x,1/2-y,-z
8 1/2+x,1/2-y,1/2+z
_cell_length_a                   24.7168(7)
_cell_length_b                   13.0121(4)
_cell_length_c                   14.9778(5)
_cell_angle_alpha                90
_cell_angle_beta                 96.682(3)
_cell_angle_gamma                90
_cell_volume                     4784.4
loop_
_atom_site_label
_atom_site_type_symbol
_atom_site_fract_x
_atom_site_fract_y
_atom_site_fract_z
O9 O 0.1256(6) 0.4409(9) -0.2794(8)
H15 H 0.1576 0.4156 -0.2523
H16 H 0.1206 0.5049 -0.3077
Pr1 Pr 0.328805(9) 0.795436(18) 0.032669(15)
O1 O 0.30531(14) 0.7384(3) -0.1216(2)
O2 O 0.22721(14) 0.6531(3) -0.1504(2)
O3 O 0.20146(13) 0.4491(3) -0.4389(3)
O4 O 0.27373(13) 0.3582(2) -0.4618(2)
O5 O 0.59904(15) 0.6671(3) -0.4982(3)
O6 O 0.58532(15) 0.8265(3) -0.4587(3)
O7 O 0.3755(2) 0.9525(4) 0.1080(3)
O8 O 0.3756(2) 0.7315(5) 0.1775(3)
C1 C 0.27477(19) 0.6762(4) -0.1653(3)
C2 C 0.29652(18) 0.6258(3) -0.2450(3)
C3 C 0.26524(18) 0.5577(3) -0.2990(3)
H1 H 0.2295 0.5451 -0.2886
C4 C 0.28644(18) 0.5078(3) -0.3685(3)
C5 C 0.25179(18) 0.4338(3) -0.4257(3)
C6 C 0.33963(18) 0.5287(3) -0.3857(3)
H2 H 0.3544 0.4934 -0.4311
C7 C 0.37055(18) 0.6017(3) -0.3356(3)
C8 C 0.34844(19) 0.6492(4) -0.2636(3)
H3 H 0.3691 0.6969 -0.2281
C9 C 0.42481(18) 0.6341(4) -0.3598(3)
C10 C 0.4596(2) 0.5644(4) -0.3930(4)
H4 H 0.4504 0.4951 -0.3958
C11 C 0.5081(2) 0.5962(4) -0.4220(4)
H5 H 0.5312 0.5480 -0.4433
C12 C 0.52240(18) 0.6985(4) -0.4197(3)
C13 C 0.57224(19) 0.7329(4) -0.4606(4)
C14 C 0.4890(2) 0.7678(4) -0.3842(4)
H6 H 0.4990 0.8367 -0.3800
C15 C 0.4406(2) 0.7365(4) -0.3545(4)
H7 H 0.4184 0.7846 -0.3309
N1 N 0.3927(7) 0.6528(15) 0.3136(7)
C16 C 0.3582(7) 0.6986(13) 0.2414(9)
H8 H 0.3209 0.7024 0.2449
C17 C 0.3640(9) 0.6021(16) 0.3817(12)
H9 H 0.3901 0.5734 0.4275
H10 H 0.3414 0.5483 0.3541
H11 H 0.3419 0.6515 0.4082
C18 C 0.4472(8) 0.675(2) 0.3196(14)
H12 H 0.4539 0.7199 0.2710
H13 H 0.4676 0.6129 0.3162
H14 H 0.4583 0.7089 0.3758
Pr1A Pr 0.671195(9) 0.795436(18) -0.532669(15)
Pr1C Pr 0.171195(9) 0.295436(18) -0.532669(15)
Pr1E Pr 0.328805(9) 0.204564(18) -0.467331(15)
Pr1F Pr 0.171195(9) 0.704564(18) -0.032669(15)
O2F O 0.27279(14) 0.8469(3) 0.1504(2)
O3C O 0.29854(13) 0.9491(3) -0.0611(3)
O4C O 0.22627(13) 0.8582(2) -0.0382(2)
O4E O 0.27373(13) 0.6418(2) 0.0382(2)
O5A O 0.40096(15) 0.6671(3) -0.0018(3)
O6A O 0.41468(15) 0.8265(3) -0.0413(3)
loop_
_geom_bond_atom_site_label_1
_geom_bond_atom_site_label_2
_geom_bond_site_symmetry_1
_geom_bond_site_symmetry_2
Pr1 O1 1_555 1_555
O1 C1 1_555 1_555
O2 C1 1_555 1_555
O3 C5 1_555 1_555
O4 C5 1_555 1_555
O5 C13 1_555 1_555
O6 C13 1_555 1_555
O7 Pr1 1_555 1_555
O8 Pr1 1_555 1_555
C1 C2 1_555 1_555
C2 C3 1_555 1_555
C3 H1 1_555 1_555
C4 C3 1_555 1_555
C5 C4 1_555 1_555
C6 C4 1_555 1_555
H2 C6 1_555 1_555
C7 C6 1_555 1_555
C8 C2 1_555 1_555
H3 C8 1_555 1_555
C9 C7 1_555 1_555
C10 C9 1_555 1_555
H4 C10 1_555 1_555
C11 C10 1_555 1_555
H5 C11 1_555 1_555
C12 C11 1_555 1_555
C13 C12 1_555 1_555
C14 C12 1_555 1_555
H6 C14 1_555 1_555
C15 C9 1_555 1_555
H7 C15 1_555 1_555
N1 C16 1_555 1_555
C16 O8 1_555 1_555
H8 C16 1_555 1_555
C17 N1 1_555 1_555
H9 C17 1_555 1_555
H10 C17 1_555 1_555
H11 C17 1_555 1_555
C18 N1 1_555 1_555
H12 C18 1_555 1_555
H13 C18 1_555 1_555
H14 C18 1_555 1_555
O9 H15 1_555 1_555
H16 O9 1_555 1_555
Pr1A O5 1_555 1_555
Pr1C O3 1_555 1_555
Pr1E O4 1_555 1_555
Pr1F O2 1_555 1_555
O2F Pr1 1_555 1_555
O3C Pr1 1_555 1_555
O4C Pr1 1_555 1_555
O4E Pr1 1_555 1_555
O5A Pr1 1_555 1_555
O6A Pr1 1_555 1_555
O4 Pr1C 1_555 1_555
O6 Pr1A 1_555 1_555
C7 C8 1_555 1_555
C14 C15 1_555 1_555
Pr1F O4C 1_555 1_555
Pr1F O4E 1_555 1_555

#END
