
#######################################################################
#
#                 Cambridge Crystallographic Data Centre
#                                CCDC 
#
#######################################################################
#
# If this CIF has been generated from an entry in the Cambridge 
# Structural Database, then it will include bibliographic, chemical, 
# crystal, experimental, refinement or atomic coordinate data resulting 
# from the CCDC's data processing and validation procedures.
#
#######################################################################

data_WOKLAK
_symmetry_cell_setting           monoclinic
_symmetry_space_group_name_H-M   'P 21'
_symmetry_Int_Tables_number      4
_space_group_name_Hall           'P 2yb'
loop_
_symmetry_equiv_pos_site_id
_symmetry_equiv_pos_as_xyz
1 x,y,z
2 -x,1/2+y,-z
_cell_length_a                   8.9080(8)
_cell_length_b                   6.6637(6)
_cell_length_c                   11.1476(10)
_cell_angle_alpha                90
_cell_angle_beta                 90.7890(10)
_cell_angle_gamma                90
_cell_volume                     661.661
loop_
_atom_site_label
_atom_site_type_symbol
_atom_site_fract_x
_atom_site_fract_y
_atom_site_fract_z
Cu1 Cu 0.37627(9) 0.28270(13) 0.05519(7)
Br1 Br 0.59978(7) 0.34873(12) -0.06721(7)
N1 N 0.2450(6) 0.2780(12) -0.0880(6)
C1 C 0.0958(7) 0.3174(13) -0.0618(6)
C2 C 0.0097(8) 0.3228(12) -0.1658(7)
H1 H -0.0947 0.3503 -0.1733
C3 C 0.1086(9) 0.2793(13) -0.2565(7)
Br2 Br 0.06430(11) 0.27293(17) -0.42204(8)
C4 C 0.2538(9) 0.2550(13) -0.2071(7)
H2 H 0.3424 0.2272 -0.2506
C5 C 0.0664(8) 0.3335(13) 0.0637(7)
H3 H -0.0319 0.3574 0.0925
N2 N 0.1783(7) 0.3142(10) 0.1349(5)
C6 C 0.1584(8) 0.3356(15) 0.2679(7)
H4 H 0.1705 0.2037 0.3078
H5 H 0.0570 0.3877 0.2852
C7 C 0.2786(9) 0.4824(12) 0.3138(8)
H6 H 0.2760 0.6039 0.2627
H7 H 0.2528 0.5240 0.3963
C8 C 0.4364(8) 0.3999(10) 0.3154(7)
C9 C 0.5249(11) 0.4181(14) 0.4178(8)
H8 H 0.4841 0.4824 0.4861
C10 C 0.6688(11) 0.3472(16) 0.4247(9)
H9 H 0.7295 0.3652 0.4946
C11 C 0.7221(9) 0.2471(14) 0.3238(7)
H10 H 0.8203 0.1914 0.3238
C12 C 0.6289(9) 0.2306(11) 0.2238(8)
H11 H 0.6656 0.1601 0.1562
N3 N 0.4902(7) 0.3078(10) 0.2164(6)
Cu1A Cu 0.62373(9) 0.78270(13) -0.05519(7)
Br1A Br 0.40022(7) -0.15127(12) 0.06721(7)
loop_
_geom_bond_atom_site_label_1
_geom_bond_atom_site_label_2
_geom_bond_site_symmetry_1
_geom_bond_site_symmetry_2
Cu1 Br1 1_555 1_555
Br1 Cu1A 1_555 1_555
N1 Cu1 1_555 1_555
C1 N1 1_555 1_555
C2 C1 1_555 1_555
H1 C2 1_555 1_555
C3 C2 1_555 1_555
Br2 C3 1_555 1_555
C4 N1 1_555 1_555
H2 C4 1_555 1_555
C5 C1 1_555 1_555
H3 C5 1_555 1_555
N2 Cu1 1_555 1_555
C6 N2 1_555 1_555
H4 C6 1_555 1_555
H5 C6 1_555 1_555
C7 C6 1_555 1_555
H6 C7 1_555 1_555
H7 C7 1_555 1_555
C8 C7 1_555 1_555
C9 C8 1_555 1_555
H8 C9 1_555 1_555
C10 C9 1_555 1_555
H9 C10 1_555 1_555
C11 C10 1_555 1_555
H10 C11 1_555 1_555
C12 C11 1_555 1_555
H11 C12 1_555 1_555
N3 Cu1 1_555 1_555
Br1A Cu1 1_555 1_555
C3 C4 1_555 1_555
C5 N2 1_555 1_555
C8 N3 1_555 1_555
C12 N3 1_555 1_555

#END
