
#######################################################################
#
#                 Cambridge Crystallographic Data Centre
#                                CCDC 
#
#######################################################################
#
# If this CIF has been generated from an entry in the Cambridge 
# Structural Database, then it will include bibliographic, chemical, 
# crystal, experimental, refinement or atomic coordinate data resulting 
# from the CCDC's data processing and validation procedures.
#
#######################################################################

data_WOKTUN
_symmetry_cell_setting           monoclinic
_symmetry_space_group_name_H-M   'P 21/c'
_symmetry_Int_Tables_number      14
_space_group_name_Hall           '-P 2ybc'
loop_
_symmetry_equiv_pos_site_id
_symmetry_equiv_pos_as_xyz
1 x,y,z
2 -x,1/2+y,1/2-z
3 -x,-y,-z
4 x,1/2-y,1/2+z
_cell_length_a                   11.9545(10)
_cell_length_b                   15.2154(12)
_cell_length_c                   19.1051(17)
_cell_angle_alpha                90
_cell_angle_beta                 90.887(2)
_cell_angle_gamma                90
_cell_volume                     3474.66
loop_
_atom_site_label
_atom_site_type_symbol
_atom_site_fract_x
_atom_site_fract_y
_atom_site_fract_z
O1 O 1.2746(2) 0.18453(17) -0.09309(13)
C1 C 1.2303(3) 0.1311(3) -0.0509(2)
Ni1 Ni 0.39234(4) 0.32100(3) 0.32758(2)
O2 O 0.5134(2) 0.31327(19) 0.24861(14)
N1 N 0.4993(3) 0.2423(2) 0.39086(16)
N2 N 0.4594(3) 0.4368(2) 0.36510(19)
N3 N 0.3205(3) 0.2030(3) 0.28778(18)
C2 C 0.6405(3) 0.3209(3) 0.15567(19)
C3 C 0.7884(3) 0.2140(3) 0.1441(2)
H1 H 0.8234 0.1630 0.1598
C4 C 0.6942(3) 0.2446(3) 0.17781(19)
H2 H 0.6665 0.2136 0.2158
C5 C 0.6825(3) 0.3656(3) 0.0984(2)
H3 H 0.6471 0.4165 0.0826
C6 C 0.8314(3) 0.2591(3) 0.08670(19)
C7 C 0.7765(3) 0.3350(3) 0.0645(2)
H4 H 0.8034 0.3659 0.0263
C8 C 0.5368(3) 0.3539(3) 0.1928(2)
O3 O 0.4831(3) 0.4163(2) 0.16696(16)
N4 N 0.6287(3) 0.3628(3) 0.41390(18)
N5 N 0.2902(3) 0.4004(3) 0.26707(19)
C9 C 0.6155(3) 0.2766(3) 0.3840(2)
H5 H 0.6672 0.2364 0.4070
H6 H 0.6342 0.2788 0.3348
C10 C 0.5842(3) 0.4356(3) 0.3759(2)
H7 H 0.6188 0.4369 0.3303
H8 H 0.6059 0.4890 0.4002
N6 N 0.1549(3) 0.2803(4) 0.2416(2)
C11 C 0.1720(4) 0.3702(4) 0.2609(3)
H9 H 0.1364 0.3801 0.3055
H10 H 0.1339 0.4068 0.2265
C12 C 0.1951(4) 0.2140(4) 0.2890(3)
H11 H 0.1600 0.1584 0.2770
H12 H 0.1731 0.2292 0.3362
O4 O 1.2617(3) 0.0544(2) -0.03878(17)
C13 C 1.1281(3) 0.1656(3) -0.01416(18)
C14 C 1.1015(3) 0.2542(3) -0.01365(19)
H13 H 1.1486 0.2941 -0.0354
C15 C 1.0554(4) 0.1076(3) 0.0179(2)
H14 H 1.0720 0.0479 0.0186
C16 C 0.4960(4) 0.3185(3) 0.5068(2)
H15 H 0.4925 0.3076 0.5567
H16 H 0.4363 0.3591 0.4943
C17 C 0.4785(4) 0.2333(3) 0.4677(2)
H17 H 0.5285 0.1891 0.4872
H18 H 0.4024 0.2133 0.4744
C18 C 0.3624(4) 0.1384(3) 0.3398(3)
H19 H 0.3531 0.0794 0.3213
H20 H 0.3192 0.1429 0.3822
C19 C 0.3465(4) 0.1723(4) 0.2153(3)
H21 H 0.3142 0.1144 0.2081
H22 H 0.4270 0.1669 0.2110
C20 C 0.6083(4) 0.3602(4) 0.4899(2)
H23 H 0.6103 0.4196 0.5083
H24 H 0.6676 0.3270 0.5129
C21 C 0.3007(4) 0.4899(3) 0.2963(3)
H25 H 0.2528 0.4958 0.3366
H26 H 0.2771 0.5328 0.2615
C22 C 0.4207(4) 0.5065(3) 0.3178(2)
H27 H 0.4671 0.5080 0.2766
H28 H 0.4267 0.5630 0.3411
C23 C 0.4857(4) 0.1549(3) 0.3569(3)
H29 H 0.5138 0.1093 0.3880
H30 H 0.5286 0.1531 0.3142
C24 C 0.1781(4) 0.2567(5) 0.1688(3)
H31 H 0.1580 0.3056 0.1385
H32 H 0.1322 0.2068 0.1553
C25 C 0.3025(4) 0.2336(5) 0.1586(2)
H33 H 0.3112 0.2059 0.1133
H34 H 0.3464 0.2872 0.1590
C26 C 0.9328(3) 0.2261(3) 0.05065(19)
C27 C 0.9590(4) 0.1372(3) 0.0489(2)
H35 H 0.9107 0.0969 0.0690
C28 C 1.0060(3) 0.2843(3) 0.01866(19)
H36 H 0.9905 0.3442 0.0190
H37 H 0.430(4) 0.441(3) 0.401(2)
H38 H 0.315(4) 0.397(3) 0.229(2)
O1C O 0.2746(2) 0.31547(17) 0.40691(13)
Ni1C Ni 1.39234(4) 0.17900(3) -0.17242(2)
O5 O 0.4053(4) 0.0271(3) 0.53828(18)
O6 O 0.1022(7) 0.5101(5) 0.7884(4)
N7 N 0.1079(5) 0.6120(6) 0.6963(4)
C29 C 0.0980(6) 0.7124(9) 0.6759(5)
H39 H 0.0711 0.7452 0.7151
H40 H 0.0467 0.7188 0.6371
H41 H 0.1702 0.7342 0.6630
C30 C 0.1080(6) 0.5836(8) 0.7667(5)
H42 H 0.1133 0.6277 0.8003
C31 C 0.1074(9) 0.5564(13) 0.6381(6)
H43 H 0.1605 0.5099 0.6456
H44 H 0.1272 0.5893 0.5973
H45 H 0.0340 0.5317 0.6316
O7 O 0.1788(6) 0.0188(6) 0.5425(7)
O8 O 0.0349(8) 0.4746(6) 0.9141(6)
O9 O -0.0989(17) 0.4188(11) 0.8280(16)
loop_
_geom_bond_atom_site_label_1
_geom_bond_atom_site_label_2
_geom_bond_site_symmetry_1
_geom_bond_site_symmetry_2
O1 C1 1_555 1_555
C1 O4 1_555 1_555
Ni1 O2 1_555 1_555
O2 C8 1_555 1_555
N1 Ni1 1_555 1_555
N2 Ni1 1_555 1_555
N3 Ni1 1_555 1_555
C2 C4 1_555 1_555
C3 H1 1_555 1_555
C4 C3 1_555 1_555
H2 C4 1_555 1_555
C5 C2 1_555 1_555
H3 C5 1_555 1_555
C6 C3 1_555 1_555
C7 C5 1_555 1_555
H4 C7 1_555 1_555
C8 C2 1_555 1_555
O3 C8 1_555 1_555
N4 C9 1_555 1_555
N5 Ni1 1_555 1_555
C9 N1 1_555 1_555
H5 C9 1_555 1_555
H6 C9 1_555 1_555
C10 N2 1_555 1_555
H7 C10 1_555 1_555
H8 C10 1_555 1_555
N6 C11 1_555 1_555
C11 N5 1_555 1_555
H9 C11 1_555 1_555
H10 C11 1_555 1_555
C12 N3 1_555 1_555
H11 C12 1_555 1_555
H12 C12 1_555 1_555
C13 C1 1_555 1_555
C14 C13 1_555 1_555
H13 C14 1_555 1_555
C15 C13 1_555 1_555
H14 C15 1_555 1_555
C16 H15 1_555 1_555
H16 C16 1_555 1_555
C17 N1 1_555 1_555
H17 C17 1_555 1_555
H18 C17 1_555 1_555
C18 N3 1_555 1_555
H19 C18 1_555 1_555
H20 C18 1_555 1_555
C19 N3 1_555 1_555
H21 C19 1_555 1_555
H22 C19 1_555 1_555
C20 N4 1_555 1_555
H23 C20 1_555 1_555
H24 C20 1_555 1_555
C21 N5 1_555 1_555
H25 C21 1_555 1_555
H26 C21 1_555 1_555
C22 N2 1_555 1_555
H27 C22 1_555 1_555
H28 C22 1_555 1_555
C23 N1 1_555 1_555
H29 C23 1_555 1_555
H30 C23 1_555 1_555
C24 N6 1_555 1_555
H31 C24 1_555 1_555
H32 C24 1_555 1_555
C25 C19 1_555 1_555
H33 C25 1_555 1_555
H34 C25 1_555 1_555
C26 C6 1_555 1_555
C27 C15 1_555 1_555
H35 C27 1_555 1_555
C28 C14 1_555 1_555
H36 C28 1_555 1_555
H37 N2 1_555 1_555
H38 N5 1_555 1_555
O6 C30 1_555 1_555
N7 C29 1_555 1_555
C29 H39 1_555 1_555
H40 C29 1_555 1_555
H41 C29 1_555 1_555
C30 N7 1_555 1_555
H42 C30 1_555 1_555
C31 N7 1_555 1_555
H43 C31 1_555 1_555
H44 C31 1_555 1_555
H45 C31 1_555 1_555
O1C Ni1 1_555 1_555
Ni1C O1 1_555 1_555
C6 C7 1_555 1_555
N4 C10 1_555 1_555
N6 C12 1_555 1_555
C16 C17 1_555 1_555
C16 C20 1_555 1_555
C18 C23 1_555 1_555
C21 C22 1_555 1_555
C24 C25 1_555 1_555
C26 C27 1_555 1_555
C26 C28 1_555 1_555

#END
