
#######################################################################
#
#                 Cambridge Crystallographic Data Centre
#                                CCDC 
#
#######################################################################
#
# If this CIF has been generated from an entry in the Cambridge 
# Structural Database, then it will include bibliographic, chemical, 
# crystal, experimental, refinement or atomic coordinate data resulting 
# from the CCDC's data processing and validation procedures.
#
#######################################################################

data_WOKVID
_symmetry_cell_setting           triclinic
_symmetry_space_group_name_H-M   'P -1'
_symmetry_Int_Tables_number      2
_space_group_name_Hall           '-P 1'
loop_
_symmetry_equiv_pos_site_id
_symmetry_equiv_pos_as_xyz
1 x,y,z
2 -x,-y,-z
_cell_length_a                   8.9630(18)
_cell_length_b                   9.4589(19)
_cell_length_c                   11.140(2)
_cell_angle_alpha                112.16(3)
_cell_angle_beta                 97.16(3)
_cell_angle_gamma                109.63(3)
_cell_volume                     788.909
loop_
_atom_site_label
_atom_site_type_symbol
_atom_site_fract_x
_atom_site_fract_y
_atom_site_fract_z
Ni1 Ni 1.0000 0.0000 0.5000
O1 O 0.94879(13) 0.19017(13) 0.47190(11)
O2 O 0.86244(15) 0.12073(14) 0.25156(11)
N1 N 0.81617(17) 0.10027(17) 0.74120(13)
N2 N 0.76215(16) -0.11203(17) 0.50831(13)
N3 N 0.90886(16) -0.15733(16) 0.29585(13)
C1 C 0.8248(2) -0.0019(2) 0.81210(17)
H1 H 0.8650 -0.0822 0.7637
H2 H 0.7165 -0.0598 0.8167
H3 H 0.8985 0.0698 0.9020
C2 C 0.70698(19) 0.0045(2) 0.60411(16)
H4 H 0.6965 0.0822 0.5701
H5 H 0.5982 -0.0601 0.6061
C3 C 1.0230(2) -0.22766(19) 0.23738(16)
H6 H 1.0388 -0.2985 0.2773
H7 H 0.9718 -0.2979 0.1409
C4 C 0.65676(19) -0.2022(2) 0.36616(16)
H8 H 0.6349 -0.1238 0.3383
H9 H 0.5519 -0.2858 0.3578
C5 C 0.7468(2) -0.2869(2) 0.27663(16)
H10 H 0.7627 -0.3702 0.3009
H11 H 0.6818 -0.3430 0.1825
C6 C 0.87053(18) 0.19833(19) 0.37445(16)
C7 C 0.77251(18) 0.30283(18) 0.40845(16)
C8 C 0.7973(2) 0.4099(2) 0.54294(17)
C9 C 0.6935(2) 0.4889(2) 0.57803(16)
C10 C 0.56028(18) 0.46361(18) 0.48066(15)
C11 C 0.5445(2) 0.3663(2) 0.34433(16)
C12 C 0.6485(2) 0.2866(2) 0.30951(16)
H12 H 0.882(2) 0.431(2) 0.6094(19)
H13 H 0.710(2) 0.552(2) 0.6675(19)
H14 H 0.630(2) 0.218(2) 0.2152(19)
H15 H 0.463(2) 0.354(2) 0.2758(17)
H16 H 0.763(2) -0.184(2) 0.5332(17)
H17 H 0.890(2) -0.102(3) 0.2590(19)
O1A O 0.05121(13) 0.80983(13) 0.52810(11)
O2A O 0.13756(15) 0.87927(14) 0.74844(11)
C6A C 0.12947(18) 0.80167(19) 0.62555(16)
C7A C 0.22749(18) 0.69717(18) 0.59155(16)
C8A C 0.2027(2) 0.5901(2) 0.45706(17)
C9A C 0.3065(2) 0.5111(2) 0.42197(16)
C10A C 0.43972(18) 0.53639(18) 0.51934(15)
C11A C 0.4555(2) 0.6337(2) 0.65567(16)
C12A C 0.3515(2) 0.7134(2) 0.69049(16)
H12A H 0.118(2) 0.569(2) 0.3906(19)
H13A H 0.290(2) 0.448(2) 0.3325(19)
H14A H 0.370(2) 0.782(2) 0.7848(19)
H15A H 0.537(2) 0.646(2) 0.7242(17)
N1A N 1.18383(17) -0.10027(17) 0.25880(13)
N2A N 1.23785(16) 0.11203(17) 0.49169(13)
N3A N 1.09114(16) 0.15733(16) 0.70415(13)
C1A C 1.1752(2) 0.0019(2) 0.18790(17)
H1A H 1.1350 0.0822 0.2363
H2A H 1.2835 0.0598 0.1833
H3A H 1.1015 -0.0698 0.0980
C2A C 1.29302(19) -0.0045(2) 0.39589(16)
H4A H 1.3035 -0.0822 0.4299
H5A H 1.4018 0.0601 0.3939
C3A C 0.9770(2) 0.22766(19) 0.76262(16)
H6A H 0.9612 0.2985 0.7227
H7A H 1.0282 0.2979 0.8591
C4A C 1.34324(19) 0.2022(2) 0.63384(16)
H8A H 1.3651 0.1238 0.6617
H9A H 1.4481 0.2858 0.6422
C5A C 1.2532(2) 0.2869(2) 0.72337(16)
H10A H 1.2373 0.3702 0.6991
H11A H 1.3182 0.3430 0.8175
H16A H 1.237(2) 0.184(2) 0.4668(17)
H17A H 1.110(2) 0.102(3) 0.7410(19)
Ni1_2 Ni 0.0000 1.0000 0.5000
O1A_2 O 1.05121(13) -0.19017(13) 0.52810(11)
O3 O 0.95903(19) 0.34270(18) 0.13443(15)
H18 H 0.928(3) 0.270(3) 0.162(2)
H19 H 0.880(3) 0.332(3) 0.082(3)
O4 O 0.2677(2) 0.4082(2) 0.08899(16)
H20 H 0.174(4) 0.383(4) 0.098(3)
H21 H 0.295(5) 0.350(5) 0.060(4)
O5 O 0.30940(19) 0.6999(2) 0.06403(16)
H22 H 0.290(3) 0.758(3) 0.127(3)
H23 H 0.316(4) 0.633(5) 0.075(3)
O6 O 0.6154(2) 0.8360(2) 0.02204(16)
H24 H 0.683(3) 0.925(4) 0.084(3)
H25 H 0.533(5) 0.811(5) 0.041(4)
loop_
_geom_bond_atom_site_label_1
_geom_bond_atom_site_label_2
_geom_bond_site_symmetry_1
_geom_bond_site_symmetry_2
Ni1 O1 1_555 1_555
O1 C6 1_555 1_555
O2 C6 1_555 1_555
N1 C1 1_555 1_555
N2 Ni1 1_555 1_555
N3 Ni1 1_555 1_555
C1 H1 1_555 1_555
H2 C1 1_555 1_555
H3 C1 1_555 1_555
C2 N1 1_555 1_555
H4 C2 1_555 1_555
H5 C2 1_555 1_555
C3 N3 1_555 1_555
H6 C3 1_555 1_555
H7 C3 1_555 1_555
C4 N2 1_555 1_555
H8 C4 1_555 1_555
H9 C4 1_555 1_555
C5 N3 1_555 1_555
H10 C5 1_555 1_555
H11 C5 1_555 1_555
C6 C7 1_555 1_555
C7 C8 1_555 1_555
C8 C9 1_555 1_555
C9 C10 1_555 1_555
C10 C11 1_555 1_555
C11 C12 1_555 1_555
C12 C7 1_555 1_555
H12 C8 1_555 1_555
H13 C9 1_555 1_555
H14 C12 1_555 1_555
H15 C11 1_555 1_555
H16 N2 1_555 1_555
H17 N3 1_555 1_555
O3 H18 1_555 1_555
H19 O3 1_555 1_555
O4 H20 1_555 1_555
H21 O4 1_555 1_555
O5 H22 1_555 1_555
H23 O5 1_555 1_555
O6 H24 1_555 1_555
H25 O6 1_555 1_555
O1A C6A 1_555 1_555
O2A C6A 1_555 1_555
C6A C7A 1_555 1_555
C7A C8A 1_555 1_555
C8A C9A 1_555 1_555
C9A C10A 1_555 1_555
C10A C10 1_555 1_555
C11A C10A 1_555 1_555
C12A C7A 1_555 1_555
H12A C8A 1_555 1_555
H13A C9A 1_555 1_555
H14A C12A 1_555 1_555
H15A C11A 1_555 1_555
N1A C3 1_555 1_555
N2A Ni1 1_555 1_555
N3A Ni1 1_555 1_555
C1A N1A 1_555 1_555
H1A C1A 1_555 1_555
H2A C1A 1_555 1_555
H3A C1A 1_555 1_555
C2A N1A 1_555 1_555
H4A C2A 1_555 1_555
H5A C2A 1_555 1_555
C3A N1 1_555 1_555
H6A C3A 1_555 1_555
H7A C3A 1_555 1_555
C4A N2A 1_555 1_555
H8A C4A 1_555 1_555
H9A C4A 1_555 1_555
C5A N3A 1_555 1_555
H10A C5A 1_555 1_555
H11A C5A 1_555 1_555
H16A N2A 1_555 1_555
H17A N3A 1_555 1_555
Ni1_2 O1A 1_555 1_555
O1A_2 Ni1 1_555 1_555
N2 C2 1_555 1_555
C4 C5 1_555 1_555
C11A C12A 1_555 1_555
N2A C2A 1_555 1_555
N3A C3A 1_555 1_555
C4A C5A 1_555 1_555

#END
