
#######################################################################
#
#                 Cambridge Crystallographic Data Centre
#                                CCDC 
#
#######################################################################
#
# If this CIF has been generated from an entry in the Cambridge 
# Structural Database, then it will include bibliographic, chemical, 
# crystal, experimental, refinement or atomic coordinate data resulting 
# from the CCDC's data processing and validation procedures.
#
#######################################################################

data_WOKZAZ
_symmetry_cell_setting           triclinic
_symmetry_space_group_name_H-M   'P -1'
_symmetry_Int_Tables_number      2
_space_group_name_Hall           '-P 1'
loop_
_symmetry_equiv_pos_site_id
_symmetry_equiv_pos_as_xyz
1 x,y,z
2 -x,-y,-z
_cell_length_a                   10.8699(11)
_cell_length_b                   12.2647(12)
_cell_length_c                   14.3557(15)
_cell_angle_alpha                105.625(2)
_cell_angle_beta                 99.597(2)
_cell_angle_gamma                113.879(2)
_cell_volume                     1600.6
loop_
_atom_site_label
_atom_site_type_symbol
_atom_site_fract_x
_atom_site_fract_y
_atom_site_fract_z
Cu1 Cu 0.43794(4) 0.33017(5) 0.06955(3)
O1 O 0.6119(3) 0.3294(3) 0.0549(2)
N1 N 0.3185(4) 0.1432(3) -0.0256(2)
C1 C 0.2375(8) 0.0570(5) 0.0060(4)
H1 H 0.2480 0.0797 0.0752
O2 O 0.5413(3) 0.5213(3) 0.13001(19)
H2 H 0.6110 0.5575 0.1100
H3 H 0.4907 0.5574 0.1207
N2 N 0.5201(3) -0.3058(3) -0.2232(2)
O3 O 0.5982(3) 0.3478(3) -0.0967(2)
C2 C 0.1388(10) -0.0642(6) -0.0590(5)
H4 H 0.0820 -0.1217 -0.0340
O4 O 1.2390(3) 0.3429(3) -0.0739(2)
N3 N 0.0771(4) -0.1369(4) -0.3740(3)
H5 H 0.0132 -0.1805 -0.3516
C3 C 0.1232(10) -0.1016(5) -0.1613(4)
H6 H 0.0574 -0.1846 -0.2060
O5 O 1.2629(2) 0.3364(3) 0.08108(19)
N4 N 0.1938(4) -0.2869(4) -0.4803(3)
H7 H 0.2653 -0.2512 -0.5000
C4 C 0.2072(6) -0.0134(4) -0.1964(3)
C5 C 0.3003(4) 0.1070(4) -0.1258(3)
H8 H 0.3548 0.1681 -0.1491
O6 O 0.2940(5) 0.0307(4) -0.3294(3)
O7 O 0.1181(3) -0.3771(3) -0.3683(2)
C6 C 0.1963(6) -0.0391(5) -0.3064(3)
C7 C 0.0475(5) -0.1752(4) -0.4838(3)
H9 H 0.1178 -0.1058 -0.4974
C8 C -0.0986(6) -0.1949(5) -0.5338(3)
H10 H -0.1040 -0.1164 -0.5047
H11 H -0.1697 -0.2624 -0.5200
C9 C -0.1298(6) -0.2314(5) -0.6489(3)
H12 H -0.2262 -0.2501 -0.6795
H13 H -0.0663 -0.1595 -0.6627
C10 C -0.1110(6) -0.3485(5) -0.6962(3)
H14 H -0.1235 -0.3651 -0.7680
H15 H -0.1834 -0.4230 -0.6904
C11 C 0.0348(6) -0.3291(5) -0.6445(3)
H16 H 0.1073 -0.2596 -0.6554
H17 H 0.0414 -0.4067 -0.6742
C12 C 0.0594(5) -0.2971(5) -0.5296(3)
H18 H -0.0163 -0.3678 -0.5209
C13 C 0.2119(5) -0.3303(4) -0.4056(3)
C14 C 0.3541(4) -0.3209(4) -0.3660(3)
C15 C 0.4408(5) -0.3297(5) -0.4253(3)
H19 H 0.4146 -0.3377 -0.4929
C16 C 0.5660(5) -0.3263(5) -0.3826(4)
H20 H 0.6254 -0.3327 -0.4211
C17 C 0.6022(5) -0.3134(4) -0.2822(3)
H21 H 0.6879 -0.3097 -0.2538
C18 C 0.3994(4) -0.3097(4) -0.2660(3)
H22 H 0.3412 -0.3044 -0.2261
C19 C 0.6546(4) 0.3332(4) -0.0213(3)
C20 C 0.7882(4) 0.3218(4) -0.0171(3)
C21 C 0.9030(4) 0.4002(4) 0.0682(3)
H23 H 0.8943 0.4536 0.1236
C22 C 1.0340(4) 0.4017(4) 0.0736(3)
H24 H 1.1109 0.4564 0.1322
C23 C 1.0495(4) 0.3237(4) -0.0063(3)
C24 C 1.1939(4) 0.3360(4) -0.0008(3)
C25 C 0.9298(4) 0.2336(3) -0.0947(3)
C26 C 0.9344(4) 0.1374(4) -0.1735(3)
H25 H 1.0202 0.1370 -0.1715
C27 C 0.8158(5) 0.0459(4) -0.2516(3)
H26 H 0.8211 -0.0166 -0.3020
C28 C 0.6851(5) 0.0452(4) -0.2566(3)
H27 H 0.6042 -0.0184 -0.3098
C29 C 0.6766(4) 0.1367(4) -0.1842(3)
H28 H 0.5902 0.1369 -0.1898
C30 C 0.7970(4) 0.2324(3) -0.0998(3)
Cu1_2 Cu 1.43794(4) 0.33017(5) 0.06955(3)
Cu1A Cu 0.56206(4) -0.33017(5) -0.06955(3)
N2A N 0.4799(3) 0.3058(3) 0.2232(2)
O5_2 O 0.2629(2) 0.3364(3) 0.08108(19)
O8 O 0.8574(4) 0.6126(4) -0.3551(3)
H29 H 0.9287 0.6034 -0.3636
H30 H 0.8071 0.5528 -0.3375
O9 O 0.6506(7) 0.4004(8) -0.2895(4)
H31 H 0.6777 0.3446 -0.3092
H32 H 0.5645 0.3796 -0.3163
O10 O 0.5110(16) 0.1279(8) -0.4503(6)
H33 H 0.4307 0.1251 -0.4666
H34 H 0.5082 0.0850 -0.4122
loop_
_geom_bond_atom_site_label_1
_geom_bond_atom_site_label_2
_geom_bond_site_symmetry_1
_geom_bond_site_symmetry_2
Cu1 O1 1_555 1_555
O1 C19 1_555 1_555
N1 Cu1 1_555 1_555
C1 N1 1_555 1_555
H1 C1 1_555 1_555
O2 Cu1 1_555 1_555
H2 O2 1_555 1_555
H3 O2 1_555 1_555
N2 C17 1_555 1_555
O3 C19 1_555 1_555
C2 C1 1_555 1_555
H4 C2 1_555 1_555
O4 C24 1_555 1_555
N3 H5 1_555 1_555
C3 C2 1_555 1_555
H6 C3 1_555 1_555
O5 C24 1_555 1_555
N4 H7 1_555 1_555
C4 C3 1_555 1_555
C5 N1 1_555 1_555
H8 C5 1_555 1_555
O6 C6 1_555 1_555
O7 C13 1_555 1_555
C6 N3 1_555 1_555
C7 N3 1_555 1_555
H9 C7 1_555 1_555
C8 C7 1_555 1_555
H10 C8 1_555 1_555
H11 C8 1_555 1_555
C9 C8 1_555 1_555
H12 C9 1_555 1_555
H13 C9 1_555 1_555
C10 C9 1_555 1_555
H14 C10 1_555 1_555
H15 C10 1_555 1_555
C11 C10 1_555 1_555
H16 C11 1_555 1_555
H17 C11 1_555 1_555
C12 N4 1_555 1_555
H18 C12 1_555 1_555
C13 N4 1_555 1_555
C14 C13 1_555 1_555
C15 C14 1_555 1_555
H19 C15 1_555 1_555
C16 C15 1_555 1_555
H20 C16 1_555 1_555
C17 C16 1_555 1_555
H21 C17 1_555 1_555
C18 N2 1_555 1_555
H22 C18 1_555 1_555
C19 C20 1_555 1_555
C20 C21 1_555 1_555
C21 H23 1_555 1_555
C22 C21 1_555 1_555
H24 C22 1_555 1_555
C23 C22 1_555 1_555
C24 C23 1_555 1_555
C25 C23 1_555 1_555
C26 C25 1_555 1_555
H25 C26 1_555 1_555
C27 C26 1_555 1_555
H26 C27 1_555 1_555
C28 C27 1_555 1_555
H27 C28 1_555 1_555
C29 C28 1_555 1_555
H28 C29 1_555 1_555
C30 C20 1_555 1_555
O8 H29 1_555 1_555
H30 O8 1_555 1_555
O9 H31 1_555 1_555
H32 O9 1_555 1_555
O10 H33 1_555 1_555
H34 O10 1_555 1_555
Cu1_2 O5 1_555 1_555
Cu1A N2 1_555 1_555
N2A Cu1 1_555 1_555
O5_2 Cu1 1_555 1_555
C4 C5 1_555 1_555
C4 C6 1_555 1_555
C7 C12 1_555 1_555
C11 C12 1_555 1_555
C14 C18 1_555 1_555
C25 C30 1_555 1_555
C29 C30 1_555 1_555

#END
