
#######################################################################
#
#                 Cambridge Crystallographic Data Centre
#                                CCDC 
#
#######################################################################
#
# If this CIF has been generated from an entry in the Cambridge 
# Structural Database, then it will include bibliographic, chemical, 
# crystal, experimental, refinement or atomic coordinate data resulting 
# from the CCDC's data processing and validation procedures.
#
#######################################################################

data_WOLFAG
_symmetry_cell_setting           orthorhombic
_symmetry_space_group_name_H-M   'P b c a'
_symmetry_Int_Tables_number      61
_space_group_name_Hall           '-P 2ac 2ab'
loop_
_symmetry_equiv_pos_site_id
_symmetry_equiv_pos_as_xyz
1 x,y,z
2 1/2-x,-y,1/2+z
3 1/2+x,1/2-y,-z
4 -x,1/2+y,1/2-z
5 -x,-y,-z
6 1/2+x,y,1/2-z
7 1/2-x,1/2+y,z
8 x,1/2-y,1/2+z
_cell_length_a                   30.275(2)
_cell_length_b                   15.2890(11)
_cell_length_c                   22.4210(17)
_cell_angle_alpha                90
_cell_angle_beta                 90
_cell_angle_gamma                90
_cell_volume                     10378.1
loop_
_atom_site_label
_atom_site_type_symbol
_atom_site_fract_x
_atom_site_fract_y
_atom_site_fract_z
Cu1 Cu 0.119684(14) -0.29962(3) 0.83243(2)
N1 N 0.11065(11) -0.3102(2) 0.92765(15)
O1 O 0.07317(9) -0.3859(2) 0.81180(13)
C1 C 0.05972(13) -0.4029(3) 0.7599(2)
Cu2 Cu 0.130100(15) -0.30393(3) 0.71461(2)
O2 O 0.07534(9) -0.3725(2) 0.71185(13)
C2 C 0.02185(13) -0.4662(3) 0.75430(18)
N2 N 0.18469(12) -0.1561(3) 1.05009(16)
H1 H 0.1958 -0.1692 1.0160
O3 O 0.17017(9) -0.21711(19) 0.82881(14)
N3 N 0.17423(12) 0.0176(3) 1.00950(16)
H2 H 0.1487 0.0087 1.0253
C3 C -0.01701(13) -0.4595(3) 0.79007(19)
O4 O 0.18410(9) -0.2378(2) 0.73147(14)
N4 N 0.05899(13) 0.0298(3) 0.90182(18)
C4 C -0.02357(15) -0.3896(3) 0.8304(2)
H3 H -0.0017 -0.3473 0.8346
O5 O 0.33654(9) 0.10309(19) 0.83102(13)
C5 C -0.06140(17) -0.3833(4) 0.8633(3)
H4 H -0.0647 -0.3378 0.8905
O6 O 0.33782(10) 0.08704(19) 0.73126(13)
C6 C -0.09533(17) -0.4453(3) 0.8563(2)
H5 H -0.1211 -0.4403 0.8785
O7 O -0.09556(9) -0.69544(19) 0.78247(12)
C7 C -0.09057(14) -0.5125(3) 0.8172(2)
H6 H -0.1135 -0.5523 0.8125
O8 O -0.07932(9) -0.7034(2) 0.68513(13)
C8 C -0.05122(13) -0.5231(3) 0.78342(19)
C9 C -0.04457(13) -0.5934(3) 0.74245(18)
O9 O 0.13375(10) -0.1928(2) 1.11951(12)
C10 C -0.07618(13) -0.6699(3) 0.7360(2)
O10 O 0.21220(11) 0.0733(2) 0.93166(15)
C11 C -0.00693(13) -0.5968(3) 0.70814(19)
H7 H -0.0032 -0.6423 0.6811
C12 C 0.02601(13) -0.5326(3) 0.71347(19)
H8 H 0.0508 -0.5350 0.6891
C13 C 0.19200(13) -0.2046(3) 0.7816(2)
C14 C 0.22971(13) -0.1411(3) 0.78578(19)
C15 C 0.22149(14) -0.0616(3) 0.8108(2)
H9 H 0.1939 -0.0507 0.8275
C16 C 0.25369(14) 0.0043(3) 0.8119(2)
H10 H 0.2474 0.0579 0.8296
C17 C 0.29442(13) -0.0103(3) 0.78700(19)
C18 C 0.30537(14) -0.0936(3) 0.7631(2)
C19 C 0.34831(15) -0.1129(3) 0.7408(2)
H11 H 0.3698 -0.0694 0.7403
C20 C 0.35818(16) -0.1940(4) 0.7202(3)
H12 H 0.3864 -0.2055 0.7058
C21 C 0.32665(17) -0.2599(4) 0.7206(3)
H13 H 0.3342 -0.3153 0.7070
C22 C 0.28467(16) -0.2445(3) 0.7407(2)
H14 H 0.2638 -0.2892 0.7401
C23 C 0.27289(14) -0.1608(3) 0.76231(19)
C24 C 0.32588(13) 0.0653(3) 0.7831(2)
C25 C 0.08723(18) -0.3948(3) 1.0115(2)
H15 H 0.0723 -0.4434 1.0262
C26 C 0.10733(16) -0.3374(3) 1.0500(2)
H16 H 0.1057 -0.3462 1.0910
C27 C 0.12995(14) -0.2665(3) 1.02702(19)
C28 C 0.12989(14) -0.2550(3) 0.96570(18)
H17 H 0.1441 -0.2061 0.9502
C29 C 0.15035(14) -0.2023(3) 1.06935(19)
C30 C 0.20470(15) -0.0836(3) 1.08385(19)
H18 H 0.1838 -0.0648 1.1147
C31 C 0.24751(16) -0.1128(4) 1.1144(2)
H19 H 0.2413 -0.1608 1.1414
H20 H 0.2683 -0.1332 1.0846
C32 C 0.26777(17) -0.0365(4) 1.1492(2)
H21 H 0.2483 -0.0209 1.1818
H22 H 0.2958 -0.0549 1.1661
C33 C 0.27522(17) 0.0432(4) 1.1100(2)
H23 H 0.2857 0.0914 1.1344
H24 H 0.2977 0.0301 1.0805
C34 C 0.23288(16) 0.0700(4) 1.0787(2)
H25 H 0.2388 0.1187 1.0521
H26 H 0.2114 0.0891 1.1080
C35 C 0.21398(14) -0.0065(3) 1.0430(2)
H27 H 0.2365 -0.0249 1.0141
C36 C 0.17659(16) 0.0532(3) 0.9549(2)
C37 C 0.13459(15) 0.0661(3) 0.9214(2)
C38 C 0.09634(15) 0.0195(3) 0.9325(2)
H28 H 0.0967 -0.0214 0.9632
C39 C 0.05884(17) 0.0889(4) 0.8584(2)
H29 H 0.0328 0.0977 0.8373
C40 C 0.09523(19) 0.1378(4) 0.8432(2)
H30 H 0.0939 0.1776 0.8118
C41 C 0.13384(17) 0.1267(4) 0.8753(2)
H31 H 0.1589 0.1593 0.8662
C42 C 0.08941(16) -0.3797(3) 0.9511(2)
H32 H 0.0757 -0.4190 0.9254
Cu1C Cu -0.119684(14) -0.79962(3) 0.66757(2)
Cu1F Cu 0.380316(14) 0.20038(3) 0.83243(2)
Cu2C Cu -0.130100(15) -0.80393(3) 0.78539(2)
Cu2F Cu 0.369900(15) 0.19607(3) 0.71461(2)
Cu2G Cu 0.130100(15) -0.19607(3) 1.21461(2)
O5F O 0.16346(9) -0.39691(19) 0.83102(13)
O6F O 0.16218(10) -0.41296(19) 0.73126(13)
O7C O 0.09556(9) -0.19544(19) 0.71753(12)
O8C O 0.07932(9) -0.2034(2) 0.81487(13)
O9G O 0.13375(10) -0.3072(2) 0.61951(12)
O11 O 0.09580(11) -0.0247(2) 1.08533(16)
H33 H 0.0711 -0.0067 1.0715
H34 H 0.1013 -0.0716 1.1034
O12 O 0.19742(10) 0.5491(2) 0.94630(15)
H35 H 0.2305 0.5591 0.9432
H36 H 0.1898 0.5746 0.9094
O13 O 0.27337(13) 0.3117(4) 0.93852(19)
H37 H 0.2625 0.2518 0.9604
H38 H 0.2416 0.3103 0.9503
O14 O 0.01055(11) 0.0600(3) 1.06687(16)
O15 O -0.03659(14) 0.1414(4) 1.0206(3)
O16 O 0.14605(14) 0.4300(3) 0.9842(2)
O17 O 0.18544(16) 0.3199(4) 0.9641(4)
C43 C 0.15152(18) 0.3485(4) 0.9770(3)
C44 C 0.11227(15) 0.2913(3) 0.9892(2)
C45 C 0.11396(17) 0.2323(3) 1.0352(2)
H39 H 0.1395 0.2271 1.0579
C46 C 0.07745(16) 0.1802(3) 1.0480(2)
H40 H 0.0792 0.1410 1.0797
C47 C 0.03893(16) 0.1843(3) 1.0157(2)
C48 C 0.00093(18) 0.1269(4) 1.0348(3)
C49 C 0.03679(16) 0.2432(3) 0.9663(2)
C50 C -0.00040(18) 0.2476(4) 0.9275(3)
H41 H -0.0250 0.2130 0.9354
C51 C -0.0007(2) 0.3006(5) 0.8799(3)
H42 H -0.0254 0.3017 0.8553
C52 C 0.0352(2) 0.3540(5) 0.8664(3)
H43 H 0.0344 0.3903 0.8332
C53 C 0.07188(19) 0.3528(4) 0.9025(3)
H44 H 0.0958 0.3888 0.8937
C54 C 0.07362(15) 0.2971(4) 0.9531(2)
loop_
_geom_bond_atom_site_label_1
_geom_bond_atom_site_label_2
_geom_bond_site_symmetry_1
_geom_bond_site_symmetry_2
Cu1 N1 1_555 1_555
N1 C28 1_555 1_555
O1 Cu1 1_555 1_555
C1 O1 1_555 1_555
Cu2 Cu1 1_555 1_555
O2 C1 1_555 1_555
C2 C1 1_555 1_555
N2 H1 1_555 1_555
O3 Cu1 1_555 1_555
N3 H2 1_555 1_555
C3 C2 1_555 1_555
O4 Cu2 1_555 1_555
N4 C38 1_555 1_555
C4 C3 1_555 1_555
H3 C4 1_555 1_555
O5 C24 1_555 1_555
C5 C4 1_555 1_555
H4 C5 1_555 1_555
O6 C24 1_555 1_555
C6 C5 1_555 1_555
H5 C6 1_555 1_555
O7 C10 1_555 1_555
C7 C6 1_555 1_555
H6 C7 1_555 1_555
O8 C10 1_555 1_555
C8 C3 1_555 1_555
C9 C8 1_555 1_555
O9 C29 1_555 1_555
C10 C9 1_555 1_555
O10 C36 1_555 1_555
C11 C9 1_555 1_555
H7 C11 1_555 1_555
C12 C2 1_555 1_555
H8 C12 1_555 1_555
C13 O3 1_555 1_555
C14 C13 1_555 1_555
C15 C14 1_555 1_555
H9 C15 1_555 1_555
C16 C15 1_555 1_555
H10 C16 1_555 1_555
C17 C16 1_555 1_555
C18 C17 1_555 1_555
C19 C18 1_555 1_555
H11 C19 1_555 1_555
C20 C19 1_555 1_555
H12 C20 1_555 1_555
C21 C20 1_555 1_555
H13 C21 1_555 1_555
C22 C21 1_555 1_555
H14 C22 1_555 1_555
C23 C14 1_555 1_555
C24 C17 1_555 1_555
C25 H15 1_555 1_555
C26 C25 1_555 1_555
H16 C26 1_555 1_555
C27 C26 1_555 1_555
C28 C27 1_555 1_555
H17 C28 1_555 1_555
C29 N2 1_555 1_555
C30 N2 1_555 1_555
H18 C30 1_555 1_555
C31 C30 1_555 1_555
H19 C31 1_555 1_555
H20 C31 1_555 1_555
C32 C31 1_555 1_555
H21 C32 1_555 1_555
H22 C32 1_555 1_555
C33 C32 1_555 1_555
H23 C33 1_555 1_555
H24 C33 1_555 1_555
C34 C33 1_555 1_555
H25 C34 1_555 1_555
H26 C34 1_555 1_555
C35 N3 1_555 1_555
H27 C35 1_555 1_555
C36 N3 1_555 1_555
C37 C36 1_555 1_555
C38 C37 1_555 1_555
H28 C38 1_555 1_555
C39 N4 1_555 1_555
H29 C39 1_555 1_555
C40 C39 1_555 1_555
H30 C40 1_555 1_555
C41 C37 1_555 1_555
H31 C41 1_555 1_555
C42 N1 1_555 1_555
H32 C42 1_555 1_555
O11 H33 1_555 1_555
H34 O11 1_555 1_555
O12 H35 1_555 1_555
H36 O12 1_555 1_555
O13 H37 1_555 1_555
H38 O13 1_555 1_555
O14 C48 1_555 1_555
O15 C48 1_555 1_555
O16 C43 1_555 1_555
O17 C43 1_555 1_555
C43 C44 1_555 1_555
C44 C45 1_555 1_555
C45 H39 1_555 1_555
C46 C45 1_555 1_555
H40 C46 1_555 1_555
C47 C46 1_555 1_555
C48 C47 1_555 1_555
C49 C47 1_555 1_555
C50 C49 1_555 1_555
H41 C50 1_555 1_555
C51 C50 1_555 1_555
H42 C51 1_555 1_555
C52 C51 1_555 1_555
H43 C52 1_555 1_555
C53 C52 1_555 1_555
H44 C53 1_555 1_555
C54 C44 1_555 1_555
Cu1C O8 1_555 1_555
Cu1F O5 1_555 1_555
Cu2C O7 1_555 1_555
Cu2F O6 1_555 1_555
Cu2G O9 1_555 1_555
O5F Cu1 1_555 1_555
O6F Cu2 1_555 1_555
O7C Cu2 1_555 1_555
O8C Cu1 1_555 1_555
O9G Cu2 1_555 1_555
Cu2 O2 1_555 1_555
O4 C13 1_555 1_555
C7 C8 1_555 1_555
C11 C12 1_555 1_555
C18 C23 1_555 1_555
C22 C23 1_555 1_555
C25 C42 1_555 1_555
C27 C29 1_555 1_555
C30 C35 1_555 1_555
C34 C35 1_555 1_555
C40 C41 1_555 1_555
C49 C54 1_555 1_555
C53 C54 1_555 1_555
Cu1C Cu2C 1_555 1_555
Cu1F Cu2F 1_555 1_555

#END
