
#######################################################################
#
#                 Cambridge Crystallographic Data Centre
#                                CCDC 
#
#######################################################################
#
# If this CIF has been generated from an entry in the Cambridge 
# Structural Database, then it will include bibliographic, chemical, 
# crystal, experimental, refinement or atomic coordinate data resulting 
# from the CCDC's data processing and validation procedures.
#
#######################################################################

data_WOLJEO
_symmetry_cell_setting           orthorhombic
_symmetry_space_group_name_H-M   'P b c a'
_symmetry_Int_Tables_number      61
_space_group_name_Hall           '-P 2ac 2ab'
loop_
_symmetry_equiv_pos_site_id
_symmetry_equiv_pos_as_xyz
1 x,y,z
2 1/2-x,-y,1/2+z
3 -x,1/2+y,1/2-z
4 1/2+x,1/2-y,-z
5 -x,-y,-z
6 1/2+x,y,1/2-z
7 x,1/2-y,1/2+z
8 1/2-x,1/2+y,z
_cell_length_a                   18.506(2)
_cell_length_b                   12.6652(15)
_cell_length_c                   23.882(3)
_cell_angle_alpha                90
_cell_angle_beta                 90
_cell_angle_gamma                90
_cell_volume                     5597.52
loop_
_atom_site_label
_atom_site_type_symbol
_atom_site_fract_x
_atom_site_fract_y
_atom_site_fract_z
N1 N 0.58960(18) 0.2771(3) 0.19126(14)
Mn1 Mn 0.54202(3) 0.12011(4) 0.17922(2)
Ni1 Ni 0.78613(3) -0.07301(4) 0.17710(2)
N2 N 0.64574(18) 0.0450(3) 0.16512(15)
N3 N 0.7878(2) -0.0077(3) 0.29830(17)
N4 N 0.7756(3) -0.1506(4) 0.05887(19)
N5 N 0.43528(16) 0.1755(3) 0.21641(15)
N6 N 0.54094(17) 0.0679(3) 0.27009(13)
N7 N 0.47637(16) -0.0205(3) 0.14781(13)
N8 N 0.50817(17) 0.1589(3) 0.09127(13)
C1 C 0.7001(2) 0.0019(3) 0.16812(16)
C2 C 0.7894(2) -0.0313(3) 0.2525(2)
C3 C 0.7799(2) -0.1201(4) 0.1034(2)
C4 C 0.6340(2) 0.3394(3) 0.18680(17)
C5 C 0.3831(2) 0.2251(3) 0.1897(2)
H1 H 0.3899 0.2419 0.1522
C6 C 0.3176(3) 0.2539(4) 0.2152(3)
H2 H 0.2817 0.2883 0.1951
C7 C 0.3084(3) 0.2302(4) 0.2702(3)
H3 H 0.2653 0.2483 0.2878
C8 C 0.3626(2) 0.1788(4) 0.3008(2)
C9 C 0.3549(3) 0.1491(4) 0.3579(2)
H4 H 0.3126 0.1657 0.3770
C10 C 0.4078(3) 0.0977(4) 0.3843(2)
H5 H 0.4018 0.0808 0.4219
C11 C 0.4740(3) 0.0672(4) 0.35666(19)
C12 C 0.4811(2) 0.0940(3) 0.29957(18)
C13 C 0.4255(2) 0.1514(3) 0.27134(19)
C14 C 0.5313(3) 0.0146(4) 0.3821(2)
H6 H 0.5282 -0.0035 0.4197
C15 C 0.5909(3) -0.0104(4) 0.3529(2)
H7 H 0.6293 -0.0456 0.3697
C16 C 0.5936(2) 0.0180(4) 0.29664(19)
H8 H 0.6349 0.0009 0.2765
C17 C 0.4598(2) -0.1075(3) 0.17542(19)
H9 H 0.4807 -0.1178 0.2104
C18 C 0.4129(2) -0.1849(4) 0.1551(2)
H10 H 0.4026 -0.2447 0.1763
C19 C 0.3830(2) -0.1710(4) 0.1045(2)
H11 H 0.3520 -0.2221 0.0902
C20 C 0.3977(2) -0.0806(4) 0.07299(19)
C21 C 0.3695(2) -0.0610(5) 0.0189(2)
H12 H 0.3381 -0.1099 0.0030
C22 C 0.3868(2) 0.0259(5) -0.0099(2)
H13 H 0.3675 0.0359 -0.0454
C23 C 0.4345(2) 0.1037(4) 0.01302(18)
C24 C 0.4551(3) 0.1952(4) -0.0152(2)
H14 H 0.4372 0.2084 -0.0509
C25 C 0.5011(3) 0.2654(4) 0.0091(2)
H15 H 0.5151 0.3263 -0.0097
C26 C 0.5265(2) 0.2440(4) 0.06243(19)
H16 H 0.5581 0.2920 0.0788
C27 C 0.4629(2) 0.0882(3) 0.06631(17)
C28 C 0.44560(19) -0.0066(3) 0.09693(17)
Ni1G Ni 0.71387(3) 0.42699(4) 0.17710(2)
C4G C 0.8660(2) -0.1606(3) 0.18680(17)
O1 O 0.7508(2) 0.1191(3) 0.39570(15)
H17 H 0.7731 0.1689 0.4091
H18 H 0.7742 0.0688 0.3839
O2 O 0.7908(2) 0.2807(3) 0.47042(19)
H19 H 0.7856 0.2584 0.4382
H20 H 0.7670 0.2507 0.4944
O3 O 0.1625(2) 0.9914(4) 0.02272(16)
H21 H 0.1787 1.0320 -0.0010
H22 H 0.1860 0.9350 0.0267
loop_
_geom_bond_atom_site_label_1
_geom_bond_atom_site_label_2
_geom_bond_site_symmetry_1
_geom_bond_site_symmetry_2
N1 Mn1 1_555 1_555
Mn1 N2 1_555 1_555
Ni1 C1 1_555 1_555
N2 C1 1_555 1_555
N3 C2 1_555 1_555
N4 C3 1_555 1_555
N5 Mn1 1_555 1_555
N6 Mn1 1_555 1_555
N7 Mn1 1_555 1_555
N8 Mn1 1_555 1_555
C2 Ni1 1_555 1_555
C3 Ni1 1_555 1_555
C4 N1 1_555 1_555
C5 N5 1_555 1_555
H1 C5 1_555 1_555
C6 C5 1_555 1_555
H2 C6 1_555 1_555
C7 C6 1_555 1_555
H3 C7 1_555 1_555
C8 C7 1_555 1_555
C9 C8 1_555 1_555
H4 C9 1_555 1_555
C10 C9 1_555 1_555
H5 C10 1_555 1_555
C11 C10 1_555 1_555
C12 N6 1_555 1_555
C13 N5 1_555 1_555
C14 C11 1_555 1_555
H6 C14 1_555 1_555
C15 C14 1_555 1_555
H7 C15 1_555 1_555
C16 N6 1_555 1_555
H8 C16 1_555 1_555
C17 N7 1_555 1_555
H9 C17 1_555 1_555
C18 C17 1_555 1_555
H10 C18 1_555 1_555
C19 C18 1_555 1_555
H11 C19 1_555 1_555
C20 C19 1_555 1_555
C21 C20 1_555 1_555
H12 C21 1_555 1_555
C22 C21 1_555 1_555
H13 C22 1_555 1_555
C23 C22 1_555 1_555
C24 C23 1_555 1_555
H14 C24 1_555 1_555
C25 C24 1_555 1_555
H15 C25 1_555 1_555
C26 N8 1_555 1_555
H16 C26 1_555 1_555
C27 N8 1_555 1_555
C28 N7 1_555 1_555
O1 H17 1_555 1_555
H18 O1 1_555 1_555
O2 H19 1_555 1_555
H20 O2 1_555 1_555
O3 H21 1_555 1_555
H22 O3 1_555 1_555
Ni1G C4 1_555 1_555
C4G Ni1 1_555 1_555
C8 C13 1_555 1_555
C11 C12 1_555 1_555
C12 C13 1_555 1_555
C15 C16 1_555 1_555
C20 C28 1_555 1_555
C23 C27 1_555 1_555
C25 C26 1_555 1_555
C27 C28 1_555 1_555

#END
