
#######################################################################
#
#                 Cambridge Crystallographic Data Centre
#                                CCDC 
#
#######################################################################
#
# If this CIF has been generated from an entry in the Cambridge 
# Structural Database, then it will include bibliographic, chemical, 
# crystal, experimental, refinement or atomic coordinate data resulting 
# from the CCDC's data processing and validation procedures.
#
#######################################################################

data_WOLLEQ
_symmetry_cell_setting           monoclinic
_symmetry_space_group_name_H-M   'C 2/c'
_symmetry_Int_Tables_number      15
_space_group_name_Hall           '-C 2yn'
loop_
_symmetry_equiv_pos_site_id
_symmetry_equiv_pos_as_xyz
1 x,y,z
2 -x,y,1/2-z
3 1/2+x,1/2+y,z
4 1/2-x,1/2+y,1/2-z
5 -x,-y,-z
6 x,-y,1/2+z
7 1/2-x,1/2-y,-z
8 1/2+x,1/2-y,1/2+z
_cell_length_a                   21.934(8)
_cell_length_b                   20.739(7)
_cell_length_c                   13.605(5)
_cell_angle_alpha                90
_cell_angle_beta                 110.546(4)
_cell_angle_gamma                90
_cell_volume                     5795.1
loop_
_atom_site_label
_atom_site_type_symbol
_atom_site_fract_x
_atom_site_fract_y
_atom_site_fract_z
O7 O 0.5000 0.9802(9) 0.7500
H29 H 0.5202 0.9576 0.8036
H29A H 0.4798 0.9576 0.6964
O8 O 0.5514(9) 0.9994(8) 0.6873(18)
H30 H 0.5901 0.9918 0.7281
H31 H 0.5405 0.9605 0.6922
O9 O 0.4332(5) 0.0857(3) 0.6299(6)
H32 H 0.4648 0.0767 0.6099
H33 H 0.4010 0.0682 0.6406
O10 O 0.4833(11) 0.0360(9) 0.4793(19)
H34 H 0.4978 0.0553 0.4369
H35 H 0.4623 0.0675 0.4919
Cd1 Cd 0.5000 0.27539(2) 0.7500
N1 N 0.56277(19) 0.35395(18) 0.7052(3)
N2 N 0.44202(17) 0.19055(17) 0.8058(3)
O1 O 0.43046(15) 0.26976(15) 0.5799(3)
C1 C 0.5515(4) 0.3682(3) 0.6061(5)
C2 C 0.6140(3) 0.3790(2) 0.7775(5)
C3 C 0.4162(2) 0.20861(19) 0.8843(3)
H1 H 0.4091 0.1766 0.7491
H2 H 0.4694 0.1572 0.8302
C4 C 0.3722(2) 0.2514(2) 0.5467(3)
H3 H 0.5151 0.3501 0.5557
C5 C 0.5901(5) 0.4079(4) 0.5725(7)
C6 C 0.6576(3) 0.4213(3) 0.7478(6)
H4 H 0.6224 0.3698 0.8480
C7 C 0.4531(2) 0.2017(2) 0.9895(3)
C8 C 0.3556(2) 0.2362(2) 0.8580(4)
C9 C 0.3327(2) 0.2680(2) 0.4320(3)
O2 O 0.34491(16) 0.22266(17) 0.5990(3)
H5 H 0.5796 0.4172 0.5016
C10 C 0.6401(4) 0.4315(3) 0.6399(6)
N3 N 0.7107(3) 0.4441(3) 0.8242(5)
H6 H 0.4942 0.1832 1.0074
N4 N 0.43251(19) 0.22020(16) 1.0667(3)
C11 C 0.3344(2) 0.2559(3) 0.9374(4)
H7 H 0.3294 0.2414 0.7880
H8 H 0.3619 0.2889 0.4011
C12 C 0.3028(2) 0.2090(2) 0.3661(4)
N5 N 0.28165(18) 0.31384(18) 0.4299(3)
H9 H 0.6670 0.4572 0.6166
H10 H 0.7381 0.4677 0.8083
H11 H 0.7172 0.4351 0.8887
C13 C 0.3733(2) 0.2471(2) 1.0404(4)
Cd2 Cd 0.5000 0.21460(2) 1.2500
H12 H 0.2938 0.2752 0.9211
H13 H 0.2707 0.1906 0.3920
H14 H 0.2803 0.2227 0.2942
C14 C 0.3513(2) 0.1570(2) 0.3663(4)
H15 H 0.2492 0.3002 0.4455
S1 S 0.28334(7) 0.38816(6) 0.39995(10)
H16 H 0.3583 0.2601 1.0932
H17 H 0.3750 0.1447 0.4384
H18 H 0.3274 0.1195 0.3304
C15 C 0.4000(2) 0.1752(3) 0.3156(3)
C16 C 0.2530(2) 0.3970(2) 0.2615(3)
O3 O 0.3502(2) 0.40796(18) 0.4351(3)
O4 O 0.2382(2) 0.4212(2) 0.4370(3)
O5 O 0.44133(16) 0.13386(16) 0.3111(3)
O6 O 0.40098(18) 0.23045(18) 0.2824(3)
C17 C 0.1929(3) 0.4240(2) 0.2127(4)
C18 C 0.2900(3) 0.3769(3) 0.2033(4)
H19 H 0.1674 0.4373 0.2510
C19 C 0.1710(3) 0.4309(3) 0.1030(5)
C20 C 0.2670(3) 0.3843(3) 0.0965(4)
H20 H 0.3305 0.3582 0.2368
H21 H 0.1303 0.4492 0.0687
C21 C 0.2074(3) 0.4115(3) 0.0452(5)
H22 H 0.2924 0.3707 0.0582
C22 C 0.1824(4) 0.4188(3) -0.0740(5)
H23 H 0.2111 0.4466 -0.0940
H24 H 0.1395 0.4370 -0.0973
H25 H 0.1810 0.3772 -0.1058
N6 N 0.5000 0.3285(3) 1.2500
C23 C 0.5255(3) 0.3606(3) 1.1899(5)
H26 H 0.5434 0.3382 1.1472
C24 C 0.5259(5) 0.4293(4) 1.1903(8)
C25 C 0.5000 0.4629(6) 1.2500
H27 H 0.5448 0.4486 1.1436
H28 H 0.5000 0.5077 1.2500
C23A C 0.4745(3) 0.3606(3) 1.3101(5)
H26A H 0.4566 0.3382 1.3528
C24A C 0.4741(5) 0.4293(4) 1.3097(8)
H27A H 0.4552 0.4486 1.3564
N1A N 0.43723(19) 0.35395(18) 0.7948(3)
N2A N 0.55798(17) 0.19055(17) 0.6942(3)
O1A O 0.56954(15) 0.26976(15) 0.9201(3)
C1A C 0.4485(4) 0.3682(3) 0.8939(5)
C2A C 0.3860(3) 0.3790(2) 0.7225(5)
C3A C 0.5838(2) 0.20861(19) 0.6157(3)
H1A H 0.5909 0.1766 0.7509
H2A H 0.5306 0.1572 0.6698
C4A C 0.6278(2) 0.2514(2) 0.9533(3)
H3A H 0.4849 0.3501 0.9443
C5A C 0.4099(5) 0.4079(4) 0.9275(7)
C6A C 0.3424(3) 0.4213(3) 0.7522(6)
H4A H 0.3776 0.3698 0.6520
C7A C 0.5469(2) 0.2017(2) 0.5105(3)
C8A C 0.6444(2) 0.2362(2) 0.6420(4)
C9A C 0.6673(2) 0.2680(2) 1.0680(3)
O2A O 0.65509(16) 0.22266(17) 0.9010(3)
H5A H 0.4204 0.4172 0.9984
C10A C 0.3599(4) 0.4315(3) 0.8601(6)
N3A N 0.2893(3) 0.4441(3) 0.6758(5)
H6A H 0.5058 0.1832 0.4926
N4A N 0.56749(19) 0.22020(16) 0.4333(3)
C11A C 0.6656(2) 0.2559(3) 0.5626(4)
H7A H 0.6706 0.2414 0.7120
H8A H 0.6381 0.2889 1.0989
C12A C 0.6972(2) 0.2090(2) 1.1339(4)
N5A N 0.71835(18) 0.31384(18) 1.0701(3)
H9A H 0.3330 0.4572 0.8834
H10A H 0.2619 0.4677 0.6917
H11A H 0.2828 0.4351 0.6113
C13A C 0.6267(2) 0.2471(2) 0.4596(4)
H12A H 0.7062 0.2752 0.5789
H13A H 0.7293 0.1906 1.1080
H14A H 0.7197 0.2227 1.2058
C14A C 0.6487(2) 0.1570(2) 1.1337(4)
H15A H 0.7508 0.3002 1.0545
S1A S 0.71666(7) 0.38816(6) 1.10005(10)
H16A H 0.6417 0.2601 0.4068
H17A H 0.6250 0.1447 1.0616
H18A H 0.6726 0.1195 1.1696
C15A C 0.6000(2) 0.1752(3) 1.1844(3)
C16A C 0.7470(2) 0.3970(2) 1.2385(3)
O3A O 0.6498(2) 0.40796(18) 1.0649(3)
O4A O 0.7618(2) 0.4212(2) 1.0630(3)
O5A O 0.55867(16) 0.13386(16) 1.1889(3)
O6A O 0.59902(18) 0.23045(18) 1.2176(3)
C17A C 0.8071(3) 0.4240(2) 1.2873(4)
C18A C 0.7100(3) 0.3769(3) 1.2967(4)
H19A H 0.8326 0.4373 1.2490
C19A C 0.8290(3) 0.4309(3) 1.3970(5)
C20A C 0.7330(3) 0.3843(3) 1.4035(4)
H20A H 0.6695 0.3582 1.2632
H21A H 0.8697 0.4492 1.4313
C21A C 0.7926(3) 0.4115(3) 1.4548(5)
H22A H 0.7076 0.3707 1.4418
C22A C 0.8176(4) 0.4188(3) 1.5740(5)
H23A H 0.7889 0.4466 1.5940
H24A H 0.8605 0.4370 1.5973
H25A H 0.8190 0.3772 1.6058
N4A_2 N 0.56749(19) 0.22020(16) 1.4333(3)
Cd2_2 Cd 0.5000 0.21460(2) 0.2500
O5_2 O 0.44133(16) 0.13386(16) 1.3111(3)
O6_2 O 0.40098(18) 0.23045(18) 1.2824(3)
H36? H 0.5258 0.9935 0.7201
H37? H 0.5562 0.4514 0.0869
N7? N 0.5392(6) 0.4661(5) 1.1304(10)
H38? H 0.5314 0.5067 1.1318
loop_
_geom_bond_atom_site_label_1
_geom_bond_atom_site_label_2
_geom_bond_site_symmetry_1
_geom_bond_site_symmetry_2
Cd1 N1 1_555 1_555
N1 C1 1_555 1_555
N2 Cd1 1_555 1_555
O1 Cd1 1_555 1_555
C1 H3 1_555 1_555
C2 N1 1_555 1_555
C3 N2 1_555 1_555
H1 N2 1_555 1_555
H2 N2 1_555 1_555
C4 O1 1_555 1_555
C5 C1 1_555 1_555
C6 C2 1_555 1_555
H4 C2 1_555 1_555
C7 C3 1_555 1_555
C8 C3 1_555 1_555
C9 C4 1_555 1_555
O2 C4 1_555 1_555
H5 C5 1_555 1_555
C10 C5 1_555 1_555
N3 C6 1_555 1_555
H6 C7 1_555 1_555
N4 C7 1_555 1_555
C11 C8 1_555 1_555
H7 C8 1_555 1_555
H8 C9 1_555 1_555
C12 C9 1_555 1_555
N5 C9 1_555 1_555
H9 C10 1_555 1_555
H10 N3 1_555 1_555
H11 N3 1_555 1_555
C13 N4 1_555 1_555
Cd2 N4 1_555 1_555
H12 C11 1_555 1_555
H13 C12 1_555 1_555
H14 C12 1_555 1_555
C14 C12 1_555 1_555
H15 N5 1_555 1_555
S1 N5 1_555 1_555
H16 C13 1_555 1_555
H17 C14 1_555 1_555
H18 C14 1_555 1_555
C15 C14 1_555 1_555
C16 S1 1_555 1_555
O3 S1 1_555 1_555
O4 S1 1_555 1_555
O5 C15 1_555 1_555
O6 C15 1_555 1_555
C17 C16 1_555 1_555
C18 C16 1_555 1_555
H19 C17 1_555 1_555
C19 C17 1_555 1_555
C20 C18 1_555 1_555
H20 C18 1_555 1_555
H21 C19 1_555 1_555
C21 C19 1_555 1_555
H22 C20 1_555 1_555
C22 C21 1_555 1_555
H23 C22 1_555 1_555
H24 C22 1_555 1_555
H25 C22 1_555 1_555
N6 Cd2 1_555 1_555
C23 N6 1_555 1_555
H26 C23 1_555 1_555
C24 C23 1_555 1_555
C25 C24 1_555 1_555
H27 C24 1_555 1_555
H28 C25 1_555 1_555
O7 H29 1_555 1_555
O8 H30 1_555 1_555
H31 O8 1_555 1_555
O9 H32 1_555 1_555
H33 O9 1_555 1_555
O10 H34 1_555 1_555
H35 O10 1_555 1_555
C23A N6 1_555 1_555
H26A C23A 1_555 1_555
C24A C25 1_555 1_555
H27A C24A 1_555 1_555
N1A Cd1 1_555 1_555
N2A Cd1 1_555 1_555
O1A Cd1 1_555 1_555
C1A N1A 1_555 1_555
C2A N1A 1_555 1_555
C3A N2A 1_555 1_555
H1A N2A 1_555 1_555
H2A N2A 1_555 1_555
C4A O1A 1_555 1_555
H3A C1A 1_555 1_555
C5A C1A 1_555 1_555
C6A C2A 1_555 1_555
H4A C2A 1_555 1_555
C7A C3A 1_555 1_555
C8A C3A 1_555 1_555
C9A C4A 1_555 1_555
O2A C4A 1_555 1_555
H5A C5A 1_555 1_555
C10A C5A 1_555 1_555
N3A C6A 1_555 1_555
H6A C7A 1_555 1_555
N4A C7A 1_555 1_555
C11A C8A 1_555 1_555
H7A C8A 1_555 1_555
H8A C9A 1_555 1_555
C12A C9A 1_555 1_555
N5A C9A 1_555 1_555
H9A C10A 1_555 1_555
H10A N3A 1_555 1_555
H11A N3A 1_555 1_555
C13A N4A 1_555 1_555
H12A C11A 1_555 1_555
H13A C12A 1_555 1_555
H14A C12A 1_555 1_555
C14A C12A 1_555 1_555
H15A N5A 1_555 1_555
S1A N5A 1_555 1_555
H16A C13A 1_555 1_555
H17A C14A 1_555 1_555
H18A C14A 1_555 1_555
C15A C14A 1_555 1_555
C16A S1A 1_555 1_555
O3A S1A 1_555 1_555
O4A S1A 1_555 1_555
O5A Cd2 1_555 1_555
O6A Cd2 1_555 1_555
C17A C16A 1_555 1_555
C18A C16A 1_555 1_555
H19A C17A 1_555 1_555
C19A C17A 1_555 1_555
C20A C18A 1_555 1_555
H20A C18A 1_555 1_555
H21A C19A 1_555 1_555
C21A C19A 1_555 1_555
H22A C20A 1_555 1_555
C22A C21A 1_555 1_555
H23A C22A 1_555 1_555
H24A C22A 1_555 1_555
H25A C22A 1_555 1_555
N4A_2 Cd2 1_555 1_555
Cd2_2 O5 1_555 1_555
O5_2 Cd2 1_555 1_555
O6_2 Cd2 1_555 1_555
H29A O7 1_555 1_555
C6 C10 1_555 1_555
C11 C13 1_555 1_555
O6 Cd2_2 1_555 1_555
C20 C21 1_555 1_555
C23A C24A 1_555 1_555
C6A C10A 1_555 1_555
N4A Cd2_2 1_555 1_555
C11A C13A 1_555 1_555
C15A O5A 1_555 1_555
C15A O6A 1_555 1_555
C20A C21A 1_555 1_555

#END
