
#######################################################################
#
#                 Cambridge Crystallographic Data Centre
#                                CCDC 
#
#######################################################################
#
# If this CIF has been generated from an entry in the Cambridge 
# Structural Database, then it will include bibliographic, chemical, 
# crystal, experimental, refinement or atomic coordinate data resulting 
# from the CCDC's data processing and validation procedures.
#
#######################################################################

data_WOMDUY
_symmetry_cell_setting           triclinic
_symmetry_space_group_name_H-M   'P -1'
_symmetry_Int_Tables_number      2
_space_group_name_Hall           '-P 1'
loop_
_symmetry_equiv_pos_site_id
_symmetry_equiv_pos_as_xyz
1 x,y,z
2 -x,-y,-z
_cell_length_a                   6.3991(5)
_cell_length_b                   7.0313(2)
_cell_length_c                   12.3565(10)
_cell_angle_alpha                93.155(5)
_cell_angle_beta                 100.512(6)
_cell_angle_gamma                94.345(6)
_cell_volume                     543.72
loop_
_atom_site_label
_atom_site_type_symbol
_atom_site_fract_x
_atom_site_fract_y
_atom_site_fract_z
P1 P 0.40650(13) 0.04433(10) 0.30876(6)
P2 P 0.19801(12) 0.42460(10) 0.29189(6)
Na1 Na 0.6427(2) -0.34337(18) 0.43821(11)
O1 O 0.6112(4) -0.0450(3) 0.29801(18)
O2 O 0.2083(4) -0.0708(3) 0.24607(19)
O3 O 0.3930(4) 0.0911(3) 0.43009(19)
O4 O 0.0015(3) 0.2903(3) 0.28185(19)
O5 O 0.1607(4) 0.5719(3) 0.20119(19)
O6 O 0.2860(3) 0.5258(3) 0.40311(18)
O7 O 0.6112(4) 0.3953(3) 0.30440(19)
Cl1 Cl 1.0042(4) -0.2308(4) 0.4624(3)
Na2 Na 0.9759(4) 0.0318(3) 0.3863(2)
N1 N 0.3822(5) 0.1935(4) -0.0959(2)
C1 C 0.4162(5) 0.2861(4) 0.2522(2)
C2 C 0.5682(6) 0.2557(5) -0.0299(3)
C3 C 0.5822(6) 0.2924(5) 0.0814(3)
C4 C 0.4003(5) 0.2617(4) 0.1282(2)
C5 C 0.2094(5) 0.2042(5) 0.0570(3)
C6 C 0.2034(6) 0.1713(5) -0.0544(3)
H1 H 0.379(8) 0.149(7) -0.178(5)
H2 H 0.693(6) 0.274(5) -0.062(3)
H3 H 0.723(6) 0.339(5) 0.125(3)
H4 H 0.091(6) 0.183(5) 0.086(3)
H5 H 0.083(6) 0.126(5) -0.101(3)
H6 H 0.474(5) 0.045(6) 0.463(3)
H7 H 0.190(8) 0.677(7) 0.220(4)
H8 H 0.712(7) 0.344(6) 0.293(4)
Na1A Na 0.3573(2) 0.34337(18) 0.56179(11)
Na1_2 Na 0.6427(2) 0.65663(18) 0.43821(11)
O2_2 O 1.2083(4) -0.0708(3) 0.24607(19)
O3A O 0.6070(4) -0.0911(3) 0.56991(19)
O3_2 O 1.3930(4) 0.0911(3) 0.43009(19)
O4_2 O 1.0015(3) 0.2903(3) 0.28185(19)
O6_2 O 0.2860(3) -0.4742(3) 0.40311(18)
O6A O 0.7140(3) -0.5258(3) 0.59689(18)
O7_2 O 0.6112(4) -0.6047(3) 0.30440(19)
Cl1A Cl 0.9958(4) 0.2308(4) 0.5376(3)
Na2_2 Na -0.0241(4) 0.0318(3) 0.3863(2)
Na2A Na 1.0241(4) -0.0318(3) 0.6137(2)
H6A H 0.526(5) -0.045(6) 0.537(3)
H6_2 H 1.474(5) 0.045(6) 0.463(3)
H8_2 H 0.712(7) -0.656(6) 0.293(4)
loop_
_geom_bond_atom_site_label_1
_geom_bond_atom_site_label_2
_geom_bond_site_symmetry_1
_geom_bond_site_symmetry_2
P1 O1 1_555 1_555
P2 O4 1_555 1_555
Na1 O1 1_555 1_555
O1 Na2 1_555 1_555
O2 P1 1_555 1_555
O3 P1 1_555 1_555
O4 Na2_2 1_555 1_555
O5 P2 1_555 1_555
O6 P2 1_555 1_555
O7 C1 1_555 1_555
Cl1 Na1 1_555 1_555
Na2 Cl1 1_555 1_555
N1 C2 1_555 1_555
C1 P1 1_555 1_555
C2 C3 1_555 1_555
C3 C4 1_555 1_555
C4 C1 1_555 1_555
C5 C4 1_555 1_555
C6 N1 1_555 1_555
H1 N1 1_555 1_555
H2 C2 1_555 1_555
H3 C3 1_555 1_555
H4 C5 1_555 1_555
H5 C6 1_555 1_555
H6 O3 1_555 1_555
H7 O5 1_555 1_555
H8 O7 1_555 1_555
Na1A O3 1_555 1_555
Na1_2 O6 1_555 1_555
O2_2 Na2 1_555 1_555
O3A Na1 1_555 1_555
O3_2 Na2 1_555 1_555
O4_2 Na2 1_555 1_555
O6_2 Na1 1_555 1_555
O6A Na1 1_555 1_555
O7_2 Na1 1_555 1_555
Cl1A Na2 1_555 1_555
Na2_2 O2 1_555 1_555
Na2A Cl1 1_555 1_555
H6A O3A 1_555 1_555
H6_2 O3_2 1_555 1_555
H8_2 O7_2 1_555 1_555
P2 C1 1_555 1_555
O3 Na2_2 1_555 1_555
O6 Na1A 1_555 1_555
O7 Na1_2 1_555 1_555
C5 C6 1_555 1_555
O3A Na2A 1_555 1_555
Cl1A Na2A 1_555 1_555

#END
