
#######################################################################
#
#                 Cambridge Crystallographic Data Centre
#                                CCDC 
#
#######################################################################
#
# If this CIF has been generated from an entry in the Cambridge 
# Structural Database, then it will include bibliographic, chemical, 
# crystal, experimental, refinement or atomic coordinate data resulting 
# from the CCDC's data processing and validation procedures.
#
#######################################################################

data_WOMJOY
_symmetry_cell_setting           rhombohedral
_symmetry_space_group_name_H-M   'R -3 c'
_symmetry_Int_Tables_number      167
_space_group_name_Hall           '-R 3 2"c'
loop_
_symmetry_equiv_pos_site_id
_symmetry_equiv_pos_as_xyz
1 x,y,z
2 -y,x-y,z
3 -x+y,-x,z
4 y,x,1/2-z
5 2/3+x,1/3+y,1/3+z
6 2/3-y,1/3+x-y,1/3+z
7 2/3-x+y,1/3-x,1/3+z
8 2/3+y,1/3+x,5/6-z
9 1/3+x,2/3+y,2/3+z
10 1/3+y,2/3+x,1/6-z
11 -x,-x+y,1/2-z
12 x-y,-y,1/2-z
13 1/3-y,2/3+x-y,2/3+z
14 1/3-x+y,2/3-x,2/3+z
15 1/3-x,2/3-x+y,1/6-z
16 1/3+x-y,2/3-y,1/6-z
17 2/3-x,1/3-x+y,5/6-z
18 2/3+x-y,1/3-y,5/6-z
19 -x,-y,-z
20 y,-x+y,-z
21 x-y,x,-z
22 -y,-x,1/2+z
23 1/3-x,2/3-y,2/3-z
24 1/3+y,2/3-x+y,2/3-z
25 1/3+x-y,2/3+x,2/3-z
26 1/3-y,2/3-x,1/6+z
27 2/3-x,1/3-y,1/3-z
28 2/3-y,1/3-x,5/6+z
29 x,x-y,1/2+z
30 -x+y,y,1/2+z
31 2/3+y,1/3-x+y,1/3-z
32 2/3+x-y,1/3+x,1/3-z
33 2/3+x,1/3+x-y,5/6+z
34 2/3-x+y,1/3+y,5/6+z
35 1/3+x,2/3+x-y,1/6+z
36 1/3-x+y,2/3+y,1/6+z
_cell_length_a                   12.6787(18)
_cell_length_b                   12.6787(18)
_cell_length_c                   53.746(11)
_cell_angle_alpha                90
_cell_angle_beta                 90
_cell_angle_gamma                120.00
_cell_volume                     7482.15
loop_
_atom_site_label
_atom_site_type_symbol
_atom_site_fract_x
_atom_site_fract_y
_atom_site_fract_z
S1 S 0.0000 0.0000 0.0000
O7 O 0.0271(10) 0.1209(9) 0.00849(17)
O7T O -0.0938(13) 0.0271(10) -0.00849(17)
O7A O -0.1209(9) -0.0938(13) 0.00849(17)
O7R O -0.0271(10) -0.1209(9) -0.00849(17)
O7B O 0.0938(13) -0.0271(10) 0.00849(17)
O7S O 0.1209(9) 0.0938(13) -0.00849(17)
N2 N 0.6667 0.3333 0.0833
O8 O 0.7667(7) 0.3333 0.0833
O8A O 0.6667 0.4334(7) 0.0833
O8B O 0.5666(7) 0.2333(7) 0.0833
O9 O 0.471(3) 0.314(3) 0.0687(5)
O9O O 0.490(4) 0.353(3) 0.0980(5)
Nd1 Nd 0.15080(6) 0.3333 0.0833
O1 O 0.1487(5) 0.4927(5) 0.10967(9)
H1 H 0.2291 0.5431 0.1108
H2 H 0.1340 0.5470 0.1015
O2 O 0.1350(6) 0.4789(5) 0.05606(9)
O3 O 0.1351(5) 0.6360(5) 0.07480(9)
O4 O 0.0730(5) 0.7705(4) 0.04444(9)
C1 C 0.1150(7) 0.7024(7) -0.01729(13)
H3 H 0.1108 0.7305 -0.0330
O5 O -0.0681(12) 0.3333 0.0833
C2 C 0.1331(7) 0.5765(6) 0.05553(12)
C3 C 0.1266(7) 0.6227(6) 0.03021(12)
N1 N 0.0898(6) 0.7486(6) 0.00320(11)
H4 H 0.0685 0.8025 0.0009
C4 C 0.1494(7) 0.5750(7) 0.00937(12)
H5 H 0.1681 0.5133 0.0114
C5 C 0.0960(7) 0.7159(6) 0.02738(12)
C6 C 0.1461(7) 0.6148(7) -0.01470(13)
H6 H 0.1645 0.5825 -0.0285
Nd1A Nd 0.6667 0.81750(6) 0.0833
Nd1B Nd 0.18250(6) 0.84920(6) 0.0833
O1O O -0.0107(7) 0.1740(5) 0.05700(9)
H1O H 0.0193 0.1236 0.0559
H2O H -0.0797 0.1197 0.0652
O2O O -0.0106(8) 0.1878(5) 0.11061(9)
O2A O 0.5211(5) 0.6561(8) 0.05606(9)
O3A O 0.3640(5) 0.4991(7) 0.07480(9)
O3N O 0.1982(5) 0.1676(7) 0.09187(9)
O4A O 0.2295(4) 0.3025(6) 0.04444(9)
O4N O 0.2603(5) 0.3642(6) 0.12223(9)
C1A C 0.2976(7) 0.4126(10) -0.01729(13)
H3A H 0.2695 0.3803 -0.0330
C2A C 0.4235(6) 0.5566(9) 0.05553(12)
C3A C 0.3773(6) 0.5039(9) 0.03021(12)
N1A N 0.2514(6) 0.3412(8) 0.00320(11)
H4A H 0.1975 0.2660 0.0009
C4A C 0.4250(7) 0.5744(10) 0.00937(12)
H5A H 0.4867 0.6548 0.0114
C5A C 0.2841(6) 0.3801(9) 0.02738(12)
C6A C 0.3852(7) 0.5313(10) -0.01470(13)
H6A H 0.4175 0.5820 -0.0285
O6? O 0.0000 0.0000 0.0282(3)
loop_
_geom_bond_atom_site_label_1
_geom_bond_atom_site_label_2
_geom_bond_site_symmetry_1
_geom_bond_site_symmetry_2
Nd1 O1 1_555 1_555
O1 H1 1_555 1_555
H2 O1 1_555 1_555
O2 Nd1 1_555 1_555
O3 C2 1_555 1_555
O4 C5 1_555 1_555
C1 H3 1_555 1_555
O5 Nd1 1_555 1_555
C2 O2 1_555 1_555
C3 C2 1_555 1_555
N1 C1 1_555 1_555
H4 N1 1_555 1_555
C4 C3 1_555 1_555
H5 C4 1_555 1_555
C5 C3 1_555 1_555
C6 C1 1_555 1_555
H6 C6 1_555 1_555
S1 O7 1_555 1_555
O7 O7T 1_555 1_555
N2 O8 1_555 1_555
O9 O9O 1_555 1_555
Nd1A O2A 1_555 1_555
Nd1B O3 1_555 1_555
O1O Nd1 1_555 1_555
H1O O1O 1_555 1_555
H2O O1O 1_555 1_555
O2O Nd1 1_555 1_555
O2A C2A 1_555 1_555
O3A Nd1 1_555 1_555
O3N Nd1 1_555 1_555
O4A Nd1 1_555 1_555
O4N Nd1 1_555 1_555
C1A H3A 1_555 1_555
C2A O3A 1_555 1_555
C3A C2A 1_555 1_555
N1A C1A 1_555 1_555
H4A N1A 1_555 1_555
C4A C3A 1_555 1_555
H5A C4A 1_555 1_555
C5A O4A 1_555 1_555
C6A C1A 1_555 1_555
H6A C6A 1_555 1_555
O7T S1 1_555 1_555
O7A S1 1_555 1_555
O7R S1 1_555 1_555
O7B S1 1_555 1_555
O7S S1 1_555 1_555
O8A N2 1_555 1_555
O8B N2 1_555 1_555
O4 Nd1B 1_555 1_555
N1 C5 1_555 1_555
C4 C6 1_555 1_555
O7 O7S 1_555 1_555
C3A C5A 1_555 1_555
N1A C5A 1_555 1_555
C4A C6A 1_555 1_555
O7T O7A 1_555 1_555
O7A O7R 1_555 1_555
O7R O7B 1_555 1_555
O7B O7S 1_555 1_555

#END
