
#######################################################################
#
#                 Cambridge Crystallographic Data Centre
#                                CCDC 
#
#######################################################################
#
# If this CIF has been generated from an entry in the Cambridge 
# Structural Database, then it will include bibliographic, chemical, 
# crystal, experimental, refinement or atomic coordinate data resulting 
# from the CCDC's data processing and validation procedures.
#
#######################################################################

data_WOMNIW
_symmetry_cell_setting           monoclinic
_symmetry_space_group_name_H-M   'P 21/c'
_symmetry_Int_Tables_number      14
_space_group_name_Hall           '-P 2ybc'
loop_
_symmetry_equiv_pos_site_id
_symmetry_equiv_pos_as_xyz
1 x,y,z
2 -x,1/2+y,1/2-z
3 -x,-y,-z
4 x,1/2-y,1/2+z
_cell_length_a                   13.9382(14)
_cell_length_b                   20.0300(19)
_cell_length_c                   17.1757(17)
_cell_angle_alpha                90
_cell_angle_beta                 94.054(2)
_cell_angle_gamma                90
_cell_volume                     4783.15
loop_
_atom_site_label
_atom_site_type_symbol
_atom_site_fract_x
_atom_site_fract_y
_atom_site_fract_z
O2 O 0.371(3) 0.0090(15) 0.7316(19)
P1 P 0.0000 0.0000 0.5000
Mo1 Mo -0.11153(10) 0.03019(7) 0.31117(8)
Mo2 Mo 0.00660(10) 0.12648(6) 0.64324(8)
Mo3 Mo -0.25447(8) -0.00216(6) 0.47076(7)
Mo4 Mo 0.12768(9) 0.15028(6) 0.47083(7)
Mo5 Mo -0.12794(9) 0.15139(6) 0.46175(7)
Mo6 Mo -0.14381(9) -0.01486(6) 0.66206(8)
Mo7 Mo -0.35856(8) 0.09169(5) 0.03188(6)
Mo8 Mo -0.46648(8) -0.00412(5) -0.10187(6)
Mo9 Mo -0.35316(8) -0.08477(5) 0.04479(7)
Cu1 Cu -0.53066(11) 0.16979(7) 0.13030(9)
Cu2 Cu -0.52182(11) -0.15865(7) 0.15130(9)
Cu3 Cu -0.14273(10) 0.00900(7) 0.09319(9)
O1 O -0.0894(12) 0.0328(7) 0.4563(10)
O3 O 0.0020(12) 0.0764(7) 0.5102(9)
O4 O -0.0063(11) 0.0147(7) 0.5908(8)
O5 O 0.0159(7) 0.0416(5) 0.2903(8)
O6 O -0.1235(8) 0.1115(5) 0.3571(5)
O7 O 0.1897(7) 0.2191(4) 0.4583(6)
O8 O 0.0037(6) 0.1770(6) 0.4406(5)
O9 O -0.3975(6) -0.1330(4) 0.1212(5)
O10 O -0.3736(6) 0.0009(5) 0.4605(6)
O11 O -0.0920(6) 0.1612(6) 0.5649(5)
O12 O -0.2353(7) 0.0055(4) 0.5843(5)
O13 O -0.2317(7) -0.0911(4) 0.4832(5)
O14 O -0.4034(6) 0.1439(4) 0.1037(5)
O15 O -0.1004(7) 0.0701(5) 0.6722(7)
O16 O -0.4474(6) 0.0633(4) -0.1628(4)
O17 O 0.1416(8) 0.1042(4) 0.3780(5)
O18 O -0.1676(7) 0.0402(5) 0.2241(5)
O19 O -0.0893(7) -0.0663(5) 0.3084(8)
O20 O -0.4431(5) -0.0764(4) -0.1539(5)
O21 O -0.2242(9) 0.0927(5) 0.4771(6)
O22 O -0.3538(6) 0.1441(4) -0.0468(5)
O23 O 0.0025(6) 0.1870(4) 0.7071(5)
O24 O 0.0912(11) 0.0303(7) 0.4745(8)
O25 O -0.2072(7) -0.0239(4) 0.7385(5)
O26 O -0.2352(5) -0.0636(4) 0.0777(5)
O27 O -0.2199(9) 0.0000(5) 0.3710(6)
O28 O -0.1851(7) 0.2210(4) 0.4415(6)
O29 O 0.0964(6) 0.1584(5) 0.5779(5)
O30 O -0.3431(6) -0.1422(4) -0.0274(5)
O31 O -0.2385(5) 0.0766(4) 0.0646(5)
O32 O -0.3501(5) 0.0002(4) -0.0343(4)
O33 O -0.5023(6) 0.0638(4) -0.0041(5)
O34 O -0.3995(5) 0.0061(3) 0.1068(4)
N1 N -0.0357(7) 0.0754(5) 0.0901(6)
N2 N -0.0321(7) -0.0541(5) 0.1074(5)
N3 N -0.5033(8) 0.2645(5) 0.1064(6)
N4 N -0.6344(8) 0.2104(5) 0.1868(6)
N5 N -0.6244(8) -0.1932(5) 0.2140(6)
N6 N -0.4956(8) -0.2550(5) 0.1368(6)
C1 C -0.7005(10) 0.1790(7) 0.2237(7)
H1 H -0.6977 0.1327 0.2263
C2 C -0.7733(11) 0.2105(9) 0.2586(8)
H2 H -0.8174 0.1862 0.2853
C3 C -0.7796(11) 0.2781(9) 0.2534(9)
H3 H -0.8286 0.3007 0.2762
C4 C -0.7123(11) 0.3129(8) 0.2140(9)
H4 H -0.7162 0.3591 0.2089
C5 C -0.6372(10) 0.2766(7) 0.1814(8)
C6 C -0.5623(11) 0.3089(7) 0.1389(9)
C7 C -0.5470(12) 0.3762(7) 0.1313(11)
H5 H -0.5862 0.4069 0.1545
C8 C -0.4724(14) 0.3978(8) 0.0885(12)
H6 H -0.4625 0.4432 0.0808
C9 C -0.4140(12) 0.3521(8) 0.0582(11)
H7 H -0.3627 0.3664 0.0307
C10 C -0.4293(12) 0.2858(8) 0.0672(10)
H8 H -0.3884 0.2550 0.0462
C11 C -0.4237(10) -0.2822(7) 0.1013(8)
H9 H -0.3790 -0.2541 0.0803
C12 C -0.4124(12) -0.3492(8) 0.0941(10)
H10 H -0.3633 -0.3667 0.0664
C13 C -0.4758(15) -0.3906(8) 0.1291(12)
H11 H -0.4679 -0.4367 0.1279
C14 C -0.5505(12) -0.3629(7) 0.1655(11)
H12 H -0.5951 -0.3905 0.1873
C15 C -0.5603(10) -0.2953(7) 0.1703(7)
C16 C -0.6331(9) -0.2607(7) 0.2112(7)
C17 C -0.7066(12) -0.2928(9) 0.2465(10)
H13 H -0.7130 -0.3390 0.2433
C18 C -0.7704(13) -0.2555(10) 0.2866(10)
H14 H -0.8205 -0.2763 0.3101
C19 C -0.7590(11) -0.1865(10) 0.2916(9)
H15 H -0.7994 -0.1604 0.3199
C20 C -0.6839(10) -0.1577(8) 0.2519(9)
H16 H -0.6767 -0.1115 0.2529
C21 C -0.0397(10) -0.1191(6) 0.1133(8)
H17 H -0.1004 -0.1383 0.1141
C22 C 0.0419(10) -0.1604(6) 0.1186(7)
H18 H 0.0359 -0.2064 0.1239
C23 C 0.1296(9) -0.1318(7) 0.1157(7)
H19 H 0.1846 -0.1582 0.1171
C24 C 0.1373(10) -0.0636(7) 0.1106(7)
H20 H 0.1975 -0.0435 0.1105
C25 C 0.0547(8) -0.0252(6) 0.1057(7)
C26 C 0.0530(8) 0.0472(6) 0.0973(7)
C27 C 0.1333(9) 0.0866(6) 0.0944(7)
H21 H 0.1942 0.0675 0.1004
C28 C 0.1236(9) 0.1543(7) 0.0827(8)
H22 H 0.1776 0.1809 0.0784
C29 C 0.0344(10) 0.1817(7) 0.0776(7)
H23 H 0.0269 0.2276 0.0716
C30 C -0.0476(10) 0.1400(6) 0.0813(7)
H24 H -0.1090 0.1583 0.0775
Mo1B Mo 0.11153(10) -0.03019(7) 0.68883(8)
Mo2B Mo -0.00660(10) -0.12648(6) 0.35676(8)
Mo3B Mo 0.25447(8) 0.00216(6) 0.52924(7)
Mo4B Mo -0.12768(9) -0.15028(6) 0.52917(7)
Mo5B Mo 0.12794(9) -0.15139(6) 0.53825(7)
Mo6B Mo 0.14381(9) 0.01486(6) 0.33794(8)
Mo7B Mo -0.64144(8) -0.09169(5) -0.03188(6)
Mo8B Mo -0.53352(8) 0.00412(5) 0.10187(6)
Mo9B Mo -0.64684(8) 0.08477(5) -0.04479(7)
Cu1B Cu -0.46934(11) -0.16979(7) -0.13030(9)
Cu2B Cu -0.47818(11) 0.15865(7) -0.15130(9)
Cu3B Cu -0.85727(10) -0.00900(7) -0.09319(9)
Cu3B_2 Cu 0.14273(10) -0.00900(7) 0.90681(9)
O1B O 0.0894(12) -0.0328(7) 0.5437(10)
O3B O -0.0020(12) -0.0764(7) 0.4898(9)
O4B O 0.0063(11) -0.0147(7) 0.4092(8)
O5B O -0.0159(7) -0.0416(5) 0.7097(8)
O6B O 0.1235(8) -0.1115(5) 0.6429(5)
O7B O -0.1897(7) -0.2191(4) 0.5417(6)
O8B O -0.0037(6) -0.1770(6) 0.5594(5)
O9B O -0.6025(6) 0.1330(4) -0.1212(5)
O10B O 0.3736(6) -0.0009(5) 0.5395(6)
O11B O 0.0920(6) -0.1612(6) 0.4351(5)
O12B O 0.2353(7) -0.0055(4) 0.4157(5)
O13B O 0.2317(7) 0.0911(4) 0.5168(5)
O14B O -0.5966(6) -0.1439(4) -0.1037(5)
O15B O 0.1004(7) -0.0701(5) 0.3278(7)
O16B O -0.5526(6) -0.0633(4) 0.1628(4)
O17B O -0.1416(8) -0.1042(4) 0.6220(5)
O18B O 0.1676(7) -0.0402(5) 0.7759(5)
O18B_2 O -0.8324(7) -0.0402(5) -0.2241(5)
O19B O 0.0893(7) 0.0663(5) 0.6916(8)
O20B O -0.5569(5) 0.0764(4) 0.1539(5)
O21B O 0.2242(9) -0.0927(5) 0.5229(6)
O22B O -0.6462(6) -0.1441(4) 0.0468(5)
O23B O -0.0025(6) -0.1870(4) 0.2929(5)
O24B O -0.0912(11) -0.0303(7) 0.5255(8)
O25B O 0.2072(7) 0.0239(4) 0.2615(5)
O26B O -0.7648(5) 0.0636(4) -0.0777(5)
O27B O 0.2199(9) 0.0000(5) 0.6290(6)
O28B O 0.1851(7) -0.2210(4) 0.5585(6)
O29B O -0.0964(6) -0.1584(5) 0.4221(5)
O30B O -0.6569(6) 0.1422(4) 0.0274(5)
O31B O -0.7615(5) -0.0766(4) -0.0646(5)
O32B O -0.6499(5) -0.0002(4) 0.0343(4)
O33B O -0.4977(6) -0.0638(4) 0.0041(5)
O34B O -0.6005(5) -0.0061(3) -0.1068(4)
N1B N -0.9643(7) -0.0754(5) -0.0901(6)
N2B N -0.9679(7) 0.0541(5) -0.1074(5)
N3B N -0.4967(8) -0.2645(5) -0.1064(6)
N4B N -0.3656(8) -0.2104(5) -0.1868(6)
N5B N -0.3756(8) 0.1932(5) -0.2140(6)
N6B N -0.5044(8) 0.2550(5) -0.1368(6)
C1B C -0.2995(10) -0.1790(7) -0.2237(7)
H1B H -0.3023 -0.1327 -0.2263
C2B C -0.2267(11) -0.2105(9) -0.2586(8)
H2B H -0.1826 -0.1862 -0.2853
C3B C -0.2204(11) -0.2781(9) -0.2534(9)
H3B H -0.1714 -0.3007 -0.2762
C4B C -0.2877(11) -0.3129(8) -0.2140(9)
H4B H -0.2838 -0.3591 -0.2089
C5B C -0.3628(10) -0.2766(7) -0.1814(8)
C6B C -0.4377(11) -0.3089(7) -0.1389(9)
C7B C -0.4530(12) -0.3762(7) -0.1313(11)
H5B H -0.4138 -0.4069 -0.1545
C8B C -0.5276(14) -0.3978(8) -0.0885(12)
H6B H -0.5375 -0.4432 -0.0808
C9B C -0.5860(12) -0.3521(8) -0.0582(11)
H7B H -0.6373 -0.3664 -0.0307
C10B C -0.5707(12) -0.2858(8) -0.0672(10)
H8B H -0.6116 -0.2550 -0.0462
C11B C -0.5763(10) 0.2822(7) -0.1013(8)
H9B H -0.6210 0.2541 -0.0803
C12B C -0.5876(12) 0.3492(8) -0.0941(10)
H10B H -0.6367 0.3667 -0.0664
C13B C -0.5242(15) 0.3906(8) -0.1291(12)
H11B H -0.5321 0.4367 -0.1279
C14B C -0.4495(12) 0.3629(7) -0.1655(11)
H12B H -0.4049 0.3905 -0.1873
C15B C -0.4397(10) 0.2953(7) -0.1703(7)
C16B C -0.3669(9) 0.2607(7) -0.2112(7)
C17B C -0.2934(12) 0.2928(9) -0.2465(10)
H13B H -0.2870 0.3390 -0.2433
C18B C -0.2296(13) 0.2555(10) -0.2866(10)
H14B H -0.1795 0.2763 -0.3101
C19B C -0.2410(11) 0.1865(10) -0.2916(9)
H15B H -0.2006 0.1604 -0.3199
C20B C -0.3161(10) 0.1577(8) -0.2519(9)
H16B H -0.3233 0.1115 -0.2529
C21B C -0.9603(10) 0.1191(6) -0.1133(8)
H17B H -0.8996 0.1383 -0.1141
C22B C -1.0419(10) 0.1604(6) -0.1186(7)
H18B H -1.0359 0.2064 -0.1239
C23B C -1.1296(9) 0.1318(7) -0.1157(7)
H19B H -1.1846 0.1582 -0.1171
C24B C -1.1373(10) 0.0636(7) -0.1106(7)
H20B H -1.1975 0.0435 -0.1105
C25B C -1.0547(8) 0.0252(6) -0.1057(7)
C26B C -1.0530(8) -0.0472(6) -0.0973(7)
C27B C -1.1333(9) -0.0866(6) -0.0944(7)
H21B H -1.1942 -0.0675 -0.1004
C28B C -1.1236(9) -0.1543(7) -0.0827(8)
H22B H -1.1776 -0.1809 -0.0784
C29B C -1.0344(10) -0.1817(7) -0.0776(7)
H23B H -1.0269 -0.2276 -0.0716
C30B C -0.9524(10) -0.1400(6) -0.0813(7)
H24B H -0.8910 -0.1583 -0.0775
loop_
_geom_bond_atom_site_label_1
_geom_bond_atom_site_label_2
_geom_bond_site_symmetry_1
_geom_bond_site_symmetry_2
P1 O1 1_555 1_555
Mo1 O1 1_555 1_555
Mo2 O3 1_555 1_555
Mo3 O1 1_555 1_555
Mo4 O3 1_555 1_555
Mo5 O1 1_555 1_555
Mo6 O4 1_555 1_555
Mo7 O14 1_555 1_555
Mo8 O16 1_555 1_555
Mo9 O9 1_555 1_555
Cu1 O14 1_555 1_555
Cu2 O9 1_555 1_555
Cu3 O18 1_555 1_555
O1 O3 1_555 1_555
O3 P1 1_555 1_555
O4 P1 1_555 1_555
O5 Mo1 1_555 1_555
O6 Mo1 1_555 1_555
O7 Mo4 1_555 1_555
O8 Mo4 1_555 1_555
O10 Mo3 1_555 1_555
O11 Mo2 1_555 1_555
O12 Mo3 1_555 1_555
O13 Mo3 1_555 1_555
O15 Mo2 1_555 1_555
O16 Cu2B 1_555 1_555
O17 Mo4 1_555 1_555
O18 Mo1 1_555 1_555
O19 Mo1 1_555 1_555
O20 Mo8 1_555 1_555
O21 Mo3 1_555 1_555
O22 Mo7 1_555 1_555
O23 Mo2 1_555 1_555
O24 P1 1_555 1_555
O25 Mo6 1_555 1_555
O26 Mo9 1_555 1_555
O27 Mo1 1_555 1_555
O28 Mo5 1_555 1_555
O29 Mo2 1_555 1_555
O30 Mo9 1_555 1_555
O31 Mo7 1_555 1_555
O32 Mo7 1_555 1_555
O33 Mo7 1_555 1_555
O34 Mo7 1_555 1_555
N1 Cu3 1_555 1_555
N2 Cu3 1_555 1_555
N3 Cu1 1_555 1_555
N4 Cu1 1_555 1_555
N5 Cu2 1_555 1_555
N6 Cu2 1_555 1_555
C1 N4 1_555 1_555
H1 C1 1_555 1_555
C2 C1 1_555 1_555
H2 C2 1_555 1_555
C3 C2 1_555 1_555
H3 C3 1_555 1_555
C4 C3 1_555 1_555
H4 C4 1_555 1_555
C5 N4 1_555 1_555
C6 N3 1_555 1_555
C7 C6 1_555 1_555
H5 C7 1_555 1_555
C8 C7 1_555 1_555
H6 C8 1_555 1_555
C9 C8 1_555 1_555
H7 C9 1_555 1_555
C10 N3 1_555 1_555
H8 C10 1_555 1_555
C11 N6 1_555 1_555
H9 C11 1_555 1_555
C12 C11 1_555 1_555
H10 C12 1_555 1_555
C13 C12 1_555 1_555
H11 C13 1_555 1_555
C14 C13 1_555 1_555
H12 C14 1_555 1_555
C15 N6 1_555 1_555
C16 N5 1_555 1_555
C17 C16 1_555 1_555
H13 C17 1_555 1_555
C18 C17 1_555 1_555
H14 C18 1_555 1_555
C19 C18 1_555 1_555
H15 C19 1_555 1_555
C20 N5 1_555 1_555
H16 C20 1_555 1_555
C21 N2 1_555 1_555
H17 C21 1_555 1_555
C22 C21 1_555 1_555
H18 C22 1_555 1_555
C23 C22 1_555 1_555
H19 C23 1_555 1_555
C24 C23 1_555 1_555
H20 C24 1_555 1_555
C25 N2 1_555 1_555
C26 N1 1_555 1_555
C27 C26 1_555 1_555
H21 C27 1_555 1_555
C28 C27 1_555 1_555
H22 C28 1_555 1_555
C29 C28 1_555 1_555
H23 C29 1_555 1_555
C30 N1 1_555 1_555
H24 C30 1_555 1_555
Mo1B O4 1_555 1_555
Mo2B O19 1_555 1_555
Mo3B O24 1_555 1_555
Mo4B O13 1_555 1_555
Mo5B O1B 1_555 1_555
Mo6B O5 1_555 1_555
Mo7B O14B 1_555 1_555
Mo8B O33 1_555 1_555
Mo9B O33 1_555 1_555
Cu1B O20 1_555 1_555
Cu2B O22 1_555 1_555
Cu3B O18B_2 1_555 1_555
Cu3B_2 O18B 1_555 1_555
O1B P1 1_555 1_555
O3B P1 1_555 1_555
O4B P1 1_555 1_555
O5B Mo6 1_555 1_555
O6B Mo1B 1_555 1_555
O7B Mo4B 1_555 1_555
O8B Mo4B 1_555 1_555
O9B Mo9B 1_555 1_555
O10B Mo3B 1_555 1_555
O11B Mo2B 1_555 1_555
O12B Mo3B 1_555 1_555
O13B Mo4 1_555 1_555
O14B Cu1B 1_555 1_555
O15B Mo2B 1_555 1_555
O16B Cu2 1_555 1_555
O17B Mo6 1_555 1_555
O18B Mo1B 1_555 1_555
O19B Mo2 1_555 1_555
O20B Cu1 1_555 1_555
O21B Mo3B 1_555 1_555
O22B Cu2 1_555 1_555
O23B Mo2B 1_555 1_555
O24B P1 1_555 1_555
O25B Mo6B 1_555 1_555
O26B Mo9B 1_555 1_555
O27B Mo1B 1_555 1_555
O28B Mo5B 1_555 1_555
O29B Mo2B 1_555 1_555
O30B Cu1 1_555 1_555
O31B Mo7B 1_555 1_555
O32B Mo7B 1_555 1_555
O33B Mo8 1_555 1_555
O34B Mo8 1_555 1_555
N1B Cu3B 1_555 1_555
N2B Cu3B 1_555 1_555
N3B Cu1B 1_555 1_555
N4B Cu1B 1_555 1_555
N5B Cu2B 1_555 1_555
N6B Cu2B 1_555 1_555
C1B N4B 1_555 1_555
H1B C1B 1_555 1_555
C2B C1B 1_555 1_555
H2B C2B 1_555 1_555
C3B C2B 1_555 1_555
H3B C3B 1_555 1_555
C4B C3B 1_555 1_555
H4B C4B 1_555 1_555
C5B N4B 1_555 1_555
C6B N3B 1_555 1_555
C7B C6B 1_555 1_555
H5B C7B 1_555 1_555
C8B C7B 1_555 1_555
H6B C8B 1_555 1_555
C9B C8B 1_555 1_555
H7B C9B 1_555 1_555
C10B N3B 1_555 1_555
H8B C10B 1_555 1_555
C11B N6B 1_555 1_555
H9B C11B 1_555 1_555
C12B C11B 1_555 1_555
H10B C12B 1_555 1_555
C13B C12B 1_555 1_555
H11B C13B 1_555 1_555
C14B C13B 1_555 1_555
H12B C14B 1_555 1_555
C15B N6B 1_555 1_555
C16B N5B 1_555 1_555
C17B C16B 1_555 1_555
H13B C17B 1_555 1_555
C18B C17B 1_555 1_555
H14B C18B 1_555 1_555
C19B C18B 1_555 1_555
H15B C19B 1_555 1_555
C20B N5B 1_555 1_555
H16B C20B 1_555 1_555
C21B N2B 1_555 1_555
H17B C21B 1_555 1_555
C22B C21B 1_555 1_555
H18B C22B 1_555 1_555
C23B C22B 1_555 1_555
H19B C23B 1_555 1_555
C24B C23B 1_555 1_555
H20B C24B 1_555 1_555
C25B N2B 1_555 1_555
C26B N1B 1_555 1_555
C27B C26B 1_555 1_555
H21B C27B 1_555 1_555
C28B C27B 1_555 1_555
H22B C28B 1_555 1_555
C29B C28B 1_555 1_555
H23B C29B 1_555 1_555
C30B N1B 1_555 1_555
H24B C30B 1_555 1_555
Mo1 O4B 1_555 1_555
Mo2 O4 1_555 1_555
Mo3 O27 1_555 1_555
Mo3 O24B 1_555 1_555
Mo4 O24 1_555 1_555
Mo4 O29 1_555 1_555
Mo5 O3 1_555 1_555
Mo5 O6 1_555 1_555
Mo5 O8 1_555 1_555
Mo5 O11 1_555 1_555
Mo5 O21 1_555 1_555
Mo6 O12 1_555 1_555
Mo6 O15 1_555 1_555
Mo8 O32 1_555 1_555
Mo8 O33 1_555 1_555
Mo9 O32 1_555 1_555
Mo9 O34 1_555 1_555
Mo9 O33B 1_555 1_555
Cu3 O26 1_555 1_555
Cu3 O31 1_555 1_555
O1 O24B 1_555 1_555
O3 O24 1_555 1_555
O4 O24B 1_555 1_555
O17 Mo6B 1_555 1_555
O24 O1B 1_555 1_555
O24 O4B 1_555 1_555
O30 Cu1B 1_555 1_555
O34 Mo8B 1_555 1_555
C4 C5 1_555 1_555
C5 C6 1_555 1_555
C9 C10 1_555 1_555
C14 C15 1_555 1_555
C15 C16 1_555 1_555
C19 C20 1_555 1_555
C24 C25 1_555 1_555
C25 C26 1_555 1_555
C29 C30 1_555 1_555
Mo1B O1B 1_555 1_555
Mo1B O5B 1_555 1_555
Mo1B O19B 1_555 1_555
Mo2B O3B 1_555 1_555
Mo2B O4B 1_555 1_555
Mo3B O1B 1_555 1_555
Mo3B O13B 1_555 1_555
Mo3B O27B 1_555 1_555
Mo4B O3B 1_555 1_555
Mo4B O17B 1_555 1_555
Mo4B O24B 1_555 1_555
Mo4B O29B 1_555 1_555
Mo5B O3B 1_555 1_555
Mo5B O6B 1_555 1_555
Mo5B O8B 1_555 1_555
Mo5B O11B 1_555 1_555
Mo5B O21B 1_555 1_555
Mo6B O4B 1_555 1_555
Mo6B O12B 1_555 1_555
Mo6B O15B 1_555 1_555
Mo7B O22B 1_555 1_555
Mo7B O33B 1_555 1_555
Mo7B O34B 1_555 1_555
Mo8B O16B 1_555 1_555
Mo8B O20B 1_555 1_555
Mo8B O32B 1_555 1_555
Mo8B O33B 1_555 1_555
Mo9B O30B 1_555 1_555
Mo9B O32B 1_555 1_555
Mo9B O34B 1_555 1_555
Cu2B O9B 1_555 1_555
Cu3B O26B 1_555 1_555
Cu3B O31B 1_555 1_555
O1B O3B 1_555 1_555
O3B O24B 1_555 1_555
C4B C5B 1_555 1_555
C5B C6B 1_555 1_555
C9B C10B 1_555 1_555
C14B C15B 1_555 1_555
C15B C16B 1_555 1_555
C19B C20B 1_555 1_555
C24B C25B 1_555 1_555
C25B C26B 1_555 1_555
C29B C30B 1_555 1_555

#END
