
#######################################################################
#
#                 Cambridge Crystallographic Data Centre
#                                CCDC 
#
#######################################################################
#
# If this CIF has been generated from an entry in the Cambridge 
# Structural Database, then it will include bibliographic, chemical, 
# crystal, experimental, refinement or atomic coordinate data resulting 
# from the CCDC's data processing and validation procedures.
#
#######################################################################

data_WONHUE
_symmetry_cell_setting           monoclinic
_symmetry_space_group_name_H-M   'P 21/n'
_symmetry_Int_Tables_number      14
_space_group_name_Hall           '-P 2yn'
loop_
_symmetry_equiv_pos_site_id
_symmetry_equiv_pos_as_xyz
1 x,y,z
2 1/2-x,1/2+y,1/2-z
3 -x,-y,-z
4 1/2+x,1/2-y,1/2+z
_cell_length_a                   9.1009(10)
_cell_length_b                   13.2298(15)
_cell_length_c                   15.6584(18)
_cell_angle_alpha                90
_cell_angle_beta                 98.642(2)
_cell_angle_gamma                90
_cell_volume                     1863.91
loop_
_atom_site_label
_atom_site_type_symbol
_atom_site_fract_x
_atom_site_fract_y
_atom_site_fract_z
Ag1 Ag 0.38533(5) 0.42775(4) 0.52659(3)
N1 N 0.2209(5) 0.4581(3) 0.4166(3)
N2 N 0.0130(5) 0.0913(3) 0.1513(3)
C1 C 0.1212(7) 0.5315(5) 0.4280(5)
C2 C 0.1991(6) 0.4056(4) 0.3433(3)
H1 H 0.1358 0.5679 0.4794
C3 C 0.0044(8) 0.5542(5) 0.3699(6)
N3 N 0.3018(5) 0.3359(3) 0.3322(3)
C4 C 0.0749(7) 0.4243(5) 0.2807(4)
H2 H -0.0588 0.6068 0.3795
C5 C -0.0209(7) 0.4988(5) 0.2962(5)
H3 H 0.3726 0.3246 0.3740
C6 C 0.2988(6) 0.2785(5) 0.2523(4)
H4 H 0.0584 0.3867 0.2300
H5 H -0.1046 0.5118 0.2558
H6 H 0.3978 0.2527 0.2496
H7 H 0.2724 0.3237 0.2037
C7 C 0.1915(5) 0.1914(4) 0.2439(3)
C8 C 0.1703(6) 0.1287(4) 0.3120(3)
C9 C 0.1113(6) 0.1686(4) 0.1657(3)
H8 H 0.2223 0.1409 0.3669
C10 C 0.0750(7) 0.0500(4) 0.2995(4)
H9 H 0.1250 0.2088 0.1188
H10 H 0.0620 0.0080 0.3454
C11 C -0.0032(6) 0.0321(4) 0.2182(4)
H11 H -0.0685 -0.0224 0.2100
Ag1C Ag -0.11467(5) 0.07225(4) 0.02659(3)
N2C N 0.5130(5) 0.4087(3) 0.6513(3)
P1 P 0.19305(16) 0.16368(12) 0.58715(10)
F1 F 0.1672(8) 0.2514(4) 0.5214(3)
F2 F 0.3466(6) 0.1461(6) 0.5653(6)
F3 F 0.2597(7) 0.2434(5) 0.6553(4)
F4 F 0.0366(6) 0.1797(4) 0.6130(4)
F5 F 0.2148(7) 0.0718(4) 0.6500(4)
F6 F 0.1237(9) 0.0877(4) 0.5169(4)
S1 S 0.7075(4) 0.2453(3) 0.4576(3)
C12 C 0.611(3) 0.1360(19) 0.440(2)
H12 H 0.5510 0.1263 0.4849
H13 H 0.6788 0.0805 0.4400
H14 H 0.5477 0.1393 0.3851
O1 O 0.5966(5) 0.3198(4) 0.4374(3)
C13 C 0.8124(10) 0.2298(10) 0.3761(7)
H15 H 0.8705 0.2895 0.3714
H16 H 0.7480 0.2183 0.3226
H17 H 0.8773 0.1728 0.3889
S2? S 0.6382(4) 0.2153(4) 0.4034(3)
C14? C 0.690(3) 0.134(2) 0.4969(16)
H18? H 0.6043 0.1194 0.5235
H19? H 0.7640 0.1668 0.5377
H20? H 0.7304 0.0714 0.4786
H21? H 0.8012 0.2699 0.3245
H22? H 0.8606 0.1672 0.3662
H23? H 0.8716 0.2659 0.4222
loop_
_geom_bond_atom_site_label_1
_geom_bond_atom_site_label_2
_geom_bond_site_symmetry_1
_geom_bond_site_symmetry_2
Ag1 N1 1_555 1_555
N1 C1 1_555 1_555
N2 C9 1_555 1_555
C1 H1 1_555 1_555
C2 N1 1_555 1_555
C3 C1 1_555 1_555
N3 C2 1_555 1_555
C4 C2 1_555 1_555
H2 C3 1_555 1_555
C5 C3 1_555 1_555
H3 N3 1_555 1_555
C6 N3 1_555 1_555
H4 C4 1_555 1_555
H5 C5 1_555 1_555
H6 C6 1_555 1_555
H7 C6 1_555 1_555
C7 C6 1_555 1_555
C8 C7 1_555 1_555
C9 C7 1_555 1_555
H8 C8 1_555 1_555
C10 C8 1_555 1_555
H9 C9 1_555 1_555
H10 C10 1_555 1_555
C11 N2 1_555 1_555
H11 C11 1_555 1_555
P1 F1 1_555 1_555
F2 P1 1_555 1_555
F3 P1 1_555 1_555
F4 P1 1_555 1_555
F5 P1 1_555 1_555
F6 P1 1_555 1_555
S1 C12 1_555 1_555
C12 H12 1_555 1_555
H13 C12 1_555 1_555
H14 C12 1_555 1_555
O1 S1 1_555 1_555
C13 S1 1_555 1_555
H15 C13 1_555 1_555
H16 C13 1_555 1_555
H17 C13 1_555 1_555
Ag1C N2 1_555 1_555
N2C Ag1 1_555 1_555
C4 C5 1_555 1_555
C10 C11 1_555 1_555

#END
