
#######################################################################
#
#                 Cambridge Crystallographic Data Centre
#                                CCDC 
#
#######################################################################
#
# If this CIF has been generated from an entry in the Cambridge 
# Structural Database, then it will include bibliographic, chemical, 
# crystal, experimental, refinement or atomic coordinate data resulting 
# from the CCDC's data processing and validation procedures.
#
#######################################################################

data_WONHIQ
_symmetry_cell_setting           monoclinic
_symmetry_space_group_name_H-M   'P 21/c'
_symmetry_Int_Tables_number      14
_space_group_name_Hall           '-P 2ybc'
loop_
_symmetry_equiv_pos_site_id
_symmetry_equiv_pos_as_xyz
1 x,y,z
2 x,1/2-y,1/2+z
3 -x,-y,-z
4 -x,1/2+y,1/2-z
_cell_length_a                   8.2524(10)
_cell_length_b                   12.765(5)
_cell_length_c                   9.1125(15)
_cell_angle_alpha                90
_cell_angle_beta                 106.423(12)
_cell_angle_gamma                90
_cell_volume                     920.763
loop_
_atom_site_label
_atom_site_type_symbol
_atom_site_fract_x
_atom_site_fract_y
_atom_site_fract_z
Cu1 Cu 0.00000 0.50000 0.50000
N1 N 0.1488(7) 0.3816(4) 0.4886(5)
N2 N 0.1822(6) 0.3577(4) 0.3744(6)
N3 N 0.2176(8) 0.3304(5) 0.2643(6)
N4 N -0.0757(6) 0.6158(4) 0.0670(5)
N5 N 0.0091(6) 0.5490(4) 0.2983(5)
C1 C -0.2885(6) 0.5117(6) 0.1587(6)
C2 C -0.4195(7) 0.5281(4) 0.0029(6)
C3 C -0.1209(7) 0.5595(5) 0.1734(7)
C4 C 0.1450(7) 0.5995(4) 0.2697(6)
C5 C 0.0934(7) 0.6445(5) 0.1226(7)
C6 C 0.1979(8) 0.7049(5) 0.0666(7)
C7 C 0.3614(7) 0.7187(5) 0.1583(7)
C8 C 0.4185(7) 0.6702(5) 0.3015(7)
C9 C 0.3122(7) 0.6099(5) 0.3590(6)
H1 H -0.3342(6) 0.5412(6) 0.2393(6)
H2 H -0.2730(6) 0.4355(6) 0.1777(6)
H3 H -0.4426(7) 0.6039(4) -0.0145(6)
H4 H -0.3737(7) 0.5016(4) -0.0795(6)
H5 H -0.1426(6) 0.6320(4) -0.0238(5)
H6 H 0.1601(8) 0.7363(5) -0.0316(7)
H7 H 0.4365(7) 0.7620(5) 0.1234(7)
H8 H 0.5328(7) 0.6791(5) 0.3601(7)
H9 H 0.3512(7) 0.5767(5) 0.4558(6)
N1B N -0.1488(7) 0.6184(4) 0.5114(5)
N2B N -0.1822(6) 0.6423(4) 0.6256(6)
N3B N -0.2176(8) 0.6696(5) 0.7357(6)
C2B C -0.5805(7) 0.4719(4) -0.0029(6)
C1B C -0.7115(6) 0.4883(6) -0.1587(6)
C3B C -0.8791(7) 0.4405(5) -0.1734(7)
N4B N -0.9243(6) 0.3842(4) -0.0670(5)
C5B C -1.0934(7) 0.3555(5) -0.1226(7)
C4B C -1.1450(7) 0.4005(4) -0.2697(6)
N5B N -1.0091(6) 0.4510(4) -0.2983(5)
Cu1B Cu -1.00000 0.50000 -0.50000
C9B C -1.3122(7) 0.3901(5) -0.3590(6)
C8B C -1.4185(7) 0.3298(5) -0.3015(7)
C7B C -1.3614(7) 0.2813(5) -0.1583(7)
C6B C -1.1979(8) 0.2951(5) -0.0666(7)
H6B H -1.1601(8) 0.2637(5) 0.0316(7)
H7B H -1.4365(7) 0.2380(5) -0.1234(7)
H8B H -1.5328(7) 0.3209(5) -0.3601(7)
H9B H -1.3512(7) 0.4233(5) -0.4558(6)
H5B H -0.8574(6) 0.3680(4) 0.0238(5)
H1B H -0.6658(6) 0.4588(6) -0.2393(6)
H2B H -0.7270(6) 0.5645(6) -0.1777(6)
H3B H -0.5574(7) 0.3961(4) 0.0145(6)
H4B H -0.6263(7) 0.4984(4) 0.0795(6)
N5B_2 N -0.0091(6) 0.4510(4) 0.7017(5)
loop_
_geom_bond_atom_site_label_1
_geom_bond_atom_site_label_2
_geom_bond_site_symmetry_1
_geom_bond_site_symmetry_2
Cu1 N1 1_555 1_555
N1 N2 1_555 1_555
N2 N3 1_555 1_555
N4 C3 1_555 1_555
N5 Cu1 1_555 1_555
C1 C2 1_555 1_555
C2 H3 1_555 1_555
C3 N5 1_555 1_555
C4 N5 1_555 1_555
C5 N4 1_555 1_555
C6 C5 1_555 1_555
C7 C6 1_555 1_555
C8 C7 1_555 1_555
C9 C4 1_555 1_555
H1 C1 1_555 1_555
H2 C1 1_555 1_555
H4 C2 1_555 1_555
H5 N4 1_555 1_555
H6 C6 1_555 1_555
H7 C7 1_555 1_555
H8 C8 1_555 1_555
H9 C9 1_555 1_555
N1B Cu1 1_555 1_555
N2B N1B 1_555 1_555
N3B N2B 1_555 1_555
C2B C2 1_555 1_555
C1B C2B 1_555 1_555
C3B C1B 1_555 1_555
N4B C3B 1_555 1_555
C5B N4B 1_555 1_555
C4B C5B 1_555 1_555
N5B C3B 1_555 1_555
Cu1B N5B 1_555 1_555
C9B C4B 1_555 1_555
C8B C9B 1_555 1_555
C7B C8B 1_555 1_555
C6B C5B 1_555 1_555
H6B C6B 1_555 1_555
H7B C7B 1_555 1_555
H8B C8B 1_555 1_555
H9B C9B 1_555 1_555
H5B N4B 1_555 1_555
H1B C1B 1_555 1_555
H2B C1B 1_555 1_555
H3B C2B 1_555 1_555
H4B C2B 1_555 1_555
N5B_2 Cu1 1_555 1_555
C1 C3 1_555 1_555
C4 C5 1_555 1_555
C8 C9 1_555 1_555
C4B N5B 1_555 1_555
C7B C6B 1_555 1_555

#END
