
#######################################################################
#
#                 Cambridge Crystallographic Data Centre
#                                CCDC 
#
#######################################################################
#
# If this CIF has been generated from an entry in the Cambridge 
# Structural Database, then it will include bibliographic, chemical, 
# crystal, experimental, refinement or atomic coordinate data resulting 
# from the CCDC's data processing and validation procedures.
#
#######################################################################

data_WONKOB
_symmetry_cell_setting           tetragonal
_symmetry_space_group_name_H-M   'P 4/m m m'
_symmetry_Int_Tables_number      123
_space_group_name_Hall           '-P 4 2'
loop_
_symmetry_equiv_pos_site_id
_symmetry_equiv_pos_as_xyz
1 x,y,z
2 -y,x,z
3 -x,-y,z
4 y,-x,z
5 x,-y,-z
6 -y,-x,-z
7 -x,y,-z
8 y,x,-z
9 -x,-y,-z
10 y,-x,-z
11 x,y,-z
12 -y,x,-z
13 -x,y,z
14 y,x,z
15 x,-y,z
16 -y,-x,z
_cell_length_a                   6.9186(2)
_cell_length_b                   6.9186(2)
_cell_length_c                   7.9061(3)
_cell_angle_alpha                90
_cell_angle_beta                 90
_cell_angle_gamma                90
_cell_volume                     378.441
loop_
_atom_site_label
_atom_site_type_symbol
_atom_site_fract_x
_atom_site_fract_y
_atom_site_fract_z
N1 N 0.50000 0.217(2) 0.50000
C1 C 0.50000 0.0893(1) 0.3843(1)
H1 H 0.50000 0.14010 0.27980
Cu1 Cu 0.50000 0.50000 0.50000
F1 F 0.50000 0.50000 0.232(3)
F2 F 0.3313(15) 0.3313(15) 0.00000
Si1 Si 0.50000 0.50000 0.00000
N1B N 0.50000 -0.217(2) 0.50000
C1B C 0.50000 -0.0893(1) 0.3843(1)
H1B H 0.50000 -0.14010 0.27980
C1H C 0.50000 -0.0893(1) 0.6157(1)
H1H H 0.50000 -0.14010 0.72020
C1J C 0.50000 0.0893(1) 0.6157(1)
H1J H 0.50000 0.14010 0.72020
F2A F 0.6687(15) 0.3313(15) 0.00000
F2B F 0.6687(15) 0.6687(15) 0.00000
F2C F 0.3313(15) 0.6687(15) 0.00000
F1H F 0.50000 0.50000 -0.232(3)
N1A N -0.217(2) 0.50000 0.50000
C1A C -0.0893(1) 0.50000 0.3843(1)
H1A H -0.14010 0.50000 0.27980
N1C N 0.217(2) 0.50000 0.50000
C1C C 0.0893(1) 0.50000 0.3843(1)
H1C H 0.14010 0.50000 0.27980
C1I C 0.0893(1) 0.50000 0.6157(1)
H1I H 0.14010 0.50000 0.72020
C1K C -0.0893(1) 0.50000 0.6157(1)
H1K H -0.14010 0.50000 0.72020
N1A_2 N 0.783(2) 0.50000 0.50000
N1B_2 N 0.50000 0.783(2) 0.50000
Cu1_2 Cu -0.50000 0.50000 0.50000
Cu1_3 Cu 0.50000 -0.50000 0.50000
Cu1_4 Cu 0.50000 0.50000 -0.50000
F1H_2 F 0.50000 0.50000 0.768(3)
loop_
_geom_bond_atom_site_label_1
_geom_bond_atom_site_label_2
_geom_bond_site_symmetry_1
_geom_bond_site_symmetry_2
N1 C1 1_555 1_555
C1 H1 1_555 1_555
Cu1 N1 1_555 1_555
F1 Cu1 1_555 1_555
F2 Si1 1_555 1_555
Si1 F1 1_555 1_555
N1B C1B 1_555 1_555
C1B C1 1_555 1_555
H1B C1B 1_555 1_555
C1H N1B 1_555 1_555
H1H C1H 1_555 1_555
C1J N1 1_555 1_555
H1J C1J 1_555 1_555
F2A Si1 1_555 1_555
F2B Si1 1_555 1_555
F2C Si1 1_555 1_555
F1H Si1 1_555 1_555
N1A C1A 1_555 1_555
C1A H1A 1_555 1_555
N1C Cu1 1_555 1_555
C1C C1A 1_555 1_555
H1C C1C 1_555 1_555
C1I N1C 1_555 1_555
H1I C1I 1_555 1_555
C1K N1A 1_555 1_555
H1K C1K 1_555 1_555
N1A_2 Cu1 1_555 1_555
N1B_2 Cu1 1_555 1_555
Cu1_2 N1A 1_555 1_555
Cu1_3 N1B 1_555 1_555
Cu1_4 F1H 1_555 1_555
F1H_2 Cu1 1_555 1_555
C1H C1J 1_555 1_555
N1C C1C 1_555 1_555
C1I C1K 1_555 1_555

#END
