
#######################################################################
#
#                 Cambridge Crystallographic Data Centre
#                                CCDC 
#
#######################################################################
#
# If this CIF has been generated from an entry in the Cambridge 
# Structural Database, then it will include bibliographic, chemical, 
# crystal, experimental, refinement or atomic coordinate data resulting 
# from the CCDC's data processing and validation procedures.
#
#######################################################################

data_WONTIE
_symmetry_cell_setting           monoclinic
_symmetry_space_group_name_H-M   'P 21/n'
_symmetry_Int_Tables_number      14
_space_group_name_Hall           '-P 2yn'
loop_
_symmetry_equiv_pos_site_id
_symmetry_equiv_pos_as_xyz
1 x,y,z
2 1/2-x,1/2+y,1/2-z
3 -x,-y,-z
4 1/2+x,1/2-y,1/2+z
_cell_length_a                   9.6670(2)
_cell_length_b                   8.8341(2)
_cell_length_c                   10.0645(2)
_cell_angle_alpha                90
_cell_angle_beta                 104.3000(10)
_cell_angle_gamma                90
_cell_volume                     832.87
loop_
_atom_site_label
_atom_site_type_symbol
_atom_site_fract_x
_atom_site_fract_y
_atom_site_fract_z
Mn1 Mn 0.0000 0.0000 0.5000
O1 O 0.45086(8) 0.27069(9) 0.04667(8)
O2 O 0.27968(8) 0.21306(9) -0.13920(8)
O3 O -0.11519(10) 0.02509(11) 0.28315(8)
N1 N 0.20636(9) 0.07681(11) 0.44692(9)
C1 C 0.29241(12) 0.17547(13) 0.52797(11)
H1 H 0.2666 0.2110 0.6054
C2 C 0.41795(12) 0.22714(14) 0.50216(13)
H2 H 0.4746 0.2970 0.5603
C3 C 0.45787(12) 0.17305(14) 0.38809(12)
H3 H 0.5416 0.2071 0.3683
C4 C 0.37252(11) 0.06797(12) 0.30348(10)
C5 C 0.24705(12) 0.02455(12) 0.33705(11)
H4 H 0.1880 -0.0446 0.2802
C6 C 0.41638(14) -0.00390(13) 0.18414(13)
H5 H 0.4144 -0.1130 0.1947
H6 H 0.5143 0.0248 0.1889
C7 C 0.32578(13) 0.03656(13) 0.04237(11)
H7 H 0.3368 -0.0437 -0.0200
H8 H 0.2266 0.0364 0.0465
C8 C 0.35481(10) 0.18589(11) -0.02024(10)
H9 H -0.1677(17) -0.044(2) 0.2426(16)
H10 H -0.1629(18) 0.095(2) 0.2870(17)
O1B O -0.45086(8) -0.27069(9) 0.95333(8)
O2B O -0.27968(8) -0.21306(9) 1.13920(8)
O3B O 0.11519(10) -0.02509(11) 0.71685(8)
N1B N -0.20636(9) -0.07681(11) 0.55308(9)
C1B C -0.29241(12) -0.17547(13) 0.47203(11)
H1B H -0.2666 -0.2110 0.3946
C2B C -0.41795(12) -0.22714(14) 0.49784(13)
H2B H -0.4746 -0.2970 0.4397
C3B C -0.45787(12) -0.17305(14) 0.61191(12)
H3B H -0.5416 -0.2071 0.6317
C4B C -0.37252(11) -0.06797(12) 0.69652(10)
C5B C -0.24705(12) -0.02455(12) 0.66295(11)
H4B H -0.1880 0.0446 0.7198
C6B C -0.41638(14) 0.00390(13) 0.81586(13)
H5B H -0.4144 0.1130 0.8053
H6B H -0.5143 -0.0248 0.8111
C7B C -0.32578(13) -0.03656(13) 0.95763(11)
H7B H -0.3368 0.0437 1.0200
H8B H -0.2266 -0.0364 0.9535
C8B C -0.35481(10) -0.18589(11) 1.02024(10)
H9B H 0.1677(17) 0.044(2) 0.7574(16)
H10B H 0.1629(18) -0.095(2) 0.7130(17)
Mn1A Mn -0.5000 -0.5000 1.0000
Mn1A_2 Mn 0.5000 0.5000 0.0000
O1A O 0.04914(8) -0.22931(9) 0.45333(8)
O1C O -0.04914(8) 0.22931(9) 0.54667(8)
loop_
_geom_bond_atom_site_label_1
_geom_bond_atom_site_label_2
_geom_bond_site_symmetry_1
_geom_bond_site_symmetry_2
Mn1 O3 1_555 1_555
O1 C8 1_555 1_555
O2 C8 1_555 1_555
O3 H9 1_555 1_555
N1 Mn1 1_555 1_555
C1 N1 1_555 1_555
H1 C1 1_555 1_555
C2 C1 1_555 1_555
H2 C2 1_555 1_555
C3 C2 1_555 1_555
H3 C3 1_555 1_555
C4 C3 1_555 1_555
C5 N1 1_555 1_555
H4 C5 1_555 1_555
C6 C4 1_555 1_555
H5 C6 1_555 1_555
H6 C6 1_555 1_555
C7 C6 1_555 1_555
H7 C7 1_555 1_555
H8 C7 1_555 1_555
C8 C7 1_555 1_555
H10 O3 1_555 1_555
O1B C8B 1_555 1_555
O2B C8B 1_555 1_555
O3B Mn1 1_555 1_555
N1B Mn1 1_555 1_555
C1B N1B 1_555 1_555
H1B C1B 1_555 1_555
C2B C1B 1_555 1_555
H2B C2B 1_555 1_555
C3B C2B 1_555 1_555
H3B C3B 1_555 1_555
C4B C3B 1_555 1_555
C5B N1B 1_555 1_555
H4B C5B 1_555 1_555
C6B C4B 1_555 1_555
H5B C6B 1_555 1_555
H6B C6B 1_555 1_555
C7B C6B 1_555 1_555
H7B C7B 1_555 1_555
H8B C7B 1_555 1_555
C8B C7B 1_555 1_555
H9B O3B 1_555 1_555
H10B O3B 1_555 1_555
Mn1A O1B 1_555 1_555
Mn1A_2 O1 1_555 1_555
O1A Mn1 1_555 1_555
O1C Mn1 1_555 1_555
C4 C5 1_555 1_555
C4B C5B 1_555 1_555

#END
