
#######################################################################
#
#                 Cambridge Crystallographic Data Centre
#                                CCDC 
#
#######################################################################
#
# If this CIF has been generated from an entry in the Cambridge 
# Structural Database, then it will include bibliographic, chemical, 
# crystal, experimental, refinement or atomic coordinate data resulting 
# from the CCDC's data processing and validation procedures.
#
#######################################################################

data_WONXUT
_symmetry_cell_setting           triclinic
_symmetry_space_group_name_H-M   'P -1'
_symmetry_Int_Tables_number      2
_space_group_name_Hall           '-P 1'
loop_
_symmetry_equiv_pos_site_id
_symmetry_equiv_pos_as_xyz
1 x,y,z
2 -x,-y,-z
_cell_length_a                   8.7639(3)
_cell_length_b                   12.3703(4)
_cell_length_c                   14.1822(4)
_cell_angle_alpha                72.026(3)
_cell_angle_beta                 82.868(2)
_cell_angle_gamma                79.394(3)
_cell_volume                     1433.76
loop_
_atom_site_label
_atom_site_type_symbol
_atom_site_fract_x
_atom_site_fract_y
_atom_site_fract_z
O1 O 0.3661(2) -0.55261(17) 0.01767(15)
O2 O 0.1106(2) -0.5736(2) 0.12159(16)
O3 O 0.1278(2) -0.57891(18) -0.05504(15)
O4 O 0.2667(3) -0.74071(19) 0.07623(17)
O5 O 0.1520(2) -0.31822(19) -0.00805(16)
O6 O 0.4424(2) -0.21731(18) -0.04630(15)
O7 O 0.1896(2) -0.12590(18) 0.01930(15)
O8 O 0.3841(2) -0.00374(18) -0.08317(15)
O9 O 0.4330(3) -0.1284(2) 0.09226(17)
O10 O -0.1342(3) -0.1367(2) 0.04697(17)
P1 P 0.21916(9) -0.60787(7) 0.03520(6)
P2 P 0.36113(9) -0.11775(7) -0.00659(6)
H1 H -0.219(3) -0.102(2) 0.065(2)
H2 H -0.159(3) -0.172(3) 0.010(2)
H3 H 0.036(3) -0.531(3) 0.099(2)
H4 H 0.361(3) -0.760(3) 0.067(2)
H5 H 0.148(4) -0.2537(19) 0.004(2)
H6 H 0.073(3) -0.347(2) 0.016(2)
H7 H 0.493(3) -0.084(3) 0.082(2)
C1 C 0.4884(4) -0.3040(3) -0.2418(2)
H8 H 0.5847 -0.2873 -0.2345
C2 C 0.4302(4) -0.2888(3) -0.3294(3)
H9 H 0.4782 -0.2602 -0.3924
C3 C 0.2642(4) -0.3567(3) -0.2071(2)
H10 H 0.1743 -0.3825 -0.1724
C4 C 0.1788(4) -0.3263(3) -0.3747(2)
C5 C 0.0768(4) -0.4056(3) -0.3431(2)
H11 H 0.0813 -0.4583 -0.2801
C6 C -0.0317(4) -0.4060(3) -0.4056(2)
H12 H -0.0996 -0.4597 -0.3836
C7 C -0.0428(4) -0.3287(3) -0.5007(2)
C8 C 0.0643(4) -0.2522(3) -0.5316(2)
H13 H 0.062 -0.201 -0.5954
C9 C 0.1742(4) -0.2501(3) -0.4701(2)
H14 H 0.2444 -0.1981 -0.4925
C10 C -0.4760(4) -0.3824(3) -0.8256(2)
H15 H -0.3771 -0.3884 -0.8578
C11 C -0.6655(4) -0.3602(3) -0.7143(2)
H16 H -0.7225 -0.3486 -0.6575
C12 C -0.7214(4) -0.3783(3) -0.7915(2)
H17 H -0.8254 -0.3808 -0.7967
C13 C -0.3962(4) -0.3457(3) -0.6789(2)
C14 C -0.4183(4) -0.3760(3) -0.5766(2)
H18 H -0.5104 -0.4015 -0.5454
C15 C -0.3050(4) -0.3688(3) -0.5202(2)
H19 H -0.3218 -0.3906 -0.4513
C16 C -0.1662(4) -0.3296(3) -0.5640(2)
C17 C -0.1497(4) -0.2932(3) -0.6679(2)
H20 H -0.0606 -0.2633 -0.6996
C18 C -0.2623(4) -0.3004(3) -0.7247(2)
H21 H -0.2489 -0.2749 -0.7937
C19 C -0.1186(4) 0.0525(3) 0.2035(2)
H22 H -0.2231 0.0747 0.1906
C20 C -0.0559(4) 0.0628(3) 0.2812(3)
H23 H -0.1081 0.0922 0.3313
C21 C 0.1242(4) -0.0134(3) 0.1895(2)
H24 H 0.2202 -0.046 0.1664
C22 C 0.2170(4) 0.0172(3) 0.3354(2)
C23 C 0.3664(4) -0.0372(4) 0.3227(3)
H25 H 0.3937 -0.0697 0.2707
C24 C 0.4756(4) -0.0434(4) 0.3869(3)
H26 H 0.576 -0.0809 0.3775
C25 C 0.4414(4) 0.0041(3) 0.4652(2)
C26 C 0.2921(4) 0.0576(4) 0.4752(3)
H27 H 0.2643 0.0903 0.5269
C27 C 0.1811(4) 0.0651(4) 0.4119(3)
H28 H 0.081 0.103 0.4212
N1 N 0.3839(3) -0.3483(2) -0.16445(18)
N2 N 0.2861(3) -0.3236(2) -0.30772(19)
N3 N -0.6021(3) -0.3926(2) -0.86164(18)
N4 N -0.5073(3) -0.3622(2) -0.73608(18)
N5 N -0.0057(3) 0.0043(2) 0.14534(18)
N6 N 0.1010(3) 0.0213(2) 0.27246(18)
Ni1 Ni 0.39070(4) -0.38064(3) -0.01180(3)
Ni2 Ni 0.00000 0.00000 0.00000
O1A O 0.6339(2) -0.44739(17) -0.01767(15)
O1A_2 O -0.3661(2) 0.55261(17) -0.01767(15)
O1_2 O -0.6339(2) 0.44739(17) 0.01767(15)
O2A O 0.8894(2) -0.4264(2) -0.12159(16)
O3A O 0.8722(2) -0.42109(18) 0.05504(15)
O4A O 0.7333(3) -0.25929(19) -0.07623(17)
O5A O -0.1520(2) 0.31822(19) 0.00805(16)
O6A O -0.4424(2) 0.21731(18) 0.04630(15)
O7A O -0.1896(2) 0.12590(18) -0.01930(15)
O8A O -0.3841(2) 0.00374(18) 0.08317(15)
O9A O -0.4330(3) 0.1284(2) -0.09226(17)
O10A O 0.1342(3) 0.1367(2) -0.04697(17)
P1A P 0.78084(9) -0.39213(7) -0.03520(6)
P2A P -0.36113(9) 0.11775(7) 0.00659(6)
H1A H 0.219(3) 0.102(2) -0.065(2)
H2A H 0.159(3) 0.172(3) -0.010(2)
H3A H 0.964(3) -0.469(3) -0.099(2)
H4A H 0.639(3) -0.240(3) -0.067(2)
H5A H -0.148(4) 0.2537(19) -0.004(2)
H6A H -0.073(3) 0.347(2) -0.016(2)
H7A H -0.493(3) 0.084(3) -0.082(2)
C1_2 C 1.4884(4) -0.3040(3) 0.7582(2)
H8_2 H 1.5847 -0.2873 0.7655
C2_2 C 1.4302(4) -0.2888(3) 0.6706(3)
H9_2 H 1.4782 -0.2602 0.6076
C3_2 C 1.2642(4) -0.3567(3) 0.7929(2)
H10_2 H 1.1743 -0.3825 0.8276
C4_2 C 1.1788(4) -0.3263(3) 0.6253(2)
C5_2 C 1.0768(4) -0.4056(3) 0.6569(2)
H11_2 H 1.0813 -0.4583 0.7199
C6_2 C 0.9683(4) -0.4060(3) 0.5944(2)
H12_2 H 0.9004 -0.4597 0.6164
C7_2 C 0.9572(4) -0.3287(3) 0.4993(2)
C8_2 C 1.0643(4) -0.2522(3) 0.4684(2)
H13_2 H 1.062 -0.201 0.4046
C9_2 C 1.1742(4) -0.2501(3) 0.5299(2)
H14_2 H 1.2444 -0.1981 0.5075
C10_2 C 0.5240(4) -0.3824(3) 0.1744(2)
H15_2 H 0.6229 -0.3884 0.1422
C11_2 C 0.3345(4) -0.3602(3) 0.2857(2)
H16_2 H 0.2775 -0.3486 0.3425
C12_2 C 0.2786(4) -0.3783(3) 0.2085(2)
H17_2 H 0.1746 -0.3808 0.2033
C13_2 C 0.6038(4) -0.3457(3) 0.3211(2)
C14_2 C 0.5817(4) -0.3760(3) 0.4234(2)
H18_2 H 0.4896 -0.4015 0.4546
C15_2 C 0.6950(4) -0.3688(3) 0.4798(2)
H19_2 H 0.6782 -0.3906 0.5487
C16_2 C 0.8338(4) -0.3296(3) 0.4360(2)
C17_2 C 0.8503(4) -0.2932(3) 0.3321(2)
H20_2 H 0.9394 -0.2633 0.3004
C18_2 C 0.7377(4) -0.3004(3) 0.2753(2)
H21_2 H 0.7511 -0.2749 0.2063
C19A C 1.1186(4) -0.0525(3) 0.7965(2)
H22A H 1.2231 -0.0747 0.8094
C20A C 1.0559(4) -0.0628(3) 0.7188(3)
H23A H 1.1081 -0.0922 0.6687
C21A C 0.8758(4) 0.0134(3) 0.8105(2)
H24A H 0.7798 0.046 0.8336
C22A C 0.7830(4) -0.0172(3) 0.6646(2)
C23A C 0.6336(4) 0.0372(4) 0.6773(3)
H25A H 0.6063 0.0697 0.7293
C24A C 0.5244(4) 0.0434(4) 0.6131(3)
H26A H 0.424 0.0809 0.6225
C25A C 0.5586(4) -0.0041(3) 0.5348(2)
C26A C 0.7079(4) -0.0576(4) 0.5248(3)
H27A H 0.7357 -0.0903 0.4731
C27A C 0.8189(4) -0.0651(4) 0.5881(3)
H28A H 0.919 -0.103 0.5788
N1_2 N 1.3839(3) -0.3483(2) 0.83555(18)
N1A N -0.3839(3) 0.3483(2) 0.16445(18)
N2_2 N 1.2861(3) -0.3236(2) 0.69228(19)
N3_2 N 0.3979(3) -0.3926(2) 0.13836(18)
N3A N -0.3979(3) 0.3926(2) -0.13836(18)
N4_2 N 0.4927(3) -0.3622(2) 0.26392(18)
N5A N 1.0057(3) -0.0043(2) 0.85466(18)
N5A_2 N 0.0057(3) -0.0043(2) -0.14534(18)
N6A N 0.8990(3) -0.0213(2) 0.72754(18)
Ni1A Ni -0.39070(4) 0.38064(3) 0.01180(3)
Ni1A_2 Ni 0.60930(4) -0.61936(3) 0.01180(3)
Ni1_2 Ni -0.60930(4) -0.38064(3) -1.01180(3)
Ni1_3 Ni 1.39070(4) -0.38064(3) 0.98820(3)
Ni2_2 Ni 1.00000 0.00000 1.00000
loop_
_geom_bond_atom_site_label_1
_geom_bond_atom_site_label_2
_geom_bond_site_symmetry_1
_geom_bond_site_symmetry_2
O1 P1 1_555 1_555
O2 P1 1_555 1_555
O3 P1 1_555 1_555
O4 P1 1_555 1_555
O5 H5 1_555 1_555
O6 P2 1_555 1_555
O7 P2 1_555 1_555
O8 P2 1_555 1_555
O9 P2 1_555 1_555
O10 H1 1_555 1_555
H2 O10 1_555 1_555
H3 O2 1_555 1_555
H4 O4 1_555 1_555
H6 O5 1_555 1_555
H7 O9 1_555 1_555
C1 H8 1_555 1_555
C2 C1 1_555 1_555
H9 C2 1_555 1_555
C3 H10 1_555 1_555
C4 C5 1_555 1_555
C5 H11 1_555 1_555
C6 C5 1_555 1_555
H12 C6 1_555 1_555
C7 C6 1_555 1_555
C8 C7 1_555 1_555
H13 C8 1_555 1_555
C9 C4 1_555 1_555
H14 C9 1_555 1_555
C10 H15 1_555 1_555
C11 H16 1_555 1_555
C12 C11 1_555 1_555
H17 C12 1_555 1_555
C13 C14 1_555 1_555
C14 H18 1_555 1_555
C15 C14 1_555 1_555
H19 C15 1_555 1_555
C16 C7 1_555 1_555
C17 C16 1_555 1_555
H20 C17 1_555 1_555
C18 C13 1_555 1_555
H21 C18 1_555 1_555
C19 H22 1_555 1_555
C20 C19 1_555 1_555
H23 C20 1_555 1_555
C21 H24 1_555 1_555
C22 C23 1_555 1_555
C23 H25 1_555 1_555
C24 C23 1_555 1_555
H26 C24 1_555 1_555
C25 C24 1_555 1_555
C26 C25 1_555 1_555
H27 C26 1_555 1_555
C27 C22 1_555 1_555
H28 C27 1_555 1_555
N1 C1 1_555 1_555
N2 C2 1_555 1_555
N3 C10 1_555 1_555
N4 C10 1_555 1_555
N5 C19 1_555 1_555
N6 C20 1_555 1_555
Ni1 O1 1_555 1_555
Ni2 O7 1_555 1_555
O1A Ni1 1_555 1_555
O1A_2 Ni1A 1_555 1_555
O1_2 Ni1A 1_555 1_555
O2A P1A 1_555 1_555
O3A P1A 1_555 1_555
O4A P1A 1_555 1_555
O5A H5A 1_555 1_555
O6A P2A 1_555 1_555
O7A Ni2 1_555 1_555
O8A P2A 1_555 1_555
O9A P2A 1_555 1_555
O10A Ni2 1_555 1_555
P1A O1A 1_555 1_555
P2A O7A 1_555 1_555
H1A O10A 1_555 1_555
H2A O10A 1_555 1_555
H3A O2A 1_555 1_555
H4A O4A 1_555 1_555
H6A O5A 1_555 1_555
H7A O9A 1_555 1_555
C1_2 H8_2 1_555 1_555
C2_2 C1_2 1_555 1_555
H9_2 C2_2 1_555 1_555
C3_2 H10_2 1_555 1_555
C4_2 C5_2 1_555 1_555
C5_2 H11_2 1_555 1_555
C6_2 C5_2 1_555 1_555
H12_2 C6_2 1_555 1_555
C7_2 C6_2 1_555 1_555
C8_2 C7_2 1_555 1_555
H13_2 C8_2 1_555 1_555
C9_2 C4_2 1_555 1_555
H14_2 C9_2 1_555 1_555
C10_2 H15_2 1_555 1_555
C11_2 H16_2 1_555 1_555
C12_2 C11_2 1_555 1_555
H17_2 C12_2 1_555 1_555
C13_2 C14_2 1_555 1_555
C14_2 H18_2 1_555 1_555
C15_2 C14_2 1_555 1_555
H19_2 C15_2 1_555 1_555
C16_2 C7_2 1_555 1_555
C17_2 C16_2 1_555 1_555
H20_2 C17_2 1_555 1_555
C18_2 C13_2 1_555 1_555
H21_2 C18_2 1_555 1_555
C19A H22A 1_555 1_555
C20A C19A 1_555 1_555
H23A C20A 1_555 1_555
C21A H24A 1_555 1_555
C22A C23A 1_555 1_555
C23A H25A 1_555 1_555
C24A C23A 1_555 1_555
H26A C24A 1_555 1_555
C25A C25 1_555 1_555
C26A C25A 1_555 1_555
H27A C26A 1_555 1_555
C27A C22A 1_555 1_555
H28A C27A 1_555 1_555
N1_2 C1_2 1_555 1_555
N1A Ni1A 1_555 1_555
N2_2 C2_2 1_555 1_555
N3_2 Ni1 1_555 1_555
N3A Ni1A 1_555 1_555
N4_2 C10_2 1_555 1_555
N5A C19A 1_555 1_555
N5A_2 Ni2 1_555 1_555
N6A C20A 1_555 1_555
Ni1A O5A 1_555 1_555
Ni1A_2 O1 1_555 1_555
Ni1_2 N3 1_555 1_555
Ni1_3 N1_2 1_555 1_555
Ni2_2 N5A 1_555 1_555
O5 Ni1 1_555 1_555
O6 Ni1 1_555 1_555
O10 Ni2 1_555 1_555
C3 N1 1_555 1_555
C3 N2 1_555 1_555
C4 N2 1_555 1_555
C8 C9 1_555 1_555
C11 N4 1_555 1_555
C12 N3 1_555 1_555
C13 N4 1_555 1_555
C15 C16 1_555 1_555
C17 C18 1_555 1_555
C21 N5 1_555 1_555
C21 N6 1_555 1_555
C22 N6 1_555 1_555
C26 C27 1_555 1_555
N1 Ni1 1_555 1_555
N5 Ni2 1_555 1_555
O1A Ni1A_2 1_555 1_555
O6A Ni1A 1_555 1_555
C3_2 N1_2 1_555 1_555
C3_2 N2_2 1_555 1_555
C4_2 N2_2 1_555 1_555
C8_2 C9_2 1_555 1_555
C10_2 N3_2 1_555 1_555
C11_2 N4_2 1_555 1_555
C12_2 N3_2 1_555 1_555
C13_2 N4_2 1_555 1_555
C15_2 C16_2 1_555 1_555
C17_2 C18_2 1_555 1_555
C21A N5A 1_555 1_555
C21A N6A 1_555 1_555
C22A N6A 1_555 1_555
C24A C25A 1_555 1_555
C26A C27A 1_555 1_555

#END
