
#######################################################################
#
#                 Cambridge Crystallographic Data Centre
#                                CCDC 
#
#######################################################################
#
# If this CIF has been generated from an entry in the Cambridge 
# Structural Database, then it will include bibliographic, chemical, 
# crystal, experimental, refinement or atomic coordinate data resulting 
# from the CCDC's data processing and validation procedures.
#
#######################################################################

data_WONXAZ
_symmetry_cell_setting           triclinic
_symmetry_space_group_name_H-M   'P -1'
_symmetry_Int_Tables_number      2
_space_group_name_Hall           '-P 1'
loop_
_symmetry_equiv_pos_site_id
_symmetry_equiv_pos_as_xyz
1 x,y,z
2 -x,-y,-z
_cell_length_a                   8.288(3)
_cell_length_b                   9.073(3)
_cell_length_c                   9.263(3)
_cell_angle_alpha                75.813(5)
_cell_angle_beta                 67.933(5)
_cell_angle_gamma                75.634(5)
_cell_volume                     616.326
loop_
_atom_site_label
_atom_site_type_symbol
_atom_site_fract_x
_atom_site_fract_y
_atom_site_fract_z
Zn1 Zn 0.5000 0.5000 0.5000
Br1 Br 0.65639(6) 0.64635(4) -0.07072(5)
Br2 Br 0.79633(6) 0.94495(5) -0.34387(4)
O1 O 0.4877(3) 0.6964(2) 0.3330(2)
O2 O 0.2692(4) 0.6789(3) 0.2548(3)
O3 O 0.2697(3) 0.4446(3) 0.4983(3)
H1 H 0.2527 0.5113 0.4208
O4 O 0.3537(4) 0.6241(3) 0.6843(3)
N1 N 0.2408(4) 0.8464(4) 0.7814(4)
C1 C 0.3928(5) 0.7360(4) 0.2468(4)
C2 C 0.4443(4) 0.8741(4) 0.1162(3)
C3 C 0.5689(4) 0.8501(4) -0.0301(4)
C4 C 0.6251(4) 0.9759(4) -0.1446(4)
C5 C 0.3491(5) 0.7624(5) 0.6731(4)
H2 H 0.4264 0.8114 0.5828
C6 C 0.1167(7) 0.7752(6) 0.9246(5)
H3 H 0.1279 0.6683 0.9206
H4 H -0.0016 0.8269 0.9326
H5 H 0.1421 0.7836 1.0149
C7 C 0.2334(7) 1.0115(5) 0.7596(6)
H6 H 0.3294 1.0422 0.6675
H7 H 0.2428 1.0366 0.8507
H8 H 0.1232 1.0650 0.7462
C8 C 0.1161(6) 0.4396(6) 0.6363(5)
H9 H 0.1510 0.4026 0.7284
H10 H 0.0468 0.3715 0.6315
H11 H 0.0471 0.5414 0.6418
Zn1_2 Zn 0.5000 1.5000 -0.5000
Br1A Br 0.34361(6) 1.35365(4) 0.07072(5)
Br2A Br 0.20367(6) 1.05505(5) 0.34387(4)
O1A O 0.5123(3) 1.3036(2) -0.3330(2)
O1A_2 O 0.5123(3) 0.3036(2) 0.6670(2)
O2A O 0.7308(4) 1.3211(3) -0.2548(3)
O3A O 0.7303(3) 0.5554(3) 0.5017(3)
H1A H 0.7473 0.4887 0.5792
O4A O 0.6463(4) 0.3759(3) 0.3157(3)
N1A N 0.7592(4) 0.1536(4) 0.2186(4)
C1A C 0.6072(5) 1.2640(4) -0.2468(4)
C2A C 0.5557(4) 1.1259(4) -0.1162(3)
C3A C 0.4311(4) 1.1499(4) 0.0301(4)
C4A C 0.3749(4) 1.0241(4) 0.1446(4)
C5A C 0.6509(5) 0.2376(5) 0.3269(4)
H2A H 0.5736 0.1886 0.4172
C6A C 0.8833(7) 0.2248(6) 0.0754(5)
H3A H 0.8721 0.3317 0.0794
H4A H 1.0016 0.1731 0.0674
H5A H 0.8579 0.2164 -0.0149
C7A C 0.7666(7) -0.0115(5) 0.2404(6)
H6A H 0.6706 -0.0422 0.3325
H7A H 0.7572 -0.0366 0.1493
H8A H 0.8768 -0.0650 0.2538
C8A C 0.8839(6) 0.5604(6) 0.3637(5)
H9A H 0.8490 0.5974 0.2716
H10A H 0.9532 0.6285 0.3685
H11A H 0.9529 0.4586 0.3582
loop_
_geom_bond_atom_site_label_1
_geom_bond_atom_site_label_2
_geom_bond_site_symmetry_1
_geom_bond_site_symmetry_2
Zn1 O1 1_555 1_555
Br1 C3 1_555 1_555
Br2 C4 1_555 1_555
O1 C1 1_555 1_555
O2 C1 1_555 1_555
O3 Zn1 1_555 1_555
H1 O3 1_555 1_555
O4 Zn1 1_555 1_555
N1 C5 1_555 1_555
C1 C2 1_555 1_555
C2 C3 1_555 1_555
C3 C4 1_555 1_555
C4 C2A 1_555 1_555
C5 O4 1_555 1_555
H2 C5 1_555 1_555
C6 N1 1_555 1_555
H3 C6 1_555 1_555
H4 C6 1_555 1_555
H5 C6 1_555 1_555
C7 N1 1_555 1_555
H6 C7 1_555 1_555
H7 C7 1_555 1_555
H8 C7 1_555 1_555
C8 O3 1_555 1_555
H9 C8 1_555 1_555
H10 C8 1_555 1_555
H11 C8 1_555 1_555
Zn1_2 O1A 1_555 1_555
Br1A C3A 1_555 1_555
Br2A C4A 1_555 1_555
O1A C1A 1_555 1_555
O1A_2 Zn1 1_555 1_555
O2A C1A 1_555 1_555
O3A Zn1 1_555 1_555
H1A O3A 1_555 1_555
O4A Zn1 1_555 1_555
N1A C5A 1_555 1_555
C1A C2A 1_555 1_555
C2A C3A 1_555 1_555
C3A C4A 1_555 1_555
C4A C2 1_555 1_555
C5A O4A 1_555 1_555
H2A C5A 1_555 1_555
C6A N1A 1_555 1_555
H3A C6A 1_555 1_555
H4A C6A 1_555 1_555
H5A C6A 1_555 1_555
C7A N1A 1_555 1_555
H6A C7A 1_555 1_555
H7A C7A 1_555 1_555
H8A C7A 1_555 1_555
C8A O3A 1_555 1_555
H9A C8A 1_555 1_555
H10A C8A 1_555 1_555
H11A C8A 1_555 1_555

#END
