
#######################################################################
#
#                 Cambridge Crystallographic Data Centre
#                                CCDC 
#
#######################################################################
#
# If this CIF has been generated from an entry in the Cambridge 
# Structural Database, then it will include bibliographic, chemical, 
# crystal, experimental, refinement or atomic coordinate data resulting 
# from the CCDC's data processing and validation procedures.
#
#######################################################################

data_WONYIJ
_symmetry_cell_setting           triclinic
_symmetry_space_group_name_H-M   'P -1'
_symmetry_Int_Tables_number      2
_space_group_name_Hall           '-P 1'
loop_
_symmetry_equiv_pos_site_id
_symmetry_equiv_pos_as_xyz
1 x,y,z
2 -x,-y,-z
_cell_length_a                   7.6120(5)
_cell_length_b                   9.0450(6)
_cell_length_c                   9.4890(6)
_cell_angle_alpha                64.536(3)
_cell_angle_beta                 86.926(3)
_cell_angle_gamma                69.765(3)
_cell_volume                     549.954
loop_
_atom_site_label
_atom_site_type_symbol
_atom_site_fract_x
_atom_site_fract_y
_atom_site_fract_z
C1 C 0.6172(12) -0.2847(12) 0.1370(9)
H1 H 0.5511 -0.1880 0.1552
C2 C 0.6016(13) -0.2682(11) -0.0138(9)
H2 H 0.5275 -0.1626 -0.0949
C3 C 0.6983(12) -0.4119(11) -0.0417(9)
C4 C 0.8113(14) -0.5637(11) 0.0804(9)
H3 H 0.8807 -0.6612 0.0644
C5 C 0.8200(14) -0.5686(12) 0.2292(9)
H4 H 0.8969 -0.6710 0.3118
C6 C 1.1382(10) -0.8259(10) 0.6377(9)
C7 C 1.0716(12) -0.9710(11) 0.7437(11)
H5 H 1.1518 -1.0372 0.8429
H6 H 1.0858 -1.0499 0.6963
C8 C 0.8675(12) -0.9078(11) 0.7761(9)
H7 H 0.8449 -1.0026 0.8651
H8 H 0.8463 -0.8120 0.8039
C9 C 0.7289(11) -0.8463(11) 0.6359(10)
C10 C 0.6839(13) -0.3996(12) -0.2046(9)
N1 N 0.7218(10) -0.4316(9) 0.2574(7)
O1 O 0.6168(8) -0.6880(7) 0.5733(7)
O2 O 1.0247(8) -0.6755(7) 0.5563(7)
O3 O 1.3149(8) -0.8617(8) 0.6366(7)
O4 O 0.7321(10) -0.9633(10) 0.5959(10)
O5 O 0.7828(12) -0.5253(11) -0.2295(8)
O6 O 0.5625(15) -0.2664(11) -0.3050(8)
Cd1 Cd 1.5000 -1.0000 0.5000
Cd2 Cd 0.71669(7) -0.44884(7) 0.51272(6)
C1A C 0.3828(12) -0.7153(12) 0.8630(9)
H1A H 0.4489 -0.8120 0.8448
C2A C 0.3984(13) -0.7318(11) 1.0138(9)
H2A H 0.4725 -0.8374 1.0949
C3A C 0.3017(12) -0.5881(11) 1.0417(9)
C4A C 0.1887(14) -0.4363(11) 0.9196(9)
H3A H 0.1193 -0.3388 0.9356
C5A C 0.1800(14) -0.4314(12) 0.7708(9)
H4A H 0.1031 -0.3290 0.6882
C6A C -0.1382(10) -0.1741(10) 0.3623(9)
C7A C -0.0716(12) -0.0290(11) 0.2563(11)
H5A H -0.1518 0.0372 0.1571
H6A H -0.0858 0.0499 0.3037
C8A C 0.1325(12) -0.0922(11) 0.2239(9)
H7A H 0.1551 0.0026 0.1349
H8A H 0.1537 -0.1880 0.1961
C9A C 0.2711(11) -0.1537(11) 0.3641(10)
C10A C 0.3161(13) -0.6004(12) 1.2046(9)
N1A N 0.2782(10) -0.5684(9) 0.7426(7)
O1A O 0.3832(8) -0.3120(7) 0.4267(7)
O2A O -0.0247(8) -0.3245(7) 0.4437(7)
O3A O -0.3149(8) -0.1383(8) 0.3634(7)
O4A O 0.2679(10) -0.0367(10) 0.4041(10)
O5A O 0.2172(12) -0.4747(11) 1.2295(8)
O6A O 0.4375(15) -0.7336(11) 1.3050(8)
Cd2A Cd 0.28331(7) -0.55116(7) 0.48728(6)
O2_2 O 0.0247(8) -0.6755(7) 0.5563(7)
O2A_2 O 0.9753(8) -0.3245(7) 0.4437(7)
O3_2 O 0.3149(8) -0.8617(8) 0.6366(7)
O3A_2 O 0.6851(8) -0.1383(8) 0.3634(7)
O3A_3 O 1.6851(8) -1.1383(8) 0.3634(7)
O4_2 O 1.7321(10) -0.9633(10) 0.5959(10)
O4A_2 O 1.2679(10) -1.0367(10) 0.4041(10)
O5_2 O 0.7828(12) -0.5253(11) 0.7705(8)
O5A_2 O 0.2172(12) -0.4747(11) 0.2295(8)
O6_2 O 1.5625(15) -1.2664(11) 0.6950(8)
O6A_2 O 1.4375(15) -0.7336(11) 0.3050(8)
Cd1_2 Cd -0.5000 0.0000 0.5000
Cd1_3 Cd 0.5000 -1.0000 0.5000
Cd1_4 Cd 0.5000 -1.0000 1.5000
Cd1_5 Cd 0.5000 0.0000 -0.5000
Cd1_6 Cd 0.5000 0.0000 0.5000
Cd2_2 Cd -0.28331(7) -0.44884(7) 0.51272(6)
Cd2_3 Cd 0.71669(7) -0.44884(7) -0.48728(6)
Cd2A_2 Cd 0.28331(7) -0.55116(7) 1.48728(6)
Cd2A_3 Cd 1.28331(7) -0.55116(7) 0.48728(6)
loop_
_geom_bond_atom_site_label_1
_geom_bond_atom_site_label_2
_geom_bond_site_symmetry_1
_geom_bond_site_symmetry_2
C1 H1 1_555 1_555
C2 C1 1_555 1_555
H2 C2 1_555 1_555
C3 C2 1_555 1_555
C4 C3 1_555 1_555
H3 C4 1_555 1_555
C5 C4 1_555 1_555
H4 C5 1_555 1_555
C6 C7 1_555 1_555
C7 H5 1_555 1_555
H6 C7 1_555 1_555
C8 C7 1_555 1_555
H7 C8 1_555 1_555
H8 C8 1_555 1_555
C9 C8 1_555 1_555
C10 C3 1_555 1_555
N1 C1 1_555 1_555
O1 C9 1_555 1_555
O2 C6 1_555 1_555
O3 C6 1_555 1_555
O4 C9 1_555 1_555
O5 C10 1_555 1_555
O6 C10 1_555 1_555
Cd1 O3 1_555 1_555
Cd2 N1 1_555 1_555
C1A H1A 1_555 1_555
C2A C1A 1_555 1_555
H2A C2A 1_555 1_555
C3A C2A 1_555 1_555
C4A C3A 1_555 1_555
H3A C4A 1_555 1_555
C5A C4A 1_555 1_555
H4A C5A 1_555 1_555
C6A C7A 1_555 1_555
C7A H5A 1_555 1_555
H6A C7A 1_555 1_555
C8A C7A 1_555 1_555
H7A C8A 1_555 1_555
H8A C8A 1_555 1_555
C9A C8A 1_555 1_555
C10A C3A 1_555 1_555
N1A C1A 1_555 1_555
O1A Cd2 1_555 1_555
O2A C6A 1_555 1_555
O3A C6A 1_555 1_555
O4A C9A 1_555 1_555
O5A C10A 1_555 1_555
O6A C10A 1_555 1_555
Cd2A O1 1_555 1_555
O2_2 Cd2A 1_555 1_555
O2A_2 Cd2 1_555 1_555
O3_2 Cd2A 1_555 1_555
O3A_2 Cd2 1_555 1_555
O3A_3 Cd1 1_555 1_555
O4_2 Cd1 1_555 1_555
O4A_2 Cd1 1_555 1_555
O5_2 Cd2 1_555 1_555
O5A_2 Cd2A 1_555 1_555
O6_2 Cd1 1_555 1_555
O6A_2 Cd1 1_555 1_555
Cd1_2 O3A 1_555 1_555
Cd1_3 O4 1_555 1_555
Cd1_4 O6A 1_555 1_555
Cd1_5 O6 1_555 1_555
Cd1_6 O4A 1_555 1_555
Cd2_2 O2A 1_555 1_555
Cd2_3 O5 1_555 1_555
Cd2A_2 O5A 1_555 1_555
Cd2A_3 O2 1_555 1_555
C5 N1 1_555 1_555
O1 Cd2 1_555 1_555
O2 Cd2 1_555 1_555
O3 Cd2A_3 1_555 1_555
C5A N1A 1_555 1_555
C9A O1A 1_555 1_555
N1A Cd2A 1_555 1_555
O1A Cd2A 1_555 1_555
O2A Cd2A 1_555 1_555
O3A Cd2_2 1_555 1_555
O2_2 Cd2_2 1_555 1_555
O2A_2 Cd2A_3 1_555 1_555
O3_2 Cd1_3 1_555 1_555
O3A_2 Cd1_6 1_555 1_555

#END
