
#######################################################################
#
#                 Cambridge Crystallographic Data Centre
#                                CCDC 
#
#######################################################################
#
# If this CIF has been generated from an entry in the Cambridge 
# Structural Database, then it will include bibliographic, chemical, 
# crystal, experimental, refinement or atomic coordinate data resulting 
# from the CCDC's data processing and validation procedures.
#
#######################################################################

data_WOPDOV
_symmetry_cell_setting           triclinic
_symmetry_space_group_name_H-M   'P -1'
_symmetry_Int_Tables_number      2
_space_group_name_Hall           '-P 1'
loop_
_symmetry_equiv_pos_site_id
_symmetry_equiv_pos_as_xyz
1 x,y,z
2 -x,-y,-z
_cell_length_a                   9.934(11)
_cell_length_b                   10.242(11)
_cell_length_c                   11.064(12)
_cell_angle_alpha                78.351(12)
_cell_angle_beta                 82.391(13)
_cell_angle_gamma                67.257(12)
_cell_volume                     1014.95
loop_
_atom_site_label
_atom_site_type_symbol
_atom_site_fract_x
_atom_site_fract_y
_atom_site_fract_z
Mn1 Mn 0.46213(5) 0.86228(4) 0.38081(4)
O1 O 0.3523(3) 0.8054(2) 0.23458(19)
O2 O 0.5005(2) 0.6377(2) 0.36678(18)
O3 O 0.3929(2) 0.1818(2) 0.48130(17)
O4 O 0.3720(2) 0.0875(2) 0.32350(18)
N1 N 0.2739(3) 0.8595(3) 0.5243(2)
N2 N -0.3515(3) 0.8617(3) 1.2320(2)
C1 C 0.3799(3) 0.5606(3) 0.2399(3)
C2 C 0.3917(3) 0.4345(3) 0.3216(3)
H1 H 0.4167 0.4229 0.4022
C3 C 0.3659(3) 0.3253(3) 0.2820(2)
C4 C 0.3308(3) 0.3438(3) 0.1603(3)
H2 H 0.3160 0.2702 0.1335
C5 C 0.3173(3) 0.4693(3) 0.0781(3)
C6 C 0.3408(3) 0.5786(3) 0.1198(3)
H3 H 0.3300 0.6643 0.0665
C7 C 0.4127(3) 0.6757(3) 0.2826(3)
C8 C 0.3791(3) 0.1882(3) 0.3693(2)
C9 C 0.2788(4) 0.4853(4) -0.0532(3)
H4 H 0.3316 0.3969 -0.0840
H5 H 0.3046 0.5609 -0.1041
H6 H 0.1757 0.5084 -0.0547
C10 C 0.1850(4) 0.9775(4) 0.5696(3)
H7 H 0.1976 1.0637 0.5387
C11 C 0.0745(4) 0.9768(4) 0.6609(3)
H8 H 0.0151 1.0614 0.6895
C12 C 0.0527(3) 0.8501(4) 0.7093(3)
C13 C 0.1447(4) 0.7288(4) 0.6626(3)
H9 H 0.1345 0.6412 0.6923
C14 C 0.2519(4) 0.7373(4) 0.5718(3)
H10 H 0.3121 0.6539 0.5418
C15 C -0.0616(4) 0.8445(5) 0.8130(3)
H11 H -0.1552 0.9175 0.7891
H12 H -0.0709 0.7518 0.8251
C16 C -0.0261(4) 0.8674(5) 0.9321(3)
H13 H -0.0159 0.9597 0.9192
H14 H 0.0674 0.7941 0.9557
C17 C -0.3810(4) 0.9598(4) 1.1292(3)
H15 H -0.4750 1.0291 1.1227
C18 C -0.2791(4) 0.9633(4) 1.0323(3)
H16 H -0.3054 1.0339 0.9629
C19 C -0.1391(4) 0.8633(4) 1.0375(3)
C20 C -0.1081(4) 0.7609(4) 1.1434(3)
H17 H -0.0151 0.6902 1.1518
C21 C -0.2163(4) 0.7644(4) 1.2367(3)
H18 H -0.1928 0.6945 1.3069
Mn1A Mn 0.53787(5) 0.13772(4) 0.61919(4)
Mn1_2 Mn 0.46213(5) -0.13772(4) 0.38081(4)
Mn1_3 Mn -0.53787(5) 0.86228(4) 1.38081(4)
O3A O 0.6071(2) 0.8182(2) 0.51870(17)
O4_2 O 0.3720(2) 1.0875(2) 0.32350(18)
N2_2 N 0.6485(3) 0.8617(3) 0.2320(2)
loop_
_geom_bond_atom_site_label_1
_geom_bond_atom_site_label_2
_geom_bond_site_symmetry_1
_geom_bond_site_symmetry_2
Mn1 O1 1_555 1_555
O1 C7 1_555 1_555
O2 Mn1 1_555 1_555
O3 C8 1_555 1_555
O4 C8 1_555 1_555
N1 Mn1 1_555 1_555
N2 C17 1_555 1_555
C1 C2 1_555 1_555
C2 H1 1_555 1_555
C3 C2 1_555 1_555
C4 C3 1_555 1_555
H2 C4 1_555 1_555
C5 C4 1_555 1_555
C6 C1 1_555 1_555
H3 C6 1_555 1_555
C7 O2 1_555 1_555
C8 C3 1_555 1_555
C9 C5 1_555 1_555
H4 C9 1_555 1_555
H5 C9 1_555 1_555
H6 C9 1_555 1_555
C10 N1 1_555 1_555
H7 C10 1_555 1_555
C11 C10 1_555 1_555
H8 C11 1_555 1_555
C12 C11 1_555 1_555
C13 C12 1_555 1_555
H9 C13 1_555 1_555
C14 N1 1_555 1_555
H10 C14 1_555 1_555
C15 C12 1_555 1_555
H11 C15 1_555 1_555
H12 C15 1_555 1_555
C16 C15 1_555 1_555
H13 C16 1_555 1_555
H14 C16 1_555 1_555
C17 H15 1_555 1_555
C18 C17 1_555 1_555
H16 C18 1_555 1_555
C19 C16 1_555 1_555
C20 C19 1_555 1_555
H17 C20 1_555 1_555
C21 N2 1_555 1_555
H18 C21 1_555 1_555
Mn1A O3 1_555 1_555
Mn1_2 O4 1_555 1_555
Mn1_3 N2 1_555 1_555
O3A Mn1 1_555 1_555
O4_2 Mn1 1_555 1_555
N2_2 Mn1 1_555 1_555
C1 C7 1_555 1_555
C5 C6 1_555 1_555
C13 C14 1_555 1_555
C18 C19 1_555 1_555
C20 C21 1_555 1_555

#END
