
#######################################################################
#
#                 Cambridge Crystallographic Data Centre
#                                CCDC 
#
#######################################################################
#
# If this CIF has been generated from an entry in the Cambridge 
# Structural Database, then it will include bibliographic, chemical, 
# crystal, experimental, refinement or atomic coordinate data resulting 
# from the CCDC's data processing and validation procedures.
#
#######################################################################

data_WOPHEQ
_symmetry_cell_setting           triclinic
_symmetry_space_group_name_H-M   'P -1'
_symmetry_Int_Tables_number      2
_space_group_name_Hall           '-P 1'
loop_
_symmetry_equiv_pos_site_id
_symmetry_equiv_pos_as_xyz
1 x,y,z
2 -x,-y,-z
_cell_length_a                   10.079(4)
_cell_length_b                   14.817(5)
_cell_length_c                   20.165(7)
_cell_angle_alpha                98.577(5)
_cell_angle_beta                 103.941(4)
_cell_angle_gamma                91.757(4)
_cell_volume                     2883.09
loop_
_atom_site_label
_atom_site_type_symbol
_atom_site_fract_x
_atom_site_fract_y
_atom_site_fract_z
N1 N -0.1239(8) 1.2286(5) 0.3493(5)
C1 C -0.2345(16) 1.1799(9) 0.2961(9)
H1 H -0.3033 1.2127 0.2732
C2 C -0.243(2) 1.0837(11) 0.2774(15)
H2 H -0.3044 1.0525 0.2380
C3 C -0.1505(17) 1.0396(9) 0.3233(10)
N2 N 0.1492(7) 1.1923(5) 0.2024(3)
C4 C 0.2516(10) 1.1644(6) 0.2488(5)
H3 H 0.3205 1.2078 0.2744
Co1 Co -0.10718(8) 0.37440(6) 0.34693(4)
Co2 Co 0.13889(8) 0.33832(6) 0.20610(4)
O1 O 0.0903(5) 0.3784(4) 0.4013(2)
O2 O 0.9408(4) 0.3231(3) 1.1498(2)
O3 O 0.8126(5) 0.3986(4) 0.4398(3)
O4 O 0.3536(5) 0.3450(4) 1.2120(2)
O5 O 0.6766(5) 0.3788(4) 0.3370(2)
O6 O 0.2172(5) 0.3344(4) 1.1086(3)
O7 O 0.1703(5) 0.3440(4) 0.3088(2)
N3 N 0.1360(6) 0.4834(4) 0.2168(3)
C5 C 0.5885(6) 0.3388(5) 1.1613(3)
H4 H 0.6003 0.3439 1.2089
N4 N -0.0890(6) 0.5187(4) 0.3447(3)
C6 C 0.4424(6) 0.3771(4) 0.3886(3)
H5 H 0.4294 0.3738 0.3411
C7 C 0.3299(6) 0.3730(5) 0.4181(3)
C8 C 0.5735(6) 0.3861(5) 0.4323(3)
O8 O 0.5130(5) 0.3783(5) 0.5998(3)
C9 C 0.1864(6) 0.3647(4) 0.3726(3)
C10 C 0.8439(7) 0.3330(5) 1.1792(3)
C11 C 0.7039(7) 0.3327(5) 1.1326(3)
O9 O 0.5253(5) 0.3324(6) 0.9501(3)
O10 O 0.8578(5) 0.3412(5) 1.2422(3)
C12 C 0.6954(6) 0.3882(5) 0.4022(3)
C13 C 0.5559(7) 0.3324(6) 1.0198(4)
C14 C 0.3497(7) 0.3751(5) 0.4890(3)
H6 H 0.2746 0.3726 0.5080
C15 C 0.5931(7) 0.3880(5) 0.5020(4)
H7 H 0.6818 0.3940 0.5302
C16 C 0.6845(7) 0.3290(6) 1.0616(4)
H8 H 0.7594 0.3241 1.0422
C17 C 0.4595(7) 0.3371(5) 1.1188(3)
C18 C 0.6354(8) 0.3309(7) 0.9166(4)
H9 H 0.6808 0.2744 0.9200
H10 H 0.7022 0.3817 0.9383
C19 C 0.3352(7) 0.3401(5) 1.1482(4)
C20 C 0.0756(8) 0.5275(5) 0.1668(4)
H11 H 0.0277 0.4932 0.1249
C21 C 0.1566(8) 0.7739(5) 0.2511(5)
C22 C -0.1308(12) 0.7926(8) 0.3043(6)
N5 N -0.1854(13) 0.8989(7) 0.2430(8)
C23 C 0.4822(7) 0.3810(6) 0.5314(3)
C24 C 0.1611(9) 1.0110(5) 0.2242(5)
C25 C 0.2010(7) 0.5349(5) 0.2774(4)
H12 H 0.2433 0.5059 0.3139
C26 C 0.1638(10) 0.9197(5) 0.2454(5)
C27 C 0.5758(8) 0.3383(6) 0.8424(4)
C28 C 0.4620(7) 0.3542(6) 0.7043(4)
C29 C 0.5359(8) 0.2608(6) 0.7942(4)
H13 H 0.5453 0.2034 0.8076
C30 C 0.5568(8) 0.4240(6) 0.8229(4)
H14 H 0.5837 0.4765 0.8558
C31 C 0.4409(7) 0.3331(6) 1.0471(4)
H15 H 0.3533 0.3310 1.0182
C32 C -0.0598(15) 1.0788(11) 0.3708(12)
H16 H 0.0049 1.0462 0.3969
C33 C 0.1455(7) 0.6749(5) 0.2333(4)
N6 N -0.1683(13) 0.8191(13) 0.2508(11)
C34 C 0.4015(8) 0.3626(7) 0.6308(4)
H17 H 0.3472 0.3069 0.6068
H18 H 0.3427 0.4132 0.6282
C35 C 0.4802(8) 0.2682(6) 0.7238(4)
H19 H 0.4558 0.2158 0.6907
C36 C 0.2072(7) 0.6284(5) 0.2872(4)
H20 H 0.2526 0.6615 0.3300
C37 C 0.0535(12) 1.0348(7) 0.1727(6)
H21 H -0.0138 0.9921 0.1446
N7 N 0.1894(8) 0.8172(5) 0.3140(4)
C38 C -0.0489(11) 0.6882(9) 0.3830(6)
H22 H -0.0161 0.7395 0.4165
C39 C 0.2619(11) 1.0765(7) 0.2612(5)
H23 H 0.3359 1.0612 0.2941
C40 C -0.1543(14) 0.9346(10) 0.3051(8)
C41 C -0.1156(9) 0.6918(9) 0.3180(5)
C42 C -0.0310(10) 0.5783(7) 0.3977(6)
H24 H 0.0159 0.5631 0.4398
N8 N 0.1935(9) 0.9086(5) 0.3105(4)
C43 C 0.0554(10) 1.1285(6) 0.1669(5)
H25 H -0.0170 1.1468 0.1347
C44 C 0.0794(9) 0.6222(6) 0.1731(4)
H26 H 0.0362 0.6494 0.1357
C45 C -0.055(2) 1.1859(9) 0.3870(12)
H27 H 0.0047 1.2164 0.4275
C46 C 0.4981(8) 0.4314(6) 0.7547(4)
H28 H 0.4825 0.4890 0.7425
N9 N 0.1394(7) 0.8372(5) 0.2058(4)
N10 N -0.1103(8) 0.8740(4) 0.3501(4)
N11 N 0.1142(11) 0.8169(6) 0.1345(4)
H29 H 0.1131 0.8603 0.1104
H30 H 0.0997 0.7609 0.1142
C47 C -0.1653(12) 0.6290(9) 0.2692(7)
H31 H -0.2105 0.6398 0.2255
C48 C -0.1492(10) 0.5478(7) 0.2842(6)
H32 H -0.1849 0.5009 0.2474
N12 N -0.061(3) 0.8693(12) 0.4413(13)
H33 H -0.0615 0.9174 0.4709
H34 H -0.0364 0.8189 0.4554
N1_2 N -0.1239(8) 0.2286(5) 0.3493(5)
N2_2 N 0.1492(7) 0.1923(5) 0.2024(3)
Co1_2 Co -0.10718(8) 1.37440(6) 0.34693(4)
Co1_3 Co 0.89282(8) 0.37440(6) 0.34693(4)
Co1_4 Co 0.89282(8) 0.37440(6) 1.34693(4)
Co2_2 Co 0.13889(8) 0.33832(6) 1.20610(4)
Co2_3 Co 0.13889(8) 1.33832(6) 0.20610(4)
Co2_4 Co 1.13889(8) 0.33832(6) 1.20610(4)
O2_2 O -0.0592(4) 0.3231(3) 0.1498(2)
O3_2 O -0.1874(5) 0.3986(4) 0.4398(3)
O4_2 O 0.3536(5) 0.3450(4) 0.2120(2)
O5_2 O -0.3234(5) 0.3788(4) 0.3370(2)
O6_2 O 0.2172(5) 0.3344(4) 0.1086(3)
O10_2 O -0.1422(5) 0.3412(5) 0.2422(3)
O11 O 0.1143(14) 0.4385(11) 0.9929(6)
O12 O 0.509(3) 0.013(2) 0.1068(10)
O13 O 0.537(3) 0.8936(12) 0.4460(14)
O14 O 0.3442(17) 0.9238(12) 0.1015(8)
loop_
_geom_bond_atom_site_label_1
_geom_bond_atom_site_label_2
_geom_bond_site_symmetry_1
_geom_bond_site_symmetry_2
N1 C1 1_555 1_555
C1 H1 1_555 1_555
C2 C1 1_555 1_555
H2 C2 1_555 1_555
C3 C2 1_555 1_555
N2 C4 1_555 1_555
C4 H3 1_555 1_555
Co1 O1 1_555 1_555
Co2 O7 1_555 1_555
O1 C9 1_555 1_555
O2 C10 1_555 1_555
O3 C12 1_555 1_555
O4 C19 1_555 1_555
O5 C12 1_555 1_555
O6 C19 1_555 1_555
O7 C9 1_555 1_555
N3 Co2 1_555 1_555
C5 H4 1_555 1_555
N4 Co1 1_555 1_555
C6 H5 1_555 1_555
C7 C6 1_555 1_555
C8 C6 1_555 1_555
O8 C23 1_555 1_555
C9 C7 1_555 1_555
C10 C11 1_555 1_555
C11 C5 1_555 1_555
O9 C13 1_555 1_555
O10 C10 1_555 1_555
C12 C8 1_555 1_555
C13 C16 1_555 1_555
C14 C7 1_555 1_555
H6 C14 1_555 1_555
C15 C8 1_555 1_555
H7 C15 1_555 1_555
C16 C11 1_555 1_555
H8 C16 1_555 1_555
C17 C5 1_555 1_555
C18 O9 1_555 1_555
H9 C18 1_555 1_555
H10 C18 1_555 1_555
C19 C17 1_555 1_555
C20 N3 1_555 1_555
H11 C20 1_555 1_555
C21 C33 1_555 1_555
C22 N6 1_555 1_555
N5 N6 1_555 1_555
C23 C14 1_555 1_555
C24 C26 1_555 1_555
C25 N3 1_555 1_555
H12 C25 1_555 1_555
C26 N8 1_555 1_555
C27 C18 1_555 1_555
C28 C34 1_555 1_555
C29 C27 1_555 1_555
H13 C29 1_555 1_555
C30 C27 1_555 1_555
H14 C30 1_555 1_555
C31 C13 1_555 1_555
H15 C31 1_555 1_555
C32 C3 1_555 1_555
H16 C32 1_555 1_555
C33 C36 1_555 1_555
C34 O8 1_555 1_555
H17 C34 1_555 1_555
H18 C34 1_555 1_555
C35 C28 1_555 1_555
H19 C35 1_555 1_555
C36 C25 1_555 1_555
H20 C36 1_555 1_555
C37 C24 1_555 1_555
H21 C37 1_555 1_555
N7 C21 1_555 1_555
C38 H22 1_555 1_555
C39 C4 1_555 1_555
H23 C39 1_555 1_555
C40 C3 1_555 1_555
C41 C22 1_555 1_555
C42 N4 1_555 1_555
H24 C42 1_555 1_555
N8 N7 1_555 1_555
C43 N2 1_555 1_555
H25 C43 1_555 1_555
C44 C20 1_555 1_555
H26 C44 1_555 1_555
C45 N1 1_555 1_555
H27 C45 1_555 1_555
C46 C28 1_555 1_555
H28 C46 1_555 1_555
N9 C21 1_555 1_555
N10 C22 1_555 1_555
N11 N9 1_555 1_555
H29 N11 1_555 1_555
H30 N11 1_555 1_555
C47 C41 1_555 1_555
H31 C47 1_555 1_555
C48 N4 1_555 1_555
H32 C48 1_555 1_555
N12 N10 1_555 1_555
H33 N12 1_555 1_555
H34 N12 1_555 1_555
N1_2 Co1 1_555 1_555
N2_2 Co2 1_555 1_555
Co1_2 N1 1_555 1_555
Co1_3 O3 1_555 1_555
Co1_4 O10 1_555 1_555
Co2_2 O4 1_555 1_555
Co2_3 N2 1_555 1_555
Co2_4 O2 1_555 1_555
O2_2 Co2 1_555 1_555
O3_2 Co1 1_555 1_555
O4_2 Co2 1_555 1_555
O5_2 Co1 1_555 1_555
O6_2 Co2 1_555 1_555
O10_2 Co1 1_555 1_555
O5 Co1_3 1_555 1_555
O6 Co2_2 1_555 1_555
C15 C23 1_555 1_555
C17 C31 1_555 1_555
N5 C40 1_555 1_555
C24 C39 1_555 1_555
C26 N9 1_555 1_555
C29 C35 1_555 1_555
C30 C46 1_555 1_555
C32 C45 1_555 1_555
C33 C44 1_555 1_555
C37 C43 1_555 1_555
C38 C41 1_555 1_555
C38 C42 1_555 1_555
C40 N10 1_555 1_555
C47 C48 1_555 1_555

#END
