
#######################################################################
#
#                 Cambridge Crystallographic Data Centre
#                                CCDC 
#
#######################################################################
#
# If this CIF has been generated from an entry in the Cambridge 
# Structural Database, then it will include bibliographic, chemical, 
# crystal, experimental, refinement or atomic coordinate data resulting 
# from the CCDC's data processing and validation procedures.
#
#######################################################################

data_WOPHUG
_symmetry_cell_setting           monoclinic
_symmetry_space_group_name_H-M   'P 21/c'
_symmetry_Int_Tables_number      14
_space_group_name_Hall           '-P 2ybc'
loop_
_symmetry_equiv_pos_site_id
_symmetry_equiv_pos_as_xyz
1 x,y,z
2 -x,1/2+y,1/2-z
3 -x,-y,-z
4 x,1/2-y,1/2+z
_cell_length_a                   15.166(4)
_cell_length_b                   18.627(5)
_cell_length_c                   12.018(3)
_cell_angle_alpha                90
_cell_angle_beta                 96.446(3)
_cell_angle_gamma                90
_cell_volume                     3373.59
loop_
_atom_site_label
_atom_site_type_symbol
_atom_site_fract_x
_atom_site_fract_y
_atom_site_fract_z
Co1 Co 0.5000 0.5000 0.5000
Co2 Co 0.10731(4) 0.46205(4) 0.98503(5)
C1 C 0.5124(3) 0.5288(2) 0.7466(3)
C2 C 0.4689(3) 0.5504(2) 0.8482(3)
C3 C 0.3824(3) 0.5295(2) 0.8600(3)
H1 H 0.3501 0.5029 0.8040
C4 C 0.3444(3) 0.5484(2) 0.9560(3)
C5 C 0.3920(3) 0.5902(2) 1.0377(3)
H2 H 0.3655 0.6049 1.1000
C6 C 0.4788(3) 0.6102(2) 1.0268(3)
C7 C 0.5170(3) 0.5900(2) 0.9315(3)
H3 H 0.5751 0.6032 0.9238
C8 C 0.2552(3) 0.5212(3) 0.9758(4)
C9 C 0.6101(3) 0.6721(3) 1.0995(4)
H4 H 0.6084 0.7040 1.0355
H5 H 0.6463 0.6308 1.0855
C10 C 0.6505(3) 0.7106(2) 1.2030(3)
C11 C 0.6540(3) 0.7846(2) 1.2049(4)
H6 H 0.6257 0.8107 1.1453
C12 C 0.6994(3) 0.8203(3) 1.2949(4)
H7 H 0.7030 0.8702 1.2945
C13 C 0.7390(3) 0.7823(2) 1.3842(4)
H8 H 0.7693 0.8067 1.4443
C14 C 0.7348(3) 0.7080(2) 1.3870(3)
C15 C 0.6906(3) 0.6729(2) 1.2950(4)
H9 H 0.6878 0.6230 1.2950
C16 C 0.7823(3) 0.6673(3) 1.4832(4)
H10 H 0.7866 0.6960 1.5510
H11 H 0.7513 0.6231 1.4960
C17 C 0.9290(3) 0.6196(3) 1.5273(4)
C18 C 0.9163(3) 0.5985(3) 1.6346(3)
H12 H 0.8616 0.6051 1.6612
C19 C 0.9863(3) 0.5672(2) 1.7020(3)
C20 C 1.0674(3) 0.5551(2) 1.6615(4)
H13 H 1.1140 0.5340 1.7069
C21 C 1.0780(3) 0.5748(3) 1.5523(4)
C22 C 1.0097(3) 0.6073(3) 1.4865(4)
H14 H 1.0175 0.6213 1.4140
C23 C 0.9751(3) 0.5500(2) 1.8211(4)
C24 C 1.1623(3) 0.5596(3) 1.5024(4)
C25 C 0.3860(3) 0.6352(2) 0.5263(3)
H15 H 0.3687 0.6084 0.5854
C26 C 0.3454(3) 0.7015(2) 0.5028(3)
C27 C 0.3716(3) 0.7411(2) 0.4155(4)
H16 H 0.3461 0.7856 0.3973
C28 C 0.4367(3) 0.7135(2) 0.3551(4)
H17 H 0.4555 0.7392 0.2958
C29 C 0.4731(3) 0.6475(2) 0.3843(4)
H18 H 0.5168 0.6294 0.3437
C30 C 0.1553(3) 0.7600(2) 0.6341(3)
C31 C 0.0291(3) 0.8455(2) 0.5817(4)
H19 H 0.0620 0.8678 0.5308
C32 C 0.0656(3) 0.7882(2) 0.6426(3)
C33 C 0.0163(3) 0.7558(3) 0.7184(4)
H20 H 0.0395 0.7172 0.7613
C34 C -0.0679(3) 0.7812(3) 0.7300(4)
H21 H -0.1020 0.7597 0.7804
C35 C -0.1002(3) 0.8379(3) 0.6667(4)
H22 H -0.1570 0.8546 0.6745
C36 C 0.2771(3) 0.7225(2) 0.5739(3)
N1 N 0.4483(2) 0.60825(18) 0.4687(3)
N2 N 0.2793(3) 0.7026(3) 0.6780(3)
N3 N 0.2014(3) 0.7268(3) 0.7156(3)
N4 N 0.2004(2) 0.75951(19) 0.5431(3)
N5 N 0.1692(3) 0.7911(3) 0.4415(3)
H23 H 0.1186 0.8124 0.4339
H24 H 0.2005 0.7893 0.3861
N6 N -0.0531(2) 0.8706(2) 0.5934(3)
O1 O 0.46378(18) 0.50834(16) 0.6614(2)
O2 O 0.5958(2) 0.53310(19) 0.7536(3)
O3 O 0.2283(2) 0.46122(18) 0.9308(3)
O4 O 0.20784(19) 0.55497(19) 1.0363(3)
O5 O 0.52156(18) 0.64900(17) 1.1141(2)
O6 O 0.8674(2) 0.6527(2) 1.4521(3)
O7 O 1.1662(2) 0.5947(2) 1.4081(3)
H25 H 1.2065 0.5784 1.3756
O8 O 1.2199(2) 0.5198(2) 1.5435(3)
O9 O 1.0420(3) 0.5318(2) 1.8862(3)
O10 O 0.8993(2) 0.5576(2) 1.8535(3)
O11 O 0.37106(19) 0.45635(16) 0.4603(3)
Co2B Co 0.89269(4) 0.53795(4) 0.01497(5)
C1B C 0.4876(3) 0.4712(2) 0.2534(3)
C2B C 0.5311(3) 0.4496(2) 0.1518(3)
C3B C 0.6176(3) 0.4705(2) 0.1400(3)
H1B H 0.6499 0.4971 0.1960
C4B C 0.6556(3) 0.4516(2) 0.0440(3)
C5B C 0.6080(3) 0.4098(2) -0.0377(3)
H2B H 0.6345 0.3951 -0.1000
C6B C 0.5212(3) 0.3898(2) -0.0268(3)
C7B C 0.4830(3) 0.4100(2) 0.0685(3)
H3B H 0.4249 0.3968 0.0762
C8B C 0.7448(3) 0.4788(3) 0.0242(4)
C9B C 0.3899(3) 0.3279(3) -0.0995(4)
H4B H 0.3916 0.2960 -0.0355
H5B H 0.3537 0.3692 -0.0855
C10B C 0.3495(3) 0.2894(2) -0.2030(3)
C11B C 0.3460(3) 0.2154(2) -0.2049(4)
H6B H 0.3743 0.1893 -0.1453
C12B C 0.3006(3) 0.1797(3) -0.2949(4)
H7B H 0.2970 0.1298 -0.2945
C13B C 0.2610(3) 0.2177(2) -0.3842(4)
H8B H 0.2307 0.1933 -0.4443
C14B C 0.2652(3) 0.2920(2) -0.3870(3)
C15B C 0.3094(3) 0.3271(2) -0.2950(4)
H9B H 0.3122 0.3770 -0.2950
C16B C 0.2177(3) 0.3327(3) -0.4832(4)
H10B H 0.2134 0.3040 -0.5510
H11B H 0.2487 0.3769 -0.4960
C17B C 0.0710(3) 0.3804(3) -0.5273(4)
C18B C 0.0837(3) 0.4015(3) -0.6346(3)
H12B H 0.1384 0.3949 -0.6612
C19B C 0.0137(3) 0.4328(2) -0.7020(3)
C20B C -0.0674(3) 0.4449(2) -0.6615(4)
H13B H -0.1140 0.4660 -0.7069
C21B C -0.0780(3) 0.4252(3) -0.5523(4)
C22B C -0.0097(3) 0.3927(3) -0.4865(4)
H14B H -0.0175 0.3787 -0.4140
C23B C 0.0249(3) 0.4500(2) -0.8211(4)
C24B C -0.1623(3) 0.4404(3) -0.5024(4)
C25B C 0.6140(3) 0.3648(2) 0.4737(3)
H15B H 0.6313 0.3916 0.4146
C26B C 0.6546(3) 0.2985(2) 0.4972(3)
C27B C 0.6284(3) 0.2589(2) 0.5845(4)
H16B H 0.6539 0.2144 0.6027
C28B C 0.5633(3) 0.2865(2) 0.6449(4)
H17B H 0.5445 0.2608 0.7042
C29B C 0.5269(3) 0.3525(2) 0.6157(4)
H18B H 0.4832 0.3706 0.6563
C30B C 0.8447(3) 0.2400(2) 0.3659(3)
C31B C 0.9709(3) 0.1545(2) 0.4183(4)
H19B H 0.9380 0.1322 0.4692
C32B C 0.9344(3) 0.2118(2) 0.3574(3)
C33B C 0.9837(3) 0.2442(3) 0.2816(4)
H20B H 0.9605 0.2828 0.2387
C34B C 1.0679(3) 0.2188(3) 0.2700(4)
H21B H 1.1020 0.2403 0.2196
C35B C 1.1002(3) 0.1621(3) 0.3333(4)
H22B H 1.1570 0.1454 0.3255
C36B C 0.7229(3) 0.2775(2) 0.4261(3)
N1B N 0.5517(2) 0.39175(18) 0.5313(3)
N2B N 0.7207(3) 0.2974(3) 0.3220(3)
N3B N 0.7986(3) 0.2732(3) 0.2844(3)
N4B N 0.7996(2) 0.24049(19) 0.4569(3)
N5B N 0.8308(3) 0.2089(3) 0.5585(3)
H23B H 0.8814 0.1876 0.5661
H24B H 0.7995 0.2107 0.6139
N6B N 1.0531(2) 0.1294(2) 0.4066(3)
O1B O 0.53622(18) 0.49166(16) 0.3386(2)
O2B O 0.4042(2) 0.46690(19) 0.2464(3)
O3B O 0.7717(2) 0.53878(18) 0.0692(3)
O4B O 0.79216(19) 0.44503(19) -0.0363(3)
O5B O 0.47844(18) 0.35100(17) -0.1141(2)
O6B O 0.1326(2) 0.3473(2) -0.4521(3)
O7B O -0.1662(2) 0.4053(2) -0.4081(3)
H25B H -0.2065 0.4216 -0.3756
O8B O -0.2199(2) 0.4802(2) -0.5435(3)
O9B O -0.0420(3) 0.4682(2) -0.8862(3)
O10B O 0.1007(2) 0.4424(2) -0.8535(3)
O11B O 0.62894(19) 0.54365(16) 0.5397(3)
Co2_2 Co 0.10731(4) 0.46205(4) -1.01497(5)
Co2_3 Co 1.10731(4) 0.46205(4) 1.98503(5)
Co2A Co -0.10731(4) 0.96205(4) 0.51497(5)
Co2B_2 Co -0.10731(4) 0.53795(4) -0.98503(5)
Co2B_3 Co 0.89269(4) 0.53795(4) 2.01497(5)
Co2C Co 1.10731(4) 0.03795(4) 0.48503(5)
N6A N 0.0531(2) 0.3706(2) 0.9066(3)
N6C N 0.9469(2) 0.6294(2) 0.0934(3)
O9_2 O 0.0420(3) 0.5318(2) 0.8862(3)
O9B_2 O 0.9580(3) 0.4682(2) 0.1138(3)
O10_2 O 0.8993(2) 0.5576(2) -0.1465(3)
O10B_2 O 0.1007(2) 0.4424(2) 1.1465(3)
O12 O 0.2724(3) 0.5649(3) 0.2656(3)
loop_
_geom_bond_atom_site_label_1
_geom_bond_atom_site_label_2
_geom_bond_site_symmetry_1
_geom_bond_site_symmetry_2
Co1 N1 1_555 1_555
Co2 O3 1_555 1_555
C1 C2 1_555 1_555
C2 C3 1_555 1_555
C3 H1 1_555 1_555
C4 C3 1_555 1_555
C5 C4 1_555 1_555
H2 C5 1_555 1_555
C6 C5 1_555 1_555
C7 C2 1_555 1_555
H3 C7 1_555 1_555
C8 C4 1_555 1_555
C9 H4 1_555 1_555
H5 C9 1_555 1_555
C10 C9 1_555 1_555
C11 C10 1_555 1_555
H6 C11 1_555 1_555
C12 C11 1_555 1_555
H7 C12 1_555 1_555
C13 C12 1_555 1_555
H8 C13 1_555 1_555
C14 C13 1_555 1_555
C15 C10 1_555 1_555
H9 C15 1_555 1_555
C16 C14 1_555 1_555
H10 C16 1_555 1_555
H11 C16 1_555 1_555
C17 C18 1_555 1_555
C18 H12 1_555 1_555
C19 C18 1_555 1_555
C20 C19 1_555 1_555
H13 C20 1_555 1_555
C21 C20 1_555 1_555
C22 C17 1_555 1_555
H14 C22 1_555 1_555
C23 C19 1_555 1_555
C24 C21 1_555 1_555
C25 H15 1_555 1_555
C26 C25 1_555 1_555
C27 C26 1_555 1_555
H16 C27 1_555 1_555
C28 C27 1_555 1_555
H17 C28 1_555 1_555
C29 C28 1_555 1_555
H18 C29 1_555 1_555
C30 C32 1_555 1_555
C31 H19 1_555 1_555
C32 C31 1_555 1_555
C33 C32 1_555 1_555
H20 C33 1_555 1_555
C34 C33 1_555 1_555
H21 C34 1_555 1_555
C35 C34 1_555 1_555
H22 C35 1_555 1_555
C36 C26 1_555 1_555
N1 C25 1_555 1_555
N2 C36 1_555 1_555
N3 C30 1_555 1_555
N4 C30 1_555 1_555
N5 N4 1_555 1_555
H23 N5 1_555 1_555
H24 N5 1_555 1_555
N6 C31 1_555 1_555
O1 Co1 1_555 1_555
O2 C1 1_555 1_555
O3 C8 1_555 1_555
O4 Co2 1_555 1_555
O5 C6 1_555 1_555
O6 C16 1_555 1_555
O7 C24 1_555 1_555
H25 O7 1_555 1_555
O8 C24 1_555 1_555
O9 C23 1_555 1_555
O10 C23 1_555 1_555
O11 Co1 1_555 1_555
Co2B O3B 1_555 1_555
C1B C2B 1_555 1_555
C2B C3B 1_555 1_555
C3B H1B 1_555 1_555
C4B C3B 1_555 1_555
C5B C4B 1_555 1_555
H2B C5B 1_555 1_555
C6B C5B 1_555 1_555
C7B C2B 1_555 1_555
H3B C7B 1_555 1_555
C8B C4B 1_555 1_555
C9B H4B 1_555 1_555
H5B C9B 1_555 1_555
C10B C9B 1_555 1_555
C11B C10B 1_555 1_555
H6B C11B 1_555 1_555
C12B C11B 1_555 1_555
H7B C12B 1_555 1_555
C13B C12B 1_555 1_555
H8B C13B 1_555 1_555
C14B C13B 1_555 1_555
C15B C10B 1_555 1_555
H9B C15B 1_555 1_555
C16B C14B 1_555 1_555
H10B C16B 1_555 1_555
H11B C16B 1_555 1_555
C17B C18B 1_555 1_555
C18B H12B 1_555 1_555
C19B C18B 1_555 1_555
C20B C19B 1_555 1_555
H13B C20B 1_555 1_555
C21B C20B 1_555 1_555
C22B C17B 1_555 1_555
H14B C22B 1_555 1_555
C23B C19B 1_555 1_555
C24B C21B 1_555 1_555
C25B H15B 1_555 1_555
C26B C25B 1_555 1_555
C27B C26B 1_555 1_555
H16B C27B 1_555 1_555
C28B C27B 1_555 1_555
H17B C28B 1_555 1_555
C29B C28B 1_555 1_555
H18B C29B 1_555 1_555
C30B C32B 1_555 1_555
C31B H19B 1_555 1_555
C32B C31B 1_555 1_555
C33B C32B 1_555 1_555
H20B C33B 1_555 1_555
C34B C33B 1_555 1_555
H21B C34B 1_555 1_555
C35B C34B 1_555 1_555
H22B C35B 1_555 1_555
C36B C26B 1_555 1_555
N1B Co1 1_555 1_555
N2B C36B 1_555 1_555
N3B C30B 1_555 1_555
N4B C30B 1_555 1_555
N5B N4B 1_555 1_555
H23B N5B 1_555 1_555
H24B N5B 1_555 1_555
N6B C31B 1_555 1_555
O1B Co1 1_555 1_555
O2B C1B 1_555 1_555
O3B C8B 1_555 1_555
O4B Co2B 1_555 1_555
O5B C6B 1_555 1_555
O6B C16B 1_555 1_555
O7B C24B 1_555 1_555
H25B O7B 1_555 1_555
O8B C24B 1_555 1_555
O9B C23B 1_555 1_555
O10B C23B 1_555 1_555
O11B Co1 1_555 1_555
Co2_2 O10B 1_555 1_555
Co2_3 O9 1_555 1_555
Co2A N6 1_555 1_555
Co2B_2 O9B 1_555 1_555
Co2B_3 O10 1_555 1_555
Co2C N6B 1_555 1_555
N6A Co2 1_555 1_555
N6C Co2B 1_555 1_555
O9_2 Co2 1_555 1_555
O9B_2 Co2B 1_555 1_555
O10_2 Co2B 1_555 1_555
O10B_2 Co2 1_555 1_555
C1 O1 1_555 1_555
C6 C7 1_555 1_555
C8 O4 1_555 1_555
C9 O5 1_555 1_555
C14 C15 1_555 1_555
C17 O6 1_555 1_555
C21 C22 1_555 1_555
C29 N1 1_555 1_555
C35 N6 1_555 1_555
C36 N4 1_555 1_555
N2 N3 1_555 1_555
C1B O1B 1_555 1_555
C6B C7B 1_555 1_555
C8B O4B 1_555 1_555
C9B O5B 1_555 1_555
C14B C15B 1_555 1_555
C17B O6B 1_555 1_555
C21B C22B 1_555 1_555
C25B N1B 1_555 1_555
C29B N1B 1_555 1_555
C35B N6B 1_555 1_555
C36B N4B 1_555 1_555
N2B N3B 1_555 1_555

#END
