
#######################################################################
#
#                 Cambridge Crystallographic Data Centre
#                                CCDC 
#
#######################################################################
#
# If this CIF has been generated from an entry in the Cambridge 
# Structural Database, then it will include bibliographic, chemical, 
# crystal, experimental, refinement or atomic coordinate data resulting 
# from the CCDC's data processing and validation procedures.
#
#######################################################################

data_WOPNUM
_symmetry_cell_setting           triclinic
_symmetry_space_group_name_H-M   'P -1'
_symmetry_Int_Tables_number      2
_space_group_name_Hall           '-P 1'
loop_
_symmetry_equiv_pos_site_id
_symmetry_equiv_pos_as_xyz
1 x,y,z
2 -x,-y,-z
_cell_length_a                   9.400(6)
_cell_length_b                   10.038(5)
_cell_length_c                   10.760(6)
_cell_angle_alpha                100.21(9)
_cell_angle_beta                 115.50(10)
_cell_angle_gamma                100.50(8)
_cell_volume                     862.822
loop_
_atom_site_label
_atom_site_type_symbol
_atom_site_fract_x
_atom_site_fract_y
_atom_site_fract_z
Zn1 Zn 0.58476(9) 0.32808(8) 0.15027(9)
O1 O 0.3952(6) 0.4181(6) 0.0954(6)
O2 O 0.5282(7) 0.2869(5) 0.5339(6)
H1 H 0.4813 0.3003 0.4550
O3 O 0.4719(7) 0.2176(5) -0.0623(6)
O4 O -0.1119(6) 0.2195(5) -0.1617(7)
H2 H -0.0346 0.1860 -0.1460
N1 N 0.7583(8) 0.5258(6) 0.2788(7)
N2 N 0.8138(8) 0.2874(7) 0.1918(7)
O5 O 0.5417(6) 0.2521(5) 0.2984(6)
O6 O 0.1909(7) 0.2284(6) -0.0725(7)
O7 O 0.5134(8) 0.0412(6) 0.1703(6)
C1 C 0.5113(8) 0.0595(7) 0.3922(8)
C2 C 0.5228(9) 0.1179(8) 0.2772(9)
C3 C 0.1165(9) 0.4289(7) 0.0038(8)
C4 C 0.5130(9) 0.1430(7) 0.5159(8)
C5 C 0.1645(9) 0.5724(8) 0.0828(9)
H3 H 0.2762 0.6203 0.1385
C6 C 0.2421(9) 0.3536(7) 0.0108(9)
C7 C 0.9510(9) 0.4006(8) 0.2708(9)
C8 C -0.0537(8) 0.3575(7) -0.0800(8)
C9 C 0.9202(9) 0.5336(8) 0.3209(9)
C10 C 0.8362(11) 0.1617(9) 0.1407(10)
H4 H 0.7436 0.0842 0.0831
C11 C 1.1097(10) 0.3898(9) 0.3039(9)
H5 H 1.2015 0.4682 0.3601
C12 C 0.4971(9) -0.0847(7) 0.3822(9)
H6 H 0.4945 -0.1422 0.3029
C13 C 1.0046(11) 0.7775(9) 0.4511(11)
H7 H 1.0864 0.8627 0.5073
C14 C 1.1281(11) 0.2591(10) 0.2511(10)
H8 H 1.2313 0.2493 0.2697
C15 C 0.8402(11) 0.7681(9) 0.4115(11)
H9 H 0.8104 0.8452 0.4437
C16 C 0.7237(10) 0.6412(8) 0.3233(9)
H10 H 0.6136 0.6362 0.2930
C17 C 0.9859(11) 0.1446(10) 0.1696(10)
H11 H 0.9940 0.0561 0.1351
C18 C 1.0440(11) 0.6610(9) 0.4068(10)
H12 H 1.1534 0.6660 0.4335
O1A O -0.3952(6) 0.5819(6) -0.0954(6)
O4A O 0.1119(6) 0.7805(5) 0.1617(7)
H2A H 0.0346 0.8140 0.1460
O6A O -0.1909(7) 0.7716(6) 0.0725(7)
C3A C -0.1165(9) 0.5711(7) -0.0038(8)
C5A C -0.1645(9) 0.4276(8) -0.0828(9)
H3A H -0.2762 0.3797 -0.1385
C6A C -0.2421(9) 0.6464(7) -0.0108(9)
C8A C 0.0537(8) 0.6425(7) 0.0800(8)
O2A O 0.4718(7) -0.2869(5) 0.4661(6)
H1A H 0.5187 -0.3003 0.5450
O5A O 0.4583(6) -0.2521(5) 0.7016(6)
O7A O 0.4866(8) -0.0412(6) 0.8297(6)
C1A C 0.4887(8) -0.0595(7) 0.6078(8)
C2A C 0.4772(9) -0.1179(8) 0.7228(9)
C4A C 0.4870(9) -0.1430(7) 0.4841(8)
C12A C 0.5029(9) 0.0847(7) 0.6178(9)
H6A H 0.5055 0.1422 0.6971
Zn1A Zn -0.58476(9) 0.67192(8) -0.15027(9)
O3A O -0.4719(7) 0.7824(5) 0.0623(6)
N1A N -0.7583(8) 0.4742(6) -0.2788(7)
N2A N -0.8138(8) 0.7126(7) -0.1918(7)
C7A C -0.9510(9) 0.5994(8) -0.2708(9)
C9A C -0.9202(9) 0.4664(8) -0.3209(9)
C10A C -0.8362(11) 0.8383(9) -0.1407(10)
H4A H -0.7436 0.9158 -0.0831
C11A C -1.1097(10) 0.6102(9) -0.3039(9)
H5A H -1.2015 0.5318 -0.3601
C13A C -1.0046(11) 0.2225(9) -0.4511(11)
H7A H -1.0864 0.1373 -0.5073
C14A C -1.1281(11) 0.7409(10) -0.2511(10)
H8A H -1.2313 0.7507 -0.2697
C15A C -0.8402(11) 0.2319(9) -0.4115(11)
H9A H -0.8104 0.1548 -0.4437
C16A C -0.7237(10) 0.3588(8) -0.3233(9)
H10A H -0.6136 0.3638 -0.2930
C17A C -0.9859(11) 0.8554(10) -0.1696(10)
H11A H -0.9940 0.9439 -0.1351
C18A C -1.0440(11) 0.3390(9) -0.4068(10)
H12A H -1.1534 0.3340 -0.4335
Zn1A_2 Zn 0.41524(9) -0.32808(8) 0.84973(9)
O5A_2 O -0.5417(6) 0.7479(5) -0.2984(6)
loop_
_geom_bond_atom_site_label_1
_geom_bond_atom_site_label_2
_geom_bond_site_symmetry_1
_geom_bond_site_symmetry_2
Zn1 O1 1_555 1_555
O1 C6 1_555 1_555
O2 H1 1_555 1_555
O3 Zn1 1_555 1_555
O4 H2 1_555 1_555
N1 Zn1 1_555 1_555
N2 Zn1 1_555 1_555
O5 Zn1 1_555 1_555
O6 C6 1_555 1_555
O7 C2 1_555 1_555
C1 C2 1_555 1_555
C2 O5 1_555 1_555
C3 C5 1_555 1_555
C4 O2 1_555 1_555
C5 H3 1_555 1_555
C6 C3 1_555 1_555
C7 N2 1_555 1_555
C8 O4 1_555 1_555
C9 N1 1_555 1_555
C10 N2 1_555 1_555
H4 C10 1_555 1_555
C11 C7 1_555 1_555
H5 C11 1_555 1_555
C12 C1 1_555 1_555
H6 C12 1_555 1_555
C13 H7 1_555 1_555
C14 C11 1_555 1_555
H8 C14 1_555 1_555
C15 C13 1_555 1_555
H9 C15 1_555 1_555
C16 N1 1_555 1_555
H10 C16 1_555 1_555
C17 C10 1_555 1_555
H11 C17 1_555 1_555
C18 C9 1_555 1_555
H12 C18 1_555 1_555
O1A C6A 1_555 1_555
O4A H2A 1_555 1_555
O6A C6A 1_555 1_555
C3A C5A 1_555 1_555
C5A C8 1_555 1_555
H3A C5A 1_555 1_555
C6A C3A 1_555 1_555
C8A C5 1_555 1_555
O2A H1A 1_555 1_555
O5A C2A 1_555 1_555
O7A C2A 1_555 1_555
C1A C2A 1_555 1_555
C4A C12 1_555 1_555
C12A C4 1_555 1_555
H6A C12A 1_555 1_555
Zn1A O1A 1_555 1_555
O3A Zn1A 1_555 1_555
N1A Zn1A 1_555 1_555
N2A Zn1A 1_555 1_555
C7A N2A 1_555 1_555
C9A N1A 1_555 1_555
C10A N2A 1_555 1_555
H4A C10A 1_555 1_555
C11A C7A 1_555 1_555
H5A C11A 1_555 1_555
C13A H7A 1_555 1_555
C14A C11A 1_555 1_555
H8A C14A 1_555 1_555
C15A C13A 1_555 1_555
H9A C15A 1_555 1_555
C16A N1A 1_555 1_555
H10A C16A 1_555 1_555
C17A C10A 1_555 1_555
H11A C17A 1_555 1_555
C18A C9A 1_555 1_555
H12A C18A 1_555 1_555
Zn1A_2 O5A 1_555 1_555
O5A_2 Zn1A 1_555 1_555
C1 C4 1_555 1_555
C3 C8 1_555 1_555
C7 C9 1_555 1_555
C13 C18 1_555 1_555
C14 C17 1_555 1_555
C15 C16 1_555 1_555
O4A C8A 1_555 1_555
C3A C8A 1_555 1_555
O2A C4A 1_555 1_555
C1A C4A 1_555 1_555
C1A C12A 1_555 1_555
C7A C9A 1_555 1_555
C13A C18A 1_555 1_555
C14A C17A 1_555 1_555
C15A C16A 1_555 1_555

#END
