
#######################################################################
#
#                 Cambridge Crystallographic Data Centre
#                                CCDC 
#
#######################################################################
#
# If this CIF has been generated from an entry in the Cambridge 
# Structural Database, then it will include bibliographic, chemical, 
# crystal, experimental, refinement or atomic coordinate data resulting 
# from the CCDC's data processing and validation procedures.
#
#######################################################################

data_WOPQEY
_symmetry_cell_setting           monoclinic
_symmetry_space_group_name_H-M   'C 2/c'
_symmetry_Int_Tables_number      15
_space_group_name_Hall           '-C 2yn'
loop_
_symmetry_equiv_pos_site_id
_symmetry_equiv_pos_as_xyz
1 x,y,z
2 1/2+x,1/2+y,z
3 -x,y,1/2-z
4 1/2-x,1/2+y,1/2-z
5 -x,-y,-z
6 1/2-x,1/2-y,-z
7 x,-y,1/2+z
8 1/2+x,1/2-y,1/2+z
_cell_length_a                   21.384(7)
_cell_length_b                   25.493(6)
_cell_length_c                   18.919(4)
_cell_angle_alpha                90
_cell_angle_beta                 107.54(3)
_cell_angle_gamma                90
_cell_volume                     9834.04
loop_
_atom_site_label
_atom_site_type_symbol
_atom_site_fract_x
_atom_site_fract_y
_atom_site_fract_z
C1 C 0.67590(15) 0.79870(12) 0.67701(17)
C2 C 0.74753(16) 0.91336(13) 0.56987(18)
C3 C 0.73892(18) 0.89593(14) 0.36190(18)
C4 C 0.84694(17) 0.72998(14) 0.74446(18)
C5 C 0.91713(16) 0.84385(13) 0.62885(16)
C6 C 0.90706(16) 0.83038(12) 0.41947(17)
C7 C 0.74757(15) 0.74803(12) 0.76776(15)
H1 H 0.7415 0.7435 0.8167
C8 C 0.78082(14) 0.79875(12) 0.76265(15)
H2 H 0.7916 0.8176 0.8099
C9 C 0.84692(15) 0.89906(13) 0.66341(18)
H3 H 0.8633 0.9221 0.7065
C10 C 0.85994(15) 0.92247(13) 0.59471(17)
H4 H 0.8814 0.9568 0.6048
C11 C 0.85372(16) 0.90771(14) 0.39725(18)
H5 H 0.8748 0.9404 0.3893
C12 C 0.83178(16) 0.87446(12) 0.32666(17)
H6 H 0.8431 0.8914 0.2856
C13 C 0.63109(17) 0.71730(13) 0.70275(19)
H7 H 0.5907 0.7369 0.6833
H8 H 0.6323 0.7037 0.7510
C14 C 0.73663(16) 0.88208(12) 0.69133(18)
H9 H 0.7561 0.9000 0.7380
H10 H 0.6924 0.8955 0.6706
C15 C 0.78244(17) 0.95207(12) 0.47121(18)
H11 H 0.7382 0.9659 0.4575
H12 H 0.8124 0.9814 0.4761
C16 C 0.71828(18) 0.84865(13) 0.24096(16)
H13 H 0.6765 0.8668 0.2286
H14 H 0.7380 0.8555 0.2019
C17 C 0.89358(17) 0.81667(13) 0.74417(17)
H15 H 0.9316 0.7947 0.7482
H16 H 0.9039 0.8395 0.7872
C18 C 0.93703(16) 0.88992(13) 0.52370(17)
H17 H 0.9774 0.8698 0.5390
H18 H 0.9487 0.9266 0.5227
N1 N 0.68536(12) 0.75117(10) 0.71030(14)
N2 N 0.73301(12) 0.82736(10) 0.70585(14)
N3 N 0.77405(13) 0.89477(11) 0.64120(15)
N4 N 0.79608(14) 0.92560(12) 0.54091(16)
N5 N 0.78893(15) 0.91795(11) 0.41395(16)
N6 N 0.76024(14) 0.86821(11) 0.30975(15)
N7 N 0.79280(12) 0.70906(10) 0.75453(13)
N8 N 0.84044(12) 0.78474(10) 0.74444(14)
N9 N 0.88029(12) 0.84968(10) 0.67530(14)
N10 N 0.90228(14) 0.88295(11) 0.57890(16)
N11 N 0.89882(14) 0.87358(12) 0.44764(15)
N12 N 0.63226(13) 0.67227(10) 0.65141(14)
O1 O 0.62539(11) 0.81427(8) 0.62963(13)
O2 O 0.68800(11) 0.91694(9) 0.54049(13)
O3 O 0.67957(12) 0.90079(9) 0.35668(12)
O4 O 0.89520(10) 0.70698(9) 0.73818(12)
O5 O 0.95478(10) 0.80638(9) 0.62990(11)
O6 O 0.94761(11) 0.79597(9) 0.45101(12)
C1E C 0.82410(15) 0.70130(12) 0.32299(17)
C2E C 0.75247(16) 0.58664(13) 0.43013(18)
C3E C 0.76108(18) 0.60407(14) 0.63810(18)
C4E C 0.65306(17) 0.77002(14) 0.25554(18)
C5E C 0.58287(16) 0.65615(13) 0.37115(16)
C6E C 0.59294(16) 0.66962(12) 0.58053(17)
C7E C 0.75243(15) 0.75197(12) 0.23224(15)
H1E H 0.7585 0.7565 0.1833
C8E C 0.71918(14) 0.70125(12) 0.23735(15)
H2E H 0.7084 0.6824 0.1901
C9E C 0.65308(15) 0.60094(13) 0.33659(18)
H3E H 0.6367 0.5779 0.2935
C10E C 0.64006(15) 0.57753(13) 0.40529(17)
H4E H 0.6186 0.5432 0.3952
C11E C 0.64628(16) 0.59229(14) 0.60275(18)
H5E H 0.6252 0.5596 0.6107
C12E C 0.66822(16) 0.62554(12) 0.67334(17)
H6E H 0.6569 0.6086 0.7144
C13E C 0.86891(17) 0.78270(13) 0.29725(19)
H7E H 0.9093 0.7631 0.3167
H8E H 0.8677 0.7963 0.2490
C14E C 0.76337(16) 0.61792(12) 0.30867(18)
H9E H 0.7439 0.6000 0.2620
H10E H 0.8076 0.6045 0.3294
C15E C 0.71756(17) 0.54793(12) 0.52879(18)
H11E H 0.7618 0.5341 0.5425
H12E H 0.6876 0.5186 0.5239
C16E C 0.78172(18) 0.65135(13) 0.75904(16)
H13E H 0.8235 0.6332 0.7714
H14E H 0.7620 0.6445 0.7981
C17E C 0.60642(17) 0.68333(13) 0.25583(17)
H15E H 0.5684 0.7053 0.2518
H16E H 0.5961 0.6605 0.2128
C18E C 0.56297(16) 0.61008(13) 0.47630(17)
H17E H 0.5226 0.6302 0.4610
H18E H 0.5513 0.5734 0.4773
N1E N 0.81464(12) 0.74883(10) 0.28970(14)
N2E N 0.76699(12) 0.67264(10) 0.29415(14)
N3E N 0.72595(13) 0.60523(11) 0.35880(15)
N4E N 0.70392(14) 0.57440(12) 0.45909(16)
N5E N 0.71107(15) 0.58205(11) 0.58605(16)
N6E N 0.73976(14) 0.63179(11) 0.69025(15)
N7E N 0.70720(12) 0.79094(10) 0.24547(13)
N8E N 0.65956(12) 0.71526(10) 0.25556(14)
N9E N 0.61971(12) 0.65032(10) 0.32470(14)
N10E N 0.59772(14) 0.61705(11) 0.42110(16)
N11E N 0.60118(14) 0.62642(12) 0.55236(15)
N12E N 0.86774(13) 0.82773(10) 0.34859(14)
O1E O 0.87461(11) 0.68573(8) 0.37037(13)
O2E O 0.81200(11) 0.58306(9) 0.45951(13)
O3E O 0.82043(12) 0.59921(9) 0.64332(12)
O4E O 0.60480(10) 0.79302(9) 0.26182(12)
O5E O 0.54522(10) 0.69362(9) 0.37010(11)
O6E O 0.55239(11) 0.70403(9) 0.54899(12)
O7 O -0.00431(11) 0.11291(9) 0.67930(12)
H37 H -0.0421 0.1010 0.6562
H38 H 0.0153 0.1221 0.6483
O8 O 0.94367(11) 0.54204(9) 0.83533(12)
H39 H 0.9595 0.5336 0.8807
H40 H 0.9377 0.5146 0.8087
O9 O 0.6105(3) 0.6036(2) 0.0799(3)
H41 H 0.6155 0.6171 0.1223
H42 H 0.5745 0.5868 0.0662
O10 O 0.7256(3) 0.5094(2) 0.2070(3)
H43 H 0.6995 0.5309 0.1783
H44 H 0.7349 0.4848 0.1816
O11 O 0.0196(3) 0.9391(2) 0.6711(3)
H45 H 0.0318 0.9679 0.6569
H46 H 0.0080 0.9441 0.7097
O12 O 0.4399(3) 0.0830(2) 0.2988(3)
H47 H 0.4384 0.0861 0.2536
H48 H 0.4792 0.0760 0.3239
O13 O 0.8838(3) 0.4794(2) 0.8795(3)
H49 H 0.9083 0.4608 0.9140
H50 H 0.8553 0.4953 0.8947
O14 O 0.9492(3) 0.4210(2) 0.9803(3)
H51 H 0.9238 0.3996 0.9927
H52 H 0.9770 0.4040 0.9654
O15 O 0.9052(3) 0.2812(2) 0.6552(3)
H53 H 0.9240 0.2515 0.6651
H54 H 0.8645 0.2767 0.6340
O16 O 0.9391(3) 0.0819(2) 0.5592(3)
H55 H 0.9567 0.0535 0.5511
H56 H 0.9413 0.1047 0.5272
O17 O 0.6272(3) 0.0488(2) 0.4203(3)
H57 H 0.6684 0.0531 0.4386
H58 H 0.6196 0.0185 0.4008
O18 O 0.6787(3) 0.5516(2) 0.8803(3)
H59 H 0.6758 0.5238 0.8548
H60 H 0.6449 0.5705 0.8619
Cu1 Cu 0.7500 0.7500 0.0000
Cl1 Cl 0.77784(3) 0.68692(3) 0.09022(4)
Cl2 Cl 0.68546(3) 0.68844(3) -0.08920(4)
C19 C 0.65328(14) 0.81905(12) 0.03558(17)
H19 H 0.6789 0.8452 0.0240
C20 C 0.59883(16) 0.83416(13) 0.05636(18)
H20 H 0.5885 0.8692 0.0606
C21 C 0.55970(15) 0.79254(13) 0.07087(16)
C22 C 0.57797(14) 0.74260(13) 0.06988(16)
H21 H 0.5537 0.7157 0.0822
C23 C 0.63433(13) 0.73165(13) 0.04991(16)
H22 H 0.6472 0.6968 0.0494
C24 C 0.49901(16) 0.81122(14) 0.0964(2)
H23 H 0.5016 0.7965 0.1445
H24 H 0.4985 0.8492 0.1000
C25 C 0.38001(15) 0.80877(13) 0.06348(16)
H25 H 0.3739 0.8464 0.0584
H26 H 0.3872 0.7995 0.1150
C26 C 0.31680(16) 0.77916(13) 0.0123(2)
H27 H 0.3274 0.7428 0.0089
H28 H 0.3056 0.7937 -0.0368
H29 H 0.3178 0.7843 -0.0377
H30 H 0.2799 0.7988 0.0167
C27 C 0.2999(4) 0.7260(3) 0.0163(4)
H31 H 0.2956 0.7183 0.0648
H32 H 0.3337 0.7035 0.0083
C28 C 0.2603(3) 0.7828(2) 0.0392(4)
H33 H 0.2734 0.8188 0.0382
H34 H 0.2558 0.7748 0.0870
N13 N 0.67096(12) 0.76905(10) 0.03131(13)
N14 N 0.43873(13) 0.79221(11) 0.03899(15)
H35 H 0.4398 0.7571 0.0350
H36 H 0.4361 0.8064 -0.0054
Cu1_2 Cu -0.2500 0.7500 0.0000
Cl1E Cl 0.72216(3) 0.81308(3) -0.09022(4)
Cl2E Cl 0.81454(3) 0.81156(3) 0.08920(4)
C19E C -0.15328(14) 0.68095(12) -0.03558(17)
H19E H -0.1789 0.6548 -0.0240
C20E C -0.09883(16) 0.66584(13) -0.05636(18)
H20E H -0.0885 0.6308 -0.0606
C21E C -0.05970(15) 0.70746(13) -0.07087(16)
C22E C -0.07797(14) 0.75740(13) -0.06988(16)
H21E H -0.0537 0.7843 -0.0822
C23E C -0.13433(13) 0.76835(13) -0.04991(16)
H22E H -0.1472 0.8032 -0.0494
C24E C 0.00099(16) 0.68878(14) -0.0964(2)
H23E H -0.0016 0.7035 -0.1445
H24E H 0.0015 0.6508 -0.1000
C25E C 0.11999(15) 0.69123(13) -0.06348(16)
H25E H 0.1261 0.6536 -0.0584
H26E H 0.1128 0.7005 -0.1150
C26E C 0.18320(16) 0.72084(13) -0.0123(2)
H27E H 0.1726 0.7572 -0.0089
H28E H 0.1944 0.7063 0.0368
H29E H 0.1822 0.7157 0.0377
H30E H 0.2201 0.7012 -0.0167
C27E C 0.2001(4) 0.7740(3) -0.0163(4)
H31E H 0.2044 0.7817 -0.0648
H32E H 0.1663 0.7965 -0.0083
C28E C 0.2397(3) 0.7172(2) -0.0392(4)
H33E H 0.2266 0.6812 -0.0382
H34E H 0.2442 0.7252 -0.0870
N13E N -0.17096(12) 0.73095(10) -0.03131(13)
N13E_2 N 0.82904(12) 0.73095(10) -0.03131(13)
N14E N 0.06127(13) 0.70779(11) -0.03899(15)
H35E H 0.0602 0.7429 -0.0350
H36E H 0.0639 0.6936 0.0054
loop_
_geom_bond_atom_site_label_1
_geom_bond_atom_site_label_2
_geom_bond_site_symmetry_1
_geom_bond_site_symmetry_2
Cu1 Cl1 1_555 1_555
Cl2 Cu1 1_555 1_555
C1 N1 1_555 1_555
C2 N3 1_555 1_555
C3 N5 1_555 1_555
C4 N7 1_555 1_555
C5 N9 1_555 1_555
C6 N11 1_555 1_555
C7 H1 1_555 1_555
C8 C7 1_555 1_555
H2 C8 1_555 1_555
C9 H3 1_555 1_555
C10 C9 1_555 1_555
H4 C10 1_555 1_555
C11 H5 1_555 1_555
C12 C11 1_555 1_555
H6 C12 1_555 1_555
C13 H7 1_555 1_555
H8 C13 1_555 1_555
C14 H9 1_555 1_555
H10 C14 1_555 1_555
C15 H11 1_555 1_555
H12 C15 1_555 1_555
C16 H13 1_555 1_555
H14 C16 1_555 1_555
C17 H15 1_555 1_555
H16 C17 1_555 1_555
C18 H17 1_555 1_555
H18 C18 1_555 1_555
C19 H19 1_555 1_555
C20 C19 1_555 1_555
H20 C20 1_555 1_555
C21 C20 1_555 1_555
C22 C21 1_555 1_555
H21 C22 1_555 1_555
C23 C22 1_555 1_555
H22 C23 1_555 1_555
C24 C21 1_555 1_555
H23 C24 1_555 1_555
H24 C24 1_555 1_555
C25 H25 1_555 1_555
H26 C25 1_555 1_555
C26 C25 1_555 1_555
H27 C26 1_555 1_555
H28 C26 1_555 1_555
H29 C26 1_555 1_555
H30 C26 1_555 1_555
C27 C26 1_555 1_555
H31 C27 1_555 1_555
H32 C27 1_555 1_555
C28 C26 1_555 1_555
H33 H30 1_555 1_555
H34 C28 1_555 1_555
N1 C7 1_555 1_555
N2 C1 1_555 1_555
N3 C9 1_555 1_555
N4 C2 1_555 1_555
N5 C11 1_555 1_555
N6 C3 1_555 1_555
N7 C7 1_555 1_555
N8 C4 1_555 1_555
N9 C9 1_555 1_555
N10 C5 1_555 1_555
N11 C11 1_555 1_555
N12 C13 1_555 1_555
N13 Cu1 1_555 1_555
N14 C24 1_555 1_555
H35 N14 1_555 1_555
H36 N14 1_555 1_555
O1 C1 1_555 1_555
O2 C2 1_555 1_555
O3 C3 1_555 1_555
O4 C4 1_555 1_555
O5 C5 1_555 1_555
O6 C6 1_555 1_555
O7 H37 1_555 1_555
H38 O7 1_555 1_555
O8 H39 1_555 1_555
H40 O8 1_555 1_555
O9 H41 1_555 1_555
H42 O9 1_555 1_555
O10 H43 1_555 1_555
H44 O10 1_555 1_555
O11 H45 1_555 1_555
H46 O11 1_555 1_555
O12 H47 1_555 1_555
H48 O12 1_555 1_555
O13 H49 1_555 1_555
H50 O13 1_555 1_555
O14 H51 1_555 1_555
H52 O14 1_555 1_555
O15 H53 1_555 1_555
H54 O15 1_555 1_555
O16 H55 1_555 1_555
H56 O16 1_555 1_555
O17 H57 1_555 1_555
H58 O17 1_555 1_555
O18 H59 1_555 1_555
H60 O18 1_555 1_555
Cu1_2 N13E 1_555 1_555
Cl1E Cu1 1_555 1_555
Cl2E Cu1 1_555 1_555
C1E N1E 1_555 1_555
C2E N3E 1_555 1_555
C3E N5E 1_555 1_555
C4E N7E 1_555 1_555
C5E N9E 1_555 1_555
C6E N12 1_555 1_555
C7E H1E 1_555 1_555
C8E C7E 1_555 1_555
H2E C8E 1_555 1_555
C9E H3E 1_555 1_555
C10E C9E 1_555 1_555
H4E C10E 1_555 1_555
C11E H5E 1_555 1_555
C12E N12 1_555 1_555
H6E C12E 1_555 1_555
C13E H7E 1_555 1_555
H8E C13E 1_555 1_555
C14E H9E 1_555 1_555
H10E C14E 1_555 1_555
C15E H11E 1_555 1_555
H12E C15E 1_555 1_555
C16E N7 1_555 1_555
H13E C16E 1_555 1_555
H14E C16E 1_555 1_555
C17E H15E 1_555 1_555
H16E C17E 1_555 1_555
C18E H17E 1_555 1_555
H18E C18E 1_555 1_555
C19E H19E 1_555 1_555
C20E C19E 1_555 1_555
H20E C20E 1_555 1_555
C21E C20E 1_555 1_555
C22E C21E 1_555 1_555
H21E C22E 1_555 1_555
C23E C22E 1_555 1_555
H22E C23E 1_555 1_555
C24E C21E 1_555 1_555
H23E C24E 1_555 1_555
H24E C24E 1_555 1_555
C25E H25E 1_555 1_555
H26E C25E 1_555 1_555
C26E C25E 1_555 1_555
H27E C26E 1_555 1_555
H28E C26E 1_555 1_555
H29E C26E 1_555 1_555
H30E C26E 1_555 1_555
C27E C28 1_555 1_555
H31E C27E 1_555 1_555
H32E C27E 1_555 1_555
C28E C27 1_555 1_555
H33E H30E 1_555 1_555
H34E C28E 1_555 1_555
N1E C7E 1_555 1_555
N2E C1E 1_555 1_555
N3E C9E 1_555 1_555
N4E C2E 1_555 1_555
N5E C11E 1_555 1_555
N6E C3E 1_555 1_555
N7E C16 1_555 1_555
N8E C4E 1_555 1_555
N9E C9E 1_555 1_555
N10E C5E 1_555 1_555
N11E C6E 1_555 1_555
N12E C6 1_555 1_555
N13E C19E 1_555 1_555
N13E_2 Cu1 1_555 1_555
N14E C24E 1_555 1_555
H35E N14E 1_555 1_555
H36E N14E 1_555 1_555
O1E C1E 1_555 1_555
O2E C2E 1_555 1_555
O3E C3E 1_555 1_555
O4E C4E 1_555 1_555
O5E C5E 1_555 1_555
O6E C6E 1_555 1_555
C8 N2 1_555 1_555
C8 N8 1_555 1_555
C10 N4 1_555 1_555
C10 N10 1_555 1_555
C12 N6 1_555 1_555
C12 N12E 1_555 1_555
C13 N1 1_555 1_555
C14 N2 1_555 1_555
C14 N3 1_555 1_555
C15 N4 1_555 1_555
C15 N5 1_555 1_555
C16 N6 1_555 1_555
C17 N8 1_555 1_555
C17 N9 1_555 1_555
C18 N10 1_555 1_555
C18 N11 1_555 1_555
C19 N13 1_555 1_555
C23 N13 1_555 1_555
C25 N14 1_555 1_555
H27 C27 1_555 1_555
H28 H29 1_555 1_555
H30 C28 1_555 1_555
C28 H33 1_555 1_555
C7E N7E 1_555 1_555
C8E N2E 1_555 1_555
C8E N8E 1_555 1_555
C10E N4E 1_555 1_555
C10E N10E 1_555 1_555
C11E C12E 1_555 1_555
C11E N11E 1_555 1_555
C12E N6E 1_555 1_555
C13E N1E 1_555 1_555
C13E N12E 1_555 1_555
C14E N2E 1_555 1_555
C14E N3E 1_555 1_555
C15E N4E 1_555 1_555
C15E N5E 1_555 1_555
C16E N6E 1_555 1_555
C17E N8E 1_555 1_555
C17E N9E 1_555 1_555
C18E N10E 1_555 1_555
C18E N11E 1_555 1_555
C23E N13E 1_555 1_555
C25E N14E 1_555 1_555
C26E C27E 1_555 1_555
C26E C28E 1_555 1_555
H27E C27E 1_555 1_555
H28E H29E 1_555 1_555
H30E C28E 1_555 1_555
C28E H33E 1_555 1_555

#END
