
#######################################################################
#
#                 Cambridge Crystallographic Data Centre
#                                CCDC 
#
#######################################################################
#
# If this CIF has been generated from an entry in the Cambridge 
# Structural Database, then it will include bibliographic, chemical, 
# crystal, experimental, refinement or atomic coordinate data resulting 
# from the CCDC's data processing and validation procedures.
#
#######################################################################

data_WOPTUS
_symmetry_cell_setting           trigonal
_symmetry_space_group_name_H-M   'P -3'
_symmetry_Int_Tables_number      147
_space_group_name_Hall           '-P 3'
loop_
_symmetry_equiv_pos_site_id
_symmetry_equiv_pos_as_xyz
1 x,y,z
2 -y,x-y,z
3 -x+y,-x,z
4 -x,-y,-z
5 y,-x+y,-z
6 x-y,x,-z
_cell_length_a                   11.5937(3)
_cell_length_b                   11.5937(3)
_cell_length_c                   7.5357(4)
_cell_angle_alpha                90
_cell_angle_beta                 90
_cell_angle_gamma                120
_cell_volume                     877.199
loop_
_atom_site_label
_atom_site_type_symbol
_atom_site_fract_x
_atom_site_fract_y
_atom_site_fract_z
F1 F 0.6667 0.3333 0.8367(3)
F2 F 0.56015(11) 0.34652(11) 0.58842(16)
B1 B 0.6667 0.3333 0.6529(6)
F2A F 0.65348(11) 0.21363(16) 0.58842(16)
F2B F 0.78637(16) 0.43985(11) 0.58842(16)
N1 N 0.35961(16) 0.29973(16) 0.2138(2)
N2 N 0.15990(16) 0.14658(16) 0.1670(2)
N3 N 0.28471(16) 0.19020(16) 0.1189(2)
C1 C 0.1567(2) 0.2296(2) 0.2917(3)
H1 H 0.0791 0.2206 0.3475
C2 C 0.2846(2) 0.3285(2) 0.3227(3)
H2 H 0.3142 0.4012 0.4028
C3 C 0.50311(19) 0.37914(19) 0.1771(3)
H3 H 0.5300 0.3279 0.0991
H4 H 0.5533 0.3975 0.2897
C4 C 0.5375(2) 0.51062(19) 0.0875(3)
H5 H 0.6345 0.5619 0.0644
H6 H 0.5151 0.5637 0.1687
Fe1 Fe 0.0000 0.0000 0.0000
N1C N 0.64039(16) 0.70027(16) -0.2138(2)
N2C N 0.84010(16) 0.85342(16) -0.1670(2)
N3C N 0.71529(16) 0.80980(16) -0.1189(2)
C1C C 0.8433(2) 0.7704(2) -0.2917(3)
H1C H 0.9209 0.7794 -0.3475
C2C C 0.7154(2) 0.6715(2) -0.3227(3)
H2C H 0.6858 0.5988 -0.4028
C3C C 0.49689(19) 0.62086(19) -0.1771(3)
H3C H 0.4700 0.6721 -0.0991
H4C H 0.4467 0.6025 -0.2897
C4C C 0.4625(2) 0.48938(19) -0.0875(3)
H5C H 0.3655 0.4381 -0.0644
H6C H 0.4849 0.4363 -0.1687
N1A N -0.29973(16) 0.05988(23) 0.2138(2)
N2A N -0.14658(16) 0.01332(23) 0.1670(2)
N3A N -0.19020(16) 0.09451(23) 0.1189(2)
C1A C -0.2296(2) -0.0729(3) 0.2917(3)
H1A H -0.2206 -0.1415 0.3475
C2A C -0.3285(2) -0.0439(3) 0.3227(3)
H2A H -0.4012 -0.0870 0.4028
C3A C -0.37914(19) 0.12397(27) 0.1771(3)
H3A H -0.3279 0.2021 0.0991
H4A H -0.3975 0.1558 0.2897
C4A C -0.51062(19) 0.02688(28) 0.0875(3)
H5A H -0.5619 0.0726 0.0644
H6A H -0.5637 -0.0486 0.1687
N1D N -0.70027(16) -0.05988(23) -0.2138(2)
N2D N -0.85342(16) -0.01332(23) -0.1670(2)
N3D N -0.80980(16) -0.09451(23) -0.1189(2)
C1D C -0.7704(2) 0.0729(3) -0.2917(3)
H1D H -0.7794 0.1415 -0.3475
C2D C -0.6715(2) 0.0439(3) -0.3227(3)
H2D H -0.5988 0.0870 -0.4028
C3D C -0.62086(19) -0.12397(27) -0.1771(3)
H3D H -0.6721 -0.2021 -0.0991
H4D H -0.6025 -0.1558 -0.2897
C4D C -0.48938(19) -0.02688(28) -0.0875(3)
H5D H -0.4381 -0.0726 -0.0644
H6D H -0.4363 0.0486 -0.1687
N1B N -0.05988(23) -0.35961(16) 0.2138(2)
N2B N -0.01332(23) -0.15990(16) 0.1670(2)
N3B N -0.09451(23) -0.28471(16) 0.1189(2)
C1B C 0.0729(3) -0.1567(2) 0.2917(3)
H1B H 0.1415 -0.0791 0.3475
C2B C 0.0439(3) -0.2846(2) 0.3227(3)
H2B H 0.0870 -0.3142 0.4028
C3B C -0.12397(27) -0.50311(19) 0.1771(3)
H3B H -0.2021 -0.5300 0.0991
H4B H -0.1558 -0.5533 0.2897
C4B C -0.02688(28) -0.5375(2) 0.0875(3)
H5B H -0.0726 -0.6345 0.0644
H6B H 0.0486 -0.5151 0.1687
N1E N 0.05988(23) -0.64039(16) -0.2138(2)
N2E N 0.01332(23) -0.84010(16) -0.1670(2)
N3E N 0.09451(23) -0.71529(16) -0.1189(2)
C1E C -0.0729(3) -0.8433(2) -0.2917(3)
H1E H -0.1415 -0.9209 -0.3475
C2E C -0.0439(3) -0.7154(2) -0.3227(3)
H2E H -0.0870 -0.6858 -0.4028
C3E C 0.12397(27) -0.49689(19) -0.1771(3)
H3E H 0.2021 -0.4700 -0.0991
H4E H 0.1558 -0.4467 -0.2897
C4E C 0.02688(28) -0.4625(2) -0.0875(3)
H5E H 0.0726 -0.3655 -0.0644
H6E H -0.0486 -0.4849 -0.1687
N2C_2 N -0.15990(16) -0.14658(16) -0.1670(2)
N2D_2 N 0.14658(16) -0.01332(23) -0.1670(2)
N2E_2 N 0.01332(23) 0.15990(16) -0.1670(2)
Fe1_2 Fe -1.0000 0.0000 0.0000
Fe1_3 Fe 0.0000 -1.0000 0.0000
Fe1_4 Fe 1.0000 1.0000 0.0000
Zn1? Zn 0.0000 0.0000 0.0000
loop_
_geom_bond_atom_site_label_1
_geom_bond_atom_site_label_2
_geom_bond_site_symmetry_1
_geom_bond_site_symmetry_2
F1 B1 1_555 1_555
F2 B1 1_555 1_555
B1 F2A 1_555 1_555
N1 N3 1_555 1_555
N2 N3 1_555 1_555
C1 N2 1_555 1_555
H1 C1 1_555 1_555
C2 N1 1_555 1_555
H2 C2 1_555 1_555
C3 N1 1_555 1_555
H3 C3 1_555 1_555
H4 C3 1_555 1_555
C4 C3 1_555 1_555
H5 C4 1_555 1_555
H6 C4 1_555 1_555
Fe1 N2 1_555 1_555
F2B B1 1_555 1_555
N1C N3C 1_555 1_555
N2C N3C 1_555 1_555
C1C N2C 1_555 1_555
H1C C1C 1_555 1_555
C2C N1C 1_555 1_555
H2C C2C 1_555 1_555
C3C N1C 1_555 1_555
H3C C3C 1_555 1_555
H4C C3C 1_555 1_555
C4C C4 1_555 1_555
H5C C4C 1_555 1_555
H6C C4C 1_555 1_555
N1A N3A 1_555 1_555
N2A Fe1 1_555 1_555
N3A N2A 1_555 1_555
C1A N2A 1_555 1_555
H1A C1A 1_555 1_555
C2A N1A 1_555 1_555
H2A C2A 1_555 1_555
C3A N1A 1_555 1_555
H3A C3A 1_555 1_555
H4A C3A 1_555 1_555
C4A C3A 1_555 1_555
H5A C4A 1_555 1_555
H6A C4A 1_555 1_555
N1D N3D 1_555 1_555
N2D N3D 1_555 1_555
C1D N2D 1_555 1_555
H1D C1D 1_555 1_555
C2D N1D 1_555 1_555
H2D C2D 1_555 1_555
C3D N1D 1_555 1_555
H3D C3D 1_555 1_555
H4D C3D 1_555 1_555
C4D C4A 1_555 1_555
H5D C4D 1_555 1_555
H6D C4D 1_555 1_555
N1B N3B 1_555 1_555
N2B Fe1 1_555 1_555
N3B N2B 1_555 1_555
C1B N2B 1_555 1_555
H1B C1B 1_555 1_555
C2B N1B 1_555 1_555
H2B C2B 1_555 1_555
C3B N1B 1_555 1_555
H3B C3B 1_555 1_555
H4B C3B 1_555 1_555
C4B C3B 1_555 1_555
H5B C4B 1_555 1_555
H6B C4B 1_555 1_555
N1E N3E 1_555 1_555
N2E N3E 1_555 1_555
C1E N2E 1_555 1_555
H1E C1E 1_555 1_555
C2E N1E 1_555 1_555
H2E C2E 1_555 1_555
C3E N1E 1_555 1_555
H3E C3E 1_555 1_555
H4E C3E 1_555 1_555
C4E C4B 1_555 1_555
H5E C4E 1_555 1_555
H6E C4E 1_555 1_555
N2C_2 Fe1 1_555 1_555
N2D_2 Fe1 1_555 1_555
N2E_2 Fe1 1_555 1_555
Fe1_2 N2D 1_555 1_555
Fe1_3 N2E 1_555 1_555
Fe1_4 N2C 1_555 1_555
C1 C2 1_555 1_555
C1C C2C 1_555 1_555
C3C C4C 1_555 1_555
C1A C2A 1_555 1_555
C1D C2D 1_555 1_555
C3D C4D 1_555 1_555
C1B C2B 1_555 1_555
C1E C2E 1_555 1_555
C3E C4E 1_555 1_555

#END
