
#######################################################################
#
#                 Cambridge Crystallographic Data Centre
#                                CCDC 
#
#######################################################################
#
# If this CIF has been generated from an entry in the Cambridge 
# Structural Database, then it will include bibliographic, chemical, 
# crystal, experimental, refinement or atomic coordinate data resulting 
# from the CCDC's data processing and validation procedures.
#
#######################################################################

data_WOPWOP
_symmetry_cell_setting           triclinic
_symmetry_space_group_name_H-M   'P -1'
_symmetry_Int_Tables_number      2
_space_group_name_Hall           '-P 1'
loop_
_symmetry_equiv_pos_site_id
_symmetry_equiv_pos_as_xyz
1 x,y,z
2 -x,-y,-z
_cell_length_a                   10.561(2)
_cell_length_b                   11.815(2)
_cell_length_c                   13.964(3)
_cell_angle_alpha                106.17(3)
_cell_angle_beta                 101.87(3)
_cell_angle_gamma                111.67(3)
_cell_volume                     1459.34
loop_
_atom_site_label
_atom_site_type_symbol
_atom_site_fract_x
_atom_site_fract_y
_atom_site_fract_z
Co1 Co 0.69117(4) 0.49424(4) 0.21363(3)
Co2 Co 1.04700(4) 0.77044(4) 0.30877(3)
O1 O 0.9229(2) 0.5603(2) 0.25743(17)
H1 H 0.929(4) 0.519(3) 0.198(2)
H2 H 0.976(3) 0.555(4) 0.308(2)
O2 O 1.1016(2) 1.1978(2) 0.61945(18)
O3 O 0.0580(2) 0.2475(2) -0.15823(17)
O4 O 1.3389(2) 0.6307(2) -0.06142(17)
O5 O 0.8390(3) 0.2177(2) 0.54609(17)
O6 O 1.2862(2) 1.3865(2) 0.63927(17)
O7 O 0.2856(2) 0.3603(2) -0.15027(18)
N1 N 0.6640(3) 0.3403(3) 0.2707(2)
N2 N 1.2174(3) 0.7487(3) 0.2495(2)
N3 N 0.4615(3) 0.4335(3) 0.1604(2)
N4 N 1.1655(3) 0.9811(3) 0.3645(2)
O8 O 0.9037(3) 0.4317(2) 0.5787(2)
C1 C 1.1612(3) 1.0545(3) 0.4555(2)
H3 H 1.1140 1.0109 0.4934
C2 C 1.1883(3) 0.6986(3) 0.1445(2)
H4 H 1.0943 0.6688 0.0996
C3 C 0.7432(3) 0.3682(3) 0.3706(2)
H5 H 0.8042 0.4563 0.4153
C4 C 1.3527(4) 0.7892(3) 0.3128(3)
H6 H 1.3757 0.8259 0.3860
C5 C 1.2903(3) 0.6886(3) 0.0991(2)
C6 C 0.3954(3) 0.3930(3) 0.0558(3)
H7 H 0.4512 0.3918 0.0123
C7 C 1.2225(4) 1.1905(3) 0.4959(3)
C8 C 0.8346(4) 0.3118(3) 0.5206(3)
O9 O 1.1094(2) 0.5820(3) -0.07117(18)
C9 C 0.5744(4) 0.2129(3) 0.2080(3)
H8 H 0.5198 0.1924 0.1387
C10 C 0.3819(4) 0.4399(4) 0.2225(3)
H9 H 0.4265 0.4702 0.2955
C11 C 1.2431(3) 0.6297(3) -0.0204(3)
C12 C 0.1666(4) 0.3561(4) 0.0730(3)
H10 H 0.0673 0.3275 0.0442
C13 C 0.2492(3) 0.3529(3) 0.0087(2)
C14 C 1.2010(3) 1.2639(3) 0.5933(2)
C15 C 0.7378(3) 0.2720(3) 0.4096(3)
C16 C 0.1921(3) 0.3165(3) -0.1097(3)
C17 C 0.6426(4) 0.1410(3) 0.3438(3)
H11 H 0.6350 0.0739 0.3683
C18 C 1.4596(4) 0.7784(3) 0.2734(3)
H12 H 1.5512 0.8039 0.3197
C19 C 1.4293(4) 0.7296(3) 0.1648(3)
H13 H 1.5006 0.7246 0.1368
C20 C 0.5595(4) 0.1113(4) 0.2417(3)
H14 H 0.4946 0.0243 0.1966
C21 C 1.2348(4) 1.0451(4) 0.3113(3)
H15 H 1.2378 0.9959 0.2478
C22 C 0.2354(4) 0.4030(4) 0.1819(3)
H16 H 0.1831 0.4095 0.2275
C23 C 1.2956(5) 1.2560(4) 0.4406(3)
H17 H 1.3394 1.3478 0.4658
C24 C 1.3021(6) 1.1816(4) 0.3469(4)
H18 H 1.3511 1.2230 0.3086
Co1A Co 0.30883(4) 0.50576(4) -0.21363(3)
Co1A_2 Co 1.30883(4) 0.50576(4) -0.21363(3)
Co1A_3 Co 1.30883(4) 1.50576(4) 0.78637(3)
Co2A Co -0.04700(4) 0.22956(4) -0.30877(3)
Co2A_2 Co 0.95300(4) 0.22956(4) 0.69123(3)
Co2A_3 Co 0.95300(4) 1.22956(4) 0.69123(3)
O2A O 0.8984(2) 0.8022(2) 0.38055(18)
O3A O 0.9420(2) 0.7525(2) 0.15823(17)
O4A O 0.6611(2) 0.3693(2) 0.06142(17)
O5A O 1.1610(3) 0.7823(2) 0.45391(17)
O6A O 0.7138(2) 0.6135(2) 0.36073(17)
O7A O 0.7144(2) 0.6397(2) 0.15027(18)
loop_
_geom_bond_atom_site_label_1
_geom_bond_atom_site_label_2
_geom_bond_site_symmetry_1
_geom_bond_site_symmetry_2
Co1 O1 1_555 1_555
Co2 O1 1_555 1_555
O1 H1 1_555 1_555
H2 O1 1_555 1_555
O2 C14 1_555 1_555
O3 C16 1_555 1_555
O4 C11 1_555 1_555
O5 C8 1_555 1_555
O6 C14 1_555 1_555
O7 C16 1_555 1_555
N1 Co1 1_555 1_555
N2 Co2 1_555 1_555
N3 Co1 1_555 1_555
N4 Co2 1_555 1_555
O8 C8 1_555 1_555
C1 N4 1_555 1_555
H3 C1 1_555 1_555
C2 N2 1_555 1_555
H4 C2 1_555 1_555
C3 N1 1_555 1_555
H5 C3 1_555 1_555
C4 N2 1_555 1_555
H6 C4 1_555 1_555
C5 C2 1_555 1_555
C6 N3 1_555 1_555
H7 C6 1_555 1_555
C7 C1 1_555 1_555
C8 C15 1_555 1_555
O9 C11 1_555 1_555
C9 N1 1_555 1_555
H8 C9 1_555 1_555
C10 N3 1_555 1_555
H9 C10 1_555 1_555
C11 C5 1_555 1_555
C12 H10 1_555 1_555
C13 C6 1_555 1_555
C14 C7 1_555 1_555
C15 C3 1_555 1_555
C16 C13 1_555 1_555
C17 C15 1_555 1_555
H11 C17 1_555 1_555
C18 C4 1_555 1_555
H12 C18 1_555 1_555
C19 C5 1_555 1_555
H13 C19 1_555 1_555
C20 C9 1_555 1_555
H14 C20 1_555 1_555
C21 N4 1_555 1_555
H15 C21 1_555 1_555
C22 C10 1_555 1_555
H16 C22 1_555 1_555
C23 C7 1_555 1_555
H17 C23 1_555 1_555
C24 C21 1_555 1_555
H18 C24 1_555 1_555
Co1A O7 1_555 1_555
Co1A_2 O4 1_555 1_555
Co1A_3 O6 1_555 1_555
Co2A O3 1_555 1_555
Co2A_2 O5 1_555 1_555
Co2A_3 O2 1_555 1_555
O2A Co2 1_555 1_555
O3A Co2 1_555 1_555
O4A Co1 1_555 1_555
O5A Co2 1_555 1_555
O6A Co1 1_555 1_555
O7A Co1 1_555 1_555
C12 C13 1_555 1_555
C12 C22 1_555 1_555
C17 C20 1_555 1_555
C18 C19 1_555 1_555
C23 C24 1_555 1_555

#END
