
#######################################################################
#
#                 Cambridge Crystallographic Data Centre
#                                CCDC 
#
#######################################################################
#
# If this CIF has been generated from an entry in the Cambridge 
# Structural Database, then it will include bibliographic, chemical, 
# crystal, experimental, refinement or atomic coordinate data resulting 
# from the CCDC's data processing and validation procedures.
#
#######################################################################

data_WOPXAA01
_symmetry_cell_setting           orthorhombic
_symmetry_space_group_name_H-M   'P b c a'
_symmetry_Int_Tables_number      61
_space_group_name_Hall           '-P 2ac 2ab'
loop_
_symmetry_equiv_pos_site_id
_symmetry_equiv_pos_as_xyz
1 x,y,z
2 1/2+x,y,1/2-z
3 x,1/2-y,1/2+z
4 1/2-x,1/2+y,z
5 -x,-y,-z
6 1/2-x,-y,1/2+z
7 -x,1/2+y,1/2-z
8 1/2+x,1/2-y,-z
_cell_length_a                   7.566(16)
_cell_length_b                   7.39(2)
_cell_length_c                   14.04(3)
_cell_angle_alpha                90
_cell_angle_beta                 90
_cell_angle_gamma                90
_cell_volume                     785.015
loop_
_atom_site_label
_atom_site_type_symbol
_atom_site_fract_x
_atom_site_fract_y
_atom_site_fract_z
Mo1 Mo 0.53153(8) 0.04406(8) 0.72799(5)
N1 N 0.5163(10) 0.0231(9) 0.9018(5)
O1 O 0.7602(9) 0.0276(13) 0.7470(4)
O2 O 0.5002(13) 0.2812(8) 0.7518(5)
O3 O 0.5142(7) 0.0367(8) 0.6086(4)
C1 C 0.6160(12) -0.0961(11) 0.9494(6)
H1 H 0.6982 -0.1651 0.9162
C2 C 0.3998(11) 0.1193(11) 0.9540(6)
H2 H 0.3281 0.2038 0.9237
C2D C 0.6002(11) -0.1193(11) 1.0460(6)
N1D N 0.4837(10) -0.0231(9) 1.0982(5)
C1D C 0.3840(12) 0.0961(11) 1.0506(6)
H1D H 0.3018 0.1651 1.0838
H2D H 0.6719 -0.2038 1.0763
O1A O 0.2602(9) 0.0276(13) 0.7530(4)
O2F O 0.4998(13) -0.2188(8) 0.7482(5)
Mo1D Mo 0.46847(8) -0.04406(8) 1.27201(5)
O3D O 0.4858(7) -0.0367(8) 1.3914(4)
Mo1A Mo 1.03153(8) 0.04406(8) 0.77201(5)
Mo1F Mo 0.46847(8) 0.54406(8) 0.77201(5)
Mo1A_2 Mo 0.03153(8) 0.04406(8) 0.77201(5)
Mo1F_2 Mo 0.46847(8) -0.45594(8) 0.77201(5)
O1D O 0.2398(9) -0.0276(13) 1.2530(4)
O1E O 0.7398(9) -0.0276(13) 1.2470(4)
O2B O 0.5002(13) 0.2188(8) 1.2518(5)
O2D O 0.4998(13) -0.2812(8) 1.2482(5)
loop_
_geom_bond_atom_site_label_1
_geom_bond_atom_site_label_2
_geom_bond_site_symmetry_1
_geom_bond_site_symmetry_2
Mo1 N1 1_555 1_555
N1 C1 1_555 1_555
O1 Mo1 1_555 1_555
O2 Mo1 1_555 1_555
O3 Mo1 1_555 1_555
C1 H1 1_555 1_555
C2 N1 1_555 1_555
H2 C2 1_555 1_555
C2D C1 1_555 1_555
N1D C2D 1_555 1_555
C1D C2 1_555 1_555
H1D C1D 1_555 1_555
H2D C2D 1_555 1_555
O1A Mo1 1_555 1_555
O2F Mo1 1_555 1_555
Mo1D N1D 1_555 1_555
O3D Mo1D 1_555 1_555
Mo1A O1 1_555 1_555
Mo1F O2 1_555 1_555
Mo1A_2 O1A 1_555 1_555
Mo1F_2 O2F 1_555 1_555
O1D Mo1D 1_555 1_555
O1E Mo1D 1_555 1_555
O2B Mo1D 1_555 1_555
O2D Mo1D 1_555 1_555
N1D C1D 1_555 1_555

#END
