
#######################################################################
#
#                 Cambridge Crystallographic Data Centre
#                                CCDC 
#
#######################################################################
#
# If this CIF has been generated from an entry in the Cambridge 
# Structural Database, then it will include bibliographic, chemical, 
# crystal, experimental, refinement or atomic coordinate data resulting 
# from the CCDC's data processing and validation procedures.
#
#######################################################################

data_WOPXEE01
_symmetry_cell_setting           triclinic
_symmetry_space_group_name_H-M   'P -1'
_symmetry_Int_Tables_number      2
_space_group_name_Hall           '-P 1'
loop_
_symmetry_equiv_pos_site_id
_symmetry_equiv_pos_as_xyz
1 x,y,z
2 -x,-y,-z
_cell_length_a                   5.5765(8)
_cell_length_b                   6.8304(10)
_cell_length_c                   9.2379(14)
_cell_angle_alpha                100.688(2)
_cell_angle_beta                 101.462(3)
_cell_angle_gamma                112.624(2)
_cell_volume                     304.683
loop_
_atom_site_label
_atom_site_type_symbol
_atom_site_fract_x
_atom_site_fract_y
_atom_site_fract_z
Cu1 Cu 0.44129(9) 0.88437(8) 0.11945(5)
Mo1 Mo -0.30193(6) 0.66173(5) -0.11073(4)
O1 O -0.2196(7) 0.6974(5) -0.2760(4)
O2 O -0.0015(6) 0.7584(5) 0.0360(4)
O3 O 0.4935(5) 1.1737(4) 0.0818(3)
O4 O 0.5023(6) 0.6291(4) 0.1463(3)
N1 N 0.4489(7) 0.9874(5) 0.3372(4)
H1 H 0.403 1.103 0.344
C1 C 0.2558(9) 0.8244(8) 0.3920(5)
H2 H 0.2954 0.6972 0.3860
H3 H 0.0725 0.7739 0.3257
C2 C 0.7279(8) 1.0773(8) 0.4429(5)
H4 H 0.8514 1.1909 0.4088
H5 H 0.7853 0.9597 0.4389
Cu1A Cu 0.55871(9) 1.11563(8) -0.11945(5)
Cu1A_2 Cu 0.55871(9) 1.11563(8) 0.88055(5)
Cu1_2 Cu -0.55871(9) 0.88437(8) 0.11945(5)
Cu1A_3 Cu -0.44129(9) 1.11563(8) -0.11945(5)
Cu1_3 Cu 0.44129(9) 1.88437(8) 0.11945(5)
Mo1A Mo 0.30193(6) 1.33827(5) 0.11073(4)
Mo1A_2 Mo 0.30193(6) 0.33827(5) 0.11073(4)
O1A O 0.2196(7) 1.3026(5) 0.2760(4)
O2A O 0.0015(6) 1.2416(5) -0.0360(4)
O3A O 0.5065(5) 0.8263(4) -0.0818(3)
O3A_2 O -0.4935(5) 0.8263(4) -0.0818(3)
O3_2 O -0.5065(5) 1.1737(4) 0.0818(3)
O4A O -0.5023(6) 0.3709(4) -0.1463(3)
O4_2 O 0.5023(6) 1.6291(4) 0.1463(3)
O4A_2 O -0.5023(6) 1.3709(4) -0.1463(3)
N1A N 0.5511(7) 1.0126(5) 0.6628(4)
N1A_2 N -0.4489(7) 1.0126(5) -0.3372(4)
H1A H 0.597 0.897 0.656
H1A_2 H -0.403 0.897 -0.344
C1A C 0.7442(9) 1.1756(8) 0.6080(5)
H2A H 0.7046 1.3028 0.6140
H3A H 0.9275 1.2261 0.6743
C2A C 0.2721(8) 0.9227(8) 0.5571(5)
H4A H 0.1486 0.8091 0.5912
H5A H 0.2147 1.0403 0.5611
loop_
_geom_bond_atom_site_label_1
_geom_bond_atom_site_label_2
_geom_bond_site_symmetry_1
_geom_bond_site_symmetry_2
Cu1 O2 1_555 1_555
Mo1 O1 1_555 1_555
O2 Mo1 1_555 1_555
O3 Cu1 1_555 1_555
O4 Cu1 1_555 1_555
N1 Cu1 1_555 1_555
H1 N1 1_555 1_555
C1 N1 1_555 1_555
H2 C1 1_555 1_555
H3 C1 1_555 1_555
C2 N1 1_555 1_555
H4 C2 1_555 1_555
H5 C2 1_555 1_555
Cu1A O3 1_555 1_555
Cu1A_2 N1A 1_555 1_555
Cu1_2 O3A_2 1_555 1_555
Cu1A_3 O2A 1_555 1_555
Cu1_3 O4_2 1_555 1_555
Mo1A O3 1_555 1_555
Mo1A_2 O4 1_555 1_555
O1A Mo1A 1_555 1_555
O2A Mo1A 1_555 1_555
O3A Cu1 1_555 1_555
O3A_2 Mo1 1_555 1_555
O3_2 Cu1_2 1_555 1_555
O4A Mo1 1_555 1_555
O4_2 Mo1A 1_555 1_555
O4A_2 Cu1A_3 1_555 1_555
N1A H1A 1_555 1_555
N1A_2 Cu1A_3 1_555 1_555
H1A_2 N1A_2 1_555 1_555
C1A C2 1_555 1_555
H2A C1A 1_555 1_555
H3A C1A 1_555 1_555
C2A C1 1_555 1_555
H4A C2A 1_555 1_555
H5A C2A 1_555 1_555
Cu1A O3A 1_555 1_555
Cu1A_3 O3A_2 1_555 1_555
Cu1A_3 O3_2 1_555 1_555
N1A C1A 1_555 1_555
N1A C2A 1_555 1_555

#END
