
#######################################################################
#
#                 Cambridge Crystallographic Data Centre
#                                CCDC 
#
#######################################################################
#
# If this CIF has been generated from an entry in the Cambridge 
# Structural Database, then it will include bibliographic, chemical, 
# crystal, experimental, refinement or atomic coordinate data resulting 
# from the CCDC's data processing and validation procedures.
#
#######################################################################

data_WOQCOV
_symmetry_cell_setting           monoclinic
_symmetry_space_group_name_H-M   'C 2/c'
_symmetry_Int_Tables_number      15
_space_group_name_Hall           '-C 2yn'
loop_
_symmetry_equiv_pos_site_id
_symmetry_equiv_pos_as_xyz
1 x,y,z
2 1/2+x,1/2+y,z
3 -x,y,1/2-z
4 1/2-x,1/2+y,1/2-z
5 -x,-y,-z
6 1/2-x,1/2-y,-z
7 x,-y,1/2+z
8 1/2+x,1/2-y,1/2+z
_cell_length_a                   22.736(4)
_cell_length_b                   10.4198(11)
_cell_length_c                   17.935(3)
_cell_angle_alpha                90
_cell_angle_beta                 126.980(11)
_cell_angle_gamma                90
_cell_volume                     3394.2
loop_
_atom_site_label
_atom_site_type_symbol
_atom_site_fract_x
_atom_site_fract_y
_atom_site_fract_z
Fe1 Fe 0.50000 0.50000 0.00000
O1 O 0.49006(11) 0.3059(2) 0.01714(15)
N1 N 0.31470(12) 0.5066(2) 0.01258(16)
N2 N 0.30266(13) 0.6257(2) -0.02530(17)
N3 N 0.39722(13) 0.5283(2) -0.01120(16)
N4 N 0.34387(12) 0.5492(2) 0.20120(17)
N5 N 0.40507(14) 0.5951(3) 0.21202(18)
N6 N 0.43341(13) 0.5303(2) 0.34994(16)
C1 C 0.35360(15) 0.6342(3) -0.0380(2)
C2 C 0.36980(15) 0.4511(3) 0.0193(2)
C3 C 0.27033(15) 0.4589(3) 0.0414(2)
C4 C 0.45635(16) 0.5812(3) 0.3020(2)
C5 C 0.36183(16) 0.5119(3) 0.2835(2)
C6 C 0.27304(15) 0.5487(3) 0.1103(2)
H1 H 0.4562(17) 0.261(4) -0.020(3)
H2 H 0.5226(18) 0.265(4) 0.060(2)
H3 H 0.35950 0.70650 -0.06320
H4 H 0.38700 0.36880 0.04240
H5 H 0.50510 0.60470 0.33090
H6 H 0.32910 0.47800 0.29320
H7 H 0.28830 0.37500 0.06990
H8 H 0.21960 0.44930 -0.01330
H9 H 0.26160 0.63510 0.08520
H10 H 0.23550 0.52300 0.11720
Fe1F Fe 0.50000 0.50000 0.50000
O1D O 0.50994(11) 0.6941(2) -0.01714(15)
N1B N 0.68530(12) 0.5066(2) 0.48742(16)
N2B N 0.69734(13) 0.6257(2) 0.52530(17)
N3B N 0.60278(13) 0.5283(2) 0.51120(16)
N3D N 0.60278(13) 0.4717(2) 0.01120(16)
N4B N 0.65613(12) 0.5492(2) 0.29880(17)
N5B N 0.59493(14) 0.5951(3) 0.28798(18)
N6B N 0.56659(13) 0.5303(2) 0.15006(16)
N6F N 0.43341(13) 0.4697(2) -0.15006(16)
C1B C 0.64640(15) 0.6342(3) 0.5380(2)
C2B C 0.63020(15) 0.4511(3) 0.4807(2)
C3B C 0.72967(15) 0.4589(3) 0.4586(2)
C4B C 0.54365(16) 0.5812(3) 0.1980(2)
C5B C 0.63817(16) 0.5119(3) 0.2165(2)
C6B C 0.72696(15) 0.5487(3) 0.3897(2)
H1D H 0.5438(17) 0.739(4) 0.020(3)
H2D H 0.4774(18) 0.735(4) -0.060(2)
H3B H 0.64050 0.70650 0.56320
H4B H 0.61300 0.36880 0.45760
H5B H 0.49490 0.60470 0.16910
H6B H 0.67090 0.47800 0.20680
H7B H 0.71170 0.37500 0.43010
H8B H 0.78040 0.44930 0.51330
H9B H 0.73840 0.63510 0.41480
H10B H 0.76450 0.52300 0.38280
S1 S 0.17167(4) 0.63458(7) 0.24855(5)
O2 O 0.11442(12) 0.6988(3) 0.16324(17)
O3 O 0.20160(13) 0.5252(2) 0.23214(18)
O4 O 0.22770(13) 0.7227(2) 0.31698(17)
C7 C 0.12946(14) 0.5744(3) 0.29762(19)
C8 C 0.09872(15) 0.6614(3) 0.3243(2)
C9 C 0.06726(15) 0.6182(3) 0.3659(2)
C10 C 0.06573(15) 0.4888(3) 0.3815(2)
C11 C 0.09586(16) 0.4034(3) 0.3534(2)
C12 C 0.12760(16) 0.4455(3) 0.3119(2)
C13 C 0.03218(17) 0.4418(3) 0.4277(2)
H11 H 0.09940 0.74880 0.31420
H12 H 0.04690 0.67690 0.38360
H13 H 0.09470 0.31590 0.36270
H14 H 0.14760 0.38680 0.29370
H15 H 0.06890 0.44200 0.49420
H16 H 0.01390 0.35620 0.40700
H17 H -0.00760 0.49740 0.41150
O5 O 0.13398(14) 0.3124(3) 0.1133(2)
H18 H 0.148(2) 0.376(3) 0.144(3)
H19 H 0.1713(16) 0.276(4) 0.133(3)
loop_
_geom_bond_atom_site_label_1
_geom_bond_atom_site_label_2
_geom_bond_site_symmetry_1
_geom_bond_site_symmetry_2
Fe1 O1 1_555 1_555
O1 H1 1_555 1_555
N1 N2 1_555 1_555
N2 C1 1_555 1_555
N3 Fe1 1_555 1_555
N4 N5 1_555 1_555
N5 C4 1_555 1_555
N6 C4 1_555 1_555
C1 N3 1_555 1_555
C2 N1 1_555 1_555
C3 N1 1_555 1_555
C4 H5 1_555 1_555
C5 N4 1_555 1_555
C6 N4 1_555 1_555
S1 O2 1_555 1_555
O3 S1 1_555 1_555
O4 S1 1_555 1_555
C7 S1 1_555 1_555
C8 C7 1_555 1_555
C9 C8 1_555 1_555
C10 C9 1_555 1_555
C11 C10 1_555 1_555
C12 C7 1_555 1_555
C13 C10 1_555 1_555
O5 H18 1_555 1_555
H2 O1 1_555 1_555
H3 C1 1_555 1_555
H4 C2 1_555 1_555
H6 C5 1_555 1_555
H7 C3 1_555 1_555
H8 C3 1_555 1_555
H9 C6 1_555 1_555
H10 C6 1_555 1_555
H11 C8 1_555 1_555
H12 C9 1_555 1_555
H13 C11 1_555 1_555
H14 C12 1_555 1_555
H15 C13 1_555 1_555
H16 C13 1_555 1_555
H17 C13 1_555 1_555
H19 O5 1_555 1_555
Fe1F N6 1_555 1_555
O1D Fe1 1_555 1_555
N1B N2B 1_555 1_555
N2B C1B 1_555 1_555
N3B Fe1F 1_555 1_555
N3D Fe1 1_555 1_555
N4B N5B 1_555 1_555
N5B C4B 1_555 1_555
N6B Fe1 1_555 1_555
N6F Fe1 1_555 1_555
C1B N3B 1_555 1_555
C2B N1B 1_555 1_555
C3B N1B 1_555 1_555
C4B N6B 1_555 1_555
C5B N4B 1_555 1_555
C6B N4B 1_555 1_555
H1D O1D 1_555 1_555
H2D O1D 1_555 1_555
H3B C1B 1_555 1_555
H4B C2B 1_555 1_555
H5B C4B 1_555 1_555
H6B C5B 1_555 1_555
H7B C3B 1_555 1_555
H8B C3B 1_555 1_555
H9B C6B 1_555 1_555
H10B C6B 1_555 1_555
N3 C2 1_555 1_555
N6 C5 1_555 1_555
C3 C6 1_555 1_555
C11 C12 1_555 1_555
N3B C2B 1_555 1_555
N6B C5B 1_555 1_555
C3B C6B 1_555 1_555

#END
