
#######################################################################
#
#                 Cambridge Crystallographic Data Centre
#                                CCDC 
#
#######################################################################
#
# If this CIF has been generated from an entry in the Cambridge 
# Structural Database, then it will include bibliographic, chemical, 
# crystal, experimental, refinement or atomic coordinate data resulting 
# from the CCDC's data processing and validation procedures.
#
#######################################################################

data_WOQDOV
_symmetry_cell_setting           monoclinic
_symmetry_space_group_name_H-M   'P 21/c'
_symmetry_Int_Tables_number      14
_space_group_name_Hall           '-P 2ybc'
loop_
_symmetry_equiv_pos_site_id
_symmetry_equiv_pos_as_xyz
1 x,y,z
2 -x,1/2+y,1/2-z
3 -x,-y,-z
4 x,1/2-y,1/2+z
_cell_length_a                   13.664(1)
_cell_length_b                   5.4609(4)
_cell_length_c                   14.165(1)
_cell_angle_alpha                90
_cell_angle_beta                 96.395(1)
_cell_angle_gamma                90
_cell_volume                     1050.38
loop_
_atom_site_label
_atom_site_type_symbol
_atom_site_fract_x
_atom_site_fract_y
_atom_site_fract_z
Cu1 Cu 0.02263(3) -0.78583(7) -0.42749(3)
N1 N -0.0715(3) -0.5728(6) -0.36883(19)
N2 N -0.0689(2) -0.5535(5) -0.28537(19)
N3 N -0.0700(3) -0.5330(6) -0.2039(2)
N4 N 0.0888(2) -0.9945(6) -0.5176(2)
N5 N 0.1614(3) -0.9485(6) -0.5554(2)
N6 N 0.2296(3) -0.9039(9) -0.5905(3)
N7 N 0.1314(2) -0.5367(5) -0.40935(19)
H1 H 0.1467 -0.4917 -0.4671
H2 H 0.1081 -0.4031 -0.3821
C1 C 0.2233(3) -0.6133(8) -0.3516(3)
H3 H 0.2459 -0.7663 -0.3764
H4 H 0.2097 -0.6418 -0.2867
C2 C 0.3038(4) -0.4240(8) -0.3518(3)
C3 C 0.3601(5) -0.4128(11) -0.4255(5)
H5 H 0.3484 -0.5227 -0.4756
C4 C 0.4340(5) -0.2408(14) -0.4267(6)
H6 H 0.4724 -0.2370 -0.4770
C5 C 0.4510(5) -0.0759(13) -0.3540(6)
H7 H 0.5001 0.0418 -0.3554
C6 C 0.3968(5) -0.0840(11) -0.2807(5)
H8 H 0.4091 0.0272 -0.2311
C7 C 0.3218(4) -0.2582(9) -0.2781(4)
H9 H 0.2844 -0.2623 -0.2271
N3A N 0.0700(3) -1.0330(6) -0.2961(2)
Cu1A Cu -0.02263(3) -0.28583(7) -0.07251(3)
Cu1B Cu -0.02263(3) -1.21417(7) -0.57251(3)
N4B N -0.0888(2) -1.0055(6) -0.4824(2)
loop_
_geom_bond_atom_site_label_1
_geom_bond_atom_site_label_2
_geom_bond_site_symmetry_1
_geom_bond_site_symmetry_2
Cu1 N1 1_555 1_555
N1 N2 1_555 1_555
N2 N3 1_555 1_555
N3 Cu1A 1_555 1_555
N4 Cu1 1_555 1_555
N5 N4 1_555 1_555
N6 N5 1_555 1_555
N7 Cu1 1_555 1_555
H1 N7 1_555 1_555
H2 N7 1_555 1_555
C1 N7 1_555 1_555
H3 C1 1_555 1_555
H4 C1 1_555 1_555
C2 C1 1_555 1_555
C3 C2 1_555 1_555
H5 C3 1_555 1_555
C4 C3 1_555 1_555
H6 C4 1_555 1_555
C5 C4 1_555 1_555
H7 C5 1_555 1_555
C6 C5 1_555 1_555
H8 C6 1_555 1_555
C7 C2 1_555 1_555
H9 C7 1_555 1_555
N3A Cu1 1_555 1_555
Cu1B N4 1_555 1_555
N4B Cu1 1_555 1_555
C6 C7 1_555 1_555
Cu1B N4B 1_555 1_555

#END
