
#######################################################################
#
#                 Cambridge Crystallographic Data Centre
#                                CCDC 
#
#######################################################################
#
# If this CIF has been generated from an entry in the Cambridge 
# Structural Database, then it will include bibliographic, chemical, 
# crystal, experimental, refinement or atomic coordinate data resulting 
# from the CCDC's data processing and validation procedures.
#
#######################################################################

data_WOQXOP01
_symmetry_cell_setting           triclinic
_symmetry_space_group_name_H-M   'P 1'
_symmetry_Int_Tables_number      1
_space_group_name_Hall           'P 1'
loop_
_symmetry_equiv_pos_site_id
_symmetry_equiv_pos_as_xyz
1 x,y,z
_cell_length_a                   10.0639(17)
_cell_length_b                   11.1658(16)
_cell_length_c                   14.692(2)
_cell_angle_alpha                108.035(12)
_cell_angle_beta                 90.028(13)
_cell_angle_gamma                116.787(13)
_cell_volume                     1382.19
loop_
_atom_site_label
_atom_site_type_symbol
_atom_site_fract_x
_atom_site_fract_y
_atom_site_fract_z
Mn1 Mn -0.00015(12) -0.00124(12) -0.00152(9)
N1 N -0.2324(11) -0.1387(11) -0.1036(7)
C1 C -0.2380(14) -0.1790(14) -0.1979(8)
H1 H -0.1496 -0.1437 -0.2235
C2 C -0.3714(15) -0.2719(14) -0.2587(8)
H2 H -0.3723 -0.2970 -0.3254
C3 C -0.5051(11) -0.3300(12) -0.2249(8)
C4 C -0.4954(13) -0.2842(14) -0.1279(9)
H3 H -0.5815 -0.3127 -0.0992
C5 C -0.3514(13) -0.1921(13) -0.0709(8)
H4 H -0.3445 -0.1694 -0.0040
C6 C -0.6527(11) -0.4299(10) -0.2976(8)
C7 C -0.7263(12) -0.3527(12) -0.3244(7)
C8 C -0.7743(13) -0.2680(13) -0.2505(10)
C9 C -0.8659(16) -0.3249(14) -0.1780(9)
H5 H -0.8850 -0.4144 -0.1778
C10 C -0.9203(15) -0.2520(13) -0.1144(10)
H6 H -0.9797 -0.2960 -0.0741
C11 C -0.8115(19) -0.0635(14) -0.1650(10)
H7 H -0.7958 0.0266 -0.1615
C12 C -0.7446(15) -0.1255(12) -0.2332(10)
H8 H -0.6799 -0.0731 -0.2678
N2 N -0.8958(11) -0.1190(11) -0.1038(8)
N3 N -0.0918(11) 0.1334(10) 0.1024(7)
C13 C -0.0555(14) 0.1816(16) 0.1992(10)
H9 H 0.0032 0.1515 0.2251
C14 C -0.0982(13) 0.2723(13) 0.2636(8)
H10 H -0.0743 0.2970 0.3302
C15 C -0.1787(11) 0.3266(10) 0.2261(6)
C16 C -0.2120(15) 0.2874(15) 0.1296(10)
H11 H -0.2655 0.3207 0.1021
C17 C -0.1604(14) 0.1894(12) 0.0691(7)
H12 H -0.1782 0.1660 0.0022
C18 C -0.2196(13) 0.4313(11) 0.2988(9)
C19 C -0.3766(11) 0.3368(14) 0.3266(8)
C20 C -0.5081(13) 0.2650(13) 0.2477(9)
C21 C -0.6175(14) 0.1276(12) 0.2351(9)
H13 H -0.6046 0.0805 0.2739
C22 C -0.7463(14) 0.0581(13) 0.1657(8)
H14 H -0.8145 -0.0355 0.1592
C23 C -0.6774(14) 0.2455(14) 0.1169(9)
H15 H -0.6965 0.2896 0.0780
C24 C -0.5363(14) 0.3253(14) 0.1840(10)
H16 H -0.4653 0.4153 0.1850
N4 N -0.7801(11) 0.1152(10) 0.1073(7)
N5 N 0.0762(14) 0.1599(12) -0.0686(9)
C25 C 0.0949(13) 0.2675(14) -0.0737(8)
S1 S 0.1268(5) 0.4221(4) -0.0749(3)
N6 N -0.0858(12) -0.1586(11) 0.0734(8)
C26 C -0.1761(13) -0.2733(13) 0.0736(8)
S2 S -0.3003(4) -0.4261(4) 0.0738(3)
N2_2 N 0.1042(11) -0.1190(11) -0.1038(8)
N4_2 N 0.2199(11) 0.1152(10) 0.1073(7)
Mn1_2 Mn -1.00015(12) -0.00124(12) -0.00152(9)
Mn2 Mn -0.01012(12) -0.00131(13) -0.50141(9)
N7 N 0.2141(11) 0.1362(10) -0.3995(6)
C27 C 0.3544(13) 0.1952(15) -0.4338(8)
H17 H 0.3534 0.1671 -0.5005
C28 C 0.4881(13) 0.2894(14) -0.3750(9)
H18 H 0.5739 0.3300 -0.4018
C29 C 0.4993(15) 0.3273(13) -0.2722(9)
C30 C 0.3654(15) 0.2735(15) -0.2347(9)
H19 H 0.3657 0.3004 -0.1681
C31 C 0.2298(14) 0.1774(15) -0.3008(10)
H20 H 0.1428 0.1384 -0.2745
C32 C 0.6516(14) 0.4344(12) -0.2117(8)
C33 C 0.7076(16) 0.3368(15) -0.1704(10)
C34 C 0.7694(11) 0.2632(12) -0.2574(7)
C35 C 0.7399(18) 0.1290(16) -0.2666(11)
H21 H 0.6830 0.0858 -0.2252
C36 C 0.7931(14) 0.0557(12) -0.3366(10)
H22 H 0.7649 -0.0391 -0.3449
C37 C 0.9121(14) 0.2483(13) -0.3816(10)
H23 H 0.9730 0.2941 -0.4206
C38 C 0.8517(18) 0.3233(15) -0.3110(10)
H24 H 0.8735 0.4159 -0.3050
N8 N 0.8842(11) 0.1172(10) -0.3929(7)
N9 N 0.0804(12) -0.1415(11) -0.6021(8)
C39 C 0.0545(14) -0.1765(13) -0.6982(7)
H25 H 0.0091 -0.1351 -0.7240
C40 C 0.0929(14) -0.2718(15) -0.7599(9)
H26 H 0.0671 -0.2974 -0.8264
C41 C 0.1683(11) -0.3313(12) -0.7270(9)
C42 C 0.1970(13) -0.2876(13) -0.6239(8)
H27 H 0.2443 -0.3258 -0.5960
C43 C 0.1597(16) -0.1968(17) -0.5676(9)
H28 H 0.1876 -0.1674 -0.5009
C44 C 0.2192(11) -0.4314(13) -0.7895(8)
C45 C 0.3676(13) -0.3557(13) -0.8268(8)
C46 C 0.5063(11) -0.2658(12) -0.7442(8)
C47 C 0.6120(14) -0.1263(15) -0.7309(12)
H29 H 0.5974 -0.0786 -0.7685
C48 C 0.7377(17) -0.0593(15) -0.6622(13)
H30 H 0.8092 0.0334 -0.6556
C49 C 0.6563(13) -0.2538(12) -0.6161(9)
H31 H 0.6695 -0.2989 -0.5758
C50 C 0.5340(15) -0.3238(13) -0.6819(9)
H32 H 0.4640 -0.4160 -0.6863
N10 N 0.7631(11) -0.1204(11) -0.6040(8)
N11 N -0.0797(12) -0.1601(12) -0.4264(8)
C51 C -0.1035(12) -0.2707(12) -0.4271(8)
S3 S -0.1328(4) -0.4250(4) -0.4251(3)
N12 N 0.0787(13) 0.1615(13) -0.5692(8)
C52 C 0.1628(13) 0.2653(13) -0.5734(8)
S4 S 0.2874(5) 0.4210(4) -0.5760(3)
N8_2 N -0.1158(11) 0.1172(10) -0.3929(7)
N10_2 N -0.2369(11) -0.1204(11) -0.6040(8)
Mn2_2 Mn 0.98988(12) -0.00131(13) -0.50141(9)
loop_
_geom_bond_atom_site_label_1
_geom_bond_atom_site_label_2
_geom_bond_site_symmetry_1
_geom_bond_site_symmetry_2
Mn1 N1 1_555 1_555
N1 C1 1_555 1_555
C1 H1 1_555 1_555
C2 C1 1_555 1_555
H2 C2 1_555 1_555
C3 C2 1_555 1_555
C4 C3 1_555 1_555
H3 C4 1_555 1_555
C5 N1 1_555 1_555
H4 C5 1_555 1_555
C6 C3 1_555 1_555
C7 C6 1_555 1_555
C8 C7 1_555 1_555
C9 C8 1_555 1_555
H5 C9 1_555 1_555
C10 C9 1_555 1_555
H6 C10 1_555 1_555
C11 H7 1_555 1_555
C12 C8 1_555 1_555
H8 C12 1_555 1_555
N2 C10 1_555 1_555
N3 Mn1 1_555 1_555
C13 N3 1_555 1_555
H9 C13 1_555 1_555
C14 C13 1_555 1_555
H10 C14 1_555 1_555
C15 C14 1_555 1_555
C16 C15 1_555 1_555
H11 C16 1_555 1_555
C17 N3 1_555 1_555
H12 C17 1_555 1_555
C18 C15 1_555 1_555
C19 C18 1_555 1_555
C20 C19 1_555 1_555
C21 C20 1_555 1_555
H13 C21 1_555 1_555
C22 C21 1_555 1_555
H14 C22 1_555 1_555
C23 H15 1_555 1_555
C24 C20 1_555 1_555
H16 C24 1_555 1_555
N4 C22 1_555 1_555
N5 Mn1 1_555 1_555
C25 N5 1_555 1_555
S1 C25 1_555 1_555
N6 Mn1 1_555 1_555
C26 N6 1_555 1_555
S2 C26 1_555 1_555
Mn2 N7 1_555 1_555
N7 C27 1_555 1_555
C27 H17 1_555 1_555
C28 C27 1_555 1_555
H18 C28 1_555 1_555
C29 C28 1_555 1_555
C30 C29 1_555 1_555
H19 C30 1_555 1_555
C31 N7 1_555 1_555
H20 C31 1_555 1_555
C32 C29 1_555 1_555
C33 C32 1_555 1_555
C34 C33 1_555 1_555
C35 C34 1_555 1_555
H21 C35 1_555 1_555
C36 C35 1_555 1_555
H22 C36 1_555 1_555
C37 H23 1_555 1_555
C38 C34 1_555 1_555
H24 C38 1_555 1_555
N8 C36 1_555 1_555
N9 Mn2 1_555 1_555
C39 N9 1_555 1_555
H25 C39 1_555 1_555
C40 C39 1_555 1_555
H26 C40 1_555 1_555
C41 C40 1_555 1_555
C42 C41 1_555 1_555
H27 C42 1_555 1_555
C43 N9 1_555 1_555
H28 C43 1_555 1_555
C44 C41 1_555 1_555
C45 C44 1_555 1_555
C46 C45 1_555 1_555
C47 C46 1_555 1_555
H29 C47 1_555 1_555
C48 C47 1_555 1_555
H30 C48 1_555 1_555
C49 H31 1_555 1_555
C50 C46 1_555 1_555
H32 C50 1_555 1_555
N10 C48 1_555 1_555
N11 Mn2 1_555 1_555
C51 N11 1_555 1_555
S3 C51 1_555 1_555
N12 Mn2 1_555 1_555
C52 N12 1_555 1_555
S4 C52 1_555 1_555
N2_2 Mn1 1_555 1_555
N4_2 Mn1 1_555 1_555
Mn1_2 N2 1_555 1_555
N8_2 Mn2 1_555 1_555
N10_2 Mn2 1_555 1_555
Mn2_2 N8 1_555 1_555
C4 C5 1_555 1_555
C11 N2 1_555 1_555
C11 C12 1_555 1_555
C16 C17 1_555 1_555
C23 N4 1_555 1_555
C23 C24 1_555 1_555
N4 Mn1_2 1_555 1_555
C30 C31 1_555 1_555
C37 N8 1_555 1_555
C37 C38 1_555 1_555
C42 C43 1_555 1_555
C49 N10 1_555 1_555
C49 C50 1_555 1_555
N10 Mn2_2 1_555 1_555

#END
