
#######################################################################
#
#                 Cambridge Crystallographic Data Centre
#                                CCDC 
#
#######################################################################
#
# If this CIF has been generated from an entry in the Cambridge 
# Structural Database, then it will include bibliographic, chemical, 
# crystal, experimental, refinement or atomic coordinate data resulting 
# from the CCDC's data processing and validation procedures.
#
#######################################################################

data_WOQXUV
_symmetry_cell_setting           monoclinic
_symmetry_space_group_name_H-M   'P 21/n'
_symmetry_Int_Tables_number      14
_space_group_name_Hall           '-P 2yn'
loop_
_symmetry_equiv_pos_site_id
_symmetry_equiv_pos_as_xyz
1 x,y,z
2 1/2+x,1/2-y,1/2+z
3 -x,-y,-z
4 1/2-x,1/2+y,1/2-z
_cell_length_a                   8.9735(9)
_cell_length_b                   19.835(1)
_cell_length_c                   10.778(2)
_cell_angle_alpha                90
_cell_angle_beta                 112.29(1)
_cell_angle_gamma                90
_cell_volume                     1775.02
loop_
_atom_site_label
_atom_site_type_symbol
_atom_site_fract_x
_atom_site_fract_y
_atom_site_fract_z
O2 O 0.5739(5) -0.1220(2) 1.0125(4)
O3 O 0.5487(5) -0.2299(2) 1.0195(4)
O4 O 0.7254(5) -0.1761(2) 1.1851(4)
N3 N 0.6159(5) -0.1765(2) 1.0719(4)
O5 O 0.3113(5) -0.0475(2) 0.7441(4)
C11 C 0.282(1) 0.0041(4) 0.547(1)
C12 C 0.212(1) -0.0328(5) 0.620(1)
H9 H 0.1925 0.0107 0.4553
H10 H 0.3504 -0.0290 0.5293
H11 H 0.3248 0.0410 0.5820
H12 H 0.1543 -0.0682 0.5712
H13 H 0.1288 0.0019 0.6239
O6 O 0.8120(4) -0.3187(2) 1.2640(4)
Cd1 Cd 1.0000 0.0000 1.0000
S1 S 1.4133(1) -0.24060(5) 1.4705(1)
S2 S 1.6513(1) -0.23634(5) 1.5022(1)
O1 O 0.7800(3) -0.0139(1) 1.0714(3)
N1 N 1.1491(4) -0.0859(2) 1.1484(4)
N2 N 0.8784(4) -0.0808(2) 0.8327(3)
C1 C 1.3076(5) -0.0964(2) 1.1811(4)
C2 C 1.3960(5) -0.1420(2) 1.2758(4)
C3 C 1.3197(5) -0.1797(2) 1.3445(4)
C4 C 1.1551(5) -0.1703(2) 1.3085(5)
C5 C 1.0775(5) -0.1232(2) 1.2137(5)
C6 C 0.7178(5) -0.0895(2) 0.7803(4)
C7 C 0.6415(5) -0.1358(2) 0.6840(4)
C8 C 1.7321(5) -0.1749(2) 1.6299(4)
C9 C 1.8981(5) -0.1656(2) 1.6817(4)
C10 C 0.9637(5) -0.1194(2) 0.7826(5)
H1 H 1.3613 -0.0717 1.1304
H2 H 1.5093 -0.1479 1.2930
H3 H 1.0966 -0.1944 1.3562
H4 H 0.9673 -0.1139 1.1942
H5 H 0.6523 -0.0616 0.8154
H6 H 0.5293 -0.1424 0.6539
H7 H 1.9651 -0.1904 1.6434
H8 H 1.0783 -0.1114 0.8165
O1B O 1.2200(3) 0.0139(1) 0.9286(3)
C7_2 C 1.6415(5) -0.1358(2) 1.6840(4)
C6_2 C 1.7178(5) -0.0895(2) 1.7803(4)
N2_2 N 1.8784(4) -0.0808(2) 1.8327(3)
Cd1_2 Cd 2.0000 0.0000 2.0000
O1_2 O 1.7800(3) -0.0139(1) 2.0714(3)
O1B_2 O 2.2200(3) 0.0139(1) 1.9286(3)
N1_2 N 2.1491(4) -0.0859(2) 2.1484(4)
N1B N 1.8509(4) 0.0859(2) 1.8516(4)
C1B C 1.6924(5) 0.0964(2) 1.8189(4)
C2B C 1.6040(5) 0.1420(2) 1.7242(4)
C3B C 1.6803(5) 0.1797(2) 1.6555(4)
S1B S 1.5867(1) 0.24060(5) 1.5295(1)
S2B S 1.3487(1) 0.23634(5) 1.4978(1)
C8B C 1.2679(5) 0.1749(2) 1.3701(4)
C7B C 1.3585(5) 0.1358(2) 1.3160(4)
C6B C 1.2822(5) 0.0895(2) 1.2197(4)
N2B N 1.1216(4) 0.0808(2) 1.1673(3)
N1B_2 N 0.8509(4) 0.0859(2) 0.8516(4)
C10B C 1.0363(5) 0.1194(2) 1.2174(5)
C9B C 1.1019(5) 0.1656(2) 1.3183(4)
H7B H 1.0349 0.1904 1.3566
H8B H 0.9217 0.1114 1.1835
H5B H 1.3477 0.0616 1.1846
H6B H 1.4707 0.1424 1.3461
C4B C 1.8449(5) 0.1703(2) 1.6915(5)
C5B C 1.9225(5) 0.1232(2) 1.7863(5)
H4B H 2.0327 0.1139 1.8058
H3B H 1.9034 0.1944 1.6438
H2B H 1.4907 0.1479 1.7070
H1B H 1.6387 0.0717 1.8696
N2B_2 N 2.1216(4) 0.0808(2) 2.1673(3)
C10_2 C 1.9637(5) -0.1194(2) 1.7826(5)
H8_2 H 2.0783 -0.1114 1.8165
H5_2 H 1.6523 -0.0616 1.8154
H6_2 H 1.5293 -0.1424 1.6539
C8_2 C 0.7321(5) -0.1749(2) 0.6299(4)
C9_2 C 0.8981(5) -0.1656(2) 0.6817(4)
H7_2 H 0.9651 -0.1904 0.6434
S2_2 S 0.6513(1) -0.23634(5) 0.5022(1)
C1_2 C 2.3076(5) -0.0964(2) 2.1811(4)
C5_2 C 2.0775(5) -0.1232(2) 2.2137(5)
C1B_2 C 0.6924(5) 0.0964(2) 0.8189(4)
C5B_2 C 0.9225(5) 0.1232(2) 0.7863(5)
C6B_2 C 2.2822(5) 0.0895(2) 2.2197(4)
C10B_2 C 2.0363(5) 0.1194(2) 2.2174(5)
S1_2 S 0.4133(1) -0.24060(5) 0.4705(1)
C2_2 C 2.3960(5) -0.1420(2) 2.2758(4)
H1_2 H 2.3613 -0.0717 2.1304
C4_2 C 2.1551(5) -0.1703(2) 2.3085(5)
H4_2 H 1.9673 -0.1139 2.1942
C2B_2 C 0.6040(5) 0.1420(2) 0.7242(4)
H1B_2 H 0.6387 0.0717 0.8696
C4B_2 C 0.8449(5) 0.1703(2) 0.6915(5)
H4B_2 H 1.0327 0.1139 0.8058
C7B_2 C 2.3585(5) 0.1358(2) 2.3160(4)
H5B_2 H 2.3477 0.0616 2.1846
C9B_2 C 2.1019(5) 0.1656(2) 2.3183(4)
H8B_2 H 1.9217 0.1114 2.1835
C3_2 C 0.3197(5) -0.1797(2) 0.3445(4)
C3_3 C 2.3197(5) -0.1797(2) 2.3445(4)
H2_2 H 2.5093 -0.1479 2.2930
H3_2 H 2.0966 -0.1944 2.3562
C3B_2 C 0.6803(5) 0.1797(2) 0.6555(4)
H2B_2 H 0.4907 0.1479 0.7070
H3B_2 H 0.9034 0.1944 0.6438
C8B_2 C 2.2679(5) 0.1749(2) 2.3701(4)
H6B_2 H 2.4707 0.1424 2.3461
H7B_2 H 2.0349 0.1904 2.3566
C2_3 C 0.3960(5) -0.1420(2) 0.2758(4)
C4_3 C 0.1551(5) -0.1703(2) 0.3085(5)
S1_3 S 2.4133(1) -0.24060(5) 2.4705(1)
S1B_2 S 0.5867(1) 0.24060(5) 0.5295(1)
S2B_2 S 2.3487(1) 0.23634(5) 2.4978(1)
C1_3 C 0.3076(5) -0.0964(2) 0.1811(4)
H2_3 H 0.5093 -0.1479 0.2930
C5_3 C 0.0775(5) -0.1232(2) 0.2137(5)
H3_3 H 0.0966 -0.1944 0.3562
S2_3 S 2.6513(1) -0.23634(5) 2.5022(1)
S2B_3 S 0.3487(1) 0.23634(5) 0.4978(1)
S1B_3 S 2.5867(1) 0.24060(5) 2.5295(1)
N1_3 N 0.1491(4) -0.0859(2) 0.1484(4)
H1_3 H 0.3613 -0.0717 0.1304
H4_3 H -0.0327 -0.1139 0.1942
C8_3 C 2.7321(5) -0.1749(2) 2.6299(4)
C8B_3 C 0.2679(5) 0.1749(2) 0.3701(4)
C3B_3 C 2.6803(5) 0.1797(2) 2.6555(4)
Cd1_3 Cd 0.0000 0.0000 0.0000
C7_3 C 2.6415(5) -0.1358(2) 2.6840(4)
C9_3 C 2.8981(5) -0.1656(2) 2.6817(4)
C7B_3 C 0.3585(5) 0.1358(2) 0.3160(4)
C9B_3 C 0.1019(5) 0.1656(2) 0.3183(4)
C2B_3 C 2.6040(5) 0.1420(2) 2.7242(4)
C4B_3 C 2.8449(5) 0.1703(2) 2.6915(5)
O1_3 O -0.2200(3) -0.0139(1) 0.0714(3)
O1B_3 O 0.2200(3) 0.0139(1) -0.0714(3)
N1B_3 N -0.1491(4) 0.0859(2) -0.1484(4)
N2_3 N -0.1216(4) -0.0808(2) -0.1673(3)
N2B_3 N 0.1216(4) 0.0808(2) 0.1673(3)
loop_
_geom_bond_atom_site_label_1
_geom_bond_atom_site_label_2
_geom_bond_site_symmetry_1
_geom_bond_site_symmetry_2
Cd1 O1 1_555 1_555
S1 S2 1_555 1_555
S2 C8 1_555 1_555
O2 N3 1_555 1_555
O3 N3 1_555 1_555
O4 N3 1_555 1_555
O5 C12 1_555 1_555
N1 Cd1 1_555 1_555
N2 Cd1 1_555 1_555
C1 N1 1_555 1_555
C2 C1 1_555 1_555
C3 S1 1_555 1_555
C4 C3 1_555 1_555
C5 N1 1_555 1_555
C6 N2 1_555 1_555
C7 C6 1_555 1_555
C8 C9 1_555 1_555
C9 H7 1_555 1_555
C10 N2 1_555 1_555
C11 C12 1_555 1_555
C12 H12 1_555 1_555
H1 C1 1_555 1_555
H2 C2 1_555 1_555
H3 C4 1_555 1_555
H4 C5 1_555 1_555
H5 C6 1_555 1_555
H6 C7 1_555 1_555
H8 C10 1_555 1_555
H9 C11 1_555 1_555
H10 C11 1_555 1_555
H11 C11 1_555 1_555
H13 C12 1_555 1_555
O1B Cd1 1_555 1_555
C7_2 C8 1_555 1_555
C6_2 C7_2 1_555 1_555
N2_2 C6_2 1_555 1_555
Cd1_2 N2_2 1_555 1_555
O1_2 Cd1_2 1_555 1_555
O1B_2 Cd1_2 1_555 1_555
N1_2 Cd1_2 1_555 1_555
N1B Cd1_2 1_555 1_555
C1B N1B 1_555 1_555
C2B C1B 1_555 1_555
C3B C2B 1_555 1_555
S1B C3B 1_555 1_555
S2B S1B 1_555 1_555
C8B S2B 1_555 1_555
C7B C8B 1_555 1_555
C6B C7B 1_555 1_555
N2B Cd1 1_555 1_555
N1B_2 Cd1 1_555 1_555
C10B N2B 1_555 1_555
C9B C8B 1_555 1_555
H7B C9B 1_555 1_555
H8B C10B 1_555 1_555
H5B C6B 1_555 1_555
H6B C7B 1_555 1_555
C4B C3B 1_555 1_555
C5B N1B 1_555 1_555
H4B C5B 1_555 1_555
H3B C4B 1_555 1_555
H2B C2B 1_555 1_555
H1B C1B 1_555 1_555
N2B_2 Cd1_2 1_555 1_555
C10_2 C9 1_555 1_555
H8_2 C10_2 1_555 1_555
H5_2 C6_2 1_555 1_555
H6_2 C7_2 1_555 1_555
C8_2 C7 1_555 1_555
C9_2 C10 1_555 1_555
H7_2 C9_2 1_555 1_555
S2_2 C8_2 1_555 1_555
C1_2 N1_2 1_555 1_555
C5_2 N1_2 1_555 1_555
C1B_2 N1B_2 1_555 1_555
C5B_2 N1B_2 1_555 1_555
C6B_2 N2B_2 1_555 1_555
C10B_2 N2B_2 1_555 1_555
S1_2 S2_2 1_555 1_555
C2_2 C1_2 1_555 1_555
H1_2 C1_2 1_555 1_555
C4_2 C5_2 1_555 1_555
H4_2 C5_2 1_555 1_555
C2B_2 C1B_2 1_555 1_555
H1B_2 C1B_2 1_555 1_555
C4B_2 C5B_2 1_555 1_555
H4B_2 C5B_2 1_555 1_555
C7B_2 C6B_2 1_555 1_555
H5B_2 C6B_2 1_555 1_555
C9B_2 C10B_2 1_555 1_555
H8B_2 C10B_2 1_555 1_555
C3_2 S1_2 1_555 1_555
C3_3 C2_2 1_555 1_555
H2_2 C2_2 1_555 1_555
H3_2 C4_2 1_555 1_555
C3B_2 C2B_2 1_555 1_555
H2B_2 C2B_2 1_555 1_555
H3B_2 C4B_2 1_555 1_555
C8B_2 C7B_2 1_555 1_555
H6B_2 C7B_2 1_555 1_555
H7B_2 C9B_2 1_555 1_555
C2_3 C3_2 1_555 1_555
C4_3 C3_2 1_555 1_555
S1_3 C3_3 1_555 1_555
S1B_2 C3B_2 1_555 1_555
S2B_2 C8B_2 1_555 1_555
C1_3 C2_3 1_555 1_555
H2_3 C2_3 1_555 1_555
C5_3 C4_3 1_555 1_555
H3_3 C4_3 1_555 1_555
S2_3 S1_3 1_555 1_555
S2B_3 S1B_2 1_555 1_555
S1B_3 S2B_2 1_555 1_555
N1_3 C1_3 1_555 1_555
H1_3 C1_3 1_555 1_555
H4_3 C5_3 1_555 1_555
C8_3 S2_3 1_555 1_555
C8B_3 S2B_3 1_555 1_555
C3B_3 S1B_3 1_555 1_555
Cd1_3 N1_3 1_555 1_555
C7_3 C8_3 1_555 1_555
C9_3 C8_3 1_555 1_555
C7B_3 C8B_3 1_555 1_555
C9B_3 C8B_3 1_555 1_555
C2B_3 C3B_3 1_555 1_555
C4B_3 C3B_3 1_555 1_555
O1_3 Cd1_3 1_555 1_555
O1B_3 Cd1_3 1_555 1_555
N1B_3 Cd1_3 1_555 1_555
N2_3 Cd1_3 1_555 1_555
N2B_3 Cd1_3 1_555 1_555
C2 C3 1_555 1_555
C4 C5 1_555 1_555
N2_2 C10_2 1_555 1_555
C6B N2B 1_555 1_555
C10B C9B 1_555 1_555
C4B C5B 1_555 1_555
C8_2 C9_2 1_555 1_555
C4_2 C3_3 1_555 1_555
C4B_2 C3B_2 1_555 1_555
C9B_2 C8B_2 1_555 1_555
C5_3 N1_3 1_555 1_555

#END
