
#######################################################################
#
#                 Cambridge Crystallographic Data Centre
#                                CCDC 
#
#######################################################################
#
# If this CIF has been generated from an entry in the Cambridge 
# Structural Database, then it will include bibliographic, chemical, 
# crystal, experimental, refinement or atomic coordinate data resulting 
# from the CCDC's data processing and validation procedures.
#
#######################################################################

data_WORMUN
_symmetry_cell_setting           monoclinic
_symmetry_space_group_name_H-M   'P 21/n'
_symmetry_Int_Tables_number      14
_space_group_name_Hall           '-P 2yn'
loop_
_symmetry_equiv_pos_site_id
_symmetry_equiv_pos_as_xyz
1 x,y,z
2 1/2-x,1/2+y,1/2-z
3 -x,-y,-z
4 1/2+x,1/2-y,1/2+z
_cell_length_a                   14.6749(10)
_cell_length_b                   8.0043(4)
_cell_length_c                   21.4102(17)
_cell_angle_alpha                90
_cell_angle_beta                 107.405(7)
_cell_angle_gamma                90
_cell_volume                     2399.75
loop_
_atom_site_label
_atom_site_type_symbol
_atom_site_fract_x
_atom_site_fract_y
_atom_site_fract_z
Cd1 Cd 0.20398(3) 1.02687(6) 0.48296(3)
O1 O 0.2044(3) 0.7352(6) 0.4807(3)
O2 O 0.1315(3) 0.8469(6) 0.5467(3)
O3 O 0.0675(4) 1.0737(8) 0.4029(3)
O4 O 0.1527(5) 0.9860(9) 0.3430(4)
N1 N 0.1472(4) 0.2563(6) 0.5301(3)
N2 N -0.0790(8) 1.0310(13) 0.1745(5)
N3 N 0.3408(5) 1.0184(8) 0.5798(3)
N4 N 0.3310(5) 1.1665(8) 0.4637(4)
F1 F 0.0045(3) 0.3430(6) 0.6356(3)
F2 F -0.2540(5) 1.1727(13) 0.2424(4)
C1 C 0.1581(4) 0.7238(8) 0.5212(4)
C2 C 0.1337(4) 0.5516(7) 0.5392(3)
C3 C 0.1669(5) 0.4133(8) 0.5158(3)
H1 H 0.2051 0.4283 0.4885
C4 C 0.0914(5) 0.2343(9) 0.5690(4)
H2 H 0.0749 0.1270 0.5784
C5 C 0.0586(5) 0.3712(9) 0.5952(4)
C6 C 0.0783(5) 0.5300(8) 0.5804(4)
H3 H 0.0549 0.6214 0.5976
C7 C 0.0774(6) 1.0364(11) 0.3494(5)
C8 C -0.0103(6) 1.0549(9) 0.2910(4)
C9 C -0.0066(8) 1.0206(13) 0.2300(5)
H4 H 0.0521 0.9864 0.2262
C10 C -0.1586(9) 1.0815(16) 0.1824(6)
H5 H -0.2112 1.0914 0.1454
C11 C -0.1705(6) 1.1212(14) 0.2412(6)
C12 C -0.0955(6) 1.1046(10) 0.2974(4)
H6 H -0.1027 1.1266 0.3383
C13 C 0.3450(6) 0.9494(12) 0.6361(5)
H7 H 0.2907 0.8976 0.6409
C14 C 0.4282(9) 0.9510(15) 0.6891(6)
H8 H 0.4281 0.9011 0.7283
C15 C 0.5072(9) 1.0222(16) 0.6844(7)
H9 H 0.5624 1.0223 0.7199
C16 C 0.5064(6) 1.0980(12) 0.6251(6)
C17 C 0.4180(5) 1.0925(11) 0.5731(5)
C18 C 0.5884(9) 1.1739(17) 0.6148(9)
H10 H 0.6460 1.1734 0.6483
C19 C 0.5838(9) 1.2467(16) 0.5570(9)
H11 H 0.6381 1.2976 0.5519
C20 C 0.4978(7) 1.2475(12) 0.5035(7)
C21 C 0.4147(6) 1.1703(10) 0.5124(5)
C22 C 0.4871(10) 1.3234(14) 0.4431(9)
H12 H 0.5389 1.3778 0.4358
C23 C 0.4034(10) 1.3198(14) 0.3952(7)
H13 H 0.3972 1.3694 0.3549
C24 C 0.3262(7) 1.2400(12) 0.4075(6)
H14 H 0.2683 1.2382 0.3744
Cd1_2 Cd 0.20398(3) 0.02687(6) 0.48296(3)
N1_2 N 0.1472(4) 1.2563(6) 0.5301(3)
O5 O 0.1828(6) 0.6119(18) 0.3358(6)
H15 H 0.1741 0.7165 0.3579
H16 H 0.2089 0.5632 0.3103
O6 O 0.2622(12) 0.4559(19) 0.2592(9)
H17 H 0.2879 0.4623 0.2285
H18 H 0.2517 0.5705 0.2326
loop_
_geom_bond_atom_site_label_1
_geom_bond_atom_site_label_2
_geom_bond_site_symmetry_1
_geom_bond_site_symmetry_2
Cd1 O1 1_555 1_555
O1 C1 1_555 1_555
O2 Cd1 1_555 1_555
O3 Cd1 1_555 1_555
O4 C7 1_555 1_555
N1 C3 1_555 1_555
N2 C9 1_555 1_555
N3 Cd1 1_555 1_555
N4 Cd1 1_555 1_555
F1 C5 1_555 1_555
F2 C11 1_555 1_555
C1 O2 1_555 1_555
C2 C1 1_555 1_555
C3 C2 1_555 1_555
H1 C3 1_555 1_555
C4 N1 1_555 1_555
H2 C4 1_555 1_555
C5 C4 1_555 1_555
C6 C2 1_555 1_555
H3 C6 1_555 1_555
C7 O3 1_555 1_555
C8 C7 1_555 1_555
C9 C8 1_555 1_555
H4 C9 1_555 1_555
C10 N2 1_555 1_555
H5 C10 1_555 1_555
C11 C10 1_555 1_555
C12 C8 1_555 1_555
H6 C12 1_555 1_555
C13 N3 1_555 1_555
H7 C13 1_555 1_555
C14 C13 1_555 1_555
H8 C14 1_555 1_555
C15 C14 1_555 1_555
H9 C15 1_555 1_555
C16 C15 1_555 1_555
C17 N3 1_555 1_555
C18 C16 1_555 1_555
H10 C18 1_555 1_555
C19 C18 1_555 1_555
H11 C19 1_555 1_555
C20 C19 1_555 1_555
C21 N4 1_555 1_555
C22 C20 1_555 1_555
H12 C22 1_555 1_555
C23 C22 1_555 1_555
H13 C23 1_555 1_555
C24 N4 1_555 1_555
H14 C24 1_555 1_555
O5 H15 1_555 1_555
H16 O5 1_555 1_555
O6 H17 1_555 1_555
H18 O6 1_555 1_555
Cd1_2 N1 1_555 1_555
N1_2 Cd1 1_555 1_555
C5 C6 1_555 1_555
C11 C12 1_555 1_555
C16 C17 1_555 1_555
C17 C21 1_555 1_555
C20 C21 1_555 1_555
C23 C24 1_555 1_555

#END
