
#######################################################################
#
#                 Cambridge Crystallographic Data Centre
#                                CCDC 
#
#######################################################################
#
# If this CIF has been generated from an entry in the Cambridge 
# Structural Database, then it will include bibliographic, chemical, 
# crystal, experimental, refinement or atomic coordinate data resulting 
# from the CCDC's data processing and validation procedures.
#
#######################################################################

data_WOSCOY
_symmetry_cell_setting           orthorhombic
_symmetry_space_group_name_H-M   'P 21 21 21'
_symmetry_Int_Tables_number      19
_space_group_name_Hall           'P 2ac 2ab'
loop_
_symmetry_equiv_pos_site_id
_symmetry_equiv_pos_as_xyz
1 x,y,z
2 1/2-x,-y,1/2+z
3 1/2+x,1/2-y,-z
4 -x,1/2+y,1/2-z
_cell_length_a                   12.709(3)
_cell_length_b                   14.288(3)
_cell_length_c                   14.814(3)
_cell_angle_alpha                90
_cell_angle_beta                 90
_cell_angle_gamma                90
_cell_volume                     2690.02
loop_
_atom_site_label
_atom_site_type_symbol
_atom_site_fract_x
_atom_site_fract_y
_atom_site_fract_z
Tb1 Tb 0.335246(8) 0.333252(8) 0.635720(8)
Cl1 Cl 0.13202(4) 0.36122(4) 0.63426(5)
Cl2 Cl 0.53195(5) 0.28221(5) 0.64123(5)
Cl3 Cl 0.38803(5) 0.51202(4) 0.63274(5)
N1 N 0.3354(2) 0.37180(15) 0.46679(14)
N2 N 0.31220(18) 0.18406(15) 0.53922(14)
N3 N 0.3513(2) 0.37483(17) 0.80224(15)
N4 N 0.21538(19) -0.18948(16) 0.23476(15)
C1 C 0.2585(2) -0.03973(19) 0.35126(19)
C2 C 0.2783(2) 0.03723(19) 0.41661(19)
C3 C 0.1596(2) -0.0501(2) 0.31173(19)
H1 H 0.1052 -0.0062 0.3235
C4 C 0.3374(3) 0.4174(2) 0.28462(19)
H2 H 0.3376 0.4340 0.2225
C5 C 0.3760(2) 0.0797(2) 0.42451(19)
H3 H 0.4332 0.0593 0.3882
C6 C 0.3349(2) -0.10425(19) 0.32930(18)
H4 H 0.4036 -0.0985 0.3538
C7 C 0.1990(2) 0.0690(2) 0.4732(2)
H5 H 0.1312 0.0410 0.4713
C8 C 0.2681(3) 0.3812(2) 0.8569(2)
H6 H 0.2007 0.3661 0.8334
C9 C 0.2517(2) 0.35613(19) 0.4140(2)
H7 H 0.1909 0.3289 0.4404
C10 C 0.3899(2) 0.1520(2) 0.48558(18)
H8 H 0.4573 0.1804 0.4899
C11 C 0.3736(4) 0.4343(3) 0.9796(3)
H9 H 0.3813 0.4548 1.0402
C12 C 0.3114(2) -0.1773(2) 0.27168(18)
H10 H 0.3653 -0.2209 0.2574
C13 C 0.2192(2) 0.1419(2) 0.5324(2)
H11 H 0.1636 0.1630 0.5701
C14 C 0.4580(4) 0.4292(3) 0.9242(2)
H12 H 0.5258 0.4464 0.9456
C15 C 0.2496(3) 0.3776(2) 0.3232(2)
H13 H 0.1887 0.3651 0.2880
C16 C 0.4249(3) 0.4329(3) 0.3376(2)
H14 H 0.4872 0.4588 0.3125
C17 C 0.2756(4) 0.4089(3) 0.9464(2)
H15 H 0.2151 0.4104 0.9841
C18 C 0.4452(3) 0.3992(2) 0.8365(2)
H16 H 0.5054 0.3955 0.7986
C19 C 0.4198(2) 0.4098(2) 0.4280(2)
H17 H 0.4797 0.4216 0.4646
C20 C 0.1419(2) -0.1255(2) 0.2550(2)
H18 H 0.0740 -0.1323 0.2290
Tb1A Tb 0.164754(8) -0.333252(8) 0.135720(8)
N4A N 0.28462(19) 0.18948(16) 0.73476(15)
N5 N 0.4910(4) 0.1833(3) 0.1300(3)
C21 C 0.4600(6) 0.1820(4) 0.0459(4)
H19 H 0.5119 0.1792 -0.0001
C22 C 0.3578(7) 0.1843(4) 0.0212(4)
H20 H 0.3400 0.1849 -0.0411
C23 C 0.2813(6) 0.1859(5) 0.0832(6)
H21 H 0.2093 0.1901 0.0667
C24 C 0.4163(4) 0.1806(5) 0.1922(3)
H22 H 0.4376 0.1784 0.2536
C25 C 0.3129(4) 0.1809(4) 0.1748(4)
H23 H 0.2625 0.1778 0.2222
loop_
_geom_bond_atom_site_label_1
_geom_bond_atom_site_label_2
_geom_bond_site_symmetry_1
_geom_bond_site_symmetry_2
Tb1 Cl1 1_555 1_555
Cl2 Tb1 1_555 1_555
Cl3 Tb1 1_555 1_555
N1 Tb1 1_555 1_555
N2 Tb1 1_555 1_555
N3 Tb1 1_555 1_555
N4 C12 1_555 1_555
C1 C2 1_555 1_555
C2 C5 1_555 1_555
C3 C1 1_555 1_555
H1 C3 1_555 1_555
C4 H2 1_555 1_555
C5 H3 1_555 1_555
C6 C1 1_555 1_555
H4 C6 1_555 1_555
C7 C2 1_555 1_555
H5 C7 1_555 1_555
C8 N3 1_555 1_555
H6 C8 1_555 1_555
C9 N1 1_555 1_555
H7 C9 1_555 1_555
C10 N2 1_555 1_555
H8 C10 1_555 1_555
C11 H9 1_555 1_555
C12 C6 1_555 1_555
H10 C12 1_555 1_555
C13 N2 1_555 1_555
H11 C13 1_555 1_555
C14 C11 1_555 1_555
H12 C14 1_555 1_555
C15 C4 1_555 1_555
H13 C15 1_555 1_555
C16 C4 1_555 1_555
H14 C16 1_555 1_555
C17 C8 1_555 1_555
H15 C17 1_555 1_555
C18 N3 1_555 1_555
H16 C18 1_555 1_555
C19 N1 1_555 1_555
H17 C19 1_555 1_555
C20 N4 1_555 1_555
H18 C20 1_555 1_555
N5 C21 1_555 1_555
C21 H19 1_555 1_555
C22 C21 1_555 1_555
H20 C22 1_555 1_555
C23 C22 1_555 1_555
H21 C23 1_555 1_555
C24 N5 1_555 1_555
H22 C24 1_555 1_555
C25 C23 1_555 1_555
H23 C25 1_555 1_555
Tb1A N4 1_555 1_555
N4A Tb1 1_555 1_555
C3 C20 1_555 1_555
C5 C10 1_555 1_555
C7 C13 1_555 1_555
C9 C15 1_555 1_555
C11 C17 1_555 1_555
C14 C18 1_555 1_555
C16 C19 1_555 1_555
C24 C25 1_555 1_555

#END
