
#######################################################################
#
#                 Cambridge Crystallographic Data Centre
#                                CCDC 
#
#######################################################################
#
# If this CIF has been generated from an entry in the Cambridge 
# Structural Database, then it will include bibliographic, chemical, 
# crystal, experimental, refinement or atomic coordinate data resulting 
# from the CCDC's data processing and validation procedures.
#
#######################################################################

data_WOSCEO
_symmetry_cell_setting           monoclinic
_symmetry_space_group_name_H-M   'P 2/c'
_symmetry_Int_Tables_number      13
_space_group_name_Hall           '-P 2yc'
loop_
_symmetry_equiv_pos_site_id
_symmetry_equiv_pos_as_xyz
1 x,y,z
2 -x,y,1/2-z
3 -x,-y,-z
4 x,-y,1/2+z
_cell_length_a                   12.179(2)
_cell_length_b                   11.873(2)
_cell_length_c                   23.086(7)
_cell_angle_alpha                90
_cell_angle_beta                 116.77(2)
_cell_angle_gamma                90
_cell_volume                     2980.48
loop_
_atom_site_label
_atom_site_type_symbol
_atom_site_fract_x
_atom_site_fract_y
_atom_site_fract_z
Lu1 Lu 0.13089(2) -0.016267(18) -0.121846(11)
Cl1 Cl 0.33551(15) -0.01951(14) -0.12580(9)
Cl2 Cl -0.06950(13) -0.01618(13) -0.11248(8)
Cl3 Cl 0.0000 -0.0160(2) -0.2500
N1 N 0.1129(5) 0.1852(4) -0.1547(2)
N2 N 0.0942(5) 0.7825(4) -0.1531(3)
N3 N 0.2102(5) 0.1082(4) -0.0255(2)
N4 N 0.2341(5) -0.1370(4) -0.0244(3)
C1 C 0.2123(6) 0.2482(5) -0.1438(3)
H1 H 0.2881 0.2110 -0.1330
C2 C 0.1554(6) 0.7285(5) -0.1810(3)
H2 H 0.1987 0.7724 -0.1984
C3 C 0.1917(7) -0.1394(6) 0.0196(3)
H3 H 0.1321 -0.0850 0.0166
C4 C 0.0274(6) 0.6019(5) -0.1341(3)
H4 H -0.0198 0.5602 -0.1182
C5 C 0.1584(5) 0.6125(5) -0.1858(3)
H5 H 0.2030 0.5784 -0.2059
C6 C -0.0039(5) 0.3560(5) -0.1745(3)
H6 H -0.0806 0.3912 -0.1850
C7 C 0.0993(6) 0.4209(4) -0.1616(3)
C8 C 0.2093(6) 0.3646(5) -0.1476(3)
H7 H 0.2810 0.4057 -0.1408
C9 C 0.0957(5) 0.5461(4) -0.1608(3)
C10 C 0.3309(7) 0.1190(7) 0.0126(4)
H8 H 0.3853 0.0678 0.0070
C11 C 0.1772(8) 0.2654(6) 0.0303(4)
H9 H 0.1211 0.3151 0.0354
C12 C 0.0298(6) 0.7179(5) -0.1312(3)
H10 H -0.0166 0.7543 -0.1128
C13 C 0.0052(5) 0.2400(5) -0.1722(3)
H11 H -0.0672 0.1969 -0.1833
C14 C 0.1355(6) 0.1797(5) -0.0152(3)
H12 H 0.0493 0.1711 -0.0405
C15 C 0.3216(6) -0.2120(6) -0.0181(3)
H13 H 0.3550 -0.2098 -0.0482
C16 C 0.3019(9) 0.2766(7) 0.0678(4)
H14 H 0.3337 0.3354 0.0989
C17 C 0.3159(9) -0.2960(8) 0.0744(4)
H15 H 0.3416 -0.3521 0.1072
C18 C 0.2300(8) -0.2171(8) 0.0694(4)
H16 H 0.1972 -0.2159 0.0997
C19 C 0.3802(8) 0.2013(8) 0.0598(4)
H17 H 0.4665 0.2058 0.0863
C20 C 0.3646(9) -0.2921(7) 0.0305(5)
H18 H 0.4267 -0.3437 0.0338
Lu1A Lu -0.13089(2) -0.016267(18) -0.378154(11)
Cl1A Cl -0.33551(15) -0.01951(14) -0.37420(9)
Cl2A Cl 0.06950(13) -0.01618(13) -0.38752(8)
N1A N -0.1129(5) 0.1852(4) -0.3453(2)
N2A N -0.0942(5) 0.7825(4) -0.3469(3)
N3A N -0.2102(5) 0.1082(4) -0.4745(2)
N4A N -0.2341(5) -0.1370(4) -0.4756(3)
C1A C -0.2123(6) 0.2482(5) -0.3562(3)
H1A H -0.2881 0.2110 -0.3670
C2A C -0.1554(6) 0.7285(5) -0.3190(3)
H2A H -0.1987 0.7724 -0.3016
C3A C -0.1917(7) -0.1394(6) -0.5196(3)
H3A H -0.1321 -0.0850 -0.5166
C4A C -0.0274(6) 0.6019(5) -0.3659(3)
H4A H 0.0198 0.5602 -0.3818
C5A C -0.1584(5) 0.6125(5) -0.3142(3)
H5A H -0.2030 0.5784 -0.2941
C6A C 0.0039(5) 0.3560(5) -0.3255(3)
H6A H 0.0806 0.3912 -0.3150
C7A C -0.0993(6) 0.4209(4) -0.3384(3)
C8A C -0.2093(6) 0.3646(5) -0.3524(3)
H7A H -0.2810 0.4057 -0.3592
C9A C -0.0957(5) 0.5461(4) -0.3392(3)
C10A C -0.3309(7) 0.1190(7) -0.5126(4)
H8A H -0.3853 0.0678 -0.5070
C11A C -0.1772(8) 0.2654(6) -0.5303(4)
H9A H -0.1211 0.3151 -0.5354
C12A C -0.0298(6) 0.7179(5) -0.3688(3)
H10A H 0.0166 0.7543 -0.3872
C13A C -0.0052(5) 0.2400(5) -0.3278(3)
H11A H 0.0672 0.1969 -0.3167
C14A C -0.1355(6) 0.1797(5) -0.4848(3)
H12A H -0.0493 0.1711 -0.4595
C15A C -0.3216(6) -0.2120(6) -0.4819(3)
H13A H -0.3550 -0.2098 -0.4518
C16A C -0.3019(9) 0.2766(7) -0.5678(4)
H14A H -0.3337 0.3354 -0.5989
C17A C -0.3159(9) -0.2960(8) -0.5744(4)
H15A H -0.3416 -0.3521 -0.6072
C18A C -0.2300(8) -0.2171(8) -0.5694(4)
H16A H -0.1972 -0.2159 -0.5997
C19A C -0.3802(8) 0.2013(8) -0.5598(4)
H17A H -0.4665 0.2058 -0.5863
C20A C -0.3646(9) -0.2921(7) -0.5305(5)
H18A H -0.4267 -0.3437 -0.5338
Lu1_2 Lu 0.13089(2) 0.983733(18) -0.121846(11)
Lu1A_2 Lu -0.13089(2) 0.983733(18) -0.378154(11)
N2_2 N 0.0942(5) -0.2175(4) -0.1531(3)
N2A_2 N -0.0942(5) -0.2175(4) -0.3469(3)
Lu2 Lu 0.5000 -0.48064(3) -0.2500
Cl4 Cl 0.46324(14) -0.47755(14) -0.14966(8)
Cl5 Cl 0.73167(13) -0.48946(13) -0.17860(8)
N5 N 0.5000 -1.2785(5) -0.2500
N6 N 0.5000 -0.6820(5) -0.2500
C21 C 0.4145(6) -0.8577(5) -0.2384(3)
H19 H 0.3541 -0.8956 -0.2303
C22 C 0.5000 -0.9183(6) -0.2500
C23 C 0.3917(6) -1.1034(5) -0.2672(4)
H20 H 0.3159 -1.0652 -0.2795
C24 C 0.4184(6) -0.7419(5) -0.2387(4)
H21 H 0.3595 -0.7019 -0.2303
C25 C 0.3961(6) -1.2199(5) -0.2660(3)
H22 H 0.3219 -1.2604 -0.2771
C26 C 0.5000 -1.0427(6) -0.2500
C21A C 0.5855(6) -0.8577(5) -0.2616(3)
H19A H 0.6459 -0.8956 -0.2697
C24A C 0.5816(6) -0.7419(5) -0.2613(4)
H21A H 0.6405 -0.7019 -0.2697
C23A C 0.6083(6) -1.1034(5) -0.2328(4)
H20A H 0.6841 -1.0652 -0.2205
C25A C 0.6039(6) -1.2199(5) -0.2340(3)
H22A H 0.6781 -1.2604 -0.2229
Cl4A Cl 0.53676(14) -0.47755(14) -0.35034(8)
Cl5A Cl 0.26833(13) -0.48946(13) -0.32140(8)
Lu2_2 Lu 0.5000 -1.48064(3) -0.2500
N5_2 N 0.5000 -0.2785(5) -0.2500
loop_
_geom_bond_atom_site_label_1
_geom_bond_atom_site_label_2
_geom_bond_site_symmetry_1
_geom_bond_site_symmetry_2
Lu1 Cl1 1_555 1_555
Cl2 Lu1 1_555 1_555
Cl3 Lu1 1_555 1_555
N1 Lu1 1_555 1_555
N2 C2 1_555 1_555
N3 Lu1 1_555 1_555
N4 Lu1 1_555 1_555
C1 N1 1_555 1_555
H1 C1 1_555 1_555
C2 H2 1_555 1_555
C3 N4 1_555 1_555
H3 C3 1_555 1_555
C4 H4 1_555 1_555
C5 C2 1_555 1_555
H5 C5 1_555 1_555
C6 H6 1_555 1_555
C7 C6 1_555 1_555
C8 C1 1_555 1_555
H7 C8 1_555 1_555
C9 C4 1_555 1_555
C10 N3 1_555 1_555
H8 C10 1_555 1_555
C11 H9 1_555 1_555
C12 N2 1_555 1_555
H10 C12 1_555 1_555
C13 N1 1_555 1_555
H11 C13 1_555 1_555
C14 N3 1_555 1_555
H12 C14 1_555 1_555
C15 N4 1_555 1_555
H13 C15 1_555 1_555
C16 C11 1_555 1_555
H14 C16 1_555 1_555
C17 H15 1_555 1_555
C18 C3 1_555 1_555
H16 C18 1_555 1_555
C19 C10 1_555 1_555
H17 C19 1_555 1_555
C20 C15 1_555 1_555
H18 C20 1_555 1_555
Lu2 Cl4 1_555 1_555
Cl5 Lu2 1_555 1_555
N5 C25 1_555 1_555
N6 Lu2 1_555 1_555
C21 H19 1_555 1_555
C22 C21 1_555 1_555
C23 H20 1_555 1_555
C24 N6 1_555 1_555
H21 C24 1_555 1_555
C25 C23 1_555 1_555
H22 C25 1_555 1_555
C26 C22 1_555 1_555
Lu1A Cl3 1_555 1_555
Cl1A Lu1A 1_555 1_555
Cl2A Lu1A 1_555 1_555
N1A Lu1A 1_555 1_555
N2A C2A 1_555 1_555
N3A Lu1A 1_555 1_555
N4A Lu1A 1_555 1_555
C1A N1A 1_555 1_555
H1A C1A 1_555 1_555
C2A H2A 1_555 1_555
C3A N4A 1_555 1_555
H3A C3A 1_555 1_555
C4A H4A 1_555 1_555
C5A C2A 1_555 1_555
H5A C5A 1_555 1_555
C6A H6A 1_555 1_555
C7A C6A 1_555 1_555
C8A C1A 1_555 1_555
H7A C8A 1_555 1_555
C9A C4A 1_555 1_555
C10A N3A 1_555 1_555
H8A C10A 1_555 1_555
C11A H9A 1_555 1_555
C12A N2A 1_555 1_555
H10A C12A 1_555 1_555
C13A N1A 1_555 1_555
H11A C13A 1_555 1_555
C14A N3A 1_555 1_555
H12A C14A 1_555 1_555
C15A N4A 1_555 1_555
H13A C15A 1_555 1_555
C16A C11A 1_555 1_555
H14A C16A 1_555 1_555
C17A H15A 1_555 1_555
C18A C3A 1_555 1_555
H16A C18A 1_555 1_555
C19A C10A 1_555 1_555
H17A C19A 1_555 1_555
C20A C15A 1_555 1_555
H18A C20A 1_555 1_555
Lu1_2 N2 1_555 1_555
Lu1A_2 N2A 1_555 1_555
N2_2 Lu1 1_555 1_555
N2A_2 Lu1A 1_555 1_555
C21A C22 1_555 1_555
H19A C21A 1_555 1_555
C24A N6 1_555 1_555
H21A C24A 1_555 1_555
C23A C26 1_555 1_555
H20A C23A 1_555 1_555
C25A N5 1_555 1_555
H22A C25A 1_555 1_555
Cl4A Lu2 1_555 1_555
Cl5A Lu2 1_555 1_555
Lu2_2 N5 1_555 1_555
N5_2 Lu2 1_555 1_555
C4 C12 1_555 1_555
C5 C9 1_555 1_555
C6 C13 1_555 1_555
C7 C8 1_555 1_555
C7 C9 1_555 1_555
C11 C14 1_555 1_555
C16 C19 1_555 1_555
C17 C18 1_555 1_555
C17 C20 1_555 1_555
C21 C24 1_555 1_555
C23 C26 1_555 1_555
C4A C12A 1_555 1_555
C5A C9A 1_555 1_555
C6A C13A 1_555 1_555
C7A C8A 1_555 1_555
C7A C9A 1_555 1_555
C11A C14A 1_555 1_555
C16A C19A 1_555 1_555
C17A C18A 1_555 1_555
C17A C20A 1_555 1_555
C21A C24A 1_555 1_555
C23A C25A 1_555 1_555

#END
