
#######################################################################
#
#                 Cambridge Crystallographic Data Centre
#                                CCDC 
#
#######################################################################
#
# If this CIF has been generated from an entry in the Cambridge 
# Structural Database, then it will include bibliographic, chemical, 
# crystal, experimental, refinement or atomic coordinate data resulting 
# from the CCDC's data processing and validation procedures.
#
#######################################################################

data_WOSHAP
_symmetry_cell_setting           triclinic
_symmetry_space_group_name_H-M   'P -1'
_symmetry_Int_Tables_number      2
_space_group_name_Hall           '-P 1'
loop_
_symmetry_equiv_pos_site_id
_symmetry_equiv_pos_as_xyz
1 x,y,z
2 -x,-y,-z
_cell_length_a                   15.563(3)
_cell_length_b                   17.642(3)
_cell_length_c                   17.736(5)
_cell_angle_alpha                116.804(9)
_cell_angle_beta                 92.853(16)
_cell_angle_gamma                107.383(12)
_cell_volume                     4049.45
loop_
_atom_site_label
_atom_site_type_symbol
_atom_site_fract_x
_atom_site_fract_y
_atom_site_fract_z
Cu1 Cu 0.66343(3) 0.27538(3) 0.13500(3)
Cu2 Cu 0.66526(4) 0.17929(3) 0.23283(3)
Cu3 Cu 0.81773(3) 0.05885(3) 0.20773(3)
Cu4 Cu 0.83811(3) 0.25103(4) 0.24877(3)
Cu5 Cu 0.66775(3) 0.48743(3) 0.19102(4)
Cu6 Cu 0.77945(4) 0.41192(3) 0.30649(3)
Cu7 Cu 0.84483(3) -0.02396(4) 0.34127(4)
Cu8 Cu 0.74170(4) 0.13269(3) 0.35974(3)
N1 N 0.8730(2) 0.28685(19) 0.3669(2)
N2 N 0.8350(2) 0.4640(2) 0.2403(2)
N3 N 0.8426(2) 0.2437(2) 0.4132(2)
N4 N 0.9407(2) 0.4999(2) 0.1704(2)
N5 N 0.5657(2) 0.3114(2) 0.1746(2)
N6 N 0.5690(2) 0.4001(2) 0.2077(2)
N7 N 0.7934(2) 0.4801(2) 0.1823(2)
N8 N 0.9472(2) 0.4221(2) 0.3271(2)
C1 C 0.9222(3) 0.4767(2) 0.2311(3)
N9 N 0.9765(2) 0.3591(2) 0.4915(2)
C2 C 0.9871(3) 0.4674(2) 0.2867(3)
C3 C 0.8593(3) 0.5006(3) 0.1410(3)
N10 N 0.4296(2) 0.3145(2) 0.2095(2)
C4 C 0.9517(3) 0.3555(2) 0.4161(2)
C5 C 1.0010(3) 0.4152(2) 0.3832(3)
C6 C 0.9064(3) 0.2893(3) 0.4871(2)
C7 C 0.9013(3) 0.2649(3) 0.5560(3)
C8 C 0.7595(3) 0.4965(3) 0.0224(3)
H1 H 0.7063 0.4720 0.0379
C9 C 1.0968(3) 0.4555(3) 0.4031(3)
H2 H 1.1329 0.4521 0.4440
C10 C 0.8460(3) 0.5186(3) 0.0692(3)
C11 C 1.0820(3) 0.5064(3) 0.2998(3)
H3 H 1.1084 0.5354 0.2695
C12 C 0.9783(4) 0.3033(3) 0.6228(3)
H4 H 1.0325 0.3455 0.6247
N11 N 0.8251(4) 0.5458(4) -0.0744(3)
C13 C 1.1359(3) 0.5004(4) 0.3603(4)
H5 H 1.1998 0.5272 0.3718
C14 C 0.9211(4) 0.5567(4) 0.0434(4)
H6 H 0.9806 0.5753 0.0738
C15 C 0.8243(4) 0.2021(4) 0.5577(3)
H7 H 0.7709 0.1748 0.5150
C16 C 0.7537(4) 0.5114(3) -0.0476(3)
H8 H 0.6952 0.4961 -0.0779
C17 C 0.9070(4) 0.5672(5) -0.0291(4)
H9 H 0.9587 0.5909 -0.0469
C18 C 0.9731(5) 0.2780(4) 0.6860(3)
H10 H 1.0244 0.3060 0.7311
N12 N 0.9654(2) 0.1963(2) 0.1884(2)
N13 N 0.9332(2) 0.1004(2) 0.2796(2)
N14 N 0.8270(2) 0.2384(2) 0.1369(2)
C19 C 1.0380(3) 0.1918(3) 0.2279(3)
N15 N 0.7640(2) 0.2492(2) 0.08986(19)
N16 N 0.8858(2) 0.2479(2) 0.0278(2)
N17 N 0.9421(2) 0.0762(2) 0.3428(2)
N18 N 1.0826(2) 0.1597(2) 0.3436(2)
C20 C 0.9810(3) 0.2316(3) 0.1354(3)
C21 C 0.8018(3) 0.2542(2) 0.0248(2)
C22 C 1.1272(3) 0.2247(3) 0.2176(3)
H11 H 1.1764 0.2227 0.2477
C23 C 0.7578(3) 0.2655(3) -0.0425(3)
C24 C 0.8983(3) 0.2383(2) 0.0983(2)
N19 N 0.9001(5) 0.2167(4) 0.6866(3)
C25 C 0.6647(3) 0.2478(3) -0.0599(3)
H12 H 0.6272 0.2287 -0.0279
C26 C 0.8090(4) 0.2918(3) -0.0931(3)
H13 H 0.8721 0.3034 -0.0848
N20 N 0.6752(4) 0.2842(3) -0.1734(3)
C27 C 1.1416(3) 0.2600(4) 0.1624(4)
H14 H 1.2005 0.2812 0.1538
C28 C 0.6268(4) 0.2584(4) -0.1244(4)
H15 H 0.5638 0.2468 -0.1341
C29 C 0.7649(5) 0.3010(4) -0.1571(3)
H16 H 0.8004 0.3201 -0.1903
C30 C 0.8269(5) 0.1799(5) 0.6227(4)
H17 H 0.7744 0.1367 0.6219
N21 N 0.6589(2) 0.27743(19) 0.3344(2)
N22 N 0.6964(2) 0.36878(19) 0.3640(2)
N23 N 0.5147(2) 0.1289(2) 0.1404(2)
C31 C 1.0180(3) 0.1503(3) 0.2833(3)
N24 N 0.5885(2) 0.3436(2) 0.4374(2)
C32 C 1.0699(3) 0.1064(3) 0.4518(3)
C33 C 1.0236(3) 0.1132(3) 0.5178(3)
H18 H 0.9698 0.1261 0.5182
C34 C 1.0319(3) 0.1139(3) 0.3784(3)
C35 C 0.4819(3) 0.2641(3) 0.1769(3)
C36 C 0.4498(3) 0.1657(3) 0.1447(3)
C37 C 1.1518(3) 0.0906(4) 0.4568(3)
H19 H 1.1875 0.0896 0.4160
C38 C 0.4867(3) 0.0379(2) 0.1051(2)
C39 C 1.0676(3) 0.2636(3) 0.1201(3)
H20 H 1.0754 0.2869 0.0821
C40 C 0.4866(3) 0.3980(3) 0.2280(3)
C41 C 0.3559(3) 0.1128(3) 0.1159(3)
H21 H 0.3120 0.1399 0.1216
N25 N 0.6978(2) 0.0040(2) 0.13785(19)
N26 N 0.6475(2) 0.0589(2) 0.1486(2)
N27 N 0.5512(2) -0.0854(2) 0.0669(2)
C42 C 0.5963(3) 0.2660(2) 0.3801(2)
C43 C 0.6523(3) 0.4063(2) 0.4256(2)
C44 C 0.6370(3) -0.0819(2) 0.0882(2)
C45 C 1.1797(3) 0.0763(3) 0.5230(3)
H22 H 1.2336 0.0640 0.5248
C46 C 1.0576(3) 0.1009(3) 0.5827(3)
H23 H 1.0267 0.1079 0.6276
C47 C 0.5613(3) 0.0032(2) 0.1055(2)
C48 C 0.3956(3) -0.0182(3) 0.0722(3)
H24 H 0.3791 -0.0811 0.0458
C49 C 0.3297(3) 0.0200(3) 0.0791(4)
H25 H 0.2675 -0.0167 0.0589
N28 N 0.7124(2) -0.06346(19) 0.2968(2)
N29 N 0.6798(2) 0.0056(2) 0.3166(2)
N30 N 0.5832(2) 0.1139(2) 0.3415(2)
N31 N 1.1318(2) 0.0796(2) 0.5847(2)
C50 C 0.6378(3) -0.1390(2) 0.2665(2)
C51 C 0.5395(3) 0.1733(3) 0.3612(3)
C52 C 0.5336(3) 0.0262(3) 0.3158(3)
C53 C 0.5881(3) -0.0326(3) 0.2977(3)
C54 C 0.3952(3) 0.0569(3) 0.3305(4)
H26 H 0.3319 0.0378 0.3272
C55 C 0.4460(3) 0.1484(3) 0.3589(4)
H27 H 0.4177 0.1913 0.3757
N32 N 0.5582(2) -0.1229(2) 0.2663(2)
C56 C 0.6427(3) -0.2295(2) 0.2373(2)
C57 C 0.6565(3) -0.1658(3) 0.0592(3)
C58 C 0.5623(3) -0.3053(3) 0.2128(3)
H28 H 0.5046 -0.3001 0.2121
C59 C 0.4606(3) 0.4789(3) 0.2693(3)
C60 C 0.7250(3) -0.2447(3) 0.2335(3)
H29 H 0.7797 -0.1973 0.2454
C61 C 0.4393(3) -0.0050(3) 0.3075(4)
H30 H 0.4061 -0.0665 0.2869
C62 C 0.5197(4) 0.5591(3) 0.3396(3)
H31 H 0.5775 0.5634 0.3615
C63 C 0.5841(4) -0.2479(3) 0.0172(3)
H32 H 0.5243 -0.2492 0.0076
C64 C 0.3759(3) 0.4775(3) 0.2376(4)
H33 H 0.3341 0.4250 0.1907
C65 C 0.7429(4) -0.1698(4) 0.0707(3)
H34 H 0.7944 -0.1164 0.0995
C66 C 0.3557(4) 0.5554(4) 0.2770(4)
H35 H 0.3000 0.5545 0.2544
C67 C 0.6694(3) 0.5042(3) 0.4757(3)
C68 C 0.5714(3) -0.3880(3) 0.1897(3)
H36 H 0.5176 -0.4384 0.1714
C69 C 0.7311(3) 0.5697(3) 0.4631(3)
H37 H 0.7671 0.5536 0.4225
C70 C 0.7261(3) -0.3302(3) 0.2120(3)
H38 H 0.7827 -0.3379 0.2120
N33 N 0.4116(4) 0.6320(3) 0.3459(3)
N34 N 0.6843(5) -0.3311(4) -0.0021(3)
C71 C 0.6201(4) 0.5349(3) 0.5379(3)
H39 H 0.5779 0.4940 0.5498
C72 C 0.4913(5) 0.6328(4) 0.3767(4)
H40 H 0.5301 0.6854 0.4256
C73 C 0.5996(5) -0.3282(4) -0.0109(4)
H41 H 0.5492 -0.3826 -0.0370
C74 C 0.7529(5) -0.2531(4) 0.0395(4)
H42 H 0.8119 -0.2538 0.0486
N35 N 0.6510(2) -0.4014(2) 0.1915(2)
N36 N 0.6902(3) 0.6891(3) 0.5700(3)
C75 C 0.7389(3) 0.6597(3) 0.5113(4)
H43 H 0.7813 0.7026 0.5018
C76 C 0.6331(5) 0.6264(4) 0.5827(4)
H44 H 0.5990 0.6448 0.6247
Cu5_2 Cu 0.66775(3) -0.51257(3) 0.19102(4)
Cu7A Cu 1.15517(3) 0.02396(4) 0.65873(4)
N31A N 0.8682(2) -0.0796(2) 0.4153(2)
N35_2 N 0.6510(2) 0.5986(2) 0.1915(2)
loop_
_geom_bond_atom_site_label_1
_geom_bond_atom_site_label_2
_geom_bond_site_symmetry_1
_geom_bond_site_symmetry_2
Cu1 N5 1_555 1_555
Cu2 Cu4 1_555 1_555
Cu3 N13 1_555 1_555
Cu4 N1 1_555 1_555
Cu5 N6 1_555 1_555
Cu6 N2 1_555 1_555
Cu7 N17 1_555 1_555
Cu8 N3 1_555 1_555
N1 N3 1_555 1_555
N2 N7 1_555 1_555
N3 C6 1_555 1_555
N4 C1 1_555 1_555
N5 N6 1_555 1_555
N6 C40 1_555 1_555
N7 Cu5 1_555 1_555
N8 Cu4 1_555 1_555
C1 N2 1_555 1_555
N9 C4 1_555 1_555
C2 N8 1_555 1_555
C3 N4 1_555 1_555
N10 C35 1_555 1_555
C4 N1 1_555 1_555
C5 N8 1_555 1_555
C6 N9 1_555 1_555
C7 C6 1_555 1_555
C8 H1 1_555 1_555
C9 C5 1_555 1_555
H2 C9 1_555 1_555
C10 C3 1_555 1_555
C11 C2 1_555 1_555
H3 C11 1_555 1_555
C12 C7 1_555 1_555
H4 C12 1_555 1_555
N11 C16 1_555 1_555
C13 C9 1_555 1_555
H5 C13 1_555 1_555
C14 C10 1_555 1_555
H6 C14 1_555 1_555
C15 C7 1_555 1_555
H7 C15 1_555 1_555
C16 C8 1_555 1_555
H8 C16 1_555 1_555
C17 N11 1_555 1_555
H9 C17 1_555 1_555
C18 C12 1_555 1_555
H10 C18 1_555 1_555
N12 Cu4 1_555 1_555
N13 N17 1_555 1_555
N14 Cu4 1_555 1_555
C19 N12 1_555 1_555
N15 Cu1 1_555 1_555
N16 C21 1_555 1_555
N17 C34 1_555 1_555
N18 C31 1_555 1_555
C20 N12 1_555 1_555
C21 N15 1_555 1_555
C22 C19 1_555 1_555
H11 C22 1_555 1_555
C23 C21 1_555 1_555
C24 N14 1_555 1_555
N19 C18 1_555 1_555
C25 C23 1_555 1_555
H12 C25 1_555 1_555
C26 C23 1_555 1_555
H13 C26 1_555 1_555
N20 C28 1_555 1_555
C27 C22 1_555 1_555
H14 C27 1_555 1_555
C28 C25 1_555 1_555
H15 C28 1_555 1_555
C29 C26 1_555 1_555
H16 C29 1_555 1_555
C30 C15 1_555 1_555
H17 C30 1_555 1_555
N21 Cu2 1_555 1_555
N22 Cu6 1_555 1_555
N23 Cu2 1_555 1_555
C31 N13 1_555 1_555
N24 C42 1_555 1_555
C32 C33 1_555 1_555
C33 H18 1_555 1_555
C34 N18 1_555 1_555
C35 N5 1_555 1_555
C36 N23 1_555 1_555
C37 C32 1_555 1_555
H19 C37 1_555 1_555
C38 N23 1_555 1_555
C39 C20 1_555 1_555
H20 C39 1_555 1_555
C40 N10 1_555 1_555
C41 C36 1_555 1_555
H21 C41 1_555 1_555
N25 Cu3 1_555 1_555
N26 Cu2 1_555 1_555
N27 C44 1_555 1_555
C42 N21 1_555 1_555
C43 N22 1_555 1_555
C44 N25 1_555 1_555
C45 C37 1_555 1_555
H22 C45 1_555 1_555
C46 C33 1_555 1_555
H23 C46 1_555 1_555
C47 C38 1_555 1_555
C48 C38 1_555 1_555
H24 C48 1_555 1_555
C49 C41 1_555 1_555
H25 C49 1_555 1_555
N28 Cu7 1_555 1_555
N29 Cu8 1_555 1_555
N30 Cu8 1_555 1_555
N31 C45 1_555 1_555
C50 N28 1_555 1_555
C51 C42 1_555 1_555
C52 N30 1_555 1_555
C53 N29 1_555 1_555
C54 H26 1_555 1_555
C55 C51 1_555 1_555
H27 C55 1_555 1_555
N32 C50 1_555 1_555
C56 C50 1_555 1_555
C57 C44 1_555 1_555
C58 C56 1_555 1_555
H28 C58 1_555 1_555
C59 C40 1_555 1_555
C60 C56 1_555 1_555
H29 C60 1_555 1_555
C61 C52 1_555 1_555
H30 C61 1_555 1_555
C62 C59 1_555 1_555
H31 C62 1_555 1_555
C63 C57 1_555 1_555
H32 C63 1_555 1_555
C64 C59 1_555 1_555
H33 C64 1_555 1_555
C65 C57 1_555 1_555
H34 C65 1_555 1_555
C66 C64 1_555 1_555
H35 C66 1_555 1_555
C67 C43 1_555 1_555
C68 C58 1_555 1_555
H36 C68 1_555 1_555
C69 C67 1_555 1_555
H37 C69 1_555 1_555
C70 C60 1_555 1_555
H38 C70 1_555 1_555
N33 C66 1_555 1_555
N34 C73 1_555 1_555
C71 C67 1_555 1_555
H39 C71 1_555 1_555
C72 C62 1_555 1_555
H40 C72 1_555 1_555
C73 C63 1_555 1_555
H41 C73 1_555 1_555
C74 C65 1_555 1_555
H42 C74 1_555 1_555
N35 C68 1_555 1_555
N36 C75 1_555 1_555
C75 C69 1_555 1_555
H43 C75 1_555 1_555
C76 C71 1_555 1_555
H44 C76 1_555 1_555
Cu5_2 N35 1_555 1_555
Cu7A N31 1_555 1_555
N31A Cu7 1_555 1_555
N35_2 Cu5 1_555 1_555
Cu6 N8 1_555 1_555
N7 C3 1_555 1_555
C1 C2 1_555 1_555
C4 C5 1_555 1_555
C8 C10 1_555 1_555
C11 C13 1_555 1_555
C14 C17 1_555 1_555
N14 N15 1_555 1_555
C19 C31 1_555 1_555
N16 C24 1_555 1_555
C20 C24 1_555 1_555
N19 C30 1_555 1_555
N20 C29 1_555 1_555
C27 C39 1_555 1_555
N21 N22 1_555 1_555
N24 C43 1_555 1_555
C32 C34 1_555 1_555
C35 C36 1_555 1_555
N25 N26 1_555 1_555
N26 C47 1_555 1_555
N27 C47 1_555 1_555
C46 N31 1_555 1_555
C48 C49 1_555 1_555
N28 N29 1_555 1_555
N30 C51 1_555 1_555
C52 C53 1_555 1_555
C53 N32 1_555 1_555
C54 C55 1_555 1_555
C54 C61 1_555 1_555
C70 N35 1_555 1_555
N33 C72 1_555 1_555
N34 C74 1_555 1_555
N36 C76 1_555 1_555

#END
