
#######################################################################
#
#                 Cambridge Crystallographic Data Centre
#                                CCDC 
#
#######################################################################
#
# If this CIF has been generated from an entry in the Cambridge 
# Structural Database, then it will include bibliographic, chemical, 
# crystal, experimental, refinement or atomic coordinate data resulting 
# from the CCDC's data processing and validation procedures.
#
#######################################################################

data_WOSYUA
_symmetry_cell_setting           triclinic
_symmetry_space_group_name_H-M   'P -1'
_symmetry_Int_Tables_number      2
_space_group_name_Hall           '-P 1'
loop_
_symmetry_equiv_pos_site_id
_symmetry_equiv_pos_as_xyz
1 x,y,z
2 -x,-y,-z
_cell_length_a                   9.8697(4)
_cell_length_b                   16.7466(6)
_cell_length_c                   22.2556(10)
_cell_angle_alpha                87.113(3)
_cell_angle_beta                 77.575(5)
_cell_angle_gamma                89.458(3)
_cell_volume                     3587.77
loop_
_atom_site_label
_atom_site_type_symbol
_atom_site_fract_x
_atom_site_fract_y
_atom_site_fract_z
Eu1 Eu 0.785053(12) 0.470657(8) 0.104164(6)
Eu2 Eu 0.171520(12) 0.109762(8) 0.428653(6)
C1 C 0.5438(3) 0.55827(17) 0.10772(13)
C2 C 0.0850(3) 0.57630(15) 0.04961(12)
C3 C 0.4015(3) 0.59387(16) 0.11822(13)
C4 C 0.3168(3) 0.57787(16) 0.07800(12)
H1 H 0.3512 0.5473 0.0443
C5 C 0.1825(3) 0.60635(16) 0.08682(12)
C6 C 0.1338(3) 0.65772(16) 0.13446(12)
C7 C 0.2188(3) 0.67389(17) 0.17442(13)
H2 H 0.1867 0.7078 0.2063
C8 C 0.3504(3) 0.64107(17) 0.16836(13)
C9 C 0.4229(3) 0.64926(19) 0.22114(14)
C10 C 0.4731(3) 0.72938(19) 0.23230(14)
C11 C 0.5206(3) 0.7383(2) 0.28621(16)
H3 H 0.5235 0.6945 0.3133
C12 C 0.5631(4) 0.8121(3) 0.29899(19)
H4 H 0.5937 0.8184 0.3352
C13 C 0.5609(4) 0.8757(3) 0.2595(2)
H5 H 0.5899 0.9253 0.2689
C14 C 0.5161(4) 0.8681(2) 0.20531(19)
H6 H 0.5161 0.9121 0.1780
C15 C 0.4716(3) 0.7943(2) 0.19245(17)
H7 H 0.4403 0.7886 0.1564
C16 C -0.0073(3) 0.69610(18) 0.14467(14)
C17 C -0.0542(3) 0.73984(18) 0.09278(15)
C18 C -0.1917(4) 0.7624(2) 0.10205(19)
H8 H -0.2513 0.7515 0.1400
C19 C -0.2406(4) 0.8015(3) 0.0545(2)
H9 H -0.3335 0.8162 0.0607
C20 C -0.1558(4) 0.8184(2) -0.0001(2)
H10 H -0.1901 0.8450 -0.0314
C21 C -0.0192(4) 0.7969(2) -0.01040(18)
H11 H 0.0393 0.8087 -0.0485
C22 C 0.0314(3) 0.75734(19) 0.03624(15)
H12 H 0.1243 0.7424 0.0293
C23 C 0.6370(3) 0.33047(18) 0.15153(13)
C24 C 0.3113(3) 0.15892(18) 0.30839(13)
C25 C 0.5389(3) 0.26094(17) 0.16653(13)
C26 C 0.4682(3) 0.24468(17) 0.22751(13)
H13 H 0.4829 0.2770 0.2583
C27 C 0.3768(3) 0.18123(17) 0.24257(13)
C28 C 0.3491(3) 0.13515(18) 0.19632(13)
C29 C 0.4204(3) 0.15058(18) 0.13660(14)
H14 H 0.4039 0.1187 0.1059
C30 C 0.5154(3) 0.21188(18) 0.12100(13)
C31 C 0.2414(3) 0.07086(19) 0.20423(14)
C32 C 0.0967(3) 0.0958(2) 0.20479(14)
C33 C 0.0588(4) 0.1754(2) 0.20146(17)
H15 H 0.1232 0.2152 0.2024
C34 C -0.0743(4) 0.1958(3) 0.19668(19)
H16 H -0.0997 0.2493 0.1942
C35 C -0.1676(4) 0.1375(3) 0.19562(19)
H17 H -0.2573 0.1515 0.1924
C36 C -0.1337(4) 0.0595(3) 0.19917(19)
H18 H -0.1994 0.0204 0.1984
C37 C -0.0004(4) 0.0381(2) 0.20396(18)
H19 H 0.0233 -0.0156 0.2066
C38 C 0.5738(3) 0.2269(2) 0.05322(14)
C39 C 0.6458(4) 0.1601(2) 0.01859(15)
C40 C 0.6615(4) 0.1639(2) -0.04480(16)
H20 H 0.6255 0.2070 -0.0642
C41 C 0.7300(5) 0.1045(3) -0.0791(2)
H21 H 0.7399 0.1072 -0.1217
C42 C 0.7830(5) 0.0420(3) -0.0513(2)
H22 H 0.8279 0.0015 -0.0750
C43 C 0.7721(5) 0.0367(3) 0.0124(2)
H23 H 0.8118 -0.0058 0.0309
C44 C 0.7010(4) 0.0960(2) 0.04707(17)
H24 H 0.6901 0.0929 0.0897
C45 C 0.3842(3) 0.15265(16) 0.48568(13)
C46 C 0.8549(3) 0.09590(16) 0.52853(12)
C47 C 0.5074(3) 0.18024(16) 0.50835(12)
C48 C 0.5157(3) 0.25862(16) 0.52605(12)
C49 C 0.6355(3) 0.28363(16) 0.54193(13)
H25 H 0.6422 0.3364 0.5522
C50 C 0.7459(3) 0.23254(16) 0.54306(13)
C51 C 0.7359(3) 0.15292(16) 0.52845(12)
C52 C 0.6170(3) 0.12791(16) 0.51123(12)
H26 H 0.6101 0.0750 0.5014
C53 C 0.3963(3) 0.31720(17) 0.53675(14)
C54 C 0.3764(3) 0.37647(18) 0.48794(15)
C55 C 0.2729(4) 0.4325(2) 0.5005(2)
H27 H 0.2120 0.4308 0.5388
C56 C 0.2588(5) 0.4916(2) 0.4565(2)
H28 H 0.1878 0.5289 0.4652
C57 C 0.3465(5) 0.4954(2) 0.4015(2)
H29 H 0.3391 0.5369 0.3730
C58 C 0.4460(5) 0.4392(3) 0.3872(2)
H30 H 0.5041 0.4407 0.3482
C59 C 0.4612(5) 0.3787(3) 0.43117(19)
H31 H 0.5297 0.3400 0.4214
C60 C 0.8668(3) 0.26738(17) 0.56391(14)
C61 C 0.9096(3) 0.23011(17) 0.61885(13)
C62 C 0.8266(3) 0.17679(18) 0.65970(14)
H32 H 0.7426 0.1602 0.6520
C63 C 0.8686(4) 0.1482(2) 0.71190(16)
H33 H 0.8129 0.1124 0.7396
C64 C 0.9933(4) 0.1727(2) 0.72283(16)
H34 H 1.0214 0.1533 0.7581
C65 C 1.0758(4) 0.2246(2) 0.68286(16)
H35 H 1.1598 0.2409 0.6909
C66 C 1.0354(3) 0.25303(19) 0.63063(15)
H36 H 1.0929 0.2880 0.6029
C67 C 0.7615(4) 0.5338(2) 0.24977(14)
H37 H 0.6718 0.5449 0.2451
C68 C 0.8027(4) 0.5609(2) 0.30130(15)
H38 H 0.7412 0.5883 0.3308
C69 C 0.9347(4) 0.5462(2) 0.30740(16)
H39 H 0.9649 0.5653 0.3408
C70 C 1.0247(3) 0.5031(2) 0.26449(15)
C71 C 0.9748(3) 0.47668(18) 0.21437(14)
C72 C 1.1652(4) 0.4844(2) 0.26779(17)
H40 H 1.1990 0.5011 0.3010
C73 C 1.2479(4) 0.4442(2) 0.22510(17)
H41 H 1.3382 0.4332 0.2290
C74 C 1.2016(3) 0.41739(19) 0.17296(16)
C75 C 1.0643(3) 0.43282(17) 0.16842(14)
C76 C 1.2877(3) 0.3812(2) 0.12389(18)
H42 H 1.3804 0.3719 0.1246
C77 C 1.2375(3) 0.3595(2) 0.07527(18)
H43 H 1.2944 0.3349 0.0425
C78 C 1.0992(3) 0.37462(19) 0.07520(16)
H44 H 1.0646 0.3587 0.0420
C79 C -0.0894(3) -0.00496(19) 0.38838(14)
H45 H -0.0321 -0.0463 0.3972
C80 C -0.2158(3) -0.0248(2) 0.37467(15)
H46 H -0.2431 -0.0779 0.3756
C81 C -0.2982(3) 0.0352(2) 0.35994(16)
H47 H -0.3833 0.0233 0.3510
C82 C -0.2558(3) 0.1144(2) 0.35824(14)
C83 C -0.1286(3) 0.12920(19) 0.37428(13)
C84 C -0.3349(4) 0.1799(2) 0.34155(16)
H48 H -0.4186 0.1699 0.3304
C85 C -0.2930(4) 0.2550(2) 0.34136(16)
H49 H -0.3451 0.2962 0.3282
C86 C -0.1690(3) 0.2733(2) 0.36107(15)
C87 C -0.0860(3) 0.21047(19) 0.37690(13)
C88 C -0.1266(4) 0.3507(2) 0.36742(17)
H50 H -0.1787 0.3938 0.3571
C89 C -0.0108(4) 0.3640(2) 0.38836(17)
H51 H 0.0162 0.4157 0.3938
C90 C 0.0673(3) 0.29871(19) 0.40169(15)
H52 H 0.1482 0.3081 0.4153
N1 N 1.0138(2) 0.41042(14) 0.11976(11)
N2 N 0.8439(2) 0.49315(14) 0.20735(11)
N3 N -0.0464(2) 0.06930(14) 0.38951(10)
N4 N 0.0327(2) 0.22411(15) 0.39600(11)
O1 O 0.5743(2) 0.50414(13) 0.07023(10)
O2 O 0.63031(19) 0.58165(12) 0.13697(9)
O3 O -0.04006(18) 0.56959(11) 0.07547(8)
O4 O 0.13562(19) 0.55821(12) -0.00421(9)
O5 O -0.0784(2) 0.69391(15) 0.19612(10)
O6 O 0.4293(2) 0.59232(14) 0.25583(10)
O7 O 0.6095(2) 0.39198(13) 0.18135(10)
O8 O 0.7411(2) 0.32639(13) 0.10879(11)
O9 O 0.3327(2) 0.19938(12) 0.35087(9)
O10 O 0.2379(2) 0.09611(13) 0.31959(10)
O11 O 0.2775(2) 0.00154(13) 0.20029(11)
O12 O 0.5513(3) 0.28952(16) 0.02777(11)
O13 O 0.3910(2) 0.08755(12) 0.45983(10)
O14 O 0.27880(19) 0.19631(12) 0.49088(9)
O15 O 0.8257(2) 0.02501(12) 0.54722(10)
O16 O 0.97564(18) 0.12245(11) 0.50992(8)
O17 O 0.9198(2) 0.32842(13) 0.53848(11)
O18 O 0.3298(2) 0.31987(13) 0.58897(10)
Eu1_2 Eu -0.214947(12) 0.470657(8) 0.104164(6)
Eu1A Eu 0.214947(12) 0.529343(8) -0.104164(6)
Eu2_2 Eu 1.171520(12) 0.109762(8) 0.428653(6)
Eu2A Eu 0.828480(12) -0.109762(8) 0.571347(6)
O3_2 O 0.95994(18) 0.56959(11) 0.07547(8)
O4A O 0.86438(19) 0.44179(12) 0.00421(9)
O15A O 0.1743(2) -0.02501(12) 0.45278(10)
O16_2 O -0.02436(18) 0.12245(11) 0.50992(8)
loop_
_geom_bond_atom_site_label_1
_geom_bond_atom_site_label_2
_geom_bond_site_symmetry_1
_geom_bond_site_symmetry_2
Eu1 N1 1_555 1_555
Eu2 N3 1_555 1_555
C1 C3 1_555 1_555
C2 C5 1_555 1_555
C3 C4 1_555 1_555
C4 H1 1_555 1_555
C5 C4 1_555 1_555
C6 C5 1_555 1_555
C7 C6 1_555 1_555
H2 C7 1_555 1_555
C8 C3 1_555 1_555
C9 C8 1_555 1_555
C10 C9 1_555 1_555
C11 C10 1_555 1_555
H3 C11 1_555 1_555
C12 C11 1_555 1_555
H4 C12 1_555 1_555
C13 C12 1_555 1_555
H5 C13 1_555 1_555
C14 C13 1_555 1_555
H6 C14 1_555 1_555
C15 C10 1_555 1_555
H7 C15 1_555 1_555
C16 C6 1_555 1_555
C17 C16 1_555 1_555
C18 C17 1_555 1_555
H8 C18 1_555 1_555
C19 C18 1_555 1_555
H9 C19 1_555 1_555
C20 C19 1_555 1_555
H10 C20 1_555 1_555
C21 C20 1_555 1_555
H11 C21 1_555 1_555
C22 C17 1_555 1_555
H12 C22 1_555 1_555
C23 C25 1_555 1_555
C24 C27 1_555 1_555
C25 C26 1_555 1_555
C26 H13 1_555 1_555
C27 C26 1_555 1_555
C28 C27 1_555 1_555
C29 C28 1_555 1_555
H14 C29 1_555 1_555
C30 C25 1_555 1_555
C31 C28 1_555 1_555
C32 C31 1_555 1_555
C33 C32 1_555 1_555
H15 C33 1_555 1_555
C34 C33 1_555 1_555
H16 C34 1_555 1_555
C35 C34 1_555 1_555
H17 C35 1_555 1_555
C36 C35 1_555 1_555
H18 C36 1_555 1_555
C37 C32 1_555 1_555
H19 C37 1_555 1_555
C38 C30 1_555 1_555
C39 C38 1_555 1_555
C40 C39 1_555 1_555
H20 C40 1_555 1_555
C41 C40 1_555 1_555
H21 C41 1_555 1_555
C42 C41 1_555 1_555
H22 C42 1_555 1_555
C43 C42 1_555 1_555
H23 C43 1_555 1_555
C44 C39 1_555 1_555
H24 C44 1_555 1_555
C45 C47 1_555 1_555
C46 C51 1_555 1_555
C47 C48 1_555 1_555
C48 C49 1_555 1_555
C49 H25 1_555 1_555
C50 C49 1_555 1_555
C51 C50 1_555 1_555
C52 C47 1_555 1_555
H26 C52 1_555 1_555
C53 C48 1_555 1_555
C54 C53 1_555 1_555
C55 C54 1_555 1_555
H27 C55 1_555 1_555
C56 C55 1_555 1_555
H28 C56 1_555 1_555
C57 C56 1_555 1_555
H29 C57 1_555 1_555
C58 C57 1_555 1_555
H30 C58 1_555 1_555
C59 C54 1_555 1_555
H31 C59 1_555 1_555
C60 C50 1_555 1_555
C61 C60 1_555 1_555
C62 C61 1_555 1_555
H32 C62 1_555 1_555
C63 C62 1_555 1_555
H33 C63 1_555 1_555
C64 C63 1_555 1_555
H34 C64 1_555 1_555
C65 C64 1_555 1_555
H35 C65 1_555 1_555
C66 C61 1_555 1_555
H36 C66 1_555 1_555
C67 H37 1_555 1_555
C68 C67 1_555 1_555
H38 C68 1_555 1_555
C69 C68 1_555 1_555
H39 C69 1_555 1_555
C70 C69 1_555 1_555
C71 C70 1_555 1_555
C72 C70 1_555 1_555
H40 C72 1_555 1_555
C73 C72 1_555 1_555
H41 C73 1_555 1_555
C74 C73 1_555 1_555
C75 C71 1_555 1_555
C76 C74 1_555 1_555
H42 C76 1_555 1_555
C77 C76 1_555 1_555
H43 C77 1_555 1_555
C78 C77 1_555 1_555
H44 C78 1_555 1_555
C79 H45 1_555 1_555
C80 C79 1_555 1_555
H46 C80 1_555 1_555
C81 C80 1_555 1_555
H47 C81 1_555 1_555
C82 C81 1_555 1_555
C83 C82 1_555 1_555
C84 C82 1_555 1_555
H48 C84 1_555 1_555
C85 C84 1_555 1_555
H49 C85 1_555 1_555
C86 C85 1_555 1_555
C87 C83 1_555 1_555
C88 C86 1_555 1_555
H50 C88 1_555 1_555
C89 C88 1_555 1_555
H51 C89 1_555 1_555
C90 C89 1_555 1_555
H52 C90 1_555 1_555
N1 C75 1_555 1_555
N2 Eu1 1_555 1_555
N3 C79 1_555 1_555
N4 Eu2 1_555 1_555
O1 Eu1 1_555 1_555
O2 Eu1 1_555 1_555
O3 C2 1_555 1_555
O4 C2 1_555 1_555
O5 C16 1_555 1_555
O6 C9 1_555 1_555
O7 Eu1 1_555 1_555
O8 Eu1 1_555 1_555
O9 Eu2 1_555 1_555
O10 Eu2 1_555 1_555
O11 C31 1_555 1_555
O12 C38 1_555 1_555
O13 Eu2 1_555 1_555
O14 Eu2 1_555 1_555
O15 C46 1_555 1_555
O16 C46 1_555 1_555
O17 C60 1_555 1_555
O18 C53 1_555 1_555
Eu1_2 O3 1_555 1_555
Eu1A O4 1_555 1_555
Eu2_2 O16 1_555 1_555
Eu2A O15 1_555 1_555
O3_2 Eu1 1_555 1_555
O4A Eu1 1_555 1_555
O15A Eu2 1_555 1_555
O16_2 Eu2 1_555 1_555
C1 O1 1_555 1_555
C1 O2 1_555 1_555
C7 C8 1_555 1_555
C14 C15 1_555 1_555
C21 C22 1_555 1_555
C23 O7 1_555 1_555
C23 O8 1_555 1_555
C24 O9 1_555 1_555
C24 O10 1_555 1_555
C29 C30 1_555 1_555
C36 C37 1_555 1_555
C43 C44 1_555 1_555
C45 O13 1_555 1_555
C45 O14 1_555 1_555
C51 C52 1_555 1_555
C58 C59 1_555 1_555
C65 C66 1_555 1_555
C67 N2 1_555 1_555
C71 N2 1_555 1_555
C74 C75 1_555 1_555
C78 N1 1_555 1_555
C83 N3 1_555 1_555
C86 C87 1_555 1_555
C87 N4 1_555 1_555
C90 N4 1_555 1_555

#END
