
#######################################################################
#
#                 Cambridge Crystallographic Data Centre
#                                CCDC 
#
#######################################################################
#
# If this CIF has been generated from an entry in the Cambridge 
# Structural Database, then it will include bibliographic, chemical, 
# crystal, experimental, refinement or atomic coordinate data resulting 
# from the CCDC's data processing and validation procedures.
#
#######################################################################

data_WOSYOU
_symmetry_cell_setting           monoclinic
_symmetry_space_group_name_H-M   'P 21/n'
_symmetry_Int_Tables_number      14
_space_group_name_Hall           '-P 2yn'
loop_
_symmetry_equiv_pos_site_id
_symmetry_equiv_pos_as_xyz
1 x,y,z
2 1/2-x,1/2+y,1/2-z
3 -x,-y,-z
4 1/2+x,1/2-y,1/2+z
_cell_length_a                   9.6510(10)
_cell_length_b                   15.7906(12)
_cell_length_c                   12.8901(11)
_cell_angle_alpha                90
_cell_angle_beta                 92.055(9)
_cell_angle_gamma                90
_cell_volume                     1963.12
loop_
_atom_site_label
_atom_site_type_symbol
_atom_site_fract_x
_atom_site_fract_y
_atom_site_fract_z
Cu1 Cu 1.0000 0.0000 0.0000
C1 C 1.1332(16) 0.1630(7) -0.0005(9)
H1 H 1.2181 0.1560 0.0412
H2 H 1.1404 0.2146 -0.0407
C2 C 1.0098(13) 0.1683(7) 0.0693(10)
H3 H 1.0257 0.2120 0.1212
H4 H 0.9269 0.1829 0.0284
C3 C 0.8395(14) 0.0869(7) 0.1517(8)
H5 H 0.7825 0.0886 0.0873
C4 C 0.7927(15) 0.1642(7) 0.2176(9)
H6 H 0.8169 0.2159 0.1833
H7 H 0.8384 0.1622 0.2849
H8 H 0.6942 0.1621 0.2249
C5 C 0.8062(14) 0.0026(8) 0.2037(7)
H9 H 0.7330 0.0118 0.2521
H10 H 0.8877 -0.0163 0.2434
C6 C 0.7593(13) -0.0704(7) 0.1253(8)
C7 C 0.6432(12) -0.0451(9) 0.0604(10)
H11 H 0.6694 0.0018 0.0178
H12 H 0.5683 -0.0283 0.1028
H13 H 0.6141 -0.0916 0.0169
C8 C 0.7197(13) -0.1450(7) 0.1942(9)
H14 H 0.7970 -0.1595 0.2398
H15 H 0.6954 -0.1929 0.1513
H16 H 0.6420 -0.1295 0.2345
C9 C 1.0933(10) 0.0689(7) 0.1977(8)
H17 H 1.1829 0.0629 0.1667
H18 H 1.0702 0.0151 0.2292
C10 C 0.9851(17) 0.1717(12) 0.5496(11)
C11 C 1.2990(14) 0.3469(9) 0.3475(8)
C12 C 1.1027(12) 0.1408(7) 0.2857(9)
C13 C 1.0414(12) 0.1269(7) 0.3790(8)
H19 H 0.9939 0.0768 0.3908
C14 C 1.0518(11) 0.1893(7) 0.4554(7)
C15 C 1.1317(9) 0.2598(6) 0.4419(6)
H20 H 1.1386 0.2997 0.4948
C16 C 1.2010(10) 0.2733(7) 0.3537(7)
C17 C 1.1878(11) 0.2131(8) 0.2748(8)
H21 H 1.2356 0.2205 0.2141
N1 N 0.9911(11) 0.0891(5) 0.1185(6)
O1 O 1.2913(8) 0.4069(5) 0.4091(5)
O2 O 1.3998(10) 0.3385(7) 0.2865(6)
O3 O 0.9829(8) 0.2275(6) 0.6154(6)
H22 H 0.9418 0.2104 0.6659
O4 O 0.9362(18) 0.1077(10) 0.5694(8)
N2 N 1.1111(8) 0.0840(5) -0.0761(6)
H23 H 1.048(4) 0.097(5) -0.127(5)
C1B C 0.8668(16) -0.1630(7) 0.0005(9)
H1B H 0.7819 -0.1560 -0.0412
H2B H 0.8596 -0.2146 0.0407
C2B C 0.9902(13) -0.1683(7) -0.0693(10)
H3B H 0.9743 -0.2120 -0.1212
H4B H 1.0731 -0.1829 -0.0284
C3B C 1.1605(14) -0.0869(7) -0.1517(8)
H5B H 1.2175 -0.0886 -0.0873
C4B C 1.2073(15) -0.1642(7) -0.2176(9)
H6B H 1.1831 -0.2159 -0.1833
H7B H 1.1616 -0.1622 -0.2849
H8B H 1.3058 -0.1621 -0.2249
C5B C 1.1938(14) -0.0026(8) -0.2037(7)
H9B H 1.2670 -0.0118 -0.2521
H10B H 1.1123 0.0163 -0.2434
C6B C 1.2407(13) 0.0704(7) -0.1253(8)
C7B C 1.3568(12) 0.0451(9) -0.0604(10)
H11B H 1.3306 -0.0018 -0.0178
H12B H 1.4317 0.0283 -0.1028
H13B H 1.3859 0.0916 -0.0169
C8B C 1.2803(13) 0.1450(7) -0.1942(9)
H14B H 1.2030 0.1595 -0.2398
H15B H 1.3046 0.1929 -0.1513
H16B H 1.3580 0.1295 -0.2345
C9B C 0.9067(10) -0.0689(7) -0.1977(8)
H17B H 0.8171 -0.0629 -0.1667
H18B H 0.9298 -0.0151 -0.2292
C10B C 1.0149(17) -0.1717(12) -0.5496(11)
C11B C 0.7010(14) -0.3469(9) -0.3475(8)
C12B C 0.8973(12) -0.1408(7) -0.2857(9)
C13B C 0.9586(12) -0.1269(7) -0.3790(8)
H19B H 1.0061 -0.0768 -0.3908
C14B C 0.9482(11) -0.1893(7) -0.4554(7)
C15B C 0.8683(9) -0.2598(6) -0.4419(6)
H20B H 0.8614 -0.2997 -0.4948
C16B C 0.7990(10) -0.2733(7) -0.3537(7)
C17B C 0.8122(11) -0.2131(8) -0.2748(8)
H21B H 0.7644 -0.2205 -0.2141
N1B N 1.0089(11) -0.0891(5) -0.1185(6)
O1B O 0.7087(8) -0.4069(5) -0.4091(5)
O2B O 0.6002(10) -0.3385(7) -0.2865(6)
O3B O 1.0171(8) -0.2275(6) -0.6154(6)
H22B H 1.0582 -0.2104 -0.6659
O4B O 1.0638(18) -0.1077(10) -0.5694(8)
N2B N 0.8889(8) -0.0840(5) 0.0761(6)
H23B H 0.952(4) -0.097(5) 0.127(5)
Cu1A Cu 0.5000 -0.5000 -0.5000
Cu1A_2 Cu 1.5000 0.5000 0.5000
O1A O 1.2087(8) -0.0931(5) 0.0909(5)
O1C O 0.7913(8) 0.0931(5) -0.0909(5)
loop_
_geom_bond_atom_site_label_1
_geom_bond_atom_site_label_2
_geom_bond_site_symmetry_1
_geom_bond_site_symmetry_2
Cu1 N1 1_555 1_555
C1 H1 1_555 1_555
H2 C1 1_555 1_555
C2 C1 1_555 1_555
H3 C2 1_555 1_555
H4 C2 1_555 1_555
C3 H5 1_555 1_555
C4 C3 1_555 1_555
H6 C4 1_555 1_555
H7 C4 1_555 1_555
H8 C4 1_555 1_555
C5 C3 1_555 1_555
H9 C5 1_555 1_555
H10 C5 1_555 1_555
C6 C5 1_555 1_555
C7 C6 1_555 1_555
H11 C7 1_555 1_555
H12 C7 1_555 1_555
H13 C7 1_555 1_555
C8 C6 1_555 1_555
H14 C8 1_555 1_555
H15 C8 1_555 1_555
H16 C8 1_555 1_555
C9 H17 1_555 1_555
H18 C9 1_555 1_555
C10 C14 1_555 1_555
C11 C16 1_555 1_555
C12 C9 1_555 1_555
C13 C12 1_555 1_555
H19 C13 1_555 1_555
C14 C13 1_555 1_555
C15 C14 1_555 1_555
H20 C15 1_555 1_555
C16 C15 1_555 1_555
C17 C12 1_555 1_555
H21 C17 1_555 1_555
N1 C2 1_555 1_555
O1 C11 1_555 1_555
O2 C11 1_555 1_555
O3 C10 1_555 1_555
H22 O3 1_555 1_555
O4 C10 1_555 1_555
N2 Cu1 1_555 1_555
H23 N2 1_555 1_555
C1B H1B 1_555 1_555
H2B C1B 1_555 1_555
C2B C1B 1_555 1_555
H3B C2B 1_555 1_555
H4B C2B 1_555 1_555
C3B H5B 1_555 1_555
C4B C3B 1_555 1_555
H6B C4B 1_555 1_555
H7B C4B 1_555 1_555
H8B C4B 1_555 1_555
C5B C3B 1_555 1_555
H9B C5B 1_555 1_555
H10B C5B 1_555 1_555
C6B N2 1_555 1_555
C7B C6B 1_555 1_555
H11B C7B 1_555 1_555
H12B C7B 1_555 1_555
H13B C7B 1_555 1_555
C8B C6B 1_555 1_555
H14B C8B 1_555 1_555
H15B C8B 1_555 1_555
H16B C8B 1_555 1_555
C9B H17B 1_555 1_555
H18B C9B 1_555 1_555
C10B C14B 1_555 1_555
C11B C16B 1_555 1_555
C12B C9B 1_555 1_555
C13B C12B 1_555 1_555
H19B C13B 1_555 1_555
C14B C13B 1_555 1_555
C15B C14B 1_555 1_555
H20B C15B 1_555 1_555
C16B C15B 1_555 1_555
C17B C12B 1_555 1_555
H21B C17B 1_555 1_555
N1B Cu1 1_555 1_555
O1B C11B 1_555 1_555
O2B C11B 1_555 1_555
O3B C10B 1_555 1_555
H22B O3B 1_555 1_555
O4B C10B 1_555 1_555
N2B Cu1 1_555 1_555
H23B N2B 1_555 1_555
Cu1A O1B 1_555 1_555
Cu1A_2 O1 1_555 1_555
O1A Cu1 1_555 1_555
O1C Cu1 1_555 1_555
C1 N2 1_555 1_555
C3 N1 1_555 1_555
C6 N2B 1_555 1_555
C9 N1 1_555 1_555
C16 C17 1_555 1_555
C1B N2B 1_555 1_555
C2B N1B 1_555 1_555
C3B N1B 1_555 1_555
C5B C6B 1_555 1_555
C9B N1B 1_555 1_555
C16B C17B 1_555 1_555

#END
