
#######################################################################
#
#                 Cambridge Crystallographic Data Centre
#                                CCDC 
#
#######################################################################
#
# If this CIF has been generated from an entry in the Cambridge 
# Structural Database, then it will include bibliographic, chemical, 
# crystal, experimental, refinement or atomic coordinate data resulting 
# from the CCDC's data processing and validation procedures.
#
#######################################################################

data_WOSZAH
_symmetry_cell_setting           triclinic
_symmetry_space_group_name_H-M   'P -1'
_symmetry_Int_Tables_number      2
_space_group_name_Hall           '-P 1'
loop_
_symmetry_equiv_pos_site_id
_symmetry_equiv_pos_as_xyz
1 x,y,z
2 -x,-y,-z
_cell_length_a                   10.5417(4)
_cell_length_b                   12.0923(6)
_cell_length_c                   12.4320(4)
_cell_angle_alpha                82.373(3)
_cell_angle_beta                 81.126(3)
_cell_angle_gamma                89.446(3)
_cell_volume                     1551.83
loop_
_atom_site_label
_atom_site_type_symbol
_atom_site_fract_x
_atom_site_fract_y
_atom_site_fract_z
Dy1 Dy 0.449728(18) 0.039262(16) 0.683732(15)
C1 C 0.4921(4) 0.2650(4) 0.5915(3)
C2 C 0.5016(4) 0.3865(4) 0.5445(3)
C3 C 0.5864(4) 0.4267(4) 0.4480(3)
C4 C 0.4167(4) 0.4606(4) 0.5947(3)
H1 H 0.3608 0.4342 0.6582
C5 C 0.6893(4) 0.3511(4) 0.4013(4)
C6 C 0.7405(4) 0.3672(4) 0.2815(4)
C7 C 0.8668(5) 0.3376(4) 0.2484(5)
H2 H 0.9164 0.3072 0.3005
C8 C 0.9193(6) 0.3531(5) 0.1376(5)
H3 H 1.0047 0.3355 0.1158
C9 C 0.8462(6) 0.3935(5) 0.0623(5)
H4 H 0.8819 0.4038 -0.0116
C10 C 0.7184(6) 0.4204(5) 0.0925(5)
H5 H 0.6683 0.4459 0.0391
C11 C 0.6660(6) 0.4090(4) 0.2028(4)
H6 H 0.5814 0.4292 0.2240
C12 C 0.2302(4) 0.0183(4) 0.8383(4)
C13 C 0.1109(4) 0.0106(4) 0.9227(3)
C14 C 0.0441(4) 0.1063(4) 0.9490(3)
C15 C 0.0666(4) -0.0939(4) 0.9736(4)
H7 H 0.1120 -0.1569 0.9557
C16 C 0.0882(4) 0.2225(4) 0.8973(3)
C17 C 0.0327(4) 0.2703(4) 0.7992(4)
C18 C -0.0521(6) 0.2093(5) 0.7539(5)
H8 H -0.0752 0.1369 0.7860
C19 C -0.1018(6) 0.2547(5) 0.6624(5)
H9 H -0.1580 0.2136 0.6321
C20 C -0.0667(7) 0.3639(6) 0.6154(6)
H10 H -0.0998 0.3957 0.5534
C21 C 0.0165(7) 0.4245(6) 0.6604(5)
H11 H 0.0398 0.4968 0.6283
C22 C 0.0657(6) 0.3788(4) 0.7529(4)
H12 H 0.1206 0.4205 0.7840
C23 C 0.7232(4) 0.0136(3) 0.5181(4)
C24 C 0.8664(4) 0.0038(4) 0.5095(3)
C25 C 0.9238(4) -0.0428(4) 0.5988(3)
C26 C 0.9429(4) 0.0456(4) 0.4109(3)
H13 H 0.9045 0.0756 0.3512
C27 C 0.8492(4) -0.0964(4) 0.7066(4)
C28 C 0.7957(4) -0.2099(4) 0.7103(4)
C29 C 0.8055(5) -0.2650(5) 0.6182(4)
H14 H 0.8452 -0.2301 0.5504
C30 C 0.7558(7) -0.3726(5) 0.6279(6)
H15 H 0.7608 -0.4094 0.5663
C31 C 0.6987(7) -0.4245(6) 0.7298(6)
H16 H 0.6674 -0.4971 0.7365
C32 C 0.6880(6) -0.3712(5) 0.8191(5)
H17 H 0.6471 -0.4068 0.8863
C33 C 0.7368(6) -0.2642(5) 0.8128(5)
H18 H 0.7309 -0.2287 0.8753
O1 O 0.4618(3) 0.1944(2) 0.5338(2)
O2 O 0.5070(3) 0.2369(3) 0.6899(2)
O3 O 0.2653(3) 0.1122(3) 0.7849(3)
O4 O 0.2938(3) -0.0674(3) 0.8223(3)
O5 O 0.6621(3) 0.0236(3) 0.6112(3)
O6 O 0.6736(3) 0.0132(3) 0.4331(3)
O7 O 0.7319(3) 0.2794(3) 0.4631(3)
O8 O 0.1578(3) 0.2757(3) 0.9410(3)
O9 O 0.8447(4) -0.0520(3) 0.7886(3)
O10 O 0.4923(3) -0.1572(3) 0.6834(3)
H19 H 0.5170 -0.1725 0.6187
H20 H 0.4366 -0.2062 0.7148
O11 O 0.5527(4) 0.0160(4) 0.8397(3)
H21 H 0.5253 -0.0393 0.8868
H22 H 0.5672 0.0692 0.8747
C1A C 0.5079(4) 0.7350(4) 0.4085(3)
C2A C 0.4984(4) 0.6135(4) 0.4555(3)
C3A C 0.4136(4) 0.5733(4) 0.5520(3)
C4A C 0.5833(4) 0.5394(4) 0.4053(3)
H1A H 0.6392 0.5658 0.3418
C5A C 0.3107(4) 0.6489(4) 0.5987(4)
C6A C 0.2595(4) 0.6328(4) 0.7185(4)
C7A C 0.1332(5) 0.6624(4) 0.7516(5)
H2A H 0.0836 0.6928 0.6995
C8A C 0.0807(6) 0.6469(5) 0.8624(5)
H3A H -0.0047 0.6645 0.8842
C9A C 0.1538(6) 0.6065(5) 0.9377(5)
H4A H 0.1181 0.5962 1.0116
C10A C 0.2816(6) 0.5796(5) 0.9075(5)
H5A H 0.3317 0.5541 0.9609
C11A C 0.3340(6) 0.5910(4) 0.7972(4)
H6A H 0.4186 0.5708 0.7760
O1A O 0.5382(3) 0.8056(2) 0.4662(2)
O2A O 0.4930(3) 0.7631(3) 0.3101(2)
O7A O 0.2681(3) 0.7206(3) 0.5369(3)
C12A C -0.2302(4) -0.0183(4) 1.1617(4)
C13A C -0.1109(4) -0.0106(4) 1.0773(3)
C14A C -0.0441(4) -0.1063(4) 1.0510(3)
C15A C -0.0666(4) 0.0939(4) 1.0264(4)
H7A H -0.1120 0.1569 1.0443
C16A C -0.0882(4) -0.2225(4) 1.1027(3)
C17A C -0.0327(4) -0.2703(4) 1.2008(4)
C18A C 0.0521(6) -0.2093(5) 1.2461(5)
H8A H 0.0752 -0.1369 1.2140
C19A C 0.1018(6) -0.2547(5) 1.3376(5)
H9A H 0.1580 -0.2136 1.3679
C20A C 0.0667(7) -0.3639(6) 1.3846(6)
H10A H 0.0998 -0.3957 1.4466
C21A C -0.0165(7) -0.4245(6) 1.3396(5)
H11A H -0.0398 -0.4968 1.3717
C22A C -0.0657(6) -0.3788(4) 1.2471(4)
H12A H -0.1206 -0.4205 1.2160
O3A O -0.2653(3) -0.1122(3) 1.2151(3)
O4A O -0.2938(3) 0.0674(3) 1.1777(3)
O8A O -0.1578(3) -0.2757(3) 1.0590(3)
C23A C 1.2768(4) -0.0136(3) 0.4819(4)
C24A C 1.1336(4) -0.0038(4) 0.4905(3)
C25A C 1.0762(4) 0.0428(4) 0.4012(3)
C26A C 1.0571(4) -0.0456(4) 0.5891(3)
H13A H 1.0955 -0.0756 0.6488
C27A C 1.1508(4) 0.0964(4) 0.2934(4)
C28A C 1.2043(4) 0.2099(4) 0.2897(4)
C29A C 1.1945(5) 0.2650(5) 0.3818(4)
H14A H 1.1548 0.2301 0.4496
C30A C 1.2442(7) 0.3726(5) 0.3721(6)
H15A H 1.2392 0.4094 0.4337
C31A C 1.3013(7) 0.4245(6) 0.2702(6)
H16A H 1.3326 0.4971 0.2635
C32A C 1.3120(6) 0.3712(5) 0.1809(5)
H17A H 1.3529 0.4068 0.1137
C33A C 1.2632(6) 0.2642(5) 0.1872(5)
H18A H 1.2691 0.2287 0.1247
O5A O 1.3379(3) -0.0236(3) 0.3888(3)
O9A O 1.1553(4) 0.0520(3) 0.2114(3)
O6A O 1.3264(3) -0.0132(3) 0.5669(3)
Dy1A Dy -0.449728(18) -0.039262(16) 1.316268(15)
O10A O -0.4923(3) 0.1572(3) 1.3166(3)
H19A H -0.5170 0.1725 1.3813
H20A H -0.4366 0.2062 1.2852
O11A O -0.5527(4) -0.0160(4) 1.1603(3)
H21A H -0.5253 0.0393 1.1132
H22A H -0.5672 -0.0692 1.1253
Dy1_2 Dy 1.449728(18) 0.039262(16) 0.683732(15)
Dy1A_2 Dy 0.550272(18) -0.039262(16) 0.316268(15)
Dy1A_3 Dy 0.550272(18) 0.960738(16) 0.316268(15)
Dy1A_4 Dy 1.550272(18) -0.039262(16) 0.316268(15)
O1A_2 O -0.4618(3) -0.1944(2) 1.4662(2)
O2A_2 O -0.5070(3) -0.2369(3) 1.3101(2)
O5A_2 O -0.6621(3) -0.0236(3) 1.3888(3)
O6_2 O -0.3264(3) 0.0132(3) 1.4331(3)
O6A_2 O 0.3264(3) -0.0132(3) 0.5669(3)
O12 O 0.4250(8) 0.8399(5) 1.0045(6)
H23 H 0.3729 0.8388 0.9588
H24 H 0.4397 0.7732 1.0305
O13 O 0.4424(5) 0.3267(4) 0.8915(3)
H25 H 0.4671 0.3013 0.8312
H26 H 0.3621 0.3144 0.9093
loop_
_geom_bond_atom_site_label_1
_geom_bond_atom_site_label_2
_geom_bond_site_symmetry_1
_geom_bond_site_symmetry_2
Dy1 O1 1_555 1_555
C1 C2 1_555 1_555
C2 C3 1_555 1_555
C3 C5 1_555 1_555
C4 C2 1_555 1_555
H1 C4 1_555 1_555
C5 C6 1_555 1_555
C6 C7 1_555 1_555
C7 H2 1_555 1_555
C8 C7 1_555 1_555
H3 C8 1_555 1_555
C9 C8 1_555 1_555
H4 C9 1_555 1_555
C10 C9 1_555 1_555
H5 C10 1_555 1_555
C11 C6 1_555 1_555
H6 C11 1_555 1_555
C12 C13 1_555 1_555
C13 C14 1_555 1_555
C14 C16 1_555 1_555
C15 C13 1_555 1_555
H7 C15 1_555 1_555
C16 C17 1_555 1_555
C17 C18 1_555 1_555
C18 H8 1_555 1_555
C19 C18 1_555 1_555
H9 C19 1_555 1_555
C20 C19 1_555 1_555
H10 C20 1_555 1_555
C21 C20 1_555 1_555
H11 C21 1_555 1_555
C22 C17 1_555 1_555
H12 C22 1_555 1_555
C23 C24 1_555 1_555
C24 C25 1_555 1_555
C25 C27 1_555 1_555
C26 C24 1_555 1_555
H13 C26 1_555 1_555
C27 C28 1_555 1_555
C28 C29 1_555 1_555
C29 H14 1_555 1_555
C30 C29 1_555 1_555
H15 C30 1_555 1_555
C31 C30 1_555 1_555
H16 C31 1_555 1_555
C32 C31 1_555 1_555
H17 C32 1_555 1_555
C33 C28 1_555 1_555
H18 C33 1_555 1_555
O1 C1 1_555 1_555
O2 Dy1 1_555 1_555
O3 Dy1 1_555 1_555
O4 Dy1 1_555 1_555
O5 Dy1 1_555 1_555
O6 C23 1_555 1_555
O7 C5 1_555 1_555
O8 C16 1_555 1_555
O9 C27 1_555 1_555
O10 Dy1 1_555 1_555
H19 O10 1_555 1_555
H20 O10 1_555 1_555
O11 Dy1 1_555 1_555
H21 O11 1_555 1_555
H22 O11 1_555 1_555
O12 H23 1_555 1_555
H24 O12 1_555 1_555
O13 H25 1_555 1_555
H26 O13 1_555 1_555
C1A C2A 1_555 1_555
C2A C3A 1_555 1_555
C3A C4 1_555 1_555
C4A C3 1_555 1_555
H1A C4A 1_555 1_555
C5A C3A 1_555 1_555
C6A C5A 1_555 1_555
C7A C6A 1_555 1_555
H2A C7A 1_555 1_555
C8A C7A 1_555 1_555
H3A C8A 1_555 1_555
C9A C8A 1_555 1_555
H4A C9A 1_555 1_555
C10A C9A 1_555 1_555
H5A C10A 1_555 1_555
C11A C6A 1_555 1_555
H6A C11A 1_555 1_555
O1A C1A 1_555 1_555
O2A C1A 1_555 1_555
O7A C5A 1_555 1_555
C12A C13A 1_555 1_555
C13A C14A 1_555 1_555
C14A C15 1_555 1_555
C15A C14 1_555 1_555
H7A C15A 1_555 1_555
C16A C14A 1_555 1_555
C17A C16A 1_555 1_555
C18A C17A 1_555 1_555
H8A C18A 1_555 1_555
C19A C18A 1_555 1_555
H9A C19A 1_555 1_555
C20A C19A 1_555 1_555
H10A C20A 1_555 1_555
C21A C20A 1_555 1_555
H11A C21A 1_555 1_555
C22A C17A 1_555 1_555
H12A C22A 1_555 1_555
O3A C12A 1_555 1_555
O4A C12A 1_555 1_555
O8A C16A 1_555 1_555
C23A C24A 1_555 1_555
C24A C25A 1_555 1_555
C25A C26 1_555 1_555
C26A C25 1_555 1_555
H13A C26A 1_555 1_555
C27A C25A 1_555 1_555
C28A C27A 1_555 1_555
C29A C28A 1_555 1_555
H14A C29A 1_555 1_555
C30A C29A 1_555 1_555
H15A C30A 1_555 1_555
C31A C30A 1_555 1_555
H16A C31A 1_555 1_555
C32A C31A 1_555 1_555
H17A C32A 1_555 1_555
C33A C28A 1_555 1_555
H18A C33A 1_555 1_555
O5A C23A 1_555 1_555
O9A C27A 1_555 1_555
O6A C23A 1_555 1_555
Dy1A O3A 1_555 1_555
O10A Dy1A 1_555 1_555
H19A O10A 1_555 1_555
H20A O10A 1_555 1_555
O11A Dy1A 1_555 1_555
H21A O11A 1_555 1_555
H22A O11A 1_555 1_555
Dy1_2 O6A 1_555 1_555
Dy1A_2 O6 1_555 1_555
Dy1A_3 O1A 1_555 1_555
Dy1A_4 O5A 1_555 1_555
O1A_2 Dy1A 1_555 1_555
O2A_2 Dy1A 1_555 1_555
O5A_2 Dy1A 1_555 1_555
O6_2 Dy1A 1_555 1_555
O6A_2 Dy1 1_555 1_555
C1 O2 1_555 1_555
C10 C11 1_555 1_555
C12 O3 1_555 1_555
C12 O4 1_555 1_555
C21 C22 1_555 1_555
C23 O5 1_555 1_555
C32 C33 1_555 1_555
C2A C4A 1_555 1_555
C10A C11A 1_555 1_555
O2A Dy1A_3 1_555 1_555
C13A C15A 1_555 1_555
C21A C22A 1_555 1_555
O4A Dy1A 1_555 1_555
C24A C26A 1_555 1_555
C32A C33A 1_555 1_555

#END
