
#######################################################################
#
#                 Cambridge Crystallographic Data Centre
#                                CCDC 
#
#######################################################################
#
# If this CIF has been generated from an entry in the Cambridge 
# Structural Database, then it will include bibliographic, chemical, 
# crystal, experimental, refinement or atomic coordinate data resulting 
# from the CCDC's data processing and validation procedures.
#
#######################################################################

data_WOTNUQ
_symmetry_cell_setting           trigonal
_symmetry_space_group_name_H-M   'P 31 2 1'
_symmetry_Int_Tables_number      152
_space_group_name_Hall           'P 31 2"'
loop_
_symmetry_equiv_pos_site_id
_symmetry_equiv_pos_as_xyz
1 x,y,z
2 -y,x-y,1/3+z
3 -x+y,-x,2/3+z
4 x-y,-y,2/3-z
5 -x,-x+y,1/3-z
6 y,x,-z
_cell_length_a                   7.4200(9)
_cell_length_b                   7.4200(9)
_cell_length_c                   12.110(2)
_cell_angle_alpha                90
_cell_angle_beta                 90
_cell_angle_gamma                120
_cell_volume                     577.408
loop_
_atom_site_label
_atom_site_type_symbol
_atom_site_fract_x
_atom_site_fract_y
_atom_site_fract_z
Zn1 Zn 0.69596(10) 1.0000 0.3333
O1 O 0.6157(5) 0.7387(5) 0.43497(19)
O2 O 0.9725(5) 1.1044(5) 0.4397(2)
O3 O 0.4456(6) 0.8403(9) 0.2265(3)
H1 H 0.330(6) 0.835(11) 0.245(3)
H2 H 0.460(8) 0.857(11) 0.1542(18)
C1 C 0.9636(8) 0.9636(8) 0.5000
C2 C 0.7547(8) 0.7547(8) 0.5000
O1E O 0.7387(5) 0.6157(5) 0.56503(19)
O2E O 1.1044(5) 0.9725(5) 0.5603(2)
O3C O 0.6053(11) 1.1597(9) 0.4402(3)
H1C H 0.495(13) 1.165(11) 0.422(3)
H2C H 0.603(14) 1.143(11) 0.5125(18)
Zn1A Zn 1.0000 0.69596(10) 0.6666
O1C O 0.8770(7) 1.2613(5) 0.23170(19)
O2C O 0.8681(7) 0.8956(5) 0.2270(2)
O4 O 0.3554(5) 0.3572(5) 0.3341(3)
H3 H 0.240(4) 0.299(7) 0.372(4)
H4 H 0.435(7) 0.468(5) 0.371(3)
loop_
_geom_bond_atom_site_label_1
_geom_bond_atom_site_label_2
_geom_bond_site_symmetry_1
_geom_bond_site_symmetry_2
Zn1 O1 1_555 1_555
O1 C2 1_555 1_555
O2 Zn1 1_555 1_555
O3 Zn1 1_555 1_555
H1 O3 1_555 1_555
H2 O3 1_555 1_555
C1 O2 1_555 1_555
C2 C1 1_555 1_555
O4 H3 1_555 1_555
H4 O4 1_555 1_555
O1E C2 1_555 1_555
O2E C1 1_555 1_555
O3C Zn1 1_555 1_555
H1C O3C 1_555 1_555
H2C O3C 1_555 1_555
Zn1A O1E 1_555 1_555
O1C Zn1 1_555 1_555
O2C Zn1 1_555 1_555
O2E Zn1A 1_555 1_555

#END
