
#######################################################################
#
#                 Cambridge Crystallographic Data Centre
#                                CCDC 
#
#######################################################################
#
# If this CIF has been generated from an entry in the Cambridge 
# Structural Database, then it will include bibliographic, chemical, 
# crystal, experimental, refinement or atomic coordinate data resulting 
# from the CCDC's data processing and validation procedures.
#
#######################################################################

data_WOTXEK
_symmetry_cell_setting           triclinic
_symmetry_space_group_name_H-M   'P -1'
_symmetry_Int_Tables_number      2
_space_group_name_Hall           '-P 1'
loop_
_symmetry_equiv_pos_site_id
_symmetry_equiv_pos_as_xyz
1 x,y,z
2 -x,-y,-z
_cell_length_a                   9.4022(8)
_cell_length_b                   13.4466(12)
_cell_length_c                   17.5161(15)
_cell_angle_alpha                89.367(2)
_cell_angle_beta                 87.3580(10)
_cell_angle_gamma                87.4490(10)
_cell_volume                     2209.88
loop_
_atom_site_label
_atom_site_type_symbol
_atom_site_fract_x
_atom_site_fract_y
_atom_site_fract_z
Ni1 Ni 0.48168(6) 0.89456(4) 0.25308(4)
Ni2 Ni 0.0000 0.5000 0.5000
Ni3 Ni 1.0000 0.5000 0.0000
V1 V 0.10930(8) 0.87841(6) 0.32105(5)
V2 V 0.11913(9) 0.62499(6) 0.32249(5)
V3 V 0.85805(8) 0.88278(6) 0.18476(5)
V4 V 0.88484(9) 0.63205(6) 0.17693(5)
N1 N 0.2949(4) 0.8632(3) 0.0423(3)
N2 N 0.4257(4) 0.8855(3) 0.1411(2)
N3 N 0.3968(5) 1.2039(3) 0.2695(3)
N4 N 0.4739(4) 1.0488(3) 0.2494(2)
N5 N 0.6680(4) 0.8806(3) 0.4665(2)
N6 N 0.5358(4) 0.8941(3) 0.3661(2)
N7 N -0.1244(4) 0.2288(3) 0.4058(2)
N8 N -0.0609(4) 0.3775(3) 0.4372(2)
N9 N -0.4254(4) 0.6120(3) 0.5123(3)
N10 N -0.2011(4) 0.5677(3) 0.4858(2)
N11 N 1.1188(4) 0.2121(3) 0.0874(2)
N12 N 1.0560(4) 0.3688(3) 0.0620(2)
N13 N 1.4132(4) 0.6104(3) -0.0114(3)
N14 N 1.1994(4) 0.5568(3) 0.0153(2)
O1 O 0.0872(4) 0.7532(3) 0.3477(2)
O2 O 0.2697(3) 0.8928(3) 0.28441(19)
O3 O 0.0881(4) 0.9449(3) 0.3978(2)
O4 O 0.9781(3) 0.9157(3) 0.2553(2)
O5 O 0.0057(4) 0.5964(3) 0.2482(2)
O6 O 0.0769(3) 0.5618(2) 0.39931(17)
O7 O 0.2849(4) 0.6011(3) 0.2975(3)
O8 O 0.9052(3) 0.7595(2) 0.15135(18)
O9 O 0.6939(3) 0.8870(2) 0.22089(18)
O10 O 0.8679(4) 0.9587(3) 0.1130(2)
O11 O 0.9209(3) 0.5648(2) 0.10066(17)
O12 O 0.7232(4) 0.6149(3) 0.2083(2)
O13 O 0.4922(3) 0.7378(2) 0.2586(2)
H1 H 0.4262 0.6988 0.2710
H2 H 0.5651 0.7030 0.2428
C1 C 0.2977(6) 0.8652(4) 0.1185(3)
H3 H 0.2196 0.8538 0.1514
C2 C 0.5062(6) 0.8969(4) 0.0763(3)
H4 H 0.6020 0.9118 0.0742
C3 C 0.4277(6) 0.8837(4) 0.0147(3)
H5 H 0.4586 0.8879 -0.0364
C4 C 0.1728(6) 0.8412(4) -0.0016(3)
H6 H 0.1849 0.7748 -0.0213
H7 H 0.1653 0.8878 -0.0433
H8 H 0.0877 0.8464 0.0307
C5 C 0.3687(6) 1.1069(4) 0.2761(3)
H9 H 0.2837 1.0838 0.2973
C6 C 0.5734(6) 1.1124(4) 0.2242(4)
H10 H 0.6607 1.0928 0.2006
C7 C 0.5298(7) 1.2079(4) 0.2375(4)
H11 H 0.5807 1.2646 0.2269
C8 C 0.3014(8) 1.2874(5) 0.2951(5)
H12 H 0.2633 1.3211 0.2514
H13 H 0.3537 1.3330 0.3235
H14 H 0.2248 1.2628 0.3270
C9 C 0.6677(5) 0.8881(4) 0.3900(3)
H15 H 0.7493 0.8889 0.3579
C10 C 0.4497(6) 0.8891(4) 0.4308(3)
H16 H 0.3506 0.8910 0.4320
C11 C 0.5307(5) 0.8811(4) 0.4932(3)
H17 H 0.4981 0.8768 0.5440
C12 C 0.7951(5) 0.8667(4) 0.5108(3)
H18 H 0.8054 0.7983 0.5269
H19 H 0.7861 0.9086 0.5549
H20 H 0.8774 0.8839 0.4798
C13 C -0.0858(5) 0.2882(4) 0.4607(3)
H21 H -0.0775 0.2674 0.5112
C14 C -0.0868(6) 0.3772(4) 0.3603(3)
H22 H -0.0789 0.4314 0.3271
C15 C -0.1252(6) 0.2861(4) 0.3410(3)
H23 H -0.1481 0.2659 0.2927
C16 C -0.1588(6) 0.1238(4) 0.4115(3)
H24 H -0.1409 0.0992 0.4620
H25 H -0.1006 0.0861 0.3747
H26 H -0.2575 0.1172 0.4016
C17 C -0.3058(5) 0.5680(3) 0.5371(3)
H27 H -0.2981 0.5406 0.5858
C18 C -0.2582(5) 0.6131(4) 0.4223(3)
H28 H -0.2095 0.6238 0.3757
C19 C -0.3966(5) 0.6395(4) 0.4390(3)
H29 H -0.4600 0.6706 0.4062
C20 C -0.5605(5) 0.6270(4) 0.5556(3)
H30 H -0.5703 0.5747 0.5930
H31 H -0.6374 0.6259 0.5215
H32 H -0.5627 0.6901 0.5808
C21 C 1.1094(5) 0.2849(4) 0.0347(3)
H33 H 1.1383 0.2762 -0.0164
C22 C 1.0277(7) 0.3486(5) 0.1376(3)
H34 H 0.9892 0.3942 0.1732
C23 C 1.0640(8) 0.2526(5) 0.1529(3)
H35 H 1.0533 0.2203 0.1999
C24 C 1.1715(6) 0.1092(4) 0.0767(3)
H36 H 1.2572 0.0978 0.1038
H37 H 1.1912 0.0973 0.0232
H38 H 1.1006 0.0650 0.0960
C25 C 1.2985(5) 0.5701(4) -0.0385(3)
H39 H 1.2901 0.5534 -0.0894
C26 C 1.2561(5) 0.5895(4) 0.0805(3)
H40 H 1.2110 0.5890 0.1289
C27 C 1.3880(6) 0.6226(4) 0.0640(4)
H41 H 1.4490 0.6487 0.0981
C28 C 1.5413(6) 0.6355(4) -0.0568(4)
H42 H 1.5491 0.5959 -0.1022
H43 H 1.6237 0.6223 -0.0272
H44 H 1.5353 0.7048 -0.0707
Ni1A Ni -0.48168(6) 0.10544(4) 0.74692(4)
V1A V -0.10930(8) 0.12159(6) 0.67895(5)
V2A V -0.11913(9) 0.37501(6) 0.67751(5)
V3A V -0.85805(8) 0.11722(6) 0.81524(5)
V4A V -0.88484(9) 0.36795(6) 0.82307(5)
N1A N -0.2949(4) 0.1368(3) 0.9577(3)
N2A N -0.4257(4) 0.1145(3) 0.8589(2)
N3A N -0.3968(5) -0.2039(3) 0.7305(3)
N4A N -0.4739(4) -0.0488(3) 0.7506(2)
N5A N -0.6680(4) 0.1194(3) 0.5335(2)
N6A N -0.5358(4) 0.1059(3) 0.6339(2)
N7A N 0.1244(4) 0.7712(3) 0.5942(2)
N8A N 0.0609(4) 0.6225(3) 0.5628(2)
N9A N 0.4254(4) 0.3880(3) 0.4877(3)
N10A N 0.2011(4) 0.4323(3) 0.5142(2)
O1A O -0.0872(4) 0.2468(3) 0.6523(2)
O2A O -0.2697(3) 0.1072(3) 0.71559(19)
O3A O -0.0881(4) 0.0551(3) 0.6022(2)
O4A O -0.9781(3) 0.0843(3) 0.7447(2)
O5A O -0.0057(4) 0.4036(3) 0.7518(2)
O6A O -0.0769(3) 0.4382(2) 0.60069(17)
O7A O -0.2849(4) 0.3989(3) 0.7025(3)
O8A O -0.9052(3) 0.2405(2) 0.84865(18)
O9A O -0.6939(3) 0.1130(2) 0.77911(18)
O10A O -0.8679(4) 0.0413(3) 0.8870(2)
O11A O -0.9209(3) 0.4352(2) 0.89934(17)
O12A O -0.7232(4) 0.3851(3) 0.7917(2)
O13A O -0.4922(3) 0.2622(2) 0.7414(2)
H1A H -0.4262 0.3012 0.7290
H2A H -0.5651 0.2970 0.7572
C1A C -0.2977(6) 0.1348(4) 0.8815(3)
H3A H -0.2196 0.1462 0.8486
C2A C -0.5062(6) 0.1031(4) 0.9237(3)
H4A H -0.6020 0.0882 0.9258
C3A C -0.4277(6) 0.1163(4) 0.9853(3)
H5A H -0.4586 0.1121 1.0364
C4A C -0.1728(6) 0.1588(4) 1.0016(3)
H6A H -0.1849 0.2252 1.0213
H7A H -0.1653 0.1122 1.0433
H8A H -0.0877 0.1536 0.9693
C5A C -0.3687(6) -0.1069(4) 0.7239(3)
H9A H -0.2837 -0.0838 0.7027
C6A C -0.5734(6) -0.1124(4) 0.7758(4)
H10A H -0.6607 -0.0928 0.7994
C7A C -0.5298(7) -0.2079(4) 0.7625(4)
H11A H -0.5807 -0.2646 0.7731
C8A C -0.3014(8) -0.2874(5) 0.7049(5)
H12A H -0.2633 -0.3211 0.7486
H13A H -0.3537 -0.3330 0.6765
H14A H -0.2248 -0.2628 0.6730
C9A C -0.6677(5) 0.1119(4) 0.6100(3)
H15A H -0.7493 0.1111 0.6421
C10A C -0.4497(6) 0.1109(4) 0.5692(3)
H16A H -0.3506 0.1090 0.5680
C11A C -0.5307(5) 0.1189(4) 0.5068(3)
H17A H -0.4981 0.1232 0.4560
C12A C -0.7951(5) 0.1333(4) 0.4892(3)
H18A H -0.8054 0.2017 0.4731
H19A H -0.7861 0.0914 0.4451
H20A H -0.8774 0.1161 0.5202
C13A C 0.0858(5) 0.7118(4) 0.5393(3)
H21A H 0.0775 0.7326 0.4888
C14A C 0.0868(6) 0.6228(4) 0.6397(3)
H22A H 0.0789 0.5686 0.6729
C15A C 0.1252(6) 0.7139(4) 0.6590(3)
H23A H 0.1481 0.7341 0.7073
C16A C 0.1588(6) 0.8762(4) 0.5885(3)
H24A H 0.1409 0.9008 0.5380
H25A H 0.1006 0.9139 0.6253
H26A H 0.2575 0.8828 0.5984
C17A C 0.3058(5) 0.4320(3) 0.4629(3)
H27A H 0.2981 0.4594 0.4142
C18A C 0.2582(5) 0.3869(4) 0.5777(3)
H28A H 0.2095 0.3762 0.6243
C19A C 0.3966(5) 0.3605(4) 0.5610(3)
H29A H 0.4600 0.3294 0.5938
C20A C 0.5605(5) 0.3730(4) 0.4444(3)
H30A H 0.5703 0.4253 0.4070
H31A H 0.6374 0.3741 0.4785
H32A H 0.5627 0.3099 0.4192
N11A N 0.8812(4) 0.7879(3) -0.0874(2)
N12A N 0.9440(4) 0.6312(3) -0.0620(2)
C21A C 0.8906(5) 0.7151(4) -0.0347(3)
H33A H 0.8617 0.7238 0.0164
C22A C 0.9723(7) 0.6514(5) -0.1376(3)
H34A H 1.0108 0.6058 -0.1732
C23A C 0.9360(8) 0.7474(5) -0.1529(3)
H35A H 0.9467 0.7797 -0.1999
C24A C 0.8285(6) 0.8908(4) -0.0767(3)
H36A H 0.7428 0.9022 -0.1038
H37A H 0.8088 0.9027 -0.0232
H38A H 0.8994 0.9350 -0.0960
N13A N 0.5868(4) 0.3896(3) 0.0114(3)
N14A N 0.8006(4) 0.4432(3) -0.0153(2)
C25A C 0.7015(5) 0.4299(4) 0.0385(3)
H39A H 0.7099 0.4466 0.0894
C26A C 0.7439(5) 0.4105(4) -0.0805(3)
H40A H 0.7890 0.4110 -0.1289
C27A C 0.6120(6) 0.3774(4) -0.0640(4)
H41A H 0.5510 0.3513 -0.0981
C28A C 0.4587(6) 0.3645(4) 0.0568(4)
H42A H 0.4509 0.4041 0.1022
H43A H 0.3763 0.3777 0.0272
H44A H 0.4647 0.2952 0.0707
Ni3_2 Ni -1.0000 0.5000 1.0000
V1_2 V 1.10930(8) 0.87841(6) 0.32105(5)
V1A_2 V -1.10930(8) 0.12159(6) 0.67895(5)
V4_2 V -0.11516(9) 0.63205(6) 0.17693(5)
V4A_2 V 0.11516(9) 0.36795(6) 0.82307(5)
O4_2 O -0.0219(3) 0.9157(3) 0.2553(2)
O4A_2 O 0.0219(3) 0.0843(3) 0.7447(2)
O5_2 O 1.0057(4) 0.5964(3) 0.2482(2)
O5A_2 O -1.0057(4) 0.4036(3) 0.7518(2)
O11A_2 O 1.0791(3) 0.4352(2) -0.10066(17)
O14 O 0.5245(5) 0.4643(3) 0.2455(3)
H45 H 0.5895 0.5042 0.2332
H46 H 0.4509 0.4985 0.2614
loop_
_geom_bond_atom_site_label_1
_geom_bond_atom_site_label_2
_geom_bond_site_symmetry_1
_geom_bond_site_symmetry_2
Ni1 N2 1_555 1_555
Ni2 N8 1_555 1_555
Ni3 N12 1_555 1_555
V1 O1 1_555 1_555
V2 O1 1_555 1_555
V3 O4 1_555 1_555
V4 O8 1_555 1_555
N1 C1 1_555 1_555
N2 C1 1_555 1_555
N3 C5 1_555 1_555
N4 Ni1 1_555 1_555
N5 C9 1_555 1_555
N6 Ni1 1_555 1_555
N7 C13 1_555 1_555
N8 C13 1_555 1_555
N9 C17 1_555 1_555
N10 Ni2 1_555 1_555
N11 C21 1_555 1_555
N12 C21 1_555 1_555
N13 C25 1_555 1_555
N14 Ni3 1_555 1_555
O2 Ni1 1_555 1_555
O3 V1 1_555 1_555
O4 V1_2 1_555 1_555
O5 V2 1_555 1_555
O6 Ni2 1_555 1_555
O7 V2 1_555 1_555
O8 V3 1_555 1_555
O9 Ni1 1_555 1_555
O10 V3 1_555 1_555
O11 Ni3 1_555 1_555
O12 V4 1_555 1_555
O13 Ni1 1_555 1_555
H1 O13 1_555 1_555
H2 O13 1_555 1_555
C1 H3 1_555 1_555
C2 N2 1_555 1_555
H4 C2 1_555 1_555
C3 N1 1_555 1_555
H5 C3 1_555 1_555
C4 N1 1_555 1_555
H6 C4 1_555 1_555
H7 C4 1_555 1_555
H8 C4 1_555 1_555
C5 N4 1_555 1_555
H9 C5 1_555 1_555
C6 N4 1_555 1_555
H10 C6 1_555 1_555
C7 N3 1_555 1_555
H11 C7 1_555 1_555
C8 N3 1_555 1_555
H12 C8 1_555 1_555
H13 C8 1_555 1_555
H14 C8 1_555 1_555
C9 N6 1_555 1_555
H15 C9 1_555 1_555
C10 N6 1_555 1_555
H16 C10 1_555 1_555
C11 N5 1_555 1_555
H17 C11 1_555 1_555
C12 N5 1_555 1_555
H18 C12 1_555 1_555
H19 C12 1_555 1_555
H20 C12 1_555 1_555
C13 H21 1_555 1_555
C14 N8 1_555 1_555
H22 C14 1_555 1_555
C15 N7 1_555 1_555
H23 C15 1_555 1_555
C16 N7 1_555 1_555
H24 C16 1_555 1_555
H25 C16 1_555 1_555
H26 C16 1_555 1_555
C17 N10 1_555 1_555
H27 C17 1_555 1_555
C18 N10 1_555 1_555
H28 C18 1_555 1_555
C19 N9 1_555 1_555
H29 C19 1_555 1_555
C20 N9 1_555 1_555
H30 C20 1_555 1_555
H31 C20 1_555 1_555
H32 C20 1_555 1_555
C21 H33 1_555 1_555
C22 N12 1_555 1_555
H34 C22 1_555 1_555
C23 N11 1_555 1_555
H35 C23 1_555 1_555
C24 N11 1_555 1_555
H36 C24 1_555 1_555
H37 C24 1_555 1_555
H38 C24 1_555 1_555
C25 N14 1_555 1_555
H39 C25 1_555 1_555
C26 N14 1_555 1_555
H40 C26 1_555 1_555
C27 N13 1_555 1_555
H41 C27 1_555 1_555
C28 N13 1_555 1_555
H42 C28 1_555 1_555
H43 C28 1_555 1_555
H44 C28 1_555 1_555
O14 H45 1_555 1_555
H46 O14 1_555 1_555
Ni1A N2A 1_555 1_555
V1A O1A 1_555 1_555
V2A O1A 1_555 1_555
V3A O4A 1_555 1_555
V4A O8A 1_555 1_555
N1A C1A 1_555 1_555
N2A C1A 1_555 1_555
N3A C5A 1_555 1_555
N4A Ni1A 1_555 1_555
N5A C9A 1_555 1_555
N6A Ni1A 1_555 1_555
N7A C13A 1_555 1_555
N8A Ni2 1_555 1_555
N9A C17A 1_555 1_555
N10A Ni2 1_555 1_555
O2A Ni1A 1_555 1_555
O3A V1A 1_555 1_555
O4A V1A_2 1_555 1_555
O5A V2A 1_555 1_555
O6A Ni2 1_555 1_555
O7A V2A 1_555 1_555
O8A V3A 1_555 1_555
O9A Ni1A 1_555 1_555
O10A V3A 1_555 1_555
O11A V4A 1_555 1_555
O12A V4A 1_555 1_555
O13A Ni1A 1_555 1_555
H1A O13A 1_555 1_555
H2A O13A 1_555 1_555
C1A H3A 1_555 1_555
C2A N2A 1_555 1_555
H4A C2A 1_555 1_555
C3A N1A 1_555 1_555
H5A C3A 1_555 1_555
C4A N1A 1_555 1_555
H6A C4A 1_555 1_555
H7A C4A 1_555 1_555
H8A C4A 1_555 1_555
C5A N4A 1_555 1_555
H9A C5A 1_555 1_555
C6A N4A 1_555 1_555
H10A C6A 1_555 1_555
C7A N3A 1_555 1_555
H11A C7A 1_555 1_555
C8A N3A 1_555 1_555
H12A C8A 1_555 1_555
H13A C8A 1_555 1_555
H14A C8A 1_555 1_555
C9A N6A 1_555 1_555
H15A C9A 1_555 1_555
C10A N6A 1_555 1_555
H16A C10A 1_555 1_555
C11A N5A 1_555 1_555
H17A C11A 1_555 1_555
C12A N5A 1_555 1_555
H18A C12A 1_555 1_555
H19A C12A 1_555 1_555
H20A C12A 1_555 1_555
C13A N8A 1_555 1_555
H21A C13A 1_555 1_555
C14A N8A 1_555 1_555
H22A C14A 1_555 1_555
C15A N7A 1_555 1_555
H23A C15A 1_555 1_555
C16A N7A 1_555 1_555
H24A C16A 1_555 1_555
H25A C16A 1_555 1_555
H26A C16A 1_555 1_555
C17A N10A 1_555 1_555
H27A C17A 1_555 1_555
C18A N10A 1_555 1_555
H28A C18A 1_555 1_555
C19A N9A 1_555 1_555
H29A C19A 1_555 1_555
C20A N9A 1_555 1_555
H30A C20A 1_555 1_555
H31A C20A 1_555 1_555
H32A C20A 1_555 1_555
N11A C21A 1_555 1_555
N12A Ni3 1_555 1_555
C21A N12A 1_555 1_555
H33A C21A 1_555 1_555
C22A N12A 1_555 1_555
H34A C22A 1_555 1_555
C23A N11A 1_555 1_555
H35A C23A 1_555 1_555
C24A N11A 1_555 1_555
H36A C24A 1_555 1_555
H37A C24A 1_555 1_555
H38A C24A 1_555 1_555
N13A C25A 1_555 1_555
N14A Ni3 1_555 1_555
C25A N14A 1_555 1_555
H39A C25A 1_555 1_555
C26A N14A 1_555 1_555
H40A C26A 1_555 1_555
C27A N13A 1_555 1_555
H41A C27A 1_555 1_555
C28A N13A 1_555 1_555
H42A C28A 1_555 1_555
H43A C28A 1_555 1_555
H44A C28A 1_555 1_555
Ni3_2 O11A 1_555 1_555
V4_2 O5 1_555 1_555
V4A_2 O5A 1_555 1_555
O4_2 V1 1_555 1_555
O4A_2 V1A 1_555 1_555
O5_2 V4 1_555 1_555
O5A_2 V4A 1_555 1_555
O11A_2 Ni3 1_555 1_555
V1 O2 1_555 1_555
V2 O6 1_555 1_555
V3 O9 1_555 1_555
V4 O11 1_555 1_555
C2 C3 1_555 1_555
C6 C7 1_555 1_555
C10 C11 1_555 1_555
C14 C15 1_555 1_555
C18 C19 1_555 1_555
C22 C23 1_555 1_555
C26 C27 1_555 1_555
V1A O2A 1_555 1_555
V2A O6A 1_555 1_555
V3A O9A 1_555 1_555
C2A C3A 1_555 1_555
C6A C7A 1_555 1_555
C10A C11A 1_555 1_555
C14A C15A 1_555 1_555
C18A C19A 1_555 1_555
C22A C23A 1_555 1_555
C26A C27A 1_555 1_555

#END
