
#######################################################################
#
#                 Cambridge Crystallographic Data Centre
#                                CCDC 
#
#######################################################################
#
# If this CIF has been generated from an entry in the Cambridge 
# Structural Database, then it will include bibliographic, chemical, 
# crystal, experimental, refinement or atomic coordinate data resulting 
# from the CCDC's data processing and validation procedures.
#
#######################################################################

data_WOVCAN
_symmetry_cell_setting           triclinic
_symmetry_space_group_name_H-M   'P -1'
_symmetry_Int_Tables_number      2
_space_group_name_Hall           '-P 1'
loop_
_symmetry_equiv_pos_site_id
_symmetry_equiv_pos_as_xyz
1 x,y,z
2 -x,-y,-z
_cell_length_a                   11.4762(5)
_cell_length_b                   12.1208(7)
_cell_length_c                   13.9679(6)
_cell_angle_alpha                78.520(4)
_cell_angle_beta                 69.467(4)
_cell_angle_gamma                86.170(4)
_cell_volume                     1783.1
loop_
_atom_site_label
_atom_site_type_symbol
_atom_site_fract_x
_atom_site_fract_y
_atom_site_fract_z
Co1 Co 0.65958(3) 0.26045(3) 0.81434(3)
C1 C 0.8733(2) 0.3910(2) -0.19236(19)
C2 C 1.0135(2) 0.3981(2) -0.2328(2)
C3 C 1.0726(3) 0.4365(3) -0.3379(2)
H1 H 1.0257 0.4545 -0.3812
C4 C 1.2012(4) 0.4487(4) -0.3800(3)
H2 H 1.2397 0.4767 -0.4506
C5 C 1.2703(3) 0.4195(4) -0.3172(4)
H3 H 1.3566 0.4260 -0.3453
C6 C 1.2133(3) 0.3805(3) -0.2128(3)
H4 H 1.2618 0.3608 -0.1709
C7 C 1.0838(3) 0.3695(2) -0.1676(2)
C8 C 1.0249(3) 0.3284(2) -0.0537(2)
C9 C 1.0589(3) 0.3738(3) 0.0167(3)
H5 H 1.1225 0.4269 -0.0081
C10 C 1.0003(3) 0.3415(3) 0.1221(3)
H6 H 1.0242 0.3742 0.1672
C11 C 0.9067(3) 0.2618(3) 0.1624(2)
C12 C 0.8753(3) 0.2127(3) 0.0928(2)
H7 H 0.8146 0.1568 0.1181
C13 C 0.9327(3) 0.2456(2) -0.0129(2)
H8 H 0.9097 0.2120 -0.0580
C14 C 0.8426(3) 0.2319(3) 0.2781(3)
H9 H 0.8925 0.1782 0.3084
H10 H 0.8330 0.2989 0.3083
C15 C 0.6405(3) 0.1747(3) 0.3995(2)
C16 C 0.5216(3) 0.1428(3) 0.4128(3)
H11 H 0.5039 0.1278 0.3566
C17 C 0.4300(4) 0.1333(3) 0.5081(3)
H12 H 0.3497 0.1139 0.5158
C18 C 0.4554(3) 0.1522(3) 0.5936(3)
H13 H 0.3932 0.1441 0.6587
C19 C 0.5739(3) 0.1832(2) 0.5807(2)
C20 C 0.6671(3) 0.1952(3) 0.4840(2)
H14 H 0.7468 0.2169 0.4757
C21 C 0.6035(4) 0.2046(3) 0.6712(2)
C22 C 0.5671(3) 0.4942(3) 0.7309(2)
H15 H 0.6281 0.4867 0.6678
C23 C 0.4972(3) 0.5903(3) 0.7357(3)
H16 H 0.5100 0.6463 0.6768
C24 C 0.4082(3) 0.6026(3) 0.8286(3)
H17 H 0.3601 0.6675 0.8336
C25 C 0.3904(2) 0.5179(2) 0.9148(2)
H18 H 0.3307 0.5249 0.9786
C26 C 0.4631(2) 0.4226(2) 0.9039(2)
C27 C 0.4514(2) 0.3248(2) 0.98989(19)
C28 C 0.3601(2) 0.3126(2) 1.08743(19)
H19 H 0.3002 0.3681 1.1030
C29 C 0.3582(2) 0.2168(2) 1.16243(19)
C30 C 0.4503(2) 0.1360(2) 1.13405(19)
H20 H 0.4525 0.0713 1.1820
C31 C 0.5382(2) 0.1522(2) 1.03503(18)
C32 C 0.6401(2) 0.0730(2) 0.99630(19)
C33 C 0.6649(3) -0.0223(3) 1.0584(2)
H21 H 0.6153 -0.0414 1.1282
C34 C 0.7640(3) -0.0886(3) 1.0158(3)
H22 H 0.7825 -0.1531 1.0565
C35 C 0.8351(3) -0.0588(3) 0.9133(3)
H23 H 0.9027 -0.1025 0.8831
C36 C 0.8050(3) 0.0363(3) 0.8557(2)
H24 H 0.8539 0.0564 0.7859
C37 C 0.2648(2) 0.2010(2) 1.2691(2)
C38 C 0.1609(3) 0.0826(3) 1.4355(2)
H25 H 0.1481 0.0110 1.4769
C39 C 0.1983(3) 0.2915(3) 1.3094(2)
H26 H 0.2087 0.3628 1.2678
C40 C 0.1170(3) 0.2758(3) 1.4109(2)
H27 H 0.0736 0.3376 1.4360
C41 C 0.0978(3) 0.1731(3) 1.4762(2)
C42 C 0.0134(3) 0.1589(4) 1.5882(2)
H28 H 0.0117 0.0812 1.6209
H29 H -0.0691 0.1826 1.5914
H30 H 0.0439 0.2039 1.6238
C43 C 0.2429(3) 0.0967(3) 1.3340(2)
H31 H 0.2844 0.0343 1.3088
N1 N 0.55178(19) 0.41087(19) 0.81252(16)
N2 N 0.53847(18) 0.24553(18) 0.96507(15)
N3 N 0.70859(19) 0.10178(19) 0.89497(16)
O1 O 0.5316(2) 0.1761(2) 0.76050(17)
O2 O 0.7017(2) 0.2530(2) 0.65653(16)
O3 O 0.7246(2) 0.1849(2) 0.30048(17)
O4 O 0.83109(16) 0.31303(17) -0.21839(15)
O5 O 0.81126(18) 0.45847(19) -0.14098(18)
Co1_2 Co 0.65958(3) 0.26045(3) -0.18566(3)
O4_2 O 0.83109(16) 0.31303(17) 0.78161(15)
loop_
_geom_bond_atom_site_label_1
_geom_bond_atom_site_label_2
_geom_bond_site_symmetry_1
_geom_bond_site_symmetry_2
Co1 N1 1_555 1_555
C1 C2 1_555 1_555
C2 C3 1_555 1_555
C3 H1 1_555 1_555
C4 C3 1_555 1_555
H2 C4 1_555 1_555
C5 C4 1_555 1_555
H3 C5 1_555 1_555
C6 C5 1_555 1_555
H4 C6 1_555 1_555
C7 C2 1_555 1_555
C8 C7 1_555 1_555
C9 C8 1_555 1_555
H5 C9 1_555 1_555
C10 C9 1_555 1_555
H6 C10 1_555 1_555
C11 C10 1_555 1_555
C12 C11 1_555 1_555
H7 C12 1_555 1_555
C13 C8 1_555 1_555
H8 C13 1_555 1_555
C14 C11 1_555 1_555
H9 C14 1_555 1_555
H10 C14 1_555 1_555
C15 C16 1_555 1_555
C16 H11 1_555 1_555
C17 C16 1_555 1_555
H12 C17 1_555 1_555
C18 C17 1_555 1_555
H13 C18 1_555 1_555
C19 C18 1_555 1_555
C20 C15 1_555 1_555
H14 C20 1_555 1_555
C21 C19 1_555 1_555
C22 H15 1_555 1_555
C23 C22 1_555 1_555
H16 C23 1_555 1_555
C24 C23 1_555 1_555
H17 C24 1_555 1_555
C25 C24 1_555 1_555
H18 C25 1_555 1_555
C26 C25 1_555 1_555
C27 C26 1_555 1_555
C28 C27 1_555 1_555
H19 C28 1_555 1_555
C29 C28 1_555 1_555
C30 C29 1_555 1_555
H20 C30 1_555 1_555
C31 C30 1_555 1_555
C32 C31 1_555 1_555
C33 C32 1_555 1_555
H21 C33 1_555 1_555
C34 C33 1_555 1_555
H22 C34 1_555 1_555
C35 C34 1_555 1_555
H23 C35 1_555 1_555
C36 C35 1_555 1_555
H24 C36 1_555 1_555
C37 C29 1_555 1_555
C38 H25 1_555 1_555
C39 C37 1_555 1_555
H26 C39 1_555 1_555
C40 C39 1_555 1_555
H27 C40 1_555 1_555
C41 C38 1_555 1_555
C42 C41 1_555 1_555
H28 C42 1_555 1_555
H29 C42 1_555 1_555
H30 C42 1_555 1_555
C43 C37 1_555 1_555
H31 C43 1_555 1_555
N1 C22 1_555 1_555
N2 Co1 1_555 1_555
N3 Co1 1_555 1_555
O1 Co1 1_555 1_555
O2 Co1 1_555 1_555
O3 C14 1_555 1_555
O4 C1 1_555 1_555
O5 C1 1_555 1_555
Co1_2 O4 1_555 1_555
O4_2 Co1 1_555 1_555
C6 C7 1_555 1_555
C12 C13 1_555 1_555
C15 O3 1_555 1_555
C19 C20 1_555 1_555
C21 O1 1_555 1_555
C21 O2 1_555 1_555
C26 N1 1_555 1_555
C27 N2 1_555 1_555
C31 N2 1_555 1_555
C32 N3 1_555 1_555
C36 N3 1_555 1_555
C38 C43 1_555 1_555
C40 C41 1_555 1_555

#END
