
#######################################################################
#
#                 Cambridge Crystallographic Data Centre
#                                CCDC 
#
#######################################################################
#
# If this CIF has been generated from an entry in the Cambridge 
# Structural Database, then it will include bibliographic, chemical, 
# crystal, experimental, refinement or atomic coordinate data resulting 
# from the CCDC's data processing and validation procedures.
#
#######################################################################

data_WOVCOB
_symmetry_cell_setting           monoclinic
_symmetry_space_group_name_H-M   'P 21/n'
_symmetry_Int_Tables_number      14
_space_group_name_Hall           '-P 2yn'
loop_
_symmetry_equiv_pos_site_id
_symmetry_equiv_pos_as_xyz
1 x,y,z
2 1/2-x,1/2+y,1/2-z
3 -x,-y,-z
4 1/2+x,1/2-y,1/2+z
_cell_length_a                   14.656(3)
_cell_length_b                   14.497(2)
_cell_length_c                   20.3510(14)
_cell_angle_alpha                90
_cell_angle_beta                 106.838(5)
_cell_angle_gamma                90
_cell_volume                     4138.56
loop_
_atom_site_label
_atom_site_type_symbol
_atom_site_fract_x
_atom_site_fract_y
_atom_site_fract_z
Ni1 Ni 0.48629(3) 0.24968(2) 0.034480(18)
C1 C 1.0576(2) 0.8331(2) 0.34753(16)
C2 C 1.1279(2) 0.8718(2) 0.31314(16)
C3 C 1.1922(3) 0.9386(3) 0.34725(19)
H1 H 1.1961 0.9532 0.3925
C4 C 1.2504(3) 0.9838(3) 0.3152(2)
H2 H 1.2930 1.0284 0.3388
C5 C 1.2451(3) 0.9628(3) 0.2488(2)
H3 H 1.2834 0.9939 0.2267
C6 C 1.1832(2) 0.8955(2) 0.21465(18)
H4 H 1.1808 0.8809 0.1697
C7 C 1.1242(2) 0.8490(2) 0.24604(16)
C8 C 1.0607(2) 0.7741(2) 0.20776(17)
C9 C 1.0681(3) 0.6856(2) 0.23362(19)
H5 H 1.1140 0.6723 0.2748
C10 C 1.0083(3) 0.6165(2) 0.1992(2)
H6 H 1.0153 0.5570 0.2170
C11 C 0.9386(3) 0.6348(3) 0.1388(2)
C12 C 0.9330(3) 0.7224(3) 0.1114(2)
H7 H 0.8874 0.7353 0.0700
C13 C 0.9945(2) 0.7915(2) 0.14495(18)
H8 H 0.9914 0.8497 0.1252
C14 C 0.8686(3) 0.5618(3) 0.1047(2)
H9 H 0.8574 0.5203 0.1389
H10 H 0.8083 0.5900 0.0800
C15 C 0.8563(2) 0.4373(2) 0.02617(17)
C16 C 0.8960(2) 0.3907(3) -0.01846(18)
H11 H 0.9523 0.4116 -0.0257
C17 C 0.8515(3) 0.3133(3) -0.05183(19)
H12 H 0.8780 0.2823 -0.0819
C18 C 0.7682(2) 0.2809(2) -0.04149(18)
H13 H 0.7389 0.2283 -0.0643
C19 C 0.7286(2) 0.3270(2) 0.00298(14)
C20 C 0.7715(2) 0.4061(2) 0.03622(15)
H14 H 0.7437 0.4382 0.0651
C21 C 0.6396(2) 0.2923(2) 0.01632(15)
C22 C 0.4403(2) 0.4084(2) -0.07225(18)
H15 H 0.4859 0.4422 -0.0399
C23 C 0.4015(3) 0.4459(2) -0.1355(2)
H16 H 0.4194 0.5046 -0.1455
C24 C 0.3356(2) 0.3960(2) -0.18425(19)
H17 H 0.3101 0.4195 -0.2283
C25 C 0.3077(2) 0.3105(2) -0.16702(17)
H18 H 0.2622 0.2761 -0.1989
C26 C 0.3487(2) 0.2773(2) -0.10162(15)
C27 C 0.32916(19) 0.1837(2) -0.07878(14)
C28 C 0.2602(2) 0.1233(2) -0.11558(15)
H19 H 0.2187 0.1409 -0.1575
C29 C 0.25357(19) 0.0355(2) -0.08922(15)
C30 C 0.3192(2) 0.0120(2) -0.02761(15)
H20 H 0.3177 -0.0465 -0.0092
C31 C 0.3867(2) 0.07489(19) 0.00661(14)
C32 C 0.4629(2) 0.0570(2) 0.07208(14)
C33 C 0.4772(2) -0.0286(2) 0.10293(16)
H21 H 0.4376 -0.0781 0.0846
C34 C 0.5527(2) -0.0385(2) 0.16229(16)
H22 H 0.5651 -0.0955 0.1841
C35 C 0.6086(2) 0.0358(2) 0.18850(17)
H23 H 0.6589 0.0301 0.2285
C36 C 0.5898(2) 0.1187(2) 0.15526(16)
H24 H 0.6276 0.1692 0.1739
C37 C 0.1798(2) -0.0318(2) -0.12608(16)
C38 C 0.1900(2) -0.1251(2) -0.11046(18)
H25 H 0.2456 -0.1457 -0.0788
C39 C 0.1199(2) -0.1879(2) -0.14056(19)
H26 H 0.1296 -0.2499 -0.1288
C40 C 0.0357(2) -0.1615(2) -0.18777(16)
C41 C 0.0269(2) -0.0692(2) -0.20529(17)
H27 H -0.0284 -0.0494 -0.2378
C42 C 0.0970(2) -0.0053(2) -0.17642(16)
H28 H 0.0889 0.0559 -0.1906
C43 C -0.0441(2) -0.2309(2) -0.2194(2)
C44 C -0.0148(3) -0.3292(3) -0.1977(3)
H29 H 0.0404 -0.3452 -0.2115
H30 H -0.0661 -0.3703 -0.2191
H31 H -0.0002 -0.3342 -0.1487
C45 C -0.1315(3) -0.2051(4) -0.1998(4)
H32 H -0.1494 -0.1430 -0.2142
H33 H -0.1186 -0.2095 -0.1509
H34 H -0.1825 -0.2462 -0.2217
C46 C -0.0648(4) -0.2292(4) -0.2975(3)
H35 H -0.0080 -0.2452 -0.3094
H36 H -0.0851 -0.1685 -0.3144
H37 H -0.1142 -0.2729 -0.3178
N1 N 0.41570(18) 0.32501(17) -0.05439(13)
N2 N 0.38944(16) 0.15976(16) -0.01807(12)
N3 N 0.51903(17) 0.13047(17) 0.09698(12)
O1 O 0.59839(15) 0.22125(15) -0.01415(11)
O2 O 0.60671(14) 0.33384(15) 0.05862(11)
O3 O 0.90621(17) 0.51210(17) 0.05830(14)
O4 O 0.97266(16) 0.83093(19) 0.31457(12)
O5 O 1.09246(16) 0.80601(17) 0.40933(11)
Ni1A Ni 1.01371(3) 0.74968(2) 0.465520(18)
O5A O 0.40754(16) 0.30601(17) 0.09067(11)
O6 O 1.0000 1.0000 0.0000
O7 O 1.0234(13) 1.0840(14) 0.0323(10)
O8 O 0.7792(2) 0.8535(3) 0.29128(15)
H38 H 0.8389(16) 0.846(4) 0.298(3)
H39 H 0.762(3) 0.843(4) 0.3275(18)
O9 O 0.7781(4) 0.7545(6) -0.0473(4)
H40 H 0.728(7) 0.775(9) -0.076(6)
H41 H 0.811(9) 0.797(7) -0.023(7)
loop_
_geom_bond_atom_site_label_1
_geom_bond_atom_site_label_2
_geom_bond_site_symmetry_1
_geom_bond_site_symmetry_2
Ni1 N1 1_555 1_555
C1 C2 1_555 1_555
C2 C3 1_555 1_555
C3 H1 1_555 1_555
C4 C3 1_555 1_555
H2 C4 1_555 1_555
C5 C4 1_555 1_555
H3 C5 1_555 1_555
C6 C5 1_555 1_555
H4 C6 1_555 1_555
C7 C2 1_555 1_555
C8 C7 1_555 1_555
C9 C8 1_555 1_555
H5 C9 1_555 1_555
C10 C9 1_555 1_555
H6 C10 1_555 1_555
C11 C10 1_555 1_555
C12 C11 1_555 1_555
H7 C12 1_555 1_555
C13 C8 1_555 1_555
H8 C13 1_555 1_555
C14 C11 1_555 1_555
H9 C14 1_555 1_555
H10 C14 1_555 1_555
C15 C16 1_555 1_555
C16 H11 1_555 1_555
C17 C16 1_555 1_555
H12 C17 1_555 1_555
C18 C17 1_555 1_555
H13 C18 1_555 1_555
C19 C18 1_555 1_555
C20 C15 1_555 1_555
H14 C20 1_555 1_555
C21 C19 1_555 1_555
C22 H15 1_555 1_555
C23 C22 1_555 1_555
H16 C23 1_555 1_555
C24 C23 1_555 1_555
H17 C24 1_555 1_555
C25 C24 1_555 1_555
H18 C25 1_555 1_555
C26 C25 1_555 1_555
C27 C26 1_555 1_555
C28 C27 1_555 1_555
H19 C28 1_555 1_555
C29 C28 1_555 1_555
C30 C29 1_555 1_555
H20 C30 1_555 1_555
C31 C30 1_555 1_555
C32 C31 1_555 1_555
C33 C32 1_555 1_555
H21 C33 1_555 1_555
C34 C33 1_555 1_555
H22 C34 1_555 1_555
C35 C34 1_555 1_555
H23 C35 1_555 1_555
C36 C35 1_555 1_555
H24 C36 1_555 1_555
C37 C29 1_555 1_555
C38 C37 1_555 1_555
H25 C38 1_555 1_555
C39 C38 1_555 1_555
H26 C39 1_555 1_555
C40 C39 1_555 1_555
C41 C40 1_555 1_555
H27 C41 1_555 1_555
C42 C37 1_555 1_555
H28 C42 1_555 1_555
C43 C40 1_555 1_555
C44 C43 1_555 1_555
H29 C44 1_555 1_555
H30 C44 1_555 1_555
H31 C44 1_555 1_555
C45 C43 1_555 1_555
H32 C45 1_555 1_555
H33 C45 1_555 1_555
H34 C45 1_555 1_555
C46 C43 1_555 1_555
H35 C46 1_555 1_555
H36 C46 1_555 1_555
H37 C46 1_555 1_555
N1 C22 1_555 1_555
N2 Ni1 1_555 1_555
N3 Ni1 1_555 1_555
O1 Ni1 1_555 1_555
O2 Ni1 1_555 1_555
O3 C14 1_555 1_555
O4 C1 1_555 1_555
O5 C1 1_555 1_555
O8 H38 1_555 1_555
H39 O8 1_555 1_555
O9 H40 1_555 1_555
H41 O9 1_555 1_555
Ni1A O5 1_555 1_555
O5A Ni1 1_555 1_555
C6 C7 1_555 1_555
C12 C13 1_555 1_555
C15 O3 1_555 1_555
C19 C20 1_555 1_555
C21 O1 1_555 1_555
C21 O2 1_555 1_555
C26 N1 1_555 1_555
C27 N2 1_555 1_555
C31 N2 1_555 1_555
C32 N3 1_555 1_555
C36 N3 1_555 1_555
C41 C42 1_555 1_555

#END
