
#######################################################################
#
#                 Cambridge Crystallographic Data Centre
#                                CCDC 
#
#######################################################################
#
# If this CIF has been generated from an entry in the Cambridge 
# Structural Database, then it will include bibliographic, chemical, 
# crystal, experimental, refinement or atomic coordinate data resulting 
# from the CCDC's data processing and validation procedures.
#
#######################################################################

data_WOVFEU
_symmetry_cell_setting           orthorhombic
_symmetry_space_group_name_H-M   'P b c n'
_symmetry_Int_Tables_number      60
_space_group_name_Hall           '-P 2n 2ab'
loop_
_symmetry_equiv_pos_site_id
_symmetry_equiv_pos_as_xyz
1 x,y,z
2 1/2-x,1/2-y,1/2+z
3 1/2+x,1/2-y,-z
4 -x,y,1/2-z
5 -x,-y,-z
6 1/2+x,1/2+y,1/2-z
7 1/2-x,1/2+y,z
8 x,-y,1/2+z
_cell_length_a                   17.4916(6)
_cell_length_b                   14.4599(5)
_cell_length_c                   21.4842(8)
_cell_angle_alpha                90
_cell_angle_beta                 90
_cell_angle_gamma                90
_cell_volume                     5433.93
loop_
_atom_site_label
_atom_site_type_symbol
_atom_site_fract_x
_atom_site_fract_y
_atom_site_fract_z
Cu1 Cu 0.76485(3) 0.33717(4) 0.22113(3)
C1 C 1.1444(3) 0.3555(3) 0.1786(2)
C2 C 1.0771(3) 0.3896(3) 0.1409(3)
C3 C 1.0576(3) 0.3452(4) 0.0864(3)
H1 H 1.0879 0.2971 0.0717
C4 C 0.9935(3) 0.3712(4) 0.0533(2)
H2 H 0.9808 0.3401 0.0169
C5 C 0.9480(3) 0.4431(4) 0.0738(3)
C6 C 0.9698(4) 0.4887(4) 0.1259(4)
H3 H 0.9413 0.5394 0.1391
C7 C 1.0333(4) 0.4619(4) 0.1605(3)
H4 H 1.0459 0.4933 0.1969
C8 C 0.8752(3) 0.4714(4) 0.0402(3)
H5 H 0.8499 0.5199 0.0637
H6 H 0.8881 0.4960 -0.0004
C9 C 0.8180(3) 0.3477(4) -0.0232(3)
H7 H 0.8482 0.3682 -0.0560
C10 C 0.7712(4) 0.2746(4) -0.0319(3)
H8 H 0.7697 0.2439 -0.0699
C11 C 0.7259(3) 0.2469(4) 0.0169(3)
H9 H 0.6931 0.1970 0.0111
C12 C 0.7270(3) 0.2895(3) 0.0738(2)
C13 C 0.7775(3) 0.3670(3) 0.0837(2)
C14 C 0.6737(3) 0.2534(3) 0.1237(3)
C15 C 0.8204(3) 0.1448(3) 0.1812(2)
H10 H 0.7732 0.1162 0.1862
C16 C 0.9094(3) 0.2403(4) 0.1784(3)
H11 H 0.9361 0.2955 0.1826
C17 C 0.8941(3) 0.0071(3) 0.1411(2)
H12 H 0.8543 -0.0306 0.1597
H13 H 0.9428 -0.0143 0.1573
C18 C 0.8932(3) -0.0075(3) 0.0720(2)
C19 C 0.8460(3) 0.0403(4) 0.0325(2)
H14 H 0.8167 0.0887 0.0482
C20 C 0.8408(3) 0.0185(4) -0.0298(2)
H15 H 0.8077 0.0514 -0.0554
C21 C 0.8850(3) -0.0524(3) -0.0547(2)
C22 C 0.9350(3) -0.0986(3) -0.0156(2)
H16 H 0.9662 -0.1448 -0.0316
C23 C 0.9392(3) -0.0770(3) 0.0469(2)
H17 H 0.9729 -0.1090 0.0725
C24 C 0.8774(3) -0.0843(3) -0.1211(2)
H18 H 0.9240 -0.1159 -0.1333
H19 H 0.8357 -0.1284 -0.1239
C25 C 0.7998(3) 0.0157(3) -0.1935(2)
H20 H 0.7535 -0.0154 -0.1899
C26 C 0.8856(3) 0.1097(4) -0.2180(2)
H21 H 0.9103 0.1595 -0.2365
N1 N 0.8218(2) 0.3919(3) 0.0326(2)
N2 N 0.8349(2) 0.2325(3) 0.19371(19)
N3 N 0.8827(2) 0.1039(3) 0.16039(18)
N4 N 0.9414(3) 0.1653(3) 0.1573(2)
N5 N 0.8628(2) -0.0073(3) -0.16488(18)
N6 N 0.8116(2) 0.0897(3) -0.22853(17)
N7 N 0.9198(2) 0.0534(3) -0.1797(2)
O1 O 1.1861(2) 0.2947(3) 0.15825(18)
O2 O 1.15173(19) 0.3927(2) 0.23250(15)
O3 O 0.7849(2) 0.4125(2) 0.13261(16)
O4 O 0.67927(19) 0.2804(3) 0.17914(19)
O5 O 0.6246(3) 0.1973(3) 0.1072(2)
Cu1A Cu 0.73515(3) 0.16283(4) -0.27887(3)
Cu1C Cu 1.23515(3) 0.33717(4) 0.27887(3)
N6A N 0.6884(2) 0.4103(3) 0.27147(17)
O1C O 0.8139(2) 0.2947(3) 0.34175(18)
O2C O 0.84827(19) 0.3927(2) 0.26750(15)
O6 O 0.9746(11) 0.2817(11) -0.130(2)
O7 O 0.9941(16) 0.3038(17) -0.2094(9)
O8 O 0.6865(4) -0.1668(5) -0.1747(3)
H22 H 0.671(4) -0.154(4) -0.2070(16)
O9 O 0.6431(8) 0.0862(7) 0.2240(5)
H23 H 0.650(6) 0.137(4) 0.201(4)
loop_
_geom_bond_atom_site_label_1
_geom_bond_atom_site_label_2
_geom_bond_site_symmetry_1
_geom_bond_site_symmetry_2
Cu1 N2 1_555 1_555
C1 C2 1_555 1_555
C2 C3 1_555 1_555
C3 H1 1_555 1_555
C4 C3 1_555 1_555
H2 C4 1_555 1_555
C5 C4 1_555 1_555
C6 C5 1_555 1_555
H3 C6 1_555 1_555
C7 C2 1_555 1_555
H4 C7 1_555 1_555
C8 C5 1_555 1_555
H5 C8 1_555 1_555
H6 C8 1_555 1_555
C9 H7 1_555 1_555
C10 C9 1_555 1_555
H8 C10 1_555 1_555
C11 C10 1_555 1_555
H9 C11 1_555 1_555
C12 C11 1_555 1_555
C13 C12 1_555 1_555
C14 C12 1_555 1_555
C15 H10 1_555 1_555
C16 H11 1_555 1_555
C17 H12 1_555 1_555
H13 C17 1_555 1_555
C18 C17 1_555 1_555
C19 C18 1_555 1_555
H14 C19 1_555 1_555
C20 C19 1_555 1_555
H15 C20 1_555 1_555
C21 C20 1_555 1_555
C22 C21 1_555 1_555
H16 C22 1_555 1_555
C23 C18 1_555 1_555
H17 C23 1_555 1_555
C24 C21 1_555 1_555
H18 C24 1_555 1_555
H19 C24 1_555 1_555
C25 H20 1_555 1_555
C26 H21 1_555 1_555
N1 C8 1_555 1_555
N2 C15 1_555 1_555
N3 C15 1_555 1_555
N4 C16 1_555 1_555
N5 C24 1_555 1_555
N6 C25 1_555 1_555
N7 C26 1_555 1_555
O1 C1 1_555 1_555
O2 C1 1_555 1_555
O3 Cu1 1_555 1_555
O4 Cu1 1_555 1_555
O5 C14 1_555 1_555
O8 H22 1_555 1_555
O9 H23 1_555 1_555
Cu1A N6 1_555 1_555
Cu1C O1 1_555 1_555
N6A Cu1 1_555 1_555
O1C Cu1 1_555 1_555
O2C Cu1 1_555 1_555
C6 C7 1_555 1_555
C9 N1 1_555 1_555
C13 N1 1_555 1_555
C13 O3 1_555 1_555
C14 O4 1_555 1_555
C16 N2 1_555 1_555
C17 N3 1_555 1_555
C22 C23 1_555 1_555
C25 N5 1_555 1_555
C26 N6 1_555 1_555
N3 N4 1_555 1_555
N5 N7 1_555 1_555
O2 Cu1C 1_555 1_555

#END
