
#######################################################################
#
#                 Cambridge Crystallographic Data Centre
#                                CCDC 
#
#######################################################################
#
# If this CIF has been generated from an entry in the Cambridge 
# Structural Database, then it will include bibliographic, chemical, 
# crystal, experimental, refinement or atomic coordinate data resulting 
# from the CCDC's data processing and validation procedures.
#
#######################################################################

data_WOVNIG
_symmetry_cell_setting           monoclinic
_symmetry_space_group_name_H-M   'C 2/c'
_symmetry_Int_Tables_number      15
_space_group_name_Hall           '-C 2yn'
loop_
_symmetry_equiv_pos_site_id
_symmetry_equiv_pos_as_xyz
1 x,y,z
2 -x,y,1/2-z
3 1/2+x,1/2+y,z
4 1/2-x,1/2+y,1/2-z
5 -x,-y,-z
6 x,-y,1/2+z
7 1/2-x,1/2-y,-z
8 1/2+x,1/2-y,1/2+z
_cell_length_a                   26.424(14)
_cell_length_b                   9.529(4)
_cell_length_c                   19.889(11)
_cell_angle_alpha                90
_cell_angle_beta                 124.468(8)
_cell_angle_gamma                90
_cell_volume                     4128.76
loop_
_atom_site_label
_atom_site_type_symbol
_atom_site_fract_x
_atom_site_fract_y
_atom_site_fract_z
Cu1 Cu 0.164603(14) 0.03849(3) 0.494913(18)
Cu2 Cu 0.275063(14) 0.15015(3) 0.465743(18)
O1 O 0.17330(9) -0.09744(19) 0.42471(11)
O2 O 0.20339(9) 0.05573(19) 0.36811(11)
O3 O 0.17479(9) -0.09774(19) 0.10074(12)
O4 O 0.19278(10) -0.32701(19) 0.10018(13)
O5 O 0.16765(10) -0.55531(18) 0.30367(11)
O6 O 0.10060(9) 0.1902(2) 0.39638(12)
O7 O 0.14427(9) 0.4020(2) 0.43933(12)
O8 O 0.0168(2) 0.7531(5) 0.2748(3)
O9 O 0.24161(8) 0.12797(17) 0.53040(10)
N1 N 0.09247(10) -0.0694(2) 0.47212(14)
N2 N 0.03773(10) -0.2419(2) 0.47312(16)
C1 C 0.18587(11) -0.0635(3) 0.37448(14)
C2 C 0.18083(11) -0.1756(3) 0.31748(14)
C3 C 0.18223(11) -0.1419(2) 0.25008(15)
H1 H 0.1856 -0.0488 0.2391
C4 C 0.17866(11) -0.2479(3) 0.19947(15)
C5 C 0.17407(11) -0.3880(3) 0.21630(15)
H2 H 0.1725 -0.4592 0.1832
C6 C 0.17190(12) -0.4202(2) 0.28269(15)
C7 C 0.17581(11) -0.3154(3) 0.33382(14)
H3 H 0.1751 -0.3381 0.3787
C8 C 0.18237(11) -0.2204(3) 0.12743(15)
C9 C 0.14957(18) -0.6634(3) 0.24454(19)
H4 H 0.1118 -0.6376 0.1947
H5 H 0.1439 -0.7496 0.2646
H6 H 0.1809 -0.6759 0.2346
C10 C 0.10152(12) 0.3195(3) 0.38890(17)
C11 C 0.04800(12) 0.3919(3) 0.31524(17)
C12 C 0.0000 0.3186(4) 0.2500
H7 H 0.0000 0.2210 0.2500
C13 C 0.04794(15) 0.5391(3) 0.3144(2)
H8 H 0.0806 0.5882 0.3577
C14 C 0.0000 0.6109(5) 0.2500
C15 C 0.15366(13) -0.2754(3) 0.55419(19)
H9 H 0.1649 -0.3232 0.5220
H10 H 0.1482 -0.3426 0.5856
H11 H 0.1855 -0.2106 0.5903
C16 C 0.09555(12) -0.1979(3) 0.49978(16)
C17 C 0.03159(15) -0.0302(3) 0.4263(2)
H12 H 0.0163 0.0548 0.3992
C18 C -0.00226(15) -0.1352(3) 0.4272(3)
H13 H -0.0446 -0.1354 0.4016
C19 C 0.01987(12) -0.3740(3) 0.48841(18)
C20 C 0.04575(13) -0.4972(3) 0.48619(19)
H14 H 0.0764 -0.4957 0.4766
C21 C -0.02622(14) -0.3758(3) 0.5018(2)
H15 H -0.0440 -0.2922 0.5028
C22 C 0.0302(4) 0.8427(8) 0.2768(5)
H16 H 0.2712(13) 0.092(3) 0.5748(17)
O6A O -0.10060(9) 0.1902(2) 0.10362(12)
O7A O -0.14427(9) 0.4020(2) 0.06067(12)
O8A O -0.0168(2) 0.7531(5) 0.2252(3)
C10A C -0.10152(12) 0.3195(3) 0.11110(17)
C11A C -0.04800(12) 0.3919(3) 0.18476(17)
C13A C -0.04794(15) 0.5391(3) 0.1856(2)
H8A H -0.0806 0.5882 0.1423
C22A C -0.0302(4) 0.8427(8) 0.2232(5)
N1D N -0.09247(10) -0.9306(2) 0.52788(14)
N2D N -0.03773(10) -0.7581(2) 0.52688(16)
C15D C -0.15366(13) -0.7246(3) 0.44581(19)
H9D H -0.1649 -0.6768 0.4780
H10D H -0.1482 -0.6574 0.4144
H11D H -0.1855 -0.7894 0.4097
C16D C -0.09555(12) -0.8021(3) 0.50022(16)
C17D C -0.03159(15) -0.9698(3) 0.5737(2)
H12D H -0.0163 -1.0548 0.6008
C18D C 0.00226(15) -0.8648(3) 0.5728(3)
H13D H 0.0446 -0.8646 0.5984
C19D C -0.01987(12) -0.6260(3) 0.51159(18)
C20D C -0.04575(13) -0.5028(3) 0.51381(19)
H14D H -0.0764 -0.5043 0.5234
C21D C 0.02622(14) -0.6242(3) 0.4982(2)
H15D H 0.0440 -0.7078 0.4972
Cu1A Cu -0.164603(14) 0.03849(3) 0.005087(18)
Cu2A Cu -0.275063(14) 0.15015(3) 0.034257(18)
O1A O -0.17330(9) -0.09744(19) 0.07529(11)
O2A O -0.20339(9) 0.05573(19) 0.13189(11)
O3A O -0.17479(9) -0.09774(19) 0.39926(12)
O4A O -0.19278(10) -0.32701(19) 0.39982(13)
O5A O -0.16765(10) -0.55531(18) 0.19633(11)
O9A O -0.24161(8) 0.12797(17) -0.03040(10)
C1A C -0.18587(11) -0.0635(3) 0.12552(14)
C2A C -0.18083(11) -0.1756(3) 0.18252(14)
C3A C -0.18223(11) -0.1419(2) 0.24992(15)
H1A H -0.1856 -0.0488 0.2609
C4A C -0.17866(11) -0.2479(3) 0.30053(15)
C5A C -0.17407(11) -0.3880(3) 0.28370(15)
H2A H -0.1725 -0.4592 0.3168
C6A C -0.17190(12) -0.4202(2) 0.21731(15)
C7A C -0.17581(11) -0.3154(3) 0.16618(14)
H3A H -0.1751 -0.3381 0.1213
C8A C -0.18237(11) -0.2204(3) 0.37257(15)
C9A C -0.14957(18) -0.6634(3) 0.25546(19)
H4A H -0.1118 -0.6376 0.3053
H5A H -0.1439 -0.7496 0.2354
H6A H -0.1809 -0.6759 0.2654
H16A H -0.2712(13) 0.092(3) -0.0748(17)
Cu1D Cu -0.164603(14) -1.03849(3) 0.505087(18)
Cu1D_2 Cu -0.164603(14) -0.03849(3) 0.505087(18)
Cu1E Cu 0.164603(14) -0.03849(3) -0.005087(18)
Cu2B Cu -0.224937(14) -0.34985(3) 0.465743(18)
Cu2C Cu 0.224937(14) -0.34985(3) 0.034257(18)
Cu2F Cu 0.224937(14) 0.34985(3) 0.534257(18)
Cu2G Cu -0.224937(14) 0.34985(3) -0.034257(18)
O3D O -0.17479(9) 0.09774(19) -0.10074(12)
O3E O 0.17479(9) 0.09774(19) 0.60074(12)
O4B O -0.30722(10) 0.17299(19) 0.10018(13)
O4C O 0.30722(10) 0.17299(19) 0.39982(13)
O7F O 0.35573(9) 0.0980(2) 0.56067(12)
O7G O -0.35573(9) 0.0980(2) -0.06067(12)
O9F O 0.25839(8) 0.37203(17) 0.46960(10)
O9G O -0.25839(8) 0.37203(17) 0.03040(10)
N1A N -0.09247(10) -0.0694(2) 0.02788(14)
loop_
_geom_bond_atom_site_label_1
_geom_bond_atom_site_label_2
_geom_bond_site_symmetry_1
_geom_bond_site_symmetry_2
Cu1 O1 1_555 1_555
Cu2 O2 1_555 1_555
O1 C1 1_555 1_555
O2 C1 1_555 1_555
O3 C8 1_555 1_555
O4 C8 1_555 1_555
O5 C6 1_555 1_555
O6 Cu1 1_555 1_555
O7 C10 1_555 1_555
O8 C14 1_555 1_555
O9 Cu1 1_555 1_555
N1 Cu1 1_555 1_555
N2 C16 1_555 1_555
C1 C2 1_555 1_555
C2 C3 1_555 1_555
C3 H1 1_555 1_555
C4 C3 1_555 1_555
C5 C4 1_555 1_555
H2 C5 1_555 1_555
C6 C5 1_555 1_555
C7 C2 1_555 1_555
H3 C7 1_555 1_555
C8 C4 1_555 1_555
C9 O5 1_555 1_555
H4 C9 1_555 1_555
H5 C9 1_555 1_555
H6 C9 1_555 1_555
C10 O6 1_555 1_555
C11 C10 1_555 1_555
C12 C11 1_555 1_555
H7 C12 1_555 1_555
C13 C11 1_555 1_555
H8 C13 1_555 1_555
C14 C13 1_555 1_555
C15 H9 1_555 1_555
H10 C15 1_555 1_555
H11 C15 1_555 1_555
C16 N1 1_555 1_555
C17 N1 1_555 1_555
H12 C17 1_555 1_555
C18 N2 1_555 1_555
H13 C18 1_555 1_555
C19 N2 1_555 1_555
C20 C19 1_555 1_555
H14 C20 1_555 1_555
C21 C19 1_555 1_555
H15 C21 1_555 1_555
C22 O8A 1_555 1_555
H16 O9 1_555 1_555
O6A C10A 1_555 1_555
O7A C10A 1_555 1_555
O8A C14 1_555 1_555
C10A C11A 1_555 1_555
C11A C12 1_555 1_555
C13A C14 1_555 1_555
H8A C13A 1_555 1_555
C22A O8 1_555 1_555
N1D C16D 1_555 1_555
N2D C16D 1_555 1_555
C15D H9D 1_555 1_555
H10D C15D 1_555 1_555
H11D C15D 1_555 1_555
C16D C15D 1_555 1_555
C17D N1D 1_555 1_555
H12D C17D 1_555 1_555
C18D N2D 1_555 1_555
H13D C18D 1_555 1_555
C19D N2D 1_555 1_555
C20D C21 1_555 1_555
H14D C20D 1_555 1_555
C21D C20 1_555 1_555
H15D C21D 1_555 1_555
Cu1A O6A 1_555 1_555
Cu2A O2A 1_555 1_555
O1A Cu1A 1_555 1_555
O2A C1A 1_555 1_555
O3A C8A 1_555 1_555
O4A C8A 1_555 1_555
O5A C6A 1_555 1_555
O9A Cu1A 1_555 1_555
C1A O1A 1_555 1_555
C2A C1A 1_555 1_555
C3A C2A 1_555 1_555
H1A C3A 1_555 1_555
C4A C3A 1_555 1_555
C5A C4A 1_555 1_555
H2A C5A 1_555 1_555
C6A C5A 1_555 1_555
C7A C2A 1_555 1_555
H3A C7A 1_555 1_555
C8A C4A 1_555 1_555
C9A O5A 1_555 1_555
H4A C9A 1_555 1_555
H5A C9A 1_555 1_555
H6A C9A 1_555 1_555
H16A O9A 1_555 1_555
Cu1D N1D 1_555 1_555
Cu1D_2 O3A 1_555 1_555
Cu1E O3 1_555 1_555
Cu2B O4A 1_555 1_555
Cu2C O4 1_555 1_555
Cu2F O7 1_555 1_555
Cu2G O7A 1_555 1_555
O3D Cu1A 1_555 1_555
O3E Cu1 1_555 1_555
O4B Cu2A 1_555 1_555
O4C Cu2 1_555 1_555
O7F Cu2 1_555 1_555
O7G Cu2A 1_555 1_555
O9F Cu2 1_555 1_555
O9G Cu2A 1_555 1_555
N1A Cu1A 1_555 1_555
Cu2 O9 1_555 1_555
O9 Cu2F 1_555 1_555
C6 C7 1_555 1_555
C15 C16 1_555 1_555
C17 C18 1_555 1_555
C11A C13A 1_555 1_555
C17D C18D 1_555 1_555
C19D C20D 1_555 1_555
C19D C21D 1_555 1_555
Cu2A O9A 1_555 1_555
O9A Cu2G 1_555 1_555
C6A C7A 1_555 1_555
Cu2F O9F 1_555 1_555
Cu2G O9G 1_555 1_555

#END
