
#######################################################################
#
#                 Cambridge Crystallographic Data Centre
#                                CCDC 
#
#######################################################################
#
# If this CIF has been generated from an entry in the Cambridge 
# Structural Database, then it will include bibliographic, chemical, 
# crystal, experimental, refinement or atomic coordinate data resulting 
# from the CCDC's data processing and validation procedures.
#
#######################################################################

data_WOVPOO
_symmetry_cell_setting           triclinic
_symmetry_space_group_name_H-M   'P -1'
_symmetry_Int_Tables_number      2
_space_group_name_Hall           '-P 1'
loop_
_symmetry_equiv_pos_site_id
_symmetry_equiv_pos_as_xyz
1 x,y,z
2 -x,-y,-z
_cell_length_a                   10.1443(4)
_cell_length_b                   10.2118(4)
_cell_length_c                   11.0563(5)
_cell_angle_alpha                107.041(4)
_cell_angle_beta                 100.922(4)
_cell_angle_gamma                107.560(3)
_cell_volume                     994.329
loop_
_atom_site_label
_atom_site_type_symbol
_atom_site_fract_x
_atom_site_fract_y
_atom_site_fract_z
Zn1 Zn 0.59834(2) 0.27439(2) 0.15772(2)
O1 O 0.70844(13) 0.14462(14) 0.17746(13)
O2 O 0.88496(16) 0.34518(16) 0.19451(18)
O3 O 1.34915(15) 0.32832(15) 0.14360(17)
O4 O 1.41568(13) 0.15089(13) 0.17393(14)
O5 O 0.93643(14) -0.23297(14) 0.14658(15)
N1 N 0.79872(16) 0.71101(16) 0.42401(15)
N2 N 0.67600(15) 0.47440(15) 0.30514(14)
N3 N 0.56115(16) 0.19633(15) -0.23855(14)
N4 N 0.58761(16) 0.27823(15) -0.02442(14)
C1 C 0.94117(18) 0.13336(19) 0.18291(17)
C2 C 1.08025(18) 0.20515(18) 0.18035(17)
H1 H 1.1100 0.3030 0.1863
C3 C 1.17475(17) 0.13178(18) 0.16891(16)
C4 C 1.13075(18) -0.01454(19) 0.16039(17)
H2 H 1.1948 -0.0632 0.1549
C5 C 0.99056(18) -0.08744(18) 0.16008(17)
C6 C 0.89570(18) -0.01358(19) 0.17214(17)
H3 H 0.8024 -0.0623 0.1730
C7 C 0.83963(19) 0.2146(2) 0.18696(18)
C8 C 1.32230(17) 0.21116(18) 0.16094(16)
C9 C 1.0240(3) -0.3165(2) 0.1174(3)
H4 H 1.1107 -0.2775 0.1911
H5 H 1.0497 -0.3102 0.0395
H6 H 0.9708 -0.4182 0.1020
C10 C 0.90258(19) 0.85855(19) 0.46468(17)
C11 C 1.0440(2) 0.8809(2) 0.4660(2)
H7 H 1.0733 0.8013 0.4441
C12 C 0.8582(2) 0.9758(2) 0.4994(2)
H8 H 0.7629 0.9588 0.4996
C13 C 0.7852(2) 0.59317(19) 0.32068(18)
H9 H 0.8456 0.5955 0.2670
C14 C 0.6167(2) 0.5177(2) 0.4036(2)
H10 H 0.5376 0.4560 0.4177
C15 C 0.6907(2) 0.6637(2) 0.4776(2)
H11 H 0.6720 0.7204 0.5501
C16 C 0.53120(19) 0.09627(19) -0.37092(16)
C17 C 0.5873(2) 0.14837(19) -0.46042(17)
H12 H 0.6458 0.2478 -0.4337
C18 C 0.4438(2) -0.05240(19) -0.41029(17)
H13 H 0.4063 -0.0873 -0.3502
C19 C 0.55689(19) 0.16008(19) -0.13081(17)
H14 H 0.5352 0.0646 -0.1316
C20 C 0.6134(2) 0.3961(2) -0.06529(19)
H15 H 0.6380 0.4940 -0.0108
C21 C 0.5976(3) 0.3479(2) -0.19612(19)
H16 H 0.6090 0.4052 -0.2480
N1A N 1.20128(16) 1.28899(16) 0.57599(15)
N2A N 1.32400(15) 1.52560(15) 0.69486(14)
C10A C 1.09742(19) 1.14145(19) 0.53532(17)
C11A C 0.9560(2) 1.1191(2) 0.5340(2)
H7A H 0.9267 1.1987 0.5559
C12A C 1.1418(2) 1.0242(2) 0.5006(2)
H8A H 1.2371 1.0412 0.5004
C13A C 1.2148(2) 1.40683(19) 0.67932(18)
H9A H 1.1544 1.4045 0.7330
C14A C 1.3833(2) 1.4823(2) 0.5964(2)
H10A H 1.4624 1.5440 0.5823
C15A C 1.3093(2) 1.3363(2) 0.5224(2)
H11A H 1.3280 1.2796 0.4499
N3A N 0.43885(16) -0.19633(15) -0.76145(14)
N4A N 0.41239(16) -0.27823(15) -0.97558(14)
C16A C 0.46880(19) -0.09627(19) -0.62908(16)
C17A C 0.4127(2) -0.14837(19) -0.53958(17)
H12A H 0.3542 -0.2478 -0.5663
C18A C 0.5562(2) 0.05240(19) -0.58971(17)
H13A H 0.5937 0.0873 -0.6498
C19A C 0.44311(19) -0.16008(19) -0.86919(17)
H14A H 0.4648 -0.0646 -0.8684
C20A C 0.3866(2) -0.3961(2) -0.93471(19)
H15A H 0.3620 -0.4940 -0.9892
C21A C 0.4024(3) -0.3479(2) -0.80388(19)
H16A H 0.3910 -0.4052 -0.7520
Zn1A Zn 0.40166(2) -0.27439(2) -1.15772(2)
O1A O 0.29156(13) -0.14462(14) -1.17746(13)
O2A O 0.11504(16) -0.34518(16) -1.19451(18)
O3A O -0.34915(15) -0.32832(15) -1.14360(17)
O4A O -0.41568(13) -0.15089(13) -1.17393(14)
O5A O 0.06357(14) 0.23297(14) -1.14658(15)
C1A C 0.05883(18) -0.13336(19) -1.18291(17)
C2A C -0.08025(18) -0.20515(18) -1.18035(17)
H1A H -0.1100 -0.3030 -1.1863
C3A C -0.17475(17) -0.13178(18) -1.16891(16)
C4A C -0.13075(18) 0.01454(19) -1.16039(17)
H2A H -0.1948 0.0632 -1.1549
C5A C 0.00944(18) 0.08744(18) -1.16008(17)
C6A C 0.10430(18) 0.01358(19) -1.17214(17)
H3A H 0.1976 0.0623 -1.1730
C7A C 0.16037(19) -0.2146(2) -1.18696(18)
C8A C -0.32230(17) -0.21116(18) -1.16094(16)
C9A C -0.0240(3) 0.3165(2) -1.1174(3)
H4A H -0.1107 0.2775 -1.1911
H5A H -0.0497 0.3102 -1.0395
H6A H 0.0292 0.4182 -1.1020
Zn1_2 Zn 1.59834(2) 0.27439(2) 0.15772(2)
Zn1A_2 Zn -0.59834(2) -0.27439(2) -1.15772(2)
Zn1A_3 Zn 1.40166(2) 1.72561(2) 0.84228(2)
O4_2 O 0.41568(13) 0.15089(13) 0.17393(14)
O4A_2 O 0.58432(13) -0.15089(13) -1.17393(14)
N2A_2 N 0.32400(15) -0.47440(15) -1.30514(14)
O6 O 0.1117(3) 0.5617(2) 0.4169(3)
loop_
_geom_bond_atom_site_label_1
_geom_bond_atom_site_label_2
_geom_bond_site_symmetry_1
_geom_bond_site_symmetry_2
Zn1 O1 1_555 1_555
O1 C7 1_555 1_555
O2 C7 1_555 1_555
O3 C8 1_555 1_555
O4 C8 1_555 1_555
O5 C5 1_555 1_555
N1 C10 1_555 1_555
N2 Zn1 1_555 1_555
N3 C16 1_555 1_555
N4 Zn1 1_555 1_555
C1 C2 1_555 1_555
C2 H1 1_555 1_555
C3 C2 1_555 1_555
C4 C3 1_555 1_555
H2 C4 1_555 1_555
C5 C4 1_555 1_555
C6 C1 1_555 1_555
H3 C6 1_555 1_555
C7 C1 1_555 1_555
C8 C3 1_555 1_555
C9 O5 1_555 1_555
H4 C9 1_555 1_555
H5 C9 1_555 1_555
H6 C9 1_555 1_555
C10 C11 1_555 1_555
C11 H7 1_555 1_555
C12 C10 1_555 1_555
H8 C12 1_555 1_555
C13 N1 1_555 1_555
H9 C13 1_555 1_555
C14 N2 1_555 1_555
H10 C14 1_555 1_555
C15 N1 1_555 1_555
H11 C15 1_555 1_555
C16 C17 1_555 1_555
C17 H12 1_555 1_555
C18 C16 1_555 1_555
H13 C18 1_555 1_555
C19 N3 1_555 1_555
H14 C19 1_555 1_555
C20 N4 1_555 1_555
H15 C20 1_555 1_555
C21 N3 1_555 1_555
H16 C21 1_555 1_555
N1A C10A 1_555 1_555
N2A C13A 1_555 1_555
C10A C11A 1_555 1_555
C11A C12 1_555 1_555
H7A C11A 1_555 1_555
C12A C11 1_555 1_555
H8A C12A 1_555 1_555
C13A N1A 1_555 1_555
H9A C13A 1_555 1_555
C14A N2A 1_555 1_555
H10A C14A 1_555 1_555
C15A N1A 1_555 1_555
H11A C15A 1_555 1_555
N3A C16A 1_555 1_555
N4A C19A 1_555 1_555
C16A C17A 1_555 1_555
C17A C18 1_555 1_555
H12A C17A 1_555 1_555
C18A C17 1_555 1_555
H13A C18A 1_555 1_555
C19A N3A 1_555 1_555
H14A C19A 1_555 1_555
C20A N4A 1_555 1_555
H15A C20A 1_555 1_555
C21A N3A 1_555 1_555
H16A C21A 1_555 1_555
Zn1A N4A 1_555 1_555
O1A Zn1A 1_555 1_555
O2A C7A 1_555 1_555
O3A C8A 1_555 1_555
O4A C8A 1_555 1_555
O5A C5A 1_555 1_555
C1A C2A 1_555 1_555
C2A H1A 1_555 1_555
C3A C2A 1_555 1_555
C4A C3A 1_555 1_555
H2A C4A 1_555 1_555
C5A C4A 1_555 1_555
C6A C1A 1_555 1_555
H3A C6A 1_555 1_555
C7A O1A 1_555 1_555
C8A C3A 1_555 1_555
C9A O5A 1_555 1_555
H4A C9A 1_555 1_555
H5A C9A 1_555 1_555
H6A C9A 1_555 1_555
Zn1_2 O4 1_555 1_555
Zn1A_2 O4A 1_555 1_555
Zn1A_3 N2A 1_555 1_555
O4_2 Zn1 1_555 1_555
O4A_2 Zn1A 1_555 1_555
N2A_2 Zn1A 1_555 1_555
N2 C13 1_555 1_555
N4 C19 1_555 1_555
C5 C6 1_555 1_555
C14 C15 1_555 1_555
C20 C21 1_555 1_555
C10A C12A 1_555 1_555
C14A C15A 1_555 1_555
C16A C18A 1_555 1_555
C20A C21A 1_555 1_555
C1A C7A 1_555 1_555
C5A C6A 1_555 1_555

#END
