
#######################################################################
#
#                 Cambridge Crystallographic Data Centre
#                                CCDC 
#
#######################################################################
#
# If this CIF has been generated from an entry in the Cambridge 
# Structural Database, then it will include bibliographic, chemical, 
# crystal, experimental, refinement or atomic coordinate data resulting 
# from the CCDC's data processing and validation procedures.
#
#######################################################################

data_WOWBER
_symmetry_cell_setting           monoclinic
_symmetry_space_group_name_H-M   'P 21/c'
_symmetry_Int_Tables_number      14
_space_group_name_Hall           '-P 2ybc'
loop_
_symmetry_equiv_pos_site_id
_symmetry_equiv_pos_as_xyz
1 x,y,z
2 -x,1/2+y,1/2-z
3 -x,-y,-z
4 x,1/2-y,1/2+z
_cell_length_a                   11.0483(18)
_cell_length_b                   6.6820(11)
_cell_length_c                   17.638(3)
_cell_angle_alpha                90
_cell_angle_beta                 107.833(2)
_cell_angle_gamma                90
_cell_volume                     1239.56
loop_
_atom_site_label
_atom_site_type_symbol
_atom_site_fract_x
_atom_site_fract_y
_atom_site_fract_z
Cd1 Cd 0.5000 0.0000 0.0000
Cd2 Cd 0.46532(3) 0.49647(4) 0.090266(19)
C1 C 0.2552(4) 0.1676(6) 0.0442(2)
C2 C 0.1225(4) 0.0811(7) 0.0237(2)
C3 C 0.0891(4) -0.0691(7) -0.0343(2)
H1 H 0.1498 -0.1161 -0.0567
C4 C 0.0331(4) 0.1496(6) 0.0593(2)
C5 C 0.0700(4) 0.2970(6) 0.1261(2)
C6 C 0.1692(4) 0.2503(6) 0.1939(2)
H2 H 0.2107 0.1281 0.1968
C7 C 0.2075(4) 0.3823(7) 0.2573(2)
C8 C 0.1445(5) 0.5649(8) 0.2528(3)
H3 H 0.1698 0.6551 0.2948
C9 C 0.0446(5) 0.6121(7) 0.1860(3)
H4 H 0.0027 0.7338 0.1834
C10 C 0.0062(5) 0.4781(7) 0.1224(3)
H5 H -0.0616 0.5098 0.0778
C11 C 0.3153(4) 0.3255(7) 0.3301(2)
O1 O 0.3451(3) 0.0437(5) 0.0653(2)
O2 O 0.2673(3) 0.3513(5) 0.03856(19)
O3 O 0.3673(4) 0.1637(7) 0.3297(2)
O4 O 0.3415(4) 0.4448(7) 0.3872(2)
O5 O 0.3337(3) 0.7057(5) 0.1413(2)
H6 H 0.3296 0.8175 0.1215
H7 H 0.3794 0.7290 0.1866
O6 O 0.5055(4) 0.2887(7) 0.1997(2)
H8 H 0.4707 0.1804 0.1860
H9 H 0.5513 0.2658 0.2451
O7 O 0.5684(3) 0.3141(4) 0.02177(17)
H10 H 0.642(3) 0.307(11) 0.048(3)
C1B C -0.2552(4) -0.1676(6) -0.0442(2)
C2B C -0.1225(4) -0.0811(7) -0.0237(2)
C3B C -0.0891(4) 0.0691(7) 0.0343(2)
H1B H -0.1498 0.1161 0.0567
C4B C -0.0331(4) -0.1496(6) -0.0593(2)
C5B C -0.0700(4) -0.2970(6) -0.1261(2)
C6B C -0.1692(4) -0.2503(6) -0.1939(2)
H2B H -0.2107 -0.1281 -0.1968
C7B C -0.2075(4) -0.3823(7) -0.2573(2)
C8B C -0.1445(5) -0.5649(8) -0.2528(3)
H3B H -0.1698 -0.6551 -0.2948
C9B C -0.0446(5) -0.6121(7) -0.1860(3)
H4B H -0.0027 -0.7338 -0.1834
C10B C -0.0062(5) -0.4781(7) -0.1224(3)
H5B H 0.0616 -0.5098 -0.0778
C11B C -0.3153(4) -0.3255(7) -0.3301(2)
O1B O -0.3451(3) -0.0437(5) -0.0653(2)
O2B O -0.2673(3) -0.3513(5) -0.03856(19)
O3B O -0.3673(4) -0.1637(7) -0.3297(2)
O4B O -0.3415(4) -0.4448(7) -0.3872(2)
Cd2B Cd -0.46532(3) -0.49647(4) -0.090266(19)
O5B O -0.3337(3) -0.7057(5) -0.1413(2)
H6B H -0.3296 -0.8175 -0.1215
H7B H -0.3794 -0.7290 -0.1866
O6B O -0.5055(4) -0.2887(7) -0.1997(2)
H8B H -0.4707 -0.1804 -0.1860
H9B H -0.5513 -0.2658 -0.2451
O7B O -0.5684(3) -0.3141(4) -0.02177(17)
H10B H -0.642(3) -0.307(11) -0.048(3)
Cd1_2 Cd -0.5000 0.0000 0.0000
Cd1A Cd -0.5000 -0.5000 -0.5000
Cd1A_2 Cd 0.5000 0.5000 0.5000
Cd2_2 Cd -0.53468(3) -0.50353(4) 0.090266(19)
Cd2A Cd 0.53468(3) -0.00353(4) 0.409734(19)
Cd2B_2 Cd 0.53468(3) 0.50353(4) -0.090266(19)
Cd2C Cd -0.53468(3) 0.00353(4) -0.409734(19)
O1B_2 O 0.6549(3) -0.0437(5) -0.0653(2)
O3A O 0.6327(4) 0.6637(7) 0.1703(2)
O3C O -0.6327(4) -0.6637(7) -0.1703(2)
O4A O 0.6585(4) -0.0552(7) 0.1128(2)
O4C O 0.3415(4) 0.0552(7) -0.1128(2)
O7_2 O -0.4316(3) -0.6859(4) 0.02177(17)
O7B_2 O 0.4316(3) -0.3141(4) -0.02177(17)
O7B_3 O 0.4316(3) 0.6859(4) -0.02177(17)
loop_
_geom_bond_atom_site_label_1
_geom_bond_atom_site_label_2
_geom_bond_site_symmetry_1
_geom_bond_site_symmetry_2
Cd1 O1 1_555 1_555
Cd2 O2 1_555 1_555
C1 C2 1_555 1_555
C2 C3 1_555 1_555
C3 H1 1_555 1_555
C4 C2 1_555 1_555
C5 C4 1_555 1_555
C6 C5 1_555 1_555
H2 C6 1_555 1_555
C7 C6 1_555 1_555
C8 C7 1_555 1_555
H3 C8 1_555 1_555
C9 C8 1_555 1_555
H4 C9 1_555 1_555
C10 C5 1_555 1_555
H5 C10 1_555 1_555
C11 C7 1_555 1_555
O1 C1 1_555 1_555
O2 C1 1_555 1_555
O3 C11 1_555 1_555
O4 C11 1_555 1_555
O5 Cd2 1_555 1_555
H6 O5 1_555 1_555
H7 O5 1_555 1_555
O6 Cd2 1_555 1_555
H8 O6 1_555 1_555
H9 O6 1_555 1_555
O7 Cd1 1_555 1_555
H10 O7 1_555 1_555
C1B C2B 1_555 1_555
C2B C3B 1_555 1_555
C3B C4 1_555 1_555
H1B C3B 1_555 1_555
C4B C3 1_555 1_555
C5B C4B 1_555 1_555
C6B C5B 1_555 1_555
H2B C6B 1_555 1_555
C7B C6B 1_555 1_555
C8B C7B 1_555 1_555
H3B C8B 1_555 1_555
C9B C8B 1_555 1_555
H4B C9B 1_555 1_555
C10B C5B 1_555 1_555
H5B C10B 1_555 1_555
C11B C7B 1_555 1_555
O1B C1B 1_555 1_555
O2B C1B 1_555 1_555
O3B C11B 1_555 1_555
O4B C11B 1_555 1_555
Cd2B O2B 1_555 1_555
O5B Cd2B 1_555 1_555
H6B O5B 1_555 1_555
H7B O5B 1_555 1_555
O6B Cd2B 1_555 1_555
H8B O6B 1_555 1_555
H9B O6B 1_555 1_555
O7B Cd2B 1_555 1_555
H10B O7B 1_555 1_555
Cd1_2 O1B 1_555 1_555
Cd1A O4B 1_555 1_555
Cd1A_2 O4 1_555 1_555
Cd2_2 O7B 1_555 1_555
Cd2A O3 1_555 1_555
Cd2B_2 O7 1_555 1_555
Cd2C O3B 1_555 1_555
O1B_2 Cd1 1_555 1_555
O3A Cd2 1_555 1_555
O3C Cd2B 1_555 1_555
O4A Cd1 1_555 1_555
O4C Cd1 1_555 1_555
O7_2 Cd2B 1_555 1_555
O7B_2 Cd1 1_555 1_555
O7B_3 Cd2 1_555 1_555
Cd2 O7 1_555 1_555
C9 C10 1_555 1_555
C2B C4B 1_555 1_555
C9B C10B 1_555 1_555
O7B Cd1_2 1_555 1_555
Cd2_2 O7_2 1_555 1_555
Cd2B_2 O7B_3 1_555 1_555

#END
