
#######################################################################
#
#                 Cambridge Crystallographic Data Centre
#                                CCDC 
#
#######################################################################
#
# If this CIF has been generated from an entry in the Cambridge 
# Structural Database, then it will include bibliographic, chemical, 
# crystal, experimental, refinement or atomic coordinate data resulting 
# from the CCDC's data processing and validation procedures.
#
#######################################################################

data_WOWDUJ
_symmetry_cell_setting           monoclinic
_symmetry_space_group_name_H-M   'P 21/c'
_symmetry_Int_Tables_number      14
_space_group_name_Hall           '-P 2ybc'
loop_
_symmetry_equiv_pos_site_id
_symmetry_equiv_pos_as_xyz
1 x,y,z
2 -x,1/2+y,1/2-z
3 -x,-y,-z
4 x,1/2-y,1/2+z
_cell_length_a                   11.8373(10)
_cell_length_b                   11.5492(9)
_cell_length_c                   12.7035(10)
_cell_angle_alpha                90
_cell_angle_beta                 95.0680(10)
_cell_angle_gamma                90
_cell_volume                     1729.92
loop_
_atom_site_label
_atom_site_type_symbol
_atom_site_fract_x
_atom_site_fract_y
_atom_site_fract_z
Cd1 Cd 0.50198(3) 0.29232(3) 1.11654(3)
Cd2 Cd 0.72084(3) 0.27548(3) 0.82499(3)
Cd3 Cd 0.50715(4) 0.06604(4) 0.88007(3)
O1 O 1.2988(3) 0.3182(4) 1.0980(3)
O2 O 1.3918(3) 0.3559(3) 0.9587(3)
O3 O 1.0735(3) 0.3915(3) 0.6565(3)
O4 O 1.1358(4) 0.6202(4) 0.6665(4)
O5 O 1.2901(4) 0.5870(4) 0.5915(4)
O6 O 0.8812(3) 0.3821(3) 0.7528(3)
O7 O 0.6903(4) 0.5879(4) 0.6334(4)
O8 O 0.6657(3) 0.4445(4) 0.7436(4)
O9 O 0.8779(3) 0.3548(4) 0.9540(3)
O10 O 0.6983(3) 0.2953(4) 1.1538(3)
O11 O 0.6667(3) 0.3398(4) 0.9866(3)
O12 O 0.5249(2) 0.4875(2) 1.1710(2)
H1 H 0.4631 0.5091 1.1898
H2 H 0.5531 0.5388 1.1351
O13 O 0.4713(2) 0.1113(2) 1.0548(2)
H3 H 0.3819 0.1258 1.0405
C1 C 1.1881(4) 0.3574(4) 0.9355(4)
C2 C 1.0864(4) 0.3489(4) 0.9836(4)
H4 H 1.0869 0.3365 1.0560
C3 C 0.9854(4) 0.3593(4) 0.9208(4)
C4 C 0.9851(4) 0.3769(4) 0.8119(4)
C5 C 1.0865(4) 0.3819(4) 0.7642(4)
C6 C 1.1887(4) 0.3733(5) 0.8266(4)
H5 H 1.2570 0.3780 0.7960
C7 C 1.2996(4) 0.3434(4) 1.0028(4)
C8 C 1.1695(5) 0.4274(5) 0.6049(4)
H6 H 1.1543 0.4144 0.5295
H7 H 1.2341 0.3800 0.6296
C9 C 1.1997(5) 0.5541(5) 0.6237(4)
C10 C 0.8535(5) 0.4927(6) 0.7069(6)
H8 H 0.8837 0.4982 0.6385
H9 H 0.8878 0.5533 0.7518
C11 C 0.7265(4) 0.5090(5) 0.6938(4)
C12 C 0.8610(4) 0.3279(5) 1.0607(4)
H10 H 0.8933 0.3878 1.1077
H11 H 0.8966 0.2546 1.0810
C13 C 0.7338(4) 0.3206(4) 1.0663(4)
O14 O 0.5257(3) 0.2289(3) 0.7954(3)
H12 H 0.4824 0.2709 0.8182
Cd1_2 Cd 1.50198(3) 0.29232(3) 1.11654(3)
Cd1C Cd 0.50198(3) 0.20768(3) 0.61654(3)
Cd2A Cd 1.27916(3) 0.77548(3) 0.67501(3)
Cd2C Cd 0.72084(3) 0.22452(3) 1.32499(3)
Cd3A Cd 0.49285(4) 0.56604(4) 0.61993(3)
Cd3A_2 Cd 1.49285(4) 0.56604(4) 0.61993(3)
Cd3B Cd 0.49285(4) -0.06604(4) 1.11993(3)
Cd3C Cd 0.50715(4) 0.43396(4) 1.38007(3)
O1_2 O 0.2988(3) 0.3182(4) 1.0980(3)
O2_2 O 0.3918(3) 0.3559(3) 0.9587(3)
O4A O 0.8642(4) 0.1202(4) 0.8335(4)
O5A O 0.7099(4) 0.0870(4) 0.9085(4)
O7A O 0.3097(4) 0.0879(4) 0.8666(4)
O10C O 0.6983(3) 0.2047(4) 0.6538(3)
O12C O 0.5249(2) 0.0125(2) 0.6710(2)
O13B O 0.5287(2) -0.1113(2) 0.9452(2)
O14C O 0.5257(3) 0.2711(3) 1.2954(3)
loop_
_geom_bond_atom_site_label_1
_geom_bond_atom_site_label_2
_geom_bond_site_symmetry_1
_geom_bond_site_symmetry_2
Cd1 O10 1_555 1_555
Cd2 O6 1_555 1_555
Cd3 O13 1_555 1_555
O1 C7 1_555 1_555
O2 C7 1_555 1_555
O3 C5 1_555 1_555
O4 C9 1_555 1_555
O5 C9 1_555 1_555
O6 C4 1_555 1_555
O7 C11 1_555 1_555
O8 Cd2 1_555 1_555
O9 Cd2 1_555 1_555
O10 C13 1_555 1_555
O11 Cd1 1_555 1_555
O12 Cd1 1_555 1_555
H1 O12 1_555 1_555
H2 O12 1_555 1_555
O13 Cd1 1_555 1_555
H3 O13 1_555 1_555
C1 C2 1_555 1_555
C2 H4 1_555 1_555
C3 O9 1_555 1_555
C4 C3 1_555 1_555
C5 C4 1_555 1_555
C6 C1 1_555 1_555
H5 C6 1_555 1_555
C7 C1 1_555 1_555
C8 O3 1_555 1_555
H6 C8 1_555 1_555
H7 C8 1_555 1_555
C9 C8 1_555 1_555
C10 O6 1_555 1_555
H8 C10 1_555 1_555
H9 C10 1_555 1_555
C11 O8 1_555 1_555
C12 O9 1_555 1_555
H10 C12 1_555 1_555
H11 C12 1_555 1_555
C13 O11 1_555 1_555
O14 Cd2 1_555 1_555
H12 O14 1_555 1_555
Cd1_2 O1 1_555 1_555
Cd1C O14 1_555 1_555
Cd2A O4 1_555 1_555
Cd2C O10 1_555 1_555
Cd3A O7 1_555 1_555
Cd3A_2 O5 1_555 1_555
Cd3B O13 1_555 1_555
Cd3C O12 1_555 1_555
O1_2 Cd1 1_555 1_555
O2_2 Cd1 1_555 1_555
O4A Cd2 1_555 1_555
O5A Cd2 1_555 1_555
O7A Cd3 1_555 1_555
O10C Cd2 1_555 1_555
O12C Cd3 1_555 1_555
O13B Cd3 1_555 1_555
O14C Cd1 1_555 1_555
Cd2 O11 1_555 1_555
Cd3 O14 1_555 1_555
Cd3 O5A 1_555 1_555
O2 Cd1_2 1_555 1_555
O5 Cd2A 1_555 1_555
C2 C3 1_555 1_555
C5 C6 1_555 1_555
C10 C11 1_555 1_555
C12 C13 1_555 1_555
Cd1C O10C 1_555 1_555
Cd1C O12C 1_555 1_555
Cd2C O14C 1_555 1_555
Cd3B O13B 1_555 1_555
Cd3C O14C 1_555 1_555

#END
