
#######################################################################
#
#                 Cambridge Crystallographic Data Centre
#                                CCDC 
#
#######################################################################
#
# If this CIF has been generated from an entry in the Cambridge 
# Structural Database, then it will include bibliographic, chemical, 
# crystal, experimental, refinement or atomic coordinate data resulting 
# from the CCDC's data processing and validation procedures.
#
#######################################################################

data_WOWGEW
_symmetry_cell_setting           monoclinic
_symmetry_space_group_name_H-M   'P 21/c'
_symmetry_Int_Tables_number      14
_space_group_name_Hall           '-P 2ybc'
loop_
_symmetry_equiv_pos_site_id
_symmetry_equiv_pos_as_xyz
1 x,y,z
2 -x,1/2+y,1/2-z
3 -x,-y,-z
4 x,1/2-y,1/2+z
_cell_length_a                   12.9121(5)
_cell_length_b                   7.7803(3)
_cell_length_c                   18.6223(8)
_cell_angle_alpha                90
_cell_angle_beta                 94.4640(10)
_cell_angle_gamma                90
_cell_volume                     1865.12
loop_
_atom_site_label
_atom_site_type_symbol
_atom_site_fract_x
_atom_site_fract_y
_atom_site_fract_z
C1 C 0.5523(6) -0.0841(11) 0.0998(4)
H1 H 0.5750 -0.1946 0.0903
C2 C 0.5949(6) 0.0527(13) 0.0677(5)
H2 H 0.6463 0.0354 0.0362
C3 C 0.5625(7) 0.2148(13) 0.0814(5)
H3 H 0.5914 0.3070 0.0583
C4 C 0.4876(6) 0.2459(10) 0.1290(5)
H4 H 0.4681 0.3577 0.1393
C5 C 0.4416(5) 0.1052(9) 0.1615(4)
C6 C 0.4742(5) -0.0597(9) 0.1473(4)
C7 C 0.4252(5) -0.2083(9) 0.1776(4)
C8 C 0.3401(5) -0.1773(9) 0.2272(4)
C9 C 0.3187(5) -0.0152(9) 0.2463(4)
C10 C 0.3644(5) 0.1357(10) 0.2133(4)
C11 C 0.1967(5) -0.3481(9) 0.2680(4)
C12 C 0.0395(5) -0.4304(9) 0.3189(4)
C13 C 0.0293(6) -0.3213(10) 0.2653(4)
H5 H -0.0354 -0.2782 0.2489
C14 C 0.2396(9) -0.871(2) 0.5113(7)
H6 H 0.2873 -0.9193 0.5480
H7 H 0.2620 -0.7575 0.4996
H8 H 0.2375 -0.9420 0.4691
C15 C 0.1300(10) -0.9210(13) 0.6090(6)
H9 H 0.1966 -0.9605 0.6290
H10 H 0.0809 -1.0136 0.6086
H11 H 0.1068 -0.8282 0.6377
C16 C 0.0597(8) -0.8014(12) 0.4962(6)
H12 H -0.0037 -0.7910 0.5164
N1 N 0.2981(5) -0.3254(8) 0.2499(3)
N2 N 0.1179(4) -0.2734(8) 0.2345(3)
N3 N 0.1387(6) -0.8625(10) 0.5369(4)
O1 O 0.3378(5) 0.2807(7) 0.2291(4)
O2 O 0.4508(4) -0.3545(7) 0.1666(4)
O3 O 0.0635(6) -0.7580(11) 0.4344(4)
Cl1 Cl 0.23661(16) 0.0300(3) 0.31205(12)
Cl2 Cl -0.20541(19) -0.6283(4) 0.44353(13)
S1 S 0.16727(15) -0.4789(3) 0.33670(11)
Hg1 Hg -0.07478(2) -0.54563(4) 0.373687(17)
H13 H 0.328(5) -0.413(6) 0.236(4)
N2A N -0.1179(4) -0.7734(8) 0.2655(3)
Hg1A Hg 0.07478(2) -0.04563(4) 0.126313(17)
loop_
_geom_bond_atom_site_label_1
_geom_bond_atom_site_label_2
_geom_bond_site_symmetry_1
_geom_bond_site_symmetry_2
C1 H1 1_555 1_555
C2 C1 1_555 1_555
H2 C2 1_555 1_555
C3 C2 1_555 1_555
H3 C3 1_555 1_555
C4 C3 1_555 1_555
H4 C4 1_555 1_555
C5 C4 1_555 1_555
C6 C1 1_555 1_555
C7 C6 1_555 1_555
C8 C7 1_555 1_555
C9 C8 1_555 1_555
C10 C5 1_555 1_555
C11 N1 1_555 1_555
C12 C13 1_555 1_555
C13 H5 1_555 1_555
C14 H6 1_555 1_555
H7 C14 1_555 1_555
H8 C14 1_555 1_555
C15 H9 1_555 1_555
H10 C15 1_555 1_555
H11 C15 1_555 1_555
C16 H12 1_555 1_555
N1 C8 1_555 1_555
N2 C11 1_555 1_555
N3 C14 1_555 1_555
O1 C10 1_555 1_555
O2 C7 1_555 1_555
O3 C16 1_555 1_555
Cl1 C9 1_555 1_555
Cl2 Hg1 1_555 1_555
S1 C11 1_555 1_555
Hg1 C12 1_555 1_555
H13 N1 1_555 1_555
N2A Hg1 1_555 1_555
Hg1A N2 1_555 1_555
C5 C6 1_555 1_555
C9 C10 1_555 1_555
C12 S1 1_555 1_555
C13 N2 1_555 1_555
C15 N3 1_555 1_555
C16 N3 1_555 1_555
O3 Hg1 1_555 1_555

#END
