
#######################################################################
#
#                 Cambridge Crystallographic Data Centre
#                                CCDC 
#
#######################################################################
#
# If this CIF has been generated from an entry in the Cambridge 
# Structural Database, then it will include bibliographic, chemical, 
# crystal, experimental, refinement or atomic coordinate data resulting 
# from the CCDC's data processing and validation procedures.
#
#######################################################################

data_WOWLUR
_symmetry_cell_setting           monoclinic
_symmetry_space_group_name_H-M   'C 2/c'
_symmetry_Int_Tables_number      15
_space_group_name_Hall           '-C 2yn'
loop_
_symmetry_equiv_pos_site_id
_symmetry_equiv_pos_as_xyz
1 x,y,z
2 -x,y,1/2-z
3 1/2+x,1/2+y,z
4 1/2-x,1/2+y,1/2-z
5 -x,-y,-z
6 x,-y,1/2+z
7 1/2-x,1/2-y,-z
8 1/2+x,1/2-y,1/2+z
_cell_length_a                   23.287(6)
_cell_length_b                   10.854(3)
_cell_length_c                   11.454(3)
_cell_angle_alpha                90
_cell_angle_beta                 114.133(4)
_cell_angle_gamma                90
_cell_volume                     2642.05
loop_
_atom_site_label
_atom_site_type_symbol
_atom_site_fract_x
_atom_site_fract_y
_atom_site_fract_z
Ni1 Ni 0.3207 0.5804 0.5665
O1 O 0.3060(1) 0.6799(1) 0.4050(1)
O2 O 0.2521(1) 0.8516(1) 0.3986(2)
O3 O 0.4191(1) 0.6779(2) 0.3405(2)
O4 O 0.3472(1) 0.5453(1) 0.2183(2)
N1 N 0.3806(1) 0.7104(2) 0.6959(2)
N2 N 0.2449(1) 0.9500(2) 0.0487(2)
C1 C 0.2863(1) 0.8981(2) 0.0089(2)
H1 H 0.2879 0.9269 -0.0662
C2 C 0.3266(1) 0.8041(2) 0.0744(2)
H2 H 0.3548 0.7714 0.0440
C3 C 0.3246(1) 0.7586(2) 0.1866(2)
C4 C 0.3667(1) 0.6519(2) 0.2544(2)
C5 C 0.2835(1) 0.8151(2) 0.2311(2)
C6 C 0.2795(1) 0.7784(2) 0.3548(2)
C7 C 0.2447(1) 0.9099(2) 0.1591(2)
H3 H 0.2174 0.9470 0.1892
C8 C 0.4315(1) 0.6786(2) 0.7993(3)
H4 H 0.4415 0.5954 0.8132
C9 C 0.4698(2) 0.7617(3) 0.8859(3)
H5 H 0.5044 0.7347 0.9573
C10 C 0.4567(2) 0.8856(3) 0.8667(4)
C11 C 0.4028(2) 0.9185(3) 0.7637(4)
H6 H 0.3908 1.0008 0.7500
C12 C 0.3665(2) 0.8297(2) 0.6810(3)
H7 H 0.3304 0.8541 0.6113
C13 C 0.5115(3) 0.9914(6) 0.9562(6)
H8 H 0.5538 0.9578 0.9924
H9 H 0.5105 1.0660 0.9087
H10 H 0.4284 0.4893 0.5903
H11 H 0.4027 0.5511 0.4782
O5 O 0.3940(1) 0.5050(2) 0.5275(2)
N1D N 0.6194(1) 1.2896(2) 1.3041(2)
C8D C 0.5685(1) 1.3214(2) 1.2007(3)
H4D H 0.5585 1.4046 1.1868
C9D C 0.5302(2) 1.2383(3) 1.1141(3)
H5D H 0.4956 1.2653 1.0427
C10D C 0.5433(2) 1.1144(3) 1.1333(4)
C11D C 0.5972(2) 1.0815(3) 1.2363(4)
H6D H 0.6092 0.9992 1.2500
C12D C 0.6335(2) 1.1703(2) 1.3190(3)
H7D H 0.6696 1.1459 1.3887
C13D C 0.4885(3) 1.0086(6) 1.0438(6)
H8D H 0.4462 1.0422 1.0076
H9D H 0.4895 0.9340 1.0913
Ni1D Ni 0.6793 1.4196 1.4335
O1D O 0.6940(1) 1.3201(1) 1.5950(1)
O2D O 0.7479(1) 1.1484(1) 1.6014(2)
O3D O 0.5809(1) 1.3221(2) 1.6595(2)
O4D O 0.6528(1) 1.4547(1) 1.7817(2)
N2D N 0.7551(1) 1.0500(2) 1.9513(2)
C1D C 0.7137(1) 1.1019(2) 1.9911(2)
H1D H 0.7121 1.0731 2.0662
C2D C 0.6734(1) 1.1959(2) 1.9256(2)
H2D H 0.6452 1.2286 1.9560
C3D C 0.6754(1) 1.2414(2) 1.8134(2)
C4D C 0.6333(1) 1.3481(2) 1.7456(2)
C5D C 0.7165(1) 1.1849(2) 1.7689(2)
C6D C 0.7205(1) 1.2216(2) 1.6452(2)
C7D C 0.7553(1) 1.0901(2) 1.8409(2)
H3D H 0.7826 1.0530 1.8108
H10D H 0.5716 1.5107 1.4097
H11D H 0.5973 1.4489 1.5218
O5D O 0.6060(1) 1.4950(2) 1.4725(2)
Ni1A Ni 0.6793 1.5804 1.9335
Ni1E Ni 0.3207 0.4196 0.0665
Ni1B Ni 0.8207 1.0804 1.5665
Ni1C Ni 0.1793 1.0804 -0.0665
Ni1F Ni 0.1793 0.9196 0.4335
Ni1G Ni 0.8207 0.9196 2.0665
O2B O 0.7521(1) 1.3516(1) 1.3986(2)
O2F O 0.2479(1) 0.6484(1) 0.6014(2)
O4A O 0.6528(1) 1.5453(1) 1.2817(2)
O4E O 0.3472(1) 0.4547(1) 0.7183(2)
N2C N 0.2551(1) 0.4500(2) 0.4513(2)
N2G N 0.7449(1) 1.5500(2) 1.5487(2)
H12 H 0.5206 0.6213 0.2216
O6 O 0.5000 0.5736(3) 0.2500
H12A H 0.4794 0.6213 0.2784
loop_
_geom_bond_atom_site_label_1
_geom_bond_atom_site_label_2
_geom_bond_site_symmetry_1
_geom_bond_site_symmetry_2
Ni1 O1 1_555 1_555
O1 C6 1_555 1_555
O2 C6 1_555 1_555
O3 C4 1_555 1_555
O4 C4 1_555 1_555
N1 Ni1 1_555 1_555
N2 C1 1_555 1_555
C1 H1 1_555 1_555
C2 C1 1_555 1_555
H2 C2 1_555 1_555
C3 C2 1_555 1_555
C4 C3 1_555 1_555
C5 C3 1_555 1_555
C6 C5 1_555 1_555
C7 N2 1_555 1_555
H3 C7 1_555 1_555
C8 N1 1_555 1_555
H4 C8 1_555 1_555
C9 C8 1_555 1_555
H5 C9 1_555 1_555
C10 C9 1_555 1_555
C11 C10 1_555 1_555
H6 C11 1_555 1_555
C12 N1 1_555 1_555
H7 C12 1_555 1_555
C13 C10 1_555 1_555
H8 C13 1_555 1_555
H9 C13 1_555 1_555
H10 O5 1_555 1_555
H11 O5 1_555 1_555
O5 Ni1 1_555 1_555
H12 O6 1_555 1_555
O6 H12A 1_555 1_555
N1D C8D 1_555 1_555
C8D H4D 1_555 1_555
C9D C8D 1_555 1_555
H5D C9D 1_555 1_555
C10D C9D 1_555 1_555
C11D C10D 1_555 1_555
H6D C11D 1_555 1_555
C12D N1D 1_555 1_555
H7D C12D 1_555 1_555
C13D C13 1_555 1_555
H8D C13D 1_555 1_555
H9D C13D 1_555 1_555
Ni1D N1D 1_555 1_555
O1D Ni1D 1_555 1_555
O2D C6D 1_555 1_555
O3D C4D 1_555 1_555
O4D C4D 1_555 1_555
N2D C1D 1_555 1_555
C1D H1D 1_555 1_555
C2D C1D 1_555 1_555
H2D C2D 1_555 1_555
C3D C2D 1_555 1_555
C4D C3D 1_555 1_555
C5D C3D 1_555 1_555
C6D O1D 1_555 1_555
C7D N2D 1_555 1_555
H3D C7D 1_555 1_555
H10D O5D 1_555 1_555
H11D O5D 1_555 1_555
O5D Ni1D 1_555 1_555
Ni1A O4D 1_555 1_555
Ni1E O4 1_555 1_555
Ni1B O2D 1_555 1_555
Ni1C N2 1_555 1_555
Ni1F O2 1_555 1_555
Ni1G N2D 1_555 1_555
O2B Ni1D 1_555 1_555
O2F Ni1 1_555 1_555
O4A Ni1D 1_555 1_555
O4E Ni1 1_555 1_555
N2C Ni1 1_555 1_555
N2G Ni1D 1_555 1_555
C5 C7 1_555 1_555
C11 C12 1_555 1_555
C10D C13D 1_555 1_555
C11D C12D 1_555 1_555
C5D C6D 1_555 1_555
C5D C7D 1_555 1_555

#END
