
#######################################################################
#
#                 Cambridge Crystallographic Data Centre
#                                CCDC 
#
#######################################################################
#
# If this CIF has been generated from an entry in the Cambridge 
# Structural Database, then it will include bibliographic, chemical, 
# crystal, experimental, refinement or atomic coordinate data resulting 
# from the CCDC's data processing and validation procedures.
#
#######################################################################

data_WOWMOM
_symmetry_cell_setting           monoclinic
_symmetry_space_group_name_H-M   'P 21/c'
_symmetry_Int_Tables_number      14
_space_group_name_Hall           '-P 2ybc'
loop_
_symmetry_equiv_pos_site_id
_symmetry_equiv_pos_as_xyz
1 x,y,z
2 -x,1/2+y,1/2-z
3 -x,-y,-z
4 x,1/2-y,1/2+z
_cell_length_a                   10.247(4)
_cell_length_b                   16.978(5)
_cell_length_c                   10.851(3)
_cell_angle_alpha                90
_cell_angle_beta                 121.33(3)
_cell_angle_gamma                90
_cell_volume                     1612.52
loop_
_atom_site_label
_atom_site_type_symbol
_atom_site_fract_x
_atom_site_fract_y
_atom_site_fract_z
Ni1 Ni 0.12173(3) 0.387029(14) 0.84697(3)
O1 O 0.20655(19) 0.56177(10) 0.45382(17)
O2 O 0.00623(17) 0.64303(9) 0.37322(15)
O3 O 0.14497(19) 0.78083(8) 0.60891(19)
O4 O -0.07212(17) 0.76980(8) 0.61108(17)
N1 N 0.1439(2) 0.50568(10) 0.79348(19)
N2 N 0.3121(2) 0.35369(10) 0.83604(19)
N3 N 0.4413(2) 0.31099(10) 0.7381(2)
N4 N 0.3255(2) 0.39744(11) 0.2977(2)
N5 N 0.2484(2) 0.41040(10) 0.06712(19)
C1 C 0.1532(2) 0.52362(11) 0.6776(2)
H1 H 0.1809 0.4836 0.6371
C2 C 0.1243(2) 0.59785(11) 0.6136(2)
C3 C 0.1151(3) 0.60247(11) 0.4697(2)
C4 C 0.0879(2) 0.65876(11) 0.6786(2)
C5 C 0.0507(2) 0.74359(11) 0.6261(2)
C6 C 0.0909(2) 0.64161(12) 0.8049(2)
H2 H 0.0764 0.6817 0.8549
C7 C 0.1154(3) 0.56520(12) 0.8572(2)
H3 H 0.1119 0.5548 0.9396
C8 C 0.3029(3) 0.31915(12) 0.7225(2)
H4 H 0.2120 0.3026 0.6419
C9 C 0.4659(3) 0.36807(14) 0.9285(3)
H5 H 0.5084 0.3921 1.0183
C10 C 0.5456(3) 0.34204(14) 0.8687(2)
H6 H 0.6507 0.3448 0.9090
C11 C 0.4741(3) 0.27281(13) 0.6351(2)
H7 H 0.3945 0.2346 0.5788
H8 H 0.5701 0.2446 0.6886
C12 C 0.4839(3) 0.33080(13) 0.5328(3)
H9 H 0.5569 0.3718 0.5888
H10 H 0.5210 0.3034 0.4785
C13 C 0.3306(3) 0.36845(14) 0.4281(2)
H11 H 0.2499 0.3301 0.4007
H12 H 0.3127 0.4120 0.4753
C14 C 0.4229(3) 0.45002(14) 0.2902(3)
H13 H 0.5060 0.4753 0.3670
C15 C 0.3737(3) 0.45768(14) 0.1485(2)
H14 H 0.4181 0.4902 0.1114
C16 C 0.2234(3) 0.37548(12) 0.1617(2)
H15 H 0.1446 0.3399 0.1371
O5 O -0.0794(2) 0.42594(10) 0.8348(2)
H16 H -0.109(4) 0.3866(19) 0.854(4)
H17 H -0.132(4) 0.432(2) 0.756(4)
Ni1_2 Ni 0.12173(3) 0.387029(14) -0.15303(3)
Ni1A Ni -0.12173(3) 0.887029(14) 0.65303(3)
Ni1B Ni -0.12173(3) 0.612971(14) 0.15303(3)
O2B O -0.00623(17) 0.35697(9) 0.62678(15)
O4A O 0.07212(17) 0.26980(8) 0.88892(17)
N5_2 N 0.2484(2) 0.41040(10) 1.06712(19)
loop_
_geom_bond_atom_site_label_1
_geom_bond_atom_site_label_2
_geom_bond_site_symmetry_1
_geom_bond_site_symmetry_2
Ni1 N1 1_555 1_555
O1 C3 1_555 1_555
O2 C3 1_555 1_555
O3 C5 1_555 1_555
O4 C5 1_555 1_555
N1 C1 1_555 1_555
N2 Ni1 1_555 1_555
N3 C8 1_555 1_555
N4 C13 1_555 1_555
N5 C15 1_555 1_555
C1 H1 1_555 1_555
C2 C1 1_555 1_555
C3 C2 1_555 1_555
C4 C2 1_555 1_555
C5 C4 1_555 1_555
C6 C4 1_555 1_555
H2 C6 1_555 1_555
C7 N1 1_555 1_555
H3 C7 1_555 1_555
C8 N2 1_555 1_555
H4 C8 1_555 1_555
C9 N2 1_555 1_555
H5 C9 1_555 1_555
C10 N3 1_555 1_555
H6 C10 1_555 1_555
C11 N3 1_555 1_555
H7 C11 1_555 1_555
H8 C11 1_555 1_555
C12 C11 1_555 1_555
H9 C12 1_555 1_555
H10 C12 1_555 1_555
C13 C12 1_555 1_555
H11 C13 1_555 1_555
H12 C13 1_555 1_555
C14 N4 1_555 1_555
H13 C14 1_555 1_555
C15 C14 1_555 1_555
H14 C15 1_555 1_555
C16 N4 1_555 1_555
H15 C16 1_555 1_555
O5 Ni1 1_555 1_555
H16 O5 1_555 1_555
H17 O5 1_555 1_555
Ni1_2 N5 1_555 1_555
Ni1A O4 1_555 1_555
Ni1B O2 1_555 1_555
O2B Ni1 1_555 1_555
O4A Ni1 1_555 1_555
N5_2 Ni1 1_555 1_555
N5 C16 1_555 1_555
C6 C7 1_555 1_555
C9 C10 1_555 1_555

#END
