
#######################################################################
#
#                 Cambridge Crystallographic Data Centre
#                                CCDC 
#
#######################################################################
#
# If this CIF has been generated from an entry in the Cambridge 
# Structural Database, then it will include bibliographic, chemical, 
# crystal, experimental, refinement or atomic coordinate data resulting 
# from the CCDC's data processing and validation procedures.
#
#######################################################################

data_WOWNAZ
_symmetry_cell_setting           monoclinic
_symmetry_space_group_name_H-M   'P 21/c'
_symmetry_Int_Tables_number      14
_space_group_name_Hall           '-P 2ybc'
loop_
_symmetry_equiv_pos_site_id
_symmetry_equiv_pos_as_xyz
1 x,y,z
2 -x,1/2+y,1/2-z
3 -x,-y,-z
4 x,1/2-y,1/2+z
_cell_length_a                   10.4472(7)
_cell_length_b                   13.8011(7)
_cell_length_c                   13.4514(11)
_cell_angle_alpha                90
_cell_angle_beta                 100.646(4)
_cell_angle_gamma                90
_cell_volume                     1906.08
loop_
_atom_site_label
_atom_site_type_symbol
_atom_site_fract_x
_atom_site_fract_y
_atom_site_fract_z
Ni1 Ni -0.15803(3) 0.70734(2) 0.54413(2)
S1 S 0.33974(7) 0.84757(5) 0.30596(7)
O1 O 0.13068(16) 0.32285(11) 0.85312(13)
O2 O 0.2508(2) 0.44144(14) 0.93770(16)
O3 O 0.30593(18) 0.39670(16) 0.70141(15)
O4 O 0.17295(17) 0.40998(13) 0.55246(14)
N1 N -0.05071(19) 0.61340(13) 0.65866(15)
N2 N 0.02135(19) 0.74871(16) 0.50102(17)
N3 N 0.1905(2) 0.76247(17) 0.42626(18)
N4 N 0.5017(2) 0.81194(16) 0.17418(18)
N5 N 0.66326(19) 0.82314(15) 0.09058(17)
C1 C -0.0655(3) 0.60721(17) 0.7554(2)
H1 H -0.1257 0.6477 0.7774
C2 C 0.0045(3) 0.54351(18) 0.8237(2)
H2 H -0.0088 0.5418 0.8902
C3 C 0.0954(2) 0.48160(16) 0.79262(18)
C4 C 0.1676(2) 0.40971(17) 0.86787(19)
C5 C 0.1103(2) 0.48662(15) 0.69170(17)
C6 C 0.2052(2) 0.42466(16) 0.64640(19)
C7 C 0.0374(2) 0.55352(16) 0.62973(18)
H3 H 0.0498 0.5577 0.5632
C8 C 0.0693(3) 0.72505(18) 0.4207(2)
H4 H 0.0261 0.6877 0.3673
C9 C 0.1157(3) 0.8042(2) 0.5598(2)
H5 H 0.1083 0.8314 0.6217
C10 C 0.2200(3) 0.8135(3) 0.5152(2)
H6 H 0.2963 0.8475 0.5394
C11 C 0.2746(2) 0.7481(2) 0.3555(2)
C12 C 0.3140(3) 0.6636(2) 0.3219(2)
H7 H 0.2884 0.6032 0.3419
C13 C 0.3991(3) 0.6773(2) 0.2525(2)
H8 H 0.4355 0.6270 0.2210
C14 C 0.4213(2) 0.7718(2) 0.2376(2)
C15 C 0.4893(3) 0.8993(3) 0.1252(3)
H9 H 0.4250 0.9456 0.1266
C16 C 0.5886(3) 0.9047(2) 0.0748(3)
H10 H 0.6043 0.9567 0.0347
C17 C 0.6087(2) 0.76961(19) 0.1513(2)
H11 H 0.6400 0.7094 0.1757
O5 O -0.2608(2) 0.79595(16) 0.41958(18)
H12 H -0.271(6) 0.829(3) 0.466(3)
H13 H -0.315(3) 0.766(2) 0.385(2)
Ni1A Ni 0.15803(3) 0.20734(2) 0.95587(2)
Ni1B Ni 0.15803(3) 0.29266(2) 0.45587(2)
Ni1C Ni 0.84197(3) 0.79266(2) 0.04413(2)
O1A O -0.13068(16) 0.82285(11) 0.64688(13)
O4B O -0.17295(17) 0.59002(13) 0.44754(14)
N5C N -0.33674(19) 0.67686(15) 0.59058(17)
O6 O 0.4733(6) 0.9559(5) 0.5604(5)
loop_
_geom_bond_atom_site_label_1
_geom_bond_atom_site_label_2
_geom_bond_site_symmetry_1
_geom_bond_site_symmetry_2
Ni1 N1 1_555 1_555
S1 C11 1_555 1_555
O1 C4 1_555 1_555
O2 C4 1_555 1_555
O3 C6 1_555 1_555
O4 C6 1_555 1_555
N1 C1 1_555 1_555
N2 Ni1 1_555 1_555
N3 C8 1_555 1_555
N4 C14 1_555 1_555
N5 C16 1_555 1_555
C1 H1 1_555 1_555
C2 C1 1_555 1_555
H2 C2 1_555 1_555
C3 C2 1_555 1_555
C4 C3 1_555 1_555
C5 C3 1_555 1_555
C6 C5 1_555 1_555
C7 N1 1_555 1_555
H3 C7 1_555 1_555
C8 N2 1_555 1_555
H4 C8 1_555 1_555
C9 N2 1_555 1_555
H5 C9 1_555 1_555
C10 N3 1_555 1_555
H6 C10 1_555 1_555
C11 N3 1_555 1_555
C12 C11 1_555 1_555
H7 C12 1_555 1_555
C13 C12 1_555 1_555
H8 C13 1_555 1_555
C14 S1 1_555 1_555
C15 N4 1_555 1_555
H9 C15 1_555 1_555
C16 C15 1_555 1_555
H10 C16 1_555 1_555
C17 N4 1_555 1_555
H11 C17 1_555 1_555
O5 Ni1 1_555 1_555
H12 O5 1_555 1_555
H13 O5 1_555 1_555
Ni1A O1 1_555 1_555
Ni1B O4 1_555 1_555
Ni1C N5 1_555 1_555
O1A Ni1 1_555 1_555
O4B Ni1 1_555 1_555
N5C Ni1 1_555 1_555
N5 C17 1_555 1_555
C5 C7 1_555 1_555
C9 C10 1_555 1_555
C13 C14 1_555 1_555

#END
