
#######################################################################
#
#                 Cambridge Crystallographic Data Centre
#                                CCDC 
#
#######################################################################
#
# If this CIF has been generated from an entry in the Cambridge 
# Structural Database, then it will include bibliographic, chemical, 
# crystal, experimental, refinement or atomic coordinate data resulting 
# from the CCDC's data processing and validation procedures.
#
#######################################################################

data_WOWNED
_symmetry_cell_setting           monoclinic
_symmetry_space_group_name_H-M   'C 2/c'
_symmetry_Int_Tables_number      15
_space_group_name_Hall           '-C 2yn'
loop_
_symmetry_equiv_pos_site_id
_symmetry_equiv_pos_as_xyz
1 x,y,z
2 -x,y,1/2-z
3 1/2+x,1/2+y,z
4 1/2-x,1/2+y,1/2-z
5 -x,-y,-z
6 x,-y,1/2+z
7 1/2-x,1/2-y,-z
8 1/2+x,1/2-y,1/2+z
_cell_length_a                   24.6326(16)
_cell_length_b                   13.8299(6)
_cell_length_c                   12.7662(8)
_cell_angle_alpha                90
_cell_angle_beta                 107.784(4)
_cell_angle_gamma                90
_cell_volume                     4141.2
loop_
_atom_site_label
_atom_site_type_symbol
_atom_site_fract_x
_atom_site_fract_y
_atom_site_fract_z
Ni1 Ni -0.234223(11) 0.115491(18) -0.60489(2)
S1 S 0.01152(3) 0.18302(4) -0.38485(5)
O1 O -0.31019(7) -0.37186(11) -0.77932(13)
O2 O -0.39332(8) -0.29586(14) -0.80701(19)
O3 O -0.30040(6) -0.25166(10) -0.95758(11)
O4 O -0.26934(7) -0.10302(10) -0.97492(12)
N1 N -0.26358(8) -0.02239(13) -0.66321(14)
N2 N -0.15908(8) 0.05368(13) -0.49948(15)
N3 N -0.06611(7) 0.03790(13) -0.42501(14)
N4 N 0.12485(8) 0.22357(15) -0.30946(15)
N5 N 0.19506(8) 0.32060(14) -0.22122(15)
C1 C -0.28455(9) -0.16836(14) -0.92176(16)
C2 C -0.28540(9) -0.14297(15) -0.80692(16)
C3 C -0.26140(9) -0.05569(15) -0.76034(17)
H1 H -0.2427 -0.0183 -0.7992
C4 C -0.28905(12) -0.07892(17) -0.60686(19)
H2 H -0.2916 -0.0568 -0.5397
C5 C -0.31144(12) -0.16739(18) -0.6436(2)
H3 H -0.3273 -0.2050 -0.6001
C6 C -0.31079(10) -0.20181(15) -0.74579(18)
C7 C -0.34053(10) -0.29795(16) -0.78249(18)
C8 C -0.14699(10) -0.03867(17) -0.45896(19)
H4 H -0.1740 -0.0866 -0.4627
C9 C -0.09006(10) -0.04974(17) -0.41285(19)
H5 H -0.0710 -0.1052 -0.3797
C10 C -0.00772(9) 0.06274(16) -0.38723(17)
C11 C 0.03738(9) 0.00310(17) -0.34911(18)
H6 H 0.0344 -0.0637 -0.3449
C12 C 0.08988(10) 0.05418(18) -0.31617(18)
H7 H 0.1253 0.0246 -0.2883
C13 C 0.08253(10) 0.15031(18) -0.32996(17)
C14 C 0.16100(10) 0.25072(17) -0.21077(17)
H8 H 0.1616 0.2233 -0.1439
C15 C 0.17989(14) 0.3390(2) -0.3323(2)
H9 H 0.1970 0.3851 -0.3650
C16 C 0.13650(14) 0.2804(3) -0.3873(2)
H10 H 0.1183 0.2791 -0.4628
C17 C -0.10938(10) 0.09748(16) -0.47719(18)
H11 H -0.1047 0.1614 -0.4951
Ni1C Ni -0.265777(11) -0.384509(18) -0.89511(2)
Ni1E Ni -0.234223(11) -0.115491(18) -1.10489(2)
Ni1G Ni 0.265777(11) 0.384509(18) -0.10489(2)
O1C O -0.18981(7) 0.12814(11) -0.72068(13)
O3C O -0.19960(6) 0.24834(10) -0.54242(11)
O4E O -0.26934(7) 0.10302(10) -0.47492(12)
N5G N -0.30494(8) 0.17940(14) -0.72122(15)
loop_
_geom_bond_atom_site_label_1
_geom_bond_atom_site_label_2
_geom_bond_site_symmetry_1
_geom_bond_site_symmetry_2
Ni1 N1 1_555 1_555
S1 C10 1_555 1_555
O1 C7 1_555 1_555
O2 C7 1_555 1_555
O3 C1 1_555 1_555
O4 C1 1_555 1_555
N1 C3 1_555 1_555
N2 Ni1 1_555 1_555
N3 C9 1_555 1_555
N4 C13 1_555 1_555
N5 C14 1_555 1_555
C1 C2 1_555 1_555
C2 C3 1_555 1_555
C3 H1 1_555 1_555
C4 N1 1_555 1_555
H2 C4 1_555 1_555
C5 C4 1_555 1_555
H3 C5 1_555 1_555
C6 C2 1_555 1_555
C7 C6 1_555 1_555
C8 N2 1_555 1_555
H4 C8 1_555 1_555
C9 C8 1_555 1_555
H5 C9 1_555 1_555
C10 N3 1_555 1_555
C11 C10 1_555 1_555
H6 C11 1_555 1_555
C12 C11 1_555 1_555
H7 C12 1_555 1_555
C13 S1 1_555 1_555
C14 N4 1_555 1_555
H8 C14 1_555 1_555
C15 N5 1_555 1_555
H9 C15 1_555 1_555
C16 N4 1_555 1_555
H10 C16 1_555 1_555
C17 N2 1_555 1_555
H11 C17 1_555 1_555
Ni1C O1 1_555 1_555
Ni1E O4 1_555 1_555
Ni1G N5 1_555 1_555
O1C Ni1 1_555 1_555
O3C Ni1 1_555 1_555
O4E Ni1 1_555 1_555
N5G Ni1 1_555 1_555
O3 Ni1C 1_555 1_555
N3 C17 1_555 1_555
C5 C6 1_555 1_555
C12 C13 1_555 1_555
C15 C16 1_555 1_555

#END
