
#######################################################################
#
#                 Cambridge Crystallographic Data Centre
#                                CCDC 
#
#######################################################################
#
# If this CIF has been generated from an entry in the Cambridge 
# Structural Database, then it will include bibliographic, chemical, 
# crystal, experimental, refinement or atomic coordinate data resulting 
# from the CCDC's data processing and validation procedures.
#
#######################################################################

data_WOXKOL
_symmetry_cell_setting           triclinic
_symmetry_space_group_name_H-M   'P -1'
_symmetry_Int_Tables_number      2
_space_group_name_Hall           '-P 1'
loop_
_symmetry_equiv_pos_site_id
_symmetry_equiv_pos_as_xyz
1 x,y,z
2 -x,-y,-z
_cell_length_a                   7.7565(6)
_cell_length_b                   9.5643(8)
_cell_length_c                   15.1895(14)
_cell_angle_alpha                96.781(7)
_cell_angle_beta                 94.868(7)
_cell_angle_gamma                110.509(7)
_cell_volume                     1038.34
loop_
_atom_site_label
_atom_site_type_symbol
_atom_site_fract_x
_atom_site_fract_y
_atom_site_fract_z
Mn1 Mn 0.70621(7) 0.12265(6) 0.41627(4)
O1 O 0.6056(3) 0.2725(3) 0.35104(17)
O2 O 0.3190(4) 0.7607(3) 0.46082(18)
O3 O 0.4514(3) 0.9302(3) 0.37469(19)
N1 N 0.8893(4) -0.0789(3) 0.1837(2)
O4 O 0.3275(4) 0.2325(3) 0.3980(2)
O5 O 1.0096(4) 0.2973(4) 0.4463(3)
H1 H 1.0839 0.2606 0.4196
N2 N 0.8223(4) 0.0562(3) 0.2961(2)
C1 C 0.9835(4) -0.4375(4) 0.0279(3)
O6 O 0.8069(4) -0.0232(3) 0.4974(2)
H2 H 0.8765 -0.0589 0.4683
H3 H 0.7131 -0.0970 0.5075
C2 C 0.4654(5) 0.3034(4) 0.1540(2)
C3 C 0.4550(4) 0.4315(4) 0.2183(2)
C4 C 0.8567(5) -0.0670(4) 0.2697(3)
H4 H 0.8583 -0.1379 0.3064
C5 C 0.4360(4) 0.4235(4) 0.3086(2)
C6 C 0.4899(5) 0.0620(4) 0.0314(2)
C7 C 0.9203(5) -0.2004(4) 0.1315(3)
C8 C 0.4576(4) 0.5632(4) 0.1867(3)
H5 H 0.4698 0.5708 0.1269
C9 C 0.4426(4) 0.6832(4) 0.2422(2)
H6 H 0.4495 0.7711 0.2198
C10 C 0.4174(4) 0.6730(4) 0.3311(2)
C11 C 0.3719(5) 0.1511(4) 0.1620(2)
H7 H 0.2998 0.1275 0.2079
C12 C 0.4131(4) 0.5407(4) 0.3627(2)
H8 H 0.3943 0.5311 0.4217
C13 C 0.4552(5) 0.2969(4) 0.3563(3)
C14 C 0.9172(5) -0.3375(4) -0.0113(3)
H9 H 0.8946 -0.3491 -0.0733
C15 C 0.3944(5) 0.7987(4) 0.3930(3)
C16 C 1.0139(5) -0.4143(4) 0.1209(3)
H10 H 1.0546 -0.4803 0.1494
C17 C 0.5791(5) 0.2143(4) 0.0226(3)
H11 H 0.6484 0.2377 -0.0243
C18 C 0.8843(5) -0.2220(4) 0.0395(3)
H12 H 0.8377 -0.1587 0.0115
C19 C 0.9858(5) -0.2966(4) 0.1730(3)
H13 H 1.0107 -0.2828 0.2351
C20 C 0.3861(5) 0.0361(4) 0.1022(3)
H14 H 0.3233 -0.0633 0.1097
C21 C 0.5663(5) 0.3305(4) 0.0823(3)
H15 H 0.6271 0.4298 0.0742
C22 C 0.8763(5) 0.0485(4) 0.1533(3)
H16 H 0.8921 0.0737 0.0965
C23 C 0.8359(5) 0.1294(5) 0.2226(3)
H17 H 0.8198 0.2210 0.2209
H18 H 1.048(8) 0.316(7) 0.495(4)
O1A O 0.3944(3) -0.2725(3) -0.35104(17)
O2A O 0.6810(4) -0.7607(3) -0.46082(18)
O3A O 0.5486(3) -0.9302(3) -0.37469(19)
O4A O 0.6725(4) -0.2325(3) -0.3980(2)
C2A C 0.5346(5) -0.3034(4) -0.1540(2)
C3A C 0.5450(4) -0.4315(4) -0.2183(2)
C5A C 0.5640(4) -0.4235(4) -0.3086(2)
C6A C 0.5101(5) -0.0620(4) -0.0314(2)
C8A C 0.5424(4) -0.5632(4) -0.1867(3)
H5A H 0.5302 -0.5708 -0.1269
C9A C 0.5574(4) -0.6832(4) -0.2422(2)
H6A H 0.5505 -0.7711 -0.2198
C10A C 0.5826(4) -0.6730(4) -0.3311(2)
C11A C 0.6281(5) -0.1511(4) -0.1620(2)
H7A H 0.7002 -0.1275 -0.2079
C12A C 0.5869(4) -0.5407(4) -0.3627(2)
H8A H 0.6057 -0.5311 -0.4217
C13A C 0.5448(5) -0.2969(4) -0.3563(3)
C15A C 0.6056(5) -0.7987(4) -0.3930(3)
C17A C 0.4209(5) -0.2143(4) -0.0226(3)
H11A H 0.3516 -0.2377 0.0243
C20A C 0.6139(5) -0.0361(4) -0.1022(3)
H14A H 0.6767 0.0633 -0.1097
C21A C 0.4337(5) -0.3305(4) -0.0823(3)
H15A H 0.3729 -0.4298 -0.0742
N1A N 1.1107(4) -0.9211(3) -0.1837(2)
N2A N 1.1777(4) -1.0562(3) -0.2961(2)
C1A C 1.0165(4) -0.5625(4) -0.0279(3)
C4A C 1.1433(5) -0.9330(4) -0.2697(3)
H4A H 1.1417 -0.8621 -0.3064
C7A C 1.0797(5) -0.7996(4) -0.1315(3)
C14A C 1.0828(5) -0.6625(4) 0.0113(3)
H9A H 1.1054 -0.6509 0.0733
C16A C 0.9861(5) -0.5857(4) -0.1209(3)
H10A H 0.9454 -0.5197 -0.1494
C18A C 1.1157(5) -0.7780(4) -0.0395(3)
H12A H 1.1623 -0.8413 -0.0115
C19A C 1.0142(5) -0.7034(4) -0.1730(3)
H13A H 0.9893 -0.7172 -0.2351
C22A C 1.1237(5) -1.0485(4) -0.1533(3)
H16A H 1.1079 -1.0737 -0.0965
C23A C 1.1641(5) -1.1294(5) -0.2226(3)
H17A H 1.1802 -1.2210 -0.2209
Mn1A Mn 0.29379(7) -1.12265(6) -0.41627(4)
O5A O -0.0096(4) -1.2973(4) -0.4463(3)
H1A H -0.0839 -1.2606 -0.4196
O6A O 0.1931(4) -0.9768(3) -0.4974(2)
H2A H 0.1235 -0.9411 -0.4683
H3A H 0.2869 -0.9030 -0.5075
H18A H -0.048(8) -1.316(7) -0.495(4)
Mn1_2 Mn 0.70621(7) -0.87735(6) -0.58373(4)
Mn1_3 Mn 0.70621(7) 1.12265(6) 0.41627(4)
Mn1A_2 Mn 0.29379(7) -0.12265(6) -0.41627(4)
Mn1A_3 Mn 0.29379(7) 0.87735(6) 0.58373(4)
Mn1A_4 Mn 1.29379(7) -1.12265(6) -0.41627(4)
O1A_2 O 0.3944(3) -1.2725(3) -0.35104(17)
O2_2 O 0.3190(4) -1.2393(3) -0.53918(18)
O2A_2 O 0.6810(4) 0.2393(3) 0.53918(18)
O3_2 O 0.4514(3) -0.0698(3) 0.37469(19)
N2A_2 N 0.1777(4) -1.0562(3) -0.2961(2)
O7 O 0.9195(4) 0.5589(3) 0.3720(3)
H19 H 0.8199 0.4816 0.3590
H20 H 1.0040 0.5349 0.3981
loop_
_geom_bond_atom_site_label_1
_geom_bond_atom_site_label_2
_geom_bond_site_symmetry_1
_geom_bond_site_symmetry_2
Mn1 O1 1_555 1_555
O1 C13 1_555 1_555
O2 C15 1_555 1_555
O3 C15 1_555 1_555
N1 C4 1_555 1_555
O4 C13 1_555 1_555
O5 Mn1 1_555 1_555
H1 O5 1_555 1_555
N2 Mn1 1_555 1_555
C1 C14 1_555 1_555
O6 Mn1 1_555 1_555
H2 O6 1_555 1_555
H3 O6 1_555 1_555
C2 C3 1_555 1_555
C3 C5 1_555 1_555
C4 N2 1_555 1_555
H4 C4 1_555 1_555
C5 C12 1_555 1_555
C6 C17 1_555 1_555
C7 N1 1_555 1_555
C8 C3 1_555 1_555
H5 C8 1_555 1_555
C9 C8 1_555 1_555
H6 C9 1_555 1_555
C10 C9 1_555 1_555
C11 C2 1_555 1_555
H7 C11 1_555 1_555
C12 C10 1_555 1_555
H8 C12 1_555 1_555
C13 C5 1_555 1_555
C14 H9 1_555 1_555
C15 C10 1_555 1_555
C16 C1 1_555 1_555
H10 C16 1_555 1_555
C17 H11 1_555 1_555
C18 C7 1_555 1_555
H12 C18 1_555 1_555
C19 C7 1_555 1_555
H13 C19 1_555 1_555
C20 C6 1_555 1_555
H14 C20 1_555 1_555
C21 C2 1_555 1_555
H15 C21 1_555 1_555
C22 N1 1_555 1_555
H16 C22 1_555 1_555
C23 N2 1_555 1_555
H17 C23 1_555 1_555
H18 O5 1_555 1_555
O7 H19 1_555 1_555
H20 O7 1_555 1_555
O1A C13A 1_555 1_555
O2A C15A 1_555 1_555
O3A C15A 1_555 1_555
O4A C13A 1_555 1_555
C2A C3A 1_555 1_555
C3A C5A 1_555 1_555
C5A C12A 1_555 1_555
C6A C6 1_555 1_555
C8A C3A 1_555 1_555
H5A C8A 1_555 1_555
C9A C8A 1_555 1_555
H6A C9A 1_555 1_555
C10A C9A 1_555 1_555
C11A C2A 1_555 1_555
H7A C11A 1_555 1_555
C12A C10A 1_555 1_555
H8A C12A 1_555 1_555
C13A C5A 1_555 1_555
C15A C10A 1_555 1_555
C17A C6A 1_555 1_555
H11A C17A 1_555 1_555
C20A C6A 1_555 1_555
H14A C20A 1_555 1_555
C21A C2A 1_555 1_555
H15A C21A 1_555 1_555
N1A C4A 1_555 1_555
N2A C4A 1_555 1_555
C1A C1 1_555 1_555
C4A H4A 1_555 1_555
C7A N1A 1_555 1_555
C14A C1A 1_555 1_555
H9A C14A 1_555 1_555
C16A C1A 1_555 1_555
H10A C16A 1_555 1_555
C18A C7A 1_555 1_555
H12A C18A 1_555 1_555
C19A C7A 1_555 1_555
H13A C19A 1_555 1_555
C22A N1A 1_555 1_555
H16A C22A 1_555 1_555
C23A N2A 1_555 1_555
H17A C23A 1_555 1_555
Mn1A O3A 1_555 1_555
O5A Mn1A 1_555 1_555
H1A O5A 1_555 1_555
O6A Mn1A 1_555 1_555
H2A O6A 1_555 1_555
H3A O6A 1_555 1_555
H18A O5A 1_555 1_555
Mn1_2 O2A 1_555 1_555
Mn1_3 O3 1_555 1_555
Mn1A_2 O1A 1_555 1_555
Mn1A_3 O2 1_555 1_555
Mn1A_4 N2A 1_555 1_555
O1A_2 Mn1A 1_555 1_555
O2_2 Mn1A 1_555 1_555
O2A_2 Mn1 1_555 1_555
O3_2 Mn1 1_555 1_555
N2A_2 Mn1A 1_555 1_555
C11 C20 1_555 1_555
C14 C18 1_555 1_555
C16 C19 1_555 1_555
C17 C21 1_555 1_555
C22 C23 1_555 1_555
C11A C20A 1_555 1_555
C17A C21A 1_555 1_555
C14A C18A 1_555 1_555
C16A C19A 1_555 1_555
C22A C23A 1_555 1_555

#END
