
#######################################################################
#
#                 Cambridge Crystallographic Data Centre
#                                CCDC 
#
#######################################################################
#
# If this CIF has been generated from an entry in the Cambridge 
# Structural Database, then it will include bibliographic, chemical, 
# crystal, experimental, refinement or atomic coordinate data resulting 
# from the CCDC's data processing and validation procedures.
#
#######################################################################

data_WOXPUW
_symmetry_cell_setting           monoclinic
_symmetry_space_group_name_H-M   'P 21/n'
_symmetry_Int_Tables_number      14
_space_group_name_Hall           '-P 2yn'
loop_
_symmetry_equiv_pos_site_id
_symmetry_equiv_pos_as_xyz
1 x,y,z
2 1/2-x,1/2+y,1/2-z
3 -x,-y,-z
4 1/2+x,1/2-y,1/2+z
_cell_length_a                   7.767(4)
_cell_length_b                   9.670(5)
_cell_length_c                   19.707(10)
_cell_angle_alpha                90
_cell_angle_beta                 98.545(10)
_cell_angle_gamma                90
_cell_volume                     1463.7
loop_
_atom_site_label
_atom_site_type_symbol
_atom_site_fract_x
_atom_site_fract_y
_atom_site_fract_z
Zn1 Zn 0.48541(10) 0.39637(7) 0.06630(3)
Cl1 Cl 0.7229(5) 0.3530(3) 0.14015(14)
O1 O 0.4530(7) 0.3959(4) -0.0354(2)
N1 N 0.3660(7) 0.1914(5) 0.0434(2)
C1 C 0.3913(8) 0.2813(6) -0.0673(3)
N2 N 0.2027(7) -0.0149(5) 0.3822(2)
C2 C 0.3715(9) 0.2625(7) -0.1375(3)
H1 H 0.4069 0.3338 -0.1656
C3 C 0.3008(10) 0.1410(7) -0.1681(3)
H2 H 0.2889 0.1315 -0.2165
C4 C 0.2482(9) 0.0348(7) -0.1298(3)
H3 H 0.1996 -0.0470 -0.1516
C5 C 0.2671(8) 0.0485(7) -0.0574(3)
C6 C 0.3405(8) 0.1705(6) -0.0262(3)
C7 C 0.2205(9) -0.0554(8) -0.0134(4)
H4 H 0.1704 -0.1395 -0.0319
C8 C 0.2474(9) -0.0352(7) 0.0555(3)
H5 H 0.2177 -0.1062 0.0850
C9 C 0.3191(8) 0.0901(6) 0.0839(3)
C10 C 0.3493(9) 0.1131(6) 0.1571(3)
H6 H 0.4317 0.1817 0.1745
C11 C 0.2680(9) 0.0434(8) 0.2023(3)
H7 H 0.1822 -0.0216 0.1835
C12 C 0.2967(9) 0.0563(7) 0.2767(3)
C13 C 0.4278(9) 0.1347(8) 0.3143(4)
H8 H 0.5056 0.1864 0.2913
C14 C 0.4446(10) 0.1372(8) 0.3848(4)
H9 H 0.5341 0.1903 0.4108
C15 C 0.3296(9) 0.0615(7) 0.4172(3)
H10 H 0.3410 0.0637 0.4659
C16 C 0.1894(9) -0.0172(7) 0.3140(3)
H11 H 0.1006 -0.0728 0.2893
Zn1A Zn 0.01459(10) -0.10363(7) 0.43370(3)
Zn1B Zn 0.51459(10) 0.60363(7) -0.06630(3)
O1B O 0.5470(7) 0.6041(4) 0.0354(2)
N2A N 0.2973(7) 0.4851(5) 0.1178(2)
loop_
_geom_bond_atom_site_label_1
_geom_bond_atom_site_label_2
_geom_bond_site_symmetry_1
_geom_bond_site_symmetry_2
Zn1 Cl1 1_555 1_555
O1 Zn1 1_555 1_555
N1 Zn1 1_555 1_555
C1 O1 1_555 1_555
N2 C15 1_555 1_555
C2 C1 1_555 1_555
H1 C2 1_555 1_555
C3 C2 1_555 1_555
H2 C3 1_555 1_555
C4 C3 1_555 1_555
H3 C4 1_555 1_555
C5 C4 1_555 1_555
C6 N1 1_555 1_555
C7 C5 1_555 1_555
H4 C7 1_555 1_555
C8 C7 1_555 1_555
H5 C8 1_555 1_555
C9 N1 1_555 1_555
C10 C9 1_555 1_555
H6 C10 1_555 1_555
C11 C10 1_555 1_555
H7 C11 1_555 1_555
C12 C11 1_555 1_555
C13 C12 1_555 1_555
H8 C13 1_555 1_555
C14 C13 1_555 1_555
H9 C14 1_555 1_555
C15 C14 1_555 1_555
H10 C15 1_555 1_555
C16 N2 1_555 1_555
H11 C16 1_555 1_555
Zn1A N2 1_555 1_555
Zn1B O1 1_555 1_555
O1B Zn1 1_555 1_555
N2A Zn1 1_555 1_555
C1 C6 1_555 1_555
C5 C6 1_555 1_555
C8 C9 1_555 1_555
C12 C16 1_555 1_555
Zn1B O1B 1_555 1_555

#END
