
#######################################################################
#
#                 Cambridge Crystallographic Data Centre
#                                CCDC 
#
#######################################################################
#
# If this CIF has been generated from an entry in the Cambridge 
# Structural Database, then it will include bibliographic, chemical, 
# crystal, experimental, refinement or atomic coordinate data resulting 
# from the CCDC's data processing and validation procedures.
#
#######################################################################

data_WOYJEB
_symmetry_cell_setting           tetragonal
_symmetry_space_group_name_H-M   'I 41/a m d'
_symmetry_Int_Tables_number      141
_space_group_name_Hall           '-I 4bd 2'
loop_
_symmetry_equiv_pos_site_id
_symmetry_equiv_pos_as_xyz
1 x,y,z
2 1/4-y,3/4+x,1/4+z
3 -x,1/2-y,z
4 1/4+y,1/4-x,3/4+z
5 x,-y,-z
6 -x,1/2+y,-z
7 1/4+y,3/4+x,1/4-z
8 1/4-y,1/4-x,3/4-z
9 1/2+x,1/2+y,1/2+z
10 3/4-y,1/4+x,3/4+z
11 1/2-x,-y,1/2+z
12 3/4+y,3/4-x,1/4+z
13 1/2+x,1/2-y,1/2-z
14 1/2-x,y,1/2-z
15 3/4+y,1/4+x,3/4-z
16 3/4-y,3/4-x,1/4-z
17 -x,-y,-z
18 3/4+y,1/4-x,3/4-z
19 x,1/2+y,-z
20 3/4-y,3/4+x,1/4-z
21 -x,y,z
22 x,1/2-y,z
23 3/4-y,1/4-x,3/4+z
24 3/4+y,3/4+x,1/4+z
25 1/2-x,1/2-y,1/2-z
26 1/4+y,3/4-x,1/4-z
27 1/2+x,y,1/2-z
28 1/4-y,1/4+x,3/4-z
29 1/2-x,1/2+y,1/2+z
30 1/2+x,-y,1/2+z
31 1/4-y,3/4-x,1/4+z
32 1/4+y,1/4+x,3/4+z
_cell_length_a                   25.4440(14)
_cell_length_b                   25.4440(14)
_cell_length_c                   53.616(3)
_cell_angle_alpha                90
_cell_angle_beta                 90
_cell_angle_gamma                90
_cell_volume                     34710.8
loop_
_atom_site_label
_atom_site_type_symbol
_atom_site_fract_x
_atom_site_fract_y
_atom_site_fract_z
Zn1 Zn 0.28215(3) 0.7500 0.027474(14)
Zn2 Zn 0.19680(3) 0.7500 -0.010916(13)
Zn3 Zn 0.22329(2) 0.44460(2) 0.126796(10)
O1 O 0.27730(14) 0.41182(12) 0.14975(6)
C1 C 0.3129(2) 0.4387(2) 0.16016(10)
O2 O 0.44400(14) 0.50263(14) 0.22583(6)
O3 O 0.32897(14) 0.48403(12) 0.15272(6)
C2 C 0.1891(2) 0.6767(2) 0.03065(11)
O4 O 0.16653(13) 0.69525(14) 0.01205(7)
N1 N 0.04220(15) 0.55683(17) 0.04645(9)
O5 O 0.25417(14) 0.54599(16) 0.09491(7)
O6 O 0.16546(17) 0.39097(17) 0.13121(9)
C3 C 0.20750(19) 0.5321(2) 0.09201(10)
O7 O 0.23206(15) 0.69538(16) 0.03973(8)
C4 C 0.3717(2) 0.44697(18) 0.19756(9)
H1 H 0.3785 0.4824 0.1930
N2 N 0.3401(2) 0.29140(15) 0.21826(8)
C5 C 0.3827(2) 0.37508(18) 0.22577(10)
H2 H 0.3977 0.3606 0.2405
C6 C 0.12510(18) 0.54398(18) 0.06778(9)
H3 H 0.1113 0.5132 0.0753
C7 C 0.11566(18) 0.61477(19) 0.03818(10)
H4 H 0.0952 0.6322 0.0259
C8 C 0.4302(2) 0.4603(2) 0.23359(10)
C9 C 0.3277(2) 0.36447(19) 0.18936(9)
H5 H 0.3058 0.3427 0.1793
C10 C 0.16665(19) 0.63151(19) 0.04368(10)
C11 C 0.3382(2) 0.41568(18) 0.18218(8)
O8 O 0.44673(18) 0.43919(16) 0.25394(9)
C12 C 0.19668(19) 0.60365(19) 0.06190(10)
H6 H 0.2313 0.6148 0.0659
C13 C 0.3491(3) 0.2500 0.20462(12)
H7 H 0.3603 0.2500 0.1877
C14 C 0.3491(2) 0.34525(18) 0.21111(10)
C15 C 0.17573(18) 0.5613(2) 0.07354(10)
C16 C 0.09582(17) 0.5721(2) 0.05113(10)
C17 C 0.3234(4) 0.2771(2) 0.24354(11)
H8 H 0.3146 0.3000 0.2569
C18 C 0.0302(3) 0.5077(3) 0.03989(18)
H9 H 0.0534 0.4796 0.0361
C19 C 0.0000 0.5835(3) 0.04957(16)
H10 H 0.0000 0.6198 0.0538
O9 O 0.1428(2) 0.7500 -0.03778(12)
C20 C 0.3942(2) 0.42710(19) 0.21865(9)
O10 O 0.3338(2) 0.7500 0.05399(11)
O11 O 0.18501(13) 0.49495(17) 0.10366(7)
O1U O 0.27730(14) 0.08818(12) 0.14975(6)
C1U C 0.3129(2) 0.0613(2) 0.16016(10)
C4U C 0.3717(2) 0.05303(18) 0.19756(9)
H1U H 0.3785 0.0176 0.1930
N2U N 0.3401(2) 0.20860(15) 0.21826(8)
C5U C 0.3827(2) 0.12492(18) 0.22577(10)
H2U H 0.3977 0.1394 0.2405
C9U C 0.3277(2) 0.13553(19) 0.18936(9)
H5U H 0.3058 0.1573 0.1793
C11U C 0.3382(2) 0.08432(18) 0.18218(8)
C14U C 0.3491(2) 0.15475(18) 0.21111(10)
C17U C 0.3234(4) 0.2229(2) 0.24354(11)
H8U H 0.3146 0.2000 0.2569
C20U C 0.3942(2) 0.07290(19) 0.21865(9)
O2U O 0.44400(14) -0.00263(14) 0.22583(6)
C8U C 0.4302(2) 0.0397(2) 0.23359(10)
O3U O 0.32897(14) 0.01597(12) 0.15272(6)
O8U O 0.44673(18) 0.06081(16) 0.25394(9)
C2T C -0.1891(2) 0.6767(2) 0.03065(11)
O4T O -0.16653(13) 0.69525(14) 0.01205(7)
N1T N -0.04220(15) 0.55683(17) 0.04645(9)
C3T C -0.20750(19) 0.5321(2) 0.09201(10)
O7T O -0.23206(15) 0.69538(16) 0.03973(8)
C6T C -0.12510(18) 0.54398(18) 0.06778(9)
H3T H -0.1113 0.5132 0.0753
C7T C -0.11566(18) 0.61477(19) 0.03818(10)
H4T H -0.0952 0.6322 0.0259
C10T C -0.16665(19) 0.63151(19) 0.04368(10)
C12T C -0.19668(19) 0.60365(19) 0.06190(10)
H6T H -0.2313 0.6148 0.0659
C15T C -0.17573(18) 0.5613(2) 0.07354(10)
C16T C -0.09582(17) 0.5721(2) 0.05113(10)
C18T C -0.0302(3) 0.5077(3) 0.03989(18)
H9T H -0.0534 0.4796 0.0361
O11T O -0.18501(13) 0.49495(17) 0.10366(7)
O5T O -0.25417(14) 0.54599(16) 0.09491(7)
Zn3O Zn 0.30540(2) 0.52671(2) 0.123204(10)
O6O O 0.35903(17) 0.58454(17) 0.11879(9)
Zn1A Zn 0.5000 0.03215(3) 0.277474(14)
Zn1B Zn -0.28215(3) 0.7500 0.027474(14)
Zn1K Zn 0.5000 0.46785(3) 0.277474(14)
Zn2A Zn 0.5000 -0.05320(3) 0.239084(13)
Zn2B Zn -0.19680(3) 0.7500 -0.010916(13)
Zn2K Zn 0.5000 0.55320(3) 0.239084(13)
Zn3S Zn 0.30540(2) -0.02671(2) 0.123204(10)
Zn3T Zn -0.22329(2) 0.44460(2) 0.126796(10)
Zn3U Zn 0.22329(2) 0.05540(2) 0.126796(10)
Zn3Y Zn -0.30540(2) 0.52671(2) 0.123204(10)
O1O O 0.33818(12) 0.47270(14) 0.10025(6)
O2I O 0.24737(14) 0.69400(14) -0.02417(6)
O2V O 0.24737(14) 0.80600(14) -0.02417(6)
O3O O 0.26597(12) 0.42103(14) 0.09728(6)
O4U O 0.16653(13) 0.80475(14) 0.01205(7)
O5O O 0.20401(16) 0.49583(14) 0.15509(7)
O7U O 0.23206(15) 0.80462(16) 0.03973(8)
O8I O 0.31081(16) 0.69673(18) 0.00394(9)
O8V O 0.31081(16) 0.80327(18) 0.00394(9)
O11O O 0.25505(17) 0.56499(13) 0.14634(7)
loop_
_geom_bond_atom_site_label_1
_geom_bond_atom_site_label_2
_geom_bond_site_symmetry_1
_geom_bond_site_symmetry_2
Zn1 O7 1_555 1_555
Zn2 O4 1_555 1_555
Zn3 O1 1_555 1_555
O1 C1 1_555 1_555
C1 O3 1_555 1_555
O2 C8 1_555 1_555
O3 Zn3O 1_555 1_555
C2 O4 1_555 1_555
N1 C16 1_555 1_555
O5 C3 1_555 1_555
O6 Zn3 1_555 1_555
C3 C15 1_555 1_555
O7 C2 1_555 1_555
C4 H1 1_555 1_555
N2 C13 1_555 1_555
C5 H2 1_555 1_555
C6 H3 1_555 1_555
C7 H4 1_555 1_555
C8 O8 1_555 1_555
C9 H5 1_555 1_555
C10 C2 1_555 1_555
C11 C1 1_555 1_555
O8 Zn1K 1_555 1_555
C12 C10 1_555 1_555
H6 C12 1_555 1_555
C13 H7 1_555 1_555
C14 N2 1_555 1_555
C15 C6 1_555 1_555
C16 C6 1_555 1_555
C17 N2 1_555 1_555
H8 C17 1_555 1_555
C18 N1 1_555 1_555
H9 C18 1_555 1_555
C19 N1 1_555 1_555
H10 C19 1_555 1_555
O9 Zn2 1_555 1_555
C20 C4 1_555 1_555
O10 Zn1 1_555 1_555
O11 Zn3 1_555 1_555
O1U C1U 1_555 1_555
C1U C11U 1_555 1_555
C4U H1U 1_555 1_555
N2U C13 1_555 1_555
C5U H2U 1_555 1_555
C9U H5U 1_555 1_555
C11U C4U 1_555 1_555
C14U N2U 1_555 1_555
C17U C17 1_555 1_555
H8U C17U 1_555 1_555
C20U C4U 1_555 1_555
O2U C8U 1_555 1_555
C8U C20U 1_555 1_555
O3U C1U 1_555 1_555
O8U C8U 1_555 1_555
C2T O4T 1_555 1_555
O4T Zn2B 1_555 1_555
N1T C19 1_555 1_555
C3T C15T 1_555 1_555
O7T C2T 1_555 1_555
C6T H3T 1_555 1_555
C7T H4T 1_555 1_555
C10T C2T 1_555 1_555
C12T C10T 1_555 1_555
H6T C12T 1_555 1_555
C15T C6T 1_555 1_555
C16T N1T 1_555 1_555
C18T C18 1_555 1_555
H9T C18T 1_555 1_555
O11T C3T 1_555 1_555
O5T C3T 1_555 1_555
Zn3O O5 1_555 1_555
O6O Zn3O 1_555 1_555
Zn1A O8U 1_555 1_555
Zn1B O7T 1_555 1_555
Zn2A O2U 1_555 1_555
Zn2K O2 1_555 1_555
Zn3S O3U 1_555 1_555
Zn3T O11T 1_555 1_555
Zn3U O1U 1_555 1_555
Zn3Y O5T 1_555 1_555
O1O Zn3O 1_555 1_555
O2I Zn2 1_555 1_555
O2V Zn2 1_555 1_555
O3O Zn3 1_555 1_555
O4U Zn2 1_555 1_555
O5O Zn3 1_555 1_555
O7U Zn1 1_555 1_555
O8I Zn1 1_555 1_555
O8V Zn1 1_555 1_555
O11O Zn3O 1_555 1_555
C3 O11 1_555 1_555
C4 C11 1_555 1_555
C5 C14 1_555 1_555
C5 C20 1_555 1_555
C7 C10 1_555 1_555
C7 C16 1_555 1_555
C8 C20 1_555 1_555
C9 C11 1_555 1_555
C9 C14 1_555 1_555
C12 C15 1_555 1_555
N2U C17U 1_555 1_555
C5U C14U 1_555 1_555
C5U C20U 1_555 1_555
C9U C11U 1_555 1_555
C9U C14U 1_555 1_555
N1T C18T 1_555 1_555
C6T C16T 1_555 1_555
C7T C10T 1_555 1_555
C7T C16T 1_555 1_555
C12T C15T 1_555 1_555

#END
