
#######################################################################
#
#                 Cambridge Crystallographic Data Centre
#                                CCDC 
#
#######################################################################
#
# If this CIF has been generated from an entry in the Cambridge 
# Structural Database, then it will include bibliographic, chemical, 
# crystal, experimental, refinement or atomic coordinate data resulting 
# from the CCDC's data processing and validation procedures.
#
#######################################################################

data_WOYJOL
_symmetry_cell_setting           tetragonal
_symmetry_space_group_name_H-M   'I 41/a m d'
_symmetry_Int_Tables_number      141
_space_group_name_Hall           '-I 4bd 2'
loop_
_symmetry_equiv_pos_site_id
_symmetry_equiv_pos_as_xyz
1 x,y,z
2 1/4-y,3/4+x,1/4+z
3 -x,1/2-y,z
4 1/4+y,1/4-x,3/4+z
5 x,-y,-z
6 -x,1/2+y,-z
7 1/4+y,3/4+x,1/4-z
8 1/4-y,1/4-x,3/4-z
9 1/2+x,1/2+y,1/2+z
10 3/4-y,1/4+x,3/4+z
11 1/2-x,-y,1/2+z
12 3/4+y,3/4-x,1/4+z
13 1/2+x,1/2-y,1/2-z
14 1/2-x,y,1/2-z
15 3/4+y,1/4+x,3/4-z
16 3/4-y,3/4-x,1/4-z
17 -x,-y,-z
18 3/4+y,1/4-x,3/4-z
19 x,1/2+y,-z
20 3/4-y,3/4+x,1/4-z
21 -x,y,z
22 x,1/2-y,z
23 3/4-y,1/4-x,3/4+z
24 3/4+y,3/4+x,1/4+z
25 1/2-x,1/2-y,1/2-z
26 1/4+y,3/4-x,1/4-z
27 1/2+x,y,1/2-z
28 1/4-y,1/4+x,3/4-z
29 1/2-x,1/2+y,1/2+z
30 1/2+x,-y,1/2+z
31 1/4-y,3/4-x,1/4+z
32 1/4+y,1/4+x,3/4+z
_cell_length_a                   25.4117(14)
_cell_length_b                   25.4117(14)
_cell_length_c                   52.162(6)
_cell_angle_alpha                90
_cell_angle_beta                 90
_cell_angle_gamma                90
_cell_volume                     33683.8
loop_
_atom_site_label
_atom_site_type_symbol
_atom_site_fract_x
_atom_site_fract_y
_atom_site_fract_z
Cu1 Cu 0.223377(19) 0.451685(19) 0.126140(9)
Cu2 Cu 0.0000 0.54479(3) 0.261831(12)
Cu3 Cu 0.0000 0.47153(3) 0.225360(12)
O1 O 0.20018(12) 0.49879(11) 0.15465(5)
O2 O 0.05403(11) 0.58012(10) 0.24114(5)
O3 O 0.05402(11) 0.51681(11) 0.21126(5)
O4 O 0.05347(13) 0.43708(11) 0.24605(6)
O5 O 0.05413(12) 0.49874(11) 0.27633(5)
C1 C 0.21653(16) 0.54418(16) 0.15877(8)
C2 C 0.16658(16) 0.41510(15) 0.31700(8)
C3 C 0.18853(16) 0.57593(15) 0.17816(8)
C4 C 0.14349(16) 0.55620(15) 0.18993(8)
H1 H 0.1308 0.5226 0.1849
C5 C 0.11711(16) 0.58301(15) 0.20826(8)
C6 C 0.07128(17) 0.55852(16) 0.22131(8)
O6 O 0.0000 0.4128(2) 0.19599(10)
C7 C 0.06913(18) 0.45581(17) 0.26663(8)
C8 C 0.10810(16) 0.42441(15) 0.28153(7)
C9 C 0.12057(17) 0.37507(16) 0.27385(8)
H2 H 0.1046 0.3602 0.2591
C10 C 0.15722(17) 0.34639(15) 0.28806(8)
C11 C 0.17941(17) 0.36608(15) 0.30939(8)
H3 H 0.2038 0.3457 0.3190
C12 C 0.13054(16) 0.44431(15) 0.30337(7)
H4 H 0.1211 0.4785 0.3091
N1 N 0.16684(15) 0.29248(13) 0.28025(7)
C13 C 0.1808(2) 0.27626(17) 0.25538(9)
H5 H 0.1887 0.2985 0.2413
C14 C 0.1560(3) 0.2500 0.29551(12)
H6 H 0.1438 0.2500 0.3127
O7 O 0.0000 0.6025(2) 0.29284(10)
C15 C 0.13381(15) 0.63391(15) 0.21470(8)
H7 H 0.1161 0.6538 0.2275
C16 C 0.17648(17) 0.65415(15) 0.20197(8)
C17 C 0.20424(17) 0.62647(15) 0.18410(8)
H8 H 0.2339 0.6417 0.1759
N2 N 0.19322(13) 0.70835(12) 0.20725(7)
C18 C 0.24211(19) 0.72347(16) 0.21478(9)
H9 H 0.2707 0.7011 0.2192
C19 C 0.1649(3) 0.7500 0.20184(12)
H10 H 0.1301 0.7500 0.1952
C20 C 0.19313(18) 0.44037(16) 0.33990(7)
O8 O 0.23126(11) 0.41611(10) 0.34956(5)
O9 O 0.17518(12) 0.48385(11) 0.34728(5)
O10 O 0.25538(12) 0.56588(10) 0.14783(5)
O11 O 0.16255(16) 0.39402(16) 0.12823(7)
O1U O 0.20018(12) 1.00121(11) 0.15465(5)
O2U O 0.05403(11) 0.91988(10) 0.24114(5)
O3U O 0.05402(11) 0.98319(11) 0.21126(5)
C1U C 0.21653(16) 0.95582(16) 0.15877(8)
C3U C 0.18853(16) 0.92407(15) 0.17816(8)
C4U C 0.14349(16) 0.94380(15) 0.18993(8)
H1U H 0.1308 0.9774 0.1849
C5U C 0.11711(16) 0.91699(15) 0.20826(8)
C6U C 0.07128(17) 0.94148(16) 0.22131(8)
C15U C 0.13381(15) 0.86609(15) 0.21470(8)
H7U H 0.1161 0.8462 0.2275
C16U C 0.17648(17) 0.84585(15) 0.20197(8)
C17U C 0.20424(17) 0.87353(15) 0.18410(8)
H8U H 0.2339 0.8583 0.1759
N2U N 0.19322(13) 0.79165(12) 0.20725(7)
C18U C 0.24211(19) 0.77653(16) 0.21478(9)
H9U H 0.2707 0.7989 0.2192
O10U O 0.25538(12) 0.93412(10) 0.14783(5)
O4U O 0.05347(13) 0.06292(11) 0.24605(6)
O5U O 0.05413(12) 0.00126(11) 0.27633(5)
C2U C 0.16658(16) 0.08490(15) 0.31700(8)
C7U C 0.06913(18) 0.04419(17) 0.26663(8)
C8U C 0.10810(16) 0.07559(15) 0.28153(7)
C9U C 0.12057(17) 0.12493(16) 0.27385(8)
H2U H 0.1046 0.1398 0.2591
C10U C 0.15722(17) 0.15361(15) 0.28806(8)
C11U C 0.17941(17) 0.13392(15) 0.30939(8)
H3U H 0.2038 0.1543 0.3190
C12U C 0.13054(16) 0.05569(15) 0.30337(7)
H4U H 0.1211 0.0215 0.3091
N1U N 0.16684(15) 0.20752(13) 0.28025(7)
C13U C 0.1808(2) 0.22374(17) 0.25538(9)
H5U H 0.1887 0.2015 0.2413
C20U C 0.19313(18) 0.05963(16) 0.33990(7)
O8U O 0.23126(11) 0.08389(10) 0.34956(5)
O9U O 0.17518(12) 0.01615(11) 0.34728(5)
Cu1O Cu 0.298315(19) 0.526623(19) 0.123860(9)
O11O O 0.35598(16) 0.58745(16) 0.12177(7)
Cu1K Cu 0.201685(19) 0.526623(19) 0.376140(9)
Cu1M Cu 0.276623(19) 0.451685(19) 0.373860(9)
Cu1S Cu 0.298315(19) 0.973377(19) 0.123860(9)
Cu1U Cu 0.223377(19) 1.048315(19) 0.126140(9)
Cu1W Cu 0.201685(19) -0.026623(19) 0.376140(9)
Cu1X Cu 0.276623(19) 0.048315(19) 0.373860(9)
Cu2B Cu 0.0000 -0.04479(3) 0.261831(12)
Cu2B_2 Cu 0.0000 0.95521(3) 0.261831(12)
Cu3B Cu 0.0000 0.02847(3) 0.225360(12)
Cu3B_2 Cu 0.0000 1.02847(3) 0.225360(12)
O1O O 0.25121(11) 0.54982(12) 0.09535(5)
O2T O -0.05403(11) 0.58012(10) 0.24114(5)
O3T O -0.05402(11) 0.51681(11) 0.21126(5)
O4T O -0.05347(13) 0.43708(11) 0.24605(6)
O5T O -0.05413(12) 0.49874(11) 0.27633(5)
O8I O 0.33389(10) 0.48126(11) 0.09956(5)
O8M O 0.26874(11) 0.41611(10) 0.15044(5)
O9I O 0.26615(11) 0.42518(12) 0.09728(5)
O9M O 0.32482(12) 0.48385(11) 0.15272(5)
O10O O 0.18412(10) 0.49462(12) 0.10217(5)
loop_
_geom_bond_atom_site_label_1
_geom_bond_atom_site_label_2
_geom_bond_site_symmetry_1
_geom_bond_site_symmetry_2
Cu1 O1 1_555 1_555
Cu2 Cu3 1_555 1_555
Cu3 O3 1_555 1_555
O1 C1 1_555 1_555
O2 Cu2 1_555 1_555
O3 C6 1_555 1_555
O4 Cu3 1_555 1_555
O5 Cu2 1_555 1_555
C1 C3 1_555 1_555
C2 C11 1_555 1_555
C3 C4 1_555 1_555
C4 H1 1_555 1_555
C5 C4 1_555 1_555
C6 O2 1_555 1_555
O6 Cu3 1_555 1_555
C7 O4 1_555 1_555
C8 C7 1_555 1_555
C9 C8 1_555 1_555
H2 C9 1_555 1_555
C10 C9 1_555 1_555
C11 C10 1_555 1_555
H3 C11 1_555 1_555
C12 C2 1_555 1_555
H4 C12 1_555 1_555
N1 C10 1_555 1_555
C13 N1 1_555 1_555
H5 C13 1_555 1_555
C14 N1 1_555 1_555
H6 C14 1_555 1_555
O7 Cu2 1_555 1_555
C15 C5 1_555 1_555
H7 C15 1_555 1_555
C16 C15 1_555 1_555
C17 C3 1_555 1_555
H8 C17 1_555 1_555
N2 C16 1_555 1_555
C18 N2 1_555 1_555
H9 C18 1_555 1_555
C19 N2 1_555 1_555
H10 C19 1_555 1_555
C20 C2 1_555 1_555
O8 C20 1_555 1_555
O9 C20 1_555 1_555
O10 C1 1_555 1_555
O11 Cu1 1_555 1_555
O1U C1U 1_555 1_555
O2U C6U 1_555 1_555
O3U C6U 1_555 1_555
C1U C3U 1_555 1_555
C3U C4U 1_555 1_555
C4U H1U 1_555 1_555
C5U C4U 1_555 1_555
C6U C5U 1_555 1_555
C15U C5U 1_555 1_555
H7U C15U 1_555 1_555
C16U C15U 1_555 1_555
C17U C3U 1_555 1_555
H8U C17U 1_555 1_555
N2U C19 1_555 1_555
C18U C18 1_555 1_555
H9U C18U 1_555 1_555
O10U C1U 1_555 1_555
O4U C7U 1_555 1_555
O5U C7U 1_555 1_555
C2U C11U 1_555 1_555
C7U C8U 1_555 1_555
C8U C9U 1_555 1_555
C9U H2U 1_555 1_555
C10U C9U 1_555 1_555
C11U C10U 1_555 1_555
H3U C11U 1_555 1_555
C12U C2U 1_555 1_555
H4U C12U 1_555 1_555
N1U C14 1_555 1_555
C13U C13 1_555 1_555
H5U C13U 1_555 1_555
C20U C2U 1_555 1_555
O8U C20U 1_555 1_555
O9U C20U 1_555 1_555
Cu1O Cu1 1_555 1_555
O11O Cu1O 1_555 1_555
Cu1K O9 1_555 1_555
Cu1M O8 1_555 1_555
Cu1S O10U 1_555 1_555
Cu1U O1U 1_555 1_555
Cu1W O9U 1_555 1_555
Cu1X O8U 1_555 1_555
Cu2B O5U 1_555 1_555
Cu2B_2 O2U 1_555 1_555
Cu3B O4U 1_555 1_555
Cu3B_2 O3U 1_555 1_555
O1O Cu1O 1_555 1_555
O2T Cu2 1_555 1_555
O3T Cu3 1_555 1_555
O4T Cu3 1_555 1_555
O5T Cu2 1_555 1_555
O8I Cu1O 1_555 1_555
O8M Cu1 1_555 1_555
O9I Cu1 1_555 1_555
O9M Cu1O 1_555 1_555
O10O Cu1 1_555 1_555
O5 C7 1_555 1_555
C5 C6 1_555 1_555
C8 C12 1_555 1_555
C16 C17 1_555 1_555
O10 Cu1O 1_555 1_555
C16U C17U 1_555 1_555
C16U N2U 1_555 1_555
N2U C18U 1_555 1_555
C8U C12U 1_555 1_555
C10U N1U 1_555 1_555
N1U C13U 1_555 1_555
Cu1K Cu1M 1_555 1_555
Cu1S Cu1U 1_555 1_555
Cu1W Cu1X 1_555 1_555
Cu2B Cu3B 1_555 1_555
Cu2B_2 Cu3B_2 1_555 1_555

#END
