
#######################################################################
#
#                 Cambridge Crystallographic Data Centre
#                                CCDC 
#
#######################################################################
#
# If this CIF has been generated from an entry in the Cambridge 
# Structural Database, then it will include bibliographic, chemical, 
# crystal, experimental, refinement or atomic coordinate data resulting 
# from the CCDC's data processing and validation procedures.
#
#######################################################################

data_WOZKUR
_symmetry_cell_setting           monoclinic
_symmetry_space_group_name_H-M   'C 2/c'
_symmetry_Int_Tables_number      15
_space_group_name_Hall           '-C 2yn'
loop_
_symmetry_equiv_pos_site_id
_symmetry_equiv_pos_as_xyz
1 x,y,z
2 -x,y,1/2-z
3 1/2+x,1/2+y,z
4 1/2-x,1/2+y,1/2-z
5 -x,-y,-z
6 x,-y,1/2+z
7 1/2-x,1/2-y,-z
8 1/2+x,1/2-y,1/2+z
_cell_length_a                   13.2355(4)
_cell_length_b                   7.1765(2)
_cell_length_c                   7.6324(2)
_cell_angle_alpha                90
_cell_angle_beta                 122.442(1)
_cell_angle_gamma                90
_cell_volume                     611.819
loop_
_atom_site_label
_atom_site_type_symbol
_atom_site_fract_x
_atom_site_fract_y
_atom_site_fract_z
Co1 Co 0.2500 0.2500 0.0000
O1 O 0.3709(4) 0.2814(9) 0.3271(7)
O2 O 0.2760(4) 0.4985(6) 0.4037(8)
C1 C 0.3570(5) 0.3839(9) 0.4450(3)
C2 C 0.4577(6) 0.3731(8) 0.6622(6)
O3 O 0.3917(4) 0.1286(6) 0.0012(7)
C2A C 0.5423(6) 0.3731(8) 0.8378(6)
C1A C 0.6430(5) 0.3839(9) 1.0550(3)
O1A O 0.6291(4) 0.2814(9) 1.1729(7)
O2A O 0.7240(4) 0.4985(6) 1.0963(8)
O3F O 0.1083(4) 0.3714(6) -0.0012(7)
O1F O 0.1291(4) 0.2186(9) -0.3271(7)
O2C O 0.2240(4) -0.0015(6) 0.0963(8)
O2E O 0.2760(4) 0.5015(6) -0.0963(8)
Co1C Co 0.2500 0.7500 0.5000
Co1A Co 0.7500 0.2500 1.5000
Co1B Co 0.7500 0.7500 1.0000
loop_
_geom_bond_atom_site_label_1
_geom_bond_atom_site_label_2
_geom_bond_site_symmetry_1
_geom_bond_site_symmetry_2
Co1 O1 1_555 1_555
O1 C1 1_555 1_555
O2 C1 1_555 1_555
C1 C2 1_555 1_555
C2 C2A 1_555 1_555
O3 Co1 1_555 1_555
C2A C1A 1_555 1_555
C1A O1A 1_555 1_555
O1A Co1A 1_555 1_555
O2A C1A 1_555 1_555
O3F Co1 1_555 1_555
O1F Co1 1_555 1_555
O2C Co1 1_555 1_555
O2E Co1 1_555 1_555
Co1C O2 1_555 1_555
Co1B O2A 1_555 1_555

#END
