
#######################################################################
#
#                 Cambridge Crystallographic Data Centre
#                                CCDC 
#
#######################################################################
#
# If this CIF has been generated from an entry in the Cambridge 
# Structural Database, then it will include bibliographic, chemical, 
# crystal, experimental, refinement or atomic coordinate data resulting 
# from the CCDC's data processing and validation procedures.
#
#######################################################################

data_WOZPEI
_symmetry_cell_setting           monoclinic
_symmetry_space_group_name_H-M   'C 2/c'
_symmetry_Int_Tables_number      15
_space_group_name_Hall           '-C 2yn'
loop_
_symmetry_equiv_pos_site_id
_symmetry_equiv_pos_as_xyz
1 x,y,z
2 -x,y,1/2-z
3 1/2+x,1/2+y,z
4 1/2-x,1/2+y,1/2-z
5 -x,-y,-z
6 x,-y,1/2+z
7 1/2-x,1/2-y,-z
8 1/2+x,1/2-y,1/2+z
_cell_length_a                   11.4672(9)
_cell_length_b                   7.1734(6)
_cell_length_c                   17.2977(14)
_cell_angle_alpha                90
_cell_angle_beta                 102.9570(10)
_cell_angle_gamma                90
_cell_volume                     1386.66
loop_
_atom_site_label
_atom_site_type_symbol
_atom_site_fract_x
_atom_site_fract_y
_atom_site_fract_z
Cu1 Cu 0.14224(2) 0.26684(4) 0.312658(13)
Cu2 Cu 0.14206(2) 0.11439(4) 0.501767(15)
Cl1 Cl 0.28307(4) 0.12383(7) 0.41481(3)
S1 S 0.15588(4) 0.59044(7) 0.31332(3)
N1 N 0.37742(13) 0.6934(2) 0.30119(9)
N2 N 0.48895(13) 0.6997(2) 0.34765(9)
N3 N 0.48691(14) 0.6401(2) 0.41871(9)
N4 N 0.37412(14) 0.5897(2) 0.42108(9)
C1 C 0.30929(16) 0.6267(2) 0.34808(10)
C2 C 0.0982(2) 0.6688(4) 0.39704(15)
H1 H 0.1267 0.5880 0.4415
H2 H 0.0124 0.6664 0.3832
H3 H 0.1251 0.7938 0.4108
Cu1B Cu 0.64224(2) 0.76684(4) 0.312658(13)
Cu1C Cu 0.35776(2) 0.76684(4) 0.187342(13)
Cu2B Cu 0.64206(2) 0.61439(4) 0.501767(15)
Cu2F Cu 0.35794(2) 0.38561(4) 0.498233(15)
Cl1F Cl 0.21693(4) 0.37617(7) 0.58519(3)
N1C N 0.12258(13) 0.1934(2) 0.19881(9)
N2B N -0.01105(13) 0.1997(2) 0.34765(9)
N3B N -0.01309(14) 0.1401(2) 0.41871(9)
N4F N 0.12588(14) -0.0897(2) 0.57892(9)
loop_
_geom_bond_atom_site_label_1
_geom_bond_atom_site_label_2
_geom_bond_site_symmetry_1
_geom_bond_site_symmetry_2
Cu1 Cl1 1_555 1_555
Cu2 Cl1 1_555 1_555
Cl1 Cu2F 1_555 1_555
S1 Cu1 1_555 1_555
N1 N2 1_555 1_555
N2 N3 1_555 1_555
N3 N4 1_555 1_555
N4 C1 1_555 1_555
C1 S1 1_555 1_555
C2 S1 1_555 1_555
H1 C2 1_555 1_555
H2 C2 1_555 1_555
H3 C2 1_555 1_555
Cu1B N2 1_555 1_555
Cu1C N1 1_555 1_555
Cu2B N3 1_555 1_555
Cu2F N4 1_555 1_555
Cl1F Cu2 1_555 1_555
N1C Cu1 1_555 1_555
N2B Cu1 1_555 1_555
N3B Cu2 1_555 1_555
N4F Cu2 1_555 1_555
N1 C1 1_555 1_555
Cu2F Cl1F 1_555 1_555
N2B N3B 1_555 1_555

#END
