
#######################################################################
#
#                 Cambridge Crystallographic Data Centre
#                                CCDC 
#
#######################################################################
#
# If this CIF has been generated from an entry in the Cambridge 
# Structural Database, then it will include bibliographic, chemical, 
# crystal, experimental, refinement or atomic coordinate data resulting 
# from the CCDC's data processing and validation procedures.
#
#######################################################################

data_WOZYER
_symmetry_cell_setting           monoclinic
_symmetry_space_group_name_H-M   'P 21/c'
_symmetry_Int_Tables_number      14
_space_group_name_Hall           '-P 2ybc'
loop_
_symmetry_equiv_pos_site_id
_symmetry_equiv_pos_as_xyz
1 x,y,z
2 -x,1/2+y,1/2-z
3 -x,-y,-z
4 x,1/2-y,1/2+z
_cell_length_a                   7.807(3)
_cell_length_b                   6.490(3)
_cell_length_c                   10.879(3)
_cell_angle_alpha                90
_cell_angle_beta                 117.15(2)
_cell_angle_gamma                90
_cell_volume                     490.476
loop_
_atom_site_label
_atom_site_type_symbol
_atom_site_fract_x
_atom_site_fract_y
_atom_site_fract_z
Cu1 Cu 0.48172(6) 0.08815(6) 0.33928(4)
S1 S 0.79782(11) 0.27810(12) 0.44001(9)
N1 N 0.6203(4) 0.6451(4) 0.3598(3)
N2 N 0.5716(4) 0.8043(4) 0.4168(3)
N3 N 0.6308(4) 0.7665(4) 0.5484(3)
N4 N 0.7212(4) 0.5841(4) 0.5832(3)
C1 C 0.7124(4) 0.5155(5) 0.4658(3)
C2 C 0.9305(5) 0.1961(6) 0.6176(4)
H1 H 1.0525 0.2654 0.6598
H2 H 0.9509 0.0499 0.6206
H3 H 0.8585 0.2293 0.6667
Cu1_2 Cu 0.48172(6) 1.08815(6) 0.33928(4)
Cu1A Cu 0.51828(6) 0.58815(6) 0.16072(4)
Cu1B Cu 0.51828(6) 0.91185(6) 0.66072(4)
N1A N 0.3797(4) 0.1451(4) 0.1402(3)
N2_2 N 0.5716(4) -0.1957(4) 0.4168(3)
N3B N 0.3692(4) 0.2335(4) 0.4516(3)
loop_
_geom_bond_atom_site_label_1
_geom_bond_atom_site_label_2
_geom_bond_site_symmetry_1
_geom_bond_site_symmetry_2
Cu1 S1 1_555 1_555
S1 C1 1_555 1_555
N1 N2 1_555 1_555
N2 N3 1_555 1_555
N3 N4 1_555 1_555
N4 C1 1_555 1_555
C1 N1 1_555 1_555
C2 S1 1_555 1_555
H1 C2 1_555 1_555
H2 C2 1_555 1_555
H3 C2 1_555 1_555
Cu1_2 N2 1_555 1_555
Cu1A N1 1_555 1_555
Cu1B N3 1_555 1_555
N1A Cu1 1_555 1_555
N2_2 Cu1 1_555 1_555
N3B Cu1 1_555 1_555

#END
