
#######################################################################
#
#                 Cambridge Crystallographic Data Centre
#                                CCDC 
#
#######################################################################
#
# If this CIF has been generated from an entry in the Cambridge 
# Structural Database, then it will include bibliographic, chemical, 
# crystal, experimental, refinement or atomic coordinate data resulting 
# from the CCDC's data processing and validation procedures.
#
#######################################################################

data_WUBHEI
_symmetry_cell_setting           monoclinic
_symmetry_space_group_name_H-M   'C 2/c'
_symmetry_Int_Tables_number      15
_space_group_name_Hall           '-C 2yn'
loop_
_symmetry_equiv_pos_site_id
_symmetry_equiv_pos_as_xyz
1 x,y,z
2 -x,y,1/2-z
3 1/2+x,1/2+y,z
4 1/2-x,1/2+y,1/2-z
5 -x,-y,-z
6 x,-y,1/2+z
7 1/2-x,1/2-y,-z
8 1/2+x,1/2-y,1/2+z
_cell_length_a                   19.0347(4)
_cell_length_b                   6.8953(2)
_cell_length_c                   20.2406(4)
_cell_angle_alpha                90
_cell_angle_beta                 92.8750(10)
_cell_angle_gamma                90
_cell_volume                     2653.23
loop_
_atom_site_label
_atom_site_type_symbol
_atom_site_fract_x
_atom_site_fract_y
_atom_site_fract_z
Sr1 Sr 0.2500 0.2500 0.5000
Sr2 Sr 0.078323(10) 0.17320(3) 0.318595(11)
O1 O 0.09624(9) 0.2748(3) 0.09021(8)
O2 O 0.33358(11) 0.5410(3) 0.51199(11)
O3 O 0.05648(8) 0.2447(3) 0.19122(8)
O4 O 0.19384(8) 0.2620(3) 0.37992(8)
O5 O 0.30890(9) 0.2919(3) 0.38430(8)
O6 O 0.36111(8) 0.3464(2) 0.14023(8)
O7 O 0.06314(11) 0.5155(3) 0.36802(11)
N1 N 0.18401(9) 0.2786(3) 0.24865(9)
O8 O 0.02595(11) 0.0885(3) 0.43125(10)
C1 C 0.30479(11) 0.3188(3) 0.17405(11)
C2 C 0.17930(11) 0.2855(3) 0.18236(11)
O9 O 0.13909(13) 0.4584(4) 0.49609(12)
C3 C 0.30885(12) 0.3079(3) 0.24315(12)
C4 C 0.23659(12) 0.3039(3) 0.14369(12)
C5 C 0.10497(11) 0.2679(3) 0.15212(11)
C6 C 0.24885(11) 0.2898(3) 0.27804(11)
O10 O 0.0000 -0.0977(4) 0.2500
C7 C 0.25133(11) 0.2811(3) 0.35232(11)
H1 H 0.2294(12) 0.306(3) 0.0986(13)
H2 H 0.3524(14) 0.313(4) 0.2654(13)
H3 H 0.3426(15) 0.614(5) 0.4832(15)
H4 H 0.0211(16) 0.562(4) 0.3711(14)
H5 H 0.0194(17) -0.161(5) 0.2185(16)
H6 H 0.1274(17) 0.519(5) 0.5250(17)
H7 H 0.3431(17) 0.581(5) 0.5494(17)
H8 H 0.0883(17) 0.613(5) 0.3627(17)
H9 H 0.0501(18) 0.093(6) 0.4596(17)
H10 H -0.011(2) 0.162(5) 0.4341(19)
H11 H 0.1169(18) 0.485(5) 0.4626(17)
H5A H -0.0194(17) -0.161(5) 0.2815(16)
Sr2A Sr -0.078323(10) 0.17320(3) 0.181405(11)
O1A O -0.09624(9) 0.2748(3) 0.40979(8)
O3A O -0.05648(8) 0.2447(3) 0.30878(8)
O4A O -0.19384(8) 0.2620(3) 0.12008(8)
O5A O -0.30890(9) 0.2919(3) 0.11570(8)
O6A O -0.36111(8) 0.3464(2) 0.35977(8)
O7A O -0.06314(11) 0.5155(3) 0.13198(11)
N1A N -0.18401(9) 0.2786(3) 0.25135(9)
O8A O -0.02595(11) 0.0885(3) 0.06875(10)
C1A C -0.30479(11) 0.3188(3) 0.32595(11)
C2A C -0.17930(11) 0.2855(3) 0.31764(11)
C3A C -0.30885(12) 0.3079(3) 0.25685(12)
C4A C -0.23659(12) 0.3039(3) 0.35631(12)
C5A C -0.10497(11) 0.2679(3) 0.34788(11)
C6A C -0.24885(11) 0.2898(3) 0.22196(11)
C7A C -0.25133(11) 0.2811(3) 0.14768(11)
H1A H -0.2294(12) 0.306(3) 0.4014(13)
H2A H -0.3524(14) 0.313(4) 0.2346(13)
H4A H -0.0211(16) 0.562(4) 0.1289(14)
H8A H -0.0883(17) 0.613(5) 0.1373(17)
H9A H -0.0501(18) 0.093(6) 0.0404(17)
H10A H 0.011(2) 0.162(5) 0.0659(19)
O2F O 0.16642(11) -0.0410(3) 0.48801(11)
H3F H 0.1574(15) -0.114(5) 0.5168(15)
H7F H 0.1569(17) -0.081(5) 0.4506(17)
O9F O 0.36091(13) 0.0416(4) 0.50391(12)
H6F H 0.3726(17) -0.019(5) 0.4750(17)
H11F H 0.3831(18) 0.015(5) 0.5374(17)
Sr1A Sr -0.2500 0.2500 0.0000
Sr2B Sr -0.421677(10) 0.67320(3) 0.318595(11)
Sr2C Sr 0.421677(10) 0.67320(3) 0.181405(11)
O4F O 0.30616(8) 0.2380(3) 0.62008(8)
O5F O 0.19110(9) 0.2081(3) 0.61570(8)
O6B O -0.13889(8) -0.1536(2) 0.14023(8)
O6C O 0.13889(8) -0.1536(2) 0.35977(8)
O11 O 0.44895(12) 0.2642(4) 0.36909(12)
H12 H 0.4680(19) 0.344(5) 0.3943(19)
H13 H 0.408(2) 0.275(5) 0.3759(19)
loop_
_geom_bond_atom_site_label_1
_geom_bond_atom_site_label_2
_geom_bond_site_symmetry_1
_geom_bond_site_symmetry_2
Sr1 O2 1_555 1_555
Sr2 O3 1_555 1_555
O1 C5 1_555 1_555
O2 H3 1_555 1_555
O3 C5 1_555 1_555
O4 Sr1 1_555 1_555
O5 Sr1 1_555 1_555
O6 C1 1_555 1_555
O7 Sr2 1_555 1_555
N1 Sr2 1_555 1_555
O8 Sr2 1_555 1_555
C1 C3 1_555 1_555
C2 N1 1_555 1_555
O9 Sr1 1_555 1_555
C3 C6 1_555 1_555
C4 C1 1_555 1_555
C5 C2 1_555 1_555
C6 N1 1_555 1_555
O10 Sr2 1_555 1_555
C7 O4 1_555 1_555
H1 C4 1_555 1_555
H2 C3 1_555 1_555
H4 O7 1_555 1_555
H5 O10 1_555 1_555
H6 O9 1_555 1_555
H7 O2 1_555 1_555
H8 O7 1_555 1_555
H9 O8 1_555 1_555
H10 O8 1_555 1_555
H11 O9 1_555 1_555
O11 H12 1_555 1_555
H13 O11 1_555 1_555
H5A O10 1_555 1_555
Sr2A O3 1_555 1_555
O1A C5A 1_555 1_555
O3A Sr2 1_555 1_555
O4A Sr2A 1_555 1_555
O5A C7A 1_555 1_555
O6A C1A 1_555 1_555
O7A Sr2A 1_555 1_555
N1A Sr2A 1_555 1_555
O8A Sr2A 1_555 1_555
C1A C3A 1_555 1_555
C2A N1A 1_555 1_555
C3A C6A 1_555 1_555
C4A C1A 1_555 1_555
C5A O3A 1_555 1_555
C6A N1A 1_555 1_555
C7A O4A 1_555 1_555
H1A C4A 1_555 1_555
H2A C3A 1_555 1_555
H4A O7A 1_555 1_555
H8A O7A 1_555 1_555
H9A O8A 1_555 1_555
H10A O8A 1_555 1_555
O2F Sr1 1_555 1_555
H3F O2F 1_555 1_555
H7F O2F 1_555 1_555
O9F Sr1 1_555 1_555
H6F O9F 1_555 1_555
H11F O9F 1_555 1_555
Sr1A O4A 1_555 1_555
Sr2B O6A 1_555 1_555
Sr2C O6 1_555 1_555
O4F Sr1 1_555 1_555
O5F Sr1 1_555 1_555
O6B Sr2A 1_555 1_555
O6C Sr2 1_555 1_555
Sr2 O4 1_555 1_555
O5 C7 1_555 1_555
C2 C4 1_555 1_555
C6 C7 1_555 1_555
O10 Sr2A 1_555 1_555
Sr2A O3A 1_555 1_555
O5A Sr1A 1_555 1_555
C2A C4A 1_555 1_555
C2A C5A 1_555 1_555
C6A C7A 1_555 1_555

#END
