
#######################################################################
#
#                 Cambridge Crystallographic Data Centre
#                                CCDC 
#
#######################################################################
#
# If this CIF has been generated from an entry in the Cambridge 
# Structural Database, then it will include bibliographic, chemical, 
# crystal, experimental, refinement or atomic coordinate data resulting 
# from the CCDC's data processing and validation procedures.
#
#######################################################################

data_WUBSIV
_symmetry_cell_setting           triclinic
_symmetry_space_group_name_H-M   'P -1'
_symmetry_Int_Tables_number      2
_space_group_name_Hall           '-P 1'
loop_
_symmetry_equiv_pos_site_id
_symmetry_equiv_pos_as_xyz
1 x,y,z
2 -x,-y,-z
_cell_length_a                   6.814(2)
_cell_length_b                   9.367(2)
_cell_length_c                   13.274(5)
_cell_angle_alpha                82.08(2)
_cell_angle_beta                 81.58(2)
_cell_angle_gamma                88.91(2)
_cell_volume                     830.109
loop_
_atom_site_label
_atom_site_type_symbol
_atom_site_fract_x
_atom_site_fract_y
_atom_site_fract_z
Cd1 Cd 0.0000 0.0000 0.0000
Cd2 Cd 0.24906(7) 0.41721(5) -0.02141(4)
Br1 Br 0.25044(11) 0.10893(8) -0.53489(5)
N1 N 0.0966(8) 0.0477(6) -0.1780(4)
C1 C 0.0689(10) 0.1738(7) -0.2344(5)
H1 H 0.0142(10) 0.2490(7) -0.2006(5)
C2 C 0.1168(10) 0.1989(7) -0.3401(5)
H2 H 0.0999(10) 0.2893(7) -0.3767(5)
C3 C 0.1908(9) 0.0845(8) -0.3893(5)
C4 C 0.2213(10) -0.0454(8) -0.3337(5)
H3 H 0.2739(10) -0.1224(8) -0.3662(5)
C5 C 0.1729(10) -0.0601(7) -0.2295(5)
H4 H 0.1936(10) -0.1491(7) -0.1919(5)
Br2 Br 0.77732(11) 0.36130(8) -0.50449(5)
N2 N 0.4410(8) 0.3882(6) -0.1768(4)
C6 C 0.4946(10) 0.5069(7) -0.2449(6)
H5 H 0.4612(10) 0.5967(7) -0.2250(6)
C7 C 0.5952(10) 0.5019(7) -0.3412(5)
H6 H 0.6284(10) 0.5861(7) -0.3860(5)
C8 C 0.6464(10) 0.3688(8) -0.3703(5)
C9 C 0.5999(9) 0.2446(7) -0.3024(5)
H7 H 0.6352(9) 0.1542(7) -0.3207(5)
C10 C 0.4984(10) 0.2597(7) -0.2057(5)
H8 H 0.4687(10) 0.1772(7) -0.1587(5)
N3 N -0.0206(8) 0.5008(6) -0.1062(4)
N4 N 0.0026(8) 0.5563(6) -0.1938(5)
N5 N 0.0278(10) 0.6103(8) -0.2788(5)
N6 N 0.1964(8) 0.1799(6) 0.0407(4)
N7 N 0.2740(8) 0.1373(6) 0.1163(4)
N8 N 0.3454(9) 0.0955(6) 0.1882(5)
N9 N -0.2553(8) 0.1622(6) -0.0251(5)
N10 N -0.3288(8) 0.2608(6) 0.0081(4)
N11 N -0.4113(8) 0.3620(6) 0.0401(4)
Br1A Br -0.25044(11) -0.10893(8) 0.53489(5)
N1A N -0.0966(8) -0.0477(6) 0.1780(4)
C1A C -0.0689(10) -0.1738(7) 0.2344(5)
H1A H -0.0142(10) -0.2490(7) 0.2006(5)
C2A C -0.1168(10) -0.1989(7) 0.3401(5)
H2A H -0.0999(10) -0.2893(7) 0.3767(5)
C3A C -0.1908(9) -0.0845(8) 0.3893(5)
C4A C -0.2213(10) 0.0454(8) 0.3337(5)
H3A H -0.2739(10) 0.1224(8) 0.3662(5)
C5A C -0.1729(10) 0.0601(7) 0.2295(5)
H4A H -0.1936(10) 0.1491(7) 0.1919(5)
N6A N -0.1964(8) -0.1799(6) -0.0407(4)
N7A N -0.2740(8) -0.1373(6) -0.1163(4)
N8A N -0.3454(9) -0.0955(6) -0.1882(5)
N9A N 0.2553(8) -0.1622(6) 0.0251(5)
N10A N 0.3288(8) -0.2608(6) -0.0081(4)
N11A N 0.4113(8) -0.3620(6) -0.0401(4)
Cd2A Cd -0.24906(7) -0.41721(5) 0.02141(4)
N3A N 0.0206(8) 0.4992(6) 0.1062(4)
N4A N -0.0026(8) 0.4437(6) 0.1938(5)
N5A N -0.0278(10) 0.3897(8) 0.2788(5)
Br2A Br -0.77732(11) -0.36130(8) 0.50449(5)
N2A N -0.4410(8) -0.3882(6) 0.1768(4)
C6A C -0.4946(10) -0.5069(7) 0.2449(6)
H5A H -0.4612(10) -0.5967(7) 0.2250(6)
C7A C -0.5952(10) -0.5019(7) 0.3412(5)
H6A H -0.6284(10) -0.5861(7) 0.3860(5)
C8A C -0.6464(10) -0.3688(8) 0.3703(5)
C9A C -0.5999(9) -0.2446(7) 0.3024(5)
H7A H -0.6352(9) -0.1542(7) 0.3207(5)
C10A C -0.4984(10) -0.2597(7) 0.2057(5)
H8A H -0.4687(10) -0.1772(7) 0.1587(5)
N11_2 N 0.5887(8) 0.3620(6) 0.0401(4)
N11A_2 N 0.4113(8) 0.6380(6) -0.0401(4)
Cd2A_2 Cd -0.24906(7) 0.58279(5) 0.02141(4)
Cd2_2 Cd -0.75094(7) 0.41721(5) -0.02141(4)
Cd2_3 Cd 0.24906(7) -0.58279(5) -0.02141(4)
Cd2A_3 Cd 0.75094(7) -0.41721(5) 0.02141(4)
N3_2 N -0.0206(8) -0.4992(6) -0.1062(4)
N3A_2 N 0.0206(8) -0.5008(6) 0.1062(4)
N11_3 N -0.4113(8) -0.6380(6) 0.0401(4)
N11A_3 N -0.5887(8) -0.3620(6) -0.0401(4)
loop_
_geom_bond_atom_site_label_1
_geom_bond_atom_site_label_2
_geom_bond_site_symmetry_1
_geom_bond_site_symmetry_2
Cd1 N1 1_555 1_555
Cd2 N2 1_555 1_555
Br1 C3 1_555 1_555
N1 C1 1_555 1_555
C1 H1 1_555 1_555
C2 C1 1_555 1_555
H2 C2 1_555 1_555
C3 C2 1_555 1_555
C4 C3 1_555 1_555
H3 C4 1_555 1_555
C5 N1 1_555 1_555
H4 C5 1_555 1_555
Br2 C8 1_555 1_555
N2 C6 1_555 1_555
C6 H5 1_555 1_555
C7 C6 1_555 1_555
H6 C7 1_555 1_555
C8 C7 1_555 1_555
C9 C8 1_555 1_555
H7 C9 1_555 1_555
C10 N2 1_555 1_555
H8 C10 1_555 1_555
N3 Cd2 1_555 1_555
N4 N3 1_555 1_555
N5 N4 1_555 1_555
N6 Cd1 1_555 1_555
N7 N6 1_555 1_555
N8 N7 1_555 1_555
N9 Cd1 1_555 1_555
N10 N9 1_555 1_555
N11 N10 1_555 1_555
Br1A C3A 1_555 1_555
N1A Cd1 1_555 1_555
C1A N1A 1_555 1_555
H1A C1A 1_555 1_555
C2A C1A 1_555 1_555
H2A C2A 1_555 1_555
C3A C2A 1_555 1_555
C4A C3A 1_555 1_555
H3A C4A 1_555 1_555
C5A N1A 1_555 1_555
H4A C5A 1_555 1_555
N6A Cd1 1_555 1_555
N7A N6A 1_555 1_555
N8A N7A 1_555 1_555
N9A Cd1 1_555 1_555
N10A N9A 1_555 1_555
N11A N10A 1_555 1_555
Cd2A N6A 1_555 1_555
N3A Cd2 1_555 1_555
N4A N3A 1_555 1_555
N5A N4A 1_555 1_555
Br2A C8A 1_555 1_555
N2A Cd2A 1_555 1_555
C6A N2A 1_555 1_555
H5A C6A 1_555 1_555
C7A C6A 1_555 1_555
H6A C7A 1_555 1_555
C8A C7A 1_555 1_555
C9A C8A 1_555 1_555
H7A C9A 1_555 1_555
C10A N2A 1_555 1_555
H8A C10A 1_555 1_555
N11_2 Cd2 1_555 1_555
N11A_2 Cd2 1_555 1_555
Cd2A_2 N3 1_555 1_555
Cd2_2 N11 1_555 1_555
Cd2_3 N11A 1_555 1_555
Cd2A_3 N11A 1_555 1_555
N3_2 Cd2A 1_555 1_555
N3A_2 Cd2A 1_555 1_555
N11_3 Cd2A 1_555 1_555
N11A_3 Cd2A 1_555 1_555
Cd2 N6 1_555 1_555
C4 C5 1_555 1_555
C9 C10 1_555 1_555
N11 Cd2A_2 1_555 1_555
C4A C5A 1_555 1_555
N3A Cd2A_2 1_555 1_555
C9A C10A 1_555 1_555
Cd2_3 N3_2 1_555 1_555
Cd2_3 N3A_2 1_555 1_555

#END
