
#######################################################################
#
#                 Cambridge Crystallographic Data Centre
#                                CCDC 
#
#######################################################################
#
# If this CIF has been generated from an entry in the Cambridge 
# Structural Database, then it will include bibliographic, chemical, 
# crystal, experimental, refinement or atomic coordinate data resulting 
# from the CCDC's data processing and validation procedures.
#
#######################################################################

data_WUBZOI01
_symmetry_cell_setting           triclinic
_symmetry_space_group_name_H-M   'P -1'
_symmetry_Int_Tables_number      2
_space_group_name_Hall           '-P 1'
loop_
_symmetry_equiv_pos_site_id
_symmetry_equiv_pos_as_xyz
1 x,y,z
2 -x,-y,-z
_cell_length_a                   9.2801(2)
_cell_length_b                   10.5377(2)
_cell_length_c                   16.8864(4)
_cell_angle_alpha                95.1726(11)
_cell_angle_beta                 97.8935(11)
_cell_angle_gamma                102.7070(9)
_cell_volume                     1583.2
loop_
_atom_site_label
_atom_site_type_symbol
_atom_site_fract_x
_atom_site_fract_y
_atom_site_fract_z
Mn1 Mn 1.25103(5) 0.50059(4) -0.00021(3)
Mn2 Mn 0.75644(5) 0.00856(4) 0.50111(3)
S1 S 1.14834(8) 0.31917(7) 0.20883(4)
S2 S 1.13482(8) 0.18268(7) 0.28761(4)
S3 S 1.36881(8) 0.81896(7) -0.29149(4)
S4 S 1.35365(8) 0.68283(7) -0.21213(4)
N1 N 1.0380(3) 0.4308(2) 0.32898(15)
N2 N 0.9046(3) 0.0713(2) 0.16961(15)
N3 N 1.5953(3) 0.9309(2) -0.17165(15)
N4 N 1.4699(3) 0.5711(2) -0.32979(15)
O1 O 1.1466(2) 0.4932(2) 0.10351(12)
O2 O 0.9641(2) 0.5975(2) 0.07671(12)
O3 O 0.8785(2) -0.08994(19) 0.42335(12)
O4 O 1.0996(2) 0.01081(19) 0.39475(12)
O5 O 1.6225(2) 1.10396(19) -0.42286(12)
O6 O 1.4026(2) 0.9934(2) -0.39683(12)
O7 O 1.3542(2) 0.5106(2) -0.10459(12)
O8 O 1.5345(2) 0.4037(2) -0.07743(12)
O9 O 1.2904(3) 0.3055(3) 0.01963(19)
H1 H 1.330(6) 0.280(5) 0.004(3)
H2 H 1.346(5) 0.288(4) 0.084(3)
O10 O 1.2104(4) 0.6959(3) -0.0205(2)
H3 H 1.159(5) 0.714(4) -0.085(3)
H4 H 1.171(7) 0.712(6) -0.008(4)
O11 O 0.6142(3) -0.1889(2) 0.52269(17)
H5 H 0.600(4) -0.202(4) 0.569(3)
H6 H 0.544(5) -0.202(4) 0.492(3)
O12 O 0.8710(3) 0.2014(2) 0.48371(19)
H7 H 0.829(5) 0.252(4) 0.484(3)
H8 H 0.956(5) 0.228(4) 0.491(3)
C1 C 1.0572(3) 0.4360(3) 0.25212(17)
C2 C 1.0102(3) 0.5285(3) 0.20641(17)
C3 C 0.9362(3) 0.6134(3) 0.24210(19)
H21 H 0.899(4) 0.679(3) 0.210(2)
C4 C 0.9163(4) 0.6095(3) 0.32140(19)
H22 H 0.870(3) 0.669(3) 0.3468(18)
C5 C 0.9705(3) 0.5174(3) 0.36208(19)
H23 H 0.967(3) 0.516(3) 0.418(2)
C6 C 1.0409(3) 0.5397(3) 0.12190(17)
C7 C 0.9620(3) 0.0656(3) 0.24590(17)
C8 C 0.8932(3) -0.0247(3) 0.29267(17)
C9 C 0.7586(3) -0.1111(3) 0.25754(18)
H24 H 0.703(4) -0.174(3) 0.289(2)
C10 C 0.6995(4) -0.1077(3) 0.1787(2)
H25 H 0.609(4) -0.164(3) 0.1545(19)
C11 C 0.7764(4) -0.0160(3) 0.1372(2)
H26 H 0.745(4) -0.013(3) 0.084(2)
C12 C 0.9611(3) -0.0349(3) 0.37759(17)
C13 C 1.5401(3) 0.9368(3) -0.24797(17)
C14 C 1.6081(3) 1.0302(3) -0.29391(17)
C15 C 1.7433(3) 1.1156(3) -0.25821(18)
H27 H 1.801(4) 1.181(3) -0.2894(19)
C16 C 1.8014(3) 1.1104(3) -0.17948(19)
H28 H 1.893(4) 1.167(3) -0.1505(19)
C17 C 1.7235(4) 1.0174(3) -0.1385(2)
H29 H 1.757(4) 1.016(3) -0.081(2)
C18 C 1.5403(3) 1.0430(3) -0.37750(17)
C19 C 1.4463(3) 0.5664(3) -0.25370(17)
C20 C 1.4910(3) 0.4731(3) -0.20717(17)
C21 C 1.5648(3) 0.3873(3) -0.24202(19)
H30 H 1.602(4) 0.321(3) -0.212(2)
C22 C 1.5898(4) 0.3911(3) -0.32058(19)
H31 H 1.633(4) 0.332(3) -0.345(2)
C23 C 1.5386(4) 0.4842(3) -0.3616(2)
H32 H 1.548(4) 0.487(3) -0.415(2)
C24 C 1.4589(3) 0.4624(3) -0.12259(17)
O2A O 1.0359(2) 0.4025(2) -0.07671(12)
O8A O 1.4655(2) 0.5963(2) 0.07743(12)
O4A O 0.9004(2) -0.01081(19) 0.60525(12)
O5_2 O 0.6225(2) 0.10396(19) 0.57714(12)
O6A O 0.5974(2) 0.0066(2) 0.39683(12)
Mn1A Mn 0.74897(5) 0.49941(4) 0.00021(3)
Mn2A Mn 1.24356(5) -0.00856(4) 0.49889(3)
Mn2_2 Mn 1.75644(5) 1.00856(4) -0.49889(3)
Mn2A_2 Mn 1.24356(5) 0.99144(4) -0.50111(3)
Mn1A_2 Mn 1.74897(5) 0.49941(4) 0.00021(3)
O13 O 1.1637(3) 0.3531(3) 0.47437(16)
H9 H 1.145(6) 0.352(5) 0.418(4)
H10 H 1.209(6) 0.291(6) 0.482(3)
O14 O 1.0078(3) 0.1351(3) 0.02464(15)
H13 H 1.003(7) 0.050(4) 0.007(4)
H14 H 1.087(4) 0.184(4) 0.016(3)
O15 O 0.3054(3) -0.3786(2) 0.52588(15)
H16 H 0.270(6) -0.461(2) 0.508(3)
H17 H 0.368(5) -0.314(4) 0.517(3)
O16 O 0.4919(3) -0.1342(3) 0.97341(17)
H19 H 0.508(7) -0.040(5) 0.992(4)
H20 H 0.438(7) -0.179(6) 0.981(4)
H11? H 1.227(7) 0.418(6) 0.482(4)
H12? H 0.997(5) 0.134(5) 0.0746(15)
H15? H 0.348(6) -0.387(4) 0.584(3)
H18? H 0.496(6) -0.129(5) 0.922(4)
loop_
_geom_bond_atom_site_label_1
_geom_bond_atom_site_label_2
_geom_bond_site_symmetry_1
_geom_bond_site_symmetry_2
Mn1 O1 1_555 1_555
Mn2 O3 1_555 1_555
S1 S2 1_555 1_555
S2 C7 1_555 1_555
S3 S4 1_555 1_555
S4 C19 1_555 1_555
N1 C1 1_555 1_555
N2 C7 1_555 1_555
N3 C13 1_555 1_555
N4 C19 1_555 1_555
O1 C6 1_555 1_555
O2 C6 1_555 1_555
O3 C12 1_555 1_555
O4 C12 1_555 1_555
O5 C18 1_555 1_555
O6 C18 1_555 1_555
O7 Mn1 1_555 1_555
O8 C24 1_555 1_555
O9 Mn1 1_555 1_555
H1 O9 1_555 1_555
H2 O9 1_555 1_555
O10 Mn1 1_555 1_555
H3 O10 1_555 1_555
H4 O10 1_555 1_555
O11 Mn2 1_555 1_555
H5 O11 1_555 1_555
H6 O11 1_555 1_555
O12 Mn2 1_555 1_555
H7 O12 1_555 1_555
H8 O12 1_555 1_555
O13 H9 1_555 1_555
H10 O13 1_555 1_555
O14 H13 1_555 1_555
H14 O14 1_555 1_555
O15 H16 1_555 1_555
H17 O15 1_555 1_555
O16 H19 1_555 1_555
H20 O16 1_555 1_555
C1 S1 1_555 1_555
C2 C1 1_555 1_555
C3 C2 1_555 1_555
H21 C3 1_555 1_555
C4 C3 1_555 1_555
H22 C4 1_555 1_555
C5 N1 1_555 1_555
H23 C5 1_555 1_555
C6 C2 1_555 1_555
C7 C8 1_555 1_555
C8 C9 1_555 1_555
C9 H24 1_555 1_555
C10 C9 1_555 1_555
H25 C10 1_555 1_555
C11 N2 1_555 1_555
H26 C11 1_555 1_555
C12 C8 1_555 1_555
C13 S3 1_555 1_555
C14 C13 1_555 1_555
C15 C14 1_555 1_555
H27 C15 1_555 1_555
C16 C15 1_555 1_555
H28 C16 1_555 1_555
C17 N3 1_555 1_555
H29 C17 1_555 1_555
C18 C14 1_555 1_555
C19 C20 1_555 1_555
C20 C21 1_555 1_555
C21 H30 1_555 1_555
C22 C21 1_555 1_555
H31 C22 1_555 1_555
C23 N4 1_555 1_555
H32 C23 1_555 1_555
C24 O7 1_555 1_555
O2A Mn1 1_555 1_555
O8A Mn1 1_555 1_555
O4A Mn2 1_555 1_555
O5_2 Mn2 1_555 1_555
O6A Mn2 1_555 1_555
Mn1A O2 1_555 1_555
Mn2A O4 1_555 1_555
Mn2_2 O5 1_555 1_555
Mn2A_2 O6 1_555 1_555
Mn1A_2 O8 1_555 1_555
C4 C5 1_555 1_555
C10 C11 1_555 1_555
C16 C17 1_555 1_555
C20 C24 1_555 1_555
C22 C23 1_555 1_555

#END
