
#######################################################################
#
#                 Cambridge Crystallographic Data Centre
#                                CCDC 
#
#######################################################################
#
# If this CIF has been generated from an entry in the Cambridge 
# Structural Database, then it will include bibliographic, chemical, 
# crystal, experimental, refinement or atomic coordinate data resulting 
# from the CCDC's data processing and validation procedures.
#
#######################################################################

data_WUBZOI
_symmetry_cell_setting           monoclinic
_symmetry_space_group_name_H-M   'C 2/c'
_symmetry_Int_Tables_number      15
_space_group_name_Hall           '-C 2yn'
loop_
_symmetry_equiv_pos_site_id
_symmetry_equiv_pos_as_xyz
1 x,y,z
2 1/2+x,1/2+y,z
3 x,-y,1/2+z
4 1/2+x,1/2-y,1/2+z
5 -x,-y,-z
6 1/2-x,1/2-y,-z
7 -x,y,1/2-z
8 1/2-x,1/2+y,1/2-z
_cell_length_a                   20.6467(10)
_cell_length_b                   4.6483(2)
_cell_length_c                   18.5845(12)
_cell_angle_alpha                90
_cell_angle_beta                 116.287(2)
_cell_angle_gamma                90
_cell_volume                     1599.15
loop_
_atom_site_label
_atom_site_type_symbol
_atom_site_fract_x
_atom_site_fract_y
_atom_site_fract_z
S1 S 0.94642(5) 0.9713(2) 0.71051(5)
N1 N 0.94895(16) 1.3100(7) 0.82884(18)
Mn1 Mn 0.7500 1.7500 0.5000
C1 C 0.79239(18) 1.2487(8) 0.6223(2)
C2 C 0.83986(18) 1.3480(8) 0.7063(2)
C3 C 0.8148(2) 1.5531(8) 0.7416(2)
H1 H 0.7699 1.6377 0.7120
H2 H 0.9499 1.5571 0.9143
H5 H 0.619(5) 1.74(2) 0.492(6)
C4 C 0.8559(2) 1.6332(9) 0.8204(2)
H6 H 0.8393 1.7690 0.8450
C5 C 0.9219(2) 1.5056(10) 0.8609(2)
C6 C 0.90899(19) 1.2331(7) 0.7528(2)
O2 O 0.74091(13) 1.4094(6) 0.57745(14)
O3 O 0.80662(14) 1.0066(6) 0.60367(15)
O4 O 0.64250(18) 1.9161(10) 0.4801(2)
H7 H 0.635(3) 2.087(16) 0.486(4)
S1F S 1.05358(5) 0.9713(2) 0.78949(5)
C6F C 1.09101(19) 1.2331(7) 0.7472(2)
N1F N 1.05105(16) 1.3100(7) 0.67116(18)
C5F C 1.0781(2) 1.5056(10) 0.6391(2)
H2F H 1.0501 1.5571 0.5857
C4F C 1.1441(2) 1.6332(9) 0.6796(2)
C3F C 1.1852(2) 1.5531(8) 0.7584(2)
C2F C 1.16014(18) 1.3480(8) 0.7937(2)
C1F C 1.20761(18) 1.2487(8) 0.8777(2)
O2F O 1.25909(13) 1.4094(6) 0.92255(14)
O3F O 1.19338(14) 1.0066(6) 0.89633(15)
H1F H 1.2301 1.6377 0.7880
H6F H 1.1607 1.7690 0.6550
H5E H 0.881(5) 1.76(2) 0.508(6)
O4E O 0.85750(18) 1.5839(10) 0.5199(2)
H7E H 0.865(3) 1.413(16) 0.514(4)
O2E O 0.75909(13) 2.0906(6) 0.42255(14)
O3_2 O 0.80662(14) 2.0066(6) 0.60367(15)
O3E O 0.69338(14) 1.4934(6) 0.39633(15)
Mn1_2 Mn 0.7500 0.7500 0.5000
Mn1C Mn 1.2500 1.7500 1.0000
Mn1C_2 Mn 1.2500 0.7500 1.0000
H3 H 0.531(3) 1.401(13) 0.425(3)
H4 H 0.529(4) 1.49(2) 0.487(5)
O1 O 0.5550(2) 1.4331(10) 0.4743(2)
loop_
_geom_bond_atom_site_label_1
_geom_bond_atom_site_label_2
_geom_bond_site_symmetry_1
_geom_bond_site_symmetry_2
S1 C6 1_555 1_555
N1 C5 1_555 1_555
Mn1 O2 1_555 1_555
C1 C2 1_555 1_555
C2 C3 1_555 1_555
C3 H1 1_555 1_555
H2 C5 1_555 1_555
H3 O1 1_555 1_555
H4 O1 1_555 1_555
H5 O4 1_555 1_555
C4 C3 1_555 1_555
H6 C4 1_555 1_555
C5 C4 1_555 1_555
C6 N1 1_555 1_555
O2 C1 1_555 1_555
O3 C1 1_555 1_555
O4 Mn1 1_555 1_555
H7 O4 1_555 1_555
S1F S1 1_555 1_555
C6F S1F 1_555 1_555
N1F C6F 1_555 1_555
C5F N1F 1_555 1_555
H2F C5F 1_555 1_555
C4F C5F 1_555 1_555
C3F C4F 1_555 1_555
C2F C6F 1_555 1_555
C1F C2F 1_555 1_555
O2F C1F 1_555 1_555
O3F C1F 1_555 1_555
H1F C3F 1_555 1_555
H6F C4F 1_555 1_555
H5E O4E 1_555 1_555
O4E Mn1 1_555 1_555
H7E O4E 1_555 1_555
O2E Mn1 1_555 1_555
O3_2 Mn1 1_555 1_555
O3E Mn1 1_555 1_555
Mn1_2 O3 1_555 1_555
Mn1C O2F 1_555 1_555
Mn1C_2 O3F 1_555 1_555
C2 C6 1_555 1_555
C3F C2F 1_555 1_555

#END
