
#######################################################################
#
#                 Cambridge Crystallographic Data Centre
#                                CCDC 
#
#######################################################################
#
# If this CIF has been generated from an entry in the Cambridge 
# Structural Database, then it will include bibliographic, chemical, 
# crystal, experimental, refinement or atomic coordinate data resulting 
# from the CCDC's data processing and validation procedures.
#
#######################################################################

data_WUCBON
_symmetry_cell_setting           monoclinic
_symmetry_space_group_name_H-M   'C 2'
_symmetry_Int_Tables_number      5
_space_group_name_Hall           'C 2y'
loop_
_symmetry_equiv_pos_site_id
_symmetry_equiv_pos_as_xyz
1 x,y,z
2 -x,y,-z
3 1/2+x,1/2+y,z
4 1/2-x,1/2+y,-z
_cell_length_a                   15.585(4)
_cell_length_b                   21.919(5)
_cell_length_c                   8.214(2)
_cell_angle_alpha                90
_cell_angle_beta                 103.410(4)
_cell_angle_gamma                90
_cell_volume                     2729.46
loop_
_atom_site_label
_atom_site_type_symbol
_atom_site_fract_x
_atom_site_fract_y
_atom_site_fract_z
Ca1 Ca 0.5000 0.28425(3) 0.0000
Ca2 Ca 0.5000 0.31242(3) 0.5000
O1 O 0.83857(11) 0.27774(8) 0.4654(2)
O2 O 0.68985(11) 0.09889(9) 0.4221(2)
O3 O 0.62359(12) 0.21788(8) 0.0141(2)
H1 H 0.6601(18) 0.2240(14) -0.041(4)
O4 O 0.54902(11) 0.24873(8) 0.2869(2)
O5 O 0.63125(12) 0.24050(8) 0.5425(2)
O6 O 0.31004(13) 0.52710(11) 0.0766(3)
O7 O 0.19011(14) 0.33736(9) 0.0324(3)
O8 O 0.37615(12) 0.38385(8) 0.4807(2)
H2 H 0.3538(19) 0.3860(13) 0.562(4)
O9 O 0.37892(12) 0.36574(9) -0.0428(2)
O10 O 0.44692(12) 0.34400(9) 0.2145(2)
N1 N 0.76823(13) 0.18579(10) 0.4293(3)
N2 N 0.24759(14) 0.43216(10) 0.0631(3)
C1 C 0.83859(17) 0.22390(12) 0.5006(3)
C2 C 0.91364(17) 0.19448(12) 0.6188(3)
C3 C 0.91127(17) 0.13225(12) 0.6550(3)
C4 C 0.83567(17) 0.09620(13) 0.5879(3)
C5 C 0.75897(17) 0.12531(12) 0.4759(3)
C6 C 0.98637(18) 0.22913(13) 0.6891(4)
H3 H 0.9878 0.2711 0.6614
C7 C 1.05821(18) 0.20288(14) 0.8012(4)
H4 H 1.1068 0.2275 0.8544
C8 C 1.05834(18) 0.14139(13) 0.8343(4)
H5 H 1.1085 0.1236 0.9067
C9 C 0.98534(17) 0.10422(13) 0.7628(3)
C10 C 0.98150(18) 0.04178(13) 0.7975(4)
H6 H 1.0312 0.0225 0.8675
C11 C 0.90792(19) 0.00826(13) 0.7326(4)
H7 H 0.9067 -0.0340 0.7577
C12 C 0.83368(17) 0.03608(13) 0.6286(3)
H8 H 0.7819 0.0128 0.5865
C13 C 0.69453(15) 0.21406(11) 0.3079(3)
H9 H 0.7190 0.2524 0.2708
C14 C 0.66048(15) 0.17717(11) 0.1492(3)
H10 H 0.7094 0.1536 0.1216
H11 H 0.6148 0.1481 0.1665
C15 C 0.62016(16) 0.23445(11) 0.3882(3)
C16 C 0.24767(18) 0.49426(13) 0.0168(4)
C17 C 0.16802(16) 0.51668(13) -0.1008(3)
C18 C 0.09585(17) 0.47832(12) -0.1568(3)
C19 C 0.10027(17) 0.41597(13) -0.1153(4)
C20 C 0.18100(18) 0.39144(12) -0.0035(3)
C21 C 0.16531(19) 0.57702(12) -0.1520(3)
H12 H 0.2162 0.6021 -0.1193
C22 C 0.08769(19) 0.60097(14) -0.2517(3)
H13 H 0.0854 0.6425 -0.2852
C23 C 0.01473(18) 0.56457(13) -0.3013(3)
H14 H -0.0387 0.5819 -0.3637
C24 C 0.01737(17) 0.50178(13) -0.2613(3)
C25 C -0.05368(18) 0.46194(14) -0.3214(4)
H15 H -0.1066 0.4771 -0.3917
C26 C -0.0470(2) 0.40158(14) -0.2792(4)
H16 H -0.0953 0.3751 -0.3211
C27 C 0.02959(19) 0.37840(13) -0.1757(4)
H17 H 0.0330 0.3364 -0.1467
C28 C 0.32674(16) 0.41054(13) 0.1869(3)
H18 H 0.3620 0.4479 0.2281
C29 C 0.30185(17) 0.38313(14) 0.3372(3)
H19 H 0.2524 0.4065 0.3633
H20 H 0.2819 0.3406 0.3120
C30 C 0.38658(16) 0.37004(12) 0.1113(3)
O1A O 0.16143(11) 0.27774(8) -0.4654(2)
O2A O 0.31015(11) 0.09889(9) -0.4221(2)
O3A O 0.37641(12) 0.21788(8) -0.0141(2)
H1A H 0.3399(18) 0.2240(14) 0.041(4)
O4A O 0.45098(11) 0.24873(8) -0.2869(2)
O5A O 0.36875(12) 0.24050(8) -0.5425(2)
O6A O 0.68996(13) 0.52710(11) -0.0766(3)
O7A O 0.80989(14) 0.33736(9) -0.0324(3)
O8A O 0.62385(12) 0.38385(8) -0.4807(2)
H2A H 0.6462(19) 0.3860(13) -0.562(4)
O9A O 0.62108(12) 0.36574(9) 0.0428(2)
O10A O 0.55308(12) 0.34400(9) -0.2145(2)
N1A N 0.23177(13) 0.18579(10) -0.4293(3)
N2A N 0.75241(14) 0.43216(10) -0.0631(3)
C1A C 0.16141(17) 0.22390(12) -0.5006(3)
C2A C 0.08636(17) 0.19448(12) -0.6188(3)
C3A C 0.08873(17) 0.13225(12) -0.6550(3)
C4A C 0.16433(17) 0.09620(13) -0.5879(3)
C5A C 0.24103(17) 0.12531(12) -0.4759(3)
C6A C 0.01363(18) 0.22913(13) -0.6891(4)
H3A H 0.0122 0.2711 -0.6614
C7A C -0.05821(18) 0.20288(14) -0.8012(4)
H4A H -0.1068 0.2275 -0.8544
C8A C -0.05834(18) 0.14139(13) -0.8343(4)
H5A H -0.1085 0.1236 -0.9067
C9A C 0.01466(17) 0.10422(13) -0.7628(3)
C10A C 0.01850(18) 0.04178(13) -0.7975(4)
H6A H -0.0312 0.0225 -0.8675
C11A C 0.09208(19) 0.00826(13) -0.7326(4)
H7A H 0.0933 -0.0340 -0.7577
C12A C 0.16632(17) 0.03608(13) -0.6286(3)
H8A H 0.2181 0.0128 -0.5865
C13A C 0.30547(15) 0.21406(11) -0.3079(3)
H9A H 0.2810 0.2524 -0.2708
C14A C 0.33952(15) 0.17717(11) -0.1492(3)
H10A H 0.2906 0.1536 -0.1216
H11A H 0.3852 0.1481 -0.1665
C15A C 0.37984(16) 0.23445(11) -0.3882(3)
C16A C 0.75233(18) 0.49426(13) -0.0168(4)
C17A C 0.83198(16) 0.51668(13) 0.1008(3)
C18A C 0.90415(17) 0.47832(12) 0.1568(3)
C19A C 0.89973(17) 0.41597(13) 0.1153(4)
C20A C 0.81900(18) 0.39144(12) 0.0035(3)
C21A C 0.83469(19) 0.57702(12) 0.1520(3)
H12A H 0.7838 0.6021 0.1193
C22A C 0.91231(19) 0.60097(14) 0.2517(3)
H13A H 0.9146 0.6425 0.2852
C23A C 0.98527(18) 0.56457(13) 0.3013(3)
H14A H 1.0387 0.5819 0.3637
C24A C 0.98263(17) 0.50178(13) 0.2613(3)
C25A C 1.05368(18) 0.46194(14) 0.3214(4)
H15A H 1.1066 0.4771 0.3917
C26A C 1.0470(2) 0.40158(14) 0.2792(4)
H16A H 1.0953 0.3751 0.3211
C27A C 0.97041(19) 0.37840(13) 0.1757(4)
H17A H 0.9670 0.3364 0.1467
C28A C 0.67326(16) 0.41054(13) -0.1869(3)
H18A H 0.6380 0.4479 -0.2281
C29A C 0.69815(17) 0.38313(14) -0.3372(3)
H19A H 0.7476 0.4065 -0.3633
H20A H 0.7181 0.3406 -0.3120
C30A C 0.61342(16) 0.37004(12) -0.1113(3)
Ca2_2 Ca 0.5000 0.31242(3) -0.5000
O4A_2 O 0.45098(11) 0.24873(8) 0.7131(2)
O5A_2 O 0.36875(12) 0.24050(8) 0.4575(2)
O8A_2 O 0.62385(12) 0.38385(8) 0.5193(2)
O10A_2 O 0.55308(12) 0.34400(9) 0.7855(2)
O11 O 0.74160(12) 0.38636(9) 0.3251(3)
H21 H 0.7794(16) 0.3562(11) 0.358(4)
H22 H 0.710(2) 0.3778(18) 0.220(3)
O12 O 0.25191(12) 0.22113(9) 0.1612(2)
H23 H 0.226(2) 0.2566(11) 0.127(4)
H24 H 0.2839(17) 0.2265(14) 0.262(2)
loop_
_geom_bond_atom_site_label_1
_geom_bond_atom_site_label_2
_geom_bond_site_symmetry_1
_geom_bond_site_symmetry_2
Ca1 O3 1_555 1_555
Ca2 O4 1_555 1_555
O1 C1 1_555 1_555
O2 C5 1_555 1_555
O3 H1 1_555 1_555
O4 Ca1 1_555 1_555
O5 Ca2 1_555 1_555
O6 C16 1_555 1_555
O7 C20 1_555 1_555
O8 Ca2 1_555 1_555
H2 O8 1_555 1_555
O9 Ca1 1_555 1_555
O10 Ca1 1_555 1_555
N1 C1 1_555 1_555
N2 C16 1_555 1_555
C1 C2 1_555 1_555
C2 C3 1_555 1_555
C3 C4 1_555 1_555
C4 C5 1_555 1_555
C5 N1 1_555 1_555
C6 C2 1_555 1_555
H3 C6 1_555 1_555
C7 C6 1_555 1_555
H4 C7 1_555 1_555
C8 C7 1_555 1_555
H5 C8 1_555 1_555
C9 C3 1_555 1_555
C10 C9 1_555 1_555
H6 C10 1_555 1_555
C11 C10 1_555 1_555
H7 C11 1_555 1_555
C12 C4 1_555 1_555
H8 C12 1_555 1_555
C13 N1 1_555 1_555
H9 C13 1_555 1_555
C14 O3 1_555 1_555
H10 C14 1_555 1_555
H11 C14 1_555 1_555
C15 O4 1_555 1_555
C16 C17 1_555 1_555
C17 C18 1_555 1_555
C18 C19 1_555 1_555
C19 C20 1_555 1_555
C20 N2 1_555 1_555
C21 C17 1_555 1_555
H12 C21 1_555 1_555
C22 C21 1_555 1_555
H13 C22 1_555 1_555
C23 C22 1_555 1_555
H14 C23 1_555 1_555
C24 C18 1_555 1_555
C25 C24 1_555 1_555
H15 C25 1_555 1_555
C26 C25 1_555 1_555
H16 C26 1_555 1_555
C27 C19 1_555 1_555
H17 C27 1_555 1_555
C28 N2 1_555 1_555
H18 C28 1_555 1_555
C29 O8 1_555 1_555
H19 C29 1_555 1_555
H20 C29 1_555 1_555
C30 O9 1_555 1_555
O11 H21 1_555 1_555
H22 O11 1_555 1_555
O12 H23 1_555 1_555
H24 O12 1_555 1_555
O1A C1A 1_555 1_555
O2A C5A 1_555 1_555
O3A Ca1 1_555 1_555
H1A O3A 1_555 1_555
O4A Ca1 1_555 1_555
O5A C15A 1_555 1_555
O6A C16A 1_555 1_555
O7A C20A 1_555 1_555
O8A H2A 1_555 1_555
O9A Ca1 1_555 1_555
O10A Ca1 1_555 1_555
N1A C1A 1_555 1_555
N2A C16A 1_555 1_555
C1A C2A 1_555 1_555
C2A C3A 1_555 1_555
C3A C4A 1_555 1_555
C4A C5A 1_555 1_555
C5A N1A 1_555 1_555
C6A C2A 1_555 1_555
H3A C6A 1_555 1_555
C7A C6A 1_555 1_555
H4A C7A 1_555 1_555
C8A C7A 1_555 1_555
H5A C8A 1_555 1_555
C9A C3A 1_555 1_555
C10A C9A 1_555 1_555
H6A C10A 1_555 1_555
C11A C10A 1_555 1_555
H7A C11A 1_555 1_555
C12A C4A 1_555 1_555
H8A C12A 1_555 1_555
C13A N1A 1_555 1_555
H9A C13A 1_555 1_555
C14A O3A 1_555 1_555
H10A C14A 1_555 1_555
H11A C14A 1_555 1_555
C15A O4A 1_555 1_555
C16A C17A 1_555 1_555
C17A C18A 1_555 1_555
C18A C19A 1_555 1_555
C19A C20A 1_555 1_555
C20A N2A 1_555 1_555
C21A C17A 1_555 1_555
H12A C21A 1_555 1_555
C22A C21A 1_555 1_555
H13A C22A 1_555 1_555
C23A C22A 1_555 1_555
H14A C23A 1_555 1_555
C24A C18A 1_555 1_555
C25A C24A 1_555 1_555
H15A C25A 1_555 1_555
C26A C25A 1_555 1_555
H16A C26A 1_555 1_555
C27A C19A 1_555 1_555
H17A C27A 1_555 1_555
C28A N2A 1_555 1_555
H18A C28A 1_555 1_555
C29A O8A 1_555 1_555
H19A C29A 1_555 1_555
H20A C29A 1_555 1_555
C30A O9A 1_555 1_555
Ca2_2 O4A 1_555 1_555
O4A_2 Ca2 1_555 1_555
O5A_2 Ca2 1_555 1_555
O8A_2 Ca2 1_555 1_555
O10A_2 Ca2 1_555 1_555
Ca2 O10 1_555 1_555
O5 C15 1_555 1_555
O10 C30 1_555 1_555
C8 C9 1_555 1_555
C11 C12 1_555 1_555
C13 C14 1_555 1_555
C13 C15 1_555 1_555
C23 C24 1_555 1_555
C26 C27 1_555 1_555
C28 C29 1_555 1_555
C28 C30 1_555 1_555
O5A Ca2_2 1_555 1_555
O8A Ca2_2 1_555 1_555
O10A C30A 1_555 1_555
O10A Ca2_2 1_555 1_555
C8A C9A 1_555 1_555
C11A C12A 1_555 1_555
C13A C14A 1_555 1_555
C13A C15A 1_555 1_555
C23A C24A 1_555 1_555
C26A C27A 1_555 1_555
C28A C29A 1_555 1_555
C28A C30A 1_555 1_555

#END
