
#######################################################################
#
#                 Cambridge Crystallographic Data Centre
#                                CCDC 
#
#######################################################################
#
# If this CIF has been generated from an entry in the Cambridge 
# Structural Database, then it will include bibliographic, chemical, 
# crystal, experimental, refinement or atomic coordinate data resulting 
# from the CCDC's data processing and validation procedures.
#
#######################################################################

data_WUCBUT
_symmetry_cell_setting           tetragonal
_symmetry_space_group_name_H-M   'P 41 21 2'
_symmetry_Int_Tables_number      92
_space_group_name_Hall           'P 4abw 2nw'
loop_
_symmetry_equiv_pos_site_id
_symmetry_equiv_pos_as_xyz
1 x,y,z
2 1/2-y,1/2+x,1/4+z
3 -x,-y,1/2+z
4 1/2+y,1/2-x,3/4+z
5 1/2+x,1/2-y,3/4-z
6 1/2-x,1/2+y,1/4-z
7 y,x,-z
8 -y,-x,1/2-z
_cell_length_a                   19.868(3)
_cell_length_b                   19.868(3)
_cell_length_c                   14.975(4)
_cell_angle_alpha                90
_cell_angle_beta                 90
_cell_angle_gamma                90
_cell_volume                     5911.19
loop_
_atom_site_label
_atom_site_type_symbol
_atom_site_fract_x
_atom_site_fract_y
_atom_site_fract_z
Sr1 Sr 0.44808(3) 0.03946(3) 0.55210(4)
O1 O 0.3111(2) 0.3034(2) 0.3632(3)
O2 O 0.3508(2) 0.0956(2) 0.4757(3)
O3 O 0.4887(2) 0.1250(2) 0.4326(3)
O4 O 0.4382(2) 0.1372(2) 0.3012(3)
N1 N 0.3329(2) 0.1968(2) 0.4097(3)
C1 C 0.2892(3) 0.2476(3) 0.3783(5)
C2 C 0.2184(3) 0.2286(3) 0.3667(5)
C3 C 0.1962(3) 0.1631(3) 0.3859(4)
C4 C 0.2403(3) 0.1155(3) 0.4229(4)
C5 C 0.3109(3) 0.1335(3) 0.4378(4)
C6 C 0.1736(4) 0.2755(4) 0.3331(5)
H1 H 0.1886 0.3199 0.3203
C7 C 0.1068(4) 0.2580(4) 0.3180(5)
H2 H 0.0763 0.2907 0.2956
C8 C 0.0847(4) 0.1940(4) 0.3350(5)
H3 H 0.0394 0.1822 0.3224
C9 C 0.1286(3) 0.1458(3) 0.3709(4)
C10 C 0.1084(4) 0.0796(4) 0.3911(5)
H4 H 0.0630 0.0669 0.3805
C11 C 0.1520(3) 0.0327(4) 0.4256(5)
H5 H 0.1372 -0.0118 0.4379
C12 C 0.2192(3) 0.0517(3) 0.4423(4)
H6 H 0.2499 0.0202 0.4670
C13 C 0.4051(3) 0.2123(3) 0.4170(4)
H7 H 0.4137 0.2512 0.3762
C14 C 0.4217(3) 0.2367(3) 0.5111(4)
H8 H 0.3998 0.2801 0.5218
H9 H 0.4706 0.2419 0.5172
H10 H 0.4056 0.2037 0.5548
C15 C 0.4473(3) 0.1531(3) 0.3811(4)
O5 O 0.7763(5) 0.0621(6) 0.6554(8)
O6 O 0.5790(6) 0.1539(5) 0.7380(7)
O7 O 0.53346(19) 0.0002(2) 0.6863(3)
O8 O 0.5693(2) 0.0717(2) 0.5841(3)
N2 N 0.6752(4) 0.1079(5) 0.6864(8)
C16 C 0.7430(6) 0.1129(7) 0.6602(11)
C17 C 0.7664(6) 0.1806(6) 0.6354(8)
C18 C 0.7236(6) 0.2363(6) 0.6383(8)
C19 C 0.6564(6) 0.2294(5) 0.6678(8)
C20 C 0.6335(6) 0.1636(5) 0.7011(10)
C21 C 0.8329(6) 0.1890(7) 0.6075(9)
H11 H 0.8631 0.1519 0.6071
C22 C 0.8547(7) 0.2529(7) 0.5802(9)
H12 H 0.8999 0.2583 0.5607
C23 C 0.8118(6) 0.3091(7) 0.5807(9)
H13 H 0.8277 0.3521 0.5628
C24 C 0.7460(6) 0.3003(6) 0.6080(9)
C25 C 0.6994(7) 0.3537(7) 0.6090(10)
H14 H 0.7135 0.3966 0.5880
C26 C 0.6346(7) 0.3467(6) 0.6389(9)
H15 H 0.6045 0.3838 0.6396
C27 C 0.6143(7) 0.2832(5) 0.6683(9)
H16 H 0.5696 0.2774 0.6893
C28 C 0.6467(5) 0.0404(6) 0.6996(8)
H17 H 0.6758 0.0082 0.6658
C29 C 0.6492(8) 0.0192(8) 0.7974(8)
H18 H 0.6947 0.0263 0.8207
H19 H 0.6373 -0.0285 0.8024
H20 H 0.6171 0.0462 0.8319
C30 C 0.5770(3) 0.0390(3) 0.6552(4)
O9 O 0.4390(2) 0.1314(2) 0.6753(3)
H21 H 0.4790(14) 0.144(3) 0.683(4)
H22 H 0.430(3) 0.110(3) 0.721(3)
Sr1A Sr 0.46054(3) -0.05192(3) 0.80210(4)
Sr1C Sr 0.53946(3) 0.05192(3) 0.30210(4)
O3A O 0.3750(2) -0.0113(2) 0.6826(3)
O4A O 0.3628(2) -0.0618(2) 0.5512(3)
O7C O 0.5002(2) -0.03346(19) 0.4363(3)
O10 O 0.465(3) 0.465(3) 0.5000
O11 O 0.4150(5) 0.3929(5) 0.3462(8)
O12 O 0.3990(6) 0.4663(6) 0.2015(9)
O13? O 0.7687(7) 0.0899(8) 0.6551(11)
O14? O 0.5625(7) 0.1618(7) 0.7426(10)
N3? N 0.6633(6) 0.1252(6) 0.6928(10)
C31? C 0.7290(7) 0.1366(8) 0.6615(13)
C32? C 0.7451(7) 0.2067(8) 0.6373(12)
C33? C 0.6960(7) 0.2568(7) 0.6424(11)
C34? C 0.6308(7) 0.2433(6) 0.6743(11)
C35? C 0.6154(8) 0.1756(6) 0.7066(12)
C36? C 0.8108(7) 0.2202(8) 0.6096(11)
H23? H 0.8438 0.1857 0.6111
C37? C 0.8279(8) 0.2847(8) 0.5798(11)
H24? H 0.8716 0.2938 0.5572
C38? C 0.7789(8) 0.3358(8) 0.5840(12)
H25? H 0.7905 0.3804 0.5669
C39? C 0.7147(7) 0.3224(7) 0.6123(11)
C40? C 0.6602(9) 0.3682(8) 0.6121(13)
H26? H 0.6687 0.4114 0.5873
C41? C 0.5962(8) 0.3572(7) 0.6440(12)
H27? H 0.5633 0.3918 0.6456
C42? C 0.5826(9) 0.2914(7) 0.6741(12)
H28? H 0.5387 0.2806 0.6947
C43? C 0.6422(7) 0.0545(7) 0.7067(10)
H29? H 0.6779 0.0263 0.6782
C44? C 0.6403(10) 0.0329(10) 0.8056(10)
H30? H 0.6856 0.0363 0.8311
H31? H 0.6245 -0.0137 0.8098
H32? H 0.6096 0.0624 0.8386
O15? O 0.4253(7) 0.3981(7) 0.4118(10)
O16? O 0.4477(16) 0.4931(13) 0.231(2)
O17? O 0.4001(7) 0.4601(8) 0.1192(11)
O18? O 0.4233(7) 0.4692(7) 0.0368(10)
O19? O 0.4419(9) 0.4993(8) 0.2965(15)
O20? O 0.4633(12) 0.430(2) 0.5012(17)
loop_
_geom_bond_atom_site_label_1
_geom_bond_atom_site_label_2
_geom_bond_site_symmetry_1
_geom_bond_site_symmetry_2
Sr1 O2 1_555 1_555
O1 C1 1_555 1_555
O2 C5 1_555 1_555
O3 Sr1 1_555 1_555
O4 C15 1_555 1_555
N1 C1 1_555 1_555
C1 C2 1_555 1_555
C2 C3 1_555 1_555
C3 C4 1_555 1_555
C4 C5 1_555 1_555
C5 N1 1_555 1_555
C6 C2 1_555 1_555
H1 C6 1_555 1_555
C7 C6 1_555 1_555
H2 C7 1_555 1_555
C8 C7 1_555 1_555
H3 C8 1_555 1_555
C9 C3 1_555 1_555
C10 C9 1_555 1_555
H4 C10 1_555 1_555
C11 C10 1_555 1_555
H5 C11 1_555 1_555
C12 C4 1_555 1_555
H6 C12 1_555 1_555
C13 N1 1_555 1_555
H7 C13 1_555 1_555
C14 C13 1_555 1_555
H8 C14 1_555 1_555
H9 C14 1_555 1_555
H10 C14 1_555 1_555
C15 O3 1_555 1_555
O5 C16 1_555 1_555
O6 C20 1_555 1_555
O7 Sr1 1_555 1_555
O8 Sr1 1_555 1_555
N2 C16 1_555 1_555
C16 C17 1_555 1_555
C17 C18 1_555 1_555
C18 C19 1_555 1_555
C19 C20 1_555 1_555
C20 N2 1_555 1_555
C21 C17 1_555 1_555
H11 C21 1_555 1_555
C22 C21 1_555 1_555
H12 C22 1_555 1_555
C23 C22 1_555 1_555
H13 C23 1_555 1_555
C24 C18 1_555 1_555
C25 C24 1_555 1_555
H14 C25 1_555 1_555
C26 C25 1_555 1_555
H15 C26 1_555 1_555
C27 C19 1_555 1_555
H16 C27 1_555 1_555
C28 N2 1_555 1_555
H17 C28 1_555 1_555
C29 C28 1_555 1_555
H18 C29 1_555 1_555
H19 C29 1_555 1_555
H20 C29 1_555 1_555
C30 O7 1_555 1_555
O9 Sr1 1_555 1_555
H21 O9 1_555 1_555
H22 O9 1_555 1_555
Sr1A O7 1_555 1_555
Sr1C O3 1_555 1_555
O3A Sr1 1_555 1_555
O4A Sr1 1_555 1_555
O7C Sr1 1_555 1_555
O4 Sr1C 1_555 1_555
C8 C9 1_555 1_555
C11 C12 1_555 1_555
C13 C15 1_555 1_555
O8 C30 1_555 1_555
C23 C24 1_555 1_555
C26 C27 1_555 1_555
C28 C30 1_555 1_555
Sr1A O3A 1_555 1_555
Sr1C O7C 1_555 1_555

#END
