
#######################################################################
#
#                 Cambridge Crystallographic Data Centre
#                                CCDC 
#
#######################################################################
#
# If this CIF has been generated from an entry in the Cambridge 
# Structural Database, then it will include bibliographic, chemical, 
# crystal, experimental, refinement or atomic coordinate data resulting 
# from the CCDC's data processing and validation procedures.
#
#######################################################################

data_WUCCEE
_symmetry_cell_setting           tetragonal
_symmetry_space_group_name_H-M   'P 41 21 2'
_symmetry_Int_Tables_number      92
_space_group_name_Hall           'P 4abw 2nw'
loop_
_symmetry_equiv_pos_site_id
_symmetry_equiv_pos_as_xyz
1 x,y,z
2 -x,-y,1/2+z
3 1/2-y,1/2+x,1/4+z
4 1/2+y,1/2-x,3/4+z
5 1/2-x,1/2+y,1/4-z
6 1/2+x,1/2-y,3/4-z
7 y,x,-z
8 -y,-x,1/2-z
_cell_length_a                   19.030(5)
_cell_length_b                   19.030(5)
_cell_length_c                   14.797(7)
_cell_angle_alpha                90
_cell_angle_beta                 90
_cell_angle_gamma                90
_cell_volume                     5358.6
loop_
_atom_site_label
_atom_site_type_symbol
_atom_site_fract_x
_atom_site_fract_y
_atom_site_fract_z
Sr1 Sr 0.44466(16) 0.96632(17) 0.4757(2)
O1 O 0.2679(4) 0.7047(4) 0.6468(5)
O2 O 0.3343(4) 0.9193(4) 0.5445(5)
O3 O 0.4717(4) 0.8760(4) 0.6022(5)
O4 O 0.4096(4) 0.8658(4) 0.7283(5)
N1 N 0.3027(4) 0.8144(4) 0.6054(5)
C1 C 0.2514(4) 0.7649(4) 0.6310(5)
C2 C 0.1790(4) 0.7900(4) 0.6361(5)
C3 C 0.1626(4) 0.8605(4) 0.6165(5)
C4 C 0.2150(4) 0.9074(4) 0.5848(5)
C5 C 0.2871(4) 0.8825(4) 0.5773(5)
C6 C 0.1259(4) 0.7448(4) 0.6640(5)
H1 H 0.1364 0.6965 0.6768
C7 C 0.0579(4) 0.7693(4) 0.6732(5)
H2 H 0.0217 0.7378 0.6934
C8 C 0.0413(4) 0.8367(4) 0.6543(5)
H3 H -0.0064 0.8523 0.6613
C9 C 0.0928(4) 0.8844(4) 0.6247(5)
C10 C 0.0786(4) 0.9559(4) 0.6036(5)
H4 H 0.0314 0.9732 0.6091
C11 C 0.1303(4) 1.0003(4) 0.5757(5)
H5 H 0.1197 1.0487 0.5632
C12 C 0.1997(4) 0.9749(4) 0.5653(5)
H6 H 0.2360 1.0058 0.5443
C13 C 0.3763(4) 0.7921(4) 0.6063(5)
H7 H 0.3788 0.7524 0.6462
C14 C 0.3986(4) 0.7656(4) 0.5129(5)
H8 H 0.3661 0.7303 0.4928
H9 H 0.3986 0.8040 0.4709
H10 H 0.4449 0.7458 0.5165
C15 C 0.4235(4) 0.8493(4) 0.6480(5)
O5 O 0.7485(5) 0.8288(7) 0.3591(6)
O6 O 0.5214(5) 0.8255(7) 0.2662(5)
O7 O 0.5367(8) 0.9845(8) 0.3324(11)
O8 O 0.5562(9) 0.9013(9) 0.4340(9)
N2 N 0.6348(4) 0.8272(4) 0.3126(3)
C16 C 0.6952(7) 0.7950(6) 0.349(2)
C17 C 0.6903(7) 0.7199(6) 0.368(2)
C18 C 0.6261(10) 0.6841(9) 0.359(3)
C19 C 0.5661(8) 0.7186(8) 0.323(2)
C20 C 0.5723(7) 0.7916(6) 0.2949(19)
C21 C 0.7495(9) 0.6830(9) 0.396(3)
H11 H 0.7949 0.7049 0.3947
C22 C 0.7428(12) 0.6143(11) 0.426(3)
H12 H 0.7832 0.5901 0.4490
C23 C 0.6811(14) 0.5797(13) 0.419(4)
H13 H 0.6775 0.5325 0.4412
C24 C 0.6213(11) 0.6126(8) 0.383(3)
C25 C 0.5533(12) 0.5813(12) 0.382(4)
H14 H 0.5480 0.5329 0.3992
C26 C 0.4948(10) 0.6196(14) 0.363(4)
H15 H 0.4488 0.6017 0.3762
C27 C 0.5023(9) 0.6878(13) 0.326(4)
H16 H 0.4620 0.7118 0.3016
C28 C 0.6337(6) 0.9042(4) 0.3085(8)
H17 H 0.6752 0.9198 0.3392
C29 C 0.6399(14) 0.9295(9) 0.2107(12)
H18 H 0.6803 0.9084 0.1831
H19 H 0.5985 0.9166 0.1775
H20 H 0.6449 0.9797 0.2101
C30 C 0.5710(10) 0.9336(7) 0.3624(10)
O9 O 0.4145(13) 0.8728(13) 0.3418(17)
Sr1B Sr 0.53368(17) 0.94466(16) 0.7257(2)
Sr1C Sr 0.46632(17) 1.05534(16) 0.2257(2)
O3C O 0.3760(4) 1.0283(4) 0.3522(5)
O4C O 0.3658(4) 1.0904(4) 0.4783(5)
O7B O 0.5155(8) 1.0367(8) 0.5824(11)
loop_
_geom_bond_atom_site_label_1
_geom_bond_atom_site_label_2
_geom_bond_site_symmetry_1
_geom_bond_site_symmetry_2
Sr1 O2 1_555 1_555
O1 C1 1_555 1_555
O2 C5 1_555 1_555
O3 Sr1 1_555 1_555
O4 C15 1_555 1_555
N1 C1 1_555 1_555
C1 C2 1_555 1_555
C2 C3 1_555 1_555
C3 C4 1_555 1_555
C4 C5 1_555 1_555
C5 N1 1_555 1_555
C6 C2 1_555 1_555
H1 C6 1_555 1_555
C7 C6 1_555 1_555
H2 C7 1_555 1_555
C8 C7 1_555 1_555
H3 C8 1_555 1_555
C9 C3 1_555 1_555
C10 C9 1_555 1_555
H4 C10 1_555 1_555
C11 C10 1_555 1_555
H5 C11 1_555 1_555
C12 C4 1_555 1_555
H6 C12 1_555 1_555
C13 N1 1_555 1_555
H7 C13 1_555 1_555
C14 C13 1_555 1_555
H8 C14 1_555 1_555
H9 C14 1_555 1_555
H10 C14 1_555 1_555
C15 O3 1_555 1_555
O5 C16 1_555 1_555
O6 C20 1_555 1_555
O7 Sr1 1_555 1_555
O8 Sr1 1_555 1_555
N2 C16 1_555 1_555
C16 C17 1_555 1_555
C17 C18 1_555 1_555
C18 C19 1_555 1_555
C19 C20 1_555 1_555
C20 N2 1_555 1_555
C21 C17 1_555 1_555
H11 C21 1_555 1_555
C22 C21 1_555 1_555
H12 C22 1_555 1_555
C23 C22 1_555 1_555
H13 C23 1_555 1_555
C24 C18 1_555 1_555
C25 C24 1_555 1_555
H14 C25 1_555 1_555
C26 C25 1_555 1_555
H15 C26 1_555 1_555
C27 C19 1_555 1_555
H16 C27 1_555 1_555
C28 N2 1_555 1_555
H17 C28 1_555 1_555
C29 C28 1_555 1_555
H18 C29 1_555 1_555
H19 C29 1_555 1_555
H20 C29 1_555 1_555
C30 O7 1_555 1_555
O9 Sr1 1_555 1_555
Sr1B O3 1_555 1_555
Sr1C O7 1_555 1_555
O3C Sr1 1_555 1_555
O4C Sr1 1_555 1_555
O7B Sr1 1_555 1_555
O4 Sr1B 1_555 1_555
C8 C9 1_555 1_555
C11 C12 1_555 1_555
C13 C15 1_555 1_555
O8 C30 1_555 1_555
C23 C24 1_555 1_555
C26 C27 1_555 1_555
C28 C30 1_555 1_555
Sr1B O7B 1_555 1_555
Sr1C O3C 1_555 1_555

#END
