
#######################################################################
#
#                 Cambridge Crystallographic Data Centre
#                                CCDC 
#
#######################################################################
#
# If this CIF has been generated from an entry in the Cambridge 
# Structural Database, then it will include bibliographic, chemical, 
# crystal, experimental, refinement or atomic coordinate data resulting 
# from the CCDC's data processing and validation procedures.
#
#######################################################################

data_WUCMIQ
_symmetry_cell_setting           monoclinic
_symmetry_space_group_name_H-M   'P 21/n'
_symmetry_Int_Tables_number      14
_space_group_name_Hall           '-P 2yn'
loop_
_symmetry_equiv_pos_site_id
_symmetry_equiv_pos_as_xyz
1 x,y,z
2 1/2+x,1/2-y,1/2+z
3 -x,-y,-z
4 1/2-x,1/2+y,1/2-z
_cell_length_a                   6.1644(3)
_cell_length_b                   22.6577(12)
_cell_length_c                   12.0384(6)
_cell_angle_alpha                90.00
_cell_angle_beta                 91.513(2)
_cell_angle_gamma                90.00
_cell_volume                     1680.83
loop_
_atom_site_label
_atom_site_type_symbol
_atom_site_fract_x
_atom_site_fract_y
_atom_site_fract_z
Nd1 Nd 1.44041(7) 0.14733(2) 0.43901(4)
Zn1 Zn 1.0000 0.0000 0.0000
O1 O 1.3244(9) 0.0401(2) 0.4780(5)
H1 H 1.3560(9) 0.0317(2) 0.5427(5)
O2 O 1.7408(9) 0.0826(2) 0.3838(5)
H2 H 1.8440(9) 0.0868(2) 0.4274(5)
O3 O 1.5110(10) 0.1136(3) 0.6321(5)
H3 H 1.5717(10) 0.1399(3) 0.6678(5)
O4 O 1.2660(9) 0.2286(2) 0.3459(5)
O5 O 1.2534(10) 0.3123(3) 0.2501(5)
O6 O 1.5649(8) 0.3564(2) -0.0011(5)
O7 O 1.2693(8) 0.3006(2) 0.0162(5)
O8 O 1.2747(9) 0.1023(2) 0.2783(5)
O9 O 1.1147(8) 0.0412(3) 0.1584(5)
O10 O 1.5639(9) -0.0138(2) 0.2406(5)
O11 O 1.7967(8) -0.0411(2) 0.1129(5)
N1 N 1.6484(10) 0.2021(3) 0.2607(6)
N2 N 1.8003(10) 0.2640(3) 0.0783(6)
N3 N 1.4061(11) 0.1359(3) 0.0469(6)
N4 N 1.7524(10) 0.0610(3) 0.0064(6)
C1 C 1.3293(13) 0.2637(4) 0.2724(7)
C2 C 1.5298(12) 0.2444(3) 0.2101(7)
C3 C 1.5987(12) 0.2727(3) 0.1136(7)
C4 C 1.9200(13) 0.2224(4) 0.1281(7)
H4 H 2.0593(13) 0.2152(4) 0.1035(7)
C5 C 1.8414(13) 0.1893(4) 0.2166(7)
H5 H 1.9234(13) 0.1582(4) 0.2453(7)
C6 C 1.4624(13) 0.3127(4) 0.0390(7)
C7 C 1.2652(13) 0.0748(4) 0.1891(7)
C8 C 1.4401(13) 0.0871(3) 0.1062(7)
C9 C 1.6121(12) 0.0495(3) 0.0889(7)
C10 C 1.7157(14) 0.1083(4) -0.0538(8)
H6 H 1.8070(14) 0.1164(4) -0.1122(8)
C11 C 1.5455(13) 0.1468(4) -0.0338(7)
H7 H 1.5283(13) 0.1805(4) -0.0772(7)
C12 C 1.6622(13) -0.0069(4) 0.1528(7)
O8B O 0.7253(9) -0.1023(2) -0.2783(5)
O9B O 0.8853(8) -0.0412(3) -0.1584(5)
O10B O 0.4361(9) 0.0138(2) -0.2406(5)
O11B O 0.2033(8) 0.0411(2) -0.1129(5)
N3B N 0.5939(11) -0.1359(3) -0.0469(6)
N4B N 0.2476(10) -0.0610(3) -0.0064(6)
C7B C 0.7348(13) -0.0748(4) -0.1891(7)
C8B C 0.5599(13) -0.0871(3) -0.1062(7)
C9B C 0.3879(12) -0.0495(3) -0.0889(7)
C10B C 0.2843(14) -0.1083(4) 0.0538(8)
H6B H 0.1930(14) -0.1164(4) 0.1122(8)
C11B C 0.4545(13) -0.1468(4) 0.0338(7)
H7B H 0.4717(13) -0.1805(4) 0.0772(7)
C12B C 0.3378(13) 0.0069(4) -0.1528(7)
Nd1B Nd 0.55959(7) -0.14733(2) -0.43901(4)
O4A O 0.7660(9) 0.2714(2) 0.8459(5)
O5A O 0.7534(10) 0.1877(3) 0.7501(5)
O6A O 1.0649(8) 0.1436(2) 0.4989(5)
O7A O 0.7693(8) 0.1994(2) 0.5162(5)
N1A N 1.1484(10) 0.2979(3) 0.7607(6)
N2A N 1.3003(10) 0.2360(3) 0.5783(6)
C1A C 0.8293(13) 0.2363(4) 0.7724(7)
C2A C 1.0298(12) 0.2556(3) 0.7101(7)
C3A C 1.0987(12) 0.2273(3) 0.6136(7)
C4A C 1.4200(13) 0.2776(4) 0.6281(7)
H4A H 1.5593(13) 0.2848(4) 0.6035(7)
C5A C 1.3414(13) 0.3107(4) 0.7166(7)
H5A H 1.4234(13) 0.3418(4) 0.7453(7)
C6A C 0.9624(13) 0.1873(4) 0.5390(7)
O1B O 0.6756(9) -0.0401(2) -0.4780(5)
H1B H 0.6440(9) -0.0317(2) -0.5427(5)
O2B O 0.2592(9) -0.0826(2) -0.3838(5)
H2B H 0.1560(9) -0.0868(2) -0.4274(5)
O3B O 0.4890(10) -0.1136(3) -0.6321(5)
H3B H 0.4283(10) -0.1399(3) -0.6678(5)
O7A_2 O 1.7693(8) 0.1994(2) 0.5162(5)
O11_2 O 0.7967(8) -0.0411(2) 0.1129(5)
O11B_2 O 1.2033(8) 0.0411(2) -0.1129(5)
N4_2 N 0.7524(10) 0.0610(3) 0.0064(6)
N4B_2 N 1.2476(10) -0.0610(3) -0.0064(6)
Nd1A Nd 1.94041(7) 0.35267(2) -0.06099(4)
Nd1A_2 Nd 0.94041(7) 0.35267(2) -0.06099(4)
Zn1_2 Zn 2.0000 0.0000 0.0000
Zn1_3 Zn 0.0000 0.0000 0.0000
O4B O 0.7340(9) -0.2286(2) -0.3459(5)
O6C O 0.9351(8) -0.1436(2) -0.4989(5)
O7C O 0.2307(8) -0.1994(2) -0.5162(5)
N1B N 0.3516(10) -0.2021(3) -0.2607(6)
N2C N 0.6997(10) -0.2360(3) -0.5783(6)
Nd1A_3 Nd 0.94041(7) 0.35267(2) 0.93901(4)
Nd1_2 Nd 0.44041(7) 0.14733(2) 0.43901(4)
O12 O 0.0368(11) -0.0290(3) 0.3539(6)
loop_
_geom_bond_atom_site_label_1
_geom_bond_atom_site_label_2
_geom_bond_site_symmetry_1
_geom_bond_site_symmetry_2
Nd1 O1 1_555 1_555
Zn1 O9 1_555 1_555
O1 H1 1_555 1_555
O2 Nd1 1_555 1_555
H2 O2 1_555 1_555
O3 Nd1 1_555 1_555
H3 O3 1_555 1_555
O4 Nd1 1_555 1_555
O5 C1 1_555 1_555
O6 C6 1_555 1_555
O7 C6 1_555 1_555
O8 Nd1 1_555 1_555
O9 C7 1_555 1_555
O10 C12 1_555 1_555
O11 C12 1_555 1_555
N1 Nd1 1_555 1_555
N2 C3 1_555 1_555
N3 C8 1_555 1_555
N4 C9 1_555 1_555
C1 O4 1_555 1_555
C2 N1 1_555 1_555
C3 C2 1_555 1_555
C4 N2 1_555 1_555
H4 C4 1_555 1_555
C5 N1 1_555 1_555
H5 C5 1_555 1_555
C6 C3 1_555 1_555
C7 O8 1_555 1_555
C8 C7 1_555 1_555
C9 C8 1_555 1_555
C10 N4 1_555 1_555
H6 C10 1_555 1_555
C11 N3 1_555 1_555
H7 C11 1_555 1_555
C12 C9 1_555 1_555
O8B C7B 1_555 1_555
O9B Zn1 1_555 1_555
O10B C12B 1_555 1_555
O11B C12B 1_555 1_555
N3B C8B 1_555 1_555
N4B C9B 1_555 1_555
C7B O9B 1_555 1_555
C8B C7B 1_555 1_555
C9B C8B 1_555 1_555
C10B N4B 1_555 1_555
H6B C10B 1_555 1_555
C11B N3B 1_555 1_555
H7B C11B 1_555 1_555
C12B C9B 1_555 1_555
Nd1B O8B 1_555 1_555
O4A C1A 1_555 1_555
O5A C1A 1_555 1_555
O6A Nd1 1_555 1_555
O7A C6A 1_555 1_555
N1A C2A 1_555 1_555
N2A Nd1 1_555 1_555
C1A C2A 1_555 1_555
C2A C3A 1_555 1_555
C3A N2A 1_555 1_555
C4A N2A 1_555 1_555
H4A C4A 1_555 1_555
C5A N1A 1_555 1_555
H5A C5A 1_555 1_555
C6A O6A 1_555 1_555
O1B Nd1B 1_555 1_555
H1B O1B 1_555 1_555
O2B Nd1B 1_555 1_555
H2B O2B 1_555 1_555
O3B Nd1B 1_555 1_555
H3B O3B 1_555 1_555
O7A_2 Nd1 1_555 1_555
O11_2 Zn1 1_555 1_555
O11B_2 Zn1 1_555 1_555
N4_2 Zn1 1_555 1_555
N4B_2 Zn1 1_555 1_555
Nd1A O6 1_555 1_555
Nd1A_2 O7 1_555 1_555
Zn1_2 O11 1_555 1_555
Zn1_3 O11B 1_555 1_555
O4B Nd1B 1_555 1_555
O6C Nd1B 1_555 1_555
O7C Nd1B 1_555 1_555
N1B Nd1B 1_555 1_555
N2C Nd1B 1_555 1_555
Nd1A_3 O4A 1_555 1_555
Nd1_2 O7A 1_555 1_555
N2 Nd1A 1_555 1_555
N4 Zn1_2 1_555 1_555
C1 C2 1_555 1_555
C4 C5 1_555 1_555
C10 C11 1_555 1_555
N4B Zn1_3 1_555 1_555
C10B C11B 1_555 1_555
N1A Nd1A_3 1_555 1_555
C3A C6A 1_555 1_555
C4A C5A 1_555 1_555

#END
