
#######################################################################
#
#                 Cambridge Crystallographic Data Centre
#                                CCDC 
#
#######################################################################
#
# If this CIF has been generated from an entry in the Cambridge 
# Structural Database, then it will include bibliographic, chemical, 
# crystal, experimental, refinement or atomic coordinate data resulting 
# from the CCDC's data processing and validation procedures.
#
#######################################################################

data_WUCSAO
_symmetry_cell_setting           monoclinic
_symmetry_space_group_name_H-M   'P 2/c'
_symmetry_Int_Tables_number      13
_space_group_name_Hall           '-P 2yc'
loop_
_symmetry_equiv_pos_site_id
_symmetry_equiv_pos_as_xyz
1 x,y,z
2 x,-y,1/2+z
3 -x,-y,-z
4 -x,y,1/2-z
_cell_length_a                   9.66950(10)
_cell_length_b                   12.6013(2)
_cell_length_c                   14.05220(10)
_cell_angle_alpha                90.00
_cell_angle_beta                 109.3640(10)
_cell_angle_gamma                90.00
_cell_volume                     1615.38
loop_
_atom_site_label
_atom_site_type_symbol
_atom_site_fract_x
_atom_site_fract_y
_atom_site_fract_z
Fe1 Fe -0.94039(4) 0.77681(3) 0.15277(2)
Fe2 Fe 0.0000 1.0000 0.0000
O1 O -0.7039(2) 0.7711(2) 0.1497(2)
O2 O -0.0071(2) 0.7223(2) 0.00396(14)
O3 O -0.0517(2) 0.37882(15) -0.1890(2)
O4 O -0.0159(3) 0.8704(2) -0.0858(2)
O5 O -0.1386(3) 0.9360(2) 0.0711(2)
O6 O -0.8361(2) 0.9160(2) 0.12414(14)
O7 O -0.1405(2) 0.8117(2) 0.1808(2)
O8 O -0.5985(3) 1.2667(2) 0.1240(3)
O9 O -0.3695(3) 1.2721(2) 0.1224(3)
C1 C -0.4545(3) 0.8825(2) 0.1346(2)
H1 H -0.4478(3) 0.8089(2) 0.1382(2)
C2 C -0.5954(3) 1.0430(2) 0.1278(2)
H2 H -0.6821(3) 1.0762(2) 0.1261(2)
C3 C -0.5859(3) 0.9331(2) 0.1302(2)
C4 C -0.3441(3) 1.0535(2) 0.1291(2)
H3 H -0.2646(3) 1.0937(2) 0.1270(2)
C5 C -0.3343(3) 0.9429(2) 0.1335(2)
C6 C -0.4741(3) 1.1038(2) 0.1279(2)
C7 C -0.7141(3) 0.8689(2) 0.1336(2)
C8 C 0.0000 0.4245(3) -0.2500
C9 C 0.0000 0.5436(3) -0.2500
C10 C -0.0097(3) 0.5986(2) -0.1661(2)
H4 H -0.0169(3) 0.5616(2) -0.1107(2)
C11 C -0.0085(3) 0.7091(2) -0.1657(2)
C12 C -0.1952(3) 0.8936(2) 0.1291(2)
C13 C -0.0117(3) 0.7715(2) -0.0749(2)
C14 C -0.4876(4) 1.2215(2) 0.1240(3)
C15 C 0.0000 0.7636(3) -0.2500
H5 H 0.0000 0.8374(3) -0.2500
O3C O 0.0517(2) 0.37882(15) -0.3110(2)
C10C C 0.0097(3) 0.5986(2) -0.3339(2)
H4C H 0.0169(3) 0.5616(2) -0.3893(2)
C11C C 0.0085(3) 0.7091(2) -0.3343(2)
C13C C 0.0117(3) 0.7715(2) -0.4251(2)
O2C O 0.0071(2) 0.7223(2) -0.50396(14)
O4C O 0.0159(3) 0.8704(2) -0.4142(2)
O1B O 0.7039(2) 1.2289(2) -0.1497(2)
O5B O 0.1386(3) 1.0640(2) -0.0711(2)
O6B O 0.8361(2) 1.0840(2) -0.12414(14)
O7B O 0.1405(2) 1.1883(2) -0.1808(2)
O8B O 0.5985(3) 0.7333(2) -0.1240(3)
O9B O 0.3695(3) 0.7279(2) -0.1224(3)
C1B C 0.4545(3) 1.1175(2) -0.1346(2)
H1B H 0.4478(3) 1.1911(2) -0.1382(2)
C2B C 0.5954(3) 0.9570(2) -0.1278(2)
H2B H 0.6821(3) 0.9238(2) -0.1261(2)
C3B C 0.5859(3) 1.0669(2) -0.1302(2)
C4B C 0.3441(3) 0.9465(2) -0.1291(2)
H3B H 0.2646(3) 0.9063(2) -0.1270(2)
C5B C 0.3343(3) 1.0571(2) -0.1335(2)
C6B C 0.4741(3) 0.8962(2) -0.1279(2)
C7B C 0.7141(3) 1.1311(2) -0.1336(2)
C12B C 0.1952(3) 1.1064(2) -0.1291(2)
C14B C 0.4876(4) 0.7785(2) -0.1240(3)
Fe1B Fe 0.94039(4) 1.22319(3) -0.15277(2)
O2_2 O -1.0071(2) 0.7223(2) 0.00396(14)
O3B O -0.9483(2) 0.62118(15) 0.1890(2)
O7_2 O -1.1405(2) 0.8117(2) 0.1808(2)
O7C O -0.8595(2) 0.8117(2) 0.3192(2)
O4B O 0.0159(3) 1.1296(2) 0.0858(2)
O6_2 O 0.1639(2) 0.9160(2) 0.12414(14)
O6B_2 O -0.1639(2) 1.0840(2) -0.12414(14)
Fe1_2 Fe 0.05961(4) 0.77681(3) 0.15277(2)
Fe1B_2 Fe -0.05961(4) 0.22319(3) -0.15277(2)
Fe2_2 Fe -1.0000 1.0000 0.0000
Fe1C Fe -0.05961(4) 0.77681(3) 0.34723(2)
Fe1A Fe 0.05961(4) 0.22319(3) -0.34723(2)
Fe1C_2 Fe -0.05961(4) 0.77681(3) -0.65277(2)
Fe2A Fe 0.0000 1.0000 -0.5000
Fe2_3 Fe 1.0000 1.0000 0.0000
Fe1A_2 Fe 0.05961(4) 1.22319(3) -0.34723(2)
Fe1B_3 Fe -0.05961(4) 1.22319(3) -0.15277(2)
O2B O 1.0071(2) 1.2777(2) -0.00396(14)
O3_2 O 0.9483(2) 1.37882(15) -0.1890(2)
O7A O 0.8595(2) 1.1883(2) -0.3192(2)
O7B_2 O 1.1405(2) 1.1883(2) -0.1808(2)
O10 O 0.2423(3) 1.4239(2) -0.0029(3)
O11 O 0.3807(4) 0.4868(3) 0.3650(3)
K1 K 0.3327(2) 0.55839(13) 0.1631(2)
loop_
_geom_bond_atom_site_label_1
_geom_bond_atom_site_label_2
_geom_bond_site_symmetry_1
_geom_bond_site_symmetry_2
Fe1 O1 1_555 1_555
Fe2 O4 1_555 1_555
O1 C7 1_555 1_555
O2 C13 1_555 1_555
O3 C8 1_555 1_555
O4 C13 1_555 1_555
O5 Fe2 1_555 1_555
O6 Fe1 1_555 1_555
O7 C12 1_555 1_555
O8 C14 1_555 1_555
O9 C14 1_555 1_555
C1 H1 1_555 1_555
C2 H2 1_555 1_555
C3 C1 1_555 1_555
C4 H3 1_555 1_555
C5 C1 1_555 1_555
C6 C2 1_555 1_555
C7 O6 1_555 1_555
C8 C9 1_555 1_555
C9 C10 1_555 1_555
C10 H4 1_555 1_555
C11 C10 1_555 1_555
C12 O5 1_555 1_555
C13 C11 1_555 1_555
C14 C6 1_555 1_555
C15 C11 1_555 1_555
H5 C15 1_555 1_555
O3C C8 1_555 1_555
C10C C9 1_555 1_555
H4C C10C 1_555 1_555
C11C C15 1_555 1_555
C13C C11C 1_555 1_555
O2C C13C 1_555 1_555
O4C C13C 1_555 1_555
O1B C7B 1_555 1_555
O5B Fe2 1_555 1_555
O6B C7B 1_555 1_555
O7B C12B 1_555 1_555
O8B C14B 1_555 1_555
O9B C14B 1_555 1_555
C1B H1B 1_555 1_555
C2B H2B 1_555 1_555
C3B C1B 1_555 1_555
C4B H3B 1_555 1_555
C5B C1B 1_555 1_555
C6B C2B 1_555 1_555
C7B C3B 1_555 1_555
C12B O5B 1_555 1_555
C14B C6B 1_555 1_555
Fe1B O1B 1_555 1_555
O2_2 Fe1 1_555 1_555
O3B Fe1 1_555 1_555
O7_2 Fe1 1_555 1_555
O7C Fe1 1_555 1_555
O4B Fe2 1_555 1_555
O6_2 Fe2 1_555 1_555
O6B_2 Fe2 1_555 1_555
Fe1_2 O2 1_555 1_555
Fe1B_2 O3 1_555 1_555
Fe2_2 O6 1_555 1_555
Fe1C O7 1_555 1_555
Fe1A O3C 1_555 1_555
Fe1C_2 O2C 1_555 1_555
Fe2A O4C 1_555 1_555
Fe2_3 O6B 1_555 1_555
Fe1A_2 O7B 1_555 1_555
Fe1B_3 O7B 1_555 1_555
O2B Fe1B 1_555 1_555
O3_2 Fe1B 1_555 1_555
O7A Fe1B 1_555 1_555
O7B_2 Fe1B 1_555 1_555
O7 Fe1_2 1_555 1_555
C2 C3 1_555 1_555
C3 C7 1_555 1_555
C4 C5 1_555 1_555
C4 C6 1_555 1_555
C5 C12 1_555 1_555
C10C C11C 1_555 1_555
O6B Fe1B 1_555 1_555
C2B C3B 1_555 1_555
C4B C5B 1_555 1_555
C4B C6B 1_555 1_555
C5B C12B 1_555 1_555
O6_2 Fe1_2 1_555 1_555
O6B_2 Fe1B_3 1_555 1_555

#END
