
#######################################################################
#
#                 Cambridge Crystallographic Data Centre
#                                CCDC 
#
#######################################################################
#
# If this CIF has been generated from an entry in the Cambridge 
# Structural Database, then it will include bibliographic, chemical, 
# crystal, experimental, refinement or atomic coordinate data resulting 
# from the CCDC's data processing and validation procedures.
#
#######################################################################

data_WUDGUZ
_symmetry_cell_setting           triclinic
_symmetry_space_group_name_H-M   'P -1'
_symmetry_Int_Tables_number      2
_space_group_name_Hall           '-P 1'
loop_
_symmetry_equiv_pos_site_id
_symmetry_equiv_pos_as_xyz
1 x,y,z
2 -x,-y,-z
_cell_length_a                   8.4691(6)
_cell_length_b                   10.0107(7)
_cell_length_c                   11.6627(8)
_cell_angle_alpha                113.591(1)
_cell_angle_beta                 101.289(1)
_cell_angle_gamma                98.724(1)
_cell_volume                     859.015
loop_
_atom_site_label
_atom_site_type_symbol
_atom_site_fract_x
_atom_site_fract_y
_atom_site_fract_z
Zn1 Zn 0.38327(3) 0.65553(3) 0.55968(2)
O1 O 0.2869(2) 0.48075(16) 0.58656(15)
O2 O 0.39451(19) 0.29632(17) 0.47312(15)
O3 O 0.3317(2) -0.15590(17) 0.56149(15)
O4 O 0.1488(2) -0.19438(17) 0.66474(16)
O5 O -0.1561(3) 0.1664(2) -0.09833(18)
N1 N 0.2570(2) 0.5360(2) 0.35119(18)
N2 N -0.0695(2) 0.2035(2) 0.11075(19)
H1 H -0.0886 0.1687 0.1664
N3 N -0.4893(2) -0.2341(2) -0.22973(18)
C1 C 0.3059(3) 0.5975(3) 0.2767(2)
H2 H 0.3911 0.6890 0.3172
C2 C 0.2379(3) 0.5332(3) 0.1447(2)
H3 H 0.2767 0.5795 0.0950
C3 C 0.1125(3) 0.4009(3) 0.0832(2)
H4 H 0.0650 0.3545 -0.0088
C4 C 0.0577(3) 0.3374(2) 0.1597(2)
C5 C 0.1347(3) 0.4088(2) 0.2930(2)
H5 H 0.0988 0.3653 0.3454
C6 C -0.1647(3) 0.1242(3) -0.0146(2)
C7 C -0.5220(3) -0.2865(3) -0.1455(2)
H6 H -0.6047 -0.3784 -0.1778
C8 C -0.4409(3) -0.2130(3) -0.0141(2)
H7 H -0.4670 -0.2540 0.0426
C9 C -0.3208(3) -0.0783(3) 0.0346(2)
H8 H -0.2625 -0.0262 0.1248
C10 C -0.2874(3) -0.0211(3) -0.0506(2)
C11 C -0.3743(3) -0.1039(3) -0.1819(2)
H9 H -0.3505 -0.0655 -0.2409
C12 C 0.2212(3) 0.2505(2) 0.5972(2)
C13 C 0.0981(3) 0.2938(2) 0.6565(2)
H10 H 0.0719 0.3861 0.6670
C14 C 0.0140(3) 0.2036(3) 0.7002(2)
H11 H -0.0711 0.2330 0.7395
C15 C 0.0540(3) 0.0696(2) 0.6866(2)
H12 H -0.0043 0.0074 0.7166
C16 C 0.1782(3) 0.0258(2) 0.6296(2)
C17 C 0.2606(3) 0.1157(2) 0.5830(2)
H13 H 0.3436 0.0850 0.5416
C18 C 0.2207(3) -0.1193(2) 0.6176(2)
C19 C 0.3083(3) 0.3492(2) 0.5480(2)
Zn1_2 Zn -0.61673(3) -0.34447(3) -0.44032(2)
Zn1_3 Zn 0.38327(3) -0.34447(3) 0.55968(2)
Zn1A Zn 0.61673(3) 0.34447(3) 0.44032(2)
O2A O 0.60549(19) 0.70368(17) 0.52688(15)
O3_2 O 0.3317(2) 0.84410(17) 0.56149(15)
N3_2 N 0.5107(2) 0.7659(2) 0.77027(18)
loop_
_geom_bond_atom_site_label_1
_geom_bond_atom_site_label_2
_geom_bond_site_symmetry_1
_geom_bond_site_symmetry_2
Zn1 O1 1_555 1_555
O1 C19 1_555 1_555
O2 C19 1_555 1_555
O3 C18 1_555 1_555
O4 C18 1_555 1_555
O5 C6 1_555 1_555
N1 Zn1 1_555 1_555
N2 H1 1_555 1_555
N3 C7 1_555 1_555
C1 N1 1_555 1_555
H2 C1 1_555 1_555
C2 C1 1_555 1_555
H3 C2 1_555 1_555
C3 C2 1_555 1_555
H4 C3 1_555 1_555
C4 N2 1_555 1_555
C5 N1 1_555 1_555
H5 C5 1_555 1_555
C6 N2 1_555 1_555
C7 H6 1_555 1_555
C8 C7 1_555 1_555
H7 C8 1_555 1_555
C9 C8 1_555 1_555
H8 C9 1_555 1_555
C10 C6 1_555 1_555
C11 N3 1_555 1_555
H9 C11 1_555 1_555
C12 C13 1_555 1_555
C13 H10 1_555 1_555
C14 C13 1_555 1_555
H11 C14 1_555 1_555
C15 C14 1_555 1_555
H12 C15 1_555 1_555
C16 C15 1_555 1_555
C17 C12 1_555 1_555
H13 C17 1_555 1_555
C18 C16 1_555 1_555
C19 C12 1_555 1_555
Zn1_2 N3 1_555 1_555
Zn1_3 O3 1_555 1_555
Zn1A O2 1_555 1_555
O2A Zn1 1_555 1_555
O3_2 Zn1 1_555 1_555
N3_2 Zn1 1_555 1_555
C3 C4 1_555 1_555
C4 C5 1_555 1_555
C9 C10 1_555 1_555
C10 C11 1_555 1_555
C16 C17 1_555 1_555

#END
