
#######################################################################
#
#                 Cambridge Crystallographic Data Centre
#                                CCDC 
#
#######################################################################
#
# If this CIF has been generated from an entry in the Cambridge 
# Structural Database, then it will include bibliographic, chemical, 
# crystal, experimental, refinement or atomic coordinate data resulting 
# from the CCDC's data processing and validation procedures.
#
#######################################################################

data_WUDLIQ
_symmetry_cell_setting           monoclinic
_symmetry_space_group_name_H-M   'P 21/n'
_symmetry_Int_Tables_number      14
_space_group_name_Hall           '-P 2yn'
loop_
_symmetry_equiv_pos_site_id
_symmetry_equiv_pos_as_xyz
1 x,y,z
2 1/2+x,1/2-y,1/2+z
3 -x,-y,-z
4 1/2-x,1/2+y,1/2-z
_cell_length_a                   13.9872(3)
_cell_length_b                   19.0810(4)
_cell_length_c                   16.0374(4)
_cell_angle_alpha                90
_cell_angle_beta                 107.2950(10)
_cell_angle_gamma                90
_cell_volume                     4086.7
loop_
_atom_site_label
_atom_site_type_symbol
_atom_site_fract_x
_atom_site_fract_y
_atom_site_fract_z
Sn1 Sn 0.56986(4) 0.33949(3) 0.12760(3)
Sn2 Sn 0.56186(4) 0.24518(3) -0.07884(3)
Sn3 Sn 0.40093(4) 0.21316(3) 0.05922(3)
Sn4 Sn 0.44119(4) 0.26954(3) 0.28374(3)
O1 O 0.5090(4) 0.2654(3) 0.0214(3)
O2 O 0.4672(4) 0.2798(2) 0.1675(3)
O3 O 0.6789(6) 0.3835(4) 0.0393(4)
O4 O 0.5930(4) 0.3532(3) -0.0951(3)
O5 O 0.7974(5) 0.3007(4) -0.1620(4)
O6 O 0.8105(4) 0.2872(3) -0.2939(3)
O7 O 1.0151(4) 0.3687(3) 0.4222(4)
O8 O 0.8606(4) 0.3472(3) 0.4279(3)
O9 O 0.6049(5) 0.4087(3) 0.2525(3)
O10 O 0.5827(4) 0.3296(3) 0.3467(3)
C1 C 0.4789(8) 0.4233(5) 0.0693(6)
H1 H 0.4206 0.4244 0.0892
H2 H 0.4588 0.4177 0.0070
H3 H 0.5154 0.4663 0.0848
C2 C 0.7038(7) 0.2860(5) 0.1901(6)
H4 H 0.6943 0.2576 0.2364
H5 H 0.7562 0.3194 0.2138
H6 H 0.7219 0.2567 0.1485
C3 C 0.4562(8) 0.2535(6) -0.2012(6)
H7 H 0.4567 0.3003 -0.2230
H8 H 0.3909 0.2431 -0.1964
H9 H 0.4721 0.2209 -0.2407
C4 C 0.7114(6) 0.2117(5) -0.0293(6)
H10 H 0.7552 0.2515 -0.0214
H11 H 0.7266 0.1797 -0.0698
H12 H 0.7207 0.1887 0.0257
C5 C 0.4535(7) 0.1175(4) 0.1218(6)
H13 H 0.4782 0.1249 0.1838
H14 H 0.5065 0.0999 0.1010
H15 H 0.3997 0.0842 0.1092
C6 C 0.2656(6) 0.2664(5) 0.0051(6)
H16 H 0.2560 0.3001 0.0464
H17 H 0.2112 0.2335 -0.0086
H18 H 0.2675 0.2901 -0.0472
C7 C 0.3625(7) 0.3576(5) 0.3055(7)
H19 H 0.3381 0.3836 0.2522
H20 H 0.4063 0.3866 0.3493
H21 H 0.3071 0.3428 0.3248
C8 C 0.5186(7) 0.1845(4) 0.3542(6)
H22 H 0.5436 0.1556 0.3163
H23 H 0.4743 0.1576 0.3772
H24 H 0.5737 0.2013 0.4014
C9 C 0.6603(7) 0.3897(5) -0.0414(6)
C10 C 0.7191(6) 0.4397(4) -0.0783(5)
C11 C 0.7131(6) 0.4431(4) -0.1673(5)
C12 C 0.7780(7) 0.4862(5) -0.1903(6)
H25 H 0.7761 0.4878 -0.2488
C13 C 0.8466(8) 0.5278(6) -0.1319(7)
H26 H 0.8893 0.5568 -0.1509
C14 C 0.8514(9) 0.5258(6) -0.0450(7)
H27 H 0.8964 0.5540 -0.0046
C15 C 0.7886(8) 0.4814(5) -0.0191(6)
H28 H 0.7926 0.4792 0.0398
C16 C 0.7642(6) 0.3100(4) -0.2402(5)
C17 C 0.6653(6) 0.3463(4) -0.2801(5)
C18 C 0.6388(6) 0.4043(4) -0.2389(5)
C19 C 0.5432(6) 0.4323(4) -0.2759(5)
H29 H 0.5238 0.4718 -0.2509
C20 C 0.4778(6) 0.4027(5) -0.3481(5)
H30 H 0.4140 0.4217 -0.3707
C21 C 0.5047(6) 0.3453(5) -0.3880(5)
H31 H 0.4599 0.3257 -0.4374
C22 C 0.5991(6) 0.3173(5) -0.3533(5)
H32 H 0.6181 0.2784 -0.3795
C23 C 0.9225(6) 0.3825(4) 0.4013(5)
C24 C 0.8828(6) 0.4407(4) 0.3381(5)
C25 C 0.7982(5) 0.4789(4) 0.3354(5)
C26 C 0.7650(7) 0.5296(4) 0.2708(5)
H33 H 0.7087 0.5562 0.2690
C27 C 0.8147(7) 0.5407(5) 0.2096(6)
H34 H 0.7903 0.5737 0.1658
C28 C 0.9000(7) 0.5035(5) 0.2122(5)
H35 H 0.9341 0.5119 0.1714
C29 C 0.9337(6) 0.4541(4) 0.2759(5)
H36 H 0.9913 0.4288 0.2783
C30 C 0.6147(6) 0.3872(4) 0.3286(5)
C31 C 0.6651(6) 0.4338(4) 0.4039(5)
C32 C 0.7487(6) 0.4750(4) 0.4067(5)
C33 C 0.7899(6) 0.5167(4) 0.4797(5)
H37 H 0.8463 0.5435 0.4828
C34 C 0.7482(7) 0.5189(4) 0.5481(5)
H38 H 0.7763 0.5475 0.5961
C35 C 0.6659(7) 0.4790(4) 0.5450(5)
H39 H 0.6373 0.4809 0.5904
C36 C 0.6253(6) 0.4359(4) 0.4740(5)
H40 H 0.5706 0.4078 0.4729
O7A O 0.5151(4) 0.1313(3) -0.0778(4)
O8A O 0.3606(4) 0.1528(3) -0.0721(3)
O6A O 0.3105(4) 0.2128(3) 0.2061(3)
Sn4A Sn 0.94119(4) 0.23046(3) -0.21626(3)
Sn2A Sn 1.06186(4) 0.25482(3) 0.42116(3)
Sn3A Sn 0.90093(4) 0.28684(3) 0.55922(3)
loop_
_geom_bond_atom_site_label_1
_geom_bond_atom_site_label_2
_geom_bond_site_symmetry_1
_geom_bond_site_symmetry_2
Sn1 O1 1_555 1_555
Sn2 O1 1_555 1_555
Sn3 O1 1_555 1_555
Sn4 O2 1_555 1_555
O2 Sn1 1_555 1_555
O3 Sn1 1_555 1_555
O4 Sn2 1_555 1_555
O5 C16 1_555 1_555
O6 C16 1_555 1_555
O7 C23 1_555 1_555
O8 C23 1_555 1_555
O9 Sn1 1_555 1_555
O10 Sn4 1_555 1_555
C1 Sn1 1_555 1_555
H1 C1 1_555 1_555
H2 C1 1_555 1_555
H3 C1 1_555 1_555
C2 Sn1 1_555 1_555
H4 C2 1_555 1_555
H5 C2 1_555 1_555
H6 C2 1_555 1_555
C3 Sn2 1_555 1_555
H7 C3 1_555 1_555
H8 C3 1_555 1_555
H9 C3 1_555 1_555
C4 Sn2 1_555 1_555
H10 C4 1_555 1_555
H11 C4 1_555 1_555
H12 C4 1_555 1_555
C5 Sn3 1_555 1_555
H13 C5 1_555 1_555
H14 C5 1_555 1_555
H15 C5 1_555 1_555
C6 Sn3 1_555 1_555
H16 C6 1_555 1_555
H17 C6 1_555 1_555
H18 C6 1_555 1_555
C7 Sn4 1_555 1_555
H19 C7 1_555 1_555
H20 C7 1_555 1_555
H21 C7 1_555 1_555
C8 Sn4 1_555 1_555
H22 C8 1_555 1_555
H23 C8 1_555 1_555
H24 C8 1_555 1_555
C9 O3 1_555 1_555
C10 C9 1_555 1_555
C11 C10 1_555 1_555
C12 C11 1_555 1_555
H25 C12 1_555 1_555
C13 C12 1_555 1_555
H26 C13 1_555 1_555
C14 C13 1_555 1_555
H27 C14 1_555 1_555
C15 C10 1_555 1_555
H28 C15 1_555 1_555
C16 C17 1_555 1_555
C17 C18 1_555 1_555
C18 C11 1_555 1_555
C19 C18 1_555 1_555
H29 C19 1_555 1_555
C20 C19 1_555 1_555
H30 C20 1_555 1_555
C21 C20 1_555 1_555
H31 C21 1_555 1_555
C22 C17 1_555 1_555
H32 C22 1_555 1_555
C23 C24 1_555 1_555
C24 C25 1_555 1_555
C25 C26 1_555 1_555
C26 H33 1_555 1_555
C27 C26 1_555 1_555
H34 C27 1_555 1_555
C28 C27 1_555 1_555
H35 C28 1_555 1_555
C29 C24 1_555 1_555
H36 C29 1_555 1_555
C30 O9 1_555 1_555
C31 C30 1_555 1_555
C32 C25 1_555 1_555
C33 C32 1_555 1_555
H37 C33 1_555 1_555
C34 C33 1_555 1_555
H38 C34 1_555 1_555
C35 C34 1_555 1_555
H39 C35 1_555 1_555
C36 C31 1_555 1_555
H40 C36 1_555 1_555
O7A Sn2 1_555 1_555
O8A Sn3 1_555 1_555
O6A Sn4 1_555 1_555
Sn4A O6 1_555 1_555
Sn2A O7 1_555 1_555
Sn3A O8 1_555 1_555
Sn3 O2 1_555 1_555
O4 C9 1_555 1_555
O10 C30 1_555 1_555
C14 C15 1_555 1_555
C21 C22 1_555 1_555
C28 C29 1_555 1_555
C31 C32 1_555 1_555
C35 C36 1_555 1_555

#END
