
#######################################################################
#
#                 Cambridge Crystallographic Data Centre
#                                CCDC 
#
#######################################################################
#
# If this CIF has been generated from an entry in the Cambridge 
# Structural Database, then it will include bibliographic, chemical, 
# crystal, experimental, refinement or atomic coordinate data resulting 
# from the CCDC's data processing and validation procedures.
#
#######################################################################

data_WUDNUG
_symmetry_cell_setting           monoclinic
_symmetry_space_group_name_H-M   'P 21/c'
_symmetry_Int_Tables_number      14
_space_group_name_Hall           '-P 2ybc'
loop_
_symmetry_equiv_pos_site_id
_symmetry_equiv_pos_as_xyz
1 x,y,z
2 -x,1/2+y,1/2-z
3 -x,-y,-z
4 x,1/2-y,1/2+z
_cell_length_a                   13.722(2)
_cell_length_b                   21.840(3)
_cell_length_c                   6.9960(6)
_cell_angle_alpha                90
_cell_angle_beta                 96.60(1)
_cell_angle_gamma                90
_cell_volume                     2082.73
loop_
_atom_site_label
_atom_site_type_symbol
_atom_site_fract_x
_atom_site_fract_y
_atom_site_fract_z
Cu1 Cu 0.54818(5) 0.19938(3) 0.44712(11)
Cl1 Cl 0.64070(8) 0.26120(6) 0.65546(18)
O1 O 0.4408(2) 0.26169(16) 0.3864(5)
O2 O 0.6283(2) 0.12942(16) 0.5171(6)
N1 N 0.4491(3) 0.14750(17) 0.3050(6)
N2 N 0.3647(3) 0.17906(19) 0.2492(7)
H1 H 0.3131 0.1616 0.1928
N3 N 0.2896(3) 0.2721(2) 0.2210(7)
H2 H 0.2876 0.3107 0.2441
H3 H 0.2410 0.2545 0.1541
C1 C 0.3678(3) 0.2396(2) 0.2888(7)
C2 C 0.4540(4) 0.0913(2) 0.2590(7)
H4 H 0.4003 0.0738 0.1856
C3 C 0.5384(3) 0.0533(2) 0.3148(7)
C4 C 0.5349(4) -0.0078(2) 0.2493(8)
H5 H 0.4801 -0.0211 0.1695
C5 C 0.6093(5) -0.0478(3) 0.2996(9)
H6 H 0.6068 -0.0876 0.2522
C6 C 0.6887(4) -0.0279(3) 0.4225(10)
H7 H 0.7396 -0.0551 0.4597
C7 C 0.6945(4) 0.0313(3) 0.4917(9)
H8 H 0.7495 0.0434 0.5732
C8 C 0.6190(4) 0.0738(2) 0.4413(8)
Cu1C Cu 0.54818(5) 0.30062(3) 0.94712(11)
Cl1C Cl 0.64070(8) 0.23880(6) 0.15546(18)
Cu2 Cu 1.05532(5) 0.34278(3) 0.46971(12)
Cl2 Cl 1.20393(9) 0.38499(6) 0.4646(2)
O3 O 0.9971(3) 0.42403(17) 0.4703(6)
O4 O 1.0994(2) 0.26148(15) 0.4755(5)
N4 N 0.9186(3) 0.3183(2) 0.4622(6)
N5 N 0.8594(3) 0.3687(2) 0.4597(7)
H9 H 0.7966 0.3657 0.4518
N6 N 0.8515(4) 0.4727(2) 0.4748(9)
H10 H 0.8795 0.5079 0.4778
H11 H 0.7890 0.4702 0.4746
C9 C 0.9043(4) 0.4226(3) 0.4703(9)
C10 C 0.8834(3) 0.2643(2) 0.4623(7)
H12 H 0.8160 0.2599 0.4632
C11 C 0.9414(4) 0.2107(2) 0.4611(7)
C12 C 0.8929(4) 0.1540(3) 0.4552(8)
H13 H 0.8251 0.1534 0.4553
C13 C 0.9415(4) 0.0998(3) 0.4495(9)
H14 H 0.9077 0.0629 0.4481
C14 C 1.0427(4) 0.1007(3) 0.4457(10)
H15 H 1.0768 0.0641 0.4388
C15 C 1.0922(4) 0.1551(2) 0.4520(9)
H16 H 1.1598 0.1543 0.4482
C16 C 1.0467(4) 0.2114(2) 0.4637(8)
O5 O 0.6611(3) 0.1150(2) 0.9101(7)
H17 H 0.638(5) 0.118(3) 0.793(6)
H18 H 0.647(5) 0.137(3) 0.981(7)
loop_
_geom_bond_atom_site_label_1
_geom_bond_atom_site_label_2
_geom_bond_site_symmetry_1
_geom_bond_site_symmetry_2
Cu1 Cl1 1_555 1_555
Cl1 Cu1C 1_555 1_555
O1 Cu1 1_555 1_555
O2 Cu1 1_555 1_555
N1 Cu1 1_555 1_555
N2 N1 1_555 1_555
H1 N2 1_555 1_555
N3 H2 1_555 1_555
H3 N3 1_555 1_555
C1 O1 1_555 1_555
C2 N1 1_555 1_555
H4 C2 1_555 1_555
C3 C2 1_555 1_555
C4 C3 1_555 1_555
H5 C4 1_555 1_555
C5 C4 1_555 1_555
H6 C5 1_555 1_555
C6 C5 1_555 1_555
H7 C6 1_555 1_555
C7 C6 1_555 1_555
H8 C7 1_555 1_555
C8 O2 1_555 1_555
Cu2 Cl2 1_555 1_555
O3 Cu2 1_555 1_555
O4 Cu2 1_555 1_555
N4 Cu2 1_555 1_555
N5 N4 1_555 1_555
H9 N5 1_555 1_555
N6 H10 1_555 1_555
H11 N6 1_555 1_555
C9 O3 1_555 1_555
C10 N4 1_555 1_555
H12 C10 1_555 1_555
C11 C10 1_555 1_555
C12 C11 1_555 1_555
H13 C12 1_555 1_555
C13 C12 1_555 1_555
H14 C13 1_555 1_555
C14 C13 1_555 1_555
H15 C14 1_555 1_555
C15 C14 1_555 1_555
H16 C15 1_555 1_555
C16 O4 1_555 1_555
O5 H17 1_555 1_555
H18 O5 1_555 1_555
Cl1C Cu1 1_555 1_555
N2 C1 1_555 1_555
N3 C1 1_555 1_555
C3 C8 1_555 1_555
C7 C8 1_555 1_555
N5 C9 1_555 1_555
N6 C9 1_555 1_555
C11 C16 1_555 1_555
C15 C16 1_555 1_555

#END
