
#######################################################################
#
#                 Cambridge Crystallographic Data Centre
#                                CCDC 
#
#######################################################################
#
# If this CIF has been generated from an entry in the Cambridge 
# Structural Database, then it will include bibliographic, chemical, 
# crystal, experimental, refinement or atomic coordinate data resulting 
# from the CCDC's data processing and validation procedures.
#
#######################################################################

data_WUDQIW
_symmetry_cell_setting           orthorhombic
_symmetry_space_group_name_H-M   'P 21 21 21'
_symmetry_Int_Tables_number      19
_space_group_name_Hall           'P 2ac 2ab'
loop_
_symmetry_equiv_pos_site_id
_symmetry_equiv_pos_as_xyz
1 x,y,z
2 1/2-x,-y,1/2+z
3 -x,1/2+y,1/2-z
4 1/2+x,1/2-y,-z
_cell_length_a                   8.3567(17)
_cell_length_b                   9.0434(18)
_cell_length_c                   12.055(2)
_cell_angle_alpha                90
_cell_angle_beta                 90
_cell_angle_gamma                90
_cell_volume                     911.032
loop_
_atom_site_label
_atom_site_type_symbol
_atom_site_fract_x
_atom_site_fract_y
_atom_site_fract_z
Ni1 Ni 0.12879(2) 0.81024(2) 0.680742(17)
O1 O 0.05948(14) 0.59132(13) 0.69370(12)
O2 O 0.1902(2) 1.03129(17) 0.66274(15)
O3 O 0.2171(2) 0.8144(2) 0.83980(12)
N1 N 0.38051(19) 0.58384(15) 0.61242(12)
N2 N 0.34219(18) 0.73128(15) 0.60980(13)
C1 C 0.1421(2) 0.47855(19) 0.71404(14)
C2 C 0.3241(2) 0.4818(2) 0.69830(16)
H1 H 0.3733 0.5090 0.7683
H2 H 0.3601 0.3829 0.6798
C3 C 0.4820(2) 0.5548(2) 0.53035(15)
H3 H 0.5250 0.4621 0.5152
N3 N 0.51345(18) 0.67692(16) 0.47305(12)
O4 O 0.09179(14) 0.35828(13) 0.75230(11)
C4 C 0.4248(2) 0.78168(19) 0.52402(15)
H4 H 0.4220 0.8798 0.5011
H5 H 0.157(5) 1.084(4) 0.707(3)
H6 H 0.276(4) 1.061(3) 0.642(2)
H7 H 0.151(4) 0.823(3) 0.889(3)
H8 H 0.283(5) 0.759(5) 0.866(4)
Ni1C Ni 0.62879(2) 0.68976(2) 0.319258(17)
Ni1B Ni -0.12879(2) 0.31024(2) 0.819258(17)
N3C N 0.01345(18) 0.82308(16) 0.52695(12)
O4B O -0.09179(14) 0.85828(13) 0.74770(11)
Cl1 Cl 0.50189(6) 0.65832(5) 0.94695(4)
loop_
_geom_bond_atom_site_label_1
_geom_bond_atom_site_label_2
_geom_bond_site_symmetry_1
_geom_bond_site_symmetry_2
Ni1 O1 1_555 1_555
O1 C1 1_555 1_555
O2 Ni1 1_555 1_555
O3 Ni1 1_555 1_555
N1 N2 1_555 1_555
N2 Ni1 1_555 1_555
C1 C2 1_555 1_555
C2 N1 1_555 1_555
H1 C2 1_555 1_555
H2 C2 1_555 1_555
C3 N1 1_555 1_555
H3 C3 1_555 1_555
N3 C3 1_555 1_555
O4 C1 1_555 1_555
C4 N2 1_555 1_555
H4 C4 1_555 1_555
H5 O2 1_555 1_555
H6 O2 1_555 1_555
H7 O3 1_555 1_555
H8 O3 1_555 1_555
Ni1C N3 1_555 1_555
Ni1B O4 1_555 1_555
N3C Ni1 1_555 1_555
O4B Ni1 1_555 1_555
N3 C4 1_555 1_555

#END
