
#######################################################################
#
#                 Cambridge Crystallographic Data Centre
#                                CCDC 
#
#######################################################################
#
# If this CIF has been generated from an entry in the Cambridge 
# Structural Database, then it will include bibliographic, chemical, 
# crystal, experimental, refinement or atomic coordinate data resulting 
# from the CCDC's data processing and validation procedures.
#
#######################################################################

data_WUDXUP
_symmetry_cell_setting           monoclinic
_symmetry_space_group_name_H-M   'C 2/c'
_symmetry_Int_Tables_number      15
_space_group_name_Hall           '-C 2yn'
loop_
_symmetry_equiv_pos_site_id
_symmetry_equiv_pos_as_xyz
1 x,y,z
2 -x,y,1/2-z
3 1/2+x,1/2+y,z
4 1/2-x,1/2+y,1/2-z
5 -x,-y,-z
6 x,-y,1/2+z
7 1/2-x,1/2-y,-z
8 1/2+x,1/2-y,1/2+z
_cell_length_a                   4.7167(9)
_cell_length_b                   18.753(4)
_cell_length_c                   22.781(5)
_cell_angle_alpha                90
_cell_angle_beta                 91.07(3)
_cell_angle_gamma                90
_cell_volume                     2014.68
loop_
_atom_site_label
_atom_site_type_symbol
_atom_site_fract_x
_atom_site_fract_y
_atom_site_fract_z
Pb1 Pb 0.0000 0.26552(3) 0.2500
Pb2 Pb 0.04842(8) 0.27865(2) 0.069445(16)
P1 P 0.5428(5) 0.35410(13) 0.15678(10)
O1 O 0.3028(15) 0.2987(4) 0.1632(3)
O2 O 0.7548(15) 0.3528(4) 0.2077(3)
O3 O 0.6774(16) 0.3449(4) 0.0974(3)
O4 O 1.3403(17) 0.6916(4) 0.1318(3)
O5 O 1.181(2) 0.6866(5) 0.0405(4)
C1 C 0.380(2) 0.4425(5) 0.1555(5)
H1 H 0.2200 0.4426 0.1267
H2 H 0.3021 0.4529 0.1946
C2 C 0.589(2) 0.5004(5) 0.1394(5)
C3 C 0.641(3) 0.5172(7) 0.0808(6)
H3 H 0.5386 0.4926 0.0507
C4 C 0.834(3) 0.5680(6) 0.0656(5)
H4 H 0.8693 0.5769 0.0253
C5 C 0.742(2) 0.5378(6) 0.1823(5)
H5 H 0.7134 0.5272 0.2225
C6 C 0.937(2) 0.5905(6) 0.1675(5)
H6 H 1.0410 0.6151 0.1973
C7 C 0.978(2) 0.6068(5) 0.1088(5)
C8 C 1.178(2) 0.6648(5) 0.0937(5)
Pb1_2 Pb 1.0000 0.26552(3) 0.2500
Pb1_3 Pb -1.0000 0.26552(3) 0.2500
Pb2A Pb -0.04842(8) 0.27865(2) 0.430555(16)
Pb2_2 Pb 1.04842(8) 0.27865(2) 0.069445(16)
Pb2B Pb 1.54842(8) 0.77865(2) 0.069445(16)
Pb2D Pb 0.95158(8) 0.72135(2) -0.069445(16)
Pb2A_2 Pb -1.04842(8) 0.27865(2) 0.430555(16)
Pb2C Pb -1.54842(8) 0.77865(2) 0.430555(16)
Pb2E Pb -0.95158(8) 0.72135(2) 0.569445(16)
P1A P -0.5428(5) 0.35410(13) 0.34322(10)
O1A O -0.3028(15) 0.2987(4) 0.3368(3)
O2A O -0.7548(15) 0.3528(4) 0.2923(3)
O2_2 O -0.2452(15) 0.3528(4) 0.2077(3)
O2A_2 O 0.2452(15) 0.3528(4) 0.2923(3)
O3A O -0.6774(16) 0.3449(4) 0.4026(3)
O3_2 O -0.3226(16) 0.3449(4) 0.0974(3)
O3A_2 O 0.3226(16) 0.3449(4) 0.4026(3)
O4A O -1.3403(17) 0.6916(4) 0.3682(3)
O4B O -0.1597(17) 0.1916(4) 0.1318(3)
O4C O 0.1597(17) 0.1916(4) 0.3682(3)
O5A O -1.181(2) 0.6866(5) 0.4595(4)
O5B O -0.319(2) 0.1866(5) 0.0405(4)
O5D O -0.181(2) 0.3134(5) -0.0405(4)
O5C O 0.319(2) 0.1866(5) 0.4595(4)
O5E O 0.181(2) 0.3134(5) 0.5405(4)
C1A C -0.380(2) 0.4425(5) 0.3445(5)
H1A H -0.2200 0.4426 0.3733
H2A H -0.3021 0.4529 0.3054
C2A C -0.589(2) 0.5004(5) 0.3606(5)
C3A C -0.641(3) 0.5172(7) 0.4192(6)
H3A H -0.5386 0.4926 0.4493
C4A C -0.834(3) 0.5680(6) 0.4344(5)
H4A H -0.8693 0.5769 0.4747
C5A C -0.742(2) 0.5378(6) 0.3177(5)
H5A H -0.7134 0.5272 0.2775
C6A C -0.937(2) 0.5905(6) 0.3325(5)
H6A H -1.0410 0.6151 0.3027
C7A C -0.978(2) 0.6068(5) 0.3912(5)
C8A C -1.178(2) 0.6648(5) 0.4063(5)
loop_
_geom_bond_atom_site_label_1
_geom_bond_atom_site_label_2
_geom_bond_site_symmetry_1
_geom_bond_site_symmetry_2
Pb1 O1 1_555 1_555
Pb2 O1 1_555 1_555
P1 O1 1_555 1_555
O2 P1 1_555 1_555
O3 P1 1_555 1_555
O4 C8 1_555 1_555
O5 C8 1_555 1_555
C1 P1 1_555 1_555
H1 C1 1_555 1_555
H2 C1 1_555 1_555
C2 C1 1_555 1_555
C3 C2 1_555 1_555
H3 C3 1_555 1_555
C4 C3 1_555 1_555
H4 C4 1_555 1_555
C5 C2 1_555 1_555
H5 C5 1_555 1_555
C6 C5 1_555 1_555
H6 C6 1_555 1_555
C7 C4 1_555 1_555
C8 C7 1_555 1_555
Pb1_2 O2 1_555 1_555
Pb1_3 O2A 1_555 1_555
Pb2A O1A 1_555 1_555
Pb2_2 O3 1_555 1_555
Pb2B O4 1_555 1_555
Pb2D O5 1_555 1_555
Pb2A_2 O3A 1_555 1_555
Pb2C O4A 1_555 1_555
Pb2E O5A 1_555 1_555
P1A O1A 1_555 1_555
O1A Pb1 1_555 1_555
O2A P1A 1_555 1_555
O2_2 Pb1 1_555 1_555
O2A_2 Pb1 1_555 1_555
O3A P1A 1_555 1_555
O3_2 Pb2 1_555 1_555
O3A_2 Pb2A 1_555 1_555
O4A C8A 1_555 1_555
O4B Pb2 1_555 1_555
O4C Pb2A 1_555 1_555
O5A Pb2C 1_555 1_555
O5B Pb2 1_555 1_555
O5D Pb2 1_555 1_555
O5C Pb2A 1_555 1_555
O5E Pb2A 1_555 1_555
C1A P1A 1_555 1_555
H1A C1A 1_555 1_555
H2A C1A 1_555 1_555
C2A C1A 1_555 1_555
C3A C2A 1_555 1_555
H3A C3A 1_555 1_555
C4A C3A 1_555 1_555
H4A C4A 1_555 1_555
C5A C2A 1_555 1_555
H5A C5A 1_555 1_555
C6A C5A 1_555 1_555
H6A C6A 1_555 1_555
C7A C4A 1_555 1_555
C8A O5A 1_555 1_555
O5 Pb2B 1_555 1_555
C6 C7 1_555 1_555
C6A C7A 1_555 1_555
C7A C8A 1_555 1_555

#END
