
#######################################################################
#
#                 Cambridge Crystallographic Data Centre
#                                CCDC 
#
#######################################################################
#
# If this CIF has been generated from an entry in the Cambridge 
# Structural Database, then it will include bibliographic, chemical, 
# crystal, experimental, refinement or atomic coordinate data resulting 
# from the CCDC's data processing and validation procedures.
#
#######################################################################

data_WUFBUV
_symmetry_cell_setting           triclinic
_symmetry_space_group_name_H-M   'P -1'
_symmetry_Int_Tables_number      2
_space_group_name_Hall           '-P 1'
loop_
_symmetry_equiv_pos_site_id
_symmetry_equiv_pos_as_xyz
1 x,y,z
2 -x,-y,-z
_cell_length_a                   6.9533(9)
_cell_length_b                   9.8054(13)
_cell_length_c                   15.248(2)
_cell_angle_alpha                94.608(2)
_cell_angle_beta                 92.328(2)
_cell_angle_gamma                105.840(2)
_cell_volume                     994.775
loop_
_atom_site_label
_atom_site_type_symbol
_atom_site_fract_x
_atom_site_fract_y
_atom_site_fract_z
Zn1 Zn 0.87595(3) 0.30406(2) 0.130063(13)
O1 O 0.83029(19) 0.08020(13) 0.10562(9)
O2 O 1.1374(2) 0.05784(14) 0.12825(11)
O3 O 0.9337(2) -0.47799(13) 0.14050(9)
O4 O 0.7467(2) -0.44625(14) 0.02571(10)
O5 O 0.2724(3) 0.03905(17) 0.47303(11)
O6 O 0.7237(2) 0.46642(17) 0.57638(10)
O7 O 0.6457(2) 0.27895(14) 0.04258(9)
H1 H 0.6346 0.2201 -0.0027
H2 H 0.6486 0.3584 0.0234
O8 O 1.1728(2) 0.33311(14) 0.13028(9)
H3 H 1.2228 0.3692 0.0847
H4 H 1.1838 0.2486 0.1263
N1 N 0.7624(2) 0.28488(16) 0.25157(10)
N2 N 0.3624(2) 0.15120(17) 0.52230(11)
N3 N 0.5861(2) 0.34949(18) 0.57337(10)
C1 C 0.9548(3) 0.00738(19) 0.10837(12)
C2 C 0.8725(3) -0.14957(19) 0.08512(13)
H7 H 0.7538 -0.1818 0.0499
C3 C 0.9577(3) -0.2444(2) 0.11144(13)
H8 H 1.0783 -0.2123 0.1454
C4 C 0.8718(3) -0.40162(19) 0.08987(13)
C5 C 0.5678(3) 0.2222(2) 0.25938(13)
H9 H 0.4863 0.1851 0.2083
C6 C 0.4828(3) 0.2099(2) 0.33903(13)
H10 H 0.3472 0.1647 0.3417
C7 C 0.6031(3) 0.2663(2) 0.41578(12)
C8 C 0.8044(3) 0.3333(2) 0.40783(12)
H11 H 0.8886 0.3735 0.4577
C9 C 0.8777(3) 0.3394(2) 0.32554(13)
H12 H 1.0130 0.3833 0.3209
C10 C 0.5201(3) 0.2559(2) 0.50196(12)
C11 C 0.2916(3) 0.1890(2) 0.61056(13)
C12 C 0.4875(3) 0.2931(2) 0.65419(12)
C13 C 0.2081(4) 0.0563(2) 0.65619(16)
H13 H 0.0932 -0.0042 0.6219
H14 H 0.1695 0.0823 0.7135
H15 H 0.3084 0.0066 0.6622
C14 C 0.1283(3) 0.2608(3) 0.59045(17)
H16 H 0.1829 0.3431 0.5598
H17 H 0.0781 0.2893 0.6446
H18 H 0.0211 0.1952 0.5543
C15 C 0.6281(4) 0.2196(3) 0.69724(15)
H19 H 0.6445 0.1440 0.6568
H20 H 0.5726 0.1812 0.7496
H21 H 0.7560 0.2873 0.7125
C16 C 0.4594(4) 0.4141(3) 0.71589(16)
H22 H 0.5880 0.4751 0.7379
H23 H 0.3851 0.3761 0.7643
H24 H 0.3873 0.4678 0.6846
Zn1_2 Zn 0.87595(3) -0.69594(2) 0.130063(13)
O3_2 O 0.9337(2) 0.52201(13) 0.14050(9)
O9 O 0.5696(2) 0.08210(15) 0.90668(10)
H5 H 0.6556 0.0355 0.9006
H6 H 0.4523 0.0252 0.9022
loop_
_geom_bond_atom_site_label_1
_geom_bond_atom_site_label_2
_geom_bond_site_symmetry_1
_geom_bond_site_symmetry_2
Zn1 O1 1_555 1_555
O1 C1 1_555 1_555
O2 C1 1_555 1_555
O3 C4 1_555 1_555
O4 C4 1_555 1_555
O5 N2 1_555 1_555
O6 N3 1_555 1_555
O7 Zn1 1_555 1_555
H1 O7 1_555 1_555
H2 O7 1_555 1_555
O8 Zn1 1_555 1_555
H3 O8 1_555 1_555
H4 O8 1_555 1_555
O9 H5 1_555 1_555
H6 O9 1_555 1_555
N1 Zn1 1_555 1_555
N2 C10 1_555 1_555
N3 C10 1_555 1_555
C1 C2 1_555 1_555
C2 H7 1_555 1_555
C3 C2 1_555 1_555
H8 C3 1_555 1_555
C4 C3 1_555 1_555
C5 N1 1_555 1_555
H9 C5 1_555 1_555
C6 C5 1_555 1_555
H10 C6 1_555 1_555
C7 C6 1_555 1_555
C8 C7 1_555 1_555
H11 C8 1_555 1_555
C9 N1 1_555 1_555
H12 C9 1_555 1_555
C10 C7 1_555 1_555
C11 N2 1_555 1_555
C12 N3 1_555 1_555
C13 C11 1_555 1_555
H13 C13 1_555 1_555
H14 C13 1_555 1_555
H15 C13 1_555 1_555
C14 C11 1_555 1_555
H16 C14 1_555 1_555
H17 C14 1_555 1_555
H18 C14 1_555 1_555
C15 C12 1_555 1_555
H19 C15 1_555 1_555
H20 C15 1_555 1_555
H21 C15 1_555 1_555
C16 C12 1_555 1_555
H22 C16 1_555 1_555
H23 C16 1_555 1_555
H24 C16 1_555 1_555
Zn1_2 O3 1_555 1_555
O3_2 Zn1 1_555 1_555
C8 C9 1_555 1_555
C11 C12 1_555 1_555

#END
