
#######################################################################
#
#                 Cambridge Crystallographic Data Centre
#                                CCDC 
#
#######################################################################
#
# If this CIF has been generated from an entry in the Cambridge 
# Structural Database, then it will include bibliographic, chemical, 
# crystal, experimental, refinement or atomic coordinate data resulting 
# from the CCDC's data processing and validation procedures.
#
#######################################################################

data_WUFBOP
_symmetry_cell_setting           triclinic
_symmetry_space_group_name_H-M   'P -1'
_symmetry_Int_Tables_number      2
_space_group_name_Hall           '-P 1'
loop_
_symmetry_equiv_pos_site_id
_symmetry_equiv_pos_as_xyz
1 x,y,z
2 -x,-y,-z
_cell_length_a                   7.0518(2)
_cell_length_b                   12.2692(2)
_cell_length_c                   13.8583(3)
_cell_angle_alpha                115.7260(10)
_cell_angle_beta                 93.2440(10)
_cell_angle_gamma                98.3610(10)
_cell_volume                     1059.01
loop_
_atom_site_label
_atom_site_type_symbol
_atom_site_fract_x
_atom_site_fract_y
_atom_site_fract_z
Cu1 Cu 0.31244(3) 0.804175(17) 0.571590(15)
Na1 Na 0.34526(10) 0.46357(6) 0.08156(5)
Na2 Na 0.13133(12) 0.14646(7) 0.01788(6)
N1 N 0.3408(2) 0.65558(12) 0.44272(11)
N2 N 0.3972(2) 0.65128(13) 0.34876(11)
N3 N 0.3878(2) 0.53686(13) 0.28084(12)
N4 N 0.3281(2) 0.46175(13) 0.32586(11)
N5 N 0.2445(2) 0.49937(13) 0.49936(11)
H1 H 0.2146 0.4215 0.4794
N6 N 0.2761(2) 0.70113(12) 0.64709(11)
N7 N 0.2393(2) 0.74103(14) 0.75103(12)
N8 N 0.1799(2) 0.64510(14) 0.76579(12)
N9 N 0.1731(2) 0.54035(14) 0.67482(12)
N10 N 0.4271(2) 0.95908(12) 0.69892(11)
N11 N 0.5128(2) 0.96804(13) 0.79293(12)
N12 N 0.5805(2) 1.08308(14) 0.85690(12)
N13 N 0.5421(2) 1.15429(13) 0.80868(11)
N14 N 0.3863(2) 1.10961(13) 0.63678(11)
H2 H 0.4078 1.1867 0.6527
N15 N 0.25086(19) 0.90512(12) 0.50052(10)
N16 N 0.1531(2) 0.86172(13) 0.39986(11)
N17 N 0.1394(2) 0.95345(14) 0.37920(12)
N18 N 0.2257(2) 1.06105(13) 0.46443(12)
C1 C 0.3023(2) 0.53806(14) 0.42484(13)
C2 C 0.2321(2) 0.57845(15) 0.60389(13)
C3 C 0.4493(2) 1.07471(14) 0.71219(12)
C4 C 0.2905(2) 1.02733(14) 0.53701(13)
O1 O 0.16537(19) 0.62437(12) 0.10171(11)
H3 H 0.2435 0.6915 0.1410
H4 H 0.0944 0.6234 0.1490
O2 O 0.03677(19) 0.33756(12) 0.05747(10)
H5 H -0.0250 0.3539 0.1115
H6 H -0.0276 0.3540 0.0134
O3 O 0.4688(2) 0.27884(15) 0.05666(12)
H7 H 0.5591 0.3079 0.1094
H8 H 0.5136 0.2269 0.0038
O4 O 0.37106(19) 0.38527(12) -0.10498(10)
H9 H 0.2868 0.3761 -0.1556
H10 H 0.3932 0.3124 -0.1297
O7 O 0.2231(2) 0.19884(13) 0.21049(12)
H15 H 0.3210 0.1648 0.2068
H16 H 0.2769 0.2745 0.2419
O8 O -0.1985(2) 0.05664(12) 0.03229(11)
H17 H -0.2327 0.0967 0.0939
H18 H -0.2580 0.0720 -0.0141
O9 O 0.0497(3) 0.0531(2) -0.17368(14)
H19 H 0.0779 0.1292 -0.1578
H20 H -0.0078 0.0557 -0.2280
Na1A Na 0.65474(10) 0.53643(6) -0.08156(5)
Na2A Na -0.13133(12) -0.14646(7) -0.01788(6)
O4A O 0.62894(19) 0.61473(12) 0.10498(10)
O8A O 0.1985(2) -0.05664(12) -0.03229(11)
O5 O -0.0839(2) 0.63851(13) 0.25511(11)
H11 H -0.0119 0.7056 0.3004
H12 H -0.1062 0.5927 0.2864
O6 O 0.0911(2) 0.24394(13) 0.42267(12)
H13 H 0.1249 0.2210 0.3599
H14 H 0.1384 0.2042 0.4522
loop_
_geom_bond_atom_site_label_1
_geom_bond_atom_site_label_2
_geom_bond_site_symmetry_1
_geom_bond_site_symmetry_2
Cu1 N1 1_555 1_555
Na1 N3 1_555 1_555
Na2 O2 1_555 1_555
N1 N2 1_555 1_555
N2 N3 1_555 1_555
N3 N4 1_555 1_555
N4 C1 1_555 1_555
N5 H1 1_555 1_555
N6 Cu1 1_555 1_555
N7 N6 1_555 1_555
N8 N7 1_555 1_555
N9 N8 1_555 1_555
N10 Cu1 1_555 1_555
N11 N10 1_555 1_555
N12 N11 1_555 1_555
N13 N12 1_555 1_555
N14 H2 1_555 1_555
N15 Cu1 1_555 1_555
N16 N15 1_555 1_555
N17 N16 1_555 1_555
N18 N17 1_555 1_555
C1 N1 1_555 1_555
C2 N5 1_555 1_555
C3 N10 1_555 1_555
C4 N14 1_555 1_555
O1 Na1 1_555 1_555
H3 O1 1_555 1_555
H4 O1 1_555 1_555
O2 Na1 1_555 1_555
H5 O2 1_555 1_555
H6 O2 1_555 1_555
O3 Na1 1_555 1_555
H7 O3 1_555 1_555
H8 O3 1_555 1_555
O4 Na1 1_555 1_555
H9 O4 1_555 1_555
H10 O4 1_555 1_555
O5 H11 1_555 1_555
H12 O5 1_555 1_555
O6 H13 1_555 1_555
H14 O6 1_555 1_555
O7 Na2 1_555 1_555
H15 O7 1_555 1_555
H16 O7 1_555 1_555
O8 Na2 1_555 1_555
H17 O8 1_555 1_555
H18 O8 1_555 1_555
O9 Na2 1_555 1_555
H19 O9 1_555 1_555
H20 O9 1_555 1_555
Na1A O4 1_555 1_555
Na2A O8 1_555 1_555
O4A Na1 1_555 1_555
O8A Na2 1_555 1_555
Na2 O3 1_555 1_555
N5 C1 1_555 1_555
N6 C2 1_555 1_555
N9 C2 1_555 1_555
N13 C3 1_555 1_555
N14 C3 1_555 1_555
N15 C4 1_555 1_555
N18 C4 1_555 1_555
Na1A O4A 1_555 1_555
Na2A O8A 1_555 1_555

#END
