
#######################################################################
#
#                 Cambridge Crystallographic Data Centre
#                                CCDC 
#
#######################################################################
#
# If this CIF has been generated from an entry in the Cambridge 
# Structural Database, then it will include bibliographic, chemical, 
# crystal, experimental, refinement or atomic coordinate data resulting 
# from the CCDC's data processing and validation procedures.
#
#######################################################################

data_WUFFEJ
_symmetry_cell_setting           monoclinic
_symmetry_space_group_name_H-M   'C 2/c'
_symmetry_Int_Tables_number      15
_space_group_name_Hall           '-C 2yn'
loop_
_symmetry_equiv_pos_site_id
_symmetry_equiv_pos_as_xyz
1 x,y,z
2 -x,y,1/2-z
3 1/2+x,1/2+y,z
4 1/2-x,1/2+y,1/2-z
5 -x,-y,-z
6 x,-y,1/2+z
7 1/2-x,1/2-y,-z
8 1/2+x,1/2-y,1/2+z
_cell_length_a                   23.130(5)
_cell_length_b                   13.315(3)
_cell_length_c                   16.431(3)
_cell_angle_alpha                90
_cell_angle_beta                 112.62(3)
_cell_angle_gamma                90
_cell_volume                     4671.09
loop_
_atom_site_label
_atom_site_type_symbol
_atom_site_fract_x
_atom_site_fract_y
_atom_site_fract_z
O1 O 0.0000 0.3003(4) 0.7500
Pb1 Pb 0.923086(6) -0.025062(9) 0.152761(8)
N1 N 1.06813(14) -0.0376(2) 0.08626(18)
N2 N 0.82417(13) -0.0970(2) 0.17049(17)
C1 C 1.11188(15) -0.2006(2) 0.1161(2)
O2 O 1.04114(12) -0.13519(18) 0.17802(17)
O3 O 1.00876(12) 0.11011(17) 0.13774(17)
N3 N 0.88046(13) -0.1966(2) 0.07463(18)
C2 C 1.11889(18) -0.2952(3) 0.1560(2)
C3 C 1.19408(18) -0.3403(3) 0.0938(3)
O4 O 1.15745(11) -0.06454(18) -0.04270(14)
N4 N 1.09678(13) -0.0132(2) 0.02798(17)
O5 O 1.16259(13) 0.3711(2) 0.37047(17)
C4 C 1.13345(15) -0.0821(2) 0.0166(2)
N5 N 1.09118(15) 0.1418(2) 0.2646(2)
C5 C 0.83600(15) -0.2450(2) 0.0932(2)
C6 C 1.07101(16) -0.1242(2) 0.1288(2)
C7 C 1.04578(17) 0.1733(3) 0.1929(2)
C8 C 0.98803(17) 0.3154(3) 0.0981(2)
C9 C 0.97845(19) 0.4170(3) 0.0822(3)
C10 C 1.14561(15) -0.1776(2) 0.0635(2)
C11 C 0.79604(18) -0.0505(3) 0.2172(2)
C12 C 1.07517(15) 0.3513(2) 0.2333(2)
C13 C 1.12538(16) 0.3162(3) 0.3140(2)
C14 C 1.03628(15) 0.2814(2) 0.1740(2)
N6 N 1.12885(16) 0.2147(2) 0.3216(2)
C15 C 0.90809(17) -0.2449(3) 0.0284(2)
C16 C 0.81838(16) -0.3452(2) 0.0667(2)
C17 C 0.74873(18) -0.0935(3) 0.2385(2)
C18 C 1.18744(17) -0.2481(3) 0.0547(2)
C19 C 0.75704(16) -0.2408(3) 0.1596(2)
C20 C 0.73921(18) -0.3412(3) 0.1288(3)
C21 C 1.1590(2) -0.3647(3) 0.1435(3)
C22 C 0.80519(15) -0.1923(2) 0.1426(2)
C23 C 1.0170(2) 0.4854(3) 0.1415(3)
C24 C 0.72924(18) -0.1878(3) 0.2096(3)
C25 C 0.8942(2) -0.3440(3) -0.0001(3)
C26 C 0.7685(2) -0.3914(3) 0.0854(3)
C27 C 0.84973(19) -0.3936(3) 0.0200(3)
H1 H 0.7294(18) -0.055(3) 0.271(2)
C28 C 1.06511(18) 0.4537(2) 0.2166(2)
H2 H 0.7617(17) -0.453(3) 0.071(2)
H3 H 0.9402(16) -0.207(2) 0.016(2)
H4 H 0.9618(16) 0.272(3) 0.060(2)
H5 H 1.0959(17) -0.309(3) 0.195(2)
H6 H 1.2092(17) -0.233(3) 0.027(2)
H7 H 0.6967(18) -0.225(3) 0.220(2)
H8 H 1.1603(17) -0.427(3) 0.170(2)
H9 H 1.2222(18) -0.389(3) 0.088(2)
H10 H 0.9126(18) -0.374(3) -0.032(3)
H11 H 1.151(2) 0.190(3) 0.366(3)
H12 H 0.9454(18) 0.436(3) 0.028(2)
H13 H 0.8389(19) -0.463(3) 0.002(3)
H14 H 0.8107(18) 0.016(3) 0.235(3)
H15 H 1.047(2) 0.013(3) 0.097(3)
H16 H 1.0989(16) 0.503(2) 0.263(2)
H17 H 1.0053(19) 0.552(3) 0.131(3)
H18 H 0.704(2) -0.369(3) 0.138(3)
Pb1A Pb 1.076914(6) -0.025062(9) 0.347239(8)
Pb1D Pb 1.076914(6) 0.025062(9) -0.152761(8)
Pb1E Pb 0.923086(6) 0.025062(9) 0.652761(8)
N1A N 0.93187(14) -0.0376(2) 0.41374(18)
N2A N 1.17583(13) -0.0970(2) 0.32951(17)
C1A C 0.88812(15) -0.2006(2) 0.3839(2)
O2A O 0.95886(12) -0.13519(18) 0.32198(17)
O3A O 0.99124(12) 0.11011(17) 0.36226(17)
N3A N 1.11954(13) -0.1966(2) 0.42537(18)
C2A C 0.88111(18) -0.2952(3) 0.3440(2)
C3A C 0.80592(18) -0.3403(3) 0.4062(3)
O4A O 0.84255(11) -0.06454(18) 0.54270(14)
O4D O 0.84255(11) 0.06454(18) 0.04270(14)
O4E O 1.15745(11) 0.06454(18) 0.45730(14)
N4A N 0.90322(13) -0.0132(2) 0.47202(17)
O5A O 0.83741(13) 0.3711(2) 0.12953(17)
C4A C 0.86655(15) -0.0821(2) 0.4834(2)
N5A N 0.90882(15) 0.1418(2) 0.2354(2)
C5A C 1.16400(15) -0.2450(2) 0.4068(2)
C6A C 0.92899(16) -0.1242(2) 0.3712(2)
C7A C 0.95422(17) 0.1733(3) 0.3071(2)
C8A C 1.01197(17) 0.3154(3) 0.4019(2)
C9A C 1.02155(19) 0.4170(3) 0.4178(3)
C10A C 0.85439(15) -0.1776(2) 0.4365(2)
C11A C 1.20396(18) -0.0505(3) 0.2828(2)
C12A C 0.92483(15) 0.3513(2) 0.2667(2)
C13A C 0.87462(16) 0.3162(3) 0.1860(2)
C14A C 0.96372(15) 0.2814(2) 0.3260(2)
N6A N 0.87115(16) 0.2147(2) 0.1784(2)
C15A C 1.09191(17) -0.2449(3) 0.4716(2)
C16A C 1.18162(16) -0.3452(2) 0.4333(2)
C17A C 1.25127(18) -0.0935(3) 0.2615(2)
C18A C 0.81256(17) -0.2481(3) 0.4453(2)
C19A C 1.24296(16) -0.2408(3) 0.3404(2)
C20A C 1.26079(18) -0.3412(3) 0.3712(3)
C21A C 0.8410(2) -0.3647(3) 0.3565(3)
C22A C 1.19481(15) -0.1923(2) 0.3574(2)
C23A C 0.9830(2) 0.4854(3) 0.3585(3)
C24A C 1.27076(18) -0.1878(3) 0.2904(3)
C25A C 1.1058(2) -0.3440(3) 0.5001(3)
C26A C 1.2315(2) -0.3914(3) 0.4146(3)
C27A C 1.15027(19) -0.3936(3) 0.4800(3)
H1A H 1.2706(18) -0.055(3) 0.229(2)
C28A C 0.93489(18) 0.4537(2) 0.2834(2)
H2A H 1.2383(17) -0.453(3) 0.429(2)
H3A H 1.0598(16) -0.207(2) 0.484(2)
H4A H 1.0382(16) 0.272(3) 0.440(2)
H5A H 0.9041(17) -0.309(3) 0.305(2)
H6A H 0.7908(17) -0.233(3) 0.473(2)
H7A H 1.3033(18) -0.225(3) 0.280(2)
H8A H 0.8397(17) -0.427(3) 0.330(2)
H9A H 0.7778(18) -0.389(3) 0.412(2)
H10A H 1.0874(18) -0.374(3) 0.532(3)
H11A H 0.849(2) 0.190(3) 0.134(3)
H12A H 1.0546(18) 0.436(3) 0.472(2)
H13A H 1.1611(19) -0.463(3) 0.498(3)
H14A H 1.1893(18) 0.016(3) 0.265(3)
H15A H 0.953(2) 0.013(3) 0.403(3)
H16A H 0.9011(16) 0.503(2) 0.237(2)
H17A H 0.9947(19) 0.552(3) 0.369(3)
H18A H 1.296(2) -0.369(3) 0.362(3)
loop_
_geom_bond_atom_site_label_1
_geom_bond_atom_site_label_2
_geom_bond_site_symmetry_1
_geom_bond_site_symmetry_2
Pb1 N2 1_555 1_555
N1 N4 1_555 1_555
N2 C11 1_555 1_555
C1 C2 1_555 1_555
O2 Pb1 1_555 1_555
O3 Pb1 1_555 1_555
N3 Pb1 1_555 1_555
C2 C21 1_555 1_555
C3 C18 1_555 1_555
O4 C4 1_555 1_555
N4 C4 1_555 1_555
O5 C13 1_555 1_555
C4 C10 1_555 1_555
N5 C7 1_555 1_555
C5 N3 1_555 1_555
C6 N1 1_555 1_555
C7 O3 1_555 1_555
C8 C9 1_555 1_555
C9 C23 1_555 1_555
C10 C1 1_555 1_555
C11 C17 1_555 1_555
C12 C13 1_555 1_555
C13 N6 1_555 1_555
C14 C7 1_555 1_555
N6 N5 1_555 1_555
C15 N3 1_555 1_555
C16 C5 1_555 1_555
C17 C24 1_555 1_555
C18 C10 1_555 1_555
C19 C20 1_555 1_555
C20 C26 1_555 1_555
C21 C3 1_555 1_555
C22 N2 1_555 1_555
C23 C28 1_555 1_555
C24 C19 1_555 1_555
C25 C15 1_555 1_555
C26 C16 1_555 1_555
C27 C16 1_555 1_555
H1 C17 1_555 1_555
C28 C12 1_555 1_555
H2 C26 1_555 1_555
H3 C15 1_555 1_555
H4 C8 1_555 1_555
H5 C2 1_555 1_555
H6 C18 1_555 1_555
H7 C24 1_555 1_555
H8 C21 1_555 1_555
H9 C3 1_555 1_555
H10 C25 1_555 1_555
H11 N6 1_555 1_555
H12 C9 1_555 1_555
H13 C27 1_555 1_555
H14 C11 1_555 1_555
H15 N1 1_555 1_555
H16 C28 1_555 1_555
H17 C23 1_555 1_555
H18 C20 1_555 1_555
Pb1A O2 1_555 1_555
Pb1D O4 1_555 1_555
Pb1E O4A 1_555 1_555
N1A N4A 1_555 1_555
N2A Pb1A 1_555 1_555
C1A C2A 1_555 1_555
O2A Pb1 1_555 1_555
O3A Pb1A 1_555 1_555
N3A Pb1A 1_555 1_555
C2A C21A 1_555 1_555
C3A C18A 1_555 1_555
O4A C4A 1_555 1_555
O4D Pb1 1_555 1_555
O4E Pb1A 1_555 1_555
N4A C4A 1_555 1_555
O5A C13A 1_555 1_555
C4A C10A 1_555 1_555
N5A Pb1 1_555 1_555
C5A N3A 1_555 1_555
C6A N1A 1_555 1_555
C7A O3A 1_555 1_555
C8A C9A 1_555 1_555
C9A C23A 1_555 1_555
C10A C1A 1_555 1_555
C11A N2A 1_555 1_555
C12A C13A 1_555 1_555
C13A N6A 1_555 1_555
C14A C7A 1_555 1_555
N6A N5A 1_555 1_555
C15A N3A 1_555 1_555
C16A C5A 1_555 1_555
C17A C11A 1_555 1_555
C18A C10A 1_555 1_555
C19A C20A 1_555 1_555
C20A C26A 1_555 1_555
C21A C3A 1_555 1_555
C22A N2A 1_555 1_555
C23A C28A 1_555 1_555
C24A C17A 1_555 1_555
C25A C15A 1_555 1_555
C26A C16A 1_555 1_555
C27A C16A 1_555 1_555
H1A C17A 1_555 1_555
C28A C12A 1_555 1_555
H2A C26A 1_555 1_555
H3A C15A 1_555 1_555
H4A C8A 1_555 1_555
H5A C2A 1_555 1_555
H6A C18A 1_555 1_555
H7A C24A 1_555 1_555
H8A C21A 1_555 1_555
H9A C3A 1_555 1_555
H10A C25A 1_555 1_555
H11A N6A 1_555 1_555
H12A C9A 1_555 1_555
H13A C27A 1_555 1_555
H14A C11A 1_555 1_555
H15A N1A 1_555 1_555
H16A C28A 1_555 1_555
H17A C23A 1_555 1_555
H18A C20A 1_555 1_555
C1 C6 1_555 1_555
O2 C6 1_555 1_555
N5 Pb1A 1_555 1_555
C5 C22 1_555 1_555
C8 C14 1_555 1_555
C12 C14 1_555 1_555
C19 C22 1_555 1_555
C25 C27 1_555 1_555
Pb1A O2A 1_555 1_555
C1A C6A 1_555 1_555
O2A C6A 1_555 1_555
N5A C7A 1_555 1_555
C5A C22A 1_555 1_555
C8A C14A 1_555 1_555
C12A C14A 1_555 1_555
C19A C22A 1_555 1_555
C19A C24A 1_555 1_555
C25A C27A 1_555 1_555

#END
