
#######################################################################
#
#                 Cambridge Crystallographic Data Centre
#                                CCDC 
#
#######################################################################
#
# If this CIF has been generated from an entry in the Cambridge 
# Structural Database, then it will include bibliographic, chemical, 
# crystal, experimental, refinement or atomic coordinate data resulting 
# from the CCDC's data processing and validation procedures.
#
#######################################################################

data_WUFFOU
_symmetry_cell_setting           triclinic
_symmetry_space_group_name_H-M   'P -1'
_symmetry_Int_Tables_number      2
_space_group_name_Hall           '-P 1'
loop_
_symmetry_equiv_pos_site_id
_symmetry_equiv_pos_as_xyz
1 x,y,z
2 -x,-y,-z
_cell_length_a                   7.958(7)
_cell_length_b                   9.080(8)
_cell_length_c                   13.591(11)
_cell_angle_alpha                105.757(10)
_cell_angle_beta                 104.501(11)
_cell_angle_gamma                97.911(12)
_cell_volume                     892.491
loop_
_atom_site_label
_atom_site_type_symbol
_atom_site_fract_x
_atom_site_fract_y
_atom_site_fract_z
Ca1 Ca 0.7566(2) 0.11114(16) 0.03989(10)
O1 O 0.4901(7) 0.0237(6) 0.1072(4)
O2 O 0.7073(7) 0.2219(6) 0.2165(4)
O3 O 0.6524(7) 0.3423(6) 0.0331(4)
H1 H 0.576(8) 0.367(9) 0.063(6)
H2 H 0.625(10) 0.331(9) -0.032(2)
O4 O 1.0260(8) 0.2610(7) 0.1713(4)
H3 H 1.125(6) 0.313(7) 0.169(6)
H4 H 1.028(12) 0.256(10) 0.232(3)
O5 O 0.8632(7) -0.1067(6) 0.0374(4)
O6 O 1.0911(7) -0.2226(6) 0.0632(4)
N1 N 0.9542(9) -0.4002(8) 0.1626(5)
H5 H 1.053(7) -0.415(9) 0.153(6)
H6 H 0.896(10) -0.491(6) 0.120(5)
N2 N 0.5637(9) 0.2912(7) 0.3744(5)
H7 H 0.480(8) 0.329(9) 0.393(6)
H8 H 0.625(9) 0.362(7) 0.358(6)
C1 C 0.8593(11) -0.1694(9) 0.2437(6)
H9 H 0.8894 -0.0586 0.2463
H10 H 0.7423 -0.1900 0.2563
C2 C 1.0000(12) -0.2034(10) 0.3254(6)
H11 H 0.9776 -0.1760 0.3959
H12 H 1.1193 -0.1437 0.3336
C3 C 0.9858(11) -0.3790(9) 0.2807(5)
H13 H 1.0970 -0.4091 0.3119
H14 H 0.8848 -0.4402 0.2933
C4 C 0.8560(10) -0.2808(8) 0.1353(5)
H15 H 0.7302 -0.3332 0.0914
C5 C 0.9462(10) -0.1969(8) 0.0726(5)
C6 C 0.4773(11) 0.0135(9) 0.3293(6)
H16 H 0.3804 -0.0009 0.3617
H17 H 0.4713 -0.0866 0.2749
C7 C 0.6589(12) 0.0713(9) 0.4148(6)
H18 H 0.6670 0.0152 0.4683
H19 H 0.7560 0.0567 0.3821
C8 C 0.6678(11) 0.2433(9) 0.4655(5)
H20 H 0.7926 0.3041 0.4943
H21 H 0.6129 0.2594 0.5243
C9 C 0.4668(11) 0.1463(8) 0.2801(5)
H22 H 0.3402 0.1509 0.2497
C10 C 0.5620(10) 0.1303(8) 0.1964(5)
Ca1A Ca 0.2434(2) -0.11114(16) -0.03989(10)
Ca1A_2 Ca 1.2434(2) -0.11114(16) -0.03989(10)
O1A O 0.5099(7) -0.0237(6) -0.1072(4)
O6A O 0.9089(7) 0.2226(6) -0.0632(4)
I1 I 0.40641(6) 0.52553(5) 0.18903(3)
I2 I 0.18089(7) 0.31320(6) 0.44926(3)
loop_
_geom_bond_atom_site_label_1
_geom_bond_atom_site_label_2
_geom_bond_site_symmetry_1
_geom_bond_site_symmetry_2
Ca1 O1 1_555 1_555
O1 C10 1_555 1_555
O2 Ca1 1_555 1_555
O3 Ca1 1_555 1_555
H1 O3 1_555 1_555
H2 O3 1_555 1_555
O4 Ca1 1_555 1_555
H3 O4 1_555 1_555
H4 O4 1_555 1_555
O5 Ca1 1_555 1_555
O6 C5 1_555 1_555
N1 H5 1_555 1_555
H6 N1 1_555 1_555
N2 H7 1_555 1_555
H8 N2 1_555 1_555
C1 H9 1_555 1_555
H10 C1 1_555 1_555
C2 C1 1_555 1_555
H11 C2 1_555 1_555
H12 C2 1_555 1_555
C3 N1 1_555 1_555
H13 C3 1_555 1_555
H14 C3 1_555 1_555
C4 N1 1_555 1_555
H15 C4 1_555 1_555
C5 O5 1_555 1_555
C6 H16 1_555 1_555
H17 C6 1_555 1_555
C7 C6 1_555 1_555
H18 C7 1_555 1_555
H19 C7 1_555 1_555
C8 N2 1_555 1_555
H20 C8 1_555 1_555
H21 C8 1_555 1_555
C9 N2 1_555 1_555
H22 C9 1_555 1_555
C10 O2 1_555 1_555
Ca1A O1 1_555 1_555
Ca1A_2 O6 1_555 1_555
O1A Ca1 1_555 1_555
O6A Ca1 1_555 1_555
C1 C4 1_555 1_555
C2 C3 1_555 1_555
C4 C5 1_555 1_555
C6 C9 1_555 1_555
C7 C8 1_555 1_555
C9 C10 1_555 1_555
Ca1A O1A 1_555 1_555

#END
