
#######################################################################
#
#                 Cambridge Crystallographic Data Centre
#                                CCDC 
#
#######################################################################
#
# If this CIF has been generated from an entry in the Cambridge 
# Structural Database, then it will include bibliographic, chemical, 
# crystal, experimental, refinement or atomic coordinate data resulting 
# from the CCDC's data processing and validation procedures.
#
#######################################################################

data_WUFJEO
_symmetry_cell_setting           monoclinic
_symmetry_space_group_name_H-M   'P 21/c'
_symmetry_Int_Tables_number      14
_space_group_name_Hall           '-P 2ybc'
loop_
_symmetry_equiv_pos_site_id
_symmetry_equiv_pos_as_xyz
1 x,y,z
2 -x,1/2+y,1/2-z
3 -x,-y,-z
4 x,1/2-y,1/2+z
_cell_length_a                   15.344(2)
_cell_length_b                   11.540(2)
_cell_length_c                   7.2150(10)
_cell_angle_alpha                90
_cell_angle_beta                 97.145(2)
_cell_angle_gamma                90
_cell_volume                     1267.64
loop_
_atom_site_label
_atom_site_type_symbol
_atom_site_fract_x
_atom_site_fract_y
_atom_site_fract_z
Ba1 Ba 0.888870(8) -0.140837(10) 0.384689(17)
C1 C 0.71377(13) 0.07905(19) 0.8472(3)
C2 C 0.70233(14) 0.1985(2) 0.8560(3)
H1 H 0.6463 0.2278 0.8618
O1 O 0.85585(13) -0.13207(13) 1.0064(2)
O2 O 1.00280(10) 0.27101(14) 0.7985(2)
O3 O 0.80198(11) -0.14934(13) 0.7085(2)
O4 O 0.92696(11) 0.41515(14) 0.9001(3)
C3 C 0.77203(14) 0.27506(19) 0.8565(3)
H2 H 0.7624 0.3545 0.8613
C4 C 0.93317(14) 0.31286(19) 0.8463(3)
C5 C 0.85615(14) 0.23272(18) 0.8498(3)
C6 C 0.79980(13) 0.03684(18) 0.8516(3)
C7 C 0.86920(14) 0.11357(19) 0.8521(3)
H3 H 0.9259 0.0847 0.8539
C8 C 0.63512(14) 0.0015(2) 0.8390(3)
C9 C 0.82013(13) -0.09069(18) 0.8554(3)
C10 C 0.5565(2) -0.1623(3) 0.9317(5)
H4 H 0.5546 -0.2326 0.9939
C11 C 0.55677(15) 0.0352(2) 0.7338(4)
H5 H 0.5578 0.1013 0.6605
C12 C 0.63410(16) -0.1015(2) 0.9378(4)
H6 H 0.6850 -0.1292 1.0070
C13 C 0.48202(19) -0.1172(3) 0.8322(5)
H7 H 0.4294 -0.1566 0.8359
N1 N 0.48051(14) -0.0207(2) 0.7308(4)
O5 O 0.70388(15) -0.0759(2) 0.3809(3)
H8 H 0.653(2) -0.056(3) 0.354(5)
H9 H 0.707(2) -0.097(3) 0.492(6)
Ba1_2 Ba 0.888870(8) -0.140837(10) 1.384689(17)
Ba1A Ba 1.111130(8) 0.359163(10) 1.115311(17)
Ba1B Ba 1.111130(8) 0.140837(10) 0.615311(17)
Ba1C Ba 0.888870(8) -0.359163(10) 0.884689(17)
Ba1C_2 Ba 0.888870(8) 0.640837(10) 0.884689(17)
O1_2 O 0.85585(13) -0.13207(13) 0.0064(2)
O1C O 0.85585(13) -0.36793(13) 0.5064(2)
O2A O 0.99720(10) -0.22899(14) 0.7015(2)
O2B O 0.99720(10) -0.27101(14) 0.2015(2)
O3C O 0.80198(11) -0.35066(13) 0.2085(2)
O4A O 1.07304(11) -0.08485(14) 0.5999(3)
O4C O 0.92696(11) 0.08485(14) 0.4001(3)
loop_
_geom_bond_atom_site_label_1
_geom_bond_atom_site_label_2
_geom_bond_site_symmetry_1
_geom_bond_site_symmetry_2
Ba1 O3 1_555 1_555
C1 C2 1_555 1_555
C2 H1 1_555 1_555
O1 C9 1_555 1_555
O2 C4 1_555 1_555
O3 C9 1_555 1_555
O4 C4 1_555 1_555
C3 C2 1_555 1_555
H2 C3 1_555 1_555
C4 C5 1_555 1_555
C5 C3 1_555 1_555
C6 C1 1_555 1_555
C7 C5 1_555 1_555
H3 C7 1_555 1_555
C8 C1 1_555 1_555
C9 C6 1_555 1_555
C10 H4 1_555 1_555
C11 C8 1_555 1_555
H5 C11 1_555 1_555
C12 C8 1_555 1_555
H6 C12 1_555 1_555
C13 C10 1_555 1_555
H7 C13 1_555 1_555
N1 C11 1_555 1_555
O5 Ba1 1_555 1_555
H8 O5 1_555 1_555
H9 O5 1_555 1_555
Ba1_2 O1 1_555 1_555
Ba1A O2 1_555 1_555
Ba1B O2 1_555 1_555
Ba1C O1 1_555 1_555
Ba1C_2 O4 1_555 1_555
O1_2 Ba1 1_555 1_555
O1C Ba1 1_555 1_555
O2A Ba1 1_555 1_555
O2B Ba1 1_555 1_555
O3C Ba1 1_555 1_555
O4A Ba1 1_555 1_555
O4C Ba1 1_555 1_555
O3 Ba1C 1_555 1_555
O4 Ba1A 1_555 1_555
C6 C7 1_555 1_555
C10 C12 1_555 1_555
C13 N1 1_555 1_555
Ba1B O4A 1_555 1_555
Ba1B O4C 1_555 1_555
Ba1C O1C 1_555 1_555
Ba1C O2A 1_555 1_555

#END
