
#######################################################################
#
#                 Cambridge Crystallographic Data Centre
#                                CCDC 
#
#######################################################################
#
# If this CIF has been generated from an entry in the Cambridge 
# Structural Database, then it will include bibliographic, chemical, 
# crystal, experimental, refinement or atomic coordinate data resulting 
# from the CCDC's data processing and validation procedures.
#
#######################################################################

data_WUFPET
_symmetry_cell_setting           monoclinic
_symmetry_space_group_name_H-M   'C 2/c'
_symmetry_Int_Tables_number      15
_space_group_name_Hall           '-C 2yn'
loop_
_symmetry_equiv_pos_site_id
_symmetry_equiv_pos_as_xyz
1 x,y,z
2 -x,y,1/2-z
3 1/2+x,1/2+y,z
4 1/2-x,1/2+y,1/2-z
5 -x,-y,-z
6 x,-y,1/2+z
7 1/2-x,1/2-y,-z
8 1/2+x,1/2-y,1/2+z
_cell_length_a                   21.6024(15)
_cell_length_b                   9.4608(5)
_cell_length_c                   18.4656(11)
_cell_angle_alpha                90
_cell_angle_beta                 107.359(3)
_cell_angle_gamma                90
_cell_volume                     3602.04
loop_
_atom_site_label
_atom_site_type_symbol
_atom_site_fract_x
_atom_site_fract_y
_atom_site_fract_z
Cd1 Cd 0.0000 0.136719(16) 0.2500
N1 N 0.00346(7) 0.14831(14) 0.37820(8)
N2 N 0.38498(6) 0.36679(14) 0.70331(8)
O2 O 0.0000 0.38155(18) 0.2500
H1 H -0.0319(11) 0.434(3) 0.2347(14)
O4 O 0.0000 -0.10468(19) 0.2500
H2 H -0.0242(11) -0.151(2) 0.2180(13)
C1 C -0.02143(8) 0.25983(19) 0.40454(10)
H3 H -0.0534 0.3126 0.3703
C2 C -0.00220(8) 0.30038(18) 0.47950(9)
H4 H -0.0217 0.3775 0.4951
C3 C 0.04631(7) 0.22585(18) 0.53174(9)
C4 C 0.07046(9) 0.1078(2) 0.50494(10)
H5 H 0.1019 0.0523 0.5381
C5 C 0.04789(9) 0.07229(18) 0.42915(9)
H6 H 0.0644 -0.0083 0.4127
C6 C 0.07121(8) 0.2708(2) 0.61368(10)
H7 H 0.0545 0.2061 0.6441
H8 H 0.0542 0.3640 0.6187
C7 C 0.14524(8) 0.2753(2) 0.64567(10)
H9 H 0.1569 0.2943 0.6997
H10 H 0.1625 0.1832 0.6390
C8 C 0.17662(8) 0.3866(2) 0.60832(13)
H11 H 0.1643 0.3698 0.5541
H12 H 0.1610 0.4795 0.6166
C9 C 0.35037(8) 0.4694(2) 0.72225(11)
H13 H 0.3722 0.5368 0.7573
C10 C 0.28373(8) 0.4809(2) 0.69259(12)
H14 H 0.2619 0.5544 0.7078
C11 C 0.24965(8) 0.38283(18) 0.64031(11)
C12 C 0.28579(9) 0.2774(2) 0.61997(12)
H15 H 0.2652 0.2092 0.5848
C13 C 0.35243(8) 0.27312(19) 0.65180(11)
H16 H 0.3756 0.2019 0.6367
Cd1F Cd -0.5000 0.363281(16) -0.2500
Cd1F_2 Cd 0.5000 0.363281(16) 0.7500
N1A N -0.00346(7) 0.14831(14) 0.12180(8)
N2A N -0.38498(6) 0.36679(14) -0.20331(8)
N2F N 0.11502(6) 0.13321(14) 0.29669(8)
N2G N -0.11502(6) 0.13321(14) 0.20331(8)
H1A H 0.0319(11) 0.434(3) 0.2653(14)
H2A H 0.0242(11) -0.151(2) 0.2820(13)
C1A C 0.02143(8) 0.25983(19) 0.09546(10)
H3A H 0.0534 0.3126 0.1297
C2A C 0.00220(8) 0.30038(18) 0.02050(9)
H4A H 0.0217 0.3775 0.0049
C3A C -0.04631(7) 0.22585(18) -0.03174(9)
C4A C -0.07046(9) 0.1078(2) -0.00494(10)
H5A H -0.1019 0.0523 -0.0381
C5A C -0.04789(9) 0.07229(18) 0.07085(9)
H6A H -0.0644 -0.0083 0.0873
C6A C -0.07121(8) 0.2708(2) -0.11368(10)
H7A H -0.0545 0.2061 -0.1441
H8A H -0.0542 0.3640 -0.1187
C7A C -0.14524(8) 0.2753(2) -0.14567(10)
H9A H -0.1569 0.2943 -0.1997
H10A H -0.1625 0.1832 -0.1390
C8A C -0.17662(8) 0.3866(2) -0.10832(13)
H11A H -0.1643 0.3698 -0.0541
H12A H -0.1610 0.4795 -0.1166
C9A C -0.35037(8) 0.4694(2) -0.22225(11)
H13A H -0.3722 0.5368 -0.2573
C10A C -0.28373(8) 0.4809(2) -0.19259(12)
H14A H -0.2619 0.5544 -0.2078
C11A C -0.24965(8) 0.38283(18) -0.14031(11)
C12A C -0.28579(9) 0.2774(2) -0.11997(12)
H15A H -0.2652 0.2092 -0.0848
C13A C -0.35243(8) 0.27312(19) -0.15180(11)
H16A H -0.3756 0.2019 -0.1367
S1 S 0.389153(17) 0.12225(4) 0.12738(2)
O1 O 0.42359(6) 0.25526(13) 0.13126(8)
O3 O 0.40458(6) 0.02188(13) 0.07641(7)
O5 O 0.39498(6) 0.06341(14) 0.20204(7)
C14 C 0.28358(6) 0.23257(16) 0.01457(8)
C15 C 0.30561(7) 0.16569(16) 0.08732(8)
C16 C 0.26367(8) 0.13573(17) 0.12792(9)
H17 H 0.2788 0.0918 0.1750
C17 C 0.19769(8) 0.1714(2) 0.09854(10)
H18 H 0.1695 0.1512 0.1266
C18 C 0.17450(7) 0.23517(18) 0.02952(9)
H19 H 0.1307 0.2578 0.0111
S1F S 0.110847(17) 0.37775(4) -0.12738(2)
O1F O 0.07641(6) 0.24474(13) -0.13126(8)
O3F O 0.09542(6) 0.47812(13) -0.07641(7)
O5F O 0.10502(6) 0.43659(14) -0.20204(7)
C14F C 0.21642(6) 0.26743(16) -0.01457(8)
C15F C 0.19439(7) 0.33431(16) -0.08732(8)
C16F C 0.23633(8) 0.36427(17) -0.12792(9)
H17F H 0.2212 0.4082 -0.1750
C17F C 0.30231(8) 0.3286(2) -0.09854(10)
H18F H 0.3305 0.3488 -0.1266
C18F C 0.32550(7) 0.26483(18) -0.02952(9)
H19F H 0.3693 0.2422 -0.0111
loop_
_geom_bond_atom_site_label_1
_geom_bond_atom_site_label_2
_geom_bond_site_symmetry_1
_geom_bond_site_symmetry_2
Cd1 N1 1_555 1_555
S1 O1 1_555 1_555
N1 C1 1_555 1_555
N2 C9 1_555 1_555
O2 Cd1 1_555 1_555
H1 O2 1_555 1_555
O3 S1 1_555 1_555
O4 Cd1 1_555 1_555
H2 O4 1_555 1_555
O5 S1 1_555 1_555
C1 H3 1_555 1_555
C2 C1 1_555 1_555
H4 C2 1_555 1_555
C3 C2 1_555 1_555
C4 C3 1_555 1_555
H5 C4 1_555 1_555
C5 N1 1_555 1_555
H6 C5 1_555 1_555
C6 C3 1_555 1_555
H7 C6 1_555 1_555
H8 C6 1_555 1_555
C7 C6 1_555 1_555
H9 C7 1_555 1_555
H10 C7 1_555 1_555
C8 C7 1_555 1_555
H11 C8 1_555 1_555
H12 C8 1_555 1_555
C9 H13 1_555 1_555
C10 C9 1_555 1_555
H14 C10 1_555 1_555
C11 C8 1_555 1_555
C12 C11 1_555 1_555
H15 C12 1_555 1_555
C13 N2 1_555 1_555
H16 C13 1_555 1_555
C14 C15 1_555 1_555
C15 S1 1_555 1_555
C16 C15 1_555 1_555
H17 C16 1_555 1_555
C17 C16 1_555 1_555
H18 C17 1_555 1_555
C18 C17 1_555 1_555
H19 C18 1_555 1_555
Cd1F N2A 1_555 1_555
Cd1F_2 N2 1_555 1_555
S1F O1F 1_555 1_555
N1A Cd1 1_555 1_555
N2A C9A 1_555 1_555
N2F Cd1 1_555 1_555
N2G Cd1 1_555 1_555
H1A O2 1_555 1_555
O3F S1F 1_555 1_555
H2A O4 1_555 1_555
O5F S1F 1_555 1_555
C1A N1A 1_555 1_555
H3A C1A 1_555 1_555
C2A C1A 1_555 1_555
H4A C2A 1_555 1_555
C3A C2A 1_555 1_555
C4A C3A 1_555 1_555
H5A C4A 1_555 1_555
C5A N1A 1_555 1_555
H6A C5A 1_555 1_555
C6A C3A 1_555 1_555
H7A C6A 1_555 1_555
H8A C6A 1_555 1_555
C7A C6A 1_555 1_555
H9A C7A 1_555 1_555
H10A C7A 1_555 1_555
C8A C7A 1_555 1_555
H11A C8A 1_555 1_555
H12A C8A 1_555 1_555
C9A H13A 1_555 1_555
C10A C9A 1_555 1_555
H14A C10A 1_555 1_555
C11A C8A 1_555 1_555
C12A C11A 1_555 1_555
H15A C12A 1_555 1_555
C13A N2A 1_555 1_555
H16A C13A 1_555 1_555
C14F C14 1_555 1_555
C15F S1F 1_555 1_555
C16F C15F 1_555 1_555
H17F C16F 1_555 1_555
C17F C16F 1_555 1_555
H18F C17F 1_555 1_555
C18F C14 1_555 1_555
H19F C18F 1_555 1_555
C4 C5 1_555 1_555
C10 C11 1_555 1_555
C12 C13 1_555 1_555
C18 C14F 1_555 1_555
C4A C5A 1_555 1_555
C10A C11A 1_555 1_555
C12A C13A 1_555 1_555
C14F C15F 1_555 1_555
C17F C18F 1_555 1_555

#END
