
#######################################################################
#
#                 Cambridge Crystallographic Data Centre
#                                CCDC 
#
#######################################################################
#
# If this CIF has been generated from an entry in the Cambridge 
# Structural Database, then it will include bibliographic, chemical, 
# crystal, experimental, refinement or atomic coordinate data resulting 
# from the CCDC's data processing and validation procedures.
#
#######################################################################

data_WUFPUK
_symmetry_cell_setting           triclinic
_symmetry_space_group_name_H-M   'P -1'
_symmetry_Int_Tables_number      2
_space_group_name_Hall           '-P 1'
loop_
_symmetry_equiv_pos_site_id
_symmetry_equiv_pos_as_xyz
1 x,y,z
2 -x,-y,-z
_cell_length_a                   11.290(5)
_cell_length_b                   12.597(5)
_cell_length_c                   14.315(5)
_cell_angle_alpha                91.628(5)
_cell_angle_beta                 101.747(5)
_cell_angle_gamma                107.978(5)
_cell_volume                     1886.8
loop_
_atom_site_label
_atom_site_type_symbol
_atom_site_fract_x
_atom_site_fract_y
_atom_site_fract_z
Cd1 Cd 0.21595(3) 0.05415(3) 0.77576(3)
Cd2 Cd 0.61802(3) -0.21536(3) 0.77134(3)
N1 N 0.4723(4) -0.1341(3) 0.7239(3)
N2 N 0.0306(4) -0.0767(3) 0.7697(3)
N3 N -0.1754(4) -0.1628(3) 0.7733(3)
N4 N 0.6897(4) -0.1594(3) 1.0879(3)
N5 N 0.6313(4) -0.2171(3) 0.9288(3)
N6 N 0.3214(4) -0.0534(3) 0.7335(3)
C1 C -0.1424(5) -0.3310(5) 0.8515(4)
H1 H -0.2275 -0.3658 0.8531
C2 C -0.0892(5) -0.0728(4) 0.7521(4)
C3 C 0.7114(5) -0.1410(4) 1.0002(4)
N7 N -0.2144(4) -0.1898(4) 0.3206(3)
C4 C 0.3698(5) -0.1784(4) 0.6452(4)
N8 N -0.2637(5) -0.3123(4) 0.4282(4)
C5 C 0.5152(5) 0.0063(4) 0.8660(4)
H2 H 0.5186 0.0839 0.8624
H3 H 0.6019 0.0041 0.8752
C6 C -0.1047(5) -0.2302(4) 0.8115(4)
C7 C 0.5478(5) -0.2907(4) 0.9741(4)
C8 C 0.0215(5) -0.1790(4) 0.8085(4)
C9 C -0.1263(5) 0.0220(4) 0.7078(4)
H4 H -0.0515 0.0753 0.6929
H5 H -0.1545 0.0603 0.7545
C10 C 0.2760(5) -0.1298(4) 0.6520(4)
C11 C 0.4384(5) -0.0596(4) 0.7732(4)
C12 C 0.1590(5) -0.1627(4) 0.5854(4)
H6 H 0.0940 -0.1339 0.5913
C13 C -0.1933(5) -0.0806(5) 0.5443(4)
H7 H -0.1669 -0.1397 0.5754
H8 H -0.1203 -0.0311 0.5242
C14 C 0.4620(5) -0.0365(4) 0.9535(4)
H9 H 0.3737 -0.0383 0.9431
H10 H 0.4635 -0.1126 0.9599
C15 C 0.1151(5) -0.2268(5) 0.8462(4)
H11 H 0.2002 -0.1924 0.8443
C16 C -0.2604(5) -0.2112(5) 0.3981(4)
C17 C 0.0777(5) -0.3261(5) 0.8863(5)
H12 H 0.1381 -0.3596 0.9123
C18 C -0.2318(5) -0.0144(5) 0.6169(4)
H13 H -0.2468 0.0512 0.5896
H14 H -0.3103 -0.0605 0.6322
C19 C 0.4427(5) -0.3838(4) 0.9367(4)
H15 H 0.4189 -0.4078 0.8716
C20 C -0.1802(5) -0.2847(5) 0.2991(5)
C21 C 0.3545(6) -0.2552(5) 0.5683(4)
H16 H 0.4178 -0.2862 0.5625
C22 C 0.5834(4) -0.2570(4) 1.0722(4)
C23 C 0.5154(5) -0.3133(5) 1.1350(4)
H17 H 0.5389 -0.2901 1.2003
C24 C -0.2132(6) -0.3605(5) 0.3657(5)
C25 C -0.3001(5) -0.1331(5) 0.4556(4)
H18 H -0.3780 -0.1737 0.4750
H19 H -0.3167 -0.0748 0.4173
C26 C 0.1451(6) -0.2395(5) 0.5112(5)
H20 H 0.0684 -0.2634 0.4655
C27 C -0.1025(7) -0.4114(6) 0.2251(6)
H21 H -0.0644 -0.4298 0.1780
C28 C -0.1268(6) -0.3106(5) 0.2270(5)
H22 H -0.1076 -0.2616 0.1808
C29 C 0.3751(6) -0.4391(5) 1.0007(5)
H23 H 0.3031 -0.5011 0.9774
C30 C -0.0504(6) -0.3774(5) 0.8883(5)
H24 H -0.0738 -0.4449 0.9154
C31 C -0.1342(8) -0.4854(6) 0.2929(6)
H25 H -0.1165 -0.5526 0.2902
C32 C 0.2413(6) -0.2829(5) 0.5017(5)
H26 H 0.2286 -0.3324 0.4484
C33 C -0.1904(8) -0.4626(6) 0.3631(6)
H27 H -0.2126 -0.5133 0.4075
C34 C 0.4097(6) -0.4065(5) 1.0969(5)
H28 H 0.3619 -0.4473 1.1374
O1 O 0.5618(3) -0.3917(3) 0.7189(3)
O2 O 0.6330(4) -0.3379(4) 0.5898(3)
C35 C 0.9507(4) -0.0509(4) 1.0112(4)
H29 H 0.9715 -0.0593 1.0791
H30 H 0.9527 -0.1172 0.9762
C36 C 0.8167(4) -0.0415(4) 0.9841(4)
H31 H 0.8156 0.0240 1.0207
H32 H 0.7990 -0.0290 0.9168
C37 C 0.6013(6) -0.4085(5) 0.6447(5)
C38 C 0.6101(7) -0.5243(5) 0.6268(5)
H33 H 0.5818 -0.5694 0.6759
H34 H 0.6971 -0.5187 0.6277
H35 H 0.5571 -0.5584 0.5653
N1A N 0.5277(4) 0.1341(3) 1.2761(3)
N6A N 0.6786(4) 0.0534(3) 1.2665(3)
C4A C 0.6302(5) 0.1784(4) 1.3548(4)
C5A C 0.4848(5) -0.0063(4) 1.1340(4)
H2A H 0.4814 -0.0839 1.1376
H3A H 0.3981 -0.0041 1.1248
C10A C 0.7240(5) 0.1298(4) 1.3480(4)
C11A C 0.5616(5) 0.0596(4) 1.2268(4)
C12A C 0.8410(5) 0.1627(4) 1.4146(4)
H6A H 0.9060 0.1339 1.4087
C14A C 0.5380(5) 0.0365(4) 1.0465(4)
H9A H 0.6263 0.0383 1.0569
H10A H 0.5365 0.1126 1.0401
C21A C 0.6455(6) 0.2552(5) 1.4317(4)
H16A H 0.5822 0.2862 1.4375
C26A C 0.8549(6) 0.2395(5) 1.4888(5)
H20A H 0.9316 0.2634 1.5345
C32A C 0.7587(6) 0.2829(5) 1.4983(5)
H26A H 0.7714 0.3324 1.5516
N4A N 1.3103(4) 0.1594(3) 0.9121(3)
N5A N 1.3687(4) 0.2171(3) 1.0712(3)
C3A C 1.2886(5) 0.1410(4) 0.9998(4)
C7A C 1.4522(5) 0.2907(4) 1.0259(4)
C19A C 1.5573(5) 0.3838(4) 1.0633(4)
H15A H 1.5811 0.4078 1.1284
C22A C 1.4166(4) 0.2570(4) 0.9278(4)
C23A C 1.4846(5) 0.3133(5) 0.8650(4)
H17A H 1.4611 0.2901 0.7997
C29A C 1.6249(6) 0.4391(5) 0.9993(5)
H23A H 1.6969 0.5011 1.0226
C34A C 1.5903(6) 0.4065(5) 0.9031(5)
H28A H 1.6381 0.4473 0.8626
C35A C 1.0493(4) 0.0509(4) 0.9888(4)
H29A H 1.0285 0.0593 0.9209
H30A H 1.0473 0.1172 1.0238
C36A C 1.1833(4) 0.0415(4) 1.0159(4)
H31A H 1.1844 -0.0240 0.9793
H32A H 1.2010 0.0290 1.0832
Cd1A Cd -0.21595(3) -0.05415(3) 0.22424(3)
N2A N -0.0306(4) 0.0767(3) 0.2303(3)
N3A N 0.1754(4) 0.1628(3) 0.2267(3)
C1A C 0.1424(5) 0.3310(5) 0.1485(4)
H1A H 0.2275 0.3658 0.1469
C2A C 0.0892(5) 0.0728(4) 0.2479(4)
N7A N 0.2144(4) 0.1898(4) 0.6794(3)
N8A N 0.2637(5) 0.3123(4) 0.5718(4)
C6A C 0.1047(5) 0.2302(4) 0.1885(4)
C8A C -0.0215(5) 0.1790(4) 0.1915(4)
C9A C 0.1263(5) -0.0220(4) 0.2922(4)
H4A H 0.0515 -0.0753 0.3071
H5A H 0.1545 -0.0603 0.2455
C13A C 0.1933(5) 0.0806(5) 0.4557(4)
H7A H 0.1669 0.1397 0.4246
H8A H 0.1203 0.0311 0.4758
C15A C -0.1151(5) 0.2268(5) 0.1538(4)
H11A H -0.2002 0.1924 0.1557
C16A C 0.2604(5) 0.2112(5) 0.6019(4)
C17A C -0.0777(5) 0.3261(5) 0.1137(5)
H12A H -0.1381 0.3596 0.0877
C18A C 0.2318(5) 0.0144(5) 0.3831(4)
H13A H 0.2468 -0.0512 0.4104
H14A H 0.3103 0.0605 0.3678
C20A C 0.1802(5) 0.2847(5) 0.7009(5)
C24A C 0.2132(6) 0.3605(5) 0.6343(5)
C25A C 0.3001(5) 0.1331(5) 0.5444(4)
H18A H 0.3780 0.1737 0.5250
H19A H 0.3167 0.0748 0.5827
C27A C 0.1025(7) 0.4114(6) 0.7749(6)
H21A H 0.0644 0.4298 0.8220
C28A C 0.1268(6) 0.3106(5) 0.7730(5)
H22A H 0.1076 0.2616 0.8192
C30A C 0.0504(6) 0.3774(5) 0.1117(5)
H24A H 0.0738 0.4449 0.0846
C31A C 0.1342(8) 0.4854(6) 0.7071(6)
H25A H 0.1165 0.5526 0.7098
C33A C 0.1904(8) 0.4626(6) 0.6369(6)
H27A H 0.2126 0.5133 0.5925
Cd2_2 Cd -0.38198(3) -0.21536(3) 0.77134(3)
O1_2 O -0.4382(3) -0.3917(3) 0.7189(3)
O2_2 O -0.3670(4) -0.3379(4) 0.5898(3)
C37_2 C -0.3987(6) -0.4085(5) 0.6447(5)
C38_2 C -0.3899(7) -0.5243(5) 0.6268(5)
H33_2 H -0.4182 -0.5694 0.6759
H34_2 H -0.3029 -0.5187 0.6277
H35_2 H -0.4429 -0.5584 0.5653
Cd1_2 Cd 1.21595(3) 0.05415(3) 0.77576(3)
Cd1A_2 Cd 0.78405(3) -0.05415(3) 1.22424(3)
Cd2A Cd 0.38198(3) 0.21536(3) 0.22866(3)
Cd2A_2 Cd 0.38198(3) 0.21536(3) 1.22866(3)
Cd2A_3 Cd 1.38198(3) 0.21536(3) 1.22866(3)
N1_2 N -0.5277(4) -0.1341(3) 0.7239(3)
N3_2 N 0.8246(4) -0.1628(3) 0.7733(3)
N4_2 N -0.3103(4) -0.1594(3) 0.0879(3)
N4A_2 N 0.3103(4) 0.1594(3) 0.9121(3)
N5_2 N -0.3687(4) -0.2171(3) 0.9288(3)
N6A_2 N -0.3214(4) 0.0534(3) 0.2665(3)
loop_
_geom_bond_atom_site_label_1
_geom_bond_atom_site_label_2
_geom_bond_site_symmetry_1
_geom_bond_site_symmetry_2
Cd1 N2 1_555 1_555
Cd2 N1 1_555 1_555
N1 C4 1_555 1_555
N2 C2 1_555 1_555
N3 C2 1_555 1_555
N4 C3 1_555 1_555
N5 Cd2 1_555 1_555
N6 Cd1 1_555 1_555
C1 H1 1_555 1_555
C2 C9 1_555 1_555
C3 N5 1_555 1_555
N7 C16 1_555 1_555
C4 C10 1_555 1_555
N8 C16 1_555 1_555
C5 H2 1_555 1_555
H3 C5 1_555 1_555
C6 N3 1_555 1_555
C7 N5 1_555 1_555
C8 N2 1_555 1_555
C9 H4 1_555 1_555
H5 C9 1_555 1_555
C10 N6 1_555 1_555
C11 N1 1_555 1_555
C12 C10 1_555 1_555
H6 C12 1_555 1_555
C13 H7 1_555 1_555
H8 C13 1_555 1_555
C14 C5 1_555 1_555
H9 C14 1_555 1_555
H10 C14 1_555 1_555
C15 C8 1_555 1_555
H11 C15 1_555 1_555
C16 C25 1_555 1_555
C17 C15 1_555 1_555
H12 C17 1_555 1_555
C18 C9 1_555 1_555
H13 C18 1_555 1_555
H14 C18 1_555 1_555
C19 C7 1_555 1_555
H15 C19 1_555 1_555
C20 N7 1_555 1_555
C21 C4 1_555 1_555
H16 C21 1_555 1_555
C22 N4 1_555 1_555
C23 C22 1_555 1_555
H17 C23 1_555 1_555
C24 N8 1_555 1_555
C25 C13 1_555 1_555
H18 C25 1_555 1_555
H19 C25 1_555 1_555
C26 C12 1_555 1_555
H20 C26 1_555 1_555
C27 H21 1_555 1_555
C28 C20 1_555 1_555
H22 C28 1_555 1_555
C29 C19 1_555 1_555
H23 C29 1_555 1_555
C30 C1 1_555 1_555
H24 C30 1_555 1_555
C31 C27 1_555 1_555
H25 C31 1_555 1_555
C32 C21 1_555 1_555
H26 C32 1_555 1_555
C33 C24 1_555 1_555
H27 C33 1_555 1_555
C34 C23 1_555 1_555
H28 C34 1_555 1_555
O1 Cd2 1_555 1_555
O2 C37 1_555 1_555
C35 H29 1_555 1_555
H30 C35 1_555 1_555
C36 C3 1_555 1_555
H31 C36 1_555 1_555
H32 C36 1_555 1_555
C37 O1 1_555 1_555
C38 C37 1_555 1_555
H33 C38 1_555 1_555
H34 C38 1_555 1_555
H35 C38 1_555 1_555
N1A C4A 1_555 1_555
N6A C10A 1_555 1_555
C4A C10A 1_555 1_555
C5A H2A 1_555 1_555
H3A C5A 1_555 1_555
C10A C12A 1_555 1_555
C11A N1A 1_555 1_555
C12A H6A 1_555 1_555
C14A C14 1_555 1_555
H9A C14A 1_555 1_555
H10A C14A 1_555 1_555
C21A C4A 1_555 1_555
H16A C21A 1_555 1_555
C26A C12A 1_555 1_555
H20A C26A 1_555 1_555
C32A C21A 1_555 1_555
H26A C32A 1_555 1_555
N4A C3A 1_555 1_555
N5A C3A 1_555 1_555
C3A C36A 1_555 1_555
C7A N5A 1_555 1_555
C19A C7A 1_555 1_555
H15A C19A 1_555 1_555
C22A N4A 1_555 1_555
C23A C22A 1_555 1_555
H17A C23A 1_555 1_555
C29A C19A 1_555 1_555
H23A C29A 1_555 1_555
C34A C23A 1_555 1_555
H28A C34A 1_555 1_555
C35A C35 1_555 1_555
H29A C35A 1_555 1_555
H30A C35A 1_555 1_555
C36A C35A 1_555 1_555
H31A C36A 1_555 1_555
H32A C36A 1_555 1_555
Cd1A N7 1_555 1_555
N2A Cd1A 1_555 1_555
N3A C2A 1_555 1_555
C1A H1A 1_555 1_555
C2A N2A 1_555 1_555
N7A Cd1 1_555 1_555
N8A C16A 1_555 1_555
C6A N3A 1_555 1_555
C8A N2A 1_555 1_555
C9A C2A 1_555 1_555
H4A C9A 1_555 1_555
H5A C9A 1_555 1_555
C13A H7A 1_555 1_555
H8A C13A 1_555 1_555
C15A C8A 1_555 1_555
H11A C15A 1_555 1_555
C16A N7A 1_555 1_555
C17A C15A 1_555 1_555
H12A C17A 1_555 1_555
C18A C9A 1_555 1_555
H13A C18A 1_555 1_555
H14A C18A 1_555 1_555
C20A N7A 1_555 1_555
C24A N8A 1_555 1_555
C25A C13A 1_555 1_555
H18A C25A 1_555 1_555
H19A C25A 1_555 1_555
C27A H21A 1_555 1_555
C28A C20A 1_555 1_555
H22A C28A 1_555 1_555
C30A C1A 1_555 1_555
H24A C30A 1_555 1_555
C31A C27A 1_555 1_555
H25A C31A 1_555 1_555
C33A C24A 1_555 1_555
H27A C33A 1_555 1_555
Cd2_2 N3 1_555 1_555
O1_2 Cd2_2 1_555 1_555
O2_2 C37_2 1_555 1_555
C37_2 O1_2 1_555 1_555
C38_2 C37_2 1_555 1_555
H33_2 C38_2 1_555 1_555
H34_2 C38_2 1_555 1_555
H35_2 C38_2 1_555 1_555
Cd1_2 N4A 1_555 1_555
Cd1A_2 N4 1_555 1_555
Cd2A N3A 1_555 1_555
Cd2A_2 N1A 1_555 1_555
Cd2A_3 N5A 1_555 1_555
N1_2 Cd2_2 1_555 1_555
N3_2 Cd2 1_555 1_555
N4_2 Cd1A 1_555 1_555
N4A_2 Cd1 1_555 1_555
N5_2 Cd2_2 1_555 1_555
N6A_2 Cd1A 1_555 1_555
N6 C11 1_555 1_555
C1 C6 1_555 1_555
C5 C11 1_555 1_555
C6 C8 1_555 1_555
C7 C22 1_555 1_555
C13 C18 1_555 1_555
C17 C30 1_555 1_555
C20 C24 1_555 1_555
C26 C32 1_555 1_555
C27 C28 1_555 1_555
C29 C34 1_555 1_555
C31 C33 1_555 1_555
C35 C36 1_555 1_555
N6A C11A 1_555 1_555
N6A Cd1A_2 1_555 1_555
C5A C11A 1_555 1_555
C5A C14A 1_555 1_555
C26A C32A 1_555 1_555
C7A C22A 1_555 1_555
C29A C34A 1_555 1_555
C1A C6A 1_555 1_555
C6A C8A 1_555 1_555
C13A C18A 1_555 1_555
C16A C25A 1_555 1_555
C17A C30A 1_555 1_555
C20A C24A 1_555 1_555
C27A C28A 1_555 1_555
C31A C33A 1_555 1_555

#END
