
#######################################################################
#
#                 Cambridge Crystallographic Data Centre
#                                CCDC 
#
#######################################################################
#
# If this CIF has been generated from an entry in the Cambridge 
# Structural Database, then it will include bibliographic, chemical, 
# crystal, experimental, refinement or atomic coordinate data resulting 
# from the CCDC's data processing and validation procedures.
#
#######################################################################

data_WUFQEV
_symmetry_cell_setting           monoclinic
_symmetry_space_group_name_H-M   'P 21/c'
_symmetry_Int_Tables_number      14
_space_group_name_Hall           '-P 2ybc'
loop_
_symmetry_equiv_pos_site_id
_symmetry_equiv_pos_as_xyz
1 x,y,z
2 -x,1/2+y,1/2-z
3 -x,-y,-z
4 x,1/2-y,1/2+z
_cell_length_a                   19.990(7)
_cell_length_b                   5.616(2)
_cell_length_c                   9.179(3)
_cell_angle_alpha                90
_cell_angle_beta                 96.536(6)
_cell_angle_gamma                90
_cell_volume                     1023.77
loop_
_atom_site_label
_atom_site_type_symbol
_atom_site_fract_x
_atom_site_fract_y
_atom_site_fract_z
Cu1 Cu 1.037358(17) 0.46640(6) -0.13270(3)
Cu2 Cu 1.0000 0.0000 0.0000
O1 O 0.89198(11) 0.0531(4) 0.0607(3)
O2 O 0.88333(10) -0.2919(4) 0.1775(2)
O3 O 1.03174(9) 0.3284(4) 0.06197(19)
H1 H 1.0747 0.3296 0.1253
O4 O 1.03590(10) 0.6426(4) -0.31289(19)
H2 H 1.0819 0.6969 -0.3217
C1 C 0.79292(16) -0.0209(6) 0.1689(4)
C2 C 0.75849(15) -0.1648(6) 0.2540(3)
H3 H 0.7785 -0.3045 0.2918
C3 C 0.69316(16) -0.1059(7) 0.2856(4)
C4 C 0.65626(17) -0.2520(7) 0.3720(4)
H4 H 0.6752 -0.3922 0.4116
C5 C 0.59309(19) -0.1892(8) 0.3980(5)
H5 H 0.5691 -0.2877 0.4548
C6 C 0.56385(19) 0.0201(8) 0.3408(5)
H6 H 0.5206 0.0611 0.3598
C7 C 0.59801(17) 0.1641(8) 0.2578(4)
H7 H 0.5777 0.3030 0.2194
C8 C 0.66362(16) 0.1084(7) 0.2281(4)
C9 C 0.70093(17) 0.2558(7) 0.1423(4)
H8 H 0.6821 0.3974 0.1044
C10 C 0.76357(16) 0.1942(6) 0.1145(4)
H9 H 0.7876 0.2947 0.0589
C11 C 0.86109(14) -0.0891(6) 0.1308(3)
Cu1B Cu 0.962642(17) -0.46640(6) 0.13270(3)
O1B O 1.10802(11) -0.0531(4) -0.0607(3)
O2B O 1.11667(10) 0.2919(4) -0.1775(2)
O3B O 0.96826(9) -0.3284(4) -0.06197(19)
H1B H 0.9253 -0.3296 -0.1253
O4B O 0.96410(10) -0.6426(4) 0.31289(19)
H2B H 0.9181 -0.6969 0.3217
C1B C 1.20708(16) 0.0209(6) -0.1689(4)
C2B C 1.24151(15) 0.1648(6) -0.2540(3)
H3B H 1.2215 0.3045 -0.2918
C3B C 1.30684(16) 0.1059(7) -0.2856(4)
C4B C 1.34374(17) 0.2520(7) -0.3720(4)
H4B H 1.3248 0.3922 -0.4116
C5B C 1.40691(19) 0.1892(8) -0.3980(5)
H5B H 1.4309 0.2877 -0.4548
C6B C 1.43615(19) -0.0201(8) -0.3408(5)
H6B H 1.4794 -0.0611 -0.3598
C7B C 1.40199(17) -0.1641(8) -0.2578(4)
H7B H 1.4223 -0.3030 -0.2194
C8B C 1.33638(16) -0.1084(7) -0.2281(4)
C9B C 1.29907(17) -0.2558(7) -0.1423(4)
H8B H 1.3179 -0.3974 -0.1044
C10B C 1.23643(16) -0.1942(6) -0.1145(4)
H9B H 1.2124 -0.2947 -0.0589
C11B C 1.13891(14) 0.0891(6) -0.1308(3)
Cu1_2 Cu 1.037358(17) -0.53360(6) -0.13270(3)
Cu1A Cu 0.962642(17) 0.96640(6) -0.36730(3)
Cu1B_2 Cu 0.962642(17) 0.53360(6) 0.13270(3)
Cu1C Cu 1.037358(17) -0.96640(6) 0.36730(3)
Cu2A Cu 1.0000 -0.5000 0.5000
Cu2A_2 Cu 1.0000 0.5000 -0.5000
O3_2 O 1.03174(9) -0.6716(4) 0.06197(19)
O3B_2 O 0.96826(9) 0.6716(4) -0.06197(19)
O4A O 0.96410(10) 0.1426(4) -0.18711(19)
O4C O 1.03590(10) -0.1426(4) 0.18711(19)
loop_
_geom_bond_atom_site_label_1
_geom_bond_atom_site_label_2
_geom_bond_site_symmetry_1
_geom_bond_site_symmetry_2
Cu1 O3 1_555 1_555
Cu2 O1 1_555 1_555
O1 C11 1_555 1_555
O2 C11 1_555 1_555
O3 Cu2 1_555 1_555
H1 O3 1_555 1_555
O4 Cu1 1_555 1_555
H2 O4 1_555 1_555
C1 C2 1_555 1_555
C2 H3 1_555 1_555
C3 C2 1_555 1_555
C4 C3 1_555 1_555
H4 C4 1_555 1_555
C5 C4 1_555 1_555
H5 C5 1_555 1_555
C6 C5 1_555 1_555
H6 C6 1_555 1_555
C7 C6 1_555 1_555
H7 C7 1_555 1_555
C8 C3 1_555 1_555
C9 C8 1_555 1_555
H8 C9 1_555 1_555
C10 C1 1_555 1_555
H9 C10 1_555 1_555
C11 C1 1_555 1_555
Cu1B O2 1_555 1_555
O1B Cu2 1_555 1_555
O2B Cu1 1_555 1_555
O3B Cu2 1_555 1_555
H1B O3B 1_555 1_555
O4B Cu1B 1_555 1_555
H2B O4B 1_555 1_555
C1B C2B 1_555 1_555
C2B H3B 1_555 1_555
C3B C2B 1_555 1_555
C4B C3B 1_555 1_555
H4B C4B 1_555 1_555
C5B C4B 1_555 1_555
H5B C5B 1_555 1_555
C6B C5B 1_555 1_555
H6B C6B 1_555 1_555
C7B C6B 1_555 1_555
H7B C7B 1_555 1_555
C8B C3B 1_555 1_555
C9B C8B 1_555 1_555
H8B C9B 1_555 1_555
C10B C1B 1_555 1_555
H9B C10B 1_555 1_555
C11B O1B 1_555 1_555
Cu1_2 O3B 1_555 1_555
Cu1A O4 1_555 1_555
Cu1B_2 O3 1_555 1_555
Cu1C O4B 1_555 1_555
Cu2A O4B 1_555 1_555
Cu2A_2 O4 1_555 1_555
O3_2 Cu1B 1_555 1_555
O3B_2 Cu1 1_555 1_555
O4A Cu1 1_555 1_555
O4C Cu2 1_555 1_555
Cu2 O4A 1_555 1_555
C7 C8 1_555 1_555
C9 C10 1_555 1_555
Cu1B O3B 1_555 1_555
Cu1B O4C 1_555 1_555
O2B C11B 1_555 1_555
C1B C11B 1_555 1_555
C7B C8B 1_555 1_555
C9B C10B 1_555 1_555
Cu1_2 O3_2 1_555 1_555
Cu1B_2 O3B_2 1_555 1_555

#END
