
#######################################################################
#
#                 Cambridge Crystallographic Data Centre
#                                CCDC 
#
#######################################################################
#
# If this CIF has been generated from an entry in the Cambridge 
# Structural Database, then it will include bibliographic, chemical, 
# crystal, experimental, refinement or atomic coordinate data resulting 
# from the CCDC's data processing and validation procedures.
#
#######################################################################

data_WUFSAT
_symmetry_cell_setting           tetragonal
_symmetry_space_group_name_H-M   'P 43 21 2'
_symmetry_Int_Tables_number      96
_space_group_name_Hall           'P 4nw 2abw'
loop_
_symmetry_equiv_pos_site_id
_symmetry_equiv_pos_as_xyz
1 x,y,z
2 -x,-y,1/2+z
3 1/2-y,1/2+x,3/4+z
4 1/2+y,1/2-x,1/4+z
5 1/2-x,1/2+y,3/4-z
6 1/2+x,1/2-y,1/4-z
7 y,x,-z
8 -y,-x,1/2-z
_cell_length_a                   12.7900(18)
_cell_length_b                   12.7900(18)
_cell_length_c                   11.191(2)
_cell_angle_alpha                90
_cell_angle_beta                 90
_cell_angle_gamma                90
_cell_volume                     1830.67
loop_
_atom_site_label
_atom_site_type_symbol
_atom_site_fract_x
_atom_site_fract_y
_atom_site_fract_z
C1 C 0.8796(3) 0.9113(3) 0.7739(3)
H1 H 0.9501 0.9155 0.8077
C2 C 0.8105(3) 0.9915(3) 0.8368(3)
H2 H 0.8172 1.0663 0.8355
C3 C 0.7070(3) 1.0100(3) 0.7767(4)
H3 H 0.6636 0.9508 0.7948
C4 C 0.7174(3) 1.0218(3) 0.6426(3)
H4 H 0.6505 1.0144 0.6045
C5 C 0.7850(4) 0.9365(3) 0.5933(4)
H5 H 0.7500 0.8699 0.6037
H6 H 0.7949 0.9477 0.5083
Ca1 Ca 0.77380(5) 0.77380(5) 1.0000
O1 O 0.8384(2) 0.8109(2) 0.7983(2)
H7 H 0.8360 0.7600 0.7390
O2 O 0.7940(3) 0.9574(2) 0.9571(2)
H8 H 0.7914 1.0045 1.0167
O3 O 0.6609(2) 1.1023(2) 0.8238(3)
H9 H 0.6079 1.0987 0.8805
O4 O 0.7591(2) 1.1238(2) 0.6227(2)
O5 O 0.8855(3) 0.9327(3) 0.6510(3)
C1F C 0.9113(3) 0.8796(3) 1.2261(3)
H1F H 0.9155 0.9501 1.1923
C2F C 0.9915(3) 0.8105(3) 1.1632(3)
H2F H 1.0663 0.8172 1.1645
C3F C 1.0100(3) 0.7070(3) 1.2233(4)
H3F H 0.9508 0.6636 1.2052
C4F C 1.0218(3) 0.7174(3) 1.3574(3)
H4F H 1.0144 0.6505 1.3955
C5F C 0.9365(3) 0.7850(4) 1.4067(4)
H5F H 0.8699 0.7500 1.3963
H6F H 0.9477 0.7949 1.4917
O1F O 0.8109(2) 0.8384(2) 1.2017(2)
H7F H 0.7600 0.8360 1.2610
O2F O 0.9574(2) 0.7940(3) 1.0429(2)
H8F H 1.0045 0.7914 0.9833
O3F O 1.1023(2) 0.6609(2) 1.1762(3)
H9F H 1.0987 0.6079 1.1195
O4F O 1.1238(2) 0.7591(2) 1.3773(2)
O5F O 0.9327(3) 0.8855(3) 1.3490(3)
Ca1B Ca 0.72620(5) 1.27380(5) 0.7500
Ca1C Ca 1.27380(5) 0.72620(5) 1.2500
O3C O 0.6023(2) 0.8391(2) 1.0738(3)
O3D O 0.8391(2) 0.6023(2) 0.9262(3)
O4C O 0.6238(2) 0.7409(2) 0.8727(2)
O4D O 0.7409(2) 0.6238(2) 1.1273(2)
O6 O 1.0612(4) 0.4049(4) 0.1741(4)
C6 C 1.0061(13) 0.3168(15) 0.2075(13)
O7 O 0.85407(19) 0.1711(3) 0.3770(2)
H10 H 0.8304 0.1757 0.4526
H11 H 0.903(4) 0.122(4) 0.383(2)
loop_
_geom_bond_atom_site_label_1
_geom_bond_atom_site_label_2
_geom_bond_site_symmetry_1
_geom_bond_site_symmetry_2
C1 H1 1_555 1_555
C2 C1 1_555 1_555
H2 C2 1_555 1_555
C3 C2 1_555 1_555
H3 C3 1_555 1_555
C4 C3 1_555 1_555
H4 C4 1_555 1_555
C5 C4 1_555 1_555
H5 C5 1_555 1_555
H6 C5 1_555 1_555
Ca1 O1 1_555 1_555
O1 C1 1_555 1_555
H7 O1 1_555 1_555
O2 C2 1_555 1_555
H8 O2 1_555 1_555
O3 C3 1_555 1_555
H9 O3 1_555 1_555
O4 C4 1_555 1_555
O5 C1 1_555 1_555
O6 C6 1_555 1_555
O7 H10 1_555 1_555
H11 O7 1_555 1_555
C1F H1F 1_555 1_555
C2F C1F 1_555 1_555
H2F C2F 1_555 1_555
C3F C2F 1_555 1_555
H3F C3F 1_555 1_555
C4F C3F 1_555 1_555
H4F C4F 1_555 1_555
C5F C4F 1_555 1_555
H5F C5F 1_555 1_555
H6F C5F 1_555 1_555
O1F Ca1 1_555 1_555
H7F O1F 1_555 1_555
O2F Ca1 1_555 1_555
H8F O2F 1_555 1_555
O3F C3F 1_555 1_555
H9F O3F 1_555 1_555
O4F C4F 1_555 1_555
O5F C1F 1_555 1_555
Ca1B O3 1_555 1_555
Ca1C O3F 1_555 1_555
O3C Ca1 1_555 1_555
O3D Ca1 1_555 1_555
O4C Ca1 1_555 1_555
O4D Ca1 1_555 1_555
C5 O5 1_555 1_555
Ca1 O2 1_555 1_555
O4 Ca1B 1_555 1_555
C1F O1F 1_555 1_555
C2F O2F 1_555 1_555
C5F O5F 1_555 1_555
O4F Ca1C 1_555 1_555

#END
