
#######################################################################
#
#                 Cambridge Crystallographic Data Centre
#                                CCDC 
#
#######################################################################
#
# If this CIF has been generated from an entry in the Cambridge 
# Structural Database, then it will include bibliographic, chemical, 
# crystal, experimental, refinement or atomic coordinate data resulting 
# from the CCDC's data processing and validation procedures.
#
#######################################################################

data_WUFYOM
_symmetry_cell_setting           monoclinic
_symmetry_space_group_name_H-M   'P 21'
_symmetry_Int_Tables_number      4
_space_group_name_Hall           'P 2yb'
loop_
_symmetry_equiv_pos_site_id
_symmetry_equiv_pos_as_xyz
1 x,y,z
2 -x,1/2+y,-z
_cell_length_a                   10.9808(9)
_cell_length_b                   7.7045(7)
_cell_length_c                   14.0255(12)
_cell_angle_alpha                90
_cell_angle_beta                 101.5040(10)
_cell_angle_gamma                90
_cell_volume                     1162.74
loop_
_atom_site_label
_atom_site_type_symbol
_atom_site_fract_x
_atom_site_fract_y
_atom_site_fract_z
K1 K 0.07199(4) 0.74107(8) 0.00438(4)
S1 S -0.27278(5) 0.63452(8) 0.03512(4)
N1 N -0.04562(17) 0.9483(3) 0.13759(13)
N2 N -0.49376(15) 0.6793(2) -0.08848(13)
N3 N -0.32195(14) 0.7227(3) -0.15661(12)
N4 N -0.42915(17) 0.7994(3) -0.31911(14)
O1 O -0.05917(17) 0.8392(3) 0.42377(12)
O2 O -0.14875(13) 0.5841(2) 0.01502(10)
O3 O -0.5556(2) 0.8743(3) -0.46539(14)
C1 C -0.37058(18) 0.6809(3) -0.07939(15)
C2 C -0.42591(18) 0.7508(4) -0.22605(15)
C3 C -0.53175(18) 0.7260(3) -0.18485(15)
C4 C -0.64756(19) 0.7533(4) -0.24266(18)
H1 H -0.7198 0.7377 -0.2186
C5 C -0.6519(2) 0.8042(4) -0.33686(19)
H2 H -0.7279 0.825 -0.3781
C6 C -0.5414(2) 0.8245(4) -0.37059(19)
C7 C -0.4453(3) 0.8939(6) -0.5028(2)
H3 H -0.3923 0.9783 -0.4648
H4 H -0.4663 0.9322 -0.5692
H5 H -0.4027 0.7846 -0.4998
C8 C -0.2551(2) 0.8606(3) 0.07578(16)
H6 H -0.2408 0.9325 0.0223
H7 H -0.3318 0.899 0.0934
C9 C -0.15015(19) 0.8856(3) 0.16105(16)
C10 C -0.1599(2) 0.8464(3) 0.25628(16)
C11 C -0.2762(2) 0.7730(4) 0.28015(17)
H8 H -0.2576 0.7207 0.3435
H9 H -0.3097 0.6868 0.2327
H10 H -0.3359 0.8642 0.2796
C12 C -0.0558(2) 0.8786(3) 0.32850(17)
C13 C -0.1097(3) 0.9754(5) 0.4738(2)
H11 H -0.0541 1.0729 0.4821
H12 H -0.1198 0.9344 0.5364
H13 H -0.1889 1.0101 0.4364
C14 C 0.0542(2) 0.9420(3) 0.30639(18)
C15 C 0.1689(2) 0.9743(4) 0.3831(2)
H14 H 0.2044 0.8654 0.4076
H15 H 0.1472 1.0403 0.4353
H16 H 0.2284 1.038 0.3552
C16 C 0.0521(2) 0.9754(3) 0.20968(18)
H17 H 0.124 1.02 0.1933
C17 C 0.3643(3) 0.7463(6) 0.2091(2)
H18 H 0.357 0.8704 0.2093
H19 H 0.4218 0.7093 0.2663
H20 H 0.2844 0.695 0.2084
C18 C 0.4081(3) 0.6930(5) 0.1250(2)
H21 H 0.4889 0.7455 0.1272
H22 H 0.42 0.5683 0.1282
O4 O 0.33244(13) 0.7334(3) 0.03544(11)
H23 H 0.3709 0.7167 -0.0082
C19 C -0.0879(2) 0.9583(5) -0.2342(2)
H24 H -0.0996 1.0827 -0.2418
H25 H -0.1516 0.9017 -0.2819
C20 C 0.0353(2) 0.9117(4) -0.2530(2)
H26 H 0.0988 0.9588 -0.2025
H27 H 0.0443 0.9583 -0.3147
H28 H 0.0431 0.7877 -0.254
O5 O -0.10200(15) 0.9095(3) -0.13975(12)
H29 H -0.1674 0.8562 -0.1434
K1A K -0.07199(4) 1.24107(8) -0.00438(4)
K1A_2 K -0.07199(4) 0.24107(8) -0.00438(4)
N1A N 0.04562(17) 0.4483(3) -0.13759(13)
O2A O 0.14875(13) 1.0841(2) -0.01502(10)
O5A O 0.10200(15) 0.4095(3) 0.13975(12)
H29A H 0.1674 0.3562 0.1434
loop_
_geom_bond_atom_site_label_1
_geom_bond_atom_site_label_2
_geom_bond_site_symmetry_1
_geom_bond_site_symmetry_2
K1 N1 1_555 1_555
S1 O2 1_555 1_555
N1 C9 1_555 1_555
N2 C1 1_555 1_555
N3 C1 1_555 1_555
N4 C2 1_555 1_555
O1 C12 1_555 1_555
O2 K1 1_555 1_555
O3 C6 1_555 1_555
C1 S1 1_555 1_555
C2 N3 1_555 1_555
C3 N2 1_555 1_555
C4 C3 1_555 1_555
H1 C4 1_555 1_555
C5 C4 1_555 1_555
H2 C5 1_555 1_555
C6 N4 1_555 1_555
C7 O3 1_555 1_555
H3 C7 1_555 1_555
H4 C7 1_555 1_555
H5 C7 1_555 1_555
C8 S1 1_555 1_555
H6 C8 1_555 1_555
H7 C8 1_555 1_555
C9 C8 1_555 1_555
C10 C9 1_555 1_555
C11 C10 1_555 1_555
H8 C11 1_555 1_555
H9 C11 1_555 1_555
H10 C11 1_555 1_555
C12 C10 1_555 1_555
C13 O1 1_555 1_555
H11 C13 1_555 1_555
H12 C13 1_555 1_555
H13 C13 1_555 1_555
C14 C12 1_555 1_555
C15 C14 1_555 1_555
H14 C15 1_555 1_555
H15 C15 1_555 1_555
H16 C15 1_555 1_555
C16 N1 1_555 1_555
H17 C16 1_555 1_555
C17 H18 1_555 1_555
H19 C17 1_555 1_555
H20 C17 1_555 1_555
C18 C17 1_555 1_555
H21 C18 1_555 1_555
H22 C18 1_555 1_555
O4 K1 1_555 1_555
H23 O4 1_555 1_555
C19 H24 1_555 1_555
H25 C19 1_555 1_555
C20 C19 1_555 1_555
H26 C20 1_555 1_555
H27 C20 1_555 1_555
H28 C20 1_555 1_555
O5 K1 1_555 1_555
H29 O5 1_555 1_555
K1A N1 1_555 1_555
K1A_2 O2 1_555 1_555
N1A K1 1_555 1_555
O2A K1 1_555 1_555
O5A K1 1_555 1_555
H29A O5A 1_555 1_555
C2 C3 1_555 1_555
C5 C6 1_555 1_555
C14 C16 1_555 1_555
C18 O4 1_555 1_555
C19 O5 1_555 1_555
O5 K1A 1_555 1_555
K1A O2A 1_555 1_555
K1A_2 N1A 1_555 1_555
K1A_2 O5A 1_555 1_555

#END
