
#######################################################################
#
#                 Cambridge Crystallographic Data Centre
#                                CCDC 
#
#######################################################################
#
# If this CIF has been generated from an entry in the Cambridge 
# Structural Database, then it will include bibliographic, chemical, 
# crystal, experimental, refinement or atomic coordinate data resulting 
# from the CCDC's data processing and validation procedures.
#
#######################################################################

data_WUGGAH
_symmetry_cell_setting           orthorhombic
_symmetry_space_group_name_H-M   'P n m a'
_symmetry_Int_Tables_number      62
_space_group_name_Hall           '-P 2ac 2n'
loop_
_symmetry_equiv_pos_site_id
_symmetry_equiv_pos_as_xyz
1 x,y,z
2 1/2-x,-y,1/2+z
3 1/2+x,1/2-y,1/2-z
4 -x,1/2+y,-z
5 -x,-y,-z
6 1/2+x,y,1/2-z
7 1/2-x,1/2+y,1/2+z
8 x,1/2-y,z
_cell_length_a                   18.279(4)
_cell_length_b                   20.892(4)
_cell_length_c                   14.844(3)
_cell_angle_alpha                90
_cell_angle_beta                 90
_cell_angle_gamma                90
_cell_volume                     5668.7
loop_
_atom_site_label
_atom_site_type_symbol
_atom_site_fract_x
_atom_site_fract_y
_atom_site_fract_z
Ag1 Ag 0.03593(3) 0.2500 0.20109(4)
Ag2 Ag 0.10664(3) 0.2500 0.38692(4)
Ni1 Ni 0.30021(3) 0.08349(3) 0.20672(4)
N1 N 0.2024(2) 0.02877(18) 0.1968(3)
C1 C 0.1930(3) -0.0299(3) 0.1629(4)
H1 H 0.2327 -0.0503 0.1363
C2 C 0.1269(3) -0.0614(3) 0.1658(4)
H2 H 0.1229 -0.1031 0.1443
C3 C 0.0671(3) -0.0308(3) 0.2004(4)
H3 H 0.0217 -0.0509 0.2015
C4 C 0.0754(3) 0.0309(3) 0.2340(3)
H4 H 0.0354 0.0532 0.2566
C5 C 0.1436(3) 0.0582(2) 0.2331(3)
C6 C 0.1576(3) 0.1214(2) 0.2775(3)
O1 O 0.10253(17) 0.15299(17) 0.3034(2)
N2 N 0.2278(2) 0.13436(18) 0.2870(2)
C7 C 0.2452(2) 0.1924(2) 0.3321(3)
C8 C 0.2267(3) 0.2500 0.2927(4)
H5 H 0.2012 0.2500 0.2385
C9 C 0.2825(2) 0.1924(2) 0.4123(3)
H6 H 0.2951 0.1540 0.4400
C10 C 0.3012(4) 0.2500 0.4516(4)
H7 H 0.3268 0.2500 0.5057
N3 N 0.3555(2) 0.02734(18) 0.1126(3)
C11 C 0.3899(3) -0.0282(2) 0.1268(4)
H8 H 0.3942 -0.0432 0.1856
C12 C 0.4191(3) -0.0637(3) 0.0585(4)
H9 H 0.4409 -0.1030 0.0703
C13 C 0.4157(3) -0.0408(3) -0.0272(4)
H10 H 0.4353 -0.0641 -0.0747
C14 C 0.3827(3) 0.0175(3) -0.0424(4)
H11 H 0.3808 0.0345 -0.1002
C15 C 0.3527(2) 0.0500(2) 0.0287(3)
C16 C 0.3134(2) 0.1127(2) 0.0151(3)
O2 O 0.31503(18) 0.13699(16) -0.0629(2)
N4 N 0.27831(19) 0.13325(17) 0.0865(2)
C17 C 0.2388(2) 0.1917(2) 0.0775(3)
C18 C 0.2756(4) 0.2500 0.0779(4)
H12 H 0.3265 0.2500 0.0784
C19 C 0.1629(2) 0.1924(2) 0.0711(3)
H13 H 0.1369 0.1541 0.0701
C20 C 0.1263(3) 0.2500 0.0664(4)
H14 H 0.0758 0.2500 0.0597
N5 N -0.1611(2) 0.46695(19) 0.1808(3)
C21 C -0.1885(3) 0.5205(2) 0.1464(3)
H15 H -0.2278 0.5397 0.1755
C22 C -0.1618(3) 0.5485(3) 0.0702(3)
H16 H -0.1812 0.5869 0.0493
C23 C -0.1060(3) 0.5192(3) 0.0255(4)
H17 H -0.0874 0.5367 -0.0273
C24 C -0.0775(3) 0.4634(2) 0.0595(3)
H18 H -0.0397 0.4424 0.0297
C25 C -0.1057(3) 0.4388(2) 0.1383(3)
C26 C -0.0757(3) 0.3783(2) 0.1791(3)
O3 O -0.02775(18) 0.34787(16) 0.1354(2)
N6 N -0.1029(2) 0.36577(17) 0.2592(2)
C27 C -0.0806(2) 0.3079(2) 0.3009(3)
C28 C -0.0945(3) 0.2500 0.2585(4)
H19 H -0.1136 0.2500 0.2004
C29 C -0.0495(2) 0.3078(2) 0.3861(3)
H20 H -0.0392 0.3462 0.4152
C30 C -0.0340(3) 0.2500 0.4275(5)
H21 H -0.0127 0.2500 0.4844
O4 O 0.1285(3) 0.2500 0.5463(3)
Ni1G Ni 0.30021(3) 0.41651(3) 0.20672(4)
Ni1B Ni -0.19979(3) 0.41651(3) 0.29328(4)
Ni1E Ni -0.19979(3) 0.08349(3) 0.29328(4)
N1G N 0.2024(2) 0.47123(18) 0.1968(3)
C1G C 0.1930(3) 0.5299(3) 0.1629(4)
H1G H 0.2327 0.5503 0.1363
C2G C 0.1269(3) 0.5614(3) 0.1658(4)
H2G H 0.1229 0.6031 0.1443
C3G C 0.0671(3) 0.5308(3) 0.2004(4)
H3G H 0.0217 0.5509 0.2015
C4G C 0.0754(3) 0.4691(3) 0.2340(3)
H4G H 0.0354 0.4468 0.2566
C5G C 0.1436(3) 0.4418(2) 0.2331(3)
C6G C 0.1576(3) 0.3786(2) 0.2775(3)
O1G O 0.10253(17) 0.34701(17) 0.3034(2)
N2G N 0.2278(2) 0.36564(18) 0.2870(2)
C7G C 0.2452(2) 0.3076(2) 0.3321(3)
C9G C 0.2825(2) 0.3076(2) 0.4123(3)
H6G H 0.2951 0.3460 0.4400
N3G N 0.3555(2) 0.47266(18) 0.1126(3)
C11G C 0.3899(3) 0.5282(2) 0.1268(4)
H8G H 0.3942 0.5432 0.1856
C12G C 0.4191(3) 0.5637(3) 0.0585(4)
H9G H 0.4409 0.6030 0.0703
C13G C 0.4157(3) 0.5408(3) -0.0272(4)
H10G H 0.4353 0.5641 -0.0747
C14G C 0.3827(3) 0.4825(3) -0.0424(4)
H11G H 0.3808 0.4655 -0.1002
C15G C 0.3527(2) 0.4500(2) 0.0287(3)
C16G C 0.3134(2) 0.3873(2) 0.0151(3)
O2G O 0.31503(18) 0.36301(16) -0.0629(2)
N4G N 0.27831(19) 0.36675(17) 0.0865(2)
C17G C 0.2388(2) 0.3083(2) 0.0775(3)
C19G C 0.1629(2) 0.3076(2) 0.0711(3)
H13G H 0.1369 0.3459 0.0701
N5G N -0.1611(2) 0.03305(19) 0.1808(3)
N5B N 0.3389(2) 0.03305(19) 0.3192(3)
N5E N 0.3389(2) 0.46695(19) 0.3192(3)
C21G C -0.1885(3) -0.0205(2) 0.1464(3)
H15G H -0.2278 -0.0397 0.1755
C22G C -0.1618(3) -0.0485(3) 0.0702(3)
H16G H -0.1812 -0.0869 0.0493
C23G C -0.1060(3) -0.0192(3) 0.0255(4)
H17G H -0.0874 -0.0367 -0.0273
C24G C -0.0775(3) 0.0366(2) 0.0595(3)
H18G H -0.0397 0.0576 0.0297
C25G C -0.1057(3) 0.0612(2) 0.1383(3)
C26G C -0.0757(3) 0.1217(2) 0.1791(3)
O3G O -0.02775(18) 0.15213(16) 0.1354(2)
N6G N -0.1029(2) 0.13423(17) 0.2592(2)
N6B N 0.3971(2) 0.13423(17) 0.2408(2)
N6E N 0.3971(2) 0.36577(17) 0.2408(2)
C27G C -0.0806(2) 0.1921(2) 0.3009(3)
C29G C -0.0495(2) 0.1922(2) 0.3861(3)
H20G H -0.0392 0.1538 0.4152
O5 O 0.8504(4) 0.2500 0.8184(4)
O6 O 0.2939(2) 0.8158(2) 0.3263(3)
O7 O 0.5333(2) 0.8166(2) 0.4526(3)
O8 O 0.4422(2) 0.8459(2) 0.3064(3)
O9 O 0.8753(3) 0.2500 0.6310(3)
O10 O 0.4784(3) 0.7500 0.1779(4)
O11 O 0.2705(3) 0.8307(2) 0.1420(3)
loop_
_geom_bond_atom_site_label_1
_geom_bond_atom_site_label_2
_geom_bond_site_symmetry_1
_geom_bond_site_symmetry_2
Ag1 Ag2 1_555 1_555
Ag2 O1 1_555 1_555
Ni1 N1 1_555 1_555
N1 C1 1_555 1_555
C1 H1 1_555 1_555
C2 C1 1_555 1_555
H2 C2 1_555 1_555
C3 C2 1_555 1_555
H3 C3 1_555 1_555
C4 C3 1_555 1_555
H4 C4 1_555 1_555
C5 N1 1_555 1_555
C6 C5 1_555 1_555
O1 C6 1_555 1_555
N2 Ni1 1_555 1_555
C7 N2 1_555 1_555
C8 Ag2 1_555 1_555
H5 C8 1_555 1_555
C9 C7 1_555 1_555
H6 C9 1_555 1_555
C10 C9 1_555 1_555
H7 C10 1_555 1_555
N3 Ni1 1_555 1_555
C11 N3 1_555 1_555
H8 C11 1_555 1_555
C12 C11 1_555 1_555
H9 C12 1_555 1_555
C13 C12 1_555 1_555
H10 C13 1_555 1_555
C14 C13 1_555 1_555
H11 C14 1_555 1_555
C15 N3 1_555 1_555
C16 C15 1_555 1_555
O2 C16 1_555 1_555
N4 Ni1 1_555 1_555
C17 N4 1_555 1_555
C18 C17 1_555 1_555
H12 C18 1_555 1_555
C19 C17 1_555 1_555
H13 C19 1_555 1_555
C20 Ag1 1_555 1_555
H14 C20 1_555 1_555
N5 C21 1_555 1_555
C21 H15 1_555 1_555
C22 C21 1_555 1_555
H16 C22 1_555 1_555
C23 C22 1_555 1_555
H17 C23 1_555 1_555
C24 C23 1_555 1_555
H18 C24 1_555 1_555
C25 N5 1_555 1_555
C26 C25 1_555 1_555
O3 Ag1 1_555 1_555
N6 C26 1_555 1_555
C27 N6 1_555 1_555
C28 Ag1 1_555 1_555
H19 C28 1_555 1_555
C29 C27 1_555 1_555
H20 C29 1_555 1_555
C30 Ag2 1_555 1_555
H21 C30 1_555 1_555
O4 Ag2 1_555 1_555
Ni1G N1G 1_555 1_555
Ni1B N5 1_555 1_555
Ni1E N5G 1_555 1_555
N1G C1G 1_555 1_555
C1G H1G 1_555 1_555
C2G C1G 1_555 1_555
H2G C2G 1_555 1_555
C3G C2G 1_555 1_555
H3G C3G 1_555 1_555
C4G C3G 1_555 1_555
H4G C4G 1_555 1_555
C5G N1G 1_555 1_555
C6G C5G 1_555 1_555
O1G Ag2 1_555 1_555
N2G Ni1G 1_555 1_555
C7G C8 1_555 1_555
C9G C10 1_555 1_555
H6G C9G 1_555 1_555
N3G Ni1G 1_555 1_555
C11G N3G 1_555 1_555
H8G C11G 1_555 1_555
C12G C11G 1_555 1_555
H9G C12G 1_555 1_555
C13G C12G 1_555 1_555
H10G C13G 1_555 1_555
C14G C13G 1_555 1_555
H11G C14G 1_555 1_555
C15G N3G 1_555 1_555
C16G C15G 1_555 1_555
O2G C16G 1_555 1_555
N4G Ni1G 1_555 1_555
C17G C18 1_555 1_555
C19G C20 1_555 1_555
H13G C19G 1_555 1_555
N5G C21G 1_555 1_555
N5B Ni1 1_555 1_555
N5E Ni1G 1_555 1_555
C21G H15G 1_555 1_555
C22G C21G 1_555 1_555
H16G C22G 1_555 1_555
C23G C22G 1_555 1_555
H17G C23G 1_555 1_555
C24G C23G 1_555 1_555
H18G C24G 1_555 1_555
C25G N5G 1_555 1_555
C26G C25G 1_555 1_555
O3G Ag1 1_555 1_555
N6G Ni1E 1_555 1_555
N6B Ni1 1_555 1_555
N6E Ni1G 1_555 1_555
C27G C28 1_555 1_555
C29G C30 1_555 1_555
H20G C29G 1_555 1_555
C4 C5 1_555 1_555
C6 N2 1_555 1_555
C7 C8 1_555 1_555
C14 C15 1_555 1_555
C16 N4 1_555 1_555
C19 C20 1_555 1_555
C24 C25 1_555 1_555
C26 O3 1_555 1_555
N6 Ni1B 1_555 1_555
C27 C28 1_555 1_555
C29 C30 1_555 1_555
C4G C5G 1_555 1_555
C6G O1G 1_555 1_555
C6G N2G 1_555 1_555
N2G C7G 1_555 1_555
C7G C9G 1_555 1_555
C14G C15G 1_555 1_555
C16G N4G 1_555 1_555
N4G C17G 1_555 1_555
C17G C19G 1_555 1_555
C24G C25G 1_555 1_555
C26G O3G 1_555 1_555
C26G N6G 1_555 1_555
N6G C27G 1_555 1_555
C27G C29G 1_555 1_555

#END
