
#######################################################################
#
#                 Cambridge Crystallographic Data Centre
#                                CCDC 
#
#######################################################################
#
# If this CIF has been generated from an entry in the Cambridge 
# Structural Database, then it will include bibliographic, chemical, 
# crystal, experimental, refinement or atomic coordinate data resulting 
# from the CCDC's data processing and validation procedures.
#
#######################################################################

data_WUGGEL
_symmetry_cell_setting           monoclinic
_symmetry_space_group_name_H-M   'P 21/n'
_symmetry_Int_Tables_number      14
_space_group_name_Hall           '-P 2yn'
loop_
_symmetry_equiv_pos_site_id
_symmetry_equiv_pos_as_xyz
1 x,y,z
2 1/2-x,1/2+y,1/2-z
3 -x,-y,-z
4 1/2+x,1/2-y,1/2+z
_cell_length_a                   9.6669(19)
_cell_length_b                   28.873(6)
_cell_length_c                   13.072(3)
_cell_angle_alpha                90
_cell_angle_beta                 93.21(3)
_cell_angle_gamma                90
_cell_volume                     3642.83
loop_
_atom_site_label
_atom_site_type_symbol
_atom_site_fract_x
_atom_site_fract_y
_atom_site_fract_z
Cu1 Cu 1.22305(14) 0.71237(5) 0.43528(11)
Cu2 Cu 0.15354(15) 0.46533(5) 0.77926(12)
Cu3 Cu 0.01011(15) 0.47581(5) 1.12236(12)
I1 I 0.20149(8) 0.47755(3) 0.98040(6)
I2 I 1.43714(8) 0.70338(3) 0.56845(6)
I3 I -0.09103(8) 0.48458(3) 0.69939(6)
N1 N 0.4759(9) 0.0928(3) 0.6522(7)
N2 N 0.1899(9) 0.3973(3) 0.7437(7)
N3 N 1.1658(9) 0.7804(3) 0.4335(7)
N4 N 0.7687(10) 0.8176(3) 0.8015(7)
N5 N 0.3086(10) 0.5028(3) 0.7130(8)
N6 N 1.0519(9) 0.6786(3) 0.4911(7)
C1 C 0.3888(11) 0.1045(4) 0.7242(8)
H1 H 0.3462 0.0804 0.7606
C2 C 0.3578(11) 0.1495(4) 0.7481(9)
H2 H 0.2945 0.1558 0.7993
C3 C 0.4181(11) 0.1851(4) 0.6983(8)
C4 C 0.5115(12) 0.1747(4) 0.6233(10)
H3 H 0.5570 0.1985 0.5879
C5 C 0.5354(12) 0.1275(4) 0.6023(10)
H4 H 0.5965 0.1199 0.5504
C6 C 0.3864(12) 0.2356(4) 0.7238(10)
H5 H 0.4715 0.2543 0.7179
H6 H 0.3598 0.2375 0.7958
C7 C 0.2730(12) 0.2560(4) 0.6557(10)
H7 H 0.3009 0.2556 0.5839
H8 H 0.1885 0.2369 0.6594
C8 C 0.2408(11) 0.3057(3) 0.6863(8)
C9 C 0.1270(12) 0.3174(4) 0.7397(8)
H9 H 0.0633 0.2941 0.7579
C10 C 0.1059(11) 0.3626(4) 0.7664(9)
H10 H 0.0267 0.3696 0.8034
C11 C 0.3001(12) 0.3859(4) 0.6923(9)
H11 H 0.3628 0.4098 0.6763
C12 C 0.3298(12) 0.3407(4) 0.6602(9)
H12 H 0.4082 0.3344 0.6218
C13 C 1.1822(12) 0.8041(4) 0.5219(9)
H13 H 1.2434 0.7915 0.5741
C14 C 1.1176(12) 0.8448(4) 0.5422(9)
H14 H 1.1349 0.8594 0.6068
C15 C 1.0265(12) 0.8651(4) 0.4690(9)
C16 C 1.0125(12) 0.8423(4) 0.3749(9)
H15 H 0.9561 0.8554 0.3205
C17 C 1.0797(11) 0.8013(4) 0.3608(9)
H16 H 1.0655 0.7863 0.2963
C18 C 0.9416(12) 0.9064(4) 0.4897(10)
H17 H 0.9358 0.9266 0.4285
H18 H 0.9862 0.9242 0.5473
C19 C 0.7965(12) 0.8922(4) 0.5164(9)
H19 H 0.7389 0.9204 0.5197
H20 H 0.7558 0.8727 0.4602
C20 C 0.7881(11) 0.8662(4) 0.6155(9)
C21 C 0.8249(13) 0.8868(4) 0.7095(9)
H21 H 0.8582 0.9178 0.7125
C22 C 0.8121(12) 0.8616(4) 0.7982(9)
H22 H 0.8360 0.8765 0.8616
C23 C 0.7387(12) 0.7975(4) 0.7099(9)
H23 H 0.7087 0.7661 0.7085
C24 C 0.7497(13) 0.8204(5) 0.6183(9)
H24 H 0.7304 0.8042 0.5559
C25 C 0.4313(11) 0.5106(4) 0.7620(9)
H25 H 0.4458 0.4984 0.8292
C26 C 0.5370(11) 0.5348(4) 0.7231(9)
H26 H 0.6210 0.5395 0.7629
C27 C 0.5203(11) 0.5525(4) 0.6232(9)
C28 C 0.3939(11) 0.5436(4) 0.5718(9)
H27 H 0.3770 0.5547 0.5038
C29 C 0.2927(12) 0.5191(4) 0.6174(10)
H28 H 0.2076 0.5136 0.5795
C30 C 0.6344(10) 0.5782(4) 0.5713(8)
H29 H 0.5912 0.5989 0.5183
H30 H 0.6913 0.5553 0.5360
C31 C 0.7296(11) 0.6069(4) 0.6434(8)
H31 H 0.6734 0.6301 0.6784
H32 H 0.7732 0.5863 0.6965
C32 C 0.8398(11) 0.6313(4) 0.5900(8)
C33 C 0.8488(12) 0.6793(4) 0.5901(9)
H33 H 0.7822 0.6973 0.6232
C34 C 0.9565(11) 0.7010(4) 0.5413(8)
H34 H 0.9617 0.7338 0.5442
C35 C 0.9392(11) 0.6081(4) 0.5356(9)
H35 H 0.9369 0.5752 0.5319
C36 C 1.0402(12) 0.6318(4) 0.4871(9)
H36 H 1.1043 0.6148 0.4494
Cu1C Cu 0.72305(14) 0.78763(5) 0.93528(11)
Cu3B Cu -0.01011(15) 0.52419(5) 0.87764(12)
Cu3C Cu 0.51011(15) 0.02419(5) 0.62236(12)
I1B I -0.20149(8) 0.52245(3) 1.01960(6)
I3B I 0.09103(8) 0.51542(3) 1.30061(6)
N1C N -0.0241(9) 0.4072(3) 1.1522(7)
N4C N 1.2687(10) 0.6824(3) 0.3015(7)
loop_
_geom_bond_atom_site_label_1
_geom_bond_atom_site_label_2
_geom_bond_site_symmetry_1
_geom_bond_site_symmetry_2
Cu1 I2 1_555 1_555
Cu2 I1 1_555 1_555
Cu3 I1 1_555 1_555
I1 Cu3B 1_555 1_555
I3 Cu2 1_555 1_555
N1 C1 1_555 1_555
N2 Cu2 1_555 1_555
N3 Cu1 1_555 1_555
N4 C22 1_555 1_555
N5 Cu2 1_555 1_555
N6 Cu1 1_555 1_555
C1 H1 1_555 1_555
C2 C1 1_555 1_555
H2 C2 1_555 1_555
C3 C2 1_555 1_555
C4 C3 1_555 1_555
H3 C4 1_555 1_555
C5 N1 1_555 1_555
H4 C5 1_555 1_555
C6 C3 1_555 1_555
H5 C6 1_555 1_555
H6 C6 1_555 1_555
C7 C6 1_555 1_555
H7 C7 1_555 1_555
H8 C7 1_555 1_555
C8 C7 1_555 1_555
C9 C8 1_555 1_555
H9 C9 1_555 1_555
C10 N2 1_555 1_555
H10 C10 1_555 1_555
C11 N2 1_555 1_555
H11 C11 1_555 1_555
C12 C8 1_555 1_555
H12 C12 1_555 1_555
C13 N3 1_555 1_555
H13 C13 1_555 1_555
C14 C13 1_555 1_555
H14 C14 1_555 1_555
C15 C14 1_555 1_555
C16 C15 1_555 1_555
H15 C16 1_555 1_555
C17 N3 1_555 1_555
H16 C17 1_555 1_555
C18 C15 1_555 1_555
H17 C18 1_555 1_555
H18 C18 1_555 1_555
C19 C18 1_555 1_555
H19 C19 1_555 1_555
H20 C19 1_555 1_555
C20 C19 1_555 1_555
C21 C20 1_555 1_555
H21 C21 1_555 1_555
C22 C21 1_555 1_555
H22 C22 1_555 1_555
C23 N4 1_555 1_555
H23 C23 1_555 1_555
C24 C20 1_555 1_555
H24 C24 1_555 1_555
C25 N5 1_555 1_555
H25 C25 1_555 1_555
C26 C25 1_555 1_555
H26 C26 1_555 1_555
C27 C26 1_555 1_555
C28 C27 1_555 1_555
H27 C28 1_555 1_555
C29 N5 1_555 1_555
H28 C29 1_555 1_555
C30 C27 1_555 1_555
H29 C30 1_555 1_555
H30 C30 1_555 1_555
C31 C30 1_555 1_555
H31 C31 1_555 1_555
H32 C31 1_555 1_555
C32 C31 1_555 1_555
C33 C32 1_555 1_555
H33 C33 1_555 1_555
C34 N6 1_555 1_555
H34 C34 1_555 1_555
C35 C32 1_555 1_555
H35 C35 1_555 1_555
C36 N6 1_555 1_555
H36 C36 1_555 1_555
Cu1C N4 1_555 1_555
Cu3B I3 1_555 1_555
Cu3C N1 1_555 1_555
I1B Cu3 1_555 1_555
I3B Cu3 1_555 1_555
N1C Cu3 1_555 1_555
N4C Cu1 1_555 1_555
C4 C5 1_555 1_555
C9 C10 1_555 1_555
C11 C12 1_555 1_555
C16 C17 1_555 1_555
C23 C24 1_555 1_555
C28 C29 1_555 1_555
C33 C34 1_555 1_555
C35 C36 1_555 1_555
Cu3B I1B 1_555 1_555

#END
