
#######################################################################
#
#                 Cambridge Crystallographic Data Centre
#                                CCDC 
#
#######################################################################
#
# If this CIF has been generated from an entry in the Cambridge 
# Structural Database, then it will include bibliographic, chemical, 
# crystal, experimental, refinement or atomic coordinate data resulting 
# from the CCDC's data processing and validation procedures.
#
#######################################################################

data_WUGJAK
_symmetry_cell_setting           triclinic
_symmetry_space_group_name_H-M   'P -1'
_symmetry_Int_Tables_number      2
_space_group_name_Hall           '-P 1'
loop_
_symmetry_equiv_pos_site_id
_symmetry_equiv_pos_as_xyz
1 x,y,z
2 -x,-y,-z
_cell_length_a                   8.937(3)
_cell_length_b                   9.274(3)
_cell_length_c                   13.454(4)
_cell_angle_alpha                94.969(6)
_cell_angle_beta                 106.691(5)
_cell_angle_gamma                97.039(6)
_cell_volume                     1051.32
loop_
_atom_site_label
_atom_site_type_symbol
_atom_site_fract_x
_atom_site_fract_y
_atom_site_fract_z
Fe1 Fe 0.5000 -0.5000 0.5000
Cl1 Cl 0.7021(2) -0.2886(2) 0.56689(16)
S1 S -0.2597(3) -0.0675(3) -0.01509(18)
S2 S -0.1427(3) -0.2086(3) -0.07415(17)
C1 C 0.1069(10) -0.3148(9) 0.2916(6)
H1 H 0.0276 -0.3553 0.2305
C2 C 0.2090(10) -0.4020(10) 0.3438(6)
H2 H 0.1967 -0.5000 0.3169
C3 C 0.3365(10) -0.2102(11) 0.4682(6)
H3 H 0.4155 -0.1730 0.5302
C4 C 0.2407(10) -0.1178(9) 0.4210(6)
H4 H 0.2555 -0.0206 0.4503
C5 C 0.1190(9) -0.1688(9) 0.3275(6)
C6 C 0.0088(10) -0.0782(9) 0.2737(7)
C7 C -0.1575(11) 0.1087(11) 0.2652(9)
H5 H -0.1954 0.1819 0.2983
C8 C -0.2150(9) 0.0765(9) 0.1652(7)
H6 H -0.2899 0.1269 0.1257
C9 C -0.1643(10) -0.0278(10) 0.1229(6)
C10 C -0.2079(9) -0.3800(10) -0.0391(6)
C11 C -0.2150(10) -0.6223(11) -0.0659(7)
H7 H -0.1966 -0.7055 -0.1016
C12 C -0.2835(10) -0.6387(10) 0.0146(7)
H8 H -0.3116 -0.7308 0.0322
C13 C -0.3080(9) -0.5130(9) 0.0671(6)
C14 C -0.3672(9) -0.5130(9) 0.1605(5)
C15 C -0.4253(8) -0.6419(9) 0.1909(6)
H9 H -0.4364 -0.7317 0.1509
C16 C -0.4662(9) -0.6327(9) 0.2822(6)
H10 H -0.5063 -0.7195 0.3017
C17 C -0.3994(10) -0.3881(9) 0.3109(6)
H11 H -0.3905 -0.2992 0.3515
C18 C -0.3570(10) -0.3856(10) 0.2203(6)
H12 H -0.3217 -0.2971 0.2006
N1 N 0.3258(7) -0.3503(8) 0.4324(5)
N2 N -0.0386(10) 0.0374(10) 0.3271(7)
N3 N -0.0545(8) -0.1080(7) 0.1667(5)
N4 N -0.1748(8) -0.4908(9) -0.0933(5)
N5 N -0.2715(7) -0.3818(7) 0.0376(5)
N6 N -0.4529(7) -0.5108(8) 0.3441(5)
Fe1_2 Fe -0.5000 -0.5000 0.5000
Fe1_3 Fe 1.5000 -0.5000 0.5000
Cl1A Cl 0.2979(2) -0.7114(2) 0.43311(16)
S1A S 1.2597(3) -0.9325(3) 1.01509(18)
S2A S 1.1427(3) -0.7914(3) 1.07415(17)
C1A C 0.8931(10) -0.6852(9) 0.7084(6)
H1A H 0.9724 -0.6447 0.7695
C2A C 0.7910(10) -0.5980(10) 0.6562(6)
H2A H 0.8033 -0.5000 0.6831
C3A C 0.6635(10) -0.7898(11) 0.5318(6)
H3A H 0.5845 -0.8270 0.4698
C4A C 0.7593(10) -0.8822(9) 0.5790(6)
H4A H 0.7445 -0.9794 0.5497
C5A C 0.8810(9) -0.8312(9) 0.6725(6)
C6A C 0.9912(10) -0.9218(9) 0.7263(7)
C7A C 1.1575(11) -1.1087(11) 0.7348(9)
H5A H 1.1954 -1.1819 0.7017
C8A C 1.2150(9) -1.0765(9) 0.8348(7)
H6A H 1.2899 -1.1269 0.8743
C9A C 1.1643(10) -0.9722(10) 0.8771(6)
C10A C 1.2079(9) -0.6200(10) 1.0391(6)
C11A C 1.2150(10) -0.3777(11) 1.0659(7)
H7A H 1.1966 -0.2945 1.1016
C12A C 1.2835(10) -0.3613(10) 0.9854(7)
H8A H 1.3116 -0.2692 0.9678
C13A C 1.3080(9) -0.4870(9) 0.9329(6)
C14A C 1.3672(9) -0.4870(9) 0.8395(5)
C15A C 1.4253(8) -0.3581(9) 0.8091(6)
H9A H 1.4364 -0.2683 0.8491
C16A C 1.4662(9) -0.3673(9) 0.7178(6)
H10A H 1.5063 -0.2805 0.6983
C17A C 1.3994(10) -0.6119(9) 0.6891(6)
H11A H 1.3905 -0.7008 0.6485
C18A C 1.3570(10) -0.6144(10) 0.7797(6)
H12A H 1.3217 -0.7029 0.7994
N1A N 0.6742(7) -0.6497(8) 0.5676(5)
N2A N 1.0386(10) -1.0374(10) 0.6729(7)
N3A N 1.0545(8) -0.8920(7) 0.8333(5)
N4A N 1.1748(8) -0.5092(9) 1.0933(5)
N5A N 1.2715(7) -0.6182(7) 0.9624(5)
N6A N 0.4529(7) -0.4892(8) 0.6559(5)
N6_2 N 0.5471(7) -0.5108(8) 0.3441(5)
N6A_2 N 1.4529(7) -0.4892(8) 0.6559(5)
loop_
_geom_bond_atom_site_label_1
_geom_bond_atom_site_label_2
_geom_bond_site_symmetry_1
_geom_bond_site_symmetry_2
Fe1 Cl1 1_555 1_555
S1 S2 1_555 1_555
S2 C10 1_555 1_555
C1 H1 1_555 1_555
C2 C1 1_555 1_555
H2 C2 1_555 1_555
C3 H3 1_555 1_555
C4 C3 1_555 1_555
H4 C4 1_555 1_555
C5 C1 1_555 1_555
C6 C5 1_555 1_555
C7 H5 1_555 1_555
C8 C7 1_555 1_555
H6 C8 1_555 1_555
C9 S1 1_555 1_555
C10 N4 1_555 1_555
C11 H7 1_555 1_555
C12 C11 1_555 1_555
H8 C12 1_555 1_555
C13 C12 1_555 1_555
C14 C13 1_555 1_555
C15 C14 1_555 1_555
H9 C15 1_555 1_555
C16 C15 1_555 1_555
H10 C16 1_555 1_555
C17 H11 1_555 1_555
C18 C14 1_555 1_555
H12 C18 1_555 1_555
N1 Fe1 1_555 1_555
N2 C6 1_555 1_555
N3 C6 1_555 1_555
N4 C11 1_555 1_555
N5 C10 1_555 1_555
N6 C16 1_555 1_555
Fe1_2 N6 1_555 1_555
Fe1_3 N6A_2 1_555 1_555
Cl1A Fe1 1_555 1_555
S1A S2A 1_555 1_555
S2A C10A 1_555 1_555
C1A H1A 1_555 1_555
C2A C1A 1_555 1_555
H2A C2A 1_555 1_555
C3A H3A 1_555 1_555
C4A C3A 1_555 1_555
H4A C4A 1_555 1_555
C5A C1A 1_555 1_555
C6A C5A 1_555 1_555
C7A H5A 1_555 1_555
C8A C7A 1_555 1_555
H6A C8A 1_555 1_555
C9A S1A 1_555 1_555
C10A N4A 1_555 1_555
C11A H7A 1_555 1_555
C12A C11A 1_555 1_555
H8A C12A 1_555 1_555
C13A C12A 1_555 1_555
C14A C13A 1_555 1_555
C15A C14A 1_555 1_555
H9A C15A 1_555 1_555
C16A C15A 1_555 1_555
H10A C16A 1_555 1_555
C17A H11A 1_555 1_555
C18A C14A 1_555 1_555
H12A C18A 1_555 1_555
N1A Fe1 1_555 1_555
N2A C6A 1_555 1_555
N3A C6A 1_555 1_555
N4A C11A 1_555 1_555
N5A C10A 1_555 1_555
N6A Fe1 1_555 1_555
N6_2 Fe1 1_555 1_555
N6A_2 C16A 1_555 1_555
C2 N1 1_555 1_555
C3 N1 1_555 1_555
C4 C5 1_555 1_555
C7 N2 1_555 1_555
C8 C9 1_555 1_555
C9 N3 1_555 1_555
C13 N5 1_555 1_555
C17 C18 1_555 1_555
C17 N6 1_555 1_555
C2A N1A 1_555 1_555
C3A N1A 1_555 1_555
C4A C5A 1_555 1_555
C7A N2A 1_555 1_555
C8A C9A 1_555 1_555
C9A N3A 1_555 1_555
C13A N5A 1_555 1_555
C17A C18A 1_555 1_555
C17A N6A_2 1_555 1_555

#END
