
#######################################################################
#
#                 Cambridge Crystallographic Data Centre
#                                CCDC 
#
#######################################################################
#
# If this CIF has been generated from an entry in the Cambridge 
# Structural Database, then it will include bibliographic, chemical, 
# crystal, experimental, refinement or atomic coordinate data resulting 
# from the CCDC's data processing and validation procedures.
#
#######################################################################

data_WUGYIH
_symmetry_cell_setting           triclinic
_symmetry_space_group_name_H-M   'P -1'
_symmetry_Int_Tables_number      2
_space_group_name_Hall           '-P 1'
loop_
_symmetry_equiv_pos_site_id
_symmetry_equiv_pos_as_xyz
1 x,y,z
2 -x,-y,-z
_cell_length_a                   6.2708(2)
_cell_length_b                   7.0947(3)
_cell_length_c                   12.0526(6)
_cell_angle_alpha                73.067(3)
_cell_angle_beta                 76.577(2)
_cell_angle_gamma                83.332(2)
_cell_volume                     498.275
loop_
_atom_site_label
_atom_site_type_symbol
_atom_site_fract_x
_atom_site_fract_y
_atom_site_fract_z
Cu1 Cu 0.0000 0.5000 0.5000
Cu2 Cu -0.5000 0.5000 0.5000
O1 O -0.0163(7) 0.5914(7) 0.3345(4)
O2 O -0.2433(8) 0.6931(7) 0.5369(4)
O3 O -0.2812(8) 0.2724(7) 0.5310(4)
O4 O -0.3659(7) 0.5637(7) 0.3329(4)
N1 N 0.2837(11) 0.7022(11) 0.1189(6)
C1 C -0.1695(10) 0.5922(9) 0.2839(5)
C2 C 0.0671(15) 0.7563(16) 0.0856(8)
C3 C -0.1062(14) 0.613(2) 0.1525(7)
H1 H -0.227(12) 0.402(10) 0.501(6)
H2 H 0.084(11) 0.633(11) 0.073(6)
H3 H 0.296(15) 0.580(15) 0.135(8)
H4 H -0.37(2) 0.26(2) 0.519(14)
H5 H -0.16(2) 0.77(2) 0.509(13)
H6 H -0.237(15) 0.633(12) 0.119(8)
H7 H 0.073(19) 0.788(17) 0.008(11)
H8 H -0.144(19) 0.723(16) 0.147(10)
H9 H 0.41(2) 0.754(17) 0.052(11)
H10 H 0.300(16) 0.761(14) 0.176(9)
H11 H -0.273(12) 0.594(11) 0.502(7)
Cu2_2 Cu 0.5000 0.5000 0.5000
O1A O 0.0163(7) 0.4086(7) 0.6655(4)
O2A O 0.2433(8) 0.3069(7) 0.4631(4)
O2A_2 O -0.7567(8) 0.3069(7) 0.4631(4)
O3A O 0.2812(8) 0.7276(7) 0.4690(4)
O3A_2 O -0.7188(8) 0.7276(7) 0.4690(4)
O4A O 0.3659(7) 0.4363(7) 0.6671(4)
O4A_2 O -0.6341(7) 0.4363(7) 0.6671(4)
N1A N -0.2837(11) 0.2978(11) 0.8811(6)
C1A C 0.1695(10) 0.4078(9) 0.7161(5)
C2A C -0.0671(15) 0.2437(16) 0.9144(8)
C3A C 0.1062(14) 0.387(2) 0.8475(7)
H1A H 0.227(12) 0.598(10) 0.499(6)
H1A_2 H -0.773(12) 0.598(10) 0.499(6)
H2A H -0.084(11) 0.367(11) 0.927(6)
H3A H -0.296(15) 0.420(15) 0.865(8)
H4A H 0.37(2) 0.74(2) 0.481(14)
H4A_2 H -0.63(2) 0.74(2) 0.481(14)
H5A H 0.16(2) 0.23(2) 0.491(13)
H5A_2 H -0.84(2) 0.23(2) 0.491(13)
H6A H 0.237(15) 0.367(12) 0.881(8)
H7A H -0.073(19) 0.212(17) 0.992(11)
H8A H 0.144(19) 0.277(16) 0.853(10)
H9A H -0.41(2) 0.246(17) 0.948(11)
H10A H -0.300(16) 0.239(14) 0.824(9)
H11A H 0.273(12) 0.406(11) 0.498(7)
H11A_2 H -0.727(12) 0.406(11) 0.498(7)
S1 S 0.5996(3) 0.8633(2) -0.19352(13)
O5 O 0.7421(10) 1.0266(8) -0.2666(5)
O6 O 0.6341(10) 0.8060(9) -0.0738(5)
O7 O 0.3739(11) 0.9225(13) -0.1969(7)
O8 O 0.6675(15) 0.6966(9) -0.2447(6)
O9 O 0.1756(8) 0.9482(7) 0.6243(4)
loop_
_geom_bond_atom_site_label_1
_geom_bond_atom_site_label_2
_geom_bond_site_symmetry_1
_geom_bond_site_symmetry_2
Cu1 O1 1_555 1_555
Cu2 O2 1_555 1_555
S1 O5 1_555 1_555
O1 C1 1_555 1_555
O2 Cu1 1_555 1_555
O3 Cu1 1_555 1_555
O4 Cu2 1_555 1_555
O6 S1 1_555 1_555
O7 S1 1_555 1_555
O8 S1 1_555 1_555
N1 C2 1_555 1_555
C1 O4 1_555 1_555
C2 C3 1_555 1_555
C3 C1 1_555 1_555
H1 O3 1_555 1_555
H2 C2 1_555 1_555
H3 N1 1_555 1_555
H4 O3 1_555 1_555
H5 O2 1_555 1_555
H6 C3 1_555 1_555
H7 C2 1_555 1_555
H8 C3 1_555 1_555
H9 N1 1_555 1_555
H10 N1 1_555 1_555
H11 O2 1_555 1_555
Cu2_2 O2A 1_555 1_555
O1A Cu1 1_555 1_555
O2A Cu1 1_555 1_555
O2A_2 Cu2 1_555 1_555
O3A Cu1 1_555 1_555
O3A_2 Cu2 1_555 1_555
O4A Cu2_2 1_555 1_555
O4A_2 Cu2 1_555 1_555
N1A C2A 1_555 1_555
C1A O1A 1_555 1_555
C2A C3A 1_555 1_555
C3A C1A 1_555 1_555
H1A O3A 1_555 1_555
H1A_2 O3A_2 1_555 1_555
H2A C2A 1_555 1_555
H3A N1A 1_555 1_555
H4A O3A 1_555 1_555
H4A_2 O3A_2 1_555 1_555
H5A O2A 1_555 1_555
H5A_2 O2A_2 1_555 1_555
H6A C3A 1_555 1_555
H7A C2A 1_555 1_555
H8A C3A 1_555 1_555
H9A N1A 1_555 1_555
H10A N1A 1_555 1_555
H11A O2A 1_555 1_555
H11A_2 O2A_2 1_555 1_555
Cu2 O3 1_555 1_555
Cu2_2 O3A 1_555 1_555
O4A C1A 1_555 1_555

#END
