
#######################################################################
#
#                 Cambridge Crystallographic Data Centre
#                                CCDC 
#
#######################################################################
#
# If this CIF has been generated from an entry in the Cambridge 
# Structural Database, then it will include bibliographic, chemical, 
# crystal, experimental, refinement or atomic coordinate data resulting 
# from the CCDC's data processing and validation procedures.
#
#######################################################################

data_WUHJUE
_symmetry_cell_setting           triclinic
_symmetry_space_group_name_H-M   'P -1'
_symmetry_Int_Tables_number      2
_space_group_name_Hall           '-P 1'
loop_
_symmetry_equiv_pos_site_id
_symmetry_equiv_pos_as_xyz
1 x,y,z
2 -x,-y,-z
_cell_length_a                   10.1013(16)
_cell_length_b                   11.2822(17)
_cell_length_c                   16.313(3)
_cell_angle_alpha                79.512(3)
_cell_angle_beta                 88.198(3)
_cell_angle_gamma                66.963(3)
_cell_volume                     1680.64
loop_
_atom_site_label
_atom_site_type_symbol
_atom_site_fract_x
_atom_site_fract_y
_atom_site_fract_z
Er1 Er 0.61121(3) 0.21902(2) 0.465522(14)
O1 O 0.7382(4) 0.2131(3) 0.34390(19)
N1 N 0.6837(5) 0.2865(4) 0.2693(2)
C1 C 0.5862(7) 0.2639(6) 0.2280(3)
H1 H 0.5525 0.2005 0.2523
C2 C 0.5359(7) 0.3351(6) 0.1492(4)
H2 H 0.4683 0.3191 0.1205
C3 C 0.5850(7) 0.4299(6) 0.1124(3)
C4 C 0.6825(8) 0.4507(7) 0.1565(4)
H3 H 0.7177 0.5136 0.1334
C5 C 0.7297(7) 0.3796(6) 0.2349(4)
H4 H 0.7952 0.3965 0.2648
C6 C 0.5413(8) 0.5056(7) 0.0254(4)
H5 H 0.5800 0.5678 0.0071
C19 C 0.4552(6) 0.4824(5) 0.5356(3)
O4 O 0.4615(4) 0.3668(3) 0.5476(2)
O5 O 0.3859(4) 0.5696(3) 0.5759(2)
C20 C 0.4927(6) 0.0085(5) 0.5462(3)
O6 O 0.5241(4) 0.0974(3) 0.5647(2)
O7 O 0.4526(4) -0.0683(3) 0.5944(2)
O9 O 0.4067(4) 0.3298(4) 0.3800(2)
H20 H 0.3586 0.2985 0.3552
H21 H 0.3435 0.4072 0.3771
O10 O 0.8183(4) 0.0248(4) 0.4839(2)
H22 H 0.8663 0.0025 0.4416
H23 H 0.8554 -0.0348 0.5264
O11 O 0.7607(4) 0.2231(4) 0.5687(2)
H24 H 0.8486 0.1799 0.5845
H25 H 0.7354 0.2780 0.6015
C6A C 0.4587(8) 0.4944(7) -0.0254(4)
C3A C 0.4150(7) 0.5701(6) -0.1124(3)
C2A C 0.4641(7) 0.6649(6) -0.1492(4)
C1A C 0.4138(7) 0.7361(6) -0.2280(3)
N1A N 0.3163(5) 0.7135(4) -0.2693(2)
O1A O 0.2618(4) 0.7869(3) -0.34390(19)
C5A C 0.2703(7) 0.6204(6) -0.2349(4)
C4A C 0.3175(8) 0.5493(7) -0.1565(4)
H3A H 0.2823 0.4864 -0.1334
H4A H 0.2048 0.6035 -0.2648
H1A H 0.4475 0.7995 -0.2523
H2A H 0.5317 0.6809 -0.1205
H5A H 0.4200 0.4322 -0.0071
C19A C 0.5448(6) 0.5176(5) 0.4644(3)
O4A O 0.5385(4) 0.6332(3) 0.4524(2)
O5A O 0.6141(4) 0.4304(3) 0.4241(2)
C20A C 0.5073(6) -0.0085(5) 0.4538(3)
O6A O 0.4759(4) -0.0974(3) 0.4353(2)
O7A O 0.5474(4) 0.0683(3) 0.4056(2)
Er1A Er 0.38879(3) 0.78098(2) -0.465522(14)
O9A O 0.5933(4) 0.6702(4) -0.3800(2)
H20A H 0.6414 0.7015 -0.3552
H21A H 0.6565 0.5928 -0.3771
O10A O 0.1817(4) 0.9752(4) -0.4839(2)
H22A H 0.1337 0.9975 -0.4416
H23A H 0.1446 1.0348 -0.5264
O11A O 0.2393(4) 0.7769(4) -0.5687(2)
H24A H 0.1514 0.8201 -0.5845
H25A H 0.2646 0.7220 -0.6015
Er1A_2 Er 0.38879(3) 0.78098(2) 0.534478(14)
Er1A_3 Er 0.38879(3) -0.21902(2) 0.534478(14)
O4A_2 O 0.5385(4) 0.6332(3) -0.5476(2)
O5_2 O 0.3859(4) 0.5696(3) -0.4241(2)
O6A_2 O 0.4759(4) 0.9026(3) -0.5647(2)
O7_2 O 0.4526(4) 0.9317(3) -0.4056(2)
O2 O 0.9675(5) -0.1046(4) 0.3697(2)
N2 N 0.9485(6) -0.0487(5) 0.2896(3)
C7 C 0.8381(7) -0.0476(6) 0.2445(4)
H6 H 0.7788 -0.0883 0.2693
C8 C 0.8128(8) 0.0126(7) 0.1629(4)
H7 H 0.7360 0.0134 0.1326
C9 C 0.9008(8) 0.0731(6) 0.1246(4)
C10 C 1.0150(8) 0.0654(7) 0.1725(4)
H8 H 1.0781 0.1023 0.1486
C11 C 1.0373(7) 0.0052(7) 0.2541(4)
H9 H 1.1148 0.0017 0.2851
C12 C 0.8801(8) 0.1425(7) 0.0361(4)
H10 H 0.9497 0.1738 0.0159
C13 C 0.7748(8) 0.1637(7) -0.0158(4)
H11 H 0.7040 0.1335 0.0037
C14 C 0.8341(8) 0.3505(7) -0.2180(4)
H12 H 0.8970 0.3891 -0.2399
C15 C 0.8526(9) 0.2882(8) -0.1365(4)
H13 H 0.9285 0.2839 -0.1037
C16 C 0.7595(8) 0.2313(7) -0.1023(4)
C17 C 0.6501(8) 0.2423(7) -0.1535(4)
H14 H 0.5842 0.2067 -0.1327
C18 C 0.6347(8) 0.3046(7) -0.2352(4)
H15 H 0.5591 0.3106 -0.2690
N3 N 0.7270(6) 0.3565(5) -0.2663(3)
O3 O 0.7145(5) 0.4135(4) -0.3468(2)
O8 O 1.0009(7) 0.3924(5) 0.4709(4)
C21 C 1.1005(9) 0.3789(7) 0.5327(5)
H16 H 1.1936 0.3609 0.5082
H17 H 1.1096 0.3034 0.5751
C22 C 0.9335(14) 0.5109(10) 0.4282(7)
H18 H 0.9913 0.5219 0.3810
H19 H 0.8439 0.5147 0.4056
C22A C 1.0665(14) 0.4891(10) 0.5718(7)
O8A O 0.9991(7) 0.6076(5) 0.5291(4)
C21A C 0.8995(9) 0.6211(7) 0.4673(5)
H16A H 0.8064 0.6391 0.4918
H17A H 0.8904 0.6966 0.4249
H18A H 1.0087 0.4781 0.6190
H19A H 1.1561 0.4853 0.5944
O12 O 1.0233(5) 0.1906(4) 0.3950(2)
H26 H 0.9437 0.1857 0.3849
H27 H 1.0031 0.2412 0.4304
O13 O 1.2445(6) 0.2333(5) 0.2971(3)
H28 H 1.1573 0.2457 0.3066
H29 H 1.2331 0.2782 0.2481
O14 O 0.4627(9) 1.0074(7) 0.2295(5)
H30 H 0.3971 0.9795 0.2445
H31 H 0.4294 1.0712 0.1888
O15 O 0.6387(7) 0.7511(7) 0.2997(3)
H32 H 0.6103 0.7166 0.3437
H33 H 0.5849 0.8294 0.2781
O16 O 0.8538(8) 0.6340(7) 0.2038(4)
H34 H 0.7857 0.6702 0.2344
H35 H 0.8406 0.6874 0.1578
O17 O 1.0625(9) 0.4047(8) 0.1656(5)
H36 H 0.9995 0.4841 0.1552
H37 H 1.1427 0.4127 0.1430
Cl1 Cl 0.7140(4) 0.8005(4) -0.00778(18)
O18 O 0.7967(18) 0.8261(18) 0.0473(9)
O19 O 0.5808(13) 0.805(2) 0.0225(13)
O20 O 0.690(2) 0.888(2) -0.0847(8)
O21 O 0.791(2) 0.6720(12) -0.0249(16)
O22? O 0.749(2) 0.9050(16) -0.0475(11)
O23? O 0.658(2) 0.827(2) 0.0708(7)
O24? O 0.609(2) 0.789(3) -0.0558(11)
O25? O 0.8386(18) 0.6830(15) 0.0058(15)
loop_
_geom_bond_atom_site_label_1
_geom_bond_atom_site_label_2
_geom_bond_site_symmetry_1
_geom_bond_site_symmetry_2
Er1 O1 1_555 1_555
O1 N1 1_555 1_555
N1 C1 1_555 1_555
C1 H1 1_555 1_555
C2 C1 1_555 1_555
H2 C2 1_555 1_555
C3 C2 1_555 1_555
C4 C3 1_555 1_555
H3 C4 1_555 1_555
C5 N1 1_555 1_555
H4 C5 1_555 1_555
C6 C3 1_555 1_555
H5 C6 1_555 1_555
O2 N2 1_555 1_555
N2 C7 1_555 1_555
C7 H6 1_555 1_555
C8 C7 1_555 1_555
H7 C8 1_555 1_555
C9 C8 1_555 1_555
C10 C9 1_555 1_555
H8 C10 1_555 1_555
C11 N2 1_555 1_555
H9 C11 1_555 1_555
C12 C9 1_555 1_555
H10 C12 1_555 1_555
C13 C12 1_555 1_555
H11 C13 1_555 1_555
C14 H12 1_555 1_555
C15 C14 1_555 1_555
H13 C15 1_555 1_555
C16 C13 1_555 1_555
C17 C16 1_555 1_555
H14 C17 1_555 1_555
C18 C17 1_555 1_555
H15 C18 1_555 1_555
N3 C14 1_555 1_555
O3 N3 1_555 1_555
C19 O4 1_555 1_555
O4 Er1 1_555 1_555
O5 C19 1_555 1_555
C20 O6 1_555 1_555
O6 Er1 1_555 1_555
O7 C20 1_555 1_555
O8 C21 1_555 1_555
C21 H16 1_555 1_555
H17 C21 1_555 1_555
C22 O8 1_555 1_555
H18 C22 1_555 1_555
H19 C22 1_555 1_555
O9 Er1 1_555 1_555
H20 O9 1_555 1_555
H21 O9 1_555 1_555
O10 Er1 1_555 1_555
H22 O10 1_555 1_555
H23 O10 1_555 1_555
O11 Er1 1_555 1_555
H24 O11 1_555 1_555
H25 O11 1_555 1_555
O12 H26 1_555 1_555
H27 O12 1_555 1_555
O13 H28 1_555 1_555
H29 O13 1_555 1_555
O14 H30 1_555 1_555
H31 O14 1_555 1_555
O15 H32 1_555 1_555
H33 O15 1_555 1_555
O16 H34 1_555 1_555
H35 O16 1_555 1_555
O17 H36 1_555 1_555
H37 O17 1_555 1_555
Cl1 O18 1_555 1_555
O19 Cl1 1_555 1_555
O20 Cl1 1_555 1_555
O21 Cl1 1_555 1_555
C6A C6 1_555 1_555
C3A C6A 1_555 1_555
C2A C3A 1_555 1_555
C1A C2A 1_555 1_555
N1A C1A 1_555 1_555
O1A N1A 1_555 1_555
C5A N1A 1_555 1_555
C4A C3A 1_555 1_555
H3A C4A 1_555 1_555
H4A C5A 1_555 1_555
H1A C1A 1_555 1_555
H2A C2A 1_555 1_555
H5A C6A 1_555 1_555
C19A C19 1_555 1_555
O4A C19A 1_555 1_555
O5A Er1 1_555 1_555
C20A C20 1_555 1_555
O6A C20A 1_555 1_555
O7A Er1 1_555 1_555
C22A C21 1_555 1_555
O8A C22A 1_555 1_555
C21A C22 1_555 1_555
H16A C21A 1_555 1_555
H17A C21A 1_555 1_555
H18A C22A 1_555 1_555
H19A C22A 1_555 1_555
Er1A O1A 1_555 1_555
O9A Er1A 1_555 1_555
H20A O9A 1_555 1_555
H21A O9A 1_555 1_555
O10A Er1A 1_555 1_555
H22A O10A 1_555 1_555
H23A O10A 1_555 1_555
O11A Er1A 1_555 1_555
H24A O11A 1_555 1_555
H25A O11A 1_555 1_555
Er1A_2 O5 1_555 1_555
Er1A_3 O7 1_555 1_555
O4A_2 Er1A 1_555 1_555
O5_2 Er1A 1_555 1_555
O6A_2 Er1A 1_555 1_555
O7_2 Er1A 1_555 1_555
C4 C5 1_555 1_555
C10 C11 1_555 1_555
C15 C16 1_555 1_555
C18 N3 1_555 1_555
C5A C4A 1_555 1_555
C19A O5A 1_555 1_555
O4A Er1A_2 1_555 1_555
C20A O7A 1_555 1_555
O6A Er1A_3 1_555 1_555
O8A C21A 1_555 1_555

#END
