
#######################################################################
#
#                 Cambridge Crystallographic Data Centre
#                                CCDC 
#
#######################################################################
#
# If this CIF has been generated from an entry in the Cambridge 
# Structural Database, then it will include bibliographic, chemical, 
# crystal, experimental, refinement or atomic coordinate data resulting 
# from the CCDC's data processing and validation procedures.
#
#######################################################################

data_WUHLAO
_symmetry_cell_setting           monoclinic
_symmetry_space_group_name_H-M   'P 21/n'
_symmetry_Int_Tables_number      14
_space_group_name_Hall           '-P 2yn'
loop_
_symmetry_equiv_pos_site_id
_symmetry_equiv_pos_as_xyz
1 x,y,z
2 1/2-x,1/2+y,1/2-z
3 -x,-y,-z
4 1/2+x,1/2-y,1/2+z
_cell_length_a                   8.8126(3)
_cell_length_b                   10.6094(3)
_cell_length_c                   10.5394(3)
_cell_angle_alpha                90
_cell_angle_beta                 96.180(3)
_cell_angle_gamma                90
_cell_volume                     979.669
loop_
_atom_site_label
_atom_site_type_symbol
_atom_site_fract_x
_atom_site_fract_y
_atom_site_fract_z
Zn1 Zn 0.81496(3) 0.42688(3) 0.48894(3)
O1 O 0.66780(19) 0.48369(17) 0.34493(16)
O2 O 0.7177(2) 0.77428(16) 0.90673(16)
O3 O 0.91973(19) 0.89353(16) 0.89552(16)
N1 N 0.8765(2) 0.56846(18) 0.60635(19)
N2 N 1.0145(2) 0.62944(19) 0.60889(18)
C1 C 0.7991(3) 0.6208(2) 0.6950(2)
H1 H 0.7003 0.5958 0.7133
C2 C 0.8413(3) 0.7999(2) 0.8578(2)
C3 C 0.8848(3) 0.7177(2) 0.7565(2)
C4 C 1.0193(3) 0.7190(2) 0.6978(2)
H2 H 1.1020 0.7755 0.7181
Zn1A Zn 0.68504(3) 0.92688(3) 1.01106(3)
Zn1B Zn 1.18504(3) 0.57312(3) 0.51106(3)
O2A O 0.7823(2) 0.27428(16) 0.59327(16)
O3A O 0.58027(19) 0.39353(16) 0.60448(16)
N2B N 0.9855(2) 0.37056(19) 0.39111(18)
loop_
_geom_bond_atom_site_label_1
_geom_bond_atom_site_label_2
_geom_bond_site_symmetry_1
_geom_bond_site_symmetry_2
Zn1 O1 1_555 1_555
O2 C2 1_555 1_555
O3 C2 1_555 1_555
N1 Zn1 1_555 1_555
N2 N1 1_555 1_555
C1 N1 1_555 1_555
H1 C1 1_555 1_555
C2 C3 1_555 1_555
C3 C1 1_555 1_555
C4 N2 1_555 1_555
H2 C4 1_555 1_555
Zn1A O2 1_555 1_555
Zn1B N2 1_555 1_555
O2A Zn1 1_555 1_555
O3A Zn1 1_555 1_555
N2B Zn1 1_555 1_555
O3 Zn1A 1_555 1_555
C3 C4 1_555 1_555

#END
