
#######################################################################
#
#                 Cambridge Crystallographic Data Centre
#                                CCDC 
#
#######################################################################
#
# If this CIF has been generated from an entry in the Cambridge 
# Structural Database, then it will include bibliographic, chemical, 
# crystal, experimental, refinement or atomic coordinate data resulting 
# from the CCDC's data processing and validation procedures.
#
#######################################################################

data_WUHMUJ
_symmetry_cell_setting           orthorhombic
_symmetry_space_group_name_H-M   'P n m a'
_symmetry_Int_Tables_number      62
_space_group_name_Hall           '-P 2ac 2n'
loop_
_symmetry_equiv_pos_site_id
_symmetry_equiv_pos_as_xyz
1 x,y,z
2 1/2-x,-y,1/2+z
3 1/2+x,1/2-y,1/2-z
4 -x,1/2+y,-z
5 -x,-y,-z
6 1/2+x,y,1/2-z
7 1/2-x,1/2+y,1/2+z
8 x,1/2-y,z
_cell_length_a                   5.6453(13)
_cell_length_b                   40.200(9)
_cell_length_c                   7.6789(19)
_cell_angle_alpha                90
_cell_angle_beta                 90
_cell_angle_gamma                90
_cell_volume                     1742.66
loop_
_atom_site_label
_atom_site_type_symbol
_atom_site_fract_x
_atom_site_fract_y
_atom_site_fract_z
Co1 Co 0.24110(7) 0.2500 0.42955(5)
O1 O 0.6144(4) 0.2500 0.3383(3)
O2 O -0.2508(3) 0.05899(4) 0.5086(3)
O3 O -0.0504(3) 0.21400(4) 0.5136(2)
O4 O 0.2861(3) 0.19751(4) 0.4036(2)
O5 O 0.3817(5) 0.2500 0.6788(3)
C1 C -0.1487(4) 0.09026(5) 0.5021(3)
C2 C 0.0042(4) 0.15550(5) 0.4808(3)
C3 C 0.0850(4) 0.19064(5) 0.4643(3)
C4 C -0.1129(4) 0.03040(5) 0.5011(3)
C5 C 0.0622(4) 0.09722(5) 0.4183(3)
C6 C -0.2078(4) 0.14794(5) 0.5623(3)
C7 C 0.0998(4) 0.02673(5) 0.5881(3)
C8 C 0.1385(4) 0.13000(5) 0.4103(3)
C9 C -0.2850(4) 0.11534(6) 0.5754(3)
C10 C -0.2121(4) 0.00383(5) 0.4129(3)
H1 H -0.354(5) 0.0072(6) 0.353(3)
H2 H 0.152(5) 0.0799(6) 0.364(3)
H3 H 0.274(4) 0.1346(6) 0.351(3)
H4 H 0.165(5) 0.0444(6) 0.652(3)
H5 H -0.428(5) 0.1100(6) 0.631(3)
H6 H 0.679(5) 0.2660(6) 0.378(3)
H7 H 0.380(6) 0.2638(7) 0.737(4)
H8 H -0.311(5) 0.1652(7) 0.607(4)
H6G H 0.679(5) 0.2340(6) 0.378(3)
O2D O 0.2508(3) -0.05899(4) 0.4914(3)
O3D O 0.0504(3) -0.21400(4) 0.4864(2)
O4D O -0.2861(3) -0.19751(4) 0.5964(2)
C1D C 0.1487(4) -0.09026(5) 0.4979(3)
C2D C -0.0042(4) -0.15550(5) 0.5192(3)
C3D C -0.0850(4) -0.19064(5) 0.5357(3)
C4D C 0.1129(4) -0.03040(5) 0.4989(3)
C5D C -0.0622(4) -0.09722(5) 0.5817(3)
C6D C 0.2078(4) -0.14794(5) 0.4377(3)
C7D C -0.0998(4) -0.02673(5) 0.4119(3)
C8D C -0.1385(4) -0.13000(5) 0.5897(3)
C9D C 0.2850(4) -0.11534(6) 0.4246(3)
C10D C 0.2121(4) -0.00383(5) 0.5871(3)
H1D H 0.354(5) -0.0072(6) 0.647(3)
H2D H -0.152(5) -0.0799(6) 0.636(3)
H3D H -0.274(4) -0.1346(6) 0.649(3)
H4D H -0.165(5) -0.0444(6) 0.348(3)
H5D H 0.428(5) -0.1100(6) 0.369(3)
H8D H 0.311(5) -0.1652(7) 0.393(4)
H7G H 0.380(6) 0.2362(7) 0.737(4)
Co1B Co 0.74110(7) 0.2500 0.07045(5)
Co1C Co -0.24110(7) -0.2500 0.57045(5)
O1B O 0.1144(4) 0.2500 0.1617(3)
O3G O -0.0504(3) 0.28600(4) 0.5136(2)
O4G O 0.2861(3) 0.30249(4) 0.4036(2)
loop_
_geom_bond_atom_site_label_1
_geom_bond_atom_site_label_2
_geom_bond_site_symmetry_1
_geom_bond_site_symmetry_2
Co1 O1 1_555 1_555
O1 H6 1_555 1_555
O2 C1 1_555 1_555
O3 Co1 1_555 1_555
O4 Co1 1_555 1_555
O5 Co1 1_555 1_555
C1 C5 1_555 1_555
C2 C3 1_555 1_555
C3 O3 1_555 1_555
C4 O2 1_555 1_555
C5 C8 1_555 1_555
C6 C2 1_555 1_555
C7 C4 1_555 1_555
C8 C2 1_555 1_555
C9 C1 1_555 1_555
C10 C4 1_555 1_555
H1 C10 1_555 1_555
H2 C5 1_555 1_555
H3 C8 1_555 1_555
H4 C7 1_555 1_555
H5 C9 1_555 1_555
H7 O5 1_555 1_555
H8 C6 1_555 1_555
H6G O1 1_555 1_555
O2D C1D 1_555 1_555
O3D C3D 1_555 1_555
O4D C3D 1_555 1_555
C1D C5D 1_555 1_555
C2D C3D 1_555 1_555
C4D O2D 1_555 1_555
C5D C8D 1_555 1_555
C6D C2D 1_555 1_555
C7D C10 1_555 1_555
C8D C2D 1_555 1_555
C9D C1D 1_555 1_555
C10D C7 1_555 1_555
H1D C10D 1_555 1_555
H2D C5D 1_555 1_555
H3D C8D 1_555 1_555
H4D C7D 1_555 1_555
H5D C9D 1_555 1_555
H8D C6D 1_555 1_555
H7G O5 1_555 1_555
Co1B O1 1_555 1_555
Co1C O3D 1_555 1_555
O1B Co1 1_555 1_555
O3G Co1 1_555 1_555
O4G Co1 1_555 1_555
O4 C3 1_555 1_555
C6 C9 1_555 1_555
O4D Co1C 1_555 1_555
C4D C7D 1_555 1_555
C4D C10D 1_555 1_555
C6D C9D 1_555 1_555

#END
