
#######################################################################
#
#                 Cambridge Crystallographic Data Centre
#                                CCDC 
#
#######################################################################
#
# If this CIF has been generated from an entry in the Cambridge 
# Structural Database, then it will include bibliographic, chemical, 
# crystal, experimental, refinement or atomic coordinate data resulting 
# from the CCDC's data processing and validation procedures.
#
#######################################################################

data_WUHMOD
_symmetry_cell_setting           orthorhombic
_symmetry_space_group_name_H-M   'P n m a'
_symmetry_Int_Tables_number      62
_space_group_name_Hall           '-P 2ac 2n'
loop_
_symmetry_equiv_pos_site_id
_symmetry_equiv_pos_as_xyz
1 x,y,z
2 1/2-x,-y,1/2+z
3 1/2+x,1/2-y,1/2-z
4 -x,1/2+y,-z
5 -x,-y,-z
6 1/2+x,y,1/2-z
7 1/2-x,1/2+y,1/2+z
8 x,1/2-y,z
_cell_length_a                   5.7913(3)
_cell_length_b                   40.564(2)
_cell_length_c                   7.9028(4)
_cell_angle_alpha                90
_cell_angle_beta                 90
_cell_angle_gamma                90
_cell_volume                     1856.51
loop_
_atom_site_label
_atom_site_type_symbol
_atom_site_fract_x
_atom_site_fract_y
_atom_site_fract_z
Cd1 Cd 0.22106(8) 0.2500 0.06446(4)
O1 O 0.0741(12) 0.2500 -0.1997(6)
O2 O 0.3299(8) 0.2500 0.3525(6)
O3 O 0.5199(6) 0.21122(7) -0.0136(4)
O4 O 0.1952(7) 0.19334(10) 0.0958(5)
O5 O 0.7430(6) 0.05847(10) -0.0127(7)
C1 C 0.3924(8) 0.18800(9) 0.0372(5)
C2 C 0.6869(10) 0.14669(13) -0.0595(5)
H1 H 0.7740 0.1639 -0.1039
C3 C 0.4054(10) 0.02597(11) -0.0918(6)
H2 H 0.3429 0.0434 -0.1528
C4 C 0.3548(9) 0.12760(11) 0.0911(5)
H3 H 0.2159 0.1319 0.1458
C5 C 0.4343(10) 0.09537(11) 0.0814(5)
H4 H 0.3514 0.0782 0.1305
C6 C 0.6404(8) 0.08919(9) -0.0032(6)
C7 C 0.4782(8) 0.15340(9) 0.0209(5)
C8 C 0.7661(9) 0.11460(16) -0.0741(6)
H5 H 0.9030 0.1102 -0.1312
C9 C 0.7053(9) 0.00426(15) 0.0873(7)
H6 H 0.8430 0.0073 0.1458
C10 C 0.6109(8) 0.02978(10) -0.0041(6)
H7 H 0.283(8) 0.2627(14) 0.398(7)
H8 H 0.060(16) 0.263(2) -0.257(9)
H8G H 0.060(16) 0.237(2) -0.257(9)
H7G H 0.283(8) 0.2373(14) 0.398(7)
O4D O 0.8048(7) -0.19334(10) -0.0958(5)
O5D O 0.2570(6) -0.05847(10) 0.0127(7)
C1D C 0.6076(8) -0.18800(9) -0.0372(5)
C2D C 0.3131(10) -0.14669(13) 0.0595(5)
H1D H 0.2260 -0.1639 0.1039
C3D C 0.5946(10) -0.02597(11) 0.0918(6)
H2D H 0.6571 -0.0434 0.1528
C4D C 0.6452(9) -0.12760(11) -0.0911(5)
H3D H 0.7841 -0.1319 -0.1458
C5D C 0.5657(10) -0.09537(11) -0.0814(5)
H4D H 0.6486 -0.0782 -0.1305
C6D C 0.3596(8) -0.08919(9) 0.0032(6)
C7D C 0.5218(8) -0.15340(9) -0.0209(5)
C8D C 0.2339(9) -0.11460(16) 0.0741(6)
H5D H 0.0970 -0.1102 0.1312
C9D C 0.2947(9) -0.00426(15) -0.0873(7)
H6D H 0.1570 -0.0073 -0.1458
C10D C 0.3891(8) -0.02978(10) 0.0041(6)
O3D O 0.4801(6) -0.21122(7) 0.0136(4)
Cd1B Cd 0.72106(8) 0.2500 0.43554(4)
Cd1C Cd 0.77894(8) -0.2500 -0.06446(4)
O2B O -0.1701(8) 0.2500 0.1475(6)
O3G O 0.5199(6) 0.28878(7) -0.0136(4)
O4G O 0.1952(7) 0.30666(10) 0.0958(5)
loop_
_geom_bond_atom_site_label_1
_geom_bond_atom_site_label_2
_geom_bond_site_symmetry_1
_geom_bond_site_symmetry_2
Cd1 O1 1_555 1_555
O1 H8 1_555 1_555
O2 Cd1 1_555 1_555
O3 Cd1 1_555 1_555
O4 Cd1 1_555 1_555
O5 C6 1_555 1_555
C1 O3 1_555 1_555
C2 H1 1_555 1_555
C3 H2 1_555 1_555
C4 H3 1_555 1_555
C5 C4 1_555 1_555
H4 C5 1_555 1_555
C6 C5 1_555 1_555
C7 C1 1_555 1_555
C8 C2 1_555 1_555
H5 C8 1_555 1_555
C9 H6 1_555 1_555
C10 O5 1_555 1_555
H7 O2 1_555 1_555
H8G O1 1_555 1_555
H7G O2 1_555 1_555
O4D C1D 1_555 1_555
O5D C6D 1_555 1_555
C1D C7D 1_555 1_555
C2D H1D 1_555 1_555
C3D C9 1_555 1_555
H2D C3D 1_555 1_555
C4D H3D 1_555 1_555
C5D C4D 1_555 1_555
H4D C5D 1_555 1_555
C6D C5D 1_555 1_555
C7D C2D 1_555 1_555
C8D C2D 1_555 1_555
H5D C8D 1_555 1_555
C9D C3 1_555 1_555
H6D C9D 1_555 1_555
C10D O5D 1_555 1_555
O3D C1D 1_555 1_555
Cd1B O2 1_555 1_555
Cd1C O4D 1_555 1_555
O2B Cd1 1_555 1_555
O3G Cd1 1_555 1_555
O4G Cd1 1_555 1_555
O4 C1 1_555 1_555
C2 C7 1_555 1_555
C3 C10 1_555 1_555
C4 C7 1_555 1_555
C6 C8 1_555 1_555
C9 C10 1_555 1_555
C3D C10D 1_555 1_555
C4D C7D 1_555 1_555
C6D C8D 1_555 1_555
C9D C10D 1_555 1_555
O3D Cd1C 1_555 1_555

#END
