
#######################################################################
#
#                 Cambridge Crystallographic Data Centre
#                                CCDC 
#
#######################################################################
#
# If this CIF has been generated from an entry in the Cambridge 
# Structural Database, then it will include bibliographic, chemical, 
# crystal, experimental, refinement or atomic coordinate data resulting 
# from the CCDC's data processing and validation procedures.
#
#######################################################################

data_WUHNAQ01
_symmetry_cell_setting           monoclinic
_symmetry_space_group_name_H-M   'C 2/m'
_symmetry_Int_Tables_number      12
_space_group_name_Hall           '-C 2y'
loop_
_symmetry_equiv_pos_site_id
_symmetry_equiv_pos_as_xyz
1 x,y,z
2 -x,y,-z
3 1/2+x,1/2+y,z
4 1/2-x,1/2+y,-z
5 -x,-y,-z
6 x,-y,z
7 1/2-x,1/2-y,-z
8 1/2+x,1/2-y,z
_cell_length_a                   14.434(2)
_cell_length_b                   19.805(4)
_cell_length_c                   10.6271(13)
_cell_angle_alpha                90
_cell_angle_beta                 130.336(9)
_cell_angle_gamma                90
_cell_volume                     2315.69
loop_
_atom_site_label
_atom_site_type_symbol
_atom_site_fract_x
_atom_site_fract_y
_atom_site_fract_z
Cu1 Cu 0.55524(12) 0.0000 0.65895(15)
O1 O 0.6516(4) 0.0693(3) 0.6544(6)
O2 O 0.5598(4) 0.0681(3) 0.3839(5)
O3 O 1.0308(5) 0.2407(4) 0.6825(6)
N1 N 0.6793(7) 0.0000 0.9264(10)
C1 C 0.6434(6) 0.0867(4) 0.5328(8)
C2 C 0.7424(6) 0.1299(4) 0.5721(9)
C3 C 0.8384(7) 0.1469(5) 0.7343(9)
H1 H 0.8375 0.1336 0.8174
C4 C 0.9370(7) 0.1840(5) 0.7745(9)
H2 H 1.0008 0.1957 0.8837
C5 C 0.9391(6) 0.2032(5) 0.6519(9)
C6 C 0.8431(6) 0.1876(5) 0.4895(8)
H3 H 0.8442 0.2014 0.4069
C7 C 0.7458(6) 0.1517(4) 0.4493(8)
H4 H 0.6812 0.1417 0.3392
C8 C 1.1411(7) 0.2452(6) 0.8458(10)
C9 C 1.1735(8) 0.3059(6) 0.9182(11)
H5 H 1.1234 0.3433 0.8637
C10 C 1.2138(9) 0.1885(6) 0.9203(12)
H6 H 1.1889 0.1474 0.8648
C11 C 0.6506(9) 0.0000 1.0205(12)
H7 H 0.5683 0.0000 0.9678
C12 C 0.7318(13) 0.0000 1.1920(14)
H8 H 0.7038 0.0000 1.2500
C13 C 0.8520(12) 0.0000 1.2727(14)
C14 C 0.8876(10) 0.0000 1.1767(13)
H9 H 0.9695 0.0000 1.2274
C15 C 0.7984(9) 0.0000 1.0042(12)
H10 H 0.8226 0.0000 0.9416
C16 C 0.9429(11) 0.0000 1.4600(15)
H11 H 0.9147 0.0000 1.5178
O1F O 1.8484(4) 0.4307(3) 1.3456(6)
O2F O 1.9402(4) 0.4319(3) 1.6161(5)
O3F O 1.4692(5) 0.2593(4) 1.3175(6)
C1F C 1.8566(6) 0.4133(4) 1.4672(8)
C2F C 1.7576(6) 0.3701(4) 1.4279(9)
C3F C 1.6616(7) 0.3531(5) 1.2657(9)
H1F H 1.6625 0.3664 1.1826
C4F C 1.5630(7) 0.3160(5) 1.2255(9)
H2F H 1.4992 0.3043 1.1163
C5F C 1.5609(6) 0.2968(5) 1.3481(9)
C6F C 1.6569(6) 0.3124(5) 1.5105(8)
H3F H 1.6558 0.2986 1.5931
C7F C 1.7542(6) 0.3483(4) 1.5507(8)
H4F H 1.8188 0.3583 1.6608
C8F C 1.3589(7) 0.2548(6) 1.1542(10)
C9F C 1.3265(8) 0.1941(6) 1.0818(11)
H5F H 1.3766 0.1567 1.1363
C10F C 1.2862(9) 0.3115(6) 1.0797(12)
H6F H 1.3111 0.3526 1.1352
N1A N 1.3207(7) 0.0000 2.0736(10)
C11A C 1.3494(9) 0.0000 1.9795(12)
H7A H 1.4317 0.0000 2.0322
C12A C 1.2682(13) 0.0000 1.8080(14)
H8A H 1.2962 0.0000 1.7500
C13A C 1.1480(12) 0.0000 1.7273(14)
C14A C 1.1124(10) 0.0000 1.8233(13)
H9A H 1.0305 0.0000 1.7726
C15A C 1.2016(9) 0.0000 1.9958(12)
H10A H 1.1774 0.0000 2.0584
C16A C 1.0571(11) 0.0000 1.5400(15)
H11A H 1.0853 0.0000 1.4822
Cu1A Cu 0.44476(12) 0.0000 0.34105(15)
O1A O 0.3484(4) 0.0693(3) 0.3456(6)
O2A O 0.4402(4) 0.0681(3) 0.6161(5)
O3A O -0.0308(5) 0.2407(4) 0.3175(6)
C1A C 0.3566(6) 0.0867(4) 0.4672(8)
C2A C 0.2576(6) 0.1299(4) 0.4279(9)
C3A C 0.1616(7) 0.1469(5) 0.2657(9)
H1A H 0.1625 0.1336 0.1826
C4A C 0.0630(7) 0.1840(5) 0.2255(9)
H2A H -0.0008 0.1957 0.1163
C5A C 0.0609(6) 0.2032(5) 0.3481(9)
C6A C 0.1569(6) 0.1876(5) 0.5105(8)
H3A H 0.1558 0.2014 0.5931
C7A C 0.2542(6) 0.1517(4) 0.5507(8)
H4A H 0.3188 0.1417 0.6608
C8A C -0.1411(7) 0.2452(6) 0.1542(10)
C9A C -0.1735(8) 0.3059(6) 0.0818(11)
H5A H -0.1234 0.3433 0.1363
C10A C -0.2138(9) 0.1885(6) 0.0797(12)
H6A H -0.1889 0.1474 0.1352
O1G O -0.8484(4) 0.4307(3) -0.3456(6)
O2G O -0.9402(4) 0.4319(3) -0.6161(5)
O3G O -0.4692(5) 0.2593(4) -0.3175(6)
C1G C -0.8566(6) 0.4133(4) -0.4672(8)
C2G C -0.7576(6) 0.3701(4) -0.4279(9)
C3G C -0.6616(7) 0.3531(5) -0.2657(9)
H1G H -0.6625 0.3664 -0.1826
C4G C -0.5630(7) 0.3160(5) -0.2255(9)
H2G H -0.4992 0.3043 -0.1163
C5G C -0.5609(6) 0.2968(5) -0.3481(9)
C6G C -0.6569(6) 0.3124(5) -0.5105(8)
H3G H -0.6558 0.2986 -0.5931
C7G C -0.7542(6) 0.3483(4) -0.5507(8)
H4G H -0.8188 0.3583 -0.6608
C8G C -0.3589(7) 0.2548(6) -0.1542(10)
C9G C -0.3265(8) 0.1941(6) -0.0818(11)
H5G H -0.3766 0.1567 -0.1363
C10G C -0.2862(9) 0.3115(6) -0.0797(12)
H6G H -0.3111 0.3526 -0.1352
Cu1A_2 Cu 1.44476(12) 0.0000 2.34105(15)
Cu1B Cu -0.94476(12) 0.5000 -0.34105(15)
Cu1B_2 Cu 2.05524(12) 0.5000 1.65895(15)
Cu1C Cu -1.05524(12) 0.5000 -0.65895(15)
Cu1C_2 Cu 1.94476(12) 0.5000 1.34105(15)
O1D O 0.3484(4) -0.0693(3) 0.3456(6)
O1E O 0.6516(4) -0.0693(3) 0.6544(6)
O2D O 0.4402(4) -0.0681(3) 0.6161(5)
O2E O 0.5598(4) -0.0681(3) 0.3839(5)
N1A_2 N 0.3207(7) 0.0000 0.0736(10)
loop_
_geom_bond_atom_site_label_1
_geom_bond_atom_site_label_2
_geom_bond_site_symmetry_1
_geom_bond_site_symmetry_2
Cu1 O1 1_555 1_555
O1 C1 1_555 1_555
O2 C1 1_555 1_555
O3 C5 1_555 1_555
N1 Cu1 1_555 1_555
C1 C2 1_555 1_555
C2 C3 1_555 1_555
C3 H1 1_555 1_555
C4 C3 1_555 1_555
H2 C4 1_555 1_555
C5 C4 1_555 1_555
C6 C5 1_555 1_555
H3 C6 1_555 1_555
C7 C2 1_555 1_555
H4 C7 1_555 1_555
C8 O3 1_555 1_555
C9 C8 1_555 1_555
H5 C9 1_555 1_555
C10 C8 1_555 1_555
H6 C10 1_555 1_555
C11 N1 1_555 1_555
H7 C11 1_555 1_555
C12 C11 1_555 1_555
H8 C12 1_555 1_555
C13 C12 1_555 1_555
C14 C13 1_555 1_555
H9 C14 1_555 1_555
C15 N1 1_555 1_555
H10 C15 1_555 1_555
C16 C13 1_555 1_555
H11 C16 1_555 1_555
O1F C1F 1_555 1_555
O2F C1F 1_555 1_555
O3F C5F 1_555 1_555
C1F C2F 1_555 1_555
C2F C3F 1_555 1_555
C3F H1F 1_555 1_555
C4F C3F 1_555 1_555
H2F C4F 1_555 1_555
C5F C4F 1_555 1_555
C6F C5F 1_555 1_555
H3F C6F 1_555 1_555
C7F C2F 1_555 1_555
H4F C7F 1_555 1_555
C8F O3F 1_555 1_555
C9F C10 1_555 1_555
H5F C9F 1_555 1_555
C10F C9 1_555 1_555
H6F C10F 1_555 1_555
N1A C11A 1_555 1_555
C11A H7A 1_555 1_555
C12A C11A 1_555 1_555
H8A C12A 1_555 1_555
C13A C12A 1_555 1_555
C14A C13A 1_555 1_555
H9A C14A 1_555 1_555
C15A N1A 1_555 1_555
H10A C15A 1_555 1_555
C16A C16 1_555 1_555
H11A C16A 1_555 1_555
Cu1A Cu1 1_555 1_555
O1A Cu1A 1_555 1_555
O2A Cu1 1_555 1_555
O3A C5A 1_555 1_555
C1A O1A 1_555 1_555
C2A C1A 1_555 1_555
C3A C2A 1_555 1_555
H1A C3A 1_555 1_555
C4A C3A 1_555 1_555
H2A C4A 1_555 1_555
C5A C4A 1_555 1_555
C6A C5A 1_555 1_555
H3A C6A 1_555 1_555
C7A C2A 1_555 1_555
H4A C7A 1_555 1_555
C8A O3A 1_555 1_555
C9A C8A 1_555 1_555
H5A C9A 1_555 1_555
C10A C8A 1_555 1_555
H6A C10A 1_555 1_555
O1G C1G 1_555 1_555
O2G C1G 1_555 1_555
O3G C5G 1_555 1_555
C1G C2G 1_555 1_555
C2G C3G 1_555 1_555
C3G H1G 1_555 1_555
C4G C3G 1_555 1_555
H2G C4G 1_555 1_555
C5G C4G 1_555 1_555
C6G C5G 1_555 1_555
H3G C6G 1_555 1_555
C7G C2G 1_555 1_555
H4G C7G 1_555 1_555
C8G O3G 1_555 1_555
C9G C10A 1_555 1_555
H5G C9G 1_555 1_555
C10G C9A 1_555 1_555
H6G C10G 1_555 1_555
Cu1A_2 N1A 1_555 1_555
Cu1B O1G 1_555 1_555
Cu1B_2 O2F 1_555 1_555
Cu1C O2G 1_555 1_555
Cu1C_2 O1F 1_555 1_555
O1D Cu1A 1_555 1_555
O1E Cu1 1_555 1_555
O2D Cu1 1_555 1_555
O2E Cu1A 1_555 1_555
N1A_2 Cu1A 1_555 1_555
O2 Cu1A 1_555 1_555
C6 C7 1_555 1_555
C14 C15 1_555 1_555
C6F C7F 1_555 1_555
C8F C9F 1_555 1_555
C8F C10F 1_555 1_555
C13A C16A 1_555 1_555
C14A C15A 1_555 1_555
O2A C1A 1_555 1_555
C6A C7A 1_555 1_555
C6G C7G 1_555 1_555
C8G C9G 1_555 1_555
C8G C10G 1_555 1_555
Cu1B Cu1C 1_555 1_555
Cu1B_2 Cu1C_2 1_555 1_555

#END
