
#######################################################################
#
#                 Cambridge Crystallographic Data Centre
#                                CCDC 
#
#######################################################################
#
# If this CIF has been generated from an entry in the Cambridge 
# Structural Database, then it will include bibliographic, chemical, 
# crystal, experimental, refinement or atomic coordinate data resulting 
# from the CCDC's data processing and validation procedures.
#
#######################################################################

data_WUHYOP
_symmetry_cell_setting           monoclinic
_symmetry_space_group_name_H-M   'C 2/c'
_symmetry_Int_Tables_number      15
_space_group_name_Hall           '-C 2yn'
loop_
_symmetry_equiv_pos_site_id
_symmetry_equiv_pos_as_xyz
1 x,y,z
2 -x,y,1/2-z
3 1/2+x,1/2+y,z
4 1/2-x,1/2+y,1/2-z
5 -x,-y,-z
6 x,-y,1/2+z
7 1/2-x,1/2-y,-z
8 1/2+x,1/2-y,1/2+z
_cell_length_a                   19.824(4)
_cell_length_b                   17.458(4)
_cell_length_c                   14.066(3)
_cell_angle_alpha                90
_cell_angle_beta                 114.58(3)
_cell_angle_gamma                90
_cell_volume                     4426.93
loop_
_atom_site_label
_atom_site_type_symbol
_atom_site_fract_x
_atom_site_fract_y
_atom_site_fract_z
Cu1 Cu 0.38324(2) 1.252948(19) 0.06876(3)
O1 O 0.39309(14) 1.17447(13) 0.17279(18)
O2 O 0.27960(14) 1.12741(14) 0.0778(2)
O3 O 0.39408(16) 0.33606(14) 0.1656(2)
O4 O 0.29895(15) 0.31132(16) 0.2069(3)
O5 O 0.51245(15) 1.24600(14) 0.1317(2)
H1 H 0.5255 1.2349 0.0802
H2 H 0.5300 1.2100 0.1801
N1 N 0.36212(16) 0.82138(15) 0.4483(2)
N2 N 0.36949(15) 0.66489(15) 0.4604(2)
C1 C 0.33947(19) 1.12747(18) 0.1568(3)
C2 C 0.35458(19) 1.06757(18) 0.2393(3)
C3 C 0.4276(2) 1.0457(2) 0.3007(3)
H3 H 0.4674 1.0713 0.2931
C4 C 0.4424(2) 0.9868(2) 0.3727(3)
H4 H 0.4921 0.9704 0.4111
C5 C 0.3857(2) 0.95159(19) 0.3896(3)
C6 C 0.3131(2) 0.9747(2) 0.3300(3)
H5 H 0.2736 0.9518 0.3415
C7 C 0.2976(2) 1.0310(2) 0.2536(3)
H6 H 0.2476 1.0444 0.2111
C8 C 0.4041(2) 0.89426(19) 0.4774(3)
H7 H 0.4577 0.8824 0.5053
H8 H 0.3946 0.9184 0.5343
C9 C 0.3767(2) 0.7801(2) 0.3672(3)
H9 H 0.4308 0.7754 0.3882
H10 H 0.3547 0.8081 0.3000
C10 C 0.3420(2) 0.70186(19) 0.3560(3)
H11 H 0.2873 0.7066 0.3264
H12 H 0.3552 0.6701 0.3079
C11 C 0.43638(18) 0.61642(18) 0.4854(3)
H13 H 0.4565 0.6012 0.5599
H14 H 0.4749 0.6466 0.4746
C12 C 0.41887(18) 0.54546(18) 0.4180(3)
C13 C 0.43519(19) 0.54145(18) 0.3310(3)
H15 H 0.4600 0.5829 0.3155
C14 C 0.41536(19) 0.47712(18) 0.2663(3)
H16 H 0.4274 0.4746 0.2077
C15 C 0.37803(18) 0.41665(18) 0.2875(3)
C16 C 0.3618(2) 0.42039(19) 0.3742(3)
H17 H 0.3362 0.3794 0.3889
C17 C 0.3829(2) 0.48384(19) 0.4396(3)
H18 H 0.3726 0.4852 0.4998
C18 C 0.35413(18) 0.34834(17) 0.2141(3)
H19 H 0.3141(11) 0.829(2) 0.423(3)
H20 H 0.3328(19) 0.636(2) 0.460(4)
Cu1_2 Cu 0.38324(2) 0.252948(19) 0.06876(3)
Cu1E Cu 0.38324(2) 0.747052(19) 0.56876(3)
O3_2 O 0.39408(16) 1.33606(14) 0.1656(2)
N1E N 0.36212(16) 1.17862(15) -0.0517(2)
N2E N 0.36949(15) 1.33511(15) -0.0396(2)
O6 O 0.4148(4) 0.8030(5) 0.0007(5)
N3 N 0.3134(4) 0.8503(3) -0.0065(5)
C19 C 0.3463(4) 0.8091(4) -0.0519(5)
H21 H 0.3208 0.7860 -0.1185
C20 C 0.3338(6) 0.8958(5) 0.0790(7)
H22 H 0.3846 0.8832 0.1281
H23 H 0.3000 0.8875 0.1128
H24 H 0.3315 0.9496 0.0579
C21 C 0.2273(6) 0.8596(10) -0.0728(7)
H25 H 0.2160 0.9131 -0.0949
H26 H 0.2009 0.8449 -0.0301
H27 H 0.2114 0.8265 -0.1346
O7 O 0.4573(6) 0.7082(5) 0.1912(8)
loop_
_geom_bond_atom_site_label_1
_geom_bond_atom_site_label_2
_geom_bond_site_symmetry_1
_geom_bond_site_symmetry_2
Cu1 O1 1_555 1_555
O1 C1 1_555 1_555
O2 C1 1_555 1_555
O3 C18 1_555 1_555
O4 C18 1_555 1_555
O5 Cu1 1_555 1_555
H1 O5 1_555 1_555
H2 O5 1_555 1_555
N1 C8 1_555 1_555
N2 C10 1_555 1_555
C1 C2 1_555 1_555
C2 C3 1_555 1_555
C3 H3 1_555 1_555
C4 C3 1_555 1_555
H4 C4 1_555 1_555
C5 C4 1_555 1_555
C6 C5 1_555 1_555
H5 C6 1_555 1_555
C7 C2 1_555 1_555
H6 C7 1_555 1_555
C8 C5 1_555 1_555
H7 C8 1_555 1_555
H8 C8 1_555 1_555
C9 N1 1_555 1_555
H9 C9 1_555 1_555
H10 C9 1_555 1_555
C10 C9 1_555 1_555
H11 C10 1_555 1_555
H12 C10 1_555 1_555
C11 N2 1_555 1_555
H13 C11 1_555 1_555
H14 C11 1_555 1_555
C12 C11 1_555 1_555
C13 C12 1_555 1_555
H15 C13 1_555 1_555
C14 C13 1_555 1_555
H16 C14 1_555 1_555
C15 C14 1_555 1_555
C16 C15 1_555 1_555
H17 C16 1_555 1_555
C17 C12 1_555 1_555
H18 C17 1_555 1_555
C18 C15 1_555 1_555
H19 N1 1_555 1_555
H20 N2 1_555 1_555
O6 C19 1_555 1_555
N3 C19 1_555 1_555
C19 H21 1_555 1_555
C20 N3 1_555 1_555
H22 C20 1_555 1_555
H23 C20 1_555 1_555
H24 C20 1_555 1_555
C21 N3 1_555 1_555
H25 C21 1_555 1_555
H26 C21 1_555 1_555
H27 C21 1_555 1_555
Cu1_2 O3 1_555 1_555
Cu1E N1 1_555 1_555
O3_2 Cu1 1_555 1_555
N1E Cu1 1_555 1_555
N2E Cu1 1_555 1_555
N2 Cu1E 1_555 1_555
C6 C7 1_555 1_555
C16 C17 1_555 1_555

#END
