
#######################################################################
#
#                 Cambridge Crystallographic Data Centre
#                                CCDC 
#
#######################################################################
#
# If this CIF has been generated from an entry in the Cambridge 
# Structural Database, then it will include bibliographic, chemical, 
# crystal, experimental, refinement or atomic coordinate data resulting 
# from the CCDC's data processing and validation procedures.
#
#######################################################################

data_WUHZIK
_symmetry_cell_setting           monoclinic
_symmetry_space_group_name_H-M   'P 21/n'
_symmetry_Int_Tables_number      14
_space_group_name_Hall           '-P 2yn'
loop_
_symmetry_equiv_pos_site_id
_symmetry_equiv_pos_as_xyz
1 x,y,z
2 1/2-x,1/2+y,1/2-z
3 -x,-y,-z
4 1/2+x,1/2-y,1/2+z
_cell_length_a                   15.481(5)
_cell_length_b                   15.415(5)
_cell_length_c                   15.994(5)
_cell_angle_alpha                90
_cell_angle_beta                 118.221(5)
_cell_angle_gamma                90
_cell_volume                     3363.1
loop_
_atom_site_label
_atom_site_type_symbol
_atom_site_fract_x
_atom_site_fract_y
_atom_site_fract_z
C1 C -0.1406(2) 0.15571(16) -0.0684(2)
C2 C -0.16818(19) 0.23677(16) -0.1285(2)
C3 C -0.1410(2) 0.24114(18) -0.1982(2)
H1 H -0.0964 0.2011 -0.1990
C4 C -0.1796(2) 0.30549(19) -0.2688(2)
H2 H -0.1606 0.3072 -0.3159
C5 C -0.24482(19) 0.36568(17) -0.26925(19)
C6 C -0.26621(19) 0.36929(16) -0.1922(2)
C7 C -0.22794(19) 0.30361(17) -0.1207(2)
C8 C -0.2493(2) 0.3093(2) -0.0439(2)
H3 H -0.2249 0.2671 0.0032
C9 C -0.3046(3) 0.3748(2) -0.0377(3)
H4 H -0.3181 0.3768 0.0131
C10 C -0.3413(2) 0.4395(2) -0.1075(2)
H5 H -0.3784 0.4846 -0.1023
C11 C -0.3232(2) 0.43701(18) -0.1826(2)
H6 H -0.3485 0.4803 -0.2285
C12 C -0.1520(2) 0.1267(2) 0.1897(2)
C13 C -0.2632(2) 0.2394(2) 0.1905(2)
H7 H -0.2889 0.2403 0.1249
C14 C -0.3039(2) 0.2933(2) 0.2333(2)
H8 H -0.3560 0.3296 0.1959
C15 C -0.1863(2) 0.18558(19) 0.2434(2)
C16 C -0.1470(2) 0.18294(18) 0.3440(2)
C17 C -0.2680(2) 0.29303(18) 0.3295(2)
C18 C -0.1885(2) 0.23822(18) 0.3875(2)
C19 C -0.3130(2) 0.3560(2) 0.3699(3)
C20 C -0.0708(2) 0.1260(2) 0.4018(2)
H9 H -0.0435 0.0897 0.3741
C21 C -0.0363(3) 0.1232(3) 0.4974(3)
H10 H 0.0138 0.0849 0.5341
C22 C -0.0762(3) 0.1780(3) 0.5409(3)
H11 H -0.0522 0.1761 0.6062
C23 C -0.1495(3) 0.2334(2) 0.4875(2)
H12 H -0.1750 0.2693 0.5172
C24 C -0.29650(19) 0.42294(17) -0.3559(2)
C25 C -0.4439(2) -0.0176(2) -0.1161(2)
H13 H -0.4268 -0.0665 -0.1392
C26 C -0.4356(3) 0.0972(2) -0.0395(3)
H14 H -0.4110 0.1442 0.0016
C27 C -0.5316(3) 0.0788(3) -0.0938(3)
H15 H -0.5843 0.1105 -0.0971
C28 C -0.6265(3) -0.0360(3) -0.2126(3)
H16 H -0.6765 -0.0310 -0.1925
H17 H -0.6139 -0.0973 -0.2157
C29 C -0.6643(3) 0.0028(4) -0.3092(4)
H18 H -0.7301 -0.0192 -0.3484
H19 H -0.6697 0.0649 -0.3034
C30 C -0.6071(4) -0.0121(5) -0.3611(5)
H20 H -0.6154 0.0381 -0.4008
H21 H -0.5382 -0.0153 -0.3148
C31 C -0.6309(5) -0.0860(4) -0.4179(6)
H22 H -0.7015 -0.0861 -0.4570
H23 H -0.6147 -0.1357 -0.3759
C32 C -0.5871(4) -0.1027(4) -0.4831(4)
H24 H -0.5856 -0.0482 -0.5127
H25 H -0.5197 -0.1213 -0.4446
C33 C -0.6331(6) -0.1624(7) -0.5528(6)
H26 H -0.7021 -0.1470 -0.5865
H27 H -0.6287 -0.2180 -0.5226
C34 C -0.5497(3) -0.2423(3) -0.6272(3)
H28 H -0.5277 -0.2868 -0.5826
C35 C -0.5814(4) -0.1639(4) -0.7490(4)
H29 H -0.5854 -0.1435 -0.8054
C36 C -0.6190(4) -0.1272(3) -0.6987(5)
H30 H -0.6541 -0.0755 -0.7139
N1 N -0.37996(17) 0.03641(16) -0.05426(18)
N2 N -0.53656(19) 0.00590(18) -0.1422(2)
N3 N -0.5991(3) -0.1750(3) -0.6246(3)
N4 N -0.5352(2) -0.2384(2) -0.7012(3)
O1 O -0.25416(18) 0.40321(17) 0.4353(2)
O2 O -0.40367(17) 0.35820(17) 0.3347(2)
O3 O -0.21831(17) 0.08447(19) 0.12480(19)
O4 O -0.06315(16) 0.12265(16) 0.21179(17)
O5 O -0.20100(17) 0.12912(15) -0.0434(2)
O6 O -0.06052(14) 0.12093(12) -0.04970(15)
O7 O -0.06728(13) -0.00546(11) 0.08903(13)
H31 H -0.0376 0.0378 0.1386
H32 H -0.0552 -0.0620 0.1191
O8 O -0.38607(14) 0.43331(13) -0.38889(14)
O9 O -0.24447(17) 0.4533(2) -0.3878(2)
Co1 Co 0.0000 0.0000 0.0000
Co2 Co -0.22709(2) 0.01743(2) 0.01009(2)
H33 H -0.508(6) -0.289(5) -0.713(6)
C1B C 0.1406(2) -0.15571(16) 0.0684(2)
C2B C 0.16818(19) -0.23677(16) 0.1285(2)
C3B C 0.1410(2) -0.24114(18) 0.1982(2)
H1B H 0.0964 -0.2011 0.1990
C4B C 0.1796(2) -0.30549(19) 0.2688(2)
H2B H 0.1606 -0.3072 0.3159
C5B C 0.24482(19) -0.36568(17) 0.26925(19)
C6B C 0.26621(19) -0.36929(16) 0.1922(2)
C7B C 0.22794(19) -0.30361(17) 0.1207(2)
C8B C 0.2493(2) -0.3093(2) 0.0439(2)
H3B H 0.2249 -0.2671 -0.0032
C9B C 0.3046(3) -0.3748(2) 0.0377(3)
H4B H 0.3181 -0.3768 -0.0131
C10B C 0.3413(2) -0.4395(2) 0.1075(2)
H5B H 0.3784 -0.4846 0.1023
C11B C 0.3232(2) -0.43701(18) 0.1826(2)
H6B H 0.3485 -0.4803 0.2285
C12B C 0.1520(2) -0.1267(2) -0.1897(2)
C13B C 0.2632(2) -0.2394(2) -0.1905(2)
H7B H 0.2889 -0.2403 -0.1249
C14B C 0.3039(2) -0.2933(2) -0.2333(2)
H8B H 0.3560 -0.3296 -0.1959
C15B C 0.1863(2) -0.18558(19) -0.2434(2)
C16B C 0.1470(2) -0.18294(18) -0.3440(2)
C17B C 0.2680(2) -0.29303(18) -0.3295(2)
C18B C 0.1885(2) -0.23822(18) -0.3875(2)
C19B C 0.3130(2) -0.3560(2) -0.3699(3)
C20B C 0.0708(2) -0.1260(2) -0.4018(2)
H9B H 0.0435 -0.0897 -0.3741
C21B C 0.0363(3) -0.1232(3) -0.4974(3)
H10B H -0.0138 -0.0849 -0.5341
C22B C 0.0762(3) -0.1780(3) -0.5409(3)
H11B H 0.0522 -0.1761 -0.6062
C23B C 0.1495(3) -0.2334(2) -0.4875(2)
H12B H 0.1750 -0.2693 -0.5172
C24B C 0.29650(19) -0.42294(17) 0.3559(2)
C25B C 0.4439(2) 0.0176(2) 0.1161(2)
H13B H 0.4268 0.0665 0.1392
C26B C 0.4356(3) -0.0972(2) 0.0395(3)
H14B H 0.4110 -0.1442 -0.0016
C27B C 0.5316(3) -0.0788(3) 0.0938(3)
H15B H 0.5843 -0.1105 0.0971
C28B C 0.6265(3) 0.0360(3) 0.2126(3)
H16B H 0.6765 0.0310 0.1925
H17B H 0.6139 0.0973 0.2157
C29B C 0.6643(3) -0.0028(4) 0.3092(4)
H18B H 0.7301 0.0192 0.3484
H19B H 0.6697 -0.0649 0.3034
C30B C 0.6071(4) 0.0121(5) 0.3611(5)
H20B H 0.6154 -0.0381 0.4008
H21B H 0.5382 0.0153 0.3148
C31B C 0.6309(5) 0.0860(4) 0.4179(6)
H22B H 0.7015 0.0861 0.4570
H23B H 0.6147 0.1357 0.3759
C32B C 0.5871(4) 0.1027(4) 0.4831(4)
H24B H 0.5856 0.0482 0.5127
H25B H 0.5197 0.1213 0.4446
C33B C 0.6331(6) 0.1624(7) 0.5528(6)
H26B H 0.7021 0.1470 0.5865
H27B H 0.6287 0.2180 0.5226
C34B C 0.5497(3) 0.2423(3) 0.6272(3)
H28B H 0.5277 0.2868 0.5826
C35B C 0.5814(4) 0.1639(4) 0.7490(4)
H29B H 0.5854 0.1435 0.8054
C36B C 0.6190(4) 0.1272(3) 0.6987(5)
H30B H 0.6541 0.0755 0.7139
N1B N 0.37996(17) -0.03641(16) 0.05426(18)
N2B N 0.53656(19) -0.00590(18) 0.1422(2)
N3B N 0.5991(3) 0.1750(3) 0.6246(3)
N4B N 0.5352(2) 0.2384(2) 0.7012(3)
O1B O 0.25416(18) -0.40321(17) -0.4353(2)
O2B O 0.40367(17) -0.35820(17) -0.3347(2)
O3B O 0.21831(17) -0.08447(19) -0.12480(19)
O4B O 0.06315(16) -0.12265(16) -0.21179(17)
O5B O 0.20100(17) -0.12912(15) 0.0434(2)
O6B O 0.06052(14) -0.12093(12) 0.04970(15)
O7B O 0.06728(13) 0.00546(11) -0.08903(13)
H31B H 0.0376 -0.0378 -0.1386
H32B H 0.0552 0.0620 -0.1191
O8B O 0.38607(14) -0.43331(13) 0.38889(14)
O9B O 0.24447(17) -0.4533(2) 0.3878(2)
Co2B Co 0.22709(2) -0.01743(2) -0.01009(2)
H33B H 0.508(6) 0.289(5) 0.713(6)
O1A O -0.24584(18) -0.09679(17) 0.0647(2)
O1C O 0.24584(18) 0.09679(17) -0.0647(2)
O8A O -0.11393(14) -0.06669(13) -0.11111(14)
O8C O 0.11393(14) 0.06669(13) 0.11111(14)
O9A O -0.25553(17) -0.0467(2) -0.1122(2)
O9C O 0.25553(17) 0.0467(2) 0.1122(2)
Co1A Co -0.5000 0.5000 -0.5000
Co1A_2 Co 0.5000 -0.5000 0.5000
Co2A Co -0.27291(2) 0.51743(2) -0.51009(2)
Co2A_2 Co -0.27291(2) 0.51743(2) 0.48991(2)
Co2C Co 0.27291(2) -0.51743(2) -0.48991(2)
Co2C_2 Co 0.27291(2) -0.51743(2) 0.51009(2)
loop_
_geom_bond_atom_site_label_1
_geom_bond_atom_site_label_2
_geom_bond_site_symmetry_1
_geom_bond_site_symmetry_2
C1 C2 1_555 1_555
C2 C3 1_555 1_555
C3 H1 1_555 1_555
C4 C3 1_555 1_555
H2 C4 1_555 1_555
C5 C4 1_555 1_555
C6 C5 1_555 1_555
C7 C2 1_555 1_555
C8 C7 1_555 1_555
H3 C8 1_555 1_555
C9 C8 1_555 1_555
H4 C9 1_555 1_555
C10 C9 1_555 1_555
H5 C10 1_555 1_555
C11 C6 1_555 1_555
H6 C11 1_555 1_555
C12 C15 1_555 1_555
C13 H7 1_555 1_555
C14 C13 1_555 1_555
H8 C14 1_555 1_555
C15 C13 1_555 1_555
C16 C15 1_555 1_555
C17 C14 1_555 1_555
C18 C16 1_555 1_555
C19 C17 1_555 1_555
C20 C16 1_555 1_555
H9 C20 1_555 1_555
C21 C20 1_555 1_555
H10 C21 1_555 1_555
C22 C21 1_555 1_555
H11 C22 1_555 1_555
C23 C18 1_555 1_555
H12 C23 1_555 1_555
C24 C5 1_555 1_555
C25 H13 1_555 1_555
C26 H14 1_555 1_555
C27 C26 1_555 1_555
H15 C27 1_555 1_555
C28 H16 1_555 1_555
H17 C28 1_555 1_555
C29 C28 1_555 1_555
H18 C29 1_555 1_555
H19 C29 1_555 1_555
C30 C29 1_555 1_555
H20 C30 1_555 1_555
H21 C30 1_555 1_555
C31 C30 1_555 1_555
H22 C31 1_555 1_555
H23 C31 1_555 1_555
C32 C31 1_555 1_555
H24 C32 1_555 1_555
H25 C32 1_555 1_555
C33 C32 1_555 1_555
H26 C33 1_555 1_555
H27 C33 1_555 1_555
C34 H28 1_555 1_555
C35 H29 1_555 1_555
C36 C35 1_555 1_555
H30 C36 1_555 1_555
N1 C25 1_555 1_555
N2 C25 1_555 1_555
N3 C33 1_555 1_555
N4 C34 1_555 1_555
O1 C19 1_555 1_555
O2 C19 1_555 1_555
O3 C12 1_555 1_555
O4 C12 1_555 1_555
O5 C1 1_555 1_555
O6 C1 1_555 1_555
O7 H31 1_555 1_555
H32 O7 1_555 1_555
O8 C24 1_555 1_555
O9 C24 1_555 1_555
Co1 O6 1_555 1_555
Co2 N1 1_555 1_555
H33 N4 1_555 1_555
C1B C2B 1_555 1_555
C2B C3B 1_555 1_555
C3B H1B 1_555 1_555
C4B C3B 1_555 1_555
H2B C4B 1_555 1_555
C5B C4B 1_555 1_555
C6B C5B 1_555 1_555
C7B C2B 1_555 1_555
C8B C7B 1_555 1_555
H3B C8B 1_555 1_555
C9B C8B 1_555 1_555
H4B C9B 1_555 1_555
C10B C9B 1_555 1_555
H5B C10B 1_555 1_555
C11B C6B 1_555 1_555
H6B C11B 1_555 1_555
C12B C15B 1_555 1_555
C13B H7B 1_555 1_555
C14B C13B 1_555 1_555
H8B C14B 1_555 1_555
C15B C13B 1_555 1_555
C16B C15B 1_555 1_555
C17B C14B 1_555 1_555
C18B C16B 1_555 1_555
C19B C17B 1_555 1_555
C20B C16B 1_555 1_555
H9B C20B 1_555 1_555
C21B C20B 1_555 1_555
H10B C21B 1_555 1_555
C22B C21B 1_555 1_555
H11B C22B 1_555 1_555
C23B C18B 1_555 1_555
H12B C23B 1_555 1_555
C24B C5B 1_555 1_555
C25B H13B 1_555 1_555
C26B H14B 1_555 1_555
C27B C26B 1_555 1_555
H15B C27B 1_555 1_555
C28B H16B 1_555 1_555
H17B C28B 1_555 1_555
C29B C28B 1_555 1_555
H18B C29B 1_555 1_555
H19B C29B 1_555 1_555
C30B C29B 1_555 1_555
H20B C30B 1_555 1_555
H21B C30B 1_555 1_555
C31B C30B 1_555 1_555
H22B C31B 1_555 1_555
H23B C31B 1_555 1_555
C32B C31B 1_555 1_555
H24B C32B 1_555 1_555
H25B C32B 1_555 1_555
C33B C32B 1_555 1_555
H26B C33B 1_555 1_555
H27B C33B 1_555 1_555
C34B H28B 1_555 1_555
C35B H29B 1_555 1_555
C36B C35B 1_555 1_555
H30B C36B 1_555 1_555
N1B C25B 1_555 1_555
N2B C25B 1_555 1_555
N3B C33B 1_555 1_555
N4B C34B 1_555 1_555
O1B C19B 1_555 1_555
O2B C19B 1_555 1_555
O3B C12B 1_555 1_555
O4B C12B 1_555 1_555
O5B C1B 1_555 1_555
O6B Co1 1_555 1_555
O7B Co1 1_555 1_555
H31B O7B 1_555 1_555
H32B O7B 1_555 1_555
O8B C24B 1_555 1_555
O9B C24B 1_555 1_555
Co2B N1B 1_555 1_555
H33B N4B 1_555 1_555
O1A Co2 1_555 1_555
O1C Co2B 1_555 1_555
O8A Co1 1_555 1_555
O8C Co1 1_555 1_555
O9A Co2 1_555 1_555
O9C Co2B 1_555 1_555
Co1A O8 1_555 1_555
Co1A_2 O8B 1_555 1_555
Co2A O9 1_555 1_555
Co2A_2 O1 1_555 1_555
Co2C O1B 1_555 1_555
Co2C_2 O9B 1_555 1_555
C6 C7 1_555 1_555
C10 C11 1_555 1_555
C17 C18 1_555 1_555
C22 C23 1_555 1_555
C26 N1 1_555 1_555
C27 N2 1_555 1_555
C28 N2 1_555 1_555
C34 N3 1_555 1_555
C35 N4 1_555 1_555
C36 N3 1_555 1_555
O3 Co2 1_555 1_555
O5 Co2 1_555 1_555
O7 Co1 1_555 1_555
O7 Co2 1_555 1_555
C1B O6B 1_555 1_555
C6B C7B 1_555 1_555
C10B C11B 1_555 1_555
C17B C18B 1_555 1_555
C22B C23B 1_555 1_555
C26B N1B 1_555 1_555
C27B N2B 1_555 1_555
C28B N2B 1_555 1_555
C34B N3B 1_555 1_555
C35B N4B 1_555 1_555
C36B N3B 1_555 1_555
O3B Co2B 1_555 1_555
O5B Co2B 1_555 1_555
O7B Co2B 1_555 1_555

#END
