
#######################################################################
#
#                 Cambridge Crystallographic Data Centre
#                                CCDC 
#
#######################################################################
#
# If this CIF has been generated from an entry in the Cambridge 
# Structural Database, then it will include bibliographic, chemical, 
# crystal, experimental, refinement or atomic coordinate data resulting 
# from the CCDC's data processing and validation procedures.
#
#######################################################################

data_WUJBOT
_symmetry_cell_setting           monoclinic
_symmetry_space_group_name_H-M   'C 2/c'
_symmetry_Int_Tables_number      15
_space_group_name_Hall           '-C 2yn'
loop_
_symmetry_equiv_pos_site_id
_symmetry_equiv_pos_as_xyz
1 x,y,z
2 -x,y,1/2-z
3 1/2+x,1/2+y,z
4 1/2-x,1/2+y,1/2-z
5 -x,-y,-z
6 x,-y,1/2+z
7 1/2-x,1/2-y,-z
8 1/2+x,1/2-y,1/2+z
_cell_length_a                   11.1738(10)
_cell_length_b                   11.5606(12)
_cell_length_c                   11.4572(10)
_cell_angle_alpha                90
_cell_angle_beta                 112.087(9)
_cell_angle_gamma                90
_cell_volume                     1371.38
loop_
_atom_site_label
_atom_site_type_symbol
_atom_site_fract_x
_atom_site_fract_y
_atom_site_fract_z
Fe1 Fe 0.5000 0.01523(3) 0.7500
N1 N 0.5000 0.20682(19) 0.7500
N2 N 0.5000 0.8224(2) 0.7500
C1 C 0.5790(2) 0.26766(18) 0.7094(2)
H1 H 0.6351 0.2275 0.6813
C2 C 0.5811(2) 0.38761(17) 0.7073(2)
H2 H 0.6368 0.4259 0.6773
C3 C 0.5000 0.4503(2) 0.7500
C4 C 0.5000 0.5787(2) 0.7500
C5 C 0.4757(3) 0.64152(18) 0.8419(2)
H3 H 0.4583 0.6034 0.9053
C6 C 0.4774(3) 0.76106(19) 0.8387(2)
H4 H 0.4619 0.8012 0.9019
N3 N 0.38291(18) -0.01469(14) 0.35795(18)
C7 C 0.34357(19) -0.00203(15) 0.4369(2)
S1 S 0.28875(6) 0.01838(7) 0.54959(6)
Fe1_2 Fe 0.5000 1.01523(3) 0.7500
Fe1D Fe 0.5000 -0.01523(3) 0.2500
Fe1D_2 Fe 0.5000 -0.01523(3) 1.2500
N2_2 N 0.5000 -0.1776(2) 0.7500
C1A C 0.4210(2) 0.26766(18) 0.7906(2)
H1A H 0.3649 0.2275 0.8187
C2A C 0.4189(2) 0.38761(17) 0.7927(2)
H2A H 0.3632 0.4259 0.8227
C5A C 0.5243(3) 0.64152(18) 0.6581(2)
H3A H 0.5417 0.6034 0.5947
C6A C 0.5226(3) 0.76106(19) 0.6613(2)
H4A H 0.5381 0.8012 0.5981
N3A N 0.61709(18) -0.01469(14) 1.14205(18)
N3D N 0.61709(18) 0.01469(14) 0.64205(18)
N3E N 0.38291(18) 0.01469(14) 0.85795(18)
C7A C 0.65643(19) -0.00203(15) 1.0631(2)
S1A S 0.71125(6) 0.01838(7) 0.95041(6)
loop_
_geom_bond_atom_site_label_1
_geom_bond_atom_site_label_2
_geom_bond_site_symmetry_1
_geom_bond_site_symmetry_2
Fe1 N1 1_555 1_555
N1 C1 1_555 1_555
N2 C6 1_555 1_555
C1 H1 1_555 1_555
C2 C1 1_555 1_555
H2 C2 1_555 1_555
C3 C2 1_555 1_555
C4 C3 1_555 1_555
C5 C4 1_555 1_555
H3 C5 1_555 1_555
C6 C5 1_555 1_555
H4 C6 1_555 1_555
N3 C7 1_555 1_555
C7 S1 1_555 1_555
S1 Fe1 1_555 1_555
Fe1_2 N2 1_555 1_555
Fe1D N3 1_555 1_555
Fe1D_2 N3A 1_555 1_555
N2_2 Fe1 1_555 1_555
C1A N1 1_555 1_555
H1A C1A 1_555 1_555
C2A C3 1_555 1_555
H2A C2A 1_555 1_555
C5A C4 1_555 1_555
H3A C5A 1_555 1_555
C6A N2 1_555 1_555
H4A C6A 1_555 1_555
N3A C7A 1_555 1_555
N3D Fe1 1_555 1_555
N3E Fe1 1_555 1_555
C7A S1A 1_555 1_555
S1A Fe1 1_555 1_555
C1A C2A 1_555 1_555
C5A C6A 1_555 1_555

#END
