
#######################################################################
#
#                 Cambridge Crystallographic Data Centre
#                                CCDC 
#
#######################################################################
#
# If this CIF has been generated from an entry in the Cambridge 
# Structural Database, then it will include bibliographic, chemical, 
# crystal, experimental, refinement or atomic coordinate data resulting 
# from the CCDC's data processing and validation procedures.
#
#######################################################################

data_WUJDIO
_symmetry_cell_setting           monoclinic
_symmetry_space_group_name_H-M   'C 2/c'
_symmetry_Int_Tables_number      15
_space_group_name_Hall           '-C 2yn'
loop_
_symmetry_equiv_pos_site_id
_symmetry_equiv_pos_as_xyz
1 x,y,z
2 1/2+x,1/2+y,z
3 x,-y,1/2+z
4 1/2+x,1/2-y,1/2+z
5 -x,-y,-z
6 1/2-x,1/2-y,-z
7 -x,y,1/2-z
8 1/2-x,1/2+y,1/2-z
_cell_length_a                   25.8219(9)
_cell_length_b                   9.2948(4)
_cell_length_c                   18.6918(7)
_cell_angle_alpha                90
_cell_angle_beta                 132.0720(10)
_cell_angle_gamma                90
_cell_volume                     3330.13
loop_
_atom_site_label
_atom_site_type_symbol
_atom_site_fract_x
_atom_site_fract_y
_atom_site_fract_z
N1 N 0.12637(17) 0.5793(4) 0.1329(2)
C1 C 0.0815(2) 0.6583(5) 0.1292(3)
H1 H 0.0854 0.7579 0.1306
C2 C 0.0691(2) 0.3700(5) 0.1251(3)
H2 H 0.0666 0.2701 0.1241
C3 C 0.0222(2) 0.4522(5) 0.1209(3)
C4 C 0.1195(2) 0.4368(5) 0.1309(3)
H3 H 0.1503 0.3795 0.1336
C5 C -0.0319(2) 0.3756(5) 0.1160(3)
H4 H -0.0566 0.3079 0.0629
H5 H -0.0077 0.3204 0.1748
C6 C 0.0297(2) 0.5996(5) 0.1233(3)
H6 H -0.0003 0.6595 0.1210
O1 O 0.29199(15) 0.6468(3) 0.3366(2)
C7 C 0.3465(2) 0.5706(5) 0.3872(3)
C8 C -0.0846(2) 0.4691(5) 0.1036(4)
H7 H -0.1132 0.5141 0.0406
H8 H -0.0600 0.5452 0.1513
O2 O 0.36627(17) 0.4943(4) 0.3542(2)
C9 C 0.4589(2) 0.5201(5) 0.5557(3)
H9 H 0.4754 0.4792 0.5288
C10 C 0.4088(2) 0.6320(4) 0.6355(3)
H10 H 0.3910 0.6667 0.6621
C11 C 0.3668(2) 0.6334(4) 0.5362(3)
H11 H 0.3222 0.6727 0.4970
C12 C 0.3920(2) 0.5753(4) 0.4954(3)
C13 C 0.4774(2) 0.5793(4) 0.6969(3)
C14 C 0.5021(2) 0.5239(5) 0.6550(3)
H12 H 0.5476 0.4895 0.6939
C15 C -0.1322(2) 0.3942(5) 0.1122(3)
C16 C -0.1389(2) 0.2462(5) 0.1109(3)
H13 H -0.1140 0.1871 0.1030
C17 C -0.1716(2) 0.4745(5) 0.1226(3)
H14 H -0.1698 0.5745 0.1224
C18 C -0.1825(2) 0.1861(5) 0.1213(3)
H15 H -0.1861 0.0864 0.1201
N2 N -0.21984(17) 0.2650(4) 0.1330(2)
C19 C -0.2137(2) 0.4071(5) 0.1334(3)
H16 H -0.2391 0.4642 0.1413
Ag1 Ag 0.218239(17) 0.66448(4) 0.16047(3)
C13F C 0.5226(2) 0.5793(4) 0.8031(3)
C10F C 0.5912(2) 0.6320(4) 0.8645(3)
H10F H 0.6090 0.6667 0.8379
C11F C 0.6332(2) 0.6334(4) 0.9638(3)
H11F H 0.6778 0.6727 1.0030
C12F C 0.6080(2) 0.5753(4) 1.0046(3)
C7F C 0.6535(2) 0.5706(5) 1.1128(3)
O1F O 0.70801(15) 0.6468(3) 1.1634(2)
Ag1F Ag 0.781761(17) 0.66448(4) 1.33953(3)
N1F N 0.87363(17) 0.5793(4) 1.3671(2)
C1F C 0.9185(2) 0.6583(5) 1.3708(3)
H1F H 0.9146 0.7579 1.3694
C6F C 0.9703(2) 0.5996(5) 1.3767(3)
C3F C 0.9778(2) 0.4522(5) 1.3791(3)
C2F C 0.9309(2) 0.3700(5) 1.3749(3)
H2F H 0.9334 0.2701 1.3759
C4F C 0.8805(2) 0.4368(5) 1.3691(3)
H3F H 0.8497 0.3795 1.3664
C5F C 1.0319(2) 0.3756(5) 1.3840(3)
H4F H 1.0566 0.3079 1.4371
H5F H 1.0077 0.3204 1.3252
C8F C 1.0846(2) 0.4691(5) 1.3964(4)
H7F H 1.1132 0.5141 1.4594
H8F H 1.0600 0.5452 1.3487
C15F C 1.1322(2) 0.3942(5) 1.3878(3)
C16F C 1.1389(2) 0.2462(5) 1.3891(3)
H13F H 1.1140 0.1871 1.3970
C18F C 1.1825(2) 0.1861(5) 1.3787(3)
H15F H 1.1861 0.0864 1.3799
N2F N 1.21984(17) 0.2650(4) 1.3670(2)
C19F C 1.2137(2) 0.4071(5) 1.3666(3)
C17F C 1.1716(2) 0.4745(5) 1.3774(3)
H14F H 1.1698 0.5745 1.3776
H16F H 1.2391 0.4642 1.3587
Ag1G Ag 1.281761(17) 0.16448(4) 1.33953(3)
H6F H 1.0003 0.6595 1.3790
N2G N 0.71984(17) 0.7650(4) 1.3670(2)
O2F O 0.63373(17) 0.4943(4) 1.1458(2)
C9F C 0.5411(2) 0.5201(5) 0.9443(3)
H9F H 0.5246 0.4792 0.9712
C14F C 0.4979(2) 0.5239(5) 0.8450(3)
H12F H 0.4524 0.4895 0.8061
N2A N 0.28016(17) 0.7650(4) 0.1330(2)
Ag1A Ag -0.281761(17) 0.16448(4) 0.16047(3)
O3 O 0.2230(3) 0.8884(6) 0.3348(3)
H17 H 0.191(4) 0.908(8) 0.268(5)
H18 H 0.237(3) 0.826(6) 0.334(5)
loop_
_geom_bond_atom_site_label_1
_geom_bond_atom_site_label_2
_geom_bond_site_symmetry_1
_geom_bond_site_symmetry_2
N1 C1 1_555 1_555
C1 H1 1_555 1_555
C2 H2 1_555 1_555
C3 C2 1_555 1_555
C4 N1 1_555 1_555
H3 C4 1_555 1_555
C5 C3 1_555 1_555
H4 C5 1_555 1_555
H5 C5 1_555 1_555
C6 C1 1_555 1_555
H6 C6 1_555 1_555
O1 C7 1_555 1_555
C7 O2 1_555 1_555
C8 C5 1_555 1_555
H7 C8 1_555 1_555
H8 C8 1_555 1_555
C9 H9 1_555 1_555
C10 H10 1_555 1_555
C11 C10 1_555 1_555
H11 C11 1_555 1_555
C12 C7 1_555 1_555
O3 H17 1_555 1_555
C13 C10 1_555 1_555
C14 C9 1_555 1_555
H12 C14 1_555 1_555
C15 C8 1_555 1_555
C16 C15 1_555 1_555
H13 C16 1_555 1_555
C17 C15 1_555 1_555
H14 C17 1_555 1_555
C18 C16 1_555 1_555
H15 C18 1_555 1_555
N2 C18 1_555 1_555
C19 C17 1_555 1_555
H16 C19 1_555 1_555
H18 O3 1_555 1_555
Ag1 N1 1_555 1_555
C13F C13 1_555 1_555
C10F C13F 1_555 1_555
H10F C10F 1_555 1_555
C11F C10F 1_555 1_555
H11F C11F 1_555 1_555
C12F C11F 1_555 1_555
C7F C12F 1_555 1_555
O1F C7F 1_555 1_555
Ag1F O1F 1_555 1_555
N1F Ag1F 1_555 1_555
C1F N1F 1_555 1_555
H1F C1F 1_555 1_555
C6F C1F 1_555 1_555
C3F C6F 1_555 1_555
C2F C3F 1_555 1_555
H2F C2F 1_555 1_555
C4F N1F 1_555 1_555
H3F C4F 1_555 1_555
C5F C3F 1_555 1_555
H4F C5F 1_555 1_555
H5F C5F 1_555 1_555
C8F C5F 1_555 1_555
H7F C8F 1_555 1_555
H8F C8F 1_555 1_555
C15F C8F 1_555 1_555
C16F C15F 1_555 1_555
H13F C16F 1_555 1_555
C18F C16F 1_555 1_555
H15F C18F 1_555 1_555
N2F C18F 1_555 1_555
C19F N2F 1_555 1_555
C17F C15F 1_555 1_555
H14F C17F 1_555 1_555
H16F C19F 1_555 1_555
Ag1G N2F 1_555 1_555
H6F C6F 1_555 1_555
N2G Ag1F 1_555 1_555
O2F C7F 1_555 1_555
C9F C12F 1_555 1_555
H9F C9F 1_555 1_555
C14F C13F 1_555 1_555
H12F C14F 1_555 1_555
N2A Ag1 1_555 1_555
Ag1A N2 1_555 1_555
C2 C4 1_555 1_555
C3 C6 1_555 1_555
O1 Ag1 1_555 1_555
C9 C12 1_555 1_555
C11 C12 1_555 1_555
C13 C14 1_555 1_555
N2 C19 1_555 1_555
C2F C4F 1_555 1_555
C19F C17F 1_555 1_555
C9F C14F 1_555 1_555

#END
