
#######################################################################
#
#                 Cambridge Crystallographic Data Centre
#                                CCDC 
#
#######################################################################
#
# If this CIF has been generated from an entry in the Cambridge 
# Structural Database, then it will include bibliographic, chemical, 
# crystal, experimental, refinement or atomic coordinate data resulting 
# from the CCDC's data processing and validation procedures.
#
#######################################################################

data_WUJGIR
_symmetry_cell_setting           monoclinic
_symmetry_space_group_name_H-M   'P 21/c'
_symmetry_Int_Tables_number      14
_space_group_name_Hall           '-P 2ybc'
loop_
_symmetry_equiv_pos_site_id
_symmetry_equiv_pos_as_xyz
1 x,y,z
2 x,1/2-y,1/2+z
3 -x,-y,-z
4 -x,1/2+y,1/2-z
_cell_length_a                   8.148(5)
_cell_length_b                   6.509(5)
_cell_length_c                   33.158(5)
_cell_angle_alpha                90.00
_cell_angle_beta                 96.346(5)
_cell_angle_gamma                90.00
_cell_volume                     1747.77
loop_
_atom_site_label
_atom_site_type_symbol
_atom_site_fract_x
_atom_site_fract_y
_atom_site_fract_z
Mn1 Mn 0.21823(7) 0.49196(7) 0.125904(19)
O1 O 0.3258(3) 0.6556(4) 0.16774(9)
O2 O 0.2473(4) 0.6829(4) 0.08499(9)
N1 N 0.1666(4) 0.2780(4) 0.16525(11)
N2 N 0.1081(4) 0.2947(4) 0.08577(12)
C1 C 0.2982(5) 0.6556(5) 0.20603(14)
C2 C 0.3551(5) 0.8232(6) 0.23095(16)
C3 C 0.3277(6) 0.8336(8) 0.27059(17)
C4 C 0.2455(6) 0.6782(8) 0.28846(18)
C5 C 0.1940(6) 0.5097(7) 0.26561(16)
C6 C 0.2186(5) 0.4929(6) 0.22456(13)
C7 C 0.1653(5) 0.3083(6) 0.20312(15)
C8 C 0.1133(6) 0.0826(6) 0.14559(16)
C9 C 0.0185(6) 0.1314(7) 0.10492(17)
C10 C 0.1208(5) 0.2980(6) 0.04783(15)
C11 C 0.2034(5) 0.4560(6) 0.02718(13)
C12 C 0.2239(6) 0.4275(8) -0.01396(16)
C13 C 0.2964(6) 0.5743(9) -0.03570(19)
C14 C 0.3450(6) 0.7569(9) -0.01702(17)
C15 C 0.3254(6) 0.7926(7) 0.02300(16)
C16 C 0.2586(5) 0.6415(6) 0.04655(14)
N3 N 0.4490(4) 0.3056(6) 0.11680(12)
C17 C 0.5044(5) 0.1461(7) 0.11810(15)
Ag1 Ag 0.62297(5) -0.13411(5) 0.126100(13)
C18 C -0.1740(6) 0.6729(6) 0.13310(16)
N4 N -0.0455(4) 0.6069(5) 0.13435(13)
H1 H -0.087(6) 0.181(6) 0.1077(13)
H2 H 0.045(5) 0.015(6) 0.1609(13)
H3 H 0.061(5) 0.189(6) 0.0302(14)
H4 H 0.136(5) 0.201(7) 0.2199(13)
H5 H 0.227(5) 0.691(7) 0.3154(16)
H6 H 0.212(5) -0.003(6) 0.1399(14)
H7 H 0.411(4) 0.919(6) 0.2188(11)
H8 H 0.396(7) 0.846(8) -0.0331(17)
H9 H 0.365(5) 0.948(7) 0.2843(14)
H10 H 0.191(6) 0.296(8) -0.0243(15)
H11 H 0.357(5) 0.914(7) 0.0365(14)
H12 H 0.149(5) 0.406(7) 0.2776(14)
H13 H 0.311(6) 0.532(7) -0.0603(17)
H14 H 0.007(5) 0.015(7) 0.0871(14)
C18_2 C 0.8260(6) -0.3271(6) 0.13310(16)
Ag1_2 Ag -0.37703(5) 0.86589(5) 0.126100(13)
loop_
_geom_bond_atom_site_label_1
_geom_bond_atom_site_label_2
_geom_bond_site_symmetry_1
_geom_bond_site_symmetry_2
Mn1 O1 1_555 1_555
O1 C1 1_555 1_555
O2 Mn1 1_555 1_555
N1 Mn1 1_555 1_555
N2 Mn1 1_555 1_555
C1 C2 1_555 1_555
C2 C3 1_555 1_555
C3 C4 1_555 1_555
C4 C5 1_555 1_555
C5 C6 1_555 1_555
C6 C1 1_555 1_555
C7 N1 1_555 1_555
C8 N1 1_555 1_555
C9 N2 1_555 1_555
C10 N2 1_555 1_555
C11 C10 1_555 1_555
C12 C11 1_555 1_555
C13 C12 1_555 1_555
C14 C13 1_555 1_555
C15 C14 1_555 1_555
C16 O2 1_555 1_555
N3 Mn1 1_555 1_555
C17 N3 1_555 1_555
Ag1 C17 1_555 1_555
C18 N4 1_555 1_555
N4 Mn1 1_555 1_555
H1 C9 1_555 1_555
H2 C8 1_555 1_555
H3 C10 1_555 1_555
H4 C7 1_555 1_555
H5 C4 1_555 1_555
H6 C8 1_555 1_555
H7 C2 1_555 1_555
H8 C14 1_555 1_555
H9 C3 1_555 1_555
H10 C12 1_555 1_555
H11 C15 1_555 1_555
H12 C5 1_555 1_555
H13 C13 1_555 1_555
H14 C9 1_555 1_555
C18_2 Ag1 1_555 1_555
Ag1_2 C18 1_555 1_555
C6 C7 1_555 1_555
C8 C9 1_555 1_555
C11 C16 1_555 1_555
C15 C16 1_555 1_555

#END
