
#######################################################################
#
#                 Cambridge Crystallographic Data Centre
#                                CCDC 
#
#######################################################################
#
# If this CIF has been generated from an entry in the Cambridge 
# Structural Database, then it will include bibliographic, chemical, 
# crystal, experimental, refinement or atomic coordinate data resulting 
# from the CCDC's data processing and validation procedures.
#
#######################################################################

data_WUJKUH
_symmetry_cell_setting           orthorhombic
_symmetry_space_group_name_H-M   'F d d d'
_symmetry_Int_Tables_number      70
_space_group_name_Hall           '-F 2uv 2vw'
loop_
_symmetry_equiv_pos_site_id
_symmetry_equiv_pos_as_xyz
1 x,y,z
2 x,1/2+y,1/2+z
3 x,1/4-y,1/4-z
4 1/2+x,y,1/2+z
5 1/4-x,y,1/4-z
6 1/2+x,1/2+y,z
7 1/4-x,1/4-y,z
8 1/4+x,1/4+y,-z
9 1/4+x,-y,1/4+z
10 -x,1/4+y,1/4+z
11 1/4+x,3/4+y,1/2-z
12 1/4+x,1/2-y,3/4+z
13 3/4+x,1/4+y,1/2-z
14 1/2-x,1/4+y,3/4+z
15 3/4+x,1/2-y,1/4+z
16 1/2-x,3/4+y,1/4+z
17 -x,-y,-z
18 -x,1/2-y,1/2-z
19 -x,3/4+y,3/4+z
20 1/2-x,-y,1/2-z
21 3/4+x,-y,3/4+z
22 1/2-x,1/2-y,-z
23 3/4+x,3/4+y,-z
24 3/4-x,3/4-y,z
25 3/4-x,y,3/4-z
26 x,3/4-y,3/4-z
27 3/4-x,1/4-y,1/2+z
28 3/4-x,1/2+y,1/4-z
29 1/4-x,3/4-y,1/2+z
30 1/2+x,3/4-y,1/4-z
31 1/4-x,1/2+y,3/4-z
32 1/2+x,1/4-y,3/4-z
_cell_length_a                   13.2140(2)
_cell_length_b                   21.7332(4)
_cell_length_c                   28.7125(5)
_cell_angle_alpha                90
_cell_angle_beta                 90
_cell_angle_gamma                90
_cell_volume                     8245.73
loop_
_atom_site_label
_atom_site_type_symbol
_atom_site_fract_x
_atom_site_fract_y
_atom_site_fract_z
Cd1 Cd 0.3750 0.3750 0.074184(15)
N1 N 0.4278(3) 0.30524(15) 0.13099(12)
N2 N 0.2166(3) 0.32710(19) 0.07226(15)
N3 N 0.0693(4) 0.1942(2) -0.01741(18)
N4 N 0.0766(5) 0.2833(4) 0.0309(4)
C1 C 0.6250 0.1250 0.1895(2)
H1 H 0.6713 0.1471 0.1699
C2 C 0.5660(4) 0.1709(2) 0.22038(15)
H2 H 0.5154 0.1490 0.2384
H3 H 0.6121 0.1908 0.2419
C3 C 0.5157(3) 0.21834(18) 0.19075(15)
C4 C 0.5584(3) 0.2749(2) 0.18328(15)
H4 H 0.6189 0.2851 0.1980
C5 C 0.5131(3) 0.31660(19) 0.15442(14)
H5 H 0.5433 0.3550 0.1509
C6 C 0.3851(4) 0.2510(2) 0.1383(2)
H6 H 0.3248 0.2419 0.1231
C7 C 0.4266(4) 0.2072(2) 0.1678(2)
H7 H 0.3937 0.1698 0.1721
C8 C 0.0805(4) 0.2346(3) 0.0057(2)
C9 C 0.1561(4) 0.3030(2) 0.0527(2)
H1F H 0.5787 0.1029 0.1699
C2F C 0.6840(4) 0.0791(2) 0.22038(15)
H2F H 0.7346 0.1010 0.2384
H3F H 0.6379 0.0592 0.2419
C3F C 0.7343(3) 0.03166(18) 0.19075(15)
C4F C 0.6916(3) -0.0249(2) 0.18328(15)
H4F H 0.6311 -0.0351 0.1980
C5F C 0.7369(3) -0.06660(19) 0.15442(14)
N1F N 0.8222(3) -0.05524(15) 0.13099(12)
C6F C 0.8649(4) -0.0010(2) 0.1383(2)
H6F H 0.9252 0.0081 0.1231
C7F C 0.8234(4) 0.0428(2) 0.1678(2)
H7F H 0.8563 0.0802 0.1721
H5F H 0.7067 -0.1050 0.1509
N2W N 0.5334(3) 0.42290(19) 0.07226(15)
N3W N 0.6807(4) 0.5558(2) -0.01741(18)
N4W N 0.6734(5) 0.4667(4) 0.0309(4)
C8W C 0.6695(4) 0.5154(3) 0.0057(2)
C9W C 0.5939(4) 0.4470(2) 0.0527(2)
N1W N 0.3222(3) 0.44476(15) 0.13099(12)
N3G N 0.3193(4) 0.4442(2) 0.01741(18)
N3U N 0.4307(4) 0.3058(2) 0.01741(18)
Cd1U Cd 0.1250 0.1250 -0.074184(15)
Cd1E Cd 0.8750 -0.1250 0.074184(15)
Cd1G Cd 0.6250 0.6250 -0.074184(15)
loop_
_geom_bond_atom_site_label_1
_geom_bond_atom_site_label_2
_geom_bond_site_symmetry_1
_geom_bond_site_symmetry_2
Cd1 N1 1_555 1_555
N1 C5 1_555 1_555
N2 Cd1 1_555 1_555
N3 C8 1_555 1_555
N4 C8 1_555 1_555
C1 H1 1_555 1_555
C2 C1 1_555 1_555
H2 C2 1_555 1_555
H3 C2 1_555 1_555
C3 C2 1_555 1_555
C4 C3 1_555 1_555
H4 C4 1_555 1_555
C5 C4 1_555 1_555
H5 C5 1_555 1_555
C6 N1 1_555 1_555
H6 C6 1_555 1_555
C7 C3 1_555 1_555
H7 C7 1_555 1_555
C9 N2 1_555 1_555
H1F C1 1_555 1_555
C2F C1 1_555 1_555
H2F C2F 1_555 1_555
H3F C2F 1_555 1_555
C3F C2F 1_555 1_555
C4F C3F 1_555 1_555
H4F C4F 1_555 1_555
C5F C4F 1_555 1_555
N1F C5F 1_555 1_555
C6F N1F 1_555 1_555
H6F C6F 1_555 1_555
C7F C3F 1_555 1_555
H7F C7F 1_555 1_555
H5F C5F 1_555 1_555
N2W Cd1 1_555 1_555
N3W C8W 1_555 1_555
N4W C8W 1_555 1_555
C9W N2W 1_555 1_555
N1W Cd1 1_555 1_555
N3G Cd1 1_555 1_555
N3U Cd1 1_555 1_555
Cd1U N3 1_555 1_555
Cd1E N1F 1_555 1_555
Cd1G N3W 1_555 1_555
N4 C9 1_555 1_555
C6 C7 1_555 1_555
C6F C7F 1_555 1_555
N4W C9W 1_555 1_555

#END
