
#######################################################################
#
#                 Cambridge Crystallographic Data Centre
#                                CCDC 
#
#######################################################################
#
# If this CIF has been generated from an entry in the Cambridge 
# Structural Database, then it will include bibliographic, chemical, 
# crystal, experimental, refinement or atomic coordinate data resulting 
# from the CCDC's data processing and validation procedures.
#
#######################################################################

data_WUJKOB
_symmetry_cell_setting           monoclinic
_symmetry_space_group_name_H-M   'C 2/c'
_symmetry_Int_Tables_number      15
_space_group_name_Hall           '-C 2yn'
loop_
_symmetry_equiv_pos_site_id
_symmetry_equiv_pos_as_xyz
1 x,y,z
2 1/2+x,1/2+y,z
3 x,-y,1/2+z
4 1/2+x,1/2-y,1/2+z
5 -x,-y,-z
6 1/2-x,1/2-y,-z
7 -x,y,1/2-z
8 1/2-x,1/2+y,1/2-z
_cell_length_a                   16.3548(5)
_cell_length_b                   10.4935(4)
_cell_length_c                   13.0115(4)
_cell_angle_alpha                90
_cell_angle_beta                 122.0231(19)
_cell_angle_gamma                90
_cell_volume                     1893.23
loop_
_atom_site_label
_atom_site_type_symbol
_atom_site_fract_x
_atom_site_fract_y
_atom_site_fract_z
Cd1 Cd 0.2500 0.2500 0.0000
N1 N 0.3179(2) 0.4482(3) 0.0758(3)
N2 N 0.3198(2) 0.1706(4) 0.1959(3)
N3 N 0.6147(2) 0.1908(4) 0.5049(3)
N4 N 0.4477(2) 0.1255(5) 0.4009(3)
C1 C 0.5000 0.8748(6) 0.2500
H1 H 0.4893 0.9310 0.3000
C2 C 0.4089(3) 0.8383(4) 0.1701(6)
H2 H 0.3896 0.8796 0.0938
H3 H 0.3691 0.8743 0.1977
C3 C 0.3811(3) 0.6999(5) 0.1419(5)
C4 C 0.3350(3) 0.6359(5) 0.1878(4)
H4 H 0.3241 0.6761 0.2431
C5 C 0.3044(3) 0.5124(5) 0.1532(4)
H5 H 0.2726 0.4720 0.1859
C6 C 0.3640(3) 0.5103(4) 0.0317(4)
H6 H 0.3756 0.4677 -0.0220
C7 C 0.3951(3) 0.6337(4) 0.0617(4)
H7 H 0.4260 0.6729 0.0273
C8 C 0.3828(2) 0.1548(4) 0.2913(3)
C9 C 0.5364(3) 0.1638(4) 0.4507(3)
H1F H 0.5107 0.9310 0.2000
C2F C 0.5911(3) 0.8383(4) 0.3299(6)
H2F H 0.6104 0.8796 0.4062
H3F H 0.6309 0.8743 0.3023
C3F C 0.6189(3) 0.6999(5) 0.3581(5)
C4F C 0.6650(3) 0.6359(5) 0.3122(4)
H4F H 0.6759 0.6761 0.2569
C5F C 0.6956(3) 0.5124(5) 0.3468(4)
N1F N 0.6821(2) 0.4482(3) 0.4242(3)
C6F C 0.6360(3) 0.5103(4) 0.4683(4)
H6F H 0.6244 0.4677 0.5220
C7F C 0.6049(3) 0.6337(4) 0.4383(4)
H7F H 0.5740 0.6729 0.4727
H5F H 0.7274 0.4720 0.3141
N2E N 0.1802(2) 0.3294(4) -0.1959(3)
N3E N -0.1147(2) 0.3092(4) -0.5049(3)
N4E N 0.0523(2) 0.3745(5) -0.4009(3)
C8E C 0.1172(2) 0.3452(4) -0.2913(3)
C9E C -0.0364(3) 0.3362(4) -0.4507(3)
N1E N 0.1821(2) 0.0518(3) -0.0758(3)
N3C N 0.1147(2) 0.3092(4) 0.0049(3)
N3F N 0.3853(2) 0.1908(4) -0.0049(3)
Cd1C Cd 0.7500 0.2500 0.5000
Cd1C_2 Cd -0.2500 0.2500 -0.5000
loop_
_geom_bond_atom_site_label_1
_geom_bond_atom_site_label_2
_geom_bond_site_symmetry_1
_geom_bond_site_symmetry_2
Cd1 N1 1_555 1_555
N1 C5 1_555 1_555
N2 Cd1 1_555 1_555
N3 C9 1_555 1_555
N4 C8 1_555 1_555
C1 H1 1_555 1_555
C2 C1 1_555 1_555
H2 C2 1_555 1_555
H3 C2 1_555 1_555
C3 C2 1_555 1_555
C4 C3 1_555 1_555
H4 C4 1_555 1_555
C5 C4 1_555 1_555
H5 C5 1_555 1_555
C6 N1 1_555 1_555
H6 C6 1_555 1_555
C7 C3 1_555 1_555
H7 C7 1_555 1_555
C8 N2 1_555 1_555
C9 N4 1_555 1_555
H1F C1 1_555 1_555
C2F C1 1_555 1_555
H2F C2F 1_555 1_555
H3F C2F 1_555 1_555
C3F C2F 1_555 1_555
C4F C3F 1_555 1_555
H4F C4F 1_555 1_555
C5F C4F 1_555 1_555
N1F C5F 1_555 1_555
C6F N1F 1_555 1_555
H6F C6F 1_555 1_555
C7F C3F 1_555 1_555
H7F C7F 1_555 1_555
H5F C5F 1_555 1_555
N2E Cd1 1_555 1_555
N3E C9E 1_555 1_555
N4E C8E 1_555 1_555
C8E N2E 1_555 1_555
C9E N4E 1_555 1_555
N1E Cd1 1_555 1_555
N3C Cd1 1_555 1_555
N3F Cd1 1_555 1_555
Cd1C N3 1_555 1_555
Cd1C_2 N3E 1_555 1_555
C6 C7 1_555 1_555
N1F Cd1C 1_555 1_555
C6F C7F 1_555 1_555

#END
