
#######################################################################
#
#                 Cambridge Crystallographic Data Centre
#                                CCDC 
#
#######################################################################
#
# If this CIF has been generated from an entry in the Cambridge 
# Structural Database, then it will include bibliographic, chemical, 
# crystal, experimental, refinement or atomic coordinate data resulting 
# from the CCDC's data processing and validation procedures.
#
#######################################################################

data_WUJLUI
_symmetry_cell_setting           monoclinic
_symmetry_space_group_name_H-M   'I 2/a'
_symmetry_Int_Tables_number      15
_space_group_name_Hall           '-I 2ya'
loop_
_symmetry_equiv_pos_site_id
_symmetry_equiv_pos_as_xyz
1 x,y,z
2 1/2+x,1/2+y,1/2+z
3 1/2+x,-y,z
4 x,1/2-y,1/2+z
5 -x,-y,-z
6 1/2-x,1/2-y,1/2-z
7 1/2-x,y,-z
8 -x,1/2+y,1/2-z
_cell_length_a                   13.078(4)
_cell_length_b                   9.695(3)
_cell_length_c                   14.592(5)
_cell_angle_alpha                90
_cell_angle_beta                 105.74(2)
_cell_angle_gamma                90
_cell_volume                     1780.76
loop_
_atom_site_label
_atom_site_type_symbol
_atom_site_fract_x
_atom_site_fract_y
_atom_site_fract_z
Mn1 Mn 0.2500 0.2500 0.7500
N1 N 0.26204(16) 0.4687(2) 0.69876(13)
C1 C 0.3552(2) 0.5261(3) 0.70091(19)
H1 H 0.4167 0.4812 0.7348
C2 C 0.3657(2) 0.6475(3) 0.65606(19)
H2 H 0.4329 0.6821 0.6595
C3 C 0.2772(2) 0.7177(2) 0.60625(19)
C4 C 0.1804(2) 0.6624(3) 0.6082(2)
H3 H 0.1178 0.7085 0.5787
C5 C 0.1768(2) 0.5388(3) 0.6540(2)
H4 H 0.1106 0.5030 0.6533
C6 C 0.2849(3) 0.8476(2) 0.55122(19)
H5 H 0.3583 0.8602 0.5505
H6 H 0.2654 0.9257 0.5844
N2 N 0.3735(2) 0.2990(3) 0.88415(14)
N3 N 0.45068(18) 0.3625(3) 1.04986(13)
N4 N 0.37471(18) 0.3145(3) 1.18148(14)
C7 C 0.40537(17) 0.3258(2) 0.96256(15)
C8 C 0.40691(16) 0.3327(2) 1.11683(14)
C6F C 0.2151(3) 0.8476(2) 0.44878(19)
C3F C 0.2228(2) 0.7177(2) 0.39375(19)
C2F C 0.1343(2) 0.6475(3) 0.34394(19)
C1F C 0.1448(2) 0.5261(3) 0.29909(19)
N1F N 0.23796(16) 0.4687(2) 0.30124(13)
C5F C 0.3232(2) 0.5388(3) 0.3460(2)
C4F C 0.3196(2) 0.6624(3) 0.3918(2)
H3F H 0.3822 0.7085 0.4213
H4F H 0.3894 0.5030 0.3467
H1F H 0.0833 0.4812 0.2652
H2F H 0.0671 0.6821 0.3405
H5F H 0.1417 0.8602 0.4495
H6F H 0.2346 0.9257 0.4156
N2E N 0.1265(2) 0.2010(3) 0.61585(14)
N3E N 0.04932(18) 0.1375(3) 0.45014(13)
N4E N 0.12529(18) 0.1855(3) 0.31852(14)
C7E C 0.09463(17) 0.1742(2) 0.53744(15)
C8E C 0.09309(16) 0.1673(2) 0.38317(14)
N1E N 0.23796(16) 0.0313(2) 0.80124(13)
N4C N 0.37471(18) 0.1855(3) 0.68148(14)
N4F N 0.12529(18) 0.3145(3) 0.81852(14)
Mn1C Mn 0.2500 0.2500 1.2500
Mn1C_2 Mn 0.2500 0.2500 0.2500
loop_
_geom_bond_atom_site_label_1
_geom_bond_atom_site_label_2
_geom_bond_site_symmetry_1
_geom_bond_site_symmetry_2
Mn1 N1 1_555 1_555
N1 C1 1_555 1_555
C1 H1 1_555 1_555
C2 C1 1_555 1_555
H2 C2 1_555 1_555
C3 C2 1_555 1_555
C4 C3 1_555 1_555
H3 C4 1_555 1_555
C5 N1 1_555 1_555
H4 C5 1_555 1_555
C6 C3 1_555 1_555
H5 C6 1_555 1_555
H6 C6 1_555 1_555
N2 Mn1 1_555 1_555
N3 C7 1_555 1_555
N4 C8 1_555 1_555
C7 N2 1_555 1_555
C8 N3 1_555 1_555
C6F C6 1_555 1_555
C3F C6F 1_555 1_555
C2F C3F 1_555 1_555
C1F C2F 1_555 1_555
N1F C1F 1_555 1_555
C5F N1F 1_555 1_555
C4F C3F 1_555 1_555
H3F C4F 1_555 1_555
H4F C5F 1_555 1_555
H1F C1F 1_555 1_555
H2F C2F 1_555 1_555
H5F C6F 1_555 1_555
H6F C6F 1_555 1_555
N2E Mn1 1_555 1_555
N3E C7E 1_555 1_555
N4E C8E 1_555 1_555
C7E N2E 1_555 1_555
C8E N3E 1_555 1_555
N1E Mn1 1_555 1_555
N4C Mn1 1_555 1_555
N4F Mn1 1_555 1_555
Mn1C N4 1_555 1_555
Mn1C_2 N1F 1_555 1_555
C4 C5 1_555 1_555
C5F C4F 1_555 1_555
N4E Mn1C_2 1_555 1_555

#END
