
#######################################################################
#
#                 Cambridge Crystallographic Data Centre
#                                CCDC 
#
#######################################################################
#
# If this CIF has been generated from an entry in the Cambridge 
# Structural Database, then it will include bibliographic, chemical, 
# crystal, experimental, refinement or atomic coordinate data resulting 
# from the CCDC's data processing and validation procedures.
#
#######################################################################

data_WUJPOG
_symmetry_cell_setting           triclinic
_symmetry_space_group_name_H-M   'P -1'
_symmetry_Int_Tables_number      2
_space_group_name_Hall           '-P 1'
loop_
_symmetry_equiv_pos_site_id
_symmetry_equiv_pos_as_xyz
1 x,y,z
2 -x,-y,-z
_cell_length_a                   10.5995(11)
_cell_length_b                   13.3972(14)
_cell_length_c                   17.4350(19)
_cell_angle_alpha                71.240(2)
_cell_angle_beta                 72.668(2)
_cell_angle_gamma                89.640(2)
_cell_volume                     2226.85
loop_
_atom_site_label
_atom_site_type_symbol
_atom_site_fract_x
_atom_site_fract_y
_atom_site_fract_z
Ge1 Ge 0.13068(4) 0.26589(3) 0.09357(3)
Cl1 Cl 0.02422(9) 0.15827(8) 0.23332(6)
O1 O 0.1354(2) -0.0071(2) 0.45517(15)
O2 O 0.4323(2) 0.02067(19) 0.43863(16)
N1 N 0.3140(3) 0.0149(2) 0.26443(17)
N2 N 0.2598(3) -0.0209(2) 0.12610(19)
N3 N 0.2956(3) 0.2174(2) 0.32152(18)
N4 N 0.1615(3) 0.3942(2) 0.26039(19)
N5 N 0.2638(3) 0.1655(2) 0.06368(18)
N6 N 0.2269(3) 0.3683(2) 0.12653(18)
C1 C 0.2801(4) -0.0865(3) 0.2679(2)
C2 C 0.2693(4) -0.1738(3) 0.3413(2)
H1 H 0.2754 -0.1628 0.3908
C3 C 0.2499(4) -0.2742(3) 0.3413(3)
H2 H 0.2408 -0.3322 0.3911
C4 C 0.2437(4) -0.2911(3) 0.2681(3)
H3 H 0.2351 -0.3607 0.2677
C5 C 0.2498(4) -0.2081(3) 0.1968(3)
H4 H 0.2438 -0.2208 0.1480
C6 C 0.2650(4) -0.1035(3) 0.1957(2)
C7 C 0.2778(3) 0.0772(3) 0.1265(2)
C8 C 0.3192(3) 0.0932(3) 0.1943(2)
C9 C 0.2301(3) 0.2718(3) 0.3745(2)
C10 C 0.2350(4) 0.2424(3) 0.4584(2)
H5 H 0.2806 0.1845 0.4790
C11 C 0.1735(4) 0.2979(3) 0.5103(2)
H6 H 0.1764 0.2775 0.5665
C12 C 0.1074(5) 0.3837(4) 0.4806(3)
H7 H 0.0659 0.4214 0.5168
C13 C 0.1018(4) 0.4145(3) 0.3993(3)
H8 H 0.0553 0.4726 0.3803
C14 C 0.1651(4) 0.3600(3) 0.3430(2)
C15 C 0.2248(4) 0.3418(3) 0.2097(2)
C16 C 0.2957(3) 0.2520(3) 0.2423(2)
C17 C 0.3804(3) 0.2008(3) 0.1817(2)
H9 H 0.3858 0.2466 0.1234
C18 C 0.5236(3) 0.1959(3) 0.1857(2)
H10 H 0.5594 0.2663 0.1798
H11 H 0.5231 0.1470 0.2414
C19 C 0.6130(4) 0.1592(3) 0.1155(3)
H12 H 0.5872 0.0841 0.1281
H13 H 0.5989 0.1990 0.0612
C20 C 0.7596(4) 0.1737(3) 0.1060(3)
H14 H 0.7882 0.2487 0.0875
H15 H 0.8108 0.1438 0.0640
H16 H 0.7736 0.1380 0.1604
C21 C 0.2733(4) 0.1566(3) -0.0222(2)
C22 C 0.3966(4) 0.1018(3) -0.0529(3)
H17 H 0.4730 0.1342 -0.0468
H18 H 0.4125 0.1095 -0.1123
H19 H 0.3821 0.0272 -0.0189
C23 C 0.1485(4) 0.0978(4) -0.0198(3)
H20 H 0.1367 0.0262 0.0200
H21 H 0.1576 0.0955 -0.0763
H22 H 0.0719 0.1344 -0.0018
C24 C 0.2965(5) 0.2698(3) -0.0866(2)
H23 H 0.2169 0.3055 -0.0740
H24 H 0.3172 0.2667 -0.1438
H25 H 0.3699 0.3084 -0.0826
C25 C 0.2100(4) 0.4826(3) 0.0802(2)
C26 C 0.2583(4) 0.4980(3) -0.0145(2)
H26 H 0.3483 0.4784 -0.0300
H27 H 0.2567 0.5717 -0.0469
H28 H 0.2006 0.4538 -0.0271
C27 C 0.0659(4) 0.5086(3) 0.1063(3)
H29 H 0.0106 0.4634 0.0930
H30 H 0.0607 0.5822 0.0754
H31 H 0.0352 0.4967 0.1671
C28 C 0.3009(5) 0.5569(3) 0.0962(3)
H32 H 0.2701 0.5513 0.1558
H33 H 0.2992 0.6293 0.0610
H34 H 0.3909 0.5372 0.0819
C29 C 0.0271(4) -0.0312(3) 0.4289(2)
H35 H -0.0016 -0.1072 0.4552
H36 H 0.0570 -0.0144 0.3668
C30 C 0.0884(4) -0.0302(3) 0.5464(2)
H37 H 0.1606 -0.0117 0.5653
H38 H 0.0611 -0.1062 0.5749
C31 C 0.4398(4) -0.0856(3) 0.4904(2)
H39 H 0.5164 -0.1146 0.4602
H40 H 0.3595 -0.1301 0.5006
C32 C 0.5467(4) 0.0877(3) 0.4257(2)
H41 H 0.5389 0.1604 0.3921
H42 H 0.6264 0.0638 0.3936
Li1 Li 0.3094(6) 0.0573(5) 0.3710(4)
C30A C -0.0884(4) 0.0302(3) 0.4536(2)
O1A O -0.1354(2) 0.0071(2) 0.54483(15)
C29A C -0.0271(4) 0.0312(3) 0.5711(2)
H35A H 0.0016 0.1072 0.5448
H36A H -0.0570 0.0144 0.6332
H37A H -0.1606 0.0117 0.4347
H38A H -0.0611 0.1062 0.4251
C32A C 0.4533(4) -0.0877(3) 0.5743(2)
O2A O 0.5677(2) -0.02067(19) 0.56137(16)
C31A C 0.5602(4) 0.0856(3) 0.5096(2)
H39A H 0.4836 0.1146 0.5398
H40A H 0.6405 0.1301 0.4994
H41A H 0.4611 -0.1604 0.6079
H42A H 0.3736 -0.0638 0.6064
Li1A Li -0.3094(6) -0.0573(5) 0.6290(4)
N1A N -0.3140(3) -0.0149(2) 0.73557(17)
N2A N -0.2598(3) 0.0209(2) 0.87390(19)
N3A N -0.2956(3) -0.2174(2) 0.67848(18)
N4A N -0.1615(3) -0.3942(2) 0.73961(19)
N5A N -0.2638(3) -0.1655(2) 0.93632(18)
N6A N -0.2269(3) -0.3683(2) 0.87347(18)
C1A C -0.2801(4) 0.0865(3) 0.7321(2)
C2A C -0.2693(4) 0.1738(3) 0.6587(2)
H1A H -0.2754 0.1628 0.6092
C3A C -0.2499(4) 0.2742(3) 0.6587(3)
H2A H -0.2408 0.3322 0.6089
C4A C -0.2437(4) 0.2911(3) 0.7319(3)
H3A H -0.2351 0.3607 0.7323
C5A C -0.2498(4) 0.2081(3) 0.8032(3)
H4A H -0.2438 0.2208 0.8520
C6A C -0.2650(4) 0.1035(3) 0.8043(2)
C7A C -0.2778(3) -0.0772(3) 0.8735(2)
C8A C -0.3192(3) -0.0932(3) 0.8057(2)
C9A C -0.2301(3) -0.2718(3) 0.6255(2)
C10A C -0.2350(4) -0.2424(3) 0.5416(2)
H5A H -0.2806 -0.1845 0.5210
C11A C -0.1735(4) -0.2979(3) 0.4897(2)
H6A H -0.1764 -0.2775 0.4335
C12A C -0.1074(5) -0.3837(4) 0.5194(3)
H7A H -0.0659 -0.4214 0.4832
C13A C -0.1018(4) -0.4145(3) 0.6007(3)
H8A H -0.0553 -0.4726 0.6197
C14A C -0.1651(4) -0.3600(3) 0.6570(2)
C15A C -0.2248(4) -0.3418(3) 0.7903(2)
C16A C -0.2957(3) -0.2520(3) 0.7577(2)
C17A C -0.3804(3) -0.2008(3) 0.8183(2)
H9A H -0.3858 -0.2466 0.8766
C18A C -0.5236(3) -0.1959(3) 0.8143(2)
H10A H -0.5594 -0.2663 0.8202
H11A H -0.5231 -0.1470 0.7586
C19A C -0.6130(4) -0.1592(3) 0.8845(3)
H12A H -0.5872 -0.0841 0.8719
H13A H -0.5989 -0.1990 0.9388
C20A C -0.7596(4) -0.1737(3) 0.8940(3)
H14A H -0.7882 -0.2487 0.9125
H15A H -0.8108 -0.1438 0.9360
H16A H -0.7736 -0.1380 0.8396
C21A C -0.2733(4) -0.1566(3) 1.0222(2)
C22A C -0.3966(4) -0.1018(3) 1.0529(3)
H17A H -0.4730 -0.1342 1.0468
H18A H -0.4125 -0.1095 1.1123
H19A H -0.3821 -0.0272 1.0189
C23A C -0.1485(4) -0.0978(4) 1.0198(3)
H20A H -0.1367 -0.0262 0.9800
H21A H -0.1576 -0.0955 1.0763
H22A H -0.0719 -0.1344 1.0018
C24A C -0.2965(5) -0.2698(3) 1.0866(2)
H23A H -0.2169 -0.3055 1.0740
H24A H -0.3172 -0.2667 1.1438
H25A H -0.3699 -0.3084 1.0826
C25A C -0.2100(4) -0.4826(3) 0.9198(2)
C26A C -0.2583(4) -0.4980(3) 1.0145(2)
H26A H -0.3483 -0.4784 1.0300
H27A H -0.2567 -0.5717 1.0469
H28A H -0.2006 -0.4538 1.0271
C27A C -0.0659(4) -0.5086(3) 0.8937(3)
H29A H -0.0106 -0.4634 0.9070
H30A H -0.0607 -0.5822 0.9246
H31A H -0.0352 -0.4967 0.8329
C28A C -0.3009(5) -0.5569(3) 0.9038(3)
H32A H -0.2701 -0.5513 0.8442
H33A H -0.2992 -0.6293 0.9390
H34A H -0.3909 -0.5372 0.9181
Ge1A Ge -0.13068(4) -0.26589(3) 0.90643(3)
Cl1A Cl -0.02422(9) -0.15827(8) 0.76668(6)
Li1A_2 Li 0.6906(6) -0.0573(5) 0.6290(4)
O2A_2 O -0.4323(2) -0.02067(19) 0.56137(16)
C33 C 0.5925(6) 0.4194(4) 0.3173(4)
C34 C 0.5566(6) 0.4113(4) 0.4023(4)
H43 H 0.4762 0.4356 0.4266
C35 C 0.6332(7) 0.3697(5) 0.4509(4)
H44 H 0.6039 0.3626 0.5090
C36 C 0.7530(7) 0.3375(4) 0.4172(5)
H45 H 0.8084 0.3131 0.4513
C37 C 0.7929(6) 0.3402(4) 0.3357(5)
H46 H 0.8740 0.3151 0.3135
C38 C 0.7135(7) 0.3804(4) 0.2845(4)
H47 H 0.7405 0.3817 0.2277
C39 C 0.5083(6) 0.4693(5) 0.2645(4)
H48 H 0.5499 0.5391 0.2264
H49 H 0.4219 0.4759 0.3011
H50 H 0.4978 0.4259 0.2314
C40 C 0.1808(5) 0.2698(4) 0.7235(3)
C41 C 0.1122(5) 0.1738(4) 0.7470(3)
H51 H 0.0189 0.1673 0.7658
C42 C 0.1801(8) 0.0841(4) 0.7433(3)
H52 H 0.1336 0.0172 0.7596
C43 C 0.3171(8) 0.0971(5) 0.7150(4)
H53 H 0.3657 0.0387 0.7127
C44 C 0.3807(6) 0.1945(6) 0.6908(3)
H54 H 0.4740 0.2027 0.6711
C45 C 0.3162(6) 0.2791(5) 0.6937(3)
H55 H 0.3640 0.3459 0.6753
C46 C 0.1146(7) 0.3664(5) 0.7262(4)
H56 H 0.0367 0.3662 0.7079
H57 H 0.1755 0.4283 0.6884
H58 H 0.0882 0.3681 0.7839
loop_
_geom_bond_atom_site_label_1
_geom_bond_atom_site_label_2
_geom_bond_site_symmetry_1
_geom_bond_site_symmetry_2
Ge1 Cl1 1_555 1_555
O1 C29 1_555 1_555
O2 C31 1_555 1_555
N1 C1 1_555 1_555
N2 C6 1_555 1_555
N3 C9 1_555 1_555
N4 C14 1_555 1_555
N5 Ge1 1_555 1_555
N6 Ge1 1_555 1_555
C1 C2 1_555 1_555
C2 H1 1_555 1_555
C3 C2 1_555 1_555
H2 C3 1_555 1_555
C4 C3 1_555 1_555
H3 C4 1_555 1_555
C5 C4 1_555 1_555
H4 C5 1_555 1_555
C6 C1 1_555 1_555
C7 N2 1_555 1_555
C8 N1 1_555 1_555
C9 C10 1_555 1_555
C10 H5 1_555 1_555
C11 C10 1_555 1_555
H6 C11 1_555 1_555
C12 C11 1_555 1_555
H7 C12 1_555 1_555
C13 C12 1_555 1_555
H8 C13 1_555 1_555
C14 C9 1_555 1_555
C15 N4 1_555 1_555
C16 N3 1_555 1_555
C17 C8 1_555 1_555
H9 C17 1_555 1_555
C18 C17 1_555 1_555
H10 C18 1_555 1_555
H11 C18 1_555 1_555
C19 C18 1_555 1_555
H12 C19 1_555 1_555
H13 C19 1_555 1_555
C20 C19 1_555 1_555
H14 C20 1_555 1_555
H15 C20 1_555 1_555
H16 C20 1_555 1_555
C21 N5 1_555 1_555
C22 C21 1_555 1_555
H17 C22 1_555 1_555
H18 C22 1_555 1_555
H19 C22 1_555 1_555
C23 C21 1_555 1_555
H20 C23 1_555 1_555
H21 C23 1_555 1_555
H22 C23 1_555 1_555
C24 C21 1_555 1_555
H23 C24 1_555 1_555
H24 C24 1_555 1_555
H25 C24 1_555 1_555
C25 N6 1_555 1_555
C26 C25 1_555 1_555
H26 C26 1_555 1_555
H27 C26 1_555 1_555
H28 C26 1_555 1_555
C27 C25 1_555 1_555
H29 C27 1_555 1_555
H30 C27 1_555 1_555
H31 C27 1_555 1_555
C28 C25 1_555 1_555
H32 C28 1_555 1_555
H33 C28 1_555 1_555
H34 C28 1_555 1_555
C29 H35 1_555 1_555
H36 C29 1_555 1_555
C30 O1 1_555 1_555
H37 C30 1_555 1_555
H38 C30 1_555 1_555
C31 H39 1_555 1_555
H40 C31 1_555 1_555
C32 O2 1_555 1_555
H41 C32 1_555 1_555
H42 C32 1_555 1_555
C33 C34 1_555 1_555
C34 H43 1_555 1_555
C35 C34 1_555 1_555
H44 C35 1_555 1_555
C36 C35 1_555 1_555
H45 C36 1_555 1_555
C37 C36 1_555 1_555
H46 C37 1_555 1_555
C38 C33 1_555 1_555
H47 C38 1_555 1_555
C39 C33 1_555 1_555
H48 C39 1_555 1_555
H49 C39 1_555 1_555
H50 C39 1_555 1_555
C40 C41 1_555 1_555
C41 H51 1_555 1_555
C42 C41 1_555 1_555
H52 C42 1_555 1_555
C43 C42 1_555 1_555
H53 C43 1_555 1_555
C44 C43 1_555 1_555
H54 C44 1_555 1_555
C45 C40 1_555 1_555
H55 C45 1_555 1_555
C46 C40 1_555 1_555
H56 C46 1_555 1_555
H57 C46 1_555 1_555
H58 C46 1_555 1_555
Li1 O1 1_555 1_555
C30A C29 1_555 1_555
O1A C30A 1_555 1_555
C29A C30 1_555 1_555
H35A C29A 1_555 1_555
H36A C29A 1_555 1_555
H37A C30A 1_555 1_555
H38A C30A 1_555 1_555
C32A C31 1_555 1_555
O2A C32A 1_555 1_555
C31A C32 1_555 1_555
H39A C31A 1_555 1_555
H40A C31A 1_555 1_555
H41A C32A 1_555 1_555
H42A C32A 1_555 1_555
Li1A O1A 1_555 1_555
N1A Li1A 1_555 1_555
N2A C6A 1_555 1_555
N3A Li1A 1_555 1_555
N4A C14A 1_555 1_555
N5A C7A 1_555 1_555
N6A C15A 1_555 1_555
C1A N1A 1_555 1_555
C2A C1A 1_555 1_555
H1A C2A 1_555 1_555
C3A C2A 1_555 1_555
H2A C3A 1_555 1_555
C4A C3A 1_555 1_555
H3A C4A 1_555 1_555
C5A C4A 1_555 1_555
H4A C5A 1_555 1_555
C6A C1A 1_555 1_555
C7A N2A 1_555 1_555
C8A N1A 1_555 1_555
C9A N3A 1_555 1_555
C10A C9A 1_555 1_555
H5A C10A 1_555 1_555
C11A C10A 1_555 1_555
H6A C11A 1_555 1_555
C12A C11A 1_555 1_555
H7A C12A 1_555 1_555
C13A C12A 1_555 1_555
H8A C13A 1_555 1_555
C14A C9A 1_555 1_555
C15A N4A 1_555 1_555
C16A N3A 1_555 1_555
C17A C8A 1_555 1_555
H9A C17A 1_555 1_555
C18A C17A 1_555 1_555
H10A C18A 1_555 1_555
H11A C18A 1_555 1_555
C19A C18A 1_555 1_555
H12A C19A 1_555 1_555
H13A C19A 1_555 1_555
C20A C19A 1_555 1_555
H14A C20A 1_555 1_555
H15A C20A 1_555 1_555
H16A C20A 1_555 1_555
C21A N5A 1_555 1_555
C22A C21A 1_555 1_555
H17A C22A 1_555 1_555
H18A C22A 1_555 1_555
H19A C22A 1_555 1_555
C23A C21A 1_555 1_555
H20A C23A 1_555 1_555
H21A C23A 1_555 1_555
H22A C23A 1_555 1_555
C24A C21A 1_555 1_555
H23A C24A 1_555 1_555
H24A C24A 1_555 1_555
H25A C24A 1_555 1_555
C25A N6A 1_555 1_555
C26A C25A 1_555 1_555
H26A C26A 1_555 1_555
H27A C26A 1_555 1_555
H28A C26A 1_555 1_555
C27A C25A 1_555 1_555
H29A C27A 1_555 1_555
H30A C27A 1_555 1_555
H31A C27A 1_555 1_555
C28A C25A 1_555 1_555
H32A C28A 1_555 1_555
H33A C28A 1_555 1_555
H34A C28A 1_555 1_555
Ge1A N5A 1_555 1_555
Cl1A Ge1A 1_555 1_555
Li1A_2 O2A 1_555 1_555
O2A_2 Li1A 1_555 1_555
O2 Li1 1_555 1_555
N1 Li1 1_555 1_555
N3 Li1 1_555 1_555
N5 C7 1_555 1_555
N6 C15 1_555 1_555
C5 C6 1_555 1_555
C7 C8 1_555 1_555
C13 C14 1_555 1_555
C15 C16 1_555 1_555
C16 C17 1_555 1_555
C37 C38 1_555 1_555
C44 C45 1_555 1_555
O1A C29A 1_555 1_555
O2A C31A 1_555 1_555
N6A Ge1A 1_555 1_555
C5A C6A 1_555 1_555
C7A C8A 1_555 1_555
C13A C14A 1_555 1_555
C15A C16A 1_555 1_555
C16A C17A 1_555 1_555

#END
