
#######################################################################
#
#                 Cambridge Crystallographic Data Centre
#                                CCDC 
#
#######################################################################
#
# If this CIF has been generated from an entry in the Cambridge 
# Structural Database, then it will include bibliographic, chemical, 
# crystal, experimental, refinement or atomic coordinate data resulting 
# from the CCDC's data processing and validation procedures.
#
#######################################################################

data_WUJSOJ
_symmetry_cell_setting           monoclinic
_symmetry_space_group_name_H-M   'P 21/c'
_symmetry_Int_Tables_number      14
_space_group_name_Hall           '-P 2ybc'
loop_
_symmetry_equiv_pos_site_id
_symmetry_equiv_pos_as_xyz
1 x,y,z
2 -x,1/2+y,1/2-z
3 -x,-y,-z
4 x,1/2-y,1/2+z
_cell_length_a                   7.998(3)
_cell_length_b                   26.397(9)
_cell_length_c                   11.677(4)
_cell_angle_alpha                90
_cell_angle_beta                 107.226(4)
_cell_angle_gamma                90
_cell_volume                     2354.7
loop_
_atom_site_label
_atom_site_type_symbol
_atom_site_fract_x
_atom_site_fract_y
_atom_site_fract_z
Eu1 Eu -0.58326(4) 0.225660(12) -0.16239(2)
Eu2 Eu -0.90275(4) 0.194980(12) 0.01073(2)
O1 O -0.5637(5) 0.17712(17) 0.0282(3)
O2 O -0.7395(5) 0.11573(18) 0.0479(4)
O3 O -0.4151(5) 0.15427(17) -0.1483(4)
O4 O -0.1306(5) 0.14079(18) -0.0733(4)
O5 O -0.6950(6) 0.20137(19) -0.3648(4)
O6 O -0.7595(5) 0.23291(16) -0.5476(3)
O7 O -0.7357(5) 0.20142(17) -0.7683(3)
O8 O -0.9824(6) 0.15974(19) -0.8174(4)
O9 O -0.3881(5) 0.27365(17) -0.0171(4)
O10 O -0.1122(6) 0.25203(19) 0.0155(4)
O11 O -0.0791(6) 0.28043(18) 0.2650(4)
O12 O 0.1623(5) 0.32532(18) 0.3239(3)
O13 O -0.3897(6) 0.2641(2) -0.2611(4)
C1 C -0.5925(8) 0.1303(3) 0.0415(5)
C2 C -0.4548(8) 0.0907(2) 0.0562(5)
C3 C -0.4654(9) 0.0501(3) 0.1285(6)
H1 H -0.5568 0.0489 0.1625
C4 C -0.3451(10) 0.0117(3) 0.1515(7)
H2 H -0.3560 -0.0151 0.2003
C5 C -0.2069(10) 0.0127(3) 0.1025(7)
H3 H -0.1253 -0.0135 0.1171
C6 C -0.1935(9) 0.0530(3) 0.0321(6)
H4 H -0.1001 0.0542 0.0000
C7 C -0.3133(8) 0.0920(3) 0.0071(5)
C8 C -0.2864(8) 0.1325(2) -0.0765(5)
C9 C -0.7169(7) 0.1955(2) -0.4748(5)
C10 C -0.7016(8) 0.1443(2) -0.5207(5)
C11 C -0.6326(9) 0.1064(3) -0.4378(6)
H5 H -0.5892 0.1144 -0.3569
C12 C -0.6281(12) 0.0565(3) -0.4751(7)
H6 H -0.5781 0.0314 -0.4196
C13 C -0.6981(11) 0.0444(3) -0.5945(7)
H7 H -0.6983 0.0110 -0.6198
C14 C -0.7680(10) 0.0823(3) -0.6765(6)
H8 H -0.8165 0.0738 -0.7568
C15 C -0.7674(8) 0.1318(2) -0.6425(5)
C16 C -0.8364(8) 0.1678(2) -0.7452(5)
C17 C -0.2273(8) 0.2842(3) 0.0130(5)
C18 C -0.1731(8) 0.3379(3) 0.0381(5)
C19 C -0.2334(10) 0.3731(3) -0.0528(6)
H9 H -0.3132 0.3636 -0.1252
C20 C -0.1735(11) 0.4224(4) -0.0347(7)
H10 H -0.2154 0.4463 -0.0948
C21 C -0.0531(10) 0.4364(3) 0.0707(7)
H11 H -0.0114 0.4695 0.0809
C22 C 0.0063(9) 0.4017(3) 0.1615(6)
H12 H 0.0860 0.4115 0.2336
C23 C -0.0521(8) 0.3521(2) 0.1460(5)
C24 C 0.0100(8) 0.3160(3) 0.2472(5)
H13 H -0.287(5) 0.246(2) -0.255(5)
H14 H -0.423(11) 0.285(3) -0.327(5)
O6C O -0.7595(5) 0.26709(16) -0.0476(3)
Eu1C Eu -0.58326(4) 0.274340(12) -0.66239(2)
Eu2C Eu -0.90275(4) 0.305020(12) -0.48927(2)
Eu2_2 Eu -0.90275(4) 0.194980(12) -0.98927(2)
O7C O -0.7357(5) 0.29858(17) -0.2683(3)
O4_2 O -1.1306(5) 0.14079(18) -0.0733(4)
O7_2 O -0.7357(5) 0.20142(17) 0.2317(3)
O10_2 O -1.1122(6) 0.25203(19) 0.0155(4)
O8_2 O -0.9824(6) 0.15974(19) 0.1826(4)
Eu2_3 Eu 0.09725(4) 0.194980(12) 0.01073(2)
O11C O -1.0791(6) 0.21957(18) -0.2350(4)
O12C O -0.8377(5) 0.17468(18) -0.1761(3)
Eu2C_2 Eu 0.09725(4) 0.305020(12) 0.51073(2)
Eu1C_2 Eu 0.41674(4) 0.274340(12) 0.33761(2)
loop_
_geom_bond_atom_site_label_1
_geom_bond_atom_site_label_2
_geom_bond_site_symmetry_1
_geom_bond_site_symmetry_2
Eu1 O1 1_555 1_555
Eu2 O1 1_555 1_555
O1 C1 1_555 1_555
O2 Eu2 1_555 1_555
O3 Eu1 1_555 1_555
O4 C8 1_555 1_555
O5 Eu1 1_555 1_555
O6 C9 1_555 1_555
O7 C16 1_555 1_555
O8 C16 1_555 1_555
O9 Eu1 1_555 1_555
O10 C17 1_555 1_555
O11 C24 1_555 1_555
O12 C24 1_555 1_555
O13 Eu1 1_555 1_555
C1 O2 1_555 1_555
C2 C1 1_555 1_555
C3 C2 1_555 1_555
H1 C3 1_555 1_555
C4 C3 1_555 1_555
H2 C4 1_555 1_555
C5 C4 1_555 1_555
H3 C5 1_555 1_555
C6 C5 1_555 1_555
H4 C6 1_555 1_555
C7 C2 1_555 1_555
C8 O3 1_555 1_555
C9 O5 1_555 1_555
C10 C9 1_555 1_555
C11 C10 1_555 1_555
H5 C11 1_555 1_555
C12 C11 1_555 1_555
H6 C12 1_555 1_555
C13 C12 1_555 1_555
H7 C13 1_555 1_555
C14 C13 1_555 1_555
H8 C14 1_555 1_555
C15 C10 1_555 1_555
C16 C15 1_555 1_555
C17 O9 1_555 1_555
C18 C17 1_555 1_555
C19 C18 1_555 1_555
H9 C19 1_555 1_555
C20 C19 1_555 1_555
H10 C20 1_555 1_555
C21 C20 1_555 1_555
H11 C21 1_555 1_555
C22 C21 1_555 1_555
H12 C22 1_555 1_555
C23 C18 1_555 1_555
C24 C23 1_555 1_555
H13 O13 1_555 1_555
H14 O13 1_555 1_555
O6C Eu1 1_555 1_555
Eu1C O6 1_555 1_555
Eu2C O6 1_555 1_555
Eu2_2 O7 1_555 1_555
O7C Eu1 1_555 1_555
O4_2 Eu2 1_555 1_555
O7_2 Eu2 1_555 1_555
O10_2 Eu2 1_555 1_555
O8_2 Eu2 1_555 1_555
Eu2_3 O4 1_555 1_555
O11C Eu2 1_555 1_555
O12C Eu1 1_555 1_555
Eu2C_2 O11 1_555 1_555
Eu1C_2 O12 1_555 1_555
Eu2 O6C 1_555 1_555
Eu2 O12C 1_555 1_555
O7 Eu1C 1_555 1_555
O8 Eu2_2 1_555 1_555
O10 Eu2_3 1_555 1_555
O12 Eu2C_2 1_555 1_555
C6 C7 1_555 1_555
C7 C8 1_555 1_555
C14 C15 1_555 1_555
C22 C23 1_555 1_555
Eu2C O7C 1_555 1_555

#END
