
#######################################################################
#
#                 Cambridge Crystallographic Data Centre
#                                CCDC 
#
#######################################################################
#
# If this CIF has been generated from an entry in the Cambridge 
# Structural Database, then it will include bibliographic, chemical, 
# crystal, experimental, refinement or atomic coordinate data resulting 
# from the CCDC's data processing and validation procedures.
#
#######################################################################

data_WUJVOM
_symmetry_cell_setting           orthorhombic
_symmetry_space_group_name_H-M   'P 21 21 21'
_symmetry_Int_Tables_number      19
_space_group_name_Hall           'P 2ac 2ab'
loop_
_symmetry_equiv_pos_site_id
_symmetry_equiv_pos_as_xyz
1 x,y,z
2 -x,1/2+y,1/2-z
3 1/2-x,-y,1/2+z
4 1/2+x,1/2-y,-z
_cell_length_a                   7.036(2)
_cell_length_b                   8.230(2)
_cell_length_c                   22.932(3)
_cell_angle_alpha                90
_cell_angle_beta                 90
_cell_angle_gamma                90
_cell_volume                     1327.91
loop_
_atom_site_label
_atom_site_type_symbol
_atom_site_fract_x
_atom_site_fract_y
_atom_site_fract_z
Cu1 Cu -0.08411(8) 0.15261(6) -0.10286(2)
O1 O 0.0833(5) 0.1132(4) -0.03597(13)
O2 O 0.2148(5) 0.2041(4) 0.04503(15)
O3 O 0.0883(6) 0.3265(4) -0.12950(14)
O4 O 0.2972(6) 0.5227(5) -0.11723(15)
N1 N -0.2201(6) 0.1789(5) -0.17844(16)
N2 N -0.4201(11) 0.2435(9) -0.2484(3)
H1 H -0.5120 0.2871 -0.2676
N3 N -0.1969(6) -0.0716(5) -0.09204(18)
N4 N -0.2066(10) -0.3354(8) -0.0796(4)
H2 H -0.1749 -0.4348 -0.0734
C1 C 0.1601(7) 0.2257(6) -0.0061(2)
C2 C 0.1826(8) 0.3953(6) -0.0320(2)
H3 H 0.0775 0.4610 -0.0181
H4 H 0.2980 0.4421 -0.0160
C3 C 0.1911(6) 0.4129(6) -0.0975(2)
C4 C -0.3757(8) 0.2729(8) -0.1916(2)
H5 H -0.4387 0.3433 -0.1664
C5 C -0.2945(7) 0.1337(7) -0.26940(18)
H6 H -0.2917 0.0909 -0.3069
C6 C -0.1770(8) 0.0991(7) -0.2265(2)
C7 C -0.0862(10) -0.2070(7) -0.0809(3)
H7 H 0.0448 -0.2094 -0.0754
C8 C -0.3750(7) -0.1223(6) -0.0970(2)
C9 C -0.3824(7) -0.2819(6) -0.0897(2)
H8 H -0.4914 -0.3457 -0.0914
C10 C -0.5466(7) -0.0235(8) -0.1066(4)
H9 H -0.5182 0.0887 -0.0992
H10 H -0.6455 -0.0590 -0.0807
H11 H -0.5880 -0.0358 -0.1463
C11 C -0.0108(13) -0.0142(12) -0.2334(3)
H12 H 0.1053 0.0446 -0.2270
H13 H -0.0109 -0.0586 -0.2721
H14 H -0.0206 -0.1007 -0.2055
O2C O -0.2852(5) 0.2959(4) -0.04503(15)
Cu1C Cu 0.41589(8) 0.34739(6) 0.10286(2)
loop_
_geom_bond_atom_site_label_1
_geom_bond_atom_site_label_2
_geom_bond_site_symmetry_1
_geom_bond_site_symmetry_2
Cu1 O1 1_555 1_555
O1 C1 1_555 1_555
O2 C1 1_555 1_555
O3 Cu1 1_555 1_555
O4 C3 1_555 1_555
N1 Cu1 1_555 1_555
N2 H1 1_555 1_555
N3 Cu1 1_555 1_555
N4 H2 1_555 1_555
C1 C2 1_555 1_555
C2 H3 1_555 1_555
H4 C2 1_555 1_555
C3 O3 1_555 1_555
C4 N1 1_555 1_555
H5 C4 1_555 1_555
C5 N2 1_555 1_555
H6 C5 1_555 1_555
C6 N1 1_555 1_555
C7 N3 1_555 1_555
H7 C7 1_555 1_555
C8 N3 1_555 1_555
C9 N4 1_555 1_555
H8 C9 1_555 1_555
C10 C8 1_555 1_555
H9 C10 1_555 1_555
H10 C10 1_555 1_555
H11 C10 1_555 1_555
C11 C6 1_555 1_555
H12 C11 1_555 1_555
H13 C11 1_555 1_555
H14 C11 1_555 1_555
O2C Cu1 1_555 1_555
Cu1C O2 1_555 1_555
N2 C4 1_555 1_555
N4 C7 1_555 1_555
C2 C3 1_555 1_555
C5 C6 1_555 1_555
C8 C9 1_555 1_555

#END
