
#######################################################################
#
#                 Cambridge Crystallographic Data Centre
#                                CCDC 
#
#######################################################################
#
# If this CIF has been generated from an entry in the Cambridge 
# Structural Database, then it will include bibliographic, chemical, 
# crystal, experimental, refinement or atomic coordinate data resulting 
# from the CCDC's data processing and validation procedures.
#
#######################################################################

data_WUKBEJ03
_symmetry_cell_setting           monoclinic
_symmetry_space_group_name_H-M   'P 21/n'
_symmetry_Int_Tables_number      14
_space_group_name_Hall           '-P 2yn'
loop_
_symmetry_equiv_pos_site_id
_symmetry_equiv_pos_as_xyz
1 x,y,z
2 1/2-x,1/2+y,1/2-z
3 -x,-y,-z
4 1/2+x,1/2-y,1/2+z
_cell_length_a                   3.7326(8)
_cell_length_b                   19.412(6)
_cell_length_c                   16.793(4)
_cell_angle_alpha                90
_cell_angle_beta                 95.355(18)
_cell_angle_gamma                90
_cell_volume                     1211.46
loop_
_atom_site_label
_atom_site_type_symbol
_atom_site_fract_x
_atom_site_fract_y
_atom_site_fract_z
Cu1 Cu 0.21234(17) 0.62529(3) 0.12170(3)
Cu2 Cu 0.67420(17) 0.74824(3) 0.07869(3)
Cl1 Cl 0.5928(3) 0.64266(5) 0.02947(5)
Cl2 Cl 1.1656(3) 0.81371(6) 0.09693(6)
C1 C -0.0099(9) 0.53068(19) 0.2387(2)
C2 C -0.0507(10) 0.6019(2) 0.3591(2)
N1 N 0.0697(8) 0.52774(17) 0.16178(17)
C3 C 0.0288(9) 0.5960(2) 0.2784(2)
N2 N 0.1397(8) 0.65103(17) 0.23651(17)
C4 C -0.1250(10) 0.4729(2) 0.2803(2)
C5 C -0.2046(10) 0.4809(3) 0.3616(2)
H1 H -0.2828 0.4431 0.3892
C6 C -0.0085(11) 0.6665(2) 0.3948(2)
H2 H -0.0596 0.6725 0.4475
C7 C 0.0303(11) 0.4674(2) 0.1249(3)
H3 H 0.0832 0.4648 0.0719
C8 C 0.1072(12) 0.7209(2) 0.3529(3)
H4 H 0.1385 0.7641 0.3765
C9 C -0.1683(10) 0.5418(3) 0.3985(2)
H5 H -0.2210 0.5453 0.4514
C10 C -0.0859(12) 0.4078(2) 0.1608(3)
H6 H -0.1112 0.3667 0.1323
C11 C -0.1617(11) 0.4108(2) 0.2386(3)
H7 H -0.2378 0.3715 0.2638
C12 C 0.1776(11) 0.7102(2) 0.2734(2)
H8 H 0.2564 0.7475 0.2451
Cu1_2 Cu 1.21234(17) 0.62529(3) 0.12170(3)
Cu2_2 Cu 1.67420(17) 0.74824(3) 0.07869(3)
Cl1_2 Cl -0.4072(3) 0.64266(5) 0.02947(5)
Cl2_2 Cl 0.1656(3) 0.81371(6) 0.09693(6)
loop_
_geom_bond_atom_site_label_1
_geom_bond_atom_site_label_2
_geom_bond_site_symmetry_1
_geom_bond_site_symmetry_2
Cu1 Cl1 1_555 1_555
Cu2 Cl1 1_555 1_555
Cl1 Cu1_2 1_555 1_555
Cl2 Cu2 1_555 1_555
C1 N1 1_555 1_555
C2 C3 1_555 1_555
N1 Cu1 1_555 1_555
C3 C1 1_555 1_555
N2 Cu1 1_555 1_555
C4 C1 1_555 1_555
C5 C4 1_555 1_555
H1 C5 1_555 1_555
C6 C2 1_555 1_555
H2 C6 1_555 1_555
C7 N1 1_555 1_555
H3 C7 1_555 1_555
C8 C6 1_555 1_555
H4 C8 1_555 1_555
C9 C2 1_555 1_555
H5 C9 1_555 1_555
C10 C7 1_555 1_555
H6 C10 1_555 1_555
C11 C4 1_555 1_555
H7 C11 1_555 1_555
C12 N2 1_555 1_555
H8 C12 1_555 1_555
Cu2_2 Cl2 1_555 1_555
Cl1_2 Cu1 1_555 1_555
Cl2_2 Cu2 1_555 1_555
C3 N2 1_555 1_555
C5 C9 1_555 1_555
C8 C12 1_555 1_555
C10 C11 1_555 1_555

#END
