
#######################################################################
#
#                 Cambridge Crystallographic Data Centre
#                                CCDC 
#
#######################################################################
#
# If this CIF has been generated from an entry in the Cambridge 
# Structural Database, then it will include bibliographic, chemical, 
# crystal, experimental, refinement or atomic coordinate data resulting 
# from the CCDC's data processing and validation procedures.
#
#######################################################################

data_WUKFUF
_symmetry_cell_setting           monoclinic
_symmetry_space_group_name_H-M   'P 21/n'
_symmetry_Int_Tables_number      14
_space_group_name_Hall           '-P 2yn'
loop_
_symmetry_equiv_pos_site_id
_symmetry_equiv_pos_as_xyz
1 x,y,z
2 1/2-x,1/2+y,1/2-z
3 -x,-y,-z
4 1/2+x,1/2-y,1/2+z
_cell_length_a                   8.4638(11)
_cell_length_b                   4.8374(5)
_cell_length_c                   11.9762(16)
_cell_angle_alpha                90
_cell_angle_beta                 91.415(4)
_cell_angle_gamma                90
_cell_volume                     490.189
loop_
_atom_site_label
_atom_site_type_symbol
_atom_site_fract_x
_atom_site_fract_y
_atom_site_fract_z
Co1 Co 0.5000 1.5000 0.0000
O1 O 0.61076(19) 1.1641(3) 0.07877(13)
O2 O 0.5404(2) 0.7489(3) 0.14283(13)
N1 N 0.4449(2) 0.9940(4) 0.34099(16)
N2 N 0.4730(2) 0.7594(4) 0.40132(17)
N3 N 0.2251(2) 0.9126(4) 0.42685(16)
C1 C 0.3374(3) 0.7204(5) 0.45134(19)
H1 H 0.3202 0.5715 0.5000
C2 C 0.2978(3) 1.0804(5) 0.3572(2)
H2 H 0.2520 1.2381 0.3239
C3 C 0.5644(3) 1.1207(5) 0.27214(19)
H3 H 0.6682 1.0958 0.3087
H4 H 0.5438 1.3197 0.2673
C4 C 0.5694(3) 1.0017(4) 0.1536(2)
O1B O 0.38924(19) 0.8359(3) -0.07877(13)
O2B O 0.4596(2) 1.2511(3) -0.14283(13)
N1B N 0.5551(2) 1.0060(4) -0.34099(16)
N2B N 0.5270(2) 1.2406(4) -0.40132(17)
N3B N 0.7749(2) 1.0874(4) -0.42685(16)
C1B C 0.6626(3) 1.2796(5) -0.45134(19)
H1B H 0.6798 1.4285 -0.5000
C2B C 0.7022(3) 0.9196(5) -0.3572(2)
H2B H 0.7480 0.7619 -0.3239
C3B C 0.4356(3) 0.8793(5) -0.27214(19)
H3B H 0.3318 0.9042 -0.3087
H4B H 0.4562 0.6803 -0.2673
C4B C 0.4306(3) 0.9983(4) -0.1536(2)
Co1_2 Co 0.5000 0.5000 0.0000
Co1A Co 0.0000 1.0000 0.5000
Co1A_2 Co 1.0000 1.0000 -0.5000
O1B_2 O 0.38924(19) 1.8359(3) -0.07877(13)
O2_2 O 0.5404(2) 1.7489(3) 0.14283(13)
N3A N 0.2749(2) 1.4126(4) 0.07315(16)
N3C N 0.7251(2) 1.5874(4) -0.07315(16)
loop_
_geom_bond_atom_site_label_1
_geom_bond_atom_site_label_2
_geom_bond_site_symmetry_1
_geom_bond_site_symmetry_2
Co1 O1 1_555 1_555
O1 C4 1_555 1_555
O2 C4 1_555 1_555
N1 N2 1_555 1_555
N2 C1 1_555 1_555
N3 C1 1_555 1_555
C1 H1 1_555 1_555
C2 N1 1_555 1_555
H2 C2 1_555 1_555
C3 N1 1_555 1_555
H3 C3 1_555 1_555
H4 C3 1_555 1_555
C4 C3 1_555 1_555
O1B C4B 1_555 1_555
O2B Co1 1_555 1_555
N1B N2B 1_555 1_555
N2B C1B 1_555 1_555
N3B C1B 1_555 1_555
C1B H1B 1_555 1_555
C2B N1B 1_555 1_555
H2B C2B 1_555 1_555
C3B N1B 1_555 1_555
H3B C3B 1_555 1_555
H4B C3B 1_555 1_555
C4B O2B 1_555 1_555
Co1_2 O2 1_555 1_555
Co1A N3 1_555 1_555
Co1A_2 N3B 1_555 1_555
O1B_2 Co1 1_555 1_555
O2_2 Co1 1_555 1_555
N3A Co1 1_555 1_555
N3C Co1 1_555 1_555
N3 C2 1_555 1_555
O1B Co1_2 1_555 1_555
N3B C2B 1_555 1_555
C3B C4B 1_555 1_555

#END
