
#######################################################################
#
#                 Cambridge Crystallographic Data Centre
#                                CCDC 
#
#######################################################################
#
# If this CIF has been generated from an entry in the Cambridge 
# Structural Database, then it will include bibliographic, chemical, 
# crystal, experimental, refinement or atomic coordinate data resulting 
# from the CCDC's data processing and validation procedures.
#
#######################################################################

data_WUKPID
_symmetry_cell_setting           triclinic
_symmetry_space_group_name_H-M   'P -1'
_symmetry_Int_Tables_number      2
_space_group_name_Hall           '-P 1'
loop_
_symmetry_equiv_pos_site_id
_symmetry_equiv_pos_as_xyz
1 x,y,z
2 -x,-y,-z
_cell_length_a                   8.851(4)
_cell_length_b                   10.969(5)
_cell_length_c                   12.661(6)
_cell_angle_alpha                99.316(6)
_cell_angle_beta                 105.962(6)
_cell_angle_gamma                93.967(6)
_cell_volume                     1157.83
loop_
_atom_site_label
_atom_site_type_symbol
_atom_site_fract_x
_atom_site_fract_y
_atom_site_fract_z
Gd1 Gd 0.74216(3) -0.03717(2) 0.02976(2)
N1 N 1.2468(6) 0.4924(5) 0.4961(5)
O1 O 0.6990(5) 0.6350(4) 0.1514(4)
O2 O 0.8535(6) 0.7604(4) 0.3085(4)
H1 H 0.8092 0.8154 0.2800
O3 O 1.2888(7) 0.5972(5) 0.5472(5)
O4 O 1.3054(7) 0.4031(5) 0.5272(5)
O5 O 0.7269(4) 0.1823(3) 0.1079(3)
O6 O 0.9518(4) 0.1148(3) 0.1863(3)
O7 O 0.8769(5) 0.0717(3) -0.0647(3)
O8 O 0.5116(4) 0.0150(3) -0.0994(3)
O9 O 0.3009(4) 0.0597(3) -0.2154(3)
O10 O 1.0772(4) 0.1748(4) -0.0977(3)
O11 O 0.5748(4) -0.2383(3) -0.0170(3)
H2 H 0.4772 -0.2282 -0.0338
H3 H 0.5961 -0.2768 0.0375
O12 O 0.7646(5) -0.1699(4) -0.1418(3)
H4 H 0.8528 -0.1499 -0.1527
H5 H 0.7561 -0.2456 -0.1346
C1 C 0.8640(6) 0.2008(5) 0.1756(4)
C2 C 0.9247(6) 0.3305(5) 0.2442(5)
C3 C 0.8446(6) 0.4299(5) 0.2149(5)
H6 H 0.7542 0.4160 0.1540
C4 C 0.8978(7) 0.5504(5) 0.2755(5)
C5 C 1.0304(7) 0.5714(5) 0.3674(5)
H7 H 1.0672 0.6510 0.4094
C6 C 1.1067(7) 0.4699(5) 0.3950(5)
C7 C 1.0581(7) 0.3507(5) 0.3353(5)
H8 H 1.1137 0.2853 0.3558
C8 C 0.8061(7) 0.6530(5) 0.2384(5)
C9 C 0.9342(6) 0.1590(4) -0.1002(4)
C10 C 0.8265(6) 0.2500(5) -0.1456(5)
C11 C 0.8644(7) 0.3753(5) -0.0964(6)
H9 H 0.9592 0.4015 -0.0402
C12 C 0.7630(8) 0.4613(6) -0.1298(7)
H10 H 0.7894 0.5447 -0.0958
C13 C 0.6233(8) 0.4233(6) -0.2131(6)
H11 H 0.5548 0.4810 -0.2356
C14 C 0.5844(7) 0.2993(5) -0.2637(5)
H12 H 0.4903 0.2743 -0.3208
C15 C 0.6848(6) 0.2108(5) -0.2300(4)
C16 C 0.6442(6) 0.0795(5) -0.2945(4)
C17 C 0.7266(7) 0.0352(6) -0.3690(5)
H13 H 0.8119 0.0855 -0.3747
C18 C 0.6833(8) -0.0835(6) -0.4354(5)
H14 H 0.7400 -0.1120 -0.4844
C19 C 0.5567(8) -0.1582(6) -0.4282(5)
H15 H 0.5266 -0.2365 -0.4738
C20 C 0.4738(7) -0.1182(5) -0.3541(5)
H16 H 0.3888 -0.1696 -0.3493
C21 C 0.5181(6) 0.0002(5) -0.2861(4)
C22 C 0.4395(6) 0.0295(4) -0.1961(4)
Gd1A Gd 0.25784(3) 0.03717(2) -0.02976(2)
Gd1A_2 Gd 1.25784(3) 0.03717(2) -0.02976(2)
O8A O 0.4884(4) -0.0150(3) 0.0994(3)
O9A O 0.6991(4) -0.0597(3) 0.2154(3)
O10A O 0.9228(4) -0.1748(4) 0.0977(3)
O13 O 0.064(3) 0.900(4) 0.565(3)
H17 H 0.0246 0.9595 0.5370
H18 H 0.0534 0.9050 0.6305
loop_
_geom_bond_atom_site_label_1
_geom_bond_atom_site_label_2
_geom_bond_site_symmetry_1
_geom_bond_site_symmetry_2
Gd1 O5 1_555 1_555
N1 O3 1_555 1_555
O1 C8 1_555 1_555
O2 H1 1_555 1_555
O4 N1 1_555 1_555
O5 C1 1_555 1_555
O6 Gd1 1_555 1_555
O7 Gd1 1_555 1_555
O8 Gd1 1_555 1_555
O9 C22 1_555 1_555
O10 C9 1_555 1_555
O11 Gd1 1_555 1_555
H2 O11 1_555 1_555
H3 O11 1_555 1_555
O12 Gd1 1_555 1_555
H4 O12 1_555 1_555
H5 O12 1_555 1_555
C1 O6 1_555 1_555
C2 C1 1_555 1_555
C3 C2 1_555 1_555
H6 C3 1_555 1_555
C4 C3 1_555 1_555
C5 C4 1_555 1_555
H7 C5 1_555 1_555
C6 N1 1_555 1_555
C7 C2 1_555 1_555
H8 C7 1_555 1_555
C8 O2 1_555 1_555
C9 O7 1_555 1_555
C10 C9 1_555 1_555
C11 C10 1_555 1_555
H9 C11 1_555 1_555
C12 C11 1_555 1_555
H10 C12 1_555 1_555
C13 C12 1_555 1_555
H11 C13 1_555 1_555
C14 C13 1_555 1_555
H12 C14 1_555 1_555
C15 C10 1_555 1_555
C16 C15 1_555 1_555
C17 C16 1_555 1_555
H13 C17 1_555 1_555
C18 C17 1_555 1_555
H14 C18 1_555 1_555
C19 C18 1_555 1_555
H15 C19 1_555 1_555
C20 C19 1_555 1_555
H16 C20 1_555 1_555
C21 C16 1_555 1_555
C22 O8 1_555 1_555
O13 H17 1_555 1_555
H18 O13 1_555 1_555
Gd1A O8 1_555 1_555
Gd1A_2 O10 1_555 1_555
O8A Gd1 1_555 1_555
O9A Gd1 1_555 1_555
O10A Gd1 1_555 1_555
O9 Gd1A 1_555 1_555
C4 C8 1_555 1_555
C5 C6 1_555 1_555
C6 C7 1_555 1_555
C14 C15 1_555 1_555
C20 C21 1_555 1_555
C21 C22 1_555 1_555
Gd1A O8A 1_555 1_555

#END
