
#######################################################################
#
#                 Cambridge Crystallographic Data Centre
#                                CCDC 
#
#######################################################################
#
# If this CIF has been generated from an entry in the Cambridge 
# Structural Database, then it will include bibliographic, chemical, 
# crystal, experimental, refinement or atomic coordinate data resulting 
# from the CCDC's data processing and validation procedures.
#
#######################################################################

data_WUKREB
_symmetry_cell_setting           triclinic
_symmetry_space_group_name_H-M   'P -1'
_symmetry_Int_Tables_number      2
_space_group_name_Hall           '-P 1'
loop_
_symmetry_equiv_pos_site_id
_symmetry_equiv_pos_as_xyz
1 x,y,z
2 -x,-y,-z
_cell_length_a                   8.833(4)
_cell_length_b                   10.966(5)
_cell_length_c                   12.615(6)
_cell_angle_alpha                99.215(5)
_cell_angle_beta                 105.792(5)
_cell_angle_gamma                94.166(5)
_cell_volume                     1151.91
loop_
_atom_site_label
_atom_site_type_symbol
_atom_site_fract_x
_atom_site_fract_y
_atom_site_fract_z
Eu1 Eu 0.742901(11) -0.037331(8) 0.529793(8)
O1 O 0.72741(19) 0.18258(15) 0.60819(15)
O2 O 0.95123(19) 0.11595(14) 0.68699(14)
O3 O 0.48881(18) -0.01562(15) 0.59952(13)
O4 O 0.69852(18) -0.06051(14) 0.71693(13)
O5 O 0.7653(2) -0.17050(16) 0.35768(15)
O6 O 0.57463(19) -0.23927(14) 0.48270(14)
O7 O 0.8790(2) 0.07262(15) 0.43532(15)
O8 O 0.92295(19) -0.17627(16) 0.59923(16)
C1 C 0.8642(3) 0.20162(19) 0.67586(19)
H1 H 0.8539 -0.1507 0.3467
H2 H 0.7562 -0.2462 0.3650
H3 H 0.4770 -0.2293 0.4657
H4 H 0.5956 -0.2778 0.5373
C2 C 0.4394(2) 0.03051(18) 0.30315(18)
C3 C 0.9353(3) 0.15975(19) 0.39937(18)
C4 C 0.9241(3) 0.33044(19) 0.74384(19)
C5 C 0.5189(3) 0.0009(2) 0.21356(18)
C6 C 0.8270(3) 0.2507(2) 0.3542(2)
C7 C 0.8439(3) 0.4297(2) 0.7143(2)
C8 C 1.0587(3) 0.3509(2) 0.8358(2)
C9 C 0.4743(3) -0.1176(2) 0.1454(2)
C10 C 0.6446(3) 0.0797(2) 0.20516(18)
C11 C 0.8654(3) 0.3753(2) 0.4032(3)
C12 C 0.6855(3) 0.2110(2) 0.26858(19)
H5 H 0.7539 0.4160 0.6528
C13 C 0.8969(3) 0.5500(2) 0.7758(2)
C14 C 1.1076(3) 0.4710(2) 0.8957(2)
H6 H 1.1143 0.2855 0.8565
H7 H 0.3885 -0.1687 0.1500
C15 C 0.5579(4) -0.1581(3) 0.0714(2)
C16 C 0.7280(3) 0.0357(2) 0.1306(2)
H8 H 0.9611 0.4016 0.4586
C17 C 0.7628(4) 0.4617(2) 0.3708(3)
C18 C 0.5855(3) 0.2992(2) 0.2356(2)
C19 C 1.0305(3) 0.5722(2) 0.8679(2)
C20 C 0.8051(3) 0.6525(2) 0.7385(2)
N1 N 1.2470(3) 0.4935(2) 0.9961(2)
C21 C 0.6841(4) -0.0831(3) 0.0646(2)
H9 H 0.5282 -0.2366 0.0260
H10 H 0.8137 0.0860 0.1248
C22 C 0.6235(3) 0.4235(2) 0.2864(3)
H11 H 0.7882 0.5449 0.4059
H12 H 0.4913 0.2741 0.1784
H13 H 1.0670 0.6520 0.9095
O9 O 0.8524(3) 0.76038(15) 0.80925(16)
O10 O 0.6986(2) 0.63465(16) 0.65237(17)
O11 O 1.3059(3) 0.4039(2) 1.0264(2)
O12 O 1.2900(3) 0.59893(19) 1.0476(2)
H14 H 0.7413 -0.1116 0.0157
H15 H 0.5551 0.4809 0.2634
H16 H 0.8000 0.8136 0.7843
O3A O 0.51119(18) 0.01562(15) 0.40048(13)
Eu1A Eu 0.257099(11) 0.037331(8) 0.470207(8)
O4A O 0.30148(18) 0.06051(14) 0.28307(13)
O8A O 1.07705(19) 0.17627(16) 0.40077(16)
Eu1A_2 Eu 1.257099(11) 0.037331(8) 0.470207(8)
O13 O 0.9348(15) 0.0957(16) 0.9320(11)
H17 H 0.9772 0.1657 0.9730
H18 H 0.8369 0.0909 0.9284
loop_
_geom_bond_atom_site_label_1
_geom_bond_atom_site_label_2
_geom_bond_site_symmetry_1
_geom_bond_site_symmetry_2
Eu1 O1 1_555 1_555
O1 C1 1_555 1_555
O2 Eu1 1_555 1_555
O3 Eu1 1_555 1_555
O4 Eu1 1_555 1_555
O5 Eu1 1_555 1_555
O6 Eu1 1_555 1_555
O7 Eu1 1_555 1_555
O8 Eu1 1_555 1_555
C1 O2 1_555 1_555
H1 O5 1_555 1_555
H2 O5 1_555 1_555
H3 O6 1_555 1_555
H4 O6 1_555 1_555
C2 C5 1_555 1_555
C3 O7 1_555 1_555
C4 C1 1_555 1_555
C5 C9 1_555 1_555
C6 C3 1_555 1_555
C7 C4 1_555 1_555
C8 C4 1_555 1_555
C9 H7 1_555 1_555
C10 C5 1_555 1_555
C11 C6 1_555 1_555
C12 C6 1_555 1_555
H5 C7 1_555 1_555
C13 C7 1_555 1_555
C14 C8 1_555 1_555
H6 C8 1_555 1_555
C15 C9 1_555 1_555
C16 C10 1_555 1_555
H8 C11 1_555 1_555
C17 C11 1_555 1_555
C18 C12 1_555 1_555
C19 C13 1_555 1_555
C20 C13 1_555 1_555
N1 C14 1_555 1_555
C21 C15 1_555 1_555
H9 C15 1_555 1_555
H10 C16 1_555 1_555
C22 C17 1_555 1_555
H11 C17 1_555 1_555
H12 C18 1_555 1_555
H13 C19 1_555 1_555
O9 C20 1_555 1_555
O10 C20 1_555 1_555
O11 N1 1_555 1_555
O12 N1 1_555 1_555
H14 C21 1_555 1_555
H15 C22 1_555 1_555
H16 O9 1_555 1_555
O13 H17 1_555 1_555
H18 O13 1_555 1_555
O3A Eu1 1_555 1_555
Eu1A O3 1_555 1_555
O4A C2 1_555 1_555
O8A C3 1_555 1_555
Eu1A_2 O8A 1_555 1_555
C2 O3A 1_555 1_555
C10 C12 1_555 1_555
C14 C19 1_555 1_555
C16 C21 1_555 1_555
C18 C22 1_555 1_555
O3A Eu1A 1_555 1_555
Eu1A O4A 1_555 1_555

#END
