
#######################################################################
#
#                 Cambridge Crystallographic Data Centre
#                                CCDC 
#
#######################################################################
#
# If this CIF has been generated from an entry in the Cambridge 
# Structural Database, then it will include bibliographic, chemical, 
# crystal, experimental, refinement or atomic coordinate data resulting 
# from the CCDC's data processing and validation procedures.
#
#######################################################################

data_WUKWAC
_symmetry_cell_setting           monoclinic
_symmetry_space_group_name_H-M   'P 21/c'
_symmetry_Int_Tables_number      14
_space_group_name_Hall           '-P 2ybc'
loop_
_symmetry_equiv_pos_site_id
_symmetry_equiv_pos_as_xyz
1 x,y,z
2 -x,1/2+y,1/2-z
3 -x,-y,-z
4 x,1/2-y,1/2+z
_cell_length_a                   8.9183(18)
_cell_length_b                   11.514(2)
_cell_length_c                   15.202(3)
_cell_angle_alpha                90
_cell_angle_beta                 105.491(2)
_cell_angle_gamma                90
_cell_volume                     1504.31
loop_
_atom_site_label
_atom_site_type_symbol
_atom_site_fract_x
_atom_site_fract_y
_atom_site_fract_z
U1 U 0.0000 0.0000 0.0000
O1 O -0.0770(2) 0.00282(14) 0.14616(11)
O2 O -0.20199(19) 0.00855(11) -0.05441(11)
O3 O 0.01111(18) 0.19305(12) 0.07054(10)
O4 O 0.01201(19) 0.19414(13) -0.07351(10)
C1 C 0.0078(2) 0.37896(18) -0.00076(13)
C2 C 0.0360(3) 0.43889(18) 0.08205(15)
H1 H 0.0610 0.3971 0.1380
C3 C 0.0117(2) 0.24886(19) -0.00159(13)
C4 C -0.0276(3) 0.44036(18) -0.08275(15)
H2 H -0.0460 0.3999 -0.1391
H3 H -0.125(4) -0.048(3) 0.153(2)
H4 H -0.123(3) 0.056(3) 0.1511(19)
O3B O -0.01111(18) 0.80695(12) -0.07054(10)
O4B O -0.01201(19) 0.80586(13) 0.07351(10)
C1B C -0.0078(2) 0.62104(18) 0.00076(13)
C2B C -0.0360(3) 0.56111(18) -0.08205(15)
H1B H -0.0610 0.6029 -0.1380
C3B C -0.0117(2) 0.75114(19) 0.00159(13)
C4B C 0.0276(3) 0.55964(18) 0.08275(15)
H2B H 0.0460 0.6001 0.1391
O1B O 0.0770(2) -0.00282(14) -0.14616(11)
O2B O 0.20199(19) -0.00855(11) 0.05441(11)
H3B H 0.125(4) 0.048(3) -0.153(2)
H4B H 0.123(3) -0.056(3) -0.1511(19)
U1_2 U 0.0000 1.0000 0.0000
O3B_2 O -0.01111(18) -0.19305(12) -0.07054(10)
O4B_2 O -0.01201(19) -0.19414(13) 0.07351(10)
N1 N 0.5754(2) 0.01205(14) 0.09197(13)
N2 N 0.7007(2) -0.19411(15) 0.17770(12)
C5 C 0.6156(3) -0.34331(18) 0.26399(15)
H5 H 0.6412 -0.3966 0.3135
N3 N 0.7462(2) 0.20486(15) 0.14909(12)
C6 C 0.5293(3) 0.31889(19) 0.06505(15)
H6 H 0.4340 0.3232 0.0186
C7 C 0.4641(3) -0.33449(18) 0.20992(15)
H7 H 0.3840 -0.3820 0.2211
C8 C 0.5525(2) -0.18637(17) 0.12589(13)
C9 C 0.6116(2) 0.21505(17) 0.08332(14)
C10 C 0.7293(3) 0.40628(19) 0.18422(16)
H8 H 0.7729 0.4715 0.2203
C11 C 0.5246(2) -0.09198(17) 0.05677(14)
C12 C 0.5519(2) 0.10440(18) 0.03624(14)
C13 C 0.4319(3) -0.25440(17) 0.13888(14)
H9 H 0.3295 -0.2465 0.1001
C14 C 0.8029(3) 0.29933(18) 0.19788(15)
H10 H 0.8981 0.2927 0.2441
C15 C 0.7295(3) -0.27322(19) 0.24474(15)
H11 H 0.8335 -0.2818 0.2811
C16 C 0.5901(3) 0.4160(2) 0.11641(17)
H12 H 0.5371 0.4883 0.1053
N1B N 0.4246(2) -0.01205(14) -0.09197(13)
N2B N 0.2993(2) 0.19411(15) -0.17770(12)
C5B C 0.3844(3) 0.34331(18) -0.26399(15)
H5B H 0.3588 0.3966 -0.3135
N3B N 0.2538(2) -0.20486(15) -0.14909(12)
C6B C 0.4707(3) -0.31889(19) -0.06505(15)
H6B H 0.5660 -0.3232 -0.0186
C7B C 0.5359(3) 0.33449(18) -0.20992(15)
H7B H 0.6160 0.3820 -0.2211
C8B C 0.4475(2) 0.18637(17) -0.12589(13)
C9B C 0.3884(2) -0.21505(17) -0.08332(14)
C10B C 0.2707(3) -0.40628(19) -0.18422(16)
H8B H 0.2271 -0.4715 -0.2203
C11B C 0.4754(2) 0.09198(17) -0.05677(14)
C12B C 0.4481(2) -0.10440(18) -0.03624(14)
C13B C 0.5681(3) 0.25440(17) -0.13888(14)
H9B H 0.6705 0.2465 -0.1001
C14B C 0.1971(3) -0.29933(18) -0.19788(15)
H10B H 0.1019 -0.2927 -0.2441
C15B C 0.2705(3) 0.27322(19) -0.24474(15)
H11B H 0.1665 0.2818 -0.2811
C16B C 0.4099(3) -0.4160(2) -0.11641(17)
H12B H 0.4629 -0.4883 -0.1053
loop_
_geom_bond_atom_site_label_1
_geom_bond_atom_site_label_2
_geom_bond_site_symmetry_1
_geom_bond_site_symmetry_2
U1 O1 1_555 1_555
O1 H3 1_555 1_555
O2 U1 1_555 1_555
O3 U1 1_555 1_555
O4 U1 1_555 1_555
C1 C2 1_555 1_555
C2 H1 1_555 1_555
C3 O3 1_555 1_555
C4 C1 1_555 1_555
H2 C4 1_555 1_555
H4 O1 1_555 1_555
N1 C11 1_555 1_555
N2 C8 1_555 1_555
C5 H5 1_555 1_555
N3 C9 1_555 1_555
C6 H6 1_555 1_555
C7 C5 1_555 1_555
H7 C7 1_555 1_555
C8 C11 1_555 1_555
C9 C6 1_555 1_555
C10 H8 1_555 1_555
C11 C12B 1_555 1_555
C12 N1 1_555 1_555
C13 C7 1_555 1_555
H9 C13 1_555 1_555
C14 N3 1_555 1_555
H10 C14 1_555 1_555
C15 N2 1_555 1_555
H11 C15 1_555 1_555
C16 C6 1_555 1_555
H12 C16 1_555 1_555
O3B C3B 1_555 1_555
O4B C3B 1_555 1_555
C1B C2B 1_555 1_555
C2B C4 1_555 1_555
H1B C2B 1_555 1_555
C3B C1B 1_555 1_555
C4B C2 1_555 1_555
H2B C4B 1_555 1_555
O1B U1 1_555 1_555
O2B U1 1_555 1_555
H3B O1B 1_555 1_555
H4B O1B 1_555 1_555
U1_2 O3B 1_555 1_555
O3B_2 U1 1_555 1_555
O4B_2 U1 1_555 1_555
N1B C11B 1_555 1_555
N2B C8B 1_555 1_555
C5B H5B 1_555 1_555
N3B C9B 1_555 1_555
C6B H6B 1_555 1_555
C7B C5B 1_555 1_555
H7B C7B 1_555 1_555
C8B C11B 1_555 1_555
C9B C6B 1_555 1_555
C10B H8B 1_555 1_555
C11B C12 1_555 1_555
C12B N1B 1_555 1_555
C13B C7B 1_555 1_555
H9B C13B 1_555 1_555
C14B N3B 1_555 1_555
H10B C14B 1_555 1_555
C15B N2B 1_555 1_555
H11B C15B 1_555 1_555
C16B C6B 1_555 1_555
H12B C16B 1_555 1_555
O4 C3 1_555 1_555
C1 C3 1_555 1_555
C5 C15 1_555 1_555
C8 C13 1_555 1_555
C9 C12 1_555 1_555
C10 C14 1_555 1_555
C10 C16 1_555 1_555
O4B U1_2 1_555 1_555
C1B C4B 1_555 1_555
C5B C15B 1_555 1_555
C8B C13B 1_555 1_555
C9B C12B 1_555 1_555
C10B C14B 1_555 1_555
C10B C16B 1_555 1_555

#END
