
#######################################################################
#
#                 Cambridge Crystallographic Data Centre
#                                CCDC 
#
#######################################################################
#
# If this CIF has been generated from an entry in the Cambridge 
# Structural Database, then it will include bibliographic, chemical, 
# crystal, experimental, refinement or atomic coordinate data resulting 
# from the CCDC's data processing and validation procedures.
#
#######################################################################

data_WUKXEH
_symmetry_cell_setting           tetragonal
_symmetry_space_group_name_H-M   'I 4/m'
_symmetry_Int_Tables_number      87
_space_group_name_Hall           '-I 4'
loop_
_symmetry_equiv_pos_site_id
_symmetry_equiv_pos_as_xyz
1 x,y,z
2 -y,x,z
3 -x,-y,z
4 y,-x,z
5 1/2+x,1/2+y,1/2+z
6 1/2-y,1/2+x,1/2+z
7 1/2-x,1/2-y,1/2+z
8 1/2+y,1/2-x,1/2+z
9 -x,-y,-z
10 y,-x,-z
11 x,y,-z
12 -y,x,-z
13 1/2-x,1/2-y,1/2-z
14 1/2+y,1/2-x,1/2-z
15 1/2+x,1/2+y,1/2-z
16 1/2-y,1/2+x,1/2-z
_cell_length_a                   31.4206(3)
_cell_length_b                   31.4206(3)
_cell_length_c                   44.8239(5)
_cell_angle_alpha                90
_cell_angle_beta                 90
_cell_angle_gamma                90
_cell_volume                     44252.6
loop_
_atom_site_label
_atom_site_type_symbol
_atom_site_fract_x
_atom_site_fract_y
_atom_site_fract_z
O1 O 0.90950(7) 0.79963(6) 0.10787(5)
O2 O 0.87708(7) 0.75838(6) 0.14185(5)
C1 C 0.89843(9) 0.76417(9) 0.11826(6)
C2 C 0.91244(10) 0.72530(9) 0.10152(6)
C3 C 0.89748(12) 0.68574(10) 0.10978(8)
H1 H 0.8786 0.6830 0.1256
C4 C 0.91113(15) 0.64990(11) 0.09406(9)
N1 N 0.89503(16) 0.60887(9) 0.10116(10)
C5 C 0.86656(18) 0.59729(12) 0.12206(11)
H2 H 0.8531 0.6153 0.1355
Cu1 Cu 0.640131(11) 0.694084(11) 0.332382(7)
Cu2 Cu 0.605061(11) 0.645912(11) 0.373916(7)
O3 O 0.65298(7) 0.63951(6) 0.31323(5)
O4 O 1.00593(7) 0.66400(6) 0.03034(4)
O5 O 0.62575(7) 0.59863(6) 0.34937(4)
O6 O 0.65032(7) 0.44537(6) 0.34883(5)
O7 O 0.69320(7) 0.41697(6) 0.31449(5)
O8 O 0.99666(7) 0.73474(6) 0.03076(5)
O9 O 0.57585(13) 0.60753(12) 0.40783(8)
H3 H 0.5533 0.6185 0.4130
O10 O 0.66734(11) 0.73433(11) 0.29870(7)
H4 H 0.6907 0.7250 0.2938
N2 N 0.81482(15) 0.34745(9) 0.12117(9)
C6 C 0.94140(9) 0.72935(9) 0.07833(6)
H5 H 0.9510 0.7561 0.0726
C7 C 0.65756(9) 0.52554(9) 0.32353(6)
H6 H 0.6422 0.5230 0.3412
C8 C 0.66232(10) 0.56506(9) 0.31040(6)
C9 C 0.67565(10) 0.48943(9) 0.31044(6)
C10 C 0.67285(9) 0.44732(8) 0.32564(6)
C11 C 0.95586(10) 0.69356(9) 0.06374(6)
N3 N 0.72621(16) 0.53874(10) 0.24402(9)
C12 C 0.94085(12) 0.65311(10) 0.07150(8)
H7 H 0.9507 0.6290 0.0617
C13 C 0.85502(13) 0.31508(9) 0.08073(8)
H8 H 0.8600 0.3418 0.0725
C14 C 0.68450(13) 0.56916(10) 0.28377(7)
H9 H 0.6872 0.5956 0.2747
C15 C 0.64537(9) 0.60427(9) 0.32558(6)
C16 C 0.98888(9) 0.69761(9) 0.03975(6)
C17 C 0.83041(14) 0.31112(10) 0.10628(8)
C18 C 0.82320(13) 0.27146(10) 0.11875(7)
H10 H 0.8071 0.2690 0.1361
C19 C 0.69799(12) 0.49338(9) 0.28375(8)
H11 H 0.7098 0.4695 0.2746
C20 C 0.70246(14) 0.53343(10) 0.27092(8)
C21 C 0.7631(2) 0.53042(12) 0.20340(12)
C22 C 0.74267(18) 0.50985(12) 0.22557(10)
H12 H 0.7404 0.4805 0.2276
C23 C 0.8039(2) 0.41112(12) 0.13887(12)
C24 C 0.78378(19) 0.47134(12) 0.17058(11)
H13 H 0.7666 0.4530 0.1815
C25 C 0.8113(2) 0.54169(12) 0.16133(11)
H14 H 0.8116 0.5706 0.1658
C26 C 0.82691(18) 0.38841(11) 0.11897(11)
H15 H 0.8474 0.3992 0.1061
C27 C 0.8074(2) 0.45608(12) 0.14649(12)
C28 C 0.8611(2) 0.55432(13) 0.11990(13)
C29 C 0.7861(2) 0.51403(12) 0.17808(11)
C30 C 0.83314(19) 0.48392(12) 0.13000(11)
H16 H 0.8484 0.4738 0.1137
C31 C 0.8359(2) 0.52629(12) 0.13796(12)
C32 C 0.90128(9) 0.28369(8) 0.04094(5)
C33 C 0.87219(10) 0.27922(9) 0.06748(6)
C34 C 0.86468(10) 0.23901(9) 0.07963(6)
H17 H 0.8760 0.2148 0.0706
C35 C 0.84009(10) 0.23545(9) 0.10537(6)
O11 O 0.90739(7) 0.32087(6) 0.03130(4)
Cu3 Cu 1.038858(16) 0.748633(14) 0.0000
Cu4 Cu 1.051117(16) 0.665476(14) 0.0000
O12 O 0.91735(7) 0.25042(6) 0.03087(4)
C36 C 0.83413(9) 0.19276(8) 0.12005(6)
O13 O 0.85132(7) 0.16150(6) 0.10736(5)
O14 O 0.81312(7) 0.19171(6) 0.14343(4)
O15 O 1.06406(17) 0.59833(11) 0.0000
H18 H 1.0812 0.5928 -0.0132
O16 O 1.0274(2) 0.81614(12) 0.0000
H19 H 1.0235 0.8243 0.0172
N4 N 0.8856(3) 0.54149(19) 0.09817(17)
N5 N 0.9029(3) 0.57604(19) 0.08436(17)
N6 N 0.7810(2) 0.38374(17) 0.15360(16)
N7 N 0.7604(3) 0.5703(2) 0.20979(16)
N8 N 0.7883(2) 0.34446(17) 0.14337(15)
N9 N 0.7368(3) 0.57617(18) 0.23467(15)
H18J H 1.0812 0.5928 0.0132
H19J H 1.0235 0.8243 -0.0172
O1A O 0.20037(6) 0.90950(7) 0.10787(5)
O2A O 0.24162(6) 0.87708(7) 0.14185(5)
C1A C 0.23583(9) 0.89843(9) 0.11826(6)
C2A C 0.27470(9) 0.91244(10) 0.10152(6)
C3A C 0.31426(10) 0.89748(12) 0.10978(8)
H1A H 0.3170 0.8786 0.1256
C4A C 0.35010(11) 0.91113(15) 0.09406(9)
N1A N 0.39113(9) 0.89503(16) 0.10116(10)
C5A C 0.40271(12) 0.86656(18) 0.12206(11)
H2A H 0.3847 0.8531 0.1355
Cu1A Cu 0.305916(11) 0.640131(11) 0.332382(7)
Cu2A Cu 0.354088(11) 0.605061(11) 0.373916(7)
O3A O 0.36049(6) 0.65298(7) 0.31323(5)
O4A O 0.33600(6) 1.00593(7) 0.03034(4)
O5A O 0.40137(6) 0.62575(7) 0.34937(4)
O6A O 0.55463(6) 0.65032(7) 0.34883(5)
O7A O 0.58303(6) 0.69320(7) 0.31449(5)
O8A O 0.26526(6) 0.99666(7) 0.03076(5)
O9A O 0.39247(12) 0.57585(13) 0.40783(8)
H3A H 0.3815 0.5533 0.4130
O10A O 0.26567(11) 0.66734(11) 0.29870(7)
H4A H 0.2750 0.6907 0.2938
N2A N 0.65255(9) 0.81482(15) 0.12117(9)
C6A C 0.27065(9) 0.94140(9) 0.07833(6)
H5A H 0.2439 0.9510 0.0726
C7A C 0.47446(9) 0.65756(9) 0.32353(6)
H6A H 0.4770 0.6422 0.3412
C8A C 0.43494(9) 0.66232(10) 0.31040(6)
C9A C 0.51057(9) 0.67565(10) 0.31044(6)
C10A C 0.55268(8) 0.67285(9) 0.32564(6)
C11A C 0.30644(9) 0.95586(10) 0.06374(6)
N3A N 0.46126(10) 0.72621(16) 0.24402(9)
C12A C 0.34689(10) 0.94085(12) 0.07150(8)
H7A H 0.3710 0.9507 0.0617
C13A C 0.68492(9) 0.85502(13) 0.08073(8)
H8A H 0.6582 0.8600 0.0725
C14A C 0.43084(10) 0.68450(13) 0.28377(7)
H9A H 0.4044 0.6872 0.2747
C15A C 0.39573(9) 0.64537(9) 0.32558(6)
C16A C 0.30239(9) 0.98888(9) 0.03975(6)
C17A C 0.68888(10) 0.83041(14) 0.10628(8)
C18A C 0.72854(10) 0.82320(13) 0.11875(7)
H10A H 0.7310 0.8071 0.1361
C19A C 0.50662(9) 0.69799(12) 0.28375(8)
H11A H 0.5305 0.7098 0.2746
C20A C 0.46657(10) 0.70246(14) 0.27092(8)
C21A C 0.46958(12) 0.7631(2) 0.20340(12)
C22A C 0.49015(12) 0.74267(18) 0.22557(10)
H12A H 0.5195 0.7404 0.2276
C23A C 0.58888(12) 0.8039(2) 0.13887(12)
C24A C 0.52866(12) 0.78378(19) 0.17058(11)
H13A H 0.5470 0.7666 0.1815
C25A C 0.45831(12) 0.8113(2) 0.16133(11)
H14A H 0.4294 0.8116 0.1658
C26A C 0.61159(11) 0.82691(18) 0.11897(11)
H15A H 0.6008 0.8474 0.1061
C27A C 0.54392(12) 0.8074(2) 0.14649(12)
C28A C 0.44568(13) 0.8611(2) 0.11990(13)
C29A C 0.48597(12) 0.7861(2) 0.17808(11)
C30A C 0.51608(12) 0.83314(19) 0.13000(11)
H16A H 0.5262 0.8484 0.1137
C31A C 0.47371(12) 0.8359(2) 0.13796(12)
C32A C 0.71631(8) 0.90128(9) 0.04094(5)
C33A C 0.72078(9) 0.87219(10) 0.06748(6)
C34A C 0.76099(9) 0.86468(10) 0.07963(6)
H17A H 0.7852 0.8760 0.0706
C35A C 0.76455(9) 0.84009(10) 0.10537(6)
O11A O 0.67913(6) 0.90739(7) 0.03130(4)
O12A O 0.74958(6) 0.91735(7) 0.03087(4)
C36A C 0.80724(8) 0.83413(9) 0.12005(6)
O13A O 0.83850(6) 0.85132(7) 0.10736(5)
O14A O 0.80829(6) 0.81312(7) 0.14343(4)
N4A N 0.45851(19) 0.8856(3) 0.09817(17)
N5A N 0.42396(19) 0.9029(3) 0.08436(17)
N6A N 0.61626(17) 0.7810(2) 0.15360(16)
N7A N 0.4297(2) 0.7604(3) 0.20979(16)
N8A N 0.65554(17) 0.7883(2) 0.14337(15)
N9A N 0.42383(18) 0.7368(3) 0.23467(15)
O1L O 0.59050(7) 0.70037(6) 0.39213(5)
O1M O 0.29963(6) 0.59050(7) 0.39213(5)
O2L O 0.62292(7) 0.74162(6) 0.35815(5)
O2M O 0.25838(6) 0.62292(7) 0.35815(5)
Cu1C Cu 0.694084(11) 0.359869(11) 0.332382(7)
Cu1L Cu 0.859869(11) 0.805916(11) 0.167618(7)
Cu1M Cu 0.194084(11) 0.859869(11) 0.167618(7)
Cu1O Cu 0.805916(11) 0.140131(11) 0.167618(7)
Cu2C Cu 0.645912(11) 0.394939(11) 0.373916(7)
Cu2L Cu 0.894939(11) 0.854088(11) 0.126084(7)
Cu2M Cu 0.145912(11) 0.894939(11) 0.126084(7)
Cu2O Cu 0.854088(11) 0.105061(11) 0.126084(7)
O4J O 1.00593(7) 0.66400(6) -0.03034(4)
O6B O 0.34968(7) 0.55463(6) 0.34883(5)
O7B O 0.30680(7) 0.58303(6) 0.31449(5)
O8J O 0.99666(7) 0.73474(6) -0.03076(5)
O11B O 1.09261(7) 0.67913(6) 0.03130(4)
O11H O 1.09261(7) 0.67913(6) -0.03130(4)
Cu3A Cu 0.251367(14) 1.038858(16) 0.0000
Cu3B Cu 0.961142(16) 0.251367(14) 0.0000
Cu3C Cu 0.748633(14) 0.961142(16) 0.0000
Cu4A Cu 0.334524(14) 1.051117(16) 0.0000
Cu4B Cu 0.948883(16) 0.334524(14) 0.0000
Cu4C Cu 0.665476(14) 0.948883(16) 0.0000
O12B O 1.08265(7) 0.74958(6) 0.03087(4)
O12H O 1.08265(7) 0.74958(6) -0.03087(4)
O13M O 0.66150(6) 0.64868(7) 0.39264(5)
O13N O 0.35132(7) 0.66150(6) 0.39264(5)
O14M O 0.69171(6) 0.68688(7) 0.35657(4)
O14N O 0.31312(7) 0.69171(6) 0.35657(4)
loop_
_geom_bond_atom_site_label_1
_geom_bond_atom_site_label_2
_geom_bond_site_symmetry_1
_geom_bond_site_symmetry_2
O1 C1 1_555 1_555
O2 C1 1_555 1_555
C1 C2 1_555 1_555
C2 C3 1_555 1_555
C3 H1 1_555 1_555
C4 C3 1_555 1_555
N1 C4 1_555 1_555
C5 N1 1_555 1_555
H2 C5 1_555 1_555
Cu1 Cu2 1_555 1_555
Cu2 O5 1_555 1_555
O3 Cu1 1_555 1_555
O4 C16 1_555 1_555
O5 C15 1_555 1_555
O6 C10 1_555 1_555
O7 C10 1_555 1_555
O8 C16 1_555 1_555
O9 Cu2 1_555 1_555
H3 O9 1_555 1_555
O10 Cu1 1_555 1_555
H4 O10 1_555 1_555
N2 C17 1_555 1_555
C6 C2 1_555 1_555
H5 C6 1_555 1_555
C7 H6 1_555 1_555
C8 C7 1_555 1_555
C9 C7 1_555 1_555
C10 C9 1_555 1_555
C11 C6 1_555 1_555
N3 C20 1_555 1_555
C12 C4 1_555 1_555
H7 C12 1_555 1_555
C13 H8 1_555 1_555
C14 C8 1_555 1_555
H9 C14 1_555 1_555
C15 O3 1_555 1_555
C16 C11 1_555 1_555
C17 C13 1_555 1_555
C18 C17 1_555 1_555
H10 C18 1_555 1_555
C19 C9 1_555 1_555
H11 C19 1_555 1_555
C20 C14 1_555 1_555
C21 C22 1_555 1_555
C22 N3 1_555 1_555
H12 C22 1_555 1_555
C23 C26 1_555 1_555
C24 H13 1_555 1_555
C25 H14 1_555 1_555
C26 N2 1_555 1_555
H15 C26 1_555 1_555
C27 C23 1_555 1_555
C28 C5 1_555 1_555
C29 C21 1_555 1_555
C30 C27 1_555 1_555
H16 C30 1_555 1_555
C31 C25 1_555 1_555
C32 C33 1_555 1_555
C33 C13 1_555 1_555
C34 C33 1_555 1_555
H17 C34 1_555 1_555
C35 C18 1_555 1_555
O11 C32 1_555 1_555
Cu3 O8 1_555 1_555
Cu4 O4 1_555 1_555
O12 C32 1_555 1_555
C36 C35 1_555 1_555
O13 C36 1_555 1_555
O14 C36 1_555 1_555
O15 Cu4 1_555 1_555
H18 O15 1_555 1_555
O16 Cu3 1_555 1_555
H19 O16 1_555 1_555
N4 C28 1_555 1_555
N5 N1 1_555 1_555
N6 C23 1_555 1_555
N7 C21 1_555 1_555
N8 N2 1_555 1_555
N9 N3 1_555 1_555
H18J O15 1_555 1_555
H19J O16 1_555 1_555
O1A C1A 1_555 1_555
O2A C1A 1_555 1_555
C1A C2A 1_555 1_555
C2A C3A 1_555 1_555
C3A H1A 1_555 1_555
C4A C3A 1_555 1_555
N1A C4A 1_555 1_555
C5A N1A 1_555 1_555
H2A C5A 1_555 1_555
Cu1A Cu2A 1_555 1_555
Cu2A O5A 1_555 1_555
O3A Cu1A 1_555 1_555
O4A C16A 1_555 1_555
O5A C15A 1_555 1_555
O6A Cu2 1_555 1_555
O7A Cu1 1_555 1_555
O8A C16A 1_555 1_555
O9A Cu2A 1_555 1_555
H3A O9A 1_555 1_555
O10A Cu1A 1_555 1_555
H4A O10A 1_555 1_555
N2A C17A 1_555 1_555
C6A C2A 1_555 1_555
H5A C6A 1_555 1_555
C7A H6A 1_555 1_555
C8A C7A 1_555 1_555
C9A C7A 1_555 1_555
C10A O6A 1_555 1_555
C11A C6A 1_555 1_555
N3A C20A 1_555 1_555
C12A C4A 1_555 1_555
H7A C12A 1_555 1_555
C13A H8A 1_555 1_555
C14A C8A 1_555 1_555
H9A C14A 1_555 1_555
C15A O3A 1_555 1_555
C16A C11A 1_555 1_555
C17A C13A 1_555 1_555
C18A C17A 1_555 1_555
H10A C18A 1_555 1_555
C19A C9A 1_555 1_555
H11A C19A 1_555 1_555
C20A C14A 1_555 1_555
C21A C22A 1_555 1_555
C22A N3A 1_555 1_555
H12A C22A 1_555 1_555
C23A C26A 1_555 1_555
C24A H13A 1_555 1_555
C25A H14A 1_555 1_555
C26A N2A 1_555 1_555
H15A C26A 1_555 1_555
C27A C23A 1_555 1_555
C28A C5A 1_555 1_555
C29A C21A 1_555 1_555
C30A C27A 1_555 1_555
H16A C30A 1_555 1_555
C31A C25A 1_555 1_555
C32A C33A 1_555 1_555
C33A C13A 1_555 1_555
C34A C33A 1_555 1_555
H17A C34A 1_555 1_555
C35A C18A 1_555 1_555
O11A C32A 1_555 1_555
O12A C32A 1_555 1_555
C36A C35A 1_555 1_555
O13A C36A 1_555 1_555
O14A C36A 1_555 1_555
N4A C28A 1_555 1_555
N5A N1A 1_555 1_555
N6A C23A 1_555 1_555
N7A C21A 1_555 1_555
N8A N2A 1_555 1_555
N9A N3A 1_555 1_555
O1L Cu2 1_555 1_555
O1M Cu2A 1_555 1_555
O2L Cu1 1_555 1_555
O2M Cu1A 1_555 1_555
Cu1C O7 1_555 1_555
Cu1L O2 1_555 1_555
Cu1M O2A 1_555 1_555
Cu1O O14 1_555 1_555
Cu2C O6 1_555 1_555
Cu2L O1 1_555 1_555
Cu2M O1A 1_555 1_555
Cu2O O13 1_555 1_555
O4J Cu4 1_555 1_555
O6B Cu2A 1_555 1_555
O7B Cu1A 1_555 1_555
O8J Cu3 1_555 1_555
O11B Cu4 1_555 1_555
O11H Cu4 1_555 1_555
Cu3A O8A 1_555 1_555
Cu3B O12 1_555 1_555
Cu3C O12A 1_555 1_555
Cu4A O4A 1_555 1_555
Cu4B O11 1_555 1_555
Cu4C O11A 1_555 1_555
O12B Cu3 1_555 1_555
O12H Cu3 1_555 1_555
O13M Cu2 1_555 1_555
O13N Cu2A 1_555 1_555
O14M Cu1 1_555 1_555
O14N Cu1A 1_555 1_555
C8 C15 1_555 1_555
C11 C12 1_555 1_555
C19 C20 1_555 1_555
C24 C27 1_555 1_555
C24 C29 1_555 1_555
C25 C29 1_555 1_555
C28 C31 1_555 1_555
C30 C31 1_555 1_555
C34 C35 1_555 1_555
Cu3 Cu4 1_555 1_555
N4 N5 1_555 1_555
N6 N8 1_555 1_555
N7 N9 1_555 1_555
O7A C10A 1_555 1_555
C8A C15A 1_555 1_555
C9A C10A 1_555 1_555
C11A C12A 1_555 1_555
C19A C20A 1_555 1_555
C24A C27A 1_555 1_555
C24A C29A 1_555 1_555
C25A C29A 1_555 1_555
C28A C31A 1_555 1_555
C30A C31A 1_555 1_555
C34A C35A 1_555 1_555
O13A Cu2L 1_555 1_555
O14A Cu1L 1_555 1_555
N4A N5A 1_555 1_555
N6A N8A 1_555 1_555
N7A N9A 1_555 1_555
Cu1C Cu2C 1_555 1_555
Cu1L Cu2L 1_555 1_555
Cu1M Cu2M 1_555 1_555
Cu1O Cu2O 1_555 1_555
Cu3A Cu4A 1_555 1_555
Cu3B Cu4B 1_555 1_555
Cu3C Cu4C 1_555 1_555

#END
