
#######################################################################
#
#                 Cambridge Crystallographic Data Centre
#                                CCDC 
#
#######################################################################
#
# If this CIF has been generated from an entry in the Cambridge 
# Structural Database, then it will include bibliographic, chemical, 
# crystal, experimental, refinement or atomic coordinate data resulting 
# from the CCDC's data processing and validation procedures.
#
#######################################################################

data_WULJOE
_symmetry_cell_setting           orthorhombic
_symmetry_space_group_name_H-M   'P n m a'
_symmetry_Int_Tables_number      62
_space_group_name_Hall           '-P 2ac 2n'
loop_
_symmetry_equiv_pos_site_id
_symmetry_equiv_pos_as_xyz
1 x,y,z
2 1/2-x,-y,1/2+z
3 1/2+x,1/2-y,1/2-z
4 -x,1/2+y,-z
5 -x,-y,-z
6 1/2+x,y,1/2-z
7 1/2-x,1/2+y,1/2+z
8 x,1/2-y,z
_cell_length_a                   14.772(2)
_cell_length_b                   21.012(3)
_cell_length_c                   6.0397(9)
_cell_angle_alpha                90
_cell_angle_beta                 90
_cell_angle_gamma                90
_cell_volume                     1874.66
loop_
_atom_site_label
_atom_site_type_symbol
_atom_site_fract_x
_atom_site_fract_y
_atom_site_fract_z
Co1 Co 0.0000 0.0000 0.0000
N1 N 0.10524(10) 0.05627(7) 0.1361(3)
N2 N 0.16929(10) 0.13440(7) 0.3211(3)
N3 N 0.19777(18) 0.2500 0.7726(4)
O1 O 0.07571(10) -0.00118(6) -0.3047(2)
H1 H 0.0619 0.0303 -0.3866
H2 H 0.0706 -0.0336 -0.3879
O2 O 0.03854(14) -0.10832(7) 0.4293(3)
O3 O 0.06844(9) -0.08433(6) 0.0759(2)
S1 S 0.05199(5) -0.2500 0.37104(11)
C1 C 0.05878(13) -0.12260(9) 0.2349(3)
C2 C 0.07036(12) -0.19126(8) 0.1781(3)
C3 C 0.09068(12) -0.21647(8) -0.0243(3)
H3 H 0.1032 -0.1920 -0.1489
C4 C 0.19136(13) 0.03867(9) 0.1975(4)
H4 H 0.2179 -0.0004 0.1652
C5 C 0.23187(13) 0.08597(9) 0.3112(4)
H5 H 0.2900 0.0859 0.3705
C6 C 0.09486(13) 0.11422(9) 0.2126(3)
H6 H 0.0427 0.1384 0.1942
C7 C 0.17705(12) 0.19400(8) 0.4331(3)
C8 C 0.19074(14) 0.19581(9) 0.6594(3)
H7 H 0.1952 0.1575 0.7360
C9 C 0.17027(17) 0.2500 0.3159(4)
H8 H 0.1614 0.2500 0.1635
N1G N 0.10524(10) 0.44373(7) 0.1361(3)
N2G N 0.16929(10) 0.36560(7) 0.3211(3)
C4G C 0.19136(13) 0.46133(9) 0.1975(4)
H4G H 0.2179 0.5004 0.1652
C5G C 0.23187(13) 0.41403(9) 0.3112(4)
H5G H 0.2900 0.4141 0.3705
C6G C 0.09486(13) 0.38578(9) 0.2126(3)
H6G H 0.0427 0.3616 0.1942
C7G C 0.17705(12) 0.30600(8) 0.4331(3)
C8G C 0.19074(14) 0.30419(9) 0.6594(3)
H7G H 0.1952 0.3425 0.7360
O2G O 0.03854(14) -0.39168(7) 0.4293(3)
O3G O 0.06844(9) -0.41567(6) 0.0759(2)
C1G C 0.05878(13) -0.37740(9) 0.2349(3)
C2G C 0.07036(12) -0.30874(8) 0.1781(3)
C3G C 0.09068(12) -0.28353(8) -0.0243(3)
H3G H 0.1032 -0.3080 -0.1489
O1D O -0.07571(10) 0.00118(6) 0.3047(2)
H1D H -0.0619 -0.0303 0.3866
H2D H -0.0706 0.0336 0.3879
Co1C Co 0.0000 -0.5000 0.0000
Co1C_2 Co 0.0000 0.5000 0.0000
N1D N -0.10524(10) -0.05627(7) -0.1361(3)
O3D O -0.06844(9) 0.08433(6) -0.0759(2)
loop_
_geom_bond_atom_site_label_1
_geom_bond_atom_site_label_2
_geom_bond_site_symmetry_1
_geom_bond_site_symmetry_2
Co1 N1 1_555 1_555
N1 C4 1_555 1_555
N2 C5 1_555 1_555
N3 C8 1_555 1_555
O1 Co1 1_555 1_555
H1 O1 1_555 1_555
H2 O1 1_555 1_555
O2 C1 1_555 1_555
O3 Co1 1_555 1_555
S1 C2 1_555 1_555
C1 O3 1_555 1_555
C2 C1 1_555 1_555
C3 C2 1_555 1_555
H3 C3 1_555 1_555
C4 H4 1_555 1_555
C5 C4 1_555 1_555
H5 C5 1_555 1_555
C6 N1 1_555 1_555
H6 C6 1_555 1_555
C7 N2 1_555 1_555
C8 C7 1_555 1_555
H7 C8 1_555 1_555
C9 C7 1_555 1_555
H8 C9 1_555 1_555
N1G C4G 1_555 1_555
N2G C5G 1_555 1_555
C4G H4G 1_555 1_555
C5G C4G 1_555 1_555
H5G C5G 1_555 1_555
C6G N1G 1_555 1_555
H6G C6G 1_555 1_555
C7G C9 1_555 1_555
C8G N3 1_555 1_555
H7G C8G 1_555 1_555
O2G C1G 1_555 1_555
O3G C1G 1_555 1_555
C1G C2G 1_555 1_555
C2G S1 1_555 1_555
C3G C3 1_555 1_555
H3G C3G 1_555 1_555
O1D Co1 1_555 1_555
H1D O1D 1_555 1_555
H2D O1D 1_555 1_555
Co1C O3G 1_555 1_555
Co1C_2 N1G 1_555 1_555
N1D Co1 1_555 1_555
O3D Co1 1_555 1_555
N2 C6 1_555 1_555
N2G C6G 1_555 1_555
N2G C7G 1_555 1_555
C7G C8G 1_555 1_555
C2G C3G 1_555 1_555

#END
