
#######################################################################
#
#                 Cambridge Crystallographic Data Centre
#                                CCDC 
#
#######################################################################
#
# If this CIF has been generated from an entry in the Cambridge 
# Structural Database, then it will include bibliographic, chemical, 
# crystal, experimental, refinement or atomic coordinate data resulting 
# from the CCDC's data processing and validation procedures.
#
#######################################################################

data_WULVUW
_symmetry_cell_setting           monoclinic
_symmetry_space_group_name_H-M   'P 21/n'
_symmetry_Int_Tables_number      14
_space_group_name_Hall           '-P 2yn'
loop_
_symmetry_equiv_pos_site_id
_symmetry_equiv_pos_as_xyz
1 x,y,z
2 1/2-x,1/2+y,1/2-z
3 -x,-y,-z
4 1/2+x,1/2-y,1/2+z
_cell_length_a                   8.641(14)
_cell_length_b                   22.14(4)
_cell_length_c                   10.149(16)
_cell_angle_alpha                90
_cell_angle_beta                 104.337(18)
_cell_angle_gamma                90
_cell_volume                     1881.15
loop_
_atom_site_label
_atom_site_type_symbol
_atom_site_fract_x
_atom_site_fract_y
_atom_site_fract_z
C1 C 0.4793(5) 0.09013(16) 0.2313(4)
Co1 Co 0.41870(6) 0.10506(2) 0.94164(5)
O1 O 0.4010(4) 0.10538(15) 0.7209(3)
C2 C 0.5157(4) 0.08390(15) 0.4865(4)
H1 H 0.4170 0.1027 0.4750
O2 O 0.6146(4) 0.06723(14) 0.8561(3)
O3 O 0.5430(4) 0.07881(13) 0.1327(3)
C3 C 0.6201(7) 0.3123(3) 1.0258(6)
H2 H 0.6541 0.3522 1.0387
N1 N 0.9643(4) -0.00188(16) 0.5460(3)
C4 C 0.5353(5) 0.08089(17) 0.7387(4)
N2 N 0.5176(4) 0.19356(15) 0.9794(3)
C5 C 0.6019(4) 0.06747(15) 0.6169(4)
C6 C 0.7248(4) 0.04533(16) 0.3902(4)
H3 H 0.7667 0.0386 0.3155
C7 C 0.5757(4) 0.07242(15) 0.3723(3)
O4 O 0.2913(4) 0.02202(12) 0.9228(3)
H4 H 0.2049 0.0108 0.9540
H5 H 0.3427 -0.0045 0.8966
N3 N 0.2153(4) 0.16077(13) 0.9005(3)
C8 C 0.8122(4) 0.02819(17) 0.5206(4)
C9 C 0.7496(4) 0.03885(16) 0.6334(4)
H6 H 0.8067 0.0268 0.7195
C10 C 0.4119(5) 0.23959(18) 0.9537(4)
C11 C 0.1164(6) 0.2624(2) 0.8650(5)
H7 H 0.1366 0.3037 0.8689
C12 C 0.2415(5) 0.22113(17) 0.9049(4)
C13 C 0.6730(5) 0.2062(2) 1.0305(5)
H8 H 0.7460 0.1746 1.0498
C14 C 0.0641(5) 0.1409(2) 0.8563(5)
H9 H 0.0458 0.0995 0.8522
C15 C -0.0388(6) 0.2408(2) 0.8193(5)
H10 H -0.1235 0.2676 0.7910
C16 C -0.0662(5) 0.1797(2) 0.8164(5)
H11 H -0.1695 0.1645 0.7884
C17 C 0.7288(6) 0.2663(3) 1.0560(5)
H12 H 0.8367 0.2743 1.0923
C18 C 0.4610(7) 0.2996(2) 0.9765(5)
H13 H 0.3863 0.3306 0.9583
O5 O 0.3486(4) 0.11519(16) 0.2177(3)
C1B C 1.5207(5) -0.09013(16) 0.7687(4)
O1B O 1.5990(4) -0.10538(15) 0.2791(3)
C2B C 1.4843(4) -0.08390(15) 0.5135(4)
H1B H 1.5830 -0.1027 0.5250
O2B O 1.3854(4) -0.06723(14) 0.1439(3)
N1B N 1.0357(4) 0.00188(16) 0.4540(3)
C4B C 1.4647(5) -0.08089(17) 0.2613(4)
C5B C 1.3981(4) -0.06747(15) 0.3831(4)
C6B C 1.2752(4) -0.04533(16) 0.6098(4)
H3B H 1.2333 -0.0386 0.6845
C7B C 1.4243(4) -0.07242(15) 0.6277(3)
C8B C 1.1878(4) -0.02819(17) 0.4794(4)
C9B C 1.2504(4) -0.03885(16) 0.3666(4)
H6B H 1.1933 -0.0268 0.2805
O5B O 1.6514(4) -0.11519(16) 0.7823(3)
O3B O 1.4570(4) -0.07881(13) 0.8673(3)
Co1B Co 1.58130(6) -0.10506(2) 0.05836(5)
C3B C 1.3799(7) -0.3123(3) -0.0258(6)
H2B H 1.3459 -0.3522 -0.0387
N2B N 1.4824(4) -0.19356(15) 0.0206(3)
O4B O 1.7087(4) -0.02202(12) 0.0772(3)
H4B H 1.7951 -0.0108 0.0460
H5B H 1.6573 0.0045 0.1034
N3B N 1.7847(4) -0.16077(13) 0.0995(3)
C10B C 1.5881(5) -0.23959(18) 0.0463(4)
C11B C 1.8836(6) -0.2624(2) 0.1350(5)
H7B H 1.8634 -0.3037 0.1311
C12B C 1.7585(5) -0.22113(17) 0.0951(4)
C13B C 1.3270(5) -0.2062(2) -0.0305(5)
H8B H 1.2540 -0.1746 -0.0498
C14B C 1.9359(5) -0.1409(2) 0.1437(5)
H9B H 1.9542 -0.0995 0.1478
C15B C 2.0388(6) -0.2408(2) 0.1807(5)
H10B H 2.1235 -0.2676 0.2090
C16B C 2.0662(5) -0.1797(2) 0.1836(5)
H11B H 2.1695 -0.1645 0.2116
C17B C 1.2712(6) -0.2663(3) -0.0560(5)
H12B H 1.1633 -0.2743 -0.0923
C18B C 1.5390(7) -0.2996(2) 0.0235(5)
H13B H 1.6137 -0.3306 0.0417
Co1_2 Co 0.41870(6) 0.10506(2) -0.05836(5)
Co1B_2 Co 1.58130(6) -0.10506(2) 1.05836(5)
O3_2 O 0.5430(4) 0.07881(13) 1.1327(3)
O3B_2 O 1.4570(4) -0.07881(13) -0.1327(3)
O6 O 0.0203(9) 0.1059(5) 0.1910(11)
O7 O 0.0000 0.0000 0.0000
loop_
_geom_bond_atom_site_label_1
_geom_bond_atom_site_label_2
_geom_bond_site_symmetry_1
_geom_bond_site_symmetry_2
C1 O3 1_555 1_555
Co1 O1 1_555 1_555
O1 C4 1_555 1_555
C2 H1 1_555 1_555
O2 Co1 1_555 1_555
O3 Co1_2 1_555 1_555
C3 H2 1_555 1_555
N1 C8 1_555 1_555
C4 O2 1_555 1_555
N2 Co1 1_555 1_555
C5 C2 1_555 1_555
C6 H3 1_555 1_555
C7 C1 1_555 1_555
O4 Co1 1_555 1_555
H4 O4 1_555 1_555
H5 O4 1_555 1_555
N3 Co1 1_555 1_555
C8 C6 1_555 1_555
C9 C5 1_555 1_555
H6 C9 1_555 1_555
C10 N2 1_555 1_555
C11 H7 1_555 1_555
C12 N3 1_555 1_555
C13 N2 1_555 1_555
H8 C13 1_555 1_555
C14 N3 1_555 1_555
H9 C14 1_555 1_555
C15 C11 1_555 1_555
H10 C15 1_555 1_555
C16 C14 1_555 1_555
H11 C16 1_555 1_555
C17 C3 1_555 1_555
H12 C17 1_555 1_555
C18 C3 1_555 1_555
H13 C18 1_555 1_555
O5 C1 1_555 1_555
C1B C7B 1_555 1_555
O1B C4B 1_555 1_555
C2B H1B 1_555 1_555
O2B C4B 1_555 1_555
N1B N1 1_555 1_555
C4B C5B 1_555 1_555
C5B C2B 1_555 1_555
C6B H3B 1_555 1_555
C7B C2B 1_555 1_555
C8B N1B 1_555 1_555
C9B C5B 1_555 1_555
H6B C9B 1_555 1_555
O5B C1B 1_555 1_555
O3B C1B 1_555 1_555
Co1B O1B 1_555 1_555
C3B H2B 1_555 1_555
N2B Co1B 1_555 1_555
O4B Co1B 1_555 1_555
H4B O4B 1_555 1_555
H5B O4B 1_555 1_555
N3B Co1B 1_555 1_555
C10B N2B 1_555 1_555
C11B H7B 1_555 1_555
C12B N3B 1_555 1_555
C13B N2B 1_555 1_555
H8B C13B 1_555 1_555
C14B N3B 1_555 1_555
H9B C14B 1_555 1_555
C15B C11B 1_555 1_555
H10B C15B 1_555 1_555
C16B C14B 1_555 1_555
H11B C16B 1_555 1_555
C17B C3B 1_555 1_555
H12B C17B 1_555 1_555
C18B C3B 1_555 1_555
H13B C18B 1_555 1_555
Co1B_2 O3B 1_555 1_555
O3_2 Co1 1_555 1_555
O3B_2 Co1B 1_555 1_555
C2 C7 1_555 1_555
C4 C5 1_555 1_555
C6 C7 1_555 1_555
C8 C9 1_555 1_555
C10 C12 1_555 1_555
C10 C18 1_555 1_555
C11 C12 1_555 1_555
C13 C17 1_555 1_555
C15 C16 1_555 1_555
O2B Co1B 1_555 1_555
C6B C7B 1_555 1_555
C6B C8B 1_555 1_555
C8B C9B 1_555 1_555
C10B C12B 1_555 1_555
C10B C18B 1_555 1_555
C11B C12B 1_555 1_555
C13B C17B 1_555 1_555
C15B C16B 1_555 1_555

#END
