
#######################################################################
#
#                 Cambridge Crystallographic Data Centre
#                                CCDC 
#
#######################################################################
#
# If this CIF has been generated from an entry in the Cambridge 
# Structural Database, then it will include bibliographic, chemical, 
# crystal, experimental, refinement or atomic coordinate data resulting 
# from the CCDC's data processing and validation procedures.
#
#######################################################################

data_WULWIL
_symmetry_cell_setting           monoclinic
_symmetry_space_group_name_H-M   'P 21/c'
_symmetry_Int_Tables_number      14
_space_group_name_Hall           '-P 2ybc'
loop_
_symmetry_equiv_pos_site_id
_symmetry_equiv_pos_as_xyz
1 x,y,z
2 -x,1/2+y,1/2-z
3 -x,-y,-z
4 x,1/2-y,1/2+z
_cell_length_a                   14.4721(11)
_cell_length_b                   31.373(3)
_cell_length_c                   11.3525(9)
_cell_angle_alpha                90
_cell_angle_beta                 110.4310(10)
_cell_angle_gamma                90
_cell_volume                     4830.16
loop_
_atom_site_label
_atom_site_type_symbol
_atom_site_fract_x
_atom_site_fract_y
_atom_site_fract_z
Cd1 Cd 0.10239(3) 0.112439(14) 0.84130(4)
Cd2 Cd 0.36577(3) 0.123262(14) 1.06401(4)
O1 O -0.0010(3) 0.12866(14) 0.6304(4)
N1 N 0.3620(4) 0.06840(16) 1.2025(5)
N2 N 0.1206(3) 0.04621(15) 0.7563(4)
O2 O 0.2375(3) 0.13639(13) 0.7924(4)
N3 N 0.1217(4) -0.10084(15) 1.0195(5)
H1 H 0.1275 -0.1077 1.0987
C1 C 0.1253(4) -0.01932(19) 1.0294(5)
N4 N 0.1165(3) 0.05654(15) 0.9912(4)
C2 C 0.1173(4) -0.03066(19) 0.7729(5)
C3 C 0.1240(4) 0.0292(2) 1.1908(6)
H2 H 0.1269 0.0350 1.2751
N5 N 0.3621(3) 0.05650(16) 0.9651(5)
O3 O 0.3481(3) 0.17646(15) 0.9321(4)
C4 C 0.1192(4) 0.01046(18) 0.8237(5)
C5 C 0.3900(4) -0.05399(19) 1.0829(6)
C6 C 0.3717(4) 0.02819(19) 1.1667(5)
C7 C 0.3969(5) -0.0477(2) 1.2041(6)
N6 N 0.4081(4) -0.09689(18) 1.0742(6)
H3 H 0.4093 -0.1109 1.0055
C8 C 0.1157(4) -0.06591(19) 0.8513(6)
O4 O 0.1885(4) -0.17637(15) 1.1420(4)
C9 C 0.3772(4) -0.0199(2) 0.9933(6)
C10 C 0.3614(5) 0.0752(2) 1.3171(6)
H4 H 0.3507 0.1038 1.3397
C11 C 0.1239(4) -0.0604(2) 0.9739(6)
C12 C 0.2805(4) 0.1715(2) 0.8296(6)
C13 C 0.3841(4) -0.0065(2) 1.2488(6)
C14 C 0.1203(4) 0.01610(19) 0.9515(5)
N7 N 0.1056(4) -0.10857(16) 0.8181(5)
C15 C 0.1175(4) 0.0622(2) 1.1077(6)
H5 H 0.1128 0.0908 1.1351
C16 C 0.1090(5) -0.1289(2) 0.9221(6)
C17 C 0.1181(5) -0.0336(2) 0.6510(6)
H6 H 0.1155 -0.0611 0.6131
C18 C 0.3709(4) 0.0217(2) 1.0376(5)
N8 N 0.4181(4) -0.08525(18) 1.2718(6)
C19 C 0.4237(6) -0.1137(2) 1.1888(8)
C20 C 0.1231(5) 0.0419(2) 0.6418(6)
H7 H 0.1257 0.0673 0.5958
C21 C 0.3696(5) 0.0120(2) 0.7982(6)
H8 H 0.3703 0.0098 0.7142
C22 C 0.3621(4) 0.0514(2) 0.8491(6)
H9 H 0.3565 0.0762 0.7977
C23 C 0.1347(5) -0.1988(2) 1.0387(6)
C24 C 0.1224(5) 0.0024(2) 0.5847(6)
H10 H 0.1253 0.0005 0.5016
C25 C 0.3759(4) -0.0238(2) 0.8693(6)
H11 H 0.3795 -0.0515 0.8350
C26 C 0.3866(5) 0.0021(2) 1.3721(6)
H12 H 0.3968 -0.0206 1.4319
C27 C 0.0641(6) -0.2624(2) 0.9266(7)
H13 H 0.0530 -0.2925 0.9263
C28 C 0.0262(6) -0.2397(2) 0.8161(7)
H14 H -0.0116 -0.2541 0.7398
C29 C 0.1276(4) -0.0118(2) 1.1528(6)
H15 H 0.1317 -0.0352 1.2088
C30 C 0.0423(5) -0.1962(2) 0.8162(6)
H16 H 0.0177 -0.1805 0.7390
C31 C 0.2383(6) -0.2008(2) 1.2537(7)
H17 H 0.2740 -0.1818 1.3204
H18 H 0.1906 -0.2164 1.2779
H19 H 0.2833 -0.2204 1.2375
C32 C 0.0949(5) -0.1752(2) 0.9280(6)
C33 C 0.3745(5) 0.0430(2) 1.4043(6)
H20 H 0.3751 0.0495 1.4873
C34 C 0.1178(6) -0.2423(2) 1.0357(7)
H21 H 0.1438 -0.2584 1.1121
O5 O -0.0750(3) 0.10444(14) 0.7564(4)
O6 O 0.2120(3) 0.35658(14) 0.5607(4)
O7 O 0.0963(3) 0.32070(15) 0.4177(4)
C35 C -0.0791(4) 0.11828(19) 0.6506(6)
C36 C -0.1766(4) 0.12240(19) 0.5450(5)
C37 C -0.1808(4) 0.1377(2) 0.4301(5)
H22 H -0.1211 0.1464 0.4181
C38 C 0.1945(4) 0.2829(2) 0.5984(6)
C39 C 0.1667(4) 0.3222(2) 0.5209(6)
C40 C 0.2483(4) 0.21018(19) 0.7457(6)
C41 C 0.1870(5) 0.2064(2) 0.6218(6)
C42 C 0.2806(6) 0.2501(2) 0.7949(6)
H23 H 0.3205 0.2524 0.8822
C43 C 0.2552(6) 0.2868(2) 0.7243(6)
C44 C -0.2629(5) 0.1106(2) 0.5629(6)
H24 H -0.2603 0.0989 0.6422
O8 O 0.3817(5) -0.18381(18) 1.0320(6)
C45 C -0.2707(4) 0.1409(2) 0.3323(6)
H25 H -0.2723 0.1501 0.2510
C46 C -0.3529(5) 0.1162(2) 0.4665(6)
H26 H -0.4132 0.1095 0.4801
C47 C 0.1610(5) 0.2435(2) 0.5489(6)
C48 C 0.5149(6) -0.1629(3) 1.3578(9)
H27 H 0.5308 -0.1390 1.4098
C49 C 0.4601(6) -0.1576(3) 1.2333(9)
C50 C 0.3562(11) -0.2193(4) 0.9523(12)
H28 H 0.3168 -0.2103 0.8690
H29 H 0.4155 -0.2325 0.9505
H30 H 0.3196 -0.2393 0.9828
C51 C 0.4385(7) -0.1913(3) 1.1551(10)
C52 C -0.3569(4) 0.13122(19) 0.3496(6)
C53 C -0.4536(4) 0.1350(2) 0.2450(6)
O9 O -0.4600(3) 0.12105(15) 0.1378(4)
O10 O -0.5259(3) 0.15044(14) 0.2662(4)
C54 C 0.5468(8) -0.2017(4) 1.4079(12)
H31 H 0.5811 -0.2059 1.4962
C55 C 0.4723(8) -0.2332(3) 1.1990(12)
H32 H 0.4561 -0.2570 1.1423
C56 C 0.5258(9) -0.2375(4) 1.3215(15)
H33 H 0.5525 -0.2650 1.3523
Cd1C Cd 0.10239(3) 0.387561(14) 0.34130(4)
Cd2_2 Cd -0.63423(3) 0.123262(14) 0.06401(4)
Cd2C Cd 0.36577(3) 0.376738(14) 0.56401(4)
O6C O 0.2120(3) 0.14342(14) 1.0607(4)
O7C O 0.0963(3) 0.17930(15) 0.9177(4)
O9_2 O 0.5400(3) 0.12105(15) 1.1378(4)
O10_2 O 0.4741(3) 0.15044(14) 1.2662(4)
O11 O 0.0602(5) 0.1171(2) 0.4186(6)
O12 O 0.2653(8) 0.1107(4) 1.5229(15)
loop_
_geom_bond_atom_site_label_1
_geom_bond_atom_site_label_2
_geom_bond_site_symmetry_1
_geom_bond_site_symmetry_2
Cd1 O1 1_555 1_555
Cd2 N1 1_555 1_555
O1 C35 1_555 1_555
N1 C6 1_555 1_555
N2 Cd1 1_555 1_555
O2 Cd1 1_555 1_555
N3 H1 1_555 1_555
C1 C11 1_555 1_555
N4 Cd1 1_555 1_555
C2 C4 1_555 1_555
C3 H2 1_555 1_555
N5 Cd2 1_555 1_555
O3 Cd2 1_555 1_555
C4 N2 1_555 1_555
C5 C7 1_555 1_555
C6 C13 1_555 1_555
C7 C13 1_555 1_555
N6 C5 1_555 1_555
H3 N6 1_555 1_555
C8 C2 1_555 1_555
O4 C23 1_555 1_555
C9 C5 1_555 1_555
C10 N1 1_555 1_555
H4 C10 1_555 1_555
C11 N3 1_555 1_555
C12 O2 1_555 1_555
C13 C26 1_555 1_555
C14 C1 1_555 1_555
N7 C8 1_555 1_555
C15 N4 1_555 1_555
H5 C15 1_555 1_555
C16 N3 1_555 1_555
C17 C2 1_555 1_555
H6 C17 1_555 1_555
C18 N5 1_555 1_555
N8 C7 1_555 1_555
C19 N6 1_555 1_555
C20 N2 1_555 1_555
H7 C20 1_555 1_555
C21 H8 1_555 1_555
C22 N5 1_555 1_555
H9 C22 1_555 1_555
C23 C32 1_555 1_555
C24 C17 1_555 1_555
H10 C24 1_555 1_555
C25 C9 1_555 1_555
H11 C25 1_555 1_555
C26 H12 1_555 1_555
C27 H13 1_555 1_555
C28 C27 1_555 1_555
H14 C28 1_555 1_555
C29 C1 1_555 1_555
H15 C29 1_555 1_555
C30 C28 1_555 1_555
H16 C30 1_555 1_555
C31 O4 1_555 1_555
H17 C31 1_555 1_555
H18 C31 1_555 1_555
H19 C31 1_555 1_555
C32 C16 1_555 1_555
C33 C10 1_555 1_555
H20 C33 1_555 1_555
C34 C23 1_555 1_555
H21 C34 1_555 1_555
O5 Cd1 1_555 1_555
O6 C39 1_555 1_555
O7 C39 1_555 1_555
C35 O5 1_555 1_555
C36 C35 1_555 1_555
C37 C36 1_555 1_555
H22 C37 1_555 1_555
C38 C39 1_555 1_555
C40 C12 1_555 1_555
C41 C40 1_555 1_555
C42 C40 1_555 1_555
H23 C42 1_555 1_555
C43 C38 1_555 1_555
C44 C36 1_555 1_555
H24 C44 1_555 1_555
O8 C50 1_555 1_555
C45 C37 1_555 1_555
H25 C45 1_555 1_555
C46 C44 1_555 1_555
H26 C46 1_555 1_555
C47 C38 1_555 1_555
C48 H27 1_555 1_555
C49 C19 1_555 1_555
C50 H28 1_555 1_555
H29 C50 1_555 1_555
H30 C50 1_555 1_555
C51 O8 1_555 1_555
C52 C45 1_555 1_555
C53 C52 1_555 1_555
O9 C53 1_555 1_555
O10 C53 1_555 1_555
C54 C48 1_555 1_555
H31 C54 1_555 1_555
C55 C51 1_555 1_555
H32 C55 1_555 1_555
C56 C54 1_555 1_555
H33 C56 1_555 1_555
Cd1C O6 1_555 1_555
Cd2_2 O9 1_555 1_555
Cd2C O6 1_555 1_555
O6C Cd1 1_555 1_555
O7C Cd1 1_555 1_555
O9_2 Cd2 1_555 1_555
O10_2 Cd2 1_555 1_555
Cd2 O6C 1_555 1_555
N4 C14 1_555 1_555
C3 C15 1_555 1_555
C3 C29 1_555 1_555
O3 C12 1_555 1_555
C4 C14 1_555 1_555
C6 C18 1_555 1_555
C8 C11 1_555 1_555
C9 C18 1_555 1_555
N7 C16 1_555 1_555
N8 C19 1_555 1_555
C20 C24 1_555 1_555
C21 C22 1_555 1_555
C21 C25 1_555 1_555
C26 C33 1_555 1_555
C27 C34 1_555 1_555
C30 C32 1_555 1_555
O7 Cd1C 1_555 1_555
C41 C47 1_555 1_555
C42 C43 1_555 1_555
C46 C52 1_555 1_555
C48 C49 1_555 1_555
C49 C51 1_555 1_555
O10 Cd2_2 1_555 1_555
C55 C56 1_555 1_555

#END
