
#######################################################################
#
#                 Cambridge Crystallographic Data Centre
#                                CCDC 
#
#######################################################################
#
# If this CIF has been generated from an entry in the Cambridge 
# Structural Database, then it will include bibliographic, chemical, 
# crystal, experimental, refinement or atomic coordinate data resulting 
# from the CCDC's data processing and validation procedures.
#
#######################################################################

data_WULYEH
_symmetry_cell_setting           triclinic
_symmetry_space_group_name_H-M   'P -1'
_symmetry_Int_Tables_number      2
_space_group_name_Hall           '-P 1'
loop_
_symmetry_equiv_pos_site_id
_symmetry_equiv_pos_as_xyz
1 x,y,z
2 -x,-y,-z
_cell_length_a                   8.911(3)
_cell_length_b                   9.601(2)
_cell_length_c                   13.052(2)
_cell_angle_alpha                74.410(10)
_cell_angle_beta                 75.26(2)
_cell_angle_gamma                69.61(2)
_cell_volume                     992.064
loop_
_atom_site_label
_atom_site_type_symbol
_atom_site_fract_x
_atom_site_fract_y
_atom_site_fract_z
Pb1 Pb 0.11875(2) 0.59649(2) 0.365584(15)
C1 C 0.7163(8) 0.8431(9) -0.0603(6)
H1 H 0.7809 0.8344 -0.0089
H2 H 0.6815 0.9468 -0.0970
H3 H 0.7800 0.7806 -0.1119
C2 C 0.5704(7) 0.7922(7) -0.0026(5)
C3 C 0.5400(6) 0.7488(6) 0.1095(5)
H4 H 0.6153 0.7462 0.1484
C4 C 0.4008(6) 0.7093(5) 0.1652(4)
C5 C 0.2874(6) 0.7119(6) 0.1068(4)
C6 C 0.3203(7) 0.7538(7) -0.0061(4)
H5 H 0.2471 0.7545 -0.0460
C7 C 0.4586(8) 0.7942(8) -0.0598(5)
H6 H 0.4766 0.8229 -0.1347
N1 N 0.3763(5) 0.6682(5) 0.2822(3)
C8 C 0.3730(7) 0.7964(6) 0.3278(4)
H7 H 0.3181 0.8912 0.2845
H8 H 0.4839 0.7955 0.3225
C9 C 0.2882(8) 0.7901(7) 0.4448(5)
O1 O 0.2404(6) 0.6787(5) 0.4961(4)
O2 O 0.2742(8) 0.9007(6) 0.4850(4)
C10 C 0.5047(6) 0.5280(6) 0.3186(5)
H9 H 0.5003 0.5157 0.3954
H10 H 0.6104 0.5386 0.2813
C11 C 0.4866(6) 0.3885(6) 0.2975(4)
O3 O 0.3485(5) 0.3915(5) 0.2902(4)
O4 O 0.6111(5) 0.2763(5) 0.2903(4)
N2 N 0.1352(5) 0.6786(5) 0.1603(3)
C12 C -0.0053(6) 0.8186(6) 0.1446(5)
H11 H -0.1050 0.7907 0.1629
H12 H 0.0071 0.8684 0.0691
C13 C -0.0190(6) 0.9293(6) 0.2140(5)
O5 O 0.0237(6) 0.8782(5) 0.3039(4)
O6 O -0.0721(6) 1.0656(5) 0.1771(4)
C14 C 0.1158(6) 0.5591(6) 0.1171(4)
H13 H 0.2193 0.4805 0.1086
H14 H 0.0863 0.6027 0.0461
C15 C -0.0121(7) 0.4879(6) 0.1890(5)
O7 O -0.0674(6) 0.5095(6) 0.2839(4)
O8 O -0.0526(6) 0.4015(6) 0.1510(4)
Pb2 Pb 0.10737(2) 0.78967(2) 0.681940(16)
O10 O -0.1885(8) 0.8275(7) 0.6509(7)
Pb2A Pb 0.89263(2) 0.21033(2) 0.318060(16)
Pb2A_2 Pb -0.10737(2) 1.21033(2) 0.318060(16)
Pb2A_3 Pb -0.10737(2) 0.21033(2) 0.318060(16)
O4A O 0.3889(5) 0.7237(5) 0.7097(4)
O6A O 0.0721(6) 0.9344(5) 0.8229(4)
O8A O 0.0526(6) 0.5985(6) 0.8490(4)
O9 O 0.2677(10) 0.3447(9) 0.5402(6)
O11 O 0.3990(11) 0.0370(10) 0.6179(10)
loop_
_geom_bond_atom_site_label_1
_geom_bond_atom_site_label_2
_geom_bond_site_symmetry_1
_geom_bond_site_symmetry_2
Pb1 N1 1_555 1_555
C1 H1 1_555 1_555
H2 C1 1_555 1_555
H3 C1 1_555 1_555
C2 C1 1_555 1_555
C3 C2 1_555 1_555
H4 C3 1_555 1_555
C4 C3 1_555 1_555
C5 C4 1_555 1_555
C6 C5 1_555 1_555
H5 C6 1_555 1_555
C7 C2 1_555 1_555
H6 C7 1_555 1_555
N1 C4 1_555 1_555
C8 N1 1_555 1_555
H7 C8 1_555 1_555
H8 C8 1_555 1_555
C9 C8 1_555 1_555
O1 Pb1 1_555 1_555
O2 C9 1_555 1_555
C10 N1 1_555 1_555
H9 C10 1_555 1_555
H10 C10 1_555 1_555
C11 C10 1_555 1_555
O3 Pb1 1_555 1_555
O4 C11 1_555 1_555
N2 Pb1 1_555 1_555
C12 N2 1_555 1_555
H11 C12 1_555 1_555
H12 C12 1_555 1_555
C13 C12 1_555 1_555
O5 Pb1 1_555 1_555
O6 C13 1_555 1_555
C14 N2 1_555 1_555
H13 C14 1_555 1_555
H14 C14 1_555 1_555
C15 C14 1_555 1_555
O7 Pb1 1_555 1_555
O8 C15 1_555 1_555
Pb2 O1 1_555 1_555
O10 Pb2 1_555 1_555
Pb2A O4 1_555 1_555
Pb2A_2 O6 1_555 1_555
Pb2A_3 O8 1_555 1_555
O4A Pb2 1_555 1_555
O6A Pb2 1_555 1_555
O8A Pb2 1_555 1_555
C5 N2 1_555 1_555
C6 C7 1_555 1_555
C9 O1 1_555 1_555
O2 Pb2 1_555 1_555
C11 O3 1_555 1_555
C13 O5 1_555 1_555
C15 O7 1_555 1_555

#END
