
#######################################################################
#
#                 Cambridge Crystallographic Data Centre
#                                CCDC 
#
#######################################################################
#
# If this CIF has been generated from an entry in the Cambridge 
# Structural Database, then it will include bibliographic, chemical, 
# crystal, experimental, refinement or atomic coordinate data resulting 
# from the CCDC's data processing and validation procedures.
#
#######################################################################

data_WUMDUF
_symmetry_cell_setting           cubic
_symmetry_space_group_name_H-M   'I a -3'
_symmetry_Int_Tables_number      206
_space_group_name_Hall           '-I 2b 2c 3'
loop_
_symmetry_equiv_pos_site_id
_symmetry_equiv_pos_as_xyz
1 x,y,z
2 z,x,y
3 y,z,x
4 -y,1/2-z,x
5 z,-x,1/2-y
6 1/2-y,z,-x
7 -z,1/2-x,y
8 1/2-z,x,-y
9 y,-z,1/2-x
10 -x,1/2-y,z
11 x,-y,1/2-z
12 1/2-x,y,-z
13 1/2+x,1/2+y,1/2+z
14 1/2+z,1/2+x,1/2+y
15 1/2+y,1/2+z,1/2+x
16 1/2-y,-z,1/2+x
17 1/2+z,1/2-x,-y
18 -y,1/2+z,1/2-x
19 1/2-z,-x,1/2+y
20 -z,1/2+x,1/2-y
21 1/2+y,1/2-z,-x
22 1/2-x,-y,1/2+z
23 1/2+x,1/2-y,-z
24 -x,1/2+y,1/2-z
25 -x,-y,-z
26 -z,-x,-y
27 -y,-z,-x
28 y,1/2+z,-x
29 -z,x,1/2+y
30 1/2+y,-z,x
31 z,1/2+x,-y
32 1/2+z,-x,y
33 -y,z,1/2+x
34 x,1/2+y,-z
35 -x,y,1/2+z
36 1/2+x,-y,z
37 1/2-x,1/2-y,1/2-z
38 1/2-z,1/2-x,1/2-y
39 1/2-y,1/2-z,1/2-x
40 1/2+y,z,1/2-x
41 1/2-z,1/2+x,y
42 y,1/2-z,1/2+x
43 1/2+z,x,1/2-y
44 z,1/2-x,1/2+y
45 1/2-y,1/2+z,x
46 1/2+x,y,1/2-z
47 1/2-x,1/2+y,z
48 x,1/2-y,1/2+z
_cell_length_a                   23.3991(4)
_cell_length_b                   23.3991(4)
_cell_length_c                   23.3991(4)
_cell_angle_alpha                90
_cell_angle_beta                 90
_cell_angle_gamma                90
_cell_volume                     12811.4
loop_
_atom_site_label
_atom_site_type_symbol
_atom_site_fract_x
_atom_site_fract_y
_atom_site_fract_z
Co1 Co 0.5000 0.0000 0.0000
Co2 Co 0.58820(5) -0.08820(5) 0.08820(5)
P1 P 0.32847(9) 0.32847(9) 0.32847(9)
O1 O 0.3649(3) 0.3649(3) 0.3649(3)
O2 O 0.5624(3) 0.0280(3) 0.0559(3)
O3 O 0.5805(3) -0.0197(3) 0.1378(3)
C1 C 0.3708(4) 0.2767(4) 0.2906(4)
C2 C 0.5642(5) 0.0230(5) 0.1096(5)
C3 C 0.4389(4) 0.1961(4) 0.2359(4)
C4 C 0.3990(4) 0.2275(4) 0.2068(4)
H1 H 0.3946 0.2214 0.1669
C5 C 0.4923(4) 0.1624(4) 0.1492(5)
H2 H 0.4825 0.1975 0.1313
C6 C 0.3660(4) 0.2665(4) 0.2326(4)
H3 H 0.3389 0.2875 0.2108
C7 C 0.4754(5) 0.1531(5) 0.2062(4)
C8 C 0.5233(5) 0.1216(4) 0.1179(5)
H4 H 0.5343 0.1286 0.0795
C9 C 0.5372(5) 0.0705(5) 0.1452(5)
C10 C 0.4109(5) 0.2453(6) 0.3214(4)
H5 H 0.4156 0.2519 0.3612
C11 C 0.5257(5) 0.0644(5) 0.2010(5)
H6 H 0.5379 0.0308 0.2203
C12 C 0.4967(5) 0.1055(5) 0.2307(5)
H7 H 0.4912 0.1003 0.2706
C13 C 0.4432(5) 0.2054(5) 0.2948(5)
H8 H 0.4693 0.1833 0.3166
O2A O 0.0559(3) 0.5624(3) 0.0280(3)
O3A O 0.1378(3) 0.5805(3) -0.0197(3)
C1A C 0.2906(4) 0.3708(4) 0.2767(4)
C2A C 0.1096(5) 0.5642(5) 0.0230(5)
C3A C 0.2359(4) 0.4389(4) 0.1961(4)
C4A C 0.2068(4) 0.3990(4) 0.2275(4)
H1A H 0.1669 0.3946 0.2214
C5A C 0.1492(5) 0.4923(4) 0.1624(4)
H2A H 0.1313 0.4825 0.1975
C6A C 0.2326(4) 0.3660(4) 0.2665(4)
H3A H 0.2108 0.3389 0.2875
C7A C 0.2062(4) 0.4754(5) 0.1531(5)
C8A C 0.1179(5) 0.5233(5) 0.1216(4)
H4A H 0.0795 0.5343 0.1286
C9A C 0.1452(5) 0.5372(5) 0.0705(5)
C10A C 0.3214(4) 0.4109(5) 0.2453(6)
H5A H 0.3612 0.4156 0.2519
C11A C 0.2010(5) 0.5257(5) 0.0644(5)
H6A H 0.2203 0.5379 0.0308
C12A C 0.2307(5) 0.4967(5) 0.1055(5)
H7A H 0.2706 0.4912 0.1003
C13A C 0.2948(5) 0.4432(5) 0.2054(5)
H8A H 0.3166 0.4693 0.1833
O2B O 0.0280(3) 0.0559(3) 0.5624(3)
O3B O -0.0197(3) 0.1378(3) 0.5805(3)
C1B C 0.2767(4) 0.2906(4) 0.3708(4)
C2B C 0.0230(5) 0.1096(5) 0.5642(5)
C3B C 0.1961(4) 0.2359(4) 0.4389(4)
C4B C 0.2275(4) 0.2068(4) 0.3990(4)
H1B H 0.2214 0.1669 0.3946
C5B C 0.1624(4) 0.1492(5) 0.4923(4)
H2B H 0.1975 0.1313 0.4825
C6B C 0.2665(4) 0.2326(4) 0.3660(4)
H3B H 0.2875 0.2108 0.3389
C7B C 0.1531(5) 0.2062(4) 0.4754(5)
C8B C 0.1216(4) 0.1179(5) 0.5233(5)
H4B H 0.1286 0.0795 0.5343
C9B C 0.0705(5) 0.1452(5) 0.5372(5)
C10B C 0.2453(6) 0.3214(4) 0.4109(5)
H5B H 0.2519 0.3612 0.4156
C11B C 0.0644(5) 0.2010(5) 0.5257(5)
H6B H 0.0308 0.2203 0.5379
C12B C 0.1055(5) 0.2307(5) 0.4967(5)
H7B H 0.1003 0.2706 0.4912
C13B C 0.2054(5) 0.2948(5) 0.4432(5)
H8B H 0.1833 0.3166 0.4693
Co2X Co 0.41180(5) 0.08820(5) -0.08820(5)
P1X P 0.67153(9) -0.32847(9) -0.32847(9)
O1X O 0.6351(3) -0.3649(3) -0.3649(3)
O2X O 0.4376(3) -0.0280(3) -0.0559(3)
O3X O 0.4195(3) 0.0197(3) -0.1378(3)
C1X C 0.6292(4) -0.2767(4) -0.2906(4)
C2X C 0.4358(5) -0.0230(5) -0.1096(5)
C3X C 0.5611(4) -0.1961(4) -0.2359(4)
C4X C 0.6010(4) -0.2275(4) -0.2068(4)
H1X H 0.6054 -0.2214 -0.1669
C5X C 0.5077(4) -0.1624(4) -0.1492(5)
H2X H 0.5175 -0.1975 -0.1313
C6X C 0.6340(4) -0.2665(4) -0.2326(4)
H3X H 0.6611 -0.2875 -0.2108
C7X C 0.5246(5) -0.1531(5) -0.2062(4)
C8X C 0.4767(5) -0.1216(4) -0.1179(5)
H4X H 0.4657 -0.1286 -0.0795
C9X C 0.4628(5) -0.0705(5) -0.1452(5)
C10X C 0.5891(5) -0.2453(6) -0.3214(4)
H5X H 0.5844 -0.2519 -0.3612
C11X C 0.4743(5) -0.0644(5) -0.2010(5)
H6X H 0.4621 -0.0308 -0.2203
C12X C 0.5033(5) -0.1055(5) -0.2307(5)
H7X H 0.5088 -0.1003 -0.2706
C13X C 0.5568(5) -0.2054(5) -0.2948(5)
H8X H 0.5307 -0.1833 -0.3166
O2Y O 0.9441(3) -0.5624(3) -0.0280(3)
O3Y O 0.8622(3) -0.5805(3) 0.0197(3)
C1Y C 0.7094(4) -0.3708(4) -0.2767(4)
C2Y C 0.8904(5) -0.5642(5) -0.0230(5)
C3Y C 0.7641(4) -0.4389(4) -0.1961(4)
C4Y C 0.7932(4) -0.3990(4) -0.2275(4)
H1Y H 0.8331 -0.3946 -0.2214
C5Y C 0.8508(5) -0.4923(4) -0.1624(4)
H2Y H 0.8687 -0.4825 -0.1975
C6Y C 0.7674(4) -0.3660(4) -0.2665(4)
H3Y H 0.7892 -0.3389 -0.2875
C7Y C 0.7938(4) -0.4754(5) -0.1531(5)
C8Y C 0.8821(5) -0.5233(5) -0.1216(4)
H4Y H 0.9205 -0.5343 -0.1286
C9Y C 0.8548(5) -0.5372(5) -0.0705(5)
C10Y C 0.6786(4) -0.4109(5) -0.2453(6)
H5Y H 0.6388 -0.4156 -0.2519
C11Y C 0.7990(5) -0.5257(5) -0.0644(5)
H6Y H 0.7797 -0.5379 -0.0308
C12Y C 0.7693(5) -0.4967(5) -0.1055(5)
H7Y H 0.7294 -0.4912 -0.1003
C13Y C 0.7052(5) -0.4432(5) -0.2054(5)
H8Y H 0.6834 -0.4693 -0.1833
O2Z O 0.9720(3) -0.0559(3) -0.5624(3)
O3Z O 1.0197(3) -0.1378(3) -0.5805(3)
C1Z C 0.7233(4) -0.2906(4) -0.3708(4)
C2Z C 0.9770(5) -0.1096(5) -0.5642(5)
C3Z C 0.8039(4) -0.2359(4) -0.4389(4)
C4Z C 0.7725(4) -0.2068(4) -0.3990(4)
H1Z H 0.7786 -0.1669 -0.3946
C5Z C 0.8376(4) -0.1492(5) -0.4923(4)
H2Z H 0.8025 -0.1313 -0.4825
C6Z C 0.7335(4) -0.2326(4) -0.3660(4)
H3Z H 0.7125 -0.2108 -0.3389
C7Z C 0.8469(5) -0.2062(4) -0.4754(5)
C8Z C 0.8784(4) -0.1179(5) -0.5233(5)
H4Z H 0.8714 -0.0795 -0.5343
C9Z C 0.9295(5) -0.1452(5) -0.5372(5)
C10Z C 0.7547(6) -0.3214(4) -0.4109(5)
H5Z H 0.7481 -0.3612 -0.4156
C11Z C 0.9356(5) -0.2010(5) -0.5257(5)
H6Z H 0.9692 -0.2203 -0.5379
C12Z C 0.8945(5) -0.2307(5) -0.4967(5)
H7Z H 0.8997 -0.2706 -0.4912
C13Z C 0.7946(5) -0.2948(5) -0.4432(5)
H8Z H 0.8167 -0.3166 -0.4693
Co1A Co 0.0000 0.5000 0.0000
Co1A_2 Co 1.0000 -0.5000 0.0000
Co1B Co 0.0000 0.0000 0.5000
Co1B_2 Co 1.0000 0.0000 -0.5000
Co2A Co 0.08820(5) 0.58820(5) -0.08820(5)
Co2B Co -0.08820(5) 0.08820(5) 0.58820(5)
Co2R Co 0.41180(5) 0.41180(5) 0.41180(5)
Co2Y Co 0.91180(5) -0.58820(5) 0.08820(5)
Co2Z Co 1.08820(5) -0.08820(5) -0.58820(5)
Co2PA Co 0.58820(5) -0.41180(5) -0.41180(5)
O1Q O 0.6351(3) -0.1351(3) 0.1351(3)
O1OA O 0.3649(3) 0.1351(3) -0.1351(3)
O2O O 0.4720(3) -0.0559(3) 0.0624(3)
O2P O 0.5559(3) -0.0624(3) -0.0280(3)
O2MA O 0.5280(3) 0.0559(3) -0.0624(3)
O2NA O 0.4441(3) 0.0624(3) 0.0280(3)
O3O O 0.5197(3) -0.1378(3) 0.0805(3)
O3P O 0.6378(3) -0.0805(3) 0.0197(3)
O3MA O 0.4803(3) 0.1378(3) -0.0805(3)
O3NA O 0.3622(3) 0.0805(3) -0.0197(3)
loop_
_geom_bond_atom_site_label_1
_geom_bond_atom_site_label_2
_geom_bond_site_symmetry_1
_geom_bond_site_symmetry_2
Co1 O2 1_555 1_555
Co2 O3 1_555 1_555
P1 O1 1_555 1_555
O1 Co2R 1_555 1_555
O2 C2 1_555 1_555
O3 C2 1_555 1_555
C1 P1 1_555 1_555
C2 C9 1_555 1_555
C3 C4 1_555 1_555
C4 H1 1_555 1_555
C5 H2 1_555 1_555
C6 C1 1_555 1_555
H3 C6 1_555 1_555
C7 C3 1_555 1_555
C8 C5 1_555 1_555
H4 C8 1_555 1_555
C9 C8 1_555 1_555
C10 C1 1_555 1_555
H5 C10 1_555 1_555
C11 C9 1_555 1_555
H6 C11 1_555 1_555
C12 C7 1_555 1_555
H7 C12 1_555 1_555
C13 C3 1_555 1_555
H8 C13 1_555 1_555
O2A C2A 1_555 1_555
O3A C2A 1_555 1_555
C1A P1 1_555 1_555
C2A C9A 1_555 1_555
C3A C4A 1_555 1_555
C4A H1A 1_555 1_555
C5A H2A 1_555 1_555
C6A C1A 1_555 1_555
H3A C6A 1_555 1_555
C7A C3A 1_555 1_555
C8A C5A 1_555 1_555
H4A C8A 1_555 1_555
C9A C8A 1_555 1_555
C10A C1A 1_555 1_555
H5A C10A 1_555 1_555
C11A C9A 1_555 1_555
H6A C11A 1_555 1_555
C12A C7A 1_555 1_555
H7A C12A 1_555 1_555
C13A C3A 1_555 1_555
H8A C13A 1_555 1_555
O2B C2B 1_555 1_555
O3B C2B 1_555 1_555
C1B P1 1_555 1_555
C2B C9B 1_555 1_555
C3B C4B 1_555 1_555
C4B H1B 1_555 1_555
C5B H2B 1_555 1_555
C6B C1B 1_555 1_555
H3B C6B 1_555 1_555
C7B C3B 1_555 1_555
C8B C5B 1_555 1_555
H4B C8B 1_555 1_555
C9B C8B 1_555 1_555
C10B C1B 1_555 1_555
H5B C10B 1_555 1_555
C11B C9B 1_555 1_555
H6B C11B 1_555 1_555
C12B C7B 1_555 1_555
H7B C12B 1_555 1_555
C13B C3B 1_555 1_555
H8B C13B 1_555 1_555
Co2X O3X 1_555 1_555
P1X O1X 1_555 1_555
O1X Co2PA 1_555 1_555
O2X Co1 1_555 1_555
O3X C2X 1_555 1_555
C1X P1X 1_555 1_555
C2X O2X 1_555 1_555
C3X C4X 1_555 1_555
C4X H1X 1_555 1_555
C5X H2X 1_555 1_555
C6X C1X 1_555 1_555
H3X C6X 1_555 1_555
C7X C3X 1_555 1_555
C8X C5X 1_555 1_555
H4X C8X 1_555 1_555
C9X C2X 1_555 1_555
C10X C1X 1_555 1_555
H5X C10X 1_555 1_555
C11X C9X 1_555 1_555
H6X C11X 1_555 1_555
C12X C7X 1_555 1_555
H7X C12X 1_555 1_555
C13X C3X 1_555 1_555
H8X C13X 1_555 1_555
O2Y C2Y 1_555 1_555
O3Y C2Y 1_555 1_555
C1Y P1X 1_555 1_555
C2Y C9Y 1_555 1_555
C3Y C4Y 1_555 1_555
C4Y H1Y 1_555 1_555
C5Y H2Y 1_555 1_555
C6Y C1Y 1_555 1_555
H3Y C6Y 1_555 1_555
C7Y C3Y 1_555 1_555
C8Y C5Y 1_555 1_555
H4Y C8Y 1_555 1_555
C9Y C8Y 1_555 1_555
C10Y C1Y 1_555 1_555
H5Y C10Y 1_555 1_555
C11Y C9Y 1_555 1_555
H6Y C11Y 1_555 1_555
C12Y C7Y 1_555 1_555
H7Y C12Y 1_555 1_555
C13Y C3Y 1_555 1_555
H8Y C13Y 1_555 1_555
O2Z C2Z 1_555 1_555
O3Z C2Z 1_555 1_555
C1Z P1X 1_555 1_555
C2Z C9Z 1_555 1_555
C3Z C4Z 1_555 1_555
C4Z H1Z 1_555 1_555
C5Z H2Z 1_555 1_555
C6Z C1Z 1_555 1_555
H3Z C6Z 1_555 1_555
C7Z C3Z 1_555 1_555
C8Z C5Z 1_555 1_555
H4Z C8Z 1_555 1_555
C9Z C8Z 1_555 1_555
C10Z C1Z 1_555 1_555
H5Z C10Z 1_555 1_555
C11Z C9Z 1_555 1_555
H6Z C11Z 1_555 1_555
C12Z C7Z 1_555 1_555
H7Z C12Z 1_555 1_555
C13Z C3Z 1_555 1_555
H8Z C13Z 1_555 1_555
Co1A O2A 1_555 1_555
Co1A_2 O2Y 1_555 1_555
Co1B O2B 1_555 1_555
Co1B_2 O2Z 1_555 1_555
Co2A O3A 1_555 1_555
Co2B O3B 1_555 1_555
Co2Y O3Y 1_555 1_555
Co2Z O3Z 1_555 1_555
O1Q Co2 1_555 1_555
O1OA Co2X 1_555 1_555
O2O Co1 1_555 1_555
O2P Co1 1_555 1_555
O2MA Co1 1_555 1_555
O2NA Co1 1_555 1_555
O3O Co2 1_555 1_555
O3P Co2 1_555 1_555
O3MA Co2X 1_555 1_555
O3NA Co2X 1_555 1_555
C4 C6 1_555 1_555
C5 C7 1_555 1_555
C10 C13 1_555 1_555
C11 C12 1_555 1_555
C4A C6A 1_555 1_555
C5A C7A 1_555 1_555
C10A C13A 1_555 1_555
C11A C12A 1_555 1_555
C4B C6B 1_555 1_555
C5B C7B 1_555 1_555
C10B C13B 1_555 1_555
C11B C12B 1_555 1_555
C4X C6X 1_555 1_555
C5X C7X 1_555 1_555
C8X C9X 1_555 1_555
C10X C13X 1_555 1_555
C11X C12X 1_555 1_555
C4Y C6Y 1_555 1_555
C5Y C7Y 1_555 1_555
C10Y C13Y 1_555 1_555
C11Y C12Y 1_555 1_555
C4Z C6Z 1_555 1_555
C5Z C7Z 1_555 1_555
C10Z C13Z 1_555 1_555
C11Z C12Z 1_555 1_555

#END
