
#######################################################################
#
#                 Cambridge Crystallographic Data Centre
#                                CCDC 
#
#######################################################################
#
# If this CIF has been generated from an entry in the Cambridge 
# Structural Database, then it will include bibliographic, chemical, 
# crystal, experimental, refinement or atomic coordinate data resulting 
# from the CCDC's data processing and validation procedures.
#
#######################################################################

data_WUMDIT
_symmetry_cell_setting           cubic
_symmetry_space_group_name_H-M   'I a -3'
_symmetry_Int_Tables_number      206
_space_group_name_Hall           '-I 2b 2c 3'
loop_
_symmetry_equiv_pos_site_id
_symmetry_equiv_pos_as_xyz
1 x,y,z
2 z,x,y
3 y,z,x
4 -y,1/2-z,x
5 z,-x,1/2-y
6 1/2-y,z,-x
7 -z,1/2-x,y
8 1/2-z,x,-y
9 y,-z,1/2-x
10 -x,1/2-y,z
11 x,-y,1/2-z
12 1/2-x,y,-z
13 1/2+x,1/2+y,1/2+z
14 1/2+z,1/2+x,1/2+y
15 1/2+y,1/2+z,1/2+x
16 1/2-y,-z,1/2+x
17 1/2+z,1/2-x,-y
18 -y,1/2+z,1/2-x
19 1/2-z,-x,1/2+y
20 -z,1/2+x,1/2-y
21 1/2+y,1/2-z,-x
22 1/2-x,-y,1/2+z
23 1/2+x,1/2-y,-z
24 -x,1/2+y,1/2-z
25 -x,-y,-z
26 -z,-x,-y
27 -y,-z,-x
28 y,1/2+z,-x
29 -z,x,1/2+y
30 1/2+y,-z,x
31 z,1/2+x,-y
32 1/2+z,-x,y
33 -y,z,1/2+x
34 x,1/2+y,-z
35 -x,y,1/2+z
36 1/2+x,-y,z
37 1/2-x,1/2-y,1/2-z
38 1/2-z,1/2-x,1/2-y
39 1/2-y,1/2-z,1/2-x
40 1/2+y,z,1/2-x
41 1/2-z,1/2+x,y
42 y,1/2-z,1/2+x
43 1/2+z,x,1/2-y
44 z,1/2-x,1/2+y
45 1/2-y,1/2+z,x
46 1/2+x,y,1/2-z
47 1/2-x,1/2+y,z
48 x,1/2-y,1/2+z
_cell_length_a                   23.3664(3)
_cell_length_b                   23.3664(3)
_cell_length_c                   23.3664(3)
_cell_angle_alpha                90
_cell_angle_beta                 90
_cell_angle_gamma                90
_cell_volume                     12757.8
loop_
_atom_site_label
_atom_site_type_symbol
_atom_site_fract_x
_atom_site_fract_y
_atom_site_fract_z
Zn1 Zn 0.2500 0.7500 0.7500
Zn2 Zn 0.16248(2) 0.66248(2) 0.83753(2)
P1 P 0.42117(5) 0.42117(5) 0.42117(5)
O1 O 0.38434(15) 0.38434(15) 0.38434(15)
O2 O 0.18710(19) 0.69397(19) 0.72186(19)
C1 C 0.3792(2) 0.4587(2) 0.4729(2)
C2 C 0.1871(3) 0.6401(3) 0.7265(3)
C3 C 0.3846(2) 0.5169(2) 0.4831(2)
H1 H 0.4120 0.5385 0.4622
C4 C 0.3108(2) 0.5138(2) 0.5544(2)
C5 C 0.3515(2) 0.5432(2) 0.5226(2)
H2 H 0.3561 0.5832 0.5288
C6 C 0.2741(3) 0.5444(2) 0.5962(3)
C7 C 0.2571(3) 0.6014(3) 0.5871(2)
H3 H 0.2664 0.6193 0.5518
C8 C 0.2255(3) 0.5483(3) 0.6857(3)
H4 H 0.2139 0.5291 0.7196
C9 C 0.2126(3) 0.6049(3) 0.6793(3)
C10 C 0.3063(3) 0.4548(3) 0.5442(3)
H5 H 0.2795 0.4331 0.5657
C11 C 0.3390(3) 0.4278(3) 0.5047(4)
H6 H 0.3347 0.3879 0.4986
C12 C 0.2273(3) 0.6321(3) 0.6280(2)
H7 H 0.2170 0.6709 0.6214
C13 C 0.2549(3) 0.5185(3) 0.6445(4)
H8 H 0.2620 0.4788 0.6500
O3 O 0.1711(2) 0.61249(19) 0.7705(2)
O2A O 0.72186(19) 0.18710(19) 0.69397(19)
C1A C 0.4729(2) 0.3792(2) 0.4587(2)
C2A C 0.7265(3) 0.1871(3) 0.6401(3)
C3A C 0.4831(2) 0.3846(2) 0.5169(2)
H1A H 0.4622 0.4120 0.5385
C4A C 0.5544(2) 0.3108(2) 0.5138(2)
C5A C 0.5226(2) 0.3515(2) 0.5432(2)
H2A H 0.5288 0.3561 0.5832
C6A C 0.5962(3) 0.2741(3) 0.5444(2)
C7A C 0.5871(2) 0.2571(3) 0.6014(3)
H3A H 0.5518 0.2664 0.6193
C8A C 0.6857(3) 0.2255(3) 0.5483(3)
H4A H 0.7196 0.2139 0.5291
C9A C 0.6793(3) 0.2126(3) 0.6049(3)
C10A C 0.5442(3) 0.3063(3) 0.4548(3)
H5A H 0.5657 0.2795 0.4331
C11A C 0.5047(4) 0.3390(3) 0.4278(3)
H6A H 0.4986 0.3347 0.3879
C12A C 0.6280(2) 0.2273(3) 0.6321(3)
H7A H 0.6214 0.2170 0.6709
C13A C 0.6445(4) 0.2549(3) 0.5185(3)
H8A H 0.6500 0.2620 0.4788
O3A O 0.7705(2) 0.1711(2) 0.61249(19)
O2B O 0.69397(19) 0.72186(19) 0.18710(19)
C1B C 0.4587(2) 0.4729(2) 0.3792(2)
C2B C 0.6401(3) 0.7265(3) 0.1871(3)
C3B C 0.5169(2) 0.4831(2) 0.3846(2)
H1B H 0.5385 0.4622 0.4120
C4B C 0.5138(2) 0.5544(2) 0.3108(2)
C5B C 0.5432(2) 0.5226(2) 0.3515(2)
H2B H 0.5832 0.5288 0.3561
C6B C 0.5444(2) 0.5962(3) 0.2741(3)
C7B C 0.6014(3) 0.5871(2) 0.2571(3)
H3B H 0.6193 0.5518 0.2664
C8B C 0.5483(3) 0.6857(3) 0.2255(3)
H4B H 0.5291 0.7196 0.2139
C9B C 0.6049(3) 0.6793(3) 0.2126(3)
C10B C 0.4548(3) 0.5442(3) 0.3063(3)
H5B H 0.4331 0.5657 0.2795
C11B C 0.4278(3) 0.5047(4) 0.3390(3)
H6B H 0.3879 0.4986 0.3347
C12B C 0.6321(3) 0.6280(2) 0.2273(3)
H7B H 0.6709 0.6214 0.2170
C13B C 0.5185(3) 0.6445(4) 0.2549(3)
H8B H 0.4788 0.6500 0.2620
O3B O 0.61249(19) 0.7705(2) 0.1711(2)
Zn2EA Zn 0.33753(2) 0.83752(2) 0.66248(2)
P1JA P 0.07883(5) 1.07883(5) 1.07883(5)
O1JA O 0.11566(15) 1.11566(15) 1.11566(15)
O2JA O 0.31290(19) 0.80603(19) 0.77814(19)
C1JA C 0.1208(2) 1.0413(2) 1.0271(2)
C2JA C 0.3129(3) 0.8599(3) 0.7735(3)
C3JA C 0.1154(2) 0.9831(2) 1.0169(2)
H1JA H 0.0880 0.9615 1.0378
C4JA C 0.1892(2) 0.9862(2) 0.9456(2)
C5JA C 0.1485(2) 0.9568(2) 0.9774(2)
H2JA H 0.1439 0.9168 0.9712
C6JA C 0.2259(3) 0.9556(2) 0.9038(3)
C7JA C 0.2429(3) 0.8986(3) 0.9129(2)
H3JA H 0.2336 0.8807 0.9482
C8JA C 0.2745(3) 0.9517(3) 0.8143(3)
H4JA H 0.2861 0.9709 0.7804
C9JA C 0.2874(3) 0.8951(3) 0.8207(3)
C10JA C 0.1937(3) 1.0452(3) 0.9558(3)
H5JA H 0.2205 1.0669 0.9343
C11JA C 0.1610(3) 1.0722(3) 0.9953(4)
H6JA H 0.1653 1.1121 1.0014
C12JA C 0.2727(3) 0.8679(3) 0.8720(2)
H7JA H 0.2830 0.8291 0.8786
C13JA C 0.2451(3) 0.9815(3) 0.8555(4)
H8JA H 0.2380 1.0212 0.8500
O3JA O 0.3289(2) 0.88751(19) 0.7295(2)
O2KA O -0.22186(19) 1.31290(19) 0.80603(19)
C1KA C 0.0271(2) 1.1208(2) 1.0413(2)
C2KA C -0.2265(3) 1.3129(3) 0.8599(3)
C3KA C 0.0169(2) 1.1154(2) 0.9831(2)
H1KA H 0.0378 1.0880 0.9615
C4KA C -0.0544(2) 1.1892(2) 0.9862(2)
C5KA C -0.0226(2) 1.1485(2) 0.9568(2)
H2KA H -0.0288 1.1439 0.9168
C6KA C -0.0962(3) 1.2259(3) 0.9556(2)
C7KA C -0.0871(2) 1.2429(3) 0.8986(3)
H3KA H -0.0518 1.2336 0.8807
C8KA C -0.1857(3) 1.2745(3) 0.9517(3)
H4KA H -0.2196 1.2861 0.9709
C9KA C -0.1793(3) 1.2874(3) 0.8951(3)
C10KA C -0.0442(3) 1.1937(3) 1.0452(3)
H5KA H -0.0657 1.2205 1.0669
C11KA C -0.0047(4) 1.1610(3) 1.0722(3)
H6KA H 0.0014 1.1653 1.1121
C12KA C -0.1280(2) 1.2727(3) 0.8679(3)
H7KA H -0.1214 1.2830 0.8291
C13KA C -0.1445(4) 1.2451(3) 0.9815(3)
H8KA H -0.1500 1.2380 1.0212
O3KA O -0.2705(2) 1.3289(2) 0.88751(19)
O2LA O -0.19397(19) 0.77814(19) 1.31290(19)
C1LA C 0.0413(2) 1.0271(2) 1.1208(2)
C2LA C -0.1401(3) 0.7735(3) 1.3129(3)
C3LA C -0.0169(2) 1.0169(2) 1.1154(2)
H1LA H -0.0385 1.0378 1.0880
C4LA C -0.0138(2) 0.9456(2) 1.1892(2)
C5LA C -0.0432(2) 0.9774(2) 1.1485(2)
H2LA H -0.0832 0.9712 1.1439
C6LA C -0.0444(2) 0.9038(3) 1.2259(3)
C7LA C -0.1014(3) 0.9129(2) 1.2429(3)
H3LA H -0.1193 0.9482 1.2336
C8LA C -0.0483(3) 0.8143(3) 1.2745(3)
H4LA H -0.0291 0.7804 1.2861
C9LA C -0.1049(3) 0.8207(3) 1.2874(3)
C10LA C 0.0452(3) 0.9558(3) 1.1937(3)
H5LA H 0.0669 0.9343 1.2205
C11LA C 0.0722(3) 0.9953(4) 1.1610(3)
H6LA H 0.1121 1.0014 1.1653
C12LA C -0.1321(3) 0.8720(2) 1.2727(3)
H7LA H -0.1709 0.8786 1.2830
C13LA C -0.0185(3) 0.8555(4) 1.2451(3)
H8LA H 0.0212 0.8500 1.2380
O3LA O -0.11249(19) 0.7295(2) 1.3289(2)
Zn1A Zn -0.2500 1.2500 0.7500
Zn1A_2 Zn 0.7500 0.2500 0.7500
Zn1B Zn -0.2500 0.7500 1.2500
Zn1B_2 Zn 0.7500 0.7500 0.2500
Zn2A Zn 0.83753(2) 0.16248(2) 0.66248(2)
Zn2B Zn 0.66248(2) 0.83753(2) 0.16248(2)
Zn2P Zn 0.33753(2) 0.33752(2) 0.33752(2)
Zn2AA Zn -0.33752(2) 1.33753(2) 0.83752(2)
Zn2BA Zn 0.16247(2) 1.16248(2) 1.16248(2)
Zn2DA Zn -0.16247(2) 0.66248(2) 1.33752(2)
O1O O 0.11566(15) 0.61566(15) 0.88434(15)
O1AA O 0.38434(15) 0.88434(15) 0.61566(15)
O2S O 0.27814(19) 0.68710(19) 0.80603(19)
O2T O 0.19397(19) 0.77814(19) 0.81290(19)
O2EA O 0.22186(19) 0.81290(19) 0.69397(19)
O2FA O 0.30603(19) 0.72186(19) 0.68710(19)
O3S O 0.2295(2) 0.6711(2) 0.88751(19)
O3T O 0.11249(19) 0.7295(2) 0.8289(2)
O3EA O 0.2705(2) 0.8289(2) 0.61249(19)
O3FA O 0.38751(19) 0.7705(2) 0.6711(2)
loop_
_geom_bond_atom_site_label_1
_geom_bond_atom_site_label_2
_geom_bond_site_symmetry_1
_geom_bond_site_symmetry_2
Zn1 O2 1_555 1_555
Zn2 O3 1_555 1_555
P1 O1 1_555 1_555
O1 Zn2P 1_555 1_555
O2 C2 1_555 1_555
C1 P1 1_555 1_555
C2 C9 1_555 1_555
C3 C1 1_555 1_555
H1 C3 1_555 1_555
C4 C5 1_555 1_555
C5 C3 1_555 1_555
H2 C5 1_555 1_555
C6 C4 1_555 1_555
C7 C6 1_555 1_555
H3 C7 1_555 1_555
C8 H4 1_555 1_555
C9 C8 1_555 1_555
C10 C4 1_555 1_555
H5 C10 1_555 1_555
C11 C1 1_555 1_555
H6 C11 1_555 1_555
C12 C7 1_555 1_555
H7 C12 1_555 1_555
C13 C6 1_555 1_555
H8 C13 1_555 1_555
O3 C2 1_555 1_555
O2A C2A 1_555 1_555
C1A P1 1_555 1_555
C2A C9A 1_555 1_555
C3A C1A 1_555 1_555
H1A C3A 1_555 1_555
C4A C5A 1_555 1_555
C5A C3A 1_555 1_555
H2A C5A 1_555 1_555
C6A C4A 1_555 1_555
C7A C6A 1_555 1_555
H3A C7A 1_555 1_555
C8A H4A 1_555 1_555
C9A C8A 1_555 1_555
C10A C4A 1_555 1_555
H5A C10A 1_555 1_555
C11A C1A 1_555 1_555
H6A C11A 1_555 1_555
C12A C7A 1_555 1_555
H7A C12A 1_555 1_555
C13A C6A 1_555 1_555
H8A C13A 1_555 1_555
O3A C2A 1_555 1_555
O2B C2B 1_555 1_555
C1B P1 1_555 1_555
C2B C9B 1_555 1_555
C3B C1B 1_555 1_555
H1B C3B 1_555 1_555
C4B C5B 1_555 1_555
C5B C3B 1_555 1_555
H2B C5B 1_555 1_555
C6B C4B 1_555 1_555
C7B C6B 1_555 1_555
H3B C7B 1_555 1_555
C8B H4B 1_555 1_555
C9B C8B 1_555 1_555
C10B C4B 1_555 1_555
H5B C10B 1_555 1_555
C11B C1B 1_555 1_555
H6B C11B 1_555 1_555
C12B C7B 1_555 1_555
H7B C12B 1_555 1_555
C13B C6B 1_555 1_555
H8B C13B 1_555 1_555
O3B C2B 1_555 1_555
Zn2EA O3JA 1_555 1_555
P1JA O1JA 1_555 1_555
O1JA Zn2BA 1_555 1_555
O2JA Zn1 1_555 1_555
C1JA P1JA 1_555 1_555
C2JA O2JA 1_555 1_555
C3JA C1JA 1_555 1_555
H1JA C3JA 1_555 1_555
C4JA C5JA 1_555 1_555
C5JA C3JA 1_555 1_555
H2JA C5JA 1_555 1_555
C6JA C4JA 1_555 1_555
C7JA C6JA 1_555 1_555
H3JA C7JA 1_555 1_555
C8JA H4JA 1_555 1_555
C9JA C2JA 1_555 1_555
C10JA C4JA 1_555 1_555
H5JA C10JA 1_555 1_555
C11JA C1JA 1_555 1_555
H6JA C11JA 1_555 1_555
C12JA C7JA 1_555 1_555
H7JA C12JA 1_555 1_555
C13JA C6JA 1_555 1_555
H8JA C13JA 1_555 1_555
O3JA C2JA 1_555 1_555
O2KA C2KA 1_555 1_555
C1KA P1JA 1_555 1_555
C2KA C9KA 1_555 1_555
C3KA C1KA 1_555 1_555
H1KA C3KA 1_555 1_555
C4KA C5KA 1_555 1_555
C5KA C3KA 1_555 1_555
H2KA C5KA 1_555 1_555
C6KA C4KA 1_555 1_555
C7KA C6KA 1_555 1_555
H3KA C7KA 1_555 1_555
C8KA H4KA 1_555 1_555
C9KA C8KA 1_555 1_555
C10KA C4KA 1_555 1_555
H5KA C10KA 1_555 1_555
C11KA C1KA 1_555 1_555
H6KA C11KA 1_555 1_555
C12KA C7KA 1_555 1_555
H7KA C12KA 1_555 1_555
C13KA C6KA 1_555 1_555
H8KA C13KA 1_555 1_555
O3KA C2KA 1_555 1_555
O2LA C2LA 1_555 1_555
C1LA P1JA 1_555 1_555
C2LA C9LA 1_555 1_555
C3LA C1LA 1_555 1_555
H1LA C3LA 1_555 1_555
C4LA C5LA 1_555 1_555
C5LA C3LA 1_555 1_555
H2LA C5LA 1_555 1_555
C6LA C4LA 1_555 1_555
C7LA C6LA 1_555 1_555
H3LA C7LA 1_555 1_555
C8LA H4LA 1_555 1_555
C9LA C8LA 1_555 1_555
C10LA C4LA 1_555 1_555
H5LA C10LA 1_555 1_555
C11LA C1LA 1_555 1_555
H6LA C11LA 1_555 1_555
C12LA C7LA 1_555 1_555
H7LA C12LA 1_555 1_555
C13LA C6LA 1_555 1_555
H8LA C13LA 1_555 1_555
O3LA C2LA 1_555 1_555
Zn1A O2KA 1_555 1_555
Zn1A_2 O2A 1_555 1_555
Zn1B O2LA 1_555 1_555
Zn1B_2 O2B 1_555 1_555
Zn2A O3A 1_555 1_555
Zn2B O3B 1_555 1_555
Zn2AA O3KA 1_555 1_555
Zn2DA O3LA 1_555 1_555
O1O Zn2 1_555 1_555
O1AA Zn2EA 1_555 1_555
O2S Zn1 1_555 1_555
O2T Zn1 1_555 1_555
O2EA Zn1 1_555 1_555
O2FA Zn1 1_555 1_555
O3S Zn2 1_555 1_555
O3T Zn2 1_555 1_555
O3EA Zn2EA 1_555 1_555
O3FA Zn2EA 1_555 1_555
C8 C13 1_555 1_555
C9 C12 1_555 1_555
C10 C11 1_555 1_555
C8A C13A 1_555 1_555
C9A C12A 1_555 1_555
C10A C11A 1_555 1_555
C8B C13B 1_555 1_555
C9B C12B 1_555 1_555
C10B C11B 1_555 1_555
C8JA C9JA 1_555 1_555
C8JA C13JA 1_555 1_555
C9JA C12JA 1_555 1_555
C10JA C11JA 1_555 1_555
C8KA C13KA 1_555 1_555
C9KA C12KA 1_555 1_555
C10KA C11KA 1_555 1_555
C8LA C13LA 1_555 1_555
C9LA C12LA 1_555 1_555
C10LA C11LA 1_555 1_555

#END
