
#######################################################################
#
#                 Cambridge Crystallographic Data Centre
#                                CCDC 
#
#######################################################################
#
# If this CIF has been generated from an entry in the Cambridge 
# Structural Database, then it will include bibliographic, chemical, 
# crystal, experimental, refinement or atomic coordinate data resulting 
# from the CCDC's data processing and validation procedures.
#
#######################################################################

data_WUMPAX
_symmetry_cell_setting           monoclinic
_symmetry_space_group_name_H-M   'P 21/c'
_symmetry_Int_Tables_number      14
_space_group_name_Hall           '-P 2ybc'
loop_
_symmetry_equiv_pos_site_id
_symmetry_equiv_pos_as_xyz
1 x,y,z
2 -x,1/2+y,1/2-z
3 -x,-y,-z
4 x,1/2-y,1/2+z
_cell_length_a                   11.305(2)
_cell_length_b                   13.536(3)
_cell_length_c                   15.408(3)
_cell_angle_alpha                90
_cell_angle_beta                 111.03(3)
_cell_angle_gamma                90
_cell_volume                     2200.75
loop_
_atom_site_label
_atom_site_type_symbol
_atom_site_fract_x
_atom_site_fract_y
_atom_site_fract_z
C1 C 1.2903(4) 0.9165(3) 0.6325(3)
I1 I 0.68006(3) 1.09807(2) -0.00092(2)
I2 I 0.70075(3) 0.82070(2) 0.14502(2)
I3 I 0.91397(3) 0.84883(2) -0.02402(2)
Cu1 Cu 0.83749(6) 0.95709(5) 0.09531(4)
Cu2 Cu 0.88262(7) 1.04091(5) -0.05170(4)
Cu3 Cu 0.60435(8) 0.90756(6) -0.00864(5)
N1 N 1.3840(4) 0.8795(3) 0.7154(3)
N2 N 0.9397(4) 1.0127(3) 0.2201(3)
N3 N 0.6755(4) 1.0749(3) -0.3333(3)
N4 N 0.8059(4) 1.0777(3) -0.1864(3)
N5 N 1.0538(4) 1.0194(3) 0.3706(3)
N6 N 1.5191(4) 0.8729(3) 0.8602(3)
C2 C 0.7361(5) 1.1650(4) -0.3185(3)
H1 H 0.7249 1.2153 -0.3619
C3 C 0.8146(4) 1.1659(3) -0.2291(3)
H2 H 0.8672 1.2182 -0.2001
C4 C 1.4248(5) 0.9227(4) 0.8004(3)
H3 H 1.3905 0.9802 0.8147
C5 C 1.5413(5) 0.7946(3) 0.8101(3)
H4 H 1.6038 0.7469 0.8342
C6 C 0.9817(4) 0.9631(4) 0.2982(3)
H5 H 0.9641 0.8967 0.3034
C7 C 0.7206(4) 1.0257(4) -0.2514(3)
H6 H 0.6946 0.9627 -0.2422
C8 C 1.1265(4) 0.9856(4) 0.4618(3)
C9 C 1.1345(4) 0.8851(3) 0.4820(3)
H7 H 1.0850 0.8407 0.4377
C10 C 0.5135(4) 1.1018(3) -0.4862(3)
H8 H 0.5227 1.1697 -0.4772
C11 C 0.5733(4) 0.9366(3) -0.4320(3)
H9 H 0.6231 0.8939 -0.3861
C12 C 1.4596(5) 0.7974(3) 0.7219(3)
H10 H 1.4548 0.7531 0.6746
C13 C 0.5864(4) 1.0366(4) -0.4182(3)
C14 C 1.0577(5) 1.1124(4) 0.3346(4)
H11 H 1.1004 1.1675 0.3669
C15 C 1.1958(5) 1.0520(4) 0.5303(3)
H12 H 1.1870 1.1196 0.5191
C16 C 0.9873(5) 1.1073(3) 0.2433(3)
H13 H 0.9727 1.1597 0.2018
C17 C 1.2781(5) 1.0169(4) 0.6155(3)
H14 H 1.3250 1.0612 0.6610
C18 C 1.2153(4) 0.8505(3) 0.5671(3)
H15 H 1.2193 0.7833 0.5804
N3B N 0.3245(4) 0.9251(3) -0.6667(3)
N4B N 0.1941(4) 0.9223(3) -0.8136(3)
C2B C 0.2639(5) 0.8350(4) -0.6815(3)
H1B H 0.2751 0.7847 -0.6381
C3B C 0.1854(4) 0.8341(3) -0.7709(3)
H2B H 0.1328 0.7818 -0.7999
C7B C 0.2794(4) 0.9743(4) -0.7486(3)
H6B H 0.3054 1.0373 -0.7578
C10B C 0.4865(4) 0.8982(3) -0.5138(3)
H8B H 0.4773 0.8303 -0.5228
C11B C 0.4267(4) 1.0634(3) -0.5680(3)
H9B H 0.3769 1.1061 -0.6139
C13B C 0.4136(4) 0.9634(4) -0.5818(3)
C1B C -0.2903(4) 1.0835(3) -1.6325(3)
I1B I 0.31994(3) 0.90193(2) -0.99908(2)
I2B I 0.29925(3) 1.17930(2) -1.14502(2)
I3B I 0.08603(3) 1.15117(2) -0.97598(2)
Cu1B Cu 0.16251(6) 1.04291(5) -1.09531(4)
Cu2B Cu 0.11738(7) 0.95909(5) -0.94830(4)
Cu3B Cu 0.39565(8) 1.09244(6) -0.99136(5)
N1B N -0.3840(4) 1.1205(3) -1.7154(3)
N2B N 0.0603(4) 0.9873(3) -1.2201(3)
N5B N -0.0538(4) 0.9806(3) -1.3706(3)
N6B N -0.5191(4) 1.1271(3) -1.8602(3)
C4B C -0.4248(5) 1.0773(4) -1.8004(3)
H3B H -0.3905 1.0198 -1.8147
C5B C -0.5413(5) 1.2054(3) -1.8101(3)
H4B H -0.6038 1.2531 -1.8342
C6B C 0.0183(4) 1.0369(4) -1.2982(3)
H5B H 0.0359 1.1033 -1.3034
C8B C -0.1265(4) 1.0144(4) -1.4618(3)
C9B C -0.1345(4) 1.1149(3) -1.4820(3)
H7B H -0.0850 1.1593 -1.4377
C12B C -0.4596(5) 1.2026(3) -1.7219(3)
H10B H -0.4548 1.2469 -1.6746
C14B C -0.0577(5) 0.8876(4) -1.3346(4)
H11B H -0.1004 0.8325 -1.3669
C15B C -0.1958(5) 0.9480(4) -1.5303(3)
H12B H -0.1870 0.8804 -1.5191
C16B C 0.0127(5) 0.8927(3) -1.2433(3)
H13B H 0.0273 0.8403 -1.2018
C17B C -0.2781(5) 0.9831(4) -1.6155(3)
H14B H -0.3250 0.9388 -1.6610
C18B C -0.2153(4) 1.1495(3) -1.5671(3)
H15B H -0.2193 1.2167 -1.5804
I1_2 I 0.68006(3) 1.09807(2) -1.00092(2)
I1B_2 I 0.31994(3) 0.90193(2) 0.00092(2)
I3_2 I -0.08603(3) 0.84883(2) -1.02402(2)
I3B_2 I 1.08603(3) 1.15117(2) 0.02402(2)
Cu2_2 Cu -0.11738(7) 1.04091(5) -1.05170(4)
Cu2B_2 Cu 1.11738(7) 0.95909(5) 0.05170(4)
Cu3_2 Cu 0.60435(8) 0.90756(6) -1.00864(5)
Cu3_3 Cu 1.60435(8) 0.90756(6) 0.99136(5)
Cu3B_2 Cu -0.60435(8) 1.09244(6) -1.99136(5)
Cu3B_3 Cu 0.39565(8) 1.09244(6) 0.00864(5)
N6_2 N 0.5191(4) 0.8729(3) -0.1398(3)
N6B_2 N 0.4809(4) 1.1271(3) -0.8602(3)
loop_
_geom_bond_atom_site_label_1
_geom_bond_atom_site_label_2
_geom_bond_site_symmetry_1
_geom_bond_site_symmetry_2
C1 N1 1_555 1_555
I1 Cu1 1_555 1_555
I2 Cu1 1_555 1_555
I3 Cu1 1_555 1_555
Cu1 Cu2 1_555 1_555
Cu2 I1 1_555 1_555
Cu3 I1 1_555 1_555
N1 C4 1_555 1_555
N2 Cu1 1_555 1_555
N3 C2 1_555 1_555
N4 Cu2 1_555 1_555
N5 C6 1_555 1_555
N6 C4 1_555 1_555
C2 H1 1_555 1_555
C3 N4 1_555 1_555
H2 C3 1_555 1_555
C4 H3 1_555 1_555
C5 N6 1_555 1_555
H4 C5 1_555 1_555
C6 N2 1_555 1_555
H5 C6 1_555 1_555
C7 N3 1_555 1_555
H6 C7 1_555 1_555
C8 N5 1_555 1_555
C9 C8 1_555 1_555
H7 C9 1_555 1_555
C10 H8 1_555 1_555
C11 H9 1_555 1_555
C12 N1 1_555 1_555
H10 C12 1_555 1_555
C13 N3 1_555 1_555
C14 N5 1_555 1_555
H11 C14 1_555 1_555
C15 C8 1_555 1_555
H12 C15 1_555 1_555
C16 N2 1_555 1_555
H13 C16 1_555 1_555
C17 C1 1_555 1_555
H14 C17 1_555 1_555
C18 C1 1_555 1_555
H15 C18 1_555 1_555
N3B C2B 1_555 1_555
N4B C3B 1_555 1_555
C2B H1B 1_555 1_555
C3B C2B 1_555 1_555
H2B C3B 1_555 1_555
C7B N3B 1_555 1_555
H6B C7B 1_555 1_555
C10B C11 1_555 1_555
H8B C10B 1_555 1_555
C11B C10 1_555 1_555
H9B C11B 1_555 1_555
C13B N3B 1_555 1_555
C1B N1B 1_555 1_555
I1B Cu1B 1_555 1_555
I2B Cu1B 1_555 1_555
I3B Cu1B 1_555 1_555
Cu1B Cu2B 1_555 1_555
Cu2B N4B 1_555 1_555
Cu3B I1B 1_555 1_555
N1B C4B 1_555 1_555
N2B Cu1B 1_555 1_555
N5B C6B 1_555 1_555
N6B C4B 1_555 1_555
C4B H3B 1_555 1_555
C5B N6B 1_555 1_555
H4B C5B 1_555 1_555
C6B N2B 1_555 1_555
H5B C6B 1_555 1_555
C8B N5B 1_555 1_555
C9B C8B 1_555 1_555
H7B C9B 1_555 1_555
C12B N1B 1_555 1_555
H10B C12B 1_555 1_555
C14B N5B 1_555 1_555
H11B C14B 1_555 1_555
C15B C8B 1_555 1_555
H12B C15B 1_555 1_555
C16B N2B 1_555 1_555
H13B C16B 1_555 1_555
C17B C1B 1_555 1_555
H14B C17B 1_555 1_555
C18B C1B 1_555 1_555
H15B C18B 1_555 1_555
I1_2 Cu3B 1_555 1_555
I1B_2 Cu3 1_555 1_555
I3_2 Cu2B 1_555 1_555
I3B_2 Cu2 1_555 1_555
Cu2_2 I3B 1_555 1_555
Cu2B_2 I3 1_555 1_555
Cu3_2 I1B 1_555 1_555
Cu3_3 N6 1_555 1_555
Cu3B_2 N6B 1_555 1_555
Cu3B_3 I1 1_555 1_555
N6_2 Cu3 1_555 1_555
N6B_2 Cu3B 1_555 1_555
I2 Cu3 1_555 1_555
I3 Cu2 1_555 1_555
Cu1 Cu3 1_555 1_555
Cu2 Cu2B_2 1_555 1_555
N4 C7 1_555 1_555
C2 C3 1_555 1_555
C5 C12 1_555 1_555
C9 C18 1_555 1_555
C10 C13 1_555 1_555
C11 C13 1_555 1_555
C14 C16 1_555 1_555
C15 C17 1_555 1_555
N4B C7B 1_555 1_555
C10B C13B 1_555 1_555
C11B C13B 1_555 1_555
I1B Cu2B 1_555 1_555
I2B Cu3B 1_555 1_555
I3B Cu2B 1_555 1_555
Cu1B Cu3B 1_555 1_555
Cu2B Cu2_2 1_555 1_555
C5B C12B 1_555 1_555
C9B C18B 1_555 1_555
C14B C16B 1_555 1_555
C15B C17B 1_555 1_555
I1_2 Cu3_2 1_555 1_555
I1B_2 Cu3B_3 1_555 1_555
I3_2 Cu2_2 1_555 1_555
I3B_2 Cu2B_2 1_555 1_555

#END
