
#######################################################################
#
#                 Cambridge Crystallographic Data Centre
#                                CCDC 
#
#######################################################################
#
# If this CIF has been generated from an entry in the Cambridge 
# Structural Database, then it will include bibliographic, chemical, 
# crystal, experimental, refinement or atomic coordinate data resulting 
# from the CCDC's data processing and validation procedures.
#
#######################################################################

data_WUMSOO
_symmetry_cell_setting           triclinic
_symmetry_space_group_name_H-M   'P -1'
_symmetry_Int_Tables_number      2
_space_group_name_Hall           '-P 1'
loop_
_symmetry_equiv_pos_site_id
_symmetry_equiv_pos_as_xyz
1 x,y,z
2 -x,-y,-z
_cell_length_a                   10.4018(10)
_cell_length_b                   12.8360(13)
_cell_length_c                   13.9447(14)
_cell_angle_alpha                95.6900(10)
_cell_angle_beta                 110.9160(10)
_cell_angle_gamma                101.7690(10)
_cell_volume                     1672.24
loop_
_atom_site_label
_atom_site_type_symbol
_atom_site_fract_x
_atom_site_fract_y
_atom_site_fract_z
Cd1 Cd 0.80366(2) 0.825978(16) 0.714310(14)
O1 O 0.5925(2) 0.90680(15) 0.66437(15)
O2 O 0.8071(2) 1.01438(15) 0.74564(14)
O3 O 0.6267(2) 1.12368(16) 0.50391(16)
H1 H 0.5586 1.1196 0.4496
O4 O 0.6380(2) 1.29862(16) 0.51792(16)
O5 O 0.9132(2) 0.67676(17) 0.73532(16)
O6 O 1.0582(2) 0.83832(16) 0.79782(16)
O7 O 1.4279(3) 0.98938(19) 0.86082(19)
H2 H 1.4732 1.0306 0.9173
O8 O 1.4311(3) 0.86844(19) 0.96402(19)
O9 O 0.6075(2) 0.67585(16) 0.64134(16)
H3 H 0.5300 0.6803 0.5951
H4 H 0.6125 0.6136 0.6183
N1 N 0.8283(2) 0.85184(19) 0.55786(16)
N2 N 0.7966(2) 0.82599(19) -0.12081(16)
C1 C 0.6971(3) 1.2113(2) 0.7439(2)
C2 C 0.8085(3) 1.2334(2) 0.8565(2)
H5 H 0.7621 1.2040 0.9007
H6 H 0.8802 1.1951 0.8578
C3 C 0.8821(4) 1.3524(3) 0.9024(3)
H7 H 0.9411 1.3797 0.8654
H8 H 0.9437 1.3597 0.9751
C4 C 0.7760(4) 1.4195(3) 0.8950(3)
H9 H 0.8264 1.4955 0.9199
H10 H 0.7253 1.3986 0.9393
C5 C 0.6699(4) 1.4037(3) 0.7831(3)
H11 H 0.5998 1.4439 0.7811
H12 H 0.7193 1.4318 0.7401
C6 C 0.5952(3) 1.2844(2) 0.7392(2)
H13 H 0.5315 1.2769 0.6670
H14 H 0.5376 1.2592 0.7779
C7 C 0.6750(3) 1.0009(2) 0.7071(2)
C8 C 0.6071(3) 1.0931(2) 0.7136(2)
H15 H 0.5624 1.0824 0.7634
H16 H 0.5313 1.0855 0.6460
C9 C 0.6736(3) 1.2235(2) 0.5561(2)
C10 C 0.7733(3) 1.2351(2) 0.6680(2)
H17 H 0.8343 1.3084 0.6916
H18 H 0.8338 1.1861 0.6709
C11 C 1.2647(3) 0.6920(2) 0.7812(2)
C12 C 1.1901(4) 0.6289(3) 0.6674(2)
H19 H 1.1063 0.6538 0.6326
H20 H 1.2541 0.6462 0.6315
C13 C 1.1456(5) 0.5074(3) 0.6562(3)
H21 H 1.1052 0.4741 0.5827
H22 H 1.0730 0.4882 0.6844
C14 C 1.2726(5) 0.4650(3) 0.7138(3)
H23 H 1.2422 0.3870 0.7073
H24 H 1.3431 0.4804 0.6831
C15 C 1.3385(5) 0.5189(3) 0.8293(3)
H25 H 1.2694 0.5002 0.8608
H26 H 1.4203 0.4925 0.8657
C16 C 1.3841(4) 0.6407(3) 0.8406(3)
H27 H 1.4605 0.6585 0.8158
H28 H 1.4220 0.6729 0.9142
C17 C 1.0357(3) 0.7378(2) 0.7863(2)
C18 C 1.1578(3) 0.6873(2) 0.8355(2)
H29 H 1.1182 0.6120 0.8356
H30 H 1.2095 0.7237 0.9078
C19 C 1.3998(4) 0.8895(3) 0.8760(3)
C20 C 1.3289(3) 0.8088(3) 0.7764(3)
H31 H 1.3980 0.8075 0.7448
H32 H 1.2534 0.8350 0.7295
C21 C 0.7749(3) 0.9228(2) 0.5032(2)
H33 H 0.7244 0.9627 0.5283
C22 C 0.7897(3) 0.9410(2) 0.4118(2)
H34 H 0.7490 0.9915 0.3768
C23 C 0.8643(3) 0.8850(2) 0.3718(2)
C24 C 0.9209(4) 0.8119(3) 0.4292(2)
H35 H 0.9732 0.7719 0.4066
C25 C 0.9002(4) 0.7980(3) 0.5195(2)
H36 H 0.9392 0.7476 0.5559
C26 C 0.8787(3) 0.9005(3) 0.2706(2)
H37 H 0.9751 0.9015 0.2774
H38 H 0.8625 0.9701 0.2559
C27 C 0.7764(4) 0.8134(3) 0.1810(2)
H39 H 0.6804 0.8148 0.1736
H40 H 0.7899 0.7441 0.1984
C28 C 0.8213(3) 0.9158(2) -0.0538(2)
H41 H 0.8411 0.9819 -0.0745
C29 C 0.8192(4) 0.9170(3) 0.0447(2)
H42 H 0.8390 0.9824 0.0890
C30 C 0.7874(3) 0.8198(2) 0.0767(2)
C31 C 0.7637(3) 0.7266(2) 0.0074(2)
H43 H 0.7437 0.6592 0.0258
C32 C 0.7696(3) 0.7330(2) -0.0886(2)
H44 H 0.7538 0.6690 -0.1335
Cd1_2 Cd 0.80366(2) 0.825978(16) -0.285690(14)
N2_2 N 0.7966(2) 0.82599(19) 0.87919(16)
O10 O 0.7257(3) 0.53232(18) 0.55812(18)
H45 H 0.7968 0.5611 0.6148
H46 H 0.7132 0.4641 0.5522
loop_
_geom_bond_atom_site_label_1
_geom_bond_atom_site_label_2
_geom_bond_site_symmetry_1
_geom_bond_site_symmetry_2
Cd1 O1 1_555 1_555
O1 C7 1_555 1_555
O2 Cd1 1_555 1_555
O3 H1 1_555 1_555
O4 C9 1_555 1_555
O5 Cd1 1_555 1_555
O6 Cd1 1_555 1_555
O7 H2 1_555 1_555
O8 C19 1_555 1_555
O9 Cd1 1_555 1_555
H3 O9 1_555 1_555
H4 O9 1_555 1_555
N1 Cd1 1_555 1_555
N2 C28 1_555 1_555
C1 C2 1_555 1_555
C2 H5 1_555 1_555
H6 C2 1_555 1_555
C3 C2 1_555 1_555
H7 C3 1_555 1_555
H8 C3 1_555 1_555
C4 C3 1_555 1_555
H9 C4 1_555 1_555
H10 C4 1_555 1_555
C5 C4 1_555 1_555
H11 C5 1_555 1_555
H12 C5 1_555 1_555
C6 C1 1_555 1_555
H13 C6 1_555 1_555
H14 C6 1_555 1_555
C7 O2 1_555 1_555
C8 C1 1_555 1_555
H15 C8 1_555 1_555
H16 C8 1_555 1_555
C9 O3 1_555 1_555
C10 C1 1_555 1_555
H17 C10 1_555 1_555
H18 C10 1_555 1_555
C11 C12 1_555 1_555
C12 H19 1_555 1_555
H20 C12 1_555 1_555
C13 C12 1_555 1_555
H21 C13 1_555 1_555
H22 C13 1_555 1_555
C14 C13 1_555 1_555
H23 C14 1_555 1_555
H24 C14 1_555 1_555
C15 C14 1_555 1_555
H25 C15 1_555 1_555
H26 C15 1_555 1_555
C16 C11 1_555 1_555
H27 C16 1_555 1_555
H28 C16 1_555 1_555
C17 O5 1_555 1_555
C18 C11 1_555 1_555
H29 C18 1_555 1_555
H30 C18 1_555 1_555
C19 O7 1_555 1_555
C20 C11 1_555 1_555
H31 C20 1_555 1_555
H32 C20 1_555 1_555
C21 N1 1_555 1_555
H33 C21 1_555 1_555
C22 C21 1_555 1_555
H34 C22 1_555 1_555
C23 C22 1_555 1_555
C24 C23 1_555 1_555
H35 C24 1_555 1_555
C25 N1 1_555 1_555
H36 C25 1_555 1_555
C26 C23 1_555 1_555
H37 C26 1_555 1_555
H38 C26 1_555 1_555
C27 C26 1_555 1_555
H39 C27 1_555 1_555
H40 C27 1_555 1_555
C28 H41 1_555 1_555
C29 C28 1_555 1_555
H42 C29 1_555 1_555
C30 C27 1_555 1_555
C31 C30 1_555 1_555
H43 C31 1_555 1_555
C32 N2 1_555 1_555
H44 C32 1_555 1_555
O10 H45 1_555 1_555
H46 O10 1_555 1_555
Cd1_2 N2 1_555 1_555
N2_2 Cd1 1_555 1_555
O6 C17 1_555 1_555
C5 C6 1_555 1_555
C7 C8 1_555 1_555
C9 C10 1_555 1_555
C15 C16 1_555 1_555
C17 C18 1_555 1_555
C19 C20 1_555 1_555
C24 C25 1_555 1_555
C29 C30 1_555 1_555
C31 C32 1_555 1_555

#END
