
#######################################################################
#
#                 Cambridge Crystallographic Data Centre
#                                CCDC 
#
#######################################################################
#
# If this CIF has been generated from an entry in the Cambridge 
# Structural Database, then it will include bibliographic, chemical, 
# crystal, experimental, refinement or atomic coordinate data resulting 
# from the CCDC's data processing and validation procedures.
#
#######################################################################

data_WUMYAF
_symmetry_cell_setting           triclinic
_symmetry_space_group_name_H-M   'P -1'
_symmetry_Int_Tables_number      2
_space_group_name_Hall           '-P 1'
loop_
_symmetry_equiv_pos_site_id
_symmetry_equiv_pos_as_xyz
1 x,y,z
2 -x,-y,-z
_cell_length_a                   11.6550(12)
_cell_length_b                   12.8860(13)
_cell_length_c                   16.1390(18)
_cell_angle_alpha                106.369(8)
_cell_angle_beta                 92.903(10)
_cell_angle_gamma                115.787(7)
_cell_volume                     2051.48
loop_
_atom_site_label
_atom_site_type_symbol
_atom_site_fract_x
_atom_site_fract_y
_atom_site_fract_z
Ce1 Ce 0.31302(3) -0.12421(3) 0.01563(2)
Ce2 Ce -0.06238(3) -0.38892(3) -0.40584(2)
Ce3 Ce 0.50135(3) -0.31336(3) -0.19925(2)
S1 S 0.55552(14) 0.04614(13) 0.18137(9)
O1 O 0.1281(5) -0.1914(5) 0.0853(4)
O2 O -0.0113(7) -0.3119(7) 0.1487(5)
O3 O 0.4316(5) -0.4315(4) -0.0846(3)
O4 O 0.4171(4) -0.2598(4) -0.0504(3)
O5 O -0.2536(4) -0.5297(4) -0.5328(3)
O6 O -0.4049(5) -0.5661(5) -0.6433(3)
O7 O 0.0411(6) 0.0171(5) -0.3563(4)
H1 H 0.1170 0.0567 -0.3074
O8 O 0.0308(5) -0.1573(4) -0.3499(3)
O9 O -0.0308(4) -0.5777(4) -0.4521(3)
O10 O -0.0839(5) -0.7702(5) -0.4643(4)
O11 O -0.3958(4) -0.4459(4) -0.2495(3)
O12 O -0.2511(4) -0.3833(4) -0.3333(3)
O13 O 0.0075(4) -0.3355(4) -0.2445(3)
O14 O 0.1598(4) -0.2755(4) -0.1276(3)
O15 O 0.3366(4) 0.0901(4) 0.0854(3)
O16 O 0.3004(5) 0.2438(4) 0.0823(3)
O17 O 0.5689(4) 0.1686(4) 0.2241(3)
O18 O 0.6592(5) 0.0356(5) 0.2251(3)
O19 O 0.4247(5) -0.0496(4) 0.1801(3)
O20 O 0.5603(4) 0.0274(4) 0.0860(3)
O21 O 0.1848(4) -0.2978(4) -0.3705(3)
H2 H 0.2320 -0.2223 -0.3202
H3 H 0.2090 -0.3505 -0.3624
O22 O 0.2560(5) -0.4249(5) -0.2237(4)
H4 H 0.1911 -0.4189 -0.1938
H5 H 0.2056 -0.5061 -0.2671
O23 O 0.6699(5) -0.2105(4) -0.2772(3)
H6 H 0.6813 -0.1537 -0.3116
H7 H 0.6976 -0.2724 -0.2990
N1 N 0.2381(5) -0.3337(5) 0.0426(3)
N2 N -0.1748(5) -0.2905(5) -0.4797(3)
N3 N -0.2134(5) -0.5773(4) -0.3606(3)
N4 N 0.1623(5) -0.0613(4) -0.0618(3)
C1 C 0.0816(7) -0.2833(7) 0.1107(5)
C2 C 0.1426(7) -0.3677(6) 0.0879(4)
C3 C 0.1059(8) -0.4702(7) 0.1128(5)
H16 H 0.0379 -0.4907 0.1467
C4 C 0.1709(9) -0.5402(7) 0.0884(6)
H17 H 0.1474 -0.6122 0.1053
C5 C 0.2677(8) -0.5064(6) 0.0406(5)
H18 H 0.3139 -0.5535 0.0234
C6 C 0.2960(7) -0.4036(6) 0.0171(4)
C7 C 0.3891(7) -0.3635(6) -0.0420(4)
C8 C -0.3164(6) -0.4968(6) -0.5774(4)
C9 C -0.2790(6) -0.3627(6) -0.5467(4)
C10 C -0.3424(7) -0.3133(7) -0.5854(5)
H19 H -0.4181 -0.3569 -0.6327
C11 C -0.2974(8) -0.1888(8) -0.5565(6)
H20 H -0.3408 -0.1536 -0.5835
C12 C -0.1900(7) -0.1141(7) -0.4881(5)
H21 H -0.1583 -0.0262 -0.4676
C13 C -0.1314(6) -0.1697(6) -0.4523(4)
C14 C -0.0125(7) -0.1017(6) -0.3808(4)
C15 C -0.0962(6) -0.6774(6) -0.4357(4)
C16 C -0.1954(6) -0.6762(6) -0.3795(4)
C17 C -0.2668(7) -0.7746(7) -0.3524(5)
H22 H -0.2494 -0.8440 -0.3669
C18 C -0.3604(8) -0.7687(7) -0.3038(6)
H23 H -0.4118 -0.8359 -0.2837
C19 C -0.3805(7) -0.6674(6) -0.2842(5)
H24 H -0.4471 -0.6645 -0.2514
C20 C -0.3039(6) -0.5729(5) -0.3143(4)
C21 C -0.3175(6) -0.4576(5) -0.2972(4)
C22 C 0.0782(6) -0.2614(5) -0.1715(4)
C23 C 0.0698(6) -0.1437(6) -0.1329(4)
C24 C -0.0228(6) -0.1197(6) -0.1692(4)
H25 H -0.0929 -0.1842 -0.2172
C25 C -0.0143(7) -0.0050(6) -0.1356(4)
H26 H -0.0768 0.0139 -0.1612
C26 C 0.0863(7) 0.0834(6) -0.0641(4)
H27 H 0.0960 0.1655 -0.0408
C27 C 0.1707(6) 0.0495(6) -0.0287(4)
C28 C 0.2755(6) 0.1341(5) 0.0515(4)
Ce1A Ce 0.68698(3) 0.12421(3) -0.01563(2)
Ce2A Ce 0.06238(3) -0.61108(3) -0.59416(2)
Ce3A Ce -0.50135(3) -0.68664(3) -0.80075(2)
Ce3_2 Ce -0.49865(3) -0.31336(3) -0.19925(2)
Ce3A_2 Ce 0.49865(3) 0.31336(3) 0.19925(2)
O6A O 0.4049(5) -0.4339(5) -0.3567(3)
O9A O 0.0308(4) -0.4223(4) -0.5479(3)
O11_2 O 0.6042(4) -0.4459(4) -0.2495(3)
O15A O 0.6634(4) -0.0901(4) -0.0854(3)
O16A O 0.6996(5) -0.2438(4) -0.0823(3)
O17A O 0.4311(4) -0.1686(4) -0.2241(3)
O20A O 0.4397(4) -0.0274(4) -0.0860(3)
O24 O 0.1102(7) 0.3266(7) 0.7046(5)
H8 H 0.0708 0.2698 0.6448
H9 H 0.1151 0.2840 0.7483
O25 O 0.2526(7) 0.1197(7) 0.7467(5)
H10 H 0.2813 0.0636 0.7576
H11 H 0.2671 0.1775 0.8082
O26 O 0.3307(9) 0.9550(8) 0.5861(6)
H12 H 0.3351 0.9593 0.6480
H13 H 0.2483 0.8962 0.5478
O27 O 0.2948(12) 0.0200(11) 0.3164(8)
H14 H 0.3619 0.0156 0.2847
H15 H 0.2237 -0.0617 0.2866
loop_
_geom_bond_atom_site_label_1
_geom_bond_atom_site_label_2
_geom_bond_site_symmetry_1
_geom_bond_site_symmetry_2
Ce1 O1 1_555 1_555
Ce2 O5 1_555 1_555
Ce3 O3 1_555 1_555
S1 O17 1_555 1_555
O1 C1 1_555 1_555
O2 C1 1_555 1_555
O3 C7 1_555 1_555
O4 Ce1 1_555 1_555
O5 C8 1_555 1_555
O6 C8 1_555 1_555
O7 H1 1_555 1_555
O8 Ce2 1_555 1_555
O9 Ce2 1_555 1_555
O10 C15 1_555 1_555
O11 C21 1_555 1_555
O12 Ce2 1_555 1_555
O13 Ce2 1_555 1_555
O14 Ce1 1_555 1_555
O15 Ce1 1_555 1_555
O16 C28 1_555 1_555
O17 Ce3A_2 1_555 1_555
O18 S1 1_555 1_555
O19 Ce1 1_555 1_555
O20 Ce1 1_555 1_555
O21 Ce2 1_555 1_555
H2 O21 1_555 1_555
H3 O21 1_555 1_555
O22 Ce3 1_555 1_555
H4 O22 1_555 1_555
H5 O22 1_555 1_555
O23 Ce3 1_555 1_555
H6 O23 1_555 1_555
H7 O23 1_555 1_555
O24 H8 1_555 1_555
H9 O24 1_555 1_555
O25 H10 1_555 1_555
H11 O25 1_555 1_555
O26 H12 1_555 1_555
H13 O26 1_555 1_555
O27 H14 1_555 1_555
H15 O27 1_555 1_555
N1 Ce1 1_555 1_555
N2 Ce2 1_555 1_555
N3 Ce2 1_555 1_555
N4 Ce1 1_555 1_555
C1 C2 1_555 1_555
C2 N1 1_555 1_555
C3 C2 1_555 1_555
H16 C3 1_555 1_555
C4 C3 1_555 1_555
H17 C4 1_555 1_555
C5 C4 1_555 1_555
H18 C5 1_555 1_555
C6 N1 1_555 1_555
C7 O4 1_555 1_555
C8 C9 1_555 1_555
C9 N2 1_555 1_555
C10 C9 1_555 1_555
H19 C10 1_555 1_555
C11 C10 1_555 1_555
H20 C11 1_555 1_555
C12 C11 1_555 1_555
H21 C12 1_555 1_555
C13 N2 1_555 1_555
C14 O7 1_555 1_555
C15 O9 1_555 1_555
C16 N3 1_555 1_555
C17 C16 1_555 1_555
H22 C17 1_555 1_555
C18 C17 1_555 1_555
H23 C18 1_555 1_555
C19 C18 1_555 1_555
H24 C19 1_555 1_555
C20 N3 1_555 1_555
C21 O12 1_555 1_555
C22 O13 1_555 1_555
C23 N4 1_555 1_555
C24 C23 1_555 1_555
H25 C24 1_555 1_555
C25 C24 1_555 1_555
H26 C25 1_555 1_555
C26 C25 1_555 1_555
H27 C26 1_555 1_555
C27 N4 1_555 1_555
C28 O15 1_555 1_555
Ce1A O20 1_555 1_555
Ce2A O9 1_555 1_555
Ce3A O6 1_555 1_555
Ce3_2 O11 1_555 1_555
Ce3A_2 O15 1_555 1_555
O6A Ce3 1_555 1_555
O9A Ce2 1_555 1_555
O11_2 Ce3 1_555 1_555
O15A Ce3 1_555 1_555
O16A Ce3 1_555 1_555
O17A Ce3 1_555 1_555
O20A Ce1 1_555 1_555
Ce3 O4 1_555 1_555
S1 O19 1_555 1_555
S1 O20 1_555 1_555
O8 C14 1_555 1_555
O14 C22 1_555 1_555
O16 Ce3A_2 1_555 1_555
C5 C6 1_555 1_555
C6 C7 1_555 1_555
C12 C13 1_555 1_555
C13 C14 1_555 1_555
C15 C16 1_555 1_555
C19 C20 1_555 1_555
C20 C21 1_555 1_555
C22 C23 1_555 1_555
C26 C27 1_555 1_555
C27 C28 1_555 1_555
Ce1A O15A 1_555 1_555
Ce1A O20A 1_555 1_555
Ce2A O9A 1_555 1_555

#END
