
#######################################################################
#
#                 Cambridge Crystallographic Data Centre
#                                CCDC 
#
#######################################################################
#
# If this CIF has been generated from an entry in the Cambridge 
# Structural Database, then it will include bibliographic, chemical, 
# crystal, experimental, refinement or atomic coordinate data resulting 
# from the CCDC's data processing and validation procedures.
#
#######################################################################

data_WUNPAW
_symmetry_cell_setting           monoclinic
_symmetry_space_group_name_H-M   'P 21/n'
_symmetry_Int_Tables_number      14
_space_group_name_Hall           '-P 2yn'
loop_
_symmetry_equiv_pos_site_id
_symmetry_equiv_pos_as_xyz
1 x,y,z
2 1/2+x,1/2-y,1/2+z
3 -x,-y,-z
4 1/2-x,1/2+y,1/2-z
_cell_length_a                   16.451(2)
_cell_length_b                   16.806(4)
_cell_length_c                   14.243(2)
_cell_angle_alpha                90
_cell_angle_beta                 96.434(10)
_cell_angle_gamma                90
_cell_volume                     3913.04
loop_
_atom_site_label
_atom_site_type_symbol
_atom_site_fract_x
_atom_site_fract_y
_atom_site_fract_z
Ag1 Ag 1.02314(2) 0.25712(2) 0.54981(2)
Ag2 Ag 0.54448(2) 0.23810(2) 0.58602(3)
O1 O 0.9569(2) 0.1357(2) 0.5986(3)
N1 N 1.0530(2) 0.3303(2) 0.6815(2)
N2 N 0.4627(2) 0.2280(2) 0.4515(3)
N3 N 1.5627(2) 0.3201(2) 0.7082(2)
N4 N 0.9597(2) 0.2701(2) 0.4033(2)
C1 C 1.1125(3) 0.3163(3) 0.7516(3)
C2 C 1.1236(3) 0.3610(3) 0.8335(3)
C3 C 1.0710(3) 0.4221(3) 0.8441(3)
C4 C 1.0083(3) 0.4380(3) 0.7732(3)
C5 C 1.0017(2) 0.3920(2) 0.6923(3)
C6 C 0.9387(3) 0.4047(2) 0.6160(3)
C7 C 0.8867(3) 0.4142(2) 0.5515(3)
C8 C 0.8237(2) 0.4253(2) 0.4735(3)
C9 C 0.8373(3) 0.4756(3) 0.4004(3)
C10 C 0.7774(3) 0.4872(3) 0.3250(3)
C11 C 0.7026(3) 0.4501(3) 0.3249(3)
C12 C 0.6880(3) 0.3997(2) 0.3979(3)
C13 C 0.7490(3) 0.3852(2) 0.4734(3)
C14 C 0.7353(3) 0.3283(3) 0.5511(4)
C15 C 0.6095(3) 0.3606(3) 0.3954(3)
C16 C 0.5463(3) 0.3262(3) 0.3915(3)
C17 C 0.4726(3) 0.2793(3) 0.3810(3)
C18 C 0.4170(3) 0.2845(3) 0.3003(3)
C19 C 0.3502(3) 0.2343(4) 0.2918(4)
C20 C 0.3421(3) 0.1787(4) 0.3616(5)
C21 C 0.3984(3) 0.1775(3) 0.4401(4)
C22 C 1.6190(3) 0.3100(3) 0.7826(3)
C23 C 1.6229(3) 0.3556(3) 0.8630(3)
C24 C 1.5649(3) 0.4137(3) 0.8683(3)
C25 C 1.5065(3) 0.4269(3) 0.7925(3)
C26 C 1.5071(2) 0.3792(2) 0.7136(3)
C27 C 1.4490(3) 0.3906(2) 0.6308(3)
C28 C 1.4027(2) 0.4034(2) 0.5627(3)
C29 C 1.3468(2) 0.4206(2) 0.4794(3)
C30 C 1.3733(3) 0.4704(3) 0.4112(3)
C31 C 1.3210(3) 0.4889(3) 0.3304(3)
C32 C 1.2418(3) 0.4598(3) 0.3201(3)
C33 C 1.2151(2) 0.4101(2) 0.3887(3)
C34 C 1.2678(2) 0.3889(2) 0.4693(3)
C35 C 1.2406(3) 0.3323(3) 0.5413(3)
C36 C 1.1318(3) 0.3817(2) 0.3757(3)
C37 C 1.0633(3) 0.3575(2) 0.3633(3)
C38 C 0.9835(2) 0.3235(2) 0.3420(3)
C39 C 0.9346(3) 0.3433(3) 0.2575(3)
C40 C 0.8601(3) 0.3058(3) 0.2373(3)
C41 C 0.8372(3) 0.2505(3) 0.2991(4)
C42 C 0.8873(3) 0.2350(3) 0.3816(3)
H1 H 1.1491 0.2717 0.7455
H2 H 1.1672 0.3488 0.8827
H3 H 1.0777 0.4542 0.9005
H4 H 0.9703 0.4818 0.7804
H5 H 0.8905 0.5029 0.4020
H6 H 0.7883 0.5218 0.2717
H7 H 0.6595 0.4592 0.2739
H8 H 0.7408 0.3546 0.6120
H9 H 0.6817 0.3055 0.5419
H10 H 0.7743 0.2856 0.5551
H11 H 0.4251 0.3237 0.2505
H12 H 0.3091 0.2358 0.2362
H13 H 0.2975 0.1405 0.3553
H14 H 0.3912 0.1388 0.4912
H15 H 1.6593 0.2672 0.7793
H16 H 1.6649 0.3465 0.9152
H17 H 1.5655 0.4461 0.9250
H18 H 1.4654 0.4687 0.7952
H19 H 1.4284 0.4904 0.4193
H20 H 1.3411 0.5212 0.2798
H21 H 1.2051 0.4734 0.2646
H22 H 1.1938 0.3531 0.5685
H23 H 1.2254 0.2817 0.5138
H24 H 1.2832 0.3238 0.5919
H25 H 0.9536 0.3831 0.2140
H26 H 0.8248 0.3177 0.1798
H27 H 0.7862 0.2221 0.2834
H28 H 0.8681 0.1972 0.4266
H29 H 1.0111 0.1123 0.6081
H30 H 0.9104 0.1005 0.6032
N3_2 N 0.5627(2) 0.3201(2) 0.7082(2)
Ag2_2 Ag 1.54448(2) 0.23810(2) 0.58602(3)
O2 O 1.1070(2) 0.0519(2) 0.5992(2)
O3 O 1.1528(2) 0.1729(2) 0.6137(2)
O4 O 1.2312(2) 0.0784(2) 0.5770(3)
N5 N 1.1637(3) 0.1017(3) 0.5972(2)
O5 O 0.5507(2) 0.0873(2) 0.6033(3)
O6 O 0.6643(2) 0.1454(2) 0.5888(3)
O7 O 0.6588(3) 0.0173(2) 0.5895(3)
N6 N 0.6249(3) 0.0822(3) 0.5942(3)
O8 O 0.8123(2) 0.0832(2) 0.5008(3)
H31 H 0.8165 0.0605 0.5558
H32 H 0.7651 0.0952 0.5253
loop_
_geom_bond_atom_site_label_1
_geom_bond_atom_site_label_2
_geom_bond_site_symmetry_1
_geom_bond_site_symmetry_2
Ag1 O1 1_555 1_555
Ag2 N2 1_555 1_555
O1 H29 1_555 1_555
O2 N5 1_555 1_555
O3 N5 1_555 1_555
O4 N5 1_555 1_555
O5 N6 1_555 1_555
O6 N6 1_555 1_555
O7 N6 1_555 1_555
O8 H31 1_555 1_555
N1 Ag1 1_555 1_555
N2 C17 1_555 1_555
N3 C22 1_555 1_555
N4 Ag1 1_555 1_555
C1 N1 1_555 1_555
C2 C1 1_555 1_555
C3 C2 1_555 1_555
C4 C3 1_555 1_555
C5 N1 1_555 1_555
C6 C5 1_555 1_555
C7 C6 1_555 1_555
C8 C7 1_555 1_555
C9 C8 1_555 1_555
C10 C9 1_555 1_555
C11 C10 1_555 1_555
C12 C11 1_555 1_555
C13 C8 1_555 1_555
C14 C13 1_555 1_555
C15 C12 1_555 1_555
C16 C15 1_555 1_555
C17 C16 1_555 1_555
C18 C17 1_555 1_555
C19 C18 1_555 1_555
C20 C19 1_555 1_555
C21 N2 1_555 1_555
C22 C23 1_555 1_555
C23 C24 1_555 1_555
C24 C25 1_555 1_555
C25 C26 1_555 1_555
C26 N3 1_555 1_555
C27 C26 1_555 1_555
C28 C27 1_555 1_555
C29 C28 1_555 1_555
C30 C29 1_555 1_555
C31 C30 1_555 1_555
C32 C31 1_555 1_555
C33 C32 1_555 1_555
C34 C29 1_555 1_555
C35 C34 1_555 1_555
C36 C33 1_555 1_555
C37 C36 1_555 1_555
C38 N4 1_555 1_555
C39 C38 1_555 1_555
C40 C39 1_555 1_555
C41 C40 1_555 1_555
C42 N4 1_555 1_555
H1 C1 1_555 1_555
H2 C2 1_555 1_555
H3 C3 1_555 1_555
H4 C4 1_555 1_555
H5 C9 1_555 1_555
H6 C10 1_555 1_555
H7 C11 1_555 1_555
H8 C14 1_555 1_555
H9 C14 1_555 1_555
H10 C14 1_555 1_555
H11 C18 1_555 1_555
H12 C19 1_555 1_555
H13 C20 1_555 1_555
H14 C21 1_555 1_555
H15 C22 1_555 1_555
H16 C23 1_555 1_555
H17 C24 1_555 1_555
H18 C25 1_555 1_555
H19 C30 1_555 1_555
H20 C31 1_555 1_555
H21 C32 1_555 1_555
H22 C35 1_555 1_555
H23 C35 1_555 1_555
H24 C35 1_555 1_555
H25 C39 1_555 1_555
H26 C40 1_555 1_555
H27 C41 1_555 1_555
H28 C42 1_555 1_555
H30 O1 1_555 1_555
H32 O8 1_555 1_555
N3_2 Ag2 1_555 1_555
Ag2_2 N3 1_555 1_555
C4 C5 1_555 1_555
C12 C13 1_555 1_555
C20 C21 1_555 1_555
C33 C34 1_555 1_555
C37 C38 1_555 1_555
C41 C42 1_555 1_555

#END
