
#######################################################################
#
#                 Cambridge Crystallographic Data Centre
#                                CCDC 
#
#######################################################################
#
# If this CIF has been generated from an entry in the Cambridge 
# Structural Database, then it will include bibliographic, chemical, 
# crystal, experimental, refinement or atomic coordinate data resulting 
# from the CCDC's data processing and validation procedures.
#
#######################################################################

data_WUNSII02
_symmetry_cell_setting           tetragonal
_symmetry_space_group_name_H-M   'P 43 21 2'
_symmetry_Int_Tables_number      96
_space_group_name_Hall           'P 4nw 2abw'
loop_
_symmetry_equiv_pos_site_id
_symmetry_equiv_pos_as_xyz
1 x,y,z
2 -x,-y,1/2+z
3 1/2-y,1/2+x,3/4+z
4 1/2+y,1/2-x,1/4+z
5 1/2-x,1/2+y,3/4-z
6 1/2+x,1/2-y,1/4-z
7 y,x,-z
8 -y,-x,1/2-z
_cell_length_a                   15.8955(14)
_cell_length_b                   15.8955(14)
_cell_length_c                   21.599(4)
_cell_angle_alpha                90
_cell_angle_beta                 90
_cell_angle_gamma                90
_cell_volume                     5457.35
loop_
_atom_site_label
_atom_site_type_symbol
_atom_site_fract_x
_atom_site_fract_y
_atom_site_fract_z
C1 C 0.8595(4) 0.0874(4) -0.1112(3)
H1 H 0.8888 0.0391 -0.1000
C2 C 0.7968(4) 0.1163(4) -0.0715(3)
H2 H 0.7833 0.0859 -0.0361
C3 C 0.7543(4) 0.1908(4) -0.0849(3)
C4 C 0.7823(4) 0.2332(4) -0.1361(3)
H3 H 0.7598 0.2858 -0.1451
C5 C 0.8434(4) 0.1996(4) -0.1748(3)
H4 H 0.8601 0.2297 -0.2097
C6 C 0.6820(4) 0.2204(4) -0.0475(3)
C7 C 0.6642(5) 0.1897(5) 0.0119(3)
H5 H 0.6981 0.1480 0.0290
C8 C 0.5980(5) 0.2201(5) 0.0447(3)
H6 H 0.5888 0.2009 0.0848
C9 C 0.5430(5) 0.2804(5) 0.0190(3)
H7 H 0.4965 0.2994 0.0411
C10 C 0.5600(4) 0.3108(3) -0.0403(2)
C11 C 0.6279(4) 0.2817(4) -0.0721(3)
H8 H 0.6388 0.3031 -0.1113
C12 C 0.5044(4) 0.3735(4) -0.0702(3)
C13 C 0.4076(4) 0.4238(3) -0.1326(2)
C14 C 0.3395(4) 0.4318(4) -0.1757(3)
C15 C 0.3362(5) 0.5041(5) -0.2118(4)
H9 H 0.3780 0.5448 -0.2085
C16 C 0.2705(5) 0.5148(5) -0.2524(4)
H10 H 0.2692 0.5626 -0.2773
C17 C 0.2067(5) 0.4573(5) -0.2575(4)
H11 H 0.1626 0.4668 -0.2849
C18 C 0.2080(4) 0.3825(4) -0.2206(3)
C19 C 0.2752(4) 0.3718(4) -0.1806(3)
H12 H 0.2778 0.3235 -0.1564
C20 C 0.1419(4) 0.3171(4) -0.2263(3)
C21 C 0.0931(4) 0.3098(5) -0.2783(3)
H13 H 0.0976 0.3495 -0.3098
C22 C 0.0372(5) 0.2438(5) -0.2842(3)
H14 H 0.0063 0.2399 -0.3206
C23 C 0.0699(4) 0.1948(4) -0.1902(3)
H15 H 0.0623 0.1556 -0.1587
C24 C 0.1277(5) 0.2593(4) -0.1805(3)
H16 H 0.1565 0.2630 -0.1431
Cd1 Cd 0.55853(2) 0.55853(2) 0.0000
N1 N 0.4450(3) 0.4875(3) -0.1048(2)
N2 N 0.5064(3) 0.4553(3) -0.0661(2)
N3 N 0.4437(3) 0.3515(3) -0.1115(2)
N4 N 0.4251(4) 0.2692(3) -0.1327(3)
H17 H 0.4684 0.2500 -0.1546
H18 H 0.4163 0.2357 -0.1003
N5 N 0.0250(3) 0.1860(3) -0.2416(2)
N6 N 0.8794(3) 0.1238(4) -0.1629(2)
C1C C 0.5874(4) -0.3595(4) 0.1388(3)
H1C H 0.5391 -0.3888 0.1500
C2C C 0.6163(4) -0.2968(4) 0.1785(3)
H2C H 0.5859 -0.2833 0.2139
C3C C 0.6908(4) -0.2543(4) 0.1651(3)
C4C C 0.7332(4) -0.2823(4) 0.1139(3)
H3C H 0.7858 -0.2598 0.1049
C5C C 0.6996(4) -0.3434(4) 0.0752(3)
H4C H 0.7297 -0.3601 0.0403
C6C C 0.7204(4) -0.1820(4) 0.2025(3)
C7C C 0.6897(5) -0.1642(5) 0.2619(3)
H5C H 0.6480 -0.1981 0.2790
C8C C 0.7201(5) -0.0980(5) 0.2947(3)
H6C H 0.7009 -0.0888 0.3348
C9C C 0.7804(5) -0.0430(5) 0.2690(3)
H7C H 0.7994 0.0035 0.2911
C10C C 0.8108(3) -0.0600(4) 0.2097(2)
C11C C 0.7817(4) -0.1279(4) 0.1779(3)
H8C H 0.8031 -0.1388 0.1387
C12C C 0.8735(4) -0.0044(4) 0.1798(3)
C13C C 0.9238(3) 0.0924(4) 0.1174(2)
C14C C 0.9318(4) 0.1605(4) 0.0743(3)
C15C C 1.0041(5) 0.1638(5) 0.0382(4)
H9C H 1.0448 0.1220 0.0415
C16C C 1.0148(5) 0.2295(5) -0.0024(4)
H10C H 1.0626 0.2308 -0.0273
C17C C 0.9573(5) 0.2933(5) -0.0075(4)
H11C H 0.9668 0.3374 -0.0349
C18C C 0.8825(4) 0.2920(4) 0.0294(3)
C19C C 0.8718(4) 0.2248(4) 0.0694(3)
H12C H 0.8235 0.2222 0.0936
C20C C 0.8171(4) 0.3581(4) 0.0237(3)
C21C C 0.8098(5) 0.4069(4) -0.0283(3)
H13C H 0.8495 0.4024 -0.0598
C22C C 0.7438(5) 0.4628(5) -0.0342(3)
H14C H 0.7399 0.4937 -0.0706
C23C C 0.6948(4) 0.4301(4) 0.0598(3)
H15C H 0.6556 0.4377 0.0913
C24C C 0.7593(4) 0.3723(5) 0.0695(3)
H16C H 0.7630 0.3435 0.1069
Cd1B Cd -0.05853(2) 0.05853(2) -0.2500
Cd1B_2 Cd 0.94147(2) 0.05853(2) -0.2500
Cd1C Cd 1.05853(2) -0.05853(2) 0.2500
Cd1_2 Cd 0.55853(2) -0.44147(2) 0.0000
N1C N 0.9875(3) 0.0550(3) 0.1452(2)
N2C N 0.9553(3) -0.0064(3) 0.1839(2)
N2F N 0.4553(3) 0.5064(3) 0.0661(2)
N3C N 0.8515(3) 0.0563(3) 0.1385(2)
N4C N 0.7692(3) 0.0749(4) 0.1173(3)
H17C H 0.7500 0.0316 0.0954
H18C H 0.7357 0.0837 0.1497
N5C N 0.6860(3) 0.4750(3) 0.0084(2)
N5D N 0.4750(3) 0.6860(3) -0.0084(2)
N6C N 0.6238(4) -0.3794(3) 0.0871(2)
N6C_2 N 0.6238(4) 0.6206(3) 0.0871(2)
N6D N 0.6206(3) 0.6238(4) -0.0871(2)
Cl2 Cl 0.26856(16) 0.26856(16) 0.0000
O6 O 0.2435(8) 0.2250(6) -0.0534(4)
O7 O 0.339(2) 0.224(3) 0.0263(19)
O6F O 0.2250(6) 0.2435(8) 0.0534(4)
O7F O 0.224(3) 0.339(2) -0.0263(19)
O8 O 0.593(2) 0.066(2) 0.3243(14)
H20 H 0.5665 0.0541 0.2908
H21 H 0.6295 0.1040 0.3319
O9 O 0.091(3) 0.522(2) 0.1513(14)
H19 H 0.0462 0.5415 0.1321
H22 H 0.1195 0.5558 0.1769
Cl1? Cl 0.87906(16) 0.87906(16) 1.0000
O1? O 0.9002(10) 0.8269(9) 1.0525(6)
O2? O 0.9257(12) 0.8547(11) 0.9534(8)
O3? O 0.7963(10) 0.8854(15) 0.9968(12)
O4? O 0.9116(13) 0.9576(11) 1.0225(9)
O5? O 0.3304(5) 0.3304(5) 0.0000
loop_
_geom_bond_atom_site_label_1
_geom_bond_atom_site_label_2
_geom_bond_site_symmetry_1
_geom_bond_site_symmetry_2
C1 H1 1_555 1_555
C2 C1 1_555 1_555
H2 C2 1_555 1_555
C3 C2 1_555 1_555
C4 C3 1_555 1_555
H3 C4 1_555 1_555
C5 C4 1_555 1_555
H4 C5 1_555 1_555
C6 C3 1_555 1_555
C7 C6 1_555 1_555
H5 C7 1_555 1_555
C8 C7 1_555 1_555
H6 C8 1_555 1_555
C9 C8 1_555 1_555
H7 C9 1_555 1_555
C10 C9 1_555 1_555
C11 C6 1_555 1_555
H8 C11 1_555 1_555
C12 C10 1_555 1_555
C13 C14 1_555 1_555
C14 C15 1_555 1_555
C15 H9 1_555 1_555
C16 C15 1_555 1_555
H10 C16 1_555 1_555
C17 C16 1_555 1_555
H11 C17 1_555 1_555
C18 C17 1_555 1_555
C19 C14 1_555 1_555
H12 C19 1_555 1_555
C20 C18 1_555 1_555
C21 C20 1_555 1_555
H13 C21 1_555 1_555
C22 C21 1_555 1_555
H14 C22 1_555 1_555
C23 H15 1_555 1_555
C24 C20 1_555 1_555
H16 C24 1_555 1_555
Cd1 N2 1_555 1_555
Cl2 O6 1_555 1_555
N1 C13 1_555 1_555
N2 C12 1_555 1_555
N3 C12 1_555 1_555
N4 N3 1_555 1_555
H17 N4 1_555 1_555
H18 N4 1_555 1_555
N5 C22 1_555 1_555
N6 C1 1_555 1_555
O7 Cl2 1_555 1_555
O8 H20 1_555 1_555
O9 H19 1_555 1_555
H21 O8 1_555 1_555
H22 O9 1_555 1_555
C1C H1C 1_555 1_555
C2C C1C 1_555 1_555
H2C C2C 1_555 1_555
C3C C2C 1_555 1_555
C4C C3C 1_555 1_555
H3C C4C 1_555 1_555
C5C C4C 1_555 1_555
H4C C5C 1_555 1_555
C6C C3C 1_555 1_555
C7C C6C 1_555 1_555
H5C C7C 1_555 1_555
C8C C7C 1_555 1_555
H6C C8C 1_555 1_555
C9C C8C 1_555 1_555
H7C C9C 1_555 1_555
C10C C9C 1_555 1_555
C11C C6C 1_555 1_555
H8C C11C 1_555 1_555
C12C C10C 1_555 1_555
C13C C14C 1_555 1_555
C14C C15C 1_555 1_555
C15C H9C 1_555 1_555
C16C C15C 1_555 1_555
H10C C16C 1_555 1_555
C17C C16C 1_555 1_555
H11C C17C 1_555 1_555
C18C C17C 1_555 1_555
C19C C14C 1_555 1_555
H12C C19C 1_555 1_555
C20C C18C 1_555 1_555
C21C C20C 1_555 1_555
H13C C21C 1_555 1_555
C22C C21C 1_555 1_555
H14C C22C 1_555 1_555
C23C H15C 1_555 1_555
C24C C20C 1_555 1_555
H16C C24C 1_555 1_555
Cd1B N5 1_555 1_555
Cd1B_2 N6 1_555 1_555
Cd1C N2C 1_555 1_555
Cd1_2 N6C 1_555 1_555
N1C C13C 1_555 1_555
N2C C12C 1_555 1_555
N2F Cd1 1_555 1_555
N3C C12C 1_555 1_555
N4C N3C 1_555 1_555
H17C N4C 1_555 1_555
H18C N4C 1_555 1_555
N5C Cd1 1_555 1_555
N5D Cd1 1_555 1_555
N6C C1C 1_555 1_555
N6C_2 Cd1 1_555 1_555
N6D Cd1 1_555 1_555
O6F Cl2 1_555 1_555
O7F Cl2 1_555 1_555
C5 N6 1_555 1_555
C10 C11 1_555 1_555
C13 N3 1_555 1_555
C18 C19 1_555 1_555
C23 C24 1_555 1_555
C23 N5 1_555 1_555
N1 N2 1_555 1_555
C5C N6C 1_555 1_555
C10C C11C 1_555 1_555
C13C N3C 1_555 1_555
C18C C19C 1_555 1_555
C22C N5C 1_555 1_555
C23C C24C 1_555 1_555
C23C N5C 1_555 1_555
N1C N2C 1_555 1_555

#END
