
#######################################################################
#
#                 Cambridge Crystallographic Data Centre
#                                CCDC 
#
#######################################################################
#
# If this CIF has been generated from an entry in the Cambridge 
# Structural Database, then it will include bibliographic, chemical, 
# crystal, experimental, refinement or atomic coordinate data resulting 
# from the CCDC's data processing and validation procedures.
#
#######################################################################

data_WUNTIJ
_symmetry_cell_setting           tetragonal
_symmetry_space_group_name_H-M   'P 43 21 2'
_symmetry_Int_Tables_number      96
_space_group_name_Hall           'P 4nw 2abw'
loop_
_symmetry_equiv_pos_site_id
_symmetry_equiv_pos_as_xyz
1 x,y,z
2 -x,-y,1/2+z
3 1/2-y,1/2+x,3/4+z
4 1/2+y,1/2-x,1/4+z
5 1/2-x,1/2+y,3/4-z
6 1/2+x,1/2-y,1/4-z
7 y,x,-z
8 -y,-x,1/2-z
_cell_length_a                   15.884(3)
_cell_length_b                   15.884(3)
_cell_length_c                   21.440(7)
_cell_angle_alpha                90
_cell_angle_beta                 90
_cell_angle_gamma                90
_cell_volume                     5409.34
loop_
_atom_site_label
_atom_site_type_symbol
_atom_site_fract_x
_atom_site_fract_y
_atom_site_fract_z
C1 C 0.9317(4) 0.8026(4) -0.1901(3)
H1 H 0.9397 0.8414 -0.1581
C2 C 0.8748(4) 0.7389(4) -0.1807(3)
H2 H 0.8465 0.7351 -0.1428
C3 C 0.8590(4) 0.6802(4) -0.2271(3)
C4 C 0.9075(4) 0.6887(4) -0.2806(3)
H3 H 0.9022 0.6498 -0.3128
C5 C 0.9641(4) 0.7553(4) -0.2861(3)
H4 H 0.9951 0.7597 -0.3228
C6 C 0.7938(4) 0.6144(4) -0.2214(3)
C7 C 0.7926(4) 0.5427(4) -0.2588(3)
H5 H 0.8346 0.5352 -0.2885
C8 C 0.7304(4) 0.4827(4) -0.2526(4)
H6 H 0.7335 0.4334 -0.2758
C9 C 0.6638(4) 0.4951(4) -0.2126(3)
H7 H 0.6207 0.4556 -0.2100
C10 C 0.6616(3) 0.5672(4) -0.1763(3)
C11 C 0.7258(4) 0.6258(4) -0.1806(3)
H8 H 0.7237 0.6739 -0.1558
C12 C 0.5921(3) 0.5756(3) -0.1319(2)
C13 C 0.4952(3) 0.6257(4) -0.0690(2)
C14 C 0.4400(4) 0.6883(3) -0.0388(2)
C15 C 0.4585(4) 0.7200(4) 0.0205(3)
H9 H 0.5064 0.7026 0.0418
C16 C 0.4036(4) 0.7783(4) 0.0469(3)
H10 H 0.4136 0.7982 0.0870
C17 C 0.3338(4) 0.8072(4) 0.0138(3)
H11 H 0.2981 0.8467 0.0319
C18 C 0.3170(4) 0.7784(4) -0.0450(3)
C19 C 0.3712(4) 0.7163(4) -0.0707(3)
H12 H 0.3595 0.6943 -0.1099
C20 C 0.2455(4) 0.8088(4) -0.0829(3)
C21 C 0.2018(4) 0.8831(4) -0.0696(3)
H13 H 0.2142 0.9128 -0.0333
C22 C 0.1408(4) 0.9129(4) -0.1094(3)
H14 H 0.1129 0.9625 -0.0991
C23 C 0.1563(4) 0.7998(4) -0.1731(3)
H15 H 0.1396 0.7698 -0.2083
C24 C 0.2166(4) 0.7653(4) -0.1359(3)
H16 H 0.2389 0.7128 -0.1456
Cd1 Cd 0.44041(2) 0.44041(2) 0.0000
N1 N 0.4931(3) 0.5442(3) -0.0665(2)
N2 N 0.5535(3) 0.5114(3) -0.1059(2)
N3 N 0.5567(3) 0.6490(3) -0.1098(2)
N4 N 0.5773(3) 0.7305(3) -0.1300(3)
H27 H 0.5330 0.7531 -0.1491
H28 H 0.5911 0.7619 -0.0971
N5 N 0.9763(3) 0.8124(3) -0.2423(2)
N6 N 0.1199(3) 0.8737(3) -0.1622(2)
C1F C 0.8026(4) 0.9317(4) 0.1901(3)
H1F H 0.8414 0.9397 0.1581
C2F C 0.7389(4) 0.8748(4) 0.1807(3)
H2F H 0.7351 0.8465 0.1428
C3F C 0.6802(4) 0.8590(4) 0.2271(3)
C4F C 0.6887(4) 0.9075(4) 0.2806(3)
H3F H 0.6498 0.9022 0.3128
C5F C 0.7553(4) 0.9641(4) 0.2861(3)
H4F H 0.7597 0.9951 0.3228
C6F C 0.6144(4) 0.7938(4) 0.2214(3)
C7F C 0.5427(4) 0.7926(4) 0.2588(3)
H5F H 0.5352 0.8346 0.2885
C8F C 0.4827(4) 0.7304(4) 0.2526(4)
H6F H 0.4334 0.7335 0.2758
C9F C 0.4951(4) 0.6638(4) 0.2126(3)
H7F H 0.4556 0.6207 0.2100
C10F C 0.5672(4) 0.6616(3) 0.1763(3)
C11F C 0.6258(4) 0.7258(4) 0.1806(3)
H8F H 0.6739 0.7237 0.1558
C12F C 0.5756(3) 0.5921(3) 0.1319(2)
C13F C 0.6257(4) 0.4952(3) 0.0690(2)
C14F C 0.6883(3) 0.4400(4) 0.0388(2)
C15F C 0.7200(4) 0.4585(4) -0.0205(3)
H9F H 0.7026 0.5064 -0.0418
C16F C 0.7783(4) 0.4036(4) -0.0469(3)
H10F H 0.7982 0.4136 -0.0870
C17F C 0.8072(4) 0.3338(4) -0.0138(3)
H11F H 0.8467 0.2981 -0.0319
C18F C 0.7784(4) 0.3170(4) 0.0450(3)
C19F C 0.7163(4) 0.3712(4) 0.0707(3)
H12F H 0.6943 0.3595 0.1099
C20F C 0.8088(4) 0.2455(4) 0.0829(3)
C21F C 0.8831(4) 0.2018(4) 0.0696(3)
H13F H 0.9128 0.2142 0.0333
C22F C 0.9129(4) 0.1408(4) 0.1094(3)
H14F H 0.9625 0.1129 0.0991
C23F C 0.7998(4) 0.1563(4) 0.1731(3)
H15F H 0.7698 0.1396 0.2083
C24F C 0.7653(4) 0.2166(4) 0.1359(3)
H16F H 0.7128 0.2389 0.1456
Cd1B Cd 1.05959(2) 0.94041(2) -0.2500
Cd1B_2 Cd 0.05959(2) 0.94041(2) -0.2500
Cd1C Cd 0.94041(2) 1.05959(2) 0.2500
Cd1C_2 Cd 0.94041(2) 0.05959(2) 0.2500
N1F N 0.5442(3) 0.4931(3) 0.0665(2)
N2F N 0.5114(3) 0.5535(3) 0.1059(2)
N3F N 0.6490(3) 0.5567(3) 0.1098(2)
N4F N 0.7305(3) 0.5773(3) 0.1300(3)
H27F H 0.7531 0.5330 0.1491
H28F H 0.7619 0.5911 0.0971
N5F N 0.8124(3) 0.9763(3) 0.2423(2)
N5C N 0.3124(3) 0.5237(3) 0.0077(2)
N5D N 0.5237(3) 0.3124(3) -0.0077(2)
N6F N 0.8737(3) 0.1199(3) 0.1622(2)
N6C N 0.3737(3) 0.3801(3) 0.0878(2)
N6D N 0.3801(3) 0.3737(3) -0.0878(2)
C25 C 1.0221(8) 0.5501(8) 0.1737(8)
H17 H 1.0664 0.5884 0.1717
C26 C 0.9914(9) 0.5157(10) 0.1199(8)
H18 H 1.0144 0.5304 0.0816
C27 C 0.9272(9) 0.4601(9) 0.1232(7)
H19 H 0.9061 0.4367 0.0866
C28 C 0.8925(8) 0.4374(8) 0.1791(8)
H20 H 0.8484 0.3989 0.1807
C29 C 0.9236(8) 0.4721(8) 0.2323(6)
C30 C 0.9889(8) 0.5291(7) 0.2305(7)
C31 C 0.8900(10) 0.4517(11) 0.2955(7)
H21 H 0.8451 0.4116 0.2917
H22 H 0.8691 0.5022 0.3147
H23 H 0.9342 0.4284 0.3207
C32 C 1.0231(14) 0.5672(14) 0.2906(10)
H24 H 1.0680 0.6054 0.2809
Cl1 Cl 0.73207(11) 0.73207(11) 0.0000
O1 O 0.7609(6) 0.7717(5) -0.0532(2)
O2 O 0.6560(7) 0.7797(10) 0.0099(9)
O1F O 0.7717(5) 0.7609(6) 0.0532(2)
O2F O 0.7797(10) 0.6560(7) -0.0099(9)
Cl2 Cl 0.62113(14) 0.37887(14) 0.2500
O3 O 0.6692(8) 0.4026(6) 0.3043(5)
O4 O 0.6497(13) 0.4408(9) 0.2098(6)
O3G O 0.5974(6) 0.3308(8) 0.1957(5)
O4G O 0.5592(9) 0.3503(13) 0.2902(6)
H25? H 1.0439 0.5231 0.3170
H26? H 0.9789 0.5970 0.3116
O5? O 0.5579(5) 0.4421(5) 0.2500
O6? O 0.6704(6) 0.6704(6) 0.0000
O7? O 0.6431(15) 0.2936(7) 0.2408(15)
loop_
_geom_bond_atom_site_label_1
_geom_bond_atom_site_label_2
_geom_bond_site_symmetry_1
_geom_bond_site_symmetry_2
C1 H1 1_555 1_555
C2 C1 1_555 1_555
H2 C2 1_555 1_555
C3 C2 1_555 1_555
C4 C3 1_555 1_555
H3 C4 1_555 1_555
C5 C4 1_555 1_555
H4 C5 1_555 1_555
C6 C3 1_555 1_555
C7 C6 1_555 1_555
H5 C7 1_555 1_555
C8 C7 1_555 1_555
H6 C8 1_555 1_555
C9 C8 1_555 1_555
H7 C9 1_555 1_555
C10 C9 1_555 1_555
C11 C6 1_555 1_555
H8 C11 1_555 1_555
C12 C10 1_555 1_555
C13 C14 1_555 1_555
C14 C15 1_555 1_555
C15 H9 1_555 1_555
C16 C15 1_555 1_555
H10 C16 1_555 1_555
C17 C16 1_555 1_555
H11 C17 1_555 1_555
C18 C17 1_555 1_555
C19 C14 1_555 1_555
H12 C19 1_555 1_555
C20 C18 1_555 1_555
C21 C20 1_555 1_555
H13 C21 1_555 1_555
C22 C21 1_555 1_555
H14 C22 1_555 1_555
C23 H15 1_555 1_555
C24 C20 1_555 1_555
H16 C24 1_555 1_555
C25 H17 1_555 1_555
C26 C25 1_555 1_555
H18 C26 1_555 1_555
C27 C26 1_555 1_555
H19 C27 1_555 1_555
C28 C27 1_555 1_555
H20 C28 1_555 1_555
C29 C28 1_555 1_555
C30 C25 1_555 1_555
C31 C29 1_555 1_555
H21 C31 1_555 1_555
H22 C31 1_555 1_555
H23 C31 1_555 1_555
C32 C30 1_555 1_555
H24 C32 1_555 1_555
Cd1 N1 1_555 1_555
Cl1 O1 1_555 1_555
Cl2 O3 1_555 1_555
N1 C13 1_555 1_555
N2 C12 1_555 1_555
N3 C12 1_555 1_555
N4 N3 1_555 1_555
H27 N4 1_555 1_555
H28 N4 1_555 1_555
N5 C1 1_555 1_555
N6 C22 1_555 1_555
O2 Cl1 1_555 1_555
O4 Cl2 1_555 1_555
C1F H1F 1_555 1_555
C2F C1F 1_555 1_555
H2F C2F 1_555 1_555
C3F C2F 1_555 1_555
C4F C3F 1_555 1_555
H3F C4F 1_555 1_555
C5F C4F 1_555 1_555
H4F C5F 1_555 1_555
C6F C3F 1_555 1_555
C7F C6F 1_555 1_555
H5F C7F 1_555 1_555
C8F C7F 1_555 1_555
H6F C8F 1_555 1_555
C9F C8F 1_555 1_555
H7F C9F 1_555 1_555
C10F C9F 1_555 1_555
C11F C6F 1_555 1_555
H8F C11F 1_555 1_555
C12F C10F 1_555 1_555
C13F C14F 1_555 1_555
C14F C15F 1_555 1_555
C15F H9F 1_555 1_555
C16F C15F 1_555 1_555
H10F C16F 1_555 1_555
C17F C16F 1_555 1_555
H11F C17F 1_555 1_555
C18F C17F 1_555 1_555
C19F C14F 1_555 1_555
H12F C19F 1_555 1_555
C20F C18F 1_555 1_555
C21F C20F 1_555 1_555
H13F C21F 1_555 1_555
C22F C21F 1_555 1_555
H14F C22F 1_555 1_555
C23F H15F 1_555 1_555
C24F C20F 1_555 1_555
H16F C24F 1_555 1_555
Cd1B N5 1_555 1_555
Cd1B_2 N6 1_555 1_555
Cd1C N5F 1_555 1_555
Cd1C_2 N6F 1_555 1_555
N1F Cd1 1_555 1_555
N2F C12F 1_555 1_555
N3F C12F 1_555 1_555
N4F N3F 1_555 1_555
H27F N4F 1_555 1_555
H28F N4F 1_555 1_555
N5F C1F 1_555 1_555
N5C Cd1 1_555 1_555
N5D Cd1 1_555 1_555
N6F C22F 1_555 1_555
N6C Cd1 1_555 1_555
N6D Cd1 1_555 1_555
O1F Cl1 1_555 1_555
O2F Cl1 1_555 1_555
O3G Cl2 1_555 1_555
O4G Cl2 1_555 1_555
C5 N5 1_555 1_555
C10 C11 1_555 1_555
C13 N3 1_555 1_555
C18 C19 1_555 1_555
C23 C24 1_555 1_555
C23 N6 1_555 1_555
C29 C30 1_555 1_555
N1 N2 1_555 1_555
C5F N5F 1_555 1_555
C10F C11F 1_555 1_555
C13F N1F 1_555 1_555
C13F N3F 1_555 1_555
C18F C19F 1_555 1_555
C23F C24F 1_555 1_555
C23F N6F 1_555 1_555
N1F N2F 1_555 1_555

#END
