
#######################################################################
#
#                 Cambridge Crystallographic Data Centre
#                                CCDC 
#
#######################################################################
#
# If this CIF has been generated from an entry in the Cambridge 
# Structural Database, then it will include bibliographic, chemical, 
# crystal, experimental, refinement or atomic coordinate data resulting 
# from the CCDC's data processing and validation procedures.
#
#######################################################################

data_WUNXAG
_symmetry_cell_setting           monoclinic
_symmetry_space_group_name_H-M   'P 21/c'
_symmetry_Int_Tables_number      14
_space_group_name_Hall           '-P 2ybc'
loop_
_symmetry_equiv_pos_site_id
_symmetry_equiv_pos_as_xyz
1 x,y,z
2 -x,1/2+y,1/2-z
3 -x,-y,-z
4 x,1/2-y,1/2+z
_cell_length_a                   13.243(3)
_cell_length_b                   12.104(2)
_cell_length_c                   15.767(3)
_cell_angle_alpha                90
_cell_angle_beta                 113.99(3)
_cell_angle_gamma                90
_cell_volume                     2309.02
loop_
_atom_site_label
_atom_site_type_symbol
_atom_site_fract_x
_atom_site_fract_y
_atom_site_fract_z
C1 C 0.3078(7) -0.1584(6) 0.4866(6)
H1 H 0.2956 -0.2088 0.4364
H2 H 0.2431 -0.1557 0.4997
H3 H 0.3697 -0.1831 0.5408
C2 C 0.3311(6) -0.0464(6) 0.4603(5)
C3 C 0.3637(6) 0.0907(6) 0.3864(5)
C4 C 0.3783(7) 0.1619(7) 0.3235(6)
H4 H 0.3678 0.1380 0.2645
C5 C 0.4089(7) 0.2692(8) 0.3511(7)
H5 H 0.4188 0.3177 0.3094
C6 C 0.4255(7) 0.3081(7) 0.4388(7)
H6 H 0.4462 0.3812 0.4546
C7 C 0.4111(6) 0.2383(7) 0.5029(6)
H7 H 0.4210 0.2631 0.5616
C8 C 0.3813(5) 0.1293(6) 0.4754(5)
C9 C 0.3614(6) 0.0385(7) 0.6143(5)
H8 H 0.4091 0.0973 0.6507
H9 H 0.3915 -0.0311 0.6445
C10 C 0.2468(6) 0.0541(6) 0.6119(5)
C11 C 0.1984(7) -0.0304(6) 0.6425(5)
H10 H 0.2369 -0.0959 0.6646
C12 C 0.0935(7) -0.0175(7) 0.6403(6)
H11 H 0.0611 -0.0744 0.6602
C13 C 0.0367(7) 0.0808(7) 0.6084(6)
H12 H -0.0334 0.0894 0.6077
C14 C 0.0816(6) 0.1648(6) 0.5781(5)
C15 C 0.1874(6) 0.1508(6) 0.5802(5)
H13 H 0.2187 0.2080 0.5597
C16 C 0.0876(7) 0.3958(7) 0.7231(6)
H14 H 0.1130 0.4519 0.7701
H15 H 0.0084 0.3918 0.6982
H16 H 0.1183 0.3258 0.7498
C17 C 0.1230(6) 0.4232(6) 0.6481(5)
C18 C 0.1354(6) 0.4192(6) 0.5122(5)
C19 C 0.1273(8) 0.3975(8) 0.4237(6)
H17 H 0.0819 0.3418 0.3873
C20 C 0.1901(10) 0.4627(9) 0.3923(7)
H18 H 0.1865 0.4508 0.3329
C21 C 0.2579(9) 0.5446(8) 0.4457(7)
H19 H 0.2996 0.5864 0.4222
C22 C 0.2648(8) 0.5657(7) 0.5341(6)
H20 H 0.3105 0.6214 0.5701
C23 C 0.2026(6) 0.5024(6) 0.5677(5)
C24 C 0.0168(6) 0.2711(6) 0.5419(7)
H21 H -0.0386 0.2779 0.5671
H22 H -0.0213 0.2665 0.4749
Cl1 Cl 0.12053(16) -0.21266(18) 0.26052(15)
Cl2 Cl 0.39363(16) -0.22132(18) 0.24736(15)
N1 N 0.3313(5) -0.0200(5) 0.3785(4)
N2 N 0.3602(5) 0.0389(5) 0.5205(4)
N3 N 0.1935(5) 0.5031(5) 0.6527(4)
N4 N 0.0863(5) 0.3704(5) 0.5661(5)
Zn1 Zn 0.26394(7) -0.11264(7) 0.25990(6)
N3C N 0.1935(5) -0.0031(5) 0.1527(4)
Zn1C Zn 0.26394(7) 0.61264(7) 0.75990(6)
loop_
_geom_bond_atom_site_label_1
_geom_bond_atom_site_label_2
_geom_bond_site_symmetry_1
_geom_bond_site_symmetry_2
C1 H1 1_555 1_555
H2 C1 1_555 1_555
H3 C1 1_555 1_555
C2 C1 1_555 1_555
C3 C4 1_555 1_555
C4 H4 1_555 1_555
C5 C4 1_555 1_555
H5 C5 1_555 1_555
C6 C5 1_555 1_555
H6 C6 1_555 1_555
C7 C6 1_555 1_555
H7 C7 1_555 1_555
C8 C3 1_555 1_555
C9 H8 1_555 1_555
H9 C9 1_555 1_555
C10 C9 1_555 1_555
C11 C10 1_555 1_555
H10 C11 1_555 1_555
C12 C11 1_555 1_555
H11 C12 1_555 1_555
C13 C12 1_555 1_555
H12 C13 1_555 1_555
C14 C13 1_555 1_555
C15 C10 1_555 1_555
H13 C15 1_555 1_555
C16 H14 1_555 1_555
H15 C16 1_555 1_555
H16 C16 1_555 1_555
C17 C16 1_555 1_555
C18 C19 1_555 1_555
C19 H17 1_555 1_555
C20 C19 1_555 1_555
H18 C20 1_555 1_555
C21 C20 1_555 1_555
H19 C21 1_555 1_555
C22 C21 1_555 1_555
H20 C22 1_555 1_555
C23 C18 1_555 1_555
C24 C14 1_555 1_555
H21 C24 1_555 1_555
H22 C24 1_555 1_555
Cl1 Zn1 1_555 1_555
Cl2 Zn1 1_555 1_555
N1 C2 1_555 1_555
N2 C2 1_555 1_555
N3 C17 1_555 1_555
N4 C17 1_555 1_555
Zn1 N1 1_555 1_555
N3C Zn1 1_555 1_555
Zn1C N3 1_555 1_555
C3 N1 1_555 1_555
C7 C8 1_555 1_555
C8 N2 1_555 1_555
C9 N2 1_555 1_555
C14 C15 1_555 1_555
C18 N4 1_555 1_555
C22 C23 1_555 1_555
C23 N3 1_555 1_555
C24 N4 1_555 1_555

#END
