
#######################################################################
#
#                 Cambridge Crystallographic Data Centre
#                                CCDC 
#
#######################################################################
#
# If this CIF has been generated from an entry in the Cambridge 
# Structural Database, then it will include bibliographic, chemical, 
# crystal, experimental, refinement or atomic coordinate data resulting 
# from the CCDC's data processing and validation procedures.
#
#######################################################################

data_WUPHEU
_symmetry_cell_setting           triclinic
_symmetry_space_group_name_H-M   'P -1'
_symmetry_Int_Tables_number      2
_space_group_name_Hall           '-P 1'
loop_
_symmetry_equiv_pos_site_id
_symmetry_equiv_pos_as_xyz
1 x,y,z
2 -x,-y,-z
_cell_length_a                   7.7090(15)
_cell_length_b                   7.8920(16)
_cell_length_c                   11.496(2)
_cell_angle_alpha                97.95(3)
_cell_angle_beta                 93.35(3)
_cell_angle_gamma                100.60(3)
_cell_volume                     678.336
loop_
_atom_site_label
_atom_site_type_symbol
_atom_site_fract_x
_atom_site_fract_y
_atom_site_fract_z
Zn1 Zn 0.30351(6) 0.33028(5) 0.22877(3)
Cl1 Cl 0.59955(12) 0.42765(12) 0.25434(8)
O2 O 0.2388(3) 0.3075(3) 0.39089(19)
O3 O -0.0420(4) 0.2463(4) 0.3226(2)
O4 O 0.2446(4) 0.0861(3) 0.14779(19)
O5 O 0.2649(4) 0.1709(3) -0.0274(2)
N1 N -0.4137(5) 0.1540(4) 0.6248(3)
N2 N -0.2887(4) 0.2778(4) 0.4903(3)
N3 N 0.2027(4) -0.4878(3) 0.1597(2)
N4 N 0.0291(4) -0.3235(3) 0.0984(2)
C1 C 0.0747(4) 0.2676(4) 0.4028(3)
C2 C 0.0320(5) 0.2543(5) 0.5294(3)
C3 C -0.1588(5) 0.2160(4) 0.5502(3)
C4 C -0.2391(5) 0.1372(4) 0.6349(3)
C5 C -0.4389(5) 0.2396(5) 0.5368(3)
C6 C 0.2461(4) 0.0567(4) 0.0377(3)
C7 C 0.2223(6) -0.1324(4) -0.0209(3)
C8 C 0.1909(4) -0.2703(4) 0.0568(3)
C9 C 0.2963(5) -0.3728(4) 0.0950(3)
C10 C 0.0418(4) -0.4541(4) 0.1600(3)
H1 H -0.473(8) 0.111(7) 0.673(5)
H2 H 0.089(8) 0.167(7) 0.561(5)
H3 H 0.092(6) 0.372(6) 0.575(4)
H4 H -0.201(6) 0.071(5) 0.691(4)
H5 H -0.545(6) 0.262(5) 0.517(4)
H6 H -0.273(6) 0.316(5) 0.431(4)
H7 H 0.138(6) -0.144(6) -0.080(4)
H8 H 0.334(6) -0.140(5) -0.059(4)
H9 H 0.415(6) -0.378(5) 0.079(4)
H10 H -0.047(5) -0.519(5) 0.198(3)
H11 H -0.056(7) -0.281(7) 0.088(5)
N3_2 N 0.2027(4) 0.5122(3) 0.1597(2)
Zn1_2 Zn 0.30351(6) -0.66972(5) 0.22877(3)
O1 O -0.7030(5) 0.0644(5) 0.7354(3)
H12 H -0.722(7) 0.101(6) 0.810(5)
H13 H -0.761(8) -0.021(7) 0.720(5)
loop_
_geom_bond_atom_site_label_1
_geom_bond_atom_site_label_2
_geom_bond_site_symmetry_1
_geom_bond_site_symmetry_2
Zn1 Cl1 1_555 1_555
O1 H12 1_555 1_555
O2 Zn1 1_555 1_555
O3 C1 1_555 1_555
O4 Zn1 1_555 1_555
O5 C6 1_555 1_555
N1 C4 1_555 1_555
N2 C3 1_555 1_555
N3 C9 1_555 1_555
N4 C8 1_555 1_555
C1 O2 1_555 1_555
C2 C1 1_555 1_555
C3 C2 1_555 1_555
C4 C3 1_555 1_555
C5 N1 1_555 1_555
C6 O4 1_555 1_555
C7 C6 1_555 1_555
C8 C7 1_555 1_555
C9 C8 1_555 1_555
C10 N3 1_555 1_555
H1 N1 1_555 1_555
H2 C2 1_555 1_555
H3 C2 1_555 1_555
H4 C4 1_555 1_555
H5 C5 1_555 1_555
H6 N2 1_555 1_555
H7 C7 1_555 1_555
H8 C7 1_555 1_555
H9 C9 1_555 1_555
H10 C10 1_555 1_555
H11 N4 1_555 1_555
H13 O1 1_555 1_555
N3_2 Zn1 1_555 1_555
Zn1_2 N3 1_555 1_555
N2 C5 1_555 1_555
N4 C10 1_555 1_555

#END
