
#######################################################################
#
#                 Cambridge Crystallographic Data Centre
#                                CCDC 
#
#######################################################################
#
# If this CIF has been generated from an entry in the Cambridge 
# Structural Database, then it will include bibliographic, chemical, 
# crystal, experimental, refinement or atomic coordinate data resulting 
# from the CCDC's data processing and validation procedures.
#
#######################################################################

data_WUQGUK
_symmetry_cell_setting           monoclinic
_symmetry_space_group_name_H-M   'P 21/c'
_symmetry_Int_Tables_number      14
_space_group_name_Hall           '-P 2ybc'
loop_
_symmetry_equiv_pos_site_id
_symmetry_equiv_pos_as_xyz
1 x,y,z
2 x,1/2-y,1/2+z
3 -x,-y,-z
4 -x,1/2+y,1/2-z
_cell_length_a                   6.4357(2)
_cell_length_b                   7.2533(3)
_cell_length_c                   19.7258(6)
_cell_angle_alpha                90
_cell_angle_beta                 90.890(2)
_cell_angle_gamma                90
_cell_volume                     920.69
loop_
_atom_site_label
_atom_site_type_symbol
_atom_site_fract_x
_atom_site_fract_y
_atom_site_fract_z
Cd1 Cd 0.19968(9) 0.18562(8) 0.01973(3)
N1 N 0.2805(10) -0.0143(9) 0.1103(3)
H1 H 0.3958 -0.0044 0.0892
H2 H 0.1709 -0.0530 0.0893
O1 O 0.2695(8) 0.4431(8) 0.0781(3)
O2 O 0.0565(8) 0.1805(7) 0.4185(3)
O3 O 0.3978(8) 0.1952(7) 0.4266(3)
C1 C 0.2358(11) 0.1605(9) 0.3916(4)
C2 C 0.2488(10) 0.1093(10) 0.3194(4)
C3 C 0.0738(11) 0.0497(12) 0.2824(4)
H3 H -0.0521 0.0358 0.3043
C4 C 0.0846(11) 0.0115(11) 0.2147(4)
H4 H -0.0331 -0.0295 0.1912
C5 C 0.2709(11) 0.0337(10) 0.1805(4)
C6 C 0.4465(11) 0.0964(11) 0.2153(4)
H5 H 0.5701 0.1153 0.1925
C7 C 0.4356(11) 0.1310(11) 0.2849(4)
H6 H 0.5541 0.1691 0.3085
Br1 Br -0.21845(11) 0.15118(11) 0.05230(4)
O2A O 0.0565(8) 0.3195(7) -0.0815(3)
O3A O 0.3978(8) 0.3048(7) -0.0734(3)
Br1B Br 0.21845(11) -0.15118(11) -0.05230(4)
Cd1A Cd 0.19968(9) 0.31438(8) 0.51973(3)
Cd1B Cd -0.19968(9) -0.18562(8) -0.01973(3)
loop_
_geom_bond_atom_site_label_1
_geom_bond_atom_site_label_2
_geom_bond_site_symmetry_1
_geom_bond_site_symmetry_2
Cd1 N1 1_555 1_555
N1 H1 1_555 1_555
H2 N1 1_555 1_555
O1 Cd1 1_555 1_555
O2 C1 1_555 1_555
O3 C1 1_555 1_555
C1 C2 1_555 1_555
C2 C3 1_555 1_555
C3 H3 1_555 1_555
C4 C3 1_555 1_555
H4 C4 1_555 1_555
C5 N1 1_555 1_555
C6 C5 1_555 1_555
H5 C6 1_555 1_555
C7 C2 1_555 1_555
H6 C7 1_555 1_555
Br1 Cd1 1_555 1_555
O2A Cd1 1_555 1_555
O3A Cd1 1_555 1_555
Br1B Cd1 1_555 1_555
Cd1A O2 1_555 1_555
Cd1B Br1 1_555 1_555
O3 Cd1A 1_555 1_555
C4 C5 1_555 1_555
C6 C7 1_555 1_555
Br1B Cd1B 1_555 1_555

#END
