
#######################################################################
#
#                 Cambridge Crystallographic Data Centre
#                                CCDC 
#
#######################################################################
#
# If this CIF has been generated from an entry in the Cambridge 
# Structural Database, then it will include bibliographic, chemical, 
# crystal, experimental, refinement or atomic coordinate data resulting 
# from the CCDC's data processing and validation procedures.
#
#######################################################################

data_WURMAX
_symmetry_cell_setting           triclinic
_symmetry_space_group_name_H-M   'P -1'
_symmetry_Int_Tables_number      2
_space_group_name_Hall           '-P 1'
loop_
_symmetry_equiv_pos_site_id
_symmetry_equiv_pos_as_xyz
1 x,y,z
2 -x,-y,-z
_cell_length_a                   5.9715(4)
_cell_length_b                   8.0069(5)
_cell_length_c                   11.7082(7)
_cell_angle_alpha                91.3190(10)
_cell_angle_beta                 98.1230(10)
_cell_angle_gamma                92.8550(10)
_cell_volume                     553.246
loop_
_atom_site_label
_atom_site_type_symbol
_atom_site_fract_x
_atom_site_fract_y
_atom_site_fract_z
V1 V 0.38349(6) 0.71262(5) 0.14812(3)
N1 N 0.4556(3) 0.7300(2) 0.3269(2)
Na1 Na 0.9347(2) 0.37364(12) 0.12499(8)
O1 O 0.6613(3) 0.5853(2) 0.18742(13)
C1 C 0.3149(4) 0.8078(3) 0.3882(2)
O2 O 0.1450(3) 0.8521(2) 0.19933(14)
C2 C 0.3499(4) 0.8156(3) 0.5075(2)
H1 H 0.2320(52) 0.8703(40) 0.5485(26)
O3 O 0.9350(3) 0.5017(2) 0.32017(14)
C3 C 0.5409(4) 0.7400(3) 0.5641(2)
O4 O -0.0208(3) 0.9593(2) 0.34268(15)
C4 C 0.6900(4) 0.6615(3) 0.4985(2)
H2 H 0.8114(56) 0.6123(43) 0.5339(27)
O5 O 0.5930(3) 0.7359(3) 0.67828(14)
H3 H 0.5052(61) 0.7842(47) 0.7140(30)
C5 C 0.6371(4) 0.6583(3) 0.3807(2)
C6 C 0.1292(4) 0.8806(3) 0.3072(2)
O6 O 0.4804(3) 0.8454(2) 0.06128(14)
C7 C 0.7602(4) 0.5737(3) 0.2934(2)
O7 O 0.2182(3) 0.5694(2) 0.07380(14)
O8 O 1.1321(4) 0.1594(3) 0.0657(2)
H4 H 1.1292(89) 0.0645(74) 0.0924(46)
H5 H 1.2149(62) 0.1694(47) 0.0236(32)
O9 O 0.7014(3) 0.1479(2) 0.1964(2)
H6 H 0.6335(78) 0.0931(62) 0.1308(40)
H7 H 0.7976(59) 0.0914(44) 0.2225(28)
O7_2 O 1.2182(3) 0.5694(2) 0.07380(14)
O7A O 0.7818(3) 0.4306(2) -0.07380(14)
Na1_2 Na -0.0653(2) 0.37364(12) 0.12499(8)
Na1A Na 0.0653(2) 0.62636(12) -0.12499(8)
loop_
_geom_bond_atom_site_label_1
_geom_bond_atom_site_label_2
_geom_bond_site_symmetry_1
_geom_bond_site_symmetry_2
V1 N1 1_555 1_555
N1 C1 1_555 1_555
Na1 O1 1_555 1_555
O1 V1 1_555 1_555
C1 C2 1_555 1_555
O2 V1 1_555 1_555
C2 H1 1_555 1_555
O3 Na1 1_555 1_555
C3 C2 1_555 1_555
O4 C6 1_555 1_555
C4 C3 1_555 1_555
H2 C4 1_555 1_555
O5 C3 1_555 1_555
H3 O5 1_555 1_555
C5 N1 1_555 1_555
C6 C1 1_555 1_555
O6 V1 1_555 1_555
C7 O1 1_555 1_555
O7 V1 1_555 1_555
O8 Na1 1_555 1_555
H4 O8 1_555 1_555
H5 O8 1_555 1_555
O9 Na1 1_555 1_555
H6 O9 1_555 1_555
H7 O9 1_555 1_555
O7_2 Na1 1_555 1_555
O7A Na1 1_555 1_555
Na1_2 O7 1_555 1_555
Na1A O7 1_555 1_555
O2 C6 1_555 1_555
O3 C7 1_555 1_555
C4 C5 1_555 1_555
C5 C7 1_555 1_555

#END
