
#######################################################################
#
#                 Cambridge Crystallographic Data Centre
#                                CCDC 
#
#######################################################################
#
# If this CIF has been generated from an entry in the Cambridge 
# Structural Database, then it will include bibliographic, chemical, 
# crystal, experimental, refinement or atomic coordinate data resulting 
# from the CCDC's data processing and validation procedures.
#
#######################################################################

data_WURYEO
_symmetry_cell_setting           triclinic
_symmetry_space_group_name_H-M   'P -1'
_symmetry_Int_Tables_number      2
_space_group_name_Hall           '-P 1'
loop_
_symmetry_equiv_pos_site_id
_symmetry_equiv_pos_as_xyz
1 x,y,z
2 -x,-y,-z
_cell_length_a                   6.2983(9)
_cell_length_b                   9.0885(12)
_cell_length_c                   11.6210(14)
_cell_angle_alpha                91.799(5)
_cell_angle_beta                 92.303(6)
_cell_angle_gamma                95.488(6)
_cell_volume                     661.211
loop_
_atom_site_label
_atom_site_type_symbol
_atom_site_fract_x
_atom_site_fract_y
_atom_site_fract_z
P1 P 1.31784(3) 0.71663(2) 0.231320(15)
Na1 Na 0.82389(5) 0.63502(4) 0.14250(3)
Na2 Na 0.78993(6) 0.84633(4) 0.39762(3)
O1 O 0.99072(9) 0.88343(6) 0.21402(5)
O2 O 1.55868(9) 0.73241(6) 0.23895(5)
O3 O 1.44994(9) 0.77683(7) 0.48639(5)
O4 O 1.20439(9) 0.63190(6) 0.12734(5)
O5 O 1.48917(10) 1.05888(7) 0.33719(6)
O6 O 0.98302(9) 0.58821(7) 0.34072(5)
O7 O 1.15985(9) 1.02076(7) 0.40967(5)
C1 C 1.21217(11) 0.61796(8) 0.35976(6)
O8 O 1.13159(11) 0.69115(8) 0.55370(6)
C2 C 1.28831(12) 1.00188(8) 0.33370(7)
C3 C 1.22114(11) 0.90606(8) 0.22448(6)
C4 C 1.26510(12) 0.70338(8) 0.47630(6)
C5 C 1.31673(14) 0.97539(9) 0.11526(7)
C6 C 1.32274(13) 0.47227(9) 0.36521(7)
O10 O 0.66711(10) 0.37463(7) 0.09677(5)
H3 H 1.277(2) 1.0745(18) 0.1051(13)
H4 H 0.533(3) 0.3561(17) 0.0912(13)
H5 H 0.703(3) 0.3626(18) 0.0288(15)
O11 O 0.78852(10) 0.65596(7) -0.06522(5)
H6 H 0.868(2) 0.7100(16) -0.1064(13)
H7 H 0.799(2) 0.5677(18) -0.0905(13)
H8 H 1.292(2) 0.4136(16) 0.2950(12)
H9 H 1.469(2) 0.9804(16) 0.1201(12)
H10 H 1.261(2) 0.9121(16) 0.0484(12)
H11 H 1.471(2) 0.4955(15) 0.3749(12)
H12 H 0.951(2) 0.9645(17) 0.2042(13)
H13 H 1.515(3) 1.124(2) 0.4039(17)
H14 H 1.274(2) 0.4173(15) 0.4311(12)
H15 H 0.949(2) 0.5119(16) 0.3766(12)
Na1_2 Na 1.82389(5) 0.63502(4) 0.14250(3)
Na2_2 Na 1.78993(6) 0.84633(4) 0.39762(3)
Na2A Na 1.21007(6) 1.15367(4) 0.60238(3)
O2_2 O 0.55868(9) 0.73241(6) 0.23895(5)
O3_2 O 0.44994(9) 0.77683(7) 0.48639(5)
O7A O 0.84015(9) 0.97924(7) 0.59033(5)
O9 O 0.08552(10) 0.81636(7) 0.78433(6)
H1 H 0.184(2) 0.7747(16) 0.8165(13)
H2 H 0.092(3) 0.7916(18) 0.7151(15)
loop_
_geom_bond_atom_site_label_1
_geom_bond_atom_site_label_2
_geom_bond_site_symmetry_1
_geom_bond_site_symmetry_2
P1 O2 1_555 1_555
Na1 O1 1_555 1_555
Na2 O1 1_555 1_555
O1 C3 1_555 1_555
O2 Na1_2 1_555 1_555
O3 C4 1_555 1_555
O4 P1 1_555 1_555
O5 C2 1_555 1_555
O6 Na1 1_555 1_555
O7 Na2 1_555 1_555
C1 P1 1_555 1_555
O8 C4 1_555 1_555
C2 O7 1_555 1_555
C3 P1 1_555 1_555
C4 C1 1_555 1_555
C5 C3 1_555 1_555
C6 C1 1_555 1_555
O9 H1 1_555 1_555
H2 O9 1_555 1_555
O10 Na1 1_555 1_555
H3 C5 1_555 1_555
H4 O10 1_555 1_555
H5 O10 1_555 1_555
O11 Na1 1_555 1_555
H6 O11 1_555 1_555
H7 O11 1_555 1_555
H8 C6 1_555 1_555
H9 C5 1_555 1_555
H10 C5 1_555 1_555
H11 C6 1_555 1_555
H12 O1 1_555 1_555
H13 O5 1_555 1_555
H14 C6 1_555 1_555
H15 O6 1_555 1_555
Na2_2 O2 1_555 1_555
Na2A O7 1_555 1_555
O2_2 Na1 1_555 1_555
O3_2 Na2 1_555 1_555
O7A Na2 1_555 1_555
Na1 O4 1_555 1_555
Na2 O2_2 1_555 1_555
O3 Na2_2 1_555 1_555
O6 C1 1_555 1_555
C2 C3 1_555 1_555
Na2A O7A 1_555 1_555

#END
