
#######################################################################
#
#                 Cambridge Crystallographic Data Centre
#                                CCDC 
#
#######################################################################
#
# If this CIF has been generated from an entry in the Cambridge 
# Structural Database, then it will include bibliographic, chemical, 
# crystal, experimental, refinement or atomic coordinate data resulting 
# from the CCDC's data processing and validation procedures.
#
#######################################################################

data_WUSDAQ
_symmetry_cell_setting           triclinic
_symmetry_space_group_name_H-M   'P -1'
_symmetry_Int_Tables_number      2
_space_group_name_Hall           '-P 1'
loop_
_symmetry_equiv_pos_site_id
_symmetry_equiv_pos_as_xyz
1 x,y,z
2 -x,-y,-z
_cell_length_a                   7.6948(2)
_cell_length_b                   8.6781(3)
_cell_length_c                   9.2592(7)
_cell_angle_alpha                73.883(1)
_cell_angle_beta                 75.869(1)
_cell_angle_gamma                67.929(1)
_cell_volume                     543.633
loop_
_atom_site_label
_atom_site_type_symbol
_atom_site_fract_x
_atom_site_fract_y
_atom_site_fract_z
Cd1 Cd 0.30864(3) 0.25329(2) 0.15227(2)
Cu1 Cu 0.35352(5) 0.63269(4) 0.47708(4)
N1 N 0.2181(4) 0.2346(3) -0.0656(3)
N2 N 0.4027(4) 0.3526(4) 0.3084(3)
C1 C 0.4198(4) 0.4331(4) 0.3802(3)
O1 O 0.6251(3) 0.1924(3) 0.0105(3)
O2 O 0.2616(4) 0.5273(3) 0.0031(3)
N3 N 0.3603(4) -0.0244(3) 0.2585(3)
N4 N -0.0022(4) 0.3222(4) 0.2670(3)
C2 C 0.1636(4) 0.2446(4) -0.1718(3)
C3 C 0.0928(5) 0.2483(4) -0.3082(4)
H1 H 0.1440 0.3210 -0.3980
H2 H -0.0475 0.2976 -0.2933
C4 C 0.1532(5) 0.0700(4) -0.3362(4)
H3 H 0.0893 0.0703 -0.4171
H4 H 0.2922 0.0276 -0.3694
O3 O 0.1012(5) -0.0372(3) -0.1971(3)
H5 H 0.0682 -0.1102 -0.2166
C5 C -0.1326(4) 0.3443(3) 0.3628(3)
C6 C 0.3631(4) -0.1548(4) 0.3388(3)
H6 H 0.227(7) 0.563(6) -0.095(3)
H7 H 0.317(6) 0.606(5) 0.007(5)
H8 H 0.651(6) 0.145(5) -0.075(3)
H9 H 0.724(5) 0.123(5) 0.065(4)
Cu1A Cu 0.64648(5) 0.36731(4) 0.52292(4)
Cu1A_2 Cu -0.35352(5) 0.36731(4) 0.52292(4)
Cu1_2 Cu 0.35352(5) -0.36731(4) 0.47708(4)
C1A C 0.5802(4) 0.5669(4) 0.6198(3)
C5A C 0.1326(4) 0.6557(3) 0.6372(3)
C6_2 C 0.3631(4) 0.8452(4) 0.3388(3)
loop_
_geom_bond_atom_site_label_1
_geom_bond_atom_site_label_2
_geom_bond_site_symmetry_1
_geom_bond_site_symmetry_2
Cd1 N1 1_555 1_555
Cu1 C1 1_555 1_555
N1 C2 1_555 1_555
N2 Cd1 1_555 1_555
C1 N2 1_555 1_555
O1 Cd1 1_555 1_555
O2 Cd1 1_555 1_555
N3 Cd1 1_555 1_555
N4 Cd1 1_555 1_555
C2 C3 1_555 1_555
C3 H1 1_555 1_555
H2 C3 1_555 1_555
C4 C3 1_555 1_555
H3 C4 1_555 1_555
H4 C4 1_555 1_555
O3 C4 1_555 1_555
H5 O3 1_555 1_555
C5 N4 1_555 1_555
C6 N3 1_555 1_555
H6 O2 1_555 1_555
H7 O2 1_555 1_555
H8 O1 1_555 1_555
H9 O1 1_555 1_555
Cu1A C1 1_555 1_555
Cu1A_2 C5 1_555 1_555
Cu1_2 C6 1_555 1_555
C1A Cu1 1_555 1_555
C5A Cu1 1_555 1_555
C6_2 Cu1 1_555 1_555
Cu1A C1A 1_555 1_555

#END
