
#######################################################################
#
#                 Cambridge Crystallographic Data Centre
#                                CCDC 
#
#######################################################################
#
# If this CIF has been generated from an entry in the Cambridge 
# Structural Database, then it will include bibliographic, chemical, 
# crystal, experimental, refinement or atomic coordinate data resulting 
# from the CCDC's data processing and validation procedures.
#
#######################################################################

data_WUTGIB
_symmetry_cell_setting           orthorhombic
_symmetry_space_group_name_H-M   'P 21 21 21'
_symmetry_Int_Tables_number      19
_space_group_name_Hall           'P 2ac 2ab'
loop_
_symmetry_equiv_pos_site_id
_symmetry_equiv_pos_as_xyz
1 x,y,z
2 1/2-x,-y,1/2+z
3 -x,1/2+y,1/2-z
4 1/2+x,1/2-y,-z
_cell_length_a                   6.6740(10)
_cell_length_b                   10.3590(10)
_cell_length_c                   19.913(3)
_cell_angle_alpha                90
_cell_angle_beta                 90
_cell_angle_gamma                90
_cell_volume                     1376.7
loop_
_atom_site_label
_atom_site_type_symbol
_atom_site_fract_x
_atom_site_fract_y
_atom_site_fract_z
Mn1 Mn 0.73386(9) -0.00112(5) 0.15918(3)
N1 N 0.7204(6) 0.1667(3) 0.08535(16)
N2 N 0.7436(6) -0.0893(3) 0.05587(17)
C1 C 0.7164(8) 0.2914(4) 0.0993(2)
C2 C 0.7140(9) 0.3868(4) 0.0510(2)
C3 C 0.7084(8) 0.3529(4) -0.0155(2)
C4 C 0.7116(8) 0.2223(4) -0.0327(2)
C5 C 0.7089(9) 0.1790(5) -0.1016(2)
C6 C 0.7135(9) 0.0512(5) -0.1159(2)
C7 C 0.7280(7) -0.0435(4) -0.0639(2)
C8 C 0.7422(10) -0.1766(5) -0.0764(2)
C9 C 0.7597(11) -0.2609(4) -0.0244(3)
C10 C 0.7565(9) -0.2140(4) 0.0413(2)
C11 C 0.7281(6) -0.0038(4) 0.00382(18)
C12 C 0.7198(7) 0.1322(4) 0.0193(2)
S1 S 0.23629(15) -0.01815(9) 0.20559(5)
O1 O 0.4067(4) -0.0324(3) 0.15932(17)
O2 O 0.1854(5) -0.1443(3) 0.23534(17)
O3 O 0.0617(4) 0.0289(3) 0.16866(19)
O4 O 0.2915(5) 0.0726(3) 0.25914(17)
O5 O 0.7980(6) -0.1792(4) 0.2111(2)
O6 O 0.6809(5) 0.1170(3) 0.24559(17)
H1 H 0.722(8) 0.315(4) 0.146(2)
H2 H 0.716(8) 0.474(4) 0.063(2)
H3 H 0.712(8) 0.421(4) -0.051(2)
H4 H 0.689(9) 0.243(4) -0.133(2)
H5 H 0.724(7) 0.015(4) -0.160(2)
H6 H 0.756(9) -0.204(4) -0.124(2)
H7 H 0.761(9) -0.349(4) -0.035(2)
H8 H 0.764(10) -0.272(4) 0.077(2)
H9 H 0.755(11) -0.254(5) 0.220(2)
H10 H 0.896(8) -0.155(6) 0.215(3)
H11 H 0.573(8) 0.124(6) 0.253(3)
H12 H 0.733(10) 0.202(5) 0.253(2)
O3_2 O 1.0617(4) 0.0289(3) 0.16866(19)
Mn1_2 Mn -0.26614(9) -0.00112(5) 0.15918(3)
loop_
_geom_bond_atom_site_label_1
_geom_bond_atom_site_label_2
_geom_bond_site_symmetry_1
_geom_bond_site_symmetry_2
Mn1 N1 1_555 1_555
N1 C1 1_555 1_555
N2 Mn1 1_555 1_555
C1 C2 1_555 1_555
C2 C3 1_555 1_555
C3 C4 1_555 1_555
C4 C5 1_555 1_555
C5 C6 1_555 1_555
C6 C7 1_555 1_555
C7 C8 1_555 1_555
C8 C9 1_555 1_555
C9 C10 1_555 1_555
C10 N2 1_555 1_555
C11 N2 1_555 1_555
C12 N1 1_555 1_555
S1 O1 1_555 1_555
O1 Mn1 1_555 1_555
O2 S1 1_555 1_555
O3 S1 1_555 1_555
O4 S1 1_555 1_555
O5 Mn1 1_555 1_555
O6 Mn1 1_555 1_555
H1 C1 1_555 1_555
H2 C2 1_555 1_555
H3 C3 1_555 1_555
H4 C5 1_555 1_555
H5 C6 1_555 1_555
H6 C8 1_555 1_555
H7 C9 1_555 1_555
H8 C10 1_555 1_555
H9 O5 1_555 1_555
H10 O5 1_555 1_555
H11 O6 1_555 1_555
H12 O6 1_555 1_555
O3_2 Mn1 1_555 1_555
Mn1_2 O3 1_555 1_555
C4 C12 1_555 1_555
C7 C11 1_555 1_555
C11 C12 1_555 1_555

#END
