
#######################################################################
#
#                 Cambridge Crystallographic Data Centre
#                                CCDC 
#
#######################################################################
#
# If this CIF has been generated from an entry in the Cambridge 
# Structural Database, then it will include bibliographic, chemical, 
# crystal, experimental, refinement or atomic coordinate data resulting 
# from the CCDC's data processing and validation procedures.
#
#######################################################################

data_WUTTIP
_symmetry_cell_setting           orthorhombic
_symmetry_space_group_name_H-M   'P n n a'
_symmetry_Int_Tables_number      52
_space_group_name_Hall           '-P 2a 2bc'
loop_
_symmetry_equiv_pos_site_id
_symmetry_equiv_pos_as_xyz
1 x,y,z
2 1/2-x,-y,z
3 x,1/2-y,1/2-z
4 1/2-x,1/2+y,1/2-z
5 -x,-y,-z
6 1/2+x,y,-z
7 -x,1/2+y,1/2+z
8 1/2+x,1/2-y,1/2+z
_cell_length_a                   17.5001(3)
_cell_length_b                   16.5072(2)
_cell_length_c                   22.3439(3)
_cell_angle_alpha                90
_cell_angle_beta                 90
_cell_angle_gamma                90
_cell_volume                     6454.65
loop_
_atom_site_label
_atom_site_type_symbol
_atom_site_fract_x
_atom_site_fract_y
_atom_site_fract_z
S1 S 0.09296(17) 0.2500 0.7500
O3 O 0.1381(10) 0.2828(8) 0.7103(3)
O4 O 0.0570(5) 0.1858(6) 0.7266(9)
O3B O 0.1381(10) 0.2172(8) 0.7897(3)
O4B O 0.0570(5) 0.3142(6) 0.7734(9)
O5 O -0.0867(5) 0.3504(5) 0.8005(4)
C29 C -0.1299(7) 0.3077(7) 0.8472(9)
O6 O 0.0654(3) 0.4752(3) 0.7174(2)
C30 C 0.0435(5) 0.5147(5) 0.7712(3)
O7 O 0.0718(5) 0.5885(4) 0.6308(3)
C31 C -0.0083(6) 0.6277(8) 0.6360(5)
N1 N 0.7500 0.5000 0.1288(3)
C1 C 0.7683(3) 0.5662(3) 0.1605(2)
H1 H 0.7807 0.6142 0.1392
C2 C 0.7701(3) 0.5688(3) 0.2218(2)
H2 H 0.7849 0.6171 0.2418
C3 C 0.7500 0.5000 0.2547(3)
C4 C 0.7500 0.5000 0.3217(3)
C5 C 0.7769(3) 0.5667(3) 0.3532(2)
H3 H 0.7957 0.6129 0.3326
N2 N 0.7500 0.5000 0.4450(2)
C6 C 0.7758(3) 0.5651(3) 0.4153(2)
C7 C 0.8002(3) 0.6319(3) 0.4549(2)
C8 C 0.8270(3) 0.7048(3) 0.4349(2)
H4 H 0.8317 0.7152 0.3932
C9 C 0.8472(3) 0.7630(3) 0.4766(3)
H5 H 0.8661 0.8140 0.4636
C10 C 0.8401(3) 0.7474(3) 0.5372(3)
H6 H 0.8525 0.7871 0.5664
C11 C 0.8144(3) 0.6721(3) 0.5533(2)
H7 H 0.8108 0.6603 0.5948
N3 N 0.7942(2) 0.6146(2) 0.51493(18)
N4 N 0.7500 0.5000 0.6224(2)
N5 N 0.8595(2) 0.4498(2) 0.55270(18)
C12 C 0.9127(3) 0.4248(3) 0.5146(2)
H8 H 0.9054 0.4339 0.4730
C13 C 0.9786(3) 0.3858(4) 0.5337(3)
H9 H 1.0159 0.3687 0.5054
C14 C 0.9894(3) 0.3722(4) 0.5938(3)
H10 H 1.0339 0.3447 0.6073
C15 C 0.9358(3) 0.3985(4) 0.6343(3)
H11 H 0.9426 0.3900 0.6761
C16 C 0.8715(3) 0.4375(3) 0.6127(2)
C17 C 0.8102(3) 0.4694(3) 0.6522(2)
C18 C 0.8132(3) 0.4688(3) 0.7145(2)
H12 H 0.8564 0.4480 0.7351
C19 C 0.7500 0.5000 0.7457(3)
C20 C 0.7500 0.5000 0.8111(3)
C21 C 0.8105(3) 0.5331(3) 0.8429(2)
H13 H 0.8526 0.5568 0.8226
C22 C 0.8084(3) 0.5308(3) 0.9052(2)
H14 H 0.8506 0.5522 0.9267
N6 N 0.7500 0.5000 0.9364(2)
Co1 Co 0.7500 0.5000 0.03213(4)
Ni1 Ni 0.7500 0.5000 0.53313(4)
O1 O 0.86087(19) 0.54037(19) 0.03597(13)
O2 O 0.79490(19) 0.38599(19) 0.03165(14)
C23 C 0.9828(3) 0.5549(3) 0.0772(3)
H15 H 0.9956 0.5917 0.0443
H16 H 1.0265 0.5197 0.0857
H17 H 0.9702 0.5866 0.1130
C24 C 0.9157(3) 0.5044(3) 0.0600(2)
C25 C 0.9165(3) 0.4200(3) 0.0705(2)
C26 C 0.8576(3) 0.3647(3) 0.0517(2)
C27 C 0.8720(4) 0.2757(3) 0.0570(3)
H18 H 0.8758 0.2609 0.0993
H19 H 0.9198 0.2621 0.0366
H20 H 0.8297 0.2459 0.0384
C28 C 0.9820(3) 0.3839(3) 0.0988(3)
N7 N 1.0339(3) 0.3560(3) 0.1213(2)
C1A C 0.7317(3) 0.4338(3) 0.1605(2)
H1A H 0.7193 0.3858 0.1392
C2A C 0.7299(3) 0.4312(3) 0.2218(2)
H2A H 0.7151 0.3829 0.2418
C5A C 0.7231(3) 0.4333(3) 0.3532(2)
H3A H 0.7043 0.3871 0.3326
C6A C 0.7242(3) 0.4349(3) 0.4153(2)
C7A C 0.6998(3) 0.3681(3) 0.4549(2)
C8A C 0.6730(3) 0.2952(3) 0.4349(2)
H4A H 0.6683 0.2848 0.3932
C9A C 0.6528(3) 0.2370(3) 0.4766(3)
H5A H 0.6339 0.1860 0.4636
C10A C 0.6599(3) 0.2526(3) 0.5372(3)
H6A H 0.6475 0.2129 0.5664
C11A C 0.6856(3) 0.3279(3) 0.5533(2)
H7A H 0.6892 0.3397 0.5948
N3A N 0.7058(2) 0.3854(2) 0.51493(18)
N5A N 0.6405(2) 0.5502(2) 0.55270(18)
C12A C 0.5873(3) 0.5752(3) 0.5146(2)
H8A H 0.5946 0.5661 0.4730
C13A C 0.5214(3) 0.6142(4) 0.5337(3)
H9A H 0.4841 0.6313 0.5054
C14A C 0.5106(3) 0.6278(4) 0.5938(3)
H10A H 0.4661 0.6553 0.6073
C15A C 0.5642(3) 0.6015(4) 0.6343(3)
H11A H 0.5574 0.6100 0.6761
C16A C 0.6285(3) 0.5625(3) 0.6127(2)
C17A C 0.6898(3) 0.5306(3) 0.6522(2)
C18A C 0.6868(3) 0.5312(3) 0.7145(2)
H12A H 0.6436 0.5520 0.7351
C21A C 0.6895(3) 0.4669(3) 0.8429(2)
H13A H 0.6474 0.4432 0.8226
C22A C 0.6916(3) 0.4692(3) 0.9052(2)
H14A H 0.6494 0.4478 0.9267
N6_2 N 0.7500 0.5000 -0.0636(2)
Co1_2 Co 0.7500 0.5000 1.03213(4)
O1A O 0.63913(19) 0.45963(19) 0.03597(13)
O2A O 0.70510(19) 0.61401(19) 0.03165(14)
C23A C 0.5172(3) 0.4451(3) 0.0772(3)
H15A H 0.5044 0.4083 0.0443
H16A H 0.4735 0.4803 0.0857
H17A H 0.5298 0.4134 0.1130
C24A C 0.5843(3) 0.4956(3) 0.0600(2)
C25A C 0.5835(3) 0.5800(3) 0.0705(2)
C26A C 0.6424(3) 0.6353(3) 0.0517(2)
C27A C 0.6280(4) 0.7243(3) 0.0570(3)
H18A H 0.6242 0.7391 0.0993
H19A H 0.5802 0.7379 0.0366
H20A H 0.6703 0.7541 0.0384
C28A C 0.5180(3) 0.6161(3) 0.0988(3)
N7A N 0.4661(3) 0.6440(3) 0.1213(2)
loop_
_geom_bond_atom_site_label_1
_geom_bond_atom_site_label_2
_geom_bond_site_symmetry_1
_geom_bond_site_symmetry_2
N1 C1 1_555 1_555
C1 H1 1_555 1_555
C2 C1 1_555 1_555
H2 C2 1_555 1_555
C3 C2 1_555 1_555
C4 C3 1_555 1_555
C5 C4 1_555 1_555
H3 C5 1_555 1_555
N2 C6 1_555 1_555
C6 C5 1_555 1_555
C7 C6 1_555 1_555
C8 C7 1_555 1_555
H4 C8 1_555 1_555
C9 C8 1_555 1_555
H5 C9 1_555 1_555
C10 C9 1_555 1_555
H6 C10 1_555 1_555
C11 C10 1_555 1_555
H7 C11 1_555 1_555
N3 C7 1_555 1_555
N4 C17 1_555 1_555
N5 C12 1_555 1_555
C12 H8 1_555 1_555
C13 C12 1_555 1_555
H9 C13 1_555 1_555
C14 C13 1_555 1_555
H10 C14 1_555 1_555
C15 C14 1_555 1_555
H11 C15 1_555 1_555
C16 N5 1_555 1_555
C17 C16 1_555 1_555
C18 C17 1_555 1_555
H12 C18 1_555 1_555
C19 C18 1_555 1_555
C20 C19 1_555 1_555
C21 C20 1_555 1_555
H13 C21 1_555 1_555
C22 C21 1_555 1_555
H14 C22 1_555 1_555
N6 C22 1_555 1_555
Co1 N1 1_555 1_555
Ni1 N2 1_555 1_555
O1 Co1 1_555 1_555
O2 Co1 1_555 1_555
C23 H15 1_555 1_555
H16 C23 1_555 1_555
H17 C23 1_555 1_555
C24 O1 1_555 1_555
C25 C24 1_555 1_555
C26 O2 1_555 1_555
C27 C26 1_555 1_555
H18 C27 1_555 1_555
H19 C27 1_555 1_555
H20 C27 1_555 1_555
C28 C25 1_555 1_555
N7 C28 1_555 1_555
S1 O3 1_555 1_555
O4 S1 1_555 1_555
O5 C29 1_555 1_555
O6 C30 1_555 1_555
O7 C31 1_555 1_555
C1A N1 1_555 1_555
H1A C1A 1_555 1_555
C2A C3 1_555 1_555
H2A C2A 1_555 1_555
C5A C4 1_555 1_555
H3A C5A 1_555 1_555
C6A N2 1_555 1_555
C7A C6A 1_555 1_555
C8A C7A 1_555 1_555
H4A C8A 1_555 1_555
C9A C8A 1_555 1_555
H5A C9A 1_555 1_555
C10A C9A 1_555 1_555
H6A C10A 1_555 1_555
C11A C10A 1_555 1_555
H7A C11A 1_555 1_555
N3A Ni1 1_555 1_555
N5A Ni1 1_555 1_555
C12A N5A 1_555 1_555
H8A C12A 1_555 1_555
C13A C12A 1_555 1_555
H9A C13A 1_555 1_555
C14A C13A 1_555 1_555
H10A C14A 1_555 1_555
C15A C14A 1_555 1_555
H11A C15A 1_555 1_555
C16A N5A 1_555 1_555
C17A N4 1_555 1_555
C18A C19 1_555 1_555
H12A C18A 1_555 1_555
C21A C20 1_555 1_555
H13A C21A 1_555 1_555
C22A N6 1_555 1_555
H14A C22A 1_555 1_555
N6_2 Co1 1_555 1_555
Co1_2 N6 1_555 1_555
O1A Co1 1_555 1_555
O2A Co1 1_555 1_555
C23A H15A 1_555 1_555
H16A C23A 1_555 1_555
H17A C23A 1_555 1_555
C24A O1A 1_555 1_555
C25A C24A 1_555 1_555
C26A O2A 1_555 1_555
C27A C26A 1_555 1_555
H18A C27A 1_555 1_555
H19A C27A 1_555 1_555
H20A C27A 1_555 1_555
C28A C25A 1_555 1_555
N7A C28A 1_555 1_555
O3B S1 1_555 1_555
O4B S1 1_555 1_555
C11 N3 1_555 1_555
N3 Ni1 1_555 1_555
N4 Ni1 1_555 1_555
N5 Ni1 1_555 1_555
C15 C16 1_555 1_555
C23 C24 1_555 1_555
C25 C26 1_555 1_555
C1A C2A 1_555 1_555
C5A C6A 1_555 1_555
C7A N3A 1_555 1_555
C11A N3A 1_555 1_555
C15A C16A 1_555 1_555
C16A C17A 1_555 1_555
C17A C18A 1_555 1_555
C21A C22A 1_555 1_555
C23A C24A 1_555 1_555
C25A C26A 1_555 1_555

#END
