
#######################################################################
#
#                 Cambridge Crystallographic Data Centre
#                                CCDC 
#
#######################################################################
#
# If this CIF has been generated from an entry in the Cambridge 
# Structural Database, then it will include bibliographic, chemical, 
# crystal, experimental, refinement or atomic coordinate data resulting 
# from the CCDC's data processing and validation procedures.
#
#######################################################################

data_WUTTAG
_symmetry_cell_setting           monoclinic
_symmetry_space_group_name_H-M   'P 21/n'
_symmetry_Int_Tables_number      14
_space_group_name_Hall           '-P 2yn'
loop_
_symmetry_equiv_pos_site_id
_symmetry_equiv_pos_as_xyz
1 x,y,z
2 1/2-x,1/2+y,1/2-z
3 -x,-y,-z
4 1/2+x,1/2-y,1/2+z
_cell_length_a                   10.8450(2)
_cell_length_b                   12.5101(4)
_cell_length_c                   17.6909(5)
_cell_angle_alpha                90
_cell_angle_beta                 99.1926(17)
_cell_angle_gamma                90
_cell_volume                     2369.33
loop_
_atom_site_label
_atom_site_type_symbol
_atom_site_fract_x
_atom_site_fract_y
_atom_site_fract_z
Mn1 Mn -0.00408(3) 0.03204(3) 0.25535(2)
F1 F -0.14990(18) -0.2135(2) 0.42531(14)
F2 F 0.0238(2) -0.28708(15) 0.41660(15)
F3 F 0.0016(2) -0.20104(19) 0.51540(11)
F4 F 0.30148(18) 0.18003(16) 0.44873(13)
F5 F 0.40466(15) 0.04650(17) 0.41769(11)
F6 F 0.32893(19) 0.04191(19) 0.52181(11)
F7 F -0.3020(3) 0.0034(3) -0.02110(14)
F8 F -0.39616(19) 0.0268(2) 0.07531(17)
F9 F -0.3034(2) -0.11673(17) 0.06244(13)
F10 F 0.20316(17) 0.2093(2) 0.07747(12)
F11 F 0.0523(2) 0.2132(2) -0.01617(12)
F12 F 0.0569(3) 0.32174(18) 0.07590(19)
O1 O -0.05102(17) -0.07792(15) 0.33957(11)
O2 O 0.15494(17) 0.06934(16) 0.34012(11)
O3 O -0.16358(17) 0.00471(17) 0.16822(11)
O4 O 0.05661(17) 0.13730(15) 0.17275(11)
O5 O -0.10548(17) 0.16259(15) 0.29829(12)
O6 O 0.09488(18) 0.90210(16) 0.20834(13)
N1 N -0.0759(2) 0.26268(17) 0.28355(13)
N2 N 0.0674(2) 0.80009(18) 0.21880(14)
C1 C 0.0156(2) -0.1016(2) 0.40174(15)
C2 C 0.1261(2) -0.0549(2) 0.43724(15)
H1 H 0.1626 -0.0799 0.4865
C3 C 0.1856(2) 0.0267(2) 0.40401(15)
C4 C -0.0288(3) -0.2010(2) 0.44041(17)
C5 C 0.3063(3) 0.0730(3) 0.44901(17)
C6 C -0.1757(2) 0.0329(2) 0.10010(16)
C7 C -0.0985(3) 0.0988(2) 0.06446(16)
H2 H -0.1206 0.1121 0.0111
C8 C 0.0095(2) 0.1458(2) 0.10350(16)
C9 C -0.2947(3) -0.0123(3) 0.05167(19)
C10 C 0.0814(3) 0.2225(3) 0.0592(2)
C11 C 0.0321(3) 0.3056(2) 0.31981(17)
H3 H 0.0871 0.2639 0.3553
C12 C 0.0622(2) 0.4094(2) 0.30541(16)
H4 H 0.1392 0.4381 0.3304
C13 C -0.0172(2) 0.4736(2) 0.25527(14)
C14 C -0.1264(2) 0.4257(2) 0.21895(16)
H5 H -0.1830 0.4660 0.1835
C15 C -0.1541(2) 0.3212(2) 0.23332(17)
H6 H -0.2291 0.2901 0.2075
C16 C 0.0122(2) 0.5868(2) 0.24225(14)
C17 C 0.1327(2) 0.6274(2) 0.26126(17)
H7 H 0.1985 0.5811 0.2829
C18 C 0.1584(2) 0.7325(2) 0.24945(17)
H8 H 0.2414 0.7581 0.2630
C19 C -0.0506(3) 0.7636(2) 0.19878(18)
H9 H -0.1143 0.8113 0.1764
C20 C -0.0798(2) 0.6588(2) 0.21033(17)
H10 H -0.1635 0.6350 0.1964
O6_2 O 0.09488(18) -0.09790(16) 0.20834(13)
Mn1_2 Mn -0.00408(3) 1.03204(3) 0.25535(2)
loop_
_geom_bond_atom_site_label_1
_geom_bond_atom_site_label_2
_geom_bond_site_symmetry_1
_geom_bond_site_symmetry_2
Mn1 O1 1_555 1_555
F1 C4 1_555 1_555
F2 C4 1_555 1_555
F3 C4 1_555 1_555
F4 C5 1_555 1_555
F5 C5 1_555 1_555
F6 C5 1_555 1_555
F7 C9 1_555 1_555
F8 C9 1_555 1_555
F9 C9 1_555 1_555
F10 C10 1_555 1_555
F11 C10 1_555 1_555
F12 C10 1_555 1_555
O1 C1 1_555 1_555
O2 Mn1 1_555 1_555
O3 Mn1 1_555 1_555
O4 Mn1 1_555 1_555
O5 Mn1 1_555 1_555
O6 N2 1_555 1_555
N1 O5 1_555 1_555
N2 C18 1_555 1_555
C1 C2 1_555 1_555
C2 H1 1_555 1_555
C3 O2 1_555 1_555
C4 C1 1_555 1_555
C5 C3 1_555 1_555
C6 O3 1_555 1_555
C7 C6 1_555 1_555
H2 C7 1_555 1_555
C8 O4 1_555 1_555
C9 C6 1_555 1_555
C10 C8 1_555 1_555
C11 N1 1_555 1_555
H3 C11 1_555 1_555
C12 C11 1_555 1_555
H4 C12 1_555 1_555
C13 C12 1_555 1_555
C14 C13 1_555 1_555
H5 C14 1_555 1_555
C15 N1 1_555 1_555
H6 C15 1_555 1_555
C16 C13 1_555 1_555
C17 C16 1_555 1_555
H7 C17 1_555 1_555
C18 C17 1_555 1_555
H8 C18 1_555 1_555
C19 N2 1_555 1_555
H9 C19 1_555 1_555
C20 C16 1_555 1_555
H10 C20 1_555 1_555
O6_2 Mn1 1_555 1_555
Mn1_2 O6 1_555 1_555
C2 C3 1_555 1_555
C7 C8 1_555 1_555
C14 C15 1_555 1_555
C19 C20 1_555 1_555

#END
