
#######################################################################
#
#                 Cambridge Crystallographic Data Centre
#                                CCDC 
#
#######################################################################
#
# If this CIF has been generated from an entry in the Cambridge 
# Structural Database, then it will include bibliographic, chemical, 
# crystal, experimental, refinement or atomic coordinate data resulting 
# from the CCDC's data processing and validation procedures.
#
#######################################################################

data_WUTTEK
_symmetry_cell_setting           monoclinic
_symmetry_space_group_name_H-M   'P 21/n'
_symmetry_Int_Tables_number      14
_space_group_name_Hall           '-P 2yn'
loop_
_symmetry_equiv_pos_site_id
_symmetry_equiv_pos_as_xyz
1 x,y,z
2 1/2-x,1/2+y,1/2-z
3 -x,-y,-z
4 1/2+x,1/2-y,1/2+z
_cell_length_a                   10.9491(1)
_cell_length_b                   12.4011(3)
_cell_length_c                   17.4241(4)
_cell_angle_alpha                90
_cell_angle_beta                 100.3894(13)
_cell_angle_gamma                90
_cell_volume                     2327.07
loop_
_atom_site_label
_atom_site_type_symbol
_atom_site_fract_x
_atom_site_fract_y
_atom_site_fract_z
Zn1 Zn -0.00240(2) 0.02789(2) 0.255930(15)
F1 F -0.15347(16) -0.2135(2) 0.42182(13)
F2 F 0.0204(2) -0.28929(15) 0.41846(14)
F3 F -0.0043(2) -0.19829(17) 0.51620(10)
F4 F 0.30134(16) 0.17607(14) 0.44921(12)
F5 F 0.40357(14) 0.04133(16) 0.41785(11)
F6 F 0.32964(18) 0.03547(18) 0.52302(10)
F7 F -0.3139(2) 0.0055(2) -0.01800(12)
F8 F -0.39679(16) 0.02008(18) 0.08354(14)
F9 F -0.30252(17) -0.12332(14) 0.06417(11)
F10 F 0.19847(16) 0.1981(2) 0.07707(12)
F11 F 0.04382(18) 0.2057(2) -0.01641(11)
F12 F 0.0581(3) 0.31506(16) 0.07783(16)
O1 O -0.05352(15) -0.07946(13) 0.33520(10)
O2 O 0.15647(15) 0.06334(14) 0.33617(10)
O3 O -0.16215(15) -0.00012(15) 0.17432(10)
O4 O 0.05813(15) 0.12983(14) 0.17669(10)
O5 O -0.09719(16) 0.15379(14) 0.30101(11)
O6 O 0.09040(16) 0.90162(14) 0.20736(12)
N1 N -0.06897(17) 0.25507(15) 0.28529(12)
N2 N 0.06402(18) 0.79848(16) 0.21873(12)
C1 C 0.0129(2) -0.10336(18) 0.39923(13)
C2 C 0.1245(2) -0.0581(2) 0.43613(14)
H1 H 0.1604 -0.0830 0.4867
C3 C 0.1853(2) 0.02171(18) 0.40211(14)
C4 C -0.0334(2) -0.2011(2) 0.43964(15)
C5 C 0.3063(2) 0.0677(2) 0.44935(15)
C6 C -0.1776(2) 0.02839(18) 0.10482(14)
C7 C -0.1024(2) 0.0932(2) 0.06754(14)
H2 H -0.1270 0.1067 0.0133
C8 C 0.0074(2) 0.13893(18) 0.10657(14)
C9 C -0.2984(2) -0.0166(2) 0.05658(16)
C10 C 0.0776(2) 0.2145(2) 0.06013(17)
C11 C 0.0408(2) 0.29791(19) 0.31890(15)
H3 H 0.0990 0.2552 0.3530
C12 C 0.0693(2) 0.40311(19) 0.30409(15)
H4 H 0.1477 0.4319 0.3274
C13 C -0.01535(19) 0.46794(17) 0.25541(12)
C14 C -0.1267(2) 0.4204(2) 0.22165(15)
H5 H -0.1866 0.4615 0.1875
C15 C -0.1516(2) 0.3147(2) 0.23687(15)
H6 H -0.2282 0.2834 0.2128
C16 C 0.01260(19) 0.58224(18) 0.24203(13)
C17 C 0.1323(2) 0.6239(2) 0.26084(15)
H7 H 0.1989 0.5775 0.2823
C18 C 0.1560(2) 0.7306(2) 0.24890(16)
H8 H 0.2386 0.7570 0.2621
C19 C -0.0536(2) 0.7609(2) 0.19880(16)
H9 H -0.1181 0.8086 0.1763
C20 C -0.0808(2) 0.65503(19) 0.21069(15)
H10 H -0.1642 0.6307 0.1975
O6_2 O 0.09040(16) -0.09838(14) 0.20736(12)
Zn1_2 Zn -0.00240(2) 1.02789(2) 0.255930(15)
loop_
_geom_bond_atom_site_label_1
_geom_bond_atom_site_label_2
_geom_bond_site_symmetry_1
_geom_bond_site_symmetry_2
Zn1 O1 1_555 1_555
F1 C4 1_555 1_555
F2 C4 1_555 1_555
F3 C4 1_555 1_555
F4 C5 1_555 1_555
F5 C5 1_555 1_555
F6 C5 1_555 1_555
F7 C9 1_555 1_555
F8 C9 1_555 1_555
F9 C9 1_555 1_555
F10 C10 1_555 1_555
F11 C10 1_555 1_555
F12 C10 1_555 1_555
O1 C1 1_555 1_555
O2 Zn1 1_555 1_555
O3 Zn1 1_555 1_555
O4 Zn1 1_555 1_555
O5 Zn1 1_555 1_555
O6 N2 1_555 1_555
N1 O5 1_555 1_555
N2 C18 1_555 1_555
C1 C2 1_555 1_555
C2 H1 1_555 1_555
C3 O2 1_555 1_555
C4 C1 1_555 1_555
C5 C3 1_555 1_555
C6 O3 1_555 1_555
C7 C6 1_555 1_555
H2 C7 1_555 1_555
C8 O4 1_555 1_555
C9 C6 1_555 1_555
C10 C8 1_555 1_555
C11 N1 1_555 1_555
H3 C11 1_555 1_555
C12 C11 1_555 1_555
H4 C12 1_555 1_555
C13 C12 1_555 1_555
C14 C13 1_555 1_555
H5 C14 1_555 1_555
C15 N1 1_555 1_555
H6 C15 1_555 1_555
C16 C13 1_555 1_555
C17 C16 1_555 1_555
H7 C17 1_555 1_555
C18 C17 1_555 1_555
H8 C18 1_555 1_555
C19 N2 1_555 1_555
H9 C19 1_555 1_555
C20 C16 1_555 1_555
H10 C20 1_555 1_555
O6_2 Zn1 1_555 1_555
Zn1_2 O6 1_555 1_555
C2 C3 1_555 1_555
C7 C8 1_555 1_555
C14 C15 1_555 1_555
C19 C20 1_555 1_555

#END
