
#######################################################################
#
#                 Cambridge Crystallographic Data Centre
#                                CCDC 
#
#######################################################################
#
# If this CIF has been generated from an entry in the Cambridge 
# Structural Database, then it will include bibliographic, chemical, 
# crystal, experimental, refinement or atomic coordinate data resulting 
# from the CCDC's data processing and validation procedures.
#
#######################################################################

data_WUVMAB05
_symmetry_cell_setting           monoclinic
_symmetry_space_group_name_H-M   'P 21/c'
_symmetry_Int_Tables_number      14
_space_group_name_Hall           '-P 2ybc'
loop_
_symmetry_equiv_pos_site_id
_symmetry_equiv_pos_as_xyz
1 x,y,z
2 -x,1/2+y,1/2-z
3 -x,-y,-z
4 x,1/2-y,1/2+z
_cell_length_a                   9.6012(3)
_cell_length_b                   9.6449(3)
_cell_length_c                   12.5630(4)
_cell_angle_alpha                90
_cell_angle_beta                 97.0400(10)
_cell_angle_gamma                90
_cell_volume                     1154.6
loop_
_atom_site_label
_atom_site_type_symbol
_atom_site_fract_x
_atom_site_fract_y
_atom_site_fract_z
Mn1 Mn 0.5000 0.0000 0.0000
Mn2 Mn 0.623540(18) 0.207933(16) -0.166759(13)
Mn3 Mn 0.675132(18) -0.181184(16) -0.153666(13)
O1 O 0.55093(8) 0.00371(7) -0.16012(6)
O2 O 0.63422(9) -0.25638(9) 0.17561(7)
O3 O 1.16055(10) -0.15595(10) 0.16157(9)
O4 O 0.65414(11) 0.42578(9) -0.16363(8)
O5 O 0.75907(12) 0.62367(9) -0.11048(9)
O6 O 0.55299(10) 0.27219(9) 0.16076(7)
O7 O 0.63056(10) 0.19477(8) 0.01187(7)
O8 O 0.66870(9) -0.14564(9) 0.02605(6)
O9 O 1.13545(10) 0.07456(10) 0.15459(9)
C1 C 0.73716(12) 0.49709(10) -0.09923(9)
C2 C 0.7177(2) 0.41201(17) 0.08688(11)
H1 H 0.7760 0.4152 0.1556
H2 H 0.6562 0.4920 0.0835
C3 C 0.62819(12) 0.28434(11) 0.08488(8)
C4 C 0.81365(13) 0.42763(13) -0.00111(10)
H3 H 0.8951 0.4824 0.0258
H4 H 0.8460 0.3369 -0.0206
C5 C 0.71491(11) -0.20418(10) 0.11424(8)
C6 C 0.87245(12) -0.20556(13) 0.14182(11)
H5 H 0.9144 -0.2591 0.0887
H6 H 0.8970 -0.2492 0.2111
C7 C 0.92949(13) -0.05852(13) 0.14489(13)
H7 H 0.8898 -0.0110 0.0802
H8 H 0.8974 -0.0106 0.2053
C8 C 1.08806(12) -0.04681(12) 0.15409(9)
Mn2B Mn 0.376460(18) -0.207933(16) 0.166759(13)
Mn3B Mn 0.324868(18) 0.181184(16) 0.153666(13)
O1B O 0.44907(8) -0.00371(7) 0.16012(6)
O2B O 0.36578(9) 0.25638(9) -0.17561(7)
O3B O -0.16055(10) 0.15595(10) -0.16157(9)
O4B O 0.34586(11) -0.42578(9) 0.16363(8)
O5B O 0.24093(12) -0.62367(9) 0.11048(9)
O6B O 0.44701(10) -0.27219(9) -0.16076(7)
O7B O 0.36944(10) -0.19477(8) -0.01187(7)
O8B O 0.33130(9) 0.14564(9) -0.02605(6)
O9B O -0.13545(10) -0.07456(10) -0.15459(9)
C1B C 0.26284(12) -0.49709(10) 0.09923(9)
C2B C 0.2823(2) -0.41201(17) -0.08688(11)
H1B H 0.2240 -0.4152 -0.1556
H2B H 0.3438 -0.4920 -0.0835
C3B C 0.37181(12) -0.28434(11) -0.08488(8)
C4B C 0.18635(13) -0.42763(13) 0.00111(10)
H3B H 0.1049 -0.4824 -0.0258
H4B H 0.1540 -0.3369 0.0206
C5B C 0.28509(11) 0.20418(10) -0.11424(8)
C6B C 0.12755(12) 0.20556(13) -0.14182(11)
H5B H 0.0856 0.2591 -0.0887
H6B H 0.1030 0.2492 -0.2111
C7B C 0.07051(13) 0.05852(13) -0.14489(13)
H7B H 0.1102 0.0110 -0.0802
H8B H 0.1026 0.0106 -0.2053
C8B C -0.08806(12) 0.04681(12) -0.15409(9)
Mn2_2 Mn -0.376460(18) 0.207933(16) -0.166759(13)
Mn2A Mn 0.376460(18) -0.292067(16) -0.333241(13)
Mn2B_2 Mn 1.376460(18) -0.207933(16) 0.166759(13)
Mn2C Mn 0.623540(18) 0.292067(16) 0.333241(13)
Mn3_2 Mn -0.324868(18) -0.181184(16) -0.153666(13)
Mn3_3 Mn 0.675132(18) 0.818816(16) -0.153666(13)
Mn3A Mn 0.324868(18) 0.318816(16) -0.346334(13)
Mn3B_2 Mn 0.324868(18) -0.818816(16) 0.153666(13)
Mn3B_3 Mn 1.324868(18) 0.181184(16) 0.153666(13)
Mn3C Mn 0.675132(18) -0.318816(16) 0.346334(13)
O2A O 0.36578(9) 0.24362(9) 0.32439(7)
O2C O 0.63422(9) -0.24362(9) -0.32439(7)
O3_2 O 0.16055(10) -0.15595(10) 0.16157(9)
O3B_2 O 0.83945(10) 0.15595(10) -0.16157(9)
O5_2 O 0.75907(12) -0.37633(9) -0.11048(9)
O5B_2 O 0.24093(12) 0.37633(9) 0.11048(9)
O6A O 0.44701(10) -0.22781(9) 0.33924(7)
O6C O 0.55299(10) 0.22781(9) -0.33924(7)
O9_2 O 0.13545(10) 0.07456(10) 0.15459(9)
O9B_2 O 0.86455(10) -0.07456(10) -0.15459(9)
loop_
_geom_bond_atom_site_label_1
_geom_bond_atom_site_label_2
_geom_bond_site_symmetry_1
_geom_bond_site_symmetry_2
Mn1 O1 1_555 1_555
Mn2 O1 1_555 1_555
Mn3 O1 1_555 1_555
O2 C5 1_555 1_555
O3 C8 1_555 1_555
O4 Mn2 1_555 1_555
O5 C1 1_555 1_555
O6 C3 1_555 1_555
O7 Mn1 1_555 1_555
O8 Mn1 1_555 1_555
O9 C8 1_555 1_555
C1 O4 1_555 1_555
C2 H1 1_555 1_555
H2 C2 1_555 1_555
C3 O7 1_555 1_555
C4 C1 1_555 1_555
H3 C4 1_555 1_555
H4 C4 1_555 1_555
C5 O8 1_555 1_555
C6 C5 1_555 1_555
H5 C6 1_555 1_555
H6 C6 1_555 1_555
C7 C6 1_555 1_555
H7 C7 1_555 1_555
H8 C7 1_555 1_555
C8 C7 1_555 1_555
Mn2B O1B 1_555 1_555
Mn3B O6 1_555 1_555
O1B Mn1 1_555 1_555
O2B C5B 1_555 1_555
O3B C8B 1_555 1_555
O4B Mn2B 1_555 1_555
O5B C1B 1_555 1_555
O6B Mn3 1_555 1_555
O7B Mn1 1_555 1_555
O8B Mn1 1_555 1_555
O9B C8B 1_555 1_555
C1B O4B 1_555 1_555
C2B H1B 1_555 1_555
H2B C2B 1_555 1_555
C3B O6B 1_555 1_555
C4B C1B 1_555 1_555
H3B C4B 1_555 1_555
H4B C4B 1_555 1_555
C5B O8B 1_555 1_555
C6B C5B 1_555 1_555
H5B C6B 1_555 1_555
H6B C6B 1_555 1_555
C7B C6B 1_555 1_555
H7B C7B 1_555 1_555
H8B C7B 1_555 1_555
C8B C7B 1_555 1_555
Mn2_2 O3B 1_555 1_555
Mn2A O6B 1_555 1_555
Mn2B_2 O3 1_555 1_555
Mn2C O6 1_555 1_555
Mn3_2 O9B 1_555 1_555
Mn3_3 O5 1_555 1_555
Mn3A O2B 1_555 1_555
Mn3B_2 O5B 1_555 1_555
Mn3B_3 O9 1_555 1_555
Mn3C O2 1_555 1_555
O2A Mn3B 1_555 1_555
O2C Mn3 1_555 1_555
O3_2 Mn2B 1_555 1_555
O3B_2 Mn2 1_555 1_555
O5_2 Mn3 1_555 1_555
O5B_2 Mn3B 1_555 1_555
O6A Mn2B 1_555 1_555
O6C Mn2 1_555 1_555
O9_2 Mn3B 1_555 1_555
O9B_2 Mn3 1_555 1_555
Mn2 O7 1_555 1_555
Mn3 O8 1_555 1_555
C2 C3 1_555 1_555
C2 C4 1_555 1_555
Mn2B O7B 1_555 1_555
Mn3B O1B 1_555 1_555
Mn3B O8B 1_555 1_555
O7B C3B 1_555 1_555
C2B C3B 1_555 1_555
C2B C4B 1_555 1_555
Mn3A O6C 1_555 1_555
Mn3C O6A 1_555 1_555

#END
