
#######################################################################
#
#                 Cambridge Crystallographic Data Centre
#                                CCDC 
#
#######################################################################
#
# If this CIF has been generated from an entry in the Cambridge 
# Structural Database, then it will include bibliographic, chemical, 
# crystal, experimental, refinement or atomic coordinate data resulting 
# from the CCDC's data processing and validation procedures.
#
#######################################################################

data_WUWTUE
_symmetry_cell_setting           monoclinic
_symmetry_space_group_name_H-M   'P 21/c'
_symmetry_Int_Tables_number      14
_space_group_name_Hall           '-P 2ybc'
loop_
_symmetry_equiv_pos_site_id
_symmetry_equiv_pos_as_xyz
1 x,y,z
2 -x,1/2+y,1/2-z
3 -x,-y,-z
4 x,1/2-y,1/2+z
_cell_length_a                   8.9148(18)
_cell_length_b                   7.9057(16)
_cell_length_c                   17.246(3)
_cell_angle_alpha                90
_cell_angle_beta                 104.41(3)
_cell_angle_gamma                90
_cell_volume                     1177.22
loop_
_atom_site_label
_atom_site_type_symbol
_atom_site_fract_x
_atom_site_fract_y
_atom_site_fract_z
Cu1 Cu 0.44725(4) 1.03345(5) 0.06216(3)
Cu2 Cu -0.02476(4) 0.79219(5) 0.12339(2)
C1 C 0.3709(4) 1.2924(4) 0.17338(19)
H1 H 0.3205 1.2077 0.1946
C2 C 0.3939(4) 1.4538(4) 0.2041(2)
H2 H 0.3648 1.4976 0.2482
C3 C 0.4690(4) 1.5347(4) 0.1549(2)
H3 H 0.4999 1.6475 0.1589
C4 C 0.5586(4) 1.4564(4) 0.03358(19)
H4 H 0.5904 1.3503 0.0144
H5 H 0.6495 1.5273 0.0510
N1 N 0.4286(3) 1.2715(3) 0.11025(15)
N2 N 0.4907(3) 1.4247(3) 0.10026(15)
C5 C 0.1562(4) 0.8794(4) 0.1021(2)
N3 N 0.2642(3) 0.9300(4) 0.08601(19)
C6 C 0.6473(4) 0.9318(4) 0.0814(2)
N4 N 0.7681(3) 0.8765(3) 0.10610(17)
C7 C -0.1132(4) 0.4640(4) 0.1972(2)
H6 H -0.1476 0.5181 0.2374
C8 C -0.1255(4) 0.2920(4) 0.1823(2)
H7 H -0.1675 0.2108 0.2098
C9 C -0.0630(4) 0.2671(4) 0.1189(2)
H8 H -0.0552 0.1643 0.0939
C10 C 0.0565(4) 0.4585(4) 0.03468(18)
H9 H 0.0960 0.3557 0.0163
H10 H 0.1435 0.5339 0.0545
N5 N -0.0457(3) 0.5420(3) 0.14628(16)
N6 N -0.0145(3) 0.4182(3) 0.09877(15)
Cu1B Cu 0.55275(4) 1.96655(5) -0.06216(3)
Cu1_2 Cu -0.55275(4) 1.03345(5) 0.06216(3)
Cu2_2 Cu 0.97524(4) 0.79219(5) 0.12339(2)
Cu2B Cu 0.02476(4) 0.20781(5) -0.12339(2)
Cu2B_2 Cu 1.02476(4) 2.20781(5) -0.12339(2)
C1B C 0.6291(4) 1.7076(4) -0.17338(19)
H1B H 0.6795 1.7923 -0.1946
C2B C 0.6061(4) 1.5462(4) -0.2041(2)
H2B H 0.6352 1.5024 -0.2482
C3B C 0.5310(4) 1.4653(4) -0.1549(2)
H3B H 0.5001 1.3525 -0.1589
C4B C 0.4414(4) 1.5436(4) -0.03358(19)
H4B H 0.4096 1.6497 -0.0144
H5B H 0.3505 1.4727 -0.0510
N1B N 0.5714(3) 1.7285(3) -0.11025(15)
N2B N 0.5093(3) 1.5753(3) -0.10026(15)
C5B C 0.8438(4) 2.1206(4) -0.1021(2)
C5_2 C 1.1562(4) 0.8794(4) 0.1021(2)
N3B N 0.7358(3) 2.0700(4) -0.08601(19)
C6_2 C -0.3527(4) 0.9318(4) 0.0814(2)
C6B C 0.3527(4) 2.0682(4) -0.0814(2)
N4_2 N -0.2319(3) 0.8765(3) 0.10610(17)
C7B C 0.1132(4) 0.5360(4) -0.1972(2)
H6B H 0.1476 0.4819 -0.2374
C8B C 0.1255(4) 0.7080(4) -0.1823(2)
H7B H 0.1675 0.7892 -0.2098
C9B C 0.0630(4) 0.7329(4) -0.1189(2)
H8B H 0.0552 0.8357 -0.0939
C10B C -0.0565(4) 0.5415(4) -0.03468(18)
H9B H -0.0960 0.6443 -0.0163
H10B H -0.1435 0.4661 -0.0545
N5B N 0.0457(3) 0.4580(3) -0.14628(16)
N5_2 N 0.9543(3) 0.5420(3) 0.14628(16)
N6B N 0.0145(3) 0.5818(3) -0.09877(15)
loop_
_geom_bond_atom_site_label_1
_geom_bond_atom_site_label_2
_geom_bond_site_symmetry_1
_geom_bond_site_symmetry_2
Cu1 N1 1_555 1_555
Cu2 C5 1_555 1_555
C1 H1 1_555 1_555
C2 C1 1_555 1_555
H2 C2 1_555 1_555
C3 C2 1_555 1_555
H3 C3 1_555 1_555
C4 H4 1_555 1_555
H5 C4 1_555 1_555
N1 C1 1_555 1_555
N2 C3 1_555 1_555
C5 N3 1_555 1_555
N3 Cu1 1_555 1_555
C6 Cu1 1_555 1_555
N4 C6 1_555 1_555
C7 H6 1_555 1_555
C8 C7 1_555 1_555
H7 C8 1_555 1_555
C9 C8 1_555 1_555
H8 C9 1_555 1_555
C10 H9 1_555 1_555
H10 C10 1_555 1_555
N5 Cu2 1_555 1_555
N6 C9 1_555 1_555
Cu1B N1B 1_555 1_555
Cu1_2 C6_2 1_555 1_555
Cu2_2 N4 1_555 1_555
Cu2B N5B 1_555 1_555
Cu2B_2 C5B 1_555 1_555
C1B H1B 1_555 1_555
C2B C1B 1_555 1_555
H2B C2B 1_555 1_555
C3B C2B 1_555 1_555
H3B C3B 1_555 1_555
C4B C4 1_555 1_555
H4B C4B 1_555 1_555
H5B C4B 1_555 1_555
N1B C1B 1_555 1_555
N2B C3B 1_555 1_555
C5B N3B 1_555 1_555
C5_2 Cu2_2 1_555 1_555
N3B Cu1B 1_555 1_555
C6_2 N4_2 1_555 1_555
C6B Cu1B 1_555 1_555
N4_2 Cu2 1_555 1_555
C7B H6B 1_555 1_555
C8B C7B 1_555 1_555
H7B C8B 1_555 1_555
C9B C8B 1_555 1_555
H8B C9B 1_555 1_555
C10B C10 1_555 1_555
H9B C10B 1_555 1_555
H10B C10B 1_555 1_555
N5B C7B 1_555 1_555
N5_2 Cu2_2 1_555 1_555
N6B C9B 1_555 1_555
C4 N2 1_555 1_555
N1 N2 1_555 1_555
C7 N5 1_555 1_555
C10 N6 1_555 1_555
N5 N6 1_555 1_555
C4B N2B 1_555 1_555
N1B N2B 1_555 1_555
C10B N6B 1_555 1_555
N5B N6B 1_555 1_555

#END
