
#######################################################################
#
#                 Cambridge Crystallographic Data Centre
#                                CCDC 
#
#######################################################################
#
# If this CIF has been generated from an entry in the Cambridge 
# Structural Database, then it will include bibliographic, chemical, 
# crystal, experimental, refinement or atomic coordinate data resulting 
# from the CCDC's data processing and validation procedures.
#
#######################################################################

data_WUWVUG
_symmetry_cell_setting           orthorhombic
_symmetry_space_group_name_H-M   'P 21 21 21'
_symmetry_Int_Tables_number      19
_space_group_name_Hall           'P 2ac 2ab'
loop_
_symmetry_equiv_pos_site_id
_symmetry_equiv_pos_as_xyz
1 x,y,z
2 1/2-x,-y,1/2+z
3 -x,1/2+y,1/2-z
4 1/2+x,1/2-y,-z
_cell_length_a                   8.4470(12)
_cell_length_b                   12.5254(17)
_cell_length_c                   13.3182(18)
_cell_angle_alpha                90
_cell_angle_beta                 90
_cell_angle_gamma                90
_cell_volume                     1409.09
loop_
_atom_site_label
_atom_site_type_symbol
_atom_site_fract_x
_atom_site_fract_y
_atom_site_fract_z
Zn1 Zn 0.11311(3) 0.53659(2) 0.733629(18)
O1 O 0.0259(2) 0.61003(15) 0.84877(13)
O2 O -0.1734(2) 0.49564(16) 0.85883(13)
O3 O 0.7738(2) 0.14123(15) 0.84927(12)
O4 O 0.5897(2) 0.14327(18) 0.73324(14)
N1 N -0.4760(2) 0.52336(18) 1.12296(13)
N2 N -0.2945(2) 0.59483(16) 1.02576(13)
N3 N 0.2347(2) 0.40498(15) 0.77229(14)
N4 N 0.4131(2) 0.29415(16) 0.82968(14)
C1 C -0.5434(3) 0.5505(2) 1.03182(16)
H1 H -0.6487 0.5399 1.0143
C2 C -0.4322(3) 0.5949(2) 0.97246(17)
H2 H -0.4467 0.6205 0.9076
C3 C -0.3264(3) 0.5517(2) 1.11631(16)
H3 H -0.2524 0.5432 1.1674
C4 C -0.1411(3) 0.63218(19) 0.98641(16)
H4 H -0.1536 0.7075 0.9681
C5 C -0.0107(3) 0.6259(3) 1.06381(19)
H5 H -0.0417 0.6647 1.1228
H6 H 0.0844 0.6564 1.0367
H7 H 0.0079 0.5526 1.0811
C6 C -0.0968(3) 0.57067(19) 0.88988(16)
C7 C 0.1779(3) 0.30324(19) 0.7644(2)
H8 H 0.0791 0.2846 0.7390
C8 C 0.3776(3) 0.39624(18) 0.81207(15)
H9 H 0.4442 0.4535 0.8259
C9 C 0.2864(3) 0.2344(2) 0.79886(18)
H10 H 0.2773 0.1604 0.8014
C10 C 0.5591(3) 0.2557(2) 0.87810(17)
H11 H 0.6302 0.3169 0.8862
C11 C 0.5230(4) 0.2117(3) 0.9821(2)
H12 H 0.4699 0.2653 1.0211
H13 H 0.6200 0.1921 1.0147
H14 H 0.4562 0.1501 0.9761
C12 C 0.6440(3) 0.1730(2) 0.81311(17)
Zn1A Zn -0.61311(3) 0.46341(2) 1.233629(18)
Zn1B Zn 0.88689(3) 0.03659(2) 0.766371(18)
O3B O 0.2262(2) 0.64123(15) 0.65073(12)
N1A N -0.0240(2) 0.47664(18) 0.62296(13)
loop_
_geom_bond_atom_site_label_1
_geom_bond_atom_site_label_2
_geom_bond_site_symmetry_1
_geom_bond_site_symmetry_2
Zn1 O1 1_555 1_555
O1 C6 1_555 1_555
O2 C6 1_555 1_555
O3 C12 1_555 1_555
O4 C12 1_555 1_555
N1 C1 1_555 1_555
N2 C2 1_555 1_555
N3 Zn1 1_555 1_555
N4 C8 1_555 1_555
C1 H1 1_555 1_555
C2 C1 1_555 1_555
H2 C2 1_555 1_555
C3 N1 1_555 1_555
H3 C3 1_555 1_555
C4 N2 1_555 1_555
H4 C4 1_555 1_555
C5 C4 1_555 1_555
H5 C5 1_555 1_555
H6 C5 1_555 1_555
H7 C5 1_555 1_555
C6 C4 1_555 1_555
C7 N3 1_555 1_555
H8 C7 1_555 1_555
C8 N3 1_555 1_555
H9 C8 1_555 1_555
C9 N4 1_555 1_555
H10 C9 1_555 1_555
C10 N4 1_555 1_555
H11 C10 1_555 1_555
C11 C10 1_555 1_555
H12 C11 1_555 1_555
H13 C11 1_555 1_555
H14 C11 1_555 1_555
C12 C10 1_555 1_555
Zn1A N1 1_555 1_555
Zn1B O3 1_555 1_555
O3B Zn1 1_555 1_555
N1A Zn1 1_555 1_555
N2 C3 1_555 1_555
C7 C9 1_555 1_555

#END
