
#######################################################################
#
#                 Cambridge Crystallographic Data Centre
#                                CCDC 
#
#######################################################################
#
# If this CIF has been generated from an entry in the Cambridge 
# Structural Database, then it will include bibliographic, chemical, 
# crystal, experimental, refinement or atomic coordinate data resulting 
# from the CCDC's data processing and validation procedures.
#
#######################################################################

data_WUWVIU
_symmetry_cell_setting           monoclinic
_symmetry_space_group_name_H-M   'P 21'
_symmetry_Int_Tables_number      4
_space_group_name_Hall           'P 2yb'
loop_
_symmetry_equiv_pos_site_id
_symmetry_equiv_pos_as_xyz
1 x,y,z
2 -x,1/2+y,-z
_cell_length_a                   7.6566(12)
_cell_length_b                   10.0243(16)
_cell_length_c                   9.2447(14)
_cell_angle_alpha                90
_cell_angle_beta                 92.735(2)
_cell_angle_gamma                90
_cell_volume                     708.741
loop_
_atom_site_label
_atom_site_type_symbol
_atom_site_fract_x
_atom_site_fract_y
_atom_site_fract_z
Cu1 Cu -0.75959(7) -0.04883(13) -0.75529(6)
O1 O -0.8781(5) -0.0726(5) -0.4855(4)
O2 O -0.7500(4) 0.0885(3) -0.6045(3)
O3 O -0.7563(4) -0.1871(3) -0.9059(3)
O4 O -0.6370(4) -0.0323(5) -1.0442(3)
N1 N -0.4668(5) 0.3759(4) -0.3250(4)
N2 N -0.6903(5) 0.2401(4) -0.3618(4)
N3 N -1.0122(5) -0.4830(4) -1.1645(4)
N4 N -0.7694(5) -0.3693(4) -1.1221(4)
C1 C -0.5883(5) 0.4348(8) -0.4173(5)
H1 H -0.5769 0.5189 -0.4582
C2 C -0.5331(6) 0.2577(5) -0.2940(5)
H2 H -0.4779 0.1952 -0.2331
C3 C -0.7272(6) 0.3536(5) -0.4404(5)
H3 H -0.8275 0.3709 -0.4980
C4 C -0.7985(6) 0.1185(4) -0.3509(5)
H4 H -0.7433 0.0618 -0.2754
C5 C -0.9809(7) 0.1535(5) -0.3039(6)
H5 H -0.9717 0.2044 -0.2159
H6 H -1.0451 0.0730 -0.2879
H7 H -1.0408 0.2051 -0.3783
C6 C -0.8104(6) 0.0372(5) -0.4909(6)
C7 C -0.9074(5) -0.5466(9) -1.0623(4)
H8 H -0.9356 -0.6262 -1.0172
C8 C -0.9224(6) -0.3739(5) -1.1973(5)
H9 H -0.9612 -0.3096 -1.2638
C9 C -0.7586(7) -0.4787(5) -1.0359(5)
H10 H -0.6666 -0.5019 -0.9715
C10 C -0.6354(6) -0.2635(5) -1.1213(5)
H11 H -0.5300 -0.3041 -1.0760
C11 C -0.5852(8) -0.2214(6) -1.2656(6)
H12 H -0.5579 -0.2985 -1.3218
H13 H -0.4845 -0.1644 -1.2562
H14 H -0.6803 -0.1737 -1.3131
C12 C -0.6833(6) -0.1480(5) -1.0186(5)
Cu1A Cu -0.24041(7) 0.45117(13) -0.24471(6)
Cu1A_2 Cu -1.24041(7) -0.54883(13) -1.24471(6)
N1A N -0.5332(5) -0.1241(4) -0.6750(4)
N3A N -0.9878(5) 0.0170(4) -0.8355(4)
loop_
_geom_bond_atom_site_label_1
_geom_bond_atom_site_label_2
_geom_bond_site_symmetry_1
_geom_bond_site_symmetry_2
Cu1 O2 1_555 1_555
O1 C6 1_555 1_555
O2 C6 1_555 1_555
O3 Cu1 1_555 1_555
O4 C12 1_555 1_555
N1 C1 1_555 1_555
N2 C2 1_555 1_555
N3 C7 1_555 1_555
N4 C8 1_555 1_555
C1 H1 1_555 1_555
C2 N1 1_555 1_555
H2 C2 1_555 1_555
C3 N2 1_555 1_555
H3 C3 1_555 1_555
C4 N2 1_555 1_555
H4 C4 1_555 1_555
C5 C4 1_555 1_555
H5 C5 1_555 1_555
H6 C5 1_555 1_555
H7 C5 1_555 1_555
C6 C4 1_555 1_555
C7 H8 1_555 1_555
C8 N3 1_555 1_555
H9 C8 1_555 1_555
C9 N4 1_555 1_555
H10 C9 1_555 1_555
C10 N4 1_555 1_555
H11 C10 1_555 1_555
C11 C10 1_555 1_555
H12 C11 1_555 1_555
H13 C11 1_555 1_555
H14 C11 1_555 1_555
C12 O3 1_555 1_555
Cu1A N1 1_555 1_555
Cu1A_2 N3 1_555 1_555
N1A Cu1 1_555 1_555
N3A Cu1 1_555 1_555
C1 C3 1_555 1_555
C7 C9 1_555 1_555
C10 C12 1_555 1_555

#END
