
#######################################################################
#
#                 Cambridge Crystallographic Data Centre
#                                CCDC 
#
#######################################################################
#
# If this CIF has been generated from an entry in the Cambridge 
# Structural Database, then it will include bibliographic, chemical, 
# crystal, experimental, refinement or atomic coordinate data resulting 
# from the CCDC's data processing and validation procedures.
#
#######################################################################

data_WUXFOL
_symmetry_cell_setting           monoclinic
_symmetry_space_group_name_H-M   'P 21/c'
_symmetry_Int_Tables_number      14
_space_group_name_Hall           '-P 2ybc'
loop_
_symmetry_equiv_pos_site_id
_symmetry_equiv_pos_as_xyz
1 x,y,z
2 -x,1/2+y,1/2-z
3 -x,-y,-z
4 x,1/2-y,1/2+z
_cell_length_a                   11.5808(12)
_cell_length_b                   17.4629(18)
_cell_length_c                   19.585(2)
_cell_angle_alpha                90
_cell_angle_beta                 91.4180(10)
_cell_angle_gamma                90
_cell_volume                     3959.55
loop_
_atom_site_label
_atom_site_type_symbol
_atom_site_fract_x
_atom_site_fract_y
_atom_site_fract_z
Pb1 Pb -0.65193(3) 0.008710(17) 0.283455(17)
O1 O -0.7948(5) -0.1334(4) 0.3693(3)
O2 O -1.2398(5) -0.3591(4) 0.1899(3)
O3 O -0.7749(7) -0.1150(4) 0.2577(4)
O4 O -1.2219(5) -0.4078(3) 0.2943(3)
N1 N -0.5123(6) 0.0961(4) 0.2238(3)
N2 N -0.5855(6) -0.0379(4) 0.1659(3)
N3 N -0.2159(6) 0.1100(4) 0.0496(4)
N4 N -0.2688(6) -0.0022(4) 0.0025(3)
H1 H -0.2695 -0.0412 -0.0243
N5 N -0.4442(6) -0.0584(4) 0.3145(4)
N6 N -0.5216(6) 0.0619(4) 0.3913(4)
N7 N -0.1335(6) -0.0933(4) 0.4872(4)
N8 N -0.1893(6) 0.0097(4) 0.5470(3)
H2 H -0.1899 0.0441 0.5784
N9 N 0.1555(8) -0.1305(7) 0.6252(6)
N10 N 0.0144(10) 0.0247(6) -0.1395(5)
C1 C -0.4830(8) 0.1639(5) 0.2487(5)
H3 H -0.5215 0.1811 0.2869
C2 C -0.4002(8) 0.2106(5) 0.2225(5)
H4 H -0.3849 0.2586 0.2412
C3 C -0.3414(7) 0.1846(5) 0.1682(5)
H5 H -0.2835 0.2147 0.1499
C4 C -0.3661(7) 0.1144(5) 0.1397(4)
C5 C -0.3083(7) 0.0811(5) 0.0832(4)
C6 C -0.3421(7) 0.0120(5) 0.0552(4)
C7 C -0.4368(7) -0.0326(5) 0.0803(4)
C8 C -0.4775(8) -0.1019(5) 0.0533(5)
H6 H -0.4412 -0.1242 0.0164
C9 C -0.5697(8) -0.1364(5) 0.0810(5)
H7 H -0.5981 -0.1823 0.0632
C10 C -0.6213(7) -0.1023(5) 0.1366(4)
H8 H -0.6855 -0.1264 0.1545
C11 C -0.4941(7) -0.0017(4) 0.1380(4)
C12 C -0.4581(7) 0.0701(5) 0.1686(4)
C13 C -0.1949(8) 0.0586(5) 0.0017(5)
C14 C -0.0974(7) 0.0646(5) -0.0447(4)
C15 C -0.0842(8) 0.0152(6) -0.0988(5)
H9 H -0.1381 -0.0231 -0.1084
C16 C 0.0924(8) 0.0843(7) -0.1197(6)
H10 H 0.1592 0.0905 -0.1445
C17 C 0.0758(7) 0.1298(5) -0.0694(5)
H11 H 0.1277 0.1693 -0.0600
C18 C -0.0126(8) 0.1205(6) -0.0324(5)
H12 H -0.0211 0.1528 0.0049
C19 C -0.4080(8) -0.1166(6) 0.2775(5)
H13 H -0.4493 -0.1294 0.2378
C20 C -0.3096(9) -0.1599(6) 0.2957(5)
H14 H -0.2861 -0.2003 0.2684
C21 C -0.2496(8) -0.1418(6) 0.3536(5)
H15 H -0.1841 -0.1697 0.3661
C22 C -0.2853(7) -0.0819(5) 0.3943(4)
C23 C -0.2294(8) -0.0597(5) 0.4564(5)
C24 C -0.2651(7) 0.0030(5) 0.4928(4)
C25 C -0.3644(7) 0.0473(5) 0.4733(4)
C26 C -0.4083(8) 0.1088(5) 0.5102(5)
H16 H -0.3695 0.1252 0.5497
C27 C -0.5079(8) 0.1456(6) 0.4890(4)
H17 H -0.5393 0.1855 0.5139
C28 C -0.5588(8) 0.1198(5) 0.4288(5)
H18 H -0.6249 0.1452 0.4132
C29 C -0.4246(7) 0.0253(5) 0.4129(4)
C30 C -0.3858(7) -0.0395(5) 0.3727(4)
C31 C -0.1110(8) -0.0498(6) 0.5413(5)
C32 C -0.0138(8) -0.0629(5) 0.5900(5)
C33 C 0.0635(8) -0.1190(6) 0.5773(5)
H19 H 0.0565 -0.1491 0.5382
C34 C 0.1595(10) -0.0828(8) 0.6836(6)
H20 H 0.2197 -0.0895 0.7153
C35 C 0.0857(9) -0.0317(7) 0.6947(5)
H21 H 0.0913 -0.0018 0.7339
C36 C 0.0007(9) -0.0210(6) 0.6502(5)
H22 H -0.0533 0.0169 0.6594
C37 C -0.8221(8) -0.1459(5) 0.3070(6)
C38 C -0.9155(7) -0.2035(5) 0.2920(5)
C39 C -0.9594(7) -0.2117(5) 0.2264(5)
H23 H -0.9292 -0.1826 0.1913
C40 C -1.0465(8) -0.2621(5) 0.2126(4)
H24 H -1.0754 -0.2665 0.1680
C41 C -1.0935(7) -0.3072(4) 0.2636(4)
C42 C -1.1907(7) -0.3618(5) 0.2491(5)
C43 C -1.0474(7) -0.2998(5) 0.3298(4)
H25 H -1.0751 -0.3303 0.3647
C44 C -0.9611(7) -0.2475(5) 0.3434(5)
H26 H -0.9330 -0.2417 0.3880
Pb1A Pb -1.34807(3) -0.491290(17) 0.216545(17)
O2A O -0.7602(5) 0.1409(4) 0.3101(3)
O4A O -0.7781(5) 0.0922(3) 0.2057(3)
O5 O -0.3011(5) -0.3677(4) 0.4205(3)
O6 O -0.2117(6) -0.2535(4) 0.5028(4)
O7 O 0.2244(11) -0.2345(8) 0.4907(7)
O8 O -0.316(2) -0.2791(16) 0.6325(13)
loop_
_geom_bond_atom_site_label_1
_geom_bond_atom_site_label_2
_geom_bond_site_symmetry_1
_geom_bond_site_symmetry_2
Pb1 O3 1_555 1_555
O1 C37 1_555 1_555
O2 C42 1_555 1_555
O3 C37 1_555 1_555
O4 C42 1_555 1_555
N1 Pb1 1_555 1_555
N2 Pb1 1_555 1_555
N3 C5 1_555 1_555
N4 H1 1_555 1_555
N5 Pb1 1_555 1_555
N6 Pb1 1_555 1_555
N7 C23 1_555 1_555
N8 H2 1_555 1_555
N9 C33 1_555 1_555
N10 C15 1_555 1_555
C1 N1 1_555 1_555
H3 C1 1_555 1_555
C2 C1 1_555 1_555
H4 C2 1_555 1_555
C3 C2 1_555 1_555
H5 C3 1_555 1_555
C4 C3 1_555 1_555
C5 C4 1_555 1_555
C6 N4 1_555 1_555
C7 C6 1_555 1_555
C8 C7 1_555 1_555
H6 C8 1_555 1_555
C9 C8 1_555 1_555
H7 C9 1_555 1_555
C10 N2 1_555 1_555
H8 C10 1_555 1_555
C11 N2 1_555 1_555
C12 N1 1_555 1_555
C13 N3 1_555 1_555
C14 C13 1_555 1_555
C15 C14 1_555 1_555
H9 C15 1_555 1_555
C16 N10 1_555 1_555
H10 C16 1_555 1_555
C17 C16 1_555 1_555
H11 C17 1_555 1_555
C18 C14 1_555 1_555
H12 C18 1_555 1_555
C19 N5 1_555 1_555
H13 C19 1_555 1_555
C20 C19 1_555 1_555
H14 C20 1_555 1_555
C21 C20 1_555 1_555
H15 C21 1_555 1_555
C22 C21 1_555 1_555
C23 C22 1_555 1_555
C24 N8 1_555 1_555
C25 C24 1_555 1_555
C26 C25 1_555 1_555
H16 C26 1_555 1_555
C27 C26 1_555 1_555
H17 C27 1_555 1_555
C28 N6 1_555 1_555
H18 C28 1_555 1_555
C29 N6 1_555 1_555
C30 N5 1_555 1_555
C31 N7 1_555 1_555
C32 C31 1_555 1_555
C33 C32 1_555 1_555
H19 C33 1_555 1_555
C34 N9 1_555 1_555
H20 C34 1_555 1_555
C35 C34 1_555 1_555
H21 C35 1_555 1_555
C36 C32 1_555 1_555
H22 C36 1_555 1_555
C37 C38 1_555 1_555
C38 C39 1_555 1_555
C39 H23 1_555 1_555
C40 C39 1_555 1_555
H24 C40 1_555 1_555
C41 C40 1_555 1_555
C42 C41 1_555 1_555
C43 C41 1_555 1_555
H25 C43 1_555 1_555
C44 C38 1_555 1_555
H26 C44 1_555 1_555
Pb1A O2 1_555 1_555
O2A Pb1 1_555 1_555
O4A Pb1 1_555 1_555
O4 Pb1A 1_555 1_555
N4 C13 1_555 1_555
N8 C31 1_555 1_555
C4 C12 1_555 1_555
C5 C6 1_555 1_555
C7 C11 1_555 1_555
C9 C10 1_555 1_555
C11 C12 1_555 1_555
C17 C18 1_555 1_555
C22 C30 1_555 1_555
C23 C24 1_555 1_555
C25 C29 1_555 1_555
C27 C28 1_555 1_555
C29 C30 1_555 1_555
C35 C36 1_555 1_555
C43 C44 1_555 1_555

#END
