
#######################################################################
#
#                 Cambridge Crystallographic Data Centre
#                                CCDC 
#
#######################################################################
#
# If this CIF has been generated from an entry in the Cambridge 
# Structural Database, then it will include bibliographic, chemical, 
# crystal, experimental, refinement or atomic coordinate data resulting 
# from the CCDC's data processing and validation procedures.
#
#######################################################################

data_WUXGEC
_symmetry_cell_setting           monoclinic
_symmetry_space_group_name_H-M   'C 2/c'
_symmetry_Int_Tables_number      15
_space_group_name_Hall           '-C 2yn'
loop_
_symmetry_equiv_pos_site_id
_symmetry_equiv_pos_as_xyz
1 x,y,z
2 -x,y,1/2-z
3 1/2+x,1/2+y,z
4 1/2-x,1/2+y,1/2-z
5 -x,-y,-z
6 x,-y,1/2+z
7 1/2-x,1/2-y,-z
8 1/2+x,1/2-y,1/2+z
_cell_length_a                   14.517(18)
_cell_length_b                   16.34(2)
_cell_length_c                   20.00(2)
_cell_angle_alpha                90
_cell_angle_beta                 110.61(8)
_cell_angle_gamma                90
_cell_volume                     4440.52
loop_
_atom_site_label
_atom_site_type_symbol
_atom_site_fract_x
_atom_site_fract_y
_atom_site_fract_z
Pb1 Pb 0.050768(13) 0.356578(9) -0.324119(9)
O1 O -0.1222(3) 0.38555(19) -0.39668(18)
O2 O -0.1675(3) 0.44674(19) -0.31395(17)
O3 O -0.0613(2) 0.6080(2) -0.56193(16)
O4 O -0.2061(3) 0.63742(19) -0.64169(17)
N1 N 0.1295(3) 0.2258(2) -0.24771(18)
N2 N 0.0019(3) 0.2216(2) -0.38510(17)
N3 N 0.0174(3) -0.0800(2) -0.36859(18)
N4 N 0.1228(3) -0.0764(2) -0.25589(17)
H1 H 0.1633 -0.0937 -0.2220
C1 C 0.1909(3) 0.2287(3) -0.1804(2)
H2 H 0.2108 0.2798 -0.1598
C2 C 0.2269(4) 0.1599(3) -0.1391(2)
H3 H 0.2692 0.1650 -0.0920
C3 C 0.1997(3) 0.0848(3) -0.1682(2)
H4 H 0.2231 0.0380 -0.1411
C4 C 0.1362(3) 0.0781(2) -0.2395(2)
C5 C 0.1017(3) 0.0038(2) -0.2771(2)
C6 C 0.0372(3) 0.0003(2) -0.3463(2)
C7 C 0.0001(3) 0.0734(3) -0.3852(2)
C8 C -0.0649(3) 0.0752(3) -0.4557(2)
H5 H -0.0875 0.0265 -0.4801
C9 C -0.0954(4) 0.1483(3) -0.4891(2)
H6 H -0.1386 0.1498 -0.5362
C10 C -0.0609(4) 0.2210(3) -0.4518(2)
H7 H -0.0829 0.2707 -0.4745
C11 C 0.0329(3) 0.1492(2) -0.3509(2)
C12 C 0.1015(3) 0.1509(2) -0.2777(2)
C13 C 0.0703(3) -0.1241(3) -0.3132(2)
C14 C 0.0740(3) -0.2139(3) -0.3107(2)
C15 C 0.1207(3) -0.2551(2) -0.2468(2)
H8 H 0.1501 -0.2253 -0.2051
C16 C 0.0311(3) -0.2598(3) -0.3718(2)
H9 H -0.0013 -0.2334 -0.4149
C17 C -0.1611(3) 0.4432(3) -0.3745(2)
C18 C -0.2015(3) 0.5130(2) -0.4254(2)
C19 C -0.2744(3) 0.5634(3) -0.4184(2)
H10 H -0.2978 0.5545 -0.3813
C20 C -0.3127(4) 0.6266(3) -0.4659(3)
H11 H -0.3621 0.6597 -0.4611
C21 C -0.2768(3) 0.6407(3) -0.5212(2)
H12 H -0.3044 0.6815 -0.5547
C22 C -0.2001(3) 0.5938(2) -0.5259(2)
C23 C -0.1530(4) 0.6140(3) -0.5801(2)
C24 C -0.1633(3) 0.5292(2) -0.4787(2)
H13 H -0.1129 0.4967 -0.4828
C25 C 0.0354(4) -0.3445(3) -0.3703(3)
H14 H 0.0070 -0.3745 -0.4120
C26 C 0.1242(4) -0.3389(3) -0.2443(3)
H15 H 0.1549 -0.3654 -0.2010
O5 O 0.0878(3) -0.4677(2) -0.30385(19)
C27 C 0.0824(4) -0.3841(3) -0.3059(3)
Pb1D Pb -0.050768(13) 0.643422(9) -0.675881(9)
Pb1_2 Pb 0.050768(13) -0.643422(9) -0.324119(9)
O3D O 0.0613(2) 0.3920(2) -0.43807(16)
O4D O 0.2061(3) 0.36258(19) -0.35831(17)
O5_2 O 0.0878(3) 0.5323(2) -0.30385(19)
loop_
_geom_bond_atom_site_label_1
_geom_bond_atom_site_label_2
_geom_bond_site_symmetry_1
_geom_bond_site_symmetry_2
Pb1 O1 1_555 1_555
O1 C17 1_555 1_555
O2 C17 1_555 1_555
O3 C23 1_555 1_555
O4 C23 1_555 1_555
N1 Pb1 1_555 1_555
N2 Pb1 1_555 1_555
N3 C6 1_555 1_555
N4 H1 1_555 1_555
C1 N1 1_555 1_555
H2 C1 1_555 1_555
C2 C1 1_555 1_555
H3 C2 1_555 1_555
C3 C2 1_555 1_555
H4 C3 1_555 1_555
C4 C3 1_555 1_555
C5 N4 1_555 1_555
C6 C5 1_555 1_555
C7 C6 1_555 1_555
C8 C7 1_555 1_555
H5 C8 1_555 1_555
C9 C8 1_555 1_555
H6 C9 1_555 1_555
C10 N2 1_555 1_555
H7 C10 1_555 1_555
C11 N2 1_555 1_555
C12 N1 1_555 1_555
C13 N3 1_555 1_555
C14 C13 1_555 1_555
C15 C14 1_555 1_555
H8 C15 1_555 1_555
C16 C14 1_555 1_555
H9 C16 1_555 1_555
C17 C18 1_555 1_555
C18 C19 1_555 1_555
C19 H10 1_555 1_555
C20 C19 1_555 1_555
H11 C20 1_555 1_555
C21 C20 1_555 1_555
H12 C21 1_555 1_555
C22 C21 1_555 1_555
C23 C22 1_555 1_555
C24 C18 1_555 1_555
H13 C24 1_555 1_555
C25 C16 1_555 1_555
H14 C25 1_555 1_555
C26 C15 1_555 1_555
H15 C26 1_555 1_555
O5 C27 1_555 1_555
C27 C25 1_555 1_555
Pb1D O3 1_555 1_555
Pb1_2 O5 1_555 1_555
O3D Pb1 1_555 1_555
O4D Pb1 1_555 1_555
O5_2 Pb1 1_555 1_555
O4 Pb1D 1_555 1_555
N4 C13 1_555 1_555
C4 C5 1_555 1_555
C4 C12 1_555 1_555
C7 C11 1_555 1_555
C9 C10 1_555 1_555
C11 C12 1_555 1_555
C22 C24 1_555 1_555
C26 C27 1_555 1_555

#END
