
#######################################################################
#
#                 Cambridge Crystallographic Data Centre
#                                CCDC 
#
#######################################################################
#
# If this CIF has been generated from an entry in the Cambridge 
# Structural Database, then it will include bibliographic, chemical, 
# crystal, experimental, refinement or atomic coordinate data resulting 
# from the CCDC's data processing and validation procedures.
#
#######################################################################

data_WUXHAZ
_symmetry_cell_setting           trigonal
_symmetry_space_group_name_H-M   'P 31 2 1'
_symmetry_Int_Tables_number      152
_space_group_name_Hall           'P 31 2"'
loop_
_symmetry_equiv_pos_site_id
_symmetry_equiv_pos_as_xyz
1 x,y,z
2 -y,x-y,1/3+z
3 -x+y,-x,2/3+z
4 y,x,-z
5 -x,-x+y,1/3-z
6 x-y,-y,2/3-z
_cell_length_a                   15.0313(15)
_cell_length_b                   15.0313(15)
_cell_length_c                   20.896(2)
_cell_angle_alpha                90
_cell_angle_beta                 90
_cell_angle_gamma                120
_cell_volume                     4088.72
loop_
_atom_site_label
_atom_site_type_symbol
_atom_site_fract_x
_atom_site_fract_y
_atom_site_fract_z
Pb1 Pb 0.08472(3) 1.34924(2) 0.247005(17)
O1 O 0.0407(6) 1.3369(5) 0.3672(3)
O2 O 0.2006(6) 1.4473(5) 0.3370(3)
O3 O 0.2217(5) 1.7504(5) 0.8426(3)
O4 O 0.3020(5) 1.8969(6) 0.7902(3)
N1 N 0.1834(8) 1.2372(7) 0.2450(4)
N2 N -0.0268(7) 1.1292(6) 0.2487(3)
N3 N -0.0074(7) 0.8145(6) 0.2531(4)
N4 N 0.1628(7) 0.8988(7) 0.2515(4)
H1 H 0.2249 0.9103 0.2507
C1 C 0.2841(11) 1.2903(10) 0.2436(6)
H2 H 0.3166 1.3617 0.2431
C2 C 0.3452(11) 1.2422(12) 0.2429(6)
H3 H 0.4164 1.2815 0.2400
C3 C 0.2992(11) 1.1401(11) 0.2465(5)
H4 H 0.3389 1.1086 0.2471
C4 C 0.1939(11) 1.0808(9) 0.2492(5)
C5 C 0.1307(9) 0.9691(9) 0.2502(4)
C6 C 0.0296(9) 0.9197(8) 0.2508(4)
C7 C -0.0330(10) 0.9661(8) 0.2510(5)
C8 C -0.1407(10) 0.9146(7) 0.2524(5)
H5 H -0.1784 0.8432 0.2528
C9 C -0.1885(10) 0.9696(9) 0.2530(5)
H6 H -0.2598 0.9376 0.2542
C10 C -0.1287(10) 1.0751(9) 0.2519(5)
H7 H -0.1630 1.1121 0.2535
C11 C 0.0236(9) 1.0768(8) 0.2485(4)
C12 C 0.1327(9) 1.1314(8) 0.2487(4)
C13 C 0.0775(13) 0.8119(9) 0.2532(4)
C14 C 0.0744(9) 0.7085(9) 0.2566(5)
C15 C -0.0147(10) 0.6203(9) 0.2550(5)
H8 H -0.0763 0.6206 0.2535
H9 H -0.0770 0.4670 0.2544
H10 H 0.2201 0.6098 0.2667
C16 C 0.1621(10) 0.7052(9) 0.2576(5)
H11 H 0.2250 0.7658 0.2557
C17 C 0.1272(10) 1.4161(8) 0.3765(5)
C18 C 0.1408(8) 1.4769(8) 0.4353(4)
C19 C 0.0661(8) 1.4449(9) 0.4813(5)
H12 H 0.0042 1.3844 0.4748
C20 C 0.0795(8) 1.4991(9) 0.5368(5)
H13 H 0.0264 1.4755 0.5666
C21 C 0.1715(8) 1.5888(7) 0.5491(5)
C22 C 0.2471(8) 1.6237(7) 0.5014(4)
H14 H 0.3083 1.6852 0.5073
C23 C 0.2322(8) 1.5687(8) 0.4463(5)
H15 H 0.2839 1.5929 0.4156
C24 C 0.1909(8) 1.6448(8) 0.6101(5)
C25 C 0.2457(8) 1.7492(8) 0.6134(5)
H16 H 0.2695 1.7871 0.5759
C26 C 0.2669(8) 1.8002(8) 0.6717(5)
H17 H 0.3039 1.8716 0.6726
C27 C 0.2329(7) 1.7452(8) 0.7291(5)
C28 C 0.2544(7) 1.8011(9) 0.7931(5)
C29 C 0.1762(8) 1.6404(9) 0.7259(5)
H18 H 0.1520 1.6025 0.7634
C30 C 0.1536(8) 1.5887(9) 0.6664(5)
H19 H 0.1139 1.5175 0.6649
N5 N 0.0700(8) 0.5223(7) 0.2587(4)
C31 C -0.0145(9) 0.5277(9) 0.2557(6)
C32 C 0.1590(9) 0.6107(9) 0.2615(5)
Pb1B Pb 0.26452(4) 1.91528(3) 0.913672(17)
Pb1C Pb 0.34924(2) 2.08472(3) 0.752995(17)
Pb1_2 Pb 0.08472(3) 0.34924(2) 0.247005(17)
O3A O 0.2496(5) 1.4713(7) 0.1759(3)
O4A O 0.1031(6) 1.4051(8) 0.1235(3)
O4C O -0.1031(6) 1.3020(5) 0.2098(3)
N5_2 N 0.0700(8) 1.5223(7) 0.2587(4)
loop_
_geom_bond_atom_site_label_1
_geom_bond_atom_site_label_2
_geom_bond_site_symmetry_1
_geom_bond_site_symmetry_2
Pb1 O1 1_555 1_555
O1 C17 1_555 1_555
O2 Pb1 1_555 1_555
O3 C28 1_555 1_555
O4 C28 1_555 1_555
N1 Pb1 1_555 1_555
N2 Pb1 1_555 1_555
N3 C6 1_555 1_555
N4 H1 1_555 1_555
C1 N1 1_555 1_555
H2 C1 1_555 1_555
C2 C1 1_555 1_555
H3 C2 1_555 1_555
C3 C2 1_555 1_555
H4 C3 1_555 1_555
C4 C3 1_555 1_555
C5 N4 1_555 1_555
C6 C5 1_555 1_555
C7 C6 1_555 1_555
C8 C7 1_555 1_555
H5 C8 1_555 1_555
C9 C8 1_555 1_555
H6 C9 1_555 1_555
C10 N2 1_555 1_555
H7 C10 1_555 1_555
C11 N2 1_555 1_555
C12 N1 1_555 1_555
C13 N3 1_555 1_555
C14 C13 1_555 1_555
C15 C14 1_555 1_555
H8 C15 1_555 1_555
H9 C31 1_555 1_555
H10 C32 1_555 1_555
C16 C14 1_555 1_555
H11 C16 1_555 1_555
C17 O2 1_555 1_555
C18 C17 1_555 1_555
C19 C18 1_555 1_555
H12 C19 1_555 1_555
C20 C19 1_555 1_555
H13 C20 1_555 1_555
C21 C20 1_555 1_555
C22 C21 1_555 1_555
H14 C22 1_555 1_555
C23 C18 1_555 1_555
H15 C23 1_555 1_555
C24 C21 1_555 1_555
C25 C24 1_555 1_555
H16 C25 1_555 1_555
C26 C25 1_555 1_555
H17 C26 1_555 1_555
C27 C26 1_555 1_555
C28 C27 1_555 1_555
C29 C27 1_555 1_555
H18 C29 1_555 1_555
C30 C24 1_555 1_555
H19 C30 1_555 1_555
N5 C31 1_555 1_555
C31 C15 1_555 1_555
C32 C16 1_555 1_555
Pb1B O3 1_555 1_555
Pb1C O4 1_555 1_555
Pb1_2 N5 1_555 1_555
O3A Pb1 1_555 1_555
O4A Pb1 1_555 1_555
O4C Pb1 1_555 1_555
N5_2 Pb1 1_555 1_555
O4 Pb1B 1_555 1_555
N4 C13 1_555 1_555
C4 C5 1_555 1_555
C4 C12 1_555 1_555
C7 C11 1_555 1_555
C9 C10 1_555 1_555
C11 C12 1_555 1_555
C22 C23 1_555 1_555
C29 C30 1_555 1_555
N5 C32 1_555 1_555

#END
