
#######################################################################
#
#                 Cambridge Crystallographic Data Centre
#                                CCDC 
#
#######################################################################
#
# If this CIF has been generated from an entry in the Cambridge 
# Structural Database, then it will include bibliographic, chemical, 
# crystal, experimental, refinement or atomic coordinate data resulting 
# from the CCDC's data processing and validation procedures.
#
#######################################################################

data_WUXMOR01
_symmetry_cell_setting           orthorhombic
_symmetry_space_group_name_H-M   'I 2 2 2'
_symmetry_Int_Tables_number      23
_space_group_name_Hall           'I 2 2'
loop_
_symmetry_equiv_pos_site_id
_symmetry_equiv_pos_as_xyz
1 x,y,z
2 -x,-y,z
3 x,-y,-z
4 -x,y,-z
5 1/2+x,1/2+y,1/2+z
6 1/2-x,1/2-y,1/2+z
7 1/2+x,1/2-y,1/2-z
8 1/2-x,1/2+y,1/2-z
_cell_length_a                   10.6892(12)
_cell_length_b                   11.4167(14)
_cell_length_c                   3.9364(4)
_cell_angle_alpha                90
_cell_angle_beta                 90
_cell_angle_gamma                90
_cell_volume                     480.38
loop_
_atom_site_label
_atom_site_type_symbol
_atom_site_fract_x
_atom_site_fract_y
_atom_site_fract_z
Mn1 Mn 0.00000 0.00000 1.0000
F1 F 0.16794(13) 0.00000 1.0000
F2 F 0.00000 0.00000 0.5000
N1 N 0.00000 0.18927(14) 1.0000
C1 C 0.10044(18) 0.25036(18) 0.8948(6)
C2 C 0.10502(18) 0.37174(18) 0.8949(6)
C3 C 0.00000 0.43481(17) 1.0000
H1 H 0.186(3) 0.201(2) 0.827(8)
H2 H 0.175(3) 0.415(3) 0.805(9)
C2C C -0.10502(18) 0.37174(18) 1.1051(6)
C1C C -0.10044(18) 0.25036(18) 1.1052(6)
H1C H -0.186(3) 0.201(2) 1.173(8)
H2C H -0.175(3) 0.415(3) 1.195(9)
C3A C 0.00000 0.56519(17) 1.0000
C2A C -0.10502(18) 0.62826(18) 0.8949(6)
C1A C -0.10044(18) 0.74964(18) 0.8948(6)
N1A N 0.00000 0.81073(14) 1.0000
C1B C 0.10044(18) 0.74964(18) 1.1052(6)
C2B C 0.10502(18) 0.62826(18) 1.1051(6)
H2B H 0.175(3) 0.585(3) 1.195(9)
H1B H 0.186(3) 0.799(2) 1.173(8)
H1A H -0.186(3) 0.799(2) 0.827(8)
H2A H -0.175(3) 0.585(3) 0.805(9)
F1A F -0.16794(13) 0.00000 1.0000
F2_2 F 0.00000 0.00000 1.5000
N1A_2 N 0.00000 -0.18927(14) 1.0000
Mn1_2 Mn 0.00000 0.00000 0.0000
Mn1_3 Mn 0.00000 1.00000 1.0000
loop_
_geom_bond_atom_site_label_1
_geom_bond_atom_site_label_2
_geom_bond_site_symmetry_1
_geom_bond_site_symmetry_2
Mn1 F1 1_555 1_555
F2 Mn1 1_555 1_555
N1 Mn1 1_555 1_555
C1 N1 1_555 1_555
C2 C1 1_555 1_555
C3 C2 1_555 1_555
H1 C1 1_555 1_555
H2 C2 1_555 1_555
C2C C3 1_555 1_555
C1C N1 1_555 1_555
H1C C1C 1_555 1_555
H2C C2C 1_555 1_555
C3A C3 1_555 1_555
C2A C3A 1_555 1_555
C1A C2A 1_555 1_555
N1A C1A 1_555 1_555
C1B N1A 1_555 1_555
C2B C3A 1_555 1_555
H2B C2B 1_555 1_555
H1B C1B 1_555 1_555
H1A C1A 1_555 1_555
H2A C2A 1_555 1_555
F1A Mn1 1_555 1_555
F2_2 Mn1 1_555 1_555
N1A_2 Mn1 1_555 1_555
Mn1_2 F2 1_555 1_555
Mn1_3 N1A 1_555 1_555
C2C C1C 1_555 1_555
C1B C2B 1_555 1_555

#END
