
#######################################################################
#
#                 Cambridge Crystallographic Data Centre
#                                CCDC 
#
#######################################################################
#
# If this CIF has been generated from an entry in the Cambridge 
# Structural Database, then it will include bibliographic, chemical, 
# crystal, experimental, refinement or atomic coordinate data resulting 
# from the CCDC's data processing and validation procedures.
#
#######################################################################

data_WUXVIV
_symmetry_cell_setting           monoclinic
_symmetry_space_group_name_H-M   'P 21/n'
_symmetry_Int_Tables_number      14
_space_group_name_Hall           '-P 2yn'
loop_
_symmetry_equiv_pos_site_id
_symmetry_equiv_pos_as_xyz
1 x,y,z
2 1/2-x,1/2+y,1/2-z
3 -x,-y,-z
4 1/2+x,1/2-y,1/2+z
_cell_length_a                   9.0397(3)
_cell_length_b                   33.9825(14)
_cell_length_c                   12.4503(4)
_cell_angle_alpha                90
_cell_angle_beta                 110.173(3)
_cell_angle_gamma                90
_cell_volume                     3590.01
loop_
_atom_site_label
_atom_site_type_symbol
_atom_site_fract_x
_atom_site_fract_y
_atom_site_fract_z
C1 C -0.3663(5) 0.12930(17) -0.2828(5)
H1 H -0.3804 0.1080 -0.3361
H2 H -0.3726 0.1539 -0.3222
H3 H -0.4473 0.1283 -0.2493
C2 C -0.1860(7) 0.15911(15) -0.1121(5)
H4 H -0.1829 0.1832 -0.1514
H5 H -0.0881 0.1557 -0.0501
H6 H -0.2710 0.1601 -0.0825
C3 C 0.0165(9) 0.23353(19) -0.5940(7)
H7 H 0.0598 0.2593 -0.5945
H8 H -0.0782 0.2356 -0.5758
H9 H -0.0075 0.2217 -0.6681
C4 C 0.1879(11) 0.2317(2) -0.4006(7)
H10 H 0.2616 0.2161 -0.3422
H11 H 0.1003 0.2385 -0.3773
H12 H 0.2388 0.2553 -0.4121
Zn1 Zn 0.03075(5) 0.153330(11) -0.48305(3)
Zn2 Zn -0.03155(5) 0.119400(12) -0.26994(3)
N1 N 0.1842(4) 0.12668(9) -0.1399(3)
O11 O -0.0593(3) 0.16570(8) -0.3659(2)
H13 H -0.1064 0.1893 -0.3575
O12 O 0.0532(3) 0.09990(7) -0.3971(2)
N2 N 0.8413(3) 0.14640(9) 0.3656(3)
C5 C 0.4189(5) 0.09956(12) -0.0065(3)
H14 H 0.4847 0.0779 0.0184
C6 C 0.1192(4) 0.06660(10) -0.4066(3)
N3 N -0.0848(4) 0.06066(9) -0.2605(3)
C7 C 0.4560(4) 0.13518(12) 0.0501(3)
C8 C 0.5916(4) 0.13917(11) 0.1596(3)
C9 C -0.0225(5) 0.03112(11) -0.2914(4)
H15 H -0.0495 0.0064 -0.2720
C10 C 0.0861(4) 0.03217(10) -0.3536(3)
N4 N 0.2148(4) 0.13131(10) -0.5289(3)
C11 C 0.2244(5) 0.16140(12) -0.0875(4)
H16 H 0.1595 0.1829 -0.1163
C12 C 0.2234(4) 0.06321(11) -0.4672(3)
C13 C 0.5800(4) 0.16286(13) 0.2470(3)
H17 H 0.4884 0.1771 0.2373
C14 C 0.8524(4) 0.12391(12) 0.2817(3)
H18 H 0.9471 0.1109 0.2926
C15 C 0.7311(5) 0.11874(12) 0.1794(3)
H19 H 0.7427 0.1018 0.1242
N5 N -0.2107(4) 0.12585(10) -0.1922(3)
C16 C 0.2887(4) 0.02679(12) -0.4759(4)
H20 H 0.3564 0.0251 -0.5175
C17 C 0.2827(5) 0.09668(12) -0.1006(3)
H21 H 0.2586 0.0726 -0.1384
C18 C 0.2570(4) -0.00732(11) -0.4250(4)
C19 C 0.7050(4) 0.16507(13) 0.3482(3)
H22 H 0.6943 0.1803 0.4072
C20 C 0.3284(6) -0.04708(13) -0.4381(5)
H23 H 0.4000 -0.0555 -0.3651
H24 H 0.3842 -0.0445 -0.4909
H25 H 0.2458 -0.0662 -0.4666
C21 C 0.1556(5) -0.00375(11) -0.3654(4)
H26 H 0.1317 -0.0261 -0.3313
C22 C 0.2694(4) 0.09649(12) -0.5210(4)
H27 H 0.3468 0.0920 -0.5531
N6 N 0.1311(5) 0.20918(11) -0.5082(4)
C23 C 0.3562(5) 0.16668(12) 0.0063(3)
H28 H 0.3790 0.1913 0.0407
C24 C -0.2010(6) 0.08853(14) -0.1286(4)
H29 H -0.2907 0.0866 -0.1032
H30 H -0.1061 0.0886 -0.0614
C25 C -0.1985(6) 0.05353(13) -0.2014(5)
H31 H -0.1682 0.0302 -0.1539
H32 H -0.3028 0.0492 -0.2572
C26 C 0.2624(12) 0.19853(17) -0.5436(10)
H33 H 0.2623 0.2169 -0.6033
H34 H 0.3576 0.2037 -0.4790
C27 C 0.2781(8) 0.16210(15) -0.5823(6)
H35 H 0.3889 0.1569 -0.5675
H36 H 0.2241 0.1613 -0.6644
Zn1_2 Zn 1.03075(5) 0.153330(11) 0.51695(3)
N2_2 N -0.1587(3) 0.14640(9) -0.6344(3)
Cl1 Cl 0.16888(16) 0.06722(4) 0.16330(11)
O1 O 0.1401(7) 0.04577(14) 0.0621(4)
O2 O 0.0607(9) 0.05894(14) 0.2140(7)
O3 O 0.1602(9) 0.10637(13) 0.1407(6)
O4 O 0.3086(8) 0.0554(3) 0.2332(6)
Cl2 Cl 0.17418(15) 0.24703(3) 0.12163(13)
O5 O 0.1045(6) 0.27319(16) 0.1767(5)
O6 O 0.3334(6) 0.2470(2) 0.1811(7)
O7 O 0.1136(11) 0.21178(18) 0.1210(8)
O8 O 0.1578(11) 0.2565(3) 0.0147(7)
O9 O -0.2733(14) 0.0173(3) 0.0545(9)
O10 O -0.485(2) 0.0092(5) -0.1249(19)
loop_
_geom_bond_atom_site_label_1
_geom_bond_atom_site_label_2
_geom_bond_site_symmetry_1
_geom_bond_site_symmetry_2
C1 H1 1_555 1_555
H2 C1 1_555 1_555
H3 C1 1_555 1_555
C2 H4 1_555 1_555
H5 C2 1_555 1_555
H6 C2 1_555 1_555
C3 H7 1_555 1_555
H8 C3 1_555 1_555
H9 C3 1_555 1_555
C4 H10 1_555 1_555
H11 C4 1_555 1_555
H12 C4 1_555 1_555
Cl1 O1 1_555 1_555
O2 Cl1 1_555 1_555
O3 Cl1 1_555 1_555
O4 Cl1 1_555 1_555
Cl2 O5 1_555 1_555
O6 Cl2 1_555 1_555
O7 Cl2 1_555 1_555
O8 Cl2 1_555 1_555
Zn1 O11 1_555 1_555
Zn2 N1 1_555 1_555
N1 C11 1_555 1_555
O11 Zn2 1_555 1_555
H13 O11 1_555 1_555
O12 Zn1 1_555 1_555
N2 C14 1_555 1_555
C5 H14 1_555 1_555
C6 O12 1_555 1_555
N3 Zn2 1_555 1_555
C7 C5 1_555 1_555
C8 C7 1_555 1_555
C9 N3 1_555 1_555
H15 C9 1_555 1_555
C10 C6 1_555 1_555
N4 Zn1 1_555 1_555
C11 H16 1_555 1_555
C12 C6 1_555 1_555
C13 C8 1_555 1_555
H17 C13 1_555 1_555
C14 H18 1_555 1_555
C15 C8 1_555 1_555
H19 C15 1_555 1_555
N5 C1 1_555 1_555
C16 C12 1_555 1_555
H20 C16 1_555 1_555
C17 N1 1_555 1_555
H21 C17 1_555 1_555
C18 C16 1_555 1_555
C19 N2 1_555 1_555
H22 C19 1_555 1_555
C20 C18 1_555 1_555
H23 C20 1_555 1_555
H24 C20 1_555 1_555
H25 C20 1_555 1_555
C21 C10 1_555 1_555
H26 C21 1_555 1_555
C22 N4 1_555 1_555
H27 C22 1_555 1_555
N6 C3 1_555 1_555
C23 C7 1_555 1_555
H28 C23 1_555 1_555
C24 N5 1_555 1_555
H29 C24 1_555 1_555
H30 C24 1_555 1_555
C25 N3 1_555 1_555
H31 C25 1_555 1_555
H32 C25 1_555 1_555
C26 N6 1_555 1_555
H33 C26 1_555 1_555
H34 C26 1_555 1_555
C27 N4 1_555 1_555
H35 C27 1_555 1_555
H36 C27 1_555 1_555
Zn1_2 N2 1_555 1_555
N2_2 Zn1 1_555 1_555
C2 N5 1_555 1_555
C4 N6 1_555 1_555
Zn1 N6 1_555 1_555
Zn2 O12 1_555 1_555
Zn2 N5 1_555 1_555
C5 C17 1_555 1_555
C9 C10 1_555 1_555
C11 C23 1_555 1_555
C12 C22 1_555 1_555
C13 C19 1_555 1_555
C14 C15 1_555 1_555
C18 C21 1_555 1_555
C24 C25 1_555 1_555
C26 C27 1_555 1_555

#END
