
#######################################################################
#
#                 Cambridge Crystallographic Data Centre
#                                CCDC 
#
#######################################################################
#
# If this CIF has been generated from an entry in the Cambridge 
# Structural Database, then it will include bibliographic, chemical, 
# crystal, experimental, refinement or atomic coordinate data resulting 
# from the CCDC's data processing and validation procedures.
#
#######################################################################

data_WUXVOB
_symmetry_cell_setting           monoclinic
_symmetry_space_group_name_H-M   'P 21/c'
_symmetry_Int_Tables_number      14
_space_group_name_Hall           '-P 2ybc'
loop_
_symmetry_equiv_pos_site_id
_symmetry_equiv_pos_as_xyz
1 x,y,z
2 -x,1/2+y,1/2-z
3 -x,-y,-z
4 x,1/2-y,1/2+z
_cell_length_a                   10.9507(6)
_cell_length_b                   15.2354(7)
_cell_length_c                   21.4721(12)
_cell_angle_alpha                90
_cell_angle_beta                 94.931(4)
_cell_angle_gamma                90
_cell_volume                     3569.11
loop_
_atom_site_label
_atom_site_type_symbol
_atom_site_fract_x
_atom_site_fract_y
_atom_site_fract_z
C1 C 0.3363(5) 0.1754(4) 0.2813(2)
H1 H 0.3961 0.1307 0.2759
H2 H 0.2803 0.1554 0.3103
H3 H 0.3769 0.2276 0.2973
C2 C 0.2063(5) 0.1149(3) 0.1970(3)
H4 H 0.1623 0.1272 0.1573
H5 H 0.1498 0.0955 0.2259
H6 H 0.2658 0.0698 0.1919
C3 C 0.1741(4) 0.2640(3) 0.2265(2)
H7 H 0.1244 0.2489 0.2603
H8 H 0.1208 0.2662 0.1881
C4 C 0.2313(4) 0.3528(3) 0.2390(2)
H9 H 0.1684 0.3978 0.2359
H10 H 0.2721 0.3545 0.2809
C5 C 0.3386(4) 0.4488(3) 0.17705(18)
H11 H 0.2914 0.4915 0.1945
C6 C 0.4260(3) 0.4792(2) 0.13437(17)
C7 C 0.5188(3) 0.4241(2) 0.11344(15)
C8 C 0.4222(4) 0.5673(3) 0.11627(18)
H12 H 0.3610 0.6028 0.1302
C9 C 0.5043(4) 0.6045(2) 0.07899(18)
C10 C 0.4963(5) 0.7000(3) 0.0596(2)
H13 H 0.5611 0.7133 0.0338
H14 H 0.5039 0.7365 0.0962
H15 H 0.4186 0.7107 0.0366
C11 C 0.5961(4) 0.5514(2) 0.06036(17)
H16 H 0.6533 0.5755 0.0357
C12 C 0.6073(3) 0.4628(2) 0.07689(16)
C13 C 0.7073(4) 0.4137(3) 0.05414(17)
H17 H 0.7544 0.4421 0.0262
C14 C 0.8388(4) 0.2940(3) 0.0383(2)
H18 H 0.9031 0.3367 0.0337
H19 H 0.8096 0.2729 -0.0030
C15 C 0.8879(4) 0.2182(3) 0.0787(2)
H20 H 0.9424 0.1830 0.0556
H21 H 0.9349 0.2410 0.1155
C16 C 0.7221(6) 0.1166(4) 0.0444(3)
H22 H 0.6885 0.1592 0.0148
H23 H 0.6571 0.0816 0.0587
H24 H 0.7785 0.0794 0.0249
C17 C 0.8390(6) 0.0970(4) 0.1439(3)
H25 H 0.7744 0.0604 0.1569
H26 H 0.8783 0.1268 0.1796
H27 H 0.8979 0.0613 0.1250
C18 C -0.1675(4) 0.1360(3) -0.27256(19)
H28 H -0.1627 0.0983 -0.3064
C19 C -0.1012(4) 0.1158(3) -0.21749(19)
H29 H -0.0530 0.0655 -0.2144
C20 C -0.1062(4) 0.1708(3) -0.16638(18)
C21 C -0.1804(5) 0.2428(4) -0.1737(2)
H30 H -0.1870 0.2810 -0.1404
C22 C -0.2451(5) 0.2589(3) -0.2300(2)
H31 H -0.2958 0.3079 -0.2337
C23 C -0.0295(4) 0.1559(3) -0.10528(19)
H32 H -0.0714 0.1802 -0.0712
H33 H -0.0192 0.0934 -0.0981
C24 C 0.0959(4) 0.1990(4) -0.10640(19)
H34 H 0.0855 0.2563 -0.1258
H35 H 0.1456 0.1638 -0.1321
C25 C 0.1634(4) 0.2098(3) -0.04276(18)
C26 C 0.2406(5) 0.1455(3) -0.0164(2)
H36 H 0.2512 0.0931 -0.0374
C27 C 0.3018(4) 0.1602(3) 0.0417(2)
H37 H 0.3545 0.1166 0.0583
C28 C 0.2130(4) 0.2951(3) 0.04870(18)
H38 H 0.2027 0.3466 0.0709
C29 C 0.1505(4) 0.2859(3) -0.00837(19)
H39 H 0.0991 0.3306 -0.0244
N1 N 0.2687(3) 0.1948(2) 0.22106(16)
N2 N 0.3204(3) 0.3692(2) 0.19286(14)
N3 N 0.7369(3) 0.3350(2) 0.06890(15)
N4 N 0.7873(3) 0.1621(2) 0.09821(18)
N5 N -0.2385(3) 0.2068(2) -0.28011(15)
O1 O 0.5222(2) 0.34087(17) 0.12720(13)
O2 O 0.5350(2) 0.18226(18) 0.16299(14)
H40 H 0.5407 0.1236 0.1750
Zn1 Zn 0.39063(4) 0.25580(3) 0.158972(18)
Zn2 Zn 0.66639(4) 0.25681(3) 0.136627(19)
N6 N 0.2902(3) 0.2325(2) 0.07525(15)
N5C N 0.7615(3) 0.2932(2) 0.21989(15)
Zn2C Zn -0.33361(4) 0.24319(3) -0.363373(19)
Cl1 Cl 0.01824(11) 0.52790(8) 0.13067(6)
O3 O 0.0306(4) 0.4353(3) 0.1225(2)
O4 O 0.0908(5) 0.5744(4) 0.0907(2)
O5 O 0.0590(4) 0.5484(3) 0.19440(19)
O6 O -0.1057(4) 0.5520(3) 0.1184(3)
Cl2 Cl 0.48353(17) 0.93495(9) 0.14653(9)
O7 O 0.5885(8) 0.9155(6) 0.1215(4)
O8 O 0.5108(8) 1.0014(3) 0.1907(3)
O9 O 0.3902(10) 0.9563(6) 0.1078(4)
O10 O 0.4616(6) 0.8577(4) 0.1796(3)
loop_
_geom_bond_atom_site_label_1
_geom_bond_atom_site_label_2
_geom_bond_site_symmetry_1
_geom_bond_site_symmetry_2
C1 H1 1_555 1_555
H2 C1 1_555 1_555
H3 C1 1_555 1_555
C2 H4 1_555 1_555
H5 C2 1_555 1_555
H6 C2 1_555 1_555
C3 H7 1_555 1_555
H8 C3 1_555 1_555
C4 C3 1_555 1_555
H9 C4 1_555 1_555
H10 C4 1_555 1_555
C5 H11 1_555 1_555
C6 C5 1_555 1_555
C7 C6 1_555 1_555
C8 C6 1_555 1_555
H12 C8 1_555 1_555
C9 C8 1_555 1_555
C10 C9 1_555 1_555
H13 C10 1_555 1_555
H14 C10 1_555 1_555
H15 C10 1_555 1_555
C11 C9 1_555 1_555
H16 C11 1_555 1_555
C12 C7 1_555 1_555
C13 C12 1_555 1_555
H17 C13 1_555 1_555
C14 H18 1_555 1_555
H19 C14 1_555 1_555
C15 C14 1_555 1_555
H20 C15 1_555 1_555
H21 C15 1_555 1_555
C16 H22 1_555 1_555
H23 C16 1_555 1_555
H24 C16 1_555 1_555
C17 H25 1_555 1_555
H26 C17 1_555 1_555
H27 C17 1_555 1_555
C18 H28 1_555 1_555
C19 C18 1_555 1_555
H29 C19 1_555 1_555
C20 C19 1_555 1_555
C21 C20 1_555 1_555
H30 C21 1_555 1_555
C22 C21 1_555 1_555
H31 C22 1_555 1_555
C23 C20 1_555 1_555
H32 C23 1_555 1_555
H33 C23 1_555 1_555
C24 C23 1_555 1_555
H34 C24 1_555 1_555
H35 C24 1_555 1_555
C25 C24 1_555 1_555
C26 C25 1_555 1_555
H36 C26 1_555 1_555
C27 C26 1_555 1_555
H37 C27 1_555 1_555
C28 H38 1_555 1_555
C29 C25 1_555 1_555
H39 C29 1_555 1_555
Cl1 O3 1_555 1_555
Cl2 O7 1_555 1_555
N1 C1 1_555 1_555
N2 C4 1_555 1_555
N3 C13 1_555 1_555
N4 C15 1_555 1_555
N5 C18 1_555 1_555
O1 C7 1_555 1_555
O2 H40 1_555 1_555
O4 Cl1 1_555 1_555
O5 Cl1 1_555 1_555
O6 Cl1 1_555 1_555
O8 Cl2 1_555 1_555
O9 Cl2 1_555 1_555
O10 Cl2 1_555 1_555
Zn1 N1 1_555 1_555
Zn2 N3 1_555 1_555
N6 C27 1_555 1_555
N5C Zn2 1_555 1_555
Zn2C N5 1_555 1_555
C2 N1 1_555 1_555
C3 N1 1_555 1_555
C5 N2 1_555 1_555
C11 C12 1_555 1_555
C14 N3 1_555 1_555
C16 N4 1_555 1_555
C17 N4 1_555 1_555
C22 N5 1_555 1_555
C28 C29 1_555 1_555
C28 N6 1_555 1_555
N2 Zn1 1_555 1_555
N4 Zn2 1_555 1_555
O1 Zn1 1_555 1_555
O1 Zn2 1_555 1_555
O2 Zn1 1_555 1_555
O2 Zn2 1_555 1_555
Zn1 N6 1_555 1_555

#END
