
#######################################################################
#
#                 Cambridge Crystallographic Data Centre
#                                CCDC 
#
#######################################################################
#
# If this CIF has been generated from an entry in the Cambridge 
# Structural Database, then it will include bibliographic, chemical, 
# crystal, experimental, refinement or atomic coordinate data resulting 
# from the CCDC's data processing and validation procedures.
#
#######################################################################

data_WUYFIF
_symmetry_cell_setting           monoclinic
_symmetry_space_group_name_H-M   'C 2/c'
_symmetry_Int_Tables_number      15
_space_group_name_Hall           '-C 2yn'
loop_
_symmetry_equiv_pos_site_id
_symmetry_equiv_pos_as_xyz
1 x,y,z
2 x,-y,1/2+z
3 1/2+x,1/2+y,z
4 1/2+x,1/2-y,1/2+z
5 -x,-y,-z
6 -x,y,1/2-z
7 1/2-x,1/2-y,-z
8 1/2-x,1/2+y,1/2-z
_cell_length_a                   25.038(5)
_cell_length_b                   10.574(2)
_cell_length_c                   12.3950(4)
_cell_angle_alpha                90
_cell_angle_beta                 99.7825(9)
_cell_angle_gamma                90
_cell_volume                     3233.88
loop_
_atom_site_label
_atom_site_type_symbol
_atom_site_fract_x
_atom_site_fract_y
_atom_site_fract_z
Ag1 Ag 0.46826(2) 0.45447(4) 0.09536(3)
S1 S 0.44913(5) 0.2047(1) 0.02763(9)
F1 F 0.3401(2) 0.3841(5) -0.2570(5)
F2 F 0.3563(2) 0.5491(5) -0.3408(4)
F3 F 0.2913(2) 0.4911(8) -0.1086(7)
F4 F 0.2628(2) 0.5628(8) -0.2836(5)
F5 F 0.2615(2) 0.7230(6) -0.1261(6)
F6 F 0.3248(4) 0.7530(7) -0.2424(7)
F7 F 0.3460(2) 0.6969(7) -0.0681(7)
O1 O 0.4099(2) 0.4617(4) -0.0752(4)
O2 O 0.4466(2) 0.5681(4) -0.2013(4)
N1 N 0.4493(2) -0.3264(4) 0.1275(4)
C1 C 0.4896(2) 0.0977(4) 0.1077(3)
C2 C 0.4577(2) 0.0053(4) 0.1412(4)
C3 C 0.4005(2) 0.0228(4) 0.1045(4)
C4 C 0.3897(2) 0.1289(5) 0.0425(4)
C5 C 0.4805(2) -0.1063(4) 0.2046(3)
C6 C 0.4619(2) -0.2288(4) 0.1626(4)
C7 C 0.5492(2) 0.1137(5) 0.1265(4)
C8 C 0.3573(2) -0.0614(6) 0.1359(6)
C9 C 0.3363(2) 0.1811(6) -0.0121(5)
C10 C 0.4097(2) 0.5143(5) -0.1650(5)
C11 C 0.3538(2) 0.5070(6) -0.2425(5)
C12 C 0.3058(3) 0.567(1) -0.2042(8)
C13 C 0.3051(4) 0.677(1) -0.151(1)
H1 H 0.5653 0.0434 0.0967
H2 H 0.5582 0.1891 0.0921
H3 H 0.5624 0.1187 0.2030
H4 H 0.3353 -0.0140 0.1764
H5 H 0.3356 -0.0941 0.0717
H6 H 0.3738 -0.1293 0.1796
H7 H 0.3421 0.2573 -0.0490
H8 H 0.3187 0.1213 -0.0633
H9 H 0.3143 0.1979 0.0415
C5E C 0.5195(2) -0.1063(4) 0.2954(3)
C2E C 0.5423(2) 0.0053(4) 0.3588(4)
C1E C 0.5104(2) 0.0977(4) 0.3923(3)
S1E S 0.55087(5) 0.2047(1) 0.47237(9)
C4E C 0.6103(2) 0.1289(5) 0.4575(4)
C3E C 0.5995(2) 0.0228(4) 0.3955(4)
C8E C 0.6427(2) -0.0614(6) 0.3641(6)
H4E H 0.6647 -0.0140 0.3236
H5E H 0.6644 -0.0941 0.4283
H6E H 0.6262 -0.1293 0.3204
C9E C 0.6637(2) 0.1811(6) 0.5121(5)
H7E H 0.6579 0.2573 0.5490
H8E H 0.6813 0.1213 0.5633
H9E H 0.6857 0.1979 0.4585
C7E C 0.4508(2) 0.1137(5) 0.3735(4)
H1E H 0.4347 0.0434 0.4033
H2E H 0.4418 0.1891 0.4079
H3E H 0.4376 0.1187 0.2970
C6E C 0.5381(2) -0.2288(4) 0.3374(4)
N1E N 0.5507(2) -0.3264(4) 0.3725(4)
F1D F 0.6599(2) 0.6159(5) 0.2570(5)
F2D F 0.6437(2) 0.4509(5) 0.3408(4)
F3D F 0.7087(2) 0.5089(8) 0.1086(7)
F4D F 0.7372(2) 0.4372(8) 0.2836(5)
F5D F 0.7385(2) 0.2770(6) 0.1261(6)
F6D F 0.6752(4) 0.2470(7) 0.2424(7)
F7D F 0.6540(2) 0.3031(7) 0.0681(7)
O1D O 0.5901(2) 0.5383(4) 0.0752(4)
O2D O 0.5534(2) 0.4319(4) 0.2013(4)
C10D C 0.5903(2) 0.4857(5) 0.1650(5)
C11D C 0.6462(2) 0.4930(6) 0.2425(5)
C12D C 0.6942(3) 0.433(1) 0.2042(8)
C13D C 0.6949(4) 0.323(1) 0.151(1)
Ag1E Ag 0.53174(2) 0.45447(4) 0.40464(3)
N1_2 N 0.4493(2) 0.6736(4) 0.1275(4)
Ag1D Ag 0.53174(2) 0.54553(4) -0.09536(3)
Ag1_2 Ag 0.46826(2) -0.54553(4) 0.09536(3)
Ag1E_2 Ag 0.53174(2) -0.54553(4) 0.40464(3)
O1E O 0.5901(2) 0.4617(4) 0.5752(4)
O2A O 0.4466(2) 0.4319(4) 0.2987(4)
N1E_2 N 0.5507(2) 0.6736(4) 0.3725(4)
loop_
_geom_bond_atom_site_label_1
_geom_bond_atom_site_label_2
_geom_bond_site_symmetry_1
_geom_bond_site_symmetry_2
Ag1 S1 1_555 1_555
S1 C1 1_555 1_555
F1 C11 1_555 1_555
F2 C11 1_555 1_555
F3 C12 1_555 1_555
F4 C12 1_555 1_555
F5 C13 1_555 1_555
F6 C13 1_555 1_555
F7 C13 1_555 1_555
O1 Ag1 1_555 1_555
O2 C10 1_555 1_555
N1 C6 1_555 1_555
C1 C2 1_555 1_555
C2 C3 1_555 1_555
C3 C4 1_555 1_555
C4 S1 1_555 1_555
C5 C2 1_555 1_555
C6 C5 1_555 1_555
C7 C1 1_555 1_555
C8 C3 1_555 1_555
C9 C4 1_555 1_555
C10 O1 1_555 1_555
C11 C10 1_555 1_555
C12 C11 1_555 1_555
C13 C12 1_555 1_555
H1 C7 1_555 1_555
H2 C7 1_555 1_555
H3 C7 1_555 1_555
H4 C8 1_555 1_555
H5 C8 1_555 1_555
H6 C8 1_555 1_555
H7 C9 1_555 1_555
H8 C9 1_555 1_555
H9 C9 1_555 1_555
C5E C5 1_555 1_555
C2E C5E 1_555 1_555
C1E C2E 1_555 1_555
S1E C1E 1_555 1_555
C4E S1E 1_555 1_555
C3E C2E 1_555 1_555
C8E C3E 1_555 1_555
H4E C8E 1_555 1_555
H5E C8E 1_555 1_555
H6E C8E 1_555 1_555
C9E C4E 1_555 1_555
H7E C9E 1_555 1_555
H8E C9E 1_555 1_555
H9E C9E 1_555 1_555
C7E C1E 1_555 1_555
H1E C7E 1_555 1_555
H2E C7E 1_555 1_555
H3E C7E 1_555 1_555
C6E C5E 1_555 1_555
N1E C6E 1_555 1_555
F1D C11D 1_555 1_555
F2D C11D 1_555 1_555
F3D C12D 1_555 1_555
F4D C12D 1_555 1_555
F5D C13D 1_555 1_555
F6D C13D 1_555 1_555
F7D C13D 1_555 1_555
O1D C10D 1_555 1_555
O2D Ag1 1_555 1_555
C10D O2D 1_555 1_555
C11D C10D 1_555 1_555
C12D C11D 1_555 1_555
C13D C12D 1_555 1_555
Ag1E S1E 1_555 1_555
N1_2 Ag1 1_555 1_555
Ag1D O2 1_555 1_555
Ag1_2 N1 1_555 1_555
Ag1E_2 N1E 1_555 1_555
O1E Ag1E 1_555 1_555
O2A Ag1E 1_555 1_555
N1E_2 Ag1E 1_555 1_555
C4E C3E 1_555 1_555
O1D Ag1D 1_555 1_555

#END
