
#######################################################################
#
#                 Cambridge Crystallographic Data Centre
#                                CCDC 
#
#######################################################################
#
# If this CIF has been generated from an entry in the Cambridge 
# Structural Database, then it will include bibliographic, chemical, 
# crystal, experimental, refinement or atomic coordinate data resulting 
# from the CCDC's data processing and validation procedures.
#
#######################################################################

data_WUYFAY
_symmetry_cell_setting           triclinic
_symmetry_space_group_name_H-M   'P -1'
_symmetry_Int_Tables_number      2
_space_group_name_Hall           '-P 1'
loop_
_symmetry_equiv_pos_site_id
_symmetry_equiv_pos_as_xyz
1 x,y,z
2 -x,-y,-z
_cell_length_a                   9.376(3)
_cell_length_b                   10.018(3)
_cell_length_c                   12.443(4)
_cell_angle_alpha                67.121(4)
_cell_angle_beta                 87.832(5)
_cell_angle_gamma                81.136(5)
_cell_volume                     1063.63
loop_
_atom_site_label
_atom_site_type_symbol
_atom_site_fract_x
_atom_site_fract_y
_atom_site_fract_z
Nd1 Nd 0.68881(3) 1.10966(3) 0.45042(2)
O1 O 0.5564(3) 0.9020(3) 0.4506(2)
O2 O 0.3991(3) 0.8178(3) 0.3748(3)
O3 O 0.8972(3) 0.9700(3) 0.4027(3)
O4 O 1.1129(3) 0.8372(4) 0.4703(3)
O5 O 0.7216(4) 1.2063(4) 0.2274(3)
O6 O 0.4978(4) 1.2121(4) 0.2848(3)
O7 O 0.6512(4) 1.3803(3) 0.3774(3)
H1 H 0.6636 1.4319 0.4154
H2 H 0.6171 1.4253 0.3082
O8 O 0.7483(4) 0.8928(3) 0.6363(3)
H3 H 0.6775 0.8510 0.6701
H4 H 0.8199 0.8862 0.6786
N1 N 0.8734(4) 0.7993(4) 0.2350(3)
N2 N 0.7393(4) 0.5690(4) 0.4816(3)
N3 N 0.4335(7) 1.4172(5) -0.1516(4)
C1 C 0.5197(5) 0.8536(5) 0.3756(4)
C2 C 0.6265(5) 0.8505(5) 0.2827(4)
C3 C 0.5895(5) 0.9251(5) 0.1657(4)
H5 H 0.4942 0.9661 0.1425
C4 C 0.6948(6) 0.9382(6) 0.0839(4)
H6 H 0.6724 0.9879 0.0047
C5 C 0.8342(6) 0.8758(6) 0.1222(4)
H7 H 0.9056 0.8872 0.0668
C6 C 0.7694(5) 0.7836(5) 0.3135(4)
C7 C 0.8101(5) 0.6851(5) 0.4376(4)
C8 C 0.7706(6) 0.4770(5) 0.5924(4)
H8 H 0.7203 0.3980 0.6251
C9 C 0.8748(6) 0.4941(5) 0.6608(4)
H9 H 0.8939 0.4271 0.7371
C10 C 0.9485(5) 0.6102(5) 0.6145(4)
H10 H 1.0215 0.6212 0.6575
C11 C 0.9127(5) 0.7121(5) 0.5015(4)
C12 C 0.9790(5) 0.8508(5) 0.4540(4)
C13 C 0.5891(6) 1.2328(5) 0.2044(4)
C14 C 0.5340(6) 1.2934(5) 0.0791(4)
C15 C 0.3891(7) 1.3311(6) 0.0521(4)
H11 H 0.3218 1.3154 0.1110
C16 C 0.3439(8) 1.3935(6) -0.0649(5)
H12 H 0.2454 1.4197 -0.0823
C17 C 0.5718(9) 1.3752(7) -0.1237(5)
H13 H 0.6365 1.3887 -0.1843
C18 C 0.6281(7) 1.3124(6) -0.0108(4)
H14 H 0.7271 1.2840 0.0037
Nd1A Nd 0.31119(3) 0.89034(3) 0.54958(2)
Nd1A_2 Nd 1.31119(3) 0.89034(3) 0.54958(2)
O1A O 0.4436(3) 1.0980(3) 0.5494(2)
O2A O 0.6009(3) 1.1822(3) 0.6252(3)
O4A O 0.8871(3) 1.1628(4) 0.5297(3)
O9 O 0.9588(5) 0.8130(6) 0.8249(4)
H15 H 0.9309 0.9012 0.8179
H16 H 1.0504 0.7787 0.8426
O10 O 0.8331(5) 0.1019(5) 0.8048(3)
H17 H 0.8991 0.1544 0.7772
H18 H 0.7647 0.1112 0.7583
O11 O 0.028(3) 0.536(3) 0.053(2)
loop_
_geom_bond_atom_site_label_1
_geom_bond_atom_site_label_2
_geom_bond_site_symmetry_1
_geom_bond_site_symmetry_2
Nd1 O1 1_555 1_555
O1 C1 1_555 1_555
O2 C1 1_555 1_555
O3 Nd1 1_555 1_555
O4 C12 1_555 1_555
O5 Nd1 1_555 1_555
O6 Nd1 1_555 1_555
O7 Nd1 1_555 1_555
H1 O7 1_555 1_555
H2 O7 1_555 1_555
O8 Nd1 1_555 1_555
H3 O8 1_555 1_555
H4 O8 1_555 1_555
N1 C5 1_555 1_555
N2 C7 1_555 1_555
N3 C16 1_555 1_555
C1 C2 1_555 1_555
C2 C3 1_555 1_555
C3 H5 1_555 1_555
C4 C3 1_555 1_555
H6 C4 1_555 1_555
C5 C4 1_555 1_555
H7 C5 1_555 1_555
C6 N1 1_555 1_555
C7 C6 1_555 1_555
C8 N2 1_555 1_555
H8 C8 1_555 1_555
C9 C8 1_555 1_555
H9 C9 1_555 1_555
C10 C9 1_555 1_555
H10 C10 1_555 1_555
C11 C7 1_555 1_555
C12 O3 1_555 1_555
C13 O5 1_555 1_555
C14 C13 1_555 1_555
C15 C14 1_555 1_555
H11 C15 1_555 1_555
C16 C15 1_555 1_555
H12 C16 1_555 1_555
C17 N3 1_555 1_555
H13 C17 1_555 1_555
C18 C14 1_555 1_555
H14 C18 1_555 1_555
O9 H15 1_555 1_555
H16 O9 1_555 1_555
O10 H17 1_555 1_555
H18 O10 1_555 1_555
Nd1A O1 1_555 1_555
Nd1A_2 O4 1_555 1_555
O1A Nd1 1_555 1_555
O2A Nd1 1_555 1_555
O4A Nd1 1_555 1_555
O2 Nd1A 1_555 1_555
O6 C13 1_555 1_555
C2 C6 1_555 1_555
C10 C11 1_555 1_555
C11 C12 1_555 1_555
C17 C18 1_555 1_555
Nd1A O1A 1_555 1_555

#END
