
#######################################################################
#
#                 Cambridge Crystallographic Data Centre
#                                CCDC 
#
#######################################################################
#
# If this CIF has been generated from an entry in the Cambridge 
# Structural Database, then it will include bibliographic, chemical, 
# crystal, experimental, refinement or atomic coordinate data resulting 
# from the CCDC's data processing and validation procedures.
#
#######################################################################

data_WUYFIG
_symmetry_cell_setting           orthorhombic
_symmetry_space_group_name_H-M   'P b c n'
_symmetry_Int_Tables_number      60
_space_group_name_Hall           '-P 2n 2ab'
loop_
_symmetry_equiv_pos_site_id
_symmetry_equiv_pos_as_xyz
1 x,y,z
2 1/2-x,1/2-y,1/2+z
3 -x,y,1/2-z
4 1/2+x,1/2-y,-z
5 -x,-y,-z
6 1/2+x,1/2+y,1/2-z
7 x,-y,1/2+z
8 1/2-x,1/2+y,z
_cell_length_a                   18.543(4)
_cell_length_b                   9.3920(19)
_cell_length_c                   11.399(2)
_cell_angle_alpha                90
_cell_angle_beta                 90
_cell_angle_gamma                90
_cell_volume                     1985.2
loop_
_atom_site_label
_atom_site_type_symbol
_atom_site_fract_x
_atom_site_fract_y
_atom_site_fract_z
C1 C 0.3863(2) 0.0669(4) 0.0794(4)
H1 H 0.3742 -0.0126 0.0349
C2 C 0.36187(19) 0.2929(3) 0.1404(3)
H2 H 0.3325 0.3732 0.1389
C3 C 0.4224(2) 0.2953(3) 0.2084(3)
H3 H 0.4333 0.3764 0.2517
C4 C 0.4481(2) 0.0629(4) 0.1457(4)
H4 H 0.4770 -0.0181 0.1449
C5 C 0.46749(17) 0.1787(3) 0.2136(3)
C6 C 0.11589(19) 0.1794(4) 0.0803(3)
C7 C 0.05639(17) 0.1771(3) 0.1686(3)
C8 C -0.01457(18) 0.1768(4) 0.1316(3)
H5 H -0.0249 0.1764 0.0517
C9 C 0.07044(18) 0.1769(4) 0.2880(3)
H6 H 0.1179 0.1770 0.3143
C10 C 0.25830(19) -0.0467(4) -0.1464(3)
H7 H 0.2635 -0.1036 -0.2126
N1 N 0.34296(14) 0.1802(3) 0.0760(2)
O1 O 0.25823(15) 0.0852(2) -0.1598(2)
O2 O 0.17922(13) 0.1592(3) 0.1187(2)
O3 O 0.10352(17) 0.2038(4) -0.0230(2)
O4 O 0.25188(14) -0.1059(2) -0.0501(2)
Zn1 Zn 0.24566(2) 0.18715(4) -0.01055(3)
C1B C 0.6137(2) 0.0669(4) 0.4206(4)
H1B H 0.6258 -0.0126 0.4651
C2B C 0.63813(19) 0.2929(3) 0.3596(3)
H2B H 0.6675 0.3732 0.3611
C3B C 0.5776(2) 0.2953(3) 0.2916(3)
H3B H 0.5667 0.3764 0.2483
C4B C 0.5519(2) 0.0629(4) 0.3543(4)
H4B H 0.5230 -0.0181 0.3551
C5B C 0.53251(17) 0.1787(3) 0.2864(3)
C6B C -0.11589(19) 0.1794(4) 0.4197(3)
C7B C -0.05639(17) 0.1771(3) 0.3314(3)
C8B C 0.01457(18) 0.1768(4) 0.3684(3)
H5B H 0.0249 0.1764 0.4483
C9B C -0.07044(18) 0.1769(4) 0.2120(3)
H6B H -0.1179 0.1770 0.1857
C10B C -0.25830(19) -0.0467(4) 0.6464(3)
H7B H -0.2635 -0.1036 0.7126
N1B N 0.65704(14) 0.1802(3) 0.4240(2)
N1B_2 N -0.34296(14) 0.1802(3) 0.4240(2)
O1B O -0.25823(15) 0.0852(2) 0.6598(2)
O2B O -0.17922(13) 0.1592(3) 0.3813(2)
O3B O -0.10352(17) 0.2038(4) 0.5230(2)
O4B O -0.25188(14) -0.1059(2) 0.5501(2)
O4E O -0.24812(14) 0.3941(2) 0.5501(2)
O4G O 0.24812(14) 0.3941(2) -0.0501(2)
Zn1B Zn -0.24566(2) 0.18715(4) 0.51055(3)
Zn1B_2 Zn 0.75434(2) 0.18715(4) 0.51055(3)
Zn1E Zn -0.25434(2) -0.31285(4) 0.51055(3)
Zn1G Zn 0.25434(2) -0.31285(4) -0.01055(3)
loop_
_geom_bond_atom_site_label_1
_geom_bond_atom_site_label_2
_geom_bond_site_symmetry_1
_geom_bond_site_symmetry_2
C1 H1 1_555 1_555
C2 H2 1_555 1_555
C3 C2 1_555 1_555
H3 C3 1_555 1_555
C4 C1 1_555 1_555
H4 C4 1_555 1_555
C5 C3 1_555 1_555
C6 C7 1_555 1_555
C7 C8 1_555 1_555
C8 H5 1_555 1_555
C9 C7 1_555 1_555
H6 C9 1_555 1_555
C10 H7 1_555 1_555
N1 C1 1_555 1_555
O1 C10 1_555 1_555
O2 C6 1_555 1_555
O3 C6 1_555 1_555
O4 C10 1_555 1_555
Zn1 N1 1_555 1_555
C1B H1B 1_555 1_555
C2B H2B 1_555 1_555
C3B C2B 1_555 1_555
H3B C3B 1_555 1_555
C4B C1B 1_555 1_555
H4B C4B 1_555 1_555
C5B C5 1_555 1_555
C6B C7B 1_555 1_555
C7B C8B 1_555 1_555
C8B C9 1_555 1_555
H5B C8B 1_555 1_555
C9B C8 1_555 1_555
H6B C9B 1_555 1_555
C10B H7B 1_555 1_555
N1B C1B 1_555 1_555
N1B_2 Zn1B 1_555 1_555
O1B C10B 1_555 1_555
O2B C6B 1_555 1_555
O3B C6B 1_555 1_555
O4B C10B 1_555 1_555
O4E Zn1B 1_555 1_555
O4G Zn1 1_555 1_555
Zn1B O1B 1_555 1_555
Zn1B_2 N1B 1_555 1_555
Zn1E O4B 1_555 1_555
Zn1G O4 1_555 1_555
C2 N1 1_555 1_555
C4 C5 1_555 1_555
O1 Zn1 1_555 1_555
O2 Zn1 1_555 1_555
C2B N1B 1_555 1_555
C3B C5B 1_555 1_555
C4B C5B 1_555 1_555
C7B C9B 1_555 1_555
O2B Zn1B 1_555 1_555

#END
