
#######################################################################
#
#                 Cambridge Crystallographic Data Centre
#                                CCDC 
#
#######################################################################
#
# If this CIF has been generated from an entry in the Cambridge 
# Structural Database, then it will include bibliographic, chemical, 
# crystal, experimental, refinement or atomic coordinate data resulting 
# from the CCDC's data processing and validation procedures.
#
#######################################################################

data_WUYFEB
_symmetry_cell_setting           monoclinic
_symmetry_space_group_name_H-M   'C 2/c'
_symmetry_Int_Tables_number      15
_space_group_name_Hall           '-C 2yn'
loop_
_symmetry_equiv_pos_site_id
_symmetry_equiv_pos_as_xyz
1 x,y,z
2 x,-y,1/2+z
3 1/2+x,1/2+y,z
4 1/2+x,1/2-y,1/2+z
5 -x,-y,-z
6 -x,y,1/2-z
7 1/2-x,1/2-y,-z
8 1/2-x,1/2+y,1/2-z
_cell_length_a                   23.583(2)
_cell_length_b                   10.675(2)
_cell_length_c                   12.370(2)
_cell_angle_alpha                90
_cell_angle_beta                 105.150(9)
_cell_angle_gamma                90
_cell_volume                     3005.9
loop_
_atom_site_label
_atom_site_type_symbol
_atom_site_fract_x
_atom_site_fract_y
_atom_site_fract_z
Ag1 Ag 0.03507(2) 0.45764(4) 0.12511(4)
S1 S 0.05505(6) 0.2056(1) 0.0763(1)
F1 F 0.1564(2) 0.5341(6) -0.2139(4)
F2 F 0.1823(2) 0.3925(4) -0.0904(6)
F3 F 0.2112(3) 0.569(1) 0.0646(6)
F4 F 0.1762(3) 0.7083(6) -0.0614(9)
F5 F 0.2522(2) 0.5901(6) -0.0631(6)
O1 O 0.0959(2) 0.4635(4) 0.0037(4)
O2 O 0.0571(2) 0.5651(4) -0.1559(4)
N1 N 0.0565(2) -0.3231(4) 0.1732(4)
C1 C 0.0112(2) 0.0974(4) 0.1178(4)
C2 C 0.0458(2) 0.0044(4) 0.1787(4)
C3 C 0.1079(2) 0.0233(5) 0.1925(4)
C4 C 0.1192(2) 0.1298(5) 0.1420(4)
C5 C 0.0210(2) -0.1059(4) 0.2213(4)
C6 C 0.0415(2) -0.2270(5) 0.1957(4)
C7 C -0.0535(2) 0.1136(6) 0.0835(5)
C8 C 0.1549(3) -0.0643(8) 0.2583(7)
C9 C 0.1775(4) 0.1851(9) 0.1398(10)
C10 C 0.0963(2) 0.5150(5) -0.0851(5)
C11 C 0.1578(3) 0.5131(7) -0.1078(6)
C12 C 0.2002(4) 0.591(1) -0.038(1)
H1 H -0.075(3) 0.032(6) 0.072(5)
H2 H -0.064(3) 0.163(5) 0.020(5)
H3 H -0.069(2) 0.163(5) 0.137(5)
H4 H 0.154(2) -0.125(6) 0.213(5)
H5 H 0.195(6) -0.056(9) 0.295(10)
H6 H 0.145(3) -0.110(7) 0.329(6)
H7 H 0.182(4) 0.171(8) 0.082(7)
H8 H 0.183(5) 0.28(1) 0.140(9)
H9 H 0.202(3) 0.181(8) 0.201(6)
C5E C -0.0210(2) -0.1059(4) 0.2787(4)
C2E C -0.0458(2) 0.0044(4) 0.3213(4)
C1E C -0.0112(2) 0.0974(4) 0.3822(4)
S1E S -0.05505(6) 0.2056(1) 0.4237(1)
C4E C -0.1192(2) 0.1298(5) 0.3580(4)
C3E C -0.1079(2) 0.0233(5) 0.3075(4)
C8E C -0.1549(3) -0.0643(8) 0.2417(7)
H4E H -0.154(2) -0.125(6) 0.287(5)
H5E H -0.195(6) -0.056(9) 0.205(10)
H6E H -0.145(3) -0.110(7) 0.171(6)
C9E C -0.1775(4) 0.1851(9) 0.3602(10)
H7E H -0.182(4) 0.171(8) 0.418(7)
H8E H -0.183(5) 0.28(1) 0.360(9)
H9E H -0.202(3) 0.181(8) 0.299(6)
C7E C 0.0535(2) 0.1136(6) 0.4165(5)
H1E H 0.075(3) 0.032(6) 0.428(5)
H2E H 0.064(3) 0.163(5) 0.480(5)
H3E H 0.069(2) 0.163(5) 0.363(5)
C6E C -0.0415(2) -0.2270(5) 0.3043(4)
N1E N -0.0565(2) -0.3231(4) 0.3268(4)
F1D F -0.1564(2) 0.4659(6) 0.2139(4)
F2D F -0.1823(2) 0.6075(4) 0.0904(6)
F3D F -0.2112(3) 0.431(1) -0.0646(6)
F4D F -0.1762(3) 0.2917(6) 0.0614(9)
F5D F -0.2522(2) 0.4099(6) 0.0631(6)
O1D O -0.0959(2) 0.5365(4) -0.0037(4)
O2D O -0.0571(2) 0.4349(4) 0.1559(4)
C10D C -0.0963(2) 0.4850(5) 0.0851(5)
C11D C -0.1578(3) 0.4869(7) 0.1078(6)
C12D C -0.2002(4) 0.409(1) 0.038(1)
Ag1E Ag -0.03507(2) 0.45764(4) 0.37489(4)
N1_2 N 0.0565(2) 0.6769(4) 0.1732(4)
Ag1D Ag -0.03507(2) 0.54236(4) -0.12511(4)
Ag1_2 Ag 0.03507(2) -0.54236(4) 0.12511(4)
Ag1E_2 Ag -0.03507(2) -0.54236(4) 0.37489(4)
O1E O -0.0959(2) 0.4635(4) 0.4963(4)
O2A O 0.0571(2) 0.4349(4) 0.3441(4)
N1E_2 N -0.0565(2) 0.6769(4) 0.3268(4)
loop_
_geom_bond_atom_site_label_1
_geom_bond_atom_site_label_2
_geom_bond_site_symmetry_1
_geom_bond_site_symmetry_2
Ag1 S1 1_555 1_555
S1 C1 1_555 1_555
F1 C11 1_555 1_555
F2 C11 1_555 1_555
F3 C12 1_555 1_555
F4 C12 1_555 1_555
F5 C12 1_555 1_555
O1 Ag1 1_555 1_555
O2 C10 1_555 1_555
N1 C6 1_555 1_555
C1 C2 1_555 1_555
C2 C3 1_555 1_555
C3 C4 1_555 1_555
C4 S1 1_555 1_555
C5 C2 1_555 1_555
C6 C5 1_555 1_555
C7 C1 1_555 1_555
C8 C3 1_555 1_555
C9 C4 1_555 1_555
C10 O1 1_555 1_555
C11 C10 1_555 1_555
C12 C11 1_555 1_555
H1 C7 1_555 1_555
H2 C7 1_555 1_555
H3 C7 1_555 1_555
H4 C8 1_555 1_555
H5 C8 1_555 1_555
H6 C8 1_555 1_555
H7 C9 1_555 1_555
H8 C9 1_555 1_555
H9 C9 1_555 1_555
C5E C5 1_555 1_555
C2E C5E 1_555 1_555
C1E C2E 1_555 1_555
S1E C1E 1_555 1_555
C4E S1E 1_555 1_555
C3E C2E 1_555 1_555
C8E C3E 1_555 1_555
H4E C8E 1_555 1_555
H5E C8E 1_555 1_555
H6E C8E 1_555 1_555
C9E C4E 1_555 1_555
H7E C9E 1_555 1_555
H8E C9E 1_555 1_555
H9E C9E 1_555 1_555
C7E C1E 1_555 1_555
H1E C7E 1_555 1_555
H2E C7E 1_555 1_555
H3E C7E 1_555 1_555
C6E C5E 1_555 1_555
N1E C6E 1_555 1_555
F1D C11D 1_555 1_555
F2D C11D 1_555 1_555
F3D C12D 1_555 1_555
F4D C12D 1_555 1_555
F5D C12D 1_555 1_555
O1D C10D 1_555 1_555
O2D Ag1 1_555 1_555
C10D O2D 1_555 1_555
C11D C10D 1_555 1_555
C12D C11D 1_555 1_555
Ag1E S1E 1_555 1_555
N1_2 Ag1 1_555 1_555
Ag1D O2 1_555 1_555
Ag1_2 N1 1_555 1_555
Ag1E_2 N1E 1_555 1_555
O1E Ag1E 1_555 1_555
O2A Ag1E 1_555 1_555
N1E_2 Ag1E 1_555 1_555
C4E C3E 1_555 1_555
O1D Ag1D 1_555 1_555

#END
