
#######################################################################
#
#                 Cambridge Crystallographic Data Centre
#                                CCDC 
#
#######################################################################
#
# If this CIF has been generated from an entry in the Cambridge 
# Structural Database, then it will include bibliographic, chemical, 
# crystal, experimental, refinement or atomic coordinate data resulting 
# from the CCDC's data processing and validation procedures.
#
#######################################################################

data_WUYHEE
_symmetry_cell_setting           monoclinic
_symmetry_space_group_name_H-M   'C 2/c'
_symmetry_Int_Tables_number      15
_space_group_name_Hall           '-C 2yn'
loop_
_symmetry_equiv_pos_site_id
_symmetry_equiv_pos_as_xyz
1 x,y,z
2 -x,y,1/2-z
3 1/2+x,1/2+y,z
4 1/2-x,1/2+y,1/2-z
5 -x,-y,-z
6 x,-y,1/2+z
7 1/2-x,1/2-y,-z
8 1/2+x,1/2-y,1/2+z
_cell_length_a                   6.6805(16)
_cell_length_b                   26.928(6)
_cell_length_c                   12.184(3)
_cell_angle_alpha                90
_cell_angle_beta                 101.413(3)
_cell_angle_gamma                90
_cell_volume                     2148.47
loop_
_atom_site_label
_atom_site_type_symbol
_atom_site_fract_x
_atom_site_fract_y
_atom_site_fract_z
Cu1 Cu 1.0000 0.203441(15) 0.7500
S1 S 1.5000 0.24382(3) 0.7500
N1 N 0.9344(3) 0.14923(7) 0.63470(16)
C1 C 0.7477(3) 0.14283(9) 0.57077(19)
H1 H 0.6459 0.1657 0.5763
C2 C 0.7009(3) 0.10321(9) 0.49665(19)
C3 C 0.8559(4) 0.06940(9) 0.48831(19)
H2 H 0.8315 0.0428 0.4388
C4 C 1.0472(4) 0.07646(9) 0.5558(2)
H3 H 1.1523 0.0542 0.5522
C5 C 1.0815(4) 0.11595(9) 0.6275(2)
N2 N 0.5002(3) 0.10011(7) 0.43254(16)
H4 H 0.4254 0.1263 0.4276
C6 C 0.4165(4) 0.05846(9) 0.37783(19)
O1 O 0.5076(3) 0.01899(6) 0.38225(15)
C7 C 0.2009(3) 0.06283(9) 0.31143(19)
C8 C 0.1001(4) 0.10728(9) 0.28033(19)
H5 H 0.1666 0.1373 0.3001
C9 C 0.0990(3) 0.01823(9) 0.27982(19)
H6 H 0.1655 -0.0118 0.2992
O2 O 1.3219(2) 0.21225(6) 0.70412(13)
O3 O 1.5474(2) 0.27549(6) 0.65920(13)
O4 O 1.0821(4) 0.25357(9) 0.8690(2)
H7 H 1.196(4) 0.1210(10) 0.674(2)
H8 H 1.012(5) 0.2674(12) 0.897(3)
H9 H 1.192(6) 0.2652(14) 0.870(3)
Cu1_2 Cu -1.0000 0.203441(15) -0.2500
Cu1_3 Cu 2.0000 0.203441(15) 0.7500
N1A N -0.9344(3) 0.14923(7) -0.13470(16)
N1A_2 N 1.0656(3) 0.14923(7) 0.86530(16)
C1A C -0.7477(3) 0.14283(9) -0.07077(19)
H1A H -0.6459 0.1657 -0.0763
C2A C -0.7009(3) 0.10321(9) 0.00335(19)
C3A C -0.8559(4) 0.06940(9) 0.01169(19)
H2A H -0.8315 0.0428 0.0612
C4A C -1.0472(4) 0.07646(9) -0.0558(2)
H3A H -1.1523 0.0542 -0.0522
C5A C -1.0815(4) 0.11595(9) -0.1275(2)
N2A N -0.5002(3) 0.10011(7) 0.06746(16)
H4A H -0.4254 0.1263 0.0724
C6A C -0.4165(4) 0.05846(9) 0.12217(19)
O1A O -0.5076(3) 0.01899(6) 0.11775(15)
C7A C -0.2009(3) 0.06283(9) 0.18857(19)
C8A C -0.1001(4) 0.10728(9) 0.21967(19)
H5A H -0.1666 0.1373 0.1999
C9A C -0.0990(3) 0.01823(9) 0.22018(19)
H6A H -0.1655 -0.0118 0.2008
O2A O 1.6781(2) 0.21225(6) 0.79588(13)
O2A_2 O 0.6781(2) 0.21225(6) 0.79588(13)
O3A O 1.4526(2) 0.27549(6) 0.84080(13)
O4A O 0.9179(4) 0.25357(9) 0.6310(2)
H7A H -1.196(4) 0.1210(10) -0.174(2)
H8A H 0.988(5) 0.2674(12) 0.603(3)
H9A H 0.808(6) 0.2652(14) 0.630(3)
O5 O 0.6914(3) 0.19344(6) 0.02712(16)
H10 H 0.690(5) 0.1982(11) -0.036(3)
H11 H 0.803(5) 0.2041(11) 0.064(3)
O6 O 0.5000 0.93210(10) 0.2500
H12 H 0.502(7) 0.9576(15) 0.190(3)
H12A H 0.498(7) 0.9576(15) 0.310(3)
loop_
_geom_bond_atom_site_label_1
_geom_bond_atom_site_label_2
_geom_bond_site_symmetry_1
_geom_bond_site_symmetry_2
Cu1 N1 1_555 1_555
S1 O2 1_555 1_555
N1 C1 1_555 1_555
C1 H1 1_555 1_555
C2 C1 1_555 1_555
C3 C2 1_555 1_555
H2 C3 1_555 1_555
C4 C3 1_555 1_555
H3 C4 1_555 1_555
C5 N1 1_555 1_555
N2 C2 1_555 1_555
H4 N2 1_555 1_555
C6 N2 1_555 1_555
O1 C6 1_555 1_555
C7 C6 1_555 1_555
C8 C7 1_555 1_555
H5 C8 1_555 1_555
C9 C7 1_555 1_555
H6 C9 1_555 1_555
O2 Cu1 1_555 1_555
O3 S1 1_555 1_555
O4 Cu1 1_555 1_555
O5 H10 1_555 1_555
O6 H12 1_555 1_555
H7 C5 1_555 1_555
H8 O4 1_555 1_555
H9 O4 1_555 1_555
H11 O5 1_555 1_555
Cu1_2 N1A 1_555 1_555
Cu1_3 O2A 1_555 1_555
N1A C1A 1_555 1_555
N1A_2 Cu1 1_555 1_555
C1A H1A 1_555 1_555
C2A C1A 1_555 1_555
C3A C2A 1_555 1_555
H2A C3A 1_555 1_555
C4A C3A 1_555 1_555
H3A C4A 1_555 1_555
C5A N1A 1_555 1_555
N2A C2A 1_555 1_555
H4A N2A 1_555 1_555
C6A N2A 1_555 1_555
O1A C6A 1_555 1_555
C7A C6A 1_555 1_555
C8A C8 1_555 1_555
H5A C8A 1_555 1_555
C9A C9 1_555 1_555
H6A C9A 1_555 1_555
O2A S1 1_555 1_555
O2A_2 Cu1 1_555 1_555
O3A S1 1_555 1_555
O4A Cu1 1_555 1_555
H7A C5A 1_555 1_555
H8A O4A 1_555 1_555
H9A O4A 1_555 1_555
H12A O6 1_555 1_555
C4 C5 1_555 1_555
C4A C5A 1_555 1_555
C7A C8A 1_555 1_555
C7A C9A 1_555 1_555

#END
