
#######################################################################
#
#                 Cambridge Crystallographic Data Centre
#                                CCDC 
#
#######################################################################
#
# If this CIF has been generated from an entry in the Cambridge 
# Structural Database, then it will include bibliographic, chemical, 
# crystal, experimental, refinement or atomic coordinate data resulting 
# from the CCDC's data processing and validation procedures.
#
#######################################################################

data_WUYHAA
_symmetry_cell_setting           triclinic
_symmetry_space_group_name_H-M   'P -1'
_symmetry_Int_Tables_number      2
_space_group_name_Hall           '-P 1'
loop_
_symmetry_equiv_pos_site_id
_symmetry_equiv_pos_as_xyz
1 x,y,z
2 -x,-y,-z
_cell_length_a                   8.7533(11)
_cell_length_b                   9.7738(12)
_cell_length_c                   11.2575(14)
_cell_angle_alpha                86.045(2)
_cell_angle_beta                 69.815(2)
_cell_angle_gamma                85.415(2)
_cell_volume                     900.187
loop_
_atom_site_label
_atom_site_type_symbol
_atom_site_fract_x
_atom_site_fract_y
_atom_site_fract_z
Cu1 Cu 0.0000 0.5000 0.0000
N1 N -0.0175(3) 0.3226(3) -0.0793(3)
C1 C -0.1379(4) 0.3100(4) -0.1254(3)
H1 H -0.2190 0.3832 -0.1152
C2 C -0.1498(4) 0.1955(3) -0.1869(3)
C3 C -0.0390(4) 0.0845(4) -0.1931(3)
H2 H -0.0455 0.0033 -0.2326
C4 C 0.0807(4) 0.0940(4) -0.1409(3)
H3 H 0.1558 0.0180 -0.1417
C5 C 0.0911(4) 0.2146(4) -0.0874(3)
H4 H 0.1773 0.2216 -0.0555
N2 N -0.2748(3) 0.1902(3) -0.2380(3)
H5 H -0.3167 0.1106 -0.2349
C6 C -0.3347(4) 0.3003(4) -0.2917(3)
O1 O -0.2833(3) 0.4146(2) -0.3038(2)
C7 C -0.4696(4) 0.2746(3) -0.3409(3)
C8 C -0.5584(4) 0.3897(4) -0.3678(3)
H6 H -0.5376 0.4783 -0.3491
C9 C -0.6771(4) 0.3765(4) -0.4218(3)
H7 H -0.7365 0.4556 -0.4408
C10 C -0.7081(4) 0.2467(4) -0.4478(3)
C11 C -0.6230(4) 0.1315(4) -0.4162(3)
H8 H -0.6479 0.0424 -0.4302
C12 C -0.5031(4) 0.1452(3) -0.3649(3)
H9 H -0.4437 0.0661 -0.3460
C13 C -0.8338(4) 0.2190(4) -0.5055(3)
O2 O -0.8967(3) 0.1100(3) -0.4858(2)
N3 N -0.8695(3) 0.3240(3) -0.5802(3)
H10 H -0.8231 0.4021 -0.5868
C14 C -0.9772(4) 0.3132(3) -0.6472(3)
C15 C -0.9442(4) 0.3861(3) -0.7622(3)
H11 H -0.8488 0.4365 -0.7925
N4 N 0.0406(3) 0.6109(3) -0.1670(3)
C16 C 0.1730(4) 0.6850(3) -0.2098(3)
H12 H 0.2418 0.6852 -0.1605
C17 C -1.2123(4) 0.2394(4) -0.6772(3)
H13 H -1.3079 0.1891 -0.6495
C18 C -1.1140(4) 0.2359(4) -0.6036(3)
H14 H -1.1389 0.1826 -0.5262
O3 O -0.3087(4) 0.5407(3) 0.0527(3)
H15 H -0.380(6) 0.499(5) 0.092(5)
H16 H -0.354(6) 0.611(6) 0.033(5)
Cu1_2 Cu -1.0000 0.5000 -1.0000
N1A N 0.0175(3) 0.6774(3) 0.0793(3)
N1A_2 N -0.9825(3) 0.6774(3) -0.9207(3)
C1A C -0.8621(4) 0.6900(4) -0.8746(3)
H1A H -0.7810 0.6168 -0.8848
C2A C -0.8502(4) 0.8045(3) -0.8131(3)
C3A C -0.9610(4) 0.9155(4) -0.8069(3)
H2A H -0.9545 0.9967 -0.7674
C4A C -1.0807(4) 0.9060(4) -0.8591(3)
H3A H -1.1558 0.9820 -0.8583
C5A C -1.0911(4) 0.7854(4) -0.9126(3)
H4A H -1.1773 0.7784 -0.9445
N2A N -0.7252(3) 0.8098(3) -0.7620(3)
H5A H -0.6833 0.8894 -0.7651
C6A C -0.6653(4) 0.6997(4) -0.7083(3)
O1A O -0.7167(3) 0.5854(2) -0.6962(2)
C7A C -0.5304(4) 0.7254(3) -0.6591(3)
C8A C -0.4416(4) 0.6103(4) -0.6322(3)
H6A H -0.4624 0.5217 -0.6509
C9A C -0.3229(4) 0.6235(4) -0.5782(3)
H7A H -0.2635 0.5444 -0.5592
C10A C -0.2919(4) 0.7533(4) -0.5522(3)
C11A C -0.3770(4) 0.8685(4) -0.5838(3)
H8A H -0.3521 0.9576 -0.5698
C12A C -0.4969(4) 0.8548(3) -0.6351(3)
H9A H -0.5563 0.9339 -0.6540
C13A C -0.1662(4) 0.7810(4) -0.4945(3)
O2A O -0.1033(3) 0.8900(3) -0.5142(2)
N3A N -0.1305(3) 0.6760(3) -0.4198(3)
H10A H -0.1769 0.5979 -0.4132
C14A C -0.0228(4) 0.6868(3) -0.3528(3)
C15A C -0.0558(4) 0.6139(3) -0.2378(3)
H11A H -0.1512 0.5635 -0.2075
N4A N -0.0406(3) 0.3891(3) 0.1670(3)
N4A_2 N -1.0406(3) 0.3891(3) -0.8330(3)
C16A C -1.1730(4) 0.3150(3) -0.7902(3)
H12A H -1.2418 0.3148 -0.8395
C17A C 0.2123(4) 0.7606(4) -0.3228(3)
H13A H 0.3079 0.8109 -0.3505
C18A C 0.1140(4) 0.7641(4) -0.3964(3)
H14A H 0.1389 0.8174 -0.4738
O3A O 0.3087(4) 0.4593(3) -0.0527(3)
H15A H 0.380(6) 0.501(5) -0.092(5)
H16A H 0.354(6) 0.389(6) -0.033(5)
Cl1 Cl -0.53807(10) 0.18471(8) -0.87139(8)
O4 O -0.5396(3) 0.3186(3) -0.8236(3)
O5 O -0.3830(3) 0.1133(3) -0.8912(3)
O6 O -0.5685(3) 0.2021(3) -0.9898(3)
O7 O -0.6648(3) 0.1088(3) -0.7815(2)
loop_
_geom_bond_atom_site_label_1
_geom_bond_atom_site_label_2
_geom_bond_site_symmetry_1
_geom_bond_site_symmetry_2
Cu1 N1 1_555 1_555
N1 C1 1_555 1_555
C1 H1 1_555 1_555
C2 C1 1_555 1_555
C3 C2 1_555 1_555
H2 C3 1_555 1_555
C4 C3 1_555 1_555
H3 C4 1_555 1_555
C5 N1 1_555 1_555
H4 C5 1_555 1_555
N2 C2 1_555 1_555
H5 N2 1_555 1_555
C6 N2 1_555 1_555
O1 C6 1_555 1_555
C7 C6 1_555 1_555
C8 C7 1_555 1_555
H6 C8 1_555 1_555
C9 C8 1_555 1_555
H7 C9 1_555 1_555
C10 C9 1_555 1_555
C11 C10 1_555 1_555
H8 C11 1_555 1_555
C12 C7 1_555 1_555
H9 C12 1_555 1_555
C13 C10 1_555 1_555
O2 C13 1_555 1_555
N3 C13 1_555 1_555
H10 N3 1_555 1_555
C14 N3 1_555 1_555
C15 C14 1_555 1_555
H11 C15 1_555 1_555
N4 Cu1 1_555 1_555
C16 N4 1_555 1_555
H12 C16 1_555 1_555
C17 H13 1_555 1_555
C18 C14 1_555 1_555
H14 C18 1_555 1_555
O3 Cu1 1_555 1_555
Cl1 O4 1_555 1_555
O5 Cl1 1_555 1_555
O6 Cl1 1_555 1_555
O7 Cl1 1_555 1_555
H15 O3 1_555 1_555
H16 O3 1_555 1_555
Cu1_2 N1A_2 1_555 1_555
N1A Cu1 1_555 1_555
N1A_2 C1A 1_555 1_555
C1A H1A 1_555 1_555
C2A C1A 1_555 1_555
C3A C2A 1_555 1_555
H2A C3A 1_555 1_555
C4A C3A 1_555 1_555
H3A C4A 1_555 1_555
C5A N1A_2 1_555 1_555
H4A C5A 1_555 1_555
N2A C2A 1_555 1_555
H5A N2A 1_555 1_555
C6A N2A 1_555 1_555
O1A C6A 1_555 1_555
C7A C6A 1_555 1_555
C8A C7A 1_555 1_555
H6A C8A 1_555 1_555
C9A C8A 1_555 1_555
H7A C9A 1_555 1_555
C10A C9A 1_555 1_555
C11A C10A 1_555 1_555
H8A C11A 1_555 1_555
C12A C7A 1_555 1_555
H9A C12A 1_555 1_555
C13A C10A 1_555 1_555
O2A C13A 1_555 1_555
N3A C13A 1_555 1_555
H10A N3A 1_555 1_555
C14A N3A 1_555 1_555
C15A N4 1_555 1_555
H11A C15A 1_555 1_555
N4A Cu1 1_555 1_555
N4A_2 C15 1_555 1_555
C16A C17 1_555 1_555
H12A C16A 1_555 1_555
C17A C16 1_555 1_555
H13A C17A 1_555 1_555
C18A C14A 1_555 1_555
H14A C18A 1_555 1_555
O3A Cu1 1_555 1_555
H15A O3A 1_555 1_555
H16A O3A 1_555 1_555
C4 C5 1_555 1_555
C11 C12 1_555 1_555
C17 C18 1_555 1_555
Cu1_2 N4A_2 1_555 1_555
C4A C5A 1_555 1_555
C11A C12A 1_555 1_555
C14A C15A 1_555 1_555
N4A_2 C16A 1_555 1_555
C17A C18A 1_555 1_555

#END
