
#######################################################################
#
#                 Cambridge Crystallographic Data Centre
#                                CCDC 
#
#######################################################################
#
# If this CIF has been generated from an entry in the Cambridge 
# Structural Database, then it will include bibliographic, chemical, 
# crystal, experimental, refinement or atomic coordinate data resulting 
# from the CCDC's data processing and validation procedures.
#
#######################################################################

data_WUYJAB
_symmetry_cell_setting           monoclinic
_symmetry_space_group_name_H-M   'C 2/c'
_symmetry_Int_Tables_number      15
_space_group_name_Hall           '-C 2yn'
loop_
_symmetry_equiv_pos_site_id
_symmetry_equiv_pos_as_xyz
1 x,y,z
2 1/2+x,1/2+y,z
3 x,-y,1/2+z
4 1/2+x,1/2-y,1/2+z
5 -x,-y,-z
6 1/2-x,1/2-y,-z
7 -x,y,1/2-z
8 1/2-x,1/2+y,1/2-z
_cell_length_a                   19.739(4)
_cell_length_b                   8.5688(16)
_cell_length_c                   13.020(2)
_cell_angle_alpha                90
_cell_angle_beta                 95.770(4)
_cell_angle_gamma                90
_cell_volume                     2191.04
loop_
_atom_site_label
_atom_site_type_symbol
_atom_site_fract_x
_atom_site_fract_y
_atom_site_fract_z
Cu1 Cu 0.5000 0.62819(4) -0.2500
Cl1 Cl 0.60675(4) 0.53606(9) -0.22041(5)
O1 O 0.48998(8) 0.6641(2) -0.10415(12)
O2 O 0.55637(9) 0.8749(2) -0.09464(13)
O3 O 0.72393(8) 0.55052(17) 0.06158(13)
N1 N 0.59292(9) 0.8243(2) 0.11291(12)
C1 C 0.52706(11) 0.7677(3) -0.05683(15)
C2 C 0.53076(11) 0.7505(3) 0.06166(16)
H1 H 0.4910 0.7987 0.0863
H2 H 0.5304 0.6407 0.0795
C3 C 0.58758(12) 0.9614(3) 0.16300(17)
H3 H 0.5447 1.0045 0.1674
C4 C 0.64379(14) 1.0377(3) 0.20710(19)
H4 H 0.6395 1.1313 0.2420
C5 C 0.70757(13) 0.9734(3) 0.19907(18)
H5 H 0.7466 1.0249 0.2270
C6 C 0.71265(12) 0.8321(3) 0.14925(16)
H6 H 0.7552 0.7872 0.1451
C7 C 0.65474(10) 0.7574(2) 0.10558(14)
C8 C 0.65554(11) 0.6032(2) 0.05167(16)
H7 H 0.6267 0.5290 0.0830
H8 H 0.6389 0.6146 -0.0206
C9 C 0.73402(11) 0.3991(2) 0.02970(16)
C10 C 0.68265(12) 0.3002(3) -0.00980(17)
H9 H 0.6376 0.3339 -0.0165
C11 C 0.80140(12) 0.3501(3) 0.03944(19)
H10 H 0.8358 0.4176 0.0657
C11E C 0.69860(12) 0.1499(3) -0.03944(19)
C9E C 0.76598(11) 0.1009(2) -0.02970(16)
O3E O 0.77607(8) -0.05052(17) -0.06158(13)
C8E C 0.84446(11) -0.1032(2) -0.05167(16)
C7E C 0.84526(10) -0.2574(2) -0.10558(14)
N1E N 0.90708(9) -0.3243(2) -0.11291(12)
C2E C 0.96924(11) -0.2505(3) -0.06166(16)
C1E C 0.97294(11) -0.2677(3) 0.05683(15)
O1E O 1.01002(8) -0.1641(2) 0.10415(12)
O2E O 0.94363(9) -0.3749(2) 0.09464(13)
H1E H 1.0090 -0.2987 -0.0863
H2E H 0.9696 -0.1407 -0.0795
C3E C 0.91242(12) -0.4614(3) -0.16300(17)
H3E H 0.9553 -0.5045 -0.1674
C4E C 0.85621(14) -0.5377(3) -0.20710(19)
H4E H 0.8605 -0.6313 -0.2420
C5E C 0.79243(13) -0.4734(3) -0.19907(18)
H5E H 0.7534 -0.5249 -0.2270
C6E C 0.78735(12) -0.3321(3) -0.14925(16)
H6E H 0.7448 -0.2872 -0.1451
H7E H 0.8733 -0.0290 -0.0830
H8E H 0.8611 -0.1146 0.0206
C10E C 0.81735(12) 0.1998(3) 0.00980(17)
H9E H 0.8624 0.1661 0.0165
H10E H 0.6642 0.0824 -0.0657
Cl1F Cl 0.39325(4) 0.53606(9) -0.27959(5)
O1F O 0.51002(8) 0.6641(2) -0.39585(12)
Cu1C Cu 1.0000 -0.12819(4) 0.2500
loop_
_geom_bond_atom_site_label_1
_geom_bond_atom_site_label_2
_geom_bond_site_symmetry_1
_geom_bond_site_symmetry_2
Cu1 Cl1 1_555 1_555
O1 Cu1 1_555 1_555
O2 C1 1_555 1_555
O3 C8 1_555 1_555
N1 C2 1_555 1_555
C1 O1 1_555 1_555
C2 C1 1_555 1_555
H1 C2 1_555 1_555
H2 C2 1_555 1_555
C3 N1 1_555 1_555
H3 C3 1_555 1_555
C4 C3 1_555 1_555
H4 C4 1_555 1_555
C5 C4 1_555 1_555
H5 C5 1_555 1_555
C6 C5 1_555 1_555
H6 C6 1_555 1_555
C7 N1 1_555 1_555
C8 C7 1_555 1_555
H7 C8 1_555 1_555
H8 C8 1_555 1_555
C9 O3 1_555 1_555
C10 C9 1_555 1_555
H9 C10 1_555 1_555
C11 C9 1_555 1_555
H10 C11 1_555 1_555
C11E C10 1_555 1_555
C9E C11E 1_555 1_555
O3E C9E 1_555 1_555
C8E O3E 1_555 1_555
C7E C8E 1_555 1_555
N1E C7E 1_555 1_555
C2E N1E 1_555 1_555
C1E C2E 1_555 1_555
O1E C1E 1_555 1_555
O2E C1E 1_555 1_555
H1E C2E 1_555 1_555
H2E C2E 1_555 1_555
C3E N1E 1_555 1_555
H3E C3E 1_555 1_555
C4E C3E 1_555 1_555
H4E C4E 1_555 1_555
C5E C4E 1_555 1_555
H5E C5E 1_555 1_555
C6E C7E 1_555 1_555
H6E C6E 1_555 1_555
H7E C8E 1_555 1_555
H8E C8E 1_555 1_555
C10E C11 1_555 1_555
H9E C10E 1_555 1_555
H10E C11E 1_555 1_555
Cl1F Cu1 1_555 1_555
O1F Cu1 1_555 1_555
Cu1C O1E 1_555 1_555
C6 C7 1_555 1_555
C9E C10E 1_555 1_555
C5E C6E 1_555 1_555

#END
