
#######################################################################
#
#                 Cambridge Crystallographic Data Centre
#                                CCDC 
#
#######################################################################
#
# If this CIF has been generated from an entry in the Cambridge 
# Structural Database, then it will include bibliographic, chemical, 
# crystal, experimental, refinement or atomic coordinate data resulting 
# from the CCDC's data processing and validation procedures.
#
#######################################################################

data_WUYRAK
_symmetry_cell_setting           monoclinic
_symmetry_space_group_name_H-M   'P 21/c'
_symmetry_Int_Tables_number      14
_space_group_name_Hall           '-P 2ybc'
loop_
_symmetry_equiv_pos_site_id
_symmetry_equiv_pos_as_xyz
1 x,y,z
2 -x,1/2+y,1/2-z
3 -x,-y,-z
4 x,1/2-y,1/2+z
_cell_length_a                   11.4959(7)
_cell_length_b                   11.1319(6)
_cell_length_c                   14.4961(8)
_cell_angle_alpha                90
_cell_angle_beta                 106.4510(10)
_cell_angle_gamma                90
_cell_volume                     1779.14
loop_
_atom_site_label
_atom_site_type_symbol
_atom_site_fract_x
_atom_site_fract_y
_atom_site_fract_z
N1 N -0.2288(2) 0.4675(2) -0.49258(16)
C1 C -0.2354(2) 0.3596(2) -0.45107(19)
H1 H -0.1657 0.3299 -0.4044
C2 C -0.3400(2) 0.2915(2) -0.4742(2)
N2 N -0.3444(2) 0.1797(2) -0.42498(17)
Ag1 Ag 0.070250(19) 0.077930(19) -0.055520(16)
C3 C -0.4406(3) 0.3323(3) -0.5439(2)
H2 H -0.5132 0.2863 -0.5619
C4 C -0.4332(3) 0.4419(3) -0.5871(2)
H3 H -0.5008 0.4720 -0.6357
C5 C -0.3276(3) 0.5066(3) -0.5591(2)
H4 H -0.3244 0.5826 -0.5882
N3 N -0.0719(2) 0.2027(2) -0.12194(17)
C6 C -0.2599(3) 0.2442(2) -0.2372(2)
C7 C -0.1720(2) 0.1647(2) -0.1870(2)
H5 H -0.1834 0.0810 -0.1991
C8 C -0.0555(3) 0.3210(3) -0.1067(2)
H6 H 0.0165 0.3480 -0.0611
S1 S -0.38722(7) 0.18935(6) -0.32620(5)
C9 C -0.2435(3) 0.3661(3) -0.2202(2)
H7 H -0.3034 0.4220 -0.2532
C10 C -0.1387(3) 0.4051(3) -0.1544(2)
H8 H -0.1242 0.4884 -0.1421
O1 O -0.47892(19) 0.2801(2) -0.34156(15)
O2 O -0.4092(2) 0.06973(18) -0.30022(16)
C11 C -0.2654(3) 0.0801(3) -0.4374(2)
H9 H -0.2339 0.0370 -0.3756
H10 H -0.1954 0.1128 -0.4562
C12 C -0.3336(3) -0.0059(3) -0.5129(3)
H11 H -0.3981 -0.0444 -0.4913
H12 H -0.2780 -0.0674 -0.5238
H13 H -0.3695 0.0378 -0.5729
N1A N 0.2288(2) -0.0325(2) -0.00742(16)
Ag1A Ag -0.070250(19) 0.577930(19) -0.444480(16)
S2 S -0.10558(6) 0.77057(6) -0.16210(5)
F1 F -0.32381(16) 0.82219(18) -0.27023(14)
O3 O -0.01482(19) 0.6910(2) -0.17581(18)
O4 O -0.0758(2) 0.89555(19) -0.16122(19)
O5 O -0.1594(2) 0.7360(2) -0.08808(16)
C13 C -0.2307(3) 0.7539(2) -0.2716(2)
F2 F -0.2682(2) 0.64181(18) -0.28408(17)
F3 F -0.1980(2) 0.7851(2) -0.34916(14)
loop_
_geom_bond_atom_site_label_1
_geom_bond_atom_site_label_2
_geom_bond_site_symmetry_1
_geom_bond_site_symmetry_2
N1 C1 1_555 1_555
C1 H1 1_555 1_555
C2 C1 1_555 1_555
N2 C2 1_555 1_555
Ag1 N3 1_555 1_555
C3 C2 1_555 1_555
H2 C3 1_555 1_555
C4 C3 1_555 1_555
H3 C4 1_555 1_555
C5 N1 1_555 1_555
H4 C5 1_555 1_555
N3 C7 1_555 1_555
C6 C7 1_555 1_555
C7 H5 1_555 1_555
C8 N3 1_555 1_555
H6 C8 1_555 1_555
S1 N2 1_555 1_555
C9 C6 1_555 1_555
H7 C9 1_555 1_555
C10 C8 1_555 1_555
H8 C10 1_555 1_555
O1 S1 1_555 1_555
O2 S1 1_555 1_555
C11 N2 1_555 1_555
H9 C11 1_555 1_555
H10 C11 1_555 1_555
C12 C11 1_555 1_555
H11 C12 1_555 1_555
H12 C12 1_555 1_555
H13 C12 1_555 1_555
S2 O3 1_555 1_555
F1 C13 1_555 1_555
O4 S2 1_555 1_555
O5 S2 1_555 1_555
C13 S2 1_555 1_555
F2 C13 1_555 1_555
F3 C13 1_555 1_555
N1A Ag1 1_555 1_555
Ag1A N1 1_555 1_555
C4 C5 1_555 1_555
C6 S1 1_555 1_555
C9 C10 1_555 1_555

#END
