
#######################################################################
#
#                 Cambridge Crystallographic Data Centre
#                                CCDC 
#
#######################################################################
#
# If this CIF has been generated from an entry in the Cambridge 
# Structural Database, then it will include bibliographic, chemical, 
# crystal, experimental, refinement or atomic coordinate data resulting 
# from the CCDC's data processing and validation procedures.
#
#######################################################################

data_WUYVIV01
_symmetry_cell_setting           monoclinic
_symmetry_space_group_name_H-M   'P 21/n'
_symmetry_Int_Tables_number      14
_space_group_name_Hall           '-P 2yn'
loop_
_symmetry_equiv_pos_site_id
_symmetry_equiv_pos_as_xyz
1 x,y,z
2 1/2-x,1/2+y,1/2-z
3 -x,-y,-z
4 1/2+x,1/2-y,1/2+z
_cell_length_a                   8.4297(5)
_cell_length_b                   9.1636(6)
_cell_length_c                   16.389(1)
_cell_angle_alpha                90
_cell_angle_beta                 91.444(1)
_cell_angle_gamma                90
_cell_volume                     1265.59
loop_
_atom_site_label
_atom_site_type_symbol
_atom_site_fract_x
_atom_site_fract_y
_atom_site_fract_z
Zn1 Zn 0.69409(3) 0.52778(3) 0.628043(14)
O1 O 0.8103(2) 0.49721(19) 0.73319(10)
H1 H 0.832(4) 0.568(4) 0.762(2)
H2 H 0.779(4) 0.439(4) 0.763(2)
O2 O 0.66175(19) 0.35328(16) 0.56092(9)
O3 O 0.6207(2) 0.23074(17) 0.67520(9)
O4 O 0.80915(18) 0.65103(16) 0.54981(9)
O5 O 0.77586(18) 0.79861(17) 0.65435(9)
N1 N 0.4688(2) 0.5852(2) 0.65634(10)
C1 C 0.3428(3) 0.5307(3) 0.61470(13)
H3 H 0.3598 0.4627 0.5737
C2 C 0.1891(3) 0.5718(3) 0.63055(15)
H4 H 0.1044 0.5331 0.6002
C3 C 0.1627(3) 0.6713(3) 0.69214(15)
H5 H 0.0601 0.7000 0.7042
C4 C 0.2918(3) 0.7271(3) 0.73553(15)
H6 H 0.2771 0.7939 0.7774
C5 C 0.4424(3) 0.6831(3) 0.71620(13)
H7 H 0.5287 0.7219 0.7452
C6 C 0.6180(2) 0.2398(2) 0.59929(12)
C7 C 0.5576(2) 0.1152(2) 0.54796(12)
C8 C 0.4581(3) 0.0106(2) 0.58136(13)
H8 H 0.4299 0.0177 0.6357
C9 C 0.4010(3) -0.1039(2) 0.53379(13)
H9 H 0.3349 -0.1736 0.5564
C10 C 0.8276(2) 0.7749(2) 0.58504(12)
C11 C 0.9178(2) 0.8907(2) 0.54086(12)
C12 C 0.9567(3) 1.0206(3) 0.57999(14)
H10 H 0.9278 1.0347 0.6338
C13 C 1.0381(3) 1.1297(2) 0.53995(13)
H11 H 1.0632 1.2164 0.5669
Zn1B Zn 0.30591(3) -0.52778(3) 0.371957(14)
Zn1B_2 Zn 1.30591(3) 1.47222(3) 0.371957(14)
O1B O 0.1897(2) -0.49721(19) 0.26681(10)
H1B H 0.168(4) -0.568(4) 0.238(2)
H2B H 0.221(4) -0.439(4) 0.237(2)
O2B O 0.33825(19) -0.35328(16) 0.43908(9)
O3B O 0.3793(2) -0.23074(17) 0.32480(9)
O4B O 1.19085(18) 1.34897(16) 0.45019(9)
O4B_2 O 0.19085(18) -0.65103(16) 0.45019(9)
O5B O 1.22414(18) 1.20139(17) 0.34565(9)
N1B N 0.5312(2) -0.5852(2) 0.34366(10)
C1B C 0.6572(3) -0.5307(3) 0.38530(13)
H3B H 0.6402 -0.4627 0.4263
C2B C 0.8109(3) -0.5718(3) 0.36945(15)
H4B H 0.8956 -0.5331 0.3998
C3B C 0.8373(3) -0.6713(3) 0.30786(15)
H5B H 0.9399 -0.7000 0.2958
C4B C 0.7082(3) -0.7271(3) 0.26447(15)
H6B H 0.7229 -0.7939 0.2226
C5B C 0.5576(3) -0.6831(3) 0.28380(13)
H7B H 0.4713 -0.7219 0.2548
C6B C 0.3820(2) -0.2398(2) 0.40071(12)
C7B C 0.4424(2) -0.1152(2) 0.45204(12)
C8B C 0.5419(3) -0.0106(2) 0.41864(13)
H8B H 0.5701 -0.0177 0.3643
C9B C 0.5990(3) 0.1039(2) 0.46621(13)
H9B H 0.6651 0.1736 0.4436
C10B C 1.1724(2) 1.2251(2) 0.41496(12)
C11B C 1.0822(2) 1.1093(2) 0.45914(12)
C12B C 1.0433(3) 0.9794(3) 0.42001(14)
H10B H 1.0722 0.9653 0.3662
C13B C 0.9619(3) 0.8703(2) 0.46005(13)
H11B H 0.9368 0.7836 0.4331
loop_
_geom_bond_atom_site_label_1
_geom_bond_atom_site_label_2
_geom_bond_site_symmetry_1
_geom_bond_site_symmetry_2
Zn1 O1 1_555 1_555
O1 H1 1_555 1_555
H2 O1 1_555 1_555
O2 Zn1 1_555 1_555
O3 C6 1_555 1_555
O4 Zn1 1_555 1_555
O5 C10 1_555 1_555
N1 Zn1 1_555 1_555
C1 N1 1_555 1_555
H3 C1 1_555 1_555
C2 C1 1_555 1_555
H4 C2 1_555 1_555
C3 C2 1_555 1_555
H5 C3 1_555 1_555
C4 C3 1_555 1_555
H6 C4 1_555 1_555
C5 N1 1_555 1_555
H7 C5 1_555 1_555
C6 O2 1_555 1_555
C7 C6 1_555 1_555
C8 C7 1_555 1_555
H8 C8 1_555 1_555
C9 C8 1_555 1_555
H9 C9 1_555 1_555
C10 O4 1_555 1_555
C11 C10 1_555 1_555
C12 C11 1_555 1_555
H10 C12 1_555 1_555
C13 C12 1_555 1_555
H11 C13 1_555 1_555
Zn1B O1B 1_555 1_555
Zn1B_2 O4B 1_555 1_555
O1B H1B 1_555 1_555
H2B O1B 1_555 1_555
O2B Zn1B 1_555 1_555
O3B C6B 1_555 1_555
O4B C10B 1_555 1_555
O4B_2 Zn1B 1_555 1_555
O5B C10B 1_555 1_555
N1B Zn1B 1_555 1_555
C1B N1B 1_555 1_555
H3B C1B 1_555 1_555
C2B C1B 1_555 1_555
H4B C2B 1_555 1_555
C3B C2B 1_555 1_555
H5B C3B 1_555 1_555
C4B C3B 1_555 1_555
H6B C4B 1_555 1_555
C5B N1B 1_555 1_555
H7B C5B 1_555 1_555
C6B O2B 1_555 1_555
C7B C9 1_555 1_555
C8B C7B 1_555 1_555
H8B C8B 1_555 1_555
C9B C7 1_555 1_555
H9B C9B 1_555 1_555
C10B C11B 1_555 1_555
C11B C13 1_555 1_555
C12B C11B 1_555 1_555
H10B C12B 1_555 1_555
C13B C11 1_555 1_555
H11B C13B 1_555 1_555
C4 C5 1_555 1_555
C4B C5B 1_555 1_555
C6B C7B 1_555 1_555
C8B C9B 1_555 1_555
C12B C13B 1_555 1_555

#END
