
#######################################################################
#
#                 Cambridge Crystallographic Data Centre
#                                CCDC 
#
#######################################################################
#
# If this CIF has been generated from an entry in the Cambridge 
# Structural Database, then it will include bibliographic, chemical, 
# crystal, experimental, refinement or atomic coordinate data resulting 
# from the CCDC's data processing and validation procedures.
#
#######################################################################

data_WUYVIV
_symmetry_cell_setting           monoclinic
_symmetry_space_group_name_H-M   'P 21/n'
_symmetry_Int_Tables_number      14
_space_group_name_Hall           '-P 2yn'
loop_
_symmetry_equiv_pos_site_id
_symmetry_equiv_pos_as_xyz
1 x,y,z
2 1/2+x,1/2-y,1/2+z
3 -x,-y,-z
4 1/2-x,1/2+y,1/2-z
_cell_length_a                   8.4823(3)
_cell_length_b                   9.1440(3)
_cell_length_c                   16.5141(2)
_cell_angle_alpha                90
_cell_angle_beta                 91.243(2)
_cell_angle_gamma                90
_cell_volume                     1280.57
loop_
_atom_site_label
_atom_site_type_symbol
_atom_site_fract_x
_atom_site_fract_y
_atom_site_fract_z
Zn1 Zn 0.30591(11) 0.47218(10) 0.37211(6)
N1 N 0.5303(7) 0.4140(8) 0.3434(4)
O1 O 0.1909(7) 0.3485(6) 0.4493(4)
O2 O 0.2210(7) 0.2012(6) 0.3453(3)
O3 O 0.3376(7) 0.6482(6) 0.4381(3)
O4 O 0.3811(8) 0.7714(6) 0.3255(3)
O5 O 0.1929(7) 0.5035(6) 0.2669(4)
C1 C 0.1707(9) 0.2256(8) 0.4134(5)
C2 C 0.0819(9) 0.1096(8) 0.4587(4)
C3 C 0.0411(11) -0.0210(10) 0.4206(5)
H1 H 0.0694 -0.0353 0.3671
C4 C 0.0392(10) 0.1294(9) 0.5407(5)
H2 H 0.0657 0.2153 0.5679
C5 C 0.5421(11) 0.9904(9) 0.4196(5)
H3 H 0.5718 0.9831 0.3659
C6 C 0.4027(9) 0.8945(9) 0.5330(5)
H4 H 0.3390 0.8232 0.5556
C7 C 0.4420(9) 0.8853(8) 0.4523(5)
C8 C 0.3815(9) 0.7618(8) 0.4009(5)
C9 C 0.6548(10) 0.4694(10) 0.3860(6)
H5 H 0.6378 0.5354 0.4278
C10 C 0.8072(11) 0.4288(12) 0.3679(6)
H6 H 0.8925 0.4670 0.3972
C11 C 0.8307(11) 0.3324(12) 0.3068(6)
H7 H 0.9326 0.3049 0.2939
C12 C 0.7060(12) 0.2762(12) 0.2647(6)
H8 H 0.7219 0.2100 0.2229
C13 C 0.5572(11) 0.3175(11) 0.2840(5)
H9 H 0.4720 0.2778 0.2552
C4B C -0.0392(10) -0.1294(9) 0.4593(5)
C2B C -0.0819(9) -0.1096(8) 0.5413(4)
C1B C -0.1707(9) -0.2256(8) 0.5866(5)
O1B O -0.1909(7) -0.3485(6) 0.5507(4)
O2B O -0.2210(7) -0.2012(6) 0.6547(3)
C3B C -0.0411(11) 0.0210(10) 0.5794(5)
H1B H -0.0694 0.0353 0.6329
H2B H -0.0657 -0.2153 0.4321
C6B C 0.5973(9) 1.1055(9) 0.4670(5)
H4B H 0.6610 1.1768 0.4444
C7B C 0.5580(9) 1.1147(8) 0.5477(5)
C5B C 0.4579(11) 1.0096(9) 0.5804(5)
H3B H 0.4282 1.0169 0.6341
C8B C 0.6185(9) 1.2382(8) 0.5991(5)
O3B O 0.6624(7) 1.3518(6) 0.5619(3)
O4B O 0.6189(8) 1.2286(6) 0.6745(3)
Zn1B Zn -0.30591(11) -0.47218(10) 0.62789(6)
N1B N -0.5303(7) -0.4140(8) 0.6566(4)
C9B C -0.6548(10) -0.4694(10) 0.6140(6)
H5B H -0.6378 -0.5354 0.5722
C10B C -0.8072(11) -0.4288(12) 0.6321(6)
H6B H -0.8925 -0.4670 0.6028
C11B C -0.8307(11) -0.3324(12) 0.6932(6)
H7B H -0.9326 -0.3049 0.7061
C12B C -0.7060(12) -0.2762(12) 0.7353(6)
H8B H -0.7219 -0.2100 0.7771
C13B C -0.5572(11) -0.3175(11) 0.7160(5)
H9B H -0.4720 -0.2778 0.7448
O5B O -0.1929(7) -0.5035(6) 0.7331(4)
Zn1B_2 Zn 0.69409(11) 1.52782(10) 0.62789(6)
O3B_2 O -0.3376(7) -0.6482(6) 0.5619(3)
loop_
_geom_bond_atom_site_label_1
_geom_bond_atom_site_label_2
_geom_bond_site_symmetry_1
_geom_bond_site_symmetry_2
Zn1 N1 1_555 1_555
N1 C9 1_555 1_555
O1 Zn1 1_555 1_555
O2 C1 1_555 1_555
O3 Zn1 1_555 1_555
O4 C8 1_555 1_555
O5 Zn1 1_555 1_555
C1 O1 1_555 1_555
C2 C1 1_555 1_555
C3 C2 1_555 1_555
H1 C3 1_555 1_555
C4 C2 1_555 1_555
H2 C4 1_555 1_555
C5 H3 1_555 1_555
C6 H4 1_555 1_555
C7 C5 1_555 1_555
C8 O3 1_555 1_555
C9 H5 1_555 1_555
C10 C9 1_555 1_555
H6 C10 1_555 1_555
C11 C10 1_555 1_555
H7 C11 1_555 1_555
C12 C11 1_555 1_555
H8 C12 1_555 1_555
C13 N1 1_555 1_555
H9 C13 1_555 1_555
C4B C3 1_555 1_555
C2B C4B 1_555 1_555
C1B C2B 1_555 1_555
O1B C1B 1_555 1_555
O2B C1B 1_555 1_555
C3B C4 1_555 1_555
H1B C3B 1_555 1_555
H2B C4B 1_555 1_555
C6B C5 1_555 1_555
H4B C6B 1_555 1_555
C7B C6B 1_555 1_555
C5B C6 1_555 1_555
H3B C5B 1_555 1_555
C8B C7B 1_555 1_555
O3B C8B 1_555 1_555
O4B C8B 1_555 1_555
Zn1B O1B 1_555 1_555
N1B Zn1B 1_555 1_555
C9B N1B 1_555 1_555
H5B C9B 1_555 1_555
C10B C9B 1_555 1_555
H6B C10B 1_555 1_555
C11B C10B 1_555 1_555
H7B C11B 1_555 1_555
C12B C11B 1_555 1_555
H8B C12B 1_555 1_555
C13B N1B 1_555 1_555
H9B C13B 1_555 1_555
O5B Zn1B 1_555 1_555
Zn1B_2 O3B 1_555 1_555
O3B_2 Zn1B 1_555 1_555
C6 C7 1_555 1_555
C7 C8 1_555 1_555
C12 C13 1_555 1_555
C2B C3B 1_555 1_555
C7B C5B 1_555 1_555
C12B C13B 1_555 1_555

#END
