
#######################################################################
#
#                 Cambridge Crystallographic Data Centre
#                                CCDC 
#
#######################################################################
#
# If this CIF has been generated from an entry in the Cambridge 
# Structural Database, then it will include bibliographic, chemical, 
# crystal, experimental, refinement or atomic coordinate data resulting 
# from the CCDC's data processing and validation procedures.
#
#######################################################################

data_WUYWUJ
_symmetry_cell_setting           triclinic
_symmetry_space_group_name_H-M   'P -1'
_symmetry_Int_Tables_number      2
_space_group_name_Hall           '-P 1'
loop_
_symmetry_equiv_pos_site_id
_symmetry_equiv_pos_as_xyz
1 x,y,z
2 -x,-y,-z
_cell_length_a                   11.381(2)
_cell_length_b                   11.652(2)
_cell_length_c                   12.233(2)
_cell_angle_alpha                88.47(3)
_cell_angle_beta                 88.00(3)
_cell_angle_gamma                65.78(3)
_cell_volume                     1478.4
loop_
_atom_site_label
_atom_site_type_symbol
_atom_site_fract_x
_atom_site_fract_y
_atom_site_fract_z
Co1 Co 0.56899(3) 0.06860(3) 0.25499(3)
O1 O 0.63714(18) -0.14478(16) 0.26770(14)
O2 O 0.66961(18) -0.04375(16) 0.12500(14)
O3 O 0.8630(2) -0.53975(18) -0.24154(15)
O4 O 0.35998(18) 0.10317(17) 0.23615(14)
O5 O 0.43944(18) 0.15070(19) 0.37948(15)
O6 O -0.29635(19) 0.4717(2) 0.39149(15)
N1 N 0.8905(2) -0.6042(2) -0.06221(17)
H1 H 0.906(3) -0.6698(18) -0.0168(18)
N2 N -0.1518(2) 0.4133(2) 0.52984(17)
H2 H -0.147(3) 0.423(3) 0.6016(9)
N3 N 0.7235(2) 0.0600(2) 0.34452(18)
N4 N 0.5495(2) 0.2278(2) 0.16228(18)
C1 C 0.6837(2) -0.1474(2) 0.1718(2)
C2 C 0.7484(2) -0.2668(2) 0.1119(2)
C3 C 0.7846(3) -0.3836(2) 0.1650(2)
H3 H 0.7756 -0.3873 0.2407
C4 C 0.8335(3) -0.4930(2) 0.1062(2)
H4 H 0.8581 -0.5703 0.1424
C5 C 0.8463(2) -0.4886(2) -0.0083(2)
C6 C 0.8157(3) -0.3730(2) -0.0611(2)
H5 H 0.8275 -0.3691 -0.1365
C7 C 0.7680(3) -0.2647(2) -0.0009(2)
H6 H 0.7482 -0.1878 -0.0366
C8 C 0.8956(3) -0.6238(3) -0.1719(2)
C9 C 0.9437(3) -0.7600(3) -0.2022(2)
H7 H 0.8764 -0.7741 -0.2368
H8 H 0.9687 -0.8117 -0.1374
H9 H 1.0166 -0.7812 -0.2517
C10 C 0.3424(3) 0.1552(2) 0.3286(2)
C11 C 0.2120(2) 0.2212(2) 0.3779(2)
C12 C 0.1010(3) 0.2419(2) 0.3212(2)
H10 H 0.1088 0.2125 0.2502
C13 C -0.0209(3) 0.3052(2) 0.3679(2)
H11 H -0.0937 0.3177 0.3285
C14 C -0.0338(3) 0.3501(2) 0.4745(2)
C15 C 0.0773(3) 0.3286(3) 0.5324(2)
H12 H 0.0697 0.3576 0.6035
C16 C 0.1979(3) 0.2650(3) 0.4854(2)
H13 H 0.2707 0.2510 0.5253
C17 C -0.2727(3) 0.4716(3) 0.4891(2)
C18 C -0.3760(3) 0.5378(3) 0.5732(2)
H14 H -0.4305 0.6200 0.5461
H15 H -0.3370 0.5457 0.6393
H16 H -0.4265 0.4901 0.5879
C19 C 0.8359(3) 0.0445(3) 0.2971(2)
H17 H 0.8406 0.0492 0.2212
C20 C 0.9454(3) 0.0220(3) 0.3537(2)
H18 H 1.0215 0.0121 0.3164
C21 C 0.9418(3) 0.0142(2) 0.4678(2)
C22 C 0.8227(3) 0.0383(3) 0.5172(2)
H19 H 0.8140 0.0404 0.5930
C23 C 0.7172(3) 0.0592(3) 0.4549(2)
H20 H 0.6389 0.0733 0.4901
C24 C 0.5637(3) 0.3270(3) 0.2026(2)
H21 H 0.5873 0.3230 0.2751
C25 C 0.5454(3) 0.4335(3) 0.1431(2)
H22 H 0.5556 0.5001 0.1754
C26 C 0.5114(2) 0.4422(2) 0.0337(2)
C27 C 0.5008(3) 0.3390(3) -0.0086(2)
H23 H 0.4808 0.3390 -0.0817
C28 C 0.5196(3) 0.2357(3) 0.0569(2)
H24 H 0.5111 0.1675 0.0262
Co1A Co 0.43101(3) 0.93140(3) -0.25499(3)
Co1A_2 Co 1.43101(3) -0.06860(3) 0.74501(3)
O1A O 0.36286(18) 1.14478(16) -0.26770(14)
O2A O 0.33039(18) 1.04375(16) -0.12500(14)
O3A O 0.1370(2) 1.53975(18) 0.24154(15)
O4A O 0.64002(18) 0.89683(17) -0.23615(14)
O5A O 0.56056(18) 0.84930(19) -0.37948(15)
O6A O 1.29635(19) 0.5283(2) -0.39149(15)
N1A N 0.1095(2) 1.6042(2) 0.06221(17)
H1A H 0.094(3) 1.6698(18) 0.0168(18)
N2A N 1.1518(2) 0.5867(2) -0.52984(17)
H2A H 1.147(3) 0.577(3) -0.6016(9)
N3A N 1.2765(2) -0.0600(2) 0.65548(18)
N3A_2 N 0.2765(2) 0.9400(2) -0.34452(18)
N4A N 0.4505(2) 0.7722(2) -0.16228(18)
C1A C 0.3163(2) 1.1474(2) -0.1718(2)
C2A C 0.2516(2) 1.2668(2) -0.1119(2)
C3A C 0.2154(3) 1.3836(2) -0.1650(2)
H3A H 0.2244 1.3873 -0.2407
C4A C 0.1665(3) 1.4930(2) -0.1062(2)
H4A H 0.1419 1.5703 -0.1424
C5A C 0.1537(2) 1.4886(2) 0.0083(2)
C6A C 0.1843(3) 1.3730(2) 0.0611(2)
H5A H 0.1725 1.3691 0.1365
C7A C 0.2320(3) 1.2647(2) 0.0009(2)
H6A H 0.2518 1.1878 0.0366
C8A C 0.1044(3) 1.6238(3) 0.1719(2)
C9A C 0.0563(3) 1.7600(3) 0.2022(2)
H7A H 0.1236 1.7741 0.2368
H8A H 0.0313 1.8117 0.1374
H9A H -0.0166 1.7812 0.2517
C10A C 0.6576(3) 0.8448(2) -0.3286(2)
C11A C 0.7880(2) 0.7788(2) -0.3779(2)
C12A C 0.8990(3) 0.7581(2) -0.3212(2)
H10A H 0.8912 0.7875 -0.2502
C13A C 1.0209(3) 0.6948(2) -0.3679(2)
H11A H 1.0937 0.6823 -0.3285
C14A C 1.0338(3) 0.6499(2) -0.4745(2)
C15A C 0.9227(3) 0.6714(3) -0.5324(2)
H12A H 0.9303 0.6424 -0.6035
C16A C 0.8021(3) 0.7350(3) -0.4854(2)
H13A H 0.7293 0.7490 -0.5253
C17A C 1.2727(3) 0.5284(3) -0.4891(2)
C18A C 1.3760(3) 0.4622(3) -0.5732(2)
H14A H 1.4305 0.3800 -0.5461
H15A H 1.3370 0.4543 -0.6393
H16A H 1.4265 0.5099 -0.5879
C19A C 1.1641(3) -0.0445(3) 0.7029(2)
H17A H 1.1594 -0.0492 0.7788
C20A C 1.0546(3) -0.0220(3) 0.6463(2)
H18A H 0.9785 -0.0121 0.6836
C21A C 1.0582(3) -0.0142(2) 0.5322(2)
C22A C 1.1773(3) -0.0383(3) 0.4828(2)
H19A H 1.1860 -0.0404 0.4070
C23A C 1.2828(3) -0.0592(3) 0.5451(2)
H20A H 1.3611 -0.0733 0.5099
C24A C 0.4363(3) 0.6730(3) -0.2026(2)
H21A H 0.4127 0.6770 -0.2751
C25A C 0.4546(3) 0.5665(3) -0.1431(2)
H22A H 0.4444 0.4999 -0.1754
C26A C 0.4886(2) 0.5578(2) -0.0337(2)
C27A C 0.4992(3) 0.6610(3) 0.0086(2)
H23A H 0.5192 0.6610 0.0817
C28A C 0.4804(3) 0.7643(3) -0.0569(2)
H24A H 0.4889 0.8325 -0.0262
O7 O 0.9451(2) 0.17199(18) 0.07255(17)
H25 H 0.8888(17) 0.150(2) 0.046(2)
H26 H 1.0233(11) 0.120(2) 0.058(2)
O8 O 0.2905(2) 0.9011(2) 0.21733(17)
H27 H 0.348(2) 0.8385(16) 0.251(2)
H28 H 0.300(3) 0.9699(14) 0.218(2)
O9 O 0.8203(2) 0.0313(2) 0.98252(16)
H29 H 0.779(2) 0.001(3) 1.0253(17)
H30 H 0.789(3) 0.050(3) 0.9181(11)
O10 O 0.5037(2) 0.7044(2) 0.31171(19)
H31 H 0.547(2) 0.6308(13) 0.337(2)
H32 H 0.545(2) 0.751(2) 0.303(3)
loop_
_geom_bond_atom_site_label_1
_geom_bond_atom_site_label_2
_geom_bond_site_symmetry_1
_geom_bond_site_symmetry_2
Co1 O1 1_555 1_555
O1 C1 1_555 1_555
O2 Co1 1_555 1_555
O3 C8 1_555 1_555
O4 Co1 1_555 1_555
O5 Co1 1_555 1_555
O6 C17 1_555 1_555
N1 H1 1_555 1_555
N2 H2 1_555 1_555
N3 Co1 1_555 1_555
N4 Co1 1_555 1_555
C1 O2 1_555 1_555
C2 C1 1_555 1_555
C3 C2 1_555 1_555
H3 C3 1_555 1_555
C4 C3 1_555 1_555
H4 C4 1_555 1_555
C5 N1 1_555 1_555
C6 C5 1_555 1_555
H5 C6 1_555 1_555
C7 C2 1_555 1_555
H6 C7 1_555 1_555
C8 N1 1_555 1_555
C9 C8 1_555 1_555
H7 C9 1_555 1_555
H8 C9 1_555 1_555
H9 C9 1_555 1_555
C10 O4 1_555 1_555
C11 C10 1_555 1_555
C12 C11 1_555 1_555
H10 C12 1_555 1_555
C13 C12 1_555 1_555
H11 C13 1_555 1_555
C14 N2 1_555 1_555
C15 C14 1_555 1_555
H12 C15 1_555 1_555
C16 C11 1_555 1_555
H13 C16 1_555 1_555
C17 N2 1_555 1_555
C18 C17 1_555 1_555
H14 C18 1_555 1_555
H15 C18 1_555 1_555
H16 C18 1_555 1_555
C19 N3 1_555 1_555
H17 C19 1_555 1_555
C20 C19 1_555 1_555
H18 C20 1_555 1_555
C21 C20 1_555 1_555
C22 C21 1_555 1_555
H19 C22 1_555 1_555
C23 N3 1_555 1_555
H20 C23 1_555 1_555
C24 N4 1_555 1_555
H21 C24 1_555 1_555
C25 C24 1_555 1_555
H22 C25 1_555 1_555
C26 C25 1_555 1_555
C27 C26 1_555 1_555
H23 C27 1_555 1_555
C28 N4 1_555 1_555
H24 C28 1_555 1_555
O7 H25 1_555 1_555
H26 O7 1_555 1_555
O8 H27 1_555 1_555
H28 O8 1_555 1_555
O9 H29 1_555 1_555
H30 O9 1_555 1_555
O10 H31 1_555 1_555
H32 O10 1_555 1_555
Co1A O1A 1_555 1_555
Co1A_2 N3A 1_555 1_555
O1A C1A 1_555 1_555
O2A Co1A 1_555 1_555
O3A C8A 1_555 1_555
O4A Co1A 1_555 1_555
O5A Co1A 1_555 1_555
O6A C17A 1_555 1_555
N1A H1A 1_555 1_555
N2A H2A 1_555 1_555
N3A C19A 1_555 1_555
N3A_2 Co1A 1_555 1_555
N4A Co1A 1_555 1_555
C1A O2A 1_555 1_555
C2A C1A 1_555 1_555
C3A C2A 1_555 1_555
H3A C3A 1_555 1_555
C4A C3A 1_555 1_555
H4A C4A 1_555 1_555
C5A N1A 1_555 1_555
C6A C5A 1_555 1_555
H5A C6A 1_555 1_555
C7A C2A 1_555 1_555
H6A C7A 1_555 1_555
C8A N1A 1_555 1_555
C9A C8A 1_555 1_555
H7A C9A 1_555 1_555
H8A C9A 1_555 1_555
H9A C9A 1_555 1_555
C10A O4A 1_555 1_555
C11A C10A 1_555 1_555
C12A C11A 1_555 1_555
H10A C12A 1_555 1_555
C13A C12A 1_555 1_555
H11A C13A 1_555 1_555
C14A N2A 1_555 1_555
C15A C14A 1_555 1_555
H12A C15A 1_555 1_555
C16A C11A 1_555 1_555
H13A C16A 1_555 1_555
C17A N2A 1_555 1_555
C18A C17A 1_555 1_555
H14A C18A 1_555 1_555
H15A C18A 1_555 1_555
H16A C18A 1_555 1_555
C19A H17A 1_555 1_555
C20A C19A 1_555 1_555
H18A C20A 1_555 1_555
C21A C21 1_555 1_555
C22A C21A 1_555 1_555
H19A C22A 1_555 1_555
C23A N3A 1_555 1_555
H20A C23A 1_555 1_555
C24A N4A 1_555 1_555
H21A C24A 1_555 1_555
C25A C24A 1_555 1_555
H22A C25A 1_555 1_555
C26A C26 1_555 1_555
C27A C26A 1_555 1_555
H23A C27A 1_555 1_555
C28A N4A 1_555 1_555
H24A C28A 1_555 1_555
O5 C10 1_555 1_555
C4 C5 1_555 1_555
C6 C7 1_555 1_555
C13 C14 1_555 1_555
C15 C16 1_555 1_555
C22 C23 1_555 1_555
C27 C28 1_555 1_555
O5A C10A 1_555 1_555
C4A C5A 1_555 1_555
C6A C7A 1_555 1_555
C13A C14A 1_555 1_555
C15A C16A 1_555 1_555
C20A C21A 1_555 1_555
C22A C23A 1_555 1_555
C25A C26A 1_555 1_555
C27A C28A 1_555 1_555

#END
