
#######################################################################
#
#                 Cambridge Crystallographic Data Centre
#                                CCDC 
#
#######################################################################
#
# If this CIF has been generated from an entry in the Cambridge 
# Structural Database, then it will include bibliographic, chemical, 
# crystal, experimental, refinement or atomic coordinate data resulting 
# from the CCDC's data processing and validation procedures.
#
#######################################################################

data_WUYXOE
_symmetry_cell_setting           triclinic
_symmetry_space_group_name_H-M   'P -1'
_symmetry_Int_Tables_number      2
_space_group_name_Hall           '-P 1'
loop_
_symmetry_equiv_pos_site_id
_symmetry_equiv_pos_as_xyz
1 x,y,z
2 -x,-y,-z
_cell_length_a                   8.5900(17)
_cell_length_b                   12.220(2)
_cell_length_c                   12.960(3)
_cell_angle_alpha                109.23(5)
_cell_angle_beta                 100.10(4)
_cell_angle_gamma                96.42(3)
_cell_volume                     1243.38
loop_
_atom_site_label
_atom_site_type_symbol
_atom_site_fract_x
_atom_site_fract_y
_atom_site_fract_z
Cd1 Cd 0.17897(6) 0.18881(4) 0.59564(4)
C1 C 0.539(2) 0.2420(13) 0.8005(13)
H1 H 0.5187 0.1603 0.7677
C2 C 0.6643(18) 0.2941(13) 0.8938(12)
H2 H 0.7228 0.2471 0.9228
C3 C 0.7036(19) 0.4158(13) 0.9448(12)
H3 H 0.7889 0.4525 1.0067
C4 C 0.6077(15) 0.4802(11) 0.8978(11)
C5 C 0.6419(16) 0.6113(12) 0.9459(10)
C6 C 0.8004(19) 0.7815(13) 1.0719(12)
C7 C 0.930(2) 0.8431(14) 1.1633(14)
H4 H 0.9977 0.8015 1.1932
C8 C 0.957(2) 0.9600(14) 1.2078(14)
H5 H 1.0393 0.9993 1.2710
C9 C 0.858(3) 1.0266(16) 1.1579(18)
H6 H 0.8806 1.1086 1.1869
C10 C 0.735(2) 0.9704(15) 1.0710(16)
H7 H 0.6713 1.0134 1.0399
C11 C 0.7018(18) 0.8487(11) 1.0262(11)
C12 C 0.5428(17) 0.6738(10) 0.8985(10)
C13 C 0.4120(16) 0.6123(11) 0.8041(12)
C14 C 0.3117(18) 0.6755(13) 0.7501(13)
H8 H 0.3275 0.7573 0.7795
C15 C 0.1953(18) 0.6144(13) 0.6569(11)
H9 H 0.1306 0.6535 0.6213
C16 C 0.1738(17) 0.4886(13) 0.6143(13)
H10 H 0.0952 0.4469 0.5493
C17 C 0.3822(14) 0.4879(11) 0.7552(10)
C18 C 0.4791(16) 0.4243(11) 0.8029(11)
C19 C 0.2547(16) -0.0446(11) 0.5027(13)
C20 C 0.2939(19) -0.1666(12) 0.4690(12)
H11 H 0.4022 -0.1635 0.4568
H12 H 0.2890 -0.1972 0.5288
C21 C 0.1941(16) -0.3588(11) 0.3411(12)
C22 C 0.0839(17) -0.4323(11) 0.2440(12)
H13 H 0.0147 -0.4006 0.2028
C23 C 0.078(2) -0.5501(13) 0.2099(13)
H14 H 0.0042 -0.5986 0.1446
C24 C 0.1824(19) -0.6029(11) 0.2717(12)
C25 C 0.2943(18) -0.5299(12) 0.3665(12)
H15 H 0.3653 -0.5605 0.4076
C26 C 0.2977(18) -0.4064(12) 0.3994(12)
H16 H 0.3732 -0.3561 0.4628
C27 C 0.2602(18) -0.7732(13) 0.2844(12)
H17 H 0.3699 -0.7319 0.3006
H18 H 0.2557 -0.8541 0.2368
C28 C 0.2189(15) -0.7728(12) 0.3937(13)
N1 N 0.4450(15) 0.3031(9) 0.7537(10)
N2 N 0.2632(15) 0.4270(10) 0.6646(10)
N3 N 0.7688(14) 0.6606(10) 1.0304(9)
N4 N 0.5701(16) 0.7912(11) 0.9368(11)
O1 O 0.1349(15) -0.0240(9) 0.4469(9)
O2 O 0.3376(14) 0.0330(10) 0.5914(10)
O3 O 0.1860(13) -0.2405(8) 0.3718(9)
O4 O 0.1621(15) -0.7228(9) 0.2272(9)
O5 O 0.0818(13) -0.7669(9) 0.4094(9)
O6 O 0.3337(13) -0.7851(10) 0.4684(9)
Cd1_2 Cd 0.17897(6) -0.81119(4) 0.59564(4)
O5_2 O 0.0818(13) 0.2331(9) 0.4094(9)
O6_2 O 0.3337(13) 0.2149(10) 0.4684(9)
loop_
_geom_bond_atom_site_label_1
_geom_bond_atom_site_label_2
_geom_bond_site_symmetry_1
_geom_bond_site_symmetry_2
Cd1 N1 1_555 1_555
C1 H1 1_555 1_555
C2 C1 1_555 1_555
H2 C2 1_555 1_555
C3 C2 1_555 1_555
H3 C3 1_555 1_555
C4 C3 1_555 1_555
C5 C4 1_555 1_555
C6 C7 1_555 1_555
C7 H4 1_555 1_555
C8 C7 1_555 1_555
H5 C8 1_555 1_555
C9 C8 1_555 1_555
H6 C9 1_555 1_555
C10 C9 1_555 1_555
H7 C10 1_555 1_555
C11 C6 1_555 1_555
C12 C5 1_555 1_555
C13 C12 1_555 1_555
C14 C13 1_555 1_555
H8 C14 1_555 1_555
C15 C14 1_555 1_555
H9 C15 1_555 1_555
C16 C15 1_555 1_555
H10 C16 1_555 1_555
C17 C13 1_555 1_555
C18 C4 1_555 1_555
C19 C20 1_555 1_555
C20 H11 1_555 1_555
H12 C20 1_555 1_555
C21 C22 1_555 1_555
C22 H13 1_555 1_555
C23 C22 1_555 1_555
H14 C23 1_555 1_555
C24 C23 1_555 1_555
C25 C24 1_555 1_555
H15 C25 1_555 1_555
C26 C21 1_555 1_555
H16 C26 1_555 1_555
C27 H17 1_555 1_555
H18 C27 1_555 1_555
C28 C27 1_555 1_555
N1 C1 1_555 1_555
N2 Cd1 1_555 1_555
N3 C5 1_555 1_555
N4 C11 1_555 1_555
O1 Cd1 1_555 1_555
O2 Cd1 1_555 1_555
O3 C20 1_555 1_555
O4 C24 1_555 1_555
O5 C28 1_555 1_555
O6 C28 1_555 1_555
Cd1_2 O5 1_555 1_555
O5_2 Cd1 1_555 1_555
O6_2 Cd1 1_555 1_555
C6 N3 1_555 1_555
C10 C11 1_555 1_555
C12 N4 1_555 1_555
C16 N2 1_555 1_555
C17 C18 1_555 1_555
C17 N2 1_555 1_555
C18 N1 1_555 1_555
C19 O1 1_555 1_555
C19 O2 1_555 1_555
C21 O3 1_555 1_555
C25 C26 1_555 1_555
C27 O4 1_555 1_555
O6 Cd1_2 1_555 1_555

#END
