
#######################################################################
#
#                 Cambridge Crystallographic Data Centre
#                                CCDC 
#
#######################################################################
#
# If this CIF has been generated from an entry in the Cambridge 
# Structural Database, then it will include bibliographic, chemical, 
# crystal, experimental, refinement or atomic coordinate data resulting 
# from the CCDC's data processing and validation procedures.
#
#######################################################################

data_WUYYEV
_symmetry_cell_setting           monoclinic
_symmetry_space_group_name_H-M   'P 21/c'
_symmetry_Int_Tables_number      14
_space_group_name_Hall           '-P 2ybc'
loop_
_symmetry_equiv_pos_site_id
_symmetry_equiv_pos_as_xyz
1 x,y,z
2 -x,1/2+y,1/2-z
3 -x,-y,-z
4 x,1/2-y,1/2+z
_cell_length_a                   20.0618(14)
_cell_length_b                   13.1722(9)
_cell_length_c                   21.1529(15)
_cell_angle_alpha                90
_cell_angle_beta                 111.5340(10)
_cell_angle_gamma                90
_cell_volume                     5199.65
loop_
_atom_site_label
_atom_site_type_symbol
_atom_site_fract_x
_atom_site_fract_y
_atom_site_fract_z
Co1 Co 0.214282(18) 0.88993(3) 0.069145(18)
Co2 Co 0.307418(19) 1.09560(3) 0.029758(18)
C1 C 0.05574(16) 0.9225(2) -0.03363(17)
H1 H 0.0728 0.9812 -0.0469
C2 C -0.01638(17) 0.8999(3) -0.06437(19)
H2 H -0.0467 0.9423 -0.0977
C3 C -0.04230(16) 0.8145(3) -0.04507(17)
H3 H -0.0908 0.7990 -0.0644
C4 C 0.00413(15) 0.7508(2) 0.00355(15)
C5 C -0.01957(16) 0.6579(2) 0.02671(16)
C6 C -0.10881(18) 0.5493(3) 0.02502(18)
C7 C -0.18194(19) 0.5206(3) 0.0003(2)
H4 H -0.2161 0.5613 -0.0311
C8 C -0.2019(2) 0.4331(3) 0.0225(2)
H5 H -0.2498 0.4140 0.0059
C9 C -0.1515(3) 0.3720(3) 0.0698(2)
H6 H -0.1665 0.3123 0.0840
C10 C -0.0809(2) 0.3967(3) 0.0960(2)
H7 H -0.0481 0.3552 0.1280
C11 C -0.05807(19) 0.4872(2) 0.07343(17)
C12 C 0.03147(16) 0.5952(2) 0.07555(16)
C13 C 0.10699(16) 0.6231(2) 0.10214(15)
C14 C 0.15947(18) 0.5654(2) 0.15020(17)
H8 H 0.1473 0.5051 0.1661
C15 C 0.22910(18) 0.5979(2) 0.17392(17)
H9 H 0.2644 0.5615 0.2074
C16 C 0.24606(16) 0.6859(2) 0.14715(15)
H10 H 0.2938 0.7059 0.1621
C17 C 0.12847(14) 0.71280(19) 0.07972(14)
C18 C 0.07629(14) 0.7780(2) 0.03102(14)
C19 C 0.43099(16) 1.1020(2) -0.02518(15)
H11 H 0.4134 1.0397 -0.0450
C20 C 0.49061(16) 1.1425(2) -0.03417(16)
H12 H 0.5127 1.1075 -0.0594
C21 C 0.51677(15) 1.2344(2) -0.00568(15)
H13 H 0.5564 1.2628 -0.0118
C22 C 0.48349(14) 1.2848(2) 0.03245(13)
C23 C 0.50831(14) 1.3824(2) 0.06480(14)
C24 C 0.58615(15) 1.5160(2) 0.08807(15)
C25 C 0.64406(16) 1.5673(3) 0.07877(17)
H14 H 0.6664 1.5396 0.0512
C26 C 0.66672(17) 1.6583(3) 0.1111(2)
H15 H 0.7040 1.6930 0.1043
C27 C 0.6348(2) 1.6999(3) 0.1539(2)
H16 H 0.6519 1.7609 0.1761
C28 C 0.57951(18) 1.6529(2) 0.16351(19)
H17 H 0.5588 1.6815 0.1921
C29 C 0.55311(16) 1.5598(2) 0.12995(16)
C30 C 0.47432(14) 1.4276(2) 0.10621(14)
C31 C 0.41365(14) 1.3769(2) 0.11505(14)
C32 C 0.37997(17) 1.4146(2) 0.15701(17)
H18 H 0.3950 1.4755 0.1801
C33 C 0.32468(19) 1.3614(2) 0.16395(19)
H19 H 0.3026 1.3843 0.1930
C34 C 0.30200(17) 1.2729(2) 0.12711(18)
H20 H 0.2635 1.2381 0.1313
C35 C 0.38861(13) 1.28544(19) 0.08111(13)
C36 C 0.42458(13) 1.23855(19) 0.03966(13)
C37 C 0.19874(14) 1.0145(2) 0.18695(14)
C38 C 0.19563(19) 1.0153(3) 0.25750(16)
H21 H 0.2405 1.0423 0.2891
H22 H 0.1578 1.0612 0.2574
C39 C 0.11613(17) 0.8786(3) 0.25036(15)
C40 C 0.11340(18) 0.7746(3) 0.24604(17)
H23 H 0.1557 0.7374 0.2622
C41 C 0.04915(18) 0.7245(3) 0.21820(16)
H24 H 0.0481 0.6539 0.2169
C42 C -0.01306(18) 0.7782(3) 0.19253(17)
C43 C -0.01142(19) 0.8814(3) 0.1974(2)
H25 H -0.0540 0.9179 0.1809
C44 C 0.05397(19) 0.9331(3) 0.22723(19)
H26 H 0.0549 1.0035 0.2311
C45 C -0.14116(18) 0.7609(3) 0.1464(2)
H27 H -0.1392 0.8057 0.1834
H28 H -0.1741 0.7063 0.1451
C46 C -0.17201(16) 0.8202(2) 0.08025(16)
C47 C 0.37592(14) 0.9417(2) 0.14010(13)
C48 C 0.44660(15) 0.9135(2) 0.19552(15)
H29 H 0.4851 0.9333 0.1807
H30 H 0.4517 0.9531 0.2357
C49 C 0.42432(14) 0.7736(2) 0.25753(13)
C50 C 0.37232(14) 0.8236(2) 0.27388(13)
H31 H 0.3574 0.8881 0.2564
C51 C 0.34229(14) 0.77778(19) 0.31637(13)
H32 H 0.3071 0.8113 0.3271
C52 C 0.36465(15) 0.6831(2) 0.34241(13)
C53 C 0.41714(17) 0.6330(2) 0.32670(16)
H33 H 0.4324 0.5689 0.3446
C54 C 0.44682(16) 0.6787(2) 0.28427(15)
H34 H 0.4822 0.6451 0.2737
C55 C 0.29055(15) 0.6812(2) 0.40875(15)
H35 H 0.3115 0.7445 0.4304
H36 H 0.2466 0.6966 0.3709
C56 C 0.27432(14) 0.6138(2) 0.45925(14)
N1 N 0.10177(12) 0.86467(17) 0.01377(12)
N2 N 0.19779(11) 0.74259(16) 0.10156(11)
N3 N -0.08873(14) 0.6347(2) 0.00135(14)
N4 N 0.01282(15) 0.51060(19) 0.09877(13)
N5 N 0.39824(11) 1.14867(16) 0.01055(11)
N6 N 0.33217(12) 1.23517(16) 0.08634(12)
N7 N 0.56348(12) 1.42633(19) 0.05532(12)
N8 N 0.49644(13) 1.51510(18) 0.13820(13)
O1 O 0.19933(12) 0.93253(15) 0.15947(10)
O2 O 0.20094(13) 1.10084(16) 0.16261(12)
H37 H 0.2025 1.0948 0.1246
O4 O 0.18356(12) 0.9202(2) 0.28157(11)
O6 O -0.07310(13) 0.7190(2) 0.16109(14)
O7 O -0.23951(11) 0.82992(18) 0.05836(11)
O8 O -0.13183(11) 0.85621(18) 0.05440(12)
O9 O 0.32617(10) 0.87870(14) 0.12202(10)
O10 O 0.37535(11) 1.02978(15) 0.11867(10)
O11 O 0.45603(10) 0.80968(15) 0.21443(10)
O12 O 0.33885(12) 0.63051(14) 0.38496(11)
O13 O 0.23056(11) 0.64998(15) 0.48234(10)
O14 O 0.30544(12) 0.53102(15) 0.47288(11)
O15 O 0.21563(9) 1.05001(13) 0.05017(10)
H38 H 0.1799 1.0946 0.0508
Co1C Co 0.214282(18) 0.61007(3) 0.569145(18)
Co2B Co -0.307418(19) 0.90440(3) -0.029758(18)
Co2C Co 0.307418(19) 0.40440(3) 0.529758(18)
O7B O 0.23951(11) 1.17008(18) -0.05836(11)
O13C O 0.23056(11) 0.85002(15) -0.01766(10)
O14C O 0.30544(12) 0.96898(15) -0.02712(11)
O3 O 0.3687(2) 0.6804(3) 0.0758(2)
O5 O 0.1728(4) 0.2999(4) 0.2031(3)
O16 O 0.2763(2) 0.0701(3) 0.8197(2)
H39 H 0.240(3) 0.022(4) 0.805(3)
H40 H 0.267(4) 0.095(5) 0.857(2)
loop_
_geom_bond_atom_site_label_1
_geom_bond_atom_site_label_2
_geom_bond_site_symmetry_1
_geom_bond_site_symmetry_2
Co1 N1 1_555 1_555
Co2 N5 1_555 1_555
C1 H1 1_555 1_555
C2 C1 1_555 1_555
H2 C2 1_555 1_555
C3 C2 1_555 1_555
H3 C3 1_555 1_555
C4 C3 1_555 1_555
C5 C4 1_555 1_555
C6 C7 1_555 1_555
C7 H4 1_555 1_555
C8 C7 1_555 1_555
H5 C8 1_555 1_555
C9 C8 1_555 1_555
H6 C9 1_555 1_555
C10 C9 1_555 1_555
H7 C10 1_555 1_555
C11 C6 1_555 1_555
C12 C5 1_555 1_555
C13 C12 1_555 1_555
C14 C13 1_555 1_555
H8 C14 1_555 1_555
C15 C14 1_555 1_555
H9 C15 1_555 1_555
C16 C15 1_555 1_555
H10 C16 1_555 1_555
C17 C13 1_555 1_555
C18 C4 1_555 1_555
C19 H11 1_555 1_555
C20 C19 1_555 1_555
H12 C20 1_555 1_555
C21 C20 1_555 1_555
H13 C21 1_555 1_555
C22 C21 1_555 1_555
C23 C22 1_555 1_555
C24 C25 1_555 1_555
C25 H14 1_555 1_555
C26 C25 1_555 1_555
H15 C26 1_555 1_555
C27 C26 1_555 1_555
H16 C27 1_555 1_555
C28 C27 1_555 1_555
H17 C28 1_555 1_555
C29 C24 1_555 1_555
C30 C23 1_555 1_555
C31 C30 1_555 1_555
C32 C31 1_555 1_555
H18 C32 1_555 1_555
C33 C32 1_555 1_555
H19 C33 1_555 1_555
C34 C33 1_555 1_555
H20 C34 1_555 1_555
C35 C31 1_555 1_555
C36 C22 1_555 1_555
C37 C38 1_555 1_555
C38 H21 1_555 1_555
H22 C38 1_555 1_555
C39 C40 1_555 1_555
C40 H23 1_555 1_555
C41 C40 1_555 1_555
H24 C41 1_555 1_555
C42 C41 1_555 1_555
C43 C42 1_555 1_555
H25 C43 1_555 1_555
C44 C39 1_555 1_555
H26 C44 1_555 1_555
C45 H27 1_555 1_555
H28 C45 1_555 1_555
C46 C45 1_555 1_555
C47 C48 1_555 1_555
C48 H29 1_555 1_555
H30 C48 1_555 1_555
C49 C50 1_555 1_555
C50 H31 1_555 1_555
C51 C50 1_555 1_555
H32 C51 1_555 1_555
C52 C51 1_555 1_555
C53 C52 1_555 1_555
H33 C53 1_555 1_555
C54 C49 1_555 1_555
H34 C54 1_555 1_555
C55 H35 1_555 1_555
H36 C55 1_555 1_555
C56 C55 1_555 1_555
N1 C1 1_555 1_555
N2 Co1 1_555 1_555
N3 C5 1_555 1_555
N4 C11 1_555 1_555
N5 C19 1_555 1_555
N6 Co2 1_555 1_555
N7 C23 1_555 1_555
N8 C29 1_555 1_555
O1 Co1 1_555 1_555
O2 C37 1_555 1_555
H37 O2 1_555 1_555
O4 C38 1_555 1_555
O6 C42 1_555 1_555
O7 C46 1_555 1_555
O8 C46 1_555 1_555
O9 Co1 1_555 1_555
O10 Co2 1_555 1_555
O11 C48 1_555 1_555
O12 C52 1_555 1_555
O13 C56 1_555 1_555
O14 C56 1_555 1_555
O15 Co1 1_555 1_555
H38 O15 1_555 1_555
O16 H39 1_555 1_555
H40 O16 1_555 1_555
Co1C O13 1_555 1_555
Co2B O7 1_555 1_555
Co2C O14 1_555 1_555
O7B Co2 1_555 1_555
O13C Co1 1_555 1_555
O14C Co2 1_555 1_555
Co2 O15 1_555 1_555
C6 N3 1_555 1_555
C10 C11 1_555 1_555
C12 N4 1_555 1_555
C16 N2 1_555 1_555
C17 C18 1_555 1_555
C17 N2 1_555 1_555
C18 N1 1_555 1_555
C24 N7 1_555 1_555
C28 C29 1_555 1_555
C30 N8 1_555 1_555
C34 N6 1_555 1_555
C35 C36 1_555 1_555
C35 N6 1_555 1_555
C36 N5 1_555 1_555
C37 O1 1_555 1_555
C39 O4 1_555 1_555
C43 C44 1_555 1_555
C45 O6 1_555 1_555
C47 O9 1_555 1_555
C47 O10 1_555 1_555
C49 O11 1_555 1_555
C53 C54 1_555 1_555
C55 O12 1_555 1_555

#END
