
#######################################################################
#
#                 Cambridge Crystallographic Data Centre
#                                CCDC 
#
#######################################################################
#
# If this CIF has been generated from an entry in the Cambridge 
# Structural Database, then it will include bibliographic, chemical, 
# crystal, experimental, refinement or atomic coordinate data resulting 
# from the CCDC's data processing and validation procedures.
#
#######################################################################

data_WUYZEV
_symmetry_cell_setting           monoclinic
_symmetry_space_group_name_H-M   'P 21/c'
_symmetry_Int_Tables_number      14
_space_group_name_Hall           '-P 2ybc'
loop_
_symmetry_equiv_pos_site_id
_symmetry_equiv_pos_as_xyz
1 x,y,z
2 x,1/2-y,1/2+z
3 -x,-y,-z
4 -x,1/2+y,1/2-z
_cell_length_a                   13.0524(2)
_cell_length_b                   13.6038(3)
_cell_length_c                   19.0358(3)
_cell_angle_alpha                90
_cell_angle_beta                 103.558(1)
_cell_angle_gamma                90
_cell_volume                     3285.85
loop_
_atom_site_label
_atom_site_type_symbol
_atom_site_fract_x
_atom_site_fract_y
_atom_site_fract_z
Cu1 Cu 0.72032(3) 0.03046(3) 0.245679(19)
N1 N 0.8877(2) 0.0010(2) 0.32346(17)
C1 C 0.9689(2) 0.0487(2) 0.29921(16)
C2 C 1.0183(2) 0.0027(2) 0.25071(19)
H1 H 1.0041 -0.0631 0.2391
C3 C 1.0880(2) 0.0534(2) 0.21973(17)
H2 H 1.1197 0.0221 0.1869
C4 C 1.1109(2) 0.1518(2) 0.23787(15)
C5 C 1.0644(2) 0.1970(2) 0.28768(15)
H3 H 1.0803 0.2621 0.3005
C6 C 0.9947(2) 0.1461(2) 0.31842(15)
H4 H 0.9645 0.1770 0.3523
S1 S 1.18909(6) 0.21883(5) 0.19009(4)
O1 O 1.1184(2) 0.24903(19) 0.12348(12)
O2 O 1.27511(17) 0.15601(16) 0.18246(13)
N2 N 1.22624(18) 0.31750(17) 0.23346(13)
N3 N 1.34427(18) 0.41359(17) 0.30933(13)
C7 C 1.3083(2) 0.3202(2) 0.29211(16)
C8 C 1.3591(2) 0.2419(2) 0.33435(17)
H5 H 1.3377 0.1772 0.3241
C9 C 1.4417(3) 0.2646(3) 0.39155(18)
N4 N 1.4789(2) 0.3558(2) 0.40794(14)
C10 C 1.4274(2) 0.4249(2) 0.36467(16)
O3 O 1.4875(2) 0.1898(2) 0.43348(14)
C11 C 1.5762(4) 0.2117(4) 0.4933(2)
H6 H 1.6316 0.2412 0.4751
H7 H 1.6014 0.1520 0.5183
H8 H 1.5542 0.2564 0.5259
O4 O 1.45982(18) 0.51879(17) 0.37405(13)
C12 C 1.5621(3) 0.5379(3) 0.4216(2)
H9 H 1.5544 0.5458 0.4703
H10 H 1.5912 0.5969 0.4065
H11 H 1.6084 0.4837 0.4196
N5 N 0.6426(2) 0.0187(2) 0.32744(15)
C13 C 0.5484(2) -0.0385(2) 0.30855(15)
C14 C 0.4557(2) 0.0049(2) 0.27081(17)
H12 H 0.4520 0.0728 0.2648
C15 C 0.3691(2) -0.0529(2) 0.24220(17)
H13 H 0.3066 -0.0240 0.2171
C16 C 0.3752(2) -0.1540(2) 0.25100(15)
C17 C 0.4661(2) -0.1966(2) 0.29263(16)
H14 H 0.4687 -0.2641 0.3006
C18 C 0.5525(2) -0.1388(2) 0.32218(15)
H15 H 0.6129 -0.1669 0.3510
S2 S 0.27399(6) -0.22797(5) 0.19934(4)
O5 O 0.31356(19) -0.26858(16) 0.14088(11)
O6 O 0.18087(16) -0.16801(16) 0.18067(12)
N6 N 0.26142(19) -0.32009(17) 0.24838(13)
N7 N 0.22001(18) -0.40753(18) 0.33432(13)
C19 C 0.2205(2) -0.3150(2) 0.30808(15)
C20 C 0.1836(2) -0.2365(2) 0.34095(16)
H16 H 0.1817 -0.1729 0.3228
C21 C 0.1498(2) -0.2589(2) 0.40257(17)
N8 N 0.1494(2) -0.3491(2) 0.42989(14)
C22 C 0.1835(2) -0.4194(2) 0.39325(18)
O7 O 0.1173(2) -0.18366(18) 0.43710(13)
C23 C 0.0812(3) -0.2042(3) 0.50155(19)
H17 H 0.0270 -0.2534 0.4912
H18 H 0.0535 -0.1452 0.5177
H19 H 0.1391 -0.2277 0.5387
O8 O 0.1849(2) -0.5120(2) 0.41608(17)
C24 C 0.1398(5) -0.53077(8) 0.4781(2)
H20 H 0.1719 -0.4878 0.5171
H21 H 0.1526 -0.5979 0.4932
H22 H 0.0653 -0.5189 0.4648
H29 H 0.885(3) 0.018(3) 0.367(2)
H30 H 0.886(3) -0.059(3) 0.319(2)
H31 H 0.632(3) 0.078(3) 0.3388(19)
H32 H 0.692(3) -0.005(3) 0.360(2)
N3C N 0.65573(18) -0.08641(17) 0.19067(13)
N6C N 0.73858(19) 0.17991(17) 0.25162(13)
N7C N 0.77999(18) 0.09247(18) 0.16568(13)
Cu1C Cu 1.27968(3) 0.53046(3) 0.254321(19)
Cu1C_2 Cu 0.27968(3) -0.46954(3) 0.254321(19)
S3 S 0.82741(7) 0.57115(8) 0.02407(5)
O9 O 0.79566(7) 0.52058(9) -0.04704(5)
C25 C 0.75002(7) 0.52345(8) 0.08060(5)
H23 H 0.6771 0.5376 0.0601
H24 H 0.7710 0.5532 0.1275
H25 H 0.7598 0.4536 0.0850
C26 C 0.7692(4) 0.6897(3) 0.0117(2)
H26 H 0.7926 0.7235 -0.0259
H27 H 0.7896 0.7263 0.0559
H28 H 0.6939 0.6833 -0.0016
loop_
_geom_bond_atom_site_label_1
_geom_bond_atom_site_label_2
_geom_bond_site_symmetry_1
_geom_bond_site_symmetry_2
Cu1 N1 1_555 1_555
N1 C1 1_555 1_555
C1 C2 1_555 1_555
C2 H1 1_555 1_555
C3 C2 1_555 1_555
H2 C3 1_555 1_555
C4 C3 1_555 1_555
C5 C4 1_555 1_555
H3 C5 1_555 1_555
C6 C1 1_555 1_555
H4 C6 1_555 1_555
S1 C4 1_555 1_555
O1 S1 1_555 1_555
O2 S1 1_555 1_555
N2 S1 1_555 1_555
N3 C7 1_555 1_555
C7 N2 1_555 1_555
C8 C7 1_555 1_555
H5 C8 1_555 1_555
C9 C8 1_555 1_555
N4 C9 1_555 1_555
C10 N3 1_555 1_555
O3 C9 1_555 1_555
C11 O3 1_555 1_555
H6 C11 1_555 1_555
H7 C11 1_555 1_555
H8 C11 1_555 1_555
O4 C10 1_555 1_555
C12 O4 1_555 1_555
H9 C12 1_555 1_555
H10 C12 1_555 1_555
H11 C12 1_555 1_555
N5 Cu1 1_555 1_555
C13 N5 1_555 1_555
C14 C13 1_555 1_555
H12 C14 1_555 1_555
C15 C14 1_555 1_555
H13 C15 1_555 1_555
C16 C15 1_555 1_555
C17 C16 1_555 1_555
H14 C17 1_555 1_555
C18 C13 1_555 1_555
H15 C18 1_555 1_555
S2 C16 1_555 1_555
O5 S2 1_555 1_555
O6 S2 1_555 1_555
N6 S2 1_555 1_555
N7 C19 1_555 1_555
C19 N6 1_555 1_555
C20 C19 1_555 1_555
H16 C20 1_555 1_555
C21 C20 1_555 1_555
N8 C21 1_555 1_555
C22 N7 1_555 1_555
O7 C21 1_555 1_555
C23 O7 1_555 1_555
H17 C23 1_555 1_555
H18 C23 1_555 1_555
H19 C23 1_555 1_555
O8 C22 1_555 1_555
C24 O8 1_555 1_555
H20 C24 1_555 1_555
H21 C24 1_555 1_555
H22 C24 1_555 1_555
S3 O9 1_555 1_555
C25 S3 1_555 1_555
H23 C25 1_555 1_555
H24 C25 1_555 1_555
H25 C25 1_555 1_555
C26 S3 1_555 1_555
H26 C26 1_555 1_555
H27 C26 1_555 1_555
H28 C26 1_555 1_555
H29 N1 1_555 1_555
H30 N1 1_555 1_555
H31 N5 1_555 1_555
H32 N5 1_555 1_555
N3C Cu1 1_555 1_555
N6C Cu1 1_555 1_555
N7C Cu1 1_555 1_555
Cu1C N3 1_555 1_555
Cu1C_2 N6 1_555 1_555
C5 C6 1_555 1_555
N4 C10 1_555 1_555
C17 C18 1_555 1_555
N7 Cu1C_2 1_555 1_555
N8 C22 1_555 1_555

#END
