
#######################################################################
#
#                 Cambridge Crystallographic Data Centre
#                                CCDC 
#
#######################################################################
#
# If this CIF has been generated from an entry in the Cambridge 
# Structural Database, then it will include bibliographic, chemical, 
# crystal, experimental, refinement or atomic coordinate data resulting 
# from the CCDC's data processing and validation procedures.
#
#######################################################################

data_WUZDOL
_symmetry_cell_setting           tetragonal
_symmetry_space_group_name_H-M   'I 41/a m d'
_symmetry_Int_Tables_number      141
_space_group_name_Hall           '-I 4bd 2'
loop_
_symmetry_equiv_pos_site_id
_symmetry_equiv_pos_as_xyz
1 x,y,z
2 1/2-x,-y,1/2+z
3 1/4-y,3/4+x,1/4+z
4 1/4+y,1/4-x,3/4+z
5 1/2-x,y,1/2-z
6 x,-y,-z
7 1/4+y,3/4+x,1/4-z
8 1/4-y,1/4-x,3/4-z
9 1/2+x,1/2+y,1/2+z
10 -x,1/2-y,z
11 3/4-y,1/4+x,3/4+z
12 3/4+y,3/4-x,1/4+z
13 -x,1/2+y,-z
14 1/2+x,1/2-y,1/2-z
15 3/4+y,1/4+x,3/4-z
16 3/4-y,3/4-x,1/4-z
17 -x,-y,-z
18 1/2+x,y,1/2-z
19 3/4+y,1/4-x,3/4-z
20 3/4-y,3/4+x,1/4-z
21 1/2+x,-y,1/2+z
22 -x,y,z
23 3/4-y,1/4-x,3/4+z
24 3/4+y,3/4+x,1/4+z
25 1/2-x,1/2-y,1/2-z
26 x,1/2+y,-z
27 1/4+y,3/4-x,1/4-z
28 1/4-y,1/4+x,3/4-z
29 x,1/2-y,z
30 1/2-x,1/2+y,1/2+z
31 1/4-y,3/4-x,1/4+z
32 1/4+y,1/4+x,3/4+z
_cell_length_a                   17.0280(2)
_cell_length_b                   17.0280(2)
_cell_length_c                   23.1439(6)
_cell_angle_alpha                90
_cell_angle_beta                 90
_cell_angle_gamma                90
_cell_volume                     6710.64
loop_
_atom_site_label
_atom_site_type_symbol
_atom_site_fract_x
_atom_site_fract_y
_atom_site_fract_z
Cu1 Cu 1.088568(18) 0.7500 0.984242(13)
Cu2 Cu 1.000000(18) 0.8281 0.900060(13)
I1 I 1.0000 0.875960(9) 1.009395(6)
I2 I 1.131123(9) 0.7500 0.871984(7)
N1 N 1.19156(12) 0.7500 1.03658(8)
N2 N 1.3194 0.75000(12) 1.09948(8)
C1 C 1.26336(15) 0.7500 1.00033(11)
H1 H 1.2631 0.7039 0.9757
C2 C 1.33820(15) 0.7500 1.03675(10)
H2 H 1.3692 0.7961 1.0275
C3 C 1.27081(10) 0.82033(10) 1.11113(7)
H3 H 1.2575 0.8220 1.1519
H4 H 1.3008 0.8672 1.1021
C4 C 1.19489(11) 0.81968(11) 1.07510(8)
H5 H 1.1923 0.8671 1.0519
H6 H 1.1499 0.8192 1.1008
Cu1I Cu 0.911432(18) 0.7500 0.984242(13)
Cu1C Cu 1.0000 1.161432(18) 0.734242(13)
Cu2I Cu 1.000000(18) 0.6719 0.900060(13)
Cu2B Cu 1.4219 0.750000(18) 1.150060(13)
I1I I 1.0000 0.624040(9) 1.009395(6)
I2I I 0.868877(9) 0.7500 0.871984(7)
N1C N 1.0000 1.05844(12) 0.78658(8)
N1I N 0.80844(12) 0.7500 1.03658(8)
N2C N 1.00000(12) 0.9306 0.84948(8)
N2J N 1.00000(12) 0.5694 0.84948(8)
C1C C 1.0000 0.98664(15) 0.75033(11)
H1BA H 1.2631 0.7961 0.9757
H1C H 0.9539 0.9869 0.7257
H1V H 1.0461 0.9869 0.7257
C2C C 1.0000 0.91180(15) 0.78675(10)
H2BA H 1.3692 0.7039 1.0275
H2C H 1.0461 0.8808 0.7775
H2V H 0.9539 0.8808 0.7775
C3BA C 1.27081(10) 0.67967(10) 1.11113(7)
C3C C 1.07033(10) 0.97919(10) 0.86113(7)
C3V C 0.92967(10) 0.97919(10) 0.86113(7)
H3BA H 1.2575 0.6780 1.1519
H3C H 1.0720 0.9925 0.9019
H3V H 0.9280 0.9925 0.9019
H4BA H 1.3008 0.6328 1.1021
H4C H 1.1172 0.9492 0.8521
H4V H 0.8828 0.9492 0.8521
C4BA C 1.19489(11) 0.68032(11) 1.07510(8)
C4C C 1.06968(11) 1.05511(11) 0.82510(8)
C4V C 0.93032(11) 1.05511(11) 0.82510(8)
H5BA H 1.1923 0.6329 1.0519
H5C H 1.1171 1.0577 0.8019
H5V H 0.8829 1.0577 0.8019
H6BA H 1.1499 0.6808 1.1008
H6C H 1.0692 1.1001 0.8508
H6V H 0.9308 1.1001 0.8508
N3 N 0.7500 0.8722(2) 0.7500
N4 N 0.7500 1.0347(2) 0.7500
C5 C 0.78582(18) 0.91332(17) 0.70516(12)
H7 H 0.8102 0.8861 0.6753
C6 C 0.78535(15) 0.99303(16) 0.70488(11)
H8 H 0.8087 1.0201 0.6745
C5D C 0.71418(18) 0.91332(17) 0.79484(12)
H7D H 0.6898 0.8861 0.8247
C6D C 0.71465(15) 0.99303(16) 0.79512(11)
H8D H 0.6913 1.0201 0.8255
O2 O 0.5000 0.7500 0.8155(5)
O1? O 0.4203(7) 0.7500 0.8332(5)
O3? O 0.4217(9) 0.7500 0.8892(7)
loop_
_geom_bond_atom_site_label_1
_geom_bond_atom_site_label_2
_geom_bond_site_symmetry_1
_geom_bond_site_symmetry_2
Cu1 I1 1_555 1_555
Cu2 I1 1_555 1_555
I1 Cu1I 1_555 1_555
I2 Cu1 1_555 1_555
N1 Cu1 1_555 1_555
N2 C2 1_555 1_555
C1 N1 1_555 1_555
H1 C1 1_555 1_555
C2 C1 1_555 1_555
H2 C2 1_555 1_555
C3 N2 1_555 1_555
H3 C3 1_555 1_555
H4 C3 1_555 1_555
C4 N1 1_555 1_555
H5 C4 1_555 1_555
H6 C4 1_555 1_555
N3 C5 1_555 1_555
N4 C6 1_555 1_555
C5 H7 1_555 1_555
C6 C5 1_555 1_555
H8 C6 1_555 1_555
Cu1I I1I 1_555 1_555
Cu1C N1C 1_555 1_555
Cu2I I2 1_555 1_555
Cu2B N2 1_555 1_555
I1I Cu1 1_555 1_555
I2I Cu2 1_555 1_555
N1C C1C 1_555 1_555
N1I Cu1I 1_555 1_555
N2C Cu2 1_555 1_555
N2J Cu2I 1_555 1_555
C1C H1C 1_555 1_555
H1BA C1 1_555 1_555
H1V C1C 1_555 1_555
C2C N2C 1_555 1_555
H2BA C2 1_555 1_555
H2C C2C 1_555 1_555
H2V C2C 1_555 1_555
C3BA N2 1_555 1_555
C3C N2C 1_555 1_555
C3V N2C 1_555 1_555
H3BA C3BA 1_555 1_555
H3C C3C 1_555 1_555
H3V C3V 1_555 1_555
H4BA C3BA 1_555 1_555
H4C C3C 1_555 1_555
H4V C3V 1_555 1_555
C4BA N1 1_555 1_555
C4C N1C 1_555 1_555
C4V N1C 1_555 1_555
H5BA C4BA 1_555 1_555
H5C C4C 1_555 1_555
H5V C4V 1_555 1_555
H6BA C4BA 1_555 1_555
H6C C4C 1_555 1_555
H6V C4V 1_555 1_555
C5D N3 1_555 1_555
H7D C5D 1_555 1_555
C6D N4 1_555 1_555
H8D C6D 1_555 1_555
Cu2 I2 1_555 1_555
C3 C4 1_555 1_555
Cu1I I2I 1_555 1_555
Cu2I I1I 1_555 1_555
Cu2I I2I 1_555 1_555
C1C C2C 1_555 1_555
C3BA C4BA 1_555 1_555
C3C C4C 1_555 1_555
C3V C4V 1_555 1_555
C5D C6D 1_555 1_555

#END
