
#######################################################################
#
#                 Cambridge Crystallographic Data Centre
#                                CCDC 
#
#######################################################################
#
# If this CIF has been generated from an entry in the Cambridge 
# Structural Database, then it will include bibliographic, chemical, 
# crystal, experimental, refinement or atomic coordinate data resulting 
# from the CCDC's data processing and validation procedures.
#
#######################################################################

data_WUZDEB
_symmetry_cell_setting           cubic
_symmetry_space_group_name_H-M   'I -4 3 d'
_symmetry_Int_Tables_number      220
_space_group_name_Hall           'I -4bd 2c 3'
loop_
_symmetry_equiv_pos_site_id
_symmetry_equiv_pos_as_xyz
1 x,y,z
2 1/2-x,-y,1/2+z
3 -x,1/2+y,1/2-z
4 1/2+x,1/2-y,-z
5 z,x,y
6 1/2+z,1/2-x,-y
7 1/2-z,-x,1/2+y
8 -z,1/2+x,1/2-y
9 y,z,x
10 -y,1/2+z,1/2-x
11 1/2+y,1/2-z,-x
12 1/2-y,-z,1/2+x
13 1/4+y,1/4+x,1/4+z
14 1/4-y,3/4-x,3/4+z
15 3/4+y,1/4-x,3/4-z
16 3/4-y,3/4+x,1/4-z
17 1/4+x,1/4+z,1/4+y
18 3/4-x,3/4+z,1/4-y
19 1/4-x,3/4-z,3/4+y
20 3/4+x,1/4-z,3/4-y
21 1/4+z,1/4+y,1/4+x
22 3/4+z,1/4-y,3/4-x
23 3/4-z,3/4+y,1/4-x
24 1/4-z,3/4-y,3/4+x
25 1/2+x,1/2+y,1/2+z
26 -x,1/2-y,z
27 1/2-x,y,-z
28 x,-y,1/2-z
29 1/2+z,1/2+x,1/2+y
30 z,-x,1/2-y
31 -z,1/2-x,y
32 1/2-z,x,-y
33 1/2+y,1/2+z,1/2+x
34 1/2-y,z,-x
35 y,-z,1/2-x
36 -y,1/2-z,x
37 3/4+y,3/4+x,3/4+z
38 3/4-y,1/4-x,1/4+z
39 1/4+y,3/4-x,1/4-z
40 1/4-y,1/4+x,3/4-z
41 3/4+x,3/4+z,3/4+y
42 1/4-x,1/4+z,3/4-y
43 3/4-x,1/4-z,1/4+y
44 1/4+x,3/4-z,1/4-y
45 3/4+z,3/4+y,3/4+x
46 1/4+z,3/4-y,1/4-x
47 1/4-z,1/4+y,3/4-x
48 3/4-z,1/4-y,1/4+x
_cell_length_a                   38.052(4)
_cell_length_b                   38.052(4)
_cell_length_c                   38.052(4)
_cell_angle_alpha                90
_cell_angle_beta                 90
_cell_angle_gamma                90
_cell_volume                     55097.6
loop_
_atom_site_label
_atom_site_type_symbol
_atom_site_fract_x
_atom_site_fract_y
_atom_site_fract_z
O1 O 0.27328(12) 0.03650(12) 0.27737(11)
O2 O 0.20011(13) 0.03781(12) 0.27678(11)
O3 O 0.28561(11) 0.02867(12) -0.02603(11)
O4 O 0.21785(11) -0.04989(11) -0.03012(10)
Cu1 Cu 0.248038(18) -0.010716(16) 0.033212(14)
Cu2 Cu 0.236078(15) -0.00118(2) 0.216763(14)
O5 O 0.27220(11) 0.03614(11) 0.21890(11)
O6 O 0.20810(11) -0.04297(11) 0.02760(10)
O7 O 0.19972(11) 0.03527(12) 0.21838(11)
O8 O 0.28826(10) 0.02128(11) 0.03203(11)
N1 N 0.23969(10) -0.00459(12) 0.16110(10)
N2 N 0.24503(11) -0.00816(11) 0.08884(10)
C1 C 0.20076(13) -0.05550(14) -0.00190(18)
C2 C 0.28311(12) 0.04755(12) 0.24796(19)
C3 C 0.31081(13) 0.07670(13) 0.24819(17)
C4 C 0.18968(13) 0.04816(13) 0.24684(17)
C5 C 0.16322(14) 0.07814(14) 0.24621(16)
C6 C 0.34724(15) 0.06079(15) 0.04209(14)
H1 H 0.3531 0.0379 0.0516
H2 H 0.3297 0.0714 0.0572
C7 C 0.33239(13) 0.05665(14) 0.00470(15)
C8 C 0.29902(14) 0.03384(14) 0.00391(17)
C9 C 0.38033(17) 0.08398(17) 0.04136(17)
H3 H 0.3894 0.0867 0.0653
C10 C 0.31458(16) 0.09400(16) 0.21181(15)
H4 H 0.3208 0.0763 0.1945
H5 H 0.2923 0.1043 0.2049
C11 C 0.36077(15) 0.03942(16) -0.01863(17)
H6 H 0.3663 0.0162 -0.0097
H7 H 0.3520 0.0370 -0.0424
C12 C 0.21178(14) -0.01218(16) 0.14138(14)
H8 H 0.1902 -0.0164 0.1520
C13 C 0.11733(16) -0.10845(18) 0.02517(17)
H9 H 0.1053 -0.1113 0.0477
C14 C 0.32383(17) 0.09338(16) -0.01052(16)
H10 H 0.3147 0.0910 -0.0342
H11 H 0.3061 0.1048 0.0038
C15 C 0.40783(16) 0.06598(18) 0.01858(18)
H12 H 0.4133 0.0430 0.0282
H13 H 0.4293 0.0798 0.0184
C16 C 0.27260(14) -0.00041(19) 0.10860(13)
H14 H 0.2941 0.0040 0.0979
C17 C 0.15844(19) 0.09325(18) 0.20936(16)
H15 H 0.1508 0.0748 0.1935
H16 H 0.1807 0.1023 0.2009
C18 C 0.16863(13) -0.07955(15) -0.00485(16)
C19 C 0.26991(14) 0.00123(19) 0.14488(13)
H17 H 0.2898 0.0065 0.1581
C20 C 0.09216(15) -0.09309(17) -0.00111(19)
H18 H 0.0839 -0.0704 0.0071
H19 H 0.0720 -0.1085 -0.0038
C21 C 0.37784(17) 0.10571(18) 0.22313(18)
H20 H 0.3962 0.1234 0.2235
H21 H 0.3842 0.0881 0.2058
C22 C 0.34304(17) 0.12255(17) 0.21295(16)
H22 H 0.3452 0.1335 0.1898
C23 C 0.18052(15) -0.11572(16) -0.01872(16)
H23 H 0.1924 -0.1128 -0.0411
H24 H 0.1970 -0.1261 -0.0023
C24 C 0.09989(17) 0.09340(17) 0.26028(18)
H25 H 0.0774 0.0842 0.2688
C25 C 0.11110(16) -0.08872(19) -0.03710(18)
H26 H 0.0948 -0.0786 -0.0543
C26 C 0.14929(14) -0.08345(17) 0.03013(15)
H27 H 0.1413 -0.0606 0.0382
H28 H 0.1651 -0.0930 0.0477
C27 C 0.38478(19) 0.09810(19) -0.03364(18)
H29 H 0.4058 0.1125 -0.0347
H30 H 0.3758 0.0955 -0.0573
C28 C 0.1469(2) 0.13693(17) 0.27159(19)
H31 H 0.1547 0.1555 0.2876
C29 C 0.12765(16) 0.06379(16) 0.25960(18)
H32 H 0.1306 0.0543 0.2831
H33 H 0.1197 0.0450 0.2443
C30 C 0.34595(14) 0.05982(16) 0.25822(16)
H34 H 0.3522 0.0421 0.2410
H35 H 0.3439 0.0485 0.2810
C31 C 0.1307(2) 0.12324(18) 0.21004(17)
H36 H 0.1274 0.1328 0.1863
C32 C 0.3641(2) 0.11652(19) 0.28670(19)
H37 H 0.3616 0.1057 0.3097
H38 H 0.3823 0.1343 0.2882
C33 C 0.12374(18) -0.12405(19) -0.04986(18)
H39 H 0.1356 -0.1213 -0.0722
H40 H 0.1038 -0.1395 -0.0533
C34 C 0.37472(17) 0.08853(18) 0.25956(18)
H41 H 0.3973 0.0780 0.2662
C35 C 0.14285(15) -0.06388(17) -0.03228(16)
H42 H 0.1348 -0.0410 -0.0244
H43 H 0.1548 -0.0608 -0.0546
C36 C 0.21471(15) -0.01382(17) 0.10529(14)
H44 H 0.1949 -0.0190 0.0920
C37 C 0.3716(2) 0.11941(18) 0.02653(19)
H45 H 0.3925 0.1340 0.0265
H46 H 0.3540 0.1307 0.0412
C38 C 0.30117(18) 0.10475(16) 0.27505(17)
H47 H 0.2988 0.0941 0.2981
H48 H 0.2788 0.1153 0.2688
C39 C 0.33323(19) 0.15020(16) 0.23996(17)
H49 H 0.3111 0.1611 0.2335
H50 H 0.3511 0.1683 0.2406
C40 C 0.35757(17) 0.11579(15) -0.01094(17)
H51 H 0.3523 0.1391 -0.0204
C41 C 0.3299(2) 0.13323(18) 0.27606(18)
H52 H 0.3235 0.1512 0.2934
C42 C 0.39388(17) 0.06215(18) -0.01864(18)
H53 H 0.4118 0.0511 -0.0334
C43 C 0.17474(18) 0.10775(17) 0.27085(19)
H54 H 0.1970 0.1173 0.2629
H55 H 0.1781 0.0985 0.2944
C44 C 0.13073(18) -0.14476(17) 0.01241(18)
H56 H 0.1473 -0.1543 0.0293
H57 H 0.1112 -0.1610 0.0103
C45 C 0.0955(2) 0.10789(19) 0.2240(2)
H58 H 0.0778 0.1262 0.2243
H59 H 0.0875 0.0894 0.2084
C46 C 0.1127(2) 0.12248(18) 0.28449(19)
H60 H 0.0953 0.1411 0.2854
H61 H 0.1157 0.1133 0.3081
C47 C 0.14873(18) -0.14026(18) -0.02334(19)
H62 H 0.1567 -0.1632 -0.0319
C48 C 0.1434(2) 0.15214(17) 0.2348(2)
H63 H 0.1660 0.1610 0.2269
H64 H 0.1268 0.1714 0.2350
O1AA O 0.27328(12) -0.03650(12) 0.22263(11)
O2AA O 0.20011(13) -0.03781(12) 0.22322(11)
O3Z O 0.21439(11) 0.02867(12) 0.02603(11)
O4Z O 0.28215(11) -0.04989(11) 0.03012(10)
Cu1Z Cu 0.251962(18) -0.010716(16) -0.033212(14)
Cu2AA Cu 0.236078(15) 0.00118(2) 0.283237(14)
loop_
_geom_bond_atom_site_label_1
_geom_bond_atom_site_label_2
_geom_bond_site_symmetry_1
_geom_bond_site_symmetry_2
O1 C2 1_555 1_555
O2 C4 1_555 1_555
O3 C8 1_555 1_555
O4 C1 1_555 1_555
Cu1 O6 1_555 1_555
Cu2 O5 1_555 1_555
O5 C2 1_555 1_555
O6 C1 1_555 1_555
O7 Cu2 1_555 1_555
O8 Cu1 1_555 1_555
N1 Cu2 1_555 1_555
N2 Cu1 1_555 1_555
C1 C18 1_555 1_555
C2 C3 1_555 1_555
C3 C10 1_555 1_555
C4 O7 1_555 1_555
C5 C4 1_555 1_555
C6 H1 1_555 1_555
H2 C6 1_555 1_555
C7 C6 1_555 1_555
C8 O8 1_555 1_555
C9 C6 1_555 1_555
H3 C9 1_555 1_555
C10 H4 1_555 1_555
H5 C10 1_555 1_555
C11 C7 1_555 1_555
H6 C11 1_555 1_555
H7 C11 1_555 1_555
C12 N1 1_555 1_555
H8 C12 1_555 1_555
C13 H9 1_555 1_555
C14 C7 1_555 1_555
H10 C14 1_555 1_555
H11 C14 1_555 1_555
C15 C9 1_555 1_555
H12 C15 1_555 1_555
H13 C15 1_555 1_555
C16 N2 1_555 1_555
H14 C16 1_555 1_555
C17 C5 1_555 1_555
H15 C17 1_555 1_555
H16 C17 1_555 1_555
C18 C23 1_555 1_555
C19 N1 1_555 1_555
H17 C19 1_555 1_555
C20 C13 1_555 1_555
H18 C20 1_555 1_555
H19 C20 1_555 1_555
C21 H20 1_555 1_555
H21 C21 1_555 1_555
C22 C10 1_555 1_555
H22 C22 1_555 1_555
C23 H23 1_555 1_555
H24 C23 1_555 1_555
C24 H25 1_555 1_555
C25 C20 1_555 1_555
H26 C25 1_555 1_555
C26 C13 1_555 1_555
H27 C26 1_555 1_555
H28 C26 1_555 1_555
C27 H29 1_555 1_555
H30 C27 1_555 1_555
C28 H31 1_555 1_555
C29 C5 1_555 1_555
H32 C29 1_555 1_555
H33 C29 1_555 1_555
C30 C3 1_555 1_555
H34 C30 1_555 1_555
H35 C30 1_555 1_555
C31 C17 1_555 1_555
H36 C31 1_555 1_555
C32 H37 1_555 1_555
H38 C32 1_555 1_555
C33 C25 1_555 1_555
H39 C33 1_555 1_555
H40 C33 1_555 1_555
C34 C21 1_555 1_555
H41 C34 1_555 1_555
C35 C18 1_555 1_555
H42 C35 1_555 1_555
H43 C35 1_555 1_555
C36 N2 1_555 1_555
H44 C36 1_555 1_555
C37 C9 1_555 1_555
H45 C37 1_555 1_555
H46 C37 1_555 1_555
C38 C3 1_555 1_555
H47 C38 1_555 1_555
H48 C38 1_555 1_555
C39 C22 1_555 1_555
H49 C39 1_555 1_555
H50 C39 1_555 1_555
C40 C14 1_555 1_555
H51 C40 1_555 1_555
C41 C32 1_555 1_555
H52 C41 1_555 1_555
C42 C11 1_555 1_555
H53 C42 1_555 1_555
C43 C5 1_555 1_555
H54 C43 1_555 1_555
H55 C43 1_555 1_555
C44 C13 1_555 1_555
H56 C44 1_555 1_555
H57 C44 1_555 1_555
C45 C24 1_555 1_555
H58 C45 1_555 1_555
H59 C45 1_555 1_555
C46 C24 1_555 1_555
H60 C46 1_555 1_555
H61 C46 1_555 1_555
C47 C23 1_555 1_555
H62 C47 1_555 1_555
C48 C28 1_555 1_555
H63 C48 1_555 1_555
H64 C48 1_555 1_555
O1AA Cu2 1_555 1_555
O2AA Cu2 1_555 1_555
O3Z Cu1 1_555 1_555
O4Z Cu1 1_555 1_555
Cu1Z O3 1_555 1_555
Cu2AA O1 1_555 1_555
O2 Cu2AA 1_555 1_555
O4 Cu1Z 1_555 1_555
Cu1 Cu1Z 1_555 1_555
Cu2 Cu2AA 1_555 1_555
C7 C8 1_555 1_555
C12 C36 1_555 1_555
C15 C42 1_555 1_555
C16 C19 1_555 1_555
C18 C26 1_555 1_555
C21 C22 1_555 1_555
C24 C29 1_555 1_555
C25 C35 1_555 1_555
C27 C40 1_555 1_555
C27 C42 1_555 1_555
C28 C43 1_555 1_555
C28 C46 1_555 1_555
C30 C34 1_555 1_555
C31 C45 1_555 1_555
C31 C48 1_555 1_555
C32 C34 1_555 1_555
C33 C47 1_555 1_555
C37 C40 1_555 1_555
C38 C41 1_555 1_555
C39 C41 1_555 1_555
C44 C47 1_555 1_555

#END
