
#######################################################################
#
#                 Cambridge Crystallographic Data Centre
#                                CCDC 
#
#######################################################################
#
# If this CIF has been generated from an entry in the Cambridge 
# Structural Database, then it will include bibliographic, chemical, 
# crystal, experimental, refinement or atomic coordinate data resulting 
# from the CCDC's data processing and validation procedures.
#
#######################################################################

data_WUZGUU
_symmetry_cell_setting           triclinic
_symmetry_space_group_name_H-M   'P -1'
_symmetry_Int_Tables_number      2
_space_group_name_Hall           '-P 1'
loop_
_symmetry_equiv_pos_site_id
_symmetry_equiv_pos_as_xyz
1 x,y,z
2 -x,-y,-z
_cell_length_a                   9.623(2)
_cell_length_b                   13.519(3)
_cell_length_c                   19.238(4)
_cell_angle_alpha                98.790(3)
_cell_angle_beta                 92.299(3)
_cell_angle_gamma                99.514(3)
_cell_volume                     2433.83
loop_
_atom_site_label
_atom_site_type_symbol
_atom_site_fract_x
_atom_site_fract_y
_atom_site_fract_z
Cd1 Cd 0.5000 0.5000 1.5000
N1 N 0.2932(4) 0.5191(3) 1.4411(2)
N2 N 0.1140(5) 0.3864(3) 1.0327(2)
N3 N 0.2042(5) 0.2257(3) 0.8850(2)
N4 N 0.2770(5) 0.1243(3) 0.7119(3)
N5 N 0.5842(4) -0.3276(3) 0.5059(3)
Cl1 Cl 0.34846(15) 0.56464(11) 1.67367(8)
O1 O 0.3897(5) 0.5266(4) 1.6065(2)
O2 O 0.2544(5) 0.6318(4) 1.6641(3)
O3 O 0.2796(6) 0.4857(5) 1.7032(4)
O4 O 0.4676(6) 0.6151(5) 1.7147(4)
C1 C 0.2723(5) 0.4859(4) 1.3706(3)
H1 H 0.3415 0.4549 1.3481
C2 C 0.1560(5) 0.4953(4) 1.3306(3)
C3 C 0.0535(5) 0.5402(4) 1.3652(3)
H2 H -0.0285 0.5467 1.3404
C4 C 0.0731(6) 0.5751(5) 1.4361(3)
H3 H 0.0052 0.6066 1.4594
C5 C 0.1922(6) 0.5638(4) 1.4726(3)
H4 H 0.2039 0.5876 1.5208
C6 C 0.1454(5) 0.4627(4) 1.2532(3)
C7 C 0.0263(5) 0.3998(4) 1.2189(3)
H5 H -0.0479 0.3767 1.2451
C8 C 0.0149(5) 0.3702(4) 1.1458(3)
C9 C 0.1258(6) 0.4076(4) 1.1076(3)
C10 C 0.2481(5) 0.4735(4) 1.1403(3)
C11 C 0.2545(5) 0.4985(4) 1.2129(3)
H6 H 0.3347 0.5407 1.2358
C12 C -0.1148(7) 0.2991(5) 1.1096(4)
H7 H -0.1012 0.2848 1.0591
C13 C -0.1428(12) 0.2030(8) 1.1363(7)
H8 H -0.2155 0.1570 1.1064
H9 H -0.1731 0.2147 1.1833
H10 H -0.0582 0.1741 1.1367
C14 C -0.2439(9) 0.3458(8) 1.1190(6)
H11 H -0.2488 0.3913 1.0856
H12 H -0.2401 0.3828 1.1660
H13 H -0.3259 0.2933 1.1114
C15 C 0.3617(7) 0.5188(5) 1.0965(4)
H14 H 0.3640 0.4697 1.0536
C16 C 0.5117(9) 0.5407(10) 1.1363(6)
H15 H 0.5827 0.5523 1.1034
H16 H 0.5252 0.4833 1.1581
H17 H 0.5191 0.5998 1.1718
C17 C 0.3349(12) 0.6121(9) 1.0757(7)
H18 H 0.4072 0.6361 1.0463
H19 H 0.3353 0.6622 1.1169
H20 H 0.2446 0.6003 1.0500
C18 C 0.2404(11) 0.2419(7) 1.0314(4)
H21 H 0.2310 0.2524 1.0813
H22 H 0.3386 0.2552 1.0223
H23 H 0.2010 0.1728 1.0117
C19 C 0.1620(6) 0.3139(4) 0.9975(3)
C20 C 0.1443(6) 0.2994(4) 0.9197(3)
C21 C 0.0755(6) 0.3612(4) 0.8864(3)
H24 H 0.0342 0.4112 0.9123
C22 C 0.0681(8) 0.3483(5) 0.8128(3)
H25 H 0.0215 0.3892 0.7887
C23 C 0.1311(7) 0.2738(5) 0.7769(3)
H26 H 0.1308 0.2647 0.7280
C24 C 0.1946(6) 0.2130(4) 0.8143(3)
C25 C 0.3243(10) 0.0633(6) 0.8240(4)
H27 H 0.3617 0.0109 0.7949
H28 H 0.2493 0.0329 0.8494
H29 H 0.3978 0.1031 0.8567
C26 C 0.2679(6) 0.1308(4) 0.7780(3)
C27 C 0.3469(6) 0.0523(4) 0.6726(3)
C28 C 0.4901(6) 0.0797(4) 0.6623(3)
C29 C 0.5548(6) 0.0114(4) 0.6191(3)
H30 H 0.6497 0.0293 0.6112
C30 C 0.4812(6) -0.0833(3) 0.5874(3)
C31 C 0.3392(6) -0.1087(4) 0.5992(3)
H31 H 0.2895 -0.1719 0.5783
C32 C 0.2686(6) -0.0421(4) 0.6414(3)
C33 C 0.5741(8) 0.1824(5) 0.6959(4)
H32 H 0.5114 0.2238 0.7208
C34 C 0.6455(12) 0.2368(6) 0.6417(6)
H33 H 0.7322 0.2785 0.6624
H34 H 0.5848 0.2786 0.6246
H35 H 0.6656 0.1881 0.6033
C35 C 0.6924(12) 0.1699(8) 0.7467(7)
H36 H 0.7634 0.1413 0.7206
H37 H 0.6552 0.1255 0.7785
H38 H 0.7336 0.2350 0.7730
C36 C 0.1125(6) -0.0718(4) 0.6516(4)
H39 H 0.1009 -0.0481 0.7014
C37 C 0.0231(9) -0.0174(8) 0.6109(6)
H40 H 0.0591 0.0542 0.6205
H41 H -0.0723 -0.0300 0.6245
H42 H 0.0251 -0.0415 0.5614
C38 C 0.0580(9) -0.1849(6) 0.6394(6)
H43 H -0.0355 -0.1975 0.6555
H44 H 0.1193 -0.2179 0.6650
H45 H 0.0555 -0.2110 0.5900
C39 C 0.5563(5) -0.1557(3) 0.5438(3)
C40 C 0.6600(6) -0.1241(4) 0.5004(3)
H46 H 0.6855 -0.0555 0.4974
C41 C 0.7255(7) -0.1958(4) 0.4614(4)
H47 H 0.7965 -0.1758 0.4324
C42 C 0.6853(6) -0.2948(4) 0.4657(4)
H48 H 0.7302 -0.3423 0.4394
C43 C 0.5234(5) -0.2584(3) 0.5450(3)
H49 H 0.4552 -0.2808 0.5746
Cd1_2 Cd 0.5000 -0.5000 0.5000
N1A N 0.7068(4) -0.5191(3) 0.5589(2)
N1A_2 N 0.7068(4) 0.4809(3) 1.5589(2)
N2A N 0.8860(5) -0.3864(3) 0.9673(2)
N3A N 0.7958(5) -0.2257(3) 1.1150(2)
N4A N 0.7230(5) -0.1243(3) 1.2881(3)
N5A N 0.4158(4) 0.3276(3) 1.4941(3)
N5_2 N 0.5842(4) 0.6724(3) 1.5059(3)
Cl1A Cl 0.65154(15) 0.43536(11) 1.32633(8)
O1A O 0.6103(5) 0.4734(4) 1.3935(2)
O2A O 0.7456(5) 0.3682(4) 1.3359(3)
O3A O 0.7204(6) 0.5143(5) 1.2968(4)
O4A O 0.5324(6) 0.3849(5) 1.2853(4)
C1A C 0.7277(5) -0.4859(4) 0.6294(3)
H1A H 0.6585 -0.4549 0.6519
C2A C 0.8440(5) -0.4953(4) 0.6694(3)
C3A C 0.9465(5) -0.5402(4) 0.6348(3)
H2A H 1.0285 -0.5467 0.6596
C4A C 0.9269(6) -0.5751(5) 0.5639(3)
H3A H 0.9948 -0.6066 0.5406
C5A C 0.8078(6) -0.5638(4) 0.5274(3)
H4A H 0.7961 -0.5876 0.4792
C6A C 0.8546(5) -0.4627(4) 0.7468(3)
C7A C 0.9737(5) -0.3998(4) 0.7811(3)
H5A H 1.0479 -0.3767 0.7549
C8A C 0.9851(5) -0.3702(4) 0.8542(3)
C9A C 0.8742(6) -0.4076(4) 0.8924(3)
C10A C 0.7519(5) -0.4735(4) 0.8597(3)
C11A C 0.7455(5) -0.4985(4) 0.7871(3)
H6A H 0.6653 -0.5407 0.7642
C12A C 1.1148(7) -0.2991(5) 0.8904(4)
H7A H 1.1012 -0.2848 0.9409
C13A C 1.1428(12) -0.2030(8) 0.8637(7)
H8A H 1.2155 -0.1570 0.8936
H9A H 1.1731 -0.2147 0.8167
H10A H 1.0582 -0.1741 0.8633
C14A C 1.2439(9) -0.3458(8) 0.8810(6)
H11A H 1.2488 -0.3913 0.9144
H12A H 1.2401 -0.3828 0.8340
H13A H 1.3259 -0.2933 0.8886
C15A C 0.6383(7) -0.5188(5) 0.9035(4)
H14A H 0.6360 -0.4697 0.9464
C16A C 0.4883(9) -0.5407(10) 0.8637(6)
H15A H 0.4173 -0.5523 0.8966
H16A H 0.4748 -0.4833 0.8419
H17A H 0.4809 -0.5998 0.8282
C17A C 0.6651(12) -0.6121(9) 0.9243(7)
H18A H 0.5928 -0.6361 0.9537
H19A H 0.6647 -0.6622 0.8831
H20A H 0.7554 -0.6003 0.9500
C18A C 0.7596(11) -0.2419(7) 0.9686(4)
H21A H 0.7690 -0.2524 0.9187
H22A H 0.6614 -0.2552 0.9777
H23A H 0.7990 -0.1728 0.9883
C19A C 0.8380(6) -0.3139(4) 1.0025(3)
C20A C 0.8557(6) -0.2994(4) 1.0803(3)
C21A C 0.9245(6) -0.3612(4) 1.1136(3)
H24A H 0.9658 -0.4112 1.0877
C22A C 0.9319(8) -0.3483(5) 1.1872(3)
H25A H 0.9785 -0.3892 1.2113
C23A C 0.8689(7) -0.2738(5) 1.2231(3)
H26A H 0.8692 -0.2647 1.2720
C24A C 0.8054(6) -0.2130(4) 1.1857(3)
C25A C 0.6757(10) -0.0633(6) 1.1760(4)
H27A H 0.6383 -0.0109 1.2051
H28A H 0.7507 -0.0329 1.1506
H29A H 0.6022 -0.1031 1.1433
C26A C 0.7321(6) -0.1308(4) 1.2220(3)
C27A C 0.6531(6) -0.0523(4) 1.3274(3)
C28A C 0.5099(6) -0.0797(4) 1.3377(3)
C29A C 0.4452(6) -0.0114(4) 1.3809(3)
H30A H 0.3503 -0.0293 1.3888
C30A C 0.5188(6) 0.0833(3) 1.4126(3)
C31A C 0.6608(6) 0.1087(4) 1.4008(3)
H31A H 0.7105 0.1719 1.4217
C32A C 0.7314(6) 0.0421(4) 1.3586(3)
C33A C 0.4259(8) -0.1824(5) 1.3041(4)
H32A H 0.4886 -0.2238 1.2792
C34A C 0.3545(12) -0.2368(6) 1.3583(6)
H33A H 0.2678 -0.2785 1.3376
H34A H 0.4152 -0.2786 1.3754
H35A H 0.3344 -0.1881 1.3967
C35A C 0.3076(12) -0.1699(8) 1.2533(7)
H36A H 0.2366 -0.1413 1.2794
H37A H 0.3448 -0.1255 1.2215
H38A H 0.2664 -0.2350 1.2270
C36A C 0.8875(6) 0.0718(4) 1.3484(4)
H39A H 0.8991 0.0481 1.2986
C37A C 0.9769(9) 0.0174(8) 1.3891(6)
H40A H 0.9409 -0.0542 1.3795
H41A H 1.0723 0.0300 1.3755
H42A H 0.9749 0.0415 1.4386
C38A C 0.9420(9) 0.1849(6) 1.3606(6)
H43A H 1.0355 0.1975 1.3445
H44A H 0.8807 0.2179 1.3350
H45A H 0.9445 0.2110 1.4100
C39A C 0.4437(5) 0.1557(3) 1.4562(3)
C40A C 0.3400(6) 0.1241(4) 1.4996(3)
H46A H 0.3145 0.0555 1.5026
C41A C 0.2745(7) 0.1958(4) 1.5386(4)
H47A H 0.2035 0.1758 1.5676
C42A C 0.3147(6) 0.2948(4) 1.5343(4)
H48A H 0.2698 0.3423 1.5606
C43A C 0.4766(5) 0.2584(3) 1.4550(3)
H49A H 0.5448 0.2808 1.4254
C44 C 0.228(3) 0.067(2) 0.1731(14)
H50 H 0.1980 -0.0001 0.1854
H51 H 0.1510 0.0846 0.1459
Cl2 Cl 0.384(2) 0.0721(14) 0.1262(9)
Cl3 Cl 0.284(3) 0.160(2) 0.2502(12)
loop_
_geom_bond_atom_site_label_1
_geom_bond_atom_site_label_2
_geom_bond_site_symmetry_1
_geom_bond_site_symmetry_2
Cd1 N1 1_555 1_555
N1 C1 1_555 1_555
N2 C9 1_555 1_555
N3 C20 1_555 1_555
N4 C26 1_555 1_555
N5 C42 1_555 1_555
Cl1 O1 1_555 1_555
O1 Cd1 1_555 1_555
O2 Cl1 1_555 1_555
O3 Cl1 1_555 1_555
O4 Cl1 1_555 1_555
C1 H1 1_555 1_555
C2 C1 1_555 1_555
C3 C2 1_555 1_555
H2 C3 1_555 1_555
C4 C3 1_555 1_555
H3 C4 1_555 1_555
C5 N1 1_555 1_555
H4 C5 1_555 1_555
C6 C2 1_555 1_555
C7 C6 1_555 1_555
H5 C7 1_555 1_555
C8 C7 1_555 1_555
C9 C8 1_555 1_555
C10 C9 1_555 1_555
C11 C6 1_555 1_555
H6 C11 1_555 1_555
C12 C8 1_555 1_555
H7 C12 1_555 1_555
C13 C12 1_555 1_555
H8 C13 1_555 1_555
H9 C13 1_555 1_555
H10 C13 1_555 1_555
C14 C12 1_555 1_555
H11 C14 1_555 1_555
H12 C14 1_555 1_555
H13 C14 1_555 1_555
C15 C10 1_555 1_555
H14 C15 1_555 1_555
C16 C15 1_555 1_555
H15 C16 1_555 1_555
H16 C16 1_555 1_555
H17 C16 1_555 1_555
C17 C15 1_555 1_555
H18 C17 1_555 1_555
H19 C17 1_555 1_555
H20 C17 1_555 1_555
C18 H21 1_555 1_555
H22 C18 1_555 1_555
H23 C18 1_555 1_555
C19 N2 1_555 1_555
C20 C19 1_555 1_555
C21 C20 1_555 1_555
H24 C21 1_555 1_555
C22 C21 1_555 1_555
H25 C22 1_555 1_555
C23 C22 1_555 1_555
H26 C23 1_555 1_555
C24 N3 1_555 1_555
C25 H27 1_555 1_555
H28 C25 1_555 1_555
H29 C25 1_555 1_555
C26 C24 1_555 1_555
C27 N4 1_555 1_555
C28 C27 1_555 1_555
C29 C28 1_555 1_555
H30 C29 1_555 1_555
C30 C29 1_555 1_555
C31 C30 1_555 1_555
H31 C31 1_555 1_555
C32 C27 1_555 1_555
C33 C28 1_555 1_555
H32 C33 1_555 1_555
C34 C33 1_555 1_555
H33 C34 1_555 1_555
H34 C34 1_555 1_555
H35 C34 1_555 1_555
C35 C33 1_555 1_555
H36 C35 1_555 1_555
H37 C35 1_555 1_555
H38 C35 1_555 1_555
C36 C32 1_555 1_555
H39 C36 1_555 1_555
C37 C36 1_555 1_555
H40 C37 1_555 1_555
H41 C37 1_555 1_555
H42 C37 1_555 1_555
C38 C36 1_555 1_555
H43 C38 1_555 1_555
H44 C38 1_555 1_555
H45 C38 1_555 1_555
C39 C30 1_555 1_555
C40 C39 1_555 1_555
H46 C40 1_555 1_555
C41 C40 1_555 1_555
H47 C41 1_555 1_555
C42 C41 1_555 1_555
H48 C42 1_555 1_555
C43 N5 1_555 1_555
H49 C43 1_555 1_555
C44 H50 1_555 1_555
H51 C44 1_555 1_555
Cl2 C44 1_555 1_555
Cl3 C44 1_555 1_555
Cd1_2 N5 1_555 1_555
N1A Cd1_2 1_555 1_555
N1A_2 Cd1 1_555 1_555
N2A C9A 1_555 1_555
N3A C20A 1_555 1_555
N4A C26A 1_555 1_555
N5A Cd1 1_555 1_555
N5_2 Cd1 1_555 1_555
Cl1A O1A 1_555 1_555
O1A Cd1 1_555 1_555
O2A Cl1A 1_555 1_555
O3A Cl1A 1_555 1_555
O4A Cl1A 1_555 1_555
C1A N1A 1_555 1_555
H1A C1A 1_555 1_555
C2A C1A 1_555 1_555
C3A C2A 1_555 1_555
H2A C3A 1_555 1_555
C4A C3A 1_555 1_555
H3A C4A 1_555 1_555
C5A N1A 1_555 1_555
H4A C5A 1_555 1_555
C6A C2A 1_555 1_555
C7A C6A 1_555 1_555
H5A C7A 1_555 1_555
C8A C7A 1_555 1_555
C9A C8A 1_555 1_555
C10A C9A 1_555 1_555
C11A C6A 1_555 1_555
H6A C11A 1_555 1_555
C12A C8A 1_555 1_555
H7A C12A 1_555 1_555
C13A C12A 1_555 1_555
H8A C13A 1_555 1_555
H9A C13A 1_555 1_555
H10A C13A 1_555 1_555
C14A C12A 1_555 1_555
H11A C14A 1_555 1_555
H12A C14A 1_555 1_555
H13A C14A 1_555 1_555
C15A C10A 1_555 1_555
H14A C15A 1_555 1_555
C16A C15A 1_555 1_555
H15A C16A 1_555 1_555
H16A C16A 1_555 1_555
H17A C16A 1_555 1_555
C17A C15A 1_555 1_555
H18A C17A 1_555 1_555
H19A C17A 1_555 1_555
H20A C17A 1_555 1_555
C18A H21A 1_555 1_555
H22A C18A 1_555 1_555
H23A C18A 1_555 1_555
C19A N2A 1_555 1_555
C20A C19A 1_555 1_555
C21A C20A 1_555 1_555
H24A C21A 1_555 1_555
C22A C21A 1_555 1_555
H25A C22A 1_555 1_555
C23A C22A 1_555 1_555
H26A C23A 1_555 1_555
C24A N3A 1_555 1_555
C25A H27A 1_555 1_555
H28A C25A 1_555 1_555
H29A C25A 1_555 1_555
C26A C24A 1_555 1_555
C27A N4A 1_555 1_555
C28A C27A 1_555 1_555
C29A C28A 1_555 1_555
H30A C29A 1_555 1_555
C30A C29A 1_555 1_555
C31A C30A 1_555 1_555
H31A C31A 1_555 1_555
C32A C27A 1_555 1_555
C33A C28A 1_555 1_555
H32A C33A 1_555 1_555
C34A C33A 1_555 1_555
H33A C34A 1_555 1_555
H34A C34A 1_555 1_555
H35A C34A 1_555 1_555
C35A C33A 1_555 1_555
H36A C35A 1_555 1_555
H37A C35A 1_555 1_555
H38A C35A 1_555 1_555
C36A C32A 1_555 1_555
H39A C36A 1_555 1_555
C37A C36A 1_555 1_555
H40A C37A 1_555 1_555
H41A C37A 1_555 1_555
H42A C37A 1_555 1_555
C38A C36A 1_555 1_555
H43A C38A 1_555 1_555
H44A C38A 1_555 1_555
H45A C38A 1_555 1_555
C39A C30A 1_555 1_555
C40A C39A 1_555 1_555
H46A C40A 1_555 1_555
C41A C40A 1_555 1_555
H47A C41A 1_555 1_555
C42A N5A 1_555 1_555
H48A C42A 1_555 1_555
C43A N5A 1_555 1_555
H49A C43A 1_555 1_555
C4 C5 1_555 1_555
C10 C11 1_555 1_555
C18 C19 1_555 1_555
C23 C24 1_555 1_555
C25 C26 1_555 1_555
C31 C32 1_555 1_555
C39 C43 1_555 1_555
C4A C5A 1_555 1_555
C10A C11A 1_555 1_555
C18A C19A 1_555 1_555
C23A C24A 1_555 1_555
C25A C26A 1_555 1_555
C31A C32A 1_555 1_555
C39A C43A 1_555 1_555
C41A C42A 1_555 1_555

#END
