
#######################################################################
#
#                 Cambridge Crystallographic Data Centre
#                                CCDC 
#
#######################################################################
#
# If this CIF has been generated from an entry in the Cambridge 
# Structural Database, then it will include bibliographic, chemical, 
# crystal, experimental, refinement or atomic coordinate data resulting 
# from the CCDC's data processing and validation procedures.
#
#######################################################################

data_WUZGII
_symmetry_cell_setting           triclinic
_symmetry_space_group_name_H-M   'P -1'
_symmetry_Int_Tables_number      2
_space_group_name_Hall           '-P 1'
loop_
_symmetry_equiv_pos_site_id
_symmetry_equiv_pos_as_xyz
1 x,y,z
2 -x,-y,-z
_cell_length_a                   9.162(3)
_cell_length_b                   13.885(4)
_cell_length_c                   19.359(5)
_cell_angle_alpha                79.078(4)
_cell_angle_beta                 88.870(4)
_cell_angle_gamma                80.669(4)
_cell_volume                     2385.98
loop_
_atom_site_label
_atom_site_type_symbol
_atom_site_fract_x
_atom_site_fract_y
_atom_site_fract_z
Cd1 Cd 0.0000 0.0000 1.0000
Cl1 Cl 0.11984(16) 0.05204(11) 0.87837(7)
N1 N -0.0991(5) 0.1694(3) 1.0023(2)
N2 N 0.2251(6) 0.6209(4) 0.7848(3)
N3 N 0.2998(6) 0.7262(4) 0.6100(3)
N4 N 0.3986(6) 0.8912(4) 0.4594(3)
N5 N 0.2158(5) 1.0308(3) 0.0563(2)
C1 C -0.1956(7) 0.1967(5) 1.0503(3)
H1 H -0.2359 0.1477 1.0806
C2 C -0.2384(8) 0.2953(5) 1.0568(4)
H2 H -0.3085 0.3120 1.0898
C3 C -0.1744(7) 0.3686(4) 1.0132(3)
H3 H -0.2009 0.4349 1.0170
C4 C -0.0715(6) 0.3420(4) 0.9644(3)
C5 C -0.0395(6) 0.2410(4) 0.9602(3)
H4 H 0.0268 0.2226 0.9263
C6 C 0.0044(7) 0.4143(4) 0.9177(3)
C7 C -0.0687(7) 0.5079(4) 0.8882(3)
H5 H -0.1676 0.5258 0.8989
C8 C 0.0012(7) 0.5759(4) 0.8431(3)
C9 C 0.1504(7) 0.5487(4) 0.8269(3)
C10 C 0.2291(7) 0.4553(4) 0.8568(3)
C11 C 0.1545(6) 0.3903(4) 0.9017(3)
H6 H 0.2059 0.3283 0.9221
C12 C -0.0855(8) 0.6775(5) 0.8109(4)
H7 H -0.0145 0.7207 0.7907
C13 C -0.1728(12) 0.7247(7) 0.8647(6)
H8 H -0.2254 0.7884 0.8428
H9 H -0.1074 0.7330 0.9005
H10 H -0.2422 0.6830 0.8856
C14 C -0.1844(15) 0.6699(9) 0.7543(7)
H11 H -0.1279 0.6402 0.7192
H12 H -0.2335 0.7350 0.7333
H13 H -0.2567 0.6294 0.7732
C15 C 0.3942(8) 0.4258(6) 0.8426(4)
H14 H 0.4105 0.4543 0.7933
C16 C 0.4857(10) 0.4709(10) 0.8858(7)
H15 H 0.4533 0.5414 0.8781
H16 H 0.5875 0.4575 0.8727
H17 H 0.4756 0.4430 0.9347
C17 C 0.4445(11) 0.3113(7) 0.8517(7)
H18 H 0.3860 0.2850 0.8214
H19 H 0.4314 0.2806 0.8997
H20 H 0.5469 0.2978 0.8396
C18 C 0.2387(8) 0.6281(5) 0.7189(4)
C19 C 0.1871(11) 0.5600(6) 0.6742(4)
H21 H 0.1434 0.5091 0.7041
H22 H 0.2702 0.5299 0.6505
H23 H 0.1153 0.5982 0.6401
C20 C 0.3107(7) 0.7104(5) 0.6800(3)
C21 C 0.3774(7) 0.7685(5) 0.7152(3)
H24 H 0.3813 0.7556 0.7641
C22 C 0.4401(8) 0.8480(5) 0.6766(4)
H25 H 0.4889 0.8871 0.6992
C23 C 0.4272(7) 0.8660(5) 0.6052(3)
H26 H 0.4644 0.9193 0.5782
C24 C 0.3577(7) 0.8038(4) 0.5731(3)
C25 C 0.3391(7) 0.8207(5) 0.4950(3)
C26 C 0.2560(10) 0.7505(6) 0.4658(4)
H27 H 0.2509 0.7686 0.4154
H28 H 0.1577 0.7550 0.4844
H29 H 0.3070 0.6836 0.4792
C27 C 0.3851(7) 0.9163(4) 0.3844(3)
C28 C 0.5032(7) 0.8809(5) 0.3440(3)
C29 C 0.4938(7) 0.9122(5) 0.2723(3)
H30 H 0.5723 0.8907 0.2448
C30 C 0.3713(6) 0.9747(4) 0.2397(3)
C31 C 0.2566(6) 1.0072(5) 0.2816(3)
H31 H 0.1734 1.0485 0.2599
C32 C 0.2600(7) 0.9811(5) 0.3544(3)
C33 C 0.6406(9) 0.8109(6) 0.3774(4)
H32 H 0.6253 0.7991 0.4284
C34 C 0.6581(13) 0.7116(8) 0.3558(8)
H33 H 0.7429 0.6692 0.3794
H34 H 0.6714 0.7199 0.3059
H35 H 0.5713 0.6820 0.3685
C35 C 0.7763(11) 0.8546(9) 0.3650(8)
H36 H 0.8582 0.8084 0.3881
H37 H 0.7655 0.9149 0.3833
H38 H 0.7942 0.8690 0.3153
C36 C 0.1379(8) 1.0197(6) 0.3991(4)
H39 H 0.1201 0.9651 0.4368
C37 C -0.0115(9) 1.0625(9) 0.3571(6)
H40 H -0.0860 1.0850 0.3886
H41 H -0.0428 1.0114 0.3366
H42 H 0.0034 1.1172 0.3206
C38 C 0.1801(12) 1.1004(9) 0.4318(6)
H43 H 0.2701 1.0759 0.4585
H44 H 0.1027 1.1215 0.4624
H45 H 0.1945 1.1556 0.3956
C39 C 0.3596(6) 1.0085(4) 0.1618(3)
C40 C 0.4711(7) 1.0510(5) 0.1236(3)
H46 H 0.5584 1.0552 0.1457
C41 C 0.4498(7) 1.0872(5) 0.0518(3)
H47 H 0.5205 1.1186 0.0254
C42 C 0.3208(7) 1.0751(5) 0.0205(3)
H48 H 0.3067 1.0989 -0.0275
C43 C 0.2381(6) 0.9993(4) 0.1255(3)
H49 H 0.1653 0.9688 0.1509
Cd1_2 Cd 0.0000 -1.0000 2.0000
Cd1_3 Cd 0.0000 1.0000 0.0000
Cl1A Cl -0.11984(16) -0.05204(11) 1.12163(7)
N1A N 0.0991(5) -0.1694(3) 0.9977(2)
N2A N -0.2251(6) -0.6209(4) 1.2152(3)
N3A N -0.2998(6) -0.7262(4) 1.3900(3)
N4A N -0.3986(6) -0.8912(4) 1.5406(3)
N5A N -0.2158(5) -1.0308(3) 1.9437(2)
N5_2 N 0.2158(5) 0.0308(3) 1.0563(2)
N5A_2 N -0.2158(5) -0.0308(3) 0.9437(2)
C1A C 0.1956(7) -0.1967(5) 0.9497(3)
H1A H 0.2359 -0.1477 0.9194
C2A C 0.2384(8) -0.2953(5) 0.9432(4)
H2A H 0.3085 -0.3120 0.9102
C3A C 0.1744(7) -0.3686(4) 0.9868(3)
H3A H 0.2009 -0.4349 0.9830
C4A C 0.0715(6) -0.3420(4) 1.0356(3)
C5A C 0.0395(6) -0.2410(4) 1.0398(3)
H4A H -0.0268 -0.2226 1.0737
C6A C -0.0044(7) -0.4143(4) 1.0823(3)
C7A C 0.0687(7) -0.5079(4) 1.1118(3)
H5A H 0.1676 -0.5258 1.1011
C8A C -0.0012(7) -0.5759(4) 1.1569(3)
C9A C -0.1504(7) -0.5487(4) 1.1731(3)
C10A C -0.2291(7) -0.4553(4) 1.1432(3)
C11A C -0.1545(6) -0.3903(4) 1.0983(3)
H6A H -0.2059 -0.3283 1.0779
C12A C 0.0855(8) -0.6775(5) 1.1891(4)
H7A H 0.0145 -0.7207 1.2093
C13A C 0.1728(12) -0.7247(7) 1.1353(6)
H8A H 0.2254 -0.7884 1.1572
H9A H 0.1074 -0.7330 1.0995
H10A H 0.2422 -0.6830 1.1144
C14A C 0.1844(15) -0.6699(9) 1.2457(7)
H11A H 0.1279 -0.6402 1.2808
H12A H 0.2335 -0.7350 1.2667
H13A H 0.2567 -0.6294 1.2268
C15A C -0.3942(8) -0.4258(6) 1.1574(4)
H14A H -0.4105 -0.4543 1.2067
C16A C -0.4857(10) -0.4709(10) 1.1142(7)
H15A H -0.4533 -0.5414 1.1219
H16A H -0.5875 -0.4575 1.1273
H17A H -0.4756 -0.4430 1.0653
C17A C -0.4445(11) -0.3113(7) 1.1483(7)
H18A H -0.3860 -0.2850 1.1786
H19A H -0.4314 -0.2806 1.1003
H20A H -0.5469 -0.2978 1.1604
C18A C -0.2387(8) -0.6281(5) 1.2811(4)
C19A C -0.1871(11) -0.5600(6) 1.3258(4)
H21A H -0.1434 -0.5091 1.2959
H22A H -0.2702 -0.5299 1.3495
H23A H -0.1153 -0.5982 1.3599
C20A C -0.3107(7) -0.7104(5) 1.3200(3)
C21A C -0.3774(7) -0.7685(5) 1.2848(3)
H24A H -0.3813 -0.7556 1.2359
C22A C -0.4401(8) -0.8480(5) 1.3234(4)
H25A H -0.4889 -0.8871 1.3008
C23A C -0.4272(7) -0.8660(5) 1.3948(3)
H26A H -0.4644 -0.9193 1.4218
C24A C -0.3577(7) -0.8038(4) 1.4269(3)
C25A C -0.3391(7) -0.8207(5) 1.5050(3)
C26A C -0.2560(10) -0.7505(6) 1.5342(4)
H27A H -0.2509 -0.7686 1.5846
H28A H -0.1577 -0.7550 1.5156
H29A H -0.3070 -0.6836 1.5208
C27A C -0.3851(7) -0.9163(4) 1.6156(3)
C28A C -0.5032(7) -0.8809(5) 1.6560(3)
C29A C -0.4938(7) -0.9122(5) 1.7277(3)
H30A H -0.5723 -0.8907 1.7552
C30A C -0.3713(6) -0.9747(4) 1.7603(3)
C31A C -0.2566(6) -1.0072(5) 1.7184(3)
H31A H -0.1734 -1.0485 1.7401
C32A C -0.2600(7) -0.9811(5) 1.6456(3)
C33A C -0.6406(9) -0.8109(6) 1.6226(4)
H32A H -0.6253 -0.7991 1.5716
C34A C -0.6581(13) -0.7116(8) 1.6442(8)
H33A H -0.7429 -0.6692 1.6206
H34A H -0.6714 -0.7199 1.6941
H35A H -0.5713 -0.6820 1.6315
C35A C -0.7763(11) -0.8546(9) 1.6350(8)
H36A H -0.8582 -0.8084 1.6119
H37A H -0.7655 -0.9149 1.6167
H38A H -0.7942 -0.8690 1.6847
C36A C -0.1379(8) -1.0197(6) 1.6009(4)
H39A H -0.1201 -0.9651 1.5632
C37A C 0.0115(9) -1.0625(9) 1.6429(6)
H40A H 0.0860 -1.0850 1.6114
H41A H 0.0428 -1.0114 1.6634
H42A H -0.0034 -1.1172 1.6794
C38A C -0.1801(12) -1.1004(9) 1.5682(6)
H43A H -0.2701 -1.0759 1.5415
H44A H -0.1027 -1.1215 1.5376
H45A H -0.1945 -1.1556 1.6044
C39A C -0.3596(6) -1.0085(4) 1.8382(3)
C40A C -0.4711(7) -1.0510(5) 1.8764(3)
H46A H -0.5584 -1.0552 1.8543
C41A C -0.4498(7) -1.0872(5) 1.9482(3)
H47A H -0.5205 -1.1186 1.9746
C42A C -0.3208(7) -1.0751(5) 1.9795(3)
H48A H -0.3067 -1.0989 2.0275
C43A C -0.2381(6) -0.9993(4) 1.8745(3)
H49A H -0.1653 -0.9688 1.8491
C44 C 0.079(2) 0.7268(16) 0.2331(12)
H50 H 0.0933 0.7307 0.1829
H51 H -0.0137 0.7690 0.2396
Cl2 Cl 0.2128(13) 0.7684(8) 0.2653(6)
Cl3 Cl 0.067(2) 0.6129(13) 0.2692(12)
C45 C 0.728(3) 0.6194(17) 0.5712(14)
H52 H 0.6820 0.6824 0.5437
H53 H 0.7597 0.6296 0.6165
Cl4 Cl 0.607(2) 0.5279(19) 0.5809(14)
Cl5 Cl 0.878(3) 0.562(3) 0.5256(16)
loop_
_geom_bond_atom_site_label_1
_geom_bond_atom_site_label_2
_geom_bond_site_symmetry_1
_geom_bond_site_symmetry_2
Cd1 Cl1 1_555 1_555
N1 Cd1 1_555 1_555
N2 C9 1_555 1_555
N3 C20 1_555 1_555
N4 C25 1_555 1_555
N5 C42 1_555 1_555
C1 N1 1_555 1_555
H1 C1 1_555 1_555
C2 C1 1_555 1_555
H2 C2 1_555 1_555
C3 C2 1_555 1_555
H3 C3 1_555 1_555
C4 C3 1_555 1_555
C5 N1 1_555 1_555
H4 C5 1_555 1_555
C6 C4 1_555 1_555
C7 C6 1_555 1_555
H5 C7 1_555 1_555
C8 C7 1_555 1_555
C9 C8 1_555 1_555
C10 C9 1_555 1_555
C11 C6 1_555 1_555
H6 C11 1_555 1_555
C12 C8 1_555 1_555
H7 C12 1_555 1_555
C13 C12 1_555 1_555
H8 C13 1_555 1_555
H9 C13 1_555 1_555
H10 C13 1_555 1_555
C14 C12 1_555 1_555
H11 C14 1_555 1_555
H12 C14 1_555 1_555
H13 C14 1_555 1_555
C15 C10 1_555 1_555
H14 C15 1_555 1_555
C16 C15 1_555 1_555
H15 C16 1_555 1_555
H16 C16 1_555 1_555
H17 C16 1_555 1_555
C17 C15 1_555 1_555
H18 C17 1_555 1_555
H19 C17 1_555 1_555
H20 C17 1_555 1_555
C18 N2 1_555 1_555
C19 C18 1_555 1_555
H21 C19 1_555 1_555
H22 C19 1_555 1_555
H23 C19 1_555 1_555
C20 C18 1_555 1_555
C21 C20 1_555 1_555
H24 C21 1_555 1_555
C22 C21 1_555 1_555
H25 C22 1_555 1_555
C23 C22 1_555 1_555
H26 C23 1_555 1_555
C24 N3 1_555 1_555
C25 C24 1_555 1_555
C26 C25 1_555 1_555
H27 C26 1_555 1_555
H28 C26 1_555 1_555
H29 C26 1_555 1_555
C27 N4 1_555 1_555
C28 C27 1_555 1_555
C29 C28 1_555 1_555
H30 C29 1_555 1_555
C30 C29 1_555 1_555
C31 C30 1_555 1_555
H31 C31 1_555 1_555
C32 C27 1_555 1_555
C33 C28 1_555 1_555
H32 C33 1_555 1_555
C34 C33 1_555 1_555
H33 C34 1_555 1_555
H34 C34 1_555 1_555
H35 C34 1_555 1_555
C35 C33 1_555 1_555
H36 C35 1_555 1_555
H37 C35 1_555 1_555
H38 C35 1_555 1_555
C36 C32 1_555 1_555
H39 C36 1_555 1_555
C37 C36 1_555 1_555
H40 C37 1_555 1_555
H41 C37 1_555 1_555
H42 C37 1_555 1_555
C38 C36 1_555 1_555
H43 C38 1_555 1_555
H44 C38 1_555 1_555
H45 C38 1_555 1_555
C39 C30 1_555 1_555
C40 C39 1_555 1_555
H46 C40 1_555 1_555
C41 C40 1_555 1_555
H47 C41 1_555 1_555
C42 C41 1_555 1_555
H48 C42 1_555 1_555
C43 N5 1_555 1_555
H49 C43 1_555 1_555
C44 H50 1_555 1_555
H51 C44 1_555 1_555
Cl2 C44 1_555 1_555
Cl3 C44 1_555 1_555
C45 H52 1_555 1_555
H53 C45 1_555 1_555
Cl4 C45 1_555 1_555
Cl5 C45 1_555 1_555
Cd1_2 N5A 1_555 1_555
Cd1_3 N5 1_555 1_555
Cl1A Cd1 1_555 1_555
N1A Cd1 1_555 1_555
N2A C9A 1_555 1_555
N3A C20A 1_555 1_555
N4A C25A 1_555 1_555
N5A C42A 1_555 1_555
N5_2 Cd1 1_555 1_555
N5A_2 Cd1 1_555 1_555
C1A N1A 1_555 1_555
H1A C1A 1_555 1_555
C2A C1A 1_555 1_555
H2A C2A 1_555 1_555
C3A C2A 1_555 1_555
H3A C3A 1_555 1_555
C4A C3A 1_555 1_555
C5A N1A 1_555 1_555
H4A C5A 1_555 1_555
C6A C4A 1_555 1_555
C7A C6A 1_555 1_555
H5A C7A 1_555 1_555
C8A C7A 1_555 1_555
C9A C8A 1_555 1_555
C10A C9A 1_555 1_555
C11A C6A 1_555 1_555
H6A C11A 1_555 1_555
C12A C8A 1_555 1_555
H7A C12A 1_555 1_555
C13A C12A 1_555 1_555
H8A C13A 1_555 1_555
H9A C13A 1_555 1_555
H10A C13A 1_555 1_555
C14A C12A 1_555 1_555
H11A C14A 1_555 1_555
H12A C14A 1_555 1_555
H13A C14A 1_555 1_555
C15A C10A 1_555 1_555
H14A C15A 1_555 1_555
C16A C15A 1_555 1_555
H15A C16A 1_555 1_555
H16A C16A 1_555 1_555
H17A C16A 1_555 1_555
C17A C15A 1_555 1_555
H18A C17A 1_555 1_555
H19A C17A 1_555 1_555
H20A C17A 1_555 1_555
C18A N2A 1_555 1_555
C19A C18A 1_555 1_555
H21A C19A 1_555 1_555
H22A C19A 1_555 1_555
H23A C19A 1_555 1_555
C20A C18A 1_555 1_555
C21A C20A 1_555 1_555
H24A C21A 1_555 1_555
C22A C21A 1_555 1_555
H25A C22A 1_555 1_555
C23A C22A 1_555 1_555
H26A C23A 1_555 1_555
C24A N3A 1_555 1_555
C25A C24A 1_555 1_555
C26A C25A 1_555 1_555
H27A C26A 1_555 1_555
H28A C26A 1_555 1_555
H29A C26A 1_555 1_555
C27A N4A 1_555 1_555
C28A C27A 1_555 1_555
C29A C28A 1_555 1_555
H30A C29A 1_555 1_555
C30A C29A 1_555 1_555
C31A C30A 1_555 1_555
H31A C31A 1_555 1_555
C32A C27A 1_555 1_555
C33A C28A 1_555 1_555
H32A C33A 1_555 1_555
C34A C33A 1_555 1_555
H33A C34A 1_555 1_555
H34A C34A 1_555 1_555
H35A C34A 1_555 1_555
C35A C33A 1_555 1_555
H36A C35A 1_555 1_555
H37A C35A 1_555 1_555
H38A C35A 1_555 1_555
C36A C32A 1_555 1_555
H39A C36A 1_555 1_555
C37A C36A 1_555 1_555
H40A C37A 1_555 1_555
H41A C37A 1_555 1_555
H42A C37A 1_555 1_555
C38A C36A 1_555 1_555
H43A C38A 1_555 1_555
H44A C38A 1_555 1_555
H45A C38A 1_555 1_555
C39A C30A 1_555 1_555
C40A C39A 1_555 1_555
H46A C40A 1_555 1_555
C41A C40A 1_555 1_555
H47A C41A 1_555 1_555
C42A C41A 1_555 1_555
H48A C42A 1_555 1_555
C43A N5A 1_555 1_555
H49A C43A 1_555 1_555
C4 C5 1_555 1_555
C10 C11 1_555 1_555
C23 C24 1_555 1_555
C31 C32 1_555 1_555
C39 C43 1_555 1_555
C4A C5A 1_555 1_555
C10A C11A 1_555 1_555
C23A C24A 1_555 1_555
C31A C32A 1_555 1_555
C39A C43A 1_555 1_555

#END
