
#######################################################################
#
#                 Cambridge Crystallographic Data Centre
#                                CCDC 
#
#######################################################################
#
# If this CIF has been generated from an entry in the Cambridge 
# Structural Database, then it will include bibliographic, chemical, 
# crystal, experimental, refinement or atomic coordinate data resulting 
# from the CCDC's data processing and validation procedures.
#
#######################################################################

data_WUZHAB
_symmetry_cell_setting           orthorhombic
_symmetry_space_group_name_H-M   'C m c m'
_symmetry_Int_Tables_number      63
_space_group_name_Hall           '-C 2n 2'
loop_
_symmetry_equiv_pos_site_id
_symmetry_equiv_pos_as_xyz
1 x,y,z
2 -x,-y,1/2+z
3 -x,y,1/2-z
4 x,-y,-z
5 1/2+x,1/2+y,z
6 1/2-x,1/2-y,1/2+z
7 1/2-x,1/2+y,1/2-z
8 1/2+x,1/2-y,-z
9 -x,-y,-z
10 x,y,1/2-z
11 x,-y,1/2+z
12 -x,y,z
13 1/2-x,1/2-y,-z
14 1/2+x,1/2+y,1/2-z
15 1/2+x,1/2-y,1/2+z
16 1/2-x,1/2+y,z
_cell_length_a                   23.076(6)
_cell_length_b                   21.216(6)
_cell_length_c                   23.340(7)
_cell_angle_alpha                90
_cell_angle_beta                 90
_cell_angle_gamma                90
_cell_volume                     11426.8
loop_
_atom_site_label
_atom_site_type_symbol
_atom_site_fract_x
_atom_site_fract_y
_atom_site_fract_z
Hg1 Hg 0.18658(3) 0.14882(3) 0.2500
Hg2 Hg 0.0000 0.17421(6) 0.2500
Hg3 Hg 0.5000 0.03812(4) 0.57255(3)
Cl1 Cl 0.2620(3) 0.0746(3) 0.2500
Cl2 Cl 0.0883(2) 0.0934(2) 0.2500
Cl3 Cl 0.0000 0.2096(3) 0.3462(2)
Cl4 Cl 0.5000 0.0271(5) 0.6733(2)
Cl5 Cl 0.5000 0.0834(3) 0.4763(3)
N1 N 0.1496(5) 0.2496(6) 0.2500
N2 N 0.1858(4) 0.1948(4) 0.3474(3)
N3 N 0.3904(4) 0.0387(5) 0.5742(5)
C1 C 0.0860(9) 0.3587(9) 0.2500
H1 H 0.0641 0.3955 0.2500
C2 C 0.1018(6) 0.3321(6) 0.3004(6)
H2 H 0.0909 0.3508 0.3348
C3 C 0.1348(5) 0.2761(5) 0.3008(5)
C4 C 0.1564(5) 0.2452(6) 0.3534(5)
C5 C 0.1443(7) 0.2786(7) 0.4080(6)
H3 H 0.1598 0.2547 0.4394
H4 H 0.1031 0.2830 0.4127
H5 H 0.1619 0.3195 0.4071
C6 C 0.2127(5) 0.1650(5) 0.3957(5)
C7 C 0.1841(5) 0.1198(6) 0.4283(5)
C8 C 0.2140(5) 0.0915(6) 0.4723(5)
H6 H 0.1952 0.0609 0.4941
C9 C 0.2705(5) 0.1064(5) 0.4856(5)
C10 C 0.2984(5) 0.1496(6) 0.4527(5)
H7 H 0.3367 0.1596 0.4611
C11 C 0.2713(5) 0.1797(6) 0.4064(5)
C12 C 0.1218(6) 0.1034(8) 0.4155(7)
H8 H 0.1081 0.1303 0.3842
C13 C 0.0836(7) 0.1135(12) 0.4666(10)
H9 H 0.0861 0.1567 0.4786
H10 H 0.0960 0.0865 0.4973
H11 H 0.0442 0.1037 0.4566
C14 C 0.1176(9) 0.0354(10) 0.3968(11)
H12 H 0.1420 0.0288 0.3640
H13 H 0.0782 0.0257 0.3870
H14 H 0.1300 0.0084 0.4275
C15 C 0.3037(6) 0.2295(8) 0.3703(7)
H15 H 0.2778 0.2448 0.3401
C16 C 0.3555(10) 0.1983(11) 0.3429(8)
H16 H 0.3764 0.2288 0.3205
H17 H 0.3427 0.1646 0.3185
H18 H 0.3805 0.1818 0.3722
C17 C 0.3222(10) 0.2828(9) 0.4052(12)
H19 H 0.3425 0.3125 0.3816
H20 H 0.3475 0.2681 0.4350
H21 H 0.2889 0.3027 0.4219
C18 C 0.3009(5) 0.0743(6) 0.5330(5)
C19 C 0.2715(6) 0.0504(7) 0.5803(6)
H22 H 0.2316 0.0553 0.5833
C20 C 0.3017(6) 0.0197(7) 0.6224(6)
H23 H 0.2825 0.0022 0.6536
C21 C 0.3613(6) 0.0153(6) 0.6179(6)
H24 H 0.3817 -0.0051 0.6468
C22 C 0.3603(5) 0.0675(5) 0.5327(5)
H25 H 0.3807 0.0839 0.5018
Hg1B Hg -0.18658(3) 0.14882(3) 0.2500
Hg3B Hg 0.5000 0.03812(4) -0.07255(3)
Hg3C Hg 0.5000 -0.03812(4) 0.42745(3)
Hg3B_2 Hg -0.5000 0.03812(4) -0.07255(3)
Hg3_2 Hg -0.5000 0.03812(4) 0.57255(3)
Cl1B Cl -0.2620(3) 0.0746(3) 0.2500
Cl2B Cl -0.0883(2) 0.0934(2) 0.2500
Cl3B Cl 0.0000 0.2096(3) 0.1538(2)
Cl4B Cl 0.5000 0.0271(5) -0.1733(2)
Cl5C Cl 0.5000 -0.0834(3) 0.5237(3)
Cl5B Cl 0.5000 0.0834(3) 0.0237(3)
Cl5A Cl 0.5000 -0.0834(3) -0.0237(3)
N1B N -0.1496(5) 0.2496(6) 0.2500
N2I N 0.1858(4) 0.1948(4) 0.1526(3)
N2B N -0.1858(4) 0.1948(4) 0.1526(3)
N2K N -0.1858(4) 0.1948(4) 0.3474(3)
N3I N 0.3904(4) 0.0387(5) -0.0742(5)
N3B N -0.3904(4) 0.0387(5) -0.0742(5)
N3K N -0.3904(4) 0.0387(5) 0.5742(5)
N3K_2 N 0.6096(4) 0.0387(5) 0.5742(5)
N3B_2 N 0.6096(4) 0.0387(5) -0.0742(5)
C1B C -0.0860(9) 0.3587(9) 0.2500
H1B H -0.0641 0.3955 0.2500
C2I C 0.1018(6) 0.3321(6) 0.1996(6)
C2B C -0.1018(6) 0.3321(6) 0.1996(6)
C2K C -0.1018(6) 0.3321(6) 0.3004(6)
H2I H 0.0909 0.3508 0.1652
H2B H -0.0909 0.3508 0.1652
H2K H -0.0909 0.3508 0.3348
C3I C 0.1348(5) 0.2761(5) 0.1992(5)
C3B C -0.1348(5) 0.2761(5) 0.1992(5)
C3K C -0.1348(5) 0.2761(5) 0.3008(5)
C4I C 0.1564(5) 0.2452(6) 0.1466(5)
C4B C -0.1564(5) 0.2452(6) 0.1466(5)
C4K C -0.1564(5) 0.2452(6) 0.3534(5)
C5I C 0.1443(7) 0.2786(7) 0.0920(6)
C5B C -0.1443(7) 0.2786(7) 0.0920(6)
C5K C -0.1443(7) 0.2786(7) 0.4080(6)
H3I H 0.1598 0.2547 0.0606
H3B H -0.1598 0.2547 0.0606
H3K H -0.1598 0.2547 0.4394
H4I H 0.1031 0.2830 0.0873
H4B H -0.1031 0.2830 0.0873
H4K H -0.1031 0.2830 0.4127
H5I H 0.1619 0.3195 0.0929
H5B H -0.1619 0.3195 0.0929
H5K H -0.1619 0.3195 0.4071
C6I C 0.2127(5) 0.1650(5) 0.1043(5)
C6B C -0.2127(5) 0.1650(5) 0.1043(5)
C6K C -0.2127(5) 0.1650(5) 0.3957(5)
C7I C 0.1841(5) 0.1198(6) 0.0717(5)
C7B C -0.1841(5) 0.1198(6) 0.0717(5)
C7K C -0.1841(5) 0.1198(6) 0.4283(5)
C8I C 0.2140(5) 0.0915(6) 0.0277(5)
C8B C -0.2140(5) 0.0915(6) 0.0277(5)
C8K C -0.2140(5) 0.0915(6) 0.4723(5)
H6I H 0.1952 0.0609 0.0059
H6B H -0.1952 0.0609 0.0059
H6K H -0.1952 0.0609 0.4941
C9I C 0.2705(5) 0.1064(5) 0.0144(5)
C9B C -0.2705(5) 0.1064(5) 0.0144(5)
C9K C -0.2705(5) 0.1064(5) 0.4856(5)
C10I C 0.2984(5) 0.1496(6) 0.0473(5)
C10B C -0.2984(5) 0.1496(6) 0.0473(5)
C10K C -0.2984(5) 0.1496(6) 0.4527(5)
H7I H 0.3367 0.1596 0.0389
H7B H -0.3367 0.1596 0.0389
H7K H -0.3367 0.1596 0.4611
C11I C 0.2713(5) 0.1797(6) 0.0936(5)
C11B C -0.2713(5) 0.1797(6) 0.0936(5)
C11K C -0.2713(5) 0.1797(6) 0.4064(5)
C12I C 0.1218(6) 0.1034(8) 0.0845(7)
C12B C -0.1218(6) 0.1034(8) 0.0845(7)
C12K C -0.1218(6) 0.1034(8) 0.4155(7)
H8I H 0.1081 0.1303 0.1158
H8B H -0.1081 0.1303 0.1158
H8K H -0.1081 0.1303 0.3842
C13I C 0.0836(7) 0.1135(12) 0.0334(10)
C13B C -0.0836(7) 0.1135(12) 0.0334(10)
C13K C -0.0836(7) 0.1135(12) 0.4666(10)
H9I H 0.0861 0.1567 0.0214
H9B H -0.0861 0.1567 0.0214
H9K H -0.0861 0.1567 0.4786
H10I H 0.0960 0.0865 0.0027
H10B H -0.0960 0.0865 0.0027
H10K H -0.0960 0.0865 0.4973
H11I H 0.0442 0.1037 0.0434
H11B H -0.0442 0.1037 0.0434
H11K H -0.0442 0.1037 0.4566
C14I C 0.1176(9) 0.0354(10) 0.1032(11)
C14B C -0.1176(9) 0.0354(10) 0.1032(11)
C14K C -0.1176(9) 0.0354(10) 0.3968(11)
H12I H 0.1420 0.0288 0.1360
H12B H -0.1420 0.0288 0.1360
H12K H -0.1420 0.0288 0.3640
H13I H 0.0782 0.0257 0.1130
H13B H -0.0782 0.0257 0.1130
H13K H -0.0782 0.0257 0.3870
H14I H 0.1300 0.0084 0.0725
H14B H -0.1300 0.0084 0.0725
H14K H -0.1300 0.0084 0.4275
C15I C 0.3037(6) 0.2295(8) 0.1297(7)
C15B C -0.3037(6) 0.2295(8) 0.1297(7)
C15K C -0.3037(6) 0.2295(8) 0.3703(7)
H15I H 0.2778 0.2448 0.1599
H15B H -0.2778 0.2448 0.1599
H15K H -0.2778 0.2448 0.3401
C16I C 0.3555(10) 0.1983(11) 0.1571(8)
C16B C -0.3555(10) 0.1983(11) 0.1571(8)
C16K C -0.3555(10) 0.1983(11) 0.3429(8)
H16I H 0.3764 0.2288 0.1795
H16B H -0.3764 0.2288 0.1795
H16K H -0.3764 0.2288 0.3205
H17I H 0.3427 0.1646 0.1815
H17B H -0.3427 0.1646 0.1815
H17K H -0.3427 0.1646 0.3185
H18I H 0.3805 0.1818 0.1278
H18B H -0.3805 0.1818 0.1278
H18K H -0.3805 0.1818 0.3722
C17I C 0.3222(10) 0.2828(9) 0.0948(12)
C17B C -0.3222(10) 0.2828(9) 0.0948(12)
C17K C -0.3222(10) 0.2828(9) 0.4052(12)
H19I H 0.3425 0.3125 0.1184
H19B H -0.3425 0.3125 0.1184
H19K H -0.3425 0.3125 0.3816
H20I H 0.3475 0.2681 0.0650
H20B H -0.3475 0.2681 0.0650
H20K H -0.3475 0.2681 0.4350
H21I H 0.2889 0.3027 0.0781
H21B H -0.2889 0.3027 0.0781
H21K H -0.2889 0.3027 0.4219
C18I C 0.3009(5) 0.0743(6) -0.0330(5)
C18B C -0.3009(5) 0.0743(6) -0.0330(5)
C18K C -0.3009(5) 0.0743(6) 0.5330(5)
C19I C 0.2715(6) 0.0504(7) -0.0803(6)
C19B C -0.2715(6) 0.0504(7) -0.0803(6)
C19K C -0.2715(6) 0.0504(7) 0.5803(6)
H22I H 0.2316 0.0553 -0.0833
H22B H -0.2316 0.0553 -0.0833
H22K H -0.2316 0.0553 0.5833
C20I C 0.3017(6) 0.0197(7) -0.1224(6)
C20B C -0.3017(6) 0.0197(7) -0.1224(6)
C20K C -0.3017(6) 0.0197(7) 0.6224(6)
H23I H 0.2825 0.0022 -0.1536
H23B H -0.2825 0.0022 -0.1536
H23K H -0.2825 0.0022 0.6536
C21I C 0.3613(6) 0.0153(6) -0.1179(6)
C21B C -0.3613(6) 0.0153(6) -0.1179(6)
C21K C -0.3613(6) 0.0153(6) 0.6179(6)
H24I H 0.3817 -0.0051 -0.1468
H24B H -0.3817 -0.0051 -0.1468
H24K H -0.3817 -0.0051 0.6468
C22I C 0.3603(5) 0.0675(5) -0.0327(5)
C22B C -0.3603(5) 0.0675(5) -0.0327(5)
C22K C -0.3603(5) 0.0675(5) 0.5327(5)
H25I H 0.3807 0.0839 -0.0018
H25B H -0.3807 0.0839 -0.0018
H25K H -0.3807 0.0839 0.5018
O1 O 0.5000 0.0540(7) 0.2500
O2 O 0.279(3) 0.377(2) 0.2500
loop_
_geom_bond_atom_site_label_1
_geom_bond_atom_site_label_2
_geom_bond_site_symmetry_1
_geom_bond_site_symmetry_2
Hg1 Cl1 1_555 1_555
Hg2 Cl2 1_555 1_555
Hg3 Cl4 1_555 1_555
Cl2 Hg1 1_555 1_555
Cl3 Hg2 1_555 1_555
Cl5 Hg3 1_555 1_555
N1 Hg1 1_555 1_555
N2 Hg1 1_555 1_555
N3 Hg3 1_555 1_555
C1 H1 1_555 1_555
C2 C1 1_555 1_555
H2 C2 1_555 1_555
C3 N1 1_555 1_555
C4 N2 1_555 1_555
C5 C4 1_555 1_555
H3 C5 1_555 1_555
H4 C5 1_555 1_555
H5 C5 1_555 1_555
C6 N2 1_555 1_555
C7 C6 1_555 1_555
C8 C7 1_555 1_555
H6 C8 1_555 1_555
C9 C8 1_555 1_555
C10 C9 1_555 1_555
H7 C10 1_555 1_555
C11 C6 1_555 1_555
C12 C7 1_555 1_555
H8 C12 1_555 1_555
C13 C12 1_555 1_555
H9 C13 1_555 1_555
H10 C13 1_555 1_555
H11 C13 1_555 1_555
C14 C12 1_555 1_555
H12 C14 1_555 1_555
H13 C14 1_555 1_555
H14 C14 1_555 1_555
C15 C11 1_555 1_555
H15 C15 1_555 1_555
C16 C15 1_555 1_555
H16 C16 1_555 1_555
H17 C16 1_555 1_555
H18 C16 1_555 1_555
C17 C15 1_555 1_555
H19 C17 1_555 1_555
H20 C17 1_555 1_555
H21 C17 1_555 1_555
C18 C9 1_555 1_555
C19 C18 1_555 1_555
H22 C19 1_555 1_555
C20 C19 1_555 1_555
H23 C20 1_555 1_555
C21 N3 1_555 1_555
H24 C21 1_555 1_555
C22 N3 1_555 1_555
H25 C22 1_555 1_555
Hg1B Cl1B 1_555 1_555
Hg3B Cl4B 1_555 1_555
Hg3C Cl5 1_555 1_555
Hg3B_2 N3B 1_555 1_555
Hg3_2 N3K 1_555 1_555
Cl2B Hg2 1_555 1_555
Cl3B Hg2 1_555 1_555
Cl5C Hg3 1_555 1_555
Cl5B Hg3B 1_555 1_555
Cl5A Hg3B 1_555 1_555
N1B Hg1B 1_555 1_555
N2I Hg1 1_555 1_555
N2B Hg1B 1_555 1_555
N2K Hg1B 1_555 1_555
N3I Hg3B 1_555 1_555
N3B C21B 1_555 1_555
N3K C21K 1_555 1_555
N3K_2 Hg3 1_555 1_555
N3B_2 Hg3B 1_555 1_555
C1B H1B 1_555 1_555
C2I C1 1_555 1_555
C2B C1B 1_555 1_555
C2K C1B 1_555 1_555
H2I C2I 1_555 1_555
H2B C2B 1_555 1_555
H2K C2K 1_555 1_555
C3I N1 1_555 1_555
C3B N1B 1_555 1_555
C3K N1B 1_555 1_555
C4I N2I 1_555 1_555
C4B N2B 1_555 1_555
C4K N2K 1_555 1_555
C5I C4I 1_555 1_555
C5B C4B 1_555 1_555
C5K C4K 1_555 1_555
H3I C5I 1_555 1_555
H3B C5B 1_555 1_555
H3K C5K 1_555 1_555
H4I C5I 1_555 1_555
H4B C5B 1_555 1_555
H4K C5K 1_555 1_555
H5I C5I 1_555 1_555
H5B C5B 1_555 1_555
H5K C5K 1_555 1_555
C6I N2I 1_555 1_555
C6B N2B 1_555 1_555
C6K N2K 1_555 1_555
C7I C6I 1_555 1_555
C7B C6B 1_555 1_555
C7K C6K 1_555 1_555
C8I C7I 1_555 1_555
C8B C7B 1_555 1_555
C8K C7K 1_555 1_555
H6I C8I 1_555 1_555
H6B C8B 1_555 1_555
H6K C8K 1_555 1_555
C9I C8I 1_555 1_555
C9B C8B 1_555 1_555
C9K C8K 1_555 1_555
C10I C9I 1_555 1_555
C10B C9B 1_555 1_555
C10K C9K 1_555 1_555
H7I C10I 1_555 1_555
H7B C10B 1_555 1_555
H7K C10K 1_555 1_555
C11I C6I 1_555 1_555
C11B C6B 1_555 1_555
C11K C6K 1_555 1_555
C12I C7I 1_555 1_555
C12B C7B 1_555 1_555
C12K C7K 1_555 1_555
H8I C12I 1_555 1_555
H8B C12B 1_555 1_555
H8K C12K 1_555 1_555
C13I C12I 1_555 1_555
C13B C12B 1_555 1_555
C13K C12K 1_555 1_555
H9I C13I 1_555 1_555
H9B C13B 1_555 1_555
H9K C13K 1_555 1_555
H10I C13I 1_555 1_555
H10B C13B 1_555 1_555
H10K C13K 1_555 1_555
H11I C13I 1_555 1_555
H11B C13B 1_555 1_555
H11K C13K 1_555 1_555
C14I C12I 1_555 1_555
C14B C12B 1_555 1_555
C14K C12K 1_555 1_555
H12I C14I 1_555 1_555
H12B C14B 1_555 1_555
H12K C14K 1_555 1_555
H13I C14I 1_555 1_555
H13B C14B 1_555 1_555
H13K C14K 1_555 1_555
H14I C14I 1_555 1_555
H14B C14B 1_555 1_555
H14K C14K 1_555 1_555
C15I C11I 1_555 1_555
C15B C11B 1_555 1_555
C15K C11K 1_555 1_555
H15I C15I 1_555 1_555
H15B C15B 1_555 1_555
H15K C15K 1_555 1_555
C16I C15I 1_555 1_555
C16B C15B 1_555 1_555
C16K C15K 1_555 1_555
H16I C16I 1_555 1_555
H16B C16B 1_555 1_555
H16K C16K 1_555 1_555
H17I C16I 1_555 1_555
H17B C16B 1_555 1_555
H17K C16K 1_555 1_555
H18I C16I 1_555 1_555
H18B C16B 1_555 1_555
H18K C16K 1_555 1_555
C17I C15I 1_555 1_555
C17B C15B 1_555 1_555
C17K C15K 1_555 1_555
H19I C17I 1_555 1_555
H19B C17B 1_555 1_555
H19K C17K 1_555 1_555
H20I C17I 1_555 1_555
H20B C17B 1_555 1_555
H20K C17K 1_555 1_555
H21I C17I 1_555 1_555
H21B C17B 1_555 1_555
H21K C17K 1_555 1_555
C18I C9I 1_555 1_555
C18B C9B 1_555 1_555
C18K C9K 1_555 1_555
C19I C18I 1_555 1_555
C19B C18B 1_555 1_555
C19K C18K 1_555 1_555
H22I C19I 1_555 1_555
H22B C19B 1_555 1_555
H22K C19K 1_555 1_555
C20I C19I 1_555 1_555
C20B C19B 1_555 1_555
C20K C19K 1_555 1_555
H23I C20I 1_555 1_555
H23B C20B 1_555 1_555
H23K C20K 1_555 1_555
C21I N3I 1_555 1_555
C21B C20B 1_555 1_555
C21K C20K 1_555 1_555
H24I C21I 1_555 1_555
H24B C21B 1_555 1_555
H24K C21K 1_555 1_555
C22I N3I 1_555 1_555
C22B N3B 1_555 1_555
C22K N3K 1_555 1_555
H25I C22I 1_555 1_555
H25B C22B 1_555 1_555
H25K C22K 1_555 1_555
C2 C3 1_555 1_555
C3 C4 1_555 1_555
C10 C11 1_555 1_555
C18 C22 1_555 1_555
C20 C21 1_555 1_555
Hg1B Cl2B 1_555 1_555
Hg3C Cl5C 1_555 1_555
C2I C3I 1_555 1_555
C2B C3B 1_555 1_555
C2K C3K 1_555 1_555
C3I C4I 1_555 1_555
C3B C4B 1_555 1_555
C3K C4K 1_555 1_555
C10I C11I 1_555 1_555
C10B C11B 1_555 1_555
C10K C11K 1_555 1_555
C18I C22I 1_555 1_555
C18B C22B 1_555 1_555
C18K C22K 1_555 1_555
C20I C21I 1_555 1_555

#END
