
#######################################################################
#
#                 Cambridge Crystallographic Data Centre
#                                CCDC 
#
#######################################################################
#
# If this CIF has been generated from an entry in the Cambridge 
# Structural Database, then it will include bibliographic, chemical, 
# crystal, experimental, refinement or atomic coordinate data resulting 
# from the CCDC's data processing and validation procedures.
#
#######################################################################

data_WUZNEK
_symmetry_cell_setting           orthorhombic
_symmetry_space_group_name_H-M   'P 21 21 21'
_symmetry_Int_Tables_number      19
_space_group_name_Hall           'P 2ac 2ab'
loop_
_symmetry_equiv_pos_site_id
_symmetry_equiv_pos_as_xyz
1 x,y,z
2 1/2-x,-y,1/2+z
3 -x,1/2+y,1/2-z
4 1/2+x,1/2-y,-z
_cell_length_a                   12.325(8)
_cell_length_b                   16.248(10)
_cell_length_c                   48.57(3)
_cell_angle_alpha                90
_cell_angle_beta                 90
_cell_angle_gamma                90
_cell_volume                     9726.46
loop_
_atom_site_label
_atom_site_type_symbol
_atom_site_fract_x
_atom_site_fract_y
_atom_site_fract_z
Co1 Co 0.19931(12) 0.00467(9) 0.97932(3)
Co2 Co 0.26934(12) 0.02603(9) 0.77351(3)
O5 O -0.0674(8) -0.0525(7) 0.9353(3)
O6 O 0.1939(9) -0.1891(6) 1.0323(2)
O7 O 0.0254(7) 0.0603(6) 0.8271(2)
O8 O 0.5370(7) -0.0372(6) 0.8180(2)
O9 O 0.2019(7) 0.2036(5) 1.02902(17)
O10 O 0.4533(9) 0.0462(7) 0.92973(18)
O11 O 0.2537(7) -0.1504(5) 0.7150(2)
O12 O 0.2600(8) 0.2366(6) 0.7303(2)
N1 N 0.0841(7) 0.0727(6) 0.97893(18)
N2 N 0.3150(8) -0.0715(7) 0.9795(2)
N3 N 0.1527(9) -0.0415(6) 0.7734(2)
N4 N 0.3874(7) 0.0981(5) 0.77481(19)
N5 N 0.1050(8) -0.0561(6) 0.9525(2)
N6 N 0.1443(10) -0.0695(7) 1.0094(2)
N7 N 0.1830(9) 0.0745(6) 0.80464(19)
N8 N 0.3608(8) -0.0382(6) 0.79845(19)
N9 N 0.2543(8) 0.0854(6) 1.00498(18)
N10 N 0.2839(8) 0.0547(5) 0.95009(19)
N11 N 0.3112(8) -0.0420(6) 0.74216(19)
N12 N 0.2121(8) 0.1117(6) 0.74846(18)
N13 N 0.2066(9) -0.1403(6) 0.9260(2)
N14 N 0.0671(13) -0.0046(9) 1.0478(3)
N15 N 0.2929(8) 0.1454(6) 0.8362(2)
N16 N 0.2550(8) -0.1334(7) 0.8217(2)
N17 N 0.4454(9) 0.0851(7) 1.0052(2)
N18 N 0.1828(9) 0.1376(6) 0.9194(2)
N19 N 0.5016(9) -0.0490(6) 0.7412(2)
N20 N 0.0276(10) 0.1304(7) 0.7520(3)
C1 C 0.0880(10) 0.1443(8) 0.9944(3)
C2 C 0.3980(10) -0.0551(7) 0.9610(2)
C3 C 0.1440(9) -0.1000(7) 0.7517(3)
C4 C 0.3798(10) 0.1685(7) 0.7622(2)
C5 C 0.0034(12) 0.1965(9) 0.9934(3)
H1 H 0.0065 0.2446 1.0037
C6 C 0.4888(13) -0.1112(8) 0.9611(3)
H2 H 0.5508 -0.1007 0.9508
C7 C 0.0539(12) -0.1528(8) 0.7507(3)
H3 H 0.0478 -0.1924 0.7370
C8 C 0.4598(12) 0.2304(8) 0.7650(3)
H4 H 0.4534 0.2819 0.7568
C9 C -0.0852(15) 0.1820(12) 0.9782(3)
H5 H -0.1425 0.2192 0.9779
C10 C 0.4801(14) -0.1793(9) 0.9768(3)
H6 H 0.5338 -0.2194 0.9756
C11 C 0.5484(10) 0.2085(9) 0.7809(3)
H7 H 0.6060 0.2453 0.7821
C12 C -0.0256(10) -0.1448(9) 0.7706(3)
H8 H -0.0837 -0.1813 0.7711
C13 C -0.0897(12) 0.1062(10) 0.9619(3)
H9 H -0.1505 0.0927 0.9515
C14 C 0.3957(12) -0.1914(9) 0.9943(4)
H10 H 0.3932 -0.2381 1.0053
C15 C -0.0176(11) -0.0801(10) 0.7903(3)
H11 H -0.0696 -0.0734 0.8040
C16 C 0.5559(11) 0.1365(10) 0.7948(3)
H12 H 0.6144 0.1260 0.8064
C17 C -0.0037(9) 0.0576(8) 0.9627(3)
C18 C 0.3120(11) -0.1326(8) 0.9955(3)
C19 C 0.0697(9) -0.0282(7) 0.7883(3)
C20 C 0.4737(11) 0.0788(8) 0.7914(3)
C21 C 0.0092(9) -0.0215(8) 0.9488(2)
C22 C 0.2132(11) -0.1311(7) 1.0139(3)
C23 C 0.4609(10) -0.0058(8) 0.8037(2)
C24 C 0.0875(10) 0.0386(8) 0.8092(2)
C25 C 0.1280(11) -0.1340(7) 0.9450(3)
C26 C 0.0463(16) -0.0521(9) 1.0252(3)
C27 C 0.2091(10) 0.1498(8) 0.8175(3)
C28 C 0.3387(9) -0.1214(7) 0.8056(2)
C29 C 0.0793(16) -0.1982(10) 0.9560(3)
H13 H 0.0259 -0.1906 0.9693
C30 C -0.0430(12) -0.0839(10) 1.0148(4)
H14 H -0.0436 -0.1134 0.9984
C31 C 0.1565(14) 0.2192(8) 0.8090(3)
H15 H 0.0983 0.2178 0.7968
C32 C 0.3962(13) -0.1872(9) 0.7957(3)
H16 H 0.4553 -0.1776 0.7843
C33 C 0.107(2) -0.2757(11) 0.9479(5)
H17 H 0.0732 -0.3218 0.9553
C34 C -0.1322(16) -0.0709(16) 1.0296(6)
H18 H -0.1972 -0.0953 1.0244
C35 C 0.1966(13) 0.2923(10) 0.8199(3)
H19 H 0.1662 0.3423 0.8147
C36 C 0.3706(15) -0.2627(7) 0.8019(3)
H20 H 0.4084 -0.3074 0.7947
C37 C 0.1886(18) -0.2833(10) 0.9281(3)
H21 H 0.2093 -0.3350 0.9217
C38 C -0.1287(19) -0.0230(17) 1.0518(6)
H22 H -0.1926 -0.0086 1.0608
C39 C 0.2832(16) 0.2906(8) 0.8388(3)
H23 H 0.3095 0.3396 0.8461
C40 C 0.2807(14) -0.2730(10) 0.8203(3)
H24 H 0.2628 -0.3250 0.8269
C41 C 0.2334(13) -0.2198(9) 0.9189(2)
C42 C -0.036(2) 0.0037(19) 1.0609(4)
C43 C 0.3262(12) 0.2215(10) 0.8460(3)
C44 C 0.2264(11) -0.2114(8) 0.8276(3)
C45 C 0.320(2) -0.2311(16) 0.8976(6)
H25 H 0.3459 -0.1783 0.8916
H26 H 0.2914 -0.2608 0.8822
H27 H 0.3796 -0.2616 0.9054
C46 C -0.002(2) 0.0667(17) 1.0852(6)
H28 H 0.0714 0.0842 1.0826
H29 H -0.0087 0.0394 1.1027
H30 H -0.0494 0.1137 1.0849
C47 C 0.4216(14) 0.2119(9) 0.8665(4)
H31 H 0.4393 0.1547 0.8685
H32 H 0.4008 0.2339 0.8841
H33 H 0.4836 0.2413 0.8598
C48 C 0.1272(13) -0.2242(11) 0.8467(4)
H34 H 0.0935 -0.1720 0.8503
H35 H 0.1506 -0.2484 0.8637
H36 H 0.0761 -0.2600 0.8378
C49 C 0.1877(12) 0.1458(8) 1.0118(3)
C50 C 0.3793(11) 0.0190(9) 0.9452(3)
C51 C 0.2439(9) -0.1022(8) 0.7347(2)
C52 C 0.2832(11) 0.1773(8) 0.7451(2)
C53 C 0.3536(11) 0.0764(8) 1.0205(3)
C54 C 0.2594(10) 0.1343(7) 0.9392(2)
C55 C 0.4103(11) -0.0326(7) 0.7267(3)
C56 C 0.1069(10) 0.1089(8) 0.7352(3)
C57 C 0.3585(12) 0.0549(10) 1.0481(3)
H37 H 0.2958 0.0497 1.0586
C58 C 0.3089(11) 0.2030(8) 0.9501(3)
H38 H 0.3595 0.1976 0.9642
C59 C 0.4194(11) -0.0082(12) 0.7007(3)
H39 H 0.3565 0.0063 0.6913
C60 C 0.1009(13) 0.0760(11) 0.7097(3)
H40 H 0.1655 0.0621 0.7009
C61 C 0.4565(15) 0.0418(12) 1.0591(3)
H41 H 0.4623 0.0277 1.0776
C62 C 0.2835(14) 0.2773(8) 0.9403(3)
H42 H 0.3162 0.3249 0.9469
C63 C 0.5154(14) -0.0034(13) 0.6871(3)
H43 H 0.5170 0.0078 0.6683
C64 C 0.0110(18) 0.0628(16) 0.6967(4)
H44 H 0.0063 0.0392 0.6793
C65 C 0.5447(13) 0.0488(10) 1.0441(4)
H45 H 0.6119 0.0384 1.0521
C66 C 0.2064(17) 0.2799(11) 0.9198(4)
H46 H 0.1883 0.3309 0.9124
C67 C 0.6061(12) -0.0149(10) 0.7009(3)
H47 H 0.6733 -0.0077 0.6925
C68 C -0.0769(16) 0.0882(11) 0.7121(4)
H48 H -0.1453 0.0865 0.7040
C69 C 0.5400(11) 0.0708(10) 1.0168(3)
C70 C 0.1544(12) 0.2110(11) 0.9095(3)
C71 C 0.5980(10) -0.0381(8) 0.7285(3)
C72 C -0.0681(12) 0.1169(9) 0.7397(4)
C73 C 0.6430(15) 0.0789(14) 0.9996(4)
H49 H 0.6244 0.0960 0.9813
H50 H 0.6794 0.0267 0.9989
H51 H 0.6901 0.1190 1.0078
C74 C 0.0660(14) 0.2131(10) 0.8888(4)
H52 H 0.0431 0.1579 0.8848
H53 H 0.0918 0.2388 0.8723
H54 H 0.0058 0.2438 0.8960
C75 C 0.6967(11) -0.0603(10) 0.7441(3)
H55 H 0.6766 -0.0774 0.7624
H56 H 0.7438 -0.0134 0.7453
H57 H 0.7336 -0.1045 0.7350
C76 C -0.1643(12) 0.1377(13) 0.7592(4)
H58 H -0.1365 0.1587 0.7763
H59 H -0.2058 0.0888 0.7627
H60 H -0.2098 0.1784 0.7508
Na1 Na 0.6184(9) 0.0830(6) 0.9076(2)
Na2 Na 1.0064(11) -0.0118(7) 0.8767(2)
Na3 Na 0.7073(14) -0.0775(10) 0.8493(3)
O13 O 1.1820(6) -0.0042(4) 0.89986(14)
O15 O 0.8011(16) 0.0373(11) 0.8381(3)
O16 O 0.5235(16) -0.0031(10) 0.8746(3)
O17 O 0.645(2) -0.1678(15) 0.8885(5)
O18 O 0.7058(14) -0.1542(10) 0.8135(3)
O20 O 0.7345(19) -0.0264(13) 0.9161(4)
O21 O 0.6127(16) 0.1892(12) 0.9323(4)
O23 O 0.687(4) 0.164(3) 0.8692(10)
O24 O 0.880(4) -0.158(3) 0.8744(9)
O28 O 0.870(4) 0.130(3) 0.8724(11)
Na2_2 Na 0.0064(11) -0.0118(7) 0.8767(2)
O7_2 O 1.0254(7) 0.0603(6) 0.8271(2)
Cl1 Cl 0.1871(5) 0.5151(3) 0.87197(8)
O1 O 0.1841(15) 0.5025(17) 0.8467(3)
O2 O 0.114(2) 0.486(3) 0.8853(6)
O3 O 0.198(3) 0.5911(9) 0.8738(6)
O4 O 0.272(2) 0.4774(12) 0.8818(5)
O14 O 0.2931(8) -0.0020(6) 0.85833(18)
O19 O 0.584(3) -0.295(2) 0.8883(6)
O22 O -0.071(5) 0.409(3) 0.8522(10)
O25 O 0.276(4) -0.347(3) 1.0302(9)
O26 O -0.183(4) 0.286(3) 0.8568(10)
O27 O -0.144(4) -0.317(3) 0.8604(9)
loop_
_geom_bond_atom_site_label_1
_geom_bond_atom_site_label_2
_geom_bond_site_symmetry_1
_geom_bond_site_symmetry_2
Co1 N1 1_555 1_555
Co2 N3 1_555 1_555
Cl1 O1 1_555 1_555
O2 Cl1 1_555 1_555
O3 Cl1 1_555 1_555
O4 Cl1 1_555 1_555
O5 C21 1_555 1_555
O6 C22 1_555 1_555
O7 C24 1_555 1_555
O8 C23 1_555 1_555
O9 C49 1_555 1_555
O10 C50 1_555 1_555
O11 C51 1_555 1_555
O12 C52 1_555 1_555
N1 C1 1_555 1_555
N2 Co1 1_555 1_555
N3 C3 1_555 1_555
N4 Co2 1_555 1_555
N5 Co1 1_555 1_555
N6 Co1 1_555 1_555
N7 Co2 1_555 1_555
N8 Co2 1_555 1_555
N9 Co1 1_555 1_555
N10 Co1 1_555 1_555
N11 Co2 1_555 1_555
N12 Co2 1_555 1_555
N13 C25 1_555 1_555
N14 C26 1_555 1_555
N15 C27 1_555 1_555
N16 C28 1_555 1_555
N17 C53 1_555 1_555
N18 C54 1_555 1_555
N19 C55 1_555 1_555
N20 C56 1_555 1_555
C1 C5 1_555 1_555
C2 N2 1_555 1_555
C3 C7 1_555 1_555
C4 N4 1_555 1_555
C5 H1 1_555 1_555
C6 C2 1_555 1_555
H2 C6 1_555 1_555
C7 H3 1_555 1_555
C8 C4 1_555 1_555
H4 C8 1_555 1_555
C9 C5 1_555 1_555
H5 C9 1_555 1_555
C10 C6 1_555 1_555
H6 C10 1_555 1_555
C11 C8 1_555 1_555
H7 C11 1_555 1_555
C12 C7 1_555 1_555
H8 C12 1_555 1_555
C13 C9 1_555 1_555
H9 C13 1_555 1_555
C14 C10 1_555 1_555
H10 C14 1_555 1_555
C15 C12 1_555 1_555
H11 C15 1_555 1_555
C16 C11 1_555 1_555
H12 C16 1_555 1_555
C17 N1 1_555 1_555
C18 N2 1_555 1_555
C19 N3 1_555 1_555
C20 N4 1_555 1_555
C21 N5 1_555 1_555
C22 N6 1_555 1_555
C23 N8 1_555 1_555
C24 N7 1_555 1_555
C25 N5 1_555 1_555
C26 N6 1_555 1_555
C27 N7 1_555 1_555
C28 N8 1_555 1_555
C29 C25 1_555 1_555
H13 C29 1_555 1_555
C30 C26 1_555 1_555
H14 C30 1_555 1_555
C31 C27 1_555 1_555
H15 C31 1_555 1_555
C32 C28 1_555 1_555
H16 C32 1_555 1_555
C33 C29 1_555 1_555
H17 C33 1_555 1_555
C34 C30 1_555 1_555
H18 C34 1_555 1_555
C35 C31 1_555 1_555
H19 C35 1_555 1_555
C36 C32 1_555 1_555
H20 C36 1_555 1_555
C37 C33 1_555 1_555
H21 C37 1_555 1_555
C38 C34 1_555 1_555
H22 C38 1_555 1_555
C39 C35 1_555 1_555
H23 C39 1_555 1_555
C40 C36 1_555 1_555
H24 C40 1_555 1_555
C41 N13 1_555 1_555
C42 N14 1_555 1_555
C43 N15 1_555 1_555
C44 N16 1_555 1_555
C45 C41 1_555 1_555
H25 C45 1_555 1_555
H26 C45 1_555 1_555
H27 C45 1_555 1_555
C46 C42 1_555 1_555
H28 C46 1_555 1_555
H29 C46 1_555 1_555
H30 C46 1_555 1_555
C47 C43 1_555 1_555
H31 C47 1_555 1_555
H32 C47 1_555 1_555
H33 C47 1_555 1_555
C48 C44 1_555 1_555
H34 C48 1_555 1_555
H35 C48 1_555 1_555
H36 C48 1_555 1_555
C49 N9 1_555 1_555
C50 N10 1_555 1_555
C51 N11 1_555 1_555
C52 N12 1_555 1_555
C53 N9 1_555 1_555
C54 N10 1_555 1_555
C55 N11 1_555 1_555
C56 N12 1_555 1_555
C57 C53 1_555 1_555
H37 C57 1_555 1_555
C58 C54 1_555 1_555
H38 C58 1_555 1_555
C59 C55 1_555 1_555
H39 C59 1_555 1_555
C60 C56 1_555 1_555
H40 C60 1_555 1_555
C61 C57 1_555 1_555
H41 C61 1_555 1_555
C62 C58 1_555 1_555
H42 C62 1_555 1_555
C63 C59 1_555 1_555
H43 C63 1_555 1_555
C64 C60 1_555 1_555
H44 C64 1_555 1_555
C65 C61 1_555 1_555
H45 C65 1_555 1_555
C66 C62 1_555 1_555
H46 C66 1_555 1_555
C67 C63 1_555 1_555
H47 C67 1_555 1_555
C68 C64 1_555 1_555
H48 C68 1_555 1_555
C69 N17 1_555 1_555
C70 N18 1_555 1_555
C71 N19 1_555 1_555
C72 N20 1_555 1_555
C73 C69 1_555 1_555
H49 C73 1_555 1_555
H50 C73 1_555 1_555
H51 C73 1_555 1_555
C74 C70 1_555 1_555
H52 C74 1_555 1_555
H53 C74 1_555 1_555
H54 C74 1_555 1_555
C75 C71 1_555 1_555
H55 C75 1_555 1_555
H56 C75 1_555 1_555
H57 C75 1_555 1_555
C76 C72 1_555 1_555
H58 C76 1_555 1_555
H59 C76 1_555 1_555
H60 C76 1_555 1_555
Na1 O10 1_555 1_555
Na2 O13 1_555 1_555
Na3 O8 1_555 1_555
O15 Na3 1_555 1_555
O16 Na1 1_555 1_555
O17 Na3 1_555 1_555
O18 Na3 1_555 1_555
O20 Na1 1_555 1_555
O21 Na1 1_555 1_555
O23 Na1 1_555 1_555
O24 Na2 1_555 1_555
O28 Na2 1_555 1_555
Na2_2 O7 1_555 1_555
O7_2 Na2 1_555 1_555
C1 C49 1_555 1_555
C2 C50 1_555 1_555
C3 C51 1_555 1_555
C4 C52 1_555 1_555
C13 C17 1_555 1_555
C14 C18 1_555 1_555
C15 C19 1_555 1_555
C16 C20 1_555 1_555
C17 C21 1_555 1_555
C18 C22 1_555 1_555
C19 C24 1_555 1_555
C20 C23 1_555 1_555
C37 C41 1_555 1_555
C38 C42 1_555 1_555
C39 C43 1_555 1_555
C40 C44 1_555 1_555
C65 C69 1_555 1_555
C66 C70 1_555 1_555
C67 C71 1_555 1_555
C68 C72 1_555 1_555
Na3 O16 1_555 1_555
Na3 O24 1_555 1_555

#END
