
#######################################################################
#
#                 Cambridge Crystallographic Data Centre
#                                CCDC 
#
#######################################################################
#
# If this CIF has been generated from an entry in the Cambridge 
# Structural Database, then it will include bibliographic, chemical, 
# crystal, experimental, refinement or atomic coordinate data resulting 
# from the CCDC's data processing and validation procedures.
#
#######################################################################

data_WUZQUD
_symmetry_cell_setting           monoclinic
_symmetry_space_group_name_H-M   'C 2/c'
_symmetry_Int_Tables_number      15
_space_group_name_Hall           '-C 2yn'
loop_
_symmetry_equiv_pos_site_id
_symmetry_equiv_pos_as_xyz
1 x,y,z
2 1/2+x,1/2+y,z
3 x,-y,1/2+z
4 1/2+x,1/2-y,1/2+z
5 -x,-y,-z
6 1/2-x,1/2-y,-z
7 -x,y,1/2-z
8 1/2-x,1/2+y,1/2-z
_cell_length_a                   13.712(2)
_cell_length_b                   5.5890(10)
_cell_length_c                   17.517(2)
_cell_angle_alpha                90
_cell_angle_beta                 105.760(10)
_cell_angle_gamma                90
_cell_volume                     1291.97
loop_
_atom_site_label
_atom_site_type_symbol
_atom_site_fract_x
_atom_site_fract_y
_atom_site_fract_z
Cu1 Cu 0.5000 0.00862(5) 0.2500
N1 N 0.64486(18) 0.0494(5) 0.30827(14)
C1 C 0.6952(2) -0.0507(7) 0.38000(19)
C2 C 0.7883(2) 0.0486(7) 0.4057(2)
N2 N 0.79521(15) 0.2122(4) 0.34928(12)
C3 C 0.70770(17) 0.2073(5) 0.29229(14)
O1 O 0.4609(2) 0.0110(3) 0.35005(16)
O2 O 0.51740(18) 0.3743(3) 0.39202(11)
C4 C 0.48438(16) 0.1765(4) 0.40235(11)
C5 C 0.4686(2) 0.1093(4) 0.48224(13)
O3 O 0.5000 -0.3877(5) 0.2500
H1 H 0.664(2) -0.186(7) 0.402(2)
H2 H 0.831(4) 0.025(6) 0.451(4)
H3 H 0.849(3) 0.312(6) 0.353(2)
H4 H 0.693(3) 0.310(7) 0.250(2)
H5 H 0.393(3) 0.070(8) 0.477(2)
H6 H 0.486(2) 0.235(7) 0.518(2)
H7 H 0.482(5) -0.466(8) 0.279(4)
C5D C 0.5314(2) -0.1093(4) 0.51776(13)
C4D C 0.51562(16) -0.1765(4) 0.59765(11)
O1D O 0.5391(2) -0.0110(3) 0.64995(16)
O2D O 0.48260(18) -0.3743(3) 0.60798(11)
H5D H 0.607(3) -0.070(8) 0.523(2)
H6D H 0.514(2) -0.235(7) 0.482(2)
H7F H 0.518(5) -0.466(8) 0.221(4)
N1F N 0.35514(18) 0.0494(5) 0.19173(14)
C1F C 0.3048(2) -0.0507(7) 0.12000(19)
C2F C 0.2117(2) 0.0486(7) 0.0943(2)
N2F N 0.20479(15) 0.2122(4) 0.15072(12)
C3F C 0.29230(17) 0.2073(5) 0.20771(14)
H1F H 0.336(2) -0.186(7) 0.098(2)
H2F H 0.169(4) 0.025(6) 0.049(4)
H3F H 0.151(3) 0.312(6) 0.147(2)
H4F H 0.307(3) 0.310(7) 0.250(2)
O1F O 0.5391(2) 0.0110(3) 0.14995(16)
Cu1B Cu 0.5000 -0.00862(5) 0.7500
loop_
_geom_bond_atom_site_label_1
_geom_bond_atom_site_label_2
_geom_bond_site_symmetry_1
_geom_bond_site_symmetry_2
Cu1 N1 1_555 1_555
N1 C1 1_555 1_555
C1 C2 1_555 1_555
C2 N2 1_555 1_555
N2 C3 1_555 1_555
C3 N1 1_555 1_555
O1 Cu1 1_555 1_555
O2 C4 1_555 1_555
C4 O1 1_555 1_555
C5 C4 1_555 1_555
O3 Cu1 1_555 1_555
H1 C1 1_555 1_555
H2 C2 1_555 1_555
H3 N2 1_555 1_555
H4 C3 1_555 1_555
H5 C5 1_555 1_555
H6 C5 1_555 1_555
H7 O3 1_555 1_555
C5D C5 1_555 1_555
C4D C5D 1_555 1_555
O1D C4D 1_555 1_555
O2D C4D 1_555 1_555
H5D C5D 1_555 1_555
H6D C5D 1_555 1_555
H7F O3 1_555 1_555
N1F Cu1 1_555 1_555
C1F N1F 1_555 1_555
C2F C1F 1_555 1_555
N2F C2F 1_555 1_555
C3F N1F 1_555 1_555
H1F C1F 1_555 1_555
H2F C2F 1_555 1_555
H3F N2F 1_555 1_555
H4F C3F 1_555 1_555
O1F Cu1 1_555 1_555
Cu1B O1D 1_555 1_555
N2F C3F 1_555 1_555

#END
