
#######################################################################
#
#                 Cambridge Crystallographic Data Centre
#                                CCDC 
#
#######################################################################
#
# If this CIF has been generated from an entry in the Cambridge 
# Structural Database, then it will include bibliographic, chemical, 
# crystal, experimental, refinement or atomic coordinate data resulting 
# from the CCDC's data processing and validation procedures.
#
#######################################################################

data_WUZQIS
_symmetry_cell_setting           monoclinic
_symmetry_space_group_name_H-M   'P 21/c'
_symmetry_Int_Tables_number      14
_space_group_name_Hall           '-P 2ybc'
loop_
_symmetry_equiv_pos_site_id
_symmetry_equiv_pos_as_xyz
1 x,y,z
2 -x,1/2+y,1/2-z
3 -x,-y,-z
4 x,1/2-y,1/2+z
_cell_length_a                   21.344(2)
_cell_length_b                   5.4355(6)
_cell_length_c                   17.0443(19)
_cell_angle_alpha                90
_cell_angle_beta                 113.197(3)
_cell_angle_gamma                90
_cell_volume                     1817.54
loop_
_atom_site_label
_atom_site_type_symbol
_atom_site_fract_x
_atom_site_fract_y
_atom_site_fract_z
C1 C 0.88109(14) 0.9654(6) 0.07883(18)
C2 C 0.93114(16) 0.8403(6) 0.1438(2)
H1 H 0.9193 0.7117 0.1713
C3 C 0.99925(17) 0.9053(6) 0.1685(2)
H2 H 1.0330 0.8194 0.2119
C4 C 1.01611(17) 1.0949(7) 0.1288(2)
H3 H 1.0616 1.1393 0.1455
C5 C 0.96646(17) 1.2224(7) 0.0641(2)
H4 H 0.9787 1.3524 0.0375
C6 C 0.89838(16) 1.1585(6) 0.0382(2)
C7 C 0.86016(17) 1.4570(6) -0.0755(2)
H5 H 0.8928 1.3942 -0.0972
H6 H 0.8799 1.5997 -0.0403
C8 C 0.79545(17) 1.5270(7) -0.1480(2)
H7 H 0.8051 1.6452 -0.1843
H8 H 0.7752 1.3826 -0.1819
C9 C 0.68189(17) 1.6814(6) -0.1820(2)
H9 H 0.6471 1.6440 -0.1606
H10 H 0.6747 1.5746 -0.2304
C10 C 0.67489(19) 1.9400(6) -0.2104(2)
H11 H 0.7122 1.9829 -0.2268
H12 H 0.6326 1.9605 -0.2600
C11 C 0.62306(15) 2.2697(6) -0.05802(19)
C12 C 0.56797(17) 2.3070(7) -0.0364(2)
H13 H 0.5723 2.4089 0.0093
C13 C 0.50630(18) 2.1935(8) -0.0823(3)
H14 H 0.4693 2.2177 -0.0674
C14 C 0.50021(17) 2.0449(8) -0.1500(3)
H15 H 0.4590 1.9666 -0.1804
C15 C 0.55434(17) 2.0103(7) -0.1736(2)
H16 H 0.5492 1.9127 -0.2205
C16 C 0.61635(16) 2.1213(6) -0.1272(2)
N1 N 0.81053(12) 0.8996(4) 0.05343(16)
H17 H 0.7993 0.7813 0.0789
H18 H 0.7796 0.9785 0.0128
N2 N 0.68885(12) 2.3696(4) -0.00686(15)
H19 H 0.6943 2.4542 0.0380
H20 H 0.7228 2.3450 -0.0211
O1 O 0.84472(11) 1.2707(4) -0.02572(15)
O2 O 0.74860(11) 1.6322(4) -0.11570(13)
O3 O 0.67523(11) 2.1026(4) -0.14274(15)
Cl1 Cl 0.67609(4) 0.86765(15) 0.10751(5)
Cl2 Cl 0.81725(4) 1.37985(15) 0.19377(5)
Zn1 Zn 0.749655(17) 1.13475(6) 0.09062(2)
N2_2 N 0.68885(12) 1.3696(4) -0.00686(15)
H19_2 H 0.6943 1.4542 0.0380
H20_2 H 0.7228 1.3450 -0.0211
Zn1_2 Zn 0.749655(17) 2.13475(6) 0.09062(2)
loop_
_geom_bond_atom_site_label_1
_geom_bond_atom_site_label_2
_geom_bond_site_symmetry_1
_geom_bond_site_symmetry_2
C1 C2 1_555 1_555
C2 H1 1_555 1_555
C3 C2 1_555 1_555
H2 C3 1_555 1_555
C4 C3 1_555 1_555
H3 C4 1_555 1_555
C5 C4 1_555 1_555
H4 C5 1_555 1_555
C6 C1 1_555 1_555
C7 H5 1_555 1_555
H6 C7 1_555 1_555
C8 C7 1_555 1_555
H7 C8 1_555 1_555
H8 C8 1_555 1_555
C9 H9 1_555 1_555
H10 C9 1_555 1_555
C10 C9 1_555 1_555
H11 C10 1_555 1_555
H12 C10 1_555 1_555
C11 C12 1_555 1_555
C12 H13 1_555 1_555
C13 C12 1_555 1_555
H14 C13 1_555 1_555
C14 C13 1_555 1_555
H15 C14 1_555 1_555
C15 C14 1_555 1_555
H16 C15 1_555 1_555
C16 C11 1_555 1_555
N1 C1 1_555 1_555
H17 N1 1_555 1_555
H18 N1 1_555 1_555
N2 C11 1_555 1_555
H19 N2 1_555 1_555
H20 N2 1_555 1_555
O1 C6 1_555 1_555
O2 C8 1_555 1_555
O3 C10 1_555 1_555
Cl1 Zn1 1_555 1_555
Cl2 Zn1 1_555 1_555
Zn1 N1 1_555 1_555
N2_2 Zn1 1_555 1_555
H19_2 N2_2 1_555 1_555
H20_2 N2_2 1_555 1_555
Zn1_2 N2 1_555 1_555
C5 C6 1_555 1_555
C7 O1 1_555 1_555
C9 O2 1_555 1_555
C15 C16 1_555 1_555
C16 O3 1_555 1_555

#END
