
#######################################################################
#
#                 Cambridge Crystallographic Data Centre
#                                CCDC 
#
#######################################################################
#
# If this CIF has been generated from an entry in the Cambridge 
# Structural Database, then it will include bibliographic, chemical, 
# crystal, experimental, refinement or atomic coordinate data resulting 
# from the CCDC's data processing and validation procedures.
#
#######################################################################

data_WUZTUH
_symmetry_cell_setting           triclinic
_symmetry_space_group_name_H-M   'P -1'
_symmetry_Int_Tables_number      2
_space_group_name_Hall           '-P 1'
loop_
_symmetry_equiv_pos_site_id
_symmetry_equiv_pos_as_xyz
1 x,y,z
2 -x,-y,-z
_cell_length_a                   9.4296(10)
_cell_length_b                   10.7002(11)
_cell_length_c                   12.2874(13)
_cell_angle_alpha                86.186(2)
_cell_angle_beta                 81.556(2)
_cell_angle_gamma                86.561(2)
_cell_volume                     1222.04
loop_
_atom_site_label
_atom_site_type_symbol
_atom_site_fract_x
_atom_site_fract_y
_atom_site_fract_z
Eu1 Eu 1.57076(2) 1.348310(10) -0.351690(10)
Cu1 Cu 0.95704(4) 0.81387(4) 0.11987(3)
Cu2 Cu 1.50000 1.00000 0.00000
O1 O 1.1188(3) 0.8879(2) 0.0288(2)
O2 O 1.2474(3) 1.0583(2) 0.0150(2)
O3 O 1.1716(3) 1.3256(3) 0.3467(2)
O4 O 0.9778(3) 1.2972(3) 0.4696(3)
O5 O 1.2216(2) 1.2480(2) -0.19845(19)
O6 O 1.3969(2) 1.3742(2) -0.18098(19)
O7 O 1.0882(3) 1.6635(2) 0.2196(2)
O8 O 1.3149(3) 1.5865(2) 0.2057(2)
O9 O 1.5336(3) 1.1177(2) -0.13010(19)
O10 O 1.5037(3) 1.1358(2) -0.30699(19)
O11 O 1.3895(3) 0.7209(2) -0.46529(19)
O12 O 1.4790(3) 0.5533(2) -0.3775(2)
O13 O 1.3353(3) 1.3298(3) -0.4101(2)
O14 O 1.7895(3) 1.2127(2) -0.3621(2)
O15 O 1.7689(3) 1.4793(2) -0.4481(2)
N1 N 0.9735(3) 0.9489(3) 0.2186(2)
N2 N 1.0738(3) 1.3055(3) -0.0108(2)
N3 N 1.4749(3) 0.8802(3) -0.1097(2)
C1 C 1.0834(3) 1.0218(3) 0.1776(3)
C2 C 1.1182(4) 1.1211(3) 0.2322(3)
C3 C 1.0356(4) 1.1510(3) 0.3314(3)
C4 C 0.9205(4) 1.0771(4) 0.3712(3)
C5 C 0.8936(4) 0.9764(4) 0.3138(3)
C6 C 1.1590(4) 0.9878(3) 0.0650(3)
C7 C 1.0646(4) 1.2678(4) 0.3881(3)
C8 C 0.9856(4) 1.3380(3) 0.0799(3)
C9 C 1.0190(4) 1.4295(3) 0.1443(3)
C10 C 1.1511(4) 1.4835(3) 0.1200(3)
C11 C 1.2450(3) 1.4447(3) 0.0287(3)
C12 C 1.2009(3) 1.3591(3) -0.0364(3)
C13 C 1.2824(3) 1.3236(3) -0.1467(3)
C14 C 1.1878(4) 1.5861(3) 0.1875(3)
C15 C 1.4789(3) 0.9361(3) -0.2116(3)
C16 C 1.4629(4) 0.8712(3) -0.3016(3)
C17 C 1.4471(4) 0.7427(3) -0.2868(3)
C18 C 1.4458(4) 0.6855(3) -0.1819(3)
C19 C 1.4564(4) 0.7580(3) -0.0948(3)
C20 C 1.5063(3) 1.0751(3) -0.2176(3)
C21 C 1.4380(4) 0.6657(3) -0.3837(3)
H1 H 1.19630 1.16800 0.20320
H2 H 0.86180 1.09550 0.43650
H3 H 0.81780 0.92660 0.34220
H4 H 0.90000 1.29790 0.09970
H5 H 0.95340 1.45500 0.20380
H6 H 1.33600 1.47600 0.01220
H7 H 1.28170 1.29990 -0.35740
H8 H 1.29640 1.39040 -0.44030
H9 H 1.83310 1.23700 -0.31500
H10 H 1.84480 1.22310 -0.41960
H11 H 1.80320 1.53410 -0.41800
H12 H 1.84370 1.44780 -0.48000
H13 H 1.46260 0.91230 -0.37070
H14 H 1.43800 0.59920 -0.17040
H15 H 1.45030 0.72020 -0.02400
Eu1A Eu 1.42924(2) 0.651690(10) 0.351690(10)
Eu1A_2 Eu 1.42924(2) 1.651690(10) 0.351690(10)
Eu1A_3 Eu 1.42924(2) 0.651690(10) -0.648310(10)
Eu1_2 Eu 1.57076(2) 0.348310(10) -0.351690(10)
Eu1_3 Eu 1.57076(2) 1.348310(10) 0.648310(10)
Cu1A Cu 2.04296(4) 1.18613(4) -0.11987(3)
Cu1A_2 Cu 1.04296(4) 1.18613(4) -0.11987(3)
Cu1_2 Cu 0.95704(4) 1.81387(4) 0.11987(3)
Cu1_3 Cu 1.95704(4) 1.81387(4) 0.11987(3)
O1A O 1.8812(3) 1.1121(2) -0.0288(2)
O2A O 1.7526(3) 0.9417(2) -0.0150(2)
O3A O 1.8284(3) 0.6744(3) -0.3467(2)
O4A O 2.0222(3) 0.7028(3) -0.4696(3)
O5A O 1.7784(2) 1.7520(2) 0.19845(19)
O5A_2 O 0.7784(2) 0.7520(2) 0.19845(19)
O5_2 O 2.2216(2) 1.2480(2) -0.19845(19)
O6A O 1.6031(2) 1.6258(2) 0.18098(19)
O6A_2 O 1.6031(2) 0.6258(2) 0.18098(19)
O7A O 1.9118(3) 1.3365(2) -0.2196(2)
O7_2 O 1.0882(3) 0.6635(2) 0.2196(2)
O8A O 1.6851(3) 1.4135(2) -0.2057(2)
O8_2 O 1.3149(3) 0.5865(2) 0.2057(2)
O9A O 1.4664(3) 0.8823(2) 0.13010(19)
O10A O 1.4963(3) 0.8642(2) 0.30699(19)
O11A O 1.6105(3) 1.2791(2) 0.46529(19)
O11A_2 O 1.6105(3) 1.2791(2) -0.53471(19)
O11_2 O 1.3895(3) 0.7209(2) 0.53471(19)
O12A O 1.5210(3) 1.4467(2) 0.3775(2)
O12_2 O 1.4790(3) 1.5533(2) -0.3775(2)
O12A_2 O 1.5210(3) 0.4467(2) 0.3775(2)
O13A O 1.6647(3) 0.6702(3) 0.4101(2)
O14A O 1.2105(3) 0.7873(2) 0.3621(2)
O15A O 1.2311(3) 0.5207(2) 0.4481(2)
N1A N 2.0265(3) 1.0511(3) -0.2186(2)
N2A N 1.9262(3) 1.6945(3) 0.0108(2)
N2A_2 N 0.9262(3) 0.6945(3) 0.0108(2)
N2_2 N 2.0738(3) 1.3055(3) -0.0108(2)
N3A N 1.5251(3) 1.1198(3) 0.1097(2)
C1A C 1.9166(3) 0.9782(3) -0.1776(3)
C2A C 1.8818(4) 0.8789(3) -0.2322(3)
C3A C 1.9644(4) 0.8490(3) -0.3314(3)
C4A C 2.0795(4) 0.9229(4) -0.3712(3)
C5A C 2.1064(4) 1.0236(4) -0.3138(3)
C6A C 1.8410(4) 1.0122(3) -0.0650(3)
C7A C 1.9354(4) 0.7322(4) -0.3881(3)
C8A C 2.0144(4) 1.6620(3) -0.0799(3)
C9A C 1.9810(4) 1.5705(3) -0.1443(3)
C10A C 1.8489(4) 1.5165(3) -0.1200(3)
C11A C 1.7550(3) 1.5553(3) -0.0287(3)
C12A C 1.7991(3) 1.6409(3) 0.0364(3)
C13A C 1.7176(3) 1.6764(3) 0.1467(3)
C14A C 1.8122(4) 1.4139(3) -0.1875(3)
C15A C 1.5211(3) 1.0639(3) 0.2116(3)
C16A C 1.5371(4) 1.1288(3) 0.3016(3)
C17A C 1.5529(4) 1.2573(3) 0.2868(3)
C18A C 1.5542(4) 1.3145(3) 0.1819(3)
C19A C 1.5436(4) 1.2420(3) 0.0948(3)
C20A C 1.4937(3) 0.9249(3) 0.2176(3)
C21A C 1.5620(4) 1.3343(3) 0.3837(3)
H1A H 1.80370 0.83200 -0.20320
H2A H 2.13820 0.90450 -0.43650
H3A H 2.18220 1.07340 -0.34220
H4A H 2.10000 1.70210 -0.09970
H5A H 2.04660 1.54500 -0.20380
H6A H 1.66400 1.52400 -0.01220
H7A H 1.71830 0.70010 0.35740
H8A H 1.70360 0.60960 0.44030
H9A H 1.16690 0.76300 0.31500
H10A H 1.15520 0.77690 0.41960
H11A H 1.19680 0.46590 0.41800
H12A H 1.15630 0.55220 0.48000
H13A H 1.53740 1.08770 0.37070
H14A H 1.56200 1.40080 0.17040
H15A H 1.54970 1.27980 0.02400
loop_
_geom_bond_atom_site_label_1
_geom_bond_atom_site_label_2
_geom_bond_site_symmetry_1
_geom_bond_site_symmetry_2
Eu1 O6 1_555 1_555
Cu1 O1 1_555 1_555
Cu2 O2 1_555 1_555
O1 C6 1_555 1_555
O2 C6 1_555 1_555
O3 C7 1_555 1_555
O4 C7 1_555 1_555
O5 C13 1_555 1_555
O6 C13 1_555 1_555
O7 C14 1_555 1_555
O8 C14 1_555 1_555
O9 Cu2 1_555 1_555
O10 Eu1 1_555 1_555
O11 C21 1_555 1_555
O12 C21 1_555 1_555
O13 Eu1 1_555 1_555
O14 Eu1 1_555 1_555
O15 Eu1 1_555 1_555
N1 Cu1 1_555 1_555
N2 C8 1_555 1_555
N3 Cu2 1_555 1_555
C1 N1 1_555 1_555
C2 C1 1_555 1_555
C3 C2 1_555 1_555
C4 C3 1_555 1_555
C5 N1 1_555 1_555
C6 C1 1_555 1_555
C7 C3 1_555 1_555
C8 C9 1_555 1_555
C9 C10 1_555 1_555
C10 C11 1_555 1_555
C11 C12 1_555 1_555
C12 N2 1_555 1_555
C13 C12 1_555 1_555
C14 C10 1_555 1_555
C15 N3 1_555 1_555
C16 C15 1_555 1_555
C17 C16 1_555 1_555
C18 C17 1_555 1_555
C19 N3 1_555 1_555
C20 O9 1_555 1_555
C21 C17 1_555 1_555
H1 C2 1_555 1_555
H2 C4 1_555 1_555
H3 C5 1_555 1_555
H4 C8 1_555 1_555
H5 C9 1_555 1_555
H6 C11 1_555 1_555
H7 O13 1_555 1_555
H8 O13 1_555 1_555
H9 O14 1_555 1_555
H10 O14 1_555 1_555
H11 O15 1_555 1_555
H12 O15 1_555 1_555
H13 C16 1_555 1_555
H14 C18 1_555 1_555
H15 C19 1_555 1_555
Eu1A O6A_2 1_555 1_555
Eu1A_2 O8 1_555 1_555
Eu1A_3 O11 1_555 1_555
Eu1_2 O12 1_555 1_555
Eu1_3 O11A 1_555 1_555
Cu1A O1A 1_555 1_555
Cu1A_2 O5 1_555 1_555
Cu1_2 O7 1_555 1_555
Cu1_3 O5A 1_555 1_555
O1A C6A 1_555 1_555
O2A Cu2 1_555 1_555
O3A C7A 1_555 1_555
O4A C7A 1_555 1_555
O5A C13A 1_555 1_555
O5A_2 Cu1 1_555 1_555
O5_2 Cu1A 1_555 1_555
O6A Eu1A_2 1_555 1_555
O7A Cu1A 1_555 1_555
O7_2 Cu1 1_555 1_555
O8A Eu1 1_555 1_555
O8_2 Eu1A 1_555 1_555
O9A Cu2 1_555 1_555
O10A Eu1A 1_555 1_555
O11A C21A 1_555 1_555
O11A_2 Eu1 1_555 1_555
O11_2 Eu1A 1_555 1_555
O12A Eu1A_2 1_555 1_555
O12_2 Eu1 1_555 1_555
O12A_2 Eu1A 1_555 1_555
O13A Eu1A 1_555 1_555
O14A Eu1A 1_555 1_555
O15A Eu1A 1_555 1_555
N1A Cu1A 1_555 1_555
N2A Cu1_3 1_555 1_555
N2A_2 Cu1 1_555 1_555
N2_2 Cu1A 1_555 1_555
N3A Cu2 1_555 1_555
C1A N1A 1_555 1_555
C2A C1A 1_555 1_555
C3A C2A 1_555 1_555
C4A C3A 1_555 1_555
C5A N1A 1_555 1_555
C6A O2A 1_555 1_555
C7A C3A 1_555 1_555
C8A N2A 1_555 1_555
C9A C8A 1_555 1_555
C10A C9A 1_555 1_555
C11A C10A 1_555 1_555
C12A N2A 1_555 1_555
C13A O6A 1_555 1_555
C14A O7A 1_555 1_555
C15A N3A 1_555 1_555
C16A C15A 1_555 1_555
C17A C16A 1_555 1_555
C18A C17A 1_555 1_555
C19A N3A 1_555 1_555
C20A O9A 1_555 1_555
C21A O12A 1_555 1_555
H1A C2A 1_555 1_555
H2A C4A 1_555 1_555
H3A C5A 1_555 1_555
H4A C8A 1_555 1_555
H5A C9A 1_555 1_555
H6A C11A 1_555 1_555
H7A O13A 1_555 1_555
H8A O13A 1_555 1_555
H9A O14A 1_555 1_555
H10A O14A 1_555 1_555
H11A O15A 1_555 1_555
H12A O15A 1_555 1_555
H13A C16A 1_555 1_555
H14A C18A 1_555 1_555
H15A C19A 1_555 1_555
O10 C20 1_555 1_555
N2 Cu1A_2 1_555 1_555
C4 C5 1_555 1_555
C15 C20 1_555 1_555
C18 C19 1_555 1_555
O8A C14A 1_555 1_555
O10A C20A 1_555 1_555
C1A C6A 1_555 1_555
C4A C5A 1_555 1_555
C10A C14A 1_555 1_555
C11A C12A 1_555 1_555
C12A C13A 1_555 1_555
C15A C20A 1_555 1_555
C17A C21A 1_555 1_555
C18A C19A 1_555 1_555

#END
