
#######################################################################
#
#                 Cambridge Crystallographic Data Centre
#                                CCDC 
#
#######################################################################
#
# If this CIF has been generated from an entry in the Cambridge 
# Structural Database, then it will include bibliographic, chemical, 
# crystal, experimental, refinement or atomic coordinate data resulting 
# from the CCDC's data processing and validation procedures.
#
#######################################################################

data_WUZXAR
_symmetry_cell_setting           monoclinic
_symmetry_space_group_name_H-M   'C 2/c'
_symmetry_Int_Tables_number      15
_space_group_name_Hall           '-C 2yn'
loop_
_symmetry_equiv_pos_site_id
_symmetry_equiv_pos_as_xyz
1 x,y,z
2 -x,y,1/2-z
3 1/2+x,1/2+y,z
4 1/2-x,1/2+y,1/2-z
5 -x,-y,-z
6 x,-y,1/2+z
7 1/2-x,1/2-y,-z
8 1/2+x,1/2-y,1/2+z
_cell_length_a                   12.1858(9)
_cell_length_b                   10.9733(8)
_cell_length_c                   12.4916(9)
_cell_angle_alpha                90
_cell_angle_beta                 90.2270(10)
_cell_angle_gamma                90
_cell_volume                     1670.34
loop_
_atom_site_label
_atom_site_type_symbol
_atom_site_fract_x
_atom_site_fract_y
_atom_site_fract_z
Cd1 Cd 0.7500 0.2500 -0.5000
O1 O 0.89113(16) 0.15806(16) -0.40281(15)
O2 O 0.84578(17) 0.42943(19) -0.50971(16)
N1 N 0.67660(17) 0.3123(2) -0.34004(15)
N2 N 0.6334(2) 0.4261(2) -0.19781(18)
N3 N 0.62891(16) 0.3054(2) -0.17182(16)
C1 C 0.6625(2) 0.4237(3) -0.2994(2)
H1 H 0.6724 0.4941 -0.3396
C2 C 0.6544(3) 0.2389(2) -0.2566(2)
H2 H 0.6567 0.1542 -0.2583
C3 C 0.6028(2) 0.2655(2) -0.0628(2)
H3 H 0.5390 0.3098 -0.0376
H4 H 0.5846 0.1795 -0.0638
C4 C 0.6988(2) 0.2868(3) 0.0145(2)
H5 H 0.7172 0.3728 0.0147
H6 H 0.6761 0.2650 0.0864
H7 H 0.921(3) 0.204(3) -0.358(2)
H8 H 0.881(3) 0.0853(14) -0.385(3)
H9 H 0.884(3) 0.444(4) -0.455(2)
H10 H 0.882(3) 0.460(4) -0.560(2)
Cd1_2 Cd 0.7500 0.2500 0.5000
O1F O 0.60887(16) 0.34194(16) -0.59719(15)
O2F O 0.65422(17) 0.07057(19) -0.49029(16)
N1F N 0.82340(17) 0.1877(2) 0.34004(15)
N1F_2 N 0.82340(17) 0.1877(2) -0.65996(15)
N2F N 0.8666(2) 0.0739(2) 0.19781(18)
N3F N 0.87109(16) 0.1946(2) 0.17182(16)
C1F C 0.8375(2) 0.0763(3) 0.2994(2)
H1F H 0.8276 0.0059 0.3396
C2F C 0.8456(3) 0.2611(2) 0.2566(2)
H2F H 0.8433 0.3458 0.2583
C3F C 0.8972(2) 0.2345(2) 0.0628(2)
H3F H 0.9610 0.1902 0.0376
H4F H 0.9154 0.3205 0.0638
C4F C 0.8012(2) 0.2132(3) -0.0145(2)
H5F H 0.7828 0.1272 -0.0147
H6F H 0.8239 0.2350 -0.0864
H7F H 0.579(3) 0.296(3) -0.642(2)
H8F H 0.619(3) 0.4147(14) -0.615(3)
H9F H 0.616(3) 0.056(4) -0.545(2)
H10F H 0.618(3) 0.040(4) -0.440(2)
S1 S 0.5000 0.07764(7) 0.2500
O3 O 0.5016(3) 0.0222(4) 0.3542(3)
O4 O 0.4146(3) 0.0243(4) 0.1823(3)
O3A O 0.4984(3) 0.0222(4) 0.1458(3)
O4A O 0.5854(3) 0.0243(4) 0.3177(3)
O5? O 0.4869(9) 0.2093(3) 0.2565(9)
O6? O 0.6087(3) 0.0513(4) 0.1970(3)
loop_
_geom_bond_atom_site_label_1
_geom_bond_atom_site_label_2
_geom_bond_site_symmetry_1
_geom_bond_site_symmetry_2
Cd1 O1 1_555 1_555
O1 H7 1_555 1_555
O2 Cd1 1_555 1_555
N1 Cd1 1_555 1_555
N2 N3 1_555 1_555
N3 C2 1_555 1_555
C1 N1 1_555 1_555
H1 C1 1_555 1_555
C2 N1 1_555 1_555
H2 C2 1_555 1_555
C3 N3 1_555 1_555
H3 C3 1_555 1_555
H4 C3 1_555 1_555
C4 C3 1_555 1_555
H5 C4 1_555 1_555
H6 C4 1_555 1_555
H8 O1 1_555 1_555
H9 O2 1_555 1_555
H10 O2 1_555 1_555
S1 O3 1_555 1_555
O4 S1 1_555 1_555
Cd1_2 N1F 1_555 1_555
O1F Cd1 1_555 1_555
O2F Cd1 1_555 1_555
N1F C1F 1_555 1_555
N1F_2 Cd1 1_555 1_555
N2F N3F 1_555 1_555
N3F C2F 1_555 1_555
C1F N2F 1_555 1_555
H1F C1F 1_555 1_555
C2F N1F 1_555 1_555
H2F C2F 1_555 1_555
C3F N3F 1_555 1_555
H3F C3F 1_555 1_555
H4F C3F 1_555 1_555
C4F C4 1_555 1_555
H5F C4F 1_555 1_555
H6F C4F 1_555 1_555
H7F O1F 1_555 1_555
H8F O1F 1_555 1_555
H9F O2F 1_555 1_555
H10F O2F 1_555 1_555
O3A S1 1_555 1_555
O4A S1 1_555 1_555
N2 C1 1_555 1_555
C3F C4F 1_555 1_555

#END
