
#######################################################################
#
#                 Cambridge Crystallographic Data Centre
#                                CCDC 
#
#######################################################################
#
# If this CIF has been generated from an entry in the Cambridge 
# Structural Database, then it will include bibliographic, chemical, 
# crystal, experimental, refinement or atomic coordinate data resulting 
# from the CCDC's data processing and validation procedures.
#
#######################################################################

data_WUZYUM
_symmetry_cell_setting           orthorhombic
_symmetry_space_group_name_H-M   'I m m a'
_symmetry_Int_Tables_number      74
_space_group_name_Hall           '-I 2b 2'
loop_
_symmetry_equiv_pos_site_id
_symmetry_equiv_pos_as_xyz
1 x,y,z
2 -x,1/2-y,z
3 -x,1/2+y,-z
4 x,-y,-z
5 1/2+x,1/2+y,1/2+z
6 1/2-x,-y,1/2+z
7 1/2-x,y,1/2-z
8 1/2+x,1/2-y,1/2-z
9 -x,-y,-z
10 x,1/2+y,-z
11 x,1/2-y,z
12 -x,y,z
13 1/2-x,1/2-y,1/2-z
14 1/2+x,y,1/2-z
15 1/2+x,-y,1/2+z
16 1/2-x,1/2+y,1/2+z
_cell_length_a                   16.815(3)
_cell_length_b                   6.5938(13)
_cell_length_c                   8.8587(18)
_cell_angle_alpha                90
_cell_angle_beta                 90
_cell_angle_gamma                90
_cell_volume                     982.206
loop_
_atom_site_label
_atom_site_type_symbol
_atom_site_fract_x
_atom_site_fract_y
_atom_site_fract_z
C1 C 0.5000 0.2500 0.7898(3)
C2 C 0.42785(10) 0.2500 1.02887(18)
C3 C 0.5000 0.2500 1.1064(3)
H1 H 0.5000 0.2500 1.2113
Cl1 Cl 0.2500 0.2500 0.7500
N1 N 0.43218(8) 0.2500 0.87105(16)
H2 H 0.3881 0.2500 0.8220
Na1 Na 0.25570(4) 0.5000 1.0000
O1 O 0.35874(7) 0.2500 1.08459(14)
O2 O 0.16839(8) 0.2500 1.10168(15)
H3 H 0.1533 0.2500 1.1978
H4 H 0.1232 0.2500 1.0538
S1 S 0.5000 0.2500 0.60136(8)
C2A C 0.57215(10) 0.2500 1.02887(18)
Cl1C Cl 0.2500 0.7500 1.2500
Cl1A Cl 0.7500 0.2500 0.7500
Cl1B Cl 0.7500 -0.2500 1.2500
N1A N 0.56782(8) 0.2500 0.87105(16)
H2A H 0.6119 0.2500 0.8220
Na1A Na 0.74430(4) 0.0000 1.0000
Na1I Na 0.25570(4) 0.0000 1.0000
Na1E Na 0.24430(4) 0.5000 0.5000
Na1L Na 0.24430(4) 0.0000 0.5000
Na1H Na 0.74430(4) 0.5000 1.0000
Na1I_2 Na 0.25570(4) 1.0000 1.0000
O1A O 0.64126(7) 0.2500 1.08459(14)
O1C O 0.35874(7) 0.7500 0.91541(14)
O1B O 0.64126(7) -0.2500 0.91541(14)
O2C O 0.16839(8) 0.7500 0.89832(15)
O2A O 0.83161(8) 0.2500 1.10168(15)
O2B O 0.83161(8) -0.2500 0.89832(15)
H3C H 0.1533 0.7500 0.8022
H3A H 0.8467 0.2500 1.1978
H3B H 0.8467 -0.2500 0.8022
H4C H 0.1232 0.7500 0.9462
H4A H 0.8768 0.2500 1.0538
H4B H 0.8768 -0.2500 0.9462
loop_
_geom_bond_atom_site_label_1
_geom_bond_atom_site_label_2
_geom_bond_site_symmetry_1
_geom_bond_site_symmetry_2
C1 N1 1_555 1_555
C2 C3 1_555 1_555
C3 H1 1_555 1_555
Cl1 Na1 1_555 1_555
N1 C2 1_555 1_555
H2 N1 1_555 1_555
Na1 O1 1_555 1_555
O1 C2 1_555 1_555
O2 Na1 1_555 1_555
H3 O2 1_555 1_555
H4 O2 1_555 1_555
S1 C1 1_555 1_555
C2A C3 1_555 1_555
Cl1C Na1 1_555 1_555
Cl1A Na1A 1_555 1_555
Cl1B Na1A 1_555 1_555
N1A C1 1_555 1_555
H2A N1A 1_555 1_555
Na1A O1A 1_555 1_555
Na1I Cl1 1_555 1_555
Na1E Cl1 1_555 1_555
Na1L Cl1 1_555 1_555
Na1H Cl1A 1_555 1_555
Na1I_2 Cl1C 1_555 1_555
O1A C2A 1_555 1_555
O1C Na1 1_555 1_555
O1B Na1A 1_555 1_555
O2C Na1 1_555 1_555
O2A Na1A 1_555 1_555
O2B Na1A 1_555 1_555
H3C O2C 1_555 1_555
H3A O2A 1_555 1_555
H3B O2B 1_555 1_555
H4C O2C 1_555 1_555
H4A O2A 1_555 1_555
H4B O2B 1_555 1_555
O1 Na1I 1_555 1_555
O2 Na1I 1_555 1_555
C2A N1A 1_555 1_555
Na1H O1A 1_555 1_555
Na1H O2A 1_555 1_555
Na1I_2 O1C 1_555 1_555
Na1I_2 O2C 1_555 1_555

#END
