
#######################################################################
#
#                 Cambridge Crystallographic Data Centre
#                                CCDC 
#
#######################################################################
#
# If this CIF has been generated from an entry in the Cambridge 
# Structural Database, then it will include bibliographic, chemical, 
# crystal, experimental, refinement or atomic coordinate data resulting 
# from the CCDC's data processing and validation procedures.
#
#######################################################################

data_WUZZUN
_symmetry_cell_setting           monoclinic
_symmetry_space_group_name_H-M   'P 21/c'
_symmetry_Int_Tables_number      14
_space_group_name_Hall           '-P 2ybc'
loop_
_symmetry_equiv_pos_site_id
_symmetry_equiv_pos_as_xyz
1 x,y,z
2 -x,1/2+y,1/2-z
3 -x,-y,-z
4 x,1/2-y,1/2+z
_cell_length_a                   7.0564(3)
_cell_length_b                   11.8142(4)
_cell_length_c                   28.0008(10)
_cell_angle_alpha                90
_cell_angle_beta                 100.5440(10)
_cell_angle_gamma                90
_cell_volume                     2294.89
loop_
_atom_site_label
_atom_site_type_symbol
_atom_site_fract_x
_atom_site_fract_y
_atom_site_fract_z
Mn1 Mn 0.22688(3) 0.673463(17) 0.267191(7)
C1 C 0.43784(19) 0.86846(12) 0.33374(5)
C2 C 0.53981(19) 0.90349(12) 0.38359(5)
C3 C 0.5765(2) 1.01741(12) 0.39461(5)
H1 H 0.5433 1.0713 0.3703
C4 C 0.5922(2) 0.82195(11) 0.41959(5)
H2 H 0.5704 0.7454 0.4130
C5 C 0.6613(2) 1.05261(12) 0.44092(5)
H3 H 0.6842 1.1290 0.4476
C6 C 0.67736(19) 0.85829(12) 0.46533(5)
C7 C 0.71153(19) 0.97220(11) 0.47712(5)
C8 C 0.79778(19) 0.98999(11) 0.52870(5)
C9 C 0.8502(2) 1.09104(11) 0.55269(5)
H4 H 0.8314 1.1596 0.5362
C10 C 0.8262(2) 0.88924(11) 0.55495(5)
C11 C 0.9316(2) 1.08823(12) 0.60187(5)
H5 H 0.9687 1.1557 0.6180
C12 C 0.90422(19) 0.88466(12) 0.60378(5)
H6 H 0.9199 0.8161 0.6203
C13 C 0.95877(18) 0.98663(11) 0.62747(5)
C14 C 1.05227(19) 0.98394(12) 0.68052(5)
O1 O 0.39522(15) 0.76549(9) 0.32753(4)
O2 O 0.39864(18) 0.94438(10) 0.30224(4)
O3 O 1.05942(16) 0.88879(9) 0.70073(4)
O4 O 1.11941(17) 1.07339(9) 0.70058(4)
O5 O 0.5980(2) 0.71159(11) 0.53019(4)
O6 O 0.92266(19) 0.70701(10) 0.51083(4)
S1 S 0.75616(5) 0.77206(3) 0.516692(12)
C15 C -0.2116(2) 0.65002(14) 0.28938(6)
H7 H -0.2780 0.6571 0.3167
H8 H -0.1888 0.5702 0.2847
C16 C -0.3383(2) 0.69648(15) 0.24442(6)
H9 H -0.3629 0.7761 0.2490
H10 H -0.2730 0.6894 0.2169
O7 O -0.03049(15) 0.70750(10) 0.30054(4)
H11 H -0.052(3) 0.777(2) 0.3005(8)
O8 O -0.51664(16) 0.63629(11) 0.23467(5)
H12 H -0.495(3) 0.5748(15) 0.2233(8)
O9 O 0.1821(2) 0.83273(10) 0.23213(5)
H13 H 0.135(3) 0.854(2) 0.2043(6)
H14 H 0.246(3) 0.8828(18) 0.2484(7)
O10 O 0.24423(19) 0.49977(10) 0.29494(5)
H15 H 0.182(3) 0.474(2) 0.3150(9)
H16 H 0.210(4) 0.463(2) 0.2701(10)
Mn1_2 Mn -0.77312(3) 0.673463(17) 0.267191(7)
Mn1C Mn 1.22688(3) 0.826537(17) 0.767191(7)
O3C O 0.05942(16) 0.61121(9) 0.20073(4)
O8_2 O 0.48336(16) 0.63629(11) 0.23467(5)
C17 C -0.0751(4) 1.0498(2) 0.08416(8)
H17 H -0.1888 1.0591 0.0981
H18 H -0.1115 1.0281 0.0507
H19 H -0.0053 1.1199 0.0863
C18 C 0.0504(3) 0.95932(15) 0.11144(6)
C19 C 0.3395(3) 0.8464(2) 0.12584(8)
H20 H 0.2600 0.7865 0.1344
H21 H 0.4142 0.8782 0.1548
H22 H 0.4244 0.8168 0.1057
C20 C 0.2899(5) 0.9857(2) 0.05873(11)
H23 H 0.2025 1.0437 0.0443
H24 H 0.3005 0.9288 0.0349
H25 H 0.4144 1.0184 0.0703
O11 O -0.0072(2) 0.90934(12) 0.14522(4)
N1 N 0.2175(2) 0.93427(13) 0.09933(6)
loop_
_geom_bond_atom_site_label_1
_geom_bond_atom_site_label_2
_geom_bond_site_symmetry_1
_geom_bond_site_symmetry_2
Mn1 O1 1_555 1_555
C1 C2 1_555 1_555
C2 C3 1_555 1_555
C3 H1 1_555 1_555
C4 C2 1_555 1_555
H2 C4 1_555 1_555
C5 C3 1_555 1_555
H3 C5 1_555 1_555
C6 C4 1_555 1_555
C7 C5 1_555 1_555
C8 C7 1_555 1_555
C9 C8 1_555 1_555
H4 C9 1_555 1_555
C10 C8 1_555 1_555
C11 C9 1_555 1_555
H5 C11 1_555 1_555
C12 C10 1_555 1_555
H6 C12 1_555 1_555
C13 C11 1_555 1_555
C14 C13 1_555 1_555
O1 C1 1_555 1_555
O2 C1 1_555 1_555
O3 C14 1_555 1_555
O4 C14 1_555 1_555
O5 S1 1_555 1_555
O6 S1 1_555 1_555
S1 C6 1_555 1_555
C15 H7 1_555 1_555
H8 C15 1_555 1_555
C16 C15 1_555 1_555
H9 C16 1_555 1_555
H10 C16 1_555 1_555
O7 Mn1 1_555 1_555
H11 O7 1_555 1_555
O8 C16 1_555 1_555
H12 O8 1_555 1_555
O9 Mn1 1_555 1_555
H13 O9 1_555 1_555
H14 O9 1_555 1_555
O10 Mn1 1_555 1_555
H15 O10 1_555 1_555
H16 O10 1_555 1_555
C17 H17 1_555 1_555
H18 C17 1_555 1_555
H19 C17 1_555 1_555
C18 C17 1_555 1_555
C19 H20 1_555 1_555
H21 C19 1_555 1_555
H22 C19 1_555 1_555
C20 H23 1_555 1_555
H24 C20 1_555 1_555
H25 C20 1_555 1_555
O11 C18 1_555 1_555
N1 C18 1_555 1_555
Mn1_2 O8 1_555 1_555
Mn1C O3 1_555 1_555
O3C Mn1 1_555 1_555
O8_2 Mn1 1_555 1_555
C6 C7 1_555 1_555
C10 S1 1_555 1_555
C12 C13 1_555 1_555
C15 O7 1_555 1_555
C19 N1 1_555 1_555
C20 N1 1_555 1_555

#END
