
#######################################################################
#
#                 Cambridge Crystallographic Data Centre
#                                CCDC 
#
#######################################################################
#
# If this CIF has been generated from an entry in the Cambridge 
# Structural Database, then it will include bibliographic, chemical, 
# crystal, experimental, refinement or atomic coordinate data resulting 
# from the CCDC's data processing and validation procedures.
#
#######################################################################

data_XABKIW
_symmetry_cell_setting           triclinic
_symmetry_space_group_name_H-M   'P 1'
_symmetry_Int_Tables_number      1
_space_group_name_Hall           'P 1'
loop_
_symmetry_equiv_pos_site_id
_symmetry_equiv_pos_as_xyz
1 x,y,z
_cell_length_a                   7.8651(8)
_cell_length_b                   10.5092(10)
_cell_length_c                   11.0600(12)
_cell_angle_alpha                116.007(2)
_cell_angle_beta                 93.1130(10)
_cell_angle_gamma                110.4140(10)
_cell_volume                     746.334
loop_
_atom_site_label
_atom_site_type_symbol
_atom_site_fract_x
_atom_site_fract_y
_atom_site_fract_z
Ag1 Ag 0.87560(8) 0.77192(5) 0.56477(5)
N1 N 0.928(4) 0.617(2) 0.379(2)
N2 N 0.908(3) -0.018(2) -0.245(2)
C7 C 0.989(4) 0.508(3) 0.375(2)
H21 H 1.0299 0.5156 0.4598
C8 C 0.992(4) 0.394(3) 0.263(2)
H22 H 1.0289 0.3227 0.2716
C9 C 0.942(3) 0.374(3) 0.126(2)
C10 C 0.891(4) 0.486(3) 0.133(3)
H23 H 0.8496 0.4793 0.0490
C11 C 0.894(4) 0.602(3) 0.245(2)
H24 H 0.8725 0.6796 0.2376
C12 C 0.912(3) -0.016(2) -0.1194(19)
H25 H 0.9055 -0.1037 -0.1153
C13 C 0.923(4) 0.107(3) -0.004(2)
H26 H 0.9212 0.0997 0.0767
C14 C 0.939(4) 0.246(3) 0.002(3)
C15 C 0.926(4) 0.237(3) -0.125(2)
H27 H 0.9275 0.3227 -0.1316
C16 C 0.911(4) 0.109(3) -0.241(2)
H28 H 0.9032 0.1121 -0.3240
Ag1_2 Ag 0.87560(8) -0.22808(5) -0.43523(5)
N2_2 N 0.908(3) 0.982(2) 0.755(2)
Ag2 Ag 0.45880(7) 0.63922(5) 0.38674(5)
N3 N 0.429(3) 0.429(2) 0.201(2)
N4 N 0.404(3) -0.203(2) -0.420(2)
C17 C 0.402(3) 0.291(2) 0.194(2)
H29 H 0.3934 0.2833 0.2744
C18 C 0.386(4) 0.159(3) 0.073(2)
H30 H 0.3654 0.0659 0.0721
C19 C 0.403(3) 0.174(3) -0.050(2)
C20 C 0.414(4) 0.311(3) -0.045(3)
H31 H 0.4124 0.3214 -0.1243
C21 C 0.427(4) 0.435(2) 0.087(2)
H32 H 0.4343 0.5270 0.0909
C22 C 0.355(3) -0.100(3) -0.427(2)
H33 H 0.3261 -0.1087 -0.5133
C23 C 0.342(4) 0.025(3) -0.308(2)
H34 H 0.3023 0.0953 -0.3167
C24 C 0.393(3) 0.037(2) -0.183(2)
C25 C 0.440(4) -0.081(3) -0.175(2)
H35 H 0.4606 -0.0822 -0.0916
C26 C 0.452(4) -0.196(3) -0.303(2)
H36 H 0.4961 -0.2672 -0.3017
Ag2_2 Ag 0.45880(7) -0.36078(5) -0.61326(5)
N4_2 N 0.404(3) 0.797(2) 0.580(2)
O1 O 0.876(3) 0.608(2) 0.6982(19)
O2 O 0.607(3) 0.5237(19) 0.5547(18)
O3 O 0.734(3) -0.106(2) 0.3975(19)
O4 O 0.461(3) -0.195(2) 0.255(2)
C1 C 0.713(4) 0.507(3) 0.632(3)
C2 C 0.640(4) 0.360(3) 0.644(3)
H13 H 0.5038 0.3150 0.6188
H14 H 0.6797 0.3873 0.7399
C3 C 0.707(7) 0.239(4) 0.551(4)
H15 H 0.8430 0.2867 0.5724
H16 H 0.6710 0.1546 0.5729
C4 C 0.630(6) 0.172(4) 0.397(4)
H17 H 0.6680 0.2565 0.3754
H18 H 0.4943 0.1262 0.3765
C5 C 0.695(4) 0.049(3) 0.304(2)
H19 H 0.6503 0.0193 0.2080
H20 H 0.8308 0.0946 0.3260
C6 C 0.627(4) -0.095(2) 0.320(2)
O5 O 0.220(3) 0.357(2) 0.5116(18)
H1 H 0.3359 0.4044 0.5202
H2 H 0.1945 0.4032 0.5885
O6 O 0.113(3) 0.046(2) 0.4432(18)
H3 H 0.1426 0.1404 0.4644
H4 H -0.0050 0.0015 0.4294
O7 O 0.486(3) 0.711(3) 0.971(2)
H5 H 0.4708 0.7360 1.0527
H6 H 0.5906 0.7047 0.9690
O8 O 0.840(3) 0.693(2) 0.9802(19)
H7 H 0.8539 0.6686 0.8985
H8 H 0.9466 0.7512 1.0370
O9 O 0.180(3) 0.894(2) 0.177(2)
H9 H 0.2624 0.8645 0.1941
H10 H 0.1519 0.9401 0.2528
O10 O 0.148(3) 0.516(3) 0.765(2)
H11 H 0.0760 0.5560 0.7533
H12 H 0.2441 0.5870 0.8300
C27? C 0.587(17) 0.210(11) 0.506(10)
C28? C 0.755(15) 0.197(10) 0.445(9)
H37? H 0.5331 0.3542 0.6851
H38? H 0.7384 0.3705 0.7086
H39? H 0.5279 0.1215 0.5194
H40? H 0.4970 0.2057 0.4389
H41? H 0.8428 0.1968 0.5096
H42? H 0.8176 0.2878 0.4343
H43? H 0.5983 0.0470 0.2439
H44? H 0.8016 0.0532 0.2631
loop_
_geom_bond_atom_site_label_1
_geom_bond_atom_site_label_2
_geom_bond_site_symmetry_1
_geom_bond_site_symmetry_2
Ag1 N1 1_555 1_555
Ag2 N3 1_555 1_555
N1 C7 1_555 1_555
N2 C12 1_555 1_555
N3 C17 1_555 1_555
N4 C22 1_555 1_555
O1 C1 1_555 1_555
O2 C1 1_555 1_555
O3 C6 1_555 1_555
O4 C6 1_555 1_555
O5 H1 1_555 1_555
H2 O5 1_555 1_555
O6 H3 1_555 1_555
H4 O6 1_555 1_555
O7 H5 1_555 1_555
H6 O7 1_555 1_555
O8 H7 1_555 1_555
H8 O8 1_555 1_555
O9 H9 1_555 1_555
H10 O9 1_555 1_555
O10 H11 1_555 1_555
H12 O10 1_555 1_555
C1 C2 1_555 1_555
C2 H13 1_555 1_555
H14 C2 1_555 1_555
C3 C2 1_555 1_555
H15 C3 1_555 1_555
H16 C3 1_555 1_555
C4 C3 1_555 1_555
H17 C4 1_555 1_555
H18 C4 1_555 1_555
C5 C4 1_555 1_555
H19 C5 1_555 1_555
H20 C5 1_555 1_555
C6 C5 1_555 1_555
C7 H21 1_555 1_555
C8 C7 1_555 1_555
H22 C8 1_555 1_555
C9 C8 1_555 1_555
C10 C9 1_555 1_555
H23 C10 1_555 1_555
C11 N1 1_555 1_555
H24 C11 1_555 1_555
C12 H25 1_555 1_555
C13 C12 1_555 1_555
H26 C13 1_555 1_555
C14 C9 1_555 1_555
C15 C14 1_555 1_555
H27 C15 1_555 1_555
C16 N2 1_555 1_555
H28 C16 1_555 1_555
C17 H29 1_555 1_555
C18 C17 1_555 1_555
H30 C18 1_555 1_555
C19 C18 1_555 1_555
C20 C19 1_555 1_555
H31 C20 1_555 1_555
C21 N3 1_555 1_555
H32 C21 1_555 1_555
C22 H33 1_555 1_555
C23 C22 1_555 1_555
H34 C23 1_555 1_555
C24 C19 1_555 1_555
C25 C24 1_555 1_555
H35 C25 1_555 1_555
C26 N4 1_555 1_555
H36 C26 1_555 1_555
Ag1_2 N2 1_555 1_555
Ag2_2 N4 1_555 1_555
N2_2 Ag1 1_555 1_555
N4_2 Ag2 1_555 1_555
C10 C11 1_555 1_555
C13 C14 1_555 1_555
C15 C16 1_555 1_555
C20 C21 1_555 1_555
C23 C24 1_555 1_555
C25 C26 1_555 1_555

#END
