
#######################################################################
#
#                 Cambridge Crystallographic Data Centre
#                                CCDC 
#
#######################################################################
#
# If this CIF has been generated from an entry in the Cambridge 
# Structural Database, then it will include bibliographic, chemical, 
# crystal, experimental, refinement or atomic coordinate data resulting 
# from the CCDC's data processing and validation procedures.
#
#######################################################################

data_XABLAP
_symmetry_cell_setting           triclinic
_symmetry_space_group_name_H-M   'P -1'
_symmetry_Int_Tables_number      2
_space_group_name_Hall           '-P 1'
loop_
_symmetry_equiv_pos_site_id
_symmetry_equiv_pos_as_xyz
1 x,y,z
2 -x,-y,-z
_cell_length_a                   9.1720(10)
_cell_length_b                   10.1561(11)
_cell_length_c                   10.4249(12)
_cell_angle_alpha                115.097(2)
_cell_angle_beta                 91.4320(10)
_cell_angle_gamma                98.6580(10)
_cell_volume                     865.105
loop_
_atom_site_label
_atom_site_type_symbol
_atom_site_fract_x
_atom_site_fract_y
_atom_site_fract_z
Ag1 Ag 0.99901(2) 0.53345(3) 0.75757(2)
N1 N 0.8406(2) 0.5051(2) 0.5878(2)
N2 N 0.1615(2) 0.5377(2) -0.0873(2)
O3 O 1.0046(3) 0.8156(2) 0.8921(2)
H1 H 1.0096 0.8538 0.9824
H2 H 0.9970 0.8828 0.8653
C4 C 0.7918(3) 0.6244(3) 0.5912(3)
H13 H 0.8283 0.7154 0.6670
C5 C 0.6913(3) 0.6199(3) 0.4893(3)
H14 H 0.6623 0.7065 0.4968
C6 C 0.6325(3) 0.4857(3) 0.3743(3)
C7 C 0.6829(3) 0.3621(3) 0.3712(3)
H15 H 0.6479 0.2697 0.2968
C8 C 0.7845(3) 0.3754(3) 0.4775(3)
H16 H 0.8157 0.2906 0.4726
C9 C 0.2538(3) 0.6655(3) -0.0072(3)
H17 H 0.2472 0.7474 -0.0242
C10 C 0.3572(3) 0.6813(3) 0.0983(3)
H18 H 0.4175 0.7724 0.1511
C11 C 0.3722(3) 0.5616(3) 0.1267(3)
C12 C 0.2777(3) 0.4281(3) 0.0420(3)
H19 H 0.2833 0.3442 0.0557
C13 C 0.1769(3) 0.4213(3) -0.0612(3)
H20 H 0.1158 0.3312 -0.1162
C14 C 0.5225(3) 0.4699(3) 0.2619(3)
H21 H 0.4767 0.3744 0.2003
C15 C 0.4822(3) 0.5797(3) 0.2399(3)
H22 H 0.5274 0.6754 0.3012
Ag1_2 Ag -0.00099(2) 0.53345(3) -0.24243(2)
N2_2 N 1.1615(2) 0.5377(2) 0.9127(2)
O1 O 0.2629(2) 1.0238(2) 0.2499(2)
O2 O 0.0209(2) 0.9489(3) 0.1911(2)
C1 C 0.1400(3) 0.9609(3) 0.2622(3)
C2 C 0.1319(3) 0.8925(3) 0.3667(3)
H9 H 0.1277 0.7868 0.3143
H10 H 0.2221 0.9322 0.4312
C3 C 0.0002(3) 0.9190(3) 0.4538(3)
H11 H -0.0903 0.8770 0.3897
H12 H 0.0007 0.8678 0.5140
O1A O -0.2629(2) 0.9762(2) 0.7501(2)
O2A O -0.0209(2) 1.0511(3) 0.8089(2)
C1A C -0.1400(3) 1.0391(3) 0.7378(3)
C2A C -0.1319(3) 1.1075(3) 0.6333(3)
H9A H -0.1277 1.2132 0.6857
H10A H -0.2221 1.0678 0.5688
C3A C -0.0002(3) 1.0810(3) 0.5462(3)
H11A H 0.0903 1.1230 0.6103
H12A H -0.0007 1.1322 0.4860
O4 O 0.5249(3) 0.0581(3) 0.4047(3)
H3 H 0.4434 0.0478 0.3580
H4 H 0.5874 0.0237 0.3459
O5 O 0.3971(3) 0.0949(3) 0.0475(2)
H5 H 0.3541 0.0754 0.1103
H6 H 0.4610 0.0391 0.0167
O6 O 0.7216(3) 0.9480(5) 0.2128(3)
H7 H 0.8036 1.0080 0.2369
H8 H 0.6853 0.9349 0.1316
H23? H 0.6603 0.9827 0.2729
loop_
_geom_bond_atom_site_label_1
_geom_bond_atom_site_label_2
_geom_bond_site_symmetry_1
_geom_bond_site_symmetry_2
Ag1 N1 1_555 1_555
N1 C4 1_555 1_555
N2 C9 1_555 1_555
O1 C1 1_555 1_555
O2 C1 1_555 1_555
O3 Ag1 1_555 1_555
H1 O3 1_555 1_555
H2 O3 1_555 1_555
O4 H3 1_555 1_555
H4 O4 1_555 1_555
O5 H5 1_555 1_555
H6 O5 1_555 1_555
O6 H7 1_555 1_555
H8 O6 1_555 1_555
C1 C2 1_555 1_555
C2 H9 1_555 1_555
H10 C2 1_555 1_555
C3 C2 1_555 1_555
H11 C3 1_555 1_555
H12 C3 1_555 1_555
C4 H13 1_555 1_555
C5 C4 1_555 1_555
H14 C5 1_555 1_555
C6 C5 1_555 1_555
C7 C6 1_555 1_555
H15 C7 1_555 1_555
C8 N1 1_555 1_555
H16 C8 1_555 1_555
C9 H17 1_555 1_555
C10 C9 1_555 1_555
H18 C10 1_555 1_555
C11 C10 1_555 1_555
C12 C11 1_555 1_555
H19 C12 1_555 1_555
C13 N2 1_555 1_555
H20 C13 1_555 1_555
C14 C6 1_555 1_555
H21 C14 1_555 1_555
C15 C11 1_555 1_555
H22 C15 1_555 1_555
Ag1_2 N2 1_555 1_555
N2_2 Ag1 1_555 1_555
O1A C1A 1_555 1_555
O2A C1A 1_555 1_555
C1A C2A 1_555 1_555
C2A H9A 1_555 1_555
H10A C2A 1_555 1_555
C3A C3 1_555 1_555
H11A C3A 1_555 1_555
H12A C3A 1_555 1_555
C7 C8 1_555 1_555
C12 C13 1_555 1_555
C14 C15 1_555 1_555
C2A C3A 1_555 1_555

#END
