
#######################################################################
#
#                 Cambridge Crystallographic Data Centre
#                                CCDC 
#
#######################################################################
#
# If this CIF has been generated from an entry in the Cambridge 
# Structural Database, then it will include bibliographic, chemical, 
# crystal, experimental, refinement or atomic coordinate data resulting 
# from the CCDC's data processing and validation procedures.
#
#######################################################################

data_XABREZ
_symmetry_cell_setting           orthorhombic
_symmetry_space_group_name_H-M   'P b c n'
_symmetry_Int_Tables_number      60
_space_group_name_Hall           '-P 2n 2ab'
loop_
_symmetry_equiv_pos_site_id
_symmetry_equiv_pos_as_xyz
1 x,y,z
2 1/2-x,1/2-y,1/2+z
3 1/2+x,1/2-y,-z
4 -x,y,1/2-z
5 -x,-y,-z
6 1/2+x,1/2+y,1/2-z
7 1/2-x,1/2+y,z
8 x,-y,1/2+z
_cell_length_a                   9.523(6)
_cell_length_b                   14.924(11)
_cell_length_c                   14.435(14)
_cell_angle_alpha                90
_cell_angle_beta                 90
_cell_angle_gamma                90
_cell_volume                     2051.52
loop_
_atom_site_label
_atom_site_type_symbol
_atom_site_fract_x
_atom_site_fract_y
_atom_site_fract_z
Zn1 Zn 0.0000 0.51961(3) 0.2500
Cl1 Cl 0.08507(9) 0.60343(5) 0.13255(5)
O1 O 0.4454(3) 0.57258(18) 0.37025(16)
N1 N 0.1585(3) 0.43161(17) 0.27948(14)
N2 N 0.2409(3) 0.42736(19) 0.36065(16)
C1 C 0.1952(4) 0.3615(2) 0.22935(19)
C2 C 0.3058(4) 0.3117(3) 0.2791(2)
H1 H 0.3523 0.2602 0.2596
C3 C 0.3246(4) 0.3567(3) 0.3584(2)
C4 C 0.1383(4) 0.3415(2) 0.1358(2)
H2 H 0.0648 0.3833 0.1214
H3 H 0.1013 0.2817 0.1349
H4 H 0.2120 0.3467 0.0908
C5 C 0.4305(4) 0.3356(3) 0.4353(2)
H5 H 0.4194 0.3778 0.4849
H6 H 0.5241 0.3398 0.4110
H7 H 0.4145 0.2761 0.4581
C6 C 0.2360(5) 0.5025(3) 0.4274(3)
H8 H 0.2871 0.4863 0.4831
H9 H 0.1392 0.5143 0.4446
C7 C 0.2994(5) 0.5857(3) 0.3859(3)
H10 H 0.2531 0.5994 0.3277
H11 H 0.2857 0.6359 0.4275
C8 C 0.5155(5) 0.5777(3) 0.29544(19)
H12 H 0.5831 0.5294 0.3012
H13 H 0.5696 0.6323 0.3033
Zn1_2 Zn 1.0000 0.51961(3) 0.2500
Cl1C Cl -0.08507(9) 0.60343(5) 0.36745(5)
O1C O 0.5546(3) 0.57258(18) 0.12975(16)
N1C N 0.8415(3) 0.43161(17) 0.22052(14)
N1C_2 N -0.1585(3) 0.43161(17) 0.22052(14)
N2C N 0.7591(3) 0.42736(19) 0.13935(16)
C1C C 0.8048(4) 0.3615(2) 0.27065(19)
C2C C 0.6942(4) 0.3117(3) 0.2209(2)
H1C H 0.6477 0.2602 0.2404
C3C C 0.6754(4) 0.3567(3) 0.1416(2)
C4C C 0.8617(4) 0.3415(2) 0.3642(2)
H2C H 0.9352 0.3833 0.3786
H3C H 0.8987 0.2817 0.3651
H4C H 0.7880 0.3467 0.4092
C5C C 0.5695(4) 0.3356(3) 0.0647(2)
H5C H 0.5806 0.3778 0.0151
H6C H 0.4759 0.3398 0.0890
H7C H 0.5855 0.2761 0.0419
C6C C 0.7640(5) 0.5025(3) 0.0726(3)
H8C H 0.7129 0.4863 0.0169
H9C H 0.8608 0.5143 0.0554
C7C C 0.7006(5) 0.5857(3) 0.1141(3)
H10C H 0.7469 0.5994 0.1723
H11C H 0.7143 0.6359 0.0725
C8C C 0.4845(5) 0.5777(3) 0.20456(19)
H12C H 0.4169 0.5294 0.1988
H13C H 0.4304 0.6323 0.1967
loop_
_geom_bond_atom_site_label_1
_geom_bond_atom_site_label_2
_geom_bond_site_symmetry_1
_geom_bond_site_symmetry_2
Zn1 Cl1 1_555 1_555
O1 C7 1_555 1_555
N1 Zn1 1_555 1_555
N2 N1 1_555 1_555
C1 N1 1_555 1_555
C2 C1 1_555 1_555
H1 C2 1_555 1_555
C3 N2 1_555 1_555
C4 C1 1_555 1_555
H2 C4 1_555 1_555
H3 C4 1_555 1_555
H4 C4 1_555 1_555
C5 C3 1_555 1_555
H5 C5 1_555 1_555
H6 C5 1_555 1_555
H7 C5 1_555 1_555
C6 N2 1_555 1_555
H8 C6 1_555 1_555
H9 C6 1_555 1_555
C7 C6 1_555 1_555
H10 C7 1_555 1_555
H11 C7 1_555 1_555
C8 O1 1_555 1_555
H12 C8 1_555 1_555
H13 C8 1_555 1_555
Zn1_2 N1C 1_555 1_555
Cl1C Zn1 1_555 1_555
O1C C7C 1_555 1_555
N1C N2C 1_555 1_555
N1C_2 Zn1 1_555 1_555
N2C C3C 1_555 1_555
C1C N1C 1_555 1_555
C2C C1C 1_555 1_555
H1C C2C 1_555 1_555
C3C C2C 1_555 1_555
C4C C1C 1_555 1_555
H2C C4C 1_555 1_555
H3C C4C 1_555 1_555
H4C C4C 1_555 1_555
C5C C3C 1_555 1_555
H5C C5C 1_555 1_555
H6C C5C 1_555 1_555
H7C C5C 1_555 1_555
C6C N2C 1_555 1_555
H8C C6C 1_555 1_555
H9C C6C 1_555 1_555
C7C C6C 1_555 1_555
H10C C7C 1_555 1_555
H11C C7C 1_555 1_555
C8C C8 1_555 1_555
H12C C8C 1_555 1_555
H13C C8C 1_555 1_555
C2 C3 1_555 1_555
O1C C8C 1_555 1_555

#END
