
#######################################################################
#
#                 Cambridge Crystallographic Data Centre
#                                CCDC 
#
#######################################################################
#
# If this CIF has been generated from an entry in the Cambridge 
# Structural Database, then it will include bibliographic, chemical, 
# crystal, experimental, refinement or atomic coordinate data resulting 
# from the CCDC's data processing and validation procedures.
#
#######################################################################

data_XACFIR
_symmetry_cell_setting           orthorhombic
_symmetry_space_group_name_H-M   'P b c a'
_symmetry_Int_Tables_number      61
_space_group_name_Hall           '-P 2ac 2ab'
loop_
_symmetry_equiv_pos_site_id
_symmetry_equiv_pos_as_xyz
1 x,y,z
2 1/2+x,y,1/2-z
3 x,1/2-y,1/2+z
4 1/2-x,1/2+y,z
5 -x,-y,-z
6 1/2-x,-y,1/2+z
7 -x,1/2+y,1/2-z
8 1/2+x,1/2-y,-z
_cell_length_a                   8.0221(2)
_cell_length_b                   32.38440(10)
_cell_length_c                   13.5659(3)
_cell_angle_alpha                90
_cell_angle_beta                 90
_cell_angle_gamma                90
_cell_volume                     3524.3
loop_
_atom_site_label
_atom_site_type_symbol
_atom_site_fract_x
_atom_site_fract_y
_atom_site_fract_z
Cu1 Cu 0.58835(13) 0.57516(3) 0.45478(7)
Cu2 Cu 0.64320(12) 0.68389(3) 0.47942(6)
S1 S 0.3357(3) 0.56888(6) 0.55356(16)
S2 S 0.3752(3) 0.68203(6) 0.54866(17)
N1 N 0.3594(9) 0.48311(19) 0.5807(5)
N2 N 0.2492(9) 0.76219(18) 0.5325(4)
N3 N 0.7545(7) 0.59997(16) 0.5531(4)
N4 N 0.7712(7) 0.64239(15) 0.5652(4)
N5 N 0.9403(7) 0.61206(17) 0.6662(4)
N6 N 1.0665(8) 0.6068(2) 0.7367(5)
H1 H 1.1141 0.6280 0.7624
H2 H 1.0963 0.5824 0.7543
N7 N 0.5748(8) 0.61387(16) 0.3361(4)
N8 N 0.6174(8) 0.65512(16) 0.3422(4)
N9 N 0.5724(8) 0.63957(18) 0.1903(4)
N10 N 0.5509(10) 0.6420(2) 0.0870(5)
H3 H 0.5198 0.6205 0.0545
H4 H 0.5690 0.6649 0.0568
C1 C 0.3489(9) 0.5184(2) 0.5702(5)
C2 C 0.3033(9) 0.7296(2) 0.5386(5)
C3 C 0.8587(9) 0.5823(2) 0.6151(5)
C4 C 0.8837(8) 0.6490(2) 0.6333(4)
C5 C 0.8808(11) 0.5374(2) 0.6299(7)
H5 H 0.8107 0.5226 0.5847
H6 H 0.8509 0.5303 0.6963
H7 H 0.9952 0.5301 0.6183
C6 C 0.9420(11) 0.6898(2) 0.6711(5)
H8 H 0.8845 0.7115 0.6371
H9 H 1.0597 0.6924 0.6601
H10 H 0.9194 0.6916 0.7404
C7 C 0.5469(10) 0.6052(2) 0.2432(5)
C8 C 0.6139(9) 0.6703(2) 0.2532(5)
C9 C 0.5016(14) 0.5645(2) 0.2022(7)
H11 H 0.4913 0.5448 0.2548
H12 H 0.5867 0.5555 0.1572
H13 H 0.3973 0.5666 0.1678
C10 C 0.6503(12) 0.7132(2) 0.2218(6)
H14 H 0.6756 0.7298 0.2786
H15 H 0.5548 0.7245 0.1886
H16 H 0.7440 0.7132 0.1778
N1D N 0.6406(9) 0.51689(19) 0.4193(5)
N2G N 0.7492(9) 0.73781(18) 0.4675(4)
Cu1D Cu 0.41165(13) 0.42484(3) 0.54522(7)
Cu2G Cu 0.14320(12) 0.81611(3) 0.52058(6)
loop_
_geom_bond_atom_site_label_1
_geom_bond_atom_site_label_2
_geom_bond_site_symmetry_1
_geom_bond_site_symmetry_2
Cu1 S1 1_555 1_555
Cu2 S2 1_555 1_555
S1 C1 1_555 1_555
S2 C2 1_555 1_555
N1 C1 1_555 1_555
N2 C2 1_555 1_555
N3 Cu1 1_555 1_555
N4 Cu2 1_555 1_555
N5 N6 1_555 1_555
N6 H1 1_555 1_555
H2 N6 1_555 1_555
N7 Cu1 1_555 1_555
N8 Cu2 1_555 1_555
N9 N10 1_555 1_555
N10 H3 1_555 1_555
H4 N10 1_555 1_555
C3 N3 1_555 1_555
C4 N4 1_555 1_555
C5 C3 1_555 1_555
H5 C5 1_555 1_555
H6 C5 1_555 1_555
H7 C5 1_555 1_555
C6 C4 1_555 1_555
H8 C6 1_555 1_555
H9 C6 1_555 1_555
H10 C6 1_555 1_555
C7 N7 1_555 1_555
C8 N8 1_555 1_555
C9 C7 1_555 1_555
H11 C9 1_555 1_555
H12 C9 1_555 1_555
H13 C9 1_555 1_555
C10 C8 1_555 1_555
H14 C10 1_555 1_555
H15 C10 1_555 1_555
H16 C10 1_555 1_555
N1D Cu1 1_555 1_555
N2G Cu2 1_555 1_555
Cu1D N1 1_555 1_555
Cu2G N2 1_555 1_555
N3 N4 1_555 1_555
N5 C4 1_555 1_555
N5 C3 1_555 1_555
N7 N8 1_555 1_555
N9 C8 1_555 1_555
N9 C7 1_555 1_555

#END
