
#######################################################################
#
#                 Cambridge Crystallographic Data Centre
#                                CCDC 
#
#######################################################################
#
# If this CIF has been generated from an entry in the Cambridge 
# Structural Database, then it will include bibliographic, chemical, 
# crystal, experimental, refinement or atomic coordinate data resulting 
# from the CCDC's data processing and validation procedures.
#
#######################################################################

data_XACGAL
_symmetry_cell_setting           monoclinic
_symmetry_space_group_name_H-M   'C 2/m'
_symmetry_Int_Tables_number      12
_space_group_name_Hall           '-C 2y'
loop_
_symmetry_equiv_pos_site_id
_symmetry_equiv_pos_as_xyz
1 x,y,z
2 -x,y,-z
3 1/2+x,1/2+y,z
4 1/2-x,1/2+y,-z
5 -x,-y,-z
6 x,-y,z
7 1/2-x,1/2-y,-z
8 1/2+x,1/2-y,z
_cell_length_a                   17.2138(11)
_cell_length_b                   35.418(3)
_cell_length_c                   11.9728(10)
_cell_angle_alpha                90
_cell_angle_beta                 124.662(4)
_cell_angle_gamma                90
_cell_volume                     6004.04
loop_
_atom_site_label
_atom_site_type_symbol
_atom_site_fract_x
_atom_site_fract_y
_atom_site_fract_z
Cu1 Cu 0.08616(5) 0.0000 0.61345(8)
N1 N -0.10370(19) -0.18638(7) 0.9194(3)
H1 H -0.0436 -0.1876 0.9586
N2 N -0.25273(19) -0.16795(7) 0.7833(3)
H2 H -0.3019 -0.1555 0.7227
O1 O 0.0338(2) -0.03886(7) 0.6670(3)
O2 O -0.1137(2) -0.03786(7) 0.4766(3)
C1 C -0.2979(2) -0.24377(8) 0.9563(4)
C2 C -0.1285(2) -0.23866(8) 1.0413(4)
C3 C -0.2495(3) -0.19696(9) 0.8602(4)
C4 C -0.1577(3) -0.20851(8) 0.9457(4)
C5 C -0.1636(3) -0.16281(9) 0.8210(4)
C6 C -0.3244(3) -0.21416(9) 0.8623(4)
C7 C -0.4640(3) -0.24866(10) 0.8725(5)
C8 C -0.1351(3) -0.13417(9) 0.7636(5)
O3 O 0.2229(3) 0.0000 0.7939(5)
C9 C -0.0816(3) -0.07937(10) 0.6513(5)
C10 C -0.0520(4) -0.04954(10) 0.5911(6)
C11 C -0.4884(3) -0.21921(11) 0.7852(5)
C12 C -0.2004(3) -0.11406(12) 0.6518(5)
H3 H -0.2642 -0.1185 0.6123
C13 C -0.4173(3) -0.20230(10) 0.7799(5)
H4 H -0.4327 -0.1825 0.7195
C14 C -0.1738(3) -0.08688(11) 0.5949(5)
H5 H -0.2200 -0.0738 0.5176
C15 C -0.0433(3) -0.12622(12) 0.8168(6)
H6 H 0.0028 -0.1402 0.8913
C16 C -0.6595(3) -0.22755(18) 0.7028(7)
H7 H -0.6414 -0.2274 0.7949
H8 H -0.6604 -0.2531 0.6752
H9 H -0.7212 -0.2167 0.6446
C17 C -0.5896(3) -0.20491(16) 0.6934(8)
C18 C -0.0146(3) -0.09867(14) 0.7670(6)
H10 H 0.0492 -0.0931 0.8107
C19 C -0.6239(4) -0.2067(3) 0.5451(8)
H11 H -0.5820 -0.1924 0.5326
H12 H -0.6864 -0.1963 0.4894
H13 H -0.6250 -0.2325 0.5198
C20 C -0.5901(4) -0.1626(2) 0.7257(10)
H14 H -0.5695 -0.1600 0.8186
H15 H -0.6530 -0.1528 0.6670
H16 H -0.5482 -0.1489 0.7117
H17 H 0.2788 0.0000 0.8080
H18 H 0.2343 0.0000 0.8734
H19 H -0.5142 -0.2596 0.8849
Cu1A Cu -0.08616(5) 0.0000 0.38655(8)
Cu1B Cu -0.41384(5) -0.5000 1.61345(8)
Cu1B_2 Cu -0.41384(5) 0.5000 1.61345(8)
Cu1C Cu -0.58616(5) -0.5000 1.38655(8)
Cu1C_2 Cu -0.58616(5) 0.5000 1.38655(8)
N1F N -0.39630(19) -0.31362(7) 1.0806(3)
N1E N -0.10370(19) 0.18638(7) 0.9194(3)
N1C N -0.39630(19) 0.31362(7) 1.0806(3)
H1F H -0.4564 -0.3124 1.0414
H1E H -0.0436 0.1876 0.9586
H1C H -0.4564 0.3124 1.0414
N2F N -0.24727(19) -0.33205(7) 1.2167(3)
N2E N -0.25273(19) 0.16795(7) 0.7833(3)
N2C N -0.24727(19) 0.33205(7) 1.2167(3)
H2F H -0.1981 -0.3445 1.2773
H2E H -0.3019 0.1555 0.7227
H2C H -0.1981 0.3445 1.2773
O1F O -0.5338(2) -0.46114(7) 1.3330(3)
O1E O 0.0338(2) 0.03886(7) 0.6670(3)
O1C O -0.5338(2) 0.46114(7) 1.3330(3)
O1D O -0.0338(2) 0.03886(7) 0.3330(3)
O1A O -0.0338(2) -0.03886(7) 0.3330(3)
O2F O -0.3863(2) -0.46214(7) 1.5234(3)
O2E O -0.1137(2) 0.03786(7) 0.4766(3)
O2C O -0.3863(2) 0.46214(7) 1.5234(3)
O2D O 0.1137(2) 0.03786(7) 0.5234(3)
O2A O 0.1137(2) -0.03786(7) 0.5234(3)
C1F C -0.2021(2) -0.25623(8) 1.0437(4)
C1E C -0.2979(2) 0.24377(8) 0.9563(4)
C1C C -0.2021(2) 0.25623(8) 1.0437(4)
C2F C -0.3715(2) -0.26134(8) 0.9587(4)
C2E C -0.1285(2) 0.23866(8) 1.0413(4)
C2C C -0.3715(2) 0.26134(8) 0.9587(4)
C3F C -0.2505(3) -0.30304(9) 1.1398(4)
C3E C -0.2495(3) 0.19696(9) 0.8602(4)
C3C C -0.2505(3) 0.30304(9) 1.1398(4)
C4F C -0.3423(3) -0.29149(8) 1.0543(4)
C4E C -0.1577(3) 0.20851(8) 0.9457(4)
C4C C -0.3423(3) 0.29149(8) 1.0543(4)
C5F C -0.3364(3) -0.33719(9) 1.1790(4)
C5E C -0.1636(3) 0.16281(9) 0.8210(4)
C5C C -0.3364(3) 0.33719(9) 1.1790(4)
C6F C -0.1756(3) -0.28584(9) 1.1377(4)
C6E C -0.3244(3) 0.21416(9) 0.8623(4)
C6C C -0.1756(3) 0.28584(9) 1.1377(4)
C7F C -0.0360(3) -0.25134(10) 1.1275(5)
C7E C -0.4640(3) 0.24866(10) 0.8725(5)
C7C C -0.0360(3) 0.25134(10) 1.1275(5)
C8F C -0.3649(3) -0.36583(9) 1.2364(5)
C8E C -0.1351(3) 0.13417(9) 0.7636(5)
C8C C -0.3649(3) 0.36583(9) 1.2364(5)
O3A O -0.2229(3) 0.0000 0.2061(5)
C9F C -0.4184(3) -0.42063(10) 1.3487(5)
C9E C -0.0816(3) 0.07937(10) 0.6513(5)
C9C C -0.4184(3) 0.42063(10) 1.3487(5)
C10F C -0.4480(4) -0.45046(10) 1.4089(6)
C10E C -0.0520(4) 0.04954(10) 0.5911(6)
C10C C -0.4480(4) 0.45046(10) 1.4089(6)
C11F C -0.0116(3) -0.28079(11) 1.2148(5)
C11E C -0.4884(3) 0.21921(11) 0.7852(5)
C11C C -0.0116(3) 0.28079(11) 1.2148(5)
C12F C -0.2996(3) -0.38594(12) 1.3482(5)
C12E C -0.2004(3) 0.11406(12) 0.6518(5)
C12C C -0.2996(3) 0.38594(12) 1.3482(5)
H3F H -0.2358 -0.3815 1.3877
H3E H -0.2642 0.1185 0.6123
H3C H -0.2358 0.3815 1.3877
C13F C -0.0827(3) -0.29770(10) 1.2201(5)
C13E C -0.4173(3) 0.20230(10) 0.7799(5)
C13C C -0.0827(3) 0.29770(10) 1.2201(5)
H4F H -0.0673 -0.3175 1.2805
H4E H -0.4327 0.1825 0.7195
H4C H -0.0673 0.3175 1.2805
C14F C -0.3262(3) -0.41312(11) 1.4051(5)
C14E C -0.1738(3) 0.08688(11) 0.5949(5)
C14C C -0.3262(3) 0.41312(11) 1.4051(5)
H5F H -0.2800 -0.4262 1.4824
H5E H -0.2200 0.0738 0.5176
H5C H -0.2800 0.4262 1.4824
C15F C -0.4567(3) -0.37378(12) 1.1832(6)
C15E C -0.0433(3) 0.12622(12) 0.8168(6)
C15C C -0.4567(3) 0.37378(12) 1.1832(6)
H6F H -0.5028 -0.3598 1.1087
H6E H 0.0028 0.1402 0.8913
H6C H -0.5028 0.3598 1.1087
C16F C 0.1595(3) -0.27245(18) 1.2972(7)
C16E C -0.6595(3) 0.22755(18) 0.7028(7)
C16C C 0.1595(3) 0.27245(18) 1.2972(7)
H7F H 0.1414 -0.2726 1.2051
H7E H -0.6414 0.2274 0.7949
H7C H 0.1414 0.2726 1.2051
H8F H 0.1604 -0.2469 1.3248
H8E H -0.6604 0.2531 0.6752
H8C H 0.1604 0.2469 1.3248
H9F H 0.2212 -0.2833 1.3554
H9E H -0.7212 0.2167 0.6446
H9C H 0.2212 0.2833 1.3554
C17F C 0.0896(3) -0.29509(16) 1.3066(8)
C17E C -0.5896(3) 0.20491(16) 0.6934(8)
C17C C 0.0896(3) 0.29509(16) 1.3066(8)
C18F C -0.4854(3) -0.40133(14) 1.2330(6)
C18E C -0.0146(3) 0.09867(14) 0.7670(6)
C18C C -0.4854(3) 0.40133(14) 1.2330(6)
H10F H -0.5492 -0.4069 1.1893
H10E H 0.0492 0.0931 0.8107
H10C H -0.5492 0.4069 1.1893
C19F C 0.1239(4) -0.2933(3) 1.4549(8)
C19E C -0.6239(4) 0.2067(3) 0.5451(8)
C19C C 0.1239(4) 0.2933(3) 1.4549(8)
H11F H 0.0820 -0.3076 1.4674
H11E H -0.5820 0.1924 0.5326
H11C H 0.0820 0.3076 1.4674
H12F H 0.1864 -0.3037 1.5106
H12E H -0.6864 0.1963 0.4894
H12C H 0.1864 0.3037 1.5106
H13F H 0.1250 -0.2675 1.4802
H13E H -0.6250 0.2325 0.5198
H13C H 0.1250 0.2675 1.4802
C20F C 0.0901(4) -0.3374(2) 1.2743(10)
C20E C -0.5901(4) 0.1626(2) 0.7257(10)
C20C C 0.0901(4) 0.3374(2) 1.2743(10)
H14F H 0.0695 -0.3400 1.1814
H14E H -0.5695 0.1600 0.8186
H14C H 0.0695 0.3400 1.1814
H15F H 0.1530 -0.3472 1.3330
H15E H -0.6530 0.1528 0.6670
H15C H 0.1530 0.3472 1.3330
H16F H 0.0482 -0.3511 1.2883
H16E H -0.5482 0.1489 0.7117
H16C H 0.0482 0.3511 1.2883
H17A H -0.2788 0.0000 0.1920
H18A H -0.2343 0.0000 0.1266
H19F H 0.0142 -0.2404 1.1151
H19E H -0.5142 0.2596 0.8849
H19C H 0.0142 0.2404 1.1151
O4 O -0.4093(2) -0.11861(10) 0.6328(5)
H20 H -0.4108 -0.0952 0.6213
H21 H -0.4686 -0.1252 0.5936
loop_
_geom_bond_atom_site_label_1
_geom_bond_atom_site_label_2
_geom_bond_site_symmetry_1
_geom_bond_site_symmetry_2
Cu1 O1 1_555 1_555
N1 H1 1_555 1_555
N2 H2 1_555 1_555
O1 C10 1_555 1_555
O2 C10 1_555 1_555
C1 C6 1_555 1_555
C2 C4 1_555 1_555
C3 N2 1_555 1_555
C4 N1 1_555 1_555
C5 N1 1_555 1_555
C6 C3 1_555 1_555
C7 C11 1_555 1_555
C8 C5 1_555 1_555
O3 Cu1 1_555 1_555
O4 H20 1_555 1_555
C9 C10 1_555 1_555
C11 C13 1_555 1_555
C12 C8 1_555 1_555
H3 C12 1_555 1_555
C13 C6 1_555 1_555
H4 C13 1_555 1_555
C14 C9 1_555 1_555
H5 C14 1_555 1_555
C15 C8 1_555 1_555
H6 C15 1_555 1_555
C16 H7 1_555 1_555
H8 C16 1_555 1_555
H9 C16 1_555 1_555
C17 C11 1_555 1_555
C18 C9 1_555 1_555
H10 C18 1_555 1_555
C19 C17 1_555 1_555
H11 C19 1_555 1_555
H12 C19 1_555 1_555
H13 C19 1_555 1_555
C20 C17 1_555 1_555
H14 C20 1_555 1_555
H15 C20 1_555 1_555
H16 C20 1_555 1_555
H17 O3 1_555 1_555
H18 O3 1_555 1_555
H19 C7 1_555 1_555
H21 O4 1_555 1_555
Cu1A Cu1 1_555 1_555
Cu1B Cu1C 1_555 1_555
Cu1B_2 Cu1C_2 1_555 1_555
Cu1C O1F 1_555 1_555
Cu1C_2 O1C 1_555 1_555
N1F H1F 1_555 1_555
N1E H1E 1_555 1_555
N1C H1C 1_555 1_555
N2F H2F 1_555 1_555
N2E H2E 1_555 1_555
N2C H2C 1_555 1_555
O1F C10F 1_555 1_555
O1E Cu1 1_555 1_555
O1C C10C 1_555 1_555
O1D Cu1A 1_555 1_555
O1A Cu1A 1_555 1_555
O2F Cu1B 1_555 1_555
O2E Cu1A 1_555 1_555
O2C Cu1B_2 1_555 1_555
O2D Cu1 1_555 1_555
O2A Cu1 1_555 1_555
C1F C1 1_555 1_555
C1E C1C 1_555 1_555
C1C C2E 1_555 1_555
C2F C1 1_555 1_555
C2E C4E 1_555 1_555
C2C C1E 1_555 1_555
C3F N2F 1_555 1_555
C3E N2E 1_555 1_555
C3C N2C 1_555 1_555
C4F N1F 1_555 1_555
C4E N1E 1_555 1_555
C4C N1C 1_555 1_555
C5F N1F 1_555 1_555
C5E N1E 1_555 1_555
C5C N1C 1_555 1_555
C6F C1F 1_555 1_555
C6E C1E 1_555 1_555
C6C C1C 1_555 1_555
C7F C2 1_555 1_555
C7E C2C 1_555 1_555
C7C C2E 1_555 1_555
C8F C5F 1_555 1_555
C8E C5E 1_555 1_555
C8C C5C 1_555 1_555
O3A Cu1A 1_555 1_555
C9F C10F 1_555 1_555
C9E C10E 1_555 1_555
C9C C10C 1_555 1_555
C10F O2F 1_555 1_555
C10E O1E 1_555 1_555
C10C O2C 1_555 1_555
C11F C7F 1_555 1_555
C11E C7E 1_555 1_555
C11C C7C 1_555 1_555
C12F C8F 1_555 1_555
C12E C8E 1_555 1_555
C12C C8C 1_555 1_555
H3F C12F 1_555 1_555
H3E C12E 1_555 1_555
H3C C12C 1_555 1_555
C13F C6F 1_555 1_555
C13E C6E 1_555 1_555
C13C C6C 1_555 1_555
H4F C13F 1_555 1_555
H4E C13E 1_555 1_555
H4C C13C 1_555 1_555
C14F C9F 1_555 1_555
C14E C9E 1_555 1_555
C14C C9C 1_555 1_555
H5F C14F 1_555 1_555
H5E C14E 1_555 1_555
H5C C14C 1_555 1_555
C15F C8F 1_555 1_555
C15E C8E 1_555 1_555
C15C C8C 1_555 1_555
H6F C15F 1_555 1_555
H6E C15E 1_555 1_555
H6C C15C 1_555 1_555
C16F H7F 1_555 1_555
C16E H7E 1_555 1_555
C16C H7C 1_555 1_555
H8F C16F 1_555 1_555
H8E C16E 1_555 1_555
H8C C16C 1_555 1_555
H9F C16F 1_555 1_555
H9E C16E 1_555 1_555
H9C C16C 1_555 1_555
C17F C11F 1_555 1_555
C17E C11E 1_555 1_555
C17C C11C 1_555 1_555
C18F C9F 1_555 1_555
C18E C9E 1_555 1_555
C18C C9C 1_555 1_555
H10F C18F 1_555 1_555
H10E C18E 1_555 1_555
H10C C18C 1_555 1_555
C19F C17F 1_555 1_555
C19E C17E 1_555 1_555
C19C C17C 1_555 1_555
H11F C19F 1_555 1_555
H11E C19E 1_555 1_555
H11C C19C 1_555 1_555
H12F C19F 1_555 1_555
H12E C19E 1_555 1_555
H12C C19C 1_555 1_555
H13F C19F 1_555 1_555
H13E C19E 1_555 1_555
H13C C19C 1_555 1_555
C20F C17F 1_555 1_555
C20E C17E 1_555 1_555
C20C C17C 1_555 1_555
H14F C20F 1_555 1_555
H14E C20E 1_555 1_555
H14C C20C 1_555 1_555
H15F C20F 1_555 1_555
H15E C20E 1_555 1_555
H15C C20C 1_555 1_555
H16F C20F 1_555 1_555
H16E C20E 1_555 1_555
H16C C20C 1_555 1_555
H17A O3A 1_555 1_555
H18A O3A 1_555 1_555
H19F C7F 1_555 1_555
H19E C7E 1_555 1_555
H19C C7C 1_555 1_555
N2 C5 1_555 1_555
O2 Cu1A 1_555 1_555
C2 C1F 1_555 1_555
C3 C4 1_555 1_555
C7 C2F 1_555 1_555
C12 C14 1_555 1_555
C15 C18 1_555 1_555
C16 C17 1_555 1_555
N2F C5F 1_555 1_555
N2E C5E 1_555 1_555
N2C C5C 1_555 1_555
O2E C10E 1_555 1_555
C2F C4F 1_555 1_555
C2C C4C 1_555 1_555
C3F C4F 1_555 1_555
C3F C6F 1_555 1_555
C3E C4E 1_555 1_555
C3E C6E 1_555 1_555
C3C C4C 1_555 1_555
C3C C6C 1_555 1_555
C11F C13F 1_555 1_555
C11E C13E 1_555 1_555
C11C C13C 1_555 1_555
C12F C14F 1_555 1_555
C12E C14E 1_555 1_555
C12C C14C 1_555 1_555
C15F C18F 1_555 1_555
C15E C18E 1_555 1_555
C15C C18C 1_555 1_555
C16F C17F 1_555 1_555
C16E C17E 1_555 1_555
C16C C17C 1_555 1_555

#END
