
#######################################################################
#
#                 Cambridge Crystallographic Data Centre
#                                CCDC 
#
#######################################################################
#
# If this CIF has been generated from an entry in the Cambridge 
# Structural Database, then it will include bibliographic, chemical, 
# crystal, experimental, refinement or atomic coordinate data resulting 
# from the CCDC's data processing and validation procedures.
#
#######################################################################

data_XACZUX
_symmetry_cell_setting           triclinic
_symmetry_space_group_name_H-M   'P -1'
_symmetry_Int_Tables_number      2
_space_group_name_Hall           '-P 1'
loop_
_symmetry_equiv_pos_site_id
_symmetry_equiv_pos_as_xyz
1 x,y,z
2 -x,-y,-z
_cell_length_a                   8.93(2)
_cell_length_b                   12.95(2)
_cell_length_c                   14.98(3)
_cell_angle_alpha                92.00(8)
_cell_angle_beta                 106.5(1)
_cell_angle_gamma                93.84(8)
_cell_volume                     1654.64
loop_
_atom_site_label
_atom_site_type_symbol
_atom_site_fract_x
_atom_site_fract_y
_atom_site_fract_z
Cu1 Cu 0.5000 1.0000 0.0000
Cu2 Cu 1.0000 1.5000 0.0000
Cl1 Cl 0.6517 0.9355 0.1296
Cl2 Cl 1.1303 1.3727 0.0775
N1 N 0.1320 1.6899 0.2676
N2 N 0.3159 0.9806 0.0490
N3 N 0.7968 1.4275 0.0013
C1 C 0.5224 1.4345 0.3338
C2 C 0.4662 1.3314 0.3080
C3 C 0.5519 1.2666 0.2683
C4 C 0.6909 1.3058 0.2513
C5 C 0.7428 1.4107 0.2729
C6 C 0.6607 1.4747 0.3162
C7 C 0.3144 1.2884 0.3242
C8 C 0.3416 1.2349 0.4158
C9 C 0.7860 1.2333 0.2129
C10 C 0.9042 1.1856 0.2909
C11 C 0.7234 1.5854 0.3477
C12 C 0.8384 1.5931 0.4455
C13 C 0.4307 1.5055 0.3763
C14 C 0.3181 1.5623 0.3020
C15 C 0.2340 1.6447 0.3359
C16 C 0.2587 1.6737 0.4291
C17 C 0.1832 1.7539 0.4532
C18 C 0.0798 1.8014 0.3835
C19 C 0.0573 1.7662 0.2929
C20 C 0.4871 1.1563 0.2368
C21 C 0.3854 1.1501 0.1341
C22 C 0.2817 1.0515 0.1060
C23 C 0.1514 1.0338 0.1378
C24 C 0.0551 0.9433 0.1114
C25 C 0.0920 0.8711 0.0534
C26 C 0.2218 0.8924 0.0239
C27 C 0.8773 1.4593 0.2414
C28 C 0.8168 1.5158 0.1508
C29 C 0.7272 1.4469 0.0675
C30 C 0.5753 1.4043 0.0580
C31 C 0.4991 1.3384 -0.0183
C32 C 0.5740 1.3168 -0.0841
C33 C 0.7226 1.3630 -0.0727
H1 H 0.2509 1.3439 0.3259
H2 H 0.2613 1.2400 0.2742
H3 H 0.3945 1.2829 0.4661
H4 H 0.2445 1.2093 0.4241
H5 H 0.4044 1.1788 0.4143
H6 H 0.7175 1.1797 0.1744
H7 H 0.8406 1.2709 0.1768
H8 H 0.8498 1.1480 0.3271
H9 H 0.9630 1.1400 0.2659
H10 H 0.9731 1.2391 0.3293
H11 H 0.7749 1.6124 0.3050
H12 H 0.6383 1.6254 0.3483
H13 H 0.9242 1.5537 0.4449
H14 H 0.8756 1.6633 0.4640
H15 H 0.7874 1.5658 0.4882
H16 H 0.5015 1.5551 0.4186
H17 H 0.3723 1.4658 0.4090
H18 H 0.3768 1.5938 0.2649
H19 H 0.2414 1.5120 0.2646
H20 H 0.3273 1.6376 0.4760
H21 H 0.2024 1.7771 0.5166
H22 H 0.0250 1.8571 0.3978
H23 H -0.0162 1.7978 0.2449
H24 H 0.4248 1.1320 0.2749
H25 H 0.5716 1.1137 0.2424
H26 H 0.3211 1.2066 0.1257
H27 H 0.4527 1.1560 0.0952
H28 H 0.1283 1.0848 0.1779
H29 H -0.0341 0.9312 0.1333
H30 H 0.0288 0.8078 0.0342
H31 H 0.2473 0.8428 -0.0165
H32 H 0.9387 1.4061 0.2298
H33 H 0.9402 1.5067 0.2894
H34 H 0.9036 1.5505 0.1365
H35 H 0.7492 1.5653 0.1618
H36 H 0.5245 1.4208 0.1039
H37 H 0.3960 1.3087 -0.0250
H38 H 0.5249 1.2704 -0.1364
H39 H 0.7746 1.3491 -0.1186
Cl1A Cl 0.3483 1.0645 -0.1296
N1A N 0.8680 0.3101 -0.2676
N2A N 0.6841 1.0194 -0.0490
N3A N 0.2032 0.5725 -0.0013
C1A C 0.4776 0.5655 -0.3338
C2A C 0.5338 0.6686 -0.3080
C3A C 0.4481 0.7334 -0.2683
C4A C 0.3091 0.6942 -0.2513
C5A C 0.2572 0.5893 -0.2729
C6A C 0.3393 0.5253 -0.3162
C7A C 0.6856 0.7116 -0.3242
C8A C 0.6584 0.7651 -0.4158
C9A C 0.2140 0.7667 -0.2129
C10A C 0.0958 0.8144 -0.2909
C11A C 0.2766 0.4146 -0.3477
C12A C 0.1616 0.4069 -0.4455
C13A C 0.5693 0.4945 -0.3763
C14A C 0.6819 0.4377 -0.3020
C15A C 0.7660 0.3553 -0.3359
C16A C 0.7413 0.3263 -0.4291
C17A C 0.8168 0.2461 -0.4532
C18A C 0.9202 0.1986 -0.3835
C19A C 0.9427 0.2338 -0.2929
C20A C 0.5129 0.8437 -0.2368
C21A C 0.6146 0.8499 -0.1341
C22A C 0.7183 0.9485 -0.1060
C23A C 0.8486 0.9662 -0.1378
C24A C 0.9449 1.0567 -0.1114
C25A C 0.9080 1.1289 -0.0534
C26A C 0.7782 1.1076 -0.0239
C27A C 0.1227 0.5407 -0.2414
C28A C 0.1832 0.4842 -0.1508
C29A C 0.2728 0.5531 -0.0675
C30A C 0.4247 0.5957 -0.0580
C31A C 0.5009 0.6616 0.0183
C32A C 0.4260 0.6832 0.0841
C33A C 0.2774 0.6370 0.0727
H1A H 0.7491 0.6561 -0.3259
H2A H 0.7387 0.7600 -0.2742
H3A H 0.6055 0.7171 -0.4661
H4A H 0.7555 0.7907 -0.4241
H5A H 0.5956 0.8212 -0.4143
H6A H 0.2825 0.8203 -0.1744
H7A H 0.1594 0.7291 -0.1768
H8A H 0.1502 0.8520 -0.3271
H9A H 0.0370 0.8600 -0.2659
H10A H 0.0269 0.7609 -0.3293
H11A H 0.2251 0.3876 -0.3050
H12A H 0.3617 0.3746 -0.3483
H13A H 0.0758 0.4463 -0.4449
H14A H 0.1244 0.3367 -0.4640
H15A H 0.2126 0.4342 -0.4882
H16A H 0.4985 0.4449 -0.4186
H17A H 0.6277 0.5342 -0.4090
H18A H 0.6232 0.4062 -0.2649
H19A H 0.7586 0.4880 -0.2646
H20A H 0.6727 0.3624 -0.4760
H21A H 0.7976 0.2229 -0.5166
H22A H 0.9750 0.1429 -0.3978
H23A H 1.0162 0.2022 -0.2449
H24A H 0.5752 0.8680 -0.2749
H25A H 0.4284 0.8863 -0.2424
H26A H 0.6789 0.7934 -0.1257
H27A H 0.5473 0.8440 -0.0952
H28A H 0.8717 0.9152 -0.1779
H29A H 1.0341 1.0688 -0.1333
H30A H 0.9712 1.1922 -0.0342
H31A H 0.7527 1.1572 0.0165
H32A H 0.0613 0.5939 -0.2298
H33A H 0.0598 0.4933 -0.2894
H34A H 0.0964 0.4495 -0.1365
H35A H 0.2508 0.4347 -0.1618
H36A H 0.4755 0.5792 -0.1039
H37A H 0.6040 0.6913 0.0250
H38A H 0.4751 0.7296 0.1364
H39A H 0.2254 0.6509 0.1186
Cl2A Cl 0.8697 1.6273 -0.0775
N3A_2 N 1.2032 1.5725 -0.0013
Cu2_2 Cu 0.0000 0.5000 0.0000
O1 O 0.3081 0.0034 0.5507
C34 C 0.5112 0.1121 0.6640
C35 C 0.3983 0.0537 0.6009
H40 H 0.5136 0.0849 0.7224
H41 H 0.4687 0.1777 0.6601
H42 H 0.6147 0.1199 0.6584
H43 H 0.4579 -0.0045 0.6169
H44 H 0.4258 0.0868 0.5514
H45 H 0.2326 0.0250 0.5657
loop_
_geom_bond_atom_site_label_1
_geom_bond_atom_site_label_2
_geom_bond_site_symmetry_1
_geom_bond_site_symmetry_2
Cu1 Cl1 1_555 1_555
Cu2 Cl2 1_555 1_555
N1 C15 1_555 1_555
N2 Cu1 1_555 1_555
N3 Cu2 1_555 1_555
C1 C2 1_555 1_555
C2 C3 1_555 1_555
C3 C4 1_555 1_555
C4 C5 1_555 1_555
C5 C6 1_555 1_555
C6 C1 1_555 1_555
C7 C2 1_555 1_555
C8 C7 1_555 1_555
C9 C4 1_555 1_555
C10 C9 1_555 1_555
C11 C6 1_555 1_555
C12 C11 1_555 1_555
C13 C1 1_555 1_555
C14 C13 1_555 1_555
C15 C14 1_555 1_555
C16 C15 1_555 1_555
C17 C16 1_555 1_555
C18 C17 1_555 1_555
C19 N1 1_555 1_555
C20 C3 1_555 1_555
C21 C20 1_555 1_555
C22 N2 1_555 1_555
C23 C22 1_555 1_555
C24 C23 1_555 1_555
C25 C24 1_555 1_555
C26 N2 1_555 1_555
C27 C5 1_555 1_555
C28 C27 1_555 1_555
C29 N3 1_555 1_555
C30 C29 1_555 1_555
C31 C30 1_555 1_555
C32 C31 1_555 1_555
C33 N3 1_555 1_555
H1 C7 1_555 1_555
H2 C7 1_555 1_555
H3 C8 1_555 1_555
H4 C8 1_555 1_555
H5 C8 1_555 1_555
H6 C9 1_555 1_555
H7 C9 1_555 1_555
H8 C10 1_555 1_555
H9 C10 1_555 1_555
H10 C10 1_555 1_555
H11 C11 1_555 1_555
H12 C11 1_555 1_555
H13 C12 1_555 1_555
H14 C12 1_555 1_555
H15 C12 1_555 1_555
H16 C13 1_555 1_555
H17 C13 1_555 1_555
H18 C14 1_555 1_555
H19 C14 1_555 1_555
H20 C16 1_555 1_555
H21 C17 1_555 1_555
H22 C18 1_555 1_555
H23 C19 1_555 1_555
H24 C20 1_555 1_555
H25 C20 1_555 1_555
H26 C21 1_555 1_555
H27 C21 1_555 1_555
H28 C23 1_555 1_555
H29 C24 1_555 1_555
H30 C25 1_555 1_555
H31 C26 1_555 1_555
H32 C27 1_555 1_555
H33 C27 1_555 1_555
H34 C28 1_555 1_555
H35 C28 1_555 1_555
H36 C30 1_555 1_555
H37 C31 1_555 1_555
H38 C32 1_555 1_555
H39 C33 1_555 1_555
O1 C35 1_555 1_555
C34 C35 1_555 1_555
C35 H43 1_555 1_555
H40 C34 1_555 1_555
H41 C34 1_555 1_555
H42 C34 1_555 1_555
H44 C35 1_555 1_555
H45 O1 1_555 1_555
Cl1A Cu1 1_555 1_555
N1A C15A 1_555 1_555
N2A Cu1 1_555 1_555
N3A C29A 1_555 1_555
C1A C2A 1_555 1_555
C2A C3A 1_555 1_555
C3A C4A 1_555 1_555
C4A C5A 1_555 1_555
C5A C6A 1_555 1_555
C6A C1A 1_555 1_555
C7A C2A 1_555 1_555
C8A C7A 1_555 1_555
C9A C4A 1_555 1_555
C10A C9A 1_555 1_555
C11A C6A 1_555 1_555
C12A C11A 1_555 1_555
C13A C1A 1_555 1_555
C14A C13A 1_555 1_555
C15A C14A 1_555 1_555
C16A C15A 1_555 1_555
C17A C16A 1_555 1_555
C18A C17A 1_555 1_555
C19A N1A 1_555 1_555
C20A C3A 1_555 1_555
C21A C20A 1_555 1_555
C22A N2A 1_555 1_555
C23A C22A 1_555 1_555
C24A C23A 1_555 1_555
C25A C24A 1_555 1_555
C26A N2A 1_555 1_555
C27A C5A 1_555 1_555
C28A C27A 1_555 1_555
C29A C28A 1_555 1_555
C30A C29A 1_555 1_555
C31A C30A 1_555 1_555
C32A C31A 1_555 1_555
C33A N3A 1_555 1_555
H1A C7A 1_555 1_555
H2A C7A 1_555 1_555
H3A C8A 1_555 1_555
H4A C8A 1_555 1_555
H5A C8A 1_555 1_555
H6A C9A 1_555 1_555
H7A C9A 1_555 1_555
H8A C10A 1_555 1_555
H9A C10A 1_555 1_555
H10A C10A 1_555 1_555
H11A C11A 1_555 1_555
H12A C11A 1_555 1_555
H13A C12A 1_555 1_555
H14A C12A 1_555 1_555
H15A C12A 1_555 1_555
H16A C13A 1_555 1_555
H17A C13A 1_555 1_555
H18A C14A 1_555 1_555
H19A C14A 1_555 1_555
H20A C16A 1_555 1_555
H21A C17A 1_555 1_555
H22A C18A 1_555 1_555
H23A C19A 1_555 1_555
H24A C20A 1_555 1_555
H25A C20A 1_555 1_555
H26A C21A 1_555 1_555
H27A C21A 1_555 1_555
H28A C23A 1_555 1_555
H29A C24A 1_555 1_555
H30A C25A 1_555 1_555
H31A C26A 1_555 1_555
H32A C27A 1_555 1_555
H33A C27A 1_555 1_555
H34A C28A 1_555 1_555
H35A C28A 1_555 1_555
H36A C30A 1_555 1_555
H37A C31A 1_555 1_555
H38A C32A 1_555 1_555
H39A C33A 1_555 1_555
Cl2A Cu2 1_555 1_555
N3A_2 Cu2 1_555 1_555
Cu2_2 N3A 1_555 1_555
C18 C19 1_555 1_555
C21 C22 1_555 1_555
C25 C26 1_555 1_555
C28 C29 1_555 1_555
C32 C33 1_555 1_555
C18A C19A 1_555 1_555
C21A C22A 1_555 1_555
C25A C26A 1_555 1_555
C32A C33A 1_555 1_555

#END
