
#######################################################################
#
#                 Cambridge Crystallographic Data Centre
#                                CCDC 
#
#######################################################################
#
# If this CIF has been generated from an entry in the Cambridge 
# Structural Database, then it will include bibliographic, chemical, 
# crystal, experimental, refinement or atomic coordinate data resulting 
# from the CCDC's data processing and validation procedures.
#
#######################################################################

data_XADBAG
_symmetry_cell_setting           monoclinic
_symmetry_space_group_name_H-M   'C 2/c'
_symmetry_Int_Tables_number      15
_space_group_name_Hall           '-C 2yn'
loop_
_symmetry_equiv_pos_site_id
_symmetry_equiv_pos_as_xyz
1 x,y,z
2 -x,y,1/2-z
3 1/2+x,1/2+y,z
4 1/2-x,1/2+y,1/2-z
5 -x,-y,-z
6 x,-y,1/2+z
7 1/2-x,1/2-y,-z
8 1/2+x,1/2-y,1/2+z
_cell_length_a                   24.122(7)
_cell_length_b                   12.834(5)
_cell_length_c                   26.153(8)
_cell_angle_alpha                90
_cell_angle_beta                 105.43(1)
_cell_angle_gamma                90
_cell_volume                     7804.66
loop_
_atom_site_label
_atom_site_type_symbol
_atom_site_fract_x
_atom_site_fract_y
_atom_site_fract_z
Co1 Co 0.0000 0.3311 0.2500
Co2 Co -0.3302 0.3037 0.1184
Cl1 Cl 0.0485 0.4265 0.3192
Cl2 Cl -0.4052 0.4108 0.1017
Cl3 Cl -0.2477 0.3660 0.1704
N1 N 0.0563 0.2493 0.2190
N2 N -0.3503 0.1804 0.1609
N3 N -0.1659 0.2422 -0.0423
C1 C -0.0929 0.0077 0.1299
C2 C -0.1335 -0.0006 0.1600
C3 C -0.1915 -0.0222 0.1349
C4 C -0.2100 -0.0367 0.0794
C5 C -0.1698 -0.0229 0.0497
C6 C -0.1117 -0.0023 0.0746
C7 C -0.1151 0.0111 0.2199
C8 C -0.0998 -0.0933 0.2486
C9 C -0.2710 -0.0684 0.0542
C10 C -0.2788 -0.1853 0.0592
C11 C -0.0697 0.0077 0.0410
C12 C -0.0544 -0.1009 0.0209
C13 C -0.0316 0.0346 0.1572
C14 C -0.0221 0.1545 0.1564
C15 C 0.0402 0.1862 0.1761
C16 C 0.0803 0.1525 0.1502
C17 C 0.1373 0.1810 0.1684
C18 C 0.1543 0.2443 0.2134
C19 C 0.1114 0.2753 0.2361
C20 C -0.2359 -0.0197 0.1659
C21 C -0.2597 0.0934 0.1641
C22 C -0.3114 0.1069 0.1845
C23 C -0.3208 0.0458 0.2251
C24 C -0.3680 0.0557 0.2424
C25 C -0.4111 0.1273 0.2142
C26 C -0.3999 0.1893 0.1763
C27 C -0.1914 -0.0133 -0.0109
C28 C -0.2234 0.0919 -0.0267
C29 C -0.1871 0.1873 -0.0074
C30 C -0.1755 0.2181 0.0452
C31 C -0.1416 0.3023 0.0634
C32 C -0.1196 0.3600 0.0262
C33 C -0.1325 0.3258 -0.0253
H1 H -0.0828 0.0563 0.2298
H2 H -0.1460 0.0398 0.2314
H3 H -0.0688 -0.1220 0.2372
H4 H -0.0886 -0.0856 0.2860
H5 H -0.1320 -0.1386 0.2386
H6 H -0.2954 -0.0325 0.0715
H7 H -0.2807 -0.0493 0.0178
H8 H -0.2695 -0.2046 0.0956
H9 H -0.3177 -0.2029 0.0428
H10 H -0.2544 -0.2215 0.0421
H11 H -0.0356 0.0397 0.0618
H12 H -0.0862 0.0502 0.0110
H13 H -0.0373 -0.1435 0.0506
H14 H -0.0281 -0.0914 0.0000
H15 H -0.0883 -0.1337 0.0002
H16 H -0.0223 0.0101 0.1928
H17 H -0.0076 0.0014 0.1387
H18 H -0.0429 0.1858 0.1785
H19 H -0.0367 0.1789 0.1211
H20 H 0.0683 0.1094 0.1197
H21 H 0.1649 0.1582 0.1508
H22 H 0.1933 0.2640 0.2278
H23 H 0.1224 0.3186 0.2665
H24 H -0.2664 -0.0669 0.1515
H25 H -0.2182 -0.0378 0.2018
H26 H -0.2301 0.1373 0.1841
H27 H -0.2697 0.1147 0.1280
H28 H -0.2918 -0.0025 0.2417
H29 H -0.3729 0.0162 0.2716
H30 H -0.4469 0.1320 0.2229
H31 H -0.4276 0.2394 0.1592
H32 H -0.2167 -0.0696 -0.0242
H33 H -0.1595 -0.0163 -0.0256
H34 H -0.2554 0.0933 -0.0119
H35 H -0.2367 0.0953 -0.0642
H36 H -0.1916 0.1799 0.0689
H37 H -0.1335 0.3227 0.0995
H38 H -0.0949 0.4180 0.0378
H39 H -0.1184 0.3645 -0.0502
Cl1A Cl -0.0485 0.4265 0.1808
N1A N -0.0563 0.2493 0.2810
N2A N 0.3503 0.1804 0.3391
N3A N 0.1659 0.2422 0.5423
C1A C 0.0929 0.0077 0.3701
C2A C 0.1335 -0.0006 0.3400
C3A C 0.1915 -0.0222 0.3651
C4A C 0.2100 -0.0367 0.4206
C5A C 0.1698 -0.0229 0.4503
C6A C 0.1117 -0.0023 0.4254
C7A C 0.1151 0.0111 0.2801
C8A C 0.0998 -0.0933 0.2514
C9A C 0.2710 -0.0684 0.4458
C10A C 0.2788 -0.1853 0.4408
C11A C 0.0697 0.0077 0.4590
C12A C 0.0544 -0.1009 0.4791
C13A C 0.0316 0.0346 0.3428
C14A C 0.0221 0.1545 0.3436
C15A C -0.0402 0.1862 0.3239
C16A C -0.0803 0.1525 0.3498
C17A C -0.1373 0.1810 0.3316
C18A C -0.1543 0.2443 0.2866
C19A C -0.1114 0.2753 0.2639
C20A C 0.2359 -0.0197 0.3341
C21A C 0.2597 0.0934 0.3359
C22A C 0.3114 0.1069 0.3155
C23A C 0.3208 0.0458 0.2749
C24A C 0.3680 0.0557 0.2576
C25A C 0.4111 0.1273 0.2858
C26A C 0.3999 0.1893 0.3237
C27A C 0.1914 -0.0133 0.5109
C28A C 0.2234 0.0919 0.5267
C29A C 0.1871 0.1873 0.5074
C30A C 0.1755 0.2181 0.4548
C31A C 0.1416 0.3023 0.4366
C32A C 0.1196 0.3600 0.4738
C33A C 0.1325 0.3258 0.5253
H1A H 0.0828 0.0563 0.2702
H2A H 0.1460 0.0398 0.2686
H3A H 0.0688 -0.1220 0.2628
H4A H 0.0886 -0.0856 0.2140
H5A H 0.1320 -0.1386 0.2614
H6A H 0.2954 -0.0325 0.4285
H7A H 0.2807 -0.0493 0.4822
H8A H 0.2695 -0.2046 0.4044
H9A H 0.3177 -0.2029 0.4572
H10A H 0.2544 -0.2215 0.4579
H11A H 0.0356 0.0397 0.4382
H12A H 0.0862 0.0502 0.4890
H13A H 0.0373 -0.1435 0.4494
H14A H 0.0281 -0.0914 0.5000
H15A H 0.0883 -0.1337 0.4998
H16A H 0.0223 0.0101 0.3072
H17A H 0.0076 0.0014 0.3613
H18A H 0.0429 0.1858 0.3215
H19A H 0.0367 0.1789 0.3789
H20A H -0.0683 0.1094 0.3803
H21A H -0.1649 0.1582 0.3492
H22A H -0.1933 0.2640 0.2722
H23A H -0.1224 0.3186 0.2335
H24A H 0.2664 -0.0669 0.3485
H25A H 0.2182 -0.0378 0.2982
H26A H 0.2301 0.1373 0.3159
H27A H 0.2697 0.1147 0.3720
H28A H 0.2918 -0.0025 0.2583
H29A H 0.3729 0.0162 0.2284
H30A H 0.4469 0.1320 0.2771
H31A H 0.4276 0.2394 0.3408
H32A H 0.2167 -0.0696 0.5242
H33A H 0.1595 -0.0163 0.5256
H34A H 0.2554 0.0933 0.5119
H35A H 0.2367 0.0953 0.5642
H36A H 0.1916 0.1799 0.4311
H37A H 0.1335 0.3227 0.4005
H38A H 0.0949 0.4180 0.4622
H39A H 0.1184 0.3645 0.5502
Co2A Co 0.3302 0.3037 0.3816
Cl2A Cl 0.4052 0.4108 0.3983
Cl3A Cl 0.2477 0.3660 0.3296
N3F N -0.3341 0.2578 0.0423
Co2F Co -0.1698 0.1963 -0.1184
Co2G Co 0.1698 0.1963 0.6184
N3G N 0.3341 0.2578 0.4577
Cl4 Cl 0.4517 0.2301 0.1513
Cl5 Cl 0.3484 0.1219 0.0940
C34 C 0.3755 0.2152 0.1285
H40 H 0.3579 0.2313 0.1560
H41 H 0.3660 0.2673 0.1018
loop_
_geom_bond_atom_site_label_1
_geom_bond_atom_site_label_2
_geom_bond_site_symmetry_1
_geom_bond_site_symmetry_2
Co1 Cl1 1_555 1_555
Co2 Cl2 1_555 1_555
Cl3 Co2 1_555 1_555
N1 Co1 1_555 1_555
N2 Co2 1_555 1_555
N3 C29 1_555 1_555
C1 C2 1_555 1_555
C2 C3 1_555 1_555
C3 C4 1_555 1_555
C4 C5 1_555 1_555
C5 C6 1_555 1_555
C6 C1 1_555 1_555
C7 C2 1_555 1_555
C8 C7 1_555 1_555
C9 C4 1_555 1_555
C10 C9 1_555 1_555
C11 C6 1_555 1_555
C12 C11 1_555 1_555
C13 C1 1_555 1_555
C14 C13 1_555 1_555
C15 N1 1_555 1_555
C16 C15 1_555 1_555
C17 C16 1_555 1_555
C18 C17 1_555 1_555
C19 N1 1_555 1_555
C20 C3 1_555 1_555
C21 C20 1_555 1_555
C22 N2 1_555 1_555
C23 C22 1_555 1_555
C24 C23 1_555 1_555
C25 C24 1_555 1_555
C26 N2 1_555 1_555
C27 C5 1_555 1_555
C28 C27 1_555 1_555
C29 C28 1_555 1_555
C30 C29 1_555 1_555
C31 C30 1_555 1_555
C32 C31 1_555 1_555
C33 N3 1_555 1_555
H1 C7 1_555 1_555
H2 C7 1_555 1_555
H3 C8 1_555 1_555
H4 C8 1_555 1_555
H5 C8 1_555 1_555
H6 C9 1_555 1_555
H7 C9 1_555 1_555
H8 C10 1_555 1_555
H9 C10 1_555 1_555
H10 C10 1_555 1_555
H11 C11 1_555 1_555
H12 C11 1_555 1_555
H13 C12 1_555 1_555
H14 C12 1_555 1_555
H15 C12 1_555 1_555
H16 C13 1_555 1_555
H17 C13 1_555 1_555
H18 C14 1_555 1_555
H19 C14 1_555 1_555
H20 C16 1_555 1_555
H21 C17 1_555 1_555
H22 C18 1_555 1_555
H23 C19 1_555 1_555
H24 C20 1_555 1_555
H25 C20 1_555 1_555
H26 C21 1_555 1_555
H27 C21 1_555 1_555
H28 C23 1_555 1_555
H29 C24 1_555 1_555
H30 C25 1_555 1_555
H31 C26 1_555 1_555
H32 C27 1_555 1_555
H33 C27 1_555 1_555
H34 C28 1_555 1_555
H35 C28 1_555 1_555
H36 C30 1_555 1_555
H37 C31 1_555 1_555
H38 C32 1_555 1_555
H39 C33 1_555 1_555
Cl4 C34 1_555 1_555
Cl5 C34 1_555 1_555
C34 H40 1_555 1_555
H41 C34 1_555 1_555
Cl1A Co1 1_555 1_555
N1A Co1 1_555 1_555
N2A C22A 1_555 1_555
N3A C29A 1_555 1_555
C1A C2A 1_555 1_555
C2A C3A 1_555 1_555
C3A C4A 1_555 1_555
C4A C5A 1_555 1_555
C5A C6A 1_555 1_555
C6A C1A 1_555 1_555
C7A C2A 1_555 1_555
C8A C7A 1_555 1_555
C9A C4A 1_555 1_555
C10A C9A 1_555 1_555
C11A C6A 1_555 1_555
C12A C11A 1_555 1_555
C13A C1A 1_555 1_555
C14A C13A 1_555 1_555
C15A N1A 1_555 1_555
C16A C15A 1_555 1_555
C17A C16A 1_555 1_555
C18A C17A 1_555 1_555
C19A N1A 1_555 1_555
C20A C3A 1_555 1_555
C21A C20A 1_555 1_555
C22A C21A 1_555 1_555
C23A C22A 1_555 1_555
C24A C23A 1_555 1_555
C25A C24A 1_555 1_555
C26A N2A 1_555 1_555
C27A C5A 1_555 1_555
C28A C27A 1_555 1_555
C29A C28A 1_555 1_555
C30A C29A 1_555 1_555
C31A C30A 1_555 1_555
C32A C31A 1_555 1_555
C33A N3A 1_555 1_555
H1A C7A 1_555 1_555
H2A C7A 1_555 1_555
H3A C8A 1_555 1_555
H4A C8A 1_555 1_555
H5A C8A 1_555 1_555
H6A C9A 1_555 1_555
H7A C9A 1_555 1_555
H8A C10A 1_555 1_555
H9A C10A 1_555 1_555
H10A C10A 1_555 1_555
H11A C11A 1_555 1_555
H12A C11A 1_555 1_555
H13A C12A 1_555 1_555
H14A C12A 1_555 1_555
H15A C12A 1_555 1_555
H16A C13A 1_555 1_555
H17A C13A 1_555 1_555
H18A C14A 1_555 1_555
H19A C14A 1_555 1_555
H20A C16A 1_555 1_555
H21A C17A 1_555 1_555
H22A C18A 1_555 1_555
H23A C19A 1_555 1_555
H24A C20A 1_555 1_555
H25A C20A 1_555 1_555
H26A C21A 1_555 1_555
H27A C21A 1_555 1_555
H28A C23A 1_555 1_555
H29A C24A 1_555 1_555
H30A C25A 1_555 1_555
H31A C26A 1_555 1_555
H32A C27A 1_555 1_555
H33A C27A 1_555 1_555
H34A C28A 1_555 1_555
H35A C28A 1_555 1_555
H36A C30A 1_555 1_555
H37A C31A 1_555 1_555
H38A C32A 1_555 1_555
H39A C33A 1_555 1_555
Co2A N2A 1_555 1_555
Cl2A Co2A 1_555 1_555
Cl3A Co2A 1_555 1_555
N3F Co2 1_555 1_555
Co2F N3 1_555 1_555
Co2G N3A 1_555 1_555
N3G Co2A 1_555 1_555
C14 C15 1_555 1_555
C18 C19 1_555 1_555
C21 C22 1_555 1_555
C25 C26 1_555 1_555
C32 C33 1_555 1_555
C14A C15A 1_555 1_555
C18A C19A 1_555 1_555
C25A C26A 1_555 1_555
C32A C33A 1_555 1_555

#END
