
#######################################################################
#
#                 Cambridge Crystallographic Data Centre
#                                CCDC 
#
#######################################################################
#
# If this CIF has been generated from an entry in the Cambridge 
# Structural Database, then it will include bibliographic, chemical, 
# crystal, experimental, refinement or atomic coordinate data resulting 
# from the CCDC's data processing and validation procedures.
#
#######################################################################

data_XADBEK
_symmetry_cell_setting           monoclinic
_symmetry_space_group_name_H-M   'P 2/n'
_symmetry_Int_Tables_number      13
_space_group_name_Hall           '-P 2yac'
loop_
_symmetry_equiv_pos_site_id
_symmetry_equiv_pos_as_xyz
1 x,y,z
2 1/2-x,y,1/2-z
3 -x,-y,-z
4 1/2+x,-y,1/2+z
_cell_length_a                   19.541(8)
_cell_length_b                   9.380(4)
_cell_length_c                   22.990(9)
_cell_angle_alpha                90
_cell_angle_beta                 112.74(2)
_cell_angle_gamma                90
_cell_volume                     3886.39
loop_
_atom_site_label
_atom_site_type_symbol
_atom_site_fract_x
_atom_site_fract_y
_atom_site_fract_z
Zn1 Zn 0.7500 0.3851 0.2500
Zn2 Zn 0.8175 0.2127 0.6006
Cl1 Cl 0.8029 0.2541 0.1975
Cl2 Cl 0.8881 0.2598 0.7013
Cl3 Cl 0.8407 0.3455 0.5306
N1 N 0.6685 0.5046 0.1827
N2 N 0.7140 0.2130 0.6062
N3 N 0.8313 0.9981 0.5862
C1 C 0.5909 0.6896 0.3497
C2 C 0.5860 0.5774 0.3893
C3 C 0.6030 0.6074 0.4534
C4 C 0.6275 0.7407 0.4787
C5 C 0.6342 0.8504 0.4391
C6 C 0.6150 0.8243 0.3740
C7 C 0.5582 0.4342 0.3610
C8 C 0.4750 0.4206 0.3345
C9 C 0.6437 0.7716 0.5476
C10 C 0.5774 0.8342 0.5581
C11 C 0.6153 0.9455 0.3313
C12 C 0.5415 1.0248 0.3064
C13 C 0.5700 0.6620 0.2788
C14 C 0.6378 0.6159 0.2656
C15 C 0.6189 0.5832 0.1968
C16 C 0.5573 0.6343 0.1498
C17 C 0.5454 0.6152 0.0858
C18 C 0.5985 0.5347 0.0737
C19 C 0.6572 0.4813 0.1223
C20 C 0.5929 0.4903 0.4965
C21 C 0.6618 0.3994 0.5282
C22 C 0.6546 0.2964 0.5753
C23 C 0.5922 0.2846 0.5905
C24 C 0.5903 0.1920 0.6359
C25 C 0.6495 0.1093 0.6660
C26 C 0.7113 0.1205 0.6508
C27 C 0.6641 0.9969 0.4654
C28 C 0.7489 1.0114 0.4763
C29 C 0.7994 0.9315 0.5303
C30 C 0.8148 0.7903 0.5243
C31 C 0.8631 0.7156 0.5773
C32 C 0.8962 0.7854 0.6340
C33 C 0.8791 0.9262 0.6359
H1 H 0.5760 0.4158 0.3288
H2 H 0.5773 0.3646 0.3933
H3 H 0.4553 0.4893 0.3019
H4 H 0.4606 0.3278 0.3176
H5 H 0.4566 0.4382 0.3665
H6 H 0.6568 0.6851 0.5707
H7 H 0.6839 0.8369 0.5633
H8 H 0.5373 0.7687 0.5426
H9 H 0.5883 0.8533 0.6013
H10 H 0.5641 0.9205 0.5347
H11 H 0.6534 1.0105 0.3545
H12 H 0.6249 0.9092 0.2967
H13 H 0.5317 1.0613 0.3409
H14 H 0.5432 1.1012 0.2798
H15 H 0.5033 0.9603 0.2830
H16 H 0.5502 0.7464 0.2557
H17 H 0.5337 0.5886 0.2657
H18 H 0.6739 0.6897 0.2786
H19 H 0.6578 0.5320 0.2892
H20 H 0.5202 0.6822 0.1594
H21 H 0.5039 0.6559 0.0527
H22 H 0.5918 0.5176 0.0311
H23 H 0.6928 0.4273 0.1130
H24 H 0.5535 0.4296 0.4717
H25 H 0.5806 0.5333 0.5286
H26 H 0.6710 0.3473 0.4966
H27 H 0.7025 0.4609 0.5493
H28 H 0.5503 0.3424 0.5683
H29 H 0.5467 0.1822 0.6446
H30 H 0.6509 0.0485 0.6996
H31 H 0.7530 0.0608 0.6710
H32 H 0.6577 1.0117 0.5038
H33 H 0.6363 1.0659 0.4353
H34 H 0.7619 1.1092 0.4843
H35 H 0.7562 0.9817 0.4397
H36 H 0.7917 0.7434 0.4849
H37 H 0.8730 0.6174 0.5738
H38 H 0.9299 0.7369 0.6699
H39 H 0.9016 0.9769 0.6744
Cl1A Cl 0.6971 0.2541 0.3025
N1A N 0.8315 0.5046 0.3173
N2A N 0.7860 0.2130 -0.1062
N3A N 0.6687 0.9981 -0.0862
C1A C 0.9091 0.6896 0.1503
C2A C 0.9140 0.5774 0.1107
C3A C 0.8970 0.6074 0.0466
C4A C 0.8725 0.7407 0.0213
C5A C 0.8658 0.8504 0.0609
C6A C 0.8850 0.8243 0.1260
C7A C 0.9418 0.4342 0.1390
C8A C 1.0250 0.4206 0.1655
C9A C 0.8563 0.7716 -0.0476
C10A C 0.9226 0.8342 -0.0581
C11A C 0.8847 0.9455 0.1687
C12A C 0.9585 1.0248 0.1936
C13A C 0.9300 0.6620 0.2212
C14A C 0.8622 0.6159 0.2344
C15A C 0.8811 0.5832 0.3032
C16A C 0.9427 0.6343 0.3502
C17A C 0.9546 0.6152 0.4142
C18A C 0.9015 0.5347 0.4263
C19A C 0.8428 0.4813 0.3777
C20A C 0.9071 0.4903 0.0035
C21A C 0.8382 0.3994 -0.0282
C22A C 0.8454 0.2964 -0.0753
C23A C 0.9078 0.2846 -0.0905
C24A C 0.9097 0.1920 -0.1359
C25A C 0.8505 0.1093 -0.1660
C26A C 0.7887 0.1205 -0.1508
C27A C 0.8359 0.9969 0.0346
C28A C 0.7511 1.0114 0.0237
C29A C 0.7006 0.9315 -0.0303
C30A C 0.6852 0.7903 -0.0243
C31A C 0.6369 0.7156 -0.0773
C32A C 0.6038 0.7854 -0.1340
C33A C 0.6209 0.9262 -0.1359
H1A H 0.9240 0.4158 0.1712
H2A H 0.9227 0.3646 0.1067
H3A H 1.0447 0.4893 0.1981
H4A H 1.0394 0.3278 0.1824
H5A H 1.0434 0.4382 0.1335
H6A H 0.8432 0.6851 -0.0707
H7A H 0.8161 0.8369 -0.0633
H8A H 0.9627 0.7687 -0.0426
H9A H 0.9117 0.8533 -0.1013
H10A H 0.9359 0.9205 -0.0347
H11A H 0.8466 1.0105 0.1455
H12A H 0.8751 0.9092 0.2033
H13A H 0.9683 1.0613 0.1591
H14A H 0.9568 1.1012 0.2202
H15A H 0.9967 0.9603 0.2170
H16A H 0.9498 0.7464 0.2443
H17A H 0.9663 0.5886 0.2343
H18A H 0.8261 0.6897 0.2214
H19A H 0.8422 0.5320 0.2108
H20A H 0.9798 0.6822 0.3406
H21A H 0.9961 0.6559 0.4473
H22A H 0.9082 0.5176 0.4689
H23A H 0.8072 0.4273 0.3870
H24A H 0.9465 0.4296 0.0283
H25A H 0.9194 0.5333 -0.0286
H26A H 0.8290 0.3473 0.0034
H27A H 0.7975 0.4609 -0.0493
H28A H 0.9497 0.3424 -0.0683
H29A H 0.9533 0.1822 -0.1446
H30A H 0.8491 0.0485 -0.1996
H31A H 0.7470 0.0608 -0.1710
H32A H 0.8423 1.0117 -0.0038
H33A H 0.8637 1.0659 0.0647
H34A H 0.7381 1.1092 0.0157
H35A H 0.7438 0.9817 0.0603
H36A H 0.7083 0.7434 0.0151
H37A H 0.6270 0.6174 -0.0738
H38A H 0.5701 0.7369 -0.1699
H39A H 0.5984 0.9769 -0.1744
Zn2A Zn 0.6825 0.2127 -0.1006
Cl2A Cl 0.6119 0.2598 -0.2013
Cl3A Cl 0.6593 0.3455 -0.0306
N3_2 N 0.8313 -0.0019 0.5862
Zn2_2 Zn 0.8175 1.2127 0.6006
Zn2A_2 Zn 0.6825 1.2127 -0.1006
N3A_2 N 0.6687 -0.0019 -0.0862
O1 O 0.6911 0.8847 0.1587
loop_
_geom_bond_atom_site_label_1
_geom_bond_atom_site_label_2
_geom_bond_site_symmetry_1
_geom_bond_site_symmetry_2
Zn1 Cl1 1_555 1_555
Zn2 Cl2 1_555 1_555
Cl3 Zn2 1_555 1_555
N1 Zn1 1_555 1_555
N2 Zn2 1_555 1_555
N3 C29 1_555 1_555
C1 C2 1_555 1_555
C2 C3 1_555 1_555
C3 C4 1_555 1_555
C4 C5 1_555 1_555
C5 C6 1_555 1_555
C6 C1 1_555 1_555
C7 C2 1_555 1_555
C8 C7 1_555 1_555
C9 C4 1_555 1_555
C10 C9 1_555 1_555
C11 C6 1_555 1_555
C12 C11 1_555 1_555
C13 C1 1_555 1_555
C14 C13 1_555 1_555
C15 N1 1_555 1_555
C16 C15 1_555 1_555
C17 C16 1_555 1_555
C18 C17 1_555 1_555
C19 N1 1_555 1_555
C20 C3 1_555 1_555
C21 C20 1_555 1_555
C22 N2 1_555 1_555
C23 C22 1_555 1_555
C24 C23 1_555 1_555
C25 C24 1_555 1_555
C26 N2 1_555 1_555
C27 C5 1_555 1_555
C28 C27 1_555 1_555
C29 C28 1_555 1_555
C30 C29 1_555 1_555
C31 C30 1_555 1_555
C32 C31 1_555 1_555
C33 N3 1_555 1_555
H1 C7 1_555 1_555
H2 C7 1_555 1_555
H3 C8 1_555 1_555
H4 C8 1_555 1_555
H5 C8 1_555 1_555
H6 C9 1_555 1_555
H7 C9 1_555 1_555
H8 C10 1_555 1_555
H9 C10 1_555 1_555
H10 C10 1_555 1_555
H11 C11 1_555 1_555
H12 C11 1_555 1_555
H13 C12 1_555 1_555
H14 C12 1_555 1_555
H15 C12 1_555 1_555
H16 C13 1_555 1_555
H17 C13 1_555 1_555
H18 C14 1_555 1_555
H19 C14 1_555 1_555
H20 C16 1_555 1_555
H21 C17 1_555 1_555
H22 C18 1_555 1_555
H23 C19 1_555 1_555
H24 C20 1_555 1_555
H25 C20 1_555 1_555
H26 C21 1_555 1_555
H27 C21 1_555 1_555
H28 C23 1_555 1_555
H29 C24 1_555 1_555
H30 C25 1_555 1_555
H31 C26 1_555 1_555
H32 C27 1_555 1_555
H33 C27 1_555 1_555
H34 C28 1_555 1_555
H35 C28 1_555 1_555
H36 C30 1_555 1_555
H37 C31 1_555 1_555
H38 C32 1_555 1_555
H39 C33 1_555 1_555
Cl1A Zn1 1_555 1_555
N1A Zn1 1_555 1_555
N2A C22A 1_555 1_555
N3A C29A 1_555 1_555
C1A C2A 1_555 1_555
C2A C3A 1_555 1_555
C3A C4A 1_555 1_555
C4A C5A 1_555 1_555
C5A C6A 1_555 1_555
C6A C1A 1_555 1_555
C7A C2A 1_555 1_555
C8A C7A 1_555 1_555
C9A C4A 1_555 1_555
C10A C9A 1_555 1_555
C11A C6A 1_555 1_555
C12A C11A 1_555 1_555
C13A C1A 1_555 1_555
C14A C13A 1_555 1_555
C15A N1A 1_555 1_555
C16A C15A 1_555 1_555
C17A C16A 1_555 1_555
C18A C17A 1_555 1_555
C19A N1A 1_555 1_555
C20A C3A 1_555 1_555
C21A C20A 1_555 1_555
C22A C21A 1_555 1_555
C23A C22A 1_555 1_555
C24A C23A 1_555 1_555
C25A C24A 1_555 1_555
C26A N2A 1_555 1_555
C27A C5A 1_555 1_555
C28A C27A 1_555 1_555
C29A C28A 1_555 1_555
C30A C29A 1_555 1_555
C31A C30A 1_555 1_555
C32A C31A 1_555 1_555
C33A N3A 1_555 1_555
H1A C7A 1_555 1_555
H2A C7A 1_555 1_555
H3A C8A 1_555 1_555
H4A C8A 1_555 1_555
H5A C8A 1_555 1_555
H6A C9A 1_555 1_555
H7A C9A 1_555 1_555
H8A C10A 1_555 1_555
H9A C10A 1_555 1_555
H10A C10A 1_555 1_555
H11A C11A 1_555 1_555
H12A C11A 1_555 1_555
H13A C12A 1_555 1_555
H14A C12A 1_555 1_555
H15A C12A 1_555 1_555
H16A C13A 1_555 1_555
H17A C13A 1_555 1_555
H18A C14A 1_555 1_555
H19A C14A 1_555 1_555
H20A C16A 1_555 1_555
H21A C17A 1_555 1_555
H22A C18A 1_555 1_555
H23A C19A 1_555 1_555
H24A C20A 1_555 1_555
H25A C20A 1_555 1_555
H26A C21A 1_555 1_555
H27A C21A 1_555 1_555
H28A C23A 1_555 1_555
H29A C24A 1_555 1_555
H30A C25A 1_555 1_555
H31A C26A 1_555 1_555
H32A C27A 1_555 1_555
H33A C27A 1_555 1_555
H34A C28A 1_555 1_555
H35A C28A 1_555 1_555
H36A C30A 1_555 1_555
H37A C31A 1_555 1_555
H38A C32A 1_555 1_555
H39A C33A 1_555 1_555
Zn2A N2A 1_555 1_555
Cl2A Zn2A 1_555 1_555
Cl3A Zn2A 1_555 1_555
N3_2 Zn2 1_555 1_555
Zn2_2 N3 1_555 1_555
Zn2A_2 N3A 1_555 1_555
N3A_2 Zn2A 1_555 1_555
C14 C15 1_555 1_555
C18 C19 1_555 1_555
C21 C22 1_555 1_555
C25 C26 1_555 1_555
C32 C33 1_555 1_555
C14A C15A 1_555 1_555
C18A C19A 1_555 1_555
C25A C26A 1_555 1_555
C32A C33A 1_555 1_555

#END
