
#######################################################################
#
#                 Cambridge Crystallographic Data Centre
#                                CCDC 
#
#######################################################################
#
# If this CIF has been generated from an entry in the Cambridge 
# Structural Database, then it will include bibliographic, chemical, 
# crystal, experimental, refinement or atomic coordinate data resulting 
# from the CCDC's data processing and validation procedures.
#
#######################################################################

data_XADGEQ
_symmetry_cell_setting           monoclinic
_symmetry_space_group_name_H-M   'P 21/c'
_symmetry_Int_Tables_number      14
_space_group_name_Hall           '-P 2ybc'
loop_
_symmetry_equiv_pos_site_id
_symmetry_equiv_pos_as_xyz
1 x,y,z
2 -x,1/2+y,1/2-z
3 -x,-y,-z
4 x,1/2-y,1/2+z
_cell_length_a                   11.050(2)
_cell_length_b                   10.994(2)
_cell_length_c                   10.593(2)
_cell_angle_alpha                90
_cell_angle_beta                 97.93(3)
_cell_angle_gamma                90
_cell_volume                     1274.57
loop_
_atom_site_label
_atom_site_type_symbol
_atom_site_fract_x
_atom_site_fract_y
_atom_site_fract_z
U1 U 1.0000 1.0000 0.0000
U2 U 0.49010(2) 0.82753(2) 0.176113(19)
O1 O 0.9741(4) 0.8939(4) 0.2014(4)
O2 O 0.8496(4) 1.0441(4) 0.1468(4)
O3 O 0.5853(4) 1.0244(4) 0.1999(3)
O4 O 0.6683(4) 1.2009(3) 0.2637(3)
O5 O 0.5397(4) 1.1590(4) 0.4614(3)
O6 O 0.5835(4) 1.0794(4) 0.6532(3)
O7 O 1.1111(4) 1.0913(4) 0.0895(4)
O8 O 1.1294(4) 0.8135(5) 0.0483(4)
O9 O 0.3739(4) 0.9030(4) 0.0714(4)
O10 O 0.6063(4) 0.7524(4) 0.2795(4)
O11 O 0.6405(4) 0.8528(4) 0.0277(4)
C1 C 0.8437(6) 0.9549(6) 0.3523(5)
C2 C 0.7422(5) 1.0210(6) 0.3770(5)
C3 C 0.7089(6) 1.0202(6) 0.5020(5)
C4 C 0.7765(6) 0.9480(6) 0.5957(5)
H1 H 0.7551 0.9466 0.6775
C5 C 0.8739(6) 0.8792(6) 0.5688(6)
H2 H 0.9163 0.8300 0.6312
C6 C 0.9082(6) 0.8841(6) 0.4467(6)
H3 H 0.9751 0.8393 0.4286
C7 C 0.8907(6) 0.9634(6) 0.2255(5)
C8 C 0.6601(6) 1.0872(6) 0.2717(5)
C9 C 0.6049(6) 1.0926(6) 0.5404(5)
H4 H 1.199(8) 0.817(9) 0.016(7)
H5 H 1.133(9) 0.757(7) 0.121(6)
H6 H 0.708(6) 0.911(6) 0.028(8)
H7 H 0.682(7) 0.802(6) -0.029(6)
U2B U 1.50990(2) 1.17247(2) -0.176113(19)
U2A U 0.50990(2) 1.32753(2) 0.323887(19)
U2B_2 U 0.50990(2) 1.17247(2) 0.823887(19)
U2C U 1.49010(2) 0.67247(2) -0.323887(19)
U2_2 U 1.49010(2) 0.82753(2) -0.823887(19)
O1B O 1.0259(4) 1.1061(4) -0.2014(4)
O2B O 1.1504(4) 0.9559(4) -0.1468(4)
O3B O 1.4147(4) 0.9756(4) -0.1999(3)
O4B O 1.3317(4) 0.7991(3) -0.2637(3)
O4A O 0.3317(4) 0.7009(3) 0.2363(3)
O4C O 1.6683(4) 1.2991(3) -0.2363(3)
O5B O 1.4603(4) 0.8410(4) -0.4614(3)
O5A O 0.4603(4) 0.6590(4) 0.0386(3)
O5C O 1.5397(4) 1.3410(4) -0.0386(3)
O6B O 1.4165(4) 0.9206(4) -0.6532(3)
O6B_2 O 0.4165(4) 0.9206(4) 0.3468(3)
O6_2 O 1.5835(4) 1.0794(4) -0.3468(3)
O7B O 0.8889(4) 0.9087(4) -0.0895(4)
O8B O 0.8706(4) 1.1865(5) -0.0483(4)
O9B O 1.6261(4) 1.0970(4) -0.0714(4)
O10B O 1.3937(4) 1.2476(4) -0.2795(4)
O11B O 1.3595(4) 1.1472(4) -0.0277(4)
C1B C 1.1563(6) 1.0451(6) -0.3523(5)
C2B C 1.2578(5) 0.9790(6) -0.3770(5)
C3B C 1.2911(6) 0.9798(6) -0.5020(5)
C4B C 1.2235(6) 1.0520(6) -0.5957(5)
H1B H 1.2449 1.0534 -0.6775
C5B C 1.1261(6) 1.1208(6) -0.5688(6)
H2B H 1.0837 1.1700 -0.6312
C6B C 1.0918(6) 1.1159(6) -0.4467(6)
H3B H 1.0249 1.1607 -0.4286
C7B C 1.1093(6) 1.0366(6) -0.2255(5)
C8B C 1.3399(6) 0.9128(6) -0.2717(5)
C9B C 1.3951(6) 0.9074(6) -0.5404(5)
H4B H 0.801(8) 1.183(9) -0.016(7)
H5B H 0.867(9) 1.243(7) -0.121(6)
H6B H 1.292(6) 1.089(6) -0.028(8)
H7B H 1.318(7) 1.198(6) 0.029(6)
loop_
_geom_bond_atom_site_label_1
_geom_bond_atom_site_label_2
_geom_bond_site_symmetry_1
_geom_bond_site_symmetry_2
U1 O1 1_555 1_555
U2 O3 1_555 1_555
O1 C7 1_555 1_555
O2 U1 1_555 1_555
O3 C8 1_555 1_555
O4 C8 1_555 1_555
O5 C9 1_555 1_555
O6 C9 1_555 1_555
O7 U1 1_555 1_555
O8 U1 1_555 1_555
O9 U2 1_555 1_555
O10 U2 1_555 1_555
O11 U2 1_555 1_555
C1 C2 1_555 1_555
C2 C3 1_555 1_555
C3 C4 1_555 1_555
C4 H1 1_555 1_555
C5 C4 1_555 1_555
H2 C5 1_555 1_555
C6 C1 1_555 1_555
H3 C6 1_555 1_555
C7 O2 1_555 1_555
C8 C2 1_555 1_555
C9 C3 1_555 1_555
H4 O8 1_555 1_555
H5 O8 1_555 1_555
H6 O11 1_555 1_555
H7 O11 1_555 1_555
U2B O3B 1_555 1_555
U2A O4 1_555 1_555
U2B_2 O6 1_555 1_555
U2C O4B 1_555 1_555
U2_2 O6B 1_555 1_555
O1B U1 1_555 1_555
O2B U1 1_555 1_555
O3B C8B 1_555 1_555
O4B C8B 1_555 1_555
O4A U2 1_555 1_555
O4C U2B 1_555 1_555
O5B U2C 1_555 1_555
O5A U2 1_555 1_555
O5C U2B 1_555 1_555
O6B C9B 1_555 1_555
O6B_2 U2 1_555 1_555
O6_2 U2B 1_555 1_555
O7B U1 1_555 1_555
O8B U1 1_555 1_555
O9B U2B 1_555 1_555
O10B U2B 1_555 1_555
O11B U2B 1_555 1_555
C1B C2B 1_555 1_555
C2B C3B 1_555 1_555
C3B C4B 1_555 1_555
C4B H1B 1_555 1_555
C5B C4B 1_555 1_555
H2B C5B 1_555 1_555
C6B C1B 1_555 1_555
H3B C6B 1_555 1_555
C7B O1B 1_555 1_555
C8B C2B 1_555 1_555
C9B O5B 1_555 1_555
H4B O8B 1_555 1_555
H5B O8B 1_555 1_555
H6B O11B 1_555 1_555
H7B O11B 1_555 1_555
O5 U2A 1_555 1_555
C1 C7 1_555 1_555
C5 C6 1_555 1_555
O2B C7B 1_555 1_555
C1B C7B 1_555 1_555
C3B C9B 1_555 1_555
C5B C6B 1_555 1_555

#END
