
#######################################################################
#
#                 Cambridge Crystallographic Data Centre
#                                CCDC 
#
#######################################################################
#
# If this CIF has been generated from an entry in the Cambridge 
# Structural Database, then it will include bibliographic, chemical, 
# crystal, experimental, refinement or atomic coordinate data resulting 
# from the CCDC's data processing and validation procedures.
#
#######################################################################

data_XADLIX
_symmetry_cell_setting           triclinic
_symmetry_space_group_name_H-M   'P -1'
_symmetry_Int_Tables_number      2
_space_group_name_Hall           '-P 1'
loop_
_symmetry_equiv_pos_site_id
_symmetry_equiv_pos_as_xyz
1 x,y,z
2 -x,-y,-z
_cell_length_a                   7.8612(4)
_cell_length_b                   10.0731(4)
_cell_length_c                   12.7778(7)
_cell_angle_alpha                94.995(3)
_cell_angle_beta                 90.7919(19)
_cell_angle_gamma                112.871(3)
_cell_volume                     927.49
loop_
_atom_site_label
_atom_site_type_symbol
_atom_site_fract_x
_atom_site_fract_y
_atom_site_fract_z
Pb1 Pb -0.44674(5) 0.08911(4) 0.15911(3)
Pb2 Pb -0.26260(5) 0.47626(3) 0.35728(3)
Pb3 Pb 0.28622(5) 0.64234(4) 0.29168(3)
O1 O -0.2147(9) 0.3971(7) 0.1791(5)
O2 O -0.4006(9) 0.2842(6) 0.0388(5)
O3 O 0.3024(9) 0.9816(7) 0.0176(5)
O4 O 0.2474(9) 0.8771(7) 0.1668(5)
O5 O -0.3485(9) 0.7997(7) -0.2164(5)
O6 O -0.4365(9) 0.5599(7) -0.2533(5)
O7 O -0.2359(9) 0.2296(7) 0.3530(5)
O8 O 0.0276(9) 0.4226(6) 0.3732(5)
O9 O 0.5577(9) 0.3622(6) 0.5456(5)
O10 O 0.5008(9) 0.1467(6) 0.5991(5)
O11 O 0.0481(9) -0.2856(6) 0.3696(5)
O12 O -0.1880(9) -0.2588(6) 0.2920(5)
O13 O 0.5739(10) 0.8018(8) 0.1690(6)
H1 H 0.5424 0.7758 0.1017
H2 H 0.6646 0.7767 0.1871
C1 C -0.2802(13) 0.3958(10) 0.0885(8)
C2 C -0.2119(12) 0.5314(9) 0.0356(7)
C3 C -0.2965(13) 0.5434(10) -0.0575(7)
H3 H -0.4003 0.4629 -0.0886
C4 C -0.2308(13) 0.6731(10) -0.1063(8)
C5 C -0.0717(12) 0.7839(9) -0.0669(7)
H4 H -0.0215 0.8687 -0.1025
C6 C 0.0199(13) 0.7733(10) 0.0272(8)
C7 C -0.0515(13) 0.6474(9) 0.0760(7)
H5 H 0.0097 0.6394 0.1384
C8 C 0.1999(13) 0.8850(10) 0.0735(8)
C9 C -0.3422(13) 0.6807(10) -0.1984(8)
C10 C -0.0652(13) 0.2852(9) 0.3663(7)
C11 C 0.0425(12) 0.1903(9) 0.3791(7)
C12 C 0.2131(13) 0.2511(10) 0.4335(7)
H6 H 0.2708 0.3529 0.4508
C13 C -0.0399(13) 0.0410(9) 0.3501(8)
H7 H -0.1593 0.0000 0.3155
C14 C 0.0520(13) -0.0482(9) 0.3716(7)
C15 C 0.2199(12) 0.0132(9) 0.4310(7)
H8 H 0.2805 -0.0471 0.4500
C16 C 0.2997(12) 0.1607(9) 0.4629(7)
C17 C 0.4639(13) 0.2253(10) 0.5368(8)
C18 C -0.0344(13) -0.2066(9) 0.3407(8)
O3_2 O -0.6976(9) -0.0184(7) 0.0176(5)
O3A O -0.3024(9) 0.0184(7) -0.0176(5)
O4_2 O -0.7526(9) -0.1229(7) 0.1668(5)
O5A O -0.6515(9) 0.2003(7) 0.2164(5)
O6A O -0.5635(9) 0.4401(7) 0.2533(5)
O9_2 O -0.4423(9) 0.3622(6) 0.5456(5)
O11_2 O 0.0481(9) 0.7144(6) 0.3696(5)
O12_2 O -0.1880(9) 0.7412(6) 0.2920(5)
O6A_2 O 0.4365(9) 0.4401(7) 0.2533(5)
O9A O 0.4423(9) 0.6378(6) 0.4544(5)
O10A O 0.4992(9) 0.8533(6) 0.4009(5)
O13_2 O -0.4261(10) -0.1982(8) 0.1690(6)
Pb1_2 Pb 0.55326(5) 1.08911(4) 0.15911(3)
Pb1A Pb 0.44674(5) 0.91089(4) -0.15911(3)
Pb1A_2 Pb -0.55326(5) 0.91089(4) -0.15911(3)
Pb2A Pb -0.73740(5) 0.52374(3) -0.35728(3)
Pb3A Pb -0.28622(5) 0.35766(4) -0.29168(3)
Pb2_2 Pb 0.73740(5) 0.47626(3) 0.35728(3)
Pb3A_2 Pb 0.71378(5) 0.35766(4) 0.70832(3)
Pb2_3 Pb -0.26260(5) -0.52374(3) 0.35728(3)
Pb3_2 Pb 0.28622(5) -0.35766(4) 0.29168(3)
Pb3_3 Pb -0.71378(5) -0.35766(4) 0.29168(3)
H1_2 H -0.4576 -0.2242 0.1017
H2_2 H -0.3354 -0.2233 0.1871
loop_
_geom_bond_atom_site_label_1
_geom_bond_atom_site_label_2
_geom_bond_site_symmetry_1
_geom_bond_site_symmetry_2
Pb1 O1 1_555 1_555
Pb2 O1 1_555 1_555
Pb3 O4 1_555 1_555
O1 C1 1_555 1_555
O2 Pb1 1_555 1_555
O3 C8 1_555 1_555
O4 C8 1_555 1_555
O5 C9 1_555 1_555
O6 C9 1_555 1_555
O7 Pb1 1_555 1_555
O8 Pb2 1_555 1_555
O9 C17 1_555 1_555
O10 C17 1_555 1_555
O11 C18 1_555 1_555
O12 C18 1_555 1_555
O13 Pb3 1_555 1_555
H1 O13 1_555 1_555
H2 O13 1_555 1_555
C1 O2 1_555 1_555
C2 C1 1_555 1_555
C3 C2 1_555 1_555
H3 C3 1_555 1_555
C4 C3 1_555 1_555
C5 C4 1_555 1_555
H4 C5 1_555 1_555
C6 C5 1_555 1_555
C7 C2 1_555 1_555
H5 C7 1_555 1_555
C8 C6 1_555 1_555
C9 C4 1_555 1_555
C10 O7 1_555 1_555
C11 C10 1_555 1_555
C12 C11 1_555 1_555
H6 C12 1_555 1_555
C13 C11 1_555 1_555
H7 C13 1_555 1_555
C14 C13 1_555 1_555
C15 C14 1_555 1_555
H8 C15 1_555 1_555
C16 C12 1_555 1_555
C17 C16 1_555 1_555
C18 C14 1_555 1_555
O3_2 Pb1 1_555 1_555
O3A Pb1 1_555 1_555
O4_2 Pb1 1_555 1_555
O5A Pb1 1_555 1_555
O6A Pb2 1_555 1_555
O9_2 Pb2 1_555 1_555
O11_2 Pb2 1_555 1_555
O12_2 Pb2 1_555 1_555
O6A_2 Pb3 1_555 1_555
O9A Pb3 1_555 1_555
O10A Pb3 1_555 1_555
O13_2 Pb1 1_555 1_555
Pb1_2 O3 1_555 1_555
Pb1A O3 1_555 1_555
Pb1A_2 O5 1_555 1_555
Pb2A O6 1_555 1_555
Pb3A O6 1_555 1_555
Pb2_2 O9 1_555 1_555
Pb3A_2 O9 1_555 1_555
Pb2_3 O11 1_555 1_555
Pb3_2 O11 1_555 1_555
Pb3_3 O4_2 1_555 1_555
H1_2 O13_2 1_555 1_555
H2_2 O13_2 1_555 1_555
Pb2 O7 1_555 1_555
Pb3 O8 1_555 1_555
Pb3 O11_2 1_555 1_555
O4 Pb1_2 1_555 1_555
O8 C10 1_555 1_555
O10 Pb3A_2 1_555 1_555
O12 Pb2_3 1_555 1_555
O13 Pb1_2 1_555 1_555
C6 C7 1_555 1_555
C15 C16 1_555 1_555
O6A_2 Pb2_2 1_555 1_555
O13_2 Pb3_3 1_555 1_555

#END
