
#######################################################################
#
#                 Cambridge Crystallographic Data Centre
#                                CCDC 
#
#######################################################################
#
# If this CIF has been generated from an entry in the Cambridge 
# Structural Database, then it will include bibliographic, chemical, 
# crystal, experimental, refinement or atomic coordinate data resulting 
# from the CCDC's data processing and validation procedures.
#
#######################################################################

data_XADROL
_symmetry_cell_setting           triclinic
_symmetry_space_group_name_H-M   'P -1'
_symmetry_Int_Tables_number      2
_space_group_name_Hall           '-P 1'
loop_
_symmetry_equiv_pos_site_id
_symmetry_equiv_pos_as_xyz
1 x,y,z
2 -x,-y,-z
_cell_length_a                   6.7391(17)
_cell_length_b                   7.602(4)
_cell_length_c                   10.0671(16)
_cell_angle_alpha                88.607(4)
_cell_angle_beta                 78.721(3)
_cell_angle_gamma                70.705(4)
_cell_volume                     476.92
loop_
_atom_site_label
_atom_site_type_symbol
_atom_site_fract_x
_atom_site_fract_y
_atom_site_fract_z
Cd1 Cd 0.25867(3) 0.18092(3) 0.03367(2)
P1 P -0.27291(14) 0.22226(12) 0.11596(9)
N1 N 0.0987(5) 0.1330(4) 0.3452(3)
C1 C -0.1113(6) 0.1579(5) 0.3550(4)
C2 C -0.2517(7) 0.2600(7) 0.4661(4)
H1 H -0.3978 0.2829 0.4733
C3 C -0.1837(8) 0.3286(6) 0.5659(5)
H2 H -0.2815 0.3967 0.6404
C4 C 0.0313(8) 0.2953(6) 0.5543(4)
H3 H 0.0822 0.3385 0.6219
C5 C 0.1692(7) 0.1988(6) 0.4435(4)
H4 H 0.3153 0.1775 0.4349
C6 C -0.1773(7) 0.0707(5) 0.2484(4)
H5 H -0.2898 0.0230 0.2917
H6 H -0.0558 -0.0351 0.2065
O1 O -0.0802(5) 0.2466(4) 0.0205(3)
O2 O -0.3855(5) 0.1178(4) 0.0463(3)
O3 O -0.4292(4) 0.4031(4) 0.1836(3)
O4 O 0.2413(5) 0.0384(4) 0.2401(3)
O5 O 0.1821(5) 0.4593(4) 0.1423(3)
H7 H 0.3070 0.4518 0.1683
H8 H 0.1299 0.5508 0.0867
O6 O 0.3660(5) 0.2672(4) -0.1856(3)
H9 H 0.3762 0.3828 -0.1838
H10 H 0.4904 0.1701 -0.2125
Cd1_2 Cd -0.74133(3) 0.18092(3) 0.03367(2)
Cd1A Cd -0.25867(3) -0.18092(3) -0.03367(2)
O2_2 O 0.6145(5) 0.1178(4) 0.0463(3)
O2A O 0.3855(5) -0.1178(4) -0.0463(3)
loop_
_geom_bond_atom_site_label_1
_geom_bond_atom_site_label_2
_geom_bond_site_symmetry_1
_geom_bond_site_symmetry_2
Cd1 O1 1_555 1_555
P1 C6 1_555 1_555
N1 C1 1_555 1_555
C1 C2 1_555 1_555
C2 H1 1_555 1_555
C3 C2 1_555 1_555
H2 C3 1_555 1_555
C4 C3 1_555 1_555
H3 C4 1_555 1_555
C5 N1 1_555 1_555
H4 C5 1_555 1_555
C6 C1 1_555 1_555
H5 C6 1_555 1_555
H6 C6 1_555 1_555
O1 P1 1_555 1_555
O2 P1 1_555 1_555
O3 P1 1_555 1_555
O4 Cd1 1_555 1_555
O5 Cd1 1_555 1_555
H7 O5 1_555 1_555
H8 O5 1_555 1_555
O6 Cd1 1_555 1_555
H9 O6 1_555 1_555
H10 O6 1_555 1_555
Cd1_2 O2 1_555 1_555
Cd1A O2 1_555 1_555
O2_2 Cd1 1_555 1_555
O2A Cd1 1_555 1_555
N1 O4 1_555 1_555
C4 C5 1_555 1_555

#END
