
#######################################################################
#
#                 Cambridge Crystallographic Data Centre
#                                CCDC 
#
#######################################################################
#
# If this CIF has been generated from an entry in the Cambridge 
# Structural Database, then it will include bibliographic, chemical, 
# crystal, experimental, refinement or atomic coordinate data resulting 
# from the CCDC's data processing and validation procedures.
#
#######################################################################

data_XADSAY
_symmetry_cell_setting           triclinic
_symmetry_space_group_name_H-M   'P -1'
_symmetry_Int_Tables_number      2
_space_group_name_Hall           '-P 1'
loop_
_symmetry_equiv_pos_site_id
_symmetry_equiv_pos_as_xyz
1 x,y,z
2 -x,-y,-z
_cell_length_a                   6.6294(13)
_cell_length_b                   7.5655(15)
_cell_length_c                   10.0433(19)
_cell_angle_alpha                88.847(3)
_cell_angle_beta                 78.714(4)
_cell_angle_gamma                70.543(3)
_cell_volume                     465.215
loop_
_atom_site_label
_atom_site_type_symbol
_atom_site_fract_x
_atom_site_fract_y
_atom_site_fract_z
Mn1 Mn 0.26161(6) 0.17442(5) 0.03527(4)
P1 P -0.26973(10) 0.21770(9) 0.11451(7)
N1 N 0.0999(4) 0.1383(3) 0.3433(2)
C1 C -0.1133(5) 0.1578(4) 0.3573(3)
C2 C -0.2550(5) 0.2568(5) 0.4725(3)
H1 H -0.4035 0.2767 0.4826
C3 C -0.1826(6) 0.3261(5) 0.5718(3)
H2 H -0.2803 0.3911 0.6488
C4 C 0.0372(6) 0.2980(4) 0.5559(3)
H3 H 0.0910 0.3412 0.6227
C5 C 0.1739(5) 0.2060(4) 0.4407(3)
H4 H 0.3220 0.1890 0.4285
C6 C -0.1811(5) 0.0683(4) 0.2511(3)
H5 H -0.2995 0.0255 0.2947
H6 H -0.0594 -0.0416 0.2115
O1 O -0.0678(3) 0.2357(3) 0.02169(19)
O2 O -0.3852(3) 0.1127(3) 0.04438(19)
O3 O -0.4271(3) 0.4033(3) 0.1798(2)
O4 O 0.2434(3) 0.0467(3) 0.2345(2)
O5 O 0.1815(3) 0.4494(3) 0.1332(2)
H7 H 0.3065 0.4419 0.1592
H8 H 0.1293 0.5409 0.0776
O6 O 0.3581(3) 0.2656(3) -0.1740(2)
H9 H 0.3684 0.3811 -0.1722
H10 H 0.4826 0.1685 -0.2010
Mn1_2 Mn -0.73839(6) 0.17442(5) 0.03527(4)
Mn1A Mn -0.26161(6) -0.17442(5) -0.03527(4)
O2_2 O 0.6148(3) 0.1127(3) 0.04438(19)
O2A O 0.3852(3) -0.1127(3) -0.04438(19)
loop_
_geom_bond_atom_site_label_1
_geom_bond_atom_site_label_2
_geom_bond_site_symmetry_1
_geom_bond_site_symmetry_2
Mn1 O1 1_555 1_555
P1 C6 1_555 1_555
N1 C1 1_555 1_555
C1 C2 1_555 1_555
C2 H1 1_555 1_555
C3 C2 1_555 1_555
H2 C3 1_555 1_555
C4 C3 1_555 1_555
H3 C4 1_555 1_555
C5 N1 1_555 1_555
H4 C5 1_555 1_555
C6 C1 1_555 1_555
H5 C6 1_555 1_555
H6 C6 1_555 1_555
O1 P1 1_555 1_555
O2 P1 1_555 1_555
O3 P1 1_555 1_555
O4 Mn1 1_555 1_555
O5 Mn1 1_555 1_555
H7 O5 1_555 1_555
H8 O5 1_555 1_555
O6 Mn1 1_555 1_555
H9 O6 1_555 1_555
H10 O6 1_555 1_555
Mn1_2 O2 1_555 1_555
Mn1A O2 1_555 1_555
O2_2 Mn1 1_555 1_555
O2A Mn1 1_555 1_555
N1 O4 1_555 1_555
C4 C5 1_555 1_555

#END
