
#######################################################################
#
#                 Cambridge Crystallographic Data Centre
#                                CCDC 
#
#######################################################################
#
# If this CIF has been generated from an entry in the Cambridge 
# Structural Database, then it will include bibliographic, chemical, 
# crystal, experimental, refinement or atomic coordinate data resulting 
# from the CCDC's data processing and validation procedures.
#
#######################################################################

data_XADWUW
_symmetry_cell_setting           monoclinic
_symmetry_space_group_name_H-M   'C 2/c'
_symmetry_Int_Tables_number      15
_space_group_name_Hall           '-C 2yn'
loop_
_symmetry_equiv_pos_site_id
_symmetry_equiv_pos_as_xyz
1 x,y,z
2 -x,y,1/2-z
3 1/2+x,1/2+y,z
4 1/2-x,1/2+y,1/2-z
5 -x,-y,-z
6 x,-y,1/2+z
7 1/2-x,1/2-y,-z
8 1/2+x,1/2-y,1/2+z
_cell_length_a                   18.877(4)
_cell_length_b                   18.489(4)
_cell_length_c                   15.658(3)
_cell_angle_alpha                90
_cell_angle_beta                 103.61(3)
_cell_angle_gamma                90
_cell_volume                     5311.45
loop_
_atom_site_label
_atom_site_type_symbol
_atom_site_fract_x
_atom_site_fract_y
_atom_site_fract_z
Ba1 Ba 0.940255(5) 0.268302(5) 0.856914(7)
O1 O 0.90833(8) 0.21302(9) 1.01490(10)
O2 O 1.01993(8) 0.25465(10) 1.02601(10)
O3 O 0.83377(7) 0.32426(8) 0.71736(9)
O4 O 0.92243(7) 0.27129(7) 0.66882(10)
N1 N 0.82804(9) 0.15600(9) 0.80467(11)
N2 N 0.97226(10) 0.11583(10) 0.84991(13)
N3 N 0.96530(9) 0.42383(9) 0.87660(11)
N4 N 0.84617(9) 0.36553(10) 0.92446(12)
C1 C 0.91860(10) 0.46899(10) 0.90481(13)
C2 C 0.99260(12) 0.57259(11) 0.89056(14)
H1 H 1.0023 0.6231 0.8950
C3 C 0.74711(11) 0.45300(14) 0.98359(16)
H2 H 0.7136 0.4824 1.0047
C4 C 1.02355(11) 0.45273(11) 0.85674(13)
H3 H 1.0566 0.4214 0.8376
C5 C 0.87976(12) 0.58949(12) 0.94406(15)
H4 H 0.8883 0.6401 0.9496
C6 C 0.85542(10) 0.43834(11) 0.92907(13)
C7 C 0.79016(13) 0.03052(12) 0.80602(17)
C8 C 0.93021(11) 0.54440(11) 0.91296(13)
C9 C 0.70065(12) 0.12341(13) 0.76716(15)
H5 H 0.6514 0.1390 0.7500
C10 C 0.71705(12) 0.05204(13) 0.77942(16)
H6 H 0.6792 0.0170 0.7700
C11 C 0.78825(12) 0.33830(13) 0.94749(16)
H7 H 0.7813 0.2874 0.9437
C12 C 0.82056(12) 0.56121(13) 0.96549(16)
H8 H 0.7874 0.5921 0.9850
C13 C 1.03926(12) 0.52692(12) 0.86238(14)
H9 H 1.0816 0.5451 0.8469
C14 C 0.80707(11) 0.48492(12) 0.95924(14)
C15 C 0.84446(11) 0.08473(11) 0.81765(14)
C16 C 1.04146(13) 0.09593(14) 0.8678(2)
H10 H 1.0777 0.1322 0.8710
C17 C 0.75802(11) 0.17371(12) 0.78041(15)
H11 H 0.7460 0.2235 0.7715
C18 C 0.73683(12) 0.37989(14) 0.97704(17)
H12 H 0.6959 0.3579 0.9921
C19 C 0.92053(13) 0.06390(12) 0.84353(17)
C20 C 0.93858(15) -0.00979(15) 0.8595(3)
C21 C 0.81044(16) -0.04358(14) 0.8237(3)
H13 H 0.7738 -0.0798 0.8162
C22 C 1.06369(16) 0.02384(17) 0.8822(3)
H14 H 1.1139 0.0116 0.8935
C23 C 0.88110(19) -0.06241(15) 0.8509(3)
H15 H 0.8933 -0.1116 0.8647
C24 C 1.01271(18) -0.02841(16) 0.8798(3)
H16 H 1.0272 -0.0773 0.8917
C25 C 0.85614(10) 0.29018(10) 0.66025(12)
C26 C 0.80149(10) 0.26838(9) 0.57719(13)
C27 C 0.72745(10) 0.28142(10) 0.56948(13)
H17 H 0.7118 0.3029 0.6170
C28 C 0.82370(10) 0.23674(10) 0.50708(13)
H18 H 0.8739 0.2275 0.5115
C29 C 0.96926(11) 0.23231(10) 1.05869(13)
C30 C 0.98476(11) 0.23149(10) 1.15789(13)
C31 C 0.92830(11) 0.23099(11) 1.20086(14)
H19 H 0.8792 0.2291 1.1678
C32 C 1.05667(12) 0.23329(11) 1.20786(15)
H20 H 1.0957 0.2361 1.1791
Ba1A Ba 1.059745(5) 0.268302(5) 1.643086(7)
Ba1A_2 Ba 1.059745(5) 0.268302(5) 0.643086(7)
Ba1F Ba 0.559745(5) 0.231698(5) 0.143086(7)
Ba1G Ba 0.440255(5) 0.231698(5) 0.356914(7)
O1A O 1.09167(8) 0.21302(9) 1.48510(10)
O2A O 0.98007(8) 0.25465(10) 1.47399(10)
O3F O 0.66623(7) 0.17574(8) 0.28264(9)
O3A O 1.16623(7) 0.32426(8) 1.78264(9)
O4F O 0.57757(7) 0.22871(7) 0.33118(10)
O4A O 1.07757(7) 0.27129(7) 0.83118(10)
O4A_2 O 1.07757(7) 0.27129(7) 1.83118(10)
O4_2 O 0.92243(7) 0.27129(7) 1.66882(10)
N1A N 1.17196(9) 0.15600(9) 1.69533(11)
N2A N 1.02774(10) 0.11583(10) 1.65009(13)
N3A N 1.03470(9) 0.42383(9) 1.62340(11)
N4A N 1.15383(9) 0.36553(10) 1.57554(12)
C1A C 1.08140(10) 0.46899(10) 1.59519(13)
C2A C 1.00740(12) 0.57259(11) 1.60944(14)
H1A H 0.9977 0.6231 1.6050
C3A C 1.25289(11) 0.45300(14) 1.51641(16)
H2A H 1.2864 0.4824 1.4953
C4A C 0.97645(11) 0.45273(11) 1.64326(13)
H3A H 0.9434 0.4214 1.6624
C5A C 1.12024(12) 0.58949(12) 1.55594(15)
H4A H 1.1117 0.6401 1.5504
C6A C 1.14458(10) 0.43834(11) 1.57093(13)
C7A C 1.20984(13) 0.03052(12) 1.69398(17)
C8A C 1.06979(11) 0.54440(11) 1.58704(13)
C9A C 1.29935(12) 0.12341(13) 1.73284(15)
H5A H 1.3486 0.1390 1.7500
C10A C 1.28295(12) 0.05204(13) 1.72058(16)
H6A H 1.3208 0.0170 1.7300
C11A C 1.21175(12) 0.33830(13) 1.55251(16)
H7A H 1.2187 0.2874 1.5563
C12A C 1.17944(12) 0.56121(13) 1.53451(16)
H8A H 1.2126 0.5921 1.5150
C13A C 0.96074(12) 0.52692(12) 1.63762(14)
H9A H 0.9184 0.5451 1.6531
C14A C 1.19293(11) 0.48492(12) 1.54076(14)
C15A C 1.15554(11) 0.08473(11) 1.68235(14)
C16A C 0.95854(13) 0.09593(14) 1.6322(2)
H10A H 0.9223 0.1322 1.6290
C17A C 1.24198(11) 0.17371(12) 1.71959(15)
H11A H 1.2540 0.2235 1.7285
C18A C 1.26317(12) 0.37989(14) 1.52296(17)
H12A H 1.3041 0.3579 1.5079
C19A C 1.07947(13) 0.06390(12) 1.65647(17)
C20A C 1.06142(15) -0.00979(15) 1.6405(3)
C21A C 1.18956(16) -0.04358(14) 1.6763(3)
H13A H 1.2262 -0.0798 1.6838
C22A C 0.93631(16) 0.02384(17) 1.6178(3)
H14A H 0.8861 0.0116 1.6065
C23A C 1.11890(19) -0.06241(15) 1.6491(3)
H15A H 1.1067 -0.1116 1.6353
C24A C 0.98729(18) -0.02841(16) 1.6202(3)
H16A H 0.9728 -0.0773 1.6083
C25F C 0.64386(10) 0.20982(10) 0.33975(12)
C26F C 0.69851(10) 0.23162(9) 0.42281(13)
C27F C 0.77255(10) 0.21858(10) 0.43052(13)
H17F H 0.7882 0.1971 0.3830
C28F C 0.67630(10) 0.26326(10) 0.49292(13)
H18F H 0.6261 0.2725 0.4885
C29A C 1.03074(11) 0.23231(10) 1.44131(13)
C30A C 1.01524(11) 0.23149(10) 1.34211(13)
C31A C 1.07170(11) 0.23099(11) 1.29914(14)
H19A H 1.1208 0.2291 1.3322
C32A C 0.94333(12) 0.23329(11) 1.29214(15)
H20A H 0.9043 0.2361 1.3209
loop_
_geom_bond_atom_site_label_1
_geom_bond_atom_site_label_2
_geom_bond_site_symmetry_1
_geom_bond_site_symmetry_2
Ba1 O1 1_555 1_555
O1 C29 1_555 1_555
O2 Ba1 1_555 1_555
O3 Ba1 1_555 1_555
O4 Ba1 1_555 1_555
N1 Ba1 1_555 1_555
N2 Ba1 1_555 1_555
N3 Ba1 1_555 1_555
N4 Ba1 1_555 1_555
C1 N3 1_555 1_555
C2 H1 1_555 1_555
C3 H2 1_555 1_555
C4 N3 1_555 1_555
H3 C4 1_555 1_555
C5 H4 1_555 1_555
C6 N4 1_555 1_555
C7 C10 1_555 1_555
C8 C1 1_555 1_555
C9 H5 1_555 1_555
C10 C9 1_555 1_555
H6 C10 1_555 1_555
C11 N4 1_555 1_555
H7 C11 1_555 1_555
C12 C5 1_555 1_555
H8 C12 1_555 1_555
C13 C2 1_555 1_555
H9 C13 1_555 1_555
C14 C3 1_555 1_555
C15 N1 1_555 1_555
C16 N2 1_555 1_555
H10 C16 1_555 1_555
C17 N1 1_555 1_555
H11 C17 1_555 1_555
C18 C3 1_555 1_555
H12 C18 1_555 1_555
C19 N2 1_555 1_555
C20 C19 1_555 1_555
C21 C7 1_555 1_555
H13 C21 1_555 1_555
C22 C16 1_555 1_555
H14 C22 1_555 1_555
C23 C20 1_555 1_555
H15 C23 1_555 1_555
C24 C20 1_555 1_555
H16 C24 1_555 1_555
C25 O3 1_555 1_555
C26 C25 1_555 1_555
C27 C26 1_555 1_555
H17 C27 1_555 1_555
C28 C26 1_555 1_555
H18 C28 1_555 1_555
C29 O2 1_555 1_555
C30 C29 1_555 1_555
C31 C30 1_555 1_555
H19 C31 1_555 1_555
C32 C30 1_555 1_555
H20 C32 1_555 1_555
Ba1A O1A 1_555 1_555
Ba1A_2 O4 1_555 1_555
Ba1F O3F 1_555 1_555
Ba1G O4F 1_555 1_555
O1A C29A 1_555 1_555
O2A Ba1A 1_555 1_555
O3F C25F 1_555 1_555
O3A Ba1A 1_555 1_555
O4F Ba1F 1_555 1_555
O4A Ba1 1_555 1_555
O4A_2 Ba1A 1_555 1_555
O4_2 Ba1A 1_555 1_555
N1A Ba1A 1_555 1_555
N2A Ba1A 1_555 1_555
N3A Ba1A 1_555 1_555
N4A Ba1A 1_555 1_555
C1A N3A 1_555 1_555
C2A H1A 1_555 1_555
C3A H2A 1_555 1_555
C4A N3A 1_555 1_555
H3A C4A 1_555 1_555
C5A H4A 1_555 1_555
C6A N4A 1_555 1_555
C7A C10A 1_555 1_555
C8A C1A 1_555 1_555
C9A H5A 1_555 1_555
C10A C9A 1_555 1_555
H6A C10A 1_555 1_555
C11A N4A 1_555 1_555
H7A C11A 1_555 1_555
C12A C5A 1_555 1_555
H8A C12A 1_555 1_555
C13A C2A 1_555 1_555
H9A C13A 1_555 1_555
C14A C3A 1_555 1_555
C15A N1A 1_555 1_555
C16A N2A 1_555 1_555
H10A C16A 1_555 1_555
C17A N1A 1_555 1_555
H11A C17A 1_555 1_555
C18A C3A 1_555 1_555
H12A C18A 1_555 1_555
C19A N2A 1_555 1_555
C20A C19A 1_555 1_555
C21A C7A 1_555 1_555
H13A C21A 1_555 1_555
C22A C16A 1_555 1_555
H14A C22A 1_555 1_555
C23A C20A 1_555 1_555
H15A C23A 1_555 1_555
C24A C20A 1_555 1_555
H16A C24A 1_555 1_555
C25F O4F 1_555 1_555
C26F C25F 1_555 1_555
C27F C28 1_555 1_555
H17F C27F 1_555 1_555
C28F C27 1_555 1_555
H18F C28F 1_555 1_555
C29A O2A 1_555 1_555
C30A C29A 1_555 1_555
C31A C32 1_555 1_555
H19A C31A 1_555 1_555
C32A C31 1_555 1_555
H20A C32A 1_555 1_555
O4 C25 1_555 1_555
C1 C6 1_555 1_555
C2 C8 1_555 1_555
C4 C13 1_555 1_555
C5 C8 1_555 1_555
C6 C14 1_555 1_555
C7 C15 1_555 1_555
C9 C17 1_555 1_555
C11 C18 1_555 1_555
C12 C14 1_555 1_555
C15 C19 1_555 1_555
C21 C23 1_555 1_555
C22 C24 1_555 1_555
Ba1A_2 O4A 1_555 1_555
C1A C6A 1_555 1_555
C2A C8A 1_555 1_555
C4A C13A 1_555 1_555
C5A C8A 1_555 1_555
C6A C14A 1_555 1_555
C7A C15A 1_555 1_555
C9A C17A 1_555 1_555
C11A C18A 1_555 1_555
C12A C14A 1_555 1_555
C15A C19A 1_555 1_555
C21A C23A 1_555 1_555
C22A C24A 1_555 1_555
C26F C27F 1_555 1_555
C26F C28F 1_555 1_555
C30A C31A 1_555 1_555
C30A C32A 1_555 1_555

#END
