
#######################################################################
#
#                 Cambridge Crystallographic Data Centre
#                                CCDC 
#
#######################################################################
#
# If this CIF has been generated from an entry in the Cambridge 
# Structural Database, then it will include bibliographic, chemical, 
# crystal, experimental, refinement or atomic coordinate data resulting 
# from the CCDC's data processing and validation procedures.
#
#######################################################################

data_XADWIK02
_symmetry_cell_setting           monoclinic
_symmetry_space_group_name_H-M   'C 2/c'
_symmetry_Int_Tables_number      15
_space_group_name_Hall           '-C 2yn'
loop_
_symmetry_equiv_pos_site_id
_symmetry_equiv_pos_as_xyz
1 x,y,z
2 -x,y,1/2-z
3 1/2+x,1/2+y,z
4 1/2-x,1/2+y,1/2-z
5 -x,-y,-z
6 x,-y,1/2+z
7 1/2-x,1/2-y,-z
8 1/2+x,1/2-y,1/2+z
_cell_length_a                   19.636(3)
_cell_length_b                   12.042(2)
_cell_length_c                   19.526(3)
_cell_angle_alpha                90
_cell_angle_beta                 104.685(9)
_cell_angle_gamma                90
_cell_volume                     4466.23
loop_
_atom_site_label
_atom_site_type_symbol
_atom_site_fract_x
_atom_site_fract_y
_atom_site_fract_z
Ni1 Ni 0.92424(3) 0.18708(5) 0.50248(3)
O1 O 0.83640(15) 0.0785(3) 0.50213(17)
O2 O 0.94194(14) 0.0437(3) 0.56748(16)
O3 O 0.87533(18) 0.6994(3) 0.93169(17)
O4 O 0.9379(2) 0.7098(4) 0.8514(2)
O5 O 0.94609(19) 0.0990(3) 0.41878(19)
N1 N 0.5277(2) -0.2571(4) 0.5330(2)
N2 N 0.89136(19) 0.2765(3) 0.5799(2)
C1 C 0.8765(2) 0.0206(4) 0.5478(2)
C2 C 0.8492(2) -0.0738(4) 0.5810(2)
C3 C 0.8922(3) -0.1353(5) 0.6350(3)
H1 H 0.9400 -0.1195 0.6495
C4 C 0.8647(3) -0.2192(6) 0.6673(4)
H2 H 0.8941 -0.2603 0.7033
C5 C 0.7936(3) -0.2431(6) 0.6468(3)
H3 H 0.7755 -0.3001 0.6691
C6 C 0.7489(2) -0.1829(5) 0.5933(3)
C7 C 0.7772(2) -0.0988(4) 0.5606(2)
H4 H 0.7479 -0.0581 0.5245
C8 C 0.6717(2) -0.2070(4) 0.5721(3)
C9 C 0.6455(3) -0.3010(5) 0.5924(4)
H5 H 0.6759 -0.3519 0.6203
C10 C 0.5748(3) -0.3231(5) 0.5726(4)
H6 H 0.5592 -0.3890 0.5883
C11 C 0.5523(3) -0.1642(6) 0.5134(4)
H7 H 0.5209 -0.1151 0.4851
C12 C 0.6225(3) -0.1360(6) 0.5329(4)
H8 H 0.6368 -0.0677 0.5192
C13 C 0.8880(3) 0.6758(5) 0.8728(3)
C14 C 0.8369(3) 0.5980(4) 0.8254(2)
C15 C 0.7660(3) 0.5977(5) 0.8244(3)
H9 H 0.7499 0.6414 0.8564
C16 C 0.7193(3) 0.5326(5) 0.7761(3)
H10 H 0.6716 0.5342 0.7748
C17 C 0.7426(3) 0.4656(5) 0.7300(3)
H11 H 0.7108 0.4210 0.6983
C18 C 0.8137(3) 0.4637(4) 0.7303(2)
C19 C 0.8602(3) 0.5304(5) 0.7785(2)
H12 H 0.9077 0.5298 0.7793
C20 C 0.8394(2) 0.3956(4) 0.6793(2)
C21 C 0.8016(3) 0.3850(5) 0.6100(2)
H13 H 0.7574 0.4175 0.5950
C22 C 0.8291(2) 0.3267(5) 0.5628(3)
H14 H 0.8025 0.3220 0.5162
C23 C 0.9265(3) 0.2827(5) 0.6476(3)
H15 H 0.9694 0.2457 0.6617
C24 C 0.9035(3) 0.3406(6) 0.6981(3)
H16 H 0.9307 0.3428 0.7446
H17 H 0.952(3) 0.164(6) 0.394(3)
H18 H 0.986(4) 0.055(6) 0.422(3)
Ni1B Ni 0.42424(3) -0.31292(5) 0.50248(3)
Ni1E Ni 0.92424(3) 0.81292(5) 1.00248(3)
O3E O 0.87533(18) 0.3006(3) 0.43169(17)
N1B N 1.0277(2) 0.2429(4) 0.5330(2)
loop_
_geom_bond_atom_site_label_1
_geom_bond_atom_site_label_2
_geom_bond_site_symmetry_1
_geom_bond_site_symmetry_2
Ni1 O1 1_555 1_555
O1 C1 1_555 1_555
O2 Ni1 1_555 1_555
O3 C13 1_555 1_555
O4 C13 1_555 1_555
O5 Ni1 1_555 1_555
N1 C10 1_555 1_555
N2 Ni1 1_555 1_555
C1 O2 1_555 1_555
C2 C1 1_555 1_555
C3 C2 1_555 1_555
H1 C3 1_555 1_555
C4 C3 1_555 1_555
H2 C4 1_555 1_555
C5 C4 1_555 1_555
H3 C5 1_555 1_555
C6 C5 1_555 1_555
C7 C2 1_555 1_555
H4 C7 1_555 1_555
C8 C6 1_555 1_555
C9 C8 1_555 1_555
H5 C9 1_555 1_555
C10 C9 1_555 1_555
H6 C10 1_555 1_555
C11 N1 1_555 1_555
H7 C11 1_555 1_555
C12 C8 1_555 1_555
H8 C12 1_555 1_555
C13 C14 1_555 1_555
C14 C15 1_555 1_555
C15 H9 1_555 1_555
C16 C15 1_555 1_555
H10 C16 1_555 1_555
C17 C16 1_555 1_555
H11 C17 1_555 1_555
C18 C17 1_555 1_555
C19 C14 1_555 1_555
H12 C19 1_555 1_555
C20 C18 1_555 1_555
C21 C20 1_555 1_555
H13 C21 1_555 1_555
C22 N2 1_555 1_555
H14 C22 1_555 1_555
C23 N2 1_555 1_555
H15 C23 1_555 1_555
C24 C20 1_555 1_555
H16 C24 1_555 1_555
H17 O5 1_555 1_555
H18 O5 1_555 1_555
Ni1B N1 1_555 1_555
Ni1E O3 1_555 1_555
O3E Ni1 1_555 1_555
N1B Ni1 1_555 1_555
C6 C7 1_555 1_555
C11 C12 1_555 1_555
C18 C19 1_555 1_555
C21 C22 1_555 1_555
C23 C24 1_555 1_555

#END
