
#######################################################################
#
#                 Cambridge Crystallographic Data Centre
#                                CCDC 
#
#######################################################################
#
# If this CIF has been generated from an entry in the Cambridge 
# Structural Database, then it will include bibliographic, chemical, 
# crystal, experimental, refinement or atomic coordinate data resulting 
# from the CCDC's data processing and validation procedures.
#
#######################################################################

data_XAFCIS
_symmetry_cell_setting           monoclinic
_symmetry_space_group_name_H-M   'P 21/n'
_symmetry_Int_Tables_number      14
_space_group_name_Hall           '-P 2yn'
loop_
_symmetry_equiv_pos_site_id
_symmetry_equiv_pos_as_xyz
1 x,y,z
2 1/2-x,1/2+y,1/2-z
3 -x,-y,-z
4 1/2+x,1/2-y,1/2+z
_cell_length_a                   7.844(5)
_cell_length_b                   11.054(7)
_cell_length_c                   21.656(14)
_cell_angle_alpha                90
_cell_angle_beta                 94.310(9)
_cell_angle_gamma                90
_cell_volume                     1872.43
loop_
_atom_site_label
_atom_site_type_symbol
_atom_site_fract_x
_atom_site_fract_y
_atom_site_fract_z
Cd1 Cd 0.58294(4) 1.02614(3) 0.783787(13)
S1 S 1.01301(14) 0.94622(9) 0.79679(6)
N1 N 0.4944(5) 0.9825(3) 0.68126(18)
C1 C 0.4627(7) 1.0730(4) 0.6408(2)
H1 H 0.4794 1.1526 0.6538
C2 C 0.4061(9) 1.0499(5) 0.5809(3)
H2 H 0.3843 1.1143 0.5538
C3 C 0.3808(8) 0.9344(5) 0.5598(2)
H3 H 0.3432 0.9194 0.5187
C4 C 0.4128(6) 0.8398(4) 0.60142(19)
C5 C 0.4677(6) 0.8697(4) 0.66137(19)
H4 H 0.4872 0.8072 0.6897
N2 N 0.3939(5) 0.7165(3) 0.58818(16)
H5 H 0.4268 0.6668 0.6172
C6 C 0.3275(6) 0.6670(4) 0.5330(2)
O1 O 0.2869(5) 0.7263(3) 0.48719(14)
N3 N 0.3144(6) 0.5437(3) 0.53632(18)
H6 H 0.3537 0.5104 0.5703
C7 C 0.2435(6) 0.4661(4) 0.4901(2)
C8 C 0.2135(6) 0.4977(4) 0.4286(2)
H7 H 0.2403 0.5756 0.4162
N4 N 0.1460(5) 0.4185(3) 0.38582(15)
C9 C 0.1110(7) 0.3049(4) 0.4032(2)
H8 H 0.0671 0.2497 0.3737
C10 C 0.1393(7) 0.2690(4) 0.4639(2)
H9 H 0.1122 0.1907 0.4755
C11 C 0.2079(7) 0.3493(4) 0.5074(2)
H10 H 0.2301 0.3250 0.5483
O2 O 0.8311(4) 0.9141(3) 0.78549(16)
O3 O 1.1101(5) 0.8893(3) 0.7509(2)
O4 O 1.0750(6) 0.9017(4) 0.8575(2)
O5 O 1.0312(4) 1.0785(3) 0.79556(17)
O6 O 0.7374(4) 1.1837(3) 0.74765(17)
O7 O 0.3556(4) 1.1582(3) 0.78249(16)
O8 O 0.4490(4) 0.8496(3) 0.80955(15)
Cd1C Cd 0.08294(4) 0.47386(3) 0.283787(13)
N4C N 0.6460(5) 1.0815(3) 0.88582(15)
O9 O 0.5421(7) 0.6900(4) 0.8984(2)
H11 H 0.6213 0.7125 0.9226
C12 C 0.5588(12) 0.5619(8) 0.8868(4)
H12 H 0.6767 0.5428 0.8825
H13 H 0.4920 0.5409 0.8493
H14 H 0.5188 0.5170 0.9208
loop_
_geom_bond_atom_site_label_1
_geom_bond_atom_site_label_2
_geom_bond_site_symmetry_1
_geom_bond_site_symmetry_2
Cd1 N1 1_555 1_555
S1 O2 1_555 1_555
N1 C1 1_555 1_555
C1 H1 1_555 1_555
C2 C1 1_555 1_555
H2 C2 1_555 1_555
C3 C2 1_555 1_555
H3 C3 1_555 1_555
C4 C3 1_555 1_555
C5 N1 1_555 1_555
H4 C5 1_555 1_555
N2 C4 1_555 1_555
H5 N2 1_555 1_555
C6 N2 1_555 1_555
O1 C6 1_555 1_555
N3 C6 1_555 1_555
H6 N3 1_555 1_555
C7 N3 1_555 1_555
C8 C7 1_555 1_555
H7 C8 1_555 1_555
N4 C8 1_555 1_555
C9 N4 1_555 1_555
H8 C9 1_555 1_555
C10 C9 1_555 1_555
H9 C10 1_555 1_555
C11 C7 1_555 1_555
H10 C11 1_555 1_555
O2 Cd1 1_555 1_555
O3 S1 1_555 1_555
O4 S1 1_555 1_555
O5 S1 1_555 1_555
O6 Cd1 1_555 1_555
O7 Cd1 1_555 1_555
O8 Cd1 1_555 1_555
O9 H11 1_555 1_555
C12 O9 1_555 1_555
H12 C12 1_555 1_555
H13 C12 1_555 1_555
H14 C12 1_555 1_555
Cd1C N4 1_555 1_555
N4C Cd1 1_555 1_555
C4 C5 1_555 1_555
C10 C11 1_555 1_555

#END
