
#######################################################################
#
#                 Cambridge Crystallographic Data Centre
#                                CCDC 
#
#######################################################################
#
# If this CIF has been generated from an entry in the Cambridge 
# Structural Database, then it will include bibliographic, chemical, 
# crystal, experimental, refinement or atomic coordinate data resulting 
# from the CCDC's data processing and validation procedures.
#
#######################################################################

data_XAFCAK
_symmetry_cell_setting           triclinic
_symmetry_space_group_name_H-M   'P -1'
_symmetry_Int_Tables_number      2
_space_group_name_Hall           '-P 1'
loop_
_symmetry_equiv_pos_site_id
_symmetry_equiv_pos_as_xyz
1 x,y,z
2 -x,-y,-z
_cell_length_a                   8.9312(9)
_cell_length_b                   12.6841(13)
_cell_length_c                   13.7130(13)
_cell_angle_alpha                87.699(2)
_cell_angle_beta                 81.445(2)
_cell_angle_gamma                82.031(2)
_cell_volume                     1521.05
loop_
_atom_site_label
_atom_site_type_symbol
_atom_site_fract_x
_atom_site_fract_y
_atom_site_fract_z
Cd1 Cd 0.263321(17) 0.262002(12) 0.721586(11)
S1 S -0.13209(6) 0.21412(5) 0.78727(4)
N1 N 0.2135(2) 0.34786(16) 0.87381(15)
C1 C 0.1389(3) 0.3010(2) 0.95107(19)
H1 H 0.1053 0.2362 0.9425
C2 C 0.1095(3) 0.3451(2) 1.04374(19)
H2 H 0.0566 0.3109 1.0965
C3 C 0.1597(3) 0.4405(2) 1.05645(18)
H3 H 0.1417 0.4710 1.1183
C4 C 0.2371(3) 0.49113(19) 0.97733(17)
C5 C 0.2620(3) 0.44160(19) 0.88642(18)
H4 H 0.3140 0.4745 0.8324
N2 N 0.2806(3) 0.58988(16) 0.99323(15)
H5 H 0.2367 0.6213 1.0464
C6 C 0.3845(3) 0.64261(19) 0.93441(18)
O1 O 0.4549(2) 0.60879(16) 0.85594(15)
N3 N 0.4032(3) 0.73678(15) 0.97067(15)
H6 H 0.3452 0.7596 1.0235
C7 C 0.5166(3) 0.80034(19) 0.9240(2)
H7 H 0.5801 0.7602 0.8707
H8 H 0.5818 0.8130 0.9717
C8 C 0.4515(3) 0.90596(18) 0.88323(16)
C9 C 0.5334(3) 0.99186(19) 0.87662(17)
H9 H 0.6282 0.9849 0.8982
C10 C 0.4738(3) 1.08699(19) 0.83810(17)
H10 H 0.5301 1.1438 0.8349
N4 N 0.3387(2) 1.10274(15) 0.80480(14)
C11 C 0.2604(3) 1.01989(19) 0.81198(19)
H11 H 0.1658 1.0288 0.7899
C12 C 0.3118(3) 0.92189(19) 0.85030(19)
H12 H 0.2525 0.8667 0.8539
N5 N 0.3286(2) 0.17102(15) 0.57116(14)
C13 C 0.4255(3) 0.2044(2) 0.49654(19)
H13 H 0.4746 0.2625 0.5055
C14 C 0.4551(3) 0.1553(2) 0.4065(2)
H14 H 0.5224 0.1806 0.3555
C15 C 0.3845(3) 0.0689(2) 0.39294(18)
H15 H 0.4031 0.0354 0.3324
C16 C 0.2852(3) 0.03175(17) 0.47007(16)
C17 C 0.2595(3) 0.08656(17) 0.55838(17)
H16 H 0.1917 0.0635 0.6104
N6 N 0.2131(2) -0.05546(15) 0.45471(14)
H17 H 0.2146 -0.0721 0.3944
C18 C 0.1398(3) -0.11798(18) 0.52561(17)
O2 O 0.1263(2) -0.10216(15) 0.61377(13)
N7 N 0.0858(2) -0.19946(15) 0.48769(15)
H18 H 0.1109 -0.2125 0.4259
C19 C -0.0125(3) -0.26516(19) 0.5478(2)
H19 H -0.0932 -0.2772 0.5111
H20 H -0.0602 -0.2258 0.6060
C20 C 0.0625(3) -0.37143(18) 0.58060(17)
C21 C 0.2133(3) -0.4103(2) 0.5555(2)
H21 H 0.2781 -0.3697 0.5157
C22 C 0.2697(3) -0.5096(2) 0.5891(2)
H22 H 0.3730 -0.5335 0.5712
N8 N 0.1850(2) -0.57314(15) 0.64549(15)
C23 C 0.0380(3) -0.5353(2) 0.6683(2)
H23 H -0.0252 -0.5778 0.7072
C24 C -0.0256(3) -0.4373(2) 0.6378(2)
H24 H -0.1294 -0.4152 0.6560
O3 O 0.02297(17) 0.21074(13) 0.73158(13)
O4 O -0.1902(2) 0.32545(15) 0.81552(14)
O5 O -0.22937(18) 0.17910(14) 0.72056(13)
O6 O -0.1335(3) 0.14655(19) 0.87448(15)
O7 O 0.5110(2) 0.30738(18) 0.68568(16)
H25 H 0.530(4) 0.370(3) 0.700(2)
H26 H 0.584(4) 0.268(3) 0.693(2)
Cd1_2 Cd 0.263321(17) 1.262002(12) 0.721586(11)
Cd1_3 Cd 0.263321(17) -0.737998(12) 0.721586(11)
N4_2 N 0.3387(2) 0.10274(15) 0.80480(14)
N8_2 N 0.1850(2) 0.42686(15) 0.64549(15)
O8 O 0.3670(2) 0.51669(17) 0.28143(17)
loop_
_geom_bond_atom_site_label_1
_geom_bond_atom_site_label_2
_geom_bond_site_symmetry_1
_geom_bond_site_symmetry_2
Cd1 N1 1_555 1_555
S1 O3 1_555 1_555
N1 C1 1_555 1_555
C1 H1 1_555 1_555
C2 C1 1_555 1_555
H2 C2 1_555 1_555
C3 C2 1_555 1_555
H3 C3 1_555 1_555
C4 C3 1_555 1_555
C5 N1 1_555 1_555
H4 C5 1_555 1_555
N2 C4 1_555 1_555
H5 N2 1_555 1_555
C6 N2 1_555 1_555
O1 C6 1_555 1_555
N3 C6 1_555 1_555
H6 N3 1_555 1_555
C7 N3 1_555 1_555
H7 C7 1_555 1_555
H8 C7 1_555 1_555
C8 C7 1_555 1_555
C9 C8 1_555 1_555
H9 C9 1_555 1_555
C10 C9 1_555 1_555
H10 C10 1_555 1_555
N4 C10 1_555 1_555
C11 N4 1_555 1_555
H11 C11 1_555 1_555
C12 C8 1_555 1_555
H12 C12 1_555 1_555
N5 Cd1 1_555 1_555
C13 N5 1_555 1_555
H13 C13 1_555 1_555
C14 C13 1_555 1_555
H14 C14 1_555 1_555
C15 C14 1_555 1_555
H15 C15 1_555 1_555
C16 C15 1_555 1_555
C17 N5 1_555 1_555
H16 C17 1_555 1_555
N6 C16 1_555 1_555
H17 N6 1_555 1_555
C18 N6 1_555 1_555
O2 C18 1_555 1_555
N7 C18 1_555 1_555
H18 N7 1_555 1_555
C19 N7 1_555 1_555
H19 C19 1_555 1_555
H20 C19 1_555 1_555
C20 C19 1_555 1_555
C21 C20 1_555 1_555
H21 C21 1_555 1_555
C22 C21 1_555 1_555
H22 C22 1_555 1_555
N8 C22 1_555 1_555
C23 N8 1_555 1_555
H23 C23 1_555 1_555
C24 C20 1_555 1_555
H24 C24 1_555 1_555
O3 Cd1 1_555 1_555
O4 S1 1_555 1_555
O5 S1 1_555 1_555
O6 S1 1_555 1_555
O7 Cd1 1_555 1_555
H25 O7 1_555 1_555
H26 O7 1_555 1_555
Cd1_2 N4 1_555 1_555
Cd1_3 N8 1_555 1_555
N4_2 Cd1 1_555 1_555
N8_2 Cd1 1_555 1_555
C4 C5 1_555 1_555
C11 C12 1_555 1_555
C16 C17 1_555 1_555
C23 C24 1_555 1_555

#END
