
#######################################################################
#
#                 Cambridge Crystallographic Data Centre
#                                CCDC 
#
#######################################################################
#
# If this CIF has been generated from an entry in the Cambridge 
# Structural Database, then it will include bibliographic, chemical, 
# crystal, experimental, refinement or atomic coordinate data resulting 
# from the CCDC's data processing and validation procedures.
#
#######################################################################

data_XAFCOY
_symmetry_cell_setting           orthorhombic
_symmetry_space_group_name_H-M   'P 21 21 21'
_symmetry_Int_Tables_number      19
_space_group_name_Hall           'P 2ac 2ab'
loop_
_symmetry_equiv_pos_site_id
_symmetry_equiv_pos_as_xyz
1 x,y,z
2 1/2-x,-y,1/2+z
3 -x,1/2+y,1/2-z
4 1/2+x,1/2-y,-z
_cell_length_a                   8.5328(5)
_cell_length_b                   8.9113(5)
_cell_length_c                   23.9587(14)
_cell_angle_alpha                90
_cell_angle_beta                 90
_cell_angle_gamma                90
_cell_volume                     1821.78
loop_
_atom_site_label
_atom_site_type_symbol
_atom_site_fract_x
_atom_site_fract_y
_atom_site_fract_z
Cd1 Cd 0.35765(3) 0.84606(3) 0.229927(12)
S1 S 0.71767(10) 0.71446(10) 0.22709(5)
N1 N 0.3461(5) 0.7741(4) 0.32201(14)
C1 C 0.4190(6) 0.8572(6) 0.36071(19)
H1 H 0.4704 0.9446 0.3500
C2 C 0.4195(7) 0.8158(6) 0.4161(2)
H2 H 0.4714 0.8748 0.4423
C3 C 0.3439(6) 0.6883(5) 0.43276(18)
H3 H 0.3430 0.6607 0.4702
C4 C 0.2688(5) 0.6009(5) 0.39342(18)
C5 C 0.2715(5) 0.6498(5) 0.33816(17)
H4 H 0.2191 0.5934 0.3114
N2 N 0.1941(5) 0.4643(4) 0.40381(15)
H5 H 0.1864 0.4020 0.3765
C6 C 0.1317(6) 0.4216(5) 0.45468(18)
O1 O 0.1401(5) 0.4995(4) 0.49667(13)
N3 N 0.0611(5) 0.2862(5) 0.45333(17)
H6 H 0.0658 0.2323 0.4236
C7 C -0.0226(6) 0.2316(6) 0.5018(2)
H7 H -0.1083 0.1685 0.4893
H8 H -0.0676 0.3166 0.5213
C8 C 0.0772(5) 0.1437(6) 0.54195(18)
C9 C 0.0711(6) 0.1717(6) 0.59817(18)
H9 H 0.0104 0.2520 0.6103
N4 N 0.1466(5) 0.0912(4) 0.63658(14)
C10 C 0.2330(6) -0.0235(6) 0.6191(2)
H10 H 0.2850 -0.0820 0.6453
C11 C 0.2483(7) -0.0589(6) 0.5631(2)
H11 H 0.3104 -0.1394 0.5520
C12 C 0.1723(7) 0.0246(6) 0.52457(19)
H12 H 0.1831 0.0031 0.4868
O2 O 0.6288(3) 0.8573(3) 0.23373(12)
O3 O 0.6136(3) 0.5913(3) 0.24428(13)
O4 O 0.7629(4) 0.6982(4) 0.16911(13)
O5 O 0.8586(3) 0.7181(3) 0.26245(12)
O6 O 0.0871(3) 0.9062(3) 0.22703(17)
O7 O 0.2843(4) 0.6090(3) 0.20189(14)
Cd1A Cd 0.14235(3) 0.15394(3) 0.729927(12)
Cd1B Cd 0.64235(3) 0.34606(3) 0.270073(12)
N4A N 0.3534(5) 0.9088(4) 0.13658(14)
O3B O 0.3864(3) 1.0913(3) 0.25572(13)
O8 O 0.0334(4) 0.5656(5) 0.13529(17)
H13 H -0.0498 0.5804 0.1515
C13 C 0.0376(8) 0.4189(7) 0.1157(3)
H14 H 0.1429 0.3936 0.1052
H15 H -0.0300 0.4097 0.0839
H16 H 0.0027 0.3520 0.1446
loop_
_geom_bond_atom_site_label_1
_geom_bond_atom_site_label_2
_geom_bond_site_symmetry_1
_geom_bond_site_symmetry_2
Cd1 N1 1_555 1_555
S1 O2 1_555 1_555
N1 C1 1_555 1_555
C1 H1 1_555 1_555
C2 C1 1_555 1_555
H2 C2 1_555 1_555
C3 C2 1_555 1_555
H3 C3 1_555 1_555
C4 C3 1_555 1_555
C5 N1 1_555 1_555
H4 C5 1_555 1_555
N2 C4 1_555 1_555
H5 N2 1_555 1_555
C6 N2 1_555 1_555
O1 C6 1_555 1_555
N3 C6 1_555 1_555
H6 N3 1_555 1_555
C7 N3 1_555 1_555
H7 C7 1_555 1_555
H8 C7 1_555 1_555
C8 C7 1_555 1_555
C9 C8 1_555 1_555
H9 C9 1_555 1_555
N4 C9 1_555 1_555
C10 N4 1_555 1_555
H10 C10 1_555 1_555
C11 C10 1_555 1_555
H11 C11 1_555 1_555
C12 C8 1_555 1_555
H12 C12 1_555 1_555
O2 Cd1 1_555 1_555
O3 S1 1_555 1_555
O4 S1 1_555 1_555
O5 S1 1_555 1_555
O6 Cd1 1_555 1_555
O7 Cd1 1_555 1_555
O8 H13 1_555 1_555
C13 O8 1_555 1_555
H14 C13 1_555 1_555
H15 C13 1_555 1_555
H16 C13 1_555 1_555
Cd1A N4 1_555 1_555
Cd1B O3 1_555 1_555
N4A Cd1 1_555 1_555
O3B Cd1 1_555 1_555
C4 C5 1_555 1_555
C11 C12 1_555 1_555

#END
