
#######################################################################
#
#                 Cambridge Crystallographic Data Centre
#                                CCDC 
#
#######################################################################
#
# If this CIF has been generated from an entry in the Cambridge 
# Structural Database, then it will include bibliographic, chemical, 
# crystal, experimental, refinement or atomic coordinate data resulting 
# from the CCDC's data processing and validation procedures.
#
#######################################################################

data_XAFKAQ01
_symmetry_cell_setting           orthorhombic
_symmetry_space_group_name_H-M   'P n n m'
_symmetry_Int_Tables_number      58
_space_group_name_Hall           '-P 2 2n'
loop_
_symmetry_equiv_pos_site_id
_symmetry_equiv_pos_as_xyz
1 x,y,z
2 x,y,-z
3 1/2+x,1/2-y,1/2+z
4 1/2-x,1/2+y,1/2+z
5 -x,-y,-z
6 -x,-y,z
7 1/2-x,1/2+y,1/2-z
8 1/2+x,1/2-y,1/2-z
_cell_length_a                   32.999(2)
_cell_length_b                   17.1473(11)
_cell_length_c                   20.9802(13)
_cell_angle_alpha                90
_cell_angle_beta                 90
_cell_angle_gamma                90
_cell_volume                     11871.5
loop_
_atom_site_label
_atom_site_type_symbol
_atom_site_fract_x
_atom_site_fract_y
_atom_site_fract_z
Ni1 Ni 0.239923(7) 0.881555(13) 0.251346(11)
Ni2 Ni 0.5000 1.0000 0.245106(17)
Fe1 Fe 0.348789(8) 1.118209(15) 0.241303(14)
O1 O 0.29548(4) 1.08506(7) 0.19302(7)
O2 O 0.34070(4) 1.01355(7) 0.29221(7)
O3 O 0.30944(4) 1.17117(7) 0.30416(7)
O4 O 0.35034(4) 1.22704(7) 0.19738(7)
O5 O 0.38445(4) 1.04859(8) 0.18318(6)
O6 O 0.40350(3) 1.14327(8) 0.28691(7)
N1 N 0.21307(5) 0.95304(9) 0.18322(8)
N2 N 0.27952(4) 0.97135(8) 0.24984(7)
N3 N 0.28086(5) 0.84802(9) 0.32270(8)
N4 N 0.23272(5) 1.31331(9) 0.32071(7)
N5 N 0.29649(4) 1.28745(9) 0.25034(7)
N6 N 0.30300(5) 1.41108(9) 0.17848(8)
N7 N 0.47207(4) 0.92962(9) 0.17532(8)
N8 N 0.44409(4) 1.04734(9) 0.24232(7)
N9 N 0.50568(5) 1.08855(10) 0.31360(9)
C1 C 0.17829(7) 0.94052(14) 0.15070(13)
H1 H 0.1619 0.8970 0.1617
C2 C 0.16598(9) 0.98872(16) 0.10246(14)
H2 H 0.1419 0.9776 0.0794
C3 C 0.18850(9) 1.05264(15) 0.08788(13)
H3 H 0.1793 1.0883 0.0564
C4 C 0.22485(7) 1.06569(13) 0.11899(11)
H4 H 0.2418 1.1081 0.1073
C5 C 0.23573(6) 1.01582(11) 0.16715(10)
C6 C 0.27383(5) 1.02778(10) 0.20505(9)
C7 C 0.31166(5) 0.96783(10) 0.28817(9)
C8 C 0.31188(5) 0.89778(11) 0.33070(9)
C9 C 0.34161(6) 0.88561(12) 0.37480(9)
H5 H 0.3630 0.9222 0.3797
C10 C 0.34024(7) 0.81988(13) 0.41192(10)
H6 H 0.3614 0.8086 0.4412
C11 C 0.30791(7) 0.77119(14) 0.40600(11)
H7 H 0.3050 0.7280 0.4340
C12 C 0.27953(7) 0.78455(12) 0.35973(11)
H8 H 0.2583 0.7478 0.3538
C13 C 0.19978(6) 1.32887(13) 0.35475(11)
H9 H 0.1860 1.3768 0.3478
C14 C 0.18495(7) 1.27799(14) 0.39969(11)
H10 H 0.1608 1.2901 0.4223
C15 C 0.20521(6) 1.20964(13) 0.41165(10)
H11 H 0.1955 1.1741 0.4429
C16 C 0.24016(6) 1.19346(12) 0.37709(9)
H12 H 0.2551 1.1469 0.3843
C17 C 0.25213(5) 1.24558(11) 0.33324(9)
C18 C 0.28964(5) 1.23120(10) 0.29289(9)
C19 C 0.32738(5) 1.28293(11) 0.20747(9)
C20 C 0.33156(6) 1.35578(11) 0.16837(10)
C21 C 0.36236(7) 1.36446(14) 0.12538(12)
H13 H 0.3814 1.3238 0.1183
C22 C 0.36503(8) 1.43515(15) 0.09197(13)
H14 H 0.3870 1.4448 0.0637
C23 C 0.33562(8) 1.48966(15) 0.10076(13)
H15 H 0.3360 1.5366 0.0768
C24 C 0.30576(7) 1.47673(13) 0.14393(12)
H16 H 0.2858 1.5160 0.1500
C25 C 0.48683(7) 0.86840(14) 0.14446(13)
H17 H 0.5138 0.8524 0.1533
C26 C 0.46487(7) 0.82731(16) 0.10046(14)
H18 H 0.4763 0.7834 0.0795
C27 C 0.42620(7) 0.85051(17) 0.08715(13)
H19 H 0.4102 0.8219 0.0577
C28 C 0.41066(6) 0.91497(14) 0.11636(10)
H20 H 0.3843 0.9335 0.1062
C29 C 0.43420(5) 0.95249(11) 0.16106(9)
C30 C 0.41840(5) 1.02162(11) 0.19721(9)
C31 C 0.43612(5) 1.10739(11) 0.28117(10)
C32 C 0.47089(6) 1.13163(12) 0.32178(11)
C33 C 0.46908(7) 1.19440(15) 0.36325(13)
H21 H 0.4446 1.2227 0.3686
C34 C 0.50350(8) 1.21514(19) 0.39663(16)
H22 H 0.5032 1.2588 0.4245
C35 C 0.53820(8) 1.17161(19) 0.38888(16)
H23 H 0.5621 1.1846 0.4118
C36 C 0.53810(7) 1.10907(16) 0.34770(13)
H24 H 0.5622 1.0792 0.3434
O5E O 0.61555(4) 0.95141(8) 0.18318(6)
O6E O 0.59650(3) 0.85673(8) 0.28691(7)
N7E N 0.52793(4) 1.07038(9) 0.17532(8)
N8E N 0.55591(4) 0.95266(9) 0.24232(7)
N9E N 0.49432(5) 0.91145(10) 0.31360(9)
C25E C 0.51317(7) 1.13160(14) 0.14446(13)
H17E H 0.4862 1.1476 0.1533
C26E C 0.53513(7) 1.17269(16) 0.10046(14)
H18E H 0.5237 1.2166 0.0795
C27E C 0.57380(7) 1.14949(17) 0.08715(13)
H19E H 0.5898 1.1781 0.0577
C28E C 0.58934(6) 1.08503(14) 0.11636(10)
H20E H 0.6157 1.0665 0.1062
C29E C 0.56580(5) 1.04751(11) 0.16106(9)
C30E C 0.58160(5) 0.97838(11) 0.19721(9)
C31E C 0.56388(5) 0.89261(11) 0.28117(10)
C32E C 0.52911(6) 0.86837(12) 0.32178(11)
C33E C 0.53092(7) 0.80560(15) 0.36325(13)
H21E H 0.5554 0.7773 0.3686
C34E C 0.49650(8) 0.78486(19) 0.39663(16)
H22E H 0.4968 0.7412 0.4245
C35E C 0.46180(8) 0.82839(19) 0.38888(16)
H23E H 0.4379 0.8154 0.4118
C36E C 0.46190(7) 0.89093(16) 0.34770(13)
H24E H 0.4378 0.9208 0.3434
Fe1E Fe 0.651211(8) 0.881791(15) 0.241303(14)
O1E O 0.70452(4) 0.91494(7) 0.19302(7)
O2E O 0.65930(4) 0.98645(7) 0.29221(7)
N1E N 0.78693(5) 1.04696(9) 0.18322(8)
N2E N 0.72048(4) 1.02865(8) 0.24984(7)
N3E N 0.71914(5) 1.15198(9) 0.32270(8)
C1E C 0.82171(7) 1.05948(14) 0.15070(13)
H1E H 0.8381 1.1030 0.1617
C2E C 0.83402(9) 1.01128(16) 0.10246(14)
H2E H 0.8581 1.0224 0.0794
C3E C 0.81150(9) 0.94736(15) 0.08788(13)
H3E H 0.8207 0.9117 0.0564
C4E C 0.77515(7) 0.93431(13) 0.11899(11)
H4E H 0.7582 0.8919 0.1073
C5E C 0.76427(6) 0.98418(11) 0.16715(10)
C6E C 0.72617(5) 0.97222(10) 0.20505(9)
C7E C 0.68834(5) 1.03217(10) 0.28817(9)
C8E C 0.68812(5) 1.10222(11) 0.33070(9)
C9E C 0.65839(6) 1.11439(12) 0.37480(9)
H5E H 0.6370 1.0778 0.3797
C10E C 0.65976(7) 1.18012(13) 0.41192(10)
H6E H 0.6386 1.1914 0.4412
C11E C 0.69209(7) 1.22881(14) 0.40600(11)
H7E H 0.6950 1.2720 0.4340
C12E C 0.72047(7) 1.21545(12) 0.35973(11)
H8E H 0.7417 1.2522 0.3538
O3E O 0.69056(4) 0.82883(7) 0.30416(7)
O4E O 0.64966(4) 0.77296(7) 0.19738(7)
N4E N 0.76728(5) 0.68669(9) 0.32071(7)
N5E N 0.70351(4) 0.71255(9) 0.25034(7)
N6E N 0.69700(5) 0.58892(9) 0.17848(8)
C13E C 0.80022(6) 0.67113(13) 0.35475(11)
H9E H 0.8140 0.6232 0.3478
C14E C 0.81505(7) 0.72201(14) 0.39969(11)
H10E H 0.8392 0.7099 0.4223
C15E C 0.79479(6) 0.79036(13) 0.41165(10)
H11E H 0.8045 0.8259 0.4429
C16E C 0.75984(6) 0.80654(12) 0.37709(9)
H12E H 0.7449 0.8531 0.3843
C17E C 0.74787(5) 0.75442(11) 0.33324(9)
C18E C 0.71036(5) 0.76880(10) 0.29289(9)
C19E C 0.67262(5) 0.71707(11) 0.20747(9)
C20E C 0.66844(6) 0.64422(11) 0.16837(10)
C21E C 0.63764(7) 0.63554(14) 0.12538(12)
H13E H 0.6186 0.6762 0.1183
C22E C 0.63497(8) 0.56485(15) 0.09197(13)
H14E H 0.6130 0.5552 0.0637
C23E C 0.66438(8) 0.51034(15) 0.10076(13)
H15E H 0.6640 0.4634 0.0768
C24E C 0.69424(7) 0.52327(13) 0.14393(12)
H16E H 0.7142 0.4840 0.1500
Ni1E Ni 0.760077(7) 1.118445(13) 0.251346(11)
N4F N 0.26728(5) 0.81331(9) 0.17929(7)
N5F N 0.20351(4) 0.78745(9) 0.24966(7)
N6F N 0.19700(5) 0.91108(9) 0.32152(8)
Ni1F Ni 0.260077(7) 1.381555(13) 0.248654(11)
Ni1G Ni 0.739923(7) 0.618445(13) 0.248654(11)
N4G N 0.73272(5) 1.18669(9) 0.17929(7)
N5G N 0.79649(4) 1.21255(9) 0.24966(7)
N6G N 0.80300(5) 1.08892(9) 0.32152(8)
C37 C 0.39011(14) 0.6737(4) 0.2472(2)
Cl2 Cl 0.33771(5) 0.64841(10) 0.25092(5)
Cl3 Cl 0.40815(11) 0.6346(2) 0.1845(2)
Cl4 Cl 0.39155(5) 0.77528(9) 0.24567(6)
O11 O 0.40306(16) 0.57109(18) 0.0000
Cl7 Cl 0.22877(3) 0.51399(6) 0.0000
O15 O 0.26219(12) 0.5637(2) 0.0000
O16 O 0.20924(12) 0.5226(3) 0.05515(17)
O17 O 0.23871(15) 0.4371(2) 0.0000
O16A O 0.20924(12) 0.5226(3) -0.05515(17)
C38 C 0.40829(13) 0.1134(3) 0.0000
Cl8 Cl 0.45472(4) 0.05771(8) 0.0000
Cl9 Cl 0.40549(5) 0.16625(9) 0.06616(5)
Cl9A Cl 0.40549(5) 0.16625(9) -0.06616(5)
C39 C 0.4123(5) 0.0168(6) 0.5000
Cl10 Cl 0.41320(6) -0.06367(13) 0.5000
Cl11 Cl 0.39667(10) 0.07186(14) 0.42982(11)
Cl11A Cl 0.39667(10) 0.07186(14) 0.57018(11)
C40 C 0.17307(17) 0.7416(4) 0.0000
Cl12 Cl 0.14437(5) 0.74890(12) 0.06765(7)
Cl13 Cl 0.20936(4) 0.81898(9) 0.0000
Cl12A Cl 0.14437(5) 0.74890(12) -0.06765(7)
C41 C 0.0777(2) 0.9099(10) 0.2181(7)
O18 O 0.05946(16) 0.9296(4) 0.1624(4)
C42 C 0.29178(14) 0.2413(3) 0.0000
O19 O 0.26502(10) 0.17923(19) 0.0000
Cl14 Cl 0.31237(2) 0.97651(5) 0.0000
O20 O 0.34636(8) 0.9275(2) 0.0000
O21 O 0.27677(9) 0.9413(3) 0.0000
O22 O 0.31332(10) 1.0166(2) 0.05045(16)
O22A O 0.31332(10) 1.0166(2) -0.05045(16)
O23 O 0.99734(11) 0.9392(2) 0.0812(3)
O24 O 0.52010(18) 0.6438(4) 0.8302(4)
O25 O 0.53501(7) 0.6581(2) 0.9422(3)
O27 O 0.07218(10) 0.8845(2) 0.0652(4)
O28 O 0.56208(18) 0.6850(3) 0.7643(3)
Cl1? Cl 0.40878(3) 0.64856(6) 0.48157(4)
O7? O 0.41479(15) 0.6393(3) 0.41768(19)
O8? O 0.43415(11) 0.7038(2) 0.5000
O9? O 0.36636(9) 0.67450(19) 0.5000
O10? O 0.41027(12) 0.5747(2) 0.5000
Cl5? Cl 0.41414(11) 0.6458(2) 0.3104(2)
Cl6? Cl 0.40807(3) 0.64566(6) 0.01798(4)
O12? O 0.37730(8) 0.6983(3) 0.0000
O13? O 0.44372(8) 0.67755(18) 0.0000
O14? O 0.41048(14) 0.6416(3) 0.08536(17)
O26? O 0.52324(14) 0.5092(3) 0.9121(3)
loop_
_geom_bond_atom_site_label_1
_geom_bond_atom_site_label_2
_geom_bond_site_symmetry_1
_geom_bond_site_symmetry_2
Ni1 N1 1_555 1_555
Ni2 N7 1_555 1_555
Fe1 O1 1_555 1_555
O1 C6 1_555 1_555
O2 Fe1 1_555 1_555
O3 Fe1 1_555 1_555
O4 Fe1 1_555 1_555
O5 Fe1 1_555 1_555
O6 Fe1 1_555 1_555
N1 C1 1_555 1_555
N2 Ni1 1_555 1_555
N3 Ni1 1_555 1_555
N4 C13 1_555 1_555
N5 C18 1_555 1_555
N6 C20 1_555 1_555
N7 C25 1_555 1_555
N8 Ni2 1_555 1_555
N9 Ni2 1_555 1_555
C1 H1 1_555 1_555
C2 C1 1_555 1_555
H2 C2 1_555 1_555
C3 C2 1_555 1_555
H3 C3 1_555 1_555
C4 C3 1_555 1_555
H4 C4 1_555 1_555
C5 N1 1_555 1_555
C6 N2 1_555 1_555
C7 O2 1_555 1_555
C8 N3 1_555 1_555
C9 C8 1_555 1_555
H5 C9 1_555 1_555
C10 C9 1_555 1_555
H6 C10 1_555 1_555
C11 C10 1_555 1_555
H7 C11 1_555 1_555
C12 N3 1_555 1_555
H8 C12 1_555 1_555
C13 H9 1_555 1_555
C14 C13 1_555 1_555
H10 C14 1_555 1_555
C15 C14 1_555 1_555
H11 C15 1_555 1_555
C16 C15 1_555 1_555
H12 C16 1_555 1_555
C17 N4 1_555 1_555
C18 O3 1_555 1_555
C19 O4 1_555 1_555
C20 C19 1_555 1_555
C21 C20 1_555 1_555
H13 C21 1_555 1_555
C22 C21 1_555 1_555
H14 C22 1_555 1_555
C23 C22 1_555 1_555
H15 C23 1_555 1_555
C24 N6 1_555 1_555
H16 C24 1_555 1_555
C25 H17 1_555 1_555
C26 C25 1_555 1_555
H18 C26 1_555 1_555
C27 C26 1_555 1_555
H19 C27 1_555 1_555
C28 C27 1_555 1_555
H20 C28 1_555 1_555
C29 N7 1_555 1_555
C30 O5 1_555 1_555
C31 O6 1_555 1_555
C32 N9 1_555 1_555
C33 C32 1_555 1_555
H21 C33 1_555 1_555
C34 C33 1_555 1_555
H22 C34 1_555 1_555
C35 C34 1_555 1_555
H23 C35 1_555 1_555
C36 N9 1_555 1_555
H24 C36 1_555 1_555
C37 Cl2 1_555 1_555
Cl3 C37 1_555 1_555
Cl4 C37 1_555 1_555
Cl7 O15 1_555 1_555
O16 Cl7 1_555 1_555
O17 Cl7 1_555 1_555
C38 Cl8 1_555 1_555
Cl9 C38 1_555 1_555
C39 Cl10 1_555 1_555
Cl11 C39 1_555 1_555
C40 Cl12 1_555 1_555
Cl13 C40 1_555 1_555
C41 O18 1_555 1_555
C42 O19 1_555 1_555
Cl14 O20 1_555 1_555
O21 Cl14 1_555 1_555
O22 Cl14 1_555 1_555
O16A Cl7 1_555 1_555
Cl9A C38 1_555 1_555
Cl11A C39 1_555 1_555
Cl12A C40 1_555 1_555
O22A Cl14 1_555 1_555
O5E C30E 1_555 1_555
O6E C31E 1_555 1_555
N7E Ni2 1_555 1_555
N8E Ni2 1_555 1_555
N9E Ni2 1_555 1_555
C25E N7E 1_555 1_555
H17E C25E 1_555 1_555
C26E C25E 1_555 1_555
H18E C26E 1_555 1_555
C27E C26E 1_555 1_555
H19E C27E 1_555 1_555
C28E C27E 1_555 1_555
H20E C28E 1_555 1_555
C29E N7E 1_555 1_555
C30E N8E 1_555 1_555
C31E N8E 1_555 1_555
C32E N9E 1_555 1_555
C33E C32E 1_555 1_555
H21E C33E 1_555 1_555
C34E C33E 1_555 1_555
H22E C34E 1_555 1_555
C35E C34E 1_555 1_555
H23E C35E 1_555 1_555
C36E N9E 1_555 1_555
H24E C36E 1_555 1_555
Fe1E O5E 1_555 1_555
O1E Fe1E 1_555 1_555
O2E Fe1E 1_555 1_555
N1E C1E 1_555 1_555
N2E C6E 1_555 1_555
N3E C8E 1_555 1_555
C1E H1E 1_555 1_555
C2E C1E 1_555 1_555
H2E C2E 1_555 1_555
C3E C2E 1_555 1_555
H3E C3E 1_555 1_555
C4E C3E 1_555 1_555
H4E C4E 1_555 1_555
C5E N1E 1_555 1_555
C6E O1E 1_555 1_555
C7E O2E 1_555 1_555
C8E C7E 1_555 1_555
C9E C8E 1_555 1_555
H5E C9E 1_555 1_555
C10E C9E 1_555 1_555
H6E C10E 1_555 1_555
C11E C10E 1_555 1_555
H7E C11E 1_555 1_555
C12E N3E 1_555 1_555
H8E C12E 1_555 1_555
O3E Fe1E 1_555 1_555
O4E Fe1E 1_555 1_555
N4E C13E 1_555 1_555
N5E C18E 1_555 1_555
N6E C20E 1_555 1_555
C13E H9E 1_555 1_555
C14E C13E 1_555 1_555
H10E C14E 1_555 1_555
C15E C14E 1_555 1_555
H11E C15E 1_555 1_555
C16E C15E 1_555 1_555
H12E C16E 1_555 1_555
C17E N4E 1_555 1_555
C18E O3E 1_555 1_555
C19E O4E 1_555 1_555
C20E C19E 1_555 1_555
C21E C20E 1_555 1_555
H13E C21E 1_555 1_555
C22E C21E 1_555 1_555
H14E C22E 1_555 1_555
C23E C22E 1_555 1_555
H15E C23E 1_555 1_555
C24E N6E 1_555 1_555
H16E C24E 1_555 1_555
Ni1E N1E 1_555 1_555
N4F Ni1 1_555 1_555
N5F Ni1 1_555 1_555
N6F Ni1 1_555 1_555
Ni1F N4 1_555 1_555
Ni1G N4E 1_555 1_555
N4G Ni1E 1_555 1_555
N5G Ni1E 1_555 1_555
N6G Ni1E 1_555 1_555
N2 C7 1_555 1_555
N5 C19 1_555 1_555
N5 Ni1F 1_555 1_555
N6 Ni1F 1_555 1_555
N8 C30 1_555 1_555
N8 C31 1_555 1_555
C4 C5 1_555 1_555
C5 C6 1_555 1_555
C7 C8 1_555 1_555
C11 C12 1_555 1_555
C16 C17 1_555 1_555
C17 C18 1_555 1_555
C23 C24 1_555 1_555
C28 C29 1_555 1_555
C29 C30 1_555 1_555
C31 C32 1_555 1_555
C35 C36 1_555 1_555
O6E Fe1E 1_555 1_555
C28E C29E 1_555 1_555
C29E C30E 1_555 1_555
C31E C32E 1_555 1_555
C35E C36E 1_555 1_555
N2E Ni1E 1_555 1_555
N2E C7E 1_555 1_555
N3E Ni1E 1_555 1_555
C4E C5E 1_555 1_555
C5E C6E 1_555 1_555
C11E C12E 1_555 1_555
N5E C19E 1_555 1_555
N5E Ni1G 1_555 1_555
N6E Ni1G 1_555 1_555
C16E C17E 1_555 1_555
C17E C18E 1_555 1_555
C23E C24E 1_555 1_555

#END
