
#######################################################################
#
#                 Cambridge Crystallographic Data Centre
#                                CCDC 
#
#######################################################################
#
# If this CIF has been generated from an entry in the Cambridge 
# Structural Database, then it will include bibliographic, chemical, 
# crystal, experimental, refinement or atomic coordinate data resulting 
# from the CCDC's data processing and validation procedures.
#
#######################################################################

data_XAFSII
_symmetry_cell_setting           monoclinic
_symmetry_space_group_name_H-M   'P 21/c'
_symmetry_Int_Tables_number      14
_space_group_name_Hall           '-P 2ybc'
loop_
_symmetry_equiv_pos_site_id
_symmetry_equiv_pos_as_xyz
1 x,y,z
2 -x,1/2+y,1/2-z
3 -x,-y,-z
4 x,1/2-y,1/2+z
_cell_length_a                   9.296(2)
_cell_length_b                   18.603(5)
_cell_length_c                   14.049(3)
_cell_angle_alpha                90
_cell_angle_beta                 129.493(10)
_cell_angle_gamma                90
_cell_volume                     1874.88
loop_
_atom_site_label
_atom_site_type_symbol
_atom_site_fract_x
_atom_site_fract_y
_atom_site_fract_z
Co1 Co -0.00279(5) 0.75798(2) 0.24350(3)
C1 C 0.4295(4) 1.06421(15) 0.0573(3)
C2 C 0.4989(5) 1.02921(18) 0.1669(3)
H1 H 0.6149 1.0440 0.2418
C3 C 0.4024(4) 0.97364(18) 0.1685(3)
H2 H 0.4538 0.9502 0.2442
C4 C 0.2300(4) 0.95123(15) 0.0604(3)
C5 C 0.1597(4) 0.98547(15) -0.0495(3)
H3 H 0.0433 0.9708 -0.1241
C6 C 0.2584(4) 1.04124(16) -0.0512(3)
H4 H 0.2086 1.0639 -0.1272
C7 C 0.1317(4) 0.89422(15) 0.0702(3)
C8 C 0.1590(4) 0.86838(15) 0.1719(3)
H5 H 0.2520 0.8849 0.2539
C9 C -0.0723(4) 0.80889(16) 0.0159(3)
H6 H -0.1725 0.7759 -0.0335
C10 C 0.5419(4) 1.12235(15) 0.0638(3)
C11 C 0.7136(4) 1.14673(15) 0.1623(3)
H7 H 0.7856 1.1277 0.2435
C12 C 0.6300(4) 1.21214(16) 0.0089(3)
H8 H 0.6286 1.2477 -0.0403
C13 C -0.0266(4) 0.85709(15) 0.3615(3)
C14 C -0.0840(4) 0.90717(16) 0.4170(3)
H9 H -0.0700 0.8815 0.4842
H10 H -0.2176 0.9190 0.3529
C15 C 0.0267(4) 0.97703(16) 0.4684(3)
H11 H 0.0049 1.0049 0.4003
H12 H 0.1613 0.9656 0.5284
C16 C -0.2497(4) 0.64175(15) 0.1278(3)
C17 C -0.3992(4) 0.59511(16) 0.0190(3)
H13 H -0.5194 0.6212 -0.0295
H14 H -0.3667 0.5876 -0.0351
C18 C -0.4245(4) 0.52218(16) 0.0555(3)
H15 H -0.3052 0.4955 0.1030
H16 H -0.4570 0.5293 0.1097
N1 N 0.4918(3) 1.16501(13) -0.0336(2)
H17 H 0.3875 1.1618 -0.1101
N2 N 0.7679(3) 1.20280(13) 0.1277(2)
N3 N -0.0167(3) 0.85537(13) -0.0273(2)
H18 H -0.0665 0.8604 -0.1051
N4 N 0.0319(3) 0.81510(13) 0.1378(2)
O1 O -0.1524(3) 0.81297(11) 0.27750(18)
O2 O 0.1334(3) 0.85655(12) 0.3953(2)
O3 O -0.1754(3) 0.68949(11) 0.1074(2)
O4 O -0.2106(4) 0.63183(14) 0.2293(2)
Co1B Co -0.99721(5) 0.24202(2) -0.24350(3)
Co1A Co 1.00279(5) 1.25798(2) 0.25650(3)
Co1B_2 Co 0.00279(5) 1.24202(2) 0.75650(3)
Co1C Co -2.00279(5) -0.25798(2) -0.25650(3)
C1B C -1.4295(4) -0.06421(15) -0.0573(3)
C2B C -1.4989(5) -0.02921(18) -0.1669(3)
H1B H -1.6149 -0.0440 -0.2418
C3B C -1.4024(4) 0.02636(18) -0.1685(3)
H2B H -1.4538 0.0498 -0.2442
C4B C -1.2300(4) 0.04877(15) -0.0604(3)
C5B C -1.1597(4) 0.01453(15) 0.0495(3)
H3B H -1.0433 0.0292 0.1241
C6B C -1.2584(4) -0.04124(16) 0.0512(3)
H4B H -1.2086 -0.0639 0.1272
C7B C -1.1317(4) 0.10578(15) -0.0702(3)
C8B C -1.1590(4) 0.13162(15) -0.1719(3)
H5B H -1.2520 0.1151 -0.2539
C9B C -0.9277(4) 0.19111(16) -0.0159(3)
H6B H -0.8275 0.2241 0.0335
C10B C -1.5419(4) -0.12235(15) -0.0638(3)
C11B C -1.7136(4) -0.14673(15) -0.1623(3)
H7B H -1.7856 -0.1277 -0.2435
C12B C -1.6300(4) -0.21214(16) -0.0089(3)
H8B H -1.6286 -0.2477 0.0403
C13B C 0.0266(4) 1.14291(15) 0.6385(3)
C14B C 0.0840(4) 1.09283(16) 0.5830(3)
H9B H 0.0700 1.1185 0.5158
H10B H 0.2176 1.0810 0.6471
C15B C -0.0267(4) 1.02297(16) 0.5316(3)
H11B H -0.0049 0.9951 0.5997
H12B H -0.1613 1.0344 0.4716
C16B C -0.7503(4) 0.35825(15) -0.1278(3)
C17B C -0.6008(4) 0.40489(16) -0.0190(3)
H13B H -0.4806 0.3788 0.0295
H14B H -0.6333 0.4124 0.0351
C18B C -0.5755(4) 0.47782(16) -0.0555(3)
H15B H -0.6948 0.5045 -0.1030
H16B H -0.5430 0.4707 -0.1097
N1B N -1.4918(3) -0.16501(13) 0.0336(2)
H17B H -1.3875 -0.1618 0.1101
N2B N -1.7679(3) -0.20280(13) -0.1277(2)
N2A N 0.2321(3) 0.70280(13) 0.3723(2)
N2C N -1.2321(3) 0.29720(13) -0.3723(2)
N3B N -0.9833(3) 0.14463(13) 0.0273(2)
H18B H -0.9335 0.1396 0.1051
N4B N -1.0319(3) 0.18490(13) -0.1378(2)
O1B O 0.1524(3) 1.18703(11) 0.72250(18)
O1B_2 O -0.8476(3) 0.18703(11) -0.27750(18)
O2B O -0.1334(3) 1.14345(12) 0.6047(2)
O3B O -0.8246(3) 0.31051(11) -0.1074(2)
O4B O -0.7894(4) 0.36817(14) -0.2293(2)
O5 O 0.404(3) 0.8491(13) 0.659(2)
loop_
_geom_bond_atom_site_label_1
_geom_bond_atom_site_label_2
_geom_bond_site_symmetry_1
_geom_bond_site_symmetry_2
Co1 N4 1_555 1_555
C1 C2 1_555 1_555
C2 H1 1_555 1_555
C3 C2 1_555 1_555
H2 C3 1_555 1_555
C4 C3 1_555 1_555
C5 C4 1_555 1_555
H3 C5 1_555 1_555
C6 C1 1_555 1_555
H4 C6 1_555 1_555
C7 C4 1_555 1_555
C8 C7 1_555 1_555
H5 C8 1_555 1_555
C9 H6 1_555 1_555
C10 C1 1_555 1_555
C11 C10 1_555 1_555
H7 C11 1_555 1_555
C12 H8 1_555 1_555
C13 C14 1_555 1_555
C14 H9 1_555 1_555
H10 C14 1_555 1_555
C15 C14 1_555 1_555
H11 C15 1_555 1_555
H12 C15 1_555 1_555
C16 C17 1_555 1_555
C17 H13 1_555 1_555
H14 C17 1_555 1_555
C18 C17 1_555 1_555
H15 C18 1_555 1_555
H16 C18 1_555 1_555
N1 C10 1_555 1_555
H17 N1 1_555 1_555
N2 C11 1_555 1_555
N3 C7 1_555 1_555
H18 N3 1_555 1_555
N4 C8 1_555 1_555
O1 Co1 1_555 1_555
O2 C13 1_555 1_555
O3 Co1 1_555 1_555
O4 C16 1_555 1_555
Co1B N2C 1_555 1_555
Co1A N2 1_555 1_555
Co1B_2 O1B 1_555 1_555
Co1C N2B 1_555 1_555
C1B C2B 1_555 1_555
C2B H1B 1_555 1_555
C3B C2B 1_555 1_555
H2B C3B 1_555 1_555
C4B C3B 1_555 1_555
C5B C4B 1_555 1_555
H3B C5B 1_555 1_555
C6B C1B 1_555 1_555
H4B C6B 1_555 1_555
C7B C4B 1_555 1_555
C8B C7B 1_555 1_555
H5B C8B 1_555 1_555
C9B H6B 1_555 1_555
C10B C1B 1_555 1_555
C11B C10B 1_555 1_555
H7B C11B 1_555 1_555
C12B H8B 1_555 1_555
C13B C14B 1_555 1_555
C14B H9B 1_555 1_555
H10B C14B 1_555 1_555
C15B C15 1_555 1_555
H11B C15B 1_555 1_555
H12B C15B 1_555 1_555
C16B C17B 1_555 1_555
C17B H13B 1_555 1_555
H14B C17B 1_555 1_555
C18B C18 1_555 1_555
H15B C18B 1_555 1_555
H16B C18B 1_555 1_555
N1B C10B 1_555 1_555
H17B N1B 1_555 1_555
N2B C11B 1_555 1_555
N2A Co1 1_555 1_555
N3B C7B 1_555 1_555
H18B N3B 1_555 1_555
N4B Co1B 1_555 1_555
O1B C13B 1_555 1_555
O1B_2 Co1B 1_555 1_555
O2B C13B 1_555 1_555
O3B Co1B 1_555 1_555
O4B C16B 1_555 1_555
C5 C6 1_555 1_555
C9 N3 1_555 1_555
C9 N4 1_555 1_555
C12 N1 1_555 1_555
C12 N2 1_555 1_555
C13 O1 1_555 1_555
C16 O3 1_555 1_555
C5B C6B 1_555 1_555
C8B N4B 1_555 1_555
C9B N3B 1_555 1_555
C9B N4B 1_555 1_555
C12B N1B 1_555 1_555
C12B N2B 1_555 1_555
C14B C15B 1_555 1_555
C16B O3B 1_555 1_555
C17B C18B 1_555 1_555

#END
