
#######################################################################
#
#                 Cambridge Crystallographic Data Centre
#                                CCDC 
#
#######################################################################
#
# If this CIF has been generated from an entry in the Cambridge 
# Structural Database, then it will include bibliographic, chemical, 
# crystal, experimental, refinement or atomic coordinate data resulting 
# from the CCDC's data processing and validation procedures.
#
#######################################################################

data_XAFXAF
_symmetry_cell_setting           monoclinic
_symmetry_space_group_name_H-M   'P 21/n'
_symmetry_Int_Tables_number      14
_space_group_name_Hall           '-P 2yn'
loop_
_symmetry_equiv_pos_site_id
_symmetry_equiv_pos_as_xyz
1 x,y,z
2 1/2-x,1/2+y,1/2-z
3 -x,-y,-z
4 1/2+x,1/2-y,1/2+z
_cell_length_a                   6.96050(10)
_cell_length_b                   17.6633(2)
_cell_length_c                   15.9655(2)
_cell_angle_alpha                90
_cell_angle_beta                 90.5850(10)
_cell_angle_gamma                90
_cell_volume                     1962.78
loop_
_atom_site_label
_atom_site_type_symbol
_atom_site_fract_x
_atom_site_fract_y
_atom_site_fract_z
C1 C 0.5002(5) 0.47865(18) 0.32248(19)
C2 C 0.5175(4) 0.39817(18) 0.2935(2)
C3 C 0.5501(4) 0.33875(18) 0.34981(19)
C4 C 0.5514(5) 0.34794(18) 0.4429(2)
C5 C 0.5748(4) 0.26549(18) 0.3189(2)
H1 H 0.5995 0.2257 0.3555
C6 C 0.5624(4) 0.25230(17) 0.23360(19)
C7 C 0.5297(5) 0.31095(19) 0.1782(2)
H2 H 0.5227 0.3016 0.1209
C8 C 0.5073(5) 0.38375(19) 0.2083(2)
H3 H 0.4852 0.4234 0.1710
C9 C 0.4515(7) 0.8221(2) 0.4304(3)
H4 H 0.4426 0.8013 0.4837
C10 C 0.4782(8) 0.9003(3) 0.4237(3)
H5 H 0.4842 0.9304 0.4714
C11 C 0.4953(6) 0.9318(2) 0.3463(3)
H6 H 0.5163 0.9835 0.3407
C12 C 0.4811(5) 0.8859(2) 0.2758(3)
C13 C 0.4901(5) 0.9158(2) 0.1931(3)
H7 H 0.5107 0.9674 0.1855
C14 C 0.4692(5) 0.8708(2) 0.1261(3)
H8 H 0.4760 0.8915 0.0727
C15 C 0.4365(5) 0.7912(2) 0.1356(2)
C16 C 0.4097(6) 0.7439(2) 0.0669(2)
H9 H 0.4120 0.7633 0.0128
C17 C 0.3801(7) 0.6690(2) 0.0800(2)
H10 H 0.3609 0.6366 0.0348
C18 C 0.3787(6) 0.6408(2) 0.1618(2)
H11 H 0.3584 0.5892 0.1694
C19 C 0.4514(5) 0.80735(19) 0.2880(2)
C20 C 0.4316(4) 0.75905(19) 0.2161(2)
Eu1 Eu 0.41814(2) 0.626359(9) 0.381972(9)
N1 N 0.4382(4) 0.77611(16) 0.36544(19)
N2 N 0.4045(4) 0.68348(16) 0.22900(18)
O1 O 0.6069(3) 0.50358(12) 0.37971(14)
O2 O 0.3770(4) 0.52045(13) 0.28678(15)
O3 O 0.4184(3) 0.38422(13) 0.47818(14)
O4 O 0.6838(3) 0.31758(13) 0.48493(14)
O5 O 0.6019(4) 0.10875(14) 0.26491(16)
O6 O 0.4156(3) 0.14761(14) 0.14265(16)
O7 O 0.7568(3) 0.16079(13) 0.14298(16)
O8 O 0.2383(3) 0.52772(13) 0.46219(15)
S1 S 0.58597(11) 0.15872(4) 0.19510(5)
H12 H 0.252(8) 0.529(3) 0.5207(13)
H13 H 0.246(8) 0.4761(14) 0.448(3)
Eu1B Eu 0.58186(2) 0.373641(9) 0.618028(9)
Eu1A Eu 0.08186(2) 0.126359(9) 0.118028(9)
Eu1A_2 Eu 1.08186(2) 0.126359(9) 0.118028(9)
O3B O 0.5816(3) 0.61578(13) 0.52182(14)
O4B O 0.3162(3) 0.68242(13) 0.51507(14)
O6A O 0.0844(3) 0.64761(14) 0.35735(16)
O7A O 0.7432(3) 0.66079(13) 0.35702(16)
loop_
_geom_bond_atom_site_label_1
_geom_bond_atom_site_label_2
_geom_bond_site_symmetry_1
_geom_bond_site_symmetry_2
C1 C2 1_555 1_555
C2 C3 1_555 1_555
C3 C4 1_555 1_555
C4 O3 1_555 1_555
C5 C3 1_555 1_555
H1 C5 1_555 1_555
C6 C5 1_555 1_555
C7 C6 1_555 1_555
H2 C7 1_555 1_555
C8 C2 1_555 1_555
H3 C8 1_555 1_555
C9 H4 1_555 1_555
C10 C9 1_555 1_555
H5 C10 1_555 1_555
C11 C10 1_555 1_555
H6 C11 1_555 1_555
C12 C11 1_555 1_555
C13 C12 1_555 1_555
H7 C13 1_555 1_555
C14 C13 1_555 1_555
H8 C14 1_555 1_555
C15 C14 1_555 1_555
C16 C15 1_555 1_555
H9 C16 1_555 1_555
C17 C16 1_555 1_555
H10 C17 1_555 1_555
C18 C17 1_555 1_555
H11 C18 1_555 1_555
C19 C12 1_555 1_555
C20 C15 1_555 1_555
Eu1 N1 1_555 1_555
N1 C9 1_555 1_555
N2 C18 1_555 1_555
O1 C1 1_555 1_555
O2 C1 1_555 1_555
O3 Eu1B 1_555 1_555
O4 C4 1_555 1_555
O5 S1 1_555 1_555
O6 S1 1_555 1_555
O7 S1 1_555 1_555
O8 Eu1 1_555 1_555
S1 C6 1_555 1_555
H12 O8 1_555 1_555
H13 O8 1_555 1_555
Eu1B O4 1_555 1_555
Eu1A O6 1_555 1_555
Eu1A_2 O7 1_555 1_555
O3B Eu1 1_555 1_555
O4B Eu1 1_555 1_555
O6A Eu1 1_555 1_555
O7A Eu1 1_555 1_555
C7 C8 1_555 1_555
C19 C20 1_555 1_555
C19 N1 1_555 1_555
C20 N2 1_555 1_555
Eu1 N2 1_555 1_555
Eu1 O1 1_555 1_555
Eu1 O2 1_555 1_555

#END
