
#######################################################################
#
#                 Cambridge Crystallographic Data Centre
#                                CCDC 
#
#######################################################################
#
# If this CIF has been generated from an entry in the Cambridge 
# Structural Database, then it will include bibliographic, chemical, 
# crystal, experimental, refinement or atomic coordinate data resulting 
# from the CCDC's data processing and validation procedures.
#
#######################################################################

data_XAGDUE
_symmetry_cell_setting           monoclinic
_symmetry_space_group_name_H-M   'P 21/c'
_symmetry_Int_Tables_number      14
_space_group_name_Hall           '-P 2ybc'
loop_
_symmetry_equiv_pos_site_id
_symmetry_equiv_pos_as_xyz
1 x,y,z
2 -x,1/2+y,1/2-z
3 -x,-y,-z
4 x,1/2-y,1/2+z
_cell_length_a                   4.8160(10)
_cell_length_b                   9.869(2)
_cell_length_c                   11.716(2)
_cell_angle_alpha                90
_cell_angle_beta                 99.16(3)
_cell_angle_gamma                90
_cell_volume                     549.75
loop_
_atom_site_label
_atom_site_type_symbol
_atom_site_fract_x
_atom_site_fract_y
_atom_site_fract_z
Mg1 Mg -1.0000 0.0000 -0.5000
C1 C -0.3003(2) -0.09070(12) 0.26111(10)
C2 C -0.5186(3) -0.05439(16) 0.15800(11)
C3 C -0.3901(3) -0.02391(13) 0.04972(11)
O1 O -0.12820(19) -0.18351(9) 0.25165(8)
O2 O -0.30182(17) -0.02457(9) 0.35383(7)
O3 O -1.19770(19) 0.17475(8) -0.45749(8)
O4 O -1.25091(18) -0.11497(10) -0.40724(8)
H1 H -0.622(4) 0.0235(19) 0.1775(17)
H2 H -0.290(3) -0.1050(17) 0.0259(14)
H3 H -0.240(3) 0.0442(18) 0.0667(14)
H4 H -0.656(4) -0.136(2) 0.1437(17)
H5 H -1.118(4) 0.1921(18) -0.3832(17)
H6 H -1.372(5) 0.176(2) -0.4634(18)
H7 H -1.199(4) -0.1803(19) -0.3602(15)
H8 H -1.378(4) -0.0723(19) -0.3801(15)
C3B C -0.6099(3) 0.02391(13) -0.04972(11)
C2B C -0.4814(3) 0.05439(16) -0.15800(11)
C1B C -0.6997(2) 0.09070(12) -0.26111(10)
O1B O -0.87180(19) 0.18351(9) -0.25165(8)
O2B O -0.69818(17) 0.02457(9) -0.35383(7)
Mg1_2 Mg 0.0000 0.0000 0.5000
O2_2 O -1.30182(17) -0.02457(9) -0.64617(7)
O3B O -0.80230(19) -0.17475(8) -0.54251(8)
H5B H -0.882(4) -0.1921(18) -0.6168(17)
H6B H -0.628(5) -0.176(2) -0.5366(18)
O4B O -0.74909(18) 0.11497(10) -0.59276(8)
H7B H -0.801(4) 0.1803(19) -0.6398(15)
H8B H -0.622(4) 0.0723(19) -0.6199(15)
H1B H -0.378(4) -0.0235(19) -0.1775(17)
H4B H -0.344(4) 0.136(2) -0.1437(17)
H2B H -0.710(3) 0.1050(17) -0.0259(14)
H3B H -0.760(3) -0.0442(18) -0.0667(14)
loop_
_geom_bond_atom_site_label_1
_geom_bond_atom_site_label_2
_geom_bond_site_symmetry_1
_geom_bond_site_symmetry_2
Mg1 O3 1_555 1_555
C1 C2 1_555 1_555
C2 C3 1_555 1_555
C3 H2 1_555 1_555
O1 C1 1_555 1_555
O2 C1 1_555 1_555
O3 H5 1_555 1_555
O4 Mg1 1_555 1_555
H1 C2 1_555 1_555
H3 C3 1_555 1_555
H4 C2 1_555 1_555
H6 O3 1_555 1_555
H7 O4 1_555 1_555
H8 O4 1_555 1_555
C3B C3 1_555 1_555
C2B C3B 1_555 1_555
C1B C2B 1_555 1_555
O1B C1B 1_555 1_555
O2B Mg1 1_555 1_555
Mg1_2 O2 1_555 1_555
O2_2 Mg1 1_555 1_555
O3B Mg1 1_555 1_555
H5B O3B 1_555 1_555
H6B O3B 1_555 1_555
O4B Mg1 1_555 1_555
H7B O4B 1_555 1_555
H8B O4B 1_555 1_555
H1B C2B 1_555 1_555
H4B C2B 1_555 1_555
H2B C3B 1_555 1_555
H3B C3B 1_555 1_555
C1B O2B 1_555 1_555

#END
