
#######################################################################
#
#                 Cambridge Crystallographic Data Centre
#                                CCDC 
#
#######################################################################
#
# If this CIF has been generated from an entry in the Cambridge 
# Structural Database, then it will include bibliographic, chemical, 
# crystal, experimental, refinement or atomic coordinate data resulting 
# from the CCDC's data processing and validation procedures.
#
#######################################################################

data_XAGLEX
_symmetry_cell_setting           triclinic
_symmetry_space_group_name_H-M   'P -1'
_symmetry_Int_Tables_number      2
_space_group_name_Hall           '-P 1'
loop_
_symmetry_equiv_pos_site_id
_symmetry_equiv_pos_as_xyz
1 x,y,z
2 -x,-y,-z
_cell_length_a                   8.9571(3)
_cell_length_b                   10.1785(5)
_cell_length_c                   13.9174(7)
_cell_angle_alpha                77.395(2)
_cell_angle_beta                 71.240(2)
_cell_angle_gamma                77.657(2)
_cell_volume                     1158.24
loop_
_atom_site_label
_atom_site_type_symbol
_atom_site_fract_x
_atom_site_fract_y
_atom_site_fract_z
N3 N 0.399(2) 0.8518(18) 0.0276(13)
C21 C 0.241(3) 0.8871(17) 0.0935(12)
C22 C 0.0887(19) 0.9661(12) 0.0088(12)
C23 C 0.212(3) 0.9508(15) -0.0733(13)
C24 C 0.385(3) 0.8894(13) -0.0758(17)
C25 C 0.655(6) 0.7850(19) -0.019(3)
C26 C 0.586(9) 0.829(5) -0.112(3)
C22A C -0.0887(19) 1.0339(12) -0.0088(12)
O5 O 0.3316(11) 0.9909(9) 0.6630(6)
Mn1 Mn 0.38736(11) 0.38484(9) -0.54617(7)
N1 N 0.2233(7) 0.3846(6) -0.3840(4)
N2 N 0.5625(8) 0.3990(7) -0.7058(4)
O1 O 0.2125(6) 0.3029(5) -0.6032(4)
O2 O 0.3879(6) 0.1620(5) -0.5379(4)
O3 O 0.2773(6) 0.5877(4) -0.5920(4)
O4 O 0.5853(6) 0.3406(5) -0.4869(4)
C1 C 0.2213(8) 0.0656(7) -0.5972(6)
C2 C 0.2913(8) -0.0668(7) -0.5729(6)
H1 H 0.3752 -0.0834 -0.5441
C3 C 0.2388(8) -0.1762(6) -0.5907(5)
C4 C 0.1124(10) -0.1502(7) -0.6317(7)
H2 H 0.0763 -0.2225 -0.6438
C5 C 0.0385(10) -0.0185(8) -0.6550(8)
H3 H -0.0473 -0.0027 -0.6821
C6 C 0.0925(9) 0.0906(7) -0.6380(7)
H4 H 0.0431 0.1794 -0.6537
C7 C 0.2757(8) 0.1852(7) -0.5792(5)
C8 C 0.3152(8) 0.6815(6) -0.5631(5)
C9 C 0.0805(8) 0.4615(8) -0.3639(5)
H5 H 0.0472 0.5137 -0.4192
C10 C -0.0208(10) 0.4689(9) -0.2672(6)
H6 H -0.1189 0.5255 -0.2582
C11 C 0.0229(11) 0.3924(9) -0.1833(6)
C12 C 0.1736(13) 0.3112(9) -0.2025(6)
H7 H 0.2099 0.2595 -0.1481
C13 C 0.2688(10) 0.3087(8) -0.3036(5)
H8 H 0.3672 0.2523 -0.3157
C14 C -0.0987(18) 0.4117(13) -0.0818(9)
H9 H -0.1952 0.4670 -0.0835
C15 C -0.080(2) 0.3567(19) 0.0101(11)
H10 H 0.0110 0.2999 0.0213
C16 C -0.2266(18) 0.3993(16) 0.0930(10)
C17 C -0.3809(17) 0.4712(15) 0.1136(6)
H11 H -0.4172 0.5216 0.0590
C18 C 0.5167(12) 0.4706(10) -0.7867(5)
H12 H 0.4147 0.5209 -0.7765
C19 C 0.7086(11) 0.3282(9) -0.7254(7)
H13 H 0.7414 0.2769 -0.6696
C20 C -0.1852(13) 0.3247(13) 0.1792(10)
H14 H -0.0848 0.2720 0.1720
C8A C 0.6848(8) 0.3185(6) -0.4369(5)
C8_2 C 0.3152(8) -0.3185(6) -0.5631(5)
O4A O 0.4147(6) 0.6594(5) -0.5131(4)
C3_2 C 0.2388(8) 0.8238(6) -0.5907(5)
C18_2 C -0.4833(12) 0.4706(10) 0.2133(5)
C17_2 C 0.6191(17) 0.4712(15) -0.8864(6)
C20_2 C 0.8148(13) 0.3247(13) -0.8208(10)
C19_2 C -0.2914(11) 0.3282(9) 0.2746(7)
loop_
_geom_bond_atom_site_label_1
_geom_bond_atom_site_label_2
_geom_bond_site_symmetry_1
_geom_bond_site_symmetry_2
Mn1 N1 1_555 1_555
N1 C9 1_555 1_555
N2 Mn1 1_555 1_555
N3 C21 1_555 1_555
O1 Mn1 1_555 1_555
O2 Mn1 1_555 1_555
O3 Mn1 1_555 1_555
O4 Mn1 1_555 1_555
C1 C2 1_555 1_555
C2 H1 1_555 1_555
C3 C2 1_555 1_555
C4 C3 1_555 1_555
H2 C4 1_555 1_555
C5 C4 1_555 1_555
H3 C5 1_555 1_555
C6 C1 1_555 1_555
H4 C6 1_555 1_555
C7 O1 1_555 1_555
C8 O3 1_555 1_555
C9 H5 1_555 1_555
C10 C9 1_555 1_555
H6 C10 1_555 1_555
C11 C10 1_555 1_555
C12 C11 1_555 1_555
H7 C12 1_555 1_555
C13 N1 1_555 1_555
H8 C13 1_555 1_555
C14 C11 1_555 1_555
H9 C14 1_555 1_555
C15 C14 1_555 1_555
H10 C15 1_555 1_555
C16 C15 1_555 1_555
C17 C16 1_555 1_555
H11 C17 1_555 1_555
C18 N2 1_555 1_555
H12 C18 1_555 1_555
C19 N2 1_555 1_555
H13 C19 1_555 1_555
C20 C16 1_555 1_555
H14 C20 1_555 1_555
C22 C23 1_555 1_555
C23 C24 1_555 1_555
C24 N3 1_555 1_555
C25 C26 1_555 1_555
C26 C24 1_555 1_555
C8A O4 1_555 1_555
C8_2 C3 1_555 1_555
O4A C8 1_555 1_555
C3_2 C8 1_555 1_555
C18_2 C17 1_555 1_555
C17_2 C18 1_555 1_555
C20_2 C19 1_555 1_555
C19_2 C20 1_555 1_555
C22A C22 1_555 1_555
O2 C7 1_555 1_555
C1 C7 1_555 1_555
C5 C6 1_555 1_555
C12 C13 1_555 1_555

#END
