
#######################################################################
#
#                 Cambridge Crystallographic Data Centre
#                                CCDC 
#
#######################################################################
#
# If this CIF has been generated from an entry in the Cambridge 
# Structural Database, then it will include bibliographic, chemical, 
# crystal, experimental, refinement or atomic coordinate data resulting 
# from the CCDC's data processing and validation procedures.
#
#######################################################################

data_XAGWUY
_symmetry_cell_setting           monoclinic
_symmetry_space_group_name_H-M   'P 21/c'
_symmetry_Int_Tables_number      14
_space_group_name_Hall           '-P 2ybc'
loop_
_symmetry_equiv_pos_site_id
_symmetry_equiv_pos_as_xyz
1 x,y,z
2 -x,1/2+y,1/2-z
3 -x,-y,-z
4 x,1/2-y,1/2+z
_cell_length_a                   14.3726(4)
_cell_length_b                   15.5078(5)
_cell_length_c                   7.3932(2)
_cell_angle_alpha                90
_cell_angle_beta                 90.576(2)
_cell_angle_gamma                90
_cell_volume                     1647.77
loop_
_atom_site_label
_atom_site_type_symbol
_atom_site_fract_x
_atom_site_fract_y
_atom_site_fract_z
V1 V 1.12012(3) -0.12213(3) 0.42026(6)
Co1 Co 1.23464(3) -0.02401(3) 0.78676(5)
P1 P 0.99558(5) 0.05139(5) 0.25046(10)
P2 P 1.21954(5) -0.19363(5) 0.04168(10)
O1 O 1.06209(15) -0.01587(13) 0.3220(3)
O2 O 1.20523(13) -0.07998(13) 0.5350(2)
O3 O 0.97496(13) 0.12350(13) 0.3834(2)
O4 O 1.18776(13) -0.12983(13) 0.1846(3)
O5 O 1.14220(13) -0.25512(13) -0.0140(3)
O6 O 1.00966(15) -0.19323(18) 0.2499(3)
H1 H 0.999(4) -0.172(4) 0.145(7)
H2 H 1.022(2) -0.243(3) 0.241(5)
O7 O 0.90708(14) 0.01030(13) 0.1746(3)
O8 O 1.25755(13) -0.14435(13) -0.1194(2)
O9 O 1.24515(18) 0.0272(2) 1.0475(4)
H3 H 1.225(5) -0.022(4) 1.098(9)
H4 H 1.209(3) 0.062(3) 1.077(7)
O10 O 1.04683(14) 0.09890(13) 0.0880(3)
H5 H 1.0595 0.0636 0.0094
O11 O 1.30477(13) -0.24688(13) 0.1182(3)
H6 H 1.2889 -0.2732 0.2090
N1 N 1.24492(17) 0.09165(16) 0.6495(3)
N2 N 1.38066(17) -0.01405(16) 0.7558(3)
C1 C 1.1759(2) 0.1405(2) 0.5873(4)
H7 H 1.1151 0.1211 0.6000
C2 C 1.1909(2) 0.2198(2) 0.5038(5)
H8 H 1.1408 0.2524 0.4621
C3 C 1.2795(3) 0.2490(2) 0.4837(5)
H9 H 1.2900 0.3027 0.4319
C4 C 1.3553(2) 0.1977(2) 0.5415(4)
C5 C 1.3342(2) 0.1191(2) 0.6230(4)
C6 C 1.4068(2) 0.0630(2) 0.6847(4)
C7 C 1.5004(2) 0.0885(2) 0.6655(4)
C8 C 1.5685(2) 0.0296(2) 0.7255(5)
H10 H 1.6312 0.0434 0.7166
C9 C 1.5424(2) -0.0475(2) 0.7966(5)
H11 H 1.5872 -0.0865 0.8363
C10 C 1.4476(2) -0.0678(2) 0.8098(4)
H12 H 1.4309 -0.1209 0.8581
C11 C 1.4512(2) 0.2213(2) 0.5241(4)
H13 H 1.4662 0.2735 0.4695
C12 C 1.5200(2) 0.1700(2) 0.5848(5)
H14 H 1.5815 0.1879 0.5742
O3B O 1.02504(13) -0.12350(13) 0.6166(2)
O5C O 1.14220(13) -0.24488(13) 0.4860(3)
O7B O 1.09292(14) -0.01030(13) 0.8254(3)
O8_2 O 1.25755(13) -0.14435(13) 0.8806(2)
V1B V 0.87988(3) 0.12213(3) 0.57974(6)
V1C V 1.12012(3) -0.37787(3) -0.07974(6)
Co1B Co 0.76536(3) 0.02401(3) 0.21324(5)
Co1_2 Co 1.23464(3) -0.02401(3) -0.21324(5)
loop_
_geom_bond_atom_site_label_1
_geom_bond_atom_site_label_2
_geom_bond_site_symmetry_1
_geom_bond_site_symmetry_2
V1 O1 1_555 1_555
Co1 O2 1_555 1_555
P1 O1 1_555 1_555
P2 O4 1_555 1_555
O2 V1 1_555 1_555
O3 P1 1_555 1_555
O4 V1 1_555 1_555
O5 P2 1_555 1_555
O6 V1 1_555 1_555
H1 O6 1_555 1_555
H2 O6 1_555 1_555
O7 P1 1_555 1_555
O8 P2 1_555 1_555
O9 Co1 1_555 1_555
H3 O9 1_555 1_555
H4 O9 1_555 1_555
O10 P1 1_555 1_555
H5 O10 1_555 1_555
O11 P2 1_555 1_555
H6 O11 1_555 1_555
N1 Co1 1_555 1_555
N2 Co1 1_555 1_555
C1 N1 1_555 1_555
H7 C1 1_555 1_555
C2 C1 1_555 1_555
H8 C2 1_555 1_555
C3 C2 1_555 1_555
H9 C3 1_555 1_555
C4 C3 1_555 1_555
C5 N1 1_555 1_555
C6 N2 1_555 1_555
C7 C6 1_555 1_555
C8 C7 1_555 1_555
H10 C8 1_555 1_555
C9 C8 1_555 1_555
H11 C9 1_555 1_555
C10 N2 1_555 1_555
H12 C10 1_555 1_555
C11 C4 1_555 1_555
H13 C11 1_555 1_555
C12 C7 1_555 1_555
H14 C12 1_555 1_555
O3B V1 1_555 1_555
O5C V1 1_555 1_555
O7B Co1 1_555 1_555
O8_2 Co1 1_555 1_555
V1B O3 1_555 1_555
V1C O5 1_555 1_555
Co1B O7 1_555 1_555
Co1_2 O8 1_555 1_555
C4 C5 1_555 1_555
C5 C6 1_555 1_555
C9 C10 1_555 1_555
C11 C12 1_555 1_555

#END
