
#######################################################################
#
#                 Cambridge Crystallographic Data Centre
#                                CCDC 
#
#######################################################################
#
# If this CIF has been generated from an entry in the Cambridge 
# Structural Database, then it will include bibliographic, chemical, 
# crystal, experimental, refinement or atomic coordinate data resulting 
# from the CCDC's data processing and validation procedures.
#
#######################################################################

data_XAHFOD
_symmetry_cell_setting           monoclinic
_symmetry_space_group_name_H-M   'P 21/c'
_symmetry_Int_Tables_number      14
_space_group_name_Hall           '-P 2ybc'
loop_
_symmetry_equiv_pos_site_id
_symmetry_equiv_pos_as_xyz
1 x,y,z
2 -x,1/2+y,1/2-z
3 -x,-y,-z
4 x,1/2-y,1/2+z
_cell_length_a                   12.3178(8)
_cell_length_b                   12.8907(8)
_cell_length_c                   12.1015(8)
_cell_angle_alpha                90
_cell_angle_beta                 115.818(1)
_cell_angle_gamma                90
_cell_volume                     1729.73
loop_
_atom_site_label
_atom_site_type_symbol
_atom_site_fract_x
_atom_site_fract_y
_atom_site_fract_z
Ni1 Ni 0.5000 0.5000 0.5000
Ni2 Ni 0.0000 0.5000 0.5000
N1 N 0.1276(2) 0.48209(19) 0.4258(2)
C1 C 0.2429(2) 0.5024(2) 0.4870(3)
H1 H 0.2758 0.5265 0.5674
N2 N 0.3112(2) 0.48647(18) 0.4267(2)
C2 C 0.2306(2) 0.4529(2) 0.3162(2)
N3 N 0.2492(2) 0.4271(2) 0.2192(2)
C3 C 0.1526(3) 0.3943(3) 0.1220(3)
H2 H 0.1621 0.3741 0.0529
C4 C 0.0375(3) 0.3885(3) 0.1172(3)
H3 H -0.0270 0.3647 0.0465
C5 C 0.0201(3) 0.4174(3) 0.2154(3)
H4 H -0.0558 0.4156 0.2145
N4 N 0.1194(2) 0.44930(18) 0.3156(2)
N5 N 0.4932(3) 0.7925(2) 0.3297(3)
C6 C 0.5209(3) 0.6948(3) 0.3583(3)
H5 H 0.5639 0.6567 0.3253
N6 N 0.4840(2) 0.65235(18) 0.4381(2)
C7 C 0.4286(3) 0.7310(2) 0.4635(3)
N7 N 0.3776(2) 0.7331(2) 0.5408(2)
C8 C 0.3292(3) 0.8230(3) 0.5479(3)
H6 H 0.2918 0.8277 0.5999
C9 C 0.3309(4) 0.9117(3) 0.4817(4)
H7 H 0.2955 0.9729 0.4905
C10 C 0.3841(3) 0.9077(3) 0.4053(3)
H8 H 0.3868 0.9651 0.3600
N8 N 0.4334(2) 0.81608(19) 0.3980(2)
N9 N 0.0802(2) 0.6376(2) 0.5773(3)
C11 C 0.1076(3) 0.7103(2) 0.6385(3)
S1 S 0.14719(11) 0.81142(8) 0.72705(10)
N10 N 0.1186(2) 0.4252(2) 0.6569(2)
C12 C 0.1839(3) 0.3811(2) 0.7412(3)
S2 S 0.27801(12) 0.32036(8) 0.86398(11)
O1 O 0.49864(19) 0.45490(17) 0.33360(19)
H9 H 0.4300(14) 0.444(3) 0.282(2)
H10 H 0.528(3) 0.3974(13) 0.338(3)
Ni1_2 Ni -0.5000 0.5000 0.5000
N1B N -0.1276(2) 0.51791(19) 0.5742(2)
C1B C -0.2429(2) 0.4976(2) 0.5130(3)
H1B H -0.2758 0.4735 0.4326
N2B N -0.3112(2) 0.51353(18) 0.5733(2)
N2B_2 N 0.6888(2) 0.51353(18) 0.5733(2)
C2B C -0.2306(2) 0.5471(2) 0.6838(2)
N3B N -0.2492(2) 0.5729(2) 0.7808(2)
C3B C -0.1526(3) 0.6057(3) 0.8780(3)
H2B H -0.1621 0.6259 0.9471
C4B C -0.0375(3) 0.6115(3) 0.8828(3)
H3B H 0.0270 0.6353 0.9535
C5B C -0.0201(3) 0.5826(3) 0.7846(3)
H4B H 0.0558 0.5844 0.7855
N4B N -0.1194(2) 0.55070(18) 0.6844(2)
N5B N 0.5068(3) 0.2075(2) 0.6703(3)
C6B C 0.4791(3) 0.3052(3) 0.6417(3)
H5B H 0.4361 0.3433 0.6747
N6B N 0.5160(2) 0.34765(18) 0.5619(2)
C7B C 0.5714(3) 0.2690(2) 0.5365(3)
N7B N 0.6224(2) 0.2669(2) 0.4592(2)
C8B C 0.6708(3) 0.1770(3) 0.4521(3)
H6B H 0.7082 0.1723 0.4001
C9B C 0.6691(4) 0.0883(3) 0.5183(4)
H7B H 0.7045 0.0271 0.5095
C10B C 0.6159(3) 0.0923(3) 0.5947(3)
H8B H 0.6132 0.0349 0.6400
N8B N 0.5666(2) 0.18392(19) 0.6020(2)
N9B N -0.0802(2) 0.3624(2) 0.4227(3)
C11B C -0.1076(3) 0.2897(2) 0.3615(3)
S1B S -0.14719(11) 0.18858(8) 0.27295(10)
N10B N -0.1186(2) 0.5748(2) 0.3431(2)
C12B C -0.1839(3) 0.6189(2) 0.2588(3)
S2B S -0.27801(12) 0.67964(8) 0.13602(11)
O1B O 0.50136(19) 0.54510(17) 0.66640(19)
H9B H 0.5700(14) 0.556(3) 0.718(2)
H10B H 0.472(3) 0.6026(13) 0.662(3)
loop_
_geom_bond_atom_site_label_1
_geom_bond_atom_site_label_2
_geom_bond_site_symmetry_1
_geom_bond_site_symmetry_2
Ni1 N2 1_555 1_555
Ni2 N1 1_555 1_555
N1 C1 1_555 1_555
C1 H1 1_555 1_555
N2 C1 1_555 1_555
C2 N2 1_555 1_555
N3 C2 1_555 1_555
C3 N3 1_555 1_555
H2 C3 1_555 1_555
C4 C3 1_555 1_555
H3 C4 1_555 1_555
C5 C4 1_555 1_555
H4 C5 1_555 1_555
N4 N1 1_555 1_555
N5 C6 1_555 1_555
C6 H5 1_555 1_555
N6 Ni1 1_555 1_555
C7 N6 1_555 1_555
N7 C7 1_555 1_555
C8 N7 1_555 1_555
H6 C8 1_555 1_555
C9 C8 1_555 1_555
H7 C9 1_555 1_555
C10 C9 1_555 1_555
H8 C10 1_555 1_555
N8 N5 1_555 1_555
N9 Ni2 1_555 1_555
C11 N9 1_555 1_555
S1 C11 1_555 1_555
N10 Ni2 1_555 1_555
C12 N10 1_555 1_555
S2 C12 1_555 1_555
O1 Ni1 1_555 1_555
H9 O1 1_555 1_555
H10 O1 1_555 1_555
Ni1_2 N2B 1_555 1_555
N1B Ni2 1_555 1_555
C1B N1B 1_555 1_555
H1B C1B 1_555 1_555
N2B C1B 1_555 1_555
N2B_2 Ni1 1_555 1_555
C2B N2B 1_555 1_555
N3B C2B 1_555 1_555
C3B N3B 1_555 1_555
H2B C3B 1_555 1_555
C4B C3B 1_555 1_555
H3B C4B 1_555 1_555
C5B C4B 1_555 1_555
H4B C5B 1_555 1_555
N4B N1B 1_555 1_555
N5B C6B 1_555 1_555
C6B H5B 1_555 1_555
N6B Ni1 1_555 1_555
C7B N6B 1_555 1_555
N7B C7B 1_555 1_555
C8B N7B 1_555 1_555
H6B C8B 1_555 1_555
C9B C8B 1_555 1_555
H7B C9B 1_555 1_555
C10B C9B 1_555 1_555
H8B C10B 1_555 1_555
N8B N5B 1_555 1_555
N9B Ni2 1_555 1_555
C11B N9B 1_555 1_555
S1B C11B 1_555 1_555
N10B Ni2 1_555 1_555
C12B N10B 1_555 1_555
S2B C12B 1_555 1_555
O1B Ni1 1_555 1_555
H9B O1B 1_555 1_555
H10B O1B 1_555 1_555
C2 N4 1_555 1_555
C5 N4 1_555 1_555
C6 N6 1_555 1_555
C7 N8 1_555 1_555
C10 N8 1_555 1_555
C2B N4B 1_555 1_555
C5B N4B 1_555 1_555
C6B N6B 1_555 1_555
C7B N8B 1_555 1_555
C10B N8B 1_555 1_555

#END
