
#######################################################################
#
#                 Cambridge Crystallographic Data Centre
#                                CCDC 
#
#######################################################################
#
# If this CIF has been generated from an entry in the Cambridge 
# Structural Database, then it will include bibliographic, chemical, 
# crystal, experimental, refinement or atomic coordinate data resulting 
# from the CCDC's data processing and validation procedures.
#
#######################################################################

data_XAHKOG
_symmetry_cell_setting           triclinic
_symmetry_space_group_name_H-M   'P -1'
_symmetry_Int_Tables_number      2
_space_group_name_Hall           '-P 1'
loop_
_symmetry_equiv_pos_site_id
_symmetry_equiv_pos_as_xyz
1 x,y,z
2 -x,-y,-z
_cell_length_a                   10.216(7)
_cell_length_b                   11.372(6)
_cell_length_c                   11.788(7)
_cell_angle_alpha                82.76(1)
_cell_angle_beta                 72.70(1)
_cell_angle_gamma                75.57(1)
_cell_volume                     1264.29
loop_
_atom_site_label
_atom_site_type_symbol
_atom_site_fract_x
_atom_site_fract_y
_atom_site_fract_z
V1 V 0.33187(11) 0.15283(10) 0.49470(10)
V2 V 0.17857(12) -0.00918(10) 0.91102(10)
V3 V 0.68278(11) 0.11350(10) 0.37103(10)
O1 O 0.3460(5) 0.1933(5) 0.6200(4)
O2 O 0.2234(5) 0.1244(4) 0.8761(5)
O3 O 0.5019(5) 0.1371(5) 0.3792(4)
O4 O 0.2147(5) 0.2567(4) 0.4491(5)
O5 O 0.2839(6) -0.0935(6) 0.9824(6)
O6 O 0.0000 0.0000 1.0000
O7 O 0.2767(5) 0.0089(4) 0.5242(4)
O8 O 0.7907(6) 0.0831(5) 0.2263(4)
O9 O 0.7125(6) 0.2343(4) 0.4069(5)
C1 C 0.1010(8) 0.4326(8) 0.7181(7)
H1 H 0.1067 0.3754 0.6625
C2 C 0.0117(9) 0.5465(10) 0.7157(9)
H2 H -0.0459 0.5670 0.6618
C3 C 0.0065(9) 0.6299(8) 0.7938(10)
H3 H -0.0513 0.7104 0.7917
C4 C 0.0861(8) 0.5978(6) 0.8771(8)
C5 C 0.1737(7) 0.4780(6) 0.8716(6)
C6 C 0.0882(12) 0.6758(8) 0.9655(10)
H4 H 0.0298 0.7565 0.9702
C7 C 0.1715(12) 0.6381(9) 1.0380(10)
H5 H 0.1690 0.6920 1.0955
C8 C 0.2629(10) 0.5177(8) 1.0348(7)
C9 C 0.2641(7) 0.4387(6) 0.9526(6)
C10 C 0.3498(12) 0.4738(10) 1.1092(7)
H6 H 0.3512 0.5243 1.1680
C11 C 0.4345(12) 0.3580(11) 1.0977(8)
H7 H 0.4930 0.3264 1.1499
C12 C 0.4336(8) 0.2867(7) 1.0104(7)
H8 H 0.4970 0.2084 0.9992
C13 C 0.4709(7) 0.4751(6) 0.6557(6)
H9 H 0.3745 0.5181 0.6690
C14 C 0.5767(8) 0.5378(6) 0.6004(6)
H10 H 0.5526 0.6227 0.5773
C15 C 0.7160(7) 0.4773(6) 0.5789(6)
H11 H 0.7893 0.5200 0.5417
C16 C 0.7496(7) 0.3526(6) 0.6129(6)
C17 C 0.6368(7) 0.2950(6) 0.6713(5)
C18 C 0.8926(8) 0.2809(7) 0.5928(7)
H12 H 0.9698 0.3189 0.5549
C19 C 0.9178(7) 0.1602(7) 0.6291(7)
H13 H 1.0128 0.1132 0.6127
C20 C 0.8045(7) 0.1011(6) 0.6905(7)
C21 C 0.6645(6) 0.1678(6) 0.7111(6)
C22 C 0.8286(9) -0.0239(7) 0.7315(8)
H14 H 0.9225 -0.0719 0.7220
C23 C 0.7141(8) -0.0729(7) 0.7874(8)
H15 H 0.7273 -0.1576 0.8130
C24 C 0.5777(7) 0.0003(6) 0.8043(7)
H16 H 0.4992 -0.0355 0.8441
N1 N 0.1815(6) 0.3978(5) 0.7925(5)
N2 N 0.3478(6) 0.3239(5) 0.9392(5)
N3 N 0.4988(6) 0.3547(5) 0.6914(4)
N4 N 0.5519(5) 0.1179(5) 0.7680(5)
Co1 Co 0.35007(9) 0.24069(7) 0.78432(8)
V3A V 0.31722(11) -0.11350(10) 0.62897(10)
O7A O 0.7233(5) -0.0089(4) 0.4758(4)
O3A O 0.4981(5) -0.1371(5) 0.6208(4)
O8A O 0.2093(6) -0.0831(5) 0.7737(4)
O9A O 0.2875(6) -0.2343(4) 0.5931(5)
V1A V 0.66813(11) -0.15283(10) 0.50530(10)
V2A V 0.82143(12) 0.00918(10) 0.08898(10)
O1A O 0.6540(5) -0.1933(5) 0.3800(4)
O4A O 0.7853(5) -0.2567(4) 0.5509(5)
O2A O 0.7766(5) -0.1244(4) 0.1239(5)
O5A O 0.7161(6) 0.0935(6) 0.0176(6)
Co1A Co 0.64993(9) -0.24069(7) 0.21568(8)
C1A C 0.8990(8) -0.4326(8) 0.2819(7)
H1A H 0.8933 -0.3754 0.3375
C2A C 0.9883(9) -0.5465(10) 0.2843(9)
H2A H 1.0459 -0.5670 0.3382
C3A C 0.9935(9) -0.6299(8) 0.2062(10)
H3A H 1.0513 -0.7104 0.2083
C4A C 0.9139(8) -0.5978(6) 0.1229(8)
C5A C 0.8263(7) -0.4780(6) 0.1284(6)
C6A C 0.9118(12) -0.6758(8) 0.0345(10)
H4A H 0.9702 -0.7565 0.0298
C7A C 0.8285(12) -0.6381(9) -0.0380(10)
H5A H 0.8310 -0.6920 -0.0955
C8A C 0.7371(10) -0.5177(8) -0.0348(7)
C9A C 0.7359(7) -0.4387(6) 0.0474(6)
C10A C 0.6502(12) -0.4738(10) -0.1092(7)
H6A H 0.6488 -0.5243 -0.1680
C11A C 0.5655(12) -0.3580(11) -0.0977(8)
H7A H 0.5070 -0.3264 -0.1499
C12A C 0.5664(8) -0.2867(7) -0.0104(7)
H8A H 0.5030 -0.2084 0.0008
N1A N 0.8185(6) -0.3978(5) 0.2075(5)
N2A N 0.6522(6) -0.3239(5) 0.0608(5)
C13A C 0.5291(7) -0.4751(6) 0.3443(6)
H9A H 0.6255 -0.5181 0.3310
C14A C 0.4233(8) -0.5378(6) 0.3996(6)
H10A H 0.4474 -0.6227 0.4227
C15A C 0.2840(7) -0.4773(6) 0.4211(6)
H11A H 0.2107 -0.5200 0.4583
C16A C 0.2504(7) -0.3526(6) 0.3871(6)
C17A C 0.3632(7) -0.2950(6) 0.3287(5)
C18A C 0.1074(8) -0.2809(7) 0.4072(7)
H12A H 0.0302 -0.3189 0.4451
C19A C 0.0822(7) -0.1602(7) 0.3709(7)
H13A H -0.0128 -0.1132 0.3873
C20A C 0.1955(7) -0.1011(6) 0.3095(7)
C21A C 0.3355(6) -0.1678(6) 0.2889(6)
C22A C 0.1714(9) 0.0239(7) 0.2685(8)
H14A H 0.0775 0.0719 0.2780
C23A C 0.2859(8) 0.0729(7) 0.2126(8)
H15A H 0.2727 0.1576 0.1870
C24A C 0.4223(7) -0.0003(6) 0.1957(7)
H16A H 0.5008 0.0355 0.1559
N3A N 0.5012(6) -0.3547(5) 0.3086(4)
N4A N 0.4481(5) -0.1179(5) 0.2320(5)
V2A_2 V -0.17857(12) 0.00918(10) 1.08898(10)
O6_2 O 1.0000 0.0000 0.0000
loop_
_geom_bond_atom_site_label_1
_geom_bond_atom_site_label_2
_geom_bond_site_symmetry_1
_geom_bond_site_symmetry_2
V1 O1 1_555 1_555
V2 O2 1_555 1_555
V3 O3 1_555 1_555
O1 Co1 1_555 1_555
O2 Co1 1_555 1_555
O3 V1 1_555 1_555
O4 V1 1_555 1_555
O5 V2 1_555 1_555
O6 V2 1_555 1_555
O7 V1 1_555 1_555
O8 V3 1_555 1_555
O9 V3 1_555 1_555
C1 H1 1_555 1_555
C2 C1 1_555 1_555
H2 C2 1_555 1_555
C3 C2 1_555 1_555
H3 C3 1_555 1_555
C4 C3 1_555 1_555
C5 C4 1_555 1_555
C6 C4 1_555 1_555
H4 C6 1_555 1_555
C7 C6 1_555 1_555
H5 C7 1_555 1_555
C8 C7 1_555 1_555
C9 C5 1_555 1_555
C10 C8 1_555 1_555
H6 C10 1_555 1_555
C11 C10 1_555 1_555
H7 C11 1_555 1_555
C12 C11 1_555 1_555
H8 C12 1_555 1_555
C13 H9 1_555 1_555
C14 C13 1_555 1_555
H10 C14 1_555 1_555
C15 C14 1_555 1_555
H11 C15 1_555 1_555
C16 C15 1_555 1_555
C17 C16 1_555 1_555
C18 C16 1_555 1_555
H12 C18 1_555 1_555
C19 C18 1_555 1_555
H13 C19 1_555 1_555
C20 C19 1_555 1_555
C21 C17 1_555 1_555
C22 C20 1_555 1_555
H14 C22 1_555 1_555
C23 C22 1_555 1_555
H15 C23 1_555 1_555
C24 C23 1_555 1_555
H16 C24 1_555 1_555
N1 C1 1_555 1_555
N2 C9 1_555 1_555
N3 C13 1_555 1_555
N4 C21 1_555 1_555
Co1 N1 1_555 1_555
V3A O7 1_555 1_555
O7A V3 1_555 1_555
O3A V3A 1_555 1_555
O8A V2 1_555 1_555
O9A V3A 1_555 1_555
V1A O7A 1_555 1_555
V2A O8 1_555 1_555
O1A V1A 1_555 1_555
O4A V1A 1_555 1_555
O2A V2A 1_555 1_555
O5A V2A 1_555 1_555
Co1A O1A 1_555 1_555
C1A H1A 1_555 1_555
C2A C1A 1_555 1_555
H2A C2A 1_555 1_555
C3A C2A 1_555 1_555
H3A C3A 1_555 1_555
C4A C3A 1_555 1_555
C5A C4A 1_555 1_555
C6A C4A 1_555 1_555
H4A C6A 1_555 1_555
C7A C6A 1_555 1_555
H5A C7A 1_555 1_555
C8A C7A 1_555 1_555
C9A C5A 1_555 1_555
C10A C8A 1_555 1_555
H6A C10A 1_555 1_555
C11A C10A 1_555 1_555
H7A C11A 1_555 1_555
C12A C11A 1_555 1_555
H8A C12A 1_555 1_555
N1A Co1A 1_555 1_555
N2A Co1A 1_555 1_555
C13A H9A 1_555 1_555
C14A C13A 1_555 1_555
H10A C14A 1_555 1_555
C15A C14A 1_555 1_555
H11A C15A 1_555 1_555
C16A C15A 1_555 1_555
C17A C16A 1_555 1_555
C18A C16A 1_555 1_555
H12A C18A 1_555 1_555
C19A C18A 1_555 1_555
H13A C19A 1_555 1_555
C20A C19A 1_555 1_555
C21A C17A 1_555 1_555
C22A C20A 1_555 1_555
H14A C22A 1_555 1_555
C23A C22A 1_555 1_555
H15A C23A 1_555 1_555
C24A C23A 1_555 1_555
H16A C24A 1_555 1_555
N3A Co1A 1_555 1_555
N4A Co1A 1_555 1_555
V2A_2 O6 1_555 1_555
O6_2 V2A 1_555 1_555
C5 N1 1_555 1_555
C8 C9 1_555 1_555
C12 N2 1_555 1_555
C17 N3 1_555 1_555
C20 C21 1_555 1_555
C24 N4 1_555 1_555
N2 Co1 1_555 1_555
N3 Co1 1_555 1_555
N4 Co1 1_555 1_555
V3A O8A 1_555 1_555
O3A V1A 1_555 1_555
O2A Co1A 1_555 1_555
C1A N1A 1_555 1_555
C5A N1A 1_555 1_555
C8A C9A 1_555 1_555
C9A N2A 1_555 1_555
C12A N2A 1_555 1_555
C13A N3A 1_555 1_555
C17A N3A 1_555 1_555
C20A C21A 1_555 1_555
C21A N4A 1_555 1_555
C24A N4A 1_555 1_555

#END
