
#######################################################################
#
#                 Cambridge Crystallographic Data Centre
#                                CCDC 
#
#######################################################################
#
# If this CIF has been generated from an entry in the Cambridge 
# Structural Database, then it will include bibliographic, chemical, 
# crystal, experimental, refinement or atomic coordinate data resulting 
# from the CCDC's data processing and validation procedures.
#
#######################################################################

data_XAHKIB
_symmetry_cell_setting           orthorhombic
_symmetry_space_group_name_H-M   'P c c n'
_symmetry_Int_Tables_number      56
_space_group_name_Hall           '-P 2ab 2ac'
loop_
_symmetry_equiv_pos_site_id
_symmetry_equiv_pos_as_xyz
1 x,y,z
2 1/2-x,1/2-y,z
3 -x,1/2+y,1/2-z
4 1/2+x,-y,1/2-z
5 -x,-y,-z
6 1/2+x,1/2+y,-z
7 x,1/2-y,1/2+z
8 1/2-x,y,1/2+z
_cell_length_a                   16.9600(10)
_cell_length_b                   25.7040(10)
_cell_length_c                   16.1080(10)
_cell_angle_alpha                90
_cell_angle_beta                 90
_cell_angle_gamma                90
_cell_volume                     7022.12
loop_
_atom_site_label
_atom_site_type_symbol
_atom_site_fract_x
_atom_site_fract_y
_atom_site_fract_z
Co1 Co 0.109572(17) 0.512340(11) 0.249734(17)
Co2 Co 0.009272(17) 0.261399(12) 0.130208(18)
O1 O 0.06599(9) 0.58091(6) 0.37132(9)
O2 O 0.18098(9) 0.55396(6) 0.32124(10)
O3 O 0.08157(9) 0.44051(6) 0.12225(10)
O4 O 0.18796(9) 0.47135(6) 0.18617(10)
O5 O 0.08264(9) 0.30025(6) 0.05499(10)
O6 O 0.11705(9) 0.33130(6) 0.17848(10)
N1 N 0.05749(11) 0.56309(7) 0.17210(11)
N2 N -0.07099(11) 0.31412(7) 0.16982(12)
N3 N 0.02586(12) 0.63911(7) 0.11886(11)
C1 C 0.05348(13) 0.41052(9) 0.31098(14)
N4 N 0.08029(11) 0.21054(7) 0.19011(12)
N5 N 0.04967(10) 0.46164(7) 0.32136(11)
N6 N 0.00895(11) 0.38576(7) 0.36714(11)
C2 C 0.07113(14) 0.15937(9) 0.18834(15)
C3 C 0.13906(13) 0.58046(8) 0.37213(13)
N7 N -0.12398(11) 0.39085(7) 0.19311(13)
C4 C 0.19124(14) 0.35809(9) 0.05968(15)
C5 C 0.15401(13) 0.44210(8) 0.13228(13)
C6 C 0.01996(14) 0.55538(10) 0.09672(14)
C7 C 0.18324(12) 0.61021(8) 0.43752(13)
C8 C 0.12569(13) 0.32869(8) 0.10168(15)
C9 C 0.20758(13) 0.41021(9) 0.07845(14)
C10 C 0.05985(13) 0.61424(9) 0.18283(14)
C11 C 0.00017(14) 0.46945(10) 0.38824(15)
C12 C -0.14770(14) 0.30752(10) 0.19749(16)
C13 C 0.24121(14) 0.58490(10) 0.48297(15)
N8 N 0.12929(12) 0.13524(8) 0.22862(15)
C14 C -0.02496(15) 0.42283(10) 0.41691(16)
C15 C 0.00003(15) 0.60201(10) 0.06363(15)
C16 C -0.05986(14) 0.36496(9) 0.16778(14)
C17 C -0.18039(14) 0.35429(10) 0.21225(17)
C18 C 0.0196(2) 0.69570(10) 0.11011(19)
C19 C 0.27800(16) 0.60898(11) 0.54928(17)
C20 C 0.27331(17) 0.43368(11) 0.04344(17)
C21 C -0.00274(19) 0.32929(10) 0.37124(19)
C22 C 0.25748(16) 0.65949(11) 0.57031(17)
C23 C 0.3208(2) 0.40735(13) -0.0117(2)
C24 C 0.23920(18) 0.33183(12) 0.0044(2)
C25 C 0.14906(17) 0.21891(12) 0.2336(2)
C26 C 0.13557(19) 0.07917(11) 0.2436(2)
C27 C 0.17958(18) 0.17290(12) 0.2576(2)
C28 C 0.3038(2) 0.35595(14) -0.0313(3)
C29 C -0.13014(18) 0.44722(10) 0.2021(2)
C30 C 0.16273(13) 0.66140(8) 0.45844(13)
C31 C 0.10437(13) 0.69176(8) 0.40788(14)
C32 C 0.20014(14) 0.68523(10) 0.52538(15)
O7 O 0.10785(9) 0.69124(6) 0.33070(9)
O8 O 0.05412(9) 0.71881(6) 0.44884(10)
H1 H 0.0815(14) 0.6306(9) 0.2270(16)
H2 H 0.0350(17) 0.3123(11) 0.3356(18)
H3 H 0.0141(14) 0.5227(10) 0.0766(15)
H4 H -0.0081(14) 0.5026(10) 0.4119(15)
H5 H 0.0803(14) 0.3920(9) 0.2707(15)
H6 H 0.0031(17) 0.3167(12) 0.424(2)
H7 H -0.0171(15) 0.3792(9) 0.1519(15)
H8 H -0.0571(18) 0.4140(12) 0.4633(19)
H9 H 0.2537(14) 0.5513(10) 0.4694(16)
H10 H 0.0298(16) 0.1408(10) 0.1661(16)
H11 H -0.131(2) 0.4562(16) 0.262(3)
H12 H -0.1754(19) 0.4590(11) 0.1828(19)
H13 H -0.1688(15) 0.2738(10) 0.2025(16)
H14 H -0.0215(14) 0.6092(9) 0.0172(16)
H15 H 0.3158(17) 0.5910(11) 0.5811(18)
H16 H 0.1847(15) 0.7212(11) 0.5402(16)
H17 H -0.2292(17) 0.3644(11) 0.2333(17)
H18 H 0.2838(16) 0.4715(11) 0.0593(17)
H19 H 0.0536(18) 0.7086(12) 0.064(2)
H20 H 0.2835(17) 0.6756(11) 0.6145(18)
H21 H -0.0565(19) 0.3205(11) 0.3532(18)
H22 H 0.1842(18) 0.0671(11) 0.2252(18)
H23 H 0.3664(19) 0.4244(12) -0.037(2)
H24 H -0.0832(19) 0.4627(11) 0.1880(19)
H25 H -0.0337(18) 0.7050(11) 0.0942(18)
H26 H 0.1672(17) 0.2494(12) 0.2418(17)
H27 H 0.2302(18) 0.2967(13) -0.0031(19)
H28 H 0.093(2) 0.0605(13) 0.210(2)
H29 H 0.2239(19) 0.1631(12) 0.287(2)
H30 H 0.0353(18) 0.7110(12) 0.157(2)
H31 H 0.127(2) 0.0716(13) 0.301(2)
H32 H 0.337(2) 0.3372(13) -0.068(2)
O8B O -0.05412(9) 0.21881(6) 0.05116(10)
Co2B Co -0.009272(17) 0.761399(12) 0.369792(18)
loop_
_geom_bond_atom_site_label_1
_geom_bond_atom_site_label_2
_geom_bond_site_symmetry_1
_geom_bond_site_symmetry_2
Co1 O2 1_555 1_555
Co2 O5 1_555 1_555
O1 C3 1_555 1_555
O2 C3 1_555 1_555
O3 C5 1_555 1_555
O4 Co1 1_555 1_555
O5 C8 1_555 1_555
O6 C8 1_555 1_555
N1 Co1 1_555 1_555
N2 Co2 1_555 1_555
N3 C10 1_555 1_555
C1 N5 1_555 1_555
N4 Co2 1_555 1_555
N5 Co1 1_555 1_555
N6 C1 1_555 1_555
C2 N4 1_555 1_555
C3 C7 1_555 1_555
N7 C16 1_555 1_555
C4 C8 1_555 1_555
C5 O4 1_555 1_555
C6 N1 1_555 1_555
C7 C13 1_555 1_555
C9 C4 1_555 1_555
C10 N1 1_555 1_555
C11 N5 1_555 1_555
C12 N2 1_555 1_555
C13 C19 1_555 1_555
N8 C2 1_555 1_555
C14 N6 1_555 1_555
C15 N3 1_555 1_555
C16 N2 1_555 1_555
C17 N7 1_555 1_555
C18 N3 1_555 1_555
C19 C22 1_555 1_555
C20 C9 1_555 1_555
C21 N6 1_555 1_555
C22 C32 1_555 1_555
C23 C20 1_555 1_555
C24 C4 1_555 1_555
C25 N4 1_555 1_555
C26 N8 1_555 1_555
C27 N8 1_555 1_555
C28 C23 1_555 1_555
C29 N7 1_555 1_555
C30 C7 1_555 1_555
C31 C30 1_555 1_555
C32 C30 1_555 1_555
O7 C31 1_555 1_555
O8 C31 1_555 1_555
H1 C10 1_555 1_555
H2 C21 1_555 1_555
H3 C6 1_555 1_555
H4 C11 1_555 1_555
H5 C1 1_555 1_555
H6 C21 1_555 1_555
H7 C16 1_555 1_555
H8 C14 1_555 1_555
H9 C13 1_555 1_555
H10 C2 1_555 1_555
H11 C29 1_555 1_555
H12 C29 1_555 1_555
H13 C12 1_555 1_555
H14 C15 1_555 1_555
H15 C19 1_555 1_555
H16 C32 1_555 1_555
H17 C17 1_555 1_555
H18 C20 1_555 1_555
H19 C18 1_555 1_555
H20 C22 1_555 1_555
H21 C21 1_555 1_555
H22 C26 1_555 1_555
H23 C23 1_555 1_555
H24 C29 1_555 1_555
H25 C18 1_555 1_555
H26 C25 1_555 1_555
H27 C24 1_555 1_555
H28 C26 1_555 1_555
H29 C27 1_555 1_555
H30 C18 1_555 1_555
H31 C26 1_555 1_555
H32 C28 1_555 1_555
O8B Co2 1_555 1_555
Co2B O8 1_555 1_555
C5 C9 1_555 1_555
C6 C15 1_555 1_555
C11 C14 1_555 1_555
C12 C17 1_555 1_555
C24 C28 1_555 1_555
C25 C27 1_555 1_555

#END
