
#######################################################################
#
#                 Cambridge Crystallographic Data Centre
#                                CCDC 
#
#######################################################################
#
# If this CIF has been generated from an entry in the Cambridge 
# Structural Database, then it will include bibliographic, chemical, 
# crystal, experimental, refinement or atomic coordinate data resulting 
# from the CCDC's data processing and validation procedures.
#
#######################################################################

data_XAHLIB
_symmetry_cell_setting           orthorhombic
_symmetry_space_group_name_H-M   'P b c n'
_symmetry_Int_Tables_number      60
_space_group_name_Hall           '-P 2n 2ab'
loop_
_symmetry_equiv_pos_site_id
_symmetry_equiv_pos_as_xyz
1 x,y,z
2 1/2-x,1/2-y,1/2+z
3 -x,y,1/2-z
4 1/2+x,1/2-y,-z
5 -x,-y,-z
6 1/2+x,1/2+y,1/2-z
7 x,-y,1/2+z
8 1/2-x,1/2+y,z
_cell_length_a                   13.3874(4)
_cell_length_b                   13.9184(7)
_cell_length_c                   12.0950(7)
_cell_angle_alpha                90
_cell_angle_beta                 90
_cell_angle_gamma                90
_cell_volume                     2253.68
loop_
_atom_site_label
_atom_site_type_symbol
_atom_site_fract_x
_atom_site_fract_y
_atom_site_fract_z
Co1 Co -0.5000 0.30583(4) 0.2500
Cl1 Cl -0.37350(7) 0.30771(7) 0.10642(6)
N1 N -0.5000 0.1536(3) 0.2500
C1 C -0.4603(3) 0.1042(3) 0.3354(3)
C2 C -0.4574(3) 0.0043(3) 0.3373(3)
C3 C -0.5000 -0.0476(4) 0.2500
C4 C -0.4242(3) 0.1616(3) 0.4348(3)
S1 S -0.37983(7) 0.28126(7) 0.40454(7)
C5 C -0.2579(3) 0.2569(4) 0.3473(3)
N2 N -0.5000 -0.5421(3) 0.2500
C6 C -0.4741(3) -0.4910(3) 0.3402(3)
C7 C -0.4734(3) -0.3922(3) 0.3441(3)
C8 C -0.5000 -0.3402(4) 0.2500
C9 C -0.5000 -0.2371(4) 0.2500
C10 C -0.5000 -0.1504(4) 0.2500
H1 H -0.4267 -0.0285 0.3972
H2 H -0.3711 0.1269 0.4683
H3 H -0.4781 0.1669 0.4854
H4 H -0.2265 0.3157 0.3278
H5 H -0.2184 0.2243 0.4006
H6 H -0.2647 0.2178 0.2833
H7 H -0.4552 -0.5252 0.4048
H8 H -0.4550 -0.3598 0.4102
Cl1B Cl -0.62650(7) 0.30771(7) 0.39358(6)
S1B S -0.62017(7) 0.28126(7) 0.09546(7)
C1B C -0.5397(3) 0.1042(3) 0.1646(3)
C2B C -0.5426(3) 0.0043(3) 0.1627(3)
C4B C -0.5758(3) 0.1616(3) 0.0652(3)
C5B C -0.7421(3) 0.2569(4) 0.1527(3)
H1B H -0.5733 -0.0285 0.1028
H2B H -0.6289 0.1269 0.0317
H3B H -0.5219 0.1669 0.0146
H4B H -0.7735 0.3157 0.1722
H5B H -0.7816 0.2243 0.0994
H6B H -0.7353 0.2178 0.2167
C7B C -0.5266(3) -0.3922(3) 0.1559(3)
C6B C -0.5259(3) -0.4910(3) 0.1598(3)
H8B H -0.5450 -0.3598 0.0898
N2_2 N -0.5000 0.4579(3) 0.2500
H7B H -0.5448 -0.5252 0.0952
Co1_2 Co -0.5000 -0.69417(4) 0.2500
C11 C -0.7462(3) 0.0504(4) 0.3892(4)
O1 O -0.7627(4) -0.0040(4) 0.4819(4)
O2? O 0.3274(7) 0.0871(6) 0.4503(7)
loop_
_geom_bond_atom_site_label_1
_geom_bond_atom_site_label_2
_geom_bond_site_symmetry_1
_geom_bond_site_symmetry_2
Co1 Cl1 1_555 1_555
N1 Co1 1_555 1_555
C1 N1 1_555 1_555
C2 C1 1_555 1_555
C3 C2 1_555 1_555
C4 C1 1_555 1_555
S1 Co1 1_555 1_555
C5 S1 1_555 1_555
N2 C6 1_555 1_555
C6 C7 1_555 1_555
C7 C8 1_555 1_555
C8 C9 1_555 1_555
C9 C10 1_555 1_555
C10 C3 1_555 1_555
H1 C2 1_555 1_555
H2 C4 1_555 1_555
H3 C4 1_555 1_555
H4 C5 1_555 1_555
H5 C5 1_555 1_555
H6 C5 1_555 1_555
H7 C6 1_555 1_555
H8 C7 1_555 1_555
C11 O1 1_555 1_555
Cl1B Co1 1_555 1_555
S1B Co1 1_555 1_555
C1B N1 1_555 1_555
C2B C3 1_555 1_555
C4B S1B 1_555 1_555
C5B S1B 1_555 1_555
H1B C2B 1_555 1_555
H2B C4B 1_555 1_555
H3B C4B 1_555 1_555
H4B C5B 1_555 1_555
H5B C5B 1_555 1_555
H6B C5B 1_555 1_555
C7B C8 1_555 1_555
C6B N2 1_555 1_555
H8B C7B 1_555 1_555
N2_2 Co1 1_555 1_555
H7B C6B 1_555 1_555
Co1_2 N2 1_555 1_555
C4 S1 1_555 1_555
C1B C2B 1_555 1_555
C1B C4B 1_555 1_555
C7B C6B 1_555 1_555

#END
