
#######################################################################
#
#                 Cambridge Crystallographic Data Centre
#                                CCDC 
#
#######################################################################
#
# If this CIF has been generated from an entry in the Cambridge 
# Structural Database, then it will include bibliographic, chemical, 
# crystal, experimental, refinement or atomic coordinate data resulting 
# from the CCDC's data processing and validation procedures.
#
#######################################################################

data_XAHTOQ
_symmetry_cell_setting           triclinic
_symmetry_space_group_name_H-M   'P -1'
_symmetry_Int_Tables_number      2
_space_group_name_Hall           '-P 1'
loop_
_symmetry_equiv_pos_site_id
_symmetry_equiv_pos_as_xyz
1 x,y,z
2 -x,-y,-z
_cell_length_a                   7.66690(10)
_cell_length_b                   11.4004(2)
_cell_length_c                   12.012
_cell_angle_alpha                73.3390(10)
_cell_angle_beta                 81.2610(10)
_cell_angle_gamma                77.0600(10)
_cell_volume                     975.96
loop_
_atom_site_label
_atom_site_type_symbol
_atom_site_fract_x
_atom_site_fract_y
_atom_site_fract_z
Pr1 Pr 0.55570(7) 0.29979(4) 0.56381(4)
P1 P 1.4182(3) 0.4874(2) 0.27079(18)
S1 S 0.0908(3) -0.0702(2) 1.26061(18)
N1 N 1.0916(9) 0.4154(7) 0.2671(6)
H1 H 1.1362 0.3473 0.3234
C1 C 1.2475(12) 0.4655(9) 0.1920(8)
H2 H 1.3044 0.4089 0.1445
H3 H 1.2016 0.5450 0.1394
C2 C 0.9724(13) 0.5078(9) 0.3261(8)
H4 H 1.0448 0.5397 0.3659
H5 H 0.9134 0.5774 0.2678
C3 C 0.8311(13) 0.4480(9) 0.4137(8)
C4 C 0.9852(14) 0.3742(11) 0.1953(10)
H6 H 1.0624 0.3137 0.1596
H7 H 0.8898 0.3378 0.2446
H8 H 0.9353 0.4449 0.1358
C5 C 0.1814(11) -0.0392(8) 1.1122(7)
C6 C 0.2244(13) -0.1382(8) 1.0596(8)
H9 H 0.2005 -0.2166 1.0998
C7 C 0.3045(12) -0.1157(8) 0.9445(7)
C8 C 0.3370(12) 0.0019(8) 0.8844(7)
H10 H 0.3878 0.0157 0.8074
C9 C 0.2950(12) 0.0992(8) 0.9371(7)
C10 C 0.2159(12) 0.0771(8) 1.0530(8)
H11 H 0.1868 0.1415 1.0897
C11 C 0.3616(13) -0.2163(8) 0.8832(8)
C12 C 0.3360(12) 0.2219(8) 0.8705(8)
O1 O 0.8658(10) 0.3333(6) 0.4582(6)
O2 O 0.6862(9) 0.5172(6) 0.4358(5)
O3 O 0.4539(12) -0.2023(7) 0.7918(6)
O4 O 0.3062(10) -0.3215(6) 0.9374(6)
H12 H 0.3458 -0.3730 0.8997
O5 O 0.3158(10) 0.3058(6) 0.9282(6)
O6 O 0.3822(10) 0.2426(6) 0.7646(5)
O7 O -0.0093(10) 0.0472(6) 1.2785(5)
O8 O 0.2497(9) -0.1136(6) 1.3268(6)
O9 O -0.0137(10) -0.1649(7) 1.2773(6)
O10 O 1.5763(8) 0.4966(6) 0.1746(5)
H13 H 1.5912 0.5690 0.1514
O11 O 1.3484(8) 0.6077(5) 0.3063(5)
O12 O 1.4527(9) 0.3724(5) 0.3694(5)
O13 O 0.3193(12) 0.1810(8) 0.5723(6)
O14 O 0.6713(12) 0.1402(8) 0.4389(7)
O2A O 0.3138(9) 0.4828(6) 0.5642(5)
O8A O 0.7503(9) 0.1136(6) 0.6732(6)
O11A O 0.6516(8) 0.3923(5) 0.6937(5)
O12_2 O 0.4527(9) 0.3724(5) 0.3694(5)
Pr1A Pr 0.44430(7) 0.70021(4) 0.43619(4)
Pr1A_2 Pr 0.44430(7) -0.29979(4) 1.43619(4)
Pr1A_3 Pr 1.44430(7) 0.70021(4) 0.43619(4)
Pr1_2 Pr 1.55570(7) 0.29979(4) 0.56381(4)
O15 O 0.2402(12) 0.1568(7) 0.3643(7)
loop_
_geom_bond_atom_site_label_1
_geom_bond_atom_site_label_2
_geom_bond_site_symmetry_1
_geom_bond_site_symmetry_2
Pr1 O1 1_555 1_555
P1 C1 1_555 1_555
S1 C5 1_555 1_555
N1 H1 1_555 1_555
C1 N1 1_555 1_555
H2 C1 1_555 1_555
H3 C1 1_555 1_555
C2 N1 1_555 1_555
H4 C2 1_555 1_555
H5 C2 1_555 1_555
C3 C2 1_555 1_555
C4 N1 1_555 1_555
H6 C4 1_555 1_555
H7 C4 1_555 1_555
H8 C4 1_555 1_555
C5 C6 1_555 1_555
C6 H9 1_555 1_555
C7 C6 1_555 1_555
C8 C7 1_555 1_555
H10 C8 1_555 1_555
C9 C8 1_555 1_555
C10 C5 1_555 1_555
H11 C10 1_555 1_555
C11 C7 1_555 1_555
C12 C9 1_555 1_555
O1 C3 1_555 1_555
O2 Pr1 1_555 1_555
O3 C11 1_555 1_555
O4 C11 1_555 1_555
H12 O4 1_555 1_555
O5 C12 1_555 1_555
O6 Pr1 1_555 1_555
O7 S1 1_555 1_555
O8 S1 1_555 1_555
O9 S1 1_555 1_555
O10 P1 1_555 1_555
H13 O10 1_555 1_555
O11 P1 1_555 1_555
O12 P1 1_555 1_555
O13 Pr1 1_555 1_555
O14 Pr1 1_555 1_555
O2A Pr1 1_555 1_555
O8A Pr1 1_555 1_555
O11A Pr1 1_555 1_555
O12_2 Pr1 1_555 1_555
Pr1A O2 1_555 1_555
Pr1A_2 O8 1_555 1_555
Pr1A_3 O11 1_555 1_555
Pr1_2 O12 1_555 1_555
C3 O2 1_555 1_555
C9 C10 1_555 1_555
C12 O6 1_555 1_555
O2A Pr1A 1_555 1_555

#END
