
#######################################################################
#
#                 Cambridge Crystallographic Data Centre
#                                CCDC 
#
#######################################################################
#
# If this CIF has been generated from an entry in the Cambridge 
# Structural Database, then it will include bibliographic, chemical, 
# crystal, experimental, refinement or atomic coordinate data resulting 
# from the CCDC's data processing and validation procedures.
#
#######################################################################

data_XAHTIK
_symmetry_cell_setting           triclinic
_symmetry_space_group_name_H-M   'P -1'
_symmetry_Int_Tables_number      2
_space_group_name_Hall           '-P 1'
loop_
_symmetry_equiv_pos_site_id
_symmetry_equiv_pos_as_xyz
1 x,y,z
2 -x,-y,-z
_cell_length_a                   7.6900(4)
_cell_length_b                   11.4268(5)
_cell_length_c                   12.0539(6)
_cell_angle_alpha                73.4210(10)
_cell_angle_beta                 81.1660(10)
_cell_angle_gamma                76.8920(10)
_cell_volume                     984.226
loop_
_atom_site_label
_atom_site_type_symbol
_atom_site_fract_x
_atom_site_fract_y
_atom_site_fract_z
La1 La 0.55635(4) 0.29829(3) 0.56352(2)
P1 P 1.41674(16) 0.48782(11) 0.26856(10)
S1 S 0.08953(16) -0.06645(11) 1.25939(10)
N1 N 1.0909(5) 0.4163(4) 0.2642(4)
H1 H 1.1357 0.3476 0.3195
C1 C 1.2463(6) 0.4659(5) 0.1890(4)
H2 H 1.3035 0.4090 0.1420
H3 H 1.2007 0.5451 0.1366
C2 C 0.9734(7) 0.5078(5) 0.3251(5)
H4 H 1.0463 0.5385 0.3652
H5 H 0.9134 0.5781 0.2684
C3 C 0.8347(7) 0.4460(5) 0.4119(4)
C4 C 0.9858(8) 0.3771(6) 0.1921(6)
H6 H 1.0627 0.3165 0.1562
H7 H 0.8898 0.3412 0.2404
H8 H 0.9371 0.4481 0.1329
C5 C 0.1806(6) -0.0374(4) 1.1118(4)
C6 C 0.2235(7) -0.1351(5) 1.0601(4)
H9 H 0.1994 -0.2130 1.1006
C7 C 0.3040(6) -0.1149(4) 0.9453(4)
C8 C 0.3379(7) 0.0028(5) 0.8841(4)
H10 H 0.3897 0.0163 0.8077
C9 C 0.2935(6) 0.0999(4) 0.9384(4)
C10 C 0.2159(6) 0.0794(4) 1.0523(4)
H11 H 0.1875 0.1438 1.0888
C11 C 0.3616(7) -0.2160(5) 0.8852(4)
C12 C 0.3339(6) 0.2239(5) 0.8695(4)
O1 O 0.8702(5) 0.3320(4) 0.4560(4)
O2 O 0.6880(5) 0.5148(3) 0.4361(3)
O3 O 0.4565(6) -0.2027(4) 0.7943(4)
O4 O 0.3053(5) -0.3203(3) 0.9387(3)
H12 H 0.3448 -0.3719 0.9011
O5 O 0.3160(6) 0.3062(3) 0.9283(3)
O6 O 0.3798(5) 0.2429(3) 0.7659(3)
O7 O -0.0127(5) 0.0515(3) 1.2764(3)
O8 O 0.2478(5) -0.1080(3) 1.3258(3)
O9 O -0.0129(5) -0.1628(4) 1.2764(3)
O10 O 1.5758(5) 0.4962(3) 0.1729(3)
H13 H 1.5908 0.5683 0.1497
O11 O 1.3476(5) 0.6079(3) 0.3042(3)
O12 O 1.4507(5) 0.3731(3) 0.3681(3)
O13 O 0.3121(6) 0.1808(5) 0.5722(4)
O14 O 0.6730(6) 0.1374(4) 0.4367(4)
O2A O 0.3120(5) 0.4852(3) 0.5639(3)
O8A O 0.7522(5) 0.1080(3) 0.6742(3)
O11A O 0.6524(5) 0.3921(3) 0.6958(3)
O12_2 O 0.4507(5) 0.3731(3) 0.3681(3)
La1A La 0.44365(4) 0.70171(3) 0.43648(2)
La1A_2 La 0.44365(4) -0.29829(3) 1.43648(2)
La1A_3 La 1.44365(4) 0.70171(3) 0.43648(2)
La1_2 La 1.55635(4) 0.29829(3) 0.56352(2)
O15 O 0.2396(6) 0.1588(4) 0.3616(4)
loop_
_geom_bond_atom_site_label_1
_geom_bond_atom_site_label_2
_geom_bond_site_symmetry_1
_geom_bond_site_symmetry_2
La1 O1 1_555 1_555
P1 C1 1_555 1_555
S1 C5 1_555 1_555
N1 H1 1_555 1_555
C1 N1 1_555 1_555
H2 C1 1_555 1_555
H3 C1 1_555 1_555
C2 N1 1_555 1_555
H4 C2 1_555 1_555
H5 C2 1_555 1_555
C3 C2 1_555 1_555
C4 N1 1_555 1_555
H6 C4 1_555 1_555
H7 C4 1_555 1_555
H8 C4 1_555 1_555
C5 C6 1_555 1_555
C6 H9 1_555 1_555
C7 C6 1_555 1_555
C8 C7 1_555 1_555
H10 C8 1_555 1_555
C9 C8 1_555 1_555
C10 C5 1_555 1_555
H11 C10 1_555 1_555
C11 C7 1_555 1_555
C12 C9 1_555 1_555
O1 C3 1_555 1_555
O2 La1 1_555 1_555
O3 C11 1_555 1_555
O4 C11 1_555 1_555
H12 O4 1_555 1_555
O5 C12 1_555 1_555
O6 La1 1_555 1_555
O7 S1 1_555 1_555
O8 S1 1_555 1_555
O9 S1 1_555 1_555
O10 P1 1_555 1_555
H13 O10 1_555 1_555
O11 P1 1_555 1_555
O12 P1 1_555 1_555
O13 La1 1_555 1_555
O14 La1 1_555 1_555
O2A La1 1_555 1_555
O8A La1 1_555 1_555
O11A La1 1_555 1_555
O12_2 La1 1_555 1_555
La1A O2 1_555 1_555
La1A_2 O8 1_555 1_555
La1A_3 O11 1_555 1_555
La1_2 O12 1_555 1_555
C3 O2 1_555 1_555
C9 C10 1_555 1_555
C12 O6 1_555 1_555
O2A La1A 1_555 1_555

#END
