
#######################################################################
#
#                 Cambridge Crystallographic Data Centre
#                                CCDC 
#
#######################################################################
#
# If this CIF has been generated from an entry in the Cambridge 
# Structural Database, then it will include bibliographic, chemical, 
# crystal, experimental, refinement or atomic coordinate data resulting 
# from the CCDC's data processing and validation procedures.
#
#######################################################################

data_XAHZIQ
_symmetry_cell_setting           monoclinic
_symmetry_space_group_name_H-M   'P 21/c'
_symmetry_Int_Tables_number      14
_space_group_name_Hall           '-P 2ybc'
loop_
_symmetry_equiv_pos_site_id
_symmetry_equiv_pos_as_xyz
1 x,y,z
2 -x,1/2+y,1/2-z
3 -x,-y,-z
4 x,1/2-y,1/2+z
_cell_length_a                   7.6834(5)
_cell_length_b                   8.0570(3)
_cell_length_c                   11.8821(8)
_cell_angle_alpha                90
_cell_angle_beta                 102.959(2)
_cell_angle_gamma                90
_cell_volume                     716.829
loop_
_atom_site_label
_atom_site_type_symbol
_atom_site_fract_x
_atom_site_fract_y
_atom_site_fract_z
Cs1 Cs 0.77286(6) 0.07956(6) 0.53113(4)
O1 O 0.8971(8) 0.4917(8) 0.3443(6)
O2 O 1.0111(8) 0.2363(7) 0.3839(5)
O3 O 1.2145(9) 0.6149(8) 0.3199(6)
H1 H 1.147(12) 0.621(15) 0.256(4)
O4 O 1.1692(8) 0.3263(8) 0.1668(5)
H2 H 1.1192 0.2330 0.1576
O5 O 1.4989(9) 0.4516(8) 0.1771(6)
O6 O 1.5907(8) 0.3827(8) 0.3623(6)
H3 H 1.673(13) 0.441(13) 0.352(15)
C1 C 1.0264(11) 0.3865(11) 0.3634(8)
C2 C 1.2131(12) 0.4476(11) 0.3584(8)
H4 H 1.2920 0.4393 0.4375
C3 C 1.2879(11) 0.3325(11) 0.2767(7)
H5 H 1.3015 0.2182 0.3102
C4 C 1.4715(12) 0.3955(10) 0.2660(9)
Cs1B Cs 1.22714(6) -0.07956(6) 0.46887(4)
O2B O 0.9889(8) -0.2363(7) 0.6161(5)
O3B O 0.7855(9) 0.3851(8) 0.6801(6)
O4C O 1.1692(8) 0.1737(8) 0.6668(5)
O4A O 0.8308(8) -0.1737(8) 0.3332(5)
O5C O 0.4989(9) 0.0484(8) 0.6771(6)
O5A O 0.5011(9) -0.0484(8) 0.3229(6)
O6_2 O 0.5907(8) 0.3827(8) 0.3623(6)
Cs1B_2 Cs 1.22714(6) 0.92044(6) 0.46887(4)
Cs1C Cs 0.77286(6) 0.42044(6) 0.03113(4)
Cs1A Cs 1.22714(6) 0.57956(6) -0.03113(4)
Cs1C_2 Cs 1.77286(6) 0.42044(6) 0.03113(4)
Cs1_2 Cs 1.77286(6) 0.07956(6) 0.53113(4)
H1B H 0.853(12) 0.379(15) 0.744(4)
H2C H 1.1192 0.2670 0.6576
H2A H 0.8808 -0.2670 0.3424
H3_2 H 0.673(13) 0.441(13) 0.352(15)
loop_
_geom_bond_atom_site_label_1
_geom_bond_atom_site_label_2
_geom_bond_site_symmetry_1
_geom_bond_site_symmetry_2
Cs1 O2 1_555 1_555
O1 C1 1_555 1_555
O2 C1 1_555 1_555
O3 H1 1_555 1_555
O4 H2 1_555 1_555
O5 C4 1_555 1_555
O6 H3 1_555 1_555
C1 C2 1_555 1_555
C2 O3 1_555 1_555
H4 C2 1_555 1_555
C3 O4 1_555 1_555
H5 C3 1_555 1_555
C4 O6 1_555 1_555
Cs1B O2 1_555 1_555
O2B Cs1 1_555 1_555
O3B Cs1 1_555 1_555
O4C Cs1 1_555 1_555
O4A Cs1 1_555 1_555
O5C Cs1 1_555 1_555
O5A Cs1 1_555 1_555
O6_2 Cs1 1_555 1_555
Cs1B_2 O3 1_555 1_555
Cs1C O4 1_555 1_555
Cs1A O4 1_555 1_555
Cs1C_2 O5 1_555 1_555
Cs1_2 O6 1_555 1_555
H1B O3B 1_555 1_555
H2C O4C 1_555 1_555
H2A O4A 1_555 1_555
H3_2 O6_2 1_555 1_555
O5 Cs1A 1_555 1_555
C2 C3 1_555 1_555
C3 C4 1_555 1_555
Cs1B O2B 1_555 1_555
Cs1B O4C 1_555 1_555
Cs1B O4A 1_555 1_555

#END
