
#######################################################################
#
#                 Cambridge Crystallographic Data Centre
#                                CCDC 
#
#######################################################################
#
# If this CIF has been generated from an entry in the Cambridge 
# Structural Database, then it will include bibliographic, chemical, 
# crystal, experimental, refinement or atomic coordinate data resulting 
# from the CCDC's data processing and validation procedures.
#
#######################################################################

data_XAHZUD
_symmetry_cell_setting           cubic
_symmetry_space_group_name_H-M   'P 21 3'
_symmetry_Int_Tables_number      198
_space_group_name_Hall           'P 2ac 2ab 3'
loop_
_symmetry_equiv_pos_site_id
_symmetry_equiv_pos_as_xyz
1 x,y,z
2 y,z,x
3 z,x,y
4 1/2+x,1/2-y,-z
5 1/2+y,1/2-z,-x
6 1/2+z,1/2-x,-y
7 -y,1/2+z,1/2-x
8 -z,1/2+x,1/2-y
9 1/2-z,-x,1/2+y
10 1/2-x,-y,1/2+z
11 1/2-y,-z,1/2+x
12 -x,1/2+y,1/2-z
_cell_length_a                   15.5098(6)
_cell_length_b                   15.5098(6)
_cell_length_c                   15.5098(6)
_cell_angle_alpha                90
_cell_angle_beta                 90
_cell_angle_gamma                90
_cell_volume                     3730.94
loop_
_atom_site_label
_atom_site_type_symbol
_atom_site_fract_x
_atom_site_fract_y
_atom_site_fract_z
Ru1 Ru 0.123965(19) 0.123965(19) 0.123965(19)
N1 N 0.1246(3) 0.1367(2) -0.00841(19)
N2 N 0.1241(2) 0.2561(2) 0.1098(3)
C1 C 0.1228(3) 0.2185(3) -0.0386(2)
C2 C 0.1196(3) 0.2353(3) -0.1271(3)
C3 C 0.1170(4) 0.1678(4) -0.1836(3)
C4 C 0.1181(5) 0.0837(4) -0.1537(3)
C5 C 0.1223(4) 0.0700(3) -0.0651(3)
C6 C 0.1243(2) 0.2857(3) 0.0277(3)
C7 C 0.1272(3) 0.3738(3) 0.0101(3)
C8 C 0.1304(3) 0.4309(4) 0.0773(4)
C9 C 0.1326(3) 0.4009(4) 0.1606(4)
C10 C 0.1282(3) 0.3138(3) 0.1759(4)
H1 H 0.1237 0.2913 -0.1482
H2 H 0.1081 0.1774 -0.2411
H3 H 0.1160 0.0374 -0.1919
H4 H 0.1250 0.0127 -0.0453
H5 H 0.1283 0.3915 -0.0466
H6 H 0.1280 0.4891 0.0655
H7 H 0.1442 0.4382 0.2059
H8 H 0.1228 0.2941 0.2319
N1A N 0.1367(2) -0.00841(19) 0.1246(3)
N1B N -0.00841(19) 0.1246(3) 0.1367(2)
N2A N 0.2561(2) 0.1098(3) 0.1241(2)
N2B N 0.1098(3) 0.1241(2) 0.2561(2)
C1A C 0.2185(3) -0.0386(2) 0.1228(3)
C1B C -0.0386(2) 0.1228(3) 0.2185(3)
C2A C 0.2353(3) -0.1271(3) 0.1196(3)
C2B C -0.1271(3) 0.1196(3) 0.2353(3)
C3A C 0.1678(4) -0.1836(3) 0.1170(4)
C3B C -0.1836(3) 0.1170(4) 0.1678(4)
C4A C 0.0837(4) -0.1537(3) 0.1181(5)
C4B C -0.1537(3) 0.1181(5) 0.0837(4)
C5A C 0.0700(3) -0.0651(3) 0.1223(4)
C5B C -0.0651(3) 0.1223(4) 0.0700(3)
C6A C 0.2857(3) 0.0277(3) 0.1243(2)
C6B C 0.0277(3) 0.1243(2) 0.2857(3)
C7A C 0.3738(3) 0.0101(3) 0.1272(3)
C7B C 0.0101(3) 0.1272(3) 0.3738(3)
C8A C 0.4309(4) 0.0773(4) 0.1304(3)
C8B C 0.0773(4) 0.1304(3) 0.4309(4)
C9A C 0.4009(4) 0.1606(4) 0.1326(3)
C9B C 0.1606(4) 0.1326(3) 0.4009(4)
C10A C 0.3138(3) 0.1759(4) 0.1282(3)
C10B C 0.1759(4) 0.1282(3) 0.3138(3)
H1A H 0.2913 -0.1482 0.1237
H1B H -0.1482 0.1237 0.2913
H2A H 0.1774 -0.2411 0.1081
H2B H -0.2411 0.1081 0.1774
H3A H 0.0374 -0.1919 0.1160
H3B H -0.1919 0.1160 0.0374
H4A H 0.0127 -0.0453 0.1250
H4B H -0.0453 0.1250 0.0127
H5A H 0.3915 -0.0466 0.1283
H5B H -0.0466 0.1283 0.3915
H6A H 0.4891 0.0655 0.1280
H6B H 0.0655 0.1280 0.4891
H7A H 0.4382 0.2059 0.1442
H7B H 0.2059 0.1442 0.4382
H8A H 0.2941 0.2319 0.1228
H8B H 0.2319 0.1228 0.2941
Cr1 Cr 0.35290(5) 0.35290(5) 0.35290(5)
O1 O 0.35525(17) 0.22640(18) 0.3598(2)
O2 O 0.47903(18) 0.34102(18) 0.3638(2)
O3 O 0.44565(19) 0.1196(2) 0.3921(2)
O4 O 0.57856(19) 0.24235(19) 0.3874(3)
C11 C 0.5040(2) 0.2637(2) 0.3766(3)
C12 C 0.4296(2) 0.1948(3) 0.3766(3)
Na1 Na 0.59367(12) 0.09367(12) 0.40633(12)
O1A O 0.22640(18) 0.3598(2) 0.35525(17)
O1B O 0.3598(2) 0.35525(17) 0.22640(18)
O2A O 0.34102(18) 0.3638(2) 0.47903(18)
O2B O 0.3638(2) 0.47903(18) 0.34102(18)
O3A O 0.1196(2) 0.3921(2) 0.44565(19)
O3B O 0.3921(2) 0.44565(19) 0.1196(2)
O3D O 0.6196(2) 0.1079(2) 0.55435(19)
O3G O 0.6079(2) -0.05435(19) 0.3804(2)
O4A O 0.24235(19) 0.3874(3) 0.57856(19)
O4B O 0.3874(3) 0.57856(19) 0.24235(19)
O4D O 0.74235(19) 0.1126(3) 0.42144(19)
O4G O 0.6126(3) 0.07856(19) 0.25765(19)
C11A C 0.2637(2) 0.3766(3) 0.5040(2)
C11B C 0.3766(3) 0.5040(2) 0.2637(2)
C12A C 0.1948(3) 0.3766(3) 0.4296(2)
C12B C 0.3766(3) 0.4296(2) 0.1948(3)
Na1A Na 0.09367(12) 0.40633(12) 0.59367(12)
Na1B Na 0.40633(12) 0.59367(12) 0.09367(12)
loop_
_geom_bond_atom_site_label_1
_geom_bond_atom_site_label_2
_geom_bond_site_symmetry_1
_geom_bond_site_symmetry_2
Ru1 N1 1_555 1_555
N1 C1 1_555 1_555
N2 Ru1 1_555 1_555
C1 C2 1_555 1_555
C2 C3 1_555 1_555
C3 C4 1_555 1_555
C4 C5 1_555 1_555
C5 N1 1_555 1_555
C6 N2 1_555 1_555
C7 C6 1_555 1_555
C8 C7 1_555 1_555
C9 C8 1_555 1_555
C10 N2 1_555 1_555
Cr1 O1 1_555 1_555
O1 C12 1_555 1_555
O2 Cr1 1_555 1_555
O3 C12 1_555 1_555
O4 C11 1_555 1_555
C11 O2 1_555 1_555
C12 C11 1_555 1_555
Na1 O3 1_555 1_555
H1 C2 1_555 1_555
H2 C3 1_555 1_555
H3 C4 1_555 1_555
H4 C5 1_555 1_555
H5 C7 1_555 1_555
H6 C8 1_555 1_555
H7 C9 1_555 1_555
H8 C10 1_555 1_555
N1A Ru1 1_555 1_555
N1B Ru1 1_555 1_555
N2A Ru1 1_555 1_555
N2B Ru1 1_555 1_555
C1A N1A 1_555 1_555
C1B N1B 1_555 1_555
C2A C1A 1_555 1_555
C2B C1B 1_555 1_555
C3A C2A 1_555 1_555
C3B C2B 1_555 1_555
C4A C3A 1_555 1_555
C4B C3B 1_555 1_555
C5A N1A 1_555 1_555
C5B N1B 1_555 1_555
C6A N2A 1_555 1_555
C6B N2B 1_555 1_555
C7A C6A 1_555 1_555
C7B C6B 1_555 1_555
C8A C7A 1_555 1_555
C8B C7B 1_555 1_555
C9A C8A 1_555 1_555
C9B C8B 1_555 1_555
C10A N2A 1_555 1_555
C10B N2B 1_555 1_555
O1A Cr1 1_555 1_555
O1B Cr1 1_555 1_555
O2A Cr1 1_555 1_555
O2B Cr1 1_555 1_555
O3A C12A 1_555 1_555
O3B C12B 1_555 1_555
O3D Na1 1_555 1_555
O3G Na1 1_555 1_555
O4A C11A 1_555 1_555
O4B C11B 1_555 1_555
O4D Na1 1_555 1_555
O4G Na1 1_555 1_555
C11A O2A 1_555 1_555
C11B O2B 1_555 1_555
C12A O1A 1_555 1_555
C12B O1B 1_555 1_555
Na1A O3A 1_555 1_555
Na1B O3B 1_555 1_555
H1A C2A 1_555 1_555
H1B C2B 1_555 1_555
H2A C3A 1_555 1_555
H2B C3B 1_555 1_555
H3A C4A 1_555 1_555
H3B C4B 1_555 1_555
H4A C5A 1_555 1_555
H4B C5B 1_555 1_555
H5A C7A 1_555 1_555
H5B C7B 1_555 1_555
H6A C8A 1_555 1_555
H6B C8B 1_555 1_555
H7A C9A 1_555 1_555
H7B C9B 1_555 1_555
H8A C10A 1_555 1_555
H8B C10B 1_555 1_555
C1 C6 1_555 1_555
C9 C10 1_555 1_555
O4 Na1 1_555 1_555
C1A C6A 1_555 1_555
C1B C6B 1_555 1_555
C4A C5A 1_555 1_555
C4B C5B 1_555 1_555
C9A C10A 1_555 1_555
C9B C10B 1_555 1_555
O4A Na1A 1_555 1_555
O4B Na1B 1_555 1_555
C11A C12A 1_555 1_555
C11B C12B 1_555 1_555

#END
