
#######################################################################
#
#                 Cambridge Crystallographic Data Centre
#                                CCDC 
#
#######################################################################
#
# If this CIF has been generated from an entry in the Cambridge 
# Structural Database, then it will include bibliographic, chemical, 
# crystal, experimental, refinement or atomic coordinate data resulting 
# from the CCDC's data processing and validation procedures.
#
#######################################################################

data_XAHZAI
_symmetry_cell_setting           monoclinic
_symmetry_space_group_name_H-M   'P 21/c'
_symmetry_Int_Tables_number      14
_space_group_name_Hall           '-P 2ybc'
loop_
_symmetry_equiv_pos_site_id
_symmetry_equiv_pos_as_xyz
1 x,y,z
2 x,1/2-y,1/2+z
3 -x,-y,-z
4 -x,1/2+y,1/2-z
_cell_length_a                   7.5790(5)
_cell_length_b                   7.7403(3)
_cell_length_c                   10.9807(8)
_cell_angle_alpha                90
_cell_angle_beta                 101.965(2)
_cell_angle_gamma                90
_cell_volume                     630.174
loop_
_atom_site_label
_atom_site_type_symbol
_atom_site_fract_x
_atom_site_fract_y
_atom_site_fract_z
K1 K 0.77619(5) 0.07407(5) 0.53025(4)
O1 O 0.89689(17) 0.49062(17) 0.34826(12)
O2 O 1.00737(17) 0.22610(16) 0.39360(11)
O3 O 1.21866(18) 0.62341(17) 0.33305(12)
O4 O 1.15913(17) 0.34150(17) 0.15359(11)
O5 O 1.49979(19) 0.45155(17) 0.15869(13)
O6 O 1.58905(18) 0.37504(18) 0.35889(12)
H1 H 1.6900 0.4094 0.3484
C1 C 1.0254(2) 0.3820(2) 0.37055(16)
C2 C 1.2140(3) 0.4462(2) 0.36426(17)
H2 H 1.2945 0.4286 0.4478
C3 C 1.2835(2) 0.3328(2) 0.26972(16)
H3 H 1.2925 0.2106 0.2998
C4 C 1.4688(2) 0.3940(2) 0.25499(17)
H4 H 1.128(3) 0.2414(14) 0.140(2)
H5 H 1.149(3) 0.637(3) 0.2664(13)
K1B K 1.22381(5) -0.07407(5) 0.46975(4)
O2B O 0.99263(17) -0.22610(16) 0.60640(11)
O3B O 0.78134(18) 0.37659(17) 0.66695(12)
O4A O 1.15913(17) 0.15850(17) 0.65359(11)
O4C O 0.84087(17) -0.15850(17) 0.34641(11)
O5A O 0.49979(19) 0.04845(17) 0.65869(13)
O5C O 0.50021(19) -0.04845(17) 0.34131(13)
O6_2 O 0.58905(18) 0.37504(18) 0.35889(12)
K1B_2 K 1.22381(5) 0.92593(5) 0.46975(4)
K1A K 0.77619(5) 0.42593(5) 0.03025(4)
K1C K 1.22381(5) 0.57407(5) -0.03025(4)
K1A_2 K 1.77619(5) 0.42593(5) 0.03025(4)
K1_2 K 1.77619(5) 0.07407(5) 0.53025(4)
H5B H 0.851(3) 0.363(3) 0.7336(13)
H4A H 1.128(3) 0.2586(14) 0.640(2)
H4C H 0.872(3) -0.2586(14) 0.360(2)
H1_2 H 0.6900 0.4094 0.3484
loop_
_geom_bond_atom_site_label_1
_geom_bond_atom_site_label_2
_geom_bond_site_symmetry_1
_geom_bond_site_symmetry_2
K1 O2 1_555 1_555
O1 C1 1_555 1_555
O2 C1 1_555 1_555
O3 C2 1_555 1_555
O4 C3 1_555 1_555
O5 C4 1_555 1_555
O6 H1 1_555 1_555
C1 C2 1_555 1_555
C2 H2 1_555 1_555
C3 C2 1_555 1_555
H3 C3 1_555 1_555
C4 O6 1_555 1_555
H4 O4 1_555 1_555
H5 O3 1_555 1_555
K1B O2 1_555 1_555
O2B K1 1_555 1_555
O3B K1 1_555 1_555
O4A K1 1_555 1_555
O4C K1 1_555 1_555
O5A K1 1_555 1_555
O5C K1 1_555 1_555
O6_2 K1 1_555 1_555
K1B_2 O3 1_555 1_555
K1A O4 1_555 1_555
K1C O4 1_555 1_555
K1A_2 O5 1_555 1_555
K1_2 O6 1_555 1_555
H5B O3B 1_555 1_555
H4A O4A 1_555 1_555
H4C O4C 1_555 1_555
H1_2 O6_2 1_555 1_555
O5 K1C 1_555 1_555
C3 C4 1_555 1_555
K1B O2B 1_555 1_555
K1B O4A 1_555 1_555
K1B O4C 1_555 1_555

#END
