
#######################################################################
#
#                 Cambridge Crystallographic Data Centre
#                                CCDC 
#
#######################################################################
#
# If this CIF has been generated from an entry in the Cambridge 
# Structural Database, then it will include bibliographic, chemical, 
# crystal, experimental, refinement or atomic coordinate data resulting 
# from the CCDC's data processing and validation procedures.
#
#######################################################################

data_XAJBUH
_symmetry_cell_setting           monoclinic
_symmetry_space_group_name_H-M   'P 2/c'
_symmetry_Int_Tables_number      13
_space_group_name_Hall           '-P 2yc'
loop_
_symmetry_equiv_pos_site_id
_symmetry_equiv_pos_as_xyz
1 x,y,z
2 -x,y,1/2-z
3 -x,-y,-z
4 x,-y,1/2+z
_cell_length_a                   16.861(2)
_cell_length_b                   13.264(2)
_cell_length_c                   16.692(3)
_cell_angle_alpha                90
_cell_angle_beta                 118.361(5)
_cell_angle_gamma                90
_cell_volume                     3285
loop_
_atom_site_label
_atom_site_type_symbol
_atom_site_fract_x
_atom_site_fract_y
_atom_site_fract_z
C1 C 1.2184(3) 0.3560(5) 0.8318(3)
C2 C 1.2821(4) 0.2798(6) 0.8994(4)
H1 H 1.3416 0.3099 0.9303
H2 H 1.2858 0.2223 0.8654
C3 C 1.1658(5) 0.1982(7) 0.9310(5)
H3 H 1.1649 0.1288 0.9121
H4 H 1.1230 0.2369 0.8791
C4 C 1.1430(6) 0.2038(8) 1.0083(6)
H5 H 1.0798 0.2201 0.9854
H6 H 1.1554 0.1400 1.0404
C5 C 1.2029(6) 0.2875(8) 1.0719(6)
H7 H 1.2378 0.2623 1.1335
H8 H 1.1665 0.3438 1.0726
C6 C 1.2630(5) 0.3189(7) 1.0344(4)
H9 H 1.3243 0.3257 1.0833
H10 H 1.2438 0.3836 1.0043
C7 C 1.3281(6) 0.1601(6) 1.0225(5)
H11 H 1.3230 0.1058 0.9823
H12 H 1.3880 0.1875 1.0490
H13 H 1.3164 0.1352 1.0699
C8 C 1.1042(4) 0.4190(6) 0.4946(3)
C9 C 1.1579(3) 0.3700(5) 0.4566(3)
H14 H 1.1885 0.4221 0.4409
H15 H 1.1169 0.3359 0.4007
C10 C 1.2746(4) 0.2411(6) 0.4710(4)
H16 H 1.2387 0.1850 0.4346
H17 H 1.2850 0.2876 0.4320
C11 C 1.3610(4) 0.2054(6) 0.5466(5)
H18 H 1.4086 0.2116 0.5299
H19 H 1.3559 0.1349 0.5591
C12 C 1.3837(4) 0.2697(6) 0.6320(5)
H20 H 1.4393 0.3068 0.6506
H21 H 1.3902 0.2274 0.6822
C13 C 1.3031(4) 0.3430(6) 0.6032(5)
H22 H 1.2861 0.3493 0.6510
H23 H 1.3177 0.4093 0.5894
C14 C 1.1809(4) 0.2168(6) 0.5435(5)
H24 H 1.2235 0.1668 0.5812
H25 H 1.1353 0.1854 0.4893
H26 H 1.1534 0.2475 0.5763
N2 N 1.2597(4) 0.2424(4) 0.9689(3)
N3 N 1.2278(3) 0.2944(4) 0.5186(3)
O5 O 1.2181(2) 0.3584(3) 0.7562(2)
O6 O 1.1651(2) 0.4083(3) 0.8467(2)
O7 O 1.0286(3) 0.4478(4) 0.4378(3)
O8 O 1.1341(3) 0.4309(4) 0.5752(2)
O9 O 1.0000 0.5300(3) 0.7500
H27 H 1.0000 0.5916(8) 0.7500
O10 O 1.1469(2) 0.5759(3) 0.7144(3)
O11 O 1.0212(2) 0.3581(4) 0.6586(3)
U1 U 1.083416(10) 0.466894(14) 0.686520(10)
C1B C 0.7816(3) 0.6440(5) 0.1682(3)
C2B C 0.7179(4) 0.7202(6) 0.1006(4)
H1B H 0.6584 0.6901 0.0697
H2B H 0.7142 0.7777 0.1346
C3B C 0.8342(5) 0.8018(7) 0.0690(5)
H3B H 0.8351 0.8712 0.0879
H4B H 0.8770 0.7631 0.1209
C4B C 0.8570(6) 0.7962(8) -0.0083(6)
H5B H 0.9202 0.7799 0.0146
H6B H 0.8446 0.8600 -0.0404
C5B C 0.7971(6) 0.7125(8) -0.0719(6)
H7B H 0.7622 0.7377 -0.1335
H8B H 0.8335 0.6562 -0.0726
C6B C 0.7370(5) 0.6811(7) -0.0344(4)
H9B H 0.6757 0.6743 -0.0833
H10B H 0.7562 0.6164 -0.0043
C7B C 0.6719(6) 0.8399(6) -0.0225(5)
H11B H 0.6770 0.8942 0.0177
H12B H 0.6120 0.8125 -0.0490
H13B H 0.6836 0.8648 -0.0699
C8B C 0.8958(4) 0.5810(6) 0.5054(3)
C9B C 0.8421(3) 0.6300(5) 0.5434(3)
H14B H 0.8115 0.5779 0.5591
H15B H 0.8831 0.6641 0.5993
C10B C 0.7254(4) 0.7589(6) 0.5290(4)
H16B H 0.7613 0.8150 0.5654
H17B H 0.7150 0.7124 0.5680
C11B C 0.6390(4) 0.7946(6) 0.4534(5)
H18B H 0.5914 0.7884 0.4701
H19B H 0.6441 0.8651 0.4409
C12B C 0.6163(4) 0.7303(6) 0.3680(5)
H20B H 0.5607 0.6932 0.3494
H21B H 0.6098 0.7726 0.3178
C13B C 0.6969(4) 0.6570(6) 0.3968(5)
H22B H 0.7139 0.6507 0.3490
H23B H 0.6823 0.5907 0.4106
C14B C 0.8191(4) 0.7832(6) 0.4565(5)
H24B H 0.7765 0.8332 0.4188
H25B H 0.8647 0.8146 0.5107
H26B H 0.8466 0.7525 0.4237
N2B N 0.7403(4) 0.7576(4) 0.0311(3)
N3B N 0.7722(3) 0.7056(4) 0.4814(3)
O5B O 0.7819(2) 0.6416(3) 0.2438(2)
O6B O 0.8349(2) 0.5917(3) 0.1533(2)
O7B O 0.9714(3) 0.5522(4) 0.5622(3)
O8B O 0.8659(3) 0.5691(4) 0.4248(2)
O9B O 1.0000 0.4700(3) 0.2500
H27B H 1.0000 0.4084(8) 0.2500
O10B O 0.8531(2) 0.4241(3) 0.2856(3)
O11B O 0.9788(2) 0.6419(4) 0.3414(3)
U1B U 0.916584(10) 0.533106(14) 0.313480(10)
U1A U 0.916584(10) 0.466894(14) 0.813480(10)
C15 C 0.92073(13) 1.02692(16) 0.83235(13)
C16 C 0.58721(13) 0.92946(16) 0.66725(13)
N1 N 0.76257(16) 0.9430(4) 0.7843(3)
O1 O 0.8740(5) 0.8481(3) 0.7698(7)
O2 O 0.8089(6) 0.9931(5) 0.6625(2)
O3 O 0.6541(3) 1.0290(6) 0.8172(2)
O4 O 0.6737(4) 1.0963(3) 0.6910(3)
F1 F 0.9082(3) 1.0419(5) 0.90344(19)
F2 F 0.9999(2) 0.9806(4) 0.8629(4)
F3 F 0.9265(4) 1.1128(3) 0.7964(3)
F4 F 0.5096(2) 0.9788(4) 0.6296(5)
F5 F 0.6039(3) 0.8904(5) 0.6049(2)
F6 F 0.5765(3) 0.8549(3) 0.7146(3)
S1 S 0.83334(10) 0.94584(12) 0.74780(11)
S2 S 0.67716(10) 1.01223(13) 0.74559(10)
O13 O 0.3535(2) 0.4606(5) 0.4332(3)
O14 O 0.41159(19) 0.5329(5) 0.5775(3)
O16 O 1.0000 0.7375(5) 0.7500
H28 H 1.0263(2) 0.7691(16) 0.7277(3)
H28A H 0.9737(2) 0.7691(16) 0.7723(3)
C17? C 0.56780(18) 0.5224(2) 0.66700(16)
C18? C 0.41713(18) 0.4401(2) 0.32134(17)
N4? N 0.4902(3) 0.5190(3) 0.4847(2)
O12? O 0.5575(5) 0.6829(2) 0.5730(6)
O15? O 0.5066(4) 0.3371(3) 0.4711(3)
F7? F 0.5779(5) 0.4234(2) 0.6691(5)
F8? F 0.6352(3) 0.5593(5) 0.7420(3)
F9? F 0.49157(18) 0.5416(6) 0.6681(3)
F10? F 0.34253(18) 0.4377(7) 0.3282(3)
F11? F 0.4185(4) 0.3658(3) 0.2705(3)
F12? F 0.4196(4) 0.5269(3) 0.2836(3)
S3? S 0.56725(15) 0.57673(18) 0.56695(14)
S4? S 0.51446(17) 0.4315(2) 0.43464(16)
F13? F 0.9436(5) 0.9945(5) 0.9150(2)
F14? F 0.99139(18) 1.0297(7) 0.8191(3)
F15? F 0.8875(4) 1.1192(2) 0.8238(5)
F16? F 0.5653(4) 0.9575(5) 0.5828(2)
F17? F 0.6192(4) 0.8367(2) 0.6775(5)
F18? F 0.51535(18) 0.9354(7) 0.6776(3)
N5? N 0.74623(16) 1.0131(4) 0.7074(3)
O17? O 0.6987(7) 0.9780(5) 0.8344(2)
O18? O 0.6428(6) 1.1113(3) 0.7172(5)
O19? O 0.8356(6) 0.8561(3) 0.7956(4)
O20? O 0.8632(3) 0.9317(8) 0.6811(2)
loop_
_geom_bond_atom_site_label_1
_geom_bond_atom_site_label_2
_geom_bond_site_symmetry_1
_geom_bond_site_symmetry_2
C1 C2 1_555 1_555
C2 H1 1_555 1_555
H2 C2 1_555 1_555
C3 H3 1_555 1_555
H4 C3 1_555 1_555
C4 C3 1_555 1_555
H5 C4 1_555 1_555
H6 C4 1_555 1_555
C5 C4 1_555 1_555
H7 C5 1_555 1_555
H8 C5 1_555 1_555
C6 C5 1_555 1_555
H9 C6 1_555 1_555
H10 C6 1_555 1_555
C7 H11 1_555 1_555
H12 C7 1_555 1_555
H13 C7 1_555 1_555
C8 C9 1_555 1_555
C9 H14 1_555 1_555
H15 C9 1_555 1_555
C10 H16 1_555 1_555
H17 C10 1_555 1_555
C11 C10 1_555 1_555
H18 C11 1_555 1_555
H19 C11 1_555 1_555
C12 C11 1_555 1_555
H20 C12 1_555 1_555
H21 C12 1_555 1_555
C13 C12 1_555 1_555
H22 C13 1_555 1_555
H23 C13 1_555 1_555
C14 H24 1_555 1_555
H25 C14 1_555 1_555
H26 C14 1_555 1_555
C15 F1 1_555 1_555
C16 F4 1_555 1_555
N1 S1 1_555 1_555
O1 S1 1_555 1_555
O2 S1 1_555 1_555
O3 S2 1_555 1_555
O4 S2 1_555 1_555
F2 C15 1_555 1_555
F3 C15 1_555 1_555
F5 C16 1_555 1_555
F6 C16 1_555 1_555
N2 C2 1_555 1_555
N3 C9 1_555 1_555
O5 C1 1_555 1_555
O6 C1 1_555 1_555
O7 C8 1_555 1_555
O8 C8 1_555 1_555
O9 H27 1_555 1_555
O10 U1 1_555 1_555
O11 U1 1_555 1_555
O16 H28 1_555 1_555
S1 C15 1_555 1_555
S2 C16 1_555 1_555
U1 O5 1_555 1_555
C1B C2B 1_555 1_555
C2B H1B 1_555 1_555
H2B C2B 1_555 1_555
C3B H3B 1_555 1_555
H4B C3B 1_555 1_555
C4B C3B 1_555 1_555
H5B C4B 1_555 1_555
H6B C4B 1_555 1_555
C5B C4B 1_555 1_555
H7B C5B 1_555 1_555
H8B C5B 1_555 1_555
C6B C5B 1_555 1_555
H9B C6B 1_555 1_555
H10B C6B 1_555 1_555
C7B H11B 1_555 1_555
H12B C7B 1_555 1_555
H13B C7B 1_555 1_555
C8B C9B 1_555 1_555
C9B H14B 1_555 1_555
H15B C9B 1_555 1_555
C10B H16B 1_555 1_555
H17B C10B 1_555 1_555
C11B C10B 1_555 1_555
H18B C11B 1_555 1_555
H19B C11B 1_555 1_555
C12B C11B 1_555 1_555
H20B C12B 1_555 1_555
H21B C12B 1_555 1_555
C13B C12B 1_555 1_555
H22B C13B 1_555 1_555
H23B C13B 1_555 1_555
C14B H24B 1_555 1_555
H25B C14B 1_555 1_555
H26B C14B 1_555 1_555
N2B C2B 1_555 1_555
N3B C9B 1_555 1_555
O5B C1B 1_555 1_555
O6B C1B 1_555 1_555
O7B U1 1_555 1_555
O8B C8B 1_555 1_555
O9B H27B 1_555 1_555
O10B U1B 1_555 1_555
O11B U1B 1_555 1_555
H28A O16 1_555 1_555
U1B O7 1_555 1_555
U1A O9 1_555 1_555
C3 N2 1_555 1_555
C6 N2 1_555 1_555
C7 N2 1_555 1_555
C10 N3 1_555 1_555
C13 N3 1_555 1_555
C14 N3 1_555 1_555
N1 S2 1_555 1_555
O6 U1 1_555 1_555
O8 U1 1_555 1_555
O9 U1 1_555 1_555
C3B N2B 1_555 1_555
C6B N2B 1_555 1_555
C7B N2B 1_555 1_555
C8B O7B 1_555 1_555
C10B N3B 1_555 1_555
C13B N3B 1_555 1_555
C14B N3B 1_555 1_555
O5B U1B 1_555 1_555
O6B U1B 1_555 1_555
O8B U1B 1_555 1_555
O9B U1B 1_555 1_555

#END
