
#######################################################################
#
#                 Cambridge Crystallographic Data Centre
#                                CCDC 
#
#######################################################################
#
# If this CIF has been generated from an entry in the Cambridge 
# Structural Database, then it will include bibliographic, chemical, 
# crystal, experimental, refinement or atomic coordinate data resulting 
# from the CCDC's data processing and validation procedures.
#
#######################################################################

data_XAJBER
_symmetry_cell_setting           monoclinic
_symmetry_space_group_name_H-M   'C 2/m'
_symmetry_Int_Tables_number      12
_space_group_name_Hall           '-C 2y'
loop_
_symmetry_equiv_pos_site_id
_symmetry_equiv_pos_as_xyz
1 x,y,z
2 -x,y,-z
3 1/2+x,1/2+y,z
4 1/2-x,1/2+y,-z
5 -x,-y,-z
6 x,-y,z
7 1/2-x,1/2-y,-z
8 1/2+x,1/2-y,z
_cell_length_a                   10.6881(17)
_cell_length_b                   8.1381(15)
_cell_length_c                   11.296(3)
_cell_angle_alpha                90
_cell_angle_beta                 106.293(10)
_cell_angle_gamma                90
_cell_volume                     943.076
loop_
_atom_site_label
_atom_site_type_symbol
_atom_site_fract_x
_atom_site_fract_y
_atom_site_fract_z
Nd1 Nd 0.37652(5) 0.5000 0.21111(5)
O1 O 0.2974(5) 0.5000 -0.0246(6)
O2 O 0.5768(5) 0.5000 0.3826(6)
O3 O 0.6641(5) 0.5000 0.5871(6)
O4 O 0.5154(5) 0.3260(6) 0.1343(5)
O5 O 0.6860(4) 0.1672(5) 0.1650(4)
N1 N 0.4301(5) 0.1709(7) 0.2980(5)
C1 C 0.5705(9) 0.5000 0.4912(9)
C2 C 0.3604(6) 0.0878(8) 0.3595(7)
H1 H 0.3105 0.1459 0.4035
C3 C 0.5068(5) 0.0862(8) 0.2427(6)
C4 C 0.5755(6) 0.1997(8) 0.1752(6)
Nd1A Nd 0.62348(5) 0.5000 0.78889(5)
Nd1_2 Nd 0.37652(5) -0.5000 0.21111(5)
Nd1A_2 Nd 0.62348(5) -0.5000 0.78889(5)
Nd1B Nd 0.87652(5) 0.0000 0.21111(5)
Nd1C Nd 0.12348(5) 0.0000 0.78889(5)
O1A O 0.7026(5) 0.5000 1.0246(6)
O2A O 0.4232(5) 0.5000 0.6174(6)
O3A O 0.3359(5) 0.5000 0.4129(6)
O4E O 0.5154(5) -0.3260(6) 0.1343(5)
O4A O 0.4846(5) 0.3260(6) 0.8657(5)
O4D O 0.4846(5) -0.3260(6) 0.8657(5)
O4D_2 O 0.4846(5) 0.6740(6) 0.8657(5)
O4E_2 O 0.5154(5) 0.6740(6) 0.1343(5)
O5E O 0.6860(4) -0.1672(5) 0.1650(4)
O5A O 0.3140(4) 0.1672(5) 0.8350(4)
O5D O 0.3140(4) -0.1672(5) 0.8350(4)
O5B O 0.1860(4) 0.6672(5) 0.1650(4)
O5C O 0.8140(4) 0.6672(5) 0.8350(4)
O5F O 0.8140(4) 0.3328(5) 0.8350(4)
O5G O 0.1860(4) 0.3328(5) 0.1650(4)
N1E N 0.4301(5) -0.1709(7) 0.2980(5)
N1A N 0.5699(5) 0.1709(7) 0.7020(5)
N1D N 0.5699(5) -0.1709(7) 0.7020(5)
N1D_2 N 0.5699(5) 0.8291(7) 0.7020(5)
N1E_2 N 0.4301(5) 0.8291(7) 0.2980(5)
C1A C 0.4295(9) 0.5000 0.5088(9)
C2E C 0.3604(6) -0.0878(8) 0.3595(7)
C2A C 0.6396(6) 0.0878(8) 0.6405(7)
C2D C 0.6396(6) -0.0878(8) 0.6405(7)
H1E H 0.3105 -0.1459 0.4035
H1A H 0.6895 0.1459 0.5965
H1D H 0.6895 -0.1459 0.5965
C3E C 0.5068(5) -0.0862(8) 0.2427(6)
C3A C 0.4932(5) 0.0862(8) 0.7573(6)
C3D C 0.4932(5) -0.0862(8) 0.7573(6)
C4E C 0.5755(6) -0.1997(8) 0.1752(6)
C4A C 0.4245(6) 0.1997(8) 0.8248(6)
C4D C 0.4245(6) -0.1997(8) 0.8248(6)
loop_
_geom_bond_atom_site_label_1
_geom_bond_atom_site_label_2
_geom_bond_site_symmetry_1
_geom_bond_site_symmetry_2
Nd1 O1 1_555 1_555
O2 Nd1 1_555 1_555
O3 C1 1_555 1_555
O4 Nd1 1_555 1_555
O5 C4 1_555 1_555
N1 Nd1 1_555 1_555
C1 O2 1_555 1_555
C2 N1 1_555 1_555
H1 C2 1_555 1_555
C3 N1 1_555 1_555
C4 O4 1_555 1_555
Nd1A O3 1_555 1_555
Nd1_2 O4E 1_555 1_555
Nd1A_2 O4D 1_555 1_555
Nd1B O5 1_555 1_555
Nd1C O5A 1_555 1_555
O1A Nd1A 1_555 1_555
O2A Nd1A 1_555 1_555
O3A Nd1 1_555 1_555
O4E C4E 1_555 1_555
O4A Nd1A 1_555 1_555
O4D C4D 1_555 1_555
O4D_2 Nd1A 1_555 1_555
O4E_2 Nd1 1_555 1_555
O5E Nd1B 1_555 1_555
O5A C4A 1_555 1_555
O5D Nd1C 1_555 1_555
O5B Nd1 1_555 1_555
O5C Nd1A 1_555 1_555
O5F Nd1A 1_555 1_555
O5G Nd1 1_555 1_555
N1E Nd1_2 1_555 1_555
N1A Nd1A 1_555 1_555
N1D Nd1A_2 1_555 1_555
N1D_2 Nd1A 1_555 1_555
N1E_2 Nd1 1_555 1_555
C1A C1 1_555 1_555
C2E C2 1_555 1_555
C2A N1A 1_555 1_555
C2D N1D 1_555 1_555
H1E C2E 1_555 1_555
H1A C2A 1_555 1_555
H1D C2D 1_555 1_555
C3E C3 1_555 1_555
C3A N1A 1_555 1_555
C3D N1D 1_555 1_555
C4E O5E 1_555 1_555
C4A O4A 1_555 1_555
C4D O5D 1_555 1_555
C3 C4 1_555 1_555
O2A C1A 1_555 1_555
O3A C1A 1_555 1_555
N1E C2E 1_555 1_555
N1E C3E 1_555 1_555
C2A C2D 1_555 1_555
C3E C4E 1_555 1_555
C3A C3D 1_555 1_555
C3A C4A 1_555 1_555
C3D C4D 1_555 1_555

#END
