
#######################################################################
#
#                 Cambridge Crystallographic Data Centre
#                                CCDC 
#
#######################################################################
#
# If this CIF has been generated from an entry in the Cambridge 
# Structural Database, then it will include bibliographic, chemical, 
# crystal, experimental, refinement or atomic coordinate data resulting 
# from the CCDC's data processing and validation procedures.
#
#######################################################################

data_XAJBAN
_symmetry_cell_setting           monoclinic
_symmetry_space_group_name_H-M   'C 2/m'
_symmetry_Int_Tables_number      12
_space_group_name_Hall           '-C 2y'
loop_
_symmetry_equiv_pos_site_id
_symmetry_equiv_pos_as_xyz
1 x,y,z
2 -x,y,-z
3 1/2+x,1/2+y,z
4 1/2-x,1/2+y,-z
5 -x,-y,-z
6 x,-y,z
7 1/2-x,1/2-y,-z
8 1/2+x,1/2-y,z
_cell_length_a                   10.8024(11)
_cell_length_b                   8.1744(11)
_cell_length_c                   11.2884(14)
_cell_angle_alpha                90
_cell_angle_beta                 105.784(6)
_cell_angle_gamma                90
_cell_volume                     959.216
loop_
_atom_site_label
_atom_site_type_symbol
_atom_site_fract_x
_atom_site_fract_y
_atom_site_fract_z
Ce1 Ce 0.37392(4) 0.5000 0.21000(4)
O1 O 0.2994(4) 0.5000 -0.0275(4)
O2 O 0.5742(4) 0.5000 0.3821(5)
O3 O 0.6636(4) 0.5000 0.5842(4)
O4 O 0.5140(4) 0.3235(6) 0.1327(4)
O5 O 0.6826(3) 0.1667(5) 0.1660(3)
N1 N 0.4268(3) 0.1703(6) 0.2968(4)
C1 C 0.5690(7) 0.5000 0.4900(7)
C2 C 0.3583(5) 0.0851(7) 0.3575(5)
H1 H 0.3083 0.1420 0.4017
C3 C 0.5036(4) 0.0851(6) 0.2416(4)
C4 C 0.5739(5) 0.1982(7) 0.1751(4)
Ce1A Ce 0.62608(4) 0.5000 0.79000(4)
Ce1_2 Ce 0.37392(4) -0.5000 0.21000(4)
Ce1A_2 Ce 0.62608(4) -0.5000 0.79000(4)
Ce1B Ce 0.87392(4) 0.0000 0.21000(4)
Ce1C Ce 0.12608(4) 0.0000 0.79000(4)
O1A O 0.7006(4) 0.5000 1.0275(4)
O2A O 0.4258(4) 0.5000 0.6179(5)
O3A O 0.3364(4) 0.5000 0.4158(4)
O4E O 0.5140(4) -0.3235(6) 0.1327(4)
O4A O 0.4860(4) 0.3235(6) 0.8673(4)
O4D O 0.4860(4) -0.3235(6) 0.8673(4)
O4D_2 O 0.4860(4) 0.6765(6) 0.8673(4)
O4E_2 O 0.5140(4) 0.6765(6) 0.1327(4)
O5E O 0.6826(3) -0.1667(5) 0.1660(3)
O5A O 0.3174(3) 0.1667(5) 0.8340(3)
O5D O 0.3174(3) -0.1667(5) 0.8340(3)
O5B O 0.1826(3) 0.6667(5) 0.1660(3)
O5C O 0.8174(3) 0.6667(5) 0.8340(3)
O5F O 0.8174(3) 0.3333(5) 0.8340(3)
O5G O 0.1826(3) 0.3333(5) 0.1660(3)
N1E N 0.4268(3) -0.1703(6) 0.2968(4)
N1A N 0.5732(3) 0.1703(6) 0.7032(4)
N1D N 0.5732(3) -0.1703(6) 0.7032(4)
N1D_2 N 0.5732(3) 0.8297(6) 0.7032(4)
N1E_2 N 0.4268(3) 0.8297(6) 0.2968(4)
C1A C 0.4310(7) 0.5000 0.5100(7)
C2E C 0.3583(5) -0.0851(7) 0.3575(5)
C2A C 0.6417(5) 0.0851(7) 0.6425(5)
C2D C 0.6417(5) -0.0851(7) 0.6425(5)
H1E H 0.3083 -0.1420 0.4017
H1A H 0.6917 0.1420 0.5983
H1D H 0.6917 -0.1420 0.5983
C3E C 0.5036(4) -0.0851(6) 0.2416(4)
C3A C 0.4964(4) 0.0851(6) 0.7584(4)
C3D C 0.4964(4) -0.0851(6) 0.7584(4)
C4E C 0.5739(5) -0.1982(7) 0.1751(4)
C4A C 0.4261(5) 0.1982(7) 0.8249(4)
C4D C 0.4261(5) -0.1982(7) 0.8249(4)
loop_
_geom_bond_atom_site_label_1
_geom_bond_atom_site_label_2
_geom_bond_site_symmetry_1
_geom_bond_site_symmetry_2
Ce1 O1 1_555 1_555
O2 Ce1 1_555 1_555
O3 C1 1_555 1_555
O4 Ce1 1_555 1_555
O5 C4 1_555 1_555
N1 Ce1 1_555 1_555
C1 O2 1_555 1_555
C2 N1 1_555 1_555
H1 C2 1_555 1_555
C3 N1 1_555 1_555
C4 O4 1_555 1_555
Ce1A O3 1_555 1_555
Ce1_2 O4E 1_555 1_555
Ce1A_2 O4D 1_555 1_555
Ce1B O5 1_555 1_555
Ce1C O5A 1_555 1_555
O1A Ce1A 1_555 1_555
O2A Ce1A 1_555 1_555
O3A Ce1 1_555 1_555
O4E C4E 1_555 1_555
O4A Ce1A 1_555 1_555
O4D C4D 1_555 1_555
O4D_2 Ce1A 1_555 1_555
O4E_2 Ce1 1_555 1_555
O5E Ce1B 1_555 1_555
O5A C4A 1_555 1_555
O5D Ce1C 1_555 1_555
O5B Ce1 1_555 1_555
O5C Ce1A 1_555 1_555
O5F Ce1A 1_555 1_555
O5G Ce1 1_555 1_555
N1E Ce1_2 1_555 1_555
N1A Ce1A 1_555 1_555
N1D Ce1A_2 1_555 1_555
N1D_2 Ce1A 1_555 1_555
N1E_2 Ce1 1_555 1_555
C1A C1 1_555 1_555
C2E C2 1_555 1_555
C2A N1A 1_555 1_555
C2D N1D 1_555 1_555
H1E C2E 1_555 1_555
H1A C2A 1_555 1_555
H1D C2D 1_555 1_555
C3E C3 1_555 1_555
C3A N1A 1_555 1_555
C3D N1D 1_555 1_555
C4E O5E 1_555 1_555
C4A O4A 1_555 1_555
C4D O5D 1_555 1_555
C3 C4 1_555 1_555
O2A C1A 1_555 1_555
O3A C1A 1_555 1_555
N1E C2E 1_555 1_555
N1E C3E 1_555 1_555
C2A C2D 1_555 1_555
C3E C4E 1_555 1_555
C3A C3D 1_555 1_555
C3A C4A 1_555 1_555
C3D C4D 1_555 1_555

#END
