
#######################################################################
#
#                 Cambridge Crystallographic Data Centre
#                                CCDC 
#
#######################################################################
#
# If this CIF has been generated from an entry in the Cambridge 
# Structural Database, then it will include bibliographic, chemical, 
# crystal, experimental, refinement or atomic coordinate data resulting 
# from the CCDC's data processing and validation procedures.
#
#######################################################################

data_XAJGAQ
_symmetry_cell_setting           monoclinic
_symmetry_space_group_name_H-M   'P 21'
_symmetry_Int_Tables_number      4
_space_group_name_Hall           'P 2yb'
loop_
_symmetry_equiv_pos_site_id
_symmetry_equiv_pos_as_xyz
1 x,y,z
2 -x,1/2+y,-z
_cell_length_a                   6.3650(10)
_cell_length_b                   7.186(2)
_cell_length_c                   17.816(3)
_cell_angle_alpha                90.00
_cell_angle_beta                 94.040(10)
_cell_angle_gamma                90.00
_cell_volume                     812.859
loop_
_atom_site_label
_atom_site_type_symbol
_atom_site_fract_x
_atom_site_fract_y
_atom_site_fract_z
Na1 Na 0.71477(16) 0.89594(16) 0.33015(6)
P1 P 0.09179(9) 0.42201(9) 0.21719(3)
O1 O 0.7353(3) 0.5993(3) 0.39564(12)
O2 O 0.7602(3) 0.4090(4) 0.49499(10)
O3 O 0.2061(3) 0.2594(3) 0.18452(12)
O4 O 0.1840(3) 0.6074(3) 0.19370(11)
O5 O -0.1444(2) 0.4118(3) 0.20306(9)
O10 O 0.5974(4) 0.7244(3) 0.21663(12)
O11 O 0.5923(4) 1.1815(3) 0.27070(13)
O12 O 1.0311(4) 0.9325(4) 0.25373(13)
O13 O 0.8819(5) 1.0553(4) 0.43317(16)
O14 O 0.3569(4) 0.8559(4) 0.36249(14)
N1 N 0.3664(4) 0.4612(4) 0.34300(13)
C1 C 0.6645(4) 0.4830(4) 0.43857(15)
C2 C 0.4395(4) 0.4128(5) 0.42107(14)
H1 H 0.4352 0.2789 0.4276
H2 H 0.3469 0.4687 0.4557
C3 C 0.1433(3) 0.4094(5) 0.31949(13)
H3 H 0.0484 0.4929 0.3433
H4 H 0.1159 0.2840 0.3364
H13 H 0.473(7) 0.702(6) 0.200(2)
H14 H 0.685(8) 0.624(9) 0.211(3)
H15 H 0.500(5) 1.173(5) 0.242(2)
H16 H 0.698(8) 1.250(7) 0.247(3)
H17 H 1.064(5) 0.848(6) 0.2369(19)
H18 H 0.988(8) 0.998(7) 0.455(3)
H19 H 0.860(6) 1.145(7) 0.452(2)
H20 H 0.252(5) 0.882(5) 0.3372(18)
H21 H 0.339(7) 0.870(9) 0.406(3)
H22 H 0.460(5) 0.410(6) 0.3160(18)
H23 H 0.383(5) 0.589(6) 0.3395(18)
H24 H 1.113(15) 1.023(16) 0.223(5)
Na2 Na 0.5098(2) 0.62823(16) -0.00070(8)
O6 O 0.1811(4) 0.7075(4) 0.04705(14)
O7 O 0.3310(4) 0.3904(4) -0.07987(13)
O8 O 0.4552(3) 0.8790(3) -0.08844(11)
O9 O 0.8557(4) 0.5865(3) -0.05018(14)
H5 H 0.179(6) 0.663(7) 0.089(3)
H6 H 0.165(7) 0.816(7) 0.047(2)
H7 H 0.357(7) 0.371(9) -0.122(3)
H8 H 0.206(11) 0.409(15) -0.095(4)
H9 H 0.547(5) 0.859(5) -0.1192(19)
H10 H 0.344(5) 0.878(5) -0.1205(18)
H11 H 0.958(8) 0.631(9) -0.016(3)
H12 H 0.858(7) 0.637(8) -0.101(3)
O7A O 0.6690(4) 0.8904(4) 0.07987(13)
O8A O 0.5448(3) 0.3790(3) 0.08844(11)
Na2A Na 0.4902(2) 0.12823(16) 0.00070(8)
Na2A_2 Na 0.4902(2) 1.12823(16) 0.00070(8)
H7A H 0.643(7) 0.871(9) 0.122(3)
H8A H 0.794(11) 0.909(15) 0.095(4)
H9A H 0.453(5) 0.359(5) 0.1192(19)
H10A H 0.656(5) 0.378(5) 0.1205(18)
loop_
_geom_bond_atom_site_label_1
_geom_bond_atom_site_label_2
_geom_bond_site_symmetry_1
_geom_bond_site_symmetry_2
Na1 O1 1_555 1_555
Na2 O6 1_555 1_555
P1 O3 1_555 1_555
O1 C1 1_555 1_555
O2 C1 1_555 1_555
O4 P1 1_555 1_555
O5 P1 1_555 1_555
O6 H5 1_555 1_555
O7 Na2 1_555 1_555
O8 Na2 1_555 1_555
O9 Na2 1_555 1_555
O10 Na1 1_555 1_555
O11 Na1 1_555 1_555
O12 Na1 1_555 1_555
O13 Na1 1_555 1_555
O14 Na1 1_555 1_555
N1 C2 1_555 1_555
C1 C2 1_555 1_555
C2 H1 1_555 1_555
H2 C2 1_555 1_555
C3 P1 1_555 1_555
H3 C3 1_555 1_555
H4 C3 1_555 1_555
H6 O6 1_555 1_555
H7 O7 1_555 1_555
H8 O7 1_555 1_555
H9 O8 1_555 1_555
H10 O8 1_555 1_555
H11 O9 1_555 1_555
H12 O9 1_555 1_555
H13 O10 1_555 1_555
H14 O10 1_555 1_555
H15 O11 1_555 1_555
H16 O11 1_555 1_555
H17 O12 1_555 1_555
H18 O13 1_555 1_555
H19 O13 1_555 1_555
H20 O14 1_555 1_555
H21 O14 1_555 1_555
H22 N1 1_555 1_555
H23 N1 1_555 1_555
H24 O12 1_555 1_555
O7A Na2 1_555 1_555
O8A Na2 1_555 1_555
Na2A O7 1_555 1_555
Na2A_2 O8 1_555 1_555
H7A O7A 1_555 1_555
H8A O7A 1_555 1_555
H9A O8A 1_555 1_555
H10A O8A 1_555 1_555
N1 C3 1_555 1_555
O7A Na2A_2 1_555 1_555
O8A Na2A 1_555 1_555

#END
