
#######################################################################
#
#                 Cambridge Crystallographic Data Centre
#                                CCDC 
#
#######################################################################
#
# If this CIF has been generated from an entry in the Cambridge 
# Structural Database, then it will include bibliographic, chemical, 
# crystal, experimental, refinement or atomic coordinate data resulting 
# from the CCDC's data processing and validation procedures.
#
#######################################################################

data_XAJMAY
_symmetry_cell_setting           triclinic
_symmetry_space_group_name_H-M   'P -1'
_symmetry_Int_Tables_number      2
_space_group_name_Hall           '-P 1'
loop_
_symmetry_equiv_pos_site_id
_symmetry_equiv_pos_as_xyz
1 x,y,z
2 -x,-y,-z
_cell_length_a                   8.6752(17)
_cell_length_b                   11.569(2)
_cell_length_c                   11.626(2)
_cell_angle_alpha                65.46(3)
_cell_angle_beta                 68.83(3)
_cell_angle_gamma                79.80(3)
_cell_volume                     989.29
loop_
_atom_site_label
_atom_site_type_symbol
_atom_site_fract_x
_atom_site_fract_y
_atom_site_fract_z
C1 C 0.8181(3) 0.6586(3) 0.6965(3)
C2 C 0.5658(3) 0.5336(3) 0.9359(3)
C3 C 0.9627(4) 0.7222(3) 0.5737(3)
C4 C 0.7143(4) 0.8693(3) 0.7258(4)
C5 C 0.5846(4) 0.6635(3) 0.8867(3)
H1 H 0.5126 0.7099 0.9345
C6 C 0.7072(3) 0.7276(3) 0.7686(3)
C7 C 0.7985(4) 0.5299(3) 0.7429(3)
H2 H 0.8692 0.4841 0.6939
O1 O 1.8857(4) 0.6375(3) 0.1428(3)
C8 C 0.6760(4) 0.4658(3) 0.8612(3)
H3 H 0.6672 0.3785 0.8906
C9 C 2.0672(5) 0.8315(3) 0.1482(3)
H4 H 1.9683 0.8035 0.2166
C10 C 1.6624(5) 0.6861(5) 0.4102(4)
H5 H 1.7550 0.6731 0.4371
C11 C 1.4759(4) 0.6658(4) 0.3355(4)
H6 H 1.4178 0.6347 0.3016
C12 C 1.9781(7) 0.8299(5) -0.0338(5)
H7 H 2.0166 0.8722 -0.1303
H8 H 1.8710 0.8676 -0.0004
C13 C 1.7905(6) 0.5340(4) 0.1908(5)
H9 H 1.8598 0.4628 0.1754
H10 H 1.7095 0.5541 0.1450
C14 C 2.3135(5) 0.8943(4) 0.0397(4)
H11 H 2.4197 0.9186 0.0200
C15 C 1.5505(5) 0.7811(4) 0.4084(4)
H12 H 1.5516 0.8462 0.4353
C16 C 2.2522(6) 0.8913(4) -0.0489(4)
H13 H 2.3066 0.9122 -0.1397
C17 C 1.9592(6) 0.6952(5) 0.0018(4)
H14 H 1.8895 0.6855 -0.0426
H15 H 2.0662 0.6549 -0.0262
C18 C 1.7047(6) 0.4999(4) 0.3377(5)
H16 H 1.6286 0.4324 0.3713
H17 H 1.7858 0.4689 0.3843
Cd1 Cd 1.19400(3) 0.882933(19) 0.34873(2)
N1 N 1.4332(4) 0.7688(3) 0.3609(3)
N2 N 1.6136(4) 0.6104(3) 0.3642(3)
N3 N 2.1964(4) 0.8561(3) 0.1649(3)
N4 N 2.0937(5) 0.8514(3) 0.0199(3)
O2 O 0.9927(3) 0.6985(3) 0.4736(3)
O3 O 1.0506(3) 0.7921(2) 0.5824(2)
O4 O 0.7264(4) 0.9391(2) 0.6090(3)
O5 O 0.7085(4) 0.9103(3) 0.8108(3)
O6 O 0.9381(3) 1.0037(3) 0.3558(3)
H18 H 0.882(10) 0.947(6) 0.428(5)
H19 H 0.918(13) 1.067(6) 0.380(10)
C1A C 0.1819(3) 0.3414(3) 1.3035(3)
C2A C 0.4342(3) 0.4664(3) 1.0641(3)
C3A C 0.0373(4) 0.2778(3) 1.4263(3)
C4A C 0.2857(4) 0.1307(3) 1.2742(4)
C5A C 0.4154(4) 0.3365(3) 1.1133(3)
H1A H 0.4874 0.2901 1.0655
C6A C 0.2928(3) 0.2724(3) 1.2314(3)
C7A C 0.2015(4) 0.4701(3) 1.2571(3)
H2A H 0.1308 0.5159 1.3061
O1A O -0.8857(4) 0.3625(3) 1.8572(3)
C8A C 0.3240(4) 0.5342(3) 1.1388(3)
H3A H 0.3328 0.6215 1.1094
C9A C -1.0672(5) 0.1685(3) 1.8518(3)
H4A H -0.9683 0.1965 1.7834
C10A C -0.6624(5) 0.3139(5) 1.5898(4)
H5A H -0.7550 0.3269 1.5629
C11A C -0.4759(4) 0.3342(4) 1.6645(4)
H6A H -0.4178 0.3653 1.6984
C12A C -0.9781(7) 0.1701(5) 2.0338(5)
H7A H -1.0166 0.1278 2.1303
H8A H -0.8710 0.1324 2.0004
C13A C -0.7905(6) 0.4660(4) 1.8092(5)
H9A H -0.8598 0.5372 1.8246
H10A H -0.7095 0.4459 1.8550
C14A C -1.3135(5) 0.1057(4) 1.9603(4)
H11A H -1.4197 0.0814 1.9800
C15A C -0.5505(5) 0.2189(4) 1.5916(4)
H12A H -0.5516 0.1538 1.5647
C16A C -1.2522(6) 0.1087(4) 2.0489(4)
H13A H -1.3066 0.0878 2.1397
C17A C -0.9592(6) 0.3048(5) 1.9982(4)
H14A H -0.8895 0.3145 2.0426
H15A H -1.0662 0.3451 2.0262
C18A C -0.7047(6) 0.5001(4) 1.6623(5)
H16A H -0.6286 0.5676 1.6287
H17A H -0.7858 0.5311 1.6157
Cd1_2 Cd 2.19400(3) 0.882933(19) 0.34873(2)
Cd1A Cd 0.80600(3) 1.117067(19) 0.65127(2)
Cd1A_2 Cd -0.19400(3) 0.117067(19) 1.65127(2)
Cd1_3 Cd 0.19400(3) -0.117067(19) 1.34873(2)
Cd1A_3 Cd -1.19400(3) 0.117067(19) 1.65127(2)
N1A N -0.4332(4) 0.2312(3) 1.6391(3)
N2A N -0.6136(4) 0.3896(3) 1.6358(3)
N3_2 N 1.1964(4) 0.8561(3) 0.1649(3)
N3A N -0.1964(4) 0.1439(3) 1.8351(3)
N3A_2 N -1.1964(4) 0.1439(3) 1.8351(3)
N4A N -1.0937(5) 0.1486(3) 1.9801(3)
O2A O 0.0073(3) 0.3015(3) 1.5264(3)
O3A O -0.0506(3) 0.2079(2) 1.4176(2)
O4A O 0.2736(4) 0.0609(2) 1.3910(3)
O4A_2 O 1.2736(4) 1.0609(2) 0.3910(3)
O4_2 O -0.2736(4) -0.0609(2) 1.6090(3)
O5A O 0.2915(4) 0.0897(3) 1.1892(3)
O5A_2 O 1.2915(4) 1.0897(3) 0.1892(3)
O5_2 O -0.2915(4) -0.0897(3) 1.8108(3)
O6A O 0.0619(3) -0.0037(3) 1.6442(3)
H18A H 0.118(10) 0.053(6) 1.572(5)
H19A H 0.082(13) -0.067(6) 1.620(10)
loop_
_geom_bond_atom_site_label_1
_geom_bond_atom_site_label_2
_geom_bond_site_symmetry_1
_geom_bond_site_symmetry_2
C1 C3 1_555 1_555
C2 C5 1_555 1_555
C3 O2 1_555 1_555
C4 C6 1_555 1_555
C5 H1 1_555 1_555
C6 C1 1_555 1_555
C7 C1 1_555 1_555
H2 C7 1_555 1_555
O1 C13 1_555 1_555
C8 C2 1_555 1_555
H3 C8 1_555 1_555
C9 H4 1_555 1_555
C10 H5 1_555 1_555
C11 H6 1_555 1_555
C12 H7 1_555 1_555
H8 C12 1_555 1_555
C13 H9 1_555 1_555
H10 C13 1_555 1_555
C14 H11 1_555 1_555
C15 C10 1_555 1_555
H12 C15 1_555 1_555
C16 C14 1_555 1_555
H13 C16 1_555 1_555
C17 O1 1_555 1_555
H14 C17 1_555 1_555
H15 C17 1_555 1_555
C18 C13 1_555 1_555
H16 C18 1_555 1_555
H17 C18 1_555 1_555
Cd1 N1 1_555 1_555
N1 C11 1_555 1_555
N2 C10 1_555 1_555
N3 C9 1_555 1_555
N4 C9 1_555 1_555
O2 Cd1 1_555 1_555
O3 C3 1_555 1_555
O4 C4 1_555 1_555
O5 C4 1_555 1_555
O6 Cd1 1_555 1_555
H18 O6 1_555 1_555
H19 O6 1_555 1_555
C1A C3A 1_555 1_555
C2A C2 1_555 1_555
C3A O2A 1_555 1_555
C4A C6A 1_555 1_555
C5A C2A 1_555 1_555
H1A C5A 1_555 1_555
C6A C1A 1_555 1_555
C7A C1A 1_555 1_555
H2A C7A 1_555 1_555
O1A C13A 1_555 1_555
C8A C2A 1_555 1_555
H3A C8A 1_555 1_555
C9A H4A 1_555 1_555
C10A H5A 1_555 1_555
C11A H6A 1_555 1_555
C12A H7A 1_555 1_555
H8A C12A 1_555 1_555
C13A H9A 1_555 1_555
H10A C13A 1_555 1_555
C14A H11A 1_555 1_555
C15A C10A 1_555 1_555
H12A C15A 1_555 1_555
C16A C14A 1_555 1_555
H13A C16A 1_555 1_555
C17A O1A 1_555 1_555
H14A C17A 1_555 1_555
H15A C17A 1_555 1_555
C18A C13A 1_555 1_555
H16A C18A 1_555 1_555
H17A C18A 1_555 1_555
Cd1_2 N3 1_555 1_555
Cd1A O4 1_555 1_555
Cd1A_2 N1A 1_555 1_555
Cd1_3 O4A 1_555 1_555
Cd1A_3 N3A_2 1_555 1_555
N1A C11A 1_555 1_555
N2A C10A 1_555 1_555
N3_2 Cd1 1_555 1_555
N3A Cd1A_2 1_555 1_555
N3A_2 C9A 1_555 1_555
N4A C9A 1_555 1_555
O2A Cd1A_2 1_555 1_555
O3A C3A 1_555 1_555
O4A C4A 1_555 1_555
O4A_2 Cd1 1_555 1_555
O4_2 Cd1A_2 1_555 1_555
O5A C4A 1_555 1_555
O5A_2 Cd1 1_555 1_555
O5_2 Cd1A_2 1_555 1_555
O6A Cd1A_2 1_555 1_555
H18A O6A 1_555 1_555
H19A O6A 1_555 1_555
C5 C6 1_555 1_555
C7 C8 1_555 1_555
C11 N2 1_555 1_555
C12 C17 1_555 1_555
C12 N4 1_555 1_555
C14 N3 1_555 1_555
C15 N1 1_555 1_555
C16 N4 1_555 1_555
C18 N2 1_555 1_555
Cd1 O3 1_555 1_555
O5 Cd1A 1_555 1_555
C5A C6A 1_555 1_555
C7A C8A 1_555 1_555
C11A N2A 1_555 1_555
C12A C17A 1_555 1_555
C12A N4A 1_555 1_555
C14A N3A_2 1_555 1_555
C15A N1A 1_555 1_555
C16A N4A 1_555 1_555
C18A N2A 1_555 1_555
Cd1A_2 O3A 1_555 1_555
Cd1_3 O5A 1_555 1_555

#END
