
#######################################################################
#
#                 Cambridge Crystallographic Data Centre
#                                CCDC 
#
#######################################################################
#
# If this CIF has been generated from an entry in the Cambridge 
# Structural Database, then it will include bibliographic, chemical, 
# crystal, experimental, refinement or atomic coordinate data resulting 
# from the CCDC's data processing and validation procedures.
#
#######################################################################

data_XAKBES
_symmetry_cell_setting           monoclinic
_symmetry_space_group_name_H-M   'P 21/n'
_symmetry_Int_Tables_number      14
_space_group_name_Hall           '-P 2yn'
loop_
_symmetry_equiv_pos_site_id
_symmetry_equiv_pos_as_xyz
1 x,y,z
2 1/2-x,1/2+y,1/2-z
3 -x,-y,-z
4 1/2+x,1/2-y,1/2+z
_cell_length_a                   18.665(4)
_cell_length_b                   8.0406(16)
_cell_length_c                   19.377(4)
_cell_angle_alpha                90
_cell_angle_beta                 93.26(3)
_cell_angle_gamma                90
_cell_volume                     2903.35
loop_
_atom_site_label
_atom_site_type_symbol
_atom_site_fract_x
_atom_site_fract_y
_atom_site_fract_z
Sr1 Sr 0.48764(2) 0.75146(5) 0.52610(2)
O1 O 0.3724(2) 0.6001(5) 0.5485(3)
H1 H 0.345(3) 0.620(7) 0.581(3)
H2 H 0.373(4) 0.496(2) 0.541(3)
O2 O 0.58168(18) 0.9811(4) 0.46912(17)
O3 O 0.5312(2) 0.8995(4) 0.6376(2)
H3 H 0.563(2) 0.862(6) 0.667(2)
H4 H 0.538(3) 1.0040(18) 0.634(3)
O4 O 0.61427(19) 0.7219(4) 0.4837(2)
O5 O 0.5860(3) 0.6644(6) 0.1710(3)
O6 O 0.4452(2) 0.7775(4) 0.39694(18)
O7 O 0.47219(19) 0.5182(4) 0.42097(18)
O8 O 0.2021(3) 0.3645(6) 0.4167(3)
C1 C 0.6216(3) 0.8618(6) 0.4568(3)
C2 C 0.6843(4) 0.8805(7) 0.4118(4)
H5 H 0.7251 0.8715 0.4457
C3 C 0.6965(5) 1.0412(7) 0.3813(4)
H6 H 0.7422 1.0413 0.3610
H7 H 0.6960 1.1254 0.4164
H8 H 0.6593 1.0636 0.3463
C4 C 0.6951(4) 0.7317(8) 0.3669(4)
C5 C 0.7489(4) 0.6203(8) 0.3800(4)
H9 H 0.7810 0.6373 0.4178
C6 C 0.7570(4) 0.4815(7) 0.3384(4)
H10 H 0.7945 0.4080 0.3490
C7 C 0.7110(4) 0.4507(7) 0.2822(3)
H11 H 0.7164 0.3562 0.2553
C8 C 0.6564(4) 0.5628(7) 0.2661(4)
C9 C 0.6493(4) 0.7039(7) 0.3090(4)
H12 H 0.6129 0.7801 0.2981
C10 C 0.6085(4) 0.5418(8) 0.2023(4)
C11 C 0.5888(3) 0.3725(8) 0.1769(4)
C12 C 0.5806(4) 0.3459(10) 0.1070(5)
H13 H 0.5883 0.4329 0.0767
C13 C 0.5614(5) 0.1937(13) 0.0815(5)
H14 H 0.5582 0.1760 0.0340
C14 C 0.5467(4) 0.0669(11) 0.1253(6)
H15 H 0.5320 -0.0357 0.1075
C15 C 0.5536(4) 0.0905(10) 0.1952(5)
H16 H 0.5436 0.0043 0.2251
C16 C 0.5757(4) 0.2436(8) 0.2210(4)
H17 H 0.5818 0.2594 0.2686
C17 C 0.4514(3) 0.6286(6) 0.3793(3)
C18 C 0.4340(3) 0.5796(6) 0.3037(3)
H18 H 0.4791 0.5412 0.2855
C19 C 0.4084(4) 0.7250(7) 0.2587(3)
H19 H 0.4005 0.6884 0.2118
H20 H 0.4440 0.8112 0.2611
H21 H 0.3643 0.7674 0.2750
C20 C 0.3822(3) 0.4346(6) 0.2974(3)
C21 C 0.3833(3) 0.3290(7) 0.2406(3)
H22 H 0.4158 0.3494 0.2070
C22 C 0.3376(3) 0.1952(7) 0.2326(3)
H23 H 0.3391 0.1272 0.1939
C23 C 0.2894(3) 0.1624(7) 0.2824(3)
H24 H 0.2602 0.0689 0.2784
C24 C 0.2845(3) 0.2682(6) 0.3384(3)
C25 C 0.3314(3) 0.4039(6) 0.3452(3)
H25 H 0.3284 0.4751 0.3827
C26 C 0.2298(3) 0.2443(7) 0.3910(3)
C27 C 0.2095(3) 0.0740(7) 0.4110(3)
C28 C 0.2581(4) -0.0550(7) 0.4146(3)
H26 H 0.3045 -0.0382 0.4010
C29 C 0.2382(5) -0.2089(8) 0.4383(4)
H27 H 0.2718 -0.2943 0.4417
C30 C 0.1708(6) -0.2376(10) 0.4565(4)
H28 H 0.1580 -0.3428 0.4715
C31 C 0.1211(4) -0.1121(11) 0.4530(4)
H29 H 0.0746 -0.1325 0.4657
C32 C 0.1397(3) 0.0456(8) 0.4305(3)
H30 H 0.1061 0.1311 0.4286
Sr1B Sr 0.51236(2) 1.24854(5) 0.47390(2)
Sr1B_2 Sr 0.51236(2) 0.24854(5) 0.47390(2)
O2B O 0.41832(18) 1.0189(4) 0.53088(17)
O7B O 0.52781(19) 0.4818(4) 0.57903(18)
loop_
_geom_bond_atom_site_label_1
_geom_bond_atom_site_label_2
_geom_bond_site_symmetry_1
_geom_bond_site_symmetry_2
Sr1 O1 1_555 1_555
O1 H1 1_555 1_555
H2 O1 1_555 1_555
O2 Sr1 1_555 1_555
O3 Sr1 1_555 1_555
H3 O3 1_555 1_555
H4 O3 1_555 1_555
O4 Sr1 1_555 1_555
O5 C10 1_555 1_555
O6 Sr1 1_555 1_555
O7 Sr1 1_555 1_555
O8 C26 1_555 1_555
C1 O2 1_555 1_555
C2 C1 1_555 1_555
H5 C2 1_555 1_555
C3 C2 1_555 1_555
H6 C3 1_555 1_555
H7 C3 1_555 1_555
H8 C3 1_555 1_555
C4 C2 1_555 1_555
C5 C4 1_555 1_555
H9 C5 1_555 1_555
C6 C5 1_555 1_555
H10 C6 1_555 1_555
C7 C6 1_555 1_555
H11 C7 1_555 1_555
C8 C7 1_555 1_555
C9 C4 1_555 1_555
H12 C9 1_555 1_555
C10 C8 1_555 1_555
C11 C10 1_555 1_555
C12 C11 1_555 1_555
H13 C12 1_555 1_555
C13 C12 1_555 1_555
H14 C13 1_555 1_555
C14 C13 1_555 1_555
H15 C14 1_555 1_555
C15 C14 1_555 1_555
H16 C15 1_555 1_555
C16 C11 1_555 1_555
H17 C16 1_555 1_555
C17 O6 1_555 1_555
C18 C17 1_555 1_555
H18 C18 1_555 1_555
C19 C18 1_555 1_555
H19 C19 1_555 1_555
H20 C19 1_555 1_555
H21 C19 1_555 1_555
C20 C18 1_555 1_555
C21 C20 1_555 1_555
H22 C21 1_555 1_555
C22 C21 1_555 1_555
H23 C22 1_555 1_555
C23 C22 1_555 1_555
H24 C23 1_555 1_555
C24 C23 1_555 1_555
C25 C20 1_555 1_555
H25 C25 1_555 1_555
C26 C24 1_555 1_555
C27 C26 1_555 1_555
C28 C27 1_555 1_555
H26 C28 1_555 1_555
C29 C28 1_555 1_555
H27 C29 1_555 1_555
C30 C29 1_555 1_555
H28 C30 1_555 1_555
C31 C30 1_555 1_555
H29 C31 1_555 1_555
C32 C27 1_555 1_555
H30 C32 1_555 1_555
Sr1B O2 1_555 1_555
Sr1B_2 O7 1_555 1_555
O2B Sr1 1_555 1_555
O7B Sr1 1_555 1_555
O4 C1 1_555 1_555
O7 C17 1_555 1_555
C8 C9 1_555 1_555
C15 C16 1_555 1_555
C24 C25 1_555 1_555
C31 C32 1_555 1_555
Sr1B O2B 1_555 1_555
Sr1B_2 O7B 1_555 1_555

#END
