
#######################################################################
#
#                 Cambridge Crystallographic Data Centre
#                                CCDC 
#
#######################################################################
#
# If this CIF has been generated from an entry in the Cambridge 
# Structural Database, then it will include bibliographic, chemical, 
# crystal, experimental, refinement or atomic coordinate data resulting 
# from the CCDC's data processing and validation procedures.
#
#######################################################################

data_XAKHEY
_symmetry_cell_setting           triclinic
_symmetry_space_group_name_H-M   'P 1'
_symmetry_Int_Tables_number      1
_space_group_name_Hall           'P 1'
loop_
_symmetry_equiv_pos_site_id
_symmetry_equiv_pos_as_xyz
1 x,y,z
_cell_length_a                   10.7500(7)
_cell_length_b                   11.3594(7)
_cell_length_c                   12.5494(8)
_cell_angle_alpha                79.4940(10)
_cell_angle_beta                 81.8900(10)
_cell_angle_gamma                75.2940(10)
_cell_volume                     1450.15
loop_
_atom_site_label
_atom_site_type_symbol
_atom_site_fract_x
_atom_site_fract_y
_atom_site_fract_z
Sn1 Sn 0.49998(2) 0.49997(2) 1.00002(2)
Sn2 Sn -0.01462(2) 0.60583(2) 0.92111(2)
S1 S 0.21418(18) 0.20712(15) 1.19010(12)
S2 S 0.1212(3) 0.4148(2) 1.31804(19)
S3 S 0.60513(16) 0.89805(15) 0.73173(13)
S4 S 0.6328(4) 0.7164(3) 0.5797(3)
O1 O 0.3468(3) 0.3924(4) 1.0643(3)
O2 O 0.1838(3) 0.5164(4) 0.9783(3)
O3 O 0.7944(3) 0.7115(3) 0.8561(3)
O4 O 0.6683(3) 0.5915(4) 0.9437(3)
N1 N 0.2493(5) 0.1888(5) 1.3937(4)
N2 N 0.6536(10) 0.9487(7) 0.5250(5)
C1 C 0.6270(5) 0.3575(5) 1.0974(5)
H1 H 0.6022 0.2803 1.1012
H2 H 0.7144 0.3480 1.0619
C2 C 0.6259(4) 0.3822(4) 1.2114(3)
C3 C 0.7312(4) 0.4127(5) 1.2428(4)
H3 H 0.8039 0.4166 1.1936
C4 C 0.7280(6) 0.4374(5) 1.3478(5)
H4 H 0.7984 0.4578 1.3688
C5 C 0.6194(7) 0.4316(5) 1.4213(3)
H5 H 0.6172 0.4481 1.4916
C6 C 0.5141(5) 0.4011(5) 1.3899(3)
H6 H 0.4414 0.3972 1.4391
C7 C 0.5173(3) 0.3764(5) 1.2850(4)
H7 H 0.4469 0.3560 1.2639
C8 C 0.3774(5) 0.6484(5) 1.0777(5)
H8 H 0.3061 0.6859 1.0338
H9 H 0.3411 0.6123 1.1474
C9 C 0.4324(4) 0.7496(3) 1.0979(4)
C10 C 0.5249(4) 0.7246(3) 1.1711(4)
H10 H 0.5523 0.6450 1.2075
C11 C 0.5763(4) 0.8186(5) 1.1901(4)
H11 H 0.6381 0.8019 1.2391
C12 C 0.5353(5) 0.9376(4) 1.1359(5)
H12 H 0.5698 1.0005 1.1486
C13 C 0.4429(5) 0.9626(3) 1.0626(4)
H13 H 0.4155 1.0423 1.0263
C14 C 0.3915(4) 0.8687(4) 1.0436(3)
H14 H 0.3296 0.8854 0.9946
C15 C 0.4934(5) 0.4621(5) 0.8392(5)
H15 H 0.4104 0.4456 0.8342
H16 H 0.5030 0.5335 0.7859
C16 C 0.5989(3) 0.3537(4) 0.8154(3)
C17 C 0.5921(5) 0.2361(4) 0.8673(4)
H17 H 0.5208 0.2248 0.9160
C18 C 0.6917(7) 0.1354(3) 0.8465(5)
H18 H 0.6872 0.0568 0.8813
C19 C 0.7982(5) 0.1523(5) 0.7738(5)
H19 H 0.8649 0.0849 0.7599
C20 C 0.8050(4) 0.2698(7) 0.7219(4)
H20 H 0.8762 0.2811 0.6732
C21 C 0.7053(4) 0.3705(5) 0.7427(3)
H21 H 0.7099 0.4492 0.7079
C22 C 0.0666(6) 0.7431(5) 0.8139(5)
H22 H 0.0015 0.8201 0.8073
H23 H 0.1378 0.7559 0.8465
C23 C 0.1147(3) 0.7116(4) 0.7022(3)
C24 C 0.2466(3) 0.6838(4) 0.6700(4)
H24 H 0.3047 0.6898 0.7160
C25 C 0.2918(4) 0.6470(5) 0.5690(4)
H25 H 0.3801 0.6284 0.5475
C26 C 0.2050(6) 0.6381(5) 0.5003(3)
H26 H 0.2353 0.6135 0.4327
C27 C 0.0731(6) 0.6659(6) 0.5325(4)
H27 H 0.0151 0.6599 0.4865
C28 C 0.0279(3) 0.7027(5) 0.6335(4)
H28 H -0.0603 0.7213 0.6550
C29 C -0.0347(5) 0.4565(5) 0.8470(5)
H29 H -0.1040 0.4237 0.8901
H30 H -0.0643 0.4919 0.7760
C30 C 0.0768(3) 0.3491(3) 0.8305(3)
C31 C 0.0646(4) 0.2318(4) 0.8786(3)
H31 H -0.0126 0.2207 0.9182
C32 C 0.1677(5) 0.1309(3) 0.8674(4)
H32 H 0.1596 0.0523 0.8996
C33 C 0.2831(4) 0.1474(4) 0.8082(4)
H33 H 0.3521 0.0799 0.8007
C34 C 0.2952(3) 0.2648(4) 0.7601(3)
H34 H 0.3724 0.2758 0.7205
C35 C 0.1921(4) 0.3656(3) 0.7713(3)
H35 H 0.2002 0.4442 0.7392
C36 C -0.0906(6) 0.6499(5) 1.0801(5)
H36 H -0.1839 0.6630 1.0875
H37 H -0.0568 0.5812 1.1347
C37 C -0.0549(4) 0.7638(3) 1.0994(3)
C38 C -0.1172(4) 0.8787(4) 1.0485(3)
H38 H -0.1827 0.8853 1.0052
C39 C -0.0815(5) 0.9838(3) 1.0626(4)
H39 H -0.1232 1.0607 1.0286
C40 C 0.0164(5) 0.9740(4) 1.1274(4)
H40 H 0.0403 1.0443 1.1368
C41 C 0.0787(4) 0.8591(5) 1.1783(4)
H41 H 0.1442 0.8525 1.2217
C42 C 0.0430(3) 0.7540(4) 1.1642(3)
H42 H 0.0846 0.6771 1.1982
C43 C 0.2326(5) 0.4219(5) 1.0437(4)
C44 C 0.1470(6) 0.3360(7) 1.0941(5)
H43 H 0.1204 0.3053 1.0359
H44 H 0.0697 0.3836 1.1301
C45 C 0.1957(6) 0.2699(5) 1.3110(4)
C46 C 0.3030(8) 0.0580(7) 1.3936(6)
H45 H 0.3822 0.0314 1.4291
H46 H 0.3222 0.0401 1.3196
C47 C 0.2029(11) -0.0070(9) 1.4547(8)
H47 H 0.1210 0.0250 1.4236
H48 H 0.2302 -0.0947 1.4522
C48 C 0.1908(11) 0.0177(7) 1.5682(6)
H49 H 0.1386 -0.0326 1.6158
H50 H 0.2753 -0.0010 1.5945
C49 C 0.1281(6) 0.1499(7) 1.5662(6)
H51 H 0.1060 0.1693 1.6397
H52 H 0.0499 0.1715 1.5296
C50 C 0.2245(7) 0.2179(7) 1.5054(5)
H53 H 0.1911 0.3058 1.5043
H54 H 0.3040 0.1929 1.5404
C51 C 0.6888(4) 0.6835(5) 0.8757(4)
C52 C 0.5765(5) 0.7622(6) 0.8183(5)
H55 H 0.5053 0.7864 0.8726
H56 H 0.5494 0.7126 0.7747
C53 C 0.6339(9) 0.8566(8) 0.6014(5)
C54 C 0.6621(7) 1.0693(8) 0.5407(7)
H57 H 0.6447 1.0779 0.6172
H58 H 0.6005 1.1332 0.5002
C55 C 0.7970(8) 1.0779(11) 0.4995(7)
H59 H 0.8588 1.0080 0.5332
H60 H 0.8136 1.1530 0.5147
C56 C 0.8064(11) 1.0785(10) 0.3797(7)
H61 H 0.8864 1.0983 0.3444
H62 H 0.7344 1.1384 0.3480
C57 C 0.8030(9) 0.9511(10) 0.3672(8)
H63 H 0.8216 0.9396 0.2913
H64 H 0.8656 0.8903 0.4093
C58 C 0.6695(10) 0.9407(11) 0.4087(7)
H65 H 0.6072 1.0068 0.3709
H66 H 0.6562 0.8627 0.3975
Sn2_2 Sn 0.98538(2) 0.60583(2) 0.92111(2)
O3_2 O -0.2056(3) 0.7115(3) 0.8561(3)
loop_
_geom_bond_atom_site_label_1
_geom_bond_atom_site_label_2
_geom_bond_site_symmetry_1
_geom_bond_site_symmetry_2
Sn1 O1 1_555 1_555
Sn2 O2 1_555 1_555
S1 C44 1_555 1_555
S2 C45 1_555 1_555
S3 C52 1_555 1_555
S4 C53 1_555 1_555
O1 C43 1_555 1_555
O2 C43 1_555 1_555
O3 C51 1_555 1_555
O4 Sn1 1_555 1_555
N1 C45 1_555 1_555
N2 C53 1_555 1_555
C1 Sn1 1_555 1_555
H1 C1 1_555 1_555
H2 C1 1_555 1_555
C2 C1 1_555 1_555
C3 C2 1_555 1_555
H3 C3 1_555 1_555
C4 C3 1_555 1_555
H4 C4 1_555 1_555
C5 C4 1_555 1_555
H5 C5 1_555 1_555
C6 C5 1_555 1_555
H6 C6 1_555 1_555
C7 C2 1_555 1_555
H7 C7 1_555 1_555
C8 Sn1 1_555 1_555
H8 C8 1_555 1_555
H9 C8 1_555 1_555
C9 C8 1_555 1_555
C10 C9 1_555 1_555
H10 C10 1_555 1_555
C11 C10 1_555 1_555
H11 C11 1_555 1_555
C12 C11 1_555 1_555
H12 C12 1_555 1_555
C13 C12 1_555 1_555
H13 C13 1_555 1_555
C14 C9 1_555 1_555
H14 C14 1_555 1_555
C15 Sn1 1_555 1_555
H15 C15 1_555 1_555
H16 C15 1_555 1_555
C16 C15 1_555 1_555
C17 C16 1_555 1_555
H17 C17 1_555 1_555
C18 C17 1_555 1_555
H18 C18 1_555 1_555
C19 C18 1_555 1_555
H19 C19 1_555 1_555
C20 C19 1_555 1_555
H20 C20 1_555 1_555
C21 C16 1_555 1_555
H21 C21 1_555 1_555
C22 Sn2 1_555 1_555
H22 C22 1_555 1_555
H23 C22 1_555 1_555
C23 C22 1_555 1_555
C24 C23 1_555 1_555
H24 C24 1_555 1_555
C25 C24 1_555 1_555
H25 C25 1_555 1_555
C26 C25 1_555 1_555
H26 C26 1_555 1_555
C27 C26 1_555 1_555
H27 C27 1_555 1_555
C28 C23 1_555 1_555
H28 C28 1_555 1_555
C29 Sn2 1_555 1_555
H29 C29 1_555 1_555
H30 C29 1_555 1_555
C30 C29 1_555 1_555
C31 C30 1_555 1_555
H31 C31 1_555 1_555
C32 C31 1_555 1_555
H32 C32 1_555 1_555
C33 C32 1_555 1_555
H33 C33 1_555 1_555
C34 C33 1_555 1_555
H34 C34 1_555 1_555
C35 C30 1_555 1_555
H35 C35 1_555 1_555
C36 Sn2 1_555 1_555
H36 C36 1_555 1_555
H37 C36 1_555 1_555
C37 C36 1_555 1_555
C38 C37 1_555 1_555
H38 C38 1_555 1_555
C39 C38 1_555 1_555
H39 C39 1_555 1_555
C40 C39 1_555 1_555
H40 C40 1_555 1_555
C41 C40 1_555 1_555
H41 C41 1_555 1_555
C42 C37 1_555 1_555
H42 C42 1_555 1_555
C43 C44 1_555 1_555
C44 H43 1_555 1_555
H44 C44 1_555 1_555
C45 S1 1_555 1_555
C46 N1 1_555 1_555
H45 C46 1_555 1_555
H46 C46 1_555 1_555
C47 C46 1_555 1_555
H47 C47 1_555 1_555
H48 C47 1_555 1_555
C48 C47 1_555 1_555
H49 C48 1_555 1_555
H50 C48 1_555 1_555
C49 C48 1_555 1_555
H51 C49 1_555 1_555
H52 C49 1_555 1_555
C50 N1 1_555 1_555
H53 C50 1_555 1_555
H54 C50 1_555 1_555
C51 O4 1_555 1_555
C52 C51 1_555 1_555
H55 C52 1_555 1_555
H56 C52 1_555 1_555
C53 S3 1_555 1_555
C54 N2 1_555 1_555
H57 C54 1_555 1_555
H58 C54 1_555 1_555
C55 C54 1_555 1_555
H59 C55 1_555 1_555
H60 C55 1_555 1_555
C56 C55 1_555 1_555
H61 C56 1_555 1_555
H62 C56 1_555 1_555
C57 C56 1_555 1_555
H63 C57 1_555 1_555
H64 C57 1_555 1_555
C58 N2 1_555 1_555
H65 C58 1_555 1_555
H66 C58 1_555 1_555
Sn2_2 O3 1_555 1_555
O3_2 Sn2 1_555 1_555
C6 C7 1_555 1_555
C13 C14 1_555 1_555
C20 C21 1_555 1_555
C27 C28 1_555 1_555
C34 C35 1_555 1_555
C41 C42 1_555 1_555
C49 C50 1_555 1_555
C57 C58 1_555 1_555

#END
