
#######################################################################
#
#                 Cambridge Crystallographic Data Centre
#                                CCDC 
#
#######################################################################
#
# If this CIF has been generated from an entry in the Cambridge 
# Structural Database, then it will include bibliographic, chemical, 
# crystal, experimental, refinement or atomic coordinate data resulting 
# from the CCDC's data processing and validation procedures.
#
#######################################################################

data_XAKNIH
_symmetry_cell_setting           triclinic
_symmetry_space_group_name_H-M   'P -1'
_symmetry_Int_Tables_number      2
_space_group_name_Hall           '-P 1'
loop_
_symmetry_equiv_pos_site_id
_symmetry_equiv_pos_as_xyz
1 x,y,z
2 -x,-y,-z
_cell_length_a                   8.169(3)
_cell_length_b                   14.708(5)
_cell_length_c                   15.701(5)
_cell_angle_alpha                84.412(5)
_cell_angle_beta                 75.395(5)
_cell_angle_gamma                77.426(5)
_cell_volume                     1779.93
loop_
_atom_site_label
_atom_site_type_symbol
_atom_site_fract_x
_atom_site_fract_y
_atom_site_fract_z
Cu1 Cu 0.04568(16) 0.58255(9) 0.46506(7)
Cu2 Cu 0.15803(16) 0.45522(9) 0.32774(8)
Cu3 Cu 0.32823(16) 0.53623(9) 0.17364(8)
Cu4 Cu 0.46667(16) 0.41410(9) 0.03483(7)
I1 I 0.28696(8) 0.42161(5) 0.46984(4)
I2 I 0.08236(8) 0.63696(4) 0.29832(4)
I3 I 0.40992(8) 0.35455(4) 0.20075(4)
I4 I 0.20765(8) 0.56980(5) 0.02863(4)
C1 C 0.0866(14) 0.6091(8) 0.7966(6)
H1 H 0.0163 0.5628 0.8073
H2 H 0.0283 0.6614 0.8322
H3 H 0.1949 0.5829 0.8113
C2 C 0.1184(11) 0.6407(7) 0.7012(6)
C3 C 0.2079(11) 0.7049(6) 0.5546(6)
C4 C 0.4233(14) 0.8308(7) 0.4827(8)
H4 H 0.4459 0.8105 0.5400
H5 H 0.5333 0.8235 0.4397
C5 C 0.3373(16) 0.9309(10) 0.4842(9)
C6 C 0.264(2) 0.9725(11) 0.5621(10)
H6 H 0.2672 0.9374 0.6145
C7 C 0.184(3) 1.0669(14) 0.5657(15)
H7 H 0.1393 1.0936 0.6202
C8 C 0.170(2) 1.1184(13) 0.4941(16)
H8 H 0.1137 1.1804 0.4982
C9 C 0.243(2) 1.0797(12) 0.4094(14)
C10 C 0.237(3) 1.1258(17) 0.3308(18)
H9 H 0.1867 1.1889 0.3298
C11 C 0.304(3) 1.0815(19) 0.2520(16)
H10 H 0.2966 1.1139 0.1988
C12 C 0.387(3) 0.9826(17) 0.2540(12)
H11 H 0.4337 0.9524 0.2014
C13 C 0.3246(16) 0.9816(10) 0.4042(9)
C14 C 0.5830(14) 0.5869(9) 0.2980(6)
H12 H 0.5274 0.5346 0.3048
H13 H 0.6929 0.5674 0.3128
H14 H 0.5120 0.6347 0.3363
C15 C 0.6088(12) 0.6237(7) 0.2059(6)
C16 C 0.6907(11) 0.6991(6) 0.0641(6)
C17 C 0.9072(13) 0.8222(7) 0.0092(7)
H15 H 0.9918 0.7776 0.0335
H16 H 0.8363 0.8627 0.0555
C18 C 0.9961(14) 0.8781(8) -0.0644(7)
C19 C 1.1557(14) 0.8421(9) -0.1131(8)
H17 H 1.2069 0.7805 -0.1025
C20 C 1.2443(17) 0.8969(9) -0.1795(9)
H18 H 1.3551 0.8715 -0.2108
C21 C 1.1708(17) 0.9879(8) -0.1994(9)
H19 H 1.2302 1.0235 -0.2439
C22 C 1.0031(16) 1.0253(8) -0.1505(8)
C23 C 0.918(2) 1.1183(9) -0.1649(10)
H20 H 0.9721 1.1567 -0.2085
C24 C 0.759(2) 1.1513(10) -0.1154(13)
H21 H 0.7009 1.2118 -0.1251
C25 C 0.682(2) 1.0914(11) -0.0484(12)
H22 H 0.5746 1.1157 -0.0125
C26 C 0.9123(14) 0.9712(7) -0.0831(8)
N1 N 0.0448(9) 0.6138(6) 0.6465(5)
N2 N 0.0972(9) 0.6499(5) 0.5605(5)
N3 N 0.3965(16) 0.9354(10) 0.3297(8)
N4 N 0.5323(10) 0.6039(5) 0.1493(4)
N5 N 0.5796(10) 0.6463(6) 0.0667(5)
N6 N 0.7520(13) 1.0030(7) -0.0333(8)
S1 S 0.2546(3) 0.7148(2) 0.65461(17)
S2 S 0.2904(4) 0.7566(2) 0.45492(17)
S3 S 0.7454(3) 0.7005(2) 0.16335(17)
S4 S 0.7717(3) 0.76053(19) -0.03112(16)
Cu1A Cu -0.04568(16) 0.41745(9) 0.53494(7)
Cu2A Cu -0.15803(16) 0.54478(9) 0.67226(8)
Cu4A Cu 0.53333(16) 0.58590(9) -0.03483(7)
I1A I -0.28696(8) 0.57839(5) 0.53016(4)
I4A I 0.79235(8) 0.43020(5) -0.02863(4)
N1A N -0.0448(9) 0.3862(6) 0.3535(5)
N5A N 0.4204(10) 0.3537(6) -0.0667(5)
loop_
_geom_bond_atom_site_label_1
_geom_bond_atom_site_label_2
_geom_bond_site_symmetry_1
_geom_bond_site_symmetry_2
Cu1 Cu2 1_555 1_555
Cu2 Cu3 1_555 1_555
Cu3 Cu4 1_555 1_555
Cu4 I3 1_555 1_555
I1 Cu1 1_555 1_555
I2 Cu1 1_555 1_555
I3 Cu2 1_555 1_555
I4 Cu3 1_555 1_555
C1 H1 1_555 1_555
H2 C1 1_555 1_555
H3 C1 1_555 1_555
C2 C1 1_555 1_555
C3 N2 1_555 1_555
C4 H4 1_555 1_555
H5 C4 1_555 1_555
C5 C4 1_555 1_555
C6 C5 1_555 1_555
H6 C6 1_555 1_555
C7 C6 1_555 1_555
H7 C7 1_555 1_555
C8 C7 1_555 1_555
H8 C8 1_555 1_555
C9 C8 1_555 1_555
C10 C9 1_555 1_555
H9 C10 1_555 1_555
C11 C10 1_555 1_555
H10 C11 1_555 1_555
C12 C11 1_555 1_555
H11 C12 1_555 1_555
C13 C5 1_555 1_555
C14 H12 1_555 1_555
H13 C14 1_555 1_555
H14 C14 1_555 1_555
C15 C14 1_555 1_555
C16 N5 1_555 1_555
C17 H15 1_555 1_555
H16 C17 1_555 1_555
C18 C17 1_555 1_555
C19 C18 1_555 1_555
H17 C19 1_555 1_555
C20 C19 1_555 1_555
H18 C20 1_555 1_555
C21 C20 1_555 1_555
H19 C21 1_555 1_555
C22 C21 1_555 1_555
C23 C22 1_555 1_555
H20 C23 1_555 1_555
C24 C23 1_555 1_555
H21 C24 1_555 1_555
C25 C24 1_555 1_555
H22 C25 1_555 1_555
C26 C18 1_555 1_555
N1 C2 1_555 1_555
N2 Cu1 1_555 1_555
N3 C12 1_555 1_555
N4 Cu3 1_555 1_555
N5 N4 1_555 1_555
N6 C25 1_555 1_555
S1 C2 1_555 1_555
S2 C3 1_555 1_555
S3 C15 1_555 1_555
S4 C16 1_555 1_555
Cu1A Cu1 1_555 1_555
Cu2A N1 1_555 1_555
Cu4A Cu4 1_555 1_555
I1A Cu1 1_555 1_555
I4A Cu4 1_555 1_555
N1A Cu2 1_555 1_555
N5A Cu4 1_555 1_555
Cu2 I1 1_555 1_555
Cu2 I2 1_555 1_555
Cu3 I2 1_555 1_555
Cu3 I3 1_555 1_555
Cu4 I4 1_555 1_555
I1 Cu1A 1_555 1_555
I4 Cu4A 1_555 1_555
C3 S1 1_555 1_555
C4 S2 1_555 1_555
C9 C13 1_555 1_555
C13 N3 1_555 1_555
C15 N4 1_555 1_555
C16 S3 1_555 1_555
C17 S4 1_555 1_555
C22 C26 1_555 1_555
C26 N6 1_555 1_555
N1 N2 1_555 1_555
N5 Cu4A 1_555 1_555
Cu1A Cu2A 1_555 1_555
Cu1A I1A 1_555 1_555
Cu2A I1A 1_555 1_555
Cu4A I4A 1_555 1_555

#END
