
#######################################################################
#
#                 Cambridge Crystallographic Data Centre
#                                CCDC 
#
#######################################################################
#
# If this CIF has been generated from an entry in the Cambridge 
# Structural Database, then it will include bibliographic, chemical, 
# crystal, experimental, refinement or atomic coordinate data resulting 
# from the CCDC's data processing and validation procedures.
#
#######################################################################

data_XAKNED
_symmetry_cell_setting           triclinic
_symmetry_space_group_name_H-M   'P -1'
_symmetry_Int_Tables_number      2
_space_group_name_Hall           '-P 1'
loop_
_symmetry_equiv_pos_site_id
_symmetry_equiv_pos_as_xyz
1 x,y,z
2 -x,-y,-z
_cell_length_a                   7.464(3)
_cell_length_b                   10.195(4)
_cell_length_c                   15.094(5)
_cell_angle_alpha                81.617(5)
_cell_angle_beta                 89.582(5)
_cell_angle_gamma                78.333(5)
_cell_volume                     1112.54
loop_
_atom_site_label
_atom_site_type_symbol
_atom_site_fract_x
_atom_site_fract_y
_atom_site_fract_z
Cu1 Cu -0.40383(14) 0.88918(9) 0.97311(7)
Cu2 Cu -0.8939(2) 1.39170(15) 0.45015(11)
Cu3 Cu -0.54573(19) 1.40702(11) 0.56593(8)
I1 I -0.88981(8) 1.38076(7) 0.62499(5)
I2 I -0.27219(7) 0.99918(5) 1.09683(4)
I3 I -0.54136(7) 1.37165(5) 0.39632(3)
S1 S -0.1988(2) 0.86800(17) 0.84989(12)
N1 N -0.3689(8) 0.6795(6) 1.0117(4)
N2 N -0.4024(9) 1.2370(6) 0.6425(5)
N3 N -0.9809(15) 1.2378(11) 0.4088(8)
C1 C -0.2775(9) 0.5787(7) 0.9682(5)
C2 C -0.4103(11) 0.6501(8) 1.0963(6)
H1 H -0.4721 0.7199 1.1253
C3 C -0.3660(12) 0.5190(9) 1.1452(6)
H2 H -0.4013 0.5024 1.2043
C4 C -0.2719(11) 0.4183(8) 1.1048(5)
H3 H -0.2394 0.3313 1.1365
C5 C -0.2221(9) 0.4443(7) 1.0145(5)
C6 C -0.1168(10) 0.3423(7) 0.9699(6)
H4 H -0.0800 0.2548 1.0003
C7 C -0.0703(10) 0.3706(7) 0.8850(6)
H5 H 0.0021 0.3039 0.8570
C8 C -0.1309(10) 0.5020(7) 0.8374(5)
H6 H -0.0995 0.5197 0.7777
C9 C -0.2339(9) 0.6039(7) 0.8761(5)
C10 C -0.3047(11) 0.7360(7) 0.8173(5)
H7 H -0.4364 0.7611 0.8225
H8 H -0.2781 0.7264 0.7553
C11 C -0.2806(9) 1.0057(7) 0.7666(5)
C12 C -0.2423(11) 1.1288(7) 0.7777(5)
H9 H -0.1733 1.1365 0.8271
C13 C -0.3070(11) 1.2408(7) 0.7149(6)
H10 H -0.2820 1.3235 0.7242
C14 C -0.4366(13) 1.1175(8) 0.6314(6)
H11 H -0.5034 1.1125 0.5806
C15 C -0.3782(13) 0.9989(8) 0.6915(6)
H12 H -0.4048 0.9173 0.6808
C16 C -1.0454(15) 1.1547(14) 0.3893(9)
C17 C -1.125(2) 1.0460(16) 0.3678(13)
H13 H -1.2241 1.0347 0.4074
H14 H -1.0343 0.9637 0.3745
H15 H -1.1714 1.0669 0.3070
Cu1A Cu -0.59617(14) 1.11082(9) 1.02689(7)
Cu2A Cu -1.1061(2) 1.60830(15) 0.54985(11)
Cu3A Cu -0.45427(19) 1.59298(11) 0.43407(8)
I1A I -1.11019(8) 1.61924(7) 0.37501(5)
I2A I -0.72781(7) 1.00082(5) 0.90317(4)
I3A I -0.45864(7) 1.62835(5) 0.60368(3)
loop_
_geom_bond_atom_site_label_1
_geom_bond_atom_site_label_2
_geom_bond_site_symmetry_1
_geom_bond_site_symmetry_2
Cu1 I2 1_555 1_555
Cu2 I1 1_555 1_555
Cu3 I1 1_555 1_555
I1 Cu2A 1_555 1_555
I2 Cu1A 1_555 1_555
I3 Cu2 1_555 1_555
S1 Cu1 1_555 1_555
N1 Cu1 1_555 1_555
N2 Cu3 1_555 1_555
N3 Cu2 1_555 1_555
C1 N1 1_555 1_555
C2 N1 1_555 1_555
H1 C2 1_555 1_555
C3 C2 1_555 1_555
H2 C3 1_555 1_555
C4 C3 1_555 1_555
H3 C4 1_555 1_555
C5 C1 1_555 1_555
C6 C5 1_555 1_555
H4 C6 1_555 1_555
C7 C6 1_555 1_555
H5 C7 1_555 1_555
C8 C7 1_555 1_555
H6 C8 1_555 1_555
C9 C1 1_555 1_555
C10 S1 1_555 1_555
H7 C10 1_555 1_555
H8 C10 1_555 1_555
C11 S1 1_555 1_555
C12 C11 1_555 1_555
H9 C12 1_555 1_555
C13 N2 1_555 1_555
H10 C13 1_555 1_555
C14 N2 1_555 1_555
H11 C14 1_555 1_555
C15 C11 1_555 1_555
H12 C15 1_555 1_555
C16 N3 1_555 1_555
C17 C16 1_555 1_555
H13 C17 1_555 1_555
H14 C17 1_555 1_555
H15 C17 1_555 1_555
Cu1A Cu1 1_555 1_555
Cu2A Cu2 1_555 1_555
Cu3A Cu3 1_555 1_555
I1A Cu2 1_555 1_555
I2A Cu1 1_555 1_555
I3A Cu3 1_555 1_555
Cu3 I3 1_555 1_555
I3 Cu3A 1_555 1_555
C4 C5 1_555 1_555
C8 C9 1_555 1_555
C9 C10 1_555 1_555
C12 C13 1_555 1_555
C14 C15 1_555 1_555
Cu1A I2A 1_555 1_555
Cu2A I1A 1_555 1_555
Cu3A I3A 1_555 1_555

#END
