
#######################################################################
#
#                 Cambridge Crystallographic Data Centre
#                                CCDC 
#
#######################################################################
#
# If this CIF has been generated from an entry in the Cambridge 
# Structural Database, then it will include bibliographic, chemical, 
# crystal, experimental, refinement or atomic coordinate data resulting 
# from the CCDC's data processing and validation procedures.
#
#######################################################################

data_XAKPUW
_symmetry_cell_setting           orthorhombic
_symmetry_space_group_name_H-M   'F d d d'
_symmetry_Int_Tables_number      70
_space_group_name_Hall           '-F 2uv 2vw'
loop_
_symmetry_equiv_pos_site_id
_symmetry_equiv_pos_as_xyz
1 x,y,z
2 3/4-x,3/4-y,z
3 3/4-x,y,3/4-z
4 x,3/4-y,3/4-z
5 x,1/2+y,1/2+z
6 3/4-x,1/4-y,1/2+z
7 3/4-x,1/2+y,1/4-z
8 x,1/4-y,1/4-z
9 1/2+x,y,1/2+z
10 1/4-x,3/4-y,1/2+z
11 1/4-x,y,1/4-z
12 1/2+x,3/4-y,1/4-z
13 1/2+x,1/2+y,z
14 1/4-x,1/4-y,z
15 1/4-x,1/2+y,3/4-z
16 1/2+x,1/4-y,3/4-z
17 -x,-y,-z
18 1/4+x,1/4+y,-z
19 1/4+x,-y,1/4+z
20 -x,1/4+y,1/4+z
21 -x,1/2-y,1/2-z
22 1/4+x,3/4+y,1/2-z
23 1/4+x,1/2-y,3/4+z
24 -x,3/4+y,3/4+z
25 1/2-x,-y,1/2-z
26 3/4+x,1/4+y,1/2-z
27 3/4+x,-y,3/4+z
28 1/2-x,1/4+y,3/4+z
29 1/2-x,1/2-y,-z
30 3/4+x,3/4+y,-z
31 3/4+x,1/2-y,1/4+z
32 1/2-x,3/4+y,1/4+z
_cell_length_a                   12.9833(7)
_cell_length_b                   25.7855(14)
_cell_length_c                   30.5266(17)
_cell_angle_alpha                90
_cell_angle_beta                 90
_cell_angle_gamma                90
_cell_volume                     10219.7
loop_
_atom_site_label
_atom_site_type_symbol
_atom_site_fract_x
_atom_site_fract_y
_atom_site_fract_z
Co1 Co 0.6250 0.22534(3) 0.1250
N1 N 0.5139(2) 0.26970(12) 0.10082(10)
O1 O 0.6836(2) 0.18313(12) 0.07966(10)
C1 C 0.5121(3) 0.30992(15) 0.07259(12)
N2 N 0.4151(2) 0.26432(12) 0.11490(10)
H1 H 0.3952 0.2412 0.1333
O3 O 0.8544(2) 0.17854(12) 0.08152(10)
C2 C 0.4128(3) 0.33013(15) 0.06924(12)
C3 C 0.3526(3) 0.29927(15) 0.09670(12)
C4 C 0.3750 0.3750 0.04243(18)
H2 H 0.3195 0.3631 0.0237
C5 C 0.6098(3) 0.32515(18) 0.04983(16)
H3 H 0.6651 0.3034 0.0597
H4 H 0.6256 0.3607 0.0564
H5 H 0.6014 0.3212 0.0188
C6 C 0.2405(3) 0.30145(19) 0.10694(15)
H6 H 0.2194 0.2693 0.1200
H7 H 0.2024 0.3071 0.0804
H8 H 0.2276 0.3294 0.1270
C7 C 0.7688(3) 0.16308(16) 0.06901(13)
C8 C 0.7611(3) 0.11742(16) 0.03784(13)
C9 C 0.6711(4) 0.10815(15) 0.01283(12)
C10 C 0.6716(4) 0.06510(18) -0.01482(14)
H9 H 0.6142 0.0585 -0.0322
C11 C 0.7553(5) 0.03201(19) -0.01709(16)
H10 H 0.7535 0.0035 -0.0357
C12 C 0.8413(5) 0.04121(19) 0.00813(16)
H11 H 0.8971 0.0186 0.0070
C13 C 0.8442(4) 0.08437(16) 0.03528(15)
H12 H 0.9028 0.0910 0.0519
Co1A Co 0.1250 0.52466(3) 0.1250
Co1G Co 0.6250 0.02466(3) 0.1250
N1A N 0.2361(2) 0.48030(12) 0.10082(10)
N1J N 0.7361(2) 0.26970(12) 0.14918(10)
O1M O 0.5664(2) 0.06687(12) 0.07966(10)
O1J O 0.5664(2) 0.18313(12) 0.17034(10)
C1A C 0.2379(3) 0.44008(15) 0.07259(12)
N2A N 0.3349(2) 0.48568(12) 0.11490(10)
H1A H 0.3548 0.5088 0.1333
O3M O 0.3956(2) 0.07146(12) 0.08152(10)
C2A C 0.3372(3) 0.41987(15) 0.06924(12)
C3A C 0.3974(3) 0.45073(15) 0.09670(12)
H2A H 0.4305 0.3869 0.0237
C5A C 0.1402(3) 0.42485(18) 0.04983(16)
H3A H 0.0849 0.4466 0.0597
H4A H 0.1244 0.3893 0.0564
H5A H 0.1486 0.4288 0.0188
C6A C 0.5095(3) 0.44855(19) 0.10694(15)
H6A H 0.5306 0.4807 0.1200
H7A H 0.5476 0.4429 0.0804
H8A H 0.5224 0.4206 0.1270
C7M C 0.4812(3) 0.08692(16) 0.06901(13)
C8M C 0.4889(3) 0.13258(16) 0.03784(13)
C9M C 0.5789(4) 0.14185(15) 0.01283(12)
C10M C 0.5784(4) 0.18490(18) -0.01482(14)
H9M H 0.6358 0.1915 -0.0322
C11M C 0.4947(5) 0.21799(19) -0.01709(16)
H10M H 0.4965 0.2465 -0.0357
C12M C 0.4087(5) 0.20879(19) 0.00813(16)
H11M H 0.3529 0.2314 0.0070
C13M C 0.4058(4) 0.16563(16) 0.03528(15)
H12M H 0.3472 0.1590 0.0519
O2 O 1.0767(3) 0.17360(15) 0.08198(14)
loop_
_geom_bond_atom_site_label_1
_geom_bond_atom_site_label_2
_geom_bond_site_symmetry_1
_geom_bond_site_symmetry_2
Co1 N1 1_555 1_555
N1 C1 1_555 1_555
O1 Co1 1_555 1_555
C1 C2 1_555 1_555
N2 N1 1_555 1_555
H1 N2 1_555 1_555
O3 C7 1_555 1_555
C2 C3 1_555 1_555
C3 N2 1_555 1_555
C4 C2 1_555 1_555
H2 C4 1_555 1_555
C5 C1 1_555 1_555
H3 C5 1_555 1_555
H4 C5 1_555 1_555
H5 C5 1_555 1_555
C6 C3 1_555 1_555
H6 C6 1_555 1_555
H7 C6 1_555 1_555
H8 C6 1_555 1_555
C7 O1 1_555 1_555
C8 C7 1_555 1_555
C9 C8 1_555 1_555
C10 C9 1_555 1_555
H9 C10 1_555 1_555
C11 C10 1_555 1_555
H10 C11 1_555 1_555
C12 C11 1_555 1_555
H11 C12 1_555 1_555
C13 C8 1_555 1_555
H12 C13 1_555 1_555
Co1A N1A 1_555 1_555
Co1G O1M 1_555 1_555
N1A C1A 1_555 1_555
N1J Co1 1_555 1_555
O1M C7M 1_555 1_555
O1J Co1 1_555 1_555
C1A C2A 1_555 1_555
N2A N1A 1_555 1_555
H1A N2A 1_555 1_555
O3M C7M 1_555 1_555
C2A C4 1_555 1_555
C3A N2A 1_555 1_555
H2A C4 1_555 1_555
C5A C1A 1_555 1_555
H3A C5A 1_555 1_555
H4A C5A 1_555 1_555
H5A C5A 1_555 1_555
C6A C3A 1_555 1_555
H6A C6A 1_555 1_555
H7A C6A 1_555 1_555
H8A C6A 1_555 1_555
C7M C8M 1_555 1_555
C8M C9M 1_555 1_555
C9M C9 1_555 1_555
C10M C9M 1_555 1_555
H9M C10M 1_555 1_555
C11M C10M 1_555 1_555
H10M C11M 1_555 1_555
C12M C11M 1_555 1_555
H11M C12M 1_555 1_555
C13M C8M 1_555 1_555
H12M C13M 1_555 1_555
C12 C13 1_555 1_555
C2A C3A 1_555 1_555
C12M C13M 1_555 1_555

#END
