
#######################################################################
#
#                 Cambridge Crystallographic Data Centre
#                                CCDC 
#
#######################################################################
#
# If this CIF has been generated from an entry in the Cambridge 
# Structural Database, then it will include bibliographic, chemical, 
# crystal, experimental, refinement or atomic coordinate data resulting 
# from the CCDC's data processing and validation procedures.
#
#######################################################################

data_XAKPIK
_symmetry_cell_setting           triclinic
_symmetry_space_group_name_H-M   'P -1'
_symmetry_Int_Tables_number      2
_space_group_name_Hall           '-P 1'
loop_
_symmetry_equiv_pos_site_id
_symmetry_equiv_pos_as_xyz
1 x,y,z
2 -x,-y,-z
_cell_length_a                   9.0807(15)
_cell_length_b                   11.3600(16)
_cell_length_c                   13.2607(19)
_cell_angle_alpha                92.714(13)
_cell_angle_beta                 106.281(16)
_cell_angle_gamma                107.242(14)
_cell_volume                     1241.31
loop_
_atom_site_label
_atom_site_type_symbol
_atom_site_fract_x
_atom_site_fract_y
_atom_site_fract_z
Cd1 Cd 0.044489(18) 0.198438(13) 0.672498(11)
O1 O 0.4474(3) -0.19942(19) 0.98036(16)
O2 O -0.6817(3) 0.1804(2) 0.23393(18)
O3 O 0.0771(3) 0.26310(18) 0.84519(15)
O4 O -0.0262(3) 0.37317(19) 0.73287(15)
O5 O 0.3486(3) 0.3158(2) 0.69401(16)
O6 O 0.1481(2) 0.2850(2) 0.54937(16)
N1 N 0.1097(2) 0.02785(17) 0.72338(15)
N2 N 0.2920(3) -0.26349(18) 0.80962(16)
H1 H 0.2593 -0.3238 0.7585
N3 N -0.2085(2) 0.12832(19) 0.54885(16)
N4 N -0.5985(2) 0.0121(2) 0.26807(16)
H2 H -0.6204 -0.0647 0.2438
C1 C 0.2312(3) 0.0440(2) 0.81288(18)
H3 H 0.2745 0.1219 0.8542
C2 C 0.2966(3) -0.0471(2) 0.84806(18)
H4 H 0.3817 -0.0304 0.9109
C3 C 0.2328(3) -0.1646(2) 0.78762(18)
C4 C 0.1051(3) -0.1827(2) 0.6950(2)
H5 H 0.0576 -0.2601 0.6529
C5 C 0.0501(3) -0.0864(2) 0.6664(2)
H6 H -0.0341 -0.1003 0.6034
C6 C 0.3951(3) -0.2767(2) 0.9019(2)
C7 C 0.4400(4) -0.3942(2) 0.8968(2)
H7 H 0.5317 -0.3791 0.8698
H8 H 0.3497 -0.4593 0.8475
C8 C 0.4829(3) -0.4387(2) 1.0041(2)
H9 H 0.3939 -0.4490 1.0333
H10 H 0.5777 -0.3761 1.0523
C9 C -0.2731(3) 0.0109(2) 0.4992(2)
H11 H -0.2282 -0.0479 0.5291
C10 C -0.4004(3) -0.0283(2) 0.4078(2)
H12 H -0.4387 -0.1110 0.3764
C11 C -0.4721(3) 0.0567(2) 0.36229(18)
C12 C -0.4112(3) 0.1789(2) 0.41439(19)
H13 H -0.4574 0.2385 0.3882
C13 C -0.2809(3) 0.2089(2) 0.50560(19)
H14 H -0.2405 0.2906 0.5394
C14 C -0.6933(3) 0.0736(2) 0.20820(19)
C15 C -0.8130(3) -0.0089(3) 0.1085(2)
H15 H -0.8720 -0.0859 0.1281
H16 H -0.7532 -0.0297 0.0640
C16 C -0.9341(3) 0.0475(2) 0.0441(2)
H17 H -0.8782 0.1163 0.0137
H18 H -0.9831 0.0801 0.0905
C17 C 0.0209(3) 0.3498(2) 0.8257(2)
C18 C 0.0101(3) 0.4285(2) 0.9160(2)
C19 C -0.0416(4) 0.5304(3) 0.8983(2)
H19 H -0.0698 0.5511 0.8301
C20 C 0.0516(4) 0.3979(2) 1.0174(2)
H20 H 0.0863 0.3291 1.0294
C21 C 0.2947(3) 0.3340(2) 0.60180(19)
C22 C 0.4022(3) 0.4192(2) 0.54846(19)
C23 C 0.5585(4) 0.4880(4) 0.6045(3)
H21 H 0.6000 0.4809 0.6756
C24 C 0.3451(4) 0.4319(4) 0.4443(3)
H22 H 0.2391 0.3858 0.4053
Cd1A Cd -0.044489(18) 0.801562(13) 1.327502(11)
Cd1A_2 Cd 0.955511(18) -1.198438(13) 1.327502(11)
Cd1A_3 Cd -2.044489(18) -0.198438(13) -0.672498(11)
Cd1A_4 Cd 0.955511(18) 0.801562(13) 0.327502(11)
O1A O 0.5526(3) -0.80058(19) 1.01964(16)
O2A O -1.3183(3) -0.1804(2) -0.23393(18)
O3A O -0.0771(3) 0.73690(18) 1.15481(15)
O4A O 0.0262(3) 0.62683(19) 1.26713(15)
O5A O 0.6514(3) 0.6842(2) 0.30599(16)
O5A_2 O -0.3486(3) 0.6842(2) 1.30599(16)
O6A O 0.8519(2) 0.7150(2) 0.45063(16)
O6A_2 O -0.1481(2) 0.7150(2) 1.45063(16)
N1A N 0.8903(2) -1.02785(17) 1.27662(15)
N1A_2 N -0.1097(2) 0.97215(17) 1.27662(15)
N2A N 0.7080(3) -0.73651(18) 1.19038(16)
H1A H 0.7407 -0.6762 1.2415
N3A N -1.7915(2) -0.12832(19) -0.54885(16)
N3A_2 N 0.2085(2) 0.87168(19) 1.45115(16)
N4A N -1.4015(2) -0.0121(2) -0.26807(16)
H2A H -1.3796 0.0647 -0.2438
C1A C 0.7688(3) -1.0440(2) 1.18712(18)
H3A H 0.7255 -1.1219 1.1458
C2A C 0.7034(3) -0.9529(2) 1.15194(18)
H4A H 0.6183 -0.9696 1.0891
C3A C 0.7672(3) -0.8354(2) 1.21238(18)
C4A C 0.8949(3) -0.8173(2) 1.3050(2)
H5A H 0.9424 -0.7399 1.3471
C5A C 0.9499(3) -0.9136(2) 1.3336(2)
H6A H 1.0341 -0.8997 1.3966
C6A C 0.6049(3) -0.7233(2) 1.0981(2)
C7A C 0.5600(4) -0.6058(2) 1.1032(2)
H7A H 0.4683 -0.6209 1.1302
H8A H 0.6503 -0.5407 1.1525
C8A C 0.5171(3) -0.5613(2) 0.9959(2)
H9A H 0.6061 -0.5510 0.9667
H10A H 0.4223 -0.6239 0.9477
C9A C -1.7269(3) -0.0109(2) -0.4992(2)
H11A H -1.7718 0.0479 -0.5291
C10A C -1.5996(3) 0.0283(2) -0.4078(2)
H12A H -1.5613 0.1110 -0.3764
C11A C -1.5279(3) -0.0567(2) -0.36229(18)
C12A C -1.5888(3) -0.1789(2) -0.41439(19)
H13A H -1.5426 -0.2385 -0.3882
C13A C -1.7191(3) -0.2089(2) -0.50560(19)
H14A H -1.7595 -0.2906 -0.5394
C14A C -1.3067(3) -0.0736(2) -0.20820(19)
C15A C -1.1870(3) 0.0089(3) -0.1085(2)
H15A H -1.1280 0.0859 -0.1281
H16A H -1.2468 0.0297 -0.0640
C16A C -1.0659(3) -0.0475(2) -0.0441(2)
H17A H -1.1218 -0.1163 -0.0137
H18A H -1.0169 -0.0801 -0.0905
C17A C -0.0209(3) 0.6502(2) 1.1743(2)
C18A C -0.0101(3) 0.5715(2) 1.0840(2)
C19A C 0.0416(4) 0.4696(3) 1.1017(2)
H19A H 0.0698 0.4489 1.1699
C20A C -0.0516(4) 0.6021(2) 0.9826(2)
H20A H -0.0863 0.6709 0.9706
C21A C 0.7053(3) 0.6660(2) 0.39820(19)
C22A C 0.5978(3) 0.5808(2) 0.45154(19)
C23A C 0.4415(4) 0.5120(4) 0.3955(3)
H21A H 0.4000 0.5191 0.3244
C24A C 0.6549(4) 0.5681(4) 0.5557(3)
H22A H 0.7609 0.6142 0.5947
O7 O -0.6150(3) -0.2357(2) 0.18626(19)
H23 H -0.6060 -0.2320 0.1243
H24 H -0.5512 -0.2724 0.2198
O8 O 0.1101(4) -0.4564(2) 0.6216(2)
H25 H 0.060(5) -0.515(4) 0.663(4)
H26 H 0.075(6) -0.491(4) 0.569(3)
loop_
_geom_bond_atom_site_label_1
_geom_bond_atom_site_label_2
_geom_bond_site_symmetry_1
_geom_bond_site_symmetry_2
Cd1 O3 1_555 1_555
O1 C6 1_555 1_555
O2 C14 1_555 1_555
O3 C17 1_555 1_555
O4 Cd1 1_555 1_555
O5 Cd1 1_555 1_555
O6 Cd1 1_555 1_555
N1 Cd1 1_555 1_555
N2 H1 1_555 1_555
N3 Cd1 1_555 1_555
N4 H2 1_555 1_555
C1 N1 1_555 1_555
H3 C1 1_555 1_555
C2 C1 1_555 1_555
H4 C2 1_555 1_555
C3 N2 1_555 1_555
C4 C3 1_555 1_555
H5 C4 1_555 1_555
C5 N1 1_555 1_555
H6 C5 1_555 1_555
C6 N2 1_555 1_555
C7 C6 1_555 1_555
H7 C7 1_555 1_555
H8 C7 1_555 1_555
C8 C7 1_555 1_555
H9 C8 1_555 1_555
H10 C8 1_555 1_555
C9 N3 1_555 1_555
H11 C9 1_555 1_555
C10 C9 1_555 1_555
H12 C10 1_555 1_555
C11 N4 1_555 1_555
C12 C11 1_555 1_555
H13 C12 1_555 1_555
C13 N3 1_555 1_555
H14 C13 1_555 1_555
C14 N4 1_555 1_555
C15 C14 1_555 1_555
H15 C15 1_555 1_555
H16 C15 1_555 1_555
C16 C15 1_555 1_555
H17 C16 1_555 1_555
H18 C16 1_555 1_555
C17 O4 1_555 1_555
C18 C17 1_555 1_555
C19 C18 1_555 1_555
H19 C19 1_555 1_555
C20 C18 1_555 1_555
H20 C20 1_555 1_555
C21 O5 1_555 1_555
C22 C21 1_555 1_555
C23 C22 1_555 1_555
H21 C23 1_555 1_555
C24 C22 1_555 1_555
H22 C24 1_555 1_555
O7 H23 1_555 1_555
H24 O7 1_555 1_555
O8 H25 1_555 1_555
H26 O8 1_555 1_555
Cd1A O3A 1_555 1_555
Cd1A_2 N1A 1_555 1_555
Cd1A_3 N3A 1_555 1_555
Cd1A_4 O5A 1_555 1_555
O1A C6A 1_555 1_555
O2A C14A 1_555 1_555
O3A C17A 1_555 1_555
O4A Cd1A 1_555 1_555
O5A C21A 1_555 1_555
O5A_2 Cd1A 1_555 1_555
O6A Cd1A_4 1_555 1_555
O6A_2 Cd1A 1_555 1_555
N1A C1A 1_555 1_555
N1A_2 Cd1A 1_555 1_555
N2A H1A 1_555 1_555
N3A C9A 1_555 1_555
N3A_2 Cd1A 1_555 1_555
N4A H2A 1_555 1_555
C1A H3A 1_555 1_555
C2A C1A 1_555 1_555
H4A C2A 1_555 1_555
C3A N2A 1_555 1_555
C4A C3A 1_555 1_555
H5A C4A 1_555 1_555
C5A N1A 1_555 1_555
H6A C5A 1_555 1_555
C6A N2A 1_555 1_555
C7A C6A 1_555 1_555
H7A C7A 1_555 1_555
H8A C7A 1_555 1_555
C8A C8 1_555 1_555
H9A C8A 1_555 1_555
H10A C8A 1_555 1_555
C9A H11A 1_555 1_555
C10A C9A 1_555 1_555
H12A C10A 1_555 1_555
C11A N4A 1_555 1_555
C12A C11A 1_555 1_555
H13A C12A 1_555 1_555
C13A N3A 1_555 1_555
H14A C13A 1_555 1_555
C14A N4A 1_555 1_555
C15A C14A 1_555 1_555
H15A C15A 1_555 1_555
H16A C15A 1_555 1_555
C16A C16 1_555 1_555
H17A C16A 1_555 1_555
H18A C16A 1_555 1_555
C17A O4A 1_555 1_555
C18A C17A 1_555 1_555
C19A C20 1_555 1_555
H19A C19A 1_555 1_555
C20A C19 1_555 1_555
H20A C20A 1_555 1_555
C21A O6A 1_555 1_555
C22A C21A 1_555 1_555
C23A C24 1_555 1_555
H21A C23A 1_555 1_555
C24A C23 1_555 1_555
H22A C24A 1_555 1_555
O6 C21 1_555 1_555
C2 C3 1_555 1_555
C4 C5 1_555 1_555
C10 C11 1_555 1_555
C12 C13 1_555 1_555
C2A C3A 1_555 1_555
C4A C5A 1_555 1_555
C7A C8A 1_555 1_555
C10A C11A 1_555 1_555
C12A C13A 1_555 1_555
C15A C16A 1_555 1_555
C18A C19A 1_555 1_555
C18A C20A 1_555 1_555
C22A C23A 1_555 1_555
C22A C24A 1_555 1_555

#END
