
#######################################################################
#
#                 Cambridge Crystallographic Data Centre
#                                CCDC 
#
#######################################################################
#
# If this CIF has been generated from an entry in the Cambridge 
# Structural Database, then it will include bibliographic, chemical, 
# crystal, experimental, refinement or atomic coordinate data resulting 
# from the CCDC's data processing and validation procedures.
#
#######################################################################

data_XAKREI
_symmetry_cell_setting           monoclinic
_symmetry_space_group_name_H-M   'C 2/c'
_symmetry_Int_Tables_number      15
_space_group_name_Hall           '-C 2yn'
loop_
_symmetry_equiv_pos_site_id
_symmetry_equiv_pos_as_xyz
1 x,y,z
2 -x,y,1/2-z
3 1/2+x,1/2+y,z
4 1/2-x,1/2+y,1/2-z
5 -x,-y,-z
6 x,-y,1/2+z
7 1/2-x,1/2-y,-z
8 1/2+x,1/2-y,1/2+z
_cell_length_a                   24.573(5)
_cell_length_b                   9.3013(17)
_cell_length_c                   21.788(4)
_cell_angle_alpha                90
_cell_angle_beta                 110.754(7)
_cell_angle_gamma                90
_cell_volume                     4656.74
loop_
_atom_site_label
_atom_site_type_symbol
_atom_site_fract_x
_atom_site_fract_y
_atom_site_fract_z
Cu1 Cu 0.162948(11) 0.30295(3) 0.028807(12)
O1 O 0.22173(7) 0.33332(15) 0.11702(8)
N1 N 0.14457(8) 0.51087(18) 0.02120(8)
C1 C 0.10779(9) 0.5965(2) -0.02403(10)
N2 N 0.16405(8) 0.59008(18) 0.07705(9)
H1 H 0.1880 0.5588 0.1138
C2 C 0.10430(9) 0.7307(2) 0.00379(11)
O2 O 0.20512(8) 0.1746(2) 0.18359(10)
C3 C 0.14133(9) 0.7240(2) 0.06802(11)
N3 N -0.08531(8) 0.7692(2) -0.04739(9)
O3 O 0.35073(8) 0.25211(18) 0.06559(8)
C4 C -0.02900(9) 0.7873(2) -0.01138(11)
N4 N -0.08978(8) 0.7938(2) -0.11003(10)
H2 H -0.1218 0.7880 -0.1432
O4 O 0.30807(9) 0.39289(18) -0.01604(8)
C5 C 0.00258(9) 0.8251(2) -0.05170(11)
C6 C -0.03794(10) 0.8286(2) -0.11427(12)
C7 C 0.06660(9) 0.8557(2) -0.03040(12)
H3 H 0.0756 0.9377 -0.0010
H4 H 0.0760 0.8814 -0.0686
C8 C 0.07830(12) 0.5510(3) -0.09362(12)
H5 H 0.0945 0.4614 -0.1009
H6 H 0.0841 0.6229 -0.1223
H7 H 0.0374 0.5393 -0.1025
C9 C 0.15783(12) 0.8334(3) 0.12157(13)
H8 H 0.1897 0.7979 0.1584
H9 H 0.1252 0.8520 0.1348
H10 H 0.1692 0.9208 0.1060
C10 C -0.00698(11) 0.7715(3) 0.06173(12)
H11 H -0.0393 0.7699 0.0767
H12 H 0.0179 0.8512 0.0814
H13 H 0.0145 0.6834 0.0739
C11 C -0.03191(12) 0.8615(4) -0.17882(14)
H14 H -0.0442 0.7798 -0.2073
H15 H 0.0080 0.8827 -0.1720
H16 H -0.0557 0.9429 -0.1985
C12 C 0.30264(9) 0.2183(2) 0.19619(10)
C13 C 0.32051(11) 0.0948(2) 0.23461(11)
H17 H 0.2926 0.0331 0.2397
C14 C 0.37900(12) 0.0625(3) 0.26522(14)
H18 H 0.3904 -0.0204 0.2903
C15 C 0.41988(12) 0.1546(3) 0.25796(14)
H19 H 0.4592 0.1338 0.2784
C16 C 0.40327(10) 0.2772(3) 0.22080(12)
H20 H 0.4317 0.3384 0.2166
C17 C 0.34461(9) 0.3120(2) 0.18925(10)
C18 C 0.32936(9) 0.4561(2) 0.15632(10)
C19 C 0.32286(10) 0.5684(2) 0.19504(12)
H21 H 0.3275 0.5508 0.2386
C20 C 0.30954(11) 0.7063(3) 0.17004(15)
H22 H 0.3063 0.7804 0.1972
C21 C 0.30117(11) 0.7341(2) 0.10529(15)
H23 H 0.2922 0.8265 0.0884
C22 C 0.30624(10) 0.6230(2) 0.06582(12)
H24 H 0.2996 0.6409 0.0218
C23 C 0.32107(9) 0.4842(2) 0.09053(11)
C24 C 0.23822(9) 0.2436(2) 0.16365(11)
C25 C 0.32651(9) 0.3708(2) 0.04524(11)
Cu1D Cu -0.162948(11) 0.69705(3) -0.028807(12)
Cu1F Cu 0.337052(11) 0.19705(3) -0.028807(12)
N3D N 0.08531(8) 0.2308(2) 0.04739(9)
O3F O 0.14927(8) 0.24789(18) -0.06559(8)
O4F O 0.19193(9) 0.10711(18) 0.01604(8)
loop_
_geom_bond_atom_site_label_1
_geom_bond_atom_site_label_2
_geom_bond_site_symmetry_1
_geom_bond_site_symmetry_2
Cu1 O1 1_555 1_555
O1 C24 1_555 1_555
N1 Cu1 1_555 1_555
C1 N1 1_555 1_555
N2 N1 1_555 1_555
H1 N2 1_555 1_555
C2 C1 1_555 1_555
O2 C24 1_555 1_555
C3 N2 1_555 1_555
N3 C4 1_555 1_555
O3 C25 1_555 1_555
C4 C5 1_555 1_555
N4 N3 1_555 1_555
H2 N4 1_555 1_555
O4 C25 1_555 1_555
C5 C6 1_555 1_555
C6 N4 1_555 1_555
C7 C2 1_555 1_555
H3 C7 1_555 1_555
H4 C7 1_555 1_555
C8 C1 1_555 1_555
H5 C8 1_555 1_555
H6 C8 1_555 1_555
H7 C8 1_555 1_555
C9 C3 1_555 1_555
H8 C9 1_555 1_555
H9 C9 1_555 1_555
H10 C9 1_555 1_555
C10 C4 1_555 1_555
H11 C10 1_555 1_555
H12 C10 1_555 1_555
H13 C10 1_555 1_555
C11 C6 1_555 1_555
H14 C11 1_555 1_555
H15 C11 1_555 1_555
H16 C11 1_555 1_555
C12 C13 1_555 1_555
C13 H17 1_555 1_555
C14 C13 1_555 1_555
H18 C14 1_555 1_555
C15 C14 1_555 1_555
H19 C15 1_555 1_555
C16 C15 1_555 1_555
H20 C16 1_555 1_555
C17 C12 1_555 1_555
C18 C17 1_555 1_555
C19 C18 1_555 1_555
H21 C19 1_555 1_555
C20 C19 1_555 1_555
H22 C20 1_555 1_555
C21 C20 1_555 1_555
H23 C21 1_555 1_555
C22 C21 1_555 1_555
H24 C22 1_555 1_555
C23 C18 1_555 1_555
C24 C12 1_555 1_555
C25 C23 1_555 1_555
Cu1D N3 1_555 1_555
Cu1F O3 1_555 1_555
N3D Cu1 1_555 1_555
O3F Cu1 1_555 1_555
O4F Cu1 1_555 1_555
C2 C3 1_555 1_555
O4 Cu1F 1_555 1_555
C5 C7 1_555 1_555
C16 C17 1_555 1_555
C22 C23 1_555 1_555

#END
