
#######################################################################
#
#                 Cambridge Crystallographic Data Centre
#                                CCDC 
#
#######################################################################
#
# If this CIF has been generated from an entry in the Cambridge 
# Structural Database, then it will include bibliographic, chemical, 
# crystal, experimental, refinement or atomic coordinate data resulting 
# from the CCDC's data processing and validation procedures.
#
#######################################################################

data_XAKRUY
_symmetry_cell_setting           monoclinic
_symmetry_space_group_name_H-M   'C c'
_symmetry_Int_Tables_number      9
_space_group_name_Hall           'C -2yc'
loop_
_symmetry_equiv_pos_site_id
_symmetry_equiv_pos_as_xyz
1 x,y,z
2 x,-y,1/2+z
3 1/2+x,1/2+y,z
4 1/2+x,1/2-y,1/2+z
_cell_length_a                   14.5188(14)
_cell_length_b                   7.0134(5)
_cell_length_c                   7.3808(9)
_cell_angle_alpha                90
_cell_angle_beta                 110.8030(10)
_cell_angle_gamma                90
_cell_volume                     702.562
loop_
_atom_site_label
_atom_site_type_symbol
_atom_site_fract_x
_atom_site_fract_y
_atom_site_fract_z
Cd1 Cd 0.08891(8) 0.86513(8) 0.17631(10)
N1 N 0.4015(6) 0.8545(10) 0.0377(12)
N2 N 0.4183(5) 1.0337(12) 0.0912(13)
N3 N 0.5007(6) 1.0793(14) 0.0735(13)
N4 N 0.5392(6) 0.9277(12) 0.0094(11)
O1 O 0.1456(5) 0.7754(11) -0.0643(10)
O2 O 0.2206(5) 0.9381(11) -0.2264(11)
O3 O 0.2013(6) 0.6756(12) 0.4129(13)
H1 H 0.1869 0.5607 0.4280
H2 H 0.2055 0.7381 0.5141
S1 S 0.47845(18) 0.5701(4) -0.1135(3)
C1 C 0.2201(7) 0.8322(16) -0.0914(17)
C2 C 0.3162(7) 0.7573(14) 0.0461(15)
H3 H 0.3159 0.7666 0.1771
H4 H 0.3213 0.6233 0.0185
C3 C 0.4751(6) 0.7905(14) -0.0156(13)
Cd1B Cd 0.58891(8) 1.36513(8) 0.17631(10)
Cd1A Cd 0.08891(8) 1.13487(8) -0.32369(10)
Cd1B_2 Cd 0.58891(8) 0.36513(8) 0.17631(10)
Cd1C Cd 0.58891(8) 0.63487(8) -0.32369(10)
N3B N 0.0007(6) 0.5793(14) 0.0735(13)
O2A O 0.2206(5) 1.0619(11) 0.2736(11)
S1B S -0.02155(18) 1.0701(4) -0.1135(3)
S1C S -0.02155(18) 0.9299(4) 0.3865(3)
loop_
_geom_bond_atom_site_label_1
_geom_bond_atom_site_label_2
_geom_bond_site_symmetry_1
_geom_bond_site_symmetry_2
Cd1 O1 1_555 1_555
N1 N2 1_555 1_555
N2 N3 1_555 1_555
N3 N4 1_555 1_555
N4 C3 1_555 1_555
O1 C1 1_555 1_555
O2 C1 1_555 1_555
O3 Cd1 1_555 1_555
H1 O3 1_555 1_555
H2 O3 1_555 1_555
S1 C3 1_555 1_555
C1 C2 1_555 1_555
C2 N1 1_555 1_555
H3 C2 1_555 1_555
H4 C2 1_555 1_555
C3 N1 1_555 1_555
Cd1B N3 1_555 1_555
Cd1A O2 1_555 1_555
Cd1B_2 S1 1_555 1_555
Cd1C S1 1_555 1_555
N3B Cd1 1_555 1_555
O2A Cd1 1_555 1_555
S1B Cd1 1_555 1_555
S1C Cd1 1_555 1_555
Cd1A S1B 1_555 1_555

#END
