
#######################################################################
#
#                 Cambridge Crystallographic Data Centre
#                                CCDC 
#
#######################################################################
#
# If this CIF has been generated from an entry in the Cambridge 
# Structural Database, then it will include bibliographic, chemical, 
# crystal, experimental, refinement or atomic coordinate data resulting 
# from the CCDC's data processing and validation procedures.
#
#######################################################################

data_XAKROS
_symmetry_cell_setting           monoclinic
_symmetry_space_group_name_H-M   'C 2/c'
_symmetry_Int_Tables_number      15
_space_group_name_Hall           '-C 2yn'
loop_
_symmetry_equiv_pos_site_id
_symmetry_equiv_pos_as_xyz
1 x,y,z
2 -x,y,1/2-z
3 1/2+x,1/2+y,z
4 1/2-x,1/2+y,1/2-z
5 -x,-y,-z
6 x,-y,1/2+z
7 1/2-x,1/2-y,-z
8 1/2+x,1/2-y,1/2+z
_cell_length_a                   27.913(3)
_cell_length_b                   7.0475(9)
_cell_length_c                   7.4912(12)
_cell_angle_alpha                90
_cell_angle_beta                 104.656(2)
_cell_angle_gamma                90
_cell_volume                     1425.7
loop_
_atom_site_label
_atom_site_type_symbol
_atom_site_fract_x
_atom_site_fract_y
_atom_site_fract_z
Co1 Co 0.2500 0.2500 0.5000
N1 N 0.1131(2) 0.1896(10) 0.7689(9)
N2 N 0.1042(3) 0.3810(10) 0.7519(11)
N3 N 0.0603(3) 0.4035(11) 0.6460(12)
N4 N 0.0413(3) 0.2276(10) 0.6019(11)
H1 H 0.0118 0.2067 0.5349
O1 O 0.1993(2) 0.2174(8) 0.6606(7)
O2 O 0.2386(2) 0.0208(8) 0.8793(8)
O3 O 0.3080(2) 0.1412(8) 0.7085(7)
H2 H 0.3308 0.0975 0.6634
H3 H 0.2976 0.0528 0.7663
S1 S 0.06800(8) -0.1450(3) 0.6609(3)
C1 C 0.2020(3) 0.1187(10) 0.7993(10)
C2 C 0.1582(3) 0.1167(11) 0.8864(11)
H4 H 0.1526 -0.0128 0.9202
H5 H 0.1667 0.1913 0.9988
C3 C 0.0735(3) 0.0897(12) 0.6746(10)
Co1C Co 0.2500 -0.2500 1.0000
Co1C_2 Co 0.2500 0.7500 0.0000
N1F N 0.3869(2) 0.3104(10) 0.2311(9)
N2F N 0.3958(3) 0.1190(10) 0.2481(11)
N3F N 0.4397(3) 0.0965(11) 0.3540(12)
N4F N 0.4587(3) 0.2724(10) 0.3981(11)
H1F H 0.4882 0.2933 0.4651
O1F O 0.3007(2) 0.2826(8) 0.3394(7)
O2F O 0.2614(2) 0.4792(8) 0.1207(8)
O2C O 0.2614(2) 0.5208(8) 0.6207(8)
O2E O 0.2386(2) -0.0208(8) 0.3793(8)
O3F O 0.1920(2) 0.3588(8) 0.2915(7)
H2F H 0.1692 0.4025 0.3366
H3F H 0.2024 0.4472 0.2337
S1F S 0.43200(8) 0.6450(3) 0.3391(3)
C1F C 0.2980(3) 0.3813(10) 0.2007(10)
C2F C 0.3418(3) 0.3833(11) 0.1136(11)
H4F H 0.3474 0.5128 0.0798
H5F H 0.3333 0.3087 0.0012
C3F C 0.4265(3) 0.4103(12) 0.3254(10)
loop_
_geom_bond_atom_site_label_1
_geom_bond_atom_site_label_2
_geom_bond_site_symmetry_1
_geom_bond_site_symmetry_2
Co1 O1 1_555 1_555
N1 N2 1_555 1_555
N2 N3 1_555 1_555
N3 N4 1_555 1_555
N4 H1 1_555 1_555
O1 C1 1_555 1_555
O2 C1 1_555 1_555
O3 Co1 1_555 1_555
H2 O3 1_555 1_555
H3 O3 1_555 1_555
S1 C3 1_555 1_555
C1 C2 1_555 1_555
C2 N1 1_555 1_555
H4 C2 1_555 1_555
H5 C2 1_555 1_555
C3 N1 1_555 1_555
Co1C O2 1_555 1_555
Co1C_2 O2F 1_555 1_555
N1F N2F 1_555 1_555
N2F N3F 1_555 1_555
N3F N4F 1_555 1_555
N4F H1F 1_555 1_555
O1F Co1 1_555 1_555
O2F C1F 1_555 1_555
O2C Co1 1_555 1_555
O2E Co1 1_555 1_555
O3F Co1 1_555 1_555
H2F O3F 1_555 1_555
H3F O3F 1_555 1_555
S1F C3F 1_555 1_555
C1F O1F 1_555 1_555
C2F N1F 1_555 1_555
H4F C2F 1_555 1_555
H5F C2F 1_555 1_555
C3F N1F 1_555 1_555
N4 C3 1_555 1_555
N4F C3F 1_555 1_555
C1F C2F 1_555 1_555

#END
