
#######################################################################
#
#                 Cambridge Crystallographic Data Centre
#                                CCDC 
#
#######################################################################
#
# If this CIF has been generated from an entry in the Cambridge 
# Structural Database, then it will include bibliographic, chemical, 
# crystal, experimental, refinement or atomic coordinate data resulting 
# from the CCDC's data processing and validation procedures.
#
#######################################################################

data_XAKVOV
_symmetry_cell_setting           tetragonal
_symmetry_space_group_name_H-M   'P 42/n b c'
_symmetry_Int_Tables_number      133
_space_group_name_Hall           '-P 4ac 2b'
loop_
_symmetry_equiv_pos_site_id
_symmetry_equiv_pos_as_xyz
1 x,y,z
2 y,x,1/2-z
3 y,1/2-x,1/2+z
4 1/2-y,x,1/2+z
5 1/2-x,1/2-y,z
6 x,1/2-y,-z
7 1/2-x,y,-z
8 1/2-y,1/2-x,1/2-z
9 -x,-y,-z
10 -y,-x,1/2+z
11 -y,1/2+x,1/2-z
12 1/2+y,-x,1/2-z
13 1/2+x,1/2+y,-z
14 -x,1/2+y,z
15 1/2+x,-y,z
16 1/2+y,1/2+x,1/2+z
_cell_length_a                   11.7030(4)
_cell_length_b                   11.7030(4)
_cell_length_c                   13.2570(2)
_cell_angle_alpha                90
_cell_angle_beta                 90
_cell_angle_gamma                90
_cell_volume                     1815.68
loop_
_atom_site_label
_atom_site_type_symbol
_atom_site_fract_x
_atom_site_fract_y
_atom_site_fract_z
Ce1 Ce 0.2500 -0.7500 0.2500
Ce2 Ce 0.2500 -0.2500 0.0000
O1 O 0.36425(18) -0.75429(17) -0.08420(13)
O2 O 0.08155(18) -0.33833(17) 0.08507(15)
H1 H 0.0145 -0.3169 0.0929
O3 O 0.2901(2) -0.4029(2) 0.11872(18)
O4 O 0.24180(18) -0.5525(2) 0.21001(17)
C1 C 0.3161 -0.7500(3) 0.0000
C2 C 0.0921(3) -0.4369(3) 0.1461(3)
H2 H 0.0777 -0.4227 0.2166
H3 H 0.0725 -0.5076 0.1274
C3 C 0.2169(2) -0.4662(3) 0.1585(2)
Ce1B Ce 0.2500 -0.7500 -0.2500
Ce2A Ce 0.7500 -0.7500 0.5000
Ce2_2 Ce 0.2500 -1.2500 0.0000
Ce2A_2 Ce -0.2500 -0.7500 0.5000
O1E O 0.36425(18) -0.74571(17) 0.08420(13)
O1C O 0.25429(17) -0.63575(18) 0.41580(13)
O1F O 0.13575(18) -0.75429(17) 0.08420(13)
O1B O 0.24571(17) -0.86425(18) 0.41580(13)
O1D O 0.13575(18) -0.74571(17) -0.08420(13)
O2D O 0.41845(18) -0.16167(17) 0.08507(15)
O2F O 0.41845(18) -0.33833(17) -0.08507(15)
O2E O 0.08155(18) -0.16167(17) -0.08507(15)
O2A O 0.66167(17) -0.91845(18) 0.41493(15)
O2D_2 O 0.41845(18) -1.16167(17) 0.08507(15)
O2G O -0.16167(17) -0.58155(18) 0.41493(15)
H1D H 0.4855 -0.1831 0.0929
H1F H 0.4855 -0.3169 -0.0929
H1E H 0.0145 -0.1831 -0.0929
H1A H 0.6831 -0.9855 0.4071
H1D_2 H 0.4855 -1.1831 0.0929
H1G H -0.1831 -0.5145 0.4071
O3D O 0.2099(2) -0.0971(2) 0.11872(18)
O3F O 0.2099(2) -0.4029(2) -0.11872(18)
O3E O 0.2901(2) -0.0971(2) -0.11872(18)
O3A O 0.5971(2) -0.7099(2) 0.38128(18)
O3D_2 O 0.2099(2) -1.0971(2) 0.11872(18)
O3G O -0.0971(2) -0.7901(2) 0.38128(18)
O4A O 0.4475(2) -0.75820(18) 0.28999(17)
O4D O 0.25820(18) -0.9475(2) 0.21001(17)
O4G O 0.0525(2) -0.74180(18) 0.28999(17)
C1D C 0.1839 -0.7500(3) 0.0000
C2A C 0.5631(3) -0.9079(3) 0.3539(3)
C2D C 0.4079(3) -1.0631(3) 0.1461(3)
C2G C -0.0631(3) -0.5921(3) 0.3539(3)
H2A H 0.5773 -0.9223 0.2834
H2D H 0.4223 -1.0773 0.2166
H2G H -0.0773 -0.5777 0.2834
H3A H 0.4924 -0.9275 0.3726
H3D H 0.4275 -0.9924 0.1274
H3G H 0.0076 -0.5725 0.3726
C3A C 0.5338(3) -0.7831(2) 0.3415(2)
C3D C 0.2831(2) -1.0338(3) 0.1585(2)
C3G C -0.0338(3) -0.7169(2) 0.3415(2)
loop_
_geom_bond_atom_site_label_1
_geom_bond_atom_site_label_2
_geom_bond_site_symmetry_1
_geom_bond_site_symmetry_2
Ce1 O4 1_555 1_555
Ce2 O2 1_555 1_555
O1 C1 1_555 1_555
O2 H1 1_555 1_555
O3 Ce2 1_555 1_555
O4 C3 1_555 1_555
C1 O1E 1_555 1_555
C2 O2 1_555 1_555
H2 C2 1_555 1_555
H3 C2 1_555 1_555
C3 O3 1_555 1_555
Ce1B O1 1_555 1_555
Ce2A O2A 1_555 1_555
Ce2_2 O2D_2 1_555 1_555
Ce2A_2 O2G 1_555 1_555
O1E Ce1 1_555 1_555
O1C Ce1 1_555 1_555
O1F Ce1 1_555 1_555
O1B Ce1 1_555 1_555
O1D Ce1B 1_555 1_555
O2D Ce2 1_555 1_555
O2F Ce2 1_555 1_555
O2E Ce2 1_555 1_555
O2A H1A 1_555 1_555
O2D_2 H1D_2 1_555 1_555
O2G H1G 1_555 1_555
H1D O2D 1_555 1_555
H1F O2F 1_555 1_555
H1E O2E 1_555 1_555
O3D Ce2 1_555 1_555
O3F Ce2 1_555 1_555
O3E Ce2 1_555 1_555
O3A Ce2A 1_555 1_555
O3D_2 Ce2_2 1_555 1_555
O3G Ce2A_2 1_555 1_555
O4A Ce1 1_555 1_555
O4D Ce1 1_555 1_555
O4G Ce1 1_555 1_555
C1D C1 1_555 1_555
C2A O2A 1_555 1_555
C2D O2D_2 1_555 1_555
C2G O2G 1_555 1_555
H2A C2A 1_555 1_555
H2D C2D 1_555 1_555
H2G C2G 1_555 1_555
H3A C2A 1_555 1_555
H3D C2D 1_555 1_555
H3G C2G 1_555 1_555
C3A O3A 1_555 1_555
C3D O3D_2 1_555 1_555
C3G O3G 1_555 1_555
C2 C3 1_555 1_555
O1F C1D 1_555 1_555
O1D C1D 1_555 1_555
O4A C3A 1_555 1_555
O4D C3D 1_555 1_555
O4G C3G 1_555 1_555
C2A C3A 1_555 1_555
C2D C3D 1_555 1_555
C2G C3G 1_555 1_555

#END
