
#######################################################################
#
#                 Cambridge Crystallographic Data Centre
#                                CCDC 
#
#######################################################################
#
# If this CIF has been generated from an entry in the Cambridge 
# Structural Database, then it will include bibliographic, chemical, 
# crystal, experimental, refinement or atomic coordinate data resulting 
# from the CCDC's data processing and validation procedures.
#
#######################################################################

data_XAKVUC
_symmetry_cell_setting           monoclinic
_symmetry_space_group_name_H-M   'P 21/c'
_symmetry_Int_Tables_number      14
_space_group_name_Hall           '-P 2ybc'
loop_
_symmetry_equiv_pos_site_id
_symmetry_equiv_pos_as_xyz
1 x,y,z
2 -x,1/2+y,1/2-z
3 -x,-y,-z
4 x,1/2-y,1/2+z
_cell_length_a                   10.04650(10)
_cell_length_b                   14.5139(2)
_cell_length_c                   12.6256(2)
_cell_angle_alpha                90
_cell_angle_beta                 113.0800(10)
_cell_angle_gamma                90
_cell_volume                     1693.63
loop_
_atom_site_label
_atom_site_type_symbol
_atom_site_fract_x
_atom_site_fract_y
_atom_site_fract_z
Mo1 Mo 0.21925(4) 0.21999(3) 0.63680(3)
O1 O 0.0960(3) 0.2062(2) 0.7211(3)
O2 O 0.3116(3) 0.3022(2) 0.5579(3)
O3 O 0.1211(3) 0.1536(2) 0.5221(3)
O4 O 0.3772(3) 0.1600(2) 0.7112(3)
O5 O -0.3292(3) 0.1212(2) 0.7683(3)
H1 H -0.4167 0.1359 0.7475
N1 N 0.0721(4) 0.3377(3) 0.5607(3)
N2 N 0.1204(4) 0.4031(3) 0.5019(3)
N3 N 0.6757(4) 0.6654(3) 0.2181(3)
C1 C -0.0495(4) 0.2162(3) 0.6865(4)
C2 C -0.1274(4) 0.2812(3) 0.6020(4)
C3 C -0.2779(4) 0.2877(3) 0.5710(4)
H3 H -0.3324 0.3296 0.5121
C4 C -0.3483(4) 0.2350(3) 0.6237(4)
H4 H -0.4498 0.2406 0.6018
C5 C -0.2679(4) 0.1727(3) 0.7103(4)
C6 C -0.1187(4) 0.1629(3) 0.7403(4)
H5 H -0.0652 0.1196 0.7976
C7 C -0.0616(4) 0.3435(3) 0.5481(4)
H6 H -0.1194 0.3912 0.5008
C8 C 0.2445(4) 0.3769(3) 0.5044(4)
C9 C 0.3197(4) 0.4322(3) 0.4458(4)
H7 H 0.2543 0.4815 0.4002
H8 H 0.3430 0.3921 0.3919
C10 C 0.4585(4) 0.4753(3) 0.5310(4)
H9 H 0.5205 0.4266 0.5813
H10 H 0.4346 0.5198 0.5803
C11 C 0.7471(5) 0.6194(3) 0.1651(4)
H11 H 0.8473 0.6316 0.1873
C12 C 0.6825(5) 0.5549(3) 0.0796(4)
H12 H 0.7380 0.5246 0.0441
C13 C 0.5374(4) 0.5344(3) 0.0458(4)
C14 C 0.5363(5) 0.4184(4) -0.1013(4)
H13 H 0.6362 0.4302 -0.0815
C15 C 0.4659(5) 0.3547(4) -0.1849(4)
H14 H 0.5196 0.3233 -0.2212
Mo1B Mo 0.78075(4) 0.78001(3) 0.36320(3)
Mo1_2 Mo 0.21925(4) 0.21999(3) -0.36320(3)
O1B O 0.9040(3) 0.7938(2) 0.2789(3)
O2B O 0.6884(3) 0.6978(2) 0.4421(3)
O3B O 0.8789(3) 0.8464(2) 0.4779(3)
O4B O 0.6228(3) 0.8400(2) 0.2888(3)
O5B O 1.3292(3) 0.8788(2) 0.2317(3)
H1B H 1.4167 0.8641 0.2525
N1B N 0.9279(4) 0.6623(3) 0.4393(3)
N2B N 0.8796(4) 0.5969(3) 0.4981(3)
N3B N 0.3243(4) 0.3346(3) 0.7819(3)
N3B_2 N 0.3243(4) 0.3346(3) -0.2181(3)
C1B C 1.0495(4) 0.7838(3) 0.3135(4)
C2B C 1.1274(4) 0.7188(3) 0.3980(4)
C3B C 1.2779(4) 0.7123(3) 0.4290(4)
H3B H 1.3324 0.6704 0.4879
C4B C 1.3483(4) 0.7650(3) 0.3763(4)
H4B H 1.4498 0.7594 0.3982
C5B C 1.2679(4) 0.8273(3) 0.2897(4)
C6B C 1.1187(4) 0.8371(3) 0.2597(4)
H5B H 1.0652 0.8804 0.2024
C7B C 1.0616(4) 0.6565(3) 0.4519(4)
H6B H 1.1194 0.6088 0.4992
C8B C 0.7555(4) 0.6231(3) 0.4956(4)
C9B C 0.6803(4) 0.5678(3) 0.5542(4)
H7B H 0.7457 0.5185 0.5998
H8B H 0.6570 0.6079 0.6081
C10B C 0.5415(4) 0.5247(3) 0.4690(4)
H9B H 0.4795 0.5734 0.4187
H10B H 0.5654 0.4802 0.4197
C11B C 0.2529(5) 0.3806(3) -0.1651(4)
H11B H 0.1527 0.3684 -0.1873
C12B C 0.3175(5) 0.4451(3) -0.0796(4)
H12B H 0.2620 0.4754 -0.0441
C13B C 0.4626(4) 0.4656(3) -0.0458(4)
C14B C 0.4637(5) 0.5816(4) 0.1013(4)
H13B H 0.3638 0.5698 0.0815
C15B C 0.5341(5) 0.6453(4) 0.1849(4)
H14B H 0.4804 0.6767 0.2212
O6 O 0.8656(5) 0.0599(4) 0.4399(4)
H2 H 0.9542 0.0622 0.4819
C16 C 0.8481(7) 0.0511(6) 0.3278(5)
H15 H 0.8436 0.1123 0.2939
H16 H 0.7581 0.0177 0.2851
H17 H 0.9300 0.0168 0.3237
loop_
_geom_bond_atom_site_label_1
_geom_bond_atom_site_label_2
_geom_bond_site_symmetry_1
_geom_bond_site_symmetry_2
Mo1 O1 1_555 1_555
O1 C1 1_555 1_555
O2 Mo1 1_555 1_555
O3 Mo1 1_555 1_555
O4 Mo1 1_555 1_555
O5 H1 1_555 1_555
O6 H2 1_555 1_555
N1 Mo1 1_555 1_555
N2 N1 1_555 1_555
N3 C11 1_555 1_555
C1 C2 1_555 1_555
C2 C3 1_555 1_555
C3 H3 1_555 1_555
C4 C3 1_555 1_555
H4 C4 1_555 1_555
C5 O5 1_555 1_555
C6 C1 1_555 1_555
H5 C6 1_555 1_555
C7 N1 1_555 1_555
H6 C7 1_555 1_555
C8 O2 1_555 1_555
C9 C8 1_555 1_555
H7 C9 1_555 1_555
H8 C9 1_555 1_555
C10 C9 1_555 1_555
H9 C10 1_555 1_555
H10 C10 1_555 1_555
C11 H11 1_555 1_555
C12 C11 1_555 1_555
H12 C12 1_555 1_555
C13 C12 1_555 1_555
C14 H13 1_555 1_555
C15 C14 1_555 1_555
H14 C15 1_555 1_555
C16 O6 1_555 1_555
H15 C16 1_555 1_555
H16 C16 1_555 1_555
H17 C16 1_555 1_555
Mo1B N3 1_555 1_555
Mo1_2 N3B_2 1_555 1_555
O1B Mo1B 1_555 1_555
O2B Mo1B 1_555 1_555
O3B Mo1B 1_555 1_555
O4B Mo1B 1_555 1_555
O5B H1B 1_555 1_555
N1B Mo1B 1_555 1_555
N2B N1B 1_555 1_555
N3B Mo1 1_555 1_555
N3B_2 C15 1_555 1_555
C1B O1B 1_555 1_555
C2B C1B 1_555 1_555
C3B C2B 1_555 1_555
H3B C3B 1_555 1_555
C4B C3B 1_555 1_555
H4B C4B 1_555 1_555
C5B O5B 1_555 1_555
C6B C1B 1_555 1_555
H5B C6B 1_555 1_555
C7B N1B 1_555 1_555
H6B C7B 1_555 1_555
C8B O2B 1_555 1_555
C9B C8B 1_555 1_555
H7B C9B 1_555 1_555
H8B C9B 1_555 1_555
C10B C10 1_555 1_555
H9B C10B 1_555 1_555
H10B C10B 1_555 1_555
C11B N3B_2 1_555 1_555
H11B C11B 1_555 1_555
C12B C11B 1_555 1_555
H12B C12B 1_555 1_555
C13B C13 1_555 1_555
C14B C13 1_555 1_555
H13B C14B 1_555 1_555
C15B N3 1_555 1_555
H14B C15B 1_555 1_555
N2 C8 1_555 1_555
C2 C7 1_555 1_555
C4 C5 1_555 1_555
C5 C6 1_555 1_555
C14 C13B 1_555 1_555
N2B C8B 1_555 1_555
C2B C7B 1_555 1_555
C4B C5B 1_555 1_555
C5B C6B 1_555 1_555
C9B C10B 1_555 1_555
C12B C13B 1_555 1_555
C14B C15B 1_555 1_555

#END
