
#######################################################################
#
#                 Cambridge Crystallographic Data Centre
#                                CCDC 
#
#######################################################################
#
# If this CIF has been generated from an entry in the Cambridge 
# Structural Database, then it will include bibliographic, chemical, 
# crystal, experimental, refinement or atomic coordinate data resulting 
# from the CCDC's data processing and validation procedures.
#
#######################################################################

data_XAKWIQ
_symmetry_cell_setting           monoclinic
_symmetry_space_group_name_H-M   'P 21/c'
_symmetry_Int_Tables_number      14
_space_group_name_Hall           '-P 2ybc'
loop_
_symmetry_equiv_pos_site_id
_symmetry_equiv_pos_as_xyz
1 x,y,z
2 -x,1/2+y,1/2-z
3 -x,-y,-z
4 x,1/2-y,1/2+z
_cell_length_a                   13.3584(14)
_cell_length_b                   8.3040(10)
_cell_length_c                   13.0430(14)
_cell_angle_alpha                90
_cell_angle_beta                 106.227(3)
_cell_angle_gamma                90
_cell_volume                     1389.2
loop_
_atom_site_label
_atom_site_type_symbol
_atom_site_fract_x
_atom_site_fract_y
_atom_site_fract_z
Ag1 Ag -0.072740(8) -0.158020(14) 0.006650(9)
N1 N -0.21524(9) -0.03633(16) -0.01223(10)
C1 C -0.48699(13) 0.1517(2) -0.14731(13)
H1 H -0.5159 0.1249 -0.2204
C2 C -0.53801(12) 0.2548(2) -0.09393(13)
H2 H -0.6034 0.2996 -0.1316
C3 C -0.49528(13) 0.2935(2) 0.01315(13)
H3 H -0.5322 0.3636 0.0473
C4 C -0.39929(12) 0.23127(19) 0.07131(12)
H4 H -0.3699 0.2580 0.1444
C5 C -0.34836(11) 0.12886(17) 0.01851(11)
C6 C -0.39208(11) 0.09048(18) -0.08814(11)
C7 C -0.24471(11) 0.05057(18) 0.06234(11)
O1 O -0.19235(8) 0.06594(14) 0.15648(8)
S1 S -0.30482(3) -0.03855(4) -0.12761(3)
O2 O -0.26719(9) 0.03435(15) -0.20967(9)
O3 O -0.34696(9) -0.19875(14) -0.15020(9)
N2 N 0.05643(9) -0.30255(16) -0.00117(9)
C8 C 0.06240(11) -0.36349(17) -0.09514(11)
C9 C 0.14160(11) -0.46733(18) -0.10145(12)
H5 H 0.1453 -0.5072 -0.1686
C10 C 0.21576(11) -0.51230(19) -0.00758(13)
H6 H 0.2698 -0.5854 -0.0097
C11 C 0.20980(11) -0.4491(2) 0.08907(12)
H7 H 0.2599 -0.4775 0.1539
C12 C 0.12965(11) -0.34414(18) 0.08914(12)
H8 H 0.1259 -0.2997 0.1551
C13 C -0.02093(12) -0.30670(19) -0.19252(11)
H9 H -0.0107 -0.1906 -0.2037
H10 H -0.0902 -0.3200 -0.1798
O4 O -0.01919(10) -0.39244(16) -0.28565(9)
H11 H -0.0664(17) -0.449(3) -0.2918(16)
Ag1B Ag 0.072740(8) 0.158020(14) -0.006650(9)
Ag1C Ag -0.072740(8) -0.341980(14) -0.493350(9)
O4C O -0.01919(10) -0.10756(16) 0.21435(9)
H11C H -0.0664(17) -0.051(3) 0.2082(16)
loop_
_geom_bond_atom_site_label_1
_geom_bond_atom_site_label_2
_geom_bond_site_symmetry_1
_geom_bond_site_symmetry_2
Ag1 N1 1_555 1_555
N1 C7 1_555 1_555
C1 H1 1_555 1_555
C2 C1 1_555 1_555
H2 C2 1_555 1_555
C3 C2 1_555 1_555
H3 C3 1_555 1_555
C4 C3 1_555 1_555
H4 C4 1_555 1_555
C5 C4 1_555 1_555
C6 C1 1_555 1_555
C7 C5 1_555 1_555
O1 C7 1_555 1_555
S1 N1 1_555 1_555
O2 S1 1_555 1_555
O3 S1 1_555 1_555
N2 Ag1 1_555 1_555
C8 N2 1_555 1_555
C9 C8 1_555 1_555
H5 C9 1_555 1_555
C10 C9 1_555 1_555
H6 C10 1_555 1_555
C11 C10 1_555 1_555
H7 C11 1_555 1_555
C12 N2 1_555 1_555
H8 C12 1_555 1_555
C13 C8 1_555 1_555
H9 C13 1_555 1_555
H10 C13 1_555 1_555
O4 C13 1_555 1_555
H11 O4 1_555 1_555
Ag1B Ag1 1_555 1_555
Ag1C O4 1_555 1_555
O4C Ag1 1_555 1_555
H11C O4C 1_555 1_555
C5 C6 1_555 1_555
C6 S1 1_555 1_555
C11 C12 1_555 1_555

#END
