
#######################################################################
#
#                 Cambridge Crystallographic Data Centre
#                                CCDC 
#
#######################################################################
#
# If this CIF has been generated from an entry in the Cambridge 
# Structural Database, then it will include bibliographic, chemical, 
# crystal, experimental, refinement or atomic coordinate data resulting 
# from the CCDC's data processing and validation procedures.
#
#######################################################################

data_XAKWUC
_symmetry_cell_setting           orthorhombic
_symmetry_space_group_name_H-M   'F d d d'
_symmetry_Int_Tables_number      70
_space_group_name_Hall           '-F 2uv 2vw'
loop_
_symmetry_equiv_pos_site_id
_symmetry_equiv_pos_as_xyz
1 x,y,z
2 x,1/2+y,1/2+z
3 x,1/4-y,1/4-z
4 1/2+x,y,1/2+z
5 1/4-x,y,1/4-z
6 1/2+x,1/2+y,z
7 1/4-x,1/4-y,z
8 3/4-x,3/4-y,z
9 3/4-x,y,3/4-z
10 x,3/4-y,3/4-z
11 3/4-x,1/4-y,1/2+z
12 3/4-x,1/2+y,1/4-z
13 1/4-x,3/4-y,1/2+z
14 1/2+x,3/4-y,1/4-z
15 1/4-x,1/2+y,3/4-z
16 1/2+x,1/4-y,3/4-z
17 -x,-y,-z
18 -x,1/2-y,1/2-z
19 -x,3/4+y,3/4+z
20 1/2-x,-y,1/2-z
21 3/4+x,-y,3/4+z
22 1/2-x,1/2-y,-z
23 3/4+x,3/4+y,-z
24 1/4+x,1/4+y,-z
25 1/4+x,-y,1/4+z
26 -x,1/4+y,1/4+z
27 1/4+x,3/4+y,1/2-z
28 1/4+x,1/2-y,3/4+z
29 3/4+x,1/4+y,1/2-z
30 1/2-x,1/4+y,3/4+z
31 3/4+x,1/2-y,1/4+z
32 1/2-x,3/4+y,1/4+z
_cell_length_a                   9.765
_cell_length_b                   15.5827(4)
_cell_length_c                   28.3964(8)
_cell_angle_alpha                90
_cell_angle_beta                 90
_cell_angle_gamma                90
_cell_volume                     4320.94
loop_
_atom_site_label
_atom_site_type_symbol
_atom_site_fract_x
_atom_site_fract_y
_atom_site_fract_z
La1 La 0.3750 -0.1250 -0.240630(13)
O1 O 0.3709(4) 0.0288(3) -0.26652(14)
O2 O 0.3868(4) -0.2112(2) -0.16425(13)
O3 O 0.3705(4) 0.1630(3) -0.2897(2)
O4 O 0.5288(5) -0.1221(3) -0.31564(15)
C1 C 0.4350(6) 0.0933(4) -0.2812(2)
C2 C 0.3750 -0.1748(5) -0.1250
C3 C 0.5846(7) 0.0866(5) -0.2902(4)
H1 H 0.6534(7) 0.1909(5) -0.3205(4)
H2 H 0.6273(7) 0.2017(5) -0.2667(4)
H3 H 0.5577(88) -0.1697(53) -0.3243(28)
La1S La 0.1250 0.1250 -0.259370(13)
La1E La 0.8750 0.3750 -0.240630(13)
La1S_2 La 1.1250 0.1250 -0.259370(13)
La1H La 0.3750 -0.1250 -0.009370(13)
La1Q La 0.6250 -0.3750 -0.259370(13)
La1Q_2 La -0.3750 -0.3750 -0.259370(13)
La1E_2 La -0.1250 -0.6250 -0.240630(13)
O1S O 0.1291(4) -0.0288(3) -0.23348(14)
O1F O 0.8791(4) 0.2212(3) -0.26652(14)
O1BA O 1.1209(4) 0.2788(3) -0.23348(14)
O1G O 0.3791(4) -0.2788(3) -0.26652(14)
O1Z O 0.6209(4) -0.2212(3) -0.23348(14)
O1E O 0.8709(4) 0.5288(3) -0.26652(14)
O1Q O 0.6291(4) 0.4712(3) -0.23348(14)
O1E_2 O -0.1291(4) -0.4712(3) -0.26652(14)
O2H O 0.3632(4) -0.2112(2) -0.08575(13)
O2I O 0.3868(4) -0.0388(2) -0.08575(13)
O2G O 0.3632(4) -0.0388(2) -0.16425(13)
O2F O 0.8632(4) 0.4612(2) -0.16425(13)
O2E O 0.8868(4) 0.2888(2) -0.16425(13)
O3F O 0.8795(4) 0.0870(3) -0.2897(2)
O3Z O 0.6205(4) -0.0870(3) -0.2103(2)
O3S O 0.1295(4) -0.1630(3) -0.2103(2)
O3Q O 0.6295(4) 0.3370(3) -0.2103(2)
O3BA O 1.1205(4) 0.4130(3) -0.2103(2)
O3G O 0.3795(4) -0.4130(3) -0.2897(2)
O3E O -0.1295(4) -0.3370(3) -0.2897(2)
O4G O 0.2212(5) -0.1279(3) -0.31564(15)
O4F O 0.7212(5) 0.3721(3) -0.31564(15)
O4E O 1.0288(5) 0.3779(3) -0.31564(15)
C1F C 0.8150(6) 0.1567(4) -0.2812(2)
C1G C 0.3150(6) -0.3433(4) -0.2812(2)
C1E C -0.0650(6) -0.4067(4) -0.2812(2)
C2G C 0.3750 -0.0752(5) -0.1250
C3F C 0.6654(7) 0.1634(5) -0.2902(4)
C3G C 0.1654(7) -0.3366(5) -0.2902(4)
C3E C 0.0846(7) -0.4134(5) -0.2902(4)
H1F H 0.5966(7) 0.0591(5) -0.3205(4)
H1E H 0.1534(7) -0.3091(5) -0.3205(4)
H1G H 0.0966(7) -0.4409(5) -0.3205(4)
H2F H 0.6227(7) 0.0483(5) -0.2667(4)
H2E H 0.1273(7) -0.2983(5) -0.2667(4)
H2G H 0.1227(7) -0.4517(5) -0.2667(4)
H3G H 0.1923(88) -0.0803(53) -0.3243(28)
H3F H 0.6923(88) 0.4197(53) -0.3243(28)
H3E H 1.0577(88) 0.3303(53) -0.3243(28)
O5 O 0.0493(8) 0.1997(5) -0.6522(3)
H4 H 0.049(15) 0.2418(70) -0.6808(33)
H5 H 0.062(12) 0.2582(47) -0.6329(34)
loop_
_geom_bond_atom_site_label_1
_geom_bond_atom_site_label_2
_geom_bond_site_symmetry_1
_geom_bond_site_symmetry_2
La1 O1 1_555 1_555
O1 C1 1_555 1_555
O2 La1 1_555 1_555
O3 C1 1_555 1_555
O4 La1 1_555 1_555
C1 C3 1_555 1_555
C2 O2 1_555 1_555
C3 C3F 1_555 1_555
H1 C3F 1_555 1_555
H2 C3F 1_555 1_555
H3 O4 1_555 1_555
O5 H4 1_555 1_555
H5 O5 1_555 1_555
La1S O1 1_555 1_555
La1E O1F 1_555 1_555
La1S_2 O1F 1_555 1_555
La1H O2H 1_555 1_555
La1Q O1G 1_555 1_555
La1Q_2 O1E_2 1_555 1_555
La1E_2 O1E_2 1_555 1_555
O1S La1 1_555 1_555
O1F C1F 1_555 1_555
O1BA La1E 1_555 1_555
O1G La1 1_555 1_555
O1Z La1 1_555 1_555
O1E La1E 1_555 1_555
O1Q La1E 1_555 1_555
O1E_2 C1E 1_555 1_555
O2H C2 1_555 1_555
O2I La1H 1_555 1_555
O2G La1 1_555 1_555
O2F La1E 1_555 1_555
O2E La1E 1_555 1_555
O3F La1S_2 1_555 1_555
O3Z La1 1_555 1_555
O3S La1 1_555 1_555
O3Q La1E 1_555 1_555
O3BA La1E 1_555 1_555
O3G La1Q 1_555 1_555
O3E La1Q_2 1_555 1_555
O4G La1 1_555 1_555
O4F La1E 1_555 1_555
O4E La1E 1_555 1_555
C1F O3F 1_555 1_555
C1G O1G 1_555 1_555
C1E O3E 1_555 1_555
C2G C2 1_555 1_555
C3F C1F 1_555 1_555
C3G C1G 1_555 1_555
C3E C1E 1_555 1_555
H1F C3 1_555 1_555
H1E C3G 1_555 1_555
H1G C3E 1_555 1_555
H2F C3 1_555 1_555
H2E C3G 1_555 1_555
H2G C3E 1_555 1_555
H3G O4G 1_555 1_555
H3F O4F 1_555 1_555
H3E O4E 1_555 1_555
O3 La1S 1_555 1_555
La1S O1S 1_555 1_555
La1S_2 O1BA 1_555 1_555
La1Q O1Z 1_555 1_555
O2I C2G 1_555 1_555
O2G C2G 1_555 1_555
O3G C1G 1_555 1_555
C3G C3E 1_555 1_555

#END
