
#######################################################################
#
#                 Cambridge Crystallographic Data Centre
#                                CCDC 
#
#######################################################################
#
# If this CIF has been generated from an entry in the Cambridge 
# Structural Database, then it will include bibliographic, chemical, 
# crystal, experimental, refinement or atomic coordinate data resulting 
# from the CCDC's data processing and validation procedures.
#
#######################################################################

data_XAKZUG
_symmetry_cell_setting           monoclinic
_symmetry_space_group_name_H-M   'P 2/c'
_symmetry_Int_Tables_number      13
_space_group_name_Hall           '-P 2yc'
loop_
_symmetry_equiv_pos_site_id
_symmetry_equiv_pos_as_xyz
1 x,y,z
2 -x,y,1/2-z
3 -x,-y,-z
4 x,-y,1/2+z
_cell_length_a                   13.0326(15)
_cell_length_b                   5.8324(6)
_cell_length_c                   17.4802(17)
_cell_angle_alpha                90
_cell_angle_beta                 109.379(7)
_cell_angle_gamma                90
_cell_volume                     1253.42
loop_
_atom_site_label
_atom_site_type_symbol
_atom_site_fract_x
_atom_site_fract_y
_atom_site_fract_z
Hg1 Hg 0.5000 0.28320(7) 0.7500
Br1 Br 0.44642(7) 0.16019(17) 0.60594(5)
O1 O 0.1143(4) 0.3257(10) 0.5302(3)
N1 N 0.3537(4) 0.5528(10) 0.7325(3)
N2 N 0.0800(4) 0.6572(9) 0.5863(3)
H1 H 0.0312 0.7613 0.5802
C1 C 0.3623(5) 0.7273(12) 0.7832(4)
H2 H 0.4250 0.7425 0.8280
C2 C 0.2802(6) 0.8861(14) 0.7706(4)
H3 H 0.2877 1.0083 0.8063
C3 C 0.1871(6) 0.8627(12) 0.7051(4)
H4 H 0.1308 0.9682 0.6960
C4 C 0.1778(5) 0.6827(11) 0.6532(4)
C5 C 0.2634(5) 0.5311(12) 0.6683(4)
H5 H 0.2581 0.4099 0.6326
C6 C 0.0568(5) 0.4870(12) 0.5319(4)
Hg1B Hg -0.5000 0.71680(7) 0.2500
Br1A Br 0.55358(7) 0.16019(17) 0.89406(5)
O1B O -0.1143(4) 0.6743(10) 0.4698(3)
N1B N -0.3537(4) 0.4472(10) 0.2675(3)
N1A N 0.6463(4) 0.5528(10) 0.7675(3)
N2B N -0.0800(4) 0.3428(9) 0.4137(3)
H1B H -0.0312 0.2387 0.4198
C1B C -0.3623(5) 0.2727(12) 0.2168(4)
H2B H -0.4250 0.2575 0.1720
C2B C -0.2802(6) 0.1139(14) 0.2294(4)
H3B H -0.2877 -0.0083 0.1937
C3B C -0.1871(6) 0.1373(12) 0.2949(4)
H4B H -0.1308 0.0318 0.3040
C4B C -0.1778(5) 0.3173(11) 0.3468(4)
C5B C -0.2634(5) 0.4689(12) 0.3317(4)
H5B H -0.2581 0.5901 0.3674
C6B C -0.0568(5) 0.5130(12) 0.4681(4)
O2 O -0.0562(5) 1.0128(11) 0.6147(4)
N3 N -0.1901(5) 1.2721(10) 0.5892(3)
C7 C -0.1366(7) 1.4049(16) 0.6603(5)
H6 H -0.0684 1.3344 0.6899
H7 H -0.1817 1.4119 0.6940
H8 H -0.1239 1.5572 0.6447
C8 C -0.2962(7) 1.3497(18) 0.5367(6)
H9 H -0.3230 1.2467 0.4916
H10 H -0.2898 1.5010 0.5172
H11 H -0.3460 1.3527 0.5668
C9 C -0.1440(6) 1.0867(13) 0.5732(5)
H12 H -0.1815 1.0057 0.5264
loop_
_geom_bond_atom_site_label_1
_geom_bond_atom_site_label_2
_geom_bond_site_symmetry_1
_geom_bond_site_symmetry_2
Hg1 Br1 1_555 1_555
O1 C6 1_555 1_555
N1 Hg1 1_555 1_555
N2 H1 1_555 1_555
C1 N1 1_555 1_555
H2 C1 1_555 1_555
C2 C1 1_555 1_555
H3 C2 1_555 1_555
C3 C2 1_555 1_555
H4 C3 1_555 1_555
C4 N2 1_555 1_555
C5 N1 1_555 1_555
H5 C5 1_555 1_555
C6 N2 1_555 1_555
O2 C9 1_555 1_555
N3 C7 1_555 1_555
C7 H6 1_555 1_555
H7 C7 1_555 1_555
H8 C7 1_555 1_555
C8 N3 1_555 1_555
H9 C8 1_555 1_555
H10 C8 1_555 1_555
H11 C8 1_555 1_555
C9 N3 1_555 1_555
H12 C9 1_555 1_555
Hg1B N1B 1_555 1_555
Br1A Hg1 1_555 1_555
O1B C6B 1_555 1_555
N1B C1B 1_555 1_555
N1A Hg1 1_555 1_555
N2B H1B 1_555 1_555
C1B H2B 1_555 1_555
C2B C1B 1_555 1_555
H3B C2B 1_555 1_555
C3B C2B 1_555 1_555
H4B C3B 1_555 1_555
C4B N2B 1_555 1_555
C5B N1B 1_555 1_555
H5B C5B 1_555 1_555
C6B C6 1_555 1_555
C3 C4 1_555 1_555
C4 C5 1_555 1_555
N2B C6B 1_555 1_555
C3B C4B 1_555 1_555
C4B C5B 1_555 1_555

#END
