
#######################################################################
#
#                 Cambridge Crystallographic Data Centre
#                                CCDC 
#
#######################################################################
#
# If this CIF has been generated from an entry in the Cambridge 
# Structural Database, then it will include bibliographic, chemical, 
# crystal, experimental, refinement or atomic coordinate data resulting 
# from the CCDC's data processing and validation procedures.
#
#######################################################################

data_XALCIX
_symmetry_cell_setting           tetragonal
_symmetry_space_group_name_H-M   'I 41/a'
_symmetry_Int_Tables_number      88
_space_group_name_Hall           '-I 4ad'
loop_
_symmetry_equiv_pos_site_id
_symmetry_equiv_pos_as_xyz
1 x,y,z
2 3/4-y,1/4+x,1/4+z
3 1/2+x,1/2+y,1/2+z
4 1/4-y,3/4+x,3/4+z
5 1/4+y,1/4-x,1/4+z
6 1/2-x,-y,1/2+z
7 3/4+y,3/4-x,3/4+z
8 -x,1/2-y,z
9 -x,-y,-z
10 1/4+y,3/4-x,3/4-z
11 1/2-x,1/2-y,1/2-z
12 3/4+y,1/4-x,1/4-z
13 3/4-y,3/4+x,3/4-z
14 1/2+x,y,1/2-z
15 1/4-y,1/4+x,1/4-z
16 x,1/2+y,-z
_cell_length_a                   40.906(5)
_cell_length_b                   40.906(5)
_cell_length_c                   17.295(3)
_cell_angle_alpha                90
_cell_angle_beta                 90
_cell_angle_gamma                90
_cell_volume                     28939.7
loop_
_atom_site_label
_atom_site_type_symbol
_atom_site_fract_x
_atom_site_fract_y
_atom_site_fract_z
Mn1 Mn 0.576457(14) 0.541150(16) 0.18184(4)
O2 O 0.59498(7) 0.51400(8) 0.2567(2)
O3 O 0.49550(7) 0.52560(8) 0.32103(17)
O4 O 0.55058(7) 0.56736(7) 0.11152(18)
O5 O 0.58784(8) 0.58633(8) 0.2499(2)
N2 N 0.53403(8) 0.53665(8) 0.2300(2)
N3 N 0.50820(8) 0.55219(8) 0.1894(2)
N4 N 0.59854(13) 0.64036(12) 0.2586(4)
C4 C 0.58182(11) 0.50088(11) 0.3195(3)
C5 C 0.60176(14) 0.48022(14) 0.3649(3)
H8 H 0.6234 0.4753 0.3485
C6 C 0.59013(15) 0.46732(15) 0.4323(4)
H9 H 0.6042 0.4540 0.4626
C7 C 0.55885(16) 0.47284(16) 0.4578(4)
H10 H 0.5514 0.4639 0.5053
C8 C 0.53839(13) 0.49192(15) 0.4122(3)
H11 H 0.5166 0.4959 0.4291
C9 C 0.54877(11) 0.50544(11) 0.3425(3)
C10 C 0.52482(10) 0.52348(10) 0.2960(3)
C11 C 0.51948(10) 0.56693(10) 0.1283(3)
C12 C 0.49659(11) 0.58442(12) 0.0750(3)
H12 H 0.4740 0.5822 0.0947
H13 H 0.4975 0.5741 0.0232
C13 C 0.50493(14) 0.62024(15) 0.0675(4)
H14 H 0.4911 0.6302 0.0269
H15 H 0.5280 0.6225 0.0515
C14 C 0.49967(18) 0.63848(16) 0.1435(6)
H16 H 0.4771 0.6345 0.1619
H17 H 0.5149 0.6297 0.1828
C15 C 0.5050(3) 0.6750(2) 0.1358(8)
H18 H 0.5277 0.6790 0.1185
H19 H 0.4901 0.6836 0.0956
C16 C 0.4992(4) 0.6930(3) 0.2094(9)
H20 H 0.4760 0.6988 0.2133
H21 H 0.5125 0.7129 0.2101
H22 H 0.5053 0.6790 0.2532
C17 C 0.58859(13) 0.61326(14) 0.2227(4)
H23 H 0.5814 0.6155 0.1707
C18 C 0.6016(3) 0.67091(18) 0.2197(6)
H24 H 0.5930 0.6689 0.1670
H25 H 0.6247 0.6772 0.2174
H26 H 0.5893 0.6877 0.2478
C19 C 0.6101(2) 0.6401(2) 0.3341(6)
H27 H 0.5952 0.6528 0.3671
H28 H 0.6319 0.6499 0.3357
H29 H 0.6112 0.6176 0.3529
Mn2 Mn 0.460603(15) 0.538067(16) 0.24670(4)
O6 O 0.45228(8) 0.57945(8) 0.2867(2)
O7 O 0.38526(7) 0.56698(7) 0.10026(18)
O8 O 0.46339(7) 0.49633(7) 0.19429(17)
N5 N 0.42627(8) 0.54364(8) 0.1706(2)
N6 N 0.42153(8) 0.51611(8) 0.1218(2)
N7 N 0.42650(10) 0.51173(11) 0.3312(2)
C20 C 0.42844(11) 0.60023(11) 0.2697(3)
C21 C 0.42626(14) 0.62860(13) 0.3158(3)
H30 H 0.4418 0.6322 0.3558
C22 C 0.40155(15) 0.65129(13) 0.3031(4)
H31 H 0.4002 0.6701 0.3351
C23 C 0.37898(14) 0.64694(13) 0.2450(4)
H32 H 0.3620 0.6624 0.2370
C24 C 0.38158(12) 0.62005(11) 0.1990(3)
H33 H 0.3662 0.6172 0.1585
C25 C 0.40602(10) 0.59632(10) 0.2089(3)
C26 C 0.40567(9) 0.56772(10) 0.1562(3)
C27 C 0.44192(10) 0.49288(10) 0.1404(3)
C28 C 0.43910(12) 0.46015(10) 0.1020(3)
H34 H 0.4611 0.4528 0.0853
H35 H 0.4252 0.4622 0.0553
C29 C 0.42426(15) 0.43464(13) 0.1563(4)
H36 H 0.4265 0.4127 0.1326
H37 H 0.4366 0.4346 0.2055
C30 C 0.38835(16) 0.44119(16) 0.1734(4)
H38 H 0.3760 0.4415 0.1242
H39 H 0.3862 0.4630 0.1976
C31 C 0.3731(2) 0.41545(19) 0.2273(6)
H40 H 0.3753 0.3935 0.2035
H41 H 0.3851 0.4153 0.2771
C32 C 0.3369(2) 0.4228(3) 0.2421(7)
H42 H 0.3342 0.4463 0.2521
H43 H 0.3294 0.4104 0.2870
H44 H 0.3241 0.4166 0.1966
C33 C 0.43515(14) 0.48272(15) 0.3561(3)
H45 H 0.4568 0.4754 0.3460
C34 C 0.41430(16) 0.46240(17) 0.3965(4)
H46 H 0.4216 0.4416 0.4139
C35 C 0.38242(15) 0.4728(2) 0.4115(4)
C36 C 0.37461(14) 0.50295(19) 0.3866(4)
H47 H 0.3534 0.5113 0.3976
C37 C 0.39600(12) 0.52219(17) 0.3459(3)
H48 H 0.3892 0.5431 0.3280
C38 C 0.35979(17) 0.4511(3) 0.4577(5)
H49 H 0.3371 0.4590 0.4512
H50 H 0.3609 0.4286 0.4368
Mn3 Mn 0.612900(14) 0.470130(15) -0.02725(4)
O9 O 0.64919(7) 0.49169(8) -0.06712(18)
O10 O 0.61759(7) 0.54845(7) 0.12546(17)
O11 O 0.57497(7) 0.45326(7) 0.02602(18)
N8 N 0.60622(8) 0.50505(8) 0.0483(2)
N9 N 0.57813(8) 0.50065(8) 0.0946(2)
N10 N 0.30859(9) 0.39432(9) 0.6931(2)
C39 C 0.66588(10) 0.51595(10) -0.0367(3)
C40 C 0.69637(12) 0.52292(12) -0.0711(3)
H51 H 0.7035 0.5104 -0.1141
C41 C 0.71598(11) 0.54765(13) -0.0431(3)
H52 H 0.7366 0.5517 -0.0664
C42 C 0.70590(12) 0.56666(12) 0.0185(3)
H53 H 0.7193 0.5839 0.0369
C43 C 0.67654(11) 0.56044(11) 0.0526(3)
H54 H 0.6697 0.5737 0.0947
C44 C 0.65617(10) 0.53505(10) 0.0272(2)
C45 C 0.62521(9) 0.52962(10) 0.0681(2)
C46 C 0.56397(10) 0.47314(10) 0.0778(3)
C47 C 0.53491(13) 0.46221(13) 0.1235(3)
H55 H 0.5259 0.4810 0.1525
H56 H 0.5178 0.4542 0.0877
C48 C 0.5444(2) 0.4339(2) 0.1823(6)
H57 H 0.5518 0.4146 0.1526
H58 H 0.5630 0.4413 0.2145
C49 C 0.5146(3) 0.4229(4) 0.2390(11)
H59 H 0.4972 0.4122 0.2082
H60 H 0.5050 0.4425 0.2640
C50 C 0.5252(7) 0.4026(7) 0.2924(14)
H61 H 0.5338 0.3819 0.2706
H62 H 0.5416 0.4126 0.3273
C51 C 0.4887(6) 0.3982(6) 0.3338(11)
H63 H 0.4777 0.4194 0.3365
H64 H 0.4754 0.3831 0.3030
H65 H 0.4914 0.3894 0.3861
C52 C 0.30641(13) 0.38941(13) 0.6167(3)
H66 H 0.2916 0.3732 0.5984
C53 C 0.32436(15) 0.40655(15) 0.5634(3)
H67 H 0.3221 0.4021 0.5098
C54 C 0.34593(16) 0.43061(14) 0.5891(3)
C55 C 0.34749(13) 0.43601(13) 0.6673(3)
H68 H 0.3616 0.4524 0.6874
C56 C 0.32862(12) 0.41773(12) 0.7164(3)
H69 H 0.3300 0.4221 0.7703
C57 C 0.3670(2) 0.45030(19) 0.5342(4)
H70 H 0.3671 0.4731 0.5530
H71 H 0.3897 0.4420 0.5392
O7H O 0.61474(7) 0.43302(7) -0.10026(18)
N6H N 0.57847(8) 0.48389(8) -0.1218(2)
Mn3H Mn 0.387100(14) 0.529870(15) 0.02725(4)
Mn3L Mn 0.279870(15) 0.362900(14) 0.77725(4)
N10I N 0.64432(9) 0.44141(9) 0.0569(2)
O1 O 0.4989(6) 0.6503(4) 0.4904(12)
N1 N 0.5117(4) 0.6145(5) 0.4281(10)
C1 C 0.5268(10) 0.6464(14) 0.456(3)
H1 H 0.5468 0.6579 0.4510
C2 C 0.4985(6) 0.5847(5) 0.4605(10)
H2 H 0.4762 0.5813 0.4415
H3 H 0.4983 0.5863 0.5170
H4 H 0.5122 0.5661 0.4449
C3 C 0.5244(5) 0.6058(5) 0.3709(12)
H5 H 0.5475 0.6120 0.3719
H6 H 0.5137 0.6160 0.3264
H7 H 0.5225 0.5819 0.3667
O12? O 0.2240(2) 0.5612(3) 0.9031(7)
O13? O 0.2604(3) 0.5357(3) 0.9769(8)
C58? C 0.2655(3) 0.5287(3) 0.8411(10)
C59? C 0.2534(4) 0.5346(3) 0.7665(9)
H72? H 0.2348 0.5481 0.7583
C60? C 0.2695(4) 0.5202(4) 0.7059(11)
H73? H 0.2617 0.5220 0.6544
C61? C 0.2951(8) 0.5045(6) 0.722(2)
H74? H 0.3082 0.4974 0.6794
C62? C 0.3057(6) 0.4966(5) 0.7952(18)
H75? H 0.3237 0.4822 0.8014
C63? C 0.2918(4) 0.5084(3) 0.8549(10)
H76? H 0.2991 0.5035 0.9057
C64? C 0.2478(4) 0.5431(4) 0.9083(14)
C65? C 0.2479(11) 0.5541(12) 1.045(3)
H77? H 0.2571 0.5762 1.0445
H78? H 0.2544 0.5428 1.0923
H79? H 0.2240 0.5554 1.0421
loop_
_geom_bond_atom_site_label_1
_geom_bond_atom_site_label_2
_geom_bond_site_symmetry_1
_geom_bond_site_symmetry_2
O1 C1 1_555 1_555
N1 C1 1_555 1_555
C1 H1 1_555 1_555
C2 N1 1_555 1_555
H2 C2 1_555 1_555
H3 C2 1_555 1_555
H4 C2 1_555 1_555
C3 N1 1_555 1_555
H5 C3 1_555 1_555
H6 C3 1_555 1_555
H7 C3 1_555 1_555
Mn1 O2 1_555 1_555
O2 C4 1_555 1_555
O3 C10 1_555 1_555
O4 Mn1 1_555 1_555
O5 Mn1 1_555 1_555
N2 Mn1 1_555 1_555
N3 N2 1_555 1_555
N4 C17 1_555 1_555
C4 C5 1_555 1_555
C5 H8 1_555 1_555
C6 C5 1_555 1_555
H9 C6 1_555 1_555
C7 C6 1_555 1_555
H10 C7 1_555 1_555
C8 C7 1_555 1_555
H11 C8 1_555 1_555
C9 C4 1_555 1_555
C10 N2 1_555 1_555
C11 O4 1_555 1_555
C12 C11 1_555 1_555
H12 C12 1_555 1_555
H13 C12 1_555 1_555
C13 C12 1_555 1_555
H14 C13 1_555 1_555
H15 C13 1_555 1_555
C14 C13 1_555 1_555
H16 C14 1_555 1_555
H17 C14 1_555 1_555
C15 C14 1_555 1_555
H18 C15 1_555 1_555
H19 C15 1_555 1_555
C16 C15 1_555 1_555
H20 C16 1_555 1_555
H21 C16 1_555 1_555
H22 C16 1_555 1_555
C17 O5 1_555 1_555
H23 C17 1_555 1_555
C18 N4 1_555 1_555
H24 C18 1_555 1_555
H25 C18 1_555 1_555
H26 C18 1_555 1_555
C19 N4 1_555 1_555
H27 C19 1_555 1_555
H28 C19 1_555 1_555
H29 C19 1_555 1_555
Mn2 O3 1_555 1_555
O6 Mn2 1_555 1_555
O7 C26 1_555 1_555
O8 Mn2 1_555 1_555
N5 Mn2 1_555 1_555
N6 N5 1_555 1_555
N7 Mn2 1_555 1_555
C20 O6 1_555 1_555
C21 C20 1_555 1_555
H30 C21 1_555 1_555
C22 C21 1_555 1_555
H31 C22 1_555 1_555
C23 C22 1_555 1_555
H32 C23 1_555 1_555
C24 C23 1_555 1_555
H33 C24 1_555 1_555
C25 C20 1_555 1_555
C26 N5 1_555 1_555
C27 O8 1_555 1_555
C28 C27 1_555 1_555
H34 C28 1_555 1_555
H35 C28 1_555 1_555
C29 C28 1_555 1_555
H36 C29 1_555 1_555
H37 C29 1_555 1_555
C30 C29 1_555 1_555
H38 C30 1_555 1_555
H39 C30 1_555 1_555
C31 C30 1_555 1_555
H40 C31 1_555 1_555
H41 C31 1_555 1_555
C32 C31 1_555 1_555
H42 C32 1_555 1_555
H43 C32 1_555 1_555
H44 C32 1_555 1_555
C33 N7 1_555 1_555
H45 C33 1_555 1_555
C34 C33 1_555 1_555
H46 C34 1_555 1_555
C35 C34 1_555 1_555
C36 C35 1_555 1_555
H47 C36 1_555 1_555
C37 N7 1_555 1_555
H48 C37 1_555 1_555
C38 C35 1_555 1_555
H49 C38 1_555 1_555
H50 C38 1_555 1_555
Mn3 O9 1_555 1_555
O9 C39 1_555 1_555
O10 Mn1 1_555 1_555
O11 Mn3 1_555 1_555
N8 Mn3 1_555 1_555
N9 Mn1 1_555 1_555
N10 C52 1_555 1_555
C39 C40 1_555 1_555
C40 H51 1_555 1_555
C41 C40 1_555 1_555
H52 C41 1_555 1_555
C42 C41 1_555 1_555
H53 C42 1_555 1_555
C43 C42 1_555 1_555
H54 C43 1_555 1_555
C44 C39 1_555 1_555
C45 O10 1_555 1_555
C46 O11 1_555 1_555
C47 C46 1_555 1_555
H55 C47 1_555 1_555
H56 C47 1_555 1_555
C48 C47 1_555 1_555
H57 C48 1_555 1_555
H58 C48 1_555 1_555
C49 C48 1_555 1_555
H59 C49 1_555 1_555
H60 C49 1_555 1_555
C50 C49 1_555 1_555
H61 C50 1_555 1_555
H62 C50 1_555 1_555
C51 C50 1_555 1_555
H63 C51 1_555 1_555
H64 C51 1_555 1_555
H65 C51 1_555 1_555
C52 H66 1_555 1_555
C53 C52 1_555 1_555
H67 C53 1_555 1_555
C54 C53 1_555 1_555
C55 C54 1_555 1_555
H68 C55 1_555 1_555
C56 N10 1_555 1_555
H69 C56 1_555 1_555
C57 C38 1_555 1_555
H70 C57 1_555 1_555
H71 C57 1_555 1_555
O7H Mn3 1_555 1_555
N6H Mn3 1_555 1_555
Mn3H O7 1_555 1_555
Mn3L N10 1_555 1_555
N10I Mn3 1_555 1_555
N3 C11 1_555 1_555
N3 Mn2 1_555 1_555
C8 C9 1_555 1_555
C9 C10 1_555 1_555
N6 C27 1_555 1_555
N6 Mn3H 1_555 1_555
C24 C25 1_555 1_555
C25 C26 1_555 1_555
C36 C37 1_555 1_555
N8 N9 1_555 1_555
N8 C45 1_555 1_555
N9 C46 1_555 1_555
C43 C44 1_555 1_555
C44 C45 1_555 1_555
C54 C57 1_555 1_555
C55 C56 1_555 1_555

#END
