
#######################################################################
#
#                 Cambridge Crystallographic Data Centre
#                                CCDC 
#
#######################################################################
#
# If this CIF has been generated from an entry in the Cambridge 
# Structural Database, then it will include bibliographic, chemical, 
# crystal, experimental, refinement or atomic coordinate data resulting 
# from the CCDC's data processing and validation procedures.
#
#######################################################################

data_XALGIB
_symmetry_cell_setting           monoclinic
_symmetry_space_group_name_H-M   'P 21/c'
_symmetry_Int_Tables_number      14
_space_group_name_Hall           '-P 2ybc'
loop_
_symmetry_equiv_pos_site_id
_symmetry_equiv_pos_as_xyz
1 x,y,z
2 -x,1/2+y,1/2-z
3 -x,-y,-z
4 x,1/2-y,1/2+z
_cell_length_a                   12.505(4)
_cell_length_b                   8.072(2)
_cell_length_c                   15.225(4)
_cell_angle_alpha                90
_cell_angle_beta                 100.691(4)
_cell_angle_gamma                90
_cell_volume                     1510.14
loop_
_atom_site_label
_atom_site_type_symbol
_atom_site_fract_x
_atom_site_fract_y
_atom_site_fract_z
C1 C 0.8620(3) 0.1174(5) 0.5513(3)
H1 H 0.8354 0.0451 0.5897
C2 C 0.9722(3) 0.1502(6) 0.5660(3)
H2 H 1.0192 0.1015 0.6135
C3 C 1.0109(3) 0.2572(6) 0.5084(4)
H3 H 1.0848 0.2811 0.5163
C4 C 0.9394(3) 0.3281(5) 0.4393(3)
H4 H 0.9645 0.4005 0.4001
C5 C 0.8291(3) 0.2906(4) 0.4283(2)
C6 C 0.7506(3) 0.3774(4) 0.3553(3)
H5 H 0.7886 0.4024 0.3068
H6 H 0.7301 0.4821 0.3787
C7 C 0.5241(3) 0.4149(4) 0.32225(18)
H7 H 0.5391 0.5164 0.2927
H8 H 0.4544 0.3735 0.2912
C8 C 0.5136(2) 0.4568(3) 0.41712(17)
C9 C 0.4665(2) 0.6059(3) 0.43401(18)
H9 H 0.4438 0.6784 0.3868
N1 N 0.7913(2) 0.1859(3) 0.48344(18)
N2 N 0.54757(19) 0.3507(3) 0.48392(14)
S1 S 0.62728(6) 0.26502(9) 0.30945(4)
Cl1 Cl 0.40300(6) 0.02272(9) 0.39136(4)
Cl2 Cl 0.68442(7) -0.18755(9) 0.39056(6)
Cd1 Cd 0.615165(16) 0.07273(2) 0.451287(12)
C1B C 0.1380(3) 0.8826(5) 0.4487(3)
H1B H 0.1646 0.9549 0.4103
C2B C 0.0278(3) 0.8498(6) 0.4340(3)
H2B H -0.0192 0.8985 0.3865
C3B C -0.0109(3) 0.7428(6) 0.4916(4)
H3B H -0.0848 0.7189 0.4837
C4B C 0.0606(3) 0.6719(5) 0.5607(3)
H4B H 0.0355 0.5995 0.5999
C5B C 0.1709(3) 0.7094(4) 0.5717(2)
C6B C 0.2494(3) 0.6226(4) 0.6447(3)
H5B H 0.2114 0.5976 0.6932
H6B H 0.2699 0.5179 0.6213
C7B C 0.4759(3) 0.5851(4) 0.67775(18)
H7B H 0.4609 0.4836 0.7073
H8B H 0.5456 0.6265 0.7088
C8B C 0.4864(2) 0.5432(3) 0.58288(17)
C9B C 0.5335(2) 0.3941(3) 0.56599(18)
H9B H 0.5562 0.3216 0.6132
N1B N 0.2087(2) 0.8141(3) 0.51656(18)
N2B N 0.45243(19) 0.6493(3) 0.51608(14)
S1B S 0.37272(6) 0.73498(9) 0.69055(4)
Cl1B Cl 0.59700(6) -0.02272(9) 0.60864(4)
Cl1_2 Cl 0.40300(6) 1.02272(9) 0.39136(4)
Cl1B_2 Cl 0.59700(6) 0.97728(9) 0.60864(4)
Cl2B Cl 0.31558(7) 1.18755(9) 0.60944(6)
Cd1B Cd 0.384835(16) 0.92727(2) 0.548713(12)
Cd1B_2 Cd 0.384835(16) -0.07273(2) 0.548713(12)
Cl3 Cl 0.90038(11) -0.30128(15) 0.22328(8)
C10 C 0.7896(4) -0.1663(7) 0.1878(4)
H10 H 0.7483 -0.2058 0.1314
H11 H 0.7419 -0.1685 0.2313
Cl4 Cl 0.82911(14) 0.0322(2) 0.17489(17)
H12? H 0.7251 -0.2125 0.2054
H13? H 0.8047 -0.0609 0.2182
Cl5? Cl 0.7640(7) -0.1335(13) 0.0801(6)
loop_
_geom_bond_atom_site_label_1
_geom_bond_atom_site_label_2
_geom_bond_site_symmetry_1
_geom_bond_site_symmetry_2
C1 H1 1_555 1_555
C2 C1 1_555 1_555
H2 C2 1_555 1_555
C3 C2 1_555 1_555
H3 C3 1_555 1_555
C4 C3 1_555 1_555
H4 C4 1_555 1_555
C5 C4 1_555 1_555
C6 C5 1_555 1_555
H5 C6 1_555 1_555
H6 C6 1_555 1_555
C7 H7 1_555 1_555
H8 C7 1_555 1_555
C8 C7 1_555 1_555
C9 C8 1_555 1_555
H9 C9 1_555 1_555
N1 C1 1_555 1_555
N2 C8 1_555 1_555
S1 C6 1_555 1_555
Cl1 Cd1 1_555 1_555
Cl2 Cd1 1_555 1_555
Cd1 N1 1_555 1_555
Cl3 C10 1_555 1_555
C10 H10 1_555 1_555
H11 C10 1_555 1_555
Cl4 C10 1_555 1_555
C1B H1B 1_555 1_555
C2B C1B 1_555 1_555
H2B C2B 1_555 1_555
C3B C2B 1_555 1_555
H3B C3B 1_555 1_555
C4B C3B 1_555 1_555
H4B C4B 1_555 1_555
C5B C4B 1_555 1_555
C6B C5B 1_555 1_555
H5B C6B 1_555 1_555
H6B C6B 1_555 1_555
C7B H7B 1_555 1_555
H8B C7B 1_555 1_555
C8B C7B 1_555 1_555
C9B N2 1_555 1_555
H9B C9B 1_555 1_555
N1B C1B 1_555 1_555
N2B C9 1_555 1_555
S1B C6B 1_555 1_555
Cl1B Cd1 1_555 1_555
Cl1_2 Cd1B 1_555 1_555
Cl1B_2 Cd1B 1_555 1_555
Cl2B Cd1B 1_555 1_555
Cd1B N1B 1_555 1_555
Cd1B_2 Cl1 1_555 1_555
C5 N1 1_555 1_555
C7 S1 1_555 1_555
N2 Cd1 1_555 1_555
S1 Cd1 1_555 1_555
C5B N1B 1_555 1_555
C7B S1B 1_555 1_555
C8B C9B 1_555 1_555
C8B N2B 1_555 1_555
N2B Cd1B 1_555 1_555
S1B Cd1B 1_555 1_555
Cl1B Cd1B_2 1_555 1_555

#END
