
#######################################################################
#
#                 Cambridge Crystallographic Data Centre
#                                CCDC 
#
#######################################################################
#
# If this CIF has been generated from an entry in the Cambridge 
# Structural Database, then it will include bibliographic, chemical, 
# crystal, experimental, refinement or atomic coordinate data resulting 
# from the CCDC's data processing and validation procedures.
#
#######################################################################

data_XALLOM
_symmetry_cell_setting           triclinic
_symmetry_space_group_name_H-M   'P -1'
_symmetry_Int_Tables_number      2
_space_group_name_Hall           '-P 1'
loop_
_symmetry_equiv_pos_site_id
_symmetry_equiv_pos_as_xyz
1 x,y,z
2 -x,-y,-z
_cell_length_a                   12.0813(16)
_cell_length_b                   15.0042(19)
_cell_length_c                   15.599(2)
_cell_angle_alpha                114.896(14)
_cell_angle_beta                 90.231(11)
_cell_angle_gamma                109.244(12)
_cell_volume                     2387.66
loop_
_atom_site_label
_atom_site_type_symbol
_atom_site_fract_x
_atom_site_fract_y
_atom_site_fract_z
C2 C -0.4059(12) 0.5912(10) 0.1912(12)
C3 C -0.496(2) 0.6134(17) 0.1976(8)
Cl2 Cl -0.4120(4) 0.4643(2) 0.1055(4)
Cl3 Cl -0.5896(3) 0.5976(4) 0.1026(3)
Pr1 Pr -0.079094(18) 0.804527(15) 0.669997(14)
P1 P 0.10148(8) 1.05068(7) 0.64235(6)
P2 P 0.13379(8) 0.66147(7) 0.55622(6)
P3 P 0.10543(8) 0.90639(7) 0.91833(6)
O1 O 0.0603(2) 0.94988(17) 0.65316(15)
O2 O 0.0587(2) 0.72264(17) 0.61073(15)
O3 O 0.0405(2) 0.86402(17) 0.81863(15)
O4 O -0.1415(2) 0.64877(18) 0.71283(17)
O5 O -0.2409(2) 0.7526(2) 0.76355(18)
O6 O -0.2511(3) 0.6414(2) 0.8219(2)
O7 O -0.2240(2) 0.63658(18) 0.53154(16)
O8 O -0.1094(2) 0.75031(17) 0.48773(15)
O9 O -0.2246(3) 0.5944(2) 0.37999(17)
O10 O -0.2232(2) 0.87980(19) 0.63061(16)
O11 O -0.1352(2) 0.96521(19) 0.77774(16)
O12 O -0.2482(2) 1.0250(2) 0.72592(19)
N1 N -0.2125(3) 0.6797(3) 0.7675(2)
N2 N -0.1879(3) 0.6584(2) 0.4635(2)
N3 N -0.2035(3) 0.9590(2) 0.7124(2)
C4 C 0.0033(3) 1.0437(2) 0.5498(2)
H1 H -0.0759 1.0314 0.5663
H2 H 0.0307 1.1111 0.5476
C5 C 0.0634(3) 0.5242(3) 0.5276(2)
H3 H 0.1104 0.4856 0.4894
H4 H 0.0613 0.5167 0.5865
C6 C 0.0205(3) 0.9595(3) 1.0067(2)
H5 H -0.0489 0.9021 1.0041
H6 H 0.0682 0.9932 1.0698
C7 C 0.2495(3) 1.0769(3) 0.6142(2)
C8 C 0.2970(3) 1.1467(3) 0.5760(3)
H7 H 0.2501 1.1778 0.5605
C9 C 0.4136(4) 1.1705(3) 0.5607(3)
H8 H 0.4445 1.2168 0.5343
C10 C 0.4840(4) 1.1260(3) 0.5844(3)
H9 H 0.5625 1.1424 0.5741
C11 C 0.4386(4) 1.0573(3) 0.6233(3)
H10 H 0.4867 1.0279 0.6400
C12 C 0.3219(3) 1.0318(3) 0.6377(3)
H11 H 0.2913 0.9845 0.6632
C13 C 0.1097(3) 1.1630(3) 0.7517(2)
C14 C 0.1480(4) 1.1674(3) 0.8377(3)
H12 H 0.1649 1.1112 0.8376
C15 C 0.1614(4) 1.2539(3) 0.9235(3)
H13 H 0.1889 1.2563 0.9805
C16 C 0.1345(4) 1.3362(3) 0.9251(3)
H14 H 0.1419 1.3939 0.9831
C17 C 0.0968(5) 1.3329(4) 0.8407(3)
H15 H 0.0782 1.3887 0.8416
C18 C 0.0858(4) 1.2478(3) 0.7542(3)
H16 H 0.0623 1.2477 0.6972
C19 C 0.2774(3) 0.7090(3) 0.6254(2)
C20 C 0.3750(3) 0.7801(3) 0.6127(3)
H17 H 0.3667 0.7996 0.5645
C21 C 0.4839(4) 0.8225(4) 0.6697(3)
H18 H 0.5484 0.8695 0.6594
C22 C 0.4974(4) 0.7956(3) 0.7412(3)
H19 H 0.5710 0.8245 0.7800
C23 C 0.4016(4) 0.7252(4) 0.7560(3)
H20 H 0.4108 0.7066 0.8046
C24 C 0.2922(4) 0.6825(3) 0.6986(3)
H21 H 0.2279 0.6356 0.7092
C25 C 0.1550(3) 0.6727(3) 0.4466(2)
C26 C 0.1569(3) 0.7640(3) 0.4430(3)
H22 H 0.1420 0.8162 0.4951
C27 C 0.1811(4) 0.7768(4) 0.3610(3)
H23 H 0.1844 0.8386 0.3588
C28 C 0.2001(4) 0.6986(4) 0.2834(3)
H24 H 0.2150 0.7070 0.2284
C29 C 0.1972(4) 0.6082(4) 0.2865(3)
H25 H 0.2093 0.5553 0.2332
C30 C 0.1764(3) 0.5944(3) 0.3681(3)
H26 H 0.1768 0.5336 0.3704
C31 C 0.1292(3) 0.8048(3) 0.9396(2)
C32 C 0.0830(4) 0.7007(3) 0.8710(3)
H27 H 0.0407 0.6829 0.8125
C33 C 0.0997(4) 0.6229(3) 0.8892(4)
H28 H 0.0681 0.5528 0.8431
C34 C 0.1626(4) 0.6490(4) 0.9753(3)
H29 H 0.1750 0.5967 0.9867
C35 C 0.2073(4) 0.7517(3) 1.0444(3)
H30 H 0.2486 0.7690 1.1030
C36 C 0.1908(3) 0.8297(3) 1.0267(3)
H31 H 0.2213 0.8995 1.0735
C37 C 0.2471(3) 1.0075(3) 0.9390(2)
C38 C 0.3215(4) 0.9874(3) 0.8703(3)
H32 H 0.2979 0.9221 0.8167
C39 C 0.4292(4) 1.0640(4) 0.8819(3)
H33 H 0.4791 1.0496 0.8368
C40 C 0.4645(4) 1.1632(4) 0.9604(3)
H34 H 0.5367 1.2154 0.9669
C41 C 0.3921(4) 1.1835(3) 1.0282(3)
H35 H 0.4150 1.2496 1.0807
C42 C 0.2848(3) 1.1053(3) 1.0183(3)
H36 H 0.2375 1.1187 1.0655
C4A C -0.0033(3) 0.9563(2) 0.4502(2)
C5A C -0.0634(3) 0.4758(3) 0.4724(2)
C6A C -0.0205(3) 1.0405(3) 0.9933(2)
C1 C -0.4976(4) 0.5289(4) 0.5515(3)
Cl1 Cl -0.44083(13) 0.45334(12) 0.59811(12)
C1A C -0.5024(4) 0.4711(4) 0.4485(3)
C43? C -0.438(2) 0.5599(19) 0.1928(16)
Cl4? Cl -0.3686(4) 0.4641(2) 0.1495(3)
C44? C -0.5179(18) 0.5481(16) 0.1335(10)
Cl5? Cl -0.5623(5) 0.6602(5) 0.1567(5)
loop_
_geom_bond_atom_site_label_1
_geom_bond_atom_site_label_2
_geom_bond_site_symmetry_1
_geom_bond_site_symmetry_2
C1 Cl1 1_555 1_555
C2 C3 1_555 1_555
C3 Cl3 1_555 1_555
Cl2 C2 1_555 1_555
Pr1 O1 1_555 1_555
P1 O1 1_555 1_555
P2 O2 1_555 1_555
P3 O3 1_555 1_555
O2 Pr1 1_555 1_555
O3 Pr1 1_555 1_555
O4 Pr1 1_555 1_555
O5 Pr1 1_555 1_555
O6 N1 1_555 1_555
O7 Pr1 1_555 1_555
O8 Pr1 1_555 1_555
O9 N2 1_555 1_555
O10 Pr1 1_555 1_555
O11 Pr1 1_555 1_555
O12 N3 1_555 1_555
N1 O4 1_555 1_555
N2 O7 1_555 1_555
N3 O10 1_555 1_555
C4 P1 1_555 1_555
H1 C4 1_555 1_555
H2 C4 1_555 1_555
C5 P2 1_555 1_555
H3 C5 1_555 1_555
H4 C5 1_555 1_555
C6 P3 1_555 1_555
H5 C6 1_555 1_555
H6 C6 1_555 1_555
C7 P1 1_555 1_555
C8 C7 1_555 1_555
H7 C8 1_555 1_555
C9 C8 1_555 1_555
H8 C9 1_555 1_555
C10 C9 1_555 1_555
H9 C10 1_555 1_555
C11 C10 1_555 1_555
H10 C11 1_555 1_555
C12 C7 1_555 1_555
H11 C12 1_555 1_555
C13 P1 1_555 1_555
C14 C13 1_555 1_555
H12 C14 1_555 1_555
C15 C14 1_555 1_555
H13 C15 1_555 1_555
C16 C15 1_555 1_555
H14 C16 1_555 1_555
C17 C16 1_555 1_555
H15 C17 1_555 1_555
C18 C13 1_555 1_555
H16 C18 1_555 1_555
C19 P2 1_555 1_555
C20 C19 1_555 1_555
H17 C20 1_555 1_555
C21 C20 1_555 1_555
H18 C21 1_555 1_555
C22 C21 1_555 1_555
H19 C22 1_555 1_555
C23 C22 1_555 1_555
H20 C23 1_555 1_555
C24 C19 1_555 1_555
H21 C24 1_555 1_555
C25 P2 1_555 1_555
C26 C25 1_555 1_555
H22 C26 1_555 1_555
C27 C26 1_555 1_555
H23 C27 1_555 1_555
C28 C27 1_555 1_555
H24 C28 1_555 1_555
C29 C28 1_555 1_555
H25 C29 1_555 1_555
C30 C25 1_555 1_555
H26 C30 1_555 1_555
C31 P3 1_555 1_555
C32 C31 1_555 1_555
H27 C32 1_555 1_555
C33 C32 1_555 1_555
H28 C33 1_555 1_555
C34 C33 1_555 1_555
H29 C34 1_555 1_555
C35 C34 1_555 1_555
H30 C35 1_555 1_555
C36 C31 1_555 1_555
H31 C36 1_555 1_555
C37 P3 1_555 1_555
C38 C37 1_555 1_555
H32 C38 1_555 1_555
C39 C38 1_555 1_555
H33 C39 1_555 1_555
C40 C39 1_555 1_555
H34 C40 1_555 1_555
C41 C40 1_555 1_555
H35 C41 1_555 1_555
C42 C37 1_555 1_555
H36 C42 1_555 1_555
C1A C1 1_555 1_555
C4A C4 1_555 1_555
C5A C5 1_555 1_555
C6A C6 1_555 1_555
O5 N1 1_555 1_555
O8 N2 1_555 1_555
O11 N3 1_555 1_555
C11 C12 1_555 1_555
C17 C18 1_555 1_555
C23 C24 1_555 1_555
C29 C30 1_555 1_555
C35 C36 1_555 1_555
C41 C42 1_555 1_555

#END
