
#######################################################################
#
#                 Cambridge Crystallographic Data Centre
#                                CCDC 
#
#######################################################################
#
# If this CIF has been generated from an entry in the Cambridge 
# Structural Database, then it will include bibliographic, chemical, 
# crystal, experimental, refinement or atomic coordinate data resulting 
# from the CCDC's data processing and validation procedures.
#
#######################################################################

data_XALLIG
_symmetry_cell_setting           orthorhombic
_symmetry_space_group_name_H-M   'P 21 21 21'
_symmetry_Int_Tables_number      19
_space_group_name_Hall           'P 2ac 2ab'
loop_
_symmetry_equiv_pos_site_id
_symmetry_equiv_pos_as_xyz
1 x,y,z
2 1/2-x,-y,1/2+z
3 -x,1/2+y,1/2-z
4 1/2+x,1/2-y,-z
_cell_length_a                   11.4800(3)
_cell_length_b                   12.8012(4)
_cell_length_c                   28.1994(8)
_cell_angle_alpha                90
_cell_angle_beta                 90
_cell_angle_gamma                90
_cell_volume                     4144.12
loop_
_atom_site_label
_atom_site_type_symbol
_atom_site_fract_x
_atom_site_fract_y
_atom_site_fract_z
Cu1 Cu -0.29002(4) 1.17857(3) 0.268059(14)
O1 O -0.2308(2) 1.26305(17) 0.31765(8)
O2 O -0.32399(19) 1.29993(16) 0.23184(8)
O3 O -0.3549(2) 0.80370(18) 0.25241(8)
O4 O -0.2604(2) 0.9024(2) 0.16705(9)
O5 O 0.1333(2) 0.6378(2) 0.28927(9)
O6 O -0.1629(2) 0.79583(19) 0.36879(9)
N1 N -0.2419(2) 1.0517(2) 0.30091(10)
N2 N -0.3889(2) 1.08785(19) 0.22916(10)
N3 N -0.1698(2) 0.7939(2) 0.28777(10)
N4 N -0.0118(3) 0.7211(2) 0.32836(11)
C1 C -0.1799(3) 1.2362(3) 0.35704(12)
C2 C -0.1467(3) 1.3163(3) 0.38978(11)
C3 C -0.0874(3) 1.2873(3) 0.43051(13)
H1 H -0.0644 1.3411 0.4517
C4 C -0.0588(3) 1.1835(3) 0.44279(12)
C5 C -0.0939(3) 1.1075(3) 0.41177(13)
H2 H -0.0771 1.0366 0.4191
C6 C -0.1541(3) 1.1304(3) 0.36928(13)
C7 C -0.1868(3) 1.0432(3) 0.34007(12)
H3 H -0.1662 0.9751 0.3505
C8 C 0.0085(3) 1.1614(3) 0.48877(13)
C9 C 0.0264(5) 1.0442(4) 0.49641(18)
H4 H 0.0693 1.0328 0.5260
H5 H 0.0710 1.0153 0.4698
H6 H -0.0495 1.0095 0.4983
C10 C -0.0577(4) 1.2079(5) 0.53046(14)
H7 H -0.0686 1.2830 0.5253
H8 H -0.0133 1.1967 0.5597
H9 H -0.1339 1.1739 0.5332
C11 C 0.1291(4) 1.2126(4) 0.48596(15)
H10 H 0.1202 1.2880 0.4814
H11 H 0.1725 1.1830 0.4592
H12 H 0.1718 1.1994 0.5155
C12 C -0.1767(3) 1.4309(3) 0.37849(12)
C13 C -0.1133(4) 1.4653(3) 0.33285(14)
H13 H -0.0290 1.4579 0.3372
H14 H -0.1320 1.5385 0.3260
H15 H -0.1385 1.4213 0.3063
C14 C -0.1422(4) 1.5037(3) 0.41897(14)
H16 H -0.0583 1.4978 0.4248
H17 H -0.1848 1.4840 0.4477
H18 H -0.1614 1.5759 0.4104
C15 C -0.3094(3) 1.4433(3) 0.37074(14)
H19 H -0.3510 1.4219 0.3995
H20 H -0.3341 1.3994 0.3441
H21 H -0.3274 1.5165 0.3637
C16 C -0.3723(3) 1.3037(3) 0.19018(11)
C17 C -0.3596(3) 1.3966(3) 0.16141(12)
C18 C -0.4198(3) 1.4015(3) 0.11903(13)
H22 H -0.4118 1.4632 0.1006
C19 C -0.4920(3) 1.3218(3) 0.10120(11)
C20 C -0.4990(3) 1.2323(3) 0.12731(12)
H23 H -0.5454 1.1764 0.1158
C21 C -0.4396(3) 1.2198(3) 0.17104(13)
C22 C -0.4472(3) 1.1179(3) 0.19271(12)
H24 H -0.4995 1.0691 0.1789
C23 C -0.5517(4) 1.3357(3) 0.05242(13)
C24 C -0.6262(5) 1.4350(4) 0.05283(19)
H25 H -0.6637 1.4437 0.0219
H26 H -0.5766 1.4955 0.0594
H27 H -0.6860 1.4291 0.0775
C25 C -0.4565(5) 1.3437(5) 0.01469(15)
H28 H -0.4100 1.2795 0.0147
H29 H -0.4061 1.4035 0.0217
H30 H -0.4924 1.3532 -0.0165
C26 C -0.6312(4) 1.2440(3) 0.04030(14)
H31 H -0.5852 1.1795 0.0392
H32 H -0.6676 1.2560 0.0093
H33 H -0.6918 1.2375 0.0646
C27 C -0.2777(4) 1.4853(3) 0.17755(13)
C28 C -0.1536(3) 1.4424(3) 0.18422(15)
H34 H -0.1550 1.3853 0.2074
H35 H -0.1026 1.4983 0.1957
H36 H -0.1243 1.4163 0.1538
C29 C -0.3177(3) 1.5350(3) 0.22461(13)
H37 H -0.3232 1.4808 0.2491
H38 H -0.3941 1.5676 0.2202
H39 H -0.2612 1.5880 0.2345
C30 C -0.2700(4) 1.5736(3) 0.14066(14)
H40 H -0.2443 1.5447 0.1102
H41 H -0.2140 1.6263 0.1514
H42 H -0.3468 1.6059 0.1368
C31 C -0.2808(3) 0.8523(2) 0.28715(12)
H43 H -0.3184 0.8507 0.3191
C32 C -0.2688(3) 0.9637(2) 0.26967(13)
H44 H -0.2120 0.9643 0.2428
C33 C -0.3904(3) 0.9831(2) 0.24962(12)
H45 H -0.4447 0.9857 0.2773
C34 C -0.4158(3) 0.8807(3) 0.22341(12)
H46 H -0.5013 0.8665 0.2253
C35 C -0.3784(3) 0.8708(3) 0.17250(13)
H47 H -0.3871 0.7974 0.1621
H48 H -0.4289 0.9149 0.1523
C36 C -0.2239(4) 0.8996(4) 0.11909(13)
H49 H -0.1425 0.9223 0.1170
H50 H -0.2730 0.9464 0.1002
H51 H -0.2309 0.8281 0.1069
C37 C -0.1178(3) 0.7686(3) 0.24525(12)
H52 H -0.1544 0.7891 0.2165
C38 C -0.0171(3) 0.7159(3) 0.24331(13)
H53 H 0.0153 0.6975 0.2135
C39 C 0.0424(3) 0.6870(3) 0.28652(12)
C40 C -0.1185(3) 0.7708(3) 0.33099(13)
C41 C 0.0512(3) 0.7029(3) 0.37299(13)
H54 H 0.0050 0.7296 0.3996
H55 H 0.1264 0.7391 0.3720
H56 H 0.0642 0.6278 0.3772
Cu1B Cu 0.29002(4) 0.67857(3) 0.231941(14)
O5B O -0.1333(2) 1.1378(2) 0.21073(9)
loop_
_geom_bond_atom_site_label_1
_geom_bond_atom_site_label_2
_geom_bond_site_symmetry_1
_geom_bond_site_symmetry_2
Cu1 O1 1_555 1_555
O1 C1 1_555 1_555
O2 Cu1 1_555 1_555
O3 C31 1_555 1_555
O4 C35 1_555 1_555
O5 C39 1_555 1_555
O6 C40 1_555 1_555
N1 Cu1 1_555 1_555
N2 Cu1 1_555 1_555
N3 C31 1_555 1_555
N4 C39 1_555 1_555
C1 C2 1_555 1_555
C2 C3 1_555 1_555
C3 H1 1_555 1_555
C4 C3 1_555 1_555
C5 C4 1_555 1_555
H2 C5 1_555 1_555
C6 C1 1_555 1_555
C7 N1 1_555 1_555
H3 C7 1_555 1_555
C8 C4 1_555 1_555
C9 C8 1_555 1_555
H4 C9 1_555 1_555
H5 C9 1_555 1_555
H6 C9 1_555 1_555
C10 C8 1_555 1_555
H7 C10 1_555 1_555
H8 C10 1_555 1_555
H9 C10 1_555 1_555
C11 C8 1_555 1_555
H10 C11 1_555 1_555
H11 C11 1_555 1_555
H12 C11 1_555 1_555
C12 C2 1_555 1_555
C13 C12 1_555 1_555
H13 C13 1_555 1_555
H14 C13 1_555 1_555
H15 C13 1_555 1_555
C14 C12 1_555 1_555
H16 C14 1_555 1_555
H17 C14 1_555 1_555
H18 C14 1_555 1_555
C15 C12 1_555 1_555
H19 C15 1_555 1_555
H20 C15 1_555 1_555
H21 C15 1_555 1_555
C16 O2 1_555 1_555
C17 C16 1_555 1_555
C18 C17 1_555 1_555
H22 C18 1_555 1_555
C19 C18 1_555 1_555
C20 C19 1_555 1_555
H23 C20 1_555 1_555
C21 C16 1_555 1_555
C22 N2 1_555 1_555
H24 C22 1_555 1_555
C23 C19 1_555 1_555
C24 C23 1_555 1_555
H25 C24 1_555 1_555
H26 C24 1_555 1_555
H27 C24 1_555 1_555
C25 C23 1_555 1_555
H28 C25 1_555 1_555
H29 C25 1_555 1_555
H30 C25 1_555 1_555
C26 C23 1_555 1_555
H31 C26 1_555 1_555
H32 C26 1_555 1_555
H33 C26 1_555 1_555
C27 C17 1_555 1_555
C28 C27 1_555 1_555
H34 C28 1_555 1_555
H35 C28 1_555 1_555
H36 C28 1_555 1_555
C29 C27 1_555 1_555
H37 C29 1_555 1_555
H38 C29 1_555 1_555
H39 C29 1_555 1_555
C30 C27 1_555 1_555
H40 C30 1_555 1_555
H41 C30 1_555 1_555
H42 C30 1_555 1_555
C31 H43 1_555 1_555
C32 N1 1_555 1_555
H44 C32 1_555 1_555
C33 N2 1_555 1_555
H45 C33 1_555 1_555
C34 O3 1_555 1_555
H46 C34 1_555 1_555
C35 C34 1_555 1_555
H47 C35 1_555 1_555
H48 C35 1_555 1_555
C36 O4 1_555 1_555
H49 C36 1_555 1_555
H50 C36 1_555 1_555
H51 C36 1_555 1_555
C37 N3 1_555 1_555
H52 C37 1_555 1_555
C38 C37 1_555 1_555
H53 C38 1_555 1_555
C39 C38 1_555 1_555
C40 N3 1_555 1_555
C41 N4 1_555 1_555
H54 C41 1_555 1_555
H55 C41 1_555 1_555
H56 C41 1_555 1_555
Cu1B O5 1_555 1_555
O5B Cu1 1_555 1_555
N4 C40 1_555 1_555
C5 C6 1_555 1_555
C6 C7 1_555 1_555
C20 C21 1_555 1_555
C21 C22 1_555 1_555
C31 C32 1_555 1_555
C32 C33 1_555 1_555
C33 C34 1_555 1_555

#END
