
#######################################################################
#
#                 Cambridge Crystallographic Data Centre
#                                CCDC 
#
#######################################################################
#
# If this CIF has been generated from an entry in the Cambridge 
# Structural Database, then it will include bibliographic, chemical, 
# crystal, experimental, refinement or atomic coordinate data resulting 
# from the CCDC's data processing and validation procedures.
#
#######################################################################

data_XALLIH
_symmetry_cell_setting           monoclinic
_symmetry_space_group_name_H-M   'P 21/c'
_symmetry_Int_Tables_number      14
_space_group_name_Hall           '-P 2ybc'
loop_
_symmetry_equiv_pos_site_id
_symmetry_equiv_pos_as_xyz
1 x,y,z
2 -x,1/2+y,1/2-z
3 -x,-y,-z
4 x,1/2-y,1/2+z
_cell_length_a                   22.925(4)
_cell_length_b                   14.316(3)
_cell_length_c                   14.0547(19)
_cell_angle_alpha                90
_cell_angle_beta                 101.946(15)
_cell_angle_gamma                90
_cell_volume                     4512.78
loop_
_atom_site_label
_atom_site_type_symbol
_atom_site_fract_x
_atom_site_fract_y
_atom_site_fract_z
U1 U 0.40895(5) 0.75529(8) 0.64394(6)
O1 O 0.3538(9) 0.7959(16) 0.5350(12)
O2 O 0.4651(9) 0.7093(16) 0.7399(13)
U2 U 0.14516(5) 0.68269(10) 0.79940(8)
O3 O 0.1970(8) 0.7018(16) 0.7183(12)
O4 O 0.0918(9) 0.666(2) 0.8743(14)
K1 K 0.2398(3) 0.7944(6) 0.5781(4)
K2 K 0.3092(3) 0.7900(5) 0.3469(4)
O5 O 0.3568(8) 0.8427(13) 0.7457(12)
O6 O 0.3440(8) 0.6381(14) 0.6692(11)
N1 N 0.4643(11) 0.9160(17) 0.6857(14)
N2 N 0.4917(12) 0.795(2) 0.5432(17)
N3 N 0.4242(9) 0.6184(18) 0.5333(13)
C1 C 0.3446(14) 0.927(2) 0.757(2)
C2 C 0.2936(15) 0.955(2) 0.7904(19)
H1 H 0.2648 0.9104 0.7998
C3 C 0.2856(12) 1.047(3) 0.809(2)
H2 H 0.2497 1.0647 0.8274
C4 C 0.3280(18) 1.116(2) 0.802(2)
H3 H 0.3217 1.1792 0.8181
C5 C 0.3778(17) 1.090(3) 0.772(2)
H4 H 0.4065 1.1371 0.7671
C6 C 0.3889(14) 1.002(2) 0.749(2)
C7 C 0.4412(14) 0.990(2) 0.7195(17)
H5 H 0.4653 1.0446 0.7239
C8 C 0.5203(12) 0.920(2) 0.657(2)
H6 H 0.5516 0.9361 0.7141
H7 H 0.5188 0.9707 0.6084
C9 C 0.5386(14) 0.827(3) 0.612(3)
H8 H 0.5732 0.8389 0.5814
H9 H 0.5503 0.7799 0.6634
C10 C 0.5062(16) 0.700(3) 0.502(3)
H10 H 0.5304 0.7117 0.4527
H11 H 0.5314 0.6643 0.5557
C11 C 0.4592(12) 0.645(2) 0.4612(15)
H12 H 0.4741 0.5880 0.4341
H13 H 0.4334 0.6792 0.4071
C12 C 0.4042(13) 0.535(2) 0.535(2)
H14 H 0.4118 0.4941 0.4860
C13 C 0.3721(13) 0.495(3) 0.602(2)
C14 C 0.3657(14) 0.398(2) 0.599(2)
H15 H 0.3783 0.3647 0.5484
C15 C 0.3430(15) 0.350(2) 0.664(2)
H16 H 0.3423 0.2835 0.6629
C16 C 0.3199(16) 0.400(2) 0.735(2)
H17 H 0.3051 0.3669 0.7837
C17 C 0.3188(13) 0.492(3) 0.7337(16)
H18 H 0.2995 0.5235 0.7782
C18 C 0.3449(13) 0.547(2) 0.6697(18)
C19 C 0.4717(17) 0.859(3) 0.466(3)
H19 H 0.4470 0.9075 0.4882
H20 H 0.4481 0.8263 0.4103
H21 H 0.5062 0.8889 0.4475
O7 O 0.1915(10) 0.6978(19) 0.3990(15)
O8 O 0.2194(8) 0.9101(15) 0.3984(12)
N4 N 0.0912(15) 0.659(3) 0.2331(19)
N5 N 0.0572(11) 0.840(3) 0.1421(15)
N6 N 0.1258(12) 0.993(2) 0.2505(17)
C20 C 0.1802(12) 0.610(2) 0.417(2)
C21 C 0.2172(14) 0.565(3) 0.499(2)
H22 H 0.2494 0.5981 0.5380
C22 C 0.2053(15) 0.474(2) 0.519(2)
H23 H 0.2275 0.4465 0.5769
C23 C 0.1618(14) 0.418(3) 0.458(2)
H24 H 0.1558 0.3540 0.4724
C24 C 0.1300(15) 0.459(3) 0.380(2)
H25 H 0.1018 0.4210 0.3377
C25 C 0.1335(14) 0.552(3) 0.352(2)
C26 C 0.0911(17) 0.584(3) 0.268(3)
H26 H 0.0608 0.5411 0.2392
C27 C 0.0366(19) 0.671(4) 0.149(3)
H27 H 0.0484 0.6570 0.0869
H28 H 0.0056 0.6253 0.1577
C28 C 0.0080(19) 0.779(4) 0.145(2)
H29 H -0.0088 0.7920 0.2030
H30 H -0.0238 0.7874 0.0860
C29 C 0.0361(18) 0.937(4) 0.157(3)
H31 H 0.0165 0.9340 0.2130
H32 H 0.0043 0.9511 0.0991
C30 C 0.0729(17) 1.014(3) 0.171(3)
H33 H 0.0862 1.0287 0.1101
H34 H 0.0509 1.0681 0.1890
C31 C 0.1504(16) 1.067(3) 0.296(2)
H35 H 0.1321 1.1254 0.2765
C32 C 0.2015(15) 1.069(2) 0.372(2)
C33 C 0.2200(17) 1.162(3) 0.404(2)
H36 H 0.1977 1.2148 0.3755
C34 C 0.2680(18) 1.175(3) 0.473(2)
H37 H 0.2769 1.2369 0.4955
C35 C 0.3063(14) 1.1054(19) 0.5154(18)
H38 H 0.3429 1.1180 0.5593
C36 C 0.2872(13) 1.017(2) 0.4890(17)
H39 H 0.3116 0.9665 0.5180
C37 C 0.2363(15) 0.995(2) 0.425(2)
C38 C 0.0762(8) 0.8345(15) 0.0523(10)
H40 H 0.0457 0.8620 0.0006
H41 H 0.1137 0.8689 0.0574
H42 H 0.0824 0.7690 0.0369
U2C U 0.14516(5) 0.81731(10) 0.29940(8)
O3C O 0.1970(8) 0.7982(16) 0.2183(12)
K2C K 0.3092(3) 0.7100(5) 0.8469(4)
O5C O 0.3568(8) 0.6573(13) 0.2457(12)
O6C O 0.3440(8) 0.8619(14) 0.1692(11)
O7C O 0.1915(10) 0.8022(19) 0.8990(15)
O8C O 0.2194(8) 0.5899(15) 0.8984(12)
N4C N 0.0912(15) 0.841(3) 0.7331(19)
N5C N 0.0572(11) 0.660(3) 0.6421(15)
N6C N 0.1258(12) 0.507(2) 0.7505(17)
N7 N 0.1578(8) 0.1876(15) 0.6535(10)
C39 C 0.1631(8) 0.1036(15) 0.6061(10)
H43 H 0.2015 0.0796 0.6040
C40 C 0.1123(8) 0.0547(15) 0.5621(10)
H44 H 0.1159 -0.0026 0.5297
C41 C 0.0562(8) 0.0898(15) 0.5654(10)
H45 H 0.0215 0.0565 0.5352
C42 C 0.0509(8) 0.1738(15) 0.6127(10)
H46 H 0.0126 0.1978 0.6149
C43 C 0.1017(8) 0.2227(15) 0.6568(10)
H47 H 0.0981 0.2800 0.6891
loop_
_geom_bond_atom_site_label_1
_geom_bond_atom_site_label_2
_geom_bond_site_symmetry_1
_geom_bond_site_symmetry_2
U1 O1 1_555 1_555
O1 K1 1_555 1_555
O2 U1 1_555 1_555
U2 O3 1_555 1_555
O3 K1 1_555 1_555
O4 U2 1_555 1_555
K1 O5 1_555 1_555
K2 O1 1_555 1_555
O5 U1 1_555 1_555
O6 U1 1_555 1_555
N1 U1 1_555 1_555
N2 U1 1_555 1_555
N3 U1 1_555 1_555
C1 O5 1_555 1_555
C2 C1 1_555 1_555
H1 C2 1_555 1_555
C3 C2 1_555 1_555
H2 C3 1_555 1_555
C4 C3 1_555 1_555
H3 C4 1_555 1_555
C5 C4 1_555 1_555
H4 C5 1_555 1_555
C6 C1 1_555 1_555
C7 N1 1_555 1_555
H5 C7 1_555 1_555
C8 N1 1_555 1_555
H6 C8 1_555 1_555
H7 C8 1_555 1_555
C9 N2 1_555 1_555
H8 C9 1_555 1_555
H9 C9 1_555 1_555
C10 N2 1_555 1_555
H10 C10 1_555 1_555
H11 C10 1_555 1_555
C11 N3 1_555 1_555
H12 C11 1_555 1_555
H13 C11 1_555 1_555
C12 N3 1_555 1_555
H14 C12 1_555 1_555
C13 C12 1_555 1_555
C14 C13 1_555 1_555
H15 C14 1_555 1_555
C15 C14 1_555 1_555
H16 C15 1_555 1_555
C16 C15 1_555 1_555
H17 C16 1_555 1_555
C17 C16 1_555 1_555
H18 C17 1_555 1_555
C18 O6 1_555 1_555
C19 N2 1_555 1_555
H19 C19 1_555 1_555
H20 C19 1_555 1_555
H21 C19 1_555 1_555
O7 K1 1_555 1_555
O8 K1 1_555 1_555
N4 C26 1_555 1_555
N5 C28 1_555 1_555
N6 C30 1_555 1_555
C20 O7 1_555 1_555
C21 C20 1_555 1_555
H22 C21 1_555 1_555
C22 C21 1_555 1_555
H23 C22 1_555 1_555
C23 C22 1_555 1_555
H24 C23 1_555 1_555
C24 C23 1_555 1_555
H25 C24 1_555 1_555
C25 C20 1_555 1_555
C26 C25 1_555 1_555
H26 C26 1_555 1_555
C27 N4 1_555 1_555
H27 C27 1_555 1_555
H28 C27 1_555 1_555
C28 C27 1_555 1_555
H29 C28 1_555 1_555
H30 C28 1_555 1_555
C29 N5 1_555 1_555
H31 C29 1_555 1_555
H32 C29 1_555 1_555
C30 C29 1_555 1_555
H33 C30 1_555 1_555
H34 C30 1_555 1_555
C31 N6 1_555 1_555
H35 C31 1_555 1_555
C32 C31 1_555 1_555
C33 C32 1_555 1_555
H36 C33 1_555 1_555
C34 C33 1_555 1_555
H37 C34 1_555 1_555
C35 C34 1_555 1_555
H38 C35 1_555 1_555
C36 C35 1_555 1_555
H39 C36 1_555 1_555
C37 O8 1_555 1_555
C38 N5 1_555 1_555
H40 C38 1_555 1_555
H41 C38 1_555 1_555
H42 C38 1_555 1_555
N7 C39 1_555 1_555
C39 H43 1_555 1_555
C40 C39 1_555 1_555
H44 C40 1_555 1_555
C41 C40 1_555 1_555
H45 C41 1_555 1_555
C42 C41 1_555 1_555
H46 C42 1_555 1_555
C43 N7 1_555 1_555
H47 C43 1_555 1_555
U2C O7 1_555 1_555
O3C K2 1_555 1_555
K2C O3 1_555 1_555
O5C K2 1_555 1_555
O6C K2 1_555 1_555
O7C U2 1_555 1_555
O8C U2 1_555 1_555
N4C U2 1_555 1_555
N5C U2 1_555 1_555
N6C U2 1_555 1_555
K1 O6 1_555 1_555
K2 O7 1_555 1_555
K2 O8 1_555 1_555
O5 K2C 1_555 1_555
O6 K2C 1_555 1_555
C5 C6 1_555 1_555
C6 C7 1_555 1_555
C8 C9 1_555 1_555
C10 C11 1_555 1_555
C13 C18 1_555 1_555
C17 C18 1_555 1_555
O8 U2C 1_555 1_555
N4 U2C 1_555 1_555
N5 U2C 1_555 1_555
N6 U2C 1_555 1_555
C24 C25 1_555 1_555
C32 C37 1_555 1_555
C36 C37 1_555 1_555
C42 C43 1_555 1_555
U2C O3C 1_555 1_555
K2C O7C 1_555 1_555
K2C O8C 1_555 1_555

#END
