
#######################################################################
#
#                 Cambridge Crystallographic Data Centre
#                                CCDC 
#
#######################################################################
#
# If this CIF has been generated from an entry in the Cambridge 
# Structural Database, then it will include bibliographic, chemical, 
# crystal, experimental, refinement or atomic coordinate data resulting 
# from the CCDC's data processing and validation procedures.
#
#######################################################################

data_XALMED
_symmetry_cell_setting           triclinic
_symmetry_space_group_name_H-M   'P -1'
_symmetry_Int_Tables_number      2
_space_group_name_Hall           '-P 1'
loop_
_symmetry_equiv_pos_site_id
_symmetry_equiv_pos_as_xyz
1 x,y,z
2 -x,-y,-z
_cell_length_a                   13.049(11)
_cell_length_b                   13.874(11)
_cell_length_c                   15.028(12)
_cell_angle_alpha                106.09(7)
_cell_angle_beta                 96.71(7)
_cell_angle_gamma                116.24(8)
_cell_volume                     2252.47
loop_
_atom_site_label
_atom_site_type_symbol
_atom_site_fract_x
_atom_site_fract_y
_atom_site_fract_z
Nd1 Nd 0.771946(14) 0.511267(15) 0.732793(12)
P1 P 0.86058(7) 0.34789(7) 0.87211(6)
P2 P 1.06358(7) 0.62401(7) 0.65189(6)
P3 P 0.65392(7) 0.66456(7) 0.60879(6)
Cl1 Cl 0.55970(8) 0.44328(9) 0.77348(7)
Cl2 Cl 0.89940(7) 0.70280(8) 0.90368(6)
Cl3 Cl 0.67852(7) 0.32517(7) 0.55731(6)
O1 O 0.82186(19) 0.40622(18) 0.81312(15)
O2 O 0.72455(19) 0.62176(19) 0.65928(15)
O3 O 0.95000(19) 0.57861(19) 0.68306(15)
C1 C 1.2807(4) 0.9633(3) 0.6814(3)
H1 H 1.3371 1.0047 0.6524
C2 C 1.1704(4) 0.9640(3) 0.8018(3)
H2 H 1.1529 1.0057 0.8537
C3 C 1.2533(4) 1.0231(3) 0.7581(3)
H3 H 1.2918 1.1050 0.7807
C4 C 0.8482(4) 0.8199(3) 0.4031(3)
H4 H 0.8897 0.8540 0.3624
C5 C 0.6956(3) 0.2017(3) 1.0565(2)
H5 H 0.7141 0.1769 1.1060
C6 C 1.0031(3) 0.4496(3) 0.9625(2)
H6 H 1.0266 0.4080 0.9969
H7 H 1.0646 0.4827 0.9301
C7 C 0.8472(3) 0.7515(3) 0.5358(3)
H8 H 0.8871 0.7386 0.5844
C8 C 1.1103(3) 0.4823(3) 0.7303(3)
H9 H 1.0278 0.4455 0.7258
C9 C 0.9080(3) 0.8011(3) 0.4749(3)
H10 H 0.9892 0.8220 0.4822
C10 C 0.5016(3) 0.5489(3) 0.5418(2)
H11 H 0.4611 0.5159 0.5865
H12 H 0.4576 0.5818 0.5151
C11 C 0.8202(3) 0.1898(3) 0.6917(2)
H13 H 0.7820 0.2256 0.6677
C12 C 0.7526(3) 0.2873(3) 0.9357(2)
C13 C 0.5829(3) 0.1888(3) 1.0293(3)
H14 H 0.5251 0.1553 1.0606
C14 C 0.5762(3) 0.9218(3) 0.7329(3)
H15 H 0.5357 0.9575 0.7120
C15 C 0.9331(3) 0.0832(3) 0.7635(3)
H16 H 0.9712 0.0472 0.7873
C16 C 0.6434(3) 0.7790(3) 0.6956(2)
C17 C 0.6974(3) 0.8159(3) 0.7953(2)
H17 H 0.7386 0.7811 0.8167
C18 C 0.8790(3) 0.0428(3) 0.6639(3)
H18 H 0.8800 -0.0212 0.6207
C19 C 0.8738(3) 0.2307(3) 0.7922(2)
C20 C 0.7815(3) 0.2512(3) 1.0104(2)
H19 H 0.8585 0.2607 1.0290
C21 C 0.6667(3) 0.7394(3) 0.4516(2)
H20 H 0.5855 0.7187 0.4439
C22 C 1.1131(3) 0.8430(3) 0.7688(2)
H21 H 1.0565 0.8024 0.7981
C23 C 1.2830(3) 0.6294(3) 0.7059(2)
H22 H 1.3178 0.6922 0.6847
C24 C 0.5831(3) 0.8328(3) 0.6651(3)
H23 H 0.5470 0.8088 0.5984
C25 C 0.7287(4) 0.7890(3) 0.3908(3)
H24 H 0.6891 0.8013 0.3415
C26 C 0.6392(3) 0.2745(3) 0.9088(3)
H25 H 0.6200 0.2990 0.8593
C27 C 0.7267(3) 0.7210(3) 0.5241(2)
C28 C 0.9302(3) 0.1773(3) 0.8275(3)
H26 H 0.9664 0.2047 0.8947
C29 C 0.8237(3) 0.0969(3) 0.6281(3)
H27 H 0.7887 0.0702 0.5608
C30 C 1.1402(3) 0.7812(3) 0.6911(2)
C31 C 1.3538(3) 0.5884(3) 0.7429(3)
H28 H 1.4363 0.6247 0.7473
C32 C 1.1612(3) 0.5773(3) 0.7005(2)
C33 C 1.1818(3) 0.4421(4) 0.7666(3)
H29 H 1.1474 0.3787 0.7870
C34 C 1.2246(3) 0.8424(3) 0.6479(3)
H30 H 1.2431 0.8016 0.5962
C35 C 0.6897(3) 0.9051(3) 0.8625(3)
H31 H 0.7255 0.9296 0.9293
C36 C 0.5539(3) 0.2248(4) 0.9562(3)
H32 H 0.4769 0.2157 0.9386
C37 C 1.3038(3) 0.4956(4) 0.7728(3)
H33 H 1.3519 0.4684 0.7972
C38 C 0.6296(3) 0.9575(3) 0.8316(3)
H34 H 0.6249 1.0173 0.8774
C39 C 1.0328(3) 0.5674(3) 0.5206(2)
H35 H 0.9830 0.5940 0.4918
H36 H 1.1085 0.5978 0.5029
Nd1A Nd 1.228054(14) 0.488733(15) 1.267207(12)
Nd1A_2 Nd 1.228054(14) 0.488733(15) 0.267207(12)
Nd1A_3 Nd 0.228054(14) 0.488733(15) 0.267207(12)
P1A P 1.13942(7) 0.65211(7) 1.12789(6)
P2A P 0.93642(7) 0.37599(7) 0.34811(6)
P3A P 0.34608(7) 0.33544(7) 0.39121(6)
Cl1A Cl 1.44030(8) 0.55672(9) 1.22652(7)
Cl2A Cl 1.10060(7) 0.29720(8) 1.09632(6)
Cl3A Cl 1.32148(7) 0.67483(7) 1.44269(6)
O1A O 1.17814(19) 0.59378(18) 1.18688(15)
O2A O 0.27545(19) 0.37824(19) 0.34072(15)
O2A_2 O 1.27545(19) 0.37824(19) 1.34072(15)
O3A O 1.05000(19) 0.42139(19) 0.31694(15)
O3A_2 O 1.05000(19) 0.42139(19) 1.31694(15)
C1A C 0.7193(4) 0.0367(3) 0.3186(3)
H1A H 0.6629 -0.0047 0.3476
C2A C 0.8296(4) 0.0360(3) 0.1982(3)
H2A H 0.8471 -0.0057 0.1463
C3A C 0.7467(4) -0.0231(3) 0.2419(3)
H3A H 0.7082 -0.1050 0.2193
C4A C 0.1518(4) 0.1801(3) 0.5969(3)
H4A H 0.1103 0.1460 0.6376
C5A C 1.3044(3) 0.7983(3) 0.9435(2)
H5A H 1.2859 0.8231 0.8940
C6A C 0.9969(3) 0.5504(3) 1.0375(2)
H6A H 0.9734 0.5920 1.0031
H7A H 0.9354 0.5173 1.0699
C7A C 0.1528(3) 0.2485(3) 0.4642(3)
H8A H 0.1129 0.2614 0.4156
C8A C 0.8897(3) 0.5177(3) 0.2697(3)
H9A H 0.9722 0.5545 0.2742
C9A C 0.0920(3) 0.1989(3) 0.5251(3)
H10A H 0.0108 0.1780 0.5178
C10A C 0.4984(3) 0.4511(3) 0.4582(2)
H11A H 0.5389 0.4841 0.4135
H12A H 0.5424 0.4182 0.4849
C11A C 1.1798(3) 0.8102(3) 1.3083(2)
H13A H 1.2180 0.7744 1.3323
C12A C 1.2474(3) 0.7127(3) 1.0643(2)
C13A C 1.4171(3) 0.8112(3) 0.9707(3)
H14A H 1.4749 0.8447 0.9394
C14A C 0.4238(3) 0.0782(3) 0.2671(3)
H15A H 0.4643 0.0425 0.2880
C15A C 1.0669(3) 0.9168(3) 1.2365(3)
H16A H 1.0288 0.9528 1.2127
C16A C 0.3566(3) 0.2210(3) 0.3044(2)
C17A C 0.3026(3) 0.1841(3) 0.2047(2)
H17A H 0.2614 0.2189 0.1833
C18A C 1.1210(3) 0.9572(3) 1.3361(3)
H18A H 1.1200 1.0212 1.3793
C19A C 1.1262(3) 0.7693(3) 1.2078(2)
C20A C 1.2185(3) 0.7488(3) 0.9896(2)
H19A H 1.1415 0.7393 0.9710
C21A C 0.3333(3) 0.2606(3) 0.5484(2)
H20A H 0.4145 0.2813 0.5561
C22A C 0.8869(3) 0.1570(3) 0.2312(2)
H21A H 0.9435 0.1976 0.2019
C23A C 0.7170(3) 0.3706(3) 0.2941(2)
H22A H 0.6822 0.3078 0.3153
C24A C 0.4169(3) 0.1672(3) 0.3349(3)
H23A H 0.4530 0.1912 0.4016
C25A C 0.2713(4) 0.2110(3) 0.6092(3)
H24A H 0.3109 0.1987 0.6585
C26A C 1.3608(3) 0.7255(3) 1.0912(3)
H25A H 1.3800 0.7010 1.1407
C27A C 0.2733(3) 0.2790(3) 0.4759(2)
C28A C 1.0698(3) 0.8227(3) 1.1725(3)
H26A H 1.0336 0.7953 1.1053
C29A C 1.1763(3) 0.9031(3) 1.3719(3)
H27A H 1.2113 0.9298 1.4392
C30A C 0.8598(3) 0.2188(3) 0.3089(2)
C31A C 0.6462(3) 0.4116(3) 0.2571(3)
H28A H 0.5637 0.3753 0.2527
C32A C 0.8388(3) 0.4227(3) 0.2995(2)
C33A C 0.8182(3) 0.5579(4) 0.2334(3)
H29A H 0.8526 0.6213 0.2130
C34A C 0.7754(3) 0.1576(3) 0.3521(3)
H30A H 0.7569 0.1984 0.4038
C35A C 0.3103(3) 0.0949(3) 0.1375(3)
H31A H 0.2745 0.0704 0.0707
C36A C 1.4461(3) 0.7752(4) 1.0438(3)
H32A H 1.5231 0.7843 1.0614
C37A C 0.6962(3) 0.5044(4) 0.2272(3)
H33A H 0.6481 0.5316 0.2028
C38A C 0.3704(3) 0.0425(3) 0.1684(3)
H34A H 0.3751 -0.0173 0.1226
C39A C 0.9672(3) 0.4326(3) 0.4794(2)
H35A H 1.0170 0.4060 0.5082
H36A H 0.8915 0.4022 0.4971
C40 C 0.3441(7) 0.3593(6) 0.9588(4)
O4 O 0.2595(6) 0.2429(5) 0.9518(5)
C41? C 0.4976(13) 0.0087(12) 0.5136(9)
O5? O 0.4926(7) 0.0928(6) 0.5866(5)
O6? O 0.3595(9) 0.3141(9) 0.8729(8)
C42? C 1.004(3) 1.000(3) 0.987(2)
O7? O 1.1036(10) 1.0897(10) 0.9731(8)
loop_
_geom_bond_atom_site_label_1
_geom_bond_atom_site_label_2
_geom_bond_site_symmetry_1
_geom_bond_site_symmetry_2
Nd1 Cl1 1_555 1_555
P1 O1 1_555 1_555
P2 O3 1_555 1_555
P3 O2 1_555 1_555
Cl2 Nd1 1_555 1_555
Cl3 Nd1 1_555 1_555
O1 Nd1 1_555 1_555
O2 Nd1 1_555 1_555
O3 Nd1 1_555 1_555
C1 H1 1_555 1_555
C2 H2 1_555 1_555
C3 C1 1_555 1_555
H3 C3 1_555 1_555
C4 H4 1_555 1_555
C5 H5 1_555 1_555
C6 P1 1_555 1_555
H6 C6 1_555 1_555
H7 C6 1_555 1_555
C7 H8 1_555 1_555
C8 H9 1_555 1_555
C9 C4 1_555 1_555
H10 C9 1_555 1_555
C10 P3 1_555 1_555
H11 C10 1_555 1_555
H12 C10 1_555 1_555
C11 H13 1_555 1_555
C12 P1 1_555 1_555
C13 C5 1_555 1_555
H14 C13 1_555 1_555
C14 H15 1_555 1_555
C15 H16 1_555 1_555
C16 P3 1_555 1_555
C17 C16 1_555 1_555
H17 C17 1_555 1_555
C18 C15 1_555 1_555
H18 C18 1_555 1_555
C19 P1 1_555 1_555
C20 C5 1_555 1_555
H19 C20 1_555 1_555
C21 H20 1_555 1_555
C22 C2 1_555 1_555
H21 C22 1_555 1_555
C23 H22 1_555 1_555
C24 C14 1_555 1_555
H23 C24 1_555 1_555
C25 C4 1_555 1_555
H24 C25 1_555 1_555
C26 C12 1_555 1_555
H25 C26 1_555 1_555
C27 P3 1_555 1_555
C28 C15 1_555 1_555
H26 C28 1_555 1_555
C29 C11 1_555 1_555
H27 C29 1_555 1_555
C30 P2 1_555 1_555
C31 C23 1_555 1_555
H28 C31 1_555 1_555
C32 P2 1_555 1_555
C33 C8 1_555 1_555
H29 C33 1_555 1_555
C34 C1 1_555 1_555
H30 C34 1_555 1_555
C35 C17 1_555 1_555
H31 C35 1_555 1_555
C36 C13 1_555 1_555
H32 C36 1_555 1_555
C37 C31 1_555 1_555
H33 C37 1_555 1_555
C38 C14 1_555 1_555
H34 C38 1_555 1_555
C39 P2 1_555 1_555
H35 C39 1_555 1_555
H36 C39 1_555 1_555
C40 O4 1_555 1_555
Nd1A Cl1A 1_555 1_555
Nd1A_2 O3A 1_555 1_555
Nd1A_3 O2A 1_555 1_555
P1A O1A 1_555 1_555
P2A O3A 1_555 1_555
P3A O2A 1_555 1_555
Cl2A Nd1A 1_555 1_555
Cl3A Nd1A 1_555 1_555
O1A Nd1A 1_555 1_555
O2A_2 Nd1A 1_555 1_555
O3A_2 Nd1A 1_555 1_555
C1A H1A 1_555 1_555
C2A H2A 1_555 1_555
C3A C1A 1_555 1_555
H3A C3A 1_555 1_555
C4A H4A 1_555 1_555
C5A H5A 1_555 1_555
C6A C6 1_555 1_555
H6A C6A 1_555 1_555
H7A C6A 1_555 1_555
C7A H8A 1_555 1_555
C8A H9A 1_555 1_555
C9A C4A 1_555 1_555
H10A C9A 1_555 1_555
C10A C10 1_555 1_555
H11A C10A 1_555 1_555
H12A C10A 1_555 1_555
C11A H13A 1_555 1_555
C12A P1A 1_555 1_555
C13A C5A 1_555 1_555
H14A C13A 1_555 1_555
C14A H15A 1_555 1_555
C15A H16A 1_555 1_555
C16A P3A 1_555 1_555
C17A C16A 1_555 1_555
H17A C17A 1_555 1_555
C18A C15A 1_555 1_555
H18A C18A 1_555 1_555
C19A P1A 1_555 1_555
C20A C5A 1_555 1_555
H19A C20A 1_555 1_555
C21A H20A 1_555 1_555
C22A C2A 1_555 1_555
H21A C22A 1_555 1_555
C23A H22A 1_555 1_555
C24A C14A 1_555 1_555
H23A C24A 1_555 1_555
C25A C4A 1_555 1_555
H24A C25A 1_555 1_555
C26A C12A 1_555 1_555
H25A C26A 1_555 1_555
C27A P3A 1_555 1_555
C28A C15A 1_555 1_555
H26A C28A 1_555 1_555
C29A C11A 1_555 1_555
H27A C29A 1_555 1_555
C30A P2A 1_555 1_555
C31A C23A 1_555 1_555
H28A C31A 1_555 1_555
C32A P2A 1_555 1_555
C33A C8A 1_555 1_555
H29A C33A 1_555 1_555
C34A C1A 1_555 1_555
H30A C34A 1_555 1_555
C35A C17A 1_555 1_555
H31A C35A 1_555 1_555
C36A C13A 1_555 1_555
H32A C36A 1_555 1_555
C37A C31A 1_555 1_555
H33A C37A 1_555 1_555
C38A C14A 1_555 1_555
H34A C38A 1_555 1_555
C39A C39 1_555 1_555
H35A C39A 1_555 1_555
H36A C39A 1_555 1_555
C2 C3 1_555 1_555
C7 C9 1_555 1_555
C7 C27 1_555 1_555
C8 C32 1_555 1_555
C11 C19 1_555 1_555
C12 C20 1_555 1_555
C16 C24 1_555 1_555
C18 C29 1_555 1_555
C19 C28 1_555 1_555
C21 C25 1_555 1_555
C21 C27 1_555 1_555
C22 C30 1_555 1_555
C23 C32 1_555 1_555
C26 C36 1_555 1_555
C30 C34 1_555 1_555
C33 C37 1_555 1_555
C35 C38 1_555 1_555
P1A C6A 1_555 1_555
P2A C39A 1_555 1_555
P3A C10A 1_555 1_555
C2A C3A 1_555 1_555
C7A C9A 1_555 1_555
C7A C27A 1_555 1_555
C8A C32A 1_555 1_555
C11A C19A 1_555 1_555
C12A C20A 1_555 1_555
C16A C24A 1_555 1_555
C18A C29A 1_555 1_555
C19A C28A 1_555 1_555
C21A C25A 1_555 1_555
C21A C27A 1_555 1_555
C22A C30A 1_555 1_555
C23A C32A 1_555 1_555
C26A C36A 1_555 1_555
C30A C34A 1_555 1_555
C33A C37A 1_555 1_555
C35A C38A 1_555 1_555

#END
