
#######################################################################
#
#                 Cambridge Crystallographic Data Centre
#                                CCDC 
#
#######################################################################
#
# If this CIF has been generated from an entry in the Cambridge 
# Structural Database, then it will include bibliographic, chemical, 
# crystal, experimental, refinement or atomic coordinate data resulting 
# from the CCDC's data processing and validation procedures.
#
#######################################################################

data_XALXIS
_symmetry_cell_setting           orthorhombic
_symmetry_space_group_name_H-M   'P 21 21 21'
_symmetry_Int_Tables_number      19
_space_group_name_Hall           'P 2ac 2ab'
loop_
_symmetry_equiv_pos_site_id
_symmetry_equiv_pos_as_xyz
1 x,y,z
2 1/2-x,-y,1/2+z
3 -x,1/2+y,1/2-z
4 1/2+x,1/2-y,-z
_cell_length_a                   5.995(4)
_cell_length_b                   10.540(4)
_cell_length_c                   12.586(6)
_cell_angle_alpha                90
_cell_angle_beta                 90
_cell_angle_gamma                90
_cell_volume                     795.275
loop_
_atom_site_label
_atom_site_type_symbol
_atom_site_fract_x
_atom_site_fract_y
_atom_site_fract_z
Zn1 Zn 0.21552(6) 0.17485(3) 0.01063(2)
C1 C 0.5351(6) -0.1497(3) 0.3124(2)
C2 C 0.5423(6) -0.1116(3) 0.1960(2)
C3 C 0.6859(7) -0.1711(4) 0.1242(2)
H1 H 0.7828 -0.2380 0.1475
C4 C 0.6792(7) -0.1336(4) 0.0184(3)
H2 H 0.7776 -0.1715 -0.0328
C5 C 0.5352(6) -0.0386(3) -0.0119(2)
H3 H 0.5307 -0.0133 -0.0852
C6 C 0.4035(6) -0.0168(3) 0.1598(2)
H4 H 0.3076 0.0255 0.2095
N1 N 0.3999(5) 0.0197(2) 0.05654(19)
N2 N 0.4037(5) 0.3039(3) -0.0715(2)
N3 N 0.3759(5) 0.3216(3) -0.1663(2)
N4 N 0.3472(7) 0.3397(4) -0.2545(2)
O1 O 0.6701(5) -0.2341(2) 0.34131(17)
O2 O 0.3915(4) -0.0954(2) 0.36937(17)
Zn1C Zn 0.71552(6) 0.32515(3) -0.01063(2)
Zn1B Zn 0.78448(6) -0.32515(3) 0.48937(2)
Zn1A Zn 0.28448(6) -0.17485(3) 0.51063(2)
N2C N -0.0963(5) 0.1961(3) 0.0715(2)
O1B O 0.3299(5) 0.2659(2) 0.15869(17)
O2A O 0.1085(4) 0.0954(2) -0.13063(17)
loop_
_geom_bond_atom_site_label_1
_geom_bond_atom_site_label_2
_geom_bond_site_symmetry_1
_geom_bond_site_symmetry_2
Zn1 N1 1_555 1_555
C1 C2 1_555 1_555
C2 C3 1_555 1_555
C3 H1 1_555 1_555
C4 C3 1_555 1_555
H2 C4 1_555 1_555
C5 C4 1_555 1_555
H3 C5 1_555 1_555
C6 C2 1_555 1_555
H4 C6 1_555 1_555
N1 C5 1_555 1_555
N2 Zn1 1_555 1_555
N3 N2 1_555 1_555
N4 N3 1_555 1_555
O1 C1 1_555 1_555
O2 C1 1_555 1_555
Zn1C N2 1_555 1_555
Zn1B O1 1_555 1_555
Zn1A O2 1_555 1_555
N2C Zn1 1_555 1_555
O1B Zn1 1_555 1_555
O2A Zn1 1_555 1_555
C6 N1 1_555 1_555

#END
