
#######################################################################
#
#                 Cambridge Crystallographic Data Centre
#                                CCDC 
#
#######################################################################
#
# If this CIF has been generated from an entry in the Cambridge 
# Structural Database, then it will include bibliographic, chemical, 
# crystal, experimental, refinement or atomic coordinate data resulting 
# from the CCDC's data processing and validation procedures.
#
#######################################################################

data_XAMBUJ
_symmetry_cell_setting           monoclinic
_symmetry_space_group_name_H-M   'C 2/c'
_symmetry_Int_Tables_number      15
_space_group_name_Hall           '-C 2yn'
loop_
_symmetry_equiv_pos_site_id
_symmetry_equiv_pos_as_xyz
1 x,y,z
2 1/2+x,1/2+y,z
3 -x,y,1/2-z
4 1/2-x,1/2+y,1/2-z
5 -x,-y,-z
6 1/2-x,1/2-y,-z
7 x,-y,1/2+z
8 1/2+x,1/2-y,1/2+z
_cell_length_a                   28.991(2)
_cell_length_b                   5.9448(5)
_cell_length_c                   21.5013(18)
_cell_angle_alpha                90
_cell_angle_beta                 111.848(2)
_cell_angle_gamma                90
_cell_volume                     3439.5
loop_
_atom_site_label
_atom_site_type_symbol
_atom_site_fract_x
_atom_site_fract_y
_atom_site_fract_z
Cd1 Cd 0.0000 -0.25887(7) 0.7500
O1 O 0.05503(10) -0.0172(5) 0.82035(16)
O2 O 0.09277(12) -0.2484(5) 0.77676(19)
O3 O 0.27054(13) 0.3956(7) 0.94806(16)
O4 O 0.40098(13) 1.1278(7) 0.87625(18)
O5 O 0.35218(12) 1.0136(6) 0.77396(17)
H1 H 0.3666 1.1138 0.7622
N1 N 0.00193(12) -0.5057(6) 0.67058(16)
C1 C 0.03295(16) -0.6807(7) 0.6898(2)
H2 H 0.0524 -0.6962 0.7350
C2 C 0.03754(16) -0.8385(8) 0.6460(2)
H3 H 0.0599 -0.9568 0.6617
C3 C 0.00902(15) -0.8220(7) 0.5783(2)
C4 C -0.02283(16) -0.6394(8) 0.5587(2)
H4 H -0.0427 -0.6202 0.5137
C5 C -0.02520(16) -0.4866(8) 0.6052(2)
H5 H -0.0466 -0.3646 0.5907
C6 C 0.01392(15) -0.9929(7) 0.5322(2)
H6 H 0.0387 -1.1004 0.5497
C7 C 0.09383(15) -0.0836(7) 0.8130(2)
C8 C 0.14093(15) 0.0444(7) 0.8466(2)
C9 C 0.14002(19) 0.2462(8) 0.8785(3)
H7 H 0.1101 0.3009 0.8789
C10 C 0.18327(19) 0.3664(9) 0.9097(3)
H8 H 0.1824 0.5029 0.9304
C11 C 0.22698(19) 0.2851(8) 0.9101(2)
C12 C 0.22905(16) 0.0857(10) 0.8794(3)
H9 H 0.2593 0.0309 0.8801
C13 C 0.18552(16) -0.0337(8) 0.8473(3)
H10 H 0.1867 -0.1685 0.8260
C14 C 0.29404(16) 0.5316(8) 0.9170(2)
C15 C 0.27923(17) 0.5552(8) 0.8486(2)
H11 H 0.2527 0.4724 0.8197
C16 C 0.30462(18) 0.7040(8) 0.8241(2)
H12 H 0.2956 0.7175 0.7780
C17 C 0.34299(16) 0.8334(8) 0.8658(2)
C18 C 0.35773(18) 0.8022(9) 0.9339(3)
H13 H 0.3844 0.8843 0.9628
C19 C 0.33382(18) 0.6528(10) 0.9601(2)
H14 H 0.3442 0.6331 1.0062
C20 C 0.36857(16) 1.0069(8) 0.8403(3)
Cd1F Cd 0.0000 -1.74113(7) 0.2500
O1B O -0.05503(10) -0.0172(5) 0.67965(16)
O2B O -0.09277(12) -0.2484(5) 0.72324(19)
O3B O -0.27054(13) 0.3956(7) 0.55194(16)
O4B O -0.40098(13) 1.1278(7) 0.62375(18)
O5B O -0.35218(12) 1.0136(6) 0.72604(17)
H1B H -0.3666 1.1138 0.7378
N1D N -0.00193(12) -1.4943(6) 0.32942(16)
N1B N -0.00193(12) -0.5057(6) 0.82942(16)
C1D C -0.03295(16) -1.3193(7) 0.3102(2)
H2D H -0.0524 -1.3038 0.2650
C2D C -0.03754(16) -1.1615(8) 0.3540(2)
H3D H -0.0599 -1.0432 0.3383
C3D C -0.00902(15) -1.1780(7) 0.4217(2)
C4D C 0.02283(16) -1.3606(8) 0.4413(2)
H4D H 0.0427 -1.3798 0.4863
C5D C 0.02520(16) -1.5134(8) 0.3948(2)
H5D H 0.0466 -1.6354 0.4093
C6D C -0.01392(15) -1.0071(7) 0.4678(2)
H6D H -0.0387 -0.8996 0.4503
C7B C -0.09383(15) -0.0836(7) 0.6870(2)
C8B C -0.14093(15) 0.0444(7) 0.6534(2)
C9B C -0.14002(19) 0.2462(8) 0.6215(3)
H7B H -0.1101 0.3009 0.6211
C10B C -0.18327(19) 0.3664(9) 0.5903(3)
H8B H -0.1824 0.5029 0.5696
C11B C -0.22698(19) 0.2851(8) 0.5899(2)
C12B C -0.22905(16) 0.0857(10) 0.6206(3)
H9B H -0.2593 0.0309 0.6199
C13B C -0.18552(16) -0.0337(8) 0.6527(3)
H10B H -0.1867 -0.1685 0.6740
C14B C -0.29404(16) 0.5316(8) 0.5830(2)
C15B C -0.27923(17) 0.5552(8) 0.6514(2)
H11B H -0.2527 0.4724 0.6803
C16B C -0.30462(18) 0.7040(8) 0.6759(2)
H12B H -0.2956 0.7175 0.7220
C17B C -0.34299(16) 0.8334(8) 0.6342(2)
C18B C -0.35773(18) 0.8022(9) 0.5661(3)
H13B H -0.3844 0.8843 0.5372
C19B C -0.33382(18) 0.6528(10) 0.5399(2)
H14B H -0.3442 0.6331 0.4938
C20B C -0.36857(16) 1.0069(8) 0.6597(3)
loop_
_geom_bond_atom_site_label_1
_geom_bond_atom_site_label_2
_geom_bond_site_symmetry_1
_geom_bond_site_symmetry_2
Cd1 O1 1_555 1_555
O1 C7 1_555 1_555
O2 Cd1 1_555 1_555
O3 C11 1_555 1_555
O4 C20 1_555 1_555
O5 H1 1_555 1_555
N1 Cd1 1_555 1_555
C1 N1 1_555 1_555
H2 C1 1_555 1_555
C2 C1 1_555 1_555
H3 C2 1_555 1_555
C3 C2 1_555 1_555
C4 C3 1_555 1_555
H4 C4 1_555 1_555
C5 N1 1_555 1_555
H5 C5 1_555 1_555
C6 C3 1_555 1_555
H6 C6 1_555 1_555
C7 O2 1_555 1_555
C8 C7 1_555 1_555
C9 C8 1_555 1_555
H7 C9 1_555 1_555
C10 C9 1_555 1_555
H8 C10 1_555 1_555
C11 C10 1_555 1_555
C12 C11 1_555 1_555
H9 C12 1_555 1_555
C13 C8 1_555 1_555
H10 C13 1_555 1_555
C14 O3 1_555 1_555
C15 C14 1_555 1_555
H11 C15 1_555 1_555
C16 C15 1_555 1_555
H12 C16 1_555 1_555
C17 C16 1_555 1_555
C18 C17 1_555 1_555
H13 C18 1_555 1_555
C19 C14 1_555 1_555
H14 C19 1_555 1_555
C20 O5 1_555 1_555
Cd1F N1D 1_555 1_555
O1B Cd1 1_555 1_555
O2B Cd1 1_555 1_555
O3B C11B 1_555 1_555
O4B C20B 1_555 1_555
O5B H1B 1_555 1_555
N1D C1D 1_555 1_555
N1B Cd1 1_555 1_555
C1D H2D 1_555 1_555
C2D C1D 1_555 1_555
H3D C2D 1_555 1_555
C3D C2D 1_555 1_555
C4D C3D 1_555 1_555
H4D C4D 1_555 1_555
C5D N1D 1_555 1_555
H5D C5D 1_555 1_555
C6D C6 1_555 1_555
H6D C6D 1_555 1_555
C7B O1B 1_555 1_555
C8B C7B 1_555 1_555
C9B C8B 1_555 1_555
H7B C9B 1_555 1_555
C10B C9B 1_555 1_555
H8B C10B 1_555 1_555
C11B C10B 1_555 1_555
C12B C11B 1_555 1_555
H9B C12B 1_555 1_555
C13B C8B 1_555 1_555
H10B C13B 1_555 1_555
C14B O3B 1_555 1_555
C15B C14B 1_555 1_555
H11B C15B 1_555 1_555
C16B C15B 1_555 1_555
H12B C16B 1_555 1_555
C17B C16B 1_555 1_555
C18B C17B 1_555 1_555
H13B C18B 1_555 1_555
C19B C14B 1_555 1_555
H14B C19B 1_555 1_555
C20B O5B 1_555 1_555
C4 C5 1_555 1_555
C12 C13 1_555 1_555
C17 C20 1_555 1_555
C18 C19 1_555 1_555
O2B C7B 1_555 1_555
C3D C6D 1_555 1_555
C4D C5D 1_555 1_555
C12B C13B 1_555 1_555
C17B C20B 1_555 1_555
C18B C19B 1_555 1_555

#END
