
#######################################################################
#
#                 Cambridge Crystallographic Data Centre
#                                CCDC 
#
#######################################################################
#
# If this CIF has been generated from an entry in the Cambridge 
# Structural Database, then it will include bibliographic, chemical, 
# crystal, experimental, refinement or atomic coordinate data resulting 
# from the CCDC's data processing and validation procedures.
#
#######################################################################

data_XAMCUK
_symmetry_cell_setting           monoclinic
_symmetry_space_group_name_H-M   'P 21/c'
_symmetry_Int_Tables_number      14
_space_group_name_Hall           '-P 2ybc'
loop_
_symmetry_equiv_pos_site_id
_symmetry_equiv_pos_as_xyz
1 x,y,z
2 -x,1/2+y,1/2-z
3 -x,-y,-z
4 x,1/2-y,1/2+z
_cell_length_a                   8.4310(17)
_cell_length_b                   7.3190(15)
_cell_length_c                   12.079(2)
_cell_angle_alpha                90
_cell_angle_beta                 106.92(3)
_cell_angle_gamma                90
_cell_volume                     713.088
loop_
_atom_site_label
_atom_site_type_symbol
_atom_site_fract_x
_atom_site_fract_y
_atom_site_fract_z
Cu1 Cu 0.41363(6) 0.46083(8) 0.85771(4)
O1 O 0.3030(4) 0.4286(5) 0.5954(3)
O2 O 0.1970(4) 0.4650(5) 0.7421(3)
C1 C 0.1856(6) 0.4576(7) 0.6356(4)
C2 C 0.0152(6) 0.4917(6) 0.5557(4)
O3 O 0.6410(4) 0.4748(5) 0.9668(3)
O4 O 0.7581(4) 0.4444(5) 0.8259(3)
C3 C 0.7671(5) 0.4700(7) 0.9275(4)
C4 C 0.9310(5) 0.4974(6) 1.0146(4)
O5 O 0.4320(4) 0.7197(5) 0.8287(3)
O6 O 0.4010(5) 0.1951(6) 0.8804(3)
H1 H -0.0759 0.5039 0.5877
H2 H 0.9371 0.5085 1.0964
H3 H 0.5325 0.7551 0.8504
H4 H 0.3867 0.7768 0.7643
H5 H 0.3618 0.1467 0.8157
H6 H 0.3606 0.1669 0.9370
Cu1B Cu -0.41363(6) 0.53917(8) 0.14229(4)
Cu1B_2 Cu 0.58637(6) 0.53917(8) 1.14229(4)
Cu1_2 Cu 1.41363(6) 0.46083(8) 0.85771(4)
Cu1B_3 Cu 1.58637(6) 0.53917(8) 1.14229(4)
O1B O -0.3030(4) 0.5714(5) 0.4046(3)
O2B O -0.1970(4) 0.5350(5) 0.2579(3)
C1B C -0.1856(6) 0.5424(7) 0.3644(4)
C2B C -0.0152(6) 0.5083(6) 0.4443(4)
O3B O 1.3590(4) 0.5252(5) 1.0332(3)
O3B_2 O 0.3590(4) 0.5252(5) 1.0332(3)
O3_2 O -0.3590(4) 0.4748(5) -0.0332(3)
O3B_3 O -0.6410(4) 0.5252(5) 0.0332(3)
O4B O 1.2419(4) 0.5556(5) 1.1741(3)
C3B C 1.2329(5) 0.5300(7) 1.0725(4)
C4B C 1.0690(5) 0.5026(6) 0.9854(4)
O5B O -0.4320(4) 0.2803(5) 0.1713(3)
O6B O -0.4010(5) 0.8049(6) 0.1196(3)
H1B H 0.0759 0.4961 0.4123
H2B H 1.0629 0.4915 0.9036
H3B H -0.5325 0.2449 0.1496
H4B H -0.3867 0.2232 0.2357
H5B H -0.3618 0.8533 0.1843
H6B H -0.3606 0.8331 0.0630
loop_
_geom_bond_atom_site_label_1
_geom_bond_atom_site_label_2
_geom_bond_site_symmetry_1
_geom_bond_site_symmetry_2
Cu1 O2 1_555 1_555
O1 C1 1_555 1_555
O2 C1 1_555 1_555
C1 C2 1_555 1_555
C2 H1 1_555 1_555
O3 Cu1 1_555 1_555
O4 C3 1_555 1_555
C3 O3 1_555 1_555
C4 C3 1_555 1_555
O5 Cu1 1_555 1_555
O6 Cu1 1_555 1_555
H2 C4 1_555 1_555
H3 O5 1_555 1_555
H4 O5 1_555 1_555
H5 O6 1_555 1_555
H6 O6 1_555 1_555
Cu1B O2B 1_555 1_555
Cu1B_2 O3 1_555 1_555
Cu1_2 O3B 1_555 1_555
Cu1B_3 O3B 1_555 1_555
O1B C1B 1_555 1_555
O2B C1B 1_555 1_555
C1B C2B 1_555 1_555
C2B C2 1_555 1_555
O3B C3B 1_555 1_555
O3B_2 Cu1 1_555 1_555
O3_2 Cu1B 1_555 1_555
O3B_3 Cu1B 1_555 1_555
O4B C3B 1_555 1_555
C3B C4B 1_555 1_555
C4B C4 1_555 1_555
O5B Cu1B 1_555 1_555
O6B Cu1B 1_555 1_555
H1B C2B 1_555 1_555
H2B C4B 1_555 1_555
H3B O5B 1_555 1_555
H4B O5B 1_555 1_555
H5B O6B 1_555 1_555
H6B O6B 1_555 1_555
Cu1B_2 O3B_2 1_555 1_555

#END
