
#######################################################################
#
#                 Cambridge Crystallographic Data Centre
#                                CCDC 
#
#######################################################################
#
# If this CIF has been generated from an entry in the Cambridge 
# Structural Database, then it will include bibliographic, chemical, 
# crystal, experimental, refinement or atomic coordinate data resulting 
# from the CCDC's data processing and validation procedures.
#
#######################################################################

data_XAMDUL01
_symmetry_cell_setting           monoclinic
_symmetry_space_group_name_H-M   'P 21/c'
_symmetry_Int_Tables_number      14
_space_group_name_Hall           '-P 2ybc'
loop_
_symmetry_equiv_pos_site_id
_symmetry_equiv_pos_as_xyz
1 x,y,z
2 -x,1/2+y,1/2-z
3 -x,-y,-z
4 x,1/2-y,1/2+z
_cell_length_a                   8.661(4)
_cell_length_b                   12.412(5)
_cell_length_c                   10.288(4)
_cell_angle_alpha                90
_cell_angle_beta                 100.717(7)
_cell_angle_gamma                90
_cell_volume                     1086.67
loop_
_atom_site_label
_atom_site_type_symbol
_atom_site_fract_x
_atom_site_fract_y
_atom_site_fract_z
Zn1 Zn 0.0000 0.0000 0.0000
N2 N 0.33212(19) 0.23713(13) 0.16971(16)
N3 N 0.1511(2) 0.11593(13) 0.11493(15)
N4 N 0.2766(2) 0.21738(15) 0.28251(17)
C1 C 0.2569(2) 0.17665(16) 0.07282(19)
H1 H 0.2758 0.1768 -0.0133
C2 C 0.4572(2) 0.31489(16) 0.1656(2)
H2 H 0.5174 0.2920 0.0998
H3 H 0.5274 0.3158 0.2508
C3 C 0.1677(3) 0.14438(18) 0.2439(2)
H4 H 0.1070 0.1147 0.3005
N5 N 0.1722(2) 0.51862(13) 0.37245(16)
O1 O 0.1067(2) -0.12484(13) 0.12675(16)
H5 H 0.1311 -0.1017 0.2024
N6 N 0.3270(2) 0.47648(13) 0.23714(16)
N7 N 0.4188(2) 0.53240(17) 0.33604(19)
C4 C 0.3961(3) 0.42764(17) 0.1326(2)
H6 H 0.4819 0.4726 0.1160
H7 H 0.3175 0.4253 0.0521
C5 C 0.1823(2) 0.46918(17) 0.2602(2)
H8 H 0.0996 0.4344 0.2056
C6 C 0.3195(3) 0.55657(18) 0.4135(2)
H9 H 0.3482 0.5966 0.4906
H10 H 0.114(3) -0.1880(8) 0.106(3)
Zn1C Zn 0.0000 0.5000 0.5000
Zn1C_2 Zn 0.0000 -0.5000 -0.5000
N2B N -0.33212(19) -0.23713(13) -0.16971(16)
N3B N -0.1511(2) -0.11593(13) -0.11493(15)
N4B N -0.2766(2) -0.21738(15) -0.28251(17)
C1B C -0.2569(2) -0.17665(16) -0.07282(19)
H1B H -0.2758 -0.1768 0.0133
C2B C -0.4572(2) -0.31489(16) -0.1656(2)
H2B H -0.5174 -0.2920 -0.0998
H3B H -0.5274 -0.3158 -0.2508
C3B C -0.1677(3) -0.14438(18) -0.2439(2)
H4B H -0.1070 -0.1147 -0.3005
N5B N -0.1722(2) -0.51862(13) -0.37245(16)
N5C N 0.1722(2) -0.01862(13) -0.12755(16)
N5A N -0.1722(2) 0.01862(13) 0.12755(16)
O1B O -0.1067(2) 0.12484(13) -0.12675(16)
H5B H -0.1311 0.1017 -0.2024
N6B N -0.3270(2) -0.47648(13) -0.23714(16)
N7B N -0.4188(2) -0.53240(17) -0.33604(19)
C4B C -0.3961(3) -0.42764(17) -0.1326(2)
H6B H -0.4819 -0.4726 -0.1160
H7B H -0.3175 -0.4253 -0.0521
C5B C -0.1823(2) -0.46918(17) -0.2602(2)
H8B H -0.0996 -0.4344 -0.2056
C6B C -0.3195(3) -0.55657(18) -0.4135(2)
H9B H -0.3482 -0.5966 -0.4906
H10B H -0.114(3) 0.1880(8) -0.106(3)
N1 N 0.8235(2) 0.35403(12) 0.02299(16)
O2 O 0.7911(2) 0.41467(15) 0.10795(17)
O3 O 0.7116(3) 0.31140(18) -0.0564(2)
O4 O 0.9547(3) 0.3364(2) 0.0067(3)
loop_
_geom_bond_atom_site_label_1
_geom_bond_atom_site_label_2
_geom_bond_site_symmetry_1
_geom_bond_site_symmetry_2
Zn1 N3 1_555 1_555
N1 O2 1_555 1_555
N2 N4 1_555 1_555
N3 C1 1_555 1_555
N4 C3 1_555 1_555
C1 N2 1_555 1_555
H1 C1 1_555 1_555
C2 N2 1_555 1_555
H2 C2 1_555 1_555
H3 C2 1_555 1_555
C3 N3 1_555 1_555
H4 C3 1_555 1_555
N5 C5 1_555 1_555
O1 Zn1 1_555 1_555
H5 O1 1_555 1_555
N6 N7 1_555 1_555
N7 C6 1_555 1_555
O3 N1 1_555 1_555
C4 C2 1_555 1_555
H6 C4 1_555 1_555
H7 C4 1_555 1_555
O4 N1 1_555 1_555
C5 N6 1_555 1_555
H8 C5 1_555 1_555
C6 N5 1_555 1_555
H9 C6 1_555 1_555
H10 O1 1_555 1_555
Zn1C N5 1_555 1_555
Zn1C_2 N5B 1_555 1_555
N2B N4B 1_555 1_555
N3B Zn1 1_555 1_555
N4B C3B 1_555 1_555
C1B N2B 1_555 1_555
H1B C1B 1_555 1_555
C2B N2B 1_555 1_555
H2B C2B 1_555 1_555
H3B C2B 1_555 1_555
C3B N3B 1_555 1_555
H4B C3B 1_555 1_555
N5B C5B 1_555 1_555
N5C Zn1 1_555 1_555
N5A Zn1 1_555 1_555
O1B Zn1 1_555 1_555
H5B O1B 1_555 1_555
N6B N7B 1_555 1_555
N7B C6B 1_555 1_555
C4B C2B 1_555 1_555
H6B C4B 1_555 1_555
H7B C4B 1_555 1_555
C5B N6B 1_555 1_555
H8B C5B 1_555 1_555
C6B N5B 1_555 1_555
H9B C6B 1_555 1_555
H10B O1B 1_555 1_555
N6 C4 1_555 1_555
N3B C1B 1_555 1_555
N6B C4B 1_555 1_555

#END
