
#######################################################################
#
#                 Cambridge Crystallographic Data Centre
#                                CCDC 
#
#######################################################################
#
# If this CIF has been generated from an entry in the Cambridge 
# Structural Database, then it will include bibliographic, chemical, 
# crystal, experimental, refinement or atomic coordinate data resulting 
# from the CCDC's data processing and validation procedures.
#
#######################################################################

data_XAMDUL
_symmetry_cell_setting           monoclinic
_symmetry_space_group_name_H-M   'P 21/c'
_symmetry_Int_Tables_number      14
_space_group_name_Hall           '-P 2ybc'
loop_
_symmetry_equiv_pos_site_id
_symmetry_equiv_pos_as_xyz
1 x,y,z
2 -x,1/2+y,1/2-z
3 -x,-y,-z
4 x,1/2-y,1/2+z
_cell_length_a                   8.640(4)
_cell_length_b                   12.357(6)
_cell_length_c                   10.268(5)
_cell_angle_alpha                90
_cell_angle_beta                 100.898(6)
_cell_angle_gamma                90
_cell_volume                     1076.49
loop_
_atom_site_label
_atom_site_type_symbol
_atom_site_fract_x
_atom_site_fract_y
_atom_site_fract_z
Zn1 Zn 1.0000 0.5000 0.5000
N1 N 0.67133(19) 0.52208(12) 0.76303(16)
N2 N 0.5796(2) 0.46586(15) 0.66353(18)
N3 N 0.82804(19) 0.48014(13) 0.62802(16)
N4 N 0.66556(18) 0.76218(12) 0.83044(15)
N5 N 0.7222(2) 0.78127(14) 0.71730(16)
N6 N 0.84768(19) 0.88405(13) 0.88520(15)
O1 O 0.8944(2) 0.37483(12) 0.37316(15)
C1 C 0.6797(2) 0.44224(17) 0.5856(2)
H1 H 0.6509 0.4027 0.5077
C2 C 0.8172(2) 0.53017(15) 0.74075(19)
H2 H 0.8996 0.5656 0.7957
C3 C 0.8319(3) 0.85465(16) 0.75568(19)
H3 H 0.8932 0.8838 0.6991
C4 C 0.7412(2) 0.82342(15) 0.92804(18)
H4 H 0.7223 0.8238 1.0142
C5 C 0.6014(2) 0.57047(16) 0.86805(19)
H5 H 0.6800 0.5728 0.9491
H6 H 0.5154 0.5251 0.8841
C6 C 0.5394(2) 0.68457(15) 0.8342(2)
H7 H 0.4691 0.6836 0.7486
H8 H 0.4790 0.7078 0.8998
H9 H 0.861(3) 0.378(2) 0.2908(11)
H10 H 0.884(4) 0.3112(12) 0.400(3)
Zn1C Zn 1.0000 1.0000 1.0000
Zn1C_2 Zn 1.0000 0.0000 0.0000
N1B N 1.32867(19) 0.47792(12) 0.23697(16)
N2B N 1.4204(2) 0.53414(15) 0.33647(18)
N3B N 1.17196(19) 0.51986(13) 0.37198(16)
N4B N 1.33444(18) 0.23782(12) 0.16956(15)
N5B N 1.2778(2) 0.21873(14) 0.28270(16)
N6B N 1.15232(19) 0.11595(13) 0.11480(15)
N6C N 0.84768(19) 0.61595(13) 0.38520(15)
N6A N 1.15232(19) 0.38405(13) 0.61480(15)
O1B O 1.1056(2) 0.62517(12) 0.62684(15)
C1B C 1.3203(2) 0.55776(17) 0.4144(2)
H1B H 1.3491 0.5973 0.4923
C2B C 1.1828(2) 0.46983(15) 0.25925(19)
H2B H 1.1004 0.4344 0.2043
C3B C 1.1681(3) 0.14535(16) 0.24432(19)
H3B H 1.1068 0.1162 0.3009
C4B C 1.2588(2) 0.17658(15) 0.07196(18)
H4B H 1.2777 0.1762 -0.0142
C5B C 1.3986(2) 0.42953(16) 0.13195(19)
H5B H 1.3200 0.4272 0.0509
H6B H 1.4846 0.4749 0.1159
C6B C 1.4606(2) 0.31543(15) 0.1658(2)
H7B H 1.5309 0.3164 0.2514
H8B H 1.5210 0.2922 0.1002
H9B H 1.139(3) 0.622(2) 0.7092(11)
H10B H 1.116(4) 0.6888(12) 0.600(3)
N7 N 0.8192(2) 0.14576(13) 0.51811(17)
O2 O 0.7924(2) 0.08392(13) 0.60834(15)
O3 O 0.9557(2) 0.16505(19) 0.5049(2)
O4 O 0.7074(2) 0.18665(15) 0.44102(18)
loop_
_geom_bond_atom_site_label_1
_geom_bond_atom_site_label_2
_geom_bond_site_symmetry_1
_geom_bond_site_symmetry_2
Zn1 N3 1_555 1_555
N1 N2 1_555 1_555
N2 C1 1_555 1_555
N3 C1 1_555 1_555
N4 N5 1_555 1_555
N5 C3 1_555 1_555
N6 C3 1_555 1_555
N7 O2 1_555 1_555
O1 Zn1 1_555 1_555
O3 N7 1_555 1_555
O4 N7 1_555 1_555
C1 H1 1_555 1_555
C2 N1 1_555 1_555
H2 C2 1_555 1_555
C3 H3 1_555 1_555
C4 N4 1_555 1_555
H4 C4 1_555 1_555
C5 N1 1_555 1_555
H5 C5 1_555 1_555
H6 C5 1_555 1_555
C6 N4 1_555 1_555
H7 C6 1_555 1_555
H8 C6 1_555 1_555
H9 O1 1_555 1_555
H10 O1 1_555 1_555
Zn1C N6 1_555 1_555
Zn1C_2 N6B 1_555 1_555
N1B N2B 1_555 1_555
N2B C1B 1_555 1_555
N3B Zn1 1_555 1_555
N4B N5B 1_555 1_555
N5B C3B 1_555 1_555
N6B C3B 1_555 1_555
N6C Zn1 1_555 1_555
N6A Zn1 1_555 1_555
O1B Zn1 1_555 1_555
C1B N3B 1_555 1_555
H1B C1B 1_555 1_555
C2B N1B 1_555 1_555
H2B C2B 1_555 1_555
C3B H3B 1_555 1_555
C4B N4B 1_555 1_555
H4B C4B 1_555 1_555
C5B N1B 1_555 1_555
H5B C5B 1_555 1_555
H6B C5B 1_555 1_555
C6B N4B 1_555 1_555
H7B C6B 1_555 1_555
H8B C6B 1_555 1_555
H9B O1B 1_555 1_555
H10B O1B 1_555 1_555
N3 C2 1_555 1_555
N6 C4 1_555 1_555
C5 C6 1_555 1_555
N3B C2B 1_555 1_555
N6B C4B 1_555 1_555
C5B C6B 1_555 1_555

#END
