
#######################################################################
#
#                 Cambridge Crystallographic Data Centre
#                                CCDC 
#
#######################################################################
#
# If this CIF has been generated from an entry in the Cambridge 
# Structural Database, then it will include bibliographic, chemical, 
# crystal, experimental, refinement or atomic coordinate data resulting 
# from the CCDC's data processing and validation procedures.
#
#######################################################################

data_XAMLAZ
_symmetry_cell_setting           orthorhombic
_symmetry_space_group_name_H-M   'P n a 21'
_symmetry_Int_Tables_number      33
_space_group_name_Hall           'P 2c -2n'
loop_
_symmetry_equiv_pos_site_id
_symmetry_equiv_pos_as_xyz
1 x,y,z
2 -x,-y,1/2+z
3 1/2+x,1/2-y,z
4 1/2-x,1/2+y,1/2+z
_cell_length_a                   11.517(2)
_cell_length_b                   20.953(4)
_cell_length_c                   5.0539(10)
_cell_angle_alpha                90
_cell_angle_beta                 90
_cell_angle_gamma                90
_cell_volume                     1219.59
loop_
_atom_site_label
_atom_site_type_symbol
_atom_site_fract_x
_atom_site_fract_y
_atom_site_fract_z
Na1 Na 0.07551(12) 0.43133(6) 0.5700(3)
B1 B 0.0911(4) 0.5935(2) 0.5081(9)
C1 C 0.2007(3) 0.30360(17) 0.2759(8)
H1 H 0.1357 0.3060 0.1673
C2 C 0.2778(3) 0.25260(18) 0.2395(8)
H2 H 0.2635 0.2218 0.1110
C3 C 0.3744(3) 0.24885(18) 0.3960(9)
H3 H 0.4258 0.2149 0.3766
C4 C 0.3959(3) 0.29636(16) 0.5862(8)
C5 C 0.4969(3) 0.29675(17) 0.7484(9)
H4 H 0.5518 0.2645 0.7293
C6 C 0.5144(3) 0.34275(18) 0.9279(9)
H5 H 0.5817 0.3422 1.0294
C7 C 0.4312(3) 0.39302(17) 0.9670(8)
C8 C 0.4443(4) 0.44082(18) 1.1603(8)
H6 H 0.5085 0.4404 1.2717
C9 C 0.3629(3) 0.48782(19) 1.1845(8)
H7 H 0.3708 0.5197 1.3112
C10 C 0.2670(3) 0.48676(17) 1.0131(8)
H8 H 0.2124 0.5193 1.0286
C11 C 0.3305(3) 0.39476(17) 0.8072(8)
C12 C 0.3122(3) 0.34578(15) 0.6106(7)
F1 F 0.05766(17) 0.53286(9) 0.4041(5)
F2 F 0.0598(2) 0.59604(11) 0.7714(5)
F3 F 0.0269(2) 0.63889(9) 0.3667(5)
F4 F 0.2076(2) 0.60238(11) 0.4768(5)
N1 N 0.2156(3) 0.34872(13) 0.4572(6)
N2 N 0.2493(3) 0.44233(15) 0.8303(7)
Na1A Na -0.07551(12) 0.56867(6) 0.0700(3)
Na1A_2 Na -0.07551(12) 0.56867(6) 1.0700(3)
F1A F -0.05766(17) 0.46714(9) 0.9041(5)
F2A F -0.0598(2) 0.40396(11) 0.2714(5)
F3A F -0.0269(2) 0.36111(9) 0.8667(5)
loop_
_geom_bond_atom_site_label_1
_geom_bond_atom_site_label_2
_geom_bond_site_symmetry_1
_geom_bond_site_symmetry_2
Na1 F1 1_555 1_555
B1 F1 1_555 1_555
C1 H1 1_555 1_555
C2 C1 1_555 1_555
H2 C2 1_555 1_555
C3 C2 1_555 1_555
H3 C3 1_555 1_555
C4 C3 1_555 1_555
C5 C4 1_555 1_555
H4 C5 1_555 1_555
C6 C5 1_555 1_555
H5 C6 1_555 1_555
C7 C6 1_555 1_555
C8 C7 1_555 1_555
H6 C8 1_555 1_555
C9 C8 1_555 1_555
H7 C9 1_555 1_555
C10 C9 1_555 1_555
H8 C10 1_555 1_555
C11 C7 1_555 1_555
C12 C4 1_555 1_555
F1 Na1A 1_555 1_555
F2 B1 1_555 1_555
F3 B1 1_555 1_555
F4 B1 1_555 1_555
N1 Na1 1_555 1_555
N2 Na1 1_555 1_555
Na1A F3 1_555 1_555
Na1A_2 F2 1_555 1_555
F1A Na1 1_555 1_555
F2A Na1 1_555 1_555
F3A Na1 1_555 1_555
C1 N1 1_555 1_555
C10 N2 1_555 1_555
C11 C12 1_555 1_555
C11 N2 1_555 1_555
C12 N1 1_555 1_555
Na1A_2 F1A 1_555 1_555

#END
