
#######################################################################
#
#                 Cambridge Crystallographic Data Centre
#                                CCDC 
#
#######################################################################
#
# If this CIF has been generated from an entry in the Cambridge 
# Structural Database, then it will include bibliographic, chemical, 
# crystal, experimental, refinement or atomic coordinate data resulting 
# from the CCDC's data processing and validation procedures.
#
#######################################################################

data_XANBOD
_symmetry_cell_setting           monoclinic
_symmetry_space_group_name_H-M   'P 21/n'
_symmetry_Int_Tables_number      14
_space_group_name_Hall           '-P 2yn'
loop_
_symmetry_equiv_pos_site_id
_symmetry_equiv_pos_as_xyz
1 x,y,z
2 1/2+x,1/2-y,1/2+z
3 -x,-y,-z
4 1/2-x,1/2+y,1/2-z
_cell_length_a                   15.1137(2)
_cell_length_b                   31.7445(3)
_cell_length_c                   16.4179(2)
_cell_angle_alpha                90
_cell_angle_beta                 113.9000(10)
_cell_angle_gamma                90
_cell_volume                     7201.51
loop_
_atom_site_label
_atom_site_type_symbol
_atom_site_fract_x
_atom_site_fract_y
_atom_site_fract_z
Hg1 Hg -0.47240(7) 0.29047(3) -0.20099(6)
Hg2 Hg -0.34564(5) 0.09863(2) -0.20537(5)
Hg3 Hg 0.03582(5) 0.07992(2) -0.25486(5)
Hg4 Hg 0.13325(5) 0.282330(19) -0.18918(4)
S1 S -0.5850(5) 0.24114(16) -0.2988(5)
S2 S -0.3515(5) 0.31644(18) -0.0657(4)
S3 S -0.4901(4) 0.13361(13) -0.3002(3)
S4 S -0.1922(4) 0.09414(17) -0.0818(3)
S5 S 0.1551(4) 0.05593(14) -0.1143(3)
S6 S -0.0688(4) 0.13286(14) -0.3471(4)
S7 S -0.0005(4) 0.24895(14) -0.3047(3)
S8 S -0.7262(4) 0.28809(16) -0.0515(3)
C1 C -0.6076(18) 0.3719(7) -0.2716(15)
H1 H -0.6367 0.3567 -0.2407
C2 C -0.6394(15) 0.4131(9) -0.3034(17)
H2 H -0.6919 0.4242 -0.2948
C3 C -0.5963(19) 0.4373(7) -0.3463(16)
H3 H -0.6172 0.4646 -0.3648
C4 C -0.5177(16) 0.4189(7) -0.3614(12)
C5 C -0.4623(17) 0.4416(6) -0.4010(13)
H4 H -0.4754 0.4696 -0.4184
C6 C -0.3909(18) 0.4201(8) -0.4113(13)
H5 H -0.3560 0.4332 -0.4396
C7 C -0.3683(16) 0.3808(7) -0.3826(13)
H6 H -0.3168 0.3680 -0.3901
C8 C -0.4163(12) 0.3584(6) -0.3430(11)
C9 C -0.4925(12) 0.3775(6) -0.3307(10)
C10 C -0.3164(16) 0.2988(6) -0.3257(12)
H7 H -0.2569 0.3102 -0.2813
H8 H -0.3177 0.3041 -0.3843
C11 C -0.3228(18) 0.2521(7) -0.3112(13)
H9 H -0.3836 0.2413 -0.3547
H10 H -0.2707 0.2376 -0.3199
C12 C -0.2537(13) 0.2130(7) -0.1835(16)
H11 H -0.1893 0.2204 -0.1782
H12 H -0.2728 0.1869 -0.2169
C13 C -0.2539(19) 0.2075(7) -0.0917(17)
H13 H -0.1999 0.1902 -0.0544
H14 H -0.2491 0.2347 -0.0630
C14 C -0.3647(17) 0.1847(6) -0.0292(13)
H15 H -0.3801 0.2123 -0.0133
H16 H -0.3090 0.1738 0.0208
C15 C -0.4458(16) 0.1568(6) -0.0488(12)
H17 H -0.4710 0.1594 -0.0033
H18 H -0.4969 0.1643 -0.1057
C16 C -0.4942(13) 0.0850(5) -0.0765(11)
H19 H -0.5388 0.0896 -0.1379
H20 H -0.5292 0.0887 -0.0389
C17 C -0.4539(12) 0.0423(4) -0.0659(10)
H21 H -0.4037 0.0387 -0.0065
H22 H -0.5042 0.0216 -0.0749
C18 C -0.3887(11) -0.0032(5) -0.1438(11)
C19 C -0.3920(11) -0.0385(5) -0.0974(12)
H23 H -0.4067 -0.0351 -0.0480
C20 C -0.3751(13) -0.0782(6) -0.1186(12)
H24 H -0.3736 -0.1008 -0.0821
C21 C -0.3603(12) -0.0842(5) -0.1946(16)
H25 H -0.3574 -0.1113 -0.2146
C22 C -0.3497(11) -0.0499(7) -0.2417(13)
C23 C -0.3311(12) -0.0521(6) -0.3219(13)
H26 H -0.3249 -0.0783 -0.3445
C24 C -0.3226(14) -0.0166(8) -0.3644(12)
H27 H -0.3094 -0.0185 -0.4149
C25 C -0.3339(12) 0.0229(6) -0.3315(11)
H28 H -0.3262 0.0471 -0.3598
C26 C -0.3653(12) -0.0092(6) -0.2208(11)
C27 C -0.6850(17) 0.2634(6) -0.2984(16)
C28 C -0.2691(14) 0.3345(5) -0.0992(13)
C29 C -0.5508(14) 0.0943(6) -0.3709(12)
C30 C -0.1279(13) 0.0739(5) -0.1307(11)
C31 C -0.0732(12) -0.0094(6) -0.3257(11)
H29 H -0.1100 0.0031 -0.2987
C32 C -0.0948(12) -0.0510(6) -0.3537(11)
H30 H -0.1428 -0.0655 -0.3433
C33 C -0.0473(14) -0.0695(5) -0.3946(11)
H31 H -0.0644 -0.0966 -0.4169
C34 C 0.0298(13) -0.0489(5) -0.4056(10)
C35 C 0.0894(13) -0.0670(5) -0.4445(11)
H32 H 0.0795 -0.0948 -0.4640
C36 C 0.1610(14) -0.0440(7) -0.4535(12)
H33 H 0.2004 -0.0562 -0.4783
C37 C 0.1745(12) -0.0030(6) -0.4257(10)
H34 H 0.2230 0.0123 -0.4336
C38 C 0.1212(12) 0.0172(5) -0.3871(9)
C39 C 0.0462(12) -0.0060(5) -0.3744(9)
C40 C 0.2064(13) 0.0824(5) -0.3712(10)
H35 H 0.2038 0.0794 -0.4309
H36 H 0.2692 0.0728 -0.3289
C41 C 0.1895(14) 0.1266(5) -0.3534(13)
H37 H 0.2361 0.1447 -0.3631
H38 H 0.1252 0.1352 -0.3944
C42 C 0.2419(12) 0.1687(5) -0.2230(11)
H39 H 0.2087 0.1925 -0.2598
H40 H 0.3087 0.1692 -0.2162
C43 C 0.2388(14) 0.1725(5) -0.1381(12)
H41 H 0.2547 0.1456 -0.1074
H42 H 0.2863 0.1930 -0.1026
C44 C 0.1307(15) 0.1779(5) -0.0681(13)
H43 H 0.1865 0.1874 -0.0165
H44 H 0.1216 0.1481 -0.0615
C45 C 0.0413(14) 0.2023(5) -0.0758(12)
H45 H -0.0091 0.1995 -0.1353
H46 H 0.0170 0.1916 -0.0334
C46 C -0.0088(15) 0.2708(5) -0.0576(13)
H47 H -0.0328 0.2595 -0.0155
H48 H -0.0612 0.2703 -0.1164
C47 C 0.0237(13) 0.3145(6) -0.0332(11)
H49 H -0.0276 0.3311 -0.0278
H50 H 0.0794 0.3152 0.0236
C48 C 0.0645(12) 0.3740(5) -0.1059(11)
C49 C 0.0556(12) 0.4034(6) -0.0478(10)
H51 H 0.0429 0.3953 0.0008
C50 C 0.0663(15) 0.4459(7) -0.0648(15)
H52 H 0.0578 0.4660 -0.0274
C51 C 0.0881(16) 0.4593(7) -0.132(2)
H53 H 0.0941 0.4878 -0.1410
C52 C 0.1012(14) 0.4298(7) -0.1870(18)
C53 C 0.1221(14) 0.4425(7) -0.2590(19)
H54 H 0.1316 0.4709 -0.2671
C54 C 0.1283(14) 0.4141(9) -0.3155(15)
H55 H 0.1374 0.4222 -0.3661
C55 C 0.1207(12) 0.3707(7) -0.2965(12)
H56 H 0.1270 0.3505 -0.3348
C56 C 0.0892(12) 0.3867(6) -0.1777(11)
C57 C 0.2410(14) 0.0377(4) -0.1418(12)
C58 C -0.1664(14) 0.1242(6) -0.3313(13)
C59 C -0.0664(15) 0.2904(6) -0.3528(12)
C60 C -0.6421(18) 0.2988(7) -0.0824(13)
N1 N -0.5375(11) 0.3562(4) -0.2867(9)
N2 N -0.3548(9) 0.0265(4) -0.2628(9)
N3 N -0.7542(14) 0.2789(5) -0.3052(13)
N4 N -0.2146(15) 0.3472(6) -0.1242(14)
N5 N -0.5922(12) 0.0672(5) -0.4153(11)
N6 N -0.0814(12) 0.0587(5) -0.1653(10)
N7 N -0.0055(10) 0.0135(3) -0.3341(8)
N8 N 0.1055(9) 0.3584(4) -0.2284(10)
N9 N 0.3017(14) 0.0242(5) -0.1564(12)
N10 N -0.2377(14) 0.1213(6) -0.3248(12)
N11 N -0.1182(15) 0.3163(5) -0.3911(12)
N12 N -0.585(2) 0.3071(12) -0.1031(18)
O1 O -0.3972(9) 0.3172(4) -0.3178(7)
O2 O -0.3165(15) 0.2437(4) -0.2253(12)
O3 O -0.3432(11) 0.1877(3) -0.1055(9)
O4 O -0.4161(9) 0.1146(4) -0.0519(7)
O5 O -0.4141(8) 0.0369(3) -0.1316(6)
O6 O 0.1303(7) 0.0587(3) -0.3617(6)
O7 O 0.1983(9) 0.1313(3) -0.2649(8)
O8 O 0.1457(9) 0.1853(3) -0.1474(8)
O9 O 0.0692(8) 0.2457(3) -0.0570(7)
O10 O 0.0493(8) 0.3318(3) -0.1026(7)
Hg4_2 Hg -0.86675(5) 0.282330(19) -0.18918(4)
S8_2 S 0.2738(4) 0.28809(16) -0.0515(3)
N3_2 N 0.2458(14) 0.2789(5) -0.3052(13)
loop_
_geom_bond_atom_site_label_1
_geom_bond_atom_site_label_2
_geom_bond_site_symmetry_1
_geom_bond_site_symmetry_2
Hg1 S1 1_555 1_555
Hg2 S3 1_555 1_555
Hg3 S5 1_555 1_555
Hg4 S7 1_555 1_555
S1 C27 1_555 1_555
S2 Hg1 1_555 1_555
S3 C29 1_555 1_555
S4 Hg2 1_555 1_555
S5 C57 1_555 1_555
S6 Hg3 1_555 1_555
S7 C59 1_555 1_555
S8 C60 1_555 1_555
C1 H1 1_555 1_555
C2 C1 1_555 1_555
H2 C2 1_555 1_555
C3 C2 1_555 1_555
H3 C3 1_555 1_555
C4 C3 1_555 1_555
C5 C4 1_555 1_555
H4 C5 1_555 1_555
C6 C5 1_555 1_555
H5 C6 1_555 1_555
C7 C6 1_555 1_555
H6 C7 1_555 1_555
C8 C7 1_555 1_555
C9 C4 1_555 1_555
C10 H7 1_555 1_555
H8 C10 1_555 1_555
C11 C10 1_555 1_555
H9 C11 1_555 1_555
H10 C11 1_555 1_555
C12 H11 1_555 1_555
H12 C12 1_555 1_555
C13 C12 1_555 1_555
H13 C13 1_555 1_555
H14 C13 1_555 1_555
C14 H15 1_555 1_555
H16 C14 1_555 1_555
C15 C14 1_555 1_555
H17 C15 1_555 1_555
H18 C15 1_555 1_555
C16 H19 1_555 1_555
H20 C16 1_555 1_555
C17 C16 1_555 1_555
H21 C17 1_555 1_555
H22 C17 1_555 1_555
C18 C19 1_555 1_555
C19 H23 1_555 1_555
C20 C19 1_555 1_555
H24 C20 1_555 1_555
C21 C20 1_555 1_555
H25 C21 1_555 1_555
C22 C21 1_555 1_555
C23 C22 1_555 1_555
H26 C23 1_555 1_555
C24 C23 1_555 1_555
H27 C24 1_555 1_555
C25 C24 1_555 1_555
H28 C25 1_555 1_555
C26 C18 1_555 1_555
C27 N3 1_555 1_555
C28 S2 1_555 1_555
C29 N5 1_555 1_555
C30 S4 1_555 1_555
C31 H29 1_555 1_555
C32 C31 1_555 1_555
H30 C32 1_555 1_555
C33 C32 1_555 1_555
H31 C33 1_555 1_555
C34 C33 1_555 1_555
C35 C34 1_555 1_555
H32 C35 1_555 1_555
C36 C35 1_555 1_555
H33 C36 1_555 1_555
C37 C36 1_555 1_555
H34 C37 1_555 1_555
C38 C37 1_555 1_555
C39 C34 1_555 1_555
C40 H35 1_555 1_555
H36 C40 1_555 1_555
C41 C40 1_555 1_555
H37 C41 1_555 1_555
H38 C41 1_555 1_555
C42 H39 1_555 1_555
H40 C42 1_555 1_555
C43 C42 1_555 1_555
H41 C43 1_555 1_555
H42 C43 1_555 1_555
C44 H43 1_555 1_555
H44 C44 1_555 1_555
C45 C44 1_555 1_555
H45 C45 1_555 1_555
H46 C45 1_555 1_555
C46 H47 1_555 1_555
H48 C46 1_555 1_555
C47 C46 1_555 1_555
H49 C47 1_555 1_555
H50 C47 1_555 1_555
C48 C49 1_555 1_555
C49 H51 1_555 1_555
C50 C49 1_555 1_555
H52 C50 1_555 1_555
C51 C50 1_555 1_555
H53 C51 1_555 1_555
C52 C51 1_555 1_555
C53 C52 1_555 1_555
H54 C53 1_555 1_555
C54 C53 1_555 1_555
H55 C54 1_555 1_555
C55 C54 1_555 1_555
H56 C55 1_555 1_555
C56 C48 1_555 1_555
C57 N9 1_555 1_555
C58 S6 1_555 1_555
C59 N11 1_555 1_555
C60 N12 1_555 1_555
N1 Hg1 1_555 1_555
N2 Hg2 1_555 1_555
N3 Hg4_2 1_555 1_555
N4 C28 1_555 1_555
N6 Hg3 1_555 1_555
N7 Hg3 1_555 1_555
N8 Hg4 1_555 1_555
N10 Hg2 1_555 1_555
N12 Hg1 1_555 1_555
O1 Hg1 1_555 1_555
O2 Hg1 1_555 1_555
O3 C13 1_555 1_555
O4 Hg2 1_555 1_555
O5 Hg2 1_555 1_555
O6 Hg3 1_555 1_555
O7 Hg3 1_555 1_555
O8 Hg4 1_555 1_555
O9 Hg4 1_555 1_555
O10 Hg4 1_555 1_555
Hg4_2 S8 1_555 1_555
S8_2 Hg4 1_555 1_555
N3_2 Hg4 1_555 1_555
C1 N1 1_555 1_555
C8 C9 1_555 1_555
C8 O1 1_555 1_555
C9 N1 1_555 1_555
C10 O1 1_555 1_555
C11 O2 1_555 1_555
C12 O2 1_555 1_555
C14 O3 1_555 1_555
C15 O4 1_555 1_555
C16 O4 1_555 1_555
C17 O5 1_555 1_555
C18 O5 1_555 1_555
C22 C26 1_555 1_555
C25 N2 1_555 1_555
C26 N2 1_555 1_555
C30 N6 1_555 1_555
C31 N7 1_555 1_555
C38 C39 1_555 1_555
C38 O6 1_555 1_555
C39 N7 1_555 1_555
C40 O6 1_555 1_555
C41 O7 1_555 1_555
C42 O7 1_555 1_555
C43 O8 1_555 1_555
C44 O8 1_555 1_555
C45 O9 1_555 1_555
C46 O9 1_555 1_555
C47 O10 1_555 1_555
C48 O10 1_555 1_555
C52 C56 1_555 1_555
C55 N8 1_555 1_555
C56 N8 1_555 1_555
C58 N10 1_555 1_555

#END
