
#######################################################################
#
#                 Cambridge Crystallographic Data Centre
#                                CCDC 
#
#######################################################################
#
# If this CIF has been generated from an entry in the Cambridge 
# Structural Database, then it will include bibliographic, chemical, 
# crystal, experimental, refinement or atomic coordinate data resulting 
# from the CCDC's data processing and validation procedures.
#
#######################################################################

data_XANHAW
_symmetry_cell_setting           monoclinic
_symmetry_space_group_name_H-M   'P n'
_symmetry_Int_Tables_number      7
_space_group_name_Hall           'P -2yac'
loop_
_symmetry_equiv_pos_site_id
_symmetry_equiv_pos_as_xyz
1 x,y,z
2 1/2+x,-y,1/2+z
_cell_length_a                   10.2964(13)
_cell_length_b                   10.2680(13)
_cell_length_c                   12.0091(15)
_cell_angle_alpha                90
_cell_angle_beta                 103.067(2)
_cell_angle_gamma                90
_cell_volume                     1236.77
loop_
_atom_site_label
_atom_site_type_symbol
_atom_site_fract_x
_atom_site_fract_y
_atom_site_fract_z
Co1 Co 0.22450(6) 0.55957(7) 0.28705(6)
C1 C 0.1818(6) 0.6576(6) 0.0360(5)
H1 H 0.1227 0.7190 0.0529
C2 C 0.2175(6) 0.6561(6) -0.0641(5)
H2 H 0.1858 0.7136 -0.1239
C3 C 0.3187(6) 0.4867(5) 0.0703(5)
C4 C 0.3105(6) 0.1691(5) 0.0160(5)
C5 C 0.3068(5) 0.1004(5) -0.0833(5)
H3 H 0.3756 0.1104 -0.1212
C6 C 0.2041(6) 0.0180(6) -0.1269(5)
H4 H 0.2053 -0.0290 -0.1929
C7 C 0.0967(6) 0.0028(6) -0.0742(5)
C8 C 0.1016(7) 0.0713(6) 0.0273(6)
H5 H 0.0328 0.0610 0.0651
C9 C 0.2059(6) 0.1538(6) 0.0726(5)
H6 H 0.2071 0.1988 0.1400
C10 C -0.0158(6) 0.3810(7) 0.1906(5)
H7 H -0.0424 0.4427 0.1333
C11 C -0.0851(6) 0.2737(7) 0.1955(6)
H8 H -0.1647 0.2529 0.1445
C12 C 0.1141(6) 0.2970(6) 0.3462(5)
C13 C 0.1268(6) 0.2051(5) 0.6170(5)
C14 C 0.0151(6) 0.1293(6) 0.6031(5)
H9 H -0.0013 0.0642 0.5478
C15 C -0.0734(6) 0.1510(6) 0.6730(5)
H10 H -0.1502 0.1007 0.6636
C16 C -0.0492(6) 0.2456(6) 0.7557(5)
C17 C 0.0641(6) 0.3239(6) 0.7665(5)
H11 H 0.0799 0.3899 0.8209
C18 C 0.1521(6) 0.3045(6) 0.6979(5)
H12 H 0.2273 0.3568 0.7053
N1 N 0.2382(5) 0.5619(5) 0.1129(4)
N2 N 0.3903(5) 0.3893(5) 0.1324(4)
N3 N -0.0065(5) -0.0754(5) -0.1190(5)
H13 H -0.0712 -0.0841 -0.0851
H14 H -0.0078 -0.1168 -0.1815
N4 N 0.0974(5) 0.3960(5) 0.2749(4)
N5 N 0.2204(5) 0.2939(5) 0.4376(4)
N6 N -0.1408(6) 0.2696(6) 0.8267(5)
O1 O 0.5055(4) 0.3079(4) -0.0186(4)
O2 O 0.5337(4) 0.2013(4) 0.1664(4)
O3 O 0.2145(5) 0.0530(4) 0.4783(4)
O4 O 0.3722(4) 0.1994(5) 0.5985(4)
O5 O 0.0619(4) 0.6953(5) 0.2674(4)
O6 O 0.2284(4) 0.5658(4) 0.4705(3)
O7 O 0.3963(4) 0.4457(4) 0.3484(3)
S1 S 0.32917(17) 0.53443(16) -0.06734(13)
S2 S 0.44557(15) 0.27023(14) 0.07581(13)
S3 S -0.00890(17) 0.17809(18) 0.30790(14)
S4 S 0.24081(15) 0.17934(17) 0.52970(13)
H15 H -0.107(7) 0.287(6) 0.897(6)
H16 H -0.198(6) 0.207(6) 0.818(5)
Co1A Co -0.27550(6) 0.44043(7) 0.78705(6)
N6A N 0.3592(6) 0.7304(6) 0.3267(5)
H15A H 0.393(7) 0.713(6) 0.397(6)
H16A H 0.302(6) 0.793(6) 0.318(5)
loop_
_geom_bond_atom_site_label_1
_geom_bond_atom_site_label_2
_geom_bond_site_symmetry_1
_geom_bond_site_symmetry_2
Co1 N1 1_555 1_555
C1 H1 1_555 1_555
C2 C1 1_555 1_555
H2 C2 1_555 1_555
C3 N1 1_555 1_555
C4 C5 1_555 1_555
C5 H3 1_555 1_555
C6 C5 1_555 1_555
H4 C6 1_555 1_555
C7 C6 1_555 1_555
C8 C7 1_555 1_555
H5 C8 1_555 1_555
C9 C4 1_555 1_555
H6 C9 1_555 1_555
C10 H7 1_555 1_555
C11 C10 1_555 1_555
H8 C11 1_555 1_555
C12 N4 1_555 1_555
C13 C14 1_555 1_555
C14 H9 1_555 1_555
C15 C14 1_555 1_555
H10 C15 1_555 1_555
C16 C15 1_555 1_555
C17 C16 1_555 1_555
H11 C17 1_555 1_555
C18 C13 1_555 1_555
H12 C18 1_555 1_555
N1 C1 1_555 1_555
N2 C3 1_555 1_555
N3 C7 1_555 1_555
H13 N3 1_555 1_555
H14 N3 1_555 1_555
N4 Co1 1_555 1_555
N5 C12 1_555 1_555
N6 C16 1_555 1_555
O1 S2 1_555 1_555
O2 S2 1_555 1_555
O3 S4 1_555 1_555
O4 S4 1_555 1_555
O5 Co1 1_555 1_555
O6 Co1 1_555 1_555
O7 Co1 1_555 1_555
S1 C2 1_555 1_555
S2 C4 1_555 1_555
S3 C11 1_555 1_555
S4 C13 1_555 1_555
H15 N6 1_555 1_555
H16 N6 1_555 1_555
Co1A N6 1_555 1_555
N6A Co1 1_555 1_555
H15A N6A 1_555 1_555
H16A N6A 1_555 1_555
C3 S1 1_555 1_555
C8 C9 1_555 1_555
C10 N4 1_555 1_555
C12 S3 1_555 1_555
C17 C18 1_555 1_555
N2 S2 1_555 1_555
N5 S4 1_555 1_555

#END
