
#######################################################################
#
#                 Cambridge Crystallographic Data Centre
#                                CCDC 
#
#######################################################################
#
# If this CIF has been generated from an entry in the Cambridge 
# Structural Database, then it will include bibliographic, chemical, 
# crystal, experimental, refinement or atomic coordinate data resulting 
# from the CCDC's data processing and validation procedures.
#
#######################################################################

data_XANHEA
_symmetry_cell_setting           monoclinic
_symmetry_space_group_name_H-M   'C 2/c'
_symmetry_Int_Tables_number      15
_space_group_name_Hall           '-C 2yn'
loop_
_symmetry_equiv_pos_site_id
_symmetry_equiv_pos_as_xyz
1 x,y,z
2 1/2+x,1/2+y,z
3 -x,y,1/2-z
4 1/2-x,1/2+y,1/2-z
5 -x,-y,-z
6 1/2-x,1/2-y,-z
7 x,-y,1/2+z
8 1/2+x,1/2-y,1/2+z
_cell_length_a                   18.5197(13)
_cell_length_b                   8.6003(6)
_cell_length_c                   22.2782(15)
_cell_angle_alpha                90
_cell_angle_beta                 104.188(2)
_cell_angle_gamma                90
_cell_volume                     3440.12
loop_
_atom_site_label
_atom_site_type_symbol
_atom_site_fract_x
_atom_site_fract_y
_atom_site_fract_z
Ni1 Ni 0.546238(16) 0.70989(3) 0.613534(12)
N1 N 0.65043(11) 0.7348(2) 0.67667(9)
N2 N 0.56813(11) 0.6834(2) 0.91254(8)
N3 N 0.51786(10) 0.7233(2) 0.69607(8)
N4 N 0.57423(14) 0.7108(3) 0.53151(10)
N5 N 0.59841(19) 0.7583(3) 0.43021(12)
N6 N 0.67049(18) 0.9711(4) 0.40110(14)
N7 N 0.54599(13) 0.9515(3) 0.60995(10)
N8 N 0.60593(15) 1.2062(3) 0.61483(14)
N9 N 0.55945(12) 1.4693(2) 0.61916(9)
C3 C 0.71517(15) 0.7546(3) 0.66152(13)
H7 H 0.7188 0.7256 0.6222
C4 C 0.77668(16) 0.8164(3) 0.70199(14)
H8 H 0.8221 0.8224 0.6913
C5 C 0.76989(14) 0.8691(3) 0.75845(13)
H9 H 0.8096 0.9192 0.7851
C6 C 0.70362(14) 0.8472(3) 0.77555(11)
H10 H 0.6980 0.8817 0.8137
C7 C 0.64600(13) 0.7728(3) 0.73441(10)
C8 C 0.57291(12) 0.7366(2) 0.74743(10)
C9 C 0.55428(12) 0.7146(2) 0.80441(10)
C10 C 0.60300(13) 0.6762(3) 0.86639(10)
C11 C 0.67574(14) 0.6257(3) 0.87661(12)
H11 H 0.6984 0.6166 0.8439
C12 C 0.71448(15) 0.5888(3) 0.93644(13)
H12 H 0.7637 0.5557 0.9443
C13 C 0.67985(16) 0.6015(3) 0.98358(12)
H13 H 0.7053 0.5797 1.0241
C14 C 0.60641(16) 0.6472(3) 0.96992(11)
H14 H 0.5824 0.6533 1.0019
C15 C 0.58808(17) 0.7404(3) 0.48539(12)
C16 C 0.63835(16) 0.8756(3) 0.41845(12)
C17 C 0.56998(16) 1.0757(3) 0.61204(12)
C18 C 0.57650(15) 1.3419(3) 0.61719(11)
Ni1B Ni 0.453762(16) 0.70989(3) 0.886466(12)
Ni1_2 Ni 0.546238(16) 1.70989(3) 0.613534(12)
Ni1_3 Ni 0.546238(16) -0.29011(3) 0.613534(12)
N1B N 0.34957(11) 0.7348(2) 0.82333(9)
N2B N 0.43187(11) 0.6834(2) 0.58746(8)
N3B N 0.48214(10) 0.7233(2) 0.80393(8)
N4B N 0.42577(14) 0.7108(3) 0.96849(10)
N5B N 0.40159(19) 0.7583(3) 1.06979(12)
N6B N 0.32951(18) 0.9711(4) 1.09890(14)
N7_2 N 0.54599(13) -0.0485(3) 0.60995(10)
N7B N 0.45401(13) 0.9515(3) 0.89005(10)
N8_2 N 0.60593(15) 0.2062(3) 0.61483(14)
N9_2 N 0.55945(12) 0.4693(2) 0.61916(9)
N9B N 0.44055(12) 0.4693(2) 0.88084(9)
C3B C 0.28483(15) 0.7546(3) 0.83848(13)
H7B H 0.2812 0.7256 0.8778
C4B C 0.22332(16) 0.8164(3) 0.79801(14)
H8B H 0.1779 0.8224 0.8087
C5B C 0.23011(14) 0.8691(3) 0.74155(13)
H9B H 0.1904 0.9192 0.7149
C6B C 0.29638(14) 0.8472(3) 0.72445(11)
H10B H 0.3020 0.8817 0.6863
C7B C 0.35400(13) 0.7728(3) 0.76559(10)
C8B C 0.42709(12) 0.7366(2) 0.75257(10)
C9B C 0.44572(12) 0.7146(2) 0.69559(10)
C10B C 0.39700(13) 0.6762(3) 0.63361(10)
C11B C 0.32426(14) 0.6257(3) 0.62339(12)
H11B H 0.3016 0.6166 0.6561
C12B C 0.28552(15) 0.5888(3) 0.56356(13)
H12B H 0.2363 0.5557 0.5557
C13B C 0.32015(16) 0.6015(3) 0.51642(12)
H13B H 0.2947 0.5797 0.4759
C14B C 0.39359(16) 0.6472(3) 0.53008(11)
H14B H 0.4176 0.6533 0.4981
C15B C 0.41192(17) 0.7404(3) 1.01461(12)
C16B C 0.36165(16) 0.8756(3) 1.08155(12)
C17_2 C 0.56998(16) 0.0757(3) 0.61204(12)
C18_2 C 0.57650(15) 0.3419(3) 0.61719(11)
O1 O 0.4531(3) 1.3769(6) 0.7077(2)
H1 H 0.4565 1.3323 0.6610
C1 C 0.5000 1.2936(8) 0.7500
H2 H 0.5077 1.3283 0.7108
H3 H 0.4506 1.3283 0.7508
C2 C 0.5000 1.1268(7) 0.7500
H4 H 0.5377 1.0895 0.7847
H5 H 0.5102 1.0895 0.7123
H6 H 0.4521 1.0895 0.7530
O1B O 0.5469(3) 1.3769(6) 0.7923(2)
H1B H 0.5435 1.3323 0.8390
H2B H 0.4923 1.3283 0.7892
H3B H 0.5494 1.3283 0.7492
H4B H 0.4623 1.0895 0.7153
H5B H 0.4898 1.0895 0.7877
H6B H 0.5479 1.0895 0.7470
loop_
_geom_bond_atom_site_label_1
_geom_bond_atom_site_label_2
_geom_bond_site_symmetry_1
_geom_bond_site_symmetry_2
O1 H1 1_555 1_555
C1 O1 1_555 1_555
H2 O1 1_555 1_555
H3 O1 1_555 1_555
C2 C1 1_555 1_555
H4 C2 1_555 1_555
H5 C2 1_555 1_555
H6 C2 1_555 1_555
Ni1 N1 1_555 1_555
N1 C3 1_555 1_555
N2 C10 1_555 1_555
N3 Ni1 1_555 1_555
N4 Ni1 1_555 1_555
N5 C15 1_555 1_555
N6 C16 1_555 1_555
N7 Ni1 1_555 1_555
N8 C17 1_555 1_555
N9 C18 1_555 1_555
C3 H7 1_555 1_555
C4 C3 1_555 1_555
H8 C4 1_555 1_555
C5 C4 1_555 1_555
H9 C5 1_555 1_555
C6 C5 1_555 1_555
H10 C6 1_555 1_555
C7 N1 1_555 1_555
C8 N3 1_555 1_555
C9 C8 1_555 1_555
C10 C9 1_555 1_555
C11 C10 1_555 1_555
H11 C11 1_555 1_555
C12 C11 1_555 1_555
H12 C12 1_555 1_555
C13 C12 1_555 1_555
H13 C13 1_555 1_555
C14 N2 1_555 1_555
H14 C14 1_555 1_555
C15 N4 1_555 1_555
C16 N5 1_555 1_555
C17 N7 1_555 1_555
C18 N8 1_555 1_555
O1B C1 1_555 1_555
H1B O1B 1_555 1_555
H2B C1 1_555 1_555
H3B C1 1_555 1_555
H4B C2 1_555 1_555
H5B C2 1_555 1_555
H6B C2 1_555 1_555
Ni1B N2 1_555 1_555
Ni1_2 N9 1_555 1_555
Ni1_3 N7_2 1_555 1_555
N1B Ni1B 1_555 1_555
N2B Ni1 1_555 1_555
N3B C9 1_555 1_555
N4B Ni1B 1_555 1_555
N5B C15B 1_555 1_555
N6B C16B 1_555 1_555
N7_2 C17_2 1_555 1_555
N7B Ni1B 1_555 1_555
N8_2 C17_2 1_555 1_555
N9_2 Ni1 1_555 1_555
N9B Ni1B 1_555 1_555
C3B N1B 1_555 1_555
H7B C3B 1_555 1_555
C4B C3B 1_555 1_555
H8B C4B 1_555 1_555
C5B C4B 1_555 1_555
H9B C5B 1_555 1_555
C6B C5B 1_555 1_555
H10B C6B 1_555 1_555
C7B N1B 1_555 1_555
C8B N3B 1_555 1_555
C9B N3 1_555 1_555
C10B N2B 1_555 1_555
C11B C10B 1_555 1_555
H11B C11B 1_555 1_555
C12B C11B 1_555 1_555
H12B C12B 1_555 1_555
C13B C12B 1_555 1_555
H13B C13B 1_555 1_555
C14B N2B 1_555 1_555
H14B C14B 1_555 1_555
C15B N4B 1_555 1_555
C16B N5B 1_555 1_555
C18_2 N8_2 1_555 1_555
C1 H2 1_555 1_555
C1 H3 1_555 1_555
C6 C7 1_555 1_555
C7 C8 1_555 1_555
C13 C14 1_555 1_555
O1B H2B 1_555 1_555
O1B H3B 1_555 1_555
Ni1B N3B 1_555 1_555
N9_2 C18_2 1_555 1_555
C6B C7B 1_555 1_555
C7B C8B 1_555 1_555
C8B C9B 1_555 1_555
C9B C10B 1_555 1_555
C13B C14B 1_555 1_555

#END
