
#######################################################################
#
#                 Cambridge Crystallographic Data Centre
#                                CCDC 
#
#######################################################################
#
# If this CIF has been generated from an entry in the Cambridge 
# Structural Database, then it will include bibliographic, chemical, 
# crystal, experimental, refinement or atomic coordinate data resulting 
# from the CCDC's data processing and validation procedures.
#
#######################################################################

data_XANKEC
_symmetry_cell_setting           monoclinic
_symmetry_space_group_name_H-M   'P 21/c'
_symmetry_Int_Tables_number      14
_space_group_name_Hall           '-P 2ybc'
loop_
_symmetry_equiv_pos_site_id
_symmetry_equiv_pos_as_xyz
1 x,y,z
2 x,1/2-y,1/2+z
3 -x,-y,-z
4 -x,1/2+y,1/2-z
_cell_length_a                   5.864(4)
_cell_length_b                   15.723(6)
_cell_length_c                   6.963(3)
_cell_angle_alpha                90
_cell_angle_beta                 100.36(4)
_cell_angle_gamma                90
_cell_volume                     631.52
loop_
_atom_site_label
_atom_site_type_symbol
_atom_site_fract_x
_atom_site_fract_y
_atom_site_fract_z
Co1 Co 0.76949(6) 0.10033(2) 0.21577(5)
Na1 Na 0.9662(2) 0.18341(7) 0.8076(2)
O1 O 0.8985(4) 0.10338(12) 0.5163(3)
O2 O 0.6795(4) 0.08595(14) -0.0861(3)
O3 O 1.0821(3) 0.15893(12) 0.1741(3)
C1 C 1.0044(5) 0.0363(2) 0.5749(4)
O4 O 1.3501(3) 0.29823(12) 0.2836(3)
C2 C 1.2977(5) 0.1494(2) 0.2145(4)
O5 O 1.1161(3) 0.02355(12) 0.7438(3)
O6 O 1.4071(3) 0.08047(12) 0.2304(3)
C3 C 1.4444(4) 0.2315(2) 0.2460(4)
O7 O 1.6549(3) 0.22301(12) 0.2329(3)
H1 H 0.6719(56) 0.0377(23) -0.1379(49)
H2 H 0.5722(77) 0.1099(26) -0.1316(61)
C1B C 0.9956(5) -0.0363(2) 0.4251(4)
O1B O 1.1015(4) -0.10338(12) 0.4837(3)
O5B O 0.8839(3) -0.02355(12) 0.2562(3)
O3_2 O 0.0821(3) 0.15893(12) 0.1741(3)
O4_2 O 0.3501(3) 0.29823(12) 0.2836(3)
C2_2 C 0.2977(5) 0.1494(2) 0.2145(4)
O6_2 O 0.4071(3) 0.08047(12) 0.2304(3)
C3_2 C 0.4444(4) 0.2315(2) 0.2460(4)
O7_2 O 0.6549(3) 0.22301(12) 0.2329(3)
Co1B Co 1.23051(6) -0.10033(2) 0.78423(5)
Na1B Na 1.0338(2) -0.18341(7) 0.1924(2)
O2_2 O 0.6795(4) 0.08595(14) 0.9139(3)
H1_2 H 0.6719(56) 0.0377(23) 0.8621(49)
H2_2 H 0.5722(77) 0.1099(26) 0.8684(61)
O3_3 O 1.0821(3) 0.15893(12) 1.1741(3)
O3A O 1.0821(3) 0.34107(12) 0.6741(3)
O4A O 1.3501(3) 0.20177(12) 0.7836(3)
O7A O 0.6549(3) 0.27699(12) 0.7329(3)
Na1_2 Na 0.9662(2) 0.18341(7) -0.1924(2)
Na1A Na 0.9662(2) 0.31659(7) 0.3076(2)
Co1_2 Co 1.76949(6) 0.10033(2) 0.21577(5)
Na1A_2 Na 1.9662(2) 0.31659(7) 0.3076(2)
Co1_3 Co -0.23051(6) 0.10033(2) 0.21577(5)
Na1_3 Na -0.0338(2) 0.18341(7) -0.1924(2)
Na1A_3 Na -0.0338(2) 0.31659(7) 0.3076(2)
O2B O 1.3205(4) -0.08595(14) 1.0861(3)
O3B O 0.9179(3) -0.15893(12) 0.8259(3)
O6B O 1.5929(3) -0.08047(12) 0.7696(3)
O7B O 1.3451(3) -0.22301(12) 0.7671(3)
O2B_2 O 1.3205(4) -0.08595(14) 0.0861(3)
O3B_2 O 0.9179(3) -0.15893(12) -0.1741(3)
O3C O 0.9179(3) -0.34107(12) 0.3259(3)
O4C O 0.6499(3) -0.20177(12) 0.2164(3)
O7C O 1.3451(3) -0.27699(12) 0.2671(3)
Co1_4 Co 0.76949(6) 0.10033(2) 1.21577(5)
H1B H 1.3281(56) -0.0377(23) 1.1379(49)
H2B H 1.4278(77) -0.1099(26) 1.1316(61)
H1B_2 H 1.3281(56) -0.0377(23) 0.1379(49)
H2B_2 H 1.4278(77) -0.1099(26) 0.1316(61)
loop_
_geom_bond_atom_site_label_1
_geom_bond_atom_site_label_2
_geom_bond_site_symmetry_1
_geom_bond_site_symmetry_2
Co1 O1 1_555 1_555
Na1 O1 1_555 1_555
O1 C1 1_555 1_555
O2 Co1 1_555 1_555
O3 Co1 1_555 1_555
C1 O5 1_555 1_555
O4 C3 1_555 1_555
C2 O3 1_555 1_555
O5 Na1 1_555 1_555
O6 C2 1_555 1_555
C3 C2 1_555 1_555
O7 C3 1_555 1_555
H1 O2 1_555 1_555
H2 O2 1_555 1_555
C1B C1 1_555 1_555
O1B C1B 1_555 1_555
O5B Co1 1_555 1_555
O3_2 C2_2 1_555 1_555
O4_2 C3_2 1_555 1_555
C2_2 O6_2 1_555 1_555
O6_2 Co1 1_555 1_555
C3_2 C2_2 1_555 1_555
O7_2 Co1 1_555 1_555
Co1B O5 1_555 1_555
Na1B O1B 1_555 1_555
O2_2 Na1 1_555 1_555
H1_2 O2_2 1_555 1_555
H2_2 O2_2 1_555 1_555
O3_3 Na1 1_555 1_555
O3A Na1 1_555 1_555
O4A Na1 1_555 1_555
O7A Na1 1_555 1_555
Na1_2 O2 1_555 1_555
Na1A O3 1_555 1_555
Co1_2 O6 1_555 1_555
Na1A_2 O7 1_555 1_555
Co1_3 O3_2 1_555 1_555
Na1_3 O3_2 1_555 1_555
Na1A_3 O3_2 1_555 1_555
O2B Co1B 1_555 1_555
O3B Co1B 1_555 1_555
O6B Co1B 1_555 1_555
O7B Co1B 1_555 1_555
O2B_2 Na1B 1_555 1_555
O3B_2 Na1B 1_555 1_555
O3C Na1B 1_555 1_555
O4C Na1B 1_555 1_555
O7C Na1B 1_555 1_555
Co1_4 O2_2 1_555 1_555
H1B O2B 1_555 1_555
H2B O2B 1_555 1_555
H1B_2 O2B_2 1_555 1_555
H2B_2 O2B_2 1_555 1_555
O3 Na1_2 1_555 1_555
O4 Na1A 1_555 1_555
O7 Co1_2 1_555 1_555
C1B O5B 1_555 1_555
O1B Co1B 1_555 1_555
O5B Na1B 1_555 1_555
O4_2 Na1A_3 1_555 1_555
C3_2 O7_2 1_555 1_555
O7_2 Na1A 1_555 1_555
O3_3 Co1_4 1_555 1_555
O3A Na1A 1_555 1_555

#END
