
#######################################################################
#
#                 Cambridge Crystallographic Data Centre
#                                CCDC 
#
#######################################################################
#
# If this CIF has been generated from an entry in the Cambridge 
# Structural Database, then it will include bibliographic, chemical, 
# crystal, experimental, refinement or atomic coordinate data resulting 
# from the CCDC's data processing and validation procedures.
#
#######################################################################

data_XANKIH
_symmetry_cell_setting           triclinic
_symmetry_space_group_name_H-M   'P -1'
_symmetry_Int_Tables_number      2
_space_group_name_Hall           '-P 1'
loop_
_symmetry_equiv_pos_site_id
_symmetry_equiv_pos_as_xyz
1 x,y,z
2 -x,-y,-z
_cell_length_a                   7.2257(14)
_cell_length_b                   9.830(2)
_cell_length_c                   13.040(3)
_cell_angle_alpha                82.84(3)
_cell_angle_beta                 85.61(3)
_cell_angle_gamma                80.93(3)
_cell_volume                     905.969
loop_
_atom_site_label
_atom_site_type_symbol
_atom_site_fract_x
_atom_site_fract_y
_atom_site_fract_z
Br1 Br -0.01526(8) 0.59924(7) 0.33485(5)
Br2 Br 0.10165(11) 0.96907(7) 0.22587(5)
Br3 Br 0.44471(8) 0.61529(7) 0.16209(5)
C1 C 0.5694(8) 0.3954(7) 0.3899(4)
H1 H 0.6114 0.4575 0.3368
C2 C 0.6703(8) 0.3586(7) 0.4769(4)
H2 H 0.7787 0.3969 0.4817
C3 C 0.4618(8) 0.2128(6) 0.5446(4)
C4 C 0.3589(8) 0.2507(6) 0.4561(4)
C5 C -0.0419(7) 0.3994(6) 0.1287(4)
H3 H -0.1171 0.4577 0.1712
C6 C -0.1167(8) 0.3620(6) 0.0452(4)
H4 H -0.2396 0.3988 0.0301
C7 C 0.1593(8) 0.2216(6) 0.0082(4)
C8 C 0.2376(7) 0.2652(6) 0.0923(4)
C9 C 0.4060(9) 0.1097(7) 0.6320(5)
H5 H 0.5006 0.0914 0.6818
H6 H 0.3934 0.0250 0.6055
H7 H 0.2884 0.1467 0.6646
C10 C 0.1851(9) 0.1888(8) 0.4433(6)
H8 H 0.1001 0.2002 0.5030
H9 H 0.2193 0.0919 0.4363
H10 H 0.1253 0.2350 0.3825
C11 C 0.2670(10) 0.1150(7) -0.0543(5)
H11 H 0.1901 0.0972 -0.1065
H12 H 0.3024 0.0309 -0.0099
H13 H 0.3776 0.1484 -0.0866
C12 C 0.4367(8) 0.2113(7) 0.1184(5)
H14 H 0.4768 0.2691 0.1639
H15 H 0.5164 0.2122 0.0561
H16 H 0.4440 0.1182 0.1520
Cu1 Cu 0.24773(10) 0.43333(9) 0.26384(6)
Cu2 Cu 0.23832(16) 0.75633(12) 0.32019(7)
Cu3 Cu 0.12969(15) 0.76433(12) 0.14051(8)
N1 N 0.4118(6) 0.3437(5) 0.3802(3)
N2 N 0.6162(7) 0.2688(5) 0.5548(4)
N3 N 0.1367(6) 0.3544(5) 0.1510(3)
N4 N -0.0157(6) 0.2727(5) -0.0160(4)
Cu2A Cu 0.76168(16) 0.24367(12) 0.67981(7)
Cu3A Cu -0.12969(15) 0.23567(12) -0.14051(8)
N2A N 0.3838(7) 0.7312(5) 0.4452(4)
N4A N 0.0157(6) 0.7273(5) 0.0160(4)
loop_
_geom_bond_atom_site_label_1
_geom_bond_atom_site_label_2
_geom_bond_site_symmetry_1
_geom_bond_site_symmetry_2
Br1 Cu1 1_555 1_555
Br2 Cu2 1_555 1_555
Br3 Cu1 1_555 1_555
C1 H1 1_555 1_555
C2 C1 1_555 1_555
H2 C2 1_555 1_555
C3 C4 1_555 1_555
C4 C10 1_555 1_555
C5 H3 1_555 1_555
C6 C5 1_555 1_555
H4 C6 1_555 1_555
C7 C8 1_555 1_555
C8 C12 1_555 1_555
C9 C3 1_555 1_555
H5 C9 1_555 1_555
H6 C9 1_555 1_555
H7 C9 1_555 1_555
C10 H8 1_555 1_555
H9 C10 1_555 1_555
H10 C10 1_555 1_555
C11 C7 1_555 1_555
H11 C11 1_555 1_555
H12 C11 1_555 1_555
H13 C11 1_555 1_555
C12 H14 1_555 1_555
H15 C12 1_555 1_555
H16 C12 1_555 1_555
Cu1 N1 1_555 1_555
Cu2 Br1 1_555 1_555
Cu3 Br2 1_555 1_555
N1 C1 1_555 1_555
N2 C2 1_555 1_555
N3 C5 1_555 1_555
N4 C6 1_555 1_555
Cu2A N2 1_555 1_555
Cu3A N4 1_555 1_555
N2A Cu2 1_555 1_555
N4A Cu3 1_555 1_555
Br3 Cu2 1_555 1_555
Br3 Cu3 1_555 1_555
C3 N2 1_555 1_555
C4 N1 1_555 1_555
C7 N4 1_555 1_555
C8 N3 1_555 1_555
Cu1 N3 1_555 1_555
Cu2 Cu3 1_555 1_555

#END
