
#######################################################################
#
#                 Cambridge Crystallographic Data Centre
#                                CCDC 
#
#######################################################################
#
# If this CIF has been generated from an entry in the Cambridge 
# Structural Database, then it will include bibliographic, chemical, 
# crystal, experimental, refinement or atomic coordinate data resulting 
# from the CCDC's data processing and validation procedures.
#
#######################################################################

data_XANPAE
_symmetry_cell_setting           monoclinic
_symmetry_space_group_name_H-M   'C 2/c'
_symmetry_Int_Tables_number      15
_space_group_name_Hall           '-C 2yn'
loop_
_symmetry_equiv_pos_site_id
_symmetry_equiv_pos_as_xyz
1 x,y,z
2 1/2+x,1/2+y,z
3 -x,y,1/2-z
4 1/2-x,1/2+y,1/2-z
5 -x,-y,-z
6 1/2-x,1/2-y,-z
7 x,-y,1/2+z
8 1/2+x,1/2-y,1/2+z
_cell_length_a                   23.002(5)
_cell_length_b                   11.291(2)
_cell_length_c                   9.7396(19)
_cell_angle_alpha                90
_cell_angle_beta                 109.85(3)
_cell_angle_gamma                90
_cell_volume                     2379.23
loop_
_atom_site_label
_atom_site_type_symbol
_atom_site_fract_x
_atom_site_fract_y
_atom_site_fract_z
Ni1 Ni 0.5000 0.52464(3) 0.7500
O1 O 0.57917(5) 0.53368(11) 0.93150(12)
O2 O 0.55733(5) 0.46313(11) 1.12378(12)
N1 N 0.5000 0.33974(18) 0.7500
N2 N 0.5000 -0.28838(18) 0.7500
N3 N 0.67379(7) 0.54051(15) 1.30969(16)
C1 C 0.5000 0.0914(2) 0.7500
C2 C 0.49129(10) 0.15492(17) 0.8631(2)
C3 C 0.49325(9) 0.27754(16) 0.86107(19)
C4 C 0.55169(9) -0.22675(17) 0.7708(2)
C5 C 0.55377(10) -0.10413(17) 0.7707(2)
C6 C 0.5000 -0.0404(2) 0.7500
C7 C 0.65029(8) 0.56816(17) 1.16304(17)
C8 C 0.69158(9) 0.63914(19) 1.1279(2)
C9 C 0.74304(9) 0.65659(19) 1.2573(2)
C10 C 0.73066(8) 0.59403(18) 1.36936(19)
C11 C 0.77200(10) 0.5932(2) 1.5132(2)
C12 C 0.82594(10) 0.6570(2) 1.5407(2)
C13 C 0.83919(10) 0.7202(2) 1.4311(3)
C14 C 0.79849(10) 0.7211(2) 1.2905(3)
C15 C 0.59087(7) 0.51816(15) 1.06760(17)
H1 H 0.4888(12) 0.116(2) 0.945(3)
H2 H 0.4911(10) 0.324(2) 0.945(2)
H3 H 0.5887(9) -0.2717(18) 0.782(2)
H4 H 0.5950(12) -0.059(3) 0.793(3)
H5 H 0.6886(10) 0.667(2) 1.035(2)
H6 H 0.7613(11) 0.553(2) 1.589(3)
H7 H 0.8533(14) 0.653(3) 1.632(3)
H8 H 0.8770(12) 0.761(2) 1.459(3)
H9 H 0.8095(11) 0.767(2) 1.209(3)
H10 H 0.6529(10) 0.517(2) 1.354(2)
Ni1F Ni 0.5000 0.47536(3) 1.2500
Ni1_2 Ni 0.5000 -0.47536(3) 0.7500
Ni1F_2 Ni 0.5000 0.47536(3) 0.2500
O1B O 0.42083(5) 0.53368(11) 0.56850(12)
O2B O 0.44267(5) 0.46313(11) 0.37622(12)
O2F O 0.55733(5) 0.53687(11) 0.62378(12)
O2D O 0.44267(5) 0.53687(11) 0.87622(12)
N2_2 N 0.5000 0.71162(18) 0.7500
N3B N 0.32621(7) 0.54051(15) 0.19031(16)
C2B C 0.50871(10) 0.15492(17) 0.6369(2)
C3B C 0.50675(9) 0.27754(16) 0.63893(19)
C4B C 0.44831(9) -0.22675(17) 0.7292(2)
C5B C 0.44623(10) -0.10413(17) 0.7293(2)
C7B C 0.34971(8) 0.56816(17) 0.33696(17)
C8B C 0.30842(9) 0.63914(19) 0.3721(2)
C9B C 0.25696(9) 0.65659(19) 0.2427(2)
C10B C 0.26934(8) 0.59403(18) 0.13064(19)
C11B C 0.22800(10) 0.5932(2) -0.0132(2)
C12B C 0.17406(10) 0.6570(2) -0.0407(2)
C13B C 0.16081(10) 0.7202(2) 0.0689(3)
C14B C 0.20151(10) 0.7211(2) 0.2095(3)
C15B C 0.40913(7) 0.51816(15) 0.43240(17)
H1B H 0.5112(12) 0.116(2) 0.555(3)
H2B H 0.5089(10) 0.324(2) 0.555(2)
H3B H 0.4113(9) -0.2717(18) 0.718(2)
H4B H 0.4050(12) -0.059(3) 0.707(3)
H5B H 0.3114(10) 0.667(2) 0.465(2)
H6B H 0.2387(11) 0.553(2) -0.089(3)
H7B H 0.1467(14) 0.653(3) -0.132(3)
H8B H 0.1230(12) 0.761(2) 0.041(3)
H9B H 0.1905(11) 0.767(2) 0.291(3)
H10B H 0.3471(10) 0.517(2) 0.146(2)
loop_
_geom_bond_atom_site_label_1
_geom_bond_atom_site_label_2
_geom_bond_site_symmetry_1
_geom_bond_site_symmetry_2
Ni1 O1 1_555 1_555
O1 C15 1_555 1_555
O2 C15 1_555 1_555
N1 Ni1 1_555 1_555
N2 C4 1_555 1_555
N3 C7 1_555 1_555
C1 C2 1_555 1_555
C2 C3 1_555 1_555
C3 N1 1_555 1_555
C4 C5 1_555 1_555
C5 C6 1_555 1_555
C6 C1 1_555 1_555
C7 C8 1_555 1_555
C8 C9 1_555 1_555
C9 C10 1_555 1_555
C10 N3 1_555 1_555
C11 C10 1_555 1_555
C12 C11 1_555 1_555
C13 C12 1_555 1_555
C14 C9 1_555 1_555
C15 C7 1_555 1_555
H1 C2 1_555 1_555
H2 C3 1_555 1_555
H3 C4 1_555 1_555
H4 C5 1_555 1_555
H5 C8 1_555 1_555
H6 C11 1_555 1_555
H7 C12 1_555 1_555
H8 C13 1_555 1_555
H9 C14 1_555 1_555
H10 N3 1_555 1_555
Ni1F O2 1_555 1_555
Ni1_2 N2 1_555 1_555
Ni1F_2 O2B 1_555 1_555
O1B Ni1 1_555 1_555
O2B C15B 1_555 1_555
O2F Ni1 1_555 1_555
O2D Ni1 1_555 1_555
N2_2 Ni1 1_555 1_555
N3B C7B 1_555 1_555
C2B C1 1_555 1_555
C3B N1 1_555 1_555
C4B N2 1_555 1_555
C5B C6 1_555 1_555
C7B C8B 1_555 1_555
C8B C9B 1_555 1_555
C9B C10B 1_555 1_555
C10B N3B 1_555 1_555
C11B C10B 1_555 1_555
C12B C11B 1_555 1_555
C13B C12B 1_555 1_555
C14B C9B 1_555 1_555
C15B O1B 1_555 1_555
H1B C2B 1_555 1_555
H2B C3B 1_555 1_555
H3B C4B 1_555 1_555
H4B C5B 1_555 1_555
H5B C8B 1_555 1_555
H6B C11B 1_555 1_555
H7B C12B 1_555 1_555
H8B C13B 1_555 1_555
H9B C14B 1_555 1_555
H10B N3B 1_555 1_555
C13 C14 1_555 1_555
C2B C3B 1_555 1_555
C4B C5B 1_555 1_555
C7B C15B 1_555 1_555
C13B C14B 1_555 1_555

#END
