
#######################################################################
#
#                 Cambridge Crystallographic Data Centre
#                                CCDC 
#
#######################################################################
#
# If this CIF has been generated from an entry in the Cambridge 
# Structural Database, then it will include bibliographic, chemical, 
# crystal, experimental, refinement or atomic coordinate data resulting 
# from the CCDC's data processing and validation procedures.
#
#######################################################################

data_XANXOA
_symmetry_cell_setting           triclinic
_symmetry_space_group_name_H-M   'P -1'
_symmetry_Int_Tables_number      2
_space_group_name_Hall           '-P 1'
loop_
_symmetry_equiv_pos_site_id
_symmetry_equiv_pos_as_xyz
1 x,y,z
2 -x,-y,-z
_cell_length_a                   8.7805(6)
_cell_length_b                   17.4841(12)
_cell_length_c                   18.6170(12)
_cell_angle_alpha                113.7450(10)
_cell_angle_beta                 102.7020(10)
_cell_angle_gamma                91.0730(10)
_cell_volume                     2533.62
loop_
_atom_site_label
_atom_site_type_symbol
_atom_site_fract_x
_atom_site_fract_y
_atom_site_fract_z
Ag1 Ag 0.50489(2) 0.362081(13) 0.073961(12)
Ag2 Ag 1.12949(2) 0.093449(13) 0.786639(12)
S1 S 1.35481(8) 0.14354(4) 1.00592(4)
S2 S 1.26598(7) 0.31523(4) 0.84108(4)
F1 F 1.0943(2) 0.09275(11) 1.02900(12)
F2 F 1.2987(2) 0.05343(13) 1.08286(12)
F3 F 1.2047(2) -0.00697(11) 0.95481(12)
F4 F 1.2705(3) 0.33703(17) 0.71026(14)
F5 F 1.4985(2) 0.35478(13) 0.78963(13)
F6 F 1.3428(3) 0.44774(13) 0.81868(19)
O1 O 0.4061(2) 0.40940(12) 0.32081(11)
O2 O 0.8335(2) 0.36487(11) 0.21102(11)
O3 O 0.7123(2) 0.18459(12) 0.64952(11)
O4 O 0.2908(2) 0.01554(12) 0.55296(11)
O5 O 1.4986(3) 0.10899(15) 1.00064(19)
O6 O 1.2637(3) 0.14609(16) 0.93368(13)
O7 O 1.3625(3) 0.21909(12) 1.07637(12)
O8 O 1.2683(2) 0.22794(11) 0.79119(13)
O9 O 1.3715(3) 0.34774(17) 0.91897(13)
O10 O 1.1119(2) 0.34150(12) 0.83885(13)
N1 N 0.8922(2) 0.11600(13) 0.80215(12)
N2 N 0.2934(2) 0.00269(13) 0.74059(12)
N3 N 0.3249(2) 0.42877(13) 0.12822(13)
N4 N 0.7183(2) 0.32607(13) 0.03636(12)
C1 C 0.3141(3) 0.34205(16) 0.31626(15)
C2 C 0.2492(3) 0.27055(17) 0.24646(15)
H1 H 0.2668 0.2643 0.1960
C3 C 0.1572(3) 0.20775(17) 0.25149(16)
H2 H 0.1133 0.1586 0.2036
C4 C 0.1278(3) 0.21441(16) 0.32338(15)
C5 C 0.1961(3) 0.28613(17) 0.39295(16)
H3 H 0.1796 0.2917 0.4435
C6 C 0.2878(3) 0.34953(16) 0.38999(15)
H4 H 0.3330 0.3982 0.4382
C7 C 0.4364(3) 0.40692(17) 0.24795(16)
H5 H 0.4482 0.3483 0.2131
H6 H 0.5372 0.4420 0.2614
C8 C 0.3090(3) 0.43770(15) 0.20125(15)
C9 C 0.1886(3) 0.47731(17) 0.23322(17)
H7 H 0.1787 0.4821 0.2846
C10 C 0.0833(3) 0.50963(17) 0.18922(17)
H8 H 0.0001 0.5372 0.2099
C11 C 0.1011(3) 0.50123(16) 0.11445(17)
H9 H 0.0304 0.5232 0.0832
C12 C 0.2221(3) 0.46073(15) 0.08609(16)
H10 H 0.2335 0.4551 0.0347
C13 C 0.7434(3) 0.33937(16) -0.02639(16)
H11 H 0.6654 0.3625 -0.0531
C14 C 0.8778(3) 0.32098(16) -0.05385(16)
H12 H 0.8914 0.3312 -0.0986
C15 C 0.9920(3) 0.28749(16) -0.01543(17)
H13 H 1.0853 0.2739 -0.0333
C16 C 0.9674(3) 0.27429(16) 0.04961(17)
H14 H 1.0448 0.2519 0.0775
C17 C 0.8299(3) 0.29374(15) 0.07428(15)
C18 C 0.8012(3) 0.28258(16) 0.14608(15)
H15 H 0.6908 0.2590 0.1350
H16 H 0.8717 0.2442 0.1596
C19 C 0.8163(3) 0.37251(16) 0.28527(15)
C20 C 0.7701(3) 0.30764(17) 0.30269(16)
H17 H 0.7514 0.2514 0.2623
C21 C 0.7511(3) 0.32480(16) 0.37959(16)
H18 H 0.7199 0.2796 0.3912
C22 C 0.7763(3) 0.40599(16) 0.43975(15)
C23 C 0.8274(3) 0.47062(17) 0.42107(16)
H19 H 0.8488 0.5268 0.4616
C24 C 0.8472(3) 0.45423(17) 0.34515(16)
H20 H 0.8821 0.4989 0.3337
C25 C 0.7430(4) 0.42822(17) 0.52213(16)
H21 H 0.8241 0.4742 0.5630
H22 H 0.6404 0.4508 0.5213
C26 C 0.7387(3) 0.35846(16) 0.55067(15)
C27 C 0.8753(3) 0.33497(16) 0.58505(16)
H23 H 0.9737 0.3594 0.5860
C28 C 0.8729(3) 0.27663(16) 0.61828(15)
H24 H 0.9686 0.2619 0.6419
C29 C 0.7310(3) 0.24045(16) 0.61662(15)
C30 C 0.5922(3) 0.26010(19) 0.57932(18)
H25 H 0.4938 0.2336 0.5759
C31 C 0.5980(3) 0.3185(2) 0.54707(18)
H26 H 0.5023 0.3316 0.5216
C32 C 0.8455(3) 0.17792(17) 0.70533(16)
H27 H 0.9116 0.2330 0.7359
H28 H 0.9097 0.1362 0.6759
C33 C 0.7875(3) 0.15053(15) 0.76267(15)
C34 C 0.6411(3) 0.16405(16) 0.77715(16)
H29 H 0.5695 0.1874 0.7477
C35 C 0.5990(3) 0.14322(16) 0.83514(17)
H30 H 0.4996 0.1535 0.8471
C36 C 0.7047(3) 0.10719(16) 0.87521(16)
H31 H 0.6784 0.0913 0.9145
C37 C 0.8485(3) 0.09475(15) 0.85725(16)
H32 H 0.9205 0.0700 0.8851
C38 C 0.3607(3) -0.04015(16) 0.78229(16)
H33 H 0.3474 -0.0253 0.8353
C39 C 0.4486(3) -0.10480(17) 0.75171(18)
H34 H 0.4945 -0.1337 0.7831
C40 C 0.4685(3) -0.12659(17) 0.67497(18)
H35 H 0.5278 -0.1711 0.6523
C41 C 0.4006(3) -0.08260(16) 0.63120(17)
H36 H 0.4121 -0.0968 0.5779
C42 C 0.3156(3) -0.01746(15) 0.66633(15)
C43 C 0.2398(3) 0.03537(16) 0.62515(15)
H37 H 0.1239 0.0235 0.6120
H38 H 0.2702 0.0958 0.6614
C44 C 0.2241(3) 0.05228(16) 0.50320(16)
C45 C 0.1141(3) 0.10930(17) 0.51897(17)
H39 H 0.0833 0.1275 0.5685
C46 C 0.0499(3) 0.13930(17) 0.46165(17)
H40 H -0.0264 0.1775 0.4723
C47 C 0.0942(3) 0.11500(16) 0.38920(16)
C48 C 0.2073(3) 0.05971(16) 0.37592(16)
H41 H 0.2410 0.0430 0.3272
C49 C 0.2718(3) 0.02851(16) 0.43149(16)
H42 H 0.3488 -0.0092 0.4209
C50 C 0.0225(3) 0.14677(17) 0.32634(17)
H43 H -0.0764 0.1693 0.3376
H44 H -0.0047 0.0987 0.2724
C51 C 1.2331(3) 0.06680(17) 1.01935(17)
C52 C 1.3484(3) 0.36650(19) 0.7875(2)
Ag2_2 Ag 0.12949(2) 0.093449(13) 0.786639(12)
N2_2 N 1.2934(2) 0.00269(13) 0.74059(12)
loop_
_geom_bond_atom_site_label_1
_geom_bond_atom_site_label_2
_geom_bond_site_symmetry_1
_geom_bond_site_symmetry_2
Ag1 N3 1_555 1_555
Ag2 O6 1_555 1_555
S1 O5 1_555 1_555
S2 O8 1_555 1_555
F1 C51 1_555 1_555
F2 C51 1_555 1_555
F3 C51 1_555 1_555
F4 C52 1_555 1_555
F5 C52 1_555 1_555
F6 C52 1_555 1_555
O1 C1 1_555 1_555
O2 C18 1_555 1_555
O3 C29 1_555 1_555
O4 C43 1_555 1_555
O6 S1 1_555 1_555
O7 S1 1_555 1_555
O8 Ag2 1_555 1_555
O9 S2 1_555 1_555
O10 S2 1_555 1_555
N1 Ag2 1_555 1_555
N2 C38 1_555 1_555
N3 C8 1_555 1_555
N4 Ag1 1_555 1_555
C1 C2 1_555 1_555
C2 H1 1_555 1_555
C3 C2 1_555 1_555
H2 C3 1_555 1_555
C4 C3 1_555 1_555
C5 C4 1_555 1_555
H3 C5 1_555 1_555
C6 C1 1_555 1_555
H4 C6 1_555 1_555
C7 O1 1_555 1_555
H5 C7 1_555 1_555
H6 C7 1_555 1_555
C8 C7 1_555 1_555
C9 C8 1_555 1_555
H7 C9 1_555 1_555
C10 C9 1_555 1_555
H8 C10 1_555 1_555
C11 C10 1_555 1_555
H9 C11 1_555 1_555
C12 N3 1_555 1_555
H10 C12 1_555 1_555
C13 N4 1_555 1_555
H11 C13 1_555 1_555
C14 C13 1_555 1_555
H12 C14 1_555 1_555
C15 C14 1_555 1_555
H13 C15 1_555 1_555
C16 C15 1_555 1_555
H14 C16 1_555 1_555
C17 N4 1_555 1_555
C18 C17 1_555 1_555
H15 C18 1_555 1_555
H16 C18 1_555 1_555
C19 O2 1_555 1_555
C20 C19 1_555 1_555
H17 C20 1_555 1_555
C21 C20 1_555 1_555
H18 C21 1_555 1_555
C22 C21 1_555 1_555
C23 C22 1_555 1_555
H19 C23 1_555 1_555
C24 C19 1_555 1_555
H20 C24 1_555 1_555
C25 C22 1_555 1_555
H21 C25 1_555 1_555
H22 C25 1_555 1_555
C26 C25 1_555 1_555
C27 C26 1_555 1_555
H23 C27 1_555 1_555
C28 C27 1_555 1_555
H24 C28 1_555 1_555
C29 C28 1_555 1_555
C30 C29 1_555 1_555
H25 C30 1_555 1_555
C31 C26 1_555 1_555
H26 C31 1_555 1_555
C32 O3 1_555 1_555
H27 C32 1_555 1_555
H28 C32 1_555 1_555
C33 N1 1_555 1_555
C34 C33 1_555 1_555
H29 C34 1_555 1_555
C35 C34 1_555 1_555
H30 C35 1_555 1_555
C36 C35 1_555 1_555
H31 C36 1_555 1_555
C37 N1 1_555 1_555
H32 C37 1_555 1_555
C38 H33 1_555 1_555
C39 C38 1_555 1_555
H34 C39 1_555 1_555
C40 C39 1_555 1_555
H35 C40 1_555 1_555
C41 C40 1_555 1_555
H36 C41 1_555 1_555
C42 N2 1_555 1_555
C43 C42 1_555 1_555
H37 C43 1_555 1_555
H38 C43 1_555 1_555
C44 O4 1_555 1_555
C45 C44 1_555 1_555
H39 C45 1_555 1_555
C46 C45 1_555 1_555
H40 C46 1_555 1_555
C47 C46 1_555 1_555
C48 C47 1_555 1_555
H41 C48 1_555 1_555
C49 C44 1_555 1_555
H42 C49 1_555 1_555
C50 C4 1_555 1_555
H43 C50 1_555 1_555
H44 C50 1_555 1_555
C51 S1 1_555 1_555
C52 S2 1_555 1_555
Ag2_2 N2 1_555 1_555
N2_2 Ag2 1_555 1_555
C5 C6 1_555 1_555
C11 C12 1_555 1_555
C16 C17 1_555 1_555
C23 C24 1_555 1_555
C30 C31 1_555 1_555
C32 C33 1_555 1_555
C36 C37 1_555 1_555
C41 C42 1_555 1_555
C47 C50 1_555 1_555
C48 C49 1_555 1_555

#END
