
#######################################################################
#
#                 Cambridge Crystallographic Data Centre
#                                CCDC 
#
#######################################################################
#
# If this CIF has been generated from an entry in the Cambridge 
# Structural Database, then it will include bibliographic, chemical, 
# crystal, experimental, refinement or atomic coordinate data resulting 
# from the CCDC's data processing and validation procedures.
#
#######################################################################

data_XANXUG
_symmetry_cell_setting           triclinic
_symmetry_space_group_name_H-M   'P -1'
_symmetry_Int_Tables_number      2
_space_group_name_Hall           '-P 1'
loop_
_symmetry_equiv_pos_site_id
_symmetry_equiv_pos_as_xyz
1 x,y,z
2 -x,-y,-z
_cell_length_a                   9.0500(6)
_cell_length_b                   10.7333(7)
_cell_length_c                   11.3373(7)
_cell_angle_alpha                91.4810(10)
_cell_angle_beta                 94.7020(10)
_cell_angle_gamma                111.9030(10)
_cell_volume                     1016.43
loop_
_atom_site_label
_atom_site_type_symbol
_atom_site_fract_x
_atom_site_fract_y
_atom_site_fract_z
Ag1 Ag 0.60761(3) 0.84618(2) 0.79119(2)
S1 S 0.64265(12) 0.81397(11) 0.55179(9)
O1 O 0.3432(3) 0.6666(2) 0.9244(2)
N1 N 0.7971(3) 0.7667(3) 0.7961(2)
N2 N 0.4162(3) 0.9161(3) 0.8207(2)
C1 C 0.5693(4) 0.6385(3) 0.5252(3)
C2 C 0.6456(4) 0.5750(3) 0.4573(3)
H1 H 0.7445 0.6258 0.4280
C3 C 0.4243(4) 0.5627(3) 0.5669(3)
H2 H 0.3723 0.6063 0.6128
C4 C 0.8432(5) 0.8477(4) 0.5979(3)
H3 H 0.8950 0.8301 0.5292
H4 H 0.8962 0.9446 0.6225
C5 C 0.8724(4) 0.7685(3) 0.6977(3)
C6 C 0.9745(4) 0.7004(3) 0.6891(3)
H5 H 1.0260 0.7029 0.6190
C7 C 1.0017(4) 0.6286(4) 0.7827(4)
H6 H 1.0707 0.5807 0.7774
C8 C 0.9266(4) 0.6282(3) 0.8834(4)
H7 H 0.9437 0.5808 0.9495
C9 C 0.8262(4) 0.6979(3) 0.8868(3)
H8 H 0.7748 0.6973 0.9566
C10 C 0.3856(4) 1.0001(3) 0.7447(3)
H9 H 0.4450 1.0228 0.6778
C11 C 0.2727(4) 1.0544(3) 0.7597(3)
H10 H 0.2533 1.1123 0.7038
C12 C 0.1875(4) 1.0230(3) 0.8581(3)
H11 H 0.1098 1.0604 0.8715
C13 C 0.2171(4) 0.9364(3) 0.9367(3)
H12 H 0.1603 0.9139 1.0049
C14 C 0.3305(3) 0.8832(3) 0.9146(3)
C15 C 0.3662(4) 0.7865(3) 0.9958(3)
H13 H 0.4778 0.8269 1.0331
H14 H 0.2932 0.7649 1.0593
C16 C 0.4223(3) 0.5859(3) 0.9668(3)
C17 C 0.4247(4) 0.4870(3) 0.8862(3)
H15 H 0.3728 0.4781 0.8083
C18 C 0.4976(4) 0.5991(3) 1.0817(3)
H16 H 0.4957 0.6661 1.1373
Ag1A Ag 0.39239(3) 0.15382(2) 0.20881(2)
Ag1A_2 Ag 0.39239(3) 0.15382(2) 1.20881(2)
S1A S 0.35735(12) 0.18603(11) 0.44821(9)
O1A O 0.6568(3) 0.3334(2) 1.0756(2)
N1A N 0.2029(3) 0.2333(3) 0.2039(2)
N2A N 0.5838(3) 0.0839(3) 1.1793(2)
N2A_2 N 0.5838(3) 0.0839(3) 0.1793(2)
C1A C 0.4307(4) 0.3615(3) 0.4748(3)
C2A C 0.3544(4) 0.4250(3) 0.5427(3)
H1A H 0.2555 0.3742 0.5720
C3A C 0.5757(4) 0.4373(3) 0.4331(3)
H2A H 0.6277 0.3937 0.3872
C4A C 0.1568(5) 0.1523(4) 0.4021(3)
H3A H 0.1050 0.1699 0.4708
H4A H 0.1038 0.0554 0.3775
C5A C 0.1276(4) 0.2315(3) 0.3023(3)
C6A C 0.0255(4) 0.2996(3) 0.3109(3)
H5A H -0.0260 0.2971 0.3810
C7A C -0.0017(4) 0.3714(4) 0.2173(4)
H6A H -0.0707 0.4193 0.2226
C8A C 0.0734(4) 0.3718(3) 0.1166(4)
H7A H 0.0563 0.4192 0.0505
C9A C 0.1738(4) 0.3021(3) 0.1132(3)
H8A H 0.2252 0.3027 0.0434
C10A C 0.6144(4) -0.0001(3) 1.2553(3)
H9A H 0.5550 -0.0228 1.3222
C11A C 0.7273(4) -0.0544(3) 1.2403(3)
H10A H 0.7467 -0.1123 1.2962
C12A C 0.8125(4) -0.0230(3) 1.1419(3)
H11A H 0.8902 -0.0604 1.1285
C13A C 0.7829(4) 0.0636(3) 1.0633(3)
H12A H 0.8397 0.0861 0.9951
C14A C 0.6695(3) 0.1168(3) 1.0854(3)
C15A C 0.6338(4) 0.2135(3) 1.0042(3)
H13A H 0.5222 0.1731 0.9669
H14A H 0.7068 0.2351 0.9407
C16A C 0.5777(3) 0.4141(3) 1.0332(3)
C17A C 0.5753(4) 0.5130(3) 1.1138(3)
H15A H 0.6272 0.5219 1.1917
C18A C 0.5024(4) 0.4009(3) 0.9183(3)
H16A H 0.5043 0.3339 0.8627
S2 S 0.92238(9) 0.22250(8) 0.73360(7)
F1 F 0.6967(3) 0.3164(3) 0.6861(2)
F2 F 0.8919(3) 0.3907(2) 0.5790(2)
F3 F 0.7211(3) 0.1885(3) 0.5456(2)
O2 O 0.8054(4) 0.1037(3) 0.7747(2)
O3 O 0.9934(4) 0.3303(3) 0.8220(2)
O4 O 1.0292(3) 0.1965(3) 0.6584(2)
C19 C 0.8018(4) 0.2825(4) 0.6311(3)
loop_
_geom_bond_atom_site_label_1
_geom_bond_atom_site_label_2
_geom_bond_site_symmetry_1
_geom_bond_site_symmetry_2
Ag1 S1 1_555 1_555
S1 C1 1_555 1_555
O1 C15 1_555 1_555
N1 Ag1 1_555 1_555
N2 Ag1 1_555 1_555
C1 C2 1_555 1_555
C2 H1 1_555 1_555
C3 C1 1_555 1_555
H2 C3 1_555 1_555
C4 S1 1_555 1_555
H3 C4 1_555 1_555
H4 C4 1_555 1_555
C5 N1 1_555 1_555
C6 C5 1_555 1_555
H5 C6 1_555 1_555
C7 C6 1_555 1_555
H6 C7 1_555 1_555
C8 C7 1_555 1_555
H7 C8 1_555 1_555
C9 N1 1_555 1_555
H8 C9 1_555 1_555
C10 N2 1_555 1_555
H9 C10 1_555 1_555
C11 C10 1_555 1_555
H10 C11 1_555 1_555
C12 C11 1_555 1_555
H11 C12 1_555 1_555
C13 C12 1_555 1_555
H12 C13 1_555 1_555
C14 N2 1_555 1_555
C15 C14 1_555 1_555
H13 C15 1_555 1_555
H14 C15 1_555 1_555
C16 O1 1_555 1_555
C17 C16 1_555 1_555
H15 C17 1_555 1_555
C18 C16 1_555 1_555
H16 C18 1_555 1_555
S2 O2 1_555 1_555
F1 C19 1_555 1_555
F2 C19 1_555 1_555
F3 C19 1_555 1_555
O3 S2 1_555 1_555
O4 S2 1_555 1_555
C19 S2 1_555 1_555
Ag1A S1A 1_555 1_555
Ag1A_2 N2A 1_555 1_555
S1A C1A 1_555 1_555
O1A C15A 1_555 1_555
N1A Ag1A 1_555 1_555
N2A C10A 1_555 1_555
N2A_2 Ag1A 1_555 1_555
C1A C2A 1_555 1_555
C2A C3 1_555 1_555
H1A C2A 1_555 1_555
C3A C2 1_555 1_555
H2A C3A 1_555 1_555
C4A S1A 1_555 1_555
H3A C4A 1_555 1_555
H4A C4A 1_555 1_555
C5A N1A 1_555 1_555
C6A C5A 1_555 1_555
H5A C6A 1_555 1_555
C7A C6A 1_555 1_555
H6A C7A 1_555 1_555
C8A C7A 1_555 1_555
H7A C8A 1_555 1_555
C9A N1A 1_555 1_555
H8A C9A 1_555 1_555
C10A H9A 1_555 1_555
C11A C10A 1_555 1_555
H10A C11A 1_555 1_555
C12A C11A 1_555 1_555
H11A C12A 1_555 1_555
C13A C12A 1_555 1_555
H12A C13A 1_555 1_555
C14A N2A 1_555 1_555
C15A C14A 1_555 1_555
H13A C15A 1_555 1_555
H14A C15A 1_555 1_555
C16A O1A 1_555 1_555
C17A C18 1_555 1_555
H15A C17A 1_555 1_555
C18A C17 1_555 1_555
H16A C18A 1_555 1_555
C4 C5 1_555 1_555
C8 C9 1_555 1_555
C13 C14 1_555 1_555
C1A C3A 1_555 1_555
C4A C5A 1_555 1_555
C8A C9A 1_555 1_555
C13A C14A 1_555 1_555
C16A C17A 1_555 1_555
C16A C18A 1_555 1_555

#END
