
#######################################################################
#
#                 Cambridge Crystallographic Data Centre
#                                CCDC 
#
#######################################################################
#
# If this CIF has been generated from an entry in the Cambridge 
# Structural Database, then it will include bibliographic, chemical, 
# crystal, experimental, refinement or atomic coordinate data resulting 
# from the CCDC's data processing and validation procedures.
#
#######################################################################

data_XANZUI
_symmetry_cell_setting           monoclinic
_symmetry_space_group_name_H-M   'P 21/c'
_symmetry_Int_Tables_number      14
_space_group_name_Hall           '-P 2ybc'
loop_
_symmetry_equiv_pos_site_id
_symmetry_equiv_pos_as_xyz
1 x,y,z
2 -x,1/2+y,1/2-z
3 -x,-y,-z
4 x,1/2-y,1/2+z
_cell_length_a                   10.8713(9)
_cell_length_b                   10.1001(7)
_cell_length_c                   18.2501(11)
_cell_angle_alpha                90
_cell_angle_beta                 90.285(6)
_cell_angle_gamma                90
_cell_volume                     2003.86
loop_
_atom_site_label
_atom_site_type_symbol
_atom_site_fract_x
_atom_site_fract_y
_atom_site_fract_z
Zn1 Zn -0.46600(4) 0.60683(4) 0.70731(2)
Zn2 Zn -0.39086(4) 0.33271(4) 0.55871(2)
P1 P -0.63976(9) 0.49714(9) 0.57810(5)
O1 O -0.5645(2) 0.3746(2) 0.56311(14)
O2 O -0.5720(3) 0.6006(3) 0.62295(14)
O3 O -0.3124(2) 0.3678(2) 0.65264(13)
N1 N 0.3235(3) 1.0243(3) 0.54151(16)
O4 O -0.4445(3) 0.4387(2) 0.75815(14)
C1 C 0.3812(4) 0.9706(4) 0.4315(2)
H1 H 0.4066 0.9760 0.3819
N2 N -0.1600(3) 0.8465(4) 0.70773(19)
C2 C 0.2918(3) 1.0998(4) 0.6077(2)
H2 H 0.3288 1.0559 0.6510
H3 H 0.3273 1.1898 0.6041
N3 N 0.3652(3) 0.8547(3) 0.47067(17)
C3 C 0.1550(3) 1.1107(4) 0.6184(2)
C4 C -0.1165(4) 0.7551(4) 0.6587(2)
H4 H -0.0379 0.7546 0.6361
C5 C 0.3313(4) 0.8915(4) 0.5370(2)
H5 H 0.3146 0.8323 0.5762
C6 C 0.0964(4) 1.0355(4) 0.6714(2)
H6 H 0.1444 0.9780 0.7011
C7 C -0.2071(4) 0.6663(4) 0.6489(2)
H7 H -0.2025 0.5903 0.6183
C8 C 0.3551(4) 1.0751(4) 0.4752(2)
H8 H 0.3583 1.1660 0.4621
C9 C 0.0848(4) 1.1989(5) 0.5772(3)
H9 H 0.1223 1.2516 0.5405
C10 C -0.2747(4) 0.8113(4) 0.7249(2)
H10 H -0.3259 0.8586 0.7579
C11 C -0.0894(5) 0.9570(5) 0.7400(2)
H11 H -0.1453 1.0131 0.7693
H12 H -0.0256 0.9210 0.7734
C12 C -0.0286(4) 1.0409(4) 0.6825(2)
C13 C -0.0416(5) 1.2092(5) 0.5904(3)
H13 H -0.0897 1.2710 0.5635
C14 C -0.0965(5) 1.1300(5) 0.6425(3)
H14 H -0.1825 1.1372 0.6507
P2 P -0.37125(9) 0.32659(9) 0.72442(5)
O5 O -0.4448(2) 0.2002(2) 0.71676(13)
O6 O -0.6977(2) 0.5575(3) 0.51027(13)
N4 N -0.3077(3) 0.7021(3) 0.69003(17)
H15 H -0.2829 0.2944 0.7704
H16 H -0.727(3) 0.452(4) 0.6212(19)
Zn1A Zn -0.53400(4) 0.10683(4) 0.79269(2)
Zn2B Zn 0.39086(4) 0.66729(4) 0.44129(2)
Zn2B_2 Zn -0.60914(4) 0.66729(4) 0.44129(2)
N3B N -0.3652(3) 0.1453(3) 0.52933(17)
O5A O -0.5552(2) 0.7002(2) 0.78324(13)
O6B O -0.3023(2) 0.4425(3) 0.48973(13)
O7 O 0.0544(13) -0.4214(17) 0.5506(9)
loop_
_geom_bond_atom_site_label_1
_geom_bond_atom_site_label_2
_geom_bond_site_symmetry_1
_geom_bond_site_symmetry_2
Zn1 O2 1_555 1_555
Zn2 O1 1_555 1_555
P1 O1 1_555 1_555
O2 P1 1_555 1_555
O3 Zn2 1_555 1_555
N1 C2 1_555 1_555
O4 Zn1 1_555 1_555
C1 H1 1_555 1_555
N2 C4 1_555 1_555
C2 H2 1_555 1_555
H3 C2 1_555 1_555
N3 C1 1_555 1_555
C3 C2 1_555 1_555
C4 H4 1_555 1_555
C5 N1 1_555 1_555
H5 C5 1_555 1_555
C6 C3 1_555 1_555
H6 C6 1_555 1_555
C7 C4 1_555 1_555
H7 C7 1_555 1_555
C8 N1 1_555 1_555
H8 C8 1_555 1_555
C9 C3 1_555 1_555
H9 C9 1_555 1_555
C10 N2 1_555 1_555
H10 C10 1_555 1_555
C11 N2 1_555 1_555
H11 C11 1_555 1_555
H12 C11 1_555 1_555
C12 C6 1_555 1_555
C13 C9 1_555 1_555
H13 C13 1_555 1_555
C14 C12 1_555 1_555
H14 C14 1_555 1_555
P2 O3 1_555 1_555
O5 P2 1_555 1_555
O6 P1 1_555 1_555
N4 Zn1 1_555 1_555
H15 P2 1_555 1_555
H16 P1 1_555 1_555
Zn1A O5 1_555 1_555
Zn2B N3 1_555 1_555
Zn2B_2 O6 1_555 1_555
N3B Zn2 1_555 1_555
O5A Zn1 1_555 1_555
O6B Zn2 1_555 1_555
O4 P2 1_555 1_555
C1 C8 1_555 1_555
N3 C5 1_555 1_555
C7 N4 1_555 1_555
C10 N4 1_555 1_555
C11 C12 1_555 1_555
C13 C14 1_555 1_555

#END
