
#######################################################################
#
#                 Cambridge Crystallographic Data Centre
#                                CCDC 
#
#######################################################################
#
# If this CIF has been generated from an entry in the Cambridge 
# Structural Database, then it will include bibliographic, chemical, 
# crystal, experimental, refinement or atomic coordinate data resulting 
# from the CCDC's data processing and validation procedures.
#
#######################################################################

data_XAPFOK
_symmetry_cell_setting           orthorhombic
_symmetry_space_group_name_H-M   'P b c a'
_symmetry_Int_Tables_number      61
_space_group_name_Hall           '-P 2ac 2ab'
loop_
_symmetry_equiv_pos_site_id
_symmetry_equiv_pos_as_xyz
1 x,y,z
2 1/2-x,-y,1/2+z
3 -x,1/2+y,1/2-z
4 1/2+x,1/2-y,-z
5 -x,-y,-z
6 1/2+x,y,1/2-z
7 x,1/2-y,1/2+z
8 1/2-x,1/2+y,z
_cell_length_a                   11.7740(3)
_cell_length_b                   13.8920(4)
_cell_length_c                   35.1467(9)
_cell_angle_alpha                90
_cell_angle_beta                 90
_cell_angle_gamma                90
_cell_volume                     5748.75
loop_
_atom_site_label
_atom_site_type_symbol
_atom_site_fract_x
_atom_site_fract_y
_atom_site_fract_z
Cu1 Cu 0.13917(2) 0.12493(2) 0.361886(8)
Cu2 Cu 0.53785(2) 0.31288(2) 0.374893(9)
O1 O 0.25364(12) 0.06051(12) 0.32719(5)
O2 O 0.42345(13) 0.24292(12) 0.34254(5)
O3 O 0.63317(14) 0.10150(16) 0.34940(7)
O4 O 0.46969(14) -0.08388(13) 0.33323(6)
O5 O 0.24853(13) 0.09956(12) 0.40253(5)
O6 O 0.08055(14) -0.06973(13) 0.38496(5)
O7 O 0.20494(16) -0.20446(13) 0.45054(6)
O8 O 0.38254(16) -0.03204(15) 0.46541(6)
O9 O 0.19465(18) 0.27804(15) 0.35414(8)
H1 H 0.155(2) 0.324(2) 0.3465(10)
H2 H 0.2565(18) 0.299(3) 0.3478(12)
O10 O 0.48173(19) 0.23220(18) 0.41637(7)
H3 H 0.430(3) 0.250(3) 0.4270(10)
H4 H 0.510(3) 0.196(3) 0.4352(12)
N1 N 0.03115(16) 0.14094(15) 0.31901(6)
N2 N -0.13224(15) 0.11259(16) 0.35604(6)
H5 H -0.1961 0.0830 0.3541
N3 N 0.01416(16) 0.15139(15) 0.39959(6)
N4 N 0.60710(17) 0.37246(14) 0.32909(6)
N5 N 0.79402(17) 0.36187(16) 0.35258(6)
H6 H 0.8614 0.3452 0.3458
N6 N 0.66999(17) 0.35780(16) 0.40545(6)
C1 C 0.0756(2) 0.1635(2) 0.28450(8)
H7 H 0.1542 0.1662 0.2822
C2 C 0.0118(2) 0.1825(2) 0.25306(8)
H8 H 0.0458 0.1968 0.2299
C3 C -0.1057(2) 0.1800(2) 0.25666(8)
H9 H -0.1518 0.1938 0.2359
C4 C -0.1527(2) 0.1571(2) 0.29093(8)
H10 H -0.2312 0.1548 0.2936
C5 C -0.08240(19) 0.13713(17) 0.32215(7)
C6 C -0.09485(19) 0.12847(17) 0.39296(7)
C7 C -0.1749(2) 0.1224(2) 0.42205(8)
H11 H -0.2491 0.1035 0.4168
C8 C -0.1428(3) 0.1446(2) 0.45837(9)
H12 H -0.1945 0.1398 0.4783
C9 C -0.0319(3) 0.1743(2) 0.46519(9)
H13 H -0.0093 0.1925 0.4895
C10 C 0.0431(2) 0.1762(2) 0.43564(8)
H14 H 0.1174 0.1954 0.4404
C11 C 0.5373(2) 0.3977(2) 0.29995(8)
H15 H 0.4593 0.3965 0.3041
C12 C 0.5752(3) 0.4246(2) 0.26524(9)
H16 H 0.5244 0.4419 0.2461
C13 C 0.6916(3) 0.4260(2) 0.25868(8)
H17 H 0.7199 0.4416 0.2348
C14 C 0.7634(2) 0.4043(2) 0.28762(8)
H18 H 0.8415 0.4059 0.2837
C15 C 0.7194(2) 0.37948(17) 0.32353(7)
C16 C 0.7753(2) 0.36734(17) 0.39153(8)
C17 C 0.8684(2) 0.3830(2) 0.41551(9)
H19 H 0.9412 0.3884 0.4055
C18 C 0.8512(3) 0.3901(2) 0.45373(10)
H20 H 0.9125 0.3989 0.4700
C19 C 0.7425(3) 0.3843(2) 0.46819(9)
H21 H 0.7291 0.3904 0.4942
C20 C 0.6550(3) 0.3691(2) 0.44333(8)
H22 H 0.5815 0.3665 0.4529
C21 C 0.35942(18) 0.07139(17) 0.33350(7)
C22 C 0.43410(18) 0.15196(18) 0.34047(7)
C23 C 0.53097(19) 0.08805(19) 0.34328(7)
C24 C 0.45571(18) 0.00500(18) 0.33593(7)
C25 C 0.23958(18) 0.01500(18) 0.41590(7)
C26 C 0.16128(19) -0.06290(18) 0.40806(7)
C27 C 0.2183(2) -0.12266(18) 0.43706(7)
C28 C 0.2987(2) -0.0432(2) 0.44402(7)
Cu2G Cu -0.03785(2) -0.18712(2) 0.374893(9)
O6G O 0.41945(14) 0.43027(13) 0.38496(5)
O11 O 0.5537(2) 0.1063(2) 0.46500(8)
H23 H 0.589(3) 0.108(3) 0.4893(11)
H24 H 0.502(3) 0.072(3) 0.4639(11)
loop_
_geom_bond_atom_site_label_1
_geom_bond_atom_site_label_2
_geom_bond_site_symmetry_1
_geom_bond_site_symmetry_2
Cu1 O1 1_555 1_555
Cu2 O2 1_555 1_555
O1 C21 1_555 1_555
O2 C22 1_555 1_555
O3 C23 1_555 1_555
O4 C24 1_555 1_555
O5 Cu1 1_555 1_555
O6 C26 1_555 1_555
O7 C27 1_555 1_555
O8 C28 1_555 1_555
O9 Cu1 1_555 1_555
H1 O9 1_555 1_555
H2 O9 1_555 1_555
O10 Cu2 1_555 1_555
H3 O10 1_555 1_555
H4 O10 1_555 1_555
N1 Cu1 1_555 1_555
N2 H5 1_555 1_555
N3 Cu1 1_555 1_555
N4 Cu2 1_555 1_555
N5 H6 1_555 1_555
N6 Cu2 1_555 1_555
C1 N1 1_555 1_555
H7 C1 1_555 1_555
C2 C1 1_555 1_555
H8 C2 1_555 1_555
C3 C2 1_555 1_555
H9 C3 1_555 1_555
C4 C3 1_555 1_555
H10 C4 1_555 1_555
C5 N1 1_555 1_555
C6 N2 1_555 1_555
C7 C6 1_555 1_555
H11 C7 1_555 1_555
C8 C7 1_555 1_555
H12 C8 1_555 1_555
C9 C8 1_555 1_555
H13 C9 1_555 1_555
C10 N3 1_555 1_555
H14 C10 1_555 1_555
C11 N4 1_555 1_555
H15 C11 1_555 1_555
C12 C11 1_555 1_555
H16 C12 1_555 1_555
C13 C12 1_555 1_555
H17 C13 1_555 1_555
C14 C13 1_555 1_555
H18 C14 1_555 1_555
C15 N4 1_555 1_555
C16 N5 1_555 1_555
C17 C16 1_555 1_555
H19 C17 1_555 1_555
C18 C17 1_555 1_555
H20 C18 1_555 1_555
C19 C18 1_555 1_555
H21 C19 1_555 1_555
C20 N6 1_555 1_555
H22 C20 1_555 1_555
C21 C22 1_555 1_555
C22 C23 1_555 1_555
C23 C24 1_555 1_555
C24 C21 1_555 1_555
C25 O5 1_555 1_555
C26 C25 1_555 1_555
C27 C26 1_555 1_555
C28 C25 1_555 1_555
O11 H23 1_555 1_555
H24 O11 1_555 1_555
Cu2G O6 1_555 1_555
O6G Cu2 1_555 1_555
N2 C5 1_555 1_555
N3 C6 1_555 1_555
N5 C15 1_555 1_555
N6 C16 1_555 1_555
C4 C5 1_555 1_555
C9 C10 1_555 1_555
C14 C15 1_555 1_555
C19 C20 1_555 1_555
C27 C28 1_555 1_555

#END
