
#######################################################################
#
#                 Cambridge Crystallographic Data Centre
#                                CCDC 
#
#######################################################################
#
# If this CIF has been generated from an entry in the Cambridge 
# Structural Database, then it will include bibliographic, chemical, 
# crystal, experimental, refinement or atomic coordinate data resulting 
# from the CCDC's data processing and validation procedures.
#
#######################################################################

data_XAPJUV
_symmetry_cell_setting           monoclinic
_symmetry_space_group_name_H-M   'P 21/n'
_symmetry_Int_Tables_number      14
_space_group_name_Hall           '-P 2yn'
loop_
_symmetry_equiv_pos_site_id
_symmetry_equiv_pos_as_xyz
1 x,y,z
2 1/2-x,1/2+y,1/2-z
3 -x,-y,-z
4 1/2+x,1/2-y,1/2+z
_cell_length_a                   9.4452(10)
_cell_length_b                   17.3298(18)
_cell_length_c                   9.7581(11)
_cell_angle_alpha                90
_cell_angle_beta                 98.692(2)
_cell_angle_gamma                90
_cell_volume                     1578.89
loop_
_atom_site_label
_atom_site_type_symbol
_atom_site_fract_x
_atom_site_fract_y
_atom_site_fract_z
Cu1 Cu 1.0000 0.0000 0.5000
N1 N 0.8559(4) 0.0929(2) 0.3636(4)
C1 C 0.7250(5) 0.0763(3) 0.2961(4)
H1 H 0.6860 0.0286 0.3129
N2 N 0.4425(4) 0.1462(2) 0.0345(4)
C2 C 0.9056(5) 0.1633(3) 0.3435(5)
H2 H 0.9950 0.1770 0.3908
N3 N 0.3165(4) 0.1219(2) -0.0447(4)
C3 C 0.8315(5) 0.2171(3) 0.2562(5)
H3 H 0.8702 0.2657 0.2463
C4 C 0.6997(5) 0.1980(3) 0.1840(5)
H4 H 0.6489 0.2332 0.1234
N4 N -0.0305(4) 0.0648(2) -0.3271(3)
C5 C 0.6437(4) 0.1254(2) 0.2030(4)
C6 C 0.5024(4) 0.1005(2) 0.1286(4)
C7 C 0.4394(5) 0.0251(3) 0.1651(5)
H5 H 0.3621 0.0111 0.0938
H6 H 0.4039 0.0302 0.2518
H7 H 0.5118 -0.0142 0.1729
C8 C 0.2004(5) 0.1532(3) -0.0217(5)
C9 C 0.1927(7) 0.2096(4) 0.0907(7)
H8 H 0.2874 0.2276 0.1261
H9 H 0.1516 0.1854 0.1639
H10 H 0.1342 0.2525 0.0551
C10 C 0.0688(5) 0.1307(2) -0.1179(5)
C11 C -0.0691(5) 0.1501(3) -0.0953(5)
H11 H -0.0831 0.1789 -0.0179
C12 C -0.1841(5) 0.1261(3) -0.1891(5)
H12 H -0.2767 0.1385 -0.1753
C13 C -0.1623(5) 0.0838(3) -0.3030(5)
H13 H -0.2412 0.0679 -0.3653
C14 C 0.0804(5) 0.0887(2) -0.2356(4)
H14 H 0.1719 0.0761 -0.2525
N5 N 1.1772(5) 0.0616(2) 0.4820(4)
C15 C 1.2848(5) 0.0925(3) 0.4901(4)
S1 S 1.4367(2) 0.13265(12) 0.5037(2)
Cu1_2 Cu 0.0000 0.0000 -0.5000
Cu1_3 Cu 2.0000 0.0000 1.5000
N1_2 N 1.8559(4) 0.0929(2) 1.3636(4)
N1B N 1.1441(4) -0.0929(2) 0.6364(4)
C1_2 C 1.7250(5) 0.0763(3) 1.2961(4)
H1_2 H 1.6860 0.0286 1.3129
N2_2 N 1.4425(4) 0.1462(2) 1.0345(4)
C2_2 C 1.9056(5) 0.1633(3) 1.3435(5)
H2_2 H 1.9950 0.1770 1.3908
N3_2 N 1.3165(4) 0.1219(2) 0.9553(4)
C3_2 C 1.8315(5) 0.2171(3) 1.2562(5)
H3_2 H 1.8702 0.2657 1.2463
C4_2 C 1.6997(5) 0.1980(3) 1.1840(5)
H4_2 H 1.6489 0.2332 1.1234
N4_2 N 0.9695(4) 0.0648(2) 0.6729(3)
N4B N 1.0305(4) -0.0648(2) 0.3271(3)
C5_2 C 1.6437(4) 0.1254(2) 1.2030(4)
C6_2 C 1.5024(4) 0.1005(2) 1.1286(4)
C7_2 C 1.4394(5) 0.0251(3) 1.1651(5)
H5_2 H 1.3621 0.0111 1.0938
H6_2 H 1.4039 0.0302 1.2518
H7_2 H 1.5118 -0.0142 1.1729
C8_2 C 1.2004(5) 0.1532(3) 0.9783(5)
C9_2 C 1.1927(7) 0.2096(4) 1.0907(7)
H8_2 H 1.2874 0.2276 1.1261
H9_2 H 1.1516 0.1854 1.1639
H10_2 H 1.1342 0.2525 1.0551
C10_2 C 1.0688(5) 0.1307(2) 0.8821(5)
C11_2 C 0.9309(5) 0.1501(3) 0.9047(5)
H11_2 H 0.9169 0.1789 0.9821
C12_2 C 0.8159(5) 0.1261(3) 0.8109(5)
H12_2 H 0.7233 0.1385 0.8247
C13_2 C 0.8377(5) 0.0838(3) 0.6970(5)
H13_2 H 0.7588 0.0679 0.6347
C14_2 C 1.0804(5) 0.0887(2) 0.7644(4)
H14_2 H 1.1719 0.0761 0.7475
N5B N 0.8228(5) -0.0616(2) 0.5180(4)
C15B C 0.7152(5) -0.0925(3) 0.5099(4)
S1B S 0.5633(2) -0.13265(12) 0.4963(2)
loop_
_geom_bond_atom_site_label_1
_geom_bond_atom_site_label_2
_geom_bond_site_symmetry_1
_geom_bond_site_symmetry_2
Cu1 N1 1_555 1_555
N1 C1 1_555 1_555
C1 H1 1_555 1_555
N2 N3 1_555 1_555
C2 N1 1_555 1_555
H2 C2 1_555 1_555
N3 C8 1_555 1_555
C3 C2 1_555 1_555
H3 C3 1_555 1_555
C4 C3 1_555 1_555
H4 C4 1_555 1_555
N4 C13 1_555 1_555
C5 C1 1_555 1_555
C6 N2 1_555 1_555
C7 C6 1_555 1_555
H5 C7 1_555 1_555
H6 C7 1_555 1_555
H7 C7 1_555 1_555
C8 C9 1_555 1_555
C9 H8 1_555 1_555
H9 C9 1_555 1_555
H10 C9 1_555 1_555
C10 C8 1_555 1_555
C11 C10 1_555 1_555
H11 C11 1_555 1_555
C12 C11 1_555 1_555
H12 C12 1_555 1_555
C13 C12 1_555 1_555
H13 C13 1_555 1_555
C14 N4 1_555 1_555
H14 C14 1_555 1_555
N5 Cu1 1_555 1_555
C15 N5 1_555 1_555
S1 C15 1_555 1_555
Cu1_2 N4 1_555 1_555
Cu1_3 N1_2 1_555 1_555
N1_2 C1_2 1_555 1_555
N1B Cu1 1_555 1_555
C1_2 H1_2 1_555 1_555
N2_2 N3_2 1_555 1_555
C2_2 N1_2 1_555 1_555
H2_2 C2_2 1_555 1_555
N3_2 C8_2 1_555 1_555
C3_2 C2_2 1_555 1_555
H3_2 C3_2 1_555 1_555
C4_2 C3_2 1_555 1_555
H4_2 C4_2 1_555 1_555
N4_2 Cu1 1_555 1_555
N4B Cu1 1_555 1_555
C5_2 C1_2 1_555 1_555
C6_2 N2_2 1_555 1_555
C7_2 C6_2 1_555 1_555
H5_2 C7_2 1_555 1_555
H6_2 C7_2 1_555 1_555
H7_2 C7_2 1_555 1_555
C8_2 C9_2 1_555 1_555
C9_2 H8_2 1_555 1_555
H9_2 C9_2 1_555 1_555
H10_2 C9_2 1_555 1_555
C10_2 C8_2 1_555 1_555
C11_2 C10_2 1_555 1_555
H11_2 C11_2 1_555 1_555
C12_2 C11_2 1_555 1_555
H12_2 C12_2 1_555 1_555
C13_2 N4_2 1_555 1_555
H13_2 C13_2 1_555 1_555
C14_2 N4_2 1_555 1_555
H14_2 C14_2 1_555 1_555
N5B Cu1 1_555 1_555
C15B N5B 1_555 1_555
S1B C15B 1_555 1_555
C4 C5 1_555 1_555
C5 C6 1_555 1_555
C10 C14 1_555 1_555
C4_2 C5_2 1_555 1_555
C5_2 C6_2 1_555 1_555
C10_2 C14_2 1_555 1_555
C12_2 C13_2 1_555 1_555

#END
