
#######################################################################
#
#                 Cambridge Crystallographic Data Centre
#                                CCDC 
#
#######################################################################
#
# If this CIF has been generated from an entry in the Cambridge 
# Structural Database, then it will include bibliographic, chemical, 
# crystal, experimental, refinement or atomic coordinate data resulting 
# from the CCDC's data processing and validation procedures.
#
#######################################################################

data_XAPKAC
_symmetry_cell_setting           monoclinic
_symmetry_space_group_name_H-M   'P 21/n'
_symmetry_Int_Tables_number      14
_space_group_name_Hall           '-P 2yn'
loop_
_symmetry_equiv_pos_site_id
_symmetry_equiv_pos_as_xyz
1 x,y,z
2 1/2-x,1/2+y,1/2-z
3 -x,-y,-z
4 1/2+x,1/2-y,1/2+z
_cell_length_a                   8.77450(10)
_cell_length_b                   17.2447(2)
_cell_length_c                   9.97210(10)
_cell_angle_alpha                90
_cell_angle_beta                 98.8500(10)
_cell_angle_gamma                90
_cell_volume                     1490.95
loop_
_atom_site_label
_atom_site_type_symbol
_atom_site_fract_x
_atom_site_fract_y
_atom_site_fract_z
Cu1 Cu 0.5000 0.0000 0.0000
N1 N 0.4690(3) 0.06784(13) 0.1591(2)
N2 N 0.8345(3) 0.12379(14) 0.4454(2)
N3 N 0.9697(3) 0.14601(16) 0.5278(3)
N4 N 1.3847(3) 0.08213(14) 0.8719(2)
C1 C 0.3260(3) 0.08533(17) 0.1841(3)
H1 H 0.2413 0.0663 0.1258
C2 C 0.3010(4) 0.13001(18) 0.2923(3)
H2 H 0.2009 0.1414 0.3060
C3 C 0.4253(4) 0.15799(18) 0.3808(3)
H3 H 0.4097 0.1884 0.4545
C4 C 0.5734(3) 0.14033(16) 0.3587(3)
C5 C 0.5885(3) 0.09567(17) 0.2450(3)
H4 H 0.6874 0.0846 0.2278
C6 C 0.7134(3) 0.16411(16) 0.4522(3)
C7 C 0.7072(4) 0.2297(2) 0.5491(4)
H5 H 0.8071 0.2534 0.5690
H6 H 0.6771 0.2105 0.6314
H7 H 0.6334 0.2674 0.5090
C8 C 1.0146(3) 0.10238(17) 0.6298(3)
C9 C 0.9268(4) 0.0341(2) 0.6682(4)
H8 H 0.8417 0.0238 0.5977
H9 H 0.8885 0.0449 0.7514
H10 H 0.9934 -0.0103 0.6802
C10 C 1.1677(3) 0.12203(16) 0.7094(3)
C11 C 1.2425(3) 0.19128(17) 0.6899(3)
H11 H 1.1957 0.2279 0.6284
C12 C 1.3863(4) 0.20512(18) 0.7622(3)
H12 H 1.4369 0.2516 0.7516
C13 C 1.4550(3) 0.14907(18) 0.8511(3)
H13 H 1.5534 0.1582 0.8979
C14 C 1.2423(3) 0.07024(16) 0.8045(3)
H14 H 1.1909 0.0251 0.8222
N5 N 0.8493(3) 0.11269(16) 0.0093(3)
O1 O 0.7509(3) 0.06084(13) -0.0196(3)
O2 O 0.9405(4) 0.1090(2) 0.1127(4)
O3 O 0.8409(5) 0.1714(2) -0.0560(5)
Cu1_2 Cu -0.5000 0.0000 -1.0000
Cu1_3 Cu 1.5000 0.0000 1.0000
N1B N 0.5310(3) -0.06784(13) -0.1591(2)
N2B N 0.1655(3) -0.12379(14) -0.4454(2)
N3B N 0.0303(3) -0.14601(16) -0.5278(3)
N4B N -0.3847(3) -0.08213(14) -0.8719(2)
N4_2 N 0.3847(3) 0.08213(14) -0.1281(2)
N4B_2 N 0.6153(3) -0.08213(14) 0.1281(2)
C1B C 0.6740(3) -0.08533(17) -0.1841(3)
H1B H 0.7587 -0.0663 -0.1258
C2B C 0.6990(4) -0.13001(18) -0.2923(3)
H2B H 0.7991 -0.1414 -0.3060
C3B C 0.5747(4) -0.15799(18) -0.3808(3)
H3B H 0.5903 -0.1884 -0.4545
C4B C 0.4266(3) -0.14033(16) -0.3587(3)
C5B C 0.4115(3) -0.09567(17) -0.2450(3)
H4B H 0.3126 -0.0846 -0.2278
C6B C 0.2866(3) -0.16411(16) -0.4522(3)
C7B C 0.2928(4) -0.2297(2) -0.5491(4)
H5B H 0.1929 -0.2534 -0.5690
H6B H 0.3229 -0.2105 -0.6314
H7B H 0.3666 -0.2674 -0.5090
C8B C -0.0146(3) -0.10238(17) -0.6298(3)
C9B C 0.0732(4) -0.0341(2) -0.6682(4)
H8B H 0.1583 -0.0238 -0.5977
H9B H 0.1115 -0.0449 -0.7514
H10B H 0.0066 0.0103 -0.6802
C10B C -0.1677(3) -0.12203(16) -0.7094(3)
C11B C -0.2425(3) -0.19128(17) -0.6899(3)
H11B H -0.1957 -0.2279 -0.6284
C12B C -0.3863(4) -0.20512(18) -0.7622(3)
H12B H -0.4369 -0.2516 -0.7516
C13B C -0.4550(3) -0.14907(18) -0.8511(3)
H13B H -0.5534 -0.1582 -0.8979
C14B C -0.2423(3) -0.07024(16) -0.8045(3)
H14B H -0.1909 -0.0251 -0.8222
N5B N 0.1507(3) -0.11269(16) -0.0093(3)
O1B O 0.2491(3) -0.06084(13) 0.0196(3)
O2B O 0.0595(4) -0.1090(2) -0.1127(4)
O3B O 0.1591(5) -0.1714(2) 0.0560(5)
loop_
_geom_bond_atom_site_label_1
_geom_bond_atom_site_label_2
_geom_bond_site_symmetry_1
_geom_bond_site_symmetry_2
Cu1 N1 1_555 1_555
N1 C1 1_555 1_555
N2 N3 1_555 1_555
N3 C8 1_555 1_555
N4 C13 1_555 1_555
C1 H1 1_555 1_555
C2 C1 1_555 1_555
H2 C2 1_555 1_555
C3 C2 1_555 1_555
H3 C3 1_555 1_555
C4 C3 1_555 1_555
C5 N1 1_555 1_555
H4 C5 1_555 1_555
C6 N2 1_555 1_555
C7 C6 1_555 1_555
H5 C7 1_555 1_555
H6 C7 1_555 1_555
H7 C7 1_555 1_555
C8 C9 1_555 1_555
C9 H8 1_555 1_555
H9 C9 1_555 1_555
H10 C9 1_555 1_555
C10 C8 1_555 1_555
C11 C10 1_555 1_555
H11 C11 1_555 1_555
C12 C11 1_555 1_555
H12 C12 1_555 1_555
C13 C12 1_555 1_555
H13 C13 1_555 1_555
C14 N4 1_555 1_555
H14 C14 1_555 1_555
N5 O1 1_555 1_555
O1 Cu1 1_555 1_555
O2 N5 1_555 1_555
O3 N5 1_555 1_555
Cu1_2 N4B 1_555 1_555
Cu1_3 N4 1_555 1_555
N1B Cu1 1_555 1_555
N2B N3B 1_555 1_555
N3B C8B 1_555 1_555
N4B C13B 1_555 1_555
N4_2 Cu1 1_555 1_555
N4B_2 Cu1 1_555 1_555
C1B N1B 1_555 1_555
H1B C1B 1_555 1_555
C2B C1B 1_555 1_555
H2B C2B 1_555 1_555
C3B C2B 1_555 1_555
H3B C3B 1_555 1_555
C4B C3B 1_555 1_555
C5B N1B 1_555 1_555
H4B C5B 1_555 1_555
C6B N2B 1_555 1_555
C7B C6B 1_555 1_555
H5B C7B 1_555 1_555
H6B C7B 1_555 1_555
H7B C7B 1_555 1_555
C8B C9B 1_555 1_555
C9B H8B 1_555 1_555
H9B C9B 1_555 1_555
H10B C9B 1_555 1_555
C10B C8B 1_555 1_555
C11B C10B 1_555 1_555
H11B C11B 1_555 1_555
C12B C11B 1_555 1_555
H12B C12B 1_555 1_555
C13B C12B 1_555 1_555
H13B C13B 1_555 1_555
C14B N4B 1_555 1_555
H14B C14B 1_555 1_555
N5B O1B 1_555 1_555
O1B Cu1 1_555 1_555
O2B N5B 1_555 1_555
O3B N5B 1_555 1_555
C4 C5 1_555 1_555
C4 C6 1_555 1_555
C10 C14 1_555 1_555
C4B C5B 1_555 1_555
C4B C6B 1_555 1_555
C10B C14B 1_555 1_555

#END
