
#######################################################################
#
#                 Cambridge Crystallographic Data Centre
#                                CCDC 
#
#######################################################################
#
# If this CIF has been generated from an entry in the Cambridge 
# Structural Database, then it will include bibliographic, chemical, 
# crystal, experimental, refinement or atomic coordinate data resulting 
# from the CCDC's data processing and validation procedures.
#
#######################################################################

data_XAPNOT
_symmetry_cell_setting           orthorhombic
_symmetry_space_group_name_H-M   'C m m a'
_symmetry_Int_Tables_number      67
_space_group_name_Hall           '-C 2a 2'
loop_
_symmetry_equiv_pos_site_id
_symmetry_equiv_pos_as_xyz
1 x,y,z
2 -x,1/2-y,z
3 -x,1/2+y,-z
4 x,-y,-z
5 1/2+x,1/2+y,z
6 1/2-x,-y,z
7 1/2-x,y,-z
8 1/2+x,1/2-y,-z
9 -x,-y,-z
10 x,1/2+y,-z
11 x,1/2-y,z
12 -x,y,z
13 1/2-x,1/2-y,-z
14 1/2+x,y,-z
15 1/2+x,-y,z
16 1/2-x,1/2+y,z
_cell_length_a                   13.279(3)
_cell_length_b                   31.032(6)
_cell_length_c                   8.0737(16)
_cell_angle_alpha                90
_cell_angle_beta                 90
_cell_angle_gamma                90
_cell_volume                     3326.96
loop_
_atom_site_label
_atom_site_type_symbol
_atom_site_fract_x
_atom_site_fract_y
_atom_site_fract_z
O1 O 1.0000 0.2500 0.1717(11)
O2 O 0.9216(11) 0.6457(3) 0.9164(17)
C1 C 1.0000 0.6282(6) 0.899(2)
C2 C 1.2998(6) 0.2157(3) 0.2006(9)
H1 H 1.2814 0.1872 0.2178
N1 N 1.2433(6) 0.2500 0.2483(10)
N2 N 1.3842(5) 0.22786(19) 0.1266(7)
O3 O 1.0831(5) 0.30209(19) 0.4655(8)
Zn1 Zn 1.10683(9) 0.2500 0.33473(13)
Zn2 Zn 1.0000 0.29819(3) 0.00752(14)
C3 C 1.0000 0.3193(4) 0.4958(13)
C4 C 1.0000 0.3630(4) 0.5629(14)
C5 C 1.0000 0.4480(4) 0.6827(18)
C6 C 1.0894(10) 0.3847(3) 0.5938(18)
H2 H 1.1507 0.3712 0.5743
C7 C 1.0000 0.4941(5) 0.737(2)
C8 C 1.0877(12) 0.4273(4) 0.6547(18)
H3 H 1.1482 0.4414 0.6758
C9 C 1.0000 0.5810(5) 0.844(2)
C10 C 0.9223(17) 0.5581(6) 0.826(3)
H4 H 0.8613 0.5712 0.8517
C11 C 0.9165(16) 0.5156(5) 0.771(3)
H5 H 0.8542 0.5024 0.7584
O1B O 1.0000 0.7500 0.8283(11)
O2K O 1.0784(11) 0.6457(3) 0.9164(17)
O2J O 0.9216(11) -0.1457(3) 0.9164(17)
O2A O 1.0784(11) -0.1457(3) 0.9164(17)
O2C O 0.9216(11) 0.3543(3) 0.0836(17)
O2H O 1.0784(11) 0.3543(3) 0.0836(17)
C1A C 1.0000 -0.1282(6) 0.899(2)
C2J C 1.2998(6) 0.2843(3) 0.2006(9)
C2L C 1.2002(6) 0.2843(3) -0.2006(9)
C2F C 1.2002(6) 0.2157(3) -0.2006(9)
H1J H 1.2814 0.3128 0.2178
H1L H 1.2186 0.3128 -0.2178
H1F H 1.2186 0.1872 -0.2178
N1F N 1.2567(6) 0.2500 -0.2483(10)
N1A N 0.7567(6) 0.2500 0.2483(10)
N2J N 1.3842(5) 0.27214(19) 0.1266(7)
N2L N 1.1158(5) 0.27214(19) -0.1266(7)
N2F N 1.1158(5) 0.22786(19) -0.1266(7)
N2G N 0.8842(5) 0.27214(19) -0.1266(7)
N2O N 1.1158(5) 0.72786(19) 1.1266(7)
N2D N 0.8842(5) 0.72786(19) 1.1266(7)
O3K O 0.9169(5) 0.30209(19) 0.4655(8)
O3J O 1.0831(5) 0.19791(19) 0.4655(8)
O3A O 0.9169(5) 0.19791(19) 0.4655(8)
Zn1A Zn 0.89317(9) 0.2500 0.33473(13)
Zn1F Zn 1.39317(9) 0.2500 -0.33473(13)
Zn2C Zn 1.0000 0.70181(3) 0.99248(14)
Zn2A Zn 1.0000 0.20181(3) 0.00752(14)
Zn2G Zn 1.5000 0.20181(3) -0.00752(14)
Zn2F Zn 1.5000 0.29819(3) -0.00752(14)
Zn2B Zn 1.0000 -0.20181(3) 0.99248(14)
C3A C 1.0000 0.1807(4) 0.4958(13)
C4A C 1.0000 0.1370(4) 0.5629(14)
C5A C 1.0000 0.0520(4) 0.6827(18)
C6K C 0.9106(10) 0.3847(3) 0.5938(18)
C6J C 1.0894(10) 0.1153(3) 0.5938(18)
C6A C 0.9106(10) 0.1153(3) 0.5938(18)
H2K H 0.8493 0.3712 0.5743
H2J H 1.1507 0.1288 0.5743
H2A H 0.8493 0.1288 0.5743
C7A C 1.0000 0.0059(5) 0.737(2)
C8K C 0.9123(12) 0.4273(4) 0.6547(18)
C8J C 1.0877(12) 0.0727(4) 0.6547(18)
C8A C 0.9123(12) 0.0727(4) 0.6547(18)
H3K H 0.8518 0.4414 0.6758
H3J H 1.1482 0.0586 0.6758
H3A H 0.8518 0.0586 0.6758
C9A C 1.0000 -0.0810(5) 0.844(2)
C10K C 1.0777(17) 0.5581(6) 0.826(3)
C10J C 0.9223(17) -0.0581(6) 0.826(3)
C10A C 1.0777(17) -0.0581(6) 0.826(3)
H4K H 1.1387 0.5712 0.8517
H4J H 0.8613 -0.0712 0.8517
H4A H 1.1387 -0.0712 0.8517
C11K C 1.0835(16) 0.5156(5) 0.771(3)
C11J C 0.9165(16) -0.0156(5) 0.771(3)
C11A C 1.0835(16) -0.0156(5) 0.771(3)
H5K H 1.1458 0.5024 0.7584
H5J H 0.8542 -0.0024 0.7584
H5A H 1.1458 -0.0024 0.7584
loop_
_geom_bond_atom_site_label_1
_geom_bond_atom_site_label_2
_geom_bond_site_symmetry_1
_geom_bond_site_symmetry_2
O1 Zn1 1_555 1_555
O2 C1 1_555 1_555
C1 C9 1_555 1_555
C2 H1 1_555 1_555
N1 C2 1_555 1_555
N2 C2 1_555 1_555
O3 Zn1 1_555 1_555
Zn1 N1 1_555 1_555
Zn2 O1 1_555 1_555
C3 O3 1_555 1_555
C4 C3 1_555 1_555
C5 C7 1_555 1_555
C6 C4 1_555 1_555
H2 C6 1_555 1_555
C7 C11 1_555 1_555
C8 C5 1_555 1_555
H3 C8 1_555 1_555
C9 C10 1_555 1_555
C10 H4 1_555 1_555
C11 C10 1_555 1_555
H5 C11 1_555 1_555
O1B Zn2C 1_555 1_555
O2K C1 1_555 1_555
O2J C1A 1_555 1_555
O2A C1A 1_555 1_555
O2C Zn2 1_555 1_555
O2H Zn2 1_555 1_555
C1A C9A 1_555 1_555
C2J N1 1_555 1_555
C2L H1L 1_555 1_555
C2F H1F 1_555 1_555
H1J C2J 1_555 1_555
N1F C2L 1_555 1_555
N1A Zn1A 1_555 1_555
N2J N2 1_555 1_555
N2L Zn2 1_555 1_555
N2F C2F 1_555 1_555
N2G Zn2 1_555 1_555
N2O Zn2C 1_555 1_555
N2D Zn2C 1_555 1_555
O3K C3 1_555 1_555
O3J Zn1 1_555 1_555
O3A Zn1A 1_555 1_555
Zn1A O1 1_555 1_555
Zn1F N1F 1_555 1_555
Zn2C O2 1_555 1_555
Zn2A O1 1_555 1_555
Zn2G N2 1_555 1_555
Zn2F N2J 1_555 1_555
Zn2B O2J 1_555 1_555
C3A O3J 1_555 1_555
C4A C3A 1_555 1_555
C5A C7A 1_555 1_555
C6K C4 1_555 1_555
C6J C4A 1_555 1_555
C6A C4A 1_555 1_555
H2K C6K 1_555 1_555
H2J C6J 1_555 1_555
H2A C6A 1_555 1_555
C7A C11J 1_555 1_555
C8K C5 1_555 1_555
C8J C5A 1_555 1_555
C8A C5A 1_555 1_555
H3K C8K 1_555 1_555
H3J C8J 1_555 1_555
H3A C8A 1_555 1_555
C9A C10J 1_555 1_555
C10K C9 1_555 1_555
C10J H4J 1_555 1_555
C10A C9A 1_555 1_555
H4K C10K 1_555 1_555
H4A C10A 1_555 1_555
C11K C7 1_555 1_555
C11J C10J 1_555 1_555
C11A C7A 1_555 1_555
H5K C11K 1_555 1_555
H5J C11J 1_555 1_555
H5A C11A 1_555 1_555
C6 C8 1_555 1_555
O2K Zn2C 1_555 1_555
O2A Zn2B 1_555 1_555
C2J N2J 1_555 1_555
C2L N2L 1_555 1_555
C2F N1F 1_555 1_555
N2L N2F 1_555 1_555
N2F Zn2A 1_555 1_555
O3K Zn1A 1_555 1_555
O3A C3A 1_555 1_555
C6K C8K 1_555 1_555
C6J C8J 1_555 1_555
C6A C8A 1_555 1_555
C10K C11K 1_555 1_555
C10A C11A 1_555 1_555

#END
