
#######################################################################
#
#                 Cambridge Crystallographic Data Centre
#                                CCDC 
#
#######################################################################
#
# If this CIF has been generated from an entry in the Cambridge 
# Structural Database, then it will include bibliographic, chemical, 
# crystal, experimental, refinement or atomic coordinate data resulting 
# from the CCDC's data processing and validation procedures.
#
#######################################################################

data_XAPSOY
_symmetry_cell_setting           monoclinic
_symmetry_space_group_name_H-M   'C 2/c'
_symmetry_Int_Tables_number      15
_space_group_name_Hall           '-C 2yn'
loop_
_symmetry_equiv_pos_site_id
_symmetry_equiv_pos_as_xyz
1 x,y,z
2 -x,y,1/2-z
3 1/2+x,1/2+y,z
4 1/2-x,1/2+y,1/2-z
5 -x,-y,-z
6 x,-y,1/2+z
7 1/2-x,1/2-y,-z
8 1/2+x,1/2-y,1/2+z
_cell_length_a                   13.616(3)
_cell_length_b                   16.828(3)
_cell_length_c                   16.796(3)
_cell_angle_alpha                90
_cell_angle_beta                 99.130(3)
_cell_angle_gamma                90
_cell_volume                     3799.71
loop_
_atom_site_label
_atom_site_type_symbol
_atom_site_fract_x
_atom_site_fract_y
_atom_site_fract_z
Co1 Co 0.20414(5) 0.25183(3) 0.16391(4)
O1 O 0.1613(3) 0.1549(2) 0.1030(3)
O2 O 0.0288(3) 0.1461(3) 0.1610(3)
O3 O 0.1534(3) 0.3507(2) 0.1138(3)
O4 O 0.0033(3) 0.3396(2) 0.1483(3)
O5 O 0.1918(3) 0.24167(19) 0.2790(2)
O6 O 0.3076(3) 0.3329(2) 0.3113(2)
N1 N 0.3429(4) 0.2580(3) 0.1347(3)
N2 N 0.4927(4) 0.2929(4) 0.1232(3)
H1 H 0.5499 0.3156 0.1340
C1 C -0.0452(4) 0.0182(3) 0.0655(3)
H2 H -0.0758 0.0301 0.1098
C2 C 0.0389(4) 0.0588(3) 0.0547(3)
C3 C 0.0858(4) 0.0400(3) -0.0122(3)
H3 H 0.1433 0.0666 -0.0202
C4 C 0.0785(4) 0.1253(3) 0.1107(3)
C5 C -0.0699(4) 0.4548(3) 0.0314(4)
H4 H -0.1171 0.4244 0.0522
C6 C 0.0305(4) 0.4385(3) 0.0531(3)
C7 C 0.0994(4) 0.4839(3) 0.0209(4)
H5 H 0.1668 0.4728 0.0351
C8 C 0.0636(4) 0.3706(3) 0.1102(3)
C9 C 0.1981(4) 0.2000(3) 0.4424(3)
H6 H 0.1632 0.1664 0.4040
C10 C 0.2482(4) 0.2671(3) 0.4175(3)
C11 C 0.2990(4) 0.3155(3) 0.4770(3)
H7 H 0.3322 0.3599 0.4619
C12 C 0.2493(3) 0.2837(3) 0.3314(3)
C13 C 0.3775(6) 0.2222(7) 0.0721(5)
H8 H 0.3401 0.1869 0.0369
C14 C 0.4664(6) 0.2420(5) 0.0666(5)
H9 H 0.5045 0.2235 0.0292
C15 C 0.4153(4) 0.3041(3) 0.1622(3)
H10 H 0.4143 0.3404 0.2037
Co2 Co 0.0000 0.24316(11) 0.2500
Co1D Co -0.20414(5) -0.25183(3) -0.16391(4)
Co1D_2 Co -0.20414(5) 0.74817(3) -0.16391(4)
Co1F Co 0.29586(5) 0.24817(3) 0.83609(4)
O1D O -0.1613(3) -0.1549(2) -0.1030(3)
O2D O -0.0288(3) -0.1461(3) -0.1610(3)
O2A O -0.0288(3) 0.1461(3) 0.3390(3)
O3D O -0.1534(3) 0.6493(2) -0.1138(3)
O3D_2 O -0.1534(3) -0.3507(2) -0.1138(3)
O4D O -0.0033(3) 0.6604(2) -0.1483(3)
O4A O -0.0033(3) 0.3396(2) 0.3517(3)
O5F O 0.3082(3) 0.25833(19) 0.7210(2)
O5D O -0.1918(3) -0.24167(19) -0.2790(2)
O6F O 0.1924(3) 0.1671(2) 0.6887(2)
N1D N -0.3429(4) -0.2580(3) -0.1347(3)
N2D N -0.4927(4) -0.2929(4) -0.1232(3)
H1D H -0.5499 -0.3156 -0.1340
C1D C 0.0452(4) -0.0182(3) -0.0655(3)
H2D H 0.0758 -0.0301 -0.1098
C2D C -0.0389(4) -0.0588(3) -0.0547(3)
C3D C -0.0858(4) -0.0400(3) 0.0122(3)
H3D H -0.1433 -0.0666 0.0202
C4D C -0.0785(4) -0.1253(3) -0.1107(3)
C5D C 0.0699(4) 0.5452(3) -0.0314(4)
H4D H 0.1171 0.5756 -0.0522
C6D C -0.0305(4) 0.5615(3) -0.0531(3)
C7D C -0.0994(4) 0.5161(3) -0.0209(4)
H5D H -0.1668 0.5272 -0.0351
C8D C -0.0636(4) 0.6294(3) -0.1102(3)
C9F C 0.3019(4) 0.3000(3) 0.5576(3)
H6F H 0.3368 0.3336 0.5960
C10F C 0.2518(4) 0.2329(3) 0.5825(3)
C11F C 0.2010(4) 0.1845(3) 0.5230(3)
H7F H 0.1678 0.1401 0.5381
C12F C 0.2507(3) 0.2163(3) 0.6686(3)
C13D C -0.3775(6) -0.2222(7) -0.0721(5)
H8D H -0.3401 -0.1869 -0.0369
C14D C -0.4664(6) -0.2420(5) -0.0666(5)
H9D H -0.5045 -0.2235 -0.0292
C15D C -0.4153(4) -0.3041(3) -0.1622(3)
H10D H -0.4143 -0.3404 -0.2037
Co2D Co 0.0000 -0.24316(11) -0.2500
Co2D_2 Co 0.0000 0.75684(11) -0.2500
loop_
_geom_bond_atom_site_label_1
_geom_bond_atom_site_label_2
_geom_bond_site_symmetry_1
_geom_bond_site_symmetry_2
Co1 O1 1_555 1_555
O1 C4 1_555 1_555
O2 C4 1_555 1_555
O3 Co1 1_555 1_555
O4 C8 1_555 1_555
O5 Co1 1_555 1_555
O6 C12 1_555 1_555
N1 Co1 1_555 1_555
N2 H1 1_555 1_555
C1 H2 1_555 1_555
C2 C1 1_555 1_555
C3 C2 1_555 1_555
H3 C3 1_555 1_555
C4 C2 1_555 1_555
C5 H4 1_555 1_555
C6 C5 1_555 1_555
C7 C6 1_555 1_555
H5 C7 1_555 1_555
C8 O3 1_555 1_555
C9 H6 1_555 1_555
C10 C9 1_555 1_555
C11 C10 1_555 1_555
H7 C11 1_555 1_555
C12 O5 1_555 1_555
C13 N1 1_555 1_555
H8 C13 1_555 1_555
C14 N2 1_555 1_555
H9 C14 1_555 1_555
C15 N1 1_555 1_555
H10 C15 1_555 1_555
Co2 O2 1_555 1_555
Co1D O1D 1_555 1_555
Co1D_2 O3D 1_555 1_555
Co1F O5F 1_555 1_555
O1D C4D 1_555 1_555
O2D C4D 1_555 1_555
O2A Co2 1_555 1_555
O3D C8D 1_555 1_555
O3D_2 Co1D 1_555 1_555
O4D C8D 1_555 1_555
O4A Co2 1_555 1_555
O5F C12F 1_555 1_555
O5D Co1D 1_555 1_555
O6F C12F 1_555 1_555
N1D Co1D 1_555 1_555
N2D H1D 1_555 1_555
C1D C3 1_555 1_555
H2D C1D 1_555 1_555
C2D C1D 1_555 1_555
C3D C1 1_555 1_555
H3D C3D 1_555 1_555
C4D C2D 1_555 1_555
C5D C7 1_555 1_555
H4D C5D 1_555 1_555
C6D C5D 1_555 1_555
C7D C5 1_555 1_555
H5D C7D 1_555 1_555
C8D C6D 1_555 1_555
C9F C11 1_555 1_555
H6F C9F 1_555 1_555
C10F C9F 1_555 1_555
C11F C9 1_555 1_555
H7F C11F 1_555 1_555
C12F C10F 1_555 1_555
C13D N1D 1_555 1_555
H8D C13D 1_555 1_555
C14D N2D 1_555 1_555
H9D C14D 1_555 1_555
C15D N1D 1_555 1_555
H10D C15D 1_555 1_555
Co2D O2D 1_555 1_555
Co2D_2 O4D 1_555 1_555
O4 Co2 1_555 1_555
N2 C15 1_555 1_555
C6 C8 1_555 1_555
C10 C12 1_555 1_555
C13 C14 1_555 1_555
N2D C15D 1_555 1_555
C2D C3D 1_555 1_555
C6D C7D 1_555 1_555
C10F C11F 1_555 1_555
C13D C14D 1_555 1_555

#END
