
#######################################################################
#
#                 Cambridge Crystallographic Data Centre
#                                CCDC 
#
#######################################################################
#
# If this CIF has been generated from an entry in the Cambridge 
# Structural Database, then it will include bibliographic, chemical, 
# crystal, experimental, refinement or atomic coordinate data resulting 
# from the CCDC's data processing and validation procedures.
#
#######################################################################

data_XAPTUE
_symmetry_cell_setting           monoclinic
_symmetry_space_group_name_H-M   'C 2/c'
_symmetry_Int_Tables_number      15
_space_group_name_Hall           '-C 2yn'
loop_
_symmetry_equiv_pos_site_id
_symmetry_equiv_pos_as_xyz
1 x,y,z
2 1/2+x,1/2+y,z
3 -x,y,1/2-z
4 1/2-x,1/2+y,1/2-z
5 -x,-y,-z
6 1/2-x,1/2-y,-z
7 x,-y,1/2+z
8 1/2+x,1/2-y,1/2+z
_cell_length_a                   18.0582(5)
_cell_length_b                   11.4381(3)
_cell_length_c                   18.6791(4)
_cell_angle_alpha                90
_cell_angle_beta                 108.7960(10)
_cell_angle_gamma                90
_cell_volume                     3652.45
loop_
_atom_site_label
_atom_site_type_symbol
_atom_site_fract_x
_atom_site_fract_y
_atom_site_fract_z
Gd1 Gd 0.001829(3) 0.559920(4) 0.102180(3)
O1 O 0.08900(6) 0.56023(9) 0.22407(6)
O2 O -0.07784(6) 0.43229(9) 0.00789(7)
C1 C 0.11733(7) 0.56150(10) 0.29411(7)
O3 O 0.08653(5) 0.51300(8) 0.33890(5)
O4 O -0.10513(6) 0.31733(9) -0.09204(6)
O5 O -0.02661(7) 0.74494(9) 0.15146(6)
O6 O 0.42910(6) 0.82340(9) 0.50048(5)
C2 C -0.18656(7) 0.30031(11) -0.01577(7)
C3 C 0.19404(7) 0.62278(11) 0.32888(7)
C4 C 0.22907(8) 0.68160(13) 0.28281(7)
H1 H 0.2064 0.6782 0.2294
C5 C -0.19865(8) 0.32289(12) 0.05289(8)
H2 H -0.1636 0.3724 0.0891
C6 C 0.22854(8) 0.62536(12) 0.40715(7)
H3 H 0.2053 0.5841 0.4386
C7 C -0.11899(7) 0.35321(11) -0.03387(7)
O7 O 0.42313(8) 0.89149(12) 0.38635(6)
C8 C 0.29705(8) 0.68840(12) 0.43921(7)
H4 H 0.3209 0.6894 0.4926
C9 C -0.23812(8) 0.22700(13) -0.06843(8)
H5 H -0.2299 0.2111 -0.1152
C10 C 0.33072(9) 0.75001(13) 0.39337(7)
C11 C 0.40001(9) 0.82702(13) 0.42940(8)
C12 C 0.29713(9) 0.74512(14) 0.31507(8)
H6 H 0.3209 0.7854 0.2837
N1 N -0.05939(13) 0.93673(12) 0.13197(13)
C13 C -0.02170(15) 0.84050(15) 0.12457(15)
H7 H 0.0126 0.8466 0.0954
C14 C -0.1864(2) 0.9755(4) 0.1531(3)
H8 H -0.2109 0.9768 0.1929
H9 H -0.2134 0.9186 0.1143
H10 H -0.1901 1.0533 0.1303
C15 C -0.0182(3) 1.1406(4) 0.1242(5)
H11 H -0.0230 1.2082 0.0907
H12 H 0.0368 1.1165 0.1439
H13 H -0.0366 1.1620 0.1664
C16 C -0.0658(3) 1.0433(3) 0.0815(3)
H14 H -0.0478 1.0226 0.0384
H15 H -0.1212 1.0680 0.0610
C17 C -0.1019(2) 0.9415(2) 0.1867(2)
H16 H -0.0756 0.9984 0.2268
H17 H -0.0989 0.8639 0.2109
Gd1B Gd -0.001829(3) 0.559920(4) 0.397820(3)
Gd1D Gd -0.001829(3) 0.440080(4) -0.102180(3)
Gd1G Gd 0.501829(3) 0.940080(4) 0.602180(3)
Gd1C Gd 0.498171(3) 1.059920(4) 0.397820(3)
Gd1A Gd -0.498171(3) 0.059920(4) 0.102180(3)
Gd1E Gd -0.501829(3) -0.059920(4) -0.102180(3)
Gd1E_2 Gd -0.501829(3) 0.940080(4) -0.102180(3)
Gd1A_2 Gd -0.498171(3) 1.059920(4) 0.102180(3)
O1B O -0.08900(6) 0.56023(9) 0.27593(6)
O2E O -0.42216(6) 0.06771(9) -0.00789(7)
O2D O 0.07784(6) 0.56771(9) -0.00789(7)
O2F O -0.07784(6) 0.56771(9) 0.50789(7)
O2B O 0.07784(6) 0.43229(9) 0.49211(7)
C1B C -0.11733(7) 0.56150(10) 0.20589(7)
O3B O -0.08653(5) 0.51300(8) 0.16110(5)
O4E O -0.39487(6) 0.18267(9) 0.09204(6)
O4D O 0.10513(6) 0.68267(9) 0.09204(6)
O4F O -0.10513(6) 0.68267(9) 0.40796(6)
O5B O 0.02661(7) 0.74494(9) 0.34854(6)
O6B O -0.42910(6) 0.82340(9) -0.00048(5)
O6G O -0.07090(6) 0.67660(9) 0.00048(5)
O6E O 0.07090(6) 0.67660(9) 0.49952(5)
C2E C -0.31344(7) 0.19969(11) 0.01577(7)
C3B C -0.19404(7) 0.62278(11) 0.17112(7)
C4B C -0.22907(8) 0.68160(13) 0.21719(7)
H1B H -0.2064 0.6782 0.2706
C5E C -0.30135(8) 0.17711(12) -0.05289(8)
H2E H -0.3364 0.1276 -0.0891
C6B C -0.22854(8) 0.62536(12) 0.09285(7)
H3B H -0.2053 0.5841 0.0614
C7E C -0.38101(7) 0.14679(11) 0.03387(7)
O7B O -0.42313(8) 0.89149(12) 0.11365(6)
O7C O 0.07687(8) 0.39149(12) 0.11365(6)
O7A O -0.07687(8) 0.39149(12) 0.38635(6)
C8B C -0.29705(8) 0.68840(12) 0.06079(7)
H4B H -0.3209 0.6894 0.0074
C9E C -0.26188(8) 0.27300(13) 0.06843(8)
H5E H -0.2701 0.2889 0.1152
C10B C -0.33072(9) 0.75001(13) 0.10663(7)
C11B C -0.40001(9) 0.82702(13) 0.07060(8)
C12B C -0.29713(9) 0.74512(14) 0.18493(8)
H6B H -0.3209 0.7854 0.2163
N1B N 0.05939(13) 0.93673(12) 0.36803(13)
C13B C 0.02170(15) 0.84050(15) 0.37543(15)
H7B H -0.0126 0.8466 0.4046
C14B C 0.1864(2) 0.9755(4) 0.3469(3)
H8B H 0.2109 0.9768 0.3071
H9B H 0.2134 0.9186 0.3857
H10B H 0.1901 1.0533 0.3697
C15B C 0.0182(3) 1.1406(4) 0.3758(5)
H11B H 0.0230 1.2082 0.4093
H12B H -0.0368 1.1165 0.3561
H13B H 0.0366 1.1620 0.3336
C16B C 0.0658(3) 1.0433(3) 0.4185(3)
H14B H 0.0478 1.0226 0.4616
H15B H 0.1212 1.0680 0.4390
C17B C 0.1019(2) 0.9415(2) 0.3133(2)
H16B H 0.0756 0.9984 0.2732
H17B H 0.0989 0.8639 0.2891
O8 O -0.0274(3) 1.2785(5) 0.2561(4)
O8B O 0.0274(3) 1.2785(5) 0.2439(4)
C18? C -0.1394(7) 0.9902(10) 0.2082(7)
H18? H -0.1923 0.9792 0.2108
H19? H -0.1298 1.0737 0.2034
H20? H -0.1011 0.9596 0.2544
C19? C -0.0652(5) 1.0785(6) 0.0379(5)
H21? H -0.0436 1.1513 0.0253
H22? H -0.1208 1.0894 0.0313
H23? H -0.0592 1.0158 0.0044
C20? C -0.0219(4) 1.0459(4) 0.1193(4)
H24? H 0.0344 1.0332 0.1271
H25? H -0.0273 1.1080 0.1542
C21? C -0.1320(5) 0.9287(5) 0.1438(5)
H26? H -0.1433 0.8450 0.1491
H27? H -0.1726 0.9584 0.0981
loop_
_geom_bond_atom_site_label_1
_geom_bond_atom_site_label_2
_geom_bond_site_symmetry_1
_geom_bond_site_symmetry_2
Gd1 O1 1_555 1_555
O1 C1 1_555 1_555
O2 Gd1 1_555 1_555
C1 O3 1_555 1_555
O3 Gd1B 1_555 1_555
O4 C7 1_555 1_555
O5 Gd1 1_555 1_555
O6 C11 1_555 1_555
C2 C5 1_555 1_555
C3 C1 1_555 1_555
C4 C3 1_555 1_555
H1 C4 1_555 1_555
C5 H2 1_555 1_555
C6 C3 1_555 1_555
H3 C6 1_555 1_555
C7 O2 1_555 1_555
O7 C11 1_555 1_555
C8 C6 1_555 1_555
H4 C8 1_555 1_555
C9 C2 1_555 1_555
H5 C9 1_555 1_555
C10 C8 1_555 1_555
C11 C10 1_555 1_555
C12 C4 1_555 1_555
H6 C12 1_555 1_555
N1 C13 1_555 1_555
C13 O5 1_555 1_555
H7 C13 1_555 1_555
C14 H8 1_555 1_555
H9 C14 1_555 1_555
H10 C14 1_555 1_555
C15 H11 1_555 1_555
H12 C15 1_555 1_555
H13 C15 1_555 1_555
C16 N1 1_555 1_555
H14 C16 1_555 1_555
H15 C16 1_555 1_555
C17 N1 1_555 1_555
H16 C17 1_555 1_555
H17 C17 1_555 1_555
Gd1B O1B 1_555 1_555
Gd1D O2 1_555 1_555
Gd1G O6 1_555 1_555
Gd1C O7 1_555 1_555
Gd1A O2E 1_555 1_555
Gd1E O2E 1_555 1_555
Gd1E_2 O6B 1_555 1_555
Gd1A_2 O7B 1_555 1_555
O1B C1B 1_555 1_555
O2E C7E 1_555 1_555
O2D Gd1 1_555 1_555
O2F Gd1B 1_555 1_555
O2B Gd1B 1_555 1_555
C1B O3B 1_555 1_555
O3B Gd1 1_555 1_555
O4E Gd1A 1_555 1_555
O4D Gd1 1_555 1_555
O4F Gd1B 1_555 1_555
O5B Gd1B 1_555 1_555
O6B C11B 1_555 1_555
O6G Gd1 1_555 1_555
O6E Gd1B 1_555 1_555
C2E C5E 1_555 1_555
C3B C1B 1_555 1_555
C4B C3B 1_555 1_555
H1B C4B 1_555 1_555
C5E C9 1_555 1_555
H2E C5E 1_555 1_555
C6B C3B 1_555 1_555
H3B C6B 1_555 1_555
C7E O4E 1_555 1_555
O7B C11B 1_555 1_555
O7C Gd1 1_555 1_555
O7A Gd1B 1_555 1_555
C8B C6B 1_555 1_555
H4B C8B 1_555 1_555
C9E C5 1_555 1_555
H5E C9E 1_555 1_555
C10B C8B 1_555 1_555
C11B C10B 1_555 1_555
C12B C4B 1_555 1_555
H6B C12B 1_555 1_555
N1B C13B 1_555 1_555
C13B O5B 1_555 1_555
H7B C13B 1_555 1_555
C14B H8B 1_555 1_555
H9B C14B 1_555 1_555
H10B C14B 1_555 1_555
C15B H11B 1_555 1_555
H12B C15B 1_555 1_555
H13B C15B 1_555 1_555
C16B N1B 1_555 1_555
H14B C16B 1_555 1_555
H15B C16B 1_555 1_555
C17B N1B 1_555 1_555
H16B C17B 1_555 1_555
H17B C17B 1_555 1_555
O4 Gd1D 1_555 1_555
C2 C7 1_555 1_555
C10 C12 1_555 1_555
C14 C17 1_555 1_555
C15 C16 1_555 1_555
Gd1D O2D 1_555 1_555
C2E C7E 1_555 1_555
C2E C9E 1_555 1_555
C10B C12B 1_555 1_555
C14B C17B 1_555 1_555
C15B C16B 1_555 1_555

#END
