
#######################################################################
#
#                 Cambridge Crystallographic Data Centre
#                                CCDC 
#
#######################################################################
#
# If this CIF has been generated from an entry in the Cambridge 
# Structural Database, then it will include bibliographic, chemical, 
# crystal, experimental, refinement or atomic coordinate data resulting 
# from the CCDC's data processing and validation procedures.
#
#######################################################################

data_XAPTAL
_symmetry_cell_setting           triclinic
_symmetry_space_group_name_H-M   'P -1'
_symmetry_Int_Tables_number      2
_space_group_name_Hall           '-P 1'
loop_
_symmetry_equiv_pos_site_id
_symmetry_equiv_pos_as_xyz
1 x,y,z
2 -x,-y,-z
_cell_length_a                   11.4777(10)
_cell_length_b                   14.0993(12)
_cell_length_c                   17.1751(16)
_cell_angle_alpha                76.8290(10)
_cell_angle_beta                 72.2090(10)
_cell_angle_gamma                80.2520(10)
_cell_volume                     2561.93
loop_
_atom_site_label
_atom_site_type_symbol
_atom_site_fract_x
_atom_site_fract_y
_atom_site_fract_z
Cr1 Cr 0.5000 0.5000 1.0000
Cu1 Cu 0.97044(10) 0.68942(6) 0.96738(7)
Mo1 Mo 0.74249(6) 0.61199(5) 0.87249(4)
Mo2 Mo 0.76529(6) 0.36874(4) 0.92129(4)
Mo3 Mo 0.52468(6) 0.25434(5) 1.04758(4)
C1 C 1.0487(8) 0.5010(6) 0.9584(6)
C2 C 0.7727(8) 0.7860(6) 1.0918(6)
H1 H 0.7558 0.7240 1.1224
C3 C 0.7026(9) 0.8684(7) 1.1207(6)
H2 H 0.6383 0.8607 1.1695
C4 C 0.7279(8) 0.9605(6) 1.0778(6)
H3 H 0.6828 1.0157 1.0976
C5 C 0.8225(7) 0.9699(5) 1.0040(6)
C6 C 0.8608(8) 1.0625(6) 0.9554(6)
H4 H 0.8186 1.1204 0.9714
C7 C 0.9589(9) 1.0662(6) 0.8857(7)
H5 H 0.9833 1.1267 0.8555
C8 C 1.0251(8) 0.9781(6) 0.8583(6)
C9 C 1.1296(9) 0.9761(7) 0.7884(6)
H6 H 1.1602 1.0342 0.7570
C10 C 1.1854(9) 0.8874(6) 0.7675(6)
H7 H 1.2523 0.8850 0.7207
C11 C 1.1408(8) 0.8021(6) 0.8168(6)
H8 H 1.1794 0.7426 0.8023
C12 C 0.9877(7) 0.8878(5) 0.9031(5)
C13 C 0.8879(7) 0.8849(5) 0.9785(5)
N1 N 0.8616(6) 0.7944(4) 1.0225(4)
N2 N 1.0458(6) 0.8013(4) 0.8836(4)
O1 O 0.6135(4) 0.3923(3) 1.0407(3)
H17 H 0.6363 0.4028 1.0803
O2 O 0.6179(4) 0.4934(3) 0.8902(3)
H18 H 0.5864 0.4855 0.8536
O3 O 0.5944(4) 0.6051(3) 0.9993(3)
H19 H 0.6009 0.6067 1.0470
O4 O 0.6401(5) 0.2856(4) 0.9386(3)
O5 O 0.8104(4) 0.4914(4) 0.9292(3)
O6 O 0.5995(5) 0.6999(4) 0.8589(3)
O7 O 0.6173(5) 0.1817(4) 1.1028(4)
O8 O 0.4463(5) 0.1772(4) 1.0250(4)
O9 O 0.8623(5) 0.2949(4) 0.9739(4)
O10 O 0.8091(5) 0.6050(4) 0.7707(4)
O11 O 0.8238(5) 0.6878(4) 0.8953(4)
O24 O 1.0730(6) 0.5813(4) 0.9141(4)
O25 O 1.0968(6) 0.4183(4) 0.9406(4)
O36 O 0.8342(5) 0.3663(4) 0.8184(4)
Cu1A Cu 0.02956(10) 0.31058(6) 1.03262(7)
Cu1A_2 Cu 1.02956(10) 0.31058(6) 1.03262(7)
Mo1A Mo 0.25751(6) 0.38801(5) 1.12751(4)
Mo2A Mo 0.23471(6) 0.63126(4) 1.07871(4)
Mo3A Mo 0.47532(6) 0.74566(5) 0.95242(4)
C1A C 0.9513(8) 0.4990(6) 1.0416(6)
C2A C 0.2273(8) 0.2140(6) 0.9082(6)
H1A H 0.2442 0.2760 0.8776
C3A C 0.2974(9) 0.1316(7) 0.8793(6)
H2A H 0.3617 0.1393 0.8305
C4A C 0.2721(8) 0.0395(6) 0.9222(6)
H3A H 0.3172 -0.0157 0.9024
C5A C 0.1775(7) 0.0301(5) 0.9960(6)
C6A C 0.1392(8) -0.0625(6) 1.0446(6)
H4A H 0.1814 -0.1204 1.0286
C7A C 0.0411(9) -0.0662(6) 1.1143(7)
H5A H 0.0167 -0.1267 1.1445
C8A C -0.0251(8) 0.0219(6) 1.1417(6)
C9A C -0.1296(9) 0.0239(7) 1.2116(6)
H6A H -0.1602 -0.0342 1.2430
C10A C -0.1854(9) 0.1126(6) 1.2325(6)
H7A H -0.2523 0.1150 1.2793
C11A C -0.1408(8) 0.1979(6) 1.1832(6)
H8A H -0.1794 0.2574 1.1977
C12A C 0.0123(7) 0.1122(5) 1.0969(5)
C13A C 0.1121(7) 0.1151(5) 1.0215(5)
N1A N 0.1384(6) 0.2056(4) 0.9775(4)
N2A N -0.0458(6) 0.1987(4) 1.1164(4)
O1A O 0.3865(4) 0.6077(3) 0.9593(3)
H17A H 0.3637 0.5972 0.9197
O2A O 0.3821(4) 0.5066(3) 1.1098(3)
H18A H 0.4136 0.5145 1.1464
O3A O 0.4056(4) 0.3949(3) 1.0007(3)
H19A H 0.3991 0.3933 0.9530
O4A O 0.3599(5) 0.7144(4) 1.0614(3)
O5A O 0.1896(4) 0.5086(4) 1.0708(3)
O6A O 0.4005(5) 0.3001(4) 1.1411(3)
O7A O 0.3827(5) 0.8183(4) 0.8972(4)
O8A O 0.5537(5) 0.8228(4) 0.9750(4)
O9A O 0.1377(5) 0.7051(4) 1.0261(4)
O10A O 0.1909(5) 0.3950(4) 1.2293(4)
O11A O 0.1762(5) 0.3122(4) 1.1047(4)
O24A O 0.9270(6) 0.4187(4) 1.0859(4)
O24A_2 O -0.0730(6) 0.4187(4) 1.0859(4)
O25A O 0.9032(6) 0.5817(4) 1.0594(4)
O25_2 O 0.0968(6) 0.4183(4) 0.9406(4)
O36A O 0.1658(5) 0.6337(4) 1.1816(4)
Cr2 Cr 0.5000 0.5000 0.5000
Mo4 Mo 0.65901(6) 0.28669(5) 0.55658(5)
Mo5 Mo 0.48688(7) 0.41751(5) 0.69975(5)
Mo6 Mo 0.67208(6) 0.36990(5) 0.35706(5)
O12 O 0.6698(4) 0.4365(3) 0.4666(3)
H20 H 0.7300 0.4697 0.4562
O13 O 0.4708(5) 0.3770(4) 0.5820(3)
H21 H 0.4166 0.3454 0.5781
O14 O 0.5177(4) 0.5504(4) 0.5927(3)
H22 H 0.5719 0.5887 0.5841
O15 O 0.6217(5) 0.2734(4) 0.4580(4)
O16 O 0.6493(5) 0.3677(4) 0.6371(3)
O17 O 0.3301(5) 0.4947(4) 0.7009(3)
O18 O 0.6232(5) 0.3176(5) 0.2937(4)
O19 O 0.8279(5) 0.3409(4) 0.3321(4)
O20 O 0.8163(5) 0.2632(4) 0.5311(4)
O21 O 0.6039(6) 0.1835(4) 0.6199(4)
O22 O 0.5390(6) 0.4712(5) 0.7610(4)
O23 O 0.4322(6) 0.3136(5) 0.7598(4)
Mo4A Mo 0.34099(6) 0.71331(5) 0.44342(5)
Mo5A Mo 0.51312(7) 0.58249(5) 0.30025(5)
Mo6A Mo 0.32792(6) 0.63010(5) 0.64294(5)
O12A O 0.3302(4) 0.5635(3) 0.5334(3)
H20A H 0.2700 0.5303 0.5438
O13A O 0.5292(5) 0.6230(4) 0.4180(3)
H21A H 0.5834 0.6546 0.4219
O14A O 0.4823(4) 0.4496(4) 0.4073(3)
H22A H 0.4281 0.4113 0.4159
O15A O 0.3783(5) 0.7266(4) 0.5420(4)
O16A O 0.3507(5) 0.6323(4) 0.3629(3)
O17A O 0.6699(5) 0.5053(4) 0.2991(3)
O18A O 0.3768(5) 0.6824(5) 0.7063(4)
O19A O 0.1721(5) 0.6591(4) 0.6679(4)
O20A O 0.1837(5) 0.7368(4) 0.4689(4)
O21A O 0.3961(6) 0.8165(4) 0.3801(4)
O22A O 0.4610(6) 0.5288(5) 0.2390(4)
O23A O 0.5678(6) 0.6864(5) 0.2402(4)
Cu2 Cu 0.94318(9) 0.23807(7) 0.63252(6)
C14 C 1.1088(9) 0.0770(7) 0.5480(6)
H9 H 1.1568 0.1247 0.5122
C15 C 1.1443(9) -0.0196(8) 0.5387(7)
H10 H 1.2155 -0.0355 0.4981
C16 C 1.0764(11) -0.0899(7) 0.5880(7)
H11 H 1.0993 -0.1547 0.5815
C17 C 0.9684(9) -0.0646(6) 0.6505(6)
C18 C 0.8925(10) -0.1344(7) 0.7098(7)
H12 H 0.9129 -0.2008 0.7082
C19 C 0.7912(10) -0.1050(6) 0.7682(7)
H13 H 0.7415 -0.1512 0.8047
C20 C 0.7603(8) -0.0051(6) 0.7744(6)
C21 C 0.6580(9) 0.0307(7) 0.8350(6)
H14 H 0.6047 -0.0121 0.8730
C22 C 0.6383(8) 0.1273(6) 0.8373(6)
H15 H 0.5722 0.1514 0.8774
C23 C 0.7183(7) 0.1910(6) 0.7789(5)
H16 H 0.7021 0.2575 0.7806
C24 C 0.8372(8) 0.0650(6) 0.7184(5)
C25 C 0.9413(8) 0.0328(6) 0.6568(6)
N3 N 1.0096(6) 0.1049(5) 0.6057(5)
N4 N 0.8153(6) 0.1619(4) 0.7215(4)
O26 O 1.0670(5) 0.3016(4) 0.5354(4)
H23 H 1.0391 0.3248 0.4936
H24 H 1.0922 0.3573 0.5269
O27 O 0.8652(5) 0.3698(4) 0.6553(3)
H25 H 0.7905 0.3874 0.6557
H26 H 0.8853 0.3678 0.6994
O28 O 1.0747(6) 0.2368(4) 0.7114(4)
H27 H 1.1096 0.2713 0.7304
H28 H 1.1484 0.2232 0.6835
O29 O 0.0252(6) 0.3636(5) 0.3855(4)
O30 O 0.1243(6) 0.4636(5) 0.5784(5)
O31 O 0.1019(7) 0.4169(6) 0.7513(5)
O32 O 0.3000(8) 0.3634(8) 0.3946(6)
O33 O 0.6889(10) 0.7452(8) 0.4168(7)
O34 O 0.3152(9) 0.5244(10) 0.8669(7)
O35 O 0.4252(9) 0.2219(8) 0.2956(5)
loop_
_geom_bond_atom_site_label_1
_geom_bond_atom_site_label_2
_geom_bond_site_symmetry_1
_geom_bond_site_symmetry_2
Cr1 O1 1_555 1_555
Cr2 O12 1_555 1_555
Cu1 N1 1_555 1_555
Cu2 N3 1_555 1_555
Mo1 O2 1_555 1_555
Mo2 O1 1_555 1_555
Mo3 O1 1_555 1_555
Mo4 O12 1_555 1_555
Mo5 O13 1_555 1_555
Mo6 O12 1_555 1_555
C1 O24 1_555 1_555
C2 H1 1_555 1_555
C3 C2 1_555 1_555
H2 C3 1_555 1_555
C4 C3 1_555 1_555
H3 C4 1_555 1_555
C5 C4 1_555 1_555
C6 C5 1_555 1_555
H4 C6 1_555 1_555
C7 C6 1_555 1_555
H5 C7 1_555 1_555
C8 C7 1_555 1_555
C9 C8 1_555 1_555
H6 C9 1_555 1_555
C10 C9 1_555 1_555
H7 C10 1_555 1_555
C11 C10 1_555 1_555
H8 C11 1_555 1_555
C12 C8 1_555 1_555
C13 C5 1_555 1_555
C14 H9 1_555 1_555
C15 C14 1_555 1_555
H10 C15 1_555 1_555
C16 C15 1_555 1_555
H11 C16 1_555 1_555
C17 C16 1_555 1_555
C18 C17 1_555 1_555
H12 C18 1_555 1_555
C19 C18 1_555 1_555
H13 C19 1_555 1_555
C20 C19 1_555 1_555
C21 C20 1_555 1_555
H14 C21 1_555 1_555
C22 C21 1_555 1_555
H15 C22 1_555 1_555
C23 C22 1_555 1_555
H16 C23 1_555 1_555
C24 C20 1_555 1_555
C25 C17 1_555 1_555
N1 C2 1_555 1_555
N2 Cu1 1_555 1_555
N3 C14 1_555 1_555
N4 Cu2 1_555 1_555
O1 H17 1_555 1_555
O2 Cr1 1_555 1_555
H18 O2 1_555 1_555
O3 Cr1 1_555 1_555
H19 O3 1_555 1_555
O4 Mo2 1_555 1_555
O5 Mo1 1_555 1_555
O6 Mo1 1_555 1_555
O7 Mo3 1_555 1_555
O8 Mo3 1_555 1_555
O9 Mo2 1_555 1_555
O10 Mo1 1_555 1_555
O11 Cu1 1_555 1_555
O12 H20 1_555 1_555
O13 Cr2 1_555 1_555
H21 O13 1_555 1_555
O14 Cr2 1_555 1_555
H22 O14 1_555 1_555
O15 Mo4 1_555 1_555
O16 Mo4 1_555 1_555
O17 Mo5 1_555 1_555
O18 Mo6 1_555 1_555
O19 Mo6 1_555 1_555
O20 Mo4 1_555 1_555
O21 Mo4 1_555 1_555
O22 Mo5 1_555 1_555
O23 Mo5 1_555 1_555
O24 Cu1 1_555 1_555
O25 C1 1_555 1_555
O26 Cu2 1_555 1_555
H23 O26 1_555 1_555
H24 O26 1_555 1_555
O27 Cu2 1_555 1_555
H25 O27 1_555 1_555
H26 O27 1_555 1_555
O28 Cu2 1_555 1_555
H27 O28 1_555 1_555
H28 O28 1_555 1_555
O36 Mo2 1_555 1_555
Cu1A N1A 1_555 1_555
Cu1A_2 O25 1_555 1_555
Mo1A O2A 1_555 1_555
Mo2A O1A 1_555 1_555
Mo3A O3 1_555 1_555
Mo4A O12A 1_555 1_555
Mo5A O13A 1_555 1_555
Mo6A O14 1_555 1_555
C1A C1 1_555 1_555
C2A H1A 1_555 1_555
C3A C2A 1_555 1_555
H2A C3A 1_555 1_555
C4A C3A 1_555 1_555
H3A C4A 1_555 1_555
C5A C4A 1_555 1_555
C6A C5A 1_555 1_555
H4A C6A 1_555 1_555
C7A C6A 1_555 1_555
H5A C7A 1_555 1_555
C8A C7A 1_555 1_555
C9A C8A 1_555 1_555
H6A C9A 1_555 1_555
C10A C9A 1_555 1_555
H7A C10A 1_555 1_555
C11A C10A 1_555 1_555
H8A C11A 1_555 1_555
C12A C8A 1_555 1_555
C13A C5A 1_555 1_555
N1A C2A 1_555 1_555
N2A Cu1A 1_555 1_555
O1A Cr1 1_555 1_555
H17A O1A 1_555 1_555
O2A Cr1 1_555 1_555
H18A O2A 1_555 1_555
O3A Cr1 1_555 1_555
H19A O3A 1_555 1_555
O4A Mo2A 1_555 1_555
O5A Mo1A 1_555 1_555
O6A Mo3 1_555 1_555
O7A Mo3A 1_555 1_555
O8A Mo3A 1_555 1_555
O9A Mo2A 1_555 1_555
O10A Mo1A 1_555 1_555
O11A Cu1A 1_555 1_555
O12A Cr2 1_555 1_555
H20A O12A 1_555 1_555
O13A Cr2 1_555 1_555
H21A O13A 1_555 1_555
O14A Cr2 1_555 1_555
H22A O14A 1_555 1_555
O15A Mo4A 1_555 1_555
O16A Mo4A 1_555 1_555
O17A Mo6 1_555 1_555
O18A Mo6A 1_555 1_555
O19A Mo6A 1_555 1_555
O20A Mo4A 1_555 1_555
O21A Mo4A 1_555 1_555
O22A Mo5A 1_555 1_555
O23A Mo5A 1_555 1_555
O24A Cu1A_2 1_555 1_555
O24A_2 Cu1A 1_555 1_555
O25A Cu1 1_555 1_555
O25_2 Cu1A 1_555 1_555
O36A Mo2A 1_555 1_555
Mo1 O3 1_555 1_555
Mo1 O11 1_555 1_555
Mo2 O2 1_555 1_555
Mo2 O5 1_555 1_555
Mo3 O4 1_555 1_555
Mo3 O3A 1_555 1_555
Mo4 O13 1_555 1_555
Mo5 O14 1_555 1_555
Mo5 O16 1_555 1_555
Mo6 O15 1_555 1_555
Mo6 O14A 1_555 1_555
C11 N2 1_555 1_555
C12 C13 1_555 1_555
C12 N2 1_555 1_555
C13 N1 1_555 1_555
C23 N4 1_555 1_555
C24 C25 1_555 1_555
C24 N4 1_555 1_555
C25 N3 1_555 1_555
O6 Mo3A 1_555 1_555
O17 Mo6A 1_555 1_555
Mo1A O3A 1_555 1_555
Mo1A O6A 1_555 1_555
Mo1A O11A 1_555 1_555
Mo2A O2A 1_555 1_555
Mo2A O5A 1_555 1_555
Mo3A O1A 1_555 1_555
Mo3A O4A 1_555 1_555
Mo4A O13A 1_555 1_555
Mo5A O14A 1_555 1_555
Mo5A O16A 1_555 1_555
Mo5A O17A 1_555 1_555
Mo6A O12A 1_555 1_555
Mo6A O15A 1_555 1_555
C1A O24A 1_555 1_555
C1A O25A 1_555 1_555
C11A N2A 1_555 1_555
C12A C13A 1_555 1_555
C12A N2A 1_555 1_555
C13A N1A 1_555 1_555

#END
