
#######################################################################
#
#                 Cambridge Crystallographic Data Centre
#                                CCDC 
#
#######################################################################
#
# If this CIF has been generated from an entry in the Cambridge 
# Structural Database, then it will include bibliographic, chemical, 
# crystal, experimental, refinement or atomic coordinate data resulting 
# from the CCDC's data processing and validation procedures.
#
#######################################################################

data_XAQBUO
_symmetry_cell_setting           triclinic
_symmetry_space_group_name_H-M   'P -1'
_symmetry_Int_Tables_number      2
_space_group_name_Hall           '-P 1'
loop_
_symmetry_equiv_pos_site_id
_symmetry_equiv_pos_as_xyz
1 x,y,z
2 -x,-y,-z
_cell_length_a                   6.4577(2)
_cell_length_b                   8.8822(3)
_cell_length_c                   15.0150(5)
_cell_angle_alpha                102.417(2)
_cell_angle_beta                 95.643(1)
_cell_angle_gamma                95.482(2)
_cell_volume                     830.964
loop_
_atom_site_label
_atom_site_type_symbol
_atom_site_fract_x
_atom_site_fract_y
_atom_site_fract_z
Cu1 Cu -0.32764(4) 1.31235(3) 0.003264(18)
Cl1 Cl -0.65162(8) 1.30250(7) -0.06821(4)
N1 N -0.1313(3) 1.0585(2) 0.09869(13)
H1 H -0.071(4) 1.024(3) 0.1250(19)
N2 N -0.4100(3) 1.2171(2) 0.10495(13)
C1 C -0.3033(3) 1.1160(3) 0.13969(15)
C2 C -0.3558(4) 1.0663(3) 0.21713(16)
H2 H -0.2791 0.9939 0.2402
C3 C -0.5205(4) 1.1234(3) 0.25999(16)
H3 H -0.5591 1.0893 0.3125
C4 C -0.6303(3) 1.2311(3) 0.22623(15)
C5 C -0.5700(3) 1.2726(3) 0.14868(15)
H4 H -0.6451 1.3445 0.1243
C6 C -0.8039(4) 1.3019(3) 0.27350(16)
H5 H -0.8920 1.3446 0.2304
H6 H -0.7439 1.3851 0.3264
H7 H -0.8891 1.2220 0.2945
C7 C -0.0394(3) 1.5008(3) -0.05011(15)
O1 O -0.2013(2) 1.41090(18) -0.08677(11)
O2 O 0.0639(2) 1.59195(19) -0.08658(11)
C8 C -0.0950(3) 1.0445(2) 0.01134(15)
O3 O -0.1923(2) 1.09466(19) -0.04781(11)
Cu1A Cu 0.32764(4) 0.68765(3) -0.003264(18)
Cu1A_2 Cu 0.32764(4) 1.68765(3) -0.003264(18)
Cl1A Cl 0.65162(8) 0.69750(7) 0.06821(4)
N1A N 0.1313(3) 0.9415(2) -0.09869(13)
H1A H 0.071(4) 0.976(3) -0.1250(19)
N2A N 0.4100(3) 0.7829(2) -0.10495(13)
C1A C 0.3033(3) 0.8840(3) -0.13969(15)
C2A C 0.3558(4) 0.9337(3) -0.21713(16)
H2A H 0.2791 1.0061 -0.2402
C3A C 0.5205(4) 0.8766(3) -0.25999(16)
H3A H 0.5591 0.9107 -0.3125
C4A C 0.6303(3) 0.7689(3) -0.22623(15)
C5A C 0.5700(3) 0.7274(3) -0.14868(15)
H4A H 0.6451 0.6555 -0.1243
C6A C 0.8039(4) 0.6981(3) -0.27350(16)
H5A H 0.8920 0.6554 -0.2304
H6A H 0.7439 0.6149 -0.3264
H7A H 0.8891 0.7780 -0.2945
C7A C 0.0394(3) 1.4992(3) 0.05011(15)
O1A O 0.2013(2) 1.58910(18) 0.08677(11)
O1A_2 O 0.2013(2) 0.58910(18) 0.08677(11)
O2A O -0.0639(2) 1.40805(19) 0.08658(11)
O2_2 O 0.0639(2) 0.59195(19) -0.08658(11)
C8A C 0.0950(3) 0.9555(2) -0.01134(15)
O3A O 0.1923(2) 0.90534(19) 0.04781(11)
N3 N 0.1598(3) 0.8930(3) 0.42528(14)
H8 H 0.105(5) 0.912(4) 0.377(2)
N4 N 0.3650(3) 0.7717(2) 0.32298(14)
C9 C 0.3276(4) 0.8041(3) 0.41011(16)
C10 C 0.4406(4) 0.7524(3) 0.47907(17)
H9 H 0.4084 0.7757 0.5406
C11 C 0.6026(4) 0.6654(3) 0.45446(18)
H10 H 0.6845 0.6296 0.5000
C12 C 0.6454(4) 0.6305(3) 0.36446(18)
C13 C 0.5212(4) 0.6861(3) 0.30146(18)
H11 H 0.5478 0.6623 0.2392
C14 C 0.8174(4) 0.5337(3) 0.3351(2)
H12 H 0.9473 0.5748 0.3762
H13 H 0.8397 0.5375 0.2720
H14 H 0.7768 0.4259 0.3382
C15 C 0.0925(4) 0.9528(3) 0.50613(17)
O4 O 0.1626(3) 0.9389(3) 0.58184(13)
N3A N -0.1598(3) 1.1070(3) 0.57472(14)
H8A H -0.105(5) 1.088(4) 0.623(2)
N4A N -0.3650(3) 1.2283(2) 0.67702(14)
C9A C -0.3276(4) 1.1959(3) 0.58989(16)
C10A C -0.4406(4) 1.2476(3) 0.52093(17)
H9A H -0.4084 1.2243 0.4594
C11A C -0.6026(4) 1.3346(3) 0.54554(18)
H10A H -0.6845 1.3704 0.5000
C12A C -0.6454(4) 1.3695(3) 0.63554(18)
C13A C -0.5212(4) 1.3139(3) 0.69854(18)
H11A H -0.5478 1.3377 0.7608
C14A C -0.8174(4) 1.4663(3) 0.6649(2)
H12A H -0.9473 1.4252 0.6238
H13A H -0.8397 1.4625 0.7280
H14A H -0.7768 1.5741 0.6618
C15A C -0.0925(4) 1.0472(3) 0.49387(17)
O4A O -0.1626(3) 1.0611(3) 0.41816(13)
O5 O 0.0222(3) 0.8658(2) 0.22640(13)
H15 H -0.053(5) 0.798(4) 0.199(2)
H16 H 0.129(5) 0.830(4) 0.234(2)
loop_
_geom_bond_atom_site_label_1
_geom_bond_atom_site_label_2
_geom_bond_site_symmetry_1
_geom_bond_site_symmetry_2
Cu1 Cl1 1_555 1_555
N1 H1 1_555 1_555
N2 Cu1 1_555 1_555
C1 N1 1_555 1_555
C2 C1 1_555 1_555
H2 C2 1_555 1_555
C3 C2 1_555 1_555
H3 C3 1_555 1_555
C4 C3 1_555 1_555
C5 N2 1_555 1_555
H4 C5 1_555 1_555
C6 C4 1_555 1_555
H5 C6 1_555 1_555
H6 C6 1_555 1_555
H7 C6 1_555 1_555
C7 O1 1_555 1_555
O1 Cu1 1_555 1_555
O2 C7 1_555 1_555
C8 N1 1_555 1_555
O3 Cu1 1_555 1_555
N3 H8 1_555 1_555
N4 C9 1_555 1_555
C9 N3 1_555 1_555
C10 C9 1_555 1_555
H9 C10 1_555 1_555
C11 C10 1_555 1_555
H10 C11 1_555 1_555
C12 C11 1_555 1_555
C13 N4 1_555 1_555
H11 C13 1_555 1_555
C14 C12 1_555 1_555
H12 C14 1_555 1_555
H13 C14 1_555 1_555
H14 C14 1_555 1_555
C15 N3 1_555 1_555
O4 C15 1_555 1_555
O5 H15 1_555 1_555
H16 O5 1_555 1_555
Cu1A Cl1A 1_555 1_555
Cu1A_2 O2 1_555 1_555
N1A H1A 1_555 1_555
N2A Cu1A 1_555 1_555
C1A N1A 1_555 1_555
C2A C1A 1_555 1_555
H2A C2A 1_555 1_555
C3A C2A 1_555 1_555
H3A C3A 1_555 1_555
C4A C3A 1_555 1_555
C5A N2A 1_555 1_555
H4A C5A 1_555 1_555
C6A C4A 1_555 1_555
H5A C6A 1_555 1_555
H6A C6A 1_555 1_555
H7A C6A 1_555 1_555
C7A C7 1_555 1_555
O1A Cu1A_2 1_555 1_555
O1A_2 Cu1A 1_555 1_555
O2A Cu1 1_555 1_555
O2_2 Cu1A 1_555 1_555
C8A C8 1_555 1_555
O3A Cu1A 1_555 1_555
N3A H8A 1_555 1_555
N4A C9A 1_555 1_555
C9A N3A 1_555 1_555
C10A C9A 1_555 1_555
H9A C10A 1_555 1_555
C11A C10A 1_555 1_555
H10A C11A 1_555 1_555
C12A C11A 1_555 1_555
C13A N4A 1_555 1_555
H11A C13A 1_555 1_555
C14A C12A 1_555 1_555
H12A C14A 1_555 1_555
H13A C14A 1_555 1_555
H14A C14A 1_555 1_555
C15A C15 1_555 1_555
O4A C15A 1_555 1_555
N2 C1 1_555 1_555
C4 C5 1_555 1_555
C8 O3 1_555 1_555
C12 C13 1_555 1_555
N1A C8A 1_555 1_555
N2A C1A 1_555 1_555
C4A C5A 1_555 1_555
C7A O1A 1_555 1_555
C7A O2A 1_555 1_555
C8A O3A 1_555 1_555
N3A C15A 1_555 1_555
C12A C13A 1_555 1_555

#END
