
#######################################################################
#
#                 Cambridge Crystallographic Data Centre
#                                CCDC 
#
#######################################################################
#
# If this CIF has been generated from an entry in the Cambridge 
# Structural Database, then it will include bibliographic, chemical, 
# crystal, experimental, refinement or atomic coordinate data resulting 
# from the CCDC's data processing and validation procedures.
#
#######################################################################

data_XAQDEA
_symmetry_cell_setting           triclinic
_symmetry_space_group_name_H-M   'P -1'
_symmetry_Int_Tables_number      2
_space_group_name_Hall           '-P 1'
loop_
_symmetry_equiv_pos_site_id
_symmetry_equiv_pos_as_xyz
1 x,y,z
2 -x,-y,-z
_cell_length_a                   10.5040(5)
_cell_length_b                   12.7795(6)
_cell_length_c                   13.3883(6)
_cell_angle_alpha                76.3133(6)
_cell_angle_beta                 83.8683(6)
_cell_angle_gamma                85.5495(7)
_cell_volume                     1733.62
loop_
_atom_site_label
_atom_site_type_symbol
_atom_site_fract_x
_atom_site_fract_y
_atom_site_fract_z
Ba1 Ba 0.55658(5) 0.36757(4) 0.15370(4)
Ba2 Ba 0.63007(5) -0.07629(4) -0.37332(4)
V1 V 0.53672(15) 0.29149(12) -0.26265(11)
V2 V 0.95714(14) 0.17952(12) 0.22952(11)
O1 O 0.6747(7) 0.3383(6) -0.3018(6)
O2 O 0.3323(7) 0.2373(6) -0.2010(6)
O3 O 0.5783(7) 0.1362(6) -0.2510(5)
O4 O 0.6785(8) -0.0210(6) -0.1983(5)
O5 O 0.5487(7) 0.2676(5) -0.1120(5)
O6 O 0.5922(8) 0.1920(6) 0.0464(5)
O7 O 0.9535(8) 0.0676(6) 0.1948(6)
O8 O 0.9454(7) 0.3316(6) 0.2825(7)
O9 O 0.8344(6) 0.2690(5) 0.1357(5)
O10 O 0.7639(7) 0.3910(6) 0.0050(5)
O11 O 1.0983(6) 0.2456(7) 0.1316(5)
O12 O 1.2049(6) 0.2905(6) -0.0221(5)
O13 O 0.7260(6) 0.4578(5) 0.2545(5)
O14 O 0.5533(6) 0.5652(5) 0.2577(5)
O15 O 0.5372(7) 0.7006(5) 0.3955(5)
O16 O 0.6712(8) 0.6537(7) 0.5151(6)
O17 O 0.9229(6) -0.1387(5) -0.3411(5)
O18 O 0.8512(6) -0.1262(6) -0.4919(5)
O19 O 1.1877(7) -0.1472(6) -0.3398(5)
O20 O 1.2995(6) -0.1220(6) -0.4911(5)
O21 O 0.3325(9) 0.2479(7) 0.2019(8)
O22 O 0.5142(7) 0.2652(6) 0.3673(6)
O23 O 0.5990(6) 0.1116(6) 0.2483(5)
O24 O 0.4353(6) 0.0843(5) -0.4267(5)
O25 O 0.4167(6) 0.4184(5) -0.0233(5)
O26 O 0.3243(7) 0.5001(6) 0.1778(5)
C1 C 0.6354(9) 0.0670(7) -0.1814(7)
C2 C 0.6540(9) 0.0897(7) -0.0792(7)
C3 C 0.5942(9) 0.1880(7) -0.0455(7)
C4 C 0.6731(13) -0.0115(8) 0.0060(8)
H1 H 0.6393 -0.0086 0.0772
H2 H 0.6670 -0.0821 -0.0112
C5 C 0.7853(11) 0.0502(9) -0.0395(9)
H3 H 0.8493 0.0186 -0.0853
H4 H 0.8215 0.0921 0.0032
C6 C 0.8533(9) 0.3311(7) 0.0451(7)
C7 C 0.9815(9) 0.3303(8) -0.0144(7)
C8 C 1.1031(8) 0.2853(7) 0.0327(7)
C9 C 0.9759(10) 0.3225(11) -0.1268(8)
H5 H 1.0473 0.2818 -0.1578
H6 H 0.8908 0.3164 -0.1496
C10 C 1.0034(10) 0.4260(10) -0.1066(8)
H7 H 0.9355 0.4847 -0.1170
H8 H 1.0919 0.4501 -0.1253
C11 C 0.6603(9) 0.5266(7) 0.2928(6)
C12 C 0.7026(9) 0.5601(7) 0.3831(7)
C13 C 0.6343(10) 0.6416(8) 0.4339(7)
C14 C 0.8493(10) 0.5516(9) 0.3903(9)
H9 H 0.9051 0.5328 0.3320
H10 H 0.8854 0.6026 0.4236
C15 C 0.7714(12) 0.4681(9) 0.4557(8)
H11 H 0.7589 0.4662 0.5305
H12 H 0.7786 0.3963 0.4389
C16 C 0.9434(9) -0.1363(7) -0.4372(7)
C17 C 1.0769(8) -0.1442(7) -0.4892(7)
C18 C 1.1944(8) -0.1363(7) -0.4380(6)
C19 C 1.0919(10) -0.2224(8) -0.5626(7)
H13 H 1.0160 -0.2618 -0.5674
H14 H 1.1751 -0.2635 -0.5684
C20 C 1.0884(9) -0.1053(7) -0.6072(7)
H15 H 1.1695 -0.0735 -0.6410
H16 H 1.0105 -0.0717 -0.6401
Ba1A Ba 0.44342(5) 0.63243(4) -0.15370(4)
Ba2A Ba 1.36993(5) 0.07629(4) -0.62668(4)
Ba2A_2 Ba 0.36993(5) 0.07629(4) 0.37332(4)
Ba2A_3 Ba 0.36993(5) 0.07629(4) -0.62668(4)
V1A V 0.46328(15) 0.70851(12) 0.26265(11)
V2A V 1.04286(14) -0.17952(12) -0.22952(11)
O14A O 0.4467(6) 0.4348(5) -0.2577(5)
O15A O 0.4628(7) 0.2994(5) -0.3955(5)
O17A O 1.0771(6) 0.1387(5) 0.3411(5)
O19A O 0.8123(7) 0.1472(6) 0.3398(5)
O20A O 0.7005(6) 0.1220(6) -0.5089(5)
O21A O 0.6675(9) -0.2479(7) -0.2019(8)
O22A O 0.4858(7) -0.2652(6) -0.3673(6)
O23A O 0.4010(6) -0.1116(6) -0.2483(5)
O24A O 0.5647(6) -0.0843(5) -0.5733(5)
O25A O 0.5833(6) 0.5816(5) 0.0233(5)
O27 O 0.2059(8) 0.1121(7) -0.3002(6)
O28 O 0.1603(9) 0.3922(8) 0.3361(7)
loop_
_geom_bond_atom_site_label_1
_geom_bond_atom_site_label_2
_geom_bond_site_symmetry_1
_geom_bond_site_symmetry_2
Ba1 O6 1_555 1_555
Ba2 O4 1_555 1_555
V1 O1 1_555 1_555
V2 O7 1_555 1_555
O2 V1 1_555 1_555
O3 V1 1_555 1_555
O4 C1 1_555 1_555
O5 V1 1_555 1_555
O6 C3 1_555 1_555
O8 V2 1_555 1_555
O9 Ba1 1_555 1_555
O10 Ba1 1_555 1_555
O11 V2 1_555 1_555
O12 C8 1_555 1_555
O13 Ba1 1_555 1_555
O14 Ba1 1_555 1_555
O15 C13 1_555 1_555
O16 C13 1_555 1_555
O17 Ba2 1_555 1_555
O18 Ba2 1_555 1_555
O19 C18 1_555 1_555
O20 C18 1_555 1_555
O21 Ba1 1_555 1_555
O22 Ba1 1_555 1_555
O23 Ba1 1_555 1_555
O24 Ba2 1_555 1_555
O25 Ba1 1_555 1_555
O26 Ba1 1_555 1_555
C1 O3 1_555 1_555
C2 C1 1_555 1_555
C3 O5 1_555 1_555
C4 C2 1_555 1_555
H1 C4 1_555 1_555
H2 C4 1_555 1_555
C5 C2 1_555 1_555
H3 C5 1_555 1_555
H4 C5 1_555 1_555
C6 O9 1_555 1_555
C7 C6 1_555 1_555
C8 O11 1_555 1_555
C9 C7 1_555 1_555
H5 C9 1_555 1_555
H6 C9 1_555 1_555
C10 C7 1_555 1_555
H7 C10 1_555 1_555
H8 C10 1_555 1_555
C11 O13 1_555 1_555
C12 C11 1_555 1_555
C13 C12 1_555 1_555
C14 C12 1_555 1_555
H9 C14 1_555 1_555
H10 C14 1_555 1_555
C15 C12 1_555 1_555
H11 C15 1_555 1_555
H12 C15 1_555 1_555
C16 O17 1_555 1_555
C17 C16 1_555 1_555
C18 C17 1_555 1_555
C19 C17 1_555 1_555
H13 C19 1_555 1_555
H14 C19 1_555 1_555
C20 C17 1_555 1_555
H15 C20 1_555 1_555
H16 C20 1_555 1_555
Ba1A O25 1_555 1_555
Ba2A O20 1_555 1_555
Ba2A_2 O21 1_555 1_555
Ba2A_3 O24 1_555 1_555
V1A O14 1_555 1_555
V2A O17 1_555 1_555
O14A V1 1_555 1_555
O15A V1 1_555 1_555
O17A V2 1_555 1_555
O19A V2 1_555 1_555
O20A Ba2 1_555 1_555
O21A Ba2 1_555 1_555
O22A Ba2 1_555 1_555
O23A Ba2 1_555 1_555
O24A Ba2 1_555 1_555
O25A Ba1 1_555 1_555
V2 O9 1_555 1_555
O10 C6 1_555 1_555
O14 C11 1_555 1_555
O15 V1A 1_555 1_555
O18 C16 1_555 1_555
O19 V2A 1_555 1_555
O22 Ba2A_2 1_555 1_555
O23 Ba2A_2 1_555 1_555
C2 C3 1_555 1_555
C4 C5 1_555 1_555
C7 C8 1_555 1_555
C9 C10 1_555 1_555
C14 C15 1_555 1_555
C19 C20 1_555 1_555
Ba1A O14A 1_555 1_555
Ba1A O25A 1_555 1_555
Ba2A_3 O24A 1_555 1_555

#END
