
#######################################################################
#
#                 Cambridge Crystallographic Data Centre
#                                CCDC 
#
#######################################################################
#
# If this CIF has been generated from an entry in the Cambridge 
# Structural Database, then it will include bibliographic, chemical, 
# crystal, experimental, refinement or atomic coordinate data resulting 
# from the CCDC's data processing and validation procedures.
#
#######################################################################

data_XAQDIE
_symmetry_cell_setting           monoclinic
_symmetry_space_group_name_H-M   'P 21/c'
_symmetry_Int_Tables_number      14
_space_group_name_Hall           '-P 2ybc'
loop_
_symmetry_equiv_pos_site_id
_symmetry_equiv_pos_as_xyz
1 x,y,z
2 -x,1/2+y,1/2-z
3 -x,-y,-z
4 x,1/2-y,1/2+z
_cell_length_a                   8.073(3)
_cell_length_b                   15.372(5)
_cell_length_c                   13.948(4)
_cell_angle_alpha                90
_cell_angle_beta                 101.075(6)
_cell_angle_gamma                90
_cell_volume                     1698.69
loop_
_atom_site_label
_atom_site_type_symbol
_atom_site_fract_x
_atom_site_fract_y
_atom_site_fract_z
Sr1 Sr 0.25244(4) 0.44347(2) 0.51710(3)
V1 V 0.47697(9) 0.29907(5) 0.16403(6)
O1 O 0.4047(4) 0.3687(2) 0.0816(3)
O2 O 0.5844(4) 0.1988(2) 0.2843(2)
O3 O 0.3641(4) 0.3389(2) 0.2712(3)
O4 O 0.2310(4) 0.3253(2) 0.3935(2)
O5 O 0.3048(4) 0.20565(19) 0.1314(2)
O6 O 0.0811(4) 0.1263(2) 0.1360(2)
O7 O 0.6303(4) 0.2341(2) 0.0916(2)
O8 O 0.7733(4) 0.2441(2) -0.0280(2)
O9 O 0.6789(4) 0.3641(2) 0.2295(2)
O10 O 0.9222(4) 0.4311(2) 0.2415(2)
O11 O 0.4578(5) 0.4716(2) 0.6907(3)
O12 O 0.1985(4) 0.5214(2) 0.3439(2)
O13 O 0.5528(4) 0.41168(19) 0.4783(2)
O14 O 0.0808(4) 0.57551(19) 0.5641(2)
C1 C 0.2599(5) 0.2993(3) 0.3142(3)
C2 C 0.1675(5) 0.2198(3) 0.2707(3)
C3 C 0.1836(5) 0.1830(3) 0.1739(3)
C4 C 0.1460(7) 0.1488(3) 0.3446(3)
H1 H 0.1452 0.0875 0.3227
H2 H 0.1999 0.1584 0.4138
C5 C 0.0014(6) 0.2025(3) 0.3042(4)
H3 H -0.0362 0.2459 0.3480
H4 H -0.0910 0.1751 0.2569
C6 C 0.7401(5) 0.2720(3) 0.0497(3)
C7 C 0.8323(5) 0.3505(3) 0.0966(3)
C8 C 0.8115(5) 0.3836(3) 0.1951(3)
C9 C 1.0049(6) 0.3656(3) 0.0710(4)
H5 H 1.0934 0.3918 0.1218
H6 H 1.0464 0.3218 0.0292
C10 C 0.8651(7) 0.4215(3) 0.0254(3)
H7 H 0.8186 0.4126 -0.0450
H8 H 0.8657 0.4826 0.0476
Sr1C Sr 0.25244(4) 0.05653(2) 0.01710(3)
Sr1B Sr 0.74756(4) 0.55653(2) 0.48290(3)
Sr1B_2 Sr -0.25244(4) 0.55653(2) 0.48290(3)
O5C O 0.3048(4) 0.29435(19) 0.6314(2)
O6C O 0.0811(4) 0.3737(2) 0.6360(2)
O13B O 0.4472(4) 0.58832(19) 0.5217(2)
O14B O -0.0808(4) 0.42449(19) 0.4359(2)
O15 O 0.4873(12) 0.4505(6) 0.9025(7)
loop_
_geom_bond_atom_site_label_1
_geom_bond_atom_site_label_2
_geom_bond_site_symmetry_1
_geom_bond_site_symmetry_2
Sr1 O4 1_555 1_555
V1 O1 1_555 1_555
O2 V1 1_555 1_555
O3 V1 1_555 1_555
O4 C1 1_555 1_555
O5 V1 1_555 1_555
O6 C3 1_555 1_555
O7 V1 1_555 1_555
O8 C6 1_555 1_555
O9 V1 1_555 1_555
O10 C8 1_555 1_555
O11 Sr1 1_555 1_555
O12 Sr1 1_555 1_555
O13 Sr1 1_555 1_555
O14 Sr1 1_555 1_555
C1 O3 1_555 1_555
C2 C1 1_555 1_555
C3 O5 1_555 1_555
C4 C2 1_555 1_555
H1 C4 1_555 1_555
H2 C4 1_555 1_555
C5 C2 1_555 1_555
H3 C5 1_555 1_555
H4 C5 1_555 1_555
C6 O7 1_555 1_555
C7 C6 1_555 1_555
C8 O9 1_555 1_555
C9 C7 1_555 1_555
H5 C9 1_555 1_555
H6 C9 1_555 1_555
C10 C7 1_555 1_555
H7 C10 1_555 1_555
H8 C10 1_555 1_555
Sr1C O5 1_555 1_555
Sr1B O13 1_555 1_555
Sr1B_2 O14 1_555 1_555
O5C Sr1 1_555 1_555
O6C Sr1 1_555 1_555
O13B Sr1 1_555 1_555
O14B Sr1 1_555 1_555
O6 Sr1C 1_555 1_555
C2 C3 1_555 1_555
C4 C5 1_555 1_555
C7 C8 1_555 1_555
C9 C10 1_555 1_555
Sr1B O13B 1_555 1_555
Sr1B_2 O14B 1_555 1_555

#END
