
#######################################################################
#
#                 Cambridge Crystallographic Data Centre
#                                CCDC 
#
#######################################################################
#
# If this CIF has been generated from an entry in the Cambridge 
# Structural Database, then it will include bibliographic, chemical, 
# crystal, experimental, refinement or atomic coordinate data resulting 
# from the CCDC's data processing and validation procedures.
#
#######################################################################

data_XAQSOZ
_symmetry_cell_setting           monoclinic
_symmetry_space_group_name_H-M   'C 2/c'
_symmetry_Int_Tables_number      15
_space_group_name_Hall           '-C 2yn'
loop_
_symmetry_equiv_pos_site_id
_symmetry_equiv_pos_as_xyz
1 x,y,z
2 -x,y,1/2-z
3 1/2+x,1/2+y,z
4 1/2-x,1/2+y,1/2-z
5 -x,-y,-z
6 x,-y,1/2+z
7 1/2-x,1/2-y,-z
8 1/2+x,1/2-y,1/2+z
_cell_length_a                   29.2249(10)
_cell_length_b                   6.6941(3)
_cell_length_c                   17.8109(5)
_cell_angle_alpha                90
_cell_angle_beta                 92.520(2)
_cell_angle_gamma                90
_cell_volume                     3481.06
loop_
_atom_site_label
_atom_site_type_symbol
_atom_site_fract_x
_atom_site_fract_y
_atom_site_fract_z
Ca1 Ca 0.246964(14) 0.04803(7) 0.69169(2)
O1 O 0.27663(5) -0.1143(2) 0.81164(8)
O2 O 0.27710(5) 0.2128(2) 0.81443(8)
O3 O 0.17465(5) 0.0444(3) 0.74864(8)
H1 H 0.1702(8) 0.144(2) 0.7786(11)
H2 H 0.1698(9) -0.058(2) 0.7775(11)
O4 O 0.31944(5) -0.1207(3) 0.65373(10)
O5 O 0.23614(6) 0.0638(3) 0.55625(9)
H3 H 0.2177(7) 0.017(4) 0.5205(12)
H4 H 0.2616(5) 0.007(4) 0.5461(15)
O6 O 0.32184(5) 0.2059(2) 0.65610(9)
C1 C 0.28835(6) 0.0469(4) 0.84278(11)
C2 C 0.31925(7) 0.0405(4) 0.91398(12)
H7 H 0.3149 0.1633 0.9438
H8 H 0.3110 -0.0756 0.9450
C3 C 0.36885(7) 0.0239(4) 0.89374(11)
C4 C 0.39824(8) 0.1862(4) 0.90139(13)
H9 H 0.3871 0.3103 0.9189
C5 C 0.44388(8) 0.1682(4) 0.88358(15)
H10 H 0.4638 0.2798 0.8893
C6 C 0.46032(9) -0.0102(4) 0.85766(14)
H11 H 0.4915 -0.0217 0.8454
C7 C 0.43140(8) -0.1728(4) 0.84956(12)
H12 H 0.4427 -0.2962 0.8317
C8 C 0.38605(7) -0.1561(4) 0.86741(12)
H13 H 0.3663 -0.2685 0.8617
C9 C 0.34169(8) 0.0410(4) 0.65413(12)
C10 C 0.39353(8) 0.0287(4) 0.65570(15)
H14 H 0.4047 -0.0053 0.7074
H15 H 0.4025 -0.0816 0.6223
C11 C 0.41691(7) 0.2164(4) 0.63188(12)
C12 C 0.42567(7) 0.2474(4) 0.55726(13)
H16 H 0.4180 0.1460 0.5216
C13 C 0.44526(8) 0.4220(4) 0.53343(13)
H17 H 0.4505 0.4408 0.4816
C14 C 0.45720(8) 0.5688(4) 0.58418(13)
H18 H 0.4703 0.6900 0.5675
C15 C 0.45026(8) 0.5408(4) 0.65951(13)
H19 H 0.4592 0.6408 0.6950
C16 C 0.42997(8) 0.3644(4) 0.68319(13)
H20 H 0.4250 0.3452 0.7351
Ca1C Ca 0.253036(14) -0.45197(7) 0.80831(2)
Ca1C_2 Ca 0.253036(14) 0.54803(7) 0.80831(2)
O1C O 0.22337(5) 0.3857(2) 0.68836(8)
O2C O 0.22290(5) -0.2872(2) 0.68557(8)
O7 O 0.32264(8) 0.5501(3) 0.55370(10)
H5 H 0.3223(11) 0.652(3) 0.5846(13)
H6 H 0.3270(11) 0.452(3) 0.5854(13)
loop_
_geom_bond_atom_site_label_1
_geom_bond_atom_site_label_2
_geom_bond_site_symmetry_1
_geom_bond_site_symmetry_2
Ca1 O1 1_555 1_555
O1 C1 1_555 1_555
O2 Ca1 1_555 1_555
O3 Ca1 1_555 1_555
H1 O3 1_555 1_555
H2 O3 1_555 1_555
O4 Ca1 1_555 1_555
O5 Ca1 1_555 1_555
H3 O5 1_555 1_555
H4 O5 1_555 1_555
O6 Ca1 1_555 1_555
O7 H5 1_555 1_555
H6 O7 1_555 1_555
C1 O2 1_555 1_555
C2 C1 1_555 1_555
H7 C2 1_555 1_555
H8 C2 1_555 1_555
C3 C2 1_555 1_555
C4 C3 1_555 1_555
H9 C4 1_555 1_555
C5 C4 1_555 1_555
H10 C5 1_555 1_555
C6 C5 1_555 1_555
H11 C6 1_555 1_555
C7 C6 1_555 1_555
H12 C7 1_555 1_555
C8 C3 1_555 1_555
H13 C8 1_555 1_555
C9 O4 1_555 1_555
C10 C9 1_555 1_555
H14 C10 1_555 1_555
H15 C10 1_555 1_555
C11 C10 1_555 1_555
C12 C11 1_555 1_555
H16 C12 1_555 1_555
C13 C12 1_555 1_555
H17 C13 1_555 1_555
C14 C13 1_555 1_555
H18 C14 1_555 1_555
C15 C14 1_555 1_555
H19 C15 1_555 1_555
C16 C11 1_555 1_555
H20 C16 1_555 1_555
Ca1C O1 1_555 1_555
Ca1C_2 O2 1_555 1_555
O1C Ca1 1_555 1_555
O2C Ca1 1_555 1_555
O6 C9 1_555 1_555
C7 C8 1_555 1_555
C15 C16 1_555 1_555
Ca1C O2C 1_555 1_555
Ca1C_2 O1C 1_555 1_555

#END
