
#######################################################################
#
#                 Cambridge Crystallographic Data Centre
#                                CCDC 
#
#######################################################################
#
# If this CIF has been generated from an entry in the Cambridge 
# Structural Database, then it will include bibliographic, chemical, 
# crystal, experimental, refinement or atomic coordinate data resulting 
# from the CCDC's data processing and validation procedures.
#
#######################################################################

data_XAQTIU
_symmetry_cell_setting           monoclinic
_symmetry_space_group_name_H-M   'P 21/c'
_symmetry_Int_Tables_number      14
_space_group_name_Hall           '-P 2ybc'
loop_
_symmetry_equiv_pos_site_id
_symmetry_equiv_pos_as_xyz
1 x,y,z
2 -x,1/2+y,1/2-z
3 -x,-y,-z
4 x,1/2-y,1/2+z
_cell_length_a                   12.296(2)
_cell_length_b                   13.054(3)
_cell_length_c                   12.308(3)
_cell_angle_alpha                90
_cell_angle_beta                 101.33(1)
_cell_angle_gamma                90
_cell_volume                     1937.08
loop_
_atom_site_label
_atom_site_type_symbol
_atom_site_fract_x
_atom_site_fract_y
_atom_site_fract_z
Ca1 Ca 0.78030(5) 0.22844(5) 0.16490(5)
O1 O 0.8440(2) 0.3472(2) 0.3183(2)
H1 H 0.883(3) 0.403(3) 0.327(3)
H2 H 0.833(3) 0.336(3) 0.381(3)
P1 P 0.74193(8) -0.01823(7) 0.01980(7)
O2 O 0.72901(18) 0.08895(17) 0.05263(16)
O3 O 0.71879(18) -0.03975(17) -0.10300(17)
O4 O 0.8551(2) -0.06690(19) 0.0733(2)
H3 H 0.910(3) -0.027(3) 0.103(3)
P2 P 0.46277(8) -0.11080(7) 0.32022(7)
O5 O 0.38606(18) -0.19665(18) 0.32949(18)
O6 O 0.55384(17) -0.09311(16) 0.41900(16)
O7 O 0.4062(2) -0.0049(2) 0.29137(18)
H4 H 0.361(3) 0.003(3) 0.228(3)
N1 N 0.5583(3) -0.2600(2) 0.0705(3)
H5 H 0.537(3) -0.321(2) 0.030(3)
C1 C 0.6237(3) -0.1963(3) 0.0304(3)
H6 H 0.6548 -0.2170 -0.0291
C2 C 0.6472(3) -0.0995(3) 0.0745(2)
C3 C 0.5975(3) -0.0728(2) 0.1625(3)
H7 H 0.6107 -0.0083 0.1944
C4 C 0.5282(3) -0.1405(2) 0.2043(2)
C5 C 0.5102(3) -0.2342(3) 0.1562(3)
H8 H 0.4645 -0.2809 0.1825
P3 P 0.75879(8) 0.10414(7) 0.42553(7)
O8 O 0.76999(18) 0.11710(16) 0.30861(16)
O9 O 0.80369(17) 0.18688(16) 0.50497(17)
O10 O 0.6368(2) 0.08366(17) 0.4375(2)
H9 H 0.611(3) 0.021(3) 0.426(3)
P4 P 0.94122(8) -0.13141(7) 0.78400(7)
O11 O 0.97066(18) -0.02653(16) 0.82952(17)
O12 O 1.02520(16) -0.21498(16) 0.81601(16)
O13 O 0.8289(2) -0.16947(18) 0.80952(19)
H10 H 0.789(3) -0.132(3) 0.837(3)
N2 N 0.9413(2) -0.1562(2) 0.4559(2)
H11 H 0.975(2) -0.196(2) 0.420(2)
C6 C 0.8824(3) -0.0768(2) 0.4121(3)
H12 H 0.8741 -0.0642 0.3366
C7 C 0.8333(2) -0.0125(2) 0.4757(2)
C8 C 0.8491(3) -0.0358(2) 0.5877(3)
H13 H 0.8147 0.0052 0.6328
C9 C 0.9133(2) -0.1166(2) 0.6353(2)
C10 C 0.9592(3) -0.1776(2) 0.5646(3)
H14 H 1.0027 -0.2336 0.5923
Ca1A Ca 0.21970(5) -0.27156(5) 0.33510(5)
Ca1C Ca 0.78030(5) 0.27156(5) 0.66490(5)
Ca1B Ca 1.21970(5) -0.22844(5) 0.83510(5)
O5A O 0.61394(18) 0.30335(18) 0.17051(18)
O9C O 0.80369(17) 0.31312(16) 0.00497(17)
O12B O 0.97480(16) 0.21498(16) 0.18399(16)
loop_
_geom_bond_atom_site_label_1
_geom_bond_atom_site_label_2
_geom_bond_site_symmetry_1
_geom_bond_site_symmetry_2
Ca1 O1 1_555 1_555
O1 H1 1_555 1_555
H2 O1 1_555 1_555
P1 O2 1_555 1_555
O2 Ca1 1_555 1_555
O3 P1 1_555 1_555
O4 P1 1_555 1_555
H3 O4 1_555 1_555
P2 O5 1_555 1_555
O5 Ca1A 1_555 1_555
O6 P2 1_555 1_555
O7 P2 1_555 1_555
H4 O7 1_555 1_555
N1 H5 1_555 1_555
C1 N1 1_555 1_555
H6 C1 1_555 1_555
C2 P1 1_555 1_555
C3 C2 1_555 1_555
H7 C3 1_555 1_555
C4 P2 1_555 1_555
C5 N1 1_555 1_555
H8 C5 1_555 1_555
P3 O8 1_555 1_555
O8 Ca1 1_555 1_555
O9 P3 1_555 1_555
O10 P3 1_555 1_555
H9 O10 1_555 1_555
P4 O11 1_555 1_555
O12 P4 1_555 1_555
O13 P4 1_555 1_555
H10 O13 1_555 1_555
N2 H11 1_555 1_555
C6 N2 1_555 1_555
H12 C6 1_555 1_555
C7 P3 1_555 1_555
C8 C7 1_555 1_555
H13 C8 1_555 1_555
C9 P4 1_555 1_555
C10 N2 1_555 1_555
H14 C10 1_555 1_555
Ca1C O9 1_555 1_555
Ca1B O12 1_555 1_555
O5A Ca1 1_555 1_555
O9C Ca1 1_555 1_555
O12B Ca1 1_555 1_555
C1 C2 1_555 1_555
C3 C4 1_555 1_555
C4 C5 1_555 1_555
C6 C7 1_555 1_555
C8 C9 1_555 1_555
C9 C10 1_555 1_555

#END
