
#######################################################################
#
#                 Cambridge Crystallographic Data Centre
#                                CCDC 
#
#######################################################################
#
# If this CIF has been generated from an entry in the Cambridge 
# Structural Database, then it will include bibliographic, chemical, 
# crystal, experimental, refinement or atomic coordinate data resulting 
# from the CCDC's data processing and validation procedures.
#
#######################################################################

data_XARCOI
_symmetry_cell_setting           triclinic
_symmetry_space_group_name_H-M   'P -1'
_symmetry_Int_Tables_number      2
_space_group_name_Hall           '-P 1'
loop_
_symmetry_equiv_pos_site_id
_symmetry_equiv_pos_as_xyz
1 x,y,z
2 -x,-y,-z
_cell_length_a                   10.0790(3)
_cell_length_b                   10.2770(2)
_cell_length_c                   14.6260(4)
_cell_angle_alpha                73.1830(15)
_cell_angle_beta                 84.3080(11)
_cell_angle_gamma                68.9920(15)
_cell_volume                     1353.79
loop_
_atom_site_label
_atom_site_type_symbol
_atom_site_fract_x
_atom_site_fract_y
_atom_site_fract_z
Mn1 Mn 1.0000 0.0000 0.5000
Br1 Br 0.6541(1) 0.3757(1) -0.1487(1)
Br2 Br 0.0629(1) 0.3369(1) 0.7508(1)
C1 C 1.0565(4) 0.3161(4) 0.4804(3)
C2 C 1.0584(4) 0.4524(4) 0.4807(3)
C3 C 1.1757(4) 0.4935(4) 0.4401(3)
C4 C 0.6826(4) 0.1735(4) 0.4815(3)
C5 C 0.5717(4) 0.2501(4) 0.4122(3)
C6 C 0.6297(4) 0.2466(4) 0.3255(3)
C7 C 0.7786(4) 0.1651(4) 0.3402(3)
C8 C 0.8749(4) 0.1300(4) 0.2672(3)
C9 C 1.0180(4) 0.0418(4) 0.2841(3)
C10 C 1.1181(4) 0.0074(4) 0.2109(3)
C11 C 1.2463(4) -0.0706(4) 0.2536(3)
C12 C 1.2271(4) -0.0860(4) 0.3537(3)
C13 C 0.6637(4) 0.1549(4) 0.5789(3)
C14 C 0.8211(4) 0.1886(4) 0.1664(3)
C15 C 0.7663(4) 0.3377(4) 0.1247(3)
C16 C 0.7151(5) 0.3943(4) 0.0316(3)
C17 C 0.7208(5) 0.2993(5) -0.0205(3)
C18 C 0.7740(5) 0.1515(4) 0.0184(3)
C19 C 0.8232(4) 0.0963(4) 0.1119(3)
C20 C 0.5155(4) 0.2077(4) 0.6159(3)
C21 C 0.4598(4) 0.3351(4) 0.6418(3)
C22 C 0.3244(4) 0.3765(5) 0.6809(3)
C23 C 0.2464(4) 0.2868(5) 0.6941(3)
C24 C 0.2973(4) 0.1615(5) 0.6668(3)
C25 C 0.4318(4) 0.1214(4) 0.6274(3)
N1 N 1.0523(3) 0.2057(3) 0.4816(3)
N2 N 1.2686(4) 0.5293(4) 0.4063(3)
N3 N 0.8107(3) 0.1212(3) 0.4360(2)
N4 N 0.9152(3) 0.0174(3) 0.6280(2)
N1A N 0.9477(3) -0.2057(3) 0.5184(3)
N3A N 1.1893(3) -0.1212(3) 0.5640(2)
N4A N 1.0848(3) -0.0174(3) 0.3720(2)
C2A C 0.9416(4) 0.5476(4) 0.5193(3)
C13A C 1.3363(4) -0.1549(4) 0.4211(3)
C12A C 0.7729(4) 0.0860(4) 0.6463(3)
C9A C 0.9820(4) -0.0418(4) 0.7159(3)
C4A C 1.3174(4) -0.1735(4) 0.5185(3)
C20A C 1.4845(4) -0.2077(4) 0.3841(3)
C8A C 1.1251(4) -0.1300(4) 0.7328(3)
C10A C 0.8819(4) -0.0074(4) 0.7891(3)
C21A C 1.5402(4) -0.3351(4) 0.3582(3)
C25A C 1.5682(4) -0.1214(4) 0.3726(3)
C5A C 1.4283(4) -0.2501(4) 0.5878(3)
C7A C 1.2214(4) -0.1651(4) 0.6598(3)
C14A C 1.1789(4) -0.1886(4) 0.8336(3)
C11A C 0.7537(4) 0.0706(4) 0.7464(3)
C22A C 1.6756(4) -0.3765(5) 0.3191(3)
C24A C 1.7027(4) -0.1615(5) 0.3332(3)
C15A C 1.2337(4) -0.3377(4) 0.8753(3)
C19A C 1.1768(4) -0.0963(4) 0.8881(3)
C6A C 1.3703(4) -0.2466(4) 0.6745(3)
C23A C 1.7536(4) -0.2868(5) 0.3059(3)
Br2A Br 1.9371(1) -0.3369(1) 0.2492(1)
C16A C 1.2849(5) -0.3943(4) 0.9684(3)
C18A C 1.2260(5) -0.1515(4) 0.9816(3)
C17A C 1.2792(5) -0.2993(5) 1.0205(3)
Br1A Br 1.3459(1) -0.3757(1) 1.1487(1)
C1A C 0.9435(4) 0.6839(4) 0.5196(3)
C3A C 0.8243(4) 0.5065(4) 0.5599(3)
N2A N 0.7314(4) 0.4707(4) 0.5937(3)
N1A_2 N 0.9477(3) 0.7943(3) 0.5184(3)
Mn1_2 Mn 1.0000 1.0000 0.5000
C26 C 0.2518(6) 0.2826(6) 0.2602(4)
C27 C 0.2632(5) 0.2700(5) 0.1596(3)
C28 C 0.3925(5) 0.1993(5) 0.1225(4)
C29 C 0.4008(6) 0.1798(6) 0.0322(4)
C30 C 0.2810(6) 0.2331(6) -0.0237(4)
C31 C 0.1517(6) 0.3069(6) 0.0113(4)
C32 C 0.1442(5) 0.3251(5) 0.1009(4)
loop_
_geom_bond_atom_site_label_1
_geom_bond_atom_site_label_2
_geom_bond_site_symmetry_1
_geom_bond_site_symmetry_2
Mn1 N1 1_555 1_555
Br1 C17 1_555 1_555
Br2 C23 1_555 1_555
C1 C2 1_555 1_555
C2 C3 1_555 1_555
C3 N2 1_555 1_555
C4 C5 1_555 1_555
C5 C6 1_555 1_555
C6 C7 1_555 1_555
C7 C8 1_555 1_555
C8 C9 1_555 1_555
C9 C10 1_555 1_555
C10 C11 1_555 1_555
C11 C12 1_555 1_555
C12 N4A 1_555 1_555
C13 C4 1_555 1_555
C14 C8 1_555 1_555
C15 C14 1_555 1_555
C16 C15 1_555 1_555
C17 C16 1_555 1_555
C18 C17 1_555 1_555
C19 C14 1_555 1_555
C20 C13 1_555 1_555
C21 C20 1_555 1_555
C22 C21 1_555 1_555
C23 C22 1_555 1_555
C24 C23 1_555 1_555
C25 C20 1_555 1_555
N1 C1 1_555 1_555
N3 Mn1 1_555 1_555
N4 Mn1 1_555 1_555
C26 C27 1_555 1_555
C27 C28 1_555 1_555
C28 C29 1_555 1_555
C29 C30 1_555 1_555
C30 C31 1_555 1_555
C31 C32 1_555 1_555
C32 C27 1_555 1_555
N1A Mn1 1_555 1_555
N3A Mn1 1_555 1_555
N4A Mn1 1_555 1_555
C2A C2 1_555 1_555
C13A C12 1_555 1_555
C12A C13 1_555 1_555
C9A N4 1_555 1_555
C4A N3A 1_555 1_555
C20A C13A 1_555 1_555
C8A C9A 1_555 1_555
C10A C9A 1_555 1_555
C21A C20A 1_555 1_555
C25A C20A 1_555 1_555
C5A C4A 1_555 1_555
C7A N3A 1_555 1_555
C14A C8A 1_555 1_555
C11A C12A 1_555 1_555
C22A C21A 1_555 1_555
C24A C25A 1_555 1_555
C15A C14A 1_555 1_555
C19A C14A 1_555 1_555
C6A C5A 1_555 1_555
C23A C22A 1_555 1_555
Br2A C23A 1_555 1_555
C16A C15A 1_555 1_555
C18A C19A 1_555 1_555
C17A C16A 1_555 1_555
Br1A C17A 1_555 1_555
C1A C2A 1_555 1_555
C3A C2A 1_555 1_555
N2A C3A 1_555 1_555
N1A_2 C1A 1_555 1_555
Mn1_2 N1A_2 1_555 1_555
C4 N3 1_555 1_555
C7 N3 1_555 1_555
C9 N4A 1_555 1_555
C18 C19 1_555 1_555
C24 C25 1_555 1_555
N4 C12A 1_555 1_555
C13A C4A 1_555 1_555
C8A C7A 1_555 1_555
C10A C11A 1_555 1_555
C7A C6A 1_555 1_555
C24A C23A 1_555 1_555
C18A C17A 1_555 1_555

#END
