
#######################################################################
#
#                 Cambridge Crystallographic Data Centre
#                                CCDC 
#
#######################################################################
#
# If this CIF has been generated from an entry in the Cambridge 
# Structural Database, then it will include bibliographic, chemical, 
# crystal, experimental, refinement or atomic coordinate data resulting 
# from the CCDC's data processing and validation procedures.
#
#######################################################################

data_XARCUO
_symmetry_cell_setting           triclinic
_symmetry_space_group_name_H-M   'P -1'
_symmetry_Int_Tables_number      2
_space_group_name_Hall           '-P 1'
loop_
_symmetry_equiv_pos_site_id
_symmetry_equiv_pos_as_xyz
1 x,y,z
2 -x,-y,-z
_cell_length_a                   9.8305(2)
_cell_length_b                   10.1012(3)
_cell_length_c                   15.3990(6)
_cell_angle_alpha                81.0748(17)
_cell_angle_beta                 79.6338(18)
_cell_angle_gamma                72.7559(18)
_cell_volume                     1428.09
loop_
_atom_site_label
_atom_site_type_symbol
_atom_site_fract_x
_atom_site_fract_y
_atom_site_fract_z
Mn1 Mn 1.0000 0.5000 1.0000
I1 I 1.8973(1) 0.0820(1) 1.2533(1)
I2 I 1.4920(1) 0.2120(1) 0.4173(1)
N1 N 0.9292(4) 0.3017(4) 1.0138(3)
N2 N 0.7349(5) 0.0030(5) 0.9313(5)
N3 N 1.0529(4) 0.4603(4) 1.1236(2)
N4 N 1.1996(4) 0.3922(4) 0.9522(2)
C1 C 0.9305(4) 0.1934(5) 1.0016(3)
C2 C 0.9397(5) 0.0546(5) 0.9896(3)
C3 C 0.8256(5) 0.0286(5) 0.9570(4)
C4 C 1.1855(4) 0.3867(5) 1.1481(3)
C5 C 1.3091(4) 0.3293(4) 1.0903(3)
C6 C 1.3131(4) 0.3289(4) 0.9996(3)
C7 C 1.4354(3) 0.2592(5) 0.9426(3)
C8 C 1.3972(5) 0.2783(5) 0.8610(3)
C9 C 1.2518(4) 0.3630(4) 0.8652(3)
C10 C 1.1751(4) 0.4120(5) 0.7934(3)
C11 C 0.9660(4) 0.5033(5) 1.2007(3)
C12 C 1.0434(5) 0.4493(5) 1.2739(3)
C13 C 1.1780(5) 0.3795(5) 1.2420(3)
C14 C 1.4469(4) 0.2670(4) 1.1294(3)
C15 C 1.5237(5) 0.3550(5) 1.1433(4)
C16 C 1.6518(5) 0.3016(5) 1.1786(4)
C17 C 1.7027(4) 0.1609(5) 1.1999(3)
C18 C 1.6286(5) 0.0728(5) 1.1862(4)
C19 C 1.5010(5) 0.1255(5) 1.1504(4)
C20 C 1.2495(4) 0.3662(5) 0.7046(3)
C21 C 1.3704(5) 0.4060(6) 0.6625(4)
C22 C 1.4417(5) 0.3607(6) 0.5810(4)
C23 C 1.3878(5) 0.2764(6) 0.5416(3)
C24 C 1.2682(6) 0.2348(6) 0.5820(4)
C25 C 1.1988(5) 0.2803(6) 0.6631(3)
H1 H 1.5249 0.2098 0.9588
H2 H 1.4554 0.2425 0.8106
H3 H 1.0074 0.4604 1.3332
H4 H 1.2524 0.3348 1.2751
H5 H 1.4891 0.4506 1.1289
H6 H 1.7029 0.3612 1.1876
H7 H 1.6639 -0.0228 1.2008
H8 H 1.4516 0.0649 1.1406
H9 H 1.4047 0.4640 0.6890
H10 H 1.5238 0.3866 0.5536
H11 H 1.2343 0.1769 0.5552
H12 H 1.1173 0.2532 0.6902
N1A N 1.0708(4) 0.6983(4) 0.9862(3)
N3A N 0.9471(4) 0.5397(4) 0.8764(2)
N4A N 0.8004(4) 0.6078(4) 1.0478(2)
C2A C 1.0603(5) -0.0546(5) 1.0104(3)
C11A C 1.0340(4) 0.4967(5) 0.7993(3)
C10A C 0.8249(4) 0.5880(5) 1.2066(3)
C4A C 0.8145(4) 0.6133(5) 0.8519(3)
C6A C 0.6869(4) 0.6711(4) 1.0004(3)
C9A C 0.7482(4) 0.6370(4) 1.1348(3)
C1A C 1.0695(4) -0.1934(5) 0.9984(3)
C3A C 1.1744(5) -0.0286(5) 1.0430(4)
C12A C 0.9566(5) 0.5507(5) 0.7261(3)
C20A C 0.7505(4) 0.6338(5) 1.2954(3)
C21A C 0.6296(5) 0.5940(6) 1.3375(4)
C25A C 0.8012(5) 0.7197(6) 1.3369(3)
C22A C 0.5583(5) 0.6393(6) 1.4190(4)
H9A H 0.5953 0.5360 1.3110
C24A C 0.7318(6) 0.7652(6) 1.4180(4)
H12A H 0.8827 0.7468 1.3098
C23A C 0.6122(5) 0.7236(6) 1.4584(3)
H10A H 0.4762 0.6134 1.4464
H11A H 0.7657 0.8231 1.4448
I2A I 0.5080(1) 0.7880(1) 1.5827(1)
C5A C 0.6909(4) 0.6707(4) 0.9097(3)
C13A C 0.8220(5) 0.6205(5) 0.7580(3)
H4A H 0.7476 0.6652 0.7249
C14A C 0.5531(4) 0.7330(4) 0.8706(3)
C15A C 0.4763(5) 0.6450(5) 0.8567(4)
C19A C 0.4990(5) 0.8745(5) 0.8496(4)
C18A C 0.3714(5) 0.9272(5) 0.8138(4)
H8A H 0.5484 0.9351 0.8594
C16A C 0.3482(5) 0.6984(5) 0.8214(4)
H5A H 0.5109 0.5494 0.8711
C17A C 0.2973(4) 0.8391(5) 0.8001(3)
H7A H 0.3361 1.0228 0.7992
H6A H 0.2971 0.6388 0.8124
I1A I 0.1027(1) 0.9180(1) 0.7467(1)
N2A N 1.2651(5) -0.0030(5) 1.0687(5)
N1A_2 N 1.0708(4) -0.3017(4) 0.9862(3)
Mn1_2 Mn 1.0000 -0.5000 1.0000
C8A C 0.6028(5) 0.7217(5) 1.1390(3)
C7A C 0.5646(3) 0.7408(5) 1.0574(3)
H1A H 0.4751 0.7902 1.0412
H2A H 0.5446 0.7575 1.1894
H3A H 0.9926 0.5396 0.6668
C26 C 2.1278(15) -0.3390(20) 1.5021(15)
C27 C 2.1612(7) -0.2604(13) 1.4461(8)
C28 C 2.1699(7) -0.1282(14) 1.4544(7)
C29 C 2.2132(9) -0.0455(9) 1.3800(12)
C30 C 2.2477(7) -0.0949(17) 1.2972(8)
C31 C 2.2390(8) -0.2271(19) 1.2888(7)
C32 C 2.1957(9) -0.3098(11) 1.3632(11)
H13 H 2.1307 -0.4217 1.4780
H14 H 2.0318 -0.2981 1.5300
H15 H 2.1929 -0.3617 1.5453
H16 H 2.1468 -0.0952 1.5098
H17 H 2.2190 0.0430 1.3856
H18 H 2.2767 -0.0395 1.2473
H19 H 2.2621 -0.2602 1.2334
H20 H 2.1899 -0.3983 1.3577
loop_
_geom_bond_atom_site_label_1
_geom_bond_atom_site_label_2
_geom_bond_site_symmetry_1
_geom_bond_site_symmetry_2
Mn1 N1 1_555 1_555
I1 C17 1_555 1_555
I2 C23 1_555 1_555
N1 C1 1_555 1_555
N2 C3 1_555 1_555
N3 Mn1 1_555 1_555
N4 Mn1 1_555 1_555
C1 C2 1_555 1_555
C2 C3 1_555 1_555
C4 N3 1_555 1_555
C5 C4 1_555 1_555
C6 N4 1_555 1_555
C7 C6 1_555 1_555
C8 C7 1_555 1_555
C9 N4 1_555 1_555
C10 C9 1_555 1_555
C11 N3 1_555 1_555
C12 C11 1_555 1_555
C13 C4 1_555 1_555
C14 C5 1_555 1_555
C15 C14 1_555 1_555
C16 C15 1_555 1_555
C17 C16 1_555 1_555
C18 C17 1_555 1_555
C19 C14 1_555 1_555
C20 C10 1_555 1_555
C21 C20 1_555 1_555
C22 C21 1_555 1_555
C23 C22 1_555 1_555
C24 C23 1_555 1_555
C25 C20 1_555 1_555
H1 C7 1_555 1_555
H2 C8 1_555 1_555
H3 C12 1_555 1_555
H4 C13 1_555 1_555
H5 C15 1_555 1_555
H6 C16 1_555 1_555
H7 C18 1_555 1_555
H8 C19 1_555 1_555
H9 C21 1_555 1_555
H10 C22 1_555 1_555
H11 C24 1_555 1_555
H12 C25 1_555 1_555
C26 C27 1_555 1_555
C27 C28 1_555 1_555
C28 C29 1_555 1_555
C29 C30 1_555 1_555
C30 C31 1_555 1_555
C31 C32 1_555 1_555
C32 C27 1_555 1_555
H13 C26 1_555 1_555
H14 C26 1_555 1_555
H15 C26 1_555 1_555
H16 C28 1_555 1_555
H17 C29 1_555 1_555
H18 C30 1_555 1_555
H19 C31 1_555 1_555
H20 C32 1_555 1_555
N1A Mn1 1_555 1_555
N3A Mn1 1_555 1_555
N4A Mn1 1_555 1_555
C2A C2 1_555 1_555
C11A C10 1_555 1_555
C10A C11 1_555 1_555
C4A N3A 1_555 1_555
C6A N4A 1_555 1_555
C9A N4A 1_555 1_555
C1A C2A 1_555 1_555
C3A C2A 1_555 1_555
C12A C11A 1_555 1_555
C20A C10A 1_555 1_555
C21A C20A 1_555 1_555
C25A C20A 1_555 1_555
C22A C21A 1_555 1_555
H9A C21A 1_555 1_555
C24A C25A 1_555 1_555
H12A C25A 1_555 1_555
C23A C22A 1_555 1_555
H10A C22A 1_555 1_555
H11A C24A 1_555 1_555
I2A C23A 1_555 1_555
C5A C4A 1_555 1_555
C13A C4A 1_555 1_555
H4A C13A 1_555 1_555
C14A C5A 1_555 1_555
C15A C14A 1_555 1_555
C19A C14A 1_555 1_555
C18A C19A 1_555 1_555
H8A C19A 1_555 1_555
C16A C15A 1_555 1_555
H5A C15A 1_555 1_555
C17A C18A 1_555 1_555
H7A C18A 1_555 1_555
H6A C16A 1_555 1_555
I1A C17A 1_555 1_555
N2A C3A 1_555 1_555
N1A_2 C1A 1_555 1_555
Mn1_2 N1A_2 1_555 1_555
C8A C9A 1_555 1_555
C7A C6A 1_555 1_555
H1A C7A 1_555 1_555
H2A C8A 1_555 1_555
H3A C12A 1_555 1_555
C5 C6 1_555 1_555
C8 C9 1_555 1_555
C12 C13 1_555 1_555
C18 C19 1_555 1_555
C24 C25 1_555 1_555
N3A C11A 1_555 1_555
C10A C9A 1_555 1_555
C6A C5A 1_555 1_555
C12A C13A 1_555 1_555
C24A C23A 1_555 1_555
C16A C17A 1_555 1_555
C8A C7A 1_555 1_555

#END
