
#######################################################################
#
#                 Cambridge Crystallographic Data Centre
#                                CCDC 
#
#######################################################################
#
# If this CIF has been generated from an entry in the Cambridge 
# Structural Database, then it will include bibliographic, chemical, 
# crystal, experimental, refinement or atomic coordinate data resulting 
# from the CCDC's data processing and validation procedures.
#
#######################################################################

data_XARSOZ
_symmetry_cell_setting           triclinic
_symmetry_space_group_name_H-M   'P -1'
_symmetry_Int_Tables_number      2
_space_group_name_Hall           '-P 1'
loop_
_symmetry_equiv_pos_site_id
_symmetry_equiv_pos_as_xyz
1 x,y,z
2 -x,-y,-z
_cell_length_a                   16.0571(12)
_cell_length_b                   16.0628(12)
_cell_length_c                   16.0614(12)
_cell_angle_alpha                86.8300(10)
_cell_angle_beta                 64.3800(10)
_cell_angle_gamma                67.8030(10)
_cell_volume                     3429.38
loop_
_atom_site_label
_atom_site_type_symbol
_atom_site_fract_x
_atom_site_fract_y
_atom_site_fract_z
Nb1 Nb 0.72767(4) -0.38029(4) -0.01478(4)
Nb2 Nb 0.58419(4) -0.30202(4) -0.09322(4)
Nb3 Nb 0.72765(4) -0.49082(3) -0.15376(4)
Nb4 Nb 0.89402(4) -0.43246(4) -0.20308(4)
Nb5 Nb 0.75058(4) -0.35412(4) -0.28156(4)
Nb6 Nb 0.75055(4) -0.24402(4) -0.14211(4)
Cl1 Cl 0.54282(11) -0.30805(10) 0.07334(10)
Cl2 Cl 0.73887(11) -0.23669(10) 0.01596(11)
Cl3 Cl 0.90795(11) -0.45842(10) -0.05580(11)
Cl4 Cl 0.70917(11) -0.52634(10) 0.00306(11)
Cl5 Cl 0.74266(11) -0.49838(10) -0.31256(11)
Cl6 Cl 0.54454(11) -0.43612(10) -0.09165(11)
Cl7 Cl 0.90737(11) -0.58851(10) -0.21767(11)
Cl8 Cl 0.93576(11) -0.29881(10) -0.20508(11)
Cl9 Cl 0.93441(11) -0.42926(10) -0.37003(10)
Cl10 Cl 0.76524(11) -0.20544(10) -0.29757(10)
Cl11 Cl 0.56993(11) -0.27303(10) -0.23926(11)
Cl12 Cl 0.56972(11) -0.14389(10) -0.07487(11)
N1 N 0.6934(4) -0.3866(4) 0.2098(4)
N2 N 0.3292(4) -0.1916(4) -0.0098(4)
N3 N 0.7331(4) -0.7026(4) -0.1794(4)
N4 N 1.1491(4) -0.5497(4) -0.3028(4)
N5 N 0.7364(4) -0.3223(4) -0.4885(4)
N6 N 0.7837(4) -0.0459(4) -0.1381(4)
C1 C 0.7101(5) -0.3904(4) 0.1335(5)
C2 C 0.4132(5) -0.2299(4) -0.0361(4)
C3 C 0.7236(5) -0.6298(4) -0.1661(5)
C4 C 1.0644(5) -0.5073(4) -0.2670(5)
C5 C 0.7515(4) -0.3361(4) -0.4248(5)
C6 C 0.7685(5) -0.1100(5) -0.1378(4)
Ba1 Ba 0.64657(3) -0.32495(3) 0.39218(3)
N7 N 0.5248(4) -0.3946(3) 0.5461(4)
C7 C 0.5511(5) -0.4220(4) 0.6137(5)
H1 H 0.6136 -0.4261 0.6052
C8 C 0.4913(6) -0.4451(5) 0.6967(5)
H2 H 0.5124 -0.4615 0.7430
C9 C 0.4012(5) -0.4432(4) 0.7082(5)
H3 H 0.3598 -0.4586 0.7626
C10 C 0.2801(5) -0.4181(5) 0.6441(5)
H4 H 0.2385 -0.4353 0.6969
C11 C 0.2536(5) -0.3936(5) 0.5738(5)
H5 H 0.1945 -0.3957 0.5790
C12 C 0.2883(5) -0.3376(5) 0.4190(5)
H6 H 0.2296 -0.3380 0.4212
C13 C 0.3505(5) -0.3109(5) 0.3448(6)
H7 H 0.3341 -0.2921 0.2960
C14 C 0.4384(5) -0.3118(5) 0.3417(5)
H8 H 0.4800 -0.2935 0.2899
N8 N 0.4665(4) -0.3373(4) 0.4084(4)
C15 C 0.4047(5) -0.3634(4) 0.4844(5)
C16 C 0.4351(5) -0.3932(4) 0.5572(5)
C17 C 0.3718(5) -0.4177(4) 0.6369(5)
C18 C 0.3135(5) -0.3647(4) 0.4926(5)
N9 N 0.4830(4) -0.1681(3) 0.5252(4)
C19 C 0.4535(5) -0.1736(5) 0.6155(5)
H9 H 0.4819 -0.2291 0.6335
C20 C 0.3822(5) -0.1011(5) 0.6852(5)
H10 H 0.3634 -0.1087 0.7476
C21 C 0.3413(5) -0.0199(5) 0.6603(5)
H11 H 0.2934 0.0291 0.7057
C22 C 0.3338(5) 0.0756(4) 0.5331(5)
H12 H 0.2874 0.1264 0.5767
C23 C 0.3632(5) 0.0840(5) 0.4432(5)
H13 H 0.3372 0.1402 0.4250
C24 C 0.4674(5) 0.0125(4) 0.2782(5)
H14 H 0.4426 0.0676 0.2577
C25 C 0.5354(5) -0.0628(5) 0.2156(6)
H15 H 0.5562 -0.0607 0.1520
C26 C 0.5730(5) -0.1429(5) 0.2493(5)
H16 H 0.6216 -0.1932 0.2058
N10 N 0.5444(4) -0.1532(4) 0.3397(4)
C27 C 0.4740(5) -0.0781(4) 0.4023(5)
C28 C 0.4421(4) -0.0862(4) 0.5003(4)
C29 C 0.3714(5) -0.0095(4) 0.5650(5)
C30 C 0.4351(5) 0.0065(4) 0.3733(5)
Ba2 Ba 0.17722(3) -0.11206(2) 0.17002(3)
N11 N 0.0719(4) -0.1625(4) 0.0891(4)
C31 C 0.1049(5) -0.2486(4) 0.0566(5)
H17 H 0.1651 -0.2884 0.0555
C32 C 0.0565(5) -0.2840(5) 0.0239(5)
H18 H 0.0829 -0.3455 0.0031
C33 C -0.0304(5) -0.2264(5) 0.0231(5)
H19 H -0.0643 -0.2484 0.0014
C34 C -0.1587(5) -0.0685(5) 0.0537(5)
H20 H -0.1946 -0.0877 0.0321
C35 C -0.1927(5) 0.0203(5) 0.0829(5)
H21 H -0.2509 0.0613 0.0810
C36 C -0.1738(5) 0.1439(5) 0.1496(5)
H22 H -0.2313 0.1864 0.1478
C37 C -0.1214(5) 0.1698(5) 0.1837(5)
H23 H -0.1435 0.2300 0.2068
C38 C -0.0338(5) 0.1040(4) 0.1832(5)
H24 H 0.0024 0.1231 0.2044
N12 N 0.0009(4) 0.0171(4) 0.1549(4)
C39 C -0.0531(5) -0.0099(4) 0.1228(4)
C40 C -0.0153(5) -0.1050(4) 0.0882(4)
C41 C -0.0692(5) -0.1345(4) 0.0546(5)
C42 C -0.1389(5) 0.0516(4) 0.1171(4)
N13 N 0.0260(4) -0.1481(3) 0.3328(4)
C43 C -0.0294(5) -0.1882(5) 0.3229(5)
H25 H -0.0408 -0.1806 0.2704
C44 C -0.0709(5) -0.2405(4) 0.3868(5)
H26 H -0.1093 -0.2665 0.3770
C45 C -0.0543(5) -0.2531(5) 0.4642(5)
H27 H -0.0802 -0.2887 0.5071
C46 C 0.0183(5) -0.2191(5) 0.5586(5)
H28 H -0.0055 -0.2556 0.6018
C47 C 0.0671(5) -0.1747(5) 0.5734(5)
H29 H 0.0765 -0.1804 0.6270
C48 C 0.1552(6) -0.0680(6) 0.5218(6)
H30 H 0.1649 -0.0709 0.5751
C49 C 0.1887(6) -0.0162(6) 0.4579(6)
H31 H 0.2198 0.0184 0.4673
C50 C 0.1760(5) -0.0151(5) 0.3770(6)
H32 H 0.2009 0.0201 0.3328
N14 N 0.1310(4) -0.0605(4) 0.3595(4)
C51 C 0.0949(5) -0.1116(4) 0.4248(5)
C52 C 0.0398(4) -0.1580(4) 0.4107(4)
C53 C 0.0025(5) -0.2113(5) 0.4777(5)
C54 C 0.1053(5) -0.1182(5) 0.5079(5)
O1 O 0.8026(4) -0.2634(3) 0.2564(4)
O2 O 0.3540(3) -0.1147(3) 0.1748(4)
H33 H 0.4122 -0.1716 0.1422
N3A N 0.2669(4) -0.2974(4) 0.1794(4)
N4A N 0.8509(4) -0.4503(4) 0.3028(4)
N5_2 N 0.7364(4) -0.3223(4) 0.5115(4)
N6A N 0.2163(4) 0.0459(4) 0.1381(4)
Ba1A Ba 1.35343(3) -0.67505(3) -0.39218(3)
Ba1_2 Ba 0.64657(3) -0.32495(3) -0.60782(3)
Ba2A Ba 0.82278(3) -0.88794(2) -0.17002(3)
Ba2A_2 Ba 0.82278(3) 0.11206(2) -0.17002(3)
loop_
_geom_bond_atom_site_label_1
_geom_bond_atom_site_label_2
_geom_bond_site_symmetry_1
_geom_bond_site_symmetry_2
Nb1 Nb2 1_555 1_555
Nb2 Nb3 1_555 1_555
Nb3 Nb1 1_555 1_555
Nb4 Nb1 1_555 1_555
Nb5 Nb2 1_555 1_555
Nb6 Nb1 1_555 1_555
Cl1 Nb1 1_555 1_555
Cl2 Nb1 1_555 1_555
Cl3 Nb1 1_555 1_555
Cl4 Nb1 1_555 1_555
Cl5 Nb3 1_555 1_555
Cl6 Nb2 1_555 1_555
Cl7 Nb3 1_555 1_555
Cl8 Nb4 1_555 1_555
Cl9 Nb4 1_555 1_555
Cl10 Nb5 1_555 1_555
Cl11 Nb2 1_555 1_555
Cl12 Nb2 1_555 1_555
N1 C1 1_555 1_555
N2 C2 1_555 1_555
N3 C3 1_555 1_555
N4 C4 1_555 1_555
N5 C5 1_555 1_555
N6 C6 1_555 1_555
C1 Nb1 1_555 1_555
C2 Nb2 1_555 1_555
C3 Nb3 1_555 1_555
C4 Nb4 1_555 1_555
C5 Nb5 1_555 1_555
C6 Nb6 1_555 1_555
Ba1 N1 1_555 1_555
N7 Ba1 1_555 1_555
C7 N7 1_555 1_555
H1 C7 1_555 1_555
C8 C7 1_555 1_555
H2 C8 1_555 1_555
C9 C8 1_555 1_555
H3 C9 1_555 1_555
C10 H4 1_555 1_555
C11 C10 1_555 1_555
H5 C11 1_555 1_555
C12 H6 1_555 1_555
C13 C12 1_555 1_555
H7 C13 1_555 1_555
C14 C13 1_555 1_555
H8 C14 1_555 1_555
N8 Ba1 1_555 1_555
C15 N8 1_555 1_555
C16 N7 1_555 1_555
C17 C9 1_555 1_555
C18 C11 1_555 1_555
N9 Ba1 1_555 1_555
C19 N9 1_555 1_555
H9 C19 1_555 1_555
C20 C19 1_555 1_555
H10 C20 1_555 1_555
C21 C20 1_555 1_555
H11 C21 1_555 1_555
C22 H12 1_555 1_555
C23 C22 1_555 1_555
H13 C23 1_555 1_555
C24 H14 1_555 1_555
C25 C24 1_555 1_555
H15 C25 1_555 1_555
C26 C25 1_555 1_555
H16 C26 1_555 1_555
N10 Ba1 1_555 1_555
C27 N10 1_555 1_555
C28 N9 1_555 1_555
C29 C21 1_555 1_555
C30 C23 1_555 1_555
Ba2 N2 1_555 1_555
N11 Ba2 1_555 1_555
C31 N11 1_555 1_555
H17 C31 1_555 1_555
C32 C31 1_555 1_555
H18 C32 1_555 1_555
C33 C32 1_555 1_555
H19 C33 1_555 1_555
C34 H20 1_555 1_555
C35 C34 1_555 1_555
H21 C35 1_555 1_555
C36 H22 1_555 1_555
C37 C36 1_555 1_555
H23 C37 1_555 1_555
C38 C37 1_555 1_555
H24 C38 1_555 1_555
N12 Ba2 1_555 1_555
C39 N12 1_555 1_555
C40 N11 1_555 1_555
C41 C33 1_555 1_555
C42 C35 1_555 1_555
N13 Ba2 1_555 1_555
C43 N13 1_555 1_555
H25 C43 1_555 1_555
C44 C43 1_555 1_555
H26 C44 1_555 1_555
C45 C44 1_555 1_555
H27 C45 1_555 1_555
C46 H28 1_555 1_555
C47 C46 1_555 1_555
H29 C47 1_555 1_555
C48 H30 1_555 1_555
C49 C48 1_555 1_555
H31 C49 1_555 1_555
C50 C49 1_555 1_555
H32 C50 1_555 1_555
N14 Ba2 1_555 1_555
C51 N14 1_555 1_555
C52 N13 1_555 1_555
C53 C45 1_555 1_555
C54 C47 1_555 1_555
O1 Ba1 1_555 1_555
O2 Ba2 1_555 1_555
H33 O2 1_555 1_555
N3A Ba2 1_555 1_555
N4A Ba1 1_555 1_555
N5_2 Ba1 1_555 1_555
N6A Ba2 1_555 1_555
Ba1A N4 1_555 1_555
Ba1_2 N5 1_555 1_555
Ba2A N3 1_555 1_555
Ba2A_2 N6 1_555 1_555
Nb2 Nb6 1_555 1_555
Nb2 Cl1 1_555 1_555
Nb3 Nb4 1_555 1_555
Nb3 Nb5 1_555 1_555
Nb3 Cl4 1_555 1_555
Nb3 Cl6 1_555 1_555
Nb4 Nb5 1_555 1_555
Nb4 Nb6 1_555 1_555
Nb4 Cl3 1_555 1_555
Nb4 Cl7 1_555 1_555
Nb5 Nb6 1_555 1_555
Nb5 Cl5 1_555 1_555
Nb5 Cl9 1_555 1_555
Nb5 Cl11 1_555 1_555
Nb6 Cl2 1_555 1_555
Nb6 Cl8 1_555 1_555
Nb6 Cl10 1_555 1_555
Nb6 Cl12 1_555 1_555
C10 C17 1_555 1_555
C12 C18 1_555 1_555
C14 N8 1_555 1_555
C15 C16 1_555 1_555
C15 C18 1_555 1_555
C16 C17 1_555 1_555
C22 C29 1_555 1_555
C24 C30 1_555 1_555
C26 N10 1_555 1_555
C27 C28 1_555 1_555
C27 C30 1_555 1_555
C28 C29 1_555 1_555
C34 C41 1_555 1_555
C36 C42 1_555 1_555
C38 N12 1_555 1_555
C39 C40 1_555 1_555
C39 C42 1_555 1_555
C40 C41 1_555 1_555
C46 C53 1_555 1_555
C48 C54 1_555 1_555
C50 N14 1_555 1_555
C51 C52 1_555 1_555
C51 C54 1_555 1_555
C52 C53 1_555 1_555

#END
