
#######################################################################
#
#                 Cambridge Crystallographic Data Centre
#                                CCDC 
#
#######################################################################
#
# If this CIF has been generated from an entry in the Cambridge 
# Structural Database, then it will include bibliographic, chemical, 
# crystal, experimental, refinement or atomic coordinate data resulting 
# from the CCDC's data processing and validation procedures.
#
#######################################################################

data_XARVUH
_symmetry_cell_setting           monoclinic
_symmetry_space_group_name_H-M   'P 21/c'
_symmetry_Int_Tables_number      14
_space_group_name_Hall           '-P 2ybc'
loop_
_symmetry_equiv_pos_site_id
_symmetry_equiv_pos_as_xyz
1 x,y,z
2 -x,1/2+y,1/2-z
3 -x,-y,-z
4 x,1/2-y,1/2+z
_cell_length_a                   11.972(2)
_cell_length_b                   11.775(1)
_cell_length_c                   13.022(2)
_cell_angle_alpha                90
_cell_angle_beta                 100.92(1)
_cell_angle_gamma                90
_cell_volume                     1802.48
loop_
_atom_site_label
_atom_site_type_symbol
_atom_site_fract_x
_atom_site_fract_y
_atom_site_fract_z
Cu1 Cu 0.00953(4) 0.35483(4) 0.26630(4)
O1 O -0.0909(3) 0.3016(3) 0.3609(2)
O2 O 0.0908(3) 0.3995(3) 0.1521(2)
O3 O 0.0564(5) 0.3808(4) -0.0169(3)
O4 O -0.0637(4) 0.3186(4) 0.0727(3)
O5 O 0.1447(3) 0.4341(3) 0.3812(3)
O6 O 0.1610(4) 0.5671(4) 0.4943(4)
O7 O 0.1195(5) 0.3999(5) 0.5377(4)
N1 N 0.0860(3) 0.2007(3) 0.2716(3)
N2 N 0.0803(3) 0.0011(3) 0.2580(2)
N3 N 0.0278(4) 0.3663(4) 0.0665(3)
N4 N 0.1408(3) 0.4663(4) 0.4720(3)
C1 C 0.0304(4) 0.1033(3) 0.2503(3)
C2 C 0.1999(3) 0.1958(4) 0.3005(3)
C3 C 0.2587(4) 0.0942(4) 0.3105(3)
C4 C 0.1936(3) -0.0029(4) 0.2890(3)
C5 C 0.3852(3) 0.0908(3) 0.3421(3)
C6 C 0.4386(4) 0.1410(4) 0.4367(3)
C7 C 0.3788(5) 0.1846(5) 0.5129(4)
C8 C 0.4352(6) 0.2308(5) 0.6035(4)
C9 C 0.5549(7) 0.2386(5) 0.6243(5)
C10 C 0.6143(6) 0.1989(5) 0.5557(5)
C11 C 0.5613(4) 0.1444(4) 0.4611(4)
C12 C 0.6230(4) 0.0952(4) 0.3936(4)
C13 C 0.5712(4) 0.0407(4) 0.3026(4)
C14 C 0.6347(4) -0.0121(5) 0.2326(5)
C15 C 0.5856(5) -0.0582(5) 0.1430(5)
C16 C 0.4648(5) -0.0582(4) 0.1132(4)
C17 C 0.3995(4) -0.0107(4) 0.1765(4)
C18 C 0.4489(3) 0.0396(4) 0.2738(3)
H1 H -0.043(5) 0.103(4) 0.232(4)
H2 H 0.242(4) 0.272(4) 0.312(4)
H3 H 0.230(3) -0.074(4) 0.294(3)
H4 H 0.299(5) 0.177(5) 0.502(4)
H5 H 0.390(4) 0.257(4) 0.659(4)
H6 H 0.593(5) 0.268(6) 0.690(5)
H7 H 0.686(5) 0.199(6) 0.564(5)
H8 H 0.707(6) 0.093(6) 0.407(5)
H9 H 0.712(5) -0.005(5) 0.248(4)
H10 H 0.624(6) -0.091(6) 0.092(5)
H11 H 0.428(4) -0.086(4) 0.047(4)
H12 H 0.320(4) -0.003(4) 0.150(4)
H13 H -0.067(5) 0.254(6) 0.400(5)
H14 H -0.108(5) 0.353(6) 0.402(5)
N2A N -0.0803(3) 0.5011(3) 0.2420(2)
Cu1A Cu -0.00953(4) -0.14517(4) 0.23370(4)
loop_
_geom_bond_atom_site_label_1
_geom_bond_atom_site_label_2
_geom_bond_site_symmetry_1
_geom_bond_site_symmetry_2
Cu1 O1 1_555 1_555
O1 H13 1_555 1_555
O2 Cu1 1_555 1_555
O3 N3 1_555 1_555
O4 N3 1_555 1_555
O5 Cu1 1_555 1_555
O6 N4 1_555 1_555
O7 N4 1_555 1_555
N1 Cu1 1_555 1_555
N2 C1 1_555 1_555
N3 O2 1_555 1_555
N4 O5 1_555 1_555
C1 N1 1_555 1_555
C2 N1 1_555 1_555
C3 C2 1_555 1_555
C4 N2 1_555 1_555
C5 C3 1_555 1_555
C6 C5 1_555 1_555
C7 C6 1_555 1_555
C8 C7 1_555 1_555
C9 C8 1_555 1_555
C10 C9 1_555 1_555
C11 C6 1_555 1_555
C12 C11 1_555 1_555
C13 C12 1_555 1_555
C14 C13 1_555 1_555
C15 C14 1_555 1_555
C16 C15 1_555 1_555
C17 C16 1_555 1_555
C18 C5 1_555 1_555
H1 C1 1_555 1_555
H2 C2 1_555 1_555
H3 C4 1_555 1_555
H4 C7 1_555 1_555
H5 C8 1_555 1_555
H6 C9 1_555 1_555
H7 C10 1_555 1_555
H8 C12 1_555 1_555
H9 C14 1_555 1_555
H10 C15 1_555 1_555
H11 C16 1_555 1_555
H12 C17 1_555 1_555
H14 O1 1_555 1_555
N2A Cu1 1_555 1_555
Cu1A N2 1_555 1_555
C3 C4 1_555 1_555
C10 C11 1_555 1_555
C13 C18 1_555 1_555
C17 C18 1_555 1_555

#END
