
#######################################################################
#
#                 Cambridge Crystallographic Data Centre
#                                CCDC 
#
#######################################################################
#
# If this CIF has been generated from an entry in the Cambridge 
# Structural Database, then it will include bibliographic, chemical, 
# crystal, experimental, refinement or atomic coordinate data resulting 
# from the CCDC's data processing and validation procedures.
#
#######################################################################

data_XASGAZ
_symmetry_cell_setting           trigonal
_symmetry_space_group_name_H-M   'P 31'
_symmetry_Int_Tables_number      144
_space_group_name_Hall           'P 31'
loop_
_symmetry_equiv_pos_site_id
_symmetry_equiv_pos_as_xyz
1 x,y,z
2 -y,x-y,1/3+z
3 -x+y,-x,2/3+z
_cell_length_a                   11.295(3)
_cell_length_b                   11.295(3)
_cell_length_c                   20.570(6)
_cell_angle_alpha                90
_cell_angle_beta                 90
_cell_angle_gamma                120
_cell_volume                     2272.68
loop_
_atom_site_label
_atom_site_type_symbol
_atom_site_fract_x
_atom_site_fract_y
_atom_site_fract_z
Co1 Co 0.59545(8) 0.47955(7) -0.20932(3)
O1 O 0.6714(4) 0.4121(5) -0.1328(2)
O2 O 0.4937(4) 0.2609(4) 0.0722(2)
O3 O 0.4386(5) 0.4501(5) -0.1482(2)
O4 O 0.4725(5) 0.2926(5) -0.2504(2)
O5 O 0.7137(5) 0.6817(4) -0.1891(2)
O6 O 0.5065(5) 0.5406(5) -0.2808(2)
N1 N 0.5697(5) 0.3397(5) 0.0254(2)
N2 N 0.6511(5) 0.4105(5) -0.0711(2)
C1 C 0.1239(16) -0.2516(15) -0.1878(7)
H1 H 0.0398(96) -0.3365(43) -0.1929(39)
H2 H 0.1965(28) -0.2698(82) -0.1782(27)
H3 H 0.1445(70) -0.200(12) -0.2273(13)
C2 C 0.2239(9) -0.0600(9) -0.1144(4)
C3 C 0.3520(9) -0.0124(10) -0.1384(4)
H4 H 0.3669(9) -0.0605(10) -0.1709(4)
C4 C 0.4627(8) 0.1101(8) -0.1140(3)
H5 H 0.5498(8) 0.1443(8) -0.1314(3)
C5 C 0.4403(6) 0.1787(6) -0.0642(3)
C6 C 0.3095(7) 0.1255(7) -0.0395(3)
H6 H 0.2943(7) 0.1690(7) -0.0048(3)
C7 C 0.2007(10) 0.0087(8) -0.0654(4)
H7 H 0.1126(10) -0.0231(8) -0.0497(4)
C8 C 0.5520(7) 0.3044(7) -0.0388(3)
C9 C 0.7569(9) 0.5176(7) -0.0268(3)
C10 C 0.8066(13) 0.6589(10) -0.0543(4)
H8 H 0.8583(74) 0.7261(76) -0.0218(14)
H9 H 0.7295(33) 0.6677(10) -0.0670(38)
H10 H 0.8635(39) 0.6727(70) -0.0915(25)
C11 C 0.8710(14) 0.4805(8) -0.0233(5)
H11 H 0.8390(27) 0.3973(39) 0.0009(46)
H12 H 0.9498(18) 0.5528(40) -0.0022(48)
H13 H 0.8952(34) 0.4682(80) -0.0665(5)
C12 C 0.6742(11) 0.4864(9) 0.0358(3)
C13 C 0.5891(12) 0.5602(13) 0.0385(5)
H14 H 0.6485(12) 0.6552(19) 0.0480(41)
H15 H 0.5209(12) 0.5197(58) 0.0719(29)
H16 H 0.5454(13) 0.5512(71) -0.0027(14)
C14 C 0.7525(15) 0.5043(11) 0.0978(4)
H17 H 0.6967(65) 0.4978(39) 0.1343(4)
H18 H 0.8341(94) 0.5924(53) 0.0976(22)
H19 H 0.7768(31) 0.4343(88) 0.1008(23)
C15 C 0.3150(8) 0.3636(8) -0.1599(3)
C16 C 0.2112(10) 0.3758(11) -0.1163(5)
C17 C 0.2633(8) 0.2619(9) -0.2074(4)
H20 H 0.1689(8) 0.2078(9) -0.2113(4)
C18 C 0.3432(8) 0.2378(7) -0.2482(3)
C19 C 0.2725(11) 0.1276(12) -0.3014(5)
C20 C 0.5074(8) 0.6520(9) -0.2819(3)
C21 C 0.3992(12) 0.6554(13) -0.3241(6)
C22 C 0.5977(11) 0.7701(9) -0.2472(5)
H21 H 0.5904(11) 0.8481(9) -0.2523(5)
C23 C 0.6950(10) 0.7762(8) -0.2066(4)
C24 C 0.7998(19) 0.9187(10) -0.1753(10)
O7 O 0.1104(10) -0.1760(7) -0.1359(4)
F1 F 0.2517(7) 0.3995(9) -0.0554(3)
F2 F 0.0914(7) 0.2713(10) -0.1168(5)
F3 F 0.2022(11) 0.4826(12) -0.1346(4)
F4 F 0.3035(9) 0.0294(7) -0.2957(3)
F5 F 0.3157(11) 0.1756(9) -0.3588(3)
F6 F 0.1430(9) 0.0680(12) -0.3011(5)
F7 F 0.4526(10) 0.7679(11) -0.3607(5)
F8 F 0.3545(10) 0.5660(11) -0.3694(5)
F9 F 0.3049(11) 0.6471(19) -0.2947(5)
F10 F 0.8625(11) 1.0050(9) -0.2236(6)
F11 F 0.7269(13) 0.9813(9) -0.1554(5)
F12 F 0.8695(15) 0.9185(8) -0.1353(7)
O2B O 0.7672(6) 0.5063(4) -0.2611(2)
Co1A Co 0.52045(7) 0.11590(11) 0.12401(3)
loop_
_geom_bond_atom_site_label_1
_geom_bond_atom_site_label_2
_geom_bond_site_symmetry_1
_geom_bond_site_symmetry_2
Co1 O1 1_555 1_555
O1 N2 1_555 1_555
O2 N1 1_555 1_555
O3 Co1 1_555 1_555
O4 Co1 1_555 1_555
O5 Co1 1_555 1_555
O6 Co1 1_555 1_555
N1 C8 1_555 1_555
N2 C8 1_555 1_555
C1 H1 1_555 1_555
H2 C1 1_555 1_555
H3 C1 1_555 1_555
C2 C3 1_555 1_555
C3 H4 1_555 1_555
C4 C3 1_555 1_555
H5 C4 1_555 1_555
C5 C4 1_555 1_555
C6 C5 1_555 1_555
H6 C6 1_555 1_555
C7 C2 1_555 1_555
H7 C7 1_555 1_555
C8 C5 1_555 1_555
C9 N2 1_555 1_555
C10 C9 1_555 1_555
H8 C10 1_555 1_555
H9 C10 1_555 1_555
H10 C10 1_555 1_555
C11 C9 1_555 1_555
H11 C11 1_555 1_555
H12 C11 1_555 1_555
H13 C11 1_555 1_555
C12 N1 1_555 1_555
C13 C12 1_555 1_555
H14 C13 1_555 1_555
H15 C13 1_555 1_555
H16 C13 1_555 1_555
C14 C12 1_555 1_555
H17 C14 1_555 1_555
H18 C14 1_555 1_555
H19 C14 1_555 1_555
C15 O3 1_555 1_555
C16 C15 1_555 1_555
C17 C15 1_555 1_555
H20 C17 1_555 1_555
C18 O4 1_555 1_555
C19 C18 1_555 1_555
C20 O6 1_555 1_555
C21 C20 1_555 1_555
C22 C20 1_555 1_555
H21 C22 1_555 1_555
C23 O5 1_555 1_555
C24 C23 1_555 1_555
O7 C1 1_555 1_555
F1 C16 1_555 1_555
F2 C16 1_555 1_555
F3 C16 1_555 1_555
F4 C19 1_555 1_555
F5 C19 1_555 1_555
F6 C19 1_555 1_555
F7 C21 1_555 1_555
F8 C21 1_555 1_555
F9 C21 1_555 1_555
F10 C24 1_555 1_555
F11 C24 1_555 1_555
F12 C24 1_555 1_555
O2B Co1 1_555 1_555
Co1A O2 1_555 1_555
C2 O7 1_555 1_555
C6 C7 1_555 1_555
C9 C12 1_555 1_555
C17 C18 1_555 1_555
C22 C23 1_555 1_555

#END
