
#######################################################################
#
#                 Cambridge Crystallographic Data Centre
#                                CCDC 
#
#######################################################################
#
# If this CIF has been generated from an entry in the Cambridge 
# Structural Database, then it will include bibliographic, chemical, 
# crystal, experimental, refinement or atomic coordinate data resulting 
# from the CCDC's data processing and validation procedures.
#
#######################################################################

data_XASHAA
_symmetry_cell_setting           monoclinic
_symmetry_space_group_name_H-M   'C 2/c'
_symmetry_Int_Tables_number      15
_space_group_name_Hall           '-C 2yn'
loop_
_symmetry_equiv_pos_site_id
_symmetry_equiv_pos_as_xyz
1 x,y,z
2 1/2+x,1/2+y,z
3 x,-y,1/2+z
4 1/2+x,1/2-y,1/2+z
5 -x,-y,-z
6 1/2-x,1/2-y,-z
7 -x,y,1/2-z
8 1/2-x,1/2+y,1/2-z
_cell_length_a                   11.4582(17)
_cell_length_b                   16.087(2)
_cell_length_c                   25.536(4)
_cell_angle_alpha                90.00
_cell_angle_beta                 91.230(3)
_cell_angle_gamma                90.00
_cell_volume                     4705.92
loop_
_atom_site_label
_atom_site_type_symbol
_atom_site_fract_x
_atom_site_fract_y
_atom_site_fract_z
Cd1 Cd 0.84911(5) 0.21012(4) 0.72151(2)
O1 O 1.0000 0.2960(6) 0.7500
O2 O 0.8496(5) 0.2900(4) 0.6457(2)
O3 O 0.8261(5) 0.1191(4) 0.7890(2)
C1 C 0.7838(7) 0.0149(6) 0.8776(3)
H1 H 0.7436 -0.0020 0.8464
C2 C 0.9052(7) 0.1137(5) 0.8243(3)
C3 C 0.8711(6) 0.0739(5) 0.8755(3)
C4 C 0.9306(7) 0.0962(6) 0.9218(4)
H2 H 0.9930 0.1350 0.9204
C5 C 0.9007(7) 0.0634(6) 0.9691(3)
H3 H 0.9415 0.0808 1.0000
C6 C 0.8120(7) 0.0053(5) 0.9728(3)
O4 O 1.0147(7) 0.3624(5) 0.6596(3)
C7 C 0.9424(8) 0.3227(6) 0.6306(4)
C8 C 0.9021(8) 0.2697(6) 0.5390(4)
H4 H 0.8260 0.2543 0.5494
C9 C 0.9759(8) 0.3105(6) 0.5745(4)
C10 C 0.7545(7) -0.0203(6) 0.9262(4)
H5 H 0.6955 -0.0617 0.9276
O5 O 1.0089(5) 0.1349(4) 0.8207(3)
C11 C 0.9370(8) 0.2515(6) 0.4894(4)
H6 H 0.8842 0.2241 0.4660
C12 C 1.0837(8) 0.3356(7) 0.5577(4)
H7 H 1.1345 0.3655 0.5808
N1 N 0.7082(6) -0.1338(5) 1.1751(3)
C13 C 0.6733(7) -0.0475(6) 1.0389(3)
H8 H 0.6121 -0.0474 1.0132
C14 C 0.7279(7) -0.1129(6) 1.1257(3)
H9 H 0.8017 -0.1260 1.1116
C15 C 0.6458(7) -0.0725(5) 1.0937(4)
C16 C 0.5403(8) -0.0560(7) 1.1155(4)
H10 H 0.4813 -0.0286 1.0953
C17 C 0.7799(7) -0.0252(6) 1.0247(3)
H11 H 0.8406 -0.0295 1.0504
C18 C 0.6060(8) -0.1165(7) 1.1948(4)
H12 H 0.5924 -0.1309 1.2302
C19 C 0.5184(9) -0.0785(8) 1.1666(5)
H13 H 0.4447 -0.0680 1.1816
N2 N 1.2235(6) 0.1994(5) 0.2658(3)
C20 C 1.1727(8) 0.2190(6) 0.3114(4)
H14 H 1.1821 0.2742 0.3241
C21 C 1.1085(8) 0.1649(6) 0.3407(4)
C22 C 1.1535(8) 0.0625(6) 0.2763(4)
H15 H 1.1480 0.0075 0.2629
C23 C 1.0989(8) 0.0833(6) 0.3215(4)
H16 H 1.0550 0.0430 0.3399
C24 C 1.0949(8) 0.2503(7) 0.4206(4)
H17 H 1.1584 0.2822 0.4082
C25 C 1.2161(8) 0.1217(7) 0.2505(4)
H18 H 1.2563 0.1056 0.2199
C26 C 1.0542(9) 0.1888(7) 0.3897(4)
H19 H 0.9867 0.1594 0.4002
C27 C 1.0488(8) 0.2723(5) 0.4725(4)
C28 C 1.1185(9) 0.3173(7) 0.5071(4)
H20 H 1.1925 0.3363 0.4959
H21 H 1.009(6) 0.334(5) 0.721(3)
H21F H 0.991(6) 0.334(5) 0.779(3)
O3F O 1.1739(5) 0.1191(4) 0.7110(2)
C1F C 1.2162(7) 0.0149(6) 0.6224(3)
H1F H 1.2564 -0.0020 0.6536
C2F C 1.0948(7) 0.1137(5) 0.6757(3)
C3F C 1.1289(6) 0.0739(5) 0.6245(3)
C4F C 1.0694(7) 0.0962(6) 0.5782(4)
H2F H 1.0070 0.1350 0.5796
C5F C 1.0993(7) 0.0634(6) 0.5309(3)
H3F H 1.0585 0.0808 0.5000
C6F C 1.1880(7) 0.0053(5) 0.5272(3)
C10F C 1.2455(7) -0.0203(6) 0.5738(4)
H5F H 1.3045 -0.0617 0.5724
O5F O 0.9911(5) 0.1349(4) 0.6793(3)
N1F N 1.2918(6) -0.1338(5) 0.3249(3)
C13F C 1.3267(7) -0.0475(6) 0.4611(3)
H8F H 1.3879 -0.0474 0.4868
C14F C 1.2721(7) -0.1129(6) 0.3743(3)
H9F H 1.1983 -0.1260 0.3884
C15F C 1.3542(7) -0.0725(5) 0.4063(4)
C16F C 1.4597(8) -0.0560(7) 0.3845(4)
H10F H 1.5187 -0.0286 0.4047
C17F C 1.2201(7) -0.0252(6) 0.4753(3)
H11F H 1.1594 -0.0295 0.4496
C18F C 1.3940(8) -0.1165(7) 0.3052(4)
H12F H 1.4076 -0.1309 0.2698
C19F C 1.4816(9) -0.0785(8) 0.3334(5)
H13F H 1.5553 -0.0680 0.3184
O2C O 0.3496(5) 0.2100(4) 1.1457(2)
O4C O 0.5147(7) 0.1376(5) 1.1596(3)
C7C C 0.4424(8) 0.1773(6) 1.1306(4)
C8C C 0.4021(8) 0.2303(6) 1.0390(4)
H4C H 0.3260 0.2457 1.0494
C9C C 0.4759(8) 0.1895(6) 1.0745(4)
C11C C 0.4370(8) 0.2485(6) 0.9894(4)
H6C H 0.3842 0.2759 0.9660
C12C C 0.5837(8) 0.1644(7) 1.0577(4)
H7C H 0.6345 0.1345 1.0808
N2C N 0.7235(6) 0.3006(5) 0.7658(3)
C20C C 0.6727(8) 0.2810(6) 0.8114(4)
H14C H 0.6821 0.2258 0.8241
C21C C 0.6085(8) 0.3351(6) 0.8407(4)
C22C C 0.6535(8) 0.4375(6) 0.7763(4)
H15C H 0.6480 0.4925 0.7629
C23C C 0.5989(8) 0.4167(6) 0.8215(4)
H16C H 0.5550 0.4570 0.8399
C24C C 0.5949(8) 0.2497(7) 0.9206(4)
H17C H 0.6584 0.2178 0.9082
C25C C 0.7161(8) 0.3783(7) 0.7505(4)
H18C H 0.7563 0.3944 0.7199
C26C C 0.5542(9) 0.3112(7) 0.8897(4)
H19C H 0.4867 0.3406 0.9002
C27C C 0.5488(8) 0.2277(5) 0.9725(4)
C28C C 0.6185(9) 0.1827(7) 1.0071(4)
H20C H 0.6925 0.1637 0.9959
Cd1F Cd 1.15089(5) 0.21012(4) 0.77849(2)
N1B N 0.7082(6) 0.1338(5) 0.6751(3)
Cd1B Cd 0.84911(5) -0.21012(4) 1.22151(2)
Cd1C Cd 1.34911(5) 0.28988(4) 0.22151(2)
Cd1D Cd 1.15089(5) -0.21012(4) 0.27849(2)
Cd1C_2 Cd 0.34911(5) 0.28988(4) 1.22151(2)
O2F O 1.1504(5) 0.2900(4) 0.8543(2)
N1D N 1.2918(6) 0.1338(5) 0.8249(3)
N2E N 1.2765(6) 0.3006(5) 0.7342(3)
loop_
_geom_bond_atom_site_label_1
_geom_bond_atom_site_label_2
_geom_bond_site_symmetry_1
_geom_bond_site_symmetry_2
Cd1 O1 1_555 1_555
O1 H21 1_555 1_555
O2 Cd1 1_555 1_555
O3 Cd1 1_555 1_555
C1 H1 1_555 1_555
C2 O3 1_555 1_555
C3 C1 1_555 1_555
C4 C3 1_555 1_555
H2 C4 1_555 1_555
C5 C4 1_555 1_555
H3 C5 1_555 1_555
C6 C5 1_555 1_555
O4 C7 1_555 1_555
C7 O2 1_555 1_555
C8 H4 1_555 1_555
C9 C7 1_555 1_555
C10 C1 1_555 1_555
H5 C10 1_555 1_555
O5 C2 1_555 1_555
C11 C8 1_555 1_555
H6 C11 1_555 1_555
C12 C9 1_555 1_555
H7 C12 1_555 1_555
N1 C14 1_555 1_555
C13 H8 1_555 1_555
C14 H9 1_555 1_555
C15 C13 1_555 1_555
C16 C15 1_555 1_555
H10 C16 1_555 1_555
C17 C6 1_555 1_555
H11 C17 1_555 1_555
C18 N1 1_555 1_555
H12 C18 1_555 1_555
C19 C16 1_555 1_555
H13 C19 1_555 1_555
N2 C20 1_555 1_555
C20 H14 1_555 1_555
C21 C20 1_555 1_555
C22 H15 1_555 1_555
C23 C21 1_555 1_555
H16 C23 1_555 1_555
C24 H17 1_555 1_555
C25 N2 1_555 1_555
H18 C25 1_555 1_555
C26 C21 1_555 1_555
H19 C26 1_555 1_555
C27 C11 1_555 1_555
C28 C12 1_555 1_555
H20 C28 1_555 1_555
H21F O1 1_555 1_555
O3F C2F 1_555 1_555
C1F H1F 1_555 1_555
C2F C3F 1_555 1_555
C3F C1F 1_555 1_555
C4F C3F 1_555 1_555
H2F C4F 1_555 1_555
C5F C4F 1_555 1_555
H3F C5F 1_555 1_555
C6F C5F 1_555 1_555
C10F C1F 1_555 1_555
H5F C10F 1_555 1_555
O5F Cd1 1_555 1_555
N1F C14F 1_555 1_555
C13F H8F 1_555 1_555
C14F H9F 1_555 1_555
C15F C13F 1_555 1_555
C16F C15F 1_555 1_555
H10F C16F 1_555 1_555
C17F C6F 1_555 1_555
H11F C17F 1_555 1_555
C18F N1F 1_555 1_555
H12F C18F 1_555 1_555
C19F C16F 1_555 1_555
H13F C19F 1_555 1_555
O2C C7C 1_555 1_555
O4C C7C 1_555 1_555
C7C C9C 1_555 1_555
C8C H4C 1_555 1_555
C9C C8C 1_555 1_555
C11C C8C 1_555 1_555
H6C C11C 1_555 1_555
C12C C9C 1_555 1_555
H7C C12C 1_555 1_555
N2C Cd1 1_555 1_555
C20C N2C 1_555 1_555
H14C C20C 1_555 1_555
C21C C20C 1_555 1_555
C22C H15C 1_555 1_555
C23C C21C 1_555 1_555
H16C C23C 1_555 1_555
C24C H17C 1_555 1_555
C25C N2C 1_555 1_555
H18C C25C 1_555 1_555
C26C C21C 1_555 1_555
H19C C26C 1_555 1_555
C27C C11C 1_555 1_555
C28C C12C 1_555 1_555
H20C C28C 1_555 1_555
Cd1F O1 1_555 1_555
N1B Cd1 1_555 1_555
Cd1B N1 1_555 1_555
Cd1C N2 1_555 1_555
Cd1D N1F 1_555 1_555
Cd1C_2 O2C 1_555 1_555
O2F Cd1F 1_555 1_555
N1D Cd1F 1_555 1_555
N2E Cd1F 1_555 1_555
C2 C3 1_555 1_555
C6 C10 1_555 1_555
C8 C9 1_555 1_555
O5 Cd1F 1_555 1_555
C13 C17 1_555 1_555
C14 C15 1_555 1_555
C18 C19 1_555 1_555
C22 C25 1_555 1_555
C22 C23 1_555 1_555
C24 C27 1_555 1_555
C24 C26 1_555 1_555
C27 C28 1_555 1_555
O3F Cd1F 1_555 1_555
C2F O5F 1_555 1_555
C6F C10F 1_555 1_555
C13F C17F 1_555 1_555
C14F C15F 1_555 1_555
C18F C19F 1_555 1_555
C22C C25C 1_555 1_555
C22C C23C 1_555 1_555
C24C C27C 1_555 1_555
C24C C26C 1_555 1_555
C27C C28C 1_555 1_555

#END
