
#######################################################################
#
#                 Cambridge Crystallographic Data Centre
#                                CCDC 
#
#######################################################################
#
# If this CIF has been generated from an entry in the Cambridge 
# Structural Database, then it will include bibliographic, chemical, 
# crystal, experimental, refinement or atomic coordinate data resulting 
# from the CCDC's data processing and validation procedures.
#
#######################################################################

data_XASVET
_symmetry_cell_setting           monoclinic
_symmetry_space_group_name_H-M   'P 21'
_symmetry_Int_Tables_number      4
_space_group_name_Hall           'P 2yb'
loop_
_symmetry_equiv_pos_site_id
_symmetry_equiv_pos_as_xyz
1 x,y,z
2 -x,1/2+y,-z
_cell_length_a                   7.2963(14)
_cell_length_b                   6.1790(11)
_cell_length_c                   10.570(2)
_cell_angle_alpha                90
_cell_angle_beta                 99.942(4)
_cell_angle_gamma                90
_cell_volume                     469.38
loop_
_atom_site_label
_atom_site_type_symbol
_atom_site_fract_x
_atom_site_fract_y
_atom_site_fract_z
Tl1 Tl -1.64749(6) 0.08065(10) 0.05414(4)
Tl2 Tl -1.90309(6) -0.37478(9) -0.19835(4)
O1 O -1.6197(13) -0.0551(15) -0.1923(8)
O2 O -1.6455(12) 0.3038(15) -0.1909(10)
O3 O -1.2886(10) 0.1388(14) -0.0227(8)
O4 O -1.0310(11) -0.0406(15) -0.0536(8)
C1 C -1.4106(13) 0.1528(19) -0.2916(10)
C2 C -1.2304(14) 0.1124(18) -0.2351(11)
C3 C -1.0845(13) 0.125(2) -0.3084(11)
H1 H -0.9618 0.0988 -0.2706
C4 C -1.1295(19) 0.178(2) -0.4380(11)
H2 H -1.0350 0.1892 -0.4866
C5 C -1.312(2) 0.216(2) -0.4964(12)
H3 H -1.3411 0.2462 -0.5837
C6 C -1.4492(16) 0.206(2) -0.4218(11)
H4 H -1.5714 0.2360 -0.4595
C7 C -1.5683(13) 0.133(2) -0.2190(10)
C8 C -1.1817(12) 0.071(2) -0.0924(10)
Tl1A Tl -1.35251(6) 0.58065(10) -0.05414(4)
Tl1_2 Tl -0.64749(6) 0.08065(10) 0.05414(4)
Tl2_2 Tl -1.90309(6) 0.62522(9) -0.19835(4)
Tl2A Tl -1.09691(6) 0.12522(9) 0.19835(4)
Tl2_3 Tl -0.90309(6) -0.37478(9) -0.19835(4)
O2A O -1.3545(12) -0.1962(15) 0.1909(10)
O2_2 O -1.6455(12) -0.6962(15) -0.1909(10)
O3A O -1.7114(10) -0.3612(14) 0.0227(8)
O4_2 O -2.0310(11) -0.0406(15) -0.0536(8)
O4A O -1.9690(11) -0.5406(15) 0.0536(8)
loop_
_geom_bond_atom_site_label_1
_geom_bond_atom_site_label_2
_geom_bond_site_symmetry_1
_geom_bond_site_symmetry_2
Tl1 O1 1_555 1_555
Tl2 O1 1_555 1_555
O1 C7 1_555 1_555
O2 Tl1 1_555 1_555
O3 Tl1 1_555 1_555
O4 C8 1_555 1_555
C1 C2 1_555 1_555
C2 C3 1_555 1_555
C3 H1 1_555 1_555
C4 C3 1_555 1_555
H2 C4 1_555 1_555
C5 C4 1_555 1_555
H3 C5 1_555 1_555
C6 C1 1_555 1_555
H4 C6 1_555 1_555
C7 O2 1_555 1_555
C8 O3 1_555 1_555
Tl1A O2 1_555 1_555
Tl1_2 O4 1_555 1_555
Tl2_2 O2 1_555 1_555
Tl2A O3 1_555 1_555
Tl2_3 O4 1_555 1_555
O2A Tl1 1_555 1_555
O2_2 Tl2 1_555 1_555
O3A Tl1 1_555 1_555
O4_2 Tl1 1_555 1_555
O4A Tl2 1_555 1_555
Tl2 O3A 1_555 1_555
Tl2 O4_2 1_555 1_555
O3 Tl1A 1_555 1_555
O4 Tl2A 1_555 1_555
C1 C7 1_555 1_555
C2 C8 1_555 1_555
C5 C6 1_555 1_555
Tl2A O2A 1_555 1_555

#END
