
#######################################################################
#
#                 Cambridge Crystallographic Data Centre
#                                CCDC 
#
#######################################################################
#
# If this CIF has been generated from an entry in the Cambridge 
# Structural Database, then it will include bibliographic, chemical, 
# crystal, experimental, refinement or atomic coordinate data resulting 
# from the CCDC's data processing and validation procedures.
#
#######################################################################

data_XAVFEH
_symmetry_cell_setting           monoclinic
_symmetry_space_group_name_H-M   'C c'
_symmetry_Int_Tables_number      9
_space_group_name_Hall           'C -2yc'
loop_
_symmetry_equiv_pos_site_id
_symmetry_equiv_pos_as_xyz
1 x,y,z
2 x,-y,1/2+z
3 1/2+x,1/2+y,z
4 1/2+x,1/2-y,1/2+z
_cell_length_a                   19.806(28)
_cell_length_b                   7.366(5)
_cell_length_c                   7.055(9)
_cell_angle_alpha                90
_cell_angle_beta                 104.36(19)
_cell_angle_gamma                90
_cell_volume                     997.103
loop_
_atom_site_label
_atom_site_type_symbol
_atom_site_fract_x
_atom_site_fract_y
_atom_site_fract_z
Al1 Al -0.00128 0.0002 -0.0013
O1 O -0.0002 -0.1101 -0.2555
O2 O 0.22(7) 0.22(11) 0.19(21)
O3 O 0.29(7) 0.27(14) 0.25(20)
C1 C 0.07(8) 0.12(18) 0.06(23)
C2 C -0.07(8) 0.13(19) -0.14(24)
C3 C 0.19(12) 0.20(19) -0.01(28)
C4 C 0.22(9) 0.22(23) -0.14(28)
C5 C 0.29(9) 0.27(17) -0.09(26)
C6 C 0.32(11) 0.29(18) 0.11(30)
C7 C 0.11(11) 0.14(16) -0.07(27)
C8 C 0.08(10) -0.12(18) 0.25(30)
C9 C -0.10(10) 0.15(21) -0.33(25)
C10 C -0.07(9) -0.13(15) 0.04(21)
Al1A Al -0.00128 -0.0002 -0.5013
O1A O -0.0002 0.1101 0.2445
C6C C -0.18(11) 0.21(18) -0.39(30)
C7A C 0.11(11) -0.14(16) 0.43(27)
C8A C 0.08(10) 0.12(18) -0.25(30)
C9C C 0.40(10) 0.35(21) 0.17(25)
C9A C -0.10(10) -0.15(21) 0.17(25)
C10A C -0.07(9) 0.13(15) -0.46(21)
C11 C 0.52(12) 0.00(19) -0.05(19)
C12 C 0.55(12) 0.00(28) -0.21(19)
C13 C 0.57(9) 0.00(29) 0.13(19)
C14 C 0.45(10) 0.00(29) -0.07(19)
C15 C 0.48(9) 0.00(23) -0.22(19)
C16 C 0.43(11) 0.00(17) 0.10(19)
C17 C 0.33(9) 0.00(14) 0.27(19)
C18 C 0.36(11) 0.00(16) 0.09(19)
C12A C 0.55(12) 0.00(28) 0.29(19)
C13A C 0.57(9) 0.00(29) -0.37(19)
C15A C 0.48(9) 0.00(23) 0.28(19)
C16A C 0.43(11) 0.00(17) -0.40(19)
loop_
_geom_bond_atom_site_label_1
_geom_bond_atom_site_label_2
_geom_bond_site_symmetry_1
_geom_bond_site_symmetry_2
Al1 O1 1_555 1_555
O1 Al1A 1_555 1_555
O2 O3 1_555 1_555
O3 C6 1_555 1_555
C1 Al1 1_555 1_555
C2 Al1 1_555 1_555
C3 O2 1_555 1_555
C4 C3 1_555 1_555
C5 C4 1_555 1_555
C6 C5 1_555 1_555
C7 C1 1_555 1_555
C8 Al1 1_555 1_555
C9 C2 1_555 1_555
C10 Al1 1_555 1_555
C11 C12 1_555 1_555
C12 C15 1_555 1_555
C13 C11 1_555 1_555
C14 C11 1_555 1_555
C15 C11 1_555 1_555
C16 C14 1_555 1_555
C17 C18 1_555 1_555
C18 C16 1_555 1_555
Al1A C8A 1_555 1_555
O1A Al1 1_555 1_555
C6C C9 1_555 1_555
C7A C8 1_555 1_555
C8A C7 1_555 1_555
C9C C6 1_555 1_555
C9A C10 1_555 1_555
C10A C9 1_555 1_555
C12A C13 1_555 1_555
C13A C12 1_555 1_555
C15A C16 1_555 1_555
C16A C15 1_555 1_555
C3 C7 1_555 1_555
C14 C15 1_555 1_555
Al1A C10A 1_555 1_555
C12A C15A 1_555 1_555

#END
