
#######################################################################
#
#                 Cambridge Crystallographic Data Centre
#                                CCDC 
#
#######################################################################
#
# If this CIF has been generated from an entry in the Cambridge 
# Structural Database, then it will include bibliographic, chemical, 
# crystal, experimental, refinement or atomic coordinate data resulting 
# from the CCDC's data processing and validation procedures.
#
#######################################################################

data_XAVKEL
_symmetry_cell_setting           monoclinic
_symmetry_space_group_name_H-M   'P 21/n'
_symmetry_Int_Tables_number      14
_space_group_name_Hall           '-P 2yn'
loop_
_symmetry_equiv_pos_site_id
_symmetry_equiv_pos_as_xyz
1 x,y,z
2 1/2-x,1/2+y,1/2-z
3 -x,-y,-z
4 1/2+x,1/2-y,1/2+z
_cell_length_a                   17.319(2)
_cell_length_b                   7.2711(7)
_cell_length_c                   17.8495(18)
_cell_angle_alpha                90
_cell_angle_beta                 115.002(3)
_cell_angle_gamma                90
_cell_volume                     2037.12
loop_
_atom_site_label
_atom_site_type_symbol
_atom_site_fract_x
_atom_site_fract_y
_atom_site_fract_z
Co1 Co 0.38836(3) 0.61572(6) 0.63020(3)
N1 N 0.42478(19) 1.1337(4) 0.55315(18)
H1 H 0.4023 1.2336 0.5274
N2 N 0.43354(17) 0.8542(4) 0.60434(16)
N3 N 0.22068(19) 0.7160(5) 0.7406(2)
H2 H 0.1700 0.7311 0.7370
N4 N 0.32509(18) 0.6723(4) 0.70136(17)
O1 O 0.33212(14) 0.4601(3) 0.52735(14)
O2 O 0.24824(16) 0.6933(4) 0.51220(16)
O3 O -0.00313(14) 0.0102(3) 0.20339(13)
O4 O -0.09195(14) 0.2193(4) 0.21237(14)
C1 C 0.2618(2) 0.5412(5) 0.4894(2)
C2 C 0.1917(2) 0.4450(5) 0.41883(19)
C3 C 0.2028(2) 0.2706(5) 0.3934(2)
H3 H 0.2560 0.2145 0.4175
C4 C 0.1353(2) 0.1794(5) 0.3325(2)
H4 H 0.1440 0.0634 0.3155
C5 C 0.0556(2) 0.2577(5) 0.29686(19)
C6 C 0.0450(2) 0.4338(5) 0.3215(2)
H5 H -0.0081 0.4902 0.2971
C7 C 0.1121(2) 0.5253(5) 0.3817(2)
H6 H 0.1038 0.6428 0.3975
C8 C -0.0188(2) 0.1566(5) 0.23302(19)
C9 C 0.3833(2) 0.9888(5) 0.5628(2)
H7 H 0.3242 0.9833 0.5421
C10 C 0.5954(2) 0.8387(6) 0.6702(2)
H8 H 0.6004 0.7213 0.6925
C11 C 0.6662(3) 0.9416(7) 0.6814(3)
H9 H 0.7199 0.8923 0.7122
C12 C 0.6599(3) 1.1179(6) 0.6478(3)
H10 H 0.7094 1.1823 0.6565
C13 C 0.5821(3) 1.1977(6) 0.6022(2)
H11 H 0.5775 1.3145 0.5794
C14 C 0.5105(2) 1.0947(5) 0.5920(2)
C15 C 0.5157(2) 0.9182(5) 0.6239(2)
C16 C 0.2424(2) 0.6977(6) 0.6778(3)
H12 H 0.2033 0.7023 0.6226
C17 C 0.4436(2) 0.6624(5) 0.8463(2)
H13 H 0.4881 0.6435 0.8311
C18 C 0.4576(3) 0.6769(7) 0.9278(3)
H14 H 0.5131 0.6677 0.9685
C19 C 0.3917(3) 0.7048(7) 0.9515(3)
H15 H 0.4044 0.7134 1.0075
C20 C 0.3087(3) 0.7201(6) 0.8949(3)
H16 H 0.2645 0.7387 0.9107
C21 C 0.2943(2) 0.7063(5) 0.8123(2)
C22 C 0.3596(2) 0.6774(5) 0.7875(2)
Co1C Co -0.11164(3) -0.11572(6) 0.13020(3)
O3C O 0.49687(14) 0.4898(3) 0.70339(13)
loop_
_geom_bond_atom_site_label_1
_geom_bond_atom_site_label_2
_geom_bond_site_symmetry_1
_geom_bond_site_symmetry_2
Co1 N2 1_555 1_555
N1 H1 1_555 1_555
N2 C9 1_555 1_555
N3 H2 1_555 1_555
N4 Co1 1_555 1_555
O1 Co1 1_555 1_555
O2 Co1 1_555 1_555
O3 C8 1_555 1_555
O4 C8 1_555 1_555
C1 O1 1_555 1_555
C2 C1 1_555 1_555
C3 C2 1_555 1_555
H3 C3 1_555 1_555
C4 C3 1_555 1_555
H4 C4 1_555 1_555
C5 C4 1_555 1_555
C6 C5 1_555 1_555
H5 C6 1_555 1_555
C7 C2 1_555 1_555
H6 C7 1_555 1_555
C8 C5 1_555 1_555
C9 N1 1_555 1_555
H7 C9 1_555 1_555
C10 H8 1_555 1_555
C11 C10 1_555 1_555
H9 C11 1_555 1_555
C12 C11 1_555 1_555
H10 C12 1_555 1_555
C13 C12 1_555 1_555
H11 C13 1_555 1_555
C14 N1 1_555 1_555
C15 N2 1_555 1_555
C16 N3 1_555 1_555
H12 C16 1_555 1_555
C17 H13 1_555 1_555
C18 C17 1_555 1_555
H14 C18 1_555 1_555
C19 C18 1_555 1_555
H15 C19 1_555 1_555
C20 C19 1_555 1_555
H16 C20 1_555 1_555
C21 N3 1_555 1_555
C22 N4 1_555 1_555
Co1C O3 1_555 1_555
O3C Co1 1_555 1_555
N4 C16 1_555 1_555
O2 C1 1_555 1_555
C6 C7 1_555 1_555
C10 C15 1_555 1_555
C13 C14 1_555 1_555
C14 C15 1_555 1_555
C17 C22 1_555 1_555
C20 C21 1_555 1_555
C21 C22 1_555 1_555

#END
