
#######################################################################
#
#                 Cambridge Crystallographic Data Centre
#                                CCDC 
#
#######################################################################
#
# If this CIF has been generated from an entry in the Cambridge 
# Structural Database, then it will include bibliographic, chemical, 
# crystal, experimental, refinement or atomic coordinate data resulting 
# from the CCDC's data processing and validation procedures.
#
#######################################################################

data_XAVQIU01
_symmetry_cell_setting           monoclinic
_symmetry_space_group_name_H-M   'P 21/c'
_symmetry_Int_Tables_number      14
_space_group_name_Hall           '-P 2ybc'
loop_
_symmetry_equiv_pos_site_id
_symmetry_equiv_pos_as_xyz
1 x,y,z
2 -x,1/2+y,1/2-z
3 -x,-y,-z
4 x,1/2-y,1/2+z
_cell_length_a                   10.107(2)
_cell_length_b                   10.258(2)
_cell_length_c                   16.276(3)
_cell_angle_alpha                90
_cell_angle_beta                 95.38(3)
_cell_angle_gamma                90
_cell_volume                     1680.02
loop_
_atom_site_label
_atom_site_type_symbol
_atom_site_fract_x
_atom_site_fract_y
_atom_site_fract_z
C1 C -0.0642(5) 0.2202(5) 0.1103(3)
C2 C -0.1703(5) 0.2830(5) 0.1559(3)
C3 C -0.1389(5) 0.3520(5) 0.2284(3)
H1 H -0.0506 0.3593 0.2497
C4 C -0.2377(5) 0.4103(5) 0.2696(3)
C5 C -0.3702(5) 0.4015(5) 0.2370(3)
H2 H -0.4364 0.4432 0.2632
C6 C -0.4030(5) 0.3300(5) 0.1653(3)
C7 C -0.3028(5) 0.2722(5) 0.1253(3)
H3 H -0.3248 0.2253 0.0771
C8 C -0.2011(5) 0.4839(5) 0.3479(3)
C9 C -0.5454(5) 0.3124(5) 0.1324(3)
C10 C -0.3343(7) 1.1208(7) 0.4189(5)
H4 H -0.3667 1.0668 0.3732
H5 H -0.3287 1.2095 0.4007
H6 H -0.3940 1.1156 0.4613
C11 C -0.0964(9) 1.0726(8) 0.3660(6)
H7 H -0.0073 1.0400 0.3754
H8 H -0.0944 1.1612 0.3471
H9 H -0.1456 1.0201 0.3249
C12 C -0.2552(10) -0.2801(8) 0.1487(5)
H10 H -0.3046 -0.3267 0.1048
H11 H -0.3083 -0.2711 0.1943
H12 H -0.1755 -0.3274 0.1662
C13 C -0.3769(7) -0.0655(8) 0.0846(5)
H13 H -0.3729 0.0123 0.0522
H14 H -0.4199 -0.0466 0.1334
H15 H -0.4264 -0.1311 0.0528
Co1 Co -0.22700(7) 0.74604(7) 0.42237(4)
Co2 Co 0.0000 0.0000 0.0000
O1 O 0.0532(4) 0.2534(4) 0.1311(2)
O2 O -0.1032(4) 0.1392(4) 0.0555(2)
O3 O -0.0940(4) 0.4498(4) 0.3879(2)
O4 O -0.2795(4) 0.5714(4) 0.3667(3)
O5 O -0.6371(4) 0.3386(4) 0.1765(2)
O6 O -0.5695(4) 0.2677(4) 0.0604(2)
O7 O -0.1843(5) 0.9250(4) 0.4812(3)
O8 O -0.1526(4) -0.1458(4) 0.0317(2)
S1 S -0.17367(19) 1.06609(16) 0.45885(12)
S2 S -0.21280(16) -0.12313(17) 0.11325(9)
C1B C 0.0642(5) -0.2202(5) -0.1103(3)
C2B C 0.1703(5) -0.2830(5) -0.1559(3)
C3B C 0.1389(5) -0.3520(5) -0.2284(3)
H1B H 0.0506 -0.3593 -0.2497
C4B C 0.2377(5) -0.4103(5) -0.2696(3)
C5B C 0.3702(5) -0.4015(5) -0.2370(3)
H2B H 0.4364 -0.4432 -0.2632
C6B C 0.4030(5) -0.3300(5) -0.1653(3)
C7B C 0.3028(5) -0.2722(5) -0.1253(3)
H3B H 0.3248 -0.2253 -0.0771
C8B C 0.2011(5) -0.4839(5) -0.3479(3)
C9B C 0.5454(5) -0.3124(5) -0.1324(3)
C10B C 0.3343(7) -1.1208(7) -0.4189(5)
H4B H 0.3667 -1.0668 -0.3732
H5B H 0.3287 -1.2095 -0.4007
H6B H 0.3940 -1.1156 -0.4613
C11B C 0.0964(9) -1.0726(8) -0.3660(6)
H7B H 0.0073 -1.0400 -0.3754
H8B H 0.0944 -1.1612 -0.3471
H9B H 0.1456 -1.0201 -0.3249
C12B C 0.2552(10) 0.2801(8) -0.1487(5)
H10B H 0.3046 0.3267 -0.1048
H11B H 0.3083 0.2711 -0.1943
H12B H 0.1755 0.3274 -0.1662
C13B C 0.3769(7) 0.0655(8) -0.0846(5)
H13B H 0.3729 -0.0123 -0.0522
H14B H 0.4199 0.0466 -0.1334
H15B H 0.4264 0.1311 -0.0528
Co1C Co -0.22700(7) -0.24604(7) -0.07763(4)
Co1A Co 0.22700(7) 0.24604(7) 0.07763(4)
Co1A_2 Co -0.77300(7) 0.24604(7) 0.07763(4)
Co1B Co 0.22700(7) -0.74604(7) -0.42237(4)
Co1C_2 Co 0.77300(7) -0.24604(7) -0.07763(4)
Co2C Co 0.0000 0.5000 0.5000
Co2C_2 Co 0.0000 -0.5000 -0.5000
O1B O -0.0532(4) -0.2534(4) -0.1311(2)
O1A O -0.0532(4) 0.7534(4) 0.3689(2)
O1C O 0.0532(4) -0.7534(4) -0.3689(2)
O2B O 0.1032(4) -0.1392(4) -0.0555(2)
O3B O 0.0940(4) -0.4498(4) -0.3879(2)
O3C O -0.0940(4) 0.0502(4) -0.1121(2)
O3A O 0.0940(4) -0.0502(4) 0.1121(2)
O4B O 0.2795(4) -0.5714(4) -0.3667(3)
O5B O 0.6371(4) -0.3386(4) -0.1765(2)
O5A O -0.3629(4) 0.8386(4) 0.3235(2)
O5C O 0.3629(4) -0.8386(4) -0.3235(2)
O6B O 0.5695(4) -0.2677(4) -0.0604(2)
O6A O -0.4305(4) 0.7677(4) 0.4396(2)
O6C O 0.4305(4) -0.7677(4) -0.4396(2)
O7B O 0.1843(5) -0.9250(4) -0.4812(3)
O8B O 0.1526(4) 0.1458(4) -0.0317(2)
O8C O -0.1526(4) 0.6458(4) 0.5317(2)
O8A O 0.1526(4) -0.6458(4) -0.5317(2)
S1B S 0.17367(19) -1.06609(16) -0.45885(12)
S2B S 0.21280(16) 0.12313(17) -0.11325(9)
loop_
_geom_bond_atom_site_label_1
_geom_bond_atom_site_label_2
_geom_bond_site_symmetry_1
_geom_bond_site_symmetry_2
C1 C2 1_555 1_555
C2 C3 1_555 1_555
C3 H1 1_555 1_555
C4 C3 1_555 1_555
C5 C4 1_555 1_555
H2 C5 1_555 1_555
C6 C5 1_555 1_555
C7 C2 1_555 1_555
H3 C7 1_555 1_555
C8 C4 1_555 1_555
C9 C6 1_555 1_555
C10 H4 1_555 1_555
H5 C10 1_555 1_555
H6 C10 1_555 1_555
C11 H7 1_555 1_555
H8 C11 1_555 1_555
H9 C11 1_555 1_555
C12 H10 1_555 1_555
H11 C12 1_555 1_555
H12 C12 1_555 1_555
C13 H13 1_555 1_555
H14 C13 1_555 1_555
H15 C13 1_555 1_555
Co1 O4 1_555 1_555
Co2 O2 1_555 1_555
O1 C1 1_555 1_555
O2 C1 1_555 1_555
O3 C8 1_555 1_555
O4 C8 1_555 1_555
O5 C9 1_555 1_555
O6 C9 1_555 1_555
O7 Co1 1_555 1_555
O8 Co2 1_555 1_555
S1 C10 1_555 1_555
S2 C12 1_555 1_555
C1B C2B 1_555 1_555
C2B C3B 1_555 1_555
C3B H1B 1_555 1_555
C4B C3B 1_555 1_555
C5B C4B 1_555 1_555
H2B C5B 1_555 1_555
C6B C5B 1_555 1_555
C7B C2B 1_555 1_555
H3B C7B 1_555 1_555
C8B C4B 1_555 1_555
C9B C6B 1_555 1_555
C10B H4B 1_555 1_555
H5B C10B 1_555 1_555
H6B C10B 1_555 1_555
C11B H7B 1_555 1_555
H8B C11B 1_555 1_555
H9B C11B 1_555 1_555
C12B H10B 1_555 1_555
H11B C12B 1_555 1_555
H12B C12B 1_555 1_555
C13B H13B 1_555 1_555
H14B C13B 1_555 1_555
H15B C13B 1_555 1_555
Co1C O8 1_555 1_555
Co1A O1 1_555 1_555
Co1A_2 O5 1_555 1_555
Co1B O1C 1_555 1_555
Co1C_2 O5B 1_555 1_555
Co2C O3 1_555 1_555
Co2C_2 O3B 1_555 1_555
O1B C1B 1_555 1_555
O1A Co1 1_555 1_555
O2B Co2 1_555 1_555
O3B C8B 1_555 1_555
O3C Co2 1_555 1_555
O3A Co2 1_555 1_555
O4B C8B 1_555 1_555
O5B C9B 1_555 1_555
O5A Co1 1_555 1_555
O5C Co1B 1_555 1_555
O6B C9B 1_555 1_555
O6A Co1 1_555 1_555
O6C Co1B 1_555 1_555
O7B Co1B 1_555 1_555
O8B Co2 1_555 1_555
O8C Co1 1_555 1_555
O8A Co1B 1_555 1_555
S1B C10B 1_555 1_555
S2B C12B 1_555 1_555
C6 C7 1_555 1_555
C11 S1 1_555 1_555
C13 S2 1_555 1_555
O6 Co1A_2 1_555 1_555
O7 S1 1_555 1_555
O8 S2 1_555 1_555
C1B O2B 1_555 1_555
C6B C7B 1_555 1_555
C11B S1B 1_555 1_555
C13B S2B 1_555 1_555
Co1C O1B 1_555 1_555
Co1A O8B 1_555 1_555
Co1B O4B 1_555 1_555
Co1C_2 O6B 1_555 1_555
Co2C O8C 1_555 1_555
Co2C_2 O8A 1_555 1_555
O7B S1B 1_555 1_555
O8B S2B 1_555 1_555

#END
