
#######################################################################
#
#                 Cambridge Crystallographic Data Centre
#                                CCDC 
#
#######################################################################
#
# If this CIF has been generated from an entry in the Cambridge 
# Structural Database, then it will include bibliographic, chemical, 
# crystal, experimental, refinement or atomic coordinate data resulting 
# from the CCDC's data processing and validation procedures.
#
#######################################################################

data_XAVRER
_symmetry_cell_setting           orthorhombic
_symmetry_space_group_name_H-M   'I b c a'
_symmetry_Int_Tables_number      73
_space_group_name_Hall           '-I 2b 2c'
loop_
_symmetry_equiv_pos_site_id
_symmetry_equiv_pos_as_xyz
1 x,y,z
2 1/2+x,1/2+y,1/2+z
3 -x,1/2+y,1/2-z
4 -x,1/2-y,z
5 x,-y,1/2-z
6 1/2-x,-y,1/2+z
7 1/2+x,1/2-y,-z
8 1/2-x,y,-z
9 -x,-y,-z
10 1/2-x,1/2-y,1/2-z
11 x,1/2-y,1/2+z
12 x,1/2+y,-z
13 -x,y,1/2+z
14 1/2+x,y,1/2-z
15 1/2-x,1/2+y,z
16 1/2+x,-y,z
_cell_length_a                   12.428(3)
_cell_length_b                   13.618(5)
_cell_length_c                   32.299(6)
_cell_angle_alpha                90
_cell_angle_beta                 90
_cell_angle_gamma                90
_cell_volume                     5466.43
loop_
_atom_site_label
_atom_site_type_symbol
_atom_site_fract_x
_atom_site_fract_y
_atom_site_fract_z
C1 C 0.4153(3) 0.2012(3) 0.20196(11)
C2 C 0.3281(4) 0.1597(3) 0.22499(13)
C3 C 0.4104(4) 0.1838(3) 0.15877(13)
C4 C 0.5000 0.2500 0.22099(15)
C5 C 0.5000 0.2500 0.26580(16)
C6 C -0.0942(3) -0.1283(3) 0.43987(11)
C7 C -0.0251(3) -0.1251(3) 0.47508(11)
C8 C -0.1996(4) -0.1660(3) 0.44686(12)
C9 C -0.0635(3) -0.0976(3) 0.40038(11)
C10 C -0.1486(3) -0.1007(4) 0.36969(13)
C11 C 0.0358(3) -0.0649(3) 0.38677(12)
C12 C 0.0490(3) -0.0324(3) 0.34494(13)
C13 C 0.1310(3) -0.0653(3) 0.41176(14)
N1 N 0.2565(4) 0.1250(4) 0.24099(13)
N2 N 0.4063(4) 0.1645(3) 0.12436(11)
N3 N 0.5000 0.2500 0.30123(15)
N4 N 0.0267(3) -0.1227(3) 0.50400(10)
N5 N -0.2832(4) -0.1968(3) 0.45176(12)
N6 N -0.2159(4) -0.1048(4) 0.34616(13)
N7 N 0.0597(3) -0.0071(3) 0.31179(11)
N8 N 0.2082(3) -0.0663(3) 0.43013(12)
Ag1 Ag 0.13507(4) 0.0000 0.2500
Ag2 Ag 0.37297(3) 0.15132(3) 0.057118(10)
C1C C 0.5847(3) 0.2988(3) 0.20196(11)
Ag2E Ag 0.12703(3) -0.15132(3) 0.557118(10)
Ag2B Ag -0.37297(3) -0.34868(3) 0.442882(10)
Ag2D Ag 0.37297(3) -0.15132(3) 0.442882(10)
N1D N 0.2565(4) -0.1250(4) 0.25901(13)
N7D N 0.0597(3) 0.0071(3) 0.18821(11)
N4E N 0.4733(3) 0.1227(3) 0.00400(10)
N5B N 0.2832(4) 0.3032(3) 0.04824(12)
N8D N 0.2082(3) 0.0663(3) 0.06987(12)
C2C C 0.6719(4) 0.3403(3) 0.22499(13)
C3C C 0.5896(4) 0.3162(3) 0.15877(13)
N1C N 0.7435(4) 0.3750(4) 0.24099(13)
N2C N 0.5937(4) 0.3355(3) 0.12436(11)
Ag1B Ag 0.86493(4) 0.5000 0.2500
Ag2C Ag 0.62703(3) 0.34868(3) 0.057118(10)
loop_
_geom_bond_atom_site_label_1
_geom_bond_atom_site_label_2
_geom_bond_site_symmetry_1
_geom_bond_site_symmetry_2
C1 C2 1_555 1_555
C2 N1 1_555 1_555
C3 C1 1_555 1_555
C4 C1 1_555 1_555
C5 C4 1_555 1_555
C6 C7 1_555 1_555
C7 N4 1_555 1_555
C8 C6 1_555 1_555
C9 C6 1_555 1_555
C10 C9 1_555 1_555
C11 C9 1_555 1_555
C12 C11 1_555 1_555
C13 C11 1_555 1_555
N1 Ag1 1_555 1_555
N2 C3 1_555 1_555
N3 C5 1_555 1_555
N4 Ag2E 1_555 1_555
N5 C8 1_555 1_555
N6 C10 1_555 1_555
N7 C12 1_555 1_555
N8 C13 1_555 1_555
Ag1 N7 1_555 1_555
Ag2 N2 1_555 1_555
C1C C4 1_555 1_555
Ag2B N5 1_555 1_555
Ag2D N8 1_555 1_555
N1D Ag1 1_555 1_555
N7D Ag1 1_555 1_555
N4E Ag2 1_555 1_555
N5B Ag2 1_555 1_555
N8D Ag2 1_555 1_555
C2C C1C 1_555 1_555
C3C C1C 1_555 1_555
N1C C2C 1_555 1_555
N2C C3C 1_555 1_555
Ag1B N1C 1_555 1_555
Ag2C N2C 1_555 1_555

#END
