
#######################################################################
#
#                 Cambridge Crystallographic Data Centre
#                                CCDC 
#
#######################################################################
#
# If this CIF has been generated from an entry in the Cambridge 
# Structural Database, then it will include bibliographic, chemical, 
# crystal, experimental, refinement or atomic coordinate data resulting 
# from the CCDC's data processing and validation procedures.
#
#######################################################################

data_XAVSAP
_symmetry_cell_setting           orthorhombic
_symmetry_space_group_name_H-M   'P n a 21'
_symmetry_Int_Tables_number      33
_space_group_name_Hall           'P 2c -2n'
loop_
_symmetry_equiv_pos_site_id
_symmetry_equiv_pos_as_xyz
1 x,y,z
2 -x,-y,1/2+z
3 1/2+x,1/2-y,z
4 1/2-x,1/2+y,1/2+z
_cell_length_a                   22.635(5)
_cell_length_b                   17.286(4)
_cell_length_c                   10.058(2)
_cell_angle_alpha                90
_cell_angle_beta                 90
_cell_angle_gamma                90
_cell_volume                     3935.38
loop_
_atom_site_label
_atom_site_type_symbol
_atom_site_fract_x
_atom_site_fract_y
_atom_site_fract_z
Ni1 Ni 0.091362(15) 0.75657(2) -0.56031(5)
Ni2 Ni 0.131860(15) 0.75623(2) -1.05405(5)
Ni3 Ni -0.198710(17) 0.50518(2) -0.81418(7)
C1 C 0.06073(14) 0.60758(17) -0.8972(3)
C2 C 0.00280(14) 0.59512(18) -0.8548(3)
H1 H -0.0115 0.6222 -0.7816
C3 C -0.03382(14) 0.54325(19) -0.9197(3)
C4 C -0.01190(16) 0.4999(2) -1.0245(3)
H2 H -0.0357 0.4637 -1.0670
C5 C 0.04595(15) 0.51124(18) -1.0651(4)
H3 H 0.0613 0.4804 -1.1325
C6 C 0.08171(14) 0.56771(19) -1.0074(3)
C7 C 0.09586(12) 0.66608(16) -0.8141(3)
C8 C 0.13758(14) 0.58145(19) -1.0886(3)
C9 C -0.09697(14) 0.53305(19) -0.8782(3)
C10 C 0.07127(14) 0.93203(18) -0.1025(3)
C11 C 0.04983(14) 0.89552(17) -0.2164(3)
C12 C -0.00970(14) 0.90342(18) -0.2488(3)
H4 H -0.0245 0.8783 -0.3235
C13 C -0.04730(14) 0.94834(19) -0.1713(3)
C14 C -0.02447(15) 0.98718(19) -0.0606(4)
H5 H -0.0490 1.0186 -0.0097
C15 C 0.03471(17) 0.9789(2) -0.0266(3)
H6 H 0.0498 1.0047 0.0471
C16 C -0.11227(15) 0.9559(2) -0.2022(4)
C17 C 0.13367(13) 0.92288(17) -0.0531(4)
C18 C 0.08889(12) 0.84384(17) -0.2986(3)
C19 C 0.21600(15) 0.8135(2) -0.5257(4)
H7 H 0.1965 0.8592 -0.5047
C20 C 0.21268(15) 0.6860(2) -0.5820(4)
H8 H 0.1908 0.6416 -0.5998
C21 C 0.27670(16) 0.8135(2) -0.5248(4)
H9 H 0.2972 0.8585 -0.5038
C22 C 0.30752(12) 0.74609(19) -0.5553(5)
C23 C 0.27318(16) 0.6808(2) -0.5847(4)
H10 H 0.2913 0.6341 -0.6060
C24 C 0.46717(16) 0.8044(2) -0.5251(4)
H11 H 0.4882 0.8480 -0.4985
C25 C 0.40653(16) 0.8076(2) -0.5218(5)
H12 H 0.3877 0.8528 -0.4951
C26 C 0.37332(13) 0.74343(18) -0.5583(7)
C27 C 0.46575(15) 0.6808(2) -0.5977(4)
H13 H 0.4856 0.6365 -0.6247
C28 C 0.25560(19) 0.7725(3) -1.1622(4)
H14 H 0.2354 0.7816 -1.2411
C29 C 0.31658(19) 0.7727(3) -1.1658(4)
H15 H 0.3361 0.7824 -1.2454
C30 C 0.2549(2) 0.7512(3) -0.9417(5)
H16 H 0.2341 0.7445 -0.8629
C31 C 0.50588(15) 0.7109(2) -0.9610(3)
H17 H 0.5256 0.6821 -0.8968
C32 C 0.50801(14) 0.7915(2) -1.1413(3)
H18 H 0.5294 0.8191 -1.2046
C33 C 0.44719(15) 0.7965(2) -1.1436(3)
H19 H 0.4285 0.8269 -1.2073
C34 C 0.41381(13) 0.75601(18) -1.0508(6)
C35 C 0.34838(13) 0.75870(18) -1.0521(6)
C36 C 0.3161(2) 0.7510(3) -0.9368(5)
H20 H 0.3353 0.7458 -0.8556
C37 C 0.44452(16) 0.7126(2) -0.9583(3)
H21 H 0.4241 0.6845 -0.8942
C38 C 0.40471(15) 0.6789(2) -0.5947(4)
H22 H 0.3848 0.6337 -0.6175
N1 N 0.18350(10) 0.75118(16) -0.5554(5)
N2 N 0.49769(11) 0.74226(14) -0.5642(4)
N3 N 0.22450(10) 0.76042(14) -1.0545(4)
N4 N 0.53791(10) 0.74902(15) -1.0523(5)
O1 O 0.14667(10) 0.64776(13) -1.1349(2)
O2 O -0.12456(10) 0.58685(13) -0.8229(3)
O3 O -0.12064(11) 0.46743(14) -0.8968(3)
O4 O 0.17101(12) 0.96948(18) -0.0938(3)
O5 O 0.14231(11) 0.86920(14) 0.0315(2)
O6 O -0.13444(11) 0.91041(18) -0.2846(3)
O7 O -0.13996(11) 1.00921(16) -0.1415(3)
O8 O 0.12690(10) 0.80123(13) -0.2424(2)
O9 O 0.08106(11) 0.84585(14) -0.4230(2)
O10 O 0.08425(11) 0.66502(14) -0.6914(2)
O11 O 0.08982(11) 0.67795(15) -0.4057(2)
H23 H 0.0939 0.6286 -0.3909
H24 H 0.1115 0.6943 -0.3505
O12 O 0.09385(11) 0.84495(15) -0.6997(2)
H25 H 0.1123 0.8374 -0.7905
H26 H 0.1048 0.8820 -0.6688
O13 O 0.16753(11) 0.52215(15) -1.1199(3)
O14 O -0.24703(10) 0.40614(14) -0.8087(3)
H27 H -0.2391 0.3861 -0.7479
H28 H -0.2812 0.4124 -0.7956
O15 O -0.26775(11) 0.57104(16) -0.7575(3)
H29 H -0.2929 0.5998 -0.8330
H30 H -0.2977 0.5416 -0.7141
O16 O -0.22072(13) 0.5351(2) -1.0028(3)
H31 H -0.1929 0.5339 -1.0647
H32 H -0.2548 0.5188 -1.0171
O17 O 0.13181(10) 0.71208(14) -0.8671(2)
Ni1B Ni 0.591362(15) 0.74343(2) -0.56031(5)
Ni2B Ni 0.631860(15) 0.74377(2) -1.05405(5)
Ni2_2 Ni 0.131860(15) 0.75623(2) -0.05405(5)
Ni3A Ni 0.198710(17) 0.49482(2) -1.31418(7)
N2B N -0.00231(11) 0.75774(14) -0.5642(4)
N4B N 0.03791(10) 0.75098(15) -1.0523(5)
O5_2 O 0.14231(11) 0.86920(14) -0.9685(2)
O8_2 O 0.12690(10) 0.80123(13) -1.2424(2)
O13A O -0.16753(11) 0.47785(15) -0.6199(3)
O18 O 0.1581(4) 1.0451(4) -0.3486(7)
O20 O -0.1439(4) 0.5347(6) -0.2211(9)
O21 O 0.2772(6) 0.9984(7) -0.3758(12)
O19? O 0.1907(11) 1.0172(13) -0.358(2)
loop_
_geom_bond_atom_site_label_1
_geom_bond_atom_site_label_2
_geom_bond_site_symmetry_1
_geom_bond_site_symmetry_2
Ni1 N1 1_555 1_555
Ni2 N3 1_555 1_555
Ni3 O2 1_555 1_555
C1 C2 1_555 1_555
C2 H1 1_555 1_555
C3 C2 1_555 1_555
C4 C3 1_555 1_555
H2 C4 1_555 1_555
C5 C4 1_555 1_555
H3 C5 1_555 1_555
C6 C1 1_555 1_555
C7 C1 1_555 1_555
C8 C6 1_555 1_555
C9 C3 1_555 1_555
C10 C11 1_555 1_555
C11 C12 1_555 1_555
C12 H4 1_555 1_555
C13 C12 1_555 1_555
C14 C13 1_555 1_555
H5 C14 1_555 1_555
C15 C10 1_555 1_555
H6 C15 1_555 1_555
C16 C13 1_555 1_555
C17 C10 1_555 1_555
C18 C11 1_555 1_555
C19 H7 1_555 1_555
C20 H8 1_555 1_555
C21 C19 1_555 1_555
H9 C21 1_555 1_555
C22 C21 1_555 1_555
C23 C20 1_555 1_555
H10 C23 1_555 1_555
C24 H11 1_555 1_555
C25 C24 1_555 1_555
H12 C25 1_555 1_555
C26 C22 1_555 1_555
C27 H13 1_555 1_555
C28 H14 1_555 1_555
C29 C28 1_555 1_555
H15 C29 1_555 1_555
C30 H16 1_555 1_555
C31 H17 1_555 1_555
C32 H18 1_555 1_555
C33 C32 1_555 1_555
H19 C33 1_555 1_555
C34 C33 1_555 1_555
C35 C29 1_555 1_555
C36 C30 1_555 1_555
H20 C36 1_555 1_555
C37 C31 1_555 1_555
H21 C37 1_555 1_555
C38 C26 1_555 1_555
H22 C38 1_555 1_555
N1 C19 1_555 1_555
N2 C24 1_555 1_555
N3 C28 1_555 1_555
N4 C31 1_555 1_555
O1 Ni2 1_555 1_555
O2 C9 1_555 1_555
O3 Ni3 1_555 1_555
O4 C17 1_555 1_555
O5 C17 1_555 1_555
O6 C16 1_555 1_555
O7 C16 1_555 1_555
O8 C18 1_555 1_555
O9 Ni1 1_555 1_555
O10 Ni1 1_555 1_555
O11 Ni1 1_555 1_555
H23 O11 1_555 1_555
H24 O11 1_555 1_555
O12 Ni1 1_555 1_555
H25 O12 1_555 1_555
H26 O12 1_555 1_555
O13 C8 1_555 1_555
O14 Ni3 1_555 1_555
H27 O14 1_555 1_555
H28 O14 1_555 1_555
O15 Ni3 1_555 1_555
H29 O15 1_555 1_555
H30 O15 1_555 1_555
O16 Ni3 1_555 1_555
H31 O16 1_555 1_555
H32 O16 1_555 1_555
O17 Ni2 1_555 1_555
Ni1B N2 1_555 1_555
Ni2B N4 1_555 1_555
Ni2_2 O5 1_555 1_555
Ni3A O13 1_555 1_555
N2B Ni1 1_555 1_555
N4B Ni2 1_555 1_555
O5_2 Ni2 1_555 1_555
O8_2 Ni2 1_555 1_555
O13A Ni3 1_555 1_555
C5 C6 1_555 1_555
C7 O10 1_555 1_555
C7 O17 1_555 1_555
C8 O1 1_555 1_555
C9 O3 1_555 1_555
C14 C15 1_555 1_555
C18 O9 1_555 1_555
C20 N1 1_555 1_555
C22 C23 1_555 1_555
C25 C26 1_555 1_555
C27 C38 1_555 1_555
C27 N2 1_555 1_555
C30 N3 1_555 1_555
C32 N4 1_555 1_555
C34 C35 1_555 1_555
C34 C37 1_555 1_555
C35 C36 1_555 1_555
O8 Ni2_2 1_555 1_555

#END
