
#######################################################################
#
#                 Cambridge Crystallographic Data Centre
#                                CCDC 
#
#######################################################################
#
# If this CIF has been generated from an entry in the Cambridge 
# Structural Database, then it will include bibliographic, chemical, 
# crystal, experimental, refinement or atomic coordinate data resulting 
# from the CCDC's data processing and validation procedures.
#
#######################################################################

data_XAWZIG
_symmetry_cell_setting           monoclinic
_symmetry_space_group_name_H-M   'P 21/c'
_symmetry_Int_Tables_number      14
_space_group_name_Hall           '-P 2ybc'
loop_
_symmetry_equiv_pos_site_id
_symmetry_equiv_pos_as_xyz
1 x,y,z
2 -x,1/2+y,1/2-z
3 -x,-y,-z
4 x,1/2-y,1/2+z
_cell_length_a                   11.418(2)
_cell_length_b                   14.628(3)
_cell_length_c                   20.288(6)
_cell_angle_alpha                90
_cell_angle_beta                 120.49(2)
_cell_angle_gamma                90
_cell_volume                     2919.98
loop_
_atom_site_label
_atom_site_type_symbol
_atom_site_fract_x
_atom_site_fract_y
_atom_site_fract_z
Cd1 Cd 0.05001(7) 0.84624(5) 0.56879(4)
Cd2 Cd -0.66676(6) 0.96150(5) 0.48217(4)
O1 O -0.4540(6) 0.9900(5) 0.5812(4)
O2 O -0.4988(7) 0.8411(5) 0.5726(4)
O3 O -0.2331(7) 0.9024(5) 0.5643(4)
O4 O -0.0336(7) 0.8378(5) 0.6452(4)
O5 O -0.8143(7) 1.2464(5) 0.5341(4)
O6 O -0.8974(6) 1.1128(5) 0.5450(4)
O7 O -0.8025(7) 0.9507(4) 0.6497(4)
O8 O -0.7632(6) 0.9385(4) 0.5550(4)
N1 N 0.1501(8) 0.7159(6) 0.5708(5)
N2 N 0.2720(8) 0.6163(6) 0.5509(4)
N3 N 0.0332(7) 0.3718(6) 0.2163(4)
N4 N -0.1721(8) 0.3904(6) 0.1197(4)
C1 C -0.3003(9) 0.8946(6) 0.6852(5)
C2 C -0.1728(9) 0.8787(6) 0.6947(5)
C3 C -0.0623(10) 0.8663(7) 0.7682(5)
H1 H 0.0241 0.8592 0.7751
C4 C -0.0786(10) 0.8643(8) 0.8306(6)
H2 H -0.0046 0.8528 0.8791
C5 C -0.2052(10) 0.8794(7) 0.8212(5)
H3 H -0.2167 0.8789 0.8634
C6 C -0.3142(9) 0.8952(7) 0.7497(5)
C7 C -0.5109(9) 1.0268(6) 0.7136(5)
C8 C -0.4134(9) 1.0940(7) 0.7502(5)
H4 H -0.3287 1.0781 0.7912
C9 C -0.4397(10) 1.1849(7) 0.7270(6)
H5 H -0.3734 1.2295 0.7523
C10 C -0.5646(10) 1.2080(7) 0.6663(6)
H6 H -0.5817 1.2680 0.6489
C11 C -0.6669(9) 1.1416(6) 0.6301(5)
C12 C -0.6378(8) 1.0517(6) 0.6533(5)
C13 C -0.4249(9) 0.9080(8) 0.6070(5)
C14 C -0.1470(9) 0.8734(6) 0.6291(5)
C15 C -0.8017(9) 1.1714(7) 0.5648(5)
C16 C -0.7417(9) 0.9769(6) 0.6154(5)
C17 C 0.2604(10) 0.7039(7) 0.5658(5)
H7 H 0.3213 0.7499 0.5719
C18 C 0.0890(10) 0.6321(7) 0.5576(6)
H8 H 0.0081 0.6203 0.5565
C19 C 0.1627(10) 0.5697(7) 0.5464(6)
H9 H 0.1442 0.5075 0.5374
C20 C 0.3841(10) 0.5764(9) 0.5446(6)
H10 H 0.4372 0.5366 0.5880
H11 H 0.4431 0.6250 0.5460
C21 C 0.3325(10) 0.5224(7) 0.4714(6)
C22 C 0.3085(11) 0.5652(8) 0.4056(7)
H12 H 0.3255 0.6274 0.4063
C23 C 0.2593(10) 0.5167(8) 0.3383(6)
H13 H 0.2428 0.5466 0.2939
C24 C 0.2345(10) 0.4242(8) 0.3364(6)
C25 C 0.2619(10) 0.3809(8) 0.4029(6)
H14 H 0.2469 0.3184 0.4027
C26 C 0.3119(11) 0.4302(9) 0.4707(6)
H15 H 0.3313 0.4004 0.5156
C27 C 0.1810(10) 0.3701(8) 0.2630(6)
H16 H 0.2190 0.3951 0.2335
H17 H 0.2112 0.3072 0.2754
C28 C -0.0435(9) 0.3993(7) 0.1448(5)
H18 H -0.0086 0.4225 0.1156
C29 C -0.1818(10) 0.3563(8) 0.1788(6)
H19 H -0.2623 0.3433 0.1779
C30 C -0.0567(11) 0.3445(9) 0.2384(6)
H20 H -0.0346 0.3219 0.2862
S1 S -0.4775(3) 0.91049(18) 0.74140(15)
Cd1B Cd -1.05001(7) 1.15376(5) 0.43121(4)
Cd1_2 Cd -0.94999(7) 0.84624(5) 0.56879(4)
Cd2B Cd -0.33324(6) 1.03850(5) 0.51783(4)
Cd2A Cd -0.33324(6) 0.46150(5) 0.01783(4)
O1B O -0.5460(6) 1.0100(5) 0.4188(4)
O3B O -0.7669(7) 1.0976(5) 0.4357(4)
O5B O -0.1857(7) 0.7536(5) 0.4659(4)
O6B O -0.1026(6) 0.8872(5) 0.4550(4)
O7_2 O 0.1975(7) 0.9507(4) 0.6497(4)
O8_2 O 0.2368(6) 0.9385(4) 0.5550(4)
N4A N -0.8279(8) 0.8904(6) 0.3803(4)
loop_
_geom_bond_atom_site_label_1
_geom_bond_atom_site_label_2
_geom_bond_site_symmetry_1
_geom_bond_site_symmetry_2
Cd1 O4 1_555 1_555
Cd2 O1 1_555 1_555
O1 C13 1_555 1_555
O2 Cd2 1_555 1_555
O3 C14 1_555 1_555
O4 C14 1_555 1_555
O5 C15 1_555 1_555
O6 C15 1_555 1_555
O7 C16 1_555 1_555
O8 Cd2 1_555 1_555
N1 Cd1 1_555 1_555
N2 C17 1_555 1_555
N3 C27 1_555 1_555
N4 C28 1_555 1_555
C1 C2 1_555 1_555
C2 C3 1_555 1_555
C3 H1 1_555 1_555
C4 C3 1_555 1_555
H2 C4 1_555 1_555
C5 C4 1_555 1_555
H3 C5 1_555 1_555
C6 C1 1_555 1_555
C7 C8 1_555 1_555
C8 H4 1_555 1_555
C9 C8 1_555 1_555
H5 C9 1_555 1_555
C10 C9 1_555 1_555
H6 C10 1_555 1_555
C11 C10 1_555 1_555
C12 C7 1_555 1_555
C13 O2 1_555 1_555
C14 C2 1_555 1_555
C15 C11 1_555 1_555
C16 O8 1_555 1_555
C17 N1 1_555 1_555
H7 C17 1_555 1_555
C18 N1 1_555 1_555
H8 C18 1_555 1_555
C19 N2 1_555 1_555
H9 C19 1_555 1_555
C20 N2 1_555 1_555
H10 C20 1_555 1_555
H11 C20 1_555 1_555
C21 C20 1_555 1_555
C22 C21 1_555 1_555
H12 C22 1_555 1_555
C23 C22 1_555 1_555
H13 C23 1_555 1_555
C24 C23 1_555 1_555
C25 C24 1_555 1_555
H14 C25 1_555 1_555
C26 C21 1_555 1_555
H15 C26 1_555 1_555
C27 C24 1_555 1_555
H16 C27 1_555 1_555
H17 C27 1_555 1_555
C28 N3 1_555 1_555
H18 C28 1_555 1_555
C29 N4 1_555 1_555
H19 C29 1_555 1_555
C30 N3 1_555 1_555
H20 C30 1_555 1_555
S1 C6 1_555 1_555
Cd1B O5 1_555 1_555
Cd1_2 O7 1_555 1_555
Cd2B O1 1_555 1_555
Cd2A N4 1_555 1_555
O1B Cd2 1_555 1_555
O3B Cd2 1_555 1_555
O5B Cd1 1_555 1_555
O6B Cd1 1_555 1_555
O7_2 Cd1 1_555 1_555
O8_2 Cd1 1_555 1_555
N4A Cd2 1_555 1_555
O3 Cd2B 1_555 1_555
O6 Cd1B 1_555 1_555
O8 Cd1_2 1_555 1_555
C1 C13 1_555 1_555
C5 C6 1_555 1_555
C7 S1 1_555 1_555
C11 C12 1_555 1_555
C12 C16 1_555 1_555
C18 C19 1_555 1_555
C25 C26 1_555 1_555
C29 C30 1_555 1_555
Cd2B O1B 1_555 1_555

#END
