
#######################################################################
#
#                 Cambridge Crystallographic Data Centre
#                                CCDC 
#
#######################################################################
#
# If this CIF has been generated from an entry in the Cambridge 
# Structural Database, then it will include bibliographic, chemical, 
# crystal, experimental, refinement or atomic coordinate data resulting 
# from the CCDC's data processing and validation procedures.
#
#######################################################################

data_XAWZOM
_symmetry_cell_setting           orthorhombic
_symmetry_space_group_name_H-M   'P n a 21'
_symmetry_Int_Tables_number      33
_space_group_name_Hall           'P 2c -2n'
loop_
_symmetry_equiv_pos_site_id
_symmetry_equiv_pos_as_xyz
1 x,y,z
2 -x,-y,1/2+z
3 1/2-x,1/2+y,1/2+z
4 1/2+x,1/2-y,z
_cell_length_a                   19.695(4)
_cell_length_b                   9.2506(19)
_cell_length_c                   18.770(4)
_cell_angle_alpha                90
_cell_angle_beta                 90
_cell_angle_gamma                90
_cell_volume                     3419.72
loop_
_atom_site_label
_atom_site_type_symbol
_atom_site_fract_x
_atom_site_fract_y
_atom_site_fract_z
Cd1 Cd 0.663020(15) 0.83652(4) 0.270368(18)
Cd2 Cd 0.107180(15) 0.70834(4) 0.717350(18)
S1 S 0.36748(6) 0.98302(13) -0.00003(7)
N1 N 0.1955(2) 0.7072(5) 0.6366(2)
N2 N 0.5723(2) 0.7848(5) 0.3453(2)
O1 O 0.41914(16) 0.9565(3) 0.18401(16)
O2 O 0.46136(16) 1.1338(3) 0.11985(17)
O3 O 0.57962(17) 0.9477(4) 0.18628(17)
O4 O 0.61846(17) 0.7273(4) 0.17006(19)
O5 O 0.33372(17) 0.9074(4) -0.18569(17)
O6 O 0.27513(16) 1.0773(3) -0.13260(16)
O7 O 0.1788(2) 0.8413(4) -0.20051(19)
O8 O 0.1578(2) 0.6141(5) -0.1806(2)
O9 O 0.3335(2) 0.7167(5) 0.4093(2)
H1 H 0.2994 0.6716 0.3975
O10 O 0.43384(19) 0.7221(5) 0.5666(2)
H2 H 0.4662 0.7705 0.5802
C1 C 0.5384(2) 0.8146(5) 0.0867(2)
C2 C 0.4788(2) 0.8947(5) 0.0772(2)
C3 C 0.4406(2) 0.8749(5) 0.0149(2)
C4 C 0.4624(3) 0.7787(6) -0.0369(3)
H3 H 0.4375 0.7675 -0.0786
C5 C 0.5207(3) 0.6996(6) -0.0268(3)
H4 H 0.5346 0.6341 -0.0614
C6 C 0.5587(3) 0.7172(6) 0.0345(3)
H5 H 0.5982 0.6635 0.0409
C7 C 0.4520(2) 1.0003(5) 0.1313(2)
C8 C 0.5808(2) 0.8327(6) 0.1520(3)
C9 C 0.3049(2) 0.8487(5) -0.0160(2)
C10 C 0.2857(3) 0.7525(6) 0.0386(3)
H6 H 0.3069 0.7576 0.0828
C11 C 0.2365(3) 0.6522(5) 0.0271(3)
H7 H 0.2239 0.5890 0.0633
C12 C 0.2052(3) 0.6447(6) -0.0390(3)
H8 H 0.1725 0.5740 -0.0470
C13 C 0.2214(2) 0.7393(5) -0.0931(2)
C14 C 0.2718(2) 0.8432(5) -0.0812(2)
C15 C 0.2940(2) 0.9487(5) -0.1380(2)
C16 C 0.1841(2) 0.7317(6) -0.1624(3)
C17 C 0.5180(3) 0.8703(6) 0.3406(3)
H9 H 0.5154 0.9347 0.3026
C18 C 0.4662(3) 0.8680(6) 0.3886(3)
H10 H 0.4292 0.9292 0.3825
C19 C 0.4682(2) 0.7754(6) 0.4461(3)
C20 C 0.5251(3) 0.6864(7) 0.4515(3)
H11 H 0.5291 0.6211 0.4889
C21 C 0.5750(3) 0.6965(6) 0.4009(3)
H12 H 0.6131 0.6379 0.4059
C22 C 0.4120(2) 0.7729(6) 0.5011(3)
H13 H 0.3947 0.8715 0.5072
C23 C 0.3531(2) 0.6750(7) 0.4762(3)
H14 H 0.3696 0.5751 0.4738
C24 C 0.2960(2) 0.6824(6) 0.5307(3)
C25 C 0.2457(3) 0.7860(6) 0.5282(3)
H15 H 0.2444 0.8504 0.4902
C26 C 0.1980(3) 0.7955(6) 0.5806(3)
H16 H 0.1653 0.8677 0.5770
C27 C 0.2422(2) 0.6024(6) 0.6381(3)
H17 H 0.2408 0.5369 0.6756
C28 C 0.2922(2) 0.5855(6) 0.5873(3)
H18 H 0.3231 0.5099 0.5909
O11 O 0.7206(2) 0.6201(4) 0.2976(2)
H19 H 0.6917 0.5534 0.3048
H20 H 0.7520 0.5604 0.3036
O12 O 0.75606(16) 0.9276(4) 0.20740(18)
H21 H 0.7690 1.0146 0.2128
H22 H 0.7964 0.9005 0.2162
O13 O 0.0754(2) 0.9436(4) 0.6854(2)
H23 H 0.0374 0.9476 0.6842
H24 H 0.1042 0.9149 0.7169
O14 O -0.0029(2) 0.7000(5) 0.7690(3)
H25 H -0.0228 0.6350 0.7447
H26 H -0.0305 0.7542 0.7759
Cd1A Cd 0.336980(15) 1.16348(4) -0.229632(18)
Cd2B Cd 0.392820(15) 1.20834(4) 0.217350(18)
Cd2_2 Cd 0.107180(15) 0.70834(4) -0.282650(18)
O1B O 0.08086(16) 0.4565(3) 0.68401(16)
O2B O 0.03864(16) 0.6338(3) 0.61985(17)
O5A O 0.66628(17) 1.0926(4) 0.31431(17)
O6A O 0.72487(16) 0.9227(3) 0.36740(16)
O7_2 O 0.1788(2) 0.8413(4) 0.79949(19)
O8_2 O 0.1578(2) 0.6141(5) 0.8194(2)
O15 O 0.06253(19) 0.0389(4) 0.1814(2)
H27 H 0.0804 -0.0442 0.1784
H28 H 0.0638 0.0898 0.1504
O16 O 0.3756(2) 0.7054(4) 0.2515(2)
H29 H 0.4041 0.6407 0.2632
H30 H 0.3870 0.7734 0.2235
O17 O 0.1387(3) 0.1145(5) 0.3024(3)
H31 H 0.1484 0.2051 0.3063
H32 H 0.1226 0.1258 0.2666
loop_
_geom_bond_atom_site_label_1
_geom_bond_atom_site_label_2
_geom_bond_site_symmetry_1
_geom_bond_site_symmetry_2
Cd1 N2 1_555 1_555
Cd2 N1 1_555 1_555
S1 C3 1_555 1_555
N1 C26 1_555 1_555
N2 C17 1_555 1_555
O1 C7 1_555 1_555
O2 C7 1_555 1_555
O3 Cd1 1_555 1_555
O4 Cd1 1_555 1_555
O5 C15 1_555 1_555
O6 C15 1_555 1_555
O7 C16 1_555 1_555
O8 C16 1_555 1_555
O9 H1 1_555 1_555
O10 H2 1_555 1_555
C1 C2 1_555 1_555
C2 C3 1_555 1_555
C3 C4 1_555 1_555
C4 H3 1_555 1_555
C5 C4 1_555 1_555
H4 C5 1_555 1_555
C6 C1 1_555 1_555
H5 C6 1_555 1_555
C7 C2 1_555 1_555
C8 O3 1_555 1_555
C9 S1 1_555 1_555
C10 C9 1_555 1_555
H6 C10 1_555 1_555
C11 C10 1_555 1_555
H7 C11 1_555 1_555
C12 C11 1_555 1_555
H8 C12 1_555 1_555
C13 C12 1_555 1_555
C14 C9 1_555 1_555
C15 C14 1_555 1_555
C16 C13 1_555 1_555
C17 H9 1_555 1_555
C18 C17 1_555 1_555
H10 C18 1_555 1_555
C19 C18 1_555 1_555
C20 C19 1_555 1_555
H11 C20 1_555 1_555
C21 N2 1_555 1_555
H12 C21 1_555 1_555
C22 O10 1_555 1_555
H13 C22 1_555 1_555
C23 O9 1_555 1_555
H14 C23 1_555 1_555
C24 C23 1_555 1_555
C25 C24 1_555 1_555
H15 C25 1_555 1_555
C26 C25 1_555 1_555
H16 C26 1_555 1_555
C27 N1 1_555 1_555
H17 C27 1_555 1_555
C28 C24 1_555 1_555
H18 C28 1_555 1_555
O11 Cd1 1_555 1_555
H19 O11 1_555 1_555
H20 O11 1_555 1_555
O12 Cd1 1_555 1_555
H21 O12 1_555 1_555
H22 O12 1_555 1_555
O13 Cd2 1_555 1_555
H23 O13 1_555 1_555
H24 O13 1_555 1_555
O14 Cd2 1_555 1_555
H25 O14 1_555 1_555
H26 O14 1_555 1_555
O15 H27 1_555 1_555
H28 O15 1_555 1_555
O16 H29 1_555 1_555
H30 O16 1_555 1_555
O17 H31 1_555 1_555
H32 O17 1_555 1_555
Cd1A O5 1_555 1_555
Cd2B O1 1_555 1_555
Cd2_2 O7 1_555 1_555
O1B Cd2 1_555 1_555
O2B Cd2 1_555 1_555
O5A Cd1 1_555 1_555
O6A Cd1 1_555 1_555
O7_2 Cd2 1_555 1_555
O8_2 Cd2 1_555 1_555
O2 Cd2B 1_555 1_555
O4 C8 1_555 1_555
O6 Cd1A 1_555 1_555
O8 Cd2_2 1_555 1_555
C1 C8 1_555 1_555
C5 C6 1_555 1_555
C13 C14 1_555 1_555
C19 C22 1_555 1_555
C20 C21 1_555 1_555
C22 C23 1_555 1_555
C27 C28 1_555 1_555

#END
