
#######################################################################
#
#                 Cambridge Crystallographic Data Centre
#                                CCDC 
#
#######################################################################
#
# If this CIF has been generated from an entry in the Cambridge 
# Structural Database, then it will include bibliographic, chemical, 
# crystal, experimental, refinement or atomic coordinate data resulting 
# from the CCDC's data processing and validation procedures.
#
#######################################################################

data_XAXGEK
_symmetry_cell_setting           tetragonal
_symmetry_space_group_name_H-M   'I 41/a'
_symmetry_Int_Tables_number      88
_space_group_name_Hall           '-I 4ad'
loop_
_symmetry_equiv_pos_site_id
_symmetry_equiv_pos_as_xyz
1 x,y,z
2 1/2-x,-y,1/2+z
3 3/4-y,1/4+x,1/4+z
4 3/4+y,3/4-x,3/4+z
5 1/2+x,1/2+y,1/2+z
6 -x,1/2-y,z
7 1/4-y,3/4+x,3/4+z
8 1/4+y,1/4-x,1/4+z
9 -x,-y,-z
10 1/2+x,y,1/2-z
11 1/4+y,3/4-x,3/4-z
12 1/4-y,1/4+x,1/4-z
13 1/2-x,1/2-y,1/2-z
14 x,1/2+y,-z
15 3/4+y,1/4-x,1/4-z
16 3/4-y,3/4+x,3/4-z
_cell_length_a                   19.029(3)
_cell_length_b                   19.029(3)
_cell_length_c                   16.790(3)
_cell_angle_alpha                90
_cell_angle_beta                 90
_cell_angle_gamma                90
_cell_volume                     6079.71
loop_
_atom_site_label
_atom_site_type_symbol
_atom_site_fract_x
_atom_site_fract_y
_atom_site_fract_z
Ag1 Ag 0.56959(3) 0.46767(3) 0.93347(3)
N1 N 0.6392(3) 0.3958(3) 0.8652(3)
N2 N 0.7037(3) 0.3429(3) 0.7742(3)
N3 N 0.6841(3) 0.2935(3) 0.8283(3)
C1 C 0.6765(4) 0.4036(4) 0.7987(5)
C2 C 0.6945(7) 0.4725(5) 0.7619(8)
H1 H 0.7181 0.5012 0.8015
H2 H 0.7275 0.4643 0.7189
C3 C 0.6341(8) 0.5123(8) 0.7302(11)
H3 H 0.6008 0.5222 0.7725
H4 H 0.6103 0.4849 0.6895
C4 C 0.6620(13) 0.5823(8) 0.6939(13)
H5 H 0.7124 0.5849 0.7014
H6 H 0.6527 0.5827 0.6370
C5 C 0.6282(19) 0.6454(11) 0.7313(16)
H7 H 0.6453 0.6531 0.7850
H8 H 0.5775 0.6412 0.7322
C6 C 0.652(2) 0.7043(11) 0.6743(15)
H9 H 0.6526 0.7484 0.7021
H10 H 0.6208 0.7070 0.6299
H11 H 0.6990 0.6941 0.6555
C7 C 0.6445(4) 0.3270(3) 0.8821(4)
C8 C 0.6101(6) 0.2927(5) 0.9524(6)
H12 H 0.6111 0.2421 0.9455
H13 H 0.5614 0.3074 0.9552
C9 C 0.6477(10) 0.3123(11) 1.0310(9)
H14 H 0.6929 0.2886 1.0314
H15 H 0.6571 0.3624 1.0298
C10 C 0.6146(14) 0.2974(13) 1.1016(11)
H16 H 0.6496 0.2812 1.1395
H17 H 0.5819 0.2591 1.0928
C11 C 0.5747(18) 0.3585(15) 1.1388(16)
H18 H 0.5593 0.3870 1.0943
H19 H 0.5324 0.3378 1.1612
C12 C 0.597(3) 0.403(2) 1.1920(14)
H20 H 0.5582 0.4320 1.2088
H21 H 0.6329 0.4317 1.1695
H22 H 0.6149 0.3776 1.2370
Ag1F Ag 0.78233(3) 0.31959(3) 0.68347(3)
Ag1J Ag 0.71767(3) 0.18041(3) 0.81653(3)
N2G N 0.5929(3) 0.5463(3) 1.0242(3)
N3O N 0.4565(3) 0.4341(3) 0.9217(3)
loop_
_geom_bond_atom_site_label_1
_geom_bond_atom_site_label_2
_geom_bond_site_symmetry_1
_geom_bond_site_symmetry_2
Ag1 N1 1_555 1_555
N1 C1 1_555 1_555
N2 N3 1_555 1_555
N3 C7 1_555 1_555
C1 N2 1_555 1_555
C2 C1 1_555 1_555
H1 C2 1_555 1_555
H2 C2 1_555 1_555
C3 C2 1_555 1_555
H3 C3 1_555 1_555
H4 C3 1_555 1_555
C4 C3 1_555 1_555
H5 C4 1_555 1_555
H6 C4 1_555 1_555
C5 C4 1_555 1_555
H7 C5 1_555 1_555
H8 C5 1_555 1_555
C6 C5 1_555 1_555
H9 C6 1_555 1_555
H10 C6 1_555 1_555
H11 C6 1_555 1_555
C7 N1 1_555 1_555
C8 C7 1_555 1_555
H12 C8 1_555 1_555
H13 C8 1_555 1_555
C9 C8 1_555 1_555
H14 C9 1_555 1_555
H15 C9 1_555 1_555
C10 C9 1_555 1_555
H16 C10 1_555 1_555
H17 C10 1_555 1_555
C11 C10 1_555 1_555
H18 C11 1_555 1_555
H19 C11 1_555 1_555
C12 C11 1_555 1_555
H20 C12 1_555 1_555
H21 C12 1_555 1_555
H22 C12 1_555 1_555
Ag1F N2 1_555 1_555
Ag1J N3 1_555 1_555
N2G Ag1 1_555 1_555
N3O Ag1 1_555 1_555

#END
