
#######################################################################
#
#                 Cambridge Crystallographic Data Centre
#                                CCDC 
#
#######################################################################
#
# If this CIF has been generated from an entry in the Cambridge 
# Structural Database, then it will include bibliographic, chemical, 
# crystal, experimental, refinement or atomic coordinate data resulting 
# from the CCDC's data processing and validation procedures.
#
#######################################################################

data_XAXPAP
_symmetry_cell_setting           triclinic
_symmetry_space_group_name_H-M   'P -1'
_symmetry_Int_Tables_number      2
_space_group_name_Hall           '-P 1'
loop_
_symmetry_equiv_pos_site_id
_symmetry_equiv_pos_as_xyz
1 x,y,z
2 -x,-y,-z
_cell_length_a                   10.849(2)
_cell_length_b                   11.573(2)
_cell_length_c                   11.698(2)
_cell_angle_alpha                94.359(9)
_cell_angle_beta                 94.496(10)
_cell_angle_gamma                114.813(8)
_cell_volume                     1319.39
loop_
_atom_site_label
_atom_site_type_symbol
_atom_site_fract_x
_atom_site_fract_y
_atom_site_fract_z
Cd1 Cd 0.53685(4) -0.44402(3) 1.25063(3)
Cd2 Cd 0.40660(4) -0.82308(4) 1.40692(3)
Cl1 Cl 0.5671(2) -0.57124(16) 1.40505(15)
O2 O 0.5619(4) -0.2598(3) 1.3669(3)
O3 O 0.6390(4) -0.0582(3) 1.4350(3)
O4 O 0.4908(5) -0.6241(4) 1.1231(3)
H3 H 0.539(6) -0.616(5) 1.068(4)
H4 H 0.483(6) -0.693(4) 1.149(5)
O5 O 0.5785(4) 0.3925(3) 0.9121(3)
O6 O 0.6194(5) -0.8217(4) 1.4211(4)
H5 H 0.654(7) -0.800(5) 1.492(2)
H6 H 0.616(7) -0.896(3) 1.406(5)
O7 O 0.7015(4) 0.4862(4) 0.7777(4)
O8 O 0.6009(4) -0.1424(3) 0.7972(3)
O9 O 0.6763(4) 0.0327(3) 0.7131(3)
O10 O 0.6536(4) 0.0209(3) 1.2281(3)
O11 O 0.7957(4) 0.3885(3) 1.0434(3)
N1 N 0.2052(5) -0.8079(5) 1.3934(4)
N2 N 0.0617(5) -0.7196(5) 1.3867(5)
N3 N 0.7402(4) -0.3336(4) 1.1852(4)
N4 N 0.8941(4) -0.2324(4) 1.0735(4)
C1 C 0.0758(8) -0.8988(7) 1.3925(7)
H7 H 0.0519 -0.9858 1.3942
C2 C -0.0133(8) -0.8458(7) 1.3888(8)
H8 H -0.1077 -0.8878 1.3879
C3 C 0.1911(6) -0.7009(6) 1.3890(5)
H9 H 0.2636 -0.6212 1.3878
C4 C 0.0274(7) -0.5508(7) 1.5012(6)
H10 H 0.1234 -0.5102 1.5322
H11 H -0.0213 -0.6123 1.5522
C5 C 0.6729(4) 0.0539(4) 0.9181(4)
C6 C 0.6075(5) -0.1435(5) 1.3531(4)
C7 C 0.6740(5) 0.0682(4) 1.1234(4)
C8 C 0.6485(5) -0.0232(4) 0.8019(4)
C9 C 0.7438(5) 0.2578(4) 1.0285(4)
C10 C 0.6897(5) 0.4417(4) 0.8726(4)
C11 C 0.7202(5) 0.1858(4) 0.9228(4)
H12 H 0.7357 0.2252 0.8556
C12 C 0.6514(5) -0.0053(4) 1.0185(4)
H13 H 0.6221 -0.0935 1.0150
C13 C 0.8193(5) 0.4528(5) 0.9423(4)
H14 H 0.8790 0.5429 0.9651
H15 H 0.8666 0.4178 0.8933
C14 C 0.7188(5) 0.1998(4) 1.1295(4)
H16 H 0.7319 0.2487 1.2001
C15 C 0.6223(6) -0.1102(5) 1.2306(4)
H17 H 0.5377 -0.1623 1.1811
H18 H 0.6946 -0.1282 1.2018
C16 C 0.9574(6) -0.0518(5) 0.9514(5)
H19 H 0.9945 -0.0267 0.8797
H20 H 0.8649 -0.0585 0.9442
C17 C 0.0125(8) -0.6191(7) 1.3853(6)
H21 H -0.0833 -0.6577 1.3536
H22 H 0.0630 -0.5577 1.3349
C18 C 0.7611(5) -0.3035(5) 1.0799(5)
H23 H 0.6926 -0.3284 1.0180
C19 C 0.8664(6) -0.2784(6) 1.2501(5)
H24 H 0.8833 -0.2830 1.3285
C20 C 0.9522(6) -0.1822(5) 0.9680(5)
H25 H 0.8979 -0.2426 0.9015
H26 H 1.0442 -0.1765 0.9712
C21 C 0.9618(6) -0.2163(6) 1.1816(5)
H27 H 1.0555 -0.1713 1.2035
Cd1A Cd 0.46315(4) 0.44402(3) 0.74937(3)
Cd1A_2 Cd 1.46315(4) 0.44402(3) 0.74937(3)
Cd2A Cd 0.59340(4) -0.17692(4) 1.59308(3)
Cd2A_2 Cd 0.59340(4) -0.17692(4) 0.59308(3)
Cd2A_3 Cd -0.40660(4) -0.17692(4) 1.59308(3)
Cd2_2 Cd 0.40660(4) 0.17692(4) 0.40692(3)
Cd2_3 Cd 0.40660(4) 0.17692(4) 1.40692(3)
Cd2A_4 Cd 0.59340(4) 0.82308(4) 0.59308(3)
Cl1A Cl 0.4329(2) 0.57124(16) 0.59495(15)
Cl1A_2 Cl 0.4329(2) -0.42876(16) 1.59495(15)
O2A O 0.4381(4) 0.2598(3) 0.6331(3)
O2A_2 O 0.4381(4) -0.7402(3) 1.6331(3)
O3A O 0.3610(4) 0.0582(3) 0.5650(3)
O3A_2 O 0.3610(4) -0.9418(3) 1.5650(3)
O4A O 0.5092(5) 0.6241(4) 0.8769(3)
H3A H 0.461(6) 0.616(5) 0.932(4)
H4A H 0.517(6) 0.693(4) 0.851(5)
O5A O 0.4215(4) -0.3925(3) 1.0879(3)
O6A O 0.3806(5) -0.1783(4) 1.5789(4)
H5A H 0.346(7) -0.200(5) 1.508(2)
H6A H 0.384(7) -0.104(3) 1.594(5)
O7A O 0.2985(4) -0.4862(4) 1.2223(4)
O8A O 0.3991(4) 0.1424(3) 1.2028(3)
O8A_2 O 0.3991(4) -0.8576(3) 1.2028(3)
O8_2 O 0.6009(4) -0.1424(3) 1.7972(3)
O9A O 0.3237(4) -0.0327(3) 1.2869(3)
O9A_2 O 0.3237(4) -1.0327(3) 1.2869(3)
O9_2 O 0.6763(4) 0.0327(3) 1.7131(3)
O10A O 0.3464(4) -0.0209(3) 0.7719(3)
O11A O 0.2043(4) -0.3885(3) 0.9566(3)
N1A N -0.2052(5) -0.1921(5) 1.6066(4)
N1A_2 N 0.7948(5) -0.1921(5) 1.6066(4)
N2A N -0.0617(5) -0.2804(5) 1.6133(5)
N3A N 1.2598(4) 0.3336(4) 0.8148(4)
N3A_2 N 0.2598(4) 0.3336(4) 0.8148(4)
N4A N 1.1059(4) 0.2324(4) 0.9265(4)
C1A C -0.0758(8) -0.1012(7) 1.6075(7)
H7A H -0.0519 -0.0142 1.6058
C2A C 0.0133(8) -0.1542(7) 1.6112(8)
H8A H 0.1077 -0.1122 1.6121
C3A C -0.1911(6) -0.2991(6) 1.6110(5)
H9A H -0.2636 -0.3788 1.6122
C4A C -0.0274(7) -0.4492(7) 1.4988(6)
H10A H -0.1234 -0.4898 1.4678
H11A H 0.0213 -0.3877 1.4478
C5A C 0.3271(4) -0.0539(4) 1.0819(4)
C6A C 0.3925(5) 0.1435(5) 0.6469(4)
C7A C 0.3260(5) -0.0682(4) 0.8766(4)
C8A C 0.3515(5) 0.0232(4) 1.1981(4)
C9A C 0.2562(5) -0.2578(4) 0.9715(4)
C10A C 0.3103(5) -0.4417(4) 1.1274(4)
C11A C 0.2798(5) -0.1858(4) 1.0772(4)
H12A H 0.2643 -0.2252 1.1444
C12A C 0.3486(5) 0.0053(4) 0.9815(4)
H13A H 0.3779 0.0935 0.9850
C13A C 0.1807(5) -0.4528(5) 1.0577(4)
H14A H 0.1210 -0.5429 1.0349
H15A H 0.1334 -0.4178 1.1067
C14A C 0.2812(5) -0.1998(4) 0.8705(4)
H16A H 0.2681 -0.2487 0.7999
C15A C 0.3777(6) 0.1102(5) 0.7694(4)
H17A H 0.4623 0.1623 0.8189
H18A H 0.3054 0.1282 0.7982
C16A C 1.0426(6) 0.0518(5) 1.0486(5)
H19A H 1.0055 0.0267 1.1203
H20A H 1.1351 0.0585 1.0558
C17A C -0.0125(8) -0.3809(7) 1.6147(6)
H21A H 0.0833 -0.3423 1.6464
H22A H -0.0630 -0.4423 1.6651
C18A C 1.2389(5) 0.3035(5) 0.9201(5)
H23A H 1.3074 0.3284 0.9820
C19A C 1.1336(6) 0.2784(6) 0.7499(5)
H24A H 1.1167 0.2830 0.6715
C20A C 1.0478(6) 0.1822(5) 1.0320(5)
H25A H 1.1021 0.2426 1.0985
H26A H 0.9558 0.1765 1.0288
C21A C 1.0382(6) 0.2163(6) 0.8184(5)
H27A H 0.9445 0.1713 0.7965
O1 O 0.2521(5) 0.7284(5) 0.3602(4)
H1 H 0.1968 0.6889 0.4066
H2 H 0.2062 0.7363 0.3014
loop_
_geom_bond_atom_site_label_1
_geom_bond_atom_site_label_2
_geom_bond_site_symmetry_1
_geom_bond_site_symmetry_2
Cd1 Cl1 1_555 1_555
Cd2 Cl1 1_555 1_555
O1 H1 1_555 1_555
H2 O1 1_555 1_555
O2 Cd1 1_555 1_555
O3 C6 1_555 1_555
O4 Cd1 1_555 1_555
H3 O4 1_555 1_555
H4 O4 1_555 1_555
O5 C10 1_555 1_555
O6 Cd2 1_555 1_555
H5 O6 1_555 1_555
H6 O6 1_555 1_555
O7 C10 1_555 1_555
O8 C8 1_555 1_555
O9 C8 1_555 1_555
O10 C7 1_555 1_555
O11 C9 1_555 1_555
N1 Cd2 1_555 1_555
N2 C2 1_555 1_555
N3 Cd1 1_555 1_555
N4 C18 1_555 1_555
C1 N1 1_555 1_555
H7 C1 1_555 1_555
C2 C1 1_555 1_555
H8 C2 1_555 1_555
C3 N1 1_555 1_555
H9 C3 1_555 1_555
C4 H10 1_555 1_555
H11 C4 1_555 1_555
C5 C8 1_555 1_555
C6 O2 1_555 1_555
C7 C12 1_555 1_555
C9 C11 1_555 1_555
C10 C13 1_555 1_555
C11 C5 1_555 1_555
H12 C11 1_555 1_555
C12 C5 1_555 1_555
H13 C12 1_555 1_555
C13 O11 1_555 1_555
H14 C13 1_555 1_555
H15 C13 1_555 1_555
C14 C7 1_555 1_555
H16 C14 1_555 1_555
C15 O10 1_555 1_555
H17 C15 1_555 1_555
H18 C15 1_555 1_555
C16 H19 1_555 1_555
H20 C16 1_555 1_555
C17 N2 1_555 1_555
H21 C17 1_555 1_555
H22 C17 1_555 1_555
C18 N3 1_555 1_555
H23 C18 1_555 1_555
C19 N3 1_555 1_555
H24 C19 1_555 1_555
C20 N4 1_555 1_555
H25 C20 1_555 1_555
H26 C20 1_555 1_555
C21 N4 1_555 1_555
H27 C21 1_555 1_555
Cd1A O5 1_555 1_555
Cd1A_2 N3A 1_555 1_555
Cd2A O2 1_555 1_555
Cd2A_2 O8 1_555 1_555
Cd2A_3 N1A 1_555 1_555
Cd2_2 O2A 1_555 1_555
Cd2_3 O8A 1_555 1_555
Cd2A_4 Cl1A 1_555 1_555
Cl1A Cd1A 1_555 1_555
Cl1A_2 Cd2A 1_555 1_555
O2A Cd1A 1_555 1_555
O2A_2 Cd2 1_555 1_555
O3A Cd2_2 1_555 1_555
O3A_2 Cd2 1_555 1_555
O4A Cd1A 1_555 1_555
H3A O4A 1_555 1_555
H4A O4A 1_555 1_555
O5A Cd1 1_555 1_555
O6A Cd2A 1_555 1_555
H5A O6A 1_555 1_555
H6A O6A 1_555 1_555
O7A Cd1 1_555 1_555
O8A C8A 1_555 1_555
O8A_2 Cd2 1_555 1_555
O8_2 Cd2A 1_555 1_555
O9A Cd2_3 1_555 1_555
O9A_2 Cd2 1_555 1_555
O9_2 Cd2A 1_555 1_555
O10A C7A 1_555 1_555
O11A C9A 1_555 1_555
N1A C1A 1_555 1_555
N1A_2 Cd2A 1_555 1_555
N2A C2A 1_555 1_555
N3A C18A 1_555 1_555
N3A_2 Cd1A 1_555 1_555
N4A C18A 1_555 1_555
C1A H7A 1_555 1_555
C2A C1A 1_555 1_555
H8A C2A 1_555 1_555
C3A N1A 1_555 1_555
H9A C3A 1_555 1_555
C4A C4 1_555 1_555
H10A C4A 1_555 1_555
H11A C4A 1_555 1_555
C5A C8A 1_555 1_555
C6A O2A 1_555 1_555
C7A C12A 1_555 1_555
C8A O9A 1_555 1_555
C9A C11A 1_555 1_555
C10A O5A 1_555 1_555
C11A C5A 1_555 1_555
H12A C11A 1_555 1_555
C12A C5A 1_555 1_555
H13A C12A 1_555 1_555
C13A O11A 1_555 1_555
H14A C13A 1_555 1_555
H15A C13A 1_555 1_555
C14A C7A 1_555 1_555
H16A C14A 1_555 1_555
C15A O10A 1_555 1_555
H17A C15A 1_555 1_555
H18A C15A 1_555 1_555
C16A C16 1_555 1_555
H19A C16A 1_555 1_555
H20A C16A 1_555 1_555
C17A N2A 1_555 1_555
H21A C17A 1_555 1_555
H22A C17A 1_555 1_555
C18A H23A 1_555 1_555
C19A N3A 1_555 1_555
H24A C19A 1_555 1_555
C20A N4A 1_555 1_555
H25A C20A 1_555 1_555
H26A C20A 1_555 1_555
C21A N4A 1_555 1_555
H27A C21A 1_555 1_555
O3 Cd2A 1_555 1_555
O7 Cd1A 1_555 1_555
O9 Cd2A_2 1_555 1_555
N2 C3 1_555 1_555
C4 C17 1_555 1_555
C6 C15 1_555 1_555
C9 C14 1_555 1_555
C16 C20 1_555 1_555
C19 C21 1_555 1_555
O3A C6A 1_555 1_555
O7A C10A 1_555 1_555
N2A C3A 1_555 1_555
C4A C17A 1_555 1_555
C6A C15A 1_555 1_555
C9A C14A 1_555 1_555
C10A C13A 1_555 1_555
C16A C20A 1_555 1_555
C19A C21A 1_555 1_555

#END
