
#######################################################################
#
#                 Cambridge Crystallographic Data Centre
#                                CCDC 
#
#######################################################################
#
# If this CIF has been generated from an entry in the Cambridge 
# Structural Database, then it will include bibliographic, chemical, 
# crystal, experimental, refinement or atomic coordinate data resulting 
# from the CCDC's data processing and validation procedures.
#
#######################################################################

data_XAXQEU
_symmetry_cell_setting           triclinic
_symmetry_space_group_name_H-M   'P -1'
_symmetry_Int_Tables_number      2
_space_group_name_Hall           '-P 1'
loop_
_symmetry_equiv_pos_site_id
_symmetry_equiv_pos_as_xyz
1 x,y,z
2 -x,-y,-z
_cell_length_a                   7.1622(14)
_cell_length_b                   9.094(2)
_cell_length_c                   9.749(3)
_cell_angle_alpha                105.663(14)
_cell_angle_beta                 103.181(14)
_cell_angle_gamma                98.248(14)
_cell_volume                     580.886
loop_
_atom_site_label
_atom_site_type_symbol
_atom_site_fract_x
_atom_site_fract_y
_atom_site_fract_z
H1 H 0.492(4) 0.987(3) 1.291(3)
C1 C 0.2912(4) 0.9687(4) 1.4187(3)
H2 H 0.2329 0.8859 1.4513
H3 H 0.1871 0.9921 1.3504
C2 C -0.0498(4) 0.6474(4) 0.5669(3)
H4 H -0.0792 0.7175 0.6497
H5 H -0.0565 0.6968 0.4898
In1 In 0.0000 0.5000 1.0000
In2 In 0.5000 0.5000 1.0000
O1 O 0.2336(2) 0.3854(2) 1.0145(2)
O2 O 0.4673(3) 0.7238(2) 1.1301(2)
O3 O 0.3564(3) 0.5356(3) 0.7964(2)
O4 O 0.1787(3) 0.7012(2) 1.1812(2)
O5 O 0.0779(3) 0.5959(2) 0.8356(2)
C3 C 0.1582(4) 0.6230(4) 0.6176(3)
C4 C -0.2025(4) 0.4960(4) 0.5082(3)
H6 H -0.2065 0.4523 0.5882
H7 H -0.3307 0.5169 0.4723
C5 C 0.1990(4) 0.5803(3) 0.7596(3)
C6 C 0.3537(4) 0.7685(3) 1.2073(3)
C7 C 0.4408(4) 0.9132(3) 1.3395(3)
C8 C 0.6116(4) 0.8853(4) 1.4473(3)
H8 H 0.7084 0.8549 1.3963
H9 H 0.5644 0.7999 1.4812
H10 H 0.241(4) 0.723(3) 0.654(3)
H1A H 0.508(4) 1.013(3) 1.709(3)
C1A C 0.7088(4) 1.0313(4) 1.5813(3)
H2A H 0.7671 1.1141 1.5487
H3A H 0.8129 1.0079 1.6496
C2A C 0.0498(4) 0.3526(4) 0.4331(3)
H4A H 0.0792 0.2825 0.3503
H5A H 0.0565 0.3032 0.5102
In1_2 In 1.0000 1.5000 2.0000
In1_3 In 0.0000 0.5000 0.0000
In2_2 In 0.5000 1.5000 2.0000
In2_3 In -0.5000 0.5000 0.0000
In2_4 In -0.5000 0.5000 1.0000
O1A O -0.2336(2) 0.6146(2) 0.9855(2)
O1A_2 O 0.7664(2) 0.6146(2) 0.9855(2)
O2A O 0.5327(3) 1.2762(2) 1.8699(2)
O2A_2 O 0.5327(3) 0.2762(2) 0.8699(2)
O3A O -0.3564(3) 0.4644(3) 0.2036(2)
O3A_2 O 0.6436(3) 0.4644(3) 1.2036(2)
O4A O 0.8213(3) 1.2988(2) 1.8188(2)
O4A_2 O -0.1787(3) 0.2988(2) 0.8188(2)
O5A O -0.0779(3) 0.4041(2) 0.1644(2)
O5A_2 O -0.0779(3) 0.4041(2) 1.1644(2)
C3A C -0.1582(4) 0.3770(4) 0.3824(3)
C4A C 0.2025(4) 0.5040(4) 0.4918(3)
H6A H 0.2065 0.5477 0.4118
H7A H 0.3307 0.4831 0.5277
C5A C -0.1990(4) 0.4197(3) 0.2404(3)
C6A C 0.6463(4) 1.2315(3) 1.7927(3)
C7A C 0.5592(4) 1.0868(3) 1.6605(3)
C8A C 0.3884(4) 1.1147(4) 1.5527(3)
H8A H 0.2916 1.1451 1.6037
H9A H 0.4356 1.2001 1.5188
H10A H -0.241(4) 0.277(3) 0.346(3)
loop_
_geom_bond_atom_site_label_1
_geom_bond_atom_site_label_2
_geom_bond_site_symmetry_1
_geom_bond_site_symmetry_2
H1 C7 1_555 1_555
C1 H2 1_555 1_555
H3 C1 1_555 1_555
C2 H4 1_555 1_555
H5 C2 1_555 1_555
In1 O1 1_555 1_555
In2 O1 1_555 1_555
O2 In2 1_555 1_555
O3 In2 1_555 1_555
O4 In1 1_555 1_555
O5 In1 1_555 1_555
C3 C2 1_555 1_555
C4 C2 1_555 1_555
H6 C4 1_555 1_555
H7 C4 1_555 1_555
C5 O3 1_555 1_555
C6 O2 1_555 1_555
C7 C1 1_555 1_555
C8 C7 1_555 1_555
H8 C8 1_555 1_555
H9 C8 1_555 1_555
H10 C3 1_555 1_555
H1A C7A 1_555 1_555
C1A C8 1_555 1_555
H2A C1A 1_555 1_555
H3A C1A 1_555 1_555
C2A H4A 1_555 1_555
H5A C2A 1_555 1_555
In1_2 O4A 1_555 1_555
In1_3 O5A 1_555 1_555
In2_2 O2A 1_555 1_555
In2_3 O3A 1_555 1_555
In2_4 O1A 1_555 1_555
O1A In1 1_555 1_555
O1A_2 In2 1_555 1_555
O2A C6A 1_555 1_555
O2A_2 In2 1_555 1_555
O3A C5A 1_555 1_555
O3A_2 In2 1_555 1_555
O4A C6A 1_555 1_555
O4A_2 In1 1_555 1_555
O5A C5A 1_555 1_555
O5A_2 In1 1_555 1_555
C3A C4 1_555 1_555
C4A C3 1_555 1_555
H6A C4A 1_555 1_555
H7A C4A 1_555 1_555
C5A C3A 1_555 1_555
C6A C7A 1_555 1_555
C7A C1A 1_555 1_555
C8A C1 1_555 1_555
H8A C8A 1_555 1_555
H9A C8A 1_555 1_555
H10A C3A 1_555 1_555
O4 C6 1_555 1_555
O5 C5 1_555 1_555
C3 C5 1_555 1_555
C6 C7 1_555 1_555
C2A C3A 1_555 1_555
C2A C4A 1_555 1_555
C7A C8A 1_555 1_555

#END
