
#######################################################################
#
#                 Cambridge Crystallographic Data Centre
#                                CCDC 
#
#######################################################################
#
# If this CIF has been generated from an entry in the Cambridge 
# Structural Database, then it will include bibliographic, chemical, 
# crystal, experimental, refinement or atomic coordinate data resulting 
# from the CCDC's data processing and validation procedures.
#
#######################################################################

data_XAXVAU05
_symmetry_cell_setting           orthorhombic
_symmetry_space_group_name_H-M   'P c c n'
_symmetry_Int_Tables_number      56
_space_group_name_Hall           '-P 2ab 2ac'
loop_
_symmetry_equiv_pos_site_id
_symmetry_equiv_pos_as_xyz
1 x,y,z
2 1/2-x,1/2-y,z
3 1/2+x,-y,1/2-z
4 -x,1/2+y,1/2-z
5 -x,-y,-z
6 1/2+x,1/2+y,-z
7 1/2-x,y,1/2+z
8 x,1/2-y,1/2+z
_cell_length_a                   15.782(3)
_cell_length_b                   8.424(3)
_cell_length_c                   13.320(3)
_cell_angle_alpha                90
_cell_angle_beta                 90
_cell_angle_gamma                90
_cell_volume                     1770.86
loop_
_atom_site_label
_atom_site_type_symbol
_atom_site_fract_x
_atom_site_fract_y
_atom_site_fract_z
Ag1 Ag 0.2901(7) 0.0853(18) 1.3049(8)
C1 C 0.3852(7) 0.0778(19) 1.1965(8)
N1 N 0.4350(6) 0.0713(14) 1.1341(6)
Fe1 Fe 0.5000 0.0000 1.0000
N2 N 0.5521(7) 0.2460(11) 0.9760(6)
N3 N 0.3908(6) 0.0611(16) 0.9142(6)
C2 C 0.5949(7) 0.3249(19) 1.0486(9)
C3 C 0.5498(11) 0.321(2) 0.8856(10)
C4 C 0.3257(8) 0.0732(17) 0.8752(8)
N4 N 0.6296(6) 0.4686(14) 1.0395(7)
H1 H 0.5944(16) 0.259(4) 1.123(2)
C5 C 0.5878(9) 0.468(2) 0.8682(10)
H2 H 0.515(2) 0.258(3) 0.830(2)
C6 C 0.6281(10) 0.538(2) 0.9512(11)
H3 H 0.583(2) 0.530(4) 0.794(3)
H4 H 0.660(3) 0.658(5) 0.944(3)
N2D N 0.4479(7) -0.2460(11) 1.0240(6)
N1D N 0.5650(6) -0.0713(14) 0.8659(6)
N3D N 0.6092(6) -0.0611(16) 1.0858(6)
C2D C 0.4051(7) -0.3249(19) 0.9514(9)
C3D C 0.4502(11) -0.321(2) 1.1144(10)
C1D C 0.6148(7) -0.0778(19) 0.8035(8)
C4D C 0.6743(8) -0.0732(17) 1.1248(8)
Ag1F Ag 0.2099(7) 0.0853(18) 0.8049(8)
N4D N 0.3704(6) -0.4686(14) 0.9605(7)
H1D H 0.4056(16) -0.259(4) 0.877(2)
C5D C 0.4122(9) -0.468(2) 1.1318(10)
H2D H 0.485(2) -0.258(3) 1.170(2)
Ag1D Ag 0.7099(7) -0.0853(18) 0.6951(8)
Ag1B Ag 0.7901(7) -0.0853(18) 1.1951(8)
Ag1C Ag 0.7099(7) 0.5853(18) 1.1951(8)
C6D C 0.3719(10) -0.538(2) 1.0488(11)
Ag1G Ag 0.2901(7) -0.5853(18) 0.8049(8)
H3D H 0.417(2) -0.530(4) 1.206(3)
C4E C 0.8257(8) 0.5732(17) 1.1248(8)
C1C C 0.6148(7) 0.5778(19) 1.3035(8)
H4D H 0.340(3) -0.658(5) 1.056(3)
C4A C 0.1743(8) -0.5732(17) 0.8752(8)
C1G C 0.3852(7) -0.5778(19) 0.6965(8)
loop_
_geom_bond_atom_site_label_1
_geom_bond_atom_site_label_2
_geom_bond_site_symmetry_1
_geom_bond_site_symmetry_2
Ag1 C1 1_555 1_555
C1 N1 1_555 1_555
N1 Fe1 1_555 1_555
Fe1 N2 1_555 1_555
N2 C2 1_555 1_555
N3 Fe1 1_555 1_555
C2 N4 1_555 1_555
C3 N2 1_555 1_555
C4 N3 1_555 1_555
N4 C6 1_555 1_555
H1 C2 1_555 1_555
C5 C3 1_555 1_555
H2 C3 1_555 1_555
C6 C5 1_555 1_555
H3 C5 1_555 1_555
H4 C6 1_555 1_555
N2D Fe1 1_555 1_555
N1D Fe1 1_555 1_555
N3D Fe1 1_555 1_555
C2D N2D 1_555 1_555
C3D N2D 1_555 1_555
C1D N1D 1_555 1_555
C4D N3D 1_555 1_555
Ag1F C4 1_555 1_555
N4D C2D 1_555 1_555
H1D C2D 1_555 1_555
C5D C3D 1_555 1_555
H2D C3D 1_555 1_555
Ag1D C1D 1_555 1_555
Ag1B C4D 1_555 1_555
Ag1C N4 1_555 1_555
C6D N4D 1_555 1_555
Ag1G N4D 1_555 1_555
H3D C5D 1_555 1_555
C4E Ag1C 1_555 1_555
C1C Ag1C 1_555 1_555
H4D C6D 1_555 1_555
C4A Ag1G 1_555 1_555
C1G Ag1G 1_555 1_555
C5D C6D 1_555 1_555

#END
