
#######################################################################
#
#                 Cambridge Crystallographic Data Centre
#                                CCDC 
#
#######################################################################
#
# If this CIF has been generated from an entry in the Cambridge 
# Structural Database, then it will include bibliographic, chemical, 
# crystal, experimental, refinement or atomic coordinate data resulting 
# from the CCDC's data processing and validation procedures.
#
#######################################################################

data_XAXVAU12
_symmetry_cell_setting           orthorhombic
_symmetry_space_group_name_H-M   'P c c n'
_symmetry_Int_Tables_number      56
_space_group_name_Hall           '-P 2ab 2ac'
loop_
_symmetry_equiv_pos_site_id
_symmetry_equiv_pos_as_xyz
1 x,y,z
2 1/2-x,1/2-y,z
3 1/2+x,-y,1/2-z
4 -x,1/2+y,1/2-z
5 -x,-y,-z
6 1/2+x,1/2+y,-z
7 1/2-x,y,1/2+z
8 x,1/2-y,1/2+z
_cell_length_a                   15.780(3)
_cell_length_b                   8.200(3)
_cell_length_c                   13.240(3)
_cell_angle_alpha                90
_cell_angle_beta                 90
_cell_angle_gamma                90
_cell_volume                     1713.2
loop_
_atom_site_label
_atom_site_type_symbol
_atom_site_fract_x
_atom_site_fract_y
_atom_site_fract_z
Ag1 Ag 0.2919(6) 0.0837(16) 1.3055(7)
C1 C 0.3866(6) 0.0818(14) 1.1971(6)
N1 N 0.4365(4) 0.0707(11) 1.1344(5)
Fe1 Fe 0.5000 0.0000 1.0000
N2 N 0.5520(5) 0.2464(9) 0.9761(5)
N3 N 0.3906(4) 0.0607(11) 0.9153(5)
C2 C 0.5952(6) 0.3251(15) 1.0484(7)
C3 C 0.5486(7) 0.3201(17) 0.8839(8)
C4 C 0.3272(6) 0.0750(13) 0.8738(7)
N4 N 0.6309(5) 0.4692(11) 1.0406(6)
H1 H 0.5943(15) 0.264(3) 1.1198(18)
C5 C 0.5862(7) 0.4690(16) 0.8683(8)
H2 H 0.5158(18) 0.258(3) 0.8284(19)
C6 C 0.6289(8) 0.5408(17) 0.9490(9)
H3 H 0.584(2) 0.527(4) 0.794(2)
H4 H 0.6606(18) 0.655(4) 0.9430(19)
N2D N 0.4480(5) -0.2464(9) 1.0239(5)
N1D N 0.5635(4) -0.0707(11) 0.8656(5)
N3D N 0.6094(4) -0.0607(11) 1.0847(5)
C2D C 0.4048(6) -0.3251(15) 0.9516(7)
C3D C 0.4514(7) -0.3201(17) 1.1161(8)
C1D C 0.6134(6) -0.0818(14) 0.8029(6)
C4D C 0.6728(6) -0.0750(13) 1.1262(7)
Ag1F Ag 0.2081(6) 0.0837(16) 0.8055(7)
N4D N 0.3691(5) -0.4692(11) 0.9594(6)
H1D H 0.4057(15) -0.264(3) 0.8802(18)
C5D C 0.4138(7) -0.4690(16) 1.1317(8)
H2D H 0.4842(18) -0.258(3) 1.1716(19)
Ag1D Ag 0.7081(6) -0.0837(16) 0.6945(7)
Ag1B Ag 0.7919(6) -0.0837(16) 1.1945(7)
Ag1C Ag 0.7081(6) 0.5837(16) 1.1945(7)
C6D C 0.3711(8) -0.5408(17) 1.0510(9)
Ag1G Ag 0.2919(6) -0.5837(16) 0.8055(7)
H3D H 0.416(2) -0.527(4) 1.206(2)
C4E C 0.8272(6) 0.5750(13) 1.1262(7)
C1C C 0.6134(6) 0.5818(14) 1.3029(6)
H4D H 0.3394(18) -0.655(4) 1.0570(19)
C4A C 0.1728(6) -0.5750(13) 0.8738(7)
C1G C 0.3866(6) -0.5818(14) 0.6971(6)
loop_
_geom_bond_atom_site_label_1
_geom_bond_atom_site_label_2
_geom_bond_site_symmetry_1
_geom_bond_site_symmetry_2
Ag1 C1 1_555 1_555
C1 N1 1_555 1_555
N1 Fe1 1_555 1_555
Fe1 N2 1_555 1_555
N2 C2 1_555 1_555
N3 Fe1 1_555 1_555
C2 N4 1_555 1_555
C3 N2 1_555 1_555
C4 N3 1_555 1_555
N4 C6 1_555 1_555
H1 C2 1_555 1_555
C5 C3 1_555 1_555
H2 C3 1_555 1_555
C6 C5 1_555 1_555
H3 C5 1_555 1_555
H4 C6 1_555 1_555
N2D Fe1 1_555 1_555
N1D Fe1 1_555 1_555
N3D Fe1 1_555 1_555
C2D N2D 1_555 1_555
C3D N2D 1_555 1_555
C1D N1D 1_555 1_555
C4D N3D 1_555 1_555
Ag1F C4 1_555 1_555
N4D C2D 1_555 1_555
H1D C2D 1_555 1_555
C5D C3D 1_555 1_555
H2D C3D 1_555 1_555
Ag1D C1D 1_555 1_555
Ag1B C4D 1_555 1_555
Ag1C N4 1_555 1_555
C6D N4D 1_555 1_555
Ag1G N4D 1_555 1_555
H3D C5D 1_555 1_555
C4E Ag1C 1_555 1_555
C1C Ag1C 1_555 1_555
H4D C6D 1_555 1_555
C4A Ag1G 1_555 1_555
C1G Ag1G 1_555 1_555
C5D C6D 1_555 1_555

#END
