
#######################################################################
#
#                 Cambridge Crystallographic Data Centre
#                                CCDC 
#
#######################################################################
#
# If this CIF has been generated from an entry in the Cambridge 
# Structural Database, then it will include bibliographic, chemical, 
# crystal, experimental, refinement or atomic coordinate data resulting 
# from the CCDC's data processing and validation procedures.
#
#######################################################################

data_XAXVAU06
_symmetry_cell_setting           orthorhombic
_symmetry_space_group_name_H-M   'P c c n'
_symmetry_Int_Tables_number      56
_space_group_name_Hall           '-P 2ab 2ac'
loop_
_symmetry_equiv_pos_site_id
_symmetry_equiv_pos_as_xyz
1 x,y,z
2 1/2-x,1/2-y,z
3 1/2+x,-y,1/2-z
4 -x,1/2+y,1/2-z
5 -x,-y,-z
6 1/2+x,1/2+y,-z
7 1/2-x,y,1/2+z
8 x,1/2-y,1/2+z
_cell_length_a                   15.782(3)
_cell_length_b                   8.235(3)
_cell_length_c                   13.319(3)
_cell_angle_alpha                90
_cell_angle_beta                 90
_cell_angle_gamma                90
_cell_volume                     1731
loop_
_atom_site_label
_atom_site_type_symbol
_atom_site_fract_x
_atom_site_fract_y
_atom_site_fract_z
Ag1 Ag 0.2915(4) 0.0843(11) 1.3041(6)
C1 C 0.3858(4) 0.0805(11) 1.1973(5)
N1 N 0.4359(3) 0.0709(8) 1.1342(4)
Fe1 Fe 0.5000 0.0000 1.0000
N2 N 0.5530(4) 0.2461(7) 0.9759(4)
N3 N 0.3907(3) 0.0604(8) 0.9147(4)
C2 C 0.5932(5) 0.3246(11) 1.0485(6)
C3 C 0.5496(5) 0.3200(12) 0.8861(7)
C4 C 0.3268(5) 0.0757(10) 0.8742(5)
N4 N 0.6307(4) 0.4688(9) 1.0403(5)
H1 H 0.5947(13) 0.265(2) 1.1221(14)
C5 C 0.5869(6) 0.4671(12) 0.8703(7)
H2 H 0.5157(14) 0.258(2) 0.8279(15)
C6 C 0.6297(6) 0.5398(14) 0.9508(7)
H3 H 0.5845(15) 0.528(3) 0.793(2)
H4 H 0.6609(16) 0.655(3) 0.9432(16)
N2D N 0.4470(4) -0.2461(7) 1.0241(4)
N1D N 0.5641(3) -0.0709(8) 0.8658(4)
N3D N 0.6093(3) -0.0604(8) 1.0853(4)
C2D C 0.4068(5) -0.3246(11) 0.9515(6)
C3D C 0.4504(5) -0.3200(12) 1.1139(7)
C1D C 0.6142(4) -0.0805(11) 0.8027(5)
C4D C 0.6732(5) -0.0757(10) 1.1258(5)
Ag1F Ag 0.2085(4) 0.0843(11) 0.8041(6)
N4D N 0.3693(4) -0.4688(9) 0.9597(5)
H1D H 0.4053(13) -0.265(2) 0.8779(14)
C5D C 0.4131(6) -0.4671(12) 1.1297(7)
H2D H 0.4843(14) -0.258(2) 1.1721(15)
Ag1D Ag 0.7085(4) -0.0843(11) 0.6959(6)
Ag1B Ag 0.7915(4) -0.0843(11) 1.1959(6)
Ag1C Ag 0.7085(4) 0.5843(11) 1.1959(6)
C6D C 0.3703(6) -0.5398(14) 1.0492(7)
Ag1G Ag 0.2915(4) -0.5843(11) 0.8041(6)
H3D H 0.4155(15) -0.528(3) 1.207(2)
C4E C 0.8268(5) 0.5757(10) 1.1258(5)
C1C C 0.6142(4) 0.5805(11) 1.3027(5)
H4D H 0.3391(16) -0.655(3) 1.0568(16)
C4A C 0.1732(5) -0.5757(10) 0.8742(5)
C1G C 0.3858(4) -0.5805(11) 0.6973(5)
loop_
_geom_bond_atom_site_label_1
_geom_bond_atom_site_label_2
_geom_bond_site_symmetry_1
_geom_bond_site_symmetry_2
Ag1 C1 1_555 1_555
C1 N1 1_555 1_555
N1 Fe1 1_555 1_555
Fe1 N2 1_555 1_555
N2 C2 1_555 1_555
N3 Fe1 1_555 1_555
C2 N4 1_555 1_555
C3 N2 1_555 1_555
C4 N3 1_555 1_555
N4 C6 1_555 1_555
H1 C2 1_555 1_555
C5 C3 1_555 1_555
H2 C3 1_555 1_555
C6 C5 1_555 1_555
H3 C5 1_555 1_555
H4 C6 1_555 1_555
N2D Fe1 1_555 1_555
N1D Fe1 1_555 1_555
N3D Fe1 1_555 1_555
C2D N2D 1_555 1_555
C3D N2D 1_555 1_555
C1D N1D 1_555 1_555
C4D N3D 1_555 1_555
Ag1F C4 1_555 1_555
N4D C2D 1_555 1_555
H1D C2D 1_555 1_555
C5D C3D 1_555 1_555
H2D C3D 1_555 1_555
Ag1D C1D 1_555 1_555
Ag1B C4D 1_555 1_555
Ag1C N4 1_555 1_555
C6D N4D 1_555 1_555
Ag1G N4D 1_555 1_555
H3D C5D 1_555 1_555
C4E Ag1C 1_555 1_555
C1C Ag1C 1_555 1_555
H4D C6D 1_555 1_555
C4A Ag1G 1_555 1_555
C1G Ag1G 1_555 1_555
C5D C6D 1_555 1_555

#END
