
#######################################################################
#
#                 Cambridge Crystallographic Data Centre
#                                CCDC 
#
#######################################################################
#
# If this CIF has been generated from an entry in the Cambridge 
# Structural Database, then it will include bibliographic, chemical, 
# crystal, experimental, refinement or atomic coordinate data resulting 
# from the CCDC's data processing and validation procedures.
#
#######################################################################

data_XAXVAU02
_symmetry_cell_setting           monoclinic
_symmetry_space_group_name_H-M   'C 2/c'
_symmetry_Int_Tables_number      15
_space_group_name_Hall           '-C 2yn'
loop_
_symmetry_equiv_pos_site_id
_symmetry_equiv_pos_as_xyz
1 x,y,z
2 1/2+x,1/2+y,z
3 -x,y,1/2-z
4 1/2-x,1/2+y,1/2-z
5 -x,-y,-z
6 1/2-x,1/2-y,-z
7 x,-y,1/2+z
8 1/2+x,1/2-y,1/2+z
_cell_length_a                   6.9750(3)
_cell_length_b                   16.1700(9)
_cell_length_c                   14.2020(8)
_cell_angle_alpha                90
_cell_angle_beta                 97.954(2)
_cell_angle_gamma                90
_cell_volume                     1586.37
loop_
_atom_site_label
_atom_site_type_symbol
_atom_site_fract_x
_atom_site_fract_y
_atom_site_fract_z
Fe1 Fe 0.0000 0.0000 0.0000
N1 N 0.1913(7) -0.2273(3) 0.1634(4)
C1 C -0.2916(8) -0.1249(4) -0.1367(4)
C2 C 0.3549(8) -0.1289(4) 0.0418(4)
H1 H 0.4122 -0.0950 0.0007
C3 C 0.4504(9) -0.1991(4) 0.0772(5)
H2 H 0.5703 -0.2135 0.0605
C4 C 0.3609(9) -0.2471(4) 0.1383(4)
H3 H 0.4219 -0.2951 0.1628
C5 C -0.2865(8) -0.0173(4) 0.1626(4)
C6 C 0.1109(8) -0.1586(4) 0.1262(4)
H4 H -0.0074 -0.1439 0.1446
N2 N -0.1789(7) -0.0099(3) 0.1089(4)
N3 N -0.1871(7) -0.0883(3) -0.0833(3)
N4 N 0.1819(6) -0.1079(3) 0.0648(3)
Ag1 Ag -0.5000 -0.01364(4) 0.2500
Ag2 Ag 0.0000 -0.32829(4) 0.2500
N1B N -0.1913(7) -0.2273(3) 0.3366(4)
N1D N -0.1913(7) 0.2273(3) -0.1634(4)
C1E C -0.2084(8) -0.3751(4) 0.1367(4)
C1G C 0.2084(8) -0.3751(4) 0.3633(4)
C1D C 0.2916(8) 0.1249(4) 0.1367(4)
C2D C -0.3549(8) 0.1289(4) -0.0418(4)
H1D H -0.4122 0.0950 -0.0007
C3D C -0.4504(9) 0.1991(4) -0.0772(5)
H2D H -0.5703 0.2135 -0.0605
C4D C -0.3609(9) 0.2471(4) -0.1383(4)
H3D H -0.4219 0.2951 -0.1628
C5B C -0.7135(8) -0.0173(4) 0.3374(4)
C5D C 0.2865(8) 0.0173(4) -0.1626(4)
C6D C -0.1109(8) 0.1586(4) -0.1262(4)
H4D H 0.0074 0.1439 -0.1446
N2D N 0.1789(7) 0.0099(3) -0.1089(4)
N3D N 0.1871(7) 0.0883(3) 0.0833(3)
N4D N -0.1819(6) 0.1079(3) -0.0648(3)
Ag1F Ag 0.5000 0.01364(4) -0.2500
Ag2G Ag -0.5000 -0.17171(4) -0.2500
Ag2A Ag 0.5000 0.17171(4) 0.2500
Ag2F Ag 0.0000 0.32829(4) -0.2500
loop_
_geom_bond_atom_site_label_1
_geom_bond_atom_site_label_2
_geom_bond_site_symmetry_1
_geom_bond_site_symmetry_2
Fe1 N2 1_555 1_555
N1 C4 1_555 1_555
C1 N3 1_555 1_555
C2 H1 1_555 1_555
C3 C2 1_555 1_555
H2 C3 1_555 1_555
C4 C3 1_555 1_555
H3 C4 1_555 1_555
C5 N2 1_555 1_555
C6 N1 1_555 1_555
H4 C6 1_555 1_555
N3 Fe1 1_555 1_555
N4 Fe1 1_555 1_555
Ag1 C5 1_555 1_555
Ag2 N1 1_555 1_555
N1B Ag2 1_555 1_555
N1D C4D 1_555 1_555
C1E Ag2 1_555 1_555
C1G Ag2 1_555 1_555
C1D N3D 1_555 1_555
C2D H1D 1_555 1_555
C3D C2D 1_555 1_555
H2D C3D 1_555 1_555
C4D C3D 1_555 1_555
H3D C4D 1_555 1_555
C5B Ag1 1_555 1_555
C5D N2D 1_555 1_555
C6D N1D 1_555 1_555
H4D C6D 1_555 1_555
N2D Fe1 1_555 1_555
N3D Fe1 1_555 1_555
N4D Fe1 1_555 1_555
Ag1F C5D 1_555 1_555
Ag2G C1 1_555 1_555
Ag2A C1D 1_555 1_555
Ag2F N1D 1_555 1_555
C2 N4 1_555 1_555
C6 N4 1_555 1_555
C2D N4D 1_555 1_555
C6D N4D 1_555 1_555

#END
