
#######################################################################
#
#                 Cambridge Crystallographic Data Centre
#                                CCDC 
#
#######################################################################
#
# If this CIF has been generated from an entry in the Cambridge 
# Structural Database, then it will include bibliographic, chemical, 
# crystal, experimental, refinement or atomic coordinate data resulting 
# from the CCDC's data processing and validation procedures.
#
#######################################################################

data_XAXVAU08
_symmetry_cell_setting           orthorhombic
_symmetry_space_group_name_H-M   'P c c n'
_symmetry_Int_Tables_number      56
_space_group_name_Hall           '-P 2ab 2ac'
loop_
_symmetry_equiv_pos_site_id
_symmetry_equiv_pos_as_xyz
1 x,y,z
2 1/2-x,1/2-y,z
3 1/2+x,-y,1/2-z
4 -x,1/2+y,1/2-z
5 -x,-y,-z
6 1/2+x,1/2+y,-z
7 1/2-x,y,1/2+z
8 x,1/2-y,1/2+z
_cell_length_a                   14.895(3)
_cell_length_b                   8.125(3)
_cell_length_c                   13.286(3)
_cell_angle_alpha                90
_cell_angle_beta                 90
_cell_angle_gamma                90
_cell_volume                     1607.9
loop_
_atom_site_label
_atom_site_type_symbol
_atom_site_fract_x
_atom_site_fract_y
_atom_site_fract_z
Ag1 Ag 0.7059(7) 0.0869(15) -0.3036(7)
C1 C 0.6111(6) 0.0859(13) -0.1884(7)
N1 N 0.5640(4) 0.0670(10) -0.1198(4)
Fe1 Fe 0.5000 0.0000 0.0000
N2 N 0.6048(4) 0.0531(11) 0.0781(5)
N3 N 0.4508(5) 0.2259(10) 0.0222(5)
C2 C 0.6704(6) 0.0729(14) 0.1241(6)
C3 C 0.4125(6) 0.3112(14) -0.0531(6)
C4 C 0.4513(6) 0.2986(15) 0.1133(7)
N4 N 0.3751(5) 0.4576(12) -0.0434(5)
H1 H 0.4167(14) 0.257(2) -0.1281(14)
C5 C 0.4107(7) 0.4509(15) 0.1293(8)
H2 H 0.4848(16) 0.236(2) 0.1755(16)
C6 C 0.3704(9) 0.5225(18) 0.0466(8)
H3 H 0.4070(17) 0.503(3) 0.2006(16)
H4 H 0.3363(18) 0.641(4) 0.0529(16)
N2D N 0.3952(4) -0.0531(11) -0.0781(5)
N1D N 0.4360(4) -0.0670(10) 0.1198(4)
N3D N 0.5492(5) -0.2259(10) -0.0222(5)
C2D C 0.3296(6) -0.0729(14) -0.1241(6)
C1D C 0.3889(6) -0.0859(13) 0.1884(7)
C3D C 0.5875(6) -0.3112(14) 0.0531(6)
C4D C 0.5487(6) -0.2986(15) -0.1133(7)
Ag1F Ag 0.7941(7) 0.0869(15) 0.1964(7)
Ag1B Ag 0.2059(7) -0.0869(15) -0.1964(7)
Ag1D Ag 0.2941(7) -0.0869(15) 0.3036(7)
N4D N 0.6249(5) -0.4576(12) 0.0434(5)
H1D H 0.5833(14) -0.257(2) 0.1281(14)
C5D C 0.5893(7) -0.4509(15) -0.1293(8)
H2D H 0.5152(16) -0.236(2) -0.1755(16)
Ag1C Ag 0.2941(7) 0.5869(15) -0.1964(7)
C6D C 0.6296(9) -0.5225(18) -0.0466(8)
Ag1G Ag 0.7059(7) -0.5869(15) 0.1964(7)
H3D H 0.5930(17) -0.503(3) -0.2006(16)
C1C C 0.3889(6) 0.5859(13) -0.3116(7)
C2E C 0.1704(6) 0.5729(14) -0.1241(6)
H4D H 0.6637(18) -0.641(4) -0.0529(16)
C1G C 0.6111(6) -0.5859(13) 0.3116(7)
C2A C 0.8296(6) -0.5729(14) 0.1241(6)
loop_
_geom_bond_atom_site_label_1
_geom_bond_atom_site_label_2
_geom_bond_site_symmetry_1
_geom_bond_site_symmetry_2
Ag1 C1 1_555 1_555
C1 N1 1_555 1_555
N1 Fe1 1_555 1_555
Fe1 N2 1_555 1_555
N2 C2 1_555 1_555
N3 Fe1 1_555 1_555
C2 Ag1F 1_555 1_555
C3 N3 1_555 1_555
C4 N3 1_555 1_555
N4 C3 1_555 1_555
H1 C3 1_555 1_555
C5 C4 1_555 1_555
H2 C4 1_555 1_555
C6 N4 1_555 1_555
H3 C5 1_555 1_555
H4 C6 1_555 1_555
N2D Fe1 1_555 1_555
N1D Fe1 1_555 1_555
N3D Fe1 1_555 1_555
C2D N2D 1_555 1_555
C1D N1D 1_555 1_555
C3D N3D 1_555 1_555
C4D N3D 1_555 1_555
Ag1B C2D 1_555 1_555
Ag1D C1D 1_555 1_555
N4D C3D 1_555 1_555
H1D C3D 1_555 1_555
C5D C4D 1_555 1_555
H2D C4D 1_555 1_555
Ag1C N4 1_555 1_555
C6D N4D 1_555 1_555
Ag1G N4D 1_555 1_555
H3D C5D 1_555 1_555
C1C Ag1C 1_555 1_555
C2E Ag1C 1_555 1_555
H4D C6D 1_555 1_555
C1G Ag1G 1_555 1_555
C2A Ag1G 1_555 1_555
C5 C6 1_555 1_555
C5D C6D 1_555 1_555

#END
