
#######################################################################
#
#                 Cambridge Crystallographic Data Centre
#                                CCDC 
#
#######################################################################
#
# If this CIF has been generated from an entry in the Cambridge 
# Structural Database, then it will include bibliographic, chemical, 
# crystal, experimental, refinement or atomic coordinate data resulting 
# from the CCDC's data processing and validation procedures.
#
#######################################################################

data_XAXVUO
_symmetry_cell_setting           triclinic
_symmetry_space_group_name_H-M   'P -1'
_symmetry_Int_Tables_number      2
_space_group_name_Hall           '-P 1'
loop_
_symmetry_equiv_pos_site_id
_symmetry_equiv_pos_as_xyz
1 x,y,z
2 -x,-y,-z
_cell_length_a                   7.384(1)
_cell_length_b                   11.296(1)
_cell_length_c                   16.211(1)
_cell_angle_alpha                93.54(1)
_cell_angle_beta                 94.13(1)
_cell_angle_gamma                106.72(1)
_cell_volume                     1286.8
loop_
_atom_site_label
_atom_site_type_symbol
_atom_site_fract_x
_atom_site_fract_y
_atom_site_fract_z
Cu1 Cu 0.8382(1) 0.41903(8) 0.80672(5)
Cu2 Cu 0.6763(1) 0.45163(8) 0.63225(5)
Cu3 Cu 0.9853(1) 0.71979(8) 0.74119(5)
Na1 Na 0.2216(4) 0.1107(2) 0.9798(2)
Na2 Na 0.1795(4) 0.0265(3) 0.7663(2)
Na3 Na 0.2838(6) 0.0489(4) 0.5574(2)
O1 O 0.9147(7) 0.3611(4) 0.6769(3)
O4 O 0.3750(7) 0.0528(5) 1.1036(3)
O5 O 0.3701(6) 0.3161(4) 1.0326(3)
O6 O -0.0233(7) 0.1119(5) 0.8496(3)
O7 O 0.4125(8) -0.0201(5) 0.6796(4)
O8 O 0.610(1) 0.1417(7) 0.4972(5)
O10 O 0.6945(7) 0.2520(4) 0.8259(3)
O11 O 0.4417(7) 0.1290(5) 0.8731(3)
O12 O 0.6234(6) 0.4550(4) 0.7480(3)
O13 O 0.4817(7) 0.2930(4) 0.6197(3)
O14 O 0.2379(8) 0.1836(5) 0.6796(4)
O15 O 0.6924(7) 0.4371(5) 0.5144(3)
O16 O 0.7812(7) 0.4998(5) 0.3941(3)
O17 O 0.8340(7) 0.6183(4) 0.6473(3)
O18 O 0.9825(7) 0.8571(4) 0.6771(3)
O19 O 0.8811(9) 0.9117(5) 0.5600(3)
O20 O 1.1181(7) 0.8454(4) 0.8302(3)
O21 O 1.0642(7) 0.9030(4) 0.9556(3)
O22 O 0.9907(6) 0.5867(4) 0.8070(3)
O23 O 1.0376(7) 0.4001(4) 0.8834(3)
O24 O 1.2787(7) 0.5112(5) 0.9721(3)
C1 C 0.522(1) 0.2275(7) 0.8446(4)
C2 C 0.423(1) 0.3236(7) 0.8349(5)
C3 C 0.437(1) 0.3748(7) 0.7532(5)
C4 C 0.377(1) 0.2754(7) 0.6785(5)
C5 C 0.775(1) 0.5216(7) 0.4691(5)
C6 C 0.871(1) 0.6529(8) 0.5059(5)
C7 C 0.801(1) 0.6940(8) 0.5808(5)
C8 C 0.895(1) 0.8311(7) 0.6049(5)
C9 C 1.0948(9) 0.8272(6) 0.9053(4)
C10 C 1.111(1) 0.7056(7) 0.9371(4)
C11 C 1.144(1) 0.6172(7) 0.8726(4)
C12 C 1.153(1) 0.4994(7) 0.9124(5)
H1 H 0.8905 0.2863 0.6648
H2 H 1.0223 0.3964 0.6656
H7 H 0.5086 0.0860 1.1046
H8 H 0.3353 0.0893 1.1524
H9 H 0.4855 0.3288 1.0376
H10 H 0.3429 0.3635 1.0008
H11 H -0.0282 0.1809 0.8386
H12 H -0.1312 0.0659 0.8510
H13 H 0.4055 -0.0939 0.6750
H14 H 0.5220 0.0209 0.6950
H15 H 0.6799 0.1960 0.5304
H16 H 0.5927 0.1713 0.4533
H17 H 0.3524 0.4243 0.7499
H18 H 0.6684 0.6804 0.5703
H19 H 1.2641 0.6457 0.8406
H20 H 0.2932 0.2877 0.8419
H21 H 0.4779 0.3896 0.8765
H22 H 0.8578 0.7067 0.4647
H23 H 1.0017 0.6602 0.5184
H24 H 1.2143 0.7248 0.9792
H25 H 0.9966 0.6664 0.9603
Na1_2 Na 1.2216(4) 1.1107(2) 0.9798(2)
Na1A Na 0.7784(4) 0.8893(2) 1.0202(2)
Na2_2 Na 1.1795(4) 1.0265(3) 0.7663(2)
Na3A Na 0.7162(6) -0.0489(4) 0.4426(2)
Na3A_2 Na 0.7162(6) 0.9511(4) 0.4426(2)
O8A O 0.390(1) -0.1417(7) 0.5028(5)
O18_2 O -0.0175(7) -0.1429(4) 0.6771(3)
O19A O 0.1189(9) 0.0883(5) 0.4400(3)
O20_2 O 0.1181(7) -0.1546(4) 0.8302(3)
O21_2 O 0.0642(7) -0.0970(4) 0.9556(3)
O21A O -0.0642(7) 0.0970(4) 1.0444(3)
H15A H 0.3201 -0.1960 0.4696
H16A H 0.4073 -0.1713 0.5467
O2 O 0.6296(7) 0.6953(4) 0.7974(3)
H3 H 0.6327 0.6274 0.7750
H4 H 0.7382 0.7308 0.8127
O3 O 1.344(1) 0.7289(5) 0.6848(4)
H5 H 1.2900 0.6900 0.6400
H6 H 1.3900 0.6800 0.7100
O9 O 0.7979(8) 0.0985(5) 0.6689(4)
loop_
_geom_bond_atom_site_label_1
_geom_bond_atom_site_label_2
_geom_bond_site_symmetry_1
_geom_bond_site_symmetry_2
Cu1 O1 1_555 1_555
Cu2 O1 1_555 1_555
Cu3 O17 1_555 1_555
Na1 O4 1_555 1_555
Na2 O6 1_555 1_555
Na3 O7 1_555 1_555
O1 H1 1_555 1_555
O2 H3 1_555 1_555
O3 H5 1_555 1_555
O4 H7 1_555 1_555
O5 Na1 1_555 1_555
O6 Na1 1_555 1_555
O7 Na2 1_555 1_555
O8 Na3 1_555 1_555
O10 Cu1 1_555 1_555
O11 Na1 1_555 1_555
O12 Cu1 1_555 1_555
O13 Cu2 1_555 1_555
O14 Na2 1_555 1_555
O15 Cu2 1_555 1_555
O16 C5 1_555 1_555
O17 Cu2 1_555 1_555
O18 Cu3 1_555 1_555
O19 C8 1_555 1_555
O20 Cu3 1_555 1_555
O21 C9 1_555 1_555
O22 Cu1 1_555 1_555
O23 Cu1 1_555 1_555
O24 C12 1_555 1_555
C1 O10 1_555 1_555
C2 C1 1_555 1_555
C3 O12 1_555 1_555
C4 O13 1_555 1_555
C5 O15 1_555 1_555
C6 C5 1_555 1_555
C7 O17 1_555 1_555
C8 O18 1_555 1_555
C9 O20 1_555 1_555
C10 C9 1_555 1_555
C11 O22 1_555 1_555
C12 O23 1_555 1_555
H2 O1 1_555 1_555
H4 O2 1_555 1_555
H6 O3 1_555 1_555
H8 O4 1_555 1_555
H9 O5 1_555 1_555
H10 O5 1_555 1_555
H11 O6 1_555 1_555
H12 O6 1_555 1_555
H13 O7 1_555 1_555
H14 O7 1_555 1_555
H15 O8 1_555 1_555
H16 O8 1_555 1_555
H17 C3 1_555 1_555
H18 C7 1_555 1_555
H19 C11 1_555 1_555
H20 C2 1_555 1_555
H21 C2 1_555 1_555
H22 C6 1_555 1_555
H23 C6 1_555 1_555
H24 C10 1_555 1_555
H25 C10 1_555 1_555
Na1_2 O21 1_555 1_555
Na1A O21 1_555 1_555
Na2_2 O18 1_555 1_555
Na3A O8 1_555 1_555
Na3A_2 O19 1_555 1_555
O8A Na3 1_555 1_555
O18_2 Na2 1_555 1_555
O19A Na3 1_555 1_555
O20_2 Na2 1_555 1_555
O21_2 Na1 1_555 1_555
O21A Na1 1_555 1_555
H15A O8A 1_555 1_555
H16A O8A 1_555 1_555
Cu2 O12 1_555 1_555
Cu3 O22 1_555 1_555
Na2 O11 1_555 1_555
Na3 O14 1_555 1_555
O11 C1 1_555 1_555
O14 C4 1_555 1_555
O20 Na2_2 1_555 1_555
C2 C3 1_555 1_555
C3 C4 1_555 1_555
C6 C7 1_555 1_555
C7 C8 1_555 1_555
C10 C11 1_555 1_555
C11 C12 1_555 1_555
Na3A O8A 1_555 1_555

#END
