
#######################################################################
#
#                 Cambridge Crystallographic Data Centre
#                                CCDC 
#
#######################################################################
#
# If this CIF has been generated from an entry in the Cambridge 
# Structural Database, then it will include bibliographic, chemical, 
# crystal, experimental, refinement or atomic coordinate data resulting 
# from the CCDC's data processing and validation procedures.
#
#######################################################################

data_XAXVAU01
_symmetry_cell_setting           orthorhombic
_symmetry_space_group_name_H-M   'P c c n'
_symmetry_Int_Tables_number      56
_space_group_name_Hall           '-P 2ab 2ac'
loop_
_symmetry_equiv_pos_site_id
_symmetry_equiv_pos_as_xyz
1 x,y,z
2 1/2-x,1/2-y,z
3 1/2+x,-y,1/2-z
4 -x,1/2+y,1/2-z
5 -x,-y,-z
6 1/2+x,1/2+y,-z
7 1/2-x,y,1/2+z
8 x,1/2-y,1/2+z
_cell_length_a                   15.7700(2)
_cell_length_b                   8.2980(4)
_cell_length_c                   13.4180(6)
_cell_angle_alpha                90
_cell_angle_beta                 90
_cell_angle_gamma                90
_cell_volume                     1755.87
loop_
_atom_site_label
_atom_site_type_symbol
_atom_site_fract_x
_atom_site_fract_y
_atom_site_fract_z
Ag1 Ag 0.208989(13) 0.58413(3) 0.195973(16)
Fe1 Fe 0.0000 0.5000 0.5000
C1 C 0.09347(18) 0.1764(4) 0.5489(2)
H1 H 0.0954 0.2270 0.6107
C2 C 0.1286(2) -0.0357(4) 0.4520(3)
H2 H 0.1556 -0.1342 0.4431
C3 C 0.05080(19) 0.1802(4) 0.3877(2)
H3 H 0.0230 0.2299 0.3349
C4 C 0.11497(19) 0.5783(4) 0.3045(2)
N1 N 0.13101(17) 0.0335(3) 0.54200(19)
N2 N -0.10944(14) 0.4392(3) 0.41451(18)
N3 N 0.05342(14) 0.2542(3) 0.47629(15)
C5 C 0.0881(2) 0.0328(4) 0.3730(2)
H4 H 0.0858 -0.0184 0.3114
C6 C -0.17184(18) 0.4259(4) 0.3734(2)
N4 N 0.06498(15) 0.5715(3) 0.36591(17)
Ag1B Ag -0.291011(13) 0.41587(3) 0.304027(16)
Ag1F Ag 0.291011(13) 0.58413(3) 0.695973(16)
Ag1D Ag -0.208989(13) 0.41587(3) 0.804027(16)
Ag1G Ag 0.208989(13) -0.08413(3) 0.695973(16)
Ag1C Ag -0.208989(13) 1.08413(3) 0.304027(16)
C1D C -0.09347(18) 0.8236(4) 0.4511(2)
H1D H -0.0954 0.7730 0.3893
C2D C -0.1286(2) 1.0357(4) 0.5480(3)
H2D H -0.1556 1.1342 0.5569
C3D C -0.05080(19) 0.8198(4) 0.6123(2)
H3D H -0.0230 0.7701 0.6651
C4B C -0.38503(19) 0.4217(4) 0.1955(2)
C4D C -0.11497(19) 0.4217(4) 0.6955(2)
N1E N -0.36899(17) 0.5335(3) 0.45800(19)
N1G N 0.13101(17) 0.4665(3) 0.04200(19)
N1D N -0.13101(17) 0.9665(3) 0.45800(19)
N2D N 0.10944(14) 0.5608(3) 0.58549(18)
N3D N -0.05342(14) 0.7458(3) 0.52371(15)
C5D C -0.0881(2) 0.9672(4) 0.6270(2)
H4D H -0.0858 1.0184 0.6886
C6B C 0.32816(18) 0.5741(4) 0.1266(2)
C6D C 0.17184(18) 0.5741(4) 0.6266(2)
N4D N -0.06498(15) 0.4285(3) 0.63409(17)
loop_
_geom_bond_atom_site_label_1
_geom_bond_atom_site_label_2
_geom_bond_site_symmetry_1
_geom_bond_site_symmetry_2
Ag1 C4 1_555 1_555
Fe1 N2 1_555 1_555
C1 H1 1_555 1_555
C2 H2 1_555 1_555
C3 H3 1_555 1_555
C4 N4 1_555 1_555
N1 C1 1_555 1_555
N2 C6 1_555 1_555
N3 Fe1 1_555 1_555
C5 C2 1_555 1_555
H4 C5 1_555 1_555
C6 Ag1B 1_555 1_555
N4 Fe1 1_555 1_555
Ag1B C4B 1_555 1_555
Ag1F C6D 1_555 1_555
Ag1D C4D 1_555 1_555
Ag1G N1 1_555 1_555
Ag1C N1D 1_555 1_555
C1D H1D 1_555 1_555
C2D H2D 1_555 1_555
C3D H3D 1_555 1_555
C4D N4D 1_555 1_555
N1E Ag1B 1_555 1_555
N1G Ag1 1_555 1_555
N1D C1D 1_555 1_555
N2D Fe1 1_555 1_555
N3D Fe1 1_555 1_555
C5D C2D 1_555 1_555
H4D C5D 1_555 1_555
C6B Ag1 1_555 1_555
C6D N2D 1_555 1_555
N4D Fe1 1_555 1_555
C1 N3 1_555 1_555
C2 N1 1_555 1_555
C3 N3 1_555 1_555
C3 C5 1_555 1_555
C1D N3D 1_555 1_555
C2D N1D 1_555 1_555
C3D N3D 1_555 1_555
C3D C5D 1_555 1_555

#END
