
#######################################################################
#
#                 Cambridge Crystallographic Data Centre
#                                CCDC 
#
#######################################################################
#
# If this CIF has been generated from an entry in the Cambridge 
# Structural Database, then it will include bibliographic, chemical, 
# crystal, experimental, refinement or atomic coordinate data resulting 
# from the CCDC's data processing and validation procedures.
#
#######################################################################

data_XAYMUF
_symmetry_cell_setting           tetragonal
_symmetry_space_group_name_H-M   'P 43 21 2'
_symmetry_Int_Tables_number      96
_space_group_name_Hall           'P 4nw 2abw'
loop_
_symmetry_equiv_pos_site_id
_symmetry_equiv_pos_as_xyz
1 x,y,z
2 -x,-y,1/2+z
3 1/2-y,1/2+x,3/4+z
4 1/2+y,1/2-x,1/4+z
5 1/2-x,1/2+y,3/4-z
6 1/2+x,1/2-y,1/4-z
7 y,x,-z
8 -y,-x,1/2-z
_cell_length_a                   12.828(2)
_cell_length_b                   12.828(2)
_cell_length_c                   11.0200(10)
_cell_angle_alpha                90
_cell_angle_beta                 90
_cell_angle_gamma                90
_cell_volume                     1813.42
loop_
_atom_site_label
_atom_site_type_symbol
_atom_site_fract_x
_atom_site_fract_y
_atom_site_fract_z
Ag1 Ag -0.156800(12) -0.156800(12) 0.0000
N1 N -0.31123(16) -0.21640(16) 0.09686(19)
C1 C -0.35717(19) -0.30084(18) 0.0498(2)
C2 C -0.45323(19) -0.3347(2) 0.0907(2)
H1 H -0.4836 -0.3952 0.0558
N2 N -0.50447(17) -0.28369(16) 0.1787(2)
C3 C -0.4598(2) -0.19932(19) 0.2234(2)
H2 H -0.4949 -0.1604 0.2843
C4 C -0.36309(18) -0.1663(2) 0.1835(2)
H3 H -0.3328 -0.1061 0.2191
N1F N -0.21640(16) -0.31123(16) -0.09686(19)
N2E N -0.00447(17) -0.21631(16) 0.0713(2)
C1F C -0.30084(18) -0.35717(19) -0.0498(2)
N2B N -0.21631(16) -0.00447(17) -0.0713(2)
C4F C -0.1663(2) -0.36309(18) -0.1835(2)
C2F C -0.3347(2) -0.45323(19) -0.0907(2)
Ag1C Ag -0.656800(12) -0.343200(12) 0.2500
C3F C -0.19932(19) -0.4598(2) -0.2234(2)
H3F H -0.1061 -0.3328 -0.2191
H1F H -0.3952 -0.4836 -0.0558
N2F N -0.28369(16) -0.50447(17) -0.1787(2)
H2F H -0.1604 -0.4949 -0.2843
Ag1B Ag -0.343200(12) -0.656800(12) -0.2500
N3 N -0.52000(19) -0.8518(2) 0.2500(2)
O1 O -0.5996(2) -0.8516(3) 0.3068(3)
O2 O -0.5005(2) -0.9129(2) 0.1672(2)
C5 C -0.4399(3) -0.7730(3) 0.2786(4)
H4 H -0.4643 -0.7289 0.3454
H5 H -0.4270 -0.7298 0.2068
H6 H -0.3752 -0.8081 0.3024
P1 P -0.61566(5) -0.61566(5) 0.0000
F1 F -0.66651(19) -0.68652(18) 0.1017(2)
F2 F -0.7015(2) -0.5303(2) 0.0218(2)
F3 F -0.5452(2) -0.56433(18) 0.10123(19)
F1F F -0.68652(18) -0.66651(19) -0.1017(2)
F2F F -0.5303(2) -0.7015(2) -0.0218(2)
F3F F -0.56433(18) -0.5452(2) -0.10123(19)
loop_
_geom_bond_atom_site_label_1
_geom_bond_atom_site_label_2
_geom_bond_site_symmetry_1
_geom_bond_site_symmetry_2
Ag1 N1 1_555 1_555
N1 C1 1_555 1_555
C1 C2 1_555 1_555
C2 H1 1_555 1_555
N2 C2 1_555 1_555
C3 N2 1_555 1_555
H2 C3 1_555 1_555
C4 N1 1_555 1_555
H3 C4 1_555 1_555
N3 O1 1_555 1_555
O2 N3 1_555 1_555
C5 N3 1_555 1_555
H4 C5 1_555 1_555
H5 C5 1_555 1_555
H6 C5 1_555 1_555
P1 F1 1_555 1_555
F2 P1 1_555 1_555
F3 P1 1_555 1_555
N1F Ag1 1_555 1_555
N2E Ag1 1_555 1_555
C1F C1 1_555 1_555
N2B Ag1 1_555 1_555
F1F P1 1_555 1_555
F2F P1 1_555 1_555
F3F P1 1_555 1_555
C4F N1F 1_555 1_555
C2F C1F 1_555 1_555
Ag1C N2 1_555 1_555
C3F C4F 1_555 1_555
H3F C4F 1_555 1_555
H1F C2F 1_555 1_555
N2F C2F 1_555 1_555
H2F C3F 1_555 1_555
Ag1B N2F 1_555 1_555
C3 C4 1_555 1_555
N1F C1F 1_555 1_555
C3F N2F 1_555 1_555

#END
