
#######################################################################
#
#                 Cambridge Crystallographic Data Centre
#                                CCDC 
#
#######################################################################
#
# If this CIF has been generated from an entry in the Cambridge 
# Structural Database, then it will include bibliographic, chemical, 
# crystal, experimental, refinement or atomic coordinate data resulting 
# from the CCDC's data processing and validation procedures.
#
#######################################################################

data_XAYQET
_symmetry_cell_setting           monoclinic
_symmetry_space_group_name_H-M   'P 21/n'
_symmetry_Int_Tables_number      14
_space_group_name_Hall           '-P 2yn'
loop_
_symmetry_equiv_pos_site_id
_symmetry_equiv_pos_as_xyz
1 x,y,z
2 1/2-x,1/2+y,1/2-z
3 -x,-y,-z
4 1/2+x,1/2-y,1/2+z
_cell_length_a                   16.6647(6)
_cell_length_b                   24.7585(5)
_cell_length_c                   19.9024(7)
_cell_angle_alpha                90
_cell_angle_beta                 91.224(5)
_cell_angle_gamma                90
_cell_volume                     8209.72
loop_
_atom_site_label
_atom_site_type_symbol
_atom_site_fract_x
_atom_site_fract_y
_atom_site_fract_z
Ag1 Ag 1.24377(7) 0.19739(4) 0.63192(6)
Ag2 Ag 1.25319(7) -0.01130(4) 0.62212(5)
Ag3 Ag 1.09740(8) -0.15729(4) 0.48255(6)
Ag4 Ag 1.09399(8) 0.32981(4) 0.74112(6)
Ag5 Ag 1.25139(7) -0.31173(4) 0.37365(6)
Ag6 Ag 1.3520(1) -0.16843(5) 0.29376(7)
Ag7 Ag 1.39815(8) 0.33811(4) 0.53973(7)
Ag8 Ag 1.24942(8) -0.51386(4) 0.37544(6)
C1 C 1.1145(7) 0.0448(4) 0.7201(6)
C2 C 1.1019(7) 0.0759(4) 0.6615(6)
C3 C 1.0708(7) 0.0521(5) 0.6036(6)
C4 C 1.0543(8) -0.0032(4) 0.6033(6)
C5 C 1.0671(8) -0.0338(4) 0.6595(7)
C6 C 1.0998(8) -0.0100(4) 0.7173(6)
O1 O 1.1186(5) 0.1315(3) 0.6631(4)
C7 C 1.0513(8) 0.1632(5) 0.6840(6)
C8 C 1.0741(8) 0.2210(4) 0.6970(6)
O2 O 1.0215(6) 0.2476(3) 0.7289(5)
O3 O 1.1388(5) 0.2403(3) 0.6779(4)
S1 S 1.0462(2) 0.0919(1) 0.5308(2)
C9 C 1.1382(8) 0.1260(4) 0.5115(5)
C10 C 1.2079(7) 0.0960(4) 0.4994(5)
C11 C 1.2755(7) 0.1215(4) 0.4748(6)
C12 C 1.2731(7) 0.1771(4) 0.4626(5)
C13 C 1.2022(8) 0.2059(4) 0.4743(6)
C14 C 1.1357(8) 0.1807(4) 0.4986(6)
O4 O 1.2111(5) 0.0405(3) 0.5143(4)
C15 C 1.1868(8) 0.0069(5) 0.4587(6)
C16 C 1.1828(8) -0.0522(4) 0.4793(6)
O5 O 1.2095(5) -0.0668(3) 0.5358(4)
O6 O 1.1518(5) -0.0828(3) 0.4353(4)
S2 S 1.3627(2) 0.0848(1) 0.4528(2)
C17 C 1.3904(7) 0.0517(4) 0.5294(6)
C18 C 1.4020(7) 0.0815(4) 0.5897(6)
C19 C 1.4349(7) 0.0542(4) 0.6464(6)
C20 C 1.4544(8) -0.0010(5) 0.6430(7)
C21 C 1.4393(8) -0.0297(5) 0.5835(7)
C22 C 1.4067(7) -0.0037(5) 0.5268(6)
O7 O 1.3808(5) 0.1345(3) 0.5937(4)
C23 C 1.4451(8) 0.1704(4) 0.5772(6)
C24 C 1.4151(8) 0.2285(4) 0.5745(6)
O8 O 1.3491(5) 0.2421(3) 0.5955(4)
O9 O 1.4652(5) 0.2599(3) 0.5469(4)
S3 S 1.4594(2) 0.0910(1) 0.7206(2)
C25 C 1.3664(8) 0.1197(4) 0.7442(6)
C26 C 1.2978(8) 0.0897(4) 0.7543(6)
C27 C 1.2293(8) 0.1138(4) 0.7802(6)
C28 C 1.2293(8) 0.1683(5) 0.7969(6)
C29 C 1.2989(8) 0.1980(5) 0.7868(6)
C30 C 1.3663(8) 0.1758(5) 0.7599(6)
O10 O 1.2955(5) 0.0352(3) 0.7341(4)
C31 C 1.3207(8) -0.0017(5) 0.7867(6)
C32 C 1.3261(7) -0.0588(4) 0.7595(6)
O11 O 1.3592(5) -0.0916(3) 0.8011(4)
O12 O 1.2981(5) -0.0706(3) 0.7030(4)
S4 S 1.1422(2) 0.0749(1) 0.7987(2)
C33 C 1.3952(7) -0.4497(4) 0.2761(6)
C34 C 1.4051(7) -0.4193(4) 0.3357(6)
C35 C 1.4324(7) -0.4450(5) 0.3944(6)
C36 C 1.4513(7) -0.5004(4) 0.3929(6)
C37 C 1.4394(8) -0.5302(4) 0.3340(6)
C38 C 1.4131(7) -0.5050(4) 0.2767(6)
O13 O 1.3844(5) -0.3651(3) 0.3382(4)
C39 C 1.4472(7) -0.3298(4) 0.3151(6)
C40 C 1.4178(8) -0.2720(4) 0.3113(6)
O14 O 1.3531(5) -0.2586(3) 0.3380(4)
O15 O 1.4625(6) -0.2397(3) 0.2820(5)
S5 S 1.4543(2) -0.4083(1) 0.4689(2)
C41 C 1.3630(8) -0.3766(4) 0.4901(6)
C42 C 1.2922(8) -0.4048(4) 0.5001(6)
C43 C 1.2237(7) -0.3798(4) 0.5249(5)
C44 C 1.2266(8) -0.3250(5) 0.5397(6)
C45 C 1.2968(9) -0.2952(5) 0.5292(6)
C46 C 1.3651(9) -0.3210(5) 0.5029(6)
O16 O 1.2893(5) -0.4598(3) 0.4825(4)
C47 C 1.3085(9) -0.4947(5) 0.5396(6)
C48 C 1.3209(8) -0.5524(4) 0.5183(6)
O17 O 1.3034(6) -0.5673(3) 0.4597(4)
O18 O 1.3492(6) -0.5817(3) 0.5643(4)
S6 S 1.1353(2) -0.4160(1) 0.5433(2)
C49 C 1.1090(8) -0.4460(4) 0.4638(6)
C50 C 1.0983(7) -0.4145(4) 0.4051(6)
C51 C 1.0702(8) -0.4392(4) 0.3471(6)
C52 C 1.0505(8) -0.4936(5) 0.3472(6)
C53 C 1.0611(8) -0.5249(5) 0.4042(7)
C54 C 1.0917(8) -0.5005(4) 0.4634(6)
O19 O 1.1208(5) -0.3610(3) 0.4055(4)
C55 C 1.0552(8) -0.3254(4) 0.4223(6)
C56 C 1.0829(8) -0.2666(4) 0.4280(6)
O20 O 1.1515(5) -0.2547(3) 0.4060(4)
O21 O 1.0348(6) -0.2351(3) 0.4524(5)
S7 S 1.0508(2) -0.4005(1) 0.2729(2)
C57 C 1.1455(8) -0.3708(4) 0.2531(6)
C58 C 1.2146(8) -0.4026(4) 0.2441(5)
C59 C 1.2824(8) -0.3793(4) 0.2175(6)
C60 C 1.2837(8) -0.3246(4) 0.2005(6)
C61 C 1.2160(9) -0.2935(4) 0.2111(6)
C62 C 1.1479(8) -0.3164(4) 0.2376(6)
O22 O 1.2143(5) -0.4568(3) 0.2626(4)
C63 C 1.1891(9) -0.4923(5) 0.2077(6)
C64 C 1.1836(8) -0.5497(4) 0.2300(6)
O23 O 1.1561(6) -0.5805(3) 0.1848(4)
O24 O 1.2047(6) -0.5645(3) 0.2875(4)
S8 S 1.3682(2) -0.4182(1) 0.1982(2)
O25 O 1.0794(8) 0.3242(5) 0.8607(6)
C65 C 1.021(1) 0.2885(8) 0.8897(8)
O26 O 1.0875(9) -0.1709(5) 0.6011(6)
O27 O 1.3283(7) 0.3265(4) 0.4174(5)
O28 O 1.3161(9) -0.1688(5) 0.1650(6)
H1 H 1.0339 -0.0197 0.5634
H2 H 1.0537 -0.0711 0.6592
H3 H 1.1123 -0.0318 0.7554
H4 H 1.0310 0.1481 0.7241
H5 H 1.0109 0.1621 0.6497
H6 H 1.3191 0.1952 0.4465
H7 H 1.2003 0.2435 0.4652
H8 H 1.0882 0.2007 0.5064
H9 H 1.2244 0.0107 0.4238
H10 H 1.1353 0.0181 0.4428
H11 H 1.4776 -0.0187 0.6810
H12 H 1.4514 -0.0672 0.5815
H13 H 1.3957 -0.0235 0.4868
H14 H 1.4655 0.1607 0.5347
H15 H 1.4866 0.1674 0.6105
H16 H 1.1829 0.1849 0.8146
H17 H 1.2997 0.2351 0.7992
H18 H 1.4121 0.1975 0.7519
H19 H 1.2829 -0.0008 0.8218
H20 H 1.3719 0.0090 0.8039
H21 H 1.3304 -0.3089 0.1820
H22 H 1.2163 -0.2561 0.2001
H23 H 1.1022 -0.2945 0.2453
H24 H 1.2270 -0.4898 0.1729
H25 H 1.1380 -0.4810 0.1911
H26 H 1.4723 -0.5176 0.4322
H27 H 1.4496 -0.5679 0.3338
H28 H 1.4069 -0.5253 0.2364
H29 H 1.4632 -0.3411 0.2718
H30 H 1.4919 -0.3317 0.3455
H31 H 1.1807 -0.3076 0.5570
H32 H 1.2985 -0.2578 0.5397
H33 H 1.4120 -0.3007 0.4939
H34 H 1.2657 -0.4934 0.5702
H35 H 1.3563 -0.4820 0.5611
H36 H 1.0292 -0.5096 0.3073
H37 H 1.0480 -0.5622 0.4035
H38 H 1.1003 -0.5215 0.5028
H39 H 1.0340 -0.3364 0.4641
H40 H 1.0146 -0.3280 0.3882
H41 H 1.0235 0.2915 0.9373
H42 H 0.9687 0.2982 0.8738
H43 H 1.0321 0.2523 0.8770
O11A O 1.1408(5) 0.4084(3) 0.6989(4)
O23A O 1.3439(6) -0.0805(3) 0.3152(4)
O18_2 O 1.3492(6) 0.4183(3) 0.5643(4)
Ag4A Ag 1.40601(8) -0.17019(4) 0.75888(6)
Ag7_2 Ag 1.39815(8) -0.66189(4) 0.53973(7)
Ag6A Ag 1.1480(1) -0.66843(5) 0.20624(7)
C66 C 1.665(1) 0.1585(6) 0.5322(7)
O29 O 1.6869(7) 0.1540(4) 0.4621(5)
C67 C 0.828(1) 0.1631(7) 0.2234(8)
O30 O 0.7999(7) 0.1606(4) 0.2956(6)
C68 C 0.664(1) 0.1538(6) 0.0469(9)
O31 O 0.6225(8) 0.1027(4) 0.0627(5)
C69 C 0.521(2) 0.204(1) 0.893(1)
O32 O 0.515(1) 0.2573(7) 0.8559(7)
O33 O 0.9075(7) 0.1767(4) 0.7948(5)
O34 O 1.1837(7) -0.1619(4) 0.3232(6)
loop_
_geom_bond_atom_site_label_1
_geom_bond_atom_site_label_2
_geom_bond_site_symmetry_1
_geom_bond_site_symmetry_2
Ag1 O1 1_555 1_555
Ag2 O4 1_555 1_555
Ag3 O6 1_555 1_555
Ag4 O2 1_555 1_555
Ag5 O13 1_555 1_555
Ag6 O15 1_555 1_555
Ag7 O9 1_555 1_555
Ag8 O16 1_555 1_555
C1 C2 1_555 1_555
C2 C3 1_555 1_555
C3 C4 1_555 1_555
C4 C5 1_555 1_555
C5 C6 1_555 1_555
C6 C1 1_555 1_555
O1 C2 1_555 1_555
C7 O1 1_555 1_555
C8 C7 1_555 1_555
O2 C8 1_555 1_555
O3 Ag1 1_555 1_555
S1 C3 1_555 1_555
C9 S1 1_555 1_555
C10 C9 1_555 1_555
C11 C10 1_555 1_555
C12 C11 1_555 1_555
C13 C12 1_555 1_555
C14 C9 1_555 1_555
O4 C10 1_555 1_555
C15 O4 1_555 1_555
C16 C15 1_555 1_555
O5 Ag2 1_555 1_555
O6 C16 1_555 1_555
S2 C11 1_555 1_555
C17 S2 1_555 1_555
C18 C17 1_555 1_555
C19 C18 1_555 1_555
C20 C19 1_555 1_555
C21 C20 1_555 1_555
C22 C17 1_555 1_555
O7 Ag1 1_555 1_555
C23 O7 1_555 1_555
C24 C23 1_555 1_555
O8 Ag1 1_555 1_555
O9 C24 1_555 1_555
S3 C19 1_555 1_555
C25 S3 1_555 1_555
C26 C25 1_555 1_555
C27 C26 1_555 1_555
C28 C27 1_555 1_555
C29 C28 1_555 1_555
C30 C25 1_555 1_555
O10 Ag2 1_555 1_555
C31 O10 1_555 1_555
C32 C31 1_555 1_555
O11 C32 1_555 1_555
O12 Ag2 1_555 1_555
S4 C1 1_555 1_555
C33 C34 1_555 1_555
C34 C35 1_555 1_555
C35 C36 1_555 1_555
C36 C37 1_555 1_555
C37 C38 1_555 1_555
C38 C33 1_555 1_555
O13 C34 1_555 1_555
C39 O13 1_555 1_555
C40 C39 1_555 1_555
O14 Ag5 1_555 1_555
O15 C40 1_555 1_555
S5 C35 1_555 1_555
C41 S5 1_555 1_555
C42 C41 1_555 1_555
C43 C42 1_555 1_555
C44 C43 1_555 1_555
C45 C44 1_555 1_555
C46 C41 1_555 1_555
O16 C42 1_555 1_555
C47 O16 1_555 1_555
C48 C47 1_555 1_555
O17 Ag8 1_555 1_555
O18 C48 1_555 1_555
S6 C43 1_555 1_555
C49 S6 1_555 1_555
C50 C49 1_555 1_555
C51 C50 1_555 1_555
C52 C51 1_555 1_555
C53 C52 1_555 1_555
C54 C49 1_555 1_555
O19 Ag5 1_555 1_555
C55 O19 1_555 1_555
C56 C55 1_555 1_555
O20 Ag5 1_555 1_555
O21 Ag3 1_555 1_555
S7 C51 1_555 1_555
C57 S7 1_555 1_555
C58 C57 1_555 1_555
C59 C58 1_555 1_555
C60 C59 1_555 1_555
C61 C60 1_555 1_555
C62 C57 1_555 1_555
O22 Ag8 1_555 1_555
C63 O22 1_555 1_555
C64 C63 1_555 1_555
O23 C64 1_555 1_555
O24 Ag8 1_555 1_555
S8 C33 1_555 1_555
O25 Ag4 1_555 1_555
C65 O25 1_555 1_555
O26 Ag3 1_555 1_555
O27 Ag7 1_555 1_555
O28 Ag6 1_555 1_555
H1 C4 1_555 1_555
H2 C5 1_555 1_555
H3 C6 1_555 1_555
H4 C7 1_555 1_555
H5 C7 1_555 1_555
H6 C12 1_555 1_555
H7 C13 1_555 1_555
H8 C14 1_555 1_555
H9 C15 1_555 1_555
H10 C15 1_555 1_555
H11 C20 1_555 1_555
H12 C21 1_555 1_555
H13 C22 1_555 1_555
H14 C23 1_555 1_555
H15 C23 1_555 1_555
H16 C28 1_555 1_555
H17 C29 1_555 1_555
H18 C30 1_555 1_555
H19 C31 1_555 1_555
H20 C31 1_555 1_555
H21 C60 1_555 1_555
H22 C61 1_555 1_555
H23 C62 1_555 1_555
H24 C63 1_555 1_555
H25 C63 1_555 1_555
H26 C36 1_555 1_555
H27 C37 1_555 1_555
H28 C38 1_555 1_555
H29 C39 1_555 1_555
H30 C39 1_555 1_555
H31 C44 1_555 1_555
H32 C45 1_555 1_555
H33 C46 1_555 1_555
H34 C47 1_555 1_555
H35 C47 1_555 1_555
H36 C52 1_555 1_555
H37 C53 1_555 1_555
H38 C54 1_555 1_555
H39 C55 1_555 1_555
H40 C55 1_555 1_555
H41 C65 1_555 1_555
H42 C65 1_555 1_555
H43 C65 1_555 1_555
C66 O29 1_555 1_555
C67 O30 1_555 1_555
C68 O31 1_555 1_555
C69 O32 1_555 1_555
O11A Ag4 1_555 1_555
O23A Ag6 1_555 1_555
O18_2 Ag7 1_555 1_555
Ag4A O11 1_555 1_555
Ag7_2 O18 1_555 1_555
Ag6A O23 1_555 1_555
C8 O3 1_555 1_555
C13 C14 1_555 1_555
C16 O5 1_555 1_555
C18 O7 1_555 1_555
C21 C22 1_555 1_555
C24 O8 1_555 1_555
C26 O10 1_555 1_555
C27 S4 1_555 1_555
C29 C30 1_555 1_555
C32 O12 1_555 1_555
C40 O14 1_555 1_555
C45 C46 1_555 1_555
C48 O17 1_555 1_555
C50 O19 1_555 1_555
C53 C54 1_555 1_555
C56 O20 1_555 1_555
C56 O21 1_555 1_555
C58 O22 1_555 1_555
C59 S8 1_555 1_555
C61 C62 1_555 1_555
C64 O24 1_555 1_555

#END
