
#######################################################################
#
#                 Cambridge Crystallographic Data Centre
#                                CCDC 
#
#######################################################################
#
# If this CIF has been generated from an entry in the Cambridge 
# Structural Database, then it will include bibliographic, chemical, 
# crystal, experimental, refinement or atomic coordinate data resulting 
# from the CCDC's data processing and validation procedures.
#
#######################################################################

data_XAYYUR02
_symmetry_cell_setting           monoclinic
_symmetry_space_group_name_H-M   'P 21/n'
_symmetry_Int_Tables_number      14
_space_group_name_Hall           '-P 2yn'
loop_
_symmetry_equiv_pos_site_id
_symmetry_equiv_pos_as_xyz
1 x,y,z
2 1/2-x,1/2+y,1/2-z
3 -x,-y,-z
4 1/2+x,1/2-y,1/2+z
_cell_length_a                   5.9273(8)
_cell_length_b                   10.8818(14)
_cell_length_c                   7.7499(10)
_cell_angle_alpha                90
_cell_angle_beta                 102.187(2)
_cell_angle_gamma                90
_cell_volume                     488.601
loop_
_atom_site_label
_atom_site_type_symbol
_atom_site_fract_x
_atom_site_fract_y
_atom_site_fract_z
Zn1 Zn 1.03359(4) 0.62092(2) 0.76957(3)
P1 P 1.27766(9) 0.84855(5) 0.59744(7)
H1 H 1.1303 0.8610 0.5140
N1 N 0.7523(3) 0.60903(17) 0.5727(3)
H2 H 0.6658 0.6767 0.5755
H3 H 0.7987 0.6095 0.4694
O1 O 1.2521(3) 0.73639(15) 0.7073(2)
O2 O 1.4608(3) 0.82796(16) 0.4906(2)
O3 O 1.3227(3) 0.96113(15) 0.7131(2)
C1 C 0.6046(4) 0.5002(2) 0.5759(3)
H4 H 0.5532 0.4986 0.6867
H5 H 0.6948 0.4266 0.5699
Zn1B Zn -0.03359(4) 0.37908(2) 0.23043(3)
Zn1C Zn 1.53359(4) 0.87908(2) 0.26957(3)
Zn1A Zn 1.46641(4) 1.12092(2) 0.73043(3)
Zn1C_2 Zn 0.53359(4) 0.87908(2) 1.26957(3)
Zn1B_2 Zn 0.96641(4) 0.37908(2) 1.23043(3)
P1C P 0.77766(9) 0.65145(5) 1.09744(7)
H1C H 0.6303 0.6390 1.0140
N1B N 0.2477(3) 0.39097(17) 0.4273(3)
H2B H 0.3342 0.3233 0.4245
H3B H 0.2013 0.3905 0.5306
O1C O 0.7521(3) 0.76361(15) 1.2073(2)
O1B O -0.2521(3) 0.26361(15) 0.2927(2)
O2C O 0.9608(3) 0.67204(16) 0.9906(2)
O2A O 0.0392(3) 0.32796(16) 0.0094(2)
O3C O 0.8227(3) 0.53887(15) 1.2131(2)
O3A O 1.1773(3) 0.46113(15) 0.7869(2)
O3C_2 O -0.1773(3) 0.53887(15) 0.2131(2)
C1B C 0.3954(4) 0.4998(2) 0.4241(3)
H4B H 0.4468 0.5014 0.3133
H5B H 0.3052 0.5734 0.4301
loop_
_geom_bond_atom_site_label_1
_geom_bond_atom_site_label_2
_geom_bond_site_symmetry_1
_geom_bond_site_symmetry_2
Zn1 N1 1_555 1_555
P1 H1 1_555 1_555
N1 H2 1_555 1_555
H3 N1 1_555 1_555
O1 Zn1 1_555 1_555
O2 P1 1_555 1_555
O3 P1 1_555 1_555
C1 N1 1_555 1_555
H4 C1 1_555 1_555
H5 C1 1_555 1_555
Zn1B N1B 1_555 1_555
Zn1C O2 1_555 1_555
Zn1A O3 1_555 1_555
Zn1C_2 O1C 1_555 1_555
Zn1B_2 O3C 1_555 1_555
P1C H1C 1_555 1_555
N1B H2B 1_555 1_555
H3B N1B 1_555 1_555
O1C P1C 1_555 1_555
O1B Zn1B 1_555 1_555
O2C Zn1 1_555 1_555
O2A Zn1B 1_555 1_555
O3C P1C 1_555 1_555
O3A Zn1 1_555 1_555
O3C_2 Zn1B 1_555 1_555
C1B C1 1_555 1_555
H4B C1B 1_555 1_555
H5B C1B 1_555 1_555
P1 O1 1_555 1_555
P1C O2C 1_555 1_555
N1B C1B 1_555 1_555

#END
