
#######################################################################
#
#                 Cambridge Crystallographic Data Centre
#                                CCDC 
#
#######################################################################
#
# If this CIF has been generated from an entry in the Cambridge 
# Structural Database, then it will include bibliographic, chemical, 
# crystal, experimental, refinement or atomic coordinate data resulting 
# from the CCDC's data processing and validation procedures.
#
#######################################################################

data_XAYYUR
_symmetry_cell_setting           monoclinic
_symmetry_space_group_name_H-M   'P 21/n'
_symmetry_Int_Tables_number      14
_space_group_name_Hall           '-P 2yn'
loop_
_symmetry_equiv_pos_site_id
_symmetry_equiv_pos_as_xyz
1 x,y,z
2 1/2-x,1/2+y,1/2-z
3 -x,-y,-z
4 1/2+x,1/2-y,1/2+z
_cell_length_a                   5.9335(3)
_cell_length_b                   10.886(5)
_cell_length_c                   7.7611(4)
_cell_angle_alpha                90
_cell_angle_beta                 102.066(1)
_cell_angle_gamma                90
_cell_volume                     490.23
loop_
_atom_site_label
_atom_site_type_symbol
_atom_site_fract_x
_atom_site_fract_y
_atom_site_fract_z
Zn1 Zn 0.03319(2) -0.120860(12) -0.230510(17)
P1 P 0.22234(5) 0.15160(3) -0.09762(4)
O1 O 0.1754(2) 0.03914(9) -0.21436(16)
O2 O 0.2476(2) 0.26399(9) -0.20734(14)
O3 O -0.0393(2) -0.1724(1) -0.00985(15)
N1 N -0.2478(2) -0.1092(1) -0.42752(16)
C1 C -0.3958(2) -0.00015(12) -0.42393(18)
H1 H 0.424(4) 0.1309(18) 0.015(3)
H2 H -0.196(5) -0.111(2) -0.522(4)
H3 H -0.341(4) -0.175(2) -0.439(4)
H4 H -0.434(5) 0.004(2) -0.311(4)
H5 H -0.306(4) 0.071(3) -0.429(4)
O2A O 0.2524(2) -0.23601(9) -0.29266(14)
O3B O 0.0393(2) 0.1724(1) 0.00985(15)
P1B P -0.22234(5) -0.15160(3) 0.09762(4)
C1B C -0.6042(2) 0.00015(12) -0.57607(18)
N1B N -0.7522(2) 0.1092(1) -0.57248(16)
H4B H -0.566(5) -0.004(2) -0.689(4)
H5B H -0.694(4) -0.071(3) -0.571(4)
Zn1B Zn -1.03319(2) 0.120860(12) -0.769490(17)
H2B H -0.804(5) 0.111(2) -0.478(4)
H3B H -0.659(4) 0.175(2) -0.561(4)
Zn1A Zn 0.46681(2) 0.379140(12) -0.269490(17)
O1A O 0.3246(2) 0.53914(9) -0.28564(16)
O3A O 0.5393(2) 0.3276(1) -0.49015(15)
N1A N 0.7478(2) 0.3908(1) -0.07248(16)
Zn1B_2 Zn -0.03319(2) 0.120860(12) 0.230510(17)
O1B O -0.1754(2) -0.03914(9) 0.21436(16)
O2B O -0.2476(2) -0.26399(9) 0.20734(14)
H1B H -0.424(4) -0.1309(18) -0.015(3)
Zn1C Zn -0.46681(2) -0.379140(12) 0.269490(17)
H2A H 0.696(5) 0.389(2) 0.022(4)
H3A H 0.841(4) 0.325(2) -0.061(4)
loop_
_geom_bond_atom_site_label_1
_geom_bond_atom_site_label_2
_geom_bond_site_symmetry_1
_geom_bond_site_symmetry_2
Zn1 O1 1_555 1_555
P1 O1 1_555 1_555
O2 P1 1_555 1_555
O3 Zn1 1_555 1_555
N1 Zn1 1_555 1_555
C1 N1 1_555 1_555
H1 P1 1_555 1_555
H2 N1 1_555 1_555
H3 N1 1_555 1_555
H4 C1 1_555 1_555
H5 C1 1_555 1_555
O2A Zn1 1_555 1_555
O3B P1 1_555 1_555
P1B O3 1_555 1_555
C1B C1 1_555 1_555
N1B C1B 1_555 1_555
H4B C1B 1_555 1_555
H5B C1B 1_555 1_555
Zn1B N1B 1_555 1_555
H2B N1B 1_555 1_555
H3B N1B 1_555 1_555
Zn1A O2 1_555 1_555
O1A Zn1A 1_555 1_555
O3A Zn1A 1_555 1_555
N1A Zn1A 1_555 1_555
Zn1B_2 O3B 1_555 1_555
O1B P1B 1_555 1_555
O2B P1B 1_555 1_555
H1B P1B 1_555 1_555
Zn1C O2B 1_555 1_555
H2A N1A 1_555 1_555
H3A N1A 1_555 1_555
Zn1B_2 O1B 1_555 1_555

#END
