
#######################################################################
#
#                 Cambridge Crystallographic Data Centre
#                                CCDC 
#
#######################################################################
#
# If this CIF has been generated from an entry in the Cambridge 
# Structural Database, then it will include bibliographic, chemical, 
# crystal, experimental, refinement or atomic coordinate data resulting 
# from the CCDC's data processing and validation procedures.
#
#######################################################################

data_XAZDOR
_symmetry_cell_setting           orthorhombic
_symmetry_space_group_name_H-M   'P n m a'
_symmetry_Int_Tables_number      62
_space_group_name_Hall           '-P 2ac 2n'
loop_
_symmetry_equiv_pos_site_id
_symmetry_equiv_pos_as_xyz
1 x,y,z
2 1/2+x,y,1/2-z
3 x,1/2-y,z
4 1/2-x,1/2+y,1/2+z
5 -x,-y,-z
6 1/2-x,-y,1/2+z
7 -x,1/2+y,-z
8 1/2+x,1/2-y,1/2-z
_cell_length_a                   12.951(5)
_cell_length_b                   6.583(3)
_cell_length_c                   10.449(5)
_cell_angle_alpha                90
_cell_angle_beta                 90
_cell_angle_gamma                90
_cell_volume                     890.844
loop_
_atom_site_label
_atom_site_type_symbol
_atom_site_fract_x
_atom_site_fract_y
_atom_site_fract_z
Ag1 Ag 0.30496(4) 0.2500 0.53081(4)
N1 N 0.5056(7) 0.2500 0.6728(10)
N2 N 0.3172(4) 0.2500 0.3018(5)
N3 N 0.2765(3) 0.0626(5) 0.1048(3)
N4 N 0.4396(4) 0.2500 0.1235(5)
C1 C 0.2681(3) 0.0679(6) 0.2464(4)
H1 H 0.1968 0.0643 0.2711
H2 H 0.3011 -0.0510 0.2805
C2 C 0.4281(5) 0.2500 0.2623(6)
H3 H 0.4614 0.1319 0.2971
C3 C 0.3886(3) 0.0689(7) 0.0712(4)
H4 H 0.3968 0.0665 -0.0202
H5 H 0.4212 -0.0504 0.1054
C4 C 0.2285(6) 0.2500 0.0537(6)
H6 H 0.1563 0.2500 0.0747
H7 H 0.2346 0.2500 -0.0379
O1 O 0.4920(7) 0.2500 0.5619(9)
O2 O 0.4248(6) 0.2500 0.7414(7)
C1B C 0.2681(3) 0.4321(6) 0.2464(4)
N3B N 0.2765(3) 0.4374(5) 0.1048(3)
C3B C 0.3886(3) 0.4311(7) 0.0712(4)
H4B H 0.3968 0.4335 -0.0202
H5B H 0.4212 0.5504 0.1054
H1B H 0.1968 0.4357 0.2711
H2B H 0.3011 0.5510 0.2805
H3B H 0.4614 0.3681 0.2971
N3C N 0.2235(3) 0.5626(5) 0.6048(3)
N3E N 0.2235(3) -0.0626(5) 0.6048(3)
Ag1C Ag 0.19504(4) -0.2500 0.03081(4)
Ag1C_2 Ag 0.19504(4) 0.7500 0.03081(4)
loop_
_geom_bond_atom_site_label_1
_geom_bond_atom_site_label_2
_geom_bond_site_symmetry_1
_geom_bond_site_symmetry_2
Ag1 N2 1_555 1_555
N1 O1 1_555 1_555
N2 C1 1_555 1_555
N3 C1 1_555 1_555
N4 C2 1_555 1_555
C1 H1 1_555 1_555
H2 C1 1_555 1_555
C2 N2 1_555 1_555
H3 C2 1_555 1_555
C3 N3 1_555 1_555
H4 C3 1_555 1_555
H5 C3 1_555 1_555
C4 N3 1_555 1_555
H6 C4 1_555 1_555
H7 C4 1_555 1_555
O1 Ag1 1_555 1_555
O2 N1 1_555 1_555
C1B N2 1_555 1_555
N3B C4 1_555 1_555
C3B N4 1_555 1_555
H4B C3B 1_555 1_555
H5B C3B 1_555 1_555
H1B C1B 1_555 1_555
H2B C1B 1_555 1_555
H3B C2 1_555 1_555
N3C Ag1 1_555 1_555
N3E Ag1 1_555 1_555
Ag1C N3 1_555 1_555
Ag1C_2 N3B 1_555 1_555
N4 C3 1_555 1_555
C1B N3B 1_555 1_555
N3B C3B 1_555 1_555

#END
