
#######################################################################
#
#                 Cambridge Crystallographic Data Centre
#                                CCDC 
#
#######################################################################
#
# If this CIF has been generated from an entry in the Cambridge 
# Structural Database, then it will include bibliographic, chemical, 
# crystal, experimental, refinement or atomic coordinate data resulting 
# from the CCDC's data processing and validation procedures.
#
#######################################################################

data_XAZNAN
_symmetry_cell_setting           monoclinic
_symmetry_space_group_name_H-M   'C 2/c'
_symmetry_Int_Tables_number      15
_space_group_name_Hall           '-C 2yn'
loop_
_symmetry_equiv_pos_site_id
_symmetry_equiv_pos_as_xyz
1 x,y,z
2 1/2+x,1/2+y,z
3 x,-y,1/2+z
4 1/2+x,1/2-y,1/2+z
5 -x,-y,-z
6 1/2-x,1/2-y,-z
7 -x,y,1/2-z
8 1/2-x,1/2+y,1/2-z
_cell_length_a                   21.564(2)
_cell_length_b                   5.9971(5)
_cell_length_c                   24.750(2)
_cell_angle_alpha                90
_cell_angle_beta                 105.920(5)
_cell_angle_gamma                90
_cell_volume                     3077.95
loop_
_atom_site_label
_atom_site_type_symbol
_atom_site_fract_x
_atom_site_fract_y
_atom_site_fract_z
Cs1 Cs 0.0000 0.65453(4) 0.7500
Cs2 Cs 0.0000 0.5000 0.5000
S1 S -0.05545(3) 0.16301(11) 0.63651(3)
S2 S 0.06087(3) 0.08460(12) 0.61302(3)
O1 O -0.07266(11) 0.2934(4) 0.67899(8)
O2 O -0.06143(11) 0.9249(4) 0.64080(9)
O3 O 0.10760(10) 0.2290(4) 0.59880(9)
O4 O 0.02832(10) -0.0683(4) 0.56957(8)
N1 N 0.01396(11) 0.2437(4) 0.63461(10)
C1 C -0.10783(13) 0.2489(5) 0.57180(11)
C2 C -0.12214(14) 0.1051(5) 0.52641(12)
H1 H -0.10382(14) -0.0400(5) 0.52983(12)
C3 C -0.16337(14) 0.1744(5) 0.47593(12)
H2 H -0.17347(14) 0.0757(5) 0.44471(12)
C4 C -0.19014(14) 0.3866(5) 0.47042(12)
C5 C -0.17403(14) 0.5292(5) 0.51622(12)
H3 H -0.19142(14) 0.6757(5) 0.51265(12)
C6 C -0.13303(14) 0.4621(5) 0.56710(12)
H4 H -0.12240(14) 0.5610(5) 0.59826(12)
C7 C -0.23560(15) 0.4613(6) 0.41583(12)
H5 H -0.2750(5) 0.5211(39) 0.4228(2)
H6 H -0.2465(10) 0.3341(11) 0.3901(4)
H7 H -0.2149(5) 0.5775(30) 0.3990(5)
C8 C 0.10360(13) 0.9239(5) 0.67115(11)
C9 C 0.12331(14) 0.7111(5) 0.66208(11)
H8 H 0.11133(14) 0.6487(5) 0.62539(11)
C10 C 0.16053(14) 0.5898(5) 0.70674(12)
H9 H 0.17464(14) 0.4446(5) 0.70027(12)
C11 C 0.17773(13) 0.6759(5) 0.76090(12)
C12 C 0.15685(14) 0.8901(5) 0.76909(12)
H10 H 0.16826(14) 0.9518(5) 0.80585(12)
C13 C 0.12002(14) 1.0143(5) 0.72499(12)
H11 H 0.10602(14) 1.1597(5) 0.73130(12)
C14 C 0.2176(2) 0.5409(6) 0.80907(13)
H12 H 0.1920(4) 0.5067(35) 0.8352(5)
H13 H 0.2559(6) 0.6263(17) 0.8287(6)
H14 H 0.2309(10) 0.4017(19) 0.7948(2)
O1F O 0.07266(11) 0.2934(4) 0.82101(8)
O2F O 0.06143(11) 0.9249(4) 0.85920(9)
C8F C -0.10360(13) 0.9239(5) 0.82885(11)
C11F C -0.17773(13) 0.6759(5) 0.73910(12)
C12F C -0.15685(14) 0.8901(5) 0.73091(12)
C13F C -0.12002(14) 1.0143(5) 0.77501(12)
O3D O -0.10760(10) 0.7710(4) 0.40120(9)
O4_2 O 0.02832(10) 0.9317(4) 0.56957(8)
O4D O -0.02832(10) 0.0683(4) 0.43043(8)
C1D C 0.10783(13) 0.7511(5) 0.42820(11)
C2D C 0.12214(14) 0.8949(5) 0.47359(12)
C6D C 0.13303(14) 0.5379(5) 0.43290(12)
O2_2 O -0.06143(11) -0.0751(4) 0.64080(9)
C8_2 C 0.10360(13) -0.0761(5) 0.67115(11)
S1_2 S -0.05545(3) 1.16301(11) 0.63651(3)
Cs2_2 Cs 0.0000 -0.5000 0.5000
S2_2 S 0.06087(3) 1.08460(12) 0.61302(3)
O3_2 O 0.10760(10) 1.2290(4) 0.59880(9)
N1_2 N 0.01396(11) 1.2437(4) 0.63461(10)
Cs2_3 Cs 0.0000 1.5000 0.5000
O1_2 O -0.07266(11) 1.2934(4) 0.67899(8)
C1_2 C -0.10783(13) 1.2489(5) 0.57180(11)
Cs1_2 Cs 0.0000 1.65453(4) 0.7500
C2_2 C -0.12214(14) 1.1051(5) 0.52641(12)
C6_2 C -0.13303(14) 1.4621(5) 0.56710(12)
H1_2 H -0.10382(14) 0.9600(5) 0.52983(12)
C3_2 C -0.16337(14) 1.1744(5) 0.47593(12)
C5_2 C -0.17403(14) 1.5292(5) 0.51622(12)
H4_2 H -0.12240(14) 1.5610(5) 0.59826(12)
H2_2 H -0.17347(14) 1.0757(5) 0.44471(12)
C4_2 C -0.19014(14) 1.3866(5) 0.47042(12)
H3_2 H -0.19142(14) 1.6757(5) 0.51265(12)
C7_2 C -0.23560(15) 1.4613(6) 0.41583(12)
H5_2 H -0.2750(5) 1.5211(39) 0.4228(2)
H6_2 H -0.2465(10) 1.3341(11) 0.3901(4)
H7_2 H -0.2149(5) 1.5775(30) 0.3990(5)
Cs1_3 Cs 0.0000 -0.34547(4) 0.7500
C9_2 C 0.12331(14) -0.2889(5) 0.66208(11)
C13_2 C 0.12002(14) 0.0143(5) 0.72499(12)
C12_2 C 0.15685(14) -0.1099(5) 0.76909(12)
H11_2 H 0.10602(14) 0.1597(5) 0.73130(12)
H8_2 H 0.11133(14) -0.3513(5) 0.62539(11)
C10_2 C 0.16053(14) -0.4102(5) 0.70674(12)
H9_2 H 0.17464(14) -0.5554(5) 0.70027(12)
C11_2 C 0.17773(13) -0.3241(5) 0.76090(12)
H10_2 H 0.16826(14) -0.0482(5) 0.80585(12)
C14_2 C 0.2176(2) -0.4591(6) 0.80907(13)
H12_2 H 0.1920(4) -0.4933(35) 0.8352(5)
H13_2 H 0.2559(6) -0.3737(17) 0.8287(6)
H14_2 H 0.2309(10) -0.5983(19) 0.7948(2)
H10F H -0.16826(14) 0.9518(5) 0.69415(12)
H11F H -0.10602(14) 1.1597(5) 0.76870(12)
H1D H 0.10382(14) 1.0400(5) 0.47017(12)
H4D H 0.12240(14) 0.4390(5) 0.40174(12)
loop_
_geom_bond_atom_site_label_1
_geom_bond_atom_site_label_2
_geom_bond_site_symmetry_1
_geom_bond_site_symmetry_2
Cs1 O1 1_555 1_555
Cs2 O3 1_555 1_555
S1 O1 1_555 1_555
S2 O3 1_555 1_555
O2 Cs1 1_555 1_555
O4 S2 1_555 1_555
N1 S1 1_555 1_555
C1 Cs2 1_555 1_555
C2 Cs2 1_555 1_555
H1 C2 1_555 1_555
C3 C2 1_555 1_555
H2 C3 1_555 1_555
C4 C3 1_555 1_555
C5 C4 1_555 1_555
H3 C5 1_555 1_555
C6 Cs2 1_555 1_555
H4 C6 1_555 1_555
C7 C4 1_555 1_555
H5 C7 1_555 1_555
H6 C7 1_555 1_555
H7 C7 1_555 1_555
C8 Cs1 1_555 1_555
C9 C8 1_555 1_555
H8 C9 1_555 1_555
C10 C9 1_555 1_555
H9 C10 1_555 1_555
C11 Cs1 1_555 1_555
C12 Cs1 1_555 1_555
H10 C12 1_555 1_555
C13 Cs1 1_555 1_555
H11 C13 1_555 1_555
C14 C11 1_555 1_555
H12 C14 1_555 1_555
H13 C14 1_555 1_555
H14 C14 1_555 1_555
O1F Cs1 1_555 1_555
O2F Cs1 1_555 1_555
C8F Cs1 1_555 1_555
C11F Cs1 1_555 1_555
C12F Cs1 1_555 1_555
C13F Cs1 1_555 1_555
O3D Cs2 1_555 1_555
O4_2 Cs2 1_555 1_555
O4D Cs2 1_555 1_555
C1D Cs2 1_555 1_555
C2D Cs2 1_555 1_555
C6D Cs2 1_555 1_555
O2_2 S1 1_555 1_555
C8_2 S2 1_555 1_555
S1_2 O2 1_555 1_555
Cs2_2 O4 1_555 1_555
S2_2 C8 1_555 1_555
O3_2 S2_2 1_555 1_555
N1_2 S1_2 1_555 1_555
Cs2_3 O3_2 1_555 1_555
O1_2 S1_2 1_555 1_555
C1_2 S1_2 1_555 1_555
Cs1_2 O1_2 1_555 1_555
C2_2 Cs2_3 1_555 1_555
C6_2 Cs2_3 1_555 1_555
H1_2 C2_2 1_555 1_555
C3_2 C2_2 1_555 1_555
C5_2 C6_2 1_555 1_555
H4_2 C6_2 1_555 1_555
H2_2 C3_2 1_555 1_555
C4_2 C3_2 1_555 1_555
H3_2 C5_2 1_555 1_555
C7_2 C4_2 1_555 1_555
H5_2 C7_2 1_555 1_555
H6_2 C7_2 1_555 1_555
H7_2 C7_2 1_555 1_555
Cs1_3 O2_2 1_555 1_555
C9_2 C8_2 1_555 1_555
C13_2 C8_2 1_555 1_555
C12_2 Cs1_3 1_555 1_555
H11_2 C13_2 1_555 1_555
H8_2 C9_2 1_555 1_555
C10_2 C9_2 1_555 1_555
H9_2 C10_2 1_555 1_555
C11_2 Cs1_3 1_555 1_555
H10_2 C12_2 1_555 1_555
C14_2 C11_2 1_555 1_555
H12_2 C14_2 1_555 1_555
H13_2 C14_2 1_555 1_555
H14_2 C14_2 1_555 1_555
H10F C12F 1_555 1_555
H11F C13F 1_555 1_555
H1D C2D 1_555 1_555
H4D C6D 1_555 1_555
S1 C1 1_555 1_555
S2 N1 1_555 1_555
C1 C2 1_555 1_555
C1 C6 1_555 1_555
C5 C6 1_555 1_555
C8 C13 1_555 1_555
C10 C11 1_555 1_555
C11 C12 1_555 1_555
C12 C13 1_555 1_555
C8F C13F 1_555 1_555
C11F C12F 1_555 1_555
C12F C13F 1_555 1_555
O4_2 S2_2 1_555 1_555
C1D C2D 1_555 1_555
C1D C6D 1_555 1_555
C8_2 Cs1_3 1_555 1_555
S2_2 N1_2 1_555 1_555
Cs2_3 C1_2 1_555 1_555
C1_2 C2_2 1_555 1_555
C1_2 C6_2 1_555 1_555
C5_2 C4_2 1_555 1_555
Cs1_3 C13_2 1_555 1_555
C13_2 C12_2 1_555 1_555
C12_2 C11_2 1_555 1_555
C10_2 C11_2 1_555 1_555

#END
