
#######################################################################
#
#                 Cambridge Crystallographic Data Centre
#                                CCDC 
#
#######################################################################
#
# If this CIF has been generated from an entry in the Cambridge 
# Structural Database, then it will include bibliographic, chemical, 
# crystal, experimental, refinement or atomic coordinate data resulting 
# from the CCDC's data processing and validation procedures.
#
#######################################################################

data_XEBMEW
_symmetry_cell_setting           orthorhombic
_symmetry_space_group_name_H-M   'P 21 21 21'
_symmetry_Int_Tables_number      19
_space_group_name_Hall           'P 2ac 2ab'
loop_
_symmetry_equiv_pos_site_id
_symmetry_equiv_pos_as_xyz
1 x,y,z
2 1/2-x,-y,1/2+z
3 -x,1/2+y,1/2-z
4 1/2+x,1/2-y,-z
_cell_length_a                   8.740(3)
_cell_length_b                   13.920(7)
_cell_length_c                   17.082(5)
_cell_angle_alpha                90
_cell_angle_beta                 90
_cell_angle_gamma                90
_cell_volume                     2078.21
loop_
_atom_site_label
_atom_site_type_symbol
_atom_site_fract_x
_atom_site_fract_y
_atom_site_fract_z
I1 I 0.1459(2) 0.84284(10) -0.00548(6)
I2 I 0.1320(2) 1.16298(10) -0.02488(6)
Cu1 Cu 0.0346(2) 0.9914(2) -0.08512(13)
Cu2 Cu 0.2723(2) 1.0103(2) 0.02087(13)
N1 N -0.1980(15) 0.9937(13) -0.0710(8)
N2 N -0.5049(16) 1.0016(14) -0.0230(9)
N3 N 0.0971(17) 0.9828(10) -0.2005(8)
N4 N 0.1850(18) 0.9869(14) -0.3598(9)
C1 C -0.2917(23) 1.0663(15) -0.0922(10)
C2 C -0.2307(25) 1.1386(18) -0.1486(12)
H1 H -0.3049(80) 1.1887(62) -0.1560(72)
H2 H -0.210(16) 1.1080(30) -0.1978(29)
H3 H -0.138(10) 1.1657(81) -0.1283(42)
C3 C -0.4406(23) 1.0714(15) -0.0694(10)
H4 H -0.5001(23) 1.1231(15) -0.0857(10)
C4 C -0.4148(22) 0.9305(15) -0.0013(12)
H5 H -0.4529(22) 0.8818(15) 0.0304(12)
C5 C -0.2646(21) 0.9278(16) -0.0254(13)
H6 H -0.2051(21) 0.8763(16) -0.0088(13)
C6 C 0.0594(25) 0.9093(16) -0.2497(11)
C7 C -0.0224(36) 0.8255(20) -0.2182(14)
H7 H 0.039(12) 0.7955(98) -0.1785(98)
H8 H -0.042(25) 0.7805(83) -0.2596(30)
H9 H -0.118(12) 0.8459(33) -0.196(12)
C8 C 0.1069(23) 0.9142(14) -0.3272(11)
H10 H 0.0824(23) 0.8625(14) -0.3593(11)
C9 C 0.2197(25) 1.0556(13) -0.3087(11)
H11 H 0.2789(25) 1.1068(13) -0.3261(11)
C10 C 0.1737(26) 1.0554(14) -0.2324(11)
H12 H 0.1970(26) 1.1083(14) -0.2014(11)
N2_2 N 0.4951(16) 1.0016(14) -0.0230(9)
N4A N 0.3150(18) 1.0131(14) 0.1402(9)
Cu2_2 Cu -0.7277(2) 1.0103(2) 0.02087(13)
Cu2A Cu 0.2277(2) 0.9897(2) -0.47913(13)
N5 N 0.3908(34) 1.3075(22) -0.1872(16)
N6 N 0.5404(30) 1.3720(26) -0.3105(16)
C11 C 0.4211(29) 1.4076(19) -0.2056(16)
C12 C 0.3606(34) 1.4779(22) -0.1515(19)
H13 H 0.4030(99) 1.4671(56) -0.1004(26)
H14 H 0.2512(36) 1.4721(51) -0.1491(46)
H15 H 0.387(11) 1.5413(23) -0.1690(42)
C13 C 0.4869(29) 1.4361(19) -0.2647(14)
H16 H 0.4973(29) 1.5013(19) -0.2755(14)
C14 C 0.5145(49) 1.2731(25) -0.2913(23)
H17 H 0.5537(49) 1.2289(25) -0.3269(23)
C15 C 0.4484(34) 1.2383(19) -0.2350(22)
H18 H 0.4387(34) 1.1727(19) -0.2260(22)
loop_
_geom_bond_atom_site_label_1
_geom_bond_atom_site_label_2
_geom_bond_site_symmetry_1
_geom_bond_site_symmetry_2
I1 Cu1 1_555 1_555
I2 Cu1 1_555 1_555
Cu1 N1 1_555 1_555
Cu2 I1 1_555 1_555
N1 C1 1_555 1_555
N2 C3 1_555 1_555
N3 Cu1 1_555 1_555
N4 C8 1_555 1_555
N5 C11 1_555 1_555
N6 C13 1_555 1_555
C1 C2 1_555 1_555
C2 H1 1_555 1_555
H2 C2 1_555 1_555
H3 C2 1_555 1_555
C3 C1 1_555 1_555
H4 C3 1_555 1_555
C4 N2 1_555 1_555
H5 C4 1_555 1_555
C5 N1 1_555 1_555
H6 C5 1_555 1_555
C6 N3 1_555 1_555
C7 C6 1_555 1_555
H7 C7 1_555 1_555
H8 C7 1_555 1_555
H9 C7 1_555 1_555
C8 C6 1_555 1_555
H10 C8 1_555 1_555
C9 N4 1_555 1_555
H11 C9 1_555 1_555
C10 N3 1_555 1_555
H12 C10 1_555 1_555
C11 C12 1_555 1_555
C12 H13 1_555 1_555
H14 C12 1_555 1_555
H15 C12 1_555 1_555
C13 C11 1_555 1_555
H16 C13 1_555 1_555
C14 N6 1_555 1_555
H17 C14 1_555 1_555
C15 N5 1_555 1_555
H18 C15 1_555 1_555
N2_2 Cu2 1_555 1_555
N4A Cu2 1_555 1_555
Cu2_2 N2 1_555 1_555
Cu2A N4 1_555 1_555
I2 Cu2 1_555 1_555
C4 C5 1_555 1_555
C9 C10 1_555 1_555
C14 C15 1_555 1_555

#END
