
#######################################################################
#
#                 Cambridge Crystallographic Data Centre
#                                CCDC 
#
#######################################################################
#
# If this CIF has been generated from an entry in the Cambridge 
# Structural Database, then it will include bibliographic, chemical, 
# crystal, experimental, refinement or atomic coordinate data resulting 
# from the CCDC's data processing and validation procedures.
#
#######################################################################

data_XEBNAT
_symmetry_cell_setting           monoclinic
_symmetry_space_group_name_H-M   'P 21/c'
_symmetry_Int_Tables_number      14
_space_group_name_Hall           '-P 2ybc'
loop_
_symmetry_equiv_pos_site_id
_symmetry_equiv_pos_as_xyz
1 x,y,z
2 x,1/2-y,1/2+z
3 -x,-y,-z
4 -x,1/2+y,1/2-z
_cell_length_a                   15.066(3)
_cell_length_b                   3.9960(10)
_cell_length_c                   15.619(3)
_cell_angle_alpha                90
_cell_angle_beta                 110.780(10)
_cell_angle_gamma                90
_cell_volume                     879.154
loop_
_atom_site_label
_atom_site_type_symbol
_atom_site_fract_x
_atom_site_fract_y
_atom_site_fract_z
Br1 Br 0.09147(13) 0.0776(5) 0.20549(12)
Br2 Br 0.42687(13) -0.4289(5) 0.81966(13)
Cu1 Cu 0.4748(2) -0.4288(8) 0.6810(2)
Cu2 Cu 0.0746(2) -0.4149(7) 0.2963(2)
N1 N 0.1898(10) -0.4108(39) 0.4150(9)
N2 N 0.3522(10) -0.4181(43) 0.5700(10)
C1 C 0.1922(12) -0.2686(54) 0.4946(12)
C2 C 0.2749(12) -0.2939(53) 0.5711(12)
H1 H 0.2736(12) -0.2148(53) 0.6266(12)
C3 C 0.3512(11) -0.5698(49) 0.4884(11)
H2 H 0.4052(11) -0.6774(49) 0.4864(11)
C4 C 0.2723(13) -0.5589(59) 0.4136(12)
H3 H 0.2730(13) -0.6531(59) 0.3594(12)
C5 C 0.1094(15) -0.1098(57) 0.4977(12)
H4 H 0.1257(22) 0.031(30) 0.5508(59)
H5 H 0.0647(45) -0.2763(57) 0.501(11)
H6 H 0.0816(63) 0.024(31) 0.4436(52)
Br1_2 Br 0.09147(13) -0.9224(5) 0.20549(12)
Br1C Br -0.09147(13) -0.4224(5) 0.29451(12)
Cu2C Cu -0.0746(2) 0.0851(7) 0.2037(2)
Cu2_2 Cu 0.0746(2) 0.5851(7) 0.2963(2)
Cu1C Cu 0.5252(2) -0.9288(8) 0.8190(2)
Br2C Br 0.57313(13) 0.0711(5) 0.68034(13)
Br2C_2 Br 0.57313(13) -0.9289(5) 0.68034(13)
Cu1C_2 Cu 0.5252(2) 0.0712(8) 0.8190(2)
loop_
_geom_bond_atom_site_label_1
_geom_bond_atom_site_label_2
_geom_bond_site_symmetry_1
_geom_bond_site_symmetry_2
Br1 Cu2 1_555 1_555
Br2 Cu1 1_555 1_555
Cu1 N2 1_555 1_555
Cu2 N1 1_555 1_555
N1 C1 1_555 1_555
N2 C2 1_555 1_555
C1 C2 1_555 1_555
C2 H1 1_555 1_555
C3 N2 1_555 1_555
H2 C3 1_555 1_555
C4 N1 1_555 1_555
H3 C4 1_555 1_555
C5 C1 1_555 1_555
H4 C5 1_555 1_555
H5 C5 1_555 1_555
H6 C5 1_555 1_555
Br1_2 Cu2 1_555 1_555
Br1C Cu2 1_555 1_555
Cu2C Br1 1_555 1_555
Cu2_2 Br1 1_555 1_555
Cu1C Br2 1_555 1_555
Br2C Cu1 1_555 1_555
Br2C_2 Cu1 1_555 1_555
Cu1C_2 Br2 1_555 1_555
C3 C4 1_555 1_555
Br1C Cu2C 1_555 1_555
Cu1C Br2C_2 1_555 1_555
Br2C Cu1C_2 1_555 1_555

#END
