
#######################################################################
#
#                 Cambridge Crystallographic Data Centre
#                                CCDC 
#
#######################################################################
#
# If this CIF has been generated from an entry in the Cambridge 
# Structural Database, then it will include bibliographic, chemical, 
# crystal, experimental, refinement or atomic coordinate data resulting 
# from the CCDC's data processing and validation procedures.
#
#######################################################################

data_XEBTAZ
_symmetry_cell_setting           triclinic
_symmetry_space_group_name_H-M   'P -1'
_symmetry_Int_Tables_number      2
_space_group_name_Hall           '-P 1'
loop_
_symmetry_equiv_pos_site_id
_symmetry_equiv_pos_as_xyz
1 x,y,z
2 -x,-y,-z
_cell_length_a                   8.0089(14)
_cell_length_b                   9.6202(17)
_cell_length_c                   10.1605(18)
_cell_angle_alpha                91.972(5)
_cell_angle_beta                 98.622(5)
_cell_angle_gamma                100.696(4)
_cell_volume                     758.982
loop_
_atom_site_label
_atom_site_type_symbol
_atom_site_fract_x
_atom_site_fract_y
_atom_site_fract_z
Cd1 Cd 0.5000 -0.5000 0.5000
Cd2 Cd 0.47677(7) -0.27964(5) 0.17984(5)
Cl1 Cl 0.7116(2) -0.38431(18) 0.33715(19)
Cl2 Cl 0.2550(2) -0.44929(17) 0.31897(17)
Cl3 Cl 0.6843(2) -0.20069(16) -0.00338(16)
N1 N 0.8695(7) 0.1048(6) 0.3569(6)
C1 C 0.7715(9) -0.0240(8) 0.3290(8)
H1 H 0.8315 -0.0991 0.3187
N2 N 0.5998(7) -0.0617(6) 0.3135(6)
C2 C 0.5283(8) 0.0499(7) 0.3383(6)
C3 C 0.6110(8) 0.1887(7) 0.3708(7)
C4 C 0.7908(8) 0.2161(7) 0.3763(7)
N3 N 0.8895(7) 0.3452(6) 0.3974(7)
H2 H 1.0012 0.3561 0.3985
H3 H 0.8428 0.4195 0.4103
N4 N 0.4914(7) 0.2727(6) 0.3940(6)
C5 C 0.3424(9) 0.1836(7) 0.3720(7)
H4 H 0.2359 0.2118 0.3776
N5 N 0.3548(7) 0.0476(6) 0.3406(6)
C6 C 0.2130(9) -0.0781(8) 0.3183(7)
H5 H 0.1197 -0.0596 0.3662
H6 H 0.2563 -0.1600 0.3573
C7 C 0.1401(9) -0.1165(8) 0.1755(7)
H7 H 0.0495 -0.2030 0.1687
H8 H 0.0860 -0.0389 0.1380
N6 N 0.2726(8) -0.1419(7) 0.0971(6)
H9 H 0.3356 -0.0530 0.0856
C8 C 0.1961(11) -0.2052(9) -0.0390(8)
H10 H 0.2785 -0.1779 -0.1015
H11 H 0.0902 -0.1689 -0.0703
C9 C 0.1536(11) -0.3650(9) -0.0367(8)
H12 H 0.0750 -0.3917 0.0286
H13 H 0.0939 -0.4063 -0.1258
N7 N 0.3125(9) -0.4237(7) -0.0001(7)
H14 H 0.3723 -0.4224 -0.0708
H15 H 0.2852 -0.5157 0.0234
Cl1A Cl 0.2884(2) -0.61569(18) 0.66285(19)
Cl2A Cl 0.7450(2) -0.55071(17) 0.68103(17)
N4A N 0.5086(7) -0.2727(6) 0.6060(6)
Cd2A Cd 0.52323(7) -0.72036(5) 0.82016(5)
Cl3A Cl 0.3157(2) -0.79931(16) 1.00338(16)
N2A N 0.4002(7) -0.9383(6) 0.6865(6)
N6A N 0.7274(8) -0.8581(7) 0.9029(6)
N7A N 0.6875(9) -0.5763(7) 1.0001(7)
H9A H 0.6644 -0.9470 0.9144
H14A H 0.6277 -0.5776 1.0708
H15A H 0.7148 -0.4843 0.9766
C1A C 0.2285(9) -0.9760(8) 0.6710(8)
C2A C 0.4717(8) -1.0499(7) 0.6617(6)
C7A C 0.8599(9) -0.8835(8) 0.8245(7)
C8A C 0.8039(11) -0.7948(9) 1.0390(8)
C9A C 0.8464(11) -0.6350(9) 1.0367(8)
Cd1_2 Cd 0.5000 -1.5000 0.5000
Cd1_3 Cd 0.5000 0.5000 0.5000
N1A N 0.1305(7) -1.1048(6) 0.6431(6)
H1A H 0.1685 -0.9009 0.6813
C3A C 0.3890(8) -1.1887(7) 0.6292(7)
N5A N 0.6452(7) -1.0476(6) 0.6594(6)
C6A C 0.7870(9) -0.9219(8) 0.6817(7)
H7A H 0.9505 -0.7970 0.8313
H8A H 0.9140 -0.9611 0.8620
H10A H 0.7215 -0.8221 1.1015
H11A H 0.9098 -0.8311 1.0703
H12A H 0.9250 -0.6083 0.9714
H13A H 0.9061 -0.5937 1.1258
N4_2 N 0.4914(7) -0.7273(6) 0.3940(6)
C4A C 0.2092(8) -1.2161(7) 0.6237(7)
N4A_2 N 0.5086(7) -1.2727(6) 0.6060(6)
C5A C 0.6576(9) -1.1836(7) 0.6280(7)
H5A H 0.8803 -0.9404 0.6338
H6A H 0.7437 -0.8400 0.6427
N3A N 0.1105(7) -1.3452(6) 0.6026(7)
H4A H 0.7641 -1.2118 0.6224
H2A H -0.0012 -1.3561 0.6015
H3A H 0.1572 -1.4195 0.5897
loop_
_geom_bond_atom_site_label_1
_geom_bond_atom_site_label_2
_geom_bond_site_symmetry_1
_geom_bond_site_symmetry_2
Cd1 Cl1 1_555 1_555
Cd2 Cl1 1_555 1_555
Cl2 Cd1 1_555 1_555
Cl3 Cd2 1_555 1_555
N1 C1 1_555 1_555
C1 H1 1_555 1_555
N2 Cd2 1_555 1_555
C2 N2 1_555 1_555
C3 C2 1_555 1_555
C4 N1 1_555 1_555
N3 C4 1_555 1_555
H2 N3 1_555 1_555
H3 N3 1_555 1_555
N4 C3 1_555 1_555
C5 N4 1_555 1_555
H4 C5 1_555 1_555
N5 C2 1_555 1_555
C6 N5 1_555 1_555
H5 C6 1_555 1_555
H6 C6 1_555 1_555
C7 C6 1_555 1_555
H7 C7 1_555 1_555
H8 C7 1_555 1_555
N6 Cd2 1_555 1_555
H9 N6 1_555 1_555
C8 N6 1_555 1_555
H10 C8 1_555 1_555
H11 C8 1_555 1_555
C9 C8 1_555 1_555
H12 C9 1_555 1_555
H13 C9 1_555 1_555
N7 Cd2 1_555 1_555
H14 N7 1_555 1_555
H15 N7 1_555 1_555
Cl1A Cd1 1_555 1_555
Cl2A Cd1 1_555 1_555
N4A Cd1 1_555 1_555
Cd2A Cl1A 1_555 1_555
Cl3A Cd2A 1_555 1_555
N2A Cd2A 1_555 1_555
N6A Cd2A 1_555 1_555
N7A Cd2A 1_555 1_555
H9A N6A 1_555 1_555
H14A N7A 1_555 1_555
H15A N7A 1_555 1_555
C1A N2A 1_555 1_555
C2A N2A 1_555 1_555
C7A N6A 1_555 1_555
C8A N6A 1_555 1_555
C9A N7A 1_555 1_555
Cd1_2 N4A_2 1_555 1_555
Cd1_3 N4 1_555 1_555
N1A C1A 1_555 1_555
H1A C1A 1_555 1_555
C3A C2A 1_555 1_555
N5A C2A 1_555 1_555
C6A C7A 1_555 1_555
H7A C7A 1_555 1_555
H8A C7A 1_555 1_555
H10A C8A 1_555 1_555
H11A C8A 1_555 1_555
H12A C9A 1_555 1_555
H13A C9A 1_555 1_555
N4_2 Cd1 1_555 1_555
C4A N1A 1_555 1_555
N4A_2 C3A 1_555 1_555
C5A N5A 1_555 1_555
H5A C6A 1_555 1_555
H6A C6A 1_555 1_555
N3A C4A 1_555 1_555
H4A C5A 1_555 1_555
H2A N3A 1_555 1_555
H3A N3A 1_555 1_555
Cd2 Cl2 1_555 1_555
C1 N2 1_555 1_555
C3 C4 1_555 1_555
C5 N5 1_555 1_555
C7 N6 1_555 1_555
C9 N7 1_555 1_555
Cl2A Cd2A 1_555 1_555
C8A C9A 1_555 1_555
C3A C4A 1_555 1_555
N5A C6A 1_555 1_555
N4A_2 C5A 1_555 1_555

#END
