
#######################################################################
#
#                 Cambridge Crystallographic Data Centre
#                                CCDC 
#
#######################################################################
#
# If this CIF has been generated from an entry in the Cambridge 
# Structural Database, then it will include bibliographic, chemical, 
# crystal, experimental, refinement or atomic coordinate data resulting 
# from the CCDC's data processing and validation procedures.
#
#######################################################################

data_XECGOD
_symmetry_cell_setting           monoclinic
_symmetry_space_group_name_H-M   'P 21/c'
_symmetry_Int_Tables_number      14
_space_group_name_Hall           '-P 2ybc'
loop_
_symmetry_equiv_pos_site_id
_symmetry_equiv_pos_as_xyz
1 x,y,z
2 -x,1/2+y,1/2-z
3 -x,-y,-z
4 x,1/2-y,1/2+z
_cell_length_a                   11.3098(19)
_cell_length_b                   7.6721(11)
_cell_length_c                   7.5467(10)
_cell_angle_alpha                90
_cell_angle_beta                 105.647(2)
_cell_angle_gamma                90
_cell_volume                     630.56
loop_
_atom_site_label
_atom_site_type_symbol
_atom_site_fract_x
_atom_site_fract_y
_atom_site_fract_z
Ni1 Ni 0.5000 0.5000 0.5000
N1 N 0.3510(4) 0.4618(5) 0.5844(6)
N2 N 0.1370(5) 0.4682(6) 0.6946(7)
O1 O 0.4846(3) 0.7385(4) 0.5791(5)
O2 O 0.3624(4) 0.9088(5) 0.6943(5)
C1 C 0.3918(5) 0.7680(7) 0.6395(7)
C2 C 0.3114(5) 0.6106(6) 0.6398(6)
C3 C 0.2062(5) 0.6111(7) 0.6967(8)
H1 H 0.1814 0.7151 0.7389
C4 C 0.2869(4) 0.3151(7) 0.5865(7)
H2 H 0.3148 0.2096 0.5523
C5 C 0.1780(5) 0.3214(7) 0.6401(7)
C6 C 0.1017(5) 0.1600(8) 0.6309(8)
H3 H 0.0434 0.1771 0.7011
H4 H 0.1541 0.0633 0.6806
H5 H 0.0588 0.1362 0.5051
Ni1A Ni 0.5000 1.0000 1.0000
Ni1A_2 Ni 0.5000 0.0000 0.0000
N1B N 0.6490(4) 0.5382(5) 0.4156(6)
N2B N 0.8630(5) 0.5318(6) 0.3054(7)
O1B O 0.5154(3) 0.2615(4) 0.4209(5)
O2B O 0.6376(4) 0.0912(5) 0.3057(5)
O2A O 0.6376(4) 0.4088(5) 0.8057(5)
O2C O 0.3624(4) 0.5912(5) 0.1943(5)
C1B C 0.6082(5) 0.2320(7) 0.3605(7)
C2B C 0.6886(5) 0.3894(6) 0.3602(6)
C3B C 0.7938(5) 0.3889(7) 0.3033(8)
H1B H 0.8186 0.2849 0.2611
C4B C 0.7131(4) 0.6849(7) 0.4135(7)
H2B H 0.6852 0.7904 0.4477
C5B C 0.8220(5) 0.6786(7) 0.3599(7)
C6B C 0.8983(5) 0.8400(8) 0.3691(8)
H3B H 0.9566 0.8229 0.2989
H4B H 0.8459 0.9367 0.3194
H5B H 0.9412 0.8638 0.4949
loop_
_geom_bond_atom_site_label_1
_geom_bond_atom_site_label_2
_geom_bond_site_symmetry_1
_geom_bond_site_symmetry_2
Ni1 N1 1_555 1_555
N1 C2 1_555 1_555
N2 C3 1_555 1_555
O1 Ni1 1_555 1_555
O2 C1 1_555 1_555
C1 O1 1_555 1_555
C2 C1 1_555 1_555
C3 C2 1_555 1_555
H1 C3 1_555 1_555
C4 N1 1_555 1_555
H2 C4 1_555 1_555
C5 N2 1_555 1_555
C6 C5 1_555 1_555
H3 C6 1_555 1_555
H4 C6 1_555 1_555
H5 C6 1_555 1_555
Ni1A O2 1_555 1_555
Ni1A_2 O2B 1_555 1_555
N1B Ni1 1_555 1_555
N2B C3B 1_555 1_555
O1B Ni1 1_555 1_555
O2B C1B 1_555 1_555
O2A Ni1 1_555 1_555
O2C Ni1 1_555 1_555
C1B O1B 1_555 1_555
C2B N1B 1_555 1_555
C3B C2B 1_555 1_555
H1B C3B 1_555 1_555
C4B N1B 1_555 1_555
H2B C4B 1_555 1_555
C5B N2B 1_555 1_555
C6B C5B 1_555 1_555
H3B C6B 1_555 1_555
H4B C6B 1_555 1_555
H5B C6B 1_555 1_555
C4 C5 1_555 1_555
C1B C2B 1_555 1_555
C4B C5B 1_555 1_555

#END
