
#######################################################################
#
#                 Cambridge Crystallographic Data Centre
#                                CCDC 
#
#######################################################################
#
# If this CIF has been generated from an entry in the Cambridge 
# Structural Database, then it will include bibliographic, chemical, 
# crystal, experimental, refinement or atomic coordinate data resulting 
# from the CCDC's data processing and validation procedures.
#
#######################################################################

data_XECMUP
_symmetry_cell_setting           monoclinic
_symmetry_space_group_name_H-M   'P 21'
_symmetry_Int_Tables_number      4
_space_group_name_Hall           'P 2yb'
loop_
_symmetry_equiv_pos_site_id
_symmetry_equiv_pos_as_xyz
1 x,y,z
2 -x,1/2+y,-z
_cell_length_a                   9.6627(5)
_cell_length_b                   12.1821(7)
_cell_length_c                   10.9665(6)
_cell_angle_alpha                90
_cell_angle_beta                 109.5840(10)
_cell_angle_gamma                90
_cell_volume                     1216.21
loop_
_atom_site_label
_atom_site_type_symbol
_atom_site_fract_x
_atom_site_fract_y
_atom_site_fract_z
C1 C 0.2321(6) 0.2128(4) -0.7843(5)
H1 H 0.2580 0.1389 -0.8045
C2 C 0.2491(7) 0.2898(5) -0.8866(6)
H2 H 0.3452 0.2788 -0.8943
H3 H 0.2444 0.3649 -0.8588
C3 C 0.1322(8) 0.2735(6) -1.0191(6)
H4 H 0.1428 0.3297 -1.0780
H5 H 0.1458 0.2026 -1.0536
C4 C -0.0207(8) 0.2797(6) -1.0097(6)
H6 H -0.0368 0.3518 -0.9795
H7 H -0.0936 0.2678 -1.0943
C5 C -0.0360(7) 0.1927(6) -0.9162(6)
H8 H -0.0220 0.1209 -0.9484
H9 H -0.1347 0.1955 -0.9121
C6 C 0.0746(6) 0.2081(5) -0.7804(5)
H10 H 0.0539 0.2790 -0.7479
C7 C 0.4059(6) 0.1103(4) -0.1998(5)
H11 H 0.3415 0.1640 -0.1791
C8 C 0.5348(7) 0.0864(5) -0.0760(6)
H12 H 0.6038 0.0383 -0.0968
H13 H 0.5853 0.1546 -0.0430
C9 C 0.4876(7) 0.0330(6) 0.0288(6)
H14 H 0.4309 0.0853 0.0594
H15 H 0.5741 0.0137 0.1012
C10 C 0.3952(7) -0.0700(5) -0.0200(6)
H16 H 0.4557 -0.1267 -0.0386
H17 H 0.3588 -0.0973 0.0467
C11 C 0.2670(7) -0.0446(4) -0.1410(6)
H18 H 0.2011 0.0062 -0.1198
H19 H 0.2129 -0.1116 -0.1732
C12 C 0.3179(6) 0.0057(4) -0.2471(5)
H20 H 0.3831 -0.0474 -0.2673
N1 N 0.3315(5) 0.2411(4) -0.6530(4)
H21 H 0.3260 0.3136 -0.6394
H22 H 0.4247 0.2252 -0.6463
N2 N 0.0665(5) 0.1242(4) -0.6884(5)
H23 H 0.0675 0.0570 -0.7222
H24 H -0.0175 0.1316 -0.6706
N3 N 0.4548(5) 0.1568(4) -0.3035(4)
H25 H 0.5339 0.1198 -0.3072
H26 H 0.4804 0.2276 -0.2859
N4 N 0.1941(5) 0.0265(4) -0.3673(4)
H27 H 0.1189 0.0565 -0.3481
H28 H 0.1632 -0.0373 -0.4089
Cd1 Cd 0.26771(5) 0.14437(4) -0.49947(4)
Cd2 Cd 0.29638(4) 0.51532(3) -0.45651(4)
I1 I 0.13000(4) 0.34667(3) -0.39978(4)
I2 I 0.58302(4) 0.43699(3) -0.40819(4)
I3 I 0.16270(4) 0.56236(3) -0.71584(4)
I4 I 0.29511(4) 0.70585(3) -0.32453(4)
Cd1A Cd 0.73229(5) 0.64437(4) -0.50053(4)
I2A I 0.41698(4) -0.06301(3) -0.59181(4)
loop_
_geom_bond_atom_site_label_1
_geom_bond_atom_site_label_2
_geom_bond_site_symmetry_1
_geom_bond_site_symmetry_2
C1 H1 1_555 1_555
C2 C1 1_555 1_555
H2 C2 1_555 1_555
H3 C2 1_555 1_555
C3 C2 1_555 1_555
H4 C3 1_555 1_555
H5 C3 1_555 1_555
C4 C3 1_555 1_555
H6 C4 1_555 1_555
H7 C4 1_555 1_555
C5 C4 1_555 1_555
H8 C5 1_555 1_555
H9 C5 1_555 1_555
C6 C1 1_555 1_555
H10 C6 1_555 1_555
C7 H11 1_555 1_555
C8 C7 1_555 1_555
H12 C8 1_555 1_555
H13 C8 1_555 1_555
C9 C8 1_555 1_555
H14 C9 1_555 1_555
H15 C9 1_555 1_555
C10 C9 1_555 1_555
H16 C10 1_555 1_555
H17 C10 1_555 1_555
C11 C10 1_555 1_555
H18 C11 1_555 1_555
H19 C11 1_555 1_555
C12 C7 1_555 1_555
H20 C12 1_555 1_555
N1 C1 1_555 1_555
H21 N1 1_555 1_555
H22 N1 1_555 1_555
N2 C6 1_555 1_555
H23 N2 1_555 1_555
H24 N2 1_555 1_555
N3 C7 1_555 1_555
H25 N3 1_555 1_555
H26 N3 1_555 1_555
N4 C12 1_555 1_555
H27 N4 1_555 1_555
H28 N4 1_555 1_555
Cd1 N1 1_555 1_555
Cd2 I1 1_555 1_555
I1 Cd1 1_555 1_555
I2 Cd2 1_555 1_555
I3 Cd2 1_555 1_555
I4 Cd2 1_555 1_555
Cd1A I2 1_555 1_555
I2A Cd1 1_555 1_555
C5 C6 1_555 1_555
C11 C12 1_555 1_555
N2 Cd1 1_555 1_555
N3 Cd1 1_555 1_555
N4 Cd1 1_555 1_555

#END
