
#######################################################################
#
#                 Cambridge Crystallographic Data Centre
#                                CCDC 
#
#######################################################################
#
# If this CIF has been generated from an entry in the Cambridge 
# Structural Database, then it will include bibliographic, chemical, 
# crystal, experimental, refinement or atomic coordinate data resulting 
# from the CCDC's data processing and validation procedures.
#
#######################################################################

data_XECMAV
_symmetry_cell_setting           monoclinic
_symmetry_space_group_name_H-M   'P 21/c'
_symmetry_Int_Tables_number      14
_space_group_name_Hall           '-P 2ybc'
loop_
_symmetry_equiv_pos_site_id
_symmetry_equiv_pos_as_xyz
1 x,y,z
2 -x,1/2+y,1/2-z
3 -x,-y,-z
4 x,1/2-y,1/2+z
_cell_length_a                   10.2744(4)
_cell_length_b                   14.9979(6)
_cell_length_c                   15.9060(6)
_cell_angle_alpha                90
_cell_angle_beta                 127.347(2)
_cell_angle_gamma                90
_cell_volume                     1948.51
loop_
_atom_site_label
_atom_site_type_symbol
_atom_site_fract_x
_atom_site_fract_y
_atom_site_fract_z
Zn1 Zn -0.30637(2) -0.253939(12) 0.368035(16)
O1 O -0.33062(15) 0.25494(8) 0.04670(10)
O2 O -0.36123(19) -0.15717(9) 0.26359(11)
O3 O -0.13946(19) -0.12441(9) 0.42086(11)
O4 O -0.66285(17) 0.13485(10) 0.00573(12)
O5 O -0.56836(17) 0.26740(9) 0.07863(12)
N1 N -0.41141(18) -0.35805(9) 0.25550(12)
N2 N -0.10093(17) -0.33092(9) 0.42815(12)
C1 C -0.20554(19) 0.21845(11) 0.14171(12)
C2 C -0.22189(19) 0.14486(10) 0.18669(13)
H1 H -0.3230 0.1168 0.1518
C3 C -0.0880(2) 0.11214(11) 0.28402(13)
C4 C 0.0613(2) 0.15579(13) 0.33550(14)
H2 H 0.1511 0.1361 0.4015
C5 C 0.0764(2) 0.22891(13) 0.28838(15)
H3 H 0.1773 0.2571 0.3227
C6 C -0.0547(2) 0.26020(11) 0.19240(15)
H4 H -0.0429 0.3089 0.1614
C7 C -0.1050(2) 0.03192(12) 0.32975(14)
H5 H -0.0254 0.0223 0.4017
C8 C -0.2224(3) -0.02701(12) 0.27791(15)
H6 H -0.3011 -0.0182 0.2056
C9 C -0.2398(3) -0.10691(12) 0.32551(15)
C10 C -0.4780(2) 0.20433(14) -0.01510(13)
H7 H -0.4506 0.1438 -0.0206
H8 H -0.5465 0.2291 -0.0859
C11 C -0.5770(2) 0.20077(12) 0.02659(13)
C12 C -0.5648(2) -0.37041(13) 0.17056(16)
H9 H -0.6440 -0.3295 0.1562
C13 C -0.6122(3) -0.44236(15) 0.10171(17)
H10 H -0.7209 -0.4489 0.0429
C14 C -0.4975(3) -0.50280(14) 0.12172(17)
H11 H -0.5279 -0.5515 0.0771
C15 C -0.3334(3) -0.49139(12) 0.20977(16)
C16 C -0.2961(2) -0.41737(11) 0.27537(14)
C17 C -0.2041(3) -0.55048(13) 0.23654(19)
H12 H -0.2280 -0.5997 0.1938
C18 C -0.0487(3) -0.53644(13) 0.32207(19)
H13 H 0.0330 -0.5756 0.3367
C19 C -0.0068(2) -0.46234(12) 0.39092(16)
C20 C -0.1308(2) -0.40297(11) 0.36709(14)
C21 C 0.1518(2) -0.44575(13) 0.48294(17)
H14 H 0.2373 -0.4837 0.5020
C22 C 0.1806(2) -0.37366(14) 0.54458(16)
H15 H 0.2852 -0.3625 0.6061
C23 C 0.0510(2) -0.31708(12) 0.51406(15)
H16 H 0.0720 -0.2675 0.5557
Zn1A Zn -0.69363(2) 0.246061(12) 0.131965(16)
O5A O -0.43164(17) -0.23260(9) 0.42137(12)
loop_
_geom_bond_atom_site_label_1
_geom_bond_atom_site_label_2
_geom_bond_site_symmetry_1
_geom_bond_site_symmetry_2
Zn1 O2 1_555 1_555
O1 C1 1_555 1_555
O2 C9 1_555 1_555
O3 Zn1 1_555 1_555
O4 C11 1_555 1_555
O5 C11 1_555 1_555
N1 Zn1 1_555 1_555
N2 Zn1 1_555 1_555
C1 C2 1_555 1_555
C2 H1 1_555 1_555
C3 C2 1_555 1_555
C4 C3 1_555 1_555
H2 C4 1_555 1_555
C5 C4 1_555 1_555
H3 C5 1_555 1_555
C6 C1 1_555 1_555
H4 C6 1_555 1_555
C7 C3 1_555 1_555
H5 C7 1_555 1_555
C8 C7 1_555 1_555
H6 C8 1_555 1_555
C9 O3 1_555 1_555
C10 O1 1_555 1_555
H7 C10 1_555 1_555
H8 C10 1_555 1_555
C11 C10 1_555 1_555
C12 N1 1_555 1_555
H9 C12 1_555 1_555
C13 C12 1_555 1_555
H10 C13 1_555 1_555
C14 C13 1_555 1_555
H11 C14 1_555 1_555
C15 C14 1_555 1_555
C16 N1 1_555 1_555
C17 C15 1_555 1_555
H12 C17 1_555 1_555
C18 C17 1_555 1_555
H13 C18 1_555 1_555
C19 C18 1_555 1_555
C20 N2 1_555 1_555
C21 C19 1_555 1_555
H14 C21 1_555 1_555
C22 C21 1_555 1_555
H15 C22 1_555 1_555
C23 N2 1_555 1_555
H16 C23 1_555 1_555
Zn1A O5 1_555 1_555
O5A Zn1 1_555 1_555
C5 C6 1_555 1_555
C8 C9 1_555 1_555
C15 C16 1_555 1_555
C16 C20 1_555 1_555
C19 C20 1_555 1_555
C22 C23 1_555 1_555

#END
