
#######################################################################
#
#                 Cambridge Crystallographic Data Centre
#                                CCDC 
#
#######################################################################
#
# If this CIF has been generated from an entry in the Cambridge 
# Structural Database, then it will include bibliographic, chemical, 
# crystal, experimental, refinement or atomic coordinate data resulting 
# from the CCDC's data processing and validation procedures.
#
#######################################################################

data_XECSAB01
_symmetry_cell_setting           triclinic
_symmetry_space_group_name_H-M   'P -1'
_symmetry_Int_Tables_number      2
_space_group_name_Hall           '-P 1'
loop_
_symmetry_equiv_pos_site_id
_symmetry_equiv_pos_as_xyz
1 x,y,z
2 -x,-y,-z
_cell_length_a                   9.725(4)
_cell_length_b                   13.960(7)
_cell_length_c                   14.089(7)
_cell_angle_alpha                118.088(5)
_cell_angle_beta                 104.363(3)
_cell_angle_gamma                90.004(3)
_cell_volume                     1619.37
loop_
_atom_site_label
_atom_site_type_symbol
_atom_site_fract_x
_atom_site_fract_y
_atom_site_fract_z
Gd1 Gd 0.252373(19) -0.002217(15) 1.002478(15)
O1 O 0.3820(4) -0.0256(3) 0.8796(3)
O2 O 0.5792(3) -0.0312(3) 0.8259(3)
O3 O 0.1158(3) 0.0863(3) 0.9070(3)
O4 O -0.0960(4) 0.0454(3) 0.9210(3)
O5 O 0.2068(4) 0.1776(3) 1.1492(3)
O6 O 0.3843(4) 0.1823(3) 1.0811(3)
O7 O 0.3518(4) -0.1732(3) 0.9650(3)
H1 H 0.4435 -0.1755 0.9514
H2 H 0.3121 -0.2317 0.9522
O8 O 0.0759(4) -0.1508(3) 0.8434(3)
H3 H 0.0601 -0.1970 0.8639
H4 H 0.0743 -0.1984 0.7785
N1 N -0.3288(6) -0.2026(6) 0.4570(6)
N2 N 0.2294(7) 0.6195(4) 0.9102(5)
N3 N 0.1275(6) 0.6877(4) 1.6481(4)
C1 C 0.3562(5) -0.0526(4) 0.6962(4)
C2 C 0.2111(5) -0.0739(4) 0.6649(4)
H5 H 0.1661 -0.0711 0.7171
C3 C 0.1268(5) -0.0997(5) 0.5588(4)
C4 C 0.1960(6) -0.1006(6) 0.4825(5)
H6 H 0.1423 -0.1184 0.4105
C5 C 0.3434(7) -0.0753(7) 0.5127(5)
H7 H 0.3875 -0.0729 0.4622
C6 C 0.4258(6) -0.0535(6) 0.6187(5)
H8 H 0.5252 -0.0397 0.6383
C7 C -0.0319(6) -0.1326(5) 0.5248(4)
C8 C -0.1042(6) -0.1224(5) 0.6020(5)
H9 H -0.0546 -0.0908 0.6776
C9 C -0.2493(7) -0.1587(6) 0.5675(6)
H10 H -0.2946 -0.1535 0.6203
C10 C -0.2619(8) -0.2067(7) 0.3903(6)
H11 H -0.3153 -0.2350 0.3158
C11 C -0.1150(7) -0.1733(6) 0.4149(5)
H12 H -0.0750 -0.1784 0.3595
C12 C 0.4458(5) -0.0360(4) 0.8075(4)
C13 C -0.0770(5) 0.1742(4) 0.8585(4)
C14 C 0.0127(6) 0.2593(4) 0.8723(4)
H13 H 0.1112 0.2643 0.9006
C15 C -0.0429(6) 0.3382(4) 0.8443(4)
C16 C -0.1909(7) 0.3255(5) 0.8001(5)
H14 H -0.2311 0.3769 0.7813
C17 C -0.2779(6) 0.2398(6) 0.7837(6)
H15 H -0.3757 0.2311 0.7502
C18 C -0.2223(6) 0.1656(5) 0.8164(4)
H16 H -0.2830 0.1100 0.8099
C19 C 0.0520(6) 0.4354(4) 0.8679(4)
C20 C -0.0032(8) 0.5242(5) 0.8623(5)
H17 H -0.1017 0.5257 0.8458
C21 C 0.0889(9) 0.6118(5) 0.8812(6)
H18 H 0.0482 0.6686 0.8728
C22 C 0.2823(9) 0.5357(6) 0.9165(7)
H19 H 0.3814 0.5383 0.9354
C23 C 0.2009(8) 0.4437(6) 0.8968(7)
H20 H 0.2457 0.3872 0.9029
C24 C -0.0139(5) 0.0957(4) 0.8976(4)
C25 C 0.3441(5) 0.3525(4) 1.2212(4)
C26 C 0.2774(5) 0.4057(4) 1.3034(4)
H21 H 0.2041 0.3671 1.3085
C27 C 0.3188(6) 0.5187(4) 1.3807(4)
C28 C 0.4261(6) 0.5761(4) 1.3704(5)
H22 H 0.4561 0.6502 1.4212
C29 C 0.4884(6) 0.5212(4) 1.2828(5)
H23 H 0.5580 0.5599 1.2743
C30 C 0.4488(6) 0.4121(4) 1.2097(5)
H24 H 0.4915 0.3771 1.1520
C31 C 0.2494(6) 0.5771(4) 1.4717(4)
C32 C 0.1039(6) 0.5772(5) 1.4528(5)
H25 H 0.0435 0.5397 1.3801
C33 C 0.0474(8) 0.6329(5) 1.5415(6)
H26 H -0.0514 0.6323 1.5265
C34 C 0.2661(9) 0.6869(6) 1.6650(5)
H27 H 0.3230 0.7232 1.7389
C35 C 0.3344(7) 0.6377(5) 1.5837(5)
H28 H 0.4339 0.6439 1.6016
C36 C 0.3087(5) 0.2304(4) 1.1456(4)
Gd1A Gd -0.252373(19) 0.002217(15) 0.997522(15)
Gd1A_2 Gd 0.747627(19) 0.002217(15) 0.997522(15)
O2A O 0.4208(3) 0.0312(3) 1.1741(3)
O4A O 0.0960(4) -0.0454(3) 1.0790(3)
O9 O 0.3743(9) 0.2245(7) 0.8833(6)
H29 H 0.4376 0.1857 0.8602
H30 H 0.2959 0.1838 0.8491
loop_
_geom_bond_atom_site_label_1
_geom_bond_atom_site_label_2
_geom_bond_site_symmetry_1
_geom_bond_site_symmetry_2
Gd1 O1 1_555 1_555
O1 C12 1_555 1_555
O2 C12 1_555 1_555
O3 Gd1 1_555 1_555
O4 C24 1_555 1_555
O5 Gd1 1_555 1_555
O6 Gd1 1_555 1_555
O7 Gd1 1_555 1_555
H1 O7 1_555 1_555
H2 O7 1_555 1_555
O8 Gd1 1_555 1_555
H3 O8 1_555 1_555
H4 O8 1_555 1_555
N1 C9 1_555 1_555
N2 C21 1_555 1_555
N3 C33 1_555 1_555
C1 C2 1_555 1_555
C2 H5 1_555 1_555
C3 C2 1_555 1_555
C4 C3 1_555 1_555
H6 C4 1_555 1_555
C5 C4 1_555 1_555
H7 C5 1_555 1_555
C6 C1 1_555 1_555
H8 C6 1_555 1_555
C7 C3 1_555 1_555
C8 C7 1_555 1_555
H9 C8 1_555 1_555
C9 C8 1_555 1_555
H10 C9 1_555 1_555
C10 N1 1_555 1_555
H11 C10 1_555 1_555
C11 C7 1_555 1_555
H12 C11 1_555 1_555
C12 C1 1_555 1_555
C13 C14 1_555 1_555
C14 H13 1_555 1_555
C15 C14 1_555 1_555
C16 C15 1_555 1_555
H14 C16 1_555 1_555
C17 C16 1_555 1_555
H15 C17 1_555 1_555
C18 C13 1_555 1_555
H16 C18 1_555 1_555
C19 C15 1_555 1_555
C20 C19 1_555 1_555
H17 C20 1_555 1_555
C21 C20 1_555 1_555
H18 C21 1_555 1_555
C22 N2 1_555 1_555
H19 C22 1_555 1_555
C23 C19 1_555 1_555
H20 C23 1_555 1_555
C24 O3 1_555 1_555
C25 C26 1_555 1_555
C26 H21 1_555 1_555
C27 C26 1_555 1_555
C28 C27 1_555 1_555
H22 C28 1_555 1_555
C29 C28 1_555 1_555
H23 C29 1_555 1_555
C30 C25 1_555 1_555
H24 C30 1_555 1_555
C31 C27 1_555 1_555
C32 C31 1_555 1_555
H25 C32 1_555 1_555
C33 C32 1_555 1_555
H26 C33 1_555 1_555
C34 N3 1_555 1_555
H27 C34 1_555 1_555
C35 C31 1_555 1_555
H28 C35 1_555 1_555
C36 O5 1_555 1_555
O9 H29 1_555 1_555
H30 O9 1_555 1_555
Gd1A O4 1_555 1_555
Gd1A_2 O2 1_555 1_555
O2A Gd1 1_555 1_555
O4A Gd1 1_555 1_555
O6 C36 1_555 1_555
C5 C6 1_555 1_555
C10 C11 1_555 1_555
C13 C24 1_555 1_555
C17 C18 1_555 1_555
C22 C23 1_555 1_555
C25 C36 1_555 1_555
C29 C30 1_555 1_555
C34 C35 1_555 1_555

#END
