
#######################################################################
#
#                 Cambridge Crystallographic Data Centre
#                                CCDC 
#
#######################################################################
#
# If this CIF has been generated from an entry in the Cambridge 
# Structural Database, then it will include bibliographic, chemical, 
# crystal, experimental, refinement or atomic coordinate data resulting 
# from the CCDC's data processing and validation procedures.
#
#######################################################################

data_XECSAB
_symmetry_cell_setting           triclinic
_symmetry_space_group_name_H-M   'P -1'
_symmetry_Int_Tables_number      2
_space_group_name_Hall           '-P 1'
loop_
_symmetry_equiv_pos_site_id
_symmetry_equiv_pos_as_xyz
1 x,y,z
2 -x,-y,-z
_cell_length_a                   9.7252(5)
_cell_length_b                   13.9535(6)
_cell_length_c                   14.0829(8)
_cell_angle_alpha                118.019(5)
_cell_angle_beta                 104.240(5)
_cell_angle_gamma                90.089(4)
_cell_volume                     1619.84
loop_
_atom_site_label
_atom_site_type_symbol
_atom_site_fract_x
_atom_site_fract_y
_atom_site_fract_z
Gd1 Gd 0.252518(15) -0.002199(12) 0.002647(12)
O1 O 0.2075(2) 0.17870(18) 0.15035(19)
O2 O 0.3835(2) 0.18197(17) 0.07980(19)
O3 O 0.4213(2) 0.03112(19) 0.17419(19)
O4 O 0.6183(2) 0.02697(19) 0.12145(18)
O5 O -0.0958(2) 0.04584(19) -0.0786(2)
O6 O 0.1155(2) 0.08726(18) -0.0915(2)
O7 O 0.0774(2) -0.1512(2) -0.1568(2)
O8 O 0.3516(3) -0.17299(19) -0.0343(2)
N1 N 0.1269(4) 0.6874(3) 0.6483(3)
N2 N 1.3290(4) 0.2014(3) 0.5396(4)
N3 N 0.2287(4) 0.6204(3) -0.0892(3)
C1 C 0.3436(3) 0.3525(3) 0.2204(3)
C2 C 0.2774(3) 0.4068(3) 0.3048(3)
H1 H 0.2038 0.3674 0.3114
C3 C 0.3178(4) 0.5181(3) 0.3797(3)
C4 C 0.4266(4) 0.5753(3) 0.3694(3)
H2 H 0.4578 0.6507 0.4217
C5 C 0.4884(4) 0.5218(3) 0.2832(3)
H3 H 0.5597 0.5613 0.2746
C6 C 0.4478(4) 0.4114(3) 0.2092(3)
H4 H 0.4914 0.3755 0.1503
C7 C 0.2509(4) 0.5773(3) 0.4722(3)
C8 C 0.3328(5) 0.6354(3) 0.5820(3)
H5 H 0.4341 0.6393 0.5998
C9 C 0.2673(5) 0.6879(4) 0.6658(4)
H6 H 0.3263 0.7268 0.7408
C10 C 0.0485(5) 0.6331(3) 0.5419(4)
H7 H -0.0522 0.6332 0.5267
C11 C 0.1031(4) 0.5768(3) 0.4523(3)
H8 H 0.0413 0.5384 0.3782
C12 C 0.3088(3) 0.2315(3) 0.1464(3)
C13 C 0.6422(3) 0.0531(3) 0.3047(3)
C14 C 0.7906(3) 0.0751(3) 0.3354(3)
H9 H 0.8363 0.0731 0.2823
C15 C 0.8737(3) 0.0999(3) 0.4416(3)
C16 C 0.8041(4) 0.0999(4) 0.5168(3)
H10 H 0.8584 0.1169 0.5901
C17 C 0.6570(4) 0.0754(4) 0.4861(3)
H11 H 0.6113 0.0735 0.5377
C18 C 0.5758(4) 0.0535(3) 0.3811(3)
H12 H 0.4744 0.0387 0.3614
C19 C 1.0316(4) 0.1321(3) 0.4756(3)
C20 C 1.1051(4) 0.1240(3) 0.3992(4)
H13 H 1.0552 0.0931 0.3220
C21 C 1.2497(4) 0.1605(4) 0.4350(4)
H14 H 1.2952 0.1559 0.3808
C22 C 1.2615(5) 0.2065(4) 0.6113(4)
H15 H 1.3162 0.2343 0.6871
C23 C 1.1152(4) 0.1742(4) 0.5848(4)
H16 H 1.0733 0.1812 0.6416
C24 C 0.5544(3) 0.0352(3) 0.1922(3)
C25 C -0.0766(3) 0.1751(3) -0.1399(3)
C26 C 0.0122(3) 0.2600(3) -0.1274(3)
H17 H 0.1128 0.2649 -0.0993
C27 C -0.0424(4) 0.3386(3) -0.1553(3)
C28 C -0.1895(4) 0.3258(3) -0.2000(4)
H18 H -0.2296 0.3774 -0.2209
C29 C -0.2787(4) 0.2405(3) -0.2148(4)
H19 H -0.3789 0.2332 -0.2466
C30 C -0.2230(4) 0.1656(3) -0.1837(3)
H20 H -0.2848 0.1077 -0.1922
C31 C 0.0522(4) 0.4346(3) -0.1337(3)
C32 C -0.0024(5) 0.5242(3) -0.1383(3)
H21 H -0.1030 0.5246 -0.1565
C33 C 0.0871(6) 0.6126(3) -0.1170(4)
H22 H 0.0448 0.6718 -0.1224
C34 C 0.2818(5) 0.5352(4) -0.0836(5)
H23 H 0.3830 0.5385 -0.0628
C35 C 0.2005(5) 0.4419(3) -0.1060(4)
H24 H 0.2459 0.3830 -0.1024
C36 C -0.0144(3) 0.0968(2) -0.1011(2)
H25 H 0.004(4) -0.156(3) -0.158(3)
H26 H 0.318(4) -0.235(3) -0.047(3)
H27 H 0.088(3) -0.207(3) -0.219(3)
H28 H 0.422(4) -0.181(3) -0.048(3)
Gd1A Gd -0.252518(15) 0.002199(12) -0.002647(12)
Gd1_2 Gd -0.747482(15) -0.002199(12) 0.002647(12)
Gd1A_2 Gd 0.747482(15) 0.002199(12) -0.002647(12)
O1A O -0.2075(2) -0.17870(18) -0.15035(19)
O2A O -0.3835(2) -0.18197(17) -0.07980(19)
O3A O -0.4213(2) -0.03112(19) -0.17419(19)
O4A O -0.6183(2) -0.02697(19) -0.12145(18)
O4_2 O -0.3817(2) 0.02697(19) 0.12145(18)
O4A_2 O 0.3817(2) -0.02697(19) -0.12145(18)
O5A O 0.0958(2) -0.04584(19) 0.0786(2)
O6A O -0.1155(2) -0.08726(18) 0.0915(2)
O7A O -0.0774(2) 0.1512(2) 0.1568(2)
O8A O -0.3516(3) 0.17299(19) 0.0343(2)
N1A N -0.1269(4) -0.6874(3) -0.6483(3)
N2A N -1.3290(4) -0.2014(3) -0.5396(4)
N3A N -0.2287(4) -0.6204(3) 0.0892(3)
C1A C -0.3436(3) -0.3525(3) -0.2204(3)
C2A C -0.2774(3) -0.4068(3) -0.3048(3)
H1A H -0.2038 -0.3674 -0.3114
C3A C -0.3178(4) -0.5181(3) -0.3797(3)
C4A C -0.4266(4) -0.5753(3) -0.3694(3)
H2A H -0.4578 -0.6507 -0.4217
C5A C -0.4884(4) -0.5218(3) -0.2832(3)
H3A H -0.5597 -0.5613 -0.2746
C6A C -0.4478(4) -0.4114(3) -0.2092(3)
H4A H -0.4914 -0.3755 -0.1503
C7A C -0.2509(4) -0.5773(3) -0.4722(3)
C8A C -0.3328(5) -0.6354(3) -0.5820(3)
H5A H -0.4341 -0.6393 -0.5998
C9A C -0.2673(5) -0.6879(4) -0.6658(4)
H6A H -0.3263 -0.7268 -0.7408
C10A C -0.0485(5) -0.6331(3) -0.5419(4)
H7A H 0.0522 -0.6332 -0.5267
C11A C -0.1031(4) -0.5768(3) -0.4523(3)
H8A H -0.0413 -0.5384 -0.3782
C12A C -0.3088(3) -0.2315(3) -0.1464(3)
C13A C -0.6422(3) -0.0531(3) -0.3047(3)
C14A C -0.7906(3) -0.0751(3) -0.3354(3)
H9A H -0.8363 -0.0731 -0.2823
C15A C -0.8737(3) -0.0999(3) -0.4416(3)
C16A C -0.8041(4) -0.0999(4) -0.5168(3)
H10A H -0.8584 -0.1169 -0.5901
C17A C -0.6570(4) -0.0754(4) -0.4861(3)
H11A H -0.6113 -0.0735 -0.5377
C18A C -0.5758(4) -0.0535(3) -0.3811(3)
H12A H -0.4744 -0.0387 -0.3614
C19A C -1.0316(4) -0.1321(3) -0.4756(3)
C20A C -1.1051(4) -0.1240(3) -0.3992(4)
H13A H -1.0552 -0.0931 -0.3220
C21A C -1.2497(4) -0.1605(4) -0.4350(4)
H14A H -1.2952 -0.1559 -0.3808
C22A C -1.2615(5) -0.2065(4) -0.6113(4)
H15A H -1.3162 -0.2343 -0.6871
C23A C -1.1152(4) -0.1742(4) -0.5848(4)
H16A H -1.0733 -0.1812 -0.6416
C24A C -0.5544(3) -0.0352(3) -0.1922(3)
C25A C 0.0766(3) -0.1751(3) 0.1399(3)
C26A C -0.0122(3) -0.2600(3) 0.1274(3)
H17A H -0.1128 -0.2649 0.0993
C27A C 0.0424(4) -0.3386(3) 0.1553(3)
C28A C 0.1895(4) -0.3258(3) 0.2000(4)
H18A H 0.2296 -0.3774 0.2209
C29A C 0.2787(4) -0.2405(3) 0.2148(4)
H19A H 0.3789 -0.2332 0.2466
C30A C 0.2230(4) -0.1656(3) 0.1837(3)
H20A H 0.2848 -0.1077 0.1922
C31A C -0.0522(4) -0.4346(3) 0.1337(3)
C32A C 0.0024(5) -0.5242(3) 0.1383(3)
H21A H 0.1030 -0.5246 0.1565
C33A C -0.0871(6) -0.6126(3) 0.1170(4)
H22A H -0.0448 -0.6718 0.1224
C34A C -0.2818(5) -0.5352(4) 0.0836(5)
H23A H -0.3830 -0.5385 0.0628
C35A C -0.2005(5) -0.4419(3) 0.1060(4)
H24A H -0.2459 -0.3830 0.1024
C36A C 0.0144(3) -0.0968(2) 0.1011(2)
H25A H -0.004(4) 0.156(3) 0.158(3)
H26A H -0.318(4) 0.235(3) 0.047(3)
H27A H -0.088(3) 0.207(3) 0.219(3)
H28A H -0.422(4) 0.181(3) 0.048(3)
O9 O 0.3749(6) 0.2281(5) -0.1164(5)
H29 H 0.450(3) 0.198(3) -0.132(3)
H30 H 0.359(4) 0.189(3) -0.087(3)
loop_
_geom_bond_atom_site_label_1
_geom_bond_atom_site_label_2
_geom_bond_site_symmetry_1
_geom_bond_site_symmetry_2
Gd1 O1 1_555 1_555
O1 C12 1_555 1_555
O2 Gd1 1_555 1_555
O3 Gd1 1_555 1_555
O4 C24 1_555 1_555
O5 C36 1_555 1_555
O6 Gd1 1_555 1_555
O7 Gd1 1_555 1_555
O8 Gd1 1_555 1_555
N1 C9 1_555 1_555
N2 C21 1_555 1_555
N3 C33 1_555 1_555
C1 C2 1_555 1_555
C2 H1 1_555 1_555
C3 C2 1_555 1_555
C4 C3 1_555 1_555
H2 C4 1_555 1_555
C5 C4 1_555 1_555
H3 C5 1_555 1_555
C6 C1 1_555 1_555
H4 C6 1_555 1_555
C7 C3 1_555 1_555
C8 C7 1_555 1_555
H5 C8 1_555 1_555
C9 C8 1_555 1_555
H6 C9 1_555 1_555
C10 N1 1_555 1_555
H7 C10 1_555 1_555
C11 C7 1_555 1_555
H8 C11 1_555 1_555
C12 O2 1_555 1_555
C13 C14 1_555 1_555
C14 H9 1_555 1_555
C15 C14 1_555 1_555
C16 C15 1_555 1_555
H10 C16 1_555 1_555
C17 C16 1_555 1_555
H11 C17 1_555 1_555
C18 C13 1_555 1_555
H12 C18 1_555 1_555
C19 C15 1_555 1_555
C20 C19 1_555 1_555
H13 C20 1_555 1_555
C21 C20 1_555 1_555
H14 C21 1_555 1_555
C22 N2 1_555 1_555
H15 C22 1_555 1_555
C23 C19 1_555 1_555
H16 C23 1_555 1_555
C24 O3 1_555 1_555
C25 C26 1_555 1_555
C26 H17 1_555 1_555
C27 C26 1_555 1_555
C28 C27 1_555 1_555
H18 C28 1_555 1_555
C29 C28 1_555 1_555
H19 C29 1_555 1_555
C30 C25 1_555 1_555
H20 C30 1_555 1_555
C31 C27 1_555 1_555
C32 C31 1_555 1_555
H21 C32 1_555 1_555
C33 C32 1_555 1_555
H22 C33 1_555 1_555
C34 N3 1_555 1_555
H23 C34 1_555 1_555
C35 C31 1_555 1_555
H24 C35 1_555 1_555
C36 O6 1_555 1_555
H25 O7 1_555 1_555
H26 O8 1_555 1_555
H27 O7 1_555 1_555
H28 O8 1_555 1_555
O9 H29 1_555 1_555
H30 O9 1_555 1_555
Gd1A O5 1_555 1_555
Gd1_2 O4A 1_555 1_555
Gd1A_2 O4 1_555 1_555
O1A Gd1A 1_555 1_555
O2A Gd1A 1_555 1_555
O3A Gd1A 1_555 1_555
O4A C24A 1_555 1_555
O4_2 Gd1A 1_555 1_555
O4A_2 Gd1 1_555 1_555
O5A Gd1 1_555 1_555
O6A Gd1A 1_555 1_555
O7A Gd1A 1_555 1_555
O8A Gd1A 1_555 1_555
N1A C9A 1_555 1_555
N2A C21A 1_555 1_555
N3A C33A 1_555 1_555
C1A C2A 1_555 1_555
C2A H1A 1_555 1_555
C3A C2A 1_555 1_555
C4A C3A 1_555 1_555
H2A C4A 1_555 1_555
C5A C4A 1_555 1_555
H3A C5A 1_555 1_555
C6A C1A 1_555 1_555
H4A C6A 1_555 1_555
C7A C3A 1_555 1_555
C8A C7A 1_555 1_555
H5A C8A 1_555 1_555
C9A C8A 1_555 1_555
H6A C9A 1_555 1_555
C10A N1A 1_555 1_555
H7A C10A 1_555 1_555
C11A C7A 1_555 1_555
H8A C11A 1_555 1_555
C12A O1A 1_555 1_555
C13A C14A 1_555 1_555
C14A H9A 1_555 1_555
C15A C14A 1_555 1_555
C16A C15A 1_555 1_555
H10A C16A 1_555 1_555
C17A C16A 1_555 1_555
H11A C17A 1_555 1_555
C18A C13A 1_555 1_555
H12A C18A 1_555 1_555
C19A C15A 1_555 1_555
C20A C19A 1_555 1_555
H13A C20A 1_555 1_555
C21A C20A 1_555 1_555
H14A C21A 1_555 1_555
C22A N2A 1_555 1_555
H15A C22A 1_555 1_555
C23A C19A 1_555 1_555
H16A C23A 1_555 1_555
C24A O3A 1_555 1_555
C25A C26A 1_555 1_555
C26A H17A 1_555 1_555
C27A C26A 1_555 1_555
C28A C27A 1_555 1_555
H18A C28A 1_555 1_555
C29A C28A 1_555 1_555
H19A C29A 1_555 1_555
C30A C25A 1_555 1_555
H20A C30A 1_555 1_555
C31A C27A 1_555 1_555
C32A C31A 1_555 1_555
H21A C32A 1_555 1_555
C33A C32A 1_555 1_555
H22A C33A 1_555 1_555
C34A N3A 1_555 1_555
H23A C34A 1_555 1_555
C35A C31A 1_555 1_555
H24A C35A 1_555 1_555
C36A O5A 1_555 1_555
H25A O7A 1_555 1_555
H26A O8A 1_555 1_555
H27A O7A 1_555 1_555
H28A O8A 1_555 1_555
C1 C12 1_555 1_555
C5 C6 1_555 1_555
C10 C11 1_555 1_555
C13 C24 1_555 1_555
C17 C18 1_555 1_555
C22 C23 1_555 1_555
C25 C36 1_555 1_555
C29 C30 1_555 1_555
C34 C35 1_555 1_555
O2A C12A 1_555 1_555
O6A C36A 1_555 1_555
C1A C12A 1_555 1_555
C5A C6A 1_555 1_555
C10A C11A 1_555 1_555
C13A C24A 1_555 1_555
C17A C18A 1_555 1_555
C22A C23A 1_555 1_555
C25A C36A 1_555 1_555
C29A C30A 1_555 1_555
C34A C35A 1_555 1_555

#END
