
#######################################################################
#
#                 Cambridge Crystallographic Data Centre
#                                CCDC 
#
#######################################################################
#
# If this CIF has been generated from an entry in the Cambridge 
# Structural Database, then it will include bibliographic, chemical, 
# crystal, experimental, refinement or atomic coordinate data resulting 
# from the CCDC's data processing and validation procedures.
#
#######################################################################

data_XECWUZ
_symmetry_cell_setting           monoclinic
_symmetry_space_group_name_H-M   'P 21/n'
_symmetry_Int_Tables_number      14
_space_group_name_Hall           '-P 2yn'
loop_
_symmetry_equiv_pos_site_id
_symmetry_equiv_pos_as_xyz
1 x,y,z
2 1/2-x,1/2+y,1/2-z
3 -x,-y,-z
4 1/2+x,1/2-y,1/2+z
_cell_length_a                   8.6359(16)
_cell_length_b                   21.2426(12)
_cell_length_c                   8.6416(13)
_cell_angle_alpha                90
_cell_angle_beta                 92.789(3)
_cell_angle_gamma                90
_cell_volume                     1583.41
loop_
_atom_site_label
_atom_site_type_symbol
_atom_site_fract_x
_atom_site_fract_y
_atom_site_fract_z
C1 C 0.1039(5) 0.38729(17) 0.6495(5)
C2 C 0.2016(4) 0.39108(17) 0.7843(4)
H1 H 0.2351 0.3543 0.8334
C3 C 0.2482(4) 0.44891(17) 0.8487(4)
H2 H 0.3128 0.4499 0.9380
C4 C 0.1983(5) 0.50468(18) 0.7798(4)
C5 C 0.1014(4) 0.50163(17) 0.6407(4)
C6 C 0.0513(4) 0.44257(18) 0.5757(4)
C7 C -0.0636(4) 0.43979(16) 0.4486(4)
C8 C 0.2460(5) 0.56481(18) 0.8562(4)
C9 C 0.0736(4) 0.32135(17) 0.5866(4)
C10 C 0.0110(4) 0.14286(18) 0.0564(4)
H3 H -0.0205 0.1805 0.0100
C11 C -0.0207(4) 0.08759(16) -0.0196(4)
H4 H -0.0731 0.0895 -0.1161
C12 C 0.0200(4) 0.02965(17) 0.0378(4)
C13 C 0.1022(4) 0.03075(17) 0.1803(4)
H5 H 0.1327 -0.0067 0.2285
C14 C 0.1388(5) 0.08895(17) 0.2511(4)
H6 H 0.2024 0.0894 0.3411
N1 N 0.0841(3) 0.14441(14) 0.1922(4)
Ni1 Ni 0.10940(5) 0.22477(2) 0.33004(5)
O1 O 0.3792(3) 0.57569(12) 0.8713(3)
O2 O 0.1359(3) 0.59770(12) 0.9128(3)
O3 O -0.1319(3) 0.39084(11) 0.4195(3)
O4 O 0.0032(3) 0.28515(12) 0.6693(3)
O5 O 0.1290(3) 0.30879(11) 0.4574(3)
O6 O 0.0040(3) 0.17982(11) 0.5068(3)
H7 H 0.0512 0.1923 0.5898
H8 H -0.0052 0.1415 0.4795
O7 O 0.3310(3) 0.20054(11) 0.4219(3)
H9 H 0.3965 0.2055 0.3525
H10 H 0.3314 0.1623 0.4510
O8 O 0.1681(3) 0.27455(12) 0.1160(3)
H11 H 0.2466 0.2873 0.0692
H12 H 0.0907 0.2797 0.0526
O9 O -0.1130(3) 0.26235(12) 0.2516(3)
H13 H -0.1200 0.2630 0.1531
H14 H -0.1223 0.2996 0.2861
C1B C -0.1039(5) 0.61271(17) 0.3505(5)
C2B C -0.2016(4) 0.60892(17) 0.2157(4)
H1B H -0.2351 0.6457 0.1666
C3B C -0.2482(4) 0.55109(17) 0.1513(4)
H2B H -0.3128 0.5501 0.0620
C4B C -0.1983(5) 0.49532(18) 0.2202(4)
C5B C -0.1014(4) 0.49837(17) 0.3593(4)
C6B C -0.0513(4) 0.55743(18) 0.4243(4)
C7B C 0.0636(4) 0.56021(16) 0.5514(4)
C8B C -0.2460(5) 0.43519(18) 0.1438(4)
C9B C -0.0736(4) 0.67865(17) 0.4134(4)
C10B C -0.0110(4) -0.14286(18) -0.0564(4)
H3B H 0.0205 -0.1805 -0.0100
C11B C 0.0207(4) -0.08759(16) 0.0196(4)
H4B H 0.0731 -0.0895 0.1161
C12B C -0.0200(4) -0.02965(17) -0.0378(4)
C13B C -0.1022(4) -0.03075(17) -0.1803(4)
H5B H -0.1327 0.0067 -0.2285
C14B C -0.1388(5) -0.08895(17) -0.2511(4)
H6B H -0.2024 -0.0894 -0.3411
N1B N -0.0841(3) -0.14441(14) -0.1922(4)
Ni1B Ni -0.10940(5) -0.22477(2) -0.33004(5)
Ni1B_2 Ni -0.10940(5) 0.77523(2) 0.66996(5)
O1B O -0.3792(3) 0.42431(12) 0.1287(3)
O2B O -0.1359(3) 0.40230(12) 0.0872(3)
O3B O 0.1319(3) 0.60916(11) 0.5805(3)
O4B O -0.0032(3) 0.71485(12) 0.3307(3)
O5B O -0.1290(3) 0.69121(11) 0.5426(3)
O5B_2 O -0.1290(3) -0.30879(11) -0.4574(3)
O6B O -0.0040(3) -0.17982(11) -0.5068(3)
H7B H -0.0512 -0.1923 -0.5898
H8B H 0.0052 -0.1415 -0.4795
O7B O -0.3310(3) -0.20054(11) -0.4219(3)
H9B H -0.3965 -0.2055 -0.3525
H10B H -0.3314 -0.1623 -0.4510
O8B O -0.1681(3) -0.27455(12) -0.1160(3)
H11B H -0.2466 -0.2873 -0.0692
H12B H -0.0907 -0.2797 -0.0526
O9B O 0.1130(3) -0.26235(12) -0.2516(3)
H13B H 0.1200 -0.2630 -0.1531
H14B H 0.1223 -0.2996 -0.2861
loop_
_geom_bond_atom_site_label_1
_geom_bond_atom_site_label_2
_geom_bond_site_symmetry_1
_geom_bond_site_symmetry_2
C1 C2 1_555 1_555
C2 H1 1_555 1_555
C3 C2 1_555 1_555
H2 C3 1_555 1_555
C4 C3 1_555 1_555
C5 C4 1_555 1_555
C6 C1 1_555 1_555
C7 C6 1_555 1_555
C8 C4 1_555 1_555
C9 C1 1_555 1_555
C10 H3 1_555 1_555
C11 C10 1_555 1_555
H4 C11 1_555 1_555
C12 C11 1_555 1_555
C13 C12 1_555 1_555
H5 C13 1_555 1_555
C14 C13 1_555 1_555
H6 C14 1_555 1_555
N1 C10 1_555 1_555
Ni1 N1 1_555 1_555
O1 C8 1_555 1_555
O2 C8 1_555 1_555
O3 C7 1_555 1_555
O4 C9 1_555 1_555
O5 C9 1_555 1_555
O6 Ni1 1_555 1_555
H7 O6 1_555 1_555
H8 O6 1_555 1_555
O7 Ni1 1_555 1_555
H9 O7 1_555 1_555
H10 O7 1_555 1_555
O8 Ni1 1_555 1_555
H11 O8 1_555 1_555
H12 O8 1_555 1_555
O9 Ni1 1_555 1_555
H13 O9 1_555 1_555
H14 O9 1_555 1_555
C1B C2B 1_555 1_555
C2B H1B 1_555 1_555
C3B C2B 1_555 1_555
H2B C3B 1_555 1_555
C4B C3B 1_555 1_555
C5B C7 1_555 1_555
C6B C1B 1_555 1_555
C7B C5 1_555 1_555
C8B C4B 1_555 1_555
C9B C1B 1_555 1_555
C10B H3B 1_555 1_555
C11B C10B 1_555 1_555
H4B C11B 1_555 1_555
C12B C12 1_555 1_555
C13B C12B 1_555 1_555
H5B C13B 1_555 1_555
C14B C13B 1_555 1_555
H6B C14B 1_555 1_555
N1B C10B 1_555 1_555
Ni1B N1B 1_555 1_555
Ni1B_2 O5B 1_555 1_555
O1B C8B 1_555 1_555
O2B C8B 1_555 1_555
O3B C7B 1_555 1_555
O4B C9B 1_555 1_555
O5B C9B 1_555 1_555
O5B_2 Ni1B 1_555 1_555
O6B Ni1B 1_555 1_555
H7B O6B 1_555 1_555
H8B O6B 1_555 1_555
O7B Ni1B 1_555 1_555
H9B O7B 1_555 1_555
H10B O7B 1_555 1_555
O8B Ni1B 1_555 1_555
H11B O8B 1_555 1_555
H12B O8B 1_555 1_555
O9B Ni1B 1_555 1_555
H13B O9B 1_555 1_555
H14B O9B 1_555 1_555
C5 C6 1_555 1_555
C14 N1 1_555 1_555
Ni1 O5 1_555 1_555
C4B C5B 1_555 1_555
C5B C6B 1_555 1_555
C6B C7B 1_555 1_555
C11B C12B 1_555 1_555
C14B N1B 1_555 1_555

#END
