
#######################################################################
#
#                 Cambridge Crystallographic Data Centre
#                                CCDC 
#
#######################################################################
#
# If this CIF has been generated from an entry in the Cambridge 
# Structural Database, then it will include bibliographic, chemical, 
# crystal, experimental, refinement or atomic coordinate data resulting 
# from the CCDC's data processing and validation procedures.
#
#######################################################################

data_XECYOV
_symmetry_cell_setting           orthorhombic
_symmetry_space_group_name_H-M   'P b c n'
_symmetry_Int_Tables_number      60
_space_group_name_Hall           '-P 2n 2ab'
loop_
_symmetry_equiv_pos_site_id
_symmetry_equiv_pos_as_xyz
1 x,y,z
2 1/2-x,1/2-y,1/2+z
3 -x,y,1/2-z
4 1/2+x,1/2-y,-z
5 -x,-y,-z
6 1/2+x,1/2+y,1/2-z
7 x,-y,1/2+z
8 1/2-x,1/2+y,z
_cell_length_a                   8.987(3)
_cell_length_b                   19.769(3)
_cell_length_c                   10.305(3)
_cell_angle_alpha                90
_cell_angle_beta                 90
_cell_angle_gamma                90
_cell_volume                     1830.83
loop_
_atom_site_label
_atom_site_type_symbol
_atom_site_fract_x
_atom_site_fract_y
_atom_site_fract_z
O1 O 0.9557(3) 0.89408(12) -0.0984(2)
La1 La 1.0000 1.011578(11) 0.2500
O2 O 0.8975(3) 0.92871(11) 0.1000(2)
O3 O 1.2552(2) 1.04958(10) 0.3400(2)
H1 H 1.2917 1.0890 0.3483
H2 H 1.3240 1.0228 0.3163
C1 C 0.8975(3) 0.81153(15) 0.0573(3)
C2 C 0.8242(4) 0.79557(17) 0.1717(3)
H3 H 0.7884 0.8293 0.2262
O4 O 0.7951(3) 0.95919(14) 0.3865(2)
H4 H 0.7803 0.9566 0.4678
H5 H 0.7123 0.9541 0.3480
C3 C 0.9497(4) 0.75920(16) -0.0183(3)
H6 H 1.0001 0.7681 -0.0952
N1 N 0.8541(3) 0.67750(15) 0.1297(3)
C4 C 0.9265(5) 0.69354(18) 0.0216(4)
H7 H 0.9633 0.6587 -0.0297
C5 C 0.8060(5) 0.7282(2) 0.2023(4)
H8 H 0.7567 0.7176 0.2790
C6 C 0.9186(3) 0.88401(15) 0.0168(3)
O1B O 1.0443(3) 0.89408(12) 0.5984(2)
O1D O 1.0443(3) 1.10592(12) 0.0984(2)
O1F O 0.9557(3) 1.10592(12) 0.4016(2)
La1D La 1.0000 0.988422(11) -0.2500
La1D_2 La 1.0000 0.988422(11) 0.7500
O2B O 1.1025(3) 0.92871(11) 0.4000(2)
O3B O 0.7448(2) 1.04958(10) 0.1600(2)
H1B H 0.7083 1.0890 0.1517
H2B H 0.6760 1.0228 0.1837
C1B C 1.1025(3) 0.81153(15) 0.4427(3)
C2B C 1.1758(4) 0.79557(17) 0.3283(3)
H3B H 1.2116 0.8293 0.2738
O4B O 1.2049(3) 0.95919(14) 0.1135(2)
H4B H 1.2197 0.9566 0.0322
H5B H 1.2877 0.9541 0.1520
C3B C 1.0503(4) 0.75920(16) 0.5183(3)
H6B H 0.9999 0.7681 0.5952
N1B N 1.1459(3) 0.67750(15) 0.3703(3)
C4B C 1.0735(5) 0.69354(18) 0.4784(4)
H7B H 1.0367 0.6587 0.5297
C5B C 1.1940(5) 0.7282(2) 0.2977(4)
H8B H 1.2433 0.7176 0.2210
C6B C 1.0814(3) 0.88401(15) 0.4832(3)
Cl1 Cl 0.5000 0.94091(8) 0.2500
loop_
_geom_bond_atom_site_label_1
_geom_bond_atom_site_label_2
_geom_bond_site_symmetry_1
_geom_bond_site_symmetry_2
O1 C6 1_555 1_555
La1 O2 1_555 1_555
O2 C6 1_555 1_555
O3 La1 1_555 1_555
H1 O3 1_555 1_555
H2 O3 1_555 1_555
C1 C2 1_555 1_555
C2 H3 1_555 1_555
O4 La1 1_555 1_555
H4 O4 1_555 1_555
H5 O4 1_555 1_555
C3 C1 1_555 1_555
H6 C3 1_555 1_555
N1 C4 1_555 1_555
C4 C3 1_555 1_555
H7 C4 1_555 1_555
C5 C2 1_555 1_555
H8 C5 1_555 1_555
C6 C1 1_555 1_555
O1B La1D_2 1_555 1_555
O1D La1 1_555 1_555
O1F La1 1_555 1_555
La1D O1 1_555 1_555
O2B La1 1_555 1_555
O3B La1 1_555 1_555
H1B O3B 1_555 1_555
H2B O3B 1_555 1_555
C1B C2B 1_555 1_555
C2B H3B 1_555 1_555
O4B La1 1_555 1_555
H4B O4B 1_555 1_555
H5B O4B 1_555 1_555
C3B C1B 1_555 1_555
H6B C3B 1_555 1_555
N1B C4B 1_555 1_555
C4B C3B 1_555 1_555
H7B C4B 1_555 1_555
C5B C2B 1_555 1_555
H8B C5B 1_555 1_555
C6B O1B 1_555 1_555
N1 C5 1_555 1_555
O2B C6B 1_555 1_555
C1B C6B 1_555 1_555
N1B C5B 1_555 1_555

#END
