
#######################################################################
#
#                 Cambridge Crystallographic Data Centre
#                                CCDC 
#
#######################################################################
#
# If this CIF has been generated from an entry in the Cambridge 
# Structural Database, then it will include bibliographic, chemical, 
# crystal, experimental, refinement or atomic coordinate data resulting 
# from the CCDC's data processing and validation procedures.
#
#######################################################################

data_XEDCEO
_symmetry_cell_setting           triclinic
_symmetry_space_group_name_H-M   'P -1'
_symmetry_Int_Tables_number      2
_space_group_name_Hall           '-P 1'
loop_
_symmetry_equiv_pos_site_id
_symmetry_equiv_pos_as_xyz
1 x,y,z
2 -x,-y,-z
_cell_length_a                   9.6809(11)
_cell_length_b                   10.0015(13)
_cell_length_c                   11.2686(13)
_cell_angle_alpha                101.03
_cell_angle_beta                 90.97
_cell_angle_gamma                100.55
_cell_volume                     1051.28
loop_
_atom_site_label
_atom_site_type_symbol
_atom_site_fract_x
_atom_site_fract_y
_atom_site_fract_z
I1 I -0.01767(6) 0.82324(5) 0.76142(4)
Cs1 Cs 0.0000 0.5000 0.5000
Ni1 Ni 0.36161(6) 0.39660(6) 0.38250(5)
I2 I 0.0000 1.0000 1.0000
O1 O 0.2745(4) 0.5463(3) 0.3757(3)
O2 O 0.2896(4) 0.4079(4) 0.5355(3)
O3 O 0.1764(4) 0.7778(4) 0.4224(3)
O4 O 0.1432(5) 0.4441(5) 0.7318(4)
N1 N 0.3941(4) 0.3646(4) 0.2161(3)
N2 N 0.4792(4) 0.2738(4) 0.4094(4)
C1 C 0.2828(5) 0.6199(5) 0.2904(4)
C2 C 0.2300(5) 0.7459(5) 0.3118(4)
C3 C 0.2355(7) 0.8263(7) 0.2253(6)
H1 H 0.2036 0.9098 0.2419
C4 C 0.2886(7) 0.7839(7) 0.1122(6)
H2 H 0.2910 0.8386 0.0539
C5 C 0.3370(6) 0.6617(6) 0.0878(5)
H3 H 0.3710 0.6331 0.0123
C6 C 0.3356(5) 0.5789(5) 0.1764(4)
C7 C 0.3765(5) 0.4471(5) 0.1441(4)
H4 H 0.3922 0.4176 0.0630
C8 C 0.4138(7) 0.2259(6) 0.1602(5)
H5 H 0.4091 0.2165 0.0729
H6 H 0.3380 0.1579 0.1811
C9 C 0.5544(7) 0.1961(6) 0.2006(5)
H7 H 0.5473 0.0967 0.1918
H8 H 0.6263 0.2287 0.1484
C10 C 0.5987(6) 0.2655(6) 0.3314(5)
H9 H 0.6612 0.2139 0.3636
H10 H 0.6510 0.3584 0.3334
C11 C 0.4740(5) 0.2113(5) 0.4986(4)
H11 H 0.5373 0.1521 0.5003
C12 C 0.3810(5) 0.2226(5) 0.5965(4)
C13 C 0.3843(6) 0.1365(6) 0.6811(5)
H12 H 0.4414 0.0704 0.6698
C14 C 0.3042(7) 0.1492(7) 0.7795(6)
H13 H 0.3037 0.0893 0.8333
C15 C 0.2235(7) 0.2520(7) 0.7991(5)
H14 H 0.1712 0.2619 0.8677
C16 C 0.2195(6) 0.3397(6) 0.7188(5)
C17 C 0.2967(5) 0.3243(5) 0.6111(4)
C18 C 0.1138(9) 0.8989(8) 0.4449(6)
H15 H 0.0804 0.9116 0.5252
H16 H 0.0364 0.8876 0.3871
H17 H 0.1827 0.9787 0.4373
C19 C 0.0740(7) 0.4698(8) 0.8422(6)
H18 H 0.0239 0.5441 0.8416
H19 H 0.1425 0.4951 0.9091
H20 H 0.0090 0.3875 0.8501
I1A I 0.01767(6) 0.17676(5) 0.23858(4)
I1A_2 I 0.01767(6) 1.17676(5) 1.23858(4)
Cs1_2 Cs 0.0000 1.5000 1.5000
Ni1A Ni -0.36161(6) 0.60340(6) 0.61750(5)
O1A O -0.2745(4) 0.4537(3) 0.6243(3)
O2A O -0.2896(4) 0.5921(4) 0.4645(3)
N1A N -0.3941(4) 0.6354(4) 0.7839(3)
C7A C -0.3765(5) 0.5529(5) 0.8559(4)
C6A C -0.3356(5) 0.4211(5) 0.8236(4)
C1A C -0.2828(5) 0.3801(5) 0.7096(4)
C2A C -0.2300(5) 0.2541(5) 0.6882(4)
O3A O -0.1764(4) 0.2222(4) 0.5776(3)
O4A O -0.1432(5) 0.5559(5) 0.2682(4)
C16A C -0.2195(6) 0.6603(6) 0.2812(5)
C15A C -0.2235(7) 0.7480(7) 0.2009(5)
C14A C -0.3042(7) 0.8508(7) 0.2205(6)
C13A C -0.3843(6) 0.8635(6) 0.3189(5)
C12A C -0.3810(5) 0.7774(5) 0.4035(4)
C11A C -0.4740(5) 0.7887(5) 0.5014(4)
N2A N -0.4792(4) 0.7262(4) 0.5906(4)
C10A C -0.5987(6) 0.7345(6) 0.6686(5)
C9A C -0.5544(7) 0.8039(6) 0.7994(5)
C8A C -0.4138(7) 0.7741(6) 0.8398(5)
H5A H -0.4091 0.7835 0.9271
H6A H -0.3380 0.8421 0.8189
H7A H -0.5473 0.9033 0.8082
H8A H -0.6263 0.7713 0.8516
H9A H -0.6612 0.7861 0.6364
H10A H -0.6510 0.6416 0.6666
H11A H -0.5373 0.8479 0.4997
C17A C -0.2967(5) 0.6757(5) 0.3889(4)
H12A H -0.4414 0.9296 0.3302
H13A H -0.3037 0.9107 0.1667
H14A H -0.1712 0.7381 0.1323
C19A C -0.0740(7) 0.5302(8) 0.1578(6)
H18A H -0.0239 0.4559 0.1584
H19A H -0.1425 0.5049 0.0909
H20A H -0.0090 0.6125 0.1499
C18A C -0.1138(9) 0.1011(8) 0.5551(6)
H15A H -0.0804 0.0884 0.4748
H16A H -0.0364 0.1124 0.6129
H17A H -0.1827 0.0213 0.5627
C3A C -0.2355(7) 0.1737(7) 0.7747(6)
H1A H -0.2036 0.0902 0.7581
C4A C -0.2886(7) 0.2161(7) 0.8878(6)
H2A H -0.2910 0.1614 0.9461
C5A C -0.3370(6) 0.3383(6) 0.9122(5)
H3A H -0.3710 0.3669 0.9877
H4A H -0.3922 0.5824 0.9370
loop_
_geom_bond_atom_site_label_1
_geom_bond_atom_site_label_2
_geom_bond_site_symmetry_1
_geom_bond_site_symmetry_2
I1 Cs1 1_555 1_555
Cs1 O1 1_555 1_555
Ni1 O1 1_555 1_555
I2 I1 1_555 1_555
O1 C1 1_555 1_555
O2 Cs1 1_555 1_555
O3 Cs1 1_555 1_555
O4 Cs1 1_555 1_555
N1 Ni1 1_555 1_555
N2 Ni1 1_555 1_555
C1 C2 1_555 1_555
C2 O3 1_555 1_555
C3 C2 1_555 1_555
H1 C3 1_555 1_555
C4 C3 1_555 1_555
H2 C4 1_555 1_555
C5 C4 1_555 1_555
H3 C5 1_555 1_555
C6 C1 1_555 1_555
C7 N1 1_555 1_555
H4 C7 1_555 1_555
C8 N1 1_555 1_555
H5 C8 1_555 1_555
H6 C8 1_555 1_555
C9 C8 1_555 1_555
H7 C9 1_555 1_555
H8 C9 1_555 1_555
C10 N2 1_555 1_555
H9 C10 1_555 1_555
H10 C10 1_555 1_555
C11 N2 1_555 1_555
H11 C11 1_555 1_555
C12 C11 1_555 1_555
C13 C12 1_555 1_555
H12 C13 1_555 1_555
C14 C13 1_555 1_555
H13 C14 1_555 1_555
C15 C14 1_555 1_555
H14 C15 1_555 1_555
C16 O4 1_555 1_555
C17 O2 1_555 1_555
C18 O3 1_555 1_555
H15 C18 1_555 1_555
H16 C18 1_555 1_555
H17 C18 1_555 1_555
C19 O4 1_555 1_555
H18 C19 1_555 1_555
H19 C19 1_555 1_555
H20 C19 1_555 1_555
I1A Cs1 1_555 1_555
I1A_2 I2 1_555 1_555
Cs1_2 I1A_2 1_555 1_555
Ni1A O1A 1_555 1_555
O1A Cs1 1_555 1_555
O2A Cs1 1_555 1_555
N1A Ni1A 1_555 1_555
C7A N1A 1_555 1_555
C6A C7A 1_555 1_555
C1A O1A 1_555 1_555
C2A C1A 1_555 1_555
O3A Cs1 1_555 1_555
O4A Cs1 1_555 1_555
C16A O4A 1_555 1_555
C15A C16A 1_555 1_555
C14A C15A 1_555 1_555
C13A C14A 1_555 1_555
C12A C13A 1_555 1_555
C11A C12A 1_555 1_555
N2A Ni1A 1_555 1_555
C10A N2A 1_555 1_555
C9A C10A 1_555 1_555
C8A N1A 1_555 1_555
H5A C8A 1_555 1_555
H6A C8A 1_555 1_555
H7A C9A 1_555 1_555
H8A C9A 1_555 1_555
H9A C10A 1_555 1_555
H10A C10A 1_555 1_555
H11A C11A 1_555 1_555
C17A O2A 1_555 1_555
H12A C13A 1_555 1_555
H13A C14A 1_555 1_555
H14A C15A 1_555 1_555
C19A O4A 1_555 1_555
H18A C19A 1_555 1_555
H19A C19A 1_555 1_555
H20A C19A 1_555 1_555
C18A O3A 1_555 1_555
H15A C18A 1_555 1_555
H16A C18A 1_555 1_555
H17A C18A 1_555 1_555
C3A C2A 1_555 1_555
H1A C3A 1_555 1_555
C4A C3A 1_555 1_555
H2A C4A 1_555 1_555
C5A C6A 1_555 1_555
H3A C5A 1_555 1_555
H4A C7A 1_555 1_555
Ni1 O2 1_555 1_555
C5 C6 1_555 1_555
C6 C7 1_555 1_555
C9 C10 1_555 1_555
C12 C17 1_555 1_555
C15 C16 1_555 1_555
C16 C17 1_555 1_555
Ni1A O2A 1_555 1_555
C6A C1A 1_555 1_555
C2A O3A 1_555 1_555
C16A C17A 1_555 1_555
C12A C17A 1_555 1_555
C11A N2A 1_555 1_555
C9A C8A 1_555 1_555
C4A C5A 1_555 1_555

#END
