
#######################################################################
#
#                 Cambridge Crystallographic Data Centre
#                                CCDC 
#
#######################################################################
#
# If this CIF has been generated from an entry in the Cambridge 
# Structural Database, then it will include bibliographic, chemical, 
# crystal, experimental, refinement or atomic coordinate data resulting 
# from the CCDC's data processing and validation procedures.
#
#######################################################################

data_XEDWIO
_symmetry_cell_setting           orthorhombic
_symmetry_space_group_name_H-M   'P n n n'
_symmetry_Int_Tables_number      48
_space_group_name_Hall           '-P 2ab 2bc'
loop_
_symmetry_equiv_pos_site_id
_symmetry_equiv_pos_as_xyz
1 x,y,z
2 1/2-x,1/2-y,z
3 1/2-x,y,1/2-z
4 x,1/2-y,1/2-z
5 -x,-y,-z
6 1/2+x,1/2+y,-z
7 1/2+x,-y,1/2+z
8 -x,1/2+y,1/2+z
_cell_length_a                   7.413(4)
_cell_length_b                   8.577(4)
_cell_length_c                   37.051(16)
_cell_angle_alpha                90
_cell_angle_beta                 90
_cell_angle_gamma                90
_cell_volume                     2355.75
loop_
_atom_site_label
_atom_site_type_symbol
_atom_site_fract_x
_atom_site_fract_y
_atom_site_fract_z
Cu1 Cu 1.02487(15) 0.42626(14) 0.43616(2)
Cu2 Cu 1.1939(3) 0.5485(2) 0.31378(3)
C1 C 1.0270(12) 0.0894(12) 0.4532(2)
H1 H 1.0873 0.1254 0.4735
C2 C 1.0292(13) -0.0663(13) 0.4461(2)
H2 H 1.0892 -0.1348 0.4614
C3 C 0.9412(13) -0.1206(11) 0.4160(3)
H3 H 0.9454 -0.2258 0.4101
C4 C 0.8467(12) -0.0174(10) 0.3947(2)
H4 H 0.7834 -0.0516 0.3746
C5 C 0.8487(10) 0.1379(9) 0.40416(17)
C6 C 0.7500 0.2500 0.3458(3)
C7 C 0.9058(11) 0.2167(11) 0.32701(18)
H5 H 1.0120 0.1946 0.3394
C8 C 0.9034(12) 0.2163(11) 0.28931(19)
H6 H 1.0088 0.1925 0.2768
C9 C 0.7500 0.2500 0.2702(2)
C10 C 1.1556(13) 0.5188(11) 0.36139(19)
C11 C 1.0054(12) 0.4846(11) 0.48511(19)
C12 C 1.2385(16) 0.5503(12) 0.2650(2)
N1 N 0.9428(9) 0.1923(8) 0.43235(14)
N2 N 0.7500 0.2500 0.3844(2)
N3 N 1.1097(11) 0.4887(10) 0.3896(2)
N4 N 0.9946(12) 0.5154(11) 0.51489(19)
N5 N 1.2615(16) 0.5503(12) 0.2350(2)
Cu1A Cu 0.47513(15) 0.07374(14) 0.43616(2)
Cu1B Cu 0.47513(15) 0.42626(14) 0.06384(2)
Cu1C Cu 1.02487(15) 0.07374(14) 0.06384(2)
Cu1D Cu 0.97513(15) 0.57374(14) 0.56384(2)
Cu1E Cu 0.52487(15) -0.07374(14) 0.56384(2)
Cu1F Cu 0.52487(15) 0.57374(14) -0.06384(2)
Cu1G Cu 0.97513(15) -0.07374(14) -0.06384(2)
Cu2A Cu 0.3061(3) -0.0485(2) 0.31378(3)
Cu2B Cu 0.3061(3) 0.5485(2) 0.18622(3)
Cu2C Cu 1.1939(3) -0.0485(2) 0.18622(3)
Cu2B_2 Cu 1.3061(3) 0.5485(2) 0.18622(3)
Cu2C_2 Cu 0.1939(3) -0.0485(2) 0.18622(3)
Cu2_2 Cu 0.1939(3) 0.5485(2) 0.31378(3)
Cu2A_2 Cu 1.3061(3) -0.0485(2) 0.31378(3)
C1A C 0.4730(12) 0.4106(12) 0.4532(2)
C1B C 0.4730(12) 0.0894(12) 0.0468(2)
C1C C 1.0270(12) 0.4106(12) 0.0468(2)
H1A H 0.4127 0.3746 0.4735
H1B H 0.4127 0.1254 0.0265
H1C H 1.0873 0.3746 0.0265
C2A C 0.4708(13) 0.5663(13) 0.4461(2)
C2B C 0.4708(13) -0.0663(13) 0.0539(2)
C2C C 1.0292(13) 0.5663(13) 0.0539(2)
H2A H 0.4108 0.6348 0.4614
H2B H 0.4108 -0.1348 0.0386
H2C H 1.0892 0.6348 0.0386
C3A C 0.5588(13) 0.6206(11) 0.4160(3)
C3B C 0.5588(13) -0.1206(11) 0.0840(3)
C3C C 0.9412(13) 0.6206(11) 0.0840(3)
H3A H 0.5546 0.7258 0.4101
H3B H 0.5546 -0.2258 0.0899
H3C H 0.9454 0.7258 0.0899
C4A C 0.6533(12) 0.5174(10) 0.3947(2)
C4B C 0.6533(12) -0.0174(10) 0.1053(2)
C4C C 0.8467(12) 0.5174(10) 0.1053(2)
H4A H 0.7166 0.5516 0.3746
H4B H 0.7166 -0.0516 0.1254
H4C H 0.7834 0.5516 0.1254
C5A C 0.6513(10) 0.3621(9) 0.40416(17)
C5B C 0.6513(10) 0.1379(9) 0.09584(17)
C5C C 0.8487(10) 0.3621(9) 0.09584(17)
C6B C 0.7500 0.2500 0.1542(3)
C7A C 0.5942(11) 0.2833(11) 0.32701(18)
C7B C 0.5942(11) 0.2167(11) 0.17299(18)
C7C C 0.9058(11) 0.2833(11) 0.17299(18)
H5A H 0.4880 0.3054 0.3394
H5C H 1.0120 0.3054 0.1606
H5B H 0.4880 0.1946 0.1606
C8A C 0.5966(12) 0.2837(11) 0.28931(19)
C8B C 0.5966(12) 0.2163(11) 0.21069(19)
C8C C 0.9034(12) 0.2837(11) 0.21069(19)
H6A H 0.4912 0.3075 0.2768
H6C H 1.0088 0.3075 0.2232
H6B H 0.4912 0.1925 0.2232
C9B C 0.7500 0.2500 0.2298(2)
C10A C 0.3444(13) -0.0188(11) 0.36139(19)
C10B C 0.3444(13) 0.5188(11) 0.13861(19)
C10C C 1.1556(13) -0.0188(11) 0.13861(19)
C11A C 0.4946(12) 0.0154(11) 0.48511(19)
C11B C 0.4946(12) 0.4846(11) 0.01489(19)
C11C C 1.0054(12) 0.0154(11) 0.01489(19)
C12A C 0.2615(16) -0.0503(12) 0.2650(2)
C12B C 0.2615(16) 0.5503(12) 0.2350(2)
C12C C 1.2385(16) -0.0503(12) 0.2350(2)
N1A N 0.5572(9) 0.3077(8) 0.43235(14)
N1B N 0.5572(9) 0.1923(8) 0.06765(14)
N1C N 0.9428(9) 0.3077(8) 0.06765(14)
N2B N 0.7500 0.2500 0.1156(2)
N3A N 0.3903(11) 0.0113(10) 0.3896(2)
N3B N 0.3903(11) 0.4887(10) 0.1104(2)
N3C N 1.1097(11) 0.0113(10) 0.1104(2)
N4A N 0.5054(12) -0.0154(11) 0.51489(19)
N4B N 0.5054(12) 0.5154(11) -0.01489(19)
N4C N 0.9946(12) -0.0154(11) -0.01489(19)
N5A N 0.2385(16) -0.0503(12) 0.2350(2)
N5B N 0.2385(16) 0.5503(12) 0.2650(2)
N5C N 1.2615(16) -0.0503(12) 0.2650(2)
O1 O 0.852(5) 0.751(5) 0.3023(8)
loop_
_geom_bond_atom_site_label_1
_geom_bond_atom_site_label_2
_geom_bond_site_symmetry_1
_geom_bond_site_symmetry_2
Cu1 C11 1_555 1_555
Cu2 C10 1_555 1_555
C1 H1 1_555 1_555
C2 C1 1_555 1_555
H2 C2 1_555 1_555
C3 C2 1_555 1_555
H3 C3 1_555 1_555
C4 C3 1_555 1_555
H4 C4 1_555 1_555
C5 C4 1_555 1_555
C6 C7 1_555 1_555
C7 H5 1_555 1_555
C8 C7 1_555 1_555
H6 C8 1_555 1_555
C9 C8 1_555 1_555
C10 N3 1_555 1_555
C11 N4 1_555 1_555
C12 Cu2 1_555 1_555
N1 Cu1 1_555 1_555
N2 C5 1_555 1_555
N3 Cu1 1_555 1_555
N4 Cu1D 1_555 1_555
N5 C12 1_555 1_555
Cu1A C11A 1_555 1_555
Cu1B C11B 1_555 1_555
Cu1C C11C 1_555 1_555
Cu1E N4A 1_555 1_555
Cu1F N4B 1_555 1_555
Cu1G N4C 1_555 1_555
Cu2A C10A 1_555 1_555
Cu2B C10B 1_555 1_555
Cu2C C10C 1_555 1_555
Cu2B_2 N5 1_555 1_555
Cu2C_2 N5A 1_555 1_555
Cu2_2 N5B 1_555 1_555
Cu2A_2 N5C 1_555 1_555
C1A H1A 1_555 1_555
C1B H1B 1_555 1_555
C1C H1C 1_555 1_555
C2A C1A 1_555 1_555
C2B C1B 1_555 1_555
C2C C1C 1_555 1_555
H2A C2A 1_555 1_555
H2B C2B 1_555 1_555
H2C C2C 1_555 1_555
C3A C2A 1_555 1_555
C3B C2B 1_555 1_555
C3C C2C 1_555 1_555
H3A C3A 1_555 1_555
H3B C3B 1_555 1_555
H3C C3C 1_555 1_555
C4A C3A 1_555 1_555
C4B C3B 1_555 1_555
C4C C3C 1_555 1_555
H4A C4A 1_555 1_555
H4B C4B 1_555 1_555
H4C C4C 1_555 1_555
C5A N2 1_555 1_555
C5B C4B 1_555 1_555
C5C C4C 1_555 1_555
C6B C7B 1_555 1_555
C7A C6 1_555 1_555
C7B H5B 1_555 1_555
C7C C6B 1_555 1_555
H5A C7A 1_555 1_555
H5C C7C 1_555 1_555
C8A C9 1_555 1_555
C8B C7B 1_555 1_555
C8C C7C 1_555 1_555
H6A C8A 1_555 1_555
H6C C8C 1_555 1_555
H6B C8B 1_555 1_555
C9B C9 1_555 1_555
C10A N3A 1_555 1_555
C10B N3B 1_555 1_555
C10C N3C 1_555 1_555
C11A N4A 1_555 1_555
C11B N4B 1_555 1_555
C11C N4C 1_555 1_555
C12A Cu2A 1_555 1_555
C12B Cu2B 1_555 1_555
C12C Cu2C 1_555 1_555
N1A Cu1A 1_555 1_555
N1B Cu1B 1_555 1_555
N1C Cu1C 1_555 1_555
N2B C5B 1_555 1_555
N3A Cu1A 1_555 1_555
N3B Cu1B 1_555 1_555
N3C Cu1C 1_555 1_555
N5A C12A 1_555 1_555
N5B C12B 1_555 1_555
N5C C12C 1_555 1_555
C1 N1 1_555 1_555
C5 N1 1_555 1_555
C6 N2 1_555 1_555
C1A N1A 1_555 1_555
C1B N1B 1_555 1_555
C1C N1C 1_555 1_555
C4A C5A 1_555 1_555
C5A N1A 1_555 1_555
C5B N1B 1_555 1_555
C5C N1C 1_555 1_555
C5C N2B 1_555 1_555
C6B N2B 1_555 1_555
C7A C8A 1_555 1_555
C8B C9B 1_555 1_555
C8C C9B 1_555 1_555

#END
