
#######################################################################
#
#                 Cambridge Crystallographic Data Centre
#                                CCDC 
#
#######################################################################
#
# If this CIF has been generated from an entry in the Cambridge 
# Structural Database, then it will include bibliographic, chemical, 
# crystal, experimental, refinement or atomic coordinate data resulting 
# from the CCDC's data processing and validation procedures.
#
#######################################################################

data_XEFBEP
_symmetry_cell_setting           monoclinic
_symmetry_space_group_name_H-M   'P 21/n'
_symmetry_Int_Tables_number      14
_space_group_name_Hall           '-P 2yn'
loop_
_symmetry_equiv_pos_site_id
_symmetry_equiv_pos_as_xyz
1 x,y,z
2 1/2+x,1/2-y,1/2+z
3 -x,-y,-z
4 1/2-x,1/2+y,1/2-z
_cell_length_a                   10.575(3)
_cell_length_b                   9.621(2)
_cell_length_c                   14.175(3)
_cell_angle_alpha                90.00(2)
_cell_angle_beta                 109.800(10)
_cell_angle_gamma                90.00(2)
_cell_volume                     1356.93
loop_
_atom_site_label
_atom_site_type_symbol
_atom_site_fract_x
_atom_site_fract_y
_atom_site_fract_z
Ag1 Ag 0.37063(3) 0.13146(3) -0.04889(2)
N1 N 0.2227(3) -0.0107(3) -0.0376(2)
N2 N -0.0052(3) -0.2253(3) -0.4194(2)
O1 O -0.0963(3) -0.1500(3) -0.2008(2)
C1 C 0.1194(4) -0.0426(4) -0.1210(3)
H1 H 0.1178 -0.0062 -0.1822
C2 C 0.0170(4) -0.1270(4) -0.1182(3)
C3 C 0.0188(4) -0.1844(4) -0.0288(3)
H2 H -0.0494 -0.2436 -0.0261
C4 C 0.1235(4) -0.1521(4) 0.0557(3)
H3 H 0.1273 -0.1888 0.1173
C5 C 0.2227(4) -0.0655(4) 0.0494(3)
H4 H 0.2930 -0.0436 0.1077
C6 C -0.0033(4) -0.2228(4) -0.3247(3)
H5 H 0.4422 -0.7784 -0.2230
C7 C -0.0900(4) -0.1395(4) -0.2965(3)
C8 C -0.1784(4) -0.0551(5) -0.3650(4)
H6 H -0.2367 0.0027 -0.3467
C9 C -0.1785(5) -0.0584(5) -0.4610(4)
H7 H -0.2375 -0.0018 -0.5093
C10 C 0.5927(5) -0.6442(4) -0.0129(3)
H8 H 0.5953 -0.6461 0.0533
N2C N 0.5052(3) 0.2747(3) -0.0806(2)
Ag1C Ag 0.12937(3) -0.36854(3) -0.45111(2)
N1C N 0.2773(3) -0.5107(3) -0.4624(2)
C1C C 0.3806(4) -0.5426(4) -0.3790(3)
H1C H 0.3822 -0.5062 -0.3178
C2C C 0.4830(4) -0.6270(4) -0.3818(3)
O1C O 0.5963(3) -0.6500(3) -0.2992(2)
C7C C 0.5900(4) -0.6395(4) -0.2035(3)
C6C C 0.5033(4) -0.7228(4) -0.1753(3)
N2C_2 N 0.5052(3) -0.7253(3) -0.0806(2)
Ag1_2 Ag 0.37063(3) -0.86854(3) -0.04889(2)
C9C C 0.6785(5) -0.5584(5) -0.0390(4)
C8C C 0.6784(4) -0.5551(5) -0.1350(4)
H6C H 0.7367 -0.4973 -0.1533
H7C H 0.7375 -0.5018 0.0093
C3C C 0.4812(4) -0.6844(4) -0.4712(3)
H2C H 0.5494 -0.7436 -0.4739
C4C C 0.3765(4) -0.6521(4) -0.5557(3)
H3C H 0.3727 -0.6888 -0.6173
C5C C 0.2773(4) -0.5655(4) -0.5494(3)
H4C H 0.2070 -0.5436 -0.6077
C10C C -0.0927(5) -0.1442(4) -0.4871(3)
H8C H -0.0953 -0.1461 -0.5533
H5C H 0.0578 -0.2784 -0.2770
P1 P 0.57298(11) 0.13861(11) 0.26404(8)
F1 F 0.5285(3) 0.0867(4) 0.1513(2)
F2 F 0.6192(3) 0.1883(3) 0.3775(2)
F3 F 0.6920(4) 0.0314(4) 0.2922(3)
F4 F 0.6671(4) 0.2520(4) 0.2423(3)
F5 F 0.4550(4) 0.2462(4) 0.2357(3)
F6 F 0.4797(4) 0.0266(4) 0.2864(3)
loop_
_geom_bond_atom_site_label_1
_geom_bond_atom_site_label_2
_geom_bond_site_symmetry_1
_geom_bond_site_symmetry_2
Ag1 N1 1_555 1_555
N1 C1 1_555 1_555
N2 C6 1_555 1_555
O1 C2 1_555 1_555
C1 H1 1_555 1_555
C2 C1 1_555 1_555
C3 C2 1_555 1_555
H2 C3 1_555 1_555
C4 C3 1_555 1_555
H3 C4 1_555 1_555
C5 N1 1_555 1_555
H4 C5 1_555 1_555
C6 C7 1_555 1_555
H5 C6C 1_555 1_555
C7 O1 1_555 1_555
C8 C7 1_555 1_555
H6 C8 1_555 1_555
C9 C8 1_555 1_555
H7 C9 1_555 1_555
C10 H8 1_555 1_555
P1 F1 1_555 1_555
F2 P1 1_555 1_555
F3 P1 1_555 1_555
F4 P1 1_555 1_555
F5 P1 1_555 1_555
F6 P1 1_555 1_555
N2C Ag1 1_555 1_555
Ag1C N2 1_555 1_555
N1C Ag1C 1_555 1_555
C1C N1C 1_555 1_555
H1C C1C 1_555 1_555
C2C C1C 1_555 1_555
O1C C2C 1_555 1_555
C7C O1C 1_555 1_555
C6C C7C 1_555 1_555
N2C_2 C10 1_555 1_555
Ag1_2 N2C_2 1_555 1_555
C9C C10 1_555 1_555
C8C C7C 1_555 1_555
H6C C8C 1_555 1_555
H7C C9C 1_555 1_555
C3C C2C 1_555 1_555
H2C C3C 1_555 1_555
C4C C3C 1_555 1_555
H3C C4C 1_555 1_555
C5C N1C 1_555 1_555
H4C C5C 1_555 1_555
C10C N2 1_555 1_555
H8C C10C 1_555 1_555
H5C C6 1_555 1_555
C4 C5 1_555 1_555
C9 C10C 1_555 1_555
C6C N2C_2 1_555 1_555
C9C C8C 1_555 1_555
C4C C5C 1_555 1_555

#END
