
#######################################################################
#
#                 Cambridge Crystallographic Data Centre
#                                CCDC 
#
#######################################################################
#
# If this CIF has been generated from an entry in the Cambridge 
# Structural Database, then it will include bibliographic, chemical, 
# crystal, experimental, refinement or atomic coordinate data resulting 
# from the CCDC's data processing and validation procedures.
#
#######################################################################

data_XEFCUH
_symmetry_cell_setting           monoclinic
_symmetry_space_group_name_H-M   'C c'
_symmetry_Int_Tables_number      9
_space_group_name_Hall           'C -2yc'
loop_
_symmetry_equiv_pos_site_id
_symmetry_equiv_pos_as_xyz
1 x,y,z
2 x,-y,1/2+z
3 1/2+x,1/2+y,z
4 1/2+x,1/2-y,1/2+z
_cell_length_a                   23.945(4)
_cell_length_b                   7.4886(11)
_cell_length_c                   24.771(4)
_cell_angle_alpha                90
_cell_angle_beta                 111.612(3)
_cell_angle_gamma                90
_cell_volume                     4129.54
loop_
_atom_site_label
_atom_site_type_symbol
_atom_site_fract_x
_atom_site_fract_y
_atom_site_fract_z
C1 C 0.5843(6) 0.240(2) 0.9466(7)
C2 C 0.6234(8) 0.289(3) 1.0059(8)
H1 H 0.6645 0.2956 1.0139
C3 C 0.6049(9) 0.323(3) 1.0487(9)
H2 H 0.6312 0.3546 1.0855
C4 C 0.5479(12) 0.308(4) 1.0360(11)
H3 H 0.5349 0.3342 1.0662
C5 C 0.5051(10) 0.262(3) 0.9862(10)
C6 C 0.4372(10) 0.234(4) 0.9723(11)
H4 H 0.4242 0.1230 0.9510
H5 H 0.4297 0.2255 1.0081
C7 C 0.3398(9) 0.375(4) 0.9297(8)
H6 H 0.3372 0.3983 0.9672
H7 H 0.3272 0.2521 0.9196
C8 C 0.2946(10) 0.496(3) 0.8851(9)
H8 H 0.3003 0.6186 0.8985
H9 H 0.2540 0.4601 0.8798
C9 C 0.2856(12) 0.296(4) 0.8017(12)
H10 H 0.2423 0.2847 0.7889
H11 H 0.3041 0.2073 0.8314
C10 C 0.3090(9) 0.270(3) 0.7442(8)
C11 C 0.2633(11) 0.222(4) 0.7009(10)
H12 H 0.2251 0.2029 0.7014
C12 C 0.2803(12) 0.200(5) 0.6501(12)
H13 H 0.2512 0.1754 0.6138
C13 C 0.3401(9) 0.217(3) 0.6569(8)
H14 H 0.3528 0.2005 0.6260
C14 C 0.3812(10) 0.261(3) 0.7133(9)
C15 C 0.4437(9) 0.259(3) 0.7253(9)
H15 H 0.4607 0.3671 0.7465
H16 H 0.4495 0.2646 0.6886
C16 C 0.5448(9) 0.150(3) 0.7733(9)
H17 H 0.5540 0.1422 0.7383
H18 H 0.5527 0.2718 0.7874
C17 C 0.5853(7) 0.030(3) 0.8172(8)
H19 H 0.5769 -0.0917 0.8028
H20 H 0.6262 0.0568 0.8211
C18 C 0.5988(10) 0.203(3) 0.9001(11)
H21 H 0.6421 0.2150 0.9122
H22 H 0.5811 0.2956 0.8714
C19 C 0.4251(10) 0.554(3) 0.9672(8)
H23 H 0.4672 0.5582 0.9721
H24 H 0.4056 0.6487 0.9400
C20 C 0.4230(13) 0.609(4) 1.0204(11)
H25 H 0.4436 0.5189 1.0490
H26 H 0.3813 0.6076 1.0166
C21 C 0.4475(17) 0.780(5) 1.0440(13)
C22 C 0.2648(9) 0.600(3) 0.7840(10)
H27 H 0.2240 0.5679 0.7789
H28 H 0.2689 0.5876 0.7467
C23 C 0.2754(6) 0.803(3) 0.8033(8)
H29 H 0.2490 0.8784 0.7728
H30 H 0.2663 0.8208 0.8380
C24 C 0.3404(10) 0.852(3) 0.8155(8)
C25 C 0.4566(7) -0.071(2) 0.7359(7)
H31 H 0.4148 -0.0848 0.7314
H32 H 0.4799 -0.1603 0.7635
C26 C 0.4640(9) -0.101(3) 0.6717(8)
H33 H 0.4469 -0.0012 0.6460
H34 H 0.5060 -0.1122 0.6769
C27 C 0.4322(10) -0.263(3) 0.6482(11)
C28 C 0.6186(12) -0.112(4) 0.9111(12)
H35 H 0.6599 -0.0979 0.9141
H36 H 0.6179 -0.0911 0.9494
C29 C 0.6025(11) -0.296(4) 0.8967(11)
H37 H 0.6209 -0.3651 0.9320
H38 H 0.6214 -0.3337 0.8700
C30 C 0.5390(10) -0.350(3) 0.8712(9)
N1 N 0.5243(7) 0.209(2) 0.9411(7)
N2 N 0.4021(6) 0.388(2) 0.9363(7)
N3 N 0.3051(8) 0.478(3) 0.8241(8)
N4 N 0.3634(7) 0.268(3) 0.7598(8)
N5 N 0.4780(9) 0.110(3) 0.7576(8)
N6 N 0.5823(7) 0.035(3) 0.8719(8)
N7 N 0.4698(15) 0.900(5) 1.0669(11)
N8 N 0.3861(6) 0.8950(19) 0.8309(7)
N9 N 0.4077(10) -0.401(3) 0.6345(9)
N10 N 0.4905(9) -0.410(3) 0.8579(8)
Ag1 Ag 0.47029(3) 0.0701(3) 0.85415(3)
Ag2 Ag 0.41216(3) 0.4307(3) 0.84133(3)
N8_2 N 0.3861(6) -0.1050(19) 0.8309(7)
N10_2 N 0.4905(9) 0.590(3) 0.8579(8)
Ag1_2 Ag 0.47029(3) 1.0701(3) 0.85415(3)
Ag2_2 Ag 0.41216(3) -0.5693(3) 0.84133(3)
C31 C 0.6160(12) 0.879(4) 0.1361(9)
H39 H 0.6344 0.9947 0.1425
H40 H 0.6409 0.7969 0.1646
H41 H 0.5773 0.8860 0.1392
C32 C 0.6073(16) 0.801(5) 0.0641(14)
N11 N 0.6012(15) 0.752(4) 0.0314(11)
C33 C 0.2569(11) 0.622(4) 0.5675(11)
H42 H 0.2636 0.7078 0.5419
H43 H 0.2150 0.5911 0.5538
H44 H 0.2801 0.5164 0.5686
C34 C 0.2715(11) 0.683(4) 0.6147(11)
N12 N 0.2840(12) 0.746(4) 0.6686(15)
Cl1 Cl 0.1020(2) 0.0809(10) 0.7227(3)
O1 O 0.0676(9) 0.087(3) 0.7563(7)
O2 O 0.1229(10) 0.255(3) 0.7249(10)
O3 O 0.1480(8) -0.001(3) 0.7634(9)
O4 O 0.0591(6) 0.003(2) 0.6654(5)
Cl2 Cl 0.2771(4) 0.9182(13) 0.9722(4)
O5 O 0.2996(11) 0.988(4) 1.0190(12)
O6 O 0.2313(8) 1.041(2) 0.9568(9)
O7 O 0.3225(4) 0.912(2) 0.9457(7)
O8 O 0.2662(9) 0.753(3) 0.9921(9)
loop_
_geom_bond_atom_site_label_1
_geom_bond_atom_site_label_2
_geom_bond_site_symmetry_1
_geom_bond_site_symmetry_2
C1 C2 1_555 1_555
C2 H1 1_555 1_555
C3 C2 1_555 1_555
H2 C3 1_555 1_555
C4 C3 1_555 1_555
H3 C4 1_555 1_555
C5 C4 1_555 1_555
C6 C5 1_555 1_555
H4 C6 1_555 1_555
H5 C6 1_555 1_555
C7 H6 1_555 1_555
H7 C7 1_555 1_555
C8 C7 1_555 1_555
H8 C8 1_555 1_555
H9 C8 1_555 1_555
C9 H10 1_555 1_555
H11 C9 1_555 1_555
C10 C9 1_555 1_555
C11 C10 1_555 1_555
H12 C11 1_555 1_555
C12 C11 1_555 1_555
H13 C12 1_555 1_555
C13 C12 1_555 1_555
H14 C13 1_555 1_555
C14 C13 1_555 1_555
C15 C14 1_555 1_555
H15 C15 1_555 1_555
H16 C15 1_555 1_555
C16 H17 1_555 1_555
H18 C16 1_555 1_555
C17 C16 1_555 1_555
H19 C17 1_555 1_555
H20 C17 1_555 1_555
C18 C1 1_555 1_555
H21 C18 1_555 1_555
H22 C18 1_555 1_555
C19 H23 1_555 1_555
H24 C19 1_555 1_555
C20 C19 1_555 1_555
H25 C20 1_555 1_555
H26 C20 1_555 1_555
C21 C20 1_555 1_555
C22 H27 1_555 1_555
H28 C22 1_555 1_555
C23 C22 1_555 1_555
H29 C23 1_555 1_555
H30 C23 1_555 1_555
C24 C23 1_555 1_555
C25 H31 1_555 1_555
H32 C25 1_555 1_555
C26 C25 1_555 1_555
H33 C26 1_555 1_555
H34 C26 1_555 1_555
C27 C26 1_555 1_555
C28 H35 1_555 1_555
H36 C28 1_555 1_555
C29 C28 1_555 1_555
H37 C29 1_555 1_555
H38 C29 1_555 1_555
C30 C29 1_555 1_555
N1 C1 1_555 1_555
N2 C6 1_555 1_555
N3 C8 1_555 1_555
N4 C10 1_555 1_555
N5 C15 1_555 1_555
N6 C17 1_555 1_555
N7 C21 1_555 1_555
N8 C24 1_555 1_555
N9 C27 1_555 1_555
N10 C30 1_555 1_555
Ag1 N1 1_555 1_555
Ag2 N2 1_555 1_555
C31 H39 1_555 1_555
H40 C31 1_555 1_555
H41 C31 1_555 1_555
C32 C31 1_555 1_555
N11 C32 1_555 1_555
C33 H42 1_555 1_555
H43 C33 1_555 1_555
H44 C33 1_555 1_555
C34 C33 1_555 1_555
N12 C34 1_555 1_555
Cl1 O1 1_555 1_555
O2 Cl1 1_555 1_555
O3 Cl1 1_555 1_555
O4 Cl1 1_555 1_555
Cl2 O5 1_555 1_555
O6 Cl2 1_555 1_555
O7 Cl2 1_555 1_555
O8 Cl2 1_555 1_555
N8_2 Ag1 1_555 1_555
N10_2 Ag2 1_555 1_555
Ag1_2 N8 1_555 1_555
Ag2_2 N10 1_555 1_555
C5 N1 1_555 1_555
C7 N2 1_555 1_555
C9 N3 1_555 1_555
C14 N4 1_555 1_555
C16 N5 1_555 1_555
C18 N6 1_555 1_555
C19 N2 1_555 1_555
C22 N3 1_555 1_555
C25 N5 1_555 1_555
C28 N6 1_555 1_555
N3 Ag2 1_555 1_555
N4 Ag2 1_555 1_555
N5 Ag1 1_555 1_555
N6 Ag1 1_555 1_555

#END
