
#######################################################################
#
#                 Cambridge Crystallographic Data Centre
#                                CCDC 
#
#######################################################################
#
# If this CIF has been generated from an entry in the Cambridge 
# Structural Database, then it will include bibliographic, chemical, 
# crystal, experimental, refinement or atomic coordinate data resulting 
# from the CCDC's data processing and validation procedures.
#
#######################################################################

data_XEFGEU
_symmetry_cell_setting           tetragonal
_symmetry_space_group_name_H-M   'P 4/n c c'
_symmetry_Int_Tables_number      130
_space_group_name_Hall           '-P 4a 2ac'
loop_
_symmetry_equiv_pos_site_id
_symmetry_equiv_pos_as_xyz
1 x,y,z
2 1/2-y,x,z
3 y,1/2-x,z
4 1/2+y,1/2+x,1/2-z
5 1/2-x,1/2-y,z
6 -x,1/2+y,1/2-z
7 1/2+x,-y,1/2-z
8 -y,-x,1/2-z
9 -x,-y,-z
10 1/2+y,-x,-z
11 -y,1/2+x,-z
12 1/2-y,1/2-x,1/2+z
13 1/2+x,1/2+y,-z
14 x,1/2-y,1/2+z
15 1/2-x,y,1/2+z
16 y,x,1/2+z
_cell_length_a                   10.767(2)
_cell_length_b                   10.767(2)
_cell_length_c                   21.030(3)
_cell_angle_alpha                90
_cell_angle_beta                 90
_cell_angle_gamma                90
_cell_volume                     2437.97
loop_
_atom_site_label
_atom_site_type_symbol
_atom_site_fract_x
_atom_site_fract_y
_atom_site_fract_z
Cu1 Cu 0.7500 0.2500 0.2500
N1 N 0.65459(13) 0.16061(13) 0.31970(8)
C1 C 0.65543(16) 0.03640(16) 0.32289(10)
H1 H 0.689(2) -0.0071(19) 0.2881(11)
C2 C 0.60558(18) -0.02756(17) 0.37375(10)
H2 H 0.608(2) -0.127(2) 0.3796(11)
C3 C 0.55371(17) 0.03988(17) 0.42335(10)
C4 C 0.55002(18) 0.16862(17) 0.41988(10)
H3 H 0.504(2) 0.218(2) 0.4530(11)
C5 C 0.60106(17) 0.22461(16) 0.36743(10)
H4 H 0.601(2) 0.315(2) 0.3634(10)
N2 N 0.50309(17) -0.02951(17) 0.47503(8)
O1 O 0.90383(12) 0.09617(12) 0.2500
H5 H 0.892(2) 0.023(2) 0.2390(11)
N2H N 0.49691(17) 0.02951(17) 0.52497(8)
C3H C 0.44629(17) -0.03988(17) 0.57665(10)
C2H C 0.39442(18) 0.02756(17) 0.62625(10)
C1H C 0.34457(16) -0.03640(16) 0.67711(10)
N1H N 0.34541(13) -0.16061(13) 0.68030(8)
Cu1H Cu 0.2500 -0.2500 0.7500
Cu1O Cu 1.2500 0.7500 0.7500
N1L N 1.15459(13) 0.66061(13) 0.68030(8)
C1L C 1.15543(16) 0.53640(16) 0.67711(10)
H1L H 1.189(2) 0.4929(19) 0.7119(11)
C2L C 1.10558(18) 0.47244(17) 0.62625(10)
H2L H 1.108(2) 0.373(2) 0.6204(11)
C3L C 1.05371(17) 0.53988(17) 0.57665(10)
C4L C 1.05002(18) 0.66862(17) 0.58012(10)
H3L H 1.004(2) 0.718(2) 0.5470(11)
C5L C 1.10106(17) 0.72461(16) 0.63257(10)
H4L H 1.101(2) 0.815(2) 0.6366(10)
N2L N 1.00309(17) 0.47049(17) 0.52497(8)
N2D N 0.99691(17) 0.52951(17) 0.47503(8)
C3D C 0.94629(17) 0.46012(17) 0.42335(10)
C2D C 0.89442(18) 0.52756(17) 0.37375(10)
C1D C 0.84457(16) 0.46360(16) 0.32289(10)
N1D N 0.84541(13) 0.33939(13) 0.31970(8)
N1C N 0.66061(13) 0.15459(13) 0.18030(8)
N1G N 0.83939(13) 0.34541(13) 0.18030(8)
H5G H 0.977(2) 0.108(2) 0.2610(11)
O1C O 0.59617(12) 0.40383(12) 0.2500
H5C H 0.523(2) 0.392(2) 0.2610(11)
H5D H 0.608(2) 0.477(2) 0.2390(11)
C5D C 0.89894(17) 0.27539(16) 0.36743(10)
C4D C 0.94998(18) 0.33138(17) 0.41988(10)
H3D H 0.996(2) 0.282(2) 0.4530(11)
H4D H 0.899(2) 0.185(2) 0.3634(10)
H1D H 0.811(2) 0.5071(19) 0.2881(11)
H2D H 0.892(2) 0.627(2) 0.3796(11)
C5H C 0.39894(17) -0.22461(16) 0.63257(10)
C4H C 0.44998(18) -0.16862(17) 0.58012(10)
H3H H 0.496(2) -0.218(2) 0.5470(11)
H4H H 0.399(2) -0.315(2) 0.6366(10)
H1H H 0.311(2) 0.0071(19) 0.7119(11)
H2H H 0.392(2) 0.127(2) 0.6204(11)
Si1 Si 1.2500 0.2500 0.29654(5)
F1 F 1.2500 0.2500 0.21614(13)
F2 F 1.12978(10) 0.14986(10) 0.29619(6)
F3 F 1.2500 0.2500 0.37581(12)
F2A F 1.35014(10) 0.12978(10) 0.29619(6)
F2B F 1.14986(10) 0.37022(10) 0.29619(6)
F2D F 1.37022(10) 0.35014(10) 0.29619(6)
O2 O 1.2500 0.2500 0.5055(2)
H6 H 1.2500 0.2500 0.4653(5)
loop_
_geom_bond_atom_site_label_1
_geom_bond_atom_site_label_2
_geom_bond_site_symmetry_1
_geom_bond_site_symmetry_2
Cu1 N1 1_555 1_555
N1 C1 1_555 1_555
C1 H1 1_555 1_555
C2 C1 1_555 1_555
H2 C2 1_555 1_555
C3 C2 1_555 1_555
C4 C3 1_555 1_555
H3 C4 1_555 1_555
C5 N1 1_555 1_555
H4 C5 1_555 1_555
N2 C3 1_555 1_555
O1 Cu1 1_555 1_555
H5 O1 1_555 1_555
Si1 F1 1_555 1_555
F2 Si1 1_555 1_555
F3 Si1 1_555 1_555
O2 H6 1_555 1_555
N2H N2 1_555 1_555
C3H N2H 1_555 1_555
C2H C3H 1_555 1_555
C1H C2H 1_555 1_555
N1H C1H 1_555 1_555
Cu1H N1H 1_555 1_555
Cu1O N1L 1_555 1_555
N1L C1L 1_555 1_555
C1L H1L 1_555 1_555
C2L C1L 1_555 1_555
H2L C2L 1_555 1_555
C3L C2L 1_555 1_555
C4L C3L 1_555 1_555
H3L C4L 1_555 1_555
C5L N1L 1_555 1_555
H4L C5L 1_555 1_555
N2L C3L 1_555 1_555
N2D N2L 1_555 1_555
C3D N2D 1_555 1_555
C2D C3D 1_555 1_555
C1D C2D 1_555 1_555
N1D Cu1 1_555 1_555
N1C Cu1 1_555 1_555
N1G Cu1 1_555 1_555
H5G O1 1_555 1_555
O1C Cu1 1_555 1_555
H5C O1C 1_555 1_555
H5D O1C 1_555 1_555
C5D N1D 1_555 1_555
C4D C3D 1_555 1_555
H3D C4D 1_555 1_555
H4D C5D 1_555 1_555
H1D C1D 1_555 1_555
H2D C2D 1_555 1_555
C5H N1H 1_555 1_555
C4H C3H 1_555 1_555
H3H C4H 1_555 1_555
H4H C5H 1_555 1_555
H1H C1H 1_555 1_555
H2H C2H 1_555 1_555
F2A Si1 1_555 1_555
F2B Si1 1_555 1_555
F2D Si1 1_555 1_555
C4 C5 1_555 1_555
C4L C5L 1_555 1_555
C1D N1D 1_555 1_555
C5D C4D 1_555 1_555
C5H C4H 1_555 1_555

#END
