
#######################################################################
#
#                 Cambridge Crystallographic Data Centre
#                                CCDC 
#
#######################################################################
#
# If this CIF has been generated from an entry in the Cambridge 
# Structural Database, then it will include bibliographic, chemical, 
# crystal, experimental, refinement or atomic coordinate data resulting 
# from the CCDC's data processing and validation procedures.
#
#######################################################################

data_XEFKUO
_symmetry_cell_setting           tetragonal
_symmetry_space_group_name_H-M   'P 42/m n m'
_symmetry_Int_Tables_number      136
_space_group_name_Hall           '-P 4n 2n'
loop_
_symmetry_equiv_pos_site_id
_symmetry_equiv_pos_as_xyz
1 x,y,z
2 1/2-y,1/2+x,1/2+z
3 1/2+y,1/2-x,1/2+z
4 y,x,-z
5 x,y,-z
6 1/2+x,1/2-y,1/2+z
7 1/2-x,1/2+y,1/2+z
8 y,x,z
9 -x,-y,-z
10 1/2+y,1/2-x,1/2-z
11 1/2-y,1/2+x,1/2-z
12 -y,-x,z
13 -x,-y,z
14 1/2-x,1/2+y,1/2-z
15 1/2+x,1/2-y,1/2-z
16 -y,-x,-z
_cell_length_a                   13.0633(9)
_cell_length_b                   13.0633(9)
_cell_length_c                   9.401(2)
_cell_angle_alpha                90
_cell_angle_beta                 90
_cell_angle_gamma                90
_cell_volume                     1604.28
loop_
_atom_site_label
_atom_site_type_symbol
_atom_site_fract_x
_atom_site_fract_y
_atom_site_fract_z
Cl1 Cl 0.6899(2) -0.3101(2) 0.5000
O1 O 0.5900(13) -0.2523(15) 0.5000
O3 O 0.6981(15) -0.3019(15) 0.6388(14)
O1C O 0.7477(15) -0.4100(13) 0.5000
O3C O 0.6981(15) -0.3019(15) 0.3612(14)
O5 O 0.5000 0.5000 0.7144(11)
C4 C 0.6746(17) -0.7103(26) 0.5000
H5 H 0.6463(17) -0.7780(26) 0.5000
H6 H 0.7028(17) -0.7104(26) 0.4072
O6 O 0.5759(17) -0.6602(19) 0.5000
H10 H 0.5389(17) -0.6749(19) 0.4285
C4K C 0.7103(26) -0.6746(17) 0.5000
H6D H 0.7028(17) -0.7104(26) 0.5928
H6K H 0.7104(26) -0.7028(17) 0.4072
H6O H 0.7104(26) -0.7028(17) 0.5928
O6K O 0.6602(19) -0.5759(17) 0.5000
H10D H 0.5389(17) -0.6749(19) 0.5715
Cu1 Cu 0.5000 0.5000 1.0000
N1 N 0.4995(3) 0.3452(4) 1.0000
C1 C 0.4987(3) 0.2922(5) 0.8794(6)
H1 H 0.4977(3) 0.3274(5) 0.7933(6)
C2 C 0.4992(4) 0.1864(5) 0.8779(9)
H2 H 0.4986(4) 0.1513(5) 0.7919(9)
C3 C 0.5006(4) 0.1351(5) 1.0000
N2 N 0.4992(7) 0.0257(4) 0.9461(8)
N1C N 0.3452(4) 0.4995(3) 1.0000
N1H N 0.5005(3) 0.6548(4) 1.0000
N1K N 0.6548(4) 0.5005(3) 1.0000
C1D C 0.4987(3) 0.2922(5) 1.1206(6)
N2D N 0.4992(7) 0.0257(4) 1.0539(8)
C2D C 0.4992(4) 0.1864(5) 1.1221(9)
N2H N 0.5008(7) -0.0257(4) 1.0539(8)
N2L N 0.5008(7) -0.0257(4) 0.9461(8)
O2? O 0.7520(8) -0.2480(8) 0.4190(21)
O4? O 0.6721(13) -0.4043(13) 0.5000
H3? H 0.5480 0.4773 0.6622(11)
H4? H 0.4446 0.5263 0.6843(11)
C5? C 0.7025(20) -0.7025(20) 0.6464(20)
H7? H 0.7441(20) -0.7591(20) 0.6054(20)
H8? H 0.7408(20) -0.6533(20) 0.6501(20)
H9? H 0.6826(20) -0.7355(20) 0.7408(20)
loop_
_geom_bond_atom_site_label_1
_geom_bond_atom_site_label_2
_geom_bond_site_symmetry_1
_geom_bond_site_symmetry_2
Cu1 N1 1_555 1_555
N1 C1 1_555 1_555
C1 H1 1_555 1_555
C2 C1 1_555 1_555
H2 C2 1_555 1_555
C3 C2 1_555 1_555
N2 C3 1_555 1_555
Cl1 O1 1_555 1_555
O3 Cl1 1_555 1_555
C4 H5 1_555 1_555
H6 C4 1_555 1_555
O6 C4 1_555 1_555
H10 O6 1_555 1_555
N1C Cu1 1_555 1_555
N1H Cu1 1_555 1_555
N1K Cu1 1_555 1_555
C1D N1 1_555 1_555
N2D C3 1_555 1_555
C2D C3 1_555 1_555
N2H N2 1_555 1_555
N2L N2 1_555 1_555
O1C Cl1 1_555 1_555
O3C Cl1 1_555 1_555
C4K C4 1_555 1_555
H6D C4 1_555 1_555
H6K C4 1_555 1_555
H6O C4 1_555 1_555
O6K O6 1_555 1_555
H10D O6 1_555 1_555
N2 N2D 1_555 1_555
H6 C4K 1_555 1_555
H6 H6K 1_555 1_555
C1D C2D 1_555 1_555
N2D N2L 1_555 1_555
N2D N2H 1_555 1_555
N2H N2L 1_555 1_555
C4K H6K 1_555 1_555
C4K H6O 1_555 1_555
C4K H6D 1_555 1_555
C4K O6K 1_555 1_555
H6D H6O 1_555 1_555

#END
