
#######################################################################
#
#                 Cambridge Crystallographic Data Centre
#                                CCDC 
#
#######################################################################
#
# If this CIF has been generated from an entry in the Cambridge 
# Structural Database, then it will include bibliographic, chemical, 
# crystal, experimental, refinement or atomic coordinate data resulting 
# from the CCDC's data processing and validation procedures.
#
#######################################################################

data_XEFZAK
_symmetry_cell_setting           triclinic
_symmetry_space_group_name_H-M   'P -1'
_symmetry_Int_Tables_number      2
_space_group_name_Hall           '-P 1'
loop_
_symmetry_equiv_pos_site_id
_symmetry_equiv_pos_as_xyz
1 x,y,z
2 -x,-y,-z
_cell_length_a                   11.3113(13)
_cell_length_b                   13.2258(13)
_cell_length_c                   15.9098(17)
_cell_angle_alpha                80.927(12)
_cell_angle_beta                 82.556(13)
_cell_angle_gamma                89.067(13)
_cell_volume                     2330.51
loop_
_atom_site_label
_atom_site_type_symbol
_atom_site_fract_x
_atom_site_fract_y
_atom_site_fract_z
Ni1 Ni 0.50422(9) -0.39152(6) 0.52410(6)
O1 O 0.3967(5) -0.5159(3) 0.5480(3)
N1 N 0.3939(7) -0.3213(5) 0.6079(5)
N2 N 0.3642(6) -0.7133(4) 0.5043(4)
C1 C 0.2740(8) -0.7101(6) 0.5593(6)
H1 H 0.2192 -0.7632 0.5652
C2 C 0.2452(7) -0.6328(6) 0.6147(5)
C3 C 0.3058(7) -0.5388(5) 0.6064(5)
C4 C 0.2628(7) -0.4684(6) 0.6631(5)
C5 C 0.1681(8) -0.4999(7) 0.7265(7)
H2 H 0.1411 -0.4544 0.7636
C6 C 0.1116(9) -0.5930(8) 0.7383(8)
C7 C 0.1494(8) -0.6567(7) 0.6800(7)
H3 H 0.1096 -0.7186 0.6839
C8 C 0.0148(13) -0.6232(11) 0.8128(11)
H4 H 0.0027 -0.5685 0.8461
H5 H 0.0384 -0.6838 0.8482
H6 H -0.0579 -0.6363 0.7913
C9 C 0.3079(9) -0.3658(6) 0.6571(6)
H7 H 0.2674 -0.3268 0.6953
C10 C 0.4195(11) -0.2165(7) 0.6205(8)
H8 H 0.4517 -0.2200 0.6745
H9 H 0.3449 -0.1793 0.6254
C11 C 0.5035(9) -0.1577(6) 0.5521(7)
H10 H 0.5067 -0.0880 0.5635
H11 H 0.4719 -0.1553 0.4980
C12 C 0.3725(9) -0.8018(6) 0.4578(6)
H12 H 0.3191 -0.8556 0.4890
H13 H 0.3475 -0.7814 0.4016
O2 O 0.5928(7) -0.4564(5) 0.6388(5)
Cr2 Cr 0.0000 0.0000 0.0000
S3 S -0.3179(5) -0.2142(4) 0.1370(4)
S4 S 0.0649(5) -0.2681(3) -0.1645(3)
N7 N -0.1492(6) -0.0741(6) 0.0537(4)
N8 N 0.0355(6) -0.1121(5) -0.0695(4)
N9 N 0.0878(5) -0.0788(4) 0.0973(4)
N10 N 0.4122(6) -0.3268(4) 0.4191(4)
C25 C -0.2193(10) -0.1314(9) 0.0861(7)
C26 C 0.0476(9) -0.1777(7) -0.1088(6)
C27 C 0.0440(6) -0.0890(5) 0.1807(4)
H22 H -0.0296 -0.0600 0.1961
C28 C 0.1030(6) -0.1399(5) 0.2436(5)
H23 H 0.0692 -0.1453 0.3007
C29 C 0.2136(6) -0.1839(5) 0.2235(5)
C30 C 0.2572(7) -0.1747(7) 0.1373(5)
H24 H 0.3295 -0.2046 0.1202
C31 C 0.1945(7) -0.1221(7) 0.0778(5)
H25 H 0.2268 -0.1154 0.0204
C32 C 0.2819(6) -0.2371(5) 0.2901(5)
C33 C 0.2260(7) -0.2909(5) 0.3663(5)
H26 H 0.1435 -0.2974 0.3760
C34 C 0.2952(7) -0.3344(5) 0.4275(5)
H27 H 0.2569 -0.3716 0.4779
C35 C 0.4652(7) -0.2787(5) 0.3459(5)
H28 H 0.5480 -0.2753 0.3377
C36 C 0.4046(7) -0.2334(6) 0.2810(5)
H29 H 0.4465 -0.1999 0.2304
Ni1A Ni -0.50422(9) 0.39152(6) -0.52410(6)
Ni1A_2 Ni 0.49578(9) -0.60848(6) 0.47590(6)
O1A O 0.6033(5) -0.4841(3) 0.4520(3)
O1_2 O -0.6033(5) 0.4841(3) -0.4520(3)
O1A_2 O -0.3967(5) 0.5159(3) -0.5480(3)
N1A N 0.6061(7) -0.6787(5) 0.3921(5)
N1A_2 N -0.3939(7) 0.3213(5) -0.6079(5)
N2A N 0.6358(6) -0.2867(4) 0.4957(4)
N2_2 N -0.6358(6) 0.2867(4) -0.4957(4)
C1A C 0.7260(8) -0.2899(6) 0.4407(6)
H1A H 0.7808 -0.2368 0.4348
C2A C 0.7548(7) -0.3672(6) 0.3853(5)
C3A C 0.6942(7) -0.4612(5) 0.3936(5)
C4A C 0.7372(7) -0.5316(6) 0.3369(5)
C5A C 0.8319(8) -0.5001(7) 0.2735(7)
H2A H 0.8589 -0.5456 0.2364
C6A C 0.8884(9) -0.4070(8) 0.2617(8)
C7A C 0.8506(8) -0.3433(7) 0.3200(7)
H3A H 0.8904 -0.2814 0.3161
C8A C 0.9852(13) -0.3768(11) 0.1872(11)
H4A H 0.9973 -0.4315 0.1539
H5A H 0.9616 -0.3162 0.1518
H6A H 1.0579 -0.3637 0.2087
C9A C 0.6921(9) -0.6342(6) 0.3429(6)
H7A H 0.7326 -0.6732 0.3047
C10A C 0.5805(11) -0.7835(7) 0.3795(8)
H8A H 0.5483 -0.7800 0.3255
H9A H 0.6551 -0.8207 0.3746
C11A C 0.4965(9) -0.8423(6) 0.4479(7)
H10A H 0.4933 -0.9120 0.4365
H11A H 0.5281 -0.8447 0.5020
C12A C 0.6275(9) -0.1982(6) 0.5422(6)
H12A H 0.6809 -0.1444 0.5110
H13A H 0.6525 -0.2186 0.5984
O2A O -0.5928(7) 0.4564(5) -0.6388(5)
S3A S 0.3179(5) 0.2142(4) -0.1370(4)
S4A S -0.0649(5) 0.2681(3) 0.1645(3)
N7A N 0.1492(6) 0.0741(6) -0.0537(4)
N8A N -0.0355(6) 0.1121(5) 0.0695(4)
N9A N -0.0878(5) 0.0788(4) -0.0973(4)
N10A N -0.4122(6) 0.3268(4) -0.4191(4)
C25A C 0.2193(10) 0.1314(9) -0.0861(7)
C26A C -0.0476(9) 0.1777(7) 0.1088(6)
C27A C -0.0440(6) 0.0890(5) -0.1807(4)
H22A H 0.0296 0.0600 -0.1961
C28A C -0.1030(6) 0.1399(5) -0.2436(5)
H23A H -0.0692 0.1453 -0.3007
C29A C -0.2136(6) 0.1839(5) -0.2235(5)
C30A C -0.2572(7) 0.1747(7) -0.1373(5)
H24A H -0.3295 0.2046 -0.1202
C31A C -0.1945(7) 0.1221(7) -0.0778(5)
H25A H -0.2268 0.1154 -0.0204
C32A C -0.2819(6) 0.2371(5) -0.2901(5)
C33A C -0.2260(7) 0.2909(5) -0.3663(5)
H26A H -0.1435 0.2974 -0.3760
C34A C -0.2952(7) 0.3344(5) -0.4275(5)
H27A H -0.2569 0.3716 -0.4779
C35A C -0.4652(7) 0.2787(5) -0.3459(5)
H28A H -0.5480 0.2753 -0.3377
C36A C -0.4046(7) 0.2334(6) -0.2810(5)
H29A H -0.4465 0.1999 -0.2304
Cr1 Cr 1.0000 0.0000 0.5000
S1 S 1.0091(3) 0.3574(2) 0.4477(2)
S2 S 1.2733(3) 0.0361(2) 0.6932(2)
N3 N 0.9790(7) 0.1509(6) 0.4983(5)
N4 N 1.1233(7) 0.0014(6) 0.5766(5)
C13 C 0.9924(8) 0.2372(7) 0.4755(6)
C14 C 1.1878(9) 0.0150(6) 0.6250(6)
N5 N 0.8714(6) -0.0310(5) 0.6070(5)
C15 C 0.7650(8) 0.0133(6) 0.6089(6)
H14 H 0.7506 0.0632 0.5633
C16 C 0.6764(8) -0.0115(7) 0.6752(6)
H15 H 0.6027 0.0205 0.6738
C17 C 0.6956(8) -0.0840(7) 0.7442(6)
C18 C 0.8063(8) -0.1281(7) 0.7430(6)
H16 H 0.8236 -0.1767 0.7886
C19 C 0.8912(8) -0.0998(7) 0.6740(6)
H17 H 0.9660 -0.1301 0.6741
N6 N 0.4150(14) -0.1850(18) 0.9465(10)
C20 C 0.5989(10) -0.1162(10) 0.8144(7)
C21 C 0.4879(13) -0.0891(14) 0.8146(11)
H18 H 0.4669 -0.0434 0.7683
C22 C 0.3997(15) -0.1252(19) 0.8805(13)
H19 H 0.3223 -0.1027 0.8750
C23 C 0.517(2) -0.213(2) 0.9492(17)
H20 H 0.5314 -0.2589 0.9974
C24 C 0.6192(16) -0.1826(19) 0.8838(13)
H21 H 0.6951 -0.2083 0.8903
S1A S 0.9909(3) -0.3574(2) 0.5523(2)
S2A S 0.7267(3) -0.0361(2) 0.3068(2)
N3A N 1.0210(7) -0.1509(6) 0.5017(5)
N4A N 0.8767(7) -0.0014(6) 0.4234(5)
C13A C 1.0076(8) -0.2372(7) 0.5245(6)
C14A C 0.8122(9) -0.0150(6) 0.3750(6)
N5A N 1.1286(6) 0.0310(5) 0.3930(5)
C15A C 1.2350(8) -0.0133(6) 0.3911(6)
H14A H 1.2494 -0.0632 0.4367
C16A C 1.3236(8) 0.0115(7) 0.3248(6)
H15A H 1.3973 -0.0205 0.3262
C17A C 1.3044(8) 0.0840(7) 0.2558(6)
C18A C 1.1937(8) 0.1281(7) 0.2570(6)
H16A H 1.1764 0.1767 0.2114
C19A C 1.1088(8) 0.0998(7) 0.3260(6)
H17A H 1.0340 0.1301 0.3259
N6A N 1.5850(14) 0.1850(18) 0.0535(10)
C20A C 1.4011(10) 0.1162(10) 0.1856(7)
C21A C 1.5121(13) 0.0891(14) 0.1854(11)
H18A H 1.5331 0.0434 0.2317
C22A C 1.6003(15) 0.1252(19) 0.1195(13)
H19A H 1.6777 0.1027 0.1250
C23A C 1.483(2) 0.213(2) 0.0508(17)
H20A H 1.4686 0.2589 0.0026
C24A C 1.3808(16) 0.1826(19) 0.1162(13)
H21A H 1.3049 0.2083 0.1097
loop_
_geom_bond_atom_site_label_1
_geom_bond_atom_site_label_2
_geom_bond_site_symmetry_1
_geom_bond_site_symmetry_2
Ni1 O1 1_555 1_555
O1 C3 1_555 1_555
N1 Ni1 1_555 1_555
N2 C1 1_555 1_555
C1 H1 1_555 1_555
C2 C1 1_555 1_555
C3 C2 1_555 1_555
C4 C3 1_555 1_555
C5 C4 1_555 1_555
H2 C5 1_555 1_555
C6 C5 1_555 1_555
C7 C2 1_555 1_555
H3 C7 1_555 1_555
C8 C6 1_555 1_555
H4 C8 1_555 1_555
H5 C8 1_555 1_555
H6 C8 1_555 1_555
C9 N1 1_555 1_555
H7 C9 1_555 1_555
C10 N1 1_555 1_555
H8 C10 1_555 1_555
H9 C10 1_555 1_555
C11 C10 1_555 1_555
H10 C11 1_555 1_555
H11 C11 1_555 1_555
C12 N2 1_555 1_555
H12 C12 1_555 1_555
H13 C12 1_555 1_555
O2 Ni1 1_555 1_555
Cr1 N3 1_555 1_555
S1 C13 1_555 1_555
S2 C14 1_555 1_555
N3 C13 1_555 1_555
N4 Cr1 1_555 1_555
C14 N4 1_555 1_555
N5 Cr1 1_555 1_555
C15 N5 1_555 1_555
H14 C15 1_555 1_555
C16 C15 1_555 1_555
H15 C16 1_555 1_555
C17 C16 1_555 1_555
C18 C17 1_555 1_555
H16 C18 1_555 1_555
C19 N5 1_555 1_555
H17 C19 1_555 1_555
N6 C22 1_555 1_555
C20 C17 1_555 1_555
C21 C20 1_555 1_555
H18 C21 1_555 1_555
C22 C21 1_555 1_555
H19 C22 1_555 1_555
C23 N6 1_555 1_555
H20 C23 1_555 1_555
C24 C20 1_555 1_555
H21 C24 1_555 1_555
Cr2 N7 1_555 1_555
S3 C25 1_555 1_555
S4 C26 1_555 1_555
N7 C25 1_555 1_555
N8 Cr2 1_555 1_555
N9 Cr2 1_555 1_555
N10 Ni1 1_555 1_555
C26 N8 1_555 1_555
C27 N9 1_555 1_555
H22 C27 1_555 1_555
C28 C27 1_555 1_555
H23 C28 1_555 1_555
C29 C28 1_555 1_555
C30 C29 1_555 1_555
H24 C30 1_555 1_555
C31 N9 1_555 1_555
H25 C31 1_555 1_555
C32 C29 1_555 1_555
C33 C32 1_555 1_555
H26 C33 1_555 1_555
C34 N10 1_555 1_555
H27 C34 1_555 1_555
C35 N10 1_555 1_555
H28 C35 1_555 1_555
C36 C32 1_555 1_555
H29 C36 1_555 1_555
Ni1A O1_2 1_555 1_555
Ni1A_2 O1 1_555 1_555
O1A Ni1 1_555 1_555
O1A_2 Ni1A 1_555 1_555
N1A Ni1A_2 1_555 1_555
N1A_2 Ni1A 1_555 1_555
N2A Ni1 1_555 1_555
N2_2 Ni1A 1_555 1_555
C1A N2A 1_555 1_555
H1A C1A 1_555 1_555
C2A C1A 1_555 1_555
C3A O1A 1_555 1_555
C4A C3A 1_555 1_555
C5A C4A 1_555 1_555
H2A C5A 1_555 1_555
C6A C5A 1_555 1_555
C7A C2A 1_555 1_555
H3A C7A 1_555 1_555
C8A C6A 1_555 1_555
H4A C8A 1_555 1_555
H5A C8A 1_555 1_555
H6A C8A 1_555 1_555
C9A N1A 1_555 1_555
H7A C9A 1_555 1_555
C10A N1A 1_555 1_555
H8A C10A 1_555 1_555
H9A C10A 1_555 1_555
C11A C12 1_555 1_555
H10A C11A 1_555 1_555
H11A C11A 1_555 1_555
C12A C11 1_555 1_555
H12A C12A 1_555 1_555
H13A C12A 1_555 1_555
O2A Ni1A 1_555 1_555
S1A C13A 1_555 1_555
S2A C14A 1_555 1_555
N3A Cr1 1_555 1_555
N4A Cr1 1_555 1_555
C13A N3A 1_555 1_555
C14A N4A 1_555 1_555
N5A Cr1 1_555 1_555
C15A N5A 1_555 1_555
H14A C15A 1_555 1_555
C16A C15A 1_555 1_555
H15A C16A 1_555 1_555
C17A C16A 1_555 1_555
C18A C17A 1_555 1_555
H16A C18A 1_555 1_555
C19A N5A 1_555 1_555
H17A C19A 1_555 1_555
N6A C22A 1_555 1_555
C20A C17A 1_555 1_555
C21A C20A 1_555 1_555
H18A C21A 1_555 1_555
C22A C21A 1_555 1_555
H19A C22A 1_555 1_555
C23A N6A 1_555 1_555
H20A C23A 1_555 1_555
C24A C20A 1_555 1_555
H21A C24A 1_555 1_555
S3A C25A 1_555 1_555
S4A C26A 1_555 1_555
N7A Cr2 1_555 1_555
N8A Cr2 1_555 1_555
N9A Cr2 1_555 1_555
N10A Ni1A 1_555 1_555
C25A N7A 1_555 1_555
C26A N8A 1_555 1_555
C27A N9A 1_555 1_555
H22A C27A 1_555 1_555
C28A C27A 1_555 1_555
H23A C28A 1_555 1_555
C29A C28A 1_555 1_555
C30A C29A 1_555 1_555
H24A C30A 1_555 1_555
C31A N9A 1_555 1_555
H25A C31A 1_555 1_555
C32A C29A 1_555 1_555
C33A C32A 1_555 1_555
H26A C33A 1_555 1_555
C34A N10A 1_555 1_555
H27A C34A 1_555 1_555
C35A N10A 1_555 1_555
H28A C35A 1_555 1_555
C36A C32A 1_555 1_555
H29A C36A 1_555 1_555
N2 Ni1A_2 1_555 1_555
C4 C9 1_555 1_555
C6 C7 1_555 1_555
C18 C19 1_555 1_555
C23 C24 1_555 1_555
C30 C31 1_555 1_555
C33 C34 1_555 1_555
C35 C36 1_555 1_555
Ni1A_2 O1A 1_555 1_555
N2A C12A 1_555 1_555
C2A C3A 1_555 1_555
C4A C9A 1_555 1_555
C6A C7A 1_555 1_555
C10A C11A 1_555 1_555
C18A C19A 1_555 1_555
C23A C24A 1_555 1_555
C30A C31A 1_555 1_555
C33A C34A 1_555 1_555
C35A C36A 1_555 1_555

#END
