
#######################################################################
#
#                 Cambridge Crystallographic Data Centre
#                                CCDC 
#
#######################################################################
#
# If this CIF has been generated from an entry in the Cambridge 
# Structural Database, then it will include bibliographic, chemical, 
# crystal, experimental, refinement or atomic coordinate data resulting 
# from the CCDC's data processing and validation procedures.
#
#######################################################################

data_XEGHEX
_symmetry_cell_setting           monoclinic
_symmetry_space_group_name_H-M   'C 2/c'
_symmetry_Int_Tables_number      15
_space_group_name_Hall           '-C 2yn'
loop_
_symmetry_equiv_pos_site_id
_symmetry_equiv_pos_as_xyz
1 x,y,z
2 1/2+x,1/2+y,z
3 -x,y,1/2-z
4 1/2-x,1/2+y,1/2-z
5 -x,-y,-z
6 1/2-x,1/2-y,-z
7 x,-y,1/2+z
8 1/2+x,1/2-y,1/2+z
_cell_length_a                   7.273(9)
_cell_length_b                   13.140(14)
_cell_length_c                   16.211(17)
_cell_angle_alpha                90
_cell_angle_beta                 91.508(10)
_cell_angle_gamma                90
_cell_volume                     1548.7
loop_
_atom_site_label
_atom_site_type_symbol
_atom_site_fract_x
_atom_site_fract_y
_atom_site_fract_z
Mn1 Mn 0.0000 0.0000 0.0000
N1 N -0.0534(6) 0.1570(3) 0.0440(3)
C1 C -0.0314(5) 0.2398(3) 0.0639(2)
N2 N -0.0188(6) 0.3333(3) 0.0908(3)
C2 C 0.1178(5) 0.3893(3) 0.0661(2)
N3 N 0.2349(5) 0.4431(3) 0.0496(3)
O1 O 0.1390(4) -0.0341(2) 0.1190(2)
Mn1A Mn 0.5000 0.5000 0.0000
Mn1A_2 Mn -0.5000 -0.5000 0.0000
N1D N 0.0534(6) -0.1570(3) -0.0440(3)
C1D C 0.0314(5) -0.2398(3) -0.0639(2)
N2D N 0.0188(6) -0.3333(3) -0.0908(3)
C2D C -0.1178(5) -0.3893(3) -0.0661(2)
N3D N -0.2349(5) -0.4431(3) -0.0496(3)
N3A N -0.2651(5) -0.0569(3) 0.0496(3)
N3E N 0.2651(5) 0.0569(3) -0.0496(3)
O1D O -0.1390(4) 0.0341(2) -0.1190(2)
N4 N 0.1079(5) -0.2608(3) 0.1941(2)
N5 N -0.1279(5) -0.3922(3) 0.1990(2)
C3 C -0.0169(6) -0.3263(3) 0.1462(3)
H1 H 0.0541(6) -0.3685(3) 0.1096(3)
H2 H -0.0984(6) -0.2842(3) 0.1123(3)
C4 C 0.0000 -0.1997(5) 0.2500
H3 H -0.0823 -0.1562(5) 0.2178
H4 H 0.0823 -0.1562(5) 0.2822
C5 C 0.0000 -0.4545(5) 0.2500
H5 H 0.0704 -0.4980(5) 0.2142
H6 H -0.0704 -0.4980(5) 0.2858
C6 C 0.2296(6) -0.3267(4) 0.2441(3)
H7 H 0.3153(6) -0.2846(4) 0.2758(3)
H8 H 0.3004(6) -0.3692(4) 0.2078(3)
N4B N -0.1079(5) -0.2608(3) 0.3059(2)
N5B N 0.1279(5) -0.3922(3) 0.3010(2)
C3B C 0.0169(6) -0.3263(3) 0.3538(3)
H1B H -0.0541(6) -0.3685(3) 0.3904(3)
H2B H 0.0984(6) -0.2842(3) 0.3877(3)
C6B C -0.2296(6) -0.3267(4) 0.2559(3)
H7B H -0.3153(6) -0.2846(4) 0.2242(3)
H8B H -0.3004(6) -0.3692(4) 0.2922(3)
loop_
_geom_bond_atom_site_label_1
_geom_bond_atom_site_label_2
_geom_bond_site_symmetry_1
_geom_bond_site_symmetry_2
Mn1 N1 1_555 1_555
N1 C1 1_555 1_555
C1 N2 1_555 1_555
N2 C2 1_555 1_555
C2 N3 1_555 1_555
N3 Mn1A 1_555 1_555
O1 Mn1 1_555 1_555
N4 C3 1_555 1_555
N5 C3 1_555 1_555
C3 H1 1_555 1_555
H2 C3 1_555 1_555
C4 N4 1_555 1_555
H3 C4 1_555 1_555
H4 C4 1_555 1_555
C5 N5 1_555 1_555
H5 C5 1_555 1_555
H6 C5 1_555 1_555
C6 N4 1_555 1_555
H7 C6 1_555 1_555
H8 C6 1_555 1_555
Mn1A_2 N3D 1_555 1_555
N1D Mn1 1_555 1_555
C1D N1D 1_555 1_555
N2D C1D 1_555 1_555
C2D N2D 1_555 1_555
N3D C2D 1_555 1_555
N3A Mn1 1_555 1_555
N3E Mn1 1_555 1_555
O1D Mn1 1_555 1_555
N4B C4 1_555 1_555
N5B C5 1_555 1_555
C3B N4B 1_555 1_555
H1B C3B 1_555 1_555
H2B C3B 1_555 1_555
C6B N5 1_555 1_555
H7B C6B 1_555 1_555
H8B C6B 1_555 1_555
C6 N5B 1_555 1_555
N4B C6B 1_555 1_555
N5B C3B 1_555 1_555

#END
