
#######################################################################
#
#                 Cambridge Crystallographic Data Centre
#                                CCDC 
#
#######################################################################
#
# If this CIF has been generated from an entry in the Cambridge 
# Structural Database, then it will include bibliographic, chemical, 
# crystal, experimental, refinement or atomic coordinate data resulting 
# from the CCDC's data processing and validation procedures.
#
#######################################################################

data_XEGKEB
_symmetry_cell_setting           monoclinic
_symmetry_space_group_name_H-M   'C 2/c'
_symmetry_Int_Tables_number      15
_space_group_name_Hall           '-C 2yn'
loop_
_symmetry_equiv_pos_site_id
_symmetry_equiv_pos_as_xyz
1 x,y,z
2 -x,y,1/2-z
3 1/2+x,1/2+y,z
4 1/2-x,1/2+y,1/2-z
5 -x,-y,-z
6 x,-y,1/2+z
7 1/2-x,1/2-y,-z
8 1/2+x,1/2-y,1/2+z
_cell_length_a                   24.553(4)
_cell_length_b                   30.267(7)
_cell_length_c                   13.362(5)
_cell_angle_alpha                90
_cell_angle_beta                 94.828(5)
_cell_angle_gamma                90
_cell_volume                     9894.68
loop_
_atom_site_label
_atom_site_type_symbol
_atom_site_fract_x
_atom_site_fract_y
_atom_site_fract_z
Gd1 Gd 0.77464(5) 0.26210(3) 0.64748(7)
O1 O 0.7690(8) 0.1859(4) 0.6102(12)
O2 O 0.7289(8) 0.1729(4) 0.4546(11)
O3 O 0.6833(9) -0.1775(6) 0.7492(14)
O4 O 0.7725(8) -0.1796(5) 0.7639(13)
O5 O 0.662(2) 0.0277(10) 0.381(2)
O6 O 0.6891(13) -0.0257(6) 0.4478(15)
O7 O 0.7929(12) 0.0666(8) 0.8413(16)
O8 O 0.792(2) 0.0009(8) 0.797(2)
O9 O 0.6472(11) 0.0229(7) 0.682(2)
O10 O 0.5970(12) -0.0361(9) 0.665(2)
O11 O 0.8356(13) -0.0070(7) 0.548(2)
O12 O 0.8655(12) -0.0702(9) 0.575(2)
O13 O 0.8654(7) 0.2645(5) 0.5841(13)
O14 O 0.8043(8) 0.2436(5) 0.4612(13)
O15 O 0.8942(19) 0.1688(14) 0.182(3)
O16 O 0.9380(19) 0.2098(17) 0.108(3)
O17 O 1.0574(12) 0.3190(8) 0.330(2)
O18 O 1.0452(13) 0.3135(16) 0.483(3)
O19 O 0.7174(9) 0.2304(6) 0.7671(15)
O20 O 0.8329(8) 0.2267(6) 0.7728(13)
N1 N 0.6939(14) 0.0102(7) 0.4406(16)
N2 N 0.7869(14) 0.0397(8) 0.777(2)
N3 N 0.6408(13) -0.0163(9) 0.6707(18)
N4 N 0.8305(12) -0.0423(8) 0.5853(19)
N5 N 0.9237(11) 0.1979(10) 0.1831(19)
N6 N 1.0325(12) 0.3047(11) 0.398(2)
N7 N 0.6956(13) 0.1804(11) 0.886(2)
N8 N 0.8963(6) 0.1859(5) 0.8201(10)
C1 C 0.7499(13) 0.1624(8) 0.540(2)
C2 C 0.7481(13) 0.1127(7) 0.5619(17)
C3 C 0.7238(13) 0.0842(7) 0.4926(17)
H1 H 0.7085 0.0945 0.4310
C4 C 0.7226(13) 0.0397(7) 0.5163(18)
C5 C 0.7445(12) 0.0212(7) 0.6067(17)
C6 C 0.7653(13) 0.0533(7) 0.6783(19)
C7 C 0.7684(11) 0.0971(7) 0.6536(17)
H2 H 0.7847 0.1167 0.7005
C8 C 0.7390(12) -0.0267(7) 0.6325(17)
C9 C 0.6923(13) -0.0439(8) 0.6668(18)
C10 C 0.6872(12) -0.0875(8) 0.6951(16)
H3 H 0.6538 -0.0980 0.7135
C11 C 0.7316(12) -0.1153(7) 0.6960(17)
C12 C 0.7786(13) -0.0997(8) 0.6604(18)
H4 H 0.8091 -0.1179 0.6599
C13 C 0.7806(12) -0.0564(8) 0.6248(18)
C14 C 0.7284(15) -0.1617(8) 0.7374(16)
C15 C 0.8521(15) 0.2525(8) 0.494(2)
C16 C 0.8964(10) 0.2518(8) 0.4235(18)
C17 C 0.8904(11) 0.2259(8) 0.3394(19)
H5 H 0.8592 0.2086 0.3267
C18 C 0.9312(12) 0.2254(9) 0.2724(19)
C19 C 0.9773(12) 0.2521(10) 0.287(2)
C20 C 0.9832(12) 0.2750(9) 0.377(2)
C21 C 0.9450(11) 0.2744(9) 0.445(2)
H6 H 0.9516 0.2890 0.5062
C22 C 0.7083(16) 0.1948(12) 0.797(3)
H7 H 0.7106 0.1726 0.7500
C23 C 0.691(3) 0.210(2) 0.967(3)
H8 H 0.7019 0.2394 0.9477
H9 H 0.7133 0.2007 1.0247
H10 H 0.6532 0.2115 0.9828
C24 C 0.6812(19) 0.1358(13) 0.904(3)
H11 H 0.6586 0.1246 0.8480
H12 H 0.6616 0.1344 0.9635
H13 H 0.7138 0.1183 0.9142
C25 C 0.8816(10) 0.2298(5) 0.7762(11)
H14 H 0.9036 0.2528 0.7572
C26 C 0.8726(12) 0.1620(6) 0.9070(13)
H15 H 0.8826 0.1776 0.9684
H16 H 0.8868 0.1325 0.9119
H17 H 0.8335 0.1610 0.8954
C27 C 0.9512(11) 0.2059(8) 0.8524(10)
H18 H 0.9705 0.2118 0.7943
H19 H 0.9720 0.1857 0.8958
H20 H 0.9461 0.2330 0.8877
Gd1F Gd 0.72536(5) 0.23790(3) 0.35252(7)
Gd1C Gd 0.72536(5) -0.23790(3) 0.85252(7)
Gd1A Gd 1.22536(5) 0.26210(3) -0.14748(7)
Gd1G Gd 1.27464(5) 0.23790(3) 0.14748(7)
Gd1E Gd 0.77464(5) 0.73790(3) 0.14748(7)
O1F O 0.7310(8) 0.3141(4) 0.3898(12)
O2F O 0.7711(8) 0.3271(4) 0.5454(11)
O3F O 0.8167(9) 0.6775(6) 0.2508(14)
O3C O 0.8167(9) 0.3225(6) 0.7508(14)
O3E O 0.6833(9) 0.1775(6) 0.2492(14)
O4F O 0.7275(8) 0.6796(5) 0.2361(13)
O4C O 0.7275(8) 0.3204(5) 0.7361(13)
O4E O 0.7725(8) 0.1796(5) 0.2639(13)
O5F O 0.838(2) 0.4723(10) 0.619(2)
O6F O 0.8109(13) 0.5257(6) 0.5522(15)
O7F O 0.7071(12) 0.4334(8) 0.1587(16)
O8F O 0.708(2) 0.4991(8) 0.203(2)
O9F O 0.8528(11) 0.4771(7) 0.318(2)
O10F O 0.9030(12) 0.5361(9) 0.335(2)
O11F O 0.6644(13) 0.5070(7) 0.452(2)
O12F O 0.6345(12) 0.5702(9) 0.425(2)
O13A O 1.1346(7) 0.2645(5) -0.0841(13)
O13F O 0.6346(7) 0.2355(5) 0.4159(13)
O14A O 1.1957(8) 0.2436(5) 0.0388(13)
O14F O 0.6957(8) 0.2564(5) 0.5388(13)
O15A O 1.1058(19) 0.1688(14) 0.318(3)
O16A O 1.0620(19) 0.2098(17) 0.392(3)
O17A O 0.9426(12) 0.3190(8) 0.170(2)
O18A O 0.9548(13) 0.3135(16) 0.017(3)
O19F O 0.7826(9) 0.2696(6) 0.2329(15)
O20F O 0.6671(8) 0.2733(6) 0.2272(13)
N1F N 0.8061(14) 0.4898(7) 0.5594(16)
N2F N 0.7131(14) 0.4603(8) 0.223(2)
N3F N 0.8592(13) 0.5163(9) 0.3293(18)
N4F N 0.6695(12) 0.5423(8) 0.4147(19)
N5A N 1.0763(11) 0.1979(10) 0.3169(19)
N6A N 0.9675(12) 0.3047(11) 0.102(2)
N7F N 0.8044(13) 0.3196(11) 0.114(2)
N8F N 0.6037(6) 0.3141(5) 0.1799(10)
C1F C 0.7501(13) 0.3376(8) 0.460(2)
C2F C 0.7519(13) 0.3873(7) 0.4381(17)
C3F C 0.7762(13) 0.4158(7) 0.5074(17)
H1F H 0.7915 0.4055 0.5690
C4F C 0.7774(13) 0.4603(7) 0.4837(18)
C5F C 0.7555(12) 0.4788(7) 0.3933(17)
C6F C 0.7347(13) 0.4467(7) 0.3217(19)
C7F C 0.7316(11) 0.4029(7) 0.3464(17)
H2F H 0.7153 0.3833 0.2995
C8F C 0.7610(12) 0.5267(7) 0.3675(17)
C9F C 0.8077(13) 0.5439(8) 0.3332(18)
C10F C 0.8128(12) 0.5875(8) 0.3049(16)
H3F H 0.8462 0.5980 0.2865
C11F C 0.7684(12) 0.6153(7) 0.3040(17)
C12F C 0.7214(13) 0.5997(8) 0.3396(18)
H4F H 0.6909 0.6179 0.3401
C13F C 0.7194(12) 0.5564(8) 0.3752(18)
C14F C 0.7716(15) 0.6617(8) 0.2626(16)
C15A C 1.1479(15) 0.2525(8) 0.006(2)
C16A C 1.1036(10) 0.2518(8) 0.0765(18)
C17A C 1.1096(11) 0.2259(8) 0.1606(19)
H5A H 1.1408 0.2086 0.1733
C18A C 1.0688(12) 0.2254(9) 0.2276(19)
C19A C 1.0227(12) 0.2521(10) 0.213(2)
C20A C 1.0168(12) 0.2750(9) 0.123(2)
C21A C 1.0550(11) 0.2744(9) 0.055(2)
H6A H 1.0484 0.2890 -0.0062
C22F C 0.7917(16) 0.3052(12) 0.203(3)
H7F H 0.7894 0.3274 0.2500
C23F C 0.809(3) 0.290(2) 0.033(3)
H8F H 0.7981 0.2606 0.0523
H9F H 0.7867 0.2993 -0.0247
H10F H 0.8468 0.2885 0.0172
C24F C 0.8188(19) 0.3642(13) 0.096(3)
H11F H 0.8414 0.3754 0.1520
H12F H 0.8384 0.3656 0.0365
H13F H 0.7862 0.3817 0.0858
C25F C 0.6184(10) 0.2702(5) 0.2238(11)
H14F H 0.5964 0.2472 0.2428
C26F C 0.6274(12) 0.3380(6) 0.0930(13)
H15F H 0.6174 0.3224 0.0316
H16F H 0.6132 0.3675 0.0881
H17F H 0.6665 0.3390 0.1046
C27F C 0.5488(11) 0.2941(8) 0.1476(10)
H18F H 0.5295 0.2882 0.2057
H19F H 0.5280 0.3143 0.1042
H20F H 0.5539 0.2670 0.1123
O21 O 0.9720(7) 0.1724(5) 0.6584(6)
N9 N 0.9711(5) 0.1297(6) 0.4628(13)
C28 C 0.9303(10) 0.1543(7) 0.6178(15)
H21 H 0.9005 0.1510 0.6558
C29 C 0.9250(9) 0.1378(8) 0.5156(13)
C30 C 0.8732(8) 0.1238(5) 0.4758(10)
H22 H 0.8420 0.1302 0.5080
C31 C 0.8703(9) 0.0996(4) 0.3850(11)
H23 H 0.8364 0.0946 0.3508
C32 C 0.9166(10) 0.0832(7) 0.3458(16)
H24 H 0.9138 0.0613 0.2969
C33 C 0.9686(12) 0.1004(9) 0.3813(18)
H25 H 1.0000 0.0924 0.3513
O22 O 0.630(3) 0.1344(18) 0.643(5)
O23 O 0.935(7) -0.054(7) 0.239(12)
O24 O 0.954(5) 0.320(7) 0.739(9)
loop_
_geom_bond_atom_site_label_1
_geom_bond_atom_site_label_2
_geom_bond_site_symmetry_1
_geom_bond_site_symmetry_2
Gd1 O1 1_555 1_555
O1 C1 1_555 1_555
O2 C1 1_555 1_555
O3 C14 1_555 1_555
O4 C14 1_555 1_555
O5 N1 1_555 1_555
O6 N1 1_555 1_555
O7 N2 1_555 1_555
O8 N2 1_555 1_555
O9 N3 1_555 1_555
O10 N3 1_555 1_555
O11 N4 1_555 1_555
O12 N4 1_555 1_555
O13 Gd1 1_555 1_555
O14 Gd1 1_555 1_555
O15 N5 1_555 1_555
O16 N5 1_555 1_555
O17 N6 1_555 1_555
O18 N6 1_555 1_555
O19 Gd1 1_555 1_555
O20 Gd1 1_555 1_555
O21 C28 1_555 1_555
N1 C4 1_555 1_555
N2 C6 1_555 1_555
N3 C9 1_555 1_555
N4 C13 1_555 1_555
N5 C18 1_555 1_555
N6 C20 1_555 1_555
N7 C22 1_555 1_555
N8 C25 1_555 1_555
N9 C29 1_555 1_555
C1 C2 1_555 1_555
C2 C3 1_555 1_555
C3 H1 1_555 1_555
C4 C3 1_555 1_555
C5 C4 1_555 1_555
C6 C5 1_555 1_555
C7 C2 1_555 1_555
H2 C7 1_555 1_555
C8 C5 1_555 1_555
C9 C8 1_555 1_555
C10 C9 1_555 1_555
H3 C10 1_555 1_555
C11 C10 1_555 1_555
C12 C11 1_555 1_555
H4 C12 1_555 1_555
C13 C8 1_555 1_555
C14 C11 1_555 1_555
C15 O13 1_555 1_555
C16 C15 1_555 1_555
C17 C16 1_555 1_555
H5 C17 1_555 1_555
C18 C17 1_555 1_555
C19 C18 1_555 1_555
C20 C19 1_555 1_555
C21 C16 1_555 1_555
H6 C21 1_555 1_555
C22 O19 1_555 1_555
H7 C22 1_555 1_555
C23 N7 1_555 1_555
H8 C23 1_555 1_555
H9 C23 1_555 1_555
H10 C23 1_555 1_555
C24 N7 1_555 1_555
H11 C24 1_555 1_555
H12 C24 1_555 1_555
H13 C24 1_555 1_555
C25 O20 1_555 1_555
H14 C25 1_555 1_555
C26 N8 1_555 1_555
H15 C26 1_555 1_555
H16 C26 1_555 1_555
H17 C26 1_555 1_555
C27 N8 1_555 1_555
H18 C27 1_555 1_555
H19 C27 1_555 1_555
H20 C27 1_555 1_555
C28 H21 1_555 1_555
C29 C28 1_555 1_555
C30 C29 1_555 1_555
H22 C30 1_555 1_555
C31 C30 1_555 1_555
H23 C31 1_555 1_555
C32 C31 1_555 1_555
H24 C32 1_555 1_555
C33 N9 1_555 1_555
H25 C33 1_555 1_555
Gd1F O2 1_555 1_555
Gd1C O3 1_555 1_555
Gd1A O13A 1_555 1_555
Gd1G O14A 1_555 1_555
Gd1E O3F 1_555 1_555
O1F Gd1F 1_555 1_555
O2F Gd1 1_555 1_555
O3F C14F 1_555 1_555
O3C Gd1 1_555 1_555
O3E Gd1F 1_555 1_555
O4F Gd1E 1_555 1_555
O4C Gd1 1_555 1_555
O4E Gd1F 1_555 1_555
O5F N1F 1_555 1_555
O6F N1F 1_555 1_555
O7F N2F 1_555 1_555
O8F N2F 1_555 1_555
O9F N3F 1_555 1_555
O10F N3F 1_555 1_555
O11F N4F 1_555 1_555
O12F N4F 1_555 1_555
O13A C15A 1_555 1_555
O13F Gd1F 1_555 1_555
O14A Gd1A 1_555 1_555
O14F Gd1 1_555 1_555
O15A N5A 1_555 1_555
O16A N5A 1_555 1_555
O17A N6A 1_555 1_555
O18A N6A 1_555 1_555
O19F Gd1F 1_555 1_555
O20F Gd1F 1_555 1_555
N1F C4F 1_555 1_555
N2F C6F 1_555 1_555
N3F C9F 1_555 1_555
N4F C13F 1_555 1_555
N5A C18A 1_555 1_555
N6A C20A 1_555 1_555
N7F C22F 1_555 1_555
N8F C25F 1_555 1_555
C1F O1F 1_555 1_555
C2F C1F 1_555 1_555
C3F C2F 1_555 1_555
H1F C3F 1_555 1_555
C4F C3F 1_555 1_555
C5F C4F 1_555 1_555
C6F C5F 1_555 1_555
C7F C2F 1_555 1_555
H2F C7F 1_555 1_555
C8F C5F 1_555 1_555
C9F C8F 1_555 1_555
C10F C9F 1_555 1_555
H3F C10F 1_555 1_555
C11F C10F 1_555 1_555
C12F C11F 1_555 1_555
H4F C12F 1_555 1_555
C13F C8F 1_555 1_555
C14F O4F 1_555 1_555
C15A O14A 1_555 1_555
C16A C15A 1_555 1_555
C17A C16A 1_555 1_555
H5A C17A 1_555 1_555
C18A C17A 1_555 1_555
C19A C19 1_555 1_555
C20A C19A 1_555 1_555
C21A C16A 1_555 1_555
H6A C21A 1_555 1_555
C22F O19F 1_555 1_555
H7F C22F 1_555 1_555
C23F N7F 1_555 1_555
H8F C23F 1_555 1_555
H9F C23F 1_555 1_555
H10F C23F 1_555 1_555
C24F N7F 1_555 1_555
H11F C24F 1_555 1_555
H12F C24F 1_555 1_555
H13F C24F 1_555 1_555
C25F O20F 1_555 1_555
H14F C25F 1_555 1_555
C26F N8F 1_555 1_555
H15F C26F 1_555 1_555
H16F C26F 1_555 1_555
H17F C26F 1_555 1_555
C27F N8F 1_555 1_555
H18F C27F 1_555 1_555
H19F C27F 1_555 1_555
H20F C27F 1_555 1_555
O4 Gd1C 1_555 1_555
O14 C15 1_555 1_555
O14 Gd1F 1_555 1_555
C6 C7 1_555 1_555
C12 C13 1_555 1_555
C20 C21 1_555 1_555
C32 C33 1_555 1_555
Gd1F O14F 1_555 1_555
O2F C1F 1_555 1_555
C6F C7F 1_555 1_555
C11F C14F 1_555 1_555
C12F C13F 1_555 1_555
C18A C19A 1_555 1_555
C20A C21A 1_555 1_555

#END
