
#######################################################################
#
#                 Cambridge Crystallographic Data Centre
#                                CCDC 
#
#######################################################################
#
# If this CIF has been generated from an entry in the Cambridge 
# Structural Database, then it will include bibliographic, chemical, 
# crystal, experimental, refinement or atomic coordinate data resulting 
# from the CCDC's data processing and validation procedures.
#
#######################################################################

data_XEHCAQ
_symmetry_cell_setting           monoclinic
_symmetry_space_group_name_H-M   'P 21/c'
_symmetry_Int_Tables_number      14
_space_group_name_Hall           '-P 2ybc'
loop_
_symmetry_equiv_pos_site_id
_symmetry_equiv_pos_as_xyz
1 x,y,z
2 -x,1/2+y,1/2-z
3 -x,-y,-z
4 x,1/2-y,1/2+z
_cell_length_a                   14.995(2)
_cell_length_b                   25.751(3)
_cell_length_c                   16.901(2)
_cell_angle_alpha                90
_cell_angle_beta                 97.813(8)
_cell_angle_gamma                90
_cell_volume                     6465.51
loop_
_atom_site_label
_atom_site_type_symbol
_atom_site_fract_x
_atom_site_fract_y
_atom_site_fract_z
Ag1 Ag 0.89116(3) 0.709668(18) 0.39476(3)
Ag2 Ag 0.82578(3) 0.726278(18) 0.11548(4)
O1 O 0.4396(6) 0.6008(3) -0.1917(4)
H1 H 0.4944 0.6145 -0.1795
O2 O 0.4207(3) 0.71968(19) 0.0972(3)
O3 O 0.8446(3) 0.81829(15) 0.3374(2)
O4 O 0.9888(3) 0.64144(15) 0.3341(2)
O5 O 0.4640(3) 0.53252(18) 0.0916(3)
N1 N 0.7215(3) 0.60157(19) 0.2522(3)
N2 N 0.7173(4) 0.6502(2) 0.2222(3)
N3 N 0.8005(3) 0.66427(19) 0.2179(3)
N4 N 1.0065(3) 0.75092(19) 0.3570(3)
N5 N 0.7299(3) 0.78633(19) 0.1574(3)
N6 N 0.6442(4) 0.7815(2) 0.1321(3)
N7 N 0.6004(3) 0.8151(2) 0.1728(3)
C1 C 0.4460(4) 0.6261(3) 0.1013(4)
H2 H 0.4601 0.6255 0.1578
C2 C 0.4237(4) 0.6723(3) 0.0619(5)
C3 C 0.4037(4) 0.6726(3) -0.0219(4)
H3 H 0.3882 0.7042 -0.0496
C4 C 0.4067(5) 0.6276(3) -0.0627(4)
C5 C 0.3797(6) 0.6296(4) -0.1536(5)
H4 H 0.3182 0.6155 -0.1675
H5 H 0.3795 0.6661 -0.1720
C6 C 0.4287(4) 0.5824(3) -0.0251(4)
H6 H 0.4311 0.5517 -0.0557
C7 C 0.4476(4) 0.5799(3) 0.0565(4)
C8 C 0.5068(4) 0.5301(3) 0.1732(4)
H7 H 0.5061 0.4939 0.1927
H8 H 0.4734 0.5519 0.2073
C9 C 0.6037(4) 0.5491(2) 0.1784(4)
H9 H 0.6428 0.5195 0.1684
H10 H 0.6075 0.5752 0.1359
C10 C 0.6390(4) 0.5732(3) 0.2585(4)
H11 H 0.5933 0.5971 0.2752
H12 H 0.6509 0.5456 0.2993
C11 C 0.8075(4) 0.5846(2) 0.2668(4)
H13 H 0.8281 0.5519 0.2879
C12 C 0.8579(4) 0.6247(2) 0.2449(4)
C13 C 0.9570(4) 0.6325(2) 0.2508(4)
H14 H 0.9861 0.6013 0.2315
H15 H 0.9707 0.6627 0.2183
C14 C 1.0757(4) 0.6650(2) 0.3488(4)
H16 H 1.1158 0.6486 0.3141
H17 H 1.1017 0.6587 0.4050
C15 C 1.0723(4) 0.7236(2) 0.3332(4)
C16 C 1.1435(4) 0.7467(2) 0.3002(4)
H18 H 1.1919 0.7265 0.2861
C17 C 1.1411(4) 0.7996(2) 0.2890(4)
H19 H 1.1865 0.8164 0.2644
C18 C 1.0710(4) 0.8283(2) 0.3141(4)
H20 H 1.0689 0.8650 0.3077
C19 C 1.0052(4) 0.8032(2) 0.3482(4)
C20 C 0.9310(4) 0.8320(2) 0.3797(4)
H21 H 0.9321 0.8241 0.4371
H22 H 0.9406 0.8698 0.3744
C21 C 0.8318(5) 0.8390(3) 0.2575(4)
H23 H 0.8794 0.8256 0.2277
H24 H 0.8365 0.8773 0.2596
C22 C 0.7415(4) 0.8236(2) 0.2156(4)
C23 C 0.6582(4) 0.8421(3) 0.2247(4)
H25 H 0.6442 0.8685 0.2602
C24 C 0.5023(4) 0.8176(3) 0.1575(4)
H26 H 0.4831 0.8118 0.0998
H27 H 0.4828 0.8529 0.1706
C25 C 0.4556(5) 0.7788(3) 0.2039(4)
H28 H 0.4803 0.7820 0.2611
H29 H 0.3909 0.7880 0.1986
C26 C 0.4635(5) 0.7234(3) 0.1794(4)
H30 H 0.5275 0.7131 0.1836
H31 H 0.4330 0.7003 0.2142
O6 O 1.1565(5) 1.0520(3) 0.8362(4)
H32 H 1.2060 1.0430 0.8159
O7 O 0.8919(3) 1.01300(19) 0.5733(3)
O8 O 0.6056(3) 0.76648(16) 0.3868(3)
O9 O 0.9516(3) 0.64070(15) 0.5039(2)
O10 O 1.1549(3) 0.90534(16) 0.6000(2)
N8 N 0.7470(4) 0.9070(2) 0.4626(3)
N9 N 0.8056(4) 0.8768(2) 0.5081(3)
N10 N 0.7657(4) 0.8312(2) 0.5141(3)
N11 N 0.7763(3) 0.66809(18) 0.4311(3)
N12 N 0.9715(3) 0.7523(2) 0.6084(3)
N13 N 1.0343(3) 0.78859(18) 0.6131(3)
N14 N 1.1101(3) 0.76437(19) 0.5997(3)
C27 C 1.0198(4) 0.9580(2) 0.5859(4)
H33 H 1.0019 0.9461 0.5329
C28 C 1.0993(4) 0.9401(2) 0.6297(4)
C29 C 1.1240(4) 0.9567(2) 0.7068(4)
H34 H 1.1782 0.9438 0.7358
C30 C 1.0729(5) 0.9914(3) 0.7437(4)
C31 C 1.0968(7) 1.0074(3) 0.8286(5)
H35 H 1.1265 0.9780 0.8596
H36 H 1.0412 1.0160 0.8514
C32 C 0.9915(6) 1.0101(3) 0.6991(4)
H37 H 0.9542 1.0337 0.7228
C33 C 0.9670(5) 0.9935(3) 0.6207(5)
C34 C 0.8054(4) 0.9931(3) 0.5866(4)
H38 H 0.8112 0.9564 0.6038
H39 H 0.7821 1.0133 0.6291
C35 C 0.7435(5) 0.9972(3) 0.5121(4)
H40 H 0.6819 0.9884 0.5227
H41 H 0.7428 1.0336 0.4930
C36 C 0.7694(6) 0.9607(3) 0.4450(5)
H42 H 0.8347 0.9636 0.4420
H43 H 0.7363 0.9712 0.3928
C37 C 0.6694(5) 0.8819(3) 0.4415(4)
H44 H 0.6165 0.8954 0.4111
C38 C 0.6817(4) 0.8328(3) 0.4724(4)
C39 C 0.6205(4) 0.7869(3) 0.4659(4)
H45 H 0.5620 0.7971 0.4823
H46 H 0.6469 0.7595 0.5030
C40 C 0.6795(4) 0.7375(2) 0.3682(4)
H47 H 0.6713 0.7302 0.3102
H48 H 0.7350 0.7584 0.3809
C41 C 0.6908(4) 0.6866(3) 0.4135(4)
C42 C 0.6193(5) 0.6606(3) 0.4353(4)
H49 H 0.5602 0.6741 0.4224
C43 C 0.6333(5) 0.6139(3) 0.4765(4)
H50 H 0.5840 0.5952 0.4923
C44 C 0.7204(4) 0.5953(3) 0.4942(4)
H51 H 0.7316 0.5639 0.5232
C45 C 0.7909(4) 0.6227(2) 0.4695(4)
C46 C 0.8844(4) 0.6018(2) 0.4822(4)
H52 H 0.8970 0.5846 0.4325
H53 H 0.8889 0.5752 0.5248
C47 C 0.9541(5) 0.6576(2) 0.5841(4)
H54 H 0.8923 0.6649 0.5957
H55 H 0.9806 0.6303 0.6213
C48 C 1.0089(4) 0.7049(2) 0.5947(4)
C49 C 1.0964(4) 0.7133(2) 0.5881(4)
H56 H 1.1396 0.6882 0.5774
C50 C 1.1925(4) 0.7950(3) 0.5971(4)
H57 H 1.2051 0.8158 0.6466
H58 H 1.2438 0.7711 0.5949
C51 C 1.1845(4) 0.8310(2) 0.5257(4)
H59 H 1.1638 0.8106 0.4770
H60 H 1.2450 0.8448 0.5203
C52 C 1.1210(4) 0.8761(2) 0.5300(4)
H61 H 1.0594 0.8633 0.5340
H62 H 1.1189 0.8980 0.4817
Ag2C Ag 0.82578(3) 0.773722(18) 0.61548(4)
N10C N 0.7657(4) 0.6688(2) 0.0141(3)
N12C N 0.9715(3) 0.7477(2) 0.1084(3)
S1 S 0.34656(12) 0.62282(8) 0.32963(11)
O11 O 0.4375(3) 0.61560(19) 0.3173(3)
O12 O 0.2933(3) 0.6570(2) 0.2755(3)
O13 O 0.3013(4) 0.5758(2) 0.3459(4)
C53 C 0.3541(5) 0.6556(3) 0.4246(5)
F1 F 0.4019(3) 0.62807(19) 0.4830(3)
F2 F 0.3986(3) 0.70026(19) 0.4232(4)
F3 F 0.2749(3) 0.6664(2) 0.4458(3)
loop_
_geom_bond_atom_site_label_1
_geom_bond_atom_site_label_2
_geom_bond_site_symmetry_1
_geom_bond_site_symmetry_2
Ag1 O4 1_555 1_555
Ag2 N3 1_555 1_555
O1 H1 1_555 1_555
O2 C2 1_555 1_555
O3 C20 1_555 1_555
O4 C13 1_555 1_555
O5 C7 1_555 1_555
N1 N2 1_555 1_555
N2 N3 1_555 1_555
N3 C12 1_555 1_555
N4 Ag1 1_555 1_555
N5 Ag2 1_555 1_555
N6 N5 1_555 1_555
N7 N6 1_555 1_555
C1 H2 1_555 1_555
C2 C1 1_555 1_555
C3 C2 1_555 1_555
H3 C3 1_555 1_555
C4 C3 1_555 1_555
C5 O1 1_555 1_555
H4 C5 1_555 1_555
H5 C5 1_555 1_555
C6 C4 1_555 1_555
H6 C6 1_555 1_555
C7 C1 1_555 1_555
C8 O5 1_555 1_555
H7 C8 1_555 1_555
H8 C8 1_555 1_555
C9 C8 1_555 1_555
H9 C9 1_555 1_555
H10 C9 1_555 1_555
C10 N1 1_555 1_555
H11 C10 1_555 1_555
H12 C10 1_555 1_555
C11 N1 1_555 1_555
H13 C11 1_555 1_555
C12 C11 1_555 1_555
C13 C12 1_555 1_555
H14 C13 1_555 1_555
H15 C13 1_555 1_555
C14 O4 1_555 1_555
H16 C14 1_555 1_555
H17 C14 1_555 1_555
C15 N4 1_555 1_555
C16 C15 1_555 1_555
H18 C16 1_555 1_555
C17 C16 1_555 1_555
H19 C17 1_555 1_555
C18 C17 1_555 1_555
H20 C18 1_555 1_555
C19 N4 1_555 1_555
C20 C19 1_555 1_555
H21 C20 1_555 1_555
H22 C20 1_555 1_555
C21 O3 1_555 1_555
H23 C21 1_555 1_555
H24 C21 1_555 1_555
C22 N5 1_555 1_555
C23 N7 1_555 1_555
H25 C23 1_555 1_555
C24 N7 1_555 1_555
H26 C24 1_555 1_555
H27 C24 1_555 1_555
C25 C24 1_555 1_555
H28 C25 1_555 1_555
H29 C25 1_555 1_555
C26 O2 1_555 1_555
H30 C26 1_555 1_555
H31 C26 1_555 1_555
O6 H32 1_555 1_555
O7 C33 1_555 1_555
O8 C39 1_555 1_555
O9 C46 1_555 1_555
O10 C28 1_555 1_555
N8 N9 1_555 1_555
N9 N10 1_555 1_555
N10 C38 1_555 1_555
N11 Ag1 1_555 1_555
N12 N13 1_555 1_555
N13 N14 1_555 1_555
N14 C49 1_555 1_555
C27 H33 1_555 1_555
C28 C27 1_555 1_555
C29 C28 1_555 1_555
H34 C29 1_555 1_555
C30 C29 1_555 1_555
C31 O6 1_555 1_555
H35 C31 1_555 1_555
H36 C31 1_555 1_555
C32 C30 1_555 1_555
H37 C32 1_555 1_555
C33 C27 1_555 1_555
C34 O7 1_555 1_555
H38 C34 1_555 1_555
H39 C34 1_555 1_555
C35 C34 1_555 1_555
H40 C35 1_555 1_555
H41 C35 1_555 1_555
C36 N8 1_555 1_555
H42 C36 1_555 1_555
H43 C36 1_555 1_555
C37 N8 1_555 1_555
H44 C37 1_555 1_555
C38 C37 1_555 1_555
C39 C38 1_555 1_555
H45 C39 1_555 1_555
H46 C39 1_555 1_555
C40 O8 1_555 1_555
H47 C40 1_555 1_555
H48 C40 1_555 1_555
C41 N11 1_555 1_555
C42 C41 1_555 1_555
H49 C42 1_555 1_555
C43 C42 1_555 1_555
H50 C43 1_555 1_555
C44 C43 1_555 1_555
H51 C44 1_555 1_555
C45 N11 1_555 1_555
C46 C45 1_555 1_555
H52 C46 1_555 1_555
H53 C46 1_555 1_555
C47 O9 1_555 1_555
H54 C47 1_555 1_555
H55 C47 1_555 1_555
C48 N12 1_555 1_555
C49 C48 1_555 1_555
H56 C49 1_555 1_555
C50 N14 1_555 1_555
H57 C50 1_555 1_555
H58 C50 1_555 1_555
C51 C50 1_555 1_555
H59 C51 1_555 1_555
H60 C51 1_555 1_555
C52 O10 1_555 1_555
H61 C52 1_555 1_555
H62 C52 1_555 1_555
S1 O11 1_555 1_555
O12 S1 1_555 1_555
O13 S1 1_555 1_555
C53 S1 1_555 1_555
F1 C53 1_555 1_555
F2 C53 1_555 1_555
F3 C53 1_555 1_555
Ag2C N10 1_555 1_555
N10C Ag2 1_555 1_555
N12C Ag2 1_555 1_555
C4 C5 1_555 1_555
C6 C7 1_555 1_555
C9 C10 1_555 1_555
C14 C15 1_555 1_555
C18 C19 1_555 1_555
C21 C22 1_555 1_555
C22 C23 1_555 1_555
C25 C26 1_555 1_555
N12 Ag2C 1_555 1_555
C30 C31 1_555 1_555
C32 C33 1_555 1_555
C35 C36 1_555 1_555
C40 C41 1_555 1_555
C44 C45 1_555 1_555
C47 C48 1_555 1_555
C51 C52 1_555 1_555

#END
