
#######################################################################
#
#                 Cambridge Crystallographic Data Centre
#                                CCDC 
#
#######################################################################
#
# If this CIF has been generated from an entry in the Cambridge 
# Structural Database, then it will include bibliographic, chemical, 
# crystal, experimental, refinement or atomic coordinate data resulting 
# from the CCDC's data processing and validation procedures.
#
#######################################################################

data_XEHDUL
_symmetry_cell_setting           monoclinic
_symmetry_space_group_name_H-M   'C 2/c'
_symmetry_Int_Tables_number      15
_space_group_name_Hall           '-C 2yn'
loop_
_symmetry_equiv_pos_site_id
_symmetry_equiv_pos_as_xyz
1 x,y,z
2 -x,y,1/2-z
3 1/2+x,1/2+y,z
4 1/2-x,1/2+y,1/2-z
5 -x,-y,-z
6 x,-y,1/2+z
7 1/2-x,1/2-y,-z
8 1/2+x,1/2-y,1/2+z
_cell_length_a                   31.0150(6)
_cell_length_b                   14.6360(3)
_cell_length_c                   15.4030(3)
_cell_angle_alpha                90
_cell_angle_beta                 90.5050(10)
_cell_angle_gamma                90
_cell_volume                     6991.7
loop_
_atom_site_label
_atom_site_type_symbol
_atom_site_fract_x
_atom_site_fract_y
_atom_site_fract_z
W1 W 0.124194(4) 0.236920(9) 0.617145(9)
Cu1 Cu 0.051515(15) 0.23042(3) 0.92701(3)
Cu2 Cu 0.261880(15) 0.46495(3) 0.55422(3)
C1 C 0.09329(13) 0.2327(3) 0.7424(2)
N1 N 0.07663(12) 0.2294(2) 0.8078(2)
C2 C 0.10582(14) 0.3767(3) 0.6406(3)
N2 N 0.09688(16) 0.4507(3) 0.6523(4)
C3 C 0.17891(12) 0.3247(3) 0.5904(3)
N3 N 0.20797(12) 0.3703(3) 0.5764(2)
C4 C 0.17187(12) 0.1986(3) 0.7146(2)
N4 N 0.19720(12) 0.1770(3) 0.7641(2)
C5 C 0.10352(13) 0.0958(3) 0.6221(3)
N5 N 0.09204(13) 0.0219(3) 0.6220(3)
C6 C 0.05489(12) 0.2384(3) 0.5952(3)
N6 N 0.01868(11) 0.2369(2) 0.5870(2)
C7 C 0.11365(14) 0.2650(3) 0.4807(3)
N7 N 0.10896(15) 0.2779(3) 0.4085(3)
C8 C 0.17125(12) 0.1548(3) 0.5494(2)
N8 N 0.19659(11) 0.1121(2) 0.5143(2)
N9 N 0.05601(12) 0.3667(2) 0.9213(2)
C9 C 0.0295(2) 0.4312(4) 0.8998(5)
H1 H 0.0006 0.4224 0.8857
C10 C 0.0502(2) 0.5150(4) 0.9007(5)
H2 H 0.0378 0.5719 0.8902
C11 C 0.0901(3) 0.4979(4) 0.9191(5)
H3 H 0.1123 0.5404 0.9236
N10 N 0.09344(16) 0.4092(3) 0.9302(4)
H4 H 0.1173 0.3818 0.942
N11 N 0.05350(11) 0.2363(2) 1.0587(2)
N12 N 0.06531(11) 0.1673(2) 1.1112(2)
H5 H 0.0715 0.1132 1.0934
C12 C 0.0662(2) 0.1926(4) 1.1933(3)
H6 H 0.0725 0.1554 1.2406
C13 C 0.0560(3) 0.2833(5) 1.1962(4)
H7 H 0.0548 0.3208 1.2449
C14 C 0.0481(2) 0.3069(4) 1.1109(3)
H8 H 0.04 0.3649 1.0924
N13 N 0.05355(11) 0.0936(2) 0.9235(2)
N14 N 0.09052(11) 0.0466(2) 0.9176(2)
H9 H 0.1158 0.0697 0.925
C15 C 0.08289(16) -0.0406(3) 0.8988(3)
H10 H 0.1036 -0.086 0.8927
C16 C 0.03993(16) -0.0519(3) 0.8900(3)
H11 H 0.0253 -0.1055 0.8763
C17 C 0.02236(15) 0.0331(3) 0.9056(3)
H12 H -0.007 0.0465 0.904
N15 N 0.23426(11) 0.5070(2) 0.4456(2)
N16 N 0.22845(15) 0.5945(3) 0.4231(3)
H13 H 0.238 0.6406 0.4523
C18 C 0.2059(2) 0.6003(5) 0.3495(4)
H14 H 0.1978 0.6543 0.3221
C19 C 0.1970(2) 0.5169(5) 0.3214(4)
H15 H 0.1819 0.4999 0.2715
C20 C 0.21529(19) 0.4609(4) 0.3840(4)
H16 H 0.2142 0.3975 0.3823
N17 N 0.29083(12) 0.4206(3) 0.6616(2)
C21 C 0.2998(2) 0.3358(4) 0.6839(4)
H17 H 0.2953 0.2852 0.6484
C22 C 0.3168(2) 0.3320(5) 0.7670(4)
H18 H 0.3253 0.2799 0.7972
C23 C 0.31852(19) 0.4179(5) 0.7952(4)
H19 H 0.3285 0.4376 0.8491
N18 N 0.30307(15) 0.4705(3) 0.7307(3)
H20 H 0.3012 0.529 0.7333
O1 O 0.23849(10) 0.5743(2) 0.6195(2)
H21 H 0.2097 0.5797 0.6108
H22 H 0.247 0.6267 0.6445
Cu1A Cu -0.051515(15) 0.23042(3) 0.57299(3)
Cu2F Cu 0.238120(15) 0.03505(3) 0.44578(3)
N6A N -0.01868(11) 0.2369(2) 0.9130(2)
N8F N 0.30341(11) 0.3879(2) 0.4857(2)
N19 N 0.17472(13) -0.1829(3) 0.4778(3)
O2 O 0.14152(12) -0.2281(3) 0.4732(3)
O3 O 0.17450(11) -0.0989(3) 0.4647(3)
O4 O 0.20982(13) -0.2207(3) 0.4927(4)
O5 O 0.34307(15) -0.1158(4) 0.3943(4)
H23 H 0.3604 -0.0691 0.3807
H24 H 0.3454 -0.1727 0.4178
loop_
_geom_bond_atom_site_label_1
_geom_bond_atom_site_label_2
_geom_bond_site_symmetry_1
_geom_bond_site_symmetry_2
W1 C1 1_555 1_555
Cu1 N1 1_555 1_555
Cu2 N3 1_555 1_555
C1 N1 1_555 1_555
C2 W1 1_555 1_555
N2 C2 1_555 1_555
C3 W1 1_555 1_555
N3 C3 1_555 1_555
C4 W1 1_555 1_555
N4 C4 1_555 1_555
C5 W1 1_555 1_555
N5 C5 1_555 1_555
C6 W1 1_555 1_555
N6 C6 1_555 1_555
C7 W1 1_555 1_555
N7 C7 1_555 1_555
C8 W1 1_555 1_555
N8 C8 1_555 1_555
N9 Cu1 1_555 1_555
C9 N9 1_555 1_555
H1 C9 1_555 1_555
C10 C9 1_555 1_555
H2 C10 1_555 1_555
C11 C10 1_555 1_555
H3 C11 1_555 1_555
N10 N9 1_555 1_555
H4 N10 1_555 1_555
N11 Cu1 1_555 1_555
N12 N11 1_555 1_555
H5 N12 1_555 1_555
C12 N12 1_555 1_555
H6 C12 1_555 1_555
C13 C12 1_555 1_555
H7 C13 1_555 1_555
C14 N11 1_555 1_555
H8 C14 1_555 1_555
N13 Cu1 1_555 1_555
N14 N13 1_555 1_555
H9 N14 1_555 1_555
C15 N14 1_555 1_555
H10 C15 1_555 1_555
C16 C15 1_555 1_555
H11 C16 1_555 1_555
C17 N13 1_555 1_555
H12 C17 1_555 1_555
N15 Cu2 1_555 1_555
N16 N15 1_555 1_555
H13 N16 1_555 1_555
C18 N16 1_555 1_555
H14 C18 1_555 1_555
C19 C18 1_555 1_555
H15 C19 1_555 1_555
C20 N15 1_555 1_555
H16 C20 1_555 1_555
N17 Cu2 1_555 1_555
C21 N17 1_555 1_555
H17 C21 1_555 1_555
C22 C21 1_555 1_555
H18 C22 1_555 1_555
C23 C22 1_555 1_555
H19 C23 1_555 1_555
N18 N17 1_555 1_555
H20 N18 1_555 1_555
O1 Cu2 1_555 1_555
H21 O1 1_555 1_555
H22 O1 1_555 1_555
N19 O2 1_555 1_555
O3 N19 1_555 1_555
O4 N19 1_555 1_555
O5 H23 1_555 1_555
H24 O5 1_555 1_555
Cu1A N6 1_555 1_555
Cu2F N8 1_555 1_555
N6A Cu1 1_555 1_555
N8F Cu2 1_555 1_555
C11 N10 1_555 1_555
C13 C14 1_555 1_555
C16 C17 1_555 1_555
C19 C20 1_555 1_555
C23 N18 1_555 1_555

#END
