
#######################################################################
#
#                 Cambridge Crystallographic Data Centre
#                                CCDC 
#
#######################################################################
#
# If this CIF has been generated from an entry in the Cambridge 
# Structural Database, then it will include bibliographic, chemical, 
# crystal, experimental, refinement or atomic coordinate data resulting 
# from the CCDC's data processing and validation procedures.
#
#######################################################################

data_XEHGUO
_symmetry_cell_setting           orthorhombic
_symmetry_space_group_name_H-M   'P b c a'
_symmetry_Int_Tables_number      61
_space_group_name_Hall           '-P 2ac 2ab'
loop_
_symmetry_equiv_pos_site_id
_symmetry_equiv_pos_as_xyz
1 x,y,z
2 1/2-x,-y,1/2+z
3 -x,1/2+y,1/2-z
4 1/2+x,1/2-y,-z
5 -x,-y,-z
6 1/2+x,y,1/2-z
7 x,1/2-y,1/2+z
8 1/2-x,1/2+y,z
_cell_length_a                   11.398(3)
_cell_length_b                   7.758(2)
_cell_length_c                   29.507(8)
_cell_angle_alpha                90
_cell_angle_beta                 90
_cell_angle_gamma                90
_cell_volume                     2609.18
loop_
_atom_site_label
_atom_site_type_symbol
_atom_site_fract_x
_atom_site_fract_y
_atom_site_fract_z
Cu1 Cu 1.00665(8) 1.17594(12) 0.43419(3)
Cu2 Cu 1.59530(8) 1.48921(13) 0.65570(3)
N1 N 1.0880(5) 1.2834(7) 0.48326(18)
N2 N 1.4021(5) 1.4777(7) 0.59521(18)
N3 N 1.4412(5) 1.5577(7) 0.63343(18)
N4 N 1.3876(5) 1.9027(8) 0.77846(18)
N5 N 1.0775(6) 1.3031(10) 0.3734(2)
N6 N 1.1617(6) 1.3906(9) 0.3694(2)
N7 N 1.2426(7) 1.4785(12) 0.3645(3)
C1 C 1.0978(6) 1.3952(9) 0.5592(2)
H1 H 1.0589 1.4208 0.5860
C2 C 1.0392(6) 1.3193(9) 0.5237(2)
H2 H 0.9607 1.2909 0.5280
C3 C 1.2019(6) 1.3241(9) 0.4785(2)
H3 H 1.2385 1.2994 0.4511
C4 C 1.2673(6) 1.4005(9) 0.5122(2)
H4 H 1.3451 1.4302 0.5070
C5 C 1.2163(6) 1.4331(8) 0.5542(2)
C6 C 1.2844(6) 1.5044(8) 0.5922(2)
C7 C 1.2457(6) 1.5998(8) 0.6284(2)
H5 H 1.1693 1.6339 0.6349
C8 C 1.3478(6) 1.6339(8) 0.6531(2)
C9 C 1.3609(6) 1.7322(8) 0.6950(2)
C10 C 1.4630(6) 1.8199(9) 0.7058(2)
H6 H 1.5250 1.8226 0.6854
C11 C 1.4727(6) 1.9034(9) 0.7472(2)
H7 H 1.5416 1.9628 0.7536
C12 C 1.2883(6) 1.8216(10) 0.7672(2)
H8 H 1.2269 1.8227 0.7880
C13 C 1.2713(6) 1.7373(9) 0.7271(2)
H9 H 1.2001 1.6833 0.7212
Cu1C Cu 1.50665(8) 1.32406(12) 0.56581(3)
Cu2B Cu 1.40470(8) 1.98921(13) 0.84430(3)
Cu2C Cu 1.09530(8) 1.01079(13) 0.34430(3)
Cu2D Cu 1.40470(8) 1.51079(13) 0.34430(3)
N2C N 0.9021(5) 1.0223(7) 0.40479(18)
N4B N 1.6124(5) 1.4027(8) 0.72154(18)
N5C N 1.5775(6) 1.1969(10) 0.6266(2)
N7D N 1.7574(7) 1.5215(12) 0.6355(3)
loop_
_geom_bond_atom_site_label_1
_geom_bond_atom_site_label_2
_geom_bond_site_symmetry_1
_geom_bond_site_symmetry_2
Cu1 N1 1_555 1_555
Cu2 N3 1_555 1_555
N1 C2 1_555 1_555
N2 N3 1_555 1_555
N3 C8 1_555 1_555
N4 C11 1_555 1_555
N5 Cu1 1_555 1_555
N6 N5 1_555 1_555
N7 N6 1_555 1_555
C1 H1 1_555 1_555
C2 C1 1_555 1_555
H2 C2 1_555 1_555
C3 N1 1_555 1_555
H3 C3 1_555 1_555
C4 C3 1_555 1_555
H4 C4 1_555 1_555
C5 C1 1_555 1_555
C6 N2 1_555 1_555
C7 C6 1_555 1_555
H5 C7 1_555 1_555
C8 C7 1_555 1_555
C9 C8 1_555 1_555
C10 C9 1_555 1_555
H6 C10 1_555 1_555
C11 C10 1_555 1_555
H7 C11 1_555 1_555
C12 N4 1_555 1_555
H8 C12 1_555 1_555
C13 C9 1_555 1_555
H9 C13 1_555 1_555
Cu1C N2 1_555 1_555
Cu2B N4 1_555 1_555
Cu2C N5 1_555 1_555
Cu2D N7 1_555 1_555
N2C Cu1 1_555 1_555
N4B Cu2 1_555 1_555
N5C Cu2 1_555 1_555
N7D Cu2 1_555 1_555
C4 C5 1_555 1_555
C5 C6 1_555 1_555
C12 C13 1_555 1_555
Cu1C N5C 1_555 1_555

#END
