
#######################################################################
#
#                 Cambridge Crystallographic Data Centre
#                                CCDC 
#
#######################################################################
#
# If this CIF has been generated from an entry in the Cambridge 
# Structural Database, then it will include bibliographic, chemical, 
# crystal, experimental, refinement or atomic coordinate data resulting 
# from the CCDC's data processing and validation procedures.
#
#######################################################################

data_XEHRAD
_symmetry_cell_setting           monoclinic
_symmetry_space_group_name_H-M   'P 21/c'
_symmetry_Int_Tables_number      14
_space_group_name_Hall           '-P 2ybc'
loop_
_symmetry_equiv_pos_site_id
_symmetry_equiv_pos_as_xyz
1 x,y,z
2 x,1/2-y,1/2+z
3 -x,-y,-z
4 -x,1/2+y,1/2-z
_cell_length_a                   15.196(6)
_cell_length_b                   20.177(4)
_cell_length_c                   19.781(8)
_cell_angle_alpha                90
_cell_angle_beta                 90.63(2)
_cell_angle_gamma                90
_cell_volume                     6064.68
loop_
_atom_site_label
_atom_site_type_symbol
_atom_site_fract_x
_atom_site_fract_y
_atom_site_fract_z
Fe1 Fe 0.2646(1) 0.4776(1) 0.3040(1)
N1 N 0.3667(6) 0.4184(5) 0.2920(5)
N2 N 0.3582(6) 0.5457(5) 0.3169(5)
C1 C 0.3687(8) 0.3529(6) 0.2824(6)
C2 C 0.4467(9) 0.3181(7) 0.2734(7)
C3 C 0.5240(9) 0.3502(8) 0.2748(7)
C4 C 0.5254(8) 0.4182(7) 0.2870(7)
C5 C 0.6043(9) 0.4580(8) 0.2930(7)
C6 C 0.5996(9) 0.5238(8) 0.3071(7)
C7 C 0.5182(8) 0.5561(7) 0.3154(7)
C8 C 0.5084(9) 0.6245(8) 0.3297(7)
C9 C 0.4266(9) 0.6501(7) 0.3347(7)
C10 C 0.3530(8) 0.6099(7) 0.3279(6)
C11 C 0.4413(8) 0.5185(7) 0.3102(6)
C12 C 0.4455(8) 0.4503(7) 0.2965(6)
N3 N 0.2543(7) 0.4980(5) 0.2068(5)
N4 N 0.1683(6) 0.5437(5) 0.3109(5)
C13 C 0.3002(9) 0.4764(7) 0.1552(7)
C14 C 0.2823(11) 0.4953(8) 0.0873(7)
C15 C 0.2155(11) 0.5365(9) 0.0736(8)
C16 C 0.1649(10) 0.5628(7) 0.1277(8)
C17 C 0.0913(11) 0.6061(8) 0.1199(9)
C18 C 0.0456(10) 0.6261(8) 0.1725(9)
C19 C 0.0714(9) 0.6093(7) 0.2415(8)
C20 C 0.0274(9) 0.6313(7) 0.2988(9)
C21 C 0.0564(9) 0.6103(7) 0.3596(9)
C22 C 0.1272(8) 0.5651(7) 0.3646(7)
C23 C 0.1397(8) 0.5660(6) 0.2485(7)
C24 C 0.1879(9) 0.5422(6) 0.1928(7)
N5 N 0.1757(6) 0.4063(5) 0.2959(5)
N6 N 0.2601(6) 0.4527(5) 0.4006(5)
C25 C 0.1298(8) 0.3862(6) 0.2414(7)
C26 C 0.0634(8) 0.3381(7) 0.2454(7)
C27 C 0.0440(8) 0.3107(7) 0.3055(8)
C28 C 0.0895(8) 0.3308(6) 0.3648(7)
C29 C 0.0723(8) 0.3059(7) 0.4317(8)
C30 C 0.1198(9) 0.3295(7) 0.4835(7)
C31 C 0.1829(8) 0.3802(7) 0.4777(7)
C32 C 0.2310(9) 0.4082(7) 0.5319(7)
C33 C 0.2922(9) 0.4558(7) 0.5189(7)
C34 C 0.3048(8) 0.4771(6) 0.4533(6)
C35 C 0.2001(8) 0.4043(6) 0.4148(6)
C36 C 0.1532(8) 0.3796(6) 0.3564(6)
H1 H 0.3118 0.3279 0.2816
H2 H 0.4451 0.2691 0.2660
H3 H 0.5801 0.3256 0.2671
H4 H 0.6631 0.4367 0.2866
H5 H 0.6552 0.5500 0.3118
H6 H 0.5614 0.6534 0.3359
H7 H 0.4190 0.6986 0.3435
H8 H 0.2935 0.6306 0.3315
H9 H 0.3500 0.4451 0.1642
H10 H 0.3195 0.4780 0.0499
H11 H 0.2011 0.5487 0.0258
H12 H 0.0739 0.6216 0.0736
H13 H -0.0083 0.6537 0.1647
H14 H -0.0243 0.6618 0.2948
H15 H 0.0276 0.6267 0.4016
H16 H 0.1464 0.5490 0.4102
H17 H 0.1432 0.4062 0.1964
H18 H 0.0306 0.3241 0.2037
H19 H -0.0029 0.2761 0.3082
H20 H 0.0257 0.2718 0.4392
H21 H 0.1100 0.3099 0.5293
H22 H 0.2204 0.3933 0.5794
H23 H 0.3279 0.4752 0.5567
H24 H 0.3495 0.5125 0.4451
I1 I 0.9302(1) 0.4559(1) 0.4278(1)
I2 I 0.8692(1) 0.4891(1) 0.3012(1)
I3 I 0.8059(1) 0.5416(1) 0.1558(1)
I4 I 0.9522(1) 0.4490(1) 0.0927(1)
I5 I 1.0792(1) 0.3690(1) 0.0372(1)
I6 I 1.2855(1) 0.3198(1) -0.0305(1)
I7 I 1.4070(1) 0.2160(1) -0.0327(1)
I8 I 1.5372(1) 0.1009(1) -0.0285(1)
I9 I 1.7006(1) 0.1817(1) 0.0015(1)
I10 I 1.8496(1) 0.2619(1) 0.0307(1)
I11 I 1.8076(1) 0.2782(1) 0.1954(1)
I12 I 1.7765(1) 0.2901(1) 0.3304(1)
I13 I 1.2404(1) 0.1816(1) 0.2474(1)
I14 I 1.2639(1) 0.2581(1) 0.1361(1)
I15 I 0.6538(1) 0.4343(1) 0.1078(1)
I16 I 0.5275(1) 0.3454(1) 0.0720(1)
I17 I 0.3892(1) 0.6685(1) 0.1416(1)
I18 I 0.5125(1) 0.5733(1) 0.1262(1)
I13C I 0.7596(1) 0.6816(1) 0.2526(1)
I17C I 1.6108(1) 0.1685(1) 0.3584(1)
I3C I 1.1941(1) 0.0416(1) 0.3442(1)
I12C I 0.2235(1) 0.7901(1) 0.1696(1)
loop_
_geom_bond_atom_site_label_1
_geom_bond_atom_site_label_2
_geom_bond_site_symmetry_1
_geom_bond_site_symmetry_2
Fe1 N1 1_555 1_555
N1 C1 1_555 1_555
N2 Fe1 1_555 1_555
C1 C2 1_555 1_555
C2 C3 1_555 1_555
C3 C4 1_555 1_555
C4 C5 1_555 1_555
C5 C6 1_555 1_555
C6 C7 1_555 1_555
C7 C8 1_555 1_555
C8 C9 1_555 1_555
C9 C10 1_555 1_555
C10 N2 1_555 1_555
C11 N2 1_555 1_555
C12 N1 1_555 1_555
N3 Fe1 1_555 1_555
N4 Fe1 1_555 1_555
C13 N3 1_555 1_555
C14 C13 1_555 1_555
C15 C14 1_555 1_555
C16 C15 1_555 1_555
C17 C16 1_555 1_555
C18 C17 1_555 1_555
C19 C18 1_555 1_555
C20 C19 1_555 1_555
C21 C20 1_555 1_555
C22 N4 1_555 1_555
C23 N4 1_555 1_555
C24 N3 1_555 1_555
N5 Fe1 1_555 1_555
N6 Fe1 1_555 1_555
C25 N5 1_555 1_555
C26 C25 1_555 1_555
C27 C26 1_555 1_555
C28 C27 1_555 1_555
C29 C28 1_555 1_555
C30 C29 1_555 1_555
C31 C30 1_555 1_555
C32 C31 1_555 1_555
C33 C32 1_555 1_555
C34 N6 1_555 1_555
C35 N6 1_555 1_555
C36 N5 1_555 1_555
I1 I2 1_555 1_555
I2 I3 1_555 1_555
I3 I4 1_555 1_555
I4 I5 1_555 1_555
I5 I6 1_555 1_555
I6 I7 1_555 1_555
I7 I8 1_555 1_555
I8 I9 1_555 1_555
I9 I10 1_555 1_555
I10 I11 1_555 1_555
I11 I12 1_555 1_555
I12 I17C 1_555 1_555
I13 I14 1_555 1_555
I14 I6 1_555 1_555
I15 I3 1_555 1_555
I16 I15 1_555 1_555
I17 I18 1_555 1_555
I18 I15 1_555 1_555
H1 C1 1_555 1_555
H2 C2 1_555 1_555
H3 C3 1_555 1_555
H4 C5 1_555 1_555
H5 C6 1_555 1_555
H6 C8 1_555 1_555
H7 C9 1_555 1_555
H8 C10 1_555 1_555
H9 C13 1_555 1_555
H10 C14 1_555 1_555
H11 C15 1_555 1_555
H12 C17 1_555 1_555
H13 C18 1_555 1_555
H14 C20 1_555 1_555
H15 C21 1_555 1_555
H16 C22 1_555 1_555
H17 C25 1_555 1_555
H18 C26 1_555 1_555
H19 C27 1_555 1_555
H20 C29 1_555 1_555
H21 C30 1_555 1_555
H22 C32 1_555 1_555
H23 C33 1_555 1_555
H24 C34 1_555 1_555
I13C I3 1_555 1_555
I3C I13 1_555 1_555
I12C I17 1_555 1_555
C4 C12 1_555 1_555
C7 C11 1_555 1_555
C11 C12 1_555 1_555
C16 C24 1_555 1_555
C19 C23 1_555 1_555
C21 C22 1_555 1_555
C23 C24 1_555 1_555
C28 C36 1_555 1_555
C31 C35 1_555 1_555
C33 C34 1_555 1_555
C35 C36 1_555 1_555

#END
