
#######################################################################
#
#                 Cambridge Crystallographic Data Centre
#                                CCDC 
#
#######################################################################
#
# If this CIF has been generated from an entry in the Cambridge 
# Structural Database, then it will include bibliographic, chemical, 
# crystal, experimental, refinement or atomic coordinate data resulting 
# from the CCDC's data processing and validation procedures.
#
#######################################################################

data_XEHTUB
_symmetry_cell_setting           triclinic
_symmetry_space_group_name_H-M   'P -1'
_symmetry_Int_Tables_number      2
_space_group_name_Hall           '-P 1'
loop_
_symmetry_equiv_pos_site_id
_symmetry_equiv_pos_as_xyz
1 x,y,z
2 -x,-y,-z
_cell_length_a                   6.804(2)
_cell_length_b                   10.347(2)
_cell_length_c                   11.498(2)
_cell_angle_alpha                68.145(9)
_cell_angle_beta                 77.492(10)
_cell_angle_gamma                73.837(10)
_cell_volume                     715.781
loop_
_atom_site_label
_atom_site_type_symbol
_atom_site_fract_x
_atom_site_fract_y
_atom_site_fract_z
Cd1 Cd 0.11000(12) 0.42281(8) 0.37036(7)
Cd2 Cd 0.36201(12) 0.67877(8) 0.07763(7)
O1 O 0.279(2) 0.9250(10) 0.0069(9)
H1 H 0.2335 0.9937 0.0370
H2 H 0.2192 0.9457 -0.0566
O2 O 0.3981(12) 0.4424(8) 0.2090(7)
O3 O 0.6343(15) 0.2885(10) 0.1273(7)
O4 O 0.7968(13) -0.2008(8) 0.4698(8)
O5 O 0.8410(13) -0.2033(8) 0.6535(8)
O6 O 0.7127(15) 0.2775(9) 0.7284(8)
O7 O 0.8206(13) 0.4350(8) 0.5468(7)
C1 C 0.6246(16) 0.2501(11) 0.3428(10)
C2 C 0.6789(16) 0.1018(11) 0.3807(10)
H3 H 0.6709 0.0550 0.3273
C3 C 0.7450(17) 0.0236(11) 0.4986(10)
C4 C 0.7595(17) 0.0954(11) 0.5770(10)
H4 H 0.8012 0.0439 0.6565
C5 C 0.7116(16) 0.2438(11) 0.5362(9)
C6 C 0.6373(16) 0.3211(11) 0.4206(10)
H5 H 0.5964 0.4200 0.3959
C7 C 0.5450(17) 0.3323(11) 0.2167(9)
C8 C 0.7988(17) -0.1368(12) 0.5440(10)
C9 C 0.7511(17) 0.3221(12) 0.6130(11)
N1 N 0.0263(16) 0.6566(11) 0.0940(9)
N2 N -0.0562(16) 0.5707(11) 0.2014(9)
N3 N -0.2439(16) 0.5689(11) 0.1938(10)
N4 N -0.2944(15) 0.6580(11) 0.0787(9)
N5 N -0.1088(17) 0.8093(12) -0.0994(10)
H6 H -0.192(18) 0.805(12) -0.144(5)
H7 H 0.013(8) 0.794(11) -0.140(6)
C10 C -0.1230(17) 0.7098(12) 0.0188(11)
Cd1A Cd 0.89000(12) -0.42281(8) 0.62964(7)
Cd1_2 Cd 0.11000(12) -0.57719(8) 0.37036(7)
Cd1_3 Cd 1.11000(12) 0.42281(8) 0.37036(7)
Cd1A_2 Cd -0.11000(12) -0.42281(8) 0.62964(7)
Cd1A_3 Cd 0.89000(12) 0.57719(8) 0.62964(7)
Cd2A Cd 0.63799(12) -0.67877(8) 0.92237(7)
Cd2_2 Cd -0.63799(12) 0.67877(8) 0.07763(7)
Cd2_3 Cd 0.36201(12) -0.32123(8) 0.07763(7)
Cd2_4 Cd 0.36201(12) -0.32123(8) 1.07763(7)
Cd2A_2 Cd 0.63799(12) 0.32123(8) -0.07763(7)
Cd2A_3 Cd 0.63799(12) 0.32123(8) 0.92237(7)
Cd2A_4 Cd 1.63799(12) -0.67877(8) 0.92237(7)
O1A O 0.721(2) -0.9250(10) 0.9931(9)
H1A H 0.7665 -0.9937 0.9630
H2A H 0.7808 -0.9457 1.0566
O2A O 0.6019(12) -0.4424(8) 0.7910(7)
O3A O 0.3657(15) -0.2885(10) 0.8727(7)
O3_2 O 0.6343(15) -0.7115(10) 1.1273(7)
O3A_2 O 0.3657(15) 0.7115(10) -0.1273(7)
O4A O 0.2032(13) 0.2008(8) 0.5302(8)
O5A O 0.1590(13) 0.2033(8) 0.3465(8)
O6A O 0.2873(15) -0.2775(9) 0.2716(8)
O6_2 O 0.7127(15) -0.7225(9) 0.7284(8)
O6A_2 O 0.2873(15) 0.7225(9) 0.2716(8)
O7A O 0.1794(13) -0.4350(8) 0.4532(7)
O7_2 O -0.1794(13) 0.4350(8) 0.5468(7)
O7_3 O 0.8206(13) -0.5650(8) 0.5468(7)
O7A_2 O 0.1794(13) 0.5650(8) 0.4532(7)
O7A_3 O 1.1794(13) -0.4350(8) 0.4532(7)
C1A C 0.3754(16) -0.2501(11) 0.6572(10)
C2A C 0.3211(16) -0.1018(11) 0.6193(10)
H3A H 0.3291 -0.0550 0.6727
C3A C 0.2550(17) -0.0236(11) 0.5014(10)
C4A C 0.2405(17) -0.0954(11) 0.4230(10)
H4A H 0.1988 -0.0439 0.3435
C5A C 0.2884(16) -0.2438(11) 0.4638(9)
C6A C 0.3627(16) -0.3211(11) 0.5794(10)
H5A H 0.4036 -0.4200 0.6041
C7A C 0.4550(17) -0.3323(11) 0.7833(9)
C8A C 0.2012(17) 0.1368(12) 0.4560(10)
C9A C 0.2489(17) -0.3221(12) 0.3870(11)
N1A N 0.9737(16) -0.6566(11) 0.9060(9)
N2A N 1.0562(16) -0.5707(11) 0.7986(9)
N3A N 1.2439(16) -0.5689(11) 0.8062(10)
N4A N 1.2944(15) -0.6580(11) 0.9213(9)
N4_2 N 0.7056(15) 0.6580(11) 0.0787(9)
N4A_2 N 0.2944(15) -0.6580(11) 0.9213(9)
N5A N 1.1088(17) -0.8093(12) 1.0994(10)
H6A H 1.192(18) -0.805(12) 1.144(5)
H7A H 0.987(8) -0.794(11) 1.140(6)
C10A C 1.1230(17) -0.7098(12) 0.9812(11)
O8 O 0.6591(19) 0.8783(12) 0.2248(9)
H8 H 0.6997 0.8572 0.2945
H9 H 0.7374 0.8032 0.2144
loop_
_geom_bond_atom_site_label_1
_geom_bond_atom_site_label_2
_geom_bond_site_symmetry_1
_geom_bond_site_symmetry_2
Cd1 O2 1_555 1_555
Cd2 O1 1_555 1_555
O1 H1 1_555 1_555
H2 O1 1_555 1_555
O2 Cd2 1_555 1_555
O3 C7 1_555 1_555
O4 C8 1_555 1_555
O5 C8 1_555 1_555
O6 C9 1_555 1_555
O7 C9 1_555 1_555
C1 C2 1_555 1_555
C2 H3 1_555 1_555
C3 C2 1_555 1_555
C4 C3 1_555 1_555
H4 C4 1_555 1_555
C5 C4 1_555 1_555
C6 C1 1_555 1_555
H5 C6 1_555 1_555
C7 O2 1_555 1_555
C8 C3 1_555 1_555
C9 C5 1_555 1_555
N1 Cd2 1_555 1_555
N2 Cd1 1_555 1_555
N3 N2 1_555 1_555
N4 N3 1_555 1_555
N5 H6 1_555 1_555
H7 N5 1_555 1_555
C10 N1 1_555 1_555
O8 H8 1_555 1_555
H9 O8 1_555 1_555
Cd1A O4 1_555 1_555
Cd1_2 O7A 1_555 1_555
Cd1_3 O7 1_555 1_555
Cd1A_2 O7A 1_555 1_555
Cd1A_3 O7 1_555 1_555
Cd2A O1A 1_555 1_555
Cd2_2 N4 1_555 1_555
Cd2_3 O6A 1_555 1_555
Cd2_4 O3A 1_555 1_555
Cd2A_2 O3 1_555 1_555
Cd2A_3 O6 1_555 1_555
Cd2A_4 N4A 1_555 1_555
O1A H1A 1_555 1_555
H2A O1A 1_555 1_555
O2A Cd1A 1_555 1_555
O3A C7A 1_555 1_555
O3_2 Cd2A 1_555 1_555
O3A_2 Cd2 1_555 1_555
O4A Cd1 1_555 1_555
O5A Cd1 1_555 1_555
O6A C9A 1_555 1_555
O6_2 Cd2A 1_555 1_555
O6A_2 Cd2 1_555 1_555
O7A C9A 1_555 1_555
O7_2 Cd1 1_555 1_555
O7_3 Cd1A 1_555 1_555
O7A_2 Cd1 1_555 1_555
O7A_3 Cd1A 1_555 1_555
C1A C2A 1_555 1_555
C2A H3A 1_555 1_555
C3A C2A 1_555 1_555
C4A C3A 1_555 1_555
H4A C4A 1_555 1_555
C5A C4A 1_555 1_555
C6A C1A 1_555 1_555
H5A C6A 1_555 1_555
C7A O2A 1_555 1_555
C8A O4A 1_555 1_555
C9A C5A 1_555 1_555
N1A Cd2A 1_555 1_555
N2A Cd1A 1_555 1_555
N3A N2A 1_555 1_555
N4A N3A 1_555 1_555
N4_2 Cd2 1_555 1_555
N4A_2 Cd2A 1_555 1_555
N5A H6A 1_555 1_555
H7A N5A 1_555 1_555
C10A N1A 1_555 1_555
O5 Cd1A 1_555 1_555
C1 C7 1_555 1_555
C5 C6 1_555 1_555
N1 N2 1_555 1_555
N4 C10 1_555 1_555
N5 C10 1_555 1_555
Cd2A O2A 1_555 1_555
O5A C8A 1_555 1_555
C1A C7A 1_555 1_555
C3A C8A 1_555 1_555
C5A C6A 1_555 1_555
N1A N2A 1_555 1_555
N4A C10A 1_555 1_555
N5A C10A 1_555 1_555

#END
