
#######################################################################
#
#                 Cambridge Crystallographic Data Centre
#                                CCDC 
#
#######################################################################
#
# If this CIF has been generated from an entry in the Cambridge 
# Structural Database, then it will include bibliographic, chemical, 
# crystal, experimental, refinement or atomic coordinate data resulting 
# from the CCDC's data processing and validation procedures.
#
#######################################################################

data_XEHXOX
_symmetry_cell_setting           orthorhombic
_symmetry_space_group_name_H-M   'P 21 21 21'
_symmetry_Int_Tables_number      19
_space_group_name_Hall           'P 2ac 2ab'
loop_
_symmetry_equiv_pos_site_id
_symmetry_equiv_pos_as_xyz
1 x,y,z
2 1/2-x,-y,1/2+z
3 1/2+x,1/2-y,-z
4 -x,1/2+y,1/2-z
_cell_length_a                   8.60860(10)
_cell_length_b                   13.4156(3)
_cell_length_c                   28.6587(6)
_cell_angle_alpha                90
_cell_angle_beta                 90
_cell_angle_gamma                90
_cell_volume                     3309.78
loop_
_atom_site_label
_atom_site_type_symbol
_atom_site_fract_x
_atom_site_fract_y
_atom_site_fract_z
Ag1 Ag -0.97041(8) 0.33311(5) 0.59163(2)
Ir1 Ir -1.88524(3) 0.47707(2) 0.976460(10)
C1 C -1.7214(9) 0.4501(6) 0.9297(3)
N1 N -1.6299(8) 0.4267(5) 0.9022(2)
C2 C -1.7159(9) 0.5172(6) 1.0199(3)
N2 N -1.6177(9) 0.5402(5) 1.0455(2)
C3 C -1.9027(9) 0.6194(7) 0.9565(3)
N3 N -1.9238(8) 0.7005(5) 0.9457(2)
C4 C -2.0287(13) 0.3945(10) 1.0282(3)
C5 C -2.1216(12) 0.4652(8) 1.0036(6)
C6 C -2.1291(10) 0.4481(9) 0.9629(4)
C7 C -2.0419(13) 0.3596(8) 0.9504(3)
C8 C -1.9727(11) 0.3275(7) 0.9930(5)
C9 C -2.2144(17) 0.5450(11) 1.0311(7)
H1 H -2.174(14) 0.5496(94) 1.0629(19)
H2 H -2.3243(38) 0.5261(70) 1.0321(55)
H3 H -2.204(17) 0.6098(30) 1.0156(35)
C10 C -2.2331(16) 0.4936(13) 0.9257(6)
H4 H -2.3346(62) 0.4605(79) 0.9261(36)
H5 H -2.1851(87) 0.4847(98) 0.8949(8)
H6 H -2.247(14) 0.5649(28) 0.9319(30)
C11 C -2.0268(23) 0.3038(13) 0.9054(5)
H7 H -1.9173(35) 0.288(11) 0.8997(29)
H8 H -2.066(18) 0.3451(53) 0.8797(10)
H9 H -2.087(17) 0.2419(65) 0.9071(23)
C12 C -1.8812(16) 0.2306(9) 0.9997(9)
H10 H -1.827(17) 0.2140(74) 0.9707(20)
H11 H -1.9530(32) 0.1766(33) 1.0078(67)
H12 H -1.806(15) 0.2393(47) 1.0249(43)
C13 C -1.9924(20) 0.3876(17) 1.0798(4)
H13 H -2.0895(22) 0.382(17) 1.0974(7)
H14 H -1.936(23) 0.4477(78) 1.0896(18)
H15 H -1.928(21) 0.3288(95) 1.0856(12)
Ag2 Ag -1.53831(8) 0.36465(5) 0.83732(2)
Ir2 Ir -1.04423(4) 0.20805(2) 0.759130(10)
C14 C -1.2187(10) 0.2862(6) 0.7888(3)
N4 N -1.3261(10) 0.3203(6) 0.8060(3)
C15 C -1.0495(10) 0.2947(6) 0.7024(3)
N5 N -1.0508(9) 0.3377(5) 0.6679(2)
C16 C -0.8785(11) 0.2937(6) 0.7837(3)
N6 N -0.7646(9) 0.3335(6) 0.7984(3)
C17 C -0.9109(9) 0.0746(6) 0.7398(3)
C18 C -0.9370(13) 0.0704(6) 0.7889(4)
C19 C -1.0965(11) 0.0686(6) 0.7969(3)
C20 C -1.1747(10) 0.0662(6) 0.7523(3)
C21 C -1.0577(10) 0.0677(6) 0.7178(3)
C22 C -1.0838(13) 0.0605(6) 0.6659(3)
H16 H -1.1922(22) 0.0768(45) 0.6588(4)
H17 H -1.0610(72) -0.0074(14) 0.6554(5)
H18 H -1.0151(53) 0.1076(35) 0.6498(3)
C23 C -0.7544(12) 0.0728(7) 0.7156(4)
H19 H -0.7122(44) 0.0050(14) 0.7164(24)
H20 H -0.6830(29) 0.1182(45) 0.7316(17)
H21 H -0.7670(18) 0.0940(56) 0.6831(8)
C24 C -0.8064(14) 0.0687(8) 0.8255(4)
H22 H -0.7076(20) 0.0860(57) 0.8106(7)
H23 H -0.7989(62) 0.0019(17) 0.8391(20)
H24 H -0.8295(46) 0.1171(42) 0.8502(14)
C25 C -1.1746(16) 0.0591(7) 0.8442(3)
H25 H -1.2296(80) -0.0047(28) 0.8460(11)
H26 H -1.2487(67) 0.1138(35) 0.8484(12)
H27 H -1.0958(18) 0.0621(58) 0.8689(3)
C26 C -1.3471(9) 0.0549(7) 0.7457(4)
H28 H -1.4018(9) 0.1003(32) 0.7670(15)
H29 H -1.3775(14) -0.0139(13) 0.7526(20)
H30 H -1.3745(13) 0.0711(42) 0.7134(6)
N7 N -0.7087(9) 0.2858(6) 0.6124(3)
C27 C -0.6190(13) 0.2600(7) 0.5769(4)
H31 H -0.6653(13) 0.2555(7) 0.5469(4)
C28 C -0.6454(13) 0.2979(8) 0.6542(4)
H32 H -0.7077(13) 0.3185(8) 0.6798(4)
C29 C -0.4621(14) 0.2391(8) 0.5806(5)
H33 H -0.4025(14) 0.2187(8) 0.5544(5)
C30 C -0.3987(13) 0.2490(8) 0.6230(5)
H34 H -0.2916(13) 0.2341(8) 0.6271(5)
C31 C -0.4845(14) 0.2800(8) 0.6607(5)
H35 H -0.4373(14) 0.2892(8) 0.6903(5)
Ag1A Ag -1.52959(8) 0.66689(5) 1.09163(2)
N2A N -0.8823(9) 0.4598(5) 0.5455(2)
N3C N -1.0762(8) 0.2005(5) 0.5543(2)
Ag2_2 Ag -0.53831(8) 0.36465(5) 0.83732(2)
N6_2 N -1.7646(9) 0.3335(6) 0.7984(3)
Ag1C Ag -2.02959(8) 0.83311(5) 0.90837(2)
loop_
_geom_bond_atom_site_label_1
_geom_bond_atom_site_label_2
_geom_bond_site_symmetry_1
_geom_bond_site_symmetry_2
Ag1 N5 1_555 1_555
Ir1 C1 1_555 1_555
C1 N1 1_555 1_555
N1 Ag2 1_555 1_555
C2 Ir1 1_555 1_555
N2 C2 1_555 1_555
C3 Ir1 1_555 1_555
N3 C3 1_555 1_555
C4 Ir1 1_555 1_555
C5 Ir1 1_555 1_555
C6 Ir1 1_555 1_555
C7 Ir1 1_555 1_555
C8 Ir1 1_555 1_555
C9 C5 1_555 1_555
H1 C9 1_555 1_555
H2 C9 1_555 1_555
H3 C9 1_555 1_555
C10 C6 1_555 1_555
H4 C10 1_555 1_555
H5 C10 1_555 1_555
H6 C10 1_555 1_555
C11 C7 1_555 1_555
H7 C11 1_555 1_555
H8 C11 1_555 1_555
H9 C11 1_555 1_555
C12 C8 1_555 1_555
H10 C12 1_555 1_555
H11 C12 1_555 1_555
H12 C12 1_555 1_555
C13 C4 1_555 1_555
H13 C13 1_555 1_555
H14 C13 1_555 1_555
H15 C13 1_555 1_555
Ag2 N4 1_555 1_555
Ir2 C14 1_555 1_555
C14 N4 1_555 1_555
C15 Ir2 1_555 1_555
N5 C15 1_555 1_555
C16 Ir2 1_555 1_555
N6 C16 1_555 1_555
C17 Ir2 1_555 1_555
C18 Ir2 1_555 1_555
C19 Ir2 1_555 1_555
C20 Ir2 1_555 1_555
C21 Ir2 1_555 1_555
C22 C21 1_555 1_555
H16 C22 1_555 1_555
H17 C22 1_555 1_555
H18 C22 1_555 1_555
C23 C17 1_555 1_555
H19 C23 1_555 1_555
H20 C23 1_555 1_555
H21 C23 1_555 1_555
C24 C18 1_555 1_555
H22 C24 1_555 1_555
H23 C24 1_555 1_555
H24 C24 1_555 1_555
C25 C19 1_555 1_555
H25 C25 1_555 1_555
H26 C25 1_555 1_555
H27 C25 1_555 1_555
C26 C20 1_555 1_555
H28 C26 1_555 1_555
H29 C26 1_555 1_555
H30 C26 1_555 1_555
N7 Ag1 1_555 1_555
C27 N7 1_555 1_555
H31 C27 1_555 1_555
C28 N7 1_555 1_555
H32 C28 1_555 1_555
C29 C27 1_555 1_555
H33 C29 1_555 1_555
C30 C29 1_555 1_555
H34 C30 1_555 1_555
C31 C28 1_555 1_555
H35 C31 1_555 1_555
Ag1A N2 1_555 1_555
N2A Ag1 1_555 1_555
N3C Ag1 1_555 1_555
Ag2_2 N6 1_555 1_555
N6_2 Ag2 1_555 1_555
Ag1C N3 1_555 1_555
C4 C5 1_555 1_555
C4 C8 1_555 1_555
C5 C6 1_555 1_555
C6 C7 1_555 1_555
C7 C8 1_555 1_555
C17 C18 1_555 1_555
C17 C21 1_555 1_555
C18 C19 1_555 1_555
C19 C20 1_555 1_555
C20 C21 1_555 1_555
C30 C31 1_555 1_555

#END
