
#######################################################################
#
#                 Cambridge Crystallographic Data Centre
#                                CCDC 
#
#######################################################################
#
# If this CIF has been generated from an entry in the Cambridge 
# Structural Database, then it will include bibliographic, chemical, 
# crystal, experimental, refinement or atomic coordinate data resulting 
# from the CCDC's data processing and validation procedures.
#
#######################################################################

data_XEHYEP
_symmetry_cell_setting           orthorhombic
_symmetry_space_group_name_H-M   'C m c m'
_symmetry_Int_Tables_number      63
_space_group_name_Hall           '-C 2n 2'
loop_
_symmetry_equiv_pos_site_id
_symmetry_equiv_pos_as_xyz
1 x,y,z
2 1/2+x,1/2+y,z
3 x,-y,-z
4 1/2+x,1/2-y,-z
5 -x,y,1/2-z
6 1/2-x,1/2+y,1/2-z
7 -x,-y,1/2+z
8 1/2-x,1/2-y,1/2+z
9 -x,-y,-z
10 1/2-x,1/2-y,-z
11 -x,y,z
12 1/2-x,1/2+y,z
13 x,-y,1/2+z
14 1/2+x,1/2-y,1/2+z
15 x,y,1/2-z
16 1/2+x,1/2+y,1/2-z
_cell_length_a                   14.4248(13)
_cell_length_b                   6.9702(6)
_cell_length_c                   11.4792(10)
_cell_angle_alpha                90
_cell_angle_beta                 90
_cell_angle_gamma                90
_cell_volume                     1154.16
loop_
_atom_site_label
_atom_site_type_symbol
_atom_site_fract_x
_atom_site_fract_y
_atom_site_fract_z
Zn1 Zn 0.00000 0.32307(8) 0.75000
V1 V 0.21209(3) 0.36424(6) 0.60284(3)
O1 O 0.22868(15) 0.3709(3) 0.43021(18)
O2 O 0.10133(13) 0.3231(3) 0.62082(15)
O3 O 0.25693(18) 0.3816(4) 0.75000
N1 N 0.00000 0.0193(6) 0.75000
N2 N 0.00000 -0.3744(6) 0.75000
C1 C 0.00000 -0.0786(6) 0.8441(4)
C2 C 0.00000 -0.2754(7) 0.8457(4)
H1 H 0.000 -0.011 0.917
H2 H 0.000 -0.342 0.919
Zn1_2 Zn 0.00000 -0.67693(8) 0.75000
V1J V -0.21209(3) 0.36424(6) 0.60284(3)
V1N V 0.21209(3) 0.36424(6) 0.89716(3)
V1D V -0.21209(3) 0.36424(6) 0.89716(3)
V1I V 0.28791(3) 0.13576(6) 0.39716(3)
V1B V 0.21209(3) 0.63576(6) 0.39716(3)
V1K V 0.28791(3) -0.13576(6) 0.60284(3)
V1K_2 V 0.28791(3) 0.86424(6) 0.60284(3)
V1H V -0.21209(3) 0.63576(6) 0.39716(3)
V1C V -0.28791(3) 0.13576(6) 0.39716(3)
O1I O 0.27132(15) 0.1291(3) 0.56979(18)
O1B O 0.22868(15) 0.6291(3) 0.56979(18)
O1J O -0.22868(15) 0.3709(3) 0.43021(18)
O1H O -0.22868(15) 0.6291(3) 0.56979(18)
O1C O -0.27132(15) 0.1291(3) 0.56979(18)
O1L O 0.22868(15) 0.6291(3) 0.93021(18)
O1N O 0.22868(15) 0.3709(3) 1.06979(18)
O1G O 0.27132(15) 0.1291(3) 0.93021(18)
O1M O -0.27132(15) 0.1291(3) 0.93021(18)
O1D O -0.22868(15) 0.3709(3) 1.06979(18)
O1F O -0.22868(15) 0.6291(3) 0.93021(18)
O2J O -0.10133(13) 0.3231(3) 0.62082(15)
O2N O 0.10133(13) 0.3231(3) 0.87918(15)
O2D O -0.10133(13) 0.3231(3) 0.87918(15)
O3J O -0.25693(18) 0.3816(4) 0.75000
N2_2 N 0.00000 0.6256(6) 0.75000
C1N C 0.00000 -0.0786(6) 0.6559(4)
C2N C 0.00000 -0.2754(7) 0.6543(4)
H1N H 0.000 -0.011 0.583
H2N H 0.000 -0.342 0.581
loop_
_geom_bond_atom_site_label_1
_geom_bond_atom_site_label_2
_geom_bond_site_symmetry_1
_geom_bond_site_symmetry_2
Zn1 O2 1_555 1_555
V1 O1 1_555 1_555
O1 V1I 1_555 1_555
O2 V1 1_555 1_555
O3 V1 1_555 1_555
N1 Zn1 1_555 1_555
N2 C2 1_555 1_555
C1 N1 1_555 1_555
C2 C1 1_555 1_555
H1 C1 1_555 1_555
H2 C2 1_555 1_555
Zn1_2 N2 1_555 1_555
V1J O1J 1_555 1_555
V1N O3 1_555 1_555
V1D O1M 1_555 1_555
V1I O1I 1_555 1_555
V1B O1 1_555 1_555
V1K O1I 1_555 1_555
V1K_2 O1B 1_555 1_555
V1H O1J 1_555 1_555
V1C O1J 1_555 1_555
O1I V1 1_555 1_555
O1B V1 1_555 1_555
O1H V1J 1_555 1_555
O1C V1J 1_555 1_555
O1L V1N 1_555 1_555
O1N V1N 1_555 1_555
O1G V1N 1_555 1_555
O1D V1D 1_555 1_555
O1F V1D 1_555 1_555
O2J Zn1 1_555 1_555
O2N Zn1 1_555 1_555
O2D Zn1 1_555 1_555
O3J V1J 1_555 1_555
N2_2 Zn1 1_555 1_555
C1N N1 1_555 1_555
C2N N2 1_555 1_555
H1N C1N 1_555 1_555
H2N C2N 1_555 1_555
V1J O2J 1_555 1_555
V1N O2N 1_555 1_555
V1D O2D 1_555 1_555
V1D O3J 1_555 1_555
V1B O1B 1_555 1_555
V1H O1H 1_555 1_555
V1C O1C 1_555 1_555
C1N C2N 1_555 1_555

#END
