
#######################################################################
#
#                 Cambridge Crystallographic Data Centre
#                                CCDC 
#
#######################################################################
#
# If this CIF has been generated from an entry in the Cambridge 
# Structural Database, then it will include bibliographic, chemical, 
# crystal, experimental, refinement or atomic coordinate data resulting 
# from the CCDC's data processing and validation procedures.
#
#######################################################################

data_XEJBOF
_symmetry_cell_setting           monoclinic
_symmetry_space_group_name_H-M   'C 2/c'
_symmetry_Int_Tables_number      15
_space_group_name_Hall           '-C 2yn'
loop_
_symmetry_equiv_pos_site_id
_symmetry_equiv_pos_as_xyz
1 x,y,z
2 1/2+x,1/2+y,z
3 -x,y,1/2-z
4 1/2-x,1/2+y,1/2-z
5 -x,-y,-z
6 1/2-x,1/2-y,-z
7 x,-y,1/2+z
8 1/2+x,1/2-y,1/2+z
_cell_length_a                   28.8105(12)
_cell_length_b                   15.6426(4)
_cell_length_c                   23.5338(8)
_cell_angle_alpha                90
_cell_angle_beta                 118.865(5)
_cell_angle_gamma                90
_cell_volume                     9288.31
loop_
_atom_site_label
_atom_site_type_symbol
_atom_site_fract_x
_atom_site_fract_y
_atom_site_fract_z
O14 O 0.43667(16) 0.7337(3) 0.53675(18)
H32 H 0.4112 0.6999 0.5266
C35 C 0.4342(3) 0.7981(5) 0.5751(4)
H33 H 0.4692 0.8248 0.5995
H34 H 0.4234 0.7742 0.6054
H35 H 0.4084 0.8411 0.5476
O15 O 0.34732(15) 0.6320(3) 0.49662(16)
H36 H 0.3328 0.6154 0.4579
C36 C 0.3716(2) 0.5594(5) 0.5395(2)
H37 H 0.3818 0.5164 0.5174
H38 H 0.3462 0.5343 0.5512
H39 H 0.4031 0.5785 0.5789
O16 O 0.10444(14) 0.5680(2) 0.16480(14)
H40 H 0.1356 0.5720 0.1954
C37 C 0.0693(2) 0.5570(4) 0.1903(3)
H41 H 0.0832 0.5129 0.2241
H42 H 0.0344 0.5394 0.1555
H43 H 0.0659 0.6111 0.2090
Er1 Er 0.254936(10) 0.050547(15) 0.667884(10)
K1 K 0.16893(4) 0.41310(7) 0.53722(5)
K2 K 0.28307(5) 0.35059(7) 0.76618(5)
K3 K 0.29720(5) 0.26082(7) 0.60466(5)
O1 O 0.24790(13) 0.20485(19) 0.67431(13)
O2 O 0.19903(14) 0.3233(2) 0.64353(14)
O3 O 0.18620(12) -0.0570(2) 0.62328(12)
O4 O 0.23166(12) 0.02711(19) 0.75223(12)
O5 O 0.25737(14) 0.0160(2) 0.85874(13)
O6 O 0.33511(13) 0.1080(2) 0.67279(13)
O7 O 0.22935(13) 0.1054(2) 0.55933(13)
O8 O 0.24158(13) 0.1010(2) 0.47265(13)
O9 O 0.29993(12) -0.07564(19) 0.72201(12)
N1 N 0.16448(17) 0.1070(3) 0.62771(16)
N2 N 0.32119(16) 0.0998(2) 0.77629(15)
N3 N 0.27558(14) -0.0428(3) 0.60025(15)
C1 C 0.2038(2) 0.2442(3) 0.6495(2)
C2 C 0.1557(2) 0.1901(3) 0.6282(2)
C3 C 0.1054(2) 0.2224(4) 0.6125(2)
H1 H 0.1000 0.2823 0.6128
C4 C 0.0645(2) 0.1676(4) 0.5971(2)
H2 H 0.0305 0.1888 0.5868
C5 C 0.0730(2) 0.0778(3) 0.5965(2)
C6 C 0.0341(2) 0.0152(4) 0.5821(2)
H3 H -0.0009 0.0313 0.5716
C7 C 0.0468(2) -0.0692(4) 0.5833(2)
H4 H 0.0205 -0.1112 0.5748
C8 C 0.0974(2) -0.0953(4) 0.5966(2)
H5 H 0.1044 -0.1546 0.5959
C9 C 0.1377(2) -0.0365(3) 0.61097(19)
C10 C 0.12412(18) 0.0520(4) 0.61118(18)
C11 C 0.26357(19) 0.0412(3) 0.81231(19)
C12 C 0.31249(19) 0.0913(3) 0.8270(2)
C13 C 0.3474(2) 0.1235(3) 0.8878(2)
H6 H 0.3402 0.1173 0.9229
C14 C 0.3922(2) 0.1642(3) 0.8965(2)
H7 H 0.4161 0.1867 0.9380
C15 C 0.4038(2) 0.1737(3) 0.8439(2)
C16 C 0.4483(2) 0.2131(3) 0.8470(2)
H8 H 0.4745 0.2372 0.8867
C17 C 0.4544(2) 0.2170(3) 0.7927(2)
H9 H 0.4851 0.2436 0.7955
C18 C 0.4172(2) 0.1833(3) 0.7340(2)
H10 H 0.4228 0.1880 0.6975
C19 C 0.3724(2) 0.1433(3) 0.7267(2)
C20 C 0.36605(19) 0.1395(3) 0.7845(2)
C21 C 0.24361(18) 0.0689(3) 0.5218(2)
C22 C 0.26438(18) -0.0214(3) 0.54074(19)
C23 C 0.27184(18) -0.0788(3) 0.4992(2)
H11 H 0.2643 -0.0615 0.4569
C24 C 0.2899(2) -0.1586(3) 0.5208(2)
H12 H 0.2942 -0.1980 0.4930
C25 C 0.3024(2) -0.1840(3) 0.5847(2)
C26 C 0.3200(2) -0.2665(3) 0.6115(2)
H13 H 0.3254 -0.3095 0.5867
C27 C 0.3292(2) -0.2836(3) 0.6723(2)
H14 H 0.3403 -0.3395 0.6894
C28 C 0.3228(2) -0.2210(3) 0.7116(2)
H15 H 0.3299 -0.2357 0.7542
C29 C 0.3064(2) -0.1384(3) 0.6887(2)
C30 C 0.29474(19) -0.1216(3) 0.6224(2)
O10 O 0.32428(19) 0.3991(3) 0.68651(19)
H16 H 0.300(2) 0.425(4) 0.664(2)
C31 C 0.3710(3) 0.4426(5) 0.7223(3)
H17 H 0.3654 0.4887 0.7465
H18 H 0.3980 0.4032 0.7527
H19 H 0.3829 0.4669 0.6931
O11 O 0.16468(17) 0.2390(2) 0.48959(18)
H20 H 0.187(2) 0.201(4) 0.512(2)
C32 C 0.1119(2) 0.2121(4) 0.4553(3)
H21 H 0.0966 0.2106 0.4845
H22 H 0.1104 0.1548 0.4376
H23 H 0.0917 0.2520 0.4196
O12 O 0.07721(14) 0.4448(3) 0.53706(17)
H24 H 0.0878(18) 0.439(4) 0.578(2)
C33 C 0.0288(2) 0.4003(4) 0.5016(3)
H25 H 0.0019 0.4255 0.5105
H26 H 0.0173 0.4045 0.4551
H27 H 0.0339 0.3401 0.5146
O13 O 0.12259(16) 0.4282(3) 0.40537(16)
H28 H 0.1320(19) 0.419(3) 0.380(2)
C34 C 0.0820(2) 0.4897(4) 0.3724(3)
H29 H 0.0698 0.4866 0.3258
H30 H 0.0523 0.4779 0.3805
H31 H 0.0960 0.5470 0.3884
K1C K 0.33107(4) -0.08690(7) 0.96278(5)
K1E K 0.33107(4) 0.08690(7) 0.46278(5)
K2C K 0.21693(5) -0.14941(7) 0.73382(5)
K3E K 0.20280(5) 0.23918(7) 0.39534(5)
O3C O 0.31380(12) 0.4430(2) 0.87672(12)
O4C O 0.26834(12) 0.52711(19) 0.74777(12)
O5C O 0.24263(14) 0.5160(2) 0.64126(13)
O8E O 0.25842(13) 0.3990(2) 0.52735(13)
O9C O 0.20007(12) 0.42436(19) 0.77799(12)
O11E O 0.33532(17) 0.2610(2) 0.51041(18)
H20E H 0.313(2) 0.299(4) 0.488(2)
O17? O 0.4765(5) 0.4374(10) 0.2282(5)
C38? C 0.5073(7) 0.5119(10) 0.2378(8)
C39? C 0.4728(6) 0.5703(9) 0.1853(6)
C40? C 0.5000 0.3577(10) 0.2500
C41? C 0.4676(6) 0.3109(10) 0.2727(7)
loop_
_geom_bond_atom_site_label_1
_geom_bond_atom_site_label_2
_geom_bond_site_symmetry_1
_geom_bond_site_symmetry_2
Er1 O1 1_555 1_555
K1 O2 1_555 1_555
K2 O1 1_555 1_555
K3 O1 1_555 1_555
O1 C1 1_555 1_555
O2 K2 1_555 1_555
O3 Er1 1_555 1_555
O4 Er1 1_555 1_555
O5 C11 1_555 1_555
O6 Er1 1_555 1_555
O7 Er1 1_555 1_555
O8 C21 1_555 1_555
O9 Er1 1_555 1_555
N1 Er1 1_555 1_555
N2 Er1 1_555 1_555
N3 Er1 1_555 1_555
C1 O2 1_555 1_555
C2 N1 1_555 1_555
C3 C2 1_555 1_555
H1 C3 1_555 1_555
C4 C3 1_555 1_555
H2 C4 1_555 1_555
C5 C4 1_555 1_555
C6 C5 1_555 1_555
H3 C6 1_555 1_555
C7 C6 1_555 1_555
H4 C7 1_555 1_555
C8 C7 1_555 1_555
H5 C8 1_555 1_555
C9 O3 1_555 1_555
C10 N1 1_555 1_555
C11 O4 1_555 1_555
C12 N2 1_555 1_555
C13 C12 1_555 1_555
H6 C13 1_555 1_555
C14 C13 1_555 1_555
H7 C14 1_555 1_555
C15 C14 1_555 1_555
C16 C15 1_555 1_555
H8 C16 1_555 1_555
C17 C16 1_555 1_555
H9 C17 1_555 1_555
C18 C17 1_555 1_555
H10 C18 1_555 1_555
C19 O6 1_555 1_555
C20 N2 1_555 1_555
C21 O7 1_555 1_555
C22 N3 1_555 1_555
C23 C22 1_555 1_555
H11 C23 1_555 1_555
C24 C23 1_555 1_555
H12 C24 1_555 1_555
C25 C24 1_555 1_555
C26 C25 1_555 1_555
H13 C26 1_555 1_555
C27 C26 1_555 1_555
H14 C27 1_555 1_555
C28 C27 1_555 1_555
H15 C28 1_555 1_555
C29 O9 1_555 1_555
C30 N3 1_555 1_555
O10 K2 1_555 1_555
H16 O10 1_555 1_555
C31 O10 1_555 1_555
H17 C31 1_555 1_555
H18 C31 1_555 1_555
H19 C31 1_555 1_555
O11 K1 1_555 1_555
H20 O11 1_555 1_555
C32 O11 1_555 1_555
H21 C32 1_555 1_555
H22 C32 1_555 1_555
H23 C32 1_555 1_555
O12 K1 1_555 1_555
H24 O12 1_555 1_555
C33 O12 1_555 1_555
H25 C33 1_555 1_555
H26 C33 1_555 1_555
H27 C33 1_555 1_555
O13 K1 1_555 1_555
H28 O13 1_555 1_555
C34 O13 1_555 1_555
H29 C34 1_555 1_555
H30 C34 1_555 1_555
H31 C34 1_555 1_555
O14 H32 1_555 1_555
C35 O14 1_555 1_555
H33 C35 1_555 1_555
H34 C35 1_555 1_555
H35 C35 1_555 1_555
O15 H36 1_555 1_555
C36 O15 1_555 1_555
H37 C36 1_555 1_555
H38 C36 1_555 1_555
H39 C36 1_555 1_555
O16 H40 1_555 1_555
C37 O16 1_555 1_555
H41 C37 1_555 1_555
H42 C37 1_555 1_555
H43 C37 1_555 1_555
K1C O5 1_555 1_555
K1E O8 1_555 1_555
K2C O3 1_555 1_555
K3E O8 1_555 1_555
O3C K2 1_555 1_555
O4C K2 1_555 1_555
O5C K1 1_555 1_555
O8E K1 1_555 1_555
O9C K2 1_555 1_555
O11E K3 1_555 1_555
H20E O11E 1_555 1_555
K3 O6 1_555 1_555
K3 O10 1_555 1_555
K3 O8E 1_555 1_555
O4 K2C 1_555 1_555
O9 K2C 1_555 1_555
C1 C2 1_555 1_555
C5 C10 1_555 1_555
C8 C9 1_555 1_555
C9 C10 1_555 1_555
C11 C12 1_555 1_555
C15 C20 1_555 1_555
C18 C19 1_555 1_555
C19 C20 1_555 1_555
C21 C22 1_555 1_555
C25 C30 1_555 1_555
C28 C29 1_555 1_555
C29 C30 1_555 1_555
O11 K3E 1_555 1_555
K1E O11E 1_555 1_555

#END
