
#######################################################################
#
#                 Cambridge Crystallographic Data Centre
#                                CCDC 
#
#######################################################################
#
# If this CIF has been generated from an entry in the Cambridge 
# Structural Database, then it will include bibliographic, chemical, 
# crystal, experimental, refinement or atomic coordinate data resulting 
# from the CCDC's data processing and validation procedures.
#
#######################################################################

data_XEJJIG
_symmetry_cell_setting           triclinic
_symmetry_space_group_name_H-M   'P -1'
_symmetry_Int_Tables_number      2
_space_group_name_Hall           '-P 1'
loop_
_symmetry_equiv_pos_site_id
_symmetry_equiv_pos_as_xyz
1 x,y,z
2 -x,-y,-z
_cell_length_a                   7.707(4)
_cell_length_b                   9.686(4)
_cell_length_c                   10.570(4)
_cell_angle_alpha                106.650(11)
_cell_angle_beta                 105.252(14)
_cell_angle_gamma                100.689(13)
_cell_volume                     699.696
loop_
_atom_site_label
_atom_site_type_symbol
_atom_site_fract_x
_atom_site_fract_y
_atom_site_fract_z
Gd1 Gd -0.75327(4) -0.96817(3) -0.54917(3)
O1 O -0.4033(4) -0.8430(3) -0.4158(3)
O2 O -0.5881(4) -0.7012(3) -0.4443(3)
O3 O -0.0667(4) -0.1394(3) 0.4033(3)
O4 O 0.0419(4) -0.1713(4) 0.2274(3)
O5 O -0.3944(4) -0.0667(3) -0.2890(3)
O6 O -0.6854(4) -0.0403(4) -0.3428(3)
O7 O -0.9644(4) -0.8574(3) -0.6787(3)
C1 C -0.3100(6) -0.4589(5) -0.2064(5)
C2 C -0.2599(6) -0.4478(5) -0.0661(5)
H1 H -0.1871 -0.5088 -0.0359
C3 C -0.3137(6) -0.3501(5) 0.0301(5)
C4 C -0.4252(6) -0.2633(5) -0.0152(5)
H2 H -0.4653 -0.1978 0.0496
C5 C -0.4778(6) -0.2720(5) -0.1542(5)
C6 C -0.4180(6) -0.3705(5) -0.2495(5)
H3 H -0.4522 -0.3762 -0.3444
C7 C -0.2625(7) -0.5725(5) -0.3112(5)
H4 H -0.1547 -0.6011 -0.2617
H5 H -0.2246 -0.5272 -0.3761
C8 C -0.4271(7) -0.7127(6) -0.3952(5)
C9 C -0.2575(7) -0.3349(6) 0.1817(5)
H6 H -0.3627 -0.3194 0.2160
H7 H -0.2353 -0.4300 0.1896
C10 C -0.0867(7) -0.2093(5) 0.2735(5)
C11 C -0.6141(7) -0.1901(5) -0.2044(5)
H8 H -0.6351 -0.1252 -0.1219
H9 H -0.7354 -0.2653 -0.2650
C12 C -0.5556(6) -0.0925(5) -0.2860(5)
Gd1A Gd -0.24673(4) -1.03183(3) -0.45083(3)
Gd1A_2 Gd -0.24673(4) -0.03183(3) -0.45083(3)
Gd1_2 Gd -0.75327(4) 0.03183(3) -0.54917(3)
Gd1_3 Gd 0.24673(4) 0.03183(3) 0.45083(3)
Gd1A_3 Gd -0.24673(4) -0.03183(3) 0.54917(3)
O1A O -0.5967(4) -1.1570(3) -0.5842(3)
O3_2 O -1.0667(4) -1.1394(3) -0.5967(3)
O3A O -0.9333(4) -0.8606(3) -0.4033(3)
O4_2 O -0.9581(4) -1.1713(4) -0.7726(3)
O5A O -0.6056(4) -0.9333(3) -0.7110(3)
O6_2 O -0.6854(4) -1.0403(4) -0.3428(3)
O8 O -0.9259(5) -1.1280(5) -1.0332(4)
O9 O -0.8613(14) -0.5435(11) -0.4460(10)
loop_
_geom_bond_atom_site_label_1
_geom_bond_atom_site_label_2
_geom_bond_site_symmetry_1
_geom_bond_site_symmetry_2
Gd1 O1 1_555 1_555
O1 C8 1_555 1_555
O2 Gd1 1_555 1_555
O3 C10 1_555 1_555
O4 C10 1_555 1_555
O5 C12 1_555 1_555
O6 C12 1_555 1_555
O7 Gd1 1_555 1_555
C1 C2 1_555 1_555
C2 H1 1_555 1_555
C3 C2 1_555 1_555
C4 C3 1_555 1_555
H2 C4 1_555 1_555
C5 C4 1_555 1_555
C6 C1 1_555 1_555
H3 C6 1_555 1_555
C7 C1 1_555 1_555
H4 C7 1_555 1_555
H5 C7 1_555 1_555
C8 O2 1_555 1_555
C9 C3 1_555 1_555
H6 C9 1_555 1_555
H7 C9 1_555 1_555
C10 C9 1_555 1_555
C11 C5 1_555 1_555
H8 C11 1_555 1_555
H9 C11 1_555 1_555
C12 C11 1_555 1_555
Gd1A O1 1_555 1_555
Gd1A_2 O5 1_555 1_555
Gd1_2 O6 1_555 1_555
Gd1_3 O3 1_555 1_555
Gd1A_3 O3 1_555 1_555
O1A Gd1 1_555 1_555
O3_2 Gd1 1_555 1_555
O3A Gd1 1_555 1_555
O4_2 Gd1 1_555 1_555
O5A Gd1 1_555 1_555
O6_2 Gd1 1_555 1_555
O4 Gd1_3 1_555 1_555
C5 C6 1_555 1_555
C7 C8 1_555 1_555
Gd1A O1A 1_555 1_555

#END
