
#######################################################################
#
#                 Cambridge Crystallographic Data Centre
#                                CCDC 
#
#######################################################################
#
# If this CIF has been generated from an entry in the Cambridge 
# Structural Database, then it will include bibliographic, chemical, 
# crystal, experimental, refinement or atomic coordinate data resulting 
# from the CCDC's data processing and validation procedures.
#
#######################################################################

data_XEJNIL
_symmetry_cell_setting           triclinic
_symmetry_space_group_name_H-M   'P -1'
_symmetry_Int_Tables_number      2
_space_group_name_Hall           '-P 1'
loop_
_symmetry_equiv_pos_site_id
_symmetry_equiv_pos_as_xyz
1 x,y,z
2 -x,-y,-z
_cell_length_a                   13.6842(15)
_cell_length_b                   15.8378(17)
_cell_length_c                   17.4990(18)
_cell_angle_alpha                96.651(2)
_cell_angle_beta                 109.062(2)
_cell_angle_gamma                114.164(2)
_cell_volume                     3130.58
loop_
_atom_site_label
_atom_site_type_symbol
_atom_site_fract_x
_atom_site_fract_y
_atom_site_fract_z
O1 O 1.1477(3) 0.7279(3) 0.8190(3)
C1 C 1.1835(6) 1.0445(4) 0.6411(4)
H1 H 1.2560 1.0867 0.6428
C2 C 1.1687(5) 0.9635(4) 0.6657(4)
C3 C 1.0595(5) 0.8957(4) 0.6652(4)
C4 C 0.5728(5) 0.3921(4) 0.7855(4)
C5 C 0.8768(5) 0.4429(4) 0.7207(4)
C6 C 0.5899(5) 0.4895(4) 0.6942(4)
C7 C 0.7536(6) 0.3719(4) 0.6598(4)
C8 C 1.1430(5) 0.4519(4) 0.8435(4)
C9 C 1.3165(5) 0.7214(4) 0.9012(4)
C10 C 0.7142(5) 0.5508(4) 0.7450(4)
C11 C 0.9987(5) -0.1075(5) 0.8581(4)
C12 C 1.2512(5) 0.6774(4) 0.7523(4)
C13 C 1.3427(5) 0.6564(4) 0.7609(4)
H2 H 1.3525 0.6350 0.7136
C14 C 0.5218(5) 0.4121(4) 0.7135(4)
H3 H 0.4424 0.3737 0.6786
C15 C 1.0524(6) 0.4803(5) 0.8458(4)
H4 H 1.0484 0.4812 0.9002
H5 H 1.0766 0.5453 0.8406
C16 C 1.1103(6) -0.0205(5) 0.8743(4)
C17 C 1.2304(5) 0.7090(4) 0.8217(4)
C18 C 0.6801(5) 0.2905(5) 0.6760(4)
C19 C 0.9689(5) 0.9215(4) 0.6368(4)
C20 C 0.6886(5) 0.4471(4) 0.8392(4)
H6 H 0.7202 0.4324 0.8883
C21 C 0.7077(7) 0.3901(5) 0.5848(4)
H7 H 0.7554 0.4436 0.5729
C22 C 0.7580(5) 0.5251(4) 0.8193(4)
C23 C 1.4183(5) 0.6679(5) 0.8402(4)
C24 C 0.7025(6) -0.1534(5) 0.8261(5)
C25 C 0.9835(6) 1.0031(5) 0.6117(4)
H8 H 0.9215 1.0171 0.5935
C26 C 0.7872(7) 0.1078(5) 0.6592(5)
C27 C 1.0907(6) 1.0639(4) 0.6137(4)
C28 C 1.4054(6) 0.6996(5) 0.9104(4)
H9 H 1.4566 0.7062 0.9638
C29 C 0.8228(7) 0.0916(5) 0.7452(5)
H10 H 0.7571 0.0362 0.7459
H11 H 0.8871 0.0766 0.7552
C30 C 1.1499(7) 0.4205(6) 0.7715(5)
H12 H 1.0954 0.4150 0.7200
C31 C 0.8530(7) 0.1890(6) 0.6444(5)
H13 H 0.9224 0.2358 0.6889
C32 C 1.2040(6) -0.0378(6) 0.8813(5)
H14 H 1.1947 -0.0999 0.8778
C33 C 0.6868(7) 0.0381(6) 0.5920(6)
H15 H 0.6400 -0.0193 0.5999
C34 C 0.7638(10) 0.1746(6) 0.8330(6)
H16 H 0.7961 0.2283 0.8826
H17 H 0.7270 0.1154 0.8470
C35 C 0.5669(7) 0.2330(6) 0.6179(6)
H18 H 0.5183 0.1786 0.6282
C36 C 1.2265(7) 0.4608(6) 0.9189(5)
H19 H 1.2230 0.4812 0.9695
C37 C 0.7979(6) -0.1804(6) 0.8503(6)
H20 H 0.7799 -0.2331 0.8049
H21 H 0.8021 -0.2027 0.9001
C38 C 1.3116(8) 0.0372(9) 0.8933(5)
H22 H 1.3756 0.0264 0.9006
C39 C 1.3220(10) 0.1264(10) 0.8944(6)
H23 H 1.3931 0.1757 0.8998
C40 C 1.2338(9) 0.1462(7) 0.8879(6)
H24 H 1.2436 0.2079 0.8880
C41 C 1.1248(8) 0.0720(6) 0.8807(5)
C42 C 0.8238(11) 0.2064(8) 0.5684(8)
H25 H 0.8709 0.2644 0.5616
C43 C 0.7253(13) 0.1382(12) 0.5028(7)
H26 H 0.7054 0.1496 0.4504
C44 C 0.6538(10) 0.0526(10) 0.5111(7)
H27 H 0.5860 0.0057 0.4654
C45 C 0.9509(11) 0.1853(7) 0.8941(6)
H28 H 0.9760 0.2455 0.9343
H29 H 0.9142 0.1333 0.9162
C46 C 1.3152(8) 0.4396(7) 0.9201(7)
H30 H 1.3714 0.4470 0.9715
C47 C 1.3213(9) 0.4085(8) 0.8482(9)
H31 H 1.3821 0.3955 0.8497
C48 C 1.2378(9) 0.3961(7) 0.7730(7)
H32 H 1.2391 0.3714 0.7227
C49 C 0.5938(9) 0.3318(7) 0.5275(6)
H33 H 0.5654 0.3457 0.4772
C50 C 0.5234(8) 0.2547(8) 0.5436(7)
H34 H 0.4455 0.2159 0.5052
C51 C 1.0515(10) 0.1840(6) 0.8914(7)
H35 H 1.1189 0.2248 0.9443
H36 H 1.0672 0.2092 0.8463
C52 C 0.6711(7) 0.1815(5) 0.7627(6)
H37 H 0.6401 0.1305 0.7114
H38 H 0.6069 0.1755 0.7778
C53 C 0.6855(7) -0.1035(5) 0.8861(5)
H39 H 0.7337 -0.0875 0.9429
C54 C 0.6013(10) -0.0777(7) 0.8642(9)
H40 H 0.5947 -0.0409 0.9058
C55 C 0.5395(12) -0.1504(12) 0.7245(10)
H41 H 0.4884 -0.1654 0.6686
C56 C 0.6283(9) -0.1785(7) 0.7431(6)
H42 H 0.6360 -0.2128 0.7005
C57 C 0.8552(8) 0.6457(7) 0.5121(6)
H43 H 0.9335 0.6998 0.5311
H44 H 0.7993 0.6645 0.4794
C58 C 0.8460(10) 0.5623(9) 0.4580(6)
H45 H 0.8968 0.5404 0.4912
H46 H 0.8689 0.5809 0.4137
H47 H 0.7663 0.5111 0.4338
C59 C 0.5280(12) -0.1029(12) 0.7857(13)
H48 H 0.4671 -0.0874 0.7725
N1 N 1.2707(5) 0.9473(4) 0.6937(4)
N2 N 0.8531(5) 0.8604(4) 0.6335(4)
N3 N 1.5125(6) 0.6423(5) 0.8493(5)
N4 N 1.3031(6) 0.7551(6) 0.9762(4)
N5 N 1.1724(5) 0.6637(4) 0.6663(3)
N6 N 0.5306(6) 0.5122(5) 0.6211(4)
N7 N 0.5025(6) 0.3085(4) 0.8073(5)
N8 N 0.8803(5) 0.5807(4) 0.8816(4)
N9 N 1.1066(7) 1.1498(5) 0.5853(5)
N10 N 0.8594(6) 0.1756(4) 0.8138(4)
N11 N 0.9352(4) 0.4158(3) 0.7793(3)
H49 H 0.9024 0.3561 0.7785
N12 N 0.9134(5) -0.0973(4) 0.8683(4)
H50 H 0.9246 -0.0398 0.8862
O2 O 0.7759(5) 0.8756(5) 0.5974(6)
O3 O 0.8371(5) 0.7950(5) 0.6654(4)
O4 O 1.0465(4) 0.8200(3) 0.6878(3)
O5 O 1.2592(5) 0.8709(4) 0.7022(5)
O6 O 1.3653(4) 1.0125(4) 0.7039(4)
O7 O 1.5176(5) 0.6101(5) 0.7858(5)
O8 O 1.5801(5) 0.6563(5) 0.9202(4)
O9 O 1.2091(5) 0.6612(4) 0.6113(3)
O10 O 1.0743(4) 0.6538(3) 0.6519(3)
O11 O 1.2336(6) 0.6953(6) 0.9963(4)
O12 O 1.3570(8) 0.8379(6) 1.0129(5)
O13 O 0.5860(6) 0.5674(5) 0.5909(4)
O14 O 0.4270(5) 0.4722(7) 0.5897(5)
O15 O 0.4034(5) 0.2530(4) 0.7566(4)
O16 O 0.5459(5) 0.3009(5) 0.8773(5)
O17 O 0.9082(5) 0.5657(5) 0.9506(3)
O18 O 0.9531(4) 0.6390(3) 0.8644(3)
O19 O 0.7764(4) 0.6198(3) 0.7238(3)
O20 O 0.8330(4) 0.6252(3) 0.5839(3)
O21 O 0.9224(4) 0.5262(3) 0.7130(3)
O22 O 0.9878(4) -0.1893(3) 0.8362(3)
O23 O 1.0232(7) 1.1631(5) 0.5575(5)
O24 O 1.2023(6) 1.2017(5) 0.5882(5)
O25 O 0.7274(4) 0.2745(3) 0.7506(3)
O26 O 1.0341(6) 0.0875(3) 0.8773(4)
Tb1 Tb 0.96315(3) 0.69043(2) 0.73114(2)
H51 H 0.762(5) 0.608(4) 0.603(3)
O22_2 O 0.9878(4) 0.8107(3) 0.8362(3)
Tb1_2 Tb 0.96315(3) -0.30957(2) 0.73114(2)
loop_
_geom_bond_atom_site_label_1
_geom_bond_atom_site_label_2
_geom_bond_site_symmetry_1
_geom_bond_site_symmetry_2
O1 C17 1_555 1_555
C1 H1 1_555 1_555
C2 C1 1_555 1_555
C3 C2 1_555 1_555
C4 C14 1_555 1_555
C5 C7 1_555 1_555
C6 C10 1_555 1_555
C7 C18 1_555 1_555
C8 C15 1_555 1_555
C9 C17 1_555 1_555
C10 C22 1_555 1_555
C11 C16 1_555 1_555
C12 C13 1_555 1_555
C13 H2 1_555 1_555
C14 C6 1_555 1_555
H3 C14 1_555 1_555
C15 H4 1_555 1_555
H5 C15 1_555 1_555
C16 C32 1_555 1_555
C17 C12 1_555 1_555
C18 C35 1_555 1_555
C19 C3 1_555 1_555
C20 C4 1_555 1_555
H6 C20 1_555 1_555
C21 C7 1_555 1_555
H7 C21 1_555 1_555
C22 C20 1_555 1_555
C23 C13 1_555 1_555
C24 C37 1_555 1_555
C25 C19 1_555 1_555
H8 C25 1_555 1_555
C26 C29 1_555 1_555
C27 C1 1_555 1_555
C28 C9 1_555 1_555
H9 C28 1_555 1_555
C29 H10 1_555 1_555
H11 C29 1_555 1_555
C30 C8 1_555 1_555
H12 C30 1_555 1_555
C31 C26 1_555 1_555
H13 C31 1_555 1_555
C32 H14 1_555 1_555
C33 C26 1_555 1_555
H15 C33 1_555 1_555
C34 H16 1_555 1_555
H17 C34 1_555 1_555
C35 H18 1_555 1_555
C36 C8 1_555 1_555
H19 C36 1_555 1_555
C37 H20 1_555 1_555
H21 C37 1_555 1_555
C38 C32 1_555 1_555
H22 C38 1_555 1_555
C39 C38 1_555 1_555
H23 C39 1_555 1_555
C40 C39 1_555 1_555
H24 C40 1_555 1_555
C41 C16 1_555 1_555
C42 C31 1_555 1_555
H25 C42 1_555 1_555
C43 C42 1_555 1_555
H26 C43 1_555 1_555
C44 C33 1_555 1_555
H27 C44 1_555 1_555
C45 H28 1_555 1_555
H29 C45 1_555 1_555
C46 C36 1_555 1_555
H30 C46 1_555 1_555
C47 C46 1_555 1_555
H31 C47 1_555 1_555
C48 C30 1_555 1_555
H32 C48 1_555 1_555
C49 C21 1_555 1_555
H33 C49 1_555 1_555
C50 C35 1_555 1_555
H34 C50 1_555 1_555
C51 C45 1_555 1_555
H35 C51 1_555 1_555
H36 C51 1_555 1_555
C52 C34 1_555 1_555
H37 C52 1_555 1_555
H38 C52 1_555 1_555
C53 C24 1_555 1_555
H39 C53 1_555 1_555
C54 C53 1_555 1_555
H40 C54 1_555 1_555
C55 H41 1_555 1_555
C56 C24 1_555 1_555
H42 C56 1_555 1_555
C57 H43 1_555 1_555
H44 C57 1_555 1_555
C58 C57 1_555 1_555
H45 C58 1_555 1_555
H46 C58 1_555 1_555
H47 C58 1_555 1_555
C59 C54 1_555 1_555
H48 C59 1_555 1_555
N1 C2 1_555 1_555
N2 C19 1_555 1_555
N3 C23 1_555 1_555
N4 C9 1_555 1_555
N5 C12 1_555 1_555
N6 C6 1_555 1_555
N7 C4 1_555 1_555
N8 C22 1_555 1_555
N9 C27 1_555 1_555
N10 C29 1_555 1_555
N11 C5 1_555 1_555
H49 N11 1_555 1_555
N12 C11 1_555 1_555
H50 N12 1_555 1_555
O2 N2 1_555 1_555
O3 N2 1_555 1_555
O4 C3 1_555 1_555
O5 N1 1_555 1_555
O6 N1 1_555 1_555
O7 N3 1_555 1_555
O8 N3 1_555 1_555
O9 N5 1_555 1_555
O10 N5 1_555 1_555
O11 N4 1_555 1_555
O12 N4 1_555 1_555
O13 N6 1_555 1_555
O14 N6 1_555 1_555
O15 N7 1_555 1_555
O16 N7 1_555 1_555
O17 N8 1_555 1_555
O18 N8 1_555 1_555
O19 C10 1_555 1_555
O20 C57 1_555 1_555
O21 C5 1_555 1_555
O22 C11 1_555 1_555
O23 N9 1_555 1_555
O24 N9 1_555 1_555
O25 C18 1_555 1_555
O26 C41 1_555 1_555
Tb1 O1 1_555 1_555
H51 O20 1_555 1_555
O22_2 Tb1 1_555 1_555
Tb1_2 O22 1_555 1_555
C15 N11 1_555 1_555
C23 C28 1_555 1_555
C25 C27 1_555 1_555
C34 N10 1_555 1_555
C37 N12 1_555 1_555
C40 C41 1_555 1_555
C43 C44 1_555 1_555
C45 N10 1_555 1_555
C47 C48 1_555 1_555
C49 C50 1_555 1_555
C51 O26 1_555 1_555
C52 O25 1_555 1_555
C55 C56 1_555 1_555
C55 C59 1_555 1_555
O4 Tb1 1_555 1_555
O10 Tb1 1_555 1_555
O18 Tb1 1_555 1_555
O19 Tb1 1_555 1_555
O20 Tb1 1_555 1_555
O21 Tb1 1_555 1_555

#END
