
#######################################################################
#
#                 Cambridge Crystallographic Data Centre
#                                CCDC 
#
#######################################################################
#
# If this CIF has been generated from an entry in the Cambridge 
# Structural Database, then it will include bibliographic, chemical, 
# crystal, experimental, refinement or atomic coordinate data resulting 
# from the CCDC's data processing and validation procedures.
#
#######################################################################

data_XEJRUA
_symmetry_cell_setting           triclinic
_symmetry_space_group_name_H-M   'P -1'
_symmetry_Int_Tables_number      2
_space_group_name_Hall           '-P 1'
loop_
_symmetry_equiv_pos_site_id
_symmetry_equiv_pos_as_xyz
1 x,y,z
2 -x,-y,-z
_cell_length_a                   15.0084(18)
_cell_length_b                   15.8591(18)
_cell_length_c                   17.910(2)
_cell_angle_alpha                112.600(2)
_cell_angle_beta                 103.553(2)
_cell_angle_gamma                101.522(2)
_cell_volume                     3621.05
loop_
_atom_site_label
_atom_site_type_symbol
_atom_site_fract_x
_atom_site_fract_y
_atom_site_fract_z
Cu1 Cu 0.84217(5) 0.58824(5) 0.08339(4)
Cu2 Cu 1.24098(5) 0.51083(5) 0.61236(4)
Cu3 Cu 0.12797(5) 0.01738(5) -0.02328(4)
N1 N 0.7023(3) 0.4779(4) 0.0653(3)
N2 N 0.2761(4) 0.1322(4) 0.0062(3)
O1 O 0.8042(3) 0.7010(3) 0.1353(3)
O2 O 0.9088(3) 0.5972(3) 0.1941(2)
O3 O 1.1685(3) 0.5500(3) 0.5356(3)
O4 O 1.2184(4) 0.5966(4) 0.7104(3)
O5 O 1.3068(4) 0.4642(4) 0.6868(3)
O6 O 1.2418(3) 0.4087(3) 0.5106(3)
O7 O 1.1463(3) 0.0769(3) 0.0987(3)
O8 O 1.1851(3) -0.0796(3) -0.0153(3)
O9 O 1.0961(3) -0.0527(3) -0.1468(3)
O10 O 1.0565(3) 0.1032(3) -0.0351(2)
O11 O 0.8942(3) 0.4865(3) 0.0349(2)
O12 O 0.7943(3) 0.5914(3) -0.0253(3)
C1 C 0.7884(6) 0.8884(6) 0.3299(6)
H1 H 0.7599 0.9400 0.3356
H2 H 0.8570 0.9164 0.3662
H3 H 0.7542 0.8447 0.3481
C2 C 0.7793(5) 0.8325(5) 0.2365(4)
H4 H 0.7097 0.8068 0.2010
H5 H 0.8119 0.8785 0.2189
C3 C 0.8197(4) 0.7496(4) 0.2150(4)
C4 C 0.8691(4) 0.7308(4) 0.2804(4)
H6 H 0.8755 0.7712 0.3380
C5 C 0.9098(4) 0.6561(4) 0.2665(3)
C6 C 0.9608(4) 0.6429(4) 0.3418(3)
C7 C 0.9396(4) 0.6736(4) 0.4176(4)
H7 H 0.8915 0.7042 0.4227
C8 C 0.9886(5) 0.6596(4) 0.4861(4)
H8 H 0.9727 0.6798 0.5372
C9 C 1.0600(4) 0.6165(4) 0.4802(3)
C10 C 1.0806(5) 0.5845(4) 0.4038(4)
H9 H 1.1285 0.5537 0.3988
C11 C 1.0316(4) 0.5975(4) 0.3355(4)
H10 H 1.0462 0.5754 0.2838
C12 C 1.1160(5) 0.6027(4) 0.5537(3)
C13 C 1.1250(10) 0.6632(10) 0.6359(6)
H11 H 1.0943 0.7113 0.6436
C14 C 1.1764(10) 0.6583(10) 0.7089(7)
C15 C 1.1665(9) 0.7217(9) 0.7926(8)
H12 H 1.2195 0.7281 0.8414
H13 H 1.1731 0.7869 0.7968
C16 C 1.0717(9) 0.6819(10) 0.7993(9)
H14 H 1.0688 0.7241 0.8548
H15 H 1.0648 0.6172 0.7948
H16 H 1.0191 0.6781 0.7525
C21 C 1.4842(7) 0.4397(8) 0.7820(6)
H23 H 1.5179 0.4263 0.8279
H24 H 1.4809 0.5054 0.8071
H25 H 1.5196 0.4338 0.7416
C22 C 1.3832(6) 0.3686(6) 0.7347(5)
H26 H 1.3476 0.3739 0.7755
H27 H 1.3865 0.3021 0.7101
C23 C 1.3294(5) 0.3879(5) 0.6628(4)
C24 C 1.3119(5) 0.3231(5) 0.5777(4)
H28 H 1.3296 0.2665 0.5676
C25 C 1.2697(4) 0.3365(4) 0.5062(4)
C26 C 1.2537(4) 0.2638(4) 0.4174(4)
C27 C 1.2964(5) 0.1912(5) 0.4010(4)
H29 H 1.3382 0.1873 0.4476
C28 C 1.2777(5) 0.1243(5) 0.3165(4)
H30 H 1.3066 0.0747 0.3063
C29 C 1.2176(4) 0.1287(4) 0.2469(4)
C30 C 1.1756(4) 0.2018(4) 0.2635(4)
H31 H 1.1341 0.2058 0.2169
C31 C 1.1935(5) 0.2682(5) 0.3468(4)
H32 H 1.1646 0.3178 0.3568
C32 C 1.1980(4) 0.0597(4) 0.1546(4)
C33 C 1.2377(5) -0.0152(4) 0.1368(4)
H33 H 1.2740 -0.0219 0.1842
C34 C 1.2276(4) -0.0805(4) 0.0548(4)
C35 C 1.2734(5) -0.1597(5) 0.0453(5)
H34 H 1.2612 -0.1868 0.0847
H35 H 1.2429 -0.2124 -0.0144
C36 C 1.3795(8) -0.1225(8) 0.0650(8)
H36 H 1.4069 -0.1750 0.0587
H37 H 1.4099 -0.0709 0.1243
H38 H 1.3917 -0.0970 0.0251
C37 C 0.9792(5) -0.0843(5) -0.3673(4)
H39 H 0.9806 -0.1293 -0.4225
H40 H 1.0033 -0.0180 -0.3590
H41 H 0.9125 -0.0982 -0.3674
C38 C 1.0432(5) -0.0957(5) -0.2942(4)
H42 H 1.0187 -0.1635 -0.3050
H43 H 1.1093 -0.0844 -0.2972
C39 C 1.0512(4) -0.0311(4) -0.2029(4)
C40 C 1.0139(4) 0.0447(4) -0.1865(4)
H44 H 0.9823 0.0539 -0.2340
C41 C 1.0198(4) 0.1088(4) -0.1039(4)
C42 C 0.9829(4) 0.1923(4) -0.0929(3)
C43 C 0.9542(5) 0.2188(5) -0.1582(4)
H45 H 0.9571 0.1823 -0.2133
C44 C 0.9212(5) 0.2978(4) -0.1441(4)
H46 H 0.9018 0.3144 -0.1895
C45 C 0.9165(4) 0.3527(4) -0.0635(3)
C46 C 0.9473(4) 0.3273(4) 0.0020(4)
H47 H 0.9461 0.3648 0.0576
C47 C 0.9797(4) 0.2483(4) -0.0120(4)
H48 H 0.9998 0.2323 0.0337
C48 C 0.8801(4) 0.4372(4) -0.0438(3)
C49 C 0.8333(5) 0.4565(5) -0.1099(4)
H49 H 0.8261 0.4150 -0.1674
C50 C 0.7966(5) 0.5340(5) -0.0959(4)
C51 C 0.7408(9) 0.5356(10) -0.1778(8)
H50 H 0.7189 0.4709 -0.2274
H51 H 0.6834 0.5553 -0.1716
C52 C 0.8095(10) 0.6077(10) -0.1911(9)
H52 H 0.7763 0.6117 -0.2432
H53 H 0.8657 0.5870 -0.1977
H54 H 0.8311 0.6713 -0.1413
C55 C 0.7043(4) 0.4316(5) 0.1140(4)
H60 H 0.7638 0.4472 0.1574
C56 C 0.6238(4) 0.3620(5) 0.1043(4)
H61 H 0.6290 0.3308 0.1404
C57 C 0.5359(4) 0.3382(4) 0.0416(3)
C58 C 0.5343(4) 0.3855(5) -0.0099(4)
H62 H 0.4761 0.3713 -0.0542
C59 C 0.6184(4) 0.4536(5) 0.0040(4)
H63 H 0.6160 0.4845 -0.0321
C60 C 0.4468(4) 0.2674(4) 0.0307(4)
C61 C 0.4496(5) 0.1915(5) 0.0512(6)
H64 H 0.5099 0.1841 0.0738
C62 C 0.3635(5) 0.1265(5) 0.0382(6)
H65 H 0.3668 0.0754 0.0529
C63 C 0.2743(4) 0.2088(5) -0.0075(4)
H66 H 0.2134 0.2175 -0.0253
C64 C 0.3567(4) 0.2765(5) 0.0030(4)
H67 H 0.3513 0.3292 -0.0088
O13 O 1.4040(5) 0.6113(5) 0.6392(4)
C65 C 1.4666(7) 0.6614(8) 0.7273(7)
H68 H 1.4585 0.6193 0.7558
H69 H 1.4508 0.7199 0.7583
C66 C 1.5647(10) 0.6878(14) 0.7289(10)
H70 H 1.6106 0.6905 0.7801
H71 H 1.5839 0.7508 0.7281
C67 C 1.5596(11) 0.6055(16) 0.6459(13)
H72 H 1.6000 0.6307 0.6178
H73 H 1.5837 0.5571 0.6586
C68 C 1.4627(9) 0.5637(10) 0.5920(9)
H74 H 1.4409 0.4937 0.5751
H75 H 1.4552 0.5721 0.5392
Cu3_2 Cu 1.12797(5) 0.01738(5) -0.02328(4)
O7_2 O 0.1463(3) 0.0769(3) 0.0987(3)
O8_2 O 0.1851(3) -0.0796(3) -0.0153(3)
O9_2 O 0.0961(3) -0.0527(3) -0.1468(3)
O10_2 O 0.0565(3) 0.1032(3) -0.0351(2)
O14 O 0.7263(10) 0.0575(10) 0.4656(7)
C69 C 0.7897(13) 0.0538(13) 0.5965(9)
H76 H 0.8286 0.0114 0.6016
H77 H 0.7641 0.0714 0.6446
C70 C 0.7103(11) 0.0051(11) 0.5135(10)
H78 H 0.7088 -0.0621 0.4815
H79 H 0.6476 0.0036 0.5226
C71 C 0.8489(12) 0.1407(12) 0.5981(9)
H80 H 0.9187 0.1519 0.6244
H81 H 0.8329 0.1981 0.6316
C72 C 0.8249(13) 0.1218(16) 0.5069(12)
H82 H 0.8301 0.1825 0.5018
H83 H 0.8687 0.0911 0.4811
O16 O 0.6178(7) 0.1410(7) 0.1775(6)
C77 C 0.6223(10) 0.1435(11) 0.2584(9)
H92 H 0.5569 0.1155 0.2579
H93 H 0.6509 0.2107 0.3049
C78 C 0.6869(10) 0.0829(10) 0.2717(9)
H94 H 0.7563 0.1220 0.2970
H95 H 0.6710 0.0546 0.3094
C79 C 0.6634(11) 0.0091(10) 0.1854(9)
H96 H 0.6095 -0.0483 0.1712
H97 H 0.7203 -0.0107 0.1770
C80 C 0.6333(11) 0.0608(10) 0.1308(9)
H98 H 0.6850 0.0770 0.1081
H99 H 0.5735 0.0171 0.0812
O17 O 0.6160(8) 0.0806(7) 0.7045(8)
C81 C 0.5157(9) 0.0693(10) 0.6802(11)
H100 H 0.4816 0.0205 0.6945
H101 H 0.4882 0.0463 0.6172
C82 C 0.5021(10) 0.1596(12) 0.7248(12)
H102 H 0.4684 0.1563 0.7655
H103 H 0.4629 0.1767 0.6835
C83 C 0.6013(11) 0.2330(9) 0.7725(11)
H104 H 0.6042 0.2916 0.7643
H105 H 0.6212 0.2514 0.8349
C84 C 0.6627(9) 0.1813(9) 0.7324(11)
H106 H 0.6678 0.1928 0.6827
H107 H 0.7286 0.2035 0.7746
O18 O 0.5047(14) 0.2267(14) 0.5571(13)
C85 C 0.552(2) 0.3215(12) 0.5682(18)
C86 C 0.6350(16) 0.3101(15) 0.5364(17)
C87 C 0.587(2) 0.2133(16) 0.4589(15)
C88 C 0.5266(18) 0.1589(11) 0.4910(16)
C17? C 1.0930(10) 0.6318(10) 0.6315(7)
H17? H 1.0410 0.6575 0.6333
C18? C 1.1420(10) 0.6250(10) 0.7051(7)
C19? C 1.1162(9) 0.6594(9) 0.7862(8)
H18? H 1.1027 0.6050 0.8007
H19? H 1.1740 0.7109 0.8337
C20? C 1.0322(9) 0.6971(10) 0.7845(9)
H20? H 1.0236 0.7174 0.8406
H21? H 0.9733 0.6462 0.7398
H22? H 1.0448 0.7524 0.7720
C53? C 0.7699(14) 0.5702(12) -0.1632(9)
H55? H 0.7016 0.5683 -0.1737
H56? H 0.8099 0.6388 -0.1373
C54? C 0.7802(13) 0.5190(12) -0.2496(9)
H57? H 0.7619 0.5512 -0.2849
H58? H 0.7378 0.4518 -0.2786
H59? H 0.8476 0.5209 -0.2413
O15? O 0.7169(13) 0.0817(15) 0.4844(12)
C73? C 0.8714(12) 0.096(2) 0.5634(18)
H84? H 0.9156 0.0668 0.5366
H85? H 0.9105 0.1483 0.6217
C74? C 0.7057(13) 0.030(2) 0.5329(19)
H86? H 0.6582 -0.0352 0.4956
H87? H 0.6828 0.0646 0.5799
C75? C 0.8026(16) 0.024(2) 0.5687(19)
H88? H 0.8159 0.0366 0.6294
H89? H 0.8056 -0.0406 0.5352
C76? C 0.8172(16) 0.133(2) 0.510(2)
H90? H 0.8301 0.2033 0.5443
H91? H 0.8369 0.1229 0.4593
O19? O 0.5635(14) 0.3104(14) 0.5868(12)
C89? C 0.6580(15) 0.3369(17) 0.5806(14)
C90? C 0.6501(17) 0.2758(16) 0.4921(15)
C91? C 0.5627(19) 0.1913(16) 0.4609(14)
C92? C 0.519(2) 0.2109(16) 0.5299(17)
loop_
_geom_bond_atom_site_label_1
_geom_bond_atom_site_label_2
_geom_bond_site_symmetry_1
_geom_bond_site_symmetry_2
Cu1 N1 1_555 1_555
Cu2 O3 1_555 1_555
Cu3 N2 1_555 1_555
N1 C55 1_555 1_555
N2 C62 1_555 1_555
O1 Cu1 1_555 1_555
O2 Cu1 1_555 1_555
O3 C12 1_555 1_555
O4 Cu2 1_555 1_555
O5 Cu2 1_555 1_555
O6 Cu2 1_555 1_555
O7 C32 1_555 1_555
O8 C34 1_555 1_555
O9 C39 1_555 1_555
O10 C41 1_555 1_555
O11 Cu1 1_555 1_555
O12 Cu1 1_555 1_555
C1 H1 1_555 1_555
H2 C1 1_555 1_555
H3 C1 1_555 1_555
C2 C1 1_555 1_555
H4 C2 1_555 1_555
H5 C2 1_555 1_555
C3 O1 1_555 1_555
C4 C3 1_555 1_555
H6 C4 1_555 1_555
C5 O2 1_555 1_555
C6 C5 1_555 1_555
C7 C6 1_555 1_555
H7 C7 1_555 1_555
C8 C7 1_555 1_555
H8 C8 1_555 1_555
C9 C8 1_555 1_555
C10 C9 1_555 1_555
H9 C10 1_555 1_555
C11 C6 1_555 1_555
H10 C11 1_555 1_555
C12 C9 1_555 1_555
C13 C12 1_555 1_555
H11 C13 1_555 1_555
C14 O4 1_555 1_555
C15 C14 1_555 1_555
H12 C15 1_555 1_555
H13 C15 1_555 1_555
C16 C15 1_555 1_555
H14 C16 1_555 1_555
H15 C16 1_555 1_555
H16 C16 1_555 1_555
C21 H23 1_555 1_555
H24 C21 1_555 1_555
H25 C21 1_555 1_555
C22 C21 1_555 1_555
H26 C22 1_555 1_555
H27 C22 1_555 1_555
C23 O5 1_555 1_555
C24 C23 1_555 1_555
H28 C24 1_555 1_555
C25 O6 1_555 1_555
C26 C25 1_555 1_555
C27 C26 1_555 1_555
H29 C27 1_555 1_555
C28 C27 1_555 1_555
H30 C28 1_555 1_555
C29 C28 1_555 1_555
C30 C29 1_555 1_555
H31 C30 1_555 1_555
C31 C26 1_555 1_555
H32 C31 1_555 1_555
C32 C29 1_555 1_555
C33 C32 1_555 1_555
H33 C33 1_555 1_555
C34 C33 1_555 1_555
C35 C34 1_555 1_555
H34 C35 1_555 1_555
H35 C35 1_555 1_555
C36 C35 1_555 1_555
H36 C36 1_555 1_555
H37 C36 1_555 1_555
H38 C36 1_555 1_555
C37 H39 1_555 1_555
H40 C37 1_555 1_555
H41 C37 1_555 1_555
C38 C37 1_555 1_555
H42 C38 1_555 1_555
H43 C38 1_555 1_555
C39 C38 1_555 1_555
C40 C39 1_555 1_555
H44 C40 1_555 1_555
C41 C40 1_555 1_555
C42 C41 1_555 1_555
C43 C42 1_555 1_555
H45 C43 1_555 1_555
C44 C43 1_555 1_555
H46 C44 1_555 1_555
C45 C44 1_555 1_555
C46 C45 1_555 1_555
H47 C46 1_555 1_555
C47 C42 1_555 1_555
H48 C47 1_555 1_555
C48 O11 1_555 1_555
C49 C48 1_555 1_555
H49 C49 1_555 1_555
C50 O12 1_555 1_555
C51 C50 1_555 1_555
H50 C51 1_555 1_555
H51 C51 1_555 1_555
C52 C51 1_555 1_555
H52 C52 1_555 1_555
H53 C52 1_555 1_555
H54 C52 1_555 1_555
C55 H60 1_555 1_555
C56 C55 1_555 1_555
H61 C56 1_555 1_555
C57 C56 1_555 1_555
C58 C57 1_555 1_555
H62 C58 1_555 1_555
C59 N1 1_555 1_555
H63 C59 1_555 1_555
C60 C57 1_555 1_555
C61 C60 1_555 1_555
H64 C61 1_555 1_555
C62 C61 1_555 1_555
H65 C62 1_555 1_555
C63 N2 1_555 1_555
H66 C63 1_555 1_555
C64 C60 1_555 1_555
H67 C64 1_555 1_555
O13 Cu2 1_555 1_555
C65 O13 1_555 1_555
H68 C65 1_555 1_555
H69 C65 1_555 1_555
C66 C65 1_555 1_555
H70 C66 1_555 1_555
H71 C66 1_555 1_555
C67 C66 1_555 1_555
H72 C67 1_555 1_555
H73 C67 1_555 1_555
C68 O13 1_555 1_555
H74 C68 1_555 1_555
H75 C68 1_555 1_555
O14 C70 1_555 1_555
C69 H76 1_555 1_555
H77 C69 1_555 1_555
C70 C69 1_555 1_555
H78 C70 1_555 1_555
H79 C70 1_555 1_555
C71 C69 1_555 1_555
H80 C71 1_555 1_555
H81 C71 1_555 1_555
C72 O14 1_555 1_555
H82 C72 1_555 1_555
H83 C72 1_555 1_555
O16 C77 1_555 1_555
C77 H92 1_555 1_555
H93 C77 1_555 1_555
C78 C77 1_555 1_555
H94 C78 1_555 1_555
H95 C78 1_555 1_555
C79 C78 1_555 1_555
H96 C79 1_555 1_555
H97 C79 1_555 1_555
C80 O16 1_555 1_555
H98 C80 1_555 1_555
H99 C80 1_555 1_555
O17 C81 1_555 1_555
C81 H100 1_555 1_555
H101 C81 1_555 1_555
C82 C81 1_555 1_555
H102 C82 1_555 1_555
H103 C82 1_555 1_555
C83 C82 1_555 1_555
H104 C83 1_555 1_555
H105 C83 1_555 1_555
C84 O17 1_555 1_555
H106 C84 1_555 1_555
H107 C84 1_555 1_555
O18 C85 1_555 1_555
C85 C86 1_555 1_555
C86 C87 1_555 1_555
C87 C88 1_555 1_555
C88 O18 1_555 1_555
Cu3_2 O7 1_555 1_555
O7_2 Cu3 1_555 1_555
O8_2 Cu3 1_555 1_555
O9_2 Cu3 1_555 1_555
O10_2 Cu3 1_555 1_555
O8 Cu3_2 1_555 1_555
O9 Cu3_2 1_555 1_555
O10 Cu3_2 1_555 1_555
C2 C3 1_555 1_555
C4 C5 1_555 1_555
C10 C11 1_555 1_555
C13 C14 1_555 1_555
C22 C23 1_555 1_555
C24 C25 1_555 1_555
C30 C31 1_555 1_555
C45 C48 1_555 1_555
C46 C47 1_555 1_555
C49 C50 1_555 1_555
C58 C59 1_555 1_555
C63 C64 1_555 1_555
C67 C68 1_555 1_555
C71 C72 1_555 1_555
C79 C80 1_555 1_555
C83 C84 1_555 1_555

#END
