
#######################################################################
#
#                 Cambridge Crystallographic Data Centre
#                                CCDC 
#
#######################################################################
#
# If this CIF has been generated from an entry in the Cambridge 
# Structural Database, then it will include bibliographic, chemical, 
# crystal, experimental, refinement or atomic coordinate data resulting 
# from the CCDC's data processing and validation procedures.
#
#######################################################################

data_XEJRIP
_symmetry_cell_setting           monoclinic
_symmetry_space_group_name_H-M   'P 21/c'
_symmetry_Int_Tables_number      14
_space_group_name_Hall           '-P 2ybc'
loop_
_symmetry_equiv_pos_site_id
_symmetry_equiv_pos_as_xyz
1 x,y,z
2 -x,1/2+y,1/2-z
3 -x,-y,-z
4 x,1/2-y,1/2+z
_cell_length_a                   11.739(2)
_cell_length_b                   13.138(3)
_cell_length_c                   21.666(4)
_cell_angle_alpha                90
_cell_angle_beta                 116.366(8)
_cell_angle_gamma                90
_cell_volume                     2993.89
loop_
_atom_site_label
_atom_site_type_symbol
_atom_site_fract_x
_atom_site_fract_y
_atom_site_fract_z
Ho1 Ho 0.27848(5) 0.06215(5) 0.14882(3)
Cu1 Cu 0.18351(13) 0.41620(11) 0.34336(8)
Cu2 Cu 0.5000 0.0000 0.5000
O1 O 0.0844(7) 0.0956(6) 0.1526(4)
O2 O -0.0272(7) -0.0405(6) 0.1539(4)
O3 O -0.0298(8) 0.2961(7) 0.0950(5)
O4 O 0.0599(8) 0.3504(7) 0.2026(4)
O5 O 0.3374(7) 0.3734(6) 0.3388(4)
O6 O 0.4456(7) 0.2361(6) 0.3386(4)
O7 O 0.3279(7) 0.0476(6) 0.2620(4)
O8 O 0.4060(8) -0.0117(6) 0.3688(4)
O9 O 0.6544(7) -0.0476(6) 0.4969(4)
O10 O 0.7517(7) -0.1878(6) 0.4909(4)
O11 O 0.6182(7) -0.3920(6) 0.4171(4)
O12 O 0.7217(7) -0.4229(6) 0.5307(4)
O13 O 0.4388(8) 0.1818(6) 0.2126(4)
H1 H 0.4321 0.1906 0.2492
H2 H 0.4365 0.2343 0.1901
O14 O 0.1924(8) 0.2167(7) 0.1000(5)
H3 H 0.1208 0.2334 0.0965
H4 H 0.2169 0.2448 0.0734
O15 O 0.1481(8) 0.0013(7) 0.0368(4)
H5 H 0.1666 0.0307 0.0079
H6 H 0.1317 -0.0607 0.0315
O16 O 0.4482(7) -0.0504(6) 0.1831(4)
H7 H 0.4829 -0.0714 0.1590
H8 H 0.4941 -0.0455 0.2256
O17 O 0.2019(7) -0.1018(6) 0.1613(4)
H9 H 0.1368 -0.1016 0.1680
H10 H 0.1992 -0.1396 0.1295
N1 N -0.1951(8) 0.0637(8) 0.1725(4)
N2 N 0.1582(9) 0.2697(7) 0.3479(4)
N3 N 0.4641(9) -0.1471(7) 0.4980(4)
C1 C -0.0084(11) 0.0545(10) 0.1558(5)
C2 C -0.1050(11) 0.1197(9) 0.1660(5)
C3 C -0.1023(11) 0.2257(9) 0.1700(6)
C4 C -0.0154(12) 0.2962(10) 0.1557(8)
C5 C -0.1956(12) 0.2697(9) 0.1859(6)
H11 H -0.1970 0.3400 0.1907
C6 C -0.2845(12) 0.2112(10) 0.1943(6)
H12 H -0.3457 0.2416 0.2045
C7 C -0.2821(12) 0.1082(9) 0.1876(6)
H13 H -0.3418 0.0683 0.1937
C8 C 0.3530(12) 0.2783(10) 0.3379(6)
C9 C 0.2472(10) 0.2134(9) 0.3384(5)
C10 C 0.2378(11) 0.1088(9) 0.3342(5)
C11 C 0.3344(11) 0.0446(10) 0.3217(7)
C12 C 0.1374(10) 0.0616(11) 0.3379(5)
H14 H 0.1294 -0.0088 0.3339
C13 C 0.0478(12) 0.1185(10) 0.3477(6)
H15 H -0.0207 0.0873 0.3506
C14 C 0.0625(11) 0.2220(10) 0.3529(6)
H16 H 0.0032 0.2606 0.3602
C15 C 0.6603(11) -0.1442(10) 0.4930(5)
C16 C 0.5540(11) -0.2056(9) 0.4925(5)
C17 C 0.5439(10) -0.3106(8) 0.4890(5)
C18 C 0.6383(11) -0.3799(8) 0.4790(6)
C19 C 0.4374(11) -0.3550(9) 0.4907(6)
H17 H 0.4275 -0.4253 0.4881
C20 C 0.3477(11) -0.2943(10) 0.4963(6)
H18 H 0.2767 -0.3228 0.4980
C21 C 0.3639(11) -0.1916(9) 0.4991(6)
H19 H 0.3017 -0.1508 0.5020
Ho1B Ho 0.72152(5) -0.06215(5) 0.85118(3)
Ho1A Ho 0.72152(5) -0.43785(5) 0.35118(3)
Ho1C Ho 0.27848(5) 0.43785(5) 0.64882(3)
Ho1A_2 Ho -0.27848(5) 0.56215(5) 0.35118(3)
Cu1B Cu 0.81649(13) -0.41620(11) 0.65664(8)
Cu1A Cu -0.18351(13) -0.08380(11) 0.15664(8)
O1A O -0.0844(7) 0.5956(6) 0.3474(4)
O1B O 0.9156(7) -0.0956(6) 0.8474(4)
O2A O 0.0272(7) 0.4595(6) 0.3461(4)
O2C O 0.9728(7) -0.4595(6) 0.6539(4)
O3A O 0.0298(8) 0.7961(7) 0.4050(5)
O4A O -0.0599(8) 0.8504(7) 0.2974(4)
O5B O 0.6626(7) -0.3734(6) 0.6612(4)
O6B O 0.5544(7) -0.2361(6) 0.6614(4)
O7B O 0.6721(7) -0.0476(6) 0.7380(4)
O8B O 0.5940(8) 0.0117(6) 0.6312(4)
O9B O 0.3456(7) 0.0476(6) 0.5031(4)
O10B O 0.2483(7) 0.1878(6) 0.5091(4)
O11B O 0.3818(7) 0.3920(6) 0.5829(4)
O11A O 0.3818(7) 0.1080(6) 0.0829(4)
O11C O 0.6182(7) -0.1080(6) 0.9171(4)
O12B O 0.2783(7) 0.4229(6) 0.4693(4)
O13B O 0.5612(8) -0.1818(6) 0.7874(4)
H1B H 0.5679 -0.1906 0.7508
H2B H 0.5635 -0.2343 0.8099
O14B O 0.8076(8) -0.2167(7) 0.9000(5)
H3B H 0.8792 -0.2334 0.9035
H4B H 0.7831 -0.2448 0.9266
O15B O 0.8519(8) -0.0013(7) 0.9632(4)
H5B H 0.8334 -0.0307 0.9921
H6B H 0.8683 0.0607 0.9685
O16B O 0.5518(7) 0.0504(6) 0.8169(4)
H7B H 0.5171 0.0714 0.8410
H8B H 0.5059 0.0455 0.7744
O17B O 0.7981(7) 0.1018(6) 0.8387(4)
H9B H 0.8632 0.1016 0.8320
H10B H 0.8008 0.1396 0.8705
N1A N 0.1951(8) 0.5637(8) 0.3275(4)
N1C N 0.8049(8) -0.5637(8) 0.6725(4)
N2B N 0.8418(9) -0.2697(7) 0.6521(4)
N3B N 0.5359(9) 0.1471(7) 0.5020(4)
C1A C 0.0084(11) 0.5545(10) 0.3442(5)
C2A C 0.1050(11) 0.6197(9) 0.3340(5)
C3A C 0.1023(11) 0.7257(9) 0.3300(6)
C4A C 0.0154(12) 0.7962(10) 0.3443(8)
C5A C 0.1956(12) 0.7697(9) 0.3141(6)
H11A H 0.1970 0.8400 0.3093
C6A C 0.2845(12) 0.7112(10) 0.3057(6)
H12A H 0.3457 0.7416 0.2955
C7A C 0.2821(12) 0.6082(9) 0.3124(6)
H13A H 0.3418 0.5683 0.3063
C8B C 0.6470(12) -0.2783(10) 0.6621(6)
C9B C 0.7528(10) -0.2134(9) 0.6616(5)
C10B C 0.7622(11) -0.1088(9) 0.6658(5)
C11B C 0.6656(11) -0.0446(10) 0.6783(7)
C12B C 0.8626(10) -0.0616(11) 0.6621(5)
H14B H 0.8706 0.0088 0.6661
C13B C 0.9522(12) -0.1185(10) 0.6523(6)
H15B H 1.0207 -0.0873 0.6494
C14B C 0.9375(11) -0.2220(10) 0.6471(6)
H16B H 0.9968 -0.2606 0.6398
C15B C 0.3397(11) 0.1442(10) 0.5070(5)
C16B C 0.4460(11) 0.2056(9) 0.5075(5)
C17B C 0.4561(10) 0.3106(8) 0.5110(5)
C18B C 0.3617(11) 0.3799(8) 0.5210(6)
C19B C 0.5626(11) 0.3550(9) 0.5093(6)
H17B H 0.5725 0.4253 0.5119
C20B C 0.6523(11) 0.2943(10) 0.5037(6)
H18B H 0.7233 0.3228 0.5020
C21B C 0.6361(11) 0.1916(9) 0.5009(6)
H19B H 0.6983 0.1508 0.4980
O18 O 0.7142(10) 0.2072(8) 0.3602(6)
H20 H 0.6663 0.2561 0.3579
H21 H 0.6814 0.1489 0.3537
O19 O 0.4458(7) 0.3848(6) 0.1817(4)
H22 H 0.4835 0.4170 0.1627
H23 H 0.3799 0.4119 0.1801
O20 O 0.2126(9) 0.4703(7) 0.1547(6)
H24 H 0.1906 0.5198 0.1714
H25 H 0.1990 0.4122 0.1663
O21 O 0.1243(14) 0.5284(10) 0.0179(8)
H26 H 0.0727 0.5770 0.0079
H27 H 0.1714 0.5271 -0.0019
O22 O 0.0765(18) 0.7912(15) 0.0286(8)
H28 H 0.0484 0.7938 -0.0146
H29 H 0.0644 0.7352 0.0437
loop_
_geom_bond_atom_site_label_1
_geom_bond_atom_site_label_2
_geom_bond_site_symmetry_1
_geom_bond_site_symmetry_2
Ho1 O1 1_555 1_555
Cu1 O5 1_555 1_555
Cu2 O8 1_555 1_555
O1 C1 1_555 1_555
O2 C1 1_555 1_555
O3 C4 1_555 1_555
O4 C4 1_555 1_555
O5 C8 1_555 1_555
O6 C8 1_555 1_555
O7 Ho1 1_555 1_555
O8 C11 1_555 1_555
O9 Cu2 1_555 1_555
O10 C15 1_555 1_555
O11 C18 1_555 1_555
O12 C18 1_555 1_555
O13 Ho1 1_555 1_555
H1 O13 1_555 1_555
H2 O13 1_555 1_555
O14 Ho1 1_555 1_555
H3 O14 1_555 1_555
H4 O14 1_555 1_555
O15 Ho1 1_555 1_555
H5 O15 1_555 1_555
H6 O15 1_555 1_555
O16 Ho1 1_555 1_555
H7 O16 1_555 1_555
H8 O16 1_555 1_555
O17 Ho1 1_555 1_555
H9 O17 1_555 1_555
H10 O17 1_555 1_555
N1 C2 1_555 1_555
N2 Cu1 1_555 1_555
N3 Cu2 1_555 1_555
C1 C2 1_555 1_555
C2 C3 1_555 1_555
C3 C4 1_555 1_555
C5 C3 1_555 1_555
H11 C5 1_555 1_555
C6 C5 1_555 1_555
H12 C6 1_555 1_555
C7 N1 1_555 1_555
H13 C7 1_555 1_555
C8 C9 1_555 1_555
C9 N2 1_555 1_555
C10 C9 1_555 1_555
C11 O7 1_555 1_555
C12 C10 1_555 1_555
H14 C12 1_555 1_555
C13 C12 1_555 1_555
H15 C13 1_555 1_555
C14 N2 1_555 1_555
H16 C14 1_555 1_555
C15 O9 1_555 1_555
C16 N3 1_555 1_555
C17 C16 1_555 1_555
C18 C17 1_555 1_555
C19 C17 1_555 1_555
H17 C19 1_555 1_555
C20 C19 1_555 1_555
H18 C20 1_555 1_555
C21 N3 1_555 1_555
H19 C21 1_555 1_555
O18 H20 1_555 1_555
H21 O18 1_555 1_555
O19 H22 1_555 1_555
H23 O19 1_555 1_555
O20 H24 1_555 1_555
H25 O20 1_555 1_555
O21 H26 1_555 1_555
H27 O21 1_555 1_555
O22 H28 1_555 1_555
H29 O22 1_555 1_555
Ho1B O1B 1_555 1_555
Ho1A O11 1_555 1_555
Ho1C O11B 1_555 1_555
Ho1A_2 O1A 1_555 1_555
Cu1B O12 1_555 1_555
Cu1A O2 1_555 1_555
O1A C1A 1_555 1_555
O2A Cu1 1_555 1_555
O2C Cu1B 1_555 1_555
O3A C4A 1_555 1_555
O4A C4A 1_555 1_555
O5B Cu1B 1_555 1_555
O6B C8B 1_555 1_555
O7B Ho1B 1_555 1_555
O8B Cu2 1_555 1_555
O9B Cu2 1_555 1_555
O10B C15B 1_555 1_555
O11B C18B 1_555 1_555
O11A Ho1 1_555 1_555
O11C Ho1B 1_555 1_555
O12B Cu1 1_555 1_555
O13B Ho1B 1_555 1_555
H1B O13B 1_555 1_555
H2B O13B 1_555 1_555
O14B Ho1B 1_555 1_555
H3B O14B 1_555 1_555
H4B O14B 1_555 1_555
O15B Ho1B 1_555 1_555
H5B O15B 1_555 1_555
H6B O15B 1_555 1_555
O16B Ho1B 1_555 1_555
H7B O16B 1_555 1_555
H8B O16B 1_555 1_555
O17B Ho1B 1_555 1_555
H9B O17B 1_555 1_555
H10B O17B 1_555 1_555
N1A Cu1 1_555 1_555
N1C Cu1B 1_555 1_555
N2B Cu1B 1_555 1_555
N3B Cu2 1_555 1_555
C1A O2A 1_555 1_555
C2A N1A 1_555 1_555
C3A C2A 1_555 1_555
C4A C3A 1_555 1_555
C5A C3A 1_555 1_555
H11A C5A 1_555 1_555
C6A C5A 1_555 1_555
H12A C6A 1_555 1_555
C7A N1A 1_555 1_555
H13A C7A 1_555 1_555
C8B O5B 1_555 1_555
C9B N2B 1_555 1_555
C10B C9B 1_555 1_555
C11B O7B 1_555 1_555
C12B C10B 1_555 1_555
H14B C12B 1_555 1_555
C13B C12B 1_555 1_555
H15B C13B 1_555 1_555
C14B N2B 1_555 1_555
H16B C14B 1_555 1_555
C15B O9B 1_555 1_555
C16B N3B 1_555 1_555
C17B C16B 1_555 1_555
C18B O12B 1_555 1_555
C19B C17B 1_555 1_555
H17B C19B 1_555 1_555
C20B C19B 1_555 1_555
H18B C20B 1_555 1_555
C21B N3B 1_555 1_555
H19B C21B 1_555 1_555
N1 Cu1A 1_555 1_555
C6 C7 1_555 1_555
C10 C11 1_555 1_555
C13 C14 1_555 1_555
C15 C16 1_555 1_555
C20 C21 1_555 1_555
O8B C11B 1_555 1_555
C1A C2A 1_555 1_555
C6A C7A 1_555 1_555
C8B C9B 1_555 1_555
C10B C11B 1_555 1_555
C13B C14B 1_555 1_555
C15B C16B 1_555 1_555
C17B C18B 1_555 1_555
C20B C21B 1_555 1_555

#END
