
#######################################################################
#
#                 Cambridge Crystallographic Data Centre
#                                CCDC 
#
#######################################################################
#
# If this CIF has been generated from an entry in the Cambridge 
# Structural Database, then it will include bibliographic, chemical, 
# crystal, experimental, refinement or atomic coordinate data resulting 
# from the CCDC's data processing and validation procedures.
#
#######################################################################

data_XEJREL
_symmetry_cell_setting           monoclinic
_symmetry_space_group_name_H-M   'P 21/c'
_symmetry_Int_Tables_number      14
_space_group_name_Hall           '-P 2ybc'
loop_
_symmetry_equiv_pos_site_id
_symmetry_equiv_pos_as_xyz
1 x,y,z
2 -x,1/2+y,1/2-z
3 -x,-y,-z
4 x,1/2-y,1/2+z
_cell_length_a                   11.758(4)
_cell_length_b                   13.149(4)
_cell_length_c                   21.709(5)
_cell_angle_alpha                90
_cell_angle_beta                 116.489(13)
_cell_angle_gamma                90
_cell_volume                     3003.99
loop_
_atom_site_label
_atom_site_type_symbol
_atom_site_fract_x
_atom_site_fract_y
_atom_site_fract_z
Tb1 Tb 0.27774(2) 0.062000(17) 0.147864(11)
Cu1 Cu 0.18336(5) 0.41557(4) 0.34278(3)
Cu2 Cu 0.5000 0.0000 0.5000
O1 O 0.0814(2) 0.0957(2) 0.15138(15)
O2 O -0.0280(3) -0.0408(2) 0.15431(15)
O3 O -0.0326(3) 0.2961(2) 0.09335(15)
O4 O 0.0574(3) 0.3493(3) 0.20215(17)
O5 O 0.3380(2) 0.3734(2) 0.33869(14)
O6 O 0.4456(3) 0.2346(2) 0.33846(14)
O7 O 0.3289(3) 0.0468(2) 0.26171(14)
O8 O 0.4052(3) -0.0113(2) 0.36904(14)
O9 O 0.6553(2) -0.0480(2) 0.49826(14)
O10 O 0.7544(3) -0.1887(2) 0.49329(15)
O11 O 0.6199(3) -0.3923(2) 0.41963(13)
O12 O 0.7221(2) -0.4230(2) 0.53195(14)
O13 O 0.4374(3) 0.1836(2) 0.21257(13)
H1 H 0.4308(8) 0.1924(15) 0.2492(3)
H2 H 0.4352(12) 0.2360(5) 0.1901(4)
O14 O 0.1904(2) 0.2189(3) 0.09820(16)
H3 H 0.1189(4) 0.2357(16) 0.0947(6)
H4 H 0.2150(6) 0.2471(11) 0.0716(4)
O15 O 0.1454(3) 0.0025(2) 0.03327(15)
H5 H 0.1639(8) 0.0319(7) 0.0044(3)
H6 H 0.1289(15) -0.0595(4) 0.0280(6)
O16 O 0.4514(2) -0.0527(2) 0.18418(12)
H7 H 0.4861(6) -0.0737(13) 0.1601(3)
H8 H 0.4974(17) -0.048(2) 0.2267(3)
O17 O 0.2002(2) -0.1041(2) 0.15962(15)
H9 H 0.1352(5) -0.104(2) 0.1663(4)
H10 H 0.1975(10) -0.1419(5) 0.1278(3)
N1 N -0.1948(3) 0.0627(3) 0.17263(16)
N2 N 0.1563(3) 0.2685(2) 0.34599(16)
N3 N 0.4640(3) -0.1463(2) 0.49858(17)
C1 C -0.0083(4) 0.0556(3) 0.1565(2)
C2 C -0.1067(4) 0.1204(3) 0.1652(2)
C3 C -0.1038(4) 0.2257(3) 0.1690(2)
C4 C -0.0159(4) 0.2961(3) 0.1534(2)
C5 C -0.1963(4) 0.2707(3) 0.1835(2)
H11 H -0.1976 0.3410 0.1876
C6 C -0.2856(4) 0.2125(3) 0.1918(2)
H12 H -0.3470 0.2435 0.2014
C7 C -0.2843(4) 0.1077(3) 0.1860(2)
H13 H -0.3452 0.0685 0.1913
C8 C 0.3520(4) 0.2774(3) 0.3369(2)
C9 C 0.2457(4) 0.2142(3) 0.33785(19)
C10 C 0.2390(4) 0.1088(3) 0.3326(2)
C11 C 0.3332(4) 0.0427(3) 0.3208(2)
C12 C 0.1381(4) 0.0625(4) 0.3377(2)
H14 H 0.1307 -0.0080 0.3349
C13 C 0.0480(4) 0.1196(3) 0.3467(2)
H15 H -0.0204 0.0882 0.3497
C14 C 0.0613(4) 0.2234(3) 0.3514(2)
H16 H 0.0022 0.2625 0.3584
C15 C 0.6645(4) -0.1451(3) 0.4940(2)
C16 C 0.5535(4) -0.2056(3) 0.49331(19)
C17 C 0.5432(4) -0.3106(3) 0.4900(2)
C18 C 0.6384(4) -0.3791(3) 0.4804(2)
C19 C 0.4379(4) -0.3545(3) 0.4918(2)
H17 H 0.4278 -0.4247 0.4893
C20 C 0.3497(4) -0.2942(3) 0.4973(2)
H18 H 0.2789 -0.3234 0.4989
C21 C 0.3636(4) -0.1903(3) 0.5006(2)
H19 H 0.3019 -0.1500 0.5043
Tb1B Tb 0.72226(2) -0.062000(17) 0.852136(11)
Tb1A Tb 0.72226(2) -0.438000(17) 0.352136(11)
Tb1C Tb 0.27774(2) 0.438000(17) 0.647864(11)
Tb1A_2 Tb -0.27774(2) 0.562000(17) 0.352136(11)
Cu1B Cu 0.81664(5) -0.41557(4) 0.65722(3)
Cu1A Cu -0.18336(5) -0.08443(4) 0.15722(3)
O1A O -0.0814(2) 0.5957(2) 0.34862(15)
O1B O 0.9186(2) -0.0957(2) 0.84862(15)
O2A O 0.0280(3) 0.4592(2) 0.34569(15)
O2C O 0.9720(3) -0.4592(2) 0.65431(15)
O3A O 0.0326(3) 0.7961(2) 0.40665(15)
O4A O -0.0574(3) 0.8493(3) 0.29785(17)
O5B O 0.6620(2) -0.3734(2) 0.66131(14)
O6B O 0.5544(3) -0.2346(2) 0.66154(14)
O7B O 0.6711(3) -0.0468(2) 0.73829(14)
O8B O 0.5948(3) 0.0113(2) 0.63096(14)
O9B O 0.3447(2) 0.0480(2) 0.50174(14)
O10B O 0.2456(3) 0.1887(2) 0.50671(15)
O11B O 0.3801(3) 0.3923(2) 0.58037(13)
O11A O 0.3801(3) 0.1077(2) 0.08037(13)
O11C O 0.6199(3) -0.1077(2) 0.91963(13)
O12B O 0.2779(2) 0.4230(2) 0.46805(14)
O13B O 0.5626(3) -0.1836(2) 0.78743(13)
H1B H 0.5692(8) -0.1924(15) 0.7508(3)
H2B H 0.5648(12) -0.2360(5) 0.8099(4)
O14B O 0.8096(2) -0.2189(3) 0.90180(16)
H3B H 0.8811(4) -0.2357(16) 0.9053(6)
H4B H 0.7850(6) -0.2471(11) 0.9284(4)
O15B O 0.8546(3) -0.0025(2) 0.96673(15)
H5B H 0.8361(8) -0.0319(7) 0.9956(3)
H6B H 0.8711(15) 0.0595(4) 0.9720(6)
O16B O 0.5486(2) 0.0527(2) 0.81582(12)
H7B H 0.5139(6) 0.0737(13) 0.8399(3)
H8B H 0.5026(17) 0.048(2) 0.7733(3)
O17B O 0.7998(2) 0.1041(2) 0.84038(15)
H9B H 0.8648(5) 0.104(2) 0.8337(4)
H10B H 0.8025(10) 0.1419(5) 0.8722(3)
N1A N 0.1948(3) 0.5627(3) 0.32737(16)
N1C N 0.8052(3) -0.5627(3) 0.67263(16)
N2B N 0.8437(3) -0.2685(2) 0.65401(16)
N3B N 0.5360(3) 0.1463(2) 0.50142(17)
C1A C 0.0083(4) 0.5556(3) 0.3435(2)
C2A C 0.1067(4) 0.6204(3) 0.3348(2)
C3A C 0.1038(4) 0.7257(3) 0.3310(2)
C4A C 0.0159(4) 0.7961(3) 0.3466(2)
C5A C 0.1963(4) 0.7707(3) 0.3165(2)
H11A H 0.1976 0.8410 0.3124
C6A C 0.2856(4) 0.7125(3) 0.3082(2)
H12A H 0.3470 0.7435 0.2986
C7A C 0.2843(4) 0.6077(3) 0.3140(2)
H13A H 0.3452 0.5685 0.3087
C8B C 0.6480(4) -0.2774(3) 0.6631(2)
C9B C 0.7543(4) -0.2142(3) 0.66215(19)
C10B C 0.7610(4) -0.1088(3) 0.6674(2)
C11B C 0.6668(4) -0.0427(3) 0.6792(2)
C12B C 0.8619(4) -0.0625(4) 0.6623(2)
H14B H 0.8693 0.0080 0.6651
C13B C 0.9520(4) -0.1196(3) 0.6533(2)
H15B H 1.0204 -0.0882 0.6503
C14B C 0.9387(4) -0.2234(3) 0.6486(2)
H16B H 0.9978 -0.2625 0.6416
C15B C 0.3355(4) 0.1451(3) 0.5060(2)
C16B C 0.4465(4) 0.2056(3) 0.50669(19)
C17B C 0.4568(4) 0.3106(3) 0.5100(2)
C18B C 0.3616(4) 0.3791(3) 0.5196(2)
C19B C 0.5621(4) 0.3545(3) 0.5082(2)
H17B H 0.5722 0.4247 0.5107
C20B C 0.6503(4) 0.2942(3) 0.5027(2)
H18B H 0.7211 0.3234 0.5011
C21B C 0.6364(4) 0.1903(3) 0.4994(2)
H19B H 0.6981 0.1500 0.4957
O18 O 0.7140(3) 0.2061(2) 0.3584(2)
H20 H 0.6661(8) 0.2550(5) 0.3561(12)
H21 H 0.6811(12) 0.1478(4) 0.352(2)
O19 O 0.4444(2) 0.3850(2) 0.18066(15)
H22 H 0.4821(5) 0.4172(9) 0.1617(4)
H23 H 0.3786(5) 0.4120(10) 0.1791(6)
O20 O 0.2099(3) 0.4706(2) 0.1543(2)
H24 H 0.1879(10) 0.5201(5) 0.1710(6)
H25 H 0.1963(15) 0.4125(4) 0.1659(8)
O21 O 0.1245(3) 0.5277(3) 0.0179(2)
H26 H 0.0730(7) 0.5763(6) 0.0080(10)
H27 H 0.1717(5) 0.526(2) -0.0019(4)
O22 O 0.0765(7) 0.7128(4) 0.5271(2)
H28 H 0.048(3) 0.7102(16) 0.4839(3)
H29 H 0.0644(15) 0.7688(6) 0.5423(6)
loop_
_geom_bond_atom_site_label_1
_geom_bond_atom_site_label_2
_geom_bond_site_symmetry_1
_geom_bond_site_symmetry_2
Tb1 O1 1_555 1_555
Cu1 O5 1_555 1_555
Cu2 O8 1_555 1_555
O1 C1 1_555 1_555
O2 C1 1_555 1_555
O3 C4 1_555 1_555
O4 C4 1_555 1_555
O5 C8 1_555 1_555
O6 C8 1_555 1_555
O7 Tb1 1_555 1_555
O8 C11 1_555 1_555
O9 Cu2 1_555 1_555
O10 C15 1_555 1_555
O11 C18 1_555 1_555
O12 C18 1_555 1_555
O13 Tb1 1_555 1_555
H1 O13 1_555 1_555
H2 O13 1_555 1_555
O14 Tb1 1_555 1_555
H3 O14 1_555 1_555
H4 O14 1_555 1_555
O15 Tb1 1_555 1_555
H5 O15 1_555 1_555
H6 O15 1_555 1_555
O16 Tb1 1_555 1_555
H7 O16 1_555 1_555
H8 O16 1_555 1_555
O17 Tb1 1_555 1_555
H9 O17 1_555 1_555
H10 O17 1_555 1_555
N1 C2 1_555 1_555
N2 Cu1 1_555 1_555
N3 Cu2 1_555 1_555
C1 C2 1_555 1_555
C2 C3 1_555 1_555
C3 C4 1_555 1_555
C5 C3 1_555 1_555
H11 C5 1_555 1_555
C6 C5 1_555 1_555
H12 C6 1_555 1_555
C7 N1 1_555 1_555
H13 C7 1_555 1_555
C8 C9 1_555 1_555
C9 N2 1_555 1_555
C10 C9 1_555 1_555
C11 O7 1_555 1_555
C12 C10 1_555 1_555
H14 C12 1_555 1_555
C13 C12 1_555 1_555
H15 C13 1_555 1_555
C14 N2 1_555 1_555
H16 C14 1_555 1_555
C15 O9 1_555 1_555
C16 N3 1_555 1_555
C17 C16 1_555 1_555
C18 C17 1_555 1_555
C19 C17 1_555 1_555
H17 C19 1_555 1_555
C20 C19 1_555 1_555
H18 C20 1_555 1_555
C21 N3 1_555 1_555
H19 C21 1_555 1_555
O18 H20 1_555 1_555
H21 O18 1_555 1_555
O19 H22 1_555 1_555
H23 O19 1_555 1_555
O20 H24 1_555 1_555
H25 O20 1_555 1_555
O21 H26 1_555 1_555
H27 O21 1_555 1_555
O22 H28 1_555 1_555
H29 O22 1_555 1_555
Tb1B O1B 1_555 1_555
Tb1A O11 1_555 1_555
Tb1C O11B 1_555 1_555
Tb1A_2 O1A 1_555 1_555
Cu1B O12 1_555 1_555
Cu1A O2 1_555 1_555
O1A C1A 1_555 1_555
O2A Cu1 1_555 1_555
O2C Cu1B 1_555 1_555
O3A C4A 1_555 1_555
O4A C4A 1_555 1_555
O5B Cu1B 1_555 1_555
O6B C8B 1_555 1_555
O7B Tb1B 1_555 1_555
O8B Cu2 1_555 1_555
O9B Cu2 1_555 1_555
O10B C15B 1_555 1_555
O11B C18B 1_555 1_555
O11A Tb1 1_555 1_555
O11C Tb1B 1_555 1_555
O12B Cu1 1_555 1_555
O13B Tb1B 1_555 1_555
H1B O13B 1_555 1_555
H2B O13B 1_555 1_555
O14B Tb1B 1_555 1_555
H3B O14B 1_555 1_555
H4B O14B 1_555 1_555
O15B Tb1B 1_555 1_555
H5B O15B 1_555 1_555
H6B O15B 1_555 1_555
O16B Tb1B 1_555 1_555
H7B O16B 1_555 1_555
H8B O16B 1_555 1_555
O17B Tb1B 1_555 1_555
H9B O17B 1_555 1_555
H10B O17B 1_555 1_555
N1A Cu1 1_555 1_555
N1C Cu1B 1_555 1_555
N2B Cu1B 1_555 1_555
N3B Cu2 1_555 1_555
C1A O2A 1_555 1_555
C2A N1A 1_555 1_555
C3A C2A 1_555 1_555
C4A C3A 1_555 1_555
C5A C3A 1_555 1_555
H11A C5A 1_555 1_555
C6A C5A 1_555 1_555
H12A C6A 1_555 1_555
C7A N1A 1_555 1_555
H13A C7A 1_555 1_555
C8B O5B 1_555 1_555
C9B N2B 1_555 1_555
C10B C9B 1_555 1_555
C11B O7B 1_555 1_555
C12B C10B 1_555 1_555
H14B C12B 1_555 1_555
C13B C12B 1_555 1_555
H15B C13B 1_555 1_555
C14B N2B 1_555 1_555
H16B C14B 1_555 1_555
C15B O9B 1_555 1_555
C16B N3B 1_555 1_555
C17B C16B 1_555 1_555
C18B O12B 1_555 1_555
C19B C17B 1_555 1_555
H17B C19B 1_555 1_555
C20B C19B 1_555 1_555
H18B C20B 1_555 1_555
C21B N3B 1_555 1_555
H19B C21B 1_555 1_555
N1 Cu1A 1_555 1_555
C6 C7 1_555 1_555
C10 C11 1_555 1_555
C13 C14 1_555 1_555
C15 C16 1_555 1_555
C20 C21 1_555 1_555
O8B C11B 1_555 1_555
C1A C2A 1_555 1_555
C6A C7A 1_555 1_555
C8B C9B 1_555 1_555
C10B C11B 1_555 1_555
C13B C14B 1_555 1_555
C15B C16B 1_555 1_555
C17B C18B 1_555 1_555
C20B C21B 1_555 1_555

#END
