
#######################################################################
#
#                 Cambridge Crystallographic Data Centre
#                                CCDC 
#
#######################################################################
#
# If this CIF has been generated from an entry in the Cambridge 
# Structural Database, then it will include bibliographic, chemical, 
# crystal, experimental, refinement or atomic coordinate data resulting 
# from the CCDC's data processing and validation procedures.
#
#######################################################################

data_XEJVEP
_symmetry_cell_setting           monoclinic
_symmetry_space_group_name_H-M   'C c'
_symmetry_Int_Tables_number      9
_space_group_name_Hall           'C -2yc'
loop_
_symmetry_equiv_pos_site_id
_symmetry_equiv_pos_as_xyz
1 x,y,z
2 x,-y,1/2+z
3 1/2+x,1/2+y,z
4 1/2+x,1/2-y,1/2+z
_cell_length_a                   9.762(2)
_cell_length_b                   29.088(6)
_cell_length_c                   6.8933(14)
_cell_angle_alpha                90
_cell_angle_beta                 134.71(3)
_cell_angle_gamma                90
_cell_volume                     1391.08
loop_
_atom_site_label
_atom_site_type_symbol
_atom_site_fract_x
_atom_site_fract_y
_atom_site_fract_z
Sr1 Sr 0.54414(8) 0.647131(14) 0.28105(9)
O1 O 0.8298(6) 0.60649(13) 0.7745(8)
O2 O 0.1943(6) 0.62419(17) -0.1352(8)
H1 H 0.1265 0.6077 -0.1273
H2 H 0.1376 0.6499 -0.2035
O3 O 0.9817(5) 0.54513(16) 1.0397(7)
H3 H 1.058(9) 0.557(2) 1.198(7)
O4 O 0.9472(6) 0.46155(16) 1.0022(8)
H4 H 0.973(11) 0.4899(8) 1.008(15)
O5 O 0.7186(6) 0.41059(15) 0.7102(8)
O6 O 0.4502(7) 0.73294(14) 0.2023(8)
O7 O 0.3534(6) 0.80527(14) 0.1155(7)
O8 O 0.4366(6) 0.66488(15) 0.5130(8)
O9 O 0.4945(6) 0.67478(14) 0.8853(7)
N1 N 0.5032(6) 0.55663(17) 0.3690(8)
N2 N 0.4640(6) 0.48071(18) 0.3370(9)
H5 H 0.411(9) 0.4541(10) 0.273(12)
N3 N 0.4303(6) 0.81423(16) 0.5693(8)
N4 N 0.4622(7) 0.76612(17) 0.8346(9)
H6 H 0.443(10) 0.750(2) 0.920(12)
C1 C 0.3846(7) 0.5221(2) 0.2152(10)
H7 H 0.2606 0.5258 0.0428
C2 C 0.6694(7) 0.53573(19) 0.6015(10)
C3 C 0.6479(7) 0.48910(19) 0.5858(9)
C4 C 0.8364(8) 0.5655(2) 0.8184(10)
C5 C 0.7747(7) 0.44983(19) 0.7706(10)
C6 C 0.4449(8) 0.8097(2) 0.7738(10)
H8 H 0.4432 0.8338 0.8610
C7 C 0.4346(7) 0.77127(19) 0.4907(10)
C8 C 0.4556(7) 0.7404(2) 0.6611(9)
C9 C 0.4093(7) 0.7690(2) 0.2463(9)
C10 C 0.4620(7) 0.68907(19) 0.6848(10)
Sr1A Sr 0.54414(8) 0.352869(14) 0.78105(9)
Sr1C Sr 0.04414(8) 0.852869(14) -0.21895(9)
Sr1_2 Sr 0.54414(8) 0.647131(14) 1.28105(9)
O5A O 0.7186(6) 0.58941(15) 0.2102(8)
O7C O 0.8534(6) 0.69473(14) 0.6155(7)
O9_2 O 0.4945(6) 0.67478(14) -0.1147(7)
O10 O 1.2401(6) 0.59400(14) 1.5205(7)
H9 H 1.306(9) 0.6137(17) 1.523(13)
H10 H 1.216(10) 0.604(2) 1.609(13)
loop_
_geom_bond_atom_site_label_1
_geom_bond_atom_site_label_2
_geom_bond_site_symmetry_1
_geom_bond_site_symmetry_2
Sr1 O1 1_555 1_555
O1 C4 1_555 1_555
O2 Sr1 1_555 1_555
H1 O2 1_555 1_555
H2 O2 1_555 1_555
O3 H3 1_555 1_555
O4 H4 1_555 1_555
O5 C5 1_555 1_555
O6 Sr1 1_555 1_555
O7 C9 1_555 1_555
O8 Sr1 1_555 1_555
O9 C10 1_555 1_555
N1 Sr1 1_555 1_555
N2 H5 1_555 1_555
N3 C6 1_555 1_555
N4 H6 1_555 1_555
C1 N1 1_555 1_555
H7 C1 1_555 1_555
C2 N1 1_555 1_555
C3 N2 1_555 1_555
C4 O3 1_555 1_555
C5 O4 1_555 1_555
C6 N4 1_555 1_555
H8 C6 1_555 1_555
C7 N3 1_555 1_555
C8 N4 1_555 1_555
C9 O6 1_555 1_555
C10 O8 1_555 1_555
O10 H9 1_555 1_555
H10 O10 1_555 1_555
Sr1A O5 1_555 1_555
Sr1C O7 1_555 1_555
Sr1_2 O9 1_555 1_555
O5A Sr1 1_555 1_555
O7C Sr1 1_555 1_555
O9_2 Sr1 1_555 1_555
N2 C1 1_555 1_555
C2 C3 1_555 1_555
C2 C4 1_555 1_555
C3 C5 1_555 1_555
C7 C8 1_555 1_555
C7 C9 1_555 1_555
C8 C10 1_555 1_555

#END
