
#######################################################################
#
#                 Cambridge Crystallographic Data Centre
#                                CCDC 
#
#######################################################################
#
# If this CIF has been generated from an entry in the Cambridge 
# Structural Database, then it will include bibliographic, chemical, 
# crystal, experimental, refinement or atomic coordinate data resulting 
# from the CCDC's data processing and validation procedures.
#
#######################################################################

data_XEKFAW
_symmetry_cell_setting           orthorhombic
_symmetry_space_group_name_H-M   'P b c a'
_symmetry_Int_Tables_number      61
_space_group_name_Hall           '-P 2ac 2ab'
loop_
_symmetry_equiv_pos_site_id
_symmetry_equiv_pos_as_xyz
1 x,y,z
2 1/2-x,-y,1/2+z
3 1/2+x,1/2-y,-z
4 -x,1/2+y,1/2-z
5 -x,-y,-z
6 1/2+x,y,1/2-z
7 1/2-x,1/2+y,z
8 x,1/2-y,1/2+z
_cell_length_a                   6.9683(8)
_cell_length_b                   14.1302(16)
_cell_length_c                   22.426(3)
_cell_angle_alpha                90
_cell_angle_beta                 90
_cell_angle_gamma                90
_cell_volume                     2208.14
loop_
_atom_site_label
_atom_site_type_symbol
_atom_site_fract_x
_atom_site_fract_y
_atom_site_fract_z
Co1 Co 0.51636(4) 0.72262(2) 0.918706(12)
Co2 Co 0.5000 0.5000 1.0000
P1 P 0.90045(7) 0.62141(4) 0.97483(2)
O1 O 0.7921(2) 0.69470(11) 0.93917(6)
O2 O 0.7746(2) 0.54466(11) 1.00225(6)
O3 O 1.0414(2) 0.57431(11) 0.92733(7)
H1 H 1.107(4) 0.5368(17) 0.9455(12)
O4 O 0.4025(2) 0.64350(11) 0.99966(7)
H2 H 0.449(4) 0.6792(18) 1.0251(10)
H3 H 0.282(3) 0.648(2) 1.0036(11)
O5 O 0.2246(2) 0.75693(12) 0.90364(7)
H4 H 0.143(4) 0.7148(17) 0.8988(13)
H5 H 0.174(4) 0.8085(15) 0.8926(13)
O6 O 1.0319(2) 0.66421(11) 1.02227(7)
N1 N 0.4695(3) 0.50916(13) 0.90516(8)
N2 N 0.4749(3) 0.58834(13) 0.87385(8)
N3 N 0.4441(3) 0.56920(13) 0.81599(8)
N4 N 0.4341(3) 0.43618(13) 0.86915(8)
N5 N 0.4046(3) 0.30749(13) 0.65607(8)
C1 C 0.4207(3) 0.47500(15) 0.81460(9)
C2 C 0.3974(3) 0.41921(15) 0.75962(9)
C3 C 0.4271(3) 0.45965(15) 0.70362(9)
H6 H 0.4446 0.5246 0.6998
C4 C 0.4301(3) 0.40204(16) 0.65382(10)
H7 H 0.4508 0.4299 0.6168
C5 C 0.3580(3) 0.32254(15) 0.76168(9)
H8 H 0.3288 0.2935 0.7978
C6 C 0.3626(3) 0.27006(15) 0.70954(10)
H9 H 0.3353 0.2057 0.7117
Co1D Co 0.48364(4) 0.27738(2) 1.081294(12)
Co1B Co 1.01636(4) 0.77738(2) 1.081294(12)
Co1C Co 0.48364(4) 0.22262(2) 0.581294(12)
Co1F Co -0.01636(4) 0.22262(2) 0.918706(12)
Co1G Co 0.51636(4) 0.77738(2) 1.418706(12)
P1D P 0.09955(7) 0.37859(4) 1.02517(2)
O1D O 0.2079(2) 0.30530(11) 1.06083(6)
O2D O 0.2254(2) 0.45534(11) 0.99775(6)
O3D O -0.0414(2) 0.42569(11) 1.07267(7)
H1D H -0.107(4) 0.4632(17) 1.0545(12)
O4D O 0.5975(2) 0.35650(11) 1.00034(7)
H2D H 0.551(4) 0.3208(18) 0.9749(10)
H3D H 0.718(3) 0.352(2) 0.9964(11)
O5D O 0.7754(2) 0.24307(12) 1.09636(7)
H4D H 0.857(4) 0.2852(17) 1.1012(13)
H5D H 0.826(4) 0.1915(15) 1.1074(13)
O6D O -0.0319(2) 0.33579(11) 0.97773(7)
O6B O 0.5319(2) 0.83579(11) 0.97773(7)
O6F O 0.4681(2) 0.16421(11) 1.02227(7)
N1D N 0.5305(3) 0.49084(13) 1.09484(8)
N2D N 0.5251(3) 0.41166(13) 1.12615(8)
N3D N 0.5559(3) 0.43080(13) 1.18401(8)
N4D N 0.5659(3) 0.56382(13) 1.13085(8)
N5D N 0.5954(3) 0.69251(13) 1.34393(8)
N5C N 0.5954(3) 0.80749(13) 0.84393(8)
N5G N 0.4046(3) 0.19251(13) 1.15607(8)
C1D C 0.5793(3) 0.52500(15) 1.18540(9)
C2D C 0.6026(3) 0.58079(15) 1.24038(9)
C3D C 0.5729(3) 0.54035(15) 1.29638(9)
H6D H 0.5554 0.4754 1.3002
C4D C 0.5699(3) 0.59796(16) 1.34618(10)
H7D H 0.5492 0.5701 1.3832
C5D C 0.6420(3) 0.67746(15) 1.23832(9)
H8D H 0.6712 0.7065 1.2022
C6D C 0.6374(3) 0.72994(15) 1.29046(10)
H9D H 0.6647 0.7943 1.2883
loop_
_geom_bond_atom_site_label_1
_geom_bond_atom_site_label_2
_geom_bond_site_symmetry_1
_geom_bond_site_symmetry_2
Co1 O1 1_555 1_555
Co2 O2 1_555 1_555
P1 O1 1_555 1_555
O2 P1 1_555 1_555
O3 P1 1_555 1_555
H1 O3 1_555 1_555
O4 Co1 1_555 1_555
H2 O4 1_555 1_555
H3 O4 1_555 1_555
O5 Co1 1_555 1_555
H4 O5 1_555 1_555
H5 O5 1_555 1_555
O6 P1 1_555 1_555
N1 Co2 1_555 1_555
N2 Co1 1_555 1_555
N3 N2 1_555 1_555
N4 N1 1_555 1_555
N5 C4 1_555 1_555
C1 N3 1_555 1_555
C2 C1 1_555 1_555
C3 C2 1_555 1_555
H6 C3 1_555 1_555
C4 C3 1_555 1_555
H7 C4 1_555 1_555
C5 C2 1_555 1_555
H8 C5 1_555 1_555
C6 N5 1_555 1_555
H9 C6 1_555 1_555
Co1D O1D 1_555 1_555
Co1B O6 1_555 1_555
Co1C N5 1_555 1_555
Co1F O6D 1_555 1_555
Co1G N5D 1_555 1_555
P1D O1D 1_555 1_555
O2D Co2 1_555 1_555
O3D P1D 1_555 1_555
H1D O3D 1_555 1_555
O4D Co2 1_555 1_555
H2D O4D 1_555 1_555
H3D O4D 1_555 1_555
O5D Co1D 1_555 1_555
H4D O5D 1_555 1_555
H5D O5D 1_555 1_555
O6D P1D 1_555 1_555
O6B Co1 1_555 1_555
O6F Co1D 1_555 1_555
N1D Co2 1_555 1_555
N2D Co1D 1_555 1_555
N3D N2D 1_555 1_555
N4D N1D 1_555 1_555
N5D C4D 1_555 1_555
N5C Co1 1_555 1_555
N5G Co1D 1_555 1_555
C1D N3D 1_555 1_555
C2D C1D 1_555 1_555
C3D C2D 1_555 1_555
H6D C3D 1_555 1_555
C4D C3D 1_555 1_555
H7D C4D 1_555 1_555
C5D C2D 1_555 1_555
H8D C5D 1_555 1_555
C6D N5D 1_555 1_555
H9D C6D 1_555 1_555
Co2 O4 1_555 1_555
N1 N2 1_555 1_555
N4 C1 1_555 1_555
C5 C6 1_555 1_555
Co1D O4D 1_555 1_555
P1D O2D 1_555 1_555
N1D N2D 1_555 1_555
N4D C1D 1_555 1_555
C5D C6D 1_555 1_555

#END
