
#######################################################################
#
#                 Cambridge Crystallographic Data Centre
#                                CCDC 
#
#######################################################################
#
# If this CIF has been generated from an entry in the Cambridge 
# Structural Database, then it will include bibliographic, chemical, 
# crystal, experimental, refinement or atomic coordinate data resulting 
# from the CCDC's data processing and validation procedures.
#
#######################################################################

data_XEKRAI
_symmetry_cell_setting           orthorhombic
_symmetry_space_group_name_H-M   'A b a 2'
_symmetry_Int_Tables_number      41
_space_group_name_Hall           'A 2 -2ac'
loop_
_symmetry_equiv_pos_site_id
_symmetry_equiv_pos_as_xyz
1 x,y,z
2 -x,-y,z
3 1/2-x,y,1/2+z
4 1/2+x,-y,1/2+z
5 x,1/2+y,1/2+z
6 -x,1/2-y,1/2+z
7 1/2-x,1/2+y,z
8 1/2+x,1/2-y,z
_cell_length_a                   17.335(5)
_cell_length_b                   26.819(7)
_cell_length_c                   9.015(2)
_cell_angle_alpha                90
_cell_angle_beta                 90
_cell_angle_gamma                90
_cell_volume                     4191.14
loop_
_atom_site_label
_atom_site_type_symbol
_atom_site_fract_x
_atom_site_fract_y
_atom_site_fract_z
S1 S 0.5000 0.0000 0.1644(17)
Co1 Co 0.67318(8) 0.15891(4) 0.7189(15)
C1 C 0.7267(7) -0.2444(4) 0.7088(15)
H1 H 0.6861 -0.2669 0.6999
C2 C 0.8394(9) -0.1764(5) 0.734(3)
H2 H 0.8806 -0.1545 0.7439
C3 C 0.7101(9) -0.1943(4) 0.6987(7)
H3 H 0.6592 -0.1846 0.6830
O1 O 0.6465(7) 0.1537(4) 0.9423(19)
H4 H 0.6464 0.1827 0.9800
H5 H 0.6020 0.1407 0.9521
O2 O 0.6935(6) 0.1635(3) 0.4860(19)
O3 O 0.7099(5) 0.1404(3) 0.2545(18)
O4 O 0.5578(6) 0.1772(4) 0.6832(19)
O5 O 0.5128(10) 0.2163(6) 0.480(3)
O6 O 0.4324(10) 0.0082(7) 0.088(3)
N1 N 0.6641(6) 0.0766(4) 0.691(2)
N2 N 0.7980(5) -0.2630(3) 0.731(2)
C4 C 0.7660(7) -0.1578(4) 0.7110(18)
C5 C 0.6209(9) -0.0032(5) 0.764(2)
H6 H 0.5821 -0.0219 0.8087
C6 C 0.6808(7) -0.0264(4) 0.703(3)
C7 C 0.6911(8) -0.0806(4) 0.711(2)
H7 H 0.6498 -0.0988 0.7483
C8 C 0.6724(7) 0.1419(5) 0.372(2)
C9 C 0.6156(8) 0.0482(5) 0.763(2)
H8 H 0.5757 0.0632 0.8155
C10 C 0.7304(9) 0.0038(5) 0.611(2)
H9 H 0.7681 -0.0105 0.5509
C11 C 0.7197(8) 0.0542(5) 0.614(2)
H10 H 0.7534 0.0740 0.5601
C12 C 0.5932(8) 0.1160(5) 0.372(2)
C13 C 0.5368(9) 0.1806(8) 0.547(3)
C14 C 0.5142(10) 0.0500(7) 0.284(2)
C15 C 0.7512(9) -0.1054(5) 0.672(3)
H11 H 0.7882 -0.0890 0.6159
C16 C 0.5340(9) 0.1319(7) 0.460(2)
C17 C 0.5826(9) 0.0748(6) 0.277(2)
H12 H 0.6212 0.0648 0.2119
C18 C 0.4622(12) 0.1075(10) 0.452(3)
H13 H 0.4197 0.1204 0.5021
C19 C 0.4554(13) 0.0652(9) 0.372(3)
H14 H 0.4103 0.0465 0.3767
C20 C 0.8524(9) -0.2273(4) 0.744(3)
H15 H 0.9028 -0.2377 0.7601
Co1A Co 0.32682(8) -0.15891(4) 0.7189(15)
Co1B Co 0.82682(8) 0.15891(4) 0.2189(15)
Co1C Co 0.17318(8) -0.15891(4) 0.2189(15)
Co1F Co 0.82682(8) -0.34109(4) 0.7189(15)
Co1G Co 0.17318(8) 0.34109(4) 0.7189(15)
C1A C 0.2733(7) 0.2444(4) 0.7088(15)
H1A H 0.3139 0.2669 0.6999
C2A C 0.1606(9) 0.1764(5) 0.734(3)
H2A H 0.1194 0.1545 0.7439
C3A C 0.2899(9) 0.1943(4) 0.6987(7)
H3A H 0.3408 0.1846 0.6830
O1A O 0.3535(7) -0.1537(4) 0.9423(19)
H4A H 0.3536 -0.1827 0.9800
H5A H 0.3980 -0.1407 0.9521
O2A O 0.3065(6) -0.1635(3) 0.4860(19)
O3A O 0.2901(5) -0.1404(3) 0.2545(18)
O3B O 0.7901(5) 0.1404(3) 0.7545(18)
O3C O 0.2099(5) -0.1404(3) 0.7545(18)
O4A O 0.4422(6) -0.1772(4) 0.6832(19)
O5A O 0.4872(10) -0.2163(6) 0.480(3)
O6A O 0.5676(10) -0.0082(7) 0.088(3)
N1A N 0.3359(6) -0.0766(4) 0.691(2)
N2A N 0.2020(5) 0.2630(3) 0.731(2)
N2F N 0.7020(5) 0.2370(3) 0.731(2)
N2G N 0.2980(5) -0.2370(3) 0.731(2)
C4A C 0.2340(7) 0.1578(4) 0.7110(18)
C5A C 0.3791(9) 0.0032(5) 0.764(2)
H6A H 0.4179 0.0219 0.8087
C6A C 0.3192(7) 0.0264(4) 0.703(3)
C7A C 0.3089(8) 0.0806(4) 0.711(2)
H7A H 0.3502 0.0988 0.7483
C8A C 0.3276(7) -0.1419(5) 0.372(2)
C9A C 0.3844(8) -0.0482(5) 0.763(2)
H8A H 0.4243 -0.0632 0.8155
C10A C 0.2696(9) -0.0038(5) 0.611(2)
H9A H 0.2319 0.0105 0.5509
C11A C 0.2803(8) -0.0542(5) 0.614(2)
H10A H 0.2466 -0.0740 0.5601
C12A C 0.4068(8) -0.1160(5) 0.372(2)
C13A C 0.4632(9) -0.1806(8) 0.547(3)
C14A C 0.4858(10) -0.0500(7) 0.284(2)
C15A C 0.2488(9) 0.1054(5) 0.672(3)
H11A H 0.2118 0.0890 0.6159
C16A C 0.4660(9) -0.1319(7) 0.460(2)
C17A C 0.4174(9) -0.0748(6) 0.277(2)
H12A H 0.3788 -0.0648 0.2119
C18A C 0.5378(12) -0.1075(10) 0.452(3)
H13A H 0.5803 -0.1204 0.5021
C19A C 0.5446(13) -0.0652(9) 0.372(3)
H14A H 0.5897 -0.0465 0.3767
C20A C 0.1476(9) 0.2273(4) 0.744(3)
H15A H 0.0972 0.2377 0.7601
O7 O 0.0429(13) 0.1290(9) 0.393(4)
O8 O 0.0333(9) 0.3014(7) 0.126(3)
loop_
_geom_bond_atom_site_label_1
_geom_bond_atom_site_label_2
_geom_bond_site_symmetry_1
_geom_bond_site_symmetry_2
S1 O6 1_555 1_555
Co1 O1 1_555 1_555
C1 H1 1_555 1_555
C2 H2 1_555 1_555
C3 C1 1_555 1_555
H3 C3 1_555 1_555
O1 H4 1_555 1_555
H5 O1 1_555 1_555
O2 Co1 1_555 1_555
O3 C8 1_555 1_555
O4 Co1 1_555 1_555
O5 C13 1_555 1_555
N1 Co1 1_555 1_555
N2 C1 1_555 1_555
C4 C2 1_555 1_555
C5 H6 1_555 1_555
C6 C5 1_555 1_555
C7 C6 1_555 1_555
H7 C7 1_555 1_555
C8 O2 1_555 1_555
C9 N1 1_555 1_555
H8 C9 1_555 1_555
C10 C6 1_555 1_555
H9 C10 1_555 1_555
C11 N1 1_555 1_555
H10 C11 1_555 1_555
C12 C8 1_555 1_555
C13 O4 1_555 1_555
C14 S1 1_555 1_555
C15 C4 1_555 1_555
H11 C15 1_555 1_555
C16 C12 1_555 1_555
C17 C12 1_555 1_555
H12 C17 1_555 1_555
C18 C16 1_555 1_555
H13 C18 1_555 1_555
C19 C14 1_555 1_555
H14 C19 1_555 1_555
C20 C2 1_555 1_555
H15 C20 1_555 1_555
Co1A O1A 1_555 1_555
Co1B O3 1_555 1_555
Co1C O3A 1_555 1_555
Co1F N2 1_555 1_555
Co1G N2A 1_555 1_555
C1A H1A 1_555 1_555
C2A H2A 1_555 1_555
C3A C1A 1_555 1_555
H3A C3A 1_555 1_555
O1A H4A 1_555 1_555
H5A O1A 1_555 1_555
O2A Co1A 1_555 1_555
O3A C8A 1_555 1_555
O3B Co1 1_555 1_555
O3C Co1A 1_555 1_555
O4A Co1A 1_555 1_555
O5A C13A 1_555 1_555
O6A S1 1_555 1_555
N1A Co1A 1_555 1_555
N2A C1A 1_555 1_555
N2F Co1 1_555 1_555
N2G Co1A 1_555 1_555
C4A C2A 1_555 1_555
C5A H6A 1_555 1_555
C6A C5A 1_555 1_555
C7A C6A 1_555 1_555
H7A C7A 1_555 1_555
C8A O2A 1_555 1_555
C9A N1A 1_555 1_555
H8A C9A 1_555 1_555
C10A C6A 1_555 1_555
H9A C10A 1_555 1_555
C11A N1A 1_555 1_555
H10A C11A 1_555 1_555
C12A C8A 1_555 1_555
C13A O4A 1_555 1_555
C14A S1 1_555 1_555
C15A C4A 1_555 1_555
H11A C15A 1_555 1_555
C16A C12A 1_555 1_555
C17A C12A 1_555 1_555
H12A C17A 1_555 1_555
C18A C16A 1_555 1_555
H13A C18A 1_555 1_555
C19A C14A 1_555 1_555
H14A C19A 1_555 1_555
C20A C2A 1_555 1_555
H15A C20A 1_555 1_555
C3 C4 1_555 1_555
N2 C20 1_555 1_555
C5 C9 1_555 1_555
C7 C15 1_555 1_555
C10 C11 1_555 1_555
C13 C16 1_555 1_555
C14 C17 1_555 1_555
C18 C19 1_555 1_555
C3A C4A 1_555 1_555
N2A C20A 1_555 1_555
C5A C9A 1_555 1_555
C7A C15A 1_555 1_555
C10A C11A 1_555 1_555
C13A C16A 1_555 1_555
C14A C17A 1_555 1_555
C18A C19A 1_555 1_555

#END
