
#######################################################################
#
#                 Cambridge Crystallographic Data Centre
#                                CCDC 
#
#######################################################################
#
# If this CIF has been generated from an entry in the Cambridge 
# Structural Database, then it will include bibliographic, chemical, 
# crystal, experimental, refinement or atomic coordinate data resulting 
# from the CCDC's data processing and validation procedures.
#
#######################################################################

data_XEKXOB
_symmetry_cell_setting           monoclinic
_symmetry_space_group_name_H-M   'P 2/c'
_symmetry_Int_Tables_number      13
_space_group_name_Hall           '-P 2yc'
loop_
_symmetry_equiv_pos_site_id
_symmetry_equiv_pos_as_xyz
1 x,y,z
2 -x,y,1/2-z
3 -x,-y,-z
4 x,-y,1/2+z
_cell_length_a                   5.3405(11)
_cell_length_b                   10.088(2)
_cell_length_c                   13.296(3)
_cell_angle_alpha                90
_cell_angle_beta                 95.34(3)
_cell_angle_gamma                90
_cell_volume                     713.213
loop_
_atom_site_label
_atom_site_type_symbol
_atom_site_fract_x
_atom_site_fract_y
_atom_site_fract_z
Mn1 Mn 0.5000 0.52560(6) 0.2500
S1 S 0.33109(17) 0.04972(7) 0.08763(7)
S2 S 0.0000 0.15947(9) 0.2500
O1 O 0.3296(3) 0.3769(2) 0.14824(15)
O2 O 0.6148(4) 0.3359(2) 0.03950(15)
O3 O 0.2867(5) 0.6731(2) 0.15431(18)
O4 O 0.2002(4) 0.5372(2) 0.35061(17)
C1 C 0.4072(5) 0.3165(3) 0.07443(19)
C2 C 0.2412(6) 0.2065(3) 0.0277(2)
H1 H 0.2589 0.2011 -0.0441
H2 H 0.0666 0.2255 0.0365
C3 C 0.1272(5) 0.0348(3) 0.1818(2)
N1 N 0.0721(5) -0.0847(2) 0.20991(19)
H3 H 0.322(7) 0.676(4) 0.098(3)
H4 H 0.212(7) 0.459(4) 0.401(3)
H5 H 0.068(10) 0.563(6) 0.345(5)
H6 H 0.271(9) 0.756(6) 0.176(4)
Mn1_2 Mn -0.5000 0.52560(6) 0.2500
S1A S -0.33109(17) 0.04972(7) 0.41237(7)
O1A O -0.3296(3) 0.3769(2) 0.35176(15)
O1A_2 O 0.6704(3) 0.3769(2) 0.35176(15)
O2A O -0.6148(4) 0.3359(2) 0.46050(15)
O3A O 0.7133(5) 0.6731(2) 0.34569(18)
O4A O 0.7998(4) 0.5372(2) 0.14939(17)
C1A C -0.4072(5) 0.3165(3) 0.42557(19)
C2A C -0.2412(6) 0.2065(3) 0.4723(2)
H1A H -0.2589 0.2011 0.5441
H2A H -0.0666 0.2255 0.4635
C3A C -0.1272(5) 0.0348(3) 0.3182(2)
N1A N -0.0721(5) -0.0847(2) 0.29009(19)
H3A H 0.678(7) 0.676(4) 0.402(3)
H4A H 0.788(7) 0.459(4) 0.099(3)
H5A H 0.932(10) 0.563(6) 0.155(5)
H6A H 0.729(9) 0.756(6) 0.324(4)
loop_
_geom_bond_atom_site_label_1
_geom_bond_atom_site_label_2
_geom_bond_site_symmetry_1
_geom_bond_site_symmetry_2
Mn1 O1 1_555 1_555
S1 C2 1_555 1_555
S2 C3 1_555 1_555
O1 C1 1_555 1_555
O2 C1 1_555 1_555
O3 Mn1 1_555 1_555
O4 Mn1 1_555 1_555
C1 C2 1_555 1_555
C2 H1 1_555 1_555
H2 C2 1_555 1_555
C3 S1 1_555 1_555
N1 C3 1_555 1_555
H3 O3 1_555 1_555
H4 O4 1_555 1_555
H5 O4 1_555 1_555
H6 O3 1_555 1_555
Mn1_2 O1A 1_555 1_555
S1A C2A 1_555 1_555
O1A C1A 1_555 1_555
O1A_2 Mn1 1_555 1_555
O2A C1A 1_555 1_555
O3A Mn1 1_555 1_555
O4A Mn1 1_555 1_555
C1A C2A 1_555 1_555
C2A H1A 1_555 1_555
H2A C2A 1_555 1_555
C3A S2 1_555 1_555
N1A N1 1_555 1_555
H3A O3A 1_555 1_555
H4A O4A 1_555 1_555
H5A O4A 1_555 1_555
H6A O3A 1_555 1_555
S1A C3A 1_555 1_555
C3A N1A 1_555 1_555

#END
