
#######################################################################
#
#                 Cambridge Crystallographic Data Centre
#                                CCDC 
#
#######################################################################
#
# If this CIF has been generated from an entry in the Cambridge 
# Structural Database, then it will include bibliographic, chemical, 
# crystal, experimental, refinement or atomic coordinate data resulting 
# from the CCDC's data processing and validation procedures.
#
#######################################################################

data_XELGOM
_symmetry_cell_setting           triclinic
_symmetry_space_group_name_H-M   'P -1'
_symmetry_Int_Tables_number      2
_space_group_name_Hall           '-P 1'
loop_
_symmetry_equiv_pos_site_id
_symmetry_equiv_pos_as_xyz
1 x,y,z
2 -x,-y,-z
_cell_length_a                   6.7456(13)
_cell_length_b                   7.5489(15)
_cell_length_c                   13.413(3)
_cell_angle_alpha                87.22(3)
_cell_angle_beta                 80.94(3)
_cell_angle_gamma                71.84(3)
_cell_volume                     640.897
loop_
_atom_site_label
_atom_site_type_symbol
_atom_site_fract_x
_atom_site_fract_y
_atom_site_fract_z
La1 La 0.74233(4) 0.83553(3) 0.736906(18)
Cl1 Cl 0.40095(17) 1.08662(15) 0.64643(8)
Cl2 Cl 0.49297(17) 0.58636(15) 0.72740(9)
O1 O 0.7447(6) 1.1631(5) 0.7675(3)
H1 H 0.663(8) 1.276(8) 0.748(4)
H2 H 0.807(9) 1.178(8) 0.801(5)
O2 O 1.0575(5) 0.8990(5) 0.6239(2)
H3 H 1.122(9) 0.946(8) 0.628(4)
O3 O 0.7226(5) 0.6892(4) 0.9107(2)
H4 H 0.796(8) 0.602(7) 0.917(4)
O4 O 0.8099(5) 0.7482(5) 0.5481(2)
H5 H 0.729(8) 0.774(7) 0.515(4)
O5 O 0.4293(5) 0.9830(4) 0.8755(2)
H6 H 0.339(8) 1.040(8) 0.872(4)
O6 O 1.0445(6) 0.8366(5) 0.8364(3)
H7 H 1.032(8) 0.807(7) 0.893(4)
H8 H 1.169(9) 0.795(8) 0.817(4)
O7 O 1.0351(6) 0.5206(5) 0.7148(3)
H9 H 1.160(9) 0.517(7) 0.697(4)
H10 H 1.038(8) 0.437(8) 0.756(4)
C1 C 0.4382(7) 0.9423(6) 0.9803(3)
H11 H 0.298(8) 0.973(7) 1.020(4)
C2 C 0.5380(7) 0.7344(6) 0.9852(3)
H12 H 0.442(8) 0.676(7) 0.973(4)
H13 H 0.573(8) 0.701(7) 1.048(4)
C3 C 1.0705(7) 0.9056(6) 0.5154(3)
H14 H 1.217(8) 0.885(7) 0.491(4)
C4 C 1.0088(7) 0.7399(7) 0.4884(4)
H15 H 1.001(8) 0.752(7) 0.411(4)
H16 H 1.113(8) 0.631(7) 0.502(4)
La1A La 0.25767(4) 1.16447(3) 1.263094(18)
La1A_2 La 1.25767(4) 1.16447(3) 0.263094(18)
Cl1A Cl 0.59905(17) 0.91338(15) 1.35357(8)
Cl2A Cl 0.50703(17) 1.41364(15) 1.27260(9)
O1A O 0.2553(6) 0.8369(5) 1.2325(3)
H1A H 0.337(8) 0.724(8) 1.252(4)
H2A H 0.193(9) 0.822(8) 1.199(5)
O2A O 0.9425(5) 1.1010(5) 0.3761(2)
O2A_2 O -0.0575(5) 1.1010(5) 1.3761(2)
H3A H 0.878(9) 1.054(8) 0.372(4)
O3A O 0.2774(5) 1.3108(4) 1.0893(2)
H4A H 0.204(8) 1.398(7) 1.083(4)
O4A O 1.1901(5) 1.2518(5) 0.4519(2)
O4A_2 O 0.1901(5) 1.2518(5) 1.4519(2)
H5A H 1.271(8) 1.226(7) 0.485(4)
O5A O 0.5707(5) 1.0170(4) 1.1245(2)
H6A H 0.661(8) 0.960(8) 1.128(4)
O6A O -0.0445(6) 1.1634(5) 1.1636(3)
H7A H -0.032(8) 1.193(7) 1.107(4)
H8A H -0.169(9) 1.205(8) 1.183(4)
O7A O -0.0351(6) 1.4794(5) 1.2852(3)
H9A H -0.160(9) 1.483(7) 1.303(4)
H10A H -0.038(8) 1.563(8) 1.244(4)
C1A C 0.5618(7) 1.0577(6) 1.0197(3)
H11A H 0.702(8) 1.027(7) 0.980(4)
C2A C 0.4620(7) 1.2656(6) 1.0148(3)
H12A H 0.558(8) 1.324(7) 1.027(4)
H13A H 0.427(8) 1.299(7) 0.952(4)
C3A C 0.9295(7) 1.0944(6) 0.4846(3)
H14A H 0.783(8) 1.115(7) 0.509(4)
C4A C 0.9912(7) 1.2601(7) 0.5116(4)
H15A H 0.999(8) 1.248(7) 0.589(4)
H16A H 0.887(8) 1.369(7) 0.498(4)
Cl3 Cl 0.99092(17) 0.28151(15) 0.91725(8)
loop_
_geom_bond_atom_site_label_1
_geom_bond_atom_site_label_2
_geom_bond_site_symmetry_1
_geom_bond_site_symmetry_2
La1 Cl1 1_555 1_555
Cl2 La1 1_555 1_555
O1 La1 1_555 1_555
H1 O1 1_555 1_555
H2 O1 1_555 1_555
O2 La1 1_555 1_555
H3 O2 1_555 1_555
O3 La1 1_555 1_555
H4 O3 1_555 1_555
O4 La1 1_555 1_555
H5 O4 1_555 1_555
O5 La1 1_555 1_555
H6 O5 1_555 1_555
O6 La1 1_555 1_555
H7 O6 1_555 1_555
H8 O6 1_555 1_555
O7 La1 1_555 1_555
H9 O7 1_555 1_555
H10 O7 1_555 1_555
C1 O5 1_555 1_555
H11 C1 1_555 1_555
C2 O3 1_555 1_555
H12 C2 1_555 1_555
H13 C2 1_555 1_555
C3 O2 1_555 1_555
H14 C3 1_555 1_555
C4 O4 1_555 1_555
H15 C4 1_555 1_555
H16 C4 1_555 1_555
La1A Cl1A 1_555 1_555
La1A_2 O2A 1_555 1_555
Cl2A La1A 1_555 1_555
O1A La1A 1_555 1_555
H1A O1A 1_555 1_555
H2A O1A 1_555 1_555
O2A H3A 1_555 1_555
O2A_2 La1A 1_555 1_555
O3A La1A 1_555 1_555
H4A O3A 1_555 1_555
O4A La1A_2 1_555 1_555
O4A_2 La1A 1_555 1_555
H5A O4A 1_555 1_555
O5A La1A 1_555 1_555
H6A O5A 1_555 1_555
O6A La1A 1_555 1_555
H7A O6A 1_555 1_555
H8A O6A 1_555 1_555
O7A La1A 1_555 1_555
H9A O7A 1_555 1_555
H10A O7A 1_555 1_555
C1A C1 1_555 1_555
H11A C1A 1_555 1_555
C2A O3A 1_555 1_555
H12A C2A 1_555 1_555
H13A C2A 1_555 1_555
C3A C3 1_555 1_555
H14A C3A 1_555 1_555
C4A O4A 1_555 1_555
H15A C4A 1_555 1_555
H16A C4A 1_555 1_555
C1 C2 1_555 1_555
C3 C4 1_555 1_555
O2A C3A 1_555 1_555
O5A C1A 1_555 1_555
C1A C2A 1_555 1_555
C3A C4A 1_555 1_555

#END
