
#######################################################################
#
#                 Cambridge Crystallographic Data Centre
#                                CCDC 
#
#######################################################################
#
# If this CIF has been generated from an entry in the Cambridge 
# Structural Database, then it will include bibliographic, chemical, 
# crystal, experimental, refinement or atomic coordinate data resulting 
# from the CCDC's data processing and validation procedures.
#
#######################################################################

data_XELGUS
_symmetry_cell_setting           orthorhombic
_symmetry_space_group_name_H-M   'P b c a'
_symmetry_Int_Tables_number      61
_space_group_name_Hall           '-P 2ac 2ab'
loop_
_symmetry_equiv_pos_site_id
_symmetry_equiv_pos_as_xyz
1 x,y,z
2 1/2-x,-y,1/2+z
3 -x,1/2+y,1/2-z
4 1/2+x,1/2-y,-z
5 -x,-y,-z
6 1/2+x,y,1/2-z
7 x,1/2-y,1/2+z
8 1/2-x,1/2+y,z
_cell_length_a                   13.772(3)
_cell_length_b                   14.243(3)
_cell_length_c                   15.300(3)
_cell_angle_alpha                90
_cell_angle_beta                 90
_cell_angle_gamma                90
_cell_volume                     3001.17
loop_
_atom_site_label
_atom_site_type_symbol
_atom_site_fract_x
_atom_site_fract_y
_atom_site_fract_z
La1 La 0.158668(15) 0.247841(15) 0.968807(14)
Cl1 Cl 0.31431(7) 0.11250(7) 0.95783(7)
Cl2 Cl 0.31168(7) 0.37464(7) 0.90497(6)
O1 O -0.0158(3) 0.2479(2) 1.0161(3)
H1 H -0.060(3) 0.288(3) 1.015(4)
H2 H -0.046(4) 0.207(3) 1.044(3)
O2 O 0.0836(2) 0.0809(2) 0.95638(19)
H3 H 0.032(2) 0.071(3) 0.928(3)
H4 H 0.124(3) 0.037(3) 0.957(3)
O3 O 0.1090(2) 0.4126(2) 1.0154(2)
H5 H 0.140(3) 0.459(3) 0.997(3)
H6 H 0.072(3) 0.432(3) 1.054(2)
O4 O 0.1383(2) 0.1595(2) 1.11571(17)
H7 H 0.128(3) 0.1008(15) 1.119(3)
O5 O 0.0564(2) 0.1678(2) 1.35278(18)
H8 H 0.031(3) 0.115(2) 1.357(3)
O6 O 0.2653(2) 0.2931(2) 1.09884(18)
H9 H 0.304(3) 0.338(2) 1.102(3)
O7 O 0.1662(2) 0.3043(2) 1.31048(17)
H10 H 0.176(3) 0.3615(16) 1.300(3)
C1 C 0.1172(3) 0.2611(3) 1.2379(3)
H11 H 0.095(3) 0.306(3) 1.200(3)
C2 C 0.2819(3) 0.2295(3) 1.1701(3)
H12 H 0.3114 0.2630 1.2202
H13 H 0.3262 0.1783 1.1520
C3 C 0.1846(3) 0.1905(3) 1.1949(2)
H14 H 0.197(3) 0.141(3) 1.231(3)
C4 C 0.0271(3) 0.2166(3) 1.2751(2)
H15 H -0.0016 0.1722 1.2325
H16 H -0.0218 0.2652 1.2893
La1F La 0.158668(15) 0.252159(15) 1.468807(14)
O5F O 0.0564(2) 0.3322(2) 0.85278(18)
O7F O 0.1662(2) 0.1957(2) 0.81048(17)
Cl3 Cl 0.40041(7) 0.04666(7) 0.66385(6)
O8 O 0.1975(2) 0.0221(2) 0.75471(19)
H17 H 0.204(4) -0.009(3) 0.802(2)
H18 H 0.245(2) 0.021(4) 0.722(3)
O9 O 0.5241(3) 0.0055(3) 0.8377(2)
H19 H 0.469(2) 0.032(4) 0.844(4)
H20 H 0.562(3) 0.012(4) 0.794(3)
loop_
_geom_bond_atom_site_label_1
_geom_bond_atom_site_label_2
_geom_bond_site_symmetry_1
_geom_bond_site_symmetry_2
La1 Cl1 1_555 1_555
Cl2 La1 1_555 1_555
O1 La1 1_555 1_555
H1 O1 1_555 1_555
H2 O1 1_555 1_555
O2 La1 1_555 1_555
H3 O2 1_555 1_555
H4 O2 1_555 1_555
O3 La1 1_555 1_555
H5 O3 1_555 1_555
H6 O3 1_555 1_555
O4 La1 1_555 1_555
H7 O4 1_555 1_555
O5 H8 1_555 1_555
O6 La1 1_555 1_555
H9 O6 1_555 1_555
O7 H10 1_555 1_555
C1 O7 1_555 1_555
H11 C1 1_555 1_555
C2 O6 1_555 1_555
H12 C2 1_555 1_555
H13 C2 1_555 1_555
C3 O4 1_555 1_555
H14 C3 1_555 1_555
C4 O5 1_555 1_555
H15 C4 1_555 1_555
H16 C4 1_555 1_555
O8 H17 1_555 1_555
H18 O8 1_555 1_555
O9 H19 1_555 1_555
H20 O9 1_555 1_555
La1F O5 1_555 1_555
O5F La1 1_555 1_555
O7F La1 1_555 1_555
O7 La1F 1_555 1_555
C1 C3 1_555 1_555
C1 C4 1_555 1_555
C2 C3 1_555 1_555

#END
