
#######################################################################
#
#                 Cambridge Crystallographic Data Centre
#                                CCDC 
#
#######################################################################
#
# If this CIF has been generated from an entry in the Cambridge 
# Structural Database, then it will include bibliographic, chemical, 
# crystal, experimental, refinement or atomic coordinate data resulting 
# from the CCDC's data processing and validation procedures.
#
#######################################################################

data_XELHUS
_symmetry_cell_setting           orthorhombic
_symmetry_space_group_name_H-M   'P 21 21 21'
_symmetry_Int_Tables_number      19
_space_group_name_Hall           'P 2ac 2ab'
loop_
_symmetry_equiv_pos_site_id
_symmetry_equiv_pos_as_xyz
1 x,y,z
2 1/2-x,-y,1/2+z
3 1/2+x,1/2-y,-z
4 -x,1/2+y,1/2-z
_cell_length_a                   5.004(1)
_cell_length_b                   12.999(3)
_cell_length_c                   18.376(4)
_cell_angle_alpha                90
_cell_angle_beta                 90
_cell_angle_gamma                90
_cell_volume                     1195.3
loop_
_atom_site_label
_atom_site_type_symbol
_atom_site_fract_x
_atom_site_fract_y
_atom_site_fract_z
N1 N 0.4745(2) -0.00700(6) 1.18330(4)
C1 C 0.6112(2) -0.08211(9) 1.13416(6)
C2 C 0.5634(2) 0.10022(8) 1.16680(6)
C3 C 0.4969(2) -0.03469(8) 1.26211(5)
C4 C 0.4394(7) -0.17693(8) 1.11994(6)
C5 C 0.4043(2) 0.14240(8) 1.10232(5)
C6 C 0.2668(2) 0.01197(8) 1.30544(6)
O1 O 0.2176(2) -0.18157(8) 1.15110(5)
O2 O 0.5323(2) -0.23950(7) 1.07515(5)
O3 O 0.4901(2) 0.22290(6) 1.07430(4)
O4 O 0.1970(2) 0.09458(7) 1.08483(5)
O5 O 0.0939(2) 0.06187(7) 1.27210(5)
O6 O 0.2699(2) -0.00572(7) 1.37240(4)
O8 O 0.5472(2) 0.23172(8) 0.77944(5)
K1 K 0.47707(5) 0.18196(2) 0.92588(1)
K2 K 0.02084(5) -0.34446(2) 1.06874(1)
H1 H 0.302(3) -0.0082(9) 1.1719(6)
H2 H 0.788(3) -0.104(1) 1.1558(9)
H3 H 0.641(3) -0.046(1) 1.0881(8)
H4 H 0.741(3) 0.102(1) 1.1556(7)
H5 H 0.525(3) 0.142(1) 1.2075(8)
H6 H 0.667(3) -0.008(1) 1.2803(8)
H7 H 0.495(3) -0.108(1) 1.2668(8)
H10 H 0.462(5) 0.218(1) 0.745(1)
H11 H 0.554(4) 0.291(2) 0.768(1)
O3B O -0.0099(2) 0.27710(6) 0.92570(4)
O6A O 0.2301(2) 0.00572(7) 0.87240(4)
O6C O -0.2699(2) -0.50572(7) 1.12760(4)
K1B K 0.97707(5) 0.31804(2) 1.07412(1)
K1A K 0.02293(5) -0.18196(2) 1.42588(1)
K2C K -0.02084(5) 0.15554(2) 1.43126(1)
O7 O 0.8325(2) 0.02427(8) 0.97450(6)
H8 H 0.934(4) 0.016(1) 0.941(1)
H9 H 0.926(4) 0.049(1) 1.009(1)
loop_
_geom_bond_atom_site_label_1
_geom_bond_atom_site_label_2
_geom_bond_site_symmetry_1
_geom_bond_site_symmetry_2
N1 C1 1_555 1_555
C1 C4 1_555 1_555
C2 N1 1_555 1_555
C3 N1 1_555 1_555
C4 O1 1_555 1_555
C5 C2 1_555 1_555
C6 C3 1_555 1_555
O1 K2 1_555 1_555
O2 C4 1_555 1_555
O3 C5 1_555 1_555
O4 C5 1_555 1_555
O5 C6 1_555 1_555
O6 C6 1_555 1_555
O7 H8 1_555 1_555
O8 K1 1_555 1_555
K1 O3 1_555 1_555
K2 O6C 1_555 1_555
H1 N1 1_555 1_555
H2 C1 1_555 1_555
H3 C1 1_555 1_555
H4 C2 1_555 1_555
H5 C2 1_555 1_555
H6 C3 1_555 1_555
H7 C3 1_555 1_555
H9 O7 1_555 1_555
H10 O8 1_555 1_555
H11 O8 1_555 1_555
O3B K1 1_555 1_555
O6A K1 1_555 1_555
K1B O3 1_555 1_555
K1A O6 1_555 1_555
K2C O6 1_555 1_555

#END
