
#######################################################################
#
#                 Cambridge Crystallographic Data Centre
#                                CCDC 
#
#######################################################################
#
# If this CIF has been generated from an entry in the Cambridge 
# Structural Database, then it will include bibliographic, chemical, 
# crystal, experimental, refinement or atomic coordinate data resulting 
# from the CCDC's data processing and validation procedures.
#
#######################################################################

data_XELNOR
_symmetry_cell_setting           orthorhombic
_symmetry_space_group_name_H-M   'P c c n'
_symmetry_Int_Tables_number      56
_space_group_name_Hall           '-P 2ab 2ac'
loop_
_symmetry_equiv_pos_site_id
_symmetry_equiv_pos_as_xyz
1 x,y,z
2 1/2+x,1/2+y,-z
3 x,1/2-y,1/2+z
4 1/2-x,y,1/2+z
5 -x,-y,-z
6 1/2-x,1/2-y,z
7 -x,1/2+y,1/2-z
8 1/2+x,-y,1/2-z
_cell_length_a                   13.451(5)
_cell_length_b                   14.662(5)
_cell_length_c                   21.393(9)
_cell_angle_alpha                90
_cell_angle_beta                 90
_cell_angle_gamma                90
_cell_volume                     4219.1
loop_
_atom_site_label
_atom_site_type_symbol
_atom_site_fract_x
_atom_site_fract_y
_atom_site_fract_z
Ni1 Ni 0.0000 0.0000 0.0000
N1 N 0.0437(4) 0.0565(3) 0.0831(2)
H1 H -0.0121 0.0711 0.1050
N2 N 0.0289(4) -0.1241(3) 0.0435(2)
H2 H 0.0887 -0.1447 0.0295
N3 N 0.0572(5) 0.2106(3) 0.0399(3)
N4 N 0.0632(9) 0.4411(5) 0.2168(4)
N5 N -0.5045(5) -0.0660(3) 0.0699(2)
O1 O -0.1511(3) -0.0055(3) 0.02624(19)
O2 O -0.1662(3) 0.0662(3) 0.1165(2)
C1 C 0.1029(5) 0.1420(4) 0.0748(3)
H3 H 0.1184 0.1663 0.1159
H4 H 0.1653 0.1263 0.0548
C2 C 0.0962(5) -0.0137(4) 0.1179(3)
H5 H 0.0987 0.0020 0.1619
H6 H 0.1637 -0.0197 0.1026
C3 C 0.0384(6) -0.1048(4) 0.1085(3)
H7 H 0.0737 -0.1541 0.1290
H8 H -0.0271 -0.0999 0.1273
C4 C 0.0479(7) 0.1936(4) -0.0272(4)
H9 H 0.0314 0.2504 -0.0479
H10 H 0.1117 0.1734 -0.0431
C5 C -0.0239(5) 0.2587(4) 0.0678(3)
H11 H -0.0565 0.2958 0.0364
H12 H -0.0721 0.2152 0.0836
C6 C 0.0110(7) 0.3199(4) 0.1215(3)
C7 C -0.0513(7) 0.3450(5) 0.1678(4)
H13 H -0.1151 0.3206 0.1687
C8 C -0.0241(9) 0.4041(6) 0.2128(4)
H14 H -0.0711 0.4194 0.2430
C9 C 0.1285(8) 0.4163(5) 0.1695(5)
H15 H 0.1920 0.4414 0.1700
C10 C 0.1060(7) 0.3590(4) 0.1236(3)
H16 H 0.1529 0.3449 0.0931
C11 C -0.1997(5) 0.0199(4) 0.0722(3)
C12 C -0.3044(4) -0.0117(4) 0.0729(3)
C13 C -0.3655(5) 0.0117(4) 0.0257(3)
H17 H -0.3399 0.0459 -0.0072
C14 C -0.4673(4) -0.0136(4) 0.0240(3)
C15 C -0.4459(6) -0.0936(4) 0.1181(3)
C16 C -0.4882(7) -0.1495(4) 0.1638(3)
H18 H -0.5537 -0.1690 0.1600
C17 C -0.4308(8) -0.1760(5) 0.2157(4)
H19 H -0.4598 -0.2101 0.2475
C18 C -0.3299(7) -0.1514(4) 0.2198(4)
H20 H -0.2915 -0.1708 0.2535
C19 C -0.2889(6) -0.0984(4) 0.1736(4)
H21 H -0.2220 -0.0831 0.1766
C20 C -0.3434(5) -0.0660(4) 0.1215(3)
N2D N -0.0289(4) 0.1241(3) -0.0435(2)
H2D H -0.0887 0.1447 -0.0295
C3D C -0.0384(6) 0.1048(4) -0.1085(3)
C2D C -0.0962(5) 0.0137(4) -0.1179(3)
N1D N -0.0437(4) -0.0565(3) -0.0831(2)
H1D H 0.0121 -0.0711 -0.1050
C1D C -0.1029(5) -0.1420(4) -0.0748(3)
N3D N -0.0572(5) -0.2106(3) -0.0399(3)
C4D C -0.0479(7) -0.1936(4) 0.0272(4)
H9D H -0.0314 -0.2504 0.0479
H10D H -0.1117 -0.1734 0.0431
C5D C 0.0239(5) -0.2587(4) -0.0678(3)
H11D H 0.0565 -0.2958 -0.0364
H12D H 0.0721 -0.2152 -0.0836
C6D C -0.0110(7) -0.3199(4) -0.1215(3)
C7D C 0.0513(7) -0.3450(5) -0.1678(4)
H13D H 0.1151 -0.3206 -0.1687
C8D C 0.0241(9) -0.4041(6) -0.2128(4)
N4D N -0.0632(9) -0.4411(5) -0.2168(4)
C9D C -0.1285(8) -0.4163(5) -0.1695(5)
H15D H -0.1920 -0.4414 -0.1700
C10D C -0.1060(7) -0.3590(4) -0.1236(3)
H16D H -0.1529 -0.3449 -0.0931
H14D H 0.0711 -0.4194 -0.2430
H3D H -0.1184 -0.1663 -0.1159
H4D H -0.1653 -0.1263 -0.0548
H5D H -0.0987 -0.0020 -0.1619
H6D H -0.1637 0.0197 -0.1026
H7D H -0.0737 0.1541 -0.1290
H8D H 0.0271 0.0999 -0.1273
C14D C -0.5327(4) 0.0136(4) -0.0240(3)
N5D N -0.4955(5) 0.0660(3) -0.0699(2)
C15D C -0.5541(6) 0.0936(4) -0.1181(3)
C16D C -0.5118(7) 0.1495(4) -0.1638(3)
H18D H -0.4463 0.1690 -0.1600
C17D C -0.5692(8) 0.1760(5) -0.2157(4)
H19D H -0.5402 0.2101 -0.2475
C18D C -0.6701(7) 0.1514(4) -0.2198(4)
H20D H -0.7085 0.1708 -0.2535
C19D C -0.7111(6) 0.0984(4) -0.1736(4)
H21D H -0.7780 0.0831 -0.1766
C20D C -0.6566(5) 0.0660(4) -0.1215(3)
C12D C -0.6956(4) 0.0117(4) -0.0729(3)
C11D C -0.8003(5) -0.0199(4) -0.0722(3)
O1D O -0.8489(3) 0.0055(3) -0.02624(19)
O2D O -0.8338(3) -0.0662(3) -0.1165(2)
C13D C -0.6345(5) -0.0117(4) -0.0257(3)
H17D H -0.6601 -0.0459 0.0072
O1D_2 O 0.1511(3) 0.0055(3) -0.02624(19)
Ni1_2 Ni -1.0000 0.0000 0.0000
O3 O 0.8114(6) 0.1030(4) 0.2421(3)
O4 O 0.7500 0.2500 0.3123(4)
loop_
_geom_bond_atom_site_label_1
_geom_bond_atom_site_label_2
_geom_bond_site_symmetry_1
_geom_bond_site_symmetry_2
Ni1 N1 1_555 1_555
N1 H1 1_555 1_555
N2 Ni1 1_555 1_555
H2 N2 1_555 1_555
N3 C1 1_555 1_555
N4 C8 1_555 1_555
N5 C14 1_555 1_555
O1 Ni1 1_555 1_555
O2 C11 1_555 1_555
C1 N1 1_555 1_555
H3 C1 1_555 1_555
H4 C1 1_555 1_555
C2 N1 1_555 1_555
H5 C2 1_555 1_555
H6 C2 1_555 1_555
C3 N2 1_555 1_555
H7 C3 1_555 1_555
H8 C3 1_555 1_555
C4 N3 1_555 1_555
H9 C4 1_555 1_555
H10 C4 1_555 1_555
C5 N3 1_555 1_555
H11 C5 1_555 1_555
H12 C5 1_555 1_555
C6 C5 1_555 1_555
C7 C6 1_555 1_555
H13 C7 1_555 1_555
C8 C7 1_555 1_555
H14 C8 1_555 1_555
C9 N4 1_555 1_555
H15 C9 1_555 1_555
C10 C6 1_555 1_555
H16 C10 1_555 1_555
C11 O1 1_555 1_555
C12 C11 1_555 1_555
C13 C12 1_555 1_555
H17 C13 1_555 1_555
C14 C13 1_555 1_555
C15 N5 1_555 1_555
C16 C15 1_555 1_555
H18 C16 1_555 1_555
C17 C16 1_555 1_555
H19 C17 1_555 1_555
C18 C17 1_555 1_555
H20 C18 1_555 1_555
C19 C18 1_555 1_555
H21 C19 1_555 1_555
C20 C12 1_555 1_555
N2D Ni1 1_555 1_555
H2D N2D 1_555 1_555
C3D N2D 1_555 1_555
C2D C3D 1_555 1_555
N1D Ni1 1_555 1_555
H1D N1D 1_555 1_555
C1D N1D 1_555 1_555
N3D C1D 1_555 1_555
C4D N2 1_555 1_555
H9D C4D 1_555 1_555
H10D C4D 1_555 1_555
C5D N3D 1_555 1_555
H11D C5D 1_555 1_555
H12D C5D 1_555 1_555
C6D C5D 1_555 1_555
C7D C6D 1_555 1_555
H13D C7D 1_555 1_555
C8D C7D 1_555 1_555
N4D C8D 1_555 1_555
C9D N4D 1_555 1_555
H15D C9D 1_555 1_555
C10D C6D 1_555 1_555
H16D C10D 1_555 1_555
H14D C8D 1_555 1_555
H3D C1D 1_555 1_555
H4D C1D 1_555 1_555
H5D C2D 1_555 1_555
H6D C2D 1_555 1_555
H7D C3D 1_555 1_555
H8D C3D 1_555 1_555
C14D C14 1_555 1_555
N5D C14D 1_555 1_555
C15D N5D 1_555 1_555
C16D C15D 1_555 1_555
H18D C16D 1_555 1_555
C17D C16D 1_555 1_555
H19D C17D 1_555 1_555
C18D C17D 1_555 1_555
H20D C18D 1_555 1_555
C19D C18D 1_555 1_555
H21D C19D 1_555 1_555
C20D C15D 1_555 1_555
C12D C20D 1_555 1_555
C11D C12D 1_555 1_555
O1D C11D 1_555 1_555
O2D C11D 1_555 1_555
C13D C14D 1_555 1_555
H17D C13D 1_555 1_555
O1D_2 Ni1 1_555 1_555
Ni1_2 O1D 1_555 1_555
C2 C3 1_555 1_555
C4 N2D 1_555 1_555
C9 C10 1_555 1_555
C15 C20 1_555 1_555
C19 C20 1_555 1_555
C2D N1D 1_555 1_555
N3D C4D 1_555 1_555
C9D C10D 1_555 1_555
C19D C20D 1_555 1_555
C12D C13D 1_555 1_555

#END
