
#######################################################################
#
#                 Cambridge Crystallographic Data Centre
#                                CCDC 
#
#######################################################################
#
# If this CIF has been generated from an entry in the Cambridge 
# Structural Database, then it will include bibliographic, chemical, 
# crystal, experimental, refinement or atomic coordinate data resulting 
# from the CCDC's data processing and validation procedures.
#
#######################################################################

data_XELQEL
_symmetry_cell_setting           monoclinic
_symmetry_space_group_name_H-M   'P 21/n'
_symmetry_Int_Tables_number      14
_space_group_name_Hall           '-P 2yn'
loop_
_symmetry_equiv_pos_site_id
_symmetry_equiv_pos_as_xyz
1 x,y,z
2 1/2-x,1/2+y,1/2-z
3 -x,-y,-z
4 1/2+x,1/2-y,1/2+z
_cell_length_a                   15.575(3)
_cell_length_b                   4.4296(9)
_cell_length_c                   20.884(4)
_cell_angle_alpha                90
_cell_angle_beta                 100.92(3)
_cell_angle_gamma                90
_cell_volume                     1414.72
loop_
_atom_site_label
_atom_site_type_symbol
_atom_site_fract_x
_atom_site_fract_y
_atom_site_fract_z
C1 C 0.1163(11) 0.491(4) 0.9424(7)
C2 C 0.1850(12) 0.167(4) 0.8622(8)
C3 C 0.0999(13) 0.205(4) 0.8317(9)
C4 C 0.3647(15) 0.081(6) 0.8718(11)
H1 H 0.3694 0.2997 0.8659
H2 H 0.4124 -0.0208 0.8558
H3 H 0.3685 0.0357 0.9181
C5 C -0.0464(13) 0.248(5) 0.7312(10)
H4 H -0.086 0.1844 0.76
H5 H -0.0722 0.1961 0.686
H6 H -0.0373 0.4665 0.7349
Hg1 Hg 0.24293(4) 0.72608(16) 1.08590(3)
I1 I 0.40372(7) 0.7104(3) 1.05744(6)
I2 I 0.20262(8) 0.2139(2) 1.16373(5)
S1 S 0.0974(3) 0.7200(10) 1.0026(2)
S2 S 0.2164(3) 0.3281(11) 0.9379(2)
S3 S 0.0355(3) 0.4126(12) 0.8756(2)
S4 S 0.2602(3) -0.0511(12) 0.8259(2)
S5 S 0.0570(4) 0.0570(13) 0.7546(2)
Hg1_2 Hg 0.24293(4) -0.27392(16) 1.08590(3)
I2_2 I 0.20262(8) 1.2139(2) 1.16373(5)
loop_
_geom_bond_atom_site_label_1
_geom_bond_atom_site_label_2
_geom_bond_site_symmetry_1
_geom_bond_site_symmetry_2
C1 S1 1_555 1_555
C2 C3 1_555 1_555
C3 S3 1_555 1_555
C4 H1 1_555 1_555
H2 C4 1_555 1_555
H3 C4 1_555 1_555
C5 H4 1_555 1_555
H5 C5 1_555 1_555
H6 C5 1_555 1_555
Hg1 I1 1_555 1_555
I2 Hg1 1_555 1_555
S1 Hg1 1_555 1_555
S2 C1 1_555 1_555
S3 C1 1_555 1_555
S4 C2 1_555 1_555
S5 C3 1_555 1_555
Hg1_2 I2 1_555 1_555
I2_2 Hg1 1_555 1_555
C2 S2 1_555 1_555
C4 S4 1_555 1_555
C5 S5 1_555 1_555

#END
