
#######################################################################
#
#                 Cambridge Crystallographic Data Centre
#                                CCDC 
#
#######################################################################
#
# If this CIF has been generated from an entry in the Cambridge 
# Structural Database, then it will include bibliographic, chemical, 
# crystal, experimental, refinement or atomic coordinate data resulting 
# from the CCDC's data processing and validation procedures.
#
#######################################################################

data_XEMJIJ
_symmetry_cell_setting           monoclinic
_symmetry_space_group_name_H-M   'C 2/m'
_symmetry_Int_Tables_number      12
_space_group_name_Hall           '-C 2y'
loop_
_symmetry_equiv_pos_site_id
_symmetry_equiv_pos_as_xyz
1 x,y,z
2 1/2+x,1/2+y,z
3 -x,y,-z
4 1/2-x,1/2+y,-z
5 -x,-y,-z
6 1/2-x,1/2-y,-z
7 x,-y,z
8 1/2+x,1/2-y,z
_cell_length_a                   11.8093(9)
_cell_length_b                   8.7799(7)
_cell_length_c                   8.2075(11)
_cell_angle_alpha                90
_cell_angle_beta                 131.624(3)
_cell_angle_gamma                90
_cell_volume                     636.132
loop_
_atom_site_label
_atom_site_type_symbol
_atom_site_fract_x
_atom_site_fract_y
_atom_site_fract_z
Cu1 Cu 0.58316(6) 0.0000 0.74240(9)
Cl1 Cl 0.5000 -0.20780(10) 0.5000
O1 O 0.9166(3) 0.0000 1.0879(5)
N1 N 0.4168(3) 0.0000 0.7657(5)
C1 C 0.7891(5) 0.0000 0.9621(7)
C2 C 0.4279(3) 0.1373(3) 0.8807(4)
H1 H 0.339(3) 0.144(3) 0.869(4)
H2 H 0.423(3) 0.226(3) 0.801(4)
C3 C 0.2662(4) 0.0000 0.5426(7)
H3 H 0.254(3) 0.087(3) 0.468(5)
H4 H 0.193(6) 0.0000 0.550(7)
Cu1D Cu 0.41684(6) 0.0000 0.25760(9)
Cu1D_2 Cu 0.41684(6) 0.0000 1.25760(9)
Cl1F Cl 0.5000 0.20780(10) 0.5000
O1D O 0.0834(3) 0.0000 -0.0879(5)
N1D N 0.5832(3) 0.0000 1.2343(5)
N1D_2 N 0.5832(3) 0.0000 0.2343(5)
C1D C 0.2109(5) 0.0000 0.0379(7)
C2B C 0.5721(3) 0.1373(3) 1.1193(4)
C2D C 0.5721(3) -0.1373(3) 1.1193(4)
C2F C 0.4279(3) -0.1373(3) 0.8807(4)
H1F H 0.339(3) -0.144(3) 0.869(4)
H1D H 0.661(3) -0.144(3) 1.131(4)
H1B H 0.661(3) 0.144(3) 1.131(4)
H2F H 0.423(3) -0.226(3) 0.801(4)
H2D H 0.577(3) -0.226(3) 1.199(4)
H2B H 0.577(3) 0.226(3) 1.199(4)
C3D C 0.7338(4) 0.0000 1.4574(7)
H3F H 0.254(3) -0.087(3) 0.468(5)
H3B H 0.746(3) 0.087(3) 1.532(5)
H3D H 0.746(3) -0.087(3) 1.532(5)
H4D H 0.807(6) 0.0000 1.450(7)
loop_
_geom_bond_atom_site_label_1
_geom_bond_atom_site_label_2
_geom_bond_site_symmetry_1
_geom_bond_site_symmetry_2
Cu1 Cl1 1_555 1_555
Cl1 Cu1D 1_555 1_555
O1 C1 1_555 1_555
N1 Cu1 1_555 1_555
C1 Cu1 1_555 1_555
C2 N1 1_555 1_555
H1 C2 1_555 1_555
H2 C2 1_555 1_555
C3 N1 1_555 1_555
H3 C3 1_555 1_555
H4 C3 1_555 1_555
Cu1D Cl1F 1_555 1_555
Cu1D_2 N1D 1_555 1_555
Cl1F Cu1 1_555 1_555
O1D C1D 1_555 1_555
N1D C2B 1_555 1_555
N1D_2 Cu1D 1_555 1_555
C1D Cu1D 1_555 1_555
C2B C2 1_555 1_555
C2D N1D 1_555 1_555
C2F N1 1_555 1_555
H1F C2F 1_555 1_555
H1D C2D 1_555 1_555
H1B C2B 1_555 1_555
H2F C2F 1_555 1_555
H2D C2D 1_555 1_555
H2B C2B 1_555 1_555
C3D N1D 1_555 1_555
H3F C3 1_555 1_555
H3B C3D 1_555 1_555
H3D C3D 1_555 1_555
H4D C3D 1_555 1_555
C2D C2F 1_555 1_555

#END
