
#######################################################################
#
#                 Cambridge Crystallographic Data Centre
#                                CCDC 
#
#######################################################################
#
# If this CIF has been generated from an entry in the Cambridge 
# Structural Database, then it will include bibliographic, chemical, 
# crystal, experimental, refinement or atomic coordinate data resulting 
# from the CCDC's data processing and validation procedures.
#
#######################################################################

data_XEMKUW
_symmetry_cell_setting           orthorhombic
_symmetry_space_group_name_H-M   'I b a m'
_symmetry_Int_Tables_number      72
_space_group_name_Hall           '-I 2 2c'
loop_
_symmetry_equiv_pos_site_id
_symmetry_equiv_pos_as_xyz
1 x,y,z
2 1/2+x,1/2+y,1/2+z
3 -x,-y,z
4 1/2-x,1/2+y,-z
5 1/2+x,1/2-y,-z
6 1/2-x,1/2-y,1/2+z
7 -x,y,1/2-z
8 x,-y,1/2-z
9 -x,-y,-z
10 1/2-x,1/2-y,1/2-z
11 x,y,-z
12 1/2+x,1/2-y,z
13 1/2-x,1/2+y,z
14 1/2+x,1/2+y,1/2-z
15 x,-y,1/2+z
16 -x,y,1/2+z
_cell_length_a                   19.5558(18)
_cell_length_b                   7.1939(6)
_cell_length_c                   7.5449(6)
_cell_angle_alpha                90
_cell_angle_beta                 90
_cell_angle_gamma                90
_cell_volume                     1061.44
loop_
_atom_site_label
_atom_site_type_symbol
_atom_site_fract_x
_atom_site_fract_y
_atom_site_fract_z
Pb1 Pb 0.32526(2) 0.20105(6) 0.0000
Cl1 Cl 0.28630(15) 0.5000 0.2500
Cl2 Cl 0.40113(15) 0.0000 0.2500
N1 N 0.4390(5) 0.3965(14) 0.0000
C1 C 0.4404(7) 0.5825(18) 0.0000
H1 H 0.3987 0.6447 0.0000
C2 C 0.5020(9) 0.3130(17) 0.0000
H2 H 0.5052 0.1840 0.0000
Pb1N Pb 0.32526(2) 0.79895(6) 0.5000
Pb1N_2 Pb 0.32526(2) -0.20105(6) 0.5000
Pb1H Pb 0.67474(2) 0.79895(6) 0.0000
Pb1N_3 Pb 0.32526(2) 0.79895(6) -0.5000
Pb1N_4 Pb 0.32526(2) -0.20105(6) -0.5000
Cl1J Cl 0.28630(15) 0.5000 -0.2500
Cl1J_2 Cl 0.28630(15) 0.5000 0.7500
Cl2J Cl 0.40113(15) 0.0000 -0.2500
Cl2_2 Cl 0.40113(15) 1.0000 0.2500
Cl2J_2 Cl 0.40113(15) 1.0000 0.7500
N1H N 0.5610(5) 0.6035(14) 0.0000
N1N N 0.4390(5) 0.6035(14) 0.5000
C1H C 0.5596(7) 0.4175(18) 0.0000
H1H H 0.6013 0.3553 0.0000
C2H C 0.4980(9) 0.6870(17) 0.0000
H2H H 0.4948 0.8160 0.0000
loop_
_geom_bond_atom_site_label_1
_geom_bond_atom_site_label_2
_geom_bond_site_symmetry_1
_geom_bond_site_symmetry_2
Pb1 Cl1 1_555 1_555
Cl1 Pb1N 1_555 1_555
Cl2 Pb1 1_555 1_555
N1 Pb1 1_555 1_555
C1 N1 1_555 1_555
H1 C1 1_555 1_555
C2 N1 1_555 1_555
H2 C2 1_555 1_555
Pb1N Cl1J_2 1_555 1_555
Pb1N_2 Cl2 1_555 1_555
Pb1H N1H 1_555 1_555
Pb1N_3 Cl1J 1_555 1_555
Pb1N_4 Cl2J 1_555 1_555
Cl1J Pb1 1_555 1_555
Cl2J Pb1 1_555 1_555
Cl2_2 Pb1N 1_555 1_555
Cl2J_2 Pb1N 1_555 1_555
N1H C1H 1_555 1_555
N1N Pb1N 1_555 1_555
C1H C2 1_555 1_555
H1H C1H 1_555 1_555
C2H C1 1_555 1_555
H2H C2H 1_555 1_555
N1H C2H 1_555 1_555

#END
