
#######################################################################
#
#                 Cambridge Crystallographic Data Centre
#                                CCDC 
#
#######################################################################
#
# If this CIF has been generated from an entry in the Cambridge 
# Structural Database, then it will include bibliographic, chemical, 
# crystal, experimental, refinement or atomic coordinate data resulting 
# from the CCDC's data processing and validation procedures.
#
#######################################################################

data_XEMLAD
_symmetry_cell_setting           monoclinic
_symmetry_space_group_name_H-M   'C 2/c'
_symmetry_Int_Tables_number      15
_space_group_name_Hall           '-C 2yn'
loop_
_symmetry_equiv_pos_site_id
_symmetry_equiv_pos_as_xyz
1 x,y,z
2 1/2+x,1/2+y,z
3 -x,y,1/2-z
4 1/2-x,1/2+y,1/2-z
5 -x,-y,-z
6 1/2-x,1/2-y,-z
7 x,-y,1/2+z
8 1/2+x,1/2-y,1/2+z
_cell_length_a                   15.648(2)
_cell_length_b                   15.126(2)
_cell_length_c                   11.9773(15)
_cell_angle_alpha                90
_cell_angle_beta                 112.416(2)
_cell_angle_gamma                90
_cell_volume                     2620.72
loop_
_atom_site_label
_atom_site_type_symbol
_atom_site_fract_x
_atom_site_fract_y
_atom_site_fract_z
C1 C 0.46851(17) -0.0667(2) 0.5907(2)
Cd1 Cd 0.426707(12) 0.153609(13) 0.578981(17)
O1 O 0.42417(13) 0.16222(12) 0.77097(18)
C2 C 0.1942(2) 0.15039(16) 0.4793(3)
C3 C 0.2127(2) 0.1519(2) 0.8195(3)
N1 N 0.34948(14) 0.18825(16) 0.79205(19)
N2 N 0.44018(17) 0.00292(18) 0.5904(2)
N3 N 0.27182(18) 0.14067(15) 0.5017(3)
C4 C 0.2907(2) 0.1270(2) 0.7998(3)
H1 H 0.3023 0.0675 0.7918
C5 C 0.1998(2) 0.2392(3) 0.8331(3)
H2 H 0.1479 0.2570 0.8469
C6 C 0.33721(19) 0.2738(2) 0.8055(2)
H3 H 0.3800 0.3147 0.8005
C7 C 0.2609(2) 0.3021(2) 0.8270(3)
C8 C 0.1435(3) 0.0820(4) 0.8215(5)
H4 H 0.1140 0.1005 0.8747
H5 H 0.1751 0.0271 0.8496
H6 H 0.0977 0.0744 0.7415
C9 C 0.2465(3) 0.3991(3) 0.8375(4)
H7 H 0.3050 0.4290 0.8637
H8 H 0.2185 0.4087 0.8952
H9 H 0.2067 0.4219 0.7603
S1 S 0.50717(6) -0.16814(5) 0.59092(7)
S2 S 0.08341(6) 0.16272(6) 0.44549(10)
Cd1B Cd 0.573293(12) 0.153609(13) 0.921019(17)
Cd1D Cd 0.573293(12) -0.153609(13) 0.421019(17)
Cd1E Cd 0.073293(12) 0.346391(13) 0.421019(17)
O1B O 0.57583(13) 0.16222(12) 0.72903(18)
S1D S 0.49283(6) 0.16814(5) 0.40908(7)
S2E S 0.41659(6) 0.33728(6) 0.55451(10)
loop_
_geom_bond_atom_site_label_1
_geom_bond_atom_site_label_2
_geom_bond_site_symmetry_1
_geom_bond_site_symmetry_2
C1 N2 1_555 1_555
Cd1 O1 1_555 1_555
O1 N1 1_555 1_555
C2 N3 1_555 1_555
C3 C4 1_555 1_555
N1 C4 1_555 1_555
N2 Cd1 1_555 1_555
N3 Cd1 1_555 1_555
C4 H1 1_555 1_555
C5 C3 1_555 1_555
H2 C5 1_555 1_555
C6 N1 1_555 1_555
H3 C6 1_555 1_555
C7 C5 1_555 1_555
C8 C3 1_555 1_555
H4 C8 1_555 1_555
H5 C8 1_555 1_555
H6 C8 1_555 1_555
C9 C7 1_555 1_555
H7 C9 1_555 1_555
H8 C9 1_555 1_555
H9 C9 1_555 1_555
S1 C1 1_555 1_555
S2 C2 1_555 1_555
Cd1B O1 1_555 1_555
Cd1D S1 1_555 1_555
Cd1E S2 1_555 1_555
O1B Cd1 1_555 1_555
S1D Cd1 1_555 1_555
S2E Cd1 1_555 1_555
C6 C7 1_555 1_555
Cd1B O1B 1_555 1_555

#END
