
#######################################################################
#
#                 Cambridge Crystallographic Data Centre
#                                CCDC 
#
#######################################################################
#
# If this CIF has been generated from an entry in the Cambridge 
# Structural Database, then it will include bibliographic, chemical, 
# crystal, experimental, refinement or atomic coordinate data resulting 
# from the CCDC's data processing and validation procedures.
#
#######################################################################

data_XENBOI
_symmetry_cell_setting           orthorhombic
_symmetry_space_group_name_H-M   'F d d d'
_symmetry_Int_Tables_number      70
_space_group_name_Hall           '-F 2uv 2vw'
loop_
_symmetry_equiv_pos_site_id
_symmetry_equiv_pos_as_xyz
1 x,y,z
2 x,1/2+y,1/2+z
3 x,1/4-y,1/4-z
4 1/2+x,y,1/2+z
5 1/4-x,y,1/4-z
6 1/2+x,1/2+y,z
7 1/4-x,1/4-y,z
8 3/4-x,3/4-y,z
9 3/4-x,y,3/4-z
10 x,3/4-y,3/4-z
11 3/4-x,1/4-y,1/2+z
12 3/4-x,1/2+y,1/4-z
13 1/4-x,3/4-y,1/2+z
14 1/2+x,3/4-y,1/4-z
15 1/4-x,1/2+y,3/4-z
16 1/2+x,1/4-y,3/4-z
17 -x,-y,-z
18 -x,1/2-y,1/2-z
19 -x,3/4+y,3/4+z
20 1/2-x,-y,1/2-z
21 3/4+x,-y,3/4+z
22 1/2-x,1/2-y,-z
23 3/4+x,3/4+y,-z
24 1/4+x,1/4+y,-z
25 1/4+x,-y,1/4+z
26 -x,1/4+y,1/4+z
27 1/4+x,3/4+y,1/2-z
28 1/4+x,1/2-y,3/4+z
29 3/4+x,1/4+y,1/2-z
30 1/2-x,1/4+y,3/4+z
31 3/4+x,1/2-y,1/4+z
32 1/2-x,3/4+y,1/4+z
_cell_length_a                   13.520(3)
_cell_length_b                   18.127(4)
_cell_length_c                   26.501(5)
_cell_angle_alpha                90
_cell_angle_beta                 90
_cell_angle_gamma                90
_cell_volume                     6494.79
loop_
_atom_site_label
_atom_site_type_symbol
_atom_site_fract_x
_atom_site_fract_y
_atom_site_fract_z
Cu1 Cu 0.54121(5) 0.55171(4) 0.54779(2)
N1 N 0.4302(4) 0.5552(3) 0.4979(2)
N2 N 0.4080(6) 0.6099(4) 0.4741(3)
N3 N 0.3874(9) 0.6623(5) 0.4491(4)
N4 N 0.6413(3) 0.5258(3) 0.60154(16)
N5 N 0.7948(3) 0.5362(3) 0.64195(18)
N6 N 0.6250 0.6250 0.5121(2)
N7 N 0.6250 0.6250 0.4664(3)
N8 N 0.6250 0.6250 0.4231(3)
C1 C 0.7436(4) 0.5232(3) 0.5988(2)
C2 C 0.7903(5) 0.5043(5) 0.5538(3)
H1 H 0.7544 0.4968 0.5243
C3 C 0.8922(6) 0.4971(6) 0.5546(3)
H2 H 0.9254 0.4826 0.5255
C4 C 0.9443(5) 0.5108(6) 0.5974(4)
H3 H 1.0129 0.5068 0.5974
C5 C 0.8949(4) 0.5309(5) 0.6408(3)
H4 H 0.9309 0.5411 0.6699
Cu1P Cu 0.45879(5) 0.44829(4) 0.45221(2)
Cu1D Cu 0.70879(5) 0.55171(4) 0.70221(2)
Cu1F Cu 0.70879(5) 0.69829(4) 0.54779(2)
N1P N 0.5698(4) 0.4448(3) 0.5021(2)
N2P N 0.5920(6) 0.3901(4) 0.5259(3)
N3P N 0.6126(9) 0.3377(5) 0.5509(4)
N4D N 0.6087(3) 0.5258(3) 0.64846(16)
N4P N 0.3587(3) 0.4742(3) 0.39846(16)
N5D N 0.4552(3) 0.5362(3) 0.60805(18)
N5T N 0.5448(3) 0.4638(3) 0.39195(18)
N6P N 0.3750 0.3750 0.4879(2)
C1D C 0.5064(4) 0.5232(3) 0.6512(2)
C2D C 0.4597(5) 0.5043(5) 0.6962(3)
H1D H 0.4956 0.4968 0.7257
C3D C 0.3578(6) 0.4971(6) 0.6954(3)
H2D H 0.3246 0.4826 0.7245
C4D C 0.3057(5) 0.5108(6) 0.6526(4)
H3D H 0.2371 0.5068 0.6526
C5D C 0.3551(4) 0.5309(5) 0.6092(3)
H4D H 0.3191 0.5411 0.5801
loop_
_geom_bond_atom_site_label_1
_geom_bond_atom_site_label_2
_geom_bond_site_symmetry_1
_geom_bond_site_symmetry_2
Cu1 N1 1_555 1_555
N1 N2 1_555 1_555
N2 N3 1_555 1_555
N4 Cu1 1_555 1_555
N5 C1 1_555 1_555
N6 Cu1 1_555 1_555
N7 N6 1_555 1_555
N8 N7 1_555 1_555
C1 N4 1_555 1_555
C2 C1 1_555 1_555
H1 C2 1_555 1_555
C3 C2 1_555 1_555
H2 C3 1_555 1_555
C4 C3 1_555 1_555
H3 C4 1_555 1_555
C5 N5 1_555 1_555
H4 C5 1_555 1_555
Cu1P N1 1_555 1_555
Cu1D N5 1_555 1_555
Cu1F N6 1_555 1_555
N1P Cu1 1_555 1_555
N2P N1P 1_555 1_555
N3P N2P 1_555 1_555
N4D N4 1_555 1_555
N4P Cu1P 1_555 1_555
N5D Cu1 1_555 1_555
N5T Cu1P 1_555 1_555
N6P Cu1P 1_555 1_555
C1D N4D 1_555 1_555
C2D C1D 1_555 1_555
H1D C2D 1_555 1_555
C3D C2D 1_555 1_555
H2D C3D 1_555 1_555
C4D C3D 1_555 1_555
H3D C4D 1_555 1_555
C5D N5D 1_555 1_555
H4D C5D 1_555 1_555
C4 C5 1_555 1_555
Cu1P N1P 1_555 1_555
Cu1D N4D 1_555 1_555
N5D C1D 1_555 1_555
C4D C5D 1_555 1_555

#END
