
#######################################################################
#
#                 Cambridge Crystallographic Data Centre
#                                CCDC 
#
#######################################################################
#
# If this CIF has been generated from an entry in the Cambridge 
# Structural Database, then it will include bibliographic, chemical, 
# crystal, experimental, refinement or atomic coordinate data resulting 
# from the CCDC's data processing and validation procedures.
#
#######################################################################

data_XENDID
_symmetry_cell_setting           monoclinic
_symmetry_space_group_name_H-M   'P 21/n'
_symmetry_Int_Tables_number      14
_space_group_name_Hall           '-P 2yn'
loop_
_symmetry_equiv_pos_site_id
_symmetry_equiv_pos_as_xyz
1 x,y,z
2 1/2+x,1/2-y,1/2+z
3 -x,-y,-z
4 1/2-x,1/2+y,1/2-z
_cell_length_a                   13.9463(3)
_cell_length_b                   10.2008(2)
_cell_length_c                   17.5299(4)
_cell_angle_alpha                90
_cell_angle_beta                 113.252(1)
_cell_angle_gamma                90
_cell_volume                     2291.31
loop_
_atom_site_label
_atom_site_type_symbol
_atom_site_fract_x
_atom_site_fract_y
_atom_site_fract_z
Zn1 Zn -0.14611(3) 0.07776(4) 0.27460(2)
S1 S -0.20170(6) 0.27547(8) 0.38610(5)
S2 S 0.09668(7) 0.11857(13) 0.33180(6)
O1 O -0.12927(16) 0.1732(2) 0.38350(13)
O2 O -0.15734(19) 0.3599(2) 0.45715(14)
O3 O 0.0783(2) 0.0857(3) 0.40452(16)
O4 O 0.1753(2) 0.0450(4) 0.3178(2)
N1 N -0.2406(2) 0.3654(2) 0.30630(16)
N2 N -0.27411(19) 0.1909(2) 0.20754(16)
N3 N -0.3508(2) 0.4014(2) 0.17440(17)
N4 N -0.5714(3) 0.0039(5) 0.3925(3)
H1 H -0.6321 0.0396 0.3704
H2 H -0.5644 -0.0712 0.4164
N5 N -0.0169(2) 0.1034(3) 0.25648(18)
N6 N -0.1295(2) 0.0954(3) 0.12294(19)
N7 N 0.0468(2) 0.1518(4) 0.15215(18)
N8 N 0.2054(5) 0.6823(7) 0.3438(4)
H3 H 0.2577 0.7077 0.3332
H4 H 0.1690 0.7388 0.3572
C1 C -0.2877(2) 0.3139(3) 0.22981(19)
C2 C -0.3344(3) 0.1546(3) 0.1291(2)
H5 H -0.3289 0.0690 0.1130
C3 C -0.4024(3) 0.2360(3) 0.0729(2)
H6 H -0.4446 0.2074 0.0198
C4 C -0.4063(3) 0.3629(4) 0.0976(2)
H7 H -0.4490 0.4231 0.0594
C5 C -0.3113(3) 0.1945(3) 0.3874(2)
C6 C -0.4086(3) 0.2494(4) 0.3507(2)
H8 H -0.4165 0.3302 0.3242
C7 C -0.4942(3) 0.1862(4) 0.3526(2)
H9 H -0.5594 0.2255 0.3279
C8 C -0.4861(3) 0.0667(4) 0.3899(3)
C9 C -0.3865(4) 0.0138(5) 0.4274(4)
H10 H -0.3782 -0.0668 0.4541
C10 C -0.3007(4) 0.0757(5) 0.4263(3)
H11 H -0.2352 0.0376 0.4519
C11 C -0.0311(3) 0.1176(3) 0.1747(2)
C12 C 0.0206(3) 0.1610(4) 0.0701(2)
H12 H 0.0725 0.1825 0.0515
C13 C -0.0774(4) 0.1405(5) 0.0127(3)
H13 H -0.0937 0.1488 -0.0438
C14 C -0.1508(3) 0.1072(5) 0.0424(3)
H14 H -0.2187 0.0920 0.0047
C15 C 0.1279(3) 0.2870(5) 0.3349(2)
C16 C 0.0707(3) 0.3770(5) 0.3556(3)
H15 H 0.0147 0.3501 0.3680
C17 C 0.0953(4) 0.5084(6) 0.3585(3)
H16 H 0.0563 0.5700 0.3730
C18 C 0.1797(6) 0.5489(9) 0.3393(4)
C19 C 0.2349(6) 0.4545(11) 0.3183(4)
H17 H 0.2912 0.4799 0.3059
C20 C 0.2105(3) 0.3259(8) 0.3150(3)
H18 H 0.2486 0.2642 0.2995
N3C N -0.1492(2) -0.0986(2) 0.32560(17)
Zn1C Zn -0.35389(3) 0.57776(4) 0.22540(2)
loop_
_geom_bond_atom_site_label_1
_geom_bond_atom_site_label_2
_geom_bond_site_symmetry_1
_geom_bond_site_symmetry_2
Zn1 O1 1_555 1_555
S1 O1 1_555 1_555
S2 O3 1_555 1_555
O2 S1 1_555 1_555
O4 S2 1_555 1_555
N1 S1 1_555 1_555
N2 Zn1 1_555 1_555
N3 C1 1_555 1_555
N4 H1 1_555 1_555
H2 N4 1_555 1_555
N5 Zn1 1_555 1_555
N6 C11 1_555 1_555
N7 C11 1_555 1_555
N8 H3 1_555 1_555
H4 N8 1_555 1_555
C1 N1 1_555 1_555
C2 N2 1_555 1_555
H5 C2 1_555 1_555
C3 C2 1_555 1_555
H6 C3 1_555 1_555
C4 N3 1_555 1_555
H7 C4 1_555 1_555
C5 S1 1_555 1_555
C6 C5 1_555 1_555
H8 C6 1_555 1_555
C7 C6 1_555 1_555
H9 C7 1_555 1_555
C8 N4 1_555 1_555
C9 C8 1_555 1_555
H10 C9 1_555 1_555
C10 C5 1_555 1_555
H11 C10 1_555 1_555
C11 N5 1_555 1_555
C12 N7 1_555 1_555
H12 C12 1_555 1_555
C13 C12 1_555 1_555
H13 C13 1_555 1_555
C14 N6 1_555 1_555
H14 C14 1_555 1_555
C15 S2 1_555 1_555
C16 C15 1_555 1_555
H15 C16 1_555 1_555
C17 C16 1_555 1_555
H16 C17 1_555 1_555
C18 N8 1_555 1_555
C19 C18 1_555 1_555
H17 C19 1_555 1_555
C20 C15 1_555 1_555
H18 C20 1_555 1_555
N3C Zn1 1_555 1_555
Zn1C N3 1_555 1_555
S2 N5 1_555 1_555
N2 C1 1_555 1_555
C3 C4 1_555 1_555
C7 C8 1_555 1_555
C9 C10 1_555 1_555
C13 C14 1_555 1_555
C17 C18 1_555 1_555
C19 C20 1_555 1_555

#END
