
#######################################################################
#
#                 Cambridge Crystallographic Data Centre
#                                CCDC 
#
#######################################################################
#
# If this CIF has been generated from an entry in the Cambridge 
# Structural Database, then it will include bibliographic, chemical, 
# crystal, experimental, refinement or atomic coordinate data resulting 
# from the CCDC's data processing and validation procedures.
#
#######################################################################

data_XENKIM
_symmetry_cell_setting           tetragonal
_symmetry_space_group_name_H-M   'I 41/a'
_symmetry_Int_Tables_number      88
_space_group_name_Hall           '-I 4ad'
loop_
_symmetry_equiv_pos_site_id
_symmetry_equiv_pos_as_xyz
1 x,y,z
2 3/4-y,1/4+x,1/4+z
3 -x,1/2-y,z
4 1/4+y,1/4-x,1/4+z
5 1/2+x,1/2+y,1/2+z
6 1/4-y,3/4+x,3/4+z
7 1/2-x,-y,1/2+z
8 3/4+y,3/4-x,3/4+z
9 -x,-y,-z
10 1/4+y,3/4-x,3/4-z
11 x,1/2+y,-z
12 3/4-y,3/4+x,3/4-z
13 1/2-x,1/2-y,1/2-z
14 3/4+y,1/4-x,1/4-z
15 1/2+x,y,1/2-z
16 1/4-y,1/4+x,1/4-z
_cell_length_a                   28.2810(8)
_cell_length_b                   28.2810(8)
_cell_length_c                   13.5488(7)
_cell_angle_alpha                90
_cell_angle_beta                 90
_cell_angle_gamma                90
_cell_volume                     10836.5
loop_
_atom_site_label
_atom_site_type_symbol
_atom_site_fract_x
_atom_site_fract_y
_atom_site_fract_z
Ca1 Ca 0.19023(3) -0.00490(4) 0.62304(9)
O1 O 0.20341(12) 0.00244(13) 0.4239(3)
O2 O 0.16589(13) 0.05590(14) 0.5102(3)
O3 O 0.24182(13) 0.04691(12) 0.0685(2)
O4 O 0.18158(13) 0.07738(14) -0.0121(3)
O5 O 0.14404(17) 0.21669(14) 0.2600(4)
O6 O 0.02956(15) 0.10554(17) 0.2595(4)
O7 O 0.13003(16) -0.05118(18) 0.5376(3)
O8 O 0.12285(17) 0.03137(18) 0.7040(3)
N1 N 0.08709(17) 0.16164(17) 0.2550(4)
N2 N 0.0877(3) -0.0330(3) 0.3959(6)
N3 N 0.0778(2) 0.0117(2) 0.8382(4)
C1 C 0.18026(18) 0.04020(19) 0.4305(4)
C2 C 0.20148(18) 0.06617(17) 0.0652(4)
C3 C 0.16854(17) 0.06609(18) 0.3382(4)
C4 C 0.19091(18) 0.05451(17) 0.2482(4)
H1 H 0.2148 0.0309 0.2468
C5 C 0.17798(18) 0.07755(17) 0.1613(4)
C6 C 0.14273(19) 0.11169(19) 0.1648(4)
H2 H 0.1323 0.1265 0.1058
C7 C 0.12284(19) 0.1241(2) 0.2545(4)
C8 C 0.13483(19) 0.10175(18) 0.3402(4)
H3 H 0.1202 0.1105 0.4006
C9 C 0.1024(2) 0.2078(2) 0.2582(4)
C10 C 0.0394(2) 0.1466(2) 0.2586(5)
C11 C -0.0439(2) 0.1731(2) 0.2612(5)
H4 H -0.0535 0.1410 0.2645
C12 C 0.00357(19) 0.18476(19) 0.2587(4)
C13 C 0.0777(2) 0.2909(2) 0.2587(5)
H5 H 0.1102 0.2992 0.2572
C14 C 0.0658(2) 0.2441(2) 0.2584(4)
C15 C 0.0181(2) 0.2321(2) 0.2575(4)
C16 C 0.1219(3) -0.0569(3) 0.4493(7)
H6 H 0.1405 -0.0796 0.4150
C17 C 0.0576(3) 0.0019(4) 0.4409(8)
H7 H 0.0643 0.0035 0.5118
H8 H 0.0245 -0.0069 0.4307
H9 H 0.0636 0.0329 0.4109
C18 C 0.0812(4) -0.0377(4) 0.2893(6)
H10 H 0.0546 -0.0179 0.2681
H11 H 0.0745 -0.0709 0.2732
H12 H 0.1100 -0.0277 0.2552
C19 C 0.1116(3) 0.0358(2) 0.7910(6)
H13 H 0.1286 0.0585 0.8285
C20 C 0.0521(3) -0.0235(3) 0.7874(7)
H14 H 0.0681 -0.0309 0.7251
H15 H 0.0201 -0.0119 0.7737
H16 H 0.0503 -0.0520 0.8282
C21 C 0.0676(2) 0.0209(3) 0.9414(4)
H17 H 0.0917 0.0422 0.9685
H18 H 0.0680 -0.0090 0.9781
H19 H 0.0364 0.0356 0.9473
Ca1B Ca -0.19023(3) 0.50490(4) 0.62304(9)
Ca1A Ca -0.24510(4) 0.44023(3) -0.12696(9)
Ca1C Ca 0.24510(4) 0.05977(3) -0.12696(9)
Ca1D Ca -0.30977(3) 0.49510(4) 0.12304(9)
Ca1E Ca 0.25490(4) -0.05977(3) 0.37304(9)
Ca1F Ca 0.30977(3) 0.00490(4) 0.12304(9)
Ca1G Ca -0.25490(4) 0.55977(3) 0.37304(9)
O1B O -0.20341(12) 0.49756(13) 0.4239(3)
O1A O -0.25244(13) 0.45341(12) 0.6739(3)
O1C O 0.25244(13) 0.04659(12) 0.6739(3)
O2B O -0.16589(13) 0.44410(14) 0.5102(3)
O3B O -0.24182(13) 0.45309(12) 0.0685(2)
O3D O -0.25818(13) 0.54691(12) 0.5685(2)
O3E O 0.20309(12) -0.00818(13) 0.8185(2)
O3F O 0.25818(13) -0.04691(12) 0.5685(2)
O3G O -0.20309(12) 0.50818(13) 0.8185(2)
O4B O -0.18158(13) 0.42262(14) -0.0121(3)
O4E O 0.17262(14) -0.06842(13) 0.7379(3)
O4G O -0.17262(14) 0.56842(13) 0.7379(3)
O5B O -0.14404(17) 0.28331(14) 0.2600(4)
O6B O -0.02956(15) 0.39446(17) 0.2595(4)
O7B O -0.13003(16) 0.55118(18) 0.5376(3)
O8B O -0.12285(17) 0.46863(18) 0.7040(3)
N1B N -0.08709(17) 0.33836(17) 0.2550(4)
N2B N -0.0877(3) 0.5330(3) 0.3959(6)
N3B N -0.0778(2) 0.4883(2) 0.8382(4)
C1B C -0.18026(18) 0.45980(19) 0.4305(4)
C2B C -0.20148(18) 0.43383(17) 0.0652(4)
C3B C -0.16854(17) 0.43391(18) 0.3382(4)
C4B C -0.19091(18) 0.44549(17) 0.2482(4)
H1B H -0.2148 0.4691 0.2468
C5B C -0.17798(18) 0.42245(17) 0.1613(4)
C6B C -0.14273(19) 0.38831(19) 0.1648(4)
H2B H -0.1323 0.3735 0.1058
C7B C -0.12284(19) 0.3759(2) 0.2545(4)
C8B C -0.13483(19) 0.39825(18) 0.3402(4)
H3B H -0.1202 0.3895 0.4006
C9B C -0.1024(2) 0.2922(2) 0.2582(4)
C10B C -0.0394(2) 0.3534(2) 0.2586(5)
C11B C 0.0439(2) 0.3269(2) 0.2612(5)
H4B H 0.0535 0.3590 0.2645
C12B C -0.00357(19) 0.31524(19) 0.2587(4)
C13B C -0.0777(2) 0.2091(2) 0.2587(5)
H5B H -0.1102 0.2008 0.2572
C14B C -0.0658(2) 0.2559(2) 0.2584(4)
C15B C -0.0181(2) 0.2679(2) 0.2575(4)
C16B C -0.1219(3) 0.5569(3) 0.4493(7)
H6B H -0.1405 0.5796 0.4150
C17B C -0.0576(3) 0.4981(4) 0.4409(8)
H7B H -0.0643 0.4965 0.5118
H8B H -0.0245 0.5069 0.4307
H9B H -0.0636 0.4671 0.4109
C18B C -0.0812(4) 0.5377(4) 0.2893(6)
H10B H -0.0546 0.5179 0.2681
H11B H -0.0745 0.5709 0.2732
H12B H -0.1100 0.5277 0.2552
C19B C -0.1116(3) 0.4642(2) 0.7910(6)
H13B H -0.1286 0.4415 0.8285
C20B C -0.0521(3) 0.5235(3) 0.7874(7)
H14B H -0.0681 0.5309 0.7251
H15B H -0.0201 0.5119 0.7737
H16B H -0.0503 0.5520 0.8282
C21B C -0.0676(2) 0.4791(3) 0.9414(4)
H17B H -0.0917 0.4578 0.9685
H18B H -0.0680 0.5090 0.9781
H19B H -0.0364 0.4644 0.9473
O9 O 0.0583(2) 0.1882(3) 0.4755(4)
N4 N 0.0530(2) 0.1523(3) 0.6232(4)
C22 C 0.0447(2) 0.1052(3) 0.5862(4)
H20 H 0.0384 0.0838 0.6416
H21 H 0.0726 0.0943 0.5501
H22 H 0.0173 0.1056 0.5417
C23 C 0.0598(2) 0.1610(3) 0.7264(4)
H23 H 0.0521 0.1323 0.7638
H24 H 0.0393 0.1869 0.7476
H25 H 0.0929 0.1695 0.7384
C24 C 0.0622(2) 0.1877(3) 0.5659(4)
H26 H 0.0729 0.2160 0.5965
loop_
_geom_bond_atom_site_label_1
_geom_bond_atom_site_label_2
_geom_bond_site_symmetry_1
_geom_bond_site_symmetry_2
Ca1 O1 1_555 1_555
O1 C1 1_555 1_555
O2 Ca1 1_555 1_555
O3 C2 1_555 1_555
O4 C2 1_555 1_555
O5 C9 1_555 1_555
O6 C10 1_555 1_555
O7 Ca1 1_555 1_555
O8 Ca1 1_555 1_555
N1 C7 1_555 1_555
N2 C16 1_555 1_555
N3 C19 1_555 1_555
C1 O2 1_555 1_555
C2 C5 1_555 1_555
C3 C1 1_555 1_555
C4 C3 1_555 1_555
H1 C4 1_555 1_555
C5 C4 1_555 1_555
C6 C5 1_555 1_555
H2 C6 1_555 1_555
C7 C6 1_555 1_555
C8 C3 1_555 1_555
H3 C8 1_555 1_555
C9 N1 1_555 1_555
C10 N1 1_555 1_555
C11 H4 1_555 1_555
C12 C10 1_555 1_555
C13 H5 1_555 1_555
C14 C9 1_555 1_555
C15 C12 1_555 1_555
C16 O7 1_555 1_555
H6 C16 1_555 1_555
C17 N2 1_555 1_555
H7 C17 1_555 1_555
H8 C17 1_555 1_555
H9 C17 1_555 1_555
C18 N2 1_555 1_555
H10 C18 1_555 1_555
H11 C18 1_555 1_555
H12 C18 1_555 1_555
C19 O8 1_555 1_555
H13 C19 1_555 1_555
C20 N3 1_555 1_555
H14 C20 1_555 1_555
H15 C20 1_555 1_555
H16 C20 1_555 1_555
C21 N3 1_555 1_555
H17 C21 1_555 1_555
H18 C21 1_555 1_555
H19 C21 1_555 1_555
O9 C24 1_555 1_555
N4 C22 1_555 1_555
C22 H20 1_555 1_555
H21 C22 1_555 1_555
H22 C22 1_555 1_555
C23 N4 1_555 1_555
H23 C23 1_555 1_555
H24 C23 1_555 1_555
H25 C23 1_555 1_555
C24 N4 1_555 1_555
H26 C24 1_555 1_555
Ca1B O1B 1_555 1_555
Ca1A O3B 1_555 1_555
Ca1C O3 1_555 1_555
Ca1D O3B 1_555 1_555
Ca1E O1 1_555 1_555
Ca1F O3 1_555 1_555
Ca1G O1B 1_555 1_555
O1B C1B 1_555 1_555
O1A Ca1B 1_555 1_555
O1C Ca1 1_555 1_555
O2B Ca1B 1_555 1_555
O3B C2B 1_555 1_555
O3D Ca1B 1_555 1_555
O3E Ca1 1_555 1_555
O3F Ca1 1_555 1_555
O3G Ca1B 1_555 1_555
O4B Ca1A 1_555 1_555
O4E Ca1 1_555 1_555
O4G Ca1B 1_555 1_555
O5B C9B 1_555 1_555
O6B C10B 1_555 1_555
O7B Ca1B 1_555 1_555
O8B Ca1B 1_555 1_555
N1B C7B 1_555 1_555
N2B C16B 1_555 1_555
N3B C19B 1_555 1_555
C1B O2B 1_555 1_555
C2B O4B 1_555 1_555
C3B C1B 1_555 1_555
C4B C3B 1_555 1_555
H1B C4B 1_555 1_555
C5B C2B 1_555 1_555
C6B C5B 1_555 1_555
H2B C6B 1_555 1_555
C7B C6B 1_555 1_555
C8B C3B 1_555 1_555
H3B C8B 1_555 1_555
C9B N1B 1_555 1_555
C10B N1B 1_555 1_555
C11B C13 1_555 1_555
H4B C11B 1_555 1_555
C12B C10B 1_555 1_555
C13B C11 1_555 1_555
H5B C13B 1_555 1_555
C14B C9B 1_555 1_555
C15B C15 1_555 1_555
C16B O7B 1_555 1_555
H6B C16B 1_555 1_555
C17B N2B 1_555 1_555
H7B C17B 1_555 1_555
H8B C17B 1_555 1_555
H9B C17B 1_555 1_555
C18B N2B 1_555 1_555
H10B C18B 1_555 1_555
H11B C18B 1_555 1_555
H12B C18B 1_555 1_555
C19B O8B 1_555 1_555
H13B C19B 1_555 1_555
C20B N3B 1_555 1_555
H14B C20B 1_555 1_555
H15B C20B 1_555 1_555
H16B C20B 1_555 1_555
C21B N3B 1_555 1_555
H17B C21B 1_555 1_555
H18B C21B 1_555 1_555
H19B C21B 1_555 1_555
O4 Ca1C 1_555 1_555
C7 C8 1_555 1_555
C11 C12 1_555 1_555
C13 C14 1_555 1_555
C14 C15 1_555 1_555
Ca1E O3F 1_555 1_555
Ca1G O3D 1_555 1_555
C4B C5B 1_555 1_555
C7B C8B 1_555 1_555
C11B C12B 1_555 1_555
C12B C15B 1_555 1_555
C13B C14B 1_555 1_555
C14B C15B 1_555 1_555

#END
