
#######################################################################
#
#                 Cambridge Crystallographic Data Centre
#                                CCDC 
#
#######################################################################
#
# If this CIF has been generated from an entry in the Cambridge 
# Structural Database, then it will include bibliographic, chemical, 
# crystal, experimental, refinement or atomic coordinate data resulting 
# from the CCDC's data processing and validation procedures.
#
#######################################################################

data_XENMEK
_symmetry_cell_setting           monoclinic
_symmetry_space_group_name_H-M   'P 21/c'
_symmetry_Int_Tables_number      14
_space_group_name_Hall           '-P 2ybc'
loop_
_symmetry_equiv_pos_site_id
_symmetry_equiv_pos_as_xyz
1 x,y,z
2 -x,1/2+y,1/2-z
3 -x,-y,-z
4 x,1/2-y,1/2+z
_cell_length_a                   9.6708(2)
_cell_length_b                   16.3872(3)
_cell_length_c                   9.2210(2)
_cell_angle_alpha                90
_cell_angle_beta                 117.8512(6)
_cell_angle_gamma                90
_cell_volume                     1292.05
loop_
_atom_site_label
_atom_site_type_symbol
_atom_site_fract_x
_atom_site_fract_y
_atom_site_fract_z
La1 La 0.2985(1) 0.16270(5) 0.8974(1)
P1 P 0.1842(5) 0.1272(2) 0.2390(5)
P2 P 0.4248(4) -0.1856(2) 0.2958(4)
P3 P 0.3014(5) -0.0560(2) 0.7798(5)
C1 C 0.3717(9) -0.1017(4) 0.3803(8)
C2 C 0.297(1) -0.0489(4) 0.583(1)
C3 C 0.2514(9) 0.0325(4) 0.3490(9)
C4 C 0.243(1) 0.0216(4) 0.493(1)
C5 C 0.365(1) -0.1111(5) 0.529(1)
C6 C 0.3146(9) -0.0292(5) 0.290(1)
O1 O 0.2308(9) 0.0193(4) 0.8081(9)
O2 O 0.265(1) 0.1415(4) 0.1360(9)
O3 O 0.478(1) -0.2550(5) 0.414(1)
O4 O -0.009(1) 0.1387(4) 0.8058(8)
O5 O 0.2082(8) -0.1357(4) 0.7774(8)
O6 O 0.277(1) -0.2086(4) 0.134(1)
O7 O 0.474(1) -0.0638(5) 0.9222(9)
O8 O 0.095(1) 0.1849(5) 0.5789(9)
O9 O 0.0060(7) 0.1153(4) 0.1174(8)
O10 O 0.5493(9) -0.1585(4) 0.2462(7)
O11 O 0.200(1) 0.1929(4) 0.3582(9)
H1 H 0.303(2) -0.0246(6) 0.185(2)
H2 H 0.20(1) 0.061(3) 0.532(8)
H3 H 0.391(2) -0.1610(9) 0.581(2)
La1_2 La 0.2985(1) 0.16270(5) -0.1026(1)
La1A La 0.7015(1) -0.33730(5) 0.6026(1)
La1B La 0.7015(1) -0.16270(5) 1.1026(1)
La1B_2 La 0.7015(1) -0.16270(5) 0.1026(1)
La1C La 0.2985(1) 0.33730(5) 0.3974(1)
O2_2 O 0.265(1) 0.1415(4) 1.1360(9)
O3A O 0.522(1) 0.2450(5) 1.086(1)
O7B O 0.526(1) 0.0638(5) 1.0778(9)
O10B O 0.4507(9) 0.1585(4) 0.7538(7)
O11C O 0.200(1) 0.3071(4) 0.8582(9)
loop_
_geom_bond_atom_site_label_1
_geom_bond_atom_site_label_2
_geom_bond_site_symmetry_1
_geom_bond_site_symmetry_2
La1 O1 1_555 1_555
P1 C3 1_555 1_555
P2 C1 1_555 1_555
P3 C2 1_555 1_555
C1 C5 1_555 1_555
C2 C4 1_555 1_555
C3 C4 1_555 1_555
C4 H2 1_555 1_555
C5 C2 1_555 1_555
C6 C1 1_555 1_555
O1 P3 1_555 1_555
O2 P1 1_555 1_555
O3 P2 1_555 1_555
O4 La1 1_555 1_555
O5 P3 1_555 1_555
O6 P2 1_555 1_555
O7 P3 1_555 1_555
O8 La1 1_555 1_555
O9 P1 1_555 1_555
O10 P2 1_555 1_555
O11 P1 1_555 1_555
H1 C6 1_555 1_555
H3 C5 1_555 1_555
La1_2 O2 1_555 1_555
La1A O3 1_555 1_555
La1B O7 1_555 1_555
La1B_2 O10 1_555 1_555
La1C O11 1_555 1_555
O2_2 La1 1_555 1_555
O3A La1 1_555 1_555
O7B La1 1_555 1_555
O10B La1 1_555 1_555
O11C La1 1_555 1_555
C3 C6 1_555 1_555

#END
