
#######################################################################
#
#                 Cambridge Crystallographic Data Centre
#                                CCDC 
#
#######################################################################
#
# If this CIF has been generated from an entry in the Cambridge 
# Structural Database, then it will include bibliographic, chemical, 
# crystal, experimental, refinement or atomic coordinate data resulting 
# from the CCDC's data processing and validation procedures.
#
#######################################################################

data_XENRAK
_symmetry_cell_setting           triclinic
_symmetry_space_group_name_H-M   'P -1'
_symmetry_Int_Tables_number      2
_space_group_name_Hall           '-P 1'
loop_
_symmetry_equiv_pos_site_id
_symmetry_equiv_pos_as_xyz
1 x,y,z
2 -x,-y,-z
_cell_length_a                   6.9326(13)
_cell_length_b                   8.8292(17)
_cell_length_c                   12.689(3)
_cell_angle_alpha                69.703(3)
_cell_angle_beta                 81.607(5)
_cell_angle_gamma                68.471(3)
_cell_volume                     677.48
loop_
_atom_site_label
_atom_site_type_symbol
_atom_site_fract_x
_atom_site_fract_y
_atom_site_fract_z
Na1 Na 0.29485(10) 0.29661(8) 0.41804(5)
Na2 Na 0.01935(10) 1.25754(8) 0.02700(5)
N1 N 0.1234(2) 0.95100(17) 0.13845(11)
N2 N 0.1367(2) 0.80693(17) 0.10847(11)
C1 C 0.1938(2) 0.6715(2) 0.19800(13)
N3 N 0.2336(2) 0.49733(17) 0.21478(11)
N4 N 0.1685(2) 0.47875(17) 0.13179(11)
O1 O 0.20387(18) 0.31982(14) 0.14191(10)
N5 N 0.2199(2) 0.71804(17) 0.28593(11)
N6 N 0.2781(2) 0.60494(18) 0.39474(11)
H1 H 0.388(4) 0.617(3) 0.4072(19)
H2 H 0.182(4) 0.644(3) 0.4453(19)
C2 C 0.1755(2) 0.89242(19) 0.24510(13)
N7 N 0.1822(2) 0.98475(18) 0.30868(12)
H3 H 0.179(3) 1.084(3) 0.2777(18)
H4 H 0.233(3) 0.931(3) 0.3765(19)
N8 N 0.2789(2) 0.34808(17) 0.69357(11)
N9 N 0.2727(2) 0.25406(17) 0.62479(11)
C3 C 0.3175(2) 0.0937(2) 0.68884(13)
N10 N 0.3449(2) -0.05454(17) 0.66324(11)
N11 N 0.3044(2) -0.01842(17) 0.56019(11)
O2 O 0.33363(18) -0.15447(15) 0.53342(9)
N12 N 0.3505(2) 0.07772(17) 0.79682(11)
N13 N 0.4025(2) -0.06837(18) 0.89292(11)
H5 H 0.502(4) -0.150(3) 0.8729(18)
H6 H 0.296(4) -0.096(3) 0.9186(19)
C4 C 0.3254(2) 0.2384(2) 0.79547(13)
N14 N 0.3366(2) 0.27247(19) 0.89091(12)
H7 H 0.345(3) 0.367(3) 0.8796(18)
H8 H 0.422(3) 0.194(3) 0.9377(18)
O3 O -0.0383(2) 0.31430(16) 0.39098(11)
H9 H -0.118(4) 0.415(3) 0.362(2)
H10 H -0.115(4) 0.252(3) 0.411(2)
O4 O -0.2350(2) 1.34465(16) 0.17012(10)
H11 H -0.143(4) 1.333(3) 0.210(2)
H12 H -0.299(4) 1.288(3) 0.212(2)
Na1A Na 0.70515(10) -0.29661(8) 0.58196(5)
Na2A Na -0.01935(10) 0.74246(8) -0.02700(5)
Na2_2 Na 0.01935(10) 0.25754(8) 0.02700(5)
N2A N -0.1367(2) 1.19307(17) -0.10847(11)
N4A N -0.1685(2) 1.52125(17) -0.13179(11)
O1_2 O 0.20387(18) 1.31982(14) 0.14191(10)
O2A O 0.66637(18) 0.15447(15) 0.46658(9)
loop_
_geom_bond_atom_site_label_1
_geom_bond_atom_site_label_2
_geom_bond_site_symmetry_1
_geom_bond_site_symmetry_2
Na1 N3 1_555 1_555
Na2 N1 1_555 1_555
N1 N2 1_555 1_555
N2 C1 1_555 1_555
C1 N3 1_555 1_555
N3 N4 1_555 1_555
N4 O1 1_555 1_555
O1 Na2_2 1_555 1_555
N5 C1 1_555 1_555
N6 Na1 1_555 1_555
H1 N6 1_555 1_555
H2 N6 1_555 1_555
C2 N1 1_555 1_555
N7 C2 1_555 1_555
H3 N7 1_555 1_555
H4 N7 1_555 1_555
N8 N9 1_555 1_555
N9 Na1 1_555 1_555
C3 N9 1_555 1_555
N10 C3 1_555 1_555
N11 N10 1_555 1_555
O2 N11 1_555 1_555
N12 C3 1_555 1_555
N13 N12 1_555 1_555
H5 N13 1_555 1_555
H6 N13 1_555 1_555
C4 N8 1_555 1_555
N14 C4 1_555 1_555
H7 N14 1_555 1_555
H8 N14 1_555 1_555
O3 Na1 1_555 1_555
H9 O3 1_555 1_555
H10 O3 1_555 1_555
O4 Na2 1_555 1_555
H11 O4 1_555 1_555
H12 O4 1_555 1_555
Na1A O2 1_555 1_555
Na2A N2 1_555 1_555
N2A Na2 1_555 1_555
N4A Na2 1_555 1_555
O1_2 Na2 1_555 1_555
O2A Na1 1_555 1_555
N4 Na2A 1_555 1_555
N5 N6 1_555 1_555
N5 C2 1_555 1_555
N12 C4 1_555 1_555

#END
