
#######################################################################
#
#                 Cambridge Crystallographic Data Centre
#                                CCDC 
#
#######################################################################
#
# If this CIF has been generated from an entry in the Cambridge 
# Structural Database, then it will include bibliographic, chemical, 
# crystal, experimental, refinement or atomic coordinate data resulting 
# from the CCDC's data processing and validation procedures.
#
#######################################################################

data_XENTOB
_symmetry_cell_setting           monoclinic
_symmetry_space_group_name_H-M   'P 21/c'
_symmetry_Int_Tables_number      14
_space_group_name_Hall           '-P 2ybc'
loop_
_symmetry_equiv_pos_site_id
_symmetry_equiv_pos_as_xyz
1 x,y,z
2 -x,1/2+y,1/2-z
3 -x,-y,-z
4 x,1/2-y,1/2+z
_cell_length_a                   6.7927(3)
_cell_length_b                   15.7016(7)
_cell_length_c                   13.1938(6)
_cell_angle_alpha                90
_cell_angle_beta                 102.723(2)
_cell_angle_gamma                90
_cell_volume                     1372.65
loop_
_atom_site_label
_atom_site_type_symbol
_atom_site_fract_x
_atom_site_fract_y
_atom_site_fract_z
Ag1 Ag 0.32833(2) 0.357731(9) 0.456307(11)
N1 N 0.2909(3) 0.45884(11) 0.28954(14)
C1 C 0.3038(3) 0.46868(12) 0.20630(16)
C2 C 0.3203(4) 0.48246(16) 0.09919(17)
H1 H 0.2706 0.4321 0.0575
H2 H 0.4618 0.4924 0.0973
H3 H 0.2394 0.5321 0.0707
N2 N 0.2864(2) 0.45978(9) 0.55564(12)
C3 C 0.2501(2) 0.46091(11) 0.65053(13)
N3 N 0.1903(2) 0.53948(9) 0.67197(12)
H4 H 0.157(3) 0.5545(14) 0.7223(18)
C4 C 0.1895(3) 0.59088(11) 0.58827(14)
H5 H 0.1552 0.6496 0.5818
C5 C 0.2479(3) 0.54073(11) 0.51639(14)
H6 H 0.2603 0.5588 0.4493
N4 N 0.3210(2) 0.25395(10) 0.86269(12)
C6 C 0.4291(3) 0.25914(12) 0.78937(14)
H7 H 0.5220 0.2148 0.7851
C7 C 0.4123(3) 0.32546(12) 0.71996(14)
H8 H 0.4936 0.3269 0.6699
C8 C 0.2753(3) 0.39038(11) 0.72387(13)
C9 C 0.1647(3) 0.38553(12) 0.80047(15)
H9 H 0.0709 0.4291 0.8065
C10 C 0.1915(3) 0.31736(12) 0.86753(15)
H10 H 0.1147 0.3151 0.9196
Ag1C Ag 0.32833(2) 0.142269(9) 0.956307(11)
N4C N 0.3210(2) 0.24605(10) 0.36269(12)
P1 P 0.16800(7) 0.69070(3) 0.89876(4)
F1 F 0.1892(2) 0.79126(8) 0.90734(10)
F2 F -0.06665(18) 0.69719(8) 0.89464(10)
F3 F 0.21043(19) 0.68248(8) 1.02221(9)
F4 F 0.40356(18) 0.68230(9) 0.90326(10)
F5 F 0.1259(2) 0.69703(7) 0.77498(9)
F6 F 0.14850(18) 0.58808(7) 0.88825(9)
loop_
_geom_bond_atom_site_label_1
_geom_bond_atom_site_label_2
_geom_bond_site_symmetry_1
_geom_bond_site_symmetry_2
Ag1 N1 1_555 1_555
P1 F1 1_555 1_555
F2 P1 1_555 1_555
F3 P1 1_555 1_555
F4 P1 1_555 1_555
F5 P1 1_555 1_555
F6 P1 1_555 1_555
N1 C1 1_555 1_555
C1 C2 1_555 1_555
C2 H1 1_555 1_555
H2 C2 1_555 1_555
H3 C2 1_555 1_555
N2 Ag1 1_555 1_555
C3 N2 1_555 1_555
N3 C3 1_555 1_555
H4 N3 1_555 1_555
C4 N3 1_555 1_555
H5 C4 1_555 1_555
C5 N2 1_555 1_555
H6 C5 1_555 1_555
N4 C6 1_555 1_555
C6 H7 1_555 1_555
C7 C6 1_555 1_555
H8 C7 1_555 1_555
C8 C3 1_555 1_555
C9 C8 1_555 1_555
H9 C9 1_555 1_555
C10 N4 1_555 1_555
H10 C10 1_555 1_555
Ag1C N4 1_555 1_555
N4C Ag1 1_555 1_555
C4 C5 1_555 1_555
C7 C8 1_555 1_555
C9 C10 1_555 1_555

#END
