
#######################################################################
#
#                 Cambridge Crystallographic Data Centre
#                                CCDC 
#
#######################################################################
#
# If this CIF has been generated from an entry in the Cambridge 
# Structural Database, then it will include bibliographic, chemical, 
# crystal, experimental, refinement or atomic coordinate data resulting 
# from the CCDC's data processing and validation procedures.
#
#######################################################################

data_XENTUH
_symmetry_cell_setting           monoclinic
_symmetry_space_group_name_H-M   'P 21/n'
_symmetry_Int_Tables_number      14
_space_group_name_Hall           '-P 2yn'
loop_
_symmetry_equiv_pos_site_id
_symmetry_equiv_pos_as_xyz
1 x,y,z
2 1/2-x,1/2+y,1/2-z
3 -x,-y,-z
4 1/2+x,1/2-y,1/2+z
_cell_length_a                   6.4496(5)
_cell_length_b                   13.5953(11)
_cell_length_c                   8.6168(6)
_cell_angle_alpha                90
_cell_angle_beta                 94.244(3)
_cell_angle_gamma                90
_cell_volume                     753.486
loop_
_atom_site_label
_atom_site_type_symbol
_atom_site_fract_x
_atom_site_fract_y
_atom_site_fract_z
Ag1 Ag 0.82422(3) 0.543624(18) 0.26664(3)
N1 N 0.4958(4) 0.51632(19) 0.2565(3)
C1 C 0.3288(4) 0.5525(2) 0.3219(4)
N2 N 0.1504(4) 0.5090(2) 0.2695(3)
C2 C 0.2072(5) 0.4400(2) 0.1641(4)
H1 H 0.1155 0.3964 0.1066
C3 C 0.4193(5) 0.4445(2) 0.1559(4)
H2 H 0.4989 0.4047 0.0918
N3 N 0.3496(4) 0.7812(2) 0.6682(3)
C4 C 0.5203(5) 0.7537(2) 0.5991(4)
H3 H 0.6474 0.7861 0.6292
C5 C 0.5226(5) 0.6810(2) 0.4868(4)
H4 H 0.6481 0.6655 0.4409
C6 C 0.3388(4) 0.6303(2) 0.4410(3)
C7 C 0.1627(5) 0.6574(2) 0.5159(4)
H5 H 0.0346 0.6243 0.4918
C8 C 0.1742(5) 0.7322(3) 0.6251(4)
H6 H 0.0509 0.7497 0.6723
Ag1_2 Ag -0.17578(3) 0.543624(18) 0.26664(3)
Ag1C Ag 0.32422(3) 0.956376(18) 0.76664(3)
N2_2 N 1.1504(4) 0.5090(2) 0.2695(3)
N3C N 0.8496(4) 0.7188(2) 0.1682(3)
loop_
_geom_bond_atom_site_label_1
_geom_bond_atom_site_label_2
_geom_bond_site_symmetry_1
_geom_bond_site_symmetry_2
Ag1 N1 1_555 1_555
N1 C1 1_555 1_555
C1 N2 1_555 1_555
N2 C2 1_555 1_555
C2 H1 1_555 1_555
C3 N1 1_555 1_555
H2 C3 1_555 1_555
N3 C4 1_555 1_555
C4 H3 1_555 1_555
C5 C4 1_555 1_555
H4 C5 1_555 1_555
C6 C1 1_555 1_555
C7 C6 1_555 1_555
H5 C7 1_555 1_555
C8 N3 1_555 1_555
H6 C8 1_555 1_555
Ag1_2 N2 1_555 1_555
Ag1C N3 1_555 1_555
N2_2 Ag1 1_555 1_555
N3C Ag1 1_555 1_555
C2 C3 1_555 1_555
C5 C6 1_555 1_555
C7 C8 1_555 1_555

#END
