
#######################################################################
#
#                 Cambridge Crystallographic Data Centre
#                                CCDC 
#
#######################################################################
#
# If this CIF has been generated from an entry in the Cambridge 
# Structural Database, then it will include bibliographic, chemical, 
# crystal, experimental, refinement or atomic coordinate data resulting 
# from the CCDC's data processing and validation procedures.
#
#######################################################################

data_XENWOC
_symmetry_cell_setting           triclinic
_symmetry_space_group_name_H-M   'P -1'
_symmetry_Int_Tables_number      2
_space_group_name_Hall           '-P 1'
loop_
_symmetry_equiv_pos_site_id
_symmetry_equiv_pos_as_xyz
1 x,y,z
2 -x,-y,-z
_cell_length_a                   7.236(4)
_cell_length_b                   12.550(7)
_cell_length_c                   16.764(10)
_cell_angle_alpha                97.566(11)
_cell_angle_beta                 97.065(10)
_cell_angle_gamma                99.265(12)
_cell_volume                     1473.16
loop_
_atom_site_label
_atom_site_type_symbol
_atom_site_fract_x
_atom_site_fract_y
_atom_site_fract_z
V1 V 1.01912(12) 0.92373(7) 0.05521(5)
V2 V 1.19394(12) 0.87242(7) -0.12854(5)
V3 V 0.15949(12) 0.60455(7) 0.35248(5)
V4 V 0.12467(13) 0.42417(8) 0.49505(6)
O1 O 0.0473(5) 0.5339(3) 0.4335(2)
O2 O 1.1243(5) 0.9613(3) -0.0400(2)
O3 O 0.8340(6) 0.8511(3) 0.1242(2)
O4 O 1.0009(5) 0.8253(3) -0.1854(2)
O5 O 1.6892(5) 0.5119(3) -0.3291(2)
O6 O -0.1411(6) 0.7214(3) 0.4638(3)
O7 O 1.1797(6) 0.9839(3) 0.1279(3)
O8 O 0.4001(7) 0.6716(4) 0.4557(3)
H1 H 0.3570 0.6831 0.4984
O9 O 1.1094(5) 0.7759(3) 0.0503(2)
O10 O 1.7672(6) 0.6489(3) -0.3982(2)
O11 O 0.3235(6) 0.4816(4) 0.5454(3)
O12 O 0.7805(8) 0.8143(5) -0.0482(4)
H2 H 0.6881 0.8443 -0.0535
N1 N 0.3603(6) 0.6999(3) 0.2916(3)
O13 O -0.1486(7) 0.3105(4) 0.4233(3)
H3 H -0.2334 0.3086 0.4516
O14 O 1.1993(6) 0.7414(3) -0.0710(3)
O15 O 0.0052(5) 0.5715(3) 0.2738(2)
O16 O 1.4834(7) 0.9156(4) -0.0618(3)
H4 H 1.5394 0.8645 -0.0708
C1 C 1.1718(7) 0.7196(4) -0.0026(3)
C2 C 1.6830(7) 0.6051(4) -0.3473(3)
C3 C 0.7296(7) 0.8944(4) 0.1655(3)
C4 C 0.4244(8) 0.8445(4) 0.2156(3)
H5 H 0.3833 0.9024 0.1936
C5 C 0.0072(9) 0.9574(5) 0.3738(4)
H6 H 0.1135 0.9401 0.3527
C6 C 0.6005(7) 0.8233(4) 0.2082(3)
C7 C -0.0461(8) 0.7765(4) 0.4225(3)
C8 C 0.6547(7) 0.7365(4) 0.2429(3)
H7 H 0.7715 0.7168 0.2372
C9 C 1.2106(7) 0.6105(4) 0.0150(3)
C10 C 0.3086(8) 0.7806(4) 0.2554(3)
H8 H 0.1865 0.7941 0.2573
C11 C 1.2555(9) 0.5364(5) -0.0450(4)
H9 H 1.2689 0.5542 -0.0964
N2 N -0.1906(8) 1.0874(4) 0.3944(4)
N3 N 1.2649(7) 0.4052(4) 0.0445(3)
C12 C 1.1949(9) 0.5803(5) 0.0894(4)
H10 H 1.1641 0.6282 0.1308
C13 C 0.5345(8) 0.6812(4) 0.2851(3)
H11 H 0.5758 0.6266 0.3113
C14 C -0.2562(9) 0.9138(5) 0.4384(4)
H12 H -0.3351 0.8671 0.4636
C15 C -0.0984(8) 0.8836(4) 0.4118(3)
C16 C 1.2253(10) 0.4775(5) 0.1027(4)
H13 H 1.2177 0.4582 0.1541
C17 C 1.2795(9) 0.4356(5) -0.0264(4)
H14 H 1.3082 0.3857 -0.0670
C18 C -0.0443(10) 1.0558(5) 0.3674(5)
H15 H 0.0307 1.1040 0.3417
C19 C -0.2961(9) 1.0151(5) 0.4270(5)
H16 H -0.4062 1.0334 0.4438
C20 C 1.5611(8) 0.6681(4) -0.3020(3)
C21 C 1.5988(8) 0.7796(4) -0.2892(4)
H17 H 1.6972 0.8171 -0.3110
C22 C 1.4072(8) 0.6172(4) -0.2721(3)
H18 H 1.3743 0.5414 -0.2812
C23 C 1.4901(8) 0.8358(5) -0.2437(4)
H19 H 1.5187 0.9117 -0.2346
C24 C 1.3044(8) 0.6781(4) -0.2294(3)
H20 H 1.1987 0.6426 -0.2110
N4 N 1.3471(6) 0.7869(3) -0.2124(3)
O17 O 0.0887(6) 0.7506(3) 0.3898(2)
O18 O 0.7127(5) 0.9931(3) 0.1750(2)
H21 H 1.489(14) 0.960(7) -0.039(5)
H22 H 0.790(10) 0.779(5) -0.050(4)
H23 H 0.455(8) 0.641(5) 0.454(4)
H24 H -0.136(11) 0.335(6) 0.392(5)
O2A O 0.8757(5) 1.0387(3) 0.0400(2)
O18A O 1.2873(5) 1.0069(3) -0.1750(2)
O5A O 0.3108(5) 0.4881(3) 0.3291(2)
O1A O -0.0473(5) 0.4661(3) 0.5665(2)
O6A O 0.1411(6) 0.2786(3) 0.5362(3)
O10A O 0.2328(6) 0.3511(3) 0.3982(2)
V4A V -0.12467(13) 0.57583(8) 0.50495(6)
V1A V 0.98088(12) 1.07627(7) -0.05521(5)
V3A V 1.84051(12) 0.39545(7) -0.35248(5)
V4A_2 V 1.87533(13) 0.57583(8) -0.49505(6)
V2A V 0.80606(12) 1.12758(7) 0.12854(5)
loop_
_geom_bond_atom_site_label_1
_geom_bond_atom_site_label_2
_geom_bond_site_symmetry_1
_geom_bond_site_symmetry_2
V1 O2 1_555 1_555
V2 O2 1_555 1_555
V3 O1 1_555 1_555
V4 O1 1_555 1_555
O1 V4A 1_555 1_555
O2 V1A 1_555 1_555
O3 V1 1_555 1_555
O4 V2 1_555 1_555
O5 C2 1_555 1_555
O6 C7 1_555 1_555
O7 V1 1_555 1_555
O8 V3 1_555 1_555
H1 O8 1_555 1_555
O9 V1 1_555 1_555
O10 C2 1_555 1_555
O11 V4 1_555 1_555
O12 V1 1_555 1_555
H2 O12 1_555 1_555
N1 V3 1_555 1_555
O13 V4 1_555 1_555
H3 O13 1_555 1_555
O14 V2 1_555 1_555
O15 V3 1_555 1_555
O16 V2 1_555 1_555
H4 O16 1_555 1_555
C1 O9 1_555 1_555
C2 C20 1_555 1_555
C3 O3 1_555 1_555
C4 H5 1_555 1_555
C5 H6 1_555 1_555
C6 C3 1_555 1_555
C7 C15 1_555 1_555
C8 C6 1_555 1_555
H7 C8 1_555 1_555
C9 C1 1_555 1_555
C10 N1 1_555 1_555
H8 C10 1_555 1_555
C11 C9 1_555 1_555
H9 C11 1_555 1_555
N2 C18 1_555 1_555
N3 C16 1_555 1_555
C12 C9 1_555 1_555
H10 C12 1_555 1_555
C13 N1 1_555 1_555
H11 C13 1_555 1_555
C14 H12 1_555 1_555
C15 C5 1_555 1_555
C16 C12 1_555 1_555
H13 C16 1_555 1_555
C17 C11 1_555 1_555
H14 C17 1_555 1_555
C18 C5 1_555 1_555
H15 C18 1_555 1_555
C19 N2 1_555 1_555
H16 C19 1_555 1_555
C20 C21 1_555 1_555
C21 H17 1_555 1_555
C22 C20 1_555 1_555
H18 C22 1_555 1_555
C23 C21 1_555 1_555
H19 C23 1_555 1_555
C24 C22 1_555 1_555
H20 C24 1_555 1_555
N4 V2 1_555 1_555
O17 V3 1_555 1_555
O18 C3 1_555 1_555
H21 O16 1_555 1_555
H22 O12 1_555 1_555
H23 O8 1_555 1_555
H24 O13 1_555 1_555
O2A V1 1_555 1_555
O18A V2 1_555 1_555
O5A V3 1_555 1_555
O1A V4 1_555 1_555
O6A V4 1_555 1_555
O10A V4 1_555 1_555
V4A O6 1_555 1_555
V1A O2A 1_555 1_555
V3A O5 1_555 1_555
V4A_2 O10 1_555 1_555
V2A O18 1_555 1_555
O14 C1 1_555 1_555
C4 C6 1_555 1_555
C4 C10 1_555 1_555
C7 O17 1_555 1_555
C8 C13 1_555 1_555
N3 C17 1_555 1_555
C14 C19 1_555 1_555
C14 C15 1_555 1_555
C23 N4 1_555 1_555
C24 N4 1_555 1_555
O2A V2A 1_555 1_555
O1A V4A 1_555 1_555

#END
