
#######################################################################
#
#                 Cambridge Crystallographic Data Centre
#                                CCDC 
#
#######################################################################
#
# If this CIF has been generated from an entry in the Cambridge 
# Structural Database, then it will include bibliographic, chemical, 
# crystal, experimental, refinement or atomic coordinate data resulting 
# from the CCDC's data processing and validation procedures.
#
#######################################################################

data_XENXAP
_symmetry_cell_setting           orthorhombic
_symmetry_space_group_name_H-M   'P n m a'
_symmetry_Int_Tables_number      62
_space_group_name_Hall           '-P 2ac 2n'
loop_
_symmetry_equiv_pos_site_id
_symmetry_equiv_pos_as_xyz
1 x,y,z
2 1/2+x,y,1/2-z
3 1/2-x,1/2+y,1/2+z
4 x,1/2-y,z
5 -x,-y,-z
6 1/2-x,-y,1/2+z
7 1/2+x,1/2-y,1/2-z
8 -x,1/2+y,-z
_cell_length_a                   15.855(2)
_cell_length_b                   20.492(3)
_cell_length_c                   8.1388(11)
_cell_angle_alpha                90
_cell_angle_beta                 90
_cell_angle_gamma                90
_cell_volume                     2644.3
loop_
_atom_site_label
_atom_site_type_symbol
_atom_site_fract_x
_atom_site_fract_y
_atom_site_fract_z
S1 S 0.3079(3) 0.6506(2) 1.4330(6)
S2 S 0.5002(5) 0.3534(3) 1.0355(9)
O1 O 0.5284(8) 0.3211(6) 0.8886(14)
O2 O 0.3895(7) 0.6787(5) 1.4349(14)
O3 O 0.4264(8) 0.3316(6) 1.0993(15)
O4 O 0.4884(10) 0.2500 1.370(2)
O5 O 0.3253(8) 0.3261(6) 1.4025(15)
O6 O 0.4289(8) 0.3438(6) 1.5951(14)
O7 O 0.2579(7) 0.6754(5) 1.5675(16)
O8 O 0.5682(19) 0.3397(14) 1.171(3)
O9 O 0.2636(12) 0.6584(9) 1.274(2)
O10 O 0.1861(11) 0.2500 1.3510(16)
O11 O 0.3543(11) 0.2500 0.8074(18)
C1 C 0.3244(10) 0.5654(8) 1.471(2)
C2 C 0.3664(13) 0.3629(7) 1.5047(17)
C3 C 0.3502(11) 0.4339(8) 1.4993(18)
C4 C 0.2815(10) 0.4578(7) 1.4091(17)
H1 H 0.2441 0.4297 1.3569
C5 C 0.4001(10) 0.4759(8) 1.5808(17)
H2 H 0.4427 0.4594 1.6473
C6 C 0.4942(11) 0.4325(10) 1.008(2)
C7 C 0.2714(10) 0.5256(8) 1.400(2)
H3 H 0.2257 0.5427 1.3430
C8 C 0.3905(11) 0.5429(8) 1.570(2)
H4 H 0.4261 0.5714 1.6251
C9 C 0.4338(10) 0.4688(8) 1.0786(17)
H5 H 0.3891 0.4484 1.1315
C10 C 0.5624(10) 0.4626(8) 0.9261(18)
H6 H 0.6042 0.4375 0.8764
Gd1 Gd 0.33472(8) 0.2500 1.19886(13)
Gd2 Gd 0.50015(6) 0.2500 0.67357(13)
C10D C 0.4376(10) 0.5374(8) 1.0739(18)
C6D C 0.5058(11) 0.5675(10) 0.992(2)
S2D S 0.4998(5) 0.6466(3) 0.9645(9)
O1D O 0.4716(8) 0.6789(6) 1.1114(14)
O3D O 0.5736(8) 0.6684(6) 0.9007(15)
O8D O 0.4318(19) 0.6603(14) 0.829(3)
C9D C 0.5662(10) 0.5312(8) 0.9214(17)
H5D H 0.6109 0.5516 0.8685
H6D H 0.3958 0.5625 1.1236
S1C S 0.3079(3) -0.1506(2) 1.4330(6)
O2C O 0.3895(7) -0.1787(5) 1.4349(14)
O5C O 0.3253(8) 0.1739(6) 1.4025(15)
O6C O 0.4289(8) 0.1562(6) 1.5951(14)
O7C O 0.2579(7) -0.1754(5) 1.5675(16)
O9C O 0.2636(12) -0.1584(9) 1.274(2)
C1C C 0.3244(10) -0.0654(8) 1.471(2)
C2C C 0.3664(13) 0.1371(7) 1.5047(17)
C3C C 0.3502(11) 0.0661(8) 1.4993(18)
C4C C 0.2815(10) 0.0422(7) 1.4091(17)
H1C H 0.2441 0.0703 1.3569
C5C C 0.4001(10) 0.0241(8) 1.5808(17)
H2C H 0.4427 0.0406 1.6473
C7C C 0.2714(10) -0.0256(8) 1.400(2)
H3C H 0.2257 -0.0427 1.3430
C8C C 0.3905(11) -0.0429(8) 1.570(2)
H4C H 0.4261 -0.0714 1.6251
Gd2D Gd 0.49985(6) 0.7500 1.32643(13)
Gd2_2 Gd 0.50015(6) 0.2500 1.67357(13)
Gd1B Gd 0.16528(8) 0.7500 1.69886(13)
O3C O 0.4264(8) 0.1684(6) 1.0993(15)
O7B O 0.2421(7) 0.1754(5) 1.0675(16)
O7E O 0.2421(7) 0.3246(5) 1.0675(16)
O1C O 0.5284(8) 0.1789(6) 0.8886(14)
O2D O 0.6105(7) 0.3213(5) 0.5651(14)
O2G O 0.6105(7) 0.1787(5) 0.5651(14)
O4_2 O 0.4884(10) 0.2500 0.370(2)
O6_2 O 0.4289(8) 0.3438(6) 0.5951(14)
O6C_2 O 0.4289(8) 0.1562(6) 0.5951(14)
Gd1D Gd 0.66528(8) 0.7500 0.80114(13)
Gd2D_2 Gd 0.49985(6) -0.2500 1.32643(13)
Gd1B_2 Gd 0.16528(8) -0.2500 1.69886(13)
loop_
_geom_bond_atom_site_label_1
_geom_bond_atom_site_label_2
_geom_bond_site_symmetry_1
_geom_bond_site_symmetry_2
S1 O2 1_555 1_555
S2 O1 1_555 1_555
O1 Gd2 1_555 1_555
O2 Gd2D 1_555 1_555
O3 S2 1_555 1_555
O4 Gd1 1_555 1_555
O5 C2 1_555 1_555
O6 C2 1_555 1_555
O7 S1 1_555 1_555
O8 S2 1_555 1_555
O9 S1 1_555 1_555
O10 Gd1 1_555 1_555
O11 Gd1 1_555 1_555
C1 S1 1_555 1_555
C2 C3 1_555 1_555
C3 C4 1_555 1_555
C4 H1 1_555 1_555
C5 C3 1_555 1_555
H2 C5 1_555 1_555
C6 S2 1_555 1_555
C7 C1 1_555 1_555
H3 C7 1_555 1_555
C8 C1 1_555 1_555
H4 C8 1_555 1_555
C9 C6 1_555 1_555
H5 C9 1_555 1_555
C10 C6 1_555 1_555
H6 C10 1_555 1_555
Gd1 O3 1_555 1_555
Gd2 O11 1_555 1_555
C10D C9 1_555 1_555
C6D C10D 1_555 1_555
S2D C6D 1_555 1_555
O1D S2D 1_555 1_555
O3D S2D 1_555 1_555
O8D S2D 1_555 1_555
C9D C10 1_555 1_555
H5D C9D 1_555 1_555
H6D C10D 1_555 1_555
S1C O2C 1_555 1_555
O2C Gd2D_2 1_555 1_555
O5C Gd1 1_555 1_555
O6C C2C 1_555 1_555
O7C S1C 1_555 1_555
O9C S1C 1_555 1_555
C1C S1C 1_555 1_555
C2C O5C 1_555 1_555
C3C C2C 1_555 1_555
C4C C3C 1_555 1_555
H1C C4C 1_555 1_555
C5C C3C 1_555 1_555
H2C C5C 1_555 1_555
C7C C1C 1_555 1_555
H3C C7C 1_555 1_555
C8C C1C 1_555 1_555
H4C C8C 1_555 1_555
Gd2D O1D 1_555 1_555
Gd2_2 O4 1_555 1_555
Gd1B O7 1_555 1_555
O3C Gd1 1_555 1_555
O7B Gd1 1_555 1_555
O7E Gd1 1_555 1_555
O1C Gd2 1_555 1_555
O2D Gd2 1_555 1_555
O2G Gd2 1_555 1_555
O4_2 Gd2 1_555 1_555
O6_2 Gd2 1_555 1_555
O6C_2 Gd2 1_555 1_555
Gd1D O3D 1_555 1_555
Gd1B_2 O7C 1_555 1_555
O5 Gd1 1_555 1_555
O6 Gd2_2 1_555 1_555
C4 C7 1_555 1_555
C5 C8 1_555 1_555
C6D C9D 1_555 1_555
O6C Gd2_2 1_555 1_555
C4C C7C 1_555 1_555
C5C C8C 1_555 1_555

#END
