
#######################################################################
#
#                 Cambridge Crystallographic Data Centre
#                                CCDC 
#
#######################################################################
#
# If this CIF has been generated from an entry in the Cambridge 
# Structural Database, then it will include bibliographic, chemical, 
# crystal, experimental, refinement or atomic coordinate data resulting 
# from the CCDC's data processing and validation procedures.
#
#######################################################################

data_XENYEU
_symmetry_cell_setting           monoclinic
_symmetry_space_group_name_H-M   'P 21/c'
_symmetry_Int_Tables_number      14
_space_group_name_Hall           '-P 2ybc'
loop_
_symmetry_equiv_pos_site_id
_symmetry_equiv_pos_as_xyz
1 x,y,z
2 x,1/2-y,1/2+z
3 -x,-y,-z
4 -x,1/2+y,1/2-z
_cell_length_a                   8.0808(6)
_cell_length_b                   19.835(2)
_cell_length_c                   9.4817(6)
_cell_angle_alpha                90
_cell_angle_beta                 106.504(5)
_cell_angle_gamma                90
_cell_volume                     1457.14
loop_
_atom_site_label
_atom_site_type_symbol
_atom_site_fract_x
_atom_site_fract_y
_atom_site_fract_z
N1 N 0.0370(2) 0.57776(10) 0.4658(2)
N2 N -0.3214(2) 0.54994(10) 0.6323(2)
C1 C 0.1281(3) 0.61556(12) 0.5858(3)
C2 C 0.1569(3) 0.58667(14) 0.7264(3)
H1 H 0.1121 0.543 0.7339
C3 C 0.2480(4) 0.61932(16) 0.8544(3)
H2 H 0.2625 0.5982 0.947
C4 C 0.3172(4) 0.68200(16) 0.8478(3)
H3 H 0.3813 0.7043 0.9349
C5 C 0.2913(3) 0.71201(14) 0.7108(3)
H4 H 0.3382 0.7555 0.7047
C6 C 0.1990(3) 0.68016(13) 0.5834(3)
H5 H 0.1829 0.7024 0.4918
C7 C 0.0202(3) 0.60514(13) 0.3183(3)
H6 H 0.0338 0.5672 0.2546
H7 H 0.1184 0.6362 0.3261
C8 C -0.1467(3) 0.64313(12) 0.2379(3)
C9 C -0.1668(4) 0.70766(13) 0.3200(3)
H8 H -0.0663 0.7368 0.3293
H9 H -0.1753 0.6961 0.4182
H10 H -0.2716 0.7314 0.2652
C10 C -0.3034(4) 0.59857(14) 0.2242(3)
H11 H -0.2917 0.5571 0.1717
H12 H -0.4078 0.6226 0.1696
H13 H -0.3117 0.5872 0.3226
C11 C -0.1359(5) 0.66152(18) 0.0844(3)
H14 H -0.0352 0.6904 0.0929
H15 H -0.2408 0.6856 0.0311
H16 H -0.1247 0.6203 0.0309
C12 C -0.3058(3) 0.62300(13) 0.6598(3)
H17 H -0.1913 0.6332 0.7259
H18 H -0.3945 0.6376 0.7054
H19 H -0.3214 0.6469 0.5664
C13 C -0.2986(4) 0.51613(15) 0.7749(3)
H20 H -0.3081 0.4672 0.76
H21 H -0.3881 0.5315 0.8188
H22 H -0.1845 0.5271 0.8408
C14 C -0.4953(3) 0.53516(12) 0.5332(3)
H23 H -0.5246 0.569 0.4531
H24 H -0.5814 0.5389 0.589
Li1 Li -0.1299(5) 0.52001(19) 0.5316(4)
C14B C -0.5047(3) 0.46484(12) 0.4668(3)
N2B N -0.6786(2) 0.45006(10) 0.3677(2)
C12B C -0.6942(3) 0.37700(13) 0.3402(3)
H17B H -0.8087 0.3668 0.2741
H18B H -0.6055 0.3624 0.2946
H19B H -0.6786 0.3531 0.4336
C13B C -0.7014(4) 0.48387(15) 0.2251(3)
H20B H -0.6919 0.5328 0.24
H21B H -0.6119 0.4685 0.1812
H22B H -0.8155 0.4729 0.1592
H23B H -0.4754 0.431 0.5469
H24B H -0.4186 0.4611 0.411
N1B N -0.0370(2) 0.42224(10) 0.5342(2)
C1B C -0.1281(3) 0.38444(12) 0.4142(3)
C2B C -0.1569(3) 0.41333(14) 0.2736(3)
H1B H -0.1121 0.457 0.2661
C3B C -0.2480(4) 0.38068(16) 0.1456(3)
H2B H -0.2625 0.4018 0.053
C4B C -0.3172(4) 0.31800(16) 0.1522(3)
H3B H -0.3813 0.2957 0.0651
C5B C -0.2913(3) 0.28799(14) 0.2892(3)
H4B H -0.3382 0.2445 0.2953
C6B C -0.1990(3) 0.31984(13) 0.4166(3)
H5B H -0.1829 0.2976 0.5082
C7B C -0.0202(3) 0.39486(13) 0.6817(3)
H6B H -0.0338 0.4328 0.7454
H7B H -0.1184 0.3638 0.6739
C8B C 0.1467(3) 0.35687(12) 0.7621(3)
C9B C 0.1668(4) 0.29234(13) 0.6800(3)
H8B H 0.0663 0.2632 0.6707
H9B H 0.1753 0.3039 0.5818
H10B H 0.2716 0.2686 0.7348
C10B C 0.3034(4) 0.40143(14) 0.7758(3)
H11B H 0.2917 0.4429 0.8283
H12B H 0.4078 0.3774 0.8304
H13B H 0.3117 0.4128 0.6774
C11B C 0.1359(5) 0.33848(18) 0.9156(3)
H14B H 0.0352 0.3096 0.9071
H15B H 0.2408 0.3144 0.9689
H16B H 0.1247 0.3797 0.9691
Li1B Li 0.1299(5) 0.47999(19) 0.4684(4)
Li1B_2 Li -0.8701(5) 0.47999(19) 0.4684(4)
N2B_2 N 0.3214(2) 0.45006(10) 0.3677(2)
loop_
_geom_bond_atom_site_label_1
_geom_bond_atom_site_label_2
_geom_bond_site_symmetry_1
_geom_bond_site_symmetry_2
N1 C1 1_555 1_555
N2 C12 1_555 1_555
C1 C2 1_555 1_555
C2 H1 1_555 1_555
C3 C2 1_555 1_555
H2 C3 1_555 1_555
C4 C3 1_555 1_555
H3 C4 1_555 1_555
C5 C4 1_555 1_555
H4 C5 1_555 1_555
C6 C1 1_555 1_555
H5 C6 1_555 1_555
C7 N1 1_555 1_555
H6 C7 1_555 1_555
H7 C7 1_555 1_555
C8 C7 1_555 1_555
C9 C8 1_555 1_555
H8 C9 1_555 1_555
H9 C9 1_555 1_555
H10 C9 1_555 1_555
C10 C8 1_555 1_555
H11 C10 1_555 1_555
H12 C10 1_555 1_555
H13 C10 1_555 1_555
C11 C8 1_555 1_555
H14 C11 1_555 1_555
H15 C11 1_555 1_555
H16 C11 1_555 1_555
C12 H17 1_555 1_555
H18 C12 1_555 1_555
H19 C12 1_555 1_555
C13 N2 1_555 1_555
H20 C13 1_555 1_555
H21 C13 1_555 1_555
H22 C13 1_555 1_555
C14 N2 1_555 1_555
H23 C14 1_555 1_555
H24 C14 1_555 1_555
Li1 N1 1_555 1_555
C14B C14 1_555 1_555
N2B C14B 1_555 1_555
C12B N2B 1_555 1_555
H17B C12B 1_555 1_555
H18B C12B 1_555 1_555
H19B C12B 1_555 1_555
C13B N2B 1_555 1_555
H20B C13B 1_555 1_555
H21B C13B 1_555 1_555
H22B C13B 1_555 1_555
H23B C14B 1_555 1_555
H24B C14B 1_555 1_555
N1B Li1 1_555 1_555
C1B N1B 1_555 1_555
C2B C1B 1_555 1_555
H1B C2B 1_555 1_555
C3B C2B 1_555 1_555
H2B C3B 1_555 1_555
C4B C3B 1_555 1_555
H3B C4B 1_555 1_555
C5B C4B 1_555 1_555
H4B C5B 1_555 1_555
C6B C1B 1_555 1_555
H5B C6B 1_555 1_555
C7B N1B 1_555 1_555
H6B C7B 1_555 1_555
H7B C7B 1_555 1_555
C8B C7B 1_555 1_555
C9B C8B 1_555 1_555
H8B C9B 1_555 1_555
H9B C9B 1_555 1_555
H10B C9B 1_555 1_555
C10B C8B 1_555 1_555
H11B C10B 1_555 1_555
H12B C10B 1_555 1_555
H13B C10B 1_555 1_555
C11B C8B 1_555 1_555
H14B C11B 1_555 1_555
H15B C11B 1_555 1_555
H16B C11B 1_555 1_555
Li1B N1 1_555 1_555
Li1B_2 N2B 1_555 1_555
N2B_2 Li1B 1_555 1_555
N2 Li1 1_555 1_555
C5 C6 1_555 1_555
N1B Li1B 1_555 1_555
C5B C6B 1_555 1_555

#END
