
#######################################################################
#
#                 Cambridge Crystallographic Data Centre
#                                CCDC 
#
#######################################################################
#
# If this CIF has been generated from an entry in the Cambridge 
# Structural Database, then it will include bibliographic, chemical, 
# crystal, experimental, refinement or atomic coordinate data resulting 
# from the CCDC's data processing and validation procedures.
#
#######################################################################

data_XEPBUP
_symmetry_cell_setting           monoclinic
_symmetry_space_group_name_H-M   'P 21'
_symmetry_Int_Tables_number      4
_space_group_name_Hall           'P 2yb'
loop_
_symmetry_equiv_pos_site_id
_symmetry_equiv_pos_as_xyz
1 x,y,z
2 -x,1/2+y,-z
_cell_length_a                   9.620(2)
_cell_length_b                   10.045(2)
_cell_length_c                   9.699(2)
_cell_angle_alpha                90
_cell_angle_beta                 102.87(3)
_cell_angle_gamma                90
_cell_volume                     913.697
loop_
_atom_site_label
_atom_site_type_symbol
_atom_site_fract_x
_atom_site_fract_y
_atom_site_fract_z
Cu1 Cu 0.09686(15) 0.0232(3) -0.30513(14)
N1 N -0.0179(14) 0.1063(14) -0.1657(13)
N2 N -0.1519(14) 0.1731(16) -0.0209(15)
H1 H -0.2182 0.2190 0.0118
N3 N 0.1943(14) -0.0720(15) -0.1293(14)
N4 N 0.2829(9) 0.0195(17) -0.3739(9)
N5 N 0.0586(17) 0.189(2) -0.4520(19)
N6 N 0.0066(17) 0.3625(14) -0.5874(12)
C1 C -0.1239(17) 0.1805(18) -0.1544(16)
H2 H -0.1771 0.2348 -0.2293
C2 C -0.0536(17) 0.0762(18) 0.0549(18)
C3 C -0.053(2) 0.042(4) 0.2003(16)
H3 H 0.0190 -0.0241 0.2341
H4 H -0.0329 0.1204 0.2575
H5 H -0.1446 0.0072 0.2059
C4 C 0.0262(14) 0.031(4) -0.0352(11)
C5 C 0.1412(19) -0.0445(17) -0.0238(14)
H6 H 0.1862 -0.0807 0.0667
C6 C 0.310(2) -0.160(2) -0.126(3)
H7 H 0.2781 -0.2327 -0.1896
H8 H 0.3495 -0.1920 -0.0324
C7 C 0.4306(15) -0.0951(17) -0.1786(15)
H9 H 0.5176 -0.1450 -0.1675
C8 C 0.3980(15) -0.0682(14) -0.3341(14)
H10 H 0.4801 -0.0307 -0.3606
H11 H 0.3756 -0.1504 -0.3846
C9 C 0.2911(17) 0.1237(15) -0.4546(16)
H12 H 0.3781 0.1392 -0.4850
C10 C 0.1729(14) 0.2145(17) -0.4975(13)
C11 C 0.1476(16) 0.3253(19) -0.588(2)
C12 C 0.246(2) 0.390(2) -0.667(2)
H13 H 0.3346 0.3427 -0.6481
H14 H 0.2042 0.3878 -0.7666
H15 H 0.2617 0.4805 -0.6363
C13 C -0.031(2) 0.282(2) -0.501(2)
H16 H -0.1217 0.2908 -0.4755
O1 O 0.4777(12) 0.025(2) -0.1047(10)
H17 H 0.5306 0.0690 -0.1478
N6A N -0.0066(17) -0.1375(14) -0.4126(12)
Cu1A Cu -0.09686(15) 0.5232(3) -0.69487(14)
O2 O 0.329(2) 0.251(3) -0.122(2)
H18 H 0.3433 0.1626 -0.1276
H19 H 0.4073 0.2744 -0.2046
Cl1 Cl 0.4978(6) 0.5182(9) -0.2835(5)
O3 O 0.4148(16) 0.506(3) -0.1819(13)
O4 O 0.519(3) 0.6524(11) -0.307(3)
O5 O 0.6283(17) 0.4501(19) -0.239(3)
O6 O 0.424(2) 0.454(2) -0.4083(14)
loop_
_geom_bond_atom_site_label_1
_geom_bond_atom_site_label_2
_geom_bond_site_symmetry_1
_geom_bond_site_symmetry_2
Cu1 N1 1_555 1_555
N1 C1 1_555 1_555
N2 H1 1_555 1_555
N3 Cu1 1_555 1_555
N4 Cu1 1_555 1_555
N5 Cu1 1_555 1_555
N6 C11 1_555 1_555
C1 N2 1_555 1_555
H2 C1 1_555 1_555
C2 N2 1_555 1_555
C3 C2 1_555 1_555
H3 C3 1_555 1_555
H4 C3 1_555 1_555
H5 C3 1_555 1_555
C4 N1 1_555 1_555
C5 N3 1_555 1_555
H6 C5 1_555 1_555
C6 N3 1_555 1_555
H7 C6 1_555 1_555
H8 C6 1_555 1_555
C7 C6 1_555 1_555
H9 C7 1_555 1_555
C8 N4 1_555 1_555
H10 C8 1_555 1_555
H11 C8 1_555 1_555
C9 N4 1_555 1_555
H12 C9 1_555 1_555
C10 N5 1_555 1_555
C11 C10 1_555 1_555
C12 C11 1_555 1_555
H13 C12 1_555 1_555
H14 C12 1_555 1_555
H15 C12 1_555 1_555
C13 N5 1_555 1_555
H16 C13 1_555 1_555
O1 C7 1_555 1_555
H17 O1 1_555 1_555
O2 H18 1_555 1_555
H19 O2 1_555 1_555
Cl1 O3 1_555 1_555
O4 Cl1 1_555 1_555
O5 Cl1 1_555 1_555
O6 Cl1 1_555 1_555
N6A Cu1 1_555 1_555
Cu1A N6 1_555 1_555
N6 C13 1_555 1_555
C2 C4 1_555 1_555
C4 C5 1_555 1_555
C7 C8 1_555 1_555
C9 C10 1_555 1_555

#END
