
#######################################################################
#
#                 Cambridge Crystallographic Data Centre
#                                CCDC 
#
#######################################################################
#
# If this CIF has been generated from an entry in the Cambridge 
# Structural Database, then it will include bibliographic, chemical, 
# crystal, experimental, refinement or atomic coordinate data resulting 
# from the CCDC's data processing and validation procedures.
#
#######################################################################

data_XEPCUR
_symmetry_cell_setting           monoclinic
_symmetry_space_group_name_H-M   'C 2/c'
_symmetry_Int_Tables_number      15
_space_group_name_Hall           '-C 2yn'
loop_
_symmetry_equiv_pos_site_id
_symmetry_equiv_pos_as_xyz
1 x,y,z
2 1/2+x,1/2+y,z
3 -x,y,1/2-z
4 1/2-x,1/2+y,1/2-z
5 -x,-y,-z
6 1/2-x,1/2-y,-z
7 x,-y,1/2+z
8 1/2+x,1/2-y,1/2+z
_cell_length_a                   21.314(8)
_cell_length_b                   14.144(5)
_cell_length_c                   20.383(7)
_cell_angle_alpha                90
_cell_angle_beta                 120.298(5)
_cell_angle_gamma                90
_cell_volume                     5305.47
loop_
_atom_site_label
_atom_site_type_symbol
_atom_site_fract_x
_atom_site_fract_y
_atom_site_fract_z
O6 O 0.5000 0.8739(5) 0.2500
O7 O 0.9552(8) 0.8879(9) 0.1862(8)
Ni1 Ni 0.17813(3) 0.61786(4) 0.24083(3)
O1 O 0.2042(2) 0.4905(2) 0.30480(19)
O2 O 0.1196(3) 0.4904(3) 0.3380(3)
O3 O 0.14518(19) 0.7415(2) 0.17360(19)
O4 O 0.0731(3) 0.8080(3) 0.2099(2)
O5 O 0.08106(18) 0.6238(2) 0.23936(19)
H1 H 0.0705 0.5812 0.2616
H2 H 0.0518 0.6690 0.2169
N1 N 0.1282(2) 0.5394(3) 0.1403(2)
N2 N 0.2609(2) 0.1851(3) 0.1524(2)
N3 N 0.2750(2) 0.6178(3) 0.2365(2)
C1 C 0.0961(3) 0.4569(4) 0.1356(3)
H3 H 0.0916 0.4379 0.1768
C2 C 0.0692(3) 0.3982(4) 0.0734(3)
H4 H 0.0469 0.3416 0.0732
C3 C 0.0752(3) 0.4232(4) 0.0114(3)
C4 C 0.1070(3) 0.5085(4) 0.0156(3)
H5 H 0.1114 0.5291 -0.0252
C5 C 0.1327(3) 0.5648(4) 0.0795(3)
H6 H 0.1540 0.6225 0.0803
C6 C 0.0508(3) 0.3590(4) -0.0559(3)
H7 H 0.0192 0.3938 -0.1020
H8 H 0.0231 0.3070 -0.0521
C7 C 0.1163(3) 0.3191(5) -0.0605(3)
H9 H 0.0991 0.2743 -0.1022
H10 H 0.1407 0.3702 -0.0704
C8 C 0.1687(3) 0.2710(4) 0.0122(3)
C9 C 0.1542(3) 0.1830(4) 0.0303(3)
H11 H 0.1128 0.1504 -0.0048
C10 C 0.1998(3) 0.1431(4) 0.0993(3)
H12 H 0.1879 0.0841 0.1100
C11 C 0.2759(3) 0.2707(4) 0.1349(3)
H13 H 0.3180 0.3014 0.1705
C12 C 0.2314(3) 0.3151(4) 0.0663(3)
H14 H 0.2436 0.3745 0.0566
C13 C 0.3019(3) 0.5396(4) 0.2225(3)
H15 H 0.2790 0.4822 0.2186
C14 C 0.3615(3) 0.5399(4) 0.2137(4)
H16 H 0.3768 0.4839 0.2023
C15 C 0.3989(3) 0.6224(4) 0.2216(3)
C16 C 0.3722(3) 0.7031(4) 0.2385(3)
H17 H 0.3963 0.7604 0.2463
C17 C 0.3108(3) 0.6984(4) 0.2438(3)
H18 H 0.2931 0.7539 0.2530
C18 C 0.4657(3) 0.6266(5) 0.2135(3)
H19 H 0.4653 0.5727 0.1838
H20 H 0.4635 0.6833 0.1856
C19 C 0.1767(3) 0.4597(4) 0.3429(3)
C20 C 0.2160(5) 0.3825(4) 0.3995(3)
C21 C 0.1741(6) 0.3314(5) 0.4250(4)
C22 C 0.2098(6) 0.2571(7) 0.4809(5)
C23 C 0.2787(6) 0.3649(9) 0.4324(8)
C24 C 0.1861(7) 0.2067(10) 0.5104(8)
C25 C 0.0980(3) 0.7995(4) 0.1662(3)
C26 C 0.0679(3) 0.8658(4) 0.0989(3)
C27 C 0.0322(4) 0.9457(5) 0.0973(4)
C28 C 0.0012(4) 1.0110(5) 0.0345(4)
C29 C 0.0614(8) 0.8492(8) 0.0374(7)
C30 C -0.0270(8) 1.0927(8) 0.0286(7)
Ni1E Ni 0.32187(3) -0.11786(4) 0.75917(3)
Ni1C Ni 0.32187(3) 0.11786(4) 0.25917(3)
Ni1D Ni -0.17813(3) 1.38214(4) -0.24083(3)
Ni1B Ni 0.82187(3) 0.61786(4) 0.25917(3)
Ni1C_2 Ni 0.32187(3) 1.11786(4) 0.25917(3)
O1E O 0.2958(2) 0.0095(2) 0.69520(19)
O2E O 0.3804(3) 0.0096(3) 0.6620(3)
O3D O -0.14518(19) 1.2585(2) -0.17360(19)
O3E O 0.35482(19) -0.2415(2) 0.82640(19)
O4D O -0.0731(3) 1.1920(3) -0.2099(2)
O5E O 0.41894(18) -0.1238(2) 0.76064(19)
H1E H 0.4295 -0.0812 0.7384
H2E H 0.4482 -0.1690 0.7831
N1C N 0.3718(2) 1.0394(3) 0.3597(2)
N1E N 0.3718(2) -0.0394(3) 0.8597(2)
N2C N 0.2391(2) 0.6851(3) 0.3476(2)
N2F N 0.2609(2) -0.1851(3) 0.6524(2)
N3B N 0.7250(2) 0.6178(3) 0.2635(2)
N3E N 0.2250(2) -0.1178(3) 0.7635(2)
C1C C 0.4039(3) 0.9569(4) 0.3644(3)
H3C H 0.4084 0.9379 0.3232
C2C C 0.4308(3) 0.8982(4) 0.4266(3)
H4C H 0.4531 0.8416 0.4268
C3C C 0.4248(3) 0.9232(4) 0.4886(3)
C4C C 0.3930(3) 1.0085(4) 0.4844(3)
H5C H 0.3886 1.0291 0.5252
C5C C 0.3673(3) 1.0648(4) 0.4205(3)
H6C H 0.3460 1.1225 0.4197
C6C C 0.4492(3) 0.8590(4) 0.5559(3)
H7C H 0.4808 0.8938 0.6020
H8C H 0.4769 0.8070 0.5521
C7C C 0.3837(3) 0.8191(5) 0.5605(3)
H9C H 0.4009 0.7743 0.6022
H10C H 0.3593 0.8702 0.5704
C8C C 0.3313(3) 0.7710(4) 0.4878(3)
C9C C 0.3458(3) 0.6830(4) 0.4697(3)
H11C H 0.3872 0.6504 0.5048
C10C C 0.3002(3) 0.6431(4) 0.4007(3)
H12C H 0.3121 0.5841 0.3900
C11C C 0.2241(3) 0.7707(4) 0.3651(3)
H13C H 0.1820 0.8014 0.3295
C12C C 0.2686(3) 0.8151(4) 0.4337(3)
H14C H 0.2564 0.8745 0.4434
C13B C 0.6981(3) 0.5396(4) 0.2775(3)
H15B H 0.7210 0.4822 0.2814
C14B C 0.6385(3) 0.5399(4) 0.2863(4)
H16B H 0.6232 0.4839 0.2977
C15B C 0.6011(3) 0.6224(4) 0.2784(3)
C16B C 0.6278(3) 0.7031(4) 0.2615(3)
H17B H 0.6037 0.7604 0.2537
C17B C 0.6892(3) 0.6984(4) 0.2562(3)
H18B H 0.7069 0.7539 0.2470
C18B C 0.5343(3) 0.6266(5) 0.2865(3)
H19B H 0.5347 0.5727 0.3162
H20B H 0.5365 0.6833 0.3144
C19E C 0.3233(3) 0.0403(4) 0.6571(3)
C20E C 0.2840(5) 0.1175(4) 0.6005(3)
C21E C 0.3259(6) 0.1686(5) 0.5750(4)
C22E C 0.2902(6) 0.2429(7) 0.5191(5)
C23E C 0.2213(6) 0.1351(9) 0.5676(8)
C24E C 0.3139(7) 0.2933(10) 0.4896(8)
C25D C -0.0980(3) 1.2005(4) -0.1662(3)
C26D C -0.0679(3) 1.1342(4) -0.0989(3)
C27D C -0.0322(4) 1.0543(5) -0.0973(4)
C28D C -0.0012(4) 0.9890(5) -0.0345(4)
C29D C -0.0614(8) 1.1508(8) -0.0374(7)
C30D C 0.0270(8) 0.9073(8) -0.0286(7)
loop_
_geom_bond_atom_site_label_1
_geom_bond_atom_site_label_2
_geom_bond_site_symmetry_1
_geom_bond_site_symmetry_2
Ni1 O1 1_555 1_555
O1 C19 1_555 1_555
O2 C19 1_555 1_555
O3 Ni1 1_555 1_555
O4 C25 1_555 1_555
O5 Ni1 1_555 1_555
H1 O5 1_555 1_555
H2 O5 1_555 1_555
N1 Ni1 1_555 1_555
N2 C10 1_555 1_555
N3 Ni1 1_555 1_555
C1 N1 1_555 1_555
H3 C1 1_555 1_555
C2 C1 1_555 1_555
H4 C2 1_555 1_555
C3 C2 1_555 1_555
C4 C3 1_555 1_555
H5 C4 1_555 1_555
C5 N1 1_555 1_555
H6 C5 1_555 1_555
C6 C3 1_555 1_555
H7 C6 1_555 1_555
H8 C6 1_555 1_555
C7 C6 1_555 1_555
H9 C7 1_555 1_555
H10 C7 1_555 1_555
C8 C7 1_555 1_555
C9 C8 1_555 1_555
H11 C9 1_555 1_555
C10 C9 1_555 1_555
H12 C10 1_555 1_555
C11 N2 1_555 1_555
H13 C11 1_555 1_555
C12 C8 1_555 1_555
H14 C12 1_555 1_555
C13 N3 1_555 1_555
H15 C13 1_555 1_555
C14 C13 1_555 1_555
H16 C14 1_555 1_555
C15 C14 1_555 1_555
C16 C15 1_555 1_555
H17 C16 1_555 1_555
C17 N3 1_555 1_555
H18 C17 1_555 1_555
C18 C15 1_555 1_555
H19 C18 1_555 1_555
H20 C18 1_555 1_555
C19 C20 1_555 1_555
C20 C21 1_555 1_555
C21 C22 1_555 1_555
C22 C24 1_555 1_555
C23 C20 1_555 1_555
C24 C23E 1_555 1_555
C25 O3 1_555 1_555
C26 C25 1_555 1_555
C27 C26 1_555 1_555
C28 C27 1_555 1_555
C29 C26 1_555 1_555
C30 C28 1_555 1_555
Ni1E O1E 1_555 1_555
Ni1C N2 1_555 1_555
Ni1D O3D 1_555 1_555
Ni1B N3B 1_555 1_555
Ni1C_2 N1C 1_555 1_555
O1E C19E 1_555 1_555
O2E C19E 1_555 1_555
O3D C25D 1_555 1_555
O3E Ni1E 1_555 1_555
O4D C25D 1_555 1_555
O5E Ni1E 1_555 1_555
H1E O5E 1_555 1_555
H2E O5E 1_555 1_555
N1C C1C 1_555 1_555
N1E Ni1E 1_555 1_555
N2C Ni1 1_555 1_555
N2F Ni1E 1_555 1_555
N3B C13B 1_555 1_555
N3E Ni1E 1_555 1_555
C1C H3C 1_555 1_555
C2C C1C 1_555 1_555
H4C C2C 1_555 1_555
C3C C2C 1_555 1_555
C4C C3C 1_555 1_555
H5C C4C 1_555 1_555
C5C N1C 1_555 1_555
H6C C5C 1_555 1_555
C6C C3C 1_555 1_555
H7C C6C 1_555 1_555
H8C C6C 1_555 1_555
C7C C6C 1_555 1_555
H9C C7C 1_555 1_555
H10C C7C 1_555 1_555
C8C C7C 1_555 1_555
C9C C8C 1_555 1_555
H11C C9C 1_555 1_555
C10C N2C 1_555 1_555
H12C C10C 1_555 1_555
C11C N2C 1_555 1_555
H13C C11C 1_555 1_555
C12C C8C 1_555 1_555
H14C C12C 1_555 1_555
C13B H15B 1_555 1_555
C14B C13B 1_555 1_555
H16B C14B 1_555 1_555
C15B C14B 1_555 1_555
C16B C15B 1_555 1_555
H17B C16B 1_555 1_555
C17B N3B 1_555 1_555
H18B C17B 1_555 1_555
C18B C18 1_555 1_555
H19B C18B 1_555 1_555
H20B C18B 1_555 1_555
C19E C20E 1_555 1_555
C20E C21E 1_555 1_555
C21E C22E 1_555 1_555
C22E C22 1_555 1_555
C23E C20E 1_555 1_555
C24E C23 1_555 1_555
C25D C26D 1_555 1_555
C26D C27D 1_555 1_555
C27D C28D 1_555 1_555
C28D C28 1_555 1_555
C29D C30 1_555 1_555
C30D C29 1_555 1_555
C4 C5 1_555 1_555
C11 C12 1_555 1_555
C16 C17 1_555 1_555
C4C C5C 1_555 1_555
C9C C10C 1_555 1_555
C11C C12C 1_555 1_555
C15B C18B 1_555 1_555
C16B C17B 1_555 1_555
C22E C24E 1_555 1_555
C26D C29D 1_555 1_555
C28D C30D 1_555 1_555

#END
