
#######################################################################
#
#                 Cambridge Crystallographic Data Centre
#                                CCDC 
#
#######################################################################
#
# If this CIF has been generated from an entry in the Cambridge 
# Structural Database, then it will include bibliographic, chemical, 
# crystal, experimental, refinement or atomic coordinate data resulting 
# from the CCDC's data processing and validation procedures.
#
#######################################################################

data_XEPFOP
_symmetry_cell_setting           triclinic
_symmetry_space_group_name_H-M   'P -1'
_symmetry_Int_Tables_number      2
_space_group_name_Hall           '-P 1'
loop_
_symmetry_equiv_pos_site_id
_symmetry_equiv_pos_as_xyz
1 x,y,z
2 -x,-y,-z
_cell_length_a                   14.320(5)
_cell_length_b                   14.580(5)
_cell_length_c                   16.195(5)
_cell_angle_alpha                86.729(5)
_cell_angle_beta                 84.156(5)
_cell_angle_gamma                79.526(5)
_cell_volume                     3305.09
loop_
_atom_site_label
_atom_site_type_symbol
_atom_site_fract_x
_atom_site_fract_y
_atom_site_fract_z
Pb1 Pb -0.30211(3) 0.14365(3) 1.336706(19)
Pb2 Pb -0.56825(2) 0.13660(2) 1.526660(18)
O1 O -0.1481(5) 0.2192(7) 1.3263(5)
O2 O -0.2434(6) 0.2395(7) 1.4411(5)
O3 O -0.4571(5) 0.2326(5) 1.4072(4)
O4 O -0.3838(6) 0.2908(5) 1.2946(4)
O5 O -0.3134(7) 0.7292(7) 1.4454(6)
O6 O -0.2941(9) 0.7824(10) 1.5621(11)
O7 O -0.6122(6) -0.0074(5) 1.4231(4)
O8 O -0.6814(6) 0.0230(7) 1.5456(5)
C1 C -0.1743(5) 0.1653(6) 1.1453(5)
H1 H -0.1301 0.1677 1.1832
C2 C -0.1465(5) 0.1793(6) 1.0609(5)
H2 H -0.0858 0.1904 1.0424
C3 C -0.2147(5) 0.1757(5) 1.0057(5)
H3 H -0.2008 0.1865 0.9490
C4 C -0.3035(5) 0.1560(5) 1.0362(4)
C5 C -0.3772(5) 0.1508(5) 0.9814(4)
C6 C -0.4633(5) 0.1279(5) 1.0110(4)
C7 C -0.4850(5) 0.1122(5) 1.1007(4)
C8 C -0.5691(5) 0.0890(6) 1.1359(5)
H4 H -0.6152 0.0811 1.1017
C9 C -0.5872(5) 0.0770(6) 1.2205(5)
H5 H -0.6446 0.0621 1.2445
C10 C -0.5147(5) 0.0884(6) 1.2684(5)
H6 H -0.5259 0.0808 1.3257
C11 C -0.4151(5) 0.1206(5) 1.1538(4)
C12 C -0.3241(5) 0.1416(5) 1.1213(4)
C13 C -0.3875(5) 0.2426(6) 0.5979(5)
H7 H -0.3808 0.2604 0.5419
C14 C -0.3152(6) 0.2544(7) 0.6474(5)
H8 H -0.2612 0.2777 0.6253
C15 C -0.3294(5) 0.2295(6) 0.7299(5)
H9 H -0.2850 0.2383 0.7654
C16 C -0.4084(5) 0.1914(6) 0.7623(4)
C17 C -0.4245(5) 0.1653(5) 0.8511(4)
C18 C -0.5122(5) 0.1396(5) 0.8799(4)
C19 C -0.5821(5) 0.1322(5) 0.8238(4)
C20 C -0.6696(5) 0.1100(6) 0.8530(5)
H10 H -0.6856 0.1008 0.9096
C21 C -0.7329(5) 0.1020(6) 0.7958(5)
H11 H -0.7939 0.0911 0.8134
C22 C -0.7042(5) 0.1105(6) 0.7121(5)
H12 H -0.7452 0.1002 0.6740
C23 C -0.5610(5) 0.1465(5) 0.7393(4)
C24 C -0.4747(5) 0.1810(5) 0.7081(4)
C49 C -0.1702(10) 0.2462(11) 1.3974(7)
C50 C -0.0926(13) 0.2795(14) 1.4405(12)
H25 H -0.0680 0.2302 1.4795
H26 H -0.0407 0.2868 1.3986
C51 C -0.117(2) 0.362(2) 1.4834(19)
H27 H -0.0682 0.3693 1.5185
H28 H -0.1773 0.3642 1.5175
C52 C -0.126(3) 0.434(3) 1.419(2)
H29 H -0.1728 0.4256 1.3823
H30 H -0.0650 0.4338 1.3860
C53 C -0.158(3) 0.529(2) 1.466(2)
H31 H -0.2271 0.5397 1.4758
H32 H -0.1329 0.5202 1.5196
C54 C -0.1314(19) 0.6113(19) 1.4268(17)
H33 H -0.1700 0.6326 1.3813
H34 H -0.0650 0.5989 1.4049
C55 C -0.147(2) 0.684(2) 1.490(2)
H35 H -0.1069 0.7300 1.4739
H36 H -0.1292 0.6551 1.5434
C56 C -0.2629(13) 0.7347(15) 1.4985(17)
C57 C -0.4535(8) 0.2963(7) 1.3504(6)
C58 C -0.5322(11) 0.3816(8) 1.3523(7)
H37 H -0.5156 0.4260 1.3089
H38 H -0.5906 0.3628 1.3396
C59 C -0.5508(14) 0.4290(11) 1.4325(9)
H39 H -0.6095 0.4740 1.4301
H40 H -0.5631 0.3825 1.4755
C60 C -0.4840(11) 0.4748(11) 1.4587(7)
H41 H -0.4691 0.5205 1.4158
H42 H -0.4261 0.4301 1.4655
C61 C -0.6842(6) 0.0001(7) 1.4731(5)
C62 C -0.7765(6) -0.0186(8) 1.4481(6)
H43 H -0.7691 -0.0851 1.4405
H44 H -0.7862 0.0124 1.3942
C63 C -0.8683(7) 0.0103(8) 1.5054(6)
H45 H -0.8755 0.0762 1.5158
H46 H -0.8620 -0.0240 1.5583
C64 C -0.9588(7) -0.0074(10) 1.4697(6)
H47 H -0.9711 0.0341 1.4215
H48 H -0.9485 -0.0711 1.4517
N1 N -0.2627(4) 0.1482(4) 1.1757(4)
N2 N -0.4313(5) 0.1091(5) 1.2384(4)
N3 N -0.4661(4) 0.2069(5) 0.6269(4)
N4 N -0.6199(5) 0.1329(5) 0.6838(4)
N5 N -0.3568(4) 0.1704(4) 0.8995(4)
N6 N -0.5322(4) 0.1217(4) 0.9621(4)
Pb1A Pb -0.69789(3) 0.85635(3) 1.663294(19)
Pb1_2 Pb -0.30211(3) 0.14365(3) 2.336706(19)
Pb2A Pb -0.43175(2) 0.86340(2) 1.473340(18)
Pb2_2 Pb -0.56825(2) 0.13660(2) 0.526660(18)
Pb2A_2 Pb -1.43175(2) -0.13660(2) 1.473340(18)
O1A O -0.8519(5) 0.7808(7) 1.6737(5)
O2A O -0.7566(6) 0.7605(7) 1.5589(5)
O3A O -0.5429(5) 0.7674(5) 1.5928(4)
O4A O -0.6162(6) 0.7092(5) 1.7054(4)
O5A O -0.6866(7) 0.2708(7) 1.5546(6)
O6A O -0.7059(9) 0.2176(10) 1.4379(11)
O7A O -1.3878(6) 0.0074(5) 1.5769(4)
O8A O -1.3186(6) -0.0230(7) 1.4544(5)
O8A_2 O -0.3186(6) 0.9770(7) 1.4544(5)
C1_2 C -0.1743(5) 0.1653(6) 2.1453(5)
H1_2 H -0.1301 0.1677 2.1832
C2_2 C -0.1465(5) 0.1793(6) 2.0609(5)
H2_2 H -0.0858 0.1904 2.0424
C3_2 C -0.2147(5) 0.1757(5) 2.0057(5)
H3_2 H -0.2008 0.1865 1.9490
C4_2 C -0.3035(5) 0.1560(5) 2.0362(4)
C5_2 C -0.3772(5) 0.1508(5) 1.9814(4)
C6_2 C -0.4633(5) 0.1279(5) 2.0110(4)
C7_2 C -0.4850(5) 0.1122(5) 2.1007(4)
C8_2 C -0.5691(5) 0.0890(6) 2.1359(5)
H4_2 H -0.6152 0.0811 2.1017
C9_2 C -0.5872(5) 0.0770(6) 2.2205(5)
H5_2 H -0.6446 0.0621 2.2445
C10_2 C -0.5147(5) 0.0884(6) 2.2684(5)
H6_2 H -0.5259 0.0808 2.3257
C11_2 C -0.4151(5) 0.1206(5) 2.1538(4)
C12_2 C -0.3241(5) 0.1416(5) 2.1213(4)
C13_2 C -0.3875(5) 0.2426(6) 1.5979(5)
H7_2 H -0.3808 0.2604 1.5419
C14_2 C -0.3152(6) 0.2544(7) 1.6474(5)
H8_2 H -0.2612 0.2777 1.6253
C15_2 C -0.3294(5) 0.2295(6) 1.7299(5)
H9_2 H -0.2850 0.2383 1.7654
C16_2 C -0.4084(5) 0.1914(6) 1.7623(4)
C17_2 C -0.4245(5) 0.1653(5) 1.8511(4)
C18_2 C -0.5122(5) 0.1396(5) 1.8799(4)
C19_2 C -0.5821(5) 0.1322(5) 1.8238(4)
C20_2 C -0.6696(5) 0.1100(6) 1.8530(5)
H10_2 H -0.6856 0.1008 1.9096
C21_2 C -0.7329(5) 0.1020(6) 1.7958(5)
H11_2 H -0.7939 0.0911 1.8134
C22_2 C -0.7042(5) 0.1105(6) 1.7121(5)
H12_2 H -0.7452 0.1002 1.6740
C23_2 C -0.5610(5) 0.1465(5) 1.7393(4)
C24_2 C -0.4747(5) 0.1810(5) 1.7081(4)
C49A C -0.8298(10) 0.7538(11) 1.6026(7)
C50A C -0.9074(13) 0.7205(14) 1.5595(12)
H25A H -0.9320 0.7698 1.5205
H26A H -0.9593 0.7132 1.6014
C51A C -0.883(2) 0.638(2) 1.5166(19)
H27A H -0.9318 0.6307 1.4815
H28A H -0.8227 0.6358 1.4825
C52A C -0.874(3) 0.566(3) 1.581(2)
H29A H -0.8272 0.5744 1.6177
H30A H -0.9350 0.5662 1.6140
C53A C -0.842(3) 0.471(2) 1.534(2)
H31A H -0.7729 0.4603 1.5242
H32A H -0.8671 0.4798 1.4804
C54A C -0.8686(19) 0.3887(19) 1.5732(17)
H33A H -0.8300 0.3674 1.6187
H34A H -0.9350 0.4011 1.5951
C55A C -0.853(2) 0.316(2) 1.510(2)
H35A H -0.8931 0.2700 1.5261
H36A H -0.8708 0.3449 1.4566
C56A C -0.7371(13) 0.2653(15) 1.5015(17)
C57A C -0.5465(8) 0.7037(7) 1.6496(6)
C58A C -0.4678(11) 0.6184(8) 1.6477(7)
H37A H -0.4844 0.5740 1.6911
H38A H -0.4094 0.6372 1.6604
C59A C -0.4492(14) 0.5710(11) 1.5675(9)
H39A H -0.3905 0.5260 1.5699
H40A H -0.4369 0.6175 1.5245
C60A C -0.5160(11) 0.5252(11) 1.5413(7)
H41A H -0.5309 0.4795 1.5842
H42A H -0.5739 0.5699 1.5345
C61A C -1.3158(6) -0.0001(7) 1.5269(5)
C62A C -1.2235(6) 0.0186(8) 1.5519(6)
H43A H -1.2309 0.0851 1.5595
H44A H -1.2138 -0.0124 1.6058
C63A C -1.1317(7) -0.0103(8) 1.4946(6)
H45A H -1.1245 -0.0762 1.4842
H46A H -1.1380 0.0240 1.4417
C64A C -1.0412(7) 0.0074(10) 1.5303(6)
H47A H -1.0289 -0.0341 1.5785
H48A H -1.0515 0.0711 1.5483
N1_2 N -0.2627(4) 0.1482(4) 2.1757(4)
N1A N -0.7373(4) 0.8518(4) 1.8243(4)
N2_2 N -0.4313(5) 0.1091(5) 2.2384(4)
N2A N -0.5687(5) 0.8909(5) 1.7616(4)
N3_2 N -0.4661(4) 0.2069(5) 1.6269(4)
N3A N -0.5339(4) 0.7931(5) 1.3731(4)
N4_2 N -0.6199(5) 0.1329(5) 1.6838(4)
N4A N -0.3801(5) 0.8671(5) 1.3162(4)
N5_2 N -0.3568(4) 0.1704(4) 1.8995(4)
N6_2 N -0.5322(4) 0.1217(4) 1.9621(4)
Pb3 Pb 0.08524(2) 0.33925(2) 0.95157(2)
O9 O -0.0394(4) 0.2582(5) 0.8963(4)
O10 O 0.0789(4) 0.2922(5) 0.8089(4)
O11 O -0.1532(5) -0.1767(5) 1.0270(4)
O12 O -0.0625(4) -0.2300(4) 0.9180(3)
C25 C 0.2648(5) 0.3616(6) 0.7868(5)
H13 H 0.2113 0.3572 0.7601
C26 C 0.3479(6) 0.3781(6) 0.7390(5)
H14 H 0.3509 0.3798 0.6814
C27 C 0.4238(6) 0.3914(6) 0.7774(5)
H15 H 0.4773 0.4069 0.7460
C28 C 0.4223(5) 0.3822(5) 0.8628(5)
C29 C 0.5030(5) 0.3905(5) 0.9070(5)
C30 C 0.4987(4) 0.3760(5) 0.9937(4)
C31 C 0.4105(5) 0.3541(5) 1.0402(4)
C32 C 0.4066(5) 0.3373(6) 1.1269(5)
H16 H 0.4587 0.3395 1.1563
C33 C 0.3208(5) 0.3172(6) 1.1669(5)
H17 H 0.3146 0.3051 1.2240
C34 C 0.2455(5) 0.3155(6) 1.1202(5)
H18 H 0.1885 0.3034 1.1477
C35 C 0.3335(5) 0.3494(5) 0.9980(5)
C36 C 0.3370(5) 0.3620(5) 0.9072(5)
C37 C 0.9051(6) 0.4908(8) 0.7873(6)
H19 H 0.9597 0.5095 0.7609
C38 C 0.8310(7) 0.4818(8) 0.7392(6)
H20 H 0.8392 0.4907 0.6818
C39 C 0.7452(6) 0.4597(6) 0.7766(5)
H21 H 0.6937 0.4579 0.7465
C40 C 0.7418(5) 0.4406(5) 0.8616(5)
C41 C 0.6561(5) 0.4169(5) 0.9061(5)
C42 C 0.6503(5) 0.4027(5) 0.9928(5)
C43 C 0.7323(5) 0.4081(5) 1.0388(5)
C44 C 0.7270(5) 0.3934(6) 1.1249(5)
H22 H 0.6719 0.3805 1.1552
C45 C 0.8059(6) 0.3990(6) 1.1620(5)
H23 H 0.8047 0.3905 1.2194
C46 C 0.8906(6) 0.4174(7) 1.1157(5)
H24 H 0.9445 0.4189 1.1428
C47 C 0.8168(5) 0.4289(5) 0.9955(5)
C48 C 0.8196(5) 0.4472(6) 0.9058(5)
C65 C -0.0027(6) 0.2653(7) 0.8250(6)
C66 C -0.0489(11) 0.2399(10) 0.7535(8)
H49 H -0.1139 0.2338 0.7731
H50 H -0.0524 0.2918 0.7129
C67 C -0.0074(10) 0.1604(11) 0.7132(10)
H51 H 0.0567 0.1665 0.6906
H52 H -0.0435 0.1535 0.6672
C68 C -0.0023(11) 0.0717(12) 0.7709(10)
H53 H 0.0384 0.0207 0.7419
H54 H 0.0287 0.0821 0.8193
C69 C -0.0912(12) 0.0422(12) 0.7996(10)
H55 H -0.1204 0.0231 0.7534
H56 H -0.1352 0.0925 0.8268
C70 C -0.0664(11) -0.0373(13) 0.8588(12)
H57 H -0.0362 -0.0167 0.9036
H58 H -0.0207 -0.0856 0.8306
C71 C -0.1581(14) -0.0811(18) 0.8976(16)
H59 H -0.2027 -0.0357 0.9301
H60 H -0.1907 -0.1008 0.8538
C72 C -0.1178(7) -0.1662(7) 0.9535(6)
N7 N 0.2605(4) 0.3520(5) 0.8691(4)
N8 N 0.2501(4) 0.3301(5) 1.0386(4)
N9 N 0.9003(4) 0.4739(5) 0.8680(5)
N10 N 0.8934(5) 0.4322(5) 1.0352(4)
N11 N 0.5822(4) 0.4103(4) 0.8635(4)
N12 N 0.5715(4) 0.3817(4) 1.0366(4)
Pb3A Pb -0.08524(2) -0.33925(2) 1.04843(2)
O9A O 0.0394(4) -0.2582(5) 1.1037(4)
O10A O -0.0789(4) -0.2922(5) 1.1911(4)
O11A O 0.1532(5) 0.1767(5) 0.9730(4)
O12A O 0.0625(4) 0.2300(4) 1.0820(3)
C25A C -0.2648(5) -0.3616(6) 1.2132(5)
H13A H -0.2113 -0.3572 1.2399
C26A C -0.3479(6) -0.3781(6) 1.2610(5)
H14A H -0.3509 -0.3798 1.3186
C27A C -0.4238(6) -0.3914(6) 1.2226(5)
H15A H -0.4773 -0.4069 1.2540
C28A C -0.4223(5) -0.3822(5) 1.1372(5)
C29A C -0.5030(5) -0.3905(5) 1.0930(5)
C30A C -0.4987(4) -0.3760(5) 1.0063(4)
C31A C -0.4105(5) -0.3541(5) 0.9598(4)
C32A C -0.4066(5) -0.3373(6) 0.8731(5)
H16A H -0.4587 -0.3395 0.8437
C33A C -0.3208(5) -0.3172(6) 0.8331(5)
H17A H -0.3146 -0.3051 0.7760
C34A C -0.2455(5) -0.3155(6) 0.8798(5)
H18A H -0.1885 -0.3034 0.8523
C35A C -0.3335(5) -0.3494(5) 1.0020(5)
C36A C -0.3370(5) -0.3620(5) 1.0928(5)
C37A C -0.9051(6) -0.4908(8) 1.2127(6)
H19A H -0.9597 -0.5095 1.2391
C38A C -0.8310(7) -0.4818(8) 1.2608(6)
H20A H -0.8392 -0.4907 1.3182
C39A C -0.7452(6) -0.4597(6) 1.2234(5)
H21A H -0.6937 -0.4579 1.2535
C40A C -0.7418(5) -0.4406(5) 1.1384(5)
C41A C -0.6561(5) -0.4169(5) 1.0939(5)
C42A C -0.6503(5) -0.4027(5) 1.0072(5)
C43A C -0.7323(5) -0.4081(5) 0.9612(5)
C44A C -0.7270(5) -0.3934(6) 0.8751(5)
H22A H -0.6719 -0.3805 0.8448
C45A C -0.8059(6) -0.3990(6) 0.8380(5)
H23A H -0.8047 -0.3905 0.7806
C46A C -0.8906(6) -0.4174(7) 0.8843(5)
H24A H -0.9445 -0.4189 0.8572
C47A C -0.8168(5) -0.4289(5) 1.0045(5)
C48A C -0.8196(5) -0.4472(6) 1.0942(5)
C65A C 0.0027(6) -0.2653(7) 1.1750(6)
C66A C 0.0489(11) -0.2399(10) 1.2465(8)
H49A H 0.1139 -0.2338 1.2269
H50A H 0.0524 -0.2918 1.2871
C67A C 0.0074(10) -0.1604(11) 1.2868(10)
H51A H -0.0567 -0.1665 1.3094
H52A H 0.0435 -0.1535 1.3328
C68A C 0.0023(11) -0.0717(12) 1.2291(10)
H53A H -0.0384 -0.0207 1.2581
H54A H -0.0287 -0.0821 1.1807
C69A C 0.0912(12) -0.0422(12) 1.2004(10)
H55A H 0.1204 -0.0231 1.2466
H56A H 0.1352 -0.0925 1.1732
C70A C 0.0664(11) 0.0373(13) 1.1412(12)
H57A H 0.0362 0.0167 1.0964
H58A H 0.0207 0.0856 1.1694
C71A C 0.1581(14) 0.0811(18) 1.1024(16)
H59A H 0.2027 0.0357 1.0699
H60A H 0.1907 0.1008 1.1462
C72A C 0.1178(7) 0.1662(7) 1.0465(6)
N7A N -0.2605(4) -0.3520(5) 1.1309(4)
N8A N -0.2501(4) -0.3301(5) 0.9614(4)
N9A N -0.9003(4) -0.4739(5) 1.1320(5)
N10A N -0.8934(5) -0.4322(5) 0.9648(4)
N11A N -0.5822(4) -0.4103(4) 1.1365(4)
N12A N -0.5715(4) -0.3817(4) 0.9634(4)
O13 O 0.0184(6) 0.2721(7) 1.2507(5)
O14 O -0.8042(9) 0.1888(13) 0.3018(7)
C73? C -0.1308(17) -0.056(2) 0.8290(19)
C74? C -0.137(2) -0.065(3) 0.917(2)
H61? H -0.1929 -0.0545 0.8096
H62? H -0.0873 -0.1091 0.8053
H63? H -0.2007 -0.0362 0.9390
H64? H -0.0922 -0.0314 0.9373
loop_
_geom_bond_atom_site_label_1
_geom_bond_atom_site_label_2
_geom_bond_site_symmetry_1
_geom_bond_site_symmetry_2
Pb1 O1 1_555 1_555
Pb2 O3 1_555 1_555
Pb3 O9 1_555 1_555
O1 C49 1_555 1_555
O2 Pb1 1_555 1_555
O3 Pb1 1_555 1_555
O4 Pb1 1_555 1_555
O5 C56 1_555 1_555
O6 C56 1_555 1_555
O7 C61 1_555 1_555
O8 Pb2 1_555 1_555
O9 C65 1_555 1_555
O10 Pb3 1_555 1_555
O11 C72 1_555 1_555
O12 C72 1_555 1_555
C1 H1 1_555 1_555
C2 C1 1_555 1_555
H2 C2 1_555 1_555
C3 C2 1_555 1_555
H3 C3 1_555 1_555
C4 C3 1_555 1_555
C5 C4 1_555 1_555
C6 C5 1_555 1_555
C7 C6 1_555 1_555
C8 C7 1_555 1_555
H4 C8 1_555 1_555
C9 C8 1_555 1_555
H5 C9 1_555 1_555
C10 C9 1_555 1_555
H6 C10 1_555 1_555
C11 C7 1_555 1_555
C12 C4 1_555 1_555
C13 H7 1_555 1_555
C14 C13 1_555 1_555
H8 C14 1_555 1_555
C15 C14 1_555 1_555
H9 C15 1_555 1_555
C16 C15 1_555 1_555
C17 C16 1_555 1_555
C18 C17 1_555 1_555
C19 C18 1_555 1_555
C20 C19 1_555 1_555
H10 C20 1_555 1_555
C21 C20 1_555 1_555
H11 C21 1_555 1_555
C22 C21 1_555 1_555
H12 C22 1_555 1_555
C23 C19 1_555 1_555
C24 C16 1_555 1_555
C25 H13 1_555 1_555
C26 C25 1_555 1_555
H14 C26 1_555 1_555
C27 C26 1_555 1_555
H15 C27 1_555 1_555
C28 C27 1_555 1_555
C29 C28 1_555 1_555
C30 C29 1_555 1_555
C31 C30 1_555 1_555
C32 C31 1_555 1_555
H16 C32 1_555 1_555
C33 C32 1_555 1_555
H17 C33 1_555 1_555
C34 C33 1_555 1_555
H18 C34 1_555 1_555
C35 C31 1_555 1_555
C36 C28 1_555 1_555
C37 H19 1_555 1_555
C38 C37 1_555 1_555
H20 C38 1_555 1_555
C39 C38 1_555 1_555
H21 C39 1_555 1_555
C40 C39 1_555 1_555
C41 C40 1_555 1_555
C42 C41 1_555 1_555
C43 C42 1_555 1_555
C44 C43 1_555 1_555
H22 C44 1_555 1_555
C45 C44 1_555 1_555
H23 C45 1_555 1_555
C46 C45 1_555 1_555
H24 C46 1_555 1_555
C47 C43 1_555 1_555
C48 C40 1_555 1_555
C49 O2 1_555 1_555
C50 C49 1_555 1_555
H25 C50 1_555 1_555
H26 C50 1_555 1_555
C51 C50 1_555 1_555
H27 C51 1_555 1_555
H28 C51 1_555 1_555
C52 C51 1_555 1_555
H29 C52 1_555 1_555
H30 C52 1_555 1_555
C53 C52 1_555 1_555
H31 C53 1_555 1_555
H32 C53 1_555 1_555
C54 C53 1_555 1_555
H33 C54 1_555 1_555
H34 C54 1_555 1_555
C55 C54 1_555 1_555
H35 C55 1_555 1_555
H36 C55 1_555 1_555
C56 C55 1_555 1_555
C57 O3 1_555 1_555
C58 C57 1_555 1_555
H37 C58 1_555 1_555
H38 C58 1_555 1_555
C59 C58 1_555 1_555
H39 C59 1_555 1_555
H40 C59 1_555 1_555
C60 C59 1_555 1_555
H41 C60 1_555 1_555
H42 C60 1_555 1_555
C61 O8 1_555 1_555
C62 C61 1_555 1_555
H43 C62 1_555 1_555
H44 C62 1_555 1_555
C63 C62 1_555 1_555
H45 C63 1_555 1_555
H46 C63 1_555 1_555
C64 C63 1_555 1_555
H47 C64 1_555 1_555
H48 C64 1_555 1_555
C65 O10 1_555 1_555
C66 C65 1_555 1_555
H49 C66 1_555 1_555
H50 C66 1_555 1_555
C67 C66 1_555 1_555
H51 C67 1_555 1_555
H52 C67 1_555 1_555
C68 C67 1_555 1_555
H53 C68 1_555 1_555
H54 C68 1_555 1_555
C69 C68 1_555 1_555
H55 C69 1_555 1_555
H56 C69 1_555 1_555
C70 C69 1_555 1_555
H57 C70 1_555 1_555
H58 C70 1_555 1_555
C71 C70 1_555 1_555
H59 C71 1_555 1_555
H60 C71 1_555 1_555
C72 C71 1_555 1_555
N1 Pb1 1_555 1_555
N2 Pb1 1_555 1_555
N3 C13 1_555 1_555
N4 C22 1_555 1_555
N5 C5 1_555 1_555
N6 C6 1_555 1_555
N7 Pb3 1_555 1_555
N8 Pb3 1_555 1_555
N9 C37 1_555 1_555
N10 C46 1_555 1_555
N11 C29 1_555 1_555
N12 C30 1_555 1_555
Pb1A O1A 1_555 1_555
Pb1_2 N1_2 1_555 1_555
Pb2A O5 1_555 1_555
Pb2_2 N3 1_555 1_555
Pb2A_2 O8A 1_555 1_555
Pb3A O11 1_555 1_555
O1A C49A 1_555 1_555
O2A Pb1A 1_555 1_555
O3A Pb1A 1_555 1_555
O4A Pb1A 1_555 1_555
O5A Pb2 1_555 1_555
O6A Pb2 1_555 1_555
O7A C61A 1_555 1_555
O8A C61A 1_555 1_555
O8A_2 Pb2A 1_555 1_555
O9A Pb3A 1_555 1_555
O10A Pb3A 1_555 1_555
O11A Pb3 1_555 1_555
O12A Pb3 1_555 1_555
C1_2 H1_2 1_555 1_555
C2_2 C1_2 1_555 1_555
H2_2 C2_2 1_555 1_555
C3_2 C2_2 1_555 1_555
H3_2 C3_2 1_555 1_555
C4_2 C3_2 1_555 1_555
C5_2 C4_2 1_555 1_555
C6_2 C5_2 1_555 1_555
C7_2 C6_2 1_555 1_555
C8_2 C7_2 1_555 1_555
H4_2 C8_2 1_555 1_555
C9_2 C8_2 1_555 1_555
H5_2 C9_2 1_555 1_555
C10_2 C9_2 1_555 1_555
H6_2 C10_2 1_555 1_555
C11_2 C7_2 1_555 1_555
C12_2 C4_2 1_555 1_555
C13_2 H7_2 1_555 1_555
C14_2 C13_2 1_555 1_555
H8_2 C14_2 1_555 1_555
C15_2 C14_2 1_555 1_555
H9_2 C15_2 1_555 1_555
C16_2 C15_2 1_555 1_555
C17_2 C16_2 1_555 1_555
C18_2 C17_2 1_555 1_555
C19_2 C18_2 1_555 1_555
C20_2 C19_2 1_555 1_555
H10_2 C20_2 1_555 1_555
C21_2 C20_2 1_555 1_555
H11_2 C21_2 1_555 1_555
C22_2 C21_2 1_555 1_555
H12_2 C22_2 1_555 1_555
C23_2 C19_2 1_555 1_555
C24_2 C16_2 1_555 1_555
C25A H13A 1_555 1_555
C26A C25A 1_555 1_555
H14A C26A 1_555 1_555
C27A C26A 1_555 1_555
H15A C27A 1_555 1_555
C28A C27A 1_555 1_555
C29A C28A 1_555 1_555
C30A C29A 1_555 1_555
C31A C30A 1_555 1_555
C32A C31A 1_555 1_555
H16A C32A 1_555 1_555
C33A C32A 1_555 1_555
H17A C33A 1_555 1_555
C34A C33A 1_555 1_555
H18A C34A 1_555 1_555
C35A C31A 1_555 1_555
C36A C28A 1_555 1_555
C37A H19A 1_555 1_555
C38A C37A 1_555 1_555
H20A C38A 1_555 1_555
C39A C38A 1_555 1_555
H21A C39A 1_555 1_555
C40A C39A 1_555 1_555
C41A C40A 1_555 1_555
C42A C41A 1_555 1_555
C43A C42A 1_555 1_555
C44A C43A 1_555 1_555
H22A C44A 1_555 1_555
C45A C44A 1_555 1_555
H23A C45A 1_555 1_555
C46A C45A 1_555 1_555
H24A C46A 1_555 1_555
C47A C43A 1_555 1_555
C48A C40A 1_555 1_555
C49A O2A 1_555 1_555
C50A C49A 1_555 1_555
H25A C50A 1_555 1_555
H26A C50A 1_555 1_555
C51A C50A 1_555 1_555
H27A C51A 1_555 1_555
H28A C51A 1_555 1_555
C52A C51A 1_555 1_555
H29A C52A 1_555 1_555
H30A C52A 1_555 1_555
C53A C52A 1_555 1_555
H31A C53A 1_555 1_555
H32A C53A 1_555 1_555
C54A C53A 1_555 1_555
H33A C54A 1_555 1_555
H34A C54A 1_555 1_555
C55A C54A 1_555 1_555
H35A C55A 1_555 1_555
H36A C55A 1_555 1_555
C56A O5A 1_555 1_555
C57A O3A 1_555 1_555
C58A C57A 1_555 1_555
H37A C58A 1_555 1_555
H38A C58A 1_555 1_555
C59A C58A 1_555 1_555
H39A C59A 1_555 1_555
H40A C59A 1_555 1_555
C60A C60 1_555 1_555
H41A C60A 1_555 1_555
H42A C60A 1_555 1_555
C61A C62A 1_555 1_555
C62A H43A 1_555 1_555
H44A C62A 1_555 1_555
C63A C62A 1_555 1_555
H45A C63A 1_555 1_555
H46A C63A 1_555 1_555
C64A C64 1_555 1_555
H47A C64A 1_555 1_555
H48A C64A 1_555 1_555
C65A O9A 1_555 1_555
C66A C65A 1_555 1_555
H49A C66A 1_555 1_555
H50A C66A 1_555 1_555
C67A C66A 1_555 1_555
H51A C67A 1_555 1_555
H52A C67A 1_555 1_555
C68A C67A 1_555 1_555
H53A C68A 1_555 1_555
H54A C68A 1_555 1_555
C69A C68A 1_555 1_555
H55A C69A 1_555 1_555
H56A C69A 1_555 1_555
C70A C69A 1_555 1_555
H57A C70A 1_555 1_555
H58A C70A 1_555 1_555
C71A C70A 1_555 1_555
H59A C71A 1_555 1_555
H60A C71A 1_555 1_555
C72A O11A 1_555 1_555
N1_2 C1_2 1_555 1_555
N1A Pb1A 1_555 1_555
N2_2 Pb1_2 1_555 1_555
N2A Pb1A 1_555 1_555
N3_2 Pb2 1_555 1_555
N3A Pb2A 1_555 1_555
N4_2 Pb2 1_555 1_555
N4A Pb2A 1_555 1_555
N5_2 C5_2 1_555 1_555
N6_2 C6_2 1_555 1_555
N7A Pb3A 1_555 1_555
N8A Pb3A 1_555 1_555
N9A C37A 1_555 1_555
N10A C46A 1_555 1_555
N11A C29A 1_555 1_555
N12A C30A 1_555 1_555
O4 C57 1_555 1_555
O6 Pb2A 1_555 1_555
O12 Pb3A 1_555 1_555
C1 N1 1_555 1_555
C10 N2 1_555 1_555
C11 C12 1_555 1_555
C11 N2 1_555 1_555
C12 N1 1_555 1_555
C17 N5 1_555 1_555
C18 N6 1_555 1_555
C23 C24 1_555 1_555
C23 N4 1_555 1_555
C24 N3 1_555 1_555
C25 N7 1_555 1_555
C34 N8 1_555 1_555
C35 C36 1_555 1_555
C35 N8 1_555 1_555
C36 N7 1_555 1_555
C41 N11 1_555 1_555
C42 N12 1_555 1_555
C47 C48 1_555 1_555
C47 N10 1_555 1_555
C48 N9 1_555 1_555
N4 Pb2_2 1_555 1_555
Pb2A O3A 1_555 1_555
O4A C57A 1_555 1_555
O6A C56A 1_555 1_555
O10A C65A 1_555 1_555
O12A C72A 1_555 1_555
C10_2 N2_2 1_555 1_555
C11_2 C12_2 1_555 1_555
C11_2 N2_2 1_555 1_555
C12_2 N1_2 1_555 1_555
C13_2 N3_2 1_555 1_555
C17_2 N5_2 1_555 1_555
C18_2 N6_2 1_555 1_555
C22_2 N4_2 1_555 1_555
C23_2 C24_2 1_555 1_555
C23_2 N4_2 1_555 1_555
C24_2 N3_2 1_555 1_555
C25A N7A 1_555 1_555
C34A N8A 1_555 1_555
C35A C36A 1_555 1_555
C35A N8A 1_555 1_555
C36A N7A 1_555 1_555
C41A N11A 1_555 1_555
C42A N12A 1_555 1_555
C47A C48A 1_555 1_555
C47A N10A 1_555 1_555
C48A N9A 1_555 1_555
C55A C56A 1_555 1_555
C59A C60A 1_555 1_555
C63A C64A 1_555 1_555
C71A C72A 1_555 1_555

#END
