
#######################################################################
#
#                 Cambridge Crystallographic Data Centre
#                                CCDC 
#
#######################################################################
#
# If this CIF has been generated from an entry in the Cambridge 
# Structural Database, then it will include bibliographic, chemical, 
# crystal, experimental, refinement or atomic coordinate data resulting 
# from the CCDC's data processing and validation procedures.
#
#######################################################################

data_XEPFIJ
_symmetry_cell_setting           monoclinic
_symmetry_space_group_name_H-M   'P 21/n'
_symmetry_Int_Tables_number      14
_space_group_name_Hall           '-P 2yn'
loop_
_symmetry_equiv_pos_site_id
_symmetry_equiv_pos_as_xyz
1 x,y,z
2 1/2-x,1/2+y,1/2-z
3 -x,-y,-z
4 1/2+x,1/2-y,1/2+z
_cell_length_a                   10.589(5)
_cell_length_b                   22.803(5)
_cell_length_c                   14.703(5)
_cell_angle_alpha                90
_cell_angle_beta                 97.504(5)
_cell_angle_gamma                90
_cell_volume                     3519.8
loop_
_atom_site_label
_atom_site_type_symbol
_atom_site_fract_x
_atom_site_fract_y
_atom_site_fract_z
O1 O 0.3999(14) 0.3199(6) -0.2465(9)
H1 H 0.4324 0.3304 -0.1872
H2 H 0.3527 0.3092 -0.2004
Pb1 Pb 0.48085(3) 0.295621(14) 0.36248(2)
O2 O 0.6923(5) 0.3291(2) 0.4276(3)
N1 N 0.4185(6) 0.3224(3) 0.1819(4)
C1 C 0.7400(7) 0.3217(4) 0.3545(6)
O3 O 0.6761(6) 0.3007(3) 0.2848(4)
N2 N 0.4978(6) 0.4065(3) 0.3077(4)
C2 C 0.8770(9) 0.3376(5) 0.3509(7)
H3 H 0.9237 0.3015 0.3454
H4 H 0.8808 0.3597 0.2949
O4 O 0.4353(8) 0.3601(3) 0.5078(5)
N3 N 0.5392(5) 0.5435(2) 0.0643(4)
C3 C 0.9447(11) 0.3711(7) 0.4263(9)
H5 H 1.0348 0.3619 0.4303
H6 H 0.9158 0.3583 0.4830
N4 N 0.5632(6) 0.1797(3) 0.3428(4)
O5 O 0.2658(10) 0.3674(6) 0.5702(8)
C4 C 0.9291(11) 0.4358(6) 0.4188(9)
H7 H 0.8396 0.4454 0.4171
H8 H 0.9560 0.4488 0.3615
N5 N 0.5404(5) 0.2195(2) 0.5137(4)
O6 O 0.2657(9) 0.3676(5) 0.4174(8)
C5 C 1.0071(13) 0.4698(5) 0.4999(10)
H9 H 0.9832 0.4547 0.5570
H10 H 1.0966 0.4611 0.4995
N6 N 0.6633(5) 0.0315(3) 0.6419(4)
C6 C 0.4490(6) 0.3756(3) 0.1499(5)
N7 N 0.6723(5) -0.0132(3) 0.4664(4)
C7 C 0.4899(6) 0.4207(3) 0.2166(5)
N8 N 0.7917(7) -0.2011(3) 0.6025(5)
C8 C 0.5338(8) 0.4494(4) 0.3672(5)
H11 H 0.5377 0.4405 0.4293
N9 N 0.7840(7) -0.1567(3) 0.7726(5)
C9 C 0.5650(8) 0.5045(4) 0.3451(5)
H12 H 0.5917 0.5317 0.3907
C10 C 0.5565(7) 0.5195(3) 0.2550(5)
H13 H 0.5759 0.5574 0.2379
C11 C 0.5182(6) 0.4770(3) 0.1885(5)
N10 N 0.3221(12) 0.3661(5) 0.4989(10)
C12 C 0.5105(6) 0.4903(3) 0.0902(4)
C13 C 0.4716(6) 0.4463(3) 0.0255(4)
C14 C 0.4405(5) 0.3872(3) 0.0554(4)
C15 C 0.4017(6) 0.3430(3) -0.0053(5)
H14 H 0.3962 0.3494 -0.0682
C16 C 0.3711(7) 0.2895(3) 0.0278(6)
H15 H 0.3437 0.2594 -0.0127
C17 C 0.3808(8) 0.2803(3) 0.1204(6)
H16 H 0.3606 0.2435 0.1416
C18 C 0.5824(6) 0.1403(3) 0.4123(5)
C19 C 0.5725(6) 0.1627(3) 0.5042(5)
C20 C 0.5389(7) 0.2412(4) 0.5972(6)
H17 H 0.5129 0.2799 0.6028
C21 C 0.5748(8) 0.2087(4) 0.6778(6)
H18 H 0.5785 0.2261 0.7352
C22 C 0.6043(7) 0.1502(4) 0.6694(5)
H19 H 0.6248 0.1270 0.7212
C23 C 0.6028(6) 0.1264(3) 0.5810(5)
C24 C 0.6359(6) 0.0655(3) 0.5679(5)
C25 C 0.6956(6) -0.0232(3) 0.6292(5)
C26 C 0.6982(6) -0.0462(3) 0.5407(5)
C27 C 0.6404(6) 0.0426(3) 0.4796(4)
C28 C 0.6166(6) 0.0819(3) 0.3998(5)
C29 C 0.6298(7) 0.0624(4) 0.3117(5)
H20 H 0.6496 0.0235 0.3009
C30 C 0.6127(8) 0.1025(4) 0.2412(5)
H21 H 0.6237 0.0915 0.1818
C31 C 0.5785(8) 0.1599(4) 0.2602(6)
H22 H 0.5655 0.1861 0.2114
C32 C 0.7329(6) -0.1084(3) 0.5313(5)
C33 C 0.7600(7) -0.1442(3) 0.6086(5)
C34 C 0.7965(8) -0.2230(4) 0.5187(7)
H23 H 0.8177 -0.2624 0.5143
C35 C 0.7725(8) -0.1915(4) 0.4385(7)
H24 H 0.7783 -0.2091 0.3822
C36 C 0.7397(7) -0.1336(4) 0.4440(5)
H25 H 0.7221 -0.1112 0.3911
C37 C 0.7568(7) -0.1198(4) 0.7003(5)
C38 C 0.7840(8) -0.1323(5) 0.8550(6)
H26 H 0.8031 -0.1568 0.9056
C39 C 0.7582(9) -0.0739(4) 0.8729(6)
H27 H 0.7616 -0.0599 0.9326
C40 C 0.7273(7) -0.0377(4) 0.7978(5)
H28 H 0.7082 0.0016 0.8058
C41 C 0.7252(6) -0.0611(4) 0.7098(5)
Pb1B Pb 1.51915(3) 0.704379(14) 0.63752(2)
Pb1B_2 Pb 0.51915(3) 0.704379(14) -0.36248(2)
O2B O 1.3077(5) 0.6709(2) 0.5724(3)
N1B N 0.5815(6) 0.6776(3) -0.1819(4)
N1B_2 N 1.5815(6) 0.6776(3) 0.8181(4)
C1B C 1.2600(7) 0.6783(4) 0.6455(6)
O3B O 1.3239(6) 0.6993(3) 0.7152(4)
N2B N 0.5022(6) 0.5935(3) -0.3077(4)
N2B_2 N 1.5022(6) 0.5935(3) 0.6923(4)
C2B C 1.1230(9) 0.6624(5) 0.6491(7)
H3B H 1.0763 0.6985 0.6546
H4B H 1.1192 0.6403 0.7051
O4B O 1.5647(8) 0.6399(3) 0.4922(5)
N3B N 0.4608(5) 0.4565(2) -0.0643(4)
C3B C 1.0553(11) 0.6289(7) 0.5737(9)
H5B H 0.9652 0.6381 0.5697
H6B H 1.0842 0.6417 0.5170
N4B N 1.4368(6) 0.8203(3) 0.6572(4)
O5B O 1.7342(10) 0.6326(6) 0.4298(8)
C4B C 1.0709(11) 0.5642(6) 0.5812(9)
H7B H 1.1604 0.5546 0.5829
H8B H 1.0440 0.5512 0.6385
N5B N 1.4596(5) 0.7805(2) 0.4863(4)
O6B O 1.7343(9) 0.6324(5) 0.5826(8)
C5B C 0.9929(13) 0.5302(5) 0.5001(10)
H9B H 1.0168 0.5453 0.4430
H10B H 0.9034 0.5389 0.5005
N6B N 1.3367(5) 0.9685(3) 0.3581(4)
C6B C 0.5510(6) 0.6244(3) -0.1499(5)
N7B N 1.3277(5) 1.0132(3) 0.5336(4)
C7B C 0.5101(6) 0.5793(3) -0.2166(5)
N8B N 1.2083(7) 1.2011(3) 0.3975(5)
C8B C 0.4662(8) 0.5506(4) -0.3672(5)
H11B H 0.4623 0.5595 -0.4293
N9B N 1.2160(7) 1.1567(3) 0.2274(5)
C9B C 0.4350(8) 0.4955(4) -0.3451(5)
H12B H 0.4083 0.4683 -0.3907
C10B C 0.4435(7) 0.4805(3) -0.2550(5)
H13B H 0.4241 0.4426 -0.2379
C11B C 0.4818(6) 0.5230(3) -0.1885(5)
N10B N 1.6779(12) 0.6339(5) 0.5011(10)
C12B C 0.4895(6) 0.5097(3) -0.0902(4)
C13B C 0.5284(6) 0.5537(3) -0.0255(4)
C14B C 0.5595(5) 0.6128(3) -0.0554(4)
C15B C 0.5983(6) 0.6570(3) 0.0053(5)
H14B H 0.6038 0.6506 0.0682
C16B C 0.6289(7) 0.7105(3) -0.0278(6)
H15B H 0.6563 0.7406 0.0127
C17B C 0.6192(8) 0.7197(3) -0.1204(6)
H16B H 0.6394 0.7565 -0.1416
C18B C 1.4176(6) 0.8597(3) 0.5877(5)
C19B C 1.4275(6) 0.8373(3) 0.4958(5)
C20B C 1.4611(7) 0.7588(4) 0.4028(6)
H17B H 1.4871 0.7201 0.3972
C21B C 1.4252(8) 0.7913(4) 0.3222(6)
H18B H 1.4215 0.7739 0.2648
C22B C 1.3957(7) 0.8498(4) 0.3306(5)
H19B H 1.3752 0.8730 0.2788
C23B C 1.3972(6) 0.8736(3) 0.4190(5)
C24B C 1.3641(6) 0.9345(3) 0.4321(5)
C25B C 1.3044(6) 1.0232(3) 0.3708(5)
C26B C 1.3018(6) 1.0462(3) 0.4593(5)
C27B C 1.3596(6) 0.9574(3) 0.5204(4)
C28B C 1.3834(6) 0.9181(3) 0.6002(5)
C29B C 1.3702(7) 0.9376(4) 0.6883(5)
H20B H 1.3504 0.9765 0.6991
C30B C 1.3873(8) 0.8975(4) 0.7588(5)
H21B H 1.3763 0.9085 0.8182
C31B C 1.4215(8) 0.8401(4) 0.7398(6)
H22B H 1.4345 0.8139 0.7886
C32B C 1.2671(6) 1.1084(3) 0.4687(5)
C33B C 1.2400(7) 1.1442(3) 0.3914(5)
C34B C 1.2035(8) 1.2230(4) 0.4813(7)
H23B H 1.1823 1.2624 0.4857
C35B C 1.2275(8) 1.1915(4) 0.5615(7)
H24B H 1.2217 1.2091 0.6178
C36B C 1.2603(7) 1.1336(4) 0.5560(5)
H25B H 1.2779 1.1112 0.6089
C37B C 1.2432(7) 1.1198(4) 0.2997(5)
C38B C 1.2160(8) 1.1323(5) 0.1450(6)
H26B H 1.1969 1.1568 0.0944
C39B C 1.2418(9) 1.0739(4) 0.1271(6)
H27B H 1.2384 1.0599 0.0674
C40B C 1.2727(7) 1.0377(4) 0.2022(5)
H28B H 1.2918 0.9984 0.1942
C41B C 1.2748(6) 1.0611(4) 0.2902(5)
loop_
_geom_bond_atom_site_label_1
_geom_bond_atom_site_label_2
_geom_bond_site_symmetry_1
_geom_bond_site_symmetry_2
O1 H1 1_555 1_555
H2 O1 1_555 1_555
Pb1 O2 1_555 1_555
O2 C1 1_555 1_555
N1 Pb1 1_555 1_555
C1 O3 1_555 1_555
O3 Pb1 1_555 1_555
N2 Pb1 1_555 1_555
C2 C1 1_555 1_555
H3 C2 1_555 1_555
H4 C2 1_555 1_555
O4 Pb1 1_555 1_555
N3 C12 1_555 1_555
C3 C2 1_555 1_555
H5 C3 1_555 1_555
H6 C3 1_555 1_555
N4 Pb1 1_555 1_555
O5 N10 1_555 1_555
C4 C3 1_555 1_555
H7 C4 1_555 1_555
H8 C4 1_555 1_555
N5 Pb1 1_555 1_555
O6 N10 1_555 1_555
C5 C4 1_555 1_555
H9 C5 1_555 1_555
H10 C5 1_555 1_555
N6 C24 1_555 1_555
C6 N1 1_555 1_555
N7 C26 1_555 1_555
C7 N2 1_555 1_555
N8 C33 1_555 1_555
C8 N2 1_555 1_555
H11 C8 1_555 1_555
N9 C37 1_555 1_555
C9 C8 1_555 1_555
H12 C9 1_555 1_555
C10 C9 1_555 1_555
H13 C10 1_555 1_555
C11 C7 1_555 1_555
N10 O4 1_555 1_555
C12 C11 1_555 1_555
C13 C12 1_555 1_555
C14 C6 1_555 1_555
C15 C14 1_555 1_555
H14 C15 1_555 1_555
C16 C15 1_555 1_555
H15 C16 1_555 1_555
C17 N1 1_555 1_555
H16 C17 1_555 1_555
C18 N4 1_555 1_555
C19 N5 1_555 1_555
C20 N5 1_555 1_555
H17 C20 1_555 1_555
C21 C20 1_555 1_555
H18 C21 1_555 1_555
C22 C21 1_555 1_555
H19 C22 1_555 1_555
C23 C19 1_555 1_555
C24 C23 1_555 1_555
C25 N6 1_555 1_555
C26 C25 1_555 1_555
C27 N7 1_555 1_555
C28 C18 1_555 1_555
C29 C28 1_555 1_555
H20 C29 1_555 1_555
C30 C29 1_555 1_555
H21 C30 1_555 1_555
C31 N4 1_555 1_555
H22 C31 1_555 1_555
C32 C26 1_555 1_555
C33 C32 1_555 1_555
C34 N8 1_555 1_555
H23 C34 1_555 1_555
C35 C34 1_555 1_555
H24 C35 1_555 1_555
C36 C32 1_555 1_555
H25 C36 1_555 1_555
C37 C33 1_555 1_555
C38 N9 1_555 1_555
H26 C38 1_555 1_555
C39 C38 1_555 1_555
H27 C39 1_555 1_555
C40 C39 1_555 1_555
H28 C40 1_555 1_555
C41 C25 1_555 1_555
Pb1B O2B 1_555 1_555
Pb1B_2 N1B 1_555 1_555
O2B C1B 1_555 1_555
N1B C6B 1_555 1_555
N1B_2 Pb1B 1_555 1_555
C1B O3B 1_555 1_555
O3B Pb1B 1_555 1_555
N2B Pb1B_2 1_555 1_555
N2B_2 Pb1B 1_555 1_555
C2B C1B 1_555 1_555
H3B C2B 1_555 1_555
H4B C2B 1_555 1_555
O4B Pb1B 1_555 1_555
N3B C13 1_555 1_555
C3B C2B 1_555 1_555
H5B C3B 1_555 1_555
H6B C3B 1_555 1_555
N4B Pb1B 1_555 1_555
O5B N10B 1_555 1_555
C4B C3B 1_555 1_555
H7B C4B 1_555 1_555
H8B C4B 1_555 1_555
N5B Pb1B 1_555 1_555
O6B N10B 1_555 1_555
C5B C5 1_555 1_555
H9B C5B 1_555 1_555
H10B C5B 1_555 1_555
N6B C24B 1_555 1_555
C6B C7B 1_555 1_555
N7B C26B 1_555 1_555
C7B N2B 1_555 1_555
N8B C33B 1_555 1_555
C8B N2B 1_555 1_555
H11B C8B 1_555 1_555
N9B C37B 1_555 1_555
C9B C8B 1_555 1_555
H12B C9B 1_555 1_555
C10B C9B 1_555 1_555
H13B C10B 1_555 1_555
C11B C7B 1_555 1_555
N10B O4B 1_555 1_555
C12B N3B 1_555 1_555
C13B N3 1_555 1_555
C14B C6B 1_555 1_555
C15B C14B 1_555 1_555
H14B C15B 1_555 1_555
C16B C15B 1_555 1_555
H15B C16B 1_555 1_555
C17B N1B 1_555 1_555
H16B C17B 1_555 1_555
C18B N4B 1_555 1_555
C19B N5B 1_555 1_555
C20B N5B 1_555 1_555
H17B C20B 1_555 1_555
C21B C20B 1_555 1_555
H18B C21B 1_555 1_555
C22B C21B 1_555 1_555
H19B C22B 1_555 1_555
C23B C19B 1_555 1_555
C24B C23B 1_555 1_555
C25B N6B 1_555 1_555
C26B C25B 1_555 1_555
C27B N7B 1_555 1_555
C28B C18B 1_555 1_555
C29B C28B 1_555 1_555
H20B C29B 1_555 1_555
C30B C29B 1_555 1_555
H21B C30B 1_555 1_555
C31B N4B 1_555 1_555
H22B C31B 1_555 1_555
C32B C26B 1_555 1_555
C33B C32B 1_555 1_555
C34B N8B 1_555 1_555
H23B C34B 1_555 1_555
C35B C34B 1_555 1_555
H24B C35B 1_555 1_555
C36B C32B 1_555 1_555
H25B C36B 1_555 1_555
C37B C33B 1_555 1_555
C38B N9B 1_555 1_555
H26B C38B 1_555 1_555
C39B C38B 1_555 1_555
H27B C39B 1_555 1_555
C40B C39B 1_555 1_555
H28B C40B 1_555 1_555
C41B C25B 1_555 1_555
C6 C7 1_555 1_555
C10 C11 1_555 1_555
C13 C14 1_555 1_555
C16 C17 1_555 1_555
C18 C19 1_555 1_555
C22 C23 1_555 1_555
C24 C27 1_555 1_555
C27 C28 1_555 1_555
C30 C31 1_555 1_555
C35 C36 1_555 1_555
C37 C41 1_555 1_555
C40 C41 1_555 1_555
C4B C5B 1_555 1_555
C10B C11B 1_555 1_555
C11B C12B 1_555 1_555
C12B C13B 1_555 1_555
C13B C14B 1_555 1_555
C16B C17B 1_555 1_555
C18B C19B 1_555 1_555
C22B C23B 1_555 1_555
C24B C27B 1_555 1_555
C27B C28B 1_555 1_555
C30B C31B 1_555 1_555
C35B C36B 1_555 1_555
C37B C41B 1_555 1_555
C40B C41B 1_555 1_555

#END
