
#######################################################################
#
#                 Cambridge Crystallographic Data Centre
#                                CCDC 
#
#######################################################################
#
# If this CIF has been generated from an entry in the Cambridge 
# Structural Database, then it will include bibliographic, chemical, 
# crystal, experimental, refinement or atomic coordinate data resulting 
# from the CCDC's data processing and validation procedures.
#
#######################################################################

data_XEPJOT
_symmetry_cell_setting           rhombohedral
_symmetry_space_group_name_H-M   'R 3 2'
_symmetry_Int_Tables_number      155
_space_group_name_Hall           'R 3 2"'
loop_
_symmetry_equiv_pos_site_id
_symmetry_equiv_pos_as_xyz
1 x,y,z
2 -y,x-y,z
3 -x+y,-x,z
4 y,x,-z
5 x-y,-y,-z
6 -x,-x+y,-z
7 2/3+x,1/3+y,1/3+z
8 2/3-y,1/3+x-y,1/3+z
9 2/3-x+y,1/3-x,1/3+z
10 2/3+y,1/3+x,1/3-z
11 2/3+x-y,1/3-y,1/3-z
12 2/3-x,1/3-x+y,1/3-z
13 1/3+x,2/3+y,2/3+z
14 1/3-y,2/3+x-y,2/3+z
15 1/3-x+y,2/3-x,2/3+z
16 1/3+y,2/3+x,2/3-z
17 1/3+x-y,2/3-y,2/3-z
18 1/3-x,2/3-x+y,2/3-z
_cell_length_a                   9.6558(14)
_cell_length_b                   9.6558(14)
_cell_length_c                   20.681(4)
_cell_angle_alpha                90
_cell_angle_beta                 90
_cell_angle_gamma                120
_cell_volume                     1669.85
loop_
_atom_site_label
_atom_site_type_symbol
_atom_site_fract_x
_atom_site_fract_y
_atom_site_fract_z
Eu1 Eu 0.6667 0.3333 0.066280(18)
O1 O 0.6314(6) 0.0658(6) 0.0726(2)
O2 O 0.7221(7) -0.0984(6) 0.0988(2)
O3 O 0.8088(6) 0.2779(5) 0.1540(2)
H1 H 0.9001 0.3425 0.1426
O4 O 0.6785(6) 0.5146(7) -0.0163(3)
H2 H 0.7715 0.5715 -0.0279
H3 H 0.5839 0.4437 -0.0531
C1 C 0.7120(8) 0.0227(8) 0.1068(3)
C2 C 0.7980(9) 0.1313(9) 0.1667
Eu1I Eu 1.0000 0.0000 0.267053(18)
Eu1J Eu 0.0001 0.0000 0.267053(18)
Eu1K Eu 1.0000 0.9999 0.267053(18)
O1I O 0.7325(6) -0.0353(6) 0.2607(2)
O1B O 0.4344(8) 0.3686(6) 0.0726(2)
O1J O 0.2323(8) 0.2675(6) 0.2607(2)
O1A O 0.9342(6) 0.5656(8) 0.0726(2)
O1K O 1.0353(6) 0.7677(8) 0.2607(2)
O1K_2 O 1.0353(6) -0.2323(8) 0.2607(2)
O1J_2 O 1.2323(8) 0.2675(6) 0.2607(2)
O2I O 0.5683(6) 0.0554(7) 0.2345(2)
O2B O 0.1795(9) 0.2779(7) 0.0988(2)
O2J O 0.4872(9) 0.4317(6) 0.2345(2)
O2A O 1.0984(6) 0.8205(9) 0.0988(2)
O2K O 0.9446(7) 0.5128(9) 0.2345(2)
O3I O 0.9446(5) 0.1421(6) 0.1793(2)
O3B O 0.4691(8) 0.1912(6) 0.1540(2)
O3J O 0.1976(8) 0.0554(5) 0.1793(2)
O3A O 0.7221(5) 0.5309(8) 0.1540(2)
O3K O 0.8579(6) 0.8024(8) 0.1793(2)
O3K_2 O 0.8579(6) -0.1976(8) 0.1793(2)
O3J_2 O 1.1976(8) 0.0554(5) 0.1793(2)
H1I H 1.0092 0.2334 0.1907
H1B H 0.4424 0.0999 0.1426
H1J H 0.2243 -0.0092 0.1907
H1A H 0.6575 0.5576 0.1426
H1K H 0.7666 0.7757 0.1907
H1K_2 H 0.7666 -0.2243 0.1907
H1J_2 H 1.2243 -0.0092 0.1907
O4A O 0.4854(7) 0.1639(9) -0.0163(3)
O4B O 0.8361(9) 0.3215(6) -0.0163(3)
O4I O 1.1813(7) 0.0118(6) 0.3496(3)
O4J O 0.8306(9) -0.1813(7) 0.3496(3)
O4K O 0.9882(6) 0.1694(9) 0.3496(3)
H2A H 0.4285 0.2000 -0.0279
H2B H 0.8000 0.2285 -0.0279
H2I H 1.2382 0.1048 0.3612
H2J H 0.8667 -0.2382 0.3612
H2K H 0.8952 0.1333 0.3612
H3A H 0.5563 0.1402 -0.0531
H3B H 0.8598 0.4161 -0.0531
H3I H 1.1104 -0.0828 0.3864
H3J H 0.8069 -0.1104 0.3864
H3K H 1.0828 0.1931 0.3864
C1I C 0.6894(8) 0.0453(8) 0.2265(3)
C1B C 0.3107(11) 0.2880(8) 0.1068(3)
C1J C 0.3560(11) 0.3106(8) 0.2265(3)
C1A C 0.9773(8) 0.6893(11) 0.1068(3)
C1K C 0.9547(8) 0.6440(11) 0.2265(3)
C2B C 0.3333(13) 0.2020(9) 0.1667
C2A C 0.8687(9) 0.6667(13) 0.1667
O5 O 0.6667 0.3333 -0.1667
loop_
_geom_bond_atom_site_label_1
_geom_bond_atom_site_label_2
_geom_bond_site_symmetry_1
_geom_bond_site_symmetry_2
Eu1 O1 1_555 1_555
O1 C1 1_555 1_555
O2 C1 1_555 1_555
O3 Eu1 1_555 1_555
H1 O3 1_555 1_555
O4 Eu1 1_555 1_555
H2 O4 1_555 1_555
H3 O4 1_555 1_555
C1 C2 1_555 1_555
C2 O3 1_555 1_555
Eu1I O1I 1_555 1_555
Eu1J O1J 1_555 1_555
Eu1K O1K 1_555 1_555
O1I C1I 1_555 1_555
O1B Eu1 1_555 1_555
O1J C1J 1_555 1_555
O1A Eu1 1_555 1_555
O1K C1K 1_555 1_555
O1K_2 Eu1I 1_555 1_555
O1J_2 Eu1I 1_555 1_555
O2I C1I 1_555 1_555
O2B C1B 1_555 1_555
O2J C1J 1_555 1_555
O2A C1A 1_555 1_555
O2K C1K 1_555 1_555
O3I C2 1_555 1_555
O3B Eu1 1_555 1_555
O3J Eu1J 1_555 1_555
O3A Eu1 1_555 1_555
O3K Eu1K 1_555 1_555
O3K_2 Eu1I 1_555 1_555
O3J_2 Eu1I 1_555 1_555
H1I O3I 1_555 1_555
H1B O3B 1_555 1_555
H1J O3J 1_555 1_555
H1A O3A 1_555 1_555
H1K O3K 1_555 1_555
H1K_2 O3K_2 1_555 1_555
H1J_2 O3J_2 1_555 1_555
O4A Eu1 1_555 1_555
O4B Eu1 1_555 1_555
O4I Eu1I 1_555 1_555
O4J Eu1I 1_555 1_555
O4K Eu1I 1_555 1_555
H2A O4A 1_555 1_555
H2B O4B 1_555 1_555
H2I O4I 1_555 1_555
H2J O4J 1_555 1_555
H2K O4K 1_555 1_555
H3A O4A 1_555 1_555
H3B O4B 1_555 1_555
H3I O4I 1_555 1_555
H3J O4J 1_555 1_555
H3K O4K 1_555 1_555
C1I C2 1_555 1_555
C1B O1B 1_555 1_555
C1J C2B 1_555 1_555
C1A O1A 1_555 1_555
C1K C2A 1_555 1_555
C2B O3B 1_555 1_555
C2A O3A 1_555 1_555
Eu1I O3I 1_555 1_555
O3J C2B 1_555 1_555
O3K C2A 1_555 1_555
C1B C2B 1_555 1_555
C1A C2A 1_555 1_555

#END
