
#######################################################################
#
#                 Cambridge Crystallographic Data Centre
#                                CCDC 
#
#######################################################################
#
# If this CIF has been generated from an entry in the Cambridge 
# Structural Database, then it will include bibliographic, chemical, 
# crystal, experimental, refinement or atomic coordinate data resulting 
# from the CCDC's data processing and validation procedures.
#
#######################################################################

data_XEPKEK
_symmetry_cell_setting           rhombohedral
_symmetry_space_group_name_H-M   'R 3 2'
_symmetry_Int_Tables_number      155
_space_group_name_Hall           'R 3 2"'
loop_
_symmetry_equiv_pos_site_id
_symmetry_equiv_pos_as_xyz
1 x,y,z
2 -y,x-y,z
3 -x+y,-x,z
4 y,x,-z
5 x-y,-y,-z
6 -x,-x+y,-z
7 2/3+x,1/3+y,1/3+z
8 2/3-y,1/3+x-y,1/3+z
9 2/3-x+y,1/3-x,1/3+z
10 2/3+y,1/3+x,1/3-z
11 2/3+x-y,1/3-y,1/3-z
12 2/3-x,1/3-x+y,1/3-z
13 1/3+x,2/3+y,2/3+z
14 1/3-y,2/3+x-y,2/3+z
15 1/3-x+y,2/3-x,2/3+z
16 1/3+y,2/3+x,2/3-z
17 1/3+x-y,2/3-y,2/3-z
18 1/3-x,2/3-x+y,2/3-z
_cell_length_a                   9.6724(14)
_cell_length_b                   9.6724(14)
_cell_length_c                   20.742(4)
_cell_angle_alpha                90
_cell_angle_beta                 90
_cell_angle_gamma                120
_cell_volume                     1680.54
loop_
_atom_site_label
_atom_site_type_symbol
_atom_site_fract_x
_atom_site_fract_y
_atom_site_fract_z
Sm1 Sm -0.6667 -1.3333 0.399339(19)
O1 O -0.9000(6) -1.6019(6) 0.4061(2)
O2 O -1.1540(6) -1.7663(6) 0.4326(3)
O3 O -0.8652(6) -1.3889(5) 0.4869(2)
H1 H -0.8284 -1.3405 0.5207
O4 O -0.4973(6) -1.1527(7) 0.3162(3)
H2 H -0.5438 -1.1118 0.2984
H3 H -0.4552 -1.2194 0.2952
C1 C -1.0227(9) -1.6447(8) 0.4406(3)
C2 C -1.0000 -1.5367(9) 0.5000
Sm1E Sm -1.3333 -1.6666 0.600661(19)
Sm1C Sm -0.3333 -0.6667 0.600661(19)
Sm1D Sm -0.3334 -1.6667 0.600661(19)
O1E O -1.1000(6) -1.7019(8) 0.5939(2)
O1B O -0.7019(8) -1.1000(6) 0.4061(2)
O1C O -0.6019(6) -0.9000(6) 0.5939(2)
O1A O -0.3981(6) -1.2981(8) 0.4061(2)
O1D O -0.2981(8) -1.3981(6) 0.5939(2)
O1D_2 O -1.2981(8) -1.3981(6) 0.5939(2)
O1C_2 O -1.6019(6) -1.9000(6) 0.5939(2)
O2E O -0.8460(6) -1.6123(8) 0.5674(3)
O2B O -0.6123(8) -0.8460(6) 0.4326(3)
O2C O -0.7663(6) -1.1540(6) 0.5674(3)
O2A O -0.2337(6) -1.3877(8) 0.4326(3)
O2D O -0.3877(8) -1.2337(6) 0.5674(3)
O3E O -1.1348(6) -1.5237(8) 0.5131(2)
O3B O -0.5237(8) -1.1348(6) 0.4869(2)
O3C O -0.3889(5) -0.8652(6) 0.5131(2)
O3A O -0.6111(5) -1.4763(8) 0.4869(2)
O3D O -0.4763(8) -1.6111(5) 0.5131(2)
O3D_2 O -1.4763(8) -1.6111(5) 0.5131(2)
O3C_2 O -1.3889(5) -1.8652(6) 0.5131(2)
H1E H -1.1716 -1.5121 0.4793
H1B H -0.5121 -1.1716 0.5207
H1C H -0.3405 -0.8284 0.4793
H1A H -0.6595 -1.4879 0.5207
H1D H -0.4879 -1.6595 0.4793
H1D_2 H -1.4879 -1.6595 0.4793
H1C_2 H -1.3405 -1.8284 0.4793
O4A O -0.8473(7) -1.3446(9) 0.3162(3)
O4B O -0.6554(9) -1.5027(6) 0.3162(3)
O4E O -1.5027(6) -1.6554(9) 0.6838(3)
O4C O -1.1527(7) -1.4973(6) 0.6838(3)
O4D O -1.3446(9) -1.8473(7) 0.6838(3)
H2A H -0.8882 -1.4320 0.2984
H2B H -0.5680 -1.4562 0.2984
H2E H -1.4562 -1.5680 0.7016
H2C H -1.1118 -1.5438 0.7016
H2D H -1.4320 -1.8882 0.7016
H3A H -0.7806 -1.2358 0.2952
H3B H -0.7642 -1.5448 0.2952
H3E H -1.5448 -1.7642 0.7048
H3C H -1.2194 -1.4552 0.7048
H3D H -1.2358 -1.7806 0.7048
C1E C -0.9773(9) -1.6220(12) 0.5594(3)
C1B C -0.6220(12) -0.9773(9) 0.4406(3)
C1C C -0.6447(8) -1.0227(9) 0.5594(3)
C1A C -0.3553(8) -1.3780(12) 0.4406(3)
C1D C -0.3780(12) -1.3553(8) 0.5594(3)
C2B C -0.5367(9) -1.0000 0.5000
C2A C -0.4633(9) -1.4633(9) 0.5000
O5 O -0.6667 -1.3333 0.1667
loop_
_geom_bond_atom_site_label_1
_geom_bond_atom_site_label_2
_geom_bond_site_symmetry_1
_geom_bond_site_symmetry_2
Sm1 O1 1_555 1_555
O1 C1 1_555 1_555
O2 C1 1_555 1_555
O3 Sm1 1_555 1_555
H1 O3 1_555 1_555
O4 Sm1 1_555 1_555
H2 O4 1_555 1_555
H3 O4 1_555 1_555
C1 C2 1_555 1_555
C2 O3 1_555 1_555
Sm1E O1E 1_555 1_555
Sm1C O1C 1_555 1_555
Sm1D O1D 1_555 1_555
O1E C1E 1_555 1_555
O1B Sm1 1_555 1_555
O1C C1C 1_555 1_555
O1A Sm1 1_555 1_555
O1D C1D 1_555 1_555
O1D_2 Sm1E 1_555 1_555
O1C_2 Sm1E 1_555 1_555
O2E C1E 1_555 1_555
O2B C1B 1_555 1_555
O2C C1C 1_555 1_555
O2A C1A 1_555 1_555
O2D C1D 1_555 1_555
O3E C2 1_555 1_555
O3B Sm1 1_555 1_555
O3C Sm1C 1_555 1_555
O3A Sm1 1_555 1_555
O3D Sm1D 1_555 1_555
O3D_2 Sm1E 1_555 1_555
O3C_2 Sm1E 1_555 1_555
H1E O3E 1_555 1_555
H1B O3B 1_555 1_555
H1C O3C 1_555 1_555
H1A O3A 1_555 1_555
H1D O3D 1_555 1_555
H1D_2 O3D_2 1_555 1_555
H1C_2 O3C_2 1_555 1_555
O4A Sm1 1_555 1_555
O4B Sm1 1_555 1_555
O4E Sm1E 1_555 1_555
O4C Sm1E 1_555 1_555
O4D Sm1E 1_555 1_555
H2A O4A 1_555 1_555
H2B O4B 1_555 1_555
H2E O4E 1_555 1_555
H2C O4C 1_555 1_555
H2D O4D 1_555 1_555
H3A O4A 1_555 1_555
H3B O4B 1_555 1_555
H3E O4E 1_555 1_555
H3C O4C 1_555 1_555
H3D O4D 1_555 1_555
C1E C2 1_555 1_555
C1B O1B 1_555 1_555
C1C C2B 1_555 1_555
C1A O1A 1_555 1_555
C1D C2A 1_555 1_555
C2B O3B 1_555 1_555
C2A O3A 1_555 1_555
Sm1E O3E 1_555 1_555
O3C C2B 1_555 1_555
O3D C2A 1_555 1_555
C1B C2B 1_555 1_555
C1A C2A 1_555 1_555

#END
