
#######################################################################
#
#                 Cambridge Crystallographic Data Centre
#                                CCDC 
#
#######################################################################
#
# If this CIF has been generated from an entry in the Cambridge 
# Structural Database, then it will include bibliographic, chemical, 
# crystal, experimental, refinement or atomic coordinate data resulting 
# from the CCDC's data processing and validation procedures.
#
#######################################################################

data_XEPLEL
_symmetry_cell_setting           monoclinic
_symmetry_space_group_name_H-M   'P 21/n'
_symmetry_Int_Tables_number      14
_space_group_name_Hall           '-P 2yn'
loop_
_symmetry_equiv_pos_site_id
_symmetry_equiv_pos_as_xyz
1 x,y,z
2 1/2-x,1/2+y,1/2-z
3 -x,-y,-z
4 1/2+x,1/2-y,1/2+z
_cell_length_a                   9.065(4)
_cell_length_b                   15.813(6)
_cell_length_c                   15.560(6)
_cell_angle_alpha                90
_cell_angle_beta                 97.907(5)
_cell_angle_gamma                90
_cell_volume                     2209.24
loop_
_atom_site_label
_atom_site_type_symbol
_atom_site_fract_x
_atom_site_fract_y
_atom_site_fract_z
Co1 Co 0.10852(3) 0.23285(2) 0.172112(18)
N1 N 0.03695(19) 0.11221(12) 0.22551(11)
N2 N 0.27532(18) 0.14574(11) 0.15852(11)
N3 N 0.26453(19) 0.29706(12) 0.09516(11)
N4 N 0.4989(2) 0.11215(11) 0.10592(11)
N5 N 0.37162(19) 0.00776(11) 0.17931(11)
N6 N 0.6024(2) -0.10079(12) 0.16661(12)
N7 N 0.2093(2) 0.27040(13) 0.29557(12)
N8 N 0.2792(2) 0.33623(14) 0.43692(13)
N9 N 0.4697(2) 0.29912(13) 0.55700(12)
O1 O -0.0289(2) 0.33070(13) 0.18189(15)
C1 C -0.0908(2) 0.09819(16) 0.25664(14)
H1 H -0.1585 0.1424 0.2566
C2 C -0.1264(3) 0.02046(17) 0.28899(15)
H2 H -0.2159 0.0129 0.3109
C3 C -0.0283(3) -0.04520(17) 0.28844(15)
H3 H -0.0507 -0.0979 0.3097
C4 C 0.1046(2) -0.03237(15) 0.25583(15)
H4 H 0.1730 -0.0760 0.2546
C5 C 0.1324(2) 0.04662(14) 0.22535(13)
C6 C 0.2692(2) 0.06660(14) 0.18716(13)
C7 C 0.4843(2) 0.03454(14) 0.13836(14)
C8 C 0.3904(2) 0.16560(14) 0.11766(13)
C9 C 0.3852(2) 0.25175(14) 0.08052(14)
C10 C 0.4887(3) 0.28047(15) 0.03059(15)
H5 H 0.5713 0.2479 0.0229
C11 C 0.4668(3) 0.35880(16) -0.00764(16)
H6 H 0.5342 0.3799 -0.0422
C12 C 0.3443(3) 0.40527(16) 0.00589(16)
H7 H 0.3273 0.4581 -0.0198
C13 C 0.2468(3) 0.37294(15) 0.05794(15)
H8 H 0.1651 0.4054 0.0675
C14 C 0.6020(2) -0.02730(14) 0.12427(14)
C15 C 0.7037(2) -0.00805(15) 0.06859(14)
H9 H 0.7007 0.0440 0.0406
C16 C 0.8093(3) -0.06736(17) 0.05542(16)
H10 H 0.8793 -0.0559 0.0186
C17 C 0.8099(3) -0.14365(17) 0.09741(16)
H11 H 0.8793 -0.1852 0.0891
C18 C 0.7055(3) -0.15712(16) 0.15204(16)
H12 H 0.7068 -0.2088 0.1807
C19 C 0.2467(2) 0.29765(15) 0.36281(15)
C20 C 0.3821(2) 0.31210(14) 0.49846(14)
H13 H -0.030(3) 0.3590(19) 0.228(2)
H14 H -0.081(3) 0.3510(19) 0.139(2)
Co1C Co 0.60852(3) 0.26715(2) 0.672112(18)
N9C N -0.0303(2) 0.20088(13) 0.05700(12)
N10 N 1.0839(3) 0.3414(2) 0.81679(18)
N11 N 0.9051(4) 0.4176(2) 0.8868(2)
N12 N 0.8313(3) 0.4032(2) 1.0325(2)
C21 C 1.0041(3) 0.3746(2) 0.8550(2)
C22 C 0.8704(3) 0.40633(19) 0.9649(3)
loop_
_geom_bond_atom_site_label_1
_geom_bond_atom_site_label_2
_geom_bond_site_symmetry_1
_geom_bond_site_symmetry_2
Co1 N1 1_555 1_555
N1 C1 1_555 1_555
N2 Co1 1_555 1_555
N3 Co1 1_555 1_555
N4 C7 1_555 1_555
N5 C6 1_555 1_555
N6 C14 1_555 1_555
N7 Co1 1_555 1_555
N8 C19 1_555 1_555
N9 C20 1_555 1_555
N10 C21 1_555 1_555
N11 C21 1_555 1_555
N12 C22 1_555 1_555
O1 Co1 1_555 1_555
C1 H1 1_555 1_555
C2 C1 1_555 1_555
H2 C2 1_555 1_555
C3 C2 1_555 1_555
H3 C3 1_555 1_555
C4 C3 1_555 1_555
H4 C4 1_555 1_555
C5 N1 1_555 1_555
C6 N2 1_555 1_555
C7 N5 1_555 1_555
C8 N2 1_555 1_555
C9 N3 1_555 1_555
C10 C9 1_555 1_555
H5 C10 1_555 1_555
C11 C10 1_555 1_555
H6 C11 1_555 1_555
C12 C11 1_555 1_555
H7 C12 1_555 1_555
C13 N3 1_555 1_555
H8 C13 1_555 1_555
C14 C7 1_555 1_555
C15 C14 1_555 1_555
H9 C15 1_555 1_555
C16 C15 1_555 1_555
H10 C16 1_555 1_555
C17 C16 1_555 1_555
H11 C17 1_555 1_555
C18 N6 1_555 1_555
H12 C18 1_555 1_555
C19 N7 1_555 1_555
C20 N8 1_555 1_555
C22 N11 1_555 1_555
H13 O1 1_555 1_555
H14 O1 1_555 1_555
Co1C N9 1_555 1_555
N9C Co1 1_555 1_555
N4 C8 1_555 1_555
C4 C5 1_555 1_555
C5 C6 1_555 1_555
C8 C9 1_555 1_555
C12 C13 1_555 1_555
C17 C18 1_555 1_555

#END
