
#######################################################################
#
#                 Cambridge Crystallographic Data Centre
#                                CCDC 
#
#######################################################################
#
# If this CIF has been generated from an entry in the Cambridge 
# Structural Database, then it will include bibliographic, chemical, 
# crystal, experimental, refinement or atomic coordinate data resulting 
# from the CCDC's data processing and validation procedures.
#
#######################################################################

data_XEPMOV
_symmetry_cell_setting           orthorhombic
_symmetry_space_group_name_H-M   'C 2 2 21'
_symmetry_Int_Tables_number      20
_space_group_name_Hall           'C 2n 2'
loop_
_symmetry_equiv_pos_site_id
_symmetry_equiv_pos_as_xyz
1 x,y,z
2 -x,-y,1/2+z
3 -x,y,1/2-z
4 x,-y,-z
5 1/2+x,1/2+y,z
6 1/2-x,1/2-y,1/2+z
7 1/2-x,1/2+y,1/2-z
8 1/2+x,1/2-y,-z
_cell_length_a                   18.6113(8)
_cell_length_b                   32.2357(8)
_cell_length_c                   38.176(2)
_cell_angle_alpha                90
_cell_angle_beta                 90
_cell_angle_gamma                90
_cell_volume                     22903.6
loop_
_atom_site_label
_atom_site_type_symbol
_atom_site_fract_x
_atom_site_fract_y
_atom_site_fract_z
Cu2 Cu 1.36369(14) 0.5000 -0.5000
O4 O 0.8394(7) 0.2412(6) -0.2972(4)
O5 O 0.8861(8) 0.3036(5) -0.2517(3)
N3 N 1.2913(7) 0.4746(4) -0.4704(4)
N4 N 1.4372(8) 0.4750(5) -0.4692(5)
C39 C 1.2391(11) 0.4949(8) -0.4574(6)
H33 H 1.2354 0.5239 -0.4618
C40 C 1.1820(11) 0.4734(10) -0.4345(4)
H34 H 1.1458 0.4903 -0.4243
C41 C 1.1796(18) 0.4344(7) -0.4283(9)
C42 C 1.2434(13) 0.4113(7) -0.4428(9)
H35 H 1.2508 0.3827 -0.4380
C43 C 1.2896(9) 0.4330(6) -0.4628(5)
H36 H 1.3267 0.4171 -0.4734
C44 C 1.1235(9) 0.4156(7) -0.4085(5)
H37 H 1.0904 0.4345 -0.3983
C45 C 1.1114(10) 0.3806(7) -0.4027(4)
H38 H 1.1429 0.3622 -0.4147
C46 C 1.0582(10) 0.3588(10) -0.3809(5)
C47 C 1.0516(10) 0.3140(10) -0.3781(5)
H39 H 1.0850 0.2968 -0.3902
C48 C 0.9995(10) 0.2961(7) -0.3589(4)
C49 C 0.9964(11) 0.2509(7) -0.3541(4)
H40 H 1.0323 0.2345 -0.3652
C50 C 0.9458(12) 0.2311(8) -0.3351(4)
H41 H 0.9457 0.2017 -0.3334
C51 C 0.8921(12) 0.2552(11) -0.3173(5)
C52 C 0.8957(10) 0.2970(10) -0.3213(5)
C53 C 0.9466(9) 0.3229(8) -0.3404(4)
C54 C 0.9532(10) 0.3656(7) -0.3442(4)
H42 H 0.9199 0.3834 -0.3327
C55 C 1.0081(11) 0.3830(8) -0.3647(4)
H43 H 1.0103 0.4123 -0.3674
C56 C 0.8444(12) 0.1987(9) -0.2916(6)
H44 H 0.8906 0.1923 -0.2799
H45 H 0.8437 0.1841 -0.3144
C57 C 0.7837(11) 0.1836(8) -0.2694(6)
H46 H 0.7902 0.1540 -0.2644
H47 H 0.7382 0.1878 -0.2819
H48 H 0.7829 0.1992 -0.2473
C58 C 0.8372(14) 0.2711(10) -0.1961(6)
H49 H 0.8386 0.2726 -0.1705
H50 H 0.8502 0.2431 -0.2038
H51 H 0.7886 0.2777 -0.2043
C59 C 0.8852(16) 0.2993(12) -0.2099(4)
H52 H 0.9341 0.2914 -0.2021
H53 H 0.8745 0.3269 -0.1998
C60 C 0.8281(11) 0.3240(9) -0.2657(4)
C61 C 0.7763(13) 0.3467(9) -0.2493(6)
H54 H 0.7767 0.3488 -0.2245
C62 C 0.7252(15) 0.3662(8) -0.2675(7)
H55 H 0.6887 0.3809 -0.2553
C63 C 0.7244(11) 0.3652(8) -0.3041(5)
C64 C 0.6704(9) 0.3849(7) -0.3218(4)
H56 H 0.6330 0.3980 -0.3091
C65 C 0.6694(10) 0.3859(6) -0.3599(5)
C66 C 0.7256(11) 0.3655(6) -0.3766(5)
H57 H 0.7270 0.3654 -0.4015
C67 C 0.7763(10) 0.3464(6) -0.3594(4)
H58 H 0.8131 0.3334 -0.3727
C68 C 0.7812(8) 0.3435(6) -0.3214(4)
C69 C 0.8372(9) 0.3225(7) -0.3024(5)
C70 C 0.6084(9) 0.4081(6) -0.3767(6)
H59 H 0.5721 0.4203 -0.3626
C71 C 0.6045(10) 0.4108(8) -0.4100(7)
H60 H 0.6433 0.3986 -0.4225
C72 C 1.4437(10) 0.4734(6) -0.4349(5)
H61 H 1.4081 0.4876 -0.4217
C73 C 1.4948(12) 0.4540(7) -0.4164(5)
H62 H 1.4951 0.4563 -0.3916
C74 C 0.5467(10) 0.4308(6) -0.4326(6)
C75 C 0.5472(12) 0.4345(8) -0.4688(5)
H63 H 0.5869 0.4237 -0.4815
C76 C 1.4958(11) 0.4520(6) -0.4857(5)
H64 H 1.4959 0.4499 -0.5105
O6 O 1.3648(14) 0.4426(8) -0.5347(7)
C77 C 1.3649(15) 0.4318(9) -0.5494(8)
N5 N 1.3805(12) 0.4061(8) -0.5818(7)
C78 C 1.365(2) 0.3811(11) -0.6165(9)
H65 H 1.3181 0.3898 -0.6260
H66 H 1.3633 0.3514 -0.6112
H67 H 1.4025 0.3866 -0.6337
C79 C 1.4480(19) 0.3781(10) -0.5799(9)
H68 H 1.4768 0.3859 -0.5594
H69 H 1.4767 0.3816 -0.6012
H70 H 1.4331 0.3490 -0.5778
N3C N 1.2913(7) 0.5254(4) -0.5296(4)
N4C N 1.4372(8) 0.5250(5) -0.5308(5)
C73_2 C 0.4948(12) 0.4540(7) -0.4164(5)
C74_2 C 1.5467(10) 0.4308(6) -0.4326(6)
C75_2 C 1.5472(12) 0.4345(8) -0.4688(5)
C76_2 C 0.4958(11) 0.4520(6) -0.4857(5)
O6C O 1.3648(14) 0.5574(8) -0.4653(7)
C81 C 0.647(4) -0.087(2) 0.1372(18)
O7 O 0.702(4) -0.094(2) 0.1186(19)
C82 C 0.627(17) -0.068(8) 0.073(5)
N6 N 0.611(7) -0.080(4) 0.105(4)
Cl1 Cl 0.1536(10) 0.1287(6) 0.1416(5)
O8 O 0.084(2) 0.1392(12) 0.1561(10)
O9 O 0.1582(18) 0.0851(11) 0.1311(8)
O10 O 0.217(3) 0.1447(17) 0.1673(15)
O11 O 0.1765(13) 0.1597(8) 0.1169(6)
Cl2 Cl 0.3665(7) -0.0929(4) 0.0867(3)
O12 O 0.388(2) -0.1286(9) 0.1022(10)
O13 O 0.3239(15) -0.1017(11) 0.0578(7)
O14 O 0.4246(14) -0.0695(11) 0.0754(9)
O15 O 0.3302(17) -0.0672(10) 0.1097(8)
C87 C 0.210(5) 0.026(2) 0.2624(11)
C88 C 0.215(4) 0.012(3) 0.3001(14)
O18 O 0.136(6) 0.030(3) 0.2531(19)
C89 C 0.039(3) -0.012(2) 0.1791(16)
C90 C 0.068(3) -0.0292(19) 0.1450(16)
O19 O -0.002(3) 0.0160(19) 0.1788(14)
C93 C 0.857(7) -0.025(4) 0.102(2)
C94 C 0.915(4) -0.047(2) 0.1166(18)
O30 O 0.864(3) -0.0453(15) 0.0665(13)
O21 O 1.2065(13) 0.2005(8) 0.4694(7)
C95 C 1.2415(12) 0.1781(8) 0.4986(7)
C96 C 1.3036(14) 0.1947(9) 0.5158(7)
O26 O 1.3792(18) 0.1329(10) 0.4388(9)
C105 C 1.465(2) 0.1018(16) 0.4772(12)
C106 C 1.423(3) 0.134(2) 0.4630(15)
O27 O 1.0000 -0.064(3) 0.2500
O31 O 1.276(4) 0.0000 0.5000
O32 O 1.133(4) 0.121(2) 0.522(2)
Cu1 Cu 1.0000 -0.28477(12) 0.7500
O1 O 0.4800(4) -0.2078(5) 0.4571(2)
O2 O 0.5174(4) -0.2979(4) 0.4488(3)
O3 O 1.0000 -0.3561(7) 0.7500
N1 N 0.9226(7) -0.2823(6) 0.7126(3)
N2 N 1.0721(7) -0.2811(6) 0.7106(3)
C1 C 0.9172(10) -0.2496(6) 0.6910(5)
H1 H 0.9502 -0.2271 0.6921
C2 C 0.8582(10) -0.2501(8) 0.6658(4)
H2 H 0.8529 -0.2282 0.6493
C3 C 0.8113(9) -0.2822(9) 0.6661(5)
C4 C 0.8170(12) -0.3130(8) 0.6886(5)
H3 H 0.7813 -0.3341 0.6886
C5 C 0.8714(10) -0.3157(8) 0.7115(3)
H4 H 0.8761 -0.3391 0.7265
C6 C 0.7542(9) -0.2819(9) 0.6339(6)
H5 H 0.7229 -0.3050 0.6316
C7 C 0.7486(9) -0.2519(8) 0.6109(5)
H6 H 0.7820 -0.2296 0.6124
C8 C 0.6920(8) -0.2502(8) 0.5820(6)
C9 C 0.6950(9) -0.2211(8) 0.5579(5)
H7 H 0.7340 -0.2022 0.5573
C10 C 0.6414(8) -0.2186(8) 0.5341(5)
C11 C 0.6456(9) -0.1839(8) 0.5098(5)
H8 H 0.6833 -0.1642 0.5114
C12 C 0.5919(9) -0.1806(7) 0.4838(4)
H9 H 0.5921 -0.1576 0.4682
C13 C 0.5331(10) -0.2139(7) 0.4804(5)
C14 C 0.5297(7) -0.2447(7) 0.5024(4)
C15 C 0.5863(8) -0.2475(7) 0.5309(5)
C16 C 0.5850(8) -0.2834(8) 0.5555(4)
H10 H 0.5492 -0.3043 0.5541
C17 C 0.6378(9) -0.2844(7) 0.5801(4)
H11 H 0.6403 -0.3069 0.5961
C18 C 0.4964(14) -0.1790(9) 0.4271(4)
H12 H 0.5438 -0.1850 0.4165
H13 H 0.4942 -0.1495 0.4343
C19 C 0.4301(10) -0.1916(8) 0.4010(4)
H14 H 0.4318 -0.1742 0.3800
H15 H 0.3843 -0.1873 0.4131
H16 H 0.4346 -0.2208 0.3943
C20 C 0.5594(10) -0.2914(8) 0.3901(4)
H17 H 0.5510 -0.2995 0.3657
H18 H 0.6073 -0.3006 0.3974
H19 H 0.5564 -0.2611 0.3921
C21 C 0.5000(10) -0.3123(7) 0.4148(5)
H20 H 0.4511 -0.3035 0.4079
H21 H 0.5029 -0.3430 0.4136
C22 C 0.4677(8) -0.2748(5) 0.5031(4)
C23 C 0.4133(7) -0.2775(6) 0.5285(4)
C24 C 0.4129(9) -0.2505(7) 0.5601(4)
H22 H 0.4501 -0.2309 0.5641
C25 C 0.3600(9) -0.2547(6) 0.5822(4)
H23 H 0.3611 -0.2375 0.6024
C26 C 0.3032(9) -0.2810(8) 0.5792(4)
C27 C 0.3029(7) -0.3067(7) 0.5522(5)
H24 H 0.2657 -0.3268 0.5506
C28 C 0.3585(8) -0.3053(7) 0.5242(4)
C29 C 0.3534(7) -0.3320(6) 0.4959(4)
H25 H 0.3152 -0.3515 0.4946
C30 C 0.4070(8) -0.3302(7) 0.4681(4)
H26 H 0.4055 -0.3476 0.4480
C31 C 0.4608(8) -0.3005(8) 0.4737(4)
C32 C 0.2430(9) -0.2875(7) 0.6047(4)
H27 H 0.2090 -0.3089 0.6003
C33 C 0.2361(9) -0.2654(9) 0.6318(6)
H28 H 0.2684 -0.2431 0.6359
C34 C 1.0776(9) -0.3098(5) 0.6840(4)
H29 H 1.0463 -0.3331 0.6844
C35 C 1.1263(9) -0.3067(7) 0.6567(4)
H30 H 1.1262 -0.3257 0.6378
C36 C 0.1747(9) -0.2745(8) 0.6585(4)
C37 C 0.1691(10) -0.2443(6) 0.6860(5)
H31 H 0.2004 -0.2210 0.6861
C38 C 1.1193(9) -0.2486(7) 0.7122(4)
H32 H 1.1176 -0.2293 0.7310
N1B N 1.0774(7) -0.2823(6) 0.7874(3)
N2B N 0.9279(7) -0.2811(6) 0.7894(3)
C35_2 C 0.1263(9) -0.3067(7) 0.6567(4)
C36_2 C 1.1747(9) -0.2745(8) 0.6585(4)
C37_2 C 1.1691(10) -0.2443(6) 0.6860(5)
C38_2 C 0.1193(9) -0.2486(7) 0.7122(4)
C80? C 0.576(3) -0.038(4) 0.076(3)
O16? O 1.096(2) -0.1239(14) 0.3276(11)
C83? C 1.029(3) -0.126(2) 0.3027(17)
C84? C 1.081(2) -0.1421(14) 0.3252(11)
O17? O 1.004(5) -0.1031(13) 0.7600(16)
C85? C 1.004(3) -0.1520(10) 0.7602(8)
C86? C 1.0000 -0.1976(5) 0.7500
O20? O 0.274(4) 0.025(2) 0.162(2)
C91? C 0.207(3) 0.012(2) 0.1843(11)
C92? C 0.220(3) 0.0015(13) 0.1461(11)
O22? O 0.486(5) -0.008(3) 0.133(2)
C97? C 0.475(5) 0.003(3) 0.148(2)
C98? C 0.431(4) 0.006(4) 0.165(3)
O23? O 0.978(3) 0.596(2) 0.244(2)
C99? C 0.950(7) 0.569(4) 0.268(4)
C100? C 1.032(6) 0.573(4) 0.263(3)
O24? O 0.263(4) 0.014(2) 0.371(2)
C101? C 0.276(3) 0.0157(18) 0.3267(14)
C102? C 0.318(4) 0.039(2) 0.337(2)
O25? O 1.266(5) 0.443(3) 0.277(3)
C103? C 1.161(4) 0.411(2) 0.2708(18)
C104? C 1.206(5) 0.432(3) 0.243(2)
O28? O 0.324(2) 0.0325(14) 0.3026(12)
O29? O 0.321(4) 0.027(2) 0.3831(19)
loop_
_geom_bond_atom_site_label_1
_geom_bond_atom_site_label_2
_geom_bond_site_symmetry_1
_geom_bond_site_symmetry_2
Cu1 O3 1_555 1_555
Cu2 N3 1_555 1_555
O1 C13 1_555 1_555
O2 C21 1_555 1_555
O4 C51 1_555 1_555
O5 C59 1_555 1_555
N1 Cu1 1_555 1_555
N2 Cu1 1_555 1_555
N3 C39 1_555 1_555
N4 Cu2 1_555 1_555
C1 N1 1_555 1_555
H1 C1 1_555 1_555
C2 C1 1_555 1_555
H2 C2 1_555 1_555
C3 C2 1_555 1_555
C4 C3 1_555 1_555
H3 C4 1_555 1_555
C5 N1 1_555 1_555
H4 C5 1_555 1_555
C6 C3 1_555 1_555
H5 C6 1_555 1_555
C7 C6 1_555 1_555
H6 C7 1_555 1_555
C8 C7 1_555 1_555
C9 C8 1_555 1_555
H7 C9 1_555 1_555
C10 C9 1_555 1_555
C11 C10 1_555 1_555
H8 C11 1_555 1_555
C12 C11 1_555 1_555
H9 C12 1_555 1_555
C13 C12 1_555 1_555
C14 C13 1_555 1_555
C15 C10 1_555 1_555
C16 C15 1_555 1_555
H10 C16 1_555 1_555
C17 C8 1_555 1_555
H11 C17 1_555 1_555
C18 O1 1_555 1_555
H12 C18 1_555 1_555
H13 C18 1_555 1_555
C19 C18 1_555 1_555
H14 C19 1_555 1_555
H15 C19 1_555 1_555
H16 C19 1_555 1_555
C20 H17 1_555 1_555
H18 C20 1_555 1_555
H19 C20 1_555 1_555
C21 C20 1_555 1_555
H20 C21 1_555 1_555
H21 C21 1_555 1_555
C22 C14 1_555 1_555
C23 C22 1_555 1_555
C24 C23 1_555 1_555
H22 C24 1_555 1_555
C25 C24 1_555 1_555
H23 C25 1_555 1_555
C26 C25 1_555 1_555
C27 C26 1_555 1_555
H24 C27 1_555 1_555
C28 C23 1_555 1_555
C29 C28 1_555 1_555
H25 C29 1_555 1_555
C30 C29 1_555 1_555
H26 C30 1_555 1_555
C31 O2 1_555 1_555
C32 C26 1_555 1_555
H27 C32 1_555 1_555
C33 C32 1_555 1_555
H28 C33 1_555 1_555
C34 N2 1_555 1_555
H29 C34 1_555 1_555
C35 C34 1_555 1_555
H30 C35 1_555 1_555
C36 C33 1_555 1_555
C37 C36 1_555 1_555
H31 C37 1_555 1_555
C38 N2 1_555 1_555
H32 C38 1_555 1_555
C39 H33 1_555 1_555
C40 C39 1_555 1_555
H34 C40 1_555 1_555
C41 C40 1_555 1_555
C42 C41 1_555 1_555
H35 C42 1_555 1_555
C43 N3 1_555 1_555
H36 C43 1_555 1_555
C44 C41 1_555 1_555
H37 C44 1_555 1_555
C45 C44 1_555 1_555
H38 C45 1_555 1_555
C46 C45 1_555 1_555
C47 C46 1_555 1_555
H39 C47 1_555 1_555
C48 C47 1_555 1_555
C49 C48 1_555 1_555
H40 C49 1_555 1_555
C50 C49 1_555 1_555
H41 C50 1_555 1_555
C51 C50 1_555 1_555
C52 C51 1_555 1_555
C53 C48 1_555 1_555
C54 C53 1_555 1_555
H42 C54 1_555 1_555
C55 C46 1_555 1_555
H43 C55 1_555 1_555
C56 O4 1_555 1_555
H44 C56 1_555 1_555
H45 C56 1_555 1_555
C57 C56 1_555 1_555
H46 C57 1_555 1_555
H47 C57 1_555 1_555
H48 C57 1_555 1_555
C58 H49 1_555 1_555
H50 C58 1_555 1_555
H51 C58 1_555 1_555
C59 C58 1_555 1_555
H52 C59 1_555 1_555
H53 C59 1_555 1_555
C60 O5 1_555 1_555
C61 C60 1_555 1_555
H54 C61 1_555 1_555
C62 C61 1_555 1_555
H55 C62 1_555 1_555
C63 C62 1_555 1_555
C64 C63 1_555 1_555
H56 C64 1_555 1_555
C65 C64 1_555 1_555
C66 C65 1_555 1_555
H57 C66 1_555 1_555
C67 C66 1_555 1_555
H58 C67 1_555 1_555
C68 C63 1_555 1_555
C69 C52 1_555 1_555
C70 C65 1_555 1_555
H59 C70 1_555 1_555
C71 C70 1_555 1_555
H60 C71 1_555 1_555
C72 N4 1_555 1_555
H61 C72 1_555 1_555
C73 C72 1_555 1_555
H62 C73 1_555 1_555
C74 C71 1_555 1_555
C75 C74 1_555 1_555
H63 C75 1_555 1_555
C76 N4 1_555 1_555
H64 C76 1_555 1_555
O6 Cu2 1_555 1_555
C77 O6 1_555 1_555
N5 C77 1_555 1_555
C78 N5 1_555 1_555
H65 C78 1_555 1_555
H66 C78 1_555 1_555
H67 C78 1_555 1_555
C79 N5 1_555 1_555
H68 C79 1_555 1_555
H69 C79 1_555 1_555
H70 C79 1_555 1_555
C81 O7 1_555 1_555
C82 N6 1_555 1_555
Cl1 O8 1_555 1_555
O9 Cl1 1_555 1_555
O10 Cl1 1_555 1_555
O11 Cl1 1_555 1_555
Cl2 O12 1_555 1_555
O13 Cl2 1_555 1_555
O14 Cl2 1_555 1_555
O15 Cl2 1_555 1_555
C87 C88 1_555 1_555
O18 C87 1_555 1_555
C89 C90 1_555 1_555
O19 C89 1_555 1_555
C93 C94 1_555 1_555
N6 C81 1_555 1_555
O21 C95 1_555 1_555
C95 C96 1_555 1_555
O26 C106 1_555 1_555
C105 C106 1_555 1_555
O30 C93 1_555 1_555
N1B Cu1 1_555 1_555
N2B Cu1 1_555 1_555
N3C Cu2 1_555 1_555
N4C Cu2 1_555 1_555
C35_2 C36 1_555 1_555
C36_2 C35 1_555 1_555
C37_2 C38 1_555 1_555
C38_2 C37 1_555 1_555
C73_2 C74 1_555 1_555
C74_2 C73 1_555 1_555
C75_2 C76 1_555 1_555
C76_2 C75 1_555 1_555
O6C Cu2 1_555 1_555
C4 C5 1_555 1_555
C14 C15 1_555 1_555
C16 C17 1_555 1_555
C22 C31 1_555 1_555
C27 C28 1_555 1_555
C30 C31 1_555 1_555
C42 C43 1_555 1_555
C52 C53 1_555 1_555
C54 C55 1_555 1_555
C60 C69 1_555 1_555
C67 C68 1_555 1_555
C68 C69 1_555 1_555
C36_2 C37_2 1_555 1_555
C74_2 C75_2 1_555 1_555

#END
