
#######################################################################
#
#                 Cambridge Crystallographic Data Centre
#                                CCDC 
#
#######################################################################
#
# If this CIF has been generated from an entry in the Cambridge 
# Structural Database, then it will include bibliographic, chemical, 
# crystal, experimental, refinement or atomic coordinate data resulting 
# from the CCDC's data processing and validation procedures.
#
#######################################################################

data_XEPWIY
_symmetry_cell_setting           monoclinic
_symmetry_space_group_name_H-M   'C 2/m'
_symmetry_Int_Tables_number      12
_space_group_name_Hall           '-C 2y'
loop_
_symmetry_equiv_pos_site_id
_symmetry_equiv_pos_as_xyz
1 x,y,z
2 -x,y,-z
3 1/2+x,1/2+y,z
4 1/2-x,1/2+y,-z
5 -x,-y,-z
6 x,-y,z
7 1/2-x,1/2-y,-z
8 1/2+x,1/2-y,z
_cell_length_a                   9.028(6)
_cell_length_b                   8.952(6)
_cell_length_c                   7.867(5)
_cell_angle_alpha                90
_cell_angle_beta                 92.61(5)
_cell_angle_gamma                90
_cell_volume                     635.141
loop_
_atom_site_label
_atom_site_type_symbol
_atom_site_fract_x
_atom_site_fract_y
_atom_site_fract_z
Np1 Np 0.0000 0.0000 0.0000
O1 O 0.177(2) 0.162(2) 0.172(2)
O2 O 0.367(2) 0.320(3) 0.160(3)
C1 C 0.258(2) 0.247(2) 0.097(3)
C1F C 0.242(2) 0.253(2) -0.097(3)
O1F O 0.323(2) 0.338(2) -0.172(2)
O2F O 0.133(2) 0.180(3) -0.160(3)
O1A O -0.177(2) 0.162(2) -0.172(2)
O2A O -0.367(2) 0.320(3) -0.160(3)
C1A C -0.258(2) 0.247(2) -0.097(3)
C1G C -0.242(2) 0.253(2) 0.097(3)
O1G O -0.323(2) 0.338(2) 0.172(2)
O2G O -0.133(2) 0.180(3) 0.160(3)
O1D O -0.177(2) -0.162(2) -0.172(2)
O1E O 0.177(2) -0.162(2) 0.172(2)
O2B O -0.133(2) -0.180(3) 0.160(3)
O2C O 0.133(2) -0.180(3) -0.160(3)
Np1B Np 0.5000 0.5000 0.0000
Np1B_2 Np -0.5000 0.5000 0.0000
O3 O 0.5000 0.217(2) 0.5000
O4 O 0.716(2) 0.0000 0.481(3)
O5 O 0.0000 0.5000 0.0000
O6 O 0.0000 0.0000 0.5000
loop_
_geom_bond_atom_site_label_1
_geom_bond_atom_site_label_2
_geom_bond_site_symmetry_1
_geom_bond_site_symmetry_2
Np1 O1 1_555 1_555
O1 C1 1_555 1_555
O2 C1 1_555 1_555
C1 C1F 1_555 1_555
C1F O1F 1_555 1_555
O1F Np1B 1_555 1_555
O2F Np1 1_555 1_555
O1A Np1 1_555 1_555
O2A C1A 1_555 1_555
C1A O1A 1_555 1_555
C1G C1A 1_555 1_555
O1G C1G 1_555 1_555
O2G Np1 1_555 1_555
O1D Np1 1_555 1_555
O1E Np1 1_555 1_555
O2B Np1 1_555 1_555
O2C Np1 1_555 1_555
Np1B O2 1_555 1_555
Np1B_2 O2A 1_555 1_555
C1F O2F 1_555 1_555
C1G O2G 1_555 1_555
O1G Np1B_2 1_555 1_555

#END
