
#######################################################################
#
#                 Cambridge Crystallographic Data Centre
#                                CCDC 
#
#######################################################################
#
# If this CIF has been generated from an entry in the Cambridge 
# Structural Database, then it will include bibliographic, chemical, 
# crystal, experimental, refinement or atomic coordinate data resulting 
# from the CCDC's data processing and validation procedures.
#
#######################################################################

data_XEQGIL
_symmetry_cell_setting           monoclinic
_symmetry_space_group_name_H-M   'C 2/c'
_symmetry_Int_Tables_number      15
_space_group_name_Hall           '-C 2yn'
loop_
_symmetry_equiv_pos_site_id
_symmetry_equiv_pos_as_xyz
1 x,y,z
2 -x,y,1/2-z
3 1/2+x,1/2+y,z
4 1/2-x,1/2+y,1/2-z
5 -x,-y,-z
6 x,-y,1/2+z
7 1/2-x,1/2-y,-z
8 1/2+x,1/2-y,1/2+z
_cell_length_a                   25.0837(11)
_cell_length_b                   8.7814(4)
_cell_length_c                   22.6654(10)
_cell_angle_alpha                90
_cell_angle_beta                 91.8530(10)
_cell_angle_gamma                90
_cell_volume                     4989.9
loop_
_atom_site_label
_atom_site_type_symbol
_atom_site_fract_x
_atom_site_fract_y
_atom_site_fract_z
C1 C 0.28362(17) 0.8686(5) 0.14694(19)
H1 H 0.3111 0.9234 0.1304
C2 C 0.29019(16) 0.7188(5) 0.1601(2)
H2 H 0.3224 0.6708 0.1527
C3 C 0.24935(14) 0.6377(4) 0.1843(2)
H3 H 0.2539 0.5345 0.1921
C4 C 0.20244(11) 0.7057(3) 0.19690(13)
C5 C 0.19631(16) 0.8560(4) 0.18262(19)
H4 H 0.1641 0.9043 0.1896
C6 C 0.23695(18) 0.9373(5) 0.1581(2)
H5 H 0.2322 1.0398 0.1491
C7 C 0.13342(11) 0.6745(3) 0.27100(13)
C8 C 0.15737(12) 0.7806(3) 0.30927(15)
H6 H 0.1920 0.8129 0.3028
C9 C 0.13079(13) 0.8379(3) 0.35629(15)
H7 H 0.1477 0.9084 0.3811
C10 C 0.07833(12) 0.7918(3) 0.36762(14)
C11 C 0.05724(12) 0.6770(3) 0.33227(15)
H8 H 0.0242 0.6367 0.3413
C12 C 0.08287(13) 0.6202(3) 0.28461(15)
H9 H 0.0666 0.5453 0.2612
C13 C 0.04808(13) 0.8615(3) 0.41534(14)
C14 C 0.13442(12) 0.5071(3) 0.18426(14)
C15 C 0.09244(13) 0.5486(3) 0.14603(15)
H10 H 0.0817 0.6498 0.1439
C16 C 0.06676(12) 0.4411(3) 0.11140(15)
H11 H 0.0382 0.4697 0.0867
C17 C 0.08320(12) 0.2901(3) 0.11299(14)
C18 C 0.12561(13) 0.2504(3) 0.14956(16)
H12 H 0.1379 0.1504 0.1497
C19 C 0.15048(13) 0.3570(4) 0.18629(16)
H13 H 0.1780 0.3273 0.2123
C20 C 0.05569(11) 0.1717(3) 0.07490(13)
C21 C 0.08857(13) -0.3978(3) -0.02414(17)
H14 H 0.0557 -0.4092 -0.0438
C22 C 0.12455(13) -0.5159(4) -0.02624(16)
H15 H 0.1158 -0.6040 -0.0472
C23 C 0.17396(12) -0.5034(3) 0.00308(14)
C24 C 0.18424(12) -0.3674(3) 0.03219(16)
H16 H 0.2170 -0.3519 0.0517
C25 C 0.14595(12) -0.2548(3) 0.03232(15)
H17 H 0.1536 -0.1652 0.0528
C26 C 0.21301(12) -0.6302(3) 0.00178(15)
C27 C 0.26739(13) -0.6031(3) 0.00273(18)
H18 H 0.2795 -0.5032 0.0048
C28 C 0.19617(12) -0.7811(3) -0.00077(17)
H19 H 0.1599 -0.8034 -0.0011
Co1 Co 0.041359(14) -0.09999(4) 0.010055(17)
N1 N 0.09849(9) -0.2679(3) 0.00461(11)
N2 N 0.16008(11) 0.6198(3) 0.22216(13)
O1 O 0.07796(8) 0.0455(2) 0.06895(10)
O2 O 0.01126(8) 0.2070(2) 0.05042(10)
O3 O 0.06984(9) 0.9716(2) 0.44409(10)
O4 O 0.00270(8) 0.8090(2) 0.42594(10)
C1D C -0.28362(17) -0.8686(5) -0.14694(19)
H1D H -0.3111 -0.9234 -0.1304
C2D C -0.29019(16) -0.7188(5) -0.1601(2)
H2D H -0.3224 -0.6708 -0.1527
C3D C -0.24935(14) -0.6377(4) -0.1843(2)
H3D H -0.2539 -0.5345 -0.1921
C4D C -0.20244(11) -0.7057(3) -0.19690(13)
C5D C -0.19631(16) -0.8560(4) -0.18262(19)
H4D H -0.1641 -0.9043 -0.1896
C6D C -0.23695(18) -0.9373(5) -0.1581(2)
H5D H -0.2322 -1.0398 -0.1491
C7D C -0.13342(11) -0.6745(3) -0.27100(13)
C8D C -0.15737(12) -0.7806(3) -0.30927(15)
H6D H -0.1920 -0.8129 -0.3028
C9D C -0.13079(13) -0.8379(3) -0.35629(15)
H7D H -0.1477 -0.9084 -0.3811
C10D C -0.07833(12) -0.7918(3) -0.36762(14)
C11D C -0.05724(12) -0.6770(3) -0.33227(15)
H8D H -0.0242 -0.6367 -0.3413
C12D C -0.08287(13) -0.6202(3) -0.28461(15)
H9D H -0.0666 -0.5453 -0.2612
C13D C -0.04808(13) -0.8615(3) -0.41534(14)
C14D C -0.13442(12) -0.5071(3) -0.18426(14)
C15D C -0.09244(13) -0.5486(3) -0.14603(15)
H10D H -0.0817 -0.6498 -0.1439
C16D C -0.06676(12) -0.4411(3) -0.11140(15)
H11D H -0.0382 -0.4697 -0.0867
C17D C -0.08320(12) -0.2901(3) -0.11299(14)
C18D C -0.12561(13) -0.2504(3) -0.14956(16)
H12D H -0.1379 -0.1504 -0.1497
C19D C -0.15048(13) -0.3570(4) -0.18629(16)
H13D H -0.1780 -0.3273 -0.2123
C20D C -0.05569(11) -0.1717(3) -0.07490(13)
C21F C 0.41143(13) -1.1022(3) 0.02414(17)
H14F H 0.4443 -1.0908 0.0438
C22F C 0.37545(13) -0.9841(4) 0.02624(16)
H15F H 0.3842 -0.8960 0.0472
C23F C 0.32604(12) -0.9966(3) -0.00308(14)
C24F C 0.31576(12) -1.1326(3) -0.03219(16)
H16F H 0.2830 -1.1481 -0.0517
C25F C 0.35405(12) -1.2452(3) -0.03232(15)
H17F H 0.3464 -1.3348 -0.0528
C26F C 0.28699(12) -0.8698(3) -0.00178(15)
C27F C 0.23261(13) -0.8969(3) -0.00273(18)
H18F H 0.2205 -0.9968 -0.0048
C28F C 0.30383(12) -0.7189(3) 0.00077(17)
H19F H 0.3401 -0.6966 0.0011
Co1F Co 0.458641(14) -1.40001(4) -0.010055(17)
Co1D Co -0.041359(14) 0.09999(4) -0.010055(17)
Co1E Co 0.041359(14) 1.09999(4) 0.510055(17)
Co1A Co -0.041359(14) 0.90001(4) 0.489945(17)
Co1A_2 Co -0.041359(14) -1.09999(4) -0.510055(17)
Co1E_2 Co 0.041359(14) -0.90001(4) -0.489945(17)
Co1B Co 0.541359(14) -1.59999(4) 0.010055(17)
N1F N 0.40151(9) -1.2321(3) -0.00461(11)
N2D N -0.16008(11) -0.6198(3) -0.22216(13)
O1D O -0.07796(8) -0.0455(2) -0.06895(10)
O1F O 0.42204(8) -1.5455(2) -0.06895(10)
O2D O -0.01126(8) -0.2070(2) -0.05042(10)
O2B O 0.51126(8) -1.2930(2) 0.05042(10)
O3D O -0.06984(9) -0.9716(2) -0.44409(10)
O3E O 0.06984(9) 0.0284(2) -0.05591(10)
O3C O 0.43016(9) -1.5284(2) 0.05591(10)
O4D O -0.00270(8) -0.8090(2) -0.42594(10)
O4A O -0.00270(8) -0.1910(2) 0.07406(10)
O4G O 0.50270(8) -1.3090(2) -0.07406(10)
loop_
_geom_bond_atom_site_label_1
_geom_bond_atom_site_label_2
_geom_bond_site_symmetry_1
_geom_bond_site_symmetry_2
C1 H1 1_555 1_555
C2 C1 1_555 1_555
H2 C2 1_555 1_555
C3 C2 1_555 1_555
H3 C3 1_555 1_555
C4 C3 1_555 1_555
C5 C4 1_555 1_555
H4 C5 1_555 1_555
C6 C1 1_555 1_555
H5 C6 1_555 1_555
C7 C8 1_555 1_555
C8 H6 1_555 1_555
C9 C8 1_555 1_555
H7 C9 1_555 1_555
C10 C9 1_555 1_555
C11 C10 1_555 1_555
H8 C11 1_555 1_555
C12 C7 1_555 1_555
H9 C12 1_555 1_555
C13 C10 1_555 1_555
C14 C15 1_555 1_555
C15 H10 1_555 1_555
C16 C15 1_555 1_555
H11 C16 1_555 1_555
C17 C16 1_555 1_555
C18 C17 1_555 1_555
H12 C18 1_555 1_555
C19 C14 1_555 1_555
H13 C19 1_555 1_555
C20 C17 1_555 1_555
C21 H14 1_555 1_555
C22 C21 1_555 1_555
H15 C22 1_555 1_555
C23 C22 1_555 1_555
C24 C23 1_555 1_555
H16 C24 1_555 1_555
C25 C24 1_555 1_555
H17 C25 1_555 1_555
C26 C23 1_555 1_555
C27 C26 1_555 1_555
H18 C27 1_555 1_555
C28 C26 1_555 1_555
H19 C28 1_555 1_555
Co1 N1 1_555 1_555
N1 C21 1_555 1_555
N2 C4 1_555 1_555
O1 C20 1_555 1_555
O2 C20 1_555 1_555
O3 C13 1_555 1_555
O4 C13 1_555 1_555
C1D H1D 1_555 1_555
C2D C1D 1_555 1_555
H2D C2D 1_555 1_555
C3D C2D 1_555 1_555
H3D C3D 1_555 1_555
C4D C3D 1_555 1_555
C5D C4D 1_555 1_555
H4D C5D 1_555 1_555
C6D C1D 1_555 1_555
H5D C6D 1_555 1_555
C7D C8D 1_555 1_555
C8D H6D 1_555 1_555
C9D C8D 1_555 1_555
H7D C9D 1_555 1_555
C10D C9D 1_555 1_555
C11D C10D 1_555 1_555
H8D C11D 1_555 1_555
C12D C7D 1_555 1_555
H9D C12D 1_555 1_555
C13D C10D 1_555 1_555
C14D C15D 1_555 1_555
C15D H10D 1_555 1_555
C16D C15D 1_555 1_555
H11D C16D 1_555 1_555
C17D C16D 1_555 1_555
C18D C17D 1_555 1_555
H12D C18D 1_555 1_555
C19D C14D 1_555 1_555
H13D C19D 1_555 1_555
C20D C17D 1_555 1_555
C21F H14F 1_555 1_555
C22F C21F 1_555 1_555
H15F C22F 1_555 1_555
C23F C22F 1_555 1_555
C24F C23F 1_555 1_555
H16F C24F 1_555 1_555
C25F C24F 1_555 1_555
H17F C25F 1_555 1_555
C26F C23F 1_555 1_555
C27F C28 1_555 1_555
H18F C27F 1_555 1_555
C28F C27 1_555 1_555
H19F C28F 1_555 1_555
Co1F Co1B 1_555 1_555
Co1D Co1 1_555 1_555
Co1E O3 1_555 1_555
Co1A O4 1_555 1_555
Co1A_2 Co1E_2 1_555 1_555
Co1E_2 O4D 1_555 1_555
N1F C21F 1_555 1_555
N2D C4D 1_555 1_555
O1D C20D 1_555 1_555
O1F Co1F 1_555 1_555
O2D Co1 1_555 1_555
O2B Co1F 1_555 1_555
O3D C13D 1_555 1_555
O3E Co1 1_555 1_555
O3C Co1F 1_555 1_555
O4D C13D 1_555 1_555
O4A Co1 1_555 1_555
O4G Co1F 1_555 1_555
C5 C6 1_555 1_555
C7 N2 1_555 1_555
C11 C12 1_555 1_555
C14 N2 1_555 1_555
C18 C19 1_555 1_555
C25 N1 1_555 1_555
Co1 O1 1_555 1_555
O2 Co1D 1_555 1_555
C5D C6D 1_555 1_555
C7D N2D 1_555 1_555
C11D C12D 1_555 1_555
C14D N2D 1_555 1_555
C18D C19D 1_555 1_555
C20D O2D 1_555 1_555
C25F N1F 1_555 1_555
C26F C27F 1_555 1_555
C26F C28F 1_555 1_555
Co1F N1F 1_555 1_555
Co1D O1D 1_555 1_555
Co1E Co1A 1_555 1_555
Co1A_2 O3D 1_555 1_555

#END
