
#######################################################################
#
#                 Cambridge Crystallographic Data Centre
#                                CCDC 
#
#######################################################################
#
# If this CIF has been generated from an entry in the Cambridge 
# Structural Database, then it will include bibliographic, chemical, 
# crystal, experimental, refinement or atomic coordinate data resulting 
# from the CCDC's data processing and validation procedures.
#
#######################################################################

data_XEQMIR
_symmetry_cell_setting           tetragonal
_symmetry_space_group_name_H-M   'I -4'
_symmetry_Int_Tables_number      82
_space_group_name_Hall           'I -4'
loop_
_symmetry_equiv_pos_site_id
_symmetry_equiv_pos_as_xyz
1 x,y,z
2 y,-x,-z
3 -x,-y,z
4 -y,x,-z
5 1/2+x,1/2+y,1/2+z
6 1/2+y,1/2-x,1/2-z
7 1/2-x,1/2-y,1/2+z
8 1/2-y,1/2+x,1/2-z
_cell_length_a                   22.1438(8)
_cell_length_b                   22.1438(8)
_cell_length_c                   6.7080(3)
_cell_angle_alpha                90
_cell_angle_beta                 90
_cell_angle_gamma                90
_cell_volume                     3289.25
loop_
_atom_site_label
_atom_site_type_symbol
_atom_site_fract_x
_atom_site_fract_y
_atom_site_fract_z
Rh1 Rh 0.207829(12) 0.489708(12) 0.63516(4)
Rh2 Rh 0.217737(12) 0.482910(13) 0.14220(5)
Cl1 Cl 0.32197(4) 0.50117(4) 0.20209(14)
Cl2 Cl 0.19804(4) 0.58758(4) 0.12619(17)
O1 O 0.07874(11) 0.45093(13) 0.5906(5)
O2 O 0.16333(12) 0.61734(11) 0.6119(4)
O3 O 0.24766(13) 0.35202(11) 0.1259(5)
O4 O 0.08627(13) 0.45877(13) 0.0906(5)
N1 N 0.29745(13) 0.51090(13) 0.6935(4)
N2 N 0.24720(12) 0.40490(13) 0.6339(6)
C1 C 0.12776(17) 0.46503(16) 0.6007(6)
C2 C 0.18007(16) 0.56928(16) 0.6227(8)
C3 C 0.23544(17) 0.40197(17) 0.1369(7)
C4 C 0.13662(19) 0.46794(17) 0.1064(6)
C5 C 0.31880(17) 0.56689(17) 0.7239(6)
H1 H 0.2912 0.5998 0.7245
C6 C 0.37922(17) 0.57836(18) 0.7543(6)
H2 H 0.3935 0.6185 0.7715
C7 C 0.41857(17) 0.52964(19) 0.7591(6)
H3 H 0.4605 0.5362 0.7796
C8 C 0.39689(17) 0.47180(18) 0.7341(7)
H4 H 0.4235 0.4382 0.7392
C9 C 0.33540(16) 0.46337(16) 0.7013(6)
C10 C 0.30752(15) 0.40409(15) 0.6732(5)
C11 C 0.33864(16) 0.34948(16) 0.6864(6)
H5 H 0.3804 0.3490 0.7189
C12 C 0.30798(16) 0.29569(15) 0.6515(6)
H6 H 0.3285 0.2581 0.6612
C13 C 0.24723(16) 0.29750(16) 0.6026(6)
H7 H 0.2256 0.2615 0.5735
C14 C 0.21901(16) 0.35294(16) 0.5972(6)
H8 H 0.1772 0.3542 0.5655
Rh1_2 Rh 0.207829(12) 0.489708(12) -0.36484(4)
Rh2_2 Rh 0.217737(12) 0.482910(13) 1.14220(5)
loop_
_geom_bond_atom_site_label_1
_geom_bond_atom_site_label_2
_geom_bond_site_symmetry_1
_geom_bond_site_symmetry_2
Rh1 Rh2 1_555 1_555
Rh2 Cl1 1_555 1_555
Cl2 Rh2 1_555 1_555
O1 C1 1_555 1_555
O2 C2 1_555 1_555
O3 C3 1_555 1_555
O4 C4 1_555 1_555
N1 Rh1 1_555 1_555
N2 Rh1 1_555 1_555
C1 Rh1 1_555 1_555
C2 Rh1 1_555 1_555
C3 Rh2 1_555 1_555
C4 Rh2 1_555 1_555
C5 N1 1_555 1_555
H1 C5 1_555 1_555
C6 C5 1_555 1_555
H2 C6 1_555 1_555
C7 C6 1_555 1_555
H3 C7 1_555 1_555
C8 C7 1_555 1_555
H4 C8 1_555 1_555
C9 N1 1_555 1_555
C10 N2 1_555 1_555
C11 C10 1_555 1_555
H5 C11 1_555 1_555
C12 C11 1_555 1_555
H6 C12 1_555 1_555
C13 C12 1_555 1_555
H7 C13 1_555 1_555
C14 N2 1_555 1_555
H8 C14 1_555 1_555
Rh1_2 Rh2 1_555 1_555
Rh2_2 Rh1 1_555 1_555
C8 C9 1_555 1_555
C9 C10 1_555 1_555
C13 C14 1_555 1_555

#END
