
#######################################################################
#
#                 Cambridge Crystallographic Data Centre
#                                CCDC 
#
#######################################################################
#
# If this CIF has been generated from an entry in the Cambridge 
# Structural Database, then it will include bibliographic, chemical, 
# crystal, experimental, refinement or atomic coordinate data resulting 
# from the CCDC's data processing and validation procedures.
#
#######################################################################

data_XEQMOX
_symmetry_cell_setting           triclinic
_symmetry_space_group_name_H-M   'P -1'
_symmetry_Int_Tables_number      2
_space_group_name_Hall           '-P 1'
loop_
_symmetry_equiv_pos_site_id
_symmetry_equiv_pos_as_xyz
1 x,y,z
2 -x,-y,-z
_cell_length_a                   6.56520(10)
_cell_length_b                   16.7058(4)
_cell_length_c                   16.9994(4)
_cell_angle_alpha                72.6080(10)
_cell_angle_beta                 80.9340(10)
_cell_angle_gamma                86.5110(10)
_cell_volume                     1756.79
loop_
_atom_site_label
_atom_site_type_symbol
_atom_site_fract_x
_atom_site_fract_y
_atom_site_fract_z
Rh1 Rh 0.07716(3) 0.463557(12) 0.305024(12)
Rh2 Rh -0.41280(3) 0.461660(13) 0.289040(12)
Cl1 Cl -0.36470(11) 0.59337(4) 0.18461(4)
Cl2 Cl -0.34472(9) 0.38474(4) 0.19087(4)
O1 O 0.0555(3) 0.64602(12) 0.29517(13)
O2 O -0.0344(4) 0.42244(13) 0.49009(12)
O3 O -0.5221(4) 0.55615(16) 0.41329(15)
O4 O -0.4760(3) 0.29461(14) 0.41551(13)
N1 N 0.0923(3) 0.33940(13) 0.30344(13)
N2 N 0.1500(3) 0.48113(13) 0.17759(13)
C1 C 0.0645(4) 0.57712(17) 0.29852(16)
C2 C 0.0087(4) 0.43846(16) 0.42015(17)
C3 C -0.4776(4) 0.51942(19) 0.36693(19)
C4 C -0.4517(4) 0.35921(18) 0.36854(17)
C5 C 0.0628(4) 0.26928(16) 0.36748(16)
H1 H 0.0319 0.2741 0.4224
C6 C 0.0755(4) 0.18943(17) 0.35661(17)
H2 H 0.0521 0.1410 0.4034
C7 C 0.1222(4) 0.18163(16) 0.27771(17)
H3 H 0.1339 0.1276 0.2696
C8 C 0.1527(4) 0.25376(16) 0.20905(16)
C9 C 0.2008(4) 0.25195(18) 0.12424(17)
H4 H 0.2116 0.1995 0.1126
C10 C 0.2312(4) 0.32402(18) 0.06029(17)
H5 H 0.2634 0.3212 0.0047
C11 C 0.2156(4) 0.40409(17) 0.07545(16)
C12 C 0.2471(4) 0.48095(17) 0.01200(16)
H6 H 0.2807 0.4816 -0.0446
C13 C 0.2292(4) 0.55449(18) 0.03234(17)
H7 H 0.2496 0.6066 -0.0100
C14 C 0.1804(4) 0.55257(16) 0.11633(16)
H8 H 0.1686 0.6040 0.1299
C15 C 0.1687(4) 0.40760(16) 0.15759(15)
C16 C 0.1370(3) 0.33175(16) 0.22499(15)
Rh1_2 Rh -0.92284(3) 0.463557(12) 0.305024(12)
Rh2_2 Rh 0.58720(3) 0.461660(13) 0.289040(12)
Rh3 Rh 0.32556(3) 0.120645(12) 0.663828(12)
Rh4 Rh -0.18550(3) 0.109368(12) 0.700679(12)
Cl3 Cl -0.13029(10) 0.03365(4) 0.60179(4)
Cl4 Cl -0.18754(9) -0.01368(4) 0.81585(4)
O5 O 0.4094(3) 0.09895(14) 0.49224(12)
O6 O 0.2765(3) 0.30484(13) 0.58262(13)
O7 O -0.2079(3) 0.26278(13) 0.55762(13)
O8 O -0.2511(3) 0.20173(12) 0.82820(12)
N3 N 0.2837(3) 0.12524(13) 0.78603(12)
N4 N 0.3358(3) -0.00683(13) 0.72677(13)
C17 C 0.3756(4) 0.10706(17) 0.55686(16)
C18 C 0.2980(4) 0.23532(18) 0.61415(16)
C19 C -0.1981(4) 0.20454(17) 0.61324(16)
C20 C -0.2260(4) 0.16825(16) 0.77831(16)
C21 C 0.2605(4) 0.19185(16) 0.81502(16)
H9 H 0.2597 0.2462 0.7762
C22 C 0.2377(4) 0.18513(17) 0.89939(17)
H10 H 0.2206 0.2341 0.9173
C23 C 0.2398(4) 0.10755(18) 0.95648(17)
H11 H 0.2250 0.1023 1.0143
C24 C 0.2641(4) 0.03544(17) 0.92884(16)
C25 C 0.2677(4) -0.04862(18) 0.98382(16)
H12 H 0.2548 -0.0575 1.0422
C26 C 0.2891(4) -0.11545(18) 0.95339(17)
H13 H 0.2894 -0.1704 0.9911
C27 C 0.3114(4) -0.10513(16) 0.86579(16)
C28 C 0.3336(4) -0.17166(17) 0.83039(18)
H14 H 0.3319 -0.2281 0.8651
C29 C 0.3578(4) -0.15465(17) 0.74506(18)
H15 H 0.3737 -0.1992 0.7204
C30 C 0.3586(4) -0.07161(17) 0.69515(17)
H16 H 0.3762 -0.0606 0.6364
C31 C 0.3120(3) -0.02323(16) 0.81096(15)
C32 C 0.2853(3) 0.04720(16) 0.84292(15)
Rh3_2 Rh -0.67444(3) 0.120645(12) 0.663828(12)
Rh4_2 Rh 0.81450(3) 0.109368(12) 0.700679(12)
loop_
_geom_bond_atom_site_label_1
_geom_bond_atom_site_label_2
_geom_bond_site_symmetry_1
_geom_bond_site_symmetry_2
Rh1 Rh2 1_555 1_555
Rh2 Cl1 1_555 1_555
Cl2 Rh2 1_555 1_555
O1 C1 1_555 1_555
O2 C2 1_555 1_555
O3 C3 1_555 1_555
O4 C4 1_555 1_555
N1 Rh1 1_555 1_555
N2 Rh1 1_555 1_555
C1 Rh1 1_555 1_555
C2 Rh1 1_555 1_555
C3 Rh2 1_555 1_555
C4 Rh2 1_555 1_555
C5 N1 1_555 1_555
H1 C5 1_555 1_555
C6 C5 1_555 1_555
H2 C6 1_555 1_555
C7 C6 1_555 1_555
H3 C7 1_555 1_555
C8 C7 1_555 1_555
C9 C8 1_555 1_555
H4 C9 1_555 1_555
C10 C9 1_555 1_555
H5 C10 1_555 1_555
C11 C10 1_555 1_555
C12 C11 1_555 1_555
H6 C12 1_555 1_555
C13 C12 1_555 1_555
H7 C13 1_555 1_555
C14 N2 1_555 1_555
H8 C14 1_555 1_555
C15 N2 1_555 1_555
C16 N1 1_555 1_555
Rh3 Rh4 1_555 1_555
Rh4 Cl3 1_555 1_555
Cl4 Rh4 1_555 1_555
O5 C17 1_555 1_555
O6 C18 1_555 1_555
O7 C19 1_555 1_555
O8 C20 1_555 1_555
N3 Rh3 1_555 1_555
N4 Rh3 1_555 1_555
C17 Rh3 1_555 1_555
C18 Rh3 1_555 1_555
C19 Rh4 1_555 1_555
C20 Rh4 1_555 1_555
C21 N3 1_555 1_555
H9 C21 1_555 1_555
C22 C21 1_555 1_555
H10 C22 1_555 1_555
C23 C22 1_555 1_555
H11 C23 1_555 1_555
C24 C23 1_555 1_555
C25 C24 1_555 1_555
H12 C25 1_555 1_555
C26 C25 1_555 1_555
H13 C26 1_555 1_555
C27 C26 1_555 1_555
C28 C27 1_555 1_555
H14 C28 1_555 1_555
C29 C28 1_555 1_555
H15 C29 1_555 1_555
C30 N4 1_555 1_555
H16 C30 1_555 1_555
C31 N4 1_555 1_555
C32 N3 1_555 1_555
Rh1_2 Rh2 1_555 1_555
Rh2_2 Rh1 1_555 1_555
Rh3_2 Rh4 1_555 1_555
Rh4_2 Rh3 1_555 1_555
C8 C16 1_555 1_555
C11 C15 1_555 1_555
C13 C14 1_555 1_555
C15 C16 1_555 1_555
C24 C32 1_555 1_555
C27 C31 1_555 1_555
C29 C30 1_555 1_555
C31 C32 1_555 1_555

#END
