
#######################################################################
#
#                 Cambridge Crystallographic Data Centre
#                                CCDC 
#
#######################################################################
#
# If this CIF has been generated from an entry in the Cambridge 
# Structural Database, then it will include bibliographic, chemical, 
# crystal, experimental, refinement or atomic coordinate data resulting 
# from the CCDC's data processing and validation procedures.
#
#######################################################################

data_XEQRAO
_symmetry_cell_setting           monoclinic
_symmetry_space_group_name_H-M   'C 2/c'
_symmetry_Int_Tables_number      15
_space_group_name_Hall           '-C 2yn'
loop_
_symmetry_equiv_pos_site_id
_symmetry_equiv_pos_as_xyz
1 x,y,z
2 -x,y,1/2-z
3 1/2+x,1/2+y,z
4 1/2-x,1/2+y,1/2-z
5 -x,-y,-z
6 x,-y,1/2+z
7 1/2-x,1/2-y,-z
8 1/2+x,1/2-y,1/2+z
_cell_length_a                   33.321(7)
_cell_length_b                   9.807(2)
_cell_length_c                   7.8951(16)
_cell_angle_alpha                90
_cell_angle_beta                 96.68(3)
_cell_angle_gamma                90
_cell_volume                     2562.44
loop_
_atom_site_label
_atom_site_type_symbol
_atom_site_fract_x
_atom_site_fract_y
_atom_site_fract_z
Cd1 Cd 0.5000 0.02921(5) 1.7500
O1 O 0.45233(9) 0.1684(4) 1.6120(4)
O2 O 0.5000 -0.2005(5) 1.7500
H1 H 0.5168 -0.2284 1.8264
O3 O 0.45604(9) -0.0249(3) 1.4737(5)
C1 C 0.43880(11) 0.0865(5) 1.4959(6)
C2 C 0.40065(11) 0.1219(5) 1.3854(5)
C3 C 0.37893(12) 0.0202(5) 1.2954(6)
H2 H 0.3890 -0.0683 1.2982
C4 C 0.34218(12) 0.0492(4) 1.2007(6)
H3 H 0.3276 -0.0203 1.1415
C5 C 0.32712(11) 0.1804(4) 1.1940(5)
C6 C 0.34940(13) 0.2822(5) 1.2813(6)
H4 H 0.3398 0.3713 1.2758
C7 C 0.38591(12) 0.2531(5) 1.3772(6)
H5 H 0.4005 0.3226 1.4363
C8 C 0.28725(11) 0.2139(4) 1.0931(5)
C9 C 0.28676(11) 0.2749(4) 0.9327(5)
C10 C 0.25133(11) 0.1883(4) 1.1625(5)
C11 C 0.25036(13) 0.1274(5) 1.3258(6)
H6 H 0.2746 0.1026 1.3891
C12 C 0.21528(14) 0.1045(5) 1.3914(6)
H7 H 0.2157 0.0647 1.4984
C13 C 0.17811(13) 0.1407(5) 1.2987(6)
H8 H 0.1541 0.1248 1.3449
C14 C 0.32278(12) 0.3015(4) 0.8574(6)
H9 H 0.3476 0.2786 0.9171
Cd1D Cd 0.5000 -0.02921(5) 1.2500
Cd1F Cd 0.0000 0.47079(5) 0.2500
Cd1B Cd 0.0000 0.52921(5) 0.7500
O1F O 0.04767(9) 0.3316(4) 0.3880(4)
O1A O 0.54767(9) 0.1684(4) 1.8880(4)
H1A H 0.4832 -0.2284 1.6736
O3F O 0.04396(9) 0.5249(3) 0.5263(5)
O3A O 0.54396(9) -0.0249(3) 2.0263(5)
O3D O 0.54396(9) 0.0249(3) 1.5263(5)
O3E O 0.45604(9) 0.0249(3) 1.9737(5)
C1F C 0.06120(11) 0.4135(5) 0.5041(6)
C2F C 0.09935(11) 0.3781(5) 0.6146(5)
C3F C 0.12107(12) 0.4798(5) 0.7046(6)
H2F H 0.1110 0.5683 0.7018
C4F C 0.15782(12) 0.4508(4) 0.7993(6)
H3F H 0.1724 0.5203 0.8585
C5F C 0.17288(11) 0.3196(4) 0.8060(5)
C6F C 0.15060(13) 0.2178(5) 0.7187(6)
H4F H 0.1602 0.1287 0.7242
C7F C 0.11409(12) 0.2469(5) 0.6228(6)
H5F H 0.0995 0.1774 0.5637
C8F C 0.21275(11) 0.2861(4) 0.9069(5)
C9F C 0.21324(11) 0.2251(4) 1.0673(5)
C10F C 0.24867(11) 0.3117(4) 0.8375(5)
C11F C 0.24964(13) 0.3726(5) 0.6742(6)
H6F H 0.2254 0.3974 0.6109
C12F C 0.28472(14) 0.3955(5) 0.6086(6)
H7F H 0.2843 0.4353 0.5016
C13F C 0.32189(13) 0.3593(5) 0.7013(6)
H8F H 0.3459 0.3752 0.6551
C14F C 0.17722(12) 0.1985(4) 1.1426(6)
H9F H 0.1524 0.2214 1.0829
O4 O 0.9466(5) 0.8514(15) 0.030(2)
O5 O 0.0551(5) 0.0740(14) 0.2551(18)
loop_
_geom_bond_atom_site_label_1
_geom_bond_atom_site_label_2
_geom_bond_site_symmetry_1
_geom_bond_site_symmetry_2
Cd1 O1 1_555 1_555
O1 C1 1_555 1_555
O2 Cd1 1_555 1_555
H1 O2 1_555 1_555
O3 Cd1 1_555 1_555
C1 O3 1_555 1_555
C2 C1 1_555 1_555
C3 C2 1_555 1_555
H2 C3 1_555 1_555
C4 C3 1_555 1_555
H3 C4 1_555 1_555
C5 C4 1_555 1_555
C6 C5 1_555 1_555
H4 C6 1_555 1_555
C7 C2 1_555 1_555
H5 C7 1_555 1_555
C8 C5 1_555 1_555
C9 C8 1_555 1_555
C10 C8 1_555 1_555
C11 C10 1_555 1_555
H6 C11 1_555 1_555
C12 C11 1_555 1_555
H7 C12 1_555 1_555
C13 C12 1_555 1_555
H8 C13 1_555 1_555
C14 C9 1_555 1_555
H9 C14 1_555 1_555
Cd1D O3 1_555 1_555
Cd1F O1F 1_555 1_555
Cd1B O3F 1_555 1_555
O1F C1F 1_555 1_555
O1A Cd1 1_555 1_555
H1A O2 1_555 1_555
O3F Cd1F 1_555 1_555
O3A Cd1 1_555 1_555
O3D Cd1 1_555 1_555
O3E Cd1 1_555 1_555
C1F O3F 1_555 1_555
C2F C1F 1_555 1_555
C3F C2F 1_555 1_555
H2F C3F 1_555 1_555
C4F C3F 1_555 1_555
H3F C4F 1_555 1_555
C5F C4F 1_555 1_555
C6F C5F 1_555 1_555
H4F C6F 1_555 1_555
C7F C2F 1_555 1_555
H5F C7F 1_555 1_555
C8F C5F 1_555 1_555
C9F C10 1_555 1_555
C10F C9 1_555 1_555
C11F C10F 1_555 1_555
H6F C11F 1_555 1_555
C12F C11F 1_555 1_555
H7F C12F 1_555 1_555
C13F C14 1_555 1_555
H8F C13F 1_555 1_555
C14F C13 1_555 1_555
H9F C14F 1_555 1_555
C6 C7 1_555 1_555
Cd1D O3D 1_555 1_555
C6F C7F 1_555 1_555
C8F C9F 1_555 1_555
C8F C10F 1_555 1_555
C9F C14F 1_555 1_555
C12F C13F 1_555 1_555

#END
