
#######################################################################
#
#                 Cambridge Crystallographic Data Centre
#                                CCDC 
#
#######################################################################
#
# If this CIF has been generated from an entry in the Cambridge 
# Structural Database, then it will include bibliographic, chemical, 
# crystal, experimental, refinement or atomic coordinate data resulting 
# from the CCDC's data processing and validation procedures.
#
#######################################################################

data_XEQTEU
_symmetry_cell_setting           monoclinic
_symmetry_space_group_name_H-M   'P 21/c'
_symmetry_Int_Tables_number      14
_space_group_name_Hall           '-P 2ybc'
loop_
_symmetry_equiv_pos_site_id
_symmetry_equiv_pos_as_xyz
1 x,y,z
2 -x,1/2+y,1/2-z
3 -x,-y,-z
4 x,1/2-y,1/2+z
_cell_length_a                   7.8901(10)
_cell_length_b                   17.736(2)
_cell_length_c                   20.584(4)
_cell_angle_alpha                90
_cell_angle_beta                 95.64(2)
_cell_angle_gamma                90
_cell_volume                     2866.56
loop_
_atom_site_label
_atom_site_type_symbol
_atom_site_fract_x
_atom_site_fract_y
_atom_site_fract_z
Ag1 Ag 0.77988(5) 0.19732(2) 0.10523(2)
Ag2 Ag 1.44224(5) 0.28437(2) 0.095130(19)
O1 O 0.9133(5) 0.2292(2) 0.21883(18)
O2 O 0.9481(4) 0.22139(19) 0.00876(18)
N1 N 0.5867(5) 0.1086(2) 0.14050(19)
O3 O 0.8237(4) 0.06900(19) 0.05718(18)
O4 O 1.2108(5) 0.4122(2) 0.33285(19)
O5 O 0.5579(5) -0.1534(2) 0.01466(19)
O6 O 1.4919(6) 0.5163(2) 0.1171(2)
N2 N 0.4455(5) -0.0762(2) 0.0858(2)
O7 O 0.4862(4) 0.30588(19) -0.05163(17)
N3 N 1.0535(5) 0.3222(2) 0.2774(2)
C1 C 0.4991(7) 0.1876(3) 0.2262(3)
O8 O 1.3458(5) 0.4154(2) 0.1270(2)
O9 O 0.5256(5) 0.3097(2) 0.24547(19)
N4 N 0.9492(5) 0.4751(2) 0.1324(2)
O10 O 1.1542(5) 0.2302(2) 0.0851(2)
N5 N 0.5666(5) 0.3249(2) 0.0094(2)
N6 N 0.3332(5) 0.0048(2) 0.1590(2)
O11 O 1.5794(5) 0.4345(2) 0.1888(2)
N7 N 0.6868(5) -0.0406(2) 0.0332(2)
N8 N 0.4916(6) 0.2528(2) 0.1999(2)
N9 N 1.0937(5) 0.4419(2) 0.2314(2)
O12 O 1.1732(5) 0.2828(2) -0.0090(2)
N10 N 0.8393(5) 0.3276(2) 0.1148(2)
C2 C 0.4521(6) -0.0088(3) 0.1190(2)
N11 N 1.0927(5) 0.2446(2) 0.0288(2)
C3 C 0.5759(6) 0.0437(3) 0.1084(2)
C4 C 0.7913(7) 0.5154(3) 0.0328(3)
H1 H 0.8373 0.563 0.0482
H2 H 0.6692 0.5176 0.0294
H3 H 0.8282 0.5047 -0.0093
C5 C 0.3175(7) -0.1322(3) 0.0985(3)
H4 H 0.3297 -0.1757 0.0715
H5 H 0.2059 -0.1111 0.0886
H6 H 0.3326 -0.1468 0.1436
C6 C 0.2091(8) 0.0842(3) 0.2353(3)
H7 H 0.1326 0.042 0.2345
H8 H 0.1472 0.1285 0.2204
H9 H 0.26 0.092 0.2791
C7 C 0.5626(6) -0.0944(3) 0.0435(3)
N12 N 1.4712(6) 0.4562(2) 0.1434(2)
C8 C 0.7117(6) 0.3550(3) 0.0061(2)
C9 C 0.9288(6) 0.3493(3) 0.1699(3)
C10 C 0.8037(6) 0.3789(3) 0.0687(2)
C11 C 1.1248(7) 0.3937(3) 0.2834(3)
C12 C 0.4746(6) 0.1215(3) 0.1837(2)
C13 C 0.9624(6) 0.2940(3) 0.2220(3)
C14 C 0.7899(6) 0.3674(3) -0.0556(2)
H10 H 0.7147 0.3489 -0.0916
H11 H 0.8965 0.341 -0.054
H12 H 0.8091 0.4204 -0.0613
C15 C 0.9900(6) 0.4223(3) 0.1765(3)
C16 C 0.7064(6) 0.0269(3) 0.0657(2)
C17 C 1.0863(8) 0.2732(3) 0.3346(3)
H13 H 1.1504 0.3004 0.3691
H14 H 1.15 0.2299 0.3232
H15 H 0.98 0.2572 0.3491
C18 C 0.8516(6) 0.4552(3) 0.0791(3)
C19 C 0.5460(9) 0.1764(3) 0.2976(3)
H16 H 0.5575 0.2245 0.3188
H17 H 0.6521 0.1496 0.3042
H18 H 0.4586 0.1477 0.3156
C20 C 0.3446(7) 0.0686(3) 0.1918(3)
C21 C 0.8193(6) -0.0636(3) -0.0074(3)
H19 H 0.7901 -0.1115 -0.0271
H20 H 0.926 -0.0677 0.0191
H21 H 0.8291 -0.0266 -0.0409
C22 C 1.1883(7) 0.5130(3) 0.2362(3)
H22 H 1.1578 0.5427 0.1978
H23 H 1.3083 0.5027 0.2397
H24 H 1.1608 0.5403 0.274
Ag1_2 Ag 1.77988(5) 0.19732(2) 0.10523(2)
Ag2_2 Ag 0.44224(5) 0.28437(2) 0.095130(19)
N5_2 N 1.5666(5) 0.3249(2) 0.0094(2)
N8_2 N 1.4916(6) 0.2528(2) 0.1999(2)
loop_
_geom_bond_atom_site_label_1
_geom_bond_atom_site_label_2
_geom_bond_site_symmetry_1
_geom_bond_site_symmetry_2
Ag1 O1 1_555 1_555
Ag2 O8 1_555 1_555
O1 C13 1_555 1_555
O2 Ag1 1_555 1_555
N1 Ag1 1_555 1_555
O3 Ag1 1_555 1_555
O4 C11 1_555 1_555
O5 C7 1_555 1_555
O6 N12 1_555 1_555
N2 C2 1_555 1_555
O7 N5 1_555 1_555
N3 C11 1_555 1_555
C1 N8 1_555 1_555
O8 N12 1_555 1_555
O9 N8 1_555 1_555
N4 C15 1_555 1_555
O10 Ag2 1_555 1_555
N5 C8 1_555 1_555
N6 C2 1_555 1_555
O11 N12 1_555 1_555
N7 C7 1_555 1_555
N8 Ag2_2 1_555 1_555
N9 C11 1_555 1_555
O12 N11 1_555 1_555
N10 Ag1 1_555 1_555
C2 C3 1_555 1_555
N11 O2 1_555 1_555
C3 N1 1_555 1_555
C4 H1 1_555 1_555
H2 C4 1_555 1_555
H3 C4 1_555 1_555
C5 N2 1_555 1_555
H4 C5 1_555 1_555
H5 C5 1_555 1_555
H6 C5 1_555 1_555
C6 H7 1_555 1_555
H8 C6 1_555 1_555
H9 C6 1_555 1_555
C7 N2 1_555 1_555
C8 C10 1_555 1_555
C9 N10 1_555 1_555
C10 N10 1_555 1_555
C12 N1 1_555 1_555
C13 N3 1_555 1_555
C14 C8 1_555 1_555
H10 C14 1_555 1_555
H11 C14 1_555 1_555
H12 C14 1_555 1_555
C15 N9 1_555 1_555
C16 O3 1_555 1_555
C17 N3 1_555 1_555
H13 C17 1_555 1_555
H14 C17 1_555 1_555
H15 C17 1_555 1_555
C18 N4 1_555 1_555
C19 C1 1_555 1_555
H16 C19 1_555 1_555
H17 C19 1_555 1_555
H18 C19 1_555 1_555
C20 N6 1_555 1_555
C21 N7 1_555 1_555
H19 C21 1_555 1_555
H20 C21 1_555 1_555
H21 C21 1_555 1_555
C22 N9 1_555 1_555
H22 C22 1_555 1_555
H23 C22 1_555 1_555
H24 C22 1_555 1_555
Ag1_2 Ag2 1_555 1_555
Ag2_2 Ag1 1_555 1_555
N5_2 Ag2 1_555 1_555
N8_2 Ag2 1_555 1_555
C1 C12 1_555 1_555
O10 N11 1_555 1_555
N5 Ag2_2 1_555 1_555
N7 C16 1_555 1_555
C3 C16 1_555 1_555
C4 C18 1_555 1_555
C6 C20 1_555 1_555
C9 C13 1_555 1_555
C9 C15 1_555 1_555
C10 C18 1_555 1_555
C12 C20 1_555 1_555

#END
