
#######################################################################
#
#                 Cambridge Crystallographic Data Centre
#                                CCDC 
#
#######################################################################
#
# If this CIF has been generated from an entry in the Cambridge 
# Structural Database, then it will include bibliographic, chemical, 
# crystal, experimental, refinement or atomic coordinate data resulting 
# from the CCDC's data processing and validation procedures.
#
#######################################################################

data_XESCAA
_symmetry_cell_setting           triclinic
_symmetry_space_group_name_H-M   'P -1'
_symmetry_Int_Tables_number      2
_space_group_name_Hall           '-P 1'
loop_
_symmetry_equiv_pos_site_id
_symmetry_equiv_pos_as_xyz
1 x,y,z
2 -x,-y,-z
_cell_length_a                   9.10596(26)
_cell_length_b                   9.45710(27)
_cell_length_c                   9.88649(30)
_cell_angle_alpha                97.8481(23)
_cell_angle_beta                 105.8055(22)
_cell_angle_gamma                118.6196(20)
_cell_volume                     682.227
loop_
_atom_site_label
_atom_site_type_symbol
_atom_site_fract_x
_atom_site_fract_y
_atom_site_fract_z
Cd1 Cd 0.00000 0.00000 0.00000
Cd2 Cd 0.20774(35) -0.24203(35) 0.03414(24)
C1 C 0.188590 -0.534120 -0.372040
C2 C 0.140430 -0.525060 -0.253980
N1 N 0.216090 -0.358470 -0.182090
N2 N 0.311010 -0.264560 -0.255720
C3 C 0.294020 -0.373120 -0.373120
H1 H 0.155070 -0.633640 -0.440510
H2 H 0.067960 -0.617260 -0.226960
H3 H 0.376520 -0.146070 -0.230100
H4 H 0.345770 -0.342430 -0.442460
C4 C -0.216180 -0.444182 -0.178111
C5 C -0.373226 -0.499500 -0.310138
O1 O -0.107609 -0.293121 -0.111536
O2 O -0.192616 -0.548701 -0.1336
C6 C 0.238760 0.038850 0.457100
C7 C 0.126070 0.045610 0.339080
N3 N 0.114560 -0.045860 0.213500
N4 N 0.220140 -0.109160 0.253920
C8 C 0.296900 -0.056810 0.404470
H5 H 0.270690 0.090870 0.556980
H6 H 0.066850 0.103110 0.343500
H7 H 0.375850 -0.082150 0.461780
C9 C 0.375810 0.128070 -0.084790
C10 C 0.400300 0.293320 -0.071200
O3 O 0.259410 0.022530 -0.051960
O4 O 0.471590 0.094580 -0.129040
Cd2A Cd -0.20774(35) 0.24203(35) -0.03414(24)
Cd2A_2 Cd -0.20774(35) -0.75797(35) -0.03414(24)
Cd2A_3 Cd 0.79226(35) 0.24203(35) -0.03414(24)
Cd2_2 Cd 0.20774(35) 0.75797(35) 0.03414(24)
Cd2_3 Cd -0.79226(35) -0.24203(35) 0.03414(24)
C1A C -0.188590 0.534120 0.372040
C2A C -0.140430 0.525060 0.253980
N1A N -0.216090 0.358470 0.182090
N2A N -0.311010 0.264560 0.255720
C3A C -0.294020 0.373120 0.373120
H1A H -0.155070 0.633640 0.440510
H2A H -0.067960 0.617260 0.226960
H3A H -0.376520 0.146070 0.230100
H4A H -0.345770 0.342430 0.442460
C4A C 0.216180 0.444182 0.178111
C5A C 0.373226 0.499500 0.310138
O1A O 0.107609 0.293121 0.111536
O2A O 0.192616 0.548701 0.1336
O2A_2 O 0.192616 -0.451299 0.1336
O2_2 O -0.192616 0.451299 -0.1336
C6A C -0.238760 -0.038850 -0.457100
C7A C -0.126070 -0.045610 -0.339080
N3A N -0.114560 0.045860 -0.213500
N4A N -0.220140 0.109160 -0.253920
C8A C -0.296900 0.056810 -0.404470
H5A H -0.270690 -0.090870 -0.556980
H6A H -0.066850 -0.103110 -0.343500
H7A H -0.375850 0.082150 -0.461780
C9A C -0.375810 -0.128070 0.084790
C10A C -0.400300 -0.293320 0.071200
O3A O -0.259410 -0.022530 0.051960
O4A O -0.471590 -0.094580 0.129040
O4A_2 O 0.528410 -0.094580 0.129040
O4_2 O -0.528410 0.094580 -0.129040
loop_
_geom_bond_atom_site_label_1
_geom_bond_atom_site_label_2
_geom_bond_site_symmetry_1
_geom_bond_site_symmetry_2
Cd1 O1 1_555 1_555
Cd2 N1 1_555 1_555
C1 C2 1_555 1_555
C2 N1 1_555 1_555
N1 N2 1_555 1_555
N2 C3 1_555 1_555
C3 C1 1_555 1_555
H1 C1 1_555 1_555
H2 C2 1_555 1_555
H3 N2 1_555 1_555
H4 C3 1_555 1_555
C4 C5 1_555 1_555
O1 Cd2 1_555 1_555
O2 C4 1_555 1_555
C6 C7 1_555 1_555
C7 N3 1_555 1_555
N3 Cd1 1_555 1_555
N4 Cd2 1_555 1_555
C8 C6 1_555 1_555
H5 C6 1_555 1_555
H6 C7 1_555 1_555
H7 C8 1_555 1_555
C9 C10 1_555 1_555
O3 Cd1 1_555 1_555
O4 C9 1_555 1_555
Cd2A N1A 1_555 1_555
Cd2A_2 O2 1_555 1_555
Cd2A_3 O4 1_555 1_555
Cd2_2 O2A 1_555 1_555
Cd2_3 O4A 1_555 1_555
C1A C2A 1_555 1_555
C2A N1A 1_555 1_555
N1A N2A 1_555 1_555
N2A C3A 1_555 1_555
C3A C1A 1_555 1_555
H1A C1A 1_555 1_555
H2A C2A 1_555 1_555
H3A N2A 1_555 1_555
H4A C3A 1_555 1_555
C4A C5A 1_555 1_555
O1A Cd1 1_555 1_555
O2A C4A 1_555 1_555
O2A_2 Cd2 1_555 1_555
O2_2 Cd2A 1_555 1_555
C6A C7A 1_555 1_555
C7A N3A 1_555 1_555
N3A Cd1 1_555 1_555
N4A Cd2A 1_555 1_555
C8A C6A 1_555 1_555
H5A C6A 1_555 1_555
H6A C7A 1_555 1_555
H7A C8A 1_555 1_555
C9A C10A 1_555 1_555
O3A Cd1 1_555 1_555
O4A C9A 1_555 1_555
O4A_2 Cd2 1_555 1_555
O4_2 Cd2A 1_555 1_555
Cd2 O3 1_555 1_555
C4 O1 1_555 1_555
N3 N4 1_555 1_555
N4 C8 1_555 1_555
C9 O3 1_555 1_555
Cd2A O1A 1_555 1_555
Cd2A O3A 1_555 1_555
C4A O1A 1_555 1_555
N3A N4A 1_555 1_555
N4A C8A 1_555 1_555
C9A O3A 1_555 1_555

#END
