
#######################################################################
#
#                 Cambridge Crystallographic Data Centre
#                                CCDC 
#
#######################################################################
#
# If this CIF has been generated from an entry in the Cambridge 
# Structural Database, then it will include bibliographic, chemical, 
# crystal, experimental, refinement or atomic coordinate data resulting 
# from the CCDC's data processing and validation procedures.
#
#######################################################################

data_XESJIO
_symmetry_cell_setting           monoclinic
_symmetry_space_group_name_H-M   'P 21/n'
_symmetry_Int_Tables_number      14
_space_group_name_Hall           '-P 2yn'
loop_
_symmetry_equiv_pos_site_id
_symmetry_equiv_pos_as_xyz
1 x,y,z
2 1/2+x,1/2-y,1/2+z
3 -x,-y,-z
4 1/2-x,1/2+y,1/2-z
_cell_length_a                   6.981(5)
_cell_length_b                   19.029(7)
_cell_length_c                   12.222(7)
_cell_angle_alpha                90
_cell_angle_beta                 97.70(6)
_cell_angle_gamma                90
_cell_volume                     1608.95
loop_
_atom_site_label
_atom_site_type_symbol
_atom_site_fract_x
_atom_site_fract_y
_atom_site_fract_z
Zn1 Zn 0.19490(15) -0.19974(5) -0.61742(9)
N1 N 0.0569(9) -0.1439(3) -0.5089(5)
C1 C 0.1447(12) -0.0873(5) -0.4583(7)
H1 H 0.2614 -0.0710 -0.4816
C2 C 0.0728(13) -0.0524(5) -0.3751(8)
H2 H 0.1386 -0.0124 -0.3421
C3 C -0.0952(12) -0.0752(4) -0.3393(7)
C4 C -0.1883(15) -0.1336(5) -0.3919(8)
H3 H -0.3051 -0.1509 -0.3701
C5 C -0.1080(14) -0.1648(5) -0.4747(8)
H4 H -0.1730 -0.2041 -0.5105
C6 C -0.1738(14) -0.0394(5) -0.2452(8)
N2 N -0.0718(11) 0.0127(4) -0.1964(6)
C7 C -0.1472(13) 0.0428(4) -0.1130(7)
N3 N -0.3123(11) 0.0245(4) -0.0782(6)
C8 C -0.3999(15) -0.0294(5) -0.1333(9)
H5 H -0.5180 -0.0449 -0.1108
N4 N -0.3389(12) -0.0638(4) -0.2167(7)
C9 C -0.0334(13) 0.1017(4) -0.0555(7)
C10 C 0.1413(13) 0.1232(4) -0.0836(8)
H6 H 0.1969 0.0988 -0.1394
C11 C 0.2348(12) 0.1789(4) -0.0324(7)
H7 H 0.3545 0.1931 -0.0543
N5 N 0.1645(10) 0.2153(3) 0.0487(6)
C12 C -0.0040(13) 0.1940(5) 0.0783(7)
H8 H -0.0548 0.2189 0.1354
C13 C -0.1072(13) 0.1379(5) 0.0303(8)
H9 H -0.2253 0.1239 0.0544
N6 N 0.5039(12) -0.1285(4) -0.7024(7)
O1 O 0.3809(11) -0.1218(3) -0.6353(6)
O2 O 0.4991(12) -0.1818(4) -0.7590(7)
O3 O 0.6222(12) -0.0807(4) -0.7064(7)
N7 N -0.0614(11) -0.2740(4) -0.7460(6)
O4 O 0.0778(10) -0.2325(4) -0.7664(5)
O5 O -0.0856(9) -0.2801(4) -0.6483(5)
O6 O -0.1559(11) -0.3048(4) -0.8211(6)
N5C N 0.3355(10) -0.2847(3) -0.5487(6)
Zn1C Zn 0.30510(15) 0.30026(5) 0.11742(9)
loop_
_geom_bond_atom_site_label_1
_geom_bond_atom_site_label_2
_geom_bond_site_symmetry_1
_geom_bond_site_symmetry_2
Zn1 N1 1_555 1_555
N1 C1 1_555 1_555
C1 H1 1_555 1_555
C2 C1 1_555 1_555
H2 C2 1_555 1_555
C3 C2 1_555 1_555
C4 C3 1_555 1_555
H3 C4 1_555 1_555
C5 N1 1_555 1_555
H4 C5 1_555 1_555
C6 C3 1_555 1_555
N2 C6 1_555 1_555
C7 N2 1_555 1_555
N3 C7 1_555 1_555
C8 N3 1_555 1_555
H5 C8 1_555 1_555
N4 C6 1_555 1_555
C9 C7 1_555 1_555
C10 C9 1_555 1_555
H6 C10 1_555 1_555
C11 C10 1_555 1_555
H7 C11 1_555 1_555
N5 C11 1_555 1_555
C12 N5 1_555 1_555
H8 C12 1_555 1_555
C13 C9 1_555 1_555
H9 C13 1_555 1_555
N6 O1 1_555 1_555
O1 Zn1 1_555 1_555
O2 N6 1_555 1_555
O3 N6 1_555 1_555
N7 O4 1_555 1_555
O4 Zn1 1_555 1_555
O5 Zn1 1_555 1_555
O6 N7 1_555 1_555
N5C Zn1 1_555 1_555
Zn1C N5 1_555 1_555
C4 C5 1_555 1_555
C8 N4 1_555 1_555
C12 C13 1_555 1_555
N7 O5 1_555 1_555

#END
