
#######################################################################
#
#                 Cambridge Crystallographic Data Centre
#                                CCDC 
#
#######################################################################
#
# If this CIF has been generated from an entry in the Cambridge 
# Structural Database, then it will include bibliographic, chemical, 
# crystal, experimental, refinement or atomic coordinate data resulting 
# from the CCDC's data processing and validation procedures.
#
#######################################################################

data_XESJAG
_symmetry_cell_setting           triclinic
_symmetry_space_group_name_H-M   'P -1'
_symmetry_Int_Tables_number      2
_space_group_name_Hall           '-P 1'
loop_
_symmetry_equiv_pos_site_id
_symmetry_equiv_pos_as_xyz
1 x,y,z
2 -x,-y,-z
_cell_length_a                   8.9014(10)
_cell_length_b                   10.3249(12)
_cell_length_c                   10.4451(12)
_cell_angle_alpha                77.397(2)
_cell_angle_beta                 86.866(2)
_cell_angle_gamma                86.988(2)
_cell_volume                     934.624
loop_
_atom_site_label
_atom_site_type_symbol
_atom_site_fract_x
_atom_site_fract_y
_atom_site_fract_z
Cd1 Cd 0.11830(2) -0.328120(18) 0.174110(18)
N1 N 0.3210(3) -0.5204(2) 0.3032(2)
O1 O 0.2933(2) -0.51252(18) 0.18399(19)
O2 O 0.2528(2) -0.43771(19) 0.3611(2)
O3 O 0.4107(3) -0.6049(2) 0.3596(2)
N2 N -0.0400(3) -0.2501(2) -0.0651(2)
O4 O 0.0435(2) -0.35542(18) -0.04370(19)
O5 O -0.0484(2) -0.18231(17) 0.02204(18)
O6 O -0.1090(3) -0.2153(2) -0.1657(2)
N3 N 1.0098(2) -0.2007(2) -0.6881(2)
C1 C 0.9642(3) -0.2572(3) -0.5643(2)
H1 H 0.9975 -0.3460 -0.5287
C2 C 0.8714(3) -0.1916(2) -0.4869(2)
H2 H 0.8400 -0.2349 -0.4005
C3 C 0.8245(3) -0.0606(2) -0.5379(2)
C4 C 0.8775(3) 0.0008(2) -0.6628(2)
H3 H 0.8531 0.0918 -0.6980
C5 C 0.9669(3) -0.0739(2) -0.7346(2)
H4 H 0.9996 -0.0330 -0.8214
C6 C 0.7180(3) 0.0129(2) -0.4625(2)
N4 N 0.6469(2) -0.0586(2) -0.3564(2)
C7 C 0.5498(3) 0.0111(2) -0.2932(2)
N5 N 0.5207(3) 0.1418(2) -0.3283(2)
C8 C 0.5973(3) 0.2022(2) -0.4359(3)
H5 H 0.5794 0.2954 -0.4641
N6 N 0.6970(2) 0.1438(2) -0.5077(2)
C9 C 0.4666(3) -0.0641(2) -0.1758(2)
C10 C 0.3660(3) 0.0015(2) -0.1025(2)
H6 H 0.3516 0.0954 -0.1252
C11 C 0.2872(3) -0.0727(2) 0.0040(2)
H7 H 0.2202 -0.0272 0.0547
N7 N 0.3007(2) -0.2052(2) 0.0392(2)
C12 C 0.4002(3) -0.2674(3) -0.0312(3)
H8 H 0.4130 -0.3613 -0.0062
C13 C 0.4842(3) -0.2010(3) -0.1379(3)
H9 H 0.5535 -0.2486 -0.1849
O7 O -0.0438(2) -0.50167(19) 0.2438(2)
C14 C -0.2012(3) -0.5021(3) 0.2834(3)
H10 H -0.2153 -0.4707 0.3664
H11 H -0.2355 -0.5942 0.3001
C15 C -0.2951(4) -0.4159(4) 0.1818(4)
H12 H -0.2611 -0.3247 0.1646
H13 H -0.4008 -0.4173 0.2135
H14 H -0.2850 -0.4491 0.1006
H15 H -0.030(5) -0.548(4) 0.190(4)
Cd1_2 Cd 1.11830(2) -0.328120(18) -0.825890(18)
N3_2 N 0.0098(2) -0.2007(2) 0.3119(2)
loop_
_geom_bond_atom_site_label_1
_geom_bond_atom_site_label_2
_geom_bond_site_symmetry_1
_geom_bond_site_symmetry_2
Cd1 O1 1_555 1_555
N1 O1 1_555 1_555
O2 Cd1 1_555 1_555
O3 N1 1_555 1_555
N2 O4 1_555 1_555
O4 Cd1 1_555 1_555
O5 Cd1 1_555 1_555
O6 N2 1_555 1_555
N3 C1 1_555 1_555
C1 H1 1_555 1_555
C2 C1 1_555 1_555
H2 C2 1_555 1_555
C3 C2 1_555 1_555
C4 C3 1_555 1_555
H3 C4 1_555 1_555
C5 N3 1_555 1_555
H4 C5 1_555 1_555
C6 C3 1_555 1_555
N4 C6 1_555 1_555
C7 N4 1_555 1_555
N5 C7 1_555 1_555
C8 N5 1_555 1_555
H5 C8 1_555 1_555
N6 C6 1_555 1_555
C9 C7 1_555 1_555
C10 C9 1_555 1_555
H6 C10 1_555 1_555
C11 C10 1_555 1_555
H7 C11 1_555 1_555
N7 Cd1 1_555 1_555
C12 N7 1_555 1_555
H8 C12 1_555 1_555
C13 C9 1_555 1_555
H9 C13 1_555 1_555
O7 Cd1 1_555 1_555
C14 O7 1_555 1_555
H10 C14 1_555 1_555
H11 C14 1_555 1_555
C15 C14 1_555 1_555
H12 C15 1_555 1_555
H13 C15 1_555 1_555
H14 C15 1_555 1_555
H15 O7 1_555 1_555
Cd1_2 N3 1_555 1_555
N3_2 Cd1 1_555 1_555
N1 O2 1_555 1_555
N2 O5 1_555 1_555
C4 C5 1_555 1_555
C8 N6 1_555 1_555
C11 N7 1_555 1_555
C12 C13 1_555 1_555

#END
