
#######################################################################
#
#                 Cambridge Crystallographic Data Centre
#                                CCDC 
#
#######################################################################
#
# If this CIF has been generated from an entry in the Cambridge 
# Structural Database, then it will include bibliographic, chemical, 
# crystal, experimental, refinement or atomic coordinate data resulting 
# from the CCDC's data processing and validation procedures.
#
#######################################################################

data_XESJIP
_symmetry_cell_setting           monoclinic
_symmetry_space_group_name_H-M   'C 2/c'
_symmetry_Int_Tables_number      15
_space_group_name_Hall           '-C 2yn'
loop_
_symmetry_equiv_pos_site_id
_symmetry_equiv_pos_as_xyz
1 x,y,z
2 1/2+x,1/2+y,z
3 -x,y,1/2-z
4 1/2-x,1/2+y,1/2-z
5 -x,-y,-z
6 1/2-x,1/2-y,-z
7 x,-y,1/2+z
8 1/2+x,1/2-y,1/2+z
_cell_length_a                   29.611(7)
_cell_length_b                   5.3069(13)
_cell_length_c                   9.844(2)
_cell_angle_alpha                90
_cell_angle_beta                 107.265(4)
_cell_angle_gamma                90
_cell_volume                     1477.21
loop_
_atom_site_label
_atom_site_type_symbol
_atom_site_fract_x
_atom_site_fract_y
_atom_site_fract_z
Mn1 Mn 0.54417(2) -0.11331(10) -0.05229(6)
P1 P 0.56656(3) 0.37654(18) 0.16408(10)
N1 N 0.61607(11) 0.0922(5) 0.0313(3)
O1 O 0.52856(8) 0.2131(4) 0.0649(3)
O2 O 0.56119(8) 0.6555(4) 0.1332(3)
O3 O 0.57408(9) 0.3233(4) 0.3198(3)
O4 O 0.5000 0.1095(7) -0.2500
H1 H 0.4835(14) 0.203(6) -0.213(4)
C1 C 0.62033(13) 0.2854(6) 0.1220(4)
C2 C 0.66282(14) 0.4063(8) 0.1800(4)
H2 H 0.6649 0.5393 0.2431
C3 C 0.70236(15) 0.3296(8) 0.1443(5)
H3 H 0.7312 0.4107 0.1820
C4 C 0.69818(15) 0.1309(8) 0.0519(5)
H4 H 0.7242 0.0732 0.0266
C5 C 0.65454(15) 0.0190(7) -0.0025(5)
H5 H 0.6517 -0.1142 -0.0660
Mn1D Mn 0.45583(2) 0.11331(10) 0.05229(6)
Mn1_2 Mn 0.54417(2) 0.88669(10) -0.05229(6)
Mn1F Mn 0.54417(2) 0.11331(10) 0.44771(6)
Mn1B Mn 0.45583(2) -0.11331(10) -0.44771(6)
Mn1D_2 Mn 0.45583(2) -0.88669(10) 0.05229(6)
P1D P 0.43344(3) -0.37654(18) -0.16408(10)
N1D N 0.38393(11) -0.0922(5) -0.0313(3)
O1D O 0.47144(8) -0.2131(4) -0.0649(3)
O2D O 0.43881(8) -0.6555(4) -0.1332(3)
O2_2 O 0.56119(8) -0.3445(4) 0.1332(3)
O2D_2 O 0.43881(8) 0.3445(4) -0.1332(3)
O3D O 0.42592(9) -0.3233(4) -0.3198(3)
O3F O 0.57408(9) -0.3233(4) -0.1802(3)
O3B O 0.42592(9) 0.3233(4) 0.1802(3)
O4F O 0.5000 -0.1095(7) 0.2500
H1B H 0.5165(14) 0.203(6) -0.287(4)
H1F H 0.4835(14) -0.203(6) 0.287(4)
H1D H 0.5165(14) -0.203(6) 0.213(4)
C1D C 0.37967(13) -0.2854(6) -0.1220(4)
C2D C 0.33718(14) -0.4063(8) -0.1800(4)
H2D H 0.3351 -0.5393 -0.2431
C3D C 0.29764(15) -0.3296(8) -0.1443(5)
H3D H 0.2688 -0.4107 -0.1820
C4D C 0.30182(15) -0.1309(8) -0.0519(5)
H4D H 0.2758 -0.0732 -0.0266
C5D C 0.34546(15) -0.0190(7) 0.0025(5)
H5D H 0.3483 0.1142 0.0660
loop_
_geom_bond_atom_site_label_1
_geom_bond_atom_site_label_2
_geom_bond_site_symmetry_1
_geom_bond_site_symmetry_2
Mn1 N1 1_555 1_555
P1 O1 1_555 1_555
N1 C1 1_555 1_555
O1 Mn1 1_555 1_555
O2 P1 1_555 1_555
O3 P1 1_555 1_555
O4 Mn1 1_555 1_555
H1 O4 1_555 1_555
C1 P1 1_555 1_555
C2 C1 1_555 1_555
H2 C2 1_555 1_555
C3 C2 1_555 1_555
H3 C3 1_555 1_555
C4 C3 1_555 1_555
H4 C4 1_555 1_555
C5 N1 1_555 1_555
H5 C5 1_555 1_555
Mn1D O1 1_555 1_555
Mn1_2 O2 1_555 1_555
Mn1F O3 1_555 1_555
Mn1B O4 1_555 1_555
Mn1D_2 O2D 1_555 1_555
P1D O1D 1_555 1_555
N1D Mn1D 1_555 1_555
O1D Mn1 1_555 1_555
O2D P1D 1_555 1_555
O2_2 Mn1 1_555 1_555
O2D_2 Mn1D 1_555 1_555
O3D Mn1B 1_555 1_555
O3F Mn1 1_555 1_555
O3B Mn1D 1_555 1_555
O4F Mn1D 1_555 1_555
H1B O4 1_555 1_555
H1F O4F 1_555 1_555
H1D O4F 1_555 1_555
C1D P1D 1_555 1_555
C2D C1D 1_555 1_555
H2D C2D 1_555 1_555
C3D C2D 1_555 1_555
H3D C3D 1_555 1_555
C4D C3D 1_555 1_555
H4D C4D 1_555 1_555
C5D N1D 1_555 1_555
H5D C5D 1_555 1_555
C4 C5 1_555 1_555
Mn1D O1D 1_555 1_555
Mn1F O4F 1_555 1_555
P1D O3D 1_555 1_555
N1D C1D 1_555 1_555
C4D C5D 1_555 1_555

#END
