
#######################################################################
#
#                 Cambridge Crystallographic Data Centre
#                                CCDC 
#
#######################################################################
#
# If this CIF has been generated from an entry in the Cambridge 
# Structural Database, then it will include bibliographic, chemical, 
# crystal, experimental, refinement or atomic coordinate data resulting 
# from the CCDC's data processing and validation procedures.
#
#######################################################################

data_XESKIR
_symmetry_cell_setting           rhombohedral
_symmetry_space_group_name_H-M   'R -3'
_symmetry_Int_Tables_number      148
_space_group_name_Hall           '-R 3'
loop_
_symmetry_equiv_pos_site_id
_symmetry_equiv_pos_as_xyz
1 x,y,z
2 -y,x-y,z
3 -x+y,-x,z
4 1/3+x,2/3+y,2/3+z
5 1/3-y,2/3+x-y,2/3+z
6 1/3-x+y,2/3-x,2/3+z
7 2/3+x,1/3+y,1/3+z
8 2/3-y,1/3+x-y,1/3+z
9 2/3-x+y,1/3-x,1/3+z
10 -x,-y,-z
11 y,-x+y,-z
12 x-y,x,-z
13 2/3-x,1/3-y,1/3-z
14 2/3+y,1/3-x+y,1/3-z
15 2/3+x-y,1/3+x,1/3-z
16 1/3-x,2/3-y,2/3-z
17 1/3+y,2/3-x+y,2/3-z
18 1/3+x-y,2/3+x,2/3-z
_cell_length_a                   28.5814(10)
_cell_length_b                   28.5814(10)
_cell_length_c                   6.4264(4)
_cell_angle_alpha                90
_cell_angle_beta                 90
_cell_angle_gamma                120
_cell_volume                     4546.38
loop_
_atom_site_label
_atom_site_type_symbol
_atom_site_fract_x
_atom_site_fract_y
_atom_site_fract_z
Mn1 Mn 0.30424(19) 0.03005(18) -0.2523(10)
P1 P 0.42130(5) 0.03487(5) -0.39633(22)
O1 O 0.46901(13) 0.08703(10) -0.4663(8)
O2 O 0.38994(8) 0.04880(10) -0.2461(4)
O3 O 0.38431(12) 0.00734(25) -0.57688(32)
O4 O 0.2222(5) 0.0036(6) -0.182(4)
N1 N 0.44672(6) -0.00669(5) -0.01566(21)
C1 C 0.44562(8) -0.00467(7) -0.25042(21)
C2 C 0.45550(5) -0.05243(5) 0.0604(4)
C3 C 0.49519(6) 0.04658(7) 0.0562(4)
Mn1I Mn 0.69576(19) -0.03005(18) 0.2523(10)
Mn1D Mn 0.30328(18) -0.05914(26) -0.5856(10)
Mn1M Mn 0.69672(18) 0.05914(26) 0.5856(10)
Mn1H Mn 0.39248(26) 0.02909(19) -0.9190(10)
Mn1H_2 Mn 0.39248(26) 0.02909(19) 0.0810(10)
Mn1Q Mn 0.60752(26) -0.02909(19) -0.0810(10)
Mn1Q_2 Mn 0.60752(26) -0.02909(19) 0.9190(10)
P1I P 0.57870(5) -0.03487(5) 0.39633(22)
O1I O 0.53099(13) -0.08703(10) 0.4663(8)
O2I O 0.61006(8) -0.04880(10) 0.2461(4)
O2D O 0.28453(10) 0.00781(13) -0.5794(4)
O2M O 0.71547(10) -0.00781(13) 0.5794(4)
O3I O 0.61569(12) -0.00734(25) 0.57688(32)
O3D O 0.32599(25) 0.04364(28) 0.08979(32)
O3M O 0.67401(25) -0.04364(28) -0.08979(32)
O3H O 0.28970(28) -0.05098(12) -0.24355(32)
O3Q O 0.71030(28) 0.05098(12) 0.24355(32)
O4I O 0.7778(5) -0.0036(6) 0.182(4)
N1I N 0.55328(6) 0.00669(5) 0.01566(21)
N1D N 0.34002(5) 0.12008(8) -0.34899(21)
N1M N 0.65998(5) -0.12008(8) 0.34899(21)
C1I C 0.55438(8) 0.00467(7) 0.25042(21)
C2I C 0.54450(5) 0.05243(5) -0.0604(4)
C3I C 0.50481(6) -0.04658(7) -0.0562(4)
O5 O 0.4194(7) -0.1474(5) -0.532(4)
O6 O 0.3522(7) -0.1838(4) -0.939(5)
O7 O 0.6064(11) 0.2417(7) 0.3572(18)
O8 O 0.35547(22) -0.27317(28) 0.0157(16)
loop_
_geom_bond_atom_site_label_1
_geom_bond_atom_site_label_2
_geom_bond_site_symmetry_1
_geom_bond_site_symmetry_2
Mn1 O2 1_555 1_555
P1 O1 1_555 1_555
O2 P1 1_555 1_555
O3 P1 1_555 1_555
O4 Mn1 1_555 1_555
N1 C1 1_555 1_555
C1 P1 1_555 1_555
C2 N1 1_555 1_555
C3 N1 1_555 1_555
Mn1I O2I 1_555 1_555
Mn1D O3 1_555 1_555
Mn1M O2M 1_555 1_555
Mn1H O3 1_555 1_555
Mn1H_2 O2 1_555 1_555
Mn1Q O2I 1_555 1_555
Mn1Q_2 O3I 1_555 1_555
P1I O1I 1_555 1_555
O2I P1I 1_555 1_555
O2D Mn1 1_555 1_555
O2M Mn1I 1_555 1_555
O3I Mn1M 1_555 1_555
O3D Mn1 1_555 1_555
O3M Mn1I 1_555 1_555
O3H Mn1 1_555 1_555
O3Q Mn1I 1_555 1_555
O4I Mn1I 1_555 1_555
N1I Mn1Q 1_555 1_555
N1D Mn1 1_555 1_555
N1M Mn1I 1_555 1_555
C1I P1I 1_555 1_555
C2I C3 1_555 1_555
C3I C2 1_555 1_555
N1 Mn1H_2 1_555 1_555
Mn1D O2D 1_555 1_555
Mn1D O3H 1_555 1_555
Mn1M O3Q 1_555 1_555
Mn1H_2 O3D 1_555 1_555
Mn1Q O3M 1_555 1_555
P1I O3I 1_555 1_555
N1I C1I 1_555 1_555
N1I C2I 1_555 1_555
N1I C3I 1_555 1_555

#END
