
#######################################################################
#
#                 Cambridge Crystallographic Data Centre
#                                CCDC 
#
#######################################################################
#
# If this CIF has been generated from an entry in the Cambridge 
# Structural Database, then it will include bibliographic, chemical, 
# crystal, experimental, refinement or atomic coordinate data resulting 
# from the CCDC's data processing and validation procedures.
#
#######################################################################

data_XESKUD
_symmetry_cell_setting           rhombohedral
_symmetry_space_group_name_H-M   'R -3'
_symmetry_Int_Tables_number      148
_space_group_name_Hall           '-R 3'
loop_
_symmetry_equiv_pos_site_id
_symmetry_equiv_pos_as_xyz
1 x,y,z
2 -y,x-y,z
3 -x+y,-x,z
4 1/3+x,2/3+y,2/3+z
5 1/3-y,2/3+x-y,2/3+z
6 1/3-x+y,2/3-x,2/3+z
7 2/3+x,1/3+y,1/3+z
8 2/3-y,1/3+x-y,1/3+z
9 2/3-x+y,1/3-x,1/3+z
10 -x,-y,-z
11 y,-x+y,-z
12 x-y,x,-z
13 2/3-x,1/3-y,1/3-z
14 2/3+y,1/3-x+y,1/3-z
15 2/3+x-y,1/3+x,1/3-z
16 1/3-x,2/3-y,2/3-z
17 1/3+y,2/3-x+y,2/3-z
18 1/3+x-y,2/3+x,2/3-z
_cell_length_a                   28.0103(21)
_cell_length_b                   28.0103(21)
_cell_length_c                   6.4044(5)
_cell_angle_alpha                90
_cell_angle_beta                 90
_cell_angle_gamma                120
_cell_volume                     4351.56
loop_
_atom_site_label
_atom_site_type_symbol
_atom_site_fract_x
_atom_site_fract_y
_atom_site_fract_z
Fe1 Fe 0.3022(5) 0.0278(4) -0.2887(16)
P1 P 0.42628(27) 0.04033(28) -0.4214(13)
O1 O 0.4774(4) 0.0910(5) -0.4821(28)
O2 O 0.3916(5) 0.0561(6) -0.2836(18)
O3 O 0.3890(5) 0.0118(5) -0.6037(18)
O4 O 0.2095(8) -0.0092(9) -0.214(4)
N1 N 0.46191(15) 0.01835(19) -0.0630(8)
C1 C 0.44516(35) -0.00542(25) -0.2798(8)
C2 C 0.52392(17) 0.05833(11) -0.0456(16)
C3 C 0.44649(17) -0.02662(21) 0.1014(9)
Fe1I Fe 0.6978(5) -0.0278(4) 0.2887(16)
Fe1H Fe 0.3923(6) 0.0311(5) 0.0446(16)
Fe1H_2 Fe 0.3923(6) 0.0311(5) -0.9554(16)
Fe1D Fe 0.3055(4) -0.0589(6) -0.6220(16)
Fe1Q Fe 0.6077(6) -0.0311(5) -0.0446(16)
Fe1Q_2 Fe 0.6077(6) -0.0311(5) 0.9554(16)
Fe1M Fe 0.6945(4) 0.0589(6) 0.6220(16)
P1I P 0.57372(27) -0.04033(28) 0.4214(13)
O1I O 0.5226(4) -0.0910(5) 0.4821(28)
O2I O 0.6084(5) -0.0561(6) 0.2836(18)
O2D O 0.2772(6) 0.0022(8) -0.6169(18)
O2M O 0.7228(6) -0.0022(8) 0.6169(18)
O3I O 0.6110(5) -0.0118(5) 0.6037(18)
O3D O 0.3215(5) 0.0439(7) 0.0630(18)
O3H O 0.2895(7) -0.0557(5) -0.2704(18)
O3M O 0.6785(5) -0.0439(7) -0.0630(18)
O3Q O 0.7105(7) 0.0557(5) 0.2704(18)
O4I O 0.7905(8) 0.0092(9) 0.214(4)
N1I N 0.53809(15) -0.01835(19) 0.0630(8)
N1D N 0.31498(19) 0.11023(24) -0.3963(8)
N1M N 0.68502(19) -0.11023(24) 0.3963(8)
C1I C 0.55484(35) 0.00542(25) 0.2798(8)
C2I C 0.47608(17) -0.05833(11) 0.0456(16)
C3I C 0.55351(17) 0.02662(21) -0.1014(9)
O5 O 0.4234(15) -0.1478(15) -0.484(5)
O6 O 0.36573(28) -0.2739(4) -0.1659(12)
O7 O 0.4171(19) -0.2110(14) -0.844(5)
loop_
_geom_bond_atom_site_label_1
_geom_bond_atom_site_label_2
_geom_bond_site_symmetry_1
_geom_bond_site_symmetry_2
Fe1 O2 1_555 1_555
P1 O1 1_555 1_555
O2 P1 1_555 1_555
O3 P1 1_555 1_555
O4 Fe1 1_555 1_555
N1 C1 1_555 1_555
C1 P1 1_555 1_555
C2 N1 1_555 1_555
C3 N1 1_555 1_555
Fe1I O2I 1_555 1_555
Fe1H O2 1_555 1_555
Fe1H_2 O3 1_555 1_555
Fe1D O3 1_555 1_555
Fe1Q O2I 1_555 1_555
Fe1Q_2 O3I 1_555 1_555
Fe1M O2M 1_555 1_555
P1I O1I 1_555 1_555
O2I P1I 1_555 1_555
O2D Fe1 1_555 1_555
O2M Fe1I 1_555 1_555
O3I Fe1M 1_555 1_555
O3D Fe1 1_555 1_555
O3H Fe1 1_555 1_555
O3M Fe1I 1_555 1_555
O3Q Fe1I 1_555 1_555
O4I Fe1I 1_555 1_555
N1I Fe1Q 1_555 1_555
N1D Fe1 1_555 1_555
N1M Fe1I 1_555 1_555
C1I P1I 1_555 1_555
C2I C3 1_555 1_555
C3I C2 1_555 1_555
N1 Fe1H 1_555 1_555
Fe1H O3D 1_555 1_555
Fe1D O2D 1_555 1_555
Fe1D O3H 1_555 1_555
Fe1Q O3M 1_555 1_555
Fe1M O3Q 1_555 1_555
P1I O3I 1_555 1_555
N1I C1I 1_555 1_555
N1I C2I 1_555 1_555
N1I C3I 1_555 1_555

#END
