
#######################################################################
#
#                 Cambridge Crystallographic Data Centre
#                                CCDC 
#
#######################################################################
#
# If this CIF has been generated from an entry in the Cambridge 
# Structural Database, then it will include bibliographic, chemical, 
# crystal, experimental, refinement or atomic coordinate data resulting 
# from the CCDC's data processing and validation procedures.
#
#######################################################################

data_XETNAL
_symmetry_cell_setting           orthorhombic
_symmetry_space_group_name_H-M   'P c a 21'
_symmetry_Int_Tables_number      29
_space_group_name_Hall           'P 2c -2ac'
loop_
_symmetry_equiv_pos_site_id
_symmetry_equiv_pos_as_xyz
1 x,y,z
2 -x,-y,1/2+z
3 1/2+x,-y,z
4 1/2-x,y,1/2+z
_cell_length_a                   13.5778(4)
_cell_length_b                   9.41490(10)
_cell_length_c                   17.8842(4)
_cell_angle_alpha                90
_cell_angle_beta                 90
_cell_angle_gamma                90
_cell_volume                     2286.2
loop_
_atom_site_label
_atom_site_type_symbol
_atom_site_fract_x
_atom_site_fract_y
_atom_site_fract_z
Cu1 Cu 0.53267(4) 0.49637(6) 0.74451(3)
Cu2 Cu 0.77397(4) 0.97581(5) 0.49735(3)
O1 O 0.5095(2) 0.3308(3) 0.8072(2)
H1 H 0.4688(2) 0.2824(3) 0.7976(2)
H2 H 0.5033(2) 0.3292(3) 0.8519(2)
O2 O 0.5604(2) 0.6522(4) 0.8427(2)
H3 H 0.5744(2) 0.7255(4) 0.8323(2)
H4 H 0.5858(2) 0.6135(4) 0.8710(2)
O3 O 0.7494(2) 0.8232(3) 0.4220(2)
H5 H 0.7410(2) 0.7325(3) 0.4370(2)
H6 H 0.7175(2) 0.8466(3) 0.3799(2)
O4 O 0.6731(2) 1.1004(3) 0.4561(2)
H7 H 0.6833(2) 1.1742(3) 0.4531(2)
H8 H 0.6627(2) 1.0769(3) 0.4128(2)
O5 O 0.8063(2) 1.1203(3) 0.5756(2)
H9 H 0.7980(2) 1.1069(3) 0.6247(2)
H10 H 0.7811(2) 1.1854(3) 0.5744(2)
O6 O 0.9032(2) 1.0545(3) 0.4301(2)
H11 H 0.9360(2) 1.1228(3) 0.4362(2)
H12 H 0.9034(2) 1.0313(3) 0.3879(2)
N1 N 0.5731(3) 0.6558(4) 0.6741(2)
N2 N 0.6805(3) 0.4580(3) 0.7444(2)
N3 N 0.8857(2) 0.4635(3) 0.7385(2)
N4 N 0.9765(3) 0.6429(4) 0.6373(2)
N5 N 0.8628(3) 0.8340(4) 0.5530(2)
N6 N 0.6620(3) 0.8565(4) 0.5804(2)
C1 C 0.5203(3) 0.7492(5) 0.6368(3)
H17 H 0.4506(3) 0.7481(5) 0.6413(3)
C2 C 0.5659(3) 0.8513(5) 0.5901(3)
H18 H 0.5257(3) 0.9185(5) 0.5648(3)
C3 C 0.7160(3) 0.7592(5) 0.6181(3)
C4 C 0.6714(3) 0.6616(4) 0.6657(2)
C5 C 0.7296(3) 0.5569(4) 0.7044(2)
C6 C 0.7341(3) 0.3595(4) 0.7787(2)
H19 H 0.7024(3) 0.2834(4) 0.8039(2)
C7 C 0.8374(3) 0.3672(5) 0.7780(2)
H20 H 0.8739(3) 0.3009(5) 0.8069(2)
C8 C 0.8310(3) 0.5584(4) 0.6985(2)
C9 C 0.8790(3) 0.6549(4) 0.6470(2)
C10 C 0.8208(3) 0.7516(4) 0.6067(2)
C11 C 0.9580(3) 0.8171(5) 0.5406(2)
H21 H 0.9887(3) 0.8699(5) 0.5018(2)
C12 C 1.0154(3) 0.7221(5) 0.5838(3)
H22 H 1.0840(3) 0.7149(5) 0.5741(3)
N3B N 0.3857(2) 0.5365(3) 0.7385(2)
N4B N 0.4765(3) 0.3571(4) 0.6373(2)
Cu1B Cu 1.03267(4) 0.50363(6) 0.74451(3)
S1 S 0.75705(9) 0.46506(11) 0.49043(9)
O9 O 0.8555(3) 0.5268(4) 0.4779(2)
O10 O 0.7533(3) 0.3963(4) 0.5641(2)
O11 O 0.6848(2) 0.5829(3) 0.4874(2)
O12 O 0.7356(3) 0.3595(4) 0.4327(2)
S2 S 0.37122(8) 0.02713(11) 0.75748(6)
O13 O 0.4544(2) 0.0391(3) 0.7061(2)
O14 O 0.3451(2) 0.1707(3) 0.7869(2)
O15 O 0.3977(3) -0.0652(3) 0.8209(2)
O16 O 0.2850(2) -0.0327(4) 0.7176(2)
O7 O 0.5037(2) 0.3397(4) 0.9525(2)
H13 H 0.4475(2) 0.3561(4) 0.9638(2)
H14 H 0.5577(2) 0.3916(4) 0.9658(2)
O8 O 0.6121(2) 0.9330(4) 0.7884(2)
H15 H 0.6651(2) 0.9644(4) 0.7704(2)
H16 H 0.5736(2) 0.9724(4) 0.7682(2)
loop_
_geom_bond_atom_site_label_1
_geom_bond_atom_site_label_2
_geom_bond_site_symmetry_1
_geom_bond_site_symmetry_2
Cu1 O1 1_555 1_555
Cu2 O3 1_555 1_555
S1 O9 1_555 1_555
S2 O13 1_555 1_555
O1 H1 1_555 1_555
H2 O1 1_555 1_555
O2 Cu1 1_555 1_555
H3 O2 1_555 1_555
H4 O2 1_555 1_555
O3 H5 1_555 1_555
H6 O3 1_555 1_555
O4 Cu2 1_555 1_555
H7 O4 1_555 1_555
H8 O4 1_555 1_555
O5 Cu2 1_555 1_555
H9 O5 1_555 1_555
H10 O5 1_555 1_555
O6 Cu2 1_555 1_555
H11 O6 1_555 1_555
H12 O6 1_555 1_555
O7 H13 1_555 1_555
H14 O7 1_555 1_555
O8 H15 1_555 1_555
H16 O8 1_555 1_555
O10 S1 1_555 1_555
O11 S1 1_555 1_555
O12 S1 1_555 1_555
O14 S2 1_555 1_555
O15 S2 1_555 1_555
O16 S2 1_555 1_555
N1 Cu1 1_555 1_555
N2 Cu1 1_555 1_555
N3 C7 1_555 1_555
N4 C9 1_555 1_555
N5 Cu2 1_555 1_555
N6 Cu2 1_555 1_555
C1 N1 1_555 1_555
H17 C1 1_555 1_555
C2 N6 1_555 1_555
H18 C2 1_555 1_555
C3 N6 1_555 1_555
C4 N1 1_555 1_555
C5 N2 1_555 1_555
C6 N2 1_555 1_555
H19 C6 1_555 1_555
C7 C6 1_555 1_555
H20 C7 1_555 1_555
C8 N3 1_555 1_555
C9 C8 1_555 1_555
C10 N5 1_555 1_555
C11 N5 1_555 1_555
H21 C11 1_555 1_555
C12 N4 1_555 1_555
H22 C12 1_555 1_555
N3B Cu1 1_555 1_555
N4B Cu1 1_555 1_555
Cu1B N3 1_555 1_555
N4 Cu1B 1_555 1_555
C1 C2 1_555 1_555
C3 C4 1_555 1_555
C3 C10 1_555 1_555
C4 C5 1_555 1_555
C5 C8 1_555 1_555
C9 C10 1_555 1_555
C11 C12 1_555 1_555

#END
