
#######################################################################
#
#                 Cambridge Crystallographic Data Centre
#                                CCDC 
#
#######################################################################
#
# If this CIF has been generated from an entry in the Cambridge 
# Structural Database, then it will include bibliographic, chemical, 
# crystal, experimental, refinement or atomic coordinate data resulting 
# from the CCDC's data processing and validation procedures.
#
#######################################################################

data_XETQUJ
_symmetry_cell_setting           orthorhombic
_symmetry_space_group_name_H-M   'P c a 21'
_symmetry_Int_Tables_number      29
_space_group_name_Hall           'P 2c -2ac'
loop_
_symmetry_equiv_pos_site_id
_symmetry_equiv_pos_as_xyz
1 x,y,z
2 -x,-y,1/2+z
3 1/2+x,-y,z
4 1/2-x,y,1/2+z
_cell_length_a                   10.71390(10)
_cell_length_b                   13.4083(2)
_cell_length_c                   8.95230(10)
_cell_angle_alpha                90
_cell_angle_beta                 90
_cell_angle_gamma                90
_cell_volume                     1286.04
loop_
_atom_site_label
_atom_site_type_symbol
_atom_site_fract_x
_atom_site_fract_y
_atom_site_fract_z
C1 C 0.0375(6) 0.3122(4) 0.2424(9)
F1 F -0.0102(5) 0.3449(3) 0.3720(7)
C2 C 0.4580(4) -0.0624(4) -0.1083(6)
H1 H 0.4966 0.0034 -0.0891
H2 H 0.4906 -0.1097 -0.0328
F2 F -0.0570(4) 0.3087(3) 0.1452(8)
Ag1 Ag 0.27087(3) 0.03772(2) 0.16797(7)
S1 S 0.29043(13) -0.05145(10) -0.08470(18)
S2 S 0.50452(11) -0.10464(9) -0.29126(14)
C3 C 0.5369(7) -0.2335(5) -0.2592(10)
H3 H 0.4587 -0.2691 -0.2399
H4 H 0.5922 -0.2403 -0.1726
H5 H 0.5776 -0.2620 -0.3475
C4 C 0.2404(7) -0.1801(4) -0.0804(10)
H6 H 0.2550 -0.2078 0.0193
H7 H 0.2878 -0.2185 -0.1543
H8 H 0.1512 -0.1838 -0.1040
O1 O 0.1390(4) 0.1724(3) 0.1399(6)
C5 C 0.0984(5) 0.2073(4) 0.2606(8)
F3 F -0.0207(5) 0.5180(4) 0.1667(12)
F4 F 0.2387(5) 0.3798(3) 0.2555(11)
F5 F 0.1460(8) 0.3790(4) 0.0412(7)
O2 O 0.0941(6) 0.1714(3) 0.3864(6)
C6 C 0.1296(6) 0.3917(4) 0.1883(9)
F6 F 0.0954(11) 0.5286(3) 0.3482(9)
C7 C 0.0952(7) 0.5028(4) 0.2103(10)
F7 F 0.1676(7) 0.5605(4) 0.1340(10)
Ag1C Ag 0.22913(3) 0.03772(2) -0.33203(7)
Ag1A Ag 0.72913(3) -0.03772(2) -0.33203(7)
S1C S 0.20957(13) -0.05145(10) 0.41530(18)
S2A S 0.49548(11) 0.10464(9) 0.20874(14)
loop_
_geom_bond_atom_site_label_1
_geom_bond_atom_site_label_2
_geom_bond_site_symmetry_1
_geom_bond_site_symmetry_2
C1 F1 1_555 1_555
C2 H1 1_555 1_555
H2 C2 1_555 1_555
F2 C1 1_555 1_555
Ag1 S1 1_555 1_555
S1 C2 1_555 1_555
S2 C2 1_555 1_555
C3 S2 1_555 1_555
H3 C3 1_555 1_555
H4 C3 1_555 1_555
H5 C3 1_555 1_555
C4 S1 1_555 1_555
H6 C4 1_555 1_555
H7 C4 1_555 1_555
H8 C4 1_555 1_555
O1 Ag1 1_555 1_555
C5 C1 1_555 1_555
F3 C7 1_555 1_555
F4 C6 1_555 1_555
F5 C6 1_555 1_555
O2 C5 1_555 1_555
C6 C1 1_555 1_555
F6 C7 1_555 1_555
C7 C6 1_555 1_555
F7 C7 1_555 1_555
Ag1C S1 1_555 1_555
Ag1A S2 1_555 1_555
S1C Ag1 1_555 1_555
S2A Ag1 1_555 1_555
O1 C5 1_555 1_555

#END
