
#######################################################################
#
#                 Cambridge Crystallographic Data Centre
#                                CCDC 
#
#######################################################################
#
# If this CIF has been generated from an entry in the Cambridge 
# Structural Database, then it will include bibliographic, chemical, 
# crystal, experimental, refinement or atomic coordinate data resulting 
# from the CCDC's data processing and validation procedures.
#
#######################################################################

data_XETTAR
_symmetry_cell_setting           monoclinic
_symmetry_space_group_name_H-M   'C 2/m'
_symmetry_Int_Tables_number      12
_space_group_name_Hall           '-C 2y'
loop_
_symmetry_equiv_pos_site_id
_symmetry_equiv_pos_as_xyz
1 x,y,z
2 1/2+x,1/2+y,z
3 x,-y,z
4 1/2+x,1/2-y,z
5 -x,-y,-z
6 1/2-x,1/2-y,-z
7 -x,y,-z
8 1/2-x,1/2+y,-z
_cell_length_a                   19.1407(7)
_cell_length_b                   14.7519(7)
_cell_length_c                   12.7615(5)
_cell_angle_alpha                90
_cell_angle_beta                 114.622(3)
_cell_angle_gamma                90
_cell_volume                     3275.73
loop_
_atom_site_label
_atom_site_type_symbol
_atom_site_fract_x
_atom_site_fract_y
_atom_site_fract_z
B1 B -0.4074(5) -0.5000 0.0565(8)
H3 H -0.3431 -0.5000 0.0926
B2 B -0.4630(5) -0.4414(5) -0.0644(6)
H4 H -0.4356 -0.4001 -0.1108
B3 B -0.4558(5) -0.5984(4) 0.0638(5)
H6 H -0.4256 -0.6622 0.1064
B4 B -0.4575(8) -0.5000 0.1425(7)
H7 H -0.4308 -0.5000 0.2390
B2B B -0.4630(5) -0.5586(5) -0.0644(6)
H4B H -0.4356 -0.5999 -0.1108
B3F B -0.5442(5) -0.5984(4) -0.0638(5)
B1F B -0.5926(5) -0.5000 -0.0565(8)
H3F H -0.6569 -0.5000 -0.0926
B2F B -0.5370(5) -0.4414(5) 0.0644(6)
B2D B -0.5370(5) -0.5586(5) 0.0644(6)
H4F H -0.5644 -0.4001 0.1108
B3D B -0.5442(5) -0.4016(4) -0.0638(5)
H4D H -0.5644 -0.5999 0.1108
B3B B -0.4558(5) -0.4016(4) 0.0638(5)
H6D H -0.5744 -0.3378 -0.1064
B4D B -0.5425(8) -0.5000 -0.1425(7)
H6F H -0.5744 -0.6622 -0.1064
H7D H -0.5692 -0.5000 -0.2390
H6B H -0.4256 -0.3378 0.1064
N1 N -0.2975(3) -0.5000 -0.1384(5)
O5 O -0.2801(5) -0.3472(6) -0.0843(10)
C15 C -0.2809(4) -0.4189(6) -0.0828(8)
C16 C -0.3367(7) -0.5000 -0.2617(10)
H24 H -0.3528 -0.5619 -0.2890
H27 H -0.2594 -0.4342 -0.0033
C15B C -0.2809(4) -0.5811(6) -0.0828(8)
O5B O -0.2801(5) -0.6528(6) -0.0843(10)
H27B H -0.2594 -0.5658 -0.0033
H24B H -0.3528 -0.4381 -0.2890
Cs1 Cs -0.5000 0.12278(7) -0.5000
C1 C -0.2239(6) 0.5000 -0.5151(8)
H1 H -0.1675 0.5000 -0.4901
H2 H -0.2486 0.5000 -0.6004
O1 O -0.4250(2) 0.2811(2) -0.5385(3)
C2 C -0.2477(3) 0.4151(3) -0.4699(5)
O2 O -0.3331(2) 0.1930(2) -0.3569(3)
C3 C -0.3226(4) 0.3856(3) -0.5257(4)
H5 H -0.3560 0.5834 -0.5933
O3 O -0.9103(2) 0.4125(2) -1.0985(3)
C4 C -0.3512(3) 0.3127(3) -0.4873(4)
O4 O -0.5564(4) 1.0000 -0.6859(6)
C5 C -0.3008(3) 0.2655(3) -0.3885(4)
C6 C -0.2260(3) 0.2926(3) -0.3338(5)
H8 H -0.1921 0.2595 -0.2687
C7 C -0.1975(3) 0.3685(3) -0.3713(5)
C8 C -0.1150(3) 0.3955(3) -0.3009(5)
H9 H -0.0832 0.3402 -0.2741
H10 H -0.0960 0.4302 -0.3501
C9 C -0.1064(3) 0.4525(3) -0.1978(5)
C10 C -0.9003(3) 0.4069(3) -0.9017(5)
H11 H -0.9014 0.3426 -0.9023
C11 C -0.9053(3) 0.4517(3) -0.9986(5)
C12 C -0.5207(4) 0.3354(4) -0.3713(5)
H12 H -0.5341 0.3358 -0.3051
H13 H -0.4690 0.3100 -0.3479
H14 H -0.5217 0.3975 -0.3991
C13 C -0.7162(3) 0.1460(3) -0.7457(4)
H15 H -0.7340 0.1881 -0.8110
H16 H -0.6878 0.0962 -0.7607
H17 H -0.7606 0.1215 -0.7354
C14 C -0.9104(3) 0.3147(3) -1.1018(5)
H18 H -0.9533 0.2916 -1.0867
H19 H -0.9161 0.2944 -1.1780
H20 H -0.8619 0.2918 -1.0429
Cs1B Cs -0.5000 -0.12278(7) -0.5000
C2B C -0.2477(3) 0.5849(3) -0.4699(5)
C3B C -0.3226(4) 0.6144(3) -0.5257(4)
C4B C -0.3512(3) 0.6873(3) -0.4873(4)
O1B O -0.4250(2) 0.7189(2) -0.5385(3)
Cs1B_2 Cs -0.5000 0.87722(7) -0.5000
Cs1_2 Cs -0.5000 1.12278(7) -0.5000
O1D O -0.5750(2) 0.7189(2) -0.4615(3)
C4D C -0.6488(3) 0.6873(3) -0.5127(4)
C3D C -0.6774(4) 0.6144(3) -0.4743(4)
C2D C -0.7523(3) 0.5849(3) -0.5301(5)
C1D C -0.7761(6) 0.5000 -0.4849(8)
H1D H -0.8325 0.5000 -0.5099
H2D H -0.7514 0.5000 -0.3996
C2F C -0.7523(3) 0.4151(3) -0.5301(5)
C3F C -0.6774(4) 0.3856(3) -0.4743(4)
H5D H -0.6440 0.4166 -0.4067
C4F C -0.6488(3) 0.3127(3) -0.5127(4)
O1F O -0.5750(2) 0.2811(2) -0.4615(3)
C9B C -0.1064(3) 0.5475(3) -0.1978(5)
C8B C -0.1150(3) 0.6045(3) -0.3009(5)
C7B C -0.1975(3) 0.6315(3) -0.3713(5)
C6B C -0.2260(3) 0.7074(3) -0.3338(5)
C5B C -0.3008(3) 0.7345(3) -0.3885(4)
O2B O -0.3331(2) 0.8070(2) -0.3569(3)
O2D O -0.6669(2) 0.8070(2) -0.6431(3)
C5D C -0.6992(3) 0.7345(3) -0.6115(4)
C6D C -0.7740(3) 0.7074(3) -0.6662(5)
H8D H -0.8079 0.7405 -0.7313
C7D C -0.8025(3) 0.6315(3) -0.6287(5)
C8D C -0.8850(3) 0.6045(3) -0.6991(5)
H9D H -0.9168 0.6598 -0.7259
H10D H -0.9040 0.5698 -0.6499
C9D C -0.8936(3) 0.5475(3) -0.8022(5)
C9F C -0.8936(3) 0.4525(3) -0.8022(5)
C8F C -0.8850(3) 0.3955(3) -0.6991(5)
C7F C -0.8025(3) 0.3685(3) -0.6287(5)
C6F C -0.7740(3) 0.2926(3) -0.6662(5)
C5F C -0.6992(3) 0.2655(3) -0.6115(4)
O2F O -0.6669(2) 0.1930(2) -0.6431(3)
O4D O -0.4436(4) 0.0000 -0.3141(6)
H8F H -0.8079 0.2595 -0.7313
H9F H -0.9168 0.3402 -0.7259
H10F H -0.9040 0.4302 -0.6499
C11B C -0.9053(3) 0.5483(3) -0.9986(5)
O3B O -0.9103(2) 0.5875(2) -1.0985(3)
C14B C -0.9104(3) 0.6853(3) -1.1018(5)
H18B H -0.9533 0.7084 -1.0867
H19B H -0.9161 0.7056 -1.1780
H20B H -0.8619 0.7082 -1.0429
C10B C -0.9003(3) 0.5931(3) -0.9017(5)
H11B H -0.9014 0.6574 -0.9023
C13B C -0.7162(3) 0.8540(3) -0.7457(4)
H15B H -0.7340 0.8119 -0.8110
H16B H -0.6878 0.9038 -0.7607
H17B H -0.7606 0.8785 -0.7354
O4_2 O -0.5564(4) 0.0000 -0.6859(6)
O4D_2 O -0.4436(4) 1.0000 -0.3141(6)
C13D C -0.2838(3) 0.8540(3) -0.2543(4)
H15D H -0.2660 0.8119 -0.1890
H16D H -0.3122 0.9038 -0.2393
H17D H -0.2394 0.8785 -0.2646
H8B H -0.1921 0.7405 -0.2687
H9B H -0.0832 0.6598 -0.2741
H10B H -0.0960 0.5698 -0.3501
C10D C -0.0997(3) 0.5931(3) -0.0983(5)
H11D H -0.0986 0.6574 -0.0977
C11D C -0.0947(3) 0.5483(3) -0.0014(5)
O3D O -0.0897(2) 0.5875(2) 0.0985(3)
C14D C -0.0896(3) 0.6853(3) 0.1018(5)
H18D H -0.0467 0.7084 0.0867
H19D H -0.0839 0.7056 0.1780
H20D H -0.1381 0.7082 0.0429
C11F C -0.0947(3) 0.4517(3) -0.0014(5)
O3F O -0.0897(2) 0.4125(2) 0.0985(3)
C14F C -0.0896(3) 0.3147(3) 0.1018(5)
H18F H -0.0467 0.2916 0.0867
H19F H -0.0839 0.2944 0.1780
H20F H -0.1381 0.2918 0.0429
C10F C -0.0997(3) 0.4069(3) -0.0983(5)
H11F H -0.0986 0.3426 -0.0977
C13F C -0.2838(3) 0.1460(3) -0.2543(4)
H15F H -0.2660 0.1881 -0.1890
H16F H -0.3122 0.0962 -0.2393
H17F H -0.2394 0.1215 -0.2646
H5F H -0.6440 0.5834 -0.4067
C12B C -0.5207(4) 0.6646(4) -0.3713(5)
H12B H -0.5341 0.6642 -0.3051
H13B H -0.4690 0.6900 -0.3479
H14B H -0.5217 0.6025 -0.3991
C12D C -0.4793(4) 0.6646(4) -0.6287(5)
H12D H -0.4659 0.6642 -0.6949
H13D H -0.5310 0.6900 -0.6521
H14D H -0.4783 0.6025 -0.6009
H5B H -0.3560 0.4166 -0.5933
C12F C -0.4793(4) 0.3354(4) -0.6287(5)
H12F H -0.4659 0.3358 -0.6949
H13F H -0.5310 0.3100 -0.6521
H14F H -0.4783 0.3975 -0.6009
H21? H 0.6717 0.6086 0.9141
H22? H 0.7425 0.6214 0.8797
H23? H 0.7550 0.5718 0.9978
H25? H 0.6979 0.5226 0.7052
H26? H 0.6180 0.5392 0.7143
C17? C 0.7191(4) 0.5811(6) 0.9172(8)
loop_
_geom_bond_atom_site_label_1
_geom_bond_atom_site_label_2
_geom_bond_site_symmetry_1
_geom_bond_site_symmetry_2
Cs1 O1 1_555 1_555
C1 H1 1_555 1_555
H2 C1 1_555 1_555
B1 H3 1_555 1_555
O1 C4 1_555 1_555
C2 C1 1_555 1_555
B2 B1 1_555 1_555
H4 B2 1_555 1_555
O2 Cs1 1_555 1_555
C3 C2 1_555 1_555
H5 C3B 1_555 1_555
B3 B1 1_555 1_555
H6 B3 1_555 1_555
O3 C11 1_555 1_555
C4 C3 1_555 1_555
B4 B1 1_555 1_555
H7 B4 1_555 1_555
O4 Cs1B_2 1_555 1_555
N1 C15 1_555 1_555
C5 O2 1_555 1_555
O5 C15 1_555 1_555
C6 C5 1_555 1_555
H8 C6 1_555 1_555
C7 C2 1_555 1_555
C8 C7 1_555 1_555
H9 C8 1_555 1_555
H10 C8 1_555 1_555
C9 C8 1_555 1_555
C10 H11 1_555 1_555
C11 C10 1_555 1_555
C12 H12 1_555 1_555
H13 C12 1_555 1_555
H14 C12 1_555 1_555
C13 H15 1_555 1_555
H16 C13 1_555 1_555
H17 C13 1_555 1_555
C14 O3 1_555 1_555
H18 C14 1_555 1_555
H19 C14 1_555 1_555
H20 C14 1_555 1_555
C15 H27 1_555 1_555
C16 N1 1_555 1_555
H24 C16 1_555 1_555
Cs1B O4D 1_555 1_555
C2B C1 1_555 1_555
C3B C2B 1_555 1_555
C4B C3B 1_555 1_555
O1B C4B 1_555 1_555
Cs1B_2 O1B 1_555 1_555
Cs1_2 O4 1_555 1_555
O1D Cs1B_2 1_555 1_555
C4D O1D 1_555 1_555
C3D C4D 1_555 1_555
C2D C3D 1_555 1_555
C1D C2D 1_555 1_555
H1D C1D 1_555 1_555
H2D C1D 1_555 1_555
C2F C1D 1_555 1_555
C3F C2F 1_555 1_555
H5D C3F 1_555 1_555
C4F C3F 1_555 1_555
O1F Cs1 1_555 1_555
C9B C9 1_555 1_555
C8B C9B 1_555 1_555
C7B C2B 1_555 1_555
C6B C7B 1_555 1_555
C5B C4B 1_555 1_555
O2B Cs1B_2 1_555 1_555
O2D Cs1B_2 1_555 1_555
C5D C4D 1_555 1_555
C6D C5D 1_555 1_555
H8D C6D 1_555 1_555
C7D C2D 1_555 1_555
C8D C7D 1_555 1_555
H9D C8D 1_555 1_555
H10D C8D 1_555 1_555
C9D C8D 1_555 1_555
C9F C10 1_555 1_555
C8F C9F 1_555 1_555
C7F C2F 1_555 1_555
C6F C7F 1_555 1_555
C5F C4F 1_555 1_555
O2F Cs1 1_555 1_555
O4D Cs1 1_555 1_555
H8F C6F 1_555 1_555
H9F C8F 1_555 1_555
H10F C8F 1_555 1_555
C11B C11 1_555 1_555
O3B C11B 1_555 1_555
C14B O3B 1_555 1_555
H18B C14B 1_555 1_555
H19B C14B 1_555 1_555
H20B C14B 1_555 1_555
C10B C9D 1_555 1_555
H11B C10B 1_555 1_555
C13B O2D 1_555 1_555
H15B C13B 1_555 1_555
H16B C13B 1_555 1_555
H17B C13B 1_555 1_555
O4_2 Cs1 1_555 1_555
O4D_2 Cs1B_2 1_555 1_555
C13D O2B 1_555 1_555
H15D C13D 1_555 1_555
H16D C13D 1_555 1_555
H17D C13D 1_555 1_555
H8B C6B 1_555 1_555
H9B C8B 1_555 1_555
H10B C8B 1_555 1_555
C10D C9B 1_555 1_555
H11D C10D 1_555 1_555
C11D C10D 1_555 1_555
O3D C11D 1_555 1_555
C14D O3D 1_555 1_555
H18D C14D 1_555 1_555
H19D C14D 1_555 1_555
H20D C14D 1_555 1_555
C11F C11D 1_555 1_555
O3F C11F 1_555 1_555
C14F O3F 1_555 1_555
H18F C14F 1_555 1_555
H19F C14F 1_555 1_555
H20F C14F 1_555 1_555
C10F C9 1_555 1_555
H11F C10F 1_555 1_555
C13F O2 1_555 1_555
H15F C13F 1_555 1_555
H16F C13F 1_555 1_555
H17F C13F 1_555 1_555
H5F C3D 1_555 1_555
C12B O1D 1_555 1_555
H12B C12B 1_555 1_555
H13B C12B 1_555 1_555
H14B C12B 1_555 1_555
C12D O1B 1_555 1_555
H12D C12D 1_555 1_555
H13D C12D 1_555 1_555
H14D C12D 1_555 1_555
H5B C3 1_555 1_555
C12F O1 1_555 1_555
H12F C12F 1_555 1_555
H13F C12F 1_555 1_555
H14F C12F 1_555 1_555
B2B B1 1_555 1_555
H4B B2B 1_555 1_555
B3F B3 1_555 1_555
B1F B3F 1_555 1_555
H3F B1F 1_555 1_555
B2F B4 1_555 1_555
B2D B3 1_555 1_555
H4F B2F 1_555 1_555
B3D B2 1_555 1_555
H4D B2D 1_555 1_555
B3B B1 1_555 1_555
H6D B3D 1_555 1_555
B4D B2 1_555 1_555
H6F B3F 1_555 1_555
H7D B4D 1_555 1_555
H6B B3B 1_555 1_555
C15B N1 1_555 1_555
O5B C15B 1_555 1_555
H27B C15B 1_555 1_555
H24B C16 1_555 1_555
B2 B2B 1_555 1_555
B2 B3B 1_555 1_555
B3 B2B 1_555 1_555
B3 B4 1_555 1_555
C4 C5 1_555 1_555
B4 B2D 1_555 1_555
B4 B3B 1_555 1_555
C6 C7 1_555 1_555
C12 O1F 1_555 1_555
C13 O2F 1_555 1_555
Cs1B O4_2 1_555 1_555
Cs1_2 O4D_2 1_555 1_555
C4F O1F 1_555 1_555
C8B C7B 1_555 1_555
C6B C5B 1_555 1_555
C5B O2B 1_555 1_555
O2D C5D 1_555 1_555
C6D C7D 1_555 1_555
C9D C9F 1_555 1_555
C8F C7F 1_555 1_555
C6F C5F 1_555 1_555
C5F O2F 1_555 1_555
C11B C10B 1_555 1_555
C11F C10F 1_555 1_555
B2B B3F 1_555 1_555
B2B B4D 1_555 1_555
B3F B2D 1_555 1_555
B3F B4D 1_555 1_555
B1F B2F 1_555 1_555
B1F B3D 1_555 1_555
B1F B2D 1_555 1_555
B1F B4D 1_555 1_555
B2F B2D 1_555 1_555
B2F B3D 1_555 1_555
B2F B3B 1_555 1_555
B3D B4D 1_555 1_555
B3D B3B 1_555 1_555

#END
