
#######################################################################
#
#                 Cambridge Crystallographic Data Centre
#                                CCDC 
#
#######################################################################
#
# If this CIF has been generated from an entry in the Cambridge 
# Structural Database, then it will include bibliographic, chemical, 
# crystal, experimental, refinement or atomic coordinate data resulting 
# from the CCDC's data processing and validation procedures.
#
#######################################################################

data_XETVID
_symmetry_cell_setting           monoclinic
_symmetry_space_group_name_H-M   'P 21/c'
_symmetry_Int_Tables_number      14
_space_group_name_Hall           '-P 2ybc'
loop_
_symmetry_equiv_pos_site_id
_symmetry_equiv_pos_as_xyz
1 x,y,z
2 -x,1/2+y,1/2-z
3 -x,-y,-z
4 x,1/2-y,1/2+z
_cell_length_a                   7.6549(5)
_cell_length_b                   29.3713(19)
_cell_length_c                   9.3988(5)
_cell_angle_alpha                90
_cell_angle_beta                 114.479(4)
_cell_angle_gamma                90
_cell_volume                     1923.23
loop_
_atom_site_label
_atom_site_type_symbol
_atom_site_fract_x
_atom_site_fract_y
_atom_site_fract_z
C1 C 0.8557(4) 0.09752(10) 0.6399(4)
H1 H 0.9776 0.0859 0.6484
H2 H 0.8316 0.0873 0.7260
H3 H 0.7563 0.0866 0.5435
C2 C 0.8592(3) 0.14875(9) 0.6371(3)
C3 C 0.7476(3) 0.17431(10) 0.6951(3)
H4 H 0.6735 0.1592 0.7375
C4 C 0.7454(3) 0.22094(9) 0.6905(3)
H5 H 0.6702 0.2375 0.7284
C5 C 0.8596(3) 0.24331(8) 0.6270(3)
C6 C 0.8761(3) 0.29213(9) 0.6198(3)
H6 H 0.8004 0.3106 0.6518
C7 C 0.9991(3) 0.31175(8) 0.5679(3)
H7 H 1.0092 0.3433 0.5675
C8 C 1.1139(3) 0.28416(8) 0.5134(2)
C9 C 1.0936(3) 0.23676(7) 0.5163(2)
C10 C 0.9684(3) 0.21576(8) 0.5740(2)
C11 C 1.2472(3) 0.30045(8) 0.4581(3)
H8 H 1.2680 0.3316 0.4558
C12 C 1.3473(3) 0.27018(8) 0.4073(3)
H9 H 1.4336 0.2809 0.3687
C13 C 1.3180(3) 0.22343(8) 0.4142(2)
C14 C 1.4138(3) 0.18487(8) 0.3660(3)
C15 C 0.9326(3) 0.06611(8) 0.2513(3)
C16 C 0.7941(3) 0.04873(8) 0.0960(3)
C17 C 0.6581(3) 0.07847(8) -0.0065(2)
H10 H 0.6532 0.1085 0.0232
C18 C 0.5293(3) 0.06344(7) -0.1534(2)
C19 C 0.3914(3) 0.09726(7) -0.2632(3)
C20 C 0.5362(3) 0.01846(8) -0.1970(3)
H11 H 0.4503 0.0083 -0.2948
C21 C 0.6712(3) -0.01141(8) -0.0950(3)
C22 C 0.7994(3) 0.00365(8) 0.0520(3)
H12 H 0.8886 -0.0164 0.1207
C23 C 0.6863(3) -0.05976(9) -0.1388(3)
Cu1 Cu 1.17385(4) 0.144132(9) 0.49768(3)
N1 N 0.9697(3) 0.16904(7) 0.5776(2)
N2 N 1.1941(2) 0.20817(7) 0.4681(2)
O1 O 0.8028(3) -0.08613(7) -0.0537(2)
O2 O 0.5597(3) -0.06996(6) -0.2813(2)
H13 H 0.5940 -0.0931 -0.3114
O3 O 1.0448(3) 0.03426(6) 0.3432(2)
H14 H 1.1231 0.0459 0.4236
O4 O 0.9433(2) 0.10603(6) 0.28814(19)
O5 O 0.2677(2) 0.08360(6) -0.39819(19)
O6 O 0.4043(2) 0.13769(5) -0.2245(2)
O7 O 1.3640(2) 0.14467(5) 0.3962(2)
O8 O 1.5254(2) 0.19248(7) 0.3073(2)
Cu1_2 Cu 0.17385(4) 0.144132(9) -0.50232(3)
O5_2 O 1.2677(2) 0.08360(6) 0.60181(19)
O6_2 O 1.4043(2) 0.13769(5) 0.7755(2)
loop_
_geom_bond_atom_site_label_1
_geom_bond_atom_site_label_2
_geom_bond_site_symmetry_1
_geom_bond_site_symmetry_2
C1 H1 1_555 1_555
H2 C1 1_555 1_555
H3 C1 1_555 1_555
C2 C1 1_555 1_555
C3 C2 1_555 1_555
H4 C3 1_555 1_555
C4 C3 1_555 1_555
H5 C4 1_555 1_555
C5 C4 1_555 1_555
C6 C5 1_555 1_555
H6 C6 1_555 1_555
C7 C6 1_555 1_555
H7 C7 1_555 1_555
C8 C7 1_555 1_555
C9 C8 1_555 1_555
C10 C5 1_555 1_555
C11 C8 1_555 1_555
H8 C11 1_555 1_555
C12 C11 1_555 1_555
H9 C12 1_555 1_555
C13 C12 1_555 1_555
C14 C13 1_555 1_555
C15 C16 1_555 1_555
C16 C17 1_555 1_555
C17 H10 1_555 1_555
C18 C17 1_555 1_555
C19 C18 1_555 1_555
C20 C18 1_555 1_555
H11 C20 1_555 1_555
C21 C20 1_555 1_555
C22 C16 1_555 1_555
H12 C22 1_555 1_555
C23 C21 1_555 1_555
Cu1 N1 1_555 1_555
N1 C2 1_555 1_555
N2 C9 1_555 1_555
O1 C23 1_555 1_555
O2 C23 1_555 1_555
H13 O2 1_555 1_555
O3 C15 1_555 1_555
H14 O3 1_555 1_555
O4 C15 1_555 1_555
O5 C19 1_555 1_555
O6 C19 1_555 1_555
O7 C14 1_555 1_555
O8 C14 1_555 1_555
Cu1_2 O5 1_555 1_555
O5_2 Cu1 1_555 1_555
O6_2 Cu1 1_555 1_555
C9 C10 1_555 1_555
C10 N1 1_555 1_555
C13 N2 1_555 1_555
C21 C22 1_555 1_555
Cu1 N2 1_555 1_555
Cu1 O4 1_555 1_555
Cu1 O7 1_555 1_555
O6 Cu1_2 1_555 1_555

#END
