
#######################################################################
#
#                 Cambridge Crystallographic Data Centre
#                                CCDC 
#
#######################################################################
#
# If this CIF has been generated from an entry in the Cambridge 
# Structural Database, then it will include bibliographic, chemical, 
# crystal, experimental, refinement or atomic coordinate data resulting 
# from the CCDC's data processing and validation procedures.
#
#######################################################################

data_XETXUR
_symmetry_cell_setting           monoclinic
_symmetry_space_group_name_H-M   'P 21/c'
_symmetry_Int_Tables_number      14
_space_group_name_Hall           '-P 2ybc'
loop_
_symmetry_equiv_pos_site_id
_symmetry_equiv_pos_as_xyz
1 x,y,z
2 -x,1/2+y,1/2-z
3 -x,-y,-z
4 x,1/2-y,1/2+z
_cell_length_a                   15.957(3)
_cell_length_b                   10.576(2)
_cell_length_c                   26.406(5)
_cell_angle_alpha                90
_cell_angle_beta                 98.47(3)
_cell_angle_gamma                90
_cell_volume                     4407.7
loop_
_atom_site_label
_atom_site_type_symbol
_atom_site_fract_x
_atom_site_fract_y
_atom_site_fract_z
Mo1 Mo 0.284268(13) 0.840959(17) 0.424827(7)
Mn1 Mn 0.0000 1.0000 0.5000
Mn2 Mn 0.61961(2) 0.72343(3) 0.490621(13)
Mn3 Mn 0.72380(3) 0.66904(3) 0.608503(13)
C1 C 0.16694(15) 0.8861(2) 0.45105(9)
C2 C 0.41647(16) 0.7994(2) 0.44953(8)
C3 C 0.26497(16) 1.0254(2) 0.39107(9)
C4 C 0.18340(18) 0.8144(2) 0.36082(9)
C5 C 0.34816(19) 0.8359(2) 0.35855(10)
C6 C 0.28675(17) 0.6423(2) 0.40927(9)
C7 C 0.28422(16) 0.7460(2) 0.49744(9)
C8 C 0.32626(15) 0.9861(2) 0.47971(9)
C9 C -0.1184(2) 1.1677(3) 0.41879(10)
H1 H -0.1396 1.1882 0.4496
C10 C -0.15481(19) 1.2263(3) 0.37346(10)
C11 C -0.1238(2) 1.1947(3) 0.32826(10)
H2 H -0.1476 1.2311 0.2965
C12 C -0.0576(2) 1.1092(3) 0.33084(10)
H3 H -0.0348 1.0876 0.3007
C13 C -0.02435(19) 1.0550(3) 0.37753(10)
H4 H 0.0210 0.9962 0.3787
C14 C 0.7319(2) 0.6337(3) 0.35286(11)
H5 H 0.7122 0.5488 0.3507
C15 C 0.70460(19) 0.7167(3) 0.38918(10)
C16 C 0.7407(2) 0.8386(3) 0.39162(11)
H6 H 0.7269 0.8971 0.4164
C17 C 0.7959(2) 0.8741(4) 0.35848(13)
H7 H 0.8190 0.9571 0.3604
C18 C 0.8175(2) 0.7910(4) 0.32304(13)
H8 H 0.8546 0.8159 0.2998
C19 C 0.85900(17) 0.7949(2) 0.51114(9)
H9 H 0.8409 0.8635 0.5301
C20 C 0.81217(16) 0.6825(2) 0.50903(9)
C21 C 0.84141(18) 0.5818(2) 0.48236(11)
H10 H 0.8132 0.5025 0.4806
C22 C 0.9124(2) 0.5991(3) 0.45839(12)
H11 H 0.9324 0.5316 0.4397
C23 C 0.95405(19) 0.7146(3) 0.46170(11)
H12 H 1.0023 0.7252 0.4449
C24 C 0.50695(18) 0.8835(3) 0.58265(10)
H13 H 0.5348 0.9370 0.5615
C25 C 0.53260(17) 0.7565(2) 0.58965(9)
C26 C 0.48829(18) 0.6828(3) 0.62100(9)
H14 H 0.5028 0.5963 0.6266
C27 C 0.42590(16) 0.7330(2) 0.64310(8)
H15 H 0.3982 0.6805 0.6647
C28 C 0.4003(2) 0.8532(3) 0.63652(10)
H16 H 0.3546 0.8842 0.6523
C29 C 0.88600(17) 0.6948(2) 0.68943(9)
H17 H 0.8542 0.7658 0.6977
C30 C 0.95985(18) 0.6636(3) 0.72180(10)
C31 C 1.00615(18) 0.5596(3) 0.70966(11)
H18 H 1.0563 0.5347 0.7313
C32 C 0.97781(19) 0.4929(3) 0.66535(11)
H19 H 1.0090 0.4224 0.6559
C33 C 0.90350(19) 0.5297(3) 0.63483(11)
H20 H 0.8844 0.4835 0.6045
C34 C 0.64078(18) 0.7582(2) 0.70662(9)
H21 H 0.6488 0.8391 0.6925
C35 C 0.59410(18) 0.7496(3) 0.74761(9)
C36 C 0.5833(2) 0.6315(3) 0.76871(10)
H22 H 0.5523 0.6225 0.7966
C37 C 0.6185(2) 0.5274(3) 0.74838(10)
H23 H 0.6116 0.4454 0.7619
C38 C 0.6643(2) 0.5436(3) 0.70775(10)
H24 H 0.6892 0.4716 0.6945
N1 N 0.10489(15) 0.9144(2) 0.46581(8)
N2 N 0.48632(15) 0.7719(2) 0.46261(8)
N3 N 0.25458(15) 1.1267(2) 0.37537(8)
N4 N 0.13031(17) 0.8081(2) 0.32652(9)
N5 N 0.38193(19) 0.8273(3) 0.32272(10)
N6 N 0.29182(15) 0.5363(2) 0.40023(8)
N7 N 0.28449(16) 0.6969(2) 0.53657(8)
N8 N 0.34736(14) 1.0708(2) 0.50598(8)
N9 N -0.05489(15) 1.0837(2) 0.42096(8)
N10 N 0.7854(2) 0.6734(3) 0.32152(10)
H25 H 0.8002 0.6199 0.2989
N11 N 0.92759(15) 0.8120(2) 0.48814(8)
N12 N 0.44184(19) 0.9313(3) 0.60617(10)
H26 H 0.4268 1.0111 0.6019
N13 N 0.85767(15) 0.6290(2) 0.64702(8)
N14 N 0.67451(16) 0.6572(2) 0.68667(8)
O1 O -0.21910(16) 1.3100(2) 0.37177(8)
H27 H -0.2397 1.3064 0.3992
O2 O 0.64959(15) 0.6796(2) 0.41734(8)
O3 O 0.74245(12) 0.67516(16) 0.53072(7)
O4 O 0.59528(12) 0.70855(18) 0.56940(7)
O5 O 0.58351(14) 0.51517(19) 0.48730(9)
O6 O 0.98110(14) 0.7383(2) 0.76346(7)
H28 H 1.0311 0.7227 0.7768
O7 O 0.56008(16) 0.8580(2) 0.76303(8)
H29 H 0.5483 0.8484 0.7928
Mo1B Mo -0.284268(13) 1.159041(17) 0.575173(7)
Mn2B Mn -0.61961(2) 1.27657(3) 0.509379(13)
Mn3B Mn -0.72380(3) 1.33096(3) 0.391497(13)
C1B C -0.16694(15) 1.1139(2) 0.54895(9)
C2B C -0.41647(16) 1.2006(2) 0.55047(8)
C3B C -0.26497(16) 0.9746(2) 0.60893(9)
C4B C -0.18340(18) 1.1856(2) 0.63918(9)
C5B C -0.34816(19) 1.1641(2) 0.64145(10)
C6B C -0.28675(17) 1.3577(2) 0.59073(9)
C7B C -0.28422(16) 1.2540(2) 0.50256(9)
C8B C -0.32626(15) 1.0139(2) 0.52029(9)
C9B C 0.1184(2) 0.8323(3) 0.58121(10)
H1B H 0.1396 0.8118 0.5504
C10B C 0.15481(19) 0.7737(3) 0.62654(10)
C11B C 0.1238(2) 0.8053(3) 0.67174(10)
H2B H 0.1476 0.7689 0.7035
C12B C 0.0576(2) 0.8908(3) 0.66916(10)
H3B H 0.0348 0.9124 0.6993
C13B C 0.02435(19) 0.9450(3) 0.62247(10)
H4B H -0.0210 1.0038 0.6213
C14B C -0.7319(2) 1.3663(3) 0.64714(11)
H5B H -0.7122 1.4512 0.6493
C15B C -0.70460(19) 1.2833(3) 0.61082(10)
C16B C -0.7407(2) 1.1614(3) 0.60838(11)
H6B H -0.7269 1.1029 0.5836
C17B C -0.7959(2) 1.1259(4) 0.64152(13)
H7B H -0.8190 1.0429 0.6396
C18B C -0.8175(2) 1.2090(4) 0.67696(13)
H8B H -0.8546 1.1841 0.7002
C19B C -0.85900(17) 1.2051(2) 0.48886(9)
H9B H -0.8409 1.1365 0.4699
C20B C -0.81217(16) 1.3175(2) 0.49097(9)
C21B C -0.84141(18) 1.4182(2) 0.51764(11)
H10B H -0.8132 1.4975 0.5194
C22B C -0.9124(2) 1.4009(3) 0.54161(12)
H11B H -0.9324 1.4684 0.5603
C23B C -0.95405(19) 1.2854(3) 0.53830(11)
H12B H -1.0023 1.2748 0.5551
C24B C -0.50695(18) 1.1165(3) 0.41735(10)
H13B H -0.5348 1.0630 0.4385
C25B C -0.53260(17) 1.2435(2) 0.41035(9)
C26B C -0.48829(18) 1.3172(3) 0.37900(9)
H14B H -0.5028 1.4037 0.3734
C27B C -0.42590(16) 1.2670(2) 0.35690(8)
H15B H -0.3982 1.3195 0.3353
C28B C -0.4003(2) 1.1468(3) 0.36348(10)
H16B H -0.3546 1.1158 0.3477
C29B C -0.88600(17) 1.3052(2) 0.31057(9)
H17B H -0.8542 1.2342 0.3023
C30B C -0.95985(18) 1.3364(3) 0.27820(10)
C31B C -1.00615(18) 1.4404(3) 0.29034(11)
H18B H -1.0563 1.4653 0.2687
C32B C -0.97781(19) 1.5071(3) 0.33465(11)
H19B H -1.0090 1.5776 0.3441
C33B C -0.90350(19) 1.4703(3) 0.36517(11)
H20B H -0.8844 1.5165 0.3955
C34B C -0.64078(18) 1.2418(2) 0.29338(9)
H21B H -0.6488 1.1609 0.3075
C35B C -0.59410(18) 1.2504(3) 0.25239(9)
C36B C -0.5833(2) 1.3685(3) 0.23129(10)
H22B H -0.5523 1.3775 0.2034
C37B C -0.6185(2) 1.4726(3) 0.25162(10)
H23B H -0.6116 1.5546 0.2381
C38B C -0.6643(2) 1.4564(3) 0.29225(10)
H24B H -0.6892 1.5284 0.3055
N1B N -0.10489(15) 1.0856(2) 0.53419(8)
N2B N -0.48632(15) 1.2281(2) 0.53739(8)
N3B N -0.25458(15) 0.8733(2) 0.62463(8)
N4B N -0.13031(17) 1.1919(2) 0.67348(9)
N5B N -0.38193(19) 1.1727(3) 0.67728(10)
N6B N -0.29182(15) 1.4637(2) 0.59977(8)
N7B N -0.28449(16) 1.3031(2) 0.46343(8)
N8B N -0.34736(14) 0.9292(2) 0.49402(8)
N9B N 0.05489(15) 0.9163(2) 0.57904(8)
N10B N -0.7854(2) 1.3266(3) 0.67848(10)
H25B H -0.8002 1.3801 0.7011
N11B N -0.92759(15) 1.1880(2) 0.51186(8)
N12B N -0.44184(19) 1.0687(3) 0.39383(10)
H26B H -0.4268 0.9889 0.3981
N13B N -0.85767(15) 1.3710(2) 0.35298(8)
N14B N -0.67451(16) 1.3428(2) 0.31333(8)
O1B O 0.21910(16) 0.6900(2) 0.62823(8)
H27B H 0.2397 0.6936 0.6008
O2B O -0.64959(15) 1.3204(2) 0.58266(8)
O3B O -0.74245(12) 1.32484(16) 0.46928(7)
O4B O -0.59528(12) 1.29145(18) 0.43060(7)
O5B O -0.58351(14) 1.48483(19) 0.51270(9)
O6B O -0.98110(14) 1.2617(2) 0.23654(7)
H28B H -1.0311 1.2773 0.2232
O7B O -0.56008(16) 1.1420(2) 0.23697(8)
H29B H -0.5483 1.1516 0.2072
Mn1_2 Mn -1.0000 1.0000 0.5000
Mn1_3 Mn 1.0000 1.0000 0.5000
Mn2_2 Mn -0.38039(2) 0.72343(3) 0.490621(13)
Mn2B_2 Mn 0.38039(2) 1.27657(3) 0.509379(13)
Mn3_2 Mn -0.27620(3) 0.66904(3) 0.608503(13)
Mn3_3 Mn -0.27620(3) 1.66904(3) 0.608503(13)
Mn3B_2 Mn 0.27620(3) 0.33096(3) 0.391497(13)
Mn3B_3 Mn 0.27620(3) 1.33096(3) 0.391497(13)
N3_2 N -0.74542(15) 1.1267(2) 0.37537(8)
N3B_2 N 0.74542(15) 0.8733(2) 0.62463(8)
N6_2 N -0.70818(15) 1.5363(2) 0.40023(8)
N6B_2 N 0.70818(15) 0.4637(2) 0.59977(8)
N8_2 N -0.65264(14) 1.0708(2) 0.50598(8)
N8B_2 N 0.65264(14) 0.9292(2) 0.49402(8)
N11_2 N -0.07241(15) 0.8120(2) 0.48814(8)
N11B_2 N 0.07241(15) 1.1880(2) 0.51186(8)
O8 O 0.51138(14) 0.6278(2) 0.35119(7)
O9 O 0.37102(15) 0.5970(2) 0.72280(8)
O10 O 0.78776(16) 0.4798(3) 0.25249(10)
loop_
_geom_bond_atom_site_label_1
_geom_bond_atom_site_label_2
_geom_bond_site_symmetry_1
_geom_bond_site_symmetry_2
Mo1 C1 1_555 1_555
Mn1 N1 1_555 1_555
Mn2 N2 1_555 1_555
Mn3 N13 1_555 1_555
C1 N1 1_555 1_555
C2 Mo1 1_555 1_555
C3 Mo1 1_555 1_555
C4 Mo1 1_555 1_555
C5 Mo1 1_555 1_555
C6 Mo1 1_555 1_555
C7 Mo1 1_555 1_555
C8 Mo1 1_555 1_555
C9 H1 1_555 1_555
C10 C9 1_555 1_555
C11 C10 1_555 1_555
H2 C11 1_555 1_555
C12 C11 1_555 1_555
H3 C12 1_555 1_555
C13 C12 1_555 1_555
H4 C13 1_555 1_555
C14 H5 1_555 1_555
C15 C14 1_555 1_555
C16 C15 1_555 1_555
H6 C16 1_555 1_555
C17 C16 1_555 1_555
H7 C17 1_555 1_555
C18 C17 1_555 1_555
H8 C18 1_555 1_555
C19 H9 1_555 1_555
C20 C19 1_555 1_555
C21 C20 1_555 1_555
H10 C21 1_555 1_555
C22 C21 1_555 1_555
H11 C22 1_555 1_555
C23 C22 1_555 1_555
H12 C23 1_555 1_555
C24 H13 1_555 1_555
C25 C24 1_555 1_555
C26 C25 1_555 1_555
H14 C26 1_555 1_555
C27 C26 1_555 1_555
H15 C27 1_555 1_555
C28 C27 1_555 1_555
H16 C28 1_555 1_555
C29 H17 1_555 1_555
C30 C29 1_555 1_555
C31 C30 1_555 1_555
H18 C31 1_555 1_555
C32 C31 1_555 1_555
H19 C32 1_555 1_555
C33 C32 1_555 1_555
H20 C33 1_555 1_555
C34 H21 1_555 1_555
C35 C34 1_555 1_555
C36 C35 1_555 1_555
H22 C36 1_555 1_555
C37 C36 1_555 1_555
H23 C37 1_555 1_555
C38 C37 1_555 1_555
H24 C38 1_555 1_555
N2 C2 1_555 1_555
N3 C3 1_555 1_555
N4 C4 1_555 1_555
N5 C5 1_555 1_555
N6 C6 1_555 1_555
N7 C7 1_555 1_555
N8 C8 1_555 1_555
N9 Mn1 1_555 1_555
N10 C14 1_555 1_555
H25 N10 1_555 1_555
N11 C19 1_555 1_555
N12 C24 1_555 1_555
H26 N12 1_555 1_555
N13 C29 1_555 1_555
N14 Mn3 1_555 1_555
O1 C10 1_555 1_555
H27 O1 1_555 1_555
O2 Mn2 1_555 1_555
O3 Mn2 1_555 1_555
O4 Mn2 1_555 1_555
O5 Mn2 1_555 1_555
O6 C30 1_555 1_555
H28 O6 1_555 1_555
O7 C35 1_555 1_555
H29 O7 1_555 1_555
Mo1B C1B 1_555 1_555
Mn2B N2B 1_555 1_555
Mn3B N13B 1_555 1_555
C1B N1B 1_555 1_555
C2B Mo1B 1_555 1_555
C3B Mo1B 1_555 1_555
C4B Mo1B 1_555 1_555
C5B Mo1B 1_555 1_555
C6B Mo1B 1_555 1_555
C7B Mo1B 1_555 1_555
C8B Mo1B 1_555 1_555
C9B H1B 1_555 1_555
C10B C9B 1_555 1_555
C11B C10B 1_555 1_555
H2B C11B 1_555 1_555
C12B C11B 1_555 1_555
H3B C12B 1_555 1_555
C13B C12B 1_555 1_555
H4B C13B 1_555 1_555
C14B H5B 1_555 1_555
C15B C14B 1_555 1_555
C16B C15B 1_555 1_555
H6B C16B 1_555 1_555
C17B C16B 1_555 1_555
H7B C17B 1_555 1_555
C18B C17B 1_555 1_555
H8B C18B 1_555 1_555
C19B H9B 1_555 1_555
C20B C19B 1_555 1_555
C21B C20B 1_555 1_555
H10B C21B 1_555 1_555
C22B C21B 1_555 1_555
H11B C22B 1_555 1_555
C23B C22B 1_555 1_555
H12B C23B 1_555 1_555
C24B H13B 1_555 1_555
C25B C24B 1_555 1_555
C26B C25B 1_555 1_555
H14B C26B 1_555 1_555
C27B C26B 1_555 1_555
H15B C27B 1_555 1_555
C28B C27B 1_555 1_555
H16B C28B 1_555 1_555
C29B H17B 1_555 1_555
C30B C29B 1_555 1_555
C31B C30B 1_555 1_555
H18B C31B 1_555 1_555
C32B C31B 1_555 1_555
H19B C32B 1_555 1_555
C33B C32B 1_555 1_555
H20B C33B 1_555 1_555
C34B H21B 1_555 1_555
C35B C34B 1_555 1_555
C36B C35B 1_555 1_555
H22B C36B 1_555 1_555
C37B C36B 1_555 1_555
H23B C37B 1_555 1_555
C38B C37B 1_555 1_555
H24B C38B 1_555 1_555
N1B Mn1 1_555 1_555
N2B C2B 1_555 1_555
N3B C3B 1_555 1_555
N4B C4B 1_555 1_555
N5B C5B 1_555 1_555
N6B C6B 1_555 1_555
N7B C7B 1_555 1_555
N8B C8B 1_555 1_555
N9B Mn1 1_555 1_555
N10B C14B 1_555 1_555
H25B N10B 1_555 1_555
N11B C19B 1_555 1_555
N12B C24B 1_555 1_555
H26B N12B 1_555 1_555
N13B C29B 1_555 1_555
N14B Mn3B 1_555 1_555
O1B C10B 1_555 1_555
H27B O1B 1_555 1_555
O2B Mn2B 1_555 1_555
O3B Mn2B 1_555 1_555
O4B Mn2B 1_555 1_555
O5B Mn2B 1_555 1_555
O6B C30B 1_555 1_555
H28B O6B 1_555 1_555
O7B C35B 1_555 1_555
H29B O7B 1_555 1_555
Mn1_2 N11B 1_555 1_555
Mn1_3 N11 1_555 1_555
Mn2_2 N8B 1_555 1_555
Mn2B_2 N8 1_555 1_555
Mn3_2 N3B 1_555 1_555
Mn3_3 N6B 1_555 1_555
Mn3B_2 N6 1_555 1_555
Mn3B_3 N3 1_555 1_555
N3_2 Mn3B 1_555 1_555
N3B_2 Mn3 1_555 1_555
N6_2 Mn3B 1_555 1_555
N6B_2 Mn3 1_555 1_555
N8_2 Mn2B 1_555 1_555
N8B_2 Mn2 1_555 1_555
N11_2 Mn1 1_555 1_555
N11B_2 Mn1 1_555 1_555
Mn3 O3 1_555 1_555
Mn3 O4 1_555 1_555
C9 N9 1_555 1_555
C13 N9 1_555 1_555
C15 O2 1_555 1_555
C18 N10 1_555 1_555
C20 O3 1_555 1_555
C23 N11 1_555 1_555
C25 O4 1_555 1_555
C28 N12 1_555 1_555
C33 N13 1_555 1_555
C34 N14 1_555 1_555
C38 N14 1_555 1_555
Mn3B O3B 1_555 1_555
Mn3B O4B 1_555 1_555
C9B N9B 1_555 1_555
C13B N9B 1_555 1_555
C15B O2B 1_555 1_555
C18B N10B 1_555 1_555
C20B O3B 1_555 1_555
C23B N11B 1_555 1_555
C25B O4B 1_555 1_555
C28B N12B 1_555 1_555
C33B N13B 1_555 1_555
C34B N14B 1_555 1_555
C38B N14B 1_555 1_555

#END
