
#######################################################################
#
#                 Cambridge Crystallographic Data Centre
#                                CCDC 
#
#######################################################################
#
# If this CIF has been generated from an entry in the Cambridge 
# Structural Database, then it will include bibliographic, chemical, 
# crystal, experimental, refinement or atomic coordinate data resulting 
# from the CCDC's data processing and validation procedures.
#
#######################################################################

data_XEVBOQ
_symmetry_cell_setting           orthorhombic
_symmetry_space_group_name_H-M   'P 21 21 21'
_symmetry_Int_Tables_number      19
_space_group_name_Hall           'P 2ac 2ab'
loop_
_symmetry_equiv_pos_site_id
_symmetry_equiv_pos_as_xyz
1 x,y,z
2 1/2-x,-y,1/2+z
3 1/2+x,1/2-y,-z
4 -x,1/2+y,1/2-z
_cell_length_a                   6.9797(4)
_cell_length_b                   8.2648(4)
_cell_length_c                   17.5935(6)
_cell_angle_alpha                90
_cell_angle_beta                 90
_cell_angle_gamma                90
_cell_volume                     1014.9
loop_
_atom_site_label
_atom_site_type_symbol
_atom_site_fract_x
_atom_site_fract_y
_atom_site_fract_z
Ag1 Ag 0.27976(4) 0.57121(3) 0.22438(2)
S1 S 0.07146(10) 0.33395(8) 0.27150(4)
S2 S -0.24565(10) 0.27306(9) 0.38140(4)
F1 F 0.4666(5) 0.4186(4) 0.03887(16)
F2 F 0.2276(4) 0.3027(4) 0.08886(15)
F3 F 0.4264(6) 0.1666(4) 0.02529(15)
O1 O 0.5455(5) 0.3764(4) 0.19026(16)
O2 O 0.5740(7) 0.1183(4) 0.1596(2)
C1 C -0.1164(4) 0.4228(4) 0.32771(19)
C2 C -0.0505(5) 0.1997(4) 0.44071(17)
C3 C 0.1176(5) 0.1306(4) 0.39719(19)
C4 C 0.2197(5) 0.2530(4) 0.34730(19)
C5 C 0.5257(5) 0.2579(4) 0.14904(18)
C6 C 0.4138(5) 0.2854(4) 0.0744(2)
H1 H -0.20480 0.47950 0.29450
H2 H -0.06120 0.50140 0.36230
H3 H -0.00510 0.28830 0.47210
H4 H -0.10000 0.11680 0.47440
H5 H 0.07230 0.04240 0.36550
H6 H 0.20870 0.08610 0.43320
H7 H 0.33160 0.20200 0.32500
H8 H 0.26390 0.34170 0.37880
Ag1C Ag -0.27976(4) 0.07121(3) 0.27562(2)
Ag1C_2 Ag 0.72024(4) 0.07121(3) 0.27562(2)
S2C S 0.24565(10) 0.77306(9) 0.11860(4)
O2C O 0.4260(7) 0.6183(4) 0.3404(2)
loop_
_geom_bond_atom_site_label_1
_geom_bond_atom_site_label_2
_geom_bond_site_symmetry_1
_geom_bond_site_symmetry_2
Ag1 S1 1_555 1_555
S1 C1 1_555 1_555
S2 C1 1_555 1_555
F1 C6 1_555 1_555
F2 C6 1_555 1_555
F3 C6 1_555 1_555
O1 Ag1 1_555 1_555
O2 C5 1_555 1_555
C1 H1 1_555 1_555
C2 S2 1_555 1_555
C3 C2 1_555 1_555
C4 S1 1_555 1_555
C5 O1 1_555 1_555
C6 C5 1_555 1_555
H2 C1 1_555 1_555
H3 C2 1_555 1_555
H4 C2 1_555 1_555
H5 C3 1_555 1_555
H6 C3 1_555 1_555
H7 C4 1_555 1_555
H8 C4 1_555 1_555
Ag1C S2 1_555 1_555
Ag1C_2 O2 1_555 1_555
S2C Ag1 1_555 1_555
O2C Ag1 1_555 1_555
C3 C4 1_555 1_555

#END
