
#######################################################################
#
#                 Cambridge Crystallographic Data Centre
#                                CCDC 
#
#######################################################################
#
# If this CIF has been generated from an entry in the Cambridge 
# Structural Database, then it will include bibliographic, chemical, 
# crystal, experimental, refinement or atomic coordinate data resulting 
# from the CCDC's data processing and validation procedures.
#
#######################################################################

data_XEVJEP
_symmetry_cell_setting           orthorhombic
_symmetry_space_group_name_H-M   'P c c n'
_symmetry_Int_Tables_number      56
_space_group_name_Hall           '-P 2ab 2ac'
loop_
_symmetry_equiv_pos_site_id
_symmetry_equiv_pos_as_xyz
1 x,y,z
2 1/2-x,1/2-y,z
3 -x,1/2+y,1/2-z
4 1/2+x,-y,1/2-z
5 -x,-y,-z
6 1/2+x,1/2+y,-z
7 x,1/2-y,1/2+z
8 1/2-x,y,1/2+z
_cell_length_a                   17.1691(4)
_cell_length_b                   13.5523(4)
_cell_length_c                   15.4503(5)
_cell_angle_alpha                90
_cell_angle_beta                 90
_cell_angle_gamma                90
_cell_volume                     3594.99
loop_
_atom_site_label
_atom_site_type_symbol
_atom_site_fract_x
_atom_site_fract_y
_atom_site_fract_z
Ni1 Ni 0.43593(3) 0.02523(4) 0.12260(4)
O1 O 0.55348(18) 0.0157(3) 0.1400(2)
C1 C 0.5981(2) -0.0139(3) 0.0813(3)
C2 C 0.6815(3) -0.0304(4) 0.1017(3)
O2 O 0.70922(17) -0.0180(2) 0.1841(2)
C3 C 0.7881(3) -0.0344(4) 0.1795(3)
C4 C 0.8094(3) -0.0553(6) 0.0969(4)
H1 H 0.8595 -0.0683 0.0770
C5 C 0.7401(3) -0.0534(5) 0.0470(3)
H2 H 0.7358 -0.0656 -0.0120
O3 O 0.5801(2) -0.0343(3) 0.0063(2)
O4 O 0.90838(19) -0.0286(3) 0.2472(2)
O5 O 0.80519(19) -0.0248(2) 0.3325(2)
C6 C 0.8351(3) -0.0286(3) 0.2592(3)
N1 N 0.4373(2) 0.1801(3) 0.1204(3)
C7 C 0.5022(3) 0.2297(4) 0.1045(5)
H3 H 0.5473 0.1937 0.0935
C8 C 0.5073(4) 0.3298(5) 0.1033(5)
H4 H 0.5551 0.3596 0.0923
C9 C 0.4428(3) 0.3876(4) 0.1179(3)
C10 C 0.3744(3) 0.3373(4) 0.1339(4)
H5 H 0.3284 0.3720 0.1432
C11 C 0.3744(3) 0.2356(4) 0.1363(5)
H6 H 0.3280 0.2037 0.1498
C12 C 0.4504(3) 0.4957(4) 0.1182(4)
H7 H 0.5007 0.5211 0.1202
C13 C 0.3936(3) 0.5594(4) 0.1160(4)
H8 H 0.3428 0.5357 0.1131
C14 C 0.4055(3) 0.6659(4) 0.1177(4)
C15 C 0.4692(3) 0.7106(4) 0.1591(4)
H9 H 0.5065 0.6720 0.1867
C16 C 0.3535(3) 0.7292(4) 0.0760(5)
H10 H 0.3108 0.7038 0.0465
N2 N 0.4257(2) 0.8725(3) 0.1196(3)
C17 C 0.4763(3) 0.8122(4) 0.1586(4)
H11 H 0.5187 0.8402 0.1870
C18 C 0.3661(3) 0.8300(4) 0.0787(4)
H12 H 0.3307 0.8706 0.0503
Ni1_2 Ni 0.43593(3) 1.02523(4) 0.12260(4)
Ni1C Ni 0.93593(3) -0.02523(4) 0.37740(4)
Ni1D Ni 0.56407(3) -0.02523(4) -0.12260(4)
O3D O 0.4199(2) 0.0343(3) -0.0063(2)
O4C O 0.40838(19) 0.0286(3) 0.2528(2)
O5C O 0.30519(19) 0.0248(2) 0.1675(2)
N2_2 N 0.4257(2) -0.1275(3) 0.1196(3)
loop_
_geom_bond_atom_site_label_1
_geom_bond_atom_site_label_2
_geom_bond_site_symmetry_1
_geom_bond_site_symmetry_2
Ni1 O1 1_555 1_555
O1 C1 1_555 1_555
C1 C2 1_555 1_555
C2 O2 1_555 1_555
O2 C3 1_555 1_555
C3 C4 1_555 1_555
C4 H1 1_555 1_555
C5 C2 1_555 1_555
H2 C5 1_555 1_555
O3 C1 1_555 1_555
O4 C6 1_555 1_555
O5 C6 1_555 1_555
C6 C3 1_555 1_555
N1 Ni1 1_555 1_555
C7 N1 1_555 1_555
H3 C7 1_555 1_555
C8 C7 1_555 1_555
H4 C8 1_555 1_555
C9 C8 1_555 1_555
C10 C9 1_555 1_555
H5 C10 1_555 1_555
C11 N1 1_555 1_555
H6 C11 1_555 1_555
C12 C9 1_555 1_555
H7 C12 1_555 1_555
C13 C12 1_555 1_555
H8 C13 1_555 1_555
C14 C13 1_555 1_555
C15 C14 1_555 1_555
H9 C15 1_555 1_555
C16 C14 1_555 1_555
H10 C16 1_555 1_555
N2 C17 1_555 1_555
C17 C15 1_555 1_555
H11 C17 1_555 1_555
C18 C16 1_555 1_555
H12 C18 1_555 1_555
Ni1_2 N2 1_555 1_555
Ni1C O4 1_555 1_555
Ni1D O3 1_555 1_555
O3D Ni1 1_555 1_555
O4C Ni1 1_555 1_555
O5C Ni1 1_555 1_555
N2_2 Ni1 1_555 1_555
C4 C5 1_555 1_555
O5 Ni1C 1_555 1_555
C10 C11 1_555 1_555
N2 C18 1_555 1_555

#END
