
#######################################################################
#
#                 Cambridge Crystallographic Data Centre
#                                CCDC 
#
#######################################################################
#
# If this CIF has been generated from an entry in the Cambridge 
# Structural Database, then it will include bibliographic, chemical, 
# crystal, experimental, refinement or atomic coordinate data resulting 
# from the CCDC's data processing and validation procedures.
#
#######################################################################

data_XEVJAL
_symmetry_cell_setting           monoclinic
_symmetry_space_group_name_H-M   'P 21/c'
_symmetry_Int_Tables_number      14
_space_group_name_Hall           '-P 2ybc'
loop_
_symmetry_equiv_pos_site_id
_symmetry_equiv_pos_as_xyz
1 x,y,z
2 -x,1/2+y,1/2-z
3 -x,-y,-z
4 x,1/2-y,1/2+z
_cell_length_a                   13.6268(5)
_cell_length_b                   16.8885(6)
_cell_length_c                   15.9853(5)
_cell_angle_alpha                90
_cell_angle_beta                 93.269(2)
_cell_angle_gamma                90
_cell_volume                     3672.81
loop_
_atom_site_label
_atom_site_type_symbol
_atom_site_fract_x
_atom_site_fract_y
_atom_site_fract_z
Co1 Co 0.02156(4) 0.06609(3) 0.12080(3)
O1 O -0.0429(2) -0.40824(17) 0.25158(18)
O2 O -0.0228(2) -0.30021(18) 0.32782(17)
C1 C -0.0350(3) -0.3346(2) 0.2586(2)
O3 O -0.0027(3) -0.08897(19) 0.00117(18)
O4 O 0.0163(2) -0.05506(16) 0.13539(17)
C2 C -0.0038(3) -0.1036(2) 0.0774(2)
C3 C -0.0286(3) -0.1857(2) 0.0980(2)
O5 O -0.0193(2) -0.21039(15) 0.17965(15)
C4 C -0.0429(3) -0.2893(2) 0.1787(2)
C5 C -0.0668(4) -0.3133(3) 0.0995(3)
H1 H -0.0862 -0.3639 0.0826
C6 C -0.0564(4) -0.2462(3) 0.0473(3)
H2 H -0.0667 -0.2444 -0.0107
N1 N -0.8212(3) 0.0692(2) 0.1113(2)
C7 C -0.7633(3) 0.1272(3) 0.1406(4)
H3 H -0.7928 0.1706 0.1648
N2 N -0.1340(2) 0.0734(2) 0.1286(2)
C8 C -0.1838(3) 0.1350(3) 0.0959(3)
H4 H -0.1495 0.1721 0.0660
C9 C -0.2845(4) 0.1473(3) 0.1038(4)
C10 C -0.3369(3) 0.0938(3) 0.1491(3)
C11 C -0.2856(3) 0.0278(3) 0.1808(3)
H5 H -0.3183 -0.0114 0.2092
C12 C -0.1864(3) 0.0207(3) 0.1698(3)
H6 H -0.1539 -0.0235 0.1924
C13 C -0.4443(3) 0.1045(3) 0.1610(3)
H7 H -0.4588 0.0873 0.2168
H8 H -0.4610 0.1602 0.1558
C14 C -0.5052(3) 0.0584(3) 0.0979(3)
H9 H -0.4867 0.0031 0.1031
H10 H -0.4891 0.0758 0.0425
C15 C -0.6157(3) 0.0644(3) 0.1038(3)
C16 C -0.6627(3) 0.1275(3) 0.1376(4)
H11 H -0.6265 0.1706 0.1584
C17 C -0.7760(4) 0.0083(4) 0.0768(4)
C18 C -0.6758(4) 0.0040(4) 0.0730(4)
H12 H -0.6478 -0.0403 0.0493
Co1_2 Co -0.97844(4) 0.06609(3) 0.12080(3)
Co1A Co -0.02156(4) -0.43391(3) 0.37920(3)
Co1B Co -0.02156(4) -0.06609(3) -0.12080(3)
O1A O 0.0429(2) 0.09176(17) 0.24842(18)
O2A O 0.0228(2) 0.19979(18) 0.17218(17)
O3B O 0.0027(3) 0.08897(19) -0.00117(18)
N1_2 N 0.1788(3) 0.0692(2) 0.1113(2)
Co2 Co 0.47187(4) 0.43910(3) 0.11730(3)
O6 O 0.4667(2) 0.08603(17) -0.25373(19)
O7 O 0.4745(2) 0.19539(18) -0.32903(17)
C19 C 0.4680(3) 0.1607(2) -0.2605(2)
O8 O 0.5177(2) 0.43926(15) -0.12937(17)
O9 O 0.4589(2) 0.41166(17) -0.00493(16)
C20 C 0.4809(3) 0.3938(2) -0.0770(2)
C21 C 0.4621(3) 0.3102(2) -0.1007(2)
O10 O 0.4789(2) 0.28478(15) -0.17988(15)
C22 C 0.4577(3) 0.2056(2) -0.1817(2)
C23 C 0.4292(4) 0.1816(3) -0.1065(3)
H13 H 0.4116 0.1304 -0.0917
C24 C 0.4314(4) 0.2496(3) -0.0538(3)
H14 H 0.4149 0.2519 0.0018
N3 N -0.3728(2) 0.42693(19) 0.1223(2)
C25 C -0.3145(3) 0.4729(3) 0.1707(3)
H15 H -0.3434 0.5131 0.2006
C26 C -0.2139(4) 0.4645(3) 0.1794(4)
H16 H -0.1767 0.4988 0.2140
C27 C -0.1685(3) 0.4051(3) 0.1365(4)
C28 C -0.2281(3) 0.3588(3) 0.0840(3)
H17 H -0.2008 0.3196 0.0519
C29 C -0.3292(3) 0.3708(3) 0.0792(3)
H18 H -0.3681 0.3381 0.0443
N4 N 0.3132(2) 0.4409(2) 0.1130(2)
C30 C 0.2636(3) 0.5077(3) 0.0990(4)
H19 H 0.2988 0.5537 0.0894
C31 C 0.1628(4) 0.5123(3) 0.0978(4)
H20 H 0.1319 0.5607 0.0878
C32 C 0.1071(3) 0.4460(3) 0.1113(3)
C33 C 0.1588(3) 0.3765(3) 0.1276(3)
H21 H 0.1255 0.3299 0.1385
C34 C 0.2594(3) 0.3770(3) 0.1275(3)
H22 H 0.2924 0.3296 0.1383
C35 C -0.0040(4) 0.4528(4) 0.1069(5)
H23 H -0.0208 0.5035 0.1309
H24 H -0.0266 0.4540 0.0483
C36 C -0.0588(4) 0.3926(4) 0.1474(5)
H25 H -0.0394 0.3921 0.2067
H26 H -0.0426 0.3413 0.1245
Co2_2 Co -0.52813(4) 0.43910(3) 0.11730(3)
Co2B Co 0.52813(4) 0.56090(3) -0.11730(3)
Co2C Co 0.47187(4) 0.06090(3) -0.38270(3)
O6C O 0.4667(2) 0.41397(17) 0.24627(19)
O7C O 0.4745(2) 0.30461(18) 0.17097(17)
O8B O 0.4823(2) 0.56074(15) 0.12937(17)
N3_2 N 0.6272(2) 0.42693(19) 0.1223(2)
loop_
_geom_bond_atom_site_label_1
_geom_bond_atom_site_label_2
_geom_bond_site_symmetry_1
_geom_bond_site_symmetry_2
Co1 O4 1_555 1_555
O1 C1 1_555 1_555
O2 C1 1_555 1_555
C1 C4 1_555 1_555
O3 C2 1_555 1_555
O4 C2 1_555 1_555
C2 C3 1_555 1_555
C3 O5 1_555 1_555
O5 C4 1_555 1_555
C4 C5 1_555 1_555
C5 H1 1_555 1_555
C6 C3 1_555 1_555
H2 C6 1_555 1_555
N1 C7 1_555 1_555
C7 H3 1_555 1_555
N2 Co1 1_555 1_555
C8 N2 1_555 1_555
H4 C8 1_555 1_555
C9 C8 1_555 1_555
C10 C9 1_555 1_555
C11 C10 1_555 1_555
H5 C11 1_555 1_555
C12 N2 1_555 1_555
H6 C12 1_555 1_555
C13 C10 1_555 1_555
H7 C13 1_555 1_555
H8 C13 1_555 1_555
C14 C13 1_555 1_555
H9 C14 1_555 1_555
H10 C14 1_555 1_555
C15 C14 1_555 1_555
C16 C7 1_555 1_555
H11 C16 1_555 1_555
C17 N1 1_555 1_555
C18 C15 1_555 1_555
H12 C18 1_555 1_555
Co2 O9 1_555 1_555
O6 C19 1_555 1_555
O7 C19 1_555 1_555
C19 C22 1_555 1_555
O8 C20 1_555 1_555
O9 C20 1_555 1_555
C20 C21 1_555 1_555
C21 O10 1_555 1_555
O10 C22 1_555 1_555
C22 C23 1_555 1_555
C23 H13 1_555 1_555
C24 C21 1_555 1_555
H14 C24 1_555 1_555
N3 C25 1_555 1_555
C25 H15 1_555 1_555
C26 C25 1_555 1_555
H16 C26 1_555 1_555
C27 C26 1_555 1_555
C28 C27 1_555 1_555
H17 C28 1_555 1_555
C29 N3 1_555 1_555
H18 C29 1_555 1_555
N4 Co2 1_555 1_555
C30 N4 1_555 1_555
H19 C30 1_555 1_555
C31 C30 1_555 1_555
H20 C31 1_555 1_555
C32 C31 1_555 1_555
C33 C32 1_555 1_555
H21 C33 1_555 1_555
C34 N4 1_555 1_555
H22 C34 1_555 1_555
C35 C32 1_555 1_555
H23 C35 1_555 1_555
H24 C35 1_555 1_555
C36 C27 1_555 1_555
H25 C36 1_555 1_555
H26 C36 1_555 1_555
Co1_2 N1 1_555 1_555
Co1A O1 1_555 1_555
Co1B O3 1_555 1_555
O1A Co1 1_555 1_555
O2A Co1 1_555 1_555
O3B Co1 1_555 1_555
N1_2 Co1 1_555 1_555
Co2_2 N3 1_555 1_555
Co2B O8 1_555 1_555
Co2C O6 1_555 1_555
O6C Co2 1_555 1_555
O7C Co2 1_555 1_555
O8B Co2 1_555 1_555
N3_2 Co2 1_555 1_555
O2 Co1A 1_555 1_555
C5 C6 1_555 1_555
C11 C12 1_555 1_555
C15 C16 1_555 1_555
C17 C18 1_555 1_555
O7 Co2C 1_555 1_555
C23 C24 1_555 1_555
C28 C29 1_555 1_555
C33 C34 1_555 1_555
C35 C36 1_555 1_555

#END
