
#######################################################################
#
#                 Cambridge Crystallographic Data Centre
#                                CCDC 
#
#######################################################################
#
# If this CIF has been generated from an entry in the Cambridge 
# Structural Database, then it will include bibliographic, chemical, 
# crystal, experimental, refinement or atomic coordinate data resulting 
# from the CCDC's data processing and validation procedures.
#
#######################################################################

data_XEVLUF
_symmetry_cell_setting           monoclinic
_symmetry_space_group_name_H-M   'P 21/c'
_symmetry_Int_Tables_number      14
_space_group_name_Hall           '-P 2ybc'
loop_
_symmetry_equiv_pos_site_id
_symmetry_equiv_pos_as_xyz
1 x,y,z
2 x,1/2-y,1/2+z
3 -x,-y,-z
4 -x,1/2+y,1/2-z
_cell_length_a                   7.711(2)
_cell_length_b                   15.574(3)
_cell_length_c                   9.341(2)
_cell_angle_alpha                90.00
_cell_angle_beta                 96.73(3)
_cell_angle_gamma                90.00
_cell_volume                     1114.04
loop_
_atom_site_label
_atom_site_type_symbol
_atom_site_fract_x
_atom_site_fract_y
_atom_site_fract_z
Ca1 Ca -0.23284(13) 0.22160(6) 0.02549(10)
O1 O -0.2189(5) 0.2949(2) -0.1960(4)
O2 O -0.2127(6) 0.4084(2) -0.3349(4)
O3 O -0.3326(6) 0.6059(3) 0.2740(4)
O4 O -0.2341(5) 0.6820(2) 0.0995(4)
O5 O -0.0493(5) 0.1371(3) -0.1138(4)
H1 H -0.0034 0.1631 -0.1841
H2 H 0.0258 0.1110 -0.0514
O6 O -0.5215(4) 0.2453(2) 0.1072(4)
H3 H -0.5671 0.2003 0.1453
H4 H -0.5858 0.2714 0.0421
O7 O 0.0537(5) 0.2715(2) 0.1330(4)
H5 H 0.1153 0.2954 0.0491
H6 H 0.1044 0.2329 0.1998
O8 O -0.4359(5) 0.1441(2) -0.1519(4)
H7 H -0.5342 0.1238 -0.1129
H8 H -0.4772 0.1771 -0.2234
N1 N -0.2663(6) 0.3911(3) 0.0358(4)
N2 N -0.2812(6) 0.4544(3) 0.1286(4)
H11 H -0.3155 0.4404 0.2191
C1 C -0.2218(6) 0.3753(3) -0.2132(5)
C2 C -0.2388(6) 0.4299(3) -0.0863(5)
C3 C -0.2339(7) 0.5187(3) -0.0700(5)
H12 H -0.2185 0.5569 -0.1354
C4 C -0.2623(6) 0.5330(3) 0.0703(5)
C5 C -0.2772(7) 0.6129(3) 0.1542(5)
O1A O -0.2189(5) 0.2051(2) 0.3040(4)
Ca1A Ca -0.23284(13) 0.27840(6) -0.47451(10)
O2A O -0.2127(6) 0.0916(2) 0.1651(4)
O9 O -0.2833(5) 0.5645(2) 0.5567(4)
H9 H -0.2783 0.5684 0.4621
H10 H -0.2776 0.5157 0.5900
loop_
_geom_bond_atom_site_label_1
_geom_bond_atom_site_label_2
_geom_bond_site_symmetry_1
_geom_bond_site_symmetry_2
Ca1 O1 1_555 1_555
O1 C1 1_555 1_555
O2 C1 1_555 1_555
O3 C5 1_555 1_555
O4 C5 1_555 1_555
O5 Ca1 1_555 1_555
H1 O5 1_555 1_555
H2 O5 1_555 1_555
O6 Ca1 1_555 1_555
H3 O6 1_555 1_555
H4 O6 1_555 1_555
O7 Ca1 1_555 1_555
H5 O7 1_555 1_555
H6 O7 1_555 1_555
O8 Ca1 1_555 1_555
H7 O8 1_555 1_555
H8 O8 1_555 1_555
O9 H9 1_555 1_555
H10 O9 1_555 1_555
N1 Ca1 1_555 1_555
N2 N1 1_555 1_555
H11 N2 1_555 1_555
C1 C2 1_555 1_555
C2 N1 1_555 1_555
C3 C2 1_555 1_555
H12 C3 1_555 1_555
C4 N2 1_555 1_555
C5 C4 1_555 1_555
O1A Ca1 1_555 1_555
Ca1A O1 1_555 1_555
O2A Ca1 1_555 1_555
O2 Ca1A 1_555 1_555
C3 C4 1_555 1_555

#END
