
#######################################################################
#
#                 Cambridge Crystallographic Data Centre
#                                CCDC 
#
#######################################################################
#
# If this CIF has been generated from an entry in the Cambridge 
# Structural Database, then it will include bibliographic, chemical, 
# crystal, experimental, refinement or atomic coordinate data resulting 
# from the CCDC's data processing and validation procedures.
#
#######################################################################

data_XEVNAP
_symmetry_cell_setting           triclinic
_symmetry_space_group_name_H-M   'P -1'
_symmetry_Int_Tables_number      2
_space_group_name_Hall           '-P 1'
loop_
_symmetry_equiv_pos_site_id
_symmetry_equiv_pos_as_xyz
1 x,y,z
2 -x,-y,-z
_cell_length_a                   9.3474(6)
_cell_length_b                   9.9968(6)
_cell_length_c                   11.2297(7)
_cell_angle_alpha                84.6260(10)
_cell_angle_beta                 70.0640(10)
_cell_angle_gamma                83.6780(10)
_cell_volume                     978.697
loop_
_atom_site_label
_atom_site_type_symbol
_atom_site_fract_x
_atom_site_fract_y
_atom_site_fract_z
Mo1 Mo 0.82785(2) 0.80401(2) 0.59107(2)
Mo2 Mo 0.43779(2) 0.92230(2) 0.666592(19)
Cu1 Cu 0.30997(3) 0.52122(3) 1.04331(3)
P1 P 0.58069(7) 0.76376(6) 0.88141(6)
F1 F 0.65983(16) 0.96639(15) 0.66253(14)
F2 F 0.61297(17) 0.75777(15) 0.58783(15)
F3 F 0.84711(19) 0.88299(18) 0.42968(16)
O1 O 0.4526(2) 0.80769(19) 0.82766(17)
O2 O 0.5445(2) 0.63283(18) 0.96484(17)
O3 O 0.7368(2) 0.7392(2) 0.77864(17)
O4 O 0.2943(2) 0.8324(2) 0.66712(18)
O5 O 0.3477(2) 1.0563(2) 0.75345(19)
O6 O 0.5000 1.0000 0.5000
O7 O 0.9625(2) 0.88285(19) 0.62462(19)
O8 O 0.9143(2) 0.6485(2) 0.55138(19)
N1 N 0.2490(2) 0.4887(2) 0.89063(19)
N2 N 0.1707(2) 0.6781(2) 1.04326(19)
N3 N 0.2913(2) 0.5935(2) 1.2106(2)
C1 C 0.2831(3) 0.3787(2) 0.8228(2)
H1 H 0.3486 0.3070 0.8422
C2 C 0.2266(3) 0.3655(3) 0.7253(2)
H2 H 0.2526 0.2861 0.6795
C3 C 0.1316(3) 0.4702(3) 0.6961(2)
H3 H 0.0913 0.4637 0.6299
C4 C 0.0962(3) 0.5849(3) 0.7652(3)
H4 H 0.0319 0.6583 0.7467
C5 C 0.1565(3) 0.5902(2) 0.8616(2)
C6 C 0.1228(3) 0.7055(2) 0.9432(2)
C7 C 0.1462(3) 0.7671(2) 1.1309(2)
C8 C 0.0739(3) 0.8946(3) 1.1189(2)
H5 H 0.0532 0.9565 1.1831
C9 C 0.0322(3) 0.9301(2) 1.0113(2)
C10 C 0.0533(3) 0.8324(2) 0.9234(2)
H6 H 0.0209 0.8524 0.8517
C11 C 0.2121(3) 0.7169(2) 1.2307(2)
C12 C 0.3575(3) 0.5407(3) 1.2949(2)
H7 H 0.4123 0.4545 1.2822
C13 C 0.3486(3) 0.6081(3) 1.4009(2)
H8 H 0.3969 0.5682 1.4591
C14 C 0.2689(3) 0.7335(3) 1.4203(2)
H9 H 0.2618 0.7811 1.4917
C15 C 0.1987(3) 0.7892(3) 1.3330(2)
H10 H 0.1430 0.8752 1.3442
C16 C 0.5924(4) 0.8923(3) 0.9776(4)
C17 C 0.4442(6) 0.9652(5) 1.0406(5)
P1A P 0.41931(7) 1.23624(6) 1.11859(6)
O1A O 0.5474(2) 1.19231(19) 1.17234(17)
O2A O 0.4555(2) 1.36717(18) 1.03516(17)
O3A O 0.2632(2) 1.2608(2) 1.22136(17)
C16A C 0.4076(4) 1.1077(3) 1.0224(4)
C17A C 0.5558(6) 1.0348(5) 0.9594(5)
N1A N -0.2490(2) 1.5113(2) 1.10937(19)
N2A N -0.1707(2) 1.3219(2) 0.95674(19)
N3A N -0.2913(2) 1.4065(2) 0.7894(2)
C1A C -0.2831(3) 1.6213(2) 1.1772(2)
H1A H -0.3486 1.6930 1.1578
C2A C -0.2266(3) 1.6345(3) 1.2747(2)
H2A H -0.2526 1.7139 1.3205
C3A C -0.1316(3) 1.5298(3) 1.3039(2)
H3A H -0.0913 1.5363 1.3701
C4A C -0.0962(3) 1.4151(3) 1.2348(3)
H4A H -0.0319 1.3417 1.2533
C5A C -0.1565(3) 1.4098(2) 1.1384(2)
C6A C -0.1228(3) 1.2945(2) 1.0568(2)
C7A C -0.1462(3) 1.2329(2) 0.8691(2)
C8A C -0.0739(3) 1.1054(3) 0.8811(2)
H5A H -0.0532 1.0435 0.8169
C9A C -0.0322(3) 1.0699(2) 0.9887(2)
C10A C -0.0533(3) 1.1676(2) 1.0766(2)
H6A H -0.0209 1.1476 1.1483
C11A C -0.2121(3) 1.2831(2) 0.7693(2)
C12A C -0.3575(3) 1.4593(3) 0.7051(2)
H7A H -0.4123 1.5455 0.7178
C13A C -0.3486(3) 1.3919(3) 0.5991(2)
H8A H -0.3969 1.4318 0.5409
C14A C -0.2689(3) 1.2665(3) 0.5797(2)
H9A H -0.2618 1.2189 0.5083
C15A C -0.1987(3) 1.2108(3) 0.6670(2)
H10A H -0.1430 1.1248 0.6558
Cu1A Cu -0.30997(3) 1.47878(3) 0.95669(3)
Mo1A Mo 0.17215(2) 1.19599(2) 0.40893(2)
Mo2A Mo 0.56221(2) 1.07770(2) 0.333408(19)
F1A F 0.34017(16) 1.03361(15) 0.33747(14)
F2A F 0.38703(17) 1.24223(15) 0.41217(15)
F3A F 0.15289(19) 1.11701(18) 0.57032(16)
O4A O 0.7057(2) 1.1676(2) 0.33288(18)
O5A O 0.6523(2) 0.9437(2) 0.24655(19)
O7A O 0.0375(2) 1.11715(19) 0.37538(19)
O8A O 0.0857(2) 1.3515(2) 0.44862(19)
Mo1A_2 Mo 0.17215(2) 1.19599(2) 1.40893(2)
Mo2A_2 Mo 0.56221(2) 1.07770(2) 1.333408(19)
Cu1_2 Cu 0.30997(3) 1.52122(3) 1.04331(3)
Cu1A_2 Cu 0.69003(3) 0.47878(3) 0.95669(3)
Cu1A_3 Cu 0.69003(3) 1.47878(3) 0.95669(3)
O1A_2 O 0.5474(2) 1.19231(19) 0.17234(17)
O2_2 O -0.4555(2) 1.63283(18) 0.96484(17)
O2A_2 O -0.5445(2) 1.36717(18) 1.03516(17)
O2A_3 O 0.4555(2) 0.36717(18) 1.03516(17)
O3A_2 O 0.2632(2) 1.2608(2) 0.22136(17)
loop_
_geom_bond_atom_site_label_1
_geom_bond_atom_site_label_2
_geom_bond_site_symmetry_1
_geom_bond_site_symmetry_2
Mo1 F1 1_555 1_555
Mo2 F1 1_555 1_555
Cu1 O2 1_555 1_555
P1 O1 1_555 1_555
F2 Mo1 1_555 1_555
F3 Mo1 1_555 1_555
O1 Mo2 1_555 1_555
O2 P1 1_555 1_555
O3 Mo1 1_555 1_555
O4 Mo2 1_555 1_555
O5 Mo2 1_555 1_555
O6 Mo2 1_555 1_555
O7 Mo1 1_555 1_555
O8 Mo1 1_555 1_555
N1 Cu1 1_555 1_555
N2 Cu1 1_555 1_555
N3 Cu1 1_555 1_555
C1 N1 1_555 1_555
H1 C1 1_555 1_555
C2 C1 1_555 1_555
H2 C2 1_555 1_555
C3 C2 1_555 1_555
H3 C3 1_555 1_555
C4 C3 1_555 1_555
H4 C4 1_555 1_555
C5 N1 1_555 1_555
C6 N2 1_555 1_555
C7 N2 1_555 1_555
C8 C7 1_555 1_555
H5 C8 1_555 1_555
C9 C8 1_555 1_555
C10 C6 1_555 1_555
H6 C10 1_555 1_555
C11 N3 1_555 1_555
C12 N3 1_555 1_555
H7 C12 1_555 1_555
C13 C12 1_555 1_555
H8 C13 1_555 1_555
C14 C13 1_555 1_555
H9 C14 1_555 1_555
C15 C11 1_555 1_555
H10 C15 1_555 1_555
C16 P1 1_555 1_555
C17 C16 1_555 1_555
P1A O1A 1_555 1_555
O1A Mo2A_2 1_555 1_555
O2A P1A 1_555 1_555
O3A P1A 1_555 1_555
C16A C17 1_555 1_555
C17A C16 1_555 1_555
N1A C1A 1_555 1_555
N2A C6A 1_555 1_555
N3A C11A 1_555 1_555
C1A H1A 1_555 1_555
C2A C1A 1_555 1_555
H2A C2A 1_555 1_555
C3A C2A 1_555 1_555
H3A C3A 1_555 1_555
C4A C3A 1_555 1_555
H4A C4A 1_555 1_555
C5A N1A 1_555 1_555
C6A C5A 1_555 1_555
C7A N2A 1_555 1_555
C8A C7A 1_555 1_555
H5A C8A 1_555 1_555
C9A C9 1_555 1_555
C10A C6A 1_555 1_555
H6A C10A 1_555 1_555
C11A C7A 1_555 1_555
C12A N3A 1_555 1_555
H7A C12A 1_555 1_555
C13A C12A 1_555 1_555
H8A C13A 1_555 1_555
C14A C13A 1_555 1_555
H9A C14A 1_555 1_555
C15A C11A 1_555 1_555
H10A C15A 1_555 1_555
Cu1A N1A 1_555 1_555
Mo1A F1A 1_555 1_555
Mo2A O6 1_555 1_555
F1A Mo2A 1_555 1_555
F2A Mo1A 1_555 1_555
F3A Mo1A 1_555 1_555
O4A Mo2A 1_555 1_555
O5A Mo2A 1_555 1_555
O7A Mo1A 1_555 1_555
O8A Mo1A 1_555 1_555
Mo1A_2 O3A 1_555 1_555
Cu1_2 O2A 1_555 1_555
Cu1A_2 O2 1_555 1_555
Cu1A_3 O2A 1_555 1_555
O1A_2 Mo2A 1_555 1_555
O2_2 Cu1A 1_555 1_555
O2A_2 Cu1A 1_555 1_555
O2A_3 Cu1 1_555 1_555
O3A_2 Mo1A 1_555 1_555
Mo2 F2 1_555 1_555
P1 O3 1_555 1_555
C4 C5 1_555 1_555
C5 C6 1_555 1_555
C7 C11 1_555 1_555
C9 C10 1_555 1_555
C14 C15 1_555 1_555
C17 C17A 1_555 1_555
P1A C16A 1_555 1_555
C16A C17A 1_555 1_555
N2A Cu1A 1_555 1_555
N3A Cu1A 1_555 1_555
C4A C5A 1_555 1_555
C8A C9A 1_555 1_555
C9A C10A 1_555 1_555
C14A C15A 1_555 1_555
Mo2A F2A 1_555 1_555
Cu1A_2 O2A_3 1_555 1_555

#END
