
#######################################################################
#
#                 Cambridge Crystallographic Data Centre
#                                CCDC 
#
#######################################################################
#
# If this CIF has been generated from an entry in the Cambridge 
# Structural Database, then it will include bibliographic, chemical, 
# crystal, experimental, refinement or atomic coordinate data resulting 
# from the CCDC's data processing and validation procedures.
#
#######################################################################

data_XEVSIB01
_symmetry_cell_setting           triclinic
_symmetry_space_group_name_H-M   'P -1'
_symmetry_Int_Tables_number      2
_space_group_name_Hall           '-P 1'
loop_
_symmetry_equiv_pos_site_id
_symmetry_equiv_pos_as_xyz
1 x,y,z
2 -x,-y,-z
_cell_length_a                   6.5223(9)
_cell_length_b                   9.0150(15)
_cell_length_c                   10.9537(18)
_cell_angle_alpha                111.467(7)
_cell_angle_beta                 92.152(4)
_cell_angle_gamma                94.949(6)
_cell_volume                     595.486
loop_
_atom_site_label
_atom_site_type_symbol
_atom_site_fract_x
_atom_site_fract_y
_atom_site_fract_z
Co1 Co 0.59659(6) 0.44713(5) -0.38754(4)
Co2 Co 0.25469(6) 0.18564(5) -0.57958(4)
O1 O 0.3173(3) 0.4299(3) -0.4884(2)
O2 O 0.4388(4) 0.3750(3) 0.2067(2)
O3 O 0.2519(4) 0.1742(3) 0.2365(2)
O4 O 0.5208(4) 0.2992(3) -0.2814(2)
O5 O 0.2389(4) 0.1515(3) -0.4011(2)
O6 O 0.0655(3) -0.2112(3) -0.4430(2)
O7 O 0.4031(3) -0.2079(3) -0.4444(2)
C1 C 0.3367(5) 0.2376(4) 0.1654(3)
C2 C 0.3135(5) 0.1420(4) 0.0205(3)
C3 C 0.2357(5) -0.0179(4) -0.0217(3)
H1 H 0.1965 -0.0632 0.0409
C4 C 0.2144(5) -0.1124(4) -0.1545(3)
H2 H 0.1653 -0.2229 -0.1824
C5 C 0.2649(5) -0.0459(4) -0.2468(3)
C6 C 0.2429(5) -0.1591(4) -0.3879(3)
C7 C 0.3360(5) 0.1161(4) -0.2057(3)
C8 C 0.3694(5) 0.1951(4) -0.3041(3)
C9 C 0.3641(5) 0.2090(4) -0.0717(3)
H3 H 0.4181 0.3185 -0.0433
H4 H 0.2277 0.4778 -0.4385
H5 H 0.9263 0.3688 -0.4002
H6 H 0.9753 0.4646 -0.2615
H7 H 0.0564 -0.0850 -0.6359
H8 H 0.2283 -0.1447 -0.6586
O8 O 0.9123(4) 0.4529(3) -0.3341(2)
O9 O 0.1721(4) -0.0646(3) -0.6625(3)
Co1A Co 0.40341(6) 0.55287(5) 0.38754(4)
Co1A_2 Co 0.40341(6) -0.44713(5) -0.61246(4)
Co1A_3 Co 0.40341(6) 0.55287(5) -0.61246(4)
Co2_2 Co 0.25469(6) 0.18564(5) 0.42042(4)
Co2A Co -0.25469(6) -0.18564(5) -0.42042(4)
Co2A_2 Co 0.74531(6) -0.18564(5) -0.42042(4)
O1A O 0.6827(3) 0.5701(3) -0.5116(2)
O2A O 0.5612(4) 0.6250(3) -0.2067(2)
O3_2 O 0.2519(4) 0.1742(3) -0.7635(2)
O6A O -0.0655(3) 0.2112(3) -0.5570(2)
O7A O 0.5969(3) 0.2079(3) -0.5556(2)
H4A H 0.7723 0.5222 -0.5615
O10 O -0.1756(7) 0.4689(6) 0.1119(5)
O11? O 0.121(2) 0.646(2) 0.1123(12)
loop_
_geom_bond_atom_site_label_1
_geom_bond_atom_site_label_2
_geom_bond_site_symmetry_1
_geom_bond_site_symmetry_2
Co1 O1 1_555 1_555
Co2 O1 1_555 1_555
O1 H4 1_555 1_555
O2 C1 1_555 1_555
O3 C1 1_555 1_555
O4 Co1 1_555 1_555
O5 Co2 1_555 1_555
O6 C6 1_555 1_555
O7 C6 1_555 1_555
C1 C2 1_555 1_555
C2 C3 1_555 1_555
C3 H1 1_555 1_555
C4 C3 1_555 1_555
H2 C4 1_555 1_555
C5 C4 1_555 1_555
C6 C5 1_555 1_555
C7 C5 1_555 1_555
C8 O4 1_555 1_555
C9 C2 1_555 1_555
H3 C9 1_555 1_555
H5 O8 1_555 1_555
H6 O8 1_555 1_555
H7 O9 1_555 1_555
H8 O9 1_555 1_555
O8 Co1 1_555 1_555
O9 Co2 1_555 1_555
Co1A O2 1_555 1_555
Co1A_2 O7 1_555 1_555
Co1A_3 O1 1_555 1_555
Co2_2 O3 1_555 1_555
Co2A O6 1_555 1_555
Co2A_2 O7 1_555 1_555
O1A Co1 1_555 1_555
O2A Co1 1_555 1_555
O3_2 Co2 1_555 1_555
O6A Co2 1_555 1_555
O7A Co1 1_555 1_555
H4A O1A 1_555 1_555
Co2 O7A 1_555 1_555
O5 C8 1_555 1_555
C7 C8 1_555 1_555
C7 C9 1_555 1_555
Co1A_3 O1A 1_555 1_555

#END
