
#######################################################################
#
#                 Cambridge Crystallographic Data Centre
#                                CCDC 
#
#######################################################################
#
# If this CIF has been generated from an entry in the Cambridge 
# Structural Database, then it will include bibliographic, chemical, 
# crystal, experimental, refinement or atomic coordinate data resulting 
# from the CCDC's data processing and validation procedures.
#
#######################################################################

data_XEVVUQ
_symmetry_cell_setting           monoclinic
_symmetry_space_group_name_H-M   'P 21/n'
_symmetry_Int_Tables_number      14
_space_group_name_Hall           '-P 2yn'
loop_
_symmetry_equiv_pos_site_id
_symmetry_equiv_pos_as_xyz
1 x,y,z
2 1/2-x,1/2+y,1/2-z
3 -x,-y,-z
4 1/2+x,1/2-y,1/2+z
_cell_length_a                   8.47380(10)
_cell_length_b                   16.6853(2)
_cell_length_c                   16.2148(3)
_cell_angle_alpha                90
_cell_angle_beta                 95.9190(10)
_cell_angle_gamma                90
_cell_volume                     2280.35
loop_
_atom_site_label
_atom_site_type_symbol
_atom_site_fract_x
_atom_site_fract_y
_atom_site_fract_z
P1 P -0.18635(10) 0.53488(5) 0.76918(5)
H1 H -0.2304 0.4997 0.8094
P2 P 0.30060(10) 0.23584(5) 0.70784(5)
H2 H 0.4038 0.2533 0.7346
P3 P 0.01817(10) 0.28537(5) 0.89068(5)
H3 H 0.1333 0.2879 0.9048
P4 P -0.19845(10) 0.24924(5) 0.66253(5)
H4 H -0.2519 0.2521 0.7133
O1 O 0.2016(3) 0.31037(16) 0.69233(19)
O2 O -0.0876(3) 0.48385(15) 0.71646(16)
O3 O -0.0261(3) 0.34365(16) 0.82036(15)
O4 O -0.1244(3) 0.33088(14) 0.64918(15)
O5 O 0.2224(3) 0.44349(15) 0.80046(15)
O6 O 0.1628(3) 0.45961(15) 0.63569(14)
O7 O 0.3316(3) 0.19757(16) 0.62548(15)
O8 O -0.0867(3) 0.59837(15) 0.81689(15)
O9 O -0.3238(3) 0.23060(15) 0.59037(15)
O10 O -0.0610(3) 0.30763(15) 0.96742(14)
O11 O 0.3528(3) 0.05230(14) 0.54403(15)
O12 O 0.3436(3) -0.06750(14) 0.48112(15)
O13 O -0.0254(3) 0.19969(15) 0.86495(16)
O14 O -0.3237(3) 0.57030(16) 0.71327(16)
O15 O -0.0740(3) 0.18325(14) 0.67393(15)
O16 O 0.2328(3) 0.17864(17) 0.76728(15)
O17 O 0.4046(3) 0.54032(15) 0.80164(15)
O18 O 0.3529(3) 0.55306(15) 0.63809(14)
C1 C 0.2680(4) 0.5029(2) 0.6714(2)
C2 C 0.3005(4) 0.4947(2) 0.7662(2)
C3 C 0.4118(4) -0.0047(2) 0.50735(19)
Fe1 Fe 0.04622(5) 0.38793(3) 0.71993(3)
Fe2 Fe 0.50940(5) 0.14865(3) 0.57818(3)
Fe3 Fe 0.02136(6) 0.12854(3) 0.77519(3)
C3B C 0.5882(4) 0.0047(2) 0.49265(19)
O11B O 0.6472(3) -0.05230(14) 0.45597(15)
O12B O 0.6564(3) 0.06750(14) 0.51888(15)
Fe2A Fe -0.00940(5) 0.64865(3) 0.92182(3)
Fe3A Fe -0.52136(6) 0.62854(3) 0.72481(3)
P1A P 0.68635(10) 0.03488(5) 0.73082(5)
H1A H 0.7304 -0.0003 0.6906
O2A O 0.5876(3) -0.01615(15) 0.78354(16)
O8A O 0.5867(3) 0.09837(15) 0.68311(15)
O14A O 0.8237(3) 0.07030(16) 0.78673(16)
P4_2 P 0.80155(10) 0.24924(5) 0.66253(5)
H4_2 H 0.7481 0.2521 0.7133
O4_2 O 0.8756(3) 0.33088(14) 0.64918(15)
O9_2 O 0.6762(3) 0.23060(15) 0.59037(15)
O15_2 O 0.9260(3) 0.18325(14) 0.67393(15)
P3C P 0.51817(10) 0.21463(5) 0.39068(5)
H3C H 0.6333 0.2121 0.4048
O3C O 0.4739(3) 0.15635(16) 0.32036(15)
O10C O 0.4390(3) 0.19237(15) 0.46742(14)
O13C O 0.4746(3) 0.30031(15) 0.36495(16)
O5A O 0.2776(3) -0.05651(15) 0.69954(15)
O6A O 0.3372(3) -0.04039(15) 0.86431(14)
O17A O 0.0954(3) 0.04032(15) 0.69836(15)
O18A O 0.1471(3) 0.05306(15) 0.86191(14)
C1A C 0.2320(4) 0.0029(2) 0.8286(2)
C2A C 0.1995(4) -0.0053(2) 0.7338(2)
P2A P 0.19940(10) 0.73584(5) 0.79216(5)
H2A H 0.0962 0.7533 0.7654
O1A O 0.2984(3) 0.81037(16) 0.80767(19)
O7A O 0.1684(3) 0.69757(16) 0.87452(15)
O16A O 0.2672(3) 0.67864(17) 0.73272(15)
Fe1A Fe 0.45378(5) 0.88793(3) 0.78007(3)
Fe2_2 Fe -0.49060(5) 0.14865(3) 0.57818(3)
Fe2C Fe 0.00940(5) 0.35135(3) 1.07818(3)
Fe2B Fe 0.49060(5) -0.14865(3) 0.42182(3)
Fe3A_2 Fe 0.47864(6) 0.62854(3) 0.72481(3)
O14A_2 O -0.1763(3) 0.07030(16) 0.78673(16)
O9A O -0.1762(3) 0.73060(15) 0.90963(15)
O10B O 0.0610(3) 0.69237(15) 1.03258(14)
O11A O 0.1472(3) 0.55230(14) 0.95597(15)
O12C O -0.1564(3) 0.56750(14) 0.98112(15)
O13A O -0.4746(3) 0.69969(15) 0.63505(16)
O15A O -0.4260(3) 0.68325(14) 0.82607(15)
O16A_2 O -0.7328(3) 0.67864(17) 0.73272(15)
O17_2 O -0.5954(3) 0.54032(15) 0.80164(15)
O18_2 O -0.6471(3) 0.55306(15) 0.63809(14)
Fe1A_2 Fe 0.45378(5) -0.11207(3) 0.78007(3)
Fe3_2 Fe 1.02136(6) 0.12854(3) 0.77519(3)
Fe1_2 Fe 1.04622(5) 0.38793(3) 0.71993(3)
Fe1C Fe 0.54622(5) 0.11207(3) 0.21993(3)
Fe3C Fe 0.52136(6) 0.37146(3) 0.27519(3)
O2A_2 O 0.5876(3) 0.98385(15) 0.78354(16)
O3A O 0.5261(3) 0.84365(16) 0.67964(15)
O4A O 0.6244(3) 0.83088(14) 0.85082(15)
O5A_2 O 0.2776(3) 0.94349(15) 0.69954(15)
O6A_2 O 0.3372(3) 0.95961(15) 0.86431(14)
N1 N 0.5313(4) 0.38711(19) 1.00932(19)
H5 H 0.4519 0.3752 1.0401
H6 H 0.6222 0.3890 1.0432
C4 C 0.5749(6) 0.1788(3) 0.9112(3)
H7 H 0.4794 0.1784 0.8727
H8 H 0.6629 0.1943 0.8809
C5 C 0.5009(4) 0.4667(2) 0.9687(2)
H9 H 0.3996 0.4653 0.9349
H10 H 0.5826 0.4774 0.9324
N2 N 0.6039(5) 0.0972(2) 0.9457(2)
H11 H 0.6165 0.0631 0.9047
H12 H 0.5215 0.0820 0.9718
H13 H 0.6911 0.0976 0.9813
C6 C 0.5566(6) 0.2397(2) 0.9795(2)
H14 H 0.4625 0.2272 1.0064
H15 H 0.6476 0.2366 1.0209
C7 C 0.5429(5) 0.3232(2) 0.9447(2)
H16 H 0.4497 0.3260 0.9047
H17 H 0.6348 0.3340 0.9154
C5B C 0.4991(4) 0.5333(2) 1.0313(2)
N1B N 0.4687(4) 0.61289(19) 0.99068(19)
H5B H 0.5481 0.6248 0.9599
H6B H 0.3778 0.6110 0.9568
C7B C 0.4571(5) 0.6768(2) 1.0553(2)
C6B C 0.4434(6) 0.7603(2) 1.0205(2)
C4B C 0.4251(6) 0.8212(3) 1.0888(3)
H7B H 0.5206 0.8216 1.1273
H8B H 0.3371 0.8057 1.1191
N2B N 0.3961(5) 0.9028(2) 1.0543(2)
H11B H 0.3835 0.9369 1.0953
H12B H 0.4785 0.9180 1.0282
H13B H 0.3089 0.9024 1.0187
H14B H 0.5375 0.7728 0.9936
H15B H 0.3524 0.7634 0.9791
H16B H 0.5503 0.6740 1.0953
H17B H 0.3652 0.6660 1.0846
H9B H 0.6004 0.5347 1.0651
H10B H 0.4174 0.5226 1.0676
O19 O 0.3221(4) 0.0659(2) 1.0189(2)
O20 O 0.9298(7) 0.1001(4) 1.0121(4)
O21 O 0.5472(10) 0.3987(5) 0.6753(6)
loop_
_geom_bond_atom_site_label_1
_geom_bond_atom_site_label_2
_geom_bond_site_symmetry_1
_geom_bond_site_symmetry_2
P1 H1 1_555 1_555
P2 H2 1_555 1_555
P3 H3 1_555 1_555
P4 H4 1_555 1_555
O1 P2 1_555 1_555
O2 P1 1_555 1_555
O3 P3 1_555 1_555
O4 P4 1_555 1_555
O5 C2 1_555 1_555
O6 C1 1_555 1_555
O7 P2 1_555 1_555
O8 P1 1_555 1_555
O9 P4 1_555 1_555
O10 P3 1_555 1_555
O11 C3 1_555 1_555
O12 C3 1_555 1_555
O13 P3 1_555 1_555
O14 P1 1_555 1_555
O15 P4 1_555 1_555
O16 P2 1_555 1_555
O17 C2 1_555 1_555
O18 C1 1_555 1_555
C1 C2 1_555 1_555
C3 C3B 1_555 1_555
Fe1 O1 1_555 1_555
Fe2 O7 1_555 1_555
Fe3 O13 1_555 1_555
N1 H5 1_555 1_555
H6 N1 1_555 1_555
C4 H7 1_555 1_555
H8 C4 1_555 1_555
C5 N1 1_555 1_555
H9 C5 1_555 1_555
H10 C5 1_555 1_555
N2 C4 1_555 1_555
H11 N2 1_555 1_555
H12 N2 1_555 1_555
H13 N2 1_555 1_555
C6 C4 1_555 1_555
H14 C6 1_555 1_555
H15 C6 1_555 1_555
C7 N1 1_555 1_555
H16 C7 1_555 1_555
H17 C7 1_555 1_555
C3B O11B 1_555 1_555
O11B Fe2B 1_555 1_555
O12B Fe2 1_555 1_555
C5B C5 1_555 1_555
N1B C5B 1_555 1_555
H5B N1B 1_555 1_555
H6B N1B 1_555 1_555
C7B N1B 1_555 1_555
C6B C7B 1_555 1_555
C4B C6B 1_555 1_555
H7B C4B 1_555 1_555
H8B C4B 1_555 1_555
N2B C4B 1_555 1_555
H11B N2B 1_555 1_555
H12B N2B 1_555 1_555
H13B N2B 1_555 1_555
H14B C6B 1_555 1_555
H15B C6B 1_555 1_555
H16B C7B 1_555 1_555
H17B C7B 1_555 1_555
H9B C5B 1_555 1_555
H10B C5B 1_555 1_555
Fe2A O8 1_555 1_555
Fe3A O14 1_555 1_555
P1A H1A 1_555 1_555
O2A P1A 1_555 1_555
O8A Fe2 1_555 1_555
O14A P1A 1_555 1_555
P4_2 H4_2 1_555 1_555
O4_2 P4_2 1_555 1_555
O9_2 Fe2 1_555 1_555
O15_2 P4_2 1_555 1_555
P3C H3C 1_555 1_555
O3C P3C 1_555 1_555
O10C Fe2 1_555 1_555
O13C P3C 1_555 1_555
O5A C2A 1_555 1_555
O6A C1A 1_555 1_555
O17A Fe3 1_555 1_555
O18A Fe3 1_555 1_555
C1A O18A 1_555 1_555
C2A O17A 1_555 1_555
P2A H2A 1_555 1_555
O1A P2A 1_555 1_555
O7A Fe2A 1_555 1_555
O16A P2A 1_555 1_555
Fe1A O1A 1_555 1_555
Fe2_2 O9 1_555 1_555
Fe2C O10 1_555 1_555
Fe2B O12 1_555 1_555
Fe3A_2 O17 1_555 1_555
O14A_2 Fe3 1_555 1_555
O9A Fe2A 1_555 1_555
O10B Fe2A 1_555 1_555
O11A Fe2A 1_555 1_555
O12C Fe2A 1_555 1_555
O13A Fe3A 1_555 1_555
O15A Fe3A 1_555 1_555
O16A_2 Fe3A 1_555 1_555
O17_2 Fe3A 1_555 1_555
O18_2 Fe3A 1_555 1_555
Fe1A_2 O2A 1_555 1_555
Fe3_2 O14A 1_555 1_555
Fe1_2 O4_2 1_555 1_555
Fe1C O3C 1_555 1_555
Fe3C O13C 1_555 1_555
O2A_2 Fe1A 1_555 1_555
O3A Fe1A 1_555 1_555
O4A Fe1A 1_555 1_555
O5A_2 Fe1A 1_555 1_555
O6A_2 Fe1A 1_555 1_555
O2 Fe1 1_555 1_555
O3 Fe1 1_555 1_555
O4 Fe1 1_555 1_555
O5 Fe1 1_555 1_555
O6 Fe1 1_555 1_555
O11 Fe2 1_555 1_555
O15 Fe3 1_555 1_555
O16 Fe3 1_555 1_555
O18 Fe3A_2 1_555 1_555
C6 C7 1_555 1_555
C3B O12B 1_555 1_555
P1A O8A 1_555 1_555
P4_2 O9_2 1_555 1_555
O15_2 Fe3_2 1_555 1_555
P3C O10C 1_555 1_555
O5A Fe1A_2 1_555 1_555
O6A Fe1A_2 1_555 1_555
C1A C2A 1_555 1_555
P2A O7A 1_555 1_555
O16A Fe3A_2 1_555 1_555

#END
