
#######################################################################
#
#                 Cambridge Crystallographic Data Centre
#                                CCDC 
#
#######################################################################
#
# If this CIF has been generated from an entry in the Cambridge 
# Structural Database, then it will include bibliographic, chemical, 
# crystal, experimental, refinement or atomic coordinate data resulting 
# from the CCDC's data processing and validation procedures.
#
#######################################################################

data_XEVVAW
_symmetry_cell_setting           monoclinic
_symmetry_space_group_name_H-M   'C 2/c'
_symmetry_Int_Tables_number      15
_space_group_name_Hall           '-C 2yn'
loop_
_symmetry_equiv_pos_site_id
_symmetry_equiv_pos_as_xyz
1 x,y,z
2 1/2+x,1/2+y,z
3 -x,y,1/2-z
4 1/2-x,1/2+y,1/2-z
5 -x,-y,-z
6 1/2-x,1/2-y,-z
7 x,-y,1/2+z
8 1/2+x,1/2-y,1/2+z
_cell_length_a                   16.5658(17)
_cell_length_b                   20.250(2)
_cell_length_c                   15.4873(16)
_cell_angle_alpha                90
_cell_angle_beta                 107.879(2)
_cell_angle_gamma                90
_cell_volume                     4944.43
loop_
_atom_site_label
_atom_site_type_symbol
_atom_site_fract_x
_atom_site_fract_y
_atom_site_fract_z
Cu1 Cu 0.24480(4) 0.24544(2) 0.59809(4)
Cl1 Cl 0.13399(7) 0.23224(5) 0.45849(7)
N1 N 0.2551(2) 0.15696(15) 0.6603(2)
C1 C 0.2636(3) 0.02969(19) 0.7358(3)
C2 C 0.2680(3) -0.03709(19) 0.7791(3)
C3 C 0.4078(3) 0.0580(2) 0.8384(3)
H1 H 0.4143 0.0156 0.8628
C4 C 0.3239(3) 0.13870(18) 0.7312(3)
C5 C 0.3317(3) 0.07409(19) 0.7687(3)
C6 C 0.2393(3) -0.04824(19) 0.8515(3)
C7 C 0.1946(3) 0.0494(2) 0.6658(3)
C8 C 0.1944(3) 0.1130(2) 0.6296(3)
H2 H 0.1482 0.1249 0.5805
C9 C 0.3879(3) 0.1844(2) 0.7680(3)
H3 H 0.3822 0.2273 0.7457
C10 C 0.4709(3) 0.1022(2) 0.8701(3)
C11 C 0.4586(3) 0.1673(2) 0.8363(3)
H4 H 0.4997 0.1991 0.8610
C12 C 0.3064(3) -0.0898(2) 0.7474(3)
C13 C 0.5540(3) 0.0845(3) 0.9400(4)
H5 H 0.5530 0.0389 0.9568
H6 H 0.5623 0.1118 0.9927
H7 H 0.5997 0.0915 0.9150
O1 O 0.1194(3) -0.0492(2) 0.6463(4)
C14 C 0.2044(5) 0.0029(2) 0.8988(5)
C15 C 0.3450(5) -0.0824(3) 0.6789(5)
H8 H 0.3419 -0.0417 0.6502
O2 O 0.1794(5) 0.0545(3) 0.8592(5)
C16 C 0.1162(4) 0.0102(3) 0.6282(5)
O3 O 0.0518(4) 0.0364(3) 0.5798(6)
O4 O 0.2034(8) -0.0049(3) 0.9723(6)
C17 C 0.3071(3) -0.1531(2) 0.7866(3)
N2 N 0.2705(2) -0.16428(16) 0.8536(2)
C18 C 0.3467(5) -0.2051(3) 0.7582(5)
H9 H 0.3470 -0.2468 0.7834
C19 C 0.2417(3) -0.1133(2) 0.8859(3)
H10 H 0.2212 -0.1200 0.9348
C20 C 0.3855(7) -0.1955(3) 0.6930(7)
H11 H 0.4119 -0.2309 0.6742
C21 C 0.4315(9) -0.1237(5) 0.5816(9)
H12 H 0.4297 -0.0781 0.5641
H13 H 0.4037 -0.1501 0.5294
H14 H 0.4894 -0.1375 0.6061
C22 C 0.043(2) -0.100(2) 0.603(4)
H15 H 0.0021 -0.0793 0.5511
H16 H 0.0652 -0.1390 0.5816
C23 C 0.0026(16) -0.1178(13) 0.6723(16)
H17 H -0.0502 -0.1399 0.6437
H18 H -0.0077 -0.0786 0.7021
H19 H 0.0394 -0.1468 0.7161
C24 C 0.140(2) 0.1072(13) 0.9220(19)
H20 H 0.1288 0.0793 0.9678
H21 H 0.1886 0.1342 0.9541
C25 C 0.3861(7) -0.1322(4) 0.6536(6)
C26 C 0.078(4) 0.1476(17) 0.899(5)
H22 H 0.0847 0.1800 0.9464
H23 H 0.0259 0.1240 0.8912
H24 H 0.0764 0.1692 0.8438
Cu1E Cu 0.25520(4) 0.25456(2) 0.40191(4)
Cu1C Cu 0.25520(4) -0.25456(2) 0.90191(4)
Cl1E Cl 0.36601(7) 0.26776(5) 0.54151(7)
N2C N 0.2295(2) 0.33572(16) 0.6464(2)
loop_
_geom_bond_atom_site_label_1
_geom_bond_atom_site_label_2
_geom_bond_site_symmetry_1
_geom_bond_site_symmetry_2
Cu1 Cl1 1_555 1_555
Cl1 Cu1E 1_555 1_555
N1 Cu1 1_555 1_555
C1 C2 1_555 1_555
C2 C6 1_555 1_555
C3 H1 1_555 1_555
C4 N1 1_555 1_555
C5 C1 1_555 1_555
C6 C14 1_555 1_555
C7 C1 1_555 1_555
C8 N1 1_555 1_555
H2 C8 1_555 1_555
C9 C4 1_555 1_555
H3 C9 1_555 1_555
C10 C3 1_555 1_555
C11 C9 1_555 1_555
H4 C11 1_555 1_555
C12 C2 1_555 1_555
C13 C10 1_555 1_555
H5 C13 1_555 1_555
H6 C13 1_555 1_555
H7 C13 1_555 1_555
O1 C16 1_555 1_555
C14 O2 1_555 1_555
C15 C12 1_555 1_555
H8 C15 1_555 1_555
O2 C24 1_555 1_555
C16 C7 1_555 1_555
O3 C16 1_555 1_555
O4 C14 1_555 1_555
C17 C12 1_555 1_555
N2 C17 1_555 1_555
C18 C17 1_555 1_555
H9 C18 1_555 1_555
C19 C6 1_555 1_555
H10 C19 1_555 1_555
C20 C18 1_555 1_555
H11 C20 1_555 1_555
C21 H12 1_555 1_555
H13 C21 1_555 1_555
H14 C21 1_555 1_555
C22 O1 1_555 1_555
H15 C22 1_555 1_555
H16 C22 1_555 1_555
C23 C22 1_555 1_555
H17 C23 1_555 1_555
H18 C23 1_555 1_555
H19 C23 1_555 1_555
C24 H20 1_555 1_555
H21 C24 1_555 1_555
C25 C15 1_555 1_555
C26 C24 1_555 1_555
H22 C26 1_555 1_555
H23 C26 1_555 1_555
H24 C26 1_555 1_555
Cu1E Cl1E 1_555 1_555
Cu1C N2 1_555 1_555
Cl1E Cu1 1_555 1_555
N2C Cu1 1_555 1_555
C3 C5 1_555 1_555
C4 C5 1_555 1_555
C7 C8 1_555 1_555
C10 C11 1_555 1_555
N2 C19 1_555 1_555
C20 C25 1_555 1_555
C21 C25 1_555 1_555

#END
