
#######################################################################
#
#                 Cambridge Crystallographic Data Centre
#                                CCDC 
#
#######################################################################
#
# If this CIF has been generated from an entry in the Cambridge 
# Structural Database, then it will include bibliographic, chemical, 
# crystal, experimental, refinement or atomic coordinate data resulting 
# from the CCDC's data processing and validation procedures.
#
#######################################################################

data_XEWYAB
_symmetry_cell_setting           orthorhombic
_symmetry_space_group_name_H-M   'P 21 21 21'
_symmetry_Int_Tables_number      19
_space_group_name_Hall           'P 2ac 2ab'
loop_
_symmetry_equiv_pos_site_id
_symmetry_equiv_pos_as_xyz
1 x,y,z
2 1/2+x,1/2-y,-z
3 -x,1/2+y,1/2-z
4 1/2-x,-y,1/2+z
_cell_length_a                   7.3246(6)
_cell_length_b                   8.4341(6)
_cell_length_c                   23.766(2)
_cell_angle_alpha                90
_cell_angle_beta                 90
_cell_angle_gamma                90
_cell_volume                     1468.18
loop_
_atom_site_label
_atom_site_type_symbol
_atom_site_fract_x
_atom_site_fract_y
_atom_site_fract_z
C1 C 0.1948(8) 0.7938(7) 0.1081(2)
C2 C 0.3173(9) 0.8659(7) 0.0711(2)
C3 C 0.4314(10) 0.7758(7) 0.0376(2)
H1 H 0.5127 0.8259 0.0121
C4 C 0.4267(11) 0.6120(7) 0.0416(3)
H2 H 0.5068 0.5494 0.0193
C5 C 0.3052(11) 0.5398(8) 0.0780(3)
H3 H 0.3015 0.4274 0.0802
C6 C 0.1895(10) 0.6285(7) 0.1112(3)
H4 H 0.1066 0.5775 0.1361
C7 C -0.0580(10) 0.8132(7) 0.2814(2)
C8 C -0.0756(9) 0.8790(7) 0.2259(2)
C9 C -0.2383(8) 0.9635(7) 0.2114(3)
C10 C -0.5343(8) 1.0361(8) 0.2464(3)
H5 H -0.6065 0.9822 0.2169
H6 H -0.5168 1.1482 0.2354
C11 C -0.6313(10) 1.0263(10) 0.3022(3)
H7 H -0.6213 0.9183 0.3171
H8 H -0.7603 1.0534 0.2971
H9 H -0.5753 1.1009 0.3287
N1 N 0.0723(7) 0.8861(5) 0.14102(18)
N2 N 0.0573(8) 0.8297(5) 0.19169(19)
N3 N -0.2613(7) 1.0265(6) 0.1628(2)
N4 N -0.0399(8) 0.7609(6) 0.3251(2)
O1 O 0.1350(5) 1.1233(4) 0.05674(16)
O2 O 0.3909(6) 1.1306(5) 0.12204(17)
O3 O 0.4428(6) 1.1170(5) 0.02098(17)
O4 O -0.3604(5) 0.9589(5) 0.25353(17)
O5 O -0.2156(6) 1.2184(6) 0.0667(2)
S1 S 0.32508(19) 1.07419(19) 0.06770(6)
Cu1 Cu -0.05987(9) 1.07355(8) 0.11229(3)
H10 H -0.339(9) 1.176(7) 0.060(2)
H11 H -0.164(10) 1.259(8) 0.048(3)
N4B N 0.0399(8) 1.2609(6) 0.1749(2)
Cu1B Cu 0.05987(9) 0.57355(8) 0.38771(3)
loop_
_geom_bond_atom_site_label_1
_geom_bond_atom_site_label_2
_geom_bond_site_symmetry_1
_geom_bond_site_symmetry_2
C1 C2 1_555 1_555
C2 C3 1_555 1_555
C3 H1 1_555 1_555
C4 C3 1_555 1_555
H2 C4 1_555 1_555
C5 C4 1_555 1_555
H3 C5 1_555 1_555
C6 C1 1_555 1_555
H4 C6 1_555 1_555
C7 C8 1_555 1_555
C8 C9 1_555 1_555
C9 N3 1_555 1_555
C10 H5 1_555 1_555
H6 C10 1_555 1_555
C11 C10 1_555 1_555
H7 C11 1_555 1_555
H8 C11 1_555 1_555
H9 C11 1_555 1_555
N1 C1 1_555 1_555
N2 C8 1_555 1_555
N3 Cu1 1_555 1_555
N4 C7 1_555 1_555
O1 S1 1_555 1_555
O2 S1 1_555 1_555
O3 S1 1_555 1_555
O4 C9 1_555 1_555
O5 Cu1 1_555 1_555
S1 C2 1_555 1_555
Cu1 N1 1_555 1_555
H10 O5 1_555 1_555
H11 O5 1_555 1_555
N4B Cu1 1_555 1_555
Cu1B N4 1_555 1_555
C5 C6 1_555 1_555
C10 O4 1_555 1_555
N1 N2 1_555 1_555
O1 Cu1 1_555 1_555

#END
