
#######################################################################
#
#                 Cambridge Crystallographic Data Centre
#                                CCDC 
#
#######################################################################
#
# If this CIF has been generated from an entry in the Cambridge 
# Structural Database, then it will include bibliographic, chemical, 
# crystal, experimental, refinement or atomic coordinate data resulting 
# from the CCDC's data processing and validation procedures.
#
#######################################################################

data_XEXGOY
_symmetry_cell_setting           rhombohedral
_symmetry_space_group_name_H-M   'R -3 c'
_symmetry_Int_Tables_number      167
_space_group_name_Hall           '-R 3 2"c'
loop_
_symmetry_equiv_pos_site_id
_symmetry_equiv_pos_as_xyz
1 x,y,z
2 -y,x-y,z
3 -x+y,-x,z
4 x-y,-y,1/2-z
5 -x,-x+y,1/2-z
6 y,x,1/2-z
7 2/3+x,1/3+y,1/3+z
8 2/3-y,1/3+x-y,1/3+z
9 2/3-x+y,1/3-x,1/3+z
10 2/3+x-y,1/3-y,5/6-z
11 2/3-x,1/3-x+y,5/6-z
12 2/3+y,1/3+x,5/6-z
13 1/3+x,2/3+y,2/3+z
14 1/3-y,2/3+x-y,2/3+z
15 1/3-x+y,2/3-x,2/3+z
16 1/3+x-y,2/3-y,1/6-z
17 1/3-x,2/3-x+y,1/6-z
18 1/3+y,2/3+x,1/6-z
19 -x,-y,-z
20 y,-x+y,-z
21 x-y,x,-z
22 -x+y,y,1/2+z
23 x,x-y,1/2+z
24 -y,-x,1/2+z
25 1/3-x,2/3-y,2/3-z
26 1/3+y,2/3-x+y,2/3-z
27 1/3+x-y,2/3+x,2/3-z
28 1/3-x+y,2/3+y,1/6+z
29 1/3+x,2/3+x-y,1/6+z
30 1/3-y,2/3-x,1/6+z
31 2/3-x,1/3-y,1/3-z
32 2/3+y,1/3-x+y,1/3-z
33 2/3+x-y,1/3+x,1/3-z
34 2/3-x+y,1/3+y,5/6+z
35 2/3+x,1/3+x-y,5/6+z
36 2/3-y,1/3-x,5/6+z
_cell_length_a                   26.419(4)
_cell_length_b                   26.419(4)
_cell_length_c                   21.487(4)
_cell_angle_alpha                90
_cell_angle_beta                 90
_cell_angle_gamma                120
_cell_volume                     12987.9
loop_
_atom_site_label
_atom_site_type_symbol
_atom_site_fract_x
_atom_site_fract_y
_atom_site_fract_z
C1 C 0.8182(6) 0.0258(6) 0.1272(6)
C2 C 0.7904(10) 0.0340(9) 0.0783(8)
H1 H 0.7700 0.0549 0.0834
C3 C 0.7925(9) 0.0112(9) 0.0207(8)
H2 H 0.7727 0.0163 -0.0134
C4 C 0.8215(8) -0.0179(7) 0.0115(8)
C5 C 0.8431(10) -0.0293(8) 0.0608(9)
H3 H 0.8615 -0.0522 0.0573
C6 C 0.8391(8) -0.0081(8) 0.1169(7)
H4 H 0.8530 -0.0194 0.1520
C7 C 0.8228(10) -0.0390(9) -0.0559(8)
H5 H 0.8503 -0.0537 -0.0578
H6 H 0.8353 -0.0063 -0.0849
H7 H 0.7837 -0.0704 -0.0674
C8 C 0.8460(8) 0.0893(7) 0.2080(7)
H8 H 0.8797 0.1134 0.1837
C9 C 0.8411(7) 0.1119(7) 0.2700(7)
C10 C 0.7817(7) 0.0954(6) 0.3532(6)
H9 H 0.7445 0.0716 0.3718
C11 C 0.8204(6) 0.1419(6) 0.3848(6)
C12 C 0.8750(9) 0.1750(7) 0.3580(8)
H10 H 0.9049 0.2077 0.3795
C13 C 0.8857(8) 0.1604(7) 0.3005(8)
H11 H 0.9229 0.1829 0.2816
N1 N 0.8117(6) 0.0443(5) 0.1872(5)
N2 N 0.7909(6) 0.0792(5) 0.2968(5)
N3 N 0.6941(7) 0.0637(7) 0.1661(7)
O1 O 0.6804(8) 0.0179(8) 0.1894(7)
O2 O 0.6723(8) 0.0650(8) 0.1177(8)
O3 O 0.7368(8) 0.1065(8) 0.1837(7)
Zn1 Zn 0.73396(10) 0.0000 0.2500
C1K C 0.6925(6) 0.1515(6) 0.7061(6)
C2K C 0.7007(9) 0.1237(10) 0.7550(8)
H1K H 0.7216 0.1033 0.7499
C3K C 0.6779(9) 0.1258(9) 0.8126(8)
H2K H 0.6830 0.1060 0.8467
C4K C 0.6488(7) 0.1548(8) 0.8218(8)
C5K C 0.6374(8) 0.1764(10) 0.7725(9)
H3K H 0.6145 0.1948 0.7760
C6K C 0.6586(8) 0.1724(8) 0.7164(7)
H4K H 0.6473 0.1863 0.6813
C7K C 0.6277(9) 0.1561(10) 0.8892(8)
H5K H 0.6130 0.1836 0.8911
H6K H 0.6604 0.1686 0.9182
H7K H 0.5963 0.1170 0.9007
C8K C 0.7560(7) 0.1793(8) 0.6253(7)
H8K H 0.7801 0.2130 0.6496
C9K C 0.7786(7) 0.1744(7) 0.5633(7)
C10K C 0.7621(6) 0.1150(7) 0.4801(6)
H9K H 0.7383 0.0778 0.4615
C11K C 0.8086(6) 0.1537(6) 0.4485(6)
C12K C 0.8417(7) 0.2083(9) 0.4753(8)
H10K H 0.8744 0.2382 0.4538
C13K C 0.8271(7) 0.2190(8) 0.5328(8)
H11K H 0.8496 0.2562 0.5517
N1K N 0.7110(5) 0.1450(6) 0.6461(5)
N2K N 0.7459(5) 0.1242(6) 0.5365(5)
N3C N 0.6304(10) -0.0637(7) 0.3339(7)
O1C O 0.6625(11) -0.0179(8) 0.3106(7)
O2C O 0.6073(11) -0.0650(8) 0.3823(8)
O3C O 0.6303(11) -0.1065(8) 0.3163(7)
N1C N 0.7674(8) -0.0443(5) 0.3128(5)
N2C N 0.7117(8) -0.0792(5) 0.2032(5)
Zn1G Zn 0.6667 0.06729(10) 0.5833
loop_
_geom_bond_atom_site_label_1
_geom_bond_atom_site_label_2
_geom_bond_site_symmetry_1
_geom_bond_site_symmetry_2
C1 C2 1_555 1_555
C2 H1 1_555 1_555
C3 C2 1_555 1_555
H2 C3 1_555 1_555
C4 C3 1_555 1_555
C5 C4 1_555 1_555
H3 C5 1_555 1_555
C6 C1 1_555 1_555
H4 C6 1_555 1_555
C7 C4 1_555 1_555
H5 C7 1_555 1_555
H6 C7 1_555 1_555
H7 C7 1_555 1_555
C8 H8 1_555 1_555
C9 C8 1_555 1_555
C10 H9 1_555 1_555
C11 C10 1_555 1_555
C12 C11 1_555 1_555
H10 C12 1_555 1_555
C13 C9 1_555 1_555
H11 C13 1_555 1_555
N1 C1 1_555 1_555
N2 C9 1_555 1_555
N3 O1 1_555 1_555
O1 Zn1 1_555 1_555
O2 N3 1_555 1_555
O3 N3 1_555 1_555
Zn1 N1 1_555 1_555
C1K C2K 1_555 1_555
C2K H1K 1_555 1_555
C3K C2K 1_555 1_555
H2K C3K 1_555 1_555
C4K C3K 1_555 1_555
C5K C4K 1_555 1_555
H3K C5K 1_555 1_555
C6K C1K 1_555 1_555
H4K C6K 1_555 1_555
C7K C4K 1_555 1_555
H5K C7K 1_555 1_555
H6K C7K 1_555 1_555
H7K C7K 1_555 1_555
C8K H8K 1_555 1_555
C9K C8K 1_555 1_555
C10K H9K 1_555 1_555
C11K C11 1_555 1_555
C12K C11K 1_555 1_555
H10K C12K 1_555 1_555
C13K C9K 1_555 1_555
H11K C13K 1_555 1_555
N1K C1K 1_555 1_555
N2K C9K 1_555 1_555
N3C O1C 1_555 1_555
O1C Zn1 1_555 1_555
O2C N3C 1_555 1_555
O3C N3C 1_555 1_555
N1C Zn1 1_555 1_555
N2C Zn1 1_555 1_555
Zn1G N1K 1_555 1_555
C5 C6 1_555 1_555
C8 N1 1_555 1_555
C10 N2 1_555 1_555
C12 C13 1_555 1_555
N2 Zn1 1_555 1_555
C5K C6K 1_555 1_555
C8K N1K 1_555 1_555
C10K C11K 1_555 1_555
C10K N2K 1_555 1_555
C12K C13K 1_555 1_555
N2K Zn1G 1_555 1_555

#END
