
#######################################################################
#
#                 Cambridge Crystallographic Data Centre
#                                CCDC 
#
#######################################################################
#
# If this CIF has been generated from an entry in the Cambridge 
# Structural Database, then it will include bibliographic, chemical, 
# crystal, experimental, refinement or atomic coordinate data resulting 
# from the CCDC's data processing and validation procedures.
#
#######################################################################

data_XEYGEP
_symmetry_cell_setting           monoclinic
_symmetry_space_group_name_H-M   'C 2/c'
_symmetry_Int_Tables_number      15
_space_group_name_Hall           '-C 2yn'
loop_
_symmetry_equiv_pos_site_id
_symmetry_equiv_pos_as_xyz
1 x,y,z
2 -x,y,1/2-z
3 1/2+x,1/2+y,z
4 1/2-x,1/2+y,1/2-z
5 -x,-y,-z
6 x,-y,1/2+z
7 1/2-x,1/2-y,-z
8 1/2+x,1/2-y,1/2+z
_cell_length_a                   14.109(5)
_cell_length_b                   16.624(6)
_cell_length_c                   11.201(4)
_cell_angle_alpha                90
_cell_angle_beta                 99.969(6)
_cell_angle_gamma                90
_cell_volume                     2587.51
loop_
_atom_site_label
_atom_site_type_symbol
_atom_site_fract_x
_atom_site_fract_y
_atom_site_fract_z
Ni1 Ni 0.05715(3) 0.31240(3) 0.61954(4)
O1 O 0.1280(2) 0.60648(17) 0.2448(3)
O2 O 0.0000 0.2447(2) 0.7500
O3 O 0.0559(2) 0.60942(17) 0.4087(3)
O4 O 0.3246(2) 0.25969(15) 0.3507(3)
O5 O 0.3468(3) 0.3537(2) 0.2174(3)
N1 N 0.1223(2) 0.37558(18) 0.4905(3)
N2 N -0.0132(3) 0.2361(2) 0.4860(3)
N3 N -0.0500(3) 0.1385(2) 0.3528(3)
C1 C 0.1072(3) 0.4536(2) 0.4655(4)
H1 H 0.0712 0.4836 0.5143
C2 C 0.1410(3) 0.4929(2) 0.3728(3)
C3 C 0.1057(3) 0.5777(2) 0.3395(4)
C4 C 0.2025(3) 0.4516(2) 0.3095(4)
H2 H 0.2275 0.4770 0.2456
C5 C 0.2266(3) 0.3731(2) 0.3414(4)
C6 C 0.3050(3) 0.3256(2) 0.2966(4)
C7 C 0.1801(3) 0.3364(2) 0.4271(4)
H3 H 0.1899 0.2804 0.4414
C8 C 0.0158(3) 0.1688(3) 0.4420(4)
H4 H 0.0765 0.1445 0.4703
C9 C -0.1051(4) 0.2475(3) 0.4219(5)
H5 H -0.1462 0.2908 0.4343
C10 C -0.1282(4) 0.1884(3) 0.3393(6)
H6 H -0.1867 0.1827 0.2834
C11 C -0.0428(4) 0.0651(3) 0.2830(4)
H7 H -0.1026 0.0586 0.2228
H8 H -0.0375 0.0183 0.3384
H9 H 0.050(3) 0.215(3) 0.783(4)
H9A H -0.050(3) 0.215(3) 0.717(4)
N2A N 0.0132(3) 0.2361(2) 0.0140(3)
N3A N 0.0500(3) 0.1385(2) 0.1472(3)
C8A C -0.0158(3) 0.1688(3) 0.0580(4)
H4A H -0.0765 0.1445 0.0297
C9A C 0.1051(4) 0.2475(3) 0.0781(5)
H5A H 0.1462 0.2908 0.0657
C10A C 0.1282(4) 0.1884(3) 0.1607(6)
H6A H 0.1867 0.1827 0.2166
C11A C 0.0428(4) 0.0651(3) 0.2170(4)
H7A H 0.1026 0.0586 0.2772
H8A H 0.0375 0.0183 0.1616
Ni1A Ni -0.05715(3) 0.31240(3) -0.11954(4)
O1A O -0.1280(2) 0.60648(17) 0.2552(3)
O3A O -0.0559(2) 0.60942(17) 0.0913(3)
O4A O -0.3246(2) 0.25969(15) 0.1493(3)
O5A O -0.3468(3) 0.3537(2) 0.2826(3)
N1A N -0.1223(2) 0.37558(18) 0.0095(3)
C1A C -0.1072(3) 0.4536(2) 0.0345(4)
H1A H -0.0712 0.4836 -0.0143
C2A C -0.1410(3) 0.4929(2) 0.1272(3)
C3A C -0.1057(3) 0.5777(2) 0.1605(4)
C4A C -0.2025(3) 0.4516(2) 0.1905(4)
H2A H -0.2275 0.4770 0.2544
C5A C -0.2266(3) 0.3731(2) 0.1586(4)
C6A C -0.3050(3) 0.3256(2) 0.2034(4)
C7A C -0.1801(3) 0.3364(2) 0.0729(4)
H3A H -0.1899 0.2804 0.0586
Ni1A_2 Ni -0.05715(3) 0.31240(3) 0.88046(4)
Ni1D Ni -0.05715(3) 0.68760(3) 0.38046(4)
Ni1E Ni 0.05715(3) 0.68760(3) 0.11954(4)
Ni1F Ni 0.44285(3) 0.18760(3) 0.38046(4)
Ni1G Ni -0.44285(3) 0.18760(3) 0.11954(4)
O1D O -0.1280(2) 0.39352(17) -0.2448(3)
O1E O 0.1280(2) 0.39352(17) 0.7448(3)
O2_2 O 0.0000 0.2447(2) -0.2500
O3D O -0.0559(2) 0.39058(17) 0.5913(3)
O3E O 0.0559(2) 0.39058(17) -0.0913(3)
O4F O 0.1754(2) 0.24031(15) 0.6493(3)
O4G O -0.1754(2) 0.24031(15) -0.1493(3)
O6 O 0.3545(4) 0.5244(3) 0.5484(4)
loop_
_geom_bond_atom_site_label_1
_geom_bond_atom_site_label_2
_geom_bond_site_symmetry_1
_geom_bond_site_symmetry_2
Ni1 O2 1_555 1_555
O1 C3 1_555 1_555
O2 H9 1_555 1_555
O3 C3 1_555 1_555
O4 C6 1_555 1_555
O5 C6 1_555 1_555
N1 Ni1 1_555 1_555
N2 Ni1 1_555 1_555
N3 C8 1_555 1_555
C1 N1 1_555 1_555
H1 C1 1_555 1_555
C2 C1 1_555 1_555
C3 C2 1_555 1_555
C4 C2 1_555 1_555
H2 C4 1_555 1_555
C5 C4 1_555 1_555
C6 C5 1_555 1_555
C7 N1 1_555 1_555
H3 C7 1_555 1_555
C8 N2 1_555 1_555
H4 C8 1_555 1_555
C9 N2 1_555 1_555
H5 C9 1_555 1_555
C10 N3 1_555 1_555
H6 C10 1_555 1_555
C11 N3 1_555 1_555
H7 C11 1_555 1_555
H8 C11 1_555 1_555
H9A O2 1_555 1_555
N2A C8A 1_555 1_555
N3A C8A 1_555 1_555
C8A H4A 1_555 1_555
C9A N2A 1_555 1_555
H5A C9A 1_555 1_555
C10A N3A 1_555 1_555
H6A C10A 1_555 1_555
C11A C11 1_555 1_555
H7A C11A 1_555 1_555
H8A C11A 1_555 1_555
Ni1A N2A 1_555 1_555
O1A C3A 1_555 1_555
O3A C3A 1_555 1_555
O4A C6A 1_555 1_555
O5A C6A 1_555 1_555
N1A Ni1A 1_555 1_555
C1A N1A 1_555 1_555
H1A C1A 1_555 1_555
C2A C1A 1_555 1_555
C3A C2A 1_555 1_555
C4A C2A 1_555 1_555
H2A C4A 1_555 1_555
C5A C4A 1_555 1_555
C6A C5A 1_555 1_555
C7A N1A 1_555 1_555
H3A C7A 1_555 1_555
Ni1A_2 O2 1_555 1_555
Ni1D O3 1_555 1_555
Ni1E O1 1_555 1_555
Ni1F O4 1_555 1_555
Ni1G O4A 1_555 1_555
O1D Ni1A 1_555 1_555
O1E Ni1 1_555 1_555
O2_2 Ni1A 1_555 1_555
O3D Ni1 1_555 1_555
O3E Ni1A 1_555 1_555
O4F Ni1 1_555 1_555
O4G Ni1A 1_555 1_555
C5 C7 1_555 1_555
C9 C10 1_555 1_555
N3A C11A 1_555 1_555
C9A C10A 1_555 1_555
O1A Ni1D 1_555 1_555
O3A Ni1E 1_555 1_555
C5A C7A 1_555 1_555

#END
