
#######################################################################
#
#                 Cambridge Crystallographic Data Centre
#                                CCDC 
#
#######################################################################
#
# If this CIF has been generated from an entry in the Cambridge 
# Structural Database, then it will include bibliographic, chemical, 
# crystal, experimental, refinement or atomic coordinate data resulting 
# from the CCDC's data processing and validation procedures.
#
#######################################################################

data_XEYREZ
_symmetry_cell_setting           monoclinic
_symmetry_space_group_name_H-M   'C 2/c'
_symmetry_Int_Tables_number      15
_space_group_name_Hall           '-C 2yn'
loop_
_symmetry_equiv_pos_site_id
_symmetry_equiv_pos_as_xyz
1 x,y,z
2 1/2+x,1/2+y,z
3 -x,y,1/2-z
4 1/2-x,1/2+y,1/2-z
5 -x,-y,-z
6 1/2-x,1/2-y,-z
7 x,-y,1/2+z
8 1/2+x,1/2-y,1/2+z
_cell_length_a                   18.6551(12)
_cell_length_b                   11.4489(7)
_cell_length_c                   7.8557(5)
_cell_angle_alpha                90
_cell_angle_beta                 92.841(5)
_cell_angle_gamma                90
_cell_volume                     1675.76
loop_
_atom_site_label
_atom_site_type_symbol
_atom_site_fract_x
_atom_site_fract_y
_atom_site_fract_z
C1 C 0.41561(8) 0.34852(14) 0.11916(18)
C2 C 0.38387(9) 0.23054(14) 0.07905(18)
C3 C 0.31801(9) 0.19564(15) 0.1410(2)
C4 C 0.29228(13) 0.08361(18) 0.1046(2)
H1 H 0.2480 0.0607 0.1426
C5 C 0.33143(16) 0.00763(19) 0.0139(3)
H2 H 0.3145 -0.0677 -0.0065
C6 C 0.39600(16) 0.04173(19) -0.0479(3)
H3 H 0.4223 -0.0105 -0.1105
C7 C 0.42190(11) 0.15343(17) -0.0173(2)
H4 H 0.4650 0.1766 -0.0616
C8 C 0.27310(9) 0.27466(19) 0.2374(2)
H5 H 0.2864 0.3528 0.2457
O1 O 0.41328(7) 0.38686(11) 0.26806(14)
O2 O 0.44600(6) 0.40277(10) 0.00506(14)
O3 O 0.22019(8) 0.24407(18) 0.3062(2)
O4 O 0.41718(7) 0.67592(14) 0.11035(16)
Ca1 Ca 0.5000 0.54575(4) 0.2500
H6 H 0.3777(10) 0.694(2) 0.142(3)
H7 H 0.4114(13) 0.667(2) 0.007(2)
C1B C 0.58439(8) 0.34852(14) 0.38084(18)
C2B C 0.61613(9) 0.23054(14) 0.42095(18)
C3B C 0.68199(9) 0.19564(15) 0.3590(2)
C4B C 0.70772(13) 0.08361(18) 0.3954(2)
H1B H 0.7520 0.0607 0.3574
C5B C 0.66857(16) 0.00763(19) 0.4861(3)
H2B H 0.6855 -0.0677 0.5065
C6B C 0.60400(16) 0.04173(19) 0.5479(3)
H3B H 0.5777 -0.0105 0.6105
C7B C 0.57810(11) 0.15343(17) 0.5173(2)
H4B H 0.5350 0.1766 0.5616
C8B C 0.72690(9) 0.27466(19) 0.2626(2)
H5B H 0.7136 0.3528 0.2543
O1B O 0.58672(7) 0.38686(11) 0.23194(14)
O2B O 0.55400(6) 0.40277(10) 0.49494(14)
O2F O 0.44600(6) 0.59723(10) 0.50506(14)
O2D O 0.55400(6) 0.59723(10) -0.00506(14)
O3B O 0.77981(8) 0.24407(18) 0.1938(2)
O4B O 0.58282(7) 0.67592(14) 0.38965(16)
Ca1F Ca 0.5000 0.45425(4) -0.2500
Ca1F_2 Ca 0.5000 0.45425(4) 0.7500
H6B H 0.6223(10) 0.694(2) 0.358(3)
H7B H 0.5886(13) 0.667(2) 0.493(2)
loop_
_geom_bond_atom_site_label_1
_geom_bond_atom_site_label_2
_geom_bond_site_symmetry_1
_geom_bond_site_symmetry_2
C1 C2 1_555 1_555
C2 C3 1_555 1_555
C3 C4 1_555 1_555
C4 H1 1_555 1_555
C5 C4 1_555 1_555
H2 C5 1_555 1_555
C6 C5 1_555 1_555
H3 C6 1_555 1_555
C7 C2 1_555 1_555
H4 C7 1_555 1_555
C8 C3 1_555 1_555
H5 C8 1_555 1_555
O1 C1 1_555 1_555
O2 C1 1_555 1_555
O3 C8 1_555 1_555
O4 Ca1 1_555 1_555
Ca1 O1 1_555 1_555
H6 O4 1_555 1_555
H7 O4 1_555 1_555
C1B C2B 1_555 1_555
C2B C3B 1_555 1_555
C3B C4B 1_555 1_555
C4B H1B 1_555 1_555
C5B C4B 1_555 1_555
H2B C5B 1_555 1_555
C6B C5B 1_555 1_555
H3B C6B 1_555 1_555
C7B C2B 1_555 1_555
H4B C7B 1_555 1_555
C8B C3B 1_555 1_555
H5B C8B 1_555 1_555
O1B Ca1 1_555 1_555
O2B Ca1 1_555 1_555
O2F Ca1 1_555 1_555
O2D Ca1 1_555 1_555
O3B C8B 1_555 1_555
O4B Ca1 1_555 1_555
Ca1F O2 1_555 1_555
Ca1F_2 O2B 1_555 1_555
H6B O4B 1_555 1_555
H7B O4B 1_555 1_555
C6 C7 1_555 1_555
O2 Ca1 1_555 1_555
C1B O1B 1_555 1_555
C1B O2B 1_555 1_555
C6B C7B 1_555 1_555
O2F Ca1F_2 1_555 1_555
O2D Ca1F 1_555 1_555

#END
