
#######################################################################
#
#                 Cambridge Crystallographic Data Centre
#                                CCDC 
#
#######################################################################
#
# If this CIF has been generated from an entry in the Cambridge 
# Structural Database, then it will include bibliographic, chemical, 
# crystal, experimental, refinement or atomic coordinate data resulting 
# from the CCDC's data processing and validation procedures.
#
#######################################################################

data_XEYTEA
_symmetry_cell_setting           monoclinic
_symmetry_space_group_name_H-M   'P 21/c'
_symmetry_Int_Tables_number      14
_space_group_name_Hall           '-P 2ybc'
loop_
_symmetry_equiv_pos_site_id
_symmetry_equiv_pos_as_xyz
1 x,y,z
2 x,1/2-y,1/2+z
3 -x,-y,-z
4 -x,1/2+y,1/2-z
_cell_length_a                   7.934(6)
_cell_length_b                   16.029(6)
_cell_length_c                   20.394(5)
_cell_angle_alpha                90
_cell_angle_beta                 91.27(4)
_cell_angle_gamma                90
_cell_volume                     2592.95
loop_
_atom_site_label
_atom_site_type_symbol
_atom_site_fract_x
_atom_site_fract_y
_atom_site_fract_z
Cu1 Cu 0.57615(6) 0.23584(3) 0.64414(2)
S1 S 1.2189(1) 0.00118(8) 0.56822(6)
S2 S 1.1520(2) -0.12094(8) 0.57055(5)
F1 F 0.3602(7) 0.0644(3) 0.8162(3)
F2 F 0.1301(7) 0.0617(3) 0.7679(2)
F3 F 0.1688(6) 0.1468(2) 0.8447(2)
F4 F 0.0780(7) 0.4085(3) 0.6569(3)
F5 F 0.0973(7) 0.4081(3) 0.7555(3)
F6 F 0.2841(6) 0.4607(2) 0.7022(4)
F7 F 0.4084(4) 0.2184(2) 0.3915(1)
F8 F 0.2174(4) 0.2011(4) 0.4610(2)
F9 F 0.4084(6) 0.1110(2) 0.4509(2)
F10 F 0.791(1) 0.4872(3) 0.5425(3)
F11 F 0.683(1) 0.4630(5) 0.4546(4)
F12 F 0.899(1) 0.4074(5) 0.4824(5)
O1 O 0.4098(4) 0.1441(2) 0.7045(2)
O2 O 0.3786(4) 0.3117(2) 0.6530(1)
O3 O 0.4765(3) 0.1987(2) 0.5595(1)
O4 O 0.6968(4) 0.3422(2) 0.5903(2)
N1 N 0.7736(4) 0.1586(2) 0.6300(2)
N2 N 1.3246(4) -0.2213(2) 0.7699(2)
C1 C 0.9264(5) 0.1910(3) 0.6184(2)
C2 C 1.0617(5) 0.1428(3) 0.6019(2)
C3 C 1.0408(5) 0.0575(3) 0.5954(2)
C4 C 0.8842(5) 0.0233(3) 0.6084(2)
C5 C 0.7553(5) 0.0761(3) 0.6247(2)
C6 C 1.2610(5) -0.2708(3) 0.7223(2)
C7 C 1.2055(5) -0.2406(3) 0.6620(2)
C8 C 1.2185(4) -0.1557(3) 0.6495(2)
C9 C 1.2831(5) -0.1047(3) 0.6983(2)
C10 C 1.3330(5) -0.1396(3) 0.7576(2)
C11 C 0.2442(8) 0.1132(3) 0.7951(3)
C12 C 0.3066(5) 0.1740(3) 0.7431(2)
C13 C 0.2389(5) 0.2543(3) 0.7448(2)
C14 C 0.2772(5) 0.3150(3) 0.6993(2)
C15 C 0.1870(6) 0.3993(3) 0.7043(3)
C16 C 0.3773(6) 0.1935(4) 0.4520(2)
C17 C 0.4824(5) 0.2366(3) 0.5058(2)
C18 C 0.5631(6) 0.3092(3) 0.4893(2)
C19 C 0.6651(6) 0.3555(3) 0.5321(2)
C20 C 0.755(1) 0.4317(5) 0.5045(4)
H1 H 0.9406 0.2503 0.6213
H2 H 1.1705 0.1673 0.5952
H3 H 0.8682 -0.0356 0.6069
H4 H 0.6462 0.0515 0.6324
H5 H 1.2537 -0.3294 0.7306
H6 H 1.1594 -0.2777 0.6290
H7 H 1.2935 -0.0456 0.6911
H8 H 1.3756 -0.1034 0.7916
H9 H 0.1610 0.2677 0.7790
H10 H 0.5461 0.3301 0.4451
N2C N 0.6754(4) 0.2787(2) 0.7301(2)
Cu1C Cu 1.42385(6) -0.26416(3) 0.85586(2)
loop_
_geom_bond_atom_site_label_1
_geom_bond_atom_site_label_2
_geom_bond_site_symmetry_1
_geom_bond_site_symmetry_2
Cu1 O1 1_555 1_555
S1 S2 1_555 1_555
S2 C8 1_555 1_555
F1 C11 1_555 1_555
F2 C11 1_555 1_555
F3 C11 1_555 1_555
F4 C15 1_555 1_555
F5 C15 1_555 1_555
F6 C15 1_555 1_555
F7 C16 1_555 1_555
F8 C16 1_555 1_555
F9 C16 1_555 1_555
F10 C20 1_555 1_555
F11 C20 1_555 1_555
F12 C20 1_555 1_555
O1 C12 1_555 1_555
O2 Cu1 1_555 1_555
O3 Cu1 1_555 1_555
O4 Cu1 1_555 1_555
N1 Cu1 1_555 1_555
N2 C6 1_555 1_555
C1 N1 1_555 1_555
C2 C1 1_555 1_555
C3 S1 1_555 1_555
C4 C3 1_555 1_555
C5 N1 1_555 1_555
C6 C7 1_555 1_555
C7 C8 1_555 1_555
C8 C9 1_555 1_555
C9 C10 1_555 1_555
C10 N2 1_555 1_555
C11 C12 1_555 1_555
C12 C13 1_555 1_555
C13 C14 1_555 1_555
C14 O2 1_555 1_555
C15 C14 1_555 1_555
C16 C17 1_555 1_555
C17 O3 1_555 1_555
C18 C17 1_555 1_555
C19 O4 1_555 1_555
C20 C19 1_555 1_555
H1 C1 1_555 1_555
H2 C2 1_555 1_555
H3 C4 1_555 1_555
H4 C5 1_555 1_555
H5 C6 1_555 1_555
H6 C7 1_555 1_555
H7 C9 1_555 1_555
H8 C10 1_555 1_555
H9 C13 1_555 1_555
H10 C18 1_555 1_555
N2C Cu1 1_555 1_555
Cu1C N2 1_555 1_555
C2 C3 1_555 1_555
C4 C5 1_555 1_555
C18 C19 1_555 1_555

#END
