
#######################################################################
#
#                 Cambridge Crystallographic Data Centre
#                                CCDC 
#
#######################################################################
#
# If this CIF has been generated from an entry in the Cambridge 
# Structural Database, then it will include bibliographic, chemical, 
# crystal, experimental, refinement or atomic coordinate data resulting 
# from the CCDC's data processing and validation procedures.
#
#######################################################################

data_XEYXUW
_symmetry_cell_setting           triclinic
_symmetry_space_group_name_H-M   'P -1'
_symmetry_Int_Tables_number      2
_space_group_name_Hall           '-P 1'
loop_
_symmetry_equiv_pos_site_id
_symmetry_equiv_pos_as_xyz
1 x,y,z
2 -x,-y,-z
_cell_length_a                   9.0012(10)
_cell_length_b                   9.7513(11)
_cell_length_c                   15.6798(18)
_cell_angle_alpha                101.428(2)
_cell_angle_beta                 92.161(2)
_cell_angle_gamma                90.812(2)
_cell_volume                     1347.7
loop_
_atom_site_label
_atom_site_type_symbol
_atom_site_fract_x
_atom_site_fract_y
_atom_site_fract_z
C1 C 0.0839(4) 0.4376(4) 0.2525(2)
H1 H 0.0259 0.5035 0.2323
C2 C 0.2669(5) 0.3364(5) 0.2997(4)
H2 H 0.3621 0.3185 0.3193
C3 C 0.1494(6) 0.2479(5) 0.2929(4)
H3 H 0.1487 0.1588 0.3059
C4 C -0.1236(5) 0.2638(5) 0.2485(3)
H4 H -0.1354 0.2051 0.1909
H5 H -0.1875 0.3434 0.2503
C5 C -0.1724(5) 0.1809(5) 0.3157(3)
H6 H -0.1309 0.0881 0.3028
H7 H -0.1345 0.2271 0.3731
C6 C 0.5973(5) 0.5738(5) 0.1085(3)
H8 H 0.6124 0.6695 0.1132
C7 C 0.5144(5) 0.3779(6) 0.1265(3)
H9 H 0.4600 0.3106 0.1473
C8 C 0.6158(6) 0.3503(6) 0.0655(3)
H10 H 0.6435 0.2624 0.0364
C9 C 0.7855(5) 0.5031(7) -0.0043(3)
H11 H 0.7751 0.5973 -0.0148
H12 H 0.7705 0.4386 -0.0597
C10 C 0.9422(5) 0.4874(6) 0.0319(3)
H13 H 0.9526 0.3939 0.0437
H14 H 0.9589 0.5538 0.0865
C11 C -0.3980(5) 0.1914(4) 0.5217(3)
H15 H -0.4755 0.2499 0.5131
C12 C -0.2236(6) 0.0941(5) 0.5810(3)
H16 H -0.1562 0.0714 0.6222
C13 C -0.2334(7) 0.0320(5) 0.4966(3)
H17 H -0.1742 -0.0397 0.4693
C14 C -0.3979(5) 0.0622(5) 0.3662(3)
H18 H -0.3666 -0.0305 0.3391
H19 H -0.5058 0.0619 0.3634
C15 C -0.3393(5) 0.1685(5) 0.3155(3)
H20 H -0.3782 0.2595 0.3399
H21 H -0.3774 0.1426 0.2556
C16 C 0.6492(5) 0.6168(4) 0.3630(3)
C17 C 0.7901(6) 0.5925(5) 0.4112(3)
C18 C 0.7957(10) 0.5051(7) 0.4646(5)
H22 H 0.7081 0.4625 0.4768
C19 C 0.9335(13) 0.4730(9) 0.5051(7)
C20 C 0.9581(9) 0.3931(9) 0.5485(5)
H23 H 0.8745 0.3408 0.5567
C21 C 0.9132(8) 0.6426(8) 0.4081(5)
H24 H 0.9232 0.7102 0.3743
C22 C 0.2285(6) 0.8199(5) 0.1768(3)
C23 C 0.1644(6) 0.9043(5) 0.1141(3)
C24 C 0.0285(8) 0.8787(7) 0.0763(4)
H25 H -0.0291 0.8088 0.0924
C25 C -0.0356(7) 0.9508(7) 0.0127(4)
C26 C -0.1637(12) 0.9321(13) -0.0239(8)
H26 H -0.2231 0.8632 -0.0081
C27 C 0.2290(11) 0.9956(13) 0.0871(7)
H27 H 0.3257 1.0203 0.1082
N1 N 0.2265(4) 0.4559(4) 0.2734(2)
N2 N 0.0316(4) 0.3138(4) 0.2635(2)
N3 N 0.5023(4) 0.5184(4) 0.1538(2)
N4 N 0.6701(4) 0.4759(5) 0.0547(2)
N5 N -0.3274(4) 0.1954(3) 0.5973(2)
N6 N -0.3449(4) 0.0927(3) 0.4584(2)
O1 O 0.5371(4) 0.5416(3) 0.3684(2)
O2 O 0.6477(3) 0.7118(3) 0.3197(2)
O3 O 0.3660(4) 0.8299(4) 0.1930(2)
O4 O 0.1459(4) 0.7391(4) 0.2071(2)
Cd1 Cd 0.38129(3) 0.64746(3) 0.274301(16)
C6A C 1.4027(5) 0.4262(5) -0.1085(3)
H8A H 1.3876 0.3305 -0.1132
C7A C 1.4856(5) 0.6221(6) -0.1265(3)
H9A H 1.5400 0.6894 -0.1473
C8A C 1.3842(6) 0.6497(6) -0.0655(3)
H10A H 1.3565 0.7376 -0.0364
C9A C 1.2145(5) 0.4969(7) 0.0043(3)
H11A H 1.2249 0.4027 0.0148
H12A H 1.2295 0.5614 0.0597
C10A C 1.0578(5) 0.5126(6) -0.0319(3)
H13A H 1.0474 0.6061 -0.0437
H14A H 1.0411 0.4462 -0.0865
N3A N 1.4977(4) 0.4816(4) -0.1538(2)
N4A N 1.3299(4) 0.5241(5) -0.0547(2)
C16A C 1.3508(5) 0.3832(4) 0.6370(3)
C17A C 1.2099(6) 0.4075(5) 0.5888(3)
C18A C 1.2043(10) 0.4949(7) 0.5354(5)
H22A H 1.2919 0.5375 0.5232
C19A C 1.0665(13) 0.5270(9) 0.4949(7)
C20A C 1.0419(9) 0.6069(9) 0.4515(5)
H23A H 1.1255 0.6592 0.4433
C21A C 1.0868(8) 0.3574(8) 0.5919(5)
H24A H 1.0768 0.2898 0.6257
O1A O 1.4629(4) 0.4584(3) 0.6316(2)
O2A O 1.3523(3) 0.2882(3) 0.6803(2)
C22A C -0.2285(6) 1.1801(5) -0.1768(3)
C23A C -0.1644(6) 1.0957(5) -0.1141(3)
C24A C -0.0285(8) 1.1213(7) -0.0763(4)
H25A H 0.0291 1.1912 -0.0924
C25A C 0.0356(7) 1.0492(7) -0.0127(4)
C26A C 0.1637(12) 1.0679(13) 0.0239(8)
H26A H 0.2231 1.1368 0.0081
C27A C -0.2290(11) 1.0044(13) -0.0871(7)
H27A H -0.3257 0.9797 -0.1082
O3A O -0.3660(4) 1.1701(4) -0.1930(2)
O4A O -0.1459(4) 1.2609(4) -0.2071(2)
C1A C -0.0839(4) 0.5624(4) 0.7475(2)
H1A H -0.0259 0.4965 0.7677
C2A C -0.2669(5) 0.6636(5) 0.7003(4)
H2A H -0.3621 0.6815 0.6807
C3A C -0.1494(6) 0.7521(5) 0.7071(4)
H3A H -0.1487 0.8412 0.6941
C4A C 0.1236(5) 0.7362(5) 0.7515(3)
H4A H 0.1354 0.7949 0.8091
H5A H 0.1875 0.6566 0.7497
C5A C 0.1724(5) 0.8191(5) 0.6843(3)
H6A H 0.1309 0.9119 0.6972
H7A H 0.1345 0.7729 0.6269
C11A C 0.3980(5) 0.8086(4) 0.4783(3)
H15A H 0.4755 0.7501 0.4869
C12A C 0.2236(6) 0.9059(5) 0.4190(3)
H16A H 0.1562 0.9286 0.3778
C13A C 0.2334(7) 0.9680(5) 0.5034(3)
H17A H 0.1742 1.0397 0.5307
C14A C 0.3979(5) 0.9378(5) 0.6338(3)
H18A H 0.3666 1.0305 0.6609
H19A H 0.5058 0.9381 0.6366
C15A C 0.3393(5) 0.8315(5) 0.6845(3)
H20A H 0.3782 0.7405 0.6601
H21A H 0.3774 0.8574 0.7444
N1A N -0.2265(4) 0.5441(4) 0.7266(2)
N2A N -0.0316(4) 0.6862(4) 0.7365(2)
N5A N 0.3274(4) 0.8046(3) 0.4027(2)
N6A N 0.3449(4) 0.9073(3) 0.5416(2)
Cd1A Cd -0.38129(3) 0.35254(3) 0.725699(16)
N3A_2 N -0.5023(4) 0.4816(4) 0.8462(2)
O1A_2 O -0.5371(4) 0.4584(3) 0.6316(2)
O2A_2 O -0.6477(3) 0.2882(3) 0.6803(2)
O3A_2 O -0.3660(4) 0.1701(4) 0.8070(2)
O4A_2 O -0.1459(4) 0.2609(4) 0.7929(2)
Cd1A_2 Cd -0.38129(3) 1.35254(3) -0.274301(16)
Cd1A_3 Cd 1.61871(3) 0.35254(3) -0.274301(16)
Cd1A_4 Cd 1.61871(3) 0.35254(3) 0.725699(16)
O5 O 0.6161(8) 0.9266(7) 0.1283(5)
O6 O 0.8534(7) 0.8299(7) 0.2368(5)
loop_
_geom_bond_atom_site_label_1
_geom_bond_atom_site_label_2
_geom_bond_site_symmetry_1
_geom_bond_site_symmetry_2
C1 H1 1_555 1_555
C2 H2 1_555 1_555
C3 C2 1_555 1_555
H3 C3 1_555 1_555
C4 H4 1_555 1_555
H5 C4 1_555 1_555
C5 C4 1_555 1_555
H6 C5 1_555 1_555
H7 C5 1_555 1_555
C6 H8 1_555 1_555
C7 H9 1_555 1_555
C8 C7 1_555 1_555
H10 C8 1_555 1_555
C9 H11 1_555 1_555
H12 C9 1_555 1_555
C10 C9 1_555 1_555
H13 C10 1_555 1_555
H14 C10 1_555 1_555
C11 H15 1_555 1_555
C12 H16 1_555 1_555
C13 C12 1_555 1_555
H17 C13 1_555 1_555
C14 H18 1_555 1_555
H19 C14 1_555 1_555
C15 C5 1_555 1_555
H20 C15 1_555 1_555
H21 C15 1_555 1_555
C16 C17 1_555 1_555
C17 C18 1_555 1_555
C18 H22 1_555 1_555
C19 C18 1_555 1_555
C20 C19 1_555 1_555
H23 C20 1_555 1_555
C21 C17 1_555 1_555
H24 C21 1_555 1_555
C22 C23 1_555 1_555
C23 C24 1_555 1_555
C24 H25 1_555 1_555
C25 C24 1_555 1_555
C26 C25 1_555 1_555
H26 C26 1_555 1_555
C27 C23 1_555 1_555
H27 C27 1_555 1_555
N1 C1 1_555 1_555
N2 C1 1_555 1_555
N3 C6 1_555 1_555
N4 C6 1_555 1_555
N5 C11 1_555 1_555
N6 C11 1_555 1_555
O1 C16 1_555 1_555
O2 C16 1_555 1_555
O3 C22 1_555 1_555
O4 C22 1_555 1_555
Cd1 N1 1_555 1_555
C6A H8A 1_555 1_555
C7A H9A 1_555 1_555
C8A C7A 1_555 1_555
H10A C8A 1_555 1_555
C9A H11A 1_555 1_555
H12A C9A 1_555 1_555
C10A C10 1_555 1_555
H13A C10A 1_555 1_555
H14A C10A 1_555 1_555
N3A C6A 1_555 1_555
N4A C6A 1_555 1_555
C16A C17A 1_555 1_555
C17A C18A 1_555 1_555
C18A H22A 1_555 1_555
C19A C19 1_555 1_555
C20A C21 1_555 1_555
H23A C20A 1_555 1_555
C21A C20 1_555 1_555
H24A C21A 1_555 1_555
O1A C16A 1_555 1_555
O2A C16A 1_555 1_555
C22A C23A 1_555 1_555
C23A C24A 1_555 1_555
C24A H25A 1_555 1_555
C25A C25 1_555 1_555
C26A C27 1_555 1_555
H26A C26A 1_555 1_555
C27A C26 1_555 1_555
H27A C27A 1_555 1_555
O3A C22A 1_555 1_555
O4A C22A 1_555 1_555
C1A H1A 1_555 1_555
C2A H2A 1_555 1_555
C3A C2A 1_555 1_555
H3A C3A 1_555 1_555
C4A H4A 1_555 1_555
H5A C4A 1_555 1_555
C5A C4A 1_555 1_555
H6A C5A 1_555 1_555
H7A C5A 1_555 1_555
C11A H15A 1_555 1_555
C12A H16A 1_555 1_555
C13A C12A 1_555 1_555
H17A C13A 1_555 1_555
C14A H18A 1_555 1_555
H19A C14A 1_555 1_555
C15A C5A 1_555 1_555
H20A C15A 1_555 1_555
H21A C15A 1_555 1_555
N1A C1A 1_555 1_555
N2A C1A 1_555 1_555
N5A Cd1 1_555 1_555
N6A C11A 1_555 1_555
Cd1A N5 1_555 1_555
N3A_2 Cd1A 1_555 1_555
O1A_2 Cd1A 1_555 1_555
O2A_2 Cd1A 1_555 1_555
O3A_2 Cd1A 1_555 1_555
O4A_2 Cd1A 1_555 1_555
Cd1A_2 O3A 1_555 1_555
Cd1A_3 N3A 1_555 1_555
Cd1A_4 O1A 1_555 1_555
C2 N1 1_555 1_555
C3 N2 1_555 1_555
C4 N2 1_555 1_555
C7 N3 1_555 1_555
C8 N4 1_555 1_555
C9 N4 1_555 1_555
C12 N5 1_555 1_555
C13 N6 1_555 1_555
C14 C15 1_555 1_555
C14 N6 1_555 1_555
N3 Cd1 1_555 1_555
O1 Cd1 1_555 1_555
O2 Cd1 1_555 1_555
O3 Cd1 1_555 1_555
O4 Cd1 1_555 1_555
C7A N3A 1_555 1_555
C8A N4A 1_555 1_555
C9A C10A 1_555 1_555
C9A N4A 1_555 1_555
C17A C21A 1_555 1_555
C18A C19A 1_555 1_555
C19A C20A 1_555 1_555
O2A Cd1A_4 1_555 1_555
C23A C27A 1_555 1_555
C24A C25A 1_555 1_555
C25A C26A 1_555 1_555
O4A Cd1A_2 1_555 1_555
C2A N1A 1_555 1_555
C3A N2A 1_555 1_555
C4A N2A 1_555 1_555
C11A N5A 1_555 1_555
C12A N5A 1_555 1_555
C13A N6A 1_555 1_555
C14A C15A 1_555 1_555
C14A N6A 1_555 1_555
N1A Cd1A 1_555 1_555

#END
