
#######################################################################
#
#                 Cambridge Crystallographic Data Centre
#                                CCDC 
#
#######################################################################
#
# If this CIF has been generated from an entry in the Cambridge 
# Structural Database, then it will include bibliographic, chemical, 
# crystal, experimental, refinement or atomic coordinate data resulting 
# from the CCDC's data processing and validation procedures.
#
#######################################################################

data_XEZJUJ
_symmetry_cell_setting           monoclinic
_symmetry_space_group_name_H-M   'P 21/c'
_symmetry_Int_Tables_number      14
_space_group_name_Hall           '-P 2ybc'
loop_
_symmetry_equiv_pos_site_id
_symmetry_equiv_pos_as_xyz
1 x,y,z
2 -x,1/2+y,1/2-z
3 -x,-y,-z
4 x,1/2-y,1/2+z
_cell_length_a                   15.688(2)
_cell_length_b                   17.425(3)
_cell_length_c                   9.1260(14)
_cell_angle_alpha                90
_cell_angle_beta                 92.219(2)
_cell_angle_gamma                90
_cell_volume                     2492.84
loop_
_atom_site_label
_atom_site_type_symbol
_atom_site_fract_x
_atom_site_fract_y
_atom_site_fract_z
C1 C 0.5108(3) 0.3105(3) 0.1187(6)
H1 H 0.5202 0.2931 0.0243
C2 C 0.4301(3) 0.3007(3) 0.1733(6)
H2 H 0.3875 0.2758 0.1178
C3 C 0.4145(3) 0.3280(3) 0.3094(6)
H3 H 0.3602 0.3237 0.3461
C4 C 0.4802(3) 0.3624(3) 0.3939(5)
C5 C 0.4702(3) 0.3909(3) 0.5394(6)
H4 H 0.4171 0.3884 0.5809
C6 C 0.5364(4) 0.4211(3) 0.6163(5)
H5 H 0.5281 0.4391 0.7106
C7 C 0.6190(3) 0.4267(3) 0.5583(5)
C8 C 0.6895(4) 0.4579(3) 0.6339(5)
H6 H 0.6833 0.4787 0.7267
C9 C 0.7671(3) 0.4581(3) 0.5736(5)
H7 H 0.8147 0.4786 0.6232
C10 C 0.7726(3) 0.4266(2) 0.4346(5)
C11 C 0.6312(3) 0.3984(2) 0.4153(4)
C12 C 0.5610(3) 0.3673(2) 0.3316(5)
C13 C 0.7195(3) 0.5343(3) 0.0428(5)
C14 C 0.7518(3) 0.6020(3) -0.0115(6)
H8 H 0.7241 0.6485 0.0030
C15 C 0.8245(3) 0.5992(3) -0.0863(6)
H9 H 0.8461 0.6436 -0.1278
C16 C 0.8672(3) 0.5296(3) -0.1009(5)
C17 C 0.9435(3) 0.5212(3) -0.1791(5)
H10 H 0.9659 0.5637 -0.2257
C18 C 0.9832(3) 0.4547(3) -0.1872(6)
H11 H 1.0321 0.4510 -0.2413
C19 C 0.9526(3) 0.3881(3) -0.1143(5)
C20 C 0.9955(3) 0.3171(3) -0.1114(6)
H12 H 1.0461 0.3113 -0.1601
C21 C 0.9629(3) 0.2575(3) -0.0375(7)
H13 H 0.9911 0.2106 -0.0334
C22 C 0.8864(3) 0.2673(3) 0.0322(6)
H14 H 0.8645 0.2255 0.0817
C23 C 0.8763(3) 0.3928(2) -0.0390(4)
C24 C 0.8322(3) 0.4645(2) -0.0335(4)
Cl1 Cl 0.87191(8) 0.42277(8) 0.36011(15)
Cl2 Cl 0.62025(9) 0.53504(8) 0.11930(17)
Mn1 Mn 0.71140(4) 0.34971(3) 0.12031(7)
N1 N 0.5748(2) 0.3431(2) 0.1933(4)
N2 N 0.7091(2) 0.39847(18) 0.3547(3)
N3 N 0.7570(2) 0.46711(19) 0.0362(4)
N4 N 0.8430(2) 0.3320(2) 0.0326(4)
N5 N 0.6586(3) 0.3255(2) -0.1002(4)
N6 N 0.6923(2) 0.29531(19) -0.1968(4)
N7 N 0.7258(3) 0.2673(2) -0.2948(4)
Mn1C Mn 0.71140(4) 0.15029(3) -0.37969(7)
N7C N 0.7258(3) 0.2327(2) 0.2052(4)
Cl3 Cl 0.19261(9) 0.15897(7) 0.07118(16)
O1 O 0.2503(7) 0.2007(7) 0.0238(18)
O2 O 0.2207(8) 0.1020(4) 0.1516(10)
O3 O 0.1467(5) 0.2144(4) 0.1456(10)
O4 O 0.1425(8) 0.1296(5) -0.0408(14)
loop_
_geom_bond_atom_site_label_1
_geom_bond_atom_site_label_2
_geom_bond_site_symmetry_1
_geom_bond_site_symmetry_2
C1 H1 1_555 1_555
C2 C1 1_555 1_555
H2 C2 1_555 1_555
C3 C2 1_555 1_555
H3 C3 1_555 1_555
C4 C3 1_555 1_555
C5 C4 1_555 1_555
H4 C5 1_555 1_555
C6 C5 1_555 1_555
H5 C6 1_555 1_555
C7 C6 1_555 1_555
C8 C7 1_555 1_555
H6 C8 1_555 1_555
C9 C8 1_555 1_555
H7 C9 1_555 1_555
C10 C9 1_555 1_555
C11 C7 1_555 1_555
C12 C4 1_555 1_555
C13 C14 1_555 1_555
C14 H8 1_555 1_555
C15 C14 1_555 1_555
H9 C15 1_555 1_555
C16 C15 1_555 1_555
C17 C16 1_555 1_555
H10 C17 1_555 1_555
C18 C17 1_555 1_555
H11 C18 1_555 1_555
C19 C18 1_555 1_555
C20 C19 1_555 1_555
H12 C20 1_555 1_555
C21 C20 1_555 1_555
H13 C21 1_555 1_555
C22 C21 1_555 1_555
H14 C22 1_555 1_555
C23 C19 1_555 1_555
C24 C16 1_555 1_555
Cl1 C10 1_555 1_555
Cl2 C13 1_555 1_555
Mn1 N1 1_555 1_555
N1 C1 1_555 1_555
N2 C10 1_555 1_555
N3 C13 1_555 1_555
N4 C22 1_555 1_555
N5 Mn1 1_555 1_555
N6 N5 1_555 1_555
N7 N6 1_555 1_555
Cl3 O1 1_555 1_555
O2 Cl3 1_555 1_555
O3 Cl3 1_555 1_555
O4 Cl3 1_555 1_555
Mn1C N7 1_555 1_555
N7C Mn1 1_555 1_555
C11 C12 1_555 1_555
C11 N2 1_555 1_555
C12 N1 1_555 1_555
C23 C24 1_555 1_555
C23 N4 1_555 1_555
C24 N3 1_555 1_555
Mn1 N2 1_555 1_555
Mn1 N3 1_555 1_555
Mn1 N4 1_555 1_555

#END
