
#######################################################################
#
#                 Cambridge Crystallographic Data Centre
#                                CCDC 
#
#######################################################################
#
# If this CIF has been generated from an entry in the Cambridge 
# Structural Database, then it will include bibliographic, chemical, 
# crystal, experimental, refinement or atomic coordinate data resulting 
# from the CCDC's data processing and validation procedures.
#
#######################################################################

data_XEZNUN
_symmetry_cell_setting           monoclinic
_symmetry_space_group_name_H-M   'P 21/c'
_symmetry_Int_Tables_number      14
_space_group_name_Hall           '-P 2ybc'
loop_
_symmetry_equiv_pos_site_id
_symmetry_equiv_pos_as_xyz
1 x,y,z
2 -x,1/2+y,1/2-z
3 -x,-y,-z
4 x,1/2-y,1/2+z
_cell_length_a                   11.674(4)
_cell_length_b                   13.998(5)
_cell_length_c                   9.024(3)
_cell_angle_alpha                90
_cell_angle_beta                 110.893(5)
_cell_angle_gamma                90
_cell_volume                     1377.68
loop_
_atom_site_label
_atom_site_type_symbol
_atom_site_fract_x
_atom_site_fract_y
_atom_site_fract_z
Eu1 Eu 0.36968(2) 0.108577(15) 0.94290(3)
C1 C 0.0247(9) 0.0179(7) 0.4448(11)
H1 H 0.0159 0.0868 0.4414
H2 H -0.0244 -0.0063 0.3408
C2 C 0.1595(6) -0.0059(5) 0.4755(6)
H3 H 0.1693 -0.0747 0.4742
H4 H 0.1829 0.0210 0.3913
C3 C 0.2424(5) 0.0330(4) 0.6327(6)
C4 C -0.0684(6) 0.1450(6) 0.9259(7)
H5 H -0.0665 0.0829 0.8789
H6 H -0.0709 0.1930 0.8472
C5 C 0.0483(5) 0.1575(5) 1.0656(7)
H7 H 0.0432 0.1199 1.1534
H8 H 0.0560 0.2240 1.0975
C6 C 0.1614(5) 0.1284(4) 1.0341(7)
C7 C -0.1854(6) 0.1523(5) 0.9622(7)
H9 H -0.1791 0.1116 1.0519
H10 H -0.1964 0.2176 0.9907
C8 C -0.2950(6) 0.1224(4) 0.8204(8)
H11 H -0.3071 0.1681 0.7355
H12 H -0.2786 0.0606 0.7834
C9 C -0.4101(5) 0.1160(3) 0.8576(6)
O1 O 0.2631(4) 0.1215(3) 0.6487(4)
O2 O 0.2902(4) -0.0219(3) 0.7489(4)
O3 O 0.1530(4) 0.0964(3) 0.9011(5)
O4 O 0.2667(3) 0.1367(3) 1.1412(4)
O5 O -0.4822(4) 0.1856(3) 0.8350(5)
O6 O 0.5335(4) 0.1576(3) 1.1759(5)
O7 O -0.4352(3) 0.0390(2) 0.9144(4)
O8 O 0.3193(5) 0.2739(3) 0.9234(5)
H13 H 0.595(5) 0.123(5) 1.220(9)
H14 H 0.539(6) 0.207(3) 1.230(6)
H15 H 0.296(7) 0.303(5) 0.986(8)
H16 H 0.303(6) 0.295(4) 0.833(4)
C1B C -0.0247(9) -0.0179(7) 0.5552(11)
H1B H -0.0159 -0.0868 0.5586
H2B H 0.0244 0.0063 0.6592
C2B C -0.1595(6) 0.0059(5) 0.5245(6)
H3B H -0.1693 0.0747 0.5258
H4B H -0.1829 -0.0210 0.6087
C3B C -0.2424(5) -0.0330(4) 0.3673(6)
O1B O -0.2631(4) -0.1215(3) 0.3513(4)
O2B O -0.2902(4) 0.0219(3) 0.2511(4)
Eu1B Eu -0.36968(2) -0.108577(15) 0.05710(3)
C4B C 0.0684(6) -0.1450(6) 0.0741(7)
H5B H 0.0665 -0.0829 0.1211
H6B H 0.0709 -0.1930 0.1528
C5B C -0.0483(5) -0.1575(5) -0.0656(7)
H7B H -0.0432 -0.1199 -0.1534
H8B H -0.0560 -0.2240 -0.0975
C6B C -0.1614(5) -0.1284(4) -0.0341(7)
C7B C 0.1854(6) -0.1523(5) 0.0378(7)
H9B H 0.1791 -0.1116 -0.0519
H10B H 0.1964 -0.2176 0.0093
C8B C 0.2950(6) -0.1224(4) 0.1796(8)
H11B H 0.3071 -0.1681 0.2645
H12B H 0.2786 -0.0606 0.2166
C9B C 0.4101(5) -0.1160(3) 0.1424(6)
O3B O -0.1530(4) -0.0964(3) 0.0989(5)
O4B O -0.2667(3) -0.1367(3) -0.1412(4)
O5B O 0.4822(4) -0.1856(3) 0.1650(5)
O6B O -0.5335(4) -0.1576(3) -0.1759(5)
O7B O 0.4352(3) -0.0390(2) 0.0856(4)
O8B O -0.3193(5) -0.2739(3) 0.0766(5)
H13B H -0.595(5) -0.123(5) -0.220(9)
H14B H -0.539(6) -0.207(3) -0.230(6)
H15B H -0.296(7) -0.303(5) 0.014(8)
H16B H -0.303(6) -0.295(4) 0.167(4)
Eu1_2 Eu -0.63032(2) 0.108577(15) 0.94290(3)
Eu1_3 Eu 0.36968(2) 0.108577(15) -0.05710(3)
Eu1B_2 Eu -0.36968(2) -0.108577(15) 1.05710(3)
Eu1B_3 Eu 0.63032(2) -0.108577(15) 0.05710(3)
O5_2 O 0.5178(4) 0.1856(3) 0.8350(5)
O5B_2 O -0.5178(4) -0.1856(3) 0.1650(5)
O7_2 O -0.4352(3) 0.0390(2) -0.0856(4)
O7_3 O 0.5648(3) 0.0390(2) 0.9144(4)
O7B_2 O -0.5648(3) -0.0390(2) 0.0856(4)
O7B_3 O 0.4352(3) -0.0390(2) 1.0856(4)
O9 O 0.5000 0.0000 0.5000
loop_
_geom_bond_atom_site_label_1
_geom_bond_atom_site_label_2
_geom_bond_site_symmetry_1
_geom_bond_site_symmetry_2
Eu1 O1 1_555 1_555
C1 H1 1_555 1_555
H2 C1 1_555 1_555
C2 C1 1_555 1_555
H3 C2 1_555 1_555
H4 C2 1_555 1_555
C3 C2 1_555 1_555
C4 H5 1_555 1_555
H6 C4 1_555 1_555
C5 C4 1_555 1_555
H7 C5 1_555 1_555
H8 C5 1_555 1_555
C6 C5 1_555 1_555
C7 C4 1_555 1_555
H9 C7 1_555 1_555
H10 C7 1_555 1_555
C8 C7 1_555 1_555
H11 C8 1_555 1_555
H12 C8 1_555 1_555
C9 C8 1_555 1_555
O1 C3 1_555 1_555
O2 Eu1 1_555 1_555
O3 Eu1 1_555 1_555
O4 Eu1 1_555 1_555
O5 C9 1_555 1_555
O6 Eu1 1_555 1_555
O7 C9 1_555 1_555
O8 Eu1 1_555 1_555
H13 O6 1_555 1_555
H14 O6 1_555 1_555
H15 O8 1_555 1_555
H16 O8 1_555 1_555
C1B C1 1_555 1_555
H1B C1B 1_555 1_555
H2B C1B 1_555 1_555
C2B C1B 1_555 1_555
H3B C2B 1_555 1_555
H4B C2B 1_555 1_555
C3B C2B 1_555 1_555
O1B C3B 1_555 1_555
O2B C3B 1_555 1_555
Eu1B O1B 1_555 1_555
C4B H5B 1_555 1_555
H6B C4B 1_555 1_555
C5B C4B 1_555 1_555
H7B C5B 1_555 1_555
H8B C5B 1_555 1_555
C6B C5B 1_555 1_555
C7B C4B 1_555 1_555
H9B C7B 1_555 1_555
H10B C7B 1_555 1_555
C8B C7B 1_555 1_555
H11B C8B 1_555 1_555
H12B C8B 1_555 1_555
C9B C8B 1_555 1_555
O3B Eu1B 1_555 1_555
O4B Eu1B 1_555 1_555
O5B C9B 1_555 1_555
O6B Eu1B 1_555 1_555
O7B C9B 1_555 1_555
O8B Eu1B 1_555 1_555
H13B O6B 1_555 1_555
H14B O6B 1_555 1_555
H15B O8B 1_555 1_555
H16B O8B 1_555 1_555
Eu1_2 O5 1_555 1_555
Eu1_3 O7B 1_555 1_555
Eu1B_2 O7 1_555 1_555
Eu1B_3 O5B 1_555 1_555
O5_2 Eu1 1_555 1_555
O5B_2 Eu1B 1_555 1_555
O7_2 Eu1B 1_555 1_555
O7_3 Eu1 1_555 1_555
O7B_2 Eu1B 1_555 1_555
O7B_3 Eu1 1_555 1_555
C3 O2 1_555 1_555
C6 O3 1_555 1_555
C6 O4 1_555 1_555
O7 Eu1_2 1_555 1_555
O2B Eu1B 1_555 1_555
C6B O3B 1_555 1_555
C6B O4B 1_555 1_555
O7B Eu1B_3 1_555 1_555

#END
