
#######################################################################
#
#                 Cambridge Crystallographic Data Centre
#                                CCDC 
#
#######################################################################
#
# If this CIF has been generated from an entry in the Cambridge 
# Structural Database, then it will include bibliographic, chemical, 
# crystal, experimental, refinement or atomic coordinate data resulting 
# from the CCDC's data processing and validation procedures.
#
#######################################################################

data_XEZQAW
_symmetry_cell_setting           monoclinic
_symmetry_space_group_name_H-M   'C 2/c'
_symmetry_Int_Tables_number      15
_space_group_name_Hall           '-C 2yn'
loop_
_symmetry_equiv_pos_site_id
_symmetry_equiv_pos_as_xyz
1 x,y,z
2 -x,y,1/2-z
3 1/2+x,1/2+y,z
4 1/2-x,1/2+y,1/2-z
5 -x,-y,-z
6 x,-y,1/2+z
7 1/2-x,1/2-y,-z
8 1/2+x,1/2-y,1/2+z
_cell_length_a                   13.956(2)
_cell_length_b                   18.311(3)
_cell_length_c                   9.1819(16)
_cell_angle_alpha                90
_cell_angle_beta                 99.243(2)
_cell_angle_gamma                90
_cell_volume                     2315.95
loop_
_atom_site_label
_atom_site_type_symbol
_atom_site_fract_x
_atom_site_fract_y
_atom_site_fract_z
Mn1 Mn 0.0000 0.047738(18) -0.2500
C1 C -0.09965(17) 0.12847(12) -0.0110(2)
H1 H -0.0665 0.0917 0.0462
C2 C -0.16356(18) 0.17154(12) 0.0514(2)
H2 H -0.1725 0.1635 0.1483
C3 C -0.21436(14) 0.22692(10) -0.0309(2)
C4 C -0.19425(17) 0.23718(12) -0.1722(2)
H3 H -0.2244 0.2747 -0.2308
C5 C -0.12924(16) 0.19153(12) -0.2259(2)
H4 H -0.1170 0.1993 -0.3213
C6 C 0.13938(11) 0.05253(9) 0.07563(19)
C7 C 0.24603(11) 0.06516(10) 0.13093(19)
C8 C 0.28826(14) 0.03839(13) 0.2673(2)
H5 H 0.2503 0.0152 0.3278
C9 C 0.30395(12) 0.10133(11) 0.0447(2)
H6 H 0.2758 0.1204 -0.0461
C10 C 0.38756(15) 0.04629(14) 0.3134(3)
H7 H 0.4153 0.0282 0.4052
C11 C 0.44604(12) 0.08043(12) 0.2257(2)
C12 C 0.40368(13) 0.10975(13) 0.0911(2)
C13 C 0.4595(4) 0.1505(3) -0.0202(6)
H8 H 0.5167 0.1731 0.0329
H9 H 0.4182 0.1872 -0.0718
H10 H 0.4777 0.1161 -0.0898
O1 O 0.11160(9) 0.06169(8) -0.05935(14)
O2 O 0.08721(9) 0.03375(7) 0.16839(15)
N1 N -0.08315(12) 0.13696(9) -0.14814(17)
C1F C -0.40035(17) 0.37153(12) 0.0110(2)
H1F H -0.4335 0.4083 -0.0462
C2F C -0.33644(18) 0.32846(12) -0.0514(2)
H2F H -0.3275 0.3365 -0.1483
C3F C -0.28564(14) 0.27308(10) 0.0309(2)
C4F C -0.30575(17) 0.26282(12) 0.1722(2)
H3F H -0.2756 0.2253 0.2308
C5F C -0.37076(16) 0.30847(12) 0.2259(2)
H4F H -0.3830 0.3007 0.3213
N1F N -0.41685(12) 0.36304(9) 0.14814(17)
C6A C 0.86062(11) 0.05253(9) 0.42437(19)
C7A C 0.75397(11) 0.06516(10) 0.36907(19)
C8A C 0.71174(14) 0.03839(13) 0.2327(2)
H5A H 0.7497 0.0152 0.1722
C9A C 0.69605(12) 0.10133(11) 0.4553(2)
H6A H 0.7242 0.1204 0.5461
C10A C 0.61244(15) 0.04629(14) 0.1866(3)
H7A H 0.5847 0.0282 0.0948
C11A C 0.55396(12) 0.08043(12) 0.2743(2)
C12A C 0.59632(13) 0.10975(13) 0.4089(2)
C13A C 0.5405(4) 0.1505(3) 0.5202(6)
H8A H 0.4833 0.1731 0.4671
H9A H 0.5818 0.1872 0.5718
H10A H 0.5223 0.1161 0.5898
O1A O 0.88840(9) 0.06169(8) 0.55935(14)
O2A O 0.91279(9) 0.03375(7) 0.33161(15)
Mn1_2 Mn 1.0000 0.047738(18) 0.7500
Mn1D Mn 0.0000 -0.047738(18) 0.2500
Mn1D_2 Mn 1.0000 -0.047738(18) 0.2500
Mn1F Mn -0.5000 0.452262(18) 0.2500
O1A_2 O -0.11160(9) 0.06169(8) -0.44065(14)
O2D O -0.08721(9) -0.03375(7) -0.16839(15)
O2E O 0.08721(9) -0.03375(7) -0.33161(15)
N1A N 0.08315(12) 0.13696(9) -0.35186(17)
loop_
_geom_bond_atom_site_label_1
_geom_bond_atom_site_label_2
_geom_bond_site_symmetry_1
_geom_bond_site_symmetry_2
Mn1 O1 1_555 1_555
C1 H1 1_555 1_555
C2 C1 1_555 1_555
H2 C2 1_555 1_555
C3 C2 1_555 1_555
C4 C3 1_555 1_555
H3 C4 1_555 1_555
C5 C4 1_555 1_555
H4 C5 1_555 1_555
C6 C7 1_555 1_555
C7 C8 1_555 1_555
C8 H5 1_555 1_555
C9 C7 1_555 1_555
H6 C9 1_555 1_555
C10 C8 1_555 1_555
H7 C10 1_555 1_555
C11 C10 1_555 1_555
C12 C9 1_555 1_555
C13 C12 1_555 1_555
H8 C13 1_555 1_555
H9 C13 1_555 1_555
H10 C13 1_555 1_555
O1 C6 1_555 1_555
O2 C6 1_555 1_555
N1 Mn1 1_555 1_555
C1F H1F 1_555 1_555
C2F C1F 1_555 1_555
H2F C2F 1_555 1_555
C3F C3 1_555 1_555
C4F C3F 1_555 1_555
H3F C4F 1_555 1_555
C5F C4F 1_555 1_555
H4F C5F 1_555 1_555
N1F C1F 1_555 1_555
C6A C7A 1_555 1_555
C7A C8A 1_555 1_555
C8A H5A 1_555 1_555
C9A C7A 1_555 1_555
H6A C9A 1_555 1_555
C10A C8A 1_555 1_555
H7A C10A 1_555 1_555
C11A C11 1_555 1_555
C12A C9A 1_555 1_555
C13A C12A 1_555 1_555
H8A C13A 1_555 1_555
H9A C13A 1_555 1_555
H10A C13A 1_555 1_555
O1A C6A 1_555 1_555
O2A C6A 1_555 1_555
Mn1_2 O1A 1_555 1_555
Mn1D O2 1_555 1_555
Mn1D_2 O2A 1_555 1_555
Mn1F N1F 1_555 1_555
O1A_2 Mn1 1_555 1_555
O2D Mn1 1_555 1_555
O2E Mn1 1_555 1_555
N1A Mn1 1_555 1_555
C1 N1 1_555 1_555
C5 N1 1_555 1_555
C11 C12 1_555 1_555
C2F C3F 1_555 1_555
C5F N1F 1_555 1_555
C10A C11A 1_555 1_555
C11A C12A 1_555 1_555

#END
