
#######################################################################
#
#                 Cambridge Crystallographic Data Centre
#                                CCDC 
#
#######################################################################
#
# If this CIF has been generated from an entry in the Cambridge 
# Structural Database, then it will include bibliographic, chemical, 
# crystal, experimental, refinement or atomic coordinate data resulting 
# from the CCDC's data processing and validation procedures.
#
#######################################################################

data_XEZXUW
_symmetry_cell_setting           monoclinic
_symmetry_space_group_name_H-M   'C 2/c'
_symmetry_Int_Tables_number      15
_space_group_name_Hall           '-C 2yn'
loop_
_symmetry_equiv_pos_site_id
_symmetry_equiv_pos_as_xyz
1 x,y,z
2 1/2+x,1/2+y,z
3 -x,y,1/2-z
4 1/2-x,1/2+y,1/2-z
5 -x,-y,-z
6 1/2-x,1/2-y,-z
7 x,-y,1/2+z
8 1/2+x,1/2-y,1/2+z
_cell_length_a                   15.3026(19)
_cell_length_b                   9.2891(11)
_cell_length_c                   10.797(2)
_cell_angle_alpha                90
_cell_angle_beta                 113.182(19)
_cell_angle_gamma                90
_cell_volume                     1410.85
loop_
_atom_site_label
_atom_site_type_symbol
_atom_site_fract_x
_atom_site_fract_y
_atom_site_fract_z
Ag1 Ag 0.42343(2) 0.59162(4) 0.58475(3)
O1 O 0.5000 0.3982(5) 0.7500
H1 H 0.474(5) 0.348(7) 0.771(7)
C1 C 0.2442(3) 0.8391(4) 0.1862(4)
C2 C 0.2936(3) 0.7628(4) 0.3062(4)
O2 O 0.3774(2) 0.7289(4) 0.3681(3)
O3 O 0.2271(2) 0.7237(3) 0.3558(3)
N1 N 0.1374(2) 0.7743(4) 0.2712(3)
N2 N 0.1507(2) 0.8398(4) 0.1722(3)
O4 O 0.07956(19) 0.8928(3) 0.0764(3)
C3 C 0.2786(3) 0.8994(4) 0.0901(4)
O5 O 0.2301(2) 0.9437(3) -0.0210(3)
O6 O 0.3730(2) 0.8977(3) 0.1422(3)
C4 C 0.4198(3) 0.9560(6) 0.0599(5)
H2 H 0.4874 0.9499 0.1082
H3 H 0.4017 1.0549 0.0393
H4 H 0.4013 0.9018 -0.0222
Ag1B Ag 0.57657(2) 0.59162(4) 0.91525(3)
Ag1E Ag 0.07657(2) 0.90838(4) 0.41525(3)
Ag1G Ag -0.07657(2) 0.90838(4) 0.08475(3)
Ag1C Ag 0.07657(2) 1.09162(4) -0.08475(3)
Ag1F Ag 0.42343(2) 0.40838(4) 1.08475(3)
H1B H 0.526(5) 0.348(7) 0.729(7)
C1E C 0.2558(3) 0.6609(4) 0.8138(4)
C2E C 0.2064(3) 0.7372(4) 0.6938(4)
O2E O 0.1226(2) 0.7711(4) 0.6319(3)
O2B O 0.6226(2) 0.7289(4) 1.1319(3)
O3E O 0.2729(2) 0.7763(3) 0.6442(3)
N1E N 0.3626(2) 0.7257(4) 0.7288(3)
N1G N 0.6374(2) 0.7257(4) 0.7712(3)
N2E N 0.3493(2) 0.6602(4) 0.8278(3)
O4E O 0.42044(19) 0.6072(3) 0.9236(3)
O4G O 0.57956(19) 0.6072(3) 0.5764(3)
O4C O 0.42044(19) 0.3928(3) 0.4236(3)
O4A O 0.57956(19) 0.3928(3) 1.0764(3)
C3E C 0.2214(3) 0.6006(4) 0.9099(4)
O5E O 0.2699(2) 0.5563(3) 1.0210(3)
O5C O 0.2699(2) 0.4437(3) 0.5210(3)
O5A O 0.7301(2) 0.4437(3) 0.9790(3)
O6E O 0.1270(2) 0.6023(3) 0.8578(3)
C4E C 0.0802(3) 0.5440(6) 0.9401(5)
H2E H 0.0126 0.5501 0.8918
H3E H 0.0983 0.4451 0.9607
H4E H 0.0987 0.5982 1.0222
loop_
_geom_bond_atom_site_label_1
_geom_bond_atom_site_label_2
_geom_bond_site_symmetry_1
_geom_bond_site_symmetry_2
Ag1 O1 1_555 1_555
O1 H1 1_555 1_555
C1 C2 1_555 1_555
C2 O2 1_555 1_555
O2 Ag1 1_555 1_555
O3 C2 1_555 1_555
N1 O3 1_555 1_555
N2 C1 1_555 1_555
O4 N2 1_555 1_555
C3 C1 1_555 1_555
O5 C3 1_555 1_555
O6 C3 1_555 1_555
C4 O6 1_555 1_555
H2 C4 1_555 1_555
H3 C4 1_555 1_555
H4 C4 1_555 1_555
Ag1B O1 1_555 1_555
Ag1E N1 1_555 1_555
Ag1G O4 1_555 1_555
Ag1C O4 1_555 1_555
Ag1F O4E 1_555 1_555
H1B O1 1_555 1_555
C1E C2E 1_555 1_555
C2E O2E 1_555 1_555
O2E Ag1E 1_555 1_555
O2B Ag1B 1_555 1_555
O3E C2E 1_555 1_555
N1E Ag1 1_555 1_555
N1G Ag1B 1_555 1_555
N2E C1E 1_555 1_555
O4E Ag1B 1_555 1_555
O4G Ag1 1_555 1_555
O4C Ag1 1_555 1_555
O4A Ag1B 1_555 1_555
C3E C1E 1_555 1_555
O5E Ag1F 1_555 1_555
O5C Ag1 1_555 1_555
O5A Ag1B 1_555 1_555
O6E C3E 1_555 1_555
C4E O6E 1_555 1_555
H2E C4E 1_555 1_555
H3E C4E 1_555 1_555
H4E C4E 1_555 1_555
N1 N2 1_555 1_555
O5 Ag1C 1_555 1_555
Ag1F O4A 1_555 1_555
O3E N1E 1_555 1_555
N1E N2E 1_555 1_555
N2E O4E 1_555 1_555
C3E O5E 1_555 1_555

#END
