
#######################################################################
#
#                 Cambridge Crystallographic Data Centre
#                                CCDC 
#
#######################################################################
#
# If this CIF has been generated from an entry in the Cambridge 
# Structural Database, then it will include bibliographic, chemical, 
# crystal, experimental, refinement or atomic coordinate data resulting 
# from the CCDC's data processing and validation procedures.
#
#######################################################################

data_XIBMIE
_symmetry_cell_setting           monoclinic
_symmetry_space_group_name_H-M   'C 2/c'
_symmetry_Int_Tables_number      15
_space_group_name_Hall           '-C 2yn'
loop_
_symmetry_equiv_pos_site_id
_symmetry_equiv_pos_as_xyz
1 x,y,z
2 1/2+x,1/2+y,z
3 x,-y,1/2+z
4 1/2+x,1/2-y,1/2+z
5 -x,-y,-z
6 1/2-x,1/2-y,-z
7 -x,y,1/2-z
8 1/2-x,1/2+y,1/2-z
_cell_length_a                   24.066(17)
_cell_length_b                   10.856(7)
_cell_length_c                   18.750(8)
_cell_angle_alpha                90
_cell_angle_beta                 120.81(1)
_cell_angle_gamma                90
_cell_volume                     4207.29
loop_
_atom_site_label
_atom_site_type_symbol
_atom_site_fract_x
_atom_site_fract_y
_atom_site_fract_z
Ag1 Ag 0.32382(2) 0.03280(4) 0.56123(2)
Ag2 Ag 0.28366(2) 0.02861(4) 0.69087(2)
O1 O 0.3649(2) 0.2186(4) 0.6286(2)
O2 O 0.3907(2) 0.1001(4) 0.7375(3)
O3 O 0.4564(2) 0.1813(5) 0.8819(3)
H1 H 0.4229 0.1447 0.8336
C1 C 0.3902(2) 0.2041(6) 0.7040(3)
C2 C 0.4216(2) 0.3099(5) 0.7622(3)
C3 C 0.4525(3) 0.2940(6) 0.8486(3)
C4 C 0.4806(3) 0.3947(7) 0.9007(4)
H2 H 0.5017 0.3840 0.9597
C5 C 0.4776(3) 0.5097(7) 0.8687(5)
H3 H 0.4979 0.5786 0.9051
C6 C 0.4451(4) 0.5268(6) 0.7830(5)
H4 H 0.4414 0.6077 0.7602
C7 C 0.4178(3) 0.4279(6) 0.7307(4)
H5 H 0.3963 0.4393 0.6716
O4 O 0.2041(2) -0.0776(5) 0.5811(3)
O5 O 0.2325(2) -0.0788(4) 0.4856(3)
O6 O 0.1764(2) -0.2195(4) 0.3609(2)
H6 H 0.2019 -0.1573 0.4095
C8 C 0.1977(3) -0.1136(5) 0.5147(4)
C9 C 0.1473(2) -0.2083(5) 0.4651(3)
C10 C 0.1392(2) -0.2568(5) 0.3918(3)
C11 C 0.0932(3) -0.3486(6) 0.3498(3)
H7 H 0.0885 -0.3837 0.3000
C12 C 0.0543(3) -0.3882(6) 0.3795(4)
H8 H 0.0231 -0.4522 0.3508
C13 C 0.0599(3) -0.3382(6) 0.4497(4)
H9 H 0.0317 -0.3644 0.4689
C14 C 0.1061(3) -0.2502(5) 0.4925(3)
H10 H 0.1102 -0.2157 0.5421
N1 N 0.32723(19) 0.1190(4) 0.4442(2)
N2 N 0.3101(2) 0.0994(4) 0.3042(2)
N3 N 0.2819(2) 0.2920(4) 0.3463(2)
N4 N 0.39579(19) 0.2348(4) 0.4065(2)
C15 C 0.3089(3) 0.0363(5) 0.3736(3)
H11 H 0.2662 0.0048 0.3540
H12 H 0.3383 -0.0322 0.3917
C16 C 0.2817(2) 0.2243(5) 0.4147(3)
H13 H 0.2931 0.2796 0.4601
H14 H 0.2387 0.1942 0.3955
C17 C 0.3933(2) 0.1691(5) 0.4734(3)
H15 H 0.4237 0.1022 0.4923
H16 H 0.4057 0.2241 0.5192
C18 C 0.3765(2) 0.1501(5) 0.3375(3)
H17 H 0.3782 0.1923 0.2937
H18 H 0.4068 0.0831 0.3556
C19 C 0.3494(3) 0.3363(5) 0.3780(3)
H19 H 0.3613 0.3924 0.4232
H20 H 0.3508 0.3802 0.3345
C20 C 0.2649(2) 0.2043(5) 0.2778(3)
H21 H 0.2219 0.1740 0.2573
H22 H 0.2654 0.2467 0.2332
N2B N 0.3101(2) -0.0994(4) 0.8042(2)
N3E N 0.2181(2) 0.2080(4) 0.6537(2)
Ag2B Ag 0.28366(2) -0.02861(4) 0.19087(2)
Ag2E Ag 0.21634(2) 0.47139(4) 0.30913(2)
loop_
_geom_bond_atom_site_label_1
_geom_bond_atom_site_label_2
_geom_bond_site_symmetry_1
_geom_bond_site_symmetry_2
Ag1 O1 1_555 1_555
Ag2 O2 1_555 1_555
O1 C1 1_555 1_555
O2 C1 1_555 1_555
O3 H1 1_555 1_555
C1 C2 1_555 1_555
C2 C3 1_555 1_555
C3 O3 1_555 1_555
C4 C3 1_555 1_555
H2 C4 1_555 1_555
C5 C4 1_555 1_555
H3 C5 1_555 1_555
C6 C5 1_555 1_555
H4 C6 1_555 1_555
C7 C2 1_555 1_555
H5 C7 1_555 1_555
O4 Ag2 1_555 1_555
O5 Ag1 1_555 1_555
O6 H6 1_555 1_555
C8 O4 1_555 1_555
C9 C8 1_555 1_555
C10 O6 1_555 1_555
C11 C10 1_555 1_555
H7 C11 1_555 1_555
C12 C11 1_555 1_555
H8 C12 1_555 1_555
C13 C12 1_555 1_555
H9 C13 1_555 1_555
C14 C9 1_555 1_555
H10 C14 1_555 1_555
N1 Ag1 1_555 1_555
N2 C15 1_555 1_555
N3 C16 1_555 1_555
N4 C17 1_555 1_555
C15 N1 1_555 1_555
H11 C15 1_555 1_555
H12 C15 1_555 1_555
C16 N1 1_555 1_555
H13 C16 1_555 1_555
H14 C16 1_555 1_555
C17 N1 1_555 1_555
H15 C17 1_555 1_555
H16 C17 1_555 1_555
C18 N2 1_555 1_555
H17 C18 1_555 1_555
H18 C18 1_555 1_555
C19 N3 1_555 1_555
H19 C19 1_555 1_555
H20 C19 1_555 1_555
C20 N2 1_555 1_555
H21 C20 1_555 1_555
H22 C20 1_555 1_555
N2B Ag2 1_555 1_555
N3E Ag2 1_555 1_555
Ag2B N2 1_555 1_555
Ag2E N3 1_555 1_555
C6 C7 1_555 1_555
O5 C8 1_555 1_555
C9 C10 1_555 1_555
C13 C14 1_555 1_555
N3 C20 1_555 1_555
N4 C18 1_555 1_555
N4 C19 1_555 1_555

#END
