
#######################################################################
#
#                 Cambridge Crystallographic Data Centre
#                                CCDC 
#
#######################################################################
#
# If this CIF has been generated from an entry in the Cambridge 
# Structural Database, then it will include bibliographic, chemical, 
# crystal, experimental, refinement or atomic coordinate data resulting 
# from the CCDC's data processing and validation procedures.
#
#######################################################################

data_XIBPEE01
_symmetry_cell_setting           monoclinic
_symmetry_space_group_name_H-M   'P 21/n'
_symmetry_Int_Tables_number      14
_space_group_name_Hall           '-P 2yn'
loop_
_symmetry_equiv_pos_site_id
_symmetry_equiv_pos_as_xyz
1 x,y,z
2 1/2-x,1/2+y,1/2-z
3 -x,-y,-z
4 1/2+x,1/2-y,1/2+z
_cell_length_a                   11.450(2)
_cell_length_b                   15.009(3)
_cell_length_c                   12.175(2)
_cell_angle_alpha                90
_cell_angle_beta                 116.396(3)
_cell_angle_gamma                90
_cell_volume                     1874.17
loop_
_atom_site_label
_atom_site_type_symbol
_atom_site_fract_x
_atom_site_fract_y
_atom_site_fract_z
Cu1 Cu 0.67731(3) 0.021174(19) 0.87702(2)
C1 C 0.4099(2) -0.04824(18) 0.8148(2)
H1 H 0.4443 -0.0721 0.8934
C2 C 0.2775(3) -0.0586(2) 0.7375(3)
H2 H 0.2250 -0.0895 0.7649
C3 C 0.2242(3) -0.02397(18) 0.6220(2)
H3 H 0.1359 -0.0310 0.5703
C4 C 0.3051(2) 0.02256(15) 0.5825(2)
C5 C 0.2586(2) 0.06218(17) 0.4621(2)
C6 C 0.0943(3) 0.0859(2) 0.2739(2)
H4 H 0.0079 0.0789 0.2161
C7 C 0.1777(3) 0.1330(2) 0.2409(2)
H5 H 0.1447 0.1569 0.1624
C8 C 0.3438(3) 0.10963(17) 0.4299(2)
C9 C 0.4795(2) 0.12055(16) 0.5173(2)
C10 C 0.5706(3) 0.16985(18) 0.4944(2)
H6 H 0.5455 0.1989 0.4198
C11 C 0.6961(3) 0.1746(2) 0.5830(2)
H7 H 0.7573 0.2069 0.5686
C12 C 0.7337(3) 0.13118(18) 0.6955(2)
H8 H 0.8200 0.1346 0.7547
C13 C 0.5238(2) 0.08012(15) 0.6316(2)
C14 C 0.4354(2) 0.03060(15) 0.6643(2)
C15 C 0.7757(2) -0.15244(17) 1.1834(2)
C16 C 0.8863(2) -0.1774(2) 1.2890(2)
H9 H 0.9686 -0.1615 1.2979
C17 C 0.8749(2) -0.22508(19) 1.3797(2)
H10 H 0.9496 -0.2414 1.4492
C18 C 0.7533(2) -0.24935(16) 1.3691(2)
C19 C 0.6428(2) -0.22284(15) 1.2650(2)
H11 H 0.5605 -0.2377 1.2570
C20 C 0.6540(2) -0.17471(16) 1.1734(2)
H12 H 0.5793 -0.1571 1.1047
C21 C 0.7913(2) -0.10001(18) 1.0852(2)
C22 C 0.7394(2) -0.30981(16) 1.4618(2)
N1 N 0.4881(2) -0.00503(14) 0.77892(18)
N2 N 0.64852(19) 0.08537(13) 0.71919(17)
N3 N 0.1315(2) 0.05054(17) 0.3832(2)
N4 N 0.3021(2) 0.14537(16) 0.31626(19)
O1 O 0.9011(2) -0.09564(18) 1.0901(2)
O2 O 0.68903(17) -0.06427(13) 1.00319(16)
O3 O 0.83773(16) -0.35466(13) 1.53011(16)
O4 O 0.62954(17) -0.31417(13) 1.46045(17)
O5 O 0.86423(16) 0.03377(12) 0.93876(16)
H13 H 0.9035 0.0778 0.9840
H14 H 0.9070 -0.0049 0.9205
Cu1A Cu 0.82269(3) -0.478826(19) 1.62298(2)
O3A O 0.66227(16) 0.14534(13) 0.96989(16)
loop_
_geom_bond_atom_site_label_1
_geom_bond_atom_site_label_2
_geom_bond_site_symmetry_1
_geom_bond_site_symmetry_2
Cu1 N1 1_555 1_555
C1 H1 1_555 1_555
C2 C1 1_555 1_555
H2 C2 1_555 1_555
C3 C2 1_555 1_555
H3 C3 1_555 1_555
C4 C3 1_555 1_555
C5 C4 1_555 1_555
C6 H4 1_555 1_555
C7 C6 1_555 1_555
H5 C7 1_555 1_555
C8 C5 1_555 1_555
C9 C8 1_555 1_555
C10 C9 1_555 1_555
H6 C10 1_555 1_555
C11 C10 1_555 1_555
H7 C11 1_555 1_555
C12 C11 1_555 1_555
H8 C12 1_555 1_555
C13 C9 1_555 1_555
C14 C4 1_555 1_555
C15 C16 1_555 1_555
C16 H9 1_555 1_555
C17 C16 1_555 1_555
H10 C17 1_555 1_555
C18 C17 1_555 1_555
C19 C18 1_555 1_555
H11 C19 1_555 1_555
C20 C15 1_555 1_555
H12 C20 1_555 1_555
C21 C15 1_555 1_555
C22 C18 1_555 1_555
N1 C1 1_555 1_555
N2 Cu1 1_555 1_555
N3 C5 1_555 1_555
N4 C7 1_555 1_555
O1 C21 1_555 1_555
O2 Cu1 1_555 1_555
O3 C22 1_555 1_555
O4 C22 1_555 1_555
O5 Cu1 1_555 1_555
H13 O5 1_555 1_555
H14 O5 1_555 1_555
Cu1A O3 1_555 1_555
O3A Cu1 1_555 1_555
C6 N3 1_555 1_555
C8 N4 1_555 1_555
C12 N2 1_555 1_555
C13 C14 1_555 1_555
C13 N2 1_555 1_555
C14 N1 1_555 1_555
C19 C20 1_555 1_555
C21 O2 1_555 1_555

#END
