
#######################################################################
#
#                 Cambridge Crystallographic Data Centre
#                                CCDC 
#
#######################################################################
#
# If this CIF has been generated from an entry in the Cambridge 
# Structural Database, then it will include bibliographic, chemical, 
# crystal, experimental, refinement or atomic coordinate data resulting 
# from the CCDC's data processing and validation procedures.
#
#######################################################################

data_XIBXIP
_symmetry_cell_setting           monoclinic
_symmetry_space_group_name_H-M   'C 2/c'
_symmetry_Int_Tables_number      15
_space_group_name_Hall           '-C 2yn'
loop_
_symmetry_equiv_pos_site_id
_symmetry_equiv_pos_as_xyz
1 x,y,z
2 1/2+x,1/2+y,z
3 x,-y,1/2+z
4 1/2+x,1/2-y,1/2+z
5 -x,-y,-z
6 1/2-x,1/2-y,-z
7 -x,y,1/2-z
8 1/2-x,1/2+y,1/2-z
_cell_length_a                   26.762(7)
_cell_length_b                   11.981(3)
_cell_length_c                   22.955(8)
_cell_angle_alpha                90
_cell_angle_beta                 109.86(2)
_cell_angle_gamma                90
_cell_volume                     6922.45
loop_
_atom_site_label
_atom_site_type_symbol
_atom_site_fract_x
_atom_site_fract_y
_atom_site_fract_z
Ba1 Ba 0.0000 0.36419(4) 0.2500
Ba2 Ba -0.101109(12) 0.51878(3) -0.020895(12)
S1 S 0.02652(5) 0.59382(11) 0.13350(5)
S2 S -0.00567(5) 0.28728(10) 0.07428(5)
S3 S 0.14704(5) 0.46731(15) 0.37116(6)
O1 O 0.03147(16) 0.5299(3) 0.18791(16)
O2 O -0.02524(15) 0.5906(4) 0.08574(17)
O3 O 0.07021(16) 0.5828(4) 0.11115(18)
O4 O 0.00651(16) 0.2828(3) 0.14050(14)
O5 O -0.05918(16) 0.3212(3) 0.03953(18)
O6 O 0.03462(18) 0.3380(4) 0.05427(18)
O7 O 0.09564(14) 0.4342(4) 0.32983(17)
O8 O -0.14703(15) 0.5044(4) 0.06879(16)
O9 O 0.19007(18) 0.3967(6) 0.3730(2)
C1 C 0.0322(3) 0.7369(5) 0.1625(3)
C2 C -0.0035(3) 0.1409(5) 0.0544(2)
C3 C 0.1595(3) 0.5970(9) 0.3361(3)
F1 F 0.04463(17) 0.0992(3) 0.08058(19)
F2 F -0.0176(2) 0.1253(3) -0.00602(16)
F3 F -0.0354(2) 0.0803(3) 0.0739(2)
F4 F 0.0293(2) 0.8099(3) 0.11831(18)
F5 F 0.07875(19) 0.7521(3) 0.20623(18)
F6 F -0.0048(2) 0.7610(4) 0.1847(2)
F7 F 0.1607(2) 0.5786(5) 0.27965(19)
F8 F 0.1223(3) 0.6717(5) 0.3315(2)
F9 F 0.2067(3) 0.6370(7) 0.3691(3)
O10 O 0.06677(19) 0.1761(4) 0.27614(18)
O11 O -0.17923(17) 0.3588(4) -0.07066(18)
O12 O -0.17270(16) 0.5929(4) -0.13422(18)
O13 O -0.1376(2) 0.7278(4) -0.0081(2)
C4 C 0.1078(4) 0.1542(8) 0.3336(3)
H1 H 0.0927 0.1214 0.3630
H2 H 0.1257 0.2239 0.3514
C5 C 0.1450(4) 0.0784(9) 0.3226(5)
H3 H 0.1754 0.1187 0.3183
H4 H 0.1578 0.0244 0.3564
C6 C 0.1152(6) 0.0238(11) 0.2657(7)
H5 H 0.1065 -0.0526 0.2741
H6 H 0.1362 0.0205 0.2382
C7 C 0.0683(5) 0.0853(9) 0.2377(4)
H7 H 0.0674 0.1127 0.1971
H8 H 0.0373 0.0373 0.2315
C8 C -0.2054(3) 0.2971(7) -0.0364(3)
H9 H -0.1967 0.3275 0.0055
H10 H -0.2440 0.2998 -0.0570
C9 C -0.1859(3) 0.1817(8) -0.0341(4)
H11 H -0.1549 0.1694 0.0032
H12 H -0.2136 0.1280 -0.0346
C10 C -0.1711(4) 0.1709(9) -0.0918(5)
H13 H -0.1336 0.1504 -0.0814
H14 H -0.1931 0.1146 -0.1199
C11 C -0.1817(4) 0.2874(8) -0.1211(4)
H15 H -0.2167 0.2909 -0.1534
H16 H -0.1546 0.3077 -0.1391
C12 C -0.1551(3) 0.6592(10) -0.1744(4)
H17 H -0.1345 0.7229 -0.1518
H18 H -0.1322 0.6150 -0.1911
C13 C -0.2026(4) 0.6990(10) -0.2256(4)
H19 H -0.1975 0.6912 -0.2657
H20 H -0.2100 0.7775 -0.2196
C14 C -0.2457(3) 0.6279(11) -0.2227(4)
H21 H -0.2565 0.5761 -0.2578
H22 H -0.2766 0.6731 -0.2238
C15 C -0.2260(3) 0.5676(9) -0.1656(4)
H23 H -0.2298 0.4873 -0.1740
H24 H -0.2471 0.5868 -0.1394
C16 C -0.1081(4) 0.8142(10) 0.0291(6)
H25 H -0.0899 0.7848 0.0708
H26 H -0.0808 0.8386 0.0123
C17 C -0.1357(6) 0.8982(12) 0.0331(11)
H27 H -0.1296 0.9599 0.0083
H28 H -0.1253 0.9229 0.0763
C18 C -0.1873(6) 0.8694(11) 0.0123(10)
H29 H -0.2090 0.9265 -0.0155
H30 H -0.2007 0.8580 0.0467
C19 C -0.1876(4) 0.7628(11) -0.0214(7)
H31 H -0.2084 0.7063 -0.0088
H32 H -0.2039 0.7748 -0.0661
O1F O -0.03147(16) 0.5299(3) 0.31209(16)
O4F O -0.00651(16) 0.2828(3) 0.35950(14)
O7F O -0.09564(14) 0.4342(4) 0.17017(17)
O10F O -0.06677(19) 0.1761(4) 0.22386(18)
O3D O -0.07021(16) 0.4172(4) -0.11115(18)
O6D O -0.03462(18) 0.6620(4) -0.05427(18)
O8F O 0.14703(15) 0.5044(4) 0.43121(16)
Ba2D Ba 0.101109(12) 0.48122(3) 0.020895(12)
S3F S -0.14704(5) 0.46731(15) 0.12884(6)
S2F S 0.00567(5) 0.28728(10) 0.42572(5)
O5F O 0.05918(16) 0.3212(3) 0.46047(18)
O6F O -0.03462(18) 0.3380(4) 0.44573(18)
C2F C 0.0035(3) 0.1409(5) 0.4456(2)
Ba2B Ba -0.101109(12) 0.48122(3) 0.479105(12)
Ba2F Ba 0.101109(12) 0.51878(3) 0.520895(12)
O2F O 0.02524(15) 0.5906(4) 0.41426(17)
O3B O 0.07021(16) 0.4172(4) 0.61115(18)
O6B O 0.03462(18) 0.6620(4) 0.55427(18)
O11F O 0.17923(17) 0.3588(4) 0.57066(18)
O12F O 0.17270(16) 0.5929(4) 0.63422(18)
O13F O 0.1376(2) 0.7278(4) 0.5081(2)
S1F S -0.02652(5) 0.59382(11) 0.36650(5)
O3F O -0.07021(16) 0.5828(4) 0.38885(18)
C1F C -0.0322(3) 0.7369(5) 0.3375(3)
C8F C 0.2054(3) 0.2971(7) 0.5364(3)
C11F C 0.1817(4) 0.2874(8) 0.6211(4)
C12F C 0.1551(3) 0.6592(10) 0.6744(4)
C15F C 0.2260(3) 0.5676(9) 0.6656(4)
C16F C 0.1081(4) 0.8142(10) 0.4709(6)
C19F C 0.1876(4) 0.7628(11) 0.5214(7)
H9F H 0.1967 0.3275 0.4945
H10F H 0.2440 0.2998 0.5570
C9F C 0.1859(3) 0.1817(8) 0.5341(4)
C10F C 0.1711(4) 0.1709(9) 0.5918(5)
H15F H 0.2167 0.2909 0.6534
H16F H 0.1546 0.3077 0.6391
C14F C 0.2457(3) 0.6279(11) 0.7227(4)
H23F H 0.2298 0.4873 0.6740
H24F H 0.2471 0.5868 0.6394
H17F H 0.1345 0.7229 0.6518
H18F H 0.1322 0.6150 0.6911
C13F C 0.2026(4) 0.6990(10) 0.7256(4)
H25F H 0.0899 0.7848 0.4292
H26F H 0.0808 0.8386 0.4877
C17F C 0.1357(6) 0.8982(12) 0.4669(11)
C18F C 0.1873(6) 0.8694(11) 0.4877(10)
H31F H 0.2084 0.7063 0.5088
H32F H 0.2039 0.7748 0.5661
H11F H 0.1549 0.1694 0.4968
H12F H 0.2136 0.1280 0.5346
H13F H 0.1336 0.1504 0.5814
H14F H 0.1931 0.1146 0.6199
H21F H 0.2565 0.5761 0.7578
H22F H 0.2766 0.6731 0.7238
H19F H 0.1975 0.6912 0.7657
H20F H 0.2100 0.7775 0.7196
H29F H 0.2090 0.9265 0.5155
H30F H 0.2007 0.8580 0.4533
H27F H 0.1296 0.9599 0.4917
H28F H 0.1253 0.9229 0.4237
C4F C -0.1078(4) 0.1542(8) 0.1664(3)
C7F C -0.0683(5) 0.0853(9) 0.2623(4)
H1F H -0.0927 0.1214 0.1370
H2F H -0.1257 0.2239 0.1486
C5F C -0.1450(4) 0.0784(9) 0.1774(5)
C6F C -0.1152(6) 0.0238(11) 0.2343(7)
H7F H -0.0674 0.1127 0.3029
H8F H -0.0373 0.0373 0.2685
H3F H -0.1754 0.1187 0.1817
H4F H -0.1578 0.0244 0.1436
H5F H -0.1065 -0.0526 0.2259
H6F H -0.1362 0.0205 0.2618
F1F F -0.04463(17) 0.0992(3) 0.41942(19)
F2F F 0.0176(2) 0.1253(3) 0.50602(16)
F3F F 0.0354(2) 0.0803(3) 0.4261(2)
F4F F -0.0293(2) 0.8099(3) 0.38169(18)
F5F F -0.07875(19) 0.7521(3) 0.29377(18)
F6F F 0.0048(2) 0.7610(4) 0.3153(2)
O9F O -0.19007(18) 0.3967(6) 0.1270(2)
C3F C -0.1595(3) 0.5970(9) 0.1639(3)
F7F F -0.1607(2) 0.5786(5) 0.22035(19)
F8F F -0.1223(3) 0.6717(5) 0.1685(2)
F9F F -0.2067(3) 0.6370(7) 0.1309(3)
loop_
_geom_bond_atom_site_label_1
_geom_bond_atom_site_label_2
_geom_bond_site_symmetry_1
_geom_bond_site_symmetry_2
Ba1 O1 1_555 1_555
Ba2 O2 1_555 1_555
S1 O1 1_555 1_555
S2 O4 1_555 1_555
S3 O7 1_555 1_555
O2 S1 1_555 1_555
O3 S1 1_555 1_555
O4 Ba1 1_555 1_555
O5 Ba2 1_555 1_555
O6 S2 1_555 1_555
O7 Ba1 1_555 1_555
O8 Ba2 1_555 1_555
O9 S3 1_555 1_555
C1 S1 1_555 1_555
C2 S2 1_555 1_555
C3 S3 1_555 1_555
F1 C2 1_555 1_555
F2 C2 1_555 1_555
F3 C2 1_555 1_555
F4 C1 1_555 1_555
F5 C1 1_555 1_555
F6 C1 1_555 1_555
F7 C3 1_555 1_555
F8 C3 1_555 1_555
F9 C3 1_555 1_555
O10 Ba1 1_555 1_555
O11 Ba2 1_555 1_555
O12 Ba2 1_555 1_555
O13 Ba2 1_555 1_555
C4 O10 1_555 1_555
H1 C4 1_555 1_555
H2 C4 1_555 1_555
C5 C4 1_555 1_555
H3 C5 1_555 1_555
H4 C5 1_555 1_555
C6 C5 1_555 1_555
H5 C6 1_555 1_555
H6 C6 1_555 1_555
C7 O10 1_555 1_555
H7 C7 1_555 1_555
H8 C7 1_555 1_555
C8 O11 1_555 1_555
H9 C8 1_555 1_555
H10 C8 1_555 1_555
C9 C8 1_555 1_555
H11 C9 1_555 1_555
H12 C9 1_555 1_555
C10 C9 1_555 1_555
H13 C10 1_555 1_555
H14 C10 1_555 1_555
C11 O11 1_555 1_555
H15 C11 1_555 1_555
H16 C11 1_555 1_555
C12 O12 1_555 1_555
H17 C12 1_555 1_555
H18 C12 1_555 1_555
C13 C12 1_555 1_555
H19 C13 1_555 1_555
H20 C13 1_555 1_555
C14 C13 1_555 1_555
H21 C14 1_555 1_555
H22 C14 1_555 1_555
C15 O12 1_555 1_555
H23 C15 1_555 1_555
H24 C15 1_555 1_555
C16 O13 1_555 1_555
H25 C16 1_555 1_555
H26 C16 1_555 1_555
C17 C16 1_555 1_555
H27 C17 1_555 1_555
H28 C17 1_555 1_555
C18 C17 1_555 1_555
H29 C18 1_555 1_555
H30 C18 1_555 1_555
C19 O13 1_555 1_555
H31 C19 1_555 1_555
H32 C19 1_555 1_555
O1F Ba1 1_555 1_555
O4F Ba1 1_555 1_555
O7F Ba1 1_555 1_555
O10F Ba1 1_555 1_555
O3D Ba2 1_555 1_555
O6D Ba2 1_555 1_555
O8F S3 1_555 1_555
Ba2D O3 1_555 1_555
S3F O8 1_555 1_555
S2F O4F 1_555 1_555
O5F S2F 1_555 1_555
O6F S2F 1_555 1_555
C2F S2F 1_555 1_555
Ba2B O6F 1_555 1_555
Ba2F O8F 1_555 1_555
O2F Ba2F 1_555 1_555
O3B Ba2F 1_555 1_555
O6B Ba2F 1_555 1_555
O11F Ba2F 1_555 1_555
O12F Ba2F 1_555 1_555
O13F Ba2F 1_555 1_555
S1F O1F 1_555 1_555
O3F Ba2B 1_555 1_555
C1F S1F 1_555 1_555
C8F O11F 1_555 1_555
C11F O11F 1_555 1_555
C12F O12F 1_555 1_555
C15F O12F 1_555 1_555
C16F O13F 1_555 1_555
C19F O13F 1_555 1_555
H9F C8F 1_555 1_555
H10F C8F 1_555 1_555
C9F C8F 1_555 1_555
C10F C11F 1_555 1_555
H15F C11F 1_555 1_555
H16F C11F 1_555 1_555
C14F C15F 1_555 1_555
H23F C15F 1_555 1_555
H24F C15F 1_555 1_555
H17F C12F 1_555 1_555
H18F C12F 1_555 1_555
C13F C12F 1_555 1_555
H25F C16F 1_555 1_555
H26F C16F 1_555 1_555
C17F C16F 1_555 1_555
C18F C19F 1_555 1_555
H31F C19F 1_555 1_555
H32F C19F 1_555 1_555
H11F C9F 1_555 1_555
H12F C9F 1_555 1_555
H13F C10F 1_555 1_555
H14F C10F 1_555 1_555
H21F C14F 1_555 1_555
H22F C14F 1_555 1_555
H19F C13F 1_555 1_555
H20F C13F 1_555 1_555
H29F C18F 1_555 1_555
H30F C18F 1_555 1_555
H27F C17F 1_555 1_555
H28F C17F 1_555 1_555
C4F O10F 1_555 1_555
C7F O10F 1_555 1_555
H1F C4F 1_555 1_555
H2F C4F 1_555 1_555
C5F C4F 1_555 1_555
C6F C7F 1_555 1_555
H7F C7F 1_555 1_555
H8F C7F 1_555 1_555
H3F C5F 1_555 1_555
H4F C5F 1_555 1_555
H5F C6F 1_555 1_555
H6F C6F 1_555 1_555
F1F C2F 1_555 1_555
F2F C2F 1_555 1_555
F3F C2F 1_555 1_555
F4F C1F 1_555 1_555
F5F C1F 1_555 1_555
F6F C1F 1_555 1_555
O9F S3F 1_555 1_555
C3F S3F 1_555 1_555
F7F C3F 1_555 1_555
F8F C3F 1_555 1_555
F9F C3F 1_555 1_555
S2 O5 1_555 1_555
O6 Ba2D 1_555 1_555
C6 C7 1_555 1_555
C10 C11 1_555 1_555
C14 C15 1_555 1_555
C18 C19 1_555 1_555
O7F S3F 1_555 1_555
O5F Ba2F 1_555 1_555
O2F S1F 1_555 1_555
S1F O3F 1_555 1_555
C9F C10F 1_555 1_555
C14F C13F 1_555 1_555
C17F C18F 1_555 1_555
C5F C6F 1_555 1_555

#END
