
#######################################################################
#
#                 Cambridge Crystallographic Data Centre
#                                CCDC 
#
#######################################################################
#
# If this CIF has been generated from an entry in the Cambridge 
# Structural Database, then it will include bibliographic, chemical, 
# crystal, experimental, refinement or atomic coordinate data resulting 
# from the CCDC's data processing and validation procedures.
#
#######################################################################

data_XIBXIR
_symmetry_cell_setting           monoclinic
_symmetry_space_group_name_H-M   'P 21/c'
_symmetry_Int_Tables_number      14
_space_group_name_Hall           '-P 2ybc'
loop_
_symmetry_equiv_pos_site_id
_symmetry_equiv_pos_as_xyz
1 x,y,z
2 -x,1/2+y,1/2-z
3 -x,-y,-z
4 x,1/2-y,1/2+z
_cell_length_a                   11.5580(11)
_cell_length_b                   5.7350(6)
_cell_length_c                   22.622(2)
_cell_angle_alpha                90
_cell_angle_beta                 110.352(2)
_cell_angle_gamma                90
_cell_volume                     1405.89
loop_
_atom_site_label
_atom_site_type_symbol
_atom_site_fract_x
_atom_site_fract_y
_atom_site_fract_z
Cu1 Cu 1.0000 0.0000 0.0000
O1 O 0.93305(19) -0.1154(3) -0.08620(8)
N1 N 0.7219(2) -0.7390(4) 0.00393(11)
H1 H 0.7371 -0.8428 -0.0198
C1 C 0.8720(3) -0.5051(5) 0.08647(13)
H2 H 0.8715 -0.5898 0.1214
O2 O 0.7916(2) 0.1571(4) -0.09541(9)
N2 N 0.8019(2) -0.5545(4) 0.02621(10)
C2 C 0.8316(3) -0.3962(5) -0.00938(12)
H3 H 0.7983 -0.3879 -0.0531
O3 O 0.9033(3) -0.5944(5) -0.26838(13)
N3 N 0.9401(2) -0.3235(5) 0.08881(10)
C3 C 0.6717(2) -0.1624(5) -0.31399(11)
H4 H 0.6328 -0.2026 -0.3561
O4 O 0.7709(3) -0.5171(5) -0.35840(12)
N4 N 0.9142(2) -0.2559(4) 0.02665(9)
C4 C 0.7727(3) -0.2835(5) -0.27562(12)
O5 O 0.4401(2) 0.0418(6) -0.36542(13)
N5 N 0.8199(3) -0.4790(5) -0.30279(13)
C5 C 0.8298(2) -0.2315(5) -0.21232(11)
H5 H 0.8971 -0.3180 -0.1873
O6 O 0.5179(3) 0.3613(5) -0.31591(13)
N6 N 0.5207(2) 0.1512(6) -0.32626(12)
C6 C 0.7847(2) -0.0486(4) -0.18712(11)
O7 O 0.6002(2) -0.6273(4) 0.05693(10)
C7 C 0.6853(2) 0.0812(5) -0.22477(12)
H6 H 0.6557 0.2068 -0.2082
C8 C 0.6310(2) 0.0200(5) -0.28733(12)
C9 C 0.8403(3) 0.0053(5) -0.11777(12)
C10 C 0.6203(3) -0.7559(6) 0.01944(12)
C11 C 0.5421(5) -0.9611(8) -0.01205(19)
H7 H 0.4990 -0.9205 -0.0558
H8 H 0.5970 -1.0896 -0.0116
N1B N 0.2781(2) -1.2610(4) -0.00393(11)
H1B H 0.2629 -1.1572 0.0198
C1B C 0.1280(3) -1.4949(5) -0.08647(13)
H2B H 0.1285 -1.4102 -0.1214
N2B N 0.1981(2) -1.4455(4) -0.02621(10)
C2B C 0.1684(3) -1.6038(5) 0.00938(12)
H3B H 0.2017 -1.6121 0.0531
N3B N 0.0599(2) -1.6765(5) -0.08881(10)
N4B N 0.0858(2) -1.7441(4) -0.02665(9)
O7B O 0.3998(2) -1.3727(4) -0.05693(10)
C10B C 0.3797(3) -1.2441(6) -0.01944(12)
C11B C 0.4579(5) -1.0389(8) 0.01205(19)
H7B H 0.5010 -1.0795 0.0558
H8B H 0.4030 -0.9104 0.0116
O1B O 1.06695(19) 0.1154(3) 0.08620(8)
O2B O 1.2084(2) -0.1571(4) 0.09541(9)
O3B O 1.0967(3) 0.5944(5) 0.26838(13)
C3B C 1.3283(2) 0.1624(5) 0.31399(11)
H4B H 1.3672 0.2026 0.3561
O4B O 1.2291(3) 0.5171(5) 0.35840(12)
C4B C 1.2273(3) 0.2835(5) 0.27562(12)
O5B O 1.5599(2) -0.0418(6) 0.36542(13)
N5B N 1.1801(3) 0.4790(5) 0.30279(13)
C5B C 1.1702(2) 0.2315(5) 0.21232(11)
H5B H 1.1029 0.3180 0.1873
O6B O 1.4821(3) -0.3613(5) 0.31591(13)
N6B N 1.4793(2) -0.1512(6) 0.32626(12)
C6B C 1.2153(2) 0.0486(4) 0.18712(11)
C7B C 1.3147(2) -0.0812(5) 0.22477(12)
H6B H 1.3443 -0.2068 0.2082
C8B C 1.3690(2) -0.0200(5) 0.28733(12)
C9B C 1.1597(3) -0.0053(5) 0.11777(12)
Cu1_2 Cu 0.0000 -2.0000 0.0000
N4B_2 N 1.0858(2) 0.2559(4) -0.02665(9)
loop_
_geom_bond_atom_site_label_1
_geom_bond_atom_site_label_2
_geom_bond_site_symmetry_1
_geom_bond_site_symmetry_2
Cu1 O1 1_555 1_555
O1 C9 1_555 1_555
N1 H1 1_555 1_555
C1 H2 1_555 1_555
O2 Cu1 1_555 1_555
N2 N1 1_555 1_555
C2 N2 1_555 1_555
H3 C2 1_555 1_555
O3 N5 1_555 1_555
N3 C1 1_555 1_555
C3 H4 1_555 1_555
O4 N5 1_555 1_555
N4 Cu1 1_555 1_555
C4 C3 1_555 1_555
O5 N6 1_555 1_555
N5 C4 1_555 1_555
C5 C4 1_555 1_555
H5 C5 1_555 1_555
O6 N6 1_555 1_555
N6 C8 1_555 1_555
C6 C5 1_555 1_555
O7 C10 1_555 1_555
C7 C6 1_555 1_555
H6 C7 1_555 1_555
C8 C3 1_555 1_555
C9 O2 1_555 1_555
C10 N1 1_555 1_555
C11 C10 1_555 1_555
H7 C11 1_555 1_555
H8 C11 1_555 1_555
N1B H1B 1_555 1_555
C1B H2B 1_555 1_555
N2B N1B 1_555 1_555
C2B N2B 1_555 1_555
H3B C2B 1_555 1_555
N3B C1B 1_555 1_555
N4B C2B 1_555 1_555
O7B C10B 1_555 1_555
C10B N1B 1_555 1_555
C11B C11 1_555 1_555
H7B C11B 1_555 1_555
H8B C11B 1_555 1_555
O1B Cu1 1_555 1_555
O2B Cu1 1_555 1_555
O3B N5B 1_555 1_555
C3B H4B 1_555 1_555
O4B N5B 1_555 1_555
C4B C3B 1_555 1_555
O5B N6B 1_555 1_555
N5B C4B 1_555 1_555
C5B C4B 1_555 1_555
H5B C5B 1_555 1_555
O6B N6B 1_555 1_555
N6B C8B 1_555 1_555
C6B C5B 1_555 1_555
C7B C6B 1_555 1_555
H6B C7B 1_555 1_555
C8B C3B 1_555 1_555
C9B O1B 1_555 1_555
Cu1_2 N4B 1_555 1_555
N4B_2 Cu1 1_555 1_555
C1 N2 1_555 1_555
C2 N4 1_555 1_555
N3 N4 1_555 1_555
C6 C9 1_555 1_555
C7 C8 1_555 1_555
C1B N2B 1_555 1_555
N3B N4B 1_555 1_555
C10B C11B 1_555 1_555
O2B C9B 1_555 1_555
C6B C9B 1_555 1_555
C7B C8B 1_555 1_555

#END
