
#######################################################################
#
#                 Cambridge Crystallographic Data Centre
#                                CCDC 
#
#######################################################################
#
# If this CIF has been generated from an entry in the Cambridge 
# Structural Database, then it will include bibliographic, chemical, 
# crystal, experimental, refinement or atomic coordinate data resulting 
# from the CCDC's data processing and validation procedures.
#
#######################################################################

data_XIBXUB
_symmetry_cell_setting           monoclinic
_symmetry_space_group_name_H-M   'C 2/c'
_symmetry_Int_Tables_number      15
_space_group_name_Hall           '-C 2yn'
loop_
_symmetry_equiv_pos_site_id
_symmetry_equiv_pos_as_xyz
1 x,y,z
2 x,-y,1/2+z
3 1/2+x,1/2+y,z
4 1/2+x,1/2-y,1/2+z
5 -x,-y,-z
6 -x,y,1/2-z
7 1/2-x,1/2-y,-z
8 1/2-x,1/2+y,1/2-z
_cell_length_a                   13.470(7)
_cell_length_b                   15.734(3)
_cell_length_c                   17.048(3)
_cell_angle_alpha                90
_cell_angle_beta                 113.862(3)
_cell_angle_gamma                90
_cell_volume                     3304.26
loop_
_atom_site_label
_atom_site_type_symbol
_atom_site_fract_x
_atom_site_fract_y
_atom_site_fract_z
Co1 Co 0.2500 0.2500 0.5000
S1 S 0.1631(2) -0.1945(2) 0.4050(2)
S2 S 0.1611(2) -0.1197(2) 0.3071(2)
S3 S 0.3041(2) 0.3479(2) 0.7805(1)
N1 N 0.1766(5) 0.1245(5) 0.4915(4)
N2 N 0.5865(5) -0.1868(4) 0.4537(4)
N3 N 0.2661(5) 0.2637(5) 0.6262(4)
C1 C 0.2225(8) 0.0640(8) 0.5526(6)
C2 C 0.1911(9) -0.0209(8) 0.5420(6)
C3 C 0.1045(7) -0.0464(6) 0.4658(6)
C4 C 0.0531(7) 0.0164(7) 0.4054(6)
C5 C 0.0916(7) 0.0982(6) 0.4200(5)
C6 C 0.5249(8) -0.1760(7) 0.3697(5)
C7 C 0.4266(8) -0.1320(6) 0.3367(5)
C8 C 0.3853(7) -0.0982(5) 0.3927(6)
C9 C 0.4471(7) -0.1086(7) 0.4800(5)
C10 C 0.5448(7) -0.1542(6) 0.5070(5)
C11 C 0.2789(7) -0.0495(6) 0.3583(6)
C12 C 0.0740(9) -0.1389(7) 0.4476(7)
C13 C 0.2809(6) 0.2976(6) 0.6905(5)
H1 H 0.2791 0.0811 0.6070
H2 H 0.2288 -0.0626 0.5874
H3 H -0.0102 0.0003 0.3526
H4 H 0.0565 0.1408 0.3744
H5 H 0.5482 -0.2029 0.3286
H6 H 0.3870 -0.1255 0.2756
H7 H 0.4224 -0.0848 0.5212
H8 H 0.5851 -0.1625 0.5677
H9 H 0.2712 -0.0203 0.4069
H10 H 0.2788 -0.0058 0.3195
H11 H 0.0707 -0.1728 0.4951
H12 H 0.0015 -0.1360 0.4050
S1F S 0.3369(2) 0.6945(2) 0.5950(2)
S2F S 0.3389(2) 0.6197(2) 0.6929(2)
N1F N 0.3234(5) 0.3755(5) 0.5085(4)
N2F N -0.0865(5) 0.6868(4) 0.5463(4)
C1F C 0.2775(8) 0.4360(8) 0.4474(6)
C2F C 0.3089(9) 0.5209(8) 0.4580(6)
C3F C 0.3955(7) 0.5464(6) 0.5342(6)
C4F C 0.4469(7) 0.4836(7) 0.5946(6)
C5F C 0.4084(7) 0.4018(6) 0.5800(5)
C6F C -0.0249(8) 0.6760(7) 0.6303(5)
C7F C 0.0734(8) 0.6320(6) 0.6633(5)
C8F C 0.1147(7) 0.5982(5) 0.6073(6)
C9F C 0.0529(7) 0.6086(7) 0.5200(5)
C10F C -0.0448(7) 0.6542(6) 0.4930(5)
C11F C 0.2211(7) 0.5495(6) 0.6417(6)
C12F C 0.4260(9) 0.6389(7) 0.5524(7)
H1F H 0.2209 0.4189 0.3930
H2F H 0.2712 0.5626 0.4126
H3F H 0.5102 0.4997 0.6474
H4F H 0.4435 0.3592 0.6256
H5F H -0.0482 0.7029 0.6714
H6F H 0.1130 0.6255 0.7244
H7F H 0.0776 0.5848 0.4788
H8F H -0.0851 0.6625 0.4323
H9F H 0.2288 0.5203 0.5931
H10F H 0.2212 0.5058 0.6805
H11F H 0.4293 0.6728 0.5049
H12F H 0.4985 0.6360 0.5950
S3F S 0.1959(2) 0.1521(2) 0.2195(1)
N3F N 0.2339(5) 0.2363(5) 0.3738(4)
C13F C 0.2191(6) 0.2024(6) 0.3095(5)
N2B N 0.0865(5) 0.3132(4) 0.4537(4)
N2D N 0.4135(5) 0.1868(4) 0.5463(4)
Co1B Co 0.7500 -0.2500 0.5000
Co1B_2 Co -0.2500 0.7500 0.5000
O1 O 0.5000 0.092(2) 0.2500
loop_
_geom_bond_atom_site_label_1
_geom_bond_atom_site_label_2
_geom_bond_site_symmetry_1
_geom_bond_site_symmetry_2
Co1 N1 1_555 1_555
S1 S2 1_555 1_555
S2 C11 1_555 1_555
S3 C13 1_555 1_555
N1 C1 1_555 1_555
N2 C6 1_555 1_555
N3 Co1 1_555 1_555
C1 C2 1_555 1_555
C2 C3 1_555 1_555
C3 C4 1_555 1_555
C4 C5 1_555 1_555
C5 N1 1_555 1_555
C6 C7 1_555 1_555
C7 C8 1_555 1_555
C8 C9 1_555 1_555
C9 C10 1_555 1_555
C10 N2 1_555 1_555
C11 C8 1_555 1_555
C12 S1 1_555 1_555
C13 N3 1_555 1_555
H1 C1 1_555 1_555
H2 C2 1_555 1_555
H3 C4 1_555 1_555
H4 C5 1_555 1_555
H5 C6 1_555 1_555
H6 C7 1_555 1_555
H7 C9 1_555 1_555
H8 C10 1_555 1_555
H9 C11 1_555 1_555
H10 C11 1_555 1_555
H11 C12 1_555 1_555
H12 C12 1_555 1_555
S1F S2F 1_555 1_555
S2F C11F 1_555 1_555
N1F Co1 1_555 1_555
N2F C6F 1_555 1_555
C1F N1F 1_555 1_555
C2F C1F 1_555 1_555
C3F C2F 1_555 1_555
C4F C3F 1_555 1_555
C5F N1F 1_555 1_555
C6F C7F 1_555 1_555
C7F C8F 1_555 1_555
C8F C9F 1_555 1_555
C9F C10F 1_555 1_555
C10F N2F 1_555 1_555
C11F C8F 1_555 1_555
C12F S1F 1_555 1_555
H1F C1F 1_555 1_555
H2F C2F 1_555 1_555
H3F C4F 1_555 1_555
H4F C5F 1_555 1_555
H5F C6F 1_555 1_555
H6F C7F 1_555 1_555
H7F C9F 1_555 1_555
H8F C10F 1_555 1_555
H9F C11F 1_555 1_555
H10F C11F 1_555 1_555
H11F C12F 1_555 1_555
H12F C12F 1_555 1_555
S3F C13F 1_555 1_555
N3F Co1 1_555 1_555
C13F N3F 1_555 1_555
N2B Co1 1_555 1_555
N2D Co1 1_555 1_555
Co1B N2 1_555 1_555
Co1B_2 N2F 1_555 1_555
C3 C12 1_555 1_555
C3F C12F 1_555 1_555
C4F C5F 1_555 1_555

#END
