
#######################################################################
#
#                 Cambridge Crystallographic Data Centre
#                                CCDC 
#
#######################################################################
#
# If this CIF has been generated from an entry in the Cambridge 
# Structural Database, then it will include bibliographic, chemical, 
# crystal, experimental, refinement or atomic coordinate data resulting 
# from the CCDC's data processing and validation procedures.
#
#######################################################################

data_XIBXAJ
_symmetry_cell_setting           orthorhombic
_symmetry_space_group_name_H-M   'P n n a'
_symmetry_Int_Tables_number      52
_space_group_name_Hall           '-P 2a 2bc'
loop_
_symmetry_equiv_pos_site_id
_symmetry_equiv_pos_as_xyz
1 x,y,z
2 1/2-x,-y,z
3 x,1/2-y,1/2-z
4 1/2-x,1/2+y,1/2-z
5 -x,-y,-z
6 1/2+x,y,-z
7 -x,1/2+y,1/2+z
8 1/2+x,1/2-y,1/2+z
_cell_length_a                   21.7540(17)
_cell_length_b                   10.8312(9)
_cell_length_c                   9.4429(8)
_cell_angle_alpha                90
_cell_angle_beta                 90
_cell_angle_gamma                90
_cell_volume                     2224.95
loop_
_atom_site_label
_atom_site_type_symbol
_atom_site_fract_x
_atom_site_fract_y
_atom_site_fract_z
C1 C 0.15598(8) 0.36164(17) -0.0765(2)
C2 C 0.20569(8) 0.43148(16) 0.0007(2)
C3 C 0.20699(8) 0.42854(18) 0.1470(2)
H1 H 0.1795 0.3795 0.1972
C4 C 0.2500 0.5000 0.2173(3)
C5 C 0.2500 0.5000 -0.0728(3)
H2 H 0.2500 0.5000 -0.1713
C6 C -0.01960(8) 0.14783(17) -0.1159(2)
H3 H -0.0169 0.2227 -0.0680
C7 C -0.06624(8) 0.06531(17) -0.0792(2)
C8 C -0.12034(9) 0.2001(2) 0.0940(2)
C9 C -0.17173(9) 0.1951(2) 0.2006(2)
H4 H -0.1679 0.1201 0.2560
H5 H -0.2107 0.1919 0.1509
C10 C -0.06922(9) -0.04688(18) -0.1511(2)
H6 H -0.0989 -0.1051 -0.1271
C11 C -0.02771(10) -0.07093(19) -0.2584(2)
H7 H -0.0299 -0.1443 -0.3093
C12 C 0.01746(9) 0.01589(18) -0.2892(2)
H8 H 0.0456 -0.0004 -0.3609
N1 N 0.2500 0.5000 0.3733(3)
N2 N 0.02123(7) 0.12267(14) -0.21757(17)
N3 N -0.10887(8) 0.08981(16) 0.02909(19)
H9 H -0.1303 0.0280 0.0579
O1 O 0.12003(6) 0.29549(14) -0.00832(17)
O2 O 0.15237(6) 0.37516(13) -0.21058(15)
O3 O 0.22133(9) 0.41935(19) 0.43457(18)
O4 O -0.09212(9) 0.29327(18) 0.0667(2)
Cu1 Cu 0.086801(13) 0.2500 -0.2500
C1A C 0.34402(8) 0.63836(17) -0.0765(2)
C2A C 0.29431(8) 0.56852(16) 0.0007(2)
C3A C 0.29301(8) 0.57146(18) 0.1470(2)
H1A H 0.3205 0.6205 0.1972
O1A O 0.37997(6) 0.70451(14) -0.00832(17)
O2A O 0.34763(6) 0.62484(13) -0.21058(15)
O3A O 0.27867(9) 0.58065(19) 0.43457(18)
C6B C -0.01960(8) 0.35217(17) 0.6159(2)
H3B H -0.0169 0.2773 0.5680
C7B C -0.06624(8) 0.43469(17) 0.5792(2)
C8B C -0.12034(9) 0.2999(2) 0.4060(2)
C9B C -0.17173(9) 0.3049(2) 0.2994(2)
H4B H -0.1679 0.3799 0.2440
H5B H -0.2107 0.3081 0.3491
C10B C -0.06922(9) 0.54688(18) 0.6511(2)
H6B H -0.0989 0.6051 0.6271
C11B C -0.02771(10) 0.57093(19) 0.7584(2)
H7B H -0.0299 0.6443 0.8093
C12B C 0.01746(9) 0.48411(18) 0.7892(2)
H8B H 0.0456 0.5004 0.8609
N2B N 0.02123(7) 0.37733(14) 0.71757(17)
N3B N -0.10887(8) 0.41019(16) 0.47091(19)
H9B H -0.1303 0.4720 0.4421
O4B O -0.09212(9) 0.20673(18) 0.4333(2)
N2B_2 N 0.02123(7) 0.37733(14) -0.28243(17)
O1B O 0.12003(6) 0.20451(14) -0.49168(17)
O2B O 0.15237(6) 0.12484(13) -0.28942(15)
Cu1_2 Cu 0.086801(13) 0.2500 0.7500
Cu1A Cu 0.413199(13) 0.7500 -0.2500
loop_
_geom_bond_atom_site_label_1
_geom_bond_atom_site_label_2
_geom_bond_site_symmetry_1
_geom_bond_site_symmetry_2
C1 C2 1_555 1_555
C2 C3 1_555 1_555
C3 H1 1_555 1_555
C4 C3 1_555 1_555
C5 C2 1_555 1_555
H2 C5 1_555 1_555
C6 H3 1_555 1_555
C7 C6 1_555 1_555
C8 C9 1_555 1_555
C9 H4 1_555 1_555
H5 C9 1_555 1_555
C10 C7 1_555 1_555
H6 C10 1_555 1_555
C11 C10 1_555 1_555
H7 C11 1_555 1_555
C12 C11 1_555 1_555
H8 C12 1_555 1_555
N1 C4 1_555 1_555
N2 C6 1_555 1_555
N3 C7 1_555 1_555
H9 N3 1_555 1_555
O1 C1 1_555 1_555
O2 C1 1_555 1_555
O3 N1 1_555 1_555
O4 C8 1_555 1_555
Cu1 N2 1_555 1_555
C1A C2A 1_555 1_555
C2A C5 1_555 1_555
C3A C4 1_555 1_555
H1A C3A 1_555 1_555
O1A C1A 1_555 1_555
O2A C1A 1_555 1_555
O3A N1 1_555 1_555
C6B H3B 1_555 1_555
C7B C6B 1_555 1_555
C8B C9B 1_555 1_555
C9B C9 1_555 1_555
H4B C9B 1_555 1_555
H5B C9B 1_555 1_555
C10B C7B 1_555 1_555
H6B C10B 1_555 1_555
C11B C10B 1_555 1_555
H7B C11B 1_555 1_555
C12B C11B 1_555 1_555
H8B C12B 1_555 1_555
N2B C6B 1_555 1_555
N3B C7B 1_555 1_555
H9B N3B 1_555 1_555
O4B C8B 1_555 1_555
N2B_2 Cu1 1_555 1_555
O1B Cu1 1_555 1_555
O2B Cu1 1_555 1_555
Cu1_2 N2B 1_555 1_555
Cu1A O1A 1_555 1_555
C8 N3 1_555 1_555
C12 N2 1_555 1_555
O1 Cu1 1_555 1_555
O2 Cu1 1_555 1_555
C2A C3A 1_555 1_555
O2A Cu1A 1_555 1_555
C8B N3B 1_555 1_555
C12B N2B 1_555 1_555

#END
