
#######################################################################
#
#                 Cambridge Crystallographic Data Centre
#                                CCDC 
#
#######################################################################
#
# If this CIF has been generated from an entry in the Cambridge 
# Structural Database, then it will include bibliographic, chemical, 
# crystal, experimental, refinement or atomic coordinate data resulting 
# from the CCDC's data processing and validation procedures.
#
#######################################################################

data_XIBXOX
_symmetry_cell_setting           monoclinic
_symmetry_space_group_name_H-M   'P 21/c'
_symmetry_Int_Tables_number      14
_space_group_name_Hall           '-P 2ybc'
loop_
_symmetry_equiv_pos_site_id
_symmetry_equiv_pos_as_xyz
1 x,y,z
2 -x,1/2+y,1/2-z
3 -x,-y,-z
4 x,1/2-y,1/2+z
_cell_length_a                   12.3450(12)
_cell_length_b                   28.074(3)
_cell_length_c                   19.3320(18)
_cell_angle_alpha                90
_cell_angle_beta                 96.639(2)
_cell_angle_gamma                90
_cell_volume                     6655.03
loop_
_atom_site_label
_atom_site_type_symbol
_atom_site_fract_x
_atom_site_fract_y
_atom_site_fract_z
Cu1 Cu -0.22895(6) 0.29081(3) 0.05444(4)
O1 O -0.4013(3) 0.19185(15) -0.0224(2)
O2 O -0.0483(4) 0.16432(17) 0.1406(2)
H1 H -0.0462 0.1358 0.1577
H2 H -0.0057 0.1631 0.1076
N1 N -0.1960(4) 0.2504(2) -0.1398(3)
C1 C 0.3852(6) 0.2546(3) -0.2852(4)
Cu2 Cu -0.28757(6) 0.22078(3) -0.07185(4)
O3 O -0.3051(4) 0.11699(17) 0.1218(2)
N2 N -0.2039(4) 0.2988(2) -0.1540(3)
C2 C 0.2984(5) 0.2456(3) -0.2382(4)
H3 H 0.2995 0.2122 -0.2251
H4 H 0.3139 0.2643 -0.1960
Cu3 Cu -0.24359(6) 0.17116(3) 0.07890(4)
O4 O -0.1872(3) 0.22612(14) 0.0356(2)
H5 H -0.1088 0.2234 0.0325
N3 N 0.6755(4) 0.23667(18) -0.3782(3)
C3 C 0.1876(6) 0.2583(3) -0.2732(4)
H6 H 0.1659 0.2350 -0.3092
H7 H 0.1912 0.2891 -0.2955
Cu4 Cu -0.28582(7) 0.34192(3) -0.09600(4)
O5 O -0.3343(3) 0.28481(14) -0.0522(2)
H8 H -0.4124 0.2860 -0.0474
O6 O -0.4448(4) 0.34500(16) -0.1720(2)
H9 H -0.4585 0.3674 -0.2013
H10 H -0.5018 0.3280 -0.1726
N4 N 0.6814(4) 0.28414(18) -0.3599(3)
C4 C 0.1028(6) 0.2600(3) -0.2236(4)
O7 O -0.3277(4) 0.38647(16) -0.0253(2)
N5 N 0.5710(4) 0.2488(2) -0.2970(3)
C5 C 0.6076(5) 0.2165(3) -0.3409(3)
H11 H 0.5871 0.1846 -0.3439
N6 N 0.4873(4) 0.2418(2) -0.2564(3)
H12 H 0.4989 0.2300 -0.2151
C6 C 0.6174(5) 0.2908(2) -0.3126(3)
H13 H 0.6048 0.3200 -0.2921
O8 O -0.2825(4) 0.35276(15) 0.0799(2)
N7 N -0.0004(5) 0.2644(3) -0.2551(3)
H14 H -0.0138 0.2643 -0.2998
O9 O -0.1148(3) 0.31678(16) 0.0037(2)
N8 N -0.0839(5) 0.2690(2) -0.2137(3)
C7 C -0.1222(6) 0.2334(3) -0.1764(4)
H15 H -0.0996 0.2019 -0.1767
O10 O -0.5122(4) 0.19759(19) -0.1216(3)
N9 N -0.3933(6) 0.4747(3) 0.2510(4)
C8 C -0.1972(5) 0.1255(2) -0.0533(4)
O11 O -0.1495(5) 0.0874(2) 0.1748(3)
N10 N -0.3108(7) 0.6092(3) -0.1620(4)
C9 C -0.1510(5) 0.0393(2) -0.0433(4)
H16 H -0.1662 0.0400 0.0027
O12 O -0.1921(4) 0.12651(15) 0.0113(2)
N11 N 0.0352(6) 0.5347(3) -0.0682(3)
C10 C -0.2804(7) 0.4333(3) -0.1573(4)
O13 O -0.2275(4) 0.15896(16) -0.0951(2)
N12 N -0.3973(6) 0.5594(2) 0.0306(5)
O14 O -0.2220(4) 0.39709(17) -0.1369(2)
N13 N -0.6289(6) 0.1205(3) 0.1537(4)
C11 C -0.1066(6) 0.0348(3) -0.1789(4)
O15 O -0.3755(5) 0.43238(19) -0.1843(3)
N14 N -0.8916(6) 0.1773(3) -0.0350(5)
C12 C -0.0939(6) -0.0054(3) -0.1406(4)
H17 H -0.0712 -0.0338 -0.1592
O16 O 0.0080(4) 0.2949(2) 0.0914(3)
N15 N -0.2082(6) -0.0902(2) 0.1893(3)
O17 O -0.1192(5) 0.0643(3) -0.2909(3)
N16 N -0.5495(6) -0.0272(3) 0.0692(3)
C13 C -0.3152(5) 0.3866(2) 0.0394(4)
O18 O -0.0283(5) -0.0002(2) -0.2693(3)
N17 N 0.3688(6) 0.3032(2) -0.0178(4)
O19 O -0.1374(5) -0.0452(2) 0.0270(3)
N18 N 0.1084(6) 0.3963(2) -0.1707(4)
O20 O 0.4251(4) 0.29915(19) -0.0657(3)
N19 N -0.1036(5) -0.0458(2) -0.0291(4)
C14 C -0.3555(5) 0.4321(3) 0.1448(4)
H18 H -0.3458 0.4043 0.1710
O21 O -0.1123(5) -0.0837(2) 0.2091(3)
N20 N -0.0843(6) 0.0330(3) -0.2519(4)
O22 O -0.2533(6) -0.1289(2) 0.1916(3)
C15 C -0.3977(6) 0.5158(3) 0.1408(4)
H19 H -0.4166 0.5436 0.1628
O23 O -0.6048(4) 0.0076(2) 0.0524(3)
C16 C -0.3838(6) 0.5150(3) 0.0711(4)
O24 O -0.5795(5) -0.0681(2) 0.0566(3)
C17 C -0.2271(6) 0.4811(3) -0.1453(4)
C18 C -0.2890(6) 0.5217(3) -0.1618(3)
H20 H -0.3608 0.5191 -0.1823
O25 O -0.7063(6) 0.1137(3) 0.1849(4)
C19 C -0.2427(6) 0.5658(3) -0.1473(4)
O26 O -0.9538(5) 0.1915(2) 0.0044(4)
C20 C -0.1216(6) 0.4853(3) -0.1150(3)
H21 H -0.0796 0.4583 -0.1037
O27 O 0.1200(4) 0.2561(2) -0.1615(3)
C21 C -0.0783(6) 0.5303(3) -0.1013(4)
O28 O 0.3702(4) 0.2716(2) -0.3415(3)
C22 C -0.1369(6) 0.5707(3) -0.1171(3)
H22 H -0.1065 0.6007 -0.1077
O29 O -0.3861(6) 0.4380(3) 0.2822(3)
C23 C -0.2431(7) 0.0837(3) 0.1483(4)
O30 O -0.4101(9) 0.5105(3) 0.2787(4)
C24 C -0.2930(6) 0.0347(2) 0.1434(3)
O31 O -0.4349(5) 0.5938(2) 0.0586(3)
C25 C -0.3983(6) 0.0268(3) 0.1109(3)
H23 H -0.4409 0.0522 0.0928
C26 C -0.4389(6) -0.0194(3) 0.1058(3)
O32 O -0.4056(6) 0.6034(2) -0.1874(4)
C27 C -0.3789(6) -0.0582(3) 0.1310(3)
H24 H -0.4068 -0.0890 0.1271
O33 O -0.2688(6) 0.6479(2) -0.1494(3)
C28 C -0.2761(6) -0.0491(3) 0.1620(3)
O34 O 0.0698(5) 0.5744(2) -0.0505(3)
C29 C -0.2320(6) -0.0040(2) 0.1689(3)
H25 H -0.1615 0.0003 0.1908
O35 O 0.0890(4) 0.4984(2) -0.0582(3)
C30 C -0.6941(5) 0.1794(2) -0.0475(4)
H26 H -0.7096 0.1917 -0.0922
O36 O 0.0158(5) 0.4000(2) -0.1974(3)
C31 C -0.5870(5) 0.1713(2) -0.0194(3)
O37 O 0.1849(5) 0.4172(3) -0.1909(3)
C32 C -0.7771(5) 0.1691(3) -0.0079(4)
O38 O 0.3971(5) 0.2923(3) 0.0408(4)
C33 C -0.7579(6) 0.1508(2) 0.0582(4)
H27 H -0.8146 0.1455 0.0850
O39 O -0.3738(7) 0.5602(2) -0.0277(4)
C34 C -0.6523(6) 0.1408(3) 0.0830(4)
O40 O -0.9193(5) 0.1661(3) -0.0957(4)
C35 C -0.5668(5) 0.1516(2) 0.0456(3)
H28 H -0.4955 0.1456 0.0646
C36 C 0.2358(6) 0.3491(2) -0.0931(4)
H29 H 0.2900 0.3559 -0.1212
O41 O -0.0574(5) -0.08016(19) -0.0510(3)
C37 C 0.2561(5) 0.3214(3) -0.0349(4)
C38 C 0.1770(6) 0.3098(3) 0.0079(4)
H30 H 0.1944 0.2915 0.0477
C39 C 0.0726(5) 0.3261(2) -0.0100(3)
C40 C 0.1311(6) 0.3666(2) -0.1084(4)
C41 C -0.1356(5) 0.3087(3) -0.1982(3)
H31 H -0.1245 0.3388 -0.2163
C42 C -0.1622(5) 0.0798(2) -0.0847(3)
C43 C -0.1163(6) -0.0023(2) -0.0730(4)
C44 C -0.1413(5) 0.0774(3) -0.1532(3)
H32 H -0.1506 0.1041 -0.1818
C45 C -0.3557(5) 0.4741(3) 0.0383(4)
H33 H -0.3450 0.4750 -0.0086
C46 C -0.3431(5) 0.4315(2) 0.0751(3)
C47 C -0.3820(6) 0.4737(3) 0.1757(4)
C48 C 0.0483(5) 0.3549(2) -0.0685(4)
H34 H -0.0223 0.3661 -0.0806
C49 C -0.0185(6) 0.3122(2) 0.0329(4)
C50 C -0.4942(5) 0.1878(2) -0.0591(4)
O42 O -0.5358(5) 0.1132(2) 0.1776(3)
Cu1C Cu 0.77105(6) 0.20919(3) -0.44556(4)
Cu3C Cu 0.75641(6) 0.32884(3) -0.42110(4)
N3C N -0.3245(4) 0.26333(18) 0.1218(3)
N4C N -0.3186(4) 0.21586(18) 0.1401(3)
O43 O -0.0968(9) 0.1687(3) -0.2929(4)
H35 H -0.1588 0.1593 -0.3175
H36 H -0.0509 0.1685 -0.3228
O44 O -0.363(2) 0.1577(7) -0.2264(8)
H37 H -0.3851 0.1777 -0.1993
H38 H -0.3688 0.1297 -0.2067
loop_
_geom_bond_atom_site_label_1
_geom_bond_atom_site_label_2
_geom_bond_site_symmetry_1
_geom_bond_site_symmetry_2
Cu1 O4 1_555 1_555
O1 Cu2 1_555 1_555
O2 H1 1_555 1_555
H2 O2 1_555 1_555
N1 Cu2 1_555 1_555
C1 C2 1_555 1_555
Cu2 O4 1_555 1_555
O3 Cu3 1_555 1_555
N2 N1 1_555 1_555
C2 H3 1_555 1_555
H4 C2 1_555 1_555
Cu3 O1 1_555 1_555
O4 Cu3 1_555 1_555
H5 O4 1_555 1_555
N3 N4 1_555 1_555
C3 C2 1_555 1_555
H6 C3 1_555 1_555
H7 C3 1_555 1_555
Cu4 N2 1_555 1_555
O5 Cu1 1_555 1_555
H8 O5 1_555 1_555
O6 Cu4 1_555 1_555
H9 O6 1_555 1_555
H10 O6 1_555 1_555
N4 C6 1_555 1_555
C4 C3 1_555 1_555
O7 Cu4 1_555 1_555
N5 C5 1_555 1_555
C5 N3 1_555 1_555
H11 C5 1_555 1_555
N6 C1 1_555 1_555
H12 N6 1_555 1_555
C6 N5 1_555 1_555
H13 C6 1_555 1_555
O8 Cu1 1_555 1_555
N7 C4 1_555 1_555
H14 N7 1_555 1_555
O9 Cu1 1_555 1_555
N8 N7 1_555 1_555
C7 N1 1_555 1_555
H15 C7 1_555 1_555
O10 C50 1_555 1_555
N9 O29 1_555 1_555
C8 O12 1_555 1_555
O11 C23 1_555 1_555
N10 C19 1_555 1_555
C9 H16 1_555 1_555
O12 Cu3 1_555 1_555
N11 C21 1_555 1_555
C10 O14 1_555 1_555
O13 Cu2 1_555 1_555
N12 C16 1_555 1_555
O14 Cu4 1_555 1_555
N13 O25 1_555 1_555
C11 C12 1_555 1_555
O15 C10 1_555 1_555
N14 O26 1_555 1_555
C12 H17 1_555 1_555
O16 C49 1_555 1_555
N15 O21 1_555 1_555
O17 N20 1_555 1_555
N16 O23 1_555 1_555
C13 O7 1_555 1_555
O18 N20 1_555 1_555
N17 O20 1_555 1_555
O19 N19 1_555 1_555
N18 O36 1_555 1_555
N19 O41 1_555 1_555
C14 H18 1_555 1_555
N20 C11 1_555 1_555
O22 N15 1_555 1_555
C15 H19 1_555 1_555
C16 C15 1_555 1_555
O24 N16 1_555 1_555
C17 C10 1_555 1_555
C18 C17 1_555 1_555
H20 C18 1_555 1_555
C19 C18 1_555 1_555
C20 C17 1_555 1_555
H21 C20 1_555 1_555
O27 C4 1_555 1_555
C21 C20 1_555 1_555
O28 C1 1_555 1_555
C22 C19 1_555 1_555
H22 C22 1_555 1_555
C23 O3 1_555 1_555
O30 N9 1_555 1_555
C24 C23 1_555 1_555
O31 N12 1_555 1_555
C25 C24 1_555 1_555
H23 C25 1_555 1_555
C26 N16 1_555 1_555
O32 N10 1_555 1_555
C27 C26 1_555 1_555
H24 C27 1_555 1_555
O33 N10 1_555 1_555
C28 N15 1_555 1_555
O34 N11 1_555 1_555
C29 C24 1_555 1_555
H25 C29 1_555 1_555
O35 N11 1_555 1_555
C30 H26 1_555 1_555
C31 C30 1_555 1_555
O37 N18 1_555 1_555
C32 N14 1_555 1_555
O38 N17 1_555 1_555
C33 C32 1_555 1_555
H27 C33 1_555 1_555
O39 N12 1_555 1_555
C34 N13 1_555 1_555
O40 N14 1_555 1_555
C35 C31 1_555 1_555
H28 C35 1_555 1_555
C36 H29 1_555 1_555
C37 N17 1_555 1_555
C38 C37 1_555 1_555
H30 C38 1_555 1_555
C39 C38 1_555 1_555
C40 N18 1_555 1_555
C41 N2 1_555 1_555
H31 C41 1_555 1_555
C42 C8 1_555 1_555
C43 C9 1_555 1_555
C44 C11 1_555 1_555
H32 C44 1_555 1_555
C45 C16 1_555 1_555
H33 C45 1_555 1_555
C46 C13 1_555 1_555
C47 N9 1_555 1_555
C48 C39 1_555 1_555
H34 C48 1_555 1_555
C49 O9 1_555 1_555
C50 O1 1_555 1_555
O42 N13 1_555 1_555
O43 H35 1_555 1_555
H36 O43 1_555 1_555
O44 H37 1_555 1_555
H38 O44 1_555 1_555
Cu1C N3 1_555 1_555
Cu3C N4 1_555 1_555
N3C Cu1 1_555 1_555
N4C Cu3 1_555 1_555
O2 Cu3 1_555 1_555
Cu2 O5 1_555 1_555
Cu4 O5 1_555 1_555
Cu4 O9 1_555 1_555
N5 N6 1_555 1_555
O8 C13 1_555 1_555
N8 C7 1_555 1_555
N8 C41 1_555 1_555
C8 O13 1_555 1_555
C9 C42 1_555 1_555
C12 C43 1_555 1_555
N19 C43 1_555 1_555
C14 C46 1_555 1_555
C14 C47 1_555 1_555
C15 C47 1_555 1_555
C21 C22 1_555 1_555
C25 C26 1_555 1_555
C27 C28 1_555 1_555
C28 C29 1_555 1_555
C30 C32 1_555 1_555
C31 C50 1_555 1_555
C33 C34 1_555 1_555
C34 C35 1_555 1_555
C36 C37 1_555 1_555
C36 C40 1_555 1_555
C39 C49 1_555 1_555
C40 C48 1_555 1_555
C42 C44 1_555 1_555
C45 C46 1_555 1_555
N3C N4C 1_555 1_555

#END
