
#######################################################################
#
#                 Cambridge Crystallographic Data Centre
#                                CCDC 
#
#######################################################################
#
# If this CIF has been generated from an entry in the Cambridge 
# Structural Database, then it will include bibliographic, chemical, 
# crystal, experimental, refinement or atomic coordinate data resulting 
# from the CCDC's data processing and validation procedures.
#
#######################################################################

data_XIBYEM
_symmetry_cell_setting           monoclinic
_symmetry_space_group_name_H-M   'P 21/n'
_symmetry_Int_Tables_number      14
_space_group_name_Hall           '-P 2yn'
loop_
_symmetry_equiv_pos_site_id
_symmetry_equiv_pos_as_xyz
1 x,y,z
2 1/2-x,1/2+y,1/2-z
3 -x,-y,-z
4 1/2+x,1/2-y,1/2+z
_cell_length_a                   18.9507(5)
_cell_length_b                   16.5867(3)
_cell_length_c                   20.7951(6)
_cell_angle_alpha                90
_cell_angle_beta                 114.8550(10)
_cell_angle_gamma                90
_cell_volume                     5931.07
loop_
_atom_site_label
_atom_site_type_symbol
_atom_site_fract_x
_atom_site_fract_y
_atom_site_fract_z
Mn1 Mn 0.51634(4) 0.11456(3) 0.76077(3)
N1 N 0.5661(2) 0.2031(2) 0.8470(2)
C1 C 0.5671(3) 0.2387(3) 0.8947(3)
S1 S 0.56828(12) 0.28914(12) 0.96164(9)
N2 N 0.4656(2) 0.0233(2) 0.6791(2)
C2 C 0.4354(3) -0.0136(3) 0.6288(3)
S2 S 0.39214(12) -0.06634(14) 0.55719(11)
N3 N 0.6290(2) 0.04111(19) 0.81130(18)
C3 C 0.7488(3) 0.0162(3) 0.9102(2)
H1 H 0.7785 0.0229 0.9585
C4 C 0.6769(3) 0.0499(2) 0.8792(2)
H2 H 0.6602 0.0811 0.9073
C5 C 0.6562(3) -0.0024(3) 0.7736(2)
H3 H 0.6243 -0.0105 0.7259
C6 C 0.7282(3) -0.0363(3) 0.8006(3)
H4 H 0.7439 -0.0657 0.7708
C7 C 0.7782(3) -0.0280(2) 0.8708(2)
N4 N 0.9262(2) -0.3247(2) 0.80300(18)
C8 C 0.8213(3) -0.2534(3) 0.8105(3)
H5 H 0.7726 -0.2301 0.7868
C9 C 0.8559(3) -0.2912(3) 0.7736(2)
H6 H 0.8288 -0.2939 0.7245
C10 C 0.9596(3) -0.3230(3) 0.8728(3)
H7 H 1.0076 -0.3480 0.8956
C11 C 0.9286(3) -0.2872(3) 0.9135(3)
H8 H 0.9553 -0.2881 0.9626
C12 C 0.8582(3) -0.2497(3) 0.8826(3)
C13 C 0.8584(3) -0.0627(3) 0.9036(3)
H9 H 0.8953 -0.0198 0.9262
H10 H 0.8707 -0.0853 0.8665
C14 C 0.8677(4) -0.1276(3) 0.9578(3)
H11 H 0.8494 -0.1065 0.9916
H12 H 0.9227 -0.1395 0.9835
C15 C 0.8250(4) -0.2057(3) 0.9275(3)
H13 H 0.8281 -0.2405 0.9662
H14 H 0.7705 -0.1940 0.8989
N5 N 0.4101(2) 0.1966(2) 0.70544(19)
C16 C 0.2750(3) 0.2141(3) 0.6342(3)
H15 H 0.2281 0.1902 0.6045
C17 C 0.3409(3) 0.1683(3) 0.6628(3)
H16 H 0.3368 0.1137 0.6516
C18 C 0.4128(3) 0.2760(3) 0.7177(3)
H17 H 0.4607 0.2989 0.7457
C19 C 0.3495(3) 0.3250(3) 0.6916(3)
H18 H 0.3549 0.3796 0.7029
C20 C 0.2773(3) 0.2943(3) 0.6485(2)
N6 N 0.0423(2) 0.5595(2) 0.67448(18)
C21 C 0.0536(3) 0.4471(3) 0.6080(3)
H19 H 0.0410 0.3935 0.5949
C22 C 0.0285(3) 0.4826(3) 0.6549(2)
H20 H 0.0007 0.4514 0.6735
C23 C 0.0835(3) 0.6005(3) 0.6465(3)
H21 H 0.0941 0.6545 0.6590
C24 C 0.1111(3) 0.5688(3) 0.6011(3)
H22 H 0.1397 0.6008 0.5839
C25 C 0.0966(3) 0.4892(3) 0.5806(2)
C26 C 0.2047(3) 0.3462(3) 0.6198(3)
H23 H 0.1598 0.3117 0.5966
H24 H 0.1994 0.3725 0.6592
C27 C 0.2049(3) 0.4082(3) 0.5693(3)
H25 H 0.2191 0.3833 0.5342
H26 H 0.2442 0.4482 0.5944
C28 C 0.1261(3) 0.4504(3) 0.5312(2)
H27 H 0.1308 0.4915 0.5000
H28 H 0.0881 0.4113 0.5021
N4A N 0.5738(2) 0.1753(2) 0.69700(18)
N6A N 0.4577(2) 0.0595(2) 0.82552(18)
Mn1A Mn 0.98366(4) -0.38544(3) 0.73923(3)
Mn1A_2 Mn -0.01634(4) 0.61456(3) 0.73923(3)
Mn2 Mn 0.46900(5) 0.63392(4) 0.73820(4)
N7 N 0.5192(3) 0.7262(3) 0.8196(3)
C29 C 0.5621(3) 0.7714(3) 0.8565(3)
S3 S 0.62130(9) 0.83563(10) 0.90823(11)
N8 N 0.4200(3) 0.5394(3) 0.6577(2)
C30 C 0.4261(3) 0.4882(3) 0.6224(2)
S4 S 0.43334(9) 0.41573(9) 0.57472(8)
N9 N 0.4061(3) 0.5805(2) 0.8011(2)
C31 C 0.4057(4) 0.5502(3) 0.9132(3)
H29 H 0.4317 0.5527 0.9623
C32 C 0.4387(3) 0.5836(3) 0.8719(3)
H30 H 0.4862 0.6099 0.8944
C33 C 0.3360(4) 0.5451(3) 0.7712(3)
H31 H 0.3111 0.5435 0.7220
C34 C 0.2988(4) 0.5114(3) 0.8082(3)
H32 H 0.2502 0.4878 0.7843
C35 C 0.3340(4) 0.5126(3) 0.8818(3)
N10 N 0.1379(3) 0.2110(2) 0.8171(2)
C36 C 0.2401(4) 0.2935(4) 0.8169(4)
H33 H 0.2605 0.3227 0.7905
C37 C 0.1716(4) 0.2542(4) 0.7835(3)
H34 H 0.1466 0.2575 0.7343
C38 C 0.1768(4) 0.2083(3) 0.8863(3)
H35 H 0.1561 0.1777 0.9116
C39 C 0.2454(3) 0.2471(3) 0.9237(3)
H36 H 0.2691 0.2440 0.9729
C40 C 0.2792(3) 0.2908(3) 0.8881(3)
C41 C 0.2973(4) 0.4744(4) 0.9253(4)
H37 H 0.2463 0.4541 0.8940
H38 H 0.2902 0.5149 0.9557
C42 C 0.3451(4) 0.4063(6) 0.9703(3)
H39 H 0.3210 0.3873 1.0004
H40 H 0.3963 0.4267 1.0009
C43 C 0.3543(3) 0.3352(4) 0.9277(4)
H41 H 0.3736 0.3548 0.8942
H42 H 0.3925 0.2981 0.9597
N11 N 0.5307(3) 0.6890(2) 0.6760(2)
C44 C 0.6083(4) 0.6760(3) 0.6101(3)
H43 H 0.6359 0.6420 0.5934
C45 C 0.5701(4) 0.6457(3) 0.6475(3)
H44 H 0.5715 0.5902 0.6539
C46 C 0.5302(3) 0.7680(3) 0.6645(3)
H45 H 0.5048 0.8014 0.6839
C47 C 0.5651(4) 0.8026(3) 0.6256(4)
H46 H 0.5614 0.8580 0.6180
C48 C 0.6055(3) 0.7565(4) 0.5975(3)
N12 N 0.9261(3) 1.0529(2) 0.7019(2)
C49 C 0.7936(4) 1.0347(4) 0.6254(4)
H47 H 0.7444 1.0572 0.6016
C50 C 0.8550(4) 1.0810(3) 0.6649(3)
H48 H 0.8469 1.1361 0.6662
C51 C 0.9349(3) 0.9735(3) 0.7000(3)
H49 H 0.9836 0.9517 0.7271
C52 C 0.8774(4) 0.9236(4) 0.6613(4)
H50 H 0.8869 0.8685 0.6621
C53 C 0.8057(4) 0.9524(4) 0.6211(4)
C54 C 0.6431(4) 0.7947(4) 0.5533(4)
H51 H 0.6045 0.8240 0.5138
H52 H 0.6656 0.7534 0.5346
C55 C 0.7106(4) 0.8560(6) 0.6043(4)
H53 H 0.6879 0.8969 0.6232
H54 H 0.7489 0.8264 0.6438
C56 C 0.7452(5) 0.8914(6) 0.5664(4)
H55 H 0.7075 0.9199 0.5257
H56 H 0.7717 0.8518 0.5501
N10A N 0.3621(3) 0.7110(2) 0.6829(2)
N12A N 0.5739(3) 0.5529(2) 0.7981(2)
Mn2A Mn 0.03100(5) 0.13392(4) 0.76180(4)
Mn2A_2 Mn 1.03100(5) 1.13392(4) 0.76180(4)
loop_
_geom_bond_atom_site_label_1
_geom_bond_atom_site_label_2
_geom_bond_site_symmetry_1
_geom_bond_site_symmetry_2
Mn1 N1 1_555 1_555
N1 C1 1_555 1_555
C1 S1 1_555 1_555
N2 Mn1 1_555 1_555
C2 N2 1_555 1_555
S2 C2 1_555 1_555
N3 Mn1 1_555 1_555
C3 H1 1_555 1_555
C4 N3 1_555 1_555
H2 C4 1_555 1_555
C5 N3 1_555 1_555
H3 C5 1_555 1_555
C6 C5 1_555 1_555
H4 C6 1_555 1_555
C7 C3 1_555 1_555
N4 C9 1_555 1_555
C8 H5 1_555 1_555
C9 C8 1_555 1_555
H6 C9 1_555 1_555
C10 N4 1_555 1_555
H7 C10 1_555 1_555
C11 C10 1_555 1_555
H8 C11 1_555 1_555
C12 C8 1_555 1_555
C13 C7 1_555 1_555
H9 C13 1_555 1_555
H10 C13 1_555 1_555
C14 C13 1_555 1_555
H11 C14 1_555 1_555
H12 C14 1_555 1_555
C15 C12 1_555 1_555
H13 C15 1_555 1_555
H14 C15 1_555 1_555
N5 Mn1 1_555 1_555
C16 H15 1_555 1_555
C17 N5 1_555 1_555
H16 C17 1_555 1_555
C18 N5 1_555 1_555
H17 C18 1_555 1_555
C19 C18 1_555 1_555
H18 C19 1_555 1_555
C20 C16 1_555 1_555
N6 C22 1_555 1_555
C21 H19 1_555 1_555
C22 C21 1_555 1_555
H20 C22 1_555 1_555
C23 N6 1_555 1_555
H21 C23 1_555 1_555
C24 C23 1_555 1_555
H22 C24 1_555 1_555
C25 C21 1_555 1_555
C26 C20 1_555 1_555
H23 C26 1_555 1_555
H24 C26 1_555 1_555
C27 C26 1_555 1_555
H25 C27 1_555 1_555
H26 C27 1_555 1_555
C28 C25 1_555 1_555
H27 C28 1_555 1_555
H28 C28 1_555 1_555
Mn2 N7 1_555 1_555
N7 C29 1_555 1_555
C29 S3 1_555 1_555
N8 Mn2 1_555 1_555
C30 N8 1_555 1_555
S4 C30 1_555 1_555
N9 Mn2 1_555 1_555
C31 H29 1_555 1_555
C32 N9 1_555 1_555
H30 C32 1_555 1_555
C33 N9 1_555 1_555
H31 C33 1_555 1_555
C34 C33 1_555 1_555
H32 C34 1_555 1_555
C35 C31 1_555 1_555
N10 C37 1_555 1_555
C36 H33 1_555 1_555
C37 C36 1_555 1_555
H34 C37 1_555 1_555
C38 N10 1_555 1_555
H35 C38 1_555 1_555
C39 C38 1_555 1_555
H36 C39 1_555 1_555
C40 C36 1_555 1_555
C41 C35 1_555 1_555
H37 C41 1_555 1_555
H38 C41 1_555 1_555
C42 C41 1_555 1_555
H39 C42 1_555 1_555
H40 C42 1_555 1_555
C43 C40 1_555 1_555
H41 C43 1_555 1_555
H42 C43 1_555 1_555
N11 Mn2 1_555 1_555
C44 H43 1_555 1_555
C45 N11 1_555 1_555
H44 C45 1_555 1_555
C46 N11 1_555 1_555
H45 C46 1_555 1_555
C47 C46 1_555 1_555
H46 C47 1_555 1_555
C48 C44 1_555 1_555
N12 C50 1_555 1_555
C49 H47 1_555 1_555
C50 C49 1_555 1_555
H48 C50 1_555 1_555
C51 N12 1_555 1_555
H49 C51 1_555 1_555
C52 C51 1_555 1_555
H50 C52 1_555 1_555
C53 C49 1_555 1_555
C54 C48 1_555 1_555
H51 C54 1_555 1_555
H52 C54 1_555 1_555
C55 C54 1_555 1_555
H53 C55 1_555 1_555
H54 C55 1_555 1_555
C56 C53 1_555 1_555
H55 C56 1_555 1_555
H56 C56 1_555 1_555
N4A Mn1 1_555 1_555
N6A Mn1 1_555 1_555
Mn1A N4 1_555 1_555
Mn1A_2 N6 1_555 1_555
N10A Mn2 1_555 1_555
N12A Mn2 1_555 1_555
Mn2A N10 1_555 1_555
Mn2A_2 N12 1_555 1_555
C3 C4 1_555 1_555
C6 C7 1_555 1_555
C11 C12 1_555 1_555
C14 C15 1_555 1_555
C16 C17 1_555 1_555
C19 C20 1_555 1_555
C24 C25 1_555 1_555
C27 C28 1_555 1_555
C31 C32 1_555 1_555
C34 C35 1_555 1_555
C39 C40 1_555 1_555
C42 C43 1_555 1_555
C44 C45 1_555 1_555
C47 C48 1_555 1_555
C52 C53 1_555 1_555
C55 C56 1_555 1_555

#END
