
#######################################################################
#
#                 Cambridge Crystallographic Data Centre
#                                CCDC 
#
#######################################################################
#
# If this CIF has been generated from an entry in the Cambridge 
# Structural Database, then it will include bibliographic, chemical, 
# crystal, experimental, refinement or atomic coordinate data resulting 
# from the CCDC's data processing and validation procedures.
#
#######################################################################

data_XICGUN
_symmetry_cell_setting           monoclinic
_symmetry_space_group_name_H-M   'P 21/c'
_symmetry_Int_Tables_number      14
_space_group_name_Hall           '-P 2ybc'
loop_
_symmetry_equiv_pos_site_id
_symmetry_equiv_pos_as_xyz
1 x,y,z
2 -x,1/2+y,1/2-z
3 -x,-y,-z
4 x,1/2-y,1/2+z
_cell_length_a                   7.750(2)
_cell_length_b                   19.835(5)
_cell_length_c                   10.502(3)
_cell_angle_alpha                90
_cell_angle_beta                 99.438(9)
_cell_angle_gamma                90
_cell_volume                     1592.53
loop_
_atom_site_label
_atom_site_type_symbol
_atom_site_fract_x
_atom_site_fract_y
_atom_site_fract_z
Ag1 Ag 0.38072(13) 0.71655(4) 0.14544(9)
N1 N 0.1165(11) 0.5788(4) -0.1453(8)
H1 H 0.0931 0.5397 -0.1792
N2 N 0.2307(11) 0.6570(4) -0.0044(8)
C1 C 0.2122(14) 0.5909(4) -0.0296(10)
C2 C 0.0627(14) 0.6388(5) -0.2001(10)
C3 C 0.1388(13) 0.6884(5) -0.1144(9)
C4 C 0.1151(15) 0.7579(5) -0.1409(12)
H2 H 0.1607 0.7910 -0.0823
C5 C 0.0160(17) 0.7737(7) -0.2643(15)
H3 H -0.0008 0.8184 -0.2899
C6 C -0.0532(17) 0.7235(5) -0.3440(11)
H4 H -0.1165 0.7358 -0.4236
C7 C -0.0372(15) 0.6572(7) -0.3165(12)
H5 H -0.0914 0.6249 -0.3738
N3 N 0.4921(11) 0.3055(4) 0.2571(8)
C8 C 0.5199(16) 0.3699(6) 0.2997(11)
H6 H 0.5902 0.3760 0.3795
C9 C 0.4548(16) 0.4251(5) 0.2366(11)
H7 H 0.4805 0.4675 0.2723
C10 C 0.3506(14) 0.4188(5) 0.1197(10)
C11 C 0.3210(16) 0.3525(5) 0.0686(11)
H8 H 0.2566 0.3450 -0.0130
C12 C 0.3924(16) 0.3003(5) 0.1457(12)
H9 H 0.3665 0.2569 0.1150
C13 C 0.2763(15) 0.4752(5) 0.0383(10)
H10 H 0.2087 0.4631 -0.0399
C14 C 0.2915(15) 0.5394(5) 0.0598(10)
H11 H 0.3572 0.5535 0.1374
N4 N 0.5990(19) 0.6140(6) 0.3472(15)
O1 O 0.6520(15) 0.6220(6) 0.2411(14)
O2 O 0.674(2) 0.5741(6) 0.4220(14)
O3 O 0.4632(14) 0.6433(5) 0.3643(9)
Ag1A Ag 0.61928(13) 0.21655(4) 0.35456(9)
N3A N 0.5079(11) 0.8055(4) 0.2429(8)
O4 O 1.0375(13) 0.4592(5) 0.7252(11)
C15 C 0.889(2) 0.4533(7) 0.6293(16)
H12 H 0.7870 0.4481 0.6692
H13 H 0.9016 0.4146 0.5767
H14 H 0.8776 0.4930 0.5766
loop_
_geom_bond_atom_site_label_1
_geom_bond_atom_site_label_2
_geom_bond_site_symmetry_1
_geom_bond_site_symmetry_2
Ag1 N2 1_555 1_555
N1 H1 1_555 1_555
N2 C1 1_555 1_555
C1 N1 1_555 1_555
C2 N1 1_555 1_555
C3 N2 1_555 1_555
C4 C3 1_555 1_555
H2 C4 1_555 1_555
C5 C4 1_555 1_555
H3 C5 1_555 1_555
C6 C5 1_555 1_555
H4 C6 1_555 1_555
C7 C2 1_555 1_555
H5 C7 1_555 1_555
N3 C8 1_555 1_555
C8 H6 1_555 1_555
C9 C8 1_555 1_555
H7 C9 1_555 1_555
C10 C9 1_555 1_555
C11 C10 1_555 1_555
H8 C11 1_555 1_555
C12 N3 1_555 1_555
H9 C12 1_555 1_555
C13 C10 1_555 1_555
H10 C13 1_555 1_555
C14 C1 1_555 1_555
H11 C14 1_555 1_555
N4 O1 1_555 1_555
O2 N4 1_555 1_555
O3 Ag1 1_555 1_555
O4 C15 1_555 1_555
C15 H12 1_555 1_555
H13 C15 1_555 1_555
H14 C15 1_555 1_555
Ag1A N3 1_555 1_555
N3A Ag1 1_555 1_555
C2 C3 1_555 1_555
C6 C7 1_555 1_555
C11 C12 1_555 1_555
C13 C14 1_555 1_555
N4 O3 1_555 1_555

#END
