
#######################################################################
#
#                 Cambridge Crystallographic Data Centre
#                                CCDC 
#
#######################################################################
#
# If this CIF has been generated from an entry in the Cambridge 
# Structural Database, then it will include bibliographic, chemical, 
# crystal, experimental, refinement or atomic coordinate data resulting 
# from the CCDC's data processing and validation procedures.
#
#######################################################################

data_XICNOO01
_symmetry_cell_setting           cubic
_symmetry_space_group_name_H-M   'F m -3 m'
_symmetry_Int_Tables_number      225
_space_group_name_Hall           '-F 4 2 3'
loop_
_symmetry_equiv_pos_site_id
_symmetry_equiv_pos_as_xyz
1 x,y,z
2 -x,-y,z
3 -x,y,-z
4 x,-y,-z
5 z,x,y
6 z,-x,-y
7 -z,-x,y
8 -z,x,-y
9 y,z,x
10 -y,z,-x
11 y,-z,-x
12 -y,-z,x
13 y,x,-z
14 -y,-x,-z
15 y,-x,z
16 -y,x,z
17 x,z,-y
18 -x,z,y
19 -x,-z,-y
20 x,-z,y
21 z,y,-x
22 z,-y,x
23 -z,y,x
24 -z,-y,-x
25 x,1/2+y,1/2+z
26 -x,1/2-y,1/2+z
27 -x,1/2+y,1/2-z
28 x,1/2-y,1/2-z
29 z,1/2+x,1/2+y
30 z,1/2-x,1/2-y
31 -z,1/2-x,1/2+y
32 -z,1/2+x,1/2-y
33 y,1/2+z,1/2+x
34 -y,1/2+z,1/2-x
35 y,1/2-z,1/2-x
36 -y,1/2-z,1/2+x
37 y,1/2+x,1/2-z
38 -y,1/2-x,1/2-z
39 y,1/2-x,1/2+z
40 -y,1/2+x,1/2+z
41 x,1/2+z,1/2-y
42 -x,1/2+z,1/2+y
43 -x,1/2-z,1/2-y
44 x,1/2-z,1/2+y
45 z,1/2+y,1/2-x
46 z,1/2-y,1/2+x
47 -z,1/2+y,1/2+x
48 -z,1/2-y,1/2-x
49 1/2+x,y,1/2+z
50 1/2-x,-y,1/2+z
51 1/2-x,y,1/2-z
52 1/2+x,-y,1/2-z
53 1/2+z,x,1/2+y
54 1/2+z,-x,1/2-y
55 1/2-z,-x,1/2+y
56 1/2-z,x,1/2-y
57 1/2+y,z,1/2+x
58 1/2-y,z,1/2-x
59 1/2+y,-z,1/2-x
60 1/2-y,-z,1/2+x
61 1/2+y,x,1/2-z
62 1/2-y,-x,1/2-z
63 1/2+y,-x,1/2+z
64 1/2-y,x,1/2+z
65 1/2+x,z,1/2-y
66 1/2-x,z,1/2+y
67 1/2-x,-z,1/2-y
68 1/2+x,-z,1/2+y
69 1/2+z,y,1/2-x
70 1/2+z,-y,1/2+x
71 1/2-z,y,1/2+x
72 1/2-z,-y,1/2-x
73 1/2+x,1/2+y,z
74 1/2-x,1/2-y,z
75 1/2-x,1/2+y,-z
76 1/2+x,1/2-y,-z
77 1/2+z,1/2+x,y
78 1/2+z,1/2-x,-y
79 1/2-z,1/2-x,y
80 1/2-z,1/2+x,-y
81 1/2+y,1/2+z,x
82 1/2-y,1/2+z,-x
83 1/2+y,1/2-z,-x
84 1/2-y,1/2-z,x
85 1/2+y,1/2+x,-z
86 1/2-y,1/2-x,-z
87 1/2+y,1/2-x,z
88 1/2-y,1/2+x,z
89 1/2+x,1/2+z,-y
90 1/2-x,1/2+z,y
91 1/2-x,1/2-z,-y
92 1/2+x,1/2-z,y
93 1/2+z,1/2+y,-x
94 1/2+z,1/2-y,x
95 1/2-z,1/2+y,x
96 1/2-z,1/2-y,-x
97 -x,-y,-z
98 x,y,-z
99 x,-y,z
100 -x,y,z
101 -z,-x,-y
102 -z,x,y
103 z,x,-y
104 z,-x,y
105 -y,-z,-x
106 y,-z,x
107 -y,z,x
108 y,z,-x
109 -y,-x,z
110 y,x,z
111 -y,x,-z
112 y,-x,-z
113 -x,-z,y
114 x,-z,-y
115 x,z,y
116 -x,z,-y
117 -z,-y,x
118 -z,y,-x
119 z,-y,-x
120 z,y,x
121 -x,1/2-y,1/2-z
122 x,1/2+y,1/2-z
123 x,1/2-y,1/2+z
124 -x,1/2+y,1/2+z
125 -z,1/2-x,1/2-y
126 -z,1/2+x,1/2+y
127 z,1/2+x,1/2-y
128 z,1/2-x,1/2+y
129 -y,1/2-z,1/2-x
130 y,1/2-z,1/2+x
131 -y,1/2+z,1/2+x
132 y,1/2+z,1/2-x
133 -y,1/2-x,1/2+z
134 y,1/2+x,1/2+z
135 -y,1/2+x,1/2-z
136 y,1/2-x,1/2-z
137 -x,1/2-z,1/2+y
138 x,1/2-z,1/2-y
139 x,1/2+z,1/2+y
140 -x,1/2+z,1/2-y
141 -z,1/2-y,1/2+x
142 -z,1/2+y,1/2-x
143 z,1/2-y,1/2-x
144 z,1/2+y,1/2+x
145 1/2-x,-y,1/2-z
146 1/2+x,y,1/2-z
147 1/2+x,-y,1/2+z
148 1/2-x,y,1/2+z
149 1/2-z,-x,1/2-y
150 1/2-z,x,1/2+y
151 1/2+z,x,1/2-y
152 1/2+z,-x,1/2+y
153 1/2-y,-z,1/2-x
154 1/2+y,-z,1/2+x
155 1/2-y,z,1/2+x
156 1/2+y,z,1/2-x
157 1/2-y,-x,1/2+z
158 1/2+y,x,1/2+z
159 1/2-y,x,1/2-z
160 1/2+y,-x,1/2-z
161 1/2-x,-z,1/2+y
162 1/2+x,-z,1/2-y
163 1/2+x,z,1/2+y
164 1/2-x,z,1/2-y
165 1/2-z,-y,1/2+x
166 1/2-z,y,1/2-x
167 1/2+z,-y,1/2-x
168 1/2+z,y,1/2+x
169 1/2-x,1/2-y,-z
170 1/2+x,1/2+y,-z
171 1/2+x,1/2-y,z
172 1/2-x,1/2+y,z
173 1/2-z,1/2-x,-y
174 1/2-z,1/2+x,y
175 1/2+z,1/2+x,-y
176 1/2+z,1/2-x,y
177 1/2-y,1/2-z,-x
178 1/2+y,1/2-z,x
179 1/2-y,1/2+z,x
180 1/2+y,1/2+z,-x
181 1/2-y,1/2-x,z
182 1/2+y,1/2+x,z
183 1/2-y,1/2+x,-z
184 1/2+y,1/2-x,-z
185 1/2-x,1/2-z,y
186 1/2+x,1/2-z,-y
187 1/2+x,1/2+z,y
188 1/2-x,1/2+z,-y
189 1/2-z,1/2-y,x
190 1/2-z,1/2+y,-x
191 1/2+z,1/2-y,-x
192 1/2+z,1/2+y,x
_cell_length_a                   39.030(5)
_cell_length_b                   39.030(5)
_cell_length_c                   39.030(5)
_cell_angle_alpha                90
_cell_angle_beta                 90
_cell_angle_gamma                90
_cell_volume                     59456
loop_
_atom_site_label
_atom_site_type_symbol
_atom_site_fract_x
_atom_site_fract_y
_atom_site_fract_z
Zr1 Zr 0.217965(13) 0.282035(13) 0.045343(18)
Zr2 Zr 0.205533(13) 0.205533(13) 0.0000
S1 S 0.24891(7) 0.11092(7) 0.11092(7)
C1 C 0.23006(17) 0.15311(17) 0.05738(16)
C2 C 0.22103(19) 0.12401(18) 0.07992(19)
C3 C 0.1923(2) 0.1045(2) 0.0793(2)
H1 H 0.1746 0.1076 0.0637
O1 O 0.20887(10) 0.16071(10) 0.03417(10)
O2 O 0.22866(16) 0.22866(16) 0.0444(3)
O3 O 0.25758(13) 0.16863(14) 0.06383(15)
O4 O 0.2206(2) 0.2794(2) 0.10099(19)
O5 O 0.17860(13) 0.32140(13) 0.0446(3)
O6 O 0.24008(17) 0.3032(3) 0.0000
C1JD C 0.23006(17) 0.05738(16) 0.15311(17)
C2JD C 0.22103(19) 0.07992(19) 0.12401(18)
C3JD C 0.1923(2) 0.0793(2) 0.1045(2)
H1JD H 0.1746 0.0637 0.1076
O1JD O 0.20887(10) 0.03417(10) 0.16071(10)
O3JD O 0.25758(13) 0.06383(15) 0.16863(14)
S1D S 0.11092(7) 0.24891(7) 0.11092(7)
C1D C 0.05738(16) 0.23006(17) 0.15311(17)
C2D C 0.07992(19) 0.22103(19) 0.12401(18)
C3D C 0.0793(2) 0.1923(2) 0.1045(2)
H1D H 0.0637 0.1746 0.1076
O1D O 0.03417(10) 0.20887(10) 0.16071(10)
O3D O 0.06383(15) 0.25758(13) 0.16863(14)
C1ED C 0.15311(17) 0.23006(17) 0.05738(16)
C2ED C 0.12401(18) 0.22103(19) 0.07992(19)
C3ED C 0.1045(2) 0.1923(2) 0.0793(2)
H1ED H 0.1076 0.1746 0.0637
O1ED O 0.16071(10) 0.20887(10) 0.03417(10)
O3ED O 0.16863(14) 0.25758(13) 0.06383(15)
Zr1UB Zr 0.282035(13) 0.217965(13) 0.045343(18)
O2UB O 0.27134(16) 0.27134(16) 0.0444(3)
O4UB O 0.2794(2) 0.2206(2) 0.10099(19)
O5UB O 0.32140(13) 0.17860(13) 0.0446(3)
O6UB O 0.25992(17) 0.1968(3) 0.0000
Zr1H Zr 0.282035(13) 0.045343(18) 0.217965(13)
Zr1L Zr 0.282035(13) 0.217965(13) -0.045343(18)
Zr1CA Zr 0.045343(18) 0.282035(13) 0.217965(13)
Zr1GC Zr 0.217965(13) 0.282035(13) -0.045343(18)
Zr2D Zr 0.0000 0.205533(13) 0.205533(13)
Zr2H Zr 0.205533(13) 0.0000 0.205533(13)
Zr2UB Zr 0.294467(13) 0.294467(13) 0.0000
O1L O 0.16071(10) 0.20887(10) -0.03417(10)
O1SC O 0.20887(10) 0.16071(10) -0.03417(10)
O2L O 0.22866(16) 0.22866(16) -0.0444(3)
O3UB O 0.24242(13) 0.33137(14) 0.06383(15)
O3XF O 0.33137(14) 0.24242(13) 0.06383(15)
O6L O 0.3032(3) 0.24008(17) 0.0000
O6GC O 0.1968(3) 0.25992(17) 0.0000
loop_
_geom_bond_atom_site_label_1
_geom_bond_atom_site_label_2
_geom_bond_site_symmetry_1
_geom_bond_site_symmetry_2
Zr1 O2 1_555 1_555
Zr2 O1 1_555 1_555
S1 C2 1_555 1_555
C1 C2 1_555 1_555
C2 C3 1_555 1_555
C3 H1 1_555 1_555
O1 C1 1_555 1_555
O2 Zr2 1_555 1_555
O3 C1 1_555 1_555
O4 Zr1 1_555 1_555
O5 Zr1 1_555 1_555
O6 Zr1 1_555 1_555
C1JD C2JD 1_555 1_555
C2JD S1 1_555 1_555
C3JD C3 1_555 1_555
H1JD C3JD 1_555 1_555
O1JD C1JD 1_555 1_555
O3JD C1JD 1_555 1_555
S1D C2D 1_555 1_555
C1D C2D 1_555 1_555
C2D C3D 1_555 1_555
C3D H1D 1_555 1_555
O1D C1D 1_555 1_555
O3D C1D 1_555 1_555
C1ED C2ED 1_555 1_555
C2ED S1D 1_555 1_555
C3ED C3D 1_555 1_555
H1ED C3ED 1_555 1_555
O1ED Zr2 1_555 1_555
O3ED Zr1 1_555 1_555
Zr1UB O2 1_555 1_555
O2UB Zr1 1_555 1_555
O4UB Zr1UB 1_555 1_555
O5UB Zr1UB 1_555 1_555
O6UB Zr2 1_555 1_555
Zr1H O3JD 1_555 1_555
Zr1L O6UB 1_555 1_555
Zr1CA O3D 1_555 1_555
Zr1GC O6 1_555 1_555
Zr2D O1D 1_555 1_555
Zr2H O1JD 1_555 1_555
Zr2UB O6 1_555 1_555
O1L Zr2 1_555 1_555
O1SC Zr2 1_555 1_555
O2L Zr2 1_555 1_555
O3UB Zr1 1_555 1_555
O3XF Zr1UB 1_555 1_555
O6L Zr1UB 1_555 1_555
O6GC Zr1 1_555 1_555
Zr2 O6GC 1_555 1_555
O3 Zr1UB 1_555 1_555
C2JD C3JD 1_555 1_555
C1ED O1ED 1_555 1_555
C1ED O3ED 1_555 1_555
C2ED C3ED 1_555 1_555
Zr1UB O2UB 1_555 1_555
Zr1UB O6UB 1_555 1_555
O2UB Zr2UB 1_555 1_555
Zr1L O2L 1_555 1_555
Zr1L O6L 1_555 1_555
Zr1GC O2L 1_555 1_555
Zr1GC O6GC 1_555 1_555
Zr2UB O6L 1_555 1_555

#END
