
#######################################################################
#
#                 Cambridge Crystallographic Data Centre
#                                CCDC 
#
#######################################################################
#
# If this CIF has been generated from an entry in the Cambridge 
# Structural Database, then it will include bibliographic, chemical, 
# crystal, experimental, refinement or atomic coordinate data resulting 
# from the CCDC's data processing and validation procedures.
#
#######################################################################

data_XICXEO
_symmetry_cell_setting           orthorhombic
_symmetry_space_group_name_H-M   'P b c a'
_symmetry_Int_Tables_number      61
_space_group_name_Hall           '-P 2ac 2ab'
loop_
_symmetry_equiv_pos_site_id
_symmetry_equiv_pos_as_xyz
1 x,y,z
2 1/2-x,-y,1/2+z
3 -x,1/2+y,1/2-z
4 1/2+x,1/2-y,-z
5 -x,-y,-z
6 1/2+x,y,1/2-z
7 x,1/2-y,1/2+z
8 1/2-x,1/2+y,z
_cell_length_a                   14.705(2)
_cell_length_b                   15.934(3)
_cell_length_c                   16.796(3)
_cell_angle_alpha                90
_cell_angle_beta                 90
_cell_angle_gamma                90
_cell_volume                     3935.46
loop_
_atom_site_label
_atom_site_type_symbol
_atom_site_fract_x
_atom_site_fract_y
_atom_site_fract_z
Zn1 Zn 0.65497(3) 0.08996(3) 0.71622(3)
C1 C 0.7987(3) 0.2176(3) 0.6923(3)
H1 H 0.8129 0.1944 0.6431
C2 C 0.7353(3) 0.2418(3) 0.8048(3)
H2 H 0.6962 0.2378 0.8482
C3 C 0.8031(4) 0.2978(3) 0.7977(3)
H3 H 0.8195 0.3388 0.8344
C4 C 0.9195(3) 0.3254(3) 0.6912(3)
C5 C 0.9852(3) 0.3580(3) 0.7414(3)
H4 H 0.9795 0.3540 0.7964
C6 C 1.0597(3) 0.3969(3) 0.7069(3)
C7 C 1.0686(3) 0.4045(3) 0.6259(3)
H5 H 1.1193 0.4306 0.6039
C8 C 1.0003(3) 0.3725(3) 0.5778(3)
C9 C 0.9254(3) 0.3326(3) 0.6093(3)
H6 H 0.8801 0.3110 0.5764
C10 C 0.9437(4) 0.3607(5) 0.4371(3)
H7 H 0.8837 0.3455 0.4470
C11 C 0.9823(4) 0.3694(5) 0.3657(3)
H8 H 0.9535 0.3602 0.3171
C12 C 1.0843(3) 0.3988(3) 0.4518(3)
H9 H 1.1391 0.4143 0.4753
C13 C 1.1883(3) 0.4905(3) 0.7401(3)
H10 H 1.1878 0.5209 0.6929
C14 C 1.2264(3) 0.4438(3) 0.8557(3)
H11 H 1.2572 0.4371 0.9037
C15 C 1.1547(3) 0.3970(3) 0.8316(3)
H12 H 1.1276 0.3527 0.8587
C16 C 0.5443(3) 0.0825(3) 0.8508(3)
C17 C 0.5231(3) 0.0409(3) 0.9296(3)
C18 C 0.4352(3) 0.0427(3) 0.9581(3)
H13 H 0.3913 0.0723 0.9298
C19 C 0.5900(3) -0.0016(3) 0.9723(3)
C20 C 0.6908(4) 0.0045(4) 0.9515(3)
N1 N 0.7321(3) 0.1914(2) 0.7385(2)
N2 N 0.8434(2) 0.2824(2) 0.7256(2)
N3 N 1.0085(3) 0.3783(3) 0.4928(2)
N4 N 1.0710(3) 0.3940(3) 0.3751(2)
N5 N 1.1302(3) 0.4291(2) 0.7578(2)
N6 N 1.2469(3) 0.5024(3) 0.7992(2)
O1 O 0.5970(3) 0.0400(2) 0.8064(2)
O2 O 0.5122(3) 0.1499(3) 0.8335(3)
O3 O 0.7228(3) 0.0760(3) 0.9417(3)
O4 O 0.7336(3) -0.0622(3) 0.9472(3)
C16D C 0.4557(3) -0.0825(3) 1.1492(3)
C17D C 0.4769(3) -0.0409(3) 1.0704(3)
C18D C 0.5648(3) -0.0427(3) 1.0419(3)
H13D H 0.6087 -0.0723 1.0702
C19D C 0.4100(3) 0.0016(3) 1.0277(3)
C20D C 0.3092(4) -0.0045(4) 1.0485(3)
O1D O 0.4030(3) -0.0400(2) 1.1936(2)
O2D O 0.4878(3) -0.1499(3) 1.1665(3)
O3D O 0.2772(3) -0.0760(3) 1.0583(3)
O4D O 0.2664(3) 0.0622(3) 1.0528(3)
Zn1D Zn 0.34503(3) -0.08996(3) 1.28378(3)
C1D C 0.2013(3) -0.2176(3) 1.3077(3)
H1D H 0.1871 -0.1944 1.3569
C2D C 0.2647(3) -0.2418(3) 1.1952(3)
H2D H 0.3038 -0.2378 1.1518
C3D C 0.1969(4) -0.2978(3) 1.2023(3)
H3D H 0.1805 -0.3388 1.1656
C4D C 0.0805(3) -0.3254(3) 1.3088(3)
C5D C 0.0148(3) -0.3580(3) 1.2586(3)
H4D H 0.0205 -0.3540 1.2036
C6D C -0.0597(3) -0.3969(3) 1.2931(3)
C7D C -0.0686(3) -0.4045(3) 1.3741(3)
H5D H -0.1193 -0.4306 1.3961
C8D C -0.0003(3) -0.3725(3) 1.4222(3)
C9D C 0.0746(3) -0.3326(3) 1.3907(3)
H6D H 0.1199 -0.3110 1.4236
C10D C 0.0563(4) -0.3607(5) 1.5629(3)
H7D H 0.1163 -0.3455 1.5530
C11D C 0.0177(4) -0.3694(5) 1.6343(3)
H8D H 0.0465 -0.3602 1.6829
C12D C -0.0843(3) -0.3988(3) 1.5482(3)
H9D H -0.1391 -0.4143 1.5247
C13D C -0.1883(3) -0.4905(3) 1.2599(3)
H10D H -0.1878 -0.5209 1.3071
C14D C -0.2264(3) -0.4438(3) 1.1443(3)
H11D H -0.2572 -0.4371 1.0963
C15D C -0.1547(3) -0.3970(3) 1.1684(3)
H12D H -0.1276 -0.3527 1.1413
N1D N 0.2679(3) -0.1914(2) 1.2615(2)
N2D N 0.1566(2) -0.2824(2) 1.2744(2)
N3D N -0.0085(3) -0.3783(3) 1.5072(2)
N4D N -0.0710(3) -0.3940(3) 1.6249(2)
N5D N -0.1302(3) -0.4291(2) 1.2422(2)
N6D N -0.2469(3) -0.5024(3) 1.2008(2)
Zn1B Zn 1.34503(3) 0.58996(3) 0.78378(3)
Zn1C Zn 1.15497(3) 0.41004(3) 0.28378(3)
Zn1F Zn -0.34503(3) -0.58996(3) 1.21622(3)
Zn1G Zn -0.15497(3) -0.41004(3) 1.71622(3)
N4C N 0.5710(3) 0.1060(3) 0.6249(2)
N4G N 0.4290(3) -0.1060(3) 1.3751(2)
N6B N 0.7531(3) 0.0024(3) 0.7008(2)
N6F N 0.2469(3) -0.0024(3) 1.2992(2)
O5 O 0.7888(4) 0.2147(4) 0.5059(3)
H14 H 0.7866 0.1641 0.4902
H15 H 0.8355 0.2384 0.4864
O6 O 1.1250(5) 0.2052(4) 0.5054(4)
H16 H 1.1489 0.1575 0.5144
H17 H 1.1665 0.2405 0.4943
loop_
_geom_bond_atom_site_label_1
_geom_bond_atom_site_label_2
_geom_bond_site_symmetry_1
_geom_bond_site_symmetry_2
Zn1 N1 1_555 1_555
C1 H1 1_555 1_555
C2 H2 1_555 1_555
C3 C2 1_555 1_555
H3 C3 1_555 1_555
C4 C5 1_555 1_555
C5 H4 1_555 1_555
C6 C5 1_555 1_555
C7 C6 1_555 1_555
H5 C7 1_555 1_555
C8 C7 1_555 1_555
C9 C4 1_555 1_555
H6 C9 1_555 1_555
C10 H7 1_555 1_555
C11 C10 1_555 1_555
H8 C11 1_555 1_555
C12 H9 1_555 1_555
C13 H10 1_555 1_555
C14 H11 1_555 1_555
C15 C14 1_555 1_555
H12 C15 1_555 1_555
C16 C17 1_555 1_555
C17 C18 1_555 1_555
C18 H13 1_555 1_555
C19 C17 1_555 1_555
C20 C19 1_555 1_555
N1 C1 1_555 1_555
N2 C1 1_555 1_555
N3 C8 1_555 1_555
N4 C11 1_555 1_555
N5 C6 1_555 1_555
N6 C13 1_555 1_555
O1 Zn1 1_555 1_555
O2 C16 1_555 1_555
O3 C20 1_555 1_555
O4 C20 1_555 1_555
O5 H14 1_555 1_555
H15 O5 1_555 1_555
O6 H16 1_555 1_555
H17 O6 1_555 1_555
C16D C17D 1_555 1_555
C17D C18D 1_555 1_555
C18D C19 1_555 1_555
H13D C18D 1_555 1_555
C19D C18 1_555 1_555
C20D C19D 1_555 1_555
O1D C16D 1_555 1_555
O2D C16D 1_555 1_555
O3D C20D 1_555 1_555
O4D C20D 1_555 1_555
Zn1D O1D 1_555 1_555
C1D H1D 1_555 1_555
C2D H2D 1_555 1_555
C3D C2D 1_555 1_555
H3D C3D 1_555 1_555
C4D C5D 1_555 1_555
C5D H4D 1_555 1_555
C6D C5D 1_555 1_555
C7D C6D 1_555 1_555
H5D C7D 1_555 1_555
C8D C7D 1_555 1_555
C9D C4D 1_555 1_555
H6D C9D 1_555 1_555
C10D H7D 1_555 1_555
C11D C10D 1_555 1_555
H8D C11D 1_555 1_555
C12D H9D 1_555 1_555
C13D H10D 1_555 1_555
C14D H11D 1_555 1_555
C15D C14D 1_555 1_555
H12D C15D 1_555 1_555
N1D Zn1D 1_555 1_555
N2D C1D 1_555 1_555
N3D C8D 1_555 1_555
N4D C11D 1_555 1_555
N5D C6D 1_555 1_555
N6D C13D 1_555 1_555
Zn1B N6 1_555 1_555
Zn1C N4 1_555 1_555
Zn1F N6D 1_555 1_555
Zn1G N4D 1_555 1_555
N4C Zn1 1_555 1_555
N4G Zn1D 1_555 1_555
N6B Zn1 1_555 1_555
N6F Zn1D 1_555 1_555
C2 N1 1_555 1_555
C3 N2 1_555 1_555
C4 N2 1_555 1_555
C8 C9 1_555 1_555
C10 N3 1_555 1_555
C12 N3 1_555 1_555
C12 N4 1_555 1_555
C13 N5 1_555 1_555
C14 N6 1_555 1_555
C15 N5 1_555 1_555
C16 O1 1_555 1_555
C17D C19D 1_555 1_555
C1D N1D 1_555 1_555
C2D N1D 1_555 1_555
C3D N2D 1_555 1_555
C4D N2D 1_555 1_555
C8D C9D 1_555 1_555
C10D N3D 1_555 1_555
C12D N3D 1_555 1_555
C12D N4D 1_555 1_555
C13D N5D 1_555 1_555
C14D N6D 1_555 1_555
C15D N5D 1_555 1_555

#END
