
#######################################################################
#
#                 Cambridge Crystallographic Data Centre
#                                CCDC 
#
#######################################################################
#
# If this CIF has been generated from an entry in the Cambridge 
# Structural Database, then it will include bibliographic, chemical, 
# crystal, experimental, refinement or atomic coordinate data resulting 
# from the CCDC's data processing and validation procedures.
#
#######################################################################

data_XIDCOE
_symmetry_cell_setting           orthorhombic
_symmetry_space_group_name_H-M   'P 21 21 21'
_symmetry_Int_Tables_number      19
_space_group_name_Hall           'P 2ac 2ab'
loop_
_symmetry_equiv_pos_site_id
_symmetry_equiv_pos_as_xyz
1 x,y,z
2 1/2-x,-y,1/2+z
3 -x,1/2+y,1/2-z
4 1/2+x,1/2-y,-z
_cell_length_a                   15.1250(6)
_cell_length_b                   21.1963(8)
_cell_length_c                   26.3737(11)
_cell_angle_alpha                90
_cell_angle_beta                 90
_cell_angle_gamma                90
_cell_volume                     8455.25
loop_
_atom_site_label
_atom_site_type_symbol
_atom_site_fract_x
_atom_site_fract_y
_atom_site_fract_z
Cu1 Cu 0.80307(5) 0.33044(3) 0.49837(3)
Cu2 Cu 0.78933(5) 0.83152(4) 0.49476(3)
C1 C 0.8112(4) 0.4643(3) 0.4989(3)
C2 C 0.8040(3) 0.5826(3) 0.5052(2)
H1 H 0.7708 0.5822 0.4756
C3 C 0.8340(3) 0.5267(3) 0.5251(2)
C4 C 0.8226(4) 0.6406(3) 0.5290(2)
C5 C 1.0370(4) 0.5797(2) 0.7340(3)
C6 C 0.8802(3) 0.5268(3) 0.5705(2)
H2 H 0.8991 0.4891 0.5849
C7 C 0.8930(5) 0.5766(3) 0.6863(2)
C8 C 1.0828(4) 0.5866(3) 0.6894(3)
C9 C 1.0347(4) 0.5915(3) 0.6407(2)
C10 C 0.8979(3) 0.5836(3) 0.59442(19)
C11 C 0.9433(4) 0.5754(2) 0.7345(2)
C12 C 0.8689(4) 0.6390(3) 0.5746(2)
H3 H 0.8801 0.6765 0.5918
C13 C 1.0803(5) 0.5782(3) 0.7822(3)
C14 C 1.1732(4) 0.5897(3) 0.6908(2)
H4 H 1.2046 0.5936 0.6607
C15 C 1.1720(6) 0.5818(3) 0.7813(3)
H5 H 1.2023 0.5806 0.8120
C16 C 0.8984(4) 0.5692(3) 0.7791(3)
H6 H 0.8371 0.5657 0.7788
C17 C 1.0359(6) 0.5721(3) 0.8265(3)
H7 H 1.0661 0.5707 0.8572
C18 C 1.2200(4) 0.5870(3) 0.7376(3)
H8 H 1.2814 0.5888 0.7384
C19 C 0.9440(6) 0.5679(3) 0.8251(3)
H9 H 0.9125 0.5643 0.8553
N1 N 0.9442(3) 0.5837(2) 0.64118(17)
O1 O 0.8216(2) 0.4159(2) 0.52512(13)
O2 O 0.8128(3) 0.5715(2) 0.68387(14)
O3 O 1.0720(2) 0.6005(2) 0.60047(15)
O4 O 0.7840(3) 0.4657(2) 0.45467(15)
O5 O 0.7837(3) 0.24663(19) 0.47383(13)
O6 O 0.7781(2) 0.0814(2) 0.30811(14)
O7 O 0.5302(3) 0.0895(2) 0.40478(13)
O8 O 0.8808(3) 0.19748(19) 0.52215(16)
N2 N 0.6521(3) 0.0864(2) 0.35569(16)
C20 C 0.8234(4) 0.1965(3) 0.4922(3)
C21 C 0.5064(3) 0.0883(3) 0.3166(2)
C22 C 0.5486(4) 0.0884(2) 0.2678(2)
C23 C 0.6417(3) 0.0878(2) 0.2625(2)
C24 C 0.7044(3) 0.0843(3) 0.40216(18)
C25 C 0.4962(4) 0.0890(3) 0.2231(2)
C26 C 0.6978(4) 0.0855(3) 0.3091(2)
C27 C 0.5594(4) 0.0873(3) 0.3630(2)
C28 C 0.6793(4) 0.0893(3) 0.2150(2)
H10 H 0.7406 0.0890 0.2125
C29 C 0.7887(4) 0.1353(3) 0.4682(2)
C30 C 0.3650(4) 0.0868(3) 0.2760(2)
H11 H 0.3039 0.0838 0.2787
C31 C 0.7380(3) 0.1402(3) 0.4222(2)
H12 H 0.7281 0.1789 0.4066
C32 C 0.4143(4) 0.0880(3) 0.3185(2)
H13 H 0.3863 0.0887 0.3499
C33 C 0.4033(4) 0.0899(3) 0.2290(2)
H14 H 0.3674 0.0925 0.2005
C34 C 0.7209(3) 0.0274(3) 0.4253(2)
H15 H 0.6985 -0.0095 0.4110
C35 C 0.5394(5) 0.0905(3) 0.1759(2)
H16 H 0.5053 0.0911 0.1466
C36 C 0.6306(5) 0.0912(3) 0.1712(2)
H17 H 0.6577 0.0928 0.1396
N3 N 0.9161(4) 0.3379(2) 0.4607(2)
N4 N 0.7080(4) 0.3204(2) 0.5509(2)
C37 C 0.6246(6) 0.3081(3) 0.5371(3)
H18 H 0.6127 0.3022 0.5028
C38 C 0.9258(6) 0.3328(3) 0.4107(3)
H19 H 0.8764 0.3230 0.3912
C39 C 0.9909(5) 0.3487(3) 0.4879(3)
H20 H 0.9884 0.3509 0.5231
C40 C 0.6663(6) 0.3253(4) 0.6388(3)
H21 H 0.6815 0.3280 0.6729
C41 C 0.5784(6) 0.3160(3) 0.6220(4)
H22 H 0.5330 0.3179 0.6457
C42 C 0.7282(5) 0.3302(3) 0.5997(3)
H23 H 0.7861 0.3407 0.6080
C43 C 1.0723(5) 0.3566(3) 0.4626(4)
H24 H 1.1211 0.3663 0.4826
C44 C 1.0862(8) 0.3513(4) 0.4120(4)
H25 H 1.1414 0.3540 0.3966
O9 O 0.8279(3) 0.7517(2) 0.52299(16)
N5 N 0.6828(3) 0.8288(2) 0.5388(2)
C45 C 0.6006(6) 0.8414(3) 0.5221(3)
H26 H 0.5932 0.8547 0.4888
C46 C 0.6892(5) 0.8121(3) 0.5870(3)
H27 H 0.7452 0.8025 0.5994
C47 C 0.6206(6) 0.8080(4) 0.6197(3)
H28 H 0.6304 0.7973 0.6534
C48 C 0.7863(4) -0.0399(3) 0.4946(2)
O10 O 0.7568(2) -0.08651(19) 0.46988(14)
O11 O 0.8269(2) -0.04374(19) 0.53561(14)
N6 N 0.9062(4) 0.8382(2) 0.4568(2)
C49 C 0.5562(6) 0.3038(4) 0.5707(4)
H29 H 0.4990 0.2936 0.5606
C50 C 0.9817(7) 0.8281(4) 0.4800(3)
H30 H 0.9804 0.8170 0.5141
C51 C 0.9089(6) 0.8538(3) 0.4078(4)
H31 H 0.8549 0.8617 0.3921
C52 C 0.7923(5) 0.7009(3) 0.5036(3)
O12 O 0.7382(4) 0.6994(2) 0.46930(19)
C53 C 1.0589(8) 0.8497(5) 0.4045(6)
H32 H 1.1118 0.8546 0.3870
C54 C 1.0071(7) 0.3415(4) 0.3862(3)
H33 H 1.0083 0.3406 0.3509
C55 C 0.5252(5) 0.8352(3) 0.5533(4)
H34 H 0.4684 0.8414 0.5407
C56 C 0.5397(8) 0.8193(4) 0.6035(3)
H35 H 0.4923 0.8167 0.6259
C57 C 1.0623(8) 0.8330(5) 0.4565(5)
H36 H 1.1153 0.8258 0.4734
O13 O 0.7141(5) 0.7994(3) 0.4156(2)
C58 C 0.9813(9) 0.8591(5) 0.3787(4)
H37 H 0.9790 0.8684 0.3442
O14 O 0.6972(3) 0.35992(17) 0.43256(13)
C59 C 0.8043(3) 0.0796(3) 0.4909(2)
H38 H 0.8373 0.0779 0.5206
C60 C 0.7705(4) 0.0240(3) 0.4695(2)
Cu2_2 Cu 0.78933(5) -0.16848(4) 0.49476(3)
O10_2 O 0.7568(2) 0.91349(19) 0.46988(14)
Cu3 Cu 0.97016(4) 0.52855(3) 0.26163(3)
N7 N 0.9511(3) 0.5257(2) 0.18708(17)
N8 N 1.0225(4) 0.5205(2) 0.33159(19)
C61 C 0.8726(4) 0.5065(3) 0.1689(3)
H39 H 0.8284 0.4956 0.1918
C62 C 0.8549(5) 0.5024(3) 0.1175(3)
H40 H 0.7991 0.4914 0.1057
C63 C 1.0036(5) 0.5359(4) 0.1041(3)
H41 H 1.0489 0.5477 0.0822
C64 C 1.0163(5) 0.5388(3) 0.1563(3)
H42 H 1.0712 0.5501 0.1693
C65 C 0.9734(5) 0.5134(3) 0.3734(3)
H43 H 0.9122 0.5121 0.3706
C66 C 1.1114(5) 0.5231(3) 0.3364(3)
H44 H 1.1457 0.5290 0.3075
C67 C 1.0120(6) 0.5080(3) 0.4208(3)
H45 H 0.9771 0.5018 0.4494
C68 C 1.1531(5) 0.5173(4) 0.3826(4)
H46 H 1.2144 0.5171 0.3846
C69 C 1.1026(6) 0.5118(3) 0.4254(3)
H47 H 1.1291 0.5106 0.4572
C70 C 0.9866(4) 0.2818(3) 0.2483(2)
H48 H 1.0469 0.2867 0.2427
C71 C 0.8080(4) 0.2683(3) 0.2588(2)
C72 C 0.9350(4) 0.3347(3) 0.2541(2)
C73 C 0.8454(3) 0.3283(2) 0.25841(18)
H49 H 0.8096 0.3638 0.2611
C74 C 0.8618(4) 0.2139(2) 0.25612(19)
H50 H 0.8367 0.1739 0.2580
C75 C 0.9733(4) 0.4006(3) 0.2561(2)
O15 O 0.9217(2) 0.44397(17) 0.26651(15)
O16 O 1.0545(2) 0.40597(18) 0.24803(16)
N9 N 0.7133(3) 0.26146(19) 0.26291(18)
O17 O 0.7210(3) 0.27705(18) 0.34805(15)
O18 O 0.7052(3) 0.25153(19) 0.17698(14)
C76 C 0.5275(5) 0.2550(3) 0.2683(3)
C77 C 0.5780(5) 0.2628(2) 0.3133(3)
C78 C 0.6743(4) 0.2685(3) 0.3101(3)
C79 C 0.5175(5) 0.2469(3) 0.1750(2)
C80 C 0.5661(4) 0.2520(3) 0.2202(3)
C81 C 0.6662(4) 0.2540(3) 0.2171(2)
C82 C 0.3865(5) 0.2491(3) 0.2243(3)
H51 H 0.3250 0.2479 0.2247
C83 C 0.4314(5) 0.2550(3) 0.2723(3)
C84 C 0.3902(5) 0.2562(3) 0.3212(3)
C85 C 0.5322(6) 0.2618(3) 0.3610(2)
H52 H 0.5645 0.2621 0.3910
C86 C 0.4389(5) 0.2601(3) 0.3630(3)
H53 H 0.4109 0.2618 0.3944
C87 C 0.4268(5) 0.2453(3) 0.1790(3)
H54 H 0.3928 0.2414 0.1497
C88 C 1.0064(4) 0.1628(3) 0.2435(2)
O19 O 0.9718(2) 0.11083(17) 0.24491(15)
O20 O 0.8303(2) 0.56463(18) 0.28210(18)
H55 H 0.8277 0.6028 0.2772
O21 O 1.0894(3) 0.17410(19) 0.2370(2)
C89 C 0.9227(6) 0.5152(4) 0.0846(3)
H56 H 0.9150 0.5102 0.0499
C90 C 0.9512(4) 0.2207(3) 0.2508(2)
Cu3B Cu 1.02984(4) 0.02855(3) 0.23837(3)
O19B O 1.0282(2) 0.61083(17) 0.25509(15)
O22 O 0.5121(3) 0.3958(2) 0.45348(14)
O23 O 0.5080(3) 0.5270(2) 0.45407(16)
O24 O 0.7398(3) 0.5376(3) 0.37081(17)
O25 O 0.6220(3) 0.6169(2) 0.41508(16)
loop_
_geom_bond_atom_site_label_1
_geom_bond_atom_site_label_2
_geom_bond_site_symmetry_1
_geom_bond_site_symmetry_2
Cu1 O1 1_555 1_555
Cu2 O9 1_555 1_555
C1 C3 1_555 1_555
C2 H1 1_555 1_555
C3 C2 1_555 1_555
C4 C2 1_555 1_555
C5 C8 1_555 1_555
C6 C3 1_555 1_555
H2 C6 1_555 1_555
C7 C11 1_555 1_555
C8 C9 1_555 1_555
C9 N1 1_555 1_555
C10 C6 1_555 1_555
C11 C5 1_555 1_555
C12 C4 1_555 1_555
H3 C12 1_555 1_555
C13 C5 1_555 1_555
C14 C8 1_555 1_555
H4 C14 1_555 1_555
C15 C13 1_555 1_555
H5 C15 1_555 1_555
C16 C11 1_555 1_555
H6 C16 1_555 1_555
C17 C13 1_555 1_555
H7 C17 1_555 1_555
C18 C14 1_555 1_555
H8 C18 1_555 1_555
C19 C16 1_555 1_555
H9 C19 1_555 1_555
N1 C7 1_555 1_555
O1 C1 1_555 1_555
O2 C7 1_555 1_555
O3 C9 1_555 1_555
O4 C1 1_555 1_555
O5 Cu1 1_555 1_555
O6 C26 1_555 1_555
O7 C27 1_555 1_555
O8 C20 1_555 1_555
N2 C24 1_555 1_555
C20 O5 1_555 1_555
C21 C22 1_555 1_555
C22 C23 1_555 1_555
C23 C26 1_555 1_555
C24 C31 1_555 1_555
C25 C22 1_555 1_555
C26 N2 1_555 1_555
C27 N2 1_555 1_555
C28 C23 1_555 1_555
H10 C28 1_555 1_555
C29 C20 1_555 1_555
C30 H11 1_555 1_555
C31 C29 1_555 1_555
H12 C31 1_555 1_555
C32 C21 1_555 1_555
H13 C32 1_555 1_555
C33 C25 1_555 1_555
H14 C33 1_555 1_555
C34 C24 1_555 1_555
H15 C34 1_555 1_555
C35 C25 1_555 1_555
H16 C35 1_555 1_555
C36 C28 1_555 1_555
H17 C36 1_555 1_555
N3 Cu1 1_555 1_555
N4 Cu1 1_555 1_555
C37 N4 1_555 1_555
H18 C37 1_555 1_555
C38 N3 1_555 1_555
H19 C38 1_555 1_555
C39 N3 1_555 1_555
H20 C39 1_555 1_555
C40 H21 1_555 1_555
C41 C40 1_555 1_555
H22 C41 1_555 1_555
C42 N4 1_555 1_555
H23 C42 1_555 1_555
C43 C39 1_555 1_555
H24 C43 1_555 1_555
C44 C43 1_555 1_555
H25 C44 1_555 1_555
O9 C52 1_555 1_555
N5 Cu2 1_555 1_555
C45 N5 1_555 1_555
H26 C45 1_555 1_555
C46 N5 1_555 1_555
H27 C46 1_555 1_555
C47 C46 1_555 1_555
H28 C47 1_555 1_555
C48 O10 1_555 1_555
O10 Cu2_2 1_555 1_555
O11 C48 1_555 1_555
N6 Cu2 1_555 1_555
C49 C37 1_555 1_555
H29 C49 1_555 1_555
C50 N6 1_555 1_555
H30 C50 1_555 1_555
C51 N6 1_555 1_555
H31 C51 1_555 1_555
C52 C4 1_555 1_555
O12 C52 1_555 1_555
C53 H32 1_555 1_555
C54 C38 1_555 1_555
H33 C54 1_555 1_555
C55 C45 1_555 1_555
H34 C55 1_555 1_555
C56 C47 1_555 1_555
H35 C56 1_555 1_555
C57 C50 1_555 1_555
H36 C57 1_555 1_555
O13 Cu2 1_555 1_555
C58 C51 1_555 1_555
H37 C58 1_555 1_555
O14 Cu1 1_555 1_555
C59 C29 1_555 1_555
H38 C59 1_555 1_555
C60 C34 1_555 1_555
Cu3 N7 1_555 1_555
N7 C61 1_555 1_555
N8 Cu3 1_555 1_555
C61 H39 1_555 1_555
C62 C61 1_555 1_555
H40 C62 1_555 1_555
C63 H41 1_555 1_555
C64 N7 1_555 1_555
H42 C64 1_555 1_555
C65 N8 1_555 1_555
H43 C65 1_555 1_555
C66 N8 1_555 1_555
H44 C66 1_555 1_555
C67 C65 1_555 1_555
H45 C67 1_555 1_555
C68 C66 1_555 1_555
H46 C68 1_555 1_555
C69 C67 1_555 1_555
H47 C69 1_555 1_555
C70 H48 1_555 1_555
C71 C73 1_555 1_555
C72 C70 1_555 1_555
C73 C72 1_555 1_555
H49 C73 1_555 1_555
C74 C71 1_555 1_555
H50 C74 1_555 1_555
C75 C72 1_555 1_555
O15 Cu3 1_555 1_555
O16 C75 1_555 1_555
N9 C71 1_555 1_555
O17 C78 1_555 1_555
O18 C81 1_555 1_555
C76 C77 1_555 1_555
C77 C78 1_555 1_555
C78 N9 1_555 1_555
C79 C80 1_555 1_555
C80 C76 1_555 1_555
C81 N9 1_555 1_555
C82 H51 1_555 1_555
C83 C76 1_555 1_555
C84 C83 1_555 1_555
C85 C77 1_555 1_555
H52 C85 1_555 1_555
C86 C84 1_555 1_555
H53 C86 1_555 1_555
C87 C79 1_555 1_555
H54 C87 1_555 1_555
C88 O19 1_555 1_555
O19 Cu3B 1_555 1_555
O20 Cu3 1_555 1_555
H55 O20 1_555 1_555
O21 C88 1_555 1_555
C89 C62 1_555 1_555
H56 C89 1_555 1_555
C90 C70 1_555 1_555
O10_2 Cu2 1_555 1_555
O19B Cu3 1_555 1_555
C10 C12 1_555 1_555
C10 N1 1_555 1_555
C15 C18 1_555 1_555
C17 C19 1_555 1_555
C21 C27 1_555 1_555
C30 C32 1_555 1_555
C30 C33 1_555 1_555
C35 C36 1_555 1_555
C40 C42 1_555 1_555
C41 C49 1_555 1_555
C44 C54 1_555 1_555
C48 C60 1_555 1_555
C53 C57 1_555 1_555
C53 C58 1_555 1_555
C55 C56 1_555 1_555
C59 C60 1_555 1_555
C63 C64 1_555 1_555
C63 C89 1_555 1_555
C68 C69 1_555 1_555
C74 C90 1_555 1_555
C75 O15 1_555 1_555
C80 C81 1_555 1_555
C82 C83 1_555 1_555
C82 C87 1_555 1_555
C85 C86 1_555 1_555
C88 C90 1_555 1_555

#END
