
#######################################################################
#
#                 Cambridge Crystallographic Data Centre
#                                CCDC 
#
#######################################################################
#
# If this CIF has been generated from an entry in the Cambridge 
# Structural Database, then it will include bibliographic, chemical, 
# crystal, experimental, refinement or atomic coordinate data resulting 
# from the CCDC's data processing and validation procedures.
#
#######################################################################

data_XIDFAT
_symmetry_cell_setting           monoclinic
_symmetry_space_group_name_H-M   'P 21/c'
_symmetry_Int_Tables_number      14
_space_group_name_Hall           '-P 2ybc'
loop_
_symmetry_equiv_pos_site_id
_symmetry_equiv_pos_as_xyz
1 x,y,z
2 -x,1/2+y,1/2-z
3 -x,-y,-z
4 x,1/2-y,1/2+z
_cell_length_a                   9.699(5)
_cell_length_b                   13.677(5)
_cell_length_c                   16.584(5)
_cell_angle_alpha                90
_cell_angle_beta                 93.644(5)
_cell_angle_gamma                90
_cell_volume                     2195.47
loop_
_atom_site_label
_atom_site_type_symbol
_atom_site_fract_x
_atom_site_fract_y
_atom_site_fract_z
Zn1 Zn 0.00146(3) 1.11275(2) 0.181403(17)
O1 O 0.81507(18) 1.16297(14) 0.15944(12)
O2 O 0.16403(17) 1.19199(14) 0.17063(12)
O3 O 0.4447(2) 1.47139(15) 0.28412(16)
H1 H 0.5151 1.4978 0.3035
O4 O 0.88312(19) 1.28204(16) 0.24400(14)
O5 O 0.3130(2) 1.06908(15) 0.17444(15)
N1 N 0.0224(2) 0.65247(17) 0.55798(14)
C1 C 0.0233(3) 0.79858(19) 0.47470(16)
H2 H -0.0703 0.7900 0.4608
C2 C 0.0953(3) 0.87601(18) 0.44377(15)
N2 N 0.0244(2) 0.94364(16) 0.39059(13)
N3 N 0.4469(2) 0.83687(17) 0.53453(14)
C3 C 0.0944(3) 0.73390(19) 0.52701(16)
C4 C 0.3705(3) 1.32078(19) 0.22665(16)
H3 H 0.2793 1.3389 0.2324
C5 C 0.3035(3) 0.8230(2) 0.51417(16)
C6 C 0.4006(2) 1.23041(18) 0.19377(15)
C7 C 0.7931(2) 1.23729(19) 0.20385(16)
C8 C 0.2350(3) 0.8893(2) 0.46283(16)
H4 H 0.2819 0.9417 0.4416
C9 C 0.6433(2) 1.26759(18) 0.20735(15)
C10 C 0.5375(2) 1.20473(19) 0.18212(15)
H5 H 0.5572 1.1457 0.1575
C11 C 0.6143(3) 1.35652(19) 0.24279(16)
H6 H 0.6860 1.3977 0.2611
N4 N -0.0124(2) 1.04847(17) 0.29060(13)
N5 N 0.6679(3) 0.8695(2) 0.52134(17)
C12 C 0.4776(3) 1.38404(19) 0.25091(17)
C13 C 0.2341(3) 0.7454(2) 0.54769(17)
H7 H 0.2806 0.7022 0.5832
N6 N -0.0165(2) 0.50872(16) 0.61145(14)
C14 C -0.1345(3) 1.0323(2) 0.32684(17)
H8 H -0.2187 1.0614 0.3113
C15 C 0.2860(3) 1.15728(19) 0.17737(16)
C16 C 0.6488(3) 0.8416(3) 0.5988(2)
H9 H 0.7186 0.8373 0.6397
C17 C 0.5439(3) 0.8656(2) 0.48441(18)
H10 H 0.5251 0.8808 0.4302
C18 C 0.5148(3) 0.8211(3) 0.60785(19)
H11 H 0.4762 0.8003 0.6548
C19 C 0.0809(3) 0.9938(2) 0.33039(16)
H12 H 0.1733 0.9902 0.3187
C20 C 0.0790(3) 0.5687(2) 0.58743(16)
H13 H 0.1731 0.5550 0.5904
C21 C -0.1190(3) 0.6445(2) 0.5639(2)
H14 H -0.1857 0.6908 0.5482
C22 C -0.1137(3) 0.9678(2) 0.38844(17)
H15 H -0.1791 0.9447 0.4223
C23 C -0.1405(3) 0.5565(2) 0.5967(2)
H16 H -0.2264 0.5315 0.6078
Zn1_2 Zn 1.00146(3) 1.11275(2) 0.181403(17)
Zn1C Zn 0.00146(3) 0.38725(2) 0.681403(17)
O1_2 O -0.18493(18) 1.16297(14) 0.15944(12)
N6C N -0.0165(2) 0.99128(16) 0.11145(14)
loop_
_geom_bond_atom_site_label_1
_geom_bond_atom_site_label_2
_geom_bond_site_symmetry_1
_geom_bond_site_symmetry_2
Zn1 O2 1_555 1_555
O1 C7 1_555 1_555
O2 C15 1_555 1_555
O3 H1 1_555 1_555
O4 C7 1_555 1_555
O5 C15 1_555 1_555
N1 C3 1_555 1_555
C1 H2 1_555 1_555
C2 C1 1_555 1_555
N2 C2 1_555 1_555
N3 C5 1_555 1_555
C3 C1 1_555 1_555
C4 H3 1_555 1_555
C5 C8 1_555 1_555
C6 C4 1_555 1_555
C7 C9 1_555 1_555
C8 C2 1_555 1_555
H4 C8 1_555 1_555
C9 C10 1_555 1_555
C10 C6 1_555 1_555
H5 C10 1_555 1_555
C11 C9 1_555 1_555
H6 C11 1_555 1_555
N4 Zn1 1_555 1_555
N5 C16 1_555 1_555
C12 O3 1_555 1_555
C13 C3 1_555 1_555
H7 C13 1_555 1_555
N6 C20 1_555 1_555
C14 N4 1_555 1_555
H8 C14 1_555 1_555
C15 C6 1_555 1_555
C16 H9 1_555 1_555
C17 N3 1_555 1_555
H10 C17 1_555 1_555
C18 N3 1_555 1_555
H11 C18 1_555 1_555
C19 N2 1_555 1_555
H12 C19 1_555 1_555
C20 N1 1_555 1_555
H13 C20 1_555 1_555
C21 N1 1_555 1_555
H14 C21 1_555 1_555
C22 N2 1_555 1_555
H15 C22 1_555 1_555
C23 N6 1_555 1_555
H16 C23 1_555 1_555
Zn1_2 O1 1_555 1_555
Zn1C N6 1_555 1_555
O1_2 Zn1 1_555 1_555
N6C Zn1 1_555 1_555
C4 C12 1_555 1_555
C5 C13 1_555 1_555
C11 C12 1_555 1_555
N4 C19 1_555 1_555
N5 C17 1_555 1_555
C14 C22 1_555 1_555
C16 C18 1_555 1_555
C21 C23 1_555 1_555

#END
