
#######################################################################
#
#                 Cambridge Crystallographic Data Centre
#                                CCDC 
#
#######################################################################
#
# If this CIF has been generated from an entry in the Cambridge 
# Structural Database, then it will include bibliographic, chemical, 
# crystal, experimental, refinement or atomic coordinate data resulting 
# from the CCDC's data processing and validation procedures.
#
#######################################################################

data_XIDGUN
_symmetry_cell_setting           monoclinic
_symmetry_space_group_name_H-M   'P 21/c'
_symmetry_Int_Tables_number      14
_space_group_name_Hall           '-P 2ybc'
loop_
_symmetry_equiv_pos_site_id
_symmetry_equiv_pos_as_xyz
1 x,y,z
2 -x,1/2+y,1/2-z
3 -x,-y,-z
4 x,1/2-y,1/2+z
_cell_length_a                   7.3026(13)
_cell_length_b                   23.289(3)
_cell_length_c                   10.2812(24)
_cell_angle_alpha                90
_cell_angle_beta                 105.002(19)
_cell_angle_gamma                90
_cell_volume                     1688.93
loop_
_atom_site_label
_atom_site_type_symbol
_atom_site_fract_x
_atom_site_fract_y
_atom_site_fract_z
Ag1 Ag 0.42085(16) 0.19652(4) 0.23066(10)
S1 S 0.7872(5) 0.18406(12) 0.2908(3)
O1 O 0.4098(18) 0.2636(5) 0.4504(12)
O2 O 0.2637(14) 0.1827(5) 0.4132(10)
O3 O 0.2713(18) 0.2298(6) 0.5933(11)
N1 N 0.3110(15) 0.2257(5) 0.4835(11)
N2 N 0.6963(15) -0.1080(4) -0.1446(10)
C1 C 0.6968(17) -0.0939(5) -0.0175(10)
C2 C 0.7307(17) -0.0388(5) 0.0335(11)
C3 C 0.7726(17) 0.0038(5) -0.0513(12)
C4 C 0.7700(17) -0.0107(5) -0.1827(11)
C5 C 0.7321(18) -0.0668(5) -0.2248(12)
C6 C 0.7332(17) -0.0292(4) 0.1741(11)
C7 C 0.7558(17) 0.0196(5) 0.2447(10)
C8 C 0.7552(16) 0.0234(5) 0.3896(11)
O4 O 0.7499(15) -0.0134(3) 0.4691(9)
N3 N 0.7639(13) 0.0823(4) 0.4135(8)
N4 N 0.7756(14) 0.0756(4) 0.1959(9)
C9 C 0.7769(16) 0.1099(4) 0.2960(10)
C10 C 0.7834(16) 0.1101(4) 0.5405(9)
C11 C 0.633(2) 0.1123(6) 0.5959(14)
C12 C 0.656(4) 0.1414(7) 0.721(2)
C13 C 0.821(4) 0.1662(6) 0.7808(16)
C14 C 0.969(3) 0.1615(7) 0.7267(14)
C15 C 0.950(2) 0.1340(6) 0.6042(11)
C16 C 0.831(2) 0.1922(6) 0.1253(13)
H1 H 0.631(17) -0.120(5) 0.045(12)
H2 H 0.820(17) 0.035(5) -0.020(12)
H3 H 0.828(17) 0.023(5) -0.231(11)
H4 H 0.739(17) -0.078(5) -0.312(12)
H5 H 0.718(16) -0.064(4) 0.238(10)
H6 H 0.520(18) 0.103(5) 0.534(13)
H7 H 0.519(18) 0.146(5) 0.722(12)
H8 H 1.092(12) 0.172(6) 0.780(10)
H9 H 1.051(14) 0.135(5) 0.548(11)
Ag1C Ag 0.42085(16) 0.30348(4) 0.73066(10)
Ag1B Ag 0.57915(16) -0.19652(4) -0.23066(10)
O3C O 0.2713(18) 0.2702(6) 0.0933(11)
N2B N 0.3037(15) 0.1080(4) 0.1446(10)
loop_
_geom_bond_atom_site_label_1
_geom_bond_atom_site_label_2
_geom_bond_site_symmetry_1
_geom_bond_site_symmetry_2
Ag1 S1 1_555 1_555
S1 C9 1_555 1_555
O1 N1 1_555 1_555
O2 Ag1 1_555 1_555
O3 N1 1_555 1_555
N1 O2 1_555 1_555
N2 C1 1_555 1_555
C1 C2 1_555 1_555
C2 C3 1_555 1_555
C3 C4 1_555 1_555
C4 C5 1_555 1_555
C5 N2 1_555 1_555
C6 C2 1_555 1_555
C7 C6 1_555 1_555
C8 C7 1_555 1_555
O4 C8 1_555 1_555
N3 C8 1_555 1_555
N4 C7 1_555 1_555
C9 N3 1_555 1_555
C10 N3 1_555 1_555
C11 C10 1_555 1_555
C12 C11 1_555 1_555
C13 C12 1_555 1_555
C14 C13 1_555 1_555
C15 C10 1_555 1_555
C16 S1 1_555 1_555
H1 C1 1_555 1_555
H2 C3 1_555 1_555
H3 C4 1_555 1_555
H4 C5 1_555 1_555
H5 C6 1_555 1_555
H6 C11 1_555 1_555
H7 C12 1_555 1_555
H8 C14 1_555 1_555
H9 C15 1_555 1_555
Ag1C O3 1_555 1_555
Ag1B N2 1_555 1_555
O3C Ag1 1_555 1_555
N2B Ag1 1_555 1_555
N4 C9 1_555 1_555
C14 C15 1_555 1_555

#END
