
#######################################################################
#
#                 Cambridge Crystallographic Data Centre
#                                CCDC 
#
#######################################################################
#
# If this CIF has been generated from an entry in the Cambridge 
# Structural Database, then it will include bibliographic, chemical, 
# crystal, experimental, refinement or atomic coordinate data resulting 
# from the CCDC's data processing and validation procedures.
#
#######################################################################

data_XIDHOJ
_symmetry_cell_setting           triclinic
_symmetry_space_group_name_H-M   'P -1'
_symmetry_Int_Tables_number      2
_space_group_name_Hall           '-P 1'
loop_
_symmetry_equiv_pos_site_id
_symmetry_equiv_pos_as_xyz
1 x,y,z
2 -x,-y,-z
_cell_length_a                   9.4020(5)
_cell_length_b                   9.7100(4)
_cell_length_c                   10.5130(5)
_cell_angle_alpha                102.863(4)
_cell_angle_beta                 91.907(4)
_cell_angle_gamma                113.241(4)
_cell_volume                     851.859
loop_
_atom_site_label
_atom_site_type_symbol
_atom_site_fract_x
_atom_site_fract_y
_atom_site_fract_z
O6 O 0.0308(7) 0.4923(7) 0.7669(5)
H11 H 0.034(7) 0.413(7) 0.791(6)
H12 H -0.045(7) 0.530(7) 0.736(5)
O7 O -0.1171(18) 0.3346(15) -0.0517(11)
Cd1 Cd 0.01910(3) 0.15891(3) 0.42000(3)
C1 C -0.2347(5) 0.5421(5) 0.5028(4)
C2 C -0.3615(5) 0.3790(5) 0.4473(4)
H1 H -0.4591 0.3864 0.4265
H2 H -0.3344 0.3320 0.3657
C3 C -0.5024(5) 0.2582(5) 0.6114(4)
H3 H -0.5647 0.3120 0.6079
C4 C -0.5302(5) 0.1628(5) 0.6913(4)
H4 H -0.6095 0.1510 0.7441
C5 C -0.4369(5) 0.0825(5) 0.6927(4)
H5 H -0.4565 0.0147 0.7465
C6 C -0.3178(4) 0.0985(4) 0.6186(4)
C7 C -0.2834(4) 0.2053(4) 0.5370(4)
C8 C -0.2307(5) -0.0006(5) 0.6228(4)
C9 C -0.1000(5) -0.0902(6) 0.1434(5)
H6 H -0.0521 -0.1467 0.1734
C10 C -0.2295(7) -0.0203(7) 0.0184(5)
H7 H -0.2881 -0.0168 -0.0529
C11 C -0.1785(6) 0.0842(6) 0.1355(5)
H8 H -0.1960 0.1738 0.1594
C12 C -0.2090(8) -0.2760(7) -0.0811(5)
H9 H -0.2059 -0.2525 -0.1662
H10 H -0.1261 -0.3091 -0.0682
N1 N -0.3853(4) 0.2779(4) 0.5354(3)
N2 N -0.0983(4) 0.0395(4) 0.2129(3)
N3 N -0.1791(5) -0.1317(5) 0.0238(4)
O1 O -0.2053(3) 0.6289(3) 0.4263(3)
O2 O -0.1688(3) 0.5818(3) 0.6173(3)
O3 O -0.1787(3) 0.2383(3) 0.4667(3)
O4 O -0.1061(3) 0.0277(4) 0.5689(3)
O5 O -0.2812(4) -0.1079(4) 0.6759(3)
C13 C -0.3570(12) -0.4017(13) -0.0824(12)
C14 C -0.356(2) -0.4609(19) 0.0524(16)
C15 C -0.491(2) -0.395(2) -0.0645(17)
C9A C -0.9000(5) -0.9098(6) -0.1434(5)
H6A H -0.9479 -0.8533 -0.1734
C10A C -0.7705(7) -0.9797(7) -0.0184(5)
H7A H -0.7119 -0.9832 0.0529
C11A C -0.8215(6) -1.0842(6) -0.1355(5)
H8A H -0.8040 -1.1738 -0.1594
C12A C -0.7910(8) -0.7240(7) 0.0811(5)
H9A H -0.7941 -0.7475 0.1662
H10A H -0.8739 -0.6909 0.0682
N2A N -0.9017(4) -1.0395(4) -0.2129(3)
N3A N -0.8209(5) -0.8683(5) -0.0238(4)
C13A C -0.6430(12) -0.5983(13) 0.0824(12)
C14A C -0.644(2) -0.5391(19) -0.0524(16)
C15A C -0.509(2) -0.605(2) 0.0645(17)
Cd1A Cd -1.01910(3) -1.15891(3) -0.42000(3)
C1A C -0.7653(5) -1.5421(5) -0.5028(4)
C2A C -0.6385(5) -1.3790(5) -0.4473(4)
H1A H -0.5409 -1.3864 -0.4265
H2A H -0.6656 -1.3320 -0.3657
C3A C -0.4976(5) -1.2582(5) -0.6114(4)
H3A H -0.4353 -1.3120 -0.6079
C4A C -0.4698(5) -1.1628(5) -0.6913(4)
H4A H -0.3905 -1.1510 -0.7441
C5A C -0.5631(5) -1.0825(5) -0.6927(4)
H5A H -0.5435 -1.0147 -0.7465
C6A C -0.6822(4) -1.0985(4) -0.6186(4)
C7A C -0.7166(4) -1.2053(4) -0.5370(4)
C8A C -0.7693(5) -0.9994(5) -0.6228(4)
N1A N -0.6147(4) -1.2779(4) -0.5354(3)
O1A O -0.7947(3) -1.6289(3) -0.4263(3)
O2A O -0.8312(3) -1.5818(3) -0.6173(3)
O3A O -0.8213(3) -1.2383(3) -0.4667(3)
O4A O -0.8939(3) -1.0277(4) -0.5689(3)
O5A O -0.7188(4) -0.8921(4) -0.6759(3)
Cd1_2 Cd -0.98090(3) -1.84109(3) -0.58000(3)
Cd1_3 Cd -0.98090(3) -0.84109(3) -0.58000(3)
Cd1A_2 Cd -0.01910(3) -0.15891(3) 0.58000(3)
Cd1A_3 Cd -0.01910(3) 0.84109(3) 0.58000(3)
O1_2 O -1.2053(3) -1.3711(3) -0.5737(3)
O1A_2 O 0.2053(3) 0.3711(3) 0.5737(3)
O2_2 O -1.1688(3) -1.4182(3) -0.3827(3)
O2A_2 O 0.1688(3) 0.4182(3) 0.3827(3)
O4_2 O -1.1061(3) -0.9723(4) -0.4311(3)
O4A_2 O 0.1061(3) -0.0277(4) 0.4311(3)
C16? C -0.405(3) -0.436(2) -0.021(2)
loop_
_geom_bond_atom_site_label_1
_geom_bond_atom_site_label_2
_geom_bond_site_symmetry_1
_geom_bond_site_symmetry_2
Cd1 N2 1_555 1_555
C1 C2 1_555 1_555
C2 H1 1_555 1_555
H2 C2 1_555 1_555
C3 H3 1_555 1_555
C4 C3 1_555 1_555
H4 C4 1_555 1_555
C5 C4 1_555 1_555
H5 C5 1_555 1_555
C6 C5 1_555 1_555
C7 C6 1_555 1_555
C8 C6 1_555 1_555
C9 H6 1_555 1_555
C10 H7 1_555 1_555
C11 C10 1_555 1_555
H8 C11 1_555 1_555
C12 H9 1_555 1_555
H10 C12 1_555 1_555
N1 C2 1_555 1_555
N2 C9 1_555 1_555
N3 C9 1_555 1_555
O1 C1 1_555 1_555
O2 C1 1_555 1_555
O3 Cd1 1_555 1_555
O4 Cd1 1_555 1_555
O5 C8 1_555 1_555
C13 C12 1_555 1_555
C14 C13 1_555 1_555
C15 C13 1_555 1_555
O6 H11 1_555 1_555
H12 O6 1_555 1_555
C9A H6A 1_555 1_555
C10A H7A 1_555 1_555
C11A C10A 1_555 1_555
H8A C11A 1_555 1_555
C12A H9A 1_555 1_555
H10A C12A 1_555 1_555
N2A C9A 1_555 1_555
N3A C9A 1_555 1_555
C13A C12A 1_555 1_555
C14A C15 1_555 1_555
C15A C14 1_555 1_555
Cd1A N2A 1_555 1_555
C1A C2A 1_555 1_555
C2A H1A 1_555 1_555
H2A C2A 1_555 1_555
C3A H3A 1_555 1_555
C4A C3A 1_555 1_555
H4A C4A 1_555 1_555
C5A C4A 1_555 1_555
H5A C5A 1_555 1_555
C6A C5A 1_555 1_555
C7A C6A 1_555 1_555
C8A C6A 1_555 1_555
N1A C2A 1_555 1_555
O1A C1A 1_555 1_555
O2A C1A 1_555 1_555
O3A Cd1A 1_555 1_555
O4A Cd1A 1_555 1_555
O5A C8A 1_555 1_555
Cd1_2 O1A 1_555 1_555
Cd1_3 O4A 1_555 1_555
Cd1A_2 O4 1_555 1_555
Cd1A_3 O1 1_555 1_555
O1_2 Cd1A 1_555 1_555
O1A_2 Cd1 1_555 1_555
O2_2 Cd1A 1_555 1_555
O2A_2 Cd1 1_555 1_555
O4_2 Cd1A 1_555 1_555
O4A_2 Cd1 1_555 1_555
C3 N1 1_555 1_555
C7 N1 1_555 1_555
C7 O3 1_555 1_555
C8 O4 1_555 1_555
C10 N3 1_555 1_555
C11 N2 1_555 1_555
C12 N3 1_555 1_555
O2 Cd1A_3 1_555 1_555
C10A N3A 1_555 1_555
C11A N2A 1_555 1_555
C12A N3A 1_555 1_555
C13A C14A 1_555 1_555
C13A C15A 1_555 1_555
C3A N1A 1_555 1_555
C7A N1A 1_555 1_555
C7A O3A 1_555 1_555
C8A O4A 1_555 1_555
O2A Cd1_2 1_555 1_555
Cd1_3 O4_2 1_555 1_555
Cd1A_2 O4A_2 1_555 1_555

#END
