
#######################################################################
#
#                 Cambridge Crystallographic Data Centre
#                                CCDC 
#
#######################################################################
#
# If this CIF has been generated from an entry in the Cambridge 
# Structural Database, then it will include bibliographic, chemical, 
# crystal, experimental, refinement or atomic coordinate data resulting 
# from the CCDC's data processing and validation procedures.
#
#######################################################################

data_XIDJAX
_symmetry_cell_setting           monoclinic
_symmetry_space_group_name_H-M   'P 21/n'
_symmetry_Int_Tables_number      14
_space_group_name_Hall           '-P 2yn'
loop_
_symmetry_equiv_pos_site_id
_symmetry_equiv_pos_as_xyz
1 x,y,z
2 1/2-x,1/2+y,1/2-z
3 -x,-y,-z
4 1/2+x,1/2-y,1/2+z
_cell_length_a                   13.4730(4)
_cell_length_b                   9.1850(2)
_cell_length_c                   13.5230(3)
_cell_angle_alpha                90
_cell_angle_beta                 94.744(2)
_cell_angle_gamma                90
_cell_volume                     1667.73
loop_
_atom_site_label
_atom_site_type_symbol
_atom_site_fract_x
_atom_site_fract_y
_atom_site_fract_z
Co1 Co 0.68007(3) 0.04101(5) 0.27371(3)
C1 C 0.8641(3) 0.4183(5) 0.4374(3)
C2 C 0.9117(3) 0.2909(5) 0.4949(3)
H1 H 0.9662 0.3269 0.5397
H2 H 0.8629 0.2478 0.5349
C3 C 1.0487(3) 0.1739(5) 0.4188(3)
H3 H 1.0910 0.2441 0.4486
C4 C 1.0866(3) 0.0685(5) 0.3633(3)
H4 H 1.1539 0.0675 0.3524
C5 C 1.0221(3) -0.0389(5) 0.3229(3)
H5 H 1.0482 -0.1155 0.2882
C6 C 0.9219(3) -0.0351(4) 0.3324(3)
C7 C 0.8805(3) 0.0864(4) 0.3828(3)
C8 C 0.8569(3) -0.1578(4) 0.2935(3)
C9 C 0.5830(3) -0.1327(4) 0.4448(3)
C10 C 0.4279(3) -0.1808(4) 0.3877(3)
C11 C 0.4710(3) -0.0826(4) 0.3254(3)
C12 C 0.6759(3) -0.1359(5) 0.5117(3)
H6 H 0.6677 -0.2010 0.5659
H7 H 0.6902 -0.0398 0.5370
H8 H 0.7300 -0.1688 0.4755
C13 C 0.3311(3) -0.2324(5) 0.3690(3)
H9 H 0.3037 -0.2992 0.4107
C14 C 0.2779(3) -0.1788(5) 0.2851(3)
H10 H 0.2131 -0.2112 0.2694
C15 C 0.3183(3) -0.0785(5) 0.2238(3)
H11 H 0.2796 -0.0438 0.1688
C16 C 0.4153(3) -0.0277(5) 0.2421(3)
H12 H 0.4420 0.0399 0.2005
C17 C 0.4866(3) -0.3021(4) 0.5510(3)
H13 H 0.4161 -0.3072 0.5604
H14 H 0.5198 -0.2563 0.6093
C18 C 0.5268(3) -0.4563(4) 0.5422(3)
H15 H 0.5206 -0.5072 0.6042
H16 H 0.5971 -0.4512 0.5317
N1 N 0.9493(2) 0.1789(4) 0.4319(2)
N2 N 0.5689(2) -0.0542(3) 0.3630(2)
N3 N 0.5005(2) -0.2108(3) 0.4639(2)
O1 O 0.8072(4) 0.4936(5) 0.4811(3)
O2 O 0.8900(2) 0.4353(4) 0.3510(2)
O3 O 0.8042(3) 0.0906(4) 0.1726(3)
O4 O 0.78962(19) 0.1146(3) 0.3885(2)
O5 O 0.7648(2) -0.1497(3) 0.2964(2)
O6 O 0.8987(2) -0.2683(3) 0.2617(2)
H17 H 0.759(3) 0.061(6) 0.121(3)
H18 H 0.798(4) 0.1905(14) 0.175(4)
C9B C 0.4170(3) -0.8673(4) 0.5552(3)
C10B C 0.5721(3) -0.8192(4) 0.6123(3)
C11B C 0.5290(3) -0.9174(4) 0.6746(3)
C12B C 0.3241(3) -0.8641(5) 0.4883(3)
H6B H 0.3323 -0.7990 0.4341
H7B H 0.3098 -0.9602 0.4630
H8B H 0.2700 -0.8312 0.5245
C13B C 0.6689(3) -0.7676(5) 0.6310(3)
H9B H 0.6963 -0.7008 0.5893
C14B C 0.7221(3) -0.8212(5) 0.7149(3)
H10B H 0.7869 -0.7888 0.7306
C15B C 0.6817(3) -0.9215(5) 0.7762(3)
H11B H 0.7204 -0.9562 0.8312
C16B C 0.5847(3) -0.9723(5) 0.7579(3)
H12B H 0.5580 -1.0399 0.7995
C17B C 0.5134(3) -0.6979(4) 0.4490(3)
H13B H 0.5839 -0.6928 0.4396
H14B H 0.4802 -0.7437 0.3907
C18B C 0.4732(3) -0.5437(4) 0.4578(3)
H15B H 0.4794 -0.4928 0.3958
H16B H 0.4029 -0.5488 0.4683
N2B N 0.4311(2) -0.9458(3) 0.6370(2)
N3B N 0.4995(2) -0.7892(3) 0.5361(2)
Co1B Co 0.31993(3) -1.04101(5) 0.72629(3)
C1B C 0.1359(3) -1.4183(5) 0.5626(3)
C2B C 0.0883(3) -1.2909(5) 0.5051(3)
H1B H 0.0338 -1.3269 0.4603
H2B H 0.1371 -1.2478 0.4651
C3B C -0.0487(3) -1.1739(5) 0.5812(3)
H3B H -0.0910 -1.2441 0.5514
C4B C -0.0866(3) -1.0685(5) 0.6367(3)
H4B H -0.1539 -1.0675 0.6476
C5B C -0.0221(3) -0.9611(5) 0.6771(3)
H5B H -0.0482 -0.8845 0.7118
C6B C 0.0781(3) -0.9649(4) 0.6676(3)
C7B C 0.1195(3) -1.0864(4) 0.6172(3)
C8B C 0.1431(3) -0.8422(4) 0.7065(3)
N1B N 0.0507(2) -1.1789(4) 0.5681(2)
O1B O 0.1928(4) -1.4936(5) 0.5189(3)
O2B O 0.1100(2) -1.4353(4) 0.6490(2)
O3B O 0.1958(3) -1.0906(4) 0.8274(3)
O4B O 0.21038(19) -1.1146(3) 0.6115(2)
O5B O 0.2352(2) -0.8503(3) 0.7036(2)
O6B O 0.1013(2) -0.7317(3) 0.7383(2)
H17B H 0.241(3) -1.061(6) 0.879(3)
H18B H 0.202(4) -1.1905(14) 0.825(4)
Co1A Co 0.81993(3) -0.45899(5) 0.22629(3)
Co1A_2 Co 0.81993(3) 0.54101(5) 0.22629(3)
Co1C Co 0.18007(3) -1.54101(5) 0.77371(3)
Co1C_2 Co 0.18007(3) -0.54101(5) 0.77371(3)
O2A O 0.6100(2) -0.0647(4) 0.1490(2)
O2C O 0.3900(2) -0.9353(4) 0.8510(2)
O6A O 0.6013(2) 0.2317(3) 0.2383(2)
O6C O 0.3987(2) -1.2317(3) 0.7617(2)
loop_
_geom_bond_atom_site_label_1
_geom_bond_atom_site_label_2
_geom_bond_site_symmetry_1
_geom_bond_site_symmetry_2
Co1 N2 1_555 1_555
C1 C2 1_555 1_555
C2 H1 1_555 1_555
H2 C2 1_555 1_555
C3 H3 1_555 1_555
C4 C3 1_555 1_555
H4 C4 1_555 1_555
C5 C4 1_555 1_555
H5 C5 1_555 1_555
C6 C5 1_555 1_555
C7 C6 1_555 1_555
C8 C6 1_555 1_555
C9 C12 1_555 1_555
C10 C11 1_555 1_555
C11 C16 1_555 1_555
C12 H6 1_555 1_555
H7 C12 1_555 1_555
H8 C12 1_555 1_555
C13 C10 1_555 1_555
H9 C13 1_555 1_555
C14 C13 1_555 1_555
H10 C14 1_555 1_555
C15 C14 1_555 1_555
H11 C15 1_555 1_555
C16 C15 1_555 1_555
H12 C16 1_555 1_555
C17 H13 1_555 1_555
H14 C17 1_555 1_555
C18 C17 1_555 1_555
H15 C18 1_555 1_555
H16 C18 1_555 1_555
N1 C2 1_555 1_555
N2 C9 1_555 1_555
N3 C9 1_555 1_555
O1 C1 1_555 1_555
O2 C1 1_555 1_555
O3 Co1 1_555 1_555
O4 Co1 1_555 1_555
O5 Co1 1_555 1_555
O6 C8 1_555 1_555
H17 O3 1_555 1_555
H18 O3 1_555 1_555
C9B C12B 1_555 1_555
C10B C11B 1_555 1_555
C11B C16B 1_555 1_555
C12B H6B 1_555 1_555
H7B C12B 1_555 1_555
H8B C12B 1_555 1_555
C13B C10B 1_555 1_555
H9B C13B 1_555 1_555
C14B C13B 1_555 1_555
H10B C14B 1_555 1_555
C15B C14B 1_555 1_555
H11B C15B 1_555 1_555
C16B C15B 1_555 1_555
H12B C16B 1_555 1_555
C17B H13B 1_555 1_555
H14B C17B 1_555 1_555
C18B C18 1_555 1_555
H15B C18B 1_555 1_555
H16B C18B 1_555 1_555
N2B C9B 1_555 1_555
N3B C9B 1_555 1_555
Co1B N2B 1_555 1_555
C1B C2B 1_555 1_555
C2B H1B 1_555 1_555
H2B C2B 1_555 1_555
C3B H3B 1_555 1_555
C4B C3B 1_555 1_555
H4B C4B 1_555 1_555
C5B C4B 1_555 1_555
H5B C5B 1_555 1_555
C6B C5B 1_555 1_555
C7B C6B 1_555 1_555
C8B C6B 1_555 1_555
N1B C2B 1_555 1_555
O1B C1B 1_555 1_555
O2B C1B 1_555 1_555
O3B Co1B 1_555 1_555
O4B Co1B 1_555 1_555
O5B Co1B 1_555 1_555
O6B C8B 1_555 1_555
H17B O3B 1_555 1_555
H18B O3B 1_555 1_555
Co1A O6 1_555 1_555
Co1A_2 O2 1_555 1_555
Co1C O2B 1_555 1_555
Co1C_2 O6B 1_555 1_555
O2A Co1 1_555 1_555
O2C Co1B 1_555 1_555
O6A Co1 1_555 1_555
O6C Co1B 1_555 1_555
C3 N1 1_555 1_555
C7 N1 1_555 1_555
C7 O4 1_555 1_555
C8 O5 1_555 1_555
C10 N3 1_555 1_555
C11 N2 1_555 1_555
C17 N3 1_555 1_555
C10B N3B 1_555 1_555
C11B N2B 1_555 1_555
C17B C18B 1_555 1_555
C17B N3B 1_555 1_555
C3B N1B 1_555 1_555
C7B N1B 1_555 1_555
C7B O4B 1_555 1_555
C8B O5B 1_555 1_555

#END
