
#######################################################################
#
#                 Cambridge Crystallographic Data Centre
#                                CCDC 
#
#######################################################################
#
# If this CIF has been generated from an entry in the Cambridge 
# Structural Database, then it will include bibliographic, chemical, 
# crystal, experimental, refinement or atomic coordinate data resulting 
# from the CCDC's data processing and validation procedures.
#
#######################################################################

data_XIDKOM
_symmetry_cell_setting           triclinic
_symmetry_space_group_name_H-M   'P -1'
_symmetry_Int_Tables_number      2
_space_group_name_Hall           '-P 1'
loop_
_symmetry_equiv_pos_site_id
_symmetry_equiv_pos_as_xyz
1 x,y,z
2 -x,-y,-z
_cell_length_a                   4.6475(4)
_cell_length_b                   9.6512(7)
_cell_length_c                   10.1539(8)
_cell_angle_alpha                81.228(6)
_cell_angle_beta                 80.549(7)
_cell_angle_gamma                76.106(7)
_cell_volume                     433.065
loop_
_atom_site_label
_atom_site_type_symbol
_atom_site_fract_x
_atom_site_fract_y
_atom_site_fract_z
Pb1 Pb 0.65304(10) -0.34076(5) 0.91601(6)
C1 C 0.903(3) -0.1002(16) 0.8019(16)
C2 C 1.018(3) 0.0351(17) 0.7726(17)
H1 H 1.0359 0.0665 0.8565
H2 H 1.2148 0.0159 0.7208
C3 C 0.870(3) 0.1701(14) 0.561(2)
H3 H 1.0440 0.1184 0.5162
C4 C 0.672(3) 0.2641(15) 0.4884(17)
H4 H 0.7013 0.2746 0.3949
C5 C 0.418(3) 0.3457(15) 0.5606(17)
H5 H 0.2761 0.4090 0.5126
C6 C 0.371(3) 0.3356(14) 0.6976(18)
C7 C 0.568(3) 0.2275(13) 0.7717(18)
C8 C 0.115(3) 0.4392(15) 0.7649(17)
N1 N 0.819(2) 0.1496(11) 0.6976(14)
O1 O 1.0223(18) -0.1993(10) 0.8869(13)
O2 O 0.695(2) -0.1117(10) 0.7440(13)
O3 O 0.535(2) 0.1932(11) 0.8947(12)
O4 O 0.129(2) 0.4662(12) 0.8784(12)
O5 O -0.099(2) 0.5027(12) 0.7008(12)
Pb1_2 Pb -0.34696(10) 0.65924(5) 0.91601(6)
Pb1A Pb 0.34696(10) 0.34076(5) 1.08399(6)
O3A O 0.465(2) -0.1932(11) 1.1053(12)
O4_2 O 1.129(2) -0.5338(12) 0.8784(12)
O4A O 0.871(2) -0.4662(12) 1.1216(12)
loop_
_geom_bond_atom_site_label_1
_geom_bond_atom_site_label_2
_geom_bond_site_symmetry_1
_geom_bond_site_symmetry_2
Pb1 O1 1_555 1_555
C1 C2 1_555 1_555
C2 H1 1_555 1_555
H2 C2 1_555 1_555
C3 H3 1_555 1_555
C4 C3 1_555 1_555
H4 C4 1_555 1_555
C5 C4 1_555 1_555
H5 C5 1_555 1_555
C6 C5 1_555 1_555
C7 C6 1_555 1_555
C8 C6 1_555 1_555
N1 C2 1_555 1_555
O1 C1 1_555 1_555
O2 Pb1 1_555 1_555
O3 C7 1_555 1_555
O4 C8 1_555 1_555
O5 C8 1_555 1_555
Pb1_2 O4 1_555 1_555
Pb1A O3 1_555 1_555
O3A Pb1 1_555 1_555
O4_2 Pb1 1_555 1_555
O4A Pb1 1_555 1_555
C1 O2 1_555 1_555
C3 N1 1_555 1_555
C7 N1 1_555 1_555
O4 Pb1A 1_555 1_555

#END
