
#######################################################################
#
#                 Cambridge Crystallographic Data Centre
#                                CCDC 
#
#######################################################################
#
# If this CIF has been generated from an entry in the Cambridge 
# Structural Database, then it will include bibliographic, chemical, 
# crystal, experimental, refinement or atomic coordinate data resulting 
# from the CCDC's data processing and validation procedures.
#
#######################################################################

data_XIDNOP
_symmetry_cell_setting           triclinic
_symmetry_space_group_name_H-M   'P -1'
_symmetry_Int_Tables_number      2
_space_group_name_Hall           '-P 1'
loop_
_symmetry_equiv_pos_site_id
_symmetry_equiv_pos_as_xyz
1 x,y,z
2 -x,-y,-z
_cell_length_a                   9.9404(7)
_cell_length_b                   10.3755(7)
_cell_length_c                   15.5708(12)
_cell_angle_alpha                92.746(4)
_cell_angle_beta                 99.154(4)
_cell_angle_gamma                107.776(3)
_cell_volume                     1501.8
loop_
_atom_site_label
_atom_site_type_symbol
_atom_site_fract_x
_atom_site_fract_y
_atom_site_fract_z
C1 C 0.6207(4) 0.4647(3) 0.6172(2)
H1 H 0.7200 0.5001 0.6231
C2 C 0.5559(4) 0.3251(3) 0.6090(2)
C3 C 0.5401(4) 0.5528(3) 0.6168(2)
C4 C 0.4069(4) 0.2732(3) 0.5982(2)
H2 H 0.3620 0.1796 0.5923
C5 C 0.6174(4) 0.7035(3) 0.6260(2)
C6 C 0.6430(4) 0.2284(3) 0.6088(2)
C7 C 0.3913(4) 0.5007(3) 0.6062(2)
H3 H 0.3366 0.5592 0.6059
C8 C 0.3247(3) 0.3604(3) 0.5960(2)
C9 C 0.1649(4) 0.2994(4) 0.5802(2)
C10 C 0.6346(6) 0.7380(5) -0.1398(3)
H4 H 0.6112 0.7677 -0.1939
C11 C 0.7012(4) 0.6408(4) 0.0212(2)
C12 C 0.7357(6) 0.6696(5) -0.1279(3)
H5 H 0.7806 0.6559 -0.1740
C13 C 0.8387(5) 0.5204(4) 0.1255(2)
C14 C 0.6015(5) 0.7140(4) 0.0092(2)
C15 C 0.4482(5) 0.8352(5) 0.0731(3)
C16 C 0.7304(4) 0.5926(4) 0.1054(2)
C17 C 0.5352(5) 0.7393(4) 0.0793(3)
C18 C 0.9359(4) 0.3322(4) 0.3708(2)
H6 H 1.0114 0.3998 0.4059
C19 C 0.7698(5) 0.6226(4) -0.0502(3)
H7 H 0.8385 0.5782 -0.0434
C20 C 0.0131(5) 0.9058(4) 0.0919(3)
H8 H -0.0449 0.8846 0.0368
C21 C 0.9118(4) 0.3416(4) 0.2821(3)
C22 C 0.7456(5) 0.1343(4) 0.3586(3)
H9 H 0.6876 0.0649 0.3847
C23 C 0.1502(5) 0.8979(4) 0.1031(3)
C24 C 0.0509(5) 0.9790(5) 0.2431(3)
H10 H 0.0176 1.0085 0.2905
C25 C 0.2137(6) 0.8654(6) 0.0263(3)
C26 C 0.9983(5) 0.4628(5) 0.2435(3)
C27 C 0.2318(5) 0.9308(4) 0.1865(3)
H11 H 0.3244 0.9248 0.1948
C28 C 0.6555(5) 0.6119(5) 0.1684(3)
H12 H 0.6692 0.5748 0.2210
C29 C 0.5593(5) 0.6855(5) 0.1564(3)
H13 H 0.5112 0.6981 0.2010
C30 C 0.7161(6) 0.1353(5) 0.2693(3)
H14 H 0.6406 0.0664 0.2352
C31 C 0.7993(5) 0.2390(5) 0.2318(3)
H15 H 0.7801 0.2409 0.1715
C32 C -0.0385(5) 0.9453(5) 0.1627(3)
H16 H -0.1318 0.9490 0.1561
C33 C 0.5698(5) 0.7619(4) -0.0731(3)
H17 H 0.5043 0.8098 -0.0813
H18 H 0.147(5) 0.820(5) -0.016(3)
H19 H 0.269(6) 0.948(6) 0.005(4)
H20 H 0.277(5) 0.702(5) 0.028(3)
H21 H 1.036(5) 0.425(5) 0.194(3)
H22 H 1.078(6) 0.522(5) 0.282(3)
H23 H 0.893(4) 0.593(4) 0.242(3)
N1 N 0.8561(3) 0.2308(3) 0.4092(2)
N2 N 0.9111(4) 0.5440(4) 0.2080(2)
N3 N 0.3074(4) 0.7818(4) 0.0443(3)
N4 N 0.1850(4) 0.9707(3) 0.2554(2)
O1 O 0.7713(3) 0.2792(2) 0.59919(18)
O2 O 0.5823(3) 0.1073(2) 0.61895(19)
O3 O 0.7971(3) 0.0129(3) 0.53838(19)
O4 O 0.7496(3) 0.7448(3) 0.6401(2)
O5 O 0.5409(3) 0.7831(2) 0.61922(18)
O6 O 0.8617(4) 0.4434(3) 0.07143(18)
O7 O 0.1081(3) 0.1779(3) 0.5527(2)
O8 O 0.0875(3) 0.3692(3) 0.5956(2)
O9 O 0.5082(4) 0.9562(3) 0.0961(2)
Zn1 Zn 0.89794(4) 0.20244(4) 0.53801(3)
Zn2 Zn 0.68242(4) -0.03566(4) 0.62461(3)
H24 H 0.821(5) -0.035(4) 0.527(3)
N4A N 0.8150(4) 0.0293(3) 0.7446(2)
O4_2 O 0.7496(3) -0.2552(3) 0.6401(2)
O5_2 O 0.5409(3) -0.2169(2) 0.61922(18)
O7_2 O 1.1081(3) 0.1779(3) 0.5527(2)
O8_2 O 1.0875(3) 0.3692(3) 0.5956(2)
Zn1_2 Zn -0.10206(4) 0.20244(4) 0.53801(3)
Zn2_2 Zn 0.68242(4) 0.96434(4) 0.62461(3)
Zn2A Zn 0.31758(4) 1.03566(4) 0.37539(3)
loop_
_geom_bond_atom_site_label_1
_geom_bond_atom_site_label_2
_geom_bond_site_symmetry_1
_geom_bond_site_symmetry_2
C1 H1 1_555 1_555
C2 C1 1_555 1_555
C3 C1 1_555 1_555
C4 C2 1_555 1_555
H2 C4 1_555 1_555
C5 C3 1_555 1_555
C6 C2 1_555 1_555
C7 C3 1_555 1_555
H3 C7 1_555 1_555
C8 C4 1_555 1_555
C9 C8 1_555 1_555
C10 H4 1_555 1_555
C11 C14 1_555 1_555
C12 C10 1_555 1_555
H5 C12 1_555 1_555
C13 C16 1_555 1_555
C14 C17 1_555 1_555
C15 C17 1_555 1_555
C16 C11 1_555 1_555
C17 C29 1_555 1_555
C18 H6 1_555 1_555
C19 C11 1_555 1_555
H7 C19 1_555 1_555
C20 H8 1_555 1_555
C21 C18 1_555 1_555
C22 H9 1_555 1_555
C23 C20 1_555 1_555
C24 H10 1_555 1_555
C25 C23 1_555 1_555
C26 C21 1_555 1_555
C27 C23 1_555 1_555
H11 C27 1_555 1_555
C28 C16 1_555 1_555
H12 C28 1_555 1_555
C29 C28 1_555 1_555
H13 C29 1_555 1_555
C30 C22 1_555 1_555
H14 C30 1_555 1_555
C31 C21 1_555 1_555
H15 C31 1_555 1_555
C32 C20 1_555 1_555
H16 C32 1_555 1_555
C33 C10 1_555 1_555
H17 C33 1_555 1_555
H18 C25 1_555 1_555
H19 C25 1_555 1_555
H20 N3 1_555 1_555
H21 C26 1_555 1_555
H22 C26 1_555 1_555
H23 N2 1_555 1_555
N1 C18 1_555 1_555
N2 C13 1_555 1_555
N3 C15 1_555 1_555
N4 C24 1_555 1_555
O1 C6 1_555 1_555
O2 C6 1_555 1_555
O3 Zn1 1_555 1_555
O4 C5 1_555 1_555
O5 C5 1_555 1_555
O6 C13 1_555 1_555
O7 C9 1_555 1_555
O8 C9 1_555 1_555
O9 C15 1_555 1_555
Zn1 N1 1_555 1_555
Zn2 O2 1_555 1_555
H24 O3 1_555 1_555
N4A Zn2 1_555 1_555
O4_2 Zn2 1_555 1_555
O5_2 Zn2 1_555 1_555
O7_2 Zn1 1_555 1_555
O8_2 Zn1 1_555 1_555
Zn1_2 O7 1_555 1_555
Zn2_2 O4 1_555 1_555
Zn2A N4 1_555 1_555
C7 C8 1_555 1_555
C12 C19 1_555 1_555
C14 C33 1_555 1_555
C22 N1 1_555 1_555
C24 C32 1_555 1_555
C25 N3 1_555 1_555
C26 N2 1_555 1_555
C27 N4 1_555 1_555
C30 C31 1_555 1_555
O1 Zn1 1_555 1_555
O3 Zn2 1_555 1_555
O5 Zn2_2 1_555 1_555
O8 Zn1_2 1_555 1_555

#END
