
#######################################################################
#
#                 Cambridge Crystallographic Data Centre
#                                CCDC 
#
#######################################################################
#
# If this CIF has been generated from an entry in the Cambridge 
# Structural Database, then it will include bibliographic, chemical, 
# crystal, experimental, refinement or atomic coordinate data resulting 
# from the CCDC's data processing and validation procedures.
#
#######################################################################

data_XIDRAF
_symmetry_cell_setting           triclinic
_symmetry_space_group_name_H-M   'P -1'
_symmetry_Int_Tables_number      2
_space_group_name_Hall           '-P 1'
loop_
_symmetry_equiv_pos_site_id
_symmetry_equiv_pos_as_xyz
1 x,y,z
2 -x,-y,-z
_cell_length_a                   8.506(7)
_cell_length_b                   10.573(9)
_cell_length_c                   20.792(18)
_cell_angle_alpha                78.711(15)
_cell_angle_beta                 79.649(15)
_cell_angle_gamma                88.877(15)
_cell_volume                     1803.65
loop_
_atom_site_label
_atom_site_type_symbol
_atom_site_fract_x
_atom_site_fract_y
_atom_site_fract_z
Cd1 Cd 0.85128(6) 0.01841(5) 0.44035(2)
Cd2 Cd 1.84190(6) 0.58868(5) -0.04524(2)
O1 O 0.9045(6) 0.0732(5) 0.5449(3)
O2 O 1.2837(6) 0.6107(5) 0.2722(3)
O3 O 1.8052(6) 0.8221(5) -0.0828(2)
O4 O 1.2769(7) 0.6105(5) 0.0438(3)
O5 O 1.6554(6) 0.6834(4) -0.1114(2)
O6 O 0.3340(6) -0.0554(5) 0.6347(2)
O7 O 1.0719(6) 0.6273(5) -0.0039(3)
O8 O 0.3560(8) -0.5310(6) 0.6561(3)
O9 O 0.6989(7) 0.1533(6) 0.5027(3)
O10 O 0.1372(6) 0.0758(5) 0.6596(2)
N1 N 1.7050(7) 0.6328(6) 0.0546(3)
N2 N 1.3944(7) 0.4949(6) 0.1953(3)
H1 H 1.3864 0.4215 0.1821
N3 N 1.0102(6) 0.1910(6) 0.3731(3)
N4 N 0.7363(7) -0.1799(6) 0.4949(3)
N5 N 0.4297(7) -0.3175(6) 0.6370(3)
H2 H 0.4067 -0.2446 0.6507
N6 N 0.0246(7) -0.4121(6) 0.8558(3)
C1 C 1.7454(9) 0.7403(7) 0.0725(3)
H3 H 1.8269 0.7947 0.0436
C2 C 1.6742(9) 0.7762(7) 0.1311(4)
H4 H 1.7073 0.8529 0.1425
C3 C 1.5524(10) 0.6976(7) 0.1734(3)
H5 H 1.5001 0.7203 0.2138
C4 C 1.5104(8) 0.5867(7) 0.1550(3)
C5 C 1.2957(8) 0.5102(7) 0.2519(3)
C6 C 1.0928(9) 0.4120(8) 0.3489(4)
H6 H 1.0849 0.4943 0.3609
C7 C 1.1978(8) 0.3928(7) 0.2909(3)
C8 C 1.2074(9) 0.2725(7) 0.2761(3)
H7 H 1.2781 0.2563 0.2378
C9 C 1.0021(9) 0.3088(7) 0.3877(4)
H8 H 0.9307 0.3220 0.4264
C10 C 1.1118(9) 0.1740(8) 0.3181(4)
H9 H 1.1187 0.0905 0.3075
C11 C 1.5884(8) 0.5557(7) 0.0947(3)
H10 H 1.5584 0.4792 0.0820
C12 C 0.6197(8) -0.1940(7) 0.5484(3)
H11 H 0.5830 -0.1197 0.5656
C13 C 0.5496(8) -0.3137(7) 0.5800(3)
C14 C 0.6018(9) -0.4218(7) 0.5540(3)
H12 H 0.5567 -0.5047 0.5741
C15 C 0.7882(9) -0.2823(7) 0.4689(4)
H13 H 0.8704 -0.2718 0.4307
C16 C 0.7218(9) -0.4057(7) 0.4978(4)
H14 H 0.7590 -0.4780 0.4789
C17 C 0.3462(9) -0.4261(8) 0.6726(4)
C18 C 1.6870(9) 0.7981(7) -0.1077(4)
C19 C 1.5776(8) 0.9056(7) -0.1320(4)
H15 H 1.5895 0.9195 -0.1812
H16 H 1.6075 0.9868 -0.1201
C20 C 1.4024(8) 0.8688(7) -0.0998(3)
H17 H 1.3310 0.9272 -0.1241
H18 H 1.3805 0.7799 -0.1047
C21 C 1.3626(10) 0.8758(7) -0.0259(3)
H19 H 1.4409 0.8249 -0.0020
H20 H 1.3715 0.9665 -0.0210
C22 C 1.1949(9) 0.8244(7) 0.0055(4)
H21 H 1.1638 0.8498 0.0493
H22 H 1.1190 0.8641 -0.0233
C23 C 1.1825(8) 0.6790(7) 0.0149(3)
C24 C 0.7867(8) 0.1441(7) 0.5461(3)
C25 C 0.7467(8) 0.2223(7) 0.6002(4)
H23 H 0.7710 0.3143 0.5804
H24 H 0.8159 0.1949 0.6338
C26 C 0.5705(10) 0.2085(7) 0.6354(4)
H25 H 0.5017 0.2064 0.6019
H26 H 0.5412 0.2849 0.6557
C27 C 0.5378(8) 0.0858(7) 0.6901(3)
H27 H 0.5796 0.0100 0.6714
H28 H 0.5945 0.0929 0.7269
C28 C 0.3592(9) 0.0663(8) 0.7172(4)
H29 H 0.3430 -0.0009 0.7584
H30 H 0.3140 0.1476 0.7289
C29 C 0.2715(9) 0.0263(7) 0.6669(3)
C30 C 0.0360(8) -0.5157(8) 0.8272(4)
H31 H -0.0303 -0.5888 0.8482
C31 C 0.1407(9) -0.5209(7) 0.7682(3)
H32 H 0.1477 -0.5967 0.7498
C32 C 0.2353(8) -0.4120(7) 0.7368(3)
C33 C 0.1138(8) -0.3071(8) 0.8250(4)
H33 H 0.1029 -0.2320 0.8441
C34 C 0.2224(9) -0.3047(7) 0.7656(3)
H34 H 0.2865 -0.2300 0.7454
Cd1A Cd 0.14872(6) -0.01841(5) 0.55965(2)
Cd1A_2 Cd 1.14872(6) -0.01841(5) 0.55965(2)
Cd2_2 Cd -0.15810(6) -0.41132(5) 0.95476(2)
Cd2_3 Cd 0.84190(6) 0.58868(5) -0.04524(2)
Cd2A Cd 1.15810(6) 0.41132(5) 0.04524(2)
O1A O 1.0955(6) -0.0732(5) 0.4551(3)
O4A O 1.7231(7) 0.3895(5) -0.0438(3)
O6A O 0.6660(6) 0.0554(5) 0.3653(2)
O7_2 O 2.0719(6) 0.6273(5) -0.0039(3)
O7A O 1.9281(6) 0.3727(5) 0.0039(3)
O10A O 0.8628(6) -0.0758(5) 0.3404(2)
N6_2 N 2.0246(7) 0.5879(6) -0.1442(3)
O11 O 2.0391(7) 1.0178(6) -0.1372(3)
H35 H 1.992(9) 1.071(6) -0.164(4)
H36 H 1.974(8) 0.952(5) -0.125(4)
O12 O 1.0366(9) 0.8013(7) 0.2454(3)
H37 H 1.1086 0.7465 0.2532
H38 H 1.017(10) 0.848(7) 0.275(3)
loop_
_geom_bond_atom_site_label_1
_geom_bond_atom_site_label_2
_geom_bond_site_symmetry_1
_geom_bond_site_symmetry_2
Cd1 O1 1_555 1_555
Cd2 O3 1_555 1_555
O1 C24 1_555 1_555
O2 C5 1_555 1_555
O3 C18 1_555 1_555
O4 C23 1_555 1_555
O5 Cd2 1_555 1_555
O6 C29 1_555 1_555
O7 C23 1_555 1_555
O8 C17 1_555 1_555
O9 Cd1 1_555 1_555
O10 C29 1_555 1_555
N1 Cd2 1_555 1_555
N2 H1 1_555 1_555
N3 Cd1 1_555 1_555
N4 Cd1 1_555 1_555
N5 H2 1_555 1_555
N6 C30 1_555 1_555
C1 N1 1_555 1_555
H3 C1 1_555 1_555
C2 C1 1_555 1_555
H4 C2 1_555 1_555
C3 C2 1_555 1_555
H5 C3 1_555 1_555
C4 N2 1_555 1_555
C5 N2 1_555 1_555
C6 H6 1_555 1_555
C7 C5 1_555 1_555
C8 C7 1_555 1_555
H7 C8 1_555 1_555
C9 N3 1_555 1_555
H8 C9 1_555 1_555
C10 N3 1_555 1_555
H9 C10 1_555 1_555
C11 N1 1_555 1_555
H10 C11 1_555 1_555
C12 N4 1_555 1_555
H11 C12 1_555 1_555
C13 N5 1_555 1_555
C14 C13 1_555 1_555
H12 C14 1_555 1_555
C15 N4 1_555 1_555
H13 C15 1_555 1_555
C16 C14 1_555 1_555
H14 C16 1_555 1_555
C17 N5 1_555 1_555
C18 O5 1_555 1_555
C19 C18 1_555 1_555
H15 C19 1_555 1_555
H16 C19 1_555 1_555
C20 C19 1_555 1_555
H17 C20 1_555 1_555
H18 C20 1_555 1_555
C21 C20 1_555 1_555
H19 C21 1_555 1_555
H20 C21 1_555 1_555
C22 C21 1_555 1_555
H21 C22 1_555 1_555
H22 C22 1_555 1_555
C23 C22 1_555 1_555
C24 O9 1_555 1_555
C25 C24 1_555 1_555
H23 C25 1_555 1_555
H24 C25 1_555 1_555
C26 C25 1_555 1_555
H25 C26 1_555 1_555
H26 C26 1_555 1_555
C27 C26 1_555 1_555
H27 C27 1_555 1_555
H28 C27 1_555 1_555
C28 C27 1_555 1_555
H29 C28 1_555 1_555
H30 C28 1_555 1_555
C29 C28 1_555 1_555
C30 H31 1_555 1_555
C31 C30 1_555 1_555
H32 C31 1_555 1_555
C32 C17 1_555 1_555
C33 N6 1_555 1_555
H33 C33 1_555 1_555
C34 C32 1_555 1_555
H34 C34 1_555 1_555
O11 H35 1_555 1_555
H36 O11 1_555 1_555
O12 H37 1_555 1_555
H38 O12 1_555 1_555
Cd1A O6 1_555 1_555
Cd1A_2 O1 1_555 1_555
Cd2_2 N6 1_555 1_555
Cd2_3 O7 1_555 1_555
Cd2A O4 1_555 1_555
O1A Cd1 1_555 1_555
O4A Cd2 1_555 1_555
O6A Cd1 1_555 1_555
O7_2 Cd2 1_555 1_555
O7A Cd2 1_555 1_555
O10A Cd1 1_555 1_555
N6_2 Cd2 1_555 1_555
O7 Cd2A 1_555 1_555
O10 Cd1A 1_555 1_555
C3 C4 1_555 1_555
C4 C11 1_555 1_555
C6 C7 1_555 1_555
C6 C9 1_555 1_555
C8 C10 1_555 1_555
C12 C13 1_555 1_555
C15 C16 1_555 1_555
C31 C32 1_555 1_555
C33 C34 1_555 1_555
Cd1A_2 O1A 1_555 1_555

#END
