
#######################################################################
#
#                 Cambridge Crystallographic Data Centre
#                                CCDC 
#
#######################################################################
#
# If this CIF has been generated from an entry in the Cambridge 
# Structural Database, then it will include bibliographic, chemical, 
# crystal, experimental, refinement or atomic coordinate data resulting 
# from the CCDC's data processing and validation procedures.
#
#######################################################################

data_XIDYEQ
_symmetry_cell_setting           orthorhombic
_symmetry_space_group_name_H-M   'P b c a'
_symmetry_Int_Tables_number      61
_space_group_name_Hall           '-P 2ac 2ab'
loop_
_symmetry_equiv_pos_site_id
_symmetry_equiv_pos_as_xyz
1 x,y,z
2 1/2-x,-y,1/2+z
3 1/2+x,1/2-y,-z
4 -x,1/2+y,1/2-z
5 -x,-y,-z
6 1/2+x,y,1/2-z
7 1/2-x,1/2+y,z
8 x,1/2-y,1/2+z
_cell_length_a                   14.031(3)
_cell_length_b                   10.826(2)
_cell_length_c                   27.343(6)
_cell_angle_alpha                90
_cell_angle_beta                 90
_cell_angle_gamma                90
_cell_volume                     4153.39
loop_
_atom_site_label
_atom_site_type_symbol
_atom_site_fract_x
_atom_site_fract_y
_atom_site_fract_z
Zn1 Zn 0.12640(4) 0.79611(6) 0.41249(2)
N1 N 0.1289(3) 0.7028(4) 0.47947(17)
N2 N 0.1173(3) 0.9416(4) 0.46283(17)
O1 O -0.7765(3) 0.7185(4) 0.36658(15)
O2 O -0.7220(4) 0.8823(5) 0.40108(19)
O3 O -0.0082(3) 0.6916(4) 0.39270(15)
O4 O 0.0300(3) 0.8711(4) 0.36184(14)
C1 C -0.7122(4) 0.7990(6) 0.3709(2)
C2 C -0.6256(3) 0.7937(5) 0.33993(19)
C3 C -0.6026(4) 0.6878(5) 0.3141(2)
H1 H -0.6426 0.6173 0.3168
C4 C -0.5216(4) 0.6825(5) 0.28431(19)
H2 H -0.5075 0.6096 0.2664
C5 C -0.4626(3) 0.7841(4) 0.28110(17)
C6 C -0.4865(4) 0.8919(4) 0.30615(18)
H3 H -0.4474 0.9632 0.3030
C7 C -0.5669(4) 0.8960(5) 0.33566(18)
H4 H -0.5818 0.9694 0.3531
C8 C -0.3741(3) 0.7775(5) 0.24935(19)
C9 C -0.2838(3) 0.7854(4) 0.28083(17)
C10 C -0.2662(4) 0.6921(4) 0.31437(19)
H5 H -0.3120 0.6285 0.3188
C11 C -0.1836(4) 0.6901(4) 0.34134(19)
H6 H -0.1727 0.6246 0.3638
C12 C -0.1158(3) 0.7830(4) 0.33612(19)
C13 C -0.1342(4) 0.8764(5) 0.3035(2)
H7 H -0.0894 0.9417 0.3001
C14 C -0.2161(3) 0.8780(4) 0.27547(17)
H8 H -0.2262 0.9426 0.2525
C15 C -0.0261(4) 0.7806(5) 0.3652(2)
C16 C 0.1263(4) 0.5787(6) 0.4840(2)
H9 H 0.1335 0.5292 0.4556
C17 C 0.1138(4) 0.5220(7) 0.5279(3)
H10 H 0.1129 0.4345 0.5303
C18 C 0.1025(5) 0.5941(7) 0.5685(3)
H11 H 0.0924 0.5571 0.5996
C19 C 0.1059(4) 0.7206(7) 0.5641(2)
H12 H 0.0987 0.7710 0.5923
C20 C 0.1196(3) 0.7743(6) 0.5193(2)
C21 C 0.1228(3) 0.9097(5) 0.5103(2)
C22 C 0.1330(4) 0.9988(7) 0.5458(2)
H13 H 0.1370 0.9756 0.5792
C23 C 0.1375(4) 1.1207(7) 0.5329(3)
H14 H 0.1450 1.1822 0.5574
C24 C 0.1310(4) 1.1541(7) 0.4848(3)
H15 H 0.1331 1.2382 0.4750
C25 C 0.1212(4) 1.0610(6) 0.4513(2)
H16 H 0.1170 1.0829 0.4177
O5 O -0.3758(3) 0.6662(5) 0.22157(18)
H17 H -0.3471 0.6772 0.1950
O6 O -0.3691(9) 0.8781(15) 0.2211(6)
H18 H -0.4023 0.8675 0.1959
Zn1_2 Zn -0.87360(4) 0.79611(6) 0.41249(2)
O1_2 O 0.2235(3) 0.7185(4) 0.36658(15)
O2_2 O 0.2780(4) 0.8823(5) 0.40108(19)
loop_
_geom_bond_atom_site_label_1
_geom_bond_atom_site_label_2
_geom_bond_site_symmetry_1
_geom_bond_site_symmetry_2
Zn1 N1 1_555 1_555
N1 C16 1_555 1_555
N2 Zn1 1_555 1_555
O1 C1 1_555 1_555
O2 C1 1_555 1_555
O3 Zn1 1_555 1_555
O4 Zn1 1_555 1_555
C1 C2 1_555 1_555
C2 C3 1_555 1_555
C3 H1 1_555 1_555
C4 C3 1_555 1_555
H2 C4 1_555 1_555
C5 C4 1_555 1_555
C6 C5 1_555 1_555
H3 C6 1_555 1_555
C7 C2 1_555 1_555
H4 C7 1_555 1_555
C8 C5 1_555 1_555
C9 C8 1_555 1_555
C10 C9 1_555 1_555
H5 C10 1_555 1_555
C11 C10 1_555 1_555
H6 C11 1_555 1_555
C12 C11 1_555 1_555
C13 C12 1_555 1_555
H7 C13 1_555 1_555
C14 C9 1_555 1_555
H8 C14 1_555 1_555
C15 O3 1_555 1_555
C16 H9 1_555 1_555
C17 C16 1_555 1_555
H10 C17 1_555 1_555
C18 C17 1_555 1_555
H11 C18 1_555 1_555
C19 C18 1_555 1_555
H12 C19 1_555 1_555
C20 N1 1_555 1_555
C21 N2 1_555 1_555
C22 C21 1_555 1_555
H13 C22 1_555 1_555
C23 C22 1_555 1_555
H14 C23 1_555 1_555
C24 C23 1_555 1_555
H15 C24 1_555 1_555
C25 N2 1_555 1_555
H16 C25 1_555 1_555
O5 C8 1_555 1_555
H17 O5 1_555 1_555
O6 C8 1_555 1_555
H18 O6 1_555 1_555
Zn1_2 O1 1_555 1_555
O1_2 Zn1 1_555 1_555
O2_2 Zn1 1_555 1_555
O2 Zn1_2 1_555 1_555
O4 C15 1_555 1_555
C6 C7 1_555 1_555
C12 C15 1_555 1_555
C13 C14 1_555 1_555
C19 C20 1_555 1_555
C20 C21 1_555 1_555
C24 C25 1_555 1_555

#END
