
#######################################################################
#
#                 Cambridge Crystallographic Data Centre
#                                CCDC 
#
#######################################################################
#
# If this CIF has been generated from an entry in the Cambridge 
# Structural Database, then it will include bibliographic, chemical, 
# crystal, experimental, refinement or atomic coordinate data resulting 
# from the CCDC's data processing and validation procedures.
#
#######################################################################

data_XIFBIZ
_symmetry_cell_setting           monoclinic
_symmetry_space_group_name_H-M   'C 2/c'
_symmetry_Int_Tables_number      15
_space_group_name_Hall           '-C 2yn'
loop_
_symmetry_equiv_pos_site_id
_symmetry_equiv_pos_as_xyz
1 x,y,z
2 -x,y,1/2-z
3 1/2+x,1/2+y,z
4 1/2-x,1/2+y,1/2-z
5 -x,-y,-z
6 x,-y,1/2+z
7 1/2-x,1/2-y,-z
8 1/2+x,1/2-y,1/2+z
_cell_length_a                   29.5886(10)
_cell_length_b                   7.5442(2)
_cell_length_c                   23.3047(7)
_cell_angle_alpha                90
_cell_angle_beta                 119.524(4)
_cell_angle_gamma                90
_cell_volume                     4526.63
loop_
_atom_site_label
_atom_site_type_symbol
_atom_site_fract_x
_atom_site_fract_y
_atom_site_fract_z
Br1 Br 0.174275(9) 0.57056(3) 0.085219(11)
Br2 Br 0.228271(9) 1.05828(3) 0.049649(12)
V1 V 0.000 0.19001(6) -0.25
V2 V 0.000 0.68934(6) -0.25
O1 O 0.000 -0.0254(3) -0.25
O2 O 0.00943(5) 0.22501(19) -0.16190(7)
O3 O 0.15636(7) 0.4154(2) -0.25667(9)
O4 O 0.000 0.4741(3) -0.25
O5 O 0.07485(5) 0.72557(18) -0.20839(7)
O6 O -0.03960(6) 0.9078(2) -0.08100(8)
N1 N 0.08036(6) 0.2343(2) -0.20900(8)
N2 N 0.00504(6) 0.7246(2) -0.15805(9)
C1 C 0.10970(8) 0.3056(3) -0.15267(10)
C2 C 0.09565(8) 0.3469(3) -0.10270(10)
C3 C 0.04736(8) 0.2950(3) -0.10865(10)
C4 C 0.04084(9) 0.3183(3) -0.05314(10)
C5 C 0.07823(9) 0.3982(3) 0.00352(11)
C6 C 0.12408(8) 0.4556(3) 0.00690(10)
C7 C 0.13321(9) 0.4280(3) -0.04468(11)
C8 C 0.10276(8) 0.1803(3) -0.25087(10)
C9 C 0.15458(8) 0.2507(3) -0.23389(10)
C10 C 0.20730(11) 0.4472(3) -0.23716(14)
C11 C 0.23681(9) 0.3112(3) -0.20397(12)
C12 C 0.20260(9) 0.1838(3) -0.20108(12)
C13 C 0.04438(8) 0.7924(3) -0.10808(11)
C14 C 0.09335(8) 0.8417(3) -0.10272(10)
C15 C 0.10737(8) 0.7946(3) -0.15099(10)
C16 C 0.15950(8) 0.8190(3) -0.13453(11)
C17 C 0.19527(9) 0.8955(3) -0.07609(11)
C18 C 0.17976(9) 0.9497(3) -0.03121(11)
C19 C 0.13014(8) 0.9212(3) -0.04370(11)
C20 C -0.03846(8) 0.6631(3) -0.14862(10)
C21 C -0.06719(8) 0.8039(3) -0.13565(10)
C22 C -0.07470(10) 1.0209(3) -0.07852(13)
C23 C -0.12263(10) 0.9891(3) -0.12787(12)
C24 C -0.11735(9) 0.8486(3) -0.16492(11)
H1 H 0.144447 0.334625 -0.142561
H2 H 0.009451 0.277325 -0.054944
H3 H 0.072685 0.414171 0.040455
H4 H 0.165629 0.464703 -0.040941
H5 H 0.078536 0.206696 -0.296156
H6 H 0.103136 0.053327 -0.25321
H7 H 0.220069 0.554409 -0.246332
H8 H 0.273718 0.300606 -0.185608
H9 H 0.212212 0.070559 -0.179549
H10 H 0.040851 0.812827 -0.069812
H11 H 0.17045 0.780912 -0.16508
H12 H 0.23056 0.911521 -0.06626
H13 H 0.120376 0.956017 -0.011679
H14 H -0.062308 0.594842 -0.186235
H15 H -0.025843 0.577218 -0.113696
H16 H -0.066054 1.111182 -0.045682
H17 H -0.154059 1.048558 -0.136531
H18 H -0.144903 0.795556 -0.203957
Br1A Br -0.174275(9) 0.57056(3) -0.585219(11)
Br2A Br -0.228271(9) 1.05828(3) -0.549649(12)
O2A O -0.00943(5) 0.22501(19) -0.33810(7)
O3A O -0.15636(7) 0.4154(2) -0.24333(9)
O5A O -0.07485(5) 0.72557(18) -0.29161(7)
O6A O 0.03960(6) 0.9078(2) -0.41900(8)
N1A N -0.08036(6) 0.2343(2) -0.29100(8)
N2A N -0.00504(6) 0.7246(2) -0.34195(9)
C1A C -0.10970(8) 0.3056(3) -0.34733(10)
C2A C -0.09565(8) 0.3469(3) -0.39730(10)
C3A C -0.04736(8) 0.2950(3) -0.39135(10)
C4A C -0.04084(9) 0.3183(3) -0.44686(10)
C5A C -0.07823(9) 0.3982(3) -0.50352(11)
C6A C -0.12408(8) 0.4556(3) -0.50690(10)
C7A C -0.13321(9) 0.4280(3) -0.45532(11)
C8A C -0.10276(8) 0.1803(3) -0.24913(10)
C9A C -0.15458(8) 0.2507(3) -0.26611(10)
C10A C -0.20730(11) 0.4472(3) -0.26284(14)
C11A C -0.23681(9) 0.3112(3) -0.29603(12)
C12A C -0.20260(9) 0.1838(3) -0.29892(12)
C13A C -0.04438(8) 0.7924(3) -0.39192(11)
C14A C -0.09335(8) 0.8417(3) -0.39728(10)
C15A C -0.10737(8) 0.7946(3) -0.34901(10)
C16A C -0.15950(8) 0.8190(3) -0.36547(11)
C17A C -0.19527(9) 0.8955(3) -0.42391(11)
C18A C -0.17976(9) 0.9497(3) -0.46879(11)
C19A C -0.13014(8) 0.9212(3) -0.45630(11)
C20A C 0.03846(8) 0.6631(3) -0.35138(10)
C21A C 0.06719(8) 0.8039(3) -0.36435(10)
C22A C 0.07470(10) 1.0209(3) -0.42148(13)
C23A C 0.12263(10) 0.9891(3) -0.37213(12)
C24A C 0.11735(9) 0.8486(3) -0.33508(11)
H1A H -0.144447 0.334625 -0.357439
H2A H -0.009451 0.277325 -0.445056
H3A H -0.072685 0.414171 -0.540455
H4A H -0.165629 0.464703 -0.459059
H5A H -0.078536 0.206696 -0.203844
H6A H -0.103136 0.053327 -0.24679
H7A H -0.220069 0.554409 -0.253668
H8A H -0.273718 0.300606 -0.314392
H9A H -0.212212 0.070559 -0.320451
H10A H -0.040851 0.812827 -0.430188
H11A H -0.17045 0.780912 -0.33492
H12A H -0.23056 0.911521 -0.43374
H13A H -0.120376 0.956017 -0.488321
H14A H 0.062308 0.594842 -0.313765
H15A H 0.025843 0.577218 -0.386304
H16A H 0.066054 1.111182 -0.454318
H17A H 0.154059 1.048558 -0.363469
H18A H 0.144903 0.795556 -0.296043
V2_2 V 0.000 -0.31066(6) -0.25
O1_2 O 0.000 0.9746(3) -0.25
loop_
_geom_bond_atom_site_label_1
_geom_bond_atom_site_label_2
_geom_bond_site_symmetry_1
_geom_bond_site_symmetry_2
Br1 C6 1_555 1_555
Br2 C18 1_555 1_555
V1 O1 1_555 1_555
V2 O4 1_555 1_555
O1 V2_2 1_555 1_555
O2 V1 1_555 1_555
O3 C9 1_555 1_555
O4 V1 1_555 1_555
O5 V2 1_555 1_555
O6 C21 1_555 1_555
N1 V1 1_555 1_555
N2 V2 1_555 1_555
C1 N1 1_555 1_555
C2 C1 1_555 1_555
C3 O2 1_555 1_555
C4 C3 1_555 1_555
C5 C4 1_555 1_555
C6 C5 1_555 1_555
C7 C2 1_555 1_555
C8 N1 1_555 1_555
C9 C8 1_555 1_555
C10 O3 1_555 1_555
C11 C10 1_555 1_555
C12 C9 1_555 1_555
C13 N2 1_555 1_555
C14 C13 1_555 1_555
C15 O5 1_555 1_555
C16 C15 1_555 1_555
C17 C16 1_555 1_555
C18 C17 1_555 1_555
C19 C14 1_555 1_555
C20 N2 1_555 1_555
C21 C20 1_555 1_555
C22 O6 1_555 1_555
C23 C22 1_555 1_555
C24 C21 1_555 1_555
H1 C1 1_555 1_555
H2 C4 1_555 1_555
H3 C5 1_555 1_555
H4 C7 1_555 1_555
H5 C8 1_555 1_555
H6 C8 1_555 1_555
H7 C10 1_555 1_555
H8 C11 1_555 1_555
H9 C12 1_555 1_555
H10 C13 1_555 1_555
H11 C16 1_555 1_555
H12 C17 1_555 1_555
H13 C19 1_555 1_555
H14 C20 1_555 1_555
H15 C20 1_555 1_555
H16 C22 1_555 1_555
H17 C23 1_555 1_555
H18 C24 1_555 1_555
Br1A C6A 1_555 1_555
Br2A C18A 1_555 1_555
O2A V1 1_555 1_555
O3A C9A 1_555 1_555
O5A V2 1_555 1_555
O6A C21A 1_555 1_555
N1A V1 1_555 1_555
N2A V2 1_555 1_555
C1A N1A 1_555 1_555
C2A C1A 1_555 1_555
C3A O2A 1_555 1_555
C4A C3A 1_555 1_555
C5A C4A 1_555 1_555
C6A C5A 1_555 1_555
C7A C2A 1_555 1_555
C8A N1A 1_555 1_555
C9A C8A 1_555 1_555
C10A O3A 1_555 1_555
C11A C10A 1_555 1_555
C12A C9A 1_555 1_555
C13A N2A 1_555 1_555
C14A C13A 1_555 1_555
C15A O5A 1_555 1_555
C16A C15A 1_555 1_555
C17A C16A 1_555 1_555
C18A C17A 1_555 1_555
C19A C14A 1_555 1_555
C20A N2A 1_555 1_555
C21A C20A 1_555 1_555
C22A O6A 1_555 1_555
C23A C22A 1_555 1_555
C24A C21A 1_555 1_555
H1A C1A 1_555 1_555
H2A C4A 1_555 1_555
H3A C5A 1_555 1_555
H4A C7A 1_555 1_555
H5A C8A 1_555 1_555
H6A C8A 1_555 1_555
H7A C10A 1_555 1_555
H8A C11A 1_555 1_555
H9A C12A 1_555 1_555
H10A C13A 1_555 1_555
H11A C16A 1_555 1_555
H12A C17A 1_555 1_555
H13A C19A 1_555 1_555
H14A C20A 1_555 1_555
H15A C20A 1_555 1_555
H16A C22A 1_555 1_555
H17A C23A 1_555 1_555
H18A C24A 1_555 1_555
O1_2 V2 1_555 1_555
C2 C3 1_555 1_555
C6 C7 1_555 1_555
C11 C12 1_555 1_555
C14 C15 1_555 1_555
C18 C19 1_555 1_555
C23 C24 1_555 1_555
C2A C3A 1_555 1_555
C6A C7A 1_555 1_555
C11A C12A 1_555 1_555
C14A C15A 1_555 1_555
C18A C19A 1_555 1_555
C23A C24A 1_555 1_555

#END
