
#######################################################################
#
#                 Cambridge Crystallographic Data Centre
#                                CCDC 
#
#######################################################################
#
# If this CIF has been generated from an entry in the Cambridge 
# Structural Database, then it will include bibliographic, chemical, 
# crystal, experimental, refinement or atomic coordinate data resulting 
# from the CCDC's data processing and validation procedures.
#
#######################################################################

data_XIFHID
_symmetry_cell_setting           monoclinic
_symmetry_space_group_name_H-M   'C 2/c'
_symmetry_Int_Tables_number      15
_space_group_name_Hall           '-C 2yn'
loop_
_symmetry_equiv_pos_site_id
_symmetry_equiv_pos_as_xyz
1 x,y,z
2 -x,y,1/2-z
3 1/2+x,1/2+y,z
4 1/2-x,1/2+y,1/2-z
5 -x,-y,-z
6 x,-y,1/2+z
7 1/2-x,1/2-y,-z
8 1/2+x,1/2-y,1/2+z
_cell_length_a                   18.425(3)
_cell_length_b                   12.266(2)
_cell_length_c                   10.754(1)
_cell_angle_alpha                90
_cell_angle_beta                 104.666(5)
_cell_angle_gamma                90
_cell_volume                     2351.23
loop_
_atom_site_label
_atom_site_type_symbol
_atom_site_fract_x
_atom_site_fract_y
_atom_site_fract_z
Bi1 Bi 0.17642(4) 0.744100(5) 0.107130(7)
O1 O 0.0555(1) 0.7916(2) 0.0430(2)
O2 O -0.0376(1) 0.8916(2) 0.0677(2)
O3 O 0.2072(1) 0.8696(1) -0.0295(2)
O4 O 0.2531(1) 1.0352(2) -0.0503(2)
O5 O 0.1510(1) 0.7299(2) 0.3171(2)
O6 O 0.1013(1) 0.5814(2) 0.2127(2)
O7 O 0.2042(1) 0.7110(2) 0.7502(2)
O8 O 0.1237(1) 0.6695(2) 0.8699(2)
N1 N 0.1649(1) 0.9223(1) 0.1879(2)
N2 N 0.1092(1) 0.6874(2) 0.5287(2)
C1 C 0.0856(1) 0.9505(2) 0.1735(3)
C2 C 0.0309(1) 0.8725(2) 0.0884(2)
C3 C 0.2091(2) 1.0015(2) 0.1353(2)
C4 C 0.2240(1) 0.9678(2) 0.0078(2)
C5 C 0.0805(1) 0.6637(2) 0.6449(2)
C6 C 0.1407(1) 0.6844(2) 0.7663(2)
C7 C 0.0832(1) 0.6103(2) 0.4200(2)
C8 C 0.1143(1) 0.6424(2) 0.3085(2)
H1 H 0.191(2) 0.910(2) 0.260(3)
H2 H 0.092(2) 0.755(2) 0.480(4)
H3 H 0.163(2) 0.689(2) 0.554(3)
O3F O 0.2928(1) 0.6304(1) 0.0295(2)
O7F O 0.2958(1) 0.7890(2) 0.2498(2)
O8_2 O 0.1237(1) 0.6695(2) -0.1301(2)
Bi1F Bi 0.32358(4) 0.755900(5) -0.107130(7)
Bi1F_2 Bi 0.32358(4) 0.755900(5) 0.892870(7)
Bi1_2 Bi 0.17642(4) 0.744100(5) 1.107130(7)
loop_
_geom_bond_atom_site_label_1
_geom_bond_atom_site_label_2
_geom_bond_site_symmetry_1
_geom_bond_site_symmetry_2
Bi1 O1 1_555 1_555
O1 C2 1_555 1_555
O2 C2 1_555 1_555
O3 Bi1 1_555 1_555
O4 C4 1_555 1_555
O5 Bi1 1_555 1_555
O6 Bi1 1_555 1_555
O7 C6 1_555 1_555
O8 C6 1_555 1_555
N1 Bi1 1_555 1_555
N2 C5 1_555 1_555
C1 N1 1_555 1_555
C2 C1 1_555 1_555
C3 N1 1_555 1_555
C4 O3 1_555 1_555
C5 C6 1_555 1_555
C7 N2 1_555 1_555
C8 O5 1_555 1_555
H1 N1 1_555 1_555
H2 N2 1_555 1_555
H3 N2 1_555 1_555
O3F Bi1 1_555 1_555
O7F Bi1 1_555 1_555
O8_2 Bi1 1_555 1_555
Bi1F O3 1_555 1_555
Bi1F_2 O7 1_555 1_555
Bi1_2 O8 1_555 1_555
O6 C8 1_555 1_555
C3 C4 1_555 1_555
C7 C8 1_555 1_555
O3F Bi1F 1_555 1_555

#END
