
#######################################################################
#
#                 Cambridge Crystallographic Data Centre
#                                CCDC 
#
#######################################################################
#
# If this CIF has been generated from an entry in the Cambridge 
# Structural Database, then it will include bibliographic, chemical, 
# crystal, experimental, refinement or atomic coordinate data resulting 
# from the CCDC's data processing and validation procedures.
#
#######################################################################

data_XIFJAZ
_symmetry_cell_setting           monoclinic
_symmetry_space_group_name_H-M   'P 21/n'
_symmetry_Int_Tables_number      14
_space_group_name_Hall           '-P 2yn'
loop_
_symmetry_equiv_pos_site_id
_symmetry_equiv_pos_as_xyz
1 x,y,z
2 1/2-x,1/2+y,1/2-z
3 -x,-y,-z
4 1/2+x,1/2-y,1/2+z
_cell_length_a                   7.9857(8)
_cell_length_b                   17.5783(17)
_cell_length_c                   16.1584(16)
_cell_angle_alpha                90
_cell_angle_beta                 94.6140(10)
_cell_angle_gamma                90
_cell_volume                     2260.89
loop_
_atom_site_label
_atom_site_type_symbol
_atom_site_fract_x
_atom_site_fract_y
_atom_site_fract_z
Cd1 Cd 0.17913(3) 0.742665(14) 0.297984(17)
O1 O 0.3756(5) 1.0182(2) 0.58277(19)
O2 O -0.1186(3) 0.74123(14) 0.28571(17)
O3 O -0.0107(3) 0.85216(14) 0.25481(17)
O4 O 0.1464(3) 0.62092(15) 0.35420(19)
O5 O 0.4075(4) 0.65451(14) 0.34775(18)
N1 N 0.1814(4) 0.79944(17) 0.4297(2)
N2 N 0.2368(5) 1.0351(2) 0.4570(2)
H1 H 0.172(5) 1.014(2) 0.414(2)
N3 N -0.6014(4) 0.82685(16) 0.26638(19)
N4 N 0.3254(4) 1.20783(18) 0.3420(2)
C1 C 0.2207(5) 0.8734(2) 0.4376(2)
H2 H 0.2370 0.9014 0.3887
C2 C 0.1540(6) 0.7621(3) 0.4991(3)
H3 H 0.1219 0.7102 0.4952
C3 C 0.1703(8) 0.7957(3) 0.5758(3)
H4 H 0.1504 0.7669 0.6238
C4 C 0.2149(7) 0.8702(3) 0.5837(3)
H5 H 0.2293 0.8934 0.6369
C5 C 0.2389(6) 0.9114(2) 0.5131(3)
C6 C 0.2896(6) 0.9928(3) 0.5223(3)
C7 C -0.1330(5) 0.8101(2) 0.2649(2)
C8 C -0.3064(4) 0.84266(19) 0.2517(2)
C9 C -0.3366(5) 0.9152(2) 0.2190(2)
H6 H -0.2467 0.9453 0.2020
C10 C -0.4994(5) 0.9426(2) 0.2115(3)
H7 H -0.5227 0.9921 0.1902
C11 C -0.6258(5) 0.8974(2) 0.2350(3)
H8 H -0.7372 0.9167 0.2290
C12 C -0.4431(4) 0.8018(2) 0.2748(2)
H9 H -0.4231 0.7528 0.2983
C13 C 0.3000(5) 0.6074(2) 0.3667(2)
C14 C 0.3575(5) 0.5313(2) 0.4043(2)
H10 H 0.2574 0.5011 0.4159
H11 H 0.4185 0.5029 0.3632
C15 C 0.4698(5) 0.5390(2) 0.4834(2)
H12 H 0.4077 0.5650 0.5258
H13 H 0.5683 0.5707 0.4728
C16 C 0.2860(6) 1.1133(2) 0.4440(3)
C17 C 0.2892(5) 1.1370(2) 0.3642(3)
H14 H 0.2641 1.1008 0.3213
C18 C 0.3260(7) 1.1649(3) 0.5065(3)
H15 H 0.3261 1.1502 0.5631
C19 C 0.3645(6) 1.2585(3) 0.4023(3)
H16 H 0.3917 1.3092 0.3879
C20 C 0.3661(7) 1.2383(3) 0.4852(3)
H17 H 0.3946 1.2749 0.5273
O4B O 0.8536(3) 0.37908(15) 0.64580(19)
O5B O 0.5925(4) 0.34549(14) 0.65225(18)
C13B C 0.7000(5) 0.3926(2) 0.6333(2)
C14B C 0.6425(5) 0.4687(2) 0.5957(2)
H10B H 0.7426 0.4989 0.5841
H11B H 0.5815 0.4971 0.6368
C15B C 0.5302(5) 0.4610(2) 0.5166(2)
H12B H 0.5923 0.4350 0.4742
H13B H 0.4317 0.4293 0.5272
Cd1B Cd 0.82087(3) 0.257335(14) 0.702016(17)
O1B O 0.6244(5) -0.0182(2) 0.41723(19)
O2B O 1.1186(3) 0.25877(14) 0.71429(17)
O3B O 1.0107(3) 0.14784(14) 0.74519(17)
N1B N 0.8186(4) 0.20056(17) 0.5703(2)
N2B N 0.7632(5) -0.0351(2) 0.5430(2)
H1B H 0.828(5) -0.014(2) 0.586(2)
N3B N 1.6014(4) 0.17315(16) 0.73362(19)
N4B N 0.6746(4) -0.20783(18) 0.6580(2)
C1B C 0.7793(5) 0.1266(2) 0.5624(2)
H2B H 0.7630 0.0986 0.6113
C2B C 0.8460(6) 0.2379(3) 0.5009(3)
H3B H 0.8781 0.2898 0.5048
C3B C 0.8297(8) 0.2043(3) 0.4242(3)
H4B H 0.8496 0.2331 0.3762
C4B C 0.7851(7) 0.1298(3) 0.4163(3)
H5B H 0.7707 0.1066 0.3631
C5B C 0.7611(6) 0.0886(2) 0.4869(3)
C6B C 0.7104(6) 0.0072(3) 0.4777(3)
C7B C 1.1330(5) 0.1899(2) 0.7351(2)
C8B C 1.3064(4) 0.15734(19) 0.7483(2)
C9B C 1.3366(5) 0.0848(2) 0.7810(2)
H6B H 1.2467 0.0547 0.7980
C10B C 1.4994(5) 0.0574(2) 0.7885(3)
H7B H 1.5227 0.0079 0.8098
C11B C 1.6258(5) 0.1026(2) 0.7650(3)
H8B H 1.7372 0.0833 0.7710
C12B C 1.4431(4) 0.1982(2) 0.7252(2)
H9B H 1.4231 0.2472 0.7017
C16B C 0.7140(6) -0.1133(2) 0.5560(3)
C17B C 0.7108(5) -0.1370(2) 0.6358(3)
H14B H 0.7359 -0.1008 0.6787
C18B C 0.6740(7) -0.1649(3) 0.4935(3)
H15B H 0.6739 -0.1502 0.4369
C19B C 0.6355(6) -0.2585(3) 0.5977(3)
H16B H 0.6083 -0.3092 0.6121
C20B C 0.6339(7) -0.2383(3) 0.5148(3)
H17B H 0.6054 -0.2749 0.4727
Cd1_2 Cd -0.82087(3) 0.742665(14) 0.297984(17)
Cd1A Cd 0.32087(3) 1.242665(14) 0.202016(17)
Cd1B_2 Cd 1.82087(3) 0.257335(14) 0.702016(17)
Cd1C Cd 0.67913(3) -0.242665(14) 0.797984(17)
N3_2 N 0.3986(4) 0.82685(16) 0.26638(19)
N3B_2 N 0.6014(4) 0.17315(16) 0.73362(19)
N4A N 0.1746(4) 0.70783(18) 0.1580(2)
N4C N 0.8254(4) 0.29217(18) 0.8420(2)
O6 O 0.7004(4) 0.59666(17) 0.2950(2)
H18 H 0.763(5) 0.6334(19) 0.288(3)
H19 H 0.615(4) 0.611(2) 0.318(3)
O7 O 0.0241(4) 1.00036(17) 0.3113(2)
H20 H 0.002(6) 0.9583(14) 0.288(3)
H21 H -0.043(5) 1.0316(19) 0.285(3)
O8 O 0.9454(19) 0.5804(7) 0.4940(7)
O9? O 0.9077(18) 0.5615(7) 0.4480(6)
loop_
_geom_bond_atom_site_label_1
_geom_bond_atom_site_label_2
_geom_bond_site_symmetry_1
_geom_bond_site_symmetry_2
Cd1 O2 1_555 1_555
O1 C6 1_555 1_555
O2 C7 1_555 1_555
O3 Cd1 1_555 1_555
O4 Cd1 1_555 1_555
O5 Cd1 1_555 1_555
N1 Cd1 1_555 1_555
N2 H1 1_555 1_555
N3 C11 1_555 1_555
N4 C17 1_555 1_555
C1 N1 1_555 1_555
H2 C1 1_555 1_555
C2 N1 1_555 1_555
H3 C2 1_555 1_555
C3 C2 1_555 1_555
H4 C3 1_555 1_555
C4 C3 1_555 1_555
H5 C4 1_555 1_555
C5 C1 1_555 1_555
C6 N2 1_555 1_555
C7 O3 1_555 1_555
C8 C7 1_555 1_555
C9 C8 1_555 1_555
H6 C9 1_555 1_555
C10 C9 1_555 1_555
H7 C10 1_555 1_555
C11 C10 1_555 1_555
H8 C11 1_555 1_555
C12 N3 1_555 1_555
H9 C12 1_555 1_555
C13 O4 1_555 1_555
C14 C13 1_555 1_555
H10 C14 1_555 1_555
H11 C14 1_555 1_555
C15 C14 1_555 1_555
H12 C15 1_555 1_555
H13 C15 1_555 1_555
C16 N2 1_555 1_555
C17 C16 1_555 1_555
H14 C17 1_555 1_555
C18 C16 1_555 1_555
H15 C18 1_555 1_555
C19 N4 1_555 1_555
H16 C19 1_555 1_555
C20 C18 1_555 1_555
H17 C20 1_555 1_555
O6 H18 1_555 1_555
H19 O6 1_555 1_555
O7 H20 1_555 1_555
H21 O7 1_555 1_555
O4B C13B 1_555 1_555
O5B C13B 1_555 1_555
C13B C14B 1_555 1_555
C14B H10B 1_555 1_555
H11B C14B 1_555 1_555
C15B C15 1_555 1_555
H12B C15B 1_555 1_555
H13B C15B 1_555 1_555
Cd1B O4B 1_555 1_555
O1B C6B 1_555 1_555
O2B Cd1B 1_555 1_555
O3B Cd1B 1_555 1_555
N1B Cd1B 1_555 1_555
N2B H1B 1_555 1_555
N3B C11B 1_555 1_555
N4B C17B 1_555 1_555
C1B N1B 1_555 1_555
H2B C1B 1_555 1_555
C2B N1B 1_555 1_555
H3B C2B 1_555 1_555
C3B C2B 1_555 1_555
H4B C3B 1_555 1_555
C4B C3B 1_555 1_555
H5B C4B 1_555 1_555
C5B C1B 1_555 1_555
C6B N2B 1_555 1_555
C7B O2B 1_555 1_555
C8B C7B 1_555 1_555
C9B C8B 1_555 1_555
H6B C9B 1_555 1_555
C10B C9B 1_555 1_555
H7B C10B 1_555 1_555
C11B C10B 1_555 1_555
H8B C11B 1_555 1_555
C12B N3B 1_555 1_555
H9B C12B 1_555 1_555
C16B N2B 1_555 1_555
C17B C16B 1_555 1_555
H14B C17B 1_555 1_555
C18B C16B 1_555 1_555
H15B C18B 1_555 1_555
C19B N4B 1_555 1_555
H16B C19B 1_555 1_555
C20B C18B 1_555 1_555
H17B C20B 1_555 1_555
Cd1_2 N3 1_555 1_555
Cd1A N4 1_555 1_555
Cd1B_2 N3B 1_555 1_555
Cd1C N4B 1_555 1_555
N3_2 Cd1 1_555 1_555
N3B_2 Cd1B 1_555 1_555
N4A Cd1 1_555 1_555
N4C Cd1B 1_555 1_555
O5 C13 1_555 1_555
C4 C5 1_555 1_555
C5 C6 1_555 1_555
C8 C12 1_555 1_555
C19 C20 1_555 1_555
O5B Cd1B 1_555 1_555
C14B C15B 1_555 1_555
O3B C7B 1_555 1_555
C4B C5B 1_555 1_555
C5B C6B 1_555 1_555
C8B C12B 1_555 1_555
C19B C20B 1_555 1_555

#END
