
#######################################################################
#
#                 Cambridge Crystallographic Data Centre
#                                CCDC 
#
#######################################################################
#
# If this CIF has been generated from an entry in the Cambridge 
# Structural Database, then it will include bibliographic, chemical, 
# crystal, experimental, refinement or atomic coordinate data resulting 
# from the CCDC's data processing and validation procedures.
#
#######################################################################

data_XIFJON
_symmetry_cell_setting           monoclinic
_symmetry_space_group_name_H-M   'C 2/c'
_symmetry_Int_Tables_number      15
_space_group_name_Hall           '-C 2yn'
loop_
_symmetry_equiv_pos_site_id
_symmetry_equiv_pos_as_xyz
1 x,y,z
2 -x,y,1/2-z
3 1/2+x,1/2+y,z
4 1/2-x,1/2+y,1/2-z
5 -x,-y,-z
6 x,-y,1/2+z
7 1/2-x,1/2-y,-z
8 1/2+x,1/2-y,1/2+z
_cell_length_a                   18.319(5)
_cell_length_b                   11.066(5)
_cell_length_c                   18.528(5)
_cell_angle_alpha                90
_cell_angle_beta                 118.619(5)
_cell_angle_gamma                90
_cell_volume                     3297.07
loop_
_atom_site_label
_atom_site_type_symbol
_atom_site_fract_x
_atom_site_fract_y
_atom_site_fract_z
Mn1 Mn 0.0000 0.07860(7) 0.2500
O1 O -0.13040(16) 0.0718(2) 0.22019(16)
O2 O -0.14249(17) 0.1858(3) 0.31305(17)
O3 O -0.28175(18) 0.2143(3) 0.30686(18)
N1 N -0.46603(19) -0.4284(3) -0.15577(18)
N2 N -0.4183(2) -0.1192(3) 0.05310(19)
N3 N -0.3717(2) -0.1563(3) 0.02525(19)
C1 C -0.1718(2) 0.1152(3) 0.2518(2)
C2 C -0.2622(2) 0.0830(3) 0.2142(2)
C3 C -0.3130(2) 0.1337(4) 0.2439(2)
C4 C -0.3970(2) 0.1033(4) 0.2085(2)
H1 H -0.4305 0.1385 0.2277
C5 C -0.4301(2) 0.0208(4) 0.1451(2)
H2 H -0.4860 0.0002 0.1216
C6 C -0.3800(2) -0.0318(3) 0.1161(2)
C7 C -0.2964(2) 0.0006(3) 0.1510(2)
H3 H -0.2632 -0.0340 0.1312
C8 C -0.4099(2) -0.3451(3) -0.1509(2)
H4 H -0.3908 -0.3487 -0.1892
C9 C -0.3793(2) -0.2551(4) -0.0923(2)
H5 H -0.3403 -0.2000 -0.0910
C10 C -0.4077(2) -0.2489(4) -0.0361(2)
C11 C -0.4648(2) -0.3314(4) -0.0381(2)
H6 H -0.4847 -0.3281 -0.0004
C12 C -0.4918(3) -0.4203(4) -0.0989(2)
H7 H -0.5298 -0.4773 -0.1003
O4 O 0.01528(17) 0.2069(3) 0.34516(17)
O1A O 0.13040(16) 0.0718(2) 0.27981(16)
O2A O 0.14249(17) 0.1858(3) 0.18695(17)
O3A O 0.28175(18) 0.2143(3) 0.19314(18)
N1A N 0.46603(19) -0.4284(3) 0.65577(18)
N2A N 0.4183(2) -0.1192(3) 0.44690(19)
N3A N 0.3717(2) -0.1563(3) 0.47475(19)
C1A C 0.1718(2) 0.1152(3) 0.2482(2)
C2A C 0.2622(2) 0.0830(3) 0.2858(2)
C3A C 0.3130(2) 0.1337(4) 0.2561(2)
C4A C 0.3970(2) 0.1033(4) 0.2915(2)
H1A H 0.4305 0.1385 0.2723
C5A C 0.4301(2) 0.0208(4) 0.3549(2)
H2A H 0.4860 0.0002 0.3784
C6A C 0.3800(2) -0.0318(3) 0.3839(2)
C7A C 0.2964(2) 0.0006(3) 0.3490(2)
H3A H 0.2632 -0.0340 0.3688
C8A C 0.4099(2) -0.3451(3) 0.6509(2)
H4A H 0.3908 -0.3487 0.6892
C9A C 0.3793(2) -0.2551(4) 0.5923(2)
H5A H 0.3403 -0.2000 0.5910
C10A C 0.4077(2) -0.2489(4) 0.5361(2)
C11A C 0.4648(2) -0.3314(4) 0.5381(2)
H6A H 0.4847 -0.3281 0.5004
C12A C 0.4918(3) -0.4203(4) 0.5989(2)
H7A H 0.5298 -0.4773 0.6003
O4A O -0.01528(17) 0.2069(3) 0.15484(17)
Mn1F Mn -0.5000 -0.57860(7) -0.2500
Mn1F_2 Mn 0.5000 -0.57860(7) 0.7500
N1F N -0.03397(19) -0.0716(3) 0.15577(18)
N1G N 0.03397(19) -0.0716(3) 0.34423(18)
O5 O -0.3868(2) 0.0987(3) -0.1210(3)
N4 N -0.2506(2) 0.1047(3) -0.0828(2)
C13 C -0.3293(3) 0.1136(4) -0.1368(3)
H8 H -0.3427 0.1325 -0.1907
C14 C -0.2240(4) 0.0755(6) 0.0026(3)
H9 H -0.1644 0.0730 0.0326
H10 H -0.2460 -0.0019 0.0057
H11 H -0.2440 0.1360 0.0259
C15 C -0.1873(3) 0.1195(5) -0.1073(4)
H12 H -0.1334 0.1101 -0.0603
H13 H -0.1918 0.1987 -0.1303
H14 H -0.1947 0.0596 -0.1478
loop_
_geom_bond_atom_site_label_1
_geom_bond_atom_site_label_2
_geom_bond_site_symmetry_1
_geom_bond_site_symmetry_2
Mn1 O1 1_555 1_555
O1 C1 1_555 1_555
O2 C1 1_555 1_555
O3 C3 1_555 1_555
N1 C8 1_555 1_555
N2 N3 1_555 1_555
N3 C10 1_555 1_555
C1 C2 1_555 1_555
C2 C3 1_555 1_555
C3 C4 1_555 1_555
C4 H1 1_555 1_555
C5 C4 1_555 1_555
H2 C5 1_555 1_555
C6 N2 1_555 1_555
C7 C2 1_555 1_555
H3 C7 1_555 1_555
C8 H4 1_555 1_555
C9 C8 1_555 1_555
H5 C9 1_555 1_555
C10 C9 1_555 1_555
C11 C10 1_555 1_555
H6 C11 1_555 1_555
C12 N1 1_555 1_555
H7 C12 1_555 1_555
O4 Mn1 1_555 1_555
O5 C13 1_555 1_555
N4 C13 1_555 1_555
C13 H8 1_555 1_555
C14 N4 1_555 1_555
H9 C14 1_555 1_555
H10 C14 1_555 1_555
H11 C14 1_555 1_555
C15 N4 1_555 1_555
H12 C15 1_555 1_555
H13 C15 1_555 1_555
H14 C15 1_555 1_555
O1A Mn1 1_555 1_555
O2A C1A 1_555 1_555
O3A C3A 1_555 1_555
N1A C8A 1_555 1_555
N2A N3A 1_555 1_555
N3A C10A 1_555 1_555
C1A O1A 1_555 1_555
C2A C1A 1_555 1_555
C3A C2A 1_555 1_555
C4A C3A 1_555 1_555
H1A C4A 1_555 1_555
C5A C4A 1_555 1_555
H2A C5A 1_555 1_555
C6A N2A 1_555 1_555
C7A C2A 1_555 1_555
H3A C7A 1_555 1_555
C8A H4A 1_555 1_555
C9A C8A 1_555 1_555
H5A C9A 1_555 1_555
C10A C9A 1_555 1_555
C11A C10A 1_555 1_555
H6A C11A 1_555 1_555
C12A N1A 1_555 1_555
H7A C12A 1_555 1_555
O4A Mn1 1_555 1_555
Mn1F N1 1_555 1_555
Mn1F_2 N1A 1_555 1_555
N1F Mn1 1_555 1_555
N1G Mn1 1_555 1_555
C5 C6 1_555 1_555
C6 C7 1_555 1_555
C11 C12 1_555 1_555
C5A C6A 1_555 1_555
C6A C7A 1_555 1_555
C11A C12A 1_555 1_555

#END
