
#######################################################################
#
#                 Cambridge Crystallographic Data Centre
#                                CCDC 
#
#######################################################################
#
# If this CIF has been generated from an entry in the Cambridge 
# Structural Database, then it will include bibliographic, chemical, 
# crystal, experimental, refinement or atomic coordinate data resulting 
# from the CCDC's data processing and validation procedures.
#
#######################################################################

data_XIFPAF
_symmetry_cell_setting           monoclinic
_symmetry_space_group_name_H-M   'P 21/c'
_symmetry_Int_Tables_number      14
_space_group_name_Hall           '-P 2ybc'
loop_
_symmetry_equiv_pos_site_id
_symmetry_equiv_pos_as_xyz
1 x,y,z
2 -x,1/2+y,1/2-z
3 -x,-y,-z
4 x,1/2-y,1/2+z
_cell_length_a                   12.0040(2)
_cell_length_b                   5.44380(10)
_cell_length_c                   10.4886(2)
_cell_angle_alpha                90
_cell_angle_beta                 111.4890(10)
_cell_angle_gamma                90
_cell_volume                     637.759
loop_
_atom_site_label
_atom_site_type_symbol
_atom_site_fract_x
_atom_site_fract_y
_atom_site_fract_z
Co1 Co 0.0000 0.0000 0.5000
N1 N 0.15846(15) 0.2350(3) 0.57148(18)
H1 H 0.1865 0.2460 0.5030
H2 H 0.1341 0.3864 0.5840
N2 N -0.05944(18) 0.2215(4) 0.32114(18)
N3 N -0.07403(15) 0.2365(3) 0.20538(18)
N4 N -0.09308(18) 0.2581(4) 0.08713(18)
C1 C 0.25826(18) 0.1709(4) 0.6944(2)
C2 C 0.2896(2) 0.3152(5) 0.8096(2)
H3 H 0.2472 0.4587 0.8082
C3 C 0.3840(2) 0.2487(5) 0.9281(2)
H4 H 0.4038 0.3499 1.0047
C4 C 0.44976(18) 0.0359(4) 0.9356(2)
C5 C 0.4177(2) -0.1067(5) 0.8176(2)
H5 H 0.4610 -0.2487 0.8181
C6 C 0.3227(2) -0.0425(4) 0.6989(2)
H6 H 0.3023 -0.1431 0.6220
N1B N 0.84154(15) -0.2350(3) 1.42852(18)
H1B H 0.8135 -0.2460 1.4970
H2B H 0.8659 -0.3864 1.4160
C1B C 0.74174(18) -0.1709(4) 1.3056(2)
C2B C 0.7104(2) -0.3152(5) 1.1904(2)
H3B H 0.7528 -0.4587 1.1918
C3B C 0.6160(2) -0.2487(5) 1.0719(2)
H4B H 0.5962 -0.3499 0.9953
C4B C 0.55024(18) -0.0359(4) 1.0644(2)
C5B C 0.5823(2) 0.1067(5) 1.1824(2)
H5B H 0.5390 0.2487 1.1819
C6B C 0.6773(2) 0.0425(4) 1.3011(2)
H6B H 0.6977 0.1431 1.3780
N2B N 0.05944(18) -0.2215(4) 0.67886(18)
N3B N 0.07403(15) -0.2365(3) 0.79462(18)
N4B N 0.09308(18) -0.2581(4) 0.91287(18)
Co1_2 Co 1.0000 0.0000 1.5000
Co1A Co 0.0000 -0.5000 1.0000
Co1A_2 Co 0.0000 0.5000 0.0000
N1B_2 N -0.15846(15) -0.2350(3) 0.42852(18)
N4A N 0.09308(18) -0.2419(4) 0.41287(18)
N4C N -0.09308(18) 0.2419(4) 0.58713(18)
loop_
_geom_bond_atom_site_label_1
_geom_bond_atom_site_label_2
_geom_bond_site_symmetry_1
_geom_bond_site_symmetry_2
Co1 N1 1_555 1_555
N1 H1 1_555 1_555
H2 N1 1_555 1_555
N2 Co1 1_555 1_555
N3 N2 1_555 1_555
N4 N3 1_555 1_555
C1 N1 1_555 1_555
C2 C1 1_555 1_555
H3 C2 1_555 1_555
C3 C2 1_555 1_555
H4 C3 1_555 1_555
C4 C3 1_555 1_555
C5 C4 1_555 1_555
H5 C5 1_555 1_555
C6 C1 1_555 1_555
H6 C6 1_555 1_555
N1B H1B 1_555 1_555
H2B N1B 1_555 1_555
C1B N1B 1_555 1_555
C2B C1B 1_555 1_555
H3B C2B 1_555 1_555
C3B C2B 1_555 1_555
H4B C3B 1_555 1_555
C4B C4 1_555 1_555
C5B C4B 1_555 1_555
H5B C5B 1_555 1_555
C6B C1B 1_555 1_555
H6B C6B 1_555 1_555
N2B Co1 1_555 1_555
N3B N2B 1_555 1_555
N4B N3B 1_555 1_555
Co1_2 N1B 1_555 1_555
Co1A N4B 1_555 1_555
Co1A_2 N4 1_555 1_555
N1B_2 Co1 1_555 1_555
N4A Co1 1_555 1_555
N4C Co1 1_555 1_555
C5 C6 1_555 1_555
C3B C4B 1_555 1_555
C5B C6B 1_555 1_555

#END
