
#######################################################################
#
#                 Cambridge Crystallographic Data Centre
#                                CCDC 
#
#######################################################################
#
# If this CIF has been generated from an entry in the Cambridge 
# Structural Database, then it will include bibliographic, chemical, 
# crystal, experimental, refinement or atomic coordinate data resulting 
# from the CCDC's data processing and validation procedures.
#
#######################################################################

data_XIFXEQ
_symmetry_cell_setting           monoclinic
_symmetry_space_group_name_H-M   'P 21'
_symmetry_Int_Tables_number      4
_space_group_name_Hall           'P 2yb'
loop_
_symmetry_equiv_pos_site_id
_symmetry_equiv_pos_as_xyz
1 x,y,z
2 -x,1/2+y,-z
_cell_length_a                   7.5676(10)
_cell_length_b                   15.352(2)
_cell_length_c                   8.4817(11)
_cell_angle_alpha                90
_cell_angle_beta                 97.101(2)
_cell_angle_gamma                90
_cell_volume                     977.827
loop_
_atom_site_label
_atom_site_type_symbol
_atom_site_fract_x
_atom_site_fract_y
_atom_site_fract_z
C1 C -0.2750(11) 0.9394(6) 0.0004(10)
H1 H -0.3001 0.8856 0.0428
C2 C -0.4008(12) 0.9768(6) -0.1107(9)
H2 H -0.5084 0.9491 -0.1434
C3 C -0.3615(11) 1.0571(6) -0.1718(9)
H3 H -0.4435 1.0854 -0.2451
C4 C -0.1979(12) 1.0945(6) -0.1215(9)
H4 H -0.1676 1.1469 -0.1661
C5 C -0.0788(12) 1.0555(7) -0.0067(10)
C6 C 0.0945(12) 1.0955(6) 0.0593(11)
H5 H 0.1718 1.1011 -0.0247
C7 C 0.0643(11) 1.1852(5) 0.1301(10)
H6 H 0.1769 1.2100 0.1720
H7 H -0.0093 1.1793 0.2138
H8 H 0.0065 1.2226 0.0488
C8 C 0.4813(9) 0.6815(5) -0.0956(8)
C9 C -0.2634(10) 0.6493(5) 0.3919(9)
C10 C 0.7805(11) 1.0145(7) 0.4549(9)
H9 H 0.8004 1.0695 0.4143
C11 C 0.9155(10) 0.9752(5) 0.5541(9)
H10 H 1.0260 1.0018 0.5769
C12 C 0.8826(11) 0.8965(6) 0.6177(10)
H11 H 0.9691 0.8702 0.6896
C13 C 0.7204(10) 0.8550(6) 0.5757(9)
H12 H 0.6993 0.7998 0.6145
C14 C 0.5896(12) 0.8982(6) 0.4737(10)
C15 C 0.4076(11) 0.8583(7) 0.4181(10)
H13 H 0.4197 0.8172 0.3317
C16 C 0.3341(10) 0.8108(5) 0.5507(9)
H14 H 0.2193 0.7871 0.5124
H15 H 0.3226 0.8505 0.6363
H16 H 0.4133 0.7643 0.5880
C17 C -0.0952(10) 0.7482(5) 0.2612(9)
C18 C 0.3430(11) 0.8052(6) 0.0043(9)
Cu1 Cu 0.08165(13) 0.92585(5) 0.19818(12)
Cu2 Cu 0.40716(13) 1.03194(5) 0.29906(12)
N1 N -0.1178(11) 0.9771(5) 0.0499(9)
N2 N 0.6211(10) 0.9763(5) 0.4146(9)
N3 N 0.2321(8) 0.8568(4) 0.0052(7)
N4 N 0.4724(8) 0.7471(5) -0.0032(8)
N5 N -0.0323(8) 0.8189(5) 0.2495(7)
N6 N 0.4806(9) 0.6248(5) -0.1859(8)
N7 N -0.3455(8) 0.6242(4) 0.4962(8)
N8 N -0.1763(9) 0.6717(5) 0.2734(9)
O1 O 0.1750(7) 1.0385(4) 0.1809(6)
O2 O 0.2920(7) 0.9252(5) 0.3606(6)
Cu2A Cu 0.59284(13) 0.53194(5) -0.29906(12)
Cu2A_2 Cu -0.40716(13) 0.53194(5) 0.70094(12)
N6A N 0.5194(9) 1.1248(5) 0.1859(8)
N7A N 0.3455(8) 1.1242(4) 0.5038(8)
loop_
_geom_bond_atom_site_label_1
_geom_bond_atom_site_label_2
_geom_bond_site_symmetry_1
_geom_bond_site_symmetry_2
C1 H1 1_555 1_555
C2 C1 1_555 1_555
H2 C2 1_555 1_555
C3 C2 1_555 1_555
H3 C3 1_555 1_555
C4 C3 1_555 1_555
H4 C4 1_555 1_555
C5 C4 1_555 1_555
C6 C5 1_555 1_555
H5 C6 1_555 1_555
C7 C6 1_555 1_555
H6 C7 1_555 1_555
H7 C7 1_555 1_555
H8 C7 1_555 1_555
C8 N4 1_555 1_555
C9 N7 1_555 1_555
C10 H9 1_555 1_555
C11 C10 1_555 1_555
H10 C11 1_555 1_555
C12 C11 1_555 1_555
H11 C12 1_555 1_555
C13 C12 1_555 1_555
H12 C13 1_555 1_555
C14 C13 1_555 1_555
C15 C14 1_555 1_555
H13 C15 1_555 1_555
C16 C15 1_555 1_555
H14 C16 1_555 1_555
H15 C16 1_555 1_555
H16 C16 1_555 1_555
C17 N5 1_555 1_555
C18 N3 1_555 1_555
Cu1 N1 1_555 1_555
Cu2 N2 1_555 1_555
N1 C1 1_555 1_555
N2 C10 1_555 1_555
N3 Cu1 1_555 1_555
N4 C18 1_555 1_555
N5 Cu1 1_555 1_555
N6 C8 1_555 1_555
N7 Cu2A_2 1_555 1_555
N8 C9 1_555 1_555
O1 C6 1_555 1_555
O2 C15 1_555 1_555
Cu2A N6 1_555 1_555
N6A Cu2 1_555 1_555
N7A Cu2 1_555 1_555
C5 N1 1_555 1_555
C14 N2 1_555 1_555
C17 N8 1_555 1_555
Cu1 O1 1_555 1_555
Cu1 O2 1_555 1_555
Cu2 O1 1_555 1_555
Cu2 O2 1_555 1_555

#END
