
#######################################################################
#
#                 Cambridge Crystallographic Data Centre
#                                CCDC 
#
#######################################################################
#
# If this CIF has been generated from an entry in the Cambridge 
# Structural Database, then it will include bibliographic, chemical, 
# crystal, experimental, refinement or atomic coordinate data resulting 
# from the CCDC's data processing and validation procedures.
#
#######################################################################

data_XIGHOM
_symmetry_cell_setting           triclinic
_symmetry_space_group_name_H-M   'P -1'
_symmetry_Int_Tables_number      2
_space_group_name_Hall           '-P 1'
loop_
_symmetry_equiv_pos_site_id
_symmetry_equiv_pos_as_xyz
1 x,y,z
2 -x,-y,-z
_cell_length_a                   9.5581(4)
_cell_length_b                   10.3024(5)
_cell_length_c                   11.8449(5)
_cell_angle_alpha                83.516(4)
_cell_angle_beta                 70.759(4)
_cell_angle_gamma                69.978(4)
_cell_volume                     1034.67
loop_
_atom_site_label
_atom_site_type_symbol
_atom_site_fract_x
_atom_site_fract_y
_atom_site_fract_z
Zn1 Zn 0.23653(3) 0.58834(2) 0.65273(2)
C1 C 0.3052(3) 0.3206(2) 0.66847(19)
C2 C 0.7775(2) -0.1044(2) 0.64897(19)
C3 C 0.2789(2) -0.1519(2) 0.6479(2)
C4 C 0.3863(2) 0.1667(2) 0.66393(18)
C5 C 0.5401(2) 0.1081(2) 0.66394(18)
H1 H 0.5962 0.1640 0.6693
C6 C 0.6107(2) -0.0349(2) 0.65582(18)
C7 C 0.5251(2) -0.1178(2) 0.65165(18)
H2 H 0.5720 -0.2133 0.6484
C8 C 0.3716(2) -0.0612(2) 0.65226(18)
C9 C 0.3038(2) 0.0822(2) 0.65638(18)
H3 H 0.2015 0.1218 0.6540
C10 C 0.1635(3) 0.7162(2) 0.4275(2)
H4 H 0.1449 0.8059 0.4496
C11 C 0.2122(3) 0.5023(2) 0.4248(2)
H5 H 0.2351 0.4103 0.4489
C12 C 0.1272(3) 0.7676(2) 0.2242(2)
H6 H 0.0595 0.8595 0.2533
H7 H 0.0712 0.7297 0.1890
C13 C 0.2729(3) 0.7791(2) 0.1283(2)
C14 C 0.2565(3) 0.8891(3) 0.0489(2)
H8 H 0.1575 0.9518 0.0552
C15 C 0.3852(4) 0.9061(3) -0.0390(3)
H9 H 0.3730 0.9801 -0.0918
C16 C 0.5331(3) 0.8129(3) -0.0489(2)
H10 H 0.6201 0.8248 -0.1081
C17 C 0.5517(3) 0.7028(3) 0.0288(2)
C18 C 0.4206(3) 0.6875(2) 0.1173(2)
H11 H 0.4328 0.6137 0.1703
C19 C 0.7082(3) 0.5950(3) 0.0221(2)
H12 H 0.7144 0.5752 0.1027
H13 H 0.7125 0.5107 -0.0100
C20 C 0.9369(3) 0.5896(2) -0.1589(2)
H14 H 0.9208 0.5323 -0.2052
C21 C 1.0263(3) 0.7163(3) -0.0968(2)
H15 H 1.0902 0.7662 -0.0947
N1 N 0.1980(2) 0.60550(18) 0.49401(16)
N2 N 0.1592(2) 0.68149(18) 0.32498(16)
N3 N 0.1909(3) 0.5430(2) 0.32163(19)
N4 N 1.0552(2) 0.63902(18) -0.19242(16)
N5 N 0.8452(2) 0.6328(2) -0.05046(18)
N6 N 0.9018(3) 0.7153(2) -0.0079(2)
O1 O 0.16695(18) 0.36569(15) 0.67155(15)
O2 O 0.38487(18) 0.39913(14) 0.66588(15)
O3 O 0.85011(18) -0.02043(16) 0.65877(18)
H16 H 0.9414 -0.0649 0.6537
O4 O 0.8417(2) -0.22633(17) 0.6352(2)
O5 O 0.34611(18) -0.28102(15) 0.65390(15)
O6 O 0.14638(19) -0.09721(17) 0.63887(18)
Zn1_2 Zn 0.23653(3) -0.41166(2) 0.65273(2)
Zn1_3 Zn 1.23653(3) 0.58834(2) -0.34727(2)
N4_2 N 0.0552(2) 0.63902(18) 0.80758(16)
O5_2 O 0.34611(18) 0.71898(15) 0.65390(15)
loop_
_geom_bond_atom_site_label_1
_geom_bond_atom_site_label_2
_geom_bond_site_symmetry_1
_geom_bond_site_symmetry_2
Zn1 N1 1_555 1_555
C1 C4 1_555 1_555
C2 C6 1_555 1_555
C3 C8 1_555 1_555
C4 C5 1_555 1_555
C5 H1 1_555 1_555
C6 C5 1_555 1_555
C7 C6 1_555 1_555
H2 C7 1_555 1_555
C8 C7 1_555 1_555
C9 C4 1_555 1_555
H3 C9 1_555 1_555
C10 H4 1_555 1_555
C11 H5 1_555 1_555
C12 H6 1_555 1_555
H7 C12 1_555 1_555
C13 C12 1_555 1_555
C14 C13 1_555 1_555
H8 C14 1_555 1_555
C15 C14 1_555 1_555
H9 C15 1_555 1_555
C16 C15 1_555 1_555
H10 C16 1_555 1_555
C17 C16 1_555 1_555
C18 C13 1_555 1_555
H11 C18 1_555 1_555
C19 C17 1_555 1_555
H12 C19 1_555 1_555
H13 C19 1_555 1_555
C20 H14 1_555 1_555
C21 H15 1_555 1_555
N1 C10 1_555 1_555
N2 C10 1_555 1_555
N3 C11 1_555 1_555
N4 C20 1_555 1_555
N5 C19 1_555 1_555
N6 C21 1_555 1_555
O1 C1 1_555 1_555
O2 Zn1 1_555 1_555
O3 C2 1_555 1_555
H16 O3 1_555 1_555
O4 C2 1_555 1_555
O5 C3 1_555 1_555
O6 C3 1_555 1_555
Zn1_2 O5 1_555 1_555
Zn1_3 N4 1_555 1_555
N4_2 Zn1 1_555 1_555
O5_2 Zn1 1_555 1_555
C1 O2 1_555 1_555
C8 C9 1_555 1_555
C11 N1 1_555 1_555
C12 N2 1_555 1_555
C17 C18 1_555 1_555
C20 N5 1_555 1_555
C21 N4 1_555 1_555
N2 N3 1_555 1_555
N5 N6 1_555 1_555

#END
