
#######################################################################
#
#                 Cambridge Crystallographic Data Centre
#                                CCDC 
#
#######################################################################
#
# If this CIF has been generated from an entry in the Cambridge 
# Structural Database, then it will include bibliographic, chemical, 
# crystal, experimental, refinement or atomic coordinate data resulting 
# from the CCDC's data processing and validation procedures.
#
#######################################################################

data_XIGJEE
_symmetry_cell_setting           triclinic
_symmetry_space_group_name_H-M   'P -1'
_symmetry_Int_Tables_number      2
_space_group_name_Hall           '-P 1'
loop_
_symmetry_equiv_pos_site_id
_symmetry_equiv_pos_as_xyz
1 x,y,z
2 -x,-y,-z
_cell_length_a                   10.122(2)
_cell_length_b                   11.522(3)
_cell_length_c                   12.223(3)
_cell_angle_alpha                67.343(4)
_cell_angle_beta                 88.969(5)
_cell_angle_gamma                71.665(4)
_cell_volume                     1240.03
loop_
_atom_site_label
_atom_site_type_symbol
_atom_site_fract_x
_atom_site_fract_y
_atom_site_fract_z
Zn1 Zn 0.52070(8) 0.26955(7) 0.69063(11)
C1 C 0.0865(6) 0.4186(6) 0.6552(6)
C2 C 0.0405(6) 0.5516(6) 0.6394(6)
H1 H 0.1040 0.5975 0.6275
C3 C -0.1006(6) 0.6165(6) 0.6414(6)
C4 C -0.1957(6) 0.5491(6) 0.6552(6)
H2 H -0.2906 0.5937 0.6523
C5 C -0.1504(6) 0.4155(6) 0.6732(7)
C6 C -0.0092(6) 0.3515(6) 0.6705(6)
H3 H 0.0212 0.2631 0.6791
C7 C 0.2400(6) 0.3437(6) 0.6590(7)
C8 C -0.1506(7) 0.7571(6) 0.6318(7)
C9 C -0.2482(7) 0.3381(6) 0.6935(7)
C10 C 0.6875(8) -0.0006(8) 0.8785(9)
H4 H 0.7681 0.0222 0.8770
C11 C 0.4842(8) 0.0026(7) 0.8466(8)
H5 H 0.3907 0.0328 0.8155
C12 C 0.7906(9) -0.2420(8) 1.0208(8)
H6 H 0.7505 -0.2942 1.0865
H7 H 0.8604 -0.2194 1.0541
C13 C 0.8595(9) -0.3236(8) 0.9523(8)
H8 H 0.9072 -0.2745 0.8914
H9 H 0.7884 -0.3387 0.9125
C14 C 0.9653(9) -0.4583(8) 1.0339(8)
H10 H 1.0366 -0.4430 1.0733
H11 H 0.9176 -0.5069 1.0951
C15 C 0.6062(7) 0.3249(7) 0.4463(9)
H12 H 0.6113 0.4067 0.4391
C16 C 0.5776(8) 0.1403(8) 0.5087(10)
H13 H 0.5571 0.0650 0.5579
C17 C 0.6778(9) 0.3343(8) 0.2496(9)
H14 H 0.7494 0.2678 0.2312
H15 H 0.7125 0.4057 0.2433
C18 C 0.541(2) 0.3880(17) 0.1662(19)
H16 H 0.5184 0.3144 0.1611
H17 H 0.4650 0.4367 0.1976
C19 C 0.558(2) 0.473(2) 0.0521(19)
H18 H 0.6443 0.4257 0.0292
H19 H 0.5728 0.5491 0.0594
N1 N 0.5669(5) 0.0817(6) 0.8155(6)
N2 N 0.5489(7) -0.1199(6) 0.9245(7)
N3 N 0.6802(7) -0.1193(6) 0.9441(6)
N4 N 0.5658(5) 0.2450(5) 0.5392(6)
N5 N 0.6201(7) 0.1552(6) 0.4049(8)
N6 N 0.6384(6) 0.2765(6) 0.3656(7)
O1 O -0.0473(5) 0.8041(5) 0.6285(6)
H20 H -0.0763 0.8749 0.6367
O2 O -0.2734(5) 0.8194(5) 0.6274(6)
O3 O -0.3786(4) 0.3985(4) 0.6748(5)
O4 O -0.1978(5) 0.2132(5) 0.7293(6)
O5 O 0.2757(4) 0.2346(4) 0.6524(5)
O6 O 0.3291(4) 0.3958(4) 0.6759(5)
C10A C 1.3125(8) -0.9994(8) 1.1215(9)
H4A H 1.2319 -1.0222 1.1230
C11A C 1.5158(8) -1.0026(7) 1.1534(8)
H5A H 1.6093 -1.0328 1.1845
C12A C 1.2094(9) -0.7580(8) 0.9792(8)
H6A H 1.2495 -0.7058 0.9135
H7A H 1.1396 -0.7806 0.9459
C13A C 1.1405(9) -0.6764(8) 1.0477(8)
H8A H 1.0928 -0.7255 1.1086
H9A H 1.2116 -0.6613 1.0875
C14A C 1.0347(9) -0.5417(8) 0.9661(8)
H10A H 0.9634 -0.5570 0.9267
H11A H 1.0824 -0.4931 0.9049
N1A N 1.4331(5) -1.0817(6) 1.1845(6)
N2A N 1.4511(7) -0.8801(6) 1.0755(7)
N3A N 1.3198(7) -0.8807(6) 1.0559(6)
C15A C 0.3938(7) 0.6751(7) -0.4463(9)
H12A H 0.3887 0.5933 -0.4391
C16A C 0.4224(8) 0.8597(8) -0.5087(10)
H13A H 0.4429 0.9350 -0.5579
C17A C 0.3222(9) 0.6657(8) -0.2496(9)
H14A H 0.2506 0.7322 -0.2312
H15A H 0.2875 0.5943 -0.2433
C18A C 0.459(2) 0.6120(17) -0.1662(19)
H16A H 0.4816 0.6856 -0.1611
H17A H 0.5350 0.5633 -0.1976
C19A C 0.442(2) 0.527(2) -0.0521(19)
H18A H 0.3557 0.5743 -0.0292
H19A H 0.4272 0.4509 -0.0594
N4A N 0.4342(5) 0.7550(5) -0.5392(6)
N5A N 0.3799(7) 0.8448(6) -0.4049(8)
N6A N 0.3616(6) 0.7235(6) -0.3656(7)
Zn1A Zn 0.47930(8) 0.73045(7) -0.69063(11)
C1A C 0.9135(6) 0.5814(6) -0.6552(6)
C2A C 0.9595(6) 0.4484(6) -0.6394(6)
H1A H 0.8960 0.4025 -0.6275
C3A C 1.1006(6) 0.3835(6) -0.6414(6)
C4A C 1.1957(6) 0.4509(6) -0.6552(6)
H2A H 1.2906 0.4063 -0.6523
C5A C 1.1504(6) 0.5845(6) -0.6732(7)
C6A C 1.0092(6) 0.6485(6) -0.6705(6)
H3A H 0.9788 0.7369 -0.6791
C7A C 0.7600(6) 0.6563(6) -0.6590(7)
C8A C 1.1506(7) 0.2429(6) -0.6318(7)
C9A C 1.2482(7) 0.6619(6) -0.6935(7)
O1A O 1.0473(5) 0.1959(5) -0.6285(6)
H20A H 1.0763 0.1251 -0.6367
O2A O 1.2734(5) 0.1806(5) -0.6274(6)
O3A O 1.3786(4) 0.6015(4) -0.6748(5)
O4A O 1.1978(5) 0.7868(5) -0.7293(6)
O5A O 0.7243(4) 0.7654(4) -0.6524(5)
O6A O 0.6709(4) 0.6042(4) -0.6759(5)
Zn1_2 Zn -0.47930(8) 0.26955(7) 0.69063(11)
Zn1A_2 Zn 1.47930(8) -1.26955(7) 1.30937(11)
Zn1A_3 Zn 1.47930(8) 0.73045(7) -0.69063(11)
N1A_2 N 0.4331(5) 0.9183(6) -0.8155(6)
O3_2 O 0.6214(4) 0.3985(4) 0.6748(5)
O3A_2 O 0.3786(4) 0.6015(4) -0.6748(5)
O7 O 0.1852(6) 0.0302(6) 0.6714(6)
H23 H 0.2156 0.0931 0.6650
H24 H 0.2447 -0.0239 0.6485
O8 O 0.9112(6) 0.0464(6) 0.6072(7)
H25 H 0.8659 0.0968 0.6407
H26 H 0.9979 0.0339 0.6201
O9 O 0.209(2) 0.873(2) 0.924(2)
C20? C 0.594(4) 0.386(3) 0.118(3)
H21? H 0.5777 0.3076 0.1178
H22? H 0.5031 0.4451 0.1214
C21? C 0.621(4) 0.446(4) 0.007(4)
O10? O 0.078(3) 1.012(3) 0.881(2)
O11? O 0.003(3) 1.080(3) 0.946(2)
O12? O 0.440(3) 0.724(2) 0.097(2)
loop_
_geom_bond_atom_site_label_1
_geom_bond_atom_site_label_2
_geom_bond_site_symmetry_1
_geom_bond_site_symmetry_2
Zn1 N1 1_555 1_555
C1 C2 1_555 1_555
C2 H1 1_555 1_555
C3 C2 1_555 1_555
C4 C3 1_555 1_555
H2 C4 1_555 1_555
C5 C4 1_555 1_555
C6 C1 1_555 1_555
H3 C6 1_555 1_555
C7 C1 1_555 1_555
C8 C3 1_555 1_555
C9 C5 1_555 1_555
C10 H4 1_555 1_555
C11 H5 1_555 1_555
C12 H6 1_555 1_555
H7 C12 1_555 1_555
C13 C12 1_555 1_555
H8 C13 1_555 1_555
H9 C13 1_555 1_555
C14 C13 1_555 1_555
H10 C14 1_555 1_555
H11 C14 1_555 1_555
C15 H12 1_555 1_555
C16 H13 1_555 1_555
C17 H14 1_555 1_555
H15 C17 1_555 1_555
C18 C17 1_555 1_555
H16 C18 1_555 1_555
H17 C18 1_555 1_555
C19 C18 1_555 1_555
H18 C19 1_555 1_555
H19 C19 1_555 1_555
N1 C10 1_555 1_555
N2 C11 1_555 1_555
N3 C10 1_555 1_555
N4 Zn1 1_555 1_555
N5 C16 1_555 1_555
N6 C15 1_555 1_555
O1 C8 1_555 1_555
H20 O1 1_555 1_555
O2 C8 1_555 1_555
O3 C9 1_555 1_555
O4 C9 1_555 1_555
O5 C7 1_555 1_555
O6 Zn1 1_555 1_555
O7 H23 1_555 1_555
H24 O7 1_555 1_555
O8 H25 1_555 1_555
H26 O8 1_555 1_555
C10A H4A 1_555 1_555
C11A H5A 1_555 1_555
C12A H6A 1_555 1_555
H7A C12A 1_555 1_555
C13A C12A 1_555 1_555
H8A C13A 1_555 1_555
H9A C13A 1_555 1_555
C14A C14 1_555 1_555
H10A C14A 1_555 1_555
H11A C14A 1_555 1_555
N1A C10A 1_555 1_555
N2A C11A 1_555 1_555
N3A C10A 1_555 1_555
C15A H12A 1_555 1_555
C16A H13A 1_555 1_555
C17A H14A 1_555 1_555
H15A C17A 1_555 1_555
C18A C17A 1_555 1_555
H16A C18A 1_555 1_555
H17A C18A 1_555 1_555
C19A C19 1_555 1_555
H18A C19A 1_555 1_555
H19A C19A 1_555 1_555
N4A C15A 1_555 1_555
N5A C16A 1_555 1_555
N6A C15A 1_555 1_555
Zn1A N4A 1_555 1_555
C1A C2A 1_555 1_555
C2A H1A 1_555 1_555
C3A C2A 1_555 1_555
C4A C3A 1_555 1_555
H2A C4A 1_555 1_555
C5A C4A 1_555 1_555
C6A C1A 1_555 1_555
H3A C6A 1_555 1_555
C7A C1A 1_555 1_555
C8A C3A 1_555 1_555
C9A C5A 1_555 1_555
O1A C8A 1_555 1_555
H20A O1A 1_555 1_555
O2A C8A 1_555 1_555
O3A C9A 1_555 1_555
O4A C9A 1_555 1_555
O5A C7A 1_555 1_555
O6A Zn1A 1_555 1_555
Zn1_2 O3 1_555 1_555
Zn1A_2 N1A 1_555 1_555
Zn1A_3 O3A 1_555 1_555
N1A_2 Zn1A 1_555 1_555
O3_2 Zn1 1_555 1_555
O3A_2 Zn1A 1_555 1_555
C5 C6 1_555 1_555
C7 O6 1_555 1_555
C11 N1 1_555 1_555
C12 N3 1_555 1_555
C15 N4 1_555 1_555
C16 N4 1_555 1_555
C17 N6 1_555 1_555
N2 N3 1_555 1_555
N5 N6 1_555 1_555
C11A N1A 1_555 1_555
C12A N3A 1_555 1_555
C13A C14A 1_555 1_555
N2A N3A 1_555 1_555
C16A N4A 1_555 1_555
C17A N6A 1_555 1_555
C18A C19A 1_555 1_555
N5A N6A 1_555 1_555
C5A C6A 1_555 1_555
C7A O6A 1_555 1_555

#END
