
#######################################################################
#
#                 Cambridge Crystallographic Data Centre
#                                CCDC 
#
#######################################################################
#
# If this CIF has been generated from an entry in the Cambridge 
# Structural Database, then it will include bibliographic, chemical, 
# crystal, experimental, refinement or atomic coordinate data resulting 
# from the CCDC's data processing and validation procedures.
#
#######################################################################

data_XIGROW
_symmetry_cell_setting           monoclinic
_symmetry_space_group_name_H-M   'P 21/c'
_symmetry_Int_Tables_number      14
_space_group_name_Hall           '-P 2ybc'
loop_
_symmetry_equiv_pos_site_id
_symmetry_equiv_pos_as_xyz
1 x,y,z
2 -x,1/2+y,1/2-z
3 -x,-y,-z
4 x,1/2-y,1/2+z
_cell_length_a                   8.905(3)
_cell_length_b                   11.572(4)
_cell_length_c                   14.981(4)
_cell_angle_alpha                90
_cell_angle_beta                 120.870(14)
_cell_angle_gamma                90
_cell_volume                     1325.07
loop_
_atom_site_label
_atom_site_type_symbol
_atom_site_fract_x
_atom_site_fract_y
_atom_site_fract_z
C1 C 0.2560(7) 0.5365(4) -0.2575(4)
C2 C 0.5288(6) 0.9766(4) 0.1383(4)
C3 C 0.6944(6) 0.9759(4) 0.2273(4)
H1 H 0.7641 0.9079 0.2483
C4 C 0.7552(6) 1.0774(4) 0.2849(4)
C5 C 0.6536(6) 1.1753(4) 0.2579(4)
H2 H 0.6962 1.2430 0.2995
C6 C 0.4887(7) 1.1741(4) 0.1697(4)
H3 H 0.4183 1.2417 0.1507
C7 C 0.4247(6) 1.0766(4) 0.1088(4)
H4 H 0.3119 1.0769 0.0478
C8 C 0.3004(6) 0.8556(4) -0.0074(4)
H5 H 0.2109 0.9126 -0.0364
C9 C 0.5457(6) 0.7701(4) 0.0914(4)
H6 H 0.6623 0.7539 0.1450
C10 C 1.0009(7) 1.1398(4) 0.4616(4)
H7 H 0.9354 1.1857 0.4822
C11 C 1.0712(7) 1.0289(4) 0.3739(4)
H8 H 1.0644 0.9815 0.3202
Cd1 Cd 0.5000 0.5000 0.0000
N1 N 0.3765(6) 0.5252(4) -0.1750(4)
N2 N 0.4411(5) 0.6965(3) 0.0199(3)
N3 N 0.2833(5) 0.7517(4) -0.0438(3)
N4 N 0.4625(5) 0.8730(3) 0.0775(3)
N5 N 1.2170(5) 1.0540(4) 0.4605(3)
N6 N 1.1720(6) 1.1260(4) 0.5169(3)
N7 N 0.9311(5) 1.0796(3) 0.3712(3)
S1 S 0.08462(19) 0.55252(13) -0.37544(11)
C1B C 0.7440(7) 0.4635(4) 0.2575(4)
C2B C 0.4712(6) 0.0234(4) -0.1383(4)
C3B C 0.3056(6) 0.0241(4) -0.2273(4)
H1B H 0.2359 0.0921 -0.2483
C4B C 0.2448(6) -0.0774(4) -0.2849(4)
C5B C 0.3464(6) -0.1753(4) -0.2579(4)
H2B H 0.3038 -0.2430 -0.2995
C6B C 0.5113(7) -0.1741(4) -0.1697(4)
H3B H 0.5817 -0.2417 -0.1507
C7B C 0.5753(6) -0.0766(4) -0.1088(4)
H4B H 0.6881 -0.0769 -0.0478
C8B C 0.6996(6) 0.1444(4) 0.0074(4)
H5B H 0.7891 0.0874 0.0364
C9B C 0.4543(6) 0.2299(4) -0.0914(4)
H6B H 0.3377 0.2461 -0.1450
C10B C -0.0009(7) -0.1398(4) -0.4616(4)
H7B H 0.0646 -0.1857 -0.4822
C11B C -0.0712(7) -0.0289(4) -0.3739(4)
H8B H -0.0644 0.0185 -0.3202
N1B N 0.6235(6) 0.4748(4) 0.1750(4)
N2B N 0.5589(5) 0.3035(3) -0.0199(3)
N3B N 0.7167(5) 0.2483(4) 0.0438(3)
N4B N 0.5375(5) 0.1270(3) -0.0775(3)
N5B N -0.2170(5) -0.0540(4) -0.4605(3)
N6B N -0.1720(6) -0.1260(4) -0.5169(3)
N7B N 0.0689(5) -0.0796(3) -0.3712(3)
S1B S 0.91538(19) 0.44748(13) 0.37544(11)
Cd1A Cd -0.5000 0.0000 -0.5000
Cd1A_2 Cd 1.5000 1.0000 0.5000
N5A N 0.7830(5) 0.5540(4) 0.0395(3)
N5C N 0.2170(5) 0.4460(4) -0.0395(3)
O1 O 0.9612(6) 0.7379(5) 0.7515(4)
H9 H 0.914(8) 0.771(7) 0.785(5)
H10 H 1.069(3) 0.725(6) 0.793(4)
loop_
_geom_bond_atom_site_label_1
_geom_bond_atom_site_label_2
_geom_bond_site_symmetry_1
_geom_bond_site_symmetry_2
C1 N1 1_555 1_555
C2 C3 1_555 1_555
C3 H1 1_555 1_555
C4 C3 1_555 1_555
C5 C4 1_555 1_555
H2 C5 1_555 1_555
C6 C5 1_555 1_555
H3 C6 1_555 1_555
C7 C2 1_555 1_555
H4 C7 1_555 1_555
C8 H5 1_555 1_555
C9 H6 1_555 1_555
C10 H7 1_555 1_555
C11 H8 1_555 1_555
Cd1 N1 1_555 1_555
N2 C9 1_555 1_555
N3 C8 1_555 1_555
N4 C2 1_555 1_555
N5 C11 1_555 1_555
N6 C10 1_555 1_555
N7 C4 1_555 1_555
S1 C1 1_555 1_555
O1 H9 1_555 1_555
H10 O1 1_555 1_555
C1B N1B 1_555 1_555
C2B C3B 1_555 1_555
C3B H1B 1_555 1_555
C4B C3B 1_555 1_555
C5B C4B 1_555 1_555
H2B C5B 1_555 1_555
C6B C5B 1_555 1_555
H3B C6B 1_555 1_555
C7B C2B 1_555 1_555
H4B C7B 1_555 1_555
C8B H5B 1_555 1_555
C9B H6B 1_555 1_555
C10B H7B 1_555 1_555
C11B H8B 1_555 1_555
N1B Cd1 1_555 1_555
N2B Cd1 1_555 1_555
N3B C8B 1_555 1_555
N4B C2B 1_555 1_555
N5B C11B 1_555 1_555
N6B C10B 1_555 1_555
N7B C4B 1_555 1_555
S1B C1B 1_555 1_555
Cd1A N5B 1_555 1_555
Cd1A_2 N5 1_555 1_555
N5A Cd1 1_555 1_555
N5C Cd1 1_555 1_555
C6 C7 1_555 1_555
C8 N4 1_555 1_555
C9 N4 1_555 1_555
C10 N7 1_555 1_555
C11 N7 1_555 1_555
Cd1 N2 1_555 1_555
N2 N3 1_555 1_555
N5 N6 1_555 1_555
C6B C7B 1_555 1_555
C8B N4B 1_555 1_555
C9B N2B 1_555 1_555
C9B N4B 1_555 1_555
C10B N7B 1_555 1_555
C11B N7B 1_555 1_555
N2B N3B 1_555 1_555
N5B N6B 1_555 1_555

#END
