
#######################################################################
#
#                 Cambridge Crystallographic Data Centre
#                                CCDC 
#
#######################################################################
#
# If this CIF has been generated from an entry in the Cambridge 
# Structural Database, then it will include bibliographic, chemical, 
# crystal, experimental, refinement or atomic coordinate data resulting 
# from the CCDC's data processing and validation procedures.
#
#######################################################################

data_XIHBEX
_symmetry_cell_setting           orthorhombic
_symmetry_space_group_name_H-M   'P c c n'
_symmetry_Int_Tables_number      56
_space_group_name_Hall           '-P 2ab 2ac'
loop_
_symmetry_equiv_pos_site_id
_symmetry_equiv_pos_as_xyz
1 x,y,z
2 1/2-x,1/2-y,z
3 1/2+x,-y,1/2-z
4 -x,1/2+y,1/2-z
5 -x,-y,-z
6 1/2+x,1/2+y,-z
7 1/2-x,y,1/2+z
8 x,1/2-y,1/2+z
_cell_length_a                   21.9740(5)
_cell_length_b                   22.0037(16)
_cell_length_c                   9.3786(11)
_cell_angle_alpha                90
_cell_angle_beta                 90
_cell_angle_gamma                90
_cell_volume                     4534.64
loop_
_atom_site_label
_atom_site_type_symbol
_atom_site_fract_x
_atom_site_fract_y
_atom_site_fract_z
I1 I 0.0000 0.5000 0.5000
Br1 Br -0.00495(4) 0.52613(4) 0.80588(9)
Br1D Br 0.00495(4) 0.47387(4) 0.19412(9)
O5 O 0.7335(2) 0.6262(2) 0.0924(6)
O6 O 0.6371(2) 0.7100(2) 0.1249(7)
O7 O 0.8517(2) 0.6744(2) 0.0840(7)
C11 C 0.5981(3) 0.7457(4) 0.2007(9)
C12 C 0.8974(3) 0.6922(4) 0.1777(10)
C13 C 0.8391(4) 0.6109(4) 0.0750(11)
H13 H 0.8370 0.5931 0.1718
H14 H 0.8719 0.5900 0.0215
C14 C 0.7800(4) 0.6030(4) 0.0006(10)
H15 H 0.7802 0.6255 -0.0908
H16 H 0.7727 0.5595 -0.0197
C15 C 0.6741(4) 0.6187(4) 0.0318(10)
H17 H 0.6651 0.5749 0.0198
H18 H 0.6724 0.6383 -0.0632
C16 C 0.5546(3) 0.7231(4) 0.2986(10)
H19 H 0.5515 0.6807 0.3158
C17 C 0.5166(4) 0.7632(5) 0.3694(10)
H20 H 0.4869 0.7483 0.4342
C18 C 0.6285(3) 0.6467(4) 0.1272(10)
H21 H 0.5869 0.6365 0.0944
H22 H 0.6336 0.6311 0.2255
C19 C 0.9348(3) 0.6520(4) 0.2500(11)
H23 H 0.9313 0.6095 0.2352
C20 C 0.5219(4) 0.8244(5) 0.3459(12)
H24 H 0.4957 0.8515 0.3953
Na2 Na 0.7500 0.7500 0.1015(6)
O8 O 0.7500 0.7500 -0.129(3)
O5A O 0.7665(2) 0.8738(2) 0.0924(6)
O6A O 0.8629(2) 0.7900(2) 0.1249(7)
O7A O 0.6483(2) 0.8256(2) 0.0840(7)
C11A C 0.9019(3) 0.7543(4) 0.2007(9)
C12A C 0.6026(3) 0.8078(4) 0.1777(10)
C13A C 0.6609(4) 0.8891(4) 0.0750(11)
H13A H 0.6630 0.9069 0.1718
H14A H 0.6281 0.9100 0.0215
C14A C 0.7200(4) 0.8970(4) 0.0006(10)
H15A H 0.7198 0.8745 -0.0908
H16A H 0.7273 0.9405 -0.0197
C15A C 0.8259(4) 0.8813(4) 0.0318(10)
H17A H 0.8349 0.9251 0.0198
H18A H 0.8276 0.8617 -0.0632
C16A C 0.9454(3) 0.7769(4) 0.2986(10)
H19A H 0.9485 0.8193 0.3158
C17A C 0.9834(4) 0.7368(5) 0.3694(10)
H20A H 1.0131 0.7517 0.4342
C18A C 0.8715(3) 0.8533(4) 0.1272(10)
H21A H 0.9131 0.8635 0.0944
H22A H 0.8664 0.8689 0.2255
C19A C 0.5652(3) 0.8480(4) 0.2500(11)
H23A H 0.5687 0.8905 0.2352
C20A C 0.9781(4) 0.6756(5) 0.3459(12)
H24A H 1.0043 0.6485 0.3953
Na2F Na 0.7500 0.7500 -0.3985(6)
O8F O 0.7500 0.7500 0.371(3)
C1 C 0.3690(4) 0.8621(4) 0.0232(10)
H1 H 0.3825 0.9019 0.0603
H2 H 0.3860 0.8565 -0.0736
O1 O 0.2500 0.7500 0.274(3)
Na1 Na 0.2500 0.7500 0.0296(6)
O2 O 0.3048(2) 0.8594(3) 0.0190(6)
O3 O 0.3772(2) 0.7546(3) 0.0480(6)
O4 O 0.1882(3) 0.8555(3) 0.0341(6)
C2 C 0.2738(4) 0.9004(4) -0.0655(9)
C3 C 0.3907(4) 0.7042(4) 0.1325(10)
H3 H 0.3663 0.7052 0.2212
H4 H 0.4343 0.7045 0.1588
C4 C 0.2113(4) 0.8997(3) -0.0551(9)
C5 C 0.1772(4) 0.9394(4) -0.1352(10)
H5 H 0.1341 0.9381 -0.1280
C6 C 0.3016(4) 0.9419(4) -0.1570(9)
H6 H 0.3447 0.9431 -0.1643
C7 C 0.1239(4) 0.8514(4) 0.0488(10)
H7 H 0.1046 0.8492 -0.0464
H8 H 0.1082 0.8879 0.0985
C8 C 0.3895(4) 0.8124(4) 0.1190(10)
H9 H 0.4336 0.8164 0.1385
H10 H 0.3674 0.8144 0.2108
C9 C 0.2666(5) 0.9813(4) -0.2371(10)
H11 H 0.2859 1.0089 -0.3007
C10 C 0.2037(5) 0.9810(4) -0.2257(10)
H12 H 0.1795 1.0088 -0.2787
C1A C 0.1310(4) 0.6379(4) 0.0232(10)
H1A H 0.1175 0.5981 0.0603
H2A H 0.1140 0.6435 -0.0736
O2A O 0.1952(2) 0.6406(3) 0.0190(6)
O3A O 0.1228(2) 0.7454(3) 0.0480(6)
O4A O 0.3118(3) 0.6445(3) 0.0341(6)
C2A C 0.2262(4) 0.5996(4) -0.0655(9)
C3A C 0.1093(4) 0.7958(4) 0.1325(10)
H3A H 0.1337 0.7948 0.2212
H4A H 0.0657 0.7955 0.1588
C4A C 0.2887(4) 0.6003(3) -0.0551(9)
C5A C 0.3228(4) 0.5606(4) -0.1352(10)
H5A H 0.3659 0.5619 -0.1280
C6A C 0.1984(4) 0.5581(4) -0.1570(9)
H6A H 0.1553 0.5569 -0.1643
C7A C 0.3761(4) 0.6486(4) 0.0488(10)
H7A H 0.3954 0.6508 -0.0464
H8A H 0.3918 0.6121 0.0985
C8A C 0.1105(4) 0.6876(4) 0.1190(10)
H9A H 0.0664 0.6836 0.1385
H10A H 0.1326 0.6856 0.2108
C9A C 0.2334(5) 0.5187(4) -0.2371(10)
H11A H 0.2141 0.4911 -0.3007
C10A C 0.2963(5) 0.5190(4) -0.2257(10)
H12A H 0.3205 0.4912 -0.2787
O1F O 0.2500 0.7500 -0.226(3)
Na1F Na 0.2500 0.7500 0.5296(6)
loop_
_geom_bond_atom_site_label_1
_geom_bond_atom_site_label_2
_geom_bond_site_symmetry_1
_geom_bond_site_symmetry_2
C1 H1 1_555 1_555
H2 C1 1_555 1_555
O1 Na1 1_555 1_555
Na1 O2 1_555 1_555
O2 C1 1_555 1_555
O3 Na1 1_555 1_555
O4 Na1 1_555 1_555
C2 O2 1_555 1_555
C3 O3 1_555 1_555
H3 C3 1_555 1_555
H4 C3 1_555 1_555
C4 O4 1_555 1_555
C5 C4 1_555 1_555
H5 C5 1_555 1_555
C6 C2 1_555 1_555
H6 C6 1_555 1_555
C7 O4 1_555 1_555
H7 C7 1_555 1_555
H8 C7 1_555 1_555
C8 C1 1_555 1_555
H9 C8 1_555 1_555
H10 C8 1_555 1_555
C9 C6 1_555 1_555
H11 C9 1_555 1_555
C10 C5 1_555 1_555
H12 C10 1_555 1_555
I1 Br1 1_555 1_555
O5 C14 1_555 1_555
O6 C11 1_555 1_555
O7 C12 1_555 1_555
C11 C16 1_555 1_555
C12 C19 1_555 1_555
C13 O7 1_555 1_555
H13 C13 1_555 1_555
H14 C13 1_555 1_555
C14 C13 1_555 1_555
H15 C14 1_555 1_555
H16 C14 1_555 1_555
C15 O5 1_555 1_555
H17 C15 1_555 1_555
H18 C15 1_555 1_555
C16 H19 1_555 1_555
C17 C16 1_555 1_555
H20 C17 1_555 1_555
C18 O6 1_555 1_555
H21 C18 1_555 1_555
H22 C18 1_555 1_555
C19 H23 1_555 1_555
C20 C17 1_555 1_555
H24 C20 1_555 1_555
Na2 O5 1_555 1_555
O8 Na2 1_555 1_555
C1A H1A 1_555 1_555
H2A C1A 1_555 1_555
O2A Na1 1_555 1_555
O3A Na1 1_555 1_555
O4A Na1 1_555 1_555
C2A O2A 1_555 1_555
C3A C7 1_555 1_555
H3A C3A 1_555 1_555
H4A C3A 1_555 1_555
C4A O4A 1_555 1_555
C5A C4A 1_555 1_555
H5A C5A 1_555 1_555
C6A C2A 1_555 1_555
H6A C6A 1_555 1_555
C7A C3 1_555 1_555
H7A C7A 1_555 1_555
H8A C7A 1_555 1_555
C8A C1A 1_555 1_555
H9A C8A 1_555 1_555
H10A C8A 1_555 1_555
C9A C6A 1_555 1_555
H11A C9A 1_555 1_555
C10A C5A 1_555 1_555
H12A C10A 1_555 1_555
O1F Na1 1_555 1_555
Na1F O1 1_555 1_555
Br1D I1 1_555 1_555
O5A Na2 1_555 1_555
O6A Na2 1_555 1_555
O7A Na2 1_555 1_555
C11A C12 1_555 1_555
C12A C11 1_555 1_555
C13A O7A 1_555 1_555
H13A C13A 1_555 1_555
H14A C13A 1_555 1_555
C14A O5A 1_555 1_555
H15A C14A 1_555 1_555
H16A C14A 1_555 1_555
C15A O5A 1_555 1_555
H17A C15A 1_555 1_555
H18A C15A 1_555 1_555
C16A C11A 1_555 1_555
H19A C16A 1_555 1_555
C17A C16A 1_555 1_555
H20A C17A 1_555 1_555
C18A O6A 1_555 1_555
H21A C18A 1_555 1_555
H22A C18A 1_555 1_555
C19A C20 1_555 1_555
H23A C19A 1_555 1_555
C20A C19 1_555 1_555
H24A C20A 1_555 1_555
Na2F O8 1_555 1_555
O8F Na2 1_555 1_555
O3 C8 1_555 1_555
C2 C4 1_555 1_555
C9 C10 1_555 1_555
O6 Na2 1_555 1_555
O7 Na2 1_555 1_555
C15 C18 1_555 1_555
C1A O2A 1_555 1_555
O3A C3A 1_555 1_555
O3A C8A 1_555 1_555
O4A C7A 1_555 1_555
C2A C4A 1_555 1_555
C9A C10A 1_555 1_555
O6A C11A 1_555 1_555
O7A C12A 1_555 1_555
C12A C19A 1_555 1_555
C13A C14A 1_555 1_555
C15A C18A 1_555 1_555
C17A C20A 1_555 1_555

#END
