
#######################################################################
#
#                 Cambridge Crystallographic Data Centre
#                                CCDC 
#
#######################################################################
#
# If this CIF has been generated from an entry in the Cambridge 
# Structural Database, then it will include bibliographic, chemical, 
# crystal, experimental, refinement or atomic coordinate data resulting 
# from the CCDC's data processing and validation procedures.
#
#######################################################################

data_XIHPUA
_symmetry_cell_setting           monoclinic
_symmetry_space_group_name_H-M   'C 2/c'
_symmetry_Int_Tables_number      15
_space_group_name_Hall           '-C 2yn'
loop_
_symmetry_equiv_pos_site_id
_symmetry_equiv_pos_as_xyz
1 x,y,z
2 1/2+x,1/2+y,z
3 -x,y,1/2-z
4 1/2-x,1/2+y,1/2-z
5 -x,-y,-z
6 1/2-x,1/2-y,-z
7 x,-y,1/2+z
8 1/2+x,1/2-y,1/2+z
_cell_length_a                   13.923(5)
_cell_length_b                   15.934(6)
_cell_length_c                   15.897(6)
_cell_angle_alpha                90
_cell_angle_beta                 96.470(5)
_cell_angle_gamma                90
_cell_volume                     3504.27
loop_
_atom_site_label
_atom_site_type_symbol
_atom_site_fract_x
_atom_site_fract_y
_atom_site_fract_z
Ce1 Ce 0.0000 0.925093(19) 0.2500
N1 N 0.3442(2) 0.83964(19) 0.55703(19)
H1 H 0.3982 0.8132 0.5584
N2 N 0.2316(2) 0.8852(2) -0.05498(19)
H2 H 0.2308 0.8970 -0.1079
O1 O 0.1565(2) 0.87218(19) 0.33095(16)
O2 O 0.0736(2) 0.96191(18) 0.40012(16)
O3 O 0.1120(2) 0.97544(19) 0.70231(17)
O4 O 0.2353(2) 0.9172(2) 0.78006(18)
O5 O 0.05501(19) 0.81459(17) 0.16428(16)
O6 O 0.0133(2) 0.74395(19) 0.04506(17)
O7 O 0.4223(2) 0.8557(2) 0.20274(19)
O8 O 0.4494(3) 0.9711(2) 0.1316(2)
C1 C 0.3429(3) 0.8226(3) 0.4065(2)
H3 H 0.4047 0.7990 0.4264
H4 H 0.3515 0.8688 0.3694
H5 H 0.3033 0.7806 0.3764
C2 C 0.2948(3) 0.8529(2) 0.4803(2)
C3 C 0.2073(3) 0.8950(2) 0.4777(2)
C4 C 0.1766(3) 0.9221(2) 0.5540(2)
H6 H 0.1187 0.9514 0.5527
C5 C 0.2295(3) 0.9068(2) 0.6314(2)
C6 C 0.3165(3) 0.8642(2) 0.6323(2)
C7 C 0.3853(3) 0.8420(3) 0.7071(3)
H7 H 0.3534 0.8070 0.7445
H8 H 0.4077 0.8923 0.7362
H9 H 0.4393 0.8123 0.6889
C8 C 0.1424(3) 0.9112(2) 0.3973(2)
C9 C 0.1894(3) 0.9354(2) 0.7120(2)
C10 C 0.0705(3) 0.8349(3) -0.0993(2)
H10 H 0.0792 0.8698 -0.1471
H11 H 0.0102 0.8484 -0.0787
H12 H 0.0700 0.7770 -0.1162
C11 C 0.1514(3) 0.8494(2) -0.0310(2)
C12 C 0.1522(3) 0.8308(2) 0.0545(2)
C13 C 0.2352(3) 0.8499(2) 0.1088(2)
H13 H 0.2360 0.8378 0.1661
C14 C 0.3162(3) 0.8861(2) 0.0810(2)
C15 C 0.3130(3) 0.9046(2) -0.0046(2)
C16 C 0.3914(3) 0.9435(3) -0.0484(3)
H14 H 0.3676 0.9547 -0.1063
H15 H 0.4453 0.9058 -0.0463
H16 H 0.4116 0.9952 -0.0207
C17 C 0.0651(3) 0.7935(2) 0.0899(2)
C18 C 0.4044(3) 0.9079(3) 0.1424(3)
H17 H 0.5000 0.866(5) 0.2500
Ce1F Ce 0.0000 1.074907(19) 0.7500
Ce1_2 Ce 1.0000 0.925093(19) 0.2500
Ce1F_2 Ce 0.0000 1.074907(19) -0.2500
N1B N -0.3442(2) 0.83964(19) -0.05703(19)
H1B H -0.3982 0.8132 -0.0584
N2B N 0.7684(2) 0.8852(2) 0.55498(19)
H2B H 0.7692 0.8970 0.6079
O1B O -0.1565(2) 0.87218(19) 0.16905(16)
O2B O -0.0736(2) 0.96191(18) 0.09988(16)
O3B O -0.1120(2) 0.97544(19) -0.20231(17)
O3F O 0.1120(2) 1.02456(19) 0.20231(17)
O3D O -0.1120(2) 1.02456(19) 0.29769(17)
O4B O -0.2353(2) 0.9172(2) -0.28006(18)
O5B O 0.94499(19) 0.81459(17) 0.33572(16)
O5B_2 O -0.05501(19) 0.81459(17) 0.33572(16)
O6B O 0.9867(2) 0.74395(19) 0.45494(17)
O7B O 0.5777(2) 0.8557(2) 0.29726(19)
O8B O 0.5506(3) 0.9711(2) 0.3684(2)
C1B C -0.3429(3) 0.8226(3) 0.0935(2)
H3B H -0.4047 0.7990 0.0736
H4B H -0.3515 0.8688 0.1306
H5B H -0.3033 0.7806 0.1236
C2B C -0.2948(3) 0.8529(2) 0.0197(2)
C3B C -0.2073(3) 0.8950(2) 0.0223(2)
C4B C -0.1766(3) 0.9221(2) -0.0540(2)
H6B H -0.1187 0.9514 -0.0527
C5B C -0.2295(3) 0.9068(2) -0.1314(2)
C6B C -0.3165(3) 0.8642(2) -0.1323(2)
C7B C -0.3853(3) 0.8420(3) -0.2071(3)
H7B H -0.3534 0.8070 -0.2445
H8B H -0.4077 0.8923 -0.2362
H9B H -0.4393 0.8123 -0.1889
C8B C -0.1424(3) 0.9112(2) 0.1027(2)
C9B C -0.1894(3) 0.9354(2) -0.2120(2)
C10B C 0.9295(3) 0.8349(3) 0.5993(2)
H10B H 0.9208 0.8698 0.6471
H11B H 0.9898 0.8484 0.5787
H12B H 0.9300 0.7770 0.6162
C11B C 0.8486(3) 0.8494(2) 0.5310(2)
C12B C 0.8478(3) 0.8308(2) 0.4455(2)
C13B C 0.7648(3) 0.8499(2) 0.3912(2)
H13B H 0.7640 0.8378 0.3339
C14B C 0.6838(3) 0.8861(2) 0.4190(2)
C15B C 0.6870(3) 0.9046(2) 0.5046(2)
C16B C 0.6086(3) 0.9435(3) 0.5484(3)
H14B H 0.6324 0.9547 0.6063
H15B H 0.5547 0.9058 0.5463
H16B H 0.5884 0.9952 0.5207
C17B C 0.9349(3) 0.7935(2) 0.4101(2)
C18B C 0.5956(3) 0.9079(3) 0.3576(3)
loop_
_geom_bond_atom_site_label_1
_geom_bond_atom_site_label_2
_geom_bond_site_symmetry_1
_geom_bond_site_symmetry_2
Ce1 O1 1_555 1_555
N1 H1 1_555 1_555
N2 H2 1_555 1_555
O1 C8 1_555 1_555
O2 Ce1 1_555 1_555
O3 C9 1_555 1_555
O4 C9 1_555 1_555
O5 Ce1 1_555 1_555
O6 C17 1_555 1_555
O7 C18 1_555 1_555
O8 C18 1_555 1_555
C1 H3 1_555 1_555
H4 C1 1_555 1_555
H5 C1 1_555 1_555
C2 N1 1_555 1_555
C3 C2 1_555 1_555
C4 C3 1_555 1_555
H6 C4 1_555 1_555
C5 C4 1_555 1_555
C6 N1 1_555 1_555
C7 C6 1_555 1_555
H7 C7 1_555 1_555
H8 C7 1_555 1_555
H9 C7 1_555 1_555
C8 O2 1_555 1_555
C9 C5 1_555 1_555
C10 H10 1_555 1_555
H11 C10 1_555 1_555
H12 C10 1_555 1_555
C11 N2 1_555 1_555
C12 C11 1_555 1_555
C13 C12 1_555 1_555
H13 C13 1_555 1_555
C14 C13 1_555 1_555
C15 N2 1_555 1_555
C16 C15 1_555 1_555
H14 C16 1_555 1_555
H15 C16 1_555 1_555
H16 C16 1_555 1_555
C17 O5 1_555 1_555
C18 C14 1_555 1_555
H17 O7 1_555 1_555
Ce1F O3 1_555 1_555
Ce1_2 O5B 1_555 1_555
Ce1F_2 O3B 1_555 1_555
N1B H1B 1_555 1_555
N2B H2B 1_555 1_555
O1B Ce1 1_555 1_555
O2B Ce1 1_555 1_555
O3B C9B 1_555 1_555
O3F Ce1 1_555 1_555
O3D Ce1 1_555 1_555
O4B C9B 1_555 1_555
O5B C17B 1_555 1_555
O5B_2 Ce1 1_555 1_555
O6B C17B 1_555 1_555
O7B H17 1_555 1_555
O8B C18B 1_555 1_555
C1B H3B 1_555 1_555
H4B C1B 1_555 1_555
H5B C1B 1_555 1_555
C2B N1B 1_555 1_555
C3B C2B 1_555 1_555
C4B C3B 1_555 1_555
H6B C4B 1_555 1_555
C5B C4B 1_555 1_555
C6B N1B 1_555 1_555
C7B C6B 1_555 1_555
H7B C7B 1_555 1_555
H8B C7B 1_555 1_555
H9B C7B 1_555 1_555
C8B O1B 1_555 1_555
C9B C5B 1_555 1_555
C10B H10B 1_555 1_555
H11B C10B 1_555 1_555
H12B C10B 1_555 1_555
C11B N2B 1_555 1_555
C12B C11B 1_555 1_555
C13B C12B 1_555 1_555
H13B C13B 1_555 1_555
C14B C13B 1_555 1_555
C15B N2B 1_555 1_555
C16B C15B 1_555 1_555
H14B C16B 1_555 1_555
H15B C16B 1_555 1_555
H16B C16B 1_555 1_555
C17B C12B 1_555 1_555
C18B O7B 1_555 1_555
C1 C2 1_555 1_555
C3 C8 1_555 1_555
C5 C6 1_555 1_555
C10 C11 1_555 1_555
C12 C17 1_555 1_555
C14 C15 1_555 1_555
O2B C8B 1_555 1_555
C1B C2B 1_555 1_555
C3B C8B 1_555 1_555
C5B C6B 1_555 1_555
C10B C11B 1_555 1_555
C14B C15B 1_555 1_555
C14B C18B 1_555 1_555

#END
