
#######################################################################
#
#                 Cambridge Crystallographic Data Centre
#                                CCDC 
#
#######################################################################
#
# If this CIF has been generated from an entry in the Cambridge 
# Structural Database, then it will include bibliographic, chemical, 
# crystal, experimental, refinement or atomic coordinate data resulting 
# from the CCDC's data processing and validation procedures.
#
#######################################################################

data_XIHPOU
_symmetry_cell_setting           monoclinic
_symmetry_space_group_name_H-M   'C 2/c'
_symmetry_Int_Tables_number      15
_space_group_name_Hall           '-C 2yn'
loop_
_symmetry_equiv_pos_site_id
_symmetry_equiv_pos_as_xyz
1 x,y,z
2 1/2+x,1/2+y,z
3 -x,y,1/2-z
4 1/2-x,1/2+y,1/2-z
5 -x,-y,-z
6 1/2-x,1/2-y,-z
7 x,-y,1/2+z
8 1/2+x,1/2-y,1/2+z
_cell_length_a                   13.921(3)
_cell_length_b                   15.952(3)
_cell_length_c                   15.863(3)
_cell_angle_alpha                90
_cell_angle_beta                 96.34(3)
_cell_angle_gamma                90
_cell_volume                     3501.12
loop_
_atom_site_label
_atom_site_type_symbol
_atom_site_fract_x
_atom_site_fract_y
_atom_site_fract_z
Nd1 Nd 0.5000 0.576804(8) 0.7500
O1 O 0.57205(10) 0.53872(9) 0.89865(8)
O2 O 0.65552(10) 0.62870(10) 0.82992(8)
O3 O 0.61037(10) 0.52220(10) 1.20160(9)
O4 O 0.73483(12) 0.57887(13) 1.28018(10)
O5 O 0.44586(9) 0.68640(9) 0.83470(8)
O6 O 0.48746(10) 0.75633(10) 0.95469(9)
O7 O 0.05032(13) 0.52939(12) 0.86767(11)
O8 O 0.07752(11) 0.64623(10) 0.79716(10)
H1 H 0.0000 0.641(3) 0.7500
N1 N 0.84326(11) 0.65953(10) 1.05704(10)
H2 H 0.901(2) 0.6881(17) 1.0580(17)
N2 N 0.26934(11) 0.61403(10) 1.05550(10)
H3 H 0.2744(17) 0.6004(15) 1.1097(17)
C1 C 0.79374(12) 0.64670(11) 0.97943(11)
C2 C 0.70570(12) 0.60458(11) 0.97707(11)
C3 C 0.67513(12) 0.57673(11) 1.05318(11)
H4 H 0.6173 0.5473 1.0515
C4 C 0.72798(12) 0.59130(11) 1.13138(11)
C5 C 0.81578(12) 0.63458(11) 1.13205(11)
C6 C 0.84167(14) 0.67742(14) 0.90527(12)
H5 H 0.9042 0.6997 0.9249
H6 H 0.8028 0.7205 0.8763
H7 H 0.8487 0.6317 0.8670
C7 C 0.64096(13) 0.58928(11) 0.89575(11)
C8 C 0.68852(13) 0.56162(12) 1.21189(12)
C9 C 0.88399(15) 0.65643(15) 1.20768(13)
H8 H 0.9364 0.6890 1.1903
H9 H 0.9089 0.6060 1.2349
H10 H 0.8507 0.6885 1.2466
C10 C 0.34935(12) 0.65042(11) 1.03072(11)
C11 C 0.34842(12) 0.66935(11) 0.94511(11)
C12 C 0.26555(12) 0.65067(12) 0.89024(11)
H11 H 0.2648 0.6629 0.8328
C13 C 0.18420(12) 0.61435(12) 0.91877(11)
C14 C 0.18767(13) 0.59533(12) 1.00472(12)
C15 C 0.43071(14) 0.66401(14) 1.09929(12)
H12 H 0.4307 0.7213 1.1177
H13 H 0.4910 0.6516 1.0778
H14 H 0.4226 0.6278 1.1463
C16 C 0.43532(12) 0.70706(11) 0.90939(11)
C17 C 0.09547(13) 0.59289(13) 0.85706(12)
C18 C 0.10858(15) 0.55580(15) 1.04804(14)
H15 H 0.1291 0.5507 1.1076
H16 H 0.0943 0.5012 1.0244
H17 H 0.0517 0.5902 1.0398
Nd1F Nd 0.5000 0.423196(8) 1.2500
Nd1_2 Nd -0.5000 0.576804(8) 0.7500
Nd1F_2 Nd 0.5000 0.423196(8) 0.2500
O1B O 0.42795(10) 0.53872(9) 0.60135(8)
O2B O 0.34448(10) 0.62870(10) 0.67008(8)
O3B O 0.38963(10) 0.52220(10) 0.29840(9)
O3F O 0.61037(10) 0.47780(10) 0.70160(9)
O3D O 0.38963(10) 0.47780(10) 0.79840(9)
O4B O 0.26517(12) 0.57887(13) 0.21982(10)
O5B O -0.44586(9) 0.68640(9) 0.66530(8)
O5B_2 O 0.55414(9) 0.68640(9) 0.66530(8)
O6B O -0.48746(10) 0.75633(10) 0.54531(9)
O7B O -0.05032(13) 0.52939(12) 0.63233(11)
O8B O -0.07752(11) 0.64623(10) 0.70284(10)
N1B N 0.15674(11) 0.65953(10) 0.44296(10)
H2B H 0.099(2) 0.6881(17) 0.4420(17)
N2B N -0.26934(11) 0.61403(10) 0.44450(10)
H3B H -0.2744(17) 0.6004(15) 0.3903(17)
C1B C 0.20626(12) 0.64670(11) 0.52057(11)
C2B C 0.29430(12) 0.60458(11) 0.52293(11)
C3B C 0.32487(12) 0.57673(11) 0.44682(11)
H4B H 0.3827 0.5473 0.4485
C4B C 0.27202(12) 0.59130(11) 0.36862(11)
C5B C 0.18422(12) 0.63458(11) 0.36795(11)
C6B C 0.15833(14) 0.67742(14) 0.59473(12)
H5B H 0.0958 0.6997 0.5751
H6B H 0.1972 0.7205 0.6237
H7B H 0.1513 0.6317 0.6330
C7B C 0.35904(13) 0.58928(11) 0.60425(11)
C8B C 0.31148(13) 0.56162(12) 0.28811(12)
C9B C 0.11601(15) 0.65643(15) 0.29232(13)
H8B H 0.0636 0.6890 0.3097
H9B H 0.0911 0.6060 0.2651
H10B H 0.1493 0.6885 0.2534
C10B C -0.34935(12) 0.65042(11) 0.46928(11)
C11B C -0.34842(12) 0.66935(11) 0.55489(11)
C12B C -0.26555(12) 0.65067(12) 0.60976(11)
H11B H -0.2648 0.6629 0.6672
C13B C -0.18420(12) 0.61435(12) 0.58123(11)
C14B C -0.18767(13) 0.59533(12) 0.49528(12)
C15B C -0.43071(14) 0.66401(14) 0.40071(12)
H12B H -0.4307 0.7213 0.3823
H13B H -0.4910 0.6516 0.4222
H14B H -0.4226 0.6278 0.3537
C16B C -0.43532(12) 0.70706(11) 0.59061(11)
C17B C -0.09547(13) 0.59289(13) 0.64294(12)
C18B C -0.10858(15) 0.55580(15) 0.45196(14)
H15B H -0.1291 0.5507 0.3924
H16B H -0.0943 0.5012 0.4756
H17B H -0.0517 0.5902 0.4602
loop_
_geom_bond_atom_site_label_1
_geom_bond_atom_site_label_2
_geom_bond_site_symmetry_1
_geom_bond_site_symmetry_2
Nd1 O1 1_555 1_555
O1 C7 1_555 1_555
O2 Nd1 1_555 1_555
O3 C8 1_555 1_555
O4 C8 1_555 1_555
O5 Nd1 1_555 1_555
O6 C16 1_555 1_555
O7 C17 1_555 1_555
O8 H1 1_555 1_555
H1 O8B 1_555 1_555
N1 H2 1_555 1_555
N2 H3 1_555 1_555
C1 N1 1_555 1_555
C2 C1 1_555 1_555
C3 C2 1_555 1_555
H4 C3 1_555 1_555
C4 C3 1_555 1_555
C5 N1 1_555 1_555
C6 C1 1_555 1_555
H5 C6 1_555 1_555
H6 C6 1_555 1_555
H7 C6 1_555 1_555
C7 O2 1_555 1_555
C8 C4 1_555 1_555
C9 C5 1_555 1_555
H8 C9 1_555 1_555
H9 C9 1_555 1_555
H10 C9 1_555 1_555
C10 N2 1_555 1_555
C11 C10 1_555 1_555
C12 C11 1_555 1_555
H11 C12 1_555 1_555
C13 C12 1_555 1_555
C14 N2 1_555 1_555
C15 C10 1_555 1_555
H12 C15 1_555 1_555
H13 C15 1_555 1_555
H14 C15 1_555 1_555
C16 O5 1_555 1_555
C17 O8 1_555 1_555
C18 C14 1_555 1_555
H15 C18 1_555 1_555
H16 C18 1_555 1_555
H17 C18 1_555 1_555
Nd1F O3 1_555 1_555
Nd1_2 O5B 1_555 1_555
Nd1F_2 O3B 1_555 1_555
O1B Nd1 1_555 1_555
O2B Nd1 1_555 1_555
O3B C8B 1_555 1_555
O3F Nd1 1_555 1_555
O3D Nd1 1_555 1_555
O4B C8B 1_555 1_555
O5B C16B 1_555 1_555
O5B_2 Nd1 1_555 1_555
O6B C16B 1_555 1_555
O7B C17B 1_555 1_555
O8B C17B 1_555 1_555
N1B H2B 1_555 1_555
N2B H3B 1_555 1_555
C1B N1B 1_555 1_555
C2B C1B 1_555 1_555
C3B C2B 1_555 1_555
H4B C3B 1_555 1_555
C4B C3B 1_555 1_555
C5B N1B 1_555 1_555
C6B C1B 1_555 1_555
H5B C6B 1_555 1_555
H6B C6B 1_555 1_555
H7B C6B 1_555 1_555
C7B O1B 1_555 1_555
C8B C4B 1_555 1_555
C9B C5B 1_555 1_555
H8B C9B 1_555 1_555
H9B C9B 1_555 1_555
H10B C9B 1_555 1_555
C10B N2B 1_555 1_555
C11B C10B 1_555 1_555
C12B C11B 1_555 1_555
H11B C12B 1_555 1_555
C13B C12B 1_555 1_555
C14B N2B 1_555 1_555
C15B C10B 1_555 1_555
H12B C15B 1_555 1_555
H13B C15B 1_555 1_555
H14B C15B 1_555 1_555
C16B C11B 1_555 1_555
C17B C13B 1_555 1_555
C18B C14B 1_555 1_555
H15B C18B 1_555 1_555
H16B C18B 1_555 1_555
H17B C18B 1_555 1_555
C2 C7 1_555 1_555
C4 C5 1_555 1_555
C11 C16 1_555 1_555
C13 C14 1_555 1_555
C13 C17 1_555 1_555
O2B C7B 1_555 1_555
C2B C7B 1_555 1_555
C4B C5B 1_555 1_555
C13B C14B 1_555 1_555

#END
