
#######################################################################
#
#                 Cambridge Crystallographic Data Centre
#                                CCDC 
#
#######################################################################
#
# If this CIF has been generated from an entry in the Cambridge 
# Structural Database, then it will include bibliographic, chemical, 
# crystal, experimental, refinement or atomic coordinate data resulting 
# from the CCDC's data processing and validation procedures.
#
#######################################################################

data_XIHQOV
_symmetry_cell_setting           triclinic
_symmetry_space_group_name_H-M   'P -1'
_symmetry_Int_Tables_number      2
_space_group_name_Hall           '-P 1'
loop_
_symmetry_equiv_pos_site_id
_symmetry_equiv_pos_as_xyz
1 x,y,z
2 -x,-y,-z
_cell_length_a                   7.2401(3)
_cell_length_b                   8.8568(4)
_cell_length_c                   15.6842(9)
_cell_angle_alpha                98.2275(16)
_cell_angle_beta                 102.5812(14)
_cell_angle_gamma                102.310(3)
_cell_volume                     939.88
loop_
_atom_site_label
_atom_site_type_symbol
_atom_site_fract_x
_atom_site_fract_y
_atom_site_fract_z
Cd1 Cd -0.04005(4) -0.18847(4) 0.19826(2)
C1 C -0.2793(6) -0.0343(6) 0.3263(3)
C2 C -0.5834(6) 0.0085(5) 0.2943(3)
C3 C 0.1706(6) -0.1826(6) 0.0380(3)
C4 C 0.2360(6) -0.0217(6) -0.0571(3)
C5 C -0.4918(6) -0.3973(6) 0.1133(3)
H1 H -0.5085 -0.3042 0.0956
C6 C -0.6515(6) -0.5245(7) 0.0924(3)
H2 H -0.7733 -0.5182 0.0609
C7 C -0.6267(7) -0.6606(7) 0.1192(3)
H3 H -0.7325 -0.7483 0.1067
C8 C -0.4433(7) -0.6674(6) 0.1650(3)
H4 H -0.4243 -0.7601 0.1825
C9 C -0.2886(6) -0.5349(5) 0.1845(3)
C10 C -0.0901(6) -0.5331(5) 0.2361(3)
C11 C 0.3063(5) -0.3123(5) 0.3806(3)
C12 C 0.5063(6) -0.3220(5) 0.4249(3)
C13 C 0.7828(7) -0.2261(6) 0.5347(3)
H5 H 0.8586 -0.1513 0.5847
C14 C 0.8578(6) -0.3462(6) 0.5040(3)
H6 H 0.9824 -0.3496 0.5338
C15 C 0.5818(6) -0.4431(6) 0.3948(3)
H7 H 0.5060 -0.5188 0.3451
C16 C -0.04890(15) -0.68589(13) 0.25768(7)
H8 H 0.0849 -0.6663 0.2908
H9 H -0.0719 -0.7605 0.2033
H10 H -0.1336 -0.7278 0.2926
N1 N -0.15626(15) -0.09745(13) 0.32043(7)
N2 N -0.40168(15) 0.04679(13) 0.34139(7)
N3 N -0.74461(15) -0.01232(13) 0.25822(7)
N4 N 0.08055(15) -0.25742(13) 0.07506(7)
N5 N 0.29220(15) -0.09938(13) 0.00355(7)
N6 N 0.20386(15) 0.04747(13) -0.11110(7)
N7 N -0.31296(15) -0.40125(13) 0.15791(7)
N8 N 0.03758(15) -0.40053(13) 0.26277(7)
N9 N 0.22482(15) -0.40995(13) 0.30595(7)
N10 N 0.60547(15) -0.21131(13) 0.49596(7)
N11 N 0.75978(15) -0.45700(13) 0.43392(7)
N12 N 0.23143(15) -0.20687(13) 0.42376(7)
H11 H 0.1150 -0.1993 0.4014
H12 H 0.3001 -0.1472 0.4737
Cd1_2 Cd -1.04005(4) -0.18847(4) 0.19826(2)
Cd1A Cd 0.04005(4) 0.18847(4) -0.19826(2)
N3_2 N 0.25539(15) -0.01232(13) 0.25822(7)
N6A N -0.20386(15) -0.04747(13) 0.11110(7)
loop_
_geom_bond_atom_site_label_1
_geom_bond_atom_site_label_2
_geom_bond_site_symmetry_1
_geom_bond_site_symmetry_2
Cd1 N1 1_555 1_555
C1 N1 1_555 1_555
C2 N2 1_555 1_555
C3 N4 1_555 1_555
C4 N5 1_555 1_555
C5 H1 1_555 1_555
C6 C5 1_555 1_555
H2 C6 1_555 1_555
C7 C6 1_555 1_555
H3 C7 1_555 1_555
C8 C7 1_555 1_555
H4 C8 1_555 1_555
C9 C8 1_555 1_555
C10 C9 1_555 1_555
C11 C12 1_555 1_555
C12 C15 1_555 1_555
C13 H5 1_555 1_555
C14 C13 1_555 1_555
H6 C14 1_555 1_555
C15 H7 1_555 1_555
C16 C10 1_555 1_555
H8 C16 1_555 1_555
H9 C16 1_555 1_555
H10 C16 1_555 1_555
N2 C1 1_555 1_555
N3 C2 1_555 1_555
N4 Cd1 1_555 1_555
N5 C3 1_555 1_555
N6 C4 1_555 1_555
N7 Cd1 1_555 1_555
N8 Cd1 1_555 1_555
N9 C11 1_555 1_555
N10 C12 1_555 1_555
N11 C14 1_555 1_555
N12 C11 1_555 1_555
H11 N12 1_555 1_555
H12 N12 1_555 1_555
Cd1_2 N3 1_555 1_555
Cd1A N6 1_555 1_555
N3_2 Cd1 1_555 1_555
N6A Cd1 1_555 1_555
C5 N7 1_555 1_555
C9 N7 1_555 1_555
C10 N8 1_555 1_555
C13 N10 1_555 1_555
C15 N11 1_555 1_555
N8 N9 1_555 1_555

#END
