
#######################################################################
#
#                 Cambridge Crystallographic Data Centre
#                                CCDC 
#
#######################################################################
#
# If this CIF has been generated from an entry in the Cambridge 
# Structural Database, then it will include bibliographic, chemical, 
# crystal, experimental, refinement or atomic coordinate data resulting 
# from the CCDC's data processing and validation procedures.
#
#######################################################################

data_XIHRUC
_symmetry_cell_setting           monoclinic
_symmetry_space_group_name_H-M   'P 21/n'
_symmetry_Int_Tables_number      14
_space_group_name_Hall           '-P 2yn'
loop_
_symmetry_equiv_pos_site_id
_symmetry_equiv_pos_as_xyz
1 x,y,z
2 1/2-x,1/2+y,1/2-z
3 -x,-y,-z
4 1/2+x,1/2-y,1/2+z
_cell_length_a                   12.311(2)
_cell_length_b                   14.120(2)
_cell_length_c                   20.400(3)
_cell_angle_alpha                90
_cell_angle_beta                 101.780(14)
_cell_angle_gamma                90
_cell_volume                     3471.47
loop_
_atom_site_label
_atom_site_type_symbol
_atom_site_fract_x
_atom_site_fract_y
_atom_site_fract_z
Co1 Co -0.23996(5) -0.52737(4) 0.61260(3)
Co2 Co 0.0000 0.0000 0.0000
O1 O -0.2003(3) -0.4726(2) 0.53256(15)
O2 O 0.0183(3) -0.0810(2) 0.08468(15)
O3 O 0.1712(3) -0.0494(2) 0.16211(15)
O4 O 0.1048(3) 0.1035(2) 0.05402(14)
O5 O 0.2518(3) 0.1712(2) 0.11024(18)
O6 O -0.0909(3) -0.5052(2) 0.67343(17)
N1 N 0.0496(5) -0.4991(5) 0.7609(3)
C1 C -0.1165(4) -0.2897(4) 0.3377(2)
C2 C -0.2306(4) -0.2944(5) 0.3314(3)
H1 H -0.2764 -0.2653 0.2951
C3 C -0.2776(4) -0.3413(5) 0.3779(3)
H2 H -0.3544 -0.3432 0.3726
C4 C -0.2117(4) -0.3858(3) 0.4326(2)
C5 C -0.0982(4) -0.3821(3) 0.4389(2)
H3 H -0.0528 -0.4118 0.4751
C6 C -0.0504(4) -0.3351(3) 0.3926(2)
H4 H 0.0264 -0.3335 0.3979
C7 C -0.0758(5) -0.1802(4) 0.1749(3)
H5 H -0.1145 -0.1759 0.1308
C8 C 0.0276(4) -0.1397(3) 0.1930(2)
C9 C 0.0868(4) -0.1519(4) 0.2576(2)
H6 H 0.1582 -0.1274 0.2701
C10 C -0.2644(4) -0.4357(3) 0.4829(2)
C11 C 0.0757(4) -0.0850(3) 0.1421(2)
C12 C 0.0241(4) 0.4518(3) 0.0108(2)
C13 C -0.0384(5) 0.3711(3) -0.0057(3)
H7 H -0.1109 0.3761 -0.0299
C14 C 0.0058(5) 0.2819(3) 0.0136(3)
H8 H -0.0366 0.2281 0.0004
C15 C 0.1091(4) 0.2724(3) 0.0513(2)
C16 C 0.1691(6) 0.3534(4) 0.0702(4)
H9 H 0.2392 0.3491 0.0977
C17 C 0.1268(5) 0.4413(4) 0.0489(4)
H10 H 0.1702 0.4948 0.0612
C18 C 0.1570(4) 0.1774(3) 0.0721(2)
C19 C -0.1227(7) -0.5699(6) 0.7749(3)
H11 H -0.0807 -0.5780 0.8197
H12 H -0.1870 -0.5318 0.7759
H13 H -0.1457 -0.6307 0.7560
C20 C -0.0522(6) -0.5219(4) 0.7330(3)
C21 C 0.0949(11) -0.5111(10) 0.8333(5)
H14 H 0.1707 -0.4901 0.8435
H15 H 0.0520 -0.4743 0.8584
H16 H 0.0916 -0.5767 0.8451
C22 C 0.1216(7) -0.4583(7) 0.7196(5)
H17 H 0.1934 -0.4458 0.7468
H18 H 0.1289 -0.5020 0.6847
H19 H 0.0899 -0.4001 0.7000
C29 C -0.1230(5) -0.2278(5) 0.2224(3)
H35 H -0.1943 -0.2524 0.2098
C30 C -0.0663(4) -0.2387(3) 0.2867(2)
C31 C 0.0395(4) -0.2008(4) 0.3043(2)
H36 H 0.0795 -0.2080 0.3479
O9 O -0.3677(3) -0.4346(3) 0.47237(18)
Co1B Co 0.23996(5) 0.52737(4) -0.61260(3)
Co1C Co 0.26004(5) 0.02737(4) 0.11260(3)
Co1A Co -0.26004(5) 0.97263(4) -0.11260(3)
Co1A_2 Co -0.26004(5) -0.02737(4) -0.11260(3)
Co2C Co -0.5000 -0.5000 0.5000
Co2_2 Co 0.0000 1.0000 0.0000
Co2C_2 Co 0.5000 0.5000 -0.5000
O1B O 0.2003(3) 0.4726(2) -0.53256(15)
O2B O -0.0183(3) 0.0810(2) -0.08468(15)
O3B O -0.1712(3) 0.0494(2) -0.16211(15)
O3C O -0.3288(3) -0.4506(2) 0.66211(15)
O3A O 0.3288(3) 0.4506(2) -0.66211(15)
O4B O -0.1048(3) 0.8965(2) -0.05402(14)
O4C O -0.3952(3) -0.6035(2) 0.55402(14)
O4B_2 O -0.1048(3) -0.1035(2) -0.05402(14)
O4A O 0.3952(3) 0.6035(2) -0.55402(14)
O5B O -0.2518(3) 0.8288(2) -0.11024(18)
O5C O -0.2482(3) -0.6712(2) 0.61024(18)
O5A O 0.2482(3) 0.6712(2) -0.61024(18)
O6B O 0.0909(3) 0.5052(2) -0.67343(17)
N1B N -0.0496(5) 0.4991(5) -0.7609(3)
C1B C 0.1165(4) 0.2897(4) -0.3377(2)
C2B C 0.2306(4) 0.2944(5) -0.3314(3)
H1B H 0.2764 0.2653 -0.2951
C3B C 0.2776(4) 0.3413(5) -0.3779(3)
H2B H 0.3544 0.3432 -0.3726
C4B C 0.2117(4) 0.3858(3) -0.4326(2)
C5B C 0.0982(4) 0.3821(3) -0.4389(2)
H3B H 0.0528 0.4118 -0.4751
C6B C 0.0504(4) 0.3351(3) -0.3926(2)
H4B H -0.0264 0.3335 -0.3979
C7B C 0.0758(5) 0.1802(4) -0.1749(3)
H5B H 0.1145 0.1759 -0.1308
C8B C -0.0276(4) 0.1397(3) -0.1930(2)
C9B C -0.0868(4) 0.1519(4) -0.2576(2)
H6B H -0.1582 0.1274 -0.2701
C10B C 0.2644(4) 0.4357(3) -0.4829(2)
C11B C -0.0757(4) 0.0850(3) -0.1421(2)
C12B C -0.0241(4) 0.5482(3) -0.0108(2)
C13B C 0.0384(5) 0.6289(3) 0.0057(3)
H7B H 0.1109 0.6239 0.0299
C14B C -0.0058(5) 0.7181(3) -0.0136(3)
H8B H 0.0366 0.7719 -0.0004
C15B C -0.1091(4) 0.7276(3) -0.0513(2)
C16B C -0.1691(6) 0.6466(4) -0.0702(4)
H9B H -0.2392 0.6509 -0.0977
C17B C -0.1268(5) 0.5587(4) -0.0489(4)
H10B H -0.1702 0.5052 -0.0612
C18B C -0.1570(4) 0.8226(3) -0.0721(2)
C19B C 0.1227(7) 0.5699(6) -0.7749(3)
H11B H 0.0807 0.5780 -0.8197
H12B H 0.1870 0.5318 -0.7759
H13B H 0.1457 0.6307 -0.7560
C20B C 0.0522(6) 0.5219(4) -0.7330(3)
C21B C -0.0949(11) 0.5111(10) -0.8333(5)
H14B H -0.1707 0.4901 -0.8435
H15B H -0.0520 0.4743 -0.8584
H16B H -0.0916 0.5767 -0.8451
C22B C -0.1216(7) 0.4583(7) -0.7196(5)
H17B H -0.1934 0.4458 -0.7468
H18B H -0.1289 0.5020 -0.6847
H19B H -0.0899 0.4001 -0.7000
C29B C 0.1230(5) 0.2278(5) -0.2224(3)
H35B H 0.1943 0.2524 -0.2098
C30B C 0.0663(4) 0.2387(3) -0.2867(2)
C31B C -0.0395(4) 0.2008(4) -0.3043(2)
H36B H -0.0795 0.2080 -0.3479
O9B O 0.3677(3) 0.4346(3) -0.47237(18)
O9C O 0.1323(3) -0.0654(3) -0.02763(18)
O9A O -0.1323(3) 0.0654(3) 0.02763(18)
O7 O 0.3279(9) 0.5910(8) 0.1187(5)
N2 N 0.3920(8) 0.6825(7) 0.2040(5)
C23 C 0.3413(10) 0.6745(9) 0.1459(7)
C24 C 0.3015(11) 0.7534(10) 0.1032(7)
H20 H 0.2652 0.7305 0.0599
H21 H 0.3628 0.7930 0.0985
H22 H 0.2498 0.7894 0.1225
C25 C 0.4051(13) 0.7644(11) 0.2418(7)
H23 H 0.4483 0.7510 0.2855
H24 H 0.3336 0.7880 0.2457
H25 H 0.4425 0.8111 0.2203
C26 C 0.4432(13) 0.6039(10) 0.2440(7)
H26 H 0.4781 0.6262 0.2877
H27 H 0.4980 0.5755 0.2228
H28 H 0.3876 0.5579 0.2480
O8 O 0.6252(18) 0.744(2) 0.0606(11)
H29 H 0.6256 0.7508 0.0207
C27 C 0.624(2) 0.624(2) 0.0793(13)
H30 H 0.5554 0.5921 0.0591
H31 H 0.6884 0.5898 0.0724
C28 C 0.6292(16) 0.6568(13) 0.1527(10)
H32 H 0.6312 0.6022 0.1810
H33 H 0.5650 0.6942 0.1549
H34 H 0.6949 0.6940 0.1675
loop_
_geom_bond_atom_site_label_1
_geom_bond_atom_site_label_2
_geom_bond_site_symmetry_1
_geom_bond_site_symmetry_2
Co1 O1 1_555 1_555
Co2 O2 1_555 1_555
O1 C10 1_555 1_555
O2 C11 1_555 1_555
O3 C11 1_555 1_555
O4 Co2 1_555 1_555
O5 C18 1_555 1_555
O6 Co1 1_555 1_555
N1 C20 1_555 1_555
C1 C2 1_555 1_555
C2 H1 1_555 1_555
C3 C2 1_555 1_555
H2 C3 1_555 1_555
C4 C3 1_555 1_555
C5 C4 1_555 1_555
H3 C5 1_555 1_555
C6 C1 1_555 1_555
H4 C6 1_555 1_555
C7 H5 1_555 1_555
C8 C7 1_555 1_555
C9 C8 1_555 1_555
H6 C9 1_555 1_555
C10 C4 1_555 1_555
C11 C8 1_555 1_555
C12 C13 1_555 1_555
C13 H7 1_555 1_555
C14 C13 1_555 1_555
H8 C14 1_555 1_555
C15 C14 1_555 1_555
C16 C15 1_555 1_555
H9 C16 1_555 1_555
C17 C12 1_555 1_555
H10 C17 1_555 1_555
C18 O4 1_555 1_555
C19 H11 1_555 1_555
H12 C19 1_555 1_555
H13 C19 1_555 1_555
C20 O6 1_555 1_555
C21 N1 1_555 1_555
H14 C21 1_555 1_555
H15 C21 1_555 1_555
H16 C21 1_555 1_555
C22 N1 1_555 1_555
H17 C22 1_555 1_555
H18 C22 1_555 1_555
H19 C22 1_555 1_555
O7 C23 1_555 1_555
N2 C23 1_555 1_555
C23 C24 1_555 1_555
C24 H20 1_555 1_555
H21 C24 1_555 1_555
H22 C24 1_555 1_555
C25 N2 1_555 1_555
H23 C25 1_555 1_555
H24 C25 1_555 1_555
H25 C25 1_555 1_555
C26 N2 1_555 1_555
H26 C26 1_555 1_555
H27 C26 1_555 1_555
H28 C26 1_555 1_555
O8 H29 1_555 1_555
C27 O8 1_555 1_555
H30 C27 1_555 1_555
H31 C27 1_555 1_555
C28 C27 1_555 1_555
H32 C28 1_555 1_555
H33 C28 1_555 1_555
H34 C28 1_555 1_555
C29 C7 1_555 1_555
H35 C29 1_555 1_555
C30 C1 1_555 1_555
C31 C9 1_555 1_555
H36 C31 1_555 1_555
O9 C10 1_555 1_555
Co1B O1B 1_555 1_555
Co1C O3 1_555 1_555
Co1A O4B 1_555 1_555
Co1A_2 O3B 1_555 1_555
Co2C O9 1_555 1_555
Co2_2 O4B 1_555 1_555
Co2C_2 O4A 1_555 1_555
O1B C10B 1_555 1_555
O2B Co2 1_555 1_555
O3B C11B 1_555 1_555
O3C Co1 1_555 1_555
O3A Co1B 1_555 1_555
O4B C18B 1_555 1_555
O4C Co1 1_555 1_555
O4B_2 Co2 1_555 1_555
O4A Co1B 1_555 1_555
O5B Co1A 1_555 1_555
O5C Co1 1_555 1_555
O5A Co1B 1_555 1_555
O6B Co1B 1_555 1_555
N1B C20B 1_555 1_555
C1B C2B 1_555 1_555
C2B H1B 1_555 1_555
C3B C2B 1_555 1_555
H2B C3B 1_555 1_555
C4B C3B 1_555 1_555
C5B C4B 1_555 1_555
H3B C5B 1_555 1_555
C6B C1B 1_555 1_555
H4B C6B 1_555 1_555
C7B H5B 1_555 1_555
C8B C7B 1_555 1_555
C9B C8B 1_555 1_555
H6B C9B 1_555 1_555
C10B C4B 1_555 1_555
C11B O2B 1_555 1_555
C12B C12 1_555 1_555
C13B C12B 1_555 1_555
H7B C13B 1_555 1_555
C14B C13B 1_555 1_555
H8B C14B 1_555 1_555
C15B C14B 1_555 1_555
C16B C15B 1_555 1_555
H9B C16B 1_555 1_555
C17B C12B 1_555 1_555
H10B C17B 1_555 1_555
C18B O5B 1_555 1_555
C19B H11B 1_555 1_555
H12B C19B 1_555 1_555
H13B C19B 1_555 1_555
C20B O6B 1_555 1_555
C21B N1B 1_555 1_555
H14B C21B 1_555 1_555
H15B C21B 1_555 1_555
H16B C21B 1_555 1_555
C22B N1B 1_555 1_555
H17B C22B 1_555 1_555
H18B C22B 1_555 1_555
H19B C22B 1_555 1_555
C29B C7B 1_555 1_555
H35B C29B 1_555 1_555
C30B C1B 1_555 1_555
C31B C9B 1_555 1_555
H36B C31B 1_555 1_555
O9B Co2C_2 1_555 1_555
O9C Co2 1_555 1_555
O9A Co2 1_555 1_555
O4 Co1C 1_555 1_555
O5 Co1C 1_555 1_555
C5 C6 1_555 1_555
C15 C18 1_555 1_555
C16 C17 1_555 1_555
C19 C20 1_555 1_555
C29 C30 1_555 1_555
C30 C31 1_555 1_555
Co1A_2 O4B_2 1_555 1_555
Co2C O4C 1_555 1_555
C5B C6B 1_555 1_555
C8B C11B 1_555 1_555
C10B O9B 1_555 1_555
C15B C18B 1_555 1_555
C16B C17B 1_555 1_555
C19B C20B 1_555 1_555
C29B C30B 1_555 1_555
C30B C31B 1_555 1_555

#END
