
#######################################################################
#
#                 Cambridge Crystallographic Data Centre
#                                CCDC 
#
#######################################################################
#
# If this CIF has been generated from an entry in the Cambridge 
# Structural Database, then it will include bibliographic, chemical, 
# crystal, experimental, refinement or atomic coordinate data resulting 
# from the CCDC's data processing and validation procedures.
#
#######################################################################

data_XIHYOE
_symmetry_cell_setting           monoclinic
_symmetry_space_group_name_H-M   'P 21/n'
_symmetry_Int_Tables_number      14
_space_group_name_Hall           '-P 2yn'
loop_
_symmetry_equiv_pos_site_id
_symmetry_equiv_pos_as_xyz
1 x,y,z
2 1/2-x,1/2+y,1/2-z
3 -x,-y,-z
4 1/2+x,1/2-y,1/2+z
_cell_length_a                   8.5843(6)
_cell_length_b                   16.1917(13)
_cell_length_c                   15.2083(13)
_cell_angle_alpha                90
_cell_angle_beta                 90.796(5)
_cell_angle_gamma                90
_cell_volume                     2113.66
loop_
_atom_site_label
_atom_site_type_symbol
_atom_site_fract_x
_atom_site_fract_y
_atom_site_fract_z
Co1 Co -0.00798(4) 0.10525(2) 0.21626(2)
O1 O 0.2126(3) 0.25706(14) 0.22873(13)
N1 N -0.1786(2) 0.53334(14) 0.22719(15)
H1 H -0.1265 0.5609 0.2660
O2 O -0.1309(3) 0.27547(13) 0.58878(13)
N2 N -0.0143(3) 0.19415(14) 0.05227(14)
H2 H 0.0458 0.1566 0.0316
N3 N -0.3368(2) 0.53518(14) 0.21883(15)
O3 O -0.0218(2) 0.38333(13) 0.65652(13)
N4 N -0.0893(3) 0.18828(14) 0.13004(14)
O4 O 0.0732(2) 0.17217(12) 0.31292(13)
O5 O 0.3301(3) 0.56270(13) 0.47579(14)
O6 O 0.3821(2) 0.52232(12) 0.33891(13)
C1 C 0.1459(3) 0.23967(17) 0.29750(17)
C2 C -0.2338(3) 0.45049(16) 0.11733(17)
C3 C -0.1704(3) 0.25901(16) 0.13864(17)
C4 C 0.2299(3) 0.43518(16) 0.42546(16)
C5 C 0.1423(3) 0.30306(16) 0.36943(16)
C6 C 0.2296(3) 0.37510(16) 0.36060(17)
H3 H 0.2885 0.3830 0.3104
C7 C 0.1427(3) 0.42266(17) 0.50133(17)
H4 H 0.1437 0.4621 0.5458
C8 C -0.1470(3) 0.30939(16) 0.06448(17)
C9 C 0.0530(3) 0.29233(16) 0.44455(16)
H5 H -0.0081 0.2452 0.4505
C10 C -0.1140(3) 0.48324(17) 0.16738(18)
C11 C -0.0358(3) 0.33923(17) 0.59234(17)
C12 C -0.2206(4) 0.39066(17) 0.0423(2)
H6 H -0.1605 0.4166 -0.0037
H7 H -0.3242 0.3804 0.0185
C13 C 0.3209(3) 0.51371(17) 0.41449(18)
C14 C -0.0456(3) 0.26588(17) 0.01185(17)
C15 C -0.2639(4) 0.27384(19) 0.2193(2)
H8 H -0.2556 0.2268 0.2576
H9 H -0.3712 0.2822 0.2029
H10 H -0.2252 0.3220 0.2493
C16 C 0.0547(3) 0.35118(16) 0.51001(16)
C17 C -0.3703(3) 0.48423(16) 0.15151(17)
C18 C -0.5350(3) 0.4684(2) 0.1251(2)
H11 H -0.6027 0.5010 0.1609
H12 H -0.5584 0.4109 0.1329
H13 H -0.5503 0.4831 0.0644
C19 C 0.0273(4) 0.2861(2) -0.0742(2)
H14 H 0.0923 0.2411 -0.0921
H15 H 0.0892 0.3352 -0.0680
H16 H -0.0529 0.2951 -0.1178
C20 C 0.0580(3) 0.4697(2) 0.1648(2)
H17 H 0.1081 0.5026 0.2094
H18 H 0.0960 0.4854 0.1081
H19 H 0.0804 0.4124 0.1752
H20 H -0.190(6) 0.281(3) 0.638(4)
Co1A Co -0.49202(4) 0.60525(2) 0.28374(2)
Co1A_2 Co 0.50798(4) 0.60525(2) 0.28374(2)
N3A N -0.1632(2) 0.03518(14) 0.28117(15)
O6A O 0.1179(2) 0.02232(12) 0.16109(13)
loop_
_geom_bond_atom_site_label_1
_geom_bond_atom_site_label_2
_geom_bond_site_symmetry_1
_geom_bond_site_symmetry_2
Co1 N4 1_555 1_555
O1 C1 1_555 1_555
N1 H1 1_555 1_555
O2 C11 1_555 1_555
N2 H2 1_555 1_555
N3 N1 1_555 1_555
O3 C11 1_555 1_555
N4 N2 1_555 1_555
O4 Co1 1_555 1_555
O5 C13 1_555 1_555
O6 C13 1_555 1_555
C1 O4 1_555 1_555
C2 C10 1_555 1_555
C3 N4 1_555 1_555
C4 C6 1_555 1_555
C5 C1 1_555 1_555
C6 C5 1_555 1_555
H3 C6 1_555 1_555
C7 C4 1_555 1_555
H4 C7 1_555 1_555
C8 C3 1_555 1_555
C9 C5 1_555 1_555
H5 C9 1_555 1_555
C10 N1 1_555 1_555
C11 C16 1_555 1_555
C12 C2 1_555 1_555
H6 C12 1_555 1_555
H7 C12 1_555 1_555
C13 C4 1_555 1_555
C14 N2 1_555 1_555
C15 C3 1_555 1_555
H8 C15 1_555 1_555
H9 C15 1_555 1_555
H10 C15 1_555 1_555
C16 C7 1_555 1_555
C17 N3 1_555 1_555
C18 C17 1_555 1_555
H11 C18 1_555 1_555
H12 C18 1_555 1_555
H13 C18 1_555 1_555
C19 C14 1_555 1_555
H14 C19 1_555 1_555
H15 C19 1_555 1_555
H16 C19 1_555 1_555
C20 C10 1_555 1_555
H17 C20 1_555 1_555
H18 C20 1_555 1_555
H19 C20 1_555 1_555
H20 O2 1_555 1_555
Co1A N3 1_555 1_555
Co1A_2 O6 1_555 1_555
N3A Co1 1_555 1_555
O6A Co1 1_555 1_555
C2 C17 1_555 1_555
C8 C12 1_555 1_555
C8 C14 1_555 1_555
C9 C16 1_555 1_555

#END
