
#######################################################################
#
#                 Cambridge Crystallographic Data Centre
#                                CCDC 
#
#######################################################################
#
# If this CIF has been generated from an entry in the Cambridge 
# Structural Database, then it will include bibliographic, chemical, 
# crystal, experimental, refinement or atomic coordinate data resulting 
# from the CCDC's data processing and validation procedures.
#
#######################################################################

data_XIJFIF
_symmetry_cell_setting           triclinic
_symmetry_space_group_name_H-M   'P -1'
_symmetry_Int_Tables_number      2
_space_group_name_Hall           '-P 1'
loop_
_symmetry_equiv_pos_site_id
_symmetry_equiv_pos_as_xyz
1 x,y,z
2 -x,-y,-z
_cell_length_a                   9.672(4)
_cell_length_b                   10.592(4)
_cell_length_c                   13.386(5)
_cell_angle_alpha                103.77(3)
_cell_angle_beta                 101.78(3)
_cell_angle_gamma                92.65(3)
_cell_volume                     1297.37
loop_
_atom_site_label
_atom_site_type_symbol
_atom_site_fract_x
_atom_site_fract_y
_atom_site_fract_z
Pb1 Pb 0.43049(5) 0.61493(5) 0.81973(4)
Pb2 Pb 0.09496(5) 1.13236(5) 0.73064(3)
S1 S 0.7088(5) 0.7476(4) 0.5814(3)
S2 S 0.5668(5) 0.1791(4) 0.6367(4)
S3 S -0.0244(4) 0.7106(4) 0.8156(3)
S4 S -0.2807(4) 1.2523(4) 0.9390(3)
S5 S 0.0300(5) 0.3456(5) 0.5819(4)
S6 S 0.3460(4) 1.1230(4) 0.9079(3)
S7 S 0.2646(4) 0.9448(4) 0.6094(3)
S8 S 0.8011(5) 0.5743(4) 1.1276(3)
N1 N 0.5641(11) 0.6545(12) 0.6867(8)
N2 N 0.4976(11) 0.4054(11) 0.7092(8)
N3 N 0.0157(11) 0.9305(11) 0.7824(8)
N4 N -0.0794(12) 1.1751(12) 0.8512(9)
N5 N 0.2215(14) 0.5678(15) 0.6743(11)
N6 N 0.4084(15) 0.8703(14) 0.8351(11)
N7 N 0.1267(12) 0.9594(13) 0.4100(9)
N8 N 0.7089(17) 0.5853(13) 0.9197(9)
C1 C 0.5980(15) 0.7589(15) 0.6637(12)
H1 H 0.5635 0.8373 0.6908
C2 C 0.7048(16) 0.5804(14) 0.5753(11)
H2 H 0.7548 0.5220 0.5365
C3 C 0.6216(14) 0.5496(13) 0.6330(10)
C4 C 0.5900(13) 0.4165(13) 0.6483(10)
C5 C 0.6442(17) 0.3093(16) 0.6054(12)
H3 H 0.7126 0.3054 0.5653
C6 C 0.4744(16) 0.2824(14) 0.7098(11)
H4 H 0.4129 0.2543 0.7469
C7 C 0.0524(15) 0.8158(16) 0.7614(12)
H5 H 0.1169 0.7912 0.7192
C8 C -0.1154(16) 0.8286(13) 0.8727(11)
H6 H -0.1781 0.8182 0.9151
C9 C -0.0816(13) 0.9455(13) 0.8459(9)
C10 C -0.1409(13) 1.0690(13) 0.8743(9)
C11 C -0.2582(17) 1.0962(14) 0.9225(11)
H7 H -0.3133 1.0355 0.9416
C12 C -0.1453(16) 1.2784(15) 0.8815(12)
H8 H -0.1195 1.3597 0.8721
C13 C 0.1428(16) 0.4765(18) 0.6401(11)
C14 C 0.3861(14) 0.9712(14) 0.8642(10)
C15 C 0.1793(13) 0.9524(12) 0.4930(10)
C16 C 0.7425(14) 0.5817(13) 1.0061(12)
N7A N -0.1267(12) 1.0406(13) 0.5900(9)
Pb2A Pb -0.09496(5) 0.86764(5) 0.26936(3)
loop_
_geom_bond_atom_site_label_1
_geom_bond_atom_site_label_2
_geom_bond_site_symmetry_1
_geom_bond_site_symmetry_2
Pb1 N1 1_555 1_555
Pb2 S6 1_555 1_555
S1 C1 1_555 1_555
S2 C5 1_555 1_555
S3 C7 1_555 1_555
S4 C11 1_555 1_555
S5 C13 1_555 1_555
S6 C14 1_555 1_555
S7 Pb2 1_555 1_555
S8 C16 1_555 1_555
N1 C1 1_555 1_555
N2 Pb1 1_555 1_555
N3 Pb2 1_555 1_555
N4 Pb2 1_555 1_555
N5 Pb1 1_555 1_555
N6 Pb1 1_555 1_555
N7 C15 1_555 1_555
N8 Pb1 1_555 1_555
C1 H1 1_555 1_555
C2 S1 1_555 1_555
H2 C2 1_555 1_555
C3 N1 1_555 1_555
C4 N2 1_555 1_555
C5 C4 1_555 1_555
H3 C5 1_555 1_555
C6 S2 1_555 1_555
H4 C6 1_555 1_555
C7 N3 1_555 1_555
H5 C7 1_555 1_555
C8 S3 1_555 1_555
H6 C8 1_555 1_555
C9 N3 1_555 1_555
C10 N4 1_555 1_555
C11 C10 1_555 1_555
H7 C11 1_555 1_555
C12 S4 1_555 1_555
H8 C12 1_555 1_555
C13 N5 1_555 1_555
C14 N6 1_555 1_555
C15 S7 1_555 1_555
C16 N8 1_555 1_555
N7A Pb2 1_555 1_555
Pb2A N7 1_555 1_555
N2 C6 1_555 1_555
N4 C12 1_555 1_555
C2 C3 1_555 1_555
C3 C4 1_555 1_555
C8 C9 1_555 1_555
C9 C10 1_555 1_555

#END
