
#######################################################################
#
#                 Cambridge Crystallographic Data Centre
#                                CCDC 
#
#######################################################################
#
# If this CIF has been generated from an entry in the Cambridge 
# Structural Database, then it will include bibliographic, chemical, 
# crystal, experimental, refinement or atomic coordinate data resulting 
# from the CCDC's data processing and validation procedures.
#
#######################################################################

data_XIJPAI
_symmetry_cell_setting           hexagonal
_symmetry_space_group_name_H-M   'P 62 2 2'
_symmetry_Int_Tables_number      180
_space_group_name_Hall           "P 62 2' (0,0,4)"
loop_
_symmetry_equiv_pos_site_id
_symmetry_equiv_pos_as_xyz
1 x,y,z
2 x-y,x,1/3+z
3 -y,x-y,2/3+z
4 -x,-y,z
5 -x+y,-x,1/3+z
6 y,-x+y,2/3+z
7 -y,-x,2/3-z
8 x-y,-y,-z
9 x,x-y,1/3-z
10 y,x,2/3-z
11 -x+y,y,-z
12 -x,-x+y,1/3-z
_cell_length_a                   19.7205(3)
_cell_length_b                   19.7205(3)
_cell_length_c                   22.9816(4)
_cell_angle_alpha                90
_cell_angle_beta                 90
_cell_angle_gamma                120
_cell_volume                     7740.1
loop_
_atom_site_label
_atom_site_type_symbol
_atom_site_fract_x
_atom_site_fract_y
_atom_site_fract_z
Cd1 Cd 0.54984(4) 0.86636(5) 0.10229(3)
Cd2 Cd 0.53286(4) 0.91442(4) -0.06188(3)
S1 S 0.4997(2) 0.79964(15) 0.00374(17)
S2 S 0.67407(14) 0.99724(14) 0.08359(9)
S3 S 0.44629(17) 0.8902(2) 0.14813(12)
S4 S 0.5000 1.0000 0.0000
C1 C 0.5583(12) 0.7608(11) -0.0158(7)
C2 C 0.5207(12) 0.6801(11) -0.0230(14)
C3 C 0.5609(17) 0.6456(9) -0.0470(16)
C4 C 0.6386(17) 0.6918(15) -0.0638(11)
C5 C 0.6761(13) 0.7726(14) -0.0567(8)
C6 C 0.6360(13) 0.8071(8) -0.0327(7)
C7 C 0.518(3) 0.541(2) -0.0082(18)
C8 C 0.7013(10) 0.8506(5) 0.1667
C9 C 0.7386(13) 0.8766(12) 0.2196(8)
C10 C 0.8083(18) 0.9106(14) 0.2310(16)
C11 C 0.8509(12) 0.9326(14) 0.1898(10)
C12 C 0.7186(4) 1.0340(6) 0.1520(3)
C13 C 0.7997(4) 1.0708(5) 0.1553(4)
C14 C 0.8375(5) 1.1042(7) 0.2074(5)
C15 C 0.7942(8) 1.1007(10) 0.2562(4)
C16 C 0.7130(8) 1.0639(12) 0.2528(3)
C17 C 0.6752(5) 1.0306(9) 0.2007(4)
C18 C 0.9096(19) 1.1431(18) 0.2233(14)
C19 C 0.3711(4) 0.8032(6) 0.1833(5)
C20 C 0.2922(5) 0.7778(7) 0.1748(6)
C21 C 0.2356(4) 0.7116(8) 0.2036(6)
C22 C 0.2579(5) 0.6709(6) 0.2410(6)
C23 C 0.3368(6) 0.6963(8) 0.2496(6)
C24 C 0.3934(4) 0.7625(8) 0.2208(6)
C25 C 0.1451(11) 0.6806(13) 0.1921(12)
S5 S 0.6025(3) 0.7785(3) 0.1485(2)
Cd1H Cd 0.54984(4) 0.68348(6) 0.23104(3)
Cd1G Cd 0.68348(6) 1.13364(5) -0.10229(3)
Cd1J Cd 0.31652(6) 0.86636(5) -0.10229(3)
Cd1C Cd 0.45016(4) 1.13364(5) 0.10229(3)
Cd1E Cd 0.86636(5) 1.31652(6) -0.23104(3)
Cd2G Cd 0.61844(6) 1.08558(4) 0.06188(3)
Cd2J Cd 0.38156(6) 0.91442(4) 0.06188(3)
Cd2H Cd 0.53286(4) 0.61844(6) 0.39521(3)
Cd2C Cd 0.46714(4) 1.08558(4) -0.06188(3)
Cd2A Cd 0.61844(6) 0.53286(4) 0.27145(3)
Cd2D Cd 0.38156(6) 0.46714(4) 0.27145(3)
S1H S 0.4997(2) 0.70006(25) 0.32959(17)
S1G S 0.70006(25) 1.20036(15) -0.00374(17)
S1J S 0.29994(25) 0.79964(15) -0.00374(17)
S2G S 0.67683(20) 1.00276(14) -0.08359(9)
S2H S 0.67407(14) 0.67683(20) 0.24974(9)
S2C S 0.32593(14) 1.00276(14) 0.08359(9)
S2J S 0.32317(20) 0.99724(14) -0.08359(9)
S2A S 0.67683(20) 0.67407(14) 0.41692(9)
S3J S 0.44391(26) 0.8902(2) -0.14813(12)
S3H S 0.44629(17) 0.55609(26) 0.18520(12)
S3C S 0.55371(17) 1.1098(2) 0.14813(12)
S3G S 0.55609(26) 1.1098(2) -0.14813(12)
S3D S 0.44391(26) 0.55371(17) 0.48146(12)
S4A S 0.5000 0.5000 0.3333
C1H C 0.5583(12) 0.7975(16) 0.3491(7)
C1G C 0.7975(16) 1.2392(11) 0.0158(7)
C1J C 0.2025(16) 0.7608(11) 0.0158(7)
C2H C 0.5207(12) 0.8406(16) 0.3563(14)
C2G C 0.8406(16) 1.3199(11) 0.0230(14)
C2J C 0.1594(16) 0.6801(11) 0.0230(14)
C3H C 0.5609(17) 0.9153(19) 0.3803(16)
C3G C 0.9153(19) 1.3544(9) 0.0470(16)
C3J C 0.0847(19) 0.6456(9) 0.0470(16)
C4H C 0.6386(17) 0.9468(23) 0.3971(11)
C4G C 0.9468(23) 1.3082(15) 0.0638(11)
C4J C 0.0532(23) 0.6918(15) 0.0638(11)
C5H C 0.6761(13) 0.9035(19) 0.3900(8)
C5G C 0.9035(19) 1.2274(14) 0.0567(8)
C5J C 0.0965(19) 0.7726(14) 0.0567(8)
C6H C 0.6360(13) 0.8289(15) 0.3660(7)
C6G C 0.8289(15) 1.1929(8) 0.0327(7)
C6J C 0.1711(15) 0.8071(8) 0.0327(7)
C7C C 0.482(3) 0.459(2) -0.0082(18)
C8G C 0.8507(11) 1.1494(5) -0.1667
C9H C 0.7386(13) 0.8620(18) 0.1137(8)
C9G C 0.8620(18) 1.1234(12) -0.2196(8)
C9E C 0.8766(12) 1.1380(18) -0.1137(8)
C10H C 0.8083(18) 0.8977(23) 0.1023(16)
C10G C 0.8977(23) 1.0894(14) -0.2310(16)
C10E C 0.9106(14) 1.1023(23) -0.1023(16)
C11H C 0.8509(12) 0.9183(18) 0.1435(10)
C11G C 0.9183(18) 1.0674(14) -0.1898(10)
C11E C 0.9326(14) 1.0817(18) -0.1435(10)
C12G C 0.6846(7) 0.9660(6) -0.1520(3)
C12H C 0.7186(4) 0.6846(7) 0.1813(3)
C12C C 0.2814(4) 0.9660(6) 0.1520(3)
C13G C 0.7289(6) 0.9292(5) -0.1553(4)
C13H C 0.7997(4) 0.7289(6) 0.1780(4)
C13C C 0.2003(4) 0.9292(5) 0.1553(4)
C14G C 0.7333(9) 0.8958(7) -0.2074(5)
C14H C 0.8375(5) 0.7333(9) 0.1259(5)
C14C C 0.1625(5) 0.8958(7) 0.2074(5)
C15G C 0.6935(13) 0.8993(10) -0.2562(4)
C15H C 0.7942(8) 0.6935(13) 0.0771(4)
C15C C 0.2058(8) 0.8993(10) 0.2562(4)
C16G C 0.6491(14) 0.9361(12) -0.2528(3)
C16H C 0.7130(8) 0.6491(14) 0.0805(3)
C16C C 0.2870(8) 0.9361(12) 0.2528(3)
C17G C 0.6446(10) 0.9694(9) -0.2007(4)
C17H C 0.6752(5) 0.6446(10) 0.1326(4)
C17C C 0.3248(5) 0.9694(9) 0.2007(4)
C18G C 0.7665(26) 0.8569(18) -0.2233(14)
C18H C 0.9096(19) 0.7665(26) 0.1100(14)
C18C C 0.0904(19) 0.8569(18) 0.2233(14)
C19J C 0.4321(7) 0.8032(6) -0.1833(5)
C19H C 0.3711(4) 0.5679(7) 0.1500(5)
C19C C 0.6289(4) 1.1968(6) 0.1833(5)
C20J C 0.4856(9) 0.7778(7) -0.1748(6)
C20H C 0.2922(5) 0.5144(9) 0.1585(6)
C20C C 0.7078(5) 1.2222(7) 0.1748(6)
C21J C 0.4760(9) 0.7116(8) -0.2036(6)
C21H C 0.2356(4) 0.5240(9) 0.1297(6)
C21C C 0.7644(4) 1.2884(8) 0.2036(6)
C22J C 0.4130(8) 0.6709(6) -0.2410(6)
C22H C 0.2579(5) 0.5870(8) 0.0923(6)
C22C C 0.7421(5) 1.3291(6) 0.2410(6)
C23J C 0.3595(10) 0.6963(8) -0.2496(6)
C23H C 0.3368(6) 0.6405(10) 0.0837(6)
C23C C 0.6632(6) 1.3037(8) 0.2496(6)
C24J C 0.3691(9) 0.7625(8) -0.2208(6)
C24H C 0.3934(4) 0.6309(9) 0.1125(6)
C24C C 0.6066(4) 1.2375(8) 0.2208(6)
C25J C 0.5355(17) 0.6806(13) -0.1921(12)
C25H C 0.1451(11) 0.4645(17) 0.1412(12)
C25C C 0.8549(11) 1.3194(13) 0.1921(12)
S5H S 0.6025(3) 0.8240(4) 0.1848(2)
S5G S 0.8240(4) 1.2215(3) -0.1485(2)
S5E S 0.7785(3) 1.1760(4) -0.1848(2)
S5B S 0.2215(3) 0.8240(4) -0.1848(2)
S5J S 0.1760(4) 0.7785(3) -0.1485(2)
loop_
_geom_bond_atom_site_label_1
_geom_bond_atom_site_label_2
_geom_bond_site_symmetry_1
_geom_bond_site_symmetry_2
Cd1 S1 1_555 1_555
Cd2 S1 1_555 1_555
S1 C1 1_555 1_555
S2 Cd1 1_555 1_555
S3 Cd1 1_555 1_555
S4 Cd2 1_555 1_555
C1 C2 1_555 1_555
C2 C3 1_555 1_555
C3 C4 1_555 1_555
C4 C5 1_555 1_555
C5 C6 1_555 1_555
C6 C1 1_555 1_555
C7 C3 1_555 1_555
C8 C9 1_555 1_555
C9 C10 1_555 1_555
C10 C11 1_555 1_555
C11 C11H 1_555 1_555
C12 S2 1_555 1_555
C13 C12 1_555 1_555
C14 C13 1_555 1_555
C15 C14 1_555 1_555
C16 C15 1_555 1_555
C17 C12 1_555 1_555
C18 C14 1_555 1_555
C19 S3 1_555 1_555
C20 C19 1_555 1_555
C21 C20 1_555 1_555
C22 C21 1_555 1_555
C23 C22 1_555 1_555
C24 C19 1_555 1_555
C25 C21 1_555 1_555
S5 Cd1 1_555 1_555
Cd1H S5 1_555 1_555
Cd1G S1G 1_555 1_555
Cd1J S1J 1_555 1_555
Cd1C S2C 1_555 1_555
Cd1E S5G 1_555 1_555
Cd2G S2 1_555 1_555
Cd2J S3 1_555 1_555
Cd2H S1H 1_555 1_555
Cd2C S4 1_555 1_555
Cd2A S2H 1_555 1_555
Cd2D S3H 1_555 1_555
S1H Cd1H 1_555 1_555
S1G Cd2G 1_555 1_555
S1J Cd2J 1_555 1_555
S2G Cd2 1_555 1_555
S2H Cd1H 1_555 1_555
S2C Cd2J 1_555 1_555
S2J Cd1J 1_555 1_555
S2A Cd2H 1_555 1_555
S3J Cd2 1_555 1_555
S3H Cd1H 1_555 1_555
S3C Cd1C 1_555 1_555
S3G Cd1G 1_555 1_555
S3D Cd2H 1_555 1_555
S4A Cd2H 1_555 1_555
C1H S1H 1_555 1_555
C1G S1G 1_555 1_555
C1J S1J 1_555 1_555
C2H C1H 1_555 1_555
C2G C1G 1_555 1_555
C2J C1J 1_555 1_555
C3H C2H 1_555 1_555
C3G C2G 1_555 1_555
C3J C2J 1_555 1_555
C4H C3H 1_555 1_555
C4G C3G 1_555 1_555
C4J C3J 1_555 1_555
C5H C4H 1_555 1_555
C5G C4G 1_555 1_555
C5J C4J 1_555 1_555
C6H C1H 1_555 1_555
C6G C1G 1_555 1_555
C6J C1J 1_555 1_555
C7C C7 1_555 1_555
C8G C9G 1_555 1_555
C9H C8 1_555 1_555
C9G C10G 1_555 1_555
C9E C8G 1_555 1_555
C10H C9H 1_555 1_555
C10G C11G 1_555 1_555
C10E C9E 1_555 1_555
C11H C10H 1_555 1_555
C11G C11E 1_555 1_555
C11E C10E 1_555 1_555
C12G S2G 1_555 1_555
C12H S2H 1_555 1_555
C12C S2C 1_555 1_555
C13G C12G 1_555 1_555
C13H C12H 1_555 1_555
C13C C12C 1_555 1_555
C14G C13G 1_555 1_555
C14H C13H 1_555 1_555
C14C C13C 1_555 1_555
C15G C14G 1_555 1_555
C15H C14H 1_555 1_555
C15C C14C 1_555 1_555
C16G C15G 1_555 1_555
C16H C15H 1_555 1_555
C16C C15C 1_555 1_555
C17G C12G 1_555 1_555
C17H C12H 1_555 1_555
C17C C12C 1_555 1_555
C18G C14G 1_555 1_555
C18H C14H 1_555 1_555
C18C C14C 1_555 1_555
C19J S3J 1_555 1_555
C19H S3H 1_555 1_555
C19C S3C 1_555 1_555
C20J C19J 1_555 1_555
C20H C19H 1_555 1_555
C20C C19C 1_555 1_555
C21J C20J 1_555 1_555
C21H C20H 1_555 1_555
C21C C20C 1_555 1_555
C22J C21J 1_555 1_555
C22H C21H 1_555 1_555
C22C C21C 1_555 1_555
C23J C22J 1_555 1_555
C23H C22H 1_555 1_555
C23C C22C 1_555 1_555
C24J C19J 1_555 1_555
C24H C19H 1_555 1_555
C24C C19C 1_555 1_555
C25J C21J 1_555 1_555
C25H C21H 1_555 1_555
C25C C21C 1_555 1_555
S5H Cd1 1_555 1_555
S5G Cd1G 1_555 1_555
S5E Cd1G 1_555 1_555
S5B Cd1J 1_555 1_555
S5J Cd1J 1_555 1_555
S4 Cd2G 1_555 1_555
S4 Cd2J 1_555 1_555
C8 S5 1_555 1_555
C8 S5H 1_555 1_555
C16 C17 1_555 1_555
C23 C24 1_555 1_555
S5 S5H 1_555 1_555
Cd1H S5H 1_555 1_555
Cd1G S2G 1_555 1_555
Cd1J S3J 1_555 1_555
Cd1E S5E 1_555 1_555
Cd2G S3C 1_555 1_555
Cd2C S2J 1_555 1_555
Cd2C S3G 1_555 1_555
Cd2A S4A 1_555 1_555
Cd2D S4A 1_555 1_555
C5H C6H 1_555 1_555
C5G C6G 1_555 1_555
C5J C6J 1_555 1_555
C8G S5G 1_555 1_555
C8G S5E 1_555 1_555
C16G C17G 1_555 1_555
C16H C17H 1_555 1_555
C16C C17C 1_555 1_555
C23J C24J 1_555 1_555
C23H C24H 1_555 1_555
C23C C24C 1_555 1_555
S5G S5E 1_555 1_555
S5B S5J 1_555 1_555

#END
