
#######################################################################
#
#                 Cambridge Crystallographic Data Centre
#                                CCDC 
#
#######################################################################
#
# If this CIF has been generated from an entry in the Cambridge 
# Structural Database, then it will include bibliographic, chemical, 
# crystal, experimental, refinement or atomic coordinate data resulting 
# from the CCDC's data processing and validation procedures.
#
#######################################################################

data_XIJQIR
_symmetry_cell_setting           triclinic
_symmetry_space_group_name_H-M   'P -1'
_symmetry_Int_Tables_number      2
_space_group_name_Hall           '-P 1'
loop_
_symmetry_equiv_pos_site_id
_symmetry_equiv_pos_as_xyz
1 x,y,z
2 -x,-y,-z
_cell_length_a                   11.3718(9)
_cell_length_b                   15.1633(12)
_cell_length_c                   17.9472(15)
_cell_angle_alpha                88.393(2)
_cell_angle_beta                 73.2150(10)
_cell_angle_gamma                87.949(2)
_cell_volume                     2960.45
loop_
_atom_site_label
_atom_site_type_symbol
_atom_site_fract_x
_atom_site_fract_y
_atom_site_fract_z
Zn1 Zn 0.41515(2) 0.257594(17) 1.094151(15)
Zn2 Zn 0.54428(2) 0.244366(16) 0.442745(15)
O1 O 0.43484(18) 0.09578(15) 1.09208(10)
O2 O 0.36617(17) 0.16702(12) 1.19678(12)
O3 O 0.35768(15) 0.35107(11) 1.19575(10)
O4 O 0.42009(16) 0.40885(12) 1.08067(10)
O5 O 0.3883(2) 0.02443(13) 1.20182(13)
O6 O 0.36648(18) 0.49393(12) 1.18080(12)
O7 O 0.58161(16) 0.33454(11) 0.33922(10)
O8 O 0.53955(16) 0.39778(11) 0.44970(9)
O9 O 0.59575(16) 0.15174(11) 0.32825(11)
O10 O 0.53351(16) 0.10028(12) 0.44570(10)
O11 O 0.57019(18) 0.47780(11) 0.34392(11)
O12 O 0.55451(17) 0.01318(11) 0.34850(11)
N1 N 0.46704(17) 0.24797(12) 0.96934(11)
N2 N 0.50250(17) 0.24595(12) 0.56801(11)
N3 N 0.22461(17) 0.26686(12) 1.09589(11)
N4 N -0.40094(17) 0.25754(12) 1.09861(11)
N5 N 0.35781(17) 0.24447(12) 0.44170(11)
N6 N -0.26391(17) 0.23891(12) 0.43628(11)
N7 N 0.38114(18) 0.42006(13) 1.15357(12)
N8 N 0.39627(18) 0.09298(13) 1.16495(11)
N9 N 0.56149(18) 0.08647(13) 0.37287(12)
N10 N 0.56339(17) 0.40549(12) 0.37654(11)
C1 C 0.4546(2) 0.17284(15) 0.93447(14)
H1 H 0.4386 0.1203 0.9653
C2 C 0.4639(2) 0.16817(15) 0.85648(13)
H2 H 0.4554 0.1134 0.8344
C3 C 0.4861(2) 0.24495(15) 0.80998(13)
C4 C 0.5030(2) 0.32156(15) 0.84551(13)
H3 H 0.5213 0.3747 0.8157
C5 C 0.4934(2) 0.32093(15) 0.92389(13)
H4 H 0.5059 0.3742 0.9468
C6 C 0.5242(2) 0.17188(15) 0.60486(14)
H5 H 0.5436 0.1190 0.5761
C7 C 0.5196(2) 0.16844(15) 0.68314(14)
H6 H 0.5366 0.1144 0.7067
C8 C 0.4900(2) 0.24465(14) 0.72661(12)
C9 C 0.4655(2) 0.32125(15) 0.68812(13)
H7 H 0.4442 0.3748 0.7157
C10 C 0.4719(2) 0.31945(15) 0.61039(13)
H8 H 0.4540 0.3723 0.5857
C11 C 0.1868(2) 0.28820(16) 1.03319(14)
H9 H 0.2474 0.3028 0.9861
C12 C 0.0656(2) 0.29017(15) 1.03305(14)
H10 H 0.0445 0.3054 0.9868
C13 C -0.0259(2) 0.26961(14) 1.10137(13)
C14 C 0.0123(2) 0.25106(17) 1.16741(13)
H11 H -0.0465 0.2392 1.2159
C15 C 0.1355(2) 0.25002(17) 1.16220(14)
H12 H 0.1590 0.2367 1.2080
C16 C -0.3726(2) 0.27598(15) 1.16433(13)
H13 H -0.4380 0.2867 1.2102
C17 C -0.2537(2) 0.28017(15) 1.16843(13)
H14 H -0.2385 0.2927 1.2163
C18 C -0.1556(2) 0.26584(14) 1.10159(13)
C19 C -0.1857(2) 0.24610(16) 1.03413(13)
H15 H -0.1222 0.2353 0.9873
C20 C -0.3062(2) 0.24212(16) 1.03487(13)
H16 H -0.3237 0.2278 0.9881
C21 C 0.2631(2) 0.24782(15) 0.50710(13)
H17 H 0.2807 0.2544 0.5552
C22 C 0.1424(2) 0.24225(15) 0.50817(13)
H18 H 0.0791 0.2453 0.5561
C23 C 0.1127(2) 0.23218(14) 0.43887(13)
C24 C 0.2104(2) 0.22655(16) 0.37118(14)
H19 H 0.1954 0.2181 0.3225
C25 C 0.3294(2) 0.23324(16) 0.37489(14)
H20 H 0.3945 0.2297 0.3279
C26 C -0.2253(2) 0.28324(15) 0.48795(14)
H21 H -0.2840 0.3183 0.5246
C27 C -0.1056(2) 0.28099(15) 0.49102(14)
H22 H -0.0841 0.3129 0.5297
C28 C -0.0160(2) 0.23168(15) 0.43720(13)
C29 C -0.0555(2) 0.18614(15) 0.38241(13)
H23 H 0.0017 0.1520 0.3441
C30 C -0.1778(2) 0.19096(15) 0.38412(13)
H24 H -0.2025 0.1589 0.3467
Zn1_2 Zn 1.41515(2) 0.257594(17) 1.094151(15)
Zn1_3 Zn -0.58485(2) 0.257594(17) 1.094151(15)
Zn2_2 Zn 1.54428(2) 0.244366(16) 0.442745(15)
Zn2_3 Zn -0.45572(2) 0.244366(16) 0.442745(15)
O1_2 O 1.43484(18) 0.09578(15) 1.09208(10)
O2_2 O 1.36617(17) 0.16702(12) 1.19678(12)
O3_2 O 1.35768(15) 0.35107(11) 1.19575(10)
O4_2 O 1.42009(16) 0.40885(12) 1.08067(10)
O5_2 O 1.3883(2) 0.02443(13) 1.20182(13)
O6_2 O 1.36648(18) 0.49393(12) 1.18080(12)
O7_2 O 1.58161(16) 0.33454(11) 0.33922(10)
O8_2 O 1.53955(16) 0.39778(11) 0.44970(9)
O9_2 O 1.59575(16) 0.15174(11) 0.32825(11)
O10_2 O 1.53351(16) 0.10028(12) 0.44570(10)
O11_2 O 1.57019(18) 0.47780(11) 0.34392(11)
O12_2 O 1.55451(17) 0.01318(11) 0.34850(11)
N1_2 N 1.46704(17) 0.24797(12) 0.96934(11)
N2_2 N 1.50250(17) 0.24595(12) 0.56801(11)
N3_2 N 1.22461(17) 0.26686(12) 1.09589(11)
N4_2 N 0.59906(17) 0.25754(12) 1.09861(11)
N4_3 N 1.59906(17) 0.25754(12) 1.09861(11)
N5_2 N 1.35781(17) 0.24447(12) 0.44170(11)
N6_2 N 0.73609(17) 0.23891(12) 0.43628(11)
N6_3 N 1.73609(17) 0.23891(12) 0.43628(11)
N7_2 N 1.38114(18) 0.42006(13) 1.15357(12)
N8_2 N 1.39627(18) 0.09298(13) 1.16495(11)
N9_2 N 1.56149(18) 0.08647(13) 0.37287(12)
N10_2 N 1.56339(17) 0.40549(12) 0.37654(11)
C1_2 C 1.4546(2) 0.17284(15) 0.93447(14)
H1_2 H 1.4386 0.1203 0.9653
C2_2 C 1.4639(2) 0.16817(15) 0.85648(13)
H2_2 H 1.4554 0.1134 0.8344
C3_2 C 1.4861(2) 0.24495(15) 0.80998(13)
C4_2 C 1.5030(2) 0.32156(15) 0.84551(13)
H3_2 H 1.5213 0.3747 0.8157
C5_2 C 1.4934(2) 0.32093(15) 0.92389(13)
H4_2 H 1.5059 0.3742 0.9468
C6_2 C 1.5242(2) 0.17188(15) 0.60486(14)
H5_2 H 1.5436 0.1190 0.5761
C7_2 C 1.5196(2) 0.16844(15) 0.68314(14)
H6_2 H 1.5366 0.1144 0.7067
C8_2 C 1.4900(2) 0.24465(14) 0.72661(12)
C9_2 C 1.4655(2) 0.32125(15) 0.68812(13)
H7_2 H 1.4442 0.3748 0.7157
C10_2 C 1.4719(2) 0.31945(15) 0.61039(13)
H8_2 H 1.4540 0.3723 0.5857
C11_2 C 1.1868(2) 0.28820(16) 1.03319(14)
H9_2 H 1.2474 0.3028 0.9861
C12_2 C 1.0656(2) 0.29017(15) 1.03305(14)
H10_2 H 1.0445 0.3054 0.9868
C13_2 C 0.9741(2) 0.26961(14) 1.10137(13)
C14_2 C 1.0123(2) 0.25106(17) 1.16741(13)
H11_2 H 0.9535 0.2392 1.2159
C15_2 C 1.1355(2) 0.25002(17) 1.16220(14)
H12_2 H 1.1590 0.2367 1.2080
C16_2 C 0.6274(2) 0.27598(15) 1.16433(13)
H13_2 H 0.5620 0.2867 1.2102
C17_2 C 0.7463(2) 0.28017(15) 1.16843(13)
H14_2 H 0.7615 0.2927 1.2163
C18_2 C 0.8444(2) 0.26584(14) 1.10159(13)
C19_2 C 0.8143(2) 0.24610(16) 1.03413(13)
H15_2 H 0.8778 0.2353 0.9873
C20_2 C 0.6938(2) 0.24212(16) 1.03487(13)
H16_2 H 0.6763 0.2278 0.9881
C21_2 C 1.2631(2) 0.24782(15) 0.50710(13)
H17_2 H 1.2807 0.2544 0.5552
C22_2 C 1.1424(2) 0.24225(15) 0.50817(13)
H18_2 H 1.0791 0.2453 0.5561
C23_2 C 1.1127(2) 0.23218(14) 0.43887(13)
C24_2 C 1.2104(2) 0.22655(16) 0.37118(14)
H19_2 H 1.1954 0.2181 0.3225
C25_2 C 1.3294(2) 0.23324(16) 0.37489(14)
H20_2 H 1.3945 0.2297 0.3279
C26_2 C 0.7747(2) 0.28324(15) 0.48795(14)
H21_2 H 0.7160 0.3183 0.5246
C27_2 C 0.8944(2) 0.28099(15) 0.49102(14)
H22_2 H 0.9159 0.3129 0.5297
C28_2 C 0.9840(2) 0.23168(15) 0.43720(13)
C29_2 C 0.9445(2) 0.18614(15) 0.38241(13)
H23_2 H 1.0017 0.1520 0.3441
C30_2 C 0.8222(2) 0.19096(15) 0.38412(13)
H24_2 H 0.7975 0.1589 0.3467
C31 C -0.0751(2) 0.77083(16) 0.20348(15)
C32 C 0.0452(2) 0.79906(16) 0.17521(15)
H25 H 0.0654 0.8403 0.1330
C33 C 0.1361(2) 0.76810(16) 0.20756(15)
H26 H 0.2172 0.7889 0.1874
C34 C 0.1108(2) 0.70712(16) 0.26901(14)
C35 C -0.0093(2) 0.67963(16) 0.29802(14)
H27 H -0.0294 0.6389 0.3407
C36 C -0.1007(2) 0.71063(16) 0.26587(15)
H28 H -0.1820 0.6905 0.2867
C37 C -0.1742(3) 0.80300(19) 0.16824(18)
H29 H -0.2173 0.7524 0.1571
H30 H -0.1372 0.8358 0.1198
H31 H -0.2327 0.8417 0.2048
C38 C 0.2098(2) 0.67201(19) 0.30242(16)
H32 H 0.2684 0.6353 0.2639
H33 H 0.1732 0.6364 0.3493
H34 H 0.2527 0.7213 0.3160
C39 C 0.0945(2) 0.46098(15) 0.40127(15)
C40 C 0.2142(2) 0.45977(16) 0.41328(16)
H35 H 0.2838 0.4434 0.3716
C41 C 0.2304(2) 0.48113(16) 0.48172(16)
H36 H 0.3109 0.4786 0.4875
C42 C 0.1282(2) 0.50782(15) 0.54654(15)
C43 C -0.0085(2) 0.48837(15) 0.46362(14)
C44 C 0.1422(3) 0.53208(17) 0.61772(16)
H37 H 0.2215 0.5289 0.6254
C45 C 0.0423(3) 0.56072(17) 0.67740(16)
H38 H 0.0542 0.5787 0.7249
C46 C 0.0751(3) 0.43664(16) 0.33153(16)
H39 H 0.1430 0.4180 0.2896
C39A C -0.0945(2) 0.53902(15) 0.59873(15)
C40A C -0.2142(2) 0.54023(16) 0.58672(16)
H35A H -0.2838 0.5566 0.6284
C41A C -0.2304(2) 0.51887(16) 0.51828(16)
H36A H -0.3109 0.5214 0.5125
C42A C -0.1282(2) 0.49218(15) 0.45346(15)
C43A C 0.0085(2) 0.51163(15) 0.53638(14)
C44A C -0.1422(3) 0.46792(17) 0.38228(16)
H37A H -0.2215 0.4711 0.3746
C45A C -0.0423(3) 0.43928(17) 0.32260(16)
H38A H -0.0542 0.4213 0.2751
C46A C -0.0751(3) 0.56336(16) 0.66847(16)
H39A H -0.1430 0.5820 0.7104
C47 C 1.1550(2) 0.53689(16) 0.07208(15)
H40 H 1.2264 0.5489 0.0869
C48 C 1.0447(2) 0.53817(16) 0.12600(14)
H41 H 1.0401 0.5516 0.1782
C49 C 0.9328(2) 0.51984(15) 0.10723(14)
C50 C 0.8171(2) 0.51963(16) 0.16282(15)
H42 H 0.8101 0.5324 0.2155
C51 C 0.7130(2) 0.50092(16) 0.14143(15)
H43 H 0.6355 0.5001 0.1799
C52 C 0.7200(2) 0.48346(16) 0.06528(16)
H44 H 0.6472 0.4720 0.0517
C53 C 1.1664(2) 0.51757(15) -0.00764(14)
C54 C 0.9414(2) 0.50029(15) 0.02880(13)
C47A C 0.8450(2) 0.46311(16) -0.07208(15)
H40A H 0.7736 0.4511 -0.0869
C48A C 0.9553(2) 0.46183(16) -0.12600(14)
H41A H 0.9599 0.4484 -0.1782
C49A C 1.0672(2) 0.48016(15) -0.10723(14)
C50A C 1.1829(2) 0.48037(16) -0.16282(15)
H42A H 1.1899 0.4676 -0.2155
C51A C 1.2870(2) 0.49908(16) -0.14143(15)
H43A H 1.3645 0.4999 -0.1799
C52A C 1.2800(2) 0.51654(16) -0.06528(16)
H44A H 1.3528 0.5280 -0.0517
C53A C 0.8336(2) 0.48243(15) 0.00764(14)
C54A C 1.0586(2) 0.49971(15) -0.02880(13)
C55 C 1.2214(2) 0.98961(16) 0.41404(16)
H45 H 1.3081 0.9910 0.3926
C56 C 1.1526(3) 0.96743(18) 0.36870(17)
H46 H 1.1920 0.9528 0.3161
C57 C 1.0217(3) 0.96509(16) 0.39708(15)
C58 C 0.9644(2) 0.98846(16) 0.47484(15)
C59 C 1.1674(3) 1.01150(16) 0.49449(17)
C60 C 1.2361(3) 1.03259(17) 0.54432(18)
H47 H 1.3232 1.0320 0.5256
C61 C 1.1781(3) 1.05425(18) 0.62057(18)
H48 H 1.2270 1.0680 0.6534
C62 C 0.9478(3) 0.94337(18) 0.34907(17)
H49 H 0.9849 0.9273 0.2965
C55A C 0.7786(2) 1.01039(16) 0.58596(16)
H45A H 0.6919 1.0090 0.6074
C56A C 0.8474(3) 1.03257(18) 0.63130(17)
H46A H 0.8080 1.0472 0.6839
C57A C 0.9783(3) 1.03491(16) 0.60292(15)
C58A C 1.0356(2) 1.01154(16) 0.52516(15)
C59A C 0.8326(3) 0.98850(16) 0.50551(17)
C60A C 0.7639(3) 0.96741(17) 0.45568(18)
H47A H 0.6768 0.9680 0.4744
C61A C 0.8219(3) 0.94575(18) 0.37943(18)
H48A H 0.7730 0.9320 0.3466
C62A C 1.0522(3) 1.05663(18) 0.65093(17)
H49A H 1.0151 1.0727 0.7035
C63 C 1.1787(3) 0.01179(17) 0.05731(18)
H50 H 1.2569 0.0126 0.0664
C64 C 1.0768(3) 0.02891(18) 0.11654(17)
H51 H 1.0848 0.0421 0.1662
C65 C 0.9571(3) 0.02765(16) 0.10597(16)
C66 C 0.8483(3) 0.04483(17) 0.16632(17)
H52 H 0.8534 0.0580 0.2167
C67 C 0.7346(3) 0.04287(18) 0.15343(18)
H53 H 0.6627 0.0543 0.1951
C68 C 0.7239(3) 0.02472(17) 0.08130(18)
H54 H 0.6447 0.0238 0.0737
C69 C 1.1718(2) -0.00746(16) -0.01871(16)
C70 C 0.9456(2) 0.00884(15) 0.03139(15)
C63A C 0.8213(3) -0.01179(17) -0.05731(18)
H50A H 0.7431 -0.0126 -0.0664
C64A C 0.9232(3) -0.02891(18) -0.11654(17)
H51A H 0.9152 -0.0421 -0.1662
C65A C 1.0429(3) -0.02765(16) -0.10597(16)
C66A C 1.1517(3) -0.04483(17) -0.16632(17)
H52A H 1.1466 -0.0580 -0.2167
C67A C 1.2654(3) -0.04287(18) -0.15343(18)
H53A H 1.3373 -0.0543 -0.1951
C68A C 1.2761(3) -0.02472(17) -0.08130(18)
H54A H 1.3553 -0.0238 -0.0737
C69A C 0.8282(2) 0.00746(16) 0.01871(16)
C70A C 1.0544(2) -0.00884(15) -0.03139(15)
loop_
_geom_bond_atom_site_label_1
_geom_bond_atom_site_label_2
_geom_bond_site_symmetry_1
_geom_bond_site_symmetry_2
Zn1 O1 1_555 1_555
Zn2 O7 1_555 1_555
O1 N8 1_555 1_555
O2 Zn1 1_555 1_555
O3 Zn1 1_555 1_555
O4 Zn1 1_555 1_555
O5 N8 1_555 1_555
O6 N7 1_555 1_555
O7 N10 1_555 1_555
O8 Zn2 1_555 1_555
O9 Zn2 1_555 1_555
O10 Zn2 1_555 1_555
O11 N10 1_555 1_555
O12 N9 1_555 1_555
N1 Zn1 1_555 1_555
N2 Zn2 1_555 1_555
N3 Zn1 1_555 1_555
N4 C16 1_555 1_555
N5 Zn2 1_555 1_555
N6 C26 1_555 1_555
N7 O3 1_555 1_555
N8 O2 1_555 1_555
N9 O9 1_555 1_555
N10 O8 1_555 1_555
C1 N1 1_555 1_555
H1 C1 1_555 1_555
C2 C1 1_555 1_555
H2 C2 1_555 1_555
C3 C2 1_555 1_555
C4 C3 1_555 1_555
H3 C4 1_555 1_555
C5 N1 1_555 1_555
H4 C5 1_555 1_555
C6 N2 1_555 1_555
H5 C6 1_555 1_555
C7 C6 1_555 1_555
H6 C7 1_555 1_555
C8 C3 1_555 1_555
C9 C8 1_555 1_555
H7 C9 1_555 1_555
C10 N2 1_555 1_555
H8 C10 1_555 1_555
C11 N3 1_555 1_555
H9 C11 1_555 1_555
C12 C11 1_555 1_555
H10 C12 1_555 1_555
C13 C12 1_555 1_555
C14 C13 1_555 1_555
H11 C14 1_555 1_555
C15 N3 1_555 1_555
H12 C15 1_555 1_555
C16 H13 1_555 1_555
C17 C16 1_555 1_555
H14 C17 1_555 1_555
C18 C13 1_555 1_555
C19 C18 1_555 1_555
H15 C19 1_555 1_555
C20 N4 1_555 1_555
H16 C20 1_555 1_555
C21 N5 1_555 1_555
H17 C21 1_555 1_555
C22 C21 1_555 1_555
H18 C22 1_555 1_555
C23 C22 1_555 1_555
C24 C23 1_555 1_555
H19 C24 1_555 1_555
C25 N5 1_555 1_555
H20 C25 1_555 1_555
C26 H21 1_555 1_555
C27 C26 1_555 1_555
H22 C27 1_555 1_555
C28 C23 1_555 1_555
C29 C28 1_555 1_555
H23 C29 1_555 1_555
C30 N6 1_555 1_555
H24 C30 1_555 1_555
C31 C32 1_555 1_555
C32 H25 1_555 1_555
C33 C32 1_555 1_555
H26 C33 1_555 1_555
C34 C33 1_555 1_555
C35 C34 1_555 1_555
H27 C35 1_555 1_555
C36 C31 1_555 1_555
H28 C36 1_555 1_555
C37 C31 1_555 1_555
H29 C37 1_555 1_555
H30 C37 1_555 1_555
H31 C37 1_555 1_555
C38 C34 1_555 1_555
H32 C38 1_555 1_555
H33 C38 1_555 1_555
H34 C38 1_555 1_555
C39 C40 1_555 1_555
C40 H35 1_555 1_555
C41 C40 1_555 1_555
H36 C41 1_555 1_555
C42 C41 1_555 1_555
C43 C39 1_555 1_555
C44 C42 1_555 1_555
H37 C44 1_555 1_555
C45 C44 1_555 1_555
H38 C45 1_555 1_555
C46 C39 1_555 1_555
H39 C46 1_555 1_555
C47 H40 1_555 1_555
C48 C47 1_555 1_555
H41 C48 1_555 1_555
C49 C48 1_555 1_555
C50 C49 1_555 1_555
H42 C50 1_555 1_555
C51 C50 1_555 1_555
H43 C51 1_555 1_555
C52 C51 1_555 1_555
H44 C52 1_555 1_555
C53 C47 1_555 1_555
C54 C49 1_555 1_555
C55 H45 1_555 1_555
C56 C55 1_555 1_555
H46 C56 1_555 1_555
C57 C56 1_555 1_555
C58 C57 1_555 1_555
C59 C55 1_555 1_555
C60 C59 1_555 1_555
H47 C60 1_555 1_555
C61 C60 1_555 1_555
H48 C61 1_555 1_555
C62 C57 1_555 1_555
H49 C62 1_555 1_555
C63 H50 1_555 1_555
C64 C63 1_555 1_555
H51 C64 1_555 1_555
C65 C64 1_555 1_555
C66 C65 1_555 1_555
H52 C66 1_555 1_555
C67 C66 1_555 1_555
H53 C67 1_555 1_555
C68 C67 1_555 1_555
H54 C68 1_555 1_555
C69 C63 1_555 1_555
C70 C65 1_555 1_555
Zn1_2 O1_2 1_555 1_555
Zn1_3 N4 1_555 1_555
Zn2_2 O7_2 1_555 1_555
Zn2_3 N6 1_555 1_555
O1_2 N8_2 1_555 1_555
O2_2 Zn1_2 1_555 1_555
O3_2 Zn1_2 1_555 1_555
O4_2 Zn1_2 1_555 1_555
O5_2 N8_2 1_555 1_555
O6_2 N7_2 1_555 1_555
O7_2 N10_2 1_555 1_555
O8_2 Zn2_2 1_555 1_555
O9_2 Zn2_2 1_555 1_555
O10_2 Zn2_2 1_555 1_555
O11_2 N10_2 1_555 1_555
O12_2 N9_2 1_555 1_555
N1_2 Zn1_2 1_555 1_555
N2_2 Zn2_2 1_555 1_555
N3_2 Zn1_2 1_555 1_555
N4_2 Zn1 1_555 1_555
N4_3 Zn1_2 1_555 1_555
N5_2 Zn2_2 1_555 1_555
N6_2 Zn2 1_555 1_555
N6_3 Zn2_2 1_555 1_555
N7_2 O3_2 1_555 1_555
N8_2 O2_2 1_555 1_555
N9_2 O9_2 1_555 1_555
N10_2 O8_2 1_555 1_555
C1_2 N1_2 1_555 1_555
H1_2 C1_2 1_555 1_555
C2_2 C1_2 1_555 1_555
H2_2 C2_2 1_555 1_555
C3_2 C2_2 1_555 1_555
C4_2 C3_2 1_555 1_555
H3_2 C4_2 1_555 1_555
C5_2 N1_2 1_555 1_555
H4_2 C5_2 1_555 1_555
C6_2 N2_2 1_555 1_555
H5_2 C6_2 1_555 1_555
C7_2 C6_2 1_555 1_555
H6_2 C7_2 1_555 1_555
C8_2 C3_2 1_555 1_555
C9_2 C8_2 1_555 1_555
H7_2 C9_2 1_555 1_555
C10_2 N2_2 1_555 1_555
H8_2 C10_2 1_555 1_555
C11_2 N3_2 1_555 1_555
H9_2 C11_2 1_555 1_555
C12_2 C11_2 1_555 1_555
H10_2 C12_2 1_555 1_555
C13_2 C12_2 1_555 1_555
C14_2 C13_2 1_555 1_555
H11_2 C14_2 1_555 1_555
C15_2 N3_2 1_555 1_555
H12_2 C15_2 1_555 1_555
C16_2 N4_2 1_555 1_555
H13_2 C16_2 1_555 1_555
C17_2 C16_2 1_555 1_555
H14_2 C17_2 1_555 1_555
C18_2 C13_2 1_555 1_555
C19_2 C18_2 1_555 1_555
H15_2 C19_2 1_555 1_555
C20_2 N4_2 1_555 1_555
H16_2 C20_2 1_555 1_555
C21_2 N5_2 1_555 1_555
H17_2 C21_2 1_555 1_555
C22_2 C21_2 1_555 1_555
H18_2 C22_2 1_555 1_555
C23_2 C22_2 1_555 1_555
C24_2 C23_2 1_555 1_555
H19_2 C24_2 1_555 1_555
C25_2 N5_2 1_555 1_555
H20_2 C25_2 1_555 1_555
C26_2 N6_2 1_555 1_555
H21_2 C26_2 1_555 1_555
C27_2 C26_2 1_555 1_555
H22_2 C27_2 1_555 1_555
C28_2 C23_2 1_555 1_555
C29_2 C28_2 1_555 1_555
H23_2 C29_2 1_555 1_555
C30_2 N6_2 1_555 1_555
H24_2 C30_2 1_555 1_555
C39A C40A 1_555 1_555
C40A H35A 1_555 1_555
C41A C40A 1_555 1_555
H36A C41A 1_555 1_555
C42A C43 1_555 1_555
C43A C42 1_555 1_555
C44A C42A 1_555 1_555
H37A C44A 1_555 1_555
C45A C46 1_555 1_555
H38A C45A 1_555 1_555
C46A C45 1_555 1_555
H39A C46A 1_555 1_555
C47A H40A 1_555 1_555
C48A C47A 1_555 1_555
H41A C48A 1_555 1_555
C49A C48A 1_555 1_555
C50A C49A 1_555 1_555
H42A C50A 1_555 1_555
C51A C50A 1_555 1_555
H43A C51A 1_555 1_555
C52A C53 1_555 1_555
H44A C52A 1_555 1_555
C53A C52 1_555 1_555
C54A C53 1_555 1_555
C55A H45A 1_555 1_555
C56A C55A 1_555 1_555
H46A C56A 1_555 1_555
C57A C56A 1_555 1_555
C58A C58 1_555 1_555
C59A C58 1_555 1_555
C60A C59A 1_555 1_555
H47A C60A 1_555 1_555
C61A C62 1_555 1_555
H48A C61A 1_555 1_555
C62A C61 1_555 1_555
H49A C62A 1_555 1_555
C63A H50A 1_555 1_555
C64A C63A 1_555 1_555
H51A C64A 1_555 1_555
C65A C64A 1_555 1_555
C66A C65A 1_555 1_555
H52A C66A 1_555 1_555
C67A C66A 1_555 1_555
H53A C67A 1_555 1_555
C68A C69 1_555 1_555
H54A C68A 1_555 1_555
C69A C68 1_555 1_555
C70A C69 1_555 1_555
O4 N7 1_555 1_555
O10 N9 1_555 1_555
C4 C5 1_555 1_555
C7 C8 1_555 1_555
C9 C10 1_555 1_555
C14 C15 1_555 1_555
C17 C18 1_555 1_555
C19 C20 1_555 1_555
C24 C25 1_555 1_555
C27 C28 1_555 1_555
C29 C30 1_555 1_555
C35 C36 1_555 1_555
C43 C43A 1_555 1_555
C54 C53A 1_555 1_555
C54 C54A 1_555 1_555
C59 C58A 1_555 1_555
C70 C69A 1_555 1_555
C70 C70A 1_555 1_555
O4_2 N7_2 1_555 1_555
O10_2 N9_2 1_555 1_555
C4_2 C5_2 1_555 1_555
C7_2 C8_2 1_555 1_555
C9_2 C10_2 1_555 1_555
C14_2 C15_2 1_555 1_555
C17_2 C18_2 1_555 1_555
C19_2 C20_2 1_555 1_555
C24_2 C25_2 1_555 1_555
C27_2 C28_2 1_555 1_555
C29_2 C30_2 1_555 1_555
C39A C43A 1_555 1_555
C39A C46A 1_555 1_555
C41A C42A 1_555 1_555
C44A C45A 1_555 1_555
C47A C53A 1_555 1_555
C49A C54A 1_555 1_555
C51A C52A 1_555 1_555
C55A C59A 1_555 1_555
C57A C58A 1_555 1_555
C57A C62A 1_555 1_555
C60A C61A 1_555 1_555
C63A C69A 1_555 1_555
C65A C70A 1_555 1_555
C67A C68A 1_555 1_555

#END
