
#######################################################################
#
#                 Cambridge Crystallographic Data Centre
#                                CCDC 
#
#######################################################################
#
# If this CIF has been generated from an entry in the Cambridge 
# Structural Database, then it will include bibliographic, chemical, 
# crystal, experimental, refinement or atomic coordinate data resulting 
# from the CCDC's data processing and validation procedures.
#
#######################################################################

data_XIJRUE
_symmetry_cell_setting           monoclinic
_symmetry_space_group_name_H-M   'P 21/c'
_symmetry_Int_Tables_number      14
_space_group_name_Hall           '-P 2ybc'
loop_
_symmetry_equiv_pos_site_id
_symmetry_equiv_pos_as_xyz
1 x,y,z
2 -x,1/2+y,1/2-z
3 -x,-y,-z
4 x,1/2-y,1/2+z
_cell_length_a                   11.9677(10)
_cell_length_b                   5.6277(5)
_cell_length_c                   16.6468(13)
_cell_angle_alpha                90
_cell_angle_beta                 100.2890(10)
_cell_angle_gamma                90
_cell_volume                     1103.14
loop_
_atom_site_label
_atom_site_type_symbol
_atom_site_fract_x
_atom_site_fract_y
_atom_site_fract_z
Ag1 Ag 0.013080(17) -0.29784(3) -0.447800(11)
C1 C -0.1015(2) -0.2604(4) -0.13345(14)
C2 C -0.1748(2) -0.4269(4) -0.19515(14)
H1 H -0.1411 -0.5895 -0.1866
C3 C -0.1881(2) -0.3724(4) -0.28587(14)
C4 C -0.1550(2) -0.1642(4) -0.32031(16)
H2 H -0.1152 -0.0447 -0.2864
C5 C -0.1804(2) -0.1309(5) -0.40503(15)
H3 H -0.1588 0.0128 -0.4280
C6 C -0.2367(2) -0.3048(5) -0.45587(16)
H4 H -0.2549 -0.2795 -0.5131
C7 C -0.2662(2) -0.5164(5) -0.42197(15)
H5 H -0.3029 -0.6387 -0.4563
C8 C -0.2421(2) -0.5490(5) -0.33816(15)
H6 H -0.2626 -0.6944 -0.3157
C9 C -0.2913(2) -0.4362(4) -0.16973(14)
C10 C -0.3679(2) -0.2487(5) -0.18911(15)
H7 H -0.3477 -0.1164 -0.2190
C11 C -0.4734(2) -0.2539(5) -0.16514(17)
H8 H -0.5249 -0.1254 -0.1784
C12 C -0.5034(2) -0.4474(5) -0.12180(15)
H9 H -0.5751 -0.4507 -0.1049
C13 C -0.4287(2) -0.6357(5) -0.10313(15)
H10 H -0.4499 -0.7688 -0.0741
C14 C -0.3227(2) -0.6308(5) -0.12673(15)
H11 H -0.2717 -0.7601 -0.1135
O1 O -0.10863(15) -0.0397(3) -0.14391(10)
O2 O -0.04513(15) -0.3635(3) -0.07202(11)
Ag1B Ag -0.013080(17) -0.70216(3) -0.552200(11)
Ag1A Ag -0.013080(17) 0.20216(3) -0.052200(11)
Ag1C Ag 0.013080(17) -0.20216(3) 0.052200(11)
Ag1A_2 Ag -0.013080(17) -0.79784(3) -0.052200(11)
O1A O 0.10863(15) -0.5397(3) -0.35609(10)
O2A O 0.04513(15) 0.1365(3) -0.42798(11)
O2C O -0.04513(15) -0.1365(3) -0.57202(11)
loop_
_geom_bond_atom_site_label_1
_geom_bond_atom_site_label_2
_geom_bond_site_symmetry_1
_geom_bond_site_symmetry_2
Ag1 C5 1_555 1_555
C1 C2 1_555 1_555
C2 H1 1_555 1_555
C3 C2 1_555 1_555
C4 C3 1_555 1_555
H2 C4 1_555 1_555
C5 C4 1_555 1_555
H3 C5 1_555 1_555
C6 C5 1_555 1_555
H4 C6 1_555 1_555
C7 C6 1_555 1_555
H5 C7 1_555 1_555
C8 C3 1_555 1_555
H6 C8 1_555 1_555
C9 C2 1_555 1_555
C10 C9 1_555 1_555
H7 C10 1_555 1_555
C11 C10 1_555 1_555
H8 C11 1_555 1_555
C12 C11 1_555 1_555
H9 C12 1_555 1_555
C13 C12 1_555 1_555
H10 C13 1_555 1_555
C14 C9 1_555 1_555
H11 C14 1_555 1_555
O1 C1 1_555 1_555
O2 C1 1_555 1_555
Ag1B Ag1 1_555 1_555
Ag1A O1 1_555 1_555
Ag1C O2 1_555 1_555
Ag1A_2 O2 1_555 1_555
O1A Ag1 1_555 1_555
O2A Ag1 1_555 1_555
O2C Ag1 1_555 1_555
C7 C8 1_555 1_555
C13 C14 1_555 1_555
Ag1A Ag1C 1_555 1_555

#END
