
#######################################################################
#
#                 Cambridge Crystallographic Data Centre
#                                CCDC 
#
#######################################################################
#
# If this CIF has been generated from an entry in the Cambridge 
# Structural Database, then it will include bibliographic, chemical, 
# crystal, experimental, refinement or atomic coordinate data resulting 
# from the CCDC's data processing and validation procedures.
#
#######################################################################

data_XIKQUF
_symmetry_cell_setting           monoclinic
_symmetry_space_group_name_H-M   'C c'
_symmetry_Int_Tables_number      9
_space_group_name_Hall           'C -2yc'
loop_
_symmetry_equiv_pos_site_id
_symmetry_equiv_pos_as_xyz
1 x,y,z
2 x,-y,1/2+z
3 1/2+x,1/2+y,z
4 1/2+x,1/2-y,1/2+z
_cell_length_a                   20.901(2)
_cell_length_b                   13.8210(15)
_cell_length_c                   15.4388(12)
_cell_angle_alpha                90
_cell_angle_beta                 91.843(9)
_cell_angle_gamma                90
_cell_volume                     4457.54
loop_
_atom_site_label
_atom_site_type_symbol
_atom_site_fract_x
_atom_site_fract_y
_atom_site_fract_z
C1 C 0.1092(4) 0.7356(5) 0.8891(5)
C2 C 0.1589(4) 0.7265(6) 0.9575(5)
C3 C 0.1544(3) 0.8001(6) 1.0182(5)
H1 H 0.1283 0.8538 1.0084
C4 C 0.1909(4) 0.7893(6) 1.0943(6)
C5 C 0.1898(4) 0.8767(5) 1.1490(6)
C6 C 0.4542(4) 0.7026(6) 1.1898(6)
C7 C 0.4144(4) 0.6250(6) 1.1434(5)
C8 C 0.4385(3) 0.5396(6) 1.1284(5)
H2 H 0.4802 0.5281 1.1487
C9 C 0.4079(3) 0.4661(5) 1.0859(5)
C10 C 0.4390(3) 0.3682(5) 1.0731(5)
C11 C 0.0566(4) 0.5397(6) 1.1758(6)
C12 C 0.1176(3) 0.5117(5) 1.1337(5)
C13 C 0.1243(4) 0.4122(5) 1.1188(5)
H3 H 0.0922 0.3707 1.1367
C14 C 0.1788(4) 0.3716(6) 1.0767(6)
C15 C 0.1814(4) 0.2647(6) 1.0653(5)
C16 C 0.2700(4) 0.4233(5) 0.8719(5)
H4 H 0.2645 0.3763 0.9141
C17 C 0.2647(4) 0.3990(6) 0.7856(5)
H5 H 0.2545 0.3358 0.7698
C18 C 0.2893(4) 0.5618(6) 0.7470(6)
H6 H 0.2964 0.6082 0.7048
C19 C 0.2939(4) 0.5874(5) 0.8335(5)
C20 C 0.3087(3) 0.6830(5) 0.8606(5)
C21 C 0.3177(4) 0.7579(5) 0.8027(5)
H7 H 0.3136 0.7468 0.7434
C22 C 0.3331(4) 0.8501(5) 0.8336(5)
C23 C 0.3373(4) 0.8662(6) 0.9224(6)
C24 C 0.3274(4) 0.7912(6) 0.9780(5)
H8 H 0.3304 0.8024 1.0374
C25 C 0.3396(4) 0.9703(6) 0.9536(5)
H9 H 0.3334 0.9795 1.0157
C26 C 0.2909(4) 1.0256(5) 0.8916(5)
H10 H 0.2538 0.9881 0.8726
H11 H 0.2789 1.0896 0.9114
C27 C 0.3478(4) 1.0238(5) 0.8287(5)
H12 H 0.3485 1.0831 0.7939
C28 C 0.3482(4) 0.9367(5) 0.7718(5)
H13 H 0.3897 0.9284 0.7465
H14 H 0.3158 0.9419 0.7256
C29 C 0.3902(4) 1.0357(5) 0.9142(5)
C30 C 0.4426(3) 0.9678(5) 0.8886(5)
H15 H 0.4586 0.9874 0.8337
H16 H 0.4258 0.9032 0.8840
H17 H 0.4767 0.9694 0.9317
C31 C 0.4251(4) 1.1181(6) 0.9605(5)
H18 H 0.3999 1.1760 0.9554
H19 H 0.4657 1.1283 0.9348
H20 H 0.4317 1.1020 1.0206
F1 F 0.1365(2) 0.7191(3) 0.8167(3)
F2 F 0.0636(2) 0.6707(3) 0.9095(3)
F3 F 0.0874(2) 0.8257(3) 0.8936(3)
F4 F 0.2432(2) 0.9280(3) 1.1375(3)
F5 F 0.1373(2) 0.9293(3) 1.1322(3)
F6 F 0.1824(2) 0.8467(3) 1.2292(3)
F7 F 0.4487(2) 0.7825(3) 1.1443(3)
F8 F 0.4345(2) 0.7262(3) 1.2677(3)
F9 F 0.5150(2) 0.6750(3) 1.1926(3)
F10 F 0.4359(2) 0.3460(3) 0.9891(3)
F11 F 0.4101(2) 0.3023(3) 1.1214(3)
F12 F 0.5009(2) 0.3692(3) 1.0931(3)
F13 F 0.0741(2) 0.5674(3) 1.2546(3)
F14 F 0.0354(2) 0.6152(3) 1.1288(3)
F15 F 0.0175(2) 0.4655(3) 1.1754(3)
F16 F 0.1889(2) 0.2453(3) 0.9825(3)
F17 F 0.2273(2) 0.2265(3) 1.1139(3)
F18 F 0.1271(2) 0.2240(3) 1.0917(3)
N1 N 0.2742(3) 0.4671(4) 0.7221(4)
N2 N 0.2835(3) 0.5176(4) 0.8958(4)
N3 N 0.3131(3) 0.6996(5) 0.9485(4)
O1 O 0.1821(3) 0.6426(4) 0.9627(4)
O2 O 0.2315(2) 0.7323(4) 1.1120(3)
O3 O 0.3579(3) 0.6485(4) 1.1251(4)
O4 O 0.3523(2) 0.4682(3) 1.0607(3)
O5 O 0.1583(3) 0.5705(4) 1.1247(4)
O6 O 0.2237(2) 0.4184(4) 1.0538(4)
Sm1 Sm 0.26348(2) 0.57907(2) 1.05745(2)
N1A N 0.2742(3) 0.5329(4) 1.2221(4)
Sm1A Sm 0.26348(2) 0.42093(2) 0.55745(2)
O7 O 0.0850(6) 0.0540(9) 0.9084(9)
H21 H 0.0603 0.0330 0.8672
H22 H 0.0702 0.0384 0.9574
O8 O 0.4616(7) 0.5174(12) 0.8668(11)
H23 H 0.4302 0.4789 0.8705
H24 H 0.4623 0.5555 0.9103
O9 O 0.5281(8) 0.2501(13) 0.3795(12)
H25 H 0.5353 0.1907 0.3878
H26 H 0.4952 0.2568 0.3453
loop_
_geom_bond_atom_site_label_1
_geom_bond_atom_site_label_2
_geom_bond_site_symmetry_1
_geom_bond_site_symmetry_2
C1 C2 1_555 1_555
C2 C3 1_555 1_555
C3 H1 1_555 1_555
C4 C3 1_555 1_555
C5 C4 1_555 1_555
C6 C7 1_555 1_555
C7 C8 1_555 1_555
C8 H2 1_555 1_555
C9 C8 1_555 1_555
C10 C9 1_555 1_555
C11 C12 1_555 1_555
C12 C13 1_555 1_555
C13 H3 1_555 1_555
C14 C13 1_555 1_555
C15 C14 1_555 1_555
C16 H4 1_555 1_555
C17 C16 1_555 1_555
H5 C17 1_555 1_555
C18 H6 1_555 1_555
C19 C18 1_555 1_555
C20 C19 1_555 1_555
C21 C20 1_555 1_555
H7 C21 1_555 1_555
C22 C21 1_555 1_555
C23 C22 1_555 1_555
C24 C23 1_555 1_555
H8 C24 1_555 1_555
C25 C23 1_555 1_555
H9 C25 1_555 1_555
C26 C25 1_555 1_555
H10 C26 1_555 1_555
H11 C26 1_555 1_555
C27 C26 1_555 1_555
H12 C27 1_555 1_555
C28 C22 1_555 1_555
H13 C28 1_555 1_555
H14 C28 1_555 1_555
C29 C25 1_555 1_555
C30 C29 1_555 1_555
H15 C30 1_555 1_555
H16 C30 1_555 1_555
H17 C30 1_555 1_555
C31 C29 1_555 1_555
H18 C31 1_555 1_555
H19 C31 1_555 1_555
H20 C31 1_555 1_555
F1 C1 1_555 1_555
F2 C1 1_555 1_555
F3 C1 1_555 1_555
F4 C5 1_555 1_555
F5 C5 1_555 1_555
F6 C5 1_555 1_555
F7 C6 1_555 1_555
F8 C6 1_555 1_555
F9 C6 1_555 1_555
F10 C10 1_555 1_555
F11 C10 1_555 1_555
F12 C10 1_555 1_555
F13 C11 1_555 1_555
F14 C11 1_555 1_555
F15 C11 1_555 1_555
F16 C15 1_555 1_555
F17 C15 1_555 1_555
F18 C15 1_555 1_555
N1 C17 1_555 1_555
N2 C16 1_555 1_555
N3 C20 1_555 1_555
O1 C2 1_555 1_555
O2 C4 1_555 1_555
O3 C7 1_555 1_555
O4 C9 1_555 1_555
O5 C12 1_555 1_555
O6 C14 1_555 1_555
Sm1 N2 1_555 1_555
O7 H21 1_555 1_555
H22 O7 1_555 1_555
O8 H23 1_555 1_555
H24 O8 1_555 1_555
O9 H25 1_555 1_555
H26 O9 1_555 1_555
N1A Sm1 1_555 1_555
Sm1A N1 1_555 1_555
C18 N1 1_555 1_555
C19 N2 1_555 1_555
C24 N3 1_555 1_555
C27 C28 1_555 1_555
C27 C29 1_555 1_555
N3 Sm1 1_555 1_555
O1 Sm1 1_555 1_555
O2 Sm1 1_555 1_555
O3 Sm1 1_555 1_555
O4 Sm1 1_555 1_555
O5 Sm1 1_555 1_555
O6 Sm1 1_555 1_555

#END
