
#######################################################################
#
#                 Cambridge Crystallographic Data Centre
#                                CCDC 
#
#######################################################################
#
# If this CIF has been generated from an entry in the Cambridge 
# Structural Database, then it will include bibliographic, chemical, 
# crystal, experimental, refinement or atomic coordinate data resulting 
# from the CCDC's data processing and validation procedures.
#
#######################################################################

data_XIKRAM
_symmetry_cell_setting           monoclinic
_symmetry_space_group_name_H-M   'C c'
_symmetry_Int_Tables_number      9
_space_group_name_Hall           'C -2yc'
loop_
_symmetry_equiv_pos_site_id
_symmetry_equiv_pos_as_xyz
1 x,y,z
2 x,-y,1/2+z
3 1/2+x,1/2+y,z
4 1/2+x,1/2-y,1/2+z
_cell_length_a                   20.877(3)
_cell_length_b                   13.855(2)
_cell_length_c                   15.4357(17)
_cell_angle_alpha                90
_cell_angle_beta                 92.156(11)
_cell_angle_gamma                90
_cell_volume                     4461.63
loop_
_atom_site_label
_atom_site_type_symbol
_atom_site_fract_x
_atom_site_fract_y
_atom_site_fract_z
C1 C 0.1102(5) 0.7310(8) 0.8782(7)
C2 C 0.1466(5) 0.7148(7) 0.9608(7)
C3 C 0.1499(5) 0.7912(7) 1.0184(6)
H1 H 0.1228 0.8432 1.0068
C4 C 0.1876(5) 0.7969(8) 1.0876(7)
C5 C 0.1846(5) 0.8746(7) 1.1571(7)
C6 C 0.4544(5) 0.6969(7) 1.1911(7)
C7 C 0.4149(5) 0.6243(7) 1.1411(7)
C8 C 0.4447(5) 0.5374(8) 1.1271(7)
H2 H 0.4871 0.5269 1.1451
C9 C 0.4089(5) 0.4662(7) 1.0849(7)
C10 C 0.4389(5) 0.3675(7) 1.0729(7)
C11 C 0.0592(5) 0.5499(8) 1.1757(8)
C12 C 0.1202(5) 0.5131(8) 1.1360(7)
C13 C 0.1257(5) 0.4130(6) 1.1166(7)
H3 H 0.0903 0.3754 1.1291
C14 C 0.1772(6) 0.3631(9) 1.0812(8)
C15 C 0.1820(5) 0.2540(7) 1.0634(7)
C16 C 0.2711(6) 0.4258(6) 0.8719(8)
H4 H 0.2647 0.3790 0.9139
C17 C 0.2669(5) 0.4017(7) 0.7847(7)
H5 H 0.2576 0.3385 0.7683
C18 C 0.2916(6) 0.5648(7) 0.7476(7)
H6 H 0.3001 0.6108 0.7056
C19 C 0.2943(6) 0.5896(7) 0.8339(7)
C20 C 0.3096(5) 0.6852(7) 0.8623(6)
C21 C 0.3201(5) 0.7587(6) 0.8028(7)
H7 H 0.3173 0.7465 0.7435
C22 C 0.3354(5) 0.8535(7) 0.8349(7)
C23 C 0.3398(5) 0.8671(8) 0.9251(7)
C24 C 0.3297(5) 0.7919(7) 0.9805(8)
H8 H 0.3332 0.8023 1.0400
C25 C 0.3420(6) 0.9702(7) 0.9581(7)
H9 H 0.3370 0.9789 1.0205
C26 C 0.2932(5) 1.0279(8) 0.8956(7)
H10 H 0.2555 0.9917 0.8766
H11 H 0.2824 1.0920 0.9157
C27 C 0.3498(5) 1.0243(7) 0.8324(7)
H12 H 0.3510 1.0834 0.7976
C28 C 0.3499(5) 0.9385(7) 0.7762(8)
H13 H 0.3914 0.9304 0.7508
H14 H 0.3174 0.9442 0.7299
C29 C 0.3911(5) 1.0355(8) 0.9161(7)
C30 C 0.4450(5) 0.9673(7) 0.8925(7)
H15 H 0.4742 0.9593 0.9416
H16 H 0.4676 0.9938 0.8449
H17 H 0.4273 0.9057 0.8760
C31 C 0.4033(5) 1.1361(7) 0.9619(7)
H18 H 0.4113 1.1264 1.0229
H19 H 0.3662 1.1764 0.9529
H20 H 0.4397 1.1669 0.9376
Eu1 Eu 0.26244(3) 0.57886(3) 1.05692(3)
F1 F 0.1516(3) 0.7461(4) 0.8144(4)
F2 F 0.0792(3) 0.6512(4) 0.8542(4)
F3 F 0.0781(3) 0.8139(4) 0.8819(4)
F4 F 0.2366(3) 0.9229(4) 1.1535(5)
F5 F 0.1351(3) 0.9189(4) 1.1499(5)
F6 F 0.1864(3) 0.8267(4) 1.2242(4)
F7 F 0.4482(3) 0.7819(4) 1.1532(4)
F8 F 0.4314(3) 0.7105(5) 1.2695(4)
F9 F 0.5161(3) 0.6747(4) 1.1859(4)
F10 F 0.4313(3) 0.3420(4) 0.9893(4)
F11 F 0.4107(3) 0.3024(4) 1.1193(4)
F12 F 0.5004(3) 0.3695(4) 1.0959(4)
F13 F 0.0642(3) 0.5363(5) 1.2597(5)
F14 F 0.0461(3) 0.6364(4) 1.1462(4)
F15 F 0.0112(3) 0.4938(4) 1.1483(4)
F16 F 0.1864(3) 0.2317(4) 0.9802(4)
F17 F 0.2317(3) 0.2144(4) 1.1107(4)
F18 F 0.1302(3) 0.2048(4) 1.0884(4)
N1 N 0.2761(4) 0.4698(6) 0.7231(5)
N2 N 0.2847(4) 0.5193(5) 0.8961(5)
N3 N 0.3144(4) 0.7001(5) 0.9492(6)
O1 O 0.1750(3) 0.6427(5) 0.9650(5)
O2 O 0.2351(3) 0.7296(4) 1.1129(5)
O3 O 0.3562(4) 0.6446(5) 1.1198(5)
O4 O 0.3505(3) 0.4681(5) 1.0594(4)
O5 O 0.1570(4) 0.5722(5) 1.1245(5)
O6 O 0.2208(3) 0.4190(5) 1.0547(5)
Eu1A Eu 0.26244(3) 0.42114(3) 0.55692(3)
N1A N 0.2761(4) 0.5302(6) 1.2231(5)
O7 O 0.0839(8) 0.0530(12) 0.9106(13)
H21 H 0.0592 0.0319 0.8694
H22 H 0.1211 0.0289 0.9063
O8 O 0.4622(14) 0.526(3) 0.868(2)
H23 H 0.4308 0.4872 0.8715
H24 H 0.4580 0.5579 0.8206
O9 O 0.5280(13) 0.2546(19) 0.3751(19)
H25 H 0.5213 0.2815 0.4238
H26 H 0.4951 0.2613 0.3409
loop_
_geom_bond_atom_site_label_1
_geom_bond_atom_site_label_2
_geom_bond_site_symmetry_1
_geom_bond_site_symmetry_2
C1 C2 1_555 1_555
C2 C3 1_555 1_555
C3 H1 1_555 1_555
C4 C3 1_555 1_555
C5 C4 1_555 1_555
C6 C7 1_555 1_555
C7 C8 1_555 1_555
C8 H2 1_555 1_555
C9 C8 1_555 1_555
C10 C9 1_555 1_555
C11 C12 1_555 1_555
C12 C13 1_555 1_555
C13 H3 1_555 1_555
C14 C13 1_555 1_555
C15 C14 1_555 1_555
C16 H4 1_555 1_555
C17 C16 1_555 1_555
H5 C17 1_555 1_555
C18 H6 1_555 1_555
C19 C18 1_555 1_555
C20 C19 1_555 1_555
C21 C20 1_555 1_555
H7 C21 1_555 1_555
C22 C21 1_555 1_555
C23 C22 1_555 1_555
C24 C23 1_555 1_555
H8 C24 1_555 1_555
C25 C23 1_555 1_555
H9 C25 1_555 1_555
C26 C25 1_555 1_555
H10 C26 1_555 1_555
H11 C26 1_555 1_555
C27 C26 1_555 1_555
H12 C27 1_555 1_555
C28 C22 1_555 1_555
H13 C28 1_555 1_555
H14 C28 1_555 1_555
C29 C25 1_555 1_555
C30 C29 1_555 1_555
H15 C30 1_555 1_555
H16 C30 1_555 1_555
H17 C30 1_555 1_555
C31 C29 1_555 1_555
H18 C31 1_555 1_555
H19 C31 1_555 1_555
H20 C31 1_555 1_555
Eu1 N2 1_555 1_555
F1 C1 1_555 1_555
F2 C1 1_555 1_555
F3 C1 1_555 1_555
F4 C5 1_555 1_555
F5 C5 1_555 1_555
F6 C5 1_555 1_555
F7 C6 1_555 1_555
F8 C6 1_555 1_555
F9 C6 1_555 1_555
F10 C10 1_555 1_555
F11 C10 1_555 1_555
F12 C10 1_555 1_555
F13 C11 1_555 1_555
F14 C11 1_555 1_555
F15 C11 1_555 1_555
F16 C15 1_555 1_555
F17 C15 1_555 1_555
F18 C15 1_555 1_555
N1 C17 1_555 1_555
N2 C16 1_555 1_555
N3 C20 1_555 1_555
O1 C2 1_555 1_555
O2 C4 1_555 1_555
O3 C7 1_555 1_555
O4 C9 1_555 1_555
O5 C12 1_555 1_555
O6 C14 1_555 1_555
O7 H21 1_555 1_555
H22 O7 1_555 1_555
O8 H23 1_555 1_555
H24 O8 1_555 1_555
O9 H25 1_555 1_555
H26 O9 1_555 1_555
Eu1A N1 1_555 1_555
N1A Eu1 1_555 1_555
C18 N1 1_555 1_555
C19 N2 1_555 1_555
C24 N3 1_555 1_555
C27 C28 1_555 1_555
C27 C29 1_555 1_555
Eu1 N3 1_555 1_555
Eu1 O1 1_555 1_555
Eu1 O2 1_555 1_555
Eu1 O3 1_555 1_555
Eu1 O4 1_555 1_555
Eu1 O5 1_555 1_555
Eu1 O6 1_555 1_555

#END
