
#######################################################################
#
#                 Cambridge Crystallographic Data Centre
#                                CCDC 
#
#######################################################################
#
# If this CIF has been generated from an entry in the Cambridge 
# Structural Database, then it will include bibliographic, chemical, 
# crystal, experimental, refinement or atomic coordinate data resulting 
# from the CCDC's data processing and validation procedures.
#
#######################################################################

data_XIKREQ
_symmetry_cell_setting           monoclinic
_symmetry_space_group_name_H-M   'C c'
_symmetry_Int_Tables_number      9
_space_group_name_Hall           'C -2yc'
loop_
_symmetry_equiv_pos_site_id
_symmetry_equiv_pos_as_xyz
1 x,y,z
2 x,-y,1/2+z
3 1/2+x,1/2+y,z
4 1/2+x,1/2-y,1/2+z
_cell_length_a                   20.8003(12)
_cell_length_b                   13.8884(16)
_cell_length_c                   15.2874(14)
_cell_angle_alpha                90
_cell_angle_beta                 92.294(2)
_cell_angle_gamma                90
_cell_volume                     4412.73
loop_
_atom_site_label
_atom_site_type_symbol
_atom_site_fract_x
_atom_site_fract_y
_atom_site_fract_z
C1 C 0.1120(7) 0.7306(9) 0.8804(10)
C2 C 0.1512(6) 0.7199(8) 0.9653(8)
C3 C 0.1554(6) 0.7893(8) 1.0205(8)
H1 H 0.1356 0.8476 1.0064
C4 C 0.1883(7) 0.7799(8) 1.1001(10)
C5 C 0.1811(7) 0.8657(8) 1.1572(9)
C6 C 0.4534(6) 0.7043(8) 1.1834(8)
C7 C 0.4064(6) 0.6307(7) 1.1442(7)
C8 C 0.4408(6) 0.5432(8) 1.1270(8)
H2 H 0.4843 0.5370 1.1426
C9 C 0.4061(6) 0.4666(7) 1.0853(7)
C10 C 0.4372(5) 0.3716(8) 1.0736(8)
C11 C 0.0586(6) 0.5355(9) 1.1874(9)
C12 C 0.1165(6) 0.5062(7) 1.1383(8)
C13 C 0.1224(6) 0.4081(8) 1.1235(8)
H3 H 0.0915 0.3644 1.1410
C14 C 0.1784(7) 0.3777(9) 1.0801(8)
C15 C 0.1835(6) 0.2701(9) 1.0614(8)
C16 C 0.2724(7) 0.4248(8) 0.8759(9)
H4 H 0.2670 0.3792 0.9196
C17 C 0.2662(6) 0.3970(9) 0.7865(8)
H5 H 0.2557 0.3340 0.7711
C18 C 0.2910(7) 0.5596(9) 0.7472(7)
H6 H 0.2980 0.6056 0.7044
C19 C 0.2957(6) 0.5850(7) 0.8352(8)
C20 C 0.3101(6) 0.6800(7) 0.8638(7)
C21 C 0.3199(6) 0.7554(7) 0.8026(7)
H7 H 0.3159 0.7440 0.7426
C22 C 0.3356(6) 0.8462(8) 0.8346(8)
C23 C 0.3402(6) 0.8638(9) 0.9239(8)
C24 C 0.3319(7) 0.7870(8) 0.9789(9)
H8 H 0.3377 0.7972 1.0388
C25 C 0.3423(6) 0.9641(8) 0.9564(8)
H9 H 0.3374 0.9726 1.0194
C26 C 0.2933(6) 1.0221(8) 0.8941(8)
H10 H 0.2830 1.0862 0.9144
H11 H 0.2550 0.9865 0.8756
C27 C 0.3503(6) 1.0178(8) 0.8275(8)
H12 H 0.3506 1.0764 0.7919
C28 C 0.3512(7) 0.9304(8) 0.7700(10)
H13 H 0.3931 0.9216 0.7455
H14 H 0.3189 0.9348 0.7227
C29 C 0.3917(6) 1.0323(8) 0.9133(8)
C30 C 0.4454(6) 0.9616(9) 0.8898(8)
H15 H 0.4789 0.9627 0.9350
H16 H 0.4629 0.9803 0.8352
H17 H 0.4280 0.8977 0.8847
C31 C 0.4056(6) 1.1290(8) 0.9609(8)
H18 H 0.3700 1.1720 0.9505
H19 H 0.4439 1.1572 0.9392
H20 H 0.4114 1.1176 1.0227
F1 F 0.1528(3) 0.7419(5) 0.8143(4)
F2 F 0.0824(3) 0.6473(5) 0.8617(4)
F3 F 0.0742(4) 0.8014(5) 0.8852(5)
F4 F 0.2325(4) 0.9157(5) 1.1609(6)
F5 F 0.1339(4) 0.9160(5) 1.1373(6)
F6 F 0.1717(4) 0.8199(5) 1.2248(5)
F7 F 0.4618(4) 0.7847(4) 1.1430(5)
F8 F 0.4311(4) 0.7300(5) 1.2588(5)
F9 F 0.5091(3) 0.6596(5) 1.1957(5)
F10 F 0.4279(3) 0.3437(5) 0.9903(4)
F11 F 0.4117(4) 0.3088(5) 1.1265(4)
F12 F 0.5013(4) 0.3759(5) 1.0920(5)
F13 F 0.0761(4) 0.5491(5) 1.2700(5)
F14 F 0.0342(4) 0.6172(5) 1.1525(5)
F15 F 0.0167(3) 0.4656(5) 1.1778(5)
F16 F 0.1901(4) 0.2544(5) 0.9794(5)
F17 F 0.2333(4) 0.2345(4) 1.1114(5)
F18 F 0.1277(3) 0.2287(5) 1.0750(5)
N1 N 0.2760(5) 0.4656(7) 0.7232(6)
N2 N 0.2858(5) 0.5148(6) 0.8973(6)
N3 N 0.3155(5) 0.6964(7) 0.9507(7)
O1 O 0.1734(5) 0.6453(7) 0.9697(6)
O2 O 0.2346(4) 0.7242(5) 1.1129(5)
O3 O 0.3506(5) 0.6428(6) 1.1294(6)
O4 O 0.3502(4) 0.4643(5) 1.0626(5)
O5 O 0.1595(5) 0.5718(5) 1.1274(6)
O6 O 0.2212(4) 0.4226(5) 1.0534(6)
Tb1 Tb 0.26413(3) 0.57801(3) 1.05819(4)
N1A N 0.2760(5) 0.5344(7) 1.2232(6)
Tb1A Tb 0.26413(3) 0.42199(3) 0.55819(4)
O7 O 0.0821(11) 0.0563(13) 0.9120(14)
H21 H 0.1193 0.0322 0.9076
H22 H 0.0672 0.0407 0.9610
O8 O 0.4604(13) 0.517(2) 0.867(2)
H23 H 0.4953 0.4852 0.8673
H24 H 0.4561 0.5488 0.8201
O9 O 0.5265(16) 0.2543(18) 0.3774(18)
H25 H 0.5198 0.2812 0.4261
H26 H 0.5338 0.1949 0.3857
loop_
_geom_bond_atom_site_label_1
_geom_bond_atom_site_label_2
_geom_bond_site_symmetry_1
_geom_bond_site_symmetry_2
C1 C2 1_555 1_555
C2 C3 1_555 1_555
C3 H1 1_555 1_555
C4 C3 1_555 1_555
C5 C4 1_555 1_555
C6 C7 1_555 1_555
C7 C8 1_555 1_555
C8 H2 1_555 1_555
C9 C8 1_555 1_555
C10 C9 1_555 1_555
C11 C12 1_555 1_555
C12 C13 1_555 1_555
C13 H3 1_555 1_555
C14 C13 1_555 1_555
C15 C14 1_555 1_555
C16 H4 1_555 1_555
C17 C16 1_555 1_555
H5 C17 1_555 1_555
C18 H6 1_555 1_555
C19 C18 1_555 1_555
C20 C19 1_555 1_555
C21 C20 1_555 1_555
H7 C21 1_555 1_555
C22 C21 1_555 1_555
C23 C22 1_555 1_555
C24 C23 1_555 1_555
H8 C24 1_555 1_555
C25 C23 1_555 1_555
H9 C25 1_555 1_555
C26 C25 1_555 1_555
H10 C26 1_555 1_555
H11 C26 1_555 1_555
C27 C26 1_555 1_555
H12 C27 1_555 1_555
C28 C22 1_555 1_555
H13 C28 1_555 1_555
H14 C28 1_555 1_555
C29 C25 1_555 1_555
C30 C29 1_555 1_555
H15 C30 1_555 1_555
H16 C30 1_555 1_555
H17 C30 1_555 1_555
C31 C29 1_555 1_555
H18 C31 1_555 1_555
H19 C31 1_555 1_555
H20 C31 1_555 1_555
F1 C1 1_555 1_555
F2 C1 1_555 1_555
F3 C1 1_555 1_555
F4 C5 1_555 1_555
F5 C5 1_555 1_555
F6 C5 1_555 1_555
F7 C6 1_555 1_555
F8 C6 1_555 1_555
F9 C6 1_555 1_555
F10 C10 1_555 1_555
F11 C10 1_555 1_555
F12 C10 1_555 1_555
F13 C11 1_555 1_555
F14 C11 1_555 1_555
F15 C11 1_555 1_555
F16 C15 1_555 1_555
F17 C15 1_555 1_555
F18 C15 1_555 1_555
N1 C17 1_555 1_555
N2 C16 1_555 1_555
N3 C20 1_555 1_555
O1 C2 1_555 1_555
O2 C4 1_555 1_555
O3 C7 1_555 1_555
O4 C9 1_555 1_555
O5 C12 1_555 1_555
O6 C14 1_555 1_555
Tb1 N2 1_555 1_555
O7 H21 1_555 1_555
H22 O7 1_555 1_555
O8 H23 1_555 1_555
H24 O8 1_555 1_555
O9 H25 1_555 1_555
H26 O9 1_555 1_555
N1A Tb1 1_555 1_555
Tb1A N1 1_555 1_555
C18 N1 1_555 1_555
C19 N2 1_555 1_555
C24 N3 1_555 1_555
C27 C28 1_555 1_555
C27 C29 1_555 1_555
N3 Tb1 1_555 1_555
O1 Tb1 1_555 1_555
O2 Tb1 1_555 1_555
O3 Tb1 1_555 1_555
O4 Tb1 1_555 1_555
O5 Tb1 1_555 1_555
O6 Tb1 1_555 1_555

#END
