
#######################################################################
#
#                 Cambridge Crystallographic Data Centre
#                                CCDC 
#
#######################################################################
#
# If this CIF has been generated from an entry in the Cambridge 
# Structural Database, then it will include bibliographic, chemical, 
# crystal, experimental, refinement or atomic coordinate data resulting 
# from the CCDC's data processing and validation procedures.
#
#######################################################################

data_XILCEB
_symmetry_cell_setting           triclinic
_symmetry_space_group_name_H-M   'P -1'
_symmetry_Int_Tables_number      2
_space_group_name_Hall           '-P 1'
loop_
_symmetry_equiv_pos_site_id
_symmetry_equiv_pos_as_xyz
1 x,y,z
2 -x,-y,-z
_cell_length_a                   11.197(4)
_cell_length_b                   12.394(4)
_cell_length_c                   16.897(6)
_cell_angle_alpha                73.715(5)
_cell_angle_beta                 73.060(6)
_cell_angle_gamma                86.618(6)
_cell_volume                     2152.49
loop_
_atom_site_label
_atom_site_type_symbol
_atom_site_fract_x
_atom_site_fract_y
_atom_site_fract_z
Ag1 Ag 0.42920(6) -0.16870(5) 0.08567(3)
Ag2 Ag -0.16104(6) 0.47906(5) -0.42719(3)
S1 S 0.33368(16) 0.03171(13) -0.04970(10)
S2 S -0.06388(16) 0.26616(15) -0.29450(11)
S3 S 0.30282(17) 0.00309(15) 0.19341(11)
S4 S -0.03039(19) 0.30037(18) 0.47281(13)
N1 N 0.4087(4) -0.1739(4) -0.0381(3)
N2 N 0.3745(5) -0.0766(5) -0.1712(3)
N3 N -0.1815(5) 0.4539(4) -0.2911(3)
N4 N -0.1477(5) 0.3492(5) -0.1600(3)
N5 N 0.3957(4) -0.1960(4) 0.2249(3)
N6 N 0.3364(5) -0.1174(5) 0.3424(3)
N7 N -0.1665(5) 0.4764(4) 0.4460(3)
N8 N -0.1288(6) 0.3764(6) 0.3418(4)
C1 C 0.4380(6) -0.2656(5) -0.0663(4)
H1 H 0.4620 -0.3295 -0.0306
C2 C 0.4338(7) -0.2683(6) -0.1456(4)
H2 H 0.4505 -0.3332 -0.1640
C3 C 0.4035(7) -0.1699(6) -0.1966(4)
H3 H 0.4033 -0.1680 -0.2520
C4 C 0.3755(5) -0.0837(5) -0.0925(4)
C5 C 0.2764(6) 0.1281(5) -0.1320(4)
H4 H 0.2736 0.2025 -0.1234
H5 H 0.3355 0.1318 -0.1876
C6 C 0.1485(6) 0.0977(5) -0.1340(4)
H6 H 0.0898 0.0860 -0.0771
H7 H 0.1524 0.0285 -0.1506
C7 C 0.1041(6) 0.1919(5) -0.1980(4)
H8 H 0.0925 0.2588 -0.1778
H9 H 0.1681 0.2093 -0.2530
C8 C -0.0167(6) 0.1621(5) -0.2106(4)
H10 H -0.0824 0.1525 -0.1568
H11 H -0.0076 0.0907 -0.2245
C9 C -0.1360(6) 0.3644(5) -0.2418(4)
C10 C -0.2405(7) 0.5294(6) -0.2526(5)
H12 H -0.2724 0.5917 -0.2849
C11 C -0.2563(8) 0.5199(6) -0.1689(5)
H13 H -0.2990 0.5733 -0.1428
C12 C -0.2065(7) 0.4279(7) -0.1241(5)
H14 H -0.2140 0.4200 -0.0665
C13 C 0.4284(6) -0.2900(6) 0.2747(4)
H15 H 0.4594 -0.3490 0.2512
C14 C 0.4171(6) -0.3015(6) 0.3597(4)
H16 H 0.4403 -0.3667 0.3945
C15 C 0.3699(7) -0.2118(7) 0.3907(5)
H17 H 0.3610 -0.2174 0.4482
C16 C 0.3492(5) -0.1141(5) 0.2626(4)
C17 C 0.2660(6) 0.1047(6) 0.2555(5)
H18 H 0.3298 0.1024 0.2843
H19 H 0.2697 0.1792 0.2161
C18 C 0.1413(6) 0.0876(6) 0.3214(5)
H20 H 0.1416 0.0210 0.3682
H21 H 0.0773 0.0773 0.2959
C19 C 0.1135(7) 0.1928(7) 0.3564(5)
H22 H 0.1816 0.2050 0.3779
H23 H 0.1109 0.2581 0.3091
C20 C -0.0037(8) 0.1840(7) 0.4250(6)
H24 H -0.0043 0.1149 0.4698
H25 H -0.0723 0.1788 0.4019
C21 C -0.1173(6) 0.3937(6) 0.4123(4)
C22 C -0.2316(7) 0.5505(6) 0.4029(4)
H26 H -0.2652 0.6111 0.4236
C23 C -0.2506(7) 0.5406(7) 0.3290(5)
H27 H -0.2977 0.5920 0.2998
C24 C -0.1982(8) 0.4534(8) 0.3005(5)
H28 H -0.2097 0.4450 0.2502
Ag2_2 Ag -0.16104(6) 0.47906(5) 0.57281(3)
N7_2 N -0.1665(5) 0.4764(4) -0.5540(3)
Cl1 Cl 0.6523(2) 0.60581(16) 0.06711(13)
O1 O 0.6813(9) 0.7093(7) 0.0011(6)
O2 O 0.7267(9) 0.5929(7) 0.1195(6)
O3 O 0.6527(11) 0.5225(6) 0.0323(6)
O4 O 0.5317(8) 0.6208(9) 0.1100(5)
Cl2 Cl 0.4539(2) 0.34556(17) 0.39794(12)
O5 O 0.3219(6) 0.3444(10) 0.4326(7)
O6 O 0.4963(10) 0.4271(9) 0.3167(5)
O7 O 0.5051(12) 0.3800(14) 0.4553(6)
O8 O 0.4962(14) 0.2406(7) 0.3917(10)
C25 C 0.2886(11) 0.0715(10) 0.5631(9)
H29 H 0.3190 0.1255 0.5063
Cl3 Cl 0.1298(9) 0.0784(11) 0.6004(10)
Cl4 Cl 0.3558(12) 0.1004(13) 0.6321(10)
Cl5 Cl 0.3221(11) -0.0635(12) 0.5547(14)
C27 C 0.0137(18) 0.7237(10) 0.9183(10)
H31 H -0.0765 0.7169 0.9461
Cl9 Cl 0.0834(17) 0.7822(11) 0.9757(8)
Cl10 Cl 0.0710(13) 0.5926(8) 0.9178(7)
Cl11 Cl 0.041(2) 0.8061(12) 0.8154(9)
O9? O 0.3346(15) 0.292(2) 0.4241(19)
O10? O 0.438(2) 0.4639(9) 0.3833(18)
O11? O 0.525(2) 0.325(3) 0.3191(11)
O12? O 0.518(2) 0.3029(17) 0.4592(13)
C26? C 0.2522(15) 0.0247(15) 0.5881(9)
H30? H 0.2008 -0.0428 0.6227
Cl6? Cl 0.1541(12) 0.1336(15) 0.5820(9)
Cl7? Cl 0.3563(16) 0.0365(14) 0.6398(10)
Cl8? Cl 0.3181(10) 0.0060(9) 0.4887(6)
C28? C -0.0228(17) 0.7372(12) 0.9237(9)
H32? H -0.0895 0.6816 0.9594
Cl12? Cl 0.081(2) 0.7375(16) 0.9808(12)
Cl13? Cl 0.0455(14) 0.7020(13) 0.8312(7)
Cl14? Cl -0.0879(7) 0.8663(5) 0.9019(4)
Cl15? Cl -0.019(3) 0.616(2) 0.897(2)
Cl16? Cl 0.108(2) 0.818(3) 0.7986(16)
Cl17? Cl 0.028(2) 0.770(3) 0.9793(17)
C29? C 0.084(2) 0.715(2) 0.8939(15)
H33? H 0.1639 0.6790 0.8968
loop_
_geom_bond_atom_site_label_1
_geom_bond_atom_site_label_2
_geom_bond_site_symmetry_1
_geom_bond_site_symmetry_2
Ag1 N1 1_555 1_555
Ag2 N3 1_555 1_555
S1 C4 1_555 1_555
S2 C8 1_555 1_555
S3 C16 1_555 1_555
S4 C20 1_555 1_555
N1 C1 1_555 1_555
N2 C3 1_555 1_555
N3 C9 1_555 1_555
N4 C9 1_555 1_555
N5 Ag1 1_555 1_555
N6 C15 1_555 1_555
N7 C21 1_555 1_555
N8 C21 1_555 1_555
C1 H1 1_555 1_555
C2 C1 1_555 1_555
H2 C2 1_555 1_555
C3 C2 1_555 1_555
H3 C3 1_555 1_555
C4 N1 1_555 1_555
C5 S1 1_555 1_555
H4 C5 1_555 1_555
H5 C5 1_555 1_555
C6 C5 1_555 1_555
H6 C6 1_555 1_555
H7 C6 1_555 1_555
C7 C6 1_555 1_555
H8 C7 1_555 1_555
H9 C7 1_555 1_555
C8 C7 1_555 1_555
H10 C8 1_555 1_555
H11 C8 1_555 1_555
C9 S2 1_555 1_555
C10 N3 1_555 1_555
H12 C10 1_555 1_555
C11 C10 1_555 1_555
H13 C11 1_555 1_555
C12 N4 1_555 1_555
H14 C12 1_555 1_555
C13 N5 1_555 1_555
H15 C13 1_555 1_555
C14 C13 1_555 1_555
H16 C14 1_555 1_555
C15 C14 1_555 1_555
H17 C15 1_555 1_555
C16 N5 1_555 1_555
C17 S3 1_555 1_555
H18 C17 1_555 1_555
H19 C17 1_555 1_555
C18 C17 1_555 1_555
H20 C18 1_555 1_555
H21 C18 1_555 1_555
C19 C18 1_555 1_555
H22 C19 1_555 1_555
H23 C19 1_555 1_555
C20 C19 1_555 1_555
H24 C20 1_555 1_555
H25 C20 1_555 1_555
C21 S4 1_555 1_555
C22 N7 1_555 1_555
H26 C22 1_555 1_555
C23 C22 1_555 1_555
H27 C23 1_555 1_555
C24 N8 1_555 1_555
H28 C24 1_555 1_555
Cl1 O1 1_555 1_555
O2 Cl1 1_555 1_555
O3 Cl1 1_555 1_555
O4 Cl1 1_555 1_555
Cl2 O5 1_555 1_555
O6 Cl2 1_555 1_555
O7 Cl2 1_555 1_555
O8 Cl2 1_555 1_555
C25 H29 1_555 1_555
Cl3 C25 1_555 1_555
Cl4 C25 1_555 1_555
Cl5 C25 1_555 1_555
C27 H31 1_555 1_555
Cl9 C27 1_555 1_555
Cl10 C27 1_555 1_555
Cl11 C27 1_555 1_555
Ag2_2 N7 1_555 1_555
N7_2 Ag2 1_555 1_555
N2 C4 1_555 1_555
N6 C16 1_555 1_555
C11 C12 1_555 1_555
C23 C24 1_555 1_555

#END
