
#######################################################################
#
#                 Cambridge Crystallographic Data Centre
#                                CCDC 
#
#######################################################################
#
# If this CIF has been generated from an entry in the Cambridge 
# Structural Database, then it will include bibliographic, chemical, 
# crystal, experimental, refinement or atomic coordinate data resulting 
# from the CCDC's data processing and validation procedures.
#
#######################################################################

data_XILCAX
_symmetry_cell_setting           orthorhombic
_symmetry_space_group_name_H-M   'P 21 21 21'
_symmetry_Int_Tables_number      19
_space_group_name_Hall           'P 2ac 2ab'
loop_
_symmetry_equiv_pos_site_id
_symmetry_equiv_pos_as_xyz
1 x,y,z
2 1/2-x,-y,1/2+z
3 -x,1/2+y,1/2-z
4 1/2+x,1/2-y,-z
_cell_length_a                   5.9896(7)
_cell_length_b                   15.2593(18)
_cell_length_c                   21.581(2)
_cell_angle_alpha                90
_cell_angle_beta                 90
_cell_angle_gamma                90
_cell_volume                     1972.44
loop_
_atom_site_label
_atom_site_type_symbol
_atom_site_fract_x
_atom_site_fract_y
_atom_site_fract_z
Cu1 Cu 0.16689(10) 0.53883(4) 0.34904(2)
O1 O 0.5303(6) 0.5146(3) 0.45248(14)
O2 O 0.1645(6) 0.49792(18) 0.43385(11)
O3 O -0.0356(5) 0.4486(3) 0.74787(12)
O4 O 0.3310(6) 0.42383(19) 0.76355(11)
C1 C 0.1555(9) 0.4372(3) 0.72974(17)
C2 C 0.2054(7) 0.4467(3) 0.66137(15)
C3 C 0.4192(7) 0.4528(5) 0.63920(18)
H1 H 0.5386 0.4453 0.6662
C4 C 0.4604(9) 0.4698(5) 0.5775(2)
H2 H 0.6068 0.4770 0.5640
C5 C 0.2899(8) 0.4763(3) 0.53580(16)
C6 C 0.0789(7) 0.4670(4) 0.55662(18)
H3 H -0.0401 0.4706 0.5291
C7 C 0.0384(8) 0.4517(4) 0.62017(18)
H4 H -0.1079 0.4449 0.6338
C8 C 0.3415(11) 0.4975(3) 0.46790(19)
N1 N 0.1812(5) 0.41556(16) 0.31642(10)
C9 C 0.3632(5) 0.3621(2) 0.32926(15)
H5 H 0.4814 0.3834 0.3528
C10 C 0.3685(8) 0.2766(2) 0.3070(2)
H6 H 0.4903 0.2408 0.3156
C11 C 0.1918(9) 0.24467(19) 0.27188(19)
H7 H 0.1953 0.1875 0.2570
C12 C 0.0097(8) 0.2982(2) 0.25904(18)
H8 H -0.1085 0.2768 0.2355
C13 C 0.0044(6) 0.3836(2) 0.28131(15)
H9 H -0.1173 0.4194 0.2727
N2 N 0.2070(5) 0.66163(17) 0.37881(11)
C14 C 0.3862(5) 0.7127(2) 0.35951(16)
H10 H 0.4865 0.6908 0.3305
C15 C 0.4155(7) 0.7964(2) 0.3836(2)
H11 H 0.5354 0.8305 0.3707
C16 C 0.2655(9) 0.8290(2) 0.4270(2)
H12 H 0.2851 0.8850 0.4431
C17 C 0.0863(8) 0.7780(2) 0.44630(18)
H13 H -0.0140 0.7999 0.4753
C18 C 0.0571(6) 0.6943(2) 0.42221(15)
H14 H -0.0628 0.6602 0.4351
O5 O -0.2068(4) 0.54786(18) 0.35159(9)
H15 H -0.2573(15) 0.5095(3) 0.37645(16)
H16 H -0.2802(11) 0.5393(6) 0.31842(15)
Cu1A Cu 0.33311(10) 0.46117(4) 0.84904(2)
O4A O 0.1690(6) 0.57617(19) 0.26355(11)
O6 O 0.026(4) 0.2549(17) 0.4836(10)
loop_
_geom_bond_atom_site_label_1
_geom_bond_atom_site_label_2
_geom_bond_site_symmetry_1
_geom_bond_site_symmetry_2
Cu1 O2 1_555 1_555
O1 C8 1_555 1_555
O2 C8 1_555 1_555
O3 C1 1_555 1_555
O4 C1 1_555 1_555
C1 C2 1_555 1_555
C2 C3 1_555 1_555
C3 H1 1_555 1_555
C4 C3 1_555 1_555
H2 C4 1_555 1_555
C5 C4 1_555 1_555
C6 C5 1_555 1_555
H3 C6 1_555 1_555
C7 C2 1_555 1_555
H4 C7 1_555 1_555
C8 C5 1_555 1_555
N1 Cu1 1_555 1_555
C9 N1 1_555 1_555
H5 C9 1_555 1_555
C10 C9 1_555 1_555
H6 C10 1_555 1_555
C11 C10 1_555 1_555
H7 C11 1_555 1_555
C12 C11 1_555 1_555
H8 C12 1_555 1_555
C13 N1 1_555 1_555
H9 C13 1_555 1_555
N2 Cu1 1_555 1_555
C14 N2 1_555 1_555
H10 C14 1_555 1_555
C15 C14 1_555 1_555
H11 C15 1_555 1_555
C16 C15 1_555 1_555
H12 C16 1_555 1_555
C17 C16 1_555 1_555
H13 C17 1_555 1_555
C18 N2 1_555 1_555
H14 C18 1_555 1_555
O5 Cu1 1_555 1_555
H15 O5 1_555 1_555
H16 O5 1_555 1_555
Cu1A O4 1_555 1_555
O4A Cu1 1_555 1_555
C6 C7 1_555 1_555
C12 C13 1_555 1_555
C17 C18 1_555 1_555

#END
