
#######################################################################
#
#                 Cambridge Crystallographic Data Centre
#                                CCDC 
#
#######################################################################
#
# If this CIF has been generated from an entry in the Cambridge 
# Structural Database, then it will include bibliographic, chemical, 
# crystal, experimental, refinement or atomic coordinate data resulting 
# from the CCDC's data processing and validation procedures.
#
#######################################################################

data_XILCEA02
_symmetry_cell_setting           triclinic
_symmetry_space_group_name_H-M   'P -1'
_symmetry_Int_Tables_number      2
_space_group_name_Hall           '-P 1'
loop_
_symmetry_equiv_pos_site_id
_symmetry_equiv_pos_as_xyz
1 x,y,z
2 -x,-y,-z
_cell_length_a                   9.6077(7)
_cell_length_b                   9.8674(7)
_cell_length_c                   12.3793(9)
_cell_angle_alpha                77.569(4)
_cell_angle_beta                 78.040(4)
_cell_angle_gamma                68.191(4)
_cell_volume                     1053.52
loop_
_atom_site_label
_atom_site_type_symbol
_atom_site_fract_x
_atom_site_fract_y
_atom_site_fract_z
Zn1 Zn 0.13551(9) 0.21434(8) 0.14321(7)
Zn2 Zn -0.14592(9) 0.19542(8) 0.42860(6)
Zn3 Zn 0.33881(9) 0.02294(8) 0.40582(6)
Zn4 Zn 0.01238(8) 0.31867(8) 0.60354(6)
P1 P 0.10407(19) 0.34027(18) 0.34977(15)
P2 P 0.11265(19) -0.05760(18) 0.31384(14)
P3 P 0.6754(2) -0.08957(19) 0.34498(15)
O1 O 0.2065(5) 0.0038(4) 0.2145(3)
O2 O 0.0345(5) 0.3556(4) 0.2464(3)
O3 O -0.0018(5) 0.2870(4) 0.4527(3)
O4 O -0.0515(5) 0.0513(4) 0.3278(3)
O5 O 0.1868(4) -0.0806(4) 0.4201(3)
O6 O 0.2641(5) 0.2285(4) 0.3425(3)
O7 O 0.5248(4) -0.0868(4) 0.3214(3)
O8 O 0.6545(5) -0.0011(4) 0.4375(3)
O9 O 0.1119(5) 0.4842(4) 0.3702(4)
O10 O 0.1142(5) -0.2083(4) 0.2991(3)
O11 O 0.7850(5) -0.2485(4) 0.3652(4)
O12 O 0.7440(5) -0.0059(5) 0.2344(3)
H1 H 0.8248 -0.0026 0.2436
N1 N -0.0233(7) 0.2647(6) 0.0453(5)
N2 N -0.1350(8) 0.2982(7) -0.0999(5)
H2 H -0.1513 0.2854 -0.1621
N3 N 0.3271(7) 0.2182(6) 0.0452(5)
N4 N 0.5189(10) 0.1609(7) -0.0859(6)
H3 H 0.5687 0.1419 -0.1503
N5 N -0.3354(6) 0.3507(6) 0.3847(5)
N6 N -0.5713(7) 0.4636(6) 0.3568(5)
H4 H -0.6633 0.4779 0.3502
C1 C -0.1555(10) 0.3830(8) 0.0539(7)
H5 H -0.1915 0.4395 0.1115
C2 C -0.2256(10) 0.4034(8) -0.0377(8)
H6 H -0.3172 0.4754 -0.0535
C3 C -0.0150(9) 0.2174(8) -0.0472(6)
H7 H 0.0642 0.1376 -0.0732
C4 C 0.4592(10) 0.1963(8) 0.0854(7)
H8 H 0.4647 0.2055 0.1575
C5 C 0.5786(10) 0.1597(9) 0.0047(10)
H9 H 0.6800 0.1382 0.0100
C6 C 0.3705(11) 0.1963(9) -0.0575(7)
H10 H 0.3048 0.2046 -0.1061
C7 C -0.3627(9) 0.5001(7) 0.3619(6)
H11 H -0.2922 0.5451 0.3593
C8 C -0.5073(9) 0.5714(7) 0.3439(6)
H12 H -0.5546 0.6728 0.3263
C9 C -0.4652(8) 0.3342(8) 0.3812(6)
H13 H -0.4798 0.2437 0.3941
Zn2A Zn 0.14592(9) -0.19542(8) 0.57140(6)
Zn3A Zn 0.66119(9) -0.02294(8) 0.59418(6)
Zn4A Zn -0.01238(8) 0.68133(8) 0.39646(6)
Zn4A_2 Zn -0.01238(8) -0.31867(8) 0.39646(6)
Zn4A_3 Zn 0.98762(8) -0.31867(8) 0.39646(6)
O5A O -0.1868(4) 0.0806(4) 0.5799(3)
O8A O 0.3455(5) 0.0011(4) 0.5625(3)
O9A O -0.1119(5) 0.5158(4) 0.6298(4)
O10A O -0.1142(5) 0.2083(4) 0.7009(3)
O11A O 0.2150(5) 0.2485(4) 0.6348(4)
loop_
_geom_bond_atom_site_label_1
_geom_bond_atom_site_label_2
_geom_bond_site_symmetry_1
_geom_bond_site_symmetry_2
Zn1 O1 1_555 1_555
Zn2 O3 1_555 1_555
Zn3 O5 1_555 1_555
Zn4 O3 1_555 1_555
P1 O2 1_555 1_555
P2 O1 1_555 1_555
P3 O7 1_555 1_555
O2 Zn1 1_555 1_555
O3 P1 1_555 1_555
O4 Zn2 1_555 1_555
O5 P2 1_555 1_555
O6 Zn3 1_555 1_555
O7 Zn3 1_555 1_555
O8 P3 1_555 1_555
O9 P1 1_555 1_555
O10 P2 1_555 1_555
O11 P3 1_555 1_555
O12 P3 1_555 1_555
H1 O12 1_555 1_555
N1 Zn1 1_555 1_555
N2 H2 1_555 1_555
N3 Zn1 1_555 1_555
N4 H3 1_555 1_555
N5 Zn2 1_555 1_555
N6 H4 1_555 1_555
C1 N1 1_555 1_555
H5 C1 1_555 1_555
C2 N2 1_555 1_555
H6 C2 1_555 1_555
C3 N1 1_555 1_555
H7 C3 1_555 1_555
C4 N3 1_555 1_555
H8 C4 1_555 1_555
C5 N4 1_555 1_555
H9 C5 1_555 1_555
C6 N3 1_555 1_555
H10 C6 1_555 1_555
C7 N5 1_555 1_555
H11 C7 1_555 1_555
C8 N6 1_555 1_555
H12 C8 1_555 1_555
C9 N5 1_555 1_555
H13 C9 1_555 1_555
Zn2A O5 1_555 1_555
Zn3A O8 1_555 1_555
Zn4A O9 1_555 1_555
Zn4A_2 O10 1_555 1_555
Zn4A_3 O11 1_555 1_555
O5A Zn2 1_555 1_555
O8A Zn3 1_555 1_555
O9A Zn4 1_555 1_555
O10A Zn4 1_555 1_555
O11A Zn4 1_555 1_555
P1 O6 1_555 1_555
P2 O4 1_555 1_555
N2 C3 1_555 1_555
N4 C6 1_555 1_555
N6 C9 1_555 1_555
C1 C2 1_555 1_555
C4 C5 1_555 1_555
C7 C8 1_555 1_555

#END
