
#######################################################################
#
#                 Cambridge Crystallographic Data Centre
#                                CCDC 
#
#######################################################################
#
# If this CIF has been generated from an entry in the Cambridge 
# Structural Database, then it will include bibliographic, chemical, 
# crystal, experimental, refinement or atomic coordinate data resulting 
# from the CCDC's data processing and validation procedures.
#
#######################################################################

data_XILLIN
_symmetry_cell_setting           monoclinic
_symmetry_space_group_name_H-M   'C 2/c'
_symmetry_Int_Tables_number      15
_space_group_name_Hall           '-C 2yn'
loop_
_symmetry_equiv_pos_site_id
_symmetry_equiv_pos_as_xyz
1 x,y,z
2 1/2+x,1/2+y,z
3 x,-y,1/2+z
4 1/2+x,1/2-y,1/2+z
5 -x,-y,-z
6 1/2-x,1/2-y,-z
7 -x,y,1/2-z
8 1/2-x,1/2+y,1/2-z
_cell_length_a                   13.9299(14)
_cell_length_b                   9.2275(9)
_cell_length_c                   12.1865(13)
_cell_angle_alpha                90
_cell_angle_beta                 111.248(2)
_cell_angle_gamma                90
_cell_volume                     1459.95
loop_
_atom_site_label
_atom_site_type_symbol
_atom_site_fract_x
_atom_site_fract_y
_atom_site_fract_z
Cu1 Cu 0.0000 0.0000 0.0000
N1 N 0.06243(12) 0.19591(17) 0.00650(14)
C1 C 0.06783(14) 0.2903(2) 0.09274(16)
C2 C 0.11131(17) 0.4261(2) 0.10015(18)
H1 H 0.1128 0.4898 0.1599
C3 C 0.15258(18) 0.4654(2) 0.0170(2)
H2 H 0.1835 0.5555 0.0207
C4 C 0.14707(17) 0.3689(2) -0.07152(19)
H3 H 0.1741 0.3934 -0.1286
C5 C 0.10116(16) 0.2358(2) -0.07464(18)
H4 H 0.0970 0.1717 -0.1351
C6 C 0.02793(14) 0.2349(2) 0.18059(16)
O1 O 0.0000 0.32759(19) 0.2500
N2 N 0.01832(13) 0.10037(18) 0.20346(14)
N3 N -0.18538(13) 0.16499(19) -0.12589(15)
O2 O -0.14227(11) 0.07436(17) -0.04267(14)
O3 O -0.27362(13) 0.2031(2) -0.14087(16)
O4 O -0.13742(15) 0.2132(2) -0.18449(16)
C6F C -0.02793(14) 0.2349(2) 0.31941(16)
C1F C -0.06783(14) 0.2903(2) 0.40726(16)
N1F N -0.06243(12) 0.19591(17) 0.49350(14)
C5F C -0.10116(16) 0.2358(2) 0.57464(18)
C4F C -0.14707(17) 0.3689(2) 0.57152(19)
C3F C -0.15258(18) 0.4654(2) 0.4830(2)
C2F C -0.11131(17) 0.4261(2) 0.39985(18)
H1F H -0.1128 0.4898 0.3401
H2F H -0.1835 0.5555 0.4793
H3F H -0.1741 0.3934 0.6286
H4F H -0.0970 0.1717 0.6351
N2F N -0.01832(13) 0.10037(18) 0.29654(14)
N3D N 0.18538(13) -0.16499(19) 0.12589(15)
O2D O 0.14227(11) -0.07436(17) 0.04267(14)
O3D O 0.27362(13) -0.2031(2) 0.14087(16)
O4D O 0.13742(15) -0.2132(2) 0.18449(16)
N1D N -0.06243(12) -0.19591(17) -0.00650(14)
N2D N -0.01832(13) -0.10037(18) -0.20346(14)
Cu1B Cu 0.0000 0.0000 0.5000
loop_
_geom_bond_atom_site_label_1
_geom_bond_atom_site_label_2
_geom_bond_site_symmetry_1
_geom_bond_site_symmetry_2
Cu1 N1 1_555 1_555
N1 C1 1_555 1_555
C1 C2 1_555 1_555
C2 H1 1_555 1_555
C3 C2 1_555 1_555
H2 C3 1_555 1_555
C4 C3 1_555 1_555
H3 C4 1_555 1_555
C5 N1 1_555 1_555
H4 C5 1_555 1_555
C6 C1 1_555 1_555
O1 C6 1_555 1_555
N2 Cu1 1_555 1_555
N3 O2 1_555 1_555
O2 Cu1 1_555 1_555
O3 N3 1_555 1_555
O4 N3 1_555 1_555
C6F O1 1_555 1_555
C1F C6F 1_555 1_555
N1F C1F 1_555 1_555
C5F N1F 1_555 1_555
C4F C5F 1_555 1_555
C3F C4F 1_555 1_555
C2F C1F 1_555 1_555
H1F C2F 1_555 1_555
H2F C3F 1_555 1_555
H3F C4F 1_555 1_555
H4F C5F 1_555 1_555
N2F N2 1_555 1_555
N3D O2D 1_555 1_555
O2D Cu1 1_555 1_555
O3D N3D 1_555 1_555
O4D N3D 1_555 1_555
N1D Cu1 1_555 1_555
N2D Cu1 1_555 1_555
Cu1B N1F 1_555 1_555
C4 C5 1_555 1_555
C6 N2 1_555 1_555
C6F N2F 1_555 1_555
C3F C2F 1_555 1_555
N2F Cu1B 1_555 1_555

#END
