
#######################################################################
#
#                 Cambridge Crystallographic Data Centre
#                                CCDC 
#
#######################################################################
#
# If this CIF has been generated from an entry in the Cambridge 
# Structural Database, then it will include bibliographic, chemical, 
# crystal, experimental, refinement or atomic coordinate data resulting 
# from the CCDC's data processing and validation procedures.
#
#######################################################################

data_XILLEL
_symmetry_cell_setting           cubic
_symmetry_space_group_name_H-M   'F d -3 c'
_symmetry_Int_Tables_number      228
_space_group_name_Hall           '-F 4ud 2vw 3'
loop_
_symmetry_equiv_pos_site_id
_symmetry_equiv_pos_as_xyz
1 x,y,z
2 -y,1/4+x,3/4+z
3 1/4-x,1/4-y,z
4 1/4+y,-x,3/4+z
5 1/4+x,-z,3/4+y
6 x,1/4-y,1/4-z
7 1/4+x,3/4+z,-y
8 1/4+z,3/4+y,-x
9 1/4-x,y,1/4-z
10 -z,1/4+y,3/4+x
11 z,x,y
12 y,z,x
13 1/4-y,1/4-z,x
14 z,1/4-x,1/4-y
15 1/4-y,z,1/4-x
16 1/4-z,1/4-x,y
17 1/4-z,x,1/4-y
18 y,1/4-z,1/4-x
19 1/4+y,3/4+x,-z
20 -y,-x,1/2-z
21 -x,1/4+z,3/4+y
22 -x,-z,1/2-y
23 1/4+z,-y,3/4+x
24 -z,-y,1/2-x
25 x,1/2+y,1/2+z
26 -y,3/4+x,1/4+z
27 1/4-x,3/4-y,1/2+z
28 1/4+y,1/2-x,1/4+z
29 1/4+x,1/2-z,1/4+y
30 x,3/4-y,3/4-z
31 1/4+x,1/4+z,1/2-y
32 1/4+z,1/4+y,1/2-x
33 1/4-x,1/2+y,3/4-z
34 -z,3/4+y,1/4+x
35 z,1/2+x,1/2+y
36 y,1/2+z,1/2+x
37 1/4-y,3/4-z,1/2+x
38 z,3/4-x,3/4-y
39 1/4-y,1/2+z,3/4-x
40 1/4-z,3/4-x,1/2+y
41 1/4-z,1/2+x,3/4-y
42 y,3/4-z,3/4-x
43 1/4+y,1/4+x,1/2-z
44 -y,1/2-x,-z
45 -x,3/4+z,1/4+y
46 -x,1/2-z,-y
47 1/4+z,1/2-y,1/4+x
48 -z,1/2-y,-x
49 1/2+x,y,1/2+z
50 1/2-y,1/4+x,1/4+z
51 3/4-x,1/4-y,1/2+z
52 3/4+y,-x,1/4+z
53 3/4+x,-z,1/4+y
54 1/2+x,1/4-y,3/4-z
55 3/4+x,3/4+z,1/2-y
56 3/4+z,3/4+y,1/2-x
57 3/4-x,y,3/4-z
58 1/2-z,1/4+y,1/4+x
59 1/2+z,x,1/2+y
60 1/2+y,z,1/2+x
61 3/4-y,1/4-z,1/2+x
62 1/2+z,1/4-x,3/4-y
63 3/4-y,z,3/4-x
64 3/4-z,1/4-x,1/2+y
65 3/4-z,x,3/4-y
66 1/2+y,1/4-z,3/4-x
67 3/4+y,3/4+x,1/2-z
68 1/2-y,-x,-z
69 1/2-x,1/4+z,1/4+y
70 1/2-x,-z,-y
71 3/4+z,-y,1/4+x
72 1/2-z,-y,-x
73 1/2+x,1/2+y,z
74 1/2-y,3/4+x,3/4+z
75 3/4-x,3/4-y,z
76 3/4+y,1/2-x,3/4+z
77 3/4+x,1/2-z,3/4+y
78 1/2+x,3/4-y,1/4-z
79 3/4+x,1/4+z,-y
80 3/4+z,1/4+y,-x
81 3/4-x,1/2+y,1/4-z
82 1/2-z,3/4+y,3/4+x
83 1/2+z,1/2+x,y
84 1/2+y,1/2+z,x
85 3/4-y,3/4-z,x
86 1/2+z,3/4-x,1/4-y
87 3/4-y,1/2+z,1/4-x
88 3/4-z,3/4-x,y
89 3/4-z,1/2+x,1/4-y
90 1/2+y,3/4-z,1/4-x
91 3/4+y,1/4+x,-z
92 1/2-y,1/2-x,1/2-z
93 1/2-x,3/4+z,3/4+y
94 1/2-x,1/2-z,1/2-y
95 3/4+z,1/2-y,3/4+x
96 1/2-z,1/2-y,1/2-x
97 -x,-y,-z
98 y,3/4-x,1/4-z
99 3/4+x,3/4+y,-z
100 3/4-y,x,1/4-z
101 3/4-x,z,1/4-y
102 -x,3/4+y,3/4+z
103 3/4-x,1/4-z,y
104 3/4-z,1/4-y,x
105 3/4+x,-y,3/4+z
106 z,3/4-y,1/4-x
107 -z,-x,-y
108 -y,-z,-x
109 3/4+y,3/4+z,-x
110 -z,3/4+x,3/4+y
111 3/4+y,-z,3/4+x
112 3/4+z,3/4+x,-y
113 3/4+z,-x,3/4+y
114 -y,3/4+z,3/4+x
115 3/4-y,1/4-x,z
116 y,x,1/2+z
117 x,3/4-z,1/4-y
118 x,z,1/2+y
119 3/4-z,y,1/4-x
120 z,y,1/2+x
121 -x,1/2-y,1/2-z
122 y,1/4-x,3/4-z
123 3/4+x,1/4+y,1/2-z
124 3/4-y,1/2+x,3/4-z
125 3/4-x,1/2+z,3/4-y
126 -x,1/4+y,1/4+z
127 3/4-x,3/4-z,1/2+y
128 3/4-z,3/4-y,1/2+x
129 3/4+x,1/2-y,1/4+z
130 z,1/4-y,3/4-x
131 -z,1/2-x,1/2-y
132 -y,1/2-z,1/2-x
133 3/4+y,1/4+z,1/2-x
134 -z,1/4+x,1/4+y
135 3/4+y,1/2-z,1/4+x
136 3/4+z,1/4+x,1/2-y
137 3/4+z,1/2-x,1/4+y
138 -y,1/4+z,1/4+x
139 3/4-y,3/4-x,1/2+z
140 y,1/2+x,z
141 x,1/4-z,3/4-y
142 x,1/2+z,y
143 3/4-z,1/2+y,3/4-x
144 z,1/2+y,x
145 1/2-x,-y,1/2-z
146 1/2+y,3/4-x,3/4-z
147 1/4+x,3/4+y,1/2-z
148 1/4-y,x,3/4-z
149 1/4-x,z,3/4-y
150 1/2-x,3/4+y,1/4+z
151 1/4-x,1/4-z,1/2+y
152 1/4-z,1/4-y,1/2+x
153 1/4+x,-y,1/4+z
154 1/2+z,3/4-y,3/4-x
155 1/2-z,-x,1/2-y
156 1/2-y,-z,1/2-x
157 1/4+y,3/4+z,1/2-x
158 1/2-z,3/4+x,1/4+y
159 1/4+y,-z,1/4+x
160 1/4+z,3/4+x,1/2-y
161 1/4+z,-x,1/4+y
162 1/2-y,3/4+z,1/4+x
163 1/4-y,1/4-x,1/2+z
164 1/2+y,x,z
165 1/2+x,3/4-z,3/4-y
166 1/2+x,z,y
167 1/4-z,y,3/4-x
168 1/2+z,y,x
169 1/2-x,1/2-y,-z
170 1/2+y,1/4-x,1/4-z
171 1/4+x,1/4+y,-z
172 1/4-y,1/2+x,1/4-z
173 1/4-x,1/2+z,1/4-y
174 1/2-x,1/4+y,3/4+z
175 1/4-x,3/4-z,y
176 1/4-z,3/4-y,x
177 1/4+x,1/2-y,3/4+z
178 1/2+z,1/4-y,1/4-x
179 1/2-z,1/2-x,-y
180 1/2-y,1/2-z,-x
181 1/4+y,1/4+z,-x
182 1/2-z,1/4+x,3/4+y
183 1/4+y,1/2-z,3/4+x
184 1/4+z,1/4+x,-y
185 1/4+z,1/2-x,3/4+y
186 1/2-y,1/4+z,3/4+x
187 1/4-y,3/4-x,z
188 1/2+y,1/2+x,1/2+z
189 1/2+x,1/4-z,1/4-y
190 1/2+x,1/2+z,1/2+y
191 1/4-z,1/2+y,1/4-x
192 1/2+z,1/2+y,1/2+x
_cell_length_a                   32.702(3)
_cell_length_b                   32.702(3)
_cell_length_c                   32.702(3)
_cell_angle_alpha                90
_cell_angle_beta                 90
_cell_angle_gamma                90
_cell_volume                     34972.2
loop_
_atom_site_label
_atom_site_type_symbol
_atom_site_fract_x
_atom_site_fract_y
_atom_site_fract_z
N3 N 0.7500 0.4194(3) 0.0806(3)
O1 O 0.7322(7) 0.4439(6) 0.0996(6)
O2 O 0.7408(6) 0.3899(5) 0.0608(6)
O3 O 0.7906(4) 0.4228(7) 0.0835(9)
O1OC O 0.7678(7) 0.4004(6) 0.0561(6)
O2OC O 0.7592(6) 0.4392(6) 0.1101(5)
O3OC O 0.7094(4) 0.4165(9) 0.0772(7)
Zn1 Zn 0.6250 0.3750 0.1250
C1 C 0.7041(3) 0.3295(3) 0.1316(3)
H1 H 0.7118 0.3431 0.1561
C2 C 0.7260(3) 0.2997(3) 0.1133(3)
H2 H 0.7525 0.2903 0.1209
C3 C 0.6695(2) 0.31001(19) 0.08113(19)
H3 H 0.6481 0.3075 0.0616
C4 C 0.7113(2) 0.25220(19) 0.0558(2)
C5 C 0.6861(2) 0.24437(19) 0.0225(2)
H4 H 0.6634 0.2617 0.0169
N1 N 0.66981(17) 0.33707(16) 0.11030(18)
N2 N 0.70284(16) 0.28604(16) 0.08190(18)
C1MB C 0.8295(3) 0.1184(3) 0.0459(3)
H1MB H 0.8431 0.0939 0.0382
C2MB C 0.7997(3) 0.1367(3) 0.0240(3)
H2MB H 0.7903 0.1291 -0.0025
C3MB C 0.81001(19) 0.16887(19) 0.0805(2)
H3MB H 0.8075 0.1884 0.1019
C4MB C 0.75220(19) 0.1942(2) 0.0387(2)
C5MB C 0.74437(19) 0.2275(2) 0.0639(2)
H4MB H 0.7617 0.2331 0.0866
N1MB N 0.83707(16) 0.13970(18) 0.08019(17)
N2MB N 0.78604(16) 0.16810(18) 0.04716(16)
C1JC C 0.6184(3) 0.2041(3) -0.0795(3)
H1JC H 0.5939 0.2118 -0.0931
C2JC C 0.6367(3) 0.2260(3) -0.0497(3)
H2JC H 0.6291 0.2525 -0.0403
C3JC C 0.66887(19) 0.1695(2) -0.06001(19)
H3JC H 0.6884 0.1481 -0.0575
C4JC C 0.6942(2) 0.2113(2) -0.00220(19)
C5JC C 0.7275(2) 0.1861(2) 0.00563(19)
H4JC H 0.7331 0.1634 -0.0117
N1JC N 0.63970(18) 0.16981(17) -0.08707(16)
N2JC N 0.66810(18) 0.20284(16) -0.03604(16)
C1H C 0.5459(3) 0.3295(3) 0.1184(3)
H1H H 0.5382 0.3431 0.0939
C2H C 0.5240(3) 0.2997(3) 0.1367(3)
H2H H 0.4975 0.2903 0.1291
C3H C 0.5805(2) 0.31001(19) 0.16887(19)
H3H H 0.6019 0.3075 0.1884
C4H C 0.5387(2) 0.25220(19) 0.1942(2)
C5H C 0.5639(2) 0.24437(19) 0.2275(2)
H4H H 0.5866 0.2617 0.2331
N1H N 0.58019(17) 0.33707(16) 0.13970(18)
N2H N 0.54716(16) 0.28604(16) 0.16810(18)
C1HB C 0.4205(3) 0.1184(3) 0.2041(3)
H1HB H 0.4069 0.0939 0.2118
C2HB C 0.4503(3) 0.1367(3) 0.2260(3)
H2HB H 0.4597 0.1291 0.2525
C3HB C 0.43999(19) 0.16887(19) 0.1695(2)
H3HB H 0.4425 0.1884 0.1481
C4HB C 0.49780(19) 0.1942(2) 0.2113(2)
C5HB C 0.50563(19) 0.2275(2) 0.1861(2)
H4HB H 0.4883 0.2331 0.1634
N1HB N 0.41293(16) 0.13970(18) 0.16981(17)
N2HB N 0.46396(16) 0.16810(18) 0.20284(16)
C1DC C 0.6316(3) 0.2041(3) 0.3295(3)
H1DC H 0.6561 0.2118 0.3431
C2DC C 0.6133(3) 0.2260(3) 0.2997(3)
H2DC H 0.6209 0.2525 0.2903
C3DC C 0.58113(19) 0.1695(2) 0.31001(19)
H3DC H 0.5616 0.1481 0.3075
C4DC C 0.5558(2) 0.2113(2) 0.25220(19)
C5DC C 0.5225(2) 0.1861(2) 0.24437(19)
H4DC H 0.5169 0.1634 0.2617
N1DC N 0.61030(18) 0.16981(17) 0.33707(16)
N2DC N 0.58190(18) 0.20284(16) 0.28604(16)
Zn1GB Zn 0.8750 0.1250 0.1250
C1GB C 0.8295(3) 0.1316(3) 0.2041(3)
H1GB H 0.8431 0.1561 0.2118
C2GB C 0.7997(3) 0.1133(3) 0.2260(3)
H2GB H 0.7903 0.1209 0.2525
C3GB C 0.81001(19) 0.08113(19) 0.1695(2)
H3GB H 0.8075 0.0616 0.1481
C4GB C 0.75220(19) 0.0558(2) 0.2113(2)
C5GB C 0.74437(19) 0.0225(2) 0.1861(2)
H4GB H 0.7617 0.0169 0.1634
N1GB N 0.83707(16) 0.11030(18) 0.16981(17)
N2GB N 0.78604(16) 0.08190(18) 0.20284(16)
C1IC C 0.6184(3) 0.0459(3) 0.3295(3)
H1IC H 0.5939 0.0382 0.3431
C2IC C 0.6367(3) 0.0240(3) 0.2997(3)
H2IC H 0.6291 -0.0025 0.2903
C3IC C 0.66887(19) 0.0805(2) 0.31001(19)
H3IC H 0.6884 0.1019 0.3075
C4IC C 0.6942(2) 0.0387(2) 0.25220(19)
C5IC C 0.7275(2) 0.0639(2) 0.24437(19)
H4IC H 0.7331 0.0866 0.2617
N1IC N 0.63970(18) 0.08019(17) 0.33707(16)
N2IC N 0.66810(18) 0.04716(16) 0.28604(16)
C1E C 0.7041(3) -0.0795(3) 0.1184(3)
H1E H 0.7118 -0.0931 0.0939
C2E C 0.7260(3) -0.0497(3) 0.1367(3)
H2E H 0.7525 -0.0403 0.1291
C3E C 0.6695(2) -0.06001(19) 0.16887(19)
H3E H 0.6481 -0.0575 0.1884
C4E C 0.7113(2) -0.00220(19) 0.1942(2)
C5E C 0.6861(2) 0.00563(19) 0.2275(2)
H4E H 0.6634 -0.0117 0.2331
N1E N 0.66981(17) -0.08707(16) 0.13970(18)
N2E N 0.70284(16) -0.03604(16) 0.16810(18)
Zn1HB Zn 0.3750 0.1250 0.1250
C1JB C 0.4205(3) 0.1316(3) 0.0459(3)
H1JB H 0.4069 0.1561 0.0382
C2JB C 0.4503(3) 0.1133(3) 0.0240(3)
H2JB H 0.4597 0.1209 -0.0025
C3JB C 0.43999(19) 0.08113(19) 0.0805(2)
H3JB H 0.4425 0.0616 0.1019
C4JB C 0.49780(19) 0.0558(2) 0.0387(2)
C5JB C 0.50563(19) 0.0225(2) 0.0639(2)
H4JB H 0.4883 0.0169 0.0866
N1JB N 0.41293(16) 0.11030(18) 0.08019(17)
N2JB N 0.46396(16) 0.08190(18) 0.04716(16)
C1GC C 0.6316(3) 0.0459(3) -0.0795(3)
H1GC H 0.6561 0.0382 -0.0931
C2GC C 0.6133(3) 0.0240(3) -0.0497(3)
H2GC H 0.6209 -0.0025 -0.0403
C3GC C 0.58113(19) 0.0805(2) -0.06001(19)
H3GC H 0.5616 0.1019 -0.0575
C4GC C 0.5558(2) 0.0387(2) -0.00220(19)
C5GC C 0.5225(2) 0.0639(2) 0.00563(19)
H4GC H 0.5169 0.0866 -0.0117
N1GC N 0.61030(18) 0.08019(17) -0.08707(16)
N2GC N 0.58190(18) 0.04716(16) -0.03604(16)
C1B C 0.5459(3) -0.0795(3) 0.1316(3)
H1B H 0.5382 -0.0931 0.1561
C2B C 0.5240(3) -0.0497(3) 0.1133(3)
H2B H 0.4975 -0.0403 0.1209
C3B C 0.5805(2) -0.06001(19) 0.08113(19)
H3B H 0.6019 -0.0575 0.0616
C4B C 0.5387(2) -0.00220(19) 0.0558(2)
C5B C 0.5639(2) 0.00563(19) 0.0225(2)
H4B H 0.5866 -0.0117 0.0169
N1B N 0.58019(17) -0.08707(16) 0.11030(18)
N2B N 0.54716(16) -0.03604(16) 0.08190(18)
Zn1B Zn 0.6250 -0.1250 0.1250
Zn1DC Zn 0.6250 0.1250 0.3750
Zn1GC Zn 0.6250 0.1250 -0.1250
N1SC N 0.33707(16) 0.08019(17) 0.13970(18)
N1WD N 0.63970(18) 0.41293(16) 0.16981(17)
N1IE N 0.33707(16) 0.16981(17) 0.11030(18)
N1WE N 0.61030(18) 0.41293(16) 0.08019(17)
N1OF N 0.91293(16) 0.16981(17) 0.13970(18)
N1DG N 0.91293(16) 0.08019(17) 0.11030(18)
loop_
_geom_bond_atom_site_label_1
_geom_bond_atom_site_label_2
_geom_bond_site_symmetry_1
_geom_bond_site_symmetry_2
Zn1 N1 1_555 1_555
C1 H1 1_555 1_555
C2 C1 1_555 1_555
H2 C2 1_555 1_555
C3 H3 1_555 1_555
C4 C5 1_555 1_555
C5 H4 1_555 1_555
N1 C1 1_555 1_555
N2 C2 1_555 1_555
N3 O1 1_555 1_555
O1 O2OC 1_555 1_555
O2 N3 1_555 1_555
O3 N3 1_555 1_555
C1MB H1MB 1_555 1_555
C2MB C1MB 1_555 1_555
H2MB C2MB 1_555 1_555
C3MB H3MB 1_555 1_555
C4MB C5MB 1_555 1_555
C5MB C4 1_555 1_555
H4MB C5MB 1_555 1_555
N1MB C1MB 1_555 1_555
N2MB C2MB 1_555 1_555
C1JC H1JC 1_555 1_555
C2JC C1JC 1_555 1_555
H2JC C2JC 1_555 1_555
C3JC H3JC 1_555 1_555
C4JC C5 1_555 1_555
C5JC C4MB 1_555 1_555
H4JC C5JC 1_555 1_555
N1JC C1JC 1_555 1_555
N2JC C2JC 1_555 1_555
C1H H1H 1_555 1_555
C2H C1H 1_555 1_555
H2H C2H 1_555 1_555
C3H H3H 1_555 1_555
C4H C5H 1_555 1_555
C5H H4H 1_555 1_555
N1H Zn1 1_555 1_555
N2H C2H 1_555 1_555
C1HB H1HB 1_555 1_555
C2HB C1HB 1_555 1_555
H2HB C2HB 1_555 1_555
C3HB H3HB 1_555 1_555
C4HB C5HB 1_555 1_555
C5HB C4H 1_555 1_555
H4HB C5HB 1_555 1_555
N1HB C1HB 1_555 1_555
N2HB C2HB 1_555 1_555
C1DC H1DC 1_555 1_555
C2DC C1DC 1_555 1_555
H2DC C2DC 1_555 1_555
C3DC H3DC 1_555 1_555
C4DC C5H 1_555 1_555
C5DC C4HB 1_555 1_555
H4DC C5DC 1_555 1_555
N1DC C1DC 1_555 1_555
N2DC C2DC 1_555 1_555
Zn1GB N1MB 1_555 1_555
C1GB H1GB 1_555 1_555
C2GB C1GB 1_555 1_555
H2GB C2GB 1_555 1_555
C3GB H3GB 1_555 1_555
C4GB C5GB 1_555 1_555
C5GB H4GB 1_555 1_555
N1GB Zn1GB 1_555 1_555
N2GB C2GB 1_555 1_555
C1IC H1IC 1_555 1_555
C2IC C1IC 1_555 1_555
H2IC C2IC 1_555 1_555
C3IC H3IC 1_555 1_555
C4IC C5IC 1_555 1_555
C5IC C4GB 1_555 1_555
H4IC C5IC 1_555 1_555
N1IC C1IC 1_555 1_555
N2IC C2IC 1_555 1_555
C1E H1E 1_555 1_555
C2E C1E 1_555 1_555
H2E C2E 1_555 1_555
C3E H3E 1_555 1_555
C4E C5GB 1_555 1_555
C5E C4IC 1_555 1_555
H4E C5E 1_555 1_555
N1E C1E 1_555 1_555
N2E C2E 1_555 1_555
Zn1HB N1HB 1_555 1_555
C1JB H1JB 1_555 1_555
C2JB C1JB 1_555 1_555
H2JB C2JB 1_555 1_555
C3JB H3JB 1_555 1_555
C4JB C5JB 1_555 1_555
C5JB H4JB 1_555 1_555
N1JB Zn1HB 1_555 1_555
N2JB C2JB 1_555 1_555
C1GC H1GC 1_555 1_555
C2GC C1GC 1_555 1_555
H2GC C2GC 1_555 1_555
C3GC H3GC 1_555 1_555
C4GC C5GC 1_555 1_555
C5GC C4JB 1_555 1_555
H4GC C5GC 1_555 1_555
N1GC C1GC 1_555 1_555
N2GC C2GC 1_555 1_555
C1B H1B 1_555 1_555
C2B C1B 1_555 1_555
H2B C2B 1_555 1_555
C3B H3B 1_555 1_555
C4B C5JB 1_555 1_555
C5B C4GC 1_555 1_555
H4B C5B 1_555 1_555
N1B C1B 1_555 1_555
N2B C2B 1_555 1_555
Zn1B N1E 1_555 1_555
Zn1DC N1DC 1_555 1_555
Zn1GC N1JC 1_555 1_555
N1SC Zn1HB 1_555 1_555
N1WD Zn1 1_555 1_555
N1IE Zn1HB 1_555 1_555
N1WE Zn1 1_555 1_555
N1OF Zn1GB 1_555 1_555
N1DG Zn1GB 1_555 1_555
O1OC N3 1_555 1_555
O2OC N3 1_555 1_555
O3OC N3 1_555 1_555
C3 N1 1_555 1_555
C3 N2 1_555 1_555
C4 N2 1_555 1_555
O1 O3OC 1_555 1_555
O2 O1OC 1_555 1_555
O2 O3OC 1_555 1_555
O3 O1OC 1_555 1_555
O3 O2OC 1_555 1_555
C3MB N1MB 1_555 1_555
C3MB N2MB 1_555 1_555
C4MB N2MB 1_555 1_555
C3JC N1JC 1_555 1_555
C3JC N2JC 1_555 1_555
C4JC C5JC 1_555 1_555
C4JC N2JC 1_555 1_555
C1H N1H 1_555 1_555
C3H N1H 1_555 1_555
C3H N2H 1_555 1_555
C4H N2H 1_555 1_555
C3HB N1HB 1_555 1_555
C3HB N2HB 1_555 1_555
C4HB N2HB 1_555 1_555
C3DC N1DC 1_555 1_555
C3DC N2DC 1_555 1_555
C4DC C5DC 1_555 1_555
C4DC N2DC 1_555 1_555
C1GB N1GB 1_555 1_555
C3GB N1GB 1_555 1_555
C3GB N2GB 1_555 1_555
C4GB N2GB 1_555 1_555
C3IC N1IC 1_555 1_555
C3IC N2IC 1_555 1_555
C4IC N2IC 1_555 1_555
N1IC Zn1DC 1_555 1_555
C3E N1E 1_555 1_555
C3E N2E 1_555 1_555
C4E C5E 1_555 1_555
C4E N2E 1_555 1_555
C1JB N1JB 1_555 1_555
C3JB N1JB 1_555 1_555
C3JB N2JB 1_555 1_555
C4JB N2JB 1_555 1_555
C3GC N1GC 1_555 1_555
C3GC N2GC 1_555 1_555
C4GC N2GC 1_555 1_555
N1GC Zn1GC 1_555 1_555
C3B N1B 1_555 1_555
C3B N2B 1_555 1_555
C4B C5B 1_555 1_555
C4B N2B 1_555 1_555
N1B Zn1B 1_555 1_555

#END
