
#######################################################################
#
#                 Cambridge Crystallographic Data Centre
#                                CCDC 
#
#######################################################################
#
# If this CIF has been generated from an entry in the Cambridge 
# Structural Database, then it will include bibliographic, chemical, 
# crystal, experimental, refinement or atomic coordinate data resulting 
# from the CCDC's data processing and validation procedures.
#
#######################################################################

data_XILQEP
_symmetry_cell_setting           triclinic
_symmetry_space_group_name_H-M   'P -1'
_symmetry_Int_Tables_number      2
_space_group_name_Hall           '-P 1'
loop_
_symmetry_equiv_pos_site_id
_symmetry_equiv_pos_as_xyz
1 x,y,z
2 -x,-y,-z
_cell_length_a                   7.6864(15)
_cell_length_b                   10.948(2)
_cell_length_c                   11.372(2)
_cell_angle_alpha                93.14(3)
_cell_angle_beta                 92.61(3)
_cell_angle_gamma                105.54(3)
_cell_volume                     918.79
loop_
_atom_site_label
_atom_site_type_symbol
_atom_site_fract_x
_atom_site_fract_y
_atom_site_fract_z
Cu1 Cu 1.0000 0.5000 1.5000
O1 O 0.9107(2) 0.27569(14) 1.36307(14)
C1 C 0.6494(3) 0.3343(2) 1.5848(3)
H1 H 0.6743 0.2585 1.5609
O4 O 1.03966(18) 0.33904(12) 1.54287(13)
N3 N 0.5146(2) 0.4683(2) 1.65828(17)
N4 N 0.7593(2) 0.45316(18) 1.57218(16)
C2 C 0.9687(3) 0.03193(18) 1.38621(18)
H2 H 0.9477 0.0534 1.3099
C3 C 0.4459(4) 0.5512(4) 1.8516(3)
H3 H 0.4327 0.4717 1.8867
H4 H 0.3707 0.5970 1.8890
H5 H 0.5700 0.6006 1.8617
C11 C 0.9910(2) 0.12260(17) 1.48043(18)
C12 C 0.9782(2) 0.25449(17) 1.45794(19)
C13 C 1.0223(3) 0.09013(18) 1.59434(18)
H13 H 1.0371 0.1503 1.6576
C14 C 0.3898(3) 0.5266(3) 1.7217(2)
H14 H 0.2681 0.4705 1.7114
H15 H 0.3889 0.6061 1.6883
C16 C 0.6734(3) 0.5318(2) 1.6179(2)
H17 H 0.7168 0.6199 1.6218
C17 C 0.4989(3) 0.3439(3) 1.6375(3)
H18 H 0.4029 0.2771 1.6559
Cu1_2 Cu 1.0000 -0.5000 1.5000
O1A O 1.0893(2) -0.27569(14) 1.63693(14)
C1A C 1.3506(3) 0.6657(2) 1.4152(3)
H1A H 1.3257 0.7415 1.4391
O4A O 0.96034(18) -0.33904(12) 1.45713(13)
O4A_2 O 0.96034(18) 0.66096(12) 1.45713(13)
N3A N 1.4854(2) 0.5317(2) 1.34172(17)
N4A N 1.2407(2) 0.54684(18) 1.42782(16)
C2A C 1.0313(3) -0.03193(18) 1.61379(18)
H2A H 1.0523 -0.0534 1.6901
C3A C 1.5541(4) 0.4488(4) 1.1484(3)
H3A H 1.5673 0.5283 1.1133
H4A H 1.6293 0.4030 1.1110
H5A H 1.4300 0.3994 1.1383
C11A C 1.0090(2) -0.12260(17) 1.51957(18)
C12A C 1.0218(2) -0.25449(17) 1.54206(19)
C13A C 0.9777(3) -0.09013(18) 1.40566(18)
H13A H 0.9629 -0.1503 1.3424
C14A C 1.6102(3) 0.4734(3) 1.2783(2)
H14A H 1.7319 0.5295 1.2886
H15A H 1.6111 0.3939 1.3117
C16A C 1.3266(3) 0.4682(2) 1.3821(2)
H17A H 1.2832 0.3801 1.3782
C17A C 1.5011(3) 0.6561(3) 1.3625(3)
H18A H 1.5971 0.7229 1.3441
Cu2 Cu 1.0000 0.0000 1.0000
O2 O 0.93649(19) 0.17782(13) 0.86458(14)
O3 O 1.04795(19) 0.18231(12) 1.04847(13)
N1 N 0.5345(3) -0.0014(2) 1.16622(18)
N2 N 0.7624(2) -0.03149(17) 1.07038(15)
C4 C 0.4524(5) 0.0567(5) 1.3606(3)
H6 H 0.4053 -0.0296 1.3802
H7 H 0.3925 0.1101 1.4031
H8 H 0.5800 0.0844 1.3817
C5 C 0.9975(2) 0.37248(17) 0.98204(17)
C6 C 0.6978(3) 0.0531(2) 1.1280(2)
H9 H 0.7576 0.1391 1.1405
C7 C 0.9611(3) 0.43954(18) 0.88758(18)
H10 H 0.9350 0.3991 0.8123
C8 C 1.0364(2) 0.43359(18) 1.09464(18)
H11 H 1.0607 0.3892 1.1580
C9 C 0.6332(3) -0.1453(2) 1.0739(2)
H12 H 0.6414 -0.2229 1.0406
C10 C 0.9929(2) 0.23451(17) 0.96117(18)
C15 C 0.4928(3) -0.1277(3) 1.1329(2)
H16 H 0.3884 -0.1895 1.1479
C18 C 0.4214(4) 0.0649(3) 1.2339(3)
H19 H 0.4508 0.1534 1.2159
H20 H 0.2946 0.0265 1.2106
Cu2_2 Cu 1.0000 1.0000 1.0000
O2A O 1.06351(19) 0.82218(13) 1.13542(14)
O3A O 0.95205(19) 0.81769(12) 0.95153(13)
O3A_2 O 0.95205(19) -0.18231(12) 0.95153(13)
N1A N 1.4655(3) 0.0014(2) 0.83378(18)
N2A N 1.2376(2) 0.03149(17) 0.92962(15)
C4A C 1.5476(5) -0.0567(5) 0.6394(3)
H6A H 1.5947 0.0296 0.6198
H7A H 1.6075 -0.1101 0.5969
H8A H 1.4200 -0.0844 0.6183
C5A C 1.0025(2) 0.62752(17) 1.01796(17)
C6A C 1.3022(3) -0.0531(2) 0.8720(2)
H9A H 1.2424 -0.1391 0.8595
C7A C 1.0389(3) 0.56046(18) 1.11242(18)
H10A H 1.0650 0.6009 1.1877
C8A C 0.9636(2) 0.56641(18) 0.90536(18)
H11A H 0.9393 0.6108 0.8420
C9A C 1.3668(3) 0.1453(2) 0.9261(2)
H12A H 1.3586 0.2229 0.9594
C10A C 1.0071(2) 0.76549(17) 1.03883(18)
C15A C 1.5072(3) 0.1277(3) 0.8671(2)
H16A H 1.6116 0.1895 0.8521
C18A C 1.5786(4) -0.0649(3) 0.7661(3)
H19A H 1.5492 -0.1534 0.7841
H20A H 1.7054 -0.0265 0.7894
loop_
_geom_bond_atom_site_label_1
_geom_bond_atom_site_label_2
_geom_bond_site_symmetry_1
_geom_bond_site_symmetry_2
Cu1 O4 1_555 1_555
Cu2 O3 1_555 1_555
O1 C12 1_555 1_555
O2 C10 1_555 1_555
O3 C10 1_555 1_555
C1 H1 1_555 1_555
O4 C12 1_555 1_555
N1 C6 1_555 1_555
N2 Cu2 1_555 1_555
N3 C14 1_555 1_555
N4 Cu1 1_555 1_555
C2 H2 1_555 1_555
C3 H3 1_555 1_555
H4 C3 1_555 1_555
H5 C3 1_555 1_555
C4 H6 1_555 1_555
H7 C4 1_555 1_555
H8 C4 1_555 1_555
C5 C7 1_555 1_555
C6 N2 1_555 1_555
H9 C6 1_555 1_555
C7 H10 1_555 1_555
C8 C5 1_555 1_555
H11 C8 1_555 1_555
C9 N2 1_555 1_555
H12 C9 1_555 1_555
C10 C5 1_555 1_555
C11 C2 1_555 1_555
C12 C11 1_555 1_555
C13 C11 1_555 1_555
H13 C13 1_555 1_555
C14 C3 1_555 1_555
H14 C14 1_555 1_555
H15 C14 1_555 1_555
C15 N1 1_555 1_555
H16 C15 1_555 1_555
C16 N3 1_555 1_555
H17 C16 1_555 1_555
C17 C1 1_555 1_555
H18 C17 1_555 1_555
C18 N1 1_555 1_555
H19 C18 1_555 1_555
H20 C18 1_555 1_555
Cu1_2 O4A 1_555 1_555
Cu2_2 O3A 1_555 1_555
O1A C12A 1_555 1_555
O2A C10A 1_555 1_555
O3A C10A 1_555 1_555
O3A_2 Cu2 1_555 1_555
C1A H1A 1_555 1_555
O4A C12A 1_555 1_555
O4A_2 Cu1 1_555 1_555
N1A C6A 1_555 1_555
N2A Cu2 1_555 1_555
N3A C14A 1_555 1_555
N4A Cu1 1_555 1_555
C2A C13 1_555 1_555
H2A C2A 1_555 1_555
C3A H3A 1_555 1_555
H4A C3A 1_555 1_555
H5A C3A 1_555 1_555
C4A H6A 1_555 1_555
H7A C4A 1_555 1_555
H8A C4A 1_555 1_555
C5A C7A 1_555 1_555
C6A N2A 1_555 1_555
H9A C6A 1_555 1_555
C7A C8 1_555 1_555
H10A C7A 1_555 1_555
C8A C7 1_555 1_555
H11A C8A 1_555 1_555
C9A N2A 1_555 1_555
H12A C9A 1_555 1_555
C10A C5A 1_555 1_555
C11A C2A 1_555 1_555
C12A C11A 1_555 1_555
C13A C2 1_555 1_555
H13A C13A 1_555 1_555
C14A C3A 1_555 1_555
H14A C14A 1_555 1_555
H15A C14A 1_555 1_555
C15A N1A 1_555 1_555
H16A C15A 1_555 1_555
C16A N3A 1_555 1_555
H17A C16A 1_555 1_555
C17A C1A 1_555 1_555
H18A C17A 1_555 1_555
C18A N1A 1_555 1_555
H19A C18A 1_555 1_555
H20A C18A 1_555 1_555
C1 N4 1_555 1_555
N3 C17 1_555 1_555
N4 C16 1_555 1_555
C4 C18 1_555 1_555
C9 C15 1_555 1_555
C1A N4A 1_555 1_555
N3A C17A 1_555 1_555
N4A C16A 1_555 1_555
C4A C18A 1_555 1_555
C5A C8A 1_555 1_555
C9A C15A 1_555 1_555
C11A C13A 1_555 1_555

#END
