
#######################################################################
#
#                 Cambridge Crystallographic Data Centre
#                                CCDC 
#
#######################################################################
#
# If this CIF has been generated from an entry in the Cambridge 
# Structural Database, then it will include bibliographic, chemical, 
# crystal, experimental, refinement or atomic coordinate data resulting 
# from the CCDC's data processing and validation procedures.
#
#######################################################################

data_XILSAO01
_symmetry_cell_setting           monoclinic
_symmetry_space_group_name_H-M   'P 21/c'
_symmetry_Int_Tables_number      14
_space_group_name_Hall           '-P 2ybc'
loop_
_symmetry_equiv_pos_site_id
_symmetry_equiv_pos_as_xyz
1 x,y,z
2 -x,1/2+y,1/2-z
3 -x,-y,-z
4 x,1/2-y,1/2+z
_cell_length_a                   9.8634(19)
_cell_length_b                   29.122(5)
_cell_length_c                   14.701(3)
_cell_angle_alpha                90
_cell_angle_beta                 95.053(8)
_cell_angle_gamma                90
_cell_volume                     4206.33
loop_
_atom_site_label
_atom_site_type_symbol
_atom_site_fract_x
_atom_site_fract_y
_atom_site_fract_z
C1 C -0.2926(3) 0.68618(10) 0.7549(2)
C2 C -0.2069(2) 0.71645(9) 0.69859(19)
C3 C -0.2217(3) 0.71600(10) 0.60621(19)
H1 H -0.2869 0.6970 0.5761
C4 C -0.1107(3) 0.74553(11) 0.74255(19)
H2 H -0.1013 0.7470 0.8060
C5 C 0.2250(2) 0.84964(9) 0.44493(17)
C6 C 0.3212(2) 0.87688(10) 0.39210(17)
C7 C 0.7906(2) 0.97535(9) 0.51383(16)
C8 C 0.6846(2) 0.99382(9) 0.45672(19)
H3 H 0.6578 1.0241 0.4642
C9 C 0.6202(3) 0.96744(10) 0.38983(19)
H4 H 0.5506 0.9808 0.3519
C10 C 1.3199(3) 0.97107(10) 1.03145(19)
C11 C 0.1759(2) 0.86794(9) 0.52225(18)
H5 H 0.2009 0.8975 0.5407
C12 C -0.0416(3) 0.77175(10) 0.59906(18)
C13 C 0.0481(2) 0.79926(9) 0.54484(18)
C14 C 1.1117(3) 1.04411(10) 0.86131(19)
C15 C -0.1412(3) 0.74333(11) 0.5558(2)
H6 H -0.1537 0.7427 0.4924
C16 C 0.1859(3) 0.80572(10) 0.41736(18)
H7 H 0.2187 0.7928 0.3657
C17 C 0.9612(3) 0.99176(10) 0.64356(19)
C18 C 0.9864(3) 1.07374(10) 0.69624(19)
H8 H 0.9451 1.0839 0.6405
C19 C 1.0044(2) 1.02729(10) 0.71177(17)
C20 C 1.0287(3) 1.10474(11) 0.7622(2)
H9 H 1.0152 1.1359 0.7514
C21 C 0.0897(2) 0.84263(9) 0.57262(18)
H10 H 0.0597 0.8550 0.6256
C22 C 1.0917(3) 1.09025(12) 0.8451(2)
H11 H 1.1204 1.1116 0.8897
C23 C 1.0696(3) 1.01327(10) 0.79423(18)
H12 H 1.0854 0.9821 0.8044
C24 C 1.3486(3) 0.95373(11) 1.18925(19)
H13 H 1.3217 0.9585 1.2476
C25 C 0.0988(3) 0.78140(10) 0.46666(19)
H14 H 0.0726 0.7520 0.4474
C26 C -0.0297(3) 0.77205(11) 0.6929(2)
H15 H 0.0354 0.7909 0.7236
C27 C 0.8241(3) 0.93043(10) 0.4980(2)
H16 H 0.8955 0.9166 0.5334
C28 C 1.2815(3) 0.97719(11) 1.11874(19)
H17 H 1.2107 0.9971 1.1293
C29 C 1.4264(3) 0.94132(12) 1.0218(2)
H18 H 1.4570 0.9367 0.9644
C30 C 0.7530(3) 0.90623(10) 0.43057(19)
H19 H 0.7769 0.8757 0.4224
C31 C 1.4874(3) 0.91855(11) 1.09564(18)
H20 H 1.5576 0.8982 1.0866
C32 C 1.1743(4) 1.02969(12) 0.9531(2)
N1 N 0.65092(18) 0.92362(7) 0.37542(13)
N2 N 0.8531(2) 1.00316(8) 0.58225(15)
H21 H 0.825(3) 1.0321(5) 0.592(2)
N3 N 1.2554(3) 0.99219(10) 0.95404(17)
H22 H 1.283(4) 0.9754(12) 0.9085(19)
N4 N 1.45095(19) 0.92411(8) 1.18015(14)
O1 O 0.32738(16) 0.91920(6) 0.40060(11)
O2 O 0.39272(17) 0.85342(6) 0.34150(12)
O3 O -0.2858(2) 0.69111(8) 0.83837(15)
O4 O -0.36439(18) 0.65661(7) 0.71105(13)
O5 O 1.1560(4) 1.05116(11) 1.02060(18)
O6 O 1.0185(2) 0.95457(8) 0.64202(16)
Zn1 Zn 0.53712(3) 0.884685(10) 0.284139(19)
N4_2 N 0.45095(19) 0.92411(8) 0.18015(14)
O4C O 0.63561(18) 0.84339(7) 0.21105(13)
Zn1_2 Zn 1.53712(3) 0.884685(10) 1.284139(19)
Zn1C Zn -0.46288(3) 0.615315(10) 0.784139(19)
loop_
_geom_bond_atom_site_label_1
_geom_bond_atom_site_label_2
_geom_bond_site_symmetry_1
_geom_bond_site_symmetry_2
C1 C2 1_555 1_555
C2 C3 1_555 1_555
C3 H1 1_555 1_555
C4 C2 1_555 1_555
H2 C4 1_555 1_555
C5 C6 1_555 1_555
C6 O1 1_555 1_555
C7 C8 1_555 1_555
C8 H3 1_555 1_555
C9 C8 1_555 1_555
H4 C9 1_555 1_555
C10 C28 1_555 1_555
C11 C5 1_555 1_555
H5 C11 1_555 1_555
C12 C13 1_555 1_555
C13 C21 1_555 1_555
C14 C22 1_555 1_555
C15 C3 1_555 1_555
H6 C15 1_555 1_555
C16 C5 1_555 1_555
H7 C16 1_555 1_555
C17 C19 1_555 1_555
C18 H8 1_555 1_555
C19 C18 1_555 1_555
C20 C18 1_555 1_555
H9 C20 1_555 1_555
C21 C11 1_555 1_555
H10 C21 1_555 1_555
C22 C20 1_555 1_555
H11 C22 1_555 1_555
C23 C14 1_555 1_555
H12 C23 1_555 1_555
C24 H13 1_555 1_555
C25 C13 1_555 1_555
H14 C25 1_555 1_555
C26 C4 1_555 1_555
H15 C26 1_555 1_555
C27 C7 1_555 1_555
H16 C27 1_555 1_555
C28 C24 1_555 1_555
H17 C28 1_555 1_555
C29 C10 1_555 1_555
H18 C29 1_555 1_555
C30 C27 1_555 1_555
H19 C30 1_555 1_555
C31 C29 1_555 1_555
H20 C31 1_555 1_555
C32 C14 1_555 1_555
N1 C9 1_555 1_555
N2 C7 1_555 1_555
H21 N2 1_555 1_555
N3 C10 1_555 1_555
H22 N3 1_555 1_555
N4 C24 1_555 1_555
O2 C6 1_555 1_555
O3 C1 1_555 1_555
O4 C1 1_555 1_555
O5 C32 1_555 1_555
O6 C17 1_555 1_555
Zn1 N1 1_555 1_555
N4_2 Zn1 1_555 1_555
O4C Zn1 1_555 1_555
Zn1_2 N4 1_555 1_555
Zn1C O4 1_555 1_555
C12 C15 1_555 1_555
C12 C26 1_555 1_555
C16 C25 1_555 1_555
C17 N2 1_555 1_555
C19 C23 1_555 1_555
C30 N1 1_555 1_555
C31 N4 1_555 1_555
C32 N3 1_555 1_555
O2 Zn1 1_555 1_555

#END
