
#######################################################################
#
#                 Cambridge Crystallographic Data Centre
#                                CCDC 
#
#######################################################################
#
# If this CIF has been generated from an entry in the Cambridge 
# Structural Database, then it will include bibliographic, chemical, 
# crystal, experimental, refinement or atomic coordinate data resulting 
# from the CCDC's data processing and validation procedures.
#
#######################################################################

data_XILSIU
_symmetry_cell_setting           monoclinic
_symmetry_space_group_name_H-M   'P 21/c'
_symmetry_Int_Tables_number      14
_space_group_name_Hall           '-P 2ybc'
loop_
_symmetry_equiv_pos_site_id
_symmetry_equiv_pos_as_xyz
1 x,y,z
2 x,1/2-y,1/2+z
3 -x,-y,-z
4 -x,1/2+y,1/2-z
_cell_length_a                   14.240(3)
_cell_length_b                   9.1260(18)
_cell_length_c                   8.1013(16)
_cell_angle_alpha                90
_cell_angle_beta                 92.93(3)
_cell_angle_gamma                90
_cell_volume                     1051.42
loop_
_atom_site_label
_atom_site_type_symbol
_atom_site_fract_x
_atom_site_fract_y
_atom_site_fract_z
Ag1 Ag 0.121427(15) 0.48161(3) 0.39034(3)
S1 S 0.30354(5) 0.48149(7) 0.47451(8)
S2 S 0.18732(4) 0.65216(7) 0.15354(8)
S3 S 0.46895(5) 0.48327(8) 0.26221(9)
S4 S 0.36662(5) 0.62098(9) -0.02151(9)
C1 C 0.3348(2) 0.2908(3) 0.4968(4)
H1 H 0.4006 0.2827 0.5278
H2 H 0.3218 0.2411 0.3937
H3 H 0.2987 0.2471 0.5807
C2 C 0.1338(2) 0.5658(4) -0.0289(4)
H4 H 0.1521 0.6172 -0.1255
H5 H 0.0666 0.5687 -0.0239
H6 H 0.1543 0.4658 -0.0340
C3 C 0.30230(16) 0.5858(3) 0.1534(3)
C4 C 0.34940(17) 0.5210(3) 0.2835(3)
C5 C 0.46624(18) 0.5214(3) 0.0488(3)
N1 N 0.07084(16) 0.1924(2) 0.2102(3)
O1 O 0.14946(16) 0.2396(3) 0.1840(3)
O2 O 0.02102(15) 0.2570(2) 0.3067(3)
O3 O 0.04211(13) 0.0772(2) 0.1405(2)
C5B C 0.53376(18) 0.4786(3) -0.0488(3)
S3B S 0.53105(5) 0.51673(8) -0.26221(9)
C4B C 0.65060(17) 0.4790(3) -0.2835(3)
S1B S 0.69646(5) 0.51851(7) -0.47451(8)
C1B C 0.6652(2) 0.7092(3) -0.4968(4)
H1B H 0.5994 0.7173 -0.5278
H2B H 0.6782 0.7589 -0.3937
H3B H 0.7013 0.7529 -0.5807
C3B C 0.69770(16) 0.4142(3) -0.1534(3)
S2B S 0.81268(4) 0.34784(7) -0.15354(8)
C2B C 0.8662(2) 0.4342(4) 0.0289(4)
H4B H 0.8479 0.3828 0.1255
H5B H 0.9334 0.4313 0.0239
H6B H 0.8457 0.5342 0.0340
S4B S 0.63338(5) 0.37902(9) 0.02151(9)
N1A N 0.07084(16) 0.3076(2) 0.7102(3)
O1A O 0.14946(16) 0.2604(3) 0.6840(3)
O2A O 0.02102(15) 0.2430(2) 0.8067(3)
O3A O 0.04211(13) 0.4228(2) 0.6405(2)
Ag1B Ag 0.878573(15) 0.51839(3) -0.39034(3)
O3C O -0.04211(13) 0.5772(2) 0.3595(2)
Ag1A Ag 0.121427(15) 0.01839(3) -0.10966(3)
Ag1C Ag -0.121427(15) -0.01839(3) 0.10966(3)
Ag1A_2 Ag 0.121427(15) 0.01839(3) 0.89034(3)
Ag1B_2 Ag -0.121427(15) 0.51839(3) 0.60966(3)
O2B O 0.97898(15) 0.7430(2) -0.3067(3)
O3A_2 O 1.04211(13) 0.4228(2) -0.3595(2)
O3C_2 O 0.95789(13) 0.5772(2) -0.6405(2)
loop_
_geom_bond_atom_site_label_1
_geom_bond_atom_site_label_2
_geom_bond_site_symmetry_1
_geom_bond_site_symmetry_2
Ag1 S1 1_555 1_555
S1 C1 1_555 1_555
S2 Ag1 1_555 1_555
S3 C4 1_555 1_555
S4 C3 1_555 1_555
C1 H1 1_555 1_555
H2 C1 1_555 1_555
H3 C1 1_555 1_555
C2 S2 1_555 1_555
H4 C2 1_555 1_555
H5 C2 1_555 1_555
H6 C2 1_555 1_555
C3 S2 1_555 1_555
C4 S1 1_555 1_555
C5 S3 1_555 1_555
N1 O1 1_555 1_555
O2 Ag1 1_555 1_555
O3 N1 1_555 1_555
C5B C5 1_555 1_555
S3B C5B 1_555 1_555
C4B S3B 1_555 1_555
S1B C4B 1_555 1_555
C1B S1B 1_555 1_555
H1B C1B 1_555 1_555
H2B C1B 1_555 1_555
H3B C1B 1_555 1_555
C3B C4B 1_555 1_555
S2B C3B 1_555 1_555
C2B S2B 1_555 1_555
H4B C2B 1_555 1_555
H5B C2B 1_555 1_555
H6B C2B 1_555 1_555
S4B C5B 1_555 1_555
N1A O1A 1_555 1_555
O2A N1A 1_555 1_555
O3A Ag1 1_555 1_555
Ag1B S1B 1_555 1_555
O3C Ag1 1_555 1_555
Ag1A O3 1_555 1_555
Ag1C O3 1_555 1_555
Ag1A_2 O2A 1_555 1_555
Ag1B_2 O3A 1_555 1_555
O2B Ag1B 1_555 1_555
O3A_2 Ag1B 1_555 1_555
O3C_2 Ag1B 1_555 1_555
S4 C5 1_555 1_555
C3 C4 1_555 1_555
N1 O2 1_555 1_555
C3B S4B 1_555 1_555
S2B Ag1B 1_555 1_555
N1A O3A 1_555 1_555
O3C Ag1B_2 1_555 1_555

#END
