
#######################################################################
#
#                 Cambridge Crystallographic Data Centre
#                                CCDC 
#
#######################################################################
#
# If this CIF has been generated from an entry in the Cambridge 
# Structural Database, then it will include bibliographic, chemical, 
# crystal, experimental, refinement or atomic coordinate data resulting 
# from the CCDC's data processing and validation procedures.
#
#######################################################################

data_XILXEX
_symmetry_cell_setting           orthorhombic
_symmetry_space_group_name_H-M   'P 21 21 21'
_symmetry_Int_Tables_number      19
_space_group_name_Hall           'P 2ac 2ab'
loop_
_symmetry_equiv_pos_site_id
_symmetry_equiv_pos_as_xyz
1 x,y,z
2 1/2-x,-y,1/2+z
3 -x,1/2+y,1/2-z
4 1/2+x,1/2-y,-z
_cell_length_a                   5.2567(4)
_cell_length_b                   8.7839(6)
_cell_length_c                   26.5490(19)
_cell_angle_alpha                90
_cell_angle_beta                 90
_cell_angle_gamma                90
_cell_volume                     1225.88
loop_
_atom_site_label
_atom_site_type_symbol
_atom_site_fract_x
_atom_site_fract_y
_atom_site_fract_z
N1 N -0.0460(7) -0.0111(3) 0.06315(10)
H1 H -0.2111 -0.0069 0.0734
Sr1 Sr 0.02609(7) 0.19969(4) 0.242724(12)
Sr2 Sr 0.44577(8) 0.54917(4) 0.151676(12)
P1 P 0.5205(2) 0.42046(10) 0.26525(3)
O1 O 0.2564(5) 0.4665(3) 0.24731(10)
O2 O 0.5182(7) 0.2604(3) 0.28509(10)
O3 O 0.7205(5) 0.4399(3) 0.22473(10)
O4 O 0.6160(6) 0.5375(3) 0.30702(10)
H2 H 0.4928 0.5773 0.3206
O5 O 0.1807(6) 0.3090(3) 0.14721(11)
O6 O -0.2195(6) 0.1546(3) 0.14906(11)
O7 O -0.2055(6) 0.3955(3) 0.09785(10)
H3 H -0.1072 0.4571 0.0852
O8 O -0.3026(6) -0.2430(4) 0.10221(11)
O9 O -0.0005(6) -0.3109(3) 0.15697(9)
O10 O -0.4556(7) 0.0334(4) 0.00956(10)
O11 O -0.2970(6) -0.0498(3) -0.06269(10)
P2 P -0.0494(2) 0.25547(10) 0.11927(3)
C1 C -0.0491(9) -0.0776(4) 0.01118(13)
H4 H -0.0474 -0.1879 0.0131
H5 H 0.1006 -0.0450 -0.0072
C2 C -0.2878(8) -0.0243(5) -0.01589(14)
C3 C 0.0482(10) 0.1499(4) 0.06263(13)
H6 H -0.0174 0.2013 0.0330
H7 H 0.2324 0.1497 0.0604
C4 C 0.0890(9) -0.1088(4) 0.10044(14)
H8 H 0.1515 -0.0462 0.1279
H9 H 0.2341 -0.1569 0.0844
C5 C -0.0882(9) -0.2309(4) 0.12124(14)
Sr1_2 Sr 1.02609(7) 0.19969(4) 0.242724(12)
Sr1B Sr -0.02609(7) -0.30031(4) 0.257276(12)
Sr1B_2 Sr -0.02609(7) 0.69969(4) 0.257276(12)
Sr1B_3 Sr 0.97391(7) 0.69969(4) 0.257276(12)
Sr2_2 Sr -0.55423(8) -0.45083(4) 0.151676(12)
Sr2_3 Sr -0.55423(8) 0.54917(4) 0.151676(12)
Sr2_4 Sr 0.44577(8) -0.45083(4) 0.151676(12)
Sr2B Sr 0.55423(8) 0.04917(4) 0.348324(12)
Sr2C Sr -0.05423(8) -0.04917(4) -0.151676(12)
O1B O -0.2564(5) -0.0335(3) 0.25269(10)
O2_2 O -0.4818(7) 0.2604(3) 0.28509(10)
O2B O 0.4818(7) 0.7604(3) 0.21491(10)
O3_2 O -0.2795(5) 0.4399(3) 0.22473(10)
O3B O 0.2795(5) -0.0601(3) 0.27527(10)
O4B O 0.3840(6) 0.0375(3) 0.19298(10)
O7_2 O 0.7945(6) 0.3955(3) 0.09785(10)
O8_2 O 0.6974(6) 0.7570(4) 0.10221(11)
O9_2 O -0.0005(6) 0.6891(3) 0.15697(9)
O9B O 0.0005(6) 0.1891(3) 0.34303(9)
O11C O 0.2030(6) 0.5498(3) 0.06269(10)
loop_
_geom_bond_atom_site_label_1
_geom_bond_atom_site_label_2
_geom_bond_site_symmetry_1
_geom_bond_site_symmetry_2
N1 H1 1_555 1_555
Sr1 O1 1_555 1_555
Sr2 O1 1_555 1_555
P1 O1 1_555 1_555
O1 Sr1B_2 1_555 1_555
O2 Sr1 1_555 1_555
O3 Sr2 1_555 1_555
O4 P1 1_555 1_555
H2 O4 1_555 1_555
O5 Sr1 1_555 1_555
O6 Sr1 1_555 1_555
O7 H3 1_555 1_555
O8 C5 1_555 1_555
O9 C5 1_555 1_555
O10 C2 1_555 1_555
O11 C2 1_555 1_555
P2 O5 1_555 1_555
C1 N1 1_555 1_555
H4 C1 1_555 1_555
H5 C1 1_555 1_555
C2 C1 1_555 1_555
C3 N1 1_555 1_555
H6 C3 1_555 1_555
H7 C3 1_555 1_555
C4 N1 1_555 1_555
H8 C4 1_555 1_555
H9 C4 1_555 1_555
C5 C4 1_555 1_555
Sr1_2 O2 1_555 1_555
Sr1B O9 1_555 1_555
Sr1B_2 O2B 1_555 1_555
Sr1B_3 O3 1_555 1_555
Sr2_2 O8 1_555 1_555
Sr2_3 O7 1_555 1_555
Sr2_4 O9 1_555 1_555
Sr2B O2 1_555 1_555
Sr2C O11 1_555 1_555
O1B Sr1 1_555 1_555
O2_2 Sr1 1_555 1_555
O2B Sr2 1_555 1_555
O3_2 Sr1 1_555 1_555
O3B Sr1 1_555 1_555
O4B Sr1 1_555 1_555
O7_2 Sr2 1_555 1_555
O8_2 Sr2 1_555 1_555
O9_2 Sr2 1_555 1_555
O9B Sr1 1_555 1_555
O11C Sr2 1_555 1_555
Sr2 O5 1_555 1_555
P1 O2 1_555 1_555
P1 O3 1_555 1_555
O3 Sr1_2 1_555 1_555
O4 Sr1B_3 1_555 1_555
O6 P2 1_555 1_555
O7 P2 1_555 1_555
P2 C3 1_555 1_555
Sr1B O1B 1_555 1_555
Sr1B O3B 1_555 1_555
Sr1B_2 O3_2 1_555 1_555
Sr1B_2 O9_2 1_555 1_555
Sr1B_3 O2B 1_555 1_555
Sr2_3 O3_2 1_555 1_555
Sr2B O3B 1_555 1_555

#END
