
#######################################################################
#
#                 Cambridge Crystallographic Data Centre
#                                CCDC 
#
#######################################################################
#
# If this CIF has been generated from an entry in the Cambridge 
# Structural Database, then it will include bibliographic, chemical, 
# crystal, experimental, refinement or atomic coordinate data resulting 
# from the CCDC's data processing and validation procedures.
#
#######################################################################

data_XIMPIU
_symmetry_cell_setting           triclinic
_symmetry_space_group_name_H-M   'P -1'
_symmetry_Int_Tables_number      2
_space_group_name_Hall           '-P 1'
loop_
_symmetry_equiv_pos_site_id
_symmetry_equiv_pos_as_xyz
1 x,y,z
2 -x,-y,-z
_cell_length_a                   8.2012(5)
_cell_length_b                   9.8307(6)
_cell_length_c                   10.6233(8)
_cell_angle_alpha                96.321(6)
_cell_angle_beta                 110.761(6)
_cell_angle_gamma                98.653(5)
_cell_volume                     779.287
loop_
_atom_site_label
_atom_site_type_symbol
_atom_site_fract_x
_atom_site_fract_y
_atom_site_fract_z
Zn1 Zn 0.52947(4) 0.16543(3) 0.27589(3)
C1 C 0.7952(4) 0.0170(4) 0.3435(3)
C2 C 0.9550(4) -0.0283(3) 0.4360(3)
H1 H 0.9929 -0.1021 0.3995
C3 C 0.4904(4) 0.3563(3) 0.1080(3)
C4 C 0.5289(4) 0.4436(3) 0.0122(3)
H2 H 0.5995 0.4147 -0.0332
C5 C 0.5208(4) 0.2275(4) 0.5566(3)
H3 H 0.6024 0.1711 0.5892
C6 C 0.4315(5) 0.2847(4) 0.6263(4)
H4 H 0.4405 0.2758 0.7146
C7 C 0.3548(4) 0.3442(4) 0.4259(3)
H5 H 0.2989 0.3851 0.3515
C8 C 0.2083(5) 0.4392(5) 0.5797(4)
H6 H 0.1664 0.3926 0.6417
H7 H 0.2793 0.5301 0.6301
C9 C 0.0589(5) 0.4605(5) 0.4729(4)
H8 H -0.0113 0.3707 0.4189
H9 H 0.0985 0.5137 0.4137
C10 C 0.1531(4) 0.0084(3) 0.2001(3)
H10 H 0.1295 0.0749 0.2570
C11 C 0.0380(4) -0.1077(3) 0.1236(3)
H11 H -0.0781 -0.1367 0.1178
C12 C 0.2881(4) -0.0983(3) 0.0930(3)
H12 H 0.3738 -0.1213 0.0607
C13 C 0.0527(4) -0.3117(3) -0.0342(3)
H13 H 0.1308 -0.3291 -0.0820
H14 H -0.0632 -0.3110 -0.1020
C14 C 0.0349(4) -0.4289(3) 0.0456(3)
H15 H 0.1503 -0.4278 0.1150
H16 H -0.0454 -0.4125 0.0916
O1 O 0.7479(3) 0.1197(3) 0.3971(2)
O2 O 0.7176(3) -0.0454(3) 0.2246(2)
O3 O 0.5927(3) 0.2714(2) 0.1479(2)
O4 O 0.3690(3) 0.3714(3) 0.1469(3)
N1 N 0.4722(3) 0.2657(3) 0.4298(2)
N2 N 0.3260(3) 0.3580(3) 0.5423(3)
N3 N 0.3122(3) 0.0149(3) 0.1820(2)
N4 N 0.1242(3) -0.1758(3) 0.0554(2)
C1A C 1.2048(4) -0.0170(4) 0.6565(3)
C2A C 1.0450(4) 0.0283(3) 0.5640(3)
H1A H 1.0071 0.1021 0.6005
O1A O 1.2521(3) -0.1197(3) 0.6029(2)
O2A O 1.2824(3) 0.0454(3) 0.7754(2)
C3A C 0.5096(4) 0.6437(3) -0.1080(3)
C4A C 0.4711(4) 0.5564(3) -0.0122(3)
H2A H 0.4005 0.5853 0.0332
O3A O 0.4073(3) 0.7286(2) -0.1479(2)
O4A O 0.6310(3) 0.6286(3) -0.1469(3)
C5A C -0.5208(4) 0.7725(4) 0.4434(3)
H3A H -0.6024 0.8289 0.4108
C6A C -0.4315(5) 0.7153(4) 0.3737(4)
H4A H -0.4405 0.7242 0.2854
C7A C -0.3548(4) 0.6558(4) 0.5741(3)
H5A H -0.2989 0.6149 0.6485
C8A C -0.2083(5) 0.5608(5) 0.4203(4)
H6A H -0.1664 0.6074 0.3583
H7A H -0.2793 0.4699 0.3699
C9A C -0.0589(5) 0.5395(5) 0.5271(4)
H8A H 0.0113 0.6293 0.5811
H9A H -0.0985 0.4863 0.5863
N1A N -0.4722(3) 0.7343(3) 0.5702(2)
N2A N -0.3260(3) 0.6420(3) 0.4577(3)
C10A C -0.1531(4) -1.0084(3) -0.2001(3)
H10A H -0.1295 -1.0749 -0.2570
C11A C -0.0380(4) -0.8923(3) -0.1236(3)
H11A H 0.0781 -0.8633 -0.1178
C12A C -0.2881(4) -0.9017(3) -0.0930(3)
H12A H -0.3738 -0.8787 -0.0607
C13A C -0.0527(4) -0.6883(3) 0.0342(3)
H13A H -0.1308 -0.6709 0.0820
H14A H 0.0632 -0.6890 0.1020
C14A C -0.0349(4) -0.5711(3) -0.0456(3)
H15A H -0.1503 -0.5722 -0.1150
H16A H 0.0454 -0.5875 -0.0916
N3A N -0.3122(3) -1.0149(3) -0.1820(2)
N4A N -0.1242(3) -0.8242(3) -0.0554(2)
Zn1A Zn -0.52947(4) -1.16543(3) -0.27589(3)
Zn1A_2 Zn -0.52947(4) 0.83457(3) 0.72411(3)
Zn1A_3 Zn 0.47053(4) 0.83457(3) -0.27589(3)
Zn1A_4 Zn 1.47053(4) -0.16543(3) 0.72411(3)
O1A_2 O -0.7479(3) -1.1197(3) -0.3971(2)
O3A_2 O -0.5927(3) -1.2714(2) -0.1479(2)
N1A_2 N -0.4722(3) -1.2657(3) -0.4298(2)
loop_
_geom_bond_atom_site_label_1
_geom_bond_atom_site_label_2
_geom_bond_site_symmetry_1
_geom_bond_site_symmetry_2
Zn1 O1 1_555 1_555
C1 C2 1_555 1_555
C2 H1 1_555 1_555
C3 C4 1_555 1_555
C4 H2 1_555 1_555
C5 H3 1_555 1_555
C6 C5 1_555 1_555
H4 C6 1_555 1_555
C7 H5 1_555 1_555
C8 H6 1_555 1_555
H7 C8 1_555 1_555
C9 C8 1_555 1_555
H8 C9 1_555 1_555
H9 C9 1_555 1_555
C10 H10 1_555 1_555
C11 C10 1_555 1_555
H11 C11 1_555 1_555
C12 H12 1_555 1_555
C13 H13 1_555 1_555
H14 C13 1_555 1_555
C14 C13 1_555 1_555
H15 C14 1_555 1_555
H16 C14 1_555 1_555
O1 C1 1_555 1_555
O2 C1 1_555 1_555
O3 Zn1 1_555 1_555
O4 C3 1_555 1_555
N1 Zn1 1_555 1_555
N2 C6 1_555 1_555
N3 Zn1 1_555 1_555
N4 C11 1_555 1_555
C1A C2A 1_555 1_555
C2A C2 1_555 1_555
H1A C2A 1_555 1_555
O1A C1A 1_555 1_555
O2A C1A 1_555 1_555
C3A C4A 1_555 1_555
C4A C4 1_555 1_555
H2A C4A 1_555 1_555
O3A C3A 1_555 1_555
O4A C3A 1_555 1_555
C5A H3A 1_555 1_555
C6A C5A 1_555 1_555
H4A C6A 1_555 1_555
C7A H5A 1_555 1_555
C8A H6A 1_555 1_555
H7A C8A 1_555 1_555
C9A C9 1_555 1_555
H8A C9A 1_555 1_555
H9A C9A 1_555 1_555
N1A C5A 1_555 1_555
N2A C6A 1_555 1_555
C10A H10A 1_555 1_555
C11A C10A 1_555 1_555
H11A C11A 1_555 1_555
C12A H12A 1_555 1_555
C13A H13A 1_555 1_555
H14A C13A 1_555 1_555
C14A C14 1_555 1_555
H15A C14A 1_555 1_555
H16A C14A 1_555 1_555
N3A C10A 1_555 1_555
N4A C11A 1_555 1_555
Zn1A N3A 1_555 1_555
Zn1A_2 N1A 1_555 1_555
Zn1A_3 O3A 1_555 1_555
Zn1A_4 O1A 1_555 1_555
O1A_2 Zn1A 1_555 1_555
O3A_2 Zn1A 1_555 1_555
N1A_2 Zn1A 1_555 1_555
C3 O3 1_555 1_555
C5 N1 1_555 1_555
C7 N1 1_555 1_555
C7 N2 1_555 1_555
C8 N2 1_555 1_555
C10 N3 1_555 1_555
C12 N3 1_555 1_555
C12 N4 1_555 1_555
C13 N4 1_555 1_555
C7A N1A 1_555 1_555
C7A N2A 1_555 1_555
C8A C9A 1_555 1_555
C8A N2A 1_555 1_555
C12A N3A 1_555 1_555
C12A N4A 1_555 1_555
C13A C14A 1_555 1_555
C13A N4A 1_555 1_555

#END
