
#######################################################################
#
#                 Cambridge Crystallographic Data Centre
#                                CCDC 
#
#######################################################################
#
# If this CIF has been generated from an entry in the Cambridge 
# Structural Database, then it will include bibliographic, chemical, 
# crystal, experimental, refinement or atomic coordinate data resulting 
# from the CCDC's data processing and validation procedures.
#
#######################################################################

data_XIMSAP
_symmetry_cell_setting           monoclinic
_symmetry_space_group_name_H-M   'P 21/n'
_symmetry_Int_Tables_number      14
_space_group_name_Hall           '-P 2yn'
loop_
_symmetry_equiv_pos_site_id
_symmetry_equiv_pos_as_xyz
1 x,y,z
2 1/2-x,1/2+y,1/2-z
3 -x,-y,-z
4 1/2+x,1/2-y,1/2+z
_cell_length_a                   5.8966(3)
_cell_length_b                   26.4910(16)
_cell_length_c                   9.3632(6)
_cell_angle_alpha                90
_cell_angle_beta                 104.022(2)
_cell_angle_gamma                90
_cell_volume                     1419.01
loop_
_atom_site_label
_atom_site_type_symbol
_atom_site_fract_x
_atom_site_fract_y
_atom_site_fract_z
C1 C 0.1875(5) 0.31055(12) -0.0400(4)
C2 C 0.0003(7) 0.29196(14) 0.0078(5)
H1 H -0.0824 0.3132 0.0560
C3 C -0.0655(7) 0.24193(14) -0.0155(5)
H2 H -0.1927 0.2299 0.0167
C4 C 0.0554(6) 0.20963(12) -0.0860(4)
C5 C 0.2438(7) 0.22861(14) -0.1335(5)
H3 H 0.3260 0.2075 -0.1824
C6 C 0.3108(7) 0.27814(14) -0.1094(5)
H4 H 0.4399 0.2900 -0.1399
C7 C 0.2670(5) 0.36473(13) -0.0096(3)
C8 C -0.0125(6) 0.15492(12) -0.1091(4)
H5 H -0.1776 0.1513 -0.1129
H6 H 0.0128 0.1437 -0.2026
C9 C 0.3775(5) 0.07342(12) 0.1553(3)
C10 C 0.3203(6) 0.09366(12) 0.0152(3)
C11 C 0.0773(6) 0.11927(13) 0.1436(4)
H7 H -0.0462 0.1360 0.1688
C12 C 0.5596(5) 0.03629(11) 0.2261(3)
C13 C 0.4260(6) 0.08574(13) -0.1118(3)
N1 N 0.1246(5) 0.12278(10) 0.0103(3)
N2 N 0.2245(5) 0.08970(11) 0.2342(3)
O1 O 0.4484(5) 0.37775(10) -0.0462(3)
O2 O 0.1495(4) 0.39285(9) 0.0533(3)
O3 O 0.5493(4) 0.01819(9) 0.3461(2)
O4 O 0.7167(4) 0.02479(9) 0.1583(3)
O5 O 0.6264(5) 0.06343(10) -0.0844(3)
O6 O 0.3255(5) 0.10022(11) -0.2350(3)
O7 O -0.0687(5) 0.02293(10) 0.6286(3)
Sr1 Sr 0.26757(4) 0.059218(10) 0.50836(3)
H8 H -0.151(9) 0.043(2) 0.627(6)
H9 H -0.002(9) 0.0137(19) 0.721(6)
H10 H 0.687(12) 0.045(3) 0.016(7)
O1C O -0.0516(5) 0.12225(10) 0.4538(3)
O2C O 0.6495(4) 0.10715(9) 0.5533(3)
O3B O 0.4507(4) -0.01819(9) 0.6539(2)
O6_2 O 0.3255(5) 0.10022(11) 0.7650(3)
O7B O 0.0687(5) -0.02293(10) 0.3714(3)
Sr1_2 Sr 0.26757(4) 0.059218(10) -0.49164(3)
Sr1B Sr -0.26757(4) -0.059218(10) 0.49164(3)
Sr1B_2 Sr 0.73243(4) -0.059218(10) 0.49164(3)
Sr1C Sr -0.23243(4) 0.440782(10) 0.00836(3)
Sr1C_2 Sr 0.76757(4) 0.440782(10) 0.00836(3)
loop_
_geom_bond_atom_site_label_1
_geom_bond_atom_site_label_2
_geom_bond_site_symmetry_1
_geom_bond_site_symmetry_2
C1 C2 1_555 1_555
C2 H1 1_555 1_555
C3 C2 1_555 1_555
H2 C3 1_555 1_555
C4 C3 1_555 1_555
C5 C4 1_555 1_555
H3 C5 1_555 1_555
C6 C1 1_555 1_555
H4 C6 1_555 1_555
C7 C1 1_555 1_555
C8 C4 1_555 1_555
H5 C8 1_555 1_555
H6 C8 1_555 1_555
C9 C10 1_555 1_555
C10 C13 1_555 1_555
C11 H7 1_555 1_555
C12 C9 1_555 1_555
C13 O5 1_555 1_555
N1 C8 1_555 1_555
N2 C9 1_555 1_555
O1 C7 1_555 1_555
O2 C7 1_555 1_555
O3 C12 1_555 1_555
O4 C12 1_555 1_555
O5 H10 1_555 1_555
O6 C13 1_555 1_555
O7 Sr1 1_555 1_555
Sr1 N2 1_555 1_555
H8 O7 1_555 1_555
H9 O7 1_555 1_555
O1C Sr1 1_555 1_555
O2C Sr1 1_555 1_555
O3B Sr1 1_555 1_555
O6_2 Sr1 1_555 1_555
O7B Sr1 1_555 1_555
Sr1_2 O6 1_555 1_555
Sr1B O7 1_555 1_555
Sr1B_2 O3 1_555 1_555
Sr1C O2 1_555 1_555
Sr1C_2 O1 1_555 1_555
C5 C6 1_555 1_555
C10 N1 1_555 1_555
C11 N1 1_555 1_555
C11 N2 1_555 1_555
O3 Sr1 1_555 1_555
O3B Sr1B_2 1_555 1_555
O7B Sr1B 1_555 1_555

#END
