
#######################################################################
#
#                 Cambridge Crystallographic Data Centre
#                                CCDC 
#
#######################################################################
#
# If this CIF has been generated from an entry in the Cambridge 
# Structural Database, then it will include bibliographic, chemical, 
# crystal, experimental, refinement or atomic coordinate data resulting 
# from the CCDC's data processing and validation procedures.
#
#######################################################################

data_XIMWAS
_symmetry_cell_setting           monoclinic
_symmetry_space_group_name_H-M   'P 21/c'
_symmetry_Int_Tables_number      14
_space_group_name_Hall           '-P 2ybc'
loop_
_symmetry_equiv_pos_site_id
_symmetry_equiv_pos_as_xyz
1 x,y,z
2 -x,1/2+y,1/2-z
3 -x,-y,-z
4 x,1/2-y,1/2+z
_cell_length_a                   11.4425(17)
_cell_length_b                   15.209(2)
_cell_length_c                   16.019(2)
_cell_angle_alpha                90
_cell_angle_beta                 107.143(3)
_cell_angle_gamma                90
_cell_volume                     2663.92
loop_
_atom_site_label
_atom_site_type_symbol
_atom_site_fract_x
_atom_site_fract_y
_atom_site_fract_z
Zn1 Zn 1.17887(5) 1.09806(3) 0.17300(3)
Zn2 Zn 1.20876(5) 1.44608(3) 0.37330(3)
O2 O 1.3464(3) 1.3155(2) 0.3150(2)
O3 O 1.3769(5) 1.4236(5) 0.4559(4)
H1 H 1.399(7) 1.386(4) 0.425(4)
H2 H 1.423(6) 1.427(5) 0.507(2)
O4 O 1.2806(3) 1.4478(2) 0.2713(2)
O5 O 1.4156(4) 1.1478(3) 0.2189(3)
O6 O 1.2426(3) 1.2109(2) 0.1498(2)
O7 O 1.7882(3) 1.01954(18) -0.13792(19)
O8 O 1.8258(3) 0.9735(2) -0.00193(19)
O9 O 1.8921(3) 1.05354(18) 0.16590(18)
O10 O 2.0088(3) 1.13697(19) 0.11066(18)
O11 O 1.6207(3) 1.35503(18) 0.0309(2)
N1 N 1.1990(3) 1.0786(2) 0.2992(2)
N2 N 1.1711(3) 1.0158(2) 0.4149(2)
N3 N 1.0086(3) 0.7657(2) 0.6108(2)
N4 N 0.9073(3) 0.6548(2) 0.6428(2)
C1 C 1.3374(4) 1.3796(3) 0.2649(3)
C2 C 1.4047(4) 1.3735(3) 0.1978(3)
C3 C 1.4632(4) 1.4453(3) 0.1766(3)
H3 H 1.4541 1.4999 0.2002
C4 C 1.5353(4) 1.4385(3) 0.1213(3)
H4 H 1.5728 1.4880 0.1067
C5 C 1.5505(4) 1.3575(3) 0.0882(3)
C6 C 1.4935(4) 1.2847(3) 0.1079(3)
H5 H 1.5039 1.2303 0.0846
C7 C 1.4203(4) 1.2925(3) 0.1628(3)
C8 C 1.3545(5) 1.2119(3) 0.1774(3)
C9 C 1.6147(4) 1.2426(3) -0.0736(3)
H6 H 1.5536 1.2732 -0.1144
C10 C 1.6604(4) 1.1652(3) -0.0958(3)
H7 H 1.6299 1.1441 -0.1526
C11 C 1.7501(4) 1.1182(3) -0.0361(3)
C12 C 1.7925(4) 1.0304(3) -0.0591(3)
C13 C 1.9078(4) 1.1093(3) 0.1124(3)
C14 C 1.7988(4) 1.1519(3) 0.0485(3)
C15 C 1.7543(4) 1.2303(3) 0.0706(3)
H8 H 1.7874 1.2537 0.1262
C16 C 1.6614(4) 1.2738(3) 0.0106(3)
C17 C 1.1489(4) 1.0120(3) 0.3279(3)
H9 H 1.1039 0.9679 0.2926
C18 C 1.2407(4) 1.0894(3) 0.4429(3)
H10 H 1.2707 1.1090 0.5002
C19 C 1.2571(4) 1.1275(3) 0.3717(3)
H11 H 1.3010 1.1789 0.3715
C20 C 1.1280(4) 0.9529(2) 0.4659(3)
C21 C 1.0240(4) 0.9065(3) 0.4275(3)
H12 H 0.9790 0.9182 0.3700
C22 C 0.9855(4) 0.8418(3) 0.4744(3)
H13 H 0.9167 0.8081 0.4483
C23 C 1.0512(4) 0.8286(3) 0.5607(3)
C24 C 1.1527(4) 0.8777(3) 0.5996(3)
H14 H 1.1944 0.8692 0.6583
C25 C 1.1931(4) 0.9400(3) 0.5516(3)
H15 H 1.2634 0.9725 0.5771
C26 C 0.9446(4) 0.6920(3) 0.5815(3)
H16 H 0.9290 0.6703 0.5250
C27 C 0.9487(4) 0.7085(3) 0.7152(3)
H17 H 0.9353 0.6989 0.7690
C28 C 1.0106(4) 0.7759(3) 0.6964(3)
H18 H 1.0480 0.8211 0.7339
Zn1B Zn 1.82113(5) 0.90194(3) -0.17300(3)
Zn1_2 Zn 2.17887(5) 1.09806(3) 0.17300(3)
Zn2A Zn 1.79124(5) 0.94608(3) 0.12670(3)
Zn2B Zn 0.79124(5) 0.55392(3) 0.62670(3)
O7B O 1.2118(3) 0.98046(18) 0.13792(19)
O8A O 1.1742(3) 1.4735(2) 0.50193(19)
O9A O 1.1079(3) 1.55354(18) 0.33410(18)
O10_2 O 1.0088(3) 1.13697(19) 0.11066(18)
N4B N 1.0927(3) 1.3452(2) 0.3572(2)
O1 O 0.5004(5) 0.9481(4) 0.8877(4)
loop_
_geom_bond_atom_site_label_1
_geom_bond_atom_site_label_2
_geom_bond_site_symmetry_1
_geom_bond_site_symmetry_2
Zn1 O6 1_555 1_555
Zn2 O3 1_555 1_555
O2 C1 1_555 1_555
O3 H1 1_555 1_555
H2 O3 1_555 1_555
O4 Zn2 1_555 1_555
O5 C8 1_555 1_555
O6 C8 1_555 1_555
O7 C12 1_555 1_555
O8 C12 1_555 1_555
O9 C13 1_555 1_555
O10 C13 1_555 1_555
O11 C5 1_555 1_555
N1 Zn1 1_555 1_555
N2 C17 1_555 1_555
N3 C23 1_555 1_555
N4 C26 1_555 1_555
C1 O4 1_555 1_555
C2 C1 1_555 1_555
C3 C2 1_555 1_555
H3 C3 1_555 1_555
C4 C3 1_555 1_555
H4 C4 1_555 1_555
C5 C4 1_555 1_555
C6 C5 1_555 1_555
H5 C6 1_555 1_555
C7 C2 1_555 1_555
C8 C7 1_555 1_555
C9 H6 1_555 1_555
C10 C9 1_555 1_555
H7 C10 1_555 1_555
C11 C10 1_555 1_555
C12 C11 1_555 1_555
C13 C14 1_555 1_555
C14 C11 1_555 1_555
C15 C14 1_555 1_555
H8 C15 1_555 1_555
C16 O11 1_555 1_555
C17 N1 1_555 1_555
H9 C17 1_555 1_555
C18 N2 1_555 1_555
H10 C18 1_555 1_555
C19 N1 1_555 1_555
H11 C19 1_555 1_555
C20 N2 1_555 1_555
C21 C20 1_555 1_555
H12 C21 1_555 1_555
C22 C21 1_555 1_555
H13 C22 1_555 1_555
C23 C22 1_555 1_555
C24 C23 1_555 1_555
H14 C24 1_555 1_555
C25 C20 1_555 1_555
H15 C25 1_555 1_555
C26 N3 1_555 1_555
H16 C26 1_555 1_555
C27 N4 1_555 1_555
H17 C27 1_555 1_555
C28 N3 1_555 1_555
H18 C28 1_555 1_555
Zn1B O7 1_555 1_555
Zn1_2 O10 1_555 1_555
Zn2A O8 1_555 1_555
Zn2B N4 1_555 1_555
O7B Zn1 1_555 1_555
O8A Zn2 1_555 1_555
O9A Zn2 1_555 1_555
O10_2 Zn1 1_555 1_555
N4B Zn2 1_555 1_555
O9 Zn2A 1_555 1_555
C6 C7 1_555 1_555
C9 C16 1_555 1_555
C15 C16 1_555 1_555
C18 C19 1_555 1_555
C24 C25 1_555 1_555
C27 C28 1_555 1_555

#END
