
#######################################################################
#
#                 Cambridge Crystallographic Data Centre
#                                CCDC 
#
#######################################################################
#
# If this CIF has been generated from an entry in the Cambridge 
# Structural Database, then it will include bibliographic, chemical, 
# crystal, experimental, refinement or atomic coordinate data resulting 
# from the CCDC's data processing and validation procedures.
#
#######################################################################

data_XINFOR
_symmetry_cell_setting           triclinic
_symmetry_space_group_name_H-M   'P -1'
_symmetry_Int_Tables_number      2
_space_group_name_Hall           '-P 1'
loop_
_symmetry_equiv_pos_site_id
_symmetry_equiv_pos_as_xyz
1 x,y,z
2 -x,-y,-z
_cell_length_a                   12.1402(11)
_cell_length_b                   13.1297(15)
_cell_length_c                   14.4735(16)
_cell_angle_alpha                66.912(4)
_cell_angle_beta                 70.538(6)
_cell_angle_gamma                87.659(6)
_cell_volume                     1990.23
loop_
_atom_site_label
_atom_site_type_symbol
_atom_site_fract_x
_atom_site_fract_y
_atom_site_fract_z
U1 U -0.02806(2) 0.02787(2) 0.62208(2)
U2 U 0.09896(2) 0.25518(2) 0.35317(2)
Mg1 Mg 0.0000 0.0000 1.0000
Cl1 Cl -0.03032(16) 0.01692(15) 0.82806(14)
N1 N 0.1042(5) 0.1759(5) 0.5235(5)
N2 N -0.0560(5) 0.1043(4) 0.4534(4)
N3 N 0.1653(5) 0.1157(5) 0.2956(4)
O1 O -0.1906(4) 0.1412(4) 0.6762(4)
O2 O 0.1793(4) 0.0264(4) 0.9186(4)
O3 O -0.0114(4) 0.1724(4) 0.9528(4)
C1 C 0.1889(6) 0.2267(6) 0.5427(5)
C2 C 0.3058(7) 0.2027(6) 0.5151(6)
H1 H 0.3276 0.1475 0.4893
C3 C 0.3898(7) 0.2621(7) 0.5266(7)
H2 H 0.4676 0.2465 0.5069
C4 C 0.3604(8) 0.3428(7) 0.5663(7)
H3 H 0.4174 0.3829 0.5721
C5 C 0.2431(7) 0.3630(6) 0.5975(6)
H4 H 0.2210 0.4156 0.6267
C6 C 0.1599(6) 0.3065(6) 0.5859(6)
H5 H 0.0822 0.3216 0.6074
C7 C -0.1594(6) 0.1057(6) 0.4295(6)
C8 C -0.1552(7) 0.1258(6) 0.3253(6)
H6 H -0.0827 0.1405 0.2709
C9 C -0.2572(7) 0.1240(7) 0.3025(7)
H7 H -0.2519 0.1356 0.2334
C10 C -0.3641(7) 0.1057(7) 0.3791(7)
H8 H -0.4316 0.1080 0.3618
C11 C -0.3732(6) 0.0837(6) 0.4819(6)
H9 H -0.4469 0.0699 0.5345
C12 C -0.2726(6) 0.0820(6) 0.5084(6)
H10 H -0.2801 0.0649 0.5791
C13 C 0.2765(6) 0.1516(6) 0.2183(6)
C14 C 0.2959(6) 0.1769(6) 0.1085(6)
H11 H 0.2355 0.1599 0.0893
C15 C 0.4039(7) 0.2267(6) 0.0299(6)
H12 H 0.4136 0.2449 -0.0415
C16 C 0.4965(7) 0.2493(7) 0.0558(6)
H13 H 0.5679 0.2836 0.0022
C17 C 0.4834(7) 0.2215(7) 0.1602(7)
H14 H 0.5468 0.2351 0.1776
C18 C 0.3745(6) 0.1721(6) 0.2425(6)
H15 H 0.3675 0.1529 0.3134
C19 C -0.1920(7) 0.2551(6) 0.6062(6)
H16 H -0.1823 0.2605 0.5351
H17 H -0.1289 0.3024 0.6010
C20 C -0.3100(6) 0.2901(6) 0.6551(6)
H18 H -0.3687 0.2728 0.6301
H19 H -0.3048 0.3690 0.6397
C21 C -0.3367(7) 0.2193(7) 0.7741(6)
H20 H -0.2934 0.2504 0.8042
H21 H -0.4200 0.2106 0.8145
C22 C -0.2942(7) 0.1114(7) 0.7703(6)
H22 H -0.2757 0.0675 0.8339
H23 H -0.3538 0.0684 0.7658
C23 C 0.2429(7) 0.1213(7) 0.8223(7)
H24 H 0.2323 0.1890 0.8348
H25 H 0.2148 0.1287 0.7648
C24 C 0.3691(7) 0.1012(7) 0.7938(7)
H26 H 0.4196 0.1702 0.7625
H27 H 0.3897 0.0653 0.7440
C25 C 0.3780(7) 0.0260(7) 0.8995(6)
H28 H 0.3848 0.0680 0.9400
H29 H 0.4446 -0.0170 0.8904
C26 C 0.2627(6) -0.0483(7) 0.9537(7)
H30 H 0.2677 -0.1091 0.9308
H31 H 0.2408 -0.0787 1.0309
C27 C -0.0154(9) 0.2307(7) 1.0205(7)
H32 H 0.0635 0.2504 1.0146
H33 H -0.0586 0.1835 1.0947
C28 C -0.0749(9) 0.3329(7) 0.9848(7)
H34 H -0.1433 0.3332 1.0434
H35 H -0.0217 0.3989 0.9595
C29 C -0.1099(8) 0.3304(7) 0.8973(7)
H36 H -0.0998 0.4043 0.8413
H37 H -0.1910 0.2994 0.9236
C30 C -0.0268(8) 0.2558(7) 0.8577(6)
H38 H -0.0602 0.2214 0.8233
H39 H 0.0476 0.2977 0.8069
C31 C -0.0006(7) 0.3795(6) 0.2093(6)
H40 H -0.0534 0.3562 0.1857
C32 C 0.1150(8) 0.3847(6) 0.1466(6)
H41 H 0.1216 0.3704 0.0870
C33 C 0.2251(7) 0.4065(6) 0.1510(6)
H42 H 0.2871 0.4020 0.0944
C34 C 0.2645(7) 0.4340(6) 0.2219(6)
H43 H 0.3458 0.4396 0.2031
C35 C 0.2076(8) 0.4540(6) 0.3127(6)
H44 H 0.2596 0.4687 0.3418
C36 C 0.0909(8) 0.4572(6) 0.3706(6)
H45 H 0.0848 0.4791 0.4258
C37 C -0.0171(7) 0.4367(6) 0.3673(6)
H46 H -0.0784 0.4483 0.4201
C38 C -0.0568(7) 0.4015(7) 0.3013(6)
H47 H -0.1382 0.3905 0.3238
U1A U 0.02806(2) -0.02787(2) 0.37792(2)
U2A U -0.09896(2) -0.25518(2) 0.64683(2)
Cl1A Cl 0.03032(16) -0.01692(15) 0.17194(14)
N1A N -0.1042(5) -0.1759(5) 0.4765(5)
N2A N 0.0560(5) -0.1043(4) 0.5466(4)
N3A N -0.1653(5) -0.1157(5) 0.7044(4)
O1A O 0.1906(4) -0.1412(4) 0.3238(4)
C1A C -0.1889(6) -0.2267(6) 0.4573(5)
C2A C -0.3058(7) -0.2027(6) 0.4849(6)
H1A H -0.3276 -0.1475 0.5107
C3A C -0.3898(7) -0.2621(7) 0.4734(7)
H2A H -0.4676 -0.2465 0.4931
C4A C -0.3604(8) -0.3428(7) 0.4337(7)
H3A H -0.4174 -0.3829 0.4279
C5A C -0.2431(7) -0.3630(6) 0.4025(6)
H4A H -0.2210 -0.4156 0.3733
C6A C -0.1599(6) -0.3065(6) 0.4141(6)
H5A H -0.0822 -0.3216 0.3926
C7A C 0.1594(6) -0.1057(6) 0.5705(6)
C8A C 0.1552(7) -0.1258(6) 0.6747(6)
H6A H 0.0827 -0.1405 0.7291
C9A C 0.2572(7) -0.1240(7) 0.6975(7)
H7A H 0.2519 -0.1356 0.7666
C10A C 0.3641(7) -0.1057(7) 0.6209(7)
H8A H 0.4316 -0.1080 0.6382
C11A C 0.3732(6) -0.0837(6) 0.5181(6)
H9A H 0.4469 -0.0699 0.4655
C12A C 0.2726(6) -0.0820(6) 0.4916(6)
H10A H 0.2801 -0.0649 0.4209
C13A C -0.2765(6) -0.1516(6) 0.7817(6)
C14A C -0.2959(6) -0.1769(6) 0.8915(6)
H11A H -0.2355 -0.1599 0.9107
C15A C -0.4039(7) -0.2267(6) 0.9701(6)
H12A H -0.4136 -0.2449 1.0415
C16A C -0.4965(7) -0.2493(7) 0.9442(6)
H13A H -0.5679 -0.2836 0.9978
C17A C -0.4834(7) -0.2215(7) 0.8398(7)
H14A H -0.5468 -0.2351 0.8224
C18A C -0.3745(6) -0.1721(6) 0.7575(6)
H15A H -0.3675 -0.1529 0.6866
C19A C 0.1920(7) -0.2551(6) 0.3938(6)
H16A H 0.1823 -0.2605 0.4649
H17A H 0.1289 -0.3024 0.3990
C20A C 0.3100(6) -0.2901(6) 0.3449(6)
H18A H 0.3687 -0.2728 0.3699
H19A H 0.3048 -0.3690 0.3603
C21A C 0.3367(7) -0.2193(7) 0.2259(6)
H20A H 0.2934 -0.2504 0.1958
H21A H 0.4200 -0.2106 0.1855
C22A C 0.2942(7) -0.1114(7) 0.2297(6)
H22A H 0.2757 -0.0675 0.1661
H23A H 0.3538 -0.0684 0.2342
C31A C 0.0006(7) -0.3795(6) 0.7907(6)
H40A H 0.0534 -0.3562 0.8143
C32A C -0.1150(8) -0.3847(6) 0.8534(6)
H41A H -0.1216 -0.3704 0.9130
C33A C -0.2251(7) -0.4065(6) 0.8490(6)
H42A H -0.2871 -0.4020 0.9056
C34A C -0.2645(7) -0.4340(6) 0.7781(6)
H43A H -0.3458 -0.4396 0.7969
C35A C -0.2076(8) -0.4540(6) 0.6873(6)
H44A H -0.2596 -0.4687 0.6582
C36A C -0.0909(8) -0.4572(6) 0.6294(6)
H45A H -0.0848 -0.4791 0.5742
C37A C 0.0171(7) -0.4367(6) 0.6327(6)
H46A H 0.0784 -0.4483 0.5799
C38A C 0.0568(7) -0.4015(7) 0.6987(6)
H47A H 0.1382 -0.3905 0.6762
O2A O -0.1793(4) -0.0264(4) 1.0814(4)
C23A C -0.2429(7) -0.1213(7) 1.1777(7)
H24A H -0.2323 -0.1890 1.1652
H25A H -0.2148 -0.1287 1.2352
C24A C -0.3691(7) -0.1012(7) 1.2062(7)
H26A H -0.4196 -0.1702 1.2375
H27A H -0.3897 -0.0653 1.2560
C25A C -0.3780(7) -0.0260(7) 1.1005(6)
H28A H -0.3848 -0.0680 1.0600
H29A H -0.4446 0.0170 1.1096
C26A C -0.2627(6) 0.0483(7) 1.0463(7)
H30A H -0.2677 0.1091 1.0692
H31A H -0.2408 0.0787 0.9691
O3A O 0.0114(4) -0.1724(4) 1.0472(4)
C27A C 0.0154(9) -0.2307(7) 0.9795(7)
H32A H -0.0635 -0.2504 0.9854
H33A H 0.0586 -0.1835 0.9053
C28A C 0.0749(9) -0.3329(7) 1.0152(7)
H34A H 0.1433 -0.3332 0.9566
H35A H 0.0217 -0.3989 1.0405
C29A C 0.1099(8) -0.3304(7) 1.1027(7)
H36A H 0.0998 -0.4043 1.1587
H37A H 0.1910 -0.2994 1.0764
C30A C 0.0268(8) -0.2558(7) 1.1423(6)
H38A H 0.0602 -0.2214 1.1767
H39A H -0.0476 -0.2977 1.1931
Mg1_2 Mg 0.0000 0.0000 0.0000
Cl1A_2 Cl 0.03032(16) -0.01692(15) 1.17194(14)
O4 O 0.6307(7) 0.6113(7) 0.2152(6)
C39 C 0.7267(9) 0.5678(10) 0.1627(10)
H48 H 0.7839 0.5522 0.1986
H49 H 0.7644 0.6203 0.0892
C40 C 0.6788(11) 0.4633(10) 0.1659(11)
H50 H 0.6542 0.4787 0.1049
H51 H 0.7373 0.4107 0.1657
C41 C 0.5769(12) 0.4189(10) 0.2673(11)
H52 H 0.6005 0.3769 0.3283
H53 H 0.5187 0.3734 0.2638
C42 C 0.5337(10) 0.5283(9) 0.2692(11)
H54 H 0.4757 0.5492 0.2342
H55 H 0.4972 0.5207 0.3426
loop_
_geom_bond_atom_site_label_1
_geom_bond_atom_site_label_2
_geom_bond_site_symmetry_1
_geom_bond_site_symmetry_2
U1 Cl1 1_555 1_555
U2 N1 1_555 1_555
Mg1 Cl1 1_555 1_555
N1 U1 1_555 1_555
N2 U1 1_555 1_555
N3 U2 1_555 1_555
O1 U1 1_555 1_555
O2 Mg1 1_555 1_555
O3 Mg1 1_555 1_555
C1 N1 1_555 1_555
C2 C1 1_555 1_555
H1 C2 1_555 1_555
C3 C2 1_555 1_555
H2 C3 1_555 1_555
C4 C3 1_555 1_555
H3 C4 1_555 1_555
C5 C4 1_555 1_555
H4 C5 1_555 1_555
C6 C1 1_555 1_555
H5 C6 1_555 1_555
C7 N2 1_555 1_555
C8 C7 1_555 1_555
H6 C8 1_555 1_555
C9 C8 1_555 1_555
H7 C9 1_555 1_555
C10 C9 1_555 1_555
H8 C10 1_555 1_555
C11 C10 1_555 1_555
H9 C11 1_555 1_555
C12 C7 1_555 1_555
H10 C12 1_555 1_555
C13 N3 1_555 1_555
C14 C13 1_555 1_555
H11 C14 1_555 1_555
C15 C14 1_555 1_555
H12 C15 1_555 1_555
C16 C15 1_555 1_555
H13 C16 1_555 1_555
C17 C16 1_555 1_555
H14 C17 1_555 1_555
C18 C13 1_555 1_555
H15 C18 1_555 1_555
C19 O1 1_555 1_555
H16 C19 1_555 1_555
H17 C19 1_555 1_555
C20 C19 1_555 1_555
H18 C20 1_555 1_555
H19 C20 1_555 1_555
C21 C20 1_555 1_555
H20 C21 1_555 1_555
H21 C21 1_555 1_555
C22 O1 1_555 1_555
H22 C22 1_555 1_555
H23 C22 1_555 1_555
C23 O2 1_555 1_555
H24 C23 1_555 1_555
H25 C23 1_555 1_555
C24 C23 1_555 1_555
H26 C24 1_555 1_555
H27 C24 1_555 1_555
C25 C24 1_555 1_555
H28 C25 1_555 1_555
H29 C25 1_555 1_555
C26 O2 1_555 1_555
H30 C26 1_555 1_555
H31 C26 1_555 1_555
C27 O3 1_555 1_555
H32 C27 1_555 1_555
H33 C27 1_555 1_555
C28 C27 1_555 1_555
H34 C28 1_555 1_555
H35 C28 1_555 1_555
C29 C28 1_555 1_555
H36 C29 1_555 1_555
H37 C29 1_555 1_555
C30 O3 1_555 1_555
H38 C30 1_555 1_555
H39 C30 1_555 1_555
C31 U2 1_555 1_555
H40 C31 1_555 1_555
C32 U2 1_555 1_555
H41 C32 1_555 1_555
C33 U2 1_555 1_555
H42 C33 1_555 1_555
C34 U2 1_555 1_555
H43 C34 1_555 1_555
C35 U2 1_555 1_555
H44 C35 1_555 1_555
C36 U2 1_555 1_555
H45 C36 1_555 1_555
C37 U2 1_555 1_555
H46 C37 1_555 1_555
C38 U2 1_555 1_555
H47 C38 1_555 1_555
O4 C39 1_555 1_555
C39 H48 1_555 1_555
H49 C39 1_555 1_555
C40 C39 1_555 1_555
H50 C40 1_555 1_555
H51 C40 1_555 1_555
C41 C40 1_555 1_555
H52 C41 1_555 1_555
H53 C41 1_555 1_555
C42 O4 1_555 1_555
H54 C42 1_555 1_555
H55 C42 1_555 1_555
U1A N3 1_555 1_555
U2A N1A 1_555 1_555
Cl1A U1A 1_555 1_555
N1A U1A 1_555 1_555
N2A U1A 1_555 1_555
N3A U1 1_555 1_555
O1A U1A 1_555 1_555
C1A N1A 1_555 1_555
C2A C1A 1_555 1_555
H1A C2A 1_555 1_555
C3A C2A 1_555 1_555
H2A C3A 1_555 1_555
C4A C3A 1_555 1_555
H3A C4A 1_555 1_555
C5A C4A 1_555 1_555
H4A C5A 1_555 1_555
C6A C1A 1_555 1_555
H5A C6A 1_555 1_555
C7A N2A 1_555 1_555
C8A C7A 1_555 1_555
H6A C8A 1_555 1_555
C9A C8A 1_555 1_555
H7A C9A 1_555 1_555
C10A C9A 1_555 1_555
H8A C10A 1_555 1_555
C11A C10A 1_555 1_555
H9A C11A 1_555 1_555
C12A C7A 1_555 1_555
H10A C12A 1_555 1_555
C13A N3A 1_555 1_555
C14A C13A 1_555 1_555
H11A C14A 1_555 1_555
C15A C14A 1_555 1_555
H12A C15A 1_555 1_555
C16A C15A 1_555 1_555
H13A C16A 1_555 1_555
C17A C16A 1_555 1_555
H14A C17A 1_555 1_555
C18A C13A 1_555 1_555
H15A C18A 1_555 1_555
C19A O1A 1_555 1_555
H16A C19A 1_555 1_555
H17A C19A 1_555 1_555
C20A C19A 1_555 1_555
H18A C20A 1_555 1_555
H19A C20A 1_555 1_555
C21A C20A 1_555 1_555
H20A C21A 1_555 1_555
H21A C21A 1_555 1_555
C22A O1A 1_555 1_555
H22A C22A 1_555 1_555
H23A C22A 1_555 1_555
C31A U2A 1_555 1_555
H40A C31A 1_555 1_555
C32A U2A 1_555 1_555
H41A C32A 1_555 1_555
C33A U2A 1_555 1_555
H42A C33A 1_555 1_555
C34A U2A 1_555 1_555
H43A C34A 1_555 1_555
C35A U2A 1_555 1_555
H44A C35A 1_555 1_555
C36A U2A 1_555 1_555
H45A C36A 1_555 1_555
C37A U2A 1_555 1_555
H46A C37A 1_555 1_555
C38A U2A 1_555 1_555
H47A C38A 1_555 1_555
O2A Mg1 1_555 1_555
C23A O2A 1_555 1_555
H24A C23A 1_555 1_555
H25A C23A 1_555 1_555
C24A C23A 1_555 1_555
H26A C24A 1_555 1_555
H27A C24A 1_555 1_555
C25A C24A 1_555 1_555
H28A C25A 1_555 1_555
H29A C25A 1_555 1_555
C26A O2A 1_555 1_555
H30A C26A 1_555 1_555
H31A C26A 1_555 1_555
O3A Mg1 1_555 1_555
C27A O3A 1_555 1_555
H32A C27A 1_555 1_555
H33A C27A 1_555 1_555
C28A C27A 1_555 1_555
H34A C28A 1_555 1_555
H35A C28A 1_555 1_555
C29A C28A 1_555 1_555
H36A C29A 1_555 1_555
H37A C29A 1_555 1_555
C30A O3A 1_555 1_555
H38A C30A 1_555 1_555
H39A C30A 1_555 1_555
Mg1_2 Cl1A 1_555 1_555
Cl1A_2 Mg1 1_555 1_555
U2 N2 1_555 1_555
C5 C6 1_555 1_555
C11 C12 1_555 1_555
C17 C18 1_555 1_555
C21 C22 1_555 1_555
C25 C26 1_555 1_555
C29 C30 1_555 1_555
C31 C32 1_555 1_555
C31 C38 1_555 1_555
C32 C33 1_555 1_555
C33 C34 1_555 1_555
C34 C35 1_555 1_555
C35 C36 1_555 1_555
C36 C37 1_555 1_555
C37 C38 1_555 1_555
C41 C42 1_555 1_555
U2A N2A 1_555 1_555
U2A N3A 1_555 1_555
C5A C6A 1_555 1_555
C11A C12A 1_555 1_555
C17A C18A 1_555 1_555
C21A C22A 1_555 1_555
C31A C32A 1_555 1_555
C31A C38A 1_555 1_555
C32A C33A 1_555 1_555
C33A C34A 1_555 1_555
C34A C35A 1_555 1_555
C35A C36A 1_555 1_555
C36A C37A 1_555 1_555
C37A C38A 1_555 1_555
C25A C26A 1_555 1_555
C29A C30A 1_555 1_555

#END
