
#######################################################################
#
#                 Cambridge Crystallographic Data Centre
#                                CCDC 
#
#######################################################################
#
# If this CIF has been generated from an entry in the Cambridge 
# Structural Database, then it will include bibliographic, chemical, 
# crystal, experimental, refinement or atomic coordinate data resulting 
# from the CCDC's data processing and validation procedures.
#
#######################################################################

data_XINFIL
_symmetry_cell_setting           orthorhombic
_symmetry_space_group_name_H-M   'P c a 21'
_symmetry_Int_Tables_number      29
_space_group_name_Hall           'P 2c -2ac'
loop_
_symmetry_equiv_pos_site_id
_symmetry_equiv_pos_as_xyz
1 x,y,z
2 -x,-y,1/2+z
3 1/2+x,-y,z
4 1/2-x,y,1/2+z
_cell_length_a                   15.6706(14)
_cell_length_b                   24.649(2)
_cell_length_c                   16.1080(14)
_cell_angle_alpha                90
_cell_angle_beta                 90
_cell_angle_gamma                90
_cell_volume                     6221.95
loop_
_atom_site_label
_atom_site_type_symbol
_atom_site_fract_x
_atom_site_fract_y
_atom_site_fract_z
Ce1 Ce 0.39043(6) 0.23672(5) 0.42635(6)
Ce2 Ce 0.52840(6) 0.35802(5) 0.47715(6)
Ce3 Ce 0.42459(6) 0.27821(4) 0.64782(6)
Mg1 Mg 0.5738(4) 0.2302(3) 0.5234(4)
I1 I 0.24813(8) 0.27427(5) 0.28249(8)
I2 I 0.48132(8) 0.48626(5) 0.50804(7)
I3 I 0.71116(7) 0.16225(6) 0.52711(8)
N1 N 0.3951(8) 0.3181(7) 0.5166(9)
N2 N 0.5348(9) 0.2678(7) 0.4122(9)
N3 N 0.4494(8) 0.2016(8) 0.5542(8)
N4 N 0.5628(8) 0.2974(7) 0.5978(9)
O1 O 0.4352(8) 0.1514(5) 0.3544(9)
O2 O 0.2717(9) 0.1587(6) 0.4511(11)
O3 O 0.4824(7) 0.3880(6) 0.3313(8)
O4 O 0.6748(7) 0.3848(5) 0.4222(8)
O5 O 0.5160(8) 0.2566(7) 0.7768(10)
O6 O 0.4112(8) 0.3734(6) 0.7110(9)
C1 C 0.3052(9) 0.3306(6) 0.5127(10)
C2 C 0.2748(11) 0.3826(6) 0.4924(12)
H1 H 0.3127 0.4104 0.4798
C3 C 0.1857(11) 0.3921(9) 0.4914(12)
H2 H 0.1655 0.4265 0.4778
C4 C 0.1273(13) 0.3510(10) 0.5103(11)
H3 H 0.0691 0.3580 0.5074
C5 C 0.1566(13) 0.2980(11) 0.5343(13)
H4 H 0.1190 0.2708 0.5505
C6 C 0.2471(10) 0.2893(8) 0.5320(12)
H5 H 0.2681 0.2548 0.5438
C7 C 0.5535(11) 0.2559(9) 0.3305(11)
C8 C 0.6337(12) 0.2271(8) 0.3131(11)
H6 H 0.6725 0.2190 0.3550
C9 C 0.6491(12) 0.2126(9) 0.2306(12)
H7 H 0.7000 0.1950 0.2182
C10 C 0.5943(12) 0.2227(7) 0.1678(10)
H8 H 0.6068 0.2119 0.1138
C11 C 0.5188(11) 0.2494(8) 0.1861(11)
H9 H 0.4797 0.2581 0.1447
C12 C 0.5036(12) 0.2629(9) 0.2696(12)
H10 H 0.4511 0.2788 0.2814
C13 C 0.4360(10) 0.1645(7) 0.6151(10)
C14 C 0.4989(14) 0.1255(9) 0.6429(13)
H11 H 0.5515 0.1245 0.6161
C15 C 0.4852(12) 0.0904(9) 0.7057(13)
H12 H 0.5276 0.0659 0.7207
C16 C 0.4069(13) 0.0908(9) 0.7487(14)
H13 H 0.3951 0.0653 0.7897
C17 C 0.3502(13) 0.1290(9) 0.7282(11)
H14 H 0.3023 0.1339 0.7614
C18 C 0.3607(13) 0.1613(8) 0.6597(11)
H15 H 0.3147 0.1822 0.6422
C19 C 0.6304(12) 0.3304(10) 0.6224(11)
C20 C 0.6189(10) 0.3895(7) 0.6358(10)
H16 H 0.5634 0.4026 0.6400
C21 C 0.6808(11) 0.4241(9) 0.6421(11)
H17 H 0.6691 0.4610 0.6461
C22 C 0.7666(12) 0.4054(9) 0.6429(13)
H18 H 0.8113 0.4298 0.6497
C23 C 0.7829(14) 0.3509(9) 0.6335(10)
H19 H 0.8388 0.3381 0.6339
C24 C 0.7162(12) 0.3159(8) 0.6236(10)
H20 H 0.7291 0.2793 0.6172
C25 C 0.5054(14) 0.1134(10) 0.3800(16)
H21 H 0.4942 0.0998 0.4354
H22 H 0.5593 0.1328 0.3811
C26 C 0.512(2) 0.0666(11) 0.3205(19)
H23 H 0.4753 0.0366 0.3370
H24 H 0.5698 0.0540 0.3141
C27 C 0.4774(16) 0.0957(11) 0.2386(16)
H25 H 0.5225 0.1164 0.2122
H26 H 0.4558 0.0692 0.1993
C28 C 0.4067(12) 0.1325(9) 0.2683(12)
H27 H 0.3531 0.1130 0.2716
H28 H 0.3998 0.1631 0.2311
C29 C 0.3022(14) 0.1031(9) 0.4766(16)
H29 H 0.3556 0.1050 0.5069
H30 H 0.3091 0.0794 0.4290
C30 C 0.2259(14) 0.0837(10) 0.5346(16)
H31 H 0.2461 0.0761 0.5903
H32 H 0.1991 0.0513 0.5123
C31 C 0.1598(15) 0.1341(11) 0.5348(14)
H33 H 0.1013 0.1213 0.5353
H34 H 0.1690 0.1570 0.5829
C32 C 0.1796(15) 0.1663(11) 0.4514(13)
H35 H 0.1525 0.1499 0.4035
H36 H 0.1638 0.2043 0.4552
C33 C 0.4005(12) 0.4139(8) 0.3066(10)
H37 H 0.3932 0.4487 0.3338
H38 H 0.3523 0.3908 0.3201
C34 C 0.4093(17) 0.4207(12) 0.2148(17)
H39 H 0.4010 0.4584 0.1995
H40 H 0.3669 0.3989 0.1862
C35 C 0.4984(12) 0.4023(8) 0.1908(12)
H41 H 0.4965 0.3671 0.1640
H42 H 0.5246 0.4281 0.1533
C36 C 0.5454(12) 0.3993(8) 0.2677(9)
H43 H 0.5742 0.4333 0.2789
H44 H 0.5876 0.3705 0.2654
C37 C 0.7137(12) 0.4352(9) 0.4207(12)
H45 H 0.7206 0.4487 0.4768
H46 H 0.6786 0.4607 0.3900
C38 C 0.8005(13) 0.4295(10) 0.3790(17)
H47 H 0.7969 0.4365 0.3199
H48 H 0.8421 0.4539 0.4035
C39 C 0.8222(12) 0.3724(9) 0.3958(15)
H49 H 0.8500 0.3686 0.4493
H50 H 0.8595 0.3580 0.3530
C40 C 0.7380(12) 0.3441(7) 0.3952(16)
H51 H 0.7247 0.3311 0.3399
H52 H 0.7386 0.3135 0.4330
C41 C 0.6057(11) 0.2397(10) 0.7743(13)
H53 H 0.6433 0.2709 0.7770
H54 H 0.6177 0.2197 0.7237
C42 C 0.618(2) 0.2034(14) 0.851(2)
H55 H 0.6758 0.2050 0.8712
H56 H 0.6030 0.1660 0.8385
C43 C 0.5517(16) 0.2302(11) 0.9148(18)
H57 H 0.5374 0.2062 0.9604
H58 H 0.5715 0.2648 0.9361
C44 C 0.4798(13) 0.2363(11) 0.8537(13)
H59 H 0.4524 0.2015 0.8444
H60 H 0.4376 0.2615 0.8749
C45 C 0.4548(14) 0.3907(8) 0.7840(11)
H61 H 0.5162 0.3881 0.7769
H62 H 0.4380 0.3691 0.8316
C46 C 0.4274(11) 0.4490(7) 0.7943(13)
H63 H 0.4623 0.4730 0.7608
H64 H 0.4313 0.4602 0.8519
C47 C 0.3348(12) 0.4493(8) 0.7645(12)
H65 H 0.3175 0.4853 0.7469
H66 H 0.2964 0.4369 0.8078
C48 C 0.3362(11) 0.4091(10) 0.6902(11)
H67 H 0.2838 0.3882 0.6872
H68 H 0.3448 0.4279 0.6380
Ce3C Ce 0.07541(6) 0.27821(4) 0.14782(6)
I1C I 0.25187(8) 0.27427(5) 0.78249(8)
O7 O 0.0459(13) 0.0346(9) 0.4526(13)
C49 C -0.0253(18) 0.0629(14) 0.4384(19)
H69 H -0.0615 0.0441 0.3989
H70 H -0.0118 0.0985 0.4163
C50 C -0.071(3) 0.0680(17) 0.523(3)
H71 H -0.0434 0.0944 0.5595
H72 H -0.1309 0.0760 0.5182
C51 C -0.0540(14) 0.0113(12) 0.550(2)
H73 H -0.0922 -0.0137 0.5215
H74 H -0.0611 0.0072 0.6091
C52 C 0.0375(13) 0.0016(12) 0.5243(19)
H75 H 0.0767 0.0128 0.5676
H76 H 0.0474 -0.0363 0.5113
loop_
_geom_bond_atom_site_label_1
_geom_bond_atom_site_label_2
_geom_bond_site_symmetry_1
_geom_bond_site_symmetry_2
Ce1 I1 1_555 1_555
Ce2 I2 1_555 1_555
Ce3 N1 1_555 1_555
Mg1 I3 1_555 1_555
I1 Ce3C 1_555 1_555
N1 Ce1 1_555 1_555
N2 Ce1 1_555 1_555
N3 Ce1 1_555 1_555
N4 Ce2 1_555 1_555
O1 Ce1 1_555 1_555
O2 Ce1 1_555 1_555
O3 Ce2 1_555 1_555
O4 Ce2 1_555 1_555
O5 Ce3 1_555 1_555
O6 Ce3 1_555 1_555
C1 N1 1_555 1_555
C2 C1 1_555 1_555
H1 C2 1_555 1_555
C3 C2 1_555 1_555
H2 C3 1_555 1_555
C4 C3 1_555 1_555
H3 C4 1_555 1_555
C5 C4 1_555 1_555
H4 C5 1_555 1_555
C6 C1 1_555 1_555
H5 C6 1_555 1_555
C7 N2 1_555 1_555
C8 C7 1_555 1_555
H6 C8 1_555 1_555
C9 C8 1_555 1_555
H7 C9 1_555 1_555
C10 C9 1_555 1_555
H8 C10 1_555 1_555
C11 C10 1_555 1_555
H9 C11 1_555 1_555
C12 C7 1_555 1_555
H10 C12 1_555 1_555
C13 N3 1_555 1_555
C14 C13 1_555 1_555
H11 C14 1_555 1_555
C15 C14 1_555 1_555
H12 C15 1_555 1_555
C16 C15 1_555 1_555
H13 C16 1_555 1_555
C17 C16 1_555 1_555
H14 C17 1_555 1_555
C18 C13 1_555 1_555
H15 C18 1_555 1_555
C19 N4 1_555 1_555
C20 C19 1_555 1_555
H16 C20 1_555 1_555
C21 C20 1_555 1_555
H17 C21 1_555 1_555
C22 C21 1_555 1_555
H18 C22 1_555 1_555
C23 C22 1_555 1_555
H19 C23 1_555 1_555
C24 C19 1_555 1_555
H20 C24 1_555 1_555
C25 O1 1_555 1_555
H21 C25 1_555 1_555
H22 C25 1_555 1_555
C26 C25 1_555 1_555
H23 C26 1_555 1_555
H24 C26 1_555 1_555
C27 C26 1_555 1_555
H25 C27 1_555 1_555
H26 C27 1_555 1_555
C28 O1 1_555 1_555
H27 C28 1_555 1_555
H28 C28 1_555 1_555
C29 O2 1_555 1_555
H29 C29 1_555 1_555
H30 C29 1_555 1_555
C30 C29 1_555 1_555
H31 C30 1_555 1_555
H32 C30 1_555 1_555
C31 C30 1_555 1_555
H33 C31 1_555 1_555
H34 C31 1_555 1_555
C32 O2 1_555 1_555
H35 C32 1_555 1_555
H36 C32 1_555 1_555
C33 O3 1_555 1_555
H37 C33 1_555 1_555
H38 C33 1_555 1_555
C34 C33 1_555 1_555
H39 C34 1_555 1_555
H40 C34 1_555 1_555
C35 C34 1_555 1_555
H41 C35 1_555 1_555
H42 C35 1_555 1_555
C36 O3 1_555 1_555
H43 C36 1_555 1_555
H44 C36 1_555 1_555
C37 O4 1_555 1_555
H45 C37 1_555 1_555
H46 C37 1_555 1_555
C38 C37 1_555 1_555
H47 C38 1_555 1_555
H48 C38 1_555 1_555
C39 C38 1_555 1_555
H49 C39 1_555 1_555
H50 C39 1_555 1_555
C40 O4 1_555 1_555
H51 C40 1_555 1_555
H52 C40 1_555 1_555
C41 O5 1_555 1_555
H53 C41 1_555 1_555
H54 C41 1_555 1_555
C42 C41 1_555 1_555
H55 C42 1_555 1_555
H56 C42 1_555 1_555
C43 C42 1_555 1_555
H57 C43 1_555 1_555
H58 C43 1_555 1_555
C44 O5 1_555 1_555
H59 C44 1_555 1_555
H60 C44 1_555 1_555
C45 O6 1_555 1_555
H61 C45 1_555 1_555
H62 C45 1_555 1_555
C46 C45 1_555 1_555
H63 C46 1_555 1_555
H64 C46 1_555 1_555
C47 C46 1_555 1_555
H65 C47 1_555 1_555
H66 C47 1_555 1_555
C48 O6 1_555 1_555
H67 C48 1_555 1_555
H68 C48 1_555 1_555
O7 C49 1_555 1_555
C49 H69 1_555 1_555
H70 C49 1_555 1_555
C50 C49 1_555 1_555
H71 C50 1_555 1_555
H72 C50 1_555 1_555
C51 C50 1_555 1_555
H73 C51 1_555 1_555
H74 C51 1_555 1_555
C52 O7 1_555 1_555
H75 C52 1_555 1_555
H76 C52 1_555 1_555
I1C Ce3 1_555 1_555
Ce2 N1 1_555 1_555
Ce2 N2 1_555 1_555
Ce3 N3 1_555 1_555
Ce3 N4 1_555 1_555
Mg1 N2 1_555 1_555
Mg1 N3 1_555 1_555
Mg1 N4 1_555 1_555
C5 C6 1_555 1_555
C11 C12 1_555 1_555
C17 C18 1_555 1_555
C23 C24 1_555 1_555
C27 C28 1_555 1_555
C31 C32 1_555 1_555
C35 C36 1_555 1_555
C39 C40 1_555 1_555
C43 C44 1_555 1_555
C47 C48 1_555 1_555
C51 C52 1_555 1_555

#END
