
#######################################################################
#
#                 Cambridge Crystallographic Data Centre
#                                CCDC 
#
#######################################################################
#
# If this CIF has been generated from an entry in the Cambridge 
# Structural Database, then it will include bibliographic, chemical, 
# crystal, experimental, refinement or atomic coordinate data resulting 
# from the CCDC's data processing and validation procedures.
#
#######################################################################

data_XINHOT
_symmetry_cell_setting           monoclinic
_symmetry_space_group_name_H-M   'C 2/c'
_symmetry_Int_Tables_number      15
_space_group_name_Hall           '-C 2yn'
loop_
_symmetry_equiv_pos_site_id
_symmetry_equiv_pos_as_xyz
1 x,y,z
2 -x,y,1/2-z
3 1/2+x,1/2+y,z
4 1/2-x,1/2+y,1/2-z
5 -x,-y,-z
6 x,-y,1/2+z
7 1/2-x,1/2-y,-z
8 1/2+x,1/2-y,1/2+z
_cell_length_a                   12.3896(2)
_cell_length_b                   21.5760(4)
_cell_length_c                   16.5787(4)
_cell_angle_alpha                90
_cell_angle_beta                 102.157(2)
_cell_angle_gamma                90
_cell_volume                     4332.4
loop_
_atom_site_label
_atom_site_type_symbol
_atom_site_fract_x
_atom_site_fract_y
_atom_site_fract_z
La1 La 0.46799(2) 0.046729(14) 0.59992(2)
O1 O 0.4279(3) -0.06194(18) 0.5130(3)
O2 O 0.3362(5) -0.0434(2) 0.6099(3)
O3 O 0.6221(4) 0.1094(2) 0.6813(3)
O4 O 0.6434(4) 0.0951(3) 0.8145(3)
O5 O 0.3048(5) 0.0538(2) 0.4836(4)
O6 O 0.3660(4) 0.0226(3) 0.3741(4)
O7 O 0.4280(5) 0.1592(2) 0.5526(4)
O8 O 0.5000 -0.0140(4) 0.7500
C1 C 0.3597(5) -0.0783(3) 0.5556(4)
C2 C 0.3075(5) -0.1408(3) 0.5423(4)
C3 C 0.2876(5) -0.2408(3) 0.4756(4)
C4 C 0.8026(5) 0.1172(3) 0.7651(4)
C5 C 0.6797(5) 0.1059(3) 0.7514(4)
C6 C 0.3330(6) -0.1805(3) 0.4867(4)
H1 H 0.3821 -0.1679 0.4545
C7 C 0.8509(5) 0.1213(3) 0.6983(4)
H2 H 0.8072 0.1219 0.6453
C8 C 1.0212(5) 0.1236(4) 0.6419(4)
H3 H 0.9796 0.1261 0.5883
C9 C 0.0224(7) 0.0377(4) 0.1410(5)
H4 H 0.0797 0.0374 0.1127
C10 C 0.2900(6) 0.0378(3) 0.4103(5)
C11 C 0.1740(6) 0.0381(3) 0.3602(5)
C12 C 0.1539(6) 0.0386(3) 0.2772(5)
H5 H 0.2132 0.0390 0.2509
C13 C 0.0441(6) 0.0384(3) 0.2284(5)
C14 C 0.9679(5) 0.1246(3) 0.7097(4)
C15 C 0.2328(7) -0.1589(3) 0.5917(6)
H6 H 0.2134 -0.1315 0.6295
C16 C 0.3105(8) -0.2828(4) 0.4171(6)
H7 H 0.3570 -0.2704 0.3829
C17 C 0.4060(12) 0.2096(7) 0.5710(9)
C18 C 0.3596(18) 0.2943(10) 0.6388(13)
H8 H 0.2808 0.2925 0.6368
H9 H 0.3954 0.3187 0.6860
C19 C 0.3843(19) 0.3183(8) 0.5597(14)
H10 H 0.3254 0.3447 0.5308
H11 H 0.4533 0.3412 0.5696
C20 C 0.8677(6) 0.1190(3) 0.8449(5)
H12 H 0.8339 0.1169 0.8898
C21 C 0.0852(7) 0.0376(3) 0.4003(5)
H13 H 0.1003 0.0371 0.4577
C22 C 0.5000 -0.0795(8) 0.7500
C23 C 0.4666(12) -0.1840(7) 0.7860(8)
H14 H 0.3984 -0.2073 0.7704
H15 H 0.5103 -0.2013 0.8364
N1 N 0.3922(14) 0.2614(6) 0.5141(10)
H16 H 0.3891 0.2589 0.4619
N2 N 0.4126(14) 0.2270(8) 0.6392(11)
H17 H 0.4416 0.2064 0.6828
N3 N 0.4450(9) -0.1191(5) 0.7954(7)
H18 H 0.4022 -0.1057 0.8262
O1F O 0.0721(3) -0.43806(18) 0.4870(3)
O2F O 0.1638(5) -0.4566(2) 0.3901(3)
C1F C 0.1403(5) -0.4217(3) 0.4444(4)
C2F C 0.1925(5) -0.3592(3) 0.4577(4)
C3F C 0.2124(5) -0.2592(3) 0.5244(4)
C6F C 0.1670(6) -0.3195(3) 0.5133(4)
H1F H 0.1179 -0.3321 0.5455
C15F C 0.2672(7) -0.3411(3) 0.4083(6)
H6F H 0.2866 -0.3685 0.3705
C16F C 0.1895(8) -0.2172(4) 0.5829(6)
H7F H 0.1430 -0.2296 0.6171
O3A O 1.3779(4) 0.1094(2) 0.8187(3)
O4A O 1.3566(4) 0.0951(3) 0.6855(3)
C4A C 1.1974(5) 0.1172(3) 0.7349(4)
C5A C 1.3203(5) 0.1059(3) 0.7486(4)
C7A C 1.1491(5) 0.1213(3) 0.8017(4)
H2A H 1.1928 0.1219 0.8547
C8A C 0.9788(5) 0.1236(4) 0.8581(4)
H3A H 1.0204 0.1261 0.9117
C14A C 1.0321(5) 0.1246(3) 0.7903(4)
C20A C 1.1323(6) 0.1190(3) 0.6551(5)
H12A H 1.1661 0.1169 0.6102
O5A O -0.3048(5) 0.0538(2) 0.0164(4)
O6A O -0.3660(4) 0.0226(3) 0.1259(4)
C9A C -0.0224(7) 0.0377(4) 0.3590(5)
H4A H -0.0797 0.0374 0.3873
C10A C -0.2900(6) 0.0378(3) 0.0897(5)
C11A C -0.1740(6) 0.0381(3) 0.1398(5)
C12A C -0.1539(6) 0.0386(3) 0.2228(5)
H5A H -0.2132 0.0390 0.2491
C13A C -0.0441(6) 0.0384(3) 0.2716(5)
C21A C -0.0852(7) 0.0376(3) 0.0997(5)
H13A H -0.1003 0.0371 0.0423
C23A C 0.5334(12) -0.1840(7) 0.7140(8)
H14A H 0.6016 -0.2073 0.7296
H15A H 0.4897 -0.2013 0.6636
N3A N 0.5550(9) -0.1191(5) 0.7046(7)
H18A H 0.5978 -0.1057 0.6738
La1A La -0.46799(2) 0.046729(14) -0.09992(2)
O7A O -0.4280(5) 0.1592(2) -0.0526(4)
C17A C -0.4060(12) 0.2096(7) -0.0710(9)
C18A C -0.3596(18) 0.2943(10) -0.1388(13)
H8A H -0.2808 0.2925 -0.1368
H9A H -0.3954 0.3187 -0.1860
C19A C -0.3843(19) 0.3183(8) -0.0597(14)
H10A H -0.3254 0.3447 -0.0308
H11A H -0.4533 0.3412 -0.0696
N1A N -0.3922(14) 0.2614(6) -0.0141(10)
H16A H -0.3891 0.2589 0.0381
N2A N -0.4126(14) 0.2270(8) -0.1392(11)
H17A H -0.4416 0.2064 -0.1828
La1_2 La 1.46799(2) 0.046729(14) 0.59992(2)
La1A_2 La 0.53201(2) 0.046729(14) 0.90008(2)
La1A_3 La 1.53201(2) 0.046729(14) 0.90008(2)
La1B La -0.03201(2) -0.453271(14) 0.59992(2)
La1D La 0.53201(2) -0.046729(14) 0.40008(2)
La1E La -0.53201(2) -0.046729(14) 0.09992(2)
La1F La 0.03201(2) -0.546729(14) 0.40008(2)
O1A O -0.4279(3) -0.06194(18) -0.0130(3)
O1D O 0.5721(3) 0.06194(18) 0.4870(3)
O1E O -0.5721(3) 0.06194(18) 0.0130(3)
O2A O -0.3362(5) -0.0434(2) -0.1099(3)
O3A_2 O -0.6221(4) 0.1094(2) -0.1813(3)
O4_2 O -0.3566(4) 0.0951(3) -0.1855(3)
O4A_2 O 0.3566(4) 0.0951(3) 0.6855(3)
O6D O 0.6340(4) -0.0226(3) 0.6259(4)
O6E O -0.6340(4) -0.0226(3) -0.1259(4)
O8_2 O -0.5000 -0.0140(4) -0.2500
loop_
_geom_bond_atom_site_label_1
_geom_bond_atom_site_label_2
_geom_bond_site_symmetry_1
_geom_bond_site_symmetry_2
La1 O1 1_555 1_555
O1 C1 1_555 1_555
O2 La1 1_555 1_555
O3 La1 1_555 1_555
O4 C5 1_555 1_555
O5 La1 1_555 1_555
O6 C10 1_555 1_555
O7 La1 1_555 1_555
O8 La1 1_555 1_555
C1 O2 1_555 1_555
C2 C1 1_555 1_555
C3 C6 1_555 1_555
C4 C5 1_555 1_555
C5 O3 1_555 1_555
C6 C2 1_555 1_555
H1 C6 1_555 1_555
C7 C4 1_555 1_555
H2 C7 1_555 1_555
C8 H3 1_555 1_555
C9 H4 1_555 1_555
C10 O5 1_555 1_555
C11 C10 1_555 1_555
C12 C11 1_555 1_555
H5 C12 1_555 1_555
C13 C9 1_555 1_555
C14 C7 1_555 1_555
C15 C2 1_555 1_555
H6 C15 1_555 1_555
C16 C3 1_555 1_555
H7 C16 1_555 1_555
C17 O7 1_555 1_555
C18 H8 1_555 1_555
H9 C18 1_555 1_555
C19 C18 1_555 1_555
H10 C19 1_555 1_555
H11 C19 1_555 1_555
C20 C4 1_555 1_555
H12 C20 1_555 1_555
C21 C11 1_555 1_555
H13 C21 1_555 1_555
C22 O8 1_555 1_555
C23 H14 1_555 1_555
H15 C23 1_555 1_555
N1 C17 1_555 1_555
H16 N1 1_555 1_555
N2 C17 1_555 1_555
H17 N2 1_555 1_555
N3 C22 1_555 1_555
H18 N3 1_555 1_555
O1F C1F 1_555 1_555
O2F C1F 1_555 1_555
C1F C2F 1_555 1_555
C2F C6F 1_555 1_555
C3F C3 1_555 1_555
C6F C3F 1_555 1_555
H1F C6F 1_555 1_555
C15F C16 1_555 1_555
H6F C15F 1_555 1_555
C16F C15 1_555 1_555
H7F C16F 1_555 1_555
O3A C5A 1_555 1_555
O4A C5A 1_555 1_555
C4A C5A 1_555 1_555
C7A C4A 1_555 1_555
H2A C7A 1_555 1_555
C8A C20 1_555 1_555
H3A C8A 1_555 1_555
C14A C14 1_555 1_555
C20A C8 1_555 1_555
H12A C20A 1_555 1_555
O5A C10A 1_555 1_555
O6A C10A 1_555 1_555
C9A C21 1_555 1_555
H4A C9A 1_555 1_555
C10A C11A 1_555 1_555
C11A C12A 1_555 1_555
C12A H5A 1_555 1_555
C13A C13 1_555 1_555
C21A C9 1_555 1_555
H13A C21A 1_555 1_555
C23A C23 1_555 1_555
H14A C23A 1_555 1_555
H15A C23A 1_555 1_555
N3A C22 1_555 1_555
H18A N3A 1_555 1_555
La1A O5A 1_555 1_555
O7A La1A 1_555 1_555
C17A O7A 1_555 1_555
C18A H8A 1_555 1_555
H9A C18A 1_555 1_555
C19A C18A 1_555 1_555
H10A C19A 1_555 1_555
H11A C19A 1_555 1_555
N1A C17A 1_555 1_555
H16A N1A 1_555 1_555
N2A C17A 1_555 1_555
H17A N2A 1_555 1_555
La1_2 O4A 1_555 1_555
La1A_2 O4 1_555 1_555
La1A_3 O3A 1_555 1_555
La1B O1F 1_555 1_555
La1D O1 1_555 1_555
La1E O6A 1_555 1_555
La1F O1F 1_555 1_555
O1A La1A 1_555 1_555
O1D La1 1_555 1_555
O1E La1A 1_555 1_555
O2A La1A 1_555 1_555
O3A_2 La1A 1_555 1_555
O4_2 La1A 1_555 1_555
O4A_2 La1 1_555 1_555
O6D La1 1_555 1_555
O6E La1A 1_555 1_555
O8_2 La1A 1_555 1_555
O6 La1D 1_555 1_555
O8 La1A_2 1_555 1_555
C8 C14 1_555 1_555
C12 C13 1_555 1_555
C18 N2 1_555 1_555
C19 N1 1_555 1_555
C23 N3 1_555 1_555
O2F La1F 1_555 1_555
C2F C15F 1_555 1_555
C3F C16F 1_555 1_555
C4A C20A 1_555 1_555
C7A C14A 1_555 1_555
C8A C14A 1_555 1_555
C9A C13A 1_555 1_555
C11A C21A 1_555 1_555
C12A C13A 1_555 1_555
C23A N3A 1_555 1_555
C18A N2A 1_555 1_555
C19A N1A 1_555 1_555
La1D O1D 1_555 1_555
La1E O1A 1_555 1_555
La1E O1E 1_555 1_555

#END
