
#######################################################################
#
#                 Cambridge Crystallographic Data Centre
#                                CCDC 
#
#######################################################################
#
# If this CIF has been generated from an entry in the Cambridge 
# Structural Database, then it will include bibliographic, chemical, 
# crystal, experimental, refinement or atomic coordinate data resulting 
# from the CCDC's data processing and validation procedures.
#
#######################################################################

data_XINJUA01
_symmetry_cell_setting           monoclinic
_symmetry_space_group_name_H-M   'P 21/c'
_symmetry_Int_Tables_number      14
_space_group_name_Hall           '-P 2ybc'
loop_
_symmetry_equiv_pos_site_id
_symmetry_equiv_pos_as_xyz
1 x,y,z
2 -x,1/2+y,1/2-z
3 -x,-y,-z
4 x,1/2-y,1/2+z
_cell_length_a                   7.5771(15)
_cell_length_b                   7.3996(15)
_cell_length_c                   15.367(3)
_cell_angle_alpha                90
_cell_angle_beta                 97.66(3)
_cell_angle_gamma                90
_cell_volume                     853.901
loop_
_atom_site_label
_atom_site_type_symbol
_atom_site_fract_x
_atom_site_fract_y
_atom_site_fract_z
Cu1 Cu 1.0000 0.0000 1.0000
K1 K 0.54489(9) 0.05001(8) 0.74000(4)
O1 O 0.8491(3) 0.0872(2) 0.89500(12)
O2 O 0.6775(3) 0.3219(2) 0.84685(12)
O3 O 0.5139(3) 0.3399(3) 0.61108(14)
O4 O 0.7287(3) 0.7769(3) 1.19882(11)
O5 O 0.7235(3) 0.8703(2) 1.05933(12)
N1 N 0.9356(3) 0.2318(3) 1.05049(13)
C1 C 0.7776(4) 0.2424(3) 0.90408(17)
C2 C 0.8234(4) 0.3290(3) 0.99297(17)
C3 C 0.9874(4) 0.3002(4) 1.13042(16)
H1 H 1.0651 0.2339 1.1702
C4 C 0.8152(4) 0.5697(4) 1.09621(17)
C5 C 0.7505(3) 0.7557(4) 1.12055(16)
C6 C 0.9282(4) 0.4673(4) 1.15542(18)
H2 H 0.9641 0.5107 1.2118
C7 C 0.7625(4) 0.4976(3) 1.01306(17)
H3 H 0.6871 0.5623 0.9716
H4 H 0.587(5) 0.409(5) 0.597(2)
H5 H 0.434(5) 0.355(5) 0.571(2)
K1B K 0.45511(9) 0.94999(8) 1.26000(4)
O1B O 0.1509(3) 0.9128(2) 1.10500(12)
O2B O 0.3225(3) 0.6781(2) 1.15315(12)
O3B O 0.4861(3) 0.6601(3) 1.38892(14)
O4B O 0.2713(3) 0.2231(3) 0.80118(11)
O5B O 0.2765(3) 0.1297(2) 0.94067(12)
N1B N 0.0644(3) 0.7682(3) 0.94951(13)
C1B C 0.2224(4) 0.7576(3) 1.09592(17)
C2B C 0.1766(4) 0.6710(3) 1.00703(17)
C3B C 0.0126(4) 0.6998(4) 0.86958(16)
H1B H -0.0651 0.7661 0.8298
C4B C 0.1848(4) 0.4303(4) 0.90379(17)
C5B C 0.2495(3) 0.2443(4) 0.87945(16)
C6B C 0.0718(4) 0.5327(4) 0.84458(18)
H2B H 0.0359 0.4893 0.7882
C7B C 0.2375(4) 0.5024(3) 0.98694(17)
H3B H 0.3129 0.4377 1.0284
H4B H 0.413(5) 0.591(5) 1.403(2)
H5B H 0.566(5) 0.645(5) 1.429(2)
Cu1_2 Cu 0.0000 0.0000 1.0000
Cu1_3 Cu 0.0000 1.0000 1.0000
Cu1_4 Cu 1.0000 1.0000 1.0000
K1A K 0.45511(9) 0.55001(8) 0.76000(4)
K1C K 0.54489(9) 0.44999(8) 1.24000(4)
O1B_2 O 1.1509(3) -0.0872(2) 1.10500(12)
O2A O 0.3225(3) -0.1781(2) 0.65315(12)
O2C O 0.6775(3) 1.1781(2) 1.34685(12)
O3A O 0.4861(3) -0.1601(3) 0.88892(14)
O3C O 0.5139(3) 1.1601(3) 1.11108(14)
O4A O 0.2713(3) 1.2769(3) 1.30118(11)
O4C O 0.7287(3) -0.2769(3) 0.69882(11)
O5_2 O 0.7235(3) -0.1297(2) 1.05933(12)
O5B_2 O 1.2765(3) 0.1297(2) 0.94067(12)
N1B_2 N 1.0644(3) -0.2318(3) 0.94951(13)
loop_
_geom_bond_atom_site_label_1
_geom_bond_atom_site_label_2
_geom_bond_site_symmetry_1
_geom_bond_site_symmetry_2
Cu1 O1 1_555 1_555
K1 O1 1_555 1_555
O1 C1 1_555 1_555
O2 K1 1_555 1_555
O3 K1 1_555 1_555
O4 C5 1_555 1_555
O5 C5 1_555 1_555
N1 Cu1 1_555 1_555
C1 O2 1_555 1_555
C2 N1 1_555 1_555
C3 N1 1_555 1_555
H1 C3 1_555 1_555
C4 C5 1_555 1_555
C6 C3 1_555 1_555
H2 C6 1_555 1_555
C7 C2 1_555 1_555
H3 C7 1_555 1_555
H4 O3 1_555 1_555
H5 O3 1_555 1_555
K1B O4 1_555 1_555
O1B K1B 1_555 1_555
O2B K1B 1_555 1_555
O3B K1B 1_555 1_555
O4B K1 1_555 1_555
O5B C5B 1_555 1_555
N1B C2B 1_555 1_555
C1B O1B 1_555 1_555
C2B C1B 1_555 1_555
C3B N1B 1_555 1_555
H1B C3B 1_555 1_555
C4B C5B 1_555 1_555
C5B O4B 1_555 1_555
C6B C3B 1_555 1_555
H2B C6B 1_555 1_555
C7B C2B 1_555 1_555
H3B C7B 1_555 1_555
H4B O3B 1_555 1_555
H5B O3B 1_555 1_555
Cu1_2 O5B 1_555 1_555
Cu1_3 O1B 1_555 1_555
Cu1_4 O5 1_555 1_555
K1A O2 1_555 1_555
K1C O4 1_555 1_555
O1B_2 Cu1 1_555 1_555
O2A K1 1_555 1_555
O2C K1B 1_555 1_555
O3A K1 1_555 1_555
O3C K1B 1_555 1_555
O4A K1B 1_555 1_555
O4C K1 1_555 1_555
O5_2 Cu1 1_555 1_555
O5B_2 Cu1 1_555 1_555
N1B_2 Cu1 1_555 1_555
O3 K1A 1_555 1_555
C1 C2 1_555 1_555
C4 C6 1_555 1_555
C4 C7 1_555 1_555
O2B C1B 1_555 1_555
O2B K1C 1_555 1_555
O3B K1C 1_555 1_555
O4B K1A 1_555 1_555
N1B Cu1_3 1_555 1_555
C4B C6B 1_555 1_555
C4B C7B 1_555 1_555

#END
