
#######################################################################
#
#                 Cambridge Crystallographic Data Centre
#                                CCDC 
#
#######################################################################
#
# If this CIF has been generated from an entry in the Cambridge 
# Structural Database, then it will include bibliographic, chemical, 
# crystal, experimental, refinement or atomic coordinate data resulting 
# from the CCDC's data processing and validation procedures.
#
#######################################################################

data_XINKIP
_symmetry_cell_setting           monoclinic
_symmetry_space_group_name_H-M   'P 21/c'
_symmetry_Int_Tables_number      14
_space_group_name_Hall           '-P 2ybc'
loop_
_symmetry_equiv_pos_site_id
_symmetry_equiv_pos_as_xyz
1 x,y,z
2 -x,1/2+y,1/2-z
3 -x,-y,-z
4 x,1/2-y,1/2+z
_cell_length_a                   4.8473(2)
_cell_length_b                   14.9742(6)
_cell_length_c                   9.3476(4)
_cell_angle_alpha                90
_cell_angle_beta                 103.306(2)
_cell_angle_gamma                90
_cell_volume                     660.276
loop_
_atom_site_label
_atom_site_type_symbol
_atom_site_fract_x
_atom_site_fract_y
_atom_site_fract_z
Cu1 Cu 0.5000 0.5000 1.0000
Mn1 Mn 0.0000 0.5000 1.5000
N1 N 0.4331(5) 0.38182(17) 1.0737(3)
O1 O 0.2422(4) 0.54149(14) 1.1155(2)
O2 O -0.0261(4) 0.49056(14) 1.2613(2)
O3 O 0.7633(4) 0.12931(14) 1.0049(2)
O4 O 0.3827(4) 0.06997(15) 1.0655(3)
C1 C 0.2551(6) 0.3864(2) 1.1664(3)
C2 C 0.1704(6) 0.3109(2) 1.2284(3)
H1 H 0.062(6) 0.3163(19) 1.290(3)
C3 C 0.2643(6) 0.2285(2) 1.1926(3)
H2 H 0.206(6) 0.177(2) 1.228(3)
C4 C 0.4495(6) 0.2239(2) 1.0983(3)
C5 C 0.5318(6) 0.3025(2) 1.0426(3)
H3 H 0.663(6) 0.303(2) 0.974(3)
C6 C 0.1511(6) 0.4798(2) 1.1856(3)
C7 C 0.5403(6) 0.1334(2) 1.0514(3)
Mn1C Mn 1.0000 0.0000 1.0000
Mn1C_2 Mn 0.0000 0.0000 1.0000
Mn1_2 Mn 1.0000 0.5000 0.5000
Mn1C_3 Mn 0.0000 1.0000 1.0000
Mn1C_4 Mn 1.0000 1.0000 1.0000
N1B N 0.5669(5) 0.61818(17) 0.9263(3)
O1B O 0.7578(4) 0.45851(14) 0.8845(2)
O2B O 1.0261(4) 0.50944(14) 0.7387(2)
O2B_2 O 0.0261(4) 0.50944(14) 1.7387(2)
O3B O 0.2367(4) 0.87069(14) 0.9951(2)
O3C O -0.2367(4) 0.37069(14) 1.5049(2)
O3A O 0.2367(4) 0.62931(14) 1.4951(2)
O4B O 0.6173(4) 0.93003(15) 0.9345(3)
O4C O 0.3827(4) 0.43003(15) 1.5655(3)
O4A O -0.3827(4) 0.56997(15) 1.4345(3)
C1B C 0.7449(6) 0.6136(2) 0.8336(3)
C2B C 0.8296(6) 0.6891(2) 0.7716(3)
H1B H 0.938(6) 0.6837(19) 0.710(3)
C3B C 0.7357(6) 0.7715(2) 0.8074(3)
H2B H 0.794(6) 0.823(2) 0.772(3)
C4B C 0.5505(6) 0.7761(2) 0.9017(3)
C5B C 0.4682(6) 0.6975(2) 0.9574(3)
H3B H 0.337(6) 0.697(2) 1.026(3)
C6B C 0.8489(6) 0.5202(2) 0.8144(3)
C7B C 0.4597(6) 0.8666(2) 0.9486(3)
loop_
_geom_bond_atom_site_label_1
_geom_bond_atom_site_label_2
_geom_bond_site_symmetry_1
_geom_bond_site_symmetry_2
Cu1 N1 1_555 1_555
Mn1 O2 1_555 1_555
N1 C1 1_555 1_555
O1 Cu1 1_555 1_555
O2 C6 1_555 1_555
O3 C7 1_555 1_555
O4 C7 1_555 1_555
C1 C2 1_555 1_555
C2 H1 1_555 1_555
C3 C2 1_555 1_555
H2 C3 1_555 1_555
C4 C3 1_555 1_555
C5 N1 1_555 1_555
H3 C5 1_555 1_555
C6 O1 1_555 1_555
C7 C4 1_555 1_555
Mn1C O3 1_555 1_555
Mn1C_2 O4 1_555 1_555
Mn1_2 O2B 1_555 1_555
Mn1C_3 O3B 1_555 1_555
Mn1C_4 O4B 1_555 1_555
N1B Cu1 1_555 1_555
O1B Cu1 1_555 1_555
O2B C6B 1_555 1_555
O2B_2 Mn1 1_555 1_555
O3B C7B 1_555 1_555
O3C Mn1 1_555 1_555
O3A Mn1 1_555 1_555
O4B C7B 1_555 1_555
O4C Mn1 1_555 1_555
O4A Mn1 1_555 1_555
C1B N1B 1_555 1_555
C2B C1B 1_555 1_555
H1B C2B 1_555 1_555
C3B C2B 1_555 1_555
H2B C3B 1_555 1_555
C4B C3B 1_555 1_555
C5B N1B 1_555 1_555
H3B C5B 1_555 1_555
C6B O1B 1_555 1_555
C7B C4B 1_555 1_555
C1 C6 1_555 1_555
C4 C5 1_555 1_555
C1B C6B 1_555 1_555
C4B C5B 1_555 1_555

#END
