
#######################################################################
#
#                 Cambridge Crystallographic Data Centre
#                                CCDC 
#
#######################################################################
#
# If this CIF has been generated from an entry in the Cambridge 
# Structural Database, then it will include bibliographic, chemical, 
# crystal, experimental, refinement or atomic coordinate data resulting 
# from the CCDC's data processing and validation procedures.
#
#######################################################################

data_XINWUM
_symmetry_cell_setting           triclinic
_symmetry_space_group_name_H-M   'P -1'
_symmetry_Int_Tables_number      2
_space_group_name_Hall           '-P 1'
loop_
_symmetry_equiv_pos_site_id
_symmetry_equiv_pos_as_xyz
1 x,y,z
2 -x,-y,-z
_cell_length_a                   8.7294(7)
_cell_length_b                   12.8364(11)
_cell_length_c                   14.2166(12)
_cell_angle_alpha                90.648(10)
_cell_angle_beta                 91.198(10)
_cell_angle_gamma                95.957(10)
_cell_volume                     1583.93
loop_
_atom_site_label
_atom_site_type_symbol
_atom_site_fract_x
_atom_site_fract_y
_atom_site_fract_z
C1 C 0.6509(5) 0.9217(3) 0.0796(3)
C2 C 0.7986(6) 0.9245(4) 0.0412(3)
H1 H 0.8859 0.9637 0.0698
C3 C 0.8086(6) 0.8670(4) -0.0403(3)
H2 H 0.9061 0.8661 -0.0687
C4 C 0.6782(7) 0.8090(4) -0.0833(3)
H3 H 0.6907 0.7711 -0.1399
C5 C 0.5325(6) 0.8059(4) -0.0453(3)
H4 H 0.4450 0.7662 -0.0733
C6 C 0.5236(5) 0.8651(3) 0.0370(3)
C7 C 0.2413(5) 0.8462(3) 0.0891(3)
H5 H 0.1798 0.9065 0.0947
H6 H 0.2167 0.8119 0.0271
C8 C 0.2385(6) 0.6742(3) 0.1475(3)
C9 C 0.1918(5) 0.6079(3) 0.2271(3)
C10 C 0.1176(6) 0.6340(3) 0.3069(3)
H7 H 0.0841 0.7009 0.3185
C11 C 0.0970(6) 0.5498(3) 0.3692(3)
H8 H 0.0491 0.5537 0.4284
C12 C 0.1538(5) 0.4612(3) 0.3352(3)
C13 C 0.1499(5) 0.3600(3) 0.3832(3)
C14 C 0.2095(5) 0.1854(3) 0.3628(3)
H9 H 0.1595 0.1382 0.3131
H10 H 0.1456 0.1784 0.4195
C15 C 0.4446(5) 0.1605(3) 0.4675(3)
C16 C 0.4131(6) 0.1947(3) 0.5584(3)
H11 H 0.3210 0.2247 0.5723
C17 C 0.5245(6) 0.1820(4) 0.6261(3)
H12 H 0.5080 0.2032 0.6890
C18 C 0.6608(6) 0.1391(4) 0.6057(3)
H13 H 0.7330 0.1313 0.6553
C19 C 0.6944(5) 0.1075(3) 0.5156(3)
H14 H 0.7880 0.0794 0.5017
C20 C 0.5807(5) 0.1198(3) 0.4459(3)
N1 N 0.6015(4) 0.9695(3) 0.1593(2)
N2 N 0.4536(4) 0.9461(3) 0.1671(2)
N3 N 0.4037(4) 0.8831(2) 0.0949(2)
N4 N 0.3620(4) 0.1566(3) 0.3844(2)
N5 N 0.4441(4) 0.1189(3) 0.3147(2)
N6 N 0.5751(4) 0.0966(3) 0.3511(2)
O1 O 0.2017(4) 0.7735(2) 0.16235(19)
O2 O 0.3032(5) 0.6475(2) 0.0789(2)
O3 O 0.2217(3) 0.2913(2) 0.33147(18)
O4 O 0.0936(5) 0.3409(3) 0.4573(2)
S1 S 0.23308(14) 0.47989(8) 0.22667(7)
Co1 Co 0.73179(7) 1.05498(4) 0.25897(4)
I1 I 0.86198(3) 1.22568(2) 0.193426(18)
I2 I 0.93068(4) 0.93680(2) 0.32124(3)
Co1_2 Co 0.73179(7) 0.05498(4) 0.25897(4)
N6_2 N 0.5751(4) 1.0966(3) 0.3511(2)
C21 C -0.1470(16) 0.5905(10) 0.0560(9)
H15 H -0.0873 0.6475 0.0234
H16 H -0.2246 0.5551 0.0125
H17 H -0.0777 0.5402 0.0784
C22 C -0.2183(18) 0.6305(11) 0.1309(9)
H22 H -0.1283 0.6699 0.1631
C23 C -0.316(2) 0.6116(14) 0.2088(14)
H23 H -0.4240 0.6160 0.1872
H24 H -0.2902 0.6679 0.2563
C24 C -0.308(2) 0.5107(12) 0.2540(11)
H25 H -0.2012 0.4913 0.2500
C25 C -0.3533(18) 0.5121(12) 0.3574(10)
H27 H -0.2845 0.5661 0.3923
H28 H -0.4601 0.5309 0.3618
C26 C -0.343(2) 0.4059(13) 0.4023(12)
H29 H -0.4123 0.3980 0.4555
H30 H -0.2365 0.4012 0.4247
H31 H -0.3717 0.3502 0.3556
H33 H -0.3023 0.6716 0.1147
H34 H -0.2948 0.4572 0.1768
H18? H -0.1452 0.6277 -0.0039
H19? H -0.1337 0.5166 0.0444
H20? H -0.0631 0.6220 0.0974
H21? H -0.2712 0.6851 0.0987
H26? H -0.3767 0.4565 0.2195
C27? C -0.287(3) 0.598(2) 0.0997(18)
H32? H -0.3750 0.5659 0.0606
C28? C -0.262(3) 0.5311(15) 0.1945(13)
H35? H -0.1493 0.5358 0.2055
C29? C -0.324(2) 0.5457(18) 0.2823(15)
H36? H -0.4191 0.5806 0.2723
H37? H -0.2503 0.5956 0.3182
C30? C -0.362(2) 0.4570(16) 0.3410(12)
H38? H -0.4355 0.4084 0.3032
H39? H -0.2668 0.4223 0.3478
C31? C -0.420(4) 0.459(3) 0.426(2)
H40? H -0.4812 0.3916 0.4374
H41? H -0.4862 0.5156 0.4306
H42? H -0.3361 0.4697 0.4728
loop_
_geom_bond_atom_site_label_1
_geom_bond_atom_site_label_2
_geom_bond_site_symmetry_1
_geom_bond_site_symmetry_2
C1 C2 1_555 1_555
C2 H1 1_555 1_555
C3 C2 1_555 1_555
H2 C3 1_555 1_555
C4 C3 1_555 1_555
H3 C4 1_555 1_555
C5 C4 1_555 1_555
H4 C5 1_555 1_555
C6 C1 1_555 1_555
C7 H5 1_555 1_555
H6 C7 1_555 1_555
C8 C9 1_555 1_555
C9 C10 1_555 1_555
C10 H7 1_555 1_555
C11 C10 1_555 1_555
H8 C11 1_555 1_555
C12 C11 1_555 1_555
C13 C12 1_555 1_555
C14 H9 1_555 1_555
H10 C14 1_555 1_555
C15 C16 1_555 1_555
C16 H11 1_555 1_555
C17 C16 1_555 1_555
H12 C17 1_555 1_555
C18 C17 1_555 1_555
H13 C18 1_555 1_555
C19 C18 1_555 1_555
H14 C19 1_555 1_555
C20 C15 1_555 1_555
N1 C1 1_555 1_555
N2 N1 1_555 1_555
N3 C6 1_555 1_555
N4 C14 1_555 1_555
N5 N4 1_555 1_555
N6 C20 1_555 1_555
O1 C7 1_555 1_555
O2 C8 1_555 1_555
O3 C13 1_555 1_555
O4 C13 1_555 1_555
S1 C9 1_555 1_555
Co1 N1 1_555 1_555
I1 Co1 1_555 1_555
I2 Co1 1_555 1_555
C21 H15 1_555 1_555
H16 C21 1_555 1_555
H17 C21 1_555 1_555
C22 C21 1_555 1_555
H22 C22 1_555 1_555
C23 C22 1_555 1_555
H23 C23 1_555 1_555
H24 C23 1_555 1_555
C24 C23 1_555 1_555
H25 C24 1_555 1_555
C25 C24 1_555 1_555
H27 C25 1_555 1_555
H28 C25 1_555 1_555
C26 C25 1_555 1_555
H29 C26 1_555 1_555
H30 C26 1_555 1_555
H31 C26 1_555 1_555
H33 C22 1_555 1_555
H34 C24 1_555 1_555
Co1_2 N6 1_555 1_555
N6_2 Co1 1_555 1_555
C5 C6 1_555 1_555
C7 N3 1_555 1_555
C8 O1 1_555 1_555
C12 S1 1_555 1_555
C14 O3 1_555 1_555
C15 N4 1_555 1_555
C19 C20 1_555 1_555
N2 N3 1_555 1_555
N5 N6 1_555 1_555

#END
