
#######################################################################
#
#                 Cambridge Crystallographic Data Centre
#                                CCDC 
#
#######################################################################
#
# If this CIF has been generated from an entry in the Cambridge 
# Structural Database, then it will include bibliographic, chemical, 
# crystal, experimental, refinement or atomic coordinate data resulting 
# from the CCDC's data processing and validation procedures.
#
#######################################################################

data_XINYUQ
_symmetry_cell_setting           triclinic
_symmetry_space_group_name_H-M   'P -1'
_symmetry_Int_Tables_number      2
_space_group_name_Hall           '-P 1'
loop_
_symmetry_equiv_pos_site_id
_symmetry_equiv_pos_as_xyz
1 x,y,z
2 -x,-y,-z
_cell_length_a                   9.509(3)
_cell_length_b                   13.774(5)
_cell_length_c                   14.829(5)
_cell_angle_alpha                107.977(4)
_cell_angle_beta                 96.750(4)
_cell_angle_gamma                103.614(4)
_cell_volume                     1757.12
loop_
_atom_site_label
_atom_site_type_symbol
_atom_site_fract_x
_atom_site_fract_y
_atom_site_fract_z
Co1 Co 1.0000 1.0000 0.0000
Co2 Co 1.00806(8) 0.86814(6) 0.17047(5)
N1 N 0.9265(6) 0.6972(4) 0.1124(4)
N2 N 0.8341(7) 0.5320(5) 0.0012(5)
N3 N 0.7716(6) 0.5414(5) 0.0812(4)
N4 N 1.0736(6) 0.8615(5) 0.3080(4)
N5 N 1.1243(9) 0.9238(7) 0.4710(5)
N6 N 1.2248(8) 0.8756(5) 0.4360(4)
O1 O 1.0666(5) 1.0260(4) 0.2383(3)
O2 O 1.0370(5) 1.1121(4) 0.1355(3)
O3 O 1.3148(7) 1.2334(4) 0.5738(4)
O4 O 1.2728(8) 1.3876(5) 0.6439(4)
O5 O 0.7699(5) 0.8616(4) 0.1662(3)
O6 O 0.8733(4) 0.8735(3) 0.0445(3)
O7 O 0.1993(5) 0.8529(4) 0.1224(3)
O8 O 0.1828(5) 0.9544(4) 0.0307(3)
C1 C 1.1140(6) 1.2119(5) 0.3029(4)
C2 C 1.1132(7) 1.3067(5) 0.2866(5)
C3 C 1.1608(8) 1.4034(5) 0.3622(5)
C4 C 1.2077(8) 1.4050(6) 0.4556(5)
C5 C 1.2114(8) 1.3104(5) 0.4715(4)
C6 C 1.1646(7) 1.2133(5) 0.3948(4)
C7 C 1.0670(7) 1.1076(5) 0.2181(4)
C8 C 1.2688(9) 1.3160(6) 0.5715(5)
C9 C 1.1647(9) 1.5083(8) 0.3450(6)
C10 C 1.0947(10) 1.5756(8) 0.4166(6)
H1 H 1.1486 1.5930 0.4812
H2 H 0.9940 1.5365 0.4107
H3 H 1.0969 1.6399 0.4036
C11 C 1.3229(9) 1.5698(8) 0.3586(7)
H4 H 1.3655 1.5332 0.3077
H5 H 1.3769 1.5760 0.4201
H6 H 1.3278 1.6396 0.3570
C12 C 1.0849(10) 1.4917(9) 0.2455(6)
H7 H 1.0878 1.5596 0.2396
H8 H 0.9839 1.4507 0.2353
H9 H 1.1319 1.4542 0.1980
C13 C 0.6127(6) 0.8533(5) 0.0244(4)
C14 C 0.4978(6) 0.8713(5) 0.0693(4)
H10 H 0.5090 0.8868 0.1359
C15 C 0.3650(7) 0.8662(5) 0.0150(4)
C16 C 0.3465(7) 0.8371(5) -0.0850(5)
H11 H 0.2578 0.8348 -0.1207
C17 C 0.4567(7) 0.8114(5) -0.1334(4)
C18 C 0.5924(7) 0.8226(5) -0.0769(4)
H12 H 0.6700 0.8095 -0.1068
C19 C 0.7593(6) 0.8649(5) 0.0821(4)
C20 C 0.2400(6) 0.8933(5) 0.0587(4)
C21 C 0.4821(11) 0.6730(7) -0.2824(6)
H13 H 0.4805 0.6557 -0.3504
H14 H 0.4138 0.6158 -0.2720
H15 H 0.5800 0.6830 -0.2487
C22 C 0.4374(7) 0.7759(6) -0.2438(5)
C23 C 0.5369(9) 0.8620(7) -0.2703(5)
H16 H 0.5025 0.9242 -0.2539
H17 H 0.5349 0.8366 -0.3385
H18 H 0.6363 0.8799 -0.2350
C24 C 0.2792(9) 0.7582(10) -0.2927(6)
H19 H 0.2544 0.8242 -0.2730
H20 H 0.2133 0.7067 -0.2743
H21 H 0.2699 0.7325 -0.3618
C25 C 0.9274(8) 0.6271(6) 0.0256(5)
H22 H 0.9898 0.6452 -0.0141
C26 C 0.8273(7) 0.6380(5) 0.1445(5)
H23 H 0.8008 0.6621 0.2041
C27 C 0.6415(9) 0.4593(6) 0.0778(7)
H24 H 0.6128 0.4770 0.1402
H25 H 0.6637 0.3916 0.0641
C28 C 0.5133(9) 0.4496(7) -0.0012(8)
H26 H 0.5336 0.4154 -0.0640
H27 H 0.4236 0.4034 0.0052
C29 C 1.0364(9) 0.9125(7) 0.3903(5)
H28 H 0.9544 0.9382 0.3905
C30 C 1.1938(9) 0.8405(6) 0.3408(5)
H29 H 1.2493 0.8056 0.3018
C31 C 1.3553(10) 0.8782(7) 0.5011(7)
H30 H 1.3990 0.8245 0.4667
H31 H 1.3245 0.8600 0.5554
C32 C 1.4702(12) 0.9843(9) 0.5391(7)
H32 H 1.4272 1.0380 0.5744
H33 H 1.5508 0.9818 0.5842
N1A N 0.0735(6) 0.3028(4) -0.1124(4)
N2A N 0.1659(7) 0.4680(5) -0.0012(5)
N3A N 0.2284(6) 0.4586(5) -0.0812(4)
C25A C 0.0726(8) 0.3729(6) -0.0256(5)
H22A H 0.0102 0.3548 0.0141
C26A C 0.1727(7) 0.3620(5) -0.1445(5)
H23A H 0.1992 0.3379 -0.2041
C27A C 0.3585(9) 0.5407(6) -0.0778(7)
H24A H 0.3872 0.5230 -0.1402
H25A H 0.3363 0.6084 -0.0641
C28A C 0.4867(9) 0.5504(7) 0.0012(8)
H26A H 0.4664 0.5846 0.0640
H27A H 0.5764 0.5966 -0.0052
N4A N 1.9264(6) 1.1385(5) 0.6920(4)
N5A N 1.8757(9) 1.0762(7) 0.5290(5)
N6A N 1.7752(8) 1.1244(5) 0.5640(4)
C29A C 1.9636(9) 1.0875(7) 0.6097(5)
H28A H 2.0456 1.0618 0.6095
C30A C 1.8062(9) 1.1595(6) 0.6592(5)
H29A H 1.7507 1.1944 0.6982
C31A C 1.6447(10) 1.1218(7) 0.4989(7)
H30A H 1.6010 1.1755 0.5333
H31A H 1.6755 1.1400 0.4446
C32A C 1.5298(12) 1.0157(9) 0.4609(7)
H32A H 1.5728 0.9620 0.4256
H33A H 1.4492 1.0182 0.4158
Co2A Co -0.00806(8) 0.13186(6) -0.17047(5)
O1A O -0.0666(5) -0.0260(4) -0.2383(3)
O2A O -0.0370(5) -0.1121(4) -0.1355(3)
O3A O -0.3148(7) -0.2334(4) -0.5738(4)
O4A O -0.2728(8) -0.3876(5) -0.6439(4)
O5A O 0.2301(5) 0.1384(4) -0.1662(3)
O6A O 0.1267(4) 0.1265(3) -0.0445(3)
O7A O 0.8007(5) 0.1471(4) -0.1224(3)
O8A O 0.8172(5) 0.0456(4) -0.0307(3)
C1A C -0.1140(6) -0.2119(5) -0.3029(4)
C2A C -0.1132(7) -0.3067(5) -0.2866(5)
C3A C -0.1608(8) -0.4034(5) -0.3622(5)
C4A C -0.2077(8) -0.4050(6) -0.4556(5)
C5A C -0.2114(8) -0.3104(5) -0.4715(4)
C6A C -0.1646(7) -0.2133(5) -0.3948(4)
C7A C -0.0670(7) -0.1076(5) -0.2181(4)
C8A C -0.2688(9) -0.3160(6) -0.5715(5)
C9A C -0.1647(9) -0.5083(8) -0.3450(6)
C10A C -0.0947(10) -0.5756(8) -0.4166(6)
H1A H -0.1486 -0.5930 -0.4812
H2A H 0.0060 -0.5365 -0.4107
H3A H -0.0969 -0.6399 -0.4036
C11A C -0.3229(9) -0.5698(8) -0.3586(7)
H4A H -0.3655 -0.5332 -0.3077
H5A H -0.3769 -0.5760 -0.4201
H6A H -0.3278 -0.6396 -0.3570
C12A C -0.0849(10) -0.4917(9) -0.2455(6)
H7A H -0.0878 -0.5596 -0.2396
H8A H 0.0161 -0.4507 -0.2353
H9A H -0.1319 -0.4542 -0.1980
C13A C 0.3873(6) 0.1467(5) -0.0244(4)
C14A C 0.5022(6) 0.1287(5) -0.0693(4)
H10A H 0.4910 0.1132 -0.1359
C15A C 0.6350(7) 0.1338(5) -0.0150(4)
C16A C 0.6535(7) 0.1629(5) 0.0850(5)
H11A H 0.7422 0.1652 0.1207
C17A C 0.5433(7) 0.1886(5) 0.1334(4)
C18A C 0.4076(7) 0.1774(5) 0.0769(4)
H12A H 0.3300 0.1905 0.1068
C19A C 0.2407(6) 0.1351(5) -0.0821(4)
C20A C 0.7600(6) 0.1067(5) -0.0587(4)
C21A C 0.5179(11) 0.3270(7) 0.2824(6)
H13A H 0.5195 0.3443 0.3504
H14A H 0.5862 0.3842 0.2720
H15A H 0.4200 0.3170 0.2487
C22A C 0.5626(7) 0.2241(6) 0.2438(5)
C23A C 0.4631(9) 0.1380(7) 0.2703(5)
H16A H 0.4975 0.0758 0.2539
H17A H 0.4651 0.1634 0.3385
H18A H 0.3637 0.1201 0.2350
C24A C 0.7208(9) 0.2418(10) 0.2927(6)
H19A H 0.7456 0.1758 0.2730
H20A H 0.7867 0.2933 0.2743
H21A H 0.7301 0.2675 0.3618
Co1_2 Co 0.0000 0.0000 0.0000
Co1_3 Co 0.0000 1.0000 0.0000
Co1_4 Co 1.0000 0.0000 0.0000
Co2_2 Co 0.00806(8) 0.86814(6) 0.17047(5)
Co2A_2 Co 0.99194(8) 0.13186(6) -0.17047(5)
Co2A_3 Co 1.99194(8) 1.13186(6) 0.82953(5)
N4A_2 N -0.0736(6) 0.1385(5) -0.3080(4)
O2A_2 O 0.9630(5) 0.8879(4) -0.1355(3)
O6A_2 O 1.1267(4) 1.1265(3) -0.0445(3)
O7_2 O 1.1993(5) 0.8529(4) 0.1224(3)
O7A_2 O -0.1993(5) 0.1471(4) -0.1224(3)
O8_2 O 1.1828(5) 0.9544(4) 0.0307(3)
O8A_2 O 0.8172(5) 1.0456(4) -0.0307(3)
O9 O 0.2895(5) 0.6877(4) 0.1550(4)
H34 H 0.2632 0.7329 0.1368
H35 H 0.2665 0.6291 0.1107
O10 O 0.4228(6) 0.2284(5) 0.7407(4)
H36 H 0.5049 0.2572 0.7778
H37 H 0.3573 0.2109 0.7697
loop_
_geom_bond_atom_site_label_1
_geom_bond_atom_site_label_2
_geom_bond_site_symmetry_1
_geom_bond_site_symmetry_2
Co1 O2 1_555 1_555
Co2 N1 1_555 1_555
N1 C25 1_555 1_555
N2 N3 1_555 1_555
N3 C26 1_555 1_555
N4 Co2 1_555 1_555
N5 N6 1_555 1_555
N6 C30 1_555 1_555
O1 Co2 1_555 1_555
O2 C7 1_555 1_555
O3 C8 1_555 1_555
O4 C8 1_555 1_555
O5 Co2 1_555 1_555
O6 Co1 1_555 1_555
O7 C20 1_555 1_555
O8 C20 1_555 1_555
C1 C2 1_555 1_555
C2 C3 1_555 1_555
C3 C4 1_555 1_555
C4 C5 1_555 1_555
C5 C6 1_555 1_555
C6 C1 1_555 1_555
C7 O1 1_555 1_555
C8 C5 1_555 1_555
C9 C3 1_555 1_555
C10 C9 1_555 1_555
H1 C10 1_555 1_555
H2 C10 1_555 1_555
H3 C10 1_555 1_555
C11 C9 1_555 1_555
H4 C11 1_555 1_555
H5 C11 1_555 1_555
H6 C11 1_555 1_555
C12 C9 1_555 1_555
H7 C12 1_555 1_555
H8 C12 1_555 1_555
H9 C12 1_555 1_555
C13 C14 1_555 1_555
C14 H10 1_555 1_555
C15 C14 1_555 1_555
C16 C15 1_555 1_555
H11 C16 1_555 1_555
C17 C16 1_555 1_555
C18 C13 1_555 1_555
H12 C18 1_555 1_555
C19 O5 1_555 1_555
C20 C15 1_555 1_555
C21 H13 1_555 1_555
H14 C21 1_555 1_555
H15 C21 1_555 1_555
C22 C17 1_555 1_555
C23 C22 1_555 1_555
H16 C23 1_555 1_555
H17 C23 1_555 1_555
H18 C23 1_555 1_555
C24 C22 1_555 1_555
H19 C24 1_555 1_555
H20 C24 1_555 1_555
H21 C24 1_555 1_555
C25 N2 1_555 1_555
H22 C25 1_555 1_555
C26 N1 1_555 1_555
H23 C26 1_555 1_555
C27 N3 1_555 1_555
H24 C27 1_555 1_555
H25 C27 1_555 1_555
C28 C27 1_555 1_555
H26 C28 1_555 1_555
H27 C28 1_555 1_555
C29 N4 1_555 1_555
H28 C29 1_555 1_555
C30 N4 1_555 1_555
H29 C30 1_555 1_555
C31 N6 1_555 1_555
H30 C31 1_555 1_555
H31 C31 1_555 1_555
C32 C31 1_555 1_555
H32 C32 1_555 1_555
H33 C32 1_555 1_555
O9 H34 1_555 1_555
H35 O9 1_555 1_555
O10 H36 1_555 1_555
H37 O10 1_555 1_555
N1A C25A 1_555 1_555
N2A N3A 1_555 1_555
N3A C26A 1_555 1_555
C25A N2A 1_555 1_555
H22A C25A 1_555 1_555
C26A N1A 1_555 1_555
H23A C26A 1_555 1_555
C27A N3A 1_555 1_555
H24A C27A 1_555 1_555
H25A C27A 1_555 1_555
C28A C28 1_555 1_555
H26A C28A 1_555 1_555
H27A C28A 1_555 1_555
N4A C29A 1_555 1_555
N5A N6A 1_555 1_555
N6A C30A 1_555 1_555
C29A N5A 1_555 1_555
H28A C29A 1_555 1_555
C30A N4A 1_555 1_555
H29A C30A 1_555 1_555
C31A N6A 1_555 1_555
H30A C31A 1_555 1_555
H31A C31A 1_555 1_555
C32A C32 1_555 1_555
H32A C32A 1_555 1_555
H33A C32A 1_555 1_555
Co2A N1A 1_555 1_555
O1A Co2A 1_555 1_555
O2A C7A 1_555 1_555
O3A C8A 1_555 1_555
O4A C8A 1_555 1_555
O5A Co2A 1_555 1_555
O6A Co2A 1_555 1_555
O7A C20A 1_555 1_555
O8A C20A 1_555 1_555
C1A C2A 1_555 1_555
C2A C3A 1_555 1_555
C3A C4A 1_555 1_555
C4A C5A 1_555 1_555
C5A C6A 1_555 1_555
C6A C1A 1_555 1_555
C7A O1A 1_555 1_555
C8A C5A 1_555 1_555
C9A C3A 1_555 1_555
C10A C9A 1_555 1_555
H1A C10A 1_555 1_555
H2A C10A 1_555 1_555
H3A C10A 1_555 1_555
C11A C9A 1_555 1_555
H4A C11A 1_555 1_555
H5A C11A 1_555 1_555
H6A C11A 1_555 1_555
C12A C9A 1_555 1_555
H7A C12A 1_555 1_555
H8A C12A 1_555 1_555
H9A C12A 1_555 1_555
C13A C14A 1_555 1_555
C14A H10A 1_555 1_555
C15A C14A 1_555 1_555
C16A C15A 1_555 1_555
H11A C16A 1_555 1_555
C17A C16A 1_555 1_555
C18A C13A 1_555 1_555
H12A C18A 1_555 1_555
C19A O5A 1_555 1_555
C20A C15A 1_555 1_555
C21A H13A 1_555 1_555
H14A C21A 1_555 1_555
H15A C21A 1_555 1_555
C22A C17A 1_555 1_555
C23A C22A 1_555 1_555
H16A C23A 1_555 1_555
H17A C23A 1_555 1_555
H18A C23A 1_555 1_555
C24A C22A 1_555 1_555
H19A C24A 1_555 1_555
H20A C24A 1_555 1_555
H21A C24A 1_555 1_555
Co1_2 O2A 1_555 1_555
Co1_3 O8 1_555 1_555
Co1_4 O8A 1_555 1_555
Co2_2 O7 1_555 1_555
Co2A_2 O7A 1_555 1_555
Co2A_3 N4A 1_555 1_555
N4A_2 Co2A 1_555 1_555
O2A_2 Co1 1_555 1_555
O6A_2 Co1 1_555 1_555
O7_2 Co2 1_555 1_555
O7A_2 Co2A 1_555 1_555
O8_2 Co1 1_555 1_555
O8A_2 Co1 1_555 1_555
Co2 O6 1_555 1_555
N5 C29 1_555 1_555
O6 C19 1_555 1_555
C1 C7 1_555 1_555
C13 C19 1_555 1_555
C17 C18 1_555 1_555
C21 C22 1_555 1_555
C27A C28A 1_555 1_555
C31A C32A 1_555 1_555
O6A C19A 1_555 1_555
O6A Co1_2 1_555 1_555
C1A C7A 1_555 1_555
C13A C19A 1_555 1_555
C17A C18A 1_555 1_555
C21A C22A 1_555 1_555

#END
