
#######################################################################
#
#                 Cambridge Crystallographic Data Centre
#                                CCDC 
#
#######################################################################
#
# If this CIF has been generated from an entry in the Cambridge 
# Structural Database, then it will include bibliographic, chemical, 
# crystal, experimental, refinement or atomic coordinate data resulting 
# from the CCDC's data processing and validation procedures.
#
#######################################################################

data_XINYIE
_symmetry_cell_setting           monoclinic
_symmetry_space_group_name_H-M   'P 21/c'
_symmetry_Int_Tables_number      14
_space_group_name_Hall           '-P 2ybc'
loop_
_symmetry_equiv_pos_site_id
_symmetry_equiv_pos_as_xyz
1 x,y,z
2 -x,1/2+y,1/2-z
3 -x,-y,-z
4 x,1/2-y,1/2+z
_cell_length_a                   7.758(2)
_cell_length_b                   9.3676(13)
_cell_length_c                   8.2651(17)
_cell_angle_alpha                90
_cell_angle_beta                 109.116(14)
_cell_angle_gamma                90
_cell_volume                     567.535
loop_
_atom_site_label
_atom_site_type_symbol
_atom_site_fract_x
_atom_site_fract_y
_atom_site_fract_z
Zn1 Zn 0.64382(5) 0.33340(3) 0.19844(4)
P1 P 0.71226(11) 0.02808(8) 0.35237(10)
O1 O 0.6652(4) 0.1265(3) 0.1980(3)
C1 C 1.0138(5) 0.3542(3) 0.4528(5)
H1 H 1.0548 0.3630 0.3542
H2 H 1.0046 0.2533 0.4749
N1 N 0.8310(4) 0.4205(3) 0.4121(3)
H3 H 0.7908 0.4049 0.5024
O2 O 0.5966(4) -0.1045(3) 0.3238(4)
O3 O 0.7300(4) 0.1087(3) 0.5142(3)
C2 C 0.8446(5) 0.5775(3) 0.3919(5)
H4 H 0.7265 0.6206 0.3756
H5 H 0.8775 0.5966 0.2904
H6 H 0.876(5) -0.022(4) 0.369(5)
C1B C 0.9862(5) 0.6458(3) 0.5472(5)
H1B H 0.9452 0.6370 0.6458
H2B H 0.9954 0.7467 0.5251
N1B N 1.1690(4) 0.5795(3) 0.5879(3)
H3B H 1.2092 0.5951 0.4976
C2B C 1.1554(5) 0.4225(3) 0.6081(5)
H4B H 1.2735 0.3794 0.6244
H5B H 1.1225 0.4034 0.7096
Zn1B Zn 1.35618(5) 0.66660(3) 0.80156(4)
P1B P 1.28774(11) 0.97192(8) 0.64763(10)
O1B O 1.3348(4) 0.8735(3) 0.8020(3)
O2B O 1.4034(4) 1.1045(3) 0.6762(4)
O3B O 1.2700(4) 0.8913(3) 0.4858(3)
H6B H 1.124(5) 1.022(4) 0.631(5)
Zn1A Zn 0.35618(5) -0.16660(3) 0.30156(4)
Zn1A_2 Zn 1.35618(5) 0.83340(3) 0.30156(4)
Zn1C Zn 0.64382(5) 0.16660(3) 0.69844(4)
Zn1C_2 Zn 1.64382(5) 1.16660(3) 0.69844(4)
O2A O 0.4034(4) 0.3955(3) 0.1762(4)
O2C O 1.5966(4) 0.6045(3) 0.8238(4)
O3A O 1.2700(4) 0.6087(3) 0.9858(3)
O3C O 0.7300(4) 0.3913(3) 0.0142(3)
loop_
_geom_bond_atom_site_label_1
_geom_bond_atom_site_label_2
_geom_bond_site_symmetry_1
_geom_bond_site_symmetry_2
Zn1 O1 1_555 1_555
P1 O1 1_555 1_555
C1 H1 1_555 1_555
H2 C1 1_555 1_555
N1 Zn1 1_555 1_555
H3 N1 1_555 1_555
O2 P1 1_555 1_555
O3 P1 1_555 1_555
C2 N1 1_555 1_555
H4 C2 1_555 1_555
H5 C2 1_555 1_555
H6 P1 1_555 1_555
C1B C2 1_555 1_555
H1B C1B 1_555 1_555
H2B C1B 1_555 1_555
N1B C1B 1_555 1_555
H3B N1B 1_555 1_555
C2B C1 1_555 1_555
H4B C2B 1_555 1_555
H5B C2B 1_555 1_555
Zn1B N1B 1_555 1_555
P1B O1B 1_555 1_555
O1B Zn1B 1_555 1_555
O2B P1B 1_555 1_555
O3B P1B 1_555 1_555
H6B P1B 1_555 1_555
Zn1A O2 1_555 1_555
Zn1A_2 O3B 1_555 1_555
Zn1C O3 1_555 1_555
Zn1C_2 O2B 1_555 1_555
O2A Zn1 1_555 1_555
O2C Zn1B 1_555 1_555
O3A Zn1B 1_555 1_555
O3C Zn1 1_555 1_555
C1 N1 1_555 1_555
N1B C2B 1_555 1_555

#END
