
#######################################################################
#
#                 Cambridge Crystallographic Data Centre
#                                CCDC 
#
#######################################################################
#
# If this CIF has been generated from an entry in the Cambridge 
# Structural Database, then it will include bibliographic, chemical, 
# crystal, experimental, refinement or atomic coordinate data resulting 
# from the CCDC's data processing and validation procedures.
#
#######################################################################

data_XIPGEK
_symmetry_cell_setting           triclinic
_symmetry_space_group_name_H-M   'P -1'
_symmetry_Int_Tables_number      2
_space_group_name_Hall           '-P 1'
loop_
_symmetry_equiv_pos_site_id
_symmetry_equiv_pos_as_xyz
1 x,y,z
2 -x,-y,-z
_cell_length_a                   9.843(2)
_cell_length_b                   10.052(2)
_cell_length_c                   11.240(2)
_cell_angle_alpha                113.36(3)
_cell_angle_beta                 98.98(3)
_cell_angle_gamma                110.25(3)
_cell_volume                     900.585
loop_
_atom_site_label
_atom_site_type_symbol
_atom_site_fract_x
_atom_site_fract_y
_atom_site_fract_z
Zn1 Zn 0.0000 0.0000 0.5000
Zn2 Zn 0.29618(4) 0.14656(4) 0.76945(3)
O1 O 0.1422(2) -0.0663(2) 0.6075(2)
O2 O 0.1808(3) 0.1702(3) 0.4937(2)
O3 O 0.2171(3) 0.2803(3) 0.8807(2)
O4 O 0.3856(3) 0.2715(3) 0.6790(2)
O5 O 0.0094(3) 0.1804(3) 0.6975(2)
N1 N 0.4802(3) 0.1378(3) 0.8620(3)
O6 O 0.1027(3) -0.1001(3) 0.7850(2)
C1 C 0.4116(3) 0.3879(3) 0.5344(3)
C2 C 0.3176(3) 0.2677(3) 0.5716(3)
C3 C 0.0920(4) 0.2735(4) 0.8221(3)
C4 C 0.3430(4) 0.4049(4) 0.4260(3)
H1 H 0.2371 0.3401 0.3759
C5 C 0.0944(4) -0.1576(4) 0.6640(3)
N2 N 0.5463(3) 0.0437(3) 0.7972(3)
C6 C -0.0955(4) 0.3904(4) 0.8645(3)
H2 H -0.1594 0.3162 0.7725
C7 C 0.5704(4) 0.4842(4) 0.6077(3)
H3 H 0.6175 0.4727 0.6800
C8 C 0.0408(4) -0.3360(4) 0.5765(3)
C9 C 0.4858(4) -0.0542(4) 0.6464(3)
H4 H 0.3734 -0.0975 0.6145
H5 H 0.5101 -0.1464 0.6193
C10 C 0.6670(4) 0.0637(4) 0.8898(4)
C11 C 0.1406(4) 0.5025(4) 1.0519(3)
H6 H 0.2349 0.5041 1.0862
C12 C 0.6804(4) 0.1717(4) 1.0190(4)
H7 H 0.7532 0.2080 1.1037
C13 C 0.0412(4) -0.3983(4) 0.4420(3)
H8 H 0.0693 -0.3298 0.4033
C14 C 0.5525(4) 0.0432(4) 0.5759(3)
H9 H 0.6560 0.0537 0.5797
H10 H 0.5605 0.1524 0.6243
C15 C 0.0433(4) 0.3901(3) 0.9141(3)
C16 C 0.0004(4) -0.4367(4) 0.6353(4)
H11 H 0.0013 -0.3935 0.7266
C17 C 0.7659(5) -0.0192(5) 0.8493(4)
H12 H 0.7268 -0.0885 0.7501
H13 H 0.7641 -0.0844 0.8941
H14 H 0.8708 0.0617 0.8774
C18 C 0.5275(5) 0.3335(5) 1.1011(4)
H15 H 0.4391 0.3390 1.0555
H16 H 0.6156 0.4398 1.1481
H17 H 0.5046 0.2984 1.1677
C19 C 0.5630(4) 0.2159(4) 0.9974(3)
O1A O -0.1422(2) -0.9337(2) 0.3925(2)
O6A O -0.1027(3) -0.8999(3) 0.2150(2)
C5A C -0.0944(4) -0.8424(4) 0.3360(3)
C8A C -0.0408(4) -0.6640(4) 0.4235(3)
C13A C -0.0412(4) -0.6017(4) 0.5580(3)
H8A H -0.0693 -0.6702 0.5967
C16A C -0.0004(4) -0.5633(4) 0.3647(4)
H11A H -0.0013 -0.6065 0.2734
O2A O 0.8192(3) 0.8298(3) 0.5063(2)
O4A O 0.6144(3) 0.7285(3) 0.3210(2)
C1A C 0.5884(3) 0.6121(3) 0.4656(3)
C2A C 0.6824(3) 0.7323(3) 0.4284(3)
C4A C 0.6570(4) 0.5951(4) 0.5740(3)
H1A H 0.7629 0.6599 0.6241
C7A C 0.4296(4) 0.5158(4) 0.3923(3)
H3A H 0.3825 0.5273 0.3200
O3A O -0.2171(3) 0.7197(3) 1.1193(2)
O5A O -0.0094(3) 0.8196(3) 1.3025(2)
C3A C -0.0920(4) 0.7265(4) 1.1779(3)
C6A C 0.0955(4) 0.6096(4) 1.1355(3)
H2A H 0.1594 0.6838 1.2275
C11A C -0.1406(4) 0.4975(4) 0.9481(3)
H6A H -0.2349 0.4959 0.9138
C15A C -0.0433(4) 0.6099(3) 1.0859(3)
N1A N 0.5198(3) -0.1378(3) 0.1380(3)
N2A N 0.4537(3) -0.0437(3) 0.2028(3)
C9A C 0.5142(4) 0.0542(4) 0.3536(3)
H4A H 0.6266 0.0975 0.3855
H5A H 0.4899 0.1464 0.3807
C10A C 0.3330(4) -0.0637(4) 0.1102(4)
C12A C 0.3196(4) -0.1717(4) -0.0190(4)
H7A H 0.2468 -0.2080 -0.1037
C14A C 0.4475(4) -0.0432(4) 0.4241(3)
H9A H 0.3440 -0.0537 0.4203
H10A H 0.4395 -0.1524 0.3757
C17A C 0.2341(5) 0.0192(5) 0.1507(4)
H12A H 0.2732 0.0885 0.2499
H13A H 0.2359 0.0844 0.1059
H14A H 0.1292 -0.0617 0.1226
C18A C 0.4725(5) -0.3335(5) -0.1011(4)
H15A H 0.5609 -0.3390 -0.0555
H16A H 0.3844 -0.4398 -0.1481
H17A H 0.4954 -0.2984 -0.1677
C19A C 0.4370(4) -0.2159(4) 0.0026(3)
Zn2A Zn -0.29618(4) -1.14656(4) 0.23055(3)
Zn1_2 Zn 0.0000 -1.0000 0.5000
Zn1_3 Zn 0.0000 1.0000 1.5000
Zn1_4 Zn 1.0000 1.0000 0.5000
Zn2A_2 Zn -0.29618(4) 0.85344(4) 1.23055(3)
Zn2A_3 Zn 0.70382(4) -0.14656(4) 0.23055(3)
Zn2A_4 Zn 0.70382(4) 0.85344(4) 0.23055(3)
O1A_2 O -0.1422(2) 0.0663(2) 0.3925(2)
O2A_2 O -0.1808(3) -0.1702(3) 0.5063(2)
O3A_2 O -0.2171(3) -1.2803(3) 0.1193(2)
O4A_2 O -0.3856(3) -1.2715(3) 0.3210(2)
O5A_2 O -0.0094(3) -0.1804(3) 0.3025(2)
N1A_2 N -0.4802(3) -1.1378(3) 0.1380(3)
loop_
_geom_bond_atom_site_label_1
_geom_bond_atom_site_label_2
_geom_bond_site_symmetry_1
_geom_bond_site_symmetry_2
Zn1 O1 1_555 1_555
Zn2 O1 1_555 1_555
O1 C5 1_555 1_555
O2 Zn1 1_555 1_555
O3 Zn2 1_555 1_555
O4 Zn2 1_555 1_555
O5 Zn1 1_555 1_555
N1 Zn2 1_555 1_555
O6 C5 1_555 1_555
C1 C2 1_555 1_555
C2 O2 1_555 1_555
C3 O3 1_555 1_555
C4 C1 1_555 1_555
H1 C4 1_555 1_555
C5 C8 1_555 1_555
N2 N1 1_555 1_555
C6 H2 1_555 1_555
C7 C1 1_555 1_555
H3 C7 1_555 1_555
C8 C13 1_555 1_555
C9 N2 1_555 1_555
H4 C9 1_555 1_555
H5 C9 1_555 1_555
C10 N2 1_555 1_555
C11 H6 1_555 1_555
C12 C10 1_555 1_555
H7 C12 1_555 1_555
C13 H8 1_555 1_555
C14 C9 1_555 1_555
H9 C14 1_555 1_555
H10 C14 1_555 1_555
C15 C3 1_555 1_555
C16 C8 1_555 1_555
H11 C16 1_555 1_555
C17 C10 1_555 1_555
H12 C17 1_555 1_555
H13 C17 1_555 1_555
H14 C17 1_555 1_555
C18 H15 1_555 1_555
H16 C18 1_555 1_555
H17 C18 1_555 1_555
C19 N1 1_555 1_555
O1A C5A 1_555 1_555
O6A C5A 1_555 1_555
C5A C8A 1_555 1_555
C8A C13A 1_555 1_555
C13A C16 1_555 1_555
H8A C13A 1_555 1_555
C16A C13 1_555 1_555
H11A C16A 1_555 1_555
O2A C2A 1_555 1_555
O4A C2A 1_555 1_555
C1A C2A 1_555 1_555
C4A C7 1_555 1_555
H1A C4A 1_555 1_555
C7A C4 1_555 1_555
H3A C7A 1_555 1_555
O3A C3A 1_555 1_555
O5A C3A 1_555 1_555
C3A C15A 1_555 1_555
C6A C11 1_555 1_555
H2A C6A 1_555 1_555
C11A C6 1_555 1_555
H6A C11A 1_555 1_555
C15A C6A 1_555 1_555
N1A N2A 1_555 1_555
N2A C9A 1_555 1_555
C9A H4A 1_555 1_555
H5A C9A 1_555 1_555
C10A N2A 1_555 1_555
C12A C10A 1_555 1_555
H7A C12A 1_555 1_555
C14A C14 1_555 1_555
H9A C14A 1_555 1_555
H10A C14A 1_555 1_555
C17A C10A 1_555 1_555
H12A C17A 1_555 1_555
H13A C17A 1_555 1_555
H14A C17A 1_555 1_555
C18A H15A 1_555 1_555
H16A C18A 1_555 1_555
H17A C18A 1_555 1_555
C19A N1A 1_555 1_555
Zn2A O1A 1_555 1_555
Zn1_2 O1A 1_555 1_555
Zn1_3 O5A 1_555 1_555
Zn1_4 O2A 1_555 1_555
Zn2A_2 O3A 1_555 1_555
Zn2A_3 N1A 1_555 1_555
Zn2A_4 O4A 1_555 1_555
O1A_2 Zn1 1_555 1_555
O2A_2 Zn1 1_555 1_555
O3A_2 Zn2A 1_555 1_555
O4A_2 Zn2A 1_555 1_555
O5A_2 Zn1 1_555 1_555
N1A_2 Zn2A 1_555 1_555
O4 C2 1_555 1_555
O5 C3 1_555 1_555
C6 C15 1_555 1_555
C11 C15 1_555 1_555
C12 C19 1_555 1_555
C18 C19 1_555 1_555
C8A C16A 1_555 1_555
C1A C4A 1_555 1_555
C1A C7A 1_555 1_555
C11A C15A 1_555 1_555
C9A C14A 1_555 1_555
C12A C19A 1_555 1_555
C18A C19A 1_555 1_555

#END
