
#######################################################################
#
#                 Cambridge Crystallographic Data Centre
#                                CCDC 
#
#######################################################################
#
# If this CIF has been generated from an entry in the Cambridge 
# Structural Database, then it will include bibliographic, chemical, 
# crystal, experimental, refinement or atomic coordinate data resulting 
# from the CCDC's data processing and validation procedures.
#
#######################################################################

data_XIPGAG
_symmetry_cell_setting           monoclinic
_symmetry_space_group_name_H-M   'P 21/c'
_symmetry_Int_Tables_number      14
_space_group_name_Hall           '-P 2ybc'
loop_
_symmetry_equiv_pos_site_id
_symmetry_equiv_pos_as_xyz
1 x,y,z
2 -x,1/2+y,1/2-z
3 -x,-y,-z
4 x,1/2-y,1/2+z
_cell_length_a                   10.909(2)
_cell_length_b                   21.370(4)
_cell_length_c                   16.575(5)
_cell_angle_alpha                90
_cell_angle_beta                 124.24(2)
_cell_angle_gamma                90
_cell_volume                     3194.37
loop_
_atom_site_label
_atom_site_type_symbol
_atom_site_fract_x
_atom_site_fract_y
_atom_site_fract_z
Zn1 Zn 0.82117(4) 0.142735(15) 0.14475(3)
Zn2 Zn 1.01877(3) 0.134236(14) 0.37027(2)
O1 O 0.8111(2) 0.13954(10) 0.34031(19)
O2 O 0.0437(2) 0.14592(11) 0.19145(19)
O3 O 0.6690(3) 0.13238(10) 0.17760(18)
O4 O 1.0263(3) 0.22777(10) 0.34986(17)
O5 O 0.8520(2) 0.23418(10) 0.18988(18)
O6 O 0.1894(2) 0.12687(12) 0.35244(18)
O7 O 1.0360(3) 0.54427(10) 0.19005(18)
O8 O 1.1579(3) 0.54816(10) 0.35215(17)
C1 C 0.1666(3) 0.13618(13) 0.2703(2)
C2 C 0.5525(3) 0.13473(13) 0.2616(3)
N1 N 0.7283(3) 0.15177(12) -0.06730(19)
N2 N 1.1217(3) 0.12901(12) 0.5181(2)
C3 C 0.4424(4) 0.12978(14) 0.3520(2)
H1 H 0.4530 0.1253 0.4121
C4 C 0.2869(4) 0.14224(16) 0.1784(3)
H2 H 0.1923 0.1472 0.1204
C5 C 0.3027(3) 0.13611(13) 0.2675(3)
C6 C 0.6882(3) 0.13551(12) 0.2595(3)
N3 N 0.6963(3) 0.16492(13) -0.00085(19)
N4 N 1.2140(3) 0.08266(12) 0.57762(18)
C7 C 0.4119(4) 0.14098(17) 0.1759(3)
H3 H 0.4015 0.1444 0.1158
C8 C 0.5670(3) 0.12992(15) 0.3498(2)
H4 H 0.6617 0.1267 0.4082
C9 C 1.0852(3) 0.52017(13) 0.2711(2)
C10 C 0.8533(3) 0.11104(16) -0.0422(3)
H5 H 0.9286 0.1136 0.0282
H6 H 0.8982 0.1261 -0.0758
C11 C 0.5325(4) 0.21219(16) -0.1431(2)
H7 H 0.4515 0.2362 -0.1907
C12 C 0.9524(3) 0.25665(14) 0.2710(2)
C13 C 1.4227(3) 0.00002(16) 0.4877(2)
H8 H 1.3951 -0.0428 0.4921
H9 H 1.3545 0.0141 0.4202
C14 C 0.9863(3) 0.32529(13) 0.2727(2)
C15 C 1.1101(4) 0.16894(16) 0.5759(2)
C16 C 1.2536(3) 0.03204(15) 0.5383(2)
H10 H 1.1778 0.0284 0.4681
H11 H 1.2550 -0.0073 0.5691
C17 C 0.5769(3) 0.20226(16) -0.0474(2)
C18 C 1.1030(4) 0.35310(14) 0.3578(3)
H12 H 1.1596 0.3293 0.4152
C19 C 1.0542(3) 0.45126(13) 0.2724(2)
C20 C 0.9382(4) 0.42299(15) 0.1885(3)
H13 H 0.8819 0.4464 0.1307
C21 C 0.8075(4) 0.04345(16) -0.0699(3)
H14 H 0.7247 0.0412 -0.1387
H15 H 0.7733 0.0268 -0.0307
C22 C 0.6311(4) 0.17976(16) -0.1537(2)
C23 C 0.6384(5) 0.1748(2) -0.2402(3)
H16 H 0.7201 0.1477 -0.2250
H17 H 0.6535 0.2160 -0.2577
H18 H 0.5462 0.1573 -0.2945
C24 C 0.9044(4) 0.36094(14) 0.1888(3)
H19 H 0.8248 0.3426 0.1314
C25 C 1.4053(3) 0.04194(17) 0.5547(2)
H20 H 1.4154 0.0858 0.5421
H21 H 1.4839 0.0326 0.6228
C26 C 1.1359(4) 0.41621(15) 0.3580(2)
H22 H 1.2132 0.4351 0.4158
C27 C 1.2635(3) 0.09364(17) 0.6711(2)
C28 C 1.0097(5) 0.22484(17) 0.5360(3)
H23 H 0.9627 0.2273 0.4661
H24 H 1.0672 0.2625 0.5667
H25 H 0.9342 0.2209 0.5495
C29 C 0.9364(4) 0.00281(18) -0.0536(3)
H26 H 0.9741 0.0210 -0.0899
H27 H 0.8988 -0.0391 -0.0799
C30 C 1.1974(4) 0.14799(18) 0.6711(3)
H28 H 1.2091 0.1675 0.7259
C31 C 1.3643(4) 0.0495(2) 0.7513(3)
H29 H 1.3902 0.0153 0.7252
H30 H 1.3146 0.0332 0.7804
H31 H 1.4536 0.0714 0.8006
C32 C 0.5074(4) 0.2277(2) 0.0010(3)
H32 H 0.5605 0.2125 0.0676
H33 H 0.4048 0.2142 -0.0343
H34 H 0.5113 0.2730 0.0012
N1B N 1.2717(3) -0.15177(12) 0.06730(19)
N3B N 1.3037(3) -0.16492(13) 0.00085(19)
C10B C 1.1467(3) -0.11104(16) 0.0422(3)
H5B H 1.0714 -0.1136 -0.0282
H6B H 1.1018 -0.1261 0.0758
C11B C 1.4675(4) -0.21219(16) 0.1431(2)
H7B H 1.5485 -0.2362 0.1907
C17B C 1.4231(3) -0.20226(16) 0.0474(2)
C21B C 1.1925(4) -0.04345(16) 0.0699(3)
H14B H 1.2753 -0.0412 0.1387
H15B H 1.2267 -0.0268 0.0307
C22B C 1.3689(4) -0.17976(16) 0.1537(2)
C23B C 1.3616(5) -0.1748(2) 0.2402(3)
H16B H 1.2799 -0.1477 0.2250
H17B H 1.3465 -0.2160 0.2577
H18B H 1.4538 -0.1573 0.2945
C29B C 1.0636(4) -0.00281(18) 0.0536(3)
H26B H 1.0259 -0.0210 0.0899
H27B H 1.1012 0.0391 0.0799
C32B C 1.4926(4) -0.2277(2) -0.0010(3)
H32B H 1.4395 -0.2125 -0.0676
H33B H 1.5952 -0.2142 0.0343
H34B H 1.4887 -0.2730 -0.0012
N2B N 1.8783(3) -0.12901(12) 0.4819(2)
N4B N 1.7860(3) -0.08266(12) 0.42238(18)
C13B C 1.5773(3) -0.00002(16) 0.5123(2)
H8B H 1.6049 0.0428 0.5079
H9B H 1.6455 -0.0141 0.5798
C15B C 1.8899(4) -0.16894(16) 0.4241(2)
C16B C 1.7464(3) -0.03204(15) 0.4617(2)
H10B H 1.8222 -0.0284 0.5319
H11B H 1.7450 0.0073 0.4309
C25B C 1.5947(3) -0.04194(17) 0.4453(2)
H20B H 1.5846 -0.0858 0.4579
H21B H 1.5161 -0.0326 0.3772
C27B C 1.7365(3) -0.09364(17) 0.3289(2)
C28B C 1.9903(5) -0.22484(17) 0.4640(3)
H23B H 2.0373 -0.2273 0.5339
H24B H 1.9328 -0.2625 0.4333
H25B H 2.0658 -0.2209 0.4505
C30B C 1.8026(4) -0.14799(18) 0.3289(3)
H28B H 1.7909 -0.1675 0.2741
C31B C 1.6357(4) -0.0495(2) 0.2487(3)
H29B H 1.6098 -0.0153 0.2748
H30B H 1.6854 -0.0332 0.2196
H31B H 1.5464 -0.0714 0.1994
Zn1B Zn 1.17883(4) -0.142735(15) -0.14475(3)
Zn2B Zn 0.98123(3) -0.134236(14) -0.37027(2)
O1B O 1.1889(2) -0.13954(10) -0.34031(19)
O2B O 1.9563(2) -0.14592(11) -0.19145(19)
O3B O 1.3310(3) -0.13238(10) -0.17760(18)
O4B O 0.9737(3) -0.22777(10) -0.34986(17)
O5B O 1.1480(2) -0.23418(10) -0.18988(18)
O6B O 1.8106(2) -0.12687(12) -0.35244(18)
O7B O 0.9640(3) -0.54427(10) -0.19005(18)
O8B O 0.8421(3) -0.54816(10) -0.35215(17)
C1B C 1.8334(3) -0.13618(13) -0.2703(2)
C2B C 1.4475(3) -0.13473(13) -0.2616(3)
C3B C 1.5576(4) -0.12978(14) -0.3520(2)
H1B H 1.5470 -0.1253 -0.4121
C4B C 1.7131(4) -0.14224(16) -0.1784(3)
H2B H 1.8077 -0.1472 -0.1204
C5B C 1.6973(3) -0.13611(13) -0.2675(3)
C6B C 1.3118(3) -0.13551(12) -0.2595(3)
C7B C 1.5881(4) -0.14098(17) -0.1759(3)
H3B H 1.5985 -0.1444 -0.1158
C8B C 1.4330(3) -0.12992(15) -0.3498(2)
H4B H 1.3383 -0.1267 -0.4082
C9B C 0.9148(3) -0.52017(13) -0.2711(2)
C12B C 1.0476(3) -0.25665(14) -0.2710(2)
C14B C 1.0137(3) -0.32529(13) -0.2727(2)
C18B C 0.8970(4) -0.35310(14) -0.3578(3)
H12B H 0.8404 -0.3293 -0.4152
C19B C 0.9458(3) -0.45126(13) -0.2724(2)
C20B C 1.0618(4) -0.42299(15) -0.1885(3)
H13B H 1.1181 -0.4464 -0.1307
C24B C 1.0956(4) -0.36094(14) -0.1888(3)
H19B H 1.1752 -0.3426 -0.1314
C26B C 0.8641(4) -0.41621(15) -0.3580(2)
H22B H 0.7868 -0.4351 -0.4158
Zn1_2 Zn -0.17883(4) 0.142735(15) 0.14475(3)
Zn1A Zn 1.17883(4) 0.642735(15) 0.35525(3)
Zn1B_2 Zn 2.17883(4) -0.142735(15) -0.14475(3)
Zn1C Zn 0.82117(4) -0.642735(15) -0.35525(3)
Zn2_2 Zn 0.01877(3) 0.134236(14) 0.37027(2)
Zn2A Zn 0.98123(3) 0.634236(14) 0.12973(2)
Zn2B_2 Zn 1.98123(3) -0.134236(14) -0.37027(2)
Zn2B_3 Zn 1.98123(3) -0.134236(14) 0.62973(2)
Zn2C Zn 1.01877(3) -0.634236(14) -0.12973(2)
O2_2 O 1.0437(2) 0.14592(11) 0.19145(19)
O2B_2 O 0.9563(2) -0.14592(11) -0.19145(19)
O6_2 O 1.1894(2) 0.12687(12) 0.35244(18)
O6B_2 O 0.8106(2) -0.12687(12) -0.35244(18)
O7A O 0.9640(3) 0.04427(10) 0.30995(18)
O7C O 1.0360(3) -0.04427(10) -0.30995(18)
O8A O 0.8421(3) 0.04816(10) 0.14785(17)
O8C O 1.1579(3) -0.04816(10) -0.14785(17)
N2B_2 N 0.8783(3) -0.12901(12) -0.5181(2)
loop_
_geom_bond_atom_site_label_1
_geom_bond_atom_site_label_2
_geom_bond_site_symmetry_1
_geom_bond_site_symmetry_2
Zn1 O3 1_555 1_555
Zn2 O1 1_555 1_555
O1 C6 1_555 1_555
O2 C1 1_555 1_555
O3 C6 1_555 1_555
O4 Zn2 1_555 1_555
O5 Zn1 1_555 1_555
O6 C1 1_555 1_555
O7 C9 1_555 1_555
O8 C9 1_555 1_555
C1 C5 1_555 1_555
C2 C6 1_555 1_555
N1 N3 1_555 1_555
N2 Zn2 1_555 1_555
C3 H1 1_555 1_555
C4 H2 1_555 1_555
C5 C3 1_555 1_555
N3 Zn1 1_555 1_555
N4 N2 1_555 1_555
C7 C2 1_555 1_555
H3 C7 1_555 1_555
C8 C2 1_555 1_555
H4 C8 1_555 1_555
C9 C19 1_555 1_555
C10 N1 1_555 1_555
H5 C10 1_555 1_555
H6 C10 1_555 1_555
C11 H7 1_555 1_555
C12 O4 1_555 1_555
C13 H8 1_555 1_555
H9 C13 1_555 1_555
C14 C12 1_555 1_555
C15 N2 1_555 1_555
C16 N4 1_555 1_555
H10 C16 1_555 1_555
H11 C16 1_555 1_555
C17 N3 1_555 1_555
C18 C14 1_555 1_555
H12 C18 1_555 1_555
C19 C20 1_555 1_555
C20 H13 1_555 1_555
C21 C10 1_555 1_555
H14 C21 1_555 1_555
H15 C21 1_555 1_555
C22 N1 1_555 1_555
C23 C22 1_555 1_555
H16 C23 1_555 1_555
H17 C23 1_555 1_555
H18 C23 1_555 1_555
C24 C14 1_555 1_555
H19 C24 1_555 1_555
C25 C13 1_555 1_555
H20 C25 1_555 1_555
H21 C25 1_555 1_555
C26 C18 1_555 1_555
H22 C26 1_555 1_555
C27 N4 1_555 1_555
C28 C15 1_555 1_555
H23 C28 1_555 1_555
H24 C28 1_555 1_555
H25 C28 1_555 1_555
C29 C21 1_555 1_555
H26 C29 1_555 1_555
H27 C29 1_555 1_555
C30 C15 1_555 1_555
H28 C30 1_555 1_555
C31 C27 1_555 1_555
H29 C31 1_555 1_555
H30 C31 1_555 1_555
H31 C31 1_555 1_555
C32 C17 1_555 1_555
H32 C32 1_555 1_555
H33 C32 1_555 1_555
H34 C32 1_555 1_555
N1B N3B 1_555 1_555
N3B C17B 1_555 1_555
C10B N1B 1_555 1_555
H5B C10B 1_555 1_555
H6B C10B 1_555 1_555
C11B H7B 1_555 1_555
C17B C11B 1_555 1_555
C21B C10B 1_555 1_555
H14B C21B 1_555 1_555
H15B C21B 1_555 1_555
C22B N1B 1_555 1_555
C23B C22B 1_555 1_555
H16B C23B 1_555 1_555
H17B C23B 1_555 1_555
H18B C23B 1_555 1_555
C29B C29 1_555 1_555
H26B C29B 1_555 1_555
H27B C29B 1_555 1_555
C32B C17B 1_555 1_555
H32B C32B 1_555 1_555
H33B C32B 1_555 1_555
H34B C32B 1_555 1_555
N2B N4B 1_555 1_555
N4B C16B 1_555 1_555
C13B C13 1_555 1_555
H8B C13B 1_555 1_555
H9B C13B 1_555 1_555
C15B N2B 1_555 1_555
C16B H10B 1_555 1_555
H11B C16B 1_555 1_555
C25B C13B 1_555 1_555
H20B C25B 1_555 1_555
H21B C25B 1_555 1_555
C27B N4B 1_555 1_555
C28B C15B 1_555 1_555
H23B C28B 1_555 1_555
H24B C28B 1_555 1_555
H25B C28B 1_555 1_555
C30B C15B 1_555 1_555
H28B C30B 1_555 1_555
C31B C27B 1_555 1_555
H29B C31B 1_555 1_555
H30B C31B 1_555 1_555
H31B C31B 1_555 1_555
Zn1B N3B 1_555 1_555
Zn2B O1B 1_555 1_555
O1B C6B 1_555 1_555
O2B C1B 1_555 1_555
O3B Zn1B 1_555 1_555
O4B Zn2B 1_555 1_555
O5B Zn1B 1_555 1_555
O6B C1B 1_555 1_555
O7B C9B 1_555 1_555
O8B C9B 1_555 1_555
C1B C5B 1_555 1_555
C2B C6B 1_555 1_555
C3B H1B 1_555 1_555
C4B H2B 1_555 1_555
C5B C3B 1_555 1_555
C6B O3B 1_555 1_555
C7B C2B 1_555 1_555
H3B C7B 1_555 1_555
C8B C2B 1_555 1_555
H4B C8B 1_555 1_555
C9B C19B 1_555 1_555
C12B O4B 1_555 1_555
C14B C12B 1_555 1_555
C18B C14B 1_555 1_555
H12B C18B 1_555 1_555
C19B C20B 1_555 1_555
C20B H13B 1_555 1_555
C24B C14B 1_555 1_555
H19B C24B 1_555 1_555
C26B C18B 1_555 1_555
H22B C26B 1_555 1_555
Zn1_2 O2 1_555 1_555
Zn1A O8 1_555 1_555
Zn1B_2 O2B 1_555 1_555
Zn1C O8B 1_555 1_555
Zn2_2 O6 1_555 1_555
Zn2A O7 1_555 1_555
Zn2B_2 O6B 1_555 1_555
Zn2B_3 N2B 1_555 1_555
Zn2C O7B 1_555 1_555
O2_2 Zn1 1_555 1_555
O2B_2 Zn1B 1_555 1_555
O6_2 Zn2 1_555 1_555
O6B_2 Zn2B 1_555 1_555
O7A Zn2 1_555 1_555
O7C Zn2B 1_555 1_555
O8A Zn1 1_555 1_555
O8C Zn1B 1_555 1_555
N2B_2 Zn2B 1_555 1_555
O5 C12 1_555 1_555
C3 C8 1_555 1_555
C4 C5 1_555 1_555
C4 C7 1_555 1_555
C11 C17 1_555 1_555
C11 C22 1_555 1_555
C16 C25 1_555 1_555
C19 C26 1_555 1_555
C20 C24 1_555 1_555
C27 C30 1_555 1_555
C11B C22B 1_555 1_555
C21B C29B 1_555 1_555
C16B C25B 1_555 1_555
C27B C30B 1_555 1_555
O5B C12B 1_555 1_555
C3B C8B 1_555 1_555
C4B C5B 1_555 1_555
C4B C7B 1_555 1_555
C19B C26B 1_555 1_555
C20B C24B 1_555 1_555

#END
