
#######################################################################
#
#                 Cambridge Crystallographic Data Centre
#                                CCDC 
#
#######################################################################
#
# If this CIF has been generated from an entry in the Cambridge 
# Structural Database, then it will include bibliographic, chemical, 
# crystal, experimental, refinement or atomic coordinate data resulting 
# from the CCDC's data processing and validation procedures.
#
#######################################################################

data_XIPLOX
_symmetry_cell_setting           monoclinic
_symmetry_space_group_name_H-M   'P 21/m'
_symmetry_Int_Tables_number      11
_space_group_name_Hall           '-P 2yb'
loop_
_symmetry_equiv_pos_site_id
_symmetry_equiv_pos_as_xyz
1 x,y,z
2 -x,1/2+y,-z
3 -x,-y,-z
4 x,1/2-y,z
_cell_length_a                   10.6650(1)
_cell_length_b                   6.66527(5)
_cell_length_c                   5.02277(5)
_cell_angle_alpha                90
_cell_angle_beta                 103.3372(6)
_cell_angle_gamma                90
_cell_volume                     347.414
loop_
_atom_site_label
_atom_site_type_symbol
_atom_site_fract_x
_atom_site_fract_y
_atom_site_fract_z
Cd1 Cd 0.22442(7) 0.2500 -0.344(2)
Cd2 Cd 1.00000 0.0000 0.0000
P1 P 0.8321(2) 0.2500 -0.5832(6)
O1 O 0.9357(5) 0.2500 -0.314(1)
O2 O 0.4189(5) 0.2500 -0.468(1)
O3 O 0.1206(5) 0.2500 -0.775(1)
O4 O 0.3407(5) 0.2500 -0.918(1)
O5 O 0.8382(4) 0.0589(6) -0.7558(8)
C1 C 0.5722(7) 0.2500 -0.752(2)
C2 C 0.6765(6) 0.2500 -0.496(2)
C3 C 0.4341(8) 0.2500 -0.710(62)
O5C O 0.8382(4) 0.4411(6) -0.7558(8)
O4_2 O 0.3407(5) 0.2500 0.082(1)
O5A O 0.1618(4) 0.5589(6) -0.2442(8)
O5B O 0.1618(4) -0.0589(6) -0.2442(8)
O1A O 1.0643(5) -0.2500 0.314(1)
O3_2 O 1.1206(5) 0.2500 0.225(1)
O3A O 0.8794(5) -0.2500 -0.225(1)
O5_2 O 0.8382(4) 0.0589(6) 0.2442(8)
O5B_2 O 1.1618(4) -0.0589(6) -0.2442(8)
Cd2A Cd 1.00000 0.5000 0.0000
Cd2_2 Cd 0.00000 0.0000 -1.0000
Cd2A_2 Cd 0.00000 0.5000 -1.0000
Cd1_2 Cd 0.22442(7) 0.2500 -1.344(2)
Cd1A Cd 0.77558(7) -0.2500 -0.656(2)
Cd2_3 Cd 1.00000 0.0000 -1.0000
Cd1A_2 Cd 0.77558(7) 0.7500 -0.656(2)
Cd2A_3 Cd 1.00000 0.5000 -1.0000
loop_
_geom_bond_atom_site_label_1
_geom_bond_atom_site_label_2
_geom_bond_site_symmetry_1
_geom_bond_site_symmetry_2
Cd1 O2 1_555 1_555
Cd2 O1 1_555 1_555
P1 O1 1_555 1_555
O1 Cd2A 1_555 1_555
O2 C3 1_555 1_555
O3 Cd1 1_555 1_555
O4 C3 1_555 1_555
O5 P1 1_555 1_555
C1 C2 1_555 1_555
C2 P1 1_555 1_555
C3 C1 1_555 1_555
O5C P1 1_555 1_555
O4_2 Cd1 1_555 1_555
O5A Cd1 1_555 1_555
O5B Cd1 1_555 1_555
O1A Cd2 1_555 1_555
O3_2 Cd2 1_555 1_555
O3A Cd2 1_555 1_555
O5_2 Cd2 1_555 1_555
O5B_2 Cd2 1_555 1_555
Cd2A O3_2 1_555 1_555
Cd2_2 O3 1_555 1_555
Cd2A_2 O3 1_555 1_555
Cd1_2 O4 1_555 1_555
Cd1A O5 1_555 1_555
Cd2_3 O5 1_555 1_555
Cd1A_2 O5C 1_555 1_555
Cd2A_3 O5C 1_555 1_555
O3A Cd1A 1_555 1_555

#END
