
#######################################################################
#
#                 Cambridge Crystallographic Data Centre
#                                CCDC 
#
#######################################################################
#
# If this CIF has been generated from an entry in the Cambridge 
# Structural Database, then it will include bibliographic, chemical, 
# crystal, experimental, refinement or atomic coordinate data resulting 
# from the CCDC's data processing and validation procedures.
#
#######################################################################

data_XIPNIV
_symmetry_cell_setting           monoclinic
_symmetry_space_group_name_H-M   'C 2/c'
_symmetry_Int_Tables_number      15
_space_group_name_Hall           '-C 2yn'
loop_
_symmetry_equiv_pos_site_id
_symmetry_equiv_pos_as_xyz
1 x,y,z
2 -x,y,1/2-z
3 1/2+x,1/2+y,z
4 1/2-x,1/2+y,1/2-z
5 -x,-y,-z
6 x,-y,1/2+z
7 1/2-x,1/2-y,-z
8 1/2+x,1/2-y,1/2+z
_cell_length_a                   35.997(7)
_cell_length_b                   12.036(2)
_cell_length_c                   15.715(3)
_cell_angle_alpha                90
_cell_angle_beta                 114.99(3)
_cell_angle_gamma                90
_cell_volume                     6171.26
loop_
_atom_site_label
_atom_site_type_symbol
_atom_site_fract_x
_atom_site_fract_y
_atom_site_fract_z
Cd1 Cd 0.788831(11) 0.44250(3) 0.52663(3)
Cd2 Cd 0.5000 0.11393(5) 0.2500
O1 O 0.72277(11) 0.5084(4) 0.4719(3)
O2 O 0.71988(11) 0.3822(3) 0.5731(3)
O3 O 0.64560(11) 0.1648(3) 0.4820(3)
O4 O 0.68256(10) 0.2256(3) 0.4097(2)
O5 O 0.56979(12) 0.1989(3) 0.2771(3)
O6 O 0.53528(12) 0.2441(3) 0.3577(3)
O7 O 0.54030(14) 0.6690(4) 0.3154(4)
O8 O 0.59719(13) 0.7484(4) 0.3945(4)
N1 N 0.81085(14) 0.5385(3) 0.6621(3)
N2 N 0.84045(13) 0.6713(4) 0.7658(3)
N3 N 0.82871(13) 1.3257(4) 0.8652(3)
N4 N 0.80281(14) 1.4217(4) 0.9469(3)
N5 N 0.51665(14) -0.0114(4) 0.1667(3)
N6 N 0.50811(14) -0.1441(4) 0.0646(3)
N7 N 0.57690(17) 0.6653(5) 0.3633(4)
C1 C 0.70382(16) 0.4455(5) 0.5035(5)
C2 C 0.65763(14) 0.4483(5) 0.4517(3)
C3 C 0.63442(15) 0.3503(4) 0.4225(3)
C4 C 0.65515(16) 0.2383(5) 0.4396(4)
C5 C 0.59144(16) 0.3586(5) 0.3746(4)
C6 C 0.56382(17) 0.2595(5) 0.3339(4)
C7 C 0.57299(15) 0.4627(4) 0.3570(4)
H1 H 0.5446 0.4690 0.3258
C8 C 0.59693(16) 0.5561(5) 0.3860(4)
C9 C 0.63891(15) 0.5517(5) 0.4338(3)
H2 H 0.6543 0.6163 0.4537
C10 C 0.83992(17) 0.6146(5) 0.6922(4)
H3 H 0.8580 0.6275 0.6651
C11 C 0.79215(17) 0.5487(5) 0.7212(4)
H4 H 0.7702 0.5052 0.7179
C12 C 0.80922(17) 0.6288(5) 0.7843(4)
H5 H 0.8016 0.6513 0.8313
C13 C 0.86657(16) 0.7652(4) 0.8118(4)
H6 H 0.8891 0.7684 0.7932
H7 H 0.8781 0.7544 0.8792
C14 C 0.84316(16) 0.8750(4) 0.7870(4)
H8 H 0.8306 0.8841 0.7194
H9 H 0.8214 0.8728 0.8080
C15 C 0.87055(16) 0.9734(4) 0.8314(4)
H10 H 0.8919 0.9763 0.8091
H11 H 0.8837 0.9629 0.8988
C16 C 0.84783(16) 1.0834(4) 0.8100(4)
H12 H 0.8273 1.0820 0.8348
H13 H 0.8337 1.0926 0.7425
C17 C 0.87606(17) 1.1818(4) 0.8514(4)
H14 H 0.8986 1.1763 0.8331
H15 H 0.8876 1.1758 0.9193
C18 C 0.85712(17) 1.2961(5) 0.8241(4)
H16 H 0.8426 1.2996 0.7562
H17 H 0.8789 1.3508 0.8433
C19 C 0.83442(17) 1.4070(4) 0.9270(4)
H18 H 0.8583 1.4489 0.9533
C20 C 0.77478(18) 1.3427(5) 0.8935(5)
H19 H 0.7490 1.3313 0.8923
C21 C 0.79060(17) 1.2853(5) 0.8437(5)
H20 H 0.7778 1.2279 0.8018
C22 C 0.49328(18) -0.0950(5) 0.1202(4)
H21 H 0.4695 -0.1170 0.1253
C23 C 0.54816(18) -0.0096(5) 0.1402(4)
H22 H 0.5701 0.0395 0.1633
C24 C 0.54288(18) -0.0893(5) 0.0757(4)
H23 H 0.5596 -0.1036 0.0451
C25 C 0.48907(17) -0.2401(4) 0.0025(4)
H24 H 0.4881 -0.2255 -0.0591
H25 H 0.4611 -0.2488 -0.0045
C26 C 0.51238(17) -0.3470(4) 0.0405(4)
H26 H 0.5392 -0.3422 0.0401
H27 H 0.5162 -0.3575 0.1049
C27 C 0.48930(17) -0.4451(4) -0.0182(4)
H28 H 0.4860 -0.4345 -0.0822
H29 H 0.4622 -0.4477 -0.0192
O9 O 0.75193(10) 0.3246(3) 0.3968(2)
H30 H 0.7499 0.2919 0.3494
H31 H 0.7269 0.3095 0.3991
N5D N 0.48335(14) -0.9886(4) -0.1667(3)
N6D N 0.49189(14) -0.8559(4) -0.0646(3)
C22D C 0.50672(18) -0.9050(5) -0.1202(4)
H21D H 0.5305 -0.8830 -0.1253
C23D C 0.45184(18) -0.9904(5) -0.1402(4)
H22D H 0.4299 -1.0395 -0.1633
C24D C 0.45712(18) -0.9107(5) -0.0757(4)
H23D H 0.4404 -0.8964 -0.0451
C25D C 0.51093(17) -0.7599(4) -0.0025(4)
H24D H 0.5119 -0.7745 0.0591
H25D H 0.5389 -0.7512 0.0045
C26D C 0.48762(17) -0.6530(4) -0.0405(4)
H26D H 0.4608 -0.6578 -0.0401
H27D H 0.4838 -0.6425 -0.1049
C27D C 0.51070(17) -0.5549(4) 0.0182(4)
H28D H 0.5140 -0.5655 0.0822
H29D H 0.5378 -0.5523 0.0192
Cd1A Cd 0.211169(11) 0.44250(3) -0.02663(3)
O1A O 0.27723(11) 0.5084(4) 0.0281(3)
O2A O 0.28012(11) 0.3822(3) -0.0731(3)
O3A O 0.35440(11) 0.1648(3) 0.0180(3)
O4A O 0.31744(10) 0.2256(3) 0.0903(2)
O5A O 0.43021(12) 0.1989(3) 0.2229(3)
O6A O 0.46472(12) 0.2441(3) 0.1423(3)
O7A O 0.45970(14) 0.6690(4) 0.1846(4)
O8A O 0.40281(13) 0.7484(4) 0.1055(4)
N1A N 0.18915(14) 0.5385(3) -0.1621(3)
N2A N 0.15955(13) 0.6713(4) -0.2658(3)
N3A N 0.17129(13) 1.3257(4) -0.3652(3)
N4A N 0.19719(14) 1.4217(4) -0.4469(3)
N7A N 0.42310(17) 0.6653(5) 0.1367(4)
C1A C 0.29618(16) 0.4455(5) -0.0035(5)
C2A C 0.34237(14) 0.4483(5) 0.0483(3)
C3A C 0.36558(15) 0.3503(4) 0.0775(3)
C4A C 0.34485(16) 0.2383(5) 0.0604(4)
C5A C 0.40856(16) 0.3586(5) 0.1254(4)
C6A C 0.43618(17) 0.2595(5) 0.1661(4)
C7A C 0.42701(15) 0.4627(4) 0.1430(4)
H1A H 0.4554 0.4690 0.1742
C8A C 0.40307(16) 0.5561(5) 0.1140(4)
C9A C 0.36109(15) 0.5517(5) 0.0662(3)
H2A H 0.3457 0.6163 0.0463
C10A C 0.16008(17) 0.6146(5) -0.1922(4)
H3A H 0.1420 0.6275 -0.1651
C11A C 0.20785(17) 0.5487(5) -0.2212(4)
H4A H 0.2298 0.5052 -0.2179
C12A C 0.19078(17) 0.6288(5) -0.2843(4)
H5A H 0.1984 0.6513 -0.3313
C13A C 0.13343(16) 0.7652(4) -0.3118(4)
H6A H 0.1109 0.7684 -0.2932
H7A H 0.1219 0.7544 -0.3792
C14A C 0.15684(16) 0.8750(4) -0.2870(4)
H8A H 0.1694 0.8841 -0.2194
H9A H 0.1786 0.8728 -0.3080
C15A C 0.12945(16) 0.9734(4) -0.3314(4)
H10A H 0.1081 0.9763 -0.3091
H11A H 0.1163 0.9629 -0.3988
C16A C 0.15217(16) 1.0834(4) -0.3100(4)
H12A H 0.1727 1.0820 -0.3348
H13A H 0.1663 1.0926 -0.2425
C17A C 0.12394(17) 1.1818(4) -0.3514(4)
H14A H 0.1014 1.1763 -0.3331
H15A H 0.1124 1.1758 -0.4193
C18A C 0.14288(17) 1.2961(5) -0.3241(4)
H16A H 0.1574 1.2996 -0.2562
H17A H 0.1211 1.3508 -0.3433
C19A C 0.16558(17) 1.4070(4) -0.4270(4)
H18A H 0.1417 1.4489 -0.4533
C20A C 0.22522(18) 1.3427(5) -0.3935(5)
H19A H 0.2510 1.3313 -0.3923
C21A C 0.20940(17) 1.2853(5) -0.3437(5)
H20A H 0.2222 1.2279 -0.3018
O9A O 0.24807(10) 0.3246(3) 0.1032(2)
H30A H 0.2501 0.2919 0.1506
H31A H 0.2731 0.3095 0.1009
Cd1D Cd 0.211169(11) 1.55750(3) -0.52663(3)
Cd1E Cd 0.788831(11) 1.55750(3) 1.02663(3)
Cd1F Cd 0.711169(11) 0.05750(3) 0.47337(3)
Cd1G Cd 0.288831(11) 0.05750(3) 0.02663(3)
Cd2D Cd 0.5000 -1.11393(5) -0.2500
O3F O 0.85440(11) 0.3352(3) 0.5180(3)
O3G O 0.14560(11) 0.3352(3) -0.0180(3)
O4F O 0.81744(10) 0.2744(3) 0.5903(2)
O4G O 0.18256(10) 0.2744(3) -0.0903(2)
N4D N 0.19719(14) 0.5783(4) 0.0531(3)
N4E N 0.80281(14) 0.5783(4) 0.4469(3)
N5A N 0.48335(14) -0.0114(4) 0.3333(3)
O10 O 0.5856(4) 0.0019(12) 0.3949(10)
H32 H 0.5811 0.0687 0.3759
H33 H 0.6033 -0.0247 0.3777
loop_
_geom_bond_atom_site_label_1
_geom_bond_atom_site_label_2
_geom_bond_site_symmetry_1
_geom_bond_site_symmetry_2
Cd1 O1 1_555 1_555
Cd2 O5 1_555 1_555
O1 C1 1_555 1_555
O2 C1 1_555 1_555
O3 C4 1_555 1_555
O4 C4 1_555 1_555
O5 C6 1_555 1_555
O6 Cd2 1_555 1_555
O7 N7 1_555 1_555
O8 N7 1_555 1_555
N1 Cd1 1_555 1_555
N2 C10 1_555 1_555
N3 C18 1_555 1_555
N4 C19 1_555 1_555
N5 Cd2 1_555 1_555
N6 C22 1_555 1_555
N7 C8 1_555 1_555
C1 C2 1_555 1_555
C2 C3 1_555 1_555
C3 C4 1_555 1_555
C5 C3 1_555 1_555
C6 O6 1_555 1_555
C7 C5 1_555 1_555
H1 C7 1_555 1_555
C8 C7 1_555 1_555
C9 C2 1_555 1_555
H2 C9 1_555 1_555
C10 N1 1_555 1_555
H3 C10 1_555 1_555
C11 N1 1_555 1_555
H4 C11 1_555 1_555
C12 N2 1_555 1_555
H5 C12 1_555 1_555
C13 N2 1_555 1_555
H6 C13 1_555 1_555
H7 C13 1_555 1_555
C14 C13 1_555 1_555
H8 C14 1_555 1_555
H9 C14 1_555 1_555
C15 C14 1_555 1_555
H10 C15 1_555 1_555
H11 C15 1_555 1_555
C16 C15 1_555 1_555
H12 C16 1_555 1_555
H13 C16 1_555 1_555
C17 C16 1_555 1_555
H14 C17 1_555 1_555
H15 C17 1_555 1_555
C18 C17 1_555 1_555
H16 C18 1_555 1_555
H17 C18 1_555 1_555
C19 N3 1_555 1_555
H18 C19 1_555 1_555
C20 N4 1_555 1_555
H19 C20 1_555 1_555
C21 N3 1_555 1_555
H20 C21 1_555 1_555
C22 N5 1_555 1_555
H21 C22 1_555 1_555
C23 N5 1_555 1_555
H22 C23 1_555 1_555
C24 N6 1_555 1_555
H23 C24 1_555 1_555
C25 N6 1_555 1_555
H24 C25 1_555 1_555
H25 C25 1_555 1_555
C26 C25 1_555 1_555
H26 C26 1_555 1_555
H27 C26 1_555 1_555
C27 C26 1_555 1_555
H28 C27 1_555 1_555
H29 C27 1_555 1_555
O9 Cd1 1_555 1_555
H30 O9 1_555 1_555
H31 O9 1_555 1_555
O10 H32 1_555 1_555
H33 O10 1_555 1_555
N5D C22D 1_555 1_555
N6D C22D 1_555 1_555
C22D H21D 1_555 1_555
C23D N5D 1_555 1_555
H22D C23D 1_555 1_555
C24D N6D 1_555 1_555
H23D C24D 1_555 1_555
C25D N6D 1_555 1_555
H24D C25D 1_555 1_555
H25D C25D 1_555 1_555
C26D C25D 1_555 1_555
H26D C26D 1_555 1_555
H27D C26D 1_555 1_555
C27D C27 1_555 1_555
H28D C27D 1_555 1_555
H29D C27D 1_555 1_555
Cd1A O1A 1_555 1_555
O1A C1A 1_555 1_555
O2A C1A 1_555 1_555
O3A C4A 1_555 1_555
O4A C4A 1_555 1_555
O5A Cd2 1_555 1_555
O6A Cd2 1_555 1_555
O7A N7A 1_555 1_555
O8A N7A 1_555 1_555
N1A Cd1A 1_555 1_555
N2A C10A 1_555 1_555
N3A C18A 1_555 1_555
N4A C19A 1_555 1_555
N7A C8A 1_555 1_555
C1A C2A 1_555 1_555
C2A C3A 1_555 1_555
C3A C4A 1_555 1_555
C5A C3A 1_555 1_555
C6A O5A 1_555 1_555
C7A C5A 1_555 1_555
H1A C7A 1_555 1_555
C8A C7A 1_555 1_555
C9A C2A 1_555 1_555
H2A C9A 1_555 1_555
C10A N1A 1_555 1_555
H3A C10A 1_555 1_555
C11A N1A 1_555 1_555
H4A C11A 1_555 1_555
C12A N2A 1_555 1_555
H5A C12A 1_555 1_555
C13A N2A 1_555 1_555
H6A C13A 1_555 1_555
H7A C13A 1_555 1_555
C14A C13A 1_555 1_555
H8A C14A 1_555 1_555
H9A C14A 1_555 1_555
C15A C14A 1_555 1_555
H10A C15A 1_555 1_555
H11A C15A 1_555 1_555
C16A C15A 1_555 1_555
H12A C16A 1_555 1_555
H13A C16A 1_555 1_555
C17A C16A 1_555 1_555
H14A C17A 1_555 1_555
H15A C17A 1_555 1_555
C18A C17A 1_555 1_555
H16A C18A 1_555 1_555
H17A C18A 1_555 1_555
C19A N3A 1_555 1_555
H18A C19A 1_555 1_555
C20A N4A 1_555 1_555
H19A C20A 1_555 1_555
C21A N3A 1_555 1_555
H20A C21A 1_555 1_555
O9A Cd1A 1_555 1_555
H30A O9A 1_555 1_555
H31A O9A 1_555 1_555
Cd1D N4A 1_555 1_555
Cd1E N4 1_555 1_555
Cd1F O3 1_555 1_555
Cd1G O3A 1_555 1_555
Cd2D N5D 1_555 1_555
O3F Cd1 1_555 1_555
O3G Cd1A 1_555 1_555
O4F Cd1 1_555 1_555
O4G Cd1A 1_555 1_555
N4D Cd1A 1_555 1_555
N4E Cd1 1_555 1_555
N5A Cd2 1_555 1_555
O4 Cd1F 1_555 1_555
C5 C6 1_555 1_555
C8 C9 1_555 1_555
C11 C12 1_555 1_555
C20 C21 1_555 1_555
C23 C24 1_555 1_555
C23D C24D 1_555 1_555
C26D C27D 1_555 1_555
O4A Cd1G 1_555 1_555
O6A C6A 1_555 1_555
C5A C6A 1_555 1_555
C8A C9A 1_555 1_555
C11A C12A 1_555 1_555
C20A C21A 1_555 1_555

#END
