
#######################################################################
#
#                 Cambridge Crystallographic Data Centre
#                                CCDC 
#
#######################################################################
#
# If this CIF has been generated from an entry in the Cambridge 
# Structural Database, then it will include bibliographic, chemical, 
# crystal, experimental, refinement or atomic coordinate data resulting 
# from the CCDC's data processing and validation procedures.
#
#######################################################################

data_XIPSOF
_symmetry_cell_setting           orthorhombic
_symmetry_space_group_name_H-M   'C m c a'
_symmetry_Int_Tables_number      64
_space_group_name_Hall           '-C 2ac 2'
loop_
_symmetry_equiv_pos_site_id
_symmetry_equiv_pos_as_xyz
1 x,y,z
2 1/2+x,1/2+y,z
3 -x,1/2-y,1/2+z
4 -x,1/2+y,1/2-z
5 x,-y,-z
6 1/2-x,-y,1/2+z
7 1/2-x,y,1/2-z
8 1/2+x,1/2-y,-z
9 -x,-y,-z
10 1/2-x,1/2-y,-z
11 x,1/2+y,1/2-z
12 x,1/2-y,1/2+z
13 -x,y,z
14 1/2+x,y,1/2-z
15 1/2+x,-y,1/2+z
16 1/2-x,1/2+y,z
_cell_length_a                   29.021(13)
_cell_length_b                   9.157(6)
_cell_length_c                   18.413(8)
_cell_angle_alpha                90
_cell_angle_beta                 90
_cell_angle_gamma                90
_cell_volume                     4893.17
loop_
_atom_site_label
_atom_site_type_symbol
_atom_site_fract_x
_atom_site_fract_y
_atom_site_fract_z
Cu1 Cu 0.0000 0.5000 0.0000
P1 P 0.0000 0.1476(5) -0.1412(2)
F1 F 0.0000 0.0146(12) -0.1951(6)
F2 F 0.0000 0.2816(7) -0.0837(4)
F3 F 0.0000 0.0419(11) -0.0753(5)
F4 F 0.0000 0.2612(14) -0.2042(5)
F5 F 0.0557(5) 0.1534(13) -0.1373(5)
O1 O 0.1479(3) 0.0438(8) 0.1908(3)
O2 O 0.2490(3) 0.0000 0.5000
N1 N 0.0480(3) 0.4016(8) 0.0612(3)
N2 N 0.1507(3) 0.2328(8) 0.2683(3)
H1 H 0.1432 0.3232 0.2731
C1 C 0.0619(8) 0.4553(14) 0.1201(8)
H2 H 0.0524 0.5497 0.1312
C2 C 0.0907(8) 0.3843(15) 0.1707(7)
H3 H 0.0981 0.4301 0.2143
C3 C 0.1073(4) 0.2523(9) 0.1563(4)
C4 C 0.0959(5) 0.2010(14) 0.0913(6)
H4 H 0.1085 0.1133 0.0753
C5 C 0.0656(5) 0.2762(16) 0.0473(6)
H5 H 0.0573 0.2321 0.0037
C6 C 0.1369(4) 0.1654(10) 0.2061(4)
C7 C 0.1760(4) 0.1700(10) 0.3258(4)
C8 C 0.2086(5) 0.0632(16) 0.3172(5)
H6 H 0.2157 0.0293 0.2709
C9 C 0.2309(5) 0.0060(15) 0.3765(5)
H7 H 0.2516 -0.0704 0.3701
C10 C 0.2234(3) 0.0576(10) 0.4432(4)
C11 C 0.1935(3) 0.1650(9) 0.4528(4)
H8 H 0.1887 0.2023 0.4991
C12 C 0.1695(4) 0.2226(9) 0.3946(4)
H9 H 0.1486 0.2980 0.4023
Cu1_2 Cu 0.0000 -0.5000 1.0000
P1H P 0.0000 0.8524(5) 0.1412(2)
F1H F 0.0000 0.9854(12) 0.1951(6)
F2H F 0.0000 0.7184(7) 0.0837(4)
F3H F 0.0000 0.9581(11) 0.0753(5)
F4H F 0.0000 0.7388(14) 0.2042(5)
F5L F -0.0557(5) 0.1534(13) -0.1373(5)
F5H F -0.0557(5) 0.8466(13) 0.1373(5)
F5D F 0.0557(5) 0.8466(13) 0.1373(5)
O1D O 0.1479(3) -0.0438(8) 0.8092(3)
O1L O -0.1479(3) 0.0438(8) 0.1908(3)
O1H O -0.1479(3) -0.0438(8) 0.8092(3)
O2L O -0.2490(3) 0.0000 0.5000
N1D N 0.0480(3) -0.4016(8) 0.9388(3)
N1L N -0.0480(3) 0.4016(8) 0.0612(3)
N1H N -0.0480(3) -0.4016(8) 0.9388(3)
N1H_2 N -0.0480(3) 0.5984(8) -0.0612(3)
N1D_2 N 0.0480(3) 0.5984(8) -0.0612(3)
N2D N 0.1507(3) -0.2328(8) 0.7317(3)
N2L N -0.1507(3) 0.2328(8) 0.2683(3)
N2H N -0.1507(3) -0.2328(8) 0.7317(3)
H1D H 0.1432 -0.3232 0.7269
H1L H -0.1432 0.3232 0.2731
H1H H -0.1432 -0.3232 0.7269
C1D C 0.0619(8) -0.4553(14) 0.8799(8)
C1L C -0.0619(8) 0.4553(14) 0.1201(8)
C1H C -0.0619(8) -0.4553(14) 0.8799(8)
H2D H 0.0524 -0.5497 0.8688
H2L H -0.0524 0.5497 0.1312
H2H H -0.0524 -0.5497 0.8688
C2D C 0.0907(8) -0.3843(15) 0.8293(7)
C2L C -0.0907(8) 0.3843(15) 0.1707(7)
C2H C -0.0907(8) -0.3843(15) 0.8293(7)
H3D H 0.0981 -0.4301 0.7857
H3L H -0.0981 0.4301 0.2143
H3H H -0.0981 -0.4301 0.7857
C3D C 0.1073(4) -0.2523(9) 0.8437(4)
C3L C -0.1073(4) 0.2523(9) 0.1563(4)
C3H C -0.1073(4) -0.2523(9) 0.8437(4)
C4D C 0.0959(5) -0.2010(14) 0.9087(6)
C4L C -0.0959(5) 0.2010(14) 0.0913(6)
C4H C -0.0959(5) -0.2010(14) 0.9087(6)
H4D H 0.1085 -0.1133 0.9247
H4L H -0.1085 0.1133 0.0753
H4H H -0.1085 -0.1133 0.9247
C5D C 0.0656(5) -0.2762(16) 0.9527(6)
C5L C -0.0656(5) 0.2762(16) 0.0473(6)
C5H C -0.0656(5) -0.2762(16) 0.9527(6)
H5D H 0.0573 -0.2321 0.9963
H5L H -0.0573 0.2321 0.0037
H5H H -0.0573 -0.2321 0.9963
C6D C 0.1369(4) -0.1654(10) 0.7939(4)
C6L C -0.1369(4) 0.1654(10) 0.2061(4)
C6H C -0.1369(4) -0.1654(10) 0.7939(4)
C7D C 0.1760(4) -0.1700(10) 0.6742(4)
C7L C -0.1760(4) 0.1700(10) 0.3258(4)
C7H C -0.1760(4) -0.1700(10) 0.6742(4)
C8D C 0.2086(5) -0.0632(16) 0.6828(5)
C8L C -0.2086(5) 0.0632(16) 0.3172(5)
C8H C -0.2086(5) -0.0632(16) 0.6828(5)
H6D H 0.2157 -0.0293 0.7291
H6L H -0.2157 0.0293 0.2709
H6H H -0.2157 -0.0293 0.7291
C9D C 0.2309(5) -0.0060(15) 0.6235(5)
C9L C -0.2309(5) 0.0060(15) 0.3765(5)
C9H C -0.2309(5) -0.0060(15) 0.6235(5)
H7D H 0.2516 0.0704 0.6299
H7L H -0.2516 -0.0704 0.3701
H7H H -0.2516 0.0704 0.6299
C10D C 0.2234(3) -0.0576(10) 0.5568(4)
C10L C -0.2234(3) 0.0576(10) 0.4432(4)
C10H C -0.2234(3) -0.0576(10) 0.5568(4)
C11D C 0.1935(3) -0.1650(9) 0.5472(4)
C11L C -0.1935(3) 0.1650(9) 0.4528(4)
C11H C -0.1935(3) -0.1650(9) 0.5472(4)
H8D H 0.1887 -0.2023 0.5009
H8L H -0.1887 0.2023 0.4991
H8H H -0.1887 -0.2023 0.5009
C12D C 0.1695(4) -0.2226(9) 0.6054(4)
C12L C -0.1695(4) 0.2226(9) 0.3946(4)
C12H C -0.1695(4) -0.2226(9) 0.6054(4)
H9D H 0.1486 -0.2980 0.5977
H9L H -0.1486 0.2980 0.4023
H9H H -0.1486 -0.2980 0.5977
loop_
_geom_bond_atom_site_label_1
_geom_bond_atom_site_label_2
_geom_bond_site_symmetry_1
_geom_bond_site_symmetry_2
Cu1 F2 1_555 1_555
P1 F1 1_555 1_555
F2 P1 1_555 1_555
F3 P1 1_555 1_555
F4 P1 1_555 1_555
F5 P1 1_555 1_555
O1 C6 1_555 1_555
O2 C10 1_555 1_555
N1 Cu1 1_555 1_555
N2 H1 1_555 1_555
C1 N1 1_555 1_555
H2 C1 1_555 1_555
C2 C1 1_555 1_555
H3 C2 1_555 1_555
C3 C2 1_555 1_555
C4 C3 1_555 1_555
H4 C4 1_555 1_555
C5 N1 1_555 1_555
H5 C5 1_555 1_555
C6 N2 1_555 1_555
C7 N2 1_555 1_555
C8 C7 1_555 1_555
H6 C8 1_555 1_555
C9 C8 1_555 1_555
H7 C9 1_555 1_555
C10 C9 1_555 1_555
C11 C10 1_555 1_555
H8 C11 1_555 1_555
C12 C7 1_555 1_555
H9 C12 1_555 1_555
Cu1_2 N1D 1_555 1_555
P1H F1H 1_555 1_555
F2H Cu1 1_555 1_555
F3H P1H 1_555 1_555
F4H P1H 1_555 1_555
F5L P1 1_555 1_555
F5H P1H 1_555 1_555
F5D P1H 1_555 1_555
O1D C6D 1_555 1_555
O1L C6L 1_555 1_555
O1H C6H 1_555 1_555
O2L C10L 1_555 1_555
N1D C1D 1_555 1_555
N1L Cu1 1_555 1_555
N1H Cu1_2 1_555 1_555
N1H_2 Cu1 1_555 1_555
N1D_2 Cu1 1_555 1_555
N2D H1D 1_555 1_555
N2L H1L 1_555 1_555
N2H H1H 1_555 1_555
C1D H2D 1_555 1_555
C1L N1L 1_555 1_555
C1H N1H 1_555 1_555
H2L C1L 1_555 1_555
H2H C1H 1_555 1_555
C2D C1D 1_555 1_555
C2L C1L 1_555 1_555
C2H C1H 1_555 1_555
H3D C2D 1_555 1_555
H3L C2L 1_555 1_555
H3H C2H 1_555 1_555
C3D C2D 1_555 1_555
C3L C2L 1_555 1_555
C3H C2H 1_555 1_555
C4D C3D 1_555 1_555
C4L C3L 1_555 1_555
C4H C3H 1_555 1_555
H4D C4D 1_555 1_555
H4L C4L 1_555 1_555
H4H C4H 1_555 1_555
C5D N1D 1_555 1_555
C5L N1L 1_555 1_555
C5H N1H 1_555 1_555
H5D C5D 1_555 1_555
H5L C5L 1_555 1_555
H5H C5H 1_555 1_555
C6D N2D 1_555 1_555
C6L N2L 1_555 1_555
C6H N2H 1_555 1_555
C7D N2D 1_555 1_555
C7L N2L 1_555 1_555
C7H N2H 1_555 1_555
C8D C7D 1_555 1_555
C8L C7L 1_555 1_555
C8H C7H 1_555 1_555
H6D C8D 1_555 1_555
H6L C8L 1_555 1_555
H6H C8H 1_555 1_555
C9D C8D 1_555 1_555
C9L C8L 1_555 1_555
C9H C8H 1_555 1_555
H7D C9D 1_555 1_555
H7L C9L 1_555 1_555
H7H C9H 1_555 1_555
C10D O2 1_555 1_555
C10L C9L 1_555 1_555
C10H O2L 1_555 1_555
C11D C10D 1_555 1_555
C11L C10L 1_555 1_555
C11H C10H 1_555 1_555
H8D C11D 1_555 1_555
H8L C11L 1_555 1_555
H8H C11H 1_555 1_555
C12D C7D 1_555 1_555
C12L C7L 1_555 1_555
C12H C7H 1_555 1_555
H9D C12D 1_555 1_555
H9L C12L 1_555 1_555
H9H C12H 1_555 1_555
C3 C6 1_555 1_555
C4 C5 1_555 1_555
C11 C12 1_555 1_555
P1H F2H 1_555 1_555
C3D C6D 1_555 1_555
C3L C6L 1_555 1_555
C3H C6H 1_555 1_555
C4D C5D 1_555 1_555
C4L C5L 1_555 1_555
C4H C5H 1_555 1_555
C9D C10D 1_555 1_555
C9H C10H 1_555 1_555
C11D C12D 1_555 1_555
C11L C12L 1_555 1_555
C11H C12H 1_555 1_555

#END
