
#######################################################################
#
#                 Cambridge Crystallographic Data Centre
#                                CCDC 
#
#######################################################################
#
# If this CIF has been generated from an entry in the Cambridge 
# Structural Database, then it will include bibliographic, chemical, 
# crystal, experimental, refinement or atomic coordinate data resulting 
# from the CCDC's data processing and validation procedures.
#
#######################################################################

data_XIPSIZ
_symmetry_cell_setting           triclinic
_symmetry_space_group_name_H-M   'P -1'
_symmetry_Int_Tables_number      2
_space_group_name_Hall           '-P 1'
loop_
_symmetry_equiv_pos_site_id
_symmetry_equiv_pos_as_xyz
1 x,y,z
2 -x,-y,-z
_cell_length_a                   7.799(3)
_cell_length_b                   14.077(6)
_cell_length_c                   14.540(6)
_cell_angle_alpha                70.779(9)
_cell_angle_beta                 77.451(8)
_cell_angle_gamma                82.088(9)
_cell_volume                     1467.51
loop_
_atom_site_label
_atom_site_type_symbol
_atom_site_fract_x
_atom_site_fract_y
_atom_site_fract_z
Cu1 Cu 0.90817(15) -0.38196(8) 0.73587(8)
N1 N 0.7704(9) -0.3042(5) 0.6289(5)
N2 N 0.2696(10) -0.2052(5) 0.4372(5)
H1 H 0.2686 -0.2666 0.4753
N3 N -0.5878(10) 0.2154(5) -0.0076(5)
H2 H -0.5413 0.2579 -0.0621
N4 N -0.9998(10) 0.4991(5) -0.1623(5)
N5 N 1.1429(12) -0.4617(6) 0.5946(6)
N6 N 0.5746(12) -0.3959(7) 0.8526(6)
O1 O 0.3914(8) -0.0575(4) 0.4080(4)
O2 O -0.1665(9) -0.1249(4) 0.1602(5)
O3 O -0.8496(8) 0.1767(4) 0.1003(4)
O4 O 1.1253(8) -0.3885(4) 0.6313(4)
O5 O 1.2696(10) -0.4661(5) 0.5298(5)
O6 O 1.0266(10) -0.5223(5) 0.6297(5)
O7 O 0.7161(8) -0.3495(4) 0.8381(4)
O8 O 0.4504(10) -0.3804(5) 0.9147(6)
O9 O 0.5744(9) -0.4548(5) 0.8053(5)
O10 O 1.0274(8) -0.2547(4) 0.7583(4)
C1 C 0.6990(12) -0.3531(6) 0.5812(6)
H4 H 0.7368 -0.4202 0.5878
C2 C 0.5738(11) -0.3080(6) 0.5239(6)
H5 H 0.5241 -0.3449 0.4950
C3 C 0.5226(11) -0.2062(6) 0.5096(6)
C4 C 0.6038(12) -0.1546(6) 0.5515(7)
H6 H 0.5783 -0.0856 0.5395
C5 C 0.7244(12) -0.2062(7) 0.6118(6)
H7 H 0.7752 -0.1707 0.6416
C6 C 0.3872(12) -0.1499(7) 0.4464(6)
C7 C 0.1455(12) -0.1752(6) 0.3721(7)
C8 C 0.0601(12) -0.2515(6) 0.3637(7)
H8 H 0.0777 -0.3170 0.4048
C9 C -0.0501(12) -0.2330(6) 0.2963(7)
H9 H -0.1076 -0.2851 0.2929
C10 C -0.0734(11) -0.1376(6) 0.2347(6)
C11 C 0.0094(12) -0.0593(6) 0.2419(6)
H10 H -0.0101 0.0062 0.2011
C12 C 0.1207(11) -0.0785(6) 0.3094(6)
H11 H 0.1785 -0.0264 0.3125
C13 C -0.2655(12) -0.0332(6) 0.1221(8)
C14 C -0.3839(14) 0.0084(7) 0.1821(7)
H12 H -0.3949 -0.0185 0.2505
C15 C -0.4896(13) 0.0922(7) 0.1404(7)
H13 H -0.5721 0.1216 0.1815
C16 C -0.4744(11) 0.1328(6) 0.0388(6)
C17 C -0.3516(11) 0.0898(6) -0.0215(7)
H14 H -0.3420 0.1151 -0.0899
C18 C -0.2416(12) 0.0081(6) 0.0206(7)
H15 H -0.1521 -0.0186 -0.0195
C19 C -0.7583(14) 0.2327(6) 0.0256(7)
C20 C -0.8475(12) 0.3276(6) -0.0370(6)
C21 C -1.0055(13) 0.3237(7) -0.0629(7)
H16 H -1.0643 0.2648 -0.0386
C22 C -1.0741(13) 0.4109(7) -0.1267(7)
H17 H -1.1788 0.4076 -0.1459
C23 C -0.8505(12) 0.5026(6) -0.1346(7)
H18 H -0.7975 0.5635 -0.1573
C24 C -0.7695(12) 0.4185(7) -0.0726(7)
H19 H -0.6639 0.4236 -0.0554
C25 C 1.1885(14) -0.2128(8) 0.7202(8)
H20 H 1.1920 -0.1586 0.7459
H21 H 1.2038 -0.1873 0.6492
H22 H 1.2813 -0.2634 0.7389
Cu1_2 Cu -1.09183(15) 0.61804(8) -0.26413(8)
N4_2 N 1.0002(10) -0.5009(5) 0.8377(5)
O11 O 0.4301(12) 0.6662(7) 0.2052(6)
H3 H 0.3198 0.7042 0.2160
C26 C 0.5139(19) 0.6493(10) 0.2831(9)
H23 H 0.5516 0.7117 0.2822
H24 H 0.6145 0.6024 0.2776
H25 H 0.4345 0.6218 0.3441
loop_
_geom_bond_atom_site_label_1
_geom_bond_atom_site_label_2
_geom_bond_site_symmetry_1
_geom_bond_site_symmetry_2
Cu1 N1 1_555 1_555
N1 C1 1_555 1_555
N2 H1 1_555 1_555
N3 H2 1_555 1_555
N4 C22 1_555 1_555
N5 O4 1_555 1_555
N6 O7 1_555 1_555
O1 C6 1_555 1_555
O2 C10 1_555 1_555
O3 C19 1_555 1_555
O4 Cu1 1_555 1_555
O5 N5 1_555 1_555
O6 N5 1_555 1_555
O7 Cu1 1_555 1_555
O8 N6 1_555 1_555
O9 N6 1_555 1_555
O10 Cu1 1_555 1_555
O11 H3 1_555 1_555
C1 H4 1_555 1_555
C2 C1 1_555 1_555
H5 C2 1_555 1_555
C3 C2 1_555 1_555
C4 C3 1_555 1_555
H6 C4 1_555 1_555
C5 N1 1_555 1_555
H7 C5 1_555 1_555
C6 N2 1_555 1_555
C7 N2 1_555 1_555
C8 C7 1_555 1_555
H8 C8 1_555 1_555
C9 C8 1_555 1_555
H9 C9 1_555 1_555
C10 C9 1_555 1_555
C11 C10 1_555 1_555
H10 C11 1_555 1_555
C12 C7 1_555 1_555
H11 C12 1_555 1_555
C13 O2 1_555 1_555
C14 C13 1_555 1_555
H12 C14 1_555 1_555
C15 C14 1_555 1_555
H13 C15 1_555 1_555
C16 N3 1_555 1_555
C17 C16 1_555 1_555
H14 C17 1_555 1_555
C18 C13 1_555 1_555
H15 C18 1_555 1_555
C19 N3 1_555 1_555
C20 C19 1_555 1_555
C21 C20 1_555 1_555
H16 C21 1_555 1_555
C22 C21 1_555 1_555
H17 C22 1_555 1_555
C23 N4 1_555 1_555
H18 C23 1_555 1_555
C24 C20 1_555 1_555
H19 C24 1_555 1_555
C25 O10 1_555 1_555
H20 C25 1_555 1_555
H21 C25 1_555 1_555
H22 C25 1_555 1_555
C26 O11 1_555 1_555
H23 C26 1_555 1_555
H24 C26 1_555 1_555
H25 C26 1_555 1_555
Cu1_2 N4 1_555 1_555
N4_2 Cu1 1_555 1_555
C3 C6 1_555 1_555
C4 C5 1_555 1_555
C11 C12 1_555 1_555
C15 C16 1_555 1_555
C17 C18 1_555 1_555
C23 C24 1_555 1_555

#END
