
#######################################################################
#
#                 Cambridge Crystallographic Data Centre
#                                CCDC 
#
#######################################################################
#
# If this CIF has been generated from an entry in the Cambridge 
# Structural Database, then it will include bibliographic, chemical, 
# crystal, experimental, refinement or atomic coordinate data resulting 
# from the CCDC's data processing and validation procedures.
#
#######################################################################

data_XIPVUO
_symmetry_cell_setting           monoclinic
_symmetry_space_group_name_H-M   'P 21/c'
_symmetry_Int_Tables_number      14
_space_group_name_Hall           '-P 2ybc'
loop_
_symmetry_equiv_pos_site_id
_symmetry_equiv_pos_as_xyz
1 x,y,z
2 -x,1/2+y,1/2-z
3 -x,-y,-z
4 x,1/2-y,1/2+z
_cell_length_a                   11.4448(10)
_cell_length_b                   22.0985(19)
_cell_length_c                   8.4069(7)
_cell_angle_alpha                90
_cell_angle_beta                 100.226(2)
_cell_angle_gamma                90
_cell_volume                     2092.44
loop_
_atom_site_label
_atom_site_type_symbol
_atom_site_fract_x
_atom_site_fract_y
_atom_site_fract_z
Hg1 Hg 0.28484(5) 0.84993(2) 1.20923(7)
Hg2 Hg 0.63008(5) 0.79403(3) 1.24334(7)
I1 I 0.09315(10) 0.79532(5) 1.25928(15)
I2 I 0.46715(8) 0.92025(4) 1.33775(11)
I3 I 0.43032(8) 0.74730(4) 1.08456(10)
I4 I 0.79468(8) 0.79576(5) 1.50434(11)
O1 O 0.2232(7) 1.0116(4) 0.4197(9)
N1 N 0.2366(10) 0.8963(5) 0.9415(13)
N2 N 0.0592(12) 0.9581(5) 0.3681(14)
N3 N 0.0709(12) 0.9923(5) 0.2280(13)
N4 N 0.3071(10) 1.1358(4) -0.0596(13)
C1 C 0.3043(14) 0.9389(6) 0.8931(15)
H1 H 0.3715 0.9516 0.9645
C2 C 0.2797(13) 0.9654(6) 0.7412(17)
H2 H 0.3277 0.9960 0.7124
C3 C 0.1821(12) 0.9452(5) 0.6343(14)
C4 C 0.1146(15) 0.9005(7) 0.6807(17)
H3 H 0.0493 0.8856 0.6097
C5 C 0.1440(15) 0.8775(6) 0.8350(17)
H4 H 0.0965 0.8472 0.8661
C6 C 0.1505(12) 0.9708(5) 0.4720(16)
C7 C 0.1660(13) 1.0229(5) 0.2663(14)
C8 C 0.2190(11) 1.0627(5) 0.1572(14)
C9 C 0.3279(13) 1.0890(6) 0.1998(15)
H5 H 0.3732 1.0827 0.3018
C10 C 0.3690(13) 1.1249(6) 0.0885(15)
H6 H 0.4435 1.1425 0.1173
C11 C 0.1990(12) 1.1105(6) -0.0947(15)
H7 H 0.1543 1.1183 -0.1962
C12 C 0.1505(12) 1.0751(6) 0.0048(16)
H8 H 0.0745 1.0593 -0.0256
Hg2B Hg 0.36992(5) 1.20597(3) -0.24334(7)
N4B N 0.6929(10) 0.8642(4) 1.0596(13)
loop_
_geom_bond_atom_site_label_1
_geom_bond_atom_site_label_2
_geom_bond_site_symmetry_1
_geom_bond_site_symmetry_2
Hg1 I1 1_555 1_555
Hg2 I2 1_555 1_555
I2 Hg1 1_555 1_555
I3 Hg1 1_555 1_555
I4 Hg2 1_555 1_555
O1 C6 1_555 1_555
N1 Hg1 1_555 1_555
N2 N3 1_555 1_555
N3 C7 1_555 1_555
N4 C10 1_555 1_555
C1 N1 1_555 1_555
H1 C1 1_555 1_555
C2 C1 1_555 1_555
H2 C2 1_555 1_555
C3 C2 1_555 1_555
C4 C3 1_555 1_555
H3 C4 1_555 1_555
C5 N1 1_555 1_555
H4 C5 1_555 1_555
C6 N2 1_555 1_555
C7 O1 1_555 1_555
C8 C7 1_555 1_555
C9 C8 1_555 1_555
H5 C9 1_555 1_555
C10 C9 1_555 1_555
H6 C10 1_555 1_555
C11 N4 1_555 1_555
H7 C11 1_555 1_555
C12 C8 1_555 1_555
H8 C12 1_555 1_555
Hg2B N4 1_555 1_555
N4B Hg2 1_555 1_555
Hg2 I3 1_555 1_555
C3 C6 1_555 1_555
C4 C5 1_555 1_555
C11 C12 1_555 1_555

#END
