
#######################################################################
#
#                 Cambridge Crystallographic Data Centre
#                                CCDC 
#
#######################################################################
#
# If this CIF has been generated from an entry in the Cambridge 
# Structural Database, then it will include bibliographic, chemical, 
# crystal, experimental, refinement or atomic coordinate data resulting 
# from the CCDC's data processing and validation procedures.
#
#######################################################################

data_XIQDIL
_symmetry_cell_setting           triclinic
_symmetry_space_group_name_H-M   'P -1'
_symmetry_Int_Tables_number      2
_space_group_name_Hall           '-P 1'
loop_
_symmetry_equiv_pos_site_id
_symmetry_equiv_pos_as_xyz
1 x,y,z
2 -x,-y,-z
_cell_length_a                   9.9516(3)
_cell_length_b                   10.5178(3)
_cell_length_c                   15.9228(5)
_cell_angle_alpha                98.840(1)
_cell_angle_beta                 96.540(1)
_cell_angle_gamma                107.148(2)
_cell_volume                     1551.09
loop_
_atom_site_label
_atom_site_type_symbol
_atom_site_fract_x
_atom_site_fract_y
_atom_site_fract_z
Y1 Y 0.249960(16) 0.005760(16) 0.488960(10)
S1 S 0.30882(5) 0.33857(5) 0.44448(3)
O1 O 0.24972(13) -0.17982(13) 0.38582(8)
N1 N 0.30220(19) -0.44973(17) 0.00950(11)
C1 C 0.16594(18) -0.29122(18) 0.34162(11)
H1 H -0.005(3) -0.191(2) 0.5136(15)
O2 O 0.06195(14) -0.36730(14) 0.36527(9)
N2 N -0.13912(18) -0.16169(15) -0.01910(10)
C2 C 0.19844(18) -0.33309(18) 0.25253(11)
H2 H 0.059(3) -0.263(3) 0.4646(19)
O3 O 0.41433(16) -0.37900(16) -0.00746(10)
N3 N 0.73837(16) 0.19650(15) 0.07541(10)
C3 C 0.10753(19) -0.44791(18) 0.19565(12)
H3 H 0.0251 -0.4997 0.2120
H4 H 0.458(2) 0.252(3) 0.5970(16)
O4 O 0.22304(19) -0.55319(15) -0.03831(10)
C4 C 0.1388(2) -0.48591(19) 0.11470(12)
H5 H 0.0785 -0.5627 0.0763
H6 H 0.527(3) 0.176(3) 0.5722(17)
O5 O 0.05687(13) -0.01664(14) 0.39029(8)
C5 C 0.2621(2) -0.40618(19) 0.09278(12)
O6 O -0.17802(13) -0.06721(13) 0.38280(8)
C6 C 0.35247(19) -0.28980(18) 0.14696(12)
H7 H 0.4334 -0.2369 0.1298
O7 O -0.03372(16) -0.15702(15) -0.05265(9)
C7 C 0.31963(18) -0.25392(18) 0.22731(12)
H8 H 0.3793 -0.1759 0.2649
O8 O -0.25865(16) -0.18457(18) -0.05965(9)
C8 C -0.06753(18) -0.05368(16) 0.34932(11)
O9 O 0.39073(12) 0.08703(13) 0.38601(8)
C9 C -0.08705(17) -0.08456(16) 0.25229(11)
O10 O 0.60881(13) 0.10157(14) 0.44744(8)
C10 C -0.22027(18) -0.10927(17) 0.20359(11)
H9 H -0.2978 -0.1083 0.2310
O11 O 0.68221(16) 0.11401(15) 0.00873(9)
C11 C -0.23826(19) -0.13546(18) 0.11413(12)
H10 H -0.3269 -0.1517 0.0809
O12 O 0.83890(14) 0.30024(14) 0.08037(9)
C12 C -0.12069(19) -0.13674(17) 0.07593(11)
O13 O 0.22304(12) 0.22752(13) 0.48652(8)
C13 C 0.01281(19) -0.11469(18) 0.12230(12)
H11 H 0.0893 -0.1181 0.0945
O14 O 0.06923(14) -0.19551(14) 0.51174(9)
C14 C 0.02947(18) -0.08737(18) 0.21125(11)
H12 H 0.1186 -0.0708 0.2440
O15 O 0.45303(14) 0.17209(15) 0.57684(9)
C15 C 0.52110(17) 0.10502(16) 0.38511(11)
C16 C 0.57689(17) 0.13142(16) 0.30362(11)
C17 C 0.48502(18) 0.09152(17) 0.22482(12)
H13 H 0.3876 0.0527 0.2230
C18 C 0.53737(18) 0.10906(18) 0.14909(12)
H14 H 0.4771 0.0789 0.0960
C19 C 0.68245(18) 0.17297(17) 0.15478(11)
C20 C 0.77605(18) 0.21707(17) 0.23229(11)
H15 H 0.8724 0.2616 0.2341
C21 C 0.72317(18) 0.19347(17) 0.30698(11)
H16 H 0.7848 0.2188 0.3595
C22 C 0.2076(2) 0.3096(2) 0.33939(14)
H17 H 0.2151 0.2296 0.3047
H18 H 0.2438 0.3862 0.3131
H19 H 0.1093 0.2973 0.3438
C23 C 0.2730(2) 0.4885(2) 0.49041(15)
H20 H 0.3212 0.5193 0.5491
H21 H 0.1722 0.4689 0.4888
H22 H 0.3065 0.5579 0.4580
Y1A Y -0.249960(16) -0.005760(16) 0.511040(10)
Y1A_2 Y 0.750040(16) -0.005760(16) 0.511040(10)
O6A O 0.17802(13) 0.06721(13) 0.61720(8)
O10A O 0.39119(13) -0.10157(14) 0.55256(8)
S2 S 0.42586(5) 0.41423(4) 0.73564(3)
O16 O 0.47489(14) 0.42729(14) 0.64993(9)
C24 C 0.2546(2) 0.4363(2) 0.72678(16)
H23 H 0.1858 0.3579 0.6897
H24 H 0.2576 0.5154 0.7030
H25 H 0.2280 0.4474 0.7829
C25 C 0.5248(2) 0.5704(2) 0.80564(13)
H26 H 0.6232 0.5754 0.8174
H27 H 0.4878 0.5762 0.8587
H28 H 0.5170 0.6443 0.7788
loop_
_geom_bond_atom_site_label_1
_geom_bond_atom_site_label_2
_geom_bond_site_symmetry_1
_geom_bond_site_symmetry_2
Y1 O1 1_555 1_555
S1 O13 1_555 1_555
O1 C1 1_555 1_555
N1 O3 1_555 1_555
C1 O2 1_555 1_555
H1 O14 1_555 1_555
S2 O16 1_555 1_555
N2 O7 1_555 1_555
C2 C1 1_555 1_555
H2 O14 1_555 1_555
N3 O11 1_555 1_555
C3 C2 1_555 1_555
H3 C3 1_555 1_555
H4 O15 1_555 1_555
O4 N1 1_555 1_555
C4 C3 1_555 1_555
H5 C4 1_555 1_555
H6 O15 1_555 1_555
O5 Y1 1_555 1_555
C5 N1 1_555 1_555
O6 C8 1_555 1_555
C6 C5 1_555 1_555
H7 C6 1_555 1_555
C7 C2 1_555 1_555
H8 C7 1_555 1_555
O8 N2 1_555 1_555
C8 O5 1_555 1_555
O9 Y1 1_555 1_555
C9 C8 1_555 1_555
O10 C15 1_555 1_555
C10 C9 1_555 1_555
H9 C10 1_555 1_555
C11 C10 1_555 1_555
H10 C11 1_555 1_555
O12 N3 1_555 1_555
C12 N2 1_555 1_555
O13 Y1 1_555 1_555
C13 C12 1_555 1_555
H11 C13 1_555 1_555
O14 Y1 1_555 1_555
C14 C9 1_555 1_555
H12 C14 1_555 1_555
O15 Y1 1_555 1_555
C15 O9 1_555 1_555
C16 C15 1_555 1_555
C17 C16 1_555 1_555
H13 C17 1_555 1_555
C18 C17 1_555 1_555
H14 C18 1_555 1_555
C19 N3 1_555 1_555
C20 C19 1_555 1_555
H15 C20 1_555 1_555
C21 C16 1_555 1_555
H16 C21 1_555 1_555
C22 S1 1_555 1_555
H17 C22 1_555 1_555
H18 C22 1_555 1_555
H19 C22 1_555 1_555
C23 S1 1_555 1_555
H20 C23 1_555 1_555
H21 C23 1_555 1_555
H22 C23 1_555 1_555
C24 S2 1_555 1_555
H23 C24 1_555 1_555
H24 C24 1_555 1_555
H25 C24 1_555 1_555
C25 S2 1_555 1_555
H26 C25 1_555 1_555
H27 C25 1_555 1_555
H28 C25 1_555 1_555
Y1A O6 1_555 1_555
Y1A_2 O10 1_555 1_555
O6A Y1 1_555 1_555
O10A Y1 1_555 1_555
C4 C5 1_555 1_555
C6 C7 1_555 1_555
C11 C12 1_555 1_555
C13 C14 1_555 1_555
C18 C19 1_555 1_555
C20 C21 1_555 1_555

#END
