
#######################################################################
#
#                 Cambridge Crystallographic Data Centre
#                                CCDC 
#
#######################################################################
#
# If this CIF has been generated from an entry in the Cambridge 
# Structural Database, then it will include bibliographic, chemical, 
# crystal, experimental, refinement or atomic coordinate data resulting 
# from the CCDC's data processing and validation procedures.
#
#######################################################################

data_XIQFOU
_symmetry_cell_setting           triclinic
_symmetry_space_group_name_H-M   'P -1'
_symmetry_Int_Tables_number      2
_space_group_name_Hall           '-P 1'
loop_
_symmetry_equiv_pos_site_id
_symmetry_equiv_pos_as_xyz
1 x,y,z
2 -x,-y,-z
_cell_length_a                   10.799(2)
_cell_length_b                   12.390(2)
_cell_length_c                   14.139(3)
_cell_angle_alpha                115.493(2)
_cell_angle_beta                 98.438(2)
_cell_angle_gamma                98.824(2)
_cell_volume                     1638.68
loop_
_atom_site_label
_atom_site_type_symbol
_atom_site_fract_x
_atom_site_fract_y
_atom_site_fract_z
C1 C 0.6785(4) -0.7541(4) -0.0347(4)
H1 H 0.6773 -0.8340 -0.0839
C2 C 0.6109(3) -0.5957(3) 0.0670(3)
C3 C 0.7425(3) -0.5653(3) 0.0782(3)
C4 C 0.5407(3) -0.5094(3) 0.1200(3)
C5 C 0.4065(3) -0.5358(3) 0.1080(3)
H2 H 0.3566 -0.6156 0.0636
C6 C 0.3497(4) -0.4442(4) 0.1615(4)
H3 H 0.2610 -0.4606 0.1548
C7 C 0.4268(4) -0.3253(4) 0.2268(3)
H4 H 0.3872 -0.2628 0.2623
C8 C 0.6125(3) -0.3872(3) 0.1883(3)
C9 C 0.7517(3) -0.3535(3) 0.2023(3)
C10 C 0.8170(3) -0.4414(3) 0.1464(3)
C11 C 0.9498(4) -0.4025(4) 0.1588(4)
H5 H 0.9956 -0.4586 0.1224
C12 C 1.0120(4) -0.2813(4) 0.2248(4)
H6 H 1.1000 -0.2538 0.2333
C13 C 0.9408(4) -0.2006(4) 0.2787(4)
H7 H 0.9837 -0.1187 0.3244
C14 C 0.0724(4) 0.2182(4) 0.4590(3)
H8 H 0.0239 0.1383 0.4128
C15 C 0.0085(4) 0.3086(4) 0.5082(4)
H9 H -0.0811 0.2892 0.4941
C16 C 0.0774(4) 0.4254(4) 0.5768(4)
H10 H 0.0357 0.4865 0.6113
C17 C 0.2138(3) 0.4531(3) 0.5953(3)
C18 C 0.2703(3) 0.3561(3) 0.5417(3)
C19 C 0.4113(3) 0.3798(3) 0.5568(3)
C20 C 0.5885(3) 0.3012(3) 0.5152(3)
H11 H 0.6225 0.2343 0.4794
C21 C 0.6722(3) 0.4173(4) 0.5785(3)
H12 H 0.7605 0.4270 0.5838
C22 C 0.6249(3) 0.5167(3) 0.6329(3)
H13 H 0.6801 0.5944 0.6755
C23 C 0.4910(3) 0.4991(3) 0.6229(3)
C24 C 0.4273(3) 0.5935(3) 0.6746(3)
C25 C 0.2958(3) 0.5736(3) 0.6629(3)
C26 C 0.3717(4) 0.7637(4) 0.7638(4)
H14 H 0.3787 0.8469 0.8074
C27 C 0.2009(3) 0.0502(3) 0.1858(3)
C28 C 0.1574(3) -0.0119(3) 0.0650(3)
C29 C 0.0687(3) -0.1250(3) 0.0117(3)
H15 H 0.0314 -0.1606 0.0501
C30 C 0.0369(3) -0.1834(3) -0.0993(3)
C31 C 0.0891(3) -0.1352(3) -0.1603(3)
H16 H 0.0663 -0.1779 -0.2352
C32 C 0.1767(3) -0.0208(3) -0.1065(3)
C33 C 0.2104(3) 0.0408(3) 0.0058(3)
H17 H 0.2686 0.1176 0.0416
C34 C 0.2360(3) 0.0349(3) -0.1703(3)
Cd1 Cd 0.67928(2) -0.09794(2) 0.31853(2)
Cd2 Cd 0.31331(2) 0.09730(2) 0.39108(2)
Cl1 Cl 0.48104(9) -0.00743(9) 0.30005(8)
Cl2 Cl 0.75571(11) 0.03385(9) 0.51942(8)
N1 N 0.5705(3) -0.7196(3) -0.0068(3)
H18 H 0.4931 -0.7652 -0.0301
N2 N 0.7856(3) -0.6652(3) 0.0135(3)
N3 N 0.5537(3) -0.2968(3) 0.2407(2)
N4 N 0.8144(3) -0.2340(3) 0.2684(2)
N5 N 0.1996(3) 0.2409(3) 0.4751(2)
N6 N 0.4614(3) 0.2830(3) 0.5042(2)
N7 N 0.2596(3) 0.6832(3) 0.7199(3)
N8 N 0.4780(3) 0.7185(3) 0.7421(3)
H19 H 0.5577 0.7584 0.7650
N9 N -0.0554(3) -0.3044(3) -0.1560(3)
O1 O 0.1631(2) -0.0104(2) 0.2329(2)
O2 O 0.2778(2) 0.1543(2) 0.2343(2)
O3 O -0.0697(3) -0.3648(3) -0.2530(3)
O4 O -0.1145(3) -0.3381(3) -0.1022(3)
O5 O 0.1957(2) -0.0234(2) -0.27138(19)
O6 O 0.3215(2) 0.1331(2) -0.1221(2)
Cd1A Cd 0.32072(2) 0.09794(2) -0.31853(2)
Cd2A Cd 0.68669(2) -0.09730(2) 0.60892(2)
Cl2A Cl 0.24429(11) -0.03385(9) 0.48058(8)
O5A O 0.8043(2) 0.0234(2) 0.27138(19)
O6A O 0.6785(2) -0.1331(2) 0.1221(2)
loop_
_geom_bond_atom_site_label_1
_geom_bond_atom_site_label_2
_geom_bond_site_symmetry_1
_geom_bond_site_symmetry_2
C1 H1 1_555 1_555
C2 C3 1_555 1_555
C3 C10 1_555 1_555
C4 C2 1_555 1_555
C5 C4 1_555 1_555
H2 C5 1_555 1_555
C6 C5 1_555 1_555
H3 C6 1_555 1_555
C7 C6 1_555 1_555
H4 C7 1_555 1_555
C8 C4 1_555 1_555
C9 C8 1_555 1_555
C10 C9 1_555 1_555
C11 C10 1_555 1_555
H5 C11 1_555 1_555
C12 C11 1_555 1_555
H6 C12 1_555 1_555
C13 C12 1_555 1_555
H7 C13 1_555 1_555
C14 H8 1_555 1_555
C15 C14 1_555 1_555
H9 C15 1_555 1_555
C16 C15 1_555 1_555
H10 C16 1_555 1_555
C17 C16 1_555 1_555
C18 C17 1_555 1_555
C19 C18 1_555 1_555
C20 H11 1_555 1_555
C21 C20 1_555 1_555
H12 C21 1_555 1_555
C22 C21 1_555 1_555
H13 C22 1_555 1_555
C23 C19 1_555 1_555
C24 C23 1_555 1_555
C25 C17 1_555 1_555
C26 H14 1_555 1_555
C27 C28 1_555 1_555
C28 C29 1_555 1_555
C29 H15 1_555 1_555
C30 C29 1_555 1_555
C31 C30 1_555 1_555
H16 C31 1_555 1_555
C32 C31 1_555 1_555
C33 C28 1_555 1_555
H17 C33 1_555 1_555
C34 C32 1_555 1_555
Cd1 Cl1 1_555 1_555
Cd2 Cl1 1_555 1_555
Cl2 Cd1 1_555 1_555
N1 C1 1_555 1_555
H18 N1 1_555 1_555
N2 C1 1_555 1_555
N3 C7 1_555 1_555
N4 C9 1_555 1_555
N5 C14 1_555 1_555
N6 C19 1_555 1_555
N7 C25 1_555 1_555
N8 C24 1_555 1_555
H19 N8 1_555 1_555
N9 C30 1_555 1_555
O1 C27 1_555 1_555
O2 C27 1_555 1_555
O3 N9 1_555 1_555
O4 N9 1_555 1_555
O5 C34 1_555 1_555
O6 C34 1_555 1_555
Cd1A O5 1_555 1_555
Cd2A Cl2 1_555 1_555
Cl2A Cd2 1_555 1_555
O5A Cd1 1_555 1_555
O6A Cd1 1_555 1_555
C2 N1 1_555 1_555
C3 N2 1_555 1_555
C8 N3 1_555 1_555
C13 N4 1_555 1_555
C18 N5 1_555 1_555
C20 N6 1_555 1_555
C22 C23 1_555 1_555
C24 C25 1_555 1_555
C26 N7 1_555 1_555
C26 N8 1_555 1_555
C32 C33 1_555 1_555
Cd1 N3 1_555 1_555
Cd1 N4 1_555 1_555
Cd2 N5 1_555 1_555
Cd2 N6 1_555 1_555
Cd2 O1 1_555 1_555
Cd2 O2 1_555 1_555
O6 Cd1A 1_555 1_555

#END
