
#######################################################################
#
#                 Cambridge Crystallographic Data Centre
#                                CCDC 
#
#######################################################################
#
# If this CIF has been generated from an entry in the Cambridge 
# Structural Database, then it will include bibliographic, chemical, 
# crystal, experimental, refinement or atomic coordinate data resulting 
# from the CCDC's data processing and validation procedures.
#
#######################################################################

data_XIQQEU
_symmetry_cell_setting           monoclinic
_symmetry_space_group_name_H-M   'P 21/c'
_symmetry_Int_Tables_number      14
_space_group_name_Hall           '-P 2ybc'
loop_
_symmetry_equiv_pos_site_id
_symmetry_equiv_pos_as_xyz
1 x,y,z
2 -x,1/2+y,1/2-z
3 -x,-y,-z
4 x,1/2-y,1/2+z
_cell_length_a                   7.9135(12)
_cell_length_b                   15.391(2)
_cell_length_c                   18.773(3)
_cell_angle_alpha                90
_cell_angle_beta                 97.879(3)
_cell_angle_gamma                90
_cell_volume                     2264.9
loop_
_atom_site_label
_atom_site_type_symbol
_atom_site_fract_x
_atom_site_fract_y
_atom_site_fract_z
O1 O 0.5886(10) 0.6077(5) 0.4116(4)
H1 H 0.5416 0.6078 0.4497
H2 H 0.6654 0.5688 0.4148
O2 O 0.5358(18) 0.2140(6) 0.6178(6)
H3 H 0.5079 0.2499 0.5839
H4 H 0.5129 0.1627 0.6028
O3 O 0.5513(9) 0.3234(4) 0.3926(3)
H5 H 0.6556 0.3341 0.3898
H6 H 0.5178 0.2814 0.3648
O4 O 0.5044(8) 0.4184(4) 0.2443(3)
H7 H 0.5907 0.4492 0.2387
H8 H 0.5376 0.3692 0.2614
Tb1 Tb 0.05970(5) 0.42152(2) 0.36325(2)
O5 O 0.1437(8) 0.5190(3) 0.4596(3)
C1 C 0.1294(11) 0.5912(5) 0.4852(4)
C2 C 0.1348(13) 0.6658(5) 0.4341(4)
H9 H 0.2513 0.6787 0.4291
H10 H 0.0767 0.6493 0.3878
O6 O -0.0077(7) 1.2561(3) 0.3607(3)
O7 O -0.1730(7) 1.3425(3) 0.2917(3)
C3 C -0.1320(11) 1.2673(5) 0.3146(4)
C4 C -0.2402(11) 1.1916(4) 0.2823(4)
H11 H -0.3585 1.2065 0.2807
H12 H -0.2182 1.1825 0.2338
N1 N -0.2093(9) 1.1113(4) 0.3232(3)
H13 H -0.1520 1.0678 0.3053
C5 C -0.2605(11) 1.1021(5) 0.3865(4)
C6 C -0.0329(12) 0.7977(5) 0.4115(4)
C7 C -0.1189(11) 0.8731(4) 0.4419(4)
O8 O -0.3779(8) 1.0056(4) 0.6303(3)
N2 N -0.2306(9) 0.8832(4) 0.6582(3)
H14 H -0.1730 0.8385 0.6420
O9 O -0.1672(8) 0.9673(4) 0.8408(3)
O10 O -0.0187(8) 0.9876(3) 0.7533(3)
O11 O 0.2032(7) 0.3486(3) 0.2749(3)
H15 H 0.1291 0.3263 0.2430
H16 H 0.2629 0.3851 0.2553
O12 O 0.3158(8) 0.5018(3) 0.3420(3)
H17 H 0.3309 0.5528 0.3591
H18 H 0.3594 0.4912 0.3040
C8 C -0.2560(11) 0.8873(5) 0.7330(4)
H19 H -0.2365 0.8309 0.7544
H20 H -0.3732 0.9046 0.7348
C9 C -0.1390(11) 0.9524(5) 0.7767(4)
O13 O -0.3383(9) 1.1596(3) 0.4140(3)
O14 O -0.0377(10) 0.7858(4) 0.3466(3)
C10 C -0.2447(10) 0.9415(4) 0.5372(4)
C11 C -0.2725(10) 1.0145(5) 0.4959(4)
H21 H -0.3257 1.0639 0.5147
C12 C -0.2249(10) 1.0195(4) 0.4271(4)
C13 C -0.1701(11) 0.8691(5) 0.5094(4)
H22 H -0.1545 0.8165 0.5371
C14 C -0.1445(11) 0.9477(5) 0.4017(4)
H23 H -0.1070 0.9502 0.3552
C15 C -0.2915(11) 0.9455(5) 0.6128(4)
O15 O 0.1167(8) 0.6087(3) 0.5501(3)
N3 N 0.0540(10) 0.7432(4) 0.4573(4)
H24 H 0.0627 0.7539 0.5048
O16 O 0.2715(8) 0.3522(3) 0.4453(3)
H25 H 0.2285 0.3402 0.4832
H26 H 0.3114 0.3058 0.4296
Tb1_2 Tb 0.05970(5) 1.42152(2) 0.36325(2)
Tb1C Tb 0.05970(5) 1.07848(2) 0.86325(2)
Tb1B Tb -0.05970(5) 0.57848(2) 0.63675(2)
O6_2 O -0.0077(7) 0.2561(3) 0.3607(3)
O7_2 O -0.1730(7) 0.3425(3) 0.2917(3)
O9C O -0.1672(8) 0.5327(4) 0.3408(3)
O10C O -0.0187(8) 0.5124(3) 0.2533(3)
O15B O -0.1167(8) 0.3913(3) 0.4499(3)
loop_
_geom_bond_atom_site_label_1
_geom_bond_atom_site_label_2
_geom_bond_site_symmetry_1
_geom_bond_site_symmetry_2
O1 H1 1_555 1_555
H2 O1 1_555 1_555
O2 H3 1_555 1_555
H4 O2 1_555 1_555
O3 H5 1_555 1_555
H6 O3 1_555 1_555
O4 H7 1_555 1_555
H8 O4 1_555 1_555
Tb1 O5 1_555 1_555
O5 C1 1_555 1_555
C1 C2 1_555 1_555
C2 H9 1_555 1_555
H10 C2 1_555 1_555
O6 C3 1_555 1_555
O7 C3 1_555 1_555
C3 C4 1_555 1_555
C4 H11 1_555 1_555
H12 C4 1_555 1_555
N1 C4 1_555 1_555
H13 N1 1_555 1_555
C5 N1 1_555 1_555
C6 C7 1_555 1_555
C7 C13 1_555 1_555
O8 C15 1_555 1_555
N2 H14 1_555 1_555
O9 C9 1_555 1_555
O10 C9 1_555 1_555
O11 Tb1 1_555 1_555
H15 O11 1_555 1_555
H16 O11 1_555 1_555
O12 Tb1 1_555 1_555
H17 O12 1_555 1_555
H18 O12 1_555 1_555
C8 N2 1_555 1_555
H19 C8 1_555 1_555
H20 C8 1_555 1_555
C9 C8 1_555 1_555
O13 C5 1_555 1_555
O14 C6 1_555 1_555
C10 C11 1_555 1_555
C11 H21 1_555 1_555
C12 C5 1_555 1_555
C13 C10 1_555 1_555
H22 C13 1_555 1_555
C14 C7 1_555 1_555
H23 C14 1_555 1_555
C15 N2 1_555 1_555
O15 C1 1_555 1_555
N3 C2 1_555 1_555
H24 N3 1_555 1_555
O16 Tb1 1_555 1_555
H25 O16 1_555 1_555
H26 O16 1_555 1_555
Tb1_2 O6 1_555 1_555
Tb1C O9 1_555 1_555
Tb1B O15 1_555 1_555
O6_2 Tb1 1_555 1_555
O7_2 Tb1 1_555 1_555
O9C Tb1 1_555 1_555
O10C Tb1 1_555 1_555
O15B Tb1 1_555 1_555
O7 Tb1_2 1_555 1_555
C6 N3 1_555 1_555
O10 Tb1C 1_555 1_555
C10 C15 1_555 1_555
C11 C12 1_555 1_555
C12 C14 1_555 1_555

#END
