
#######################################################################
#
#                 Cambridge Crystallographic Data Centre
#                                CCDC 
#
#######################################################################
#
# If this CIF has been generated from an entry in the Cambridge 
# Structural Database, then it will include bibliographic, chemical, 
# crystal, experimental, refinement or atomic coordinate data resulting 
# from the CCDC's data processing and validation procedures.
#
#######################################################################

data_XIRCIL
_symmetry_cell_setting           monoclinic
_symmetry_space_group_name_H-M   'P 21'
_symmetry_Int_Tables_number      4
_space_group_name_Hall           'P 2yb'
loop_
_symmetry_equiv_pos_site_id
_symmetry_equiv_pos_as_xyz
1 x,y,z
2 -x,1/2+y,-z
_cell_length_a                   10.091(2)
_cell_length_b                   6.9995(14)
_cell_length_c                   12.470(3)
_cell_angle_alpha                90
_cell_angle_beta                 101.59(3)
_cell_angle_gamma                90
_cell_volume                     862.822
loop_
_atom_site_label
_atom_site_type_symbol
_atom_site_fract_x
_atom_site_fract_y
_atom_site_fract_z
Ag1 Ag 1.01351(4) 0.61504(6) 0.37721(2)
Ag2 Ag 1.04157(4) 0.63552(5) -0.11912(2)
N1 N 1.0799(4) 0.6277(9) 0.2284(2)
N2 N 1.0931(4) 0.6167(9) 0.0521(3)
N3 N 0.9598(4) 0.5982(8) 0.5304(2)
N4 N 0.9737(4) 0.6318(10) 0.7105(3)
C1 C 1.2115(5) 0.5983(12) 0.2218(3)
H1 H 1.2835 0.5844 0.2809
C2 C 1.2200(5) 0.5929(10) 0.1145(4)
H2 H 1.2989 0.5757 0.0879
C3 C 1.0099(4) 0.6291(18) 0.1249(3)
C4 C 0.8623(5) 0.6610(9) 0.0921(3)
C5 C 0.7890(5) 0.5820(8) -0.0049(3)
H3 H 0.8331 0.5050 -0.0475
C6 C 0.6528(5) 0.6166(11) -0.0384(4)
H4 H 0.6062 0.5673 -0.1046
C7 C 0.5846(6) 0.7250(9) 0.0265(5)
H5 H 0.4924 0.7476 0.0041
C8 C 0.6537(6) 0.7985(8) 0.1235(5)
H6 H 0.6080 0.8691 0.1678
C9 C 0.7912(6) 0.7680(7) 0.1555(4)
H7 H 0.8372 0.8203 0.2210
C10 C 0.8325(5) 0.5729(9) 0.5531(4)
H8 H 0.7538 0.5457 0.5024
C11 C 0.8428(5) 0.5950(12) 0.6630(4)
H9 H 0.7715 0.5864 0.6998
C12 C 1.0415(4) 0.628(2) 0.6275(3)
C13 C 1.1888(5) 0.6649(9) 0.6416(3)
C14 C 1.2641(6) 0.5643(8) 0.5782(4)
H10 H 1.2222 0.4726 0.5288
C15 C 1.4013(6) 0.6000(11) 0.5883(4)
H11 H 1.4513 0.5322 0.5460
C16 C 1.4629(7) 0.7352(11) 0.6606(6)
H12 H 1.5544 0.7602 0.6653
C17 C 1.3931(7) 0.8356(9) 0.7269(5)
H13 H 1.4367 0.9251 0.7769
C18 C 1.2549(6) 0.7987(8) 0.7164(4)
H14 H 1.2060 0.8648 0.7603
Ag2_2 Ag 1.04157(4) 0.63552(5) 0.88088(2)
N4_2 N 0.9737(4) 0.6318(10) -0.2895(3)
loop_
_geom_bond_atom_site_label_1
_geom_bond_atom_site_label_2
_geom_bond_site_symmetry_1
_geom_bond_site_symmetry_2
Ag1 N1 1_555 1_555
Ag2 N2 1_555 1_555
N1 C1 1_555 1_555
N2 C2 1_555 1_555
N3 Ag1 1_555 1_555
N4 C11 1_555 1_555
C1 H1 1_555 1_555
C2 C1 1_555 1_555
H2 C2 1_555 1_555
C3 N1 1_555 1_555
C4 C3 1_555 1_555
C5 C4 1_555 1_555
H3 C5 1_555 1_555
C6 C5 1_555 1_555
H4 C6 1_555 1_555
C7 C6 1_555 1_555
H5 C7 1_555 1_555
C8 C7 1_555 1_555
H6 C8 1_555 1_555
C9 C4 1_555 1_555
H7 C9 1_555 1_555
C10 N3 1_555 1_555
H8 C10 1_555 1_555
C11 C10 1_555 1_555
H9 C11 1_555 1_555
C12 N3 1_555 1_555
C13 C12 1_555 1_555
C14 C13 1_555 1_555
H10 C14 1_555 1_555
C15 C14 1_555 1_555
H11 C15 1_555 1_555
C16 C15 1_555 1_555
H12 C16 1_555 1_555
C17 C16 1_555 1_555
H13 C17 1_555 1_555
C18 C13 1_555 1_555
H14 C18 1_555 1_555
Ag2_2 N4 1_555 1_555
N4_2 Ag2 1_555 1_555
N2 C3 1_555 1_555
N4 C12 1_555 1_555
C8 C9 1_555 1_555
C17 C18 1_555 1_555

#END
