
#######################################################################
#
#                 Cambridge Crystallographic Data Centre
#                                CCDC 
#
#######################################################################
#
# If this CIF has been generated from an entry in the Cambridge 
# Structural Database, then it will include bibliographic, chemical, 
# crystal, experimental, refinement or atomic coordinate data resulting 
# from the CCDC's data processing and validation procedures.
#
#######################################################################

data_XIRHIQ
_symmetry_cell_setting           triclinic
_symmetry_space_group_name_H-M   'P -1'
_symmetry_Int_Tables_number      2
_space_group_name_Hall           '-P 1'
loop_
_symmetry_equiv_pos_site_id
_symmetry_equiv_pos_as_xyz
1 x,y,z
2 -x,-y,-z
_cell_length_a                   12.679(5)
_cell_length_b                   14.690(6)
_cell_length_c                   14.833(7)
_cell_angle_alpha                69.37(2)
_cell_angle_beta                 82.05(2)
_cell_angle_gamma                65.13(2)
_cell_volume                     2345.62
loop_
_atom_site_label
_atom_site_type_symbol
_atom_site_fract_x
_atom_site_fract_y
_atom_site_fract_z
Cu1 Cu 0.40502(3) 0.45832(4) 0.46309(3)
Cu2 Cu 1.08859(3) 0.04876(3) 0.02766(3)
O1 O 0.5140(2) 0.4239(2) 0.3639(2)
O2 O 0.4999(3) 0.2724(3) 0.3878(3)
O3 O 0.9640(2) 0.1145(3) 0.1032(2)
O4 O 0.9801(3) 0.2685(3) 0.0434(3)
O5 O 0.5321(2) 0.4001(2) 0.55622(19)
O6 O 0.5128(5) 0.2520(4) 0.6161(4)
O7 O 0.9755(2) 0.0895(2) 0.92765(18)
O8 O 1.0457(3) 0.1950(3) 0.8171(3)
N1 N 0.2756(3) 0.5119(3) 0.5508(2)
N2 N -0.1416(3) 0.6969(3) 0.5521(3)
N3 N -0.1518(3) 0.6744(3) 0.3731(3)
N4 N 0.2664(3) 0.5018(3) 0.3791(2)
N5 N 1.2335(3) -0.0271(3) -0.0366(2)
N6 N 1.6504(3) -0.2026(4) 0.0081(4)
N7 N 1.6236(4) -0.1483(4) 0.1776(4)
N8 N 1.2092(3) 0.0200(3) 0.1218(2)
C1 C 0.5436(3) 0.3354(4) 0.3488(3)
C2 C 0.6396(4) 0.3128(3) 0.2770(3)
C3 C 0.6428(3) 0.3867(3) 0.1860(3)
C4 C 0.5545(4) 0.4905(4) 0.1521(3)
H1 H 0.4929 0.5122 0.1924
C5 C 0.5566(5) 0.5586(5) 0.0639(4)
H2 H 0.4963 0.6256 0.0439
C6 C 0.6494(5) 0.5291(5) 0.0019(4)
H3 H 0.6509 0.5767 -0.0589
C7 C 0.7375(5) 0.4303(5) 0.0309(4)
H4 H 0.7980 0.4115 -0.0111
C8 C 0.7392(4) 0.3555(4) 0.1236(3)
C9 C 0.8284(4) 0.2514(4) 0.1551(3)
C10 C 0.8216(4) 0.1838(4) 0.2438(3)
H5 H 0.8805 0.1161 0.2646
C11 C 0.7283(4) 0.2133(4) 0.3046(3)
H6 H 0.7261 0.1648 0.3647
C12 C 0.9324(3) 0.2109(4) 0.0949(3)
C13 C 0.5642(3) 0.3075(4) 0.6105(3)
C14 C 0.6719(4) 0.2660(3) 0.6709(3)
C15 C 0.7829(4) 0.2141(4) 0.6364(3)
C16 C 0.7986(5) 0.1958(5) 0.5469(4)
H7 H 0.7337 0.2181 0.5094
C17 C 0.9053(6) 0.1467(5) 0.5149(4)
H8 H 0.9133 0.1356 0.4559
C18 C 1.0043(5) 0.1124(5) 0.5705(5)
H9 H 1.0777 0.0779 0.5485
C19 C 0.9937(4) 0.1291(4) 0.6554(4)
H10 H 1.0604 0.1067 0.6907
C20 C 0.8835(4) 0.1799(3) 0.6927(3)
C21 C 0.8679(3) 0.1958(3) 0.7835(3)
C22 C 0.7598(4) 0.2426(4) 0.8150(3)
H11 H 0.7507 0.2500 0.8756
C23 C 0.6608(4) 0.2801(4) 0.7583(4)
H12 H 0.5875 0.3146 0.7804
C24 C 0.9719(3) 0.1584(3) 0.8466(3)
C25 C 0.2843(4) 0.5114(4) 0.6399(3)
H13 H 0.3574 0.4808 0.6686
C26 C 0.1866(4) 0.5557(4) 0.6905(3)
H14 H 0.1953 0.5534 0.7526
C27 C 0.0786(4) 0.6022(4) 0.6508(4)
H15 H 0.0135 0.6327 0.6846
C28 C 0.0674(3) 0.6034(3) 0.5569(3)
C29 C 0.1678(3) 0.5570(3) 0.5106(3)
C30 C -0.0446(3) 0.6484(3) 0.5075(3)
C31 C -0.2407(4) 0.7337(4) 0.5027(5)
H16 H -0.3103 0.7697 0.5288
C32 C -0.2450(4) 0.7213(4) 0.4169(5)
H17 H -0.3171 0.7471 0.3881
C33 C -0.0489(3) 0.6382(3) 0.4184(3)
C34 C 0.0568(3) 0.5868(3) 0.3719(3)
C35 C 0.1630(3) 0.5495(3) 0.4170(3)
C36 C 0.0581(4) 0.5722(4) 0.2839(3)
H18 H -0.0110 0.5966 0.2510
C37 C 0.1624(4) 0.5215(4) 0.2462(3)
H19 H 0.1647 0.5098 0.1882
C38 C 0.2649(4) 0.4877(4) 0.2954(3)
H20 H 0.3352 0.4539 0.2688
C39 C 1.2428(4) -0.0517(4) -0.1160(3)
H21 H 1.1752 -0.0320 -0.1490
C40 C 1.3496(4) -0.1059(5) -0.1521(4)
H22 H 1.3522 -0.1187 -0.2097
C41 C 1.4494(4) -0.1399(4) -0.1038(4)
H23 H 1.5206 -0.1774 -0.1268
C42 C 1.4433(3) -0.1176(4) -0.0183(4)
C43 C 1.3335(3) -0.0605(3) 0.0128(3)
C44 C 1.5449(4) -0.1491(4) 0.0385(4)
C45 C 1.7391(5) -0.2288(5) 0.0639(6)
H24 H 1.8138 -0.2663 0.0461
C46 C 1.7261(5) -0.2040(5) 0.1441(5)
H25 H 1.7928 -0.2268 0.1797
C47 C 1.5308(4) -0.1213(4) 0.1220(4)
C48 C 1.4168(4) -0.0613(4) 0.1527(3)
C49 C 1.3201(3) -0.0329(3) 0.0982(3)
C50 C 1.3978(5) -0.0324(4) 0.2340(4)
H26 H 1.4603 -0.0486 0.2715
C51 C 1.2862(5) 0.0203(5) 0.2597(4)
H27 H 1.2724 0.0392 0.3152
C52 C 1.1935(4) 0.0454(4) 0.2016(3)
H28 H 1.1181 0.0811 0.2195
Cu1A Cu 0.59498(3) 0.54168(4) 0.53691(3)
Cu2A Cu 0.91141(3) -0.04876(3) -0.02766(3)
Cu2_2 Cu 1.08859(3) 0.04876(3) 1.02766(3)
Cu2A_2 Cu 0.91141(3) -0.04876(3) 0.97234(3)
O5A O 0.4679(2) 0.5999(2) 0.44378(19)
O7_2 O 0.9755(2) 0.0895(2) -0.07235(18)
O7A O 1.0245(2) -0.0895(2) 0.07235(18)
O9 O 0.4320(7) 0.1517(6) 0.3165(6)
O10 O 0.4226(10) -0.0548(8) 0.4733(8)
O11 O 0.2273(10) 0.2971(9) 0.1769(10)
O12 O 0.0234(8) 0.4201(7) 0.0950(7)
loop_
_geom_bond_atom_site_label_1
_geom_bond_atom_site_label_2
_geom_bond_site_symmetry_1
_geom_bond_site_symmetry_2
Cu1 O1 1_555 1_555
Cu2 O3 1_555 1_555
O1 C1 1_555 1_555
O2 C1 1_555 1_555
O3 C12 1_555 1_555
O4 C12 1_555 1_555
O5 Cu1 1_555 1_555
O6 C13 1_555 1_555
O7 C24 1_555 1_555
O8 C24 1_555 1_555
N1 Cu1 1_555 1_555
N2 C30 1_555 1_555
N3 C32 1_555 1_555
N4 Cu1 1_555 1_555
N5 Cu2 1_555 1_555
N6 C44 1_555 1_555
N7 C46 1_555 1_555
N8 Cu2 1_555 1_555
C1 C2 1_555 1_555
C2 C3 1_555 1_555
C3 C4 1_555 1_555
C4 H1 1_555 1_555
C5 C4 1_555 1_555
H2 C5 1_555 1_555
C6 C5 1_555 1_555
H3 C6 1_555 1_555
C7 C6 1_555 1_555
H4 C7 1_555 1_555
C8 C3 1_555 1_555
C9 C8 1_555 1_555
C10 C9 1_555 1_555
H5 C10 1_555 1_555
C11 C2 1_555 1_555
H6 C11 1_555 1_555
C12 C9 1_555 1_555
C13 O5 1_555 1_555
C14 C13 1_555 1_555
C15 C14 1_555 1_555
C16 C15 1_555 1_555
H7 C16 1_555 1_555
C17 C16 1_555 1_555
H8 C17 1_555 1_555
C18 C17 1_555 1_555
H9 C18 1_555 1_555
C19 C18 1_555 1_555
H10 C19 1_555 1_555
C20 C15 1_555 1_555
C21 C20 1_555 1_555
C22 C21 1_555 1_555
H11 C22 1_555 1_555
C23 C14 1_555 1_555
H12 C23 1_555 1_555
C24 C21 1_555 1_555
C25 N1 1_555 1_555
H13 C25 1_555 1_555
C26 C25 1_555 1_555
H14 C26 1_555 1_555
C27 C26 1_555 1_555
H15 C27 1_555 1_555
C28 C27 1_555 1_555
C29 N1 1_555 1_555
C30 C28 1_555 1_555
C31 N2 1_555 1_555
H16 C31 1_555 1_555
C32 C31 1_555 1_555
H17 C32 1_555 1_555
C33 N3 1_555 1_555
C34 C33 1_555 1_555
C35 N4 1_555 1_555
C36 C34 1_555 1_555
H18 C36 1_555 1_555
C37 C36 1_555 1_555
H19 C37 1_555 1_555
C38 N4 1_555 1_555
H20 C38 1_555 1_555
C39 N5 1_555 1_555
H21 C39 1_555 1_555
C40 C39 1_555 1_555
H22 C40 1_555 1_555
C41 C40 1_555 1_555
H23 C41 1_555 1_555
C42 C41 1_555 1_555
C43 N5 1_555 1_555
C44 C42 1_555 1_555
C45 N6 1_555 1_555
H24 C45 1_555 1_555
C46 C45 1_555 1_555
H25 C46 1_555 1_555
C47 N7 1_555 1_555
C48 C47 1_555 1_555
C49 N8 1_555 1_555
C50 C48 1_555 1_555
H26 C50 1_555 1_555
C51 C50 1_555 1_555
H27 C51 1_555 1_555
C52 N8 1_555 1_555
H28 C52 1_555 1_555
Cu1A O5 1_555 1_555
Cu2A Cu2 1_555 1_555
Cu2_2 O7 1_555 1_555
Cu2A_2 O7 1_555 1_555
O5A Cu1 1_555 1_555
O7_2 Cu2 1_555 1_555
O7A Cu2 1_555 1_555
C7 C8 1_555 1_555
C10 C11 1_555 1_555
C19 C20 1_555 1_555
C22 C23 1_555 1_555
C28 C29 1_555 1_555
C29 C35 1_555 1_555
C30 C33 1_555 1_555
C34 C35 1_555 1_555
C37 C38 1_555 1_555
C42 C43 1_555 1_555
C43 C49 1_555 1_555
C44 C47 1_555 1_555
C48 C49 1_555 1_555
C51 C52 1_555 1_555
Cu1A O5A 1_555 1_555
Cu2A O7_2 1_555 1_555
Cu2A O7A 1_555 1_555
Cu2_2 Cu2A_2 1_555 1_555

#END
