
#######################################################################
#
#                 Cambridge Crystallographic Data Centre
#                                CCDC 
#
#######################################################################
#
# If this CIF has been generated from an entry in the Cambridge 
# Structural Database, then it will include bibliographic, chemical, 
# crystal, experimental, refinement or atomic coordinate data resulting 
# from the CCDC's data processing and validation procedures.
#
#######################################################################

data_XIRKEP
_symmetry_cell_setting           monoclinic
_symmetry_space_group_name_H-M   'P 2/n'
_symmetry_Int_Tables_number      13
_space_group_name_Hall           '-P 2yac'
loop_
_symmetry_equiv_pos_site_id
_symmetry_equiv_pos_as_xyz
1 x,y,z
2 1/2-x,y,1/2-z
3 -x,-y,-z
4 1/2+x,-y,1/2+z
_cell_length_a                   8.3966(10)
_cell_length_b                   5.1604(6)
_cell_length_c                   13.6211(16)
_cell_angle_alpha                90
_cell_angle_beta                 94.666(2)
_cell_angle_gamma                90
_cell_volume                     588.244
loop_
_atom_site_label
_atom_site_type_symbol
_atom_site_fract_x
_atom_site_fract_y
_atom_site_fract_z
Ag1 Ag 1.0000 0.0000 0.5000
N1 N 0.9785(3) 0.3049(5) 0.39798(19)
N2 N 0.8717(3) 0.6069(5) 0.30233(19)
C1 C 0.8469(4) 0.4306(7) 0.3711(3)
H1 H 0.7490 0.4010 0.3965
C2 C 1.0280(4) 0.5957(9) 0.2850(3)
H2 H 1.0798 0.6969 0.2410
C3 C 1.0936(4) 0.4092(10) 0.3443(3)
H3 H 1.2003 0.3590 0.3482
C4 C 0.7500 0.7683(8) 0.2500
H4 H 0.7007 0.8786 0.2966
H5 H 0.7993 0.8786 0.2034
Ag1C Ag 0.5000 0.0000 0.0000
N1A N 0.5215(3) 0.3049(5) 0.10202(19)
N1B N 1.0215(3) -0.3049(5) 0.60202(19)
N2A N 0.6283(3) 0.6069(5) 0.19767(19)
C1A C 0.6531(4) 0.4306(7) 0.1289(3)
H1A H 0.7510 0.4010 0.1035
C2A C 0.4720(4) 0.5957(9) 0.2150(3)
H2A H 0.4202 0.6969 0.2590
C3A C 0.4064(4) 0.4092(10) 0.1557(3)
H3A H 0.2997 0.3590 0.1518
P1 P 0.5000 0.0000 0.5000
F1 F 0.6294(4) 0.1949(7) 0.5436(2)
F2 F 0.4980(3) 0.1377(6) 0.39578(17)
F3 F 0.3615(4) 0.1824(7) 0.5298(2)
F1B F 0.3706(4) -0.1949(7) 0.4564(2)
F2B F 0.5020(3) -0.1377(6) 0.60422(17)
F3B F 0.6385(4) -0.1824(7) 0.4702(2)
loop_
_geom_bond_atom_site_label_1
_geom_bond_atom_site_label_2
_geom_bond_site_symmetry_1
_geom_bond_site_symmetry_2
Ag1 N1 1_555 1_555
P1 F1 1_555 1_555
F2 P1 1_555 1_555
F3 P1 1_555 1_555
N1 C1 1_555 1_555
N2 C1 1_555 1_555
C1 H1 1_555 1_555
C2 N2 1_555 1_555
H2 C2 1_555 1_555
C3 N1 1_555 1_555
H3 C3 1_555 1_555
C4 N2 1_555 1_555
H4 C4 1_555 1_555
H5 C4 1_555 1_555
Ag1C N1A 1_555 1_555
F1B P1 1_555 1_555
F2B P1 1_555 1_555
F3B P1 1_555 1_555
N1A C1A 1_555 1_555
N1B Ag1 1_555 1_555
N2A C4 1_555 1_555
C1A N2A 1_555 1_555
H1A C1A 1_555 1_555
C2A N2A 1_555 1_555
H2A C2A 1_555 1_555
C3A N1A 1_555 1_555
H3A C3A 1_555 1_555
C2 C3 1_555 1_555
C2A C3A 1_555 1_555

#END
