
#######################################################################
#
#                 Cambridge Crystallographic Data Centre
#                                CCDC 
#
#######################################################################
#
# If this CIF has been generated from an entry in the Cambridge 
# Structural Database, then it will include bibliographic, chemical, 
# crystal, experimental, refinement or atomic coordinate data resulting 
# from the CCDC's data processing and validation procedures.
#
#######################################################################

data_XIRLAM
_symmetry_cell_setting           monoclinic
_symmetry_space_group_name_H-M   'P 21/c'
_symmetry_Int_Tables_number      14
_space_group_name_Hall           '-P 2ybc'
loop_
_symmetry_equiv_pos_site_id
_symmetry_equiv_pos_as_xyz
1 x,y,z
2 -x,1/2+y,1/2-z
3 -x,-y,-z
4 x,1/2-y,1/2+z
_cell_length_a                   13.5794(2)
_cell_length_b                   13.0497(2)
_cell_length_c                   20.5848(3)
_cell_angle_alpha                90
_cell_angle_beta                 97.7910(10)
_cell_angle_gamma                90
_cell_volume                     3614.1
loop_
_atom_site_label
_atom_site_type_symbol
_atom_site_fract_x
_atom_site_fract_y
_atom_site_fract_z
Sb1 Sb 0.22596(3) 0.08152(3) 0.166843(17)
F1 F 0.1398(3) 0.1928(3) 0.1844(2)
F2 F 0.3345(3) 0.1719(4) 0.1855(2)
F3 F 0.3054(3) -0.0257(4) 0.1523(2)
F4 F 0.1130(3) -0.0011(3) 0.15182(17)
F5 F 0.2087(3) 0.1186(4) 0.07860(18)
F6 F 0.2400(3) 0.0490(3) 0.25589(16)
Ag1 Ag 0.25367(2) 0.61376(3) 0.245888(17)
S1 S 0.21540(8) 0.77327(9) 0.31534(6)
S2 S 0.34586(8) 0.48708(9) 0.32496(6)
S3 S -0.08207(8) 1.06386(9) 0.31318(6)
S4 S 0.64103(8) 0.19189(9) 0.33593(6)
C1 C 0.1783(3) 0.7220(4) 0.3894(2)
C2 C 0.0832(4) 0.6887(4) 0.3940(2)
H1 H 0.0343 0.6927 0.3578
C3 C 0.0607(4) 0.6496(4) 0.4522(3)
H2 H -0.0039 0.6285 0.4555
C4 C 0.1326(5) 0.6415(4) 0.5055(3)
H3 H 0.1172 0.6140 0.5445
C5 C 0.2281(5) 0.6742(4) 0.5010(3)
H4 H 0.2769 0.6687 0.5372
C6 C 0.2515(4) 0.7153(4) 0.4431(3)
H5 H 0.3157 0.7382 0.4402
C7 C 0.1015(4) 0.8260(4) 0.2720(2)
H6 H 0.1135 0.8492 0.2290
H7 H 0.0513 0.7726 0.2659
C8 C 0.0624(3) 0.9153(4) 0.3087(2)
H8 H 0.1110 0.9701 0.3135
H9 H 0.0518 0.8931 0.3523
C9 C 0.2527(3) 0.4021(4) 0.3470(2)
C10 C 0.2337(4) 0.3056(4) 0.3204(3)
H10 H 0.2714 0.2799 0.2896
C11 C 0.1570(4) 0.2476(4) 0.3405(3)
H11 H 0.1438 0.1824 0.3233
C12 C 0.1006(4) 0.2860(4) 0.3857(3)
H12 H 0.0488 0.2472 0.3983
C13 C 0.1208(4) 0.3818(5) 0.4123(3)
H13 H 0.0829 0.4073 0.4431
C14 C 0.1969(4) 0.4401(4) 0.3935(3)
H14 H 0.2108 0.5044 0.4119
C15 C 0.4222(4) 0.4080(4) 0.2802(3)
H15 H 0.3797 0.3680 0.2480
H16 H 0.4632 0.4517 0.2567
C16 C 0.4891(4) 0.3357(4) 0.3247(2)
H17 H 0.5309 0.3752 0.3575
H18 H 0.4485 0.2901 0.3471
C17 C -0.1094(3) 1.0131(4) 0.3890(2)
C18 C -0.1117(4) 1.0836(4) 0.4398(2)
H19 H -0.0979 1.1523 0.4332
C19 C -0.1343(4) 1.0510(4) 0.4995(3)
H20 H -0.1368 1.0982 0.5331
C20 C -0.1534(4) 0.9484(4) 0.5101(3)
H21 H -0.1681 0.9267 0.5507
C21 C -0.1503(4) 0.8783(4) 0.4599(3)
H22 H -0.1629 0.8094 0.4670
C22 C -0.1286(4) 0.9100(4) 0.3993(3)
H23 H -0.1268 0.8627 0.3656
C23 C -0.0354(3) 0.9546(4) 0.2715(2)
H24 H -0.0844 0.9001 0.2679
H25 H -0.0251 0.9746 0.2276
C24 C 0.5707(6) 0.0788(5) 0.3553(4)
C25 C 0.6252(4) -0.0013(6) 0.3869(4)
H26 H 0.6932 0.0057 0.3993
C26 C 0.5778(5) -0.0921(5) 0.3998(4)
H27 H 0.6143 -0.1457 0.4209
C27 C 0.4761(5) -0.1027(5) 0.3812(4)
H28 H 0.4444 -0.1634 0.3898
C28 C 0.4216(4) -0.0225(7) 0.3496(4)
H29 H 0.3535 -0.0296 0.3372
C29 C 0.4689(6) 0.0682(6) 0.3367(4)
H30 H 0.4325 0.1218 0.3156
C36 C 0.5539(3) 0.2731(4) 0.2851(2)
H36 H 0.5906 0.3192 0.2602
H37 H 0.5118 0.2307 0.2542
Ag1A Ag -0.25367(2) 1.11376(3) 0.254112(17)
Ag1A_2 Ag 0.74633(2) 0.11376(3) 0.254112(17)
S3A S 0.08207(8) 0.56386(9) 0.18682(6)
S4A S 0.35897(8) 0.69189(9) 0.16407(6)
C30? C 0.4365(7) 0.6062(6) 0.1305(4)
C31? C 0.3977(5) 0.5663(6) 0.0698(4)
H31? H 0.3347 0.5859 0.0502
C32? C 0.4529(6) 0.4970(7) 0.0383(3)
H32? H 0.4270 0.4703 -0.0023
C33? C 0.5470(5) 0.4676(6) 0.0676(4)
H33? H 0.5840 0.4213 0.0465
C34? C 0.5858(5) 0.5075(7) 0.1283(4)
H34? H 0.6487 0.4879 0.1479
C35? C 0.5305(7) 0.5768(7) 0.1598(3)
H35? H 0.5565 0.6036 0.2004
loop_
_geom_bond_atom_site_label_1
_geom_bond_atom_site_label_2
_geom_bond_site_symmetry_1
_geom_bond_site_symmetry_2
Ag1 S1 1_555 1_555
Sb1 F1 1_555 1_555
S1 C1 1_555 1_555
S2 Ag1 1_555 1_555
S3 C17 1_555 1_555
S4 C24 1_555 1_555
F2 Sb1 1_555 1_555
F3 Sb1 1_555 1_555
F4 Sb1 1_555 1_555
F5 Sb1 1_555 1_555
F6 Sb1 1_555 1_555
C1 C2 1_555 1_555
C2 H1 1_555 1_555
C3 C2 1_555 1_555
H2 C3 1_555 1_555
C4 C3 1_555 1_555
H3 C4 1_555 1_555
C5 C4 1_555 1_555
H4 C5 1_555 1_555
C6 C1 1_555 1_555
H5 C6 1_555 1_555
C7 S1 1_555 1_555
H6 C7 1_555 1_555
H7 C7 1_555 1_555
C8 C7 1_555 1_555
H8 C8 1_555 1_555
H9 C8 1_555 1_555
C9 S2 1_555 1_555
C10 C9 1_555 1_555
H10 C10 1_555 1_555
C11 C10 1_555 1_555
H11 C11 1_555 1_555
C12 C11 1_555 1_555
H12 C12 1_555 1_555
C13 C12 1_555 1_555
H13 C13 1_555 1_555
C14 C9 1_555 1_555
H14 C14 1_555 1_555
C15 S2 1_555 1_555
H15 C15 1_555 1_555
H16 C15 1_555 1_555
C16 C15 1_555 1_555
H17 C16 1_555 1_555
H18 C16 1_555 1_555
C17 C18 1_555 1_555
C18 H19 1_555 1_555
C19 C18 1_555 1_555
H20 C19 1_555 1_555
C20 C19 1_555 1_555
H21 C20 1_555 1_555
C21 C20 1_555 1_555
H22 C21 1_555 1_555
C22 C17 1_555 1_555
H23 C22 1_555 1_555
C23 S3 1_555 1_555
H24 C23 1_555 1_555
H25 C23 1_555 1_555
C24 C25 1_555 1_555
C25 H26 1_555 1_555
C26 C25 1_555 1_555
H27 C26 1_555 1_555
C27 C26 1_555 1_555
H28 C27 1_555 1_555
C28 C27 1_555 1_555
H29 C28 1_555 1_555
C29 C24 1_555 1_555
H30 C29 1_555 1_555
C36 S4 1_555 1_555
H36 C36 1_555 1_555
H37 C36 1_555 1_555
Ag1A S3 1_555 1_555
Ag1A_2 S4 1_555 1_555
S3A Ag1 1_555 1_555
S4A Ag1 1_555 1_555
C5 C6 1_555 1_555
C8 C23 1_555 1_555
C13 C14 1_555 1_555
C16 C36 1_555 1_555
C21 C22 1_555 1_555
C28 C29 1_555 1_555

#END
