
#######################################################################
#
#                 Cambridge Crystallographic Data Centre
#                                CCDC 
#
#######################################################################
#
# If this CIF has been generated from an entry in the Cambridge 
# Structural Database, then it will include bibliographic, chemical, 
# crystal, experimental, refinement or atomic coordinate data resulting 
# from the CCDC's data processing and validation procedures.
#
#######################################################################

data_XIRQEW
_symmetry_cell_setting           triclinic
_symmetry_space_group_name_H-M   'P -1'
_symmetry_Int_Tables_number      2
_space_group_name_Hall           '-P 1'
loop_
_symmetry_equiv_pos_site_id
_symmetry_equiv_pos_as_xyz
1 x,y,z
2 -x,-y,-z
_cell_length_a                   9.2209(11)
_cell_length_b                   10.2628(12)
_cell_length_c                   12.7492(15)
_cell_angle_alpha                111.6640(10)
_cell_angle_beta                 93.5900(10)
_cell_angle_gamma                112.6310(10)
_cell_volume                     1005.04
loop_
_atom_site_label
_atom_site_type_symbol
_atom_site_fract_x
_atom_site_fract_y
_atom_site_fract_z
Zn1 Zn 1.11708(6) 1.08951(5) 0.18014(4)
O1 O 1.1232(4) 0.8611(4) 0.2464(3)
O2 O 1.1804(4) 0.9218(3) 0.0996(3)
O3 O 1.0825(5) 0.3594(4) 0.2318(3)
O4 O 1.1557(4) 0.2126(3) 0.0904(3)
O5 O 1.3713(5) 0.5177(4) -0.1340(3)
N1 N 0.8929(4) 1.0153(4) 0.2095(3)
N2 N 0.6776(4) 0.8840(4) 0.2537(3)
N3 N 0.6410(6) 0.9861(6) 0.2265(5)
N4 N 0.5365(4) 0.7241(4) 0.5145(3)
N5 N 0.6192(5) 0.6404(5) 0.4698(3)
N6 N 0.7163(4) 0.7797(4) 0.6624(3)
C1 C 1.1927(5) 0.6931(4) 0.0967(3)
C2 C 1.1461(5) 0.5807(4) 0.1400(3)
H1 H 1.0942 0.5920 0.2007
C3 C 1.1773(5) 0.4514(4) 0.0921(3)
C4 C 1.2537(5) 0.4350(5) 0.0012(4)
H2 H 1.2755 0.3490 -0.0304
C5 C 1.2983(5) 0.5462(5) -0.0433(4)
C6 C 1.2672(5) 0.6758(5) 0.0047(4)
H3 H 1.2963 0.7503 -0.0248
C7 C 1.1620(5) 0.8341(5) 0.1522(4)
C8 C 1.1336(5) 0.3340(5) 0.1422(4)
C9 C 1.4246(8) 0.6298(7) -0.1805(5)
H4 H 1.3340 0.6425 -0.2084
H5 H 1.4723 0.5946 -0.2436
H6 H 1.5035 0.7279 -0.1210
C10 C 0.8253(5) 0.9042(5) 0.2443(4)
H7 H 0.8753 0.8479 0.2600
C11 C 0.7763(7) 1.0626(7) 0.1999(6)
H8 H 0.7893 1.1417 0.1767
C12 C 0.5630(5) 0.7683(5) 0.2860(4)
H9 H 0.6171 0.7155 0.3094
H10 H 0.4748 0.6907 0.2187
C13 C 0.4950(5) 0.8410(5) 0.3836(4)
H11 H 0.4160 0.8674 0.3538
H12 H 0.5815 0.9368 0.4422
C14 C 0.4145(5) 0.7310(5) 0.4396(4)
H13 H 0.3464 0.7674 0.4854
H14 H 0.3464 0.6271 0.3793
C15 C 0.5964(5) 0.8062(5) 0.6290(4)
H15 H 0.5590 0.8724 0.6780
C16 C 0.7260(6) 0.6774(5) 0.5626(4)
H16 H 0.8010 0.6368 0.5595
Zn1_2 Zn 1.11708(6) 0.08951(5) 0.18014(4)
Zn1A Zn 0.88292(6) 0.91049(5) 0.81986(4)
O4_2 O 1.1557(4) 1.2126(3) 0.0904(3)
N6A N 1.2837(4) 1.2203(4) 0.3376(3)
O6 O -0.0154(10) 0.5473(10) 0.4122(6)
H17 H 0.0539 0.6314 0.4495
H18 H 0.0126 0.4896 0.3588
O7 O 0.0804(9) 0.8832(11) 0.4623(5)
H19 H 0.0827 0.8493 0.3930
H20 H 0.1229 0.9788 0.4929
loop_
_geom_bond_atom_site_label_1
_geom_bond_atom_site_label_2
_geom_bond_site_symmetry_1
_geom_bond_site_symmetry_2
Zn1 O2 1_555 1_555
O1 C7 1_555 1_555
O2 C7 1_555 1_555
O3 C8 1_555 1_555
O4 C8 1_555 1_555
O5 C5 1_555 1_555
N1 Zn1 1_555 1_555
N2 N3 1_555 1_555
N3 C11 1_555 1_555
N4 N5 1_555 1_555
N5 C16 1_555 1_555
N6 C15 1_555 1_555
C1 C2 1_555 1_555
C2 H1 1_555 1_555
C3 C2 1_555 1_555
C4 C3 1_555 1_555
H2 C4 1_555 1_555
C5 C4 1_555 1_555
C6 C1 1_555 1_555
H3 C6 1_555 1_555
C7 C1 1_555 1_555
C8 C3 1_555 1_555
C9 O5 1_555 1_555
H4 C9 1_555 1_555
H5 C9 1_555 1_555
H6 C9 1_555 1_555
C10 N1 1_555 1_555
H7 C10 1_555 1_555
C11 N1 1_555 1_555
H8 C11 1_555 1_555
C12 N2 1_555 1_555
H9 C12 1_555 1_555
H10 C12 1_555 1_555
C13 C12 1_555 1_555
H11 C13 1_555 1_555
H12 C13 1_555 1_555
C14 N4 1_555 1_555
H13 C14 1_555 1_555
H14 C14 1_555 1_555
C15 N4 1_555 1_555
H15 C15 1_555 1_555
C16 N6 1_555 1_555
H16 C16 1_555 1_555
O6 H17 1_555 1_555
H18 O6 1_555 1_555
O7 H19 1_555 1_555
H20 O7 1_555 1_555
Zn1_2 O4 1_555 1_555
Zn1A N6 1_555 1_555
O4_2 Zn1 1_555 1_555
N6A Zn1 1_555 1_555
N2 C10 1_555 1_555
C5 C6 1_555 1_555
C13 C14 1_555 1_555

#END
