
#######################################################################
#
#                 Cambridge Crystallographic Data Centre
#                                CCDC 
#
#######################################################################
#
# If this CIF has been generated from an entry in the Cambridge 
# Structural Database, then it will include bibliographic, chemical, 
# crystal, experimental, refinement or atomic coordinate data resulting 
# from the CCDC's data processing and validation procedures.
#
#######################################################################

data_XIRYII
_symmetry_cell_setting           triclinic
_symmetry_space_group_name_H-M   'P -1'
_symmetry_Int_Tables_number      2
_space_group_name_Hall           '-P 1'
loop_
_symmetry_equiv_pos_site_id
_symmetry_equiv_pos_as_xyz
1 x,y,z
2 -x,-y,-z
_cell_length_a                   9.89190(10)
_cell_length_b                   10.6931(2)
_cell_length_c                   12.77110(10)
_cell_angle_alpha                81.1430(10)
_cell_angle_beta                 77.83
_cell_angle_gamma                74.36
_cell_volume                     1264.82
loop_
_atom_site_label
_atom_site_type_symbol
_atom_site_fract_x
_atom_site_fract_y
_atom_site_fract_z
Au1 Au 0.352717(19) 0.52122(2) 0.534567(16)
Au2 Au 0.035576(19) 0.59195(2) 0.550434(15)
S1 S 0.65673(14) 0.65014(16) 0.54814(16)
S2 S 0.33124(15) 0.69831(18) 0.62226(15)
S3 S -0.02517(17) 0.49625(17) 0.72023(11)
S4 S -0.09301(15) 0.28944(13) 0.61002(10)
N1 N 0.6796(6) 0.8105(5) 0.7632(5)
N2 N 0.4968(4) 0.8230(4) 0.6713(3)
C1 C 0.3058(6) 0.8615(6) 0.8283(5)
N3 N -0.1137(6) 0.3497(5) 0.9639(4)
N4 N -0.2003(4) 0.3517(4) 0.8054(3)
N5 N -0.2889(6) 0.1742(5) 0.8874(4)
C2 C 0.6280(5) 0.8569(5) 0.6753(5)
C3 C 0.6854(7) 0.9355(7) 0.5930(6)
C4 C 0.8076(8) 0.9665(9) 0.6008(8)
C5 C 0.8668(9) 0.9186(10) 0.6884(10)
C6 C 0.8018(9) 0.8421(9) 0.7668(9)
C7 C 0.3679(5) 0.9035(5) 0.7280(4)
N6 N 0.3256(5) 1.0206(5) 0.6760(4)
C8 C 0.2101(7) 1.1004(7) 0.7267(6)
C9 C 0.1383(7) 1.0665(7) 0.8273(6)
C10 C 0.1869(7) 0.9464(7) 0.8783(5)
C11 C 0.4956(5) 0.7277(5) 0.6162(4)
C12 C -0.2094(5) 0.4095(5) 0.9033(4)
C13 C -0.3160(7) 0.5180(7) 0.9257(6)
C14 C -0.3233(8) 0.5706(8) 1.0194(6)
C15 C -0.2265(9) 0.5121(9) 1.0839(6)
C16 C -0.1246(8) 0.4028(8) 1.0539(6)
C17 C -0.2992(5) 0.2724(5) 0.8118(4)
C18 C -0.4002(6) 0.3056(6) 0.7464(5)
C19 C -0.4952(6) 0.2286(7) 0.7590(5)
C20 C -0.4876(7) 0.1264(6) 0.8364(5)
C21 C -0.3874(8) 0.1036(7) 0.8976(5)
C22 C -0.1136(5) 0.3816(5) 0.7142(4)
H1 H 0.6407 0.9677 0.5339
H2 H 0.8494 1.0195 0.5466
H3 H 0.9510 0.9371 0.6950
H4 H 0.8433 0.8091 0.8274
H5 H 0.1779 1.1834 0.6911
H6 H 0.0572 1.1250 0.8591
H7 H 0.1402 0.9222 0.9467
H8 H -0.3804 0.5553 0.8788
H9 H -0.3934 0.6461 1.0380
H10 H -0.2300 0.5461 1.1475
H11 H -0.0585 0.3629 1.0986
H12 H -0.4038 0.3785 0.6961
H13 H -0.5637 0.2476 0.7149
H14 H -0.5513 0.0731 0.8475
H15 H -0.3838 0.0342 0.9516
H16 H 0.3435 0.7776 0.8624
Au1A Au 0.647283(19) 0.47878(2) 0.465433(16)
Au2A Au -0.035576(19) 0.40805(2) 0.449566(15)
S1A S 0.34327(14) 0.34986(16) 0.45186(16)
S4A S 0.09301(15) 0.71056(13) 0.38998(10)
loop_
_geom_bond_atom_site_label_1
_geom_bond_atom_site_label_2
_geom_bond_site_symmetry_1
_geom_bond_site_symmetry_2
Au1 Au2 1_555 1_555
Au2 S3 1_555 1_555
S1 C11 1_555 1_555
S2 Au1 1_555 1_555
S3 C22 1_555 1_555
S4 C22 1_555 1_555
N1 C2 1_555 1_555
N2 C2 1_555 1_555
C1 C7 1_555 1_555
N3 C12 1_555 1_555
N4 C12 1_555 1_555
N5 C17 1_555 1_555
C2 C3 1_555 1_555
C3 C4 1_555 1_555
C4 C5 1_555 1_555
C5 C6 1_555 1_555
C6 N1 1_555 1_555
C7 N2 1_555 1_555
N6 C7 1_555 1_555
C8 N6 1_555 1_555
C9 C8 1_555 1_555
C10 C1 1_555 1_555
C11 S2 1_555 1_555
C12 C13 1_555 1_555
C13 C14 1_555 1_555
C14 C15 1_555 1_555
C15 C16 1_555 1_555
C16 N3 1_555 1_555
C17 N4 1_555 1_555
C18 C17 1_555 1_555
C19 C18 1_555 1_555
C20 C19 1_555 1_555
C21 N5 1_555 1_555
C22 N4 1_555 1_555
H1 C3 1_555 1_555
H2 C4 1_555 1_555
H3 C5 1_555 1_555
H4 C6 1_555 1_555
H5 C8 1_555 1_555
H6 C9 1_555 1_555
H7 C10 1_555 1_555
H8 C13 1_555 1_555
H9 C14 1_555 1_555
H10 C15 1_555 1_555
H11 C16 1_555 1_555
H12 C18 1_555 1_555
H13 C19 1_555 1_555
H14 C20 1_555 1_555
H15 C21 1_555 1_555
H16 C1 1_555 1_555
Au1A Au1 1_555 1_555
Au2A Au2 1_555 1_555
S1A Au1 1_555 1_555
S4A Au2 1_555 1_555
S1 Au1A 1_555 1_555
S4 Au2A 1_555 1_555
N2 C11 1_555 1_555
C9 C10 1_555 1_555
C20 C21 1_555 1_555

#END
