
#######################################################################
#
#                 Cambridge Crystallographic Data Centre
#                                CCDC 
#
#######################################################################
#
# If this CIF has been generated from an entry in the Cambridge 
# Structural Database, then it will include bibliographic, chemical, 
# crystal, experimental, refinement or atomic coordinate data resulting 
# from the CCDC's data processing and validation procedures.
#
#######################################################################

data_XISGEN
_symmetry_cell_setting           tetragonal
_symmetry_space_group_name_H-M   'I -4'
_symmetry_Int_Tables_number      82
_space_group_name_Hall           'I -4'
loop_
_symmetry_equiv_pos_site_id
_symmetry_equiv_pos_as_xyz
1 x,y,z
2 -x,-y,z
3 y,-x,-z
4 -y,x,-z
5 1/2+x,1/2+y,1/2+z
6 1/2-x,1/2-y,1/2+z
7 1/2+y,1/2-x,1/2-z
8 1/2-y,1/2+x,1/2-z
_cell_length_a                   15.119(3)
_cell_length_b                   15.119(3)
_cell_length_c                   10.368(4)
_cell_angle_alpha                90
_cell_angle_beta                 90
_cell_angle_gamma                90
_cell_volume                     2369.96
loop_
_atom_site_label
_atom_site_type_symbol
_atom_site_fract_x
_atom_site_fract_y
_atom_site_fract_z
C1 C 0.5000 0.5000 0.0000
C2 C 0.5000 0.0000 -0.2500
C3 C 0.5858(3) 0.4868(2) 0.0804(4)
H1 H 0.6359 0.4872 0.0219
H2 H 0.5924 0.5368 0.1381
C4 C 0.5454(2) 0.3844(3) 0.2683(5)
H3 H 0.5030 0.4186 0.3100
C5 C 0.6201(3) 0.0526(3) 0.0247(4)
H4 H 0.5725 0.0383 0.0776
C6 C 0.5744(2) -0.0396(3) -0.1672(3)
H5 H 0.5480 -0.0804 -0.1061
H6 H 0.6128 -0.0738 -0.2231
C7 C 0.6442(3) 0.3383(3) 0.1329(4)
H7 H 0.6822 0.3359 0.0624
C8 C 0.5755(3) 0.3039(3) 0.3059(4)
H8 H 0.5564 0.2730 0.3783
C9 C 0.7397(3) 0.1059(3) -0.0433(4)
H9 H 0.7927 0.1370 -0.0473
C10 C 0.7067(3) 0.0575(3) -0.1377(4)
H10 H 0.7319 0.0486 -0.2184
N1 N 0.6380(2) 0.2757(2) 0.2207(4)
N2 N 0.6847(2) 0.1036(2) 0.0604(3)
N3 N 0.5895(2) 0.4057(2) 0.1570(3)
N4 N 0.6290(2) 0.0228(2) -0.0954(3)
Cl1 Cl 0.67905(10) 0.08136(9) 0.39701(13)
Cl2 Cl 0.85512(7) 0.20402(7) 0.21752(15)
Zn1 Zn 0.71261(3) 0.16455(3) 0.22744(5)
C3A C 0.4142(3) 0.5132(2) 0.0804(4)
H1A H 0.3641 0.5128 0.0219
H2A H 0.4076 0.4632 0.1381
C4A C 0.4546(2) 0.6156(3) 0.2683(5)
H3A H 0.4970 0.5814 0.3100
C7A C 0.3558(3) 0.6617(3) 0.1329(4)
H7A H 0.3178 0.6641 0.0624
C8A C 0.4245(3) 0.6961(3) 0.3059(4)
H8A H 0.4436 0.7270 0.3783
N1A N 0.3620(2) 0.7243(2) 0.2207(4)
N3A N 0.4105(2) 0.5943(2) 0.1570(3)
C3B C 0.4868(2) 0.4142(3) -0.0804(4)
H1B H 0.4872 0.3641 -0.0219
H2B H 0.5368 0.4076 -0.1381
C4B C 0.3844(3) 0.4546(2) -0.2683(5)
H3B H 0.4186 0.4970 -0.3100
C7B C 0.3383(3) 0.3558(3) -0.1329(4)
H7B H 0.3359 0.3178 -0.0624
C8B C 0.3039(3) 0.4245(3) -0.3059(4)
H8B H 0.2730 0.4436 -0.3783
N1B N 0.2757(2) 0.3620(2) -0.2207(4)
N3B N 0.4057(2) 0.4105(2) -0.1570(3)
C3C C 0.5132(2) 0.5858(3) -0.0804(4)
H1C H 0.5128 0.6359 -0.0219
H2C H 0.4632 0.5924 -0.1381
C4C C 0.6156(3) 0.5454(2) -0.2683(5)
H3C H 0.5814 0.5030 -0.3100
C7C C 0.6617(3) 0.6442(3) -0.1329(4)
H7C H 0.6641 0.6822 -0.0624
C8C C 0.6961(3) 0.5755(3) -0.3059(4)
H8C H 0.7270 0.5564 -0.3783
N1C N 0.7243(2) 0.6380(2) -0.2207(4)
N3C N 0.5943(2) 0.5895(2) -0.1570(3)
C5A C 0.3799(3) -0.0526(3) 0.0247(4)
H4A H 0.4275 -0.0383 0.0776
C6A C 0.4256(2) 0.0396(3) -0.1672(3)
H5A H 0.4520 0.0804 -0.1061
H6A H 0.3872 0.0738 -0.2231
C9A C 0.2603(3) -0.1059(3) -0.0433(4)
H9A H 0.2073 -0.1370 -0.0473
C10A C 0.2933(3) -0.0575(3) -0.1377(4)
H10A H 0.2681 -0.0486 -0.2184
N2A N 0.3153(2) -0.1036(2) 0.0604(3)
N4A N 0.3710(2) -0.0228(2) -0.0954(3)
C5F C 0.5526(3) -0.1201(3) -0.5247(4)
H4F H 0.5383 -0.0725 -0.5776
C6F C 0.4604(3) -0.0744(2) -0.3328(3)
H5F H 0.4196 -0.0480 -0.3939
H6F H 0.4262 -0.1128 -0.2769
C9F C 0.6059(3) -0.2397(3) -0.4567(4)
H9F H 0.6370 -0.2927 -0.4527
C10F C 0.5575(3) -0.2067(3) -0.3623(4)
H10F H 0.5486 -0.2319 -0.2816
N2F N 0.6036(2) -0.1847(2) -0.5604(3)
N4F N 0.5228(2) -0.1290(2) -0.4046(3)
C5G C 0.4474(3) 0.1201(3) -0.5247(4)
H4G H 0.4617 0.0725 -0.5776
C6G C 0.5396(3) 0.0744(2) -0.3328(3)
H5G H 0.5804 0.0480 -0.3939
H6G H 0.5738 0.1128 -0.2769
C9G C 0.3941(3) 0.2397(3) -0.4567(4)
H9G H 0.3630 0.2927 -0.4527
C10G C 0.4425(3) 0.2067(3) -0.3623(4)
H10G H 0.4514 0.2319 -0.2816
N2G N 0.3964(2) 0.1847(2) -0.5604(3)
N4G N 0.4772(2) 0.1290(2) -0.4046(3)
Cl1A Cl 0.32095(10) -0.08136(9) 0.39701(13)
Cl2A Cl 0.14488(7) -0.20402(7) 0.21752(15)
Zn1A Zn 0.28739(3) -0.16455(3) 0.22744(5)
Cl1A_2 Cl 0.32095(10) 0.91864(9) 0.39701(13)
Cl2A_2 Cl 0.14488(7) 0.79598(7) 0.21752(15)
Zn1A_2 Zn 0.28739(3) 0.83545(3) 0.22744(5)
Cl1B Cl 0.08136(9) 0.32095(10) -0.39701(13)
Cl2B Cl 0.20402(7) 0.14488(7) -0.21752(15)
Zn1B Zn 0.16455(3) 0.28739(3) -0.22744(5)
N1A_2 N 0.3620(2) -0.2757(2) 0.2207(4)
N2A_2 N 0.3153(2) 0.8964(2) 0.0604(3)
N2B N 0.1036(2) 0.3153(2) -0.0604(3)
Zn1C Zn 0.83545(3) 0.71261(3) -0.22744(5)
Zn1F Zn 0.66455(3) -0.21261(3) -0.72744(5)
Zn1G Zn 0.33545(3) 0.21261(3) -0.72744(5)
loop_
_geom_bond_atom_site_label_1
_geom_bond_atom_site_label_2
_geom_bond_site_symmetry_1
_geom_bond_site_symmetry_2
C1 C3 1_555 1_555
C2 C6 1_555 1_555
C3 H1 1_555 1_555
H2 C3 1_555 1_555
C4 H3 1_555 1_555
C5 H4 1_555 1_555
C6 H5 1_555 1_555
H6 C6 1_555 1_555
C7 H7 1_555 1_555
C8 C4 1_555 1_555
H8 C8 1_555 1_555
C9 H9 1_555 1_555
C10 C9 1_555 1_555
H10 C10 1_555 1_555
N1 C7 1_555 1_555
N2 C5 1_555 1_555
N3 C3 1_555 1_555
N4 C5 1_555 1_555
Cl1 Zn1 1_555 1_555
Cl2 Zn1 1_555 1_555
Zn1 N1 1_555 1_555
C3A C1 1_555 1_555
H1A C3A 1_555 1_555
H2A C3A 1_555 1_555
C4A H3A 1_555 1_555
C7A H7A 1_555 1_555
C8A C4A 1_555 1_555
H8A C8A 1_555 1_555
N1A C7A 1_555 1_555
N3A C3A 1_555 1_555
C3B C1 1_555 1_555
H1B C3B 1_555 1_555
H2B C3B 1_555 1_555
C4B H3B 1_555 1_555
C7B H7B 1_555 1_555
C8B C4B 1_555 1_555
H8B C8B 1_555 1_555
N1B C7B 1_555 1_555
N3B C3B 1_555 1_555
C3C C1 1_555 1_555
H1C C3C 1_555 1_555
H2C C3C 1_555 1_555
C4C H3C 1_555 1_555
C7C H7C 1_555 1_555
C8C C4C 1_555 1_555
H8C C8C 1_555 1_555
N1C C7C 1_555 1_555
N3C C3C 1_555 1_555
C5A H4A 1_555 1_555
C6A C2 1_555 1_555
H5A C6A 1_555 1_555
H6A C6A 1_555 1_555
C9A H9A 1_555 1_555
C10A C9A 1_555 1_555
H10A C10A 1_555 1_555
N2A C5A 1_555 1_555
N4A C5A 1_555 1_555
C5F H4F 1_555 1_555
C6F C2 1_555 1_555
H5F C6F 1_555 1_555
H6F C6F 1_555 1_555
C9F H9F 1_555 1_555
C10F C9F 1_555 1_555
H10F C10F 1_555 1_555
N2F C5F 1_555 1_555
N4F C5F 1_555 1_555
C5G H4G 1_555 1_555
C6G C2 1_555 1_555
H5G C6G 1_555 1_555
H6G C6G 1_555 1_555
C9G H9G 1_555 1_555
C10G C9G 1_555 1_555
H10G C10G 1_555 1_555
N2G C5G 1_555 1_555
N4G C5G 1_555 1_555
Cl1A Zn1A 1_555 1_555
Cl2A Zn1A 1_555 1_555
Zn1A N2A 1_555 1_555
Cl1A_2 Zn1A_2 1_555 1_555
Cl2A_2 Zn1A_2 1_555 1_555
Zn1A_2 N1A 1_555 1_555
Cl1B Zn1B 1_555 1_555
Cl2B Zn1B 1_555 1_555
Zn1B N1B 1_555 1_555
N1A_2 Zn1A 1_555 1_555
N2A_2 Zn1A_2 1_555 1_555
N2B Zn1B 1_555 1_555
Zn1C N1C 1_555 1_555
Zn1F N2F 1_555 1_555
Zn1G N2G 1_555 1_555
C4 N3 1_555 1_555
C6 N4 1_555 1_555
C7 N3 1_555 1_555
C8 N1 1_555 1_555
C9 N2 1_555 1_555
C10 N4 1_555 1_555
N2 Zn1 1_555 1_555
C4A N3A 1_555 1_555
C7A N3A 1_555 1_555
C8A N1A 1_555 1_555
C4B N3B 1_555 1_555
C7B N3B 1_555 1_555
C8B N1B 1_555 1_555
C4C N3C 1_555 1_555
C7C N3C 1_555 1_555
C8C N1C 1_555 1_555
C6A N4A 1_555 1_555
C9A N2A 1_555 1_555
C10A N4A 1_555 1_555
C6F N4F 1_555 1_555
C9F N2F 1_555 1_555
C10F N4F 1_555 1_555
C6G N4G 1_555 1_555
C9G N2G 1_555 1_555
C10G N4G 1_555 1_555

#END
