
#######################################################################
#
#                 Cambridge Crystallographic Data Centre
#                                CCDC 
#
#######################################################################
#
# If this CIF has been generated from an entry in the Cambridge 
# Structural Database, then it will include bibliographic, chemical, 
# crystal, experimental, refinement or atomic coordinate data resulting 
# from the CCDC's data processing and validation procedures.
#
#######################################################################

data_XISMIV
_symmetry_cell_setting           orthorhombic
_symmetry_space_group_name_H-M   'C m m m'
_symmetry_Int_Tables_number      65
_space_group_name_Hall           '-C 2 2'
loop_
_symmetry_equiv_pos_site_id
_symmetry_equiv_pos_as_xyz
1 x,y,z
2 -x,-y,z
3 x,-y,-z
4 -x,y,-z
5 1/2+x,1/2+y,z
6 1/2-x,1/2-y,z
7 1/2+x,1/2-y,-z
8 1/2-x,1/2+y,-z
9 -x,-y,-z
10 x,y,-z
11 -x,y,z
12 x,-y,z
13 1/2-x,1/2-y,-z
14 1/2+x,1/2+y,-z
15 1/2-x,1/2+y,z
16 1/2+x,1/2-y,z
_cell_length_a                   7.342(2)
_cell_length_b                   15.578(4)
_cell_length_c                   7.257(3)
_cell_angle_alpha                90
_cell_angle_beta                 90
_cell_angle_gamma                90
_cell_volume                     830.01
loop_
_atom_site_label
_atom_site_type_symbol
_atom_site_fract_x
_atom_site_fract_y
_atom_site_fract_z
Fe1 Fe 0.0000 0.0000 0.0000
Ni1 Ni 0.5000 0.0000 0.5000
C1 C 0.3202(6) 0.0000 0.3202(7)
N1 N 0.2113(6) 0.0000 0.2079(5)
N2 N 0.0000 0.1464(4) 0.0000
C2 C 0.0000 0.1915(4) 0.160(1)
C3 C 0.0000 0.2804(5) 0.164(1)
C4 C 0.0000 0.3255(7) 0.0000
C5 C 0.0000 0.163(1) 0.352(2)
C3C C 0.0000 0.2804(5) -0.164(1)
C2C C 0.0000 0.1915(4) -0.160(1)
C5C C 0.0000 0.163(1) -0.352(2)
C1A C -0.3202(6) 0.0000 0.3202(7)
N1A N -0.2113(6) 0.0000 0.2079(5)
C1B C 0.3202(6) 0.0000 -0.3202(7)
N1B N 0.2113(6) 0.0000 -0.2079(5)
C1C C -0.3202(6) 0.0000 -0.3202(7)
N1C N -0.2113(6) 0.0000 -0.2079(5)
N2A N 0.0000 -0.1464(4) 0.0000
C2A C 0.0000 -0.1915(4) 0.160(1)
C3A C 0.0000 -0.2804(5) 0.164(1)
C4A C 0.0000 -0.3255(7) 0.0000
C5A C 0.0000 -0.163(1) 0.352(2)
C3B C 0.0000 -0.2804(5) -0.164(1)
C2B C 0.0000 -0.1915(4) -0.160(1)
C5B C 0.0000 -0.163(1) -0.352(2)
C1A_2 C 0.6798(6) 0.0000 0.3202(7)
C1B_2 C 0.3202(6) 0.0000 0.6798(7)
C1C_2 C 0.6798(6) 0.0000 0.6798(7)
Ni1_2 Ni -0.5000 0.0000 0.5000
Ni1_3 Ni 0.5000 0.0000 -0.5000
Ni1_4 Ni -0.5000 0.0000 -0.5000
loop_
_geom_bond_atom_site_label_1
_geom_bond_atom_site_label_2
_geom_bond_site_symmetry_1
_geom_bond_site_symmetry_2
Fe1 N1 1_555 1_555
Ni1 C1 1_555 1_555
C1 N1 1_555 1_555
N2 Fe1 1_555 1_555
C2 N2 1_555 1_555
C3 C2 1_555 1_555
C4 C3 1_555 1_555
C5 C2 1_555 1_555
C3C C4 1_555 1_555
C2C N2 1_555 1_555
C5C C2C 1_555 1_555
C1A N1A 1_555 1_555
N1A Fe1 1_555 1_555
C1B N1B 1_555 1_555
N1B Fe1 1_555 1_555
C1C N1C 1_555 1_555
N1C Fe1 1_555 1_555
N2A Fe1 1_555 1_555
C2A N2A 1_555 1_555
C3A C2A 1_555 1_555
C4A C3A 1_555 1_555
C5A C2A 1_555 1_555
C3B C4A 1_555 1_555
C2B N2A 1_555 1_555
C5B C2B 1_555 1_555
C1A_2 Ni1 1_555 1_555
C1B_2 Ni1 1_555 1_555
C1C_2 Ni1 1_555 1_555
Ni1_2 C1A 1_555 1_555
Ni1_3 C1B 1_555 1_555
Ni1_4 C1C 1_555 1_555
C3C C2C 1_555 1_555
C3B C2B 1_555 1_555

#END
