
#######################################################################
#
#                 Cambridge Crystallographic Data Centre
#                                CCDC 
#
#######################################################################
#
# If this CIF has been generated from an entry in the Cambridge 
# Structural Database, then it will include bibliographic, chemical, 
# crystal, experimental, refinement or atomic coordinate data resulting 
# from the CCDC's data processing and validation procedures.
#
#######################################################################

data_XISPEW02
_symmetry_cell_setting           triclinic
_symmetry_space_group_name_H-M   'P -1'
_symmetry_Int_Tables_number      2
_space_group_name_Hall           '-P 1'
loop_
_symmetry_equiv_pos_site_id
_symmetry_equiv_pos_as_xyz
1 x,y,z
2 -x,-y,-z
_cell_length_a                   7.5174(2)
_cell_length_b                   14.3676(7)
_cell_length_c                   16.350(2)
_cell_angle_alpha                76.831(8)
_cell_angle_beta                 84.282(6)
_cell_angle_gamma                89.965(3)
_cell_volume                     1710.47
loop_
_atom_site_label
_atom_site_type_symbol
_atom_site_fract_x
_atom_site_fract_y
_atom_site_fract_z
Pt1 Pt 0.49365(7) 0.23890(4) 0.03256(4)
Fe1 Fe 0.0000 0.5000 0.0000
Fe2 Fe 0.0000 0.0000 0.0000
N1 N 0.020(2) 0.1004(13) -0.1238(11)
N2 N 0.191(2) 0.0865(11) 0.0353(11)
N3 N 0.799(2) 0.3907(11) 0.0201(11)
N4 N 0.204(2) 0.3979(11) 0.0070(12)
N5 N -0.007(3) 0.4760(18) -0.8626(14)
N6 N 0.788(2) 0.0823(11) 0.0387(11)
C1 C 0.043(3) 0.0657(18) -0.1908(16)
H1 H 0.0538 0.0002 -0.1855
C2 C 0.053(3) 0.1283(16) -0.2721(15)
H2 H 0.0744 0.1034 -0.3198
C3 C 0.030(4) 0.2285(18) -0.2817(15)
C4 C 0.013(4) 0.2617(16) -0.2084(14)
H3 H 0.0057 0.3269 -0.2110
C5 C 0.006(3) 0.1976(14) -0.1318(14)
H4 H -0.0088 0.2209 -0.0830
C6 C 0.031(4) 0.293(2) -0.3649(18)
C7 C 0.016(4) 0.334(2) -0.4366(17)
C8 C 0.301(2) 0.1422(12) 0.0375(12)
C9 C 0.688(2) 0.3364(12) 0.0259(12)
C10 C 0.310(2) 0.3406(11) 0.0181(12)
C11 C 0.680(2) 0.1383(11) 0.0412(12)
C12 C 0.148(4) 0.487(2) -0.8281(18)
H5 H 0.2525 0.5065 -0.8635
C13 C 0.153(4) 0.468(2) -0.7383(18)
H6 H 0.2580 0.4754 -0.7146
C14 C -0.010(4) 0.436(2) -0.6868(16)
C15 C -0.163(4) 0.432(2) -0.7227(19)
H7 H -0.2707 0.4169 -0.6887
C16 C -0.162(4) 0.451(2) -0.8125(16)
H8 H -0.2675 0.4471 -0.8365
C17 C -0.005(4) 0.407(2) -0.5955(19)
C18 C 0.006(4) 0.3814(19) -0.5223(17)
Pt1A Pt -0.49365(7) -0.23890(4) -0.03256(4)
N1A N -0.020(2) -0.1004(13) 0.1238(11)
N2A N -0.191(2) -0.0865(11) -0.0353(11)
N3A N -0.799(2) -0.3907(11) -0.0201(11)
N4A N -0.204(2) -0.3979(11) -0.0070(12)
N5A N 0.007(3) -0.4760(18) 0.8626(14)
N6A N -0.788(2) -0.0823(11) -0.0387(11)
C1A C -0.043(3) -0.0657(18) 0.1908(16)
H1A H -0.0538 -0.0002 0.1855
C2A C -0.053(3) -0.1283(16) 0.2721(15)
H2A H -0.0744 -0.1034 0.3198
C3A C -0.030(4) -0.2285(18) 0.2817(15)
C4A C -0.013(4) -0.2617(16) 0.2084(14)
H3A H -0.0057 -0.3269 0.2110
C5A C -0.006(3) -0.1976(14) 0.1318(14)
H4A H 0.0088 -0.2209 0.0830
C6A C -0.031(4) -0.293(2) 0.3649(18)
C7A C -0.016(4) -0.334(2) 0.4366(17)
C8A C -0.301(2) -0.1422(12) -0.0375(12)
C9A C -0.688(2) -0.3364(12) -0.0259(12)
C10A C -0.310(2) -0.3406(11) -0.0181(12)
C11A C -0.680(2) -0.1383(11) -0.0412(12)
C12A C -0.148(4) -0.487(2) 0.8281(18)
H5A H -0.2525 -0.5065 0.8635
C13A C -0.153(4) -0.468(2) 0.7383(18)
H6A H -0.2580 -0.4754 0.7146
C14A C 0.010(4) -0.436(2) 0.6868(16)
C15A C 0.163(4) -0.432(2) 0.7227(19)
H7A H 0.2707 -0.4169 0.6887
C16A C 0.162(4) -0.451(2) 0.8125(16)
H8A H 0.2675 -0.4471 0.8365
C17A C 0.005(4) -0.407(2) 0.5955(19)
C18A C -0.006(4) -0.3814(19) 0.5223(17)
Fe1_2 Fe -1.0000 -0.5000 0.0000
Fe1_3 Fe 0.0000 -0.5000 0.0000
Fe1_4 Fe 0.0000 -0.5000 1.0000
Fe1_5 Fe 0.0000 0.5000 -1.0000
Fe1_6 Fe 1.0000 0.5000 0.0000
Fe2_2 Fe -1.0000 0.0000 0.0000
Fe2_3 Fe 1.0000 0.0000 0.0000
N3_2 N -0.201(2) 0.3907(11) 0.0201(11)
N3A_2 N 0.201(2) 0.6093(11) -0.0201(11)
N4A_2 N -0.204(2) 0.6021(11) -0.0070(12)
N5_2 N -0.007(3) 0.4760(18) 0.1374(14)
N5A_2 N 0.007(3) 0.5240(18) -0.1374(14)
N6_2 N -0.212(2) 0.0823(11) 0.0387(11)
N6A_2 N 0.212(2) -0.0823(11) -0.0387(11)
C19 C 0.043(5) 0.151(2) 0.381(2)
C20 C 0.091(6) 0.129(3) 0.467(2)
H9 H 0.0137 0.0963 0.5124
C21 C 0.261(6) 0.160(3) 0.475(3)
H10 H 0.3014 0.1459 0.5282
C22 C 0.376(6) 0.213(3) 0.407(3)
H11 H 0.4842 0.2357 0.4185
C23 C 0.339(6) 0.232(3) 0.325(3)
H12 H 0.4208 0.2637 0.2813
C24 C 0.149(5) 0.198(2) 0.308(2)
C25 C 0.105(7) 0.220(3) 0.232(3)
H13 H 0.1820 0.2550 0.1877
C26 C -0.057(6) 0.189(2) 0.219(3)
H14 H -0.0878 0.2020 0.1638
C27 C -0.188(6) 0.138(3) 0.286(3)
H15 H -0.2976 0.1189 0.2731
C28 C -0.146(6) 0.117(3) 0.375(3)
H16 H -0.2250 0.0877 0.4215
C29 C 0.563(4) 0.210(2) 0.6615(17)
C30 C 0.611(5) 0.139(2) 0.619(2)
H17 H 0.6316 0.1546 0.5607
C31 C 0.627(5) 0.048(3) 0.662(3)
H18 H 0.6611 0.0029 0.6313
C32 C 0.596(5) 0.017(3) 0.751(2)
H19 H 0.6014 -0.0477 0.7781
C33 C 0.559(4) 0.085(2) 0.795(2)
H20 H 0.5478 0.0669 0.8541
C34 C 0.538(3) 0.181(2) 0.7558(19)
C35 C 0.491(4) 0.254(3) 0.797(2)
H21 H 0.4707 0.2388 0.8557
C36 C 0.471(5) 0.352(3) 0.754(3)
H22 H 0.4446 0.3992 0.7831
C37 C 0.495(5) 0.372(3) 0.664(3)
H23 H 0.4765 0.4337 0.6351
C38 C 0.540(5) 0.311(3) 0.622(3)
H24 H 0.5580 0.3302 0.5635
loop_
_geom_bond_atom_site_label_1
_geom_bond_atom_site_label_2
_geom_bond_site_symmetry_1
_geom_bond_site_symmetry_2
Pt1 C8 1_555 1_555
Fe1 N4 1_555 1_555
Fe2 N1 1_555 1_555
N1 C1 1_555 1_555
N2 Fe2 1_555 1_555
N3 C9 1_555 1_555
N4 C10 1_555 1_555
N5 C12 1_555 1_555
N6 C11 1_555 1_555
C1 H1 1_555 1_555
C2 C1 1_555 1_555
H2 C2 1_555 1_555
C3 C2 1_555 1_555
C4 C3 1_555 1_555
H3 C4 1_555 1_555
C5 N1 1_555 1_555
H4 C5 1_555 1_555
C6 C3 1_555 1_555
C7 C6 1_555 1_555
C8 N2 1_555 1_555
C9 Pt1 1_555 1_555
C10 Pt1 1_555 1_555
C11 Pt1 1_555 1_555
C12 H5 1_555 1_555
C13 C12 1_555 1_555
H6 C13 1_555 1_555
C14 C13 1_555 1_555
C15 C14 1_555 1_555
H7 C15 1_555 1_555
C16 N5 1_555 1_555
H8 C16 1_555 1_555
C17 C14 1_555 1_555
C18 C7 1_555 1_555
C19 C20 1_555 1_555
C20 H9 1_555 1_555
C21 C20 1_555 1_555
H10 C21 1_555 1_555
C22 C21 1_555 1_555
H11 C22 1_555 1_555
C23 C22 1_555 1_555
H12 C23 1_555 1_555
C24 C19 1_555 1_555
C25 C24 1_555 1_555
H13 C25 1_555 1_555
C26 C25 1_555 1_555
H14 C26 1_555 1_555
C27 C26 1_555 1_555
H15 C27 1_555 1_555
C28 C19 1_555 1_555
H16 C28 1_555 1_555
C29 C30 1_555 1_555
C30 H17 1_555 1_555
C31 C30 1_555 1_555
H18 C31 1_555 1_555
C32 C31 1_555 1_555
H19 C32 1_555 1_555
C33 C32 1_555 1_555
H20 C33 1_555 1_555
C34 C29 1_555 1_555
C35 C34 1_555 1_555
H21 C35 1_555 1_555
C36 C35 1_555 1_555
H22 C36 1_555 1_555
C37 C36 1_555 1_555
H23 C37 1_555 1_555
C38 C29 1_555 1_555
H24 C38 1_555 1_555
Pt1A C8A 1_555 1_555
N1A Fe2 1_555 1_555
N2A Fe2 1_555 1_555
N3A C9A 1_555 1_555
N4A C10A 1_555 1_555
N5A C12A 1_555 1_555
N6A C11A 1_555 1_555
C1A N1A 1_555 1_555
H1A C1A 1_555 1_555
C2A C1A 1_555 1_555
H2A C2A 1_555 1_555
C3A C2A 1_555 1_555
C4A C3A 1_555 1_555
H3A C4A 1_555 1_555
C5A N1A 1_555 1_555
H4A C5A 1_555 1_555
C6A C3A 1_555 1_555
C7A C6A 1_555 1_555
C8A N2A 1_555 1_555
C9A Pt1A 1_555 1_555
C10A Pt1A 1_555 1_555
C11A Pt1A 1_555 1_555
C12A H5A 1_555 1_555
C13A C12A 1_555 1_555
H6A C13A 1_555 1_555
C14A C13A 1_555 1_555
C15A C14A 1_555 1_555
H7A C15A 1_555 1_555
C16A N5A 1_555 1_555
H8A C16A 1_555 1_555
C17A C14A 1_555 1_555
C18A C7A 1_555 1_555
Fe1_2 N3A 1_555 1_555
Fe1_3 N4A 1_555 1_555
Fe1_4 N5A 1_555 1_555
Fe1_5 N5 1_555 1_555
Fe1_6 N3 1_555 1_555
Fe2_2 N6A 1_555 1_555
Fe2_3 N6 1_555 1_555
N3_2 Fe1 1_555 1_555
N3A_2 Fe1 1_555 1_555
N4A_2 Fe1 1_555 1_555
N5_2 Fe1 1_555 1_555
N5A_2 Fe1 1_555 1_555
N6_2 Fe2 1_555 1_555
N6A_2 Fe2 1_555 1_555
C4 C5 1_555 1_555
C15 C16 1_555 1_555
C17 C18 1_555 1_555
C23 C24 1_555 1_555
C27 C28 1_555 1_555
C33 C34 1_555 1_555
C37 C38 1_555 1_555
C4A C5A 1_555 1_555
C15A C16A 1_555 1_555
C17A C18A 1_555 1_555

#END
