
#######################################################################
#
#                 Cambridge Crystallographic Data Centre
#                                CCDC 
#
#######################################################################
#
# If this CIF has been generated from an entry in the Cambridge 
# Structural Database, then it will include bibliographic, chemical, 
# crystal, experimental, refinement or atomic coordinate data resulting 
# from the CCDC's data processing and validation procedures.
#
#######################################################################

data_XISPEU
_symmetry_cell_setting           orthorhombic
_symmetry_space_group_name_H-M   'P n m a'
_symmetry_Int_Tables_number      62
_space_group_name_Hall           '-P 2ac 2n'
loop_
_symmetry_equiv_pos_site_id
_symmetry_equiv_pos_as_xyz
1 x,y,z
2 1/2-x,-y,1/2+z
3 1/2+x,1/2-y,1/2-z
4 -x,1/2+y,-z
5 -x,-y,-z
6 1/2+x,y,1/2-z
7 1/2-x,1/2+y,1/2+z
8 x,1/2-y,z
_cell_length_a                   13.676(3)
_cell_length_b                   10.804(2)
_cell_length_c                   9.528(2)
_cell_angle_alpha                90
_cell_angle_beta                 90
_cell_angle_gamma                90
_cell_volume                     1407.81
loop_
_atom_site_label
_atom_site_type_symbol
_atom_site_fract_x
_atom_site_fract_y
_atom_site_fract_z
Cu1 Cu 0.5000 0.0000 0.5000
N1 N 0.3630(2) -0.0142(2) 0.5733(3)
N2 N 0.4598(2) 0.1405(2) 0.3768(2)
C1 C 0.4767(3) 0.2500 0.4419(5)
O1 O 0.5099(2) 0.2500 0.5671(3)
C2 C 0.3973(3) 0.2500 0.1839(4)
C3 C 0.4196(2) 0.1409(2) 0.2490(3)
C4 C 0.4027(3) 0.0171(3) 0.1817(4)
N2G N 0.4598(2) 0.3595(2) 0.3768(2)
C3G C 0.4196(2) 0.3591(2) 0.2490(3)
C4G C 0.4027(3) 0.4829(3) 0.1817(4)
N1D N 0.6370(2) 0.0142(2) 0.4267(3)
N2D N 0.5402(2) -0.1405(2) 0.6232(2)
Cu1C Cu 0.5000 0.5000 0.5000
Cl1 Cl 0.32540(8) -0.2500 -0.0554(2)
O2 O 0.2418(3) -0.2500 0.0338(5)
O3 O 0.4100(3) -0.2500 0.0286(4)
O4 O 0.3221(2) -0.1415(3) -0.1359(3)
O4G O 0.3221(2) -0.3585(3) -0.1359(3)
O5 O 0.4106(3) 0.2500 -0.1888(4)
O6 O 0.2208(3) 0.2500 -0.0922(5)
loop_
_geom_bond_atom_site_label_1
_geom_bond_atom_site_label_2
_geom_bond_site_symmetry_1
_geom_bond_site_symmetry_2
Cu1 N1 1_555 1_555
N2 Cu1 1_555 1_555
C1 N2 1_555 1_555
O1 C1 1_555 1_555
C2 C3 1_555 1_555
C3 N2 1_555 1_555
C4 C3 1_555 1_555
Cl1 O2 1_555 1_555
O3 Cl1 1_555 1_555
O4 Cl1 1_555 1_555
N2G C1 1_555 1_555
C3G C2 1_555 1_555
C4G C3G 1_555 1_555
O4G Cl1 1_555 1_555
N1D Cu1 1_555 1_555
N2D Cu1 1_555 1_555
Cu1C N2G 1_555 1_555
N2G C3G 1_555 1_555

#END
