
#######################################################################
#
#                 Cambridge Crystallographic Data Centre
#                                CCDC 
#
#######################################################################
#
# If this CIF has been generated from an entry in the Cambridge 
# Structural Database, then it will include bibliographic, chemical, 
# crystal, experimental, refinement or atomic coordinate data resulting 
# from the CCDC's data processing and validation procedures.
#
#######################################################################

data_XISPUM
_symmetry_cell_setting           triclinic
_symmetry_space_group_name_H-M   'P -1'
_symmetry_Int_Tables_number      2
_space_group_name_Hall           '-P 1'
loop_
_symmetry_equiv_pos_site_id
_symmetry_equiv_pos_as_xyz
1 x,y,z
2 -x,-y,-z
_cell_length_a                   7.2443(4)
_cell_length_b                   13.8127(8)
_cell_length_c                   15.4746(9)
_cell_angle_alpha                80.352(5)
_cell_angle_beta                 87.669(5)
_cell_angle_gamma                89.842(5)
_cell_volume                     1525.26
loop_
_atom_site_label
_atom_site_type_symbol
_atom_site_fract_x
_atom_site_fract_y
_atom_site_fract_z
Pt1 Pt 0.00288(3) 0.260609(15) 0.462873(15)
Fe1 Fe -0.5000 0.5000 0.5000
Fe2 Fe 0.5000 0.0000 0.5000
N1 N -0.4918(7) 0.5895(4) 0.3840(4)
N2 N -0.3063(7) 0.4189(3) 0.4610(4)
N3 N 0.3110(7) 0.0999(4) 0.4899(4)
N4 N -0.3101(7) 0.1005(4) 0.4861(4)
N5 N -0.5033(8) 0.9932(4) -0.3700(4)
N6 N 0.3125(7) 0.4185(4) 0.4625(4)
C1 C -0.4853(9) 0.5538(5) 0.3068(4)
H1 H -0.4818 0.4861 0.3091
C2 C -0.4837(11) 0.6122(5) 0.2270(5)
H2 H -0.4798 0.5844 0.1762
C3 C -0.4879(11) 0.7149(5) 0.2214(5)
C4 C -0.4925(11) 0.7519(5) 0.3002(5)
H3 H -0.4940 0.8194 0.2993
C5 C -0.4948(8) 0.6890(4) 0.3788(5)
H4 H -0.4985 0.7152 0.4305
C6 C -0.4890(13) 0.7783(6) 0.1375(5)
C7 C -0.4925(14) 0.8261(6) 0.0660(5)
C8 C -0.4985(15) 0.8763(6) -0.0185(5)
C9 C -0.1918(9) 0.3632(4) 0.4549(4)
C10 C -0.3448(10) 0.9855(5) -0.3262(5)
H5 H -0.2331 0.9944 -0.3584
C11 C -0.3413(12) 0.9650(5) -0.2357(5)
H6 H -0.2293 0.9615 -0.2080
C12 C -0.5065(12) 0.9497(5) -0.1864(5)
C13 C -0.6702(12) 0.9632(5) -0.2300(5)
H7 H -0.7830 0.9579 -0.1986
C14 C -0.6641(10) 0.9851(5) -0.3219(5)
H8 H -0.7745 0.9943 -0.3507
C15 C -0.5029(14) 0.9151(6) -0.0934(5)
C16 C 0.1966(9) 0.1580(4) 0.4799(4)
C17 C -0.1945(8) 0.1585(4) 0.4772(4)
C18 C 0.1965(8) 0.3628(4) 0.4570(4)
Pt1A Pt -1.00288(3) 0.739391(15) 0.537127(15)
N1A N -0.5082(7) 0.4105(4) 0.6160(4)
N2A N -0.6937(7) 0.5811(3) 0.5390(4)
N3A N -1.3110(7) 0.9001(4) 0.5101(4)
N4A N -0.6899(7) 0.8995(4) 0.5139(4)
N5A N -0.4967(8) 0.0068(4) 1.3700(4)
N6A N -1.3125(7) 0.5815(4) 0.5375(4)
C1A C -0.5147(9) 0.4462(5) 0.6932(4)
H1A H -0.5182 0.5139 0.6909
C2A C -0.5163(11) 0.3878(5) 0.7730(5)
H2A H -0.5202 0.4156 0.8238
C3A C -0.5121(11) 0.2851(5) 0.7786(5)
C4A C -0.5075(11) 0.2481(5) 0.6998(5)
H3A H -0.5060 0.1806 0.7007
C5A C -0.5052(8) 0.3110(4) 0.6212(5)
H4A H -0.5015 0.2848 0.5695
C6A C -0.5110(13) 0.2217(6) 0.8625(5)
C7A C -0.5075(14) 0.1739(6) 0.9340(5)
C8A C -0.5015(15) 0.1237(6) 1.0185(5)
C9A C -0.8082(9) 0.6368(4) 0.5451(4)
C10A C -0.6552(10) 0.0145(5) 1.3262(5)
H5A H -0.7669 0.0056 1.3584
C11A C -0.6587(12) 0.0350(5) 1.2357(5)
H6A H -0.7707 0.0385 1.2080
C12A C -0.4935(12) 0.0503(5) 1.1864(5)
C13A C -0.3298(12) 0.0368(5) 1.2300(5)
H7A H -0.2170 0.0421 1.1986
C14A C -0.3359(10) 0.0149(5) 1.3219(5)
H8A H -0.2255 0.0057 1.3507
C15A C -0.4971(14) 0.0849(6) 1.0934(5)
C16A C -1.1966(9) 0.8420(4) 0.5201(4)
C17A C -0.8055(8) 0.8415(4) 0.5228(4)
C18A C -1.1965(8) 0.6372(4) 0.5430(4)
Fe1_2 Fe -1.5000 0.5000 0.5000
Fe1_3 Fe 0.5000 0.5000 0.5000
Fe2_2 Fe -1.5000 1.0000 0.5000
Fe2_3 Fe -0.5000 0.0000 0.5000
Fe2_4 Fe -0.5000 0.0000 1.5000
Fe2_5 Fe -0.5000 1.0000 -0.5000
Fe2_6 Fe -0.5000 1.0000 0.5000
N3A_2 N 0.6890(7) -0.0999(4) 0.5101(4)
N4_2 N 0.6899(7) 0.1005(4) 0.4861(4)
N4A_2 N 0.3101(7) -0.1005(4) 0.5139(4)
N5_2 N 0.4967(8) -0.0068(4) 0.6300(4)
N5A_2 N 0.5033(8) 0.0068(4) 0.3700(4)
N6_2 N -0.6875(7) 0.4185(4) 0.4625(4)
N6A_2 N -0.3125(7) 0.5815(4) 0.5375(4)
N7 N -0.0102(12) 0.1562(7) 0.7904(8)
O1 O -0.0035(12) 0.1181(6) 0.7240(7)
O2 O -0.0091(16) 0.1094(7) 0.8647(7)
C19 C -0.0141(12) 0.2646(7) 0.7796(6)
C20 C -0.0173(15) 0.3086(8) 0.8525(7)
H9 H -0.0186 0.2715 0.9085
C21 C -0.0185(15) 0.4102(9) 0.8402(9)
H10 H -0.0198 0.4426 0.8882
C22 C -0.0179(14) 0.4642(7) 0.7542(8)
H11 H -0.0200 0.5324 0.7460
C23 C -0.0144(12) 0.4174(7) 0.6827(7)
H12 H -0.0122 0.4533 0.6262
C24 C -0.0141(12) 0.3165(7) 0.6962(6)
H13 H -0.0138 0.2834 0.6486
N8 N 0.460(2) 0.388(2) 0.0272(7)
O3 O 0.301(3) 0.3983(18) 0.0007(10)
O4 O 0.600(3) 0.4056(13) -0.0190(6)
C25 C 0.4823(17) 0.3504(6) 0.1161(4)
C26 C 0.6566(14) 0.3397(7) 0.1509(5)
C27 C 0.6744(11) 0.3016(6) 0.2391(5)
C28 C 0.5180(13) 0.2742(5) 0.2926(4)
C29 C 0.3438(11) 0.2850(7) 0.2578(6)
C30 C 0.3260(13) 0.3231(7) 0.1696(6)
loop_
_geom_bond_atom_site_label_1
_geom_bond_atom_site_label_2
_geom_bond_site_symmetry_1
_geom_bond_site_symmetry_2
Pt1 C9 1_555 1_555
Fe1 N1 1_555 1_555
Fe2 N3 1_555 1_555
N1 C1 1_555 1_555
N2 Fe1 1_555 1_555
N3 C16 1_555 1_555
N4 C17 1_555 1_555
N5 C10 1_555 1_555
N6 C18 1_555 1_555
C1 H1 1_555 1_555
C2 C1 1_555 1_555
H2 C2 1_555 1_555
C3 C2 1_555 1_555
C4 C3 1_555 1_555
H3 C4 1_555 1_555
C5 N1 1_555 1_555
H4 C5 1_555 1_555
C6 C3 1_555 1_555
C7 C6 1_555 1_555
C8 C7 1_555 1_555
C9 N2 1_555 1_555
C10 H5 1_555 1_555
C11 C10 1_555 1_555
H6 C11 1_555 1_555
C12 C11 1_555 1_555
C13 C12 1_555 1_555
H7 C13 1_555 1_555
C14 N5 1_555 1_555
H8 C14 1_555 1_555
C15 C8 1_555 1_555
C16 Pt1 1_555 1_555
C17 Pt1 1_555 1_555
C18 Pt1 1_555 1_555
N7 O1 1_555 1_555
O2 N7 1_555 1_555
C19 N7 1_555 1_555
C20 C19 1_555 1_555
H9 C20 1_555 1_555
C21 C20 1_555 1_555
H10 C21 1_555 1_555
C22 C21 1_555 1_555
H11 C22 1_555 1_555
C23 C22 1_555 1_555
H12 C23 1_555 1_555
C24 C19 1_555 1_555
H13 C24 1_555 1_555
N8 O3 1_555 1_555
O4 N8 1_555 1_555
C25 N8 1_555 1_555
C26 C25 1_555 1_555
C27 C26 1_555 1_555
C28 C27 1_555 1_555
C29 C28 1_555 1_555
C30 C25 1_555 1_555
Pt1A C9A 1_555 1_555
N1A Fe1 1_555 1_555
N2A Fe1 1_555 1_555
N3A C16A 1_555 1_555
N4A C17A 1_555 1_555
N5A C10A 1_555 1_555
N6A C18A 1_555 1_555
C1A N1A 1_555 1_555
H1A C1A 1_555 1_555
C2A C1A 1_555 1_555
H2A C2A 1_555 1_555
C3A C2A 1_555 1_555
C4A C3A 1_555 1_555
H3A C4A 1_555 1_555
C5A N1A 1_555 1_555
H4A C5A 1_555 1_555
C6A C3A 1_555 1_555
C7A C6A 1_555 1_555
C8A C7A 1_555 1_555
C9A N2A 1_555 1_555
C10A H5A 1_555 1_555
C11A C10A 1_555 1_555
H6A C11A 1_555 1_555
C12A C11A 1_555 1_555
C13A C12A 1_555 1_555
H7A C13A 1_555 1_555
C14A N5A 1_555 1_555
H8A C14A 1_555 1_555
C15A C8A 1_555 1_555
C16A Pt1A 1_555 1_555
C17A Pt1A 1_555 1_555
C18A Pt1A 1_555 1_555
Fe1_2 N6A 1_555 1_555
Fe1_3 N6 1_555 1_555
Fe2_2 N3A 1_555 1_555
Fe2_3 N4 1_555 1_555
Fe2_4 N5A 1_555 1_555
Fe2_5 N5 1_555 1_555
Fe2_6 N4A 1_555 1_555
N3A_2 Fe2 1_555 1_555
N4_2 Fe2 1_555 1_555
N4A_2 Fe2 1_555 1_555
N5_2 Fe2 1_555 1_555
N5A_2 Fe2 1_555 1_555
N6_2 Fe1 1_555 1_555
N6A_2 Fe1 1_555 1_555
C4 C5 1_555 1_555
C12 C15 1_555 1_555
C13 C14 1_555 1_555
C23 C24 1_555 1_555
C29 C30 1_555 1_555
C4A C5A 1_555 1_555
C12A C15A 1_555 1_555
C13A C14A 1_555 1_555

#END
