
#######################################################################
#
#                 Cambridge Crystallographic Data Centre
#                                CCDC 
#
#######################################################################
#
# If this CIF has been generated from an entry in the Cambridge 
# Structural Database, then it will include bibliographic, chemical, 
# crystal, experimental, refinement or atomic coordinate data resulting 
# from the CCDC's data processing and validation procedures.
#
#######################################################################

data_XISVUR
_symmetry_cell_setting           orthorhombic
_symmetry_space_group_name_H-M   'P b c a'
_symmetry_Int_Tables_number      61
_space_group_name_Hall           '-P 2ac 2ab'
loop_
_symmetry_equiv_pos_site_id
_symmetry_equiv_pos_as_xyz
1 x,y,z
2 1/2-x,-y,1/2+z
3 -x,1/2+y,1/2-z
4 1/2+x,1/2-y,-z
5 -x,-y,-z
6 1/2+x,y,1/2-z
7 x,1/2-y,1/2+z
8 1/2-x,1/2+y,z
_cell_length_a                   14.4669(17)
_cell_length_b                   17.046(2)
_cell_length_c                   18.020(2)
_cell_angle_alpha                90
_cell_angle_beta                 90
_cell_angle_gamma                90
_cell_volume                     4443.78
loop_
_atom_site_label
_atom_site_type_symbol
_atom_site_fract_x
_atom_site_fract_y
_atom_site_fract_z
Zn1 Zn 0.15356(5) 0.05527(4) 0.39834(4)
Zn2 Zn -0.05399(5) 0.06361(4) 0.45333(4)
S1 S -0.23705(12) 0.05022(11) 0.35415(10)
S2 S -0.12329(13) 0.21004(10) 0.54118(11)
O1 O 0.0820(2) 0.0385(2) 0.4889(2)
O2 O -0.1915(3) 0.0885(2) 0.4204(2)
O3 O 0.1020(3) -0.0119(2) 0.3197(2)
O4 O -0.0443(3) -0.0099(2) 0.3614(2)
O5 O 0.0121(3) -0.3389(2) 0.1097(2)
O6 O -0.1346(3) -0.3406(2) 0.1466(2)
O7 O 0.2801(3) 0.0199(2) 0.4025(3)
O8 O 0.2829(3) 0.1103(3) 0.4902(3)
O9 O -0.0706(3) 0.1334(2) 0.5448(2)
C1 C 0.0192(5) -0.0354(4) 0.3221(3)
C2 C -0.0016(4) -0.1041(3) 0.2724(3)
C3 C -0.0876(4) -0.1411(4) 0.2752(3)
H1 H -0.1334 -0.1212 0.3061
C4 C -0.1057(5) -0.2072(4) 0.2324(3)
H2 H -0.1638 -0.2304 0.2340
C5 C -0.0384(4) -0.2382(4) 0.1880(3)
C6 C 0.0456(4) -0.2003(3) 0.1843(3)
H3 H 0.0909 -0.2202 0.1529
C7 C 0.0650(4) -0.1350(4) 0.2248(3)
H4 H 0.1226 -0.1111 0.2208
C8 C -0.0531(5) -0.3111(4) 0.1450(4)
C9 C 0.3187(4) 0.0563(5) 0.4562(4)
C10 C 0.4132(4) 0.0267(4) 0.4773(4)
C11 C 0.4526(5) -0.0380(4) 0.4451(4)
H5 H 0.4212 -0.0646 0.4077
C12 C 0.4623(4) 0.0641(4) 0.5328(3)
H6 H 0.4369 0.1080 0.5557
C13 C -0.1907(5) 0.0980(4) 0.2758(3)
H7 H -0.2039 0.1531 0.2787
H8 H -0.2180 0.0767 0.2316
H9 H -0.1250 0.0901 0.2744
C14 C -0.3491(4) 0.0901(4) 0.3523(4)
H10 H -0.3847 0.0687 0.3924
H11 H -0.3782 0.0774 0.3060
H12 H -0.3455 0.1461 0.3575
C15 C -0.0690(5) 0.2690(4) 0.6072(4)
H13 H -0.0583 0.2390 0.6515
H14 H -0.1077 0.3131 0.6185
H15 H -0.0110 0.2872 0.5879
C16 C -0.2257(5) 0.1904(4) 0.5900(5)
H16 H -0.2580 0.1479 0.5666
H17 H -0.2642 0.2363 0.5899
H18 H -0.2111 0.1764 0.6402
Zn1B Zn -0.15356(5) 0.55527(4) 0.10166(4)
Zn1B_2 Zn -0.15356(5) -0.44473(4) 0.10166(4)
Zn1D Zn 0.84644(5) -0.05527(4) 0.60166(4)
Zn1D_2 Zn -0.15356(5) -0.05527(4) 0.60166(4)
Zn2D Zn 0.05399(5) -0.06361(4) 0.54667(4)
Zn2B Zn 0.05399(5) -0.43639(4) 0.04667(4)
Zn2B_2 Zn 0.05399(5) 0.56361(4) 0.04667(4)
S1D S 0.23705(12) -0.05022(11) 0.64585(10)
S2D S 0.12329(13) -0.21004(10) 0.45882(11)
O1D O -0.0820(2) -0.0385(2) 0.5111(2)
O1B O -0.0820(2) 0.5385(2) 0.0111(2)
O2D O 0.1915(3) -0.0885(2) 0.5796(2)
O3B O -0.1020(3) 0.4881(2) 0.1803(2)
O4B O 0.0443(3) 0.4901(2) 0.1386(2)
O4D O 0.0443(3) 0.0099(2) 0.6386(2)
O5B O -0.0121(3) 0.1611(2) 0.3903(2)
O5F O 0.0121(3) -0.1611(2) 0.6097(2)
O6B O 0.1346(3) 0.1594(2) 0.3534(2)
O6_2 O -0.1346(3) 0.6594(2) 0.1466(2)
O7D O 0.7199(3) -0.0199(2) 0.5975(3)
O7B O -0.2801(3) 0.5199(2) 0.0975(3)
O8D O 0.7171(3) -0.1103(3) 0.5098(3)
O9D O 0.0706(3) -0.1334(2) 0.4552(2)
C1B C -0.0192(5) 0.4646(4) 0.1779(3)
C2B C 0.0016(4) 0.3959(3) 0.2276(3)
C3B C 0.0876(4) 0.3589(4) 0.2248(3)
H1B H 0.1334 0.3788 0.1939
C4B C 0.1057(5) 0.2928(4) 0.2676(3)
H2B H 0.1638 0.2696 0.2660
C5B C 0.0384(4) 0.2618(4) 0.3120(3)
C6B C -0.0456(4) 0.2997(3) 0.3157(3)
H3B H -0.0909 0.2798 0.3471
C7B C -0.0650(4) 0.3650(4) 0.2752(3)
H4B H -0.1226 0.3889 0.2792
C8B C 0.0531(5) 0.1889(4) 0.3550(4)
C9D C 0.6813(4) -0.0563(5) 0.5438(4)
C10D C 0.5868(4) -0.0267(4) 0.5227(4)
C11D C 0.5474(5) 0.0380(4) 0.5549(4)
H5D H 0.5788 0.0646 0.5923
C12D C 0.5377(4) -0.0641(4) 0.4672(3)
H6D H 0.5631 -0.1080 0.4443
C13D C 0.1907(5) -0.0980(4) 0.7242(3)
H7D H 0.2039 -0.1531 0.7213
H8D H 0.2180 -0.0767 0.7684
H9D H 0.1250 -0.0901 0.7256
C14D C 0.3491(4) -0.0901(4) 0.6477(4)
H10D H 0.3847 -0.0687 0.6076
H11D H 0.3782 -0.0774 0.6940
H12D H 0.3455 -0.1461 0.6425
C15D C 0.0690(5) -0.2690(4) 0.3928(4)
H13D H 0.0583 -0.2390 0.3485
H14D H 0.1077 -0.3131 0.3815
H15D H 0.0110 -0.2872 0.4121
C16D C 0.2257(5) -0.1904(4) 0.4100(5)
H16D H 0.2580 -0.1479 0.4334
H17D H 0.2642 -0.2363 0.4101
H18D H 0.2111 -0.1764 0.3598
O10 O 0.2351(5) 0.2331(4) 0.5982(5)
loop_
_geom_bond_atom_site_label_1
_geom_bond_atom_site_label_2
_geom_bond_site_symmetry_1
_geom_bond_site_symmetry_2
Zn1 O1 1_555 1_555
Zn2 O1 1_555 1_555
S1 O2 1_555 1_555
S2 O9 1_555 1_555
O1 Zn2D 1_555 1_555
O2 Zn2 1_555 1_555
O3 Zn1 1_555 1_555
O4 Zn2 1_555 1_555
O5 C8 1_555 1_555
O6 C8 1_555 1_555
O7 Zn1 1_555 1_555
O8 C9 1_555 1_555
O9 Zn2 1_555 1_555
C1 O3 1_555 1_555
C2 C1 1_555 1_555
C3 C2 1_555 1_555
H1 C3 1_555 1_555
C4 C3 1_555 1_555
H2 C4 1_555 1_555
C5 C4 1_555 1_555
C6 C5 1_555 1_555
H3 C6 1_555 1_555
C7 C2 1_555 1_555
H4 C7 1_555 1_555
C8 C5 1_555 1_555
C9 O7 1_555 1_555
C10 C9 1_555 1_555
C11 C10 1_555 1_555
H5 C11 1_555 1_555
C12 C10 1_555 1_555
H6 C12 1_555 1_555
C13 S1 1_555 1_555
H7 C13 1_555 1_555
H8 C13 1_555 1_555
H9 C13 1_555 1_555
C14 S1 1_555 1_555
H10 C14 1_555 1_555
H11 C14 1_555 1_555
H12 C14 1_555 1_555
C15 S2 1_555 1_555
H13 C15 1_555 1_555
H14 C15 1_555 1_555
H15 C15 1_555 1_555
C16 S2 1_555 1_555
H16 C16 1_555 1_555
H17 C16 1_555 1_555
H18 C16 1_555 1_555
Zn1B O1B 1_555 1_555
Zn1B_2 O6 1_555 1_555
Zn1D O7D 1_555 1_555
Zn1D_2 O1D 1_555 1_555
Zn2D O1D 1_555 1_555
Zn2B O5 1_555 1_555
Zn2B_2 O1B 1_555 1_555
S1D O2D 1_555 1_555
S2D O9D 1_555 1_555
O1D Zn2 1_555 1_555
O2D Zn2D 1_555 1_555
O3B Zn1B 1_555 1_555
O4B Zn2B_2 1_555 1_555
O4D Zn2D 1_555 1_555
O5B Zn2 1_555 1_555
O5F Zn2D 1_555 1_555
O6B Zn1 1_555 1_555
O6_2 Zn1B 1_555 1_555
O7D C9D 1_555 1_555
O7B Zn1B 1_555 1_555
O8D C9D 1_555 1_555
O9D Zn2D 1_555 1_555
C1B O3B 1_555 1_555
C2B C1B 1_555 1_555
C3B C2B 1_555 1_555
H1B C3B 1_555 1_555
C4B C3B 1_555 1_555
H2B C4B 1_555 1_555
C5B C4B 1_555 1_555
C6B C5B 1_555 1_555
H3B C6B 1_555 1_555
C7B C2B 1_555 1_555
H4B C7B 1_555 1_555
C8B O5B 1_555 1_555
C9D C10D 1_555 1_555
C10D C11D 1_555 1_555
C11D C12 1_555 1_555
H5D C11D 1_555 1_555
C12D C11 1_555 1_555
H6D C12D 1_555 1_555
C13D S1D 1_555 1_555
H7D C13D 1_555 1_555
H8D C13D 1_555 1_555
H9D C13D 1_555 1_555
C14D S1D 1_555 1_555
H10D C14D 1_555 1_555
H11D C14D 1_555 1_555
H12D C14D 1_555 1_555
C15D S2D 1_555 1_555
H13D C15D 1_555 1_555
H14D C15D 1_555 1_555
H15D C15D 1_555 1_555
C16D S2D 1_555 1_555
H16D C16D 1_555 1_555
H17D C16D 1_555 1_555
H18D C16D 1_555 1_555
O4 C1 1_555 1_555
C6 C7 1_555 1_555
O4B C1B 1_555 1_555
O6B C8B 1_555 1_555
C5B C8B 1_555 1_555
C6B C7B 1_555 1_555
C10D C12D 1_555 1_555

#END
