
#######################################################################
#
#                 Cambridge Crystallographic Data Centre
#                                CCDC 
#
#######################################################################
#
# If this CIF has been generated from an entry in the Cambridge 
# Structural Database, then it will include bibliographic, chemical, 
# crystal, experimental, refinement or atomic coordinate data resulting 
# from the CCDC's data processing and validation procedures.
#
#######################################################################

data_XISXEE
_symmetry_cell_setting           orthorhombic
_symmetry_space_group_name_H-M   'P n n m'
_symmetry_Int_Tables_number      58
_space_group_name_Hall           '-P 2 2n'
loop_
_symmetry_equiv_pos_site_id
_symmetry_equiv_pos_as_xyz
1 x,y,z
2 -x,-y,z
3 1/2+x,1/2-y,1/2-z
4 1/2-x,1/2+y,1/2-z
5 -x,-y,-z
6 x,y,-z
7 1/2-x,1/2+y,1/2+z
8 1/2+x,1/2-y,1/2+z
_cell_length_a                   14.9927(17)
_cell_length_b                   17.2321(16)
_cell_length_c                   24.798(3)
_cell_angle_alpha                90
_cell_angle_beta                 90
_cell_angle_gamma                90
_cell_volume                     6406.7
loop_
_atom_site_label
_atom_site_type_symbol
_atom_site_fract_x
_atom_site_fract_y
_atom_site_fract_z
O9 O 0.5602(5) 0.1010(4) 0.1322(3)
Ni1 Ni 0.30544(6) 0.21086(5) 0.0000
Ni2 Ni 0.39507(7) 0.02422(6) 0.0000
O1 O 0.1916(4) 0.2826(3) 0.0000
O2 O -0.1429(3) 0.2167(2) 0.44174(15)
O3 O 0.4207(3) 0.1406(3) 0.0000
C1 C 0.0000 0.0000 0.2459(3)
O4 O 0.3092(3) 0.0327(2) 0.06131(17)
O5 O 0.2465(3) 0.1485(2) 0.05876(17)
C2 C 0.0756(3) 0.0231(3) 0.20663(18)
C3 C -0.0239(3) 0.0668(3) 0.28504(18)
O6 O 0.5000 0.0000 0.0562(2)
C4 C 0.1932(4) 0.0622(3) 0.1229(2)
C5 C 0.1487(4) -0.0227(3) 0.1956(2)
H1 H 0.1592 -0.0666 0.2165
C6 C 0.1235(4) 0.1087(3) 0.1350(2)
H2 H 0.1157 0.1548 0.1161
C7 C 0.2069(4) -0.0047(3) 0.1539(2)
H3 H 0.2550 -0.0370 0.1466
C8 C 0.0633(4) 0.0888(3) 0.1750(2)
H4 H 0.0137 0.1201 0.1809
O7 O -0.0274(4) 0.2884(3) 0.4159(2)
C9 C -0.1019(4) 0.0599(3) 0.3163(2)
H5 H -0.1421 0.0199 0.3096
C10 C -0.1186(4) 0.1132(3) 0.3572(2)
H6 H -0.1699 0.1086 0.3781
C11 C 0.2561(4) 0.0832(3) 0.0775(2)
C12 C -0.0594(4) 0.1728(3) 0.3670(2)
C13 C 0.0318(4) 0.1276(3) 0.2948(2)
H7 H 0.0826 0.1340 0.2737
C14 C 0.0138(4) 0.1794(4) 0.3352(2)
H8 H 0.0530 0.2204 0.3410
C15 C -0.0801(5) 0.2294(4) 0.4123(3)
O8 O 0.3743(4) -0.0956(3) 0.0000
O2A O 0.1429(3) -0.2167(2) 0.44174(15)
O4A O -0.3092(3) -0.0327(2) 0.06131(17)
O5A O -0.2465(3) -0.1485(2) 0.05876(17)
C2A C -0.0756(3) -0.0231(3) 0.20663(18)
C3A C 0.0239(3) -0.0668(3) 0.28504(18)
C4A C -0.1932(4) -0.0622(3) 0.1229(2)
C5A C -0.1487(4) 0.0227(3) 0.1956(2)
H1A H -0.1592 0.0666 0.2165
C6A C -0.1235(4) -0.1087(3) 0.1350(2)
H2A H -0.1157 -0.1548 0.1161
C7A C -0.2069(4) 0.0047(3) 0.1539(2)
H3A H -0.2550 0.0370 0.1466
C8A C -0.0633(4) -0.0888(3) 0.1750(2)
H4A H -0.0137 -0.1201 0.1809
O7A O 0.0274(4) -0.2884(3) 0.4159(2)
C9A C 0.1019(4) -0.0599(3) 0.3163(2)
H5A H 0.1421 -0.0199 0.3096
C10A C 0.1186(4) -0.1132(3) 0.3572(2)
H6A H 0.1699 -0.1086 0.3781
C11A C -0.2561(4) -0.0832(3) 0.0775(2)
C12A C 0.0594(4) -0.1728(3) 0.3670(2)
C13A C -0.0318(4) -0.1276(3) 0.2948(2)
H7A H -0.0826 -0.1340 0.2737
C14A C -0.0138(4) -0.1794(4) 0.3352(2)
H8A H -0.0530 -0.2204 0.3410
C15A C 0.0801(5) -0.2294(4) 0.4123(3)
Ni1A Ni -0.30544(6) -0.21086(5) 0.0000
Ni1B Ni -0.19456(6) 0.28914(5) 0.5000
Ni1C Ni 0.19456(6) -0.28914(5) 0.5000
Ni2A Ni -0.39507(7) -0.02422(6) 0.0000
Ni2A_2 Ni 0.60493(7) -0.02422(6) 0.0000
O2B O 0.3571(3) 0.2833(2) 0.05826(15)
O2G O 0.3571(3) 0.2833(2) -0.05826(15)
O4E O 0.3092(3) 0.0327(2) -0.06131(17)
O5E O 0.2465(3) 0.1485(2) -0.05876(17)
O6D O 0.5000 0.0000 -0.0562(2)
loop_
_geom_bond_atom_site_label_1
_geom_bond_atom_site_label_2
_geom_bond_site_symmetry_1
_geom_bond_site_symmetry_2
Ni1 O1 1_555 1_555
Ni2 O3 1_555 1_555
O2 C15 1_555 1_555
O3 Ni1 1_555 1_555
C1 C2 1_555 1_555
O4 Ni2 1_555 1_555
O5 Ni1 1_555 1_555
C2 C5 1_555 1_555
C3 C1 1_555 1_555
O6 Ni2 1_555 1_555
C4 C6 1_555 1_555
C5 H1 1_555 1_555
C6 H2 1_555 1_555
C7 C4 1_555 1_555
H3 C7 1_555 1_555
C8 C2 1_555 1_555
H4 C8 1_555 1_555
O7 C15 1_555 1_555
C9 C3 1_555 1_555
H5 C9 1_555 1_555
C10 C9 1_555 1_555
H6 C10 1_555 1_555
C11 O4 1_555 1_555
C12 C10 1_555 1_555
C13 C3 1_555 1_555
H7 C13 1_555 1_555
C14 C12 1_555 1_555
H8 C14 1_555 1_555
C15 C12 1_555 1_555
O8 Ni2 1_555 1_555
O2A C15A 1_555 1_555
O4A C11A 1_555 1_555
O5A C11A 1_555 1_555
C2A C1 1_555 1_555
C3A C1 1_555 1_555
C4A C6A 1_555 1_555
C5A C2A 1_555 1_555
H1A C5A 1_555 1_555
C6A H2A 1_555 1_555
C7A C4A 1_555 1_555
H3A C7A 1_555 1_555
C8A C2A 1_555 1_555
H4A C8A 1_555 1_555
O7A C15A 1_555 1_555
C9A C3A 1_555 1_555
H5A C9A 1_555 1_555
C10A C9A 1_555 1_555
H6A C10A 1_555 1_555
C11A C4A 1_555 1_555
C12A C10A 1_555 1_555
C13A C3A 1_555 1_555
H7A C13A 1_555 1_555
C14A C12A 1_555 1_555
H8A C14A 1_555 1_555
C15A C12A 1_555 1_555
Ni1A O5A 1_555 1_555
Ni1B O2 1_555 1_555
Ni1C O2A 1_555 1_555
Ni2A O4A 1_555 1_555
Ni2A_2 O6 1_555 1_555
O2B Ni1 1_555 1_555
O2G Ni1 1_555 1_555
O4E Ni2 1_555 1_555
O5E Ni1 1_555 1_555
O6D Ni2 1_555 1_555
O5 C11 1_555 1_555
C4 C11 1_555 1_555
C5 C7 1_555 1_555
C6 C8 1_555 1_555
C13 C14 1_555 1_555
C5A C7A 1_555 1_555
C6A C8A 1_555 1_555
C13A C14A 1_555 1_555
Ni2A_2 O6D 1_555 1_555

#END
