
#######################################################################
#
#                 Cambridge Crystallographic Data Centre
#                                CCDC 
#
#######################################################################
#
# If this CIF has been generated from an entry in the Cambridge 
# Structural Database, then it will include bibliographic, chemical, 
# crystal, experimental, refinement or atomic coordinate data resulting 
# from the CCDC's data processing and validation procedures.
#
#######################################################################

data_XITBIN
_symmetry_cell_setting           triclinic
_symmetry_space_group_name_H-M   'P -1'
_symmetry_Int_Tables_number      2
_space_group_name_Hall           '-P 1'
loop_
_symmetry_equiv_pos_site_id
_symmetry_equiv_pos_as_xyz
1 x,y,z
2 -x,-y,-z
_cell_length_a                   9.298(3)
_cell_length_b                   10.903(3)
_cell_length_c                   13.375(4)
_cell_angle_alpha                75.732(5)
_cell_angle_beta                 76.533(5)
_cell_angle_gamma                70.130(5)
_cell_volume                     1219.2
loop_
_atom_site_label
_atom_site_type_symbol
_atom_site_fract_x
_atom_site_fract_y
_atom_site_fract_z
Cu1 Cu 0.60083(5) 0.84827(4) 0.17785(4)
Br1 Br 0.57919(7) 1.24564(5) 0.54242(4)
N1 N 0.8267(4) 0.7838(3) 0.1414(3)
N2 N 1.0686(4) 0.6599(3) 0.1359(3)
N3 N 1.1406(4) 0.0444(3) 0.2614(3)
N4 N 1.3736(4) -0.0823(3) 0.2107(2)
O1 O 0.6154(3) 0.9935(3) 0.2367(2)
O2 O 0.6506(3) 1.1243(3) 0.0813(2)
O3 O 0.5921(3) 1.6567(2) 0.2267(2)
O4 O 0.6470(4) 1.5857(3) 0.0742(2)
O5 O 0.5971(4) 0.8507(3) 0.0119(2)
H1 H 0.621(5) 0.763(5) 0.027(3)
H2 H 0.527(6) 0.882(5) -0.017(4)
C1 C 0.6302(4) 1.1008(4) 0.1780(3)
C2 C 0.6223(4) 1.2085(4) 0.2350(3)
C3 C 0.6072(4) 1.1824(4) 0.3435(3)
H3 H 0.6003 1.1002 0.3815
C4 C 0.6026(5) 1.2808(4) 0.3941(3)
C5 C 0.6110(4) 1.4045(4) 0.3396(3)
H4 H 0.6095 1.4686 0.3749
C6 C 0.6217(4) 1.4314(4) 0.2321(3)
C7 C 0.6271(4) 1.3328(4) 0.1804(3)
H5 H 0.6341 1.3511 0.1080
C8 C 0.6205(4) 1.5696(4) 0.1708(3)
C9 C 0.9173(5) 0.8434(4) 0.0607(3)
H6 H 0.8812 0.9233 0.0160
C10 C 1.0666(5) 0.7674(4) 0.0566(3)
H7 H 1.1513 0.7846 0.0094
C11 C 0.9220(5) 0.6748(4) 0.1850(3)
H8 H 0.8919 0.6155 0.2425
C12 C 1.2068(5) 0.5481(4) 0.1617(4)
H9 H 1.2812 0.5820 0.1777
H10 H 1.2552 0.5056 0.1014
C13 C 1.1657(4) 0.4478(4) 0.2532(3)
C14 C 1.1814(5) 0.4528(4) 0.3540(3)
C15 C 1.1531(5) 0.3539(4) 0.4360(3)
H11 H 1.1673 0.3552 0.5023
C16 C 1.1041(5) 0.2524(4) 0.4230(3)
C17 C 1.0760(4) 0.2540(4) 0.3243(3)
C18 C 1.1084(4) 0.3511(4) 0.2386(3)
C19 C 1.0149(5) 0.1509(4) 0.3086(4)
H12 H 0.9656 0.1123 0.3754
H13 H 0.9372 0.1923 0.2633
C20 C 1.1226(5) -0.0443(4) 0.2121(3)
H14 H 1.0296 -0.0501 0.2020
C21 C 1.2671(5) -0.1220(4) 0.1808(3)
H15 H 1.2905 -0.1912 0.1449
C22 C 1.2918(5) 0.0180(4) 0.2585(3)
H16 H 1.3348 0.0647 0.2867
C23 C 1.2221(5) 0.5657(4) 0.3755(4)
H17 H 1.2185 0.5555 0.4494
H18 H 1.1492 0.6484 0.3513
H19 H 1.3246 0.5648 0.3396
C24 C 1.0837(6) 0.1444(5) 0.5153(4)
H20 H 1.1208 0.1550 0.5729
H21 H 1.1416 0.0595 0.4966
H22 H 0.9759 0.1500 0.5349
C25 C 1.0765(5) 0.3512(4) 0.1322(3)
H23 H 0.9666 0.3766 0.1337
H24 H 1.1234 0.2639 0.1156
H25 H 1.1194 0.4131 0.0800
Cu1_2 Cu 0.60083(5) 1.84827(4) 0.17785(4)
Cu1_3 Cu 1.60083(5) -0.15173(4) 0.17785(4)
N4_2 N 0.3736(4) 0.9177(3) 0.2107(2)
O3_2 O 0.5921(3) 0.6567(2) 0.2267(2)
loop_
_geom_bond_atom_site_label_1
_geom_bond_atom_site_label_2
_geom_bond_site_symmetry_1
_geom_bond_site_symmetry_2
Cu1 N1 1_555 1_555
Br1 C4 1_555 1_555
N1 C9 1_555 1_555
N2 C10 1_555 1_555
N3 C19 1_555 1_555
N4 C21 1_555 1_555
O1 Cu1 1_555 1_555
O2 C1 1_555 1_555
O3 C8 1_555 1_555
O4 C8 1_555 1_555
O5 Cu1 1_555 1_555
H1 O5 1_555 1_555
H2 O5 1_555 1_555
C1 O1 1_555 1_555
C2 C1 1_555 1_555
C3 C2 1_555 1_555
H3 C3 1_555 1_555
C4 C3 1_555 1_555
C5 C4 1_555 1_555
H4 C5 1_555 1_555
C6 C5 1_555 1_555
C7 C2 1_555 1_555
H5 C7 1_555 1_555
C8 C6 1_555 1_555
C9 H6 1_555 1_555
C10 C9 1_555 1_555
H7 C10 1_555 1_555
C11 N1 1_555 1_555
H8 C11 1_555 1_555
C12 N2 1_555 1_555
H9 C12 1_555 1_555
H10 C12 1_555 1_555
C13 C12 1_555 1_555
C14 C13 1_555 1_555
C15 C14 1_555 1_555
H11 C15 1_555 1_555
C16 C15 1_555 1_555
C17 C16 1_555 1_555
C18 C13 1_555 1_555
C19 C17 1_555 1_555
H12 C19 1_555 1_555
H13 C19 1_555 1_555
C20 N3 1_555 1_555
H14 C20 1_555 1_555
C21 C20 1_555 1_555
H15 C21 1_555 1_555
C22 N3 1_555 1_555
H16 C22 1_555 1_555
C23 C14 1_555 1_555
H17 C23 1_555 1_555
H18 C23 1_555 1_555
H19 C23 1_555 1_555
C24 C16 1_555 1_555
H20 C24 1_555 1_555
H21 C24 1_555 1_555
H22 C24 1_555 1_555
C25 C18 1_555 1_555
H23 C25 1_555 1_555
H24 C25 1_555 1_555
H25 C25 1_555 1_555
Cu1_2 O3 1_555 1_555
Cu1_3 N4 1_555 1_555
N4_2 Cu1 1_555 1_555
O3_2 Cu1 1_555 1_555
N2 C11 1_555 1_555
N4 C22 1_555 1_555
C6 C7 1_555 1_555
C17 C18 1_555 1_555

#END
