
#######################################################################
#
#                 Cambridge Crystallographic Data Centre
#                                CCDC 
#
#######################################################################
#
# If this CIF has been generated from an entry in the Cambridge 
# Structural Database, then it will include bibliographic, chemical, 
# crystal, experimental, refinement or atomic coordinate data resulting 
# from the CCDC's data processing and validation procedures.
#
#######################################################################

data_XITCUA
_symmetry_cell_setting           monoclinic
_symmetry_space_group_name_H-M   'C 2/c'
_symmetry_Int_Tables_number      15
_space_group_name_Hall           '-C 2yn'
loop_
_symmetry_equiv_pos_site_id
_symmetry_equiv_pos_as_xyz
1 x,y,z
2 -x,y,1/2-z
3 1/2+x,1/2+y,z
4 1/2-x,1/2+y,1/2-z
5 -x,-y,-z
6 x,-y,1/2+z
7 1/2-x,1/2-y,-z
8 1/2+x,1/2-y,1/2+z
_cell_length_a                   21.6635(16)
_cell_length_b                   8.1817(4)
_cell_length_c                   8.1299(6)
_cell_angle_alpha                90
_cell_angle_beta                 98.514(4)
_cell_angle_gamma                90
_cell_volume                     1425.1
loop_
_atom_site_label
_atom_site_type_symbol
_atom_site_fract_x
_atom_site_fract_y
_atom_site_fract_z
Li1 Li 0.80108(12) 0.6644(3) 0.9447(3)
Li2 Li 0.91913(13) 0.8181(3) 1.0892(3)
O1 O 0.86393(5) 0.80760(13) 0.87531(13)
O2 O 0.90841(5) 1.00731(14) 0.74843(13)
O3 O 0.72265(5) 0.77289(13) 0.84112(12)
O4 O 0.68797(5) 0.95141(13) 0.64312(12)
O5 O 0.91694(5) 0.60635(14) 1.21679(14)
H1 H 0.8801 0.5739 1.2546
H2 H 0.9395 0.5146 1.2142
O6 O 1.00764(5) 0.81042(15) 1.05438(14)
H3 H 1.0296 0.7223 1.1166
H4 H 1.0316 0.9004 1.0892
C1 C 0.86821(7) 0.89680(18) 0.75030(18)
C2 C 0.82374(7) 0.87409(19) 0.58837(17)
H5 H 0.8478 0.8327 0.5057
H6 H 0.8083 0.9811 0.5511
C3 C 0.76738(7) 0.76169(19) 0.58942(17)
H7 H 0.7819 0.6550 0.6344
C4 C 0.72280(7) 0.83446(18) 0.69901(18)
O1F O 0.63607(5) 0.69240(13) 0.12469(13)
O2F O 0.59159(5) 0.49269(14) 0.25157(13)
O3F O 0.77735(5) 0.72711(13) 0.15888(12)
O4F O 0.81203(5) 0.54859(13) 0.35688(12)
C1F C 0.63179(7) 0.60320(18) 0.24970(18)
C2F C 0.67626(7) 0.62591(19) 0.41163(17)
H5F H 0.6522 0.6673 0.4943
H6F H 0.6917 0.5189 0.4489
C3F C 0.73262(7) 0.73831(19) 0.41058(17)
H7F H 0.7181 0.8450 0.3656
C4F C 0.77720(7) 0.66554(18) 0.30099(18)
Li1F Li 0.69892(12) 0.8356(3) 0.0553(3)
Li2F Li 0.58087(13) 0.6819(3) -0.0892(3)
O5F O 0.58306(5) 0.89365(14) -0.21679(14)
H1F H 0.6199 0.9261 -0.2546
H2F H 0.5605 0.9854 -0.2142
O6F O 0.49236(5) 0.68958(15) -0.05438(14)
H3F H 0.4704 0.7777 -0.1166
H4F H 0.4684 0.5996 -0.0892
Li1_2 Li 0.80108(12) 0.6644(3) -0.0553(3)
Li1C Li 0.69892(12) 1.1644(3) 0.5553(3)
Li1E Li 0.80108(12) 0.3356(3) 0.4447(3)
Li1F_2 Li 0.69892(12) 0.8356(3) 1.0553(3)
Li2C Li 0.58087(13) 0.3181(3) 0.4108(3)
Li2E Li 0.91913(13) 1.1819(3) 0.5892(3)
O2C O 0.59159(5) 0.50731(14) -0.24843(13)
O2E O 0.90841(5) 0.99269(14) 1.24843(13)
O3_2 O 0.72265(5) 0.77289(13) -0.15888(12)
O3F_2 O 0.77735(5) 0.72711(13) 1.15888(12)
O4C O 0.81203(5) 0.45141(13) 0.85688(12)
O4E O 0.68797(5) 1.04859(13) 0.14312(12)
O7 O 1.0000 0.3455(2) 1.2500
H8 H 1.0000 0.2798 1.1539
H8A H 1.0000 0.2798 1.3461
loop_
_geom_bond_atom_site_label_1
_geom_bond_atom_site_label_2
_geom_bond_site_symmetry_1
_geom_bond_site_symmetry_2
Li1 O1 1_555 1_555
Li2 O1 1_555 1_555
O1 C1 1_555 1_555
O2 C1 1_555 1_555
O3 Li1 1_555 1_555
O4 C4 1_555 1_555
O5 Li2 1_555 1_555
H1 O5 1_555 1_555
H2 O5 1_555 1_555
O6 Li2 1_555 1_555
H3 O6 1_555 1_555
H4 O6 1_555 1_555
C1 C2 1_555 1_555
C2 H5 1_555 1_555
H6 C2 1_555 1_555
C3 C2 1_555 1_555
H7 C3 1_555 1_555
C4 O3 1_555 1_555
O7 H8 1_555 1_555
O1F C1F 1_555 1_555
O2F C1F 1_555 1_555
O3F C4F 1_555 1_555
O4F C4F 1_555 1_555
C1F C2F 1_555 1_555
C2F H5F 1_555 1_555
H6F C2F 1_555 1_555
C3F C3 1_555 1_555
H7F C3F 1_555 1_555
C4F C3F 1_555 1_555
Li1F O1F 1_555 1_555
Li2F O1F 1_555 1_555
O5F Li2F 1_555 1_555
H1F O5F 1_555 1_555
H2F O5F 1_555 1_555
O6F Li2F 1_555 1_555
H3F O6F 1_555 1_555
H4F O6F 1_555 1_555
Li1_2 O3F 1_555 1_555
Li1C O4 1_555 1_555
Li1E O4F 1_555 1_555
Li1F_2 O3 1_555 1_555
Li2C O2F 1_555 1_555
Li2E O2 1_555 1_555
O2C Li2F 1_555 1_555
O2E Li2 1_555 1_555
O3_2 Li1F 1_555 1_555
O3F_2 Li1 1_555 1_555
O4C Li1 1_555 1_555
O4E Li1F 1_555 1_555
H8A O7 1_555 1_555
C3 C4 1_555 1_555
O3F Li1F 1_555 1_555
C2F C3F 1_555 1_555
Li1_2 O3_2 1_555 1_555
Li1F_2 O3F_2 1_555 1_555

#END
