
#######################################################################
#
#                 Cambridge Crystallographic Data Centre
#                                CCDC 
#
#######################################################################
#
# If this CIF has been generated from an entry in the Cambridge 
# Structural Database, then it will include bibliographic, chemical, 
# crystal, experimental, refinement or atomic coordinate data resulting 
# from the CCDC's data processing and validation procedures.
#
#######################################################################

data_XITDEL
_symmetry_cell_setting           monoclinic
_symmetry_space_group_name_H-M   'P 21/c'
_symmetry_Int_Tables_number      14
_space_group_name_Hall           '-P 2ybc'
loop_
_symmetry_equiv_pos_site_id
_symmetry_equiv_pos_as_xyz
1 x,y,z
2 -x,1/2+y,1/2-z
3 -x,-y,-z
4 x,1/2-y,1/2+z
_cell_length_a                   8.4001(7)
_cell_length_b                   13.7383(11)
_cell_length_c                   6.4302(4)
_cell_angle_alpha                90
_cell_angle_beta                 104.284(5)
_cell_angle_gamma                90
_cell_volume                     719.124
loop_
_atom_site_label
_atom_site_type_symbol
_atom_site_fract_x
_atom_site_fract_y
_atom_site_fract_z
K1 K 0.95222(5) 0.65089(3) 0.11051(6)
O1 O 0.81027(16) 0.83797(9) -0.0063(2)
O2 O 0.54484(15) 0.80538(8) -0.0371(2)
H1 H 0.5798 0.7376 -0.0329
O3 O 0.62358(16) 0.87065(9) 0.42833(19)
O4 O 0.35197(15) 0.88458(9) 0.31143(19)
O5 O 1.17543(16) 0.76708(10) -0.0414(2)
H2 H 1.2437 0.8062 0.0570
H3 H 1.2525 0.7274 -0.0694
O6 O 0.96048(17) 0.46022(9) 0.2277(2)
H4 H 1.0170 0.4265 0.3335
H5 H 0.8594 0.4423 0.2213
C1 C 0.6696(2) 0.86447(12) -0.0129(3)
C2 C 0.6240(2) 0.96985(12) 0.0041(3)
H6 H 0.7193 1.0128 0.0184
C3 C 0.5247(2) 0.99436(12) 0.1747(3)
H7 H 0.5756 1.0492 0.2644
C4 C 0.4960(2) 0.91038(12) 0.3144(3)
O1B O 0.18973(16) 1.16203(9) 0.0063(2)
O2B O 0.45516(15) 1.19462(8) 0.0371(2)
H1B H 0.4202 1.2624 0.0329
O3B O 0.37642(16) 1.12935(9) -0.42833(19)
O4B O 0.64803(15) 1.11542(9) -0.31143(19)
C1B C 0.3304(2) 1.13553(12) 0.0129(3)
C2B C 0.3760(2) 1.03015(12) -0.0041(3)
H6B H 0.2807 0.9872 -0.0184
C3B C 0.4753(2) 1.00564(12) -0.1747(3)
H7B H 0.4244 0.9508 -0.2644
C4B C 0.5040(2) 1.08962(12) -0.3144(3)
K1B K 0.04778(5) 1.34911(3) -0.11051(6)
O5B O -0.17543(16) 1.23292(10) 0.0414(2)
H2B H -0.2437 1.1938 -0.0570
H3B H -0.2525 1.2726 0.0694
O6B O 0.03952(17) 1.53978(9) -0.2277(2)
H4B H -0.0170 1.5735 -0.3335
H5B H 0.1406 1.5577 -0.2213
K1_2 K -0.04778(5) 1.65089(3) 0.11051(6)
K1A K 0.04778(5) 1.15089(3) -0.61051(6)
K1A_2 K 0.04778(5) 1.15089(3) 0.38949(6)
K1B_2 K 1.04778(5) 0.34911(3) -0.11051(6)
K1C K 0.95222(5) 0.84911(3) -0.38949(6)
K1C_2 K 0.95222(5) 0.84911(3) 0.61051(6)
O1A O 0.18973(16) 1.33797(9) -0.4937(2)
O1C O 0.81027(16) 0.66203(9) 0.4937(2)
O3A O 0.37642(16) 1.37065(9) 0.07167(19)
O3C O 0.62358(16) 0.62935(9) -0.07167(19)
O5A O -0.17543(16) 1.26708(10) -0.4586(2)
O5C O 1.17543(16) 0.73292(10) 0.4586(2)
O6_2 O -0.03952(17) 1.46022(9) 0.2277(2)
O6B_2 O 1.03952(17) 0.53978(9) -0.2277(2)
loop_
_geom_bond_atom_site_label_1
_geom_bond_atom_site_label_2
_geom_bond_site_symmetry_1
_geom_bond_site_symmetry_2
K1 O1 1_555 1_555
O1 C1 1_555 1_555
O2 H1 1_555 1_555
O3 C4 1_555 1_555
O4 C4 1_555 1_555
O5 K1 1_555 1_555
H2 O5 1_555 1_555
H3 O5 1_555 1_555
O6 K1 1_555 1_555
H4 O6 1_555 1_555
H5 O6 1_555 1_555
C1 O2 1_555 1_555
C2 C1 1_555 1_555
H6 C2 1_555 1_555
C3 C2 1_555 1_555
H7 C3 1_555 1_555
C4 C3 1_555 1_555
O1B C1B 1_555 1_555
O2B H1B 1_555 1_555
O3B C4B 1_555 1_555
O4B C4B 1_555 1_555
C1B O2B 1_555 1_555
C2B C3 1_555 1_555
H6B C2B 1_555 1_555
C3B C2 1_555 1_555
H7B C3B 1_555 1_555
C4B C3B 1_555 1_555
K1B O1B 1_555 1_555
O5B K1B 1_555 1_555
H2B O5B 1_555 1_555
H3B O5B 1_555 1_555
O6B K1B 1_555 1_555
H4B O6B 1_555 1_555
H5B O6B 1_555 1_555
K1_2 O6B 1_555 1_555
K1A O3B 1_555 1_555
K1A_2 O1B 1_555 1_555
K1B_2 O6 1_555 1_555
K1C O1 1_555 1_555
K1C_2 O3 1_555 1_555
O1A K1B 1_555 1_555
O1C K1 1_555 1_555
O3A K1B 1_555 1_555
O3C K1 1_555 1_555
O5A K1B 1_555 1_555
O5C K1 1_555 1_555
O6_2 K1B 1_555 1_555
O6B_2 K1 1_555 1_555
O5 K1C 1_555 1_555
C1B C2B 1_555 1_555
C2B C3B 1_555 1_555
O5B K1A_2 1_555 1_555
K1_2 O6_2 1_555 1_555
K1A O1A 1_555 1_555
K1A O5A 1_555 1_555
K1B_2 O6B_2 1_555 1_555
K1C_2 O1C 1_555 1_555
K1C_2 O5C 1_555 1_555

#END
