
#######################################################################
#
#                 Cambridge Crystallographic Data Centre
#                                CCDC 
#
#######################################################################
#
# If this CIF has been generated from an entry in the Cambridge 
# Structural Database, then it will include bibliographic, chemical, 
# crystal, experimental, refinement or atomic coordinate data resulting 
# from the CCDC's data processing and validation procedures.
#
#######################################################################

data_XITLIV
_symmetry_cell_setting           monoclinic
_symmetry_space_group_name_H-M   'P n'
_symmetry_Int_Tables_number      7
_space_group_name_Hall           'P -2yac'
loop_
_symmetry_equiv_pos_site_id
_symmetry_equiv_pos_as_xyz
1 x,y,z
2 1/2+x,-y,1/2+z
_cell_length_a                   11.163(3)
_cell_length_b                   17.485(4)
_cell_length_c                   11.486(3)
_cell_angle_alpha                90
_cell_angle_beta                 91.452(5)
_cell_angle_gamma                90
_cell_volume                     2241.18
loop_
_atom_site_label
_atom_site_type_symbol
_atom_site_fract_x
_atom_site_fract_y
_atom_site_fract_z
Ag1 Ag 0.04226(6) 0.21850(4) 0.33980(6)
Ag2 Ag 0.08496(6) 0.29666(4) -0.15054(6)
P1 P 0.25505(18) 0.33080(11) -0.03447(18)
P2 P 0.12603(19) 0.12339(11) 0.46283(19)
N1 N -0.0468(6) 0.2825(3) 0.1990(6)
N2 N 0.1259(6) 0.3498(4) 0.1600(6)
H1 H 0.1545 0.3327 0.2251
N3 N -0.0408(6) 0.2945(4) 0.6997(6)
N4 N 0.0137(6) 0.1719(4) 0.6597(6)
H2 H 0.0528 0.1734 0.7252
N5 N 0.1251(11) 0.3425(5) 0.4379(9)
N6 N 0.0071(10) 0.1735(6) -0.0612(10)
C1 C 0.3311(7) 0.2537(4) 0.0397(7)
C2 C 0.4129(9) 0.2661(5) 0.1336(9)
H3 H 0.4285 0.3159 0.1578
C3 C 0.4692(9) 0.2080(6) 0.1892(10)
H4 H 0.5238 0.2178 0.2499
C4 C 0.4452(10) 0.1341(8) 0.1557(13)
H5 H 0.4830 0.0937 0.1945
C5 C 0.3669(10) 0.1197(5) 0.0665(13)
H6 H 0.3512 0.0693 0.0451
C6 C 0.3094(8) 0.1785(5) 0.0063(10)
H7 H 0.2570 0.1677 -0.0557
C7 C 0.3765(8) 0.3827(4) -0.1004(7)
C8 C 0.3657(12) 0.4622(6) -0.1178(12)
H8 H 0.2971 0.4880 -0.0954
C9 C 0.4592(15) 0.5017(7) -0.1689(13)
H9 H 0.4533 0.5545 -0.1768
C10 C 0.5550(13) 0.4672(8) -0.2063(13)
H10 H 0.6158 0.4947 -0.2411
C11 C 0.5626(12) 0.3923(9) -0.1931(13)
H11 H 0.6293 0.3675 -0.2219
C12 C 0.4747(11) 0.3476(7) -0.1374(11)
H12 H 0.4852 0.2953 -0.1270
C13 C 0.2060(7) 0.3913(5) 0.0854(7)
H13 H 0.2753 0.4085 0.1308
H14 H 0.1653 0.4361 0.0540
C14 C 0.0095(7) 0.3365(4) 0.1340(7)
C15 C -0.0516(7) 0.3735(5) 0.0431(8)
H15 H -0.0127 0.4089 -0.0030
C16 C -0.1698(9) 0.3567(6) 0.0229(10)
H16 H -0.2102 0.3791 -0.0402
C17 C -0.2312(10) 0.3066(7) 0.0953(13)
H17 H -0.3136 0.2994 0.0880
C18 C -0.1648(9) 0.2695(6) 0.1756(9)
H18 H -0.2024 0.2320 0.2188
C19 C 0.1564(8) 0.0289(5) 0.4050(8)
C20 C 0.1515(11) -0.0359(5) 0.4682(11)
H19 H 0.1259 -0.0345 0.5446
C21 C 0.1847(12) -0.1047(7) 0.4184(15)
H20 H 0.1788 -0.1487 0.4634
C22 C 0.2237(10) -0.1121(8) 0.3128(16)
H21 H 0.2505 -0.1591 0.2858
C23 C 0.2239(14) -0.0491(8) 0.2438(13)
H22 H 0.2444 -0.0532 0.1660
C24 C 0.1929(13) 0.0227(7) 0.2905(11)
H23 H 0.1969 0.0662 0.2443
C25 C 0.2682(8) 0.1531(5) 0.5317(8)
C26 C 0.3103(9) 0.1236(6) 0.6364(8)
H24 H 0.2626 0.0900 0.6775
C27 C 0.4210(9) 0.1430(7) 0.6807(11)
H25 H 0.4501 0.1196 0.7484
C28 C 0.4883(10) 0.1955(8) 0.6272(14)
H26 H 0.5618 0.2105 0.6597
C29 C 0.4463(10) 0.2275(8) 0.5217(14)
H27 H 0.4924 0.2636 0.4837
C30 C 0.3380(9) 0.2057(5) 0.4749(11)
H28 H 0.3111 0.2264 0.4044
C31 C 0.0277(8) 0.1043(4) 0.5877(7)
H29 H -0.0504 0.0878 0.5586
H30 H 0.0618 0.0633 0.6347
C32 C -0.0563(6) 0.2325(4) 0.6313(7)
C33 C -0.1409(7) 0.2334(5) 0.5392(8)
H31 H -0.1513 0.1901 0.4930
C34 C -0.2072(8) 0.2962(6) 0.5170(8)
H32 H -0.2619 0.2972 0.4545
C35 C -0.1923(9) 0.3601(6) 0.5900(10)
H33 H -0.2395 0.4035 0.5793
C36 C -0.1087(9) 0.3571(5) 0.6752(9)
H34 H -0.0962 0.4006 0.7205
C37 C 0.1750(11) 0.3775(7) 0.5064(11)
C38 C 0.242(2) 0.4227(12) 0.5863(14)
H35 H 0.3000 0.3911 0.6268
H36 H 0.1896 0.4454 0.6412
H37 H 0.2831 0.4622 0.5450
C39 C -0.0074(9) 0.1170(8) -0.0190(9)
C40 C -0.0276(13) 0.0407(8) 0.0324(17)
H38 H -0.0962 0.0173 -0.0050
H39 H -0.0413 0.0460 0.1141
H40 H 0.0417 0.0092 0.0214
N3_2 N -0.0408(6) 0.2945(4) -0.3003(6)
Ag2_2 Ag 0.08496(6) 0.29666(4) 0.84946(6)
Cl1 Cl 0.7369(2) 0.05799(13) -0.6571(2)
O1 O 0.6597(9) 0.0010(5) -0.6877(10)
O2 O 0.7311(18) 0.0645(11) -0.5355(10)
O3 O 0.704(3) 0.1243(10) -0.708(2)
O4 O 0.8524(10) 0.0412(14) -0.679(2)
Cl2 Cl 0.0203(3) 0.55402(14) -0.1588(3)
O8 O 0.0800(12) 0.6126(6) -0.2051(14)
O9 O 0.0732(10) 0.4834(4) -0.1688(10)
O10 O -0.1004(8) 0.5537(8) -0.1730(12)
O11 O 0.0433(14) 0.5620(7) -0.0323(9)
O5? O 0.6737(14) 0.1197(10) -0.613(2)
O6? O 0.782(3) 0.0868(16) -0.7611(19)
O7? O 0.825(2) 0.0378(10) -0.586(3)
loop_
_geom_bond_atom_site_label_1
_geom_bond_atom_site_label_2
_geom_bond_site_symmetry_1
_geom_bond_site_symmetry_2
Ag1 P2 1_555 1_555
Ag2 P1 1_555 1_555
P1 C1 1_555 1_555
P2 C19 1_555 1_555
N1 Ag1 1_555 1_555
N2 H1 1_555 1_555
N3 C32 1_555 1_555
N4 H2 1_555 1_555
N5 Ag1 1_555 1_555
N6 Ag2 1_555 1_555
C1 C2 1_555 1_555
C2 H3 1_555 1_555
C3 C2 1_555 1_555
H4 C3 1_555 1_555
C4 C3 1_555 1_555
H5 C4 1_555 1_555
C5 C4 1_555 1_555
H6 C5 1_555 1_555
C6 C1 1_555 1_555
H7 C6 1_555 1_555
C7 P1 1_555 1_555
C8 C7 1_555 1_555
H8 C8 1_555 1_555
C9 C8 1_555 1_555
H9 C9 1_555 1_555
C10 C9 1_555 1_555
H10 C10 1_555 1_555
C11 C10 1_555 1_555
H11 C11 1_555 1_555
C12 C7 1_555 1_555
H12 C12 1_555 1_555
C13 P1 1_555 1_555
H13 C13 1_555 1_555
H14 C13 1_555 1_555
C14 N1 1_555 1_555
C15 C14 1_555 1_555
H15 C15 1_555 1_555
C16 C15 1_555 1_555
H16 C16 1_555 1_555
C17 C16 1_555 1_555
H17 C17 1_555 1_555
C18 N1 1_555 1_555
H18 C18 1_555 1_555
C19 C20 1_555 1_555
C20 H19 1_555 1_555
C21 C20 1_555 1_555
H20 C21 1_555 1_555
C22 C21 1_555 1_555
H21 C22 1_555 1_555
C23 C22 1_555 1_555
H22 C23 1_555 1_555
C24 C19 1_555 1_555
H23 C24 1_555 1_555
C25 P2 1_555 1_555
C26 C25 1_555 1_555
H24 C26 1_555 1_555
C27 C26 1_555 1_555
H25 C27 1_555 1_555
C28 C27 1_555 1_555
H26 C28 1_555 1_555
C29 C28 1_555 1_555
H27 C29 1_555 1_555
C30 C25 1_555 1_555
H28 C30 1_555 1_555
C31 P2 1_555 1_555
H29 C31 1_555 1_555
H30 C31 1_555 1_555
C32 N4 1_555 1_555
C33 C32 1_555 1_555
H31 C33 1_555 1_555
C34 C33 1_555 1_555
H32 C34 1_555 1_555
C35 C34 1_555 1_555
H33 C35 1_555 1_555
C36 N3 1_555 1_555
H34 C36 1_555 1_555
C37 N5 1_555 1_555
C38 C37 1_555 1_555
H35 C38 1_555 1_555
H36 C38 1_555 1_555
H37 C38 1_555 1_555
C39 N6 1_555 1_555
C40 C39 1_555 1_555
H38 C40 1_555 1_555
H39 C40 1_555 1_555
H40 C40 1_555 1_555
Cl1 O1 1_555 1_555
O2 Cl1 1_555 1_555
O3 Cl1 1_555 1_555
O4 Cl1 1_555 1_555
Cl2 O8 1_555 1_555
O9 Cl2 1_555 1_555
O10 Cl2 1_555 1_555
O11 Cl2 1_555 1_555
N3_2 Ag2 1_555 1_555
Ag2_2 N3 1_555 1_555
N2 C13 1_555 1_555
N2 C14 1_555 1_555
N4 C31 1_555 1_555
C5 C6 1_555 1_555
C11 C12 1_555 1_555
C17 C18 1_555 1_555
C23 C24 1_555 1_555
C29 C30 1_555 1_555
C35 C36 1_555 1_555

#END
