
#######################################################################
#
#                 Cambridge Crystallographic Data Centre
#                                CCDC 
#
#######################################################################
#
# If this CIF has been generated from an entry in the Cambridge 
# Structural Database, then it will include bibliographic, chemical, 
# crystal, experimental, refinement or atomic coordinate data resulting 
# from the CCDC's data processing and validation procedures.
#
#######################################################################

data_XITNAP
_symmetry_cell_setting           monoclinic
_symmetry_space_group_name_H-M   'P 21/c'
_symmetry_Int_Tables_number      14
_space_group_name_Hall           '-P 2ybc'
loop_
_symmetry_equiv_pos_site_id
_symmetry_equiv_pos_as_xyz
1 x,y,z
2 x,1/2-y,1/2+z
3 -x,-y,-z
4 -x,1/2+y,1/2-z
_cell_length_a                   10.239(3)
_cell_length_b                   11.040(4)
_cell_length_c                   12.383(4)
_cell_angle_alpha                90
_cell_angle_beta                 101.761(6)
_cell_angle_gamma                90
_cell_volume                     1370.37
loop_
_atom_site_label
_atom_site_type_symbol
_atom_site_fract_x
_atom_site_fract_y
_atom_site_fract_z
Cu1 Cu 1.0000 0.0000 1.0000
O1 O 0.7783(3) 0.0606(2) 1.0856(2)
N1 N 0.9035(3) 0.4212(2) 1.3559(2)
N2 N 0.7240(3) 0.0519(2) 1.1694(2)
N3 N 0.6590(3) 0.0936(2) 1.3226(2)
C1 C 0.7990(3) 0.3130(3) 1.1543(3)
H1 H 0.7660 0.2762 1.0867
N4 N 1.0897(3) 0.2403(3) 1.0056(3)
C2 C 0.8564(4) 0.4257(3) 1.1595(3)
H2 H 0.8607 0.4673 1.0949
C3 C 0.8446(3) 0.3123(3) 1.3514(3)
H3 H 0.8393 0.2736 1.4171
N5 N 1.0859(3) 0.1506(3) 1.0553(2)
C4 C 0.7914(3) 0.2550(3) 1.2523(3)
C5 C 0.7281(3) 0.1363(3) 1.2494(3)
O2 O 0.6415(3) 0.1481(2) 1.4085(2)
C6 C 0.9073(3) 0.4767(3) 1.2597(3)
H4 H 0.9463 0.5530 1.2616
C7 C 0.5814(3) -0.0185(3) 1.2813(3)
C8 C 0.6641(4) -0.0655(3) 1.1988(3)
C9 C 0.5738(4) -0.1030(3) 1.3768(3)
H5 H 0.5204 -0.0663 1.4232
H6 H 0.5342 -0.1783 1.3485
H7 H 0.6620 -0.1175 1.4188
C10 C 0.5861(4) -0.1268(3) 1.0966(3)
H8 H 0.6463 -0.1529 1.0511
H9 H 0.5398 -0.1956 1.1177
H10 H 0.5228 -0.0707 1.0562
C11 C 0.7818(4) -0.1443(3) 1.2523(3)
H11 H 0.8291 -0.1707 1.1971
H12 H 0.8406 -0.0983 1.3076
H13 H 0.7496 -0.2136 1.2858
C12 C 0.4435(4) 0.0259(3) 1.2271(3)
H14 H 0.3977 0.0538 1.2828
H15 H 0.4514 0.0912 1.1777
H16 H 0.3941 -0.0393 1.1866
N6 N 1.0954(5) 0.3299(3) 0.9604(3)
O1B O 1.2217(3) -0.0606(2) 0.9144(2)
N1B N 1.0965(3) -0.4212(2) 0.6441(2)
N2B N 1.2760(3) -0.0519(2) 0.8306(2)
N3B N 1.3410(3) -0.0936(2) 0.6774(2)
C1B C 1.2010(3) -0.3130(3) 0.8457(3)
H1B H 1.2340 -0.2762 0.9133
C2B C 1.1436(4) -0.4257(3) 0.8405(3)
H2B H 1.1393 -0.4673 0.9051
C3B C 1.1554(3) -0.3123(3) 0.6486(3)
H3B H 1.1607 -0.2736 0.5829
C4B C 1.2086(3) -0.2550(3) 0.7477(3)
C5B C 1.2719(3) -0.1363(3) 0.7506(3)
O2B O 1.3585(3) -0.1481(2) 0.5915(2)
C6B C 1.0927(3) -0.4767(3) 0.7403(3)
H4B H 1.0537 -0.5530 0.7384
C7B C 1.4186(3) 0.0185(3) 0.7187(3)
C8B C 1.3359(4) 0.0655(3) 0.8012(3)
C9B C 1.4262(4) 0.1030(3) 0.6232(3)
H5B H 1.4796 0.0663 0.5768
H6B H 1.4658 0.1783 0.6515
H7B H 1.3380 0.1175 0.5812
C10B C 1.4139(4) 0.1268(3) 0.9034(3)
H8B H 1.3537 0.1529 0.9489
H9B H 1.4602 0.1956 0.8823
H10B H 1.4772 0.0707 0.9438
C11B C 1.2182(4) 0.1443(3) 0.7477(3)
H11B H 1.1709 0.1707 0.8029
H12B H 1.1594 0.0983 0.6924
H13B H 1.2504 0.2136 0.7142
C12B C 1.5565(4) -0.0259(3) 0.7729(3)
H14B H 1.6023 -0.0538 0.7172
H15B H 1.5486 -0.0912 0.8223
H16B H 1.6059 0.0393 0.8134
N4B N 0.9103(3) -0.2403(3) 0.9944(3)
N5B N 0.9141(3) -0.1506(3) 0.9447(2)
N6B N 0.9046(5) -0.3299(3) 1.0396(3)
N1A N 0.9035(3) 0.0788(2) 0.8559(2)
N1C N 1.0965(3) -0.0788(2) 1.1441(2)
Cu1A Cu 1.0000 0.5000 1.5000
Cu1A_2 Cu 1.0000 -0.5000 0.5000
loop_
_geom_bond_atom_site_label_1
_geom_bond_atom_site_label_2
_geom_bond_site_symmetry_1
_geom_bond_site_symmetry_2
Cu1 O1 1_555 1_555
O1 N2 1_555 1_555
N1 C3 1_555 1_555
N2 C5 1_555 1_555
N3 C5 1_555 1_555
C1 H1 1_555 1_555
N4 N5 1_555 1_555
C2 C1 1_555 1_555
H2 C2 1_555 1_555
C3 H3 1_555 1_555
N5 Cu1 1_555 1_555
C4 C1 1_555 1_555
C5 C4 1_555 1_555
O2 N3 1_555 1_555
C6 N1 1_555 1_555
H4 C6 1_555 1_555
C7 N3 1_555 1_555
C8 N2 1_555 1_555
C9 C7 1_555 1_555
H5 C9 1_555 1_555
H6 C9 1_555 1_555
H7 C9 1_555 1_555
C10 C8 1_555 1_555
H8 C10 1_555 1_555
H9 C10 1_555 1_555
H10 C10 1_555 1_555
C11 C8 1_555 1_555
H11 C11 1_555 1_555
H12 C11 1_555 1_555
H13 C11 1_555 1_555
C12 C7 1_555 1_555
H14 C12 1_555 1_555
H15 C12 1_555 1_555
H16 C12 1_555 1_555
N6 N4 1_555 1_555
O1B Cu1 1_555 1_555
N1B C3B 1_555 1_555
N2B O1B 1_555 1_555
N3B C5B 1_555 1_555
C1B H1B 1_555 1_555
C2B C1B 1_555 1_555
H2B C2B 1_555 1_555
C3B H3B 1_555 1_555
C4B C1B 1_555 1_555
C5B N2B 1_555 1_555
O2B N3B 1_555 1_555
C6B N1B 1_555 1_555
H4B C6B 1_555 1_555
C7B N3B 1_555 1_555
C8B N2B 1_555 1_555
C9B C7B 1_555 1_555
H5B C9B 1_555 1_555
H6B C9B 1_555 1_555
H7B C9B 1_555 1_555
C10B C8B 1_555 1_555
H8B C10B 1_555 1_555
H9B C10B 1_555 1_555
H10B C10B 1_555 1_555
C11B C8B 1_555 1_555
H11B C11B 1_555 1_555
H12B C11B 1_555 1_555
H13B C11B 1_555 1_555
C12B C7B 1_555 1_555
H14B C12B 1_555 1_555
H15B C12B 1_555 1_555
H16B C12B 1_555 1_555
N4B N5B 1_555 1_555
N5B Cu1 1_555 1_555
N6B N4B 1_555 1_555
N1A Cu1 1_555 1_555
N1C Cu1 1_555 1_555
Cu1A N1 1_555 1_555
Cu1A_2 N1B 1_555 1_555
C2 C6 1_555 1_555
C3 C4 1_555 1_555
C7 C8 1_555 1_555
C2B C6B 1_555 1_555
C3B C4B 1_555 1_555
C4B C5B 1_555 1_555
C7B C8B 1_555 1_555

#END
