
#######################################################################
#
#                 Cambridge Crystallographic Data Centre
#                                CCDC 
#
#######################################################################
#
# If this CIF has been generated from an entry in the Cambridge 
# Structural Database, then it will include bibliographic, chemical, 
# crystal, experimental, refinement or atomic coordinate data resulting 
# from the CCDC's data processing and validation procedures.
#
#######################################################################

data_XITTOL
_symmetry_cell_setting           monoclinic
_symmetry_space_group_name_H-M   'P 21/c'
_symmetry_Int_Tables_number      14
_space_group_name_Hall           '-P 2ybc'
loop_
_symmetry_equiv_pos_site_id
_symmetry_equiv_pos_as_xyz
1 x,y,z
2 -x,1/2+y,1/2-z
3 -x,-y,-z
4 x,1/2-y,1/2+z
_cell_length_a                   13.093(3)
_cell_length_b                   6.9457(15)
_cell_length_c                   14.027(3)
_cell_angle_alpha                90
_cell_angle_beta                 99.983(4)
_cell_angle_gamma                90
_cell_volume                     1256.3
loop_
_atom_site_label
_atom_site_type_symbol
_atom_site_fract_x
_atom_site_fract_y
_atom_site_fract_z
Cu1 Cu 0.53796(6) 0.54866(12) 0.40807(5)
Br1 Br 1.04324(5) 0.41979(11) 0.70235(5)
O1 O 0.5874(3) 0.4362(7) 0.5350(3)
O2 O 0.4894(3) 0.6536(7) 0.2808(3)
O3 O 0.5289(4) 0.6811(8) 0.1353(3)
N1 N 0.6734(4) 0.5293(9) 0.3640(4)
H1 H 0.717(8) 0.612(14) 0.391(7)
C1 C 0.6894(5) 0.4285(9) 0.5725(4)
C2 C 0.7241(5) 0.4625(9) 0.6713(4)
H2 H 0.6750 0.4896 0.7121
C3 C 0.8285(5) 0.4572(9) 0.7103(4)
H3 H 0.8512 0.4793 0.7774
C4 C 0.8989(4) 0.4196(9) 0.6509(4)
C5 C 0.8671(5) 0.3856(9) 0.5523(4)
H4 H 0.9171 0.3606 0.5122
C6 C 0.7629(4) 0.3881(8) 0.5130(4)
C7 C 0.7296(5) 0.3526(9) 0.4066(4)
H5 H 0.6833 0.2391 0.3960
H6 H 0.7909 0.3278 0.3758
C8 C 0.6534(5) 0.5347(9) 0.2582(4)
H7 H 0.6522 0.4018 0.2324
H8 H 0.7098 0.6059 0.2349
C9 C 0.5511(5) 0.6313(9) 0.2216(4)
O4 O 0.6009(5) 0.8845(9) 0.4699(4)
H9 H 0.593(7) 0.858(13) 0.527(3)
H10 H 0.591(7) 1.002(5) 0.451(7)
Cu1A Cu 0.46204(6) 1.04866(12) 0.09193(5)
Cu1B Cu 0.46204(6) 0.45134(12) 0.59193(5)
O1B O 0.4126(3) 0.5638(7) 0.4650(3)
O3A O 0.4711(4) 0.1811(8) 0.3647(3)
C10 C 0.8715(9) 0.8774(14) 0.5192(8)
H11 H 0.8855 1.0085 0.5439
H12 H 0.9352 0.8215 0.5035
H13 H 0.8470 0.7986 0.5687
O5 O 0.7949(5) 0.8827(9) 0.4353(4)
H14 H 0.7359 0.8849 0.4512
loop_
_geom_bond_atom_site_label_1
_geom_bond_atom_site_label_2
_geom_bond_site_symmetry_1
_geom_bond_site_symmetry_2
Cu1 O1 1_555 1_555
Br1 C4 1_555 1_555
O1 C1 1_555 1_555
O2 Cu1 1_555 1_555
O3 C9 1_555 1_555
N1 Cu1 1_555 1_555
H1 N1 1_555 1_555
C1 C2 1_555 1_555
C2 H2 1_555 1_555
C3 C2 1_555 1_555
H3 C3 1_555 1_555
C4 C3 1_555 1_555
C5 C4 1_555 1_555
H4 C5 1_555 1_555
C6 C1 1_555 1_555
C7 N1 1_555 1_555
H5 C7 1_555 1_555
H6 C7 1_555 1_555
C8 N1 1_555 1_555
H7 C8 1_555 1_555
H8 C8 1_555 1_555
C9 O2 1_555 1_555
O4 Cu1 1_555 1_555
H9 O4 1_555 1_555
H10 O4 1_555 1_555
C10 H11 1_555 1_555
H12 C10 1_555 1_555
H13 C10 1_555 1_555
O5 C10 1_555 1_555
H14 O5 1_555 1_555
Cu1A O3 1_555 1_555
Cu1B O1 1_555 1_555
O1B Cu1 1_555 1_555
O3A Cu1 1_555 1_555
C5 C6 1_555 1_555
C6 C7 1_555 1_555
C8 C9 1_555 1_555
Cu1B O1B 1_555 1_555

#END
