
#######################################################################
#
#                 Cambridge Crystallographic Data Centre
#                                CCDC 
#
#######################################################################
#
# If this CIF has been generated from an entry in the Cambridge 
# Structural Database, then it will include bibliographic, chemical, 
# crystal, experimental, refinement or atomic coordinate data resulting 
# from the CCDC's data processing and validation procedures.
#
#######################################################################

data_XITYOP
_symmetry_cell_setting           rhombohedral
_symmetry_space_group_name_H-M   'R -3 c'
_symmetry_Int_Tables_number      167
_space_group_name_Hall           '-R 3 2"c'
loop_
_symmetry_equiv_pos_site_id
_symmetry_equiv_pos_as_xyz
1 x,y,z
2 -y,x-y,z
3 -x+y,-x,z
4 y,x,1/2-z
5 2/3+x,1/3+y,1/3+z
6 2/3-y,1/3+x-y,1/3+z
7 2/3-x+y,1/3-x,1/3+z
8 2/3+y,1/3+x,5/6-z
9 1/3+x,2/3+y,2/3+z
10 1/3+y,2/3+x,1/6-z
11 x-y,-y,1/2-z
12 -x,-x+y,1/2-z
13 1/3-y,2/3+x-y,2/3+z
14 1/3-x+y,2/3-x,2/3+z
15 1/3+x-y,2/3-y,1/6-z
16 1/3-x,2/3-x+y,1/6-z
17 2/3+x-y,1/3-y,5/6-z
18 2/3-x,1/3-x+y,5/6-z
19 -x,-y,-z
20 y,-x+y,-z
21 x-y,x,-z
22 -y,-x,1/2+z
23 1/3-x,2/3-y,2/3-z
24 1/3+y,2/3-x+y,2/3-z
25 1/3+x-y,2/3+x,2/3-z
26 1/3-y,2/3-x,1/6+z
27 2/3-x,1/3-y,1/3-z
28 2/3-y,1/3-x,5/6+z
29 -x+y,y,1/2+z
30 x,x-y,1/2+z
31 2/3+y,1/3-x+y,1/3-z
32 2/3+x-y,1/3+x,1/3-z
33 2/3-x+y,1/3+y,5/6+z
34 2/3+x,1/3+x-y,5/6+z
35 1/3-x+y,2/3+y,1/6+z
36 1/3+x,2/3+x-y,1/6+z
_cell_length_a                   18.4530(4)
_cell_length_b                   18.4530(4)
_cell_length_c                   76.976(4)
_cell_angle_alpha                90
_cell_angle_beta                 90
_cell_angle_gamma                120
_cell_volume                     22699.7
loop_
_atom_site_label
_atom_site_type_symbol
_atom_site_fract_x
_atom_site_fract_y
_atom_site_fract_z
Cu1 Cu 0.13354(2) 0.84812(2) 0.069247(4)
O1 O 0.24483(12) 0.88286(13) 0.06053(2)
O2 O 0.55260(11) 0.85711(12) 0.08527(2)
O3 O 0.28749(12) 0.84696(12) 0.08470(2)
O4 O 0.63651(11) 0.90333(13) 0.06194(2)
C1 C 0.57204(15) 0.88885(17) 0.07044(3)
C2 C 0.46759(16) 0.94892(18) 0.03595(4)
C3 C 0.29686(16) 0.87546(17) 0.06960(3)
C4 C 0.52654(17) 0.93798(18) 0.04487(4)
H1 H 0.5774 0.9504 0.0393
C5 C 0.43660(17) 0.91771(18) 0.00427(4)
C6 C 0.54493(18) 1.05654(18) 0.01331(4)
C7 C 0.39422(17) 0.93064(17) 0.04421(3)
H2 H 0.3533 0.9378 0.0382
C8 C 0.37931(16) 0.90172(16) 0.06128(3)
C9 C 0.48297(16) 0.97619(19) 0.01743(4)
O5 O 0.09416(18) 0.8843(2) 0.04659(4)
C10 C 0.43938(16) 0.89132(18) 0.07000(4)
H3 H 0.4299 0.8718 0.0817
C11 C 0.5918(2) 1.1181(2) 0.02635(4)
H4 H 0.5804 1.1032 0.0383
C12 C 0.51270(16) 0.90934(18) 0.06172(3)
C13 C 0.37354(18) 0.83488(18) 0.00803(4)
H5 H 0.3613 0.8175 0.0198
C14 C 0.6512(2) 1.1961(2) 0.02215(4)
H6 H 0.6811 1.2354 0.0311
C15 C 0.3306(2) 0.7802(2) -0.00463(4)
H7 H 0.2876 0.7252 -0.0018
Cu1R Cu 0.86646(2) 1.15188(2) -0.069247(4)
Cu1I Cu 0.18145(2) 0.80021(2) 0.097420(4)
Cu1N Cu 0.61875(3) 0.81855(2) 0.097420(4)
Cu1B Cu 0.71458(3) 0.86646(2) 0.069247(4)
Cu1FA Cu 0.38125(3) 1.18145(2) -0.097420(4)
Cu1T Cu 0.28542(3) 1.13354(2) -0.069247(4)
Cu1AA Cu 0.81855(2) 1.19979(2) -0.097420(4)
O1R O 0.75517(12) 1.11714(13) -0.06053(2)
O2R O 0.44740(11) 1.14289(12) -0.08527(2)
O2N O 0.02882(16) 0.80956(12) 0.08140(2)
O2FA O 0.97118(16) 1.19044(12) -0.08140(2)
O3R O 0.71251(12) 1.15304(12) -0.08470(2)
O3I O 0.18029(12) 0.95416(12) 0.08197(2)
O3AA O 0.81971(12) 1.04584(12) -0.08197(2)
O4R O 0.36349(11) 1.09667(13) -0.06194(2)
O4A O 0.09667(13) 0.73318(17) 0.06194(2)
O4S O 0.90333(13) 1.26682(17) -0.06194(2)
C1R C 0.42796(15) 1.11115(17) -0.07044(3)
C2R C 0.53241(16) 1.05108(18) -0.03595(4)
C3R C 0.70314(16) 1.12454(17) -0.06960(3)
C4R C 0.47346(17) 1.06202(18) -0.04487(4)
H1R H 0.4226 1.0496 -0.0393
C5R C 0.56340(17) 1.08229(18) -0.00427(4)
C6R C 0.45507(18) 0.94346(18) -0.01331(4)
C7R C 0.60578(17) 1.06936(17) -0.04421(3)
H2R H 0.6467 1.0622 -0.0382
C8R C 0.62069(16) 1.09828(16) -0.06128(3)
C9R C 0.51703(16) 1.02381(19) -0.01743(4)
O5R O 0.90584(18) 1.1157(2) -0.04659(4)
C10R C 0.56062(16) 1.10868(18) -0.07000(4)
H3R H 0.5701 1.1282 -0.0817
C11R C 0.4082(2) 0.8819(2) -0.02635(4)
H4R H 0.4196 0.8968 -0.0383
C12R C 0.48730(16) 1.09066(18) -0.06172(3)
C13R C 0.62646(18) 1.16512(18) -0.00803(4)
H5R H 0.6387 1.1825 -0.0198
C14R C 0.3488(2) 0.8039(2) -0.02215(4)
H6R H 0.3189 0.7646 -0.0311
C15R C 0.6694(2) 1.2198(2) 0.00463(4)
H7R H 0.7124 1.2748 0.0018
loop_
_geom_bond_atom_site_label_1
_geom_bond_atom_site_label_2
_geom_bond_site_symmetry_1
_geom_bond_site_symmetry_2
Cu1 O1 1_555 1_555
O1 C3 1_555 1_555
O2 C1 1_555 1_555
O3 C3 1_555 1_555
O4 C1 1_555 1_555
C1 C12 1_555 1_555
C2 C4 1_555 1_555
C3 C8 1_555 1_555
C4 H1 1_555 1_555
C5 C9 1_555 1_555
C6 C9 1_555 1_555
C7 C2 1_555 1_555
H2 C7 1_555 1_555
C8 C7 1_555 1_555
C9 C2 1_555 1_555
O5 Cu1 1_555 1_555
C10 C8 1_555 1_555
H3 C10 1_555 1_555
C11 C6 1_555 1_555
H4 C11 1_555 1_555
C12 C4 1_555 1_555
C13 C5 1_555 1_555
H5 C13 1_555 1_555
C14 C11 1_555 1_555
H6 C14 1_555 1_555
C15 C13 1_555 1_555
H7 C15 1_555 1_555
Cu1R Cu1AA 1_555 1_555
Cu1I Cu1 1_555 1_555
Cu1N O2 1_555 1_555
Cu1B O4 1_555 1_555
Cu1FA Cu1T 1_555 1_555
Cu1T O4R 1_555 1_555
Cu1AA O3R 1_555 1_555
O1R Cu1R 1_555 1_555
O2R Cu1FA 1_555 1_555
O2N Cu1 1_555 1_555
O2FA Cu1R 1_555 1_555
O3R C3R 1_555 1_555
O3I Cu1 1_555 1_555
O3AA Cu1R 1_555 1_555
O4R C1R 1_555 1_555
O4A Cu1 1_555 1_555
O4S Cu1R 1_555 1_555
C1R O2R 1_555 1_555
C2R C4R 1_555 1_555
C3R O1R 1_555 1_555
C4R H1R 1_555 1_555
C5R C6 1_555 1_555
C6R C5 1_555 1_555
C7R C2R 1_555 1_555
H2R C7R 1_555 1_555
C8R C3R 1_555 1_555
C9R C2R 1_555 1_555
O5R Cu1R 1_555 1_555
C10R C8R 1_555 1_555
H3R C10R 1_555 1_555
C11R C6R 1_555 1_555
H4R C11R 1_555 1_555
C12R C1R 1_555 1_555
C13R C5R 1_555 1_555
H5R C13R 1_555 1_555
C14R C15 1_555 1_555
H6R C14R 1_555 1_555
C15R C14 1_555 1_555
H7R C15R 1_555 1_555
O3 Cu1I 1_555 1_555
C10 C12 1_555 1_555
Cu1N Cu1B 1_555 1_555
C4R C12R 1_555 1_555
C5R C9R 1_555 1_555
C6R C9R 1_555 1_555
C7R C8R 1_555 1_555
C10R C12R 1_555 1_555
C11R C14R 1_555 1_555
C13R C15R 1_555 1_555

#END
