
#######################################################################
#
#                 Cambridge Crystallographic Data Centre
#                                CCDC 
#
#######################################################################
#
# If this CIF has been generated from an entry in the Cambridge 
# Structural Database, then it will include bibliographic, chemical, 
# crystal, experimental, refinement or atomic coordinate data resulting 
# from the CCDC's data processing and validation procedures.
#
#######################################################################

data_XIVKES
_symmetry_cell_setting           monoclinic
_symmetry_space_group_name_H-M   'C 2/c'
_symmetry_Int_Tables_number      15
_space_group_name_Hall           '-C 2yn'
loop_
_symmetry_equiv_pos_site_id
_symmetry_equiv_pos_as_xyz
1 x,y,z
2 -x,y,1/2-z
3 1/2+x,1/2+y,z
4 1/2-x,1/2+y,1/2-z
5 -x,-y,-z
6 x,-y,1/2+z
7 1/2-x,1/2-y,-z
8 1/2+x,1/2-y,1/2+z
_cell_length_a                   17.916(5)
_cell_length_b                   7.2228(19)
_cell_length_c                   13.335(4)
_cell_angle_alpha                90
_cell_angle_beta                 128.726(3)
_cell_angle_gamma                90
_cell_volume                     1346.22
loop_
_atom_site_label
_atom_site_type_symbol
_atom_site_fract_x
_atom_site_fract_y
_atom_site_fract_z
Cu1 Cu 0.2500 0.7500 0.5000
C1 C 0.1586(3) 0.5687(6) 0.2689(4)
C2 C 0.1107(3) 0.4349(7) 0.1730(4)
C3 C 0.1103(3) 0.2438(6) 0.3068(4)
C4 C 0.1568(3) 0.3746(5) 0.4031(4)
C5 C 0.1852(3) 0.7574(6) 0.2515(4)
N1 N 0.1816(3) 0.5371(5) 0.3834(4)
N2 N 0.0866(2) 0.2721(5) 0.1917(3)
O1 O 0.2263(2) 0.8616(4) 0.3511(2)
O2 O 0.1657(2) 0.7989(4) 0.1484(2)
Hg1 Hg 0.0000 0.0000 0.0000
Cl1 Cl 0.0552(1) 0.8306(2) 0.4107(1)
H1 H 0.0950 0.4600 0.0935
H2 H 0.0948 0.1308 0.3231
H3 H 0.1711 0.3498 0.4819
C1F C 0.3414(3) 0.9313(6) 0.7311(4)
C2F C 0.3893(3) 1.0651(7) 0.8270(4)
C3F C 0.3897(3) 1.2562(6) 0.6932(4)
C4F C 0.3432(3) 1.1254(5) 0.5969(4)
C5F C 0.3148(3) 0.7426(6) 0.7485(4)
N1F N 0.3184(3) 0.9629(5) 0.6166(4)
N2F N 0.4134(2) 1.2279(5) 0.8083(3)
O1F O 0.2737(2) 0.6384(4) 0.6489(2)
O2F O 0.3343(2) 0.7011(4) 0.8516(2)
H1F H 0.4050 1.0400 0.9065
H2F H 0.4052 1.3692 0.6769
H3F H 0.3289 1.1502 0.5181
Cl1F Cl 0.4448(1) 0.6694(2) 0.5893(1)
Hg1_2 Hg 0.0000 1.0000 0.0000
N2D N -0.0866(2) -0.2721(5) -0.1917(3)
O2_2 O 0.1657(2) -0.2011(4) 0.1484(2)
O2D O -0.1657(2) 0.2011(4) -0.1484(2)
Cl1A Cl -0.0552(1) -0.1694(2) 0.0893(1)
Cl1E Cl 0.0552(1) 0.1694(2) -0.0893(1)
Hg1A Hg 0.0000 1.0000 0.5000
Hg1B Hg 0.5000 1.5000 1.0000
Hg1B_2 Hg 0.5000 0.5000 1.0000
Hg1C Hg 0.5000 0.5000 0.5000
loop_
_geom_bond_atom_site_label_1
_geom_bond_atom_site_label_2
_geom_bond_site_symmetry_1
_geom_bond_site_symmetry_2
Cu1 N1 1_555 1_555
C1 C2 1_555 1_555
C2 N2 1_555 1_555
C3 C4 1_555 1_555
C4 N1 1_555 1_555
C5 C1 1_555 1_555
N1 C1 1_555 1_555
N2 C3 1_555 1_555
O1 Cu1 1_555 1_555
O2 C5 1_555 1_555
Hg1 N2 1_555 1_555
Cl1 Cu1 1_555 1_555
H1 C2 1_555 1_555
H2 C3 1_555 1_555
H3 C4 1_555 1_555
C1F C2F 1_555 1_555
C2F N2F 1_555 1_555
C3F C4F 1_555 1_555
C4F N1F 1_555 1_555
C5F C1F 1_555 1_555
N1F Cu1 1_555 1_555
N2F C3F 1_555 1_555
O1F Cu1 1_555 1_555
O2F C5F 1_555 1_555
H1F C2F 1_555 1_555
H2F C3F 1_555 1_555
H3F C4F 1_555 1_555
Cl1F Cu1 1_555 1_555
Hg1_2 O2 1_555 1_555
N2D Hg1 1_555 1_555
O2_2 Hg1 1_555 1_555
O2D Hg1 1_555 1_555
Cl1A Hg1 1_555 1_555
Cl1E Hg1 1_555 1_555
Hg1A Cl1 1_555 1_555
Hg1B N2F 1_555 1_555
Hg1B_2 O2F 1_555 1_555
Hg1C Cl1F 1_555 1_555
C5 O1 1_555 1_555
C1F N1F 1_555 1_555
C5F O1F 1_555 1_555

#END
