
#######################################################################
#
#                 Cambridge Crystallographic Data Centre
#                                CCDC 
#
#######################################################################
#
# If this CIF has been generated from an entry in the Cambridge 
# Structural Database, then it will include bibliographic, chemical, 
# crystal, experimental, refinement or atomic coordinate data resulting 
# from the CCDC's data processing and validation procedures.
#
#######################################################################

data_XIVVUV
_symmetry_cell_setting           monoclinic
_symmetry_space_group_name_H-M   'P 21/c'
_symmetry_Int_Tables_number      14
_space_group_name_Hall           '-P 2ybc'
loop_
_symmetry_equiv_pos_site_id
_symmetry_equiv_pos_as_xyz
1 x,y,z
2 -x,1/2+y,1/2-z
3 -x,-y,-z
4 x,1/2-y,1/2+z
_cell_length_a                   6.7147(13)
_cell_length_b                   30.942(6)
_cell_length_c                   12.909(4)
_cell_angle_alpha                90
_cell_angle_beta                 120.14(2)
_cell_angle_gamma                90
_cell_volume                     2319.44
loop_
_atom_site_label
_atom_site_type_symbol
_atom_site_fract_x
_atom_site_fract_y
_atom_site_fract_z
H1 H 0.957(12) -0.159(3) 1.124(7)
C1 C 0.7671(10) -0.12163(19) 0.9821(5)
H2 H 0.7115 -0.1433 0.9244
N1 N 0.8997(9) -0.13202(17) 1.0974(5)
C2 C 0.9832(10) -0.10120(19) 1.1837(6)
H3 H 1.0761 -0.1090 1.2636
Pr1 Pr 0.58082(4) 0.246939(9) 0.29897(2)
Pr2 Pr 0.20161(4) 0.084206(9) 0.45416(2)
O1 O 0.4402(6) 0.10416(12) 0.6784(3)
O2 O 0.2869(6) 0.03872(13) 0.6371(3)
O3 O 0.8495(8) 0.15021(13) 1.1103(3)
O4 O 0.9528(8) 0.10045(14) 1.2489(3)
O5 O 0.2726(8) 0.16264(13) 0.4611(4)
O6 O 0.4388(8) 0.10859(14) 0.3588(4)
O7 O 0.5329(7) 0.16617(13) 0.2870(4)
O8 O 0.3290(6) 0.21815(12) 0.3696(4)
O9 O 0.3347(6) 0.22336(13) 0.0827(3)
O10 O 0.1887(6) 0.28374(14) 0.1775(3)
O11 O -0.1526(6) 0.28603(13) 0.0068(3)
O12 O -0.0200(6) 0.21885(12) -0.0772(3)
O13 O 0.3981(6) -0.05207(13) 0.4477(4)
O14 O 0.2198(7) 0.01148(13) 0.3844(3)
O15 O -0.1785(7) 0.04687(14) 0.3865(4)
H4 H -0.3053 0.0604 0.3591
H5 H -0.2127 0.0203 0.3823
O16 O -0.0446(7) 0.12179(16) 0.5279(4)
H6 H -0.0827 0.1305 0.4577
H7 H -0.0278 0.1447 0.5678
O17 O 0.6542(8) 0.31109(15) 0.1950(4)
H8 H 0.6452 0.2929 0.1436
H9 H 0.5241 0.3235 0.1625
O18 O 0.8428(6) 0.22039(14) 0.2335(4)
H10 H 0.8869 0.2373 0.1970
H11 H 0.8896 0.1944 0.2472
O19 O 0.5399(7) 0.30001(14) 0.4323(4)
C3 C 0.7430(8) -0.00006(17) 0.9960(4)
C4 C 0.6092(9) 0.01209(17) 0.8758(5)
H12 H 0.5493 -0.0093 0.8173
C5 C 0.5635(8) 0.05490(17) 0.8414(4)
C6 C 0.6522(8) 0.08751(16) 0.9285(4)
H13 H 0.6253 0.1164 0.9057
C7 C 0.7797(8) 0.07665(17) 1.0483(4)
C8 C 0.8241(8) 0.03309(16) 1.0814(4)
H14 H 0.9096 0.0260 1.1622
C9 C 0.4211(8) 0.06705(18) 0.7113(4)
C10 C 0.8667(8) 0.11172(18) 1.1420(4)
C11 C 0.4455(9) 0.14864(17) 0.3416(5)
C12 C 0.3395(9) 0.17880(18) 0.3958(5)
C13 C 0.1267(8) 0.23445(16) 0.0216(5)
C14 C 0.0488(8) 0.27125(17) 0.0739(5)
C15 C 0.3896(9) -0.01186(18) 0.4511(5)
C16 C 0.7962(8) -0.04631(17) 1.0329(4)
C17 C 0.7120(10) -0.07958(18) 0.9476(5)
H15 H 0.6178 -0.0729 0.8670
C18 C 0.9305(9) -0.05813(18) 1.1534(5)
H16 H 0.9842 -0.0371 1.2129
H17 H 0.622(14) 0.319(2) 0.485(6)
H18 H 0.474(12) 0.286(2) 0.462(6)
O14B O 0.7802(7) -0.01148(13) 0.6156(3)
C15B C 0.6104(9) 0.01186(18) 0.5489(5)
O13B O 0.6019(6) 0.05207(13) 0.5523(4)
H1B H 0.043(12) 0.159(3) -0.124(7)
C1B C 0.2329(10) 0.12163(19) 0.0179(5)
H2B H 0.2885 0.1433 0.0756
N1B N 0.1003(9) 0.13202(17) -0.0974(5)
C2B C 0.0168(10) 0.10120(19) -0.1837(6)
H3B H -0.0761 0.1090 -0.2636
Pr1B Pr 0.41918(4) -0.246939(9) 0.70103(2)
Pr2B Pr 0.79839(4) -0.084206(9) 0.54584(2)
O1B O 0.5598(6) -0.10416(12) 0.3216(3)
O2B O 0.7131(6) -0.03872(13) 0.3629(3)
O3B O 0.1505(8) -0.15021(13) -0.1103(3)
O4B O 0.0472(8) -0.10045(14) -0.2489(3)
O5B O 0.7274(8) -0.16264(13) 0.5389(4)
O6B O 0.5612(8) -0.10859(14) 0.6412(4)
O7B O 0.4671(7) -0.16617(13) 0.7130(4)
O8B O 0.6710(6) -0.21815(12) 0.6304(4)
O9B O 0.6653(6) -0.22336(13) 0.9173(3)
O10B O 0.8113(6) -0.28374(14) 0.8225(3)
O11B O 1.1526(6) -0.28603(13) 0.9932(3)
O12B O 1.0200(6) -0.21885(12) 1.0772(3)
O15B O 1.1785(7) -0.04687(14) 0.6135(4)
H4B H 1.3053 -0.0604 0.6409
H5B H 1.2127 -0.0203 0.6177
O16B O 1.0446(7) -0.12179(16) 0.4721(4)
H6B H 1.0827 -0.1305 0.5423
H7B H 1.0278 -0.1447 0.4322
O17B O 0.3458(8) -0.31109(15) 0.8050(4)
H8B H 0.3548 -0.2929 0.8564
H9B H 0.4759 -0.3235 0.8375
O18B O 0.1572(6) -0.22039(14) 0.7665(4)
H10B H 0.1131 -0.2373 0.8030
H11B H 0.1104 -0.1944 0.7528
O19B O 0.4601(7) -0.30001(14) 0.5677(4)
C3B C 0.2570(8) 0.00006(17) 0.0040(4)
C4B C 0.3908(9) -0.01209(17) 0.1242(5)
H12B H 0.4507 0.0093 0.1827
C5B C 0.4365(8) -0.05490(17) 0.1586(4)
C6B C 0.3478(8) -0.08751(16) 0.0715(4)
H13B H 0.3747 -0.1164 0.0943
C7B C 0.2203(8) -0.07665(17) -0.0483(4)
C8B C 0.1759(8) -0.03309(16) -0.0814(4)
H14B H 0.0904 -0.0260 -0.1622
C9B C 0.5789(8) -0.06705(18) 0.2887(4)
C10B C 0.1333(8) -0.11172(18) -0.1420(4)
C11B C 0.5545(9) -0.14864(17) 0.6584(5)
C12B C 0.6605(9) -0.17880(18) 0.6042(5)
C13B C 0.8733(8) -0.23445(16) 0.9784(5)
C14B C 0.9512(8) -0.27125(17) 0.9261(5)
C16B C 0.2038(8) 0.04631(17) -0.0329(4)
C17B C 0.2880(10) 0.07958(18) 0.0524(5)
H15B H 0.3822 0.0729 0.1330
C18B C 0.0695(9) 0.05813(18) -0.1534(5)
H16B H 0.0158 0.0371 -0.2129
H17B H 0.378(14) -0.319(2) 0.515(6)
H18B H 0.526(12) -0.286(2) 0.538(6)
Pr1A Pr 1.41918(4) -0.253061(9) 1.20103(2)
Pr1C Pr -0.41918(4) 0.253061(9) -0.20103(2)
Pr2_2 Pr 1.20161(4) 0.084206(9) 1.45416(2)
Pr2B_2 Pr -0.20161(4) -0.084206(9) -0.45416(2)
O4_2 O -0.0472(8) 0.10045(14) 0.2489(3)
O4B_2 O 1.0472(8) -0.10045(14) 0.7511(3)
O11A O 0.1526(6) -0.21397(13) 0.4932(3)
O11C O 0.8474(6) 0.21397(13) 0.5068(3)
O12A O 0.0200(6) -0.28115(12) 0.5772(3)
O12C O 0.9800(6) 0.28115(12) 0.4228(3)
loop_
_geom_bond_atom_site_label_1
_geom_bond_atom_site_label_2
_geom_bond_site_symmetry_1
_geom_bond_site_symmetry_2
H1 N1 1_555 1_555
C1 H2 1_555 1_555
N1 C1 1_555 1_555
C2 N1 1_555 1_555
H3 C2 1_555 1_555
Pr1 O7 1_555 1_555
Pr2 O1 1_555 1_555
O1 C9 1_555 1_555
O2 Pr2 1_555 1_555
O3 C10 1_555 1_555
O4 C10 1_555 1_555
O5 Pr2 1_555 1_555
O6 Pr2 1_555 1_555
O7 C11 1_555 1_555
O8 Pr1 1_555 1_555
O9 Pr1 1_555 1_555
O10 Pr1 1_555 1_555
O11 C14 1_555 1_555
O12 C13 1_555 1_555
O13 C15 1_555 1_555
O14 Pr2 1_555 1_555
O15 Pr2 1_555 1_555
H4 O15 1_555 1_555
H5 O15 1_555 1_555
O16 Pr2 1_555 1_555
H6 O16 1_555 1_555
H7 O16 1_555 1_555
O17 Pr1 1_555 1_555
H8 O17 1_555 1_555
H9 O17 1_555 1_555
O18 Pr1 1_555 1_555
H10 O18 1_555 1_555
H11 O18 1_555 1_555
O19 Pr1 1_555 1_555
C3 C4 1_555 1_555
C4 H12 1_555 1_555
C5 C4 1_555 1_555
C6 C5 1_555 1_555
H13 C6 1_555 1_555
C7 C6 1_555 1_555
C8 C3 1_555 1_555
H14 C8 1_555 1_555
C9 O2 1_555 1_555
C10 C7 1_555 1_555
C11 O6 1_555 1_555
C12 O5 1_555 1_555
C13 O9 1_555 1_555
C14 O10 1_555 1_555
C15 O14 1_555 1_555
C16 C3 1_555 1_555
C17 C1 1_555 1_555
H15 C17 1_555 1_555
C18 C2 1_555 1_555
H16 C18 1_555 1_555
H17 O19 1_555 1_555
H18 O19 1_555 1_555
O14B C15B 1_555 1_555
C15B C15 1_555 1_555
O13B Pr2 1_555 1_555
H1B N1B 1_555 1_555
C1B H2B 1_555 1_555
N1B C1B 1_555 1_555
C2B N1B 1_555 1_555
H3B C2B 1_555 1_555
Pr1B O7B 1_555 1_555
Pr2B O13 1_555 1_555
O1B Pr2B 1_555 1_555
O2B Pr2B 1_555 1_555
O3B C10B 1_555 1_555
O4B C10B 1_555 1_555
O5B Pr2B 1_555 1_555
O6B Pr2B 1_555 1_555
O7B C11B 1_555 1_555
O8B Pr1B 1_555 1_555
O9B Pr1B 1_555 1_555
O10B Pr1B 1_555 1_555
O11B C14B 1_555 1_555
O12B C13B 1_555 1_555
O15B Pr2B 1_555 1_555
H4B O15B 1_555 1_555
H5B O15B 1_555 1_555
O16B Pr2B 1_555 1_555
H6B O16B 1_555 1_555
H7B O16B 1_555 1_555
O17B Pr1B 1_555 1_555
H8B O17B 1_555 1_555
H9B O17B 1_555 1_555
O18B Pr1B 1_555 1_555
H10B O18B 1_555 1_555
H11B O18B 1_555 1_555
O19B Pr1B 1_555 1_555
C3B C4B 1_555 1_555
C4B H12B 1_555 1_555
C5B C4B 1_555 1_555
C6B C5B 1_555 1_555
H13B C6B 1_555 1_555
C7B C6B 1_555 1_555
C8B C3B 1_555 1_555
H14B C8B 1_555 1_555
C9B O1B 1_555 1_555
C10B C7B 1_555 1_555
C11B O6B 1_555 1_555
C12B O5B 1_555 1_555
C13B O9B 1_555 1_555
C14B O10B 1_555 1_555
C16B C3B 1_555 1_555
C17B C1B 1_555 1_555
H15B C17B 1_555 1_555
C18B C2B 1_555 1_555
H16B C18B 1_555 1_555
H17B O19B 1_555 1_555
H18B O19B 1_555 1_555
Pr1A O11B 1_555 1_555
Pr1C O11 1_555 1_555
Pr2_2 O4 1_555 1_555
Pr2B_2 O4B 1_555 1_555
O4_2 Pr2 1_555 1_555
O4B_2 Pr2B 1_555 1_555
O11A Pr1B 1_555 1_555
O11C Pr1 1_555 1_555
O12A Pr1B 1_555 1_555
O12C Pr1 1_555 1_555
O8 C12 1_555 1_555
O12 Pr1C 1_555 1_555
C5 C9 1_555 1_555
C7 C8 1_555 1_555
C11 C12 1_555 1_555
C13 C14 1_555 1_555
C16 C17 1_555 1_555
C16 C18 1_555 1_555
O14B Pr2B 1_555 1_555
C15B O13B 1_555 1_555
O2B C9B 1_555 1_555
O8B C12B 1_555 1_555
O12B Pr1A 1_555 1_555
C5B C9B 1_555 1_555
C7B C8B 1_555 1_555
C11B C12B 1_555 1_555
C13B C14B 1_555 1_555
C16B C17B 1_555 1_555
C16B C18B 1_555 1_555

#END
