
#######################################################################
#
#                 Cambridge Crystallographic Data Centre
#                                CCDC 
#
#######################################################################
#
# If this CIF has been generated from an entry in the Cambridge 
# Structural Database, then it will include bibliographic, chemical, 
# crystal, experimental, refinement or atomic coordinate data resulting 
# from the CCDC's data processing and validation procedures.
#
#######################################################################

data_XIVWIK
_symmetry_cell_setting           monoclinic
_symmetry_space_group_name_H-M   'P 21/c'
_symmetry_Int_Tables_number      14
_space_group_name_Hall           '-P 2ybc'
loop_
_symmetry_equiv_pos_site_id
_symmetry_equiv_pos_as_xyz
1 x,y,z
2 -x,1/2+y,1/2-z
3 -x,-y,-z
4 x,1/2-y,1/2+z
_cell_length_a                   6.6750(13)
_cell_length_b                   30.726(6)
_cell_length_c                   12.841(4)
_cell_angle_alpha                90
_cell_angle_beta                 120.81(2)
_cell_angle_gamma                90
_cell_volume                     2261.95
loop_
_atom_site_label
_atom_site_type_symbol
_atom_site_fract_x
_atom_site_fract_y
_atom_site_fract_z
H1 H 0.59(3) 1.1606(10) 0.391(15)
N1 N 0.602(2) 1.1332(4) 0.4034(11)
C1 C 0.520(2) 1.1024(4) 0.3147(12)
H2 H 0.4286 1.1105 0.2337
C2 C 0.733(2) 1.1229(4) 0.5201(12)
H3 H 0.7853 1.1446 0.5789
Gd1 Gd 1.29303(9) 0.916136(16) 1.04359(4)
Gd2 Gd 0.92126(9) 0.753981(16) 1.19236(5)
O1 O 1.2135(16) 0.9597(3) 0.8646(7)
O2 O 1.0594(16) 0.8941(2) 0.8235(7)
O3 O 0.5492(17) 0.9005(3) 0.2454(7)
O4 O 0.6421(18) 0.8489(3) 0.3817(8)
O5 O 1.2337(19) 0.8389(3) 1.0368(8)
O6 O 1.0691(18) 0.8923(3) 1.1414(10)
O7 O 0.9606(15) 0.8336(3) 1.2069(8)
O8 O 1.1684(15) 0.7817(3) 1.1243(9)
O9 O 0.6560(15) 0.7865(3) 0.9851(8)
O10 O 0.5196(15) 0.7195(3) 1.0709(7)
O11 O 0.1596(14) 0.7230(2) 0.9070(7)
O12 O 0.3096(15) 0.7838(3) 0.8109(8)
O13 O 0.8945(16) 0.9477(3) 0.9442(8)
O14 O 0.7136(16) 1.0121(3) 0.8844(8)
O15 O 1.5402(19) 0.8788(3) 0.9773(11)
H4 H 1.5226 0.8514 0.9652
O16 O 1.6653(18) 0.9541(3) 1.1068(10)
H5 H 1.7352 0.9764 1.1493
O17 O 0.9542(16) 0.7021(3) 1.0616(8)
H6 H 0.8369 0.6869 1.0129
H7 H 1.0833 0.6991 1.0642
O18 O 0.8598(17) 0.6926(3) 1.2985(9)
H8 H 0.7303 0.6791 1.2645
H9 H 0.9681 0.6850 1.3688
O19 O 0.6619(14) 0.7799(3) 1.2563(8)
H10 H 0.5225 0.7705 1.2218
H11 H 0.7091 0.7984 1.3134
C3 C 0.7533(19) 0.9997(3) 0.5022(9)
C4 C 0.888(2) 0.9872(4) 0.6247(10)
H12 H 0.9479 1.0083 0.6850
C5 C 0.9314(19) 0.9433(4) 0.6567(9)
C6 C 0.832(2) 0.9118(3) 0.5705(9)
H13 H 0.8376 0.8829 0.5937
C7 C 0.7195(19) 0.9225(3) 0.4470(9)
C8 C 0.6711(18) 0.9664(3) 0.4148(9)
H14 H 0.5818 0.9738 0.3332
C9 C 0.6299(19) 0.8879(4) 0.3517(10)
C10 C 1.071(2) 0.9315(4) 0.7888(10)
C11 C 1.160(2) 0.8220(4) 1.1004(11)
C12 C 1.058(2) 0.8524(4) 1.1572(11)
C13 C 0.454(2) 0.7714(4) 0.9172(10)
C14 C 0.372(2) 0.7348(4) 0.9669(10)
C15 C 0.889(2) 0.9886(4) 0.9513(10)
C16 C 0.7034(18) 1.0462(3) 0.4664(9)
C17 C 0.790(2) 1.0799(4) 0.5542(11)
H15 H 0.8871 1.0730 0.6356
C18 C 0.571(2) 1.0591(4) 0.3454(11)
H16 H 0.5174 1.0382 0.2845
H17 H 1.772(5) 0.939(2) 1.107(11)
H18 H 1.60(2) 0.8816(8) 1.054(2)
O13B O 1.1055(16) 1.0523(3) 1.0558(8)
C15B C 1.111(2) 1.0114(4) 1.0487(10)
O14B O 1.2864(16) 0.9879(3) 1.1156(8)
H1B H 1.41(3) 0.8394(10) 1.609(15)
N1B N 1.398(2) 0.8668(4) 1.5966(11)
C1B C 1.480(2) 0.8976(4) 1.6853(12)
H2B H 1.5714 0.8895 1.7663
C2B C 1.267(2) 0.8771(4) 1.4799(12)
H3B H 1.2147 0.8554 1.4211
Gd1B Gd 0.70697(9) 1.083864(16) 0.95641(4)
Gd2B Gd 1.07874(9) 1.246019(16) 0.80764(5)
O1B O 0.7865(16) 1.0403(3) 1.1354(7)
O2B O 0.9406(16) 1.1059(2) 1.1765(7)
O3B O 1.4508(17) 1.0995(3) 1.7546(7)
O4B O 1.3579(18) 1.1511(3) 1.6183(8)
O5B O 0.7663(19) 1.1611(3) 0.9632(8)
O6B O 0.9309(18) 1.1077(3) 0.8586(10)
O7B O 1.0394(15) 1.1664(3) 0.7931(8)
O8B O 0.8316(15) 1.2183(3) 0.8757(9)
O9B O 1.3440(15) 1.2135(3) 1.0149(8)
O10B O 1.4804(15) 1.2805(3) 0.9291(7)
O11B O 1.8404(14) 1.2770(2) 1.0930(7)
O12B O 1.6904(15) 1.2162(3) 1.1891(8)
O15B O 0.4598(19) 1.1212(3) 1.0227(11)
H4B H 0.4774 1.1486 1.0348
O16B O 0.3347(18) 1.0459(3) 0.8932(10)
H5B H 0.2648 1.0236 0.8507
O17B O 1.0458(16) 1.2979(3) 0.9384(8)
H6B H 1.1631 1.3131 0.9871
H7B H 0.9167 1.3009 0.9358
O18B O 1.1402(17) 1.3074(3) 0.7015(9)
H8B H 1.2697 1.3209 0.7355
H9B H 1.0319 1.3150 0.6312
O19B O 1.3381(14) 1.2201(3) 0.7437(8)
H10B H 1.4775 1.2295 0.7782
H11B H 1.2909 1.2016 0.6866
C3B C 1.2467(19) 1.0003(3) 1.4978(9)
C4B C 1.112(2) 1.0128(4) 1.3753(10)
H12B H 1.0521 0.9917 1.3150
C5B C 1.0686(19) 1.0567(4) 1.3433(9)
C6B C 1.168(2) 1.0882(3) 1.4295(9)
H13B H 1.1624 1.1171 1.4063
C7B C 1.2805(19) 1.0775(3) 1.5530(9)
C8B C 1.3289(18) 1.0336(3) 1.5852(9)
H14B H 1.4182 1.0262 1.6668
C9B C 1.3701(19) 1.1121(4) 1.6483(10)
C10B C 0.929(2) 1.0685(4) 1.2112(10)
C11B C 0.840(2) 1.1780(4) 0.8996(11)
C12B C 0.942(2) 1.1476(4) 0.8428(11)
C13B C 1.546(2) 1.2286(4) 1.0828(10)
C14B C 1.628(2) 1.2652(4) 1.0331(10)
C16B C 1.2966(18) 0.9538(3) 1.5336(9)
C17B C 1.210(2) 0.9201(4) 1.4458(11)
H15B H 1.1129 0.9270 1.3644
C18B C 1.429(2) 0.9409(4) 1.6546(11)
H16B H 1.4826 0.9618 1.7155
H17B H 0.228(5) 1.061(2) 0.893(11)
H18B H 0.40(2) 1.1184(8) 0.946(2)
Gd1_2 Gd 0.29303(9) 0.916136(16) 0.04359(4)
Gd1B_2 Gd 1.70697(9) 1.083864(16) 1.95641(4)
Gd2A Gd 2.07874(9) 1.253981(16) 1.30764(5)
Gd2C Gd -0.07874(9) 0.746019(16) 0.69236(5)
O3_2 O 1.5492(17) 0.9005(3) 1.2454(7)
O3B_2 O 0.4508(17) 1.0995(3) 0.7546(7)
O11A O 0.8404(14) 1.2230(2) 0.5930(7)
O11C O 1.1596(14) 0.7770(2) 1.4070(7)
O12A O 0.6904(15) 1.2838(3) 0.6891(8)
O12C O 1.3096(15) 0.7162(3) 1.3109(8)
loop_
_geom_bond_atom_site_label_1
_geom_bond_atom_site_label_2
_geom_bond_site_symmetry_1
_geom_bond_site_symmetry_2
H1 N1 1_555 1_555
N1 C1 1_555 1_555
C1 H2 1_555 1_555
C2 N1 1_555 1_555
H3 C2 1_555 1_555
Gd1 O1 1_555 1_555
Gd2 O7 1_555 1_555
O1 C10 1_555 1_555
O2 Gd1 1_555 1_555
O3 C9 1_555 1_555
O4 C9 1_555 1_555
O5 Gd1 1_555 1_555
O6 Gd1 1_555 1_555
O7 C12 1_555 1_555
O8 Gd2 1_555 1_555
O9 Gd2 1_555 1_555
O10 Gd2 1_555 1_555
O11 C14 1_555 1_555
O12 C13 1_555 1_555
O13 Gd1 1_555 1_555
O14 C15 1_555 1_555
O15 Gd1 1_555 1_555
H4 O15 1_555 1_555
O16 Gd1 1_555 1_555
H5 O16 1_555 1_555
O17 Gd2 1_555 1_555
H6 O17 1_555 1_555
H7 O17 1_555 1_555
O18 Gd2 1_555 1_555
H8 O18 1_555 1_555
H9 O18 1_555 1_555
O19 Gd2 1_555 1_555
H10 O19 1_555 1_555
H11 O19 1_555 1_555
C3 C4 1_555 1_555
C4 H12 1_555 1_555
C5 C4 1_555 1_555
C6 C5 1_555 1_555
H13 C6 1_555 1_555
C7 C6 1_555 1_555
C8 C3 1_555 1_555
H14 C8 1_555 1_555
C9 C7 1_555 1_555
C10 O2 1_555 1_555
C11 O5 1_555 1_555
C12 O6 1_555 1_555
C13 O9 1_555 1_555
C14 O10 1_555 1_555
C15 O13 1_555 1_555
C16 C3 1_555 1_555
C17 C2 1_555 1_555
H15 C17 1_555 1_555
C18 C1 1_555 1_555
H16 C18 1_555 1_555
H17 O16 1_555 1_555
H18 O15 1_555 1_555
O13B C15B 1_555 1_555
C15B C15 1_555 1_555
O14B Gd1 1_555 1_555
H1B N1B 1_555 1_555
N1B C1B 1_555 1_555
C1B H2B 1_555 1_555
C2B N1B 1_555 1_555
H3B C2B 1_555 1_555
Gd1B O14 1_555 1_555
Gd2B O7B 1_555 1_555
O1B Gd1B 1_555 1_555
O2B Gd1B 1_555 1_555
O3B C9B 1_555 1_555
O4B C9B 1_555 1_555
O5B Gd1B 1_555 1_555
O6B Gd1B 1_555 1_555
O7B C12B 1_555 1_555
O8B Gd2B 1_555 1_555
O9B Gd2B 1_555 1_555
O10B Gd2B 1_555 1_555
O11B C14B 1_555 1_555
O12B C13B 1_555 1_555
O15B Gd1B 1_555 1_555
H4B O15B 1_555 1_555
O16B Gd1B 1_555 1_555
H5B O16B 1_555 1_555
O17B Gd2B 1_555 1_555
H6B O17B 1_555 1_555
H7B O17B 1_555 1_555
O18B Gd2B 1_555 1_555
H8B O18B 1_555 1_555
H9B O18B 1_555 1_555
O19B Gd2B 1_555 1_555
H10B O19B 1_555 1_555
H11B O19B 1_555 1_555
C3B C4B 1_555 1_555
C4B H12B 1_555 1_555
C5B C4B 1_555 1_555
C6B C5B 1_555 1_555
H13B C6B 1_555 1_555
C7B C6B 1_555 1_555
C8B C3B 1_555 1_555
H14B C8B 1_555 1_555
C9B C7B 1_555 1_555
C10B O1B 1_555 1_555
C11B O5B 1_555 1_555
C12B O6B 1_555 1_555
C13B O9B 1_555 1_555
C14B O10B 1_555 1_555
C16B C3B 1_555 1_555
C17B C2B 1_555 1_555
H15B C17B 1_555 1_555
C18B C1B 1_555 1_555
H16B C18B 1_555 1_555
H17B O16B 1_555 1_555
H18B O15B 1_555 1_555
Gd1_2 O3 1_555 1_555
Gd1B_2 O3B 1_555 1_555
Gd2A O11B 1_555 1_555
Gd2C O11 1_555 1_555
O3_2 Gd1 1_555 1_555
O3B_2 Gd1B 1_555 1_555
O11A Gd2B 1_555 1_555
O11C Gd2 1_555 1_555
O12A Gd2B 1_555 1_555
O12C Gd2 1_555 1_555
O8 C11 1_555 1_555
O12 Gd2C 1_555 1_555
C5 C10 1_555 1_555
C7 C8 1_555 1_555
C11 C12 1_555 1_555
C13 C14 1_555 1_555
C16 C17 1_555 1_555
C16 C18 1_555 1_555
O13B Gd1B 1_555 1_555
C15B O14B 1_555 1_555
O2B C10B 1_555 1_555
O8B C11B 1_555 1_555
O12B Gd2A 1_555 1_555
C5B C10B 1_555 1_555
C7B C8B 1_555 1_555
C11B C12B 1_555 1_555
C13B C14B 1_555 1_555
C16B C17B 1_555 1_555
C16B C18B 1_555 1_555

#END
