
#######################################################################
#
#                 Cambridge Crystallographic Data Centre
#                                CCDC 
#
#######################################################################
#
# If this CIF has been generated from an entry in the Cambridge 
# Structural Database, then it will include bibliographic, chemical, 
# crystal, experimental, refinement or atomic coordinate data resulting 
# from the CCDC's data processing and validation procedures.
#
#######################################################################

data_XIWJUJ
_symmetry_cell_setting           monoclinic
_symmetry_space_group_name_H-M   'C 2/c'
_symmetry_Int_Tables_number      15
_space_group_name_Hall           '-C 2yn'
loop_
_symmetry_equiv_pos_site_id
_symmetry_equiv_pos_as_xyz
1 x,y,z
2 1/2+x,1/2+y,z
3 -x,y,1/2-z
4 1/2-x,1/2+y,1/2-z
5 -x,-y,-z
6 1/2-x,1/2-y,-z
7 x,-y,1/2+z
8 1/2+x,1/2-y,1/2+z
_cell_length_a                   22.635(3)
_cell_length_b                   7.5178(11)
_cell_length_c                   17.378(3)
_cell_angle_alpha                90
_cell_angle_beta                 130.360(2)
_cell_angle_gamma                90
_cell_volume                     2253.31
loop_
_atom_site_label
_atom_site_type_symbol
_atom_site_fract_x
_atom_site_fract_y
_atom_site_fract_z
Zn1 Zn 0.226975(19) -0.04818(5) 0.12313(2)
N1 N 0.10923(14) -0.0628(3) 0.00820(18)
N2 N 0.19496(14) 0.2085(3) 0.01439(17)
N3 N 0.3107(2) -0.1600(4) 0.1279(2)
N4 N 0.22304(17) -0.2804(4) 0.2029(2)
C1 C 0.0681(2) -0.2133(5) -0.0194(3)
H1 H 0.0935 -0.3180 0.0153
C2 C -0.0109(2) -0.2167(6) -0.0976(3)
H2 H -0.0383 -0.3225 -0.1153
C3 C -0.0487(2) -0.0640(6) -0.1490(3)
H3 H -0.1020 -0.0644 -0.2018
C4 C -0.0068(2) 0.0909(6) -0.1219(3)
H4 H -0.0314 0.1964 -0.1563
C5 C 0.07212(18) 0.0875(4) -0.0430(2)
C6 C 0.12145(18) 0.2506(4) -0.0089(2)
H5 H 0.0938 0.3401 -0.0617
H6 H 0.1320 0.2990 0.0506
C7 C 0.17900(18) 0.1696(4) -0.0813(2)
H7 H 0.1516 0.2692 -0.1273
H8 H 0.1459 0.0656 -0.1129
C8 C 0.24776(18) 0.3630(4) 0.0634(2)
H9 H 0.2602 0.3867 0.1274
H10 H 0.2219 0.4672 0.0210
C9 C 0.36058(17) -0.2151(4) 0.1364(2)
C10 C 0.24024(18) -0.3781(4) 0.2644(2)
Zn1E Zn 0.273025(19) 0.54818(5) -0.12313(2)
Zn1C Zn 0.273025(19) -0.54818(5) 0.37687(2)
Zn1C_2 Zn 0.273025(19) 0.45182(5) 0.37687(2)
N1E N 0.39077(14) 0.5628(3) -0.00820(18)
N2E N 0.30504(14) 0.2915(3) -0.01439(17)
N3E N 0.1893(2) 0.6600(4) -0.1279(2)
N4C N 0.27696(17) 0.2196(4) 0.2971(2)
N4E N 0.27696(17) 0.7804(4) -0.2029(2)
C1E C 0.4319(2) 0.7133(5) 0.0194(3)
H1E H 0.4065 0.8180 -0.0153
C2E C 0.5109(2) 0.7167(6) 0.0976(3)
H2E H 0.5383 0.8225 0.1153
C3E C 0.5487(2) 0.5640(6) 0.1490(3)
H3E H 0.6020 0.5644 0.2018
C4E C 0.5068(2) 0.4091(6) 0.1219(3)
H4E H 0.5314 0.3036 0.1563
C5E C 0.42788(18) 0.4125(4) 0.0430(2)
C6E C 0.37855(18) 0.2494(4) 0.0089(2)
H5E H 0.4062 0.1599 0.0617
H6E H 0.3680 0.2010 -0.0506
C7E C 0.32100(18) 0.3304(4) 0.0813(2)
H7E H 0.3484 0.2308 0.1273
H8E H 0.3541 0.4344 0.1129
C8E C 0.25224(18) 0.1370(4) -0.0634(2)
H9E H 0.2398 0.1133 -0.1274
H10E H 0.2781 0.0328 -0.0210
C9E C 0.13942(17) 0.7151(4) -0.1364(2)
C10C C 0.25976(18) 0.1219(4) 0.2356(2)
C10F C 0.24024(18) 0.3781(4) -0.2356(2)
O1 O 0.5000 0.0163(6) 0.2500
H11 H 0.5427 -0.0444 0.2832
H11B H 0.4573 -0.0444 0.2168
loop_
_geom_bond_atom_site_label_1
_geom_bond_atom_site_label_2
_geom_bond_site_symmetry_1
_geom_bond_site_symmetry_2
Zn1 N1 1_555 1_555
N1 C1 1_555 1_555
N2 Zn1 1_555 1_555
N3 Zn1 1_555 1_555
N4 Zn1 1_555 1_555
C1 H1 1_555 1_555
C2 C1 1_555 1_555
H2 C2 1_555 1_555
C3 C2 1_555 1_555
H3 C3 1_555 1_555
C4 C3 1_555 1_555
H4 C4 1_555 1_555
C5 N1 1_555 1_555
C6 N2 1_555 1_555
H5 C6 1_555 1_555
H6 C6 1_555 1_555
C7 N2 1_555 1_555
H7 C7 1_555 1_555
H8 C7 1_555 1_555
C8 N2 1_555 1_555
H9 C8 1_555 1_555
H10 C8 1_555 1_555
C9 N3 1_555 1_555
C10 N4 1_555 1_555
O1 H11 1_555 1_555
Zn1E N1E 1_555 1_555
Zn1C C10 1_555 1_555
Zn1C_2 N4C 1_555 1_555
N1E C1E 1_555 1_555
N2E Zn1E 1_555 1_555
N3E Zn1E 1_555 1_555
N4C C10C 1_555 1_555
N4E Zn1E 1_555 1_555
C1E H1E 1_555 1_555
C2E C1E 1_555 1_555
H2E C2E 1_555 1_555
C3E C2E 1_555 1_555
H3E C3E 1_555 1_555
C4E C3E 1_555 1_555
H4E C4E 1_555 1_555
C5E N1E 1_555 1_555
C6E N2E 1_555 1_555
H5E C6E 1_555 1_555
H6E C6E 1_555 1_555
C7E C8 1_555 1_555
H7E C7E 1_555 1_555
H8E C7E 1_555 1_555
C8E C7 1_555 1_555
H9E C8E 1_555 1_555
H10E C8E 1_555 1_555
C9E N3E 1_555 1_555
C10C Zn1 1_555 1_555
C10F Zn1E 1_555 1_555
H11B O1 1_555 1_555
C4 C5 1_555 1_555
C5 C6 1_555 1_555
N2E C7E 1_555 1_555
N2E C8E 1_555 1_555
C4E C5E 1_555 1_555
C5E C6E 1_555 1_555

#END
