
#######################################################################
#
#                 Cambridge Crystallographic Data Centre
#                                CCDC 
#
#######################################################################
#
# If this CIF has been generated from an entry in the Cambridge 
# Structural Database, then it will include bibliographic, chemical, 
# crystal, experimental, refinement or atomic coordinate data resulting 
# from the CCDC's data processing and validation procedures.
#
#######################################################################

data_XIWJAP
_symmetry_cell_setting           triclinic
_symmetry_space_group_name_H-M   'P -1'
_symmetry_Int_Tables_number      2
_space_group_name_Hall           '-P 1'
loop_
_symmetry_equiv_pos_site_id
_symmetry_equiv_pos_as_xyz
1 x,y,z
2 -x,-y,-z
_cell_length_a                   15.2704(18)
_cell_length_b                   17.2553(19)
_cell_length_c                   26.828(3)
_cell_angle_alpha                71.954(2)
_cell_angle_beta                 88.245(2)
_cell_angle_gamma                67.490(2)
_cell_volume                     6178.01
loop_
_atom_site_label
_atom_site_type_symbol
_atom_site_fract_x
_atom_site_fract_y
_atom_site_fract_z
Er1 Er 0.87914(4) -0.25657(3) 0.33706(2)
Er2 Er 0.94806(4) -0.14918(3) 0.42269(2)
Er3 Er 0.68965(4) -0.09488(3) 0.39298(2)
Er4 Er 0.84969(4) -0.31609(3) 0.48635(2)
Er5 Er 0.55946(4) 0.12401(3) 0.09656(2)
Er6 Er 0.82041(4) 0.06766(3) 0.11281(2)
Er7 Er 0.65613(4) 0.21264(3) 0.18357(2)
Er8 Er 0.65501(4) 0.30057(3) 0.04095(2)
O1 O 0.9086(8) -0.3575(6) 0.2854(4)
O2 O 0.8901(8) -0.4048(6) 0.3686(3)
O3 O 1.0073(7) -0.6534(6) 0.4675(3)
O4 O 0.9395(6) -0.7446(5) 0.5093(3)
O5 O 1.0446(7) -0.2877(6) 0.3303(3)
O6 O 1.0405(6) -0.1766(5) 0.3582(4)
O7 O 1.1324(7) -0.4478(5) 0.4363(3)
O8 O 1.1451(7) -0.5804(6) 0.4344(3)
O9 O 0.7360(7) -0.1970(6) 0.2823(3)
O10 O 0.6321(7) -0.1015(6) 0.3166(4)
O11 O 0.7959(6) -0.0677(5) 0.1475(4)
O12 O 0.6427(7) -0.0309(5) 0.1234(4)
O13 O 0.6563(7) -0.0353(5) 0.4611(3)
O14 O 0.5418(8) 0.0980(6) 0.4415(4)
O15 O 0.4080(6) 0.1606(5) 0.5591(4)
O16 O 0.3057(6) 0.2771(6) 0.4969(4)
O17 O 0.7234(6) 0.0381(5) 0.3613(3)
O18 O 0.8777(6) 0.0021(5) 0.3833(4)
O19 O 0.7959(6) 0.1349(6) 0.2325(3)
O20 O 0.8953(7) 0.0430(5) 0.1942(3)
O21 O 0.9083(7) 0.1401(6) 0.0596(4)
O22 O 0.8035(6) 0.2775(6) 0.0146(3)
O23 O 1.0437(9) 0.1051(7) -0.0478(4)
O24 O 1.1698(6) -0.0207(6) -0.0392(3)
O25 O 0.3820(8) 0.3593(7) 0.1530(4)
O26 O 0.5203(7) 0.3082(6) 0.2012(4)
O27 O 0.4530(7) 0.1146(6) 0.2515(3)
O28 O 0.4752(7) 0.1314(6) 0.1670(4)
O29 O 0.6825(7) 0.3398(5) 0.1720(3)
O30 O 0.6319(7) 0.4010(5) 0.0862(4)
O31 O 0.5059(7) 0.6481(6) -0.0031(3)
O32 O 0.5554(6) 0.7582(6) -0.0328(4)
O33 O 0.9486(6) -0.2890(5) 0.4209(3)
H1 H 1.0127 -0.3360 0.4283
O34 O 0.7683(6) -0.2513(5) 0.4005(3)
H2 H 0.7234 -0.2770 0.3957
O35 O 0.8354(6) -0.1260(5) 0.3545(3)
H3 H 0.8323 -0.0770 0.3229
O36 O 0.8174(6) -0.1675(5) 0.4590(3)
H4 H 0.8028 -0.1440 0.4885
O37 O 0.8846(9) -0.4446(6) 0.4704(4)
H5 H 0.8942 -0.4470 0.4394
H6 H 0.8884 -0.4908 0.4953
O38 O 0.8331(13) -0.2549(11) 0.5657(7)
H7 H 0.8336 -0.2040 0.5611
H8 H 0.8273 -0.2860 0.5962
O39 O 0.8973(7) -0.1599(6) 0.2533(4)
H9 H 0.8991 -0.1105 0.2514
H10 H 0.9019 -0.1757 0.2260
O40 O 0.9101(7) -0.0872(6) 0.4962(3)
H11 H 0.8607 -0.0869 0.5118
H12 H 0.9463 -0.0662 0.5057
O41 O 1.0622(7) -0.0856(6) 0.4280(4)
H13 H 1.1019 -0.0843 0.4051
H14 H 1.0627 -0.0646 0.4527
O42 O 0.5440(6) 0.0302(6) 0.3634(3)
H15 H 0.5218 0.0496 0.3313
H16 H 0.5140 0.0557 0.3849
O43 O 0.6822(6) 0.0903(5) 0.1601(3)
H17 H 0.6892 0.0382 0.1905
O44 O 0.7576(6) 0.2108(5) 0.1183(3)
H18 H 0.8068 0.2318 0.1235
O45 O 0.5640(6) 0.2540(5) 0.1077(3)
H19 H 0.5006 0.2998 0.1061
O46 O 0.6820(5) 0.1538(5) 0.0550(3)
H20 H 0.6887 0.1405 0.0217
O47 O 0.9724(6) -0.0450(5) 0.1251(3)
H21 H 1.0073 -0.0634 0.1538
H22 H 0.9929 -0.0674 0.1008
O48 O 0.6247(8) 0.1183(7) 0.2586(3)
H23 H 0.5999 0.0833 0.2555
H24 H 0.6380 0.1188 0.2890
O49 O 0.6521(7) 0.2855(7) -0.0460(4)
H25 H 0.6327 0.2482 -0.0510
H26 H 0.6702 0.3177 -0.0715
O50 O 0.6269(9) 0.4447(6) -0.0176(4)
H27 H 0.5737 0.4760 -0.0362
H28 H 0.6701 0.4650 -0.0200
O51 O 0.4471(7) 0.0619(6) 0.0871(4)
H29 H 0.4110 0.0538 0.1111
H30 H 0.4435 0.0479 0.0597
O52 O 0.5834(7) 0.0815(6) 0.0140(3)
H31 H 0.6288 0.0867 -0.0040
H32 H 0.5460 0.0619 0.0041
N1 N 0.9359(8) -0.6573(7) 0.3601(4)
N2 N 0.7445(8) -0.4862(7) 0.3772(4)
N3 N 1.3415(9) -0.4153(8) 0.3820(5)
N4 N 1.2446(9) -0.4119(7) 0.2857(4)
N5 N 0.6987(8) -0.3025(7) 0.2024(4)
N6 N 0.5147(8) -0.1448(7) 0.1697(4)
N7 N 0.6311(8) 0.2213(7) 0.4807(4)
N8 N 0.6141(8) 0.1021(7) 0.5921(4)
N9 N 0.8337(8) 0.2628(7) 0.2857(4)
N10 N 1.0140(8) 0.1029(7) 0.3337(4)
N11 N 1.1161(8) 0.0810(7) 0.1079(4)
N12 N 1.1350(9) 0.2131(8) 0.0020(4)
N13 N 0.2791(10) 0.2611(8) 0.3006(5)
N14 N 0.1776(9) 0.3212(9) 0.1956(5)
N15 N 0.5733(8) 0.6498(7) 0.1087(4)
N16 N 0.7742(8) 0.4954(7) 0.0836(5)
C1 C 0.9034(10) -0.4173(8) 0.3251(5)
C2 C 0.9224(9) -0.5083(8) 0.3222(5)
C3 C 0.9718(10) -0.5314(9) 0.2805(5)
H33 H 0.9801 -0.4880 0.2522
C4 C 1.0079(11) -0.6181(9) 0.2814(6)
H34 H 1.0440 -0.6353 0.2552
C5 C 0.9888(10) -0.6780(8) 0.3222(5)
H35 H 1.0143 -0.7370 0.3236
C6 C 0.8986(9) -0.5726(7) 0.3595(5)
C7 C 0.8286(9) -0.5538(7) 0.3980(5)
C8 C 0.6737(11) -0.4681(9) 0.4082(6)
H36 H 0.6171 -0.4194 0.3940
C9 C 0.6812(10) -0.5177(10) 0.4593(6)
H37 H 0.6298 -0.5047 0.4792
C10 C 0.7670(10) -0.5884(9) 0.4817(5)
H38 H 0.7742 -0.6232 0.5168
C11 C 0.8424(10) -0.6060(8) 0.4502(5)
C12 C 0.9372(10) -0.6751(8) 0.4770(5)
C13 C 1.0831(9) -0.2488(8) 0.3485(5)
C14 C 1.1904(9) -0.2928(8) 0.3665(5)
C15 C 1.2313(10) -0.2490(9) 0.3876(5)
H39 H 1.1945 -0.1924 0.3887
C16 C 1.3240(11) -0.2879(10) 0.4067(6)
H40 H 1.3519 -0.2602 0.4220
C17 C 1.3764(11) -0.3717(11) 0.4024(6)
H41 H 1.4406 -0.3986 0.4149
C18 C 1.2486(10) -0.3749(9) 0.3629(5)
C19 C 1.2186(9) -0.4264(8) 0.3354(5)
C20 C 1.2269(13) -0.4571(10) 0.2584(6)
H42 H 1.2415 -0.4458 0.2236
C21 C 1.1892(11) -0.5188(9) 0.2771(5)
H43 H 1.1801 -0.5498 0.2562
C22 C 1.1645(11) -0.5341(9) 0.3282(6)
H44 H 1.1377 -0.5755 0.3421
C23 C 1.1800(9) -0.4871(8) 0.3593(5)
C24 C 1.1494(10) -0.5046(8) 0.4134(5)
C25 C 0.6542(10) -0.1439(8) 0.2846(5)
C26 C 0.5749(9) -0.1269(8) 0.2450(4)
C27 C 0.4851(10) -0.0764(9) 0.2522(5)
H45 H 0.4747 -0.0519 0.2793
C28 C 0.4087(10) -0.0620(9) 0.2182(5)
H46 H 0.3464 -0.0297 0.2232
C29 C 0.4265(10) -0.0956(9) 0.1782(5)
H47 H 0.3753 -0.0842 0.1552
C30 C 0.5877(9) -0.1605(8) 0.2026(5)
C31 C 0.6816(9) -0.2185(7) 0.1885(4)
C32 C 0.7766(11) -0.3575(8) 0.1874(5)
H48 H 0.7869 -0.4170 0.1963
C33 C 0.8404(11) -0.3292(9) 0.1600(6)
H49 H 0.8944 -0.3692 0.1512
C34 C 0.8247(10) -0.2403(8) 0.1450(5)
H50 H 0.8676 -0.2196 0.1260
C35 C 0.7428(9) -0.1824(7) 0.1591(4)
C36 C 0.7238(8) -0.0881(8) 0.1434(5)
C37 C 0.6038(10) 0.0345(8) 0.4715(5)
C38 C 0.6222(9) 0.0297(8) 0.5281(5)
C39 C 0.6638(10) -0.0509(9) 0.5667(5)
H51 H 0.6798 -0.1028 0.5584
C40 C 0.6821(10) -0.0555(9) 0.6178(6)
H52 H 0.7114 -0.1099 0.6440
C41 C 0.6553(10) 0.0234(10) 0.6289(6)
H53 H 0.6667 0.0212 0.6633
C42 C 0.5996(8) 0.1055(7) 0.5423(5)
C43 C 0.5623(9) 0.1977(7) 0.5040(5)
C44 C 0.6074(11) 0.3044(10) 0.4486(6)
H54 H 0.6553 0.3207 0.4324
C45 C 0.5159(11) 0.3666(9) 0.4385(6)
H55 H 0.5021 0.4248 0.4175
C46 C 0.4436(11) 0.3401(8) 0.4608(6)
H56 H 0.3800 0.3789 0.4526
C47 C 0.4690(9) 0.2555(7) 0.4951(5)
C48 C 0.3870(11) 0.2284(9) 0.5194(5)
C49 C 0.7963(9) 0.0571(9) 0.3623(5)
C50 C 0.7798(9) 0.1517(8) 0.3392(5)
C51 C 0.6963(9) 0.2171(8) 0.3435(5)
H57 H 0.6488 0.2025 0.3615
C52 C 0.6834(11) 0.3053(9) 0.3208(6)
H58 H 0.6293 0.3507 0.3251
C53 C 0.7520(10) 0.3234(8) 0.2921(5)
H59 H 0.7412 0.3827 0.2756
C54 C 0.8475(9) 0.1786(8) 0.3088(5)
C55 C 0.9435(9) 0.1126(7) 0.3022(4)
C56 C 1.1028(10) 0.0474(10) 0.3307(6)
H60 H 1.1525 0.0410 0.3528
C57 C 1.1228(10) -0.0004(10) 0.2962(5)
H61 H 1.1850 -0.0378 0.2946
C58 C 1.0487(10) 0.0085(9) 0.2642(6)
H62 H 1.0599 -0.0264 0.2425
C59 C 0.9563(9) 0.0698(8) 0.2639(5)
C60 C 0.8808(10) 0.0813(8) 0.2289(5)
C61 C 1.1124(10) 0.0388(9) -0.0223(5)
C62 C 1.1317(9) 0.0237(8) 0.0359(5)
C63 C 1.1814(10) -0.0626(9) 0.0706(5)
H63 H 1.2022 -0.1109 0.0584
C64 C 1.1989(10) -0.0744(9) 0.1227(6)
H64 H 1.2339 -0.1305 0.1461
C65 C 1.1634(11) -0.0010(11) 0.1399(6)
H65 H 1.1732 -0.0097 0.1756
C66 C 1.1028(9) 0.0938(8) 0.0569(5)
C67 C 1.0638(10) 0.1870(8) 0.0218(5)
C68 C 1.1130(11) 0.2975(10) -0.0274(6)
H66 H 1.1618 0.3158 -0.0397
C69 C 1.0201(11) 0.3582(9) -0.0400(6)
H67 H 1.0067 0.4162 -0.0613
C70 C 0.9476(11) 0.3329(9) -0.0211(6)
H68 H 0.8846 0.3734 -0.0292
C71 C 0.9695(10) 0.2460(9) 0.0103(5)
C72 C 0.8869(10) 0.2176(9) 0.0300(5)
C73 C 0.4339(10) 0.3276(8) 0.1976(6)
C74 C 0.3906(11) 0.3078(9) 0.2481(6)
C75 C 0.4319(14) 0.3146(12) 0.2915(7)
H69 H 0.4817 0.3336 0.2882
C76 C 0.3959(15) 0.2919(13) 0.3401(8)
H70 H 0.4216 0.2943 0.3703
C77 C 0.3224(17) 0.2667(11) 0.3413(7)
H71 H 0.2992 0.2514 0.3738
C78 C 0.3149(10) 0.2810(9) 0.2542(6)
C79 C 0.2677(10) 0.2687(10) 0.2098(6)
C80 C 0.1321(13) 0.3075(12) 0.1592(8)
H72 H 0.0673 0.3415 0.1504
C81 C 0.1757(11) 0.2464(11) 0.1341(7)
H73 H 0.1409 0.2403 0.1087
C82 C 0.2726(12) 0.1936(10) 0.1469(6)
H74 H 0.3045 0.1538 0.1293
C83 C 0.3196(10) 0.2024(8) 0.1867(5)
C84 C 0.4227(9) 0.1447(8) 0.2033(5)
C85 C 0.6435(10) 0.4054(8) 0.1307(5)
C86 C 0.6022(9) 0.4952(7) 0.1395(5)
C87 C 0.5439(11) 0.5067(9) 0.1774(6)
H75 H 0.5338 0.4588 0.2005
C88 C 0.4988(12) 0.5904(9) 0.1818(5)
H76 H 0.4585 0.6001 0.2080
C89 C 0.5156(11) 0.6592(9) 0.1461(5)
H77 H 0.4843 0.7157 0.1485
C90 C 0.6172(10) 0.5680(8) 0.1044(4)
C91 C 0.6879(9) 0.5592(8) 0.0658(5)
C92 C 0.8419(10) 0.4855(9) 0.0509(6)
H78 H 0.9011 0.4397 0.0637
C93 C 0.8294(11) 0.5399(9) -0.0017(6)
H79 H 0.8791 0.5322 -0.0230
C94 C 0.7375(10) 0.6071(9) -0.0209(6)
H80 H 0.7246 0.6452 -0.0554
C95 C 0.6669(10) 0.6142(8) 0.0138(5)
C96 C 0.5673(10) 0.6819(8) -0.0100(4)
Er2A Er 1.05194(4) -0.85082(3) 0.57731(2)
Er3A Er 0.31035(4) 0.09488(3) 0.60702(2)
Er4A Er 1.15031(4) -0.68391(3) 0.51365(2)
Er4A_2 Er 0.15031(4) 0.31609(3) 0.51365(2)
Er5A Er 0.44054(4) 0.87599(3) -0.09656(2)
Er6A Er 1.17959(4) -0.06766(3) -0.11281(2)
Er8A Er 0.34499(4) 0.69943(3) -0.04095(2)
O3A O 0.9927(7) -0.3466(6) 0.5325(3)
O4A O 1.0605(6) -0.2554(5) 0.4907(3)
O8A O 0.8549(7) -0.4196(6) 0.5656(3)
O15A O 0.5920(6) -0.1606(5) 0.4409(4)
O16A O 0.6943(6) -0.2771(6) 0.5031(4)
O24A O 0.8302(6) 0.0207(6) 0.0392(3)
O31A O 0.4941(7) 0.3519(6) 0.0031(3)
O32A O 0.4446(6) 0.2418(6) 0.0328(4)
O53 O 0.9509(7) 0.1662(6) 0.4198(3)
O54 O 0.2758(12) 0.5291(8) 0.1080(6)
O55 O 0.6259(9) 0.5920(8) 0.2784(5)
O56 O 0.4999(12) 0.4963(9) 0.3118(6)
O57 O 0.1036(17) 0.5218(13) 0.1536(8)
O58 O 0.5175(12) 0.7620(9) 0.3671(5)
O59 O 0.0835(10) 0.8134(8) 0.2164(5)
O60 O 0.9260(13) 0.2631(11) 0.8775(7)
O61 O 0.7092(9) 0.2728(7) 0.7716(4)
O62 O 0.5539(12) 0.2816(10) 0.7172(6)
O63 O 0.7395(10) 0.3138(9) 0.8659(4)
O64 O 0.1703(7) 0.8985(6) 0.5144(4)
O65 O 0.4387(7) 0.1732(6) 0.9305(3)
O66 O 0.3333(7) 0.0939(6) 0.9997(4)
O67 O 0.9312(9) 0.2297(9) 0.1368(5)
O68 O 0.8921(9) 0.3609(8) 0.1851(4)
O69 O 0.965(2) 0.328(2) 0.7928(10)
loop_
_geom_bond_atom_site_label_1
_geom_bond_atom_site_label_2
_geom_bond_site_symmetry_1
_geom_bond_site_symmetry_2
Er1 O1 1_555 1_555
Er2 O6 1_555 1_555
Er3 O10 1_555 1_555
Er4 O33 1_555 1_555
Er5 O12 1_555 1_555
Er6 O11 1_555 1_555
Er7 O19 1_555 1_555
Er8 O22 1_555 1_555
O1 C1 1_555 1_555
O2 Er1 1_555 1_555
O3 C12 1_555 1_555
O4 C12 1_555 1_555
O5 Er1 1_555 1_555
O6 C13 1_555 1_555
O7 C24 1_555 1_555
O8 C24 1_555 1_555
O9 Er1 1_555 1_555
O10 C25 1_555 1_555
O11 C36 1_555 1_555
O12 C36 1_555 1_555
O13 Er3 1_555 1_555
O14 C37 1_555 1_555
O15 C48 1_555 1_555
O16 C48 1_555 1_555
O17 Er3 1_555 1_555
O18 Er2 1_555 1_555
O19 C60 1_555 1_555
O20 Er6 1_555 1_555
O21 Er6 1_555 1_555
O22 C72 1_555 1_555
O23 C61 1_555 1_555
O24 C61 1_555 1_555
O25 C73 1_555 1_555
O26 Er7 1_555 1_555
O27 C84 1_555 1_555
O28 Er5 1_555 1_555
O29 Er7 1_555 1_555
O30 Er8 1_555 1_555
O31 C96 1_555 1_555
O32 C96 1_555 1_555
O33 Er1 1_555 1_555
H1 O33 1_555 1_555
O34 Er1 1_555 1_555
H2 O34 1_555 1_555
O35 Er1 1_555 1_555
H3 O35 1_555 1_555
O36 Er2 1_555 1_555
H4 O36 1_555 1_555
O37 Er4 1_555 1_555
H5 O37 1_555 1_555
H6 O37 1_555 1_555
O38 Er4 1_555 1_555
H7 O38 1_555 1_555
H8 O38 1_555 1_555
O39 Er1 1_555 1_555
H9 O39 1_555 1_555
H10 O39 1_555 1_555
O40 Er2 1_555 1_555
H11 O40 1_555 1_555
H12 O40 1_555 1_555
O41 Er2 1_555 1_555
H13 O41 1_555 1_555
H14 O41 1_555 1_555
O42 Er3 1_555 1_555
H15 O42 1_555 1_555
H16 O42 1_555 1_555
O43 Er5 1_555 1_555
H17 O43 1_555 1_555
O44 Er6 1_555 1_555
H18 O44 1_555 1_555
O45 Er5 1_555 1_555
H19 O45 1_555 1_555
O46 Er5 1_555 1_555
H20 O46 1_555 1_555
O47 Er6 1_555 1_555
H21 O47 1_555 1_555
H22 O47 1_555 1_555
O48 Er7 1_555 1_555
H23 O48 1_555 1_555
H24 O48 1_555 1_555
O49 Er8 1_555 1_555
H25 O49 1_555 1_555
H26 O49 1_555 1_555
O50 Er8 1_555 1_555
H27 O50 1_555 1_555
H28 O50 1_555 1_555
O51 Er5 1_555 1_555
H29 O51 1_555 1_555
H30 O51 1_555 1_555
O52 Er5 1_555 1_555
H31 O52 1_555 1_555
H32 O52 1_555 1_555
N1 C5 1_555 1_555
N2 C7 1_555 1_555
N3 C17 1_555 1_555
N4 C19 1_555 1_555
N5 C31 1_555 1_555
N6 C29 1_555 1_555
N7 C43 1_555 1_555
N8 C41 1_555 1_555
N9 C53 1_555 1_555
N10 C55 1_555 1_555
N11 C65 1_555 1_555
N12 C67 1_555 1_555
N13 C77 1_555 1_555
N14 C79 1_555 1_555
N15 C89 1_555 1_555
N16 C91 1_555 1_555
C1 O2 1_555 1_555
C2 C1 1_555 1_555
C3 C2 1_555 1_555
H33 C3 1_555 1_555
C4 C3 1_555 1_555
H34 C4 1_555 1_555
C5 C4 1_555 1_555
H35 C5 1_555 1_555
C6 N1 1_555 1_555
C7 C6 1_555 1_555
C8 N2 1_555 1_555
H36 C8 1_555 1_555
C9 C8 1_555 1_555
H37 C9 1_555 1_555
C10 C9 1_555 1_555
H38 C10 1_555 1_555
C11 C7 1_555 1_555
C12 C11 1_555 1_555
C13 O5 1_555 1_555
C14 C13 1_555 1_555
C15 C14 1_555 1_555
H39 C15 1_555 1_555
C16 C15 1_555 1_555
H40 C16 1_555 1_555
C17 C16 1_555 1_555
H41 C17 1_555 1_555
C18 N3 1_555 1_555
C19 C18 1_555 1_555
C20 N4 1_555 1_555
H42 C20 1_555 1_555
C21 C20 1_555 1_555
H43 C21 1_555 1_555
C22 C21 1_555 1_555
H44 C22 1_555 1_555
C23 C19 1_555 1_555
C24 C23 1_555 1_555
C25 O9 1_555 1_555
C26 C25 1_555 1_555
C27 C26 1_555 1_555
H45 C27 1_555 1_555
C28 C27 1_555 1_555
H46 C28 1_555 1_555
C29 C28 1_555 1_555
H47 C29 1_555 1_555
C30 N6 1_555 1_555
C31 C30 1_555 1_555
C32 N5 1_555 1_555
H48 C32 1_555 1_555
C33 C32 1_555 1_555
H49 C33 1_555 1_555
C34 C33 1_555 1_555
H50 C34 1_555 1_555
C35 C31 1_555 1_555
C36 C35 1_555 1_555
C37 O13 1_555 1_555
C38 C37 1_555 1_555
C39 C38 1_555 1_555
H51 C39 1_555 1_555
C40 C39 1_555 1_555
H52 C40 1_555 1_555
C41 C40 1_555 1_555
H53 C41 1_555 1_555
C42 N8 1_555 1_555
C43 C42 1_555 1_555
C44 N7 1_555 1_555
H54 C44 1_555 1_555
C45 C44 1_555 1_555
H55 C45 1_555 1_555
C46 C45 1_555 1_555
H56 C46 1_555 1_555
C47 C43 1_555 1_555
C48 C47 1_555 1_555
C49 O17 1_555 1_555
C50 C49 1_555 1_555
C51 C50 1_555 1_555
H57 C51 1_555 1_555
C52 C51 1_555 1_555
H58 C52 1_555 1_555
C53 C52 1_555 1_555
H59 C53 1_555 1_555
C54 N9 1_555 1_555
C55 C54 1_555 1_555
C56 N10 1_555 1_555
H60 C56 1_555 1_555
C57 C56 1_555 1_555
H61 C57 1_555 1_555
C58 C57 1_555 1_555
H62 C58 1_555 1_555
C59 C55 1_555 1_555
C60 O20 1_555 1_555
C61 C62 1_555 1_555
C62 C63 1_555 1_555
C63 H63 1_555 1_555
C64 C63 1_555 1_555
H64 C64 1_555 1_555
C65 C64 1_555 1_555
H65 C65 1_555 1_555
C66 N11 1_555 1_555
C67 C66 1_555 1_555
C68 N12 1_555 1_555
H66 C68 1_555 1_555
C69 C68 1_555 1_555
H67 C69 1_555 1_555
C70 C69 1_555 1_555
H68 C70 1_555 1_555
C71 C67 1_555 1_555
C72 O21 1_555 1_555
C73 O26 1_555 1_555
C74 C73 1_555 1_555
C75 C74 1_555 1_555
H69 C75 1_555 1_555
C76 C75 1_555 1_555
H70 C76 1_555 1_555
C77 C76 1_555 1_555
H71 C77 1_555 1_555
C78 N13 1_555 1_555
C79 C78 1_555 1_555
C80 N14 1_555 1_555
H72 C80 1_555 1_555
C81 C80 1_555 1_555
H73 C81 1_555 1_555
C82 C81 1_555 1_555
H74 C82 1_555 1_555
C83 C79 1_555 1_555
C84 O28 1_555 1_555
C85 O29 1_555 1_555
C86 C85 1_555 1_555
C87 C86 1_555 1_555
H75 C87 1_555 1_555
C88 C87 1_555 1_555
H76 C88 1_555 1_555
C89 C88 1_555 1_555
H77 C89 1_555 1_555
C90 N15 1_555 1_555
C91 C90 1_555 1_555
C92 N16 1_555 1_555
H78 C92 1_555 1_555
C93 C92 1_555 1_555
H79 C93 1_555 1_555
C94 C93 1_555 1_555
H80 C94 1_555 1_555
C95 C91 1_555 1_555
C96 C95 1_555 1_555
Er2A O4 1_555 1_555
Er3A O15 1_555 1_555
Er4A O3 1_555 1_555
Er4A_2 O16 1_555 1_555
Er5A O32 1_555 1_555
Er6A O24 1_555 1_555
Er8A O31 1_555 1_555
O3A Er4 1_555 1_555
O4A Er2 1_555 1_555
O8A Er4 1_555 1_555
O15A Er3 1_555 1_555
O16A Er4 1_555 1_555
O24A Er6 1_555 1_555
O31A Er8 1_555 1_555
O32A Er5 1_555 1_555
Er2 O33 1_555 1_555
Er2 O35 1_555 1_555
Er3 O34 1_555 1_555
Er3 O35 1_555 1_555
Er3 O36 1_555 1_555
Er4 O34 1_555 1_555
Er4 O36 1_555 1_555
Er6 O43 1_555 1_555
Er6 O46 1_555 1_555
Er7 O43 1_555 1_555
Er7 O44 1_555 1_555
Er7 O45 1_555 1_555
Er8 O44 1_555 1_555
Er8 O45 1_555 1_555
Er8 O46 1_555 1_555
O8 Er4A 1_555 1_555
O18 C49 1_555 1_555
O30 C85 1_555 1_555
C2 C6 1_555 1_555
C10 C11 1_555 1_555
C14 C18 1_555 1_555
C22 C23 1_555 1_555
C26 C30 1_555 1_555
C34 C35 1_555 1_555
C38 C42 1_555 1_555
C46 C47 1_555 1_555
C50 C54 1_555 1_555
C58 C59 1_555 1_555
C59 C60 1_555 1_555
C62 C66 1_555 1_555
C70 C71 1_555 1_555
C71 C72 1_555 1_555
C74 C78 1_555 1_555
C82 C83 1_555 1_555
C83 C84 1_555 1_555
C86 C90 1_555 1_555
C94 C95 1_555 1_555

#END
