
#######################################################################
#
#                 Cambridge Crystallographic Data Centre
#                                CCDC 
#
#######################################################################
#
# If this CIF has been generated from an entry in the Cambridge 
# Structural Database, then it will include bibliographic, chemical, 
# crystal, experimental, refinement or atomic coordinate data resulting 
# from the CCDC's data processing and validation procedures.
#
#######################################################################

data_XIWMOG
_symmetry_cell_setting           monoclinic
_symmetry_space_group_name_H-M   'C 2/c'
_symmetry_Int_Tables_number      15
_space_group_name_Hall           '-C 2yn'
loop_
_symmetry_equiv_pos_site_id
_symmetry_equiv_pos_as_xyz
1 x,y,z
2 1/2+x,1/2+y,z
3 -x,y,1/2-z
4 1/2-x,1/2+y,1/2-z
5 -x,-y,-z
6 1/2-x,1/2-y,-z
7 x,-y,1/2+z
8 1/2+x,1/2-y,1/2+z
_cell_length_a                   27.549(3)
_cell_length_b                   7.8073(8)
_cell_length_c                   14.6330(15)
_cell_angle_alpha                90
_cell_angle_beta                 106.758(2)
_cell_angle_gamma                90
_cell_volume                     3013.65
loop_
_atom_site_label
_atom_site_type_symbol
_atom_site_fract_x
_atom_site_fract_y
_atom_site_fract_z
Cd1 Cd 0.408458(12) 0.29047(5) 0.93553(2)
S1 S 0.43428(5) 0.41388(19) 1.10911(9)
S2 S 0.28045(6) -0.0364(2) 1.04626(11)
N1 N 0.52857(16) 0.5498(6) 1.1106(3)
N2 N 0.35093(17) 0.1308(7) 0.9794(3)
N3 N 0.45442(14) 0.0183(5) 0.9182(3)
N4 N 0.38398(15) 0.2223(6) 0.7762(3)
N5 N 0.34785(14) 0.4961(5) 0.8495(3)
C1 C 0.49002(19) 0.4964(7) 1.1104(3)
C2 C 0.32144(18) 0.0672(7) 1.0069(3)
C3 C 0.45766(17) -0.1037(7) 0.9963(3)
H1 H 0.4690 -0.2162 0.9788
H2 H 0.4235 -0.1189 1.0047
C4 C 0.50626(17) 0.0453(7) 0.9107(3)
H3 H 0.5052 0.1322 0.8609
H4 H 0.5189 -0.0631 0.8908
C5 C 0.4205(2) -0.0545(7) 0.8287(4)
H5 H 0.3889 -0.0950 0.8411
H6 H 0.4372 -0.1549 0.8096
C6 C 0.4069(2) 0.0732(8) 0.7466(4)
H7 H 0.4378 0.1070 0.7295
H8 H 0.3829 0.0204 0.6899
C7 C 0.3562(2) 0.3285(8) 0.7180(4)
H9 H 0.3492 0.3110 0.6512
C8 C 0.33511(18) 0.4778(7) 0.7540(4)
C9 C 0.3023(2) 0.5909(8) 0.6931(4)
H10 H 0.2948 0.5771 0.6260
C10 C 0.2809(2) 0.7217(8) 0.7295(5)
H11 H 0.2581 0.7990 0.6884
C11 C 0.2928(2) 0.7393(8) 0.8261(5)
H12 H 0.2781 0.8277 0.8539
C12 C 0.32684(19) 0.6260(8) 0.8824(4)
H13 H 0.3359 0.6420 0.9496
Cd1D Cd 0.591542(12) 0.70953(5) 1.06447(2)
Cd1D_2 Cd 0.591542(12) -0.29047(5) 1.06447(2)
S1D S 0.56572(5) 0.58612(19) 0.89089(9)
S2D S 0.71955(6) 1.0364(2) 0.95374(11)
N1D N 0.47143(16) 0.4502(6) 0.8894(3)
N2D N 0.64907(17) 0.8692(7) 1.0206(3)
N3D N 0.54558(14) -0.0183(5) 1.0818(3)
N3D_2 N 0.54558(14) 0.9817(5) 1.0818(3)
N4D N 0.61602(15) -0.2223(6) 1.2238(3)
N4D_2 N 0.61602(15) 0.7777(6) 1.2238(3)
N5D N 0.65215(14) -0.4961(5) 1.1505(3)
N5D_2 N 0.65215(14) 0.5039(5) 1.1505(3)
C1D C 0.50998(19) 0.5036(7) 0.8896(3)
C2D C 0.67856(18) 0.9328(7) 0.9931(3)
C3D C 0.54234(17) 0.1037(7) 1.0037(3)
H1D H 0.5310 0.2162 1.0212
H2D H 0.5765 0.1189 0.9953
C4D C 0.49374(17) -0.0453(7) 1.0893(3)
H3D H 0.4948 -0.1322 1.1391
H4D H 0.4811 0.0631 1.1092
C5D C 0.5795(2) 0.0545(7) 1.1713(4)
H5D H 0.6111 0.0950 1.1589
H6D H 0.5628 0.1549 1.1904
C6D C 0.5931(2) -0.0732(8) 1.2534(4)
H7D H 0.5622 -0.1070 1.2705
H8D H 0.6171 -0.0204 1.3101
C7D C 0.6438(2) -0.3285(8) 1.2820(4)
H9D H 0.6508 -0.3110 1.3488
C8D C 0.66489(18) -0.4778(7) 1.2460(4)
C9D C 0.6977(2) -0.5909(8) 1.3069(4)
H10D H 0.7052 -0.5771 1.3740
C10D C 0.7191(2) -0.7217(8) 1.2705(5)
H11D H 0.7419 -0.7990 1.3116
C11D C 0.7072(2) -0.7393(8) 1.1739(5)
H12D H 0.7219 -0.8277 1.1461
C12D C 0.67316(19) -0.6260(8) 1.1176(4)
H13D H 0.6641 -0.6420 1.0504
loop_
_geom_bond_atom_site_label_1
_geom_bond_atom_site_label_2
_geom_bond_site_symmetry_1
_geom_bond_site_symmetry_2
Cd1 S1 1_555 1_555
S1 C1 1_555 1_555
S2 C2 1_555 1_555
N1 C1 1_555 1_555
N2 Cd1 1_555 1_555
N3 Cd1 1_555 1_555
N4 Cd1 1_555 1_555
N5 Cd1 1_555 1_555
C2 N2 1_555 1_555
C3 N3 1_555 1_555
H1 C3 1_555 1_555
H2 C3 1_555 1_555
C4 N3 1_555 1_555
H3 C4 1_555 1_555
H4 C4 1_555 1_555
C5 N3 1_555 1_555
H5 C5 1_555 1_555
H6 C5 1_555 1_555
C6 N4 1_555 1_555
H7 C6 1_555 1_555
H8 C6 1_555 1_555
C7 N4 1_555 1_555
H9 C7 1_555 1_555
C8 N5 1_555 1_555
C9 C8 1_555 1_555
H10 C9 1_555 1_555
C10 C9 1_555 1_555
H11 C10 1_555 1_555
C11 C10 1_555 1_555
H12 C11 1_555 1_555
C12 N5 1_555 1_555
H13 C12 1_555 1_555
Cd1D N1 1_555 1_555
Cd1D_2 N3D 1_555 1_555
S1D Cd1D 1_555 1_555
S2D C2D 1_555 1_555
N1D Cd1 1_555 1_555
N2D Cd1D 1_555 1_555
N3D C3D 1_555 1_555
N3D_2 Cd1D 1_555 1_555
N4D Cd1D_2 1_555 1_555
N4D_2 Cd1D 1_555 1_555
N5D Cd1D_2 1_555 1_555
N5D_2 Cd1D 1_555 1_555
C1D S1D 1_555 1_555
C2D N2D 1_555 1_555
C3D C4 1_555 1_555
H1D C3D 1_555 1_555
H2D C3D 1_555 1_555
C4D C3 1_555 1_555
H3D C4D 1_555 1_555
H4D C4D 1_555 1_555
C5D N3D 1_555 1_555
H5D C5D 1_555 1_555
H6D C5D 1_555 1_555
C6D N4D 1_555 1_555
H7D C6D 1_555 1_555
H8D C6D 1_555 1_555
C7D N4D 1_555 1_555
H9D C7D 1_555 1_555
C8D N5D 1_555 1_555
C9D C8D 1_555 1_555
H10D C9D 1_555 1_555
C10D C9D 1_555 1_555
H11D C10D 1_555 1_555
C11D C10D 1_555 1_555
H12D C11D 1_555 1_555
C12D N5D 1_555 1_555
H13D C12D 1_555 1_555
C5 C6 1_555 1_555
C7 C8 1_555 1_555
C11 C12 1_555 1_555
N1D C1D 1_555 1_555
N3D C4D 1_555 1_555
C5D C6D 1_555 1_555
C7D C8D 1_555 1_555
C11D C12D 1_555 1_555

#END
