
#######################################################################
#
#                 Cambridge Crystallographic Data Centre
#                                CCDC 
#
#######################################################################
#
# If this CIF has been generated from an entry in the Cambridge 
# Structural Database, then it will include bibliographic, chemical, 
# crystal, experimental, refinement or atomic coordinate data resulting 
# from the CCDC's data processing and validation procedures.
#
#######################################################################

data_XIWSAX01
_symmetry_cell_setting           monoclinic
_symmetry_space_group_name_H-M   'C 2/c'
_symmetry_Int_Tables_number      15
_space_group_name_Hall           '-C 2yn'
loop_
_symmetry_equiv_pos_site_id
_symmetry_equiv_pos_as_xyz
1 x,y,z
2 1/2+x,1/2+y,z
3 x,-y,1/2+z
4 1/2+x,1/2-y,1/2+z
5 -x,-y,-z
6 1/2-x,1/2-y,-z
7 -x,y,1/2-z
8 1/2-x,1/2+y,1/2-z
_cell_length_a                   21.941(2)
_cell_length_b                   8.0915(7)
_cell_length_c                   15.8563(14)
_cell_angle_alpha                90.00
_cell_angle_beta                 110.424(2)
_cell_angle_gamma                90.00
_cell_volume                     2638.09
loop_
_atom_site_label
_atom_site_type_symbol
_atom_site_fract_x
_atom_site_fract_y
_atom_site_fract_z
Cu1 Cu 0.26545(2) 0.73170(6) 0.20946(3)
V1 V 0.17161(3) 1.11852(8) -0.08071(4)
P1 P 0.27113(5) 1.05207(12) 0.12248(6)
O1 O 0.20718(13) 1.0825(3) 0.04123(17)
O2 O 0.32425(14) 1.1578(3) 0.1033(2)
O3 O 0.29081(12) 0.8717(3) 0.12646(16)
O4 O 0.26207(13) 1.1034(4) 0.20810(16)
O5 O 0.29018(13) 0.4886(4) 0.13516(17)
O6 O 0.09540(13) 1.0673(4) -0.11879(18)
N1 N 0.35504(15) 0.7501(4) 0.3006(2)
N2 N 0.67291(15) 0.7665(4) 0.62360(19)
C1 C 0.36577(18) 0.8165(5) 0.3819(2)
H1 H 0.3310 0.8626 0.3943
C2 C 0.42676(18) 0.8188(5) 0.4482(2)
H2 H 0.4323 0.8639 0.5044
C3 C 0.40528(19) 0.6862(5) 0.2830(3)
H3 H 0.3980 0.6407 0.2264
C4 C 0.46775(18) 0.6847(5) 0.3452(2)
H4 H 0.5016 0.6385 0.3306
C5 C 0.47962(18) 0.7535(5) 0.4307(2)
C6 C 0.54644(18) 0.7575(5) 0.4979(2)
C7 C 0.5587(2) 0.7302(5) 0.5892(3)
H5 H 0.5246 0.7080 0.6095
C8 C 0.6218(2) 0.7363(5) 0.6492(3)
H6 H 0.6291 0.7188 0.7100
C9 C 0.59955(18) 0.7900(5) 0.4718(2)
H7 H 0.5935 0.8096 0.4116
C10 C 0.66138(19) 0.7930(5) 0.5358(2)
H8 H 0.6964 0.8143 0.5173
O4G O 0.23793(13) 0.6034(4) 0.29190(16)
N2C N 0.17291(15) 0.7335(4) 0.12360(19)
O2E O 0.17575(14) 1.3422(3) -0.1033(2)
O5E O 0.20982(13) 1.0114(4) -0.13516(17)
V1E V 0.32839(3) 1.38148(8) 0.08071(4)
Cu1G Cu 0.23455(2) 1.23170(6) 0.29054(3)
V1E_2 V 0.32839(3) 0.38148(8) 0.08071(4)
Cu1C Cu 0.76545(2) 0.76830(6) 0.70946(3)
loop_
_geom_bond_atom_site_label_1
_geom_bond_atom_site_label_2
_geom_bond_site_symmetry_1
_geom_bond_site_symmetry_2
Cu1 O3 1_555 1_555
V1 O1 1_555 1_555
P1 O1 1_555 1_555
O2 P1 1_555 1_555
O3 P1 1_555 1_555
O4 P1 1_555 1_555
O5 Cu1 1_555 1_555
O6 V1 1_555 1_555
N1 Cu1 1_555 1_555
N2 C8 1_555 1_555
C1 N1 1_555 1_555
H1 C1 1_555 1_555
C2 C1 1_555 1_555
H2 C2 1_555 1_555
C3 N1 1_555 1_555
H3 C3 1_555 1_555
C4 C3 1_555 1_555
H4 C4 1_555 1_555
C5 C2 1_555 1_555
C6 C5 1_555 1_555
C7 C6 1_555 1_555
H5 C7 1_555 1_555
C8 C7 1_555 1_555
H6 C8 1_555 1_555
C9 C6 1_555 1_555
H7 C9 1_555 1_555
C10 N2 1_555 1_555
H8 C10 1_555 1_555
O4G Cu1 1_555 1_555
N2C Cu1 1_555 1_555
O2E V1 1_555 1_555
O5E V1 1_555 1_555
V1E O2 1_555 1_555
Cu1G O4 1_555 1_555
V1E_2 O5 1_555 1_555
Cu1C N2 1_555 1_555
C4 C5 1_555 1_555
C9 C10 1_555 1_555

#END
