
#######################################################################
#
#                 Cambridge Crystallographic Data Centre
#                                CCDC 
#
#######################################################################
#
# If this CIF has been generated from an entry in the Cambridge 
# Structural Database, then it will include bibliographic, chemical, 
# crystal, experimental, refinement or atomic coordinate data resulting 
# from the CCDC's data processing and validation procedures.
#
#######################################################################

data_XIWSIF
_symmetry_cell_setting           triclinic
_symmetry_space_group_name_H-M   'P -1'
_symmetry_Int_Tables_number      2
_space_group_name_Hall           '-P 1'
loop_
_symmetry_equiv_pos_site_id
_symmetry_equiv_pos_as_xyz
1 x,y,z
2 -x,-y,-z
_cell_length_a                   5.561(5)
_cell_length_b                   10.271(9)
_cell_length_c                   11.780(9)
_cell_angle_alpha                74.31(3)
_cell_angle_beta                 79.98(3)
_cell_angle_gamma                85.74(3)
_cell_volume                     637.624
loop_
_atom_site_label
_atom_site_type_symbol
_atom_site_fract_x
_atom_site_fract_y
_atom_site_fract_z
Cu1 Cu -0.3376(1) 0.3802(1) 0.3377(1)
V1 V -0.8523(2) 0.3030(1) 0.7421(1)
P1 P -0.3189(3) 0.3891(1) 0.6079(1)
O1 O -0.1247(8) 0.5645(4) 0.2044(4)
O2 O -0.3644(7) 0.5122(4) 0.6592(4)
O3 O -0.2488(8) 0.4242(4) 0.4729(4)
O4 O -0.1095(8) 0.2986(4) 0.6635(4)
O5 O -0.8654(8) 0.1699(4) 0.8533(4)
O6 O -0.5507(8) 0.2976(4) 0.6480(4)
N1 N -0.0775(10) 0.2352(5) 0.3393(5)
N2 N -0.4077(10) 0.3137(5) 0.2026(5)
C1 C 0.0837(13) 0.2035(7) 0.4139(7)
C2 C 0.2533(13) 0.0989(6) 0.4124(7)
C3 C 0.2514(3) 0.0221(6) 0.3346(7)
C4 C 0.0887(14) 0.0554(7) 0.2550(7)
C5 C -0.0773(12) 0.1638(6) 0.2579(6)
C6 C -0.2561(12) 0.2131(6) 0.1766(6)
C7 C -0.2728(16) 0.1635(8) 0.0795(7)
C8 C -0.4475(16) 0.2188(8) 0.0101(7)
C9 C -0.6063(14) 0.3190(7) 0.0373(6)
C10 C -0.5786(14) 0.3657(7) 0.1342(6)
H1 H 0.067(11) 0.2530(60) 0.4610(50)
H2 H 0.381(15) 0.0840(70) 0.4620(70)
H3 H 0.400(16) -0.0520(80) 0.3330(70)
H4 H 0.084(12) 0.0110(60) 0.2070(60)
H5 H -0.160(15) 0.1030(80) 0.0590(70)
H6 H -0.451(12) 0.1850(60) -0.0450(60)
H7 H -0.725(14) 0.3720(70) -0.0260(60)
H8 H -0.681(13) 0.4210(70) 0.1620(60)
Cu1A Cu -0.6624(1) 0.6198(1) 0.6623(1)
O1A O -0.8753(8) 0.4355(4) 0.7956(4)
O2A O -0.6356(7) 0.4878(4) 0.3408(4)
V1A V -0.1477(2) 0.6970(1) 0.2579(1)
V1_2 V 0.1477(2) 0.3030(1) 0.7421(1)
O4_2 O -1.1095(8) 0.2986(4) 0.6635(4)
loop_
_geom_bond_atom_site_label_1
_geom_bond_atom_site_label_2
_geom_bond_site_symmetry_1
_geom_bond_site_symmetry_2
Cu1 O1 1_555 1_555
V1 O5 1_555 1_555
P1 O2 1_555 1_555
O1 V1A 1_555 1_555
O2 Cu1A 1_555 1_555
O3 Cu1 1_555 1_555
O4 P1 1_555 1_555
O6 V1 1_555 1_555
N1 Cu1 1_555 1_555
N2 Cu1 1_555 1_555
C1 N1 1_555 1_555
C2 C1 1_555 1_555
C3 C2 1_555 1_555
C4 C3 1_555 1_555
C5 N1 1_555 1_555
C6 N2 1_555 1_555
C7 C6 1_555 1_555
C8 C7 1_555 1_555
C9 C8 1_555 1_555
C10 N2 1_555 1_555
H1 C1 1_555 1_555
H2 C2 1_555 1_555
H3 C3 1_555 1_555
H4 C4 1_555 1_555
H5 C7 1_555 1_555
H6 C8 1_555 1_555
H7 C9 1_555 1_555
H8 C10 1_555 1_555
Cu1A O1A 1_555 1_555
O1A V1 1_555 1_555
O2A Cu1 1_555 1_555
V1_2 O4 1_555 1_555
O4_2 V1 1_555 1_555
P1 O3 1_555 1_555
P1 O6 1_555 1_555
C4 C5 1_555 1_555
C5 C6 1_555 1_555
C9 C10 1_555 1_555

#END
