
#######################################################################
#
#                 Cambridge Crystallographic Data Centre
#                                CCDC 
#
#######################################################################
#
# If this CIF has been generated from an entry in the Cambridge 
# Structural Database, then it will include bibliographic, chemical, 
# crystal, experimental, refinement or atomic coordinate data resulting 
# from the CCDC's data processing and validation procedures.
#
#######################################################################

data_XIWWOR
_symmetry_cell_setting           tetragonal
_symmetry_space_group_name_H-M   'I -4 2 m'
_symmetry_Int_Tables_number      121
_space_group_name_Hall           'I -4 2'
loop_
_symmetry_equiv_pos_site_id
_symmetry_equiv_pos_as_xyz
1 x,y,z
2 -x,-y,z
3 y,-x,-z
4 -y,x,-z
5 -x,y,-z
6 x,-y,-z
7 -y,-x,z
8 y,x,z
9 1/2+x,1/2+y,1/2+z
10 1/2-x,1/2-y,1/2+z
11 1/2+y,1/2-x,1/2-z
12 1/2-y,1/2+x,1/2-z
13 1/2-x,1/2+y,1/2-z
14 1/2+x,1/2-y,1/2-z
15 1/2-y,1/2-x,1/2+z
16 1/2+y,1/2+x,1/2+z
_cell_length_a                   20.2165(5)
_cell_length_b                   20.2165(5)
_cell_length_c                   9.0878(3)
_cell_angle_alpha                90
_cell_angle_beta                 90
_cell_angle_gamma                90
_cell_volume                     3714.25
loop_
_atom_site_label
_atom_site_type_symbol
_atom_site_fract_x
_atom_site_fract_y
_atom_site_fract_z
C1 C 0.4451(3) 0.1176(3) -0.1401(7)
H1 H 0.4871 0.1349 -0.1552
C2 C 0.3860(3) 0.1465(3) -0.1941(8)
H2 H 0.3824 0.1849 -0.2499
C3 C 0.3354(2) 0.1065(3) -0.1475(7)
H3 H 0.2905 0.1127 -0.1648
C4 C 0.3650(2) 0.0535(2) -0.0672(5)
C5 C 0.3325(2) 0.0000 0.0000
C6 C 0.2589(2) 0.0000 0.0000
C7 C 0.22339(18) 0.0051(3) 0.1295(4)
H4 H 0.2453 0.0087 0.2192
C8 C 0.15462(18) 0.0049(4) 0.1244(4)
H5 H 0.1316 0.0084 0.2126
N1 N 0.43274(19) 0.0626(2) -0.0654(5)
N2 N 0.11980(19) 0.0000 0.0000
Cl1 Cl 0.0000 0.0000 0.28371(16)
Cu1 Cu 0.5000 0.0000 0.0000
Cd1 Cd 0.0000 0.0000 0.0000
C1E C 0.4451(3) -0.1176(3) 0.1401(7)
H1E H 0.4871 -0.1349 0.1552
C2E C 0.3860(3) -0.1465(3) 0.1941(8)
H2E H 0.3824 -0.1849 0.2499
C3E C 0.3354(2) -0.1065(3) 0.1475(7)
H3E H 0.2905 -0.1127 0.1648
C4E C 0.3650(2) -0.0535(2) 0.0672(5)
C7E C 0.22339(18) -0.0051(3) -0.1295(4)
H4E H 0.2453 -0.0087 -0.2192
C8E C 0.15462(18) -0.0049(4) -0.1244(4)
H5E H 0.1316 -0.0084 -0.2126
N1E N 0.43274(19) -0.0626(2) 0.0654(5)
C1A C -0.4451(3) -0.1176(3) -0.1401(7)
H1A H -0.4871 -0.1349 -0.1552
C2A C -0.3860(3) -0.1465(3) -0.1941(8)
H2A H -0.3824 -0.1849 -0.2499
C3A C -0.3354(2) -0.1065(3) -0.1475(7)
H3A H -0.2905 -0.1127 -0.1648
C4A C -0.3650(2) -0.0535(2) -0.0672(5)
C5A C -0.3325(2) 0.0000 0.0000
C6A C -0.2589(2) 0.0000 0.0000
C7A C -0.22339(18) -0.0051(3) 0.1295(4)
H4A H -0.2453 -0.0087 0.2192
C8A C -0.15462(18) -0.0049(4) 0.1244(4)
H5A H -0.1316 -0.0084 0.2126
N1A N -0.43274(19) -0.0626(2) -0.0654(5)
N2A N -0.11980(19) 0.0000 0.0000
Cu1_2 Cu -0.5000 0.0000 0.0000
C1D C -0.4451(3) 0.1176(3) 0.1401(7)
H1D H -0.4871 0.1349 0.1552
C2D C -0.3860(3) 0.1465(3) 0.1941(8)
H2D H -0.3824 0.1849 0.2499
C3D C -0.3354(2) 0.1065(3) 0.1475(7)
H3D H -0.2905 0.1127 0.1648
C4D C -0.3650(2) 0.0535(2) 0.0672(5)
C7D C -0.22339(18) 0.0051(3) -0.1295(4)
H4D H -0.2453 0.0087 -0.2192
C8D C -0.15462(18) 0.0049(4) -0.1244(4)
H5D H -0.1316 0.0084 -0.2126
N1D N -0.43274(19) 0.0626(2) 0.0654(5)
C1B C 0.1176(3) -0.4451(3) 0.1401(7)
H1B H 0.1349 -0.4871 0.1552
C2B C 0.1465(3) -0.3860(3) 0.1941(8)
H2B H 0.1849 -0.3824 0.2499
C3B C 0.1065(3) -0.3354(2) 0.1475(7)
H3B H 0.1127 -0.2905 0.1648
C4B C 0.0535(2) -0.3650(2) 0.0672(5)
C5B C 0.0000 -0.3325(2) 0.0000
C6B C 0.0000 -0.2589(2) 0.0000
C7B C 0.0051(3) -0.22339(18) -0.1295(4)
H4B H 0.0087 -0.2453 -0.2192
C8B C 0.0049(4) -0.15462(18) -0.1244(4)
H5B H 0.0084 -0.1316 -0.2126
N1B N 0.0626(2) -0.43274(19) 0.0654(5)
N2B N 0.0000 -0.11980(19) 0.0000
Cl1B Cl 0.0000 0.0000 -0.28371(16)
C1F C -0.1176(3) -0.4451(3) -0.1401(7)
H1F H -0.1349 -0.4871 -0.1552
C2F C -0.1465(3) -0.3860(3) -0.1941(8)
H2F H -0.1849 -0.3824 -0.2499
C3F C -0.1065(3) -0.3354(2) -0.1475(7)
H3F H -0.1127 -0.2905 -0.1648
C4F C -0.0535(2) -0.3650(2) -0.0672(5)
C7F C -0.0051(3) -0.22339(18) 0.1295(4)
H4F H -0.0087 -0.2453 0.2192
C8F C -0.0049(4) -0.15462(18) 0.1244(4)
H5F H -0.0084 -0.1316 0.2126
N1F N -0.0626(2) -0.43274(19) -0.0654(5)
C1C C -0.1176(3) 0.4451(3) 0.1401(7)
H1C H -0.1349 0.4871 0.1552
C2C C -0.1465(3) 0.3860(3) 0.1941(8)
H2C H -0.1849 0.3824 0.2499
C3C C -0.1065(3) 0.3354(2) 0.1475(7)
H3C H -0.1127 0.2905 0.1648
C4C C -0.0535(2) 0.3650(2) 0.0672(5)
C5C C 0.0000 0.3325(2) 0.0000
C6C C 0.0000 0.2589(2) 0.0000
C7C C -0.0051(3) 0.22339(18) -0.1295(4)
H4C H -0.0087 0.2453 -0.2192
C8C C -0.0049(4) 0.15462(18) -0.1244(4)
H5C H -0.0084 0.1316 -0.2126
N1C N -0.0626(2) 0.43274(19) 0.0654(5)
N2C N 0.0000 0.11980(19) 0.0000
C1G C 0.1176(3) 0.4451(3) -0.1401(7)
H1G H 0.1349 0.4871 -0.1552
C2G C 0.1465(3) 0.3860(3) -0.1941(8)
H2G H 0.1849 0.3824 -0.2499
C3G C 0.1065(3) 0.3354(2) -0.1475(7)
H3G H 0.1127 0.2905 -0.1648
C4G C 0.0535(2) 0.3650(2) -0.0672(5)
C7G C 0.0051(3) 0.22339(18) 0.1295(4)
H4G H 0.0087 0.2453 0.2192
C8G C 0.0049(4) 0.15462(18) 0.1244(4)
H5G H 0.0084 0.1316 0.2126
N1G N 0.0626(2) 0.43274(19) -0.0654(5)
N1_2 N -0.56726(19) 0.0626(2) -0.0654(5)
N1A_2 N 0.56726(19) -0.0626(2) -0.0654(5)
N1D_2 N 0.56726(19) 0.0626(2) 0.0654(5)
N1E_2 N -0.56726(19) -0.0626(2) 0.0654(5)
Cu1B Cu 0.0000 -0.5000 0.0000
Cu1B_2 Cu 0.0000 0.5000 0.0000
C9 C 0.2218(9) 0.2218(9) 1.029(3)
H6 H 0.2681 0.2131 1.0095
Cl2 Cl 0.17185(18) 0.17185(18) 0.9163(8)
Cl3 Cl 0.2050(3) 0.2050(3) 1.2024(7)
H6G H 0.2131 0.2681 1.0095
C10 C 0.3882(5) 0.3882(5) 0.035(3)
H8 H 0.4020 0.4020 0.1325
H9 H 0.4136 0.4136 -0.0360
Cl4 Cl 0.30459(16) 0.40684(13) 0.0128(3)
Cl4G Cl 0.40684(13) 0.30459(16) 0.0128(3)
H7? H 0.2681 0.2131 1.0095
loop_
_geom_bond_atom_site_label_1
_geom_bond_atom_site_label_2
_geom_bond_site_symmetry_1
_geom_bond_site_symmetry_2
C1 H1 1_555 1_555
C2 C1 1_555 1_555
H2 C2 1_555 1_555
C3 C2 1_555 1_555
H3 C3 1_555 1_555
C4 C3 1_555 1_555
C5 C4 1_555 1_555
C6 C5 1_555 1_555
C7 C6 1_555 1_555
H4 C7 1_555 1_555
C8 C7 1_555 1_555
H5 C8 1_555 1_555
N1 C1 1_555 1_555
N2 C8 1_555 1_555
Cl1 Cd1 1_555 1_555
Cu1 N1 1_555 1_555
Cd1 N2 1_555 1_555
C9 H6 1_555 1_555
Cl2 C9 1_555 1_555
Cl3 C9 1_555 1_555
C10 H8 1_555 1_555
H9 C10 1_555 1_555
Cl4 C10 1_555 1_555
C1E H1E 1_555 1_555
C2E C1E 1_555 1_555
H2E C2E 1_555 1_555
C3E C2E 1_555 1_555
H3E C3E 1_555 1_555
C4E C5 1_555 1_555
C7E C6 1_555 1_555
H4E C7E 1_555 1_555
C8E N2 1_555 1_555
H5E C8E 1_555 1_555
N1E Cu1 1_555 1_555
C1A H1A 1_555 1_555
C2A C1A 1_555 1_555
H2A C2A 1_555 1_555
C3A C2A 1_555 1_555
H3A C3A 1_555 1_555
C4A C3A 1_555 1_555
C5A C4A 1_555 1_555
C6A C5A 1_555 1_555
C7A C6A 1_555 1_555
H4A C7A 1_555 1_555
C8A C7A 1_555 1_555
H5A C8A 1_555 1_555
N1A C1A 1_555 1_555
N2A Cd1 1_555 1_555
Cu1_2 N1A 1_555 1_555
C1D H1D 1_555 1_555
C2D C1D 1_555 1_555
H2D C2D 1_555 1_555
C3D C2D 1_555 1_555
H3D C3D 1_555 1_555
C4D C5A 1_555 1_555
C7D C6A 1_555 1_555
H4D C7D 1_555 1_555
C8D N2A 1_555 1_555
H5D C8D 1_555 1_555
N1D Cu1_2 1_555 1_555
C1B H1B 1_555 1_555
C2B C1B 1_555 1_555
H2B C2B 1_555 1_555
C3B C2B 1_555 1_555
H3B C3B 1_555 1_555
C4B C3B 1_555 1_555
C5B C4B 1_555 1_555
C6B C5B 1_555 1_555
C7B C6B 1_555 1_555
H4B C7B 1_555 1_555
C8B C7B 1_555 1_555
H5B C8B 1_555 1_555
N1B C1B 1_555 1_555
N2B Cd1 1_555 1_555
Cl1B Cd1 1_555 1_555
C1F H1F 1_555 1_555
C2F C1F 1_555 1_555
H2F C2F 1_555 1_555
C3F C2F 1_555 1_555
H3F C3F 1_555 1_555
C4F C5B 1_555 1_555
C7F C6B 1_555 1_555
H4F C7F 1_555 1_555
C8F N2B 1_555 1_555
H5F C8F 1_555 1_555
N1F C1F 1_555 1_555
C1C H1C 1_555 1_555
C2C C1C 1_555 1_555
H2C C2C 1_555 1_555
C3C C2C 1_555 1_555
H3C C3C 1_555 1_555
C4C C3C 1_555 1_555
C5C C4C 1_555 1_555
C6C C5C 1_555 1_555
C7C C6C 1_555 1_555
H4C C7C 1_555 1_555
C8C C7C 1_555 1_555
H5C C8C 1_555 1_555
N1C C1C 1_555 1_555
N2C Cd1 1_555 1_555
C1G H1G 1_555 1_555
C2G C1G 1_555 1_555
H2G C2G 1_555 1_555
C3G C2G 1_555 1_555
H3G C3G 1_555 1_555
C4G C5C 1_555 1_555
C7G C6C 1_555 1_555
H4G C7G 1_555 1_555
C8G N2C 1_555 1_555
H5G C8G 1_555 1_555
N1G C1G 1_555 1_555
N1_2 Cu1_2 1_555 1_555
N1A_2 Cu1 1_555 1_555
N1D_2 Cu1 1_555 1_555
N1E_2 Cu1_2 1_555 1_555
Cu1B N1B 1_555 1_555
Cu1B_2 N1C 1_555 1_555
H6G C9 1_555 1_555
Cl4G C10 1_555 1_555
C4 N1 1_555 1_555
C1E N1E 1_555 1_555
C3E C4E 1_555 1_555
C4E N1E 1_555 1_555
C7E C8E 1_555 1_555
C4A N1A 1_555 1_555
C8A N2A 1_555 1_555
C1D N1D 1_555 1_555
C3D C4D 1_555 1_555
C4D N1D 1_555 1_555
C7D C8D 1_555 1_555
C4B N1B 1_555 1_555
C8B N2B 1_555 1_555
C3F C4F 1_555 1_555
C4F N1F 1_555 1_555
C7F C8F 1_555 1_555
N1F Cu1B 1_555 1_555
C4C N1C 1_555 1_555
C8C N2C 1_555 1_555
C3G C4G 1_555 1_555
C4G N1G 1_555 1_555
C7G C8G 1_555 1_555
N1G Cu1B_2 1_555 1_555

#END
