
#######################################################################
#
#                 Cambridge Crystallographic Data Centre
#                                CCDC 
#
#######################################################################
#
# If this CIF has been generated from an entry in the Cambridge 
# Structural Database, then it will include bibliographic, chemical, 
# crystal, experimental, refinement or atomic coordinate data resulting 
# from the CCDC's data processing and validation procedures.
#
#######################################################################

data_XIWXAE
_symmetry_cell_setting           monoclinic
_symmetry_space_group_name_H-M   'C 2/m'
_symmetry_Int_Tables_number      12
_space_group_name_Hall           '-C 2y'
loop_
_symmetry_equiv_pos_site_id
_symmetry_equiv_pos_as_xyz
1 x,y,z
2 -x,y,-z
3 1/2+x,1/2+y,z
4 1/2-x,1/2+y,-z
5 -x,-y,-z
6 x,-y,z
7 1/2-x,1/2-y,-z
8 1/2+x,1/2-y,z
_cell_length_a                   13.4833(8)
_cell_length_b                   31.8550(18)
_cell_length_c                   19.4871(9)
_cell_angle_alpha                90
_cell_angle_beta                 95.092(2)
_cell_angle_gamma                90
_cell_volume                     8336.88
loop_
_atom_site_label
_atom_site_type_symbol
_atom_site_fract_x
_atom_site_fract_y
_atom_site_fract_z
C37 C 0.9005(9) 0.1108(4) 0.8288(7)
H27 H 0.8348 0.1018 0.8282
C38 C 1.0622(12) 0.1116(6) 0.8953(9)
H28 H 1.0803 0.1309 0.8608
H29 H 1.1028 0.0869 0.8944
H30 H 1.0725 0.1245 0.9399
C39 C 0.9058(13) 0.0654(8) 0.9252(12)
H31 H 0.8758 0.0786 0.9625
H32 H 0.9565 0.0462 0.9433
H33 H 0.8559 0.0504 0.8969
N9 N 0.9534(10) 0.0996(4) 0.8810(8)
O1 O 0.9158(6) 0.1298(4) 0.7815(5)
C1 C 0.4220(4) 0.25700(16) 0.8475(2)
H1 H 0.4607 0.2402 0.8214
C2 C 0.4559(4) 0.27422(19) 0.9120(3)
H2 H 0.5186 0.2713 0.9355
C3 C 0.3752(4) 0.29643(16) 0.9326(3)
H3 H 0.3729 0.3111 0.9737
C4 C 0.2970(4) 0.29270(15) 0.8794(2)
C5 C 0.2053(4) 0.31396(13) 0.8750(2)
C6 C 0.1367(4) 0.31664(14) 0.8170(2)
C7 C 0.0440(4) 0.33907(15) 0.8105(3)
H4 H 0.0180 0.3552 0.8444
C8 C 0.0012(3) 0.33227(18) 0.7455(2)
H5 H -0.0596 0.3428 0.7265
C9 C 0.0672(4) 0.30608(15) 0.7124(3)
H6 H 0.0558 0.2967 0.6672
C10 C 0.1813(4) 0.33758(14) 0.9382(2)
C11 C 0.1806(4) 0.31633(15) 0.9999(3)
H7 H 0.1912 0.2875 1.0010
C12 C 0.1644(4) 0.33738(15) 1.0602(3)
H8 H 0.1619 0.3226 1.1012
C13 C 0.1522(4) 0.38000(14) 1.0589(2)
C14 C 0.1511(4) 0.40172(15) 0.9974(2)
H9 H 0.1407 0.4306 0.9964
C15 C 0.1656(4) 0.38040(15) 0.9379(2)
H10 H 0.1648 0.3951 0.8966
C16 C 0.1905(4) 0.39345(16) 1.1846(3)
H11 H 0.2370 0.3723 1.1946
C17 C 0.1582(4) 0.42209(15) 1.2291(3)
H12 H 0.1800 0.4240 1.2756
C18 C 0.0805(4) 0.43499(14) 1.1312(2)
H13 H 0.0382 0.4470 1.0963
C19 C 0.4086(4) 0.28886(18) 0.6533(3)
H14 H 0.4188 0.3128 0.6804
C20 C 0.4635(4) 0.27973(19) 0.5969(3)
H15 H 0.5146 0.2954 0.5806
C21 C 0.4246(4) 0.24253(18) 0.5717(3)
H16 H 0.4443 0.2280 0.5337
C22 C 0.3492(3) 0.23016(14) 0.6136(2)
C23 C 0.2955(3) 0.19259(14) 0.6086(2)
C24 C 0.2263(4) 0.17833(14) 0.6525(2)
C25 C 0.1682(4) 0.14171(16) 0.6456(3)
H17 H 0.1706 0.1214 0.6115
C26 C 0.1070(4) 0.14129(17) 0.6986(3)
H18 H 0.0599 0.1211 0.7071
C27 C 0.1307(4) 0.17763(16) 0.7367(3)
H19 H 0.0993 0.1854 0.7754
C28 C 0.3108(4) 0.16608(15) 0.5475(2)
C29 C 0.2837(4) 0.18188(16) 0.4814(3)
H20 H 0.2549 0.2084 0.4767
C30 C 0.2987(4) 0.15916(16) 0.4234(3)
H21 H 0.2826 0.1707 0.3800
C31 C 0.3380(4) 0.11898(15) 0.4297(2)
C32 C 0.3629(4) 0.10221(16) 0.4946(3)
H22 H 0.3889 0.0752 0.4994
C33 C 0.3485(4) 0.12625(17) 0.5519(3)
H23 H 0.3652 0.1148 0.5953
C34 C 0.2900(5) 0.09831(19) 0.3082(3)
H24 H 0.2348 0.1156 0.2988
C35 C 0.4185(4) 0.06656(14) 0.3590(2)
H25 H 0.4681 0.0584 0.3926
C36 C 0.3277(5) 0.07121(18) 0.2647(3)
H26 H 0.3022 0.0667 0.2194
N1 N 0.3296(3) 0.26737(12) 0.8284(2)
N2 N 0.1475(3) 0.29655(12) 0.7540(2)
N3 N 0.1409(3) 0.40214(11) 1.12214(19)
N4 N 0.0886(3) 0.44783(11) 1.19533(19)
N5 N 0.3418(3) 0.26017(12) 0.6636(2)
N6 N 0.2022(3) 0.19966(11) 0.71199(19)
N7 N 0.3482(3) 0.09558(12) 0.36891(19)
N8 N 0.4084(3) 0.05134(12) 0.2962(2)
Cl1 Cl 0.12971(19) 0.5000 1.35672(12)
Cl2 Cl -0.13080(16) 0.5000 1.13355(10)
Zn1 Zn 0.25411(4) 0.255518(17) 0.74009(3)
Cd1 Cd -0.00052(4) 0.5000 1.24598(2)
C1E C 0.4220(4) 0.74300(16) 0.8475(2)
H1E H 0.4607 0.7598 0.8214
C2E C 0.4559(4) 0.72578(19) 0.9120(3)
H2E H 0.5186 0.7287 0.9355
C3E C 0.3752(4) 0.70357(16) 0.9326(3)
H3E H 0.3729 0.6889 0.9737
C4E C 0.2970(4) 0.70730(15) 0.8794(2)
C5E C 0.2053(4) 0.68604(13) 0.8750(2)
C6E C 0.1367(4) 0.68336(14) 0.8170(2)
C7E C 0.0440(4) 0.66093(15) 0.8105(3)
H4E H 0.0180 0.6448 0.8444
C8E C 0.0012(3) 0.66773(18) 0.7455(2)
H5E H -0.0596 0.6572 0.7265
C9E C 0.0672(4) 0.69392(15) 0.7124(3)
H6E H 0.0558 0.7033 0.6672
C10E C 0.1813(4) 0.66242(14) 0.9382(2)
C11E C 0.1806(4) 0.68367(15) 0.9999(3)
H7E H 0.1912 0.7125 1.0010
C12E C 0.1644(4) 0.66262(15) 1.0602(3)
H8E H 0.1619 0.6774 1.1012
C13E C 0.1522(4) 0.62000(14) 1.0589(2)
C14E C 0.1511(4) 0.59828(15) 0.9974(2)
H9E H 0.1407 0.5694 0.9964
C15E C 0.1656(4) 0.61960(15) 0.9379(2)
H10E H 0.1648 0.6049 0.8966
C16E C 0.1905(4) 0.60655(16) 1.1846(3)
H11E H 0.2370 0.6277 1.1946
C17E C 0.1582(4) 0.57791(15) 1.2291(3)
H12E H 0.1800 0.5760 1.2756
C18E C 0.0805(4) 0.56501(14) 1.1312(2)
H13E H 0.0382 0.5530 1.0963
C19E C 0.4086(4) 0.71114(18) 0.6533(3)
H14E H 0.4188 0.6872 0.6804
C20E C 0.4635(4) 0.72027(19) 0.5969(3)
H15E H 0.5146 0.7046 0.5806
C21E C 0.4246(4) 0.75747(18) 0.5717(3)
H16E H 0.4443 0.7720 0.5337
C22E C 0.3492(3) 0.76984(14) 0.6136(2)
C23E C 0.2955(3) 0.80741(14) 0.6086(2)
C24E C 0.2263(4) 0.82167(14) 0.6525(2)
C25E C 0.1682(4) 0.85829(16) 0.6456(3)
H17E H 0.1706 0.8786 0.6115
C26E C 0.1070(4) 0.85871(17) 0.6986(3)
H18E H 0.0599 0.8789 0.7071
C27E C 0.1307(4) 0.82237(16) 0.7367(3)
H19E H 0.0993 0.8146 0.7754
C28E C 0.3108(4) 0.83392(15) 0.5475(2)
C29E C 0.2837(4) 0.81812(16) 0.4814(3)
H20E H 0.2549 0.7916 0.4767
C30E C 0.2987(4) 0.84084(16) 0.4234(3)
H21E H 0.2826 0.8293 0.3800
C31E C 0.3380(4) 0.88102(15) 0.4297(2)
C32E C 0.3629(4) 0.89779(16) 0.4946(3)
H22E H 0.3889 0.9248 0.4994
C33E C 0.3485(4) 0.87375(17) 0.5519(3)
H23E H 0.3652 0.8852 0.5953
C34E C 0.2900(5) 0.90169(19) 0.3082(3)
H24E H 0.2348 0.8844 0.2988
C35E C 0.4185(4) 0.93344(14) 0.3590(2)
H25E H 0.4681 0.9416 0.3926
C36E C 0.3277(5) 0.92879(18) 0.2647(3)
H26E H 0.3022 0.9333 0.2194
N1E N 0.3296(3) 0.73263(12) 0.8284(2)
N2E N 0.1475(3) 0.70345(12) 0.7540(2)
N3E N 0.1409(3) 0.59786(11) 1.12214(19)
N4E N 0.0886(3) 0.55217(11) 1.19533(19)
N5E N 0.3418(3) 0.73983(12) 0.6636(2)
N6E N 0.2022(3) 0.80034(11) 0.71199(19)
N7E N 0.3482(3) 0.90442(12) 0.36891(19)
N8E N 0.4084(3) 0.94866(12) 0.2962(2)
Zn1E Zn 0.25411(4) 0.744482(17) 0.74009(3)
N8B N -0.0916(3) 0.55134(12) 1.2962(2)
N8G N -0.0916(3) 0.44866(12) 1.2962(2)
Cd1B Cd 0.49948(4) 0.0000 0.24598(2)
Cd1B_2 Cd 0.49948(4) 1.0000 0.24598(2)
loop_
_geom_bond_atom_site_label_1
_geom_bond_atom_site_label_2
_geom_bond_site_symmetry_1
_geom_bond_site_symmetry_2
C1 H1 1_555 1_555
C2 C1 1_555 1_555
H2 C2 1_555 1_555
C3 C2 1_555 1_555
H3 C3 1_555 1_555
C4 C3 1_555 1_555
C5 C4 1_555 1_555
C6 C5 1_555 1_555
C7 C6 1_555 1_555
H4 C7 1_555 1_555
C8 C7 1_555 1_555
H5 C8 1_555 1_555
C9 C8 1_555 1_555
H6 C9 1_555 1_555
C10 C5 1_555 1_555
C11 C10 1_555 1_555
H7 C11 1_555 1_555
C12 C11 1_555 1_555
H8 C12 1_555 1_555
C13 C12 1_555 1_555
C14 C13 1_555 1_555
H9 C14 1_555 1_555
C15 C10 1_555 1_555
H10 C15 1_555 1_555
C16 H11 1_555 1_555
C17 C16 1_555 1_555
H12 C17 1_555 1_555
C18 H13 1_555 1_555
C19 H14 1_555 1_555
C20 C19 1_555 1_555
H15 C20 1_555 1_555
C21 C20 1_555 1_555
H16 C21 1_555 1_555
C22 C21 1_555 1_555
C23 C22 1_555 1_555
C24 C23 1_555 1_555
C25 C24 1_555 1_555
H17 C25 1_555 1_555
C26 C25 1_555 1_555
H18 C26 1_555 1_555
C27 C26 1_555 1_555
H19 C27 1_555 1_555
C28 C23 1_555 1_555
C29 C28 1_555 1_555
H20 C29 1_555 1_555
C30 C29 1_555 1_555
H21 C30 1_555 1_555
C31 C30 1_555 1_555
C32 C31 1_555 1_555
H22 C32 1_555 1_555
C33 C28 1_555 1_555
H23 C33 1_555 1_555
C34 H24 1_555 1_555
C35 H25 1_555 1_555
C36 C34 1_555 1_555
H26 C36 1_555 1_555
N1 C1 1_555 1_555
N2 C6 1_555 1_555
N3 C13 1_555 1_555
N4 C17 1_555 1_555
N5 C19 1_555 1_555
N6 C24 1_555 1_555
N7 C31 1_555 1_555
N8 C35 1_555 1_555
Cl1 Cd1 1_555 1_555
Cl2 Cd1 1_555 1_555
Zn1 N1 1_555 1_555
Cd1 N4 1_555 1_555
C37 H27 1_555 1_555
C38 H28 1_555 1_555
H29 C38 1_555 1_555
H30 C38 1_555 1_555
C39 H31 1_555 1_555
H32 C39 1_555 1_555
H33 C39 1_555 1_555
N9 C37 1_555 1_555
O1 C37 1_555 1_555
C1E H1E 1_555 1_555
C2E C1E 1_555 1_555
H2E C2E 1_555 1_555
C3E C2E 1_555 1_555
H3E C3E 1_555 1_555
C4E C3E 1_555 1_555
C5E C4E 1_555 1_555
C6E C5E 1_555 1_555
C7E C6E 1_555 1_555
H4E C7E 1_555 1_555
C8E C7E 1_555 1_555
H5E C8E 1_555 1_555
C9E C8E 1_555 1_555
H6E C9E 1_555 1_555
C10E C5E 1_555 1_555
C11E C10E 1_555 1_555
H7E C11E 1_555 1_555
C12E C11E 1_555 1_555
H8E C12E 1_555 1_555
C13E C12E 1_555 1_555
C14E C13E 1_555 1_555
H9E C14E 1_555 1_555
C15E C10E 1_555 1_555
H10E C15E 1_555 1_555
C16E H11E 1_555 1_555
C17E C16E 1_555 1_555
H12E C17E 1_555 1_555
C18E H13E 1_555 1_555
C19E H14E 1_555 1_555
C20E C19E 1_555 1_555
H15E C20E 1_555 1_555
C21E C20E 1_555 1_555
H16E C21E 1_555 1_555
C22E C21E 1_555 1_555
C23E C22E 1_555 1_555
C24E C23E 1_555 1_555
C25E C24E 1_555 1_555
H17E C25E 1_555 1_555
C26E C25E 1_555 1_555
H18E C26E 1_555 1_555
C27E C26E 1_555 1_555
H19E C27E 1_555 1_555
C28E C23E 1_555 1_555
C29E C28E 1_555 1_555
H20E C29E 1_555 1_555
C30E C29E 1_555 1_555
H21E C30E 1_555 1_555
C31E C30E 1_555 1_555
C32E C31E 1_555 1_555
H22E C32E 1_555 1_555
C33E C28E 1_555 1_555
H23E C33E 1_555 1_555
C34E H24E 1_555 1_555
C35E H25E 1_555 1_555
C36E C34E 1_555 1_555
H26E C36E 1_555 1_555
N1E C1E 1_555 1_555
N2E C6E 1_555 1_555
N3E C13E 1_555 1_555
N4E Cd1 1_555 1_555
N5E C19E 1_555 1_555
N6E C24E 1_555 1_555
N7E C31E 1_555 1_555
N8E C35E 1_555 1_555
Zn1E N1E 1_555 1_555
N8B Cd1 1_555 1_555
N8G Cd1 1_555 1_555
Cd1B N8 1_555 1_555
Cd1B_2 N8E 1_555 1_555
C4 N1 1_555 1_555
C9 N2 1_555 1_555
C14 C15 1_555 1_555
C16 N3 1_555 1_555
C18 N3 1_555 1_555
C18 N4 1_555 1_555
C22 N5 1_555 1_555
C27 N6 1_555 1_555
C32 C33 1_555 1_555
C34 N7 1_555 1_555
C35 N7 1_555 1_555
C36 N8 1_555 1_555
N2 Zn1 1_555 1_555
N5 Zn1 1_555 1_555
N6 Zn1 1_555 1_555
C38 N9 1_555 1_555
C39 N9 1_555 1_555
C4E N1E 1_555 1_555
C9E N2E 1_555 1_555
C14E C15E 1_555 1_555
C16E N3E 1_555 1_555
C17E N4E 1_555 1_555
C18E N3E 1_555 1_555
C18E N4E 1_555 1_555
C22E N5E 1_555 1_555
C27E N6E 1_555 1_555
C32E C33E 1_555 1_555
C34E N7E 1_555 1_555
C35E N7E 1_555 1_555
C36E N8E 1_555 1_555
N2E Zn1E 1_555 1_555
N5E Zn1E 1_555 1_555
N6E Zn1E 1_555 1_555

#END
