
#######################################################################
#
#                 Cambridge Crystallographic Data Centre
#                                CCDC 
#
#######################################################################
#
# If this CIF has been generated from an entry in the Cambridge 
# Structural Database, then it will include bibliographic, chemical, 
# crystal, experimental, refinement or atomic coordinate data resulting 
# from the CCDC's data processing and validation procedures.
#
#######################################################################

data_XIXYAF
_symmetry_cell_setting           monoclinic
_symmetry_space_group_name_H-M   'P 21/a'
_symmetry_Int_Tables_number      14
_space_group_name_Hall           '-P 2yab'
loop_
_symmetry_equiv_pos_site_id
_symmetry_equiv_pos_as_xyz
1 x,y,z
2 1/2-x,1/2+y,-z
3 -x,-y,-z
4 1/2+x,1/2-y,z
_cell_length_a                   9.1401(8)
_cell_length_b                   10.2173(13)
_cell_length_c                   14.3550(13)
_cell_angle_alpha                90
_cell_angle_beta                 101.024(10)
_cell_angle_gamma                90
_cell_volume                     1315.84
loop_
_atom_site_label
_atom_site_type_symbol
_atom_site_fract_x
_atom_site_fract_y
_atom_site_fract_z
La1 La 0.23535(2) 0.097343(19) 0.847826(13)
N1 N 0.0562(4) 0.1140(3) 0.6745(2)
C1 C -0.0521(4) 0.0259(4) 0.6446(3)
C2 C -0.1550(5) 0.0430(4) 0.5622(3)
H1 H -0.2305 -0.0181 0.5439
C3 C -0.1449(5) 0.1527(5) 0.5065(3)
H2 H -0.2136 0.1661 0.4506
C4 C -0.0329(5) 0.2404(4) 0.5351(3)
H3 H -0.0215 0.3130 0.4980
C5 C 0.0631(5) 0.2190(4) 0.6205(3)
H4 H 0.1364 0.2811 0.6414
C6 C -0.0457(5) -0.0996(4) 0.6992(3)
H5 H -0.1440 -0.1392 0.6871
H6 H 0.0216 -0.1592 0.6759
N2 N 0.0040(3) -0.0845(3) 0.8029(2)
C7 C 0.0548(4) -0.2119(4) 0.8459(3)
H7 H 0.1023 -0.2607 0.8019
H8 H -0.0312 -0.2616 0.8560
C8 C 0.1630(4) -0.1991(4) 0.9393(3)
O1 O 0.2237(3) -0.0898(3) 0.9594(2)
O2 O 0.1897(3) -0.3016(3) 0.98787(18)
C9 C -0.1210(5) -0.0350(4) 0.8449(3)
H9 H -0.1079 -0.0645 0.9102
H10 H -0.2134 -0.0719 0.8105
C10 C -0.1331(4) 0.1125(3) 0.8429(3)
O3 O -0.0158(3) 0.1774(2) 0.8671(2)
O4 O -0.2602(3) 0.1609(3) 0.8198(2)
O5 O 0.3023(3) -0.0887(3) 0.7355(2)
O6 O 0.3864(3) 0.1038(3) 0.7131(2)
N3 N 0.3879(4) -0.0175(3) 0.6967(2)
O7 O 0.4676(5) -0.0648(4) 0.6471(3)
O8 O 0.5076(3) 0.0268(3) 0.8990(2)
H11 H 0.5568 -0.0415 0.9307
H12 H 0.5693 0.0878 0.9296
La1A La 0.26465(2) -0.402657(19) 1.152174(13)
La1C La -0.26465(2) 0.402657(19) 0.847826(13)
O2A O 0.3103(3) 0.1984(3) 1.01213(18)
O4C O 0.2398(3) 0.3391(3) 0.8198(2)
loop_
_geom_bond_atom_site_label_1
_geom_bond_atom_site_label_2
_geom_bond_site_symmetry_1
_geom_bond_site_symmetry_2
La1 N1 1_555 1_555
N1 C1 1_555 1_555
C1 C2 1_555 1_555
C2 H1 1_555 1_555
C3 C2 1_555 1_555
H2 C3 1_555 1_555
C4 C3 1_555 1_555
H3 C4 1_555 1_555
C5 N1 1_555 1_555
H4 C5 1_555 1_555
C6 C1 1_555 1_555
H5 C6 1_555 1_555
H6 C6 1_555 1_555
N2 La1 1_555 1_555
C7 N2 1_555 1_555
H7 C7 1_555 1_555
H8 C7 1_555 1_555
C8 C7 1_555 1_555
O1 La1 1_555 1_555
O2 C8 1_555 1_555
C9 N2 1_555 1_555
H9 C9 1_555 1_555
H10 C9 1_555 1_555
C10 C9 1_555 1_555
O3 La1 1_555 1_555
O4 C10 1_555 1_555
O5 La1 1_555 1_555
O6 La1 1_555 1_555
N3 O5 1_555 1_555
O7 N3 1_555 1_555
O8 La1 1_555 1_555
H11 O8 1_555 1_555
H12 O8 1_555 1_555
La1A O2 1_555 1_555
La1C O4 1_555 1_555
O2A La1 1_555 1_555
O4C La1 1_555 1_555
C4 C5 1_555 1_555
C6 N2 1_555 1_555
C8 O1 1_555 1_555
C10 O3 1_555 1_555
O6 N3 1_555 1_555

#END
