
#######################################################################
#
#                 Cambridge Crystallographic Data Centre
#                                CCDC 
#
#######################################################################
#
# If this CIF has been generated from an entry in the Cambridge 
# Structural Database, then it will include bibliographic, chemical, 
# crystal, experimental, refinement or atomic coordinate data resulting 
# from the CCDC's data processing and validation procedures.
#
#######################################################################

data_XIYFOA
_symmetry_cell_setting           orthorhombic
_symmetry_space_group_name_H-M   'P n m a'
_symmetry_Int_Tables_number      62
_space_group_name_Hall           '-P 2ac 2n'
loop_
_symmetry_equiv_pos_site_id
_symmetry_equiv_pos_as_xyz
1 x,y,z
2 1/2+x,y,1/2-z
3 x,1/2-y,z
4 1/2-x,1/2+y,1/2+z
5 -x,-y,-z
6 1/2-x,-y,1/2+z
7 -x,1/2+y,-z
8 1/2+x,1/2-y,1/2-z
_cell_length_a                   7.349(1)
_cell_length_b                   18.165(1)
_cell_length_c                   6.721(1)
_cell_angle_alpha                90
_cell_angle_beta                 90
_cell_angle_gamma                90
_cell_volume                     897.217
loop_
_atom_site_label
_atom_site_type_symbol
_atom_site_fract_x
_atom_site_fract_y
_atom_site_fract_z
Mn1 Mn 0.5000 0.5000 0.0000
S1 S 0.71127(8) 0.7500 0.16003(8)
O1 O 0.6738(2) 0.58879(6) 0.1061(2)
O2 O 0.4868(2) 0.55882(8) -0.2846(2)
H1 H 0.5746(35) 0.5659(14) -0.3627(37)
H2 H 0.4154(51) 0.5495(20) -0.3583(50)
O3 O 0.75177(15) 0.55620(6) 0.4149(2)
C1 C 0.7226(2) 0.60401(8) 0.2801(2)
C2 C 0.7418(2) 0.68271(8) 0.3354(2)
C3 C 0.7739(3) 0.71134(10) 0.5214(2)
H3 H 0.8014(30) 0.6811(12) 0.6398(34)
C3B C 0.7739(3) 0.78866(10) 0.5214(2)
C2B C 0.7418(2) 0.81729(8) 0.3354(2)
C1B C 0.7226(2) 0.89599(8) 0.2801(2)
O1B O 0.6738(2) 0.91121(6) 0.1061(2)
O3B O 0.75177(15) 0.94380(6) 0.4149(2)
H3B H 0.8014(30) 0.8189(12) 0.6398(34)
O2D O 0.5132(2) 0.44118(8) 0.2846(2)
H1D H 0.4254(35) 0.4341(14) 0.3627(37)
H2D H 0.5846(51) 0.4505(20) 0.3583(50)
O1D O 0.3262(2) 0.41121(6) -0.1061(2)
O3A O 0.25177(15) 0.55620(6) 0.0851(2)
O3E O 0.74823(15) 0.44380(6) -0.0851(2)
Mn1A Mn 1.0000 0.5000 0.5000
Mn1B Mn 0.5000 1.0000 0.0000
Mn1C Mn 1.0000 1.0000 0.5000
loop_
_geom_bond_atom_site_label_1
_geom_bond_atom_site_label_2
_geom_bond_site_symmetry_1
_geom_bond_site_symmetry_2
Mn1 O1 1_555 1_555
S1 C2 1_555 1_555
O1 C1 1_555 1_555
O2 Mn1 1_555 1_555
H1 O2 1_555 1_555
H2 O2 1_555 1_555
O3 C1 1_555 1_555
C1 C2 1_555 1_555
C2 C3 1_555 1_555
C3 H3 1_555 1_555
C3B C3 1_555 1_555
C2B S1 1_555 1_555
C1B C2B 1_555 1_555
O1B C1B 1_555 1_555
O3B C1B 1_555 1_555
H3B C3B 1_555 1_555
O2D Mn1 1_555 1_555
H1D O2D 1_555 1_555
H2D O2D 1_555 1_555
O1D Mn1 1_555 1_555
O3A Mn1 1_555 1_555
O3E Mn1 1_555 1_555
Mn1A O3 1_555 1_555
Mn1B O1B 1_555 1_555
Mn1C O3B 1_555 1_555
C3B C2B 1_555 1_555

#END
