
#######################################################################
#
#                 Cambridge Crystallographic Data Centre
#                                CCDC 
#
#######################################################################
#
# If this CIF has been generated from an entry in the Cambridge 
# Structural Database, then it will include bibliographic, chemical, 
# crystal, experimental, refinement or atomic coordinate data resulting 
# from the CCDC's data processing and validation procedures.
#
#######################################################################

data_XIYFER
_symmetry_cell_setting           monoclinic
_symmetry_space_group_name_H-M   'P 21/n'
_symmetry_Int_Tables_number      14
_space_group_name_Hall           '-P 2yn'
loop_
_symmetry_equiv_pos_site_id
_symmetry_equiv_pos_as_xyz
1 x,y,z
2 1/2-x,1/2+y,1/2-z
3 -x,-y,-z
4 1/2+x,1/2-y,1/2+z
_cell_length_a                   9.958(2)
_cell_length_b                   12.333(3)
_cell_length_c                   19.546(4)
_cell_angle_alpha                90
_cell_angle_beta                 101.30(3)
_cell_angle_gamma                90
_cell_volume                     2353.95
loop_
_atom_site_label
_atom_site_type_symbol
_atom_site_fract_x
_atom_site_fract_y
_atom_site_fract_z
Mn1 Mn 0.50406(8) 0.87626(7) 0.02583(4)
Mn2 Mn 0.20431(8) 1.00661(7) -0.01161(4)
N1 N 0.2029(4) 1.1514(4) 0.0568(2)
N2 N 0.5091(5) 0.7150(4) -0.0228(3)
N3 N 0.4818(4) 0.8046(4) 0.1192(2)
O1 O 0.4277(3) 1.0357(3) 0.04745(17)
O2 O 0.3222(3) 0.8624(3) -0.02315(18)
O3 O 0.6821(3) 0.8929(3) 0.07519(18)
O4 O 0.1169(4) 0.9241(3) 0.06555(19)
O5 O -0.0550(4) 1.0064(3) 0.10222(19)
C1 C 0.1018(6) 1.2242(5) 0.0510(3)
H1 H 0.0274 1.2190 0.0125
C2 C 0.1008(6) 1.3067(5) 0.0987(3)
H2 H 0.0279 1.3577 0.0927
C3 C 0.2068(6) 1.3134(5) 0.1546(3)
H3 H 0.2070 1.3685 0.1886
C4 C 0.3128(6) 1.2409(5) 0.1619(3)
H4 H 0.3875 1.2452 0.2004
C5 C 0.3082(6) 1.1610(5) 0.1114(3)
C6 C 0.4240(6) 1.0796(5) 0.1146(3)
H5 H 0.5124 1.1157 0.1334
H6 H 0.4119 1.0200 0.1468
C7 C 0.6127(6) 0.6425(5) -0.0167(4)
H7 H 0.6956 0.6561 0.0155
C8 C 0.6004(9) 0.5482(6) -0.0568(5)
H8 H 0.6739 0.4979 -0.0522
C9 C 0.4806(10) 0.5295(6) -0.1028(5)
H9 H 0.4710 0.4666 -0.1315
C10 C 0.3744(8) 0.6012(5) -0.1078(4)
H10 H 0.2899 0.5879 -0.1388
C11 C 0.3922(6) 0.6927(5) -0.0671(3)
C12 C 0.2802(6) 0.7747(5) -0.0681(4)
H11 H 0.2502 0.8022 -0.1162
H12 H 0.2008 0.7388 -0.0541
C13 C 0.3725(6) 0.7505(5) 0.1328(3)
H13 H 0.2900 0.7509 0.0988
C14 C 0.3755(6) 0.6946(5) 0.1941(3)
H14 H 0.2966 0.6580 0.2027
C15 C 0.4965(7) 0.6934(5) 0.2426(3)
H15 H 0.5024 0.6550 0.2852
C16 C 0.6092(6) 0.7486(5) 0.2288(3)
H16 H 0.6932 0.7482 0.2617
C17 C 0.5984(5) 0.8041(4) 0.1666(3)
C18 C 0.7135(6) 0.8680(5) 0.1471(3)
H17 H 0.7274 0.9358 0.1747
H18 H 0.7992 0.8253 0.1577
C19 C 0.0574(5) 0.9575(4) 0.1128(3)
C20 C 0.1251(6) 0.9359(6) 0.1869(3)
H19 H 0.0689 0.9660 0.2182
H20 H 0.2157 0.9700 0.1966
H21 H 0.1349 0.8575 0.1944
Mn1B Mn 0.49594(8) 1.12374(7) -0.02583(4)
Mn2B Mn 0.79569(8) 0.99339(7) 0.01161(4)
Mn2B_2 Mn -0.20431(8) 0.99339(7) 0.01161(4)
O1B O 0.5723(3) 0.9643(3) -0.04745(17)
O3B O 0.3179(3) 1.1071(3) -0.07519(18)
O5B O 0.0550(4) 0.9936(3) -0.10222(19)
Cl1 Cl 0.9568(2) 0.5863(2) 0.17321(16)
O6 O 0.8463(13) 0.5953(14) 0.2101(8)
O7 O 1.0033(13) 0.6979(9) 0.1582(8)
O8 O 1.0675(18) 0.5286(15) 0.2101(9)
O9 O 0.9102(13) 0.5392(11) 0.1045(7)
O14 O 1.1138(15) 0.5884(14) 0.0298(11)
O10? O 0.898(3) 0.486(2) 0.2130(14)
O11? O 0.934(2) 0.6717(17) 0.2176(14)
O12? O 1.089(3) 0.566(3) 0.1875(19)
O13? O 0.874(2) 0.5861(18) 0.1118(13)
loop_
_geom_bond_atom_site_label_1
_geom_bond_atom_site_label_2
_geom_bond_site_symmetry_1
_geom_bond_site_symmetry_2
Mn1 N2 1_555 1_555
Mn2 N1 1_555 1_555
N1 C1 1_555 1_555
N2 C7 1_555 1_555
N3 Mn1 1_555 1_555
O1 Mn1 1_555 1_555
O2 Mn1 1_555 1_555
O3 Mn1 1_555 1_555
O4 Mn2 1_555 1_555
O5 C19 1_555 1_555
C1 H1 1_555 1_555
C2 C1 1_555 1_555
H2 C2 1_555 1_555
C3 C2 1_555 1_555
H3 C3 1_555 1_555
C4 C3 1_555 1_555
H4 C4 1_555 1_555
C5 N1 1_555 1_555
C6 O1 1_555 1_555
H5 C6 1_555 1_555
H6 C6 1_555 1_555
C7 H7 1_555 1_555
C8 C7 1_555 1_555
H8 C8 1_555 1_555
C9 C8 1_555 1_555
H9 C9 1_555 1_555
C10 C9 1_555 1_555
H10 C10 1_555 1_555
C11 N2 1_555 1_555
C12 O2 1_555 1_555
H11 C12 1_555 1_555
H12 C12 1_555 1_555
C13 N3 1_555 1_555
H13 C13 1_555 1_555
C14 C13 1_555 1_555
H14 C14 1_555 1_555
C15 C14 1_555 1_555
H15 C15 1_555 1_555
C16 C15 1_555 1_555
H16 C16 1_555 1_555
C17 N3 1_555 1_555
C18 O3 1_555 1_555
H17 C18 1_555 1_555
H18 C18 1_555 1_555
C19 O4 1_555 1_555
C20 C19 1_555 1_555
H19 C20 1_555 1_555
H20 C20 1_555 1_555
H21 C20 1_555 1_555
Cl1 O6 1_555 1_555
O7 Cl1 1_555 1_555
O8 Cl1 1_555 1_555
O9 Cl1 1_555 1_555
Mn1B O1 1_555 1_555
Mn2B O3 1_555 1_555
Mn2B_2 O5 1_555 1_555
O1B Mn1 1_555 1_555
O3B Mn2 1_555 1_555
O5B Mn2 1_555 1_555
Mn2 O1 1_555 1_555
Mn2 O2 1_555 1_555
C4 C5 1_555 1_555
C5 C6 1_555 1_555
C10 C11 1_555 1_555
C11 C12 1_555 1_555
C16 C17 1_555 1_555
C17 C18 1_555 1_555
Mn1B O1B 1_555 1_555
Mn1B O3B 1_555 1_555
Mn2B O1B 1_555 1_555

#END
