
#######################################################################
#
#                 Cambridge Crystallographic Data Centre
#                                CCDC 
#
#######################################################################
#
# If this CIF has been generated from an entry in the Cambridge 
# Structural Database, then it will include bibliographic, chemical, 
# crystal, experimental, refinement or atomic coordinate data resulting 
# from the CCDC's data processing and validation procedures.
#
#######################################################################

data_XIYLOH
_symmetry_cell_setting           monoclinic
_symmetry_space_group_name_H-M   'P 21/n'
_symmetry_Int_Tables_number      14
_space_group_name_Hall           '-P 2yn'
loop_
_symmetry_equiv_pos_site_id
_symmetry_equiv_pos_as_xyz
1 x,y,z
2 1/2-x,1/2+y,1/2-z
3 -x,-y,-z
4 1/2+x,1/2-y,1/2+z
_cell_length_a                   9.4792(11)
_cell_length_b                   17.810(2)
_cell_length_c                   17.326(2)
_cell_angle_alpha                90
_cell_angle_beta                 97.412(2)
_cell_angle_gamma                90
_cell_volume                     2900.61
loop_
_atom_site_label
_atom_site_type_symbol
_atom_site_fract_x
_atom_site_fract_y
_atom_site_fract_z
Cu1 Cu 0.74531(8) 0.80687(4) 0.14462(4)
Cu2 Cu 0.78422(7) 0.87957(4) -0.16694(4)
C1 C 0.7866(5) 0.9707(3) 0.1746(3)
C2 C 0.7040(5) 0.9140(3) 0.2683(3)
C3 C 0.7232(5) 0.9888(3) 0.2904(3)
C4 C 0.6930(6) 1.0155(4) 0.3612(3)
H1 H 0.7093 1.0652 0.3764
C5 C 0.6365(7) 0.9631(4) 0.4082(3)
H2 H 0.6131 0.9783 0.4563
C6 C 0.6141(7) 0.8894(4) 0.3856(3)
H3 H 0.5730 0.8567 0.4181
C7 C 0.6507(6) 0.8627(3) 0.3163(3)
H4 H 0.6399 0.8123 0.3026
C8 C 0.8373(6) 0.9869(3) 0.0976(3)
H5 H 0.8916 0.9442 0.0828
H6 H 0.9003 1.0300 0.1033
C9 C 0.7150(5) 1.0027(3) 0.0326(3)
H7 H 0.6547 0.9587 0.0243
H8 H 0.6577 1.0438 0.0479
C10 C 0.7729(5) 1.0226(3) -0.0425(3)
H9 H 0.8318 0.9817 -0.0568
H10 H 0.8325 1.0669 -0.0338
C11 C 0.6556(6) 1.0379(3) -0.1096(3)
H11 H 0.5821 1.0000 -0.1093
H12 H 0.6130 1.0863 -0.1016
C12 C 0.7078(5) 1.0375(3) -0.1868(3)
C13 C 0.8090(5) 1.0002(3) -0.2879(3)
C14 C 0.7697(5) 1.0753(3) -0.3012(3)
C15 C 0.7930(7) 1.1126(3) -0.3687(3)
H13 H 0.7635 1.1619 -0.3781
C16 C 0.8612(8) 1.0735(4) -0.4208(4)
H14 H 0.8805 1.0972 -0.4661
C17 C 0.9024(7) 0.9993(4) -0.4079(3)
H15 H 0.9484 0.9745 -0.4447
C18 C 0.8765(6) 0.9618(3) -0.3416(3)
H16 H 0.9038 0.9119 -0.3334
C19 C 0.6695(6) 1.1750(3) -0.2180(3)
H17 H 0.5894 1.1755 -0.1883
H18 H 0.6417 1.2019 -0.2663
C20 C 0.7944(6) 1.2145(3) -0.1722(3)
C21 C 0.7711(7) 1.2767(4) -0.1289(4)
H19 H 0.6790 1.2932 -0.1258
C22 C 0.8856(9) 1.3143(4) -0.0902(4)
H20 H 0.8707 1.3572 -0.0617
C23 C 1.0253(7) 1.2885(4) -0.0931(4)
H21 H 1.1017 1.3144 -0.0664
C24 C 0.9395(6) 1.1933(3) -0.1734(3)
H22 H 0.9582 1.1526 -0.2042
C25 C 0.7993(5) 1.1051(3) 0.2233(3)
H23 H 0.8834 1.1140 0.1981
H24 H 0.8160 1.1266 0.2751
C26 C 0.6735(5) 1.1438(3) 0.1775(3)
C27 C 0.6887(6) 1.1899(3) 0.1157(3)
H25 H 0.7789 1.2003 0.1027
C28 C 0.5706(6) 1.2209(4) 0.0727(4)
H26 H 0.5800 1.2532 0.0315
C29 C 0.4405(6) 1.2033(3) 0.0918(3)
H27 H 0.3606 1.2231 0.0619
C30 C 0.5386(6) 1.1306(3) 0.1931(3)
H28 H 0.5270 1.0999 0.2352
N1 N 0.7676(4) 0.9779(2) -0.2158(2)
N2 N 0.7044(4) 1.0974(2) -0.2354(2)
N3 N 0.7773(4) 1.0246(2) 0.2295(2)
N4 N 0.7451(4) 0.9039(2) 0.1955(2)
N5 N 0.4217(5) 1.1587(3) 0.1516(3)
N6 N 1.0488(5) 1.2277(2) -0.1335(3)
Cl1 Cl 0.60349(16) 0.71402(8) 0.10540(9)
Cl2 Cl 0.93594(16) 0.80208(9) -0.10598(10)
Cu1B Cu 1.25469(8) 1.19313(4) -0.14462(4)
Cu2B Cu 0.21578(7) 1.12043(4) 0.16694(4)
N5B N 0.5783(5) 0.8413(3) -0.1516(3)
N6B N 0.9512(5) 0.7723(2) 0.1335(3)
loop_
_geom_bond_atom_site_label_1
_geom_bond_atom_site_label_2
_geom_bond_site_symmetry_1
_geom_bond_site_symmetry_2
Cu1 N4 1_555 1_555
Cu2 N1 1_555 1_555
C1 C8 1_555 1_555
C2 C3 1_555 1_555
C3 C4 1_555 1_555
C4 H1 1_555 1_555
C5 C4 1_555 1_555
H2 C5 1_555 1_555
C6 C5 1_555 1_555
H3 C6 1_555 1_555
C7 C2 1_555 1_555
H4 C7 1_555 1_555
C8 H5 1_555 1_555
H6 C8 1_555 1_555
C9 C8 1_555 1_555
H7 C9 1_555 1_555
H8 C9 1_555 1_555
C10 C9 1_555 1_555
H9 C10 1_555 1_555
H10 C10 1_555 1_555
C11 C10 1_555 1_555
H11 C11 1_555 1_555
H12 C11 1_555 1_555
C12 C11 1_555 1_555
C13 C14 1_555 1_555
C14 C15 1_555 1_555
C15 H13 1_555 1_555
C16 C15 1_555 1_555
H14 C16 1_555 1_555
C17 C16 1_555 1_555
H15 C17 1_555 1_555
C18 C13 1_555 1_555
H16 C18 1_555 1_555
C19 H17 1_555 1_555
H18 C19 1_555 1_555
C20 C19 1_555 1_555
C21 C20 1_555 1_555
H19 C21 1_555 1_555
C22 C21 1_555 1_555
H20 C22 1_555 1_555
C23 C22 1_555 1_555
H21 C23 1_555 1_555
C24 C20 1_555 1_555
H22 C24 1_555 1_555
C25 H23 1_555 1_555
H24 C25 1_555 1_555
C26 C25 1_555 1_555
C27 C26 1_555 1_555
H25 C27 1_555 1_555
C28 C27 1_555 1_555
H26 C28 1_555 1_555
C29 C28 1_555 1_555
H27 C29 1_555 1_555
C30 C26 1_555 1_555
H28 C30 1_555 1_555
N1 C12 1_555 1_555
N2 C12 1_555 1_555
N3 C1 1_555 1_555
N4 C1 1_555 1_555
N5 C29 1_555 1_555
N6 C23 1_555 1_555
Cl1 Cu1 1_555 1_555
Cl2 Cu2 1_555 1_555
Cu1B N6 1_555 1_555
Cu2B N5 1_555 1_555
N5B Cu2 1_555 1_555
N6B Cu1 1_555 1_555
C2 N4 1_555 1_555
C3 N3 1_555 1_555
C6 C7 1_555 1_555
C13 N1 1_555 1_555
C14 N2 1_555 1_555
C17 C18 1_555 1_555
C19 N2 1_555 1_555
C24 N6 1_555 1_555
C25 N3 1_555 1_555
C30 N5 1_555 1_555

#END
