
#######################################################################
#
#                 Cambridge Crystallographic Data Centre
#                                CCDC 
#
#######################################################################
#
# If this CIF has been generated from an entry in the Cambridge 
# Structural Database, then it will include bibliographic, chemical, 
# crystal, experimental, refinement or atomic coordinate data resulting 
# from the CCDC's data processing and validation procedures.
#
#######################################################################

data_XIYXIO
_symmetry_cell_setting           triclinic
_symmetry_space_group_name_H-M   'P -1'
_symmetry_Int_Tables_number      2
_space_group_name_Hall           '-P 1'
loop_
_symmetry_equiv_pos_site_id
_symmetry_equiv_pos_as_xyz
1 x,y,z
2 -x,-y,-z
_cell_length_a                   8.9717(3)
_cell_length_b                   15.1215(4)
_cell_length_c                   23.7174(6)
_cell_angle_alpha                73.467(2)
_cell_angle_beta                 88.039(3)
_cell_angle_gamma                81.392(3)
_cell_volume                     3049.74
loop_
_atom_site_label
_atom_site_type_symbol
_atom_site_fract_x
_atom_site_fract_y
_atom_site_fract_z
Ir1 Ir 0.66524(5) 1.00251(3) 0.301912(18)
Ir2 Ir -0.20330(5) 0.45495(3) 0.828306(19)
Yb1 Yb 0.20173(15) 0.54303(7) 0.50891(5)
O1 O 0.3907(11) 0.6296(5) 0.5131(4)
O2 O 0.6358(10) 0.5731(5) 0.5113(3)
O3 O 1.2320(10) 0.6229(6) 0.4148(4)
O4 O 1.3766(9) 0.7048(6) 0.3444(5)
O5 O 0.0697(11) 0.6616(6) 0.5371(4)
O6 O -0.1582(12) 0.7411(6) 0.5440(4)
O7 O -0.7040(11) 0.4775(7) 0.6009(4)
O8 O -0.8195(13) 0.3856(7) 0.6754(5)
N1 N -0.3943(10) 0.4622(6) 0.7744(4)
N2 N -0.1355(11) 0.3229(7) 0.8218(4)
N3 N -0.1360(11) 0.5240(6) 0.7408(4)
N4 N -0.2604(11) 0.5808(6) 0.8464(4)
N5 N 0.6829(10) 1.0887(6) 0.3539(4)
N6 N 0.6301(10) 0.9334(6) 0.2417(4)
N7 N 0.6074(10) 0.8936(6) 0.3749(4)
N8 N 0.8770(10) 0.9145(6) 0.3257(4)
C1 C 0.7201(12) 0.8194(7) 0.3933(5)
C2 C 0.6925(12) 0.7386(8) 0.4334(5)
H1 H 0.7704 0.6890 0.4450
C3 C 0.5515(13) 0.7297(7) 0.4568(5)
C4 C 0.4380(12) 0.8063(8) 0.4405(5)
H2 H 0.3421 0.8031 0.4563
C5 C 0.4710(13) 0.8872(7) 0.4001(5)
H3 H 0.3963 0.9389 0.3901
C6 C 0.8682(13) 0.8322(8) 0.3672(5)
C7 C 0.9927(14) 0.7626(9) 0.3829(6)
H4 H 0.9825 0.7063 0.4107
C8 C 1.1277(13) 0.7767(8) 0.3580(5)
C9 C 1.1422(12) 0.8623(8) 0.3177(5)
H5 H 1.2350 0.8746 0.3011
C10 C 1.0157(12) 0.9281(7) 0.3031(5)
H6 H 1.0257 0.9852 0.2762
C11 C 1.2598(13) 0.6976(8) 0.3724(5)
C12 C 0.5237(14) 0.6373(7) 0.4972(5)
C13 C -0.1589(13) 0.6003(8) 0.8823(5)
C14 C -0.1902(13) 0.6837(8) 0.8983(5)
H7 H -0.1215 0.6985 0.9214
C15 C -0.3220(15) 0.7438(8) 0.8800(6)
H8 H -0.3439 0.7982 0.8915
C16 C -0.4217(14) 0.7220(8) 0.8440(5)
H9 H -0.5097 0.7625 0.8302
C17 C -0.3881(13) 0.6393(8) 0.8292(5)
H10 H -0.4568 0.6238 0.8064
C18 C -0.0253(13) 0.5314(8) 0.8974(5)
C19 C -0.0190(13) 0.4542(8) 0.8753(5)
C20 C 0.1084(14) 0.3857(9) 0.8897(6)
H11 H 0.1139 0.3328 0.8767
C21 C 0.2251(14) 0.3948(8) 0.9225(6)
H12 H 0.3097 0.3493 0.9302
C22 C 0.2184(15) 0.4711(10) 0.9445(6)
H13 H 0.2969 0.4767 0.9673
C23 C 0.0932(14) 0.5384(8) 0.9318(5)
H14 H 0.0873 0.5897 0.9464
C24 C 0.7297(14) 1.0621(8) 0.1776(5)
C25 C 0.7834(16) 1.1147(10) 0.1237(6)
H15 H 0.7801 1.0942 0.0904
C26 C 0.8382(15) 1.1923(10) 0.1197(6)
H16 H 0.8736 1.2258 0.0839
C27 C 0.8435(15) 1.2252(9) 0.1703(6)
H17 H 0.8799 1.2809 0.1670
C28 C 0.7948(13) 1.1747(8) 0.2240(6)
H18 H 0.8001 1.1960 0.2569
C29 C 0.7365(12) 1.0904(7) 0.2293(5)
C30 C 0.6648(14) 0.9772(8) 0.1849(5)
C31 C 0.633(2) 0.9403(10) 0.1393(6)
H19 H 0.6595 0.9686 0.1008
C32 C 0.561(2) 0.8588(11) 0.1528(7)
H20 H 0.5385 0.8337 0.1231
C33 C 0.5261(16) 0.8189(9) 0.2092(7)
H21 H 0.4768 0.7668 0.2184
C34 C 0.5634(13) 0.8553(7) 0.2534(6)
H22 H 0.5421 0.8254 0.2922
C35 C -0.2336(13) 0.5314(7) 0.6983(5)
C36 C -0.2071(15) 0.5781(7) 0.6395(5)
H23 H -0.2765 0.5827 0.6102
C37 C -0.0727(14) 0.6180(7) 0.6256(5)
C38 C 0.0273(14) 0.6069(8) 0.6703(5)
H24 H 0.1179 0.6307 0.6622
C39 C -0.0058(14) 0.5606(8) 0.7274(5)
H25 H 0.0628 0.5544 0.7573
C40 C -0.3723(13) 0.4917(7) 0.7158(5)
C41 C -0.4785(14) 0.4833(8) 0.6762(5)
H26 H -0.4614 0.5028 0.6360
C42 C -0.6086(13) 0.4462(7) 0.6968(5)
C43 C -0.6315(13) 0.4201(8) 0.7576(6)
H27 H -0.7198 0.3975 0.7728
C44 C -0.5241(13) 0.4278(8) 0.7948(5)
H28 H -0.5400 0.4090 0.8351
C45 C -0.7200(16) 0.4326(9) 0.6552(6)
C46 C -0.0562(15) 0.6796(8) 0.5636(5)
C47 C -0.1813(14) 0.2534(8) 0.8656(5)
C48 C -0.1332(15) 0.1600(9) 0.8667(6)
H29 H -0.1673 0.1119 0.8958
C49 C -0.0349(16) 0.1400(9) 0.8242(6)
H30 H -0.0028 0.0784 0.8246
C50 C 0.0147(15) 0.2116(9) 0.7816(6)
H31 H 0.0834 0.1991 0.7536
C51 C -0.0391(13) 0.3031(9) 0.7808(5)
H32 H -0.0078 0.3517 0.7513
C52 C -0.2728(13) 0.2845(8) 0.9110(5)
C53 C -0.2878(13) 0.3821(8) 0.9040(5)
C54 C -0.3623(12) 0.4146(9) 0.9485(5)
H33 H -0.3727 0.4778 0.9458
C55 C -0.4217(15) 0.3535(10) 0.9972(5)
H34 H -0.4684 0.3763 1.0269
C56 C -0.4113(15) 0.2602(10) 1.0013(6)
H35 H -0.4543 0.2206 1.0330
C57 C -0.3361(15) 0.2247(10) 0.9580(6)
H36 H -0.3286 0.1616 0.9607
C58 C 0.4278(14) 1.1423(8) 0.3220(6)
C59 C 0.2861(16) 1.1953(9) 0.3203(7)
H37 H 0.2670 1.2362 0.3433
C60 C 0.1730(15) 1.1869(9) 0.2842(8)
H38 H 0.0784 1.2223 0.2831
C61 C 0.2011(14) 1.1267(8) 0.2504(6)
H39 H 0.1258 1.1223 0.2257
C62 C 0.3412(12) 1.0719(8) 0.2525(6)
H40 H 0.3577 1.0312 0.2292
C63 C 0.4568(13) 1.0766(7) 0.2885(5)
C64 C 0.5541(15) 1.1510(8) 0.3557(6)
C65 C 0.5590(18) 1.2164(10) 0.3856(7)
H41 H 0.4728 1.2577 0.3880
C66 C 0.6935(18) 1.2210(10) 0.4123(6)
H42 H 0.6970 1.2648 0.4328
C67 C 0.8197(19) 1.1599(9) 0.4080(6)
H43 H 0.9117 1.1625 0.4239
C68 C 0.8045(15) 1.0935(8) 0.3787(5)
H44 H 0.8885 1.0500 0.3771
O9 O 0.0169(14) 0.4644(11) 0.5516(10)
Yb1_2 Yb -0.79827(15) 0.54303(7) 0.50891(5)
Yb1_3 Yb 1.20173(15) 0.54303(7) 0.50891(5)
Yb1A Yb -0.20173(15) 0.45697(7) 0.49109(5)
Yb1A_2 Yb 0.79827(15) 0.45697(7) 0.49109(5)
O2A O 0.3642(10) 0.4269(5) 0.4887(3)
O3_2 O 0.2320(10) 0.6229(6) 0.4148(4)
O7_2 O 0.2960(11) 0.4775(7) 0.6009(4)
O9A O -0.0169(14) 0.5356(11) 0.4484(10)
O10 O 0.145(3) 0.981(2) 0.4312(11)
loop_
_geom_bond_atom_site_label_1
_geom_bond_atom_site_label_2
_geom_bond_site_symmetry_1
_geom_bond_site_symmetry_2
Ir1 N5 1_555 1_555
Ir2 N1 1_555 1_555
Yb1 O1 1_555 1_555
O1 C12 1_555 1_555
O2 C12 1_555 1_555
O3 C11 1_555 1_555
O4 C11 1_555 1_555
O5 Yb1 1_555 1_555
O6 C46 1_555 1_555
O7 C45 1_555 1_555
O8 C45 1_555 1_555
N1 C40 1_555 1_555
N2 Ir2 1_555 1_555
N3 Ir2 1_555 1_555
N4 Ir2 1_555 1_555
N5 C64 1_555 1_555
N6 Ir1 1_555 1_555
N7 Ir1 1_555 1_555
N8 Ir1 1_555 1_555
C1 N7 1_555 1_555
C2 C1 1_555 1_555
H1 C2 1_555 1_555
C3 C2 1_555 1_555
C4 C3 1_555 1_555
H2 C4 1_555 1_555
C5 N7 1_555 1_555
H3 C5 1_555 1_555
C6 N8 1_555 1_555
C7 C6 1_555 1_555
H4 C7 1_555 1_555
C8 C7 1_555 1_555
C9 C8 1_555 1_555
H5 C9 1_555 1_555
C10 N8 1_555 1_555
H6 C10 1_555 1_555
C11 C8 1_555 1_555
C12 C3 1_555 1_555
C13 N4 1_555 1_555
C14 C13 1_555 1_555
H7 C14 1_555 1_555
C15 C14 1_555 1_555
H8 C15 1_555 1_555
C16 C15 1_555 1_555
H9 C16 1_555 1_555
C17 N4 1_555 1_555
H10 C17 1_555 1_555
C18 C13 1_555 1_555
C19 Ir2 1_555 1_555
C20 C19 1_555 1_555
H11 C20 1_555 1_555
C21 C20 1_555 1_555
H12 C21 1_555 1_555
C22 C21 1_555 1_555
H13 C22 1_555 1_555
C23 C18 1_555 1_555
H14 C23 1_555 1_555
C24 C25 1_555 1_555
C25 H15 1_555 1_555
C26 C25 1_555 1_555
H16 C26 1_555 1_555
C27 C26 1_555 1_555
H17 C27 1_555 1_555
C28 C27 1_555 1_555
H18 C28 1_555 1_555
C29 Ir1 1_555 1_555
C30 N6 1_555 1_555
C31 C30 1_555 1_555
H19 C31 1_555 1_555
C32 C31 1_555 1_555
H20 C32 1_555 1_555
C33 C32 1_555 1_555
H21 C33 1_555 1_555
C34 N6 1_555 1_555
H22 C34 1_555 1_555
C35 N3 1_555 1_555
C36 C35 1_555 1_555
H23 C36 1_555 1_555
C37 C36 1_555 1_555
C38 C37 1_555 1_555
H24 C38 1_555 1_555
C39 N3 1_555 1_555
H25 C39 1_555 1_555
C40 C35 1_555 1_555
C41 C40 1_555 1_555
H26 C41 1_555 1_555
C42 C41 1_555 1_555
C43 C42 1_555 1_555
H27 C43 1_555 1_555
C44 N1 1_555 1_555
H28 C44 1_555 1_555
C45 C42 1_555 1_555
C46 O5 1_555 1_555
C47 N2 1_555 1_555
C48 C47 1_555 1_555
H29 C48 1_555 1_555
C49 C48 1_555 1_555
H30 C49 1_555 1_555
C50 C49 1_555 1_555
H31 C50 1_555 1_555
C51 N2 1_555 1_555
H32 C51 1_555 1_555
C52 C47 1_555 1_555
C53 Ir2 1_555 1_555
C54 C53 1_555 1_555
H33 C54 1_555 1_555
C55 C54 1_555 1_555
H34 C55 1_555 1_555
C56 C55 1_555 1_555
H35 C56 1_555 1_555
C57 C52 1_555 1_555
H36 C57 1_555 1_555
C58 C59 1_555 1_555
C59 H37 1_555 1_555
C60 C59 1_555 1_555
H38 C60 1_555 1_555
C61 C60 1_555 1_555
H39 C61 1_555 1_555
C62 C61 1_555 1_555
H40 C62 1_555 1_555
C63 Ir1 1_555 1_555
C64 C58 1_555 1_555
C65 C64 1_555 1_555
H41 C65 1_555 1_555
C66 C65 1_555 1_555
H42 C66 1_555 1_555
C67 C66 1_555 1_555
H43 C67 1_555 1_555
C68 N5 1_555 1_555
H44 C68 1_555 1_555
O9 Yb1 1_555 1_555
Yb1_2 O7 1_555 1_555
Yb1_3 O3 1_555 1_555
Yb1A O9 1_555 1_555
Yb1A_2 O2 1_555 1_555
O2A Yb1 1_555 1_555
O3_2 Yb1 1_555 1_555
O7_2 Yb1 1_555 1_555
O9A Yb1 1_555 1_555
C1 C6 1_555 1_555
C4 C5 1_555 1_555
C9 C10 1_555 1_555
C16 C17 1_555 1_555
C18 C19 1_555 1_555
C22 C23 1_555 1_555
C24 C29 1_555 1_555
C24 C30 1_555 1_555
C28 C29 1_555 1_555
C33 C34 1_555 1_555
C37 C46 1_555 1_555
C38 C39 1_555 1_555
C43 C44 1_555 1_555
C50 C51 1_555 1_555
C52 C53 1_555 1_555
C56 C57 1_555 1_555
C58 C63 1_555 1_555
C62 C63 1_555 1_555
C67 C68 1_555 1_555
Yb1A O9A 1_555 1_555

#END
