
#######################################################################
#
#                 Cambridge Crystallographic Data Centre
#                                CCDC 
#
#######################################################################
#
# If this CIF has been generated from an entry in the Cambridge 
# Structural Database, then it will include bibliographic, chemical, 
# crystal, experimental, refinement or atomic coordinate data resulting 
# from the CCDC's data processing and validation procedures.
#
#######################################################################

data_XIYXOS
_symmetry_cell_setting           orthorhombic
_symmetry_space_group_name_H-M   'P b c a'
_symmetry_Int_Tables_number      61
_space_group_name_Hall           '-P 2ac 2ab'
loop_
_symmetry_equiv_pos_site_id
_symmetry_equiv_pos_as_xyz
1 x,y,z
2 1/2+x,y,1/2-z
3 x,1/2-y,1/2+z
4 1/2-x,1/2+y,z
5 -x,-y,-z
6 1/2-x,-y,1/2+z
7 -x,1/2+y,1/2-z
8 1/2+x,1/2-y,-z
_cell_length_a                   9.583(2)
_cell_length_b                   12.738(3)
_cell_length_c                   21.039(4)
_cell_angle_alpha                90
_cell_angle_beta                 90
_cell_angle_gamma                90
_cell_volume                     2568.19
loop_
_atom_site_label
_atom_site_type_symbol
_atom_site_fract_x
_atom_site_fract_y
_atom_site_fract_z
Co1 Co 0.0000 0.0000 0.0000
N1 N -0.10438(19) -0.01689(12) 0.09537(7)
C1 C -0.1594(2) 0.07369(14) 0.12767(8)
C2 C -0.0693(2) 0.14481(18) 0.15442(10)
H1 H 0.0293 0.1316 0.1532
C3 C -0.1191(2) 0.23505(17) 0.18362(10)
H2 H -0.0562 0.2855 0.2017
C4 C -0.2605(2) 0.25185(15) 0.18608(9)
C5 C -0.3512(2) 0.18181(17) 0.15946(11)
H3 H -0.4497 0.1950 0.1612
C6 C -0.3005(2) 0.09211(18) 0.12983(10)
H4 H -0.3638 0.0427 0.1109
N2 N -0.0300(2) -0.15792(14) -0.01001(8)
N3 N -0.21078(17) 0.46511(12) 0.46289(7)
C7 C 0.00083(19) -0.24525(17) -0.01297(9)
C8 C -0.23614(18) 0.43197(14) 0.39866(8)
S1 S 0.04154(8) -0.36876(4) -0.01627(4)
C9 C -0.2819(3) 0.50301(15) 0.35423(10)
H5 H -0.2982 0.5746 0.3664
C10 C -0.2129(2) 0.32949(15) 0.38050(9)
H6 H -0.1797 0.2795 0.4111
C11 C -0.3055(3) 0.47245(16) 0.29185(10)
H7 H -0.3373 0.5228 0.2611
C12 C -0.2364(2) 0.29811(15) 0.31820(9)
H8 H -0.2216 0.2263 0.3060
C13 C -0.2822(2) 0.37016(15) 0.27402(9)
O1 O -0.31602(17) 0.34387(11) 0.21203(7)
H9 H -0.2512 0.5318 0.4673
H10 H -0.0312 -0.0404 0.1185
H11 H -0.2350 0.4079 0.4899
H12 H -0.1813 -0.0608 0.0872
N1D N 0.10438(19) 0.01689(12) -0.09537(7)
C1D C 0.1594(2) -0.07369(14) -0.12767(8)
C2D C 0.0693(2) -0.14481(18) -0.15442(10)
H1D H -0.0293 -0.1316 -0.1532
C3D C 0.1191(2) -0.23505(17) -0.18362(10)
H2D H 0.0562 -0.2855 -0.2017
C4D C 0.2605(2) -0.25185(15) -0.18608(9)
C5D C 0.3512(2) -0.18181(17) -0.15946(11)
H3D H 0.4497 -0.1950 -0.1612
C6D C 0.3005(2) -0.09211(18) -0.12983(10)
H4D H 0.3638 -0.0427 -0.1109
N3D N 0.21078(17) -0.46511(12) -0.46289(7)
C8D C 0.23614(18) -0.43197(14) -0.39866(8)
C9D C 0.2819(3) -0.50301(15) -0.35423(10)
H5D H 0.2982 -0.5746 -0.3664
C10D C 0.2129(2) -0.32949(15) -0.38050(9)
H6D H 0.1797 -0.2795 -0.4111
C11D C 0.3055(3) -0.47245(16) -0.29185(10)
H7D H 0.3373 -0.5228 -0.2611
C12D C 0.2364(2) -0.29811(15) -0.31820(9)
H8D H 0.2216 -0.2263 -0.3060
C13D C 0.2822(2) -0.37016(15) -0.27402(9)
O1D O 0.31602(17) -0.34387(11) -0.21203(7)
H9D H 0.2512 -0.5318 -0.4673
H10D H 0.0312 0.0404 -0.1185
H11D H 0.2350 -0.4079 -0.4899
H12D H 0.1813 0.0608 -0.0872
N2D N 0.0300(2) 0.15792(14) 0.01001(8)
C7D C -0.00083(19) 0.24525(17) 0.01297(9)
S1D S -0.04154(8) 0.36876(4) 0.01627(4)
N3B N -0.21078(17) 0.03489(12) -0.03711(7)
N3F N 0.21078(17) -0.03489(12) 0.03711(7)
Co1B Co 0.0000 0.5000 0.5000
Co1B_2 Co 0.0000 -0.5000 -0.5000
H9B H -0.2512 -0.0318 -0.0327
H11B H -0.2350 0.0921 -0.0101
H9F H 0.2512 0.0318 0.0327
H11F H 0.2350 -0.0921 0.0101
loop_
_geom_bond_atom_site_label_1
_geom_bond_atom_site_label_2
_geom_bond_site_symmetry_1
_geom_bond_site_symmetry_2
Co1 N1 1_555 1_555
N1 C1 1_555 1_555
C1 C2 1_555 1_555
C2 H1 1_555 1_555
C3 C2 1_555 1_555
H2 C3 1_555 1_555
C4 C3 1_555 1_555
C5 C4 1_555 1_555
H3 C5 1_555 1_555
C6 C1 1_555 1_555
H4 C6 1_555 1_555
N2 Co1 1_555 1_555
N3 C8 1_555 1_555
C7 N2 1_555 1_555
C8 C9 1_555 1_555
S1 C7 1_555 1_555
C9 H5 1_555 1_555
C10 C8 1_555 1_555
H6 C10 1_555 1_555
C11 C9 1_555 1_555
H7 C11 1_555 1_555
C12 C10 1_555 1_555
H8 C12 1_555 1_555
C13 C11 1_555 1_555
O1 C4 1_555 1_555
H9 N3 1_555 1_555
H10 N1 1_555 1_555
H11 N3 1_555 1_555
H12 N1 1_555 1_555
N1D Co1 1_555 1_555
C1D N1D 1_555 1_555
C2D C1D 1_555 1_555
H1D C2D 1_555 1_555
C3D C2D 1_555 1_555
H2D C3D 1_555 1_555
C4D C3D 1_555 1_555
C5D C4D 1_555 1_555
H3D C5D 1_555 1_555
C6D C1D 1_555 1_555
H4D C6D 1_555 1_555
N3D C8D 1_555 1_555
C8D C9D 1_555 1_555
C9D H5D 1_555 1_555
C10D C8D 1_555 1_555
H6D C10D 1_555 1_555
C11D C9D 1_555 1_555
H7D C11D 1_555 1_555
C12D C10D 1_555 1_555
H8D C12D 1_555 1_555
C13D C11D 1_555 1_555
O1D C4D 1_555 1_555
H9D N3D 1_555 1_555
H10D N1D 1_555 1_555
H11D N3D 1_555 1_555
H12D N1D 1_555 1_555
N2D Co1 1_555 1_555
C7D N2D 1_555 1_555
S1D C7D 1_555 1_555
N3B Co1 1_555 1_555
N3F Co1 1_555 1_555
Co1B N3 1_555 1_555
Co1B_2 N3D 1_555 1_555
H9B N3B 1_555 1_555
H11B N3B 1_555 1_555
H9F N3F 1_555 1_555
H11F N3F 1_555 1_555
C5 C6 1_555 1_555
C12 C13 1_555 1_555
C13 O1 1_555 1_555
C5D C6D 1_555 1_555
C12D C13D 1_555 1_555
C13D O1D 1_555 1_555

#END
