
#######################################################################
#
#                 Cambridge Crystallographic Data Centre
#                                CCDC 
#
#######################################################################
#
# If this CIF has been generated from an entry in the Cambridge 
# Structural Database, then it will include bibliographic, chemical, 
# crystal, experimental, refinement or atomic coordinate data resulting 
# from the CCDC's data processing and validation procedures.
#
#######################################################################

data_XIYYAF
_symmetry_cell_setting           monoclinic
_symmetry_space_group_name_H-M   'C 2/c'
_symmetry_Int_Tables_number      15
_space_group_name_Hall           '-C 2yn'
loop_
_symmetry_equiv_pos_site_id
_symmetry_equiv_pos_as_xyz
1 x,y,z
2 1/2+x,1/2+y,z
3 x,-y,1/2+z
4 1/2+x,1/2-y,1/2+z
5 -x,-y,-z
6 1/2-x,1/2-y,-z
7 -x,y,1/2-z
8 1/2-x,1/2+y,1/2-z
_cell_length_a                   22.861(5)
_cell_length_b                   5.8120(10)
_cell_length_c                   17.720(4)
_cell_angle_alpha                90
_cell_angle_beta                 93.00(3)
_cell_angle_gamma                90
_cell_volume                     2351.2
loop_
_atom_site_label
_atom_site_type_symbol
_atom_site_fract_x
_atom_site_fract_y
_atom_site_fract_z
C1 C -0.10431(10) 0.1097(4) -0.12586(13)
C2 C -0.13408(12) -0.0770(5) -0.15896(14)
H1 H -0.1125 -0.2103 -0.1733
C3 C -0.19438(12) -0.0719(5) -0.17086(15)
H2 H -0.2148 -0.1998 -0.1942
C4 C -0.22529(11) 0.1201(5) -0.14894(14)
C5 C -0.19655(12) 0.3066(4) -0.11667(15)
H3 H -0.2184 0.4395 -0.1025
C6 C -0.13609(12) 0.3016(4) -0.10514(15)
H4 H -0.1159 0.4313 -0.0826
C7 C -0.31776(11) -0.0533(5) -0.13739(14)
C8 C -0.36185(12) -0.1422(6) -0.18488(15)
H5 H -0.3686 -0.0811 -0.2349
C9 C -0.39540(12) -0.3229(6) -0.16107(14)
H6 H -0.4266 -0.3823 -0.1938
C10 C -0.38538(10) -0.4172(5) -0.08992(14)
C11 C -0.34136(12) -0.3260(5) -0.04234(15)
H7 H -0.3344 -0.3870 0.0077
C12 C -0.30749(12) -0.1437(6) -0.06624(15)
H8 H -0.2765 -0.0831 -0.0334
N1 N -0.04181(9) 0.1003(4) -0.11205(12)
N2 N -0.42167(9) -0.5979(4) -0.06318(12)
N3 N -0.02920(10) -0.3364(4) -0.01346(15)
N4 N 0.0000 -0.5000 0.0000
O1 O -0.28573(8) 0.1336(4) -0.16230(12)
Co1 Co 0.0000 0.0000 0.0000
H9 H -0.4009 -0.6978 -0.0315
H10 H -0.4312 -0.6421 -0.0960
H11 H -0.0336 -0.0068 -0.1314
H12 H -0.0255 0.2514 -0.1274
N3D N 0.02920(10) -0.6636(4) 0.01346(15)
C1D C 0.10431(10) -0.1097(4) 0.12586(13)
C2D C 0.13408(12) 0.0770(5) 0.15896(14)
H1D H 0.1125 0.2103 0.1733
C3D C 0.19438(12) 0.0719(5) 0.17086(15)
H2D H 0.2148 0.1998 0.1942
C4D C 0.22529(11) -0.1201(5) 0.14894(14)
C5D C 0.19655(12) -0.3066(4) 0.11667(15)
H3D H 0.2184 -0.4395 0.1025
C6D C 0.13609(12) -0.3016(4) 0.10514(15)
H4D H 0.1159 -0.4313 0.0826
C7D C 0.31776(11) 0.0533(5) 0.13739(14)
C8D C 0.36185(12) 0.1422(6) 0.18488(15)
H5D H 0.3686 0.0811 0.2349
C9D C 0.39540(12) 0.3229(6) 0.16107(14)
H6D H 0.4266 0.3823 0.1938
C10D C 0.38538(10) 0.4172(5) 0.08992(14)
C11D C 0.34136(12) 0.3260(5) 0.04234(15)
H7D H 0.3344 0.3870 -0.0077
C12D C 0.30749(12) 0.1437(6) 0.06624(15)
H8D H 0.2765 0.0831 0.0334
N1D N 0.04181(9) -0.1003(4) 0.11205(12)
N2D N 0.42167(9) 0.5979(4) 0.06318(12)
O1D O 0.28573(8) -0.1336(4) 0.16230(12)
H9D H 0.4009 0.6978 0.0315
H10D H 0.4312 0.6421 0.0960
H11D H 0.0336 0.0068 0.1314
H12D H 0.0255 -0.2514 0.1274
Co1A Co -0.5000 -0.5000 0.0000
N2A N 0.07833(9) -0.0979(4) -0.06318(12)
N2E N -0.07833(9) 0.0979(4) 0.06318(12)
N3D_2 N 0.02920(10) 0.3364(4) 0.01346(15)
Co1_2 Co 0.0000 -1.0000 0.0000
Co1A_2 Co 0.5000 0.5000 0.0000
H9A H 0.0991 -0.1978 -0.0315
H10A H 0.0688 -0.1421 -0.0960
H9E H -0.0991 0.1978 0.0315
H10E H -0.0688 0.1421 0.0960
N5 N 0.0000 -0.3742(6) -0.2500
O2 O 0.0000 -0.1700(9) -0.2500
O3 O -0.0076(2) -0.4562(11) -0.1915(3)
O3F O 0.0076(2) -0.4562(11) -0.3085(3)
loop_
_geom_bond_atom_site_label_1
_geom_bond_atom_site_label_2
_geom_bond_site_symmetry_1
_geom_bond_site_symmetry_2
C1 C2 1_555 1_555
C2 H1 1_555 1_555
C3 C2 1_555 1_555
H2 C3 1_555 1_555
C4 C3 1_555 1_555
C5 C4 1_555 1_555
H3 C5 1_555 1_555
C6 C1 1_555 1_555
H4 C6 1_555 1_555
C7 C8 1_555 1_555
C8 H5 1_555 1_555
C9 C8 1_555 1_555
H6 C9 1_555 1_555
C10 C9 1_555 1_555
C11 C10 1_555 1_555
H7 C11 1_555 1_555
C12 C7 1_555 1_555
H8 C12 1_555 1_555
N1 C1 1_555 1_555
N2 C10 1_555 1_555
N3 N4 1_555 1_555
N4 N3D 1_555 1_555
N5 O2 1_555 1_555
O1 C4 1_555 1_555
Co1 N1 1_555 1_555
H9 N2 1_555 1_555
H10 N2 1_555 1_555
H11 N1 1_555 1_555
H12 N1 1_555 1_555
O3 N5 1_555 1_555
N3D Co1_2 1_555 1_555
O3F N5 1_555 1_555
C1D C2D 1_555 1_555
C2D H1D 1_555 1_555
C3D C2D 1_555 1_555
H2D C3D 1_555 1_555
C4D C3D 1_555 1_555
C5D C4D 1_555 1_555
H3D C5D 1_555 1_555
C6D C1D 1_555 1_555
H4D C6D 1_555 1_555
C7D C8D 1_555 1_555
C8D H5D 1_555 1_555
C9D C8D 1_555 1_555
H6D C9D 1_555 1_555
C10D C9D 1_555 1_555
C11D C10D 1_555 1_555
H7D C11D 1_555 1_555
C12D C7D 1_555 1_555
H8D C12D 1_555 1_555
N1D Co1 1_555 1_555
N2D C10D 1_555 1_555
O1D C4D 1_555 1_555
H9D N2D 1_555 1_555
H10D N2D 1_555 1_555
H11D N1D 1_555 1_555
H12D N1D 1_555 1_555
Co1A N2 1_555 1_555
N2A Co1 1_555 1_555
N2E Co1 1_555 1_555
N3D_2 Co1 1_555 1_555
Co1A_2 N2D 1_555 1_555
H9A N2A 1_555 1_555
H10A N2A 1_555 1_555
H9E N2E 1_555 1_555
H10E N2E 1_555 1_555
C5 C6 1_555 1_555
C7 O1 1_555 1_555
C11 C12 1_555 1_555
N3 Co1 1_555 1_555
C1D N1D 1_555 1_555
C5D C6D 1_555 1_555
C7D O1D 1_555 1_555
C11D C12D 1_555 1_555

#END
