
#######################################################################
#
#                 Cambridge Crystallographic Data Centre
#                                CCDC 
#
#######################################################################
#
# If this CIF has been generated from an entry in the Cambridge 
# Structural Database, then it will include bibliographic, chemical, 
# crystal, experimental, refinement or atomic coordinate data resulting 
# from the CCDC's data processing and validation procedures.
#
#######################################################################

data_XIYZAG
_symmetry_cell_setting           monoclinic
_symmetry_space_group_name_H-M   'P 21/c'
_symmetry_Int_Tables_number      14
_space_group_name_Hall           '-P 2ybc'
loop_
_symmetry_equiv_pos_site_id
_symmetry_equiv_pos_as_xyz
1 x,y,z
2 x,1/2-y,1/2+z
3 -x,-y,-z
4 -x,1/2+y,1/2-z
_cell_length_a                   12.3634(12)
_cell_length_b                   9.3090(17)
_cell_length_c                   9.8077(13)
_cell_angle_alpha                90.00
_cell_angle_beta                 112.819(8)
_cell_angle_gamma                90.00
_cell_volume                     1040.43
loop_
_atom_site_label
_atom_site_type_symbol
_atom_site_fract_x
_atom_site_fract_y
_atom_site_fract_z
Zr1 Zr 0.32972(2) 0.58264(3) 0.26062(3)
P1 P 0.49226(6) 0.27953(8) 0.38620(8)
F1 F 0.22584(16) 0.7459(2) 0.2493(2)
F2 F 0.21734(16) 0.5175(2) 0.0656(2)
F3 F 0.25242(16) 0.4673(2) 0.3667(2)
O1 O 0.43467(17) 0.3982(2) 0.2745(2)
O2 O 0.54841(18) 0.3379(2) 0.5419(2)
O3 O 0.57899(17) 0.1952(2) 0.3437(2)
N1 N 0.1868(2) 0.1118(3) 0.1814(3)
C1 C 0.3799(3) 0.1571(3) 0.3849(3)
H1 H 0.4152 0.0841 0.4597
H2 H 0.3234 0.2092 0.4124
C2 C 0.3143(3) 0.0825(4) 0.2361(4)
H3 H 0.3446 0.1165 0.1643
H4 H 0.3277 -0.0203 0.2476
C3 C 0.1203(3) 0.0336(3) 0.2339(4)
H5 H 0.1537 -0.0404 0.3009
C4 C 0.0027(3) 0.0631(4) 0.1885(4)
H6 H -0.0437 0.0087 0.2243
C5 C -0.0467(3) 0.1727(4) 0.0905(4)
H7 H -0.1263 0.1929 0.0591
C6 C 0.0232(3) 0.2517(4) 0.0398(4)
H8 H -0.0085 0.3273 -0.0255
C7 C 0.1397(3) 0.2194(4) 0.0852(4)
H9 H 0.1868 0.2722 0.0493
O2B O 0.45159(18) 0.6621(2) 0.4581(2)
O3C O 0.42101(17) 0.6952(2) 0.1563(2)
Zr1B Zr 0.67028(2) 0.41736(3) 0.73938(3)
Zr1C Zr 0.67028(2) 0.08264(3) 0.23938(3)
loop_
_geom_bond_atom_site_label_1
_geom_bond_atom_site_label_2
_geom_bond_site_symmetry_1
_geom_bond_site_symmetry_2
Zr1 F1 1_555 1_555
P1 O1 1_555 1_555
F2 Zr1 1_555 1_555
F3 Zr1 1_555 1_555
O1 Zr1 1_555 1_555
O2 P1 1_555 1_555
O3 P1 1_555 1_555
N1 C2 1_555 1_555
C1 P1 1_555 1_555
H1 C1 1_555 1_555
H2 C1 1_555 1_555
C2 C1 1_555 1_555
H3 C2 1_555 1_555
H4 C2 1_555 1_555
C3 N1 1_555 1_555
H5 C3 1_555 1_555
C4 C3 1_555 1_555
H6 C4 1_555 1_555
C5 C4 1_555 1_555
H7 C5 1_555 1_555
C6 C5 1_555 1_555
H8 C6 1_555 1_555
C7 N1 1_555 1_555
H9 C7 1_555 1_555
O2B Zr1 1_555 1_555
O3C Zr1 1_555 1_555
Zr1B O2 1_555 1_555
Zr1C O3 1_555 1_555
C6 C7 1_555 1_555

#END
