
#######################################################################
#
#                 Cambridge Crystallographic Data Centre
#                                CCDC 
#
#######################################################################
#
# If this CIF has been generated from an entry in the Cambridge 
# Structural Database, then it will include bibliographic, chemical, 
# crystal, experimental, refinement or atomic coordinate data resulting 
# from the CCDC's data processing and validation procedures.
#
#######################################################################

data_XIZJOF
_symmetry_cell_setting           monoclinic
_symmetry_space_group_name_H-M   'P 21/n'
_symmetry_Int_Tables_number      14
_space_group_name_Hall           '-P 2yn'
loop_
_symmetry_equiv_pos_site_id
_symmetry_equiv_pos_as_xyz
1 x,y,z
2 1/2+x,1/2-y,1/2+z
3 -x,-y,-z
4 1/2-x,1/2+y,1/2-z
_cell_length_a                   10.663(2)
_cell_length_b                   11.566(3)
_cell_length_c                   11.972(3)
_cell_angle_alpha                90
_cell_angle_beta                 99.303(4)
_cell_angle_gamma                90
_cell_volume                     1457.07
loop_
_atom_site_label
_atom_site_type_symbol
_atom_site_fract_x
_atom_site_fract_y
_atom_site_fract_z
Ag1 Ag 0.55731(4) 0.15888(3) 0.80861(3)
N1 N 0.7134(4) 0.2983(4) 0.7600(4)
C1 C 0.7986(5) 0.3461(4) 0.8424(4)
C2 C 0.8780(5) 0.4351(4) 0.8195(4)
H1 H 0.9378 0.4663 0.8795
N2 N 0.8724(4) 0.4782(4) 0.7147(4)
C3 C 0.7891(5) 0.4282(4) 0.6332(5)
H2 H 0.7840 0.4546 0.5574
C4 C 0.7108(5) 0.3397(4) 0.6562(4)
H3 H 0.6530 0.3072 0.5958
C5 C 0.8025(5) 0.3004(4) 0.9583(4)
N3 N 0.9023(4) 0.3296(4) 1.0364(4)
N4 N 0.9020(4) 0.2899(4) 1.1401(4)
C6 C 0.8034(5) 0.2258(4) 1.1607(4)
N5 N 0.7064(4) 0.1943(4) 1.0818(4)
N6 N 0.7065(4) 0.2329(4) 0.9775(4)
C7 C 0.8033(5) 0.1862(4) 1.2778(4)
N7 N 0.8928(4) 0.2287(4) 1.3586(4)
C8 C 0.8919(5) 0.1903(5) 1.4631(5)
H4 H 0.9547 0.2175 1.5228
C9 C 0.8018(5) 0.1118(5) 1.4874(5)
H5 H 0.8047 0.0874 1.5636
N8 N 0.7114(5) 0.0693(4) 1.4082(4)
C10 C 0.7136(5) 0.1077(5) 1.3039(5)
H6 H 0.6509 0.0802 1.2443
N2C N 0.6276(4) -0.0218(4) 0.7853(4)
N4A N 0.4020(4) 0.2101(4) 0.6401(4)
N7A N 0.3928(4) 0.2713(4) 0.8586(4)
Ag1C Ag 0.94269(4) 0.65888(3) 0.69139(3)
Ag1A Ag 1.05731(4) 0.34112(3) 1.30861(3)
P1 P 1.03172(13) 0.09416(12) 0.80499(12)
F1 F 1.0707(5) -0.0164(3) 0.8803(4)
F2 F 0.9947(4) 0.2046(3) 0.7289(3)
F7 F 0.9992(10) 0.0123(5) 0.6996(6)
F8 F 0.8935(7) 0.0848(7) 0.8289(10)
F9 F 1.1716(7) 0.1031(6) 0.7805(9)
F10 F 1.0664(12) 0.1748(5) 0.9091(6)
F3? F 0.9550(11) 0.0137(5) 0.7136(7)
F4? F 0.9115(9) 0.1124(7) 0.8636(9)
F5? F 1.1550(9) 0.0783(8) 0.7498(9)
F6? F 1.1081(11) 0.1749(6) 0.8976(7)
loop_
_geom_bond_atom_site_label_1
_geom_bond_atom_site_label_2
_geom_bond_site_symmetry_1
_geom_bond_site_symmetry_2
Ag1 N1 1_555 1_555
N1 C1 1_555 1_555
C1 C2 1_555 1_555
C2 H1 1_555 1_555
N2 C2 1_555 1_555
C3 N2 1_555 1_555
H2 C3 1_555 1_555
C4 N1 1_555 1_555
H3 C4 1_555 1_555
C5 C1 1_555 1_555
N3 C5 1_555 1_555
N4 N3 1_555 1_555
C6 N4 1_555 1_555
N5 C6 1_555 1_555
N6 Ag1 1_555 1_555
C7 C6 1_555 1_555
N7 C7 1_555 1_555
C8 N7 1_555 1_555
H4 C8 1_555 1_555
C9 C8 1_555 1_555
H5 C9 1_555 1_555
N8 C9 1_555 1_555
C10 C7 1_555 1_555
H6 C10 1_555 1_555
P1 F1 1_555 1_555
F2 P1 1_555 1_555
F7 P1 1_555 1_555
F8 P1 1_555 1_555
F9 P1 1_555 1_555
F10 P1 1_555 1_555
N2C Ag1 1_555 1_555
N4A Ag1 1_555 1_555
N7A Ag1 1_555 1_555
Ag1C N2 1_555 1_555
Ag1A N4 1_555 1_555
C3 C4 1_555 1_555
C5 N6 1_555 1_555
N5 N6 1_555 1_555
N7 Ag1A 1_555 1_555
N8 C10 1_555 1_555

#END
