
#######################################################################
#
#                 Cambridge Crystallographic Data Centre
#                                CCDC 
#
#######################################################################
#
# If this CIF has been generated from an entry in the Cambridge 
# Structural Database, then it will include bibliographic, chemical, 
# crystal, experimental, refinement or atomic coordinate data resulting 
# from the CCDC's data processing and validation procedures.
#
#######################################################################

data_XIZJAS
_symmetry_cell_setting           orthorhombic
_symmetry_space_group_name_H-M   'P 21 21 21'
_symmetry_Int_Tables_number      19
_space_group_name_Hall           'P 2ac 2ab'
loop_
_symmetry_equiv_pos_site_id
_symmetry_equiv_pos_as_xyz
1 x,y,z
2 1/2-x,-y,1/2+z
3 -x,1/2+y,1/2-z
4 1/2+x,1/2-y,-z
_cell_length_a                   5.3295(5)
_cell_length_b                   10.6246(17)
_cell_length_c                   17.877(2)
_cell_angle_alpha                90
_cell_angle_beta                 90
_cell_angle_gamma                90
_cell_volume                     1012.26
loop_
_atom_site_label
_atom_site_type_symbol
_atom_site_fract_x
_atom_site_fract_y
_atom_site_fract_z
Zn1 Zn 0.59296(12) 0.30534(6) 0.40577(3)
P1 P 0.0925(3) 0.15212(11) 0.40746(8)
H1 H 0.151(8) 0.031(4) 0.389(2)
O1 O 0.2816(7) 0.2349(4) 0.36668(19)
O2 O 0.1200(8) 0.1580(4) 0.49023(18)
O3 O -0.1695(6) 0.1753(4) 0.3785(2)
N1 N 0.6935(8) 0.4672(4) 0.3561(2)
N2 N 0.7276(9) 0.6268(4) 0.2772(2)
H2 H 0.6974 0.6748 0.2395
C1 C 0.8831(11) 0.5470(5) 0.3818(3)
C2 C 0.9112(13) 0.6471(5) 0.3318(3)
C3 C 0.6058(12) 0.5186(5) 0.2938(3)
C4 C 1.0452(11) 0.5401(6) 0.4426(3)
H3 H 1.0365 0.4728 0.4758
C5 C 1.2169(12) 0.6334(7) 0.4527(4)
H4 H 1.3241 0.6302 0.4937
C6 C 1.2347(11) 0.7338(6) 0.4027(4)
H5 H 1.3548 0.7958 0.4111
C7 C 1.0803(14) 0.7439(6) 0.3416(3)
H6 H 1.0892 0.8117 0.3088
C8 C 0.4046(12) 0.4667(5) 0.2465(3)
H7 H 0.4655 0.3938 0.2205
H8 H 0.3526 0.5290 0.2108
H9 H 0.2644 0.4436 0.2773
Zn1C Zn 0.09296(12) 0.19466(6) 0.59423(3)
Zn1_2 Zn -0.40704(12) 0.30534(6) 0.40577(3)
O2C O 0.6200(8) 0.3420(4) 0.50977(18)
O3_2 O 0.8305(6) 0.1753(4) 0.3785(2)
loop_
_geom_bond_atom_site_label_1
_geom_bond_atom_site_label_2
_geom_bond_site_symmetry_1
_geom_bond_site_symmetry_2
Zn1 O1 1_555 1_555
P1 H1 1_555 1_555
O1 P1 1_555 1_555
O2 P1 1_555 1_555
O3 P1 1_555 1_555
N1 Zn1 1_555 1_555
N2 H2 1_555 1_555
C1 N1 1_555 1_555
C2 N2 1_555 1_555
C3 N1 1_555 1_555
C4 C1 1_555 1_555
H3 C4 1_555 1_555
C5 C4 1_555 1_555
H4 C5 1_555 1_555
C6 C5 1_555 1_555
H5 C6 1_555 1_555
C7 C2 1_555 1_555
H6 C7 1_555 1_555
C8 C3 1_555 1_555
H7 C8 1_555 1_555
H8 C8 1_555 1_555
H9 C8 1_555 1_555
Zn1C O2 1_555 1_555
Zn1_2 O3 1_555 1_555
O2C Zn1 1_555 1_555
O3_2 Zn1 1_555 1_555
N2 C3 1_555 1_555
C1 C2 1_555 1_555
C6 C7 1_555 1_555

#END
