
#######################################################################
#
#                 Cambridge Crystallographic Data Centre
#                                CCDC 
#
#######################################################################
#
# If this CIF has been generated from an entry in the Cambridge 
# Structural Database, then it will include bibliographic, chemical, 
# crystal, experimental, refinement or atomic coordinate data resulting 
# from the CCDC's data processing and validation procedures.
#
#######################################################################

data_XIZKEX
_symmetry_cell_setting           monoclinic
_symmetry_space_group_name_H-M   'P 21/n'
_symmetry_Int_Tables_number      14
_space_group_name_Hall           '-P 2yn'
loop_
_symmetry_equiv_pos_site_id
_symmetry_equiv_pos_as_xyz
1 x,y,z
2 1/2-x,1/2+y,1/2-z
3 -x,-y,-z
4 1/2+x,1/2-y,1/2+z
_cell_length_a                   12.3430(12)
_cell_length_b                   16.1270(15)
_cell_length_c                   18.7640(18)
_cell_angle_alpha                90
_cell_angle_beta                 98.296(2)
_cell_angle_gamma                90
_cell_volume                     3695.99
loop_
_atom_site_label
_atom_site_type_symbol
_atom_site_fract_x
_atom_site_fract_y
_atom_site_fract_z
C14 C 0.386(2) 0.253(2) 0.8722(17)
H12 H 0.3577 0.3030 0.8913
H13 H 0.3408 0.2070 0.8831
C15 C 0.378(3) 0.261(3) 0.795(2)
H14 H 0.3029 0.2667 0.7747
H15 H 0.4083 0.2122 0.7758
H16 H 0.4186 0.3088 0.7837
C16 C 0.486(3) 0.359(2) 0.982(2)
H17 H 0.5331 0.3811 1.0229
H18 H 0.4173 0.3438 0.9953
H19 H 0.4751 0.4012 0.9449
C17 C 0.537(2) 0.288(2) 0.955(2)
H20 H 0.6028 0.3089 0.9376
H21 H 0.5624 0.2544 0.9966
C18 C 0.555(4) 0.162(3) 0.895(3)
H22 H 0.6168 0.1562 0.9330
H23 H 0.5838 0.1679 0.8501
C19 C 0.492(3) 0.082(3) 0.892(2)
H24 H 0.5419 0.0363 0.8922
H25 H 0.4408 0.0807 0.8480
H26 H 0.4533 0.0784 0.9323
N7 N 0.496(2) 0.2394(19) 0.9083(19)
O3 O 0.143(3) 0.129(3) 0.348(3)
Si1 Si 0.0000 1.0000 1.0000
Cu1 Cu 0.3006(2) 1.30177(16) 1.14859(15)
W1 W 0.21194(5) 0.93689(4) 0.90228(3)
W2 W 0.04714(5) 1.15882(3) 1.13013(3)
W3 W 0.12526(5) 0.80486(3) 1.03342(4)
W4 W 0.17265(5) 0.96291(4) 1.16522(3)
W5 W 0.25902(5) 1.09482(4) 1.03397(3)
W6 W -0.08615(6) 0.86732(4) 1.13007(3)
F1 F 0.5535(9) 0.8988(6) 1.3882(7)
F2 F 0.8934(13) 0.7871(7) 1.3573(8)
C1 C 0.2293(18) 1.4540(12) 1.0761(12)
H1 H 0.2662 1.4865 1.1128
C2 C 0.1683(14) 1.3503(9) 1.0164(9)
H2 H 0.1521 1.2964 1.0007
C3 C 0.5529(12) 1.0765(9) 1.4140(8)
H3 H 0.5093 1.1267 1.4082
H4 H 0.5038 1.0303 1.4179
C4 C 0.6086(14) 1.0644(9) 1.3484(9)
C5 C 0.5217(13) 1.0495(11) 1.2796(8)
H5 H 0.5593 1.0392 1.2386
H6 H 0.4787 1.0007 1.2870
C6 C 0.4487(15) 1.1731(12) 1.2132(10)
H7 H 0.4971 1.1759 1.1796
C7 C 0.3203(16) 1.1970(14) 1.2729(11)
H8 H 0.2602 1.2223 1.2885
C8 C 0.6874(14) 0.9857(9) 1.3516(8)
C9 C 0.7906(13) 0.9934(9) 1.3320(9)
H9 H 0.8135 1.0448 1.3174
C10 C 0.8604(18) 0.9263(12) 1.3334(11)
H10 H 0.9303 0.9315 1.3208
C11 C 0.8231(18) 0.8535(13) 1.3538(12)
C12 C 0.7242(18) 0.8418(12) 1.3746(12)
H11 H 0.7040 0.7904 1.3908
C13 C 0.6546(14) 0.9079(10) 1.3711(9)
N1 N 0.3633(14) 1.2251(11) 1.2176(8)
N2 N 0.4507(10) 1.1184(8) 1.2646(6)
N3 N 0.3659(12) 1.1325(11) 1.3040(8)
N4 N 0.2325(12) 1.3715(9) 1.0784(8)
N5 N 0.6331(10) 1.0827(7) 1.4825(7)
N6 N 0.1698(14) 1.4876(9) 1.0178(10)
O1 O 0.1877(10) 0.7112(7) 1.0493(8)
O2 O 0.1093(12) 1.0659(10) 1.1830(9)
O4 O 0.0046(12) 0.7915(10) 1.0849(9)
O5 O 0.1972(13) 0.8683(11) 1.1122(10)
O6 O 0.0414(13) 0.9130(11) 1.1815(10)
O7 O 0.2558(10) 0.9444(8) 1.2421(6)
O8 O -0.0246(10) 1.2174(8) 1.0490(7)
O9 O 0.2190(10) 0.8507(8) 0.9742(8)
O10 O 0.0730(10) 1.2345(7) 1.1921(6)
O11 O -0.0902(11) 1.1184(10) 1.1480(7)
O12 O 0.3131(10) 0.9094(9) 0.8569(7)
O13 O -0.1595(12) 0.9648(8) 1.1485(7)
O14 O -0.1273(11) 0.8007(7) 1.1900(6)
O15 O 0.1964(11) 1.1513(9) 0.9495(9)
O16 O 0.3840(10) 1.1412(8) 1.0494(8)
O17 O 0.2718(12) 1.0207(10) 1.1125(9)
O18 O 0.2941(12) 1.0064(10) 0.9742(8)
O19 O 0.1759(12) 1.1651(10) 1.0852(9)
O20 O 0.0894(13) 1.0436(10) 1.0623(9)
O21 O 0.0537(13) 0.9273(11) 0.9627(10)
O22 O -0.0399(14) 1.0695(11) 0.9397(10)
O23 O 0.1058(14) 1.0305(11) 0.9645(10)
O24 O 0.6753(8) 1.1334(7) 1.3383(6)
H27 H 0.6374 1.1753 1.3324
Cu1C Cu 0.8006(2) 1.19823(16) 1.64859(15)
Cu1B Cu -0.3006(2) 0.69823(16) 0.85141(15)
Cu1C_2 Cu -0.1994(2) 1.19823(16) 0.64859(15)
W1B W -0.21194(5) 1.06311(4) 1.09772(3)
W2B W -0.04714(5) 0.84118(3) 0.86987(3)
W3B W -0.12526(5) 1.19514(3) 0.96658(4)
W4B W -0.17265(5) 1.03709(4) 0.83478(3)
W5B W -0.25902(5) 0.90518(4) 0.96603(3)
W6B W 0.08615(6) 1.13268(4) 0.86993(3)
F1C F 0.0535(9) 1.6012(6) 0.8882(7)
F2C F 0.3934(13) 1.7129(7) 0.8573(8)
C1C C 0.7293(18) 1.0460(12) 1.5761(12)
H1C H 0.7662 1.0135 1.6128
C2C C 0.6683(14) 1.1497(9) 1.5164(9)
H2C H 0.6521 1.2036 1.5007
C3C C 0.0529(12) 1.4235(9) 0.9140(8)
H3C H 0.0093 1.3733 0.9082
H4C H 0.0038 1.4697 0.9179
C4C C 0.1086(14) 1.4356(9) 0.8484(9)
C5C C 0.0217(13) 1.4505(11) 0.7796(8)
H5C H 0.0593 1.4608 0.7386
H6C H -0.0213 1.4993 0.7870
C6C C -0.0513(15) 1.3269(12) 0.7132(10)
H7C H -0.0029 1.3241 0.6796
C7C C -0.1797(16) 1.3030(14) 0.7729(11)
H8C H -0.2398 1.2777 0.7885
C8C C 0.1874(14) 1.5143(9) 0.8516(8)
C9C C 0.2906(13) 1.5066(9) 0.8320(9)
H9C H 0.3135 1.4552 0.8174
C10C C 0.3604(18) 1.5737(12) 0.8334(11)
H10C H 0.4303 1.5685 0.8208
C11C C 0.3231(18) 1.6465(13) 0.8538(12)
C12C C 0.2242(18) 1.6582(12) 0.8746(12)
H11C H 0.2040 1.7096 0.8908
C13C C 0.1546(14) 1.5921(10) 0.8711(9)
N1C N -0.1367(14) 1.2749(11) 0.7176(8)
N2C N -0.0493(10) 1.3816(8) 0.7646(6)
N3C N -0.1341(12) 1.3675(11) 0.8040(8)
N4C N 0.7325(12) 1.1285(9) 1.5784(8)
N4C_2 N -0.2675(12) 1.1285(9) 0.5784(8)
N5C N 0.1331(10) 1.4173(7) 0.9825(7)
N6C N 0.6698(14) 1.0124(9) 1.5178(10)
O1B O -0.1877(10) 1.2888(7) 0.9507(8)
O2B O -0.1093(12) 0.9341(10) 0.8170(9)
O4B O -0.0046(12) 1.2085(10) 0.9151(9)
O5B O -0.1972(13) 1.1317(11) 0.8878(10)
O6B O -0.0414(13) 1.0870(11) 0.8185(10)
O7B O -0.2558(10) 1.0556(8) 0.7579(6)
O8B O 0.0246(10) 0.7826(8) 0.9510(7)
O9B O -0.2190(10) 1.1493(8) 1.0258(8)
O10B O -0.0730(10) 0.7655(7) 0.8079(6)
O11B O 0.0902(11) 0.8816(10) 0.8520(7)
O12B O -0.3131(10) 1.0906(9) 1.1431(7)
O13B O 0.1595(12) 1.0352(8) 0.8515(7)
O14B O 0.1273(11) 1.1993(7) 0.8100(6)
O15B O -0.1964(11) 0.8487(9) 1.0505(9)
O17B O -0.2718(12) 0.9793(10) 0.8875(9)
O18B O -0.2941(12) 0.9936(10) 1.0258(8)
O19B O -0.1759(12) 0.8349(10) 0.9148(9)
O19C O -0.3241(12) 1.3349(10) 0.5852(9)
O20B O -0.0894(13) 0.9564(10) 0.9377(9)
O21B O -0.0537(13) 1.0727(11) 1.0373(10)
O22B O 0.0399(14) 0.9305(11) 1.0603(10)
O23B O -0.1058(14) 0.9695(11) 1.0355(10)
O24C O 0.1753(8) 1.3666(7) 0.8383(6)
loop_
_geom_bond_atom_site_label_1
_geom_bond_atom_site_label_2
_geom_bond_site_symmetry_1
_geom_bond_site_symmetry_2
Si1 O20 1_555 1_555
Cu1 N1 1_555 1_555
W1 O9 1_555 1_555
W2 O2 1_555 1_555
W3 O1 1_555 1_555
W4 O2 1_555 1_555
W5 O15 1_555 1_555
W6 O4 1_555 1_555
F1 C13 1_555 1_555
F2 C11 1_555 1_555
C1 H1 1_555 1_555
C2 H2 1_555 1_555
C3 H3 1_555 1_555
H4 C3 1_555 1_555
C4 C3 1_555 1_555
C5 C4 1_555 1_555
H5 C5 1_555 1_555
H6 C5 1_555 1_555
C6 H7 1_555 1_555
C7 H8 1_555 1_555
C8 C4 1_555 1_555
C9 C8 1_555 1_555
H9 C9 1_555 1_555
C10 C9 1_555 1_555
H10 C10 1_555 1_555
C11 C10 1_555 1_555
C12 C11 1_555 1_555
H11 C12 1_555 1_555
C13 C8 1_555 1_555
C14 H12 1_555 1_555
H13 C14 1_555 1_555
C15 C14 1_555 1_555
H14 C15 1_555 1_555
H15 C15 1_555 1_555
H16 C15 1_555 1_555
C16 H17 1_555 1_555
H18 C16 1_555 1_555
H19 C16 1_555 1_555
C17 C16 1_555 1_555
H20 C17 1_555 1_555
H21 C17 1_555 1_555
C18 H22 1_555 1_555
H23 C18 1_555 1_555
C19 C18 1_555 1_555
H24 C19 1_555 1_555
H25 C19 1_555 1_555
H26 C19 1_555 1_555
N1 C6 1_555 1_555
N2 C5 1_555 1_555
N3 C7 1_555 1_555
N4 Cu1 1_555 1_555
N5 C3 1_555 1_555
N6 C1 1_555 1_555
N7 C14 1_555 1_555
O4 W3 1_555 1_555
O5 W3 1_555 1_555
O6 W4 1_555 1_555
O7 W4 1_555 1_555
O8 W2 1_555 1_555
O9 W3 1_555 1_555
O10 W2 1_555 1_555
O11 W2 1_555 1_555
O12 W1 1_555 1_555
O13 W6 1_555 1_555
O14 W6 1_555 1_555
O15 W6B 1_555 1_555
O16 W5 1_555 1_555
O17 W4 1_555 1_555
O18 W1 1_555 1_555
O19 Cu1 1_555 1_555
O20 W2 1_555 1_555
O21 Si1 1_555 1_555
O22 Si1 1_555 1_555
O23 Si1 1_555 1_555
O24 C4 1_555 1_555
H27 O24 1_555 1_555
Cu1C N4C 1_555 1_555
Cu1B O19B 1_555 1_555
Cu1C_2 N1C 1_555 1_555
W1B O11 1_555 1_555
W2B O21 1_555 1_555
W3B O8 1_555 1_555
W4B O22 1_555 1_555
W5B O15B 1_555 1_555
W6B O22 1_555 1_555
F1C C13C 1_555 1_555
F2C C11C 1_555 1_555
C1C H1C 1_555 1_555
C2C N5 1_555 1_555
H2C C2C 1_555 1_555
C3C H3C 1_555 1_555
H4C C3C 1_555 1_555
C4C C3C 1_555 1_555
C5C C4C 1_555 1_555
H5C C5C 1_555 1_555
H6C C5C 1_555 1_555
C6C H7C 1_555 1_555
C7C H8C 1_555 1_555
C8C C4C 1_555 1_555
C9C C8C 1_555 1_555
H9C C9C 1_555 1_555
C10C C9C 1_555 1_555
H10C C10C 1_555 1_555
C11C C10C 1_555 1_555
C12C C11C 1_555 1_555
H11C C12C 1_555 1_555
C13C C8C 1_555 1_555
N1C C6C 1_555 1_555
N2C C5C 1_555 1_555
N3C C7C 1_555 1_555
N4C C1C 1_555 1_555
N4C_2 Cu1C_2 1_555 1_555
N5C C2 1_555 1_555
N6C N5 1_555 1_555
O1B W3B 1_555 1_555
O2B W2B 1_555 1_555
O4B W3B 1_555 1_555
O5B W3B 1_555 1_555
O6B W4B 1_555 1_555
O7B W4B 1_555 1_555
O8B W3 1_555 1_555
O9B W1B 1_555 1_555
O10B W2B 1_555 1_555
O11B W1 1_555 1_555
O12B W1B 1_555 1_555
O13B W1 1_555 1_555
O14B W6B 1_555 1_555
O15B W6 1_555 1_555
O17B W4B 1_555 1_555
O18B W1B 1_555 1_555
O19B W2B 1_555 1_555
O19C Cu1C_2 1_555 1_555
O20B Si1 1_555 1_555
O21B Si1 1_555 1_555
O22B Si1 1_555 1_555
O23B Si1 1_555 1_555
O24C C4C 1_555 1_555
W1 O21 1_555 1_555
W1 O23 1_555 1_555
W2 O19 1_555 1_555
W2 O21B 1_555 1_555
W3 O22B 1_555 1_555
W4 O5 1_555 1_555
W4 O20 1_555 1_555
W4 O22B 1_555 1_555
W5 O17 1_555 1_555
W5 O18 1_555 1_555
W5 O19 1_555 1_555
W5 O20 1_555 1_555
W5 O23 1_555 1_555
W6 O6 1_555 1_555
W6 O22B 1_555 1_555
W6 O23B 1_555 1_555
C1 N4 1_555 1_555
C2 N4 1_555 1_555
C6 N2 1_555 1_555
C7 N1 1_555 1_555
C12 C13 1_555 1_555
C17 N7 1_555 1_555
C18 N7 1_555 1_555
N2 N3 1_555 1_555
N6 N5C 1_555 1_555
O13 W1B 1_555 1_555
O21 O23 1_555 1_555
O22 W3B 1_555 1_555
O23 W6B 1_555 1_555
W1B O21B 1_555 1_555
W1B O23B 1_555 1_555
W2B O8B 1_555 1_555
W2B O11B 1_555 1_555
W2B O20B 1_555 1_555
W3B O9B 1_555 1_555
W4B O2B 1_555 1_555
W4B O5B 1_555 1_555
W4B O20B 1_555 1_555
W5B O18B 1_555 1_555
W5B O19B 1_555 1_555
W6B O4B 1_555 1_555
W6B O6B 1_555 1_555
W6B O13B 1_555 1_555
C1C N6C 1_555 1_555
C2C N4C 1_555 1_555
C3C N5C 1_555 1_555
C6C N2C 1_555 1_555
C7C N1C 1_555 1_555
C12C C13C 1_555 1_555
N2C N3C 1_555 1_555
O21B O23B 1_555 1_555

#END
