
#######################################################################
#
#                 Cambridge Crystallographic Data Centre
#                                CCDC 
#
#######################################################################
#
# If this CIF has been generated from an entry in the Cambridge 
# Structural Database, then it will include bibliographic, chemical, 
# crystal, experimental, refinement or atomic coordinate data resulting 
# from the CCDC's data processing and validation procedures.
#
#######################################################################

data_XIZKIB
_symmetry_cell_setting           monoclinic
_symmetry_space_group_name_H-M   'P 21/c'
_symmetry_Int_Tables_number      14
_space_group_name_Hall           '-P 2ybc'
loop_
_symmetry_equiv_pos_site_id
_symmetry_equiv_pos_as_xyz
1 x,y,z
2 -x,1/2+y,1/2-z
3 -x,-y,-z
4 x,1/2-y,1/2+z
_cell_length_a                   20.6860(12)
_cell_length_b                   11.6430(7)
_cell_length_c                   20.7870(12)
_cell_angle_alpha                90
_cell_angle_beta                 116.2220(10)
_cell_angle_gamma                90
_cell_volume                     4491.26
loop_
_atom_site_label
_atom_site_type_symbol
_atom_site_fract_x
_atom_site_fract_y
_atom_site_fract_z
Cu1 Cu 0.53986(8) 0.44624(13) 0.82277(8)
Cu2 Cu 0.15770(8) 0.50204(11) 0.31784(9)
Si1 Si 0.5000 0.5000 0.5000
Mo1 Mo 0.33419(4) 0.55547(6) 0.50976(4)
Mo2 Mo 0.50073(5) 0.61545(6) 0.65791(4)
Mo3 Mo 0.33469(4) 0.42048(6) 0.35520(4)
Mo4 Mo 0.55739(5) 0.21485(6) 0.49877(4)
Mo5 Mo 0.39883(4) 0.26659(7) 0.52069(4)
Mo6 Mo 0.57078(5) 0.33377(8) 0.66075(4)
C1 C 0.3884(7) 0.3996(10) 0.7242(6)
H1 H 0.3981 0.3908 0.6849
C2 C 0.4019(6) 0.4327(9) 0.8288(6)
H2 H 0.4206 0.4517 0.8772
C3 C 0.2742(6) 0.4034(9) 0.8074(6)
H3 H 0.2369 0.3528 0.7748
H4 H 0.2907 0.3728 0.8555
C4 C 0.2433(7) 0.5190(10) 0.8043(9)
C5 C 0.2401(9) 0.5968(10) 0.7490(9)
H5 H 0.2161 0.5587 0.7029
H6 H 0.2888 0.6149 0.7568
C6 C 0.1159(7) 0.8159(11) 0.7079(7)
H7 H 0.0715 0.8488 0.6788
C7 C 0.2183(6) 0.7912(9) 0.7904(8)
H8 H 0.2619 0.7998 0.8311
C8 C 0.1751(6) 0.5165(9) 0.8151(6)
C9 C 0.1714(8) 0.5824(13) 0.8683(7)
H9 H 0.2126 0.6218 0.8991
C10 C 0.1120(9) 0.5932(15) 0.8785(8)
H10 H 0.1120 0.6395 0.9149
C11 C 0.0522(7) 0.5350(13) 0.8344(8)
C12 C 0.0518(6) 0.4678(11) 0.7835(7)
H11 H 0.0108 0.4267 0.7540
C13 C 0.1138(8) 0.4605(11) 0.7756(7)
C14 C 0.6927(8) 0.3953(11) 0.9025(8)
H12 H 0.6839 0.3269 0.9204
C15 C 0.6756(7) 0.5484(11) 0.8472(5)
H13 H 0.6538 0.6120 0.8187
C16 C 0.8045(7) 0.6026(12) 0.8834(6)
H14 H 0.7914 0.6360 0.8365
H15 H 0.8468 0.5550 0.8955
C17 C 0.8226(6) 0.6993(10) 0.9392(5)
C18 C 0.8332(5) 0.6514(9) 1.0104(5)
H16 H 0.7878 0.6207 1.0058
H17 H 0.8675 0.5887 1.0236
C19 C 0.8232(5) 0.8146(9) 1.0837(5)
H18 H 0.7733 0.8219 1.0606
C20 C 0.9325(6) 0.8362(9) 1.1515(6)
H19 H 0.9752 0.8652 1.1872
C21 C 0.8904(6) 0.7637(10) 0.9443(5)
C22 C 0.8846(6) 0.8784(11) 0.9240(6)
H20 H 0.8407 0.9164 0.9089
C23 C 0.9442(8) 0.9364(9) 0.9262(7)
H21 H 0.9403 1.0132 0.9126
C24 C 1.0098(6) 0.8796(13) 0.9487(8)
C25 C 1.0156(6) 0.7649(13) 0.9690(7)
H22 H 1.0594 0.7269 0.9840
C26 C 0.9559(8) 0.7069(8) 0.9667(6)
O1 O 0.4304(6) 0.4612(8) 0.4826(5)
O2 O 0.4558(5) 0.5736(8) 0.5269(5)
O3 O 0.4513(5) 0.4872(8) 0.4156(5)
O4 O 0.4978(5) 0.3729(8) 0.5284(5)
O5 O 0.3496(4) 0.3904(5) 0.5330(3)
O6 O 0.3002(3) 0.5093(5) 0.4137(3)
O7 O 0.3573(5) 0.7001(6) 0.4897(4)
O8 O 0.4046(5) 0.5752(6) 0.6086(3)
O9 O 0.4802(5) 0.7483(6) 0.5997(3)
O10 O 0.5936(5) 0.2395(8) 0.6001(5)
O11 O 0.6478(6) 0.4305(6) 0.6748(7)
O12 O 0.3491(3) 0.2993(5) 0.4179(3)
O13 O 0.4724(4) 0.2746(10) 0.6118(4)
O14 O 0.5276(5) 0.4621(6) 0.6871(6)
O15 O 0.5068(4) 0.6699(6) 0.7343(3)
O16 O 0.6014(6) 0.6401(7) 0.6756(7)
O17 O 0.4661(5) 0.1890(8) 0.4919(5)
O18 O 0.5856(4) 0.0781(6) 0.4978(5)
O19 O 0.2542(4) 0.3858(7) 0.2881(3)
O20 O 0.3499(5) 0.1565(6) 0.5236(5)
O21 O 0.6064(3) 0.2571(5) 0.7356(3)
O22 O 0.2579(5) 0.5771(8) 0.5153(5)
O23 O 0.3002(6) 0.5813(12) 0.8688(6)
H23 H 0.3077 0.5457 0.9055
O24 O 0.7649(5) 0.7759(8) 0.9188(4)
H24 H 0.7573 0.8054 0.8803
N1 N 0.3353(5) 0.4046(7) 0.7883(4)
N2 N 0.3244(5) 0.3836(8) 0.7200(5)
N3 N 0.4399(5) 0.4301(7) 0.7897(4)
N4 N 0.2020(5) 0.7038(7) 0.7466(6)
N5 N 0.1360(7) 0.7174(9) 0.6924(6)
N6 N 0.1639(5) 0.6332(7) 0.2689(5)
N7 N 0.6402(5) 0.4630(8) 0.8591(5)
N8 N 0.7454(5) 0.5316(9) 0.8807(4)
N9 N 0.7592(6) 0.4320(10) 0.9187(6)
N10 N 0.8593(4) 0.7384(6) 1.0675(4)
N11 N 0.9305(4) 0.7510(8) 1.1115(5)
N12 N 0.1337(5) 0.3806(7) 0.3629(4)
F1 F 0.1172(5) 0.3843(10) 0.7318(5)
F2 F -0.0102(5) 0.5483(9) 0.8420(6)
F3 F 1.0647(13) 0.942(2) 0.9450(13)
F4 F 0.9619(6) 0.6015(11) 0.9916(6)
Cu1C Cu 0.53986(8) 1.05376(13) 0.32277(8)
Cu1A Cu 0.46014(8) -0.05376(13) 0.67723(8)
Cu1B Cu 0.46014(8) 0.55376(13) 0.17723(8)
Cu2B Cu 0.84230(8) 0.49796(11) 0.68216(9)
Cu2A Cu 0.84230(8) 1.00204(11) 1.18216(9)
Cu2C Cu 0.15770(8) 0.99796(11) 0.81784(9)
Mo1B Mo 0.66581(4) 0.44453(6) 0.49024(4)
Mo2B Mo 0.49927(5) 0.38455(6) 0.34209(4)
Mo3B Mo 0.66531(4) 0.57952(6) 0.64480(4)
Mo4B Mo 0.44261(5) 0.78515(6) 0.50123(4)
Mo5B Mo 0.60117(4) 0.73341(7) 0.47931(4)
Mo6B Mo 0.42922(5) 0.66623(8) 0.33925(4)
C1C C 0.3884(7) 1.1004(10) 0.2242(6)
H1C H 0.3981 1.1092 0.1849
C2C C 0.4019(6) 1.0673(9) 0.3288(6)
H2C H 0.4206 1.0483 0.3772
C3C C 0.2742(6) 1.0966(9) 0.3074(6)
H3C H 0.2369 1.1472 0.2748
H4C H 0.2907 1.1272 0.3555
C4C C 0.2433(7) 0.9810(10) 0.3043(9)
C5C C 0.2401(9) 0.9032(10) 0.2490(9)
H5C H 0.2161 0.9413 0.2029
H6C H 0.2888 0.8851 0.2568
C6C C 0.1159(7) 0.6841(11) 0.2079(7)
H7C H 0.0715 0.6512 0.1788
C7C C 0.2183(6) 0.7088(9) 0.2904(8)
H8C H 0.2619 0.7002 0.3311
C8C C 0.1751(6) 0.9835(9) 0.3151(6)
C9C C 0.1714(8) 0.9176(13) 0.3683(7)
H9C H 0.2126 0.8782 0.3991
C10C C 0.1120(9) 0.9068(15) 0.3785(8)
H10C H 0.1120 0.8605 0.4149
C11C C 0.0522(7) 0.9650(13) 0.3344(8)
C12C C 0.0518(6) 1.0322(11) 0.2835(7)
H11C H 0.0108 1.0733 0.2540
C13C C 0.1138(8) 1.0395(11) 0.2756(7)
C14A C 0.3073(8) -0.1047(11) 0.5975(8)
H12A H 0.3161 -0.1731 0.5796
C15A C 0.3244(7) 0.0484(11) 0.6528(5)
H13A H 0.3462 0.1120 0.6813
C16A C 0.1955(7) 0.1026(12) 0.6166(6)
H14A H 0.2086 0.1360 0.6635
H15A H 0.1532 0.0550 0.6045
C17A C 0.1774(6) 0.1993(10) 0.5608(5)
C18A C 0.1668(5) 0.1514(9) 0.4896(5)
H16A H 0.2122 0.1207 0.4942
H17A H 0.1325 0.0887 0.4764
C19A C 0.1768(5) 0.3146(9) 0.4163(5)
H18A H 0.2267 0.3219 0.4394
C20A C 0.0675(6) 0.3362(9) 0.3485(6)
H19A H 0.0248 0.3652 0.3128
C21A C 0.1096(6) 0.2637(10) 0.5557(5)
C22A C 0.1154(6) 0.3784(11) 0.5760(6)
H20A H 0.1593 0.4164 0.5911
C23A C 0.0558(8) 0.4364(9) 0.5738(7)
H21A H 0.0597 0.5132 0.5874
C24A C -0.0098(6) 0.3796(13) 0.5513(8)
C25A C -0.0156(6) 0.2649(13) 0.5310(7)
H22A H -0.0594 0.2269 0.5160
C26A C 0.0441(8) 0.2069(8) 0.5333(6)
O1B O 0.5696(6) 0.5388(8) 0.5174(5)
O2B O 0.5442(5) 0.4264(8) 0.4731(5)
O3B O 0.5487(5) 0.5128(8) 0.5844(5)
O4B O 0.5022(5) 0.6271(8) 0.4716(5)
O5B O 0.6504(4) 0.6096(5) 0.4670(3)
O6B O 0.6998(3) 0.4907(5) 0.5863(3)
O7B O 0.6427(5) 0.2999(6) 0.5103(4)
O8B O 0.5954(5) 0.4248(6) 0.3914(3)
O9B O 0.5198(5) 0.2517(6) 0.4003(3)
O10B O 0.4064(5) 0.7605(8) 0.3999(5)
O11B O 0.3522(6) 0.5695(6) 0.3252(7)
O12B O 0.6509(3) 0.7007(5) 0.5821(3)
O13B O 0.5276(4) 0.7254(10) 0.3882(4)
O14B O 0.4724(5) 0.5379(6) 0.3129(6)
O14C O 0.5276(5) 1.0379(6) 0.1871(6)
O15B O 0.4932(4) 0.3301(6) 0.2657(3)
O16B O 0.3986(6) 0.3599(7) 0.3244(7)
O17B O 0.5339(5) 0.8110(8) 0.5081(5)
O19B O 0.7458(4) 0.6142(7) 0.7119(3)
O20B O 0.6501(5) 0.8435(6) 0.4764(5)
O21B O 0.3936(3) 0.7429(5) 0.2644(3)
O22B O 0.7421(5) 0.4229(8) 0.4847(5)
O23C O 0.3002(6) 0.9187(12) 0.3688(6)
O24A O 0.2351(5) 0.2759(8) 0.5812(4)
N1C N 0.3353(5) 1.0954(7) 0.2883(4)
N2C N 0.3244(5) 1.1164(8) 0.2200(5)
N3C N 0.4399(5) 1.0699(7) 0.2897(4)
N3B N 0.5601(5) 0.5699(7) 0.2103(4)
N4C N 0.2020(5) 0.7962(7) 0.2466(6)
N5C N 0.1360(7) 0.7826(9) 0.1924(6)
N6C N 0.1639(5) 0.8668(7) 0.7689(5)
N6B N 0.8361(5) 0.3668(7) 0.7311(5)
N7A N 0.3598(5) -0.0370(8) 0.6409(5)
N7C N 0.6402(5) 1.0370(8) 0.3591(5)
N7B N 0.3598(5) 0.5370(8) 0.1409(5)
N8A N 0.2546(5) 0.0316(9) 0.6193(4)
N9A N 0.2408(6) -0.0680(10) 0.5813(6)
N10A N 0.1407(4) 0.2384(6) 0.4325(4)
N11A N 0.0695(4) 0.2510(8) 0.3885(5)
N12A N 0.8663(5) 0.8806(7) 1.1371(4)
N12B N 0.8663(5) 0.6194(7) 0.6371(4)
F1C F 0.1172(5) 1.1157(10) 0.2318(5)
F2C F -0.0102(5) 0.9517(9) 0.3420(6)
F3A F -0.0647(13) 0.442(2) 0.5550(13)
F4A F 0.0381(6) 0.1015(11) 0.5084(6)
loop_
_geom_bond_atom_site_label_1
_geom_bond_atom_site_label_2
_geom_bond_site_symmetry_1
_geom_bond_site_symmetry_2
Cu1 O14 1_555 1_555
Cu2 O6 1_555 1_555
Si1 O1 1_555 1_555
Mo1 O2 1_555 1_555
Mo2 O8 1_555 1_555
Mo3 O3 1_555 1_555
Mo4 O4 1_555 1_555
Mo5 O4 1_555 1_555
Mo6 O10 1_555 1_555
C1 H1 1_555 1_555
C2 H2 1_555 1_555
C3 H3 1_555 1_555
H4 C3 1_555 1_555
C4 C3 1_555 1_555
C5 C4 1_555 1_555
H5 C5 1_555 1_555
H6 C5 1_555 1_555
C6 H7 1_555 1_555
C7 H8 1_555 1_555
C8 C4 1_555 1_555
C9 C8 1_555 1_555
H9 C9 1_555 1_555
C10 C9 1_555 1_555
H10 C10 1_555 1_555
C11 C10 1_555 1_555
C12 C11 1_555 1_555
H11 C12 1_555 1_555
C13 C8 1_555 1_555
C14 H12 1_555 1_555
C15 H13 1_555 1_555
C16 H14 1_555 1_555
H15 C16 1_555 1_555
C17 C16 1_555 1_555
C18 C17 1_555 1_555
H16 C18 1_555 1_555
H17 C18 1_555 1_555
C19 H18 1_555 1_555
C20 H19 1_555 1_555
C21 C17 1_555 1_555
C22 C21 1_555 1_555
H20 C22 1_555 1_555
C23 C22 1_555 1_555
H21 C23 1_555 1_555
C24 C23 1_555 1_555
C25 C24 1_555 1_555
H22 C25 1_555 1_555
C26 C21 1_555 1_555
O1 O2 1_555 1_555
O2 Si1 1_555 1_555
O3 Si1 1_555 1_555
O4 Si1 1_555 1_555
O5 Mo1 1_555 1_555
O6 Mo1 1_555 1_555
O7 Mo1 1_555 1_555
O8 Mo1 1_555 1_555
O9 Mo2 1_555 1_555
O10 Mo4 1_555 1_555
O11 Mo6 1_555 1_555
O12 Mo3 1_555 1_555
O13 Mo5 1_555 1_555
O14 Mo2 1_555 1_555
O15 Mo2 1_555 1_555
O16 Mo2 1_555 1_555
O17 Mo4 1_555 1_555
O18 Mo4 1_555 1_555
O19 Cu2 1_555 1_555
O20 Mo5 1_555 1_555
O21 Mo6 1_555 1_555
O22 Mo1 1_555 1_555
O23 C4 1_555 1_555
H23 O23 1_555 1_555
O24 C17 1_555 1_555
H24 O24 1_555 1_555
N1 C2 1_555 1_555
N2 C1 1_555 1_555
N3 Cu1 1_555 1_555
N4 C5 1_555 1_555
N5 C6 1_555 1_555
N6 Cu2 1_555 1_555
N7 Cu1 1_555 1_555
N8 C15 1_555 1_555
N9 C14 1_555 1_555
N10 C18 1_555 1_555
N11 C20 1_555 1_555
N12 Cu2 1_555 1_555
F1 C13 1_555 1_555
F2 C11 1_555 1_555
F3 C24 1_555 1_555
F4 C26 1_555 1_555
Cu1C O14C 1_555 1_555
Cu1A N7A 1_555 1_555
Cu1B O14B 1_555 1_555
Cu2B O6B 1_555 1_555
Cu2A N12A 1_555 1_555
Cu2C N6C 1_555 1_555
Mo1B O2B 1_555 1_555
Mo2B O8B 1_555 1_555
Mo3B O11 1_555 1_555
Mo4B O7 1_555 1_555
Mo5B O4B 1_555 1_555
Mo6B O10B 1_555 1_555
C1C H1C 1_555 1_555
C2C H2C 1_555 1_555
C3C H3C 1_555 1_555
H4C C3C 1_555 1_555
C4C C3C 1_555 1_555
C5C C4C 1_555 1_555
H5C C5C 1_555 1_555
H6C C5C 1_555 1_555
C6C N6 1_555 1_555
H7C C6C 1_555 1_555
C7C N6 1_555 1_555
H8C C7C 1_555 1_555
C8C C4C 1_555 1_555
C9C C8C 1_555 1_555
H9C C9C 1_555 1_555
C10C C9C 1_555 1_555
H10C C10C 1_555 1_555
C11C C10C 1_555 1_555
C12C C11C 1_555 1_555
H11C C12C 1_555 1_555
C13C C8C 1_555 1_555
C14A H12A 1_555 1_555
C15A H13A 1_555 1_555
C16A H14A 1_555 1_555
H15A C16A 1_555 1_555
C17A C16A 1_555 1_555
C18A C17A 1_555 1_555
H16A C18A 1_555 1_555
H17A C18A 1_555 1_555
C19A N12 1_555 1_555
H18A C19A 1_555 1_555
C20A N12 1_555 1_555
H19A C20A 1_555 1_555
C21A C17A 1_555 1_555
C22A C21A 1_555 1_555
H20A C22A 1_555 1_555
C23A C22A 1_555 1_555
H21A C23A 1_555 1_555
C24A C23A 1_555 1_555
C25A C24A 1_555 1_555
H22A C25A 1_555 1_555
C26A C21A 1_555 1_555
O1B Si1 1_555 1_555
O2B Si1 1_555 1_555
O3B Si1 1_555 1_555
O4B Si1 1_555 1_555
O5B Mo1B 1_555 1_555
O6B Mo1B 1_555 1_555
O7B Mo4 1_555 1_555
O8B Mo1B 1_555 1_555
O9B Mo4 1_555 1_555
O10B Mo4B 1_555 1_555
O11B Mo3 1_555 1_555
O12B Mo3B 1_555 1_555
O13B Mo5B 1_555 1_555
O14B Mo2B 1_555 1_555
O15B Mo2B 1_555 1_555
O16B Mo3 1_555 1_555
O17B Mo4B 1_555 1_555
O19B Cu2B 1_555 1_555
O20B Mo5B 1_555 1_555
O21B Mo6B 1_555 1_555
O22B Mo1B 1_555 1_555
O23C C4C 1_555 1_555
O24A C17A 1_555 1_555
N1C C2C 1_555 1_555
N2C C1C 1_555 1_555
N3C Cu1C 1_555 1_555
N3B Cu1B 1_555 1_555
N4C C5C 1_555 1_555
N5C C6C 1_555 1_555
N6C C6 1_555 1_555
N6B Cu2B 1_555 1_555
N7A C14A 1_555 1_555
N7C Cu1C 1_555 1_555
N7B Cu1B 1_555 1_555
N8A C15A 1_555 1_555
N9A C14A 1_555 1_555
N10A C18A 1_555 1_555
N11A C20A 1_555 1_555
N12A C19 1_555 1_555
N12B Cu2B 1_555 1_555
F1C C13C 1_555 1_555
F2C C11C 1_555 1_555
F3A C24A 1_555 1_555
F4A C26A 1_555 1_555
Mo3 O6 1_555 1_555
Mo3 O19 1_555 1_555
Mo5 O5 1_555 1_555
Mo5 O12 1_555 1_555
Mo5 O17 1_555 1_555
Mo6 O13 1_555 1_555
Mo6 O14 1_555 1_555
C1 N3 1_555 1_555
C2 N3 1_555 1_555
C3 N1 1_555 1_555
C7 N4 1_555 1_555
C7 N6C 1_555 1_555
C12 C13 1_555 1_555
C14 N7 1_555 1_555
C15 N7 1_555 1_555
C16 N8 1_555 1_555
C19 N10 1_555 1_555
C20 N12A 1_555 1_555
C25 C26 1_555 1_555
O1 O3 1_555 1_555
O1 O4 1_555 1_555
O9 Mo4B 1_555 1_555
O16 Mo3B 1_555 1_555
N1 N2 1_555 1_555
N4 N5 1_555 1_555
N8 N9 1_555 1_555
N10 N11 1_555 1_555
Mo1B O7B 1_555 1_555
Mo2B O9B 1_555 1_555
Mo2B O16B 1_555 1_555
Mo3B O3B 1_555 1_555
Mo3B O6B 1_555 1_555
Mo3B O19B 1_555 1_555
Mo4B O4B 1_555 1_555
Mo5B O5B 1_555 1_555
Mo5B O12B 1_555 1_555
Mo5B O17B 1_555 1_555
Mo6B O11B 1_555 1_555
Mo6B O13B 1_555 1_555
Mo6B O14B 1_555 1_555
C1C N3C 1_555 1_555
C2C N3C 1_555 1_555
C3C N1C 1_555 1_555
C7C N4C 1_555 1_555
C12C C13C 1_555 1_555
C15A N7A 1_555 1_555
C16A N8A 1_555 1_555
C19A N10A 1_555 1_555
C25A C26A 1_555 1_555
O1B O2B 1_555 1_555
O1B O3B 1_555 1_555
O1B O4B 1_555 1_555
N1C N2C 1_555 1_555
N4C N5C 1_555 1_555
N8A N9A 1_555 1_555
N10A N11A 1_555 1_555

#END
