
#######################################################################
#
#                 Cambridge Crystallographic Data Centre
#                                CCDC 
#
#######################################################################
#
# If this CIF has been generated from an entry in the Cambridge 
# Structural Database, then it will include bibliographic, chemical, 
# crystal, experimental, refinement or atomic coordinate data resulting 
# from the CCDC's data processing and validation procedures.
#
#######################################################################

data_XIZYOV
_symmetry_cell_setting           monoclinic
_symmetry_space_group_name_H-M   'C 2/c'
_symmetry_Int_Tables_number      15
_space_group_name_Hall           '-C 2yn'
loop_
_symmetry_equiv_pos_site_id
_symmetry_equiv_pos_as_xyz
1 x,y,z
2 1/2+x,1/2+y,z
3 -x,y,1/2-z
4 1/2-x,1/2+y,1/2-z
5 -x,-y,-z
6 1/2-x,1/2-y,-z
7 x,-y,1/2+z
8 1/2+x,1/2-y,1/2+z
_cell_length_a                   25.284(10)
_cell_length_b                   12.863(4)
_cell_length_c                   16.914(7)
_cell_angle_alpha                90
_cell_angle_beta                 120.725(10)
_cell_angle_gamma                90
_cell_volume                     4728.74
loop_
_atom_site_label
_atom_site_type_symbol
_atom_site_fract_x
_atom_site_fract_y
_atom_site_fract_z
Co1 Co 0.084075(14) 0.58267(3) 0.30528(2)
O1 O 0.04210(8) 0.68727(14) 0.19785(12)
O2 O -0.06084(7) 0.67805(14) 0.11579(11)
O3 O 0.12876(8) 0.48040(14) 0.41613(12)
O4 O 0.04947(8) 0.38580(16) 0.39828(14)
O5 O 0.0000 0.4966(2) 0.2500
H1 H 0.0115(13) 0.4587(19) 0.2966(14)
N1 N 0.17016(9) 0.66467(17) 0.35736(14)
N2 N 0.33898(9) 0.80584(18) 0.43135(15)
H2 H 0.3662(11) 0.801(2) 0.4900(12)
N3 N 0.39062(9) 0.98529(17) 0.27435(14)
C1 C 0.17332(11) 0.7496(2) 0.31409(17)
H3 H 0.1366 0.7771 0.2670
C2 C 0.22706(11) 0.7988(2) 0.33470(18)
H4 H 0.2263 0.8578 0.3024
C3 C 0.28282(11) 0.7592(2) 0.40464(17)
C4 C 0.28029(11) 0.6722(2) 0.45166(17)
H5 H 0.3162 0.6439 0.4998
C5 C 0.22409(11) 0.6284(2) 0.42631(17)
H6 H 0.2234 0.5706 0.4587
C6 C 0.34364(11) 0.9178(2) 0.23458(17)
H7 H 0.3230 0.9116 0.1709
C7 C 0.32384(12) 0.8572(2) 0.28140(18)
H8 H 0.2910 0.8116 0.2498
C8 C 0.10559(11) 0.4056(2) 0.43619(17)
C9 C 0.35362(11) 0.8649(2) 0.37702(17)
C10 C 0.40340(11) 0.9330(2) 0.41921(17)
H9 H 0.4253 0.9397 0.4829
C11 C 0.42005(11) 0.9901(2) 0.36690(17)
H10 H 0.4535 1.0347 0.3970
C12 C -0.02468(12) 0.8924(2) 0.0668(2)
C13 C -0.07354(14) 0.9434(3) -0.0061(2)
H11 H -0.0990 0.9073 -0.0601
C14 C -0.08500(16) 1.0477(3) 0.0003(3)
H12 H -0.1185 1.0802 -0.0489
C15 C -0.04734(16) 1.1033(3) 0.0786(3)
H13 H -0.0544 1.1736 0.0820
C16 C 0.00073(17) 1.0540(3) 0.1517(3)
H14 H 0.0262 1.0908 0.2053
C17 C 0.01155(15) 0.9493(3) 0.1462(2)
H15 H 0.0439 0.9165 0.1969
C18 C -0.00906(12) 0.7818(2) 0.05894(18)
H16 H 0.0313 0.7798 0.0655
H17 H -0.0385 0.7560 -0.0019
C19 C -0.00930(11) 0.71025(19) 0.13070(17)
C20 C 0.21122(12) 0.3688(2) 0.5829(2)
C21 C 0.25914(14) 0.3792(2) 0.5654(2)
H18 H 0.2523 0.3638 0.5072
C22 C 0.31658(14) 0.4119(3) 0.6333(2)
H19 H 0.3481 0.4185 0.6207
C23 C 0.32740(15) 0.4348(3) 0.7203(2)
H20 H 0.3662 0.4565 0.7662
C24 C 0.28064(14) 0.4255(3) 0.7385(2)
H21 H 0.2876 0.4412 0.7967
C25 C 0.22319(14) 0.3927(2) 0.6702(2)
H22 H 0.1918 0.3865 0.6833
C26 C 0.14874(13) 0.3296(2) 0.5106(2)
H23 H 0.1280 0.3041 0.5416
H24 H 0.1548 0.2706 0.4804
Co1B Co -0.084075(14) 0.58267(3) 0.19472(2)
Co1C Co 0.415925(14) 1.08267(3) 0.19472(2)
Co1C_2 Co 0.415925(14) 0.08267(3) 0.19472(2)
O1B O -0.04210(8) 0.68727(14) 0.30215(12)
O2B O 0.06084(7) 0.67805(14) 0.38421(11)
O3B O -0.12876(8) 0.48040(14) 0.08387(12)
O4B O -0.04947(8) 0.38580(16) 0.10172(14)
H1B H -0.0115(13) 0.4587(19) 0.2034(14)
N1C N 0.32984(9) 0.16467(17) 0.14264(14)
N1B N -0.17016(9) 0.66467(17) 0.14264(14)
N2C N 0.16102(9) 0.30584(18) 0.06865(15)
H2C H 0.1338(11) 0.301(2) 0.0100(12)
N3C N 0.10938(9) 0.48529(17) 0.22565(14)
N3A N -0.10938(9) 0.48529(17) 0.27435(14)
C1C C 0.32668(11) 0.2496(2) 0.18591(17)
H3C H 0.3634 0.2771 0.2330
C2C C 0.27294(11) 0.2988(2) 0.16530(18)
H4C H 0.2737 0.3578 0.1976
C3C C 0.21718(11) 0.2592(2) 0.09536(17)
C4C C 0.21971(11) 0.1722(2) 0.04834(17)
H5C H 0.1838 0.1439 0.0002
C5C C 0.27591(11) 0.1284(2) 0.07369(17)
H6C H 0.2766 0.0706 0.0413
C6C C 0.15636(11) 0.4178(2) 0.26542(17)
H7C H 0.1770 0.4116 0.3291
C7C C 0.17616(12) 0.3572(2) 0.21860(18)
H8C H 0.2090 0.3116 0.2502
C8B C -0.10559(11) 0.4056(2) 0.06381(17)
C9C C 0.14638(11) 0.3649(2) 0.12298(17)
C10C C 0.09660(11) 0.4330(2) 0.08079(17)
H9C H 0.0747 0.4397 0.0171
C11C C 0.07995(11) 0.4901(2) 0.13310(17)
H10C H 0.0465 0.5347 0.1030
C12B C 0.02468(12) 0.8924(2) 0.4332(2)
C13B C 0.07354(14) 0.9434(3) 0.5061(2)
H11B H 0.0990 0.9073 0.5601
C14B C 0.08500(16) 1.0477(3) 0.4997(3)
H12B H 0.1185 1.0802 0.5489
C15B C 0.04734(16) 1.1033(3) 0.4214(3)
H13B H 0.0544 1.1736 0.4180
C16B C -0.00073(17) 1.0540(3) 0.3483(3)
H14B H -0.0262 1.0908 0.2947
C17B C -0.01155(15) 0.9493(3) 0.3538(2)
H15B H -0.0439 0.9165 0.3031
C18B C 0.00906(12) 0.7818(2) 0.44106(18)
H16B H -0.0313 0.7798 0.4345
H17B H 0.0385 0.7560 0.5019
C19B C 0.00930(11) 0.71025(19) 0.36930(17)
C20B C -0.21122(12) 0.3688(2) -0.0829(2)
C21B C -0.25914(14) 0.3792(2) -0.0654(2)
H18B H -0.2523 0.3638 -0.0072
C22B C -0.31658(14) 0.4119(3) -0.1333(2)
H19B H -0.3481 0.4185 -0.1207
C23B C -0.32740(15) 0.4348(3) -0.2203(2)
H20B H -0.3662 0.4565 -0.2662
C24B C -0.28064(14) 0.4255(3) -0.2385(2)
H21B H -0.2876 0.4412 -0.2967
C25B C -0.22319(14) 0.3927(2) -0.1702(2)
H22B H -0.1918 0.3865 -0.1833
C26B C -0.14874(13) 0.3296(2) -0.0106(2)
H23B H -0.1280 0.3041 -0.0416
H24B H -0.1548 0.2706 0.0196
loop_
_geom_bond_atom_site_label_1
_geom_bond_atom_site_label_2
_geom_bond_site_symmetry_1
_geom_bond_site_symmetry_2
Co1 O1 1_555 1_555
O1 C19 1_555 1_555
O2 C19 1_555 1_555
O3 Co1 1_555 1_555
O4 C8 1_555 1_555
O5 Co1 1_555 1_555
H1 O5 1_555 1_555
N1 Co1 1_555 1_555
N2 H2 1_555 1_555
N3 C6 1_555 1_555
C1 N1 1_555 1_555
H3 C1 1_555 1_555
C2 C1 1_555 1_555
H4 C2 1_555 1_555
C3 N2 1_555 1_555
C4 C3 1_555 1_555
H5 C4 1_555 1_555
C5 N1 1_555 1_555
H6 C5 1_555 1_555
C6 H7 1_555 1_555
C7 C6 1_555 1_555
H8 C7 1_555 1_555
C8 O3 1_555 1_555
C9 N2 1_555 1_555
C10 C9 1_555 1_555
H9 C10 1_555 1_555
C11 N3 1_555 1_555
H10 C11 1_555 1_555
C12 C13 1_555 1_555
C13 H11 1_555 1_555
C14 C13 1_555 1_555
H12 C14 1_555 1_555
C15 C14 1_555 1_555
H13 C15 1_555 1_555
C16 C15 1_555 1_555
H14 C16 1_555 1_555
C17 C12 1_555 1_555
H15 C17 1_555 1_555
C18 C12 1_555 1_555
H16 C18 1_555 1_555
H17 C18 1_555 1_555
C19 C18 1_555 1_555
C20 C21 1_555 1_555
C21 H18 1_555 1_555
C22 C21 1_555 1_555
H19 C22 1_555 1_555
C23 C22 1_555 1_555
H20 C23 1_555 1_555
C24 C23 1_555 1_555
H21 C24 1_555 1_555
C25 C20 1_555 1_555
H22 C25 1_555 1_555
C26 C8 1_555 1_555
H23 C26 1_555 1_555
H24 C26 1_555 1_555
Co1B O2 1_555 1_555
Co1C N3 1_555 1_555
Co1C_2 N1C 1_555 1_555
O1B Co1B 1_555 1_555
O2B Co1 1_555 1_555
O3B Co1B 1_555 1_555
O4B C8B 1_555 1_555
H1B O5 1_555 1_555
N1C C1C 1_555 1_555
N1B Co1B 1_555 1_555
N2C H2C 1_555 1_555
N3C Co1 1_555 1_555
N3A Co1B 1_555 1_555
C1C H3C 1_555 1_555
C2C C1C 1_555 1_555
H4C C2C 1_555 1_555
C3C N2C 1_555 1_555
C4C C3C 1_555 1_555
H5C C4C 1_555 1_555
C5C N1C 1_555 1_555
H6C C5C 1_555 1_555
C6C N3C 1_555 1_555
H7C C6C 1_555 1_555
C7C C6C 1_555 1_555
H8C C7C 1_555 1_555
C8B O3B 1_555 1_555
C9C N2C 1_555 1_555
C10C C9C 1_555 1_555
H9C C10C 1_555 1_555
C11C N3C 1_555 1_555
H10C C11C 1_555 1_555
C12B C13B 1_555 1_555
C13B H11B 1_555 1_555
C14B C13B 1_555 1_555
H12B C14B 1_555 1_555
C15B C14B 1_555 1_555
H13B C15B 1_555 1_555
C16B C15B 1_555 1_555
H14B C16B 1_555 1_555
C17B C12B 1_555 1_555
H15B C17B 1_555 1_555
C18B C12B 1_555 1_555
H16B C18B 1_555 1_555
H17B C18B 1_555 1_555
C19B O1B 1_555 1_555
C20B C21B 1_555 1_555
C21B H18B 1_555 1_555
C22B C21B 1_555 1_555
H19B C22B 1_555 1_555
C23B C22B 1_555 1_555
H20B C23B 1_555 1_555
C24B C23B 1_555 1_555
H21B C24B 1_555 1_555
C25B C20B 1_555 1_555
H22B C25B 1_555 1_555
C26B C8B 1_555 1_555
H23B C26B 1_555 1_555
H24B C26B 1_555 1_555
O5 Co1B 1_555 1_555
C2 C3 1_555 1_555
C4 C5 1_555 1_555
C7 C9 1_555 1_555
C10 C11 1_555 1_555
C16 C17 1_555 1_555
C20 C26 1_555 1_555
C24 C25 1_555 1_555
O2B C19B 1_555 1_555
C2C C3C 1_555 1_555
C4C C5C 1_555 1_555
C7C C9C 1_555 1_555
C10C C11C 1_555 1_555
C16B C17B 1_555 1_555
C18B C19B 1_555 1_555
C20B C26B 1_555 1_555
C24B C25B 1_555 1_555

#END
