
#######################################################################
#
#                 Cambridge Crystallographic Data Centre
#                                CCDC 
#
#######################################################################
#
# If this CIF has been generated from an entry in the Cambridge 
# Structural Database, then it will include bibliographic, chemical, 
# crystal, experimental, refinement or atomic coordinate data resulting 
# from the CCDC's data processing and validation procedures.
#
#######################################################################

data_XIZYIQ
_symmetry_cell_setting           monoclinic
_symmetry_space_group_name_H-M   'P 21/c'
_symmetry_Int_Tables_number      14
_space_group_name_Hall           '-P 2ybc'
loop_
_symmetry_equiv_pos_site_id
_symmetry_equiv_pos_as_xyz
1 x,y,z
2 -x,1/2+y,1/2-z
3 -x,-y,-z
4 x,1/2-y,1/2+z
_cell_length_a                   7.860(11)
_cell_length_b                   7.800(9)
_cell_length_c                   20.929(3)
_cell_angle_alpha                90
_cell_angle_beta                 100.002(14)
_cell_angle_gamma                90
_cell_volume                     1263.61
loop_
_atom_site_label
_atom_site_type_symbol
_atom_site_fract_x
_atom_site_fract_y
_atom_site_fract_z
C1 C 0.5709(15) 0.2142(16) 0.7182(6)
C2 C 0.6680(15) 0.1202(16) 0.6315(6)
H1 H 0.6598 0.0761 0.5888
C3 C 0.8233(16) 0.1512(15) 0.6697(6)
C4 C 1.0009(16) 0.1377(17) 0.6569(6)
C5 C 0.2156(18) 0.3467(15) 0.5028(6)
C6 C 0.2953(15) 0.4868(14) 0.5945(6)
H2 H 0.3263 0.4969 0.6403
C7 C 0.2811(16) 0.6245(16) 0.5567(6)
C8 C 0.2979(15) 0.8050(15) 0.5699(6)
N1 N 0.5262(12) 0.1553(12) 0.6575(5)
N2 N 0.4581(16) 0.2598(17) 0.7552(6)
H3 H 0.35(2) 0.27(2) 0.741(7)
H4 H 0.495(19) 0.31(2) 0.789(8)
N3 N 0.2641(13) 0.3299(12) 0.5656(5)
N4 N 0.1629(18) 0.2166(15) 0.4608(6)
H5 H 0.28(2) 0.19(2) 0.464(7)
H6 H 0.154(18) 0.278(19) 0.418(8)
O1 O 1.1181(11) 0.1930(13) 0.7010(5)
O2 O 1.0281(10) 0.0810(11) 0.6046(4)
O3 O 0.3170(10) 0.8555(10) 0.6296(4)
O4 O 0.2908(11) 0.9112(11) 0.5247(4)
S1 S 0.7899(4) 0.2304(5) 0.74402(16)
S2 S 0.2199(5) 0.5573(4) 0.47590(16)
Cu1 Cu 0.28660(18) 0.10723(18) 0.61283(7)
O1_2 O 0.1181(11) 0.1930(13) 0.7010(5)
O2_2 O 0.0281(10) 0.0810(11) 0.6046(4)
O3_2 O 0.3170(10) -0.1445(10) 0.6296(4)
O4_2 O 0.2908(11) -0.0888(11) 0.5247(4)
Cu1_2 Cu 0.28660(18) 1.10723(18) 0.61283(7)
Cu1_3 Cu 1.28660(18) 0.10723(18) 0.61283(7)
O5 O 0.158(3) 0.391(2) 0.3385(7)
loop_
_geom_bond_atom_site_label_1
_geom_bond_atom_site_label_2
_geom_bond_site_symmetry_1
_geom_bond_site_symmetry_2
C1 N1 1_555 1_555
C2 H1 1_555 1_555
C3 C2 1_555 1_555
C4 C3 1_555 1_555
C5 N3 1_555 1_555
C6 H2 1_555 1_555
C7 C6 1_555 1_555
C8 C7 1_555 1_555
N1 C2 1_555 1_555
N2 C1 1_555 1_555
H3 N2 1_555 1_555
H4 N2 1_555 1_555
N3 C6 1_555 1_555
N4 C5 1_555 1_555
H5 N4 1_555 1_555
H6 N4 1_555 1_555
O1 C4 1_555 1_555
O2 C4 1_555 1_555
O3 C8 1_555 1_555
O4 C8 1_555 1_555
S1 C1 1_555 1_555
S2 C5 1_555 1_555
Cu1 N1 1_555 1_555
O1_2 Cu1 1_555 1_555
O2_2 Cu1 1_555 1_555
O3_2 Cu1 1_555 1_555
O4_2 Cu1 1_555 1_555
Cu1_2 O3 1_555 1_555
Cu1_3 O1 1_555 1_555
C3 S1 1_555 1_555
C7 S2 1_555 1_555
N3 Cu1 1_555 1_555
O2 Cu1_3 1_555 1_555
O4 Cu1_2 1_555 1_555

#END
