
#######################################################################
#
#                 Cambridge Crystallographic Data Centre
#                                CCDC 
#
#######################################################################
#
# If this CIF has been generated from an entry in the Cambridge 
# Structural Database, then it will include bibliographic, chemical, 
# crystal, experimental, refinement or atomic coordinate data resulting 
# from the CCDC's data processing and validation procedures.
#
#######################################################################

data_XOBREL
_symmetry_cell_setting           monoclinic
_symmetry_space_group_name_H-M   'C 2/c'
_symmetry_Int_Tables_number      15
_space_group_name_Hall           '-C 2yn'
loop_
_symmetry_equiv_pos_site_id
_symmetry_equiv_pos_as_xyz
1 x,y,z
2 1/2+x,1/2+y,z
3 x,-y,1/2+z
4 1/2+x,1/2-y,1/2+z
5 -x,-y,-z
6 1/2-x,1/2-y,-z
7 -x,y,1/2-z
8 1/2-x,1/2+y,1/2-z
_cell_length_a                   27.890(2)
_cell_length_b                   7.6926(6)
_cell_length_c                   6.7497(5)
_cell_angle_alpha                90
_cell_angle_beta                 103.895(2)
_cell_angle_gamma                90
_cell_volume                     1405.75
loop_
_atom_site_label
_atom_site_type_symbol
_atom_site_fract_x
_atom_site_fract_y
_atom_site_fract_z
Co1 Co 0.222277(13) 0.94125(5) -0.00883(5)
S1 S 0.16904(2) 1.06744(9) 0.17305(10)
O1 O 0.22908(7) 0.7252(2) 0.1580(3)
O2 O 0.21298(7) 0.5579(3) 0.4034(3)
C1 C 0.14628(10) 0.7142(4) 0.2041(4)
C2 C 0.12934(10) 0.8847(4) 0.1572(4)
C3 C 0.07869(11) 0.9139(4) 0.0997(5)
H1 H 0.0667 1.0284 0.0659
C4 C 0.04533(12) 0.7785(5) 0.0910(5)
H2 H 0.0108 0.8006 0.0500
C5 C 0.06224(12) 0.6110(5) 0.1419(5)
H3 H 0.0394 0.5186 0.1376
C6 C 0.11254(11) 0.5792(4) 0.1989(4)
H4 H 0.1242 0.4646 0.2348
C7 C 0.19961(10) 0.6642(3) 0.2601(4)
S1B S 0.16904(2) 0.93256(9) -0.32695(10)
O1E O 0.27092(7) 0.7748(2) -0.1580(3)
O2G O 0.28702(7) 1.0579(3) 0.0966(3)
Co1B Co 0.222277(13) 1.05875(5) 0.49117(5)
Co1E Co 0.277723(13) 0.55875(5) 0.00883(5)
Co1G Co 0.277723(13) 0.44125(5) 0.50883(5)
loop_
_geom_bond_atom_site_label_1
_geom_bond_atom_site_label_2
_geom_bond_site_symmetry_1
_geom_bond_site_symmetry_2
Co1 S1 1_555 1_555
S1 C2 1_555 1_555
O1 Co1 1_555 1_555
O2 C7 1_555 1_555
C1 C2 1_555 1_555
C2 C3 1_555 1_555
C3 H1 1_555 1_555
C4 C3 1_555 1_555
H2 C4 1_555 1_555
C5 C4 1_555 1_555
H3 C5 1_555 1_555
C6 C1 1_555 1_555
H4 C6 1_555 1_555
C7 O1 1_555 1_555
S1B Co1 1_555 1_555
O1E Co1 1_555 1_555
O2G Co1 1_555 1_555
Co1B S1 1_555 1_555
Co1E O1 1_555 1_555
Co1G O2 1_555 1_555
C1 C7 1_555 1_555
C5 C6 1_555 1_555
O1E Co1E 1_555 1_555

#END
