
#######################################################################
#
#                 Cambridge Crystallographic Data Centre
#                                CCDC 
#
#######################################################################
#
# If this CIF has been generated from an entry in the Cambridge 
# Structural Database, then it will include bibliographic, chemical, 
# crystal, experimental, refinement or atomic coordinate data resulting 
# from the CCDC's data processing and validation procedures.
#
#######################################################################

data_XOBTIT
_symmetry_cell_setting           monoclinic
_symmetry_space_group_name_H-M   'P 21/c'
_symmetry_Int_Tables_number      14
_space_group_name_Hall           '-P 2ybc'
loop_
_symmetry_equiv_pos_site_id
_symmetry_equiv_pos_as_xyz
1 x,y,z
2 -x,1/2+y,1/2-z
3 -x,-y,-z
4 x,1/2-y,1/2+z
_cell_length_a                   9.444(2)
_cell_length_b                   12.752(3)
_cell_length_c                   9.059(2)
_cell_angle_alpha                90
_cell_angle_beta                 116.193(3)
_cell_angle_gamma                90
_cell_volume                     978.945
loop_
_atom_site_label
_atom_site_type_symbol
_atom_site_fract_x
_atom_site_fract_y
_atom_site_fract_z
Al1 Al 0.63528(5) 0.53383(4) 0.66792(5)
O1 O 0.60731(12) 0.45570(8) 0.48476(12)
N1 N 0.87401(15) 0.50249(10) 0.77057(14)
C1 C 0.70881(18) 0.40630(11) 0.43932(17)
C2 C 0.65148(19) 0.35422(13) 0.28804(18)
H1 H 0.5413 0.3543 0.2179
C3 C 0.75256(19) 0.30242(12) 0.23869(19)
H2 H 0.7106 0.2671 0.1358
C4 C 0.9145(2) 0.30151(12) 0.33804(19)
H3 H 0.9834 0.2661 0.3037
C5 C 0.97355(18) 0.35296(12) 0.48754(19)
H4 H 1.0841 0.3529 0.5558
C6 C 0.87315(17) 0.40544(11) 0.54063(17)
C7 C 0.94793(18) 0.45559(12) 0.70029(17)
H5 H 1.0599 0.4536 0.7570
C8 C 0.97169(19) 0.54440(12) 0.93658(17)
H6 H 0.9093 0.5953 0.9661
H7 H 1.0640 0.5817 0.9374
C9 C 0.6056(2) 0.45848(14) 0.84339(19)
H8 H 0.4925 0.4502 0.8110
H9 H 0.6542 0.4987 0.9459
H10 H 0.6553 0.3892 0.8601
C10 C 0.6695(2) 0.68590(12) 0.6463(2)
H11 H 0.7028 0.6962 0.5591
H12 H 0.7515 0.7123 0.7506
H13 H 0.5710 0.7242 0.6185
O1B O 1.39269(12) 0.54430(8) 1.51524(12)
N1B N 1.12599(15) 0.49751(10) 1.22943(14)
C1B C 1.29119(18) 0.59370(11) 1.56068(17)
C2B C 1.34852(19) 0.64578(13) 1.71196(18)
H1B H 1.4587 0.6457 1.7821
C3B C 1.24744(19) 0.69758(12) 1.76131(19)
H2B H 1.2894 0.7329 1.8642
C4B C 1.0855(2) 0.69849(12) 1.66196(19)
H3B H 1.0166 0.7339 1.6963
C5B C 1.02645(18) 0.64704(12) 1.51246(19)
H4B H 0.9159 0.6471 1.4442
C6B C 1.12685(17) 0.59456(11) 1.45937(17)
C7B C 1.05207(18) 0.54441(12) 1.29971(17)
H5B H 0.9401 0.5464 1.2430
C8B C 1.02831(19) 0.45560(12) 1.06342(17)
H6B H 1.0907 0.4047 1.0339
H7B H 0.9360 0.4183 1.0626
Al1B Al 0.36472(5) 0.46617(4) 0.33208(5)
C9B C 0.3944(2) 0.54152(14) 0.15661(19)
H8B H 0.5075 0.5498 0.1890
H9B H 0.3458 0.5013 0.0541
H10B H 0.3447 0.6108 0.1399
C10B C 0.3305(2) 0.31410(12) 0.3537(2)
H11B H 0.2972 0.3038 0.4409
H12B H 0.2485 0.2877 0.2494
H13B H 0.4290 0.2758 0.3815
Al1_2 Al 1.63528(5) 0.53383(4) 1.66792(5)
Al1B_2 Al 1.36472(5) 0.46617(4) 1.33208(5)
O1B_2 O 0.39269(12) 0.54430(8) 0.51524(12)
N1B_2 N 0.12599(15) 0.49751(10) 0.22943(14)
loop_
_geom_bond_atom_site_label_1
_geom_bond_atom_site_label_2
_geom_bond_site_symmetry_1
_geom_bond_site_symmetry_2
Al1 O1 1_555 1_555
O1 C1 1_555 1_555
N1 Al1 1_555 1_555
C1 C2 1_555 1_555
C2 H1 1_555 1_555
C3 C2 1_555 1_555
H2 C3 1_555 1_555
C4 C3 1_555 1_555
H3 C4 1_555 1_555
C5 C4 1_555 1_555
H4 C5 1_555 1_555
C6 C1 1_555 1_555
C7 N1 1_555 1_555
H5 C7 1_555 1_555
C8 N1 1_555 1_555
H6 C8 1_555 1_555
H7 C8 1_555 1_555
C9 Al1 1_555 1_555
H8 C9 1_555 1_555
H9 C9 1_555 1_555
H10 C9 1_555 1_555
C10 Al1 1_555 1_555
H11 C10 1_555 1_555
H12 C10 1_555 1_555
H13 C10 1_555 1_555
O1B C1B 1_555 1_555
N1B C7B 1_555 1_555
C1B C2B 1_555 1_555
C2B H1B 1_555 1_555
C3B C2B 1_555 1_555
H2B C3B 1_555 1_555
C4B C3B 1_555 1_555
H3B C4B 1_555 1_555
C5B C4B 1_555 1_555
H4B C5B 1_555 1_555
C6B C1B 1_555 1_555
C7B C6B 1_555 1_555
H5B C7B 1_555 1_555
C8B C8 1_555 1_555
H6B C8B 1_555 1_555
H7B C8B 1_555 1_555
Al1B O1 1_555 1_555
C9B Al1B 1_555 1_555
H8B C9B 1_555 1_555
H9B C9B 1_555 1_555
H10B C9B 1_555 1_555
C10B Al1B 1_555 1_555
H11B C10B 1_555 1_555
H12B C10B 1_555 1_555
H13B C10B 1_555 1_555
Al1_2 O1B 1_555 1_555
Al1B_2 O1B 1_555 1_555
O1B_2 Al1 1_555 1_555
N1B_2 Al1B 1_555 1_555
C5 C6 1_555 1_555
C6 C7 1_555 1_555
N1B C8B 1_555 1_555
N1B Al1B_2 1_555 1_555
C5B C6B 1_555 1_555
Al1B O1B_2 1_555 1_555

#END
