
#######################################################################
#
#                 Cambridge Crystallographic Data Centre
#                                CCDC 
#
#######################################################################
#
# If this CIF has been generated from an entry in the Cambridge 
# Structural Database, then it will include bibliographic, chemical, 
# crystal, experimental, refinement or atomic coordinate data resulting 
# from the CCDC's data processing and validation procedures.
#
#######################################################################

data_XOCBEW
_symmetry_cell_setting           triclinic
_symmetry_space_group_name_H-M   'P -1'
_symmetry_Int_Tables_number      2
_space_group_name_Hall           '-P 1'
loop_
_symmetry_equiv_pos_site_id
_symmetry_equiv_pos_as_xyz
1 x,y,z
2 -x,-y,-z
_cell_length_a                   9.430(2)
_cell_length_b                   9.578(2)
_cell_length_c                   16.047(3)
_cell_angle_alpha                91.53(3)
_cell_angle_beta                 93.61(3)
_cell_angle_gamma                98.55(3)
_cell_volume                     1429.47
loop_
_atom_site_label
_atom_site_type_symbol
_atom_site_fract_x
_atom_site_fract_y
_atom_site_fract_z
Cu1 Cu 0.0000 0.0000 0.0000
Cu2 Cu 0.5000 0.0000 0.5000
O1 O 0.1045(5) 0.1830(4) 0.0412(3)
O2 O -0.1817(4) 0.0448(4) 0.0338(3)
C1 C 0.0430(7) 0.2745(7) 0.0747(4)
C2 C -0.0971(7) 0.2720(7) 0.0923(4)
C3 C -0.1998(8) 0.1559(7) 0.0685(4)
C4 C 0.1485(9) 0.4047(7) 0.1003(3)
F1 F 0.2485(7) 0.3893(5) 0.1456(4)
F2 F 0.1041(6) 0.4961(6) 0.1386(5)
F3 F 0.2013(7) 0.4710(5) 0.0429(3)
C5 C -0.3516(9) 0.1639(10) 0.0894(5)
F4 F -0.3714(5) 0.2624(6) 0.1400(4)
F5 F -0.4130(6) 0.0547(6) 0.1161(5)
F6 F -0.4274(6) 0.1834(8) 0.0246(4)
O3 O 0.3478(4) -0.0811(4) 0.5675(2)
O4 O 0.6053(4) -0.1560(4) 0.5142(3)
C6 C 0.3481(6) -0.1957(6) 0.6059(4)
C7 C 0.4568(6) -0.2823(6) 0.6073(4)
C8 C 0.5763(7) -0.2574(6) 0.5612(4)
C9 C 0.2069(8) -0.2352(7) 0.6492(4)
F7 F 0.2154(4) -0.3450(4) 0.6974(3)
F8 F 0.1015(5) -0.2685(7) 0.5958(3)
F9 F 0.1856(5) -0.1337(5) 0.6990(3)
C10 C 0.6851(8) -0.3560(7) 0.5693(6)
F10 F 0.7018(6) -0.4133(6) 0.5033(4)
F11 F 0.6518(5) -0.4526(5) 0.6126(4)
F12 F 0.8006(5) -0.2989(6) 0.5921(5)
O5 O 0.0390(5) -0.1129(5) 0.1272(3)
N1 N 0.0770(5) -0.1249(5) 0.2034(3)
O6 O 0.3486(5) -0.1032(5) 0.3643(3)
N2 N 0.2336(6) -0.1205(5) 0.3167(3)
C11 C 0.0044(7) -0.1789(6) 0.2631(4)
C12 C -0.1456(7) -0.2459(6) 0.2500(4)
C13 C -0.1948(8) -0.3101(7) 0.1740(5)
C14 C -0.3306(8) -0.3816(8) 0.1604(5)
C15 C -0.4265(8) -0.3929(7) 0.2226(5)
C16 C -0.3765(8) -0.3241(7) 0.2950(5)
C17 C -0.2413(7) -0.2516(7) 0.3117(5)
C18 C 0.2313(7) -0.0811(7) 0.2289(4)
C19 C 0.2707(8) 0.0773(7) 0.2245(4)
C20 C 0.3273(7) -0.1621(7) 0.1821(4)
C21 C 0.0919(6) -0.1799(6) 0.3447(4)
C22 C 0.0553(7) -0.0819(7) 0.4147(4)
C23 C 0.0998(7) -0.3292(6) 0.3742(4)
O1A O -0.1045(5) -0.1830(4) -0.0412(3)
O2A O 0.1817(4) -0.0448(4) -0.0338(3)
C1A C -0.0430(7) -0.2745(7) -0.0747(4)
C2A C 0.0971(7) -0.2720(7) -0.0923(4)
C3A C 0.1998(8) -0.1559(7) -0.0685(4)
C4A C -0.1485(9) -0.4047(7) -0.1003(3)
F1A F -0.2485(7) -0.3893(5) -0.1456(4)
F2A F -0.1041(6) -0.4961(6) -0.1386(5)
F3A F -0.2013(7) -0.4710(5) -0.0429(3)
C5A C 0.3516(9) -0.1639(10) -0.0894(5)
F4A F 0.3714(5) -0.2624(6) -0.1400(4)
F5A F 0.4130(6) -0.0547(6) -0.1161(5)
F6A F 0.4274(6) -0.1834(8) -0.0246(4)
O5A O -0.0390(5) 0.1129(5) -0.1272(3)
N1A N -0.0770(5) 0.1249(5) -0.2034(3)
O6A O -0.3486(5) 0.1032(5) -0.3643(3)
N2A N -0.2336(6) 0.1205(5) -0.3167(3)
C11A C -0.0044(7) 0.1789(6) -0.2631(4)
C12A C 0.1456(7) 0.2459(6) -0.2500(4)
C13A C 0.1948(8) 0.3101(7) -0.1740(5)
C14A C 0.3306(8) 0.3816(8) -0.1604(5)
C15A C 0.4265(8) 0.3929(7) -0.2226(5)
C16A C 0.3765(8) 0.3241(7) -0.2950(5)
C17A C 0.2413(7) 0.2516(7) -0.3117(5)
C18A C -0.2313(7) 0.0811(7) -0.2289(4)
C19A C -0.2707(8) -0.0773(7) -0.2245(4)
C20A C -0.3273(7) 0.1621(7) -0.1821(4)
C21A C -0.0919(6) 0.1799(6) -0.3447(4)
C22A C -0.0553(7) 0.0819(7) -0.4147(4)
C23A C -0.0998(7) 0.3292(6) -0.3742(4)
O3A O 0.6522(4) 0.0811(4) 0.4325(2)
O4A O 0.3947(4) 0.1560(4) 0.4858(3)
C6A C 0.6519(6) 0.1957(6) 0.3941(4)
C7A C 0.5432(6) 0.2823(6) 0.3927(4)
C8A C 0.4237(7) 0.2574(6) 0.4388(4)
C9A C 0.7931(8) 0.2352(7) 0.3508(4)
F7A F 0.7846(4) 0.3450(4) 0.3026(3)
F8A F 0.8985(5) 0.2685(7) 0.4042(3)
F9A F 0.8144(5) 0.1337(5) 0.3010(3)
C10A C 0.3149(8) 0.3560(7) 0.4307(6)
F10A F 0.2982(6) 0.4133(6) 0.4967(4)
F11A F 0.3482(5) 0.4526(5) 0.3874(4)
F12A F 0.1994(5) 0.2989(6) 0.4079(5)
O6A_2 O 0.6514(5) 0.1032(5) 0.6357(3)
Cu2_2 Cu -0.5000 0.0000 -0.5000
loop_
_geom_bond_atom_site_label_1
_geom_bond_atom_site_label_2
_geom_bond_site_symmetry_1
_geom_bond_site_symmetry_2
Cu1 O1 1_555 1_555
Cu2 O3 1_555 1_555
O1 C1 1_555 1_555
O2 Cu1 1_555 1_555
C1 C2 1_555 1_555
C2 C3 1_555 1_555
C3 O2 1_555 1_555
C4 C1 1_555 1_555
F1 C4 1_555 1_555
F2 C4 1_555 1_555
F3 C4 1_555 1_555
C5 C3 1_555 1_555
F4 C5 1_555 1_555
F5 C5 1_555 1_555
F6 C5 1_555 1_555
O3 C6 1_555 1_555
O4 Cu2 1_555 1_555
C6 C7 1_555 1_555
C7 C8 1_555 1_555
C8 O4 1_555 1_555
C9 C6 1_555 1_555
F7 C9 1_555 1_555
F8 C9 1_555 1_555
F9 C9 1_555 1_555
C10 C8 1_555 1_555
F10 C10 1_555 1_555
F11 C10 1_555 1_555
F12 C10 1_555 1_555
O5 Cu1 1_555 1_555
N1 O5 1_555 1_555
O6 Cu2 1_555 1_555
N2 O6 1_555 1_555
C11 N1 1_555 1_555
C12 C11 1_555 1_555
C13 C12 1_555 1_555
C14 C13 1_555 1_555
C15 C14 1_555 1_555
C16 C15 1_555 1_555
C17 C12 1_555 1_555
C18 N1 1_555 1_555
C19 C18 1_555 1_555
C20 C18 1_555 1_555
C21 N2 1_555 1_555
C22 C21 1_555 1_555
C23 C21 1_555 1_555
O1A Cu1 1_555 1_555
O2A Cu1 1_555 1_555
C1A O1A 1_555 1_555
C2A C1A 1_555 1_555
C3A O2A 1_555 1_555
C4A C1A 1_555 1_555
F1A C4A 1_555 1_555
F2A C4A 1_555 1_555
F3A C4A 1_555 1_555
C5A C3A 1_555 1_555
F4A C5A 1_555 1_555
F5A C5A 1_555 1_555
F6A C5A 1_555 1_555
O5A Cu1 1_555 1_555
N1A O5A 1_555 1_555
O6A N2A 1_555 1_555
N2A C18A 1_555 1_555
C11A N1A 1_555 1_555
C12A C11A 1_555 1_555
C13A C12A 1_555 1_555
C14A C13A 1_555 1_555
C15A C14A 1_555 1_555
C16A C15A 1_555 1_555
C17A C12A 1_555 1_555
C18A N1A 1_555 1_555
C19A C18A 1_555 1_555
C20A C18A 1_555 1_555
C21A N2A 1_555 1_555
C22A C21A 1_555 1_555
C23A C21A 1_555 1_555
O3A Cu2 1_555 1_555
O4A Cu2 1_555 1_555
C6A O3A 1_555 1_555
C7A C6A 1_555 1_555
C8A O4A 1_555 1_555
C9A C6A 1_555 1_555
F7A C9A 1_555 1_555
F8A C9A 1_555 1_555
F9A C9A 1_555 1_555
C10A C8A 1_555 1_555
F10A C10A 1_555 1_555
F11A C10A 1_555 1_555
F12A C10A 1_555 1_555
O6A_2 Cu2 1_555 1_555
Cu2_2 O6A 1_555 1_555
N2 C18 1_555 1_555
C11 C21 1_555 1_555
C16 C17 1_555 1_555
C2A C3A 1_555 1_555
C11A C21A 1_555 1_555
C16A C17A 1_555 1_555
C7A C8A 1_555 1_555

#END
