
#######################################################################
#
#                 Cambridge Crystallographic Data Centre
#                                CCDC 
#
#######################################################################
#
# If this CIF has been generated from an entry in the Cambridge 
# Structural Database, then it will include bibliographic, chemical, 
# crystal, experimental, refinement or atomic coordinate data resulting 
# from the CCDC's data processing and validation procedures.
#
#######################################################################

data_XOCWUJ
_symmetry_cell_setting           triclinic
_symmetry_space_group_name_H-M   'P -1'
_symmetry_Int_Tables_number      2
_space_group_name_Hall           '-P 1'
loop_
_symmetry_equiv_pos_site_id
_symmetry_equiv_pos_as_xyz
1 x,y,z
2 -x,-y,-z
_cell_length_a                   10.5105(5)
_cell_length_b                   11.4390(6)
_cell_length_c                   13.4443(7)
_cell_angle_alpha                68.998(5)
_cell_angle_beta                 78.805(4)
_cell_angle_gamma                63.732(5)
_cell_volume                     1351.97
loop_
_atom_site_label
_atom_site_type_symbol
_atom_site_fract_x
_atom_site_fract_y
_atom_site_fract_z
U1 U 0.62220(4) 0.71335(4) 0.83679(3)
U2 U 1.0000 0.5000 0.5000
Tm1 Tm 0.59821(5) 0.23153(5) 0.75042(4)
C1 C 0.9948(12) 0.3435(12) 0.8536(10)
C2 C 1.1120(11) 0.3141(12) 0.9080(9)
H1 H 1.0986 0.3616 0.9553
C3 C 1.2485(11) 0.2161(11) 0.8941(9)
C4 C 1.2650(11) 0.1455(11) 0.8231(9)
C5 C 1.1462(11) 0.1662(12) 0.7746(9)
H2 H 1.1575 0.1114 0.7337
C6 C 1.0128(10) 0.2665(11) 0.7862(9)
C7 C 0.6256(11) 0.9990(12) 0.4521(9)
H3 H 0.7122 0.9987 0.4195
C8 C 0.6166(11) 0.8774(12) 0.5045(9)
C9 C 0.4899(12) 0.8742(11) 0.5554(8)
C10 C 0.8640(11) 0.4626(12) 0.8572(10)
C11 C 1.3628(11) 0.1950(11) 0.9555(9)
C12 C 1.4070(12) 0.0430(12) 0.7954(9)
C13 C 0.8945(10) 0.2918(11) 0.7259(9)
C14 C 0.4681(11) 0.7461(12) 0.6201(9)
C15 C 0.7453(12) 0.7470(12) 0.5077(10)
O1 O 0.5299(9) 0.6333(9) 0.9447(7)
O2 O 0.7173(9) 0.7910(9) 0.7312(7)
O3 O 1.0704(9) 0.4992(9) 0.6107(7)
O4 O 0.8516(9) 0.5361(9) 0.9148(8)
O5 O 0.7605(8) 0.4962(8) 0.8012(7)
O6 O 0.8120(8) 0.2351(8) 0.7712(7)
O7 O 0.8861(7) 0.3624(8) 0.6268(6)
O8 O 1.4175(8) -0.0790(8) 0.8185(7)
O9 O 1.5030(8) 0.0801(9) 0.7542(7)
O10 O 1.4846(8) 0.1800(9) 0.9152(6)
O11 O 1.3290(8) 0.1949(8) 1.0517(6)
O12 O 0.5018(8) 0.6940(9) 0.7172(7)
O13 O 0.4122(9) 0.6994(9) 0.5796(7)
O14 O 0.7350(9) 0.6348(9) 0.5349(8)
O15 O 0.8657(8) 0.7505(8) 0.4797(7)
O16 O 0.7110(9) 0.1527(9) 0.6098(7)
H4 H 0.6633 0.1804 0.5510
H5 H 0.8031 0.0942 0.6130
O17 O 0.6073(9) 0.4207(9) 0.6079(7)
H6 H 0.5279 0.4837 0.5733
H7 H 0.6898 0.4302 0.5877
O18 O 0.3695(9) 0.3737(11) 0.6799(10)
H8 H 0.3159 0.4515 0.6965
H9 H 0.3365 0.3499 0.6366
O19 O 0.5212(12) 0.4091(11) 0.8245(8)
H10 H 0.4351 0.4786 0.8099
H11 H 0.5777 0.4082 0.8675
O20 O 0.7596(8) 0.0154(9) 0.8405(7)
H12 H 0.7355 -0.0566 0.8627
H13 H 0.8464 0.0034 0.8528
C7A C 0.3744(11) 1.0010(12) 0.5479(9)
H3A H 0.2878 1.0013 0.5805
C8A C 0.3834(11) 1.1226(12) 0.4955(9)
C9A C 0.5101(12) 1.1258(11) 0.4446(8)
C14A C 0.5319(11) 1.2539(12) 0.3799(9)
C15A C 0.2547(12) 1.2530(12) 0.4923(10)
O12A O 0.4982(8) 1.3060(9) 0.2828(7)
O13A O 0.5878(9) 1.3006(9) 0.4204(7)
O14A O 0.2650(9) 1.3652(9) 0.4651(8)
O15A O 0.1343(8) 1.2495(8) 0.5203(7)
U1A U 0.37780(4) 1.28665(4) 0.16321(3)
Tm1A Tm 0.40179(5) 1.76847(5) 0.24958(4)
C1A C 0.0052(12) 1.6565(12) 0.1464(10)
C2A C -0.1120(11) 1.6859(12) 0.0920(9)
H1A H -0.0986 1.6384 0.0447
C3A C -0.2485(11) 1.7839(11) 0.1059(9)
C4A C -0.2650(11) 1.8545(11) 0.1769(9)
C5A C -0.1462(11) 1.8338(12) 0.2254(9)
H2A H -0.1575 1.8886 0.2663
C6A C -0.0128(10) 1.7335(11) 0.2138(9)
C10A C 0.1360(11) 1.5374(12) 0.1428(10)
C11A C -0.3628(11) 1.8050(11) 0.0445(9)
C12A C -0.4070(12) 1.9570(12) 0.2046(9)
C13A C 0.1055(10) 1.7082(11) 0.2741(9)
O1A O 0.4701(9) 1.3667(9) 0.0553(7)
O2A O 0.2827(9) 1.2090(9) 0.2688(7)
O4A O 0.1484(9) 1.4639(9) 0.0852(8)
O5A O 0.2395(8) 1.5038(8) 0.1988(7)
O6A O 0.1880(8) 1.7649(8) 0.2288(7)
O7A O 0.1139(7) 1.6376(8) 0.3732(6)
O8A O -0.4175(8) 2.0790(8) 0.1815(7)
O9A O -0.5030(8) 1.9199(9) 0.2458(7)
O10A O -0.4846(8) 1.8200(9) 0.0848(6)
O11A O -0.3290(8) 1.8051(8) -0.0517(6)
O16A O 0.2890(9) 1.8473(9) 0.3902(7)
H4A H 0.3367 1.8196 0.4490
H5A H 0.1969 1.9058 0.3870
O17A O 0.3927(9) 1.5793(9) 0.3921(7)
H6A H 0.4721 1.5163 0.4267
H7A H 0.3102 1.5698 0.4123
O18A O 0.6305(9) 1.6263(11) 0.3201(10)
H8A H 0.6841 1.5485 0.3035
H9A H 0.6635 1.6501 0.3634
O19A O 0.4788(12) 1.5909(11) 0.1755(8)
H10A H 0.5649 1.5214 0.1901
H11A H 0.4223 1.5918 0.1325
O20A O 0.2404(8) 1.9846(9) 0.1595(7)
H12A H 0.2645 2.0566 0.1373
H13A H 0.1536 1.9966 0.1472
O3A O 0.9296(9) 0.5008(9) 0.3893(7)
U1_2 U -0.37780(4) 1.71335(4) -0.16321(3)
U1_3 U 1.62220(4) -0.28665(4) 0.83679(3)
U1A_2 U -0.62220(4) 2.28665(4) 0.16321(3)
U1A_3 U 1.37780(4) 0.28665(4) 1.16321(3)
U2_2 U 0.0000 1.5000 0.5000
Tm1_2 Tm 1.59821(5) 0.23153(5) 0.75042(4)
Tm1A_2 Tm -0.59821(5) 1.76847(5) 0.24958(4)
O7A_2 O 1.1139(7) 0.6376(8) 0.3732(6)
O8_2 O 0.4175(8) 0.9210(8) 0.8185(7)
O8A_2 O 0.5825(8) 1.0790(8) 0.1815(7)
O9_2 O 0.5030(8) 0.0801(9) 0.7542(7)
O9A_2 O 0.4970(8) 1.9199(9) 0.2458(7)
O10_2 O 0.4846(8) 0.1800(9) 0.9152(6)
O10A_2 O 0.5154(8) 1.8200(9) 0.0848(6)
O11_2 O 0.3290(8) 1.1949(8) 0.0517(6)
O11A_2 O 0.6710(8) 0.8051(8) 0.9483(6)
O14A_2 O 1.2650(9) 0.3652(9) 0.4651(8)
O15A_2 O 1.1343(8) 0.2495(8) 0.5203(7)
O21 O 0.917(4) 0.180(8) 0.192(3)
O22 O 0.816(3) 0.145(3) 0.015(2)
O23 O 0.042(4) 0.087(3) 0.459(6)
loop_
_geom_bond_atom_site_label_1
_geom_bond_atom_site_label_2
_geom_bond_site_symmetry_1
_geom_bond_site_symmetry_2
U1 O1 1_555 1_555
U2 O3 1_555 1_555
Tm1 O6 1_555 1_555
C1 C2 1_555 1_555
C2 H1 1_555 1_555
C3 C2 1_555 1_555
C4 C3 1_555 1_555
C5 C4 1_555 1_555
H2 C5 1_555 1_555
C6 C1 1_555 1_555
C7 H3 1_555 1_555
C8 C7 1_555 1_555
C9 C8 1_555 1_555
C10 C1 1_555 1_555
C11 C3 1_555 1_555
C12 C4 1_555 1_555
C13 C6 1_555 1_555
C14 C9 1_555 1_555
C15 C8 1_555 1_555
O2 U1 1_555 1_555
O4 U1 1_555 1_555
O5 U1 1_555 1_555
O6 C13 1_555 1_555
O7 U2 1_555 1_555
O8 C12 1_555 1_555
O9 C12 1_555 1_555
O10 C11 1_555 1_555
O11 C11 1_555 1_555
O12 U1 1_555 1_555
O13 C14 1_555 1_555
O14 U2 1_555 1_555
O15 U2 1_555 1_555
O16 Tm1 1_555 1_555
H4 O16 1_555 1_555
H5 O16 1_555 1_555
O17 Tm1 1_555 1_555
H6 O17 1_555 1_555
H7 O17 1_555 1_555
O18 Tm1 1_555 1_555
H8 O18 1_555 1_555
H9 O18 1_555 1_555
O19 Tm1 1_555 1_555
H10 O19 1_555 1_555
H11 O19 1_555 1_555
O20 Tm1 1_555 1_555
H12 O20 1_555 1_555
H13 O20 1_555 1_555
C7A C9 1_555 1_555
H3A C7A 1_555 1_555
C8A C7A 1_555 1_555
C9A C7 1_555 1_555
C14A C9A 1_555 1_555
C15A C8A 1_555 1_555
O12A C14A 1_555 1_555
O13A C14A 1_555 1_555
O14A C15A 1_555 1_555
O15A C15A 1_555 1_555
U1A O12A 1_555 1_555
Tm1A O6A 1_555 1_555
C1A C2A 1_555 1_555
C2A H1A 1_555 1_555
C3A C2A 1_555 1_555
C4A C3A 1_555 1_555
C5A C4A 1_555 1_555
H2A C5A 1_555 1_555
C6A C1A 1_555 1_555
C10A C1A 1_555 1_555
C11A C3A 1_555 1_555
C12A C4A 1_555 1_555
C13A C6A 1_555 1_555
O1A U1A 1_555 1_555
O2A U1A 1_555 1_555
O4A U1A 1_555 1_555
O5A U1A 1_555 1_555
O6A C13A 1_555 1_555
O7A C13A 1_555 1_555
O8A C12A 1_555 1_555
O9A C12A 1_555 1_555
O10A C11A 1_555 1_555
O11A C11A 1_555 1_555
O16A Tm1A 1_555 1_555
H4A O16A 1_555 1_555
H5A O16A 1_555 1_555
O17A Tm1A 1_555 1_555
H6A O17A 1_555 1_555
H7A O17A 1_555 1_555
O18A Tm1A 1_555 1_555
H8A O18A 1_555 1_555
H9A O18A 1_555 1_555
O19A Tm1A 1_555 1_555
H10A O19A 1_555 1_555
H11A O19A 1_555 1_555
O20A Tm1A 1_555 1_555
H12A O20A 1_555 1_555
H13A O20A 1_555 1_555
O3A U2 1_555 1_555
U1_2 O11A 1_555 1_555
U1_3 O8 1_555 1_555
U1A_2 O8A 1_555 1_555
U1A_3 O11 1_555 1_555
U2_2 O14A 1_555 1_555
Tm1_2 O9 1_555 1_555
Tm1A_2 O9A 1_555 1_555
O7A_2 U2 1_555 1_555
O8_2 U1 1_555 1_555
O8A_2 U1A 1_555 1_555
O9_2 Tm1 1_555 1_555
O9A_2 Tm1A 1_555 1_555
O10_2 Tm1 1_555 1_555
O10A_2 Tm1A 1_555 1_555
O11_2 U1A 1_555 1_555
O11A_2 U1 1_555 1_555
O14A_2 U2 1_555 1_555
O15A_2 U2 1_555 1_555
C5 C6 1_555 1_555
C10 O4 1_555 1_555
C10 O5 1_555 1_555
C13 O7 1_555 1_555
C14 O12 1_555 1_555
C15 O14 1_555 1_555
C15 O15 1_555 1_555
O10 Tm1_2 1_555 1_555
C8A C9A 1_555 1_555
O15A U2_2 1_555 1_555
C5A C6A 1_555 1_555
C10A O4A 1_555 1_555
C10A O5A 1_555 1_555
O7A U2_2 1_555 1_555
O10A Tm1A_2 1_555 1_555

#END
