
#######################################################################
#
#                 Cambridge Crystallographic Data Centre
#                                CCDC 
#
#######################################################################
#
# If this CIF has been generated from an entry in the Cambridge 
# Structural Database, then it will include bibliographic, chemical, 
# crystal, experimental, refinement or atomic coordinate data resulting 
# from the CCDC's data processing and validation procedures.
#
#######################################################################

data_XOCWET
_symmetry_cell_setting           triclinic
_symmetry_space_group_name_H-M   'P -1'
_symmetry_Int_Tables_number      2
_space_group_name_Hall           '-P 1'
loop_
_symmetry_equiv_pos_site_id
_symmetry_equiv_pos_as_xyz
1 x,y,z
2 -x,-y,-z
_cell_length_a                   11.001(2)
_cell_length_b                   11.563(2)
_cell_length_c                   13.432(3)
_cell_angle_alpha                69.358(3)
_cell_angle_beta                 79.869(3)
_cell_angle_gamma                61.864(3)
_cell_volume                     1409.88
loop_
_atom_site_label
_atom_site_type_symbol
_atom_site_fract_x
_atom_site_fract_y
_atom_site_fract_z
U1 U 0.63330(4) 0.70125(4) 0.83377(3)
U2 U 1.0000 0.5000 0.5000
La1 La 0.62438(6) 0.21280(6) 0.77521(5)
O1 O 0.5515(7) 0.6176(7) 0.9400(5)
O2 O 0.7162(7) 0.7817(8) 0.7296(5)
O3 O 1.0596(7) 0.5035(7) 0.6124(5)
O4 O 0.8592(7) 0.5271(8) 0.9057(6)
O5 O 0.7761(7) 0.4834(8) 0.7951(6)
O6 O 0.8622(7) 0.2033(7) 0.7609(5)
O7 O 0.9038(6) 0.3550(7) 0.6228(5)
O8 O 1.4297(7) -0.0915(7) 0.8283(6)
O9 O 1.5169(7) 0.0584(7) 0.7765(6)
O10 O 1.4745(7) 0.1748(8) 0.9329(6)
O11 O 1.3095(7) 0.2172(7) 1.0533(5)
O12 O 0.5082(7) 0.6916(7) 0.7136(5)
O13 O 0.4253(8) 0.7016(8) 0.5703(6)
O14 O 0.7382(8) 0.6309(7) 0.5314(6)
O15 O 0.8559(7) 0.7497(7) 0.4764(6)
O16 O 0.7135(9) 0.1334(8) 0.6136(6)
H1 H 0.8016 0.0707 0.6109
H2 H 0.6572 0.1673 0.5587
O17 O 0.6271(8) 0.4134(8) 0.6168(6)
H3 H 0.6606 0.4677 0.6236
H4 H 0.5948 0.4298 0.5536
O18 O 0.3939(9) 0.3599(10) 0.6747(8)
H5 H 0.3187 0.4133 0.7051
H6 H 0.3887 0.3576 0.6094
O19 O 0.4980(9) 0.4344(8) 0.8269(6)
H7 H 0.5179 0.4364 0.8882
H8 H 0.4336 0.5105 0.7836
O20 O 0.7167(9) 0.1672(11) 0.9582(7)
H9 H 0.6601 0.2095 1.0048
H10 H 0.8056 0.1087 0.9747
O21 O 0.8054(8) -0.0364(8) 0.8337(7)
H11 H 0.8495 -0.0713 0.8956
H12 H 0.8257 -0.0898 0.7923
C1 C 1.0106(10) 0.3366(10) 0.8454(7)
C2 C 1.1181(10) 0.3103(10) 0.9049(8)
H13 H 1.0988 0.3598 0.9519
C3 C 1.2512(10) 0.2140(10) 0.8967(7)
C4 C 1.2803(9) 0.1326(10) 0.8303(8)
C5 C 1.1694(9) 0.1533(9) 0.7744(8)
H14 H 1.1859 0.0970 0.7334
C6 C 1.0361(9) 0.2565(9) 0.7800(7)
C7 C 0.6216(10) 0.9987(10) 0.4510(7)
H15 H 0.7038 0.9981 0.4186
C8 C 0.6167(10) 0.8750(10) 0.5024(8)
C9 C 0.4917(9) 0.8760(9) 0.5543(7)
C10 C 0.8763(10) 0.4527(11) 0.8497(8)
C11 C 1.3554(10) 0.1997(9) 0.9622(8)
C12 C 1.4195(10) 0.0281(10) 0.8104(7)
C13 C 0.9232(9) 0.2760(10) 0.7172(8)
C14 C 0.4752(10) 0.7463(10) 0.6148(8)
C15 C 0.7425(10) 0.7441(10) 0.5055(8)
O12A O 0.4918(7) 1.3084(7) 0.2864(5)
O13A O 0.5747(8) 1.2984(8) 0.4297(6)
O14A O 0.2618(8) 1.3691(7) 0.4686(6)
O15A O 0.1441(7) 1.2503(7) 0.5236(6)
C7A C 0.3784(10) 1.0013(10) 0.5490(7)
H15A H 0.2962 1.0019 0.5814
C8A C 0.3833(10) 1.1250(10) 0.4976(8)
C9A C 0.5083(9) 1.1240(9) 0.4457(7)
C14A C 0.5248(10) 1.2537(10) 0.3852(8)
C15A C 0.2575(10) 1.2559(10) 0.4945(8)
U1A U 0.36670(4) 1.29875(4) 0.16623(3)
La1A La 0.37562(6) 1.78720(6) 0.22479(5)
O1A O 0.4485(7) 1.3824(7) 0.0600(5)
O2A O 0.2838(7) 1.2183(8) 0.2704(5)
O4A O 0.1408(7) 1.4729(8) 0.0943(6)
O5A O 0.2239(7) 1.5166(8) 0.2049(6)
O6A O 0.1378(7) 1.7967(7) 0.2391(5)
O7A O 0.0962(6) 1.6450(7) 0.3772(5)
O8A O -0.4297(7) 2.0915(7) 0.1717(6)
O9A O -0.5169(7) 1.9416(7) 0.2235(6)
O10A O -0.4745(7) 1.8252(8) 0.0671(6)
O11A O -0.3095(7) 1.7828(7) -0.0533(5)
O16A O 0.2865(9) 1.8666(8) 0.3864(6)
H1A H 0.1984 1.9293 0.3891
H2A H 0.3428 1.8327 0.4413
O17A O 0.3729(8) 1.5866(8) 0.3832(6)
H3A H 0.3394 1.5323 0.3764
H4A H 0.4052 1.5702 0.4464
O18A O 0.6061(9) 1.6401(10) 0.3253(8)
H5A H 0.6813 1.5867 0.2949
H6A H 0.6113 1.6424 0.3906
O19A O 0.5020(9) 1.5656(8) 0.1731(6)
H7A H 0.4821 1.5636 0.1118
H8A H 0.5664 1.4895 0.2164
O20A O 0.2833(9) 1.8328(11) 0.0418(7)
H9A H 0.3399 1.7905 -0.0048
H10A H 0.1944 1.8913 0.0253
O21A O 0.1946(8) 2.0364(8) 0.1663(7)
H11A H 0.1505 2.0713 0.1044
H12A H 0.1743 2.0898 0.2077
C1A C -0.0106(10) 1.6634(10) 0.1546(7)
C2A C -0.1181(10) 1.6897(10) 0.0951(8)
H13A H -0.0988 1.6402 0.0481
C3A C -0.2512(10) 1.7860(10) 0.1033(7)
C4A C -0.2803(9) 1.8674(10) 0.1697(8)
C5A C -0.1694(9) 1.8467(9) 0.2256(8)
H14A H -0.1859 1.9030 0.2666
C6A C -0.0361(9) 1.7435(9) 0.2200(7)
C10A C 0.1237(10) 1.5473(11) 0.1503(8)
C11A C -0.3554(10) 1.8003(9) 0.0378(8)
C12A C -0.4195(10) 1.9719(10) 0.1896(7)
C13A C 0.0768(9) 1.7240(10) 0.2828(8)
O3A O 0.9404(7) 0.4965(7) 0.3876(5)
U1_2 U -0.36670(4) 1.70125(4) -0.16623(3)
U1_3 U 1.63330(4) -0.29875(4) 0.83377(3)
U1A_2 U -0.63330(4) 2.29875(4) 0.16623(3)
U1A_3 U 1.36670(4) 0.29875(4) 1.16623(3)
U2_2 U 0.0000 1.5000 0.5000
La1_2 La 1.62438(6) 0.21280(6) 0.77521(5)
La1A_2 La -0.62438(6) 1.78720(6) 0.22479(5)
O7A_2 O 1.0962(6) 0.6450(7) 0.3772(5)
O8_2 O 0.4297(7) 0.9085(7) 0.8283(6)
O8A_2 O 0.5703(7) 1.0915(7) 0.1717(6)
O9_2 O 0.5169(7) 0.0584(7) 0.7765(6)
O9A_2 O 0.4831(7) 1.9416(7) 0.2235(6)
O10_2 O 0.4745(7) 0.1748(8) 0.9329(6)
O10A_2 O 0.5255(7) 1.8252(8) 0.0671(6)
O11_2 O 0.3095(7) 1.2172(7) 0.0533(5)
O11A_2 O 0.6905(7) 0.7828(7) 0.9467(5)
O14A_2 O 1.2618(8) 0.3691(7) 0.4686(6)
O15A_2 O 1.1441(7) 0.2503(7) 0.5236(6)
O22 O 0.7832(17) 0.3768(16) 0.3204(14)
O23 O 0.0597(19) 0.1436(19) 0.4028(16)
O24 O 0.073(3) 0.973(4) 0.656(3)
O25 O 0.9506(18) 0.096(2) 0.0745(16)
loop_
_geom_bond_atom_site_label_1
_geom_bond_atom_site_label_2
_geom_bond_site_symmetry_1
_geom_bond_site_symmetry_2
U1 O1 1_555 1_555
U2 O3 1_555 1_555
La1 O6 1_555 1_555
O2 U1 1_555 1_555
O4 U1 1_555 1_555
O5 U1 1_555 1_555
O6 C13 1_555 1_555
O7 U2 1_555 1_555
O8 C12 1_555 1_555
O9 C12 1_555 1_555
O10 C11 1_555 1_555
O11 C11 1_555 1_555
O12 U1 1_555 1_555
O13 C14 1_555 1_555
O14 U2 1_555 1_555
O15 U2 1_555 1_555
O16 La1 1_555 1_555
H1 O16 1_555 1_555
H2 O16 1_555 1_555
O17 La1 1_555 1_555
H3 O17 1_555 1_555
H4 O17 1_555 1_555
O18 La1 1_555 1_555
H5 O18 1_555 1_555
H6 O18 1_555 1_555
O19 La1 1_555 1_555
H7 O19 1_555 1_555
H8 O19 1_555 1_555
O20 La1 1_555 1_555
H9 O20 1_555 1_555
H10 O20 1_555 1_555
O21 La1 1_555 1_555
H11 O21 1_555 1_555
H12 O21 1_555 1_555
C1 C2 1_555 1_555
C2 H13 1_555 1_555
C3 C2 1_555 1_555
C4 C3 1_555 1_555
C5 C4 1_555 1_555
H14 C5 1_555 1_555
C6 C1 1_555 1_555
C7 H15 1_555 1_555
C8 C7 1_555 1_555
C9 C8 1_555 1_555
C10 O4 1_555 1_555
C11 C3 1_555 1_555
C12 C4 1_555 1_555
C13 O7 1_555 1_555
C14 O12 1_555 1_555
C15 O14 1_555 1_555
O12A C14A 1_555 1_555
O13A C14A 1_555 1_555
O14A C15A 1_555 1_555
O15A C15A 1_555 1_555
C7A C9 1_555 1_555
H15A C7A 1_555 1_555
C8A C7A 1_555 1_555
C9A C7 1_555 1_555
C14A C9A 1_555 1_555
C15A C8A 1_555 1_555
U1A O12A 1_555 1_555
La1A O6A 1_555 1_555
O1A U1A 1_555 1_555
O2A U1A 1_555 1_555
O4A U1A 1_555 1_555
O5A U1A 1_555 1_555
O6A C13A 1_555 1_555
O7A C13A 1_555 1_555
O8A C12A 1_555 1_555
O9A C12A 1_555 1_555
O10A C11A 1_555 1_555
O11A C11A 1_555 1_555
O16A La1A 1_555 1_555
H1A O16A 1_555 1_555
H2A O16A 1_555 1_555
O17A La1A 1_555 1_555
H3A O17A 1_555 1_555
H4A O17A 1_555 1_555
O18A La1A 1_555 1_555
H5A O18A 1_555 1_555
H6A O18A 1_555 1_555
O19A La1A 1_555 1_555
H7A O19A 1_555 1_555
H8A O19A 1_555 1_555
O20A La1A 1_555 1_555
H9A O20A 1_555 1_555
H10A O20A 1_555 1_555
O21A La1A 1_555 1_555
H11A O21A 1_555 1_555
H12A O21A 1_555 1_555
C1A C2A 1_555 1_555
C2A H13A 1_555 1_555
C3A C2A 1_555 1_555
C4A C3A 1_555 1_555
C5A C4A 1_555 1_555
H14A C5A 1_555 1_555
C6A C1A 1_555 1_555
C10A O4A 1_555 1_555
C11A C3A 1_555 1_555
C12A C4A 1_555 1_555
C13A C6A 1_555 1_555
O3A U2 1_555 1_555
U1_2 O11A 1_555 1_555
U1_3 O8 1_555 1_555
U1A_2 O8A 1_555 1_555
U1A_3 O11 1_555 1_555
U2_2 O14A 1_555 1_555
La1_2 O9 1_555 1_555
La1A_2 O9A 1_555 1_555
O7A_2 U2 1_555 1_555
O8_2 U1 1_555 1_555
O8A_2 U1A 1_555 1_555
O9_2 La1 1_555 1_555
O9A_2 La1A 1_555 1_555
O10_2 La1 1_555 1_555
O10A_2 La1A 1_555 1_555
O11_2 U1A 1_555 1_555
O11A_2 U1 1_555 1_555
O14A_2 U2 1_555 1_555
O15A_2 U2 1_555 1_555
O5 C10 1_555 1_555
O10 La1_2 1_555 1_555
O15 C15 1_555 1_555
C1 C10 1_555 1_555
C5 C6 1_555 1_555
C6 C13 1_555 1_555
C8 C15 1_555 1_555
C9 C14 1_555 1_555
O15A U2_2 1_555 1_555
C8A C9A 1_555 1_555
O5A C10A 1_555 1_555
O7A U2_2 1_555 1_555
O10A La1A_2 1_555 1_555
C1A C10A 1_555 1_555
C5A C6A 1_555 1_555

#END
