
#######################################################################
#
#                 Cambridge Crystallographic Data Centre
#                                CCDC 
#
#######################################################################
#
# If this CIF has been generated from an entry in the Cambridge 
# Structural Database, then it will include bibliographic, chemical, 
# crystal, experimental, refinement or atomic coordinate data resulting 
# from the CCDC's data processing and validation procedures.
#
#######################################################################

data_XODJOQ
_symmetry_cell_setting           monoclinic
_symmetry_space_group_name_H-M   'C 2/c'
_symmetry_Int_Tables_number      15
_space_group_name_Hall           '-C 2yn'
loop_
_symmetry_equiv_pos_site_id
_symmetry_equiv_pos_as_xyz
1 x,y,z
2 1/2+x,1/2+y,z
3 -x,y,1/2-z
4 1/2-x,1/2+y,1/2-z
5 -x,-y,-z
6 1/2-x,1/2-y,-z
7 x,-y,1/2+z
8 1/2+x,1/2-y,1/2+z
_cell_length_a                   22.7672(17)
_cell_length_b                   13.1972(10)
_cell_length_c                   13.3665(10)
_cell_angle_alpha                90
_cell_angle_beta                 100.020(1)
_cell_angle_gamma                90
_cell_volume                     3954.88
loop_
_atom_site_label
_atom_site_type_symbol
_atom_site_fract_x
_atom_site_fract_y
_atom_site_fract_z
Cu1 Cu 0.092876(14) 0.65995(2) 0.14752(3)
C1 C -0.13344(11) 0.16249(19) 0.1153(2)
C2 C -0.04647(11) 0.24495(19) 0.1217(2)
C3 C -0.04851(11) 0.07460(19) 0.1189(2)
C4 C -0.01262(11) 0.34129(18) 0.1231(2)
C5 C -0.04184(12) 0.4334(2) 0.1207(2)
H1 H -0.0831 0.4357 0.1160
C6 C -0.00927(12) 0.5215(2) 0.1253(2)
H2 H -0.0297 0.5827 0.1228
C7 C 0.07818(12) 0.4349(2) 0.1363(2)
H3 H 0.1195 0.4348 0.1429
C8 C 0.04908(12) 0.3428(2) 0.1305(2)
H4 H 0.0704 0.2826 0.1315
C9 C -0.01611(11) -0.02344(19) 0.1212(2)
C10 C 0.04528(11) -0.0255(2) 0.1285(2)
H5 H 0.0669 0.0345 0.1313
C11 C 0.07376(12) -0.1178(2) 0.1317(2)
H6 H 0.1149 -0.1179 0.1356
C12 C -0.04588(12) -0.1146(2) 0.1183(2)
H7 H -0.0871 -0.1163 0.1137
C13 C -0.01352(13) -0.2030(2) 0.1224(3)
H8 H -0.0343 -0.2639 0.1201
C14 C -0.19877(11) 0.16588(19) 0.1141(2)
C15 C -0.22393(12) 0.2468(2) 0.1568(2)
H9 H -0.2008 0.3021 0.1824
C16 C -0.23582(12) 0.0881(2) 0.0740(2)
H10 H -0.2204 0.0319 0.0455
C17 C -0.29587(12) 0.0944(2) 0.0764(2)
H11 H -0.3206 0.0434 0.0448
C18 C -0.28401(12) 0.2439(2) 0.1606(2)
H12 H -0.3000 0.2973 0.1925
C19 C 0.16981(13) 0.6212(2) 0.3588(2)
C20 C 0.21405(12) 0.6845(2) 0.4317(2)
C21 C 0.18978(12) 0.7505(2) 0.4936(2)
H13 H 0.1486 0.7511 0.4893
C22 C 0.27641(12) 0.6840(2) 0.4379(2)
C23 C 0.31212(13) 0.6191(2) 0.3773(2)
N1 N -0.10777(9) 0.07190(16) 0.11256(17)
N2 N -0.10498(9) 0.25144(15) 0.11940(17)
N3 N -0.01550(9) 0.15871(15) 0.12381(17)
N4 N 0.05023(9) 0.52453(16) 0.13311(17)
N5 N 0.04596(10) -0.20763(16) 0.12945(18)
N6 N -0.32084(10) 0.16953(16) 0.12150(18)
O1 O 0.12149(9) 0.66071(18) 0.32516(17)
O2 O 0.18459(10) 0.53191(16) 0.33822(18)
O3 O 0.29148(10) 0.53082(16) 0.34477(19)
H14 H 0.2557 0.5281 0.3463
O4 O 0.36015(9) 0.64957(16) 0.36184(19)
Cu1_2 Cu 0.092876(14) 1.65995(2) 0.14752(3)
Cu1_3 Cu 0.092876(14) -0.34005(2) 0.14752(3)
Cu1A Cu -0.407124(14) 0.15995(2) 0.14752(3)
Cu1E Cu 0.407124(14) 0.84005(2) 0.85248(3)
Cu1A_2 Cu -0.407124(14) 1.15995(2) 0.14752(3)
C1_2 C -0.13344(11) 1.16249(19) 0.1153(2)
C2_2 C -0.04647(11) 1.24495(19) 0.1217(2)
C3_2 C -0.04851(11) 1.07460(19) 0.1189(2)
C4_2 C -0.01262(11) 1.34129(18) 0.1231(2)
C5_2 C -0.04184(12) 1.4334(2) 0.1207(2)
H1_2 H -0.0831 1.4357 0.1160
C6_2 C -0.00927(12) 1.5215(2) 0.1253(2)
H2_2 H -0.0297 1.5827 0.1228
C7_2 C 0.07818(12) 1.4349(2) 0.1363(2)
H3_2 H 0.1195 1.4348 0.1429
C8_2 C 0.04908(12) 1.3428(2) 0.1305(2)
H4_2 H 0.0704 1.2826 0.1315
C9_2 C -0.01611(11) 0.97656(19) 0.1212(2)
C10_2 C 0.04528(11) 0.9745(2) 0.1285(2)
H5_2 H 0.0669 1.0345 0.1313
C11_2 C 0.07376(12) 0.8822(2) 0.1317(2)
H6_2 H 0.1149 0.8821 0.1356
C12_2 C -0.04588(12) 0.8854(2) 0.1183(2)
H7_2 H -0.0871 0.8837 0.1137
C13_2 C -0.01352(13) 0.7970(2) 0.1224(3)
H8_2 H -0.0343 0.7361 0.1201
C14_2 C -0.19877(11) 1.16588(19) 0.1141(2)
C15_2 C -0.22393(12) 1.2468(2) 0.1568(2)
H9_2 H -0.2008 1.3021 0.1824
C16_2 C -0.23582(12) 1.0881(2) 0.0740(2)
H10_2 H -0.2204 1.0319 0.0455
C17_2 C -0.29587(12) 1.0944(2) 0.0764(2)
H11_2 H -0.3206 1.0434 0.0448
C18_2 C -0.28401(12) 1.2439(2) 0.1606(2)
H12_2 H -0.3000 1.2973 0.1925
C19E C 0.33019(13) 0.8788(2) 0.6412(2)
C20E C 0.28595(12) 0.8155(2) 0.5683(2)
C21E C 0.31022(12) 0.7495(2) 0.5064(2)
H13E H 0.3514 0.7489 0.5107
C22E C 0.22359(12) 0.8160(2) 0.5621(2)
C23E C 0.18788(13) 0.8809(2) 0.6227(2)
N1_2 N -0.10777(9) 1.07190(16) 0.11256(17)
N2_2 N -0.10498(9) 1.25144(15) 0.11940(17)
N3_2 N -0.01550(9) 1.15871(15) 0.12381(17)
N4_2 N 0.05023(9) 1.52453(16) 0.13311(17)
N5_2 N 0.04596(10) 0.79237(16) 0.12945(18)
N5_3 N 0.04596(10) 1.79237(16) 0.12945(18)
N6_2 N -0.32084(10) 1.16953(16) 0.12150(18)
N6A N 0.17916(10) 0.66953(16) 0.12150(18)
N6A_2 N 0.17916(10) 1.66953(16) 0.12150(18)
O1E O 0.37851(9) 0.83929(18) 0.67484(17)
O1_2 O 0.12149(9) 1.66071(18) 0.32516(17)
O2E O 0.31541(10) 0.96809(16) 0.66178(18)
O3E O 0.20852(10) 0.96918(16) 0.65523(19)
H14E H 0.2443 0.9719 0.6537
O4E O 0.13985(9) 0.85043(16) 0.63816(19)
loop_
_geom_bond_atom_site_label_1
_geom_bond_atom_site_label_2
_geom_bond_site_symmetry_1
_geom_bond_site_symmetry_2
Cu1 N4 1_555 1_555
C1 C14 1_555 1_555
C2 C4 1_555 1_555
C3 C9 1_555 1_555
C4 C5 1_555 1_555
C5 H1 1_555 1_555
C6 C5 1_555 1_555
H2 C6 1_555 1_555
C7 H3 1_555 1_555
C8 C4 1_555 1_555
H4 C8 1_555 1_555
C9 C10 1_555 1_555
C10 H5 1_555 1_555
C11 C10 1_555 1_555
H6 C11 1_555 1_555
C12 C9 1_555 1_555
H7 C12 1_555 1_555
C13 C12 1_555 1_555
H8 C13 1_555 1_555
C14 C15 1_555 1_555
C15 H9 1_555 1_555
C16 C14 1_555 1_555
H10 C16 1_555 1_555
C17 C16 1_555 1_555
H11 C17 1_555 1_555
C18 C15 1_555 1_555
H12 C18 1_555 1_555
C19 C20 1_555 1_555
C20 C21 1_555 1_555
C21 H13 1_555 1_555
C22 C20 1_555 1_555
C23 C22 1_555 1_555
N1 C1 1_555 1_555
N2 C1 1_555 1_555
N3 C2 1_555 1_555
N4 C6 1_555 1_555
N5 C11 1_555 1_555
N6 C17 1_555 1_555
O1 Cu1 1_555 1_555
O2 C19 1_555 1_555
O3 C23 1_555 1_555
H14 O3 1_555 1_555
O4 C23 1_555 1_555
Cu1_2 N4_2 1_555 1_555
Cu1_3 N5 1_555 1_555
Cu1A N6 1_555 1_555
Cu1E O1E 1_555 1_555
Cu1A_2 N6_2 1_555 1_555
C1_2 C14_2 1_555 1_555
C2_2 C4_2 1_555 1_555
C3_2 C9_2 1_555 1_555
C4_2 C5_2 1_555 1_555
C5_2 H1_2 1_555 1_555
C6_2 C5_2 1_555 1_555
H2_2 C6_2 1_555 1_555
C7_2 H3_2 1_555 1_555
C8_2 C4_2 1_555 1_555
H4_2 C8_2 1_555 1_555
C9_2 C10_2 1_555 1_555
C10_2 H5_2 1_555 1_555
C11_2 C10_2 1_555 1_555
H6_2 C11_2 1_555 1_555
C12_2 C9_2 1_555 1_555
H7_2 C12_2 1_555 1_555
C13_2 C12_2 1_555 1_555
H8_2 C13_2 1_555 1_555
C14_2 C15_2 1_555 1_555
C15_2 H9_2 1_555 1_555
C16_2 C14_2 1_555 1_555
H10_2 C16_2 1_555 1_555
C17_2 C16_2 1_555 1_555
H11_2 C17_2 1_555 1_555
C18_2 C15_2 1_555 1_555
H12_2 C18_2 1_555 1_555
C19E C20E 1_555 1_555
C20E C21E 1_555 1_555
C21E C22 1_555 1_555
H13E C21E 1_555 1_555
C22E C21 1_555 1_555
C23E C22E 1_555 1_555
N1_2 C1_2 1_555 1_555
N2_2 C1_2 1_555 1_555
N3_2 C2_2 1_555 1_555
N4_2 C6_2 1_555 1_555
N5_2 Cu1 1_555 1_555
N5_3 Cu1_2 1_555 1_555
N6_2 C17_2 1_555 1_555
N6A Cu1 1_555 1_555
N6A_2 Cu1_2 1_555 1_555
O1E C19E 1_555 1_555
O1_2 Cu1_2 1_555 1_555
O2E C19E 1_555 1_555
O3E C23E 1_555 1_555
H14E O3E 1_555 1_555
O4E C23E 1_555 1_555
C2 N2 1_555 1_555
C3 N1 1_555 1_555
C3 N3 1_555 1_555
C7 C8 1_555 1_555
C7 N4 1_555 1_555
C13 N5 1_555 1_555
C18 N6 1_555 1_555
C19 O1 1_555 1_555
C2_2 N2_2 1_555 1_555
C3_2 N1_2 1_555 1_555
C3_2 N3_2 1_555 1_555
C7_2 C8_2 1_555 1_555
C7_2 N4_2 1_555 1_555
C11_2 N5_2 1_555 1_555
C13_2 N5_2 1_555 1_555
C18_2 N6_2 1_555 1_555
C20E C22E 1_555 1_555

#END
