
#######################################################################
#
#                 Cambridge Crystallographic Data Centre
#                                CCDC 
#
#######################################################################
#
# If this CIF has been generated from an entry in the Cambridge 
# Structural Database, then it will include bibliographic, chemical, 
# crystal, experimental, refinement or atomic coordinate data resulting 
# from the CCDC's data processing and validation procedures.
#
#######################################################################

data_XODJIK
_symmetry_cell_setting           orthorhombic
_symmetry_space_group_name_H-M   'P b c n'
_symmetry_Int_Tables_number      60
_space_group_name_Hall           '-P 2n 2ab'
loop_
_symmetry_equiv_pos_site_id
_symmetry_equiv_pos_as_xyz
1 x,y,z
2 1/2-x,1/2-y,1/2+z
3 -x,y,1/2-z
4 1/2+x,1/2-y,-z
5 -x,-y,-z
6 1/2+x,1/2+y,1/2-z
7 x,-y,1/2+z
8 1/2-x,1/2+y,z
_cell_length_a                   6.8270(1)
_cell_length_b                   14.9985(3)
_cell_length_c                   21.8388(6)
_cell_angle_alpha                90
_cell_angle_beta                 90
_cell_angle_gamma                90
_cell_volume                     2236.18
loop_
_atom_site_label
_atom_site_type_symbol
_atom_site_fract_x
_atom_site_fract_y
_atom_site_fract_z
Cu1 Cu 0.0000 0.14426(5) 0.2500
Cu2 Cu 0.22447(9) 0.08704(4) 0.45740(2)
N1 N 0.1092(6) 0.1033(2) 0.3785(2)
C1 C 0.0596(6) 0.1139(3) 0.32877(18)
N2 N 0.1329(6) 0.8409(2) 0.03223(16)
C2 C 0.1153(6) 0.7045(3) 0.08839(19)
H1 H 0.1261 0.6427 0.0883
C3 C 0.0686(5) 0.7494(3) 0.14144(18)
C4 C 0.0883(7) 0.8839(3) 0.0838(2)
H2 H 0.0813 0.9458 0.0827
C5 C 0.1456(7) 0.7523(3) 0.03553(19)
H3 H 0.1768 0.7210 0.0000
C6 C 0.0520(7) 0.8417(3) 0.1387(2)
H4 H 0.0170 0.8744 0.1732
C7 C 0.4337(7) 0.0173(3) 0.4897(2)
C8 C 0.0341(5) 0.7006(3) 0.19960(18)
N3 N 0.0000 0.7486(3) 0.2500
N4 N 0.0405(5) 0.6118(2) 0.19724(15)
N5 N 0.0000 0.2874(3) 0.2500
C9 C 0.0313(6) 0.3338(3) 0.3015(2)
H5 H 0.0546 0.3024 0.3375
C10 C 0.0000 0.4725(4) 0.2500
C11 C 0.0000 0.5710(4) 0.2500
C12 C 0.0307(6) 0.4247(3) 0.30393(19)
H6 H 0.0504 0.4542 0.3409
Cu2B Cu -0.22447(9) 0.08704(4) 0.04260(2)
Cu2F Cu 0.22447(9) 0.91296(4) -0.04260(2)
Cu2D Cu -0.22447(9) 0.91296(4) 0.54260(2)
Cu2D_2 Cu 0.77553(9) -0.08704(4) 0.54260(2)
N1B N -0.1092(6) 0.1033(2) 0.1215(2)
C1B C -0.0596(6) 0.1139(3) 0.17123(18)
N2B N -0.1329(6) 0.8409(2) 0.46777(16)
N2F N 0.1329(6) 0.1591(2) 0.53223(16)
N2D N -0.1329(6) 0.1591(2) -0.03223(16)
C2B C -0.1153(6) 0.7045(3) 0.41161(19)
H1B H -0.1261 0.6427 0.4117
C3B C -0.0686(5) 0.7494(3) 0.35856(18)
C4B C -0.0883(7) 0.8839(3) 0.4162(2)
H2B H -0.0813 0.9458 0.4173
C5B C -0.1456(7) 0.7523(3) 0.46447(19)
H3B H -0.1768 0.7210 0.5000
C6B C -0.0520(7) 0.8417(3) 0.3613(2)
H4B H -0.0170 0.8744 0.3268
C7D C 0.5663(7) -0.0173(3) 0.5103(2)
C7B C -0.4337(7) 0.0173(3) 0.0103(2)
C8B C -0.0341(5) 0.7006(3) 0.30040(18)
N4B N -0.0405(5) 0.6118(2) 0.30276(15)
C9B C -0.0313(6) 0.3338(3) 0.1985(2)
H5B H -0.0546 0.3024 0.1625
C12B C -0.0307(6) 0.4247(3) 0.19607(19)
H6B H -0.0504 0.4542 0.1591
loop_
_geom_bond_atom_site_label_1
_geom_bond_atom_site_label_2
_geom_bond_site_symmetry_1
_geom_bond_site_symmetry_2
Cu1 C1 1_555 1_555
Cu2 N1 1_555 1_555
N1 C1 1_555 1_555
N2 C4 1_555 1_555
C2 H1 1_555 1_555
C3 C2 1_555 1_555
C4 H2 1_555 1_555
C5 N2 1_555 1_555
H3 C5 1_555 1_555
C6 C3 1_555 1_555
H4 C6 1_555 1_555
C7 Cu2 1_555 1_555
C8 C3 1_555 1_555
N3 C8 1_555 1_555
N4 C8 1_555 1_555
N5 Cu1 1_555 1_555
C9 N5 1_555 1_555
H5 C9 1_555 1_555
C10 C11 1_555 1_555
C11 N4 1_555 1_555
C12 C9 1_555 1_555
H6 C12 1_555 1_555
Cu2B N1B 1_555 1_555
Cu2F N2 1_555 1_555
Cu2D N2B 1_555 1_555
Cu2D_2 C7D 1_555 1_555
N1B C1B 1_555 1_555
C1B Cu1 1_555 1_555
N2B C4B 1_555 1_555
N2F Cu2 1_555 1_555
N2D Cu2B 1_555 1_555
C2B H1B 1_555 1_555
C3B C2B 1_555 1_555
C4B H2B 1_555 1_555
C5B N2B 1_555 1_555
H3B C5B 1_555 1_555
C6B C3B 1_555 1_555
H4B C6B 1_555 1_555
C7D C7 1_555 1_555
C7B Cu2B 1_555 1_555
C8B N3 1_555 1_555
N4B C11 1_555 1_555
C9B N5 1_555 1_555
H5B C9B 1_555 1_555
C12B C10 1_555 1_555
H6B C12B 1_555 1_555
C2 C5 1_555 1_555
C4 C6 1_555 1_555
C10 C12 1_555 1_555
C2B C5B 1_555 1_555
C3B C8B 1_555 1_555
C4B C6B 1_555 1_555
C8B N4B 1_555 1_555
C9B C12B 1_555 1_555

#END
