
#######################################################################
#
#                 Cambridge Crystallographic Data Centre
#                                CCDC 
#
#######################################################################
#
# If this CIF has been generated from an entry in the Cambridge 
# Structural Database, then it will include bibliographic, chemical, 
# crystal, experimental, refinement or atomic coordinate data resulting 
# from the CCDC's data processing and validation procedures.
#
#######################################################################

data_XOFBOK
_symmetry_cell_setting           monoclinic
_symmetry_space_group_name_H-M   'P 21/c'
_symmetry_Int_Tables_number      14
_space_group_name_Hall           '-P 2ybc'
loop_
_symmetry_equiv_pos_site_id
_symmetry_equiv_pos_as_xyz
1 x,y,z
2 -x,1/2+y,1/2-z
3 -x,-y,-z
4 x,1/2-y,1/2+z
_cell_length_a                   18.9483(10)
_cell_length_b                   12.0165(7)
_cell_length_c                   33.3415(18)
_cell_angle_alpha                90
_cell_angle_beta                 98.026(2)
_cell_angle_gamma                90
_cell_volume                     7517.24
loop_
_atom_site_label
_atom_site_type_symbol
_atom_site_fract_x
_atom_site_fract_y
_atom_site_fract_z
Sn1 Sn 0.08444(3) 0.15887(6) 0.34071(2)
Sn2 Sn 0.41298(3) 0.14101(6) 0.35304(2)
Sn3 Sn -0.23994(3) 0.18513(6) 0.38580(2)
P1 P 0.24798(14) 0.2033(2) 0.29977(9)
P2 P 0.58318(14) 0.2250(2) 0.40175(9)
P3 P -0.05440(14) 0.0920(2) 0.39821(8)
O1 O -0.0170(4) 0.1122(7) 0.3626(2)
O2 O 0.1837(4) 0.2112(7) 0.3191(3)
O3 O 0.2235(5) 0.1795(8) 0.2543(3)
O4 O 0.3042(4) 0.1263(7) 0.3186(2)
O5 O 0.2831(5) 0.3206(7) 0.2998(3)
O6 O 0.5224(4) 0.1509(7) 0.3875(2)
O7 O 0.5522(4) 0.3444(6) 0.4030(2)
O8 O 0.6149(4) 0.1946(7) 0.4466(2)
O9 O 0.6454(4) 0.2257(6) 0.3790(2)
O10 O -0.1243(4) 0.1487(6) 0.3961(2)
O11 O -0.0627(4) -0.0359(6) 0.4057(2)
O12 O -0.0039(4) 0.1259(7) 0.4382(2)
C1 C 0.0311(7) 0.1405(11) 0.2814(4)
C2 C -0.0080(7) 0.0519(12) 0.2689(4)
H1 H -0.0130 -0.0050 0.2872
C3 C -0.0425(7) 0.0417(13) 0.2283(4)
H2 H -0.0670 -0.0234 0.2202
C4 C -0.0402(7) 0.1225(12) 0.2023(4)
H3 H -0.0639 0.1145 0.1761
C5 C -0.0052(7) 0.2143(12) 0.2123(4)
H4 H -0.0043 0.2714 0.1935
C6 C 0.0326(7) 0.2263(12) 0.2533(4)
H5 H 0.0576 0.2914 0.2608
C7 C 0.1327(6) 0.0172(11) 0.3704(4)
C8 C 0.1396(7) -0.0802(11) 0.3497(4)
H6 H 0.1251 -0.0823 0.3219
C9 C 0.1679(7) -0.1759(12) 0.3695(5)
H7 H 0.1720 -0.2410 0.3549
C10 C 0.1892(7) -0.1738(12) 0.4098(4)
H8 H 0.2077 -0.2381 0.4228
C11 C 0.1843(7) -0.0797(12) 0.4318(5)
H9 H 0.2000 -0.0786 0.4596
C12 C 0.1552(7) 0.0155(12) 0.4118(4)
H10 H 0.1507 0.0798 0.4267
C13 C 0.0844(7) 0.3156(11) 0.3700(4)
C14 C 0.1468(7) 0.3691(11) 0.3864(4)
H11 H 0.1906 0.3356 0.3851
C15 C 0.1442(7) 0.4712(11) 0.4047(4)
H12 H 0.1868 0.5072 0.4142
C16 C 0.0822(7) 0.5211(11) 0.4094(4)
H13 H 0.0818 0.5885 0.4231
C17 C 0.0206(7) 0.4707(11) 0.3938(4)
H14 H -0.0224 0.5055 0.3965
C18 C 0.0190(7) 0.3692(11) 0.3740(4)
H15 H -0.0241 0.3367 0.3634
C19 C 0.4164(6) -0.0341(10) 0.3616(4)
C20 C 0.3544(7) -0.0976(11) 0.3535(4)
H16 H 0.3112 -0.0633 0.3443
C21 C 0.3573(7) -0.2111(11) 0.3593(4)
H17 H 0.3156 -0.2523 0.3534
C22 C 0.4187(7) -0.2651(11) 0.3732(4)
H18 H 0.4197 -0.3422 0.3755
C23 C 0.4786(7) -0.2037(11) 0.3838(4)
H19 H 0.5200 -0.2389 0.3957
C24 C 0.4794(7) -0.0894(10) 0.3772(4)
H20 H 0.5217 -0.0497 0.3831
C25 C 0.4535(7) 0.2057(10) 0.3023(4)
C26 C 0.4818(7) 0.1385(11) 0.2763(4)
H21 H 0.4835 0.0623 0.2813
C27 C 0.5088(8) 0.1796(12) 0.2419(4)
H22 H 0.5292 0.1307 0.2252
C28 C 0.5054(7) 0.2881(11) 0.2330(4)
H23 H 0.5105 0.3153 0.2074
C29 C 0.4940(7) 0.3551(12) 0.2637(4)
H24 H 0.5070 0.4296 0.2629
C30 C 0.4634(7) 0.3163(10) 0.2969(4)
H25 H 0.4496 0.3669 0.3155
C31 C 0.3742(7) 0.2323(11) 0.3993(4)
C32 C 0.3402(7) 0.1763(12) 0.4263(4)
H26 H 0.3325 0.1001 0.4234
C33 C 0.3161(7) 0.2347(13) 0.4593(5)
H27 H 0.2966 0.1956 0.4792
C34 C 0.3216(7) 0.3413(12) 0.4613(5)
H28 H 0.3025 0.3779 0.4819
C35 C 0.3530(7) 0.4018(12) 0.4358(4)
H29 H 0.3578 0.4784 0.4391
C36 C 0.3794(7) 0.3457(11) 0.4028(4)
H30 H 0.4000 0.3866 0.3838
C37 C -0.2625(6) 0.0199(10) 0.4027(4)
C38 C -0.3145(6) -0.0388(10) 0.3779(4)
H31 H -0.3419 -0.0026 0.3565
C39 C -0.3265(7) -0.1547(11) 0.3847(4)
H32 H -0.3583 -0.1964 0.3669
C40 C -0.2894(7) -0.2004(11) 0.4184(4)
H33 H -0.3003 -0.2729 0.4250
C41 C -0.2370(7) -0.1464(11) 0.4429(4)
H34 H -0.2099 -0.1824 0.4645
C42 C -0.2257(6) -0.0336(10) 0.4343(4)
H35 H -0.1912 0.0056 0.4512
C43 C -0.2377(6) 0.2283(10) 0.3241(3)
C44 C -0.2976(7) 0.2560(10) 0.2994(4)
H36 H -0.3412 0.2551 0.3092
C45 C -0.2949(7) 0.2865(11) 0.2587(4)
H37 H -0.3368 0.3037 0.2417
C46 C -0.2322(7) 0.2908(11) 0.2443(4)
H38 H -0.2310 0.3155 0.2179
C47 C -0.1698(7) 0.2594(10) 0.2676(4)
H39 H -0.1267 0.2587 0.2572
C48 C -0.1741(6) 0.2281(10) 0.3079(4)
H40 H -0.1327 0.2065 0.3243
C49 C -0.2158(6) 0.3176(10) 0.4275(4)
C50 C -0.2278(6) 0.3150(10) 0.4677(4)
H41 H -0.2467 0.2513 0.4780
C51 C -0.2120(7) 0.4052(11) 0.4922(4)
H42 H -0.2211 0.4022 0.5188
C52 C -0.1841(7) 0.4974(11) 0.4789(4)
H43 H -0.1721 0.5564 0.4966
C53 C -0.1731(7) 0.5056(11) 0.4406(4)
H44 H -0.1558 0.5718 0.4313
C54 C -0.1876(6) 0.4145(10) 0.4136(4)
H45 H -0.1784 0.4197 0.3870
C55 C 0.2475(7) 0.4240(11) 0.2843(4)
H46 H 0.1962 0.4085 0.2799
C56 C 0.2672(8) 0.4499(13) 0.2462(5)
H47 H 0.2543 0.3893 0.2278
H48 H 0.3177 0.4618 0.2489
H49 H 0.2428 0.5162 0.2358
C57 C 0.2595(8) 0.5111(12) 0.3165(5)
H50 H 0.2418 0.4851 0.3404
H51 H 0.2348 0.5780 0.3071
H52 H 0.3096 0.5263 0.3226
C58 C 0.2404(7) 0.0888(12) 0.2313(4)
H53 H 0.2633 0.0271 0.2473
C59 C 0.1706(8) 0.0568(13) 0.2046(5)
H54 H 0.1376 0.0277 0.2213
H55 H 0.1802 0.0013 0.1853
H56 H 0.1505 0.1214 0.1904
C60 C 0.2850(9) 0.1400(14) 0.2041(5)
H57 H 0.3296 0.1622 0.2193
H58 H 0.2613 0.2042 0.1915
H59 H 0.2936 0.0875 0.1837
C61 C 0.5954(7) 0.4445(11) 0.4103(4)
H60 H 0.6439 0.4238 0.4221
C62 C 0.5627(7) 0.5132(12) 0.4398(4)
H61 H 0.5643 0.4733 0.4649
H62 H 0.5141 0.5292 0.4292
H63 H 0.5887 0.5817 0.4445
C63 C 0.5975(8) 0.5002(12) 0.3712(4)
H64 H 0.6193 0.4518 0.3536
H65 H 0.6246 0.5677 0.3755
H66 H 0.5498 0.5175 0.3590
C64 C 0.5720(7) 0.1537(11) 0.4766(4)
H67 H 0.5256 0.1331 0.4617
C65 C 0.5589(8) 0.2323(13) 0.5049(5)
H68 H 0.5349 0.2950 0.4914
H69 H 0.6032 0.2562 0.5200
H70 H 0.5295 0.2002 0.5231
C66 C 0.5994(8) 0.0607(13) 0.4953(5)
H71 H 0.6062 0.0054 0.4754
H72 H 0.5671 0.0327 0.5127
H73 H 0.6444 0.0776 0.5112
C67 C -0.0185(7) 0.2102(11) 0.4675(4)
H74 H -0.0489 0.2670 0.4528
C68 C 0.0482(8) 0.2630(13) 0.4833(5)
H75 H 0.0697 0.2936 0.4613
H76 H 0.0797 0.2089 0.4974
H77 H 0.0396 0.3215 0.5016
C69 C -0.0579(7) 0.1622(12) 0.4975(4)
H78 H -0.1022 0.1325 0.4843
H79 H -0.0674 0.2187 0.5164
H80 H -0.0304 0.1037 0.5117
C70 C -0.0626(6) -0.1168(10) 0.3728(4)
H81 H -0.0217 -0.1018 0.3586
C71 C -0.0524(8) -0.2294(11) 0.3934(4)
H82 H -0.0083 -0.2298 0.4115
H83 H -0.0513 -0.2864 0.3733
H84 H -0.0912 -0.2433 0.4085
C72 C -0.1273(7) -0.1093(11) 0.3443(4)
H85 H -0.1299 -0.0373 0.3317
H86 H -0.1677 -0.1197 0.3583
H87 H -0.1270 -0.1659 0.3240
Sn3_2 Sn 0.76006(3) 0.18513(6) 0.38580(2)
O9_2 O -0.3546(4) 0.2257(6) 0.3790(2)
loop_
_geom_bond_atom_site_label_1
_geom_bond_atom_site_label_2
_geom_bond_site_symmetry_1
_geom_bond_site_symmetry_2
Sn1 O1 1_555 1_555
Sn2 O4 1_555 1_555
Sn3 O10 1_555 1_555
P1 O2 1_555 1_555
P2 O6 1_555 1_555
P3 O1 1_555 1_555
O2 Sn1 1_555 1_555
O3 P1 1_555 1_555
O4 P1 1_555 1_555
O5 P1 1_555 1_555
O6 Sn2 1_555 1_555
O7 P2 1_555 1_555
O8 P2 1_555 1_555
O9 P2 1_555 1_555
O10 P3 1_555 1_555
O11 P3 1_555 1_555
O12 P3 1_555 1_555
C1 Sn1 1_555 1_555
C2 C1 1_555 1_555
H1 C2 1_555 1_555
C3 C2 1_555 1_555
H2 C3 1_555 1_555
C4 C3 1_555 1_555
H3 C4 1_555 1_555
C5 C4 1_555 1_555
H4 C5 1_555 1_555
C6 C1 1_555 1_555
H5 C6 1_555 1_555
C7 Sn1 1_555 1_555
C8 C7 1_555 1_555
H6 C8 1_555 1_555
C9 C8 1_555 1_555
H7 C9 1_555 1_555
C10 C9 1_555 1_555
H8 C10 1_555 1_555
C11 C10 1_555 1_555
H9 C11 1_555 1_555
C12 C7 1_555 1_555
H10 C12 1_555 1_555
C13 Sn1 1_555 1_555
C14 C13 1_555 1_555
H11 C14 1_555 1_555
C15 C14 1_555 1_555
H12 C15 1_555 1_555
C16 C15 1_555 1_555
H13 C16 1_555 1_555
C17 C16 1_555 1_555
H14 C17 1_555 1_555
C18 C13 1_555 1_555
H15 C18 1_555 1_555
C19 Sn2 1_555 1_555
C20 C19 1_555 1_555
H16 C20 1_555 1_555
C21 C20 1_555 1_555
H17 C21 1_555 1_555
C22 C21 1_555 1_555
H18 C22 1_555 1_555
C23 C22 1_555 1_555
H19 C23 1_555 1_555
C24 C19 1_555 1_555
H20 C24 1_555 1_555
C25 Sn2 1_555 1_555
C26 C25 1_555 1_555
H21 C26 1_555 1_555
C27 C26 1_555 1_555
H22 C27 1_555 1_555
C28 C27 1_555 1_555
H23 C28 1_555 1_555
C29 C28 1_555 1_555
H24 C29 1_555 1_555
C30 C25 1_555 1_555
H25 C30 1_555 1_555
C31 Sn2 1_555 1_555
C32 C31 1_555 1_555
H26 C32 1_555 1_555
C33 C32 1_555 1_555
H27 C33 1_555 1_555
C34 C33 1_555 1_555
H28 C34 1_555 1_555
C35 C34 1_555 1_555
H29 C35 1_555 1_555
C36 C31 1_555 1_555
H30 C36 1_555 1_555
C37 Sn3 1_555 1_555
C38 C37 1_555 1_555
H31 C38 1_555 1_555
C39 C38 1_555 1_555
H32 C39 1_555 1_555
C40 C39 1_555 1_555
H33 C40 1_555 1_555
C41 C40 1_555 1_555
H34 C41 1_555 1_555
C42 C37 1_555 1_555
H35 C42 1_555 1_555
C43 Sn3 1_555 1_555
C44 C43 1_555 1_555
H36 C44 1_555 1_555
C45 C44 1_555 1_555
H37 C45 1_555 1_555
C46 C45 1_555 1_555
H38 C46 1_555 1_555
C47 C46 1_555 1_555
H39 C47 1_555 1_555
C48 C43 1_555 1_555
H40 C48 1_555 1_555
C49 Sn3 1_555 1_555
C50 C49 1_555 1_555
H41 C50 1_555 1_555
C51 C50 1_555 1_555
H42 C51 1_555 1_555
C52 C51 1_555 1_555
H43 C52 1_555 1_555
C53 C52 1_555 1_555
H44 C53 1_555 1_555
C54 C49 1_555 1_555
H45 C54 1_555 1_555
C55 O5 1_555 1_555
H46 C55 1_555 1_555
C56 C55 1_555 1_555
H47 C56 1_555 1_555
H48 C56 1_555 1_555
H49 C56 1_555 1_555
C57 C55 1_555 1_555
H50 C57 1_555 1_555
H51 C57 1_555 1_555
H52 C57 1_555 1_555
C58 O3 1_555 1_555
H53 C58 1_555 1_555
C59 C58 1_555 1_555
H54 C59 1_555 1_555
H55 C59 1_555 1_555
H56 C59 1_555 1_555
C60 C58 1_555 1_555
H57 C60 1_555 1_555
H58 C60 1_555 1_555
H59 C60 1_555 1_555
C61 O7 1_555 1_555
H60 C61 1_555 1_555
C62 C61 1_555 1_555
H61 C62 1_555 1_555
H62 C62 1_555 1_555
H63 C62 1_555 1_555
C63 C61 1_555 1_555
H64 C63 1_555 1_555
H65 C63 1_555 1_555
H66 C63 1_555 1_555
C64 O8 1_555 1_555
H67 C64 1_555 1_555
C65 C64 1_555 1_555
H68 C65 1_555 1_555
H69 C65 1_555 1_555
H70 C65 1_555 1_555
C66 C64 1_555 1_555
H71 C66 1_555 1_555
H72 C66 1_555 1_555
H73 C66 1_555 1_555
C67 O12 1_555 1_555
H74 C67 1_555 1_555
C68 C67 1_555 1_555
H75 C68 1_555 1_555
H76 C68 1_555 1_555
H77 C68 1_555 1_555
C69 C67 1_555 1_555
H78 C69 1_555 1_555
H79 C69 1_555 1_555
H80 C69 1_555 1_555
C70 O11 1_555 1_555
H81 C70 1_555 1_555
C71 C70 1_555 1_555
H82 C71 1_555 1_555
H83 C71 1_555 1_555
H84 C71 1_555 1_555
C72 C70 1_555 1_555
H85 C72 1_555 1_555
H86 C72 1_555 1_555
H87 C72 1_555 1_555
Sn3_2 O9 1_555 1_555
O9_2 Sn3 1_555 1_555
C5 C6 1_555 1_555
C11 C12 1_555 1_555
C17 C18 1_555 1_555
C23 C24 1_555 1_555
C29 C30 1_555 1_555
C35 C36 1_555 1_555
C41 C42 1_555 1_555
C47 C48 1_555 1_555
C53 C54 1_555 1_555

#END
