
#######################################################################
#
#                 Cambridge Crystallographic Data Centre
#                                CCDC 
#
#######################################################################
#
# If this CIF has been generated from an entry in the Cambridge 
# Structural Database, then it will include bibliographic, chemical, 
# crystal, experimental, refinement or atomic coordinate data resulting 
# from the CCDC's data processing and validation procedures.
#
#######################################################################

data_XOFPAL
_symmetry_cell_setting           triclinic
_symmetry_space_group_name_H-M   'P -1'
_symmetry_Int_Tables_number      2
_space_group_name_Hall           '-P 1'
loop_
_symmetry_equiv_pos_site_id
_symmetry_equiv_pos_as_xyz
1 x,y,z
2 -x,-y,-z
_cell_length_a                   9.5699(3)
_cell_length_b                   11.0566(4)
_cell_length_c                   14.7236(5)
_cell_angle_alpha                94.8260(10)
_cell_angle_beta                 95.4690(10)
_cell_angle_gamma                112.8780(10)
_cell_volume                     1416.3
loop_
_atom_site_label
_atom_site_type_symbol
_atom_site_fract_x
_atom_site_fract_y
_atom_site_fract_z
C1 C 0.9354(4) 0.3452(3) 0.5766(2)
C2 C 0.8883(4) 0.2399(3) 0.6391(2)
C3 C 0.9019(4) 0.1200(3) 0.6183(2)
H1 H 0.9504 0.1075 0.5687
C4 C 0.8430(4) 0.0198(3) 0.6718(2)
C5 C 0.8464(4) -0.1129(3) 0.6476(2)
C6 C 0.7715(4) 0.0383(3) 0.7457(2)
H2 H 0.7279 -0.0302 0.7802
C7 C 0.7655(4) 0.1592(3) 0.7676(2)
C8 C 0.8234(4) 0.2622(3) 0.7160(2)
H3 H 0.8190 0.3437 0.7322
C9 C 0.6244(4) -0.5054(3) 0.7757(2)
C10 C 0.5022(4) -0.6437(3) 0.7512(2)
C11 C 0.4870(4) -0.7191(3) 0.6679(3)
H4 H 0.5488 -0.6833 0.6237
C12 C 0.3795(4) -0.8472(4) 0.6514(3)
C13 C 0.2810(4) -0.9033(4) 0.7135(3)
H5 H 0.2083 -0.9900 0.7002
C14 C 0.2932(4) -0.8271(3) 0.7961(2)
C15 C 0.4045(4) -0.6992(3) 0.8147(2)
H6 H 0.4143 -0.6493 0.8709
C16 C 0.1891(4) -0.8854(4) 0.8651(3)
N1 N 0.6913(3) 0.1806(3) 0.8459(2)
N2 N 0.3710(4) -0.9303(4) 0.5655(2)
O1 O 0.6879(3) -0.4266(3) 0.5375(2)
O2 O 1.0348(3) -0.2975(3) 0.68806(19)
O3 O 0.8968(3) 0.4396(2) 0.5906(2)
O4 O 0.7317(3) -0.4719(2) 0.72585(18)
O5 O 0.7847(3) -0.2043(2) 0.69624(16)
O6 O 0.9107(3) -0.1342(2) 0.58051(17)
O7 O 1.0095(3) 0.3326(2) 0.51520(19)
O8 O 0.7383(3) 0.2927(3) 0.88726(19)
O9 O 0.5844(3) 0.0852(3) 0.8649(2)
O10 O 0.3050(4) -1.0499(3) 0.5625(2)
O11 O 0.4295(4) -0.8752(4) 0.5022(2)
O12 O 0.6161(3) -0.4349(2) 0.84228(19)
O13 O 0.2066(3) -0.8186(3) 0.94194(19)
O14 O 0.0869(3) -1.0008(3) 0.84609(18)
O15 O 0.1367(4) -0.7999(3) 1.11195(19)
O16 O -0.1309(3) -0.9351(3) 0.9597(2)
U1 U 0.86075(2) -0.36333(2) 0.61164(2)
U2 U 0.0000 -1.0000 1.0000
C1A C -0.9354(4) -2.3452(3) 1.4234(2)
C2A C -0.8883(4) -2.2399(3) 1.3609(2)
C3A C -0.9019(4) -2.1200(3) 1.3817(2)
H1A H -0.9504 -2.1075 1.4313
C4A C -0.8430(4) -2.0198(3) 1.3282(2)
C5A C -0.8464(4) -1.8871(3) 1.3524(2)
C6A C -0.7715(4) -2.0383(3) 1.2543(2)
H2A H -0.7279 -1.9698 1.2198
C7A C -0.7655(4) -2.1592(3) 1.2324(2)
C8A C -0.8234(4) -2.2622(3) 1.2840(2)
H3A H -0.8190 -2.3437 1.2678
C9A C -0.6244(4) -1.4946(3) 1.2243(2)
C10A C -0.5022(4) -1.3563(3) 1.2488(2)
C11A C -0.4870(4) -1.2809(3) 1.3321(3)
H4A H -0.5488 -1.3167 1.3763
C12A C -0.3795(4) -1.1528(4) 1.3486(3)
C13A C -0.2810(4) -1.0967(4) 1.2865(3)
H5A H -0.2083 -1.0100 1.2998
C14A C -0.2932(4) -1.1729(3) 1.2039(2)
C15A C -0.4045(4) -1.3008(3) 1.1853(2)
H6A H -0.4143 -1.3507 1.1291
C16A C -0.1891(4) -1.1146(4) 1.1349(3)
N1A N -0.6913(3) -2.1806(3) 1.1541(2)
N2A N -0.3710(4) -1.0697(4) 1.4345(2)
O1A O -0.6879(3) -1.5734(3) 1.4625(2)
O2A O -1.0348(3) -1.7025(3) 1.31194(19)
O3A O -0.8968(3) -2.4396(2) 1.4094(2)
O4A O -0.7317(3) -1.5281(2) 1.27415(18)
O5A O -0.7847(3) -1.7957(2) 1.30376(16)
O6A O -0.9107(3) -1.8658(2) 1.41949(17)
O7A O -1.0095(3) -2.3326(2) 1.48480(19)
O8A O -0.7383(3) -2.2927(3) 1.11274(19)
O9A O -0.5844(3) -2.0852(3) 1.1351(2)
O10A O -0.3050(4) -0.9501(3) 1.4375(2)
O11A O -0.4295(4) -1.1248(4) 1.4978(2)
O12A O -0.6161(3) -1.5651(2) 1.15772(19)
O13A O -0.2066(3) -1.1814(3) 1.05806(19)
O14A O -0.0869(3) -0.9992(3) 1.15391(18)
O15A O -0.1367(4) -1.2001(3) 0.88805(19)
O16A O 0.1309(3) -1.0649(3) 1.0403(2)
U1A U -0.86075(2) -1.63667(2) 1.38836(2)
O3_2 O 0.8968(3) -0.5604(2) 0.5906(2)
O3A_2 O -0.8968(3) -1.4396(2) 1.4094(2)
O7_2 O -0.9905(3) -1.6674(2) 1.51520(19)
O7A_2 O 0.9905(3) -0.3326(2) 0.48480(19)
U1_2 U -1.13925(2) -2.36333(2) 1.61164(2)
U1_3 U 0.86075(2) 0.63667(2) 0.61164(2)
U1A_2 U -0.86075(2) -2.63667(2) 1.38836(2)
U1A_3 U 1.13925(2) 0.36333(2) 0.38836(2)
C17 C 0.2253(7) -0.4543(5) 0.8228(4)
H7 H 0.2845 -0.5069 0.8124
H8 H 0.1427 -0.4849 0.7717
C18 C 0.3956(6) -0.2868(6) 0.7306(4)
H9 H 0.3818 -0.2073 0.7175
H10 H 0.5040 -0.2602 0.7509
C19 C 0.3603(7) -0.3697(7) 0.6460(4)
H11 H 0.4330 -0.3278 0.6059
H12 H 0.2591 -0.3851 0.6179
H13 H 0.3648 -0.4527 0.6567
C20 C 0.4514(8) -0.2179(6) 0.9217(4)
H14 H 0.4988 -0.1576 0.9773
H15 H 0.5235 -0.2027 0.8784
H16 H 0.4195 -0.3073 0.9354
C21 C 0.1529(11) -0.5003(8) 0.8989(5)
H17 H 0.1078 -0.5954 0.8899
H18 H 0.0745 -0.4676 0.9054
H19 H 0.2269 -0.4694 0.9535
C22 C 0.3240(8) -0.1975(7) 0.8838(5)
H20 H 0.3463 -0.1145 0.8591
H21 H 0.2404 -0.2183 0.9203
N3 N 0.3190(8) -0.3293(5) 0.8069(4)
loop_
_geom_bond_atom_site_label_1
_geom_bond_atom_site_label_2
_geom_bond_site_symmetry_1
_geom_bond_site_symmetry_2
C1 C2 1_555 1_555
C2 C3 1_555 1_555
C3 H1 1_555 1_555
C4 C3 1_555 1_555
C5 C4 1_555 1_555
C6 C4 1_555 1_555
H2 C6 1_555 1_555
C7 C6 1_555 1_555
C8 C2 1_555 1_555
H3 C8 1_555 1_555
C9 C10 1_555 1_555
C10 C11 1_555 1_555
C11 H4 1_555 1_555
C12 C11 1_555 1_555
C13 C12 1_555 1_555
H5 C13 1_555 1_555
C14 C13 1_555 1_555
C15 C10 1_555 1_555
H6 C15 1_555 1_555
C16 C14 1_555 1_555
N1 C7 1_555 1_555
N2 C12 1_555 1_555
O1 U1 1_555 1_555
O2 U1 1_555 1_555
O3 C1 1_555 1_555
O4 C9 1_555 1_555
O5 C5 1_555 1_555
O6 C5 1_555 1_555
O7 C1 1_555 1_555
O8 N1 1_555 1_555
O9 N1 1_555 1_555
O10 N2 1_555 1_555
O11 N2 1_555 1_555
O12 C9 1_555 1_555
O13 C16 1_555 1_555
O14 C16 1_555 1_555
O15 U2 1_555 1_555
O16 U2 1_555 1_555
U1 O4 1_555 1_555
U2 O13 1_555 1_555
C17 H7 1_555 1_555
H8 C17 1_555 1_555
C18 H9 1_555 1_555
H10 C18 1_555 1_555
C19 C18 1_555 1_555
H11 C19 1_555 1_555
H12 C19 1_555 1_555
H13 C19 1_555 1_555
C20 H14 1_555 1_555
H15 C20 1_555 1_555
H16 C20 1_555 1_555
C21 C17 1_555 1_555
H17 C21 1_555 1_555
H18 C21 1_555 1_555
H19 C21 1_555 1_555
C22 C20 1_555 1_555
H20 C22 1_555 1_555
H21 C22 1_555 1_555
N3 C17 1_555 1_555
C1A C2A 1_555 1_555
C2A C3A 1_555 1_555
C3A H1A 1_555 1_555
C4A C3A 1_555 1_555
C5A C4A 1_555 1_555
C6A C4A 1_555 1_555
H2A C6A 1_555 1_555
C7A C6A 1_555 1_555
C8A C2A 1_555 1_555
H3A C8A 1_555 1_555
C9A C10A 1_555 1_555
C10A C11A 1_555 1_555
C11A H4A 1_555 1_555
C12A C11A 1_555 1_555
C13A C12A 1_555 1_555
H5A C13A 1_555 1_555
C14A C13A 1_555 1_555
C15A C10A 1_555 1_555
H6A C15A 1_555 1_555
C16A C14A 1_555 1_555
N1A C7A 1_555 1_555
N2A C12A 1_555 1_555
O1A U1A 1_555 1_555
O2A U1A 1_555 1_555
O3A C1A 1_555 1_555
O4A C9A 1_555 1_555
O5A C5A 1_555 1_555
O6A C5A 1_555 1_555
O7A C1A 1_555 1_555
O8A N1A 1_555 1_555
O9A N1A 1_555 1_555
O10A N2A 1_555 1_555
O11A N2A 1_555 1_555
O12A C9A 1_555 1_555
O13A U2 1_555 1_555
O14A U2 1_555 1_555
O15A U2 1_555 1_555
O16A U2 1_555 1_555
U1A O4A 1_555 1_555
O3_2 U1 1_555 1_555
O3A_2 U1A 1_555 1_555
O7_2 U1A 1_555 1_555
O7A_2 U1 1_555 1_555
U1_2 O7A 1_555 1_555
U1_3 O3 1_555 1_555
U1A_2 O3A 1_555 1_555
U1A_3 O7 1_555 1_555
C7 C8 1_555 1_555
C14 C15 1_555 1_555
O5 U1 1_555 1_555
O6 U1 1_555 1_555
O14 U2 1_555 1_555
C18 N3 1_555 1_555
C22 N3 1_555 1_555
C7A C8A 1_555 1_555
C14A C15A 1_555 1_555
C16A O13A 1_555 1_555
C16A O14A 1_555 1_555
O5A U1A 1_555 1_555
O6A U1A 1_555 1_555

#END
