
#######################################################################
#
#                 Cambridge Crystallographic Data Centre
#                                CCDC 
#
#######################################################################
#
# If this CIF has been generated from an entry in the Cambridge 
# Structural Database, then it will include bibliographic, chemical, 
# crystal, experimental, refinement or atomic coordinate data resulting 
# from the CCDC's data processing and validation procedures.
#
#######################################################################

data_XOFQEQ
_symmetry_cell_setting           orthorhombic
_symmetry_space_group_name_H-M   'P c c n'
_symmetry_Int_Tables_number      56
_space_group_name_Hall           '-P 2ab 2ac'
loop_
_symmetry_equiv_pos_site_id
_symmetry_equiv_pos_as_xyz
1 x,y,z
2 -x,1/2+y,1/2-z
3 1/2-x,1/2-y,z
4 1/2+x,-y,1/2-z
5 -x,-y,-z
6 x,1/2-y,1/2+z
7 1/2+x,1/2+y,-z
8 1/2-x,y,1/2+z
_cell_length_a                   31.5348(22)
_cell_length_b                   8.94052(52)
_cell_length_c                   7.79035(57)
_cell_angle_alpha                90
_cell_angle_beta                 90
_cell_angle_gamma                90
_cell_volume                     2196.39
loop_
_atom_site_label
_atom_site_type_symbol
_atom_site_fract_x
_atom_site_fract_y
_atom_site_fract_z
C1 C 0.482632 0.521824 0.555943
C2 C 0.445148 0.440023 0.556031
C3 C 0.411924 0.481772 0.663050
C4 C 0.416184 0.60532 0.769981
C5 C 0.453669 0.687120 0.769893
C6 C 0.486893 0.645372 0.662874
H1 H 0.442237 0.355584 0.482949
H2 H 0.512511 0.701279 0.662814
H3 H 0.386306 0.425865 0.663110
H4 H 0.45658 0.771560 0.842976
C7 C 0.379375 0.651573 0.888549
H5 H 0.389656 0.664118 1.002267
H6 H 0.367551 0.743105 0.849238
C8 C 0.342749 0.537939 0.897990
C9 C 0.311217 0.521432 0.780407
N1 N 0.285237 0.409766 0.835120
N2 N 0.300712 0.357259 0.986517
C10 C 0.336257 0.436475 1.025373
C11 C 0.305869 0.613091 0.614448
H7 H 0.284873 0.687842 0.631423
H8 H 0.332056 0.659275 0.585729
H9 H 0.297374 0.548782 0.523667
C12 C 0.364241 0.415044 1.185498
H10 H 0.386052 0.344947 1.160933
H11 H 0.376574 0.508065 1.21683
H12 H 0.347383 0.378881 1.277649
Cd1 Cd 0.25000 0.25000 0.66569(41)
C1D C 0.517368 0.478176 0.444057
C2D C 0.554852 0.559977 0.443969
C3D C 0.588076 0.518228 0.336950
C4D C 0.583816 0.39468 0.230019
C5D C 0.546331 0.312880 0.230107
C6D C 0.513107 0.354628 0.337126
H1D H 0.557763 0.644416 0.517051
H2D H 0.487489 0.298721 0.337186
H3D H 0.613694 0.574135 0.336890
H4D H 0.54342 0.228440 0.157024
C7D C 0.620625 0.348427 0.111451
H5D H 0.610344 0.335882 -0.002267
H6D H 0.632449 0.256895 0.150762
C8D C 0.657251 0.462061 0.102010
C9D C 0.688783 0.478568 0.219593
N1D N 0.714763 0.590234 0.164880
N2D N 0.699288 0.642741 0.013483
C10D C 0.663743 0.563525 -0.025373
C11D C 0.694131 0.386909 0.385552
H7D H 0.715127 0.312158 0.368577
H8D H 0.667944 0.340725 0.414271
H9D H 0.702626 0.451218 0.476333
C12D C 0.635759 0.584956 -0.185498
H10D H 0.613948 0.655053 -0.160933
H11D H 0.623426 0.491935 -0.21683
H12D H 0.652617 0.621119 -0.277649
N1B N 0.214763 0.090234 0.835120
N2G N 0.199288 0.357259 0.486517
N2E N 0.300712 0.142741 0.486517
Cd1D Cd 0.75000 0.75000 0.33431(41)
Cd1A Cd 0.75000 0.75000 -0.16569(41)
Cd1G Cd 0.25000 0.25000 1.16569(41)
loop_
_geom_bond_atom_site_label_1
_geom_bond_atom_site_label_2
_geom_bond_site_symmetry_1
_geom_bond_site_symmetry_2
C1 C2 1_555 1_555
C2 C3 1_555 1_555
C3 C4 1_555 1_555
C4 C5 1_555 1_555
C5 C6 1_555 1_555
C6 C1 1_555 1_555
H1 C2 1_555 1_555
H2 C6 1_555 1_555
H3 C3 1_555 1_555
H4 C5 1_555 1_555
C7 C4 1_555 1_555
H5 C7 1_555 1_555
H6 C7 1_555 1_555
C8 C7 1_555 1_555
C9 C8 1_555 1_555
N1 C9 1_555 1_555
N2 N1 1_555 1_555
C10 C8 1_555 1_555
C11 C9 1_555 1_555
H7 C11 1_555 1_555
H8 C11 1_555 1_555
H9 C11 1_555 1_555
C12 C10 1_555 1_555
H10 C12 1_555 1_555
H11 C12 1_555 1_555
H12 C12 1_555 1_555
Cd1 N1 1_555 1_555
C1D C1 1_555 1_555
C2D C1D 1_555 1_555
C3D C2D 1_555 1_555
C4D C3D 1_555 1_555
C5D C4D 1_555 1_555
C6D C1D 1_555 1_555
H1D C2D 1_555 1_555
H2D C6D 1_555 1_555
H3D C3D 1_555 1_555
H4D C5D 1_555 1_555
C7D C4D 1_555 1_555
H5D C7D 1_555 1_555
H6D C7D 1_555 1_555
C8D C7D 1_555 1_555
C9D C8D 1_555 1_555
N1D C9D 1_555 1_555
N2D N1D 1_555 1_555
C10D C8D 1_555 1_555
C11D C9D 1_555 1_555
H7D C11D 1_555 1_555
H8D C11D 1_555 1_555
H9D C11D 1_555 1_555
C12D C10D 1_555 1_555
H10D C12D 1_555 1_555
H11D C12D 1_555 1_555
H12D C12D 1_555 1_555
N1B Cd1 1_555 1_555
N2G Cd1 1_555 1_555
N2E Cd1 1_555 1_555
Cd1D N1D 1_555 1_555
Cd1A N2D 1_555 1_555
Cd1G N2 1_555 1_555
N2 C10 1_555 1_555
C5D C6D 1_555 1_555
N2D C10D 1_555 1_555

#END
