
#######################################################################
#
#                 Cambridge Crystallographic Data Centre
#                                CCDC 
#
#######################################################################
#
# If this CIF has been generated from an entry in the Cambridge 
# Structural Database, then it will include bibliographic, chemical, 
# crystal, experimental, refinement or atomic coordinate data resulting 
# from the CCDC's data processing and validation procedures.
#
#######################################################################

data_XOFQEQ01
_symmetry_cell_setting           orthorhombic
_symmetry_space_group_name_H-M   'P c c n'
_symmetry_Int_Tables_number      56
_space_group_name_Hall           '-P 2ab 2ac'
loop_
_symmetry_equiv_pos_site_id
_symmetry_equiv_pos_as_xyz
1 x,y,z
2 -x,1/2+y,1/2-z
3 1/2-x,1/2-y,z
4 1/2+x,-y,1/2-z
5 -x,-y,-z
6 x,1/2-y,1/2+z
7 1/2+x,1/2+y,-z
8 1/2-x,y,1/2+z
_cell_length_a                   31.5648(23)
_cell_length_b                   8.99207(63)
_cell_length_c                   7.79218(54)
_cell_angle_alpha                90
_cell_angle_beta                 90
_cell_angle_gamma                90
_cell_volume                     2211.68
loop_
_atom_site_label
_atom_site_type_symbol
_atom_site_fract_x
_atom_site_fract_y
_atom_site_fract_z
C1 C 0.481412 0.522127 0.558678
C2 C 0.445143 0.434593 0.564304
C3 C 0.411587 0.474536 0.670229
C4 C 0.414301 0.602013 0.770526
C5 C 0.450570 0.689547 0.764900
C6 C 0.484126 0.649604 0.658975
H1 H 0.443288 0.347468 0.495756
H2 H 0.508914 0.709429 0.655129
H3 H 0.386799 0.414711 0.674074
H4 H 0.452425 0.776671 0.833448
C7 C 0.377126 0.646264 0.887875
H5 H 0.387111 0.658926 1.001956
H6 H 0.365098 0.736863 0.848390
C8 C 0.341087 0.530992 0.894741
C9 C 0.310493 0.511382 0.773949
N1 N 0.284762 0.399194 0.827215
N2 N 0.299454 0.349468 0.980926
C10 C 0.334265 0.430923 1.02266
C11 C 0.305808 0.600556 0.606290
H7 H 0.297642 0.535573 0.516034
H8 H 0.284796 0.675146 0.620784
H9 H 0.332091 0.646037 0.578480
C12 C 0.361224 0.412995 1.186075
H10 H 0.343192 0.395283 1.281522
H11 H 0.380045 0.331405 1.172423
H12 H 0.377091 0.501222 1.205231
Cd1 Cd 0.250 0.250 0.65867(41)
C1D C 0.518588 0.477873 0.441322
C2D C 0.554857 0.565407 0.435696
C3D C 0.588413 0.525464 0.329771
C4D C 0.585699 0.397987 0.229474
C5D C 0.549430 0.310453 0.235100
C6D C 0.515874 0.350396 0.341025
H1D H 0.556712 0.652532 0.504244
H2D H 0.491086 0.290571 0.344871
H3D H 0.613201 0.585289 0.325926
H4D H 0.547575 0.223329 0.166552
C7D C 0.622874 0.353736 0.112125
H5D H 0.612889 0.341074 -0.001956
H6D H 0.634902 0.263137 0.151610
C8D C 0.658913 0.469008 0.105259
C9D C 0.689507 0.488618 0.226051
N1D N 0.715238 0.600806 0.172785
N2D N 0.700546 0.650532 0.019074
C10D C 0.665735 0.569077 -0.02266
C11D C 0.694192 0.399444 0.393710
H7D H 0.702358 0.464427 0.483966
H8D H 0.715204 0.324854 0.379216
H9D H 0.667909 0.353963 0.421520
C12D C 0.638776 0.587005 -0.186075
H10D H 0.656808 0.604717 -0.281522
H11D H 0.619955 0.668595 -0.172423
H12D H 0.622909 0.498778 -0.205231
N1B N 0.215238 0.100806 0.827215
N2G N 0.200546 0.349468 0.480926
N2E N 0.299454 0.150532 0.480926
Cd1D Cd 0.750 0.750 0.34133(41)
Cd1A Cd 0.750 0.750 -0.15867(41)
Cd1G Cd 0.250 0.250 1.15867(41)
loop_
_geom_bond_atom_site_label_1
_geom_bond_atom_site_label_2
_geom_bond_site_symmetry_1
_geom_bond_site_symmetry_2
C1 C2 1_555 1_555
C2 C3 1_555 1_555
C3 C4 1_555 1_555
C4 C5 1_555 1_555
C5 C6 1_555 1_555
C6 C1 1_555 1_555
H1 C2 1_555 1_555
H2 C6 1_555 1_555
H3 C3 1_555 1_555
H4 C5 1_555 1_555
C7 C4 1_555 1_555
H5 C7 1_555 1_555
H6 C7 1_555 1_555
C8 C7 1_555 1_555
C9 C8 1_555 1_555
N1 C9 1_555 1_555
N2 N1 1_555 1_555
C10 C8 1_555 1_555
C11 C9 1_555 1_555
H7 C11 1_555 1_555
H8 C11 1_555 1_555
H9 C11 1_555 1_555
C12 C10 1_555 1_555
H10 C12 1_555 1_555
H11 C12 1_555 1_555
H12 C12 1_555 1_555
Cd1 N1 1_555 1_555
C1D C1 1_555 1_555
C2D C1D 1_555 1_555
C3D C2D 1_555 1_555
C4D C3D 1_555 1_555
C5D C4D 1_555 1_555
C6D C1D 1_555 1_555
H1D C2D 1_555 1_555
H2D C6D 1_555 1_555
H3D C3D 1_555 1_555
H4D C5D 1_555 1_555
C7D C4D 1_555 1_555
H5D C7D 1_555 1_555
H6D C7D 1_555 1_555
C8D C7D 1_555 1_555
C9D C8D 1_555 1_555
N1D C9D 1_555 1_555
N2D N1D 1_555 1_555
C10D C8D 1_555 1_555
C11D C9D 1_555 1_555
H7D C11D 1_555 1_555
H8D C11D 1_555 1_555
H9D C11D 1_555 1_555
C12D C10D 1_555 1_555
H10D C12D 1_555 1_555
H11D C12D 1_555 1_555
H12D C12D 1_555 1_555
N1B Cd1 1_555 1_555
N2G Cd1 1_555 1_555
N2E Cd1 1_555 1_555
Cd1D N1D 1_555 1_555
Cd1A N2D 1_555 1_555
Cd1G N2 1_555 1_555
N2 C10 1_555 1_555
C5D C6D 1_555 1_555
N2D C10D 1_555 1_555

#END
