
#######################################################################
#
#                 Cambridge Crystallographic Data Centre
#                                CCDC 
#
#######################################################################
#
# If this CIF has been generated from an entry in the Cambridge 
# Structural Database, then it will include bibliographic, chemical, 
# crystal, experimental, refinement or atomic coordinate data resulting 
# from the CCDC's data processing and validation procedures.
#
#######################################################################

data_XOFRER
_symmetry_cell_setting           orthorhombic
_symmetry_space_group_name_H-M   'P c c n'
_symmetry_Int_Tables_number      56
_space_group_name_Hall           '-P 2ab 2ac'
loop_
_symmetry_equiv_pos_site_id
_symmetry_equiv_pos_as_xyz
1 x,y,z
2 -x,1/2+y,1/2-z
3 1/2-x,1/2-y,z
4 1/2+x,-y,1/2-z
5 -x,-y,-z
6 x,1/2-y,1/2+z
7 1/2+x,1/2+y,-z
8 1/2-x,y,1/2+z
_cell_length_a                   31.6272(31)
_cell_length_b                   9.10570(78)
_cell_length_c                   7.36946(61)
_cell_angle_alpha                90
_cell_angle_beta                 90
_cell_angle_gamma                90
_cell_volume                     2122.31
loop_
_atom_site_label
_atom_site_type_symbol
_atom_site_fract_x
_atom_site_fract_y
_atom_site_fract_z
C1 C 0.481546 0.52014 0.556358
C2 C 0.444676 0.437401 0.547040
C3 C 0.409986 0.475260 0.652981
C4 C 0.412166 0.595857 0.768239
C5 C 0.449036 0.678596 0.777557
C6 C 0.483726 0.640738 0.671616
H1 H 0.443186 0.354978 0.468267
H2 H 0.508925 0.697286 0.677984
H3 H 0.384787 0.418711 0.646613
H4 H 0.450526 0.761019 0.856330
C7 C 0.373732 0.637801 0.885612
H5 H 0.382297 0.647491 1.00859
H6 H 0.362376 0.728417 0.844299
C8 C 0.337323 0.525532 0.882493
C9 C 0.307392 0.512782 0.750934
N1 N 0.281026 0.401098 0.797947
N2 N 0.294663 0.344823 0.958562
C10 C 0.329456 0.421728 1.010814
C11 C 0.303957 0.608080 0.578926
H7 H 0.330198 0.655743 0.557313
H8 H 0.297100 0.547644 0.478051
H9 H 0.282451 0.679722 0.595156
C12 C 0.355393 0.395817 1.184749
H10 H 0.360800 0.293786 1.198392
H11 H 0.381453 0.447273 1.176576
H12 H 0.339948 0.430384 1.286729
Zn1 Zn 0.25000 0.25000 0.6394(10)
C1D C 0.518454 0.47986 0.443642
C2D C 0.555324 0.562599 0.452960
C3D C 0.590014 0.524740 0.347019
C4D C 0.587834 0.404143 0.231761
C5D C 0.550964 0.321404 0.222443
C6D C 0.516274 0.359262 0.328384
H1D H 0.556814 0.645022 0.531733
H2D H 0.491075 0.302714 0.322016
H3D H 0.615213 0.581289 0.353387
H4D H 0.549474 0.238981 0.143670
C7D C 0.626268 0.362199 0.114388
H5D H 0.617703 0.352509 -0.00859
H6D H 0.637624 0.271583 0.155701
C8D C 0.662677 0.474468 0.117507
C9D C 0.692608 0.487218 0.249066
N1D N 0.718974 0.598902 0.202053
N2D N 0.705337 0.655177 0.041438
C10D C 0.670544 0.578272 -0.010814
C11D C 0.696043 0.391920 0.421074
H7D H 0.669802 0.344257 0.442687
H8D H 0.702900 0.452356 0.521949
H9D H 0.717549 0.320278 0.404844
C12D C 0.644607 0.604183 -0.184749
H10D H 0.639200 0.706214 -0.198392
H11D H 0.618547 0.552727 -0.176576
H12D H 0.660052 0.569616 -0.286729
N1B N 0.218974 0.098902 0.797947
N2G N 0.205337 0.344823 0.458562
N2E N 0.294663 0.155177 0.458562
Zn1D Zn 0.75000 0.75000 0.3606(10)
Zn1A Zn 0.75000 0.75000 -0.1394(10)
Zn1G Zn 0.25000 0.25000 1.1394(10)
loop_
_geom_bond_atom_site_label_1
_geom_bond_atom_site_label_2
_geom_bond_site_symmetry_1
_geom_bond_site_symmetry_2
C1 C2 1_555 1_555
C2 C3 1_555 1_555
C3 C4 1_555 1_555
C4 C5 1_555 1_555
C5 C6 1_555 1_555
C6 C1 1_555 1_555
H1 C2 1_555 1_555
H2 C6 1_555 1_555
H3 C3 1_555 1_555
H4 C5 1_555 1_555
C7 C4 1_555 1_555
H5 C7 1_555 1_555
H6 C7 1_555 1_555
C8 C7 1_555 1_555
C9 C8 1_555 1_555
N1 C9 1_555 1_555
N2 N1 1_555 1_555
C10 C8 1_555 1_555
C11 C9 1_555 1_555
H7 C11 1_555 1_555
H8 C11 1_555 1_555
H9 C11 1_555 1_555
C12 C10 1_555 1_555
H10 C12 1_555 1_555
H11 C12 1_555 1_555
H12 C12 1_555 1_555
Zn1 N1 1_555 1_555
C1D C1 1_555 1_555
C2D C1D 1_555 1_555
C3D C2D 1_555 1_555
C4D C3D 1_555 1_555
C5D C4D 1_555 1_555
C6D C1D 1_555 1_555
H1D C2D 1_555 1_555
H2D C6D 1_555 1_555
H3D C3D 1_555 1_555
H4D C5D 1_555 1_555
C7D C4D 1_555 1_555
H5D C7D 1_555 1_555
H6D C7D 1_555 1_555
C8D C7D 1_555 1_555
C9D C8D 1_555 1_555
N1D C9D 1_555 1_555
N2D N1D 1_555 1_555
C10D C8D 1_555 1_555
C11D C9D 1_555 1_555
H7D C11D 1_555 1_555
H8D C11D 1_555 1_555
H9D C11D 1_555 1_555
C12D C10D 1_555 1_555
H10D C12D 1_555 1_555
H11D C12D 1_555 1_555
H12D C12D 1_555 1_555
N1B Zn1 1_555 1_555
N2G Zn1 1_555 1_555
N2E Zn1 1_555 1_555
Zn1D N1D 1_555 1_555
Zn1A N2D 1_555 1_555
Zn1G N2 1_555 1_555
N2 C10 1_555 1_555
C5D C6D 1_555 1_555
N2D C10D 1_555 1_555

#END
