
#######################################################################
#
#                 Cambridge Crystallographic Data Centre
#                                CCDC 
#
#######################################################################
#
# If this CIF has been generated from an entry in the Cambridge 
# Structural Database, then it will include bibliographic, chemical, 
# crystal, experimental, refinement or atomic coordinate data resulting 
# from the CCDC's data processing and validation procedures.
#
#######################################################################

data_XOFTIW
_symmetry_cell_setting           monoclinic
_symmetry_space_group_name_H-M   'P 21/m'
_symmetry_Int_Tables_number      11
_space_group_name_Hall           '-P 2yb'
loop_
_symmetry_equiv_pos_site_id
_symmetry_equiv_pos_as_xyz
1 x,y,z
2 -x,1/2+y,-z
3 -x,-y,-z
4 x,1/2-y,z
_cell_length_a                   7.1054(3)
_cell_length_b                   24.9477(10)
_cell_length_c                   18.2419(9)
_cell_angle_alpha                90
_cell_angle_beta                 99.522(2)
_cell_angle_gamma                90
_cell_volume                     3189.07
loop_
_atom_site_label
_atom_site_type_symbol
_atom_site_fract_x
_atom_site_fract_y
_atom_site_fract_z
Ce1 Ce 0.22118(4) 0.401409(11) -0.983800(13)
Cu1 Cu -0.25102(12) 0.31684(5) -0.55361(4)
Cu2 Cu -0.23017(15) 0.2500 -0.43386(6)
Cu3 Cu -0.17371(11) 0.41986(3) -0.43896(4)
Cu4 Cu -0.37816(11) 0.50769(3) -0.54422(4)
I1 I -0.52523(7) 0.2500 -0.55811(3)
I2 I 0.01830(5) 0.329851(13) -0.442865(18)
I3 I -0.50922(5) 0.410763(13) -0.529581(18)
I4 I 0.0000 0.5000 -0.5000
C1 C 0.0535(9) 0.3624(2) -0.8542(3)
C2 C -0.0242(8) 0.3514(2) -0.7830(3)
C3 C -0.2131(10) 0.3415(3) -0.7829(3)
H1 H -0.2989 0.3410 -0.8273
C4 C -0.2759(9) 0.3322(3) -0.7162(3)
H2 H -0.4049 0.3253 -0.7172
C5 C 0.0231(9) 0.3433(3) -0.6513(3)
H3 H 0.1059 0.3443 -0.6061
C6 C 0.0961(9) 0.3528(3) -0.7152(3)
H4 H 0.2252 0.3602 -0.7130
C7 C -0.6301(13) 0.2500 -0.1455(4)
C8 C -0.5291(11) 0.2500 -0.2134(4)
C9 C -0.6328(11) 0.2500 -0.2846(4)
H5 H -0.7654 0.2500 -0.2912
C10 C -0.5429(11) 0.2500 -0.3457(4)
H6 H -0.6173 0.2500 -0.3927
C11 C -0.2521(12) 0.2500 -0.2721(4)
H7 H -0.1196 0.2500 -0.2667
C12 C -0.3342(11) 0.2500 -0.2084(4)
H8 H -0.2570 0.2500 -0.1620
C13 C -0.1441(7) 0.4716(2) -0.0976(3)
C14 C -0.1469(6) 0.45943(19) -0.1789(2)
C15 C -0.1756(8) 0.4995(2) -0.2313(3)
H9 H -0.1942 0.5346 -0.2172
C16 C -0.1765(8) 0.4871(2) -0.3051(3)
H10 H -0.1937 0.5147 -0.3399
C17 C -0.1274(8) 0.3984(2) -0.2778(3)
H11 H -0.1126 0.3634 -0.2934
C18 C -0.1212(8) 0.4078(2) -0.2031(3)
H12 H -0.0999 0.3797 -0.1692
C19 C 0.3275(8) 0.4329(2) -1.1246(3)
C20 C 0.3461(7) 0.4476(2) -1.2031(3)
C21 C 0.3262(8) 0.4996(2) -1.2278(3)
H13 H 0.3052 0.5270 -1.1955
C22 C 0.3377(9) 0.5106(2) -1.3010(3)
H14 H 0.3205 0.5457 -1.3177
C23 C 0.3902(8) 0.4223(2) -1.3250(3)
H15 H 0.4120 0.3957 -1.3582
C24 C 0.3776(8) 0.4080(2) -1.2532(3)
H16 H 0.3900 0.3723 -1.2384
N1 N -0.1616(7) 0.3326(2) -0.6507(2)
N2 N -0.3520(9) 0.2500 -0.3405(3)
N3 N -0.1536(6) 0.43710(17) -0.3288(2)
N4 N 0.3725(6) 0.47272(19) -1.3490(2)
O1 O -0.0597(7) 0.3703(2) -0.9128(2)
O2 O 0.4544(10) 0.3202(2) -0.9656(3)
O3 O 0.2307(6) 0.3641(2) -0.8508(2)
O4 O 0.5678(6) 0.42887(19) -0.9416(2)
O5 O -0.8050(9) 0.2500 -0.1553(3)
O6 O 0.0639(9) 0.31801(19) -1.0486(3)
O7 O -0.5254(9) 0.2500 -0.0836(3)
O9 O -0.2092(6) 0.51652(15) -0.0831(2)
O11 O -0.0793(6) 0.43698(15) -0.05058(19)
O12 O 0.3012(6) 0.46955(16) -1.08011(19)
O13 O 0.3335(7) 0.38448(17) -1.1068(2)
Ce1C Ce 0.22118(4) 0.098591(11) -0.983800(13)
Ce1B Ce -0.22118(4) 0.598591(11) -0.016200(13)
Ce1_2 Ce 0.22118(4) 0.401409(11) 0.016200(13)
Ce1A Ce -0.22118(4) -0.098591(11) -0.016200(13)
Ce1C_2 Ce 0.22118(4) 0.098591(11) 0.016200(13)
Ce1B_2 Ce -0.22118(4) 0.598591(11) -1.016200(13)
Cu1C Cu -0.25102(12) 0.18316(5) -0.55361(4)
Cu3C Cu -0.17371(11) 0.08014(3) -0.43896(4)
Cu3B Cu 0.17371(11) 0.58014(3) -0.56104(4)
Cu4C Cu -0.37816(11) -0.00769(3) -0.54422(4)
Cu4B Cu -0.62184(11) 0.49231(3) -0.45578(4)
Cu4B_2 Cu 0.37816(11) 0.49231(3) -0.45578(4)
Cu4B_3 Cu 0.37816(11) 0.49231(3) -1.45578(4)
Cu4A Cu -0.62184(11) 0.00769(3) -0.45578(4)
I2C I 0.01830(5) 0.170149(13) -0.442865(18)
I3C I -0.50922(5) 0.089237(13) -0.529581(18)
I3B I -0.49078(5) 0.589237(13) -0.470419(18)
I3A I -0.49078(5) -0.089237(13) -0.470419(18)
I4C I 0.0000 0.0000 -0.5000
C1C C 0.0535(9) 0.1376(2) -0.8542(3)
C2C C -0.0242(8) 0.1486(2) -0.7830(3)
C3C C -0.2131(10) 0.1585(3) -0.7829(3)
H1C H -0.2989 0.1590 -0.8273
C4C C -0.2759(9) 0.1678(3) -0.7162(3)
H2C H -0.4049 0.1747 -0.7172
C5C C 0.0231(9) 0.1567(3) -0.6513(3)
H3C H 0.1059 0.1557 -0.6061
C6C C 0.0961(9) 0.1472(3) -0.7152(3)
H4C H 0.2252 0.1398 -0.7130
C13C C -0.1441(7) 0.0284(2) -0.0976(3)
C14C C -0.1469(6) 0.04057(19) -0.1789(2)
C15C C -0.1756(8) 0.0005(2) -0.2313(3)
H9C H -0.1942 -0.0346 -0.2172
C16C C -0.1765(8) 0.0129(2) -0.3051(3)
H10C H -0.1937 -0.0147 -0.3399
C17C C -0.1274(8) 0.1016(2) -0.2778(3)
H11C H -0.1126 0.1366 -0.2934
C18C C -0.1212(8) 0.0922(2) -0.2031(3)
H12C H -0.0999 0.1203 -0.1692
C19B C -0.3275(8) 0.5671(2) -0.8754(3)
C20B C -0.3461(7) 0.5524(2) -0.7969(3)
C21B C -0.3262(8) 0.5004(2) -0.7722(3)
H13B H -0.3052 0.4730 -0.8045
C22B C -0.3377(9) 0.4894(2) -0.6990(3)
H14B H -0.3205 0.4543 -0.6823
C23B C -0.3902(8) 0.5777(2) -0.6750(3)
H15B H -0.4120 0.6043 -0.6418
C24B C -0.3776(8) 0.5920(2) -0.7468(3)
H16B H -0.3900 0.6277 -0.7616
N1C N -0.1616(7) 0.1674(2) -0.6507(2)
N3C N -0.1536(6) 0.06290(17) -0.3288(2)
N4B N -0.3725(6) 0.52728(19) -0.6510(2)
N4A N -0.3725(6) -0.02728(19) -0.6510(2)
O1C O -0.0597(7) 0.1297(2) -0.9128(2)
O2C O 0.4544(10) 0.1798(2) -0.9656(3)
O3C O 0.2307(6) 0.1359(2) -0.8508(2)
O4C O 0.5678(6) 0.07113(19) -0.9416(2)
O6C O 0.0639(9) 0.18199(19) -1.0486(3)
O9C O -0.2092(6) -0.01652(15) -0.0831(2)
O9B O 0.2092(6) 0.48348(15) -0.9169(2)
O9A O 0.2092(6) 0.01652(15) -0.9169(2)
O11C O -0.0793(6) 0.06302(15) -0.05058(19)
O11_2 O -0.0793(6) 0.43698(15) -1.05058(19)
O11C_2 O -0.0793(6) 0.06302(15) -1.05058(19)
O12B O -0.3012(6) 0.53045(16) -0.91989(19)
O12C O 0.3012(6) 0.03045(16) -1.08011(19)
O13B O -0.3335(7) 0.61552(17) -0.8932(2)
O13C O 0.3335(7) 0.11552(17) -1.1068(2)
O8 O -0.1702(17) 0.2500 -0.9904(9)
O10 O 0.3828(15) 0.2500 -0.8383(5)
loop_
_geom_bond_atom_site_label_1
_geom_bond_atom_site_label_2
_geom_bond_site_symmetry_1
_geom_bond_site_symmetry_2
Ce1 O1 1_555 1_555
Cu1 I1 1_555 1_555
Cu2 I1 1_555 1_555
Cu3 I2 1_555 1_555
Cu4 I3 1_555 1_555
I1 Cu1C 1_555 1_555
I2 Cu1 1_555 1_555
I3 Cu3 1_555 1_555
I4 Cu3 1_555 1_555
C1 C2 1_555 1_555
C2 C3 1_555 1_555
C3 H1 1_555 1_555
C4 C3 1_555 1_555
H2 C4 1_555 1_555
C5 H3 1_555 1_555
C6 C2 1_555 1_555
H4 C6 1_555 1_555
C7 C8 1_555 1_555
C8 C9 1_555 1_555
C9 H5 1_555 1_555
C10 C9 1_555 1_555
H6 C10 1_555 1_555
C11 H7 1_555 1_555
C12 C8 1_555 1_555
H8 C12 1_555 1_555
C13 C14 1_555 1_555
C14 C15 1_555 1_555
C15 H9 1_555 1_555
C16 C15 1_555 1_555
H10 C16 1_555 1_555
C17 H11 1_555 1_555
C18 C14 1_555 1_555
H12 C18 1_555 1_555
C19 C20 1_555 1_555
C20 C21 1_555 1_555
C21 H13 1_555 1_555
C22 C21 1_555 1_555
H14 C22 1_555 1_555
C23 H15 1_555 1_555
C24 C20 1_555 1_555
H16 C24 1_555 1_555
N1 Cu1 1_555 1_555
N2 Cu2 1_555 1_555
N3 Cu3 1_555 1_555
N4 C22 1_555 1_555
O1 C1 1_555 1_555
O2 Ce1 1_555 1_555
O3 Ce1 1_555 1_555
O4 Ce1 1_555 1_555
O5 C7 1_555 1_555
O6 Ce1 1_555 1_555
O7 C7 1_555 1_555
O9 C13 1_555 1_555
O11 C13 1_555 1_555
O12 Ce1 1_555 1_555
O13 Ce1 1_555 1_555
Ce1C O1C 1_555 1_555
Ce1B O9 1_555 1_555
Ce1_2 O11 1_555 1_555
Ce1A O9C 1_555 1_555
Ce1C_2 O11C 1_555 1_555
Ce1B_2 O12B 1_555 1_555
Cu1C I2C 1_555 1_555
Cu3C I2C 1_555 1_555
Cu3B I4 1_555 1_555
Cu4C I3C 1_555 1_555
Cu4B I3 1_555 1_555
Cu4B_2 I4 1_555 1_555
Cu4B_3 N4 1_555 1_555
Cu4A I3C 1_555 1_555
I2C Cu2 1_555 1_555
I3C Cu3C 1_555 1_555
I3B Cu4 1_555 1_555
I3A Cu4C 1_555 1_555
I4C Cu3C 1_555 1_555
C1C C2C 1_555 1_555
C2C C3C 1_555 1_555
C3C H1C 1_555 1_555
C4C C3C 1_555 1_555
H2C C4C 1_555 1_555
C5C H3C 1_555 1_555
C6C C2C 1_555 1_555
H4C C6C 1_555 1_555
C13C C14C 1_555 1_555
C14C C15C 1_555 1_555
C15C H9C 1_555 1_555
C16C C15C 1_555 1_555
H10C C16C 1_555 1_555
C17C H11C 1_555 1_555
C18C C14C 1_555 1_555
H12C C18C 1_555 1_555
C19B C20B 1_555 1_555
C20B C21B 1_555 1_555
C21B H13B 1_555 1_555
C22B C21B 1_555 1_555
H14B C22B 1_555 1_555
C23B H15B 1_555 1_555
C24B C20B 1_555 1_555
H16B C24B 1_555 1_555
N1C Cu1C 1_555 1_555
N3C Cu3C 1_555 1_555
N4B Cu4 1_555 1_555
N4A Cu4C 1_555 1_555
O1C C1C 1_555 1_555
O2C Ce1C 1_555 1_555
O3C Ce1C 1_555 1_555
O4C Ce1C 1_555 1_555
O6C Ce1C 1_555 1_555
O9C C13C 1_555 1_555
O9B Ce1 1_555 1_555
O9A Ce1C 1_555 1_555
O11C C13C 1_555 1_555
O11_2 Ce1 1_555 1_555
O11C_2 Ce1C 1_555 1_555
O12B C19B 1_555 1_555
O12C Ce1C 1_555 1_555
O13B Ce1B_2 1_555 1_555
O13C Ce1C 1_555 1_555
Cu2 I2 1_555 1_555
Cu4 I4 1_555 1_555
C1 O3 1_555 1_555
C4 N1 1_555 1_555
C5 C6 1_555 1_555
C5 N1 1_555 1_555
C10 N2 1_555 1_555
C11 C12 1_555 1_555
C11 N2 1_555 1_555
C16 N3 1_555 1_555
C17 C18 1_555 1_555
C17 N3 1_555 1_555
C19 O12 1_555 1_555
C19 O13 1_555 1_555
C23 C24 1_555 1_555
C23 N4 1_555 1_555
Cu4C I4C 1_555 1_555
Cu4B I3B 1_555 1_555
Cu4A I3A 1_555 1_555
C1C O3C 1_555 1_555
C4C N1C 1_555 1_555
C5C C6C 1_555 1_555
C5C N1C 1_555 1_555
C16C N3C 1_555 1_555
C17C C18C 1_555 1_555
C17C N3C 1_555 1_555
C19B O13B 1_555 1_555
C22B N4B 1_555 1_555
C23B C24B 1_555 1_555
C23B N4B 1_555 1_555

#END
