
#######################################################################
#
#                 Cambridge Crystallographic Data Centre
#                                CCDC 
#
#######################################################################
#
# If this CIF has been generated from an entry in the Cambridge 
# Structural Database, then it will include bibliographic, chemical, 
# crystal, experimental, refinement or atomic coordinate data resulting 
# from the CCDC's data processing and validation procedures.
#
#######################################################################

data_XOFTOC
_symmetry_cell_setting           monoclinic
_symmetry_space_group_name_H-M   'P 21/m'
_symmetry_Int_Tables_number      11
_space_group_name_Hall           '-P 2yb'
loop_
_symmetry_equiv_pos_site_id
_symmetry_equiv_pos_as_xyz
1 x,y,z
2 -x,1/2+y,-z
3 -x,-y,-z
4 x,1/2-y,z
_cell_length_a                   7.0807(5)
_cell_length_b                   24.8237(18)
_cell_length_c                   18.1874(12)
_cell_angle_alpha                90
_cell_angle_beta                 99.022(3)
_cell_angle_gamma                90
_cell_volume                     3157.23
loop_
_atom_site_label
_atom_site_type_symbol
_atom_site_fract_x
_atom_site_fract_y
_atom_site_fract_z
Sm1 Sm 0.21755(5) 0.402620(12) -0.984331(16)
Cu1 Cu -0.24945(15) 0.31649(6) -0.55362(6)
Cu2 Cu -0.23019(19) 0.2500 -0.43285(7)
Cu3 Cu -0.17511(14) 0.41957(4) -0.43904(5)
Cu4 Cu -0.37790(14) 0.50784(4) -0.54483(5)
I1 I -0.52586(9) 0.2500 -0.55746(4)
I2 I 0.01945(6) 0.329805(16) -0.44317(2)
I3 I -0.50937(6) 0.410528(15) -0.52974(2)
I4 I 0.0000 0.5000 -0.5000
C1 C 0.0529(11) 0.3645(3) -0.8562(4)
C2 C -0.0246(10) 0.3522(3) -0.7851(4)
C3 C -0.2139(12) 0.3421(4) -0.7844(4)
H1 H -0.3001 0.3417 -0.8286
C4 C -0.2761(12) 0.3323(4) -0.7166(4)
H2 H -0.4053 0.3253 -0.7169
C5 C 0.0238(11) 0.3432(4) -0.6530(4)
H3 H 0.1074 0.3441 -0.6082
C6 C 0.0961(11) 0.3530(4) -0.7171(4)
H4 H 0.2257 0.3601 -0.7152
C7 C -0.6362(16) 0.2500 -0.1432(6)
C8 C -0.5338(14) 0.2500 -0.2122(5)
C9 C -0.6374(13) 0.2500 -0.2829(5)
H5 H -0.7703 0.2500 -0.2894
C10 C -0.5443(14) 0.2500 -0.3441(5)
H6 H -0.6173 0.2500 -0.3913
C11 C -0.2541(14) 0.2500 -0.2705(5)
H7 H -0.1213 0.2500 -0.2651
C12 C -0.3373(15) 0.2500 -0.2067(6)
H8 H -0.2610 0.2500 -0.1601
C13 C -0.1405(9) 0.4725(3) -0.0965(3)
C14 C -0.1455(8) 0.4595(2) -0.1778(3)
C15 C -0.1770(10) 0.4996(2) -0.2310(3)
H9 H -0.1970 0.5349 -0.2171
C16 C -0.1788(10) 0.4870(3) -0.3047(4)
H10 H -0.1968 0.5147 -0.3395
C17 C -0.1281(10) 0.3988(2) -0.2774(4)
H11 H -0.1121 0.3637 -0.2930
C18 C -0.1211(9) 0.4075(2) -0.2024(3)
H12 H -0.1004 0.3790 -0.1688
C19 C 0.3264(9) 0.4331(3) -1.1225(3)
C20 C 0.3454(8) 0.4479(3) -1.2013(3)
C21 C 0.3243(10) 0.5000(3) -1.2262(3)
H13 H 0.3024 0.5276 -1.1940
C22 C 0.3360(10) 0.5110(3) -1.2997(4)
H14 H 0.3192 0.5463 -1.3165
C23 C 0.3894(10) 0.4225(3) -1.3237(4)
H15 H 0.4126 0.3957 -1.3568
C24 C 0.3761(10) 0.4082(3) -1.2515(4)
H16 H 0.3875 0.3724 -1.2368
N1 N -0.1605(8) 0.3325(3) -0.6513(3)
N2 N -0.3514(11) 0.2500 -0.3386(4)
N3 N -0.1559(8) 0.4367(2) -0.3288(3)
N4 N 0.3706(7) 0.4728(2) -1.3479(3)
O1 O -0.0605(8) 0.3737(3) -0.9141(3)
O2 O 0.4404(11) 0.3215(2) -0.9654(3)
O3 O 0.2310(8) 0.3664(2) -0.8536(3)
O4 O 0.5564(7) 0.4281(2) -0.9428(3)
O5 O -0.8099(11) 0.2500 -0.1528(5)
O6 O 0.0583(10) 0.3206(2) -1.0454(4)
O7 O -0.5314(12) 0.2500 -0.0816(4)
O9 O -0.2070(7) 0.51732(18) -0.0817(2)
O11 O -0.0747(7) 0.43776(18) -0.0497(2)
O12 O 0.3021(7) 0.47029(18) -1.0774(2)
O13 O 0.3267(8) 0.38506(19) -1.1043(3)
Sm1C Sm 0.21755(5) 0.097380(12) -0.984331(16)
Sm1B Sm -0.21755(5) 0.597380(12) -0.015669(16)
Sm1_2 Sm 0.21755(5) 0.402620(12) 0.015669(16)
Sm1A Sm -0.21755(5) -0.097380(12) -0.015669(16)
Sm1C_2 Sm 0.21755(5) 0.097380(12) 0.015669(16)
Sm1B_2 Sm -0.21755(5) 0.597380(12) -1.015669(16)
Cu1C Cu -0.24945(15) 0.18351(6) -0.55362(6)
Cu3C Cu -0.17511(14) 0.08043(4) -0.43904(5)
Cu3B Cu 0.17511(14) 0.58043(4) -0.56096(5)
Cu4C Cu -0.37790(14) -0.00784(4) -0.54483(5)
Cu4B Cu -0.62210(14) 0.49216(4) -0.45517(5)
Cu4B_2 Cu 0.37790(14) 0.49216(4) -0.45517(5)
Cu4B_3 Cu 0.37790(14) 0.49216(4) -1.45517(5)
Cu4A Cu -0.62210(14) 0.00784(4) -0.45517(5)
I2C I 0.01945(6) 0.170195(16) -0.44317(2)
I3C I -0.50937(6) 0.089472(15) -0.52974(2)
I3B I -0.49063(6) 0.589472(15) -0.47026(2)
I3A I -0.49063(6) -0.089472(15) -0.47026(2)
I4C I 0.0000 0.0000 -0.5000
C1C C 0.0529(11) 0.1355(3) -0.8562(4)
C2C C -0.0246(10) 0.1478(3) -0.7851(4)
C3C C -0.2139(12) 0.1579(4) -0.7844(4)
H1C H -0.3001 0.1583 -0.8286
C4C C -0.2761(12) 0.1677(4) -0.7166(4)
H2C H -0.4053 0.1747 -0.7169
C5C C 0.0238(11) 0.1568(4) -0.6530(4)
H3C H 0.1074 0.1559 -0.6082
C6C C 0.0961(11) 0.1470(4) -0.7171(4)
H4C H 0.2257 0.1399 -0.7152
C13C C -0.1405(9) 0.0275(3) -0.0965(3)
C14C C -0.1455(8) 0.0405(2) -0.1778(3)
C15C C -0.1770(10) 0.0004(2) -0.2310(3)
H9C H -0.1970 -0.0349 -0.2171
C16C C -0.1788(10) 0.0130(3) -0.3047(4)
H10C H -0.1968 -0.0147 -0.3395
C17C C -0.1281(10) 0.1012(2) -0.2774(4)
H11C H -0.1121 0.1363 -0.2930
C18C C -0.1211(9) 0.0925(2) -0.2024(3)
H12C H -0.1004 0.1210 -0.1688
C19B C -0.3264(9) 0.5669(3) -0.8775(3)
C20B C -0.3454(8) 0.5521(3) -0.7987(3)
C21B C -0.3243(10) 0.5000(3) -0.7738(3)
H13B H -0.3024 0.4724 -0.8060
C22B C -0.3360(10) 0.4890(3) -0.7003(4)
H14B H -0.3192 0.4537 -0.6835
C23B C -0.3894(10) 0.5775(3) -0.6763(4)
H15B H -0.4126 0.6043 -0.6432
C24B C -0.3761(10) 0.5918(3) -0.7485(4)
H16B H -0.3875 0.6276 -0.7632
N1C N -0.1605(8) 0.1675(3) -0.6513(3)
N3C N -0.1559(8) 0.0633(2) -0.3288(3)
N4B N -0.3706(7) 0.5272(2) -0.6521(3)
N4A N -0.3706(7) -0.0272(2) -0.6521(3)
O1C O -0.0605(8) 0.1263(3) -0.9141(3)
O2C O 0.4404(11) 0.1785(2) -0.9654(3)
O3C O 0.2310(8) 0.1336(2) -0.8536(3)
O4C O 0.5564(7) 0.0719(2) -0.9428(3)
O6C O 0.0583(10) 0.1794(2) -1.0454(4)
O9C O -0.2070(7) -0.01732(18) -0.0817(2)
O9B O 0.2070(7) 0.48268(18) -0.9183(2)
O9A O 0.2070(7) 0.01732(18) -0.9183(2)
O11C O -0.0747(7) 0.06224(18) -0.0497(2)
O11_2 O -0.0747(7) 0.43776(18) -1.0497(2)
O11C_2 O -0.0747(7) 0.06224(18) -1.0497(2)
O12B O -0.3021(7) 0.52971(18) -0.9226(2)
O12C O 0.3021(7) 0.02971(18) -1.0774(2)
O13B O -0.3267(8) 0.61494(19) -0.8957(3)
O13C O 0.3267(8) 0.11494(19) -1.1043(3)
O8 O -0.167(2) 0.2500 -0.9825(12)
O10 O 0.3721(19) 0.2500 -0.8417(7)
loop_
_geom_bond_atom_site_label_1
_geom_bond_atom_site_label_2
_geom_bond_site_symmetry_1
_geom_bond_site_symmetry_2
Sm1 O1 1_555 1_555
Cu1 I1 1_555 1_555
Cu2 I1 1_555 1_555
Cu3 I2 1_555 1_555
Cu4 I3 1_555 1_555
I1 Cu1C 1_555 1_555
I2 Cu1 1_555 1_555
I3 Cu3 1_555 1_555
I4 Cu3 1_555 1_555
C1 C2 1_555 1_555
C2 C3 1_555 1_555
C3 H1 1_555 1_555
C4 C3 1_555 1_555
H2 C4 1_555 1_555
C5 H3 1_555 1_555
C6 C2 1_555 1_555
H4 C6 1_555 1_555
C7 C8 1_555 1_555
C8 C9 1_555 1_555
C9 H5 1_555 1_555
C10 C9 1_555 1_555
H6 C10 1_555 1_555
C11 H7 1_555 1_555
C12 C8 1_555 1_555
H8 C12 1_555 1_555
C13 C14 1_555 1_555
C14 C15 1_555 1_555
C15 H9 1_555 1_555
C16 C15 1_555 1_555
H10 C16 1_555 1_555
C17 H11 1_555 1_555
C18 C14 1_555 1_555
H12 C18 1_555 1_555
C19 C20 1_555 1_555
C20 C21 1_555 1_555
C21 H13 1_555 1_555
C22 C21 1_555 1_555
H14 C22 1_555 1_555
C23 H15 1_555 1_555
C24 C20 1_555 1_555
H16 C24 1_555 1_555
N1 Cu1 1_555 1_555
N2 Cu2 1_555 1_555
N3 Cu3 1_555 1_555
N4 C22 1_555 1_555
O1 C1 1_555 1_555
O2 Sm1 1_555 1_555
O3 Sm1 1_555 1_555
O4 Sm1 1_555 1_555
O5 C7 1_555 1_555
O6 Sm1 1_555 1_555
O7 C7 1_555 1_555
O9 C13 1_555 1_555
O11 C13 1_555 1_555
O12 Sm1 1_555 1_555
O13 Sm1 1_555 1_555
Sm1C O1C 1_555 1_555
Sm1B O9 1_555 1_555
Sm1_2 O11 1_555 1_555
Sm1A O9C 1_555 1_555
Sm1C_2 O11C 1_555 1_555
Sm1B_2 O12B 1_555 1_555
Cu1C I2C 1_555 1_555
Cu3C I2C 1_555 1_555
Cu3B I4 1_555 1_555
Cu4C I3C 1_555 1_555
Cu4B I3 1_555 1_555
Cu4B_2 I4 1_555 1_555
Cu4B_3 N4 1_555 1_555
Cu4A I3C 1_555 1_555
I2C Cu2 1_555 1_555
I3C Cu3C 1_555 1_555
I3B Cu4 1_555 1_555
I3A Cu4C 1_555 1_555
I4C Cu3C 1_555 1_555
C1C C2C 1_555 1_555
C2C C3C 1_555 1_555
C3C H1C 1_555 1_555
C4C C3C 1_555 1_555
H2C C4C 1_555 1_555
C5C H3C 1_555 1_555
C6C C2C 1_555 1_555
H4C C6C 1_555 1_555
C13C C14C 1_555 1_555
C14C C15C 1_555 1_555
C15C H9C 1_555 1_555
C16C C15C 1_555 1_555
H10C C16C 1_555 1_555
C17C H11C 1_555 1_555
C18C C14C 1_555 1_555
H12C C18C 1_555 1_555
C19B C20B 1_555 1_555
C20B C21B 1_555 1_555
C21B H13B 1_555 1_555
C22B C21B 1_555 1_555
H14B C22B 1_555 1_555
C23B H15B 1_555 1_555
C24B C20B 1_555 1_555
H16B C24B 1_555 1_555
N1C Cu1C 1_555 1_555
N3C Cu3C 1_555 1_555
N4B Cu4 1_555 1_555
N4A Cu4C 1_555 1_555
O1C C1C 1_555 1_555
O2C Sm1C 1_555 1_555
O3C Sm1C 1_555 1_555
O4C Sm1C 1_555 1_555
O6C Sm1C 1_555 1_555
O9C C13C 1_555 1_555
O9B Sm1 1_555 1_555
O9A Sm1C 1_555 1_555
O11C C13C 1_555 1_555
O11_2 Sm1 1_555 1_555
O11C_2 Sm1C 1_555 1_555
O12B C19B 1_555 1_555
O12C Sm1C 1_555 1_555
O13B Sm1B_2 1_555 1_555
O13C Sm1C 1_555 1_555
Cu2 I2 1_555 1_555
Cu4 I4 1_555 1_555
C1 O3 1_555 1_555
C4 N1 1_555 1_555
C5 C6 1_555 1_555
C5 N1 1_555 1_555
C10 N2 1_555 1_555
C11 C12 1_555 1_555
C11 N2 1_555 1_555
C16 N3 1_555 1_555
C17 C18 1_555 1_555
C17 N3 1_555 1_555
C19 O12 1_555 1_555
C19 O13 1_555 1_555
C23 C24 1_555 1_555
C23 N4 1_555 1_555
Cu4C I4C 1_555 1_555
Cu4B I3B 1_555 1_555
Cu4A I3A 1_555 1_555
C1C O3C 1_555 1_555
C4C N1C 1_555 1_555
C5C C6C 1_555 1_555
C5C N1C 1_555 1_555
C16C N3C 1_555 1_555
C17C C18C 1_555 1_555
C17C N3C 1_555 1_555
C19B O13B 1_555 1_555
C22B N4B 1_555 1_555
C23B C24B 1_555 1_555
C23B N4B 1_555 1_555

#END
