
#######################################################################
#
#                 Cambridge Crystallographic Data Centre
#                                CCDC 
#
#######################################################################
#
# If this CIF has been generated from an entry in the Cambridge 
# Structural Database, then it will include bibliographic, chemical, 
# crystal, experimental, refinement or atomic coordinate data resulting 
# from the CCDC's data processing and validation procedures.
#
#######################################################################

data_XOFZIC
_symmetry_cell_setting           orthorhombic
_symmetry_space_group_name_H-M   'P n m a'
_symmetry_Int_Tables_number      62
_space_group_name_Hall           '-P 2ac 2n'
loop_
_symmetry_equiv_pos_site_id
_symmetry_equiv_pos_as_xyz
1 x,y,z
2 1/2-x,-y,1/2+z
3 1/2+x,1/2-y,1/2-z
4 -x,1/2+y,-z
5 -x,-y,-z
6 1/2+x,y,1/2-z
7 1/2-x,1/2+y,1/2+z
8 x,1/2-y,z
_cell_length_a                   8.1494(12)
_cell_length_b                   12.907(2)
_cell_length_c                   10.7902(15)
_cell_angle_alpha                90
_cell_angle_beta                 90
_cell_angle_gamma                90
_cell_volume                     1134.96
loop_
_atom_site_label
_atom_site_type_symbol
_atom_site_fract_x
_atom_site_fract_y
_atom_site_fract_z
Sr1 Sr 0.62961(13) 0.2500 0.81491(8)
S1 S 0.6373(5) 0.10456(17) 1.05629(17)
S2 S 0.6278(6) 0.1010(2) 1.40779(19)
C1 C 0.6420(13) 0.1971(6) 1.1667(6)
C2 C 0.6362(15) 0.1960(6) 1.3021(7)
O1 O 0.9428(9) 0.2500 0.8894(7)
O2 O 0.3312(15) 0.2500 0.8866(11)
O3 O 0.576(2) 0.0666(5) 0.7524(6)
Sr1E Sr 1.12961(13) 0.2500 0.68509(8)
Sr1E_2 Sr 0.12961(13) 0.2500 0.68509(8)
S1G S 0.6373(5) 0.39544(17) 1.05629(17)
S2G S 0.6278(6) 0.3990(2) 1.40779(19)
C1G C 0.6420(13) 0.3029(6) 1.1667(6)
C2G C 0.6362(15) 0.3040(6) 1.3021(7)
O1E O 0.4428(9) 0.2500 0.6106(7)
O2E O 0.8312(15) 0.2500 0.6134(11)
O3G O 0.576(2) 0.4334(5) 0.7524(6)
loop_
_geom_bond_atom_site_label_1
_geom_bond_atom_site_label_2
_geom_bond_site_symmetry_1
_geom_bond_site_symmetry_2
Sr1 S1 1_555 1_555
S1 C1 1_555 1_555
S2 C2 1_555 1_555
C1 C2 1_555 1_555
C2 C2G 1_555 1_555
O1 Sr1 1_555 1_555
O2 Sr1 1_555 1_555
O3 Sr1 1_555 1_555
Sr1E O1 1_555 1_555
Sr1E_2 O2 1_555 1_555
S1G Sr1 1_555 1_555
S2G C2G 1_555 1_555
C1G C1 1_555 1_555
C2G C1G 1_555 1_555
O1E Sr1 1_555 1_555
O2E Sr1 1_555 1_555
O3G Sr1 1_555 1_555
Sr1E O2E 1_555 1_555
Sr1E_2 O1E 1_555 1_555
S1G C1G 1_555 1_555

#END
