
#######################################################################
#
#                 Cambridge Crystallographic Data Centre
#                                CCDC 
#
#######################################################################
#
# If this CIF has been generated from an entry in the Cambridge 
# Structural Database, then it will include bibliographic, chemical, 
# crystal, experimental, refinement or atomic coordinate data resulting 
# from the CCDC's data processing and validation procedures.
#
#######################################################################

data_XOGFUV
_symmetry_cell_setting           triclinic
_symmetry_space_group_name_H-M   'P -1'
_symmetry_Int_Tables_number      2
_space_group_name_Hall           '-P 1'
loop_
_symmetry_equiv_pos_site_id
_symmetry_equiv_pos_as_xyz
1 x,y,z
2 -x,-y,-z
_cell_length_a                   11.9471(18)
_cell_length_b                   13.3387(17)
_cell_length_c                   14.8881(17)
_cell_angle_alpha                105.798(3)
_cell_angle_beta                 102.404(4)
_cell_angle_gamma                113.288(3)
_cell_volume                     1952.42
loop_
_atom_site_label
_atom_site_type_symbol
_atom_site_fract_x
_atom_site_fract_y
_atom_site_fract_z
Eu1 Eu -0.11813(2) 0.083768(18) 0.519690(16)
Eu2 Eu -0.08358(2) -0.425040(17) 0.424540(15)
Eu3 Eu -0.02669(2) 0.671230(18) 0.761810(15)
Eu4 Eu 0.26179(2) 0.568030(18) 0.935490(15)
Se1 Se -0.07429(4) 0.37017(4) 0.72769(3)
Se2 Se -0.18777(4) 0.25247(4) 0.38112(3)
O1 O -0.0996(3) -0.1046(3) 0.4887(2)
O2 O -0.1905(3) -0.3019(3) 0.4109(2)
O3 O -0.3099(3) 0.0991(3) 0.4767(2)
O4 O -0.5213(3) 0.0285(4) 0.3924(3)
O5 O -0.2387(3) -0.5366(3) 0.2502(2)
O6 O -0.4300(3) -0.6771(3) 0.1338(2)
O7 O -0.1401(3) -0.4026(3) 0.5748(2)
O8 O -0.2702(3) -0.4618(3) 0.6555(2)
O9 O -0.1236(3) 0.5683(3) 0.8651(2)
O10 O -0.2217(4) 0.5624(3) 0.9776(3)
O11 O -0.0350(3) 0.8455(3) 0.7381(2)
O12 O -0.0668(4) 1.0024(3) 0.7867(3)
O13 O 0.1614(3) 0.6837(3) 0.8915(2)
O14 O 0.1466(3) 0.8480(3) 0.9196(2)
O15 O 0.4735(3) 0.6430(3) 1.0617(2)
O16 O 0.6683(3) 0.7899(3) 1.1750(2)
O17 O -0.0329(3) 0.2882(3) 0.6460(2)
O18 O -0.0288(3) 0.4866(3) 0.6919(2)
O19 O 0.0453(3) 0.4167(3) 0.8370(2)
O20 O -0.0727(3) 0.2302(3) 0.4512(2)
O21 O -0.1092(3) 0.4015(3) 0.4497(2)
O22 O -0.1574(3) 0.2441(3) 0.2767(2)
O23 O -0.2272(4) 0.0354(4) 0.6366(3)
H1 H -0.1856 0.0290 0.6840
H2 H -0.3012 0.0213 0.6337
O24 O 0.0430(3) 0.1387(3) 0.6902(3)
H3 H 0.0095 0.1000 0.7211
H4 H 0.0563 0.2216 0.7303
O25 O -0.1549(3) 0.0104(3) 0.3376(2)
H5 H -0.1225 0.0556 0.3086
H6 H -0.1973 -0.0670 0.2884
O26 O 0.1654(4) 0.6182(3) 1.0597(3)
H7 H 0.1270 0.5600 1.0752
H8 H 0.1800 0.6875 1.0935
O27 O 0.3409(5) 0.4321(4) 0.8659(3)
H9 H 0.4228 0.4584 0.8804
H10 H 0.2864 0.3577 0.8269
N1 N -0.3273(3) -0.1110(3) 0.4203(3)
N2 N -0.3217(3) -0.5499(3) 0.3976(3)
N3 N -0.1325(3) 0.7629(3) 0.8617(3)
N4 N 0.3881(4) 0.7903(3) 1.0385(3)
C1 C -0.1971(4) -0.2082(4) 0.4350(3)
C2 C -0.3278(4) -0.2145(4) 0.3933(3)
C3 C -0.4405(5) -0.3212(4) 0.3303(3)
H11 H -0.4396 -0.3933 0.3133
C4 C -0.5555(5) -0.3160(5) 0.2934(4)
H12 H -0.6326 -0.3850 0.2497
C5 C -0.5534(5) -0.2089(5) 0.3222(4)
H13 H -0.6292 -0.2042 0.2989
C6 C -0.4380(4) -0.1078(4) 0.3859(3)
C7 C -0.4248(4) 0.0158(4) 0.4204(4)
C8 C -0.3585(4) -0.6137(4) 0.2235(3)
C9 C -0.4098(4) -0.6249(4) 0.3051(3)
C10 C -0.5363(5) -0.7045(5) 0.2882(4)
H14 H -0.5960 -0.7550 0.2233
C11 C -0.5725(6) -0.7077(6) 0.3700(4)
H15 H -0.6571 -0.7610 0.3608
C12 C -0.4825(5) -0.6312(6) 0.4653(4)
H16 H -0.5050 -0.6321 0.5212
C13 C -0.3591(4) -0.5542(4) 0.4757(3)
C14 C -0.2505(4) -0.4678(4) 0.5763(3)
C15 C -0.1743(4) 0.6069(4) 0.9225(3)
C16 C -0.1763(4) 0.7198(4) 0.9255(3)
C17 C -0.2147(5) 0.7786(4) 0.9944(4)
H17 H -0.2469 0.7462 1.0372
C18 C -0.2035(5) 0.8865(4) 0.9976(4)
H18 H -0.2263 0.9290 1.0441
C19 C -0.1588(5) 0.9310(4) 0.9320(3)
H19 H -0.1518 1.0033 0.9330
C20 C -0.1243(4) 0.8664(4) 0.8641(3)
C21 C -0.0712(5) 0.9090(4) 0.7903(3)
C22 C 0.2071(4) 0.7949(4) 0.9399(3)
C23 C 0.3378(4) 0.8603(4) 1.0219(3)
C24 C 0.4066(5) 0.9830(4) 1.0746(4)
H20 H 0.3696 1.0301 1.0630
C25 C 0.5300(5) 1.0333(4) 1.1440(4)
H21 H 0.5780 1.1152 1.1801
C26 C 0.5833(5) 0.9607(4) 1.1603(4)
H22 H 0.6673 0.9935 1.2065
C27 C 0.5091(4) 0.8402(4) 1.1066(3)
C28 C 0.5546(4) 0.7516(4) 1.1162(3)
Eu1A Eu 0.11813(2) -0.083768(18) 0.480310(16)
Eu2A Eu 0.08358(2) 0.425040(17) 0.575460(15)
Eu2_2 Eu -0.08358(2) 0.574960(17) 0.424540(15)
Eu3_2 Eu -0.02669(2) -0.328770(18) 0.761810(15)
Eu3A Eu 0.02669(2) 0.328770(18) 0.238190(15)
Eu4A Eu -0.26179(2) -0.568030(18) 0.064510(15)
Eu4A_2 Eu -0.26179(2) 0.431970(18) 1.064510(15)
O1A O 0.0996(3) 0.1046(3) 0.5113(2)
O5A O 0.2387(3) 0.5366(3) 0.7498(2)
O6A O 0.4300(3) 0.6771(3) 0.8662(2)
O7_2 O -0.1401(3) 0.5974(3) 0.5748(2)
O8_2 O -0.2702(3) 0.5382(3) 0.6555(2)
O10A O 0.2217(4) 0.4376(3) 1.0224(3)
O17A O 0.0329(3) -0.2882(3) 0.3540(2)
O18A O 0.0288(3) -0.4866(3) 0.3081(2)
O20A O 0.0727(3) -0.2302(3) 0.5488(2)
O21_2 O -0.1092(3) -0.5985(3) 0.4497(2)
O21A O 0.1092(3) -0.4015(3) 0.5503(2)
O22A O 0.1574(3) 0.7559(3) 0.7233(2)
O28 O -0.0766(5) 0.2182(4) -0.1151(4)
H23 H -0.0628 0.1589 -0.1366
H24 H -0.0121 0.2866 -0.1007
loop_
_geom_bond_atom_site_label_1
_geom_bond_atom_site_label_2
_geom_bond_site_symmetry_1
_geom_bond_site_symmetry_2
Eu1 O1 1_555 1_555
Eu2 O2 1_555 1_555
Eu3 O9 1_555 1_555
Eu4 O13 1_555 1_555
Se1 O17 1_555 1_555
Se2 O20 1_555 1_555
O1 C1 1_555 1_555
O2 C1 1_555 1_555
O3 Eu1 1_555 1_555
O4 C7 1_555 1_555
O5 Eu2 1_555 1_555
O6 C8 1_555 1_555
O7 Eu2 1_555 1_555
O8 C14 1_555 1_555
O9 C15 1_555 1_555
O10 C15 1_555 1_555
O11 Eu3 1_555 1_555
O12 C21 1_555 1_555
O13 Eu3 1_555 1_555
O14 Eu3 1_555 1_555
O15 Eu4 1_555 1_555
O16 C28 1_555 1_555
O17 Eu1 1_555 1_555
O18 Eu3 1_555 1_555
O19 Eu4 1_555 1_555
O20 Eu1 1_555 1_555
O21 Se2 1_555 1_555
O22 Se2 1_555 1_555
O23 Eu1 1_555 1_555
H1 O23 1_555 1_555
H2 O23 1_555 1_555
O24 Eu1 1_555 1_555
H3 O24 1_555 1_555
H4 O24 1_555 1_555
O25 Eu1 1_555 1_555
H5 O25 1_555 1_555
H6 O25 1_555 1_555
O26 Eu4 1_555 1_555
H7 O26 1_555 1_555
H8 O26 1_555 1_555
O27 Eu4 1_555 1_555
H9 O27 1_555 1_555
H10 O27 1_555 1_555
N1 Eu1 1_555 1_555
N2 Eu2 1_555 1_555
N3 Eu3 1_555 1_555
N4 Eu4 1_555 1_555
C1 C2 1_555 1_555
C2 N1 1_555 1_555
C3 C2 1_555 1_555
H11 C3 1_555 1_555
C4 C3 1_555 1_555
H12 C4 1_555 1_555
C5 C4 1_555 1_555
H13 C5 1_555 1_555
C6 N1 1_555 1_555
C7 O3 1_555 1_555
C8 O5 1_555 1_555
C9 N2 1_555 1_555
C10 C9 1_555 1_555
H14 C10 1_555 1_555
C11 C10 1_555 1_555
H15 C11 1_555 1_555
C12 C11 1_555 1_555
H16 C12 1_555 1_555
C13 N2 1_555 1_555
C14 O7 1_555 1_555
C15 C16 1_555 1_555
C16 N3 1_555 1_555
C17 C16 1_555 1_555
H17 C17 1_555 1_555
C18 C17 1_555 1_555
H18 C18 1_555 1_555
C19 C18 1_555 1_555
H19 C19 1_555 1_555
C20 N3 1_555 1_555
C21 O11 1_555 1_555
C22 O13 1_555 1_555
C23 N4 1_555 1_555
C24 C23 1_555 1_555
H20 C24 1_555 1_555
C25 C24 1_555 1_555
H21 C25 1_555 1_555
C26 C25 1_555 1_555
H22 C26 1_555 1_555
C27 N4 1_555 1_555
C28 O15 1_555 1_555
O28 H23 1_555 1_555
H24 O28 1_555 1_555
Eu1A O1 1_555 1_555
Eu2A O17 1_555 1_555
Eu2_2 O21 1_555 1_555
Eu3_2 O7 1_555 1_555
Eu3A O22 1_555 1_555
Eu4A O5 1_555 1_555
Eu4A_2 O10 1_555 1_555
O1A Eu1 1_555 1_555
O5A Eu4 1_555 1_555
O6A Eu4 1_555 1_555
O7_2 Eu3 1_555 1_555
O8_2 Eu3 1_555 1_555
O10A Eu4 1_555 1_555
O17A Eu2 1_555 1_555
O18A Eu2 1_555 1_555
O20A Eu2 1_555 1_555
O21_2 Eu2 1_555 1_555
O21A Eu2 1_555 1_555
O22A Eu3 1_555 1_555
Se1 O18 1_555 1_555
Se1 O19 1_555 1_555
O6 Eu4A 1_555 1_555
O8 Eu3_2 1_555 1_555
O14 C22 1_555 1_555
O18 Eu2A 1_555 1_555
O20 Eu2A 1_555 1_555
O21 Eu2A 1_555 1_555
C5 C6 1_555 1_555
C6 C7 1_555 1_555
C8 C9 1_555 1_555
C12 C13 1_555 1_555
C13 C14 1_555 1_555
C19 C20 1_555 1_555
C20 C21 1_555 1_555
C22 C23 1_555 1_555
C26 C27 1_555 1_555
C27 C28 1_555 1_555
Eu1A O1A 1_555 1_555
Eu1A O17A 1_555 1_555
Eu1A O20A 1_555 1_555
Eu2A O5A 1_555 1_555
Eu2_2 O7_2 1_555 1_555

#END
