
#######################################################################
#
#                 Cambridge Crystallographic Data Centre
#                                CCDC 
#
#######################################################################
#
# If this CIF has been generated from an entry in the Cambridge 
# Structural Database, then it will include bibliographic, chemical, 
# crystal, experimental, refinement or atomic coordinate data resulting 
# from the CCDC's data processing and validation procedures.
#
#######################################################################

data_XOGGOR01
_symmetry_cell_setting           triclinic
_symmetry_space_group_name_H-M   'P -1'
_symmetry_Int_Tables_number      2
_space_group_name_Hall           '-P 1'
loop_
_symmetry_equiv_pos_site_id
_symmetry_equiv_pos_as_xyz
1 x,y,z
2 -x,-y,-z
_cell_length_a                   11.129(2)
_cell_length_b                   11.407(2)
_cell_length_c                   12.024(2)
_cell_angle_alpha                63.55(3)
_cell_angle_beta                 81.91(3)
_cell_angle_gamma                78.74(3)
_cell_volume                     1337.83
loop_
_atom_site_label
_atom_site_type_symbol
_atom_site_fract_x
_atom_site_fract_y
_atom_site_fract_z
Mn1 Mn 0.90992(6) 0.24280(6) 0.23540(5)
Mn2 Mn 1.0000 0.0000 0.5000
Mn3 Mn 1.0000 0.5000 0.0000
O1 O 0.7973(2) 0.0291(3) 0.5225(3)
O2 O 0.7359(3) 0.1892(3) 0.3382(3)
O3 O 0.9087(3) 0.4085(3) -0.0817(3)
O4 O 0.8490(3) 0.2300(3) 0.0801(3)
N1 N 0.9803(3) 0.2190(3) 0.4103(3)
N2 N 1.0377(3) 0.2908(4) 0.4215(3)
N3 N 1.0905(4) 0.3623(5) 0.4319(5)
N4 N 0.9866(3) 0.0263(3) 0.3082(3)
N5 N 0.9484(3) -0.0400(4) 0.2709(3)
N6 N 0.9146(4) -0.1017(5) 0.2309(5)
N7 N 1.0861(4) 0.3027(4) 0.1267(3)
N8 N 1.1855(4) 0.2707(4) 0.1656(4)
N9 N 1.2831(4) 0.2394(6) 0.2034(5)
N10 N 0.8497(3) 0.4589(4) 0.1554(3)
N11 N 0.7437(5) 0.4981(5) 0.1274(5)
N12 N 0.6390(6) 0.5381(8) 0.0988(7)
N13 N 0.7838(3) 0.3058(4) -0.3253(3)
C1 C 0.8145(4) 0.3454(4) -0.2449(4)
H1 H 0.8257 0.4329 -0.2719
N14 N 0.4464(3) 0.0412(4) 0.6793(3)
C2 C 0.7194(4) 0.1116(4) 0.4504(4)
C3 C 0.5615(4) 0.0343(4) 0.6263(4)
H2 H 0.6233 -0.0301 0.6720
C4 C 0.8297(4) 0.2564(4) -0.1219(4)
C5 C 0.8651(4) 0.3033(4) -0.0331(4)
C6 C 0.5884(4) 0.1217(4) 0.5052(4)
C7 C 0.8141(4) 0.1259(4) -0.0829(4)
H3 H 0.8229 0.0652 -0.0003
C8 C 0.7598(4) 0.4027(5) -0.4553(4)
H4 H 0.7944 0.3621 -0.5107
H5 H 0.8009 0.4782 -0.4767
C9 C 0.6242(4) 0.4505(5) -0.4753(4)
C10 C 0.4947(4) 0.2170(5) 0.4378(5)
H6 H 0.5107 0.2757 0.3555
C11 C 0.4638(4) -0.0248(5) 0.9062(4)
C12 C 0.7711(4) 0.1782(5) -0.2886(4)
H7 H 0.7522 0.1520 -0.3463
C13 C 0.4204(5) -0.0564(5) 0.8100(4)
H8 H 0.4604 -0.1439 0.8203
H9 H 0.3327 -0.0585 0.8246
C14 C 0.5352(5) -0.1214(5) 0.9991(5)
H10 H 0.5594 -0.2044 0.9995
C15 C 0.5876(4) 0.5170(5) -0.5955(4)
H11 H 0.6462 0.5298 -0.6614
C16 C 0.7853(4) 0.0873(5) -0.1688(5)
H12 H 0.7758 -0.0001 -0.1446
C17 C 0.4287(5) 0.0974(5) 0.9087(5)
H13 H 0.3802 0.1641 0.8475
C18 C 0.3559(4) 0.1354(6) 0.6141(5)
H14 H 0.2772 0.1401 0.6516
C19 C 0.5352(4) 0.4345(6) -0.3797(4)
H15 H 0.5575 0.3908 -0.2977
C20 C 0.3787(4) 0.2239(5) 0.4933(5)
H16 H 0.3159 0.2883 0.4493
O1A O 0.2027(2) -0.0291(3) 1.4775(3)
O2A O 0.2641(3) -0.1892(3) 1.6618(3)
N14A N 0.5536(3) -0.0412(4) 1.3207(3)
C2A C 0.2806(4) -0.1116(4) 1.5496(4)
C3A C 0.4385(4) -0.0343(4) 1.3737(4)
H2A H 0.3767 0.0301 1.3280
C6A C 0.4116(4) -0.1217(4) 1.4948(4)
C10A C 0.5053(4) -0.2170(5) 1.5622(5)
H6A H 0.4893 -0.2757 1.6445
C11A C 0.5362(4) 0.0248(5) 1.0938(4)
C13A C 0.5796(5) 0.0564(5) 1.1900(4)
H8A H 0.5396 0.1439 1.1797
H9A H 0.6673 0.0585 1.1754
C14A C 0.4648(5) 0.1214(5) 1.0009(5)
H10A H 0.4406 0.2044 1.0005
C17A C 0.5713(5) -0.0974(5) 1.0913(5)
H13A H 0.6198 -0.1641 1.1525
C18A C 0.6441(4) -0.1354(6) 1.3859(5)
H14A H 0.7228 -0.1401 1.3484
C20A C 0.6213(4) -0.2239(5) 1.5067(5)
H16A H 0.6841 -0.2883 1.5507
O3A O 0.0913(3) 0.5915(3) -0.9183(3)
O4A O 0.1510(3) 0.7700(3) -1.0801(3)
N13A N 0.2162(3) 0.6942(4) -0.6747(3)
C1A C 0.1855(4) 0.6546(4) -0.7551(4)
H1A H 0.1743 0.5671 -0.7281
C4A C 0.1703(4) 0.7436(4) -0.8781(4)
C5A C 0.1349(4) 0.6967(4) -0.9669(4)
C7A C 0.1859(4) 0.8741(4) -0.9171(4)
H3A H 0.1771 0.9348 -0.9997
C8A C 0.2402(4) 0.5973(5) -0.5447(4)
H4A H 0.2056 0.6379 -0.4893
H5A H 0.1991 0.5218 -0.5233
C9A C 0.3758(4) 0.5495(5) -0.5247(4)
C12A C 0.2289(4) 0.8218(5) -0.7114(4)
H7A H 0.2478 0.8480 -0.6537
C15A C 0.4124(4) 0.4830(5) -0.4045(4)
H11A H 0.3538 0.4702 -0.3386
C16A C 0.2147(4) 0.9127(5) -0.8312(5)
H12A H 0.2242 1.0001 -0.8554
C19A C 0.4648(4) 0.5655(6) -0.6203(4)
H15A H 0.4425 0.6092 -0.7023
Mn1A Mn 0.09008(6) -0.24280(6) 1.76460(5)
N1A N 0.0197(3) -0.2190(3) 1.5897(3)
N2A N -0.0377(3) -0.2908(4) 1.5785(3)
N3A N -0.0905(4) -0.3623(5) 1.5681(5)
N4A N 0.0134(3) -0.0263(3) 1.6918(3)
N5A N 0.0516(3) 0.0400(4) 1.7291(3)
N6A N 0.0854(4) 0.1017(5) 1.7691(5)
N7A N -0.0861(4) -0.3027(4) 1.8733(3)
N8A N -0.1855(4) -0.2707(4) 1.8344(4)
N9A N -0.2831(4) -0.2394(6) 1.7966(5)
N10A N 0.1503(3) -0.4589(4) 1.8446(3)
N11A N 0.2563(5) -0.4981(5) 1.8726(5)
N12A N 0.3610(6) -0.5381(8) 1.9012(7)
Mn1A_2 Mn 0.09008(6) 0.75720(6) -1.23540(5)
Mn2_2 Mn 0.0000 0.0000 1.5000
Mn3_2 Mn 0.0000 -0.5000 2.0000
Mn3_3 Mn 0.0000 0.5000 -1.0000
O1A_2 O 1.2027(2) -0.0291(3) 0.4775(3)
O3A_2 O 1.0913(3) 0.5915(3) 0.0817(3)
O4A_2 O 0.1510(3) -0.2300(3) 1.9199(3)
N1A_2 N 1.0197(3) -0.2190(3) 0.5897(3)
N4A_2 N 1.0134(3) -0.0263(3) 0.6918(3)
N7A_2 N 0.9139(4) 0.6973(4) -0.1267(3)
N10A_2 N 1.1503(3) 0.5411(4) -0.1554(3)
O5 O 0.1631(6) 0.3519(7) 0.7374(7)
O6 O 0.3972(7) 0.4778(10) 0.1654(10)
loop_
_geom_bond_atom_site_label_1
_geom_bond_atom_site_label_2
_geom_bond_site_symmetry_1
_geom_bond_site_symmetry_2
Mn1 O2 1_555 1_555
Mn2 O1 1_555 1_555
Mn3 O3 1_555 1_555
O1 C2 1_555 1_555
O2 C2 1_555 1_555
O3 C5 1_555 1_555
O4 Mn1 1_555 1_555
N1 Mn1 1_555 1_555
N2 N1 1_555 1_555
N3 N2 1_555 1_555
N4 Mn1 1_555 1_555
N5 N4 1_555 1_555
N6 N5 1_555 1_555
N7 Mn1 1_555 1_555
N8 N7 1_555 1_555
N9 N8 1_555 1_555
N10 Mn1 1_555 1_555
N11 N10 1_555 1_555
N12 N11 1_555 1_555
N13 C1 1_555 1_555
C1 H1 1_555 1_555
N14 C3 1_555 1_555
C2 C6 1_555 1_555
C3 H2 1_555 1_555
C4 C1 1_555 1_555
C5 O4 1_555 1_555
C6 C3 1_555 1_555
C7 C4 1_555 1_555
H3 C7 1_555 1_555
C8 N13 1_555 1_555
H4 C8 1_555 1_555
H5 C8 1_555 1_555
C9 C8 1_555 1_555
C10 C6 1_555 1_555
H6 C10 1_555 1_555
C11 C13 1_555 1_555
C12 N13 1_555 1_555
H7 C12 1_555 1_555
C13 N14 1_555 1_555
H8 C13 1_555 1_555
H9 C13 1_555 1_555
C14 C11 1_555 1_555
H10 C14 1_555 1_555
C15 C9 1_555 1_555
H11 C15 1_555 1_555
C16 C7 1_555 1_555
H12 C16 1_555 1_555
C17 C11 1_555 1_555
H13 C17 1_555 1_555
C18 N14 1_555 1_555
H14 C18 1_555 1_555
C19 C9 1_555 1_555
H15 C19 1_555 1_555
C20 C10 1_555 1_555
H16 C20 1_555 1_555
O1A C2A 1_555 1_555
O2A C2A 1_555 1_555
N14A C3A 1_555 1_555
C2A C6A 1_555 1_555
C3A H2A 1_555 1_555
C6A C3A 1_555 1_555
C10A C6A 1_555 1_555
H6A C10A 1_555 1_555
C11A C13A 1_555 1_555
C13A N14A 1_555 1_555
H8A C13A 1_555 1_555
H9A C13A 1_555 1_555
C14A C17 1_555 1_555
H10A C14A 1_555 1_555
C17A C14 1_555 1_555
H13A C17A 1_555 1_555
C18A N14A 1_555 1_555
H14A C18A 1_555 1_555
C20A C10A 1_555 1_555
H16A C20A 1_555 1_555
O3A C5A 1_555 1_555
O4A C5A 1_555 1_555
N13A C1A 1_555 1_555
C1A H1A 1_555 1_555
C4A C1A 1_555 1_555
C5A C4A 1_555 1_555
C7A C4A 1_555 1_555
H3A C7A 1_555 1_555
C8A N13A 1_555 1_555
H4A C8A 1_555 1_555
H5A C8A 1_555 1_555
C9A C8A 1_555 1_555
C12A N13A 1_555 1_555
H7A C12A 1_555 1_555
C15A C19 1_555 1_555
H11A C15A 1_555 1_555
C16A C7A 1_555 1_555
H12A C16A 1_555 1_555
C19A C15 1_555 1_555
H15A C19A 1_555 1_555
Mn1A O2A 1_555 1_555
N1A Mn1A 1_555 1_555
N2A N1A 1_555 1_555
N3A N2A 1_555 1_555
N4A Mn1A 1_555 1_555
N5A N4A 1_555 1_555
N6A N5A 1_555 1_555
N7A Mn1A 1_555 1_555
N8A N7A 1_555 1_555
N9A N8A 1_555 1_555
N10A Mn1A 1_555 1_555
N11A N10A 1_555 1_555
N12A N11A 1_555 1_555
Mn1A_2 O4A 1_555 1_555
Mn2_2 O1A 1_555 1_555
Mn3_2 N7A 1_555 1_555
Mn3_3 O3A 1_555 1_555
O1A_2 Mn2 1_555 1_555
O3A_2 Mn3 1_555 1_555
O4A_2 Mn1A 1_555 1_555
N1A_2 Mn2 1_555 1_555
N4A_2 Mn2 1_555 1_555
N7A_2 Mn3 1_555 1_555
N10A_2 Mn3 1_555 1_555
Mn2 N1 1_555 1_555
Mn2 N4 1_555 1_555
Mn3 N7 1_555 1_555
Mn3 N10 1_555 1_555
C4 C5 1_555 1_555
C12 C16 1_555 1_555
C18 C20 1_555 1_555
C11A C14A 1_555 1_555
C11A C17A 1_555 1_555
C18A C20A 1_555 1_555
C9A C15A 1_555 1_555
C9A C19A 1_555 1_555
C12A C16A 1_555 1_555
N1A Mn2_2 1_555 1_555
N4A Mn2_2 1_555 1_555
N10A Mn3_2 1_555 1_555

#END
