
#######################################################################
#
#                 Cambridge Crystallographic Data Centre
#                                CCDC 
#
#######################################################################
#
# If this CIF has been generated from an entry in the Cambridge 
# Structural Database, then it will include bibliographic, chemical, 
# crystal, experimental, refinement or atomic coordinate data resulting 
# from the CCDC's data processing and validation procedures.
#
#######################################################################

data_XOGGIL
_symmetry_cell_setting           monoclinic
_symmetry_space_group_name_H-M   'C 2/c'
_symmetry_Int_Tables_number      15
_space_group_name_Hall           '-C 2yn'
loop_
_symmetry_equiv_pos_site_id
_symmetry_equiv_pos_as_xyz
1 x,y,z
2 -x,y,1/2-z
3 1/2+x,1/2+y,z
4 1/2-x,1/2+y,1/2-z
5 -x,-y,-z
6 x,-y,1/2+z
7 1/2-x,1/2-y,-z
8 1/2+x,1/2-y,1/2+z
_cell_length_a                   32.4608(13)
_cell_length_b                   8.8236(4)
_cell_length_c                   13.8603(6)
_cell_angle_alpha                90
_cell_angle_beta                 98.5340(10)
_cell_angle_gamma                90
_cell_volume                     3925.93
loop_
_atom_site_label
_atom_site_type_symbol
_atom_site_fract_x
_atom_site_fract_y
_atom_site_fract_z
Mn1 Mn 0.5000 0.0000 1.0000
Mn2 Mn 0.5000 0.13161(6) 0.7500
C1 C 0.52530(8) 0.3069(3) 0.93246(18)
C2 C 0.55137(8) 0.4035(3) 1.00868(17)
C3 C 0.53922(9) 0.4206(3) 1.09971(19)
H1 H 0.5156 0.3707 1.1141
C4 C 0.58758(9) 0.4713(3) 0.99092(19)
H2 H 0.5962 0.4611 0.9302
C5 C 0.56202(10) 0.5118(3) 1.1692(2)
H3 H 0.5532 0.5284 1.2292
C6 C 0.59763(10) 0.5766(3) 1.1479(2)
H4 H 0.6132 0.6385 1.1939
C7 C 0.65196(10) 0.6119(4) 1.0461(3)
H5 H 0.6658 0.5356 1.0122
H6 H 0.6688 0.6287 1.1092
C8 C 0.64991(10) 0.7566(4) 0.9889(3)
H7 H 0.6350 0.8330 1.0203
H8 H 0.6351 0.7398 0.9237
C9 C 0.69396(10) 0.8111(4) 0.9833(2)
H9 H 0.7077 0.8326 1.0488
H10 H 0.7092 0.7297 0.9575
C10 C 0.69650(10) 0.9506(4) 0.9210(2)
H11 H 0.6818 1.0335 0.9468
H12 H 0.7254 0.9803 0.9237
C11 C 0.63990(9) 0.9760(3) 0.7827(2)
H13 H 0.6255 1.0340 0.8227
C12 C 0.69965(10) 0.8404(4) 0.7603(3)
H14 H 0.7261 0.8052 0.7852
C13 C 0.68331(10) 0.8086(4) 0.6661(3)
H15 H 0.6985 0.7530 0.6266
C14 C 0.64388(10) 0.8602(4) 0.6302(2)
H16 H 0.6320 0.8372 0.5666
C15 C 0.62208(8) 0.9459(3) 0.68866(19)
C16 C 0.57875(8) 1.0077(3) 0.65221(19)
N1 N 0.61071(8) 0.5530(3) 1.06170(18)
N2 N 0.67802(7) 0.9221(3) 0.81758(19)
O1 O 0.49629(6) 0.2353(2) 0.96113(14)
O2 O 0.53404(6) 0.3057(2) 0.84739(13)
O3 O 0.56365(6) 1.0933(2) 0.70928(13)
O4 O 0.56363(6) 0.9663(2) 0.56804(14)
N3 N 0.52120(8) -0.0468(3) 0.86005(16)
N4 N 0.54151(7) -0.1536(3) 0.84429(16)
N5 N 0.56099(10) -0.2571(4) 0.8282(2)
C1A C 0.47470(8) 0.3069(3) 0.56754(18)
C2A C 0.44863(8) 0.4035(3) 0.49132(17)
C3A C 0.46078(9) 0.4206(3) 0.40029(19)
H1A H 0.4844 0.3707 0.3859
C4A C 0.41242(9) 0.4713(3) 0.50908(19)
H2A H 0.4038 0.4611 0.5698
C5A C 0.43798(10) 0.5118(3) 0.3308(2)
H3A H 0.4468 0.5284 0.2708
C6A C 0.40237(10) 0.5766(3) 0.3521(2)
H4A H 0.3868 0.6385 0.3061
C7A C 0.34804(10) 0.6119(4) 0.4539(3)
H5A H 0.3342 0.5356 0.4878
H6A H 0.3312 0.6287 0.3908
C8A C 0.35009(10) 0.7566(4) 0.5111(3)
H7A H 0.3650 0.8330 0.4797
H8A H 0.3649 0.7398 0.5763
C9A C 0.30604(10) 0.8111(4) 0.5167(2)
H9A H 0.2923 0.8326 0.4512
H10A H 0.2908 0.7297 0.5425
C10A C 0.30350(10) 0.9506(4) 0.5790(2)
H11A H 0.3182 1.0335 0.5532
H12A H 0.2746 0.9803 0.5763
C11A C 0.36010(9) 0.9760(3) 0.7173(2)
H13A H 0.3745 1.0340 0.6773
C12A C 0.30035(10) 0.8404(4) 0.7397(3)
H14A H 0.2739 0.8052 0.7148
C13A C 0.31669(10) 0.8086(4) 0.8339(3)
H15A H 0.3015 0.7530 0.8734
C14A C 0.35612(10) 0.8602(4) 0.8698(2)
H16A H 0.3680 0.8372 0.9334
C15A C 0.37792(8) 0.9459(3) 0.81134(19)
C16A C 0.42125(8) 1.0077(3) 0.84779(19)
N1A N 0.38929(8) 0.5530(3) 0.43830(18)
N2A N 0.32198(7) 0.9221(3) 0.68242(19)
O1A O 0.50371(6) 0.2353(2) 0.53887(14)
O2A O 0.46596(6) 0.3057(2) 0.65261(13)
O3A O 0.43635(6) 1.0933(2) 0.79072(13)
O4A O 0.43637(6) 0.9663(2) 0.93196(14)
N3A N 0.47880(8) -0.0468(3) 0.63995(16)
N4A N 0.45849(7) -0.1536(3) 0.65571(16)
N5A N 0.43901(10) -0.2571(4) 0.6718(2)
Mn1_2 Mn 0.5000 1.0000 1.0000
Mn1A Mn 0.5000 0.0000 0.5000
Mn1A_2 Mn 0.5000 1.0000 0.5000
Mn2_2 Mn 0.5000 1.13161(6) 0.7500
O1D O 0.50371(6) -0.2353(2) 1.03887(14)
O3_2 O 0.56365(6) 0.0933(2) 0.70928(13)
O3A_2 O 0.43635(6) 0.0933(2) 0.79072(13)
O4A_2 O 0.43637(6) -0.0337(2) 0.93196(14)
O4E O 0.56363(6) 0.0337(2) 1.06804(14)
N3D N 0.47880(8) 0.0468(3) 1.13995(16)
Cl1 Cl 0.30212(3) 0.37128(11) 0.65036(7)
O5 O 0.29159(12) 0.2574(4) 0.7137(3)
O6 O 0.3151(3) 0.5009(6) 0.7004(6)
O7 O 0.33897(16) 0.3164(6) 0.6172(5)
O8 O 0.27185(14) 0.3988(8) 0.5743(4)
O9? O 0.3369(9) 0.460(4) 0.673(3)
O10? O 0.3107(9) 0.314(3) 0.5586(17)
O11? O 0.2693(6) 0.480(3) 0.646(2)
loop_
_geom_bond_atom_site_label_1
_geom_bond_atom_site_label_2
_geom_bond_site_symmetry_1
_geom_bond_site_symmetry_2
Mn1 O1 1_555 1_555
Mn2 O2 1_555 1_555
C1 C2 1_555 1_555
C2 C3 1_555 1_555
C3 H1 1_555 1_555
C4 C2 1_555 1_555
H2 C4 1_555 1_555
C5 C3 1_555 1_555
H3 C5 1_555 1_555
C6 C5 1_555 1_555
H4 C6 1_555 1_555
C7 H5 1_555 1_555
H6 C7 1_555 1_555
C8 C7 1_555 1_555
H7 C8 1_555 1_555
H8 C8 1_555 1_555
C9 C8 1_555 1_555
H9 C9 1_555 1_555
H10 C9 1_555 1_555
C10 C9 1_555 1_555
H11 C10 1_555 1_555
H12 C10 1_555 1_555
C11 H13 1_555 1_555
C12 H14 1_555 1_555
C13 C12 1_555 1_555
H15 C13 1_555 1_555
C14 C13 1_555 1_555
H16 C14 1_555 1_555
C15 C11 1_555 1_555
C16 C15 1_555 1_555
N1 C4 1_555 1_555
N2 C10 1_555 1_555
O1 C1 1_555 1_555
O2 C1 1_555 1_555
O3 C16 1_555 1_555
O4 C16 1_555 1_555
N3 Mn1 1_555 1_555
N4 N3 1_555 1_555
N5 N4 1_555 1_555
Cl1 O5 1_555 1_555
O6 Cl1 1_555 1_555
O7 Cl1 1_555 1_555
O8 Cl1 1_555 1_555
C1A C2A 1_555 1_555
C2A C3A 1_555 1_555
C3A H1A 1_555 1_555
C4A C2A 1_555 1_555
H2A C4A 1_555 1_555
C5A C3A 1_555 1_555
H3A C5A 1_555 1_555
C6A C5A 1_555 1_555
H4A C6A 1_555 1_555
C7A H5A 1_555 1_555
H6A C7A 1_555 1_555
C8A C7A 1_555 1_555
H7A C8A 1_555 1_555
H8A C8A 1_555 1_555
C9A C8A 1_555 1_555
H9A C9A 1_555 1_555
H10A C9A 1_555 1_555
C10A C9A 1_555 1_555
H11A C10A 1_555 1_555
H12A C10A 1_555 1_555
C11A H13A 1_555 1_555
C12A H14A 1_555 1_555
C13A C12A 1_555 1_555
H15A C13A 1_555 1_555
C14A C13A 1_555 1_555
H16A C14A 1_555 1_555
C15A C11A 1_555 1_555
C16A C15A 1_555 1_555
N1A C4A 1_555 1_555
N2A C10A 1_555 1_555
O1A C1A 1_555 1_555
O2A Mn2 1_555 1_555
O3A C16A 1_555 1_555
O4A C16A 1_555 1_555
N3A Mn2 1_555 1_555
N4A N3A 1_555 1_555
N5A N4A 1_555 1_555
Mn1_2 O4A 1_555 1_555
Mn1A O1A 1_555 1_555
Mn1A_2 O4 1_555 1_555
Mn2_2 O3 1_555 1_555
O1D Mn1 1_555 1_555
O3_2 Mn2 1_555 1_555
O3A_2 Mn2 1_555 1_555
O4A_2 Mn1 1_555 1_555
O4E Mn1 1_555 1_555
N3D Mn1 1_555 1_555
Mn2 N3 1_555 1_555
C6 N1 1_555 1_555
C7 N1 1_555 1_555
C11 N2 1_555 1_555
C12 N2 1_555 1_555
C14 C15 1_555 1_555
C1A O2A 1_555 1_555
C6A N1A 1_555 1_555
C7A N1A 1_555 1_555
C11A N2A 1_555 1_555
C12A N2A 1_555 1_555
C14A C15A 1_555 1_555
O3A Mn2_2 1_555 1_555
N3A Mn1A 1_555 1_555

#END
