
#######################################################################
#
#                 Cambridge Crystallographic Data Centre
#                                CCDC 
#
#######################################################################
#
# If this CIF has been generated from an entry in the Cambridge 
# Structural Database, then it will include bibliographic, chemical, 
# crystal, experimental, refinement or atomic coordinate data resulting 
# from the CCDC's data processing and validation procedures.
#
#######################################################################

data_XOGGEH
_symmetry_cell_setting           monoclinic
_symmetry_space_group_name_H-M   'P 21/c'
_symmetry_Int_Tables_number      14
_space_group_name_Hall           '-P 2ybc'
loop_
_symmetry_equiv_pos_site_id
_symmetry_equiv_pos_as_xyz
1 x,y,z
2 -x,1/2+y,1/2-z
3 -x,-y,-z
4 x,1/2-y,1/2+z
_cell_length_a                   7.7891(3)
_cell_length_b                   6.4815(2)
_cell_length_c                   23.1911(8)
_cell_angle_alpha                90
_cell_angle_beta                 107.5790(10)
_cell_angle_gamma                90
_cell_volume                     1116.13
loop_
_atom_site_label
_atom_site_type_symbol
_atom_site_fract_x
_atom_site_fract_y
_atom_site_fract_z
Mn1 Mn 0.01322(3) 0.59448(4) 0.753736(11)
O1 O 0.29578(15) 0.67602(18) 0.78106(6)
O2 O 0.27107(14) 1.01547(18) 0.76351(5)
N1 N 0.02297(19) 0.3510(2) 0.68566(6)
N2 N -0.0420(2) 0.3614(2) 0.63194(7)
N3 N -0.1002(3) 0.3722(3) 0.58029(8)
N4 N 0.07501(19) 0.3350(2) 0.81925(7)
N5 N 0.2257(2) 0.3154(2) 0.85368(6)
N6 N 0.3672(2) 0.2944(3) 0.88660(8)
N7 N 0.62010(18) 0.7589(2) 0.87199(6)
N8 N 0.8575(3) 0.2801(3) 0.91881(11)
H1 H 0.8929 0.2018 0.9501
H2 H 0.8767 0.2446 0.8856
C1 C 0.3556(2) 0.8554(2) 0.78487(7)
C2 C 0.5561(2) 0.8869(3) 0.81707(8)
H3 H 0.6241 0.8524 0.7896
H4 H 0.5779 1.0311 0.8280
C3 C 0.5851(3) 0.8235(3) 0.92208(10)
H5 H 0.5224 0.9458 0.9219
C4 C 0.6428(4) 0.7072(4) 0.97363(10)
H6 H 0.6188 0.7505 1.0086
C5 C 0.7355(3) 0.5278(4) 0.97400(9)
H7 H 0.7750 0.4501 1.0093
C6 C 0.7705(2) 0.4621(3) 0.92197(9)
C7 C 0.7081(2) 0.5834(3) 0.87066(8)
H8 H 0.7278 0.5418 0.8348
Mn1A Mn -0.01322(3) 0.09448(4) 0.746264(11)
Mn1A_2 Mn -0.01322(3) 1.09448(4) 0.746264(11)
O2A O -0.27107(14) 0.51547(18) 0.73649(5)
N1A N -0.02297(19) 0.8510(2) 0.81434(6)
N4A N -0.07501(19) 0.8350(2) 0.68075(7)
loop_
_geom_bond_atom_site_label_1
_geom_bond_atom_site_label_2
_geom_bond_site_symmetry_1
_geom_bond_site_symmetry_2
Mn1 O1 1_555 1_555
O1 C1 1_555 1_555
O2 C1 1_555 1_555
N1 Mn1 1_555 1_555
N2 N1 1_555 1_555
N3 N2 1_555 1_555
N4 Mn1 1_555 1_555
N5 N4 1_555 1_555
N6 N5 1_555 1_555
N7 C2 1_555 1_555
N8 H1 1_555 1_555
H2 N8 1_555 1_555
C1 C2 1_555 1_555
C2 H3 1_555 1_555
H4 C2 1_555 1_555
C3 N7 1_555 1_555
H5 C3 1_555 1_555
C4 C3 1_555 1_555
H6 C4 1_555 1_555
C5 C4 1_555 1_555
H7 C5 1_555 1_555
C6 N8 1_555 1_555
C7 N7 1_555 1_555
H8 C7 1_555 1_555
Mn1A N1 1_555 1_555
Mn1A_2 O2 1_555 1_555
O2A Mn1 1_555 1_555
N1A Mn1 1_555 1_555
N4A Mn1 1_555 1_555
N4 Mn1A 1_555 1_555
C5 C6 1_555 1_555
C6 C7 1_555 1_555
Mn1A_2 N1A 1_555 1_555
Mn1A_2 N4A 1_555 1_555

#END
