
#######################################################################
#
#                 Cambridge Crystallographic Data Centre
#                                CCDC 
#
#######################################################################
#
# If this CIF has been generated from an entry in the Cambridge 
# Structural Database, then it will include bibliographic, chemical, 
# crystal, experimental, refinement or atomic coordinate data resulting 
# from the CCDC's data processing and validation procedures.
#
#######################################################################

data_XOGGOR
_symmetry_cell_setting           triclinic
_symmetry_space_group_name_H-M   'P -1'
_symmetry_Int_Tables_number      2
_space_group_name_Hall           '-P 1'
loop_
_symmetry_equiv_pos_site_id
_symmetry_equiv_pos_as_xyz
1 x,y,z
2 -x,-y,-z
_cell_length_a                   11.1019(11)
_cell_length_b                   11.3899(11)
_cell_length_c                   11.9778(11)
_cell_angle_alpha                63.578(2)
_cell_angle_beta                 81.849(2)
_cell_angle_gamma                78.719(2)
_cell_volume                     1327.58
loop_
_atom_site_label
_atom_site_type_symbol
_atom_site_fract_x
_atom_site_fract_y
_atom_site_fract_z
Mn1 Mn 0.59022(3) 0.25716(3) 0.26469(3)
Mn2 Mn 0.5000 0.5000 0.0000
Mn3 Mn 0.5000 0.0000 0.5000
N1 N 0.6515(2) 0.0405(2) 0.3451(2)
N2 N 0.7575(3) 0.0013(3) 0.3738(3)
N3 N 0.8590(4) -0.0390(5) 0.4012(5)
N4 N 0.4135(2) 0.1974(2) 0.3728(2)
N5 N 0.3142(2) 0.2291(2) 0.3336(2)
N6 N 0.2172(3) 0.2601(4) 0.2955(4)
N7 N 0.5203(2) 0.28094(19) 0.08888(19)
N8 N 0.46266(19) 0.2090(2) 0.0784(2)
N9 N 0.4097(3) 0.1379(3) 0.0676(3)
N10 N 0.5134(2) 0.47369(19) 0.19176(18)
N11 N 0.55205(19) 0.5392(2) 0.2299(2)
N12 N 0.5860(3) 0.6004(3) 0.2704(3)
O1 O 0.65121(19) 0.27006(18) 0.41985(16)
C1 C 0.9124(3) -0.0169(3) 1.0963(3)
H1 H 0.8538 -0.0291 1.1627
C2 C 0.8753(2) 0.0499(3) 0.9749(2)
C3 C 0.9654(3) 0.0656(4) 0.8794(2)
H2 H 0.9434 0.1098 0.7970
C4 C 0.7398(2) 0.0956(3) 0.9565(2)
H3 H 0.6996 0.0196 0.9768
H4 H 0.7046 0.1349 1.0132
C5 C 0.7295(2) 0.3218(3) 0.7895(3)
H5 H 0.7489 0.3475 0.8475
C6 C 0.7152(3) 0.4132(3) 0.6690(3)
H6 H 0.7251 0.5007 0.6445
C7 C 0.6858(2) 0.3738(3) 0.5832(2)
H7 H 0.6766 0.4346 0.5003
C8 C 0.6703(2) 0.2437(2) 0.6218(2)
C9 C 0.6854(2) 0.1544(2) 0.7450(2)
H8 H 0.6745 0.0667 0.7720
C10 C 0.6341(2) 0.1975(2) 0.5331(2)
N13 N 0.71592(18) 0.1944(2) 0.82595(18)
C11 C 1.0720(3) 0.4027(3) -0.4081(3)
H9 H 1.1204 0.3359 -0.3465
C12 C 1.0368(3) 0.5248(3) -0.4065(2)
C13 C 0.9646(3) 0.6214(3) -0.4981(3)
H10 H 0.9398 0.7041 -0.4977
C14 C 1.0801(3) 0.5566(3) -0.3100(3)
H11 H 1.1680 0.5587 -0.3246
H12 H 1.0399 0.6441 -0.3202
C15 C 1.1447(3) 0.3647(3) -0.1147(3)
H13 H 1.2235 0.3600 -0.1525
C16 C 1.1215(3) 0.2758(3) 0.0065(3)
H14 H 1.1844 0.2115 0.0507
C17 C 1.0045(2) 0.2826(3) 0.0620(3)
H15 H 0.9880 0.2232 0.1442
C18 C 0.9113(2) 0.3791(2) -0.0057(2)
C19 C 0.9388(2) 0.4667(2) -0.1266(2)
H16 H 0.8773 0.5321 -0.1724
C20 C 0.7811(2) 0.3889(2) 0.0497(2)
N14 N 1.0540(2) 0.4588(2) -0.1793(2)
O2 O 0.76431(17) 0.31140(19) 0.16188(16)
O3 O 0.70302(15) 0.47157(17) -0.02273(15)
O4 O 0.5911(2) 0.09108(18) 0.58174(16)
O1A O 1.34879(19) -0.27006(18) 1.58015(16)
C1A C 1.0876(3) 0.0169(3) 0.9037(3)
H1A H 1.1462 0.0291 0.8373
C2A C 1.1247(2) -0.0499(3) 1.0251(2)
C3A C 1.0346(3) -0.0656(4) 1.1206(2)
H2A H 1.0566 -0.1098 1.2030
C4A C 1.2602(2) -0.0956(3) 1.0435(2)
H3A H 1.3004 -0.0196 1.0232
H4A H 1.2954 -0.1349 0.9868
C5A C 1.2705(2) -0.3218(3) 1.2105(3)
H5A H 1.2511 -0.3475 1.1525
C6A C 1.2848(3) -0.4132(3) 1.3310(3)
H6A H 1.2749 -0.5007 1.3555
C7A C 1.3142(2) -0.3738(3) 1.4168(2)
H7A H 1.3234 -0.4346 1.4997
C8A C 1.3297(2) -0.2437(2) 1.3782(2)
C9A C 1.3146(2) -0.1544(2) 1.2550(2)
H8A H 1.3255 -0.0667 1.2280
C10A C 1.3659(2) -0.1975(2) 1.4669(2)
N13A N 1.28408(18) -0.1944(2) 1.17405(18)
O4A O 1.4089(2) -0.09108(18) 1.41826(16)
C11A C 0.9280(3) 0.5973(3) -0.5919(3)
H9A H 0.8796 0.6641 -0.6535
C12A C 0.9632(3) 0.4752(3) -0.5935(2)
C13A C 1.0354(3) 0.3786(3) -0.5019(3)
H10A H 1.0602 0.2959 -0.5023
C14A C 0.9199(3) 0.4434(3) -0.6900(3)
H11A H 0.8320 0.4413 -0.6754
H12A H 0.9601 0.3559 -0.6798
C15A C 0.8553(3) 0.6353(3) -0.8853(3)
H13A H 0.7765 0.6400 -0.8475
C16A C 0.8785(3) 0.7242(3) -1.0065(3)
H14A H 0.8156 0.7885 -1.0507
C17A C 0.9955(2) 0.7174(3) -1.0620(3)
H15A H 1.0120 0.7768 -1.1442
C18A C 1.0887(2) 0.6209(2) -0.9943(2)
C19A C 1.0612(2) 0.5333(2) -0.8734(2)
H16A H 1.1227 0.4679 -0.8276
C20A C 1.2189(2) 0.6111(2) -1.0497(2)
N14A N 0.9460(2) 0.5412(2) -0.8207(2)
O2A O 1.23569(17) 0.68860(19) -1.16188(16)
O3A O 1.29698(15) 0.52843(17) -0.97727(15)
Mn1A Mn 0.40978(3) -0.25716(3) 0.73531(3)
N1A N 0.3485(2) -0.0405(2) 0.6549(2)
N2A N 0.2425(3) -0.0013(3) 0.6262(3)
N3A N 0.1410(4) 0.0390(5) 0.5988(5)
N4A N 0.5865(2) -0.1974(2) 0.6272(2)
N5A N 0.6858(2) -0.2291(2) 0.6664(2)
N6A N 0.7828(3) -0.2601(4) 0.7045(4)
N7A N 0.4797(2) -0.28094(19) 0.91112(19)
N8A N 0.53734(19) -0.2090(2) 0.9216(2)
N9A N 0.5903(3) -0.1379(3) 0.9324(3)
N10A N 0.4866(2) -0.47369(19) 0.80824(18)
N11A N 0.44795(19) -0.5392(2) 0.7701(2)
N12A N 0.4140(3) -0.6004(3) 0.7296(3)
Mn1A_2 Mn 1.40978(3) -0.25716(3) 1.73531(3)
Mn1A_3 Mn 1.40978(3) 0.74284(3) -1.26469(3)
Mn2_2 Mn 0.5000 -0.5000 1.0000
Mn2_3 Mn 1.5000 0.5000 -1.0000
Mn3_2 Mn 1.5000 0.0000 1.5000
N7A_2 N 0.4797(2) 0.71906(19) -0.08888(19)
N10A_2 N 0.4866(2) 0.52631(19) -0.19176(18)
O1A_2 O 0.34879(19) -0.27006(18) 0.58015(16)
O2A_2 O 0.23569(17) -0.31140(19) 0.83812(16)
O3A_2 O 0.29698(15) 0.52843(17) 0.02273(15)
O4A_2 O 0.4089(2) -0.09108(18) 0.41826(16)
O5 O 0.6635(4) 0.8502(5) 0.2361(5)
O6 O 1.1044(5) 0.0244(7) 0.3281(6)
loop_
_geom_bond_atom_site_label_1
_geom_bond_atom_site_label_2
_geom_bond_site_symmetry_1
_geom_bond_site_symmetry_2
Mn1 N1 1_555 1_555
Mn2 N7 1_555 1_555
Mn3 N1 1_555 1_555
N1 N2 1_555 1_555
N2 N3 1_555 1_555
N4 Mn1 1_555 1_555
N5 N4 1_555 1_555
N6 N5 1_555 1_555
N7 Mn1 1_555 1_555
N8 N7 1_555 1_555
N9 N8 1_555 1_555
N10 Mn1 1_555 1_555
N11 N10 1_555 1_555
N12 N11 1_555 1_555
O1 Mn1 1_555 1_555
C1 H1 1_555 1_555
C2 C1 1_555 1_555
C3 C2 1_555 1_555
H2 C3 1_555 1_555
C4 C2 1_555 1_555
H3 C4 1_555 1_555
H4 C4 1_555 1_555
C5 H5 1_555 1_555
C6 C5 1_555 1_555
H6 C6 1_555 1_555
C7 C6 1_555 1_555
H7 C7 1_555 1_555
C8 C7 1_555 1_555
C9 C8 1_555 1_555
H8 C9 1_555 1_555
C10 O1 1_555 1_555
N13 C4 1_555 1_555
C11 H9 1_555 1_555
C12 C11 1_555 1_555
C13 C12 1_555 1_555
H10 C13 1_555 1_555
C14 C12 1_555 1_555
H11 C14 1_555 1_555
H12 C14 1_555 1_555
C15 H13 1_555 1_555
C16 C15 1_555 1_555
H14 C16 1_555 1_555
C17 C16 1_555 1_555
H15 C17 1_555 1_555
C18 C17 1_555 1_555
C19 C18 1_555 1_555
H16 C19 1_555 1_555
C20 C18 1_555 1_555
N14 C14 1_555 1_555
O2 Mn1 1_555 1_555
O3 Mn2 1_555 1_555
O4 Mn3 1_555 1_555
O1A C10A 1_555 1_555
C1A C3 1_555 1_555
H1A C1A 1_555 1_555
C2A C1A 1_555 1_555
C3A C1 1_555 1_555
H2A C3A 1_555 1_555
C4A C2A 1_555 1_555
H3A C4A 1_555 1_555
H4A C4A 1_555 1_555
C5A H5A 1_555 1_555
C6A C5A 1_555 1_555
H6A C6A 1_555 1_555
C7A C6A 1_555 1_555
H7A C7A 1_555 1_555
C8A C7A 1_555 1_555
C9A C8A 1_555 1_555
H8A C9A 1_555 1_555
C10A C8A 1_555 1_555
N13A C4A 1_555 1_555
O4A C10A 1_555 1_555
C11A C13 1_555 1_555
H9A C11A 1_555 1_555
C12A C11A 1_555 1_555
C13A C11 1_555 1_555
H10A C13A 1_555 1_555
C14A C12A 1_555 1_555
H11A C14A 1_555 1_555
H12A C14A 1_555 1_555
C15A H13A 1_555 1_555
C16A C15A 1_555 1_555
H14A C16A 1_555 1_555
C17A C16A 1_555 1_555
H15A C17A 1_555 1_555
C18A C17A 1_555 1_555
C19A C18A 1_555 1_555
H16A C19A 1_555 1_555
C20A C18A 1_555 1_555
N14A C14A 1_555 1_555
O2A C20A 1_555 1_555
O3A C20A 1_555 1_555
Mn1A N1A 1_555 1_555
N1A Mn3 1_555 1_555
N2A N1A 1_555 1_555
N3A N2A 1_555 1_555
N4A Mn3 1_555 1_555
N5A N4A 1_555 1_555
N6A N5A 1_555 1_555
N7A Mn1A 1_555 1_555
N8A N7A 1_555 1_555
N9A N8A 1_555 1_555
N10A Mn1A 1_555 1_555
N11A N10A 1_555 1_555
N12A N11A 1_555 1_555
Mn1A_2 O1A 1_555 1_555
Mn1A_3 O2A 1_555 1_555
Mn2_2 N7A 1_555 1_555
Mn2_3 O3A 1_555 1_555
Mn3_2 O4A 1_555 1_555
N7A_2 Mn2 1_555 1_555
N10A_2 Mn2 1_555 1_555
O1A_2 Mn1A 1_555 1_555
O2A_2 Mn1A 1_555 1_555
O3A_2 Mn2 1_555 1_555
O4A_2 Mn3 1_555 1_555
Mn2 N10 1_555 1_555
Mn3 N4 1_555 1_555
C5 N13 1_555 1_555
C8 C10 1_555 1_555
C9 N13 1_555 1_555
C10 O4 1_555 1_555
C15 N14 1_555 1_555
C19 N14 1_555 1_555
C20 O2 1_555 1_555
C20 O3 1_555 1_555
C2A C3A 1_555 1_555
C5A N13A 1_555 1_555
C9A N13A 1_555 1_555
C12A C13A 1_555 1_555
C15A N14A 1_555 1_555
C19A N14A 1_555 1_555
Mn1A N4A 1_555 1_555
N10A Mn2_2 1_555 1_555

#END
