
#######################################################################
#
#                 Cambridge Crystallographic Data Centre
#                                CCDC 
#
#######################################################################
#
# If this CIF has been generated from an entry in the Cambridge 
# Structural Database, then it will include bibliographic, chemical, 
# crystal, experimental, refinement or atomic coordinate data resulting 
# from the CCDC's data processing and validation procedures.
#
#######################################################################

data_XOGHUY
_symmetry_cell_setting           hexagonal
_symmetry_space_group_name_H-M   'P 62'
_symmetry_Int_Tables_number      171
_space_group_name_Hall           'P 62'
loop_
_symmetry_equiv_pos_site_id
_symmetry_equiv_pos_as_xyz
1 x,y,z
2 -y,x-y,2/3+z
3 -x+y,-x,1/3+z
4 -x,-y,z
5 y,-x+y,2/3+z
6 x-y,x,1/3+z
_cell_length_a                   10.0283(3)
_cell_length_b                   10.0283(3)
_cell_length_c                   26.8510(10)
_cell_angle_alpha                90
_cell_angle_beta                 90
_cell_angle_gamma                120
_cell_volume                     2338.55
loop_
_atom_site_label
_atom_site_type_symbol
_atom_site_fract_x
_atom_site_fract_y
_atom_site_fract_z
Co1 Co 1.0000 1.0000 0.81435(9)
C1 C 0.6360(8) 0.8355(8) 0.7976(3)
F1 F 0.5040(18) 0.799(3) 0.8727(6)
F2 F 0.389(2) 0.791(5) 0.8069(8)
F3 F 0.428(3) 0.6111(18) 0.8238(14)
C2 C 0.486(3) 0.758(2) 0.8269(7)
O1 O 0.7582(4) 0.8955(4) 0.81937(17)
O2 O 0.6081(8) 0.8202(9) 0.7527(2)
N1 N 0.9799(5) 0.8357(5) 0.75865(16)
N2 N 0.9854(5) 0.8424(5) 0.87111(15)
C3 C 0.8753(7) 0.6873(6) 0.76119(19)
H1 H 0.8092 0.6530 0.7884
C4 C 0.8592(7) 0.5817(7) 0.72581(19)
H2 H 0.7868 0.4782 0.7302
C5 C 0.9496(7) 0.6279(6) 0.6839(2)
C6 C 1.0607(9) 0.7809(7) 0.6816(2)
H3 H 1.1302 0.8179 0.6553
C7 C 1.0678(9) 0.8781(7) 0.7188(2)
H4 H 1.1405 0.9820 0.7155
C8 C 0.9360(8) 0.5214(7) 0.6432(3)
H5 H 0.9379 0.5687 0.6115
H6 H 0.8371 0.4277 0.6461
C9 C 1.0824(6) 0.7891(6) 0.8734(2)
H7 H 1.1574 0.8198 0.8488
C10 C 1.0794(7) 0.6907(6) 0.9100(2)
H8 H 1.1511 0.6576 0.9097
C11 C 0.9693(8) 0.6417(7) 0.94706(19)
C12 C 0.8657(9) 0.6964(8) 0.9443(2)
H9 H 0.7876 0.6659 0.9678
C13 C 0.8798(8) 0.7948(7) 0.9069(2)
H10 H 0.8107 0.8310 0.9064
C14 C 0.9508(10) 0.5319(8) 0.9888(2)
H11 H 0.9653 0.5857 1.0201
H12 H 0.8453 0.4473 0.9882
N1C N 1.0201(5) 0.1643(5) 0.75865(16)
C3C C 1.1247(7) 0.3127(6) 0.76119(19)
H1C H 1.1908 0.3470 0.7884
C4C C 1.1408(7) 0.4183(7) 0.72581(19)
H2C H 1.2132 0.5218 0.7302
C5C C 1.0504(7) 0.3721(6) 0.6839(2)
C6C C 0.9393(9) 0.2191(7) 0.6816(2)
H3C H 0.8698 0.1821 0.6553
C7C C 0.9322(9) 0.1219(7) 0.7188(2)
H4C H 0.8595 0.0180 0.7155
C8C C 1.0640(8) 0.4786(7) 0.6432(3)
H5C H 1.0621 0.4313 0.6115
H6C H 1.1629 0.5723 0.6461
N2C N 1.0146(5) 0.1576(5) 0.87111(15)
C9C C 0.9176(6) 0.2109(6) 0.8734(2)
H7C H 0.8426 0.1802 0.8488
C10C C 0.9206(7) 0.3093(6) 0.9100(2)
H8C H 0.8489 0.3424 0.9097
C11C C 1.0307(8) 0.3583(7) 0.94706(19)
C12C C 1.1343(9) 0.3036(8) 0.9443(2)
H9C H 1.2124 0.3341 0.9678
C13C C 1.1202(8) 0.2052(7) 0.9069(2)
H10C H 1.1893 0.1690 0.9064
C14C C 1.0492(10) 0.4681(8) 0.9888(2)
H11C H 1.0347 0.4143 1.0201
H12C H 1.1547 0.5527 0.9882
C1C C 1.3640(8) 1.1645(8) 0.7976(3)
F1C F 1.4960(18) 1.201(3) 0.8727(6)
F2C F 1.611(2) 1.209(5) 0.8069(8)
F3C F 1.572(3) 1.3889(18) 0.8238(14)
C2C C 1.514(3) 1.242(2) 0.8269(7)
O1C O 1.2418(4) 1.1045(4) 0.81937(17)
O2C O 1.3919(8) 1.1798(9) 0.7527(2)
Co1_2 Co 1.0000 0.0000 0.81435(9)
N1C_2 N 1.0201(5) 1.1643(5) 0.75865(16)
N2C_2 N 1.0146(5) 1.1576(5) 0.87111(15)
O3 O 0.5000 1.0000 0.6918(5)
F4? F 0.363(2) 0.684(4) 0.8153(14)
F5? F 0.505(5) 0.661(7) 0.862(2)
F6? F 0.519(5) 0.873(5) 0.862(2)
C15? C 0.500(3) 0.762(3) 0.8334(11)
loop_
_geom_bond_atom_site_label_1
_geom_bond_atom_site_label_2
_geom_bond_site_symmetry_1
_geom_bond_site_symmetry_2
Co1 O1 1_555 1_555
C1 C2 1_555 1_555
F1 C2 1_555 1_555
F2 C2 1_555 1_555
F3 C2 1_555 1_555
O1 C1 1_555 1_555
O2 C1 1_555 1_555
N1 Co1 1_555 1_555
N2 Co1 1_555 1_555
C3 N1 1_555 1_555
H1 C3 1_555 1_555
C4 C3 1_555 1_555
H2 C4 1_555 1_555
C5 C4 1_555 1_555
C6 C5 1_555 1_555
H3 C6 1_555 1_555
C7 N1 1_555 1_555
H4 C7 1_555 1_555
C8 C5 1_555 1_555
H5 C8 1_555 1_555
H6 C8 1_555 1_555
C9 N2 1_555 1_555
H7 C9 1_555 1_555
C10 C9 1_555 1_555
H8 C10 1_555 1_555
C11 C10 1_555 1_555
C12 C11 1_555 1_555
H9 C12 1_555 1_555
C13 N2 1_555 1_555
H10 C13 1_555 1_555
C14 C11 1_555 1_555
H11 C14 1_555 1_555
H12 C14 1_555 1_555
N1C C3C 1_555 1_555
C3C H1C 1_555 1_555
C4C C3C 1_555 1_555
H2C C4C 1_555 1_555
C5C C4C 1_555 1_555
C6C C5C 1_555 1_555
H3C C6C 1_555 1_555
C7C N1C 1_555 1_555
H4C C7C 1_555 1_555
C8C C8 1_555 1_555
H5C C8C 1_555 1_555
H6C C8C 1_555 1_555
N2C C9C 1_555 1_555
C9C H7C 1_555 1_555
C10C C9C 1_555 1_555
H8C C10C 1_555 1_555
C11C C10C 1_555 1_555
C12C C11C 1_555 1_555
H9C C12C 1_555 1_555
C13C N2C 1_555 1_555
H10C C13C 1_555 1_555
C14C C14 1_555 1_555
H11C C14C 1_555 1_555
H12C C14C 1_555 1_555
C1C C2C 1_555 1_555
F1C C2C 1_555 1_555
F2C C2C 1_555 1_555
F3C C2C 1_555 1_555
O1C Co1 1_555 1_555
O2C C1C 1_555 1_555
Co1_2 N1C 1_555 1_555
N1C_2 Co1 1_555 1_555
N2C_2 Co1 1_555 1_555
C6 C7 1_555 1_555
C12 C13 1_555 1_555
C5C C8C 1_555 1_555
C6C C7C 1_555 1_555
N2C Co1_2 1_555 1_555
C11C C14C 1_555 1_555
C12C C13C 1_555 1_555
C1C O1C 1_555 1_555

#END
