
#######################################################################
#
#                 Cambridge Crystallographic Data Centre
#                                CCDC 
#
#######################################################################
#
# If this CIF has been generated from an entry in the Cambridge 
# Structural Database, then it will include bibliographic, chemical, 
# crystal, experimental, refinement or atomic coordinate data resulting 
# from the CCDC's data processing and validation procedures.
#
#######################################################################

data_XOGHIM
_symmetry_cell_setting           triclinic
_symmetry_space_group_name_H-M   'P -1'
_symmetry_Int_Tables_number      2
_space_group_name_Hall           '-P 1'
loop_
_symmetry_equiv_pos_site_id
_symmetry_equiv_pos_as_xyz
1 x,y,z
2 -x,-y,-z
_cell_length_a                   11.4430(4)
_cell_length_b                   11.8242(6)
_cell_length_c                   21.1005(8)
_cell_angle_alpha                103.125(4)
_cell_angle_beta                 91.599(3)
_cell_angle_gamma                104.590(3)
_cell_volume                     2679.76
loop_
_atom_site_label
_atom_site_type_symbol
_atom_site_fract_x
_atom_site_fract_y
_atom_site_fract_z
Co1 Co -0.17980(5) 0.89066(7) 0.34455(3)
O1 O -0.2258(3) 0.7162(4) 0.35714(17)
O2 O -0.2036(3) 0.8210(4) 0.24180(16)
O3 O -0.1364(3) 1.0636(4) 0.32766(18)
O4 O -0.1477(3) 0.9702(4) 0.44620(17)
N1 N 0.0106(3) 0.8913(4) 0.3462(2)
N2 N 0.6319(3) 0.8961(4) 0.34856(19)
C1 C 0.0630(4) 0.8503(5) 0.3902(2)
H1 H 0.0153 0.8187 0.4203
C2 C 0.1842(4) 0.8521(5) 0.3935(2)
H2 H 0.2158 0.8212 0.4248
C3 C 0.2590(4) 0.9001(5) 0.3500(2)
C4 C 0.2046(4) 0.9447(6) 0.3047(2)
H3 H 0.2503 0.9781 0.2745
C5 C 0.0831(4) 0.9393(5) 0.3048(2)
H4 H 0.0493 0.9707 0.2745
C6 C 0.3882(4) 0.9009(5) 0.3503(2)
C7 C 0.4476(4) 0.8998(5) 0.2945(2)
H5 H 0.4064 0.9004 0.2560
C8 C 0.5671(4) 0.8980(6) 0.2951(2)
H6 H 0.6048 0.8981 0.2566
C9 C 0.5760(4) 0.8989(6) 0.4023(2)
H7 H 0.6195 0.8989 0.4402
C10 C 0.4567(4) 0.9018(6) 0.4057(2)
H8 H 0.4221 0.9043 0.4452
H9 H -0.1871 0.6661 0.3320
H10 H -0.2976 0.6975 0.3758
H11 H -0.221(11) 0.745(2) 0.227(5)
H12 H -0.163(10) 0.867(8) 0.220(5)
H13 H -0.198(6) 1.092(10) 0.332(6)
H14 H -0.069(5) 1.111(8) 0.347(5)
H15 H -0.150(11) 0.913(7) 0.465(5)
H16 H -0.092(8) 1.035(6) 0.459(6)
Co1_2 Co 0.82020(5) 0.89066(7) 0.34455(3)
N2_2 N -0.3681(3) 0.8961(4) 0.34856(19)
Co2 Co 0.62273(6) 0.27302(7) 0.15664(3)
F1 F 0.8201(10) 0.6208(14) 0.0599(7)
F2 F 0.6667(12) 0.6822(8) 0.0835(4)
F3 F 0.6480(11) 0.5240(8) 0.0116(4)
O5 O 0.6531(3) 0.4050(4) 0.10295(18)
O6 O 0.7265(4) 0.5799(4) 0.1781(2)
O7 O 0.6626(3) 0.3957(4) 0.24560(18)
O8 O 0.5883(3) 0.1319(4) 0.20580(17)
O9 O 0.5774(4) 0.1381(4) 0.07004(17)
N3 N 0.8137(3) 0.2768(4) 0.1561(2)
N4 N 1.4338(4) 0.2719(5) 0.1580(2)
C11 C 0.8804(5) 0.3064(6) 0.1090(3)
H17 H 0.8441 0.3277 0.0751
C12 C 1.0009(5) 0.3070(6) 0.1079(3)
H18 H 1.0436 0.3285 0.0737
C13 C 1.0593(4) 0.2757(5) 0.1575(2)
C14 C 0.9896(4) 0.2476(6) 0.2073(3)
H19 H 1.0233 0.2269 0.2423
C15 C 0.8696(5) 0.2505(6) 0.2046(3)
H20 H 0.8251 0.2328 0.2389
C16 C 1.1874(4) 0.2741(5) 0.1573(2)
C17 C 1.2532(5) 0.2856(6) 0.1046(3)
H21 H 1.2160 0.2955 0.0673
C18 C 1.3733(5) 0.2829(6) 0.1056(3)
H22 H 1.4136 0.2888 0.0683
C19 C 1.3717(5) 0.2623(6) 0.2097(3)
H23 H 1.4119 0.2547 0.2468
C20 C 1.2517(4) 0.2628(6) 0.2118(3)
H24 H 1.2134 0.2557 0.2495
C21 C 0.6932(5) 0.5158(6) 0.1226(3)
C22 C 0.7029(10) 0.5813(9) 0.0699(5)
H25 H 0.665(11) 0.470(3) 0.251(6)
H26 H 0.641(11) 0.363(10) 0.277(4)
H27 H 0.513(4) 0.091(10) 0.200(5)
H28 H 0.622(8) 0.140(12) 0.244(3)
H29 H 0.513(7) 0.082(9) 0.071(5)
H30 H 0.600(10) 0.139(11) 0.032(3)
Co2_2 Co 1.62273(6) 0.27302(7) 0.15664(3)
N4_2 N 0.4338(4) 0.2719(5) 0.1580(2)
F7 F 0.6817(4) 0.7380(6) 0.6119(3)
F8 F 0.7119(5) 0.6397(6) 0.5237(3)
F9 F 0.6866(4) 0.8064(6) 0.5287(3)
O10 O 0.9200(4) 0.7846(4) 0.6250(2)
O11 O 0.9255(3) 0.8585(4) 0.53568(18)
C23 C 0.8751(5) 0.8026(6) 0.5747(3)
C24 C 0.7385(7) 0.7477(9) 0.5597(4)
F10 F 0.7431(16) 0.2011(15) 0.4563(4)
F11 F 0.6029(10) 0.2662(16) 0.4761(5)
F12 F 0.7657(11) 0.3768(10) 0.4741(4)
O12 O 0.6859(3) 0.1852(4) 0.33124(19)
O13 O 0.6220(7) 0.3499(6) 0.3609(3)
C25 C 0.6642(6) 0.2684(7) 0.3704(3)
C26 C 0.6973(12) 0.2793(10) 0.4429(4)
N5 N -0.0845(5) 0.5611(6) 0.3027(3)
N6 N 0.5382(5) 0.5914(5) 0.3275(4)
C27 C -0.0111(6) 0.5971(7) 0.2598(3)
H31 H -0.0420 0.6272 0.2279
C28 C 0.1063(5) 0.5932(6) 0.2592(3)
H32 H 0.1531 0.6197 0.2274
C29 C 0.1562(5) 0.5497(5) 0.3060(3)
C30 C 0.0791(5) 0.5041(6) 0.3478(3)
H33 H 0.1057 0.4663 0.3773
C31 C -0.0380(5) 0.5145(8) 0.3461(4)
H34 H -0.0873 0.4875 0.3769
C32 C 0.2875(5) 0.5560(5) 0.3109(3)
C33 C 0.3600(5) 0.5759(6) 0.2617(3)
H35 H 0.3257 0.5794 0.2219
C34 C 0.4824(6) 0.5905(7) 0.2707(4)
H36 H 0.5288 0.6002 0.2358
C35 C 0.4676(6) 0.5681(7) 0.3737(4)
H37 H 0.5038 0.5629 0.4126
C36 C 0.3454(5) 0.5510(6) 0.3684(3)
H38 H 0.3008 0.5360 0.4032
N7 N 0.8998(7) 0.9282(6) 0.1471(3)
C37 C 0.8293(7) 0.9597(7) 0.1070(3)
H39 H 0.7519 0.9623 0.1183
C38 C 0.8649(6) 0.9890(7) 0.0495(3)
H40 H 0.8124 1.0118 0.0234
C39 C 0.9785(6) 0.9844(6) 0.0307(3)
C40 C 1.0500(7) 0.9512(8) 0.0723(3)
H41 H 1.1278 0.9471 0.0624
C41 C 1.0075(9) 0.9238(9) 0.1287(4)
H42 H 1.0582 0.9007 0.1556
N7A N 1.1002(7) 1.0718(6) -0.1471(3)
C37A C 1.1707(7) 1.0403(7) -0.1070(3)
H39A H 1.2481 1.0377 -0.1183
C38A C 1.1351(6) 1.0110(7) -0.0495(3)
H40A H 1.1876 0.9882 -0.0234
C39A C 1.0215(6) 1.0156(6) -0.0307(3)
C40A C 0.9500(7) 1.0488(8) -0.0723(3)
H41A H 0.8722 1.0529 -0.0624
C41A C 0.9925(9) 1.0762(9) -0.1287(4)
H42A H 0.9418 1.0993 -0.1556
C42 C 0.6408(8) 0.1006(9) 0.8938(5)
C43 C 0.7013(12) 0.2331(10) 0.9011(5)
O14 O 0.6279(5) 0.0380(6) 0.8376(3)
O15 O 0.6203(7) 0.0658(7) 0.9439(3)
F16 F 0.7869(9) 0.2430(8) 0.8598(4)
F17 F 0.7573(12) 0.2804(9) 0.9594(5)
F18 F 0.6415(9) 0.3075(9) 0.8892(6)
F4? F 0.783(4) 0.524(3) 0.026(2)
F5? F 0.773(3) 0.698(2) 0.0817(19)
F6? F 0.574(2) 0.550(3) 0.0444(14)
F13? F 0.622(5) 0.356(4) 0.4721(15)
F14? F 0.824(3) 0.296(6) 0.4438(17)
F15? F 0.654(5) 0.179(5) 0.4502(19)
C44? C 0.579(3) 0.109(4) 0.898(2)
C45? C 0.695(3) 0.206(3) 0.908(2)
O16? O 0.552(3) 0.086(3) 0.9378(13)
O17? O 0.523(2) 0.090(2) 0.8507(10)
F19? F 0.643(2) 0.297(3) 0.949(2)
F20? F 0.699(4) 0.272(4) 0.8562(14)
F21? F 0.8171(17) 0.2764(13) 0.9330(14)
loop_
_geom_bond_atom_site_label_1
_geom_bond_atom_site_label_2
_geom_bond_site_symmetry_1
_geom_bond_site_symmetry_2
Co1 O1 1_555 1_555
O1 H9 1_555 1_555
O2 Co1 1_555 1_555
O3 Co1 1_555 1_555
O4 Co1 1_555 1_555
N1 Co1 1_555 1_555
N2 C8 1_555 1_555
C1 N1 1_555 1_555
H1 C1 1_555 1_555
C2 C1 1_555 1_555
H2 C2 1_555 1_555
C3 C2 1_555 1_555
C4 C3 1_555 1_555
H3 C4 1_555 1_555
C5 N1 1_555 1_555
H4 C5 1_555 1_555
C6 C3 1_555 1_555
C7 C6 1_555 1_555
H5 C7 1_555 1_555
C8 C7 1_555 1_555
H6 C8 1_555 1_555
C9 N2 1_555 1_555
H7 C9 1_555 1_555
C10 C6 1_555 1_555
H8 C10 1_555 1_555
H10 O1 1_555 1_555
H11 O2 1_555 1_555
H12 O2 1_555 1_555
H13 O3 1_555 1_555
H14 O3 1_555 1_555
H15 O4 1_555 1_555
H16 O4 1_555 1_555
Co2 O5 1_555 1_555
F1 C22 1_555 1_555
F2 C22 1_555 1_555
F3 C22 1_555 1_555
O5 C21 1_555 1_555
O6 C21 1_555 1_555
O7 Co2 1_555 1_555
O8 Co2 1_555 1_555
O9 Co2 1_555 1_555
N3 Co2 1_555 1_555
N4 C18 1_555 1_555
C11 N3 1_555 1_555
H17 C11 1_555 1_555
C12 C11 1_555 1_555
H18 C12 1_555 1_555
C13 C12 1_555 1_555
C14 C13 1_555 1_555
H19 C14 1_555 1_555
C15 N3 1_555 1_555
H20 C15 1_555 1_555
C16 C13 1_555 1_555
C17 C16 1_555 1_555
H21 C17 1_555 1_555
C18 C17 1_555 1_555
H22 C18 1_555 1_555
C19 N4 1_555 1_555
H23 C19 1_555 1_555
C20 C16 1_555 1_555
H24 C20 1_555 1_555
C21 C22 1_555 1_555
H25 O7 1_555 1_555
H26 O7 1_555 1_555
H27 O8 1_555 1_555
H28 O8 1_555 1_555
H29 O9 1_555 1_555
H30 O9 1_555 1_555
F7 C24 1_555 1_555
F8 C24 1_555 1_555
F9 C24 1_555 1_555
O10 C23 1_555 1_555
O11 C23 1_555 1_555
C23 C24 1_555 1_555
F10 C26 1_555 1_555
F11 C26 1_555 1_555
F12 C26 1_555 1_555
O12 C25 1_555 1_555
O13 C25 1_555 1_555
C25 C26 1_555 1_555
N5 C27 1_555 1_555
N6 C34 1_555 1_555
C27 H31 1_555 1_555
C28 C27 1_555 1_555
H32 C28 1_555 1_555
C29 C28 1_555 1_555
C30 C29 1_555 1_555
H33 C30 1_555 1_555
C31 N5 1_555 1_555
H34 C31 1_555 1_555
C32 C29 1_555 1_555
C33 C32 1_555 1_555
H35 C33 1_555 1_555
C34 C33 1_555 1_555
H36 C34 1_555 1_555
C35 N6 1_555 1_555
H37 C35 1_555 1_555
C36 C32 1_555 1_555
H38 C36 1_555 1_555
N7 C37 1_555 1_555
C37 H39 1_555 1_555
C38 C37 1_555 1_555
H40 C38 1_555 1_555
C39 C38 1_555 1_555
C40 C39 1_555 1_555
H41 C40 1_555 1_555
C41 N7 1_555 1_555
H42 C41 1_555 1_555
C42 C43 1_555 1_555
C43 F16 1_555 1_555
O14 C42 1_555 1_555
O15 C42 1_555 1_555
F17 C43 1_555 1_555
F18 C43 1_555 1_555
Co1_2 N2 1_555 1_555
N2_2 Co1 1_555 1_555
Co2_2 N4 1_555 1_555
N4_2 Co2 1_555 1_555
N7A C37A 1_555 1_555
C37A H39A 1_555 1_555
C38A C37A 1_555 1_555
H40A C38A 1_555 1_555
C39A C39 1_555 1_555
C40A C39A 1_555 1_555
H41A C40A 1_555 1_555
C41A N7A 1_555 1_555
H42A C41A 1_555 1_555
C4 C5 1_555 1_555
C9 C10 1_555 1_555
C14 C15 1_555 1_555
C19 C20 1_555 1_555
C30 C31 1_555 1_555
C35 C36 1_555 1_555
C40 C41 1_555 1_555
C38A C39A 1_555 1_555
C40A C41A 1_555 1_555

#END
