
#######################################################################
#
#                 Cambridge Crystallographic Data Centre
#                                CCDC 
#
#######################################################################
#
# If this CIF has been generated from an entry in the Cambridge 
# Structural Database, then it will include bibliographic, chemical, 
# crystal, experimental, refinement or atomic coordinate data resulting 
# from the CCDC's data processing and validation procedures.
#
#######################################################################

data_XOGJIO
_symmetry_cell_setting           triclinic
_symmetry_space_group_name_H-M   'P -1'
_symmetry_Int_Tables_number      2
_space_group_name_Hall           '-P 1'
loop_
_symmetry_equiv_pos_site_id
_symmetry_equiv_pos_as_xyz
1 x,y,z
2 -x,-y,-z
_cell_length_a                   9.3011(19)
_cell_length_b                   13.991(3)
_cell_length_c                   19.562(4)
_cell_angle_alpha                95.54(3)
_cell_angle_beta                 99.90(3)
_cell_angle_gamma                103.17(3)
_cell_volume                     2417.21
loop_
_atom_site_label
_atom_site_type_symbol
_atom_site_fract_x
_atom_site_fract_y
_atom_site_fract_z
Cd1 Cd 0.18594(4) -0.47565(2) 0.968520(15)
Cd2 Cd 0.10160(4) 0.40488(2) 0.653299(17)
Cd3 Cd 0.36572(5) 0.59183(2) 0.507323(19)
O1 O -0.2188(6) -0.3714(3) 1.0020(3)
O2 O -0.0428(4) -0.4205(2) 0.95955(19)
O3 O 0.0245(5) -0.5617(3) 0.8662(2)
O4 O -0.4368(5) -0.4504(2) 0.57512(19)
O5 O -0.2170(5) -0.4461(3) 0.54515(19)
O6 O 0.0462(5) 0.2351(2) 0.65692(18)
O7 O 0.1118(4) 0.3294(2) 0.75896(18)
O8 O 0.3388(5) 0.4033(3) 0.6338(2)
O9 O -0.0056(6) 0.3784(4) 0.5370(2)
O10 O 0.2140(5) 0.5604(2) 0.6949(2)
O11 O 0.2478(5) 0.6096(3) 0.5942(2)
O12 O 0.6500(5) 1.2540(3) 0.5194(2)
O13 O 0.4609(5) 1.3047(3) 0.5456(2)
O14 O 0.7716(5) 1.3660(3) 0.9261(2)
O15 O 0.6739(5) 1.3063(3) 1.0123(2)
N1 N 0.3731(5) -0.4913(3) 0.9052(2)
N2 N 0.8878(5) -0.5659(3) 0.6881(2)
C1 C -0.1179(6) -0.3581(3) 0.9673(2)
C2 C -0.0902(6) -0.2671(3) 0.9320(2)
C3 C -0.1726(7) -0.1975(4) 0.9409(3)
H1 H -0.2423 -0.2064 0.9701
C4 C -0.1518(7) -0.1149(4) 0.9068(3)
H2 H -0.2058 -0.0677 0.9139
C5 C -0.0512(5) -0.1021(3) 0.8622(2)
C6 C 0.0305(6) -0.1718(4) 0.8528(3)
H3 H 0.0979 -0.1639 0.8225
C7 C 0.0126(6) -0.2536(3) 0.8884(3)
H4 H 0.0698 -0.2992 0.8828
C8 C -0.0274(5) -0.0145(3) 0.8239(2)
C9 C 0.0257(6) 0.0804(3) 0.8630(3)
H5 H 0.0398 0.0871 0.9116
C10 C 0.0573(6) 0.1641(3) 0.8306(2)
H6 H 0.0923 0.2264 0.8573
C11 C 0.0366(5) 0.1547(3) 0.7583(2)
C12 C -0.0174(5) 0.0607(3) 0.7188(2)
H7 H -0.0322 0.0548 0.6702
C13 C -0.0498(5) -0.0245(3) 0.7508(2)
C14 C -0.1128(5) -0.1232(3) 0.7060(2)
C15 C -0.0353(6) -0.1583(4) 0.6600(3)
H8 H 0.0580 -0.1199 0.6561
C16 C -0.0930(7) -0.2498(4) 0.6192(3)
H9 H -0.0362 -0.2733 0.5898
C17 C -0.2338(5) -0.3070(3) 0.6215(2)
C18 C -0.3137(6) -0.2715(3) 0.6672(3)
H10 H -0.4087 -0.3089 0.6695
C19 C -0.2541(5) -0.1810(3) 0.7095(3)
H11 H -0.3087 -0.1585 0.7404
C20 C -0.2991(7) -0.4068(3) 0.5776(2)
C21 C 0.0679(6) 0.2447(3) 0.7227(2)
C22 C 0.2553(5) 0.6263(3) 0.6584(3)
C23 C 0.3140(5) 0.7302(3) 0.6972(2)
C24 C 0.3323(6) 0.7444(3) 0.7691(3)
H12 H 0.3049 0.6903 0.7925
C25 C 0.3909(6) 0.8381(4) 0.8070(3)
H13 H 0.4061 0.8461 0.8557
C26 C 0.4273(5) 0.9206(3) 0.7728(3)
C27 C 0.4053(5) 0.9076(3) 0.6999(2)
C28 C 0.3502(5) 0.8115(3) 0.6623(2)
H14 H 0.3378 0.8024 0.6138
C29 C 0.4364(5) 0.9924(3) 0.6589(2)
C30 C 0.5377(7) 0.9973(4) 0.6148(3)
H15 H 0.5846 0.9459 0.6090
C31 C 0.5709(7) 1.0778(4) 0.5790(3)
H16 H 0.6427 1.0810 0.5510
C32 C 0.4978(6) 1.1539(3) 0.5845(2)
C33 C 0.3917(6) 1.1472(3) 0.6270(3)
H17 H 0.3394 1.1963 0.6301
C34 C 0.3625(6) 1.0684(3) 0.6649(3)
H18 H 0.2936 1.0661 0.6944
C35 C 0.5380(7) 1.2418(3) 0.5476(3)
C36 C 0.4957(5) 1.0189(3) 0.8172(3)
C37 C 0.6249(6) 1.0832(3) 0.8062(3)
H19 H 0.6697 1.0656 0.7695
C38 C 0.6874(6) 1.1723(3) 0.8488(3)
H20 H 0.7720 1.2152 0.8397
C39 C 0.6262(6) 1.1989(4) 0.9049(3)
C40 C 0.5004(8) 1.1353(5) 0.9178(4)
H21 H 0.4587 1.1521 0.9558
C41 C 0.4350(7) 1.0452(4) 0.8738(3)
H22 H 0.3499 1.0027 0.8828
C42 C 0.6948(6) 1.2970(4) 0.9509(3)
C43 C 0.4573(7) -0.4164(4) 0.8822(3)
H23 H 0.4521 -0.3525 0.8976
C44 C 0.5525(7) -0.4278(4) 0.8368(3)
H24 H 0.6085 -0.3724 0.8222
C45 C 0.5647(6) -0.5208(4) 0.8133(3)
C46 C 0.4770(6) -0.6001(4) 0.8373(3)
H25 H 0.4808 -0.6647 0.8231
C47 C 0.3854(6) -0.5820(4) 0.8820(3)
H26 H 0.3278 -0.6361 0.8973
C48 C 0.6727(6) -0.5361(4) 0.7677(2)
C49 C 0.7870(7) -0.4583(4) 0.7591(3)
H27 H 0.7945 -0.3942 0.7799
C50 C 0.8895(7) -0.4762(4) 0.7198(3)
H28 H 0.9651 -0.4225 0.7149
C51 C 0.7744(6) -0.6401(4) 0.6963(3)
H29 H 0.7676 -0.7032 0.6739
C52 C 0.6690(7) -0.6297(4) 0.7347(3)
H30 H 0.5948 -0.6847 0.7390
Cd1A Cd -0.18594(4) -0.52435(2) 1.031480(15)
Cd1A_2 Cd 0.81406(4) 1.47565(2) 1.031480(15)
Cd2_2 Cd 1.10160(4) -0.59512(2) 0.653299(17)
Cd3_2 Cd -0.63428(5) -0.40817(2) 0.507323(19)
Cd3A Cd -0.36572(5) -0.59183(2) 0.492677(19)
Cd3A_2 Cd 0.63428(5) 1.40817(2) 0.492677(19)
O1A O 0.2188(6) -0.6286(3) 0.9980(3)
O2A O 0.0428(4) -0.5795(2) 1.04045(19)
O4_2 O 0.5632(5) 0.5496(2) 0.57512(19)
O4A O 0.4368(5) 0.4504(2) 0.42488(19)
O5A O 0.2170(5) 0.4461(3) 0.45485(19)
O12A O 0.3500(5) 0.7460(3) 0.4806(2)
O13A O 0.5391(5) 0.6953(3) 0.4544(2)
O14A O 0.2284(5) -0.3660(3) 1.0739(2)
O15A O 0.3261(5) -0.3063(3) 0.9877(2)
N2_2 N -0.1122(5) 0.4341(3) 0.6881(2)
O16 O 0.0000 0.0000 0.5000
O17 O 0.9249(18) 0.1614(13) 0.5119(6)
loop_
_geom_bond_atom_site_label_1
_geom_bond_atom_site_label_2
_geom_bond_site_symmetry_1
_geom_bond_site_symmetry_2
Cd1 O2 1_555 1_555
Cd2 O6 1_555 1_555
Cd3 O11 1_555 1_555
O1 C1 1_555 1_555
O2 C1 1_555 1_555
O3 Cd1 1_555 1_555
O4 C20 1_555 1_555
O5 C20 1_555 1_555
O6 C21 1_555 1_555
O7 Cd2 1_555 1_555
O8 Cd2 1_555 1_555
O9 Cd2 1_555 1_555
O10 Cd2 1_555 1_555
O11 C22 1_555 1_555
O12 C35 1_555 1_555
O13 C35 1_555 1_555
O14 C42 1_555 1_555
O15 C42 1_555 1_555
N1 Cd1 1_555 1_555
N2 C50 1_555 1_555
C1 C2 1_555 1_555
C2 C3 1_555 1_555
C3 H1 1_555 1_555
C4 C3 1_555 1_555
H2 C4 1_555 1_555
C5 C4 1_555 1_555
C6 C5 1_555 1_555
H3 C6 1_555 1_555
C7 C2 1_555 1_555
H4 C7 1_555 1_555
C8 C5 1_555 1_555
C9 C8 1_555 1_555
H5 C9 1_555 1_555
C10 C9 1_555 1_555
H6 C10 1_555 1_555
C11 C10 1_555 1_555
C12 C11 1_555 1_555
H7 C12 1_555 1_555
C13 C8 1_555 1_555
C14 C13 1_555 1_555
C15 C14 1_555 1_555
H8 C15 1_555 1_555
C16 C15 1_555 1_555
H9 C16 1_555 1_555
C17 C16 1_555 1_555
C18 C17 1_555 1_555
H10 C18 1_555 1_555
C19 C14 1_555 1_555
H11 C19 1_555 1_555
C20 C17 1_555 1_555
C21 O7 1_555 1_555
C22 O10 1_555 1_555
C23 C22 1_555 1_555
C24 C23 1_555 1_555
H12 C24 1_555 1_555
C25 C24 1_555 1_555
H13 C25 1_555 1_555
C26 C25 1_555 1_555
C27 C26 1_555 1_555
C28 C23 1_555 1_555
H14 C28 1_555 1_555
C29 C27 1_555 1_555
C30 C29 1_555 1_555
H15 C30 1_555 1_555
C31 C30 1_555 1_555
H16 C31 1_555 1_555
C32 C31 1_555 1_555
C33 C32 1_555 1_555
H17 C33 1_555 1_555
C34 C29 1_555 1_555
H18 C34 1_555 1_555
C35 C32 1_555 1_555
C36 C26 1_555 1_555
C37 C36 1_555 1_555
H19 C37 1_555 1_555
C38 C37 1_555 1_555
H20 C38 1_555 1_555
C39 C38 1_555 1_555
C40 C39 1_555 1_555
H21 C40 1_555 1_555
C41 C36 1_555 1_555
H22 C41 1_555 1_555
C42 C39 1_555 1_555
C43 N1 1_555 1_555
H23 C43 1_555 1_555
C44 C43 1_555 1_555
H24 C44 1_555 1_555
C45 C44 1_555 1_555
C46 C45 1_555 1_555
H25 C46 1_555 1_555
C47 N1 1_555 1_555
H26 C47 1_555 1_555
C48 C45 1_555 1_555
C49 C48 1_555 1_555
H27 C49 1_555 1_555
C50 C49 1_555 1_555
H28 C50 1_555 1_555
C51 N2 1_555 1_555
H29 C51 1_555 1_555
C52 C48 1_555 1_555
H30 C52 1_555 1_555
Cd1A O1 1_555 1_555
Cd1A_2 O14 1_555 1_555
Cd2_2 N2 1_555 1_555
Cd3_2 O4 1_555 1_555
Cd3A O4 1_555 1_555
Cd3A_2 O12 1_555 1_555
O1A Cd1 1_555 1_555
O2A Cd1 1_555 1_555
O4_2 Cd3 1_555 1_555
O4A Cd3 1_555 1_555
O5A Cd3 1_555 1_555
O12A Cd3 1_555 1_555
O13A Cd3 1_555 1_555
O14A Cd1 1_555 1_555
O15A Cd1 1_555 1_555
N2_2 Cd2 1_555 1_555
O2 Cd1A 1_555 1_555
O5 Cd3A 1_555 1_555
O13 Cd3A_2 1_555 1_555
O15 Cd1A_2 1_555 1_555
C6 C7 1_555 1_555
C11 C21 1_555 1_555
C12 C13 1_555 1_555
C18 C19 1_555 1_555
C27 C28 1_555 1_555
C33 C34 1_555 1_555
C40 C41 1_555 1_555
C46 C47 1_555 1_555
C51 C52 1_555 1_555
Cd1A O2A 1_555 1_555

#END
