
#######################################################################
#
#                 Cambridge Crystallographic Data Centre
#                                CCDC 
#
#######################################################################
#
# If this CIF has been generated from an entry in the Cambridge 
# Structural Database, then it will include bibliographic, chemical, 
# crystal, experimental, refinement or atomic coordinate data resulting 
# from the CCDC's data processing and validation procedures.
#
#######################################################################

data_XOGJOS
_symmetry_cell_setting           triclinic
_symmetry_space_group_name_H-M   'P -1'
_symmetry_Int_Tables_number      2
_space_group_name_Hall           '-P 1'
loop_
_symmetry_equiv_pos_site_id
_symmetry_equiv_pos_as_xyz
1 x,y,z
2 -x,-y,-z
_cell_length_a                   7.5451(9)
_cell_length_b                   10.942(2)
_cell_length_c                   6.7415(8)
_cell_angle_alpha                98.482(5)
_cell_angle_beta                 113.109(9)
_cell_angle_gamma                72.186(5)
_cell_volume                     487.126
loop_
_atom_site_label
_atom_site_type_symbol
_atom_site_fract_x
_atom_site_fract_y
_atom_site_fract_z
Zn1 Zn 0.0000 -0.5000 0.0000
Cu1 Cu -1.0000 0.0000 -1.0000
O1 O -0.8517(4) -0.1459(2) -1.1189(4)
O2 O -0.5875(4) -0.3155(2) -1.0302(4)
O3 O -0.1952(4) -0.3556(2) -0.2121(4)
O4 O -0.2265(4) -0.1726(2) -0.0124(4)
O5 O -0.2207(4) -0.4840(2) 0.1291(4)
O6 O 0.0920(4) -0.3527(2) 0.2169(4)
N1 N -0.7875(4) -0.0629(3) -0.7233(4)
C1 C -0.6496(5) -0.1696(3) -0.7498(5)
C2 C -0.4850(5) -0.2283(3) -0.5795(5)
C3 C -0.4581(5) -0.1756(3) -0.3733(5)
C4 C -0.5984(5) -0.0651(3) -0.3454(5)
C5 C -0.7629(5) -0.0116(3) -0.5244(5)
C6 C -0.6962(5) -0.2156(3) -0.9828(5)
C7 C -0.2773(5) -0.2393(3) -0.1806(5)
C8 C 0.1452(7) -0.3606(4) 0.4427(6)
H1 H -0.3927 -0.3064 -0.6039
H2 H -0.5800 -0.0267 -0.2044
H3 H -0.8610 0.0633 -0.5030
H4 H 0.0322 -0.3661 0.4718
H5 H 0.2529 -0.4340 0.4978
H6 H 0.1821 -0.2854 0.5178
O1A O 0.8517(4) -0.8541(2) 1.1189(4)
O2A O 0.5875(4) -0.6845(2) 1.0302(4)
O3A O 0.1952(4) -0.6444(2) 0.2121(4)
O4A O 0.2265(4) -0.8274(2) 0.0124(4)
N1A N 0.7875(4) -0.9371(3) 0.7233(4)
C1A C 0.6496(5) -0.8304(3) 0.7498(5)
C2A C 0.4850(5) -0.7717(3) 0.5795(5)
C3A C 0.4581(5) -0.8244(3) 0.3733(5)
C4A C 0.5984(5) -0.9349(3) 0.3454(5)
C5A C 0.7629(5) -0.9884(3) 0.5244(5)
C6A C 0.6962(5) -0.7844(3) 0.9828(5)
C7A C 0.2773(5) -0.7607(3) 0.1806(5)
H1A H 0.3927 -0.6936 0.6039
H2A H 0.5800 -0.9733 0.2044
H3A H 0.8610 -1.0633 0.5030
O5A O 0.2207(4) -0.5160(2) -0.1291(4)
O6A O -0.0920(4) -0.6473(2) -0.2169(4)
C8A C -0.1452(7) -0.6394(4) -0.4427(6)
H4A H -0.0322 -0.6339 -0.4718
H5A H -0.2529 -0.5660 -0.4978
H6A H -0.1821 -0.7146 -0.5178
O1A_2 O -1.1483(4) 0.1459(2) -0.8811(4)
N1A_2 N -1.2125(4) 0.0629(3) -1.2767(4)
Cu1_2 Cu 1.0000 -1.0000 1.0000
loop_
_geom_bond_atom_site_label_1
_geom_bond_atom_site_label_2
_geom_bond_site_symmetry_1
_geom_bond_site_symmetry_2
Zn1 O3 1_555 1_555
Cu1 O1 1_555 1_555
O1 C6 1_555 1_555
O2 C6 1_555 1_555
O3 C7 1_555 1_555
O4 C7 1_555 1_555
O5 Zn1 1_555 1_555
O6 Zn1 1_555 1_555
N1 Cu1 1_555 1_555
C1 N1 1_555 1_555
C2 C1 1_555 1_555
C3 C2 1_555 1_555
C4 C3 1_555 1_555
C5 N1 1_555 1_555
C6 C1 1_555 1_555
C7 C3 1_555 1_555
C8 O6 1_555 1_555
H1 C2 1_555 1_555
H2 C4 1_555 1_555
H3 C5 1_555 1_555
H4 C8 1_555 1_555
H5 C8 1_555 1_555
H6 C8 1_555 1_555
O1A C6A 1_555 1_555
O2A C6A 1_555 1_555
O3A Zn1 1_555 1_555
O4A C7A 1_555 1_555
N1A C1A 1_555 1_555
C1A C2A 1_555 1_555
C2A C3A 1_555 1_555
C3A C4A 1_555 1_555
C4A C5A 1_555 1_555
C5A N1A 1_555 1_555
C6A C1A 1_555 1_555
C7A O3A 1_555 1_555
H1A C2A 1_555 1_555
H2A C4A 1_555 1_555
H3A C5A 1_555 1_555
O5A Zn1 1_555 1_555
O6A Zn1 1_555 1_555
C8A O6A 1_555 1_555
H4A C8A 1_555 1_555
H5A C8A 1_555 1_555
H6A C8A 1_555 1_555
O1A_2 Cu1 1_555 1_555
N1A_2 Cu1 1_555 1_555
Cu1_2 O1A 1_555 1_555
C4 C5 1_555 1_555
N1A Cu1_2 1_555 1_555
C3A C7A 1_555 1_555

#END
