
#######################################################################
#
#                 Cambridge Crystallographic Data Centre
#                                CCDC 
#
#######################################################################
#
# If this CIF has been generated from an entry in the Cambridge 
# Structural Database, then it will include bibliographic, chemical, 
# crystal, experimental, refinement or atomic coordinate data resulting 
# from the CCDC's data processing and validation procedures.
#
#######################################################################

data_XOGMEN
_symmetry_cell_setting           monoclinic
_symmetry_space_group_name_H-M   'P 21/n'
_symmetry_Int_Tables_number      14
_space_group_name_Hall           '-P 2yn'
loop_
_symmetry_equiv_pos_site_id
_symmetry_equiv_pos_as_xyz
1 x,y,z
2 1/2-x,1/2+y,1/2-z
3 -x,-y,-z
4 1/2+x,1/2-y,1/2+z
_cell_length_a                   13.7604(14)
_cell_length_b                   19.380(2)
_cell_length_c                   15.9509(17)
_cell_angle_alpha                90
_cell_angle_beta                 113.614(3)
_cell_angle_gamma                90
_cell_volume                     3897.54
loop_
_atom_site_label
_atom_site_type_symbol
_atom_site_fract_x
_atom_site_fract_y
_atom_site_fract_z
Co1 Co 1.04014(2) 0.342012(14) 0.714093(18)
Co2 Co 0.54512(2) 0.624196(14) 0.153420(19)
O1 O 1.13249(12) 0.34993(8) 0.63471(11)
H1 H 1.1877 0.3706 0.6642
H2 H 1.1397 0.3162 0.6151
O2 O 0.56989(13) 0.51480(8) 0.16679(10)
O3 O 0.50686(13) 0.80704(8) 0.09825(10)
O4 O 0.91075(12) 0.35666(8) 0.58810(10)
O5 O 0.67714(12) 0.58185(8) 0.27583(10)
O6 O 0.94772(12) 0.46426(8) 0.55679(10)
O7 O 0.64155(15) 0.64229(10) 0.08523(12)
C1 C 0.65199(16) 0.95100(10) 0.31150(13)
O8 O 0.57159(14) 0.72245(8) 0.20148(11)
C2 C 0.75916(16) 0.34029(10) 0.40995(14)
H3 H 0.7830 0.3008 0.4455
C3 C 0.62164(16) 0.83588(10) 0.25022(13)
C4 C 0.76981(16) 0.46403(10) 0.39056(13)
H4 H 0.8014 0.5064 0.4127
C5 C 0.68616(16) 0.45951(10) 0.30435(13)
C6 C 0.76829(16) 0.85765(10) 0.39446(13)
C7 C 0.59484(16) 0.90555(10) 0.24112(13)
H5 H 0.5395 0.9216 0.1888
N1 N 0.95128(15) 0.33528(10) 0.79419(12)
C8 C 0.80552(16) 0.40433(10) 0.44318(13)
C9 C 0.89356(16) 0.40627(10) 0.53565(13)
C10 C 0.67708(16) 0.33590(10) 0.32342(14)
C11 C 0.73944(16) 0.92733(10) 0.38736(13)
H6 H 0.7786 0.9580 0.4333
N2 N 1.00113(16) 0.35412(10) 0.88380(13)
H7 H 1.0578 0.3788 0.9050
C12 C 0.64325(16) 0.52225(10) 0.24571(14)
C13 C 0.70722(16) 0.81179(10) 0.32682(13)
H8 H 0.7235 0.7650 0.3327
C14 C 0.64035(16) 0.39570(10) 0.27132(13)
H9 H 0.5847 0.3928 0.2140
C15 C 0.56322(16) 0.78366(10) 0.17945(14)
C16 C 0.86723(18) 0.29805(11) 0.78942(16)
C17 C 0.86419(19) 0.29290(12) 0.87662(17)
C18 C 0.8881(2) 0.14350(13) 0.88444(17)
H10 H 0.9395 0.1717 0.8784
C19 C 0.9516(2) 0.32980(12) 0.93493(16)
C20 C 0.80246(19) 0.17340(12) 0.89691(16)
C21 C 0.7877(2) 0.25095(13) 0.90108(19)
H11 H 0.7160 0.2628 0.8596
H12 H 0.7957 0.2632 0.9625
C22 C 0.7282(2) 0.12928(14) 0.9076(2)
H13 H 0.6713 0.1478 0.9173
C23 C 0.8976(2) 0.07234(13) 0.88095(17)
H14 H 0.9554 0.0537 0.8726
C24 C 0.79193(19) 0.26690(13) 0.70135(17)
H15 H 0.8152 0.2775 0.6536
H16 H 0.7222 0.2855 0.6859
H17 H 0.7901 0.2178 0.7082
C25 C 0.8219(2) 0.02821(13) 0.88977(17)
C26 C 0.7377(2) 0.05847(14) 0.9039(2)
H18 H 0.6867 0.0303 0.9109
C27 C 0.9914(3) 0.34438(16) 1.03537(19)
H19 H 1.0674 0.3416 1.0623
H20 H 0.9626 0.3110 1.0637
H21 H 0.9696 0.3898 1.0445
C28 C 0.62938(17) 0.26777(10) 0.28360(14)
O9 O 0.54892(12) 0.26656(8) 0.20829(10)
O10 O 0.66946(12) 0.21207(8) 0.32486(11)
C29 C 0.62312(16) 1.02587(10) 0.30967(14)
O11 O 0.56788(12) 1.05318(7) 0.23121(10)
O12 O 0.65313(14) 1.05697(8) 0.38378(11)
C30 C 0.86456(16) 0.83232(10) 0.47393(13)
O13 O 0.91666(13) 0.87686(8) 0.53152(11)
O14 O 0.88479(12) 0.76852(8) 0.47759(10)
C31 C 0.8291(3) -0.04947(14) 0.8813(2)
H22 H 0.8854 -0.0673 0.9361
H23 H 0.7630 -0.0704 0.8765
C32 C 0.8505(2) -0.06933(12) 0.79941(18)
C33 C 0.7915(2) -0.05025(13) 0.70945(18)
C34 C 0.9381(2) -0.10590(12) 0.79747(16)
N3 N 0.93351(16) -0.10907(10) 0.71201(13)
C35 C 1.0275(2) -0.13884(15) 0.87542(18)
H24 H 1.0696 -0.1658 0.8521
H25 H 0.9994 -0.1681 0.9088
H26 H 1.0708 -0.1037 0.9153
N4 N 0.84276(16) -0.07478(10) 0.65977(14)
H27 H 0.8209 -0.0695 0.6016
C36 C 0.6896(2) -0.01086(16) 0.6670(2)
H28 H 0.6692 -0.0081 0.6020
H29 H 0.6992 0.0348 0.6923
H30 H 0.6352 -0.0341 0.6794
H31 H 0.700(3) 0.6574(19) 0.110(3)
H32 H 0.636(3) 0.613(2) 0.057(3)
Co1C Co 0.54014(2) 0.157988(14) 0.214093(18)
Co1C_2 Co 0.54014(2) 1.157988(14) 0.214093(18)
Co2C Co 1.04512(2) -0.124196(14) 0.653420(19)
Co2C_2 Co 1.04512(2) 0.875804(14) 0.653420(19)
O9C O 1.04892(12) 0.23344(8) 0.70829(10)
O10C O 1.16946(12) 0.28793(8) 0.82486(11)
O11C O 1.06788(12) 0.44682(7) 0.73121(10)
O13C O 0.41666(13) 0.62314(8) 0.03152(11)
N3C N 0.43351(16) 0.60907(10) 0.21201(13)
C37 C 0.6436(3) 0.6020(2) -0.1105(3)
H33 H 0.6173 0.6378 -0.1556
H34 H 0.7181 0.5956 -0.0945
O15 O 0.6196(2) 0.55217(14) -0.05448(17)
H35 H 0.5588 0.5381 -0.0817
O16? O 0.6226(7) 0.6261(5) -0.0103(6)
H36? H 0.6066 0.5597 -0.1348
loop_
_geom_bond_atom_site_label_1
_geom_bond_atom_site_label_2
_geom_bond_site_symmetry_1
_geom_bond_site_symmetry_2
Co1 O1 1_555 1_555
Co2 O2 1_555 1_555
O1 H1 1_555 1_555
H2 O1 1_555 1_555
O2 C12 1_555 1_555
O3 C15 1_555 1_555
O4 Co1 1_555 1_555
O5 Co2 1_555 1_555
O6 C9 1_555 1_555
O7 Co2 1_555 1_555
C1 C7 1_555 1_555
O8 Co2 1_555 1_555
C2 H3 1_555 1_555
C3 C7 1_555 1_555
C4 H4 1_555 1_555
C5 C4 1_555 1_555
C6 C11 1_555 1_555
C7 H5 1_555 1_555
N1 Co1 1_555 1_555
C8 C2 1_555 1_555
C9 O4 1_555 1_555
C10 C2 1_555 1_555
C11 C1 1_555 1_555
H6 C11 1_555 1_555
N2 N1 1_555 1_555
H7 N2 1_555 1_555
C12 O5 1_555 1_555
C13 C3 1_555 1_555
H8 C13 1_555 1_555
C14 C5 1_555 1_555
H9 C14 1_555 1_555
C15 O8 1_555 1_555
C16 N1 1_555 1_555
C17 C16 1_555 1_555
C18 H10 1_555 1_555
C19 N2 1_555 1_555
C20 C18 1_555 1_555
C21 C17 1_555 1_555
H11 C21 1_555 1_555
H12 C21 1_555 1_555
C22 C20 1_555 1_555
H13 C22 1_555 1_555
C23 C18 1_555 1_555
H14 C23 1_555 1_555
C24 C16 1_555 1_555
H15 C24 1_555 1_555
H16 C24 1_555 1_555
H17 C24 1_555 1_555
C25 C23 1_555 1_555
C26 C22 1_555 1_555
H18 C26 1_555 1_555
C27 C19 1_555 1_555
H19 C27 1_555 1_555
H20 C27 1_555 1_555
H21 C27 1_555 1_555
C28 C10 1_555 1_555
O9 C28 1_555 1_555
O10 C28 1_555 1_555
C29 C1 1_555 1_555
O11 C29 1_555 1_555
O12 C29 1_555 1_555
C30 C6 1_555 1_555
O13 C30 1_555 1_555
O14 C30 1_555 1_555
C31 C25 1_555 1_555
H22 C31 1_555 1_555
H23 C31 1_555 1_555
C32 C31 1_555 1_555
C33 C32 1_555 1_555
C34 C32 1_555 1_555
N3 C34 1_555 1_555
C35 C34 1_555 1_555
H24 C35 1_555 1_555
H25 C35 1_555 1_555
H26 C35 1_555 1_555
N4 C33 1_555 1_555
H27 N4 1_555 1_555
C36 C33 1_555 1_555
H28 C36 1_555 1_555
H29 C36 1_555 1_555
H30 C36 1_555 1_555
H31 O7 1_555 1_555
H32 O7 1_555 1_555
C37 H33 1_555 1_555
H34 C37 1_555 1_555
O15 C37 1_555 1_555
H35 O15 1_555 1_555
Co1C O9 1_555 1_555
Co1C_2 O11 1_555 1_555
Co2C N3 1_555 1_555
Co2C_2 O13 1_555 1_555
O9C Co1 1_555 1_555
O10C Co1 1_555 1_555
O11C Co1 1_555 1_555
O13C Co2 1_555 1_555
N3C Co2 1_555 1_555
C3 C15 1_555 1_555
C4 C8 1_555 1_555
C5 C12 1_555 1_555
C6 C13 1_555 1_555
C8 C9 1_555 1_555
C10 C14 1_555 1_555
C17 C19 1_555 1_555
C20 C21 1_555 1_555
C25 C26 1_555 1_555
O10 Co1C 1_555 1_555
N3 N4 1_555 1_555

#END
