
#######################################################################
#
#                 Cambridge Crystallographic Data Centre
#                                CCDC 
#
#######################################################################
#
# If this CIF has been generated from an entry in the Cambridge 
# Structural Database, then it will include bibliographic, chemical, 
# crystal, experimental, refinement or atomic coordinate data resulting 
# from the CCDC's data processing and validation procedures.
#
#######################################################################

data_XOGMAI
_symmetry_cell_setting           monoclinic
_symmetry_space_group_name_H-M   'P 21/n'
_symmetry_Int_Tables_number      14
_space_group_name_Hall           '-P 2yn'
loop_
_symmetry_equiv_pos_site_id
_symmetry_equiv_pos_as_xyz
1 x,y,z
2 1/2-x,1/2+y,1/2-z
3 -x,-y,-z
4 1/2+x,1/2-y,1/2+z
_cell_length_a                   11.8030(14)
_cell_length_b                   13.6284(17)
_cell_length_c                   13.6023(16)
_cell_angle_alpha                90
_cell_angle_beta                 113.554(2)
_cell_angle_gamma                90
_cell_volume                     2005.71
loop_
_atom_site_label
_atom_site_type_symbol
_atom_site_fract_x
_atom_site_fract_y
_atom_site_fract_z
Cd1 Cd 0.94650(2) 0.554480(18) 0.624884(19)
O1 O 0.9510(2) 0.62867(19) 0.47119(19)
O2 O 0.8960(3) 0.5493(2) 0.3157(2)
O3 O 0.9369(4) 0.5064(3) 0.7903(3)
N1 N 0.5909(3) 0.8218(2) 0.2166(2)
N2 N 0.7754(3) 0.6539(2) 0.5989(2)
N3 N 0.7671(3) 0.4741(2) 0.5050(2)
C1 C 0.8844(3) 0.6160(3) 0.3744(3)
C2 C 0.7798(3) 0.6880(3) 0.3201(3)
C3 C 0.7793(3) 0.7796(3) 0.3635(3)
H1 H 0.8426 0.7976 0.4280
C4 C 0.6841(3) 0.8441(3) 0.3105(3)
H2 H 0.6845 0.9054 0.3408
C5 C 0.5918(3) 0.7327(3) 0.1758(3)
H3 H 0.5270 0.7159 0.1116
C6 C 0.6833(3) 0.6647(3) 0.2235(3)
H4 H 0.6806 0.6039 0.1916
C7 C 0.7783(4) 0.7388(3) 0.6470(4)
H5 H 0.8520 0.7581 0.7021
C8 C 0.6775(5) 0.8000(4) 0.6196(5)
H6 H 0.6834 0.8592 0.6554
C9 C 0.5687(4) 0.7727(3) 0.5390(4)
H7 H 0.4997 0.8132 0.5192
C10 C 0.5617(4) 0.6831(3) 0.4862(3)
C11 C 0.4494(4) 0.6498(4) 0.4010(3)
H8 H 0.3789 0.6887 0.3791
C12 C 0.4460(4) 0.5630(4) 0.3532(3)
H9 H 0.3729 0.5429 0.2980
C13 C 0.5533(3) 0.5002(3) 0.3855(3)
C14 C 0.5515(4) 0.4076(4) 0.3397(3)
H10 H 0.4806 0.3858 0.2833
C15 C 0.6546(4) 0.3497(3) 0.3786(3)
H11 H 0.6540 0.2875 0.3503
C16 C 0.7609(4) 0.3856(3) 0.4616(3)
H12 H 0.8306 0.3457 0.4877
C17 C 0.6642(3) 0.5307(3) 0.4688(3)
C18 C 0.6679(3) 0.6251(3) 0.5188(3)
H13 H 1.004(2) 0.485(4) 0.838(3)
H14 H 0.881(3) 0.524(4) 0.811(3)
Cd1B Cd 1.05350(2) 0.445520(18) 0.375116(19)
Cd1C Cd 0.44650(2) 0.945520(18) 0.124884(19)
O2B O 1.1040(3) 0.4507(2) 0.6843(2)
N1C N 1.0909(3) 0.6782(2) 0.7166(2)
Cl1 Cl 0.76050(12) 0.07527(10) 0.54884(9)
O4 O 0.8388(7) 0.1529(5) 0.5422(6)
O5 O 0.6576(5) 0.0696(5) 0.4550(4)
O6 O 0.8302(5) -0.0113(4) 0.5686(5)
O7 O 0.7336(5) 0.0975(5) 0.6382(3)
loop_
_geom_bond_atom_site_label_1
_geom_bond_atom_site_label_2
_geom_bond_site_symmetry_1
_geom_bond_site_symmetry_2
Cd1 O1 1_555 1_555
O1 C1 1_555 1_555
O2 C1 1_555 1_555
O3 Cd1 1_555 1_555
N1 C4 1_555 1_555
N2 Cd1 1_555 1_555
N3 Cd1 1_555 1_555
C1 C2 1_555 1_555
C2 C3 1_555 1_555
C3 H1 1_555 1_555
C4 C3 1_555 1_555
H2 C4 1_555 1_555
C5 N1 1_555 1_555
H3 C5 1_555 1_555
C6 C2 1_555 1_555
H4 C6 1_555 1_555
C7 N2 1_555 1_555
H5 C7 1_555 1_555
C8 C7 1_555 1_555
H6 C8 1_555 1_555
C9 C8 1_555 1_555
H7 C9 1_555 1_555
C10 C9 1_555 1_555
C11 C10 1_555 1_555
H8 C11 1_555 1_555
C12 C11 1_555 1_555
H9 C12 1_555 1_555
C13 C12 1_555 1_555
C14 C13 1_555 1_555
H10 C14 1_555 1_555
C15 C14 1_555 1_555
H11 C15 1_555 1_555
C16 N3 1_555 1_555
H12 C16 1_555 1_555
C17 N3 1_555 1_555
C18 N2 1_555 1_555
Cl1 O4 1_555 1_555
O5 Cl1 1_555 1_555
O6 Cl1 1_555 1_555
O7 Cl1 1_555 1_555
H13 O3 1_555 1_555
H14 O3 1_555 1_555
Cd1B O2 1_555 1_555
Cd1C N1 1_555 1_555
O2B Cd1 1_555 1_555
N1C Cd1 1_555 1_555
C5 C6 1_555 1_555
C10 C18 1_555 1_555
C13 C17 1_555 1_555
C15 C16 1_555 1_555
C17 C18 1_555 1_555

#END
