
#######################################################################
#
#                 Cambridge Crystallographic Data Centre
#                                CCDC 
#
#######################################################################
#
# If this CIF has been generated from an entry in the Cambridge 
# Structural Database, then it will include bibliographic, chemical, 
# crystal, experimental, refinement or atomic coordinate data resulting 
# from the CCDC's data processing and validation procedures.
#
#######################################################################

data_XOGMAJ
_symmetry_cell_setting           orthorhombic
_symmetry_space_group_name_H-M   'P 21 21 2'
_symmetry_Int_Tables_number      18
_space_group_name_Hall           'P 2 2ab'
loop_
_symmetry_equiv_pos_site_id
_symmetry_equiv_pos_as_xyz
1 x,y,z
2 -x,-y,z
3 1/2-x,1/2+y,-z
4 1/2+x,1/2-y,-z
_cell_length_a                   18.6769(17)
_cell_length_b                   19.7262(18)
_cell_length_c                   17.2957(15)
_cell_angle_alpha                90
_cell_angle_beta                 90
_cell_angle_gamma                90
_cell_volume                     6372.16
loop_
_atom_site_label
_atom_site_type_symbol
_atom_site_fract_x
_atom_site_fract_y
_atom_site_fract_z
Co1 Co 0.56180(2) 0.25251(2) 0.03451(3)
Co2 Co 1.18219(2) 0.25898(2) -0.52557(3)
O1 O 0.25991(15) 0.01053(15) -0.16122(16)
O2 O 1.5000 0.0000 -0.6362(3)
C1 C 0.80611(19) 0.2332(2) 0.2732(2)
O3 O 1.5000 0.5000 -0.3761(3)
C2 C 0.42834(18) 0.09240(17) -0.0374(2)
N1 N 1.10897(16) 0.17067(16) -0.41478(18)
H1 H 1.1491 0.1504 -0.4070
C3 C 1.32036(19) 0.42052(19) -0.4845(2)
O4 O 1.24986(18) 0.18708(16) -0.5371(3)
N2 N 1.10140(16) 0.22531(16) -0.46001(19)
O5 O 1.24352(17) 0.12119(17) -0.4380(2)
O6 O 0.51086(16) 0.18030(15) -0.01689(17)
C4 C 1.3278(2) 0.09722(18) -0.5359(3)
O7 O 0.50831(17) 0.09814(14) 0.06866(19)
C5 C 1.03094(19) 0.2407(2) -0.4567(2)
C6 C 0.4876(2) 0.1257(2) 0.0078(3)
N3 N 0.60633(15) 0.22295(16) 0.13375(18)
C7 C 1.2583(2) 0.3875(2) -0.5226(3)
C8 C 1.3532(2) 0.4768(2) -0.5142(3)
H2 H 1.3343 0.4973 -0.5582
C9 C 0.3160(2) 0.0361(2) -0.1163(3)
O8 O 1.23795(16) 0.40909(15) -0.5864(2)
C10 C 0.9250(2) 0.2769(2) 0.2852(2)
H3 H 0.9566 0.3064 0.3097
N4 N 0.60362(16) 0.15965(17) 0.1621(2)
H4 H 0.5789 0.1274 0.1421
C11 C 0.6758(2) 0.2141(2) 0.2388(2)
C12 C 0.8545(2) 0.2760(2) 0.3077(2)
H5 H 0.8393 0.3048 0.3469
C13 C 0.4003(2) 0.03217(19) -0.0137(3)
H6 H 0.4195 0.0099 0.0289
C14 C 1.4443(3) 0.0308(2) -0.5982(3)
C15 C 0.3457(2) 0.0943(2) -0.1435(3)
H7 H 0.3284 0.1149 -0.1881
C16 C 0.72933(19) 0.2317(3) 0.3015(2)
H8 H 0.7254 0.1988 0.3428
H9 H 0.7173 0.2758 0.3227
C17 C 1.2694(2) 0.1409(2) -0.5027(3)
C18 C 0.2028(2) -0.0218(2) -0.1252(3)
O9 O 1.22964(16) 0.33914(16) -0.48886(18)
C19 C 0.9019(2) 0.1935(2) 0.1918(2)
H10 H 0.9171 0.1653 0.1520
C20 C 0.4027(2) 0.1222(2) -0.1028(3)
H11 H 0.4237 0.1621 -0.1205
C21 C 0.65064(18) 0.2567(2) 0.1819(2)
C22 C 0.94996(19) 0.2358(2) 0.2280(2)
C23 C 1.4408(2) 0.4742(2) -0.4159(3)
C24 C 1.3537(2) 0.1143(2) -0.6073(3)
H12 H 1.3320 0.1490 -0.6352
C25 C 0.6445(2) 0.1529(3) 0.2259(3)
C26 C 0.1729(2) -0.0759(2) -0.1634(3)
H13 H 0.1922 -0.0907 -0.2101
C27 C 1.0462(2) 0.1511(2) -0.3829(2)
C28 C 1.4116(2) 0.0807(2) -0.6382(3)
H14 H 1.4282 0.0924 -0.6871
C29 C 0.8313(2) 0.1928(2) 0.2146(3)
H15 H 0.7996 0.1640 0.1894
C30 C 0.3425(2) 0.0040(2) -0.0535(3)
H16 H 0.3223 -0.0366 -0.0370
C31 C 1.4173(3) 0.0107(2) -0.5289(4)
H17 H 1.4377 -0.0261 -0.5034
C32 C 1.3496(2) 0.3924(2) -0.4185(3)
H18 H 1.3282 0.3541 -0.3973
C33 C 0.9958(2) 0.1956(2) -0.4097(2)
C34 C 1.4137(3) 0.5040(2) -0.4804(3)
H19 H 1.4356 0.5421 -0.5014
C35 C 1.3599(3) 0.0444(2) -0.4959(3)
H20 H 1.3431 0.0317 -0.4474
C36 C 1.4090(2) 0.4189(2) -0.3834(3)
H21 H 1.4272 0.3996 -0.3384
C37 C 1.0013(3) 0.2994(3) -0.5010(3)
H22 H 1.0285 0.3394 -0.4894
H23 H 0.9522 0.3065 -0.4866
H24 H 1.0040 0.2901 -0.5554
C38 C 1.0416(3) 0.0926(2) -0.3284(3)
H25 H 1.0842 0.0656 -0.3325
H26 H 1.0007 0.0654 -0.3412
H27 H 1.0369 0.1091 -0.2764
C39 C 0.6665(3) 0.3289(2) 0.1676(3)
H28 H 0.6239 0.3514 0.1499
H29 H 0.7032 0.3326 0.1290
H30 H 0.6827 0.3497 0.2147
C40 C 0.6495(3) 0.0861(3) 0.2670(4)
H31 H 0.6971 0.0803 0.2870
H32 H 0.6388 0.0501 0.2315
H33 H 0.6158 0.0852 0.3089
C41 C 1.0274(2) 0.2367(3) 0.2003(2)
H34 H 1.0418 0.1909 0.1874
H35 H 1.0304 0.2637 0.1535
C42 C 1.07852(19) 0.2649(2) 0.2589(2)
C43 C 1.1052(2) 0.3291(3) 0.2647(3)
C44 C 1.10360(19) 0.2314(2) 0.3234(2)
N5 N 1.14246(15) 0.27306(16) 0.36844(19)
N6 N 1.14340(16) 0.33279(18) 0.3311(2)
H36 H 1.1653 0.3685 0.3472
C45 C 1.0910(3) 0.1599(2) 0.3471(3)
H37 H 1.1343 0.1414 0.3683
H38 H 1.0768 0.1338 0.3029
H39 H 1.0539 0.1585 0.3855
C46 C 1.0973(3) 0.3902(3) 0.2122(4)
H40 H 1.1232 0.4278 0.2337
H41 H 1.0476 0.4019 0.2078
H42 H 1.1161 0.3797 0.1620
C47 C 0.9169(2) 0.1929(3) -0.3910(3)
H43 H 0.9021 0.1458 -0.3901
H44 H 0.8909 0.2150 -0.4325
C48 C 0.89480(18) 0.2256(2) -0.3149(2)
C49 C 0.94220(18) 0.2586(2) -0.2670(2)
H45 H 0.9905 0.2604 -0.2799
C50 C 0.82388(19) 0.2222(2) -0.2935(2)
H46 H 0.7916 0.1990 -0.3247
C51 C 0.79982(17) 0.2528(2) -0.2264(2)
H47 H 0.7516 0.2507 -0.2133
C52 C 0.91847(19) 0.2892(2) -0.1998(2)
H48 H 0.9511 0.3119 -0.1685
C53 C 0.84754(19) 0.2867(2) -0.1783(2)
C54 C 0.8267(2) 0.3185(3) -0.1023(3)
H49 H 0.8424 0.3654 -0.1028
H50 H 0.8529 0.2957 -0.0615
C55 C 0.7479(2) 0.3173(3) -0.0815(2)
C56 C 0.71153(19) 0.2697(2) -0.0386(2)
C57 C 0.6989(3) 0.3664(2) -0.1004(2)
N7 N 0.64276(14) 0.28832(15) -0.0299(2)
N8 N 0.63537(16) 0.34737(17) -0.06762(19)
H51 H 0.5962 0.3701 -0.0707
C58 C 0.7395(3) 0.2063(3) -0.0050(3)
H52 H 0.7068 0.1900 0.0336
H53 H 0.7853 0.2148 0.0182
H54 H 0.7445 0.1729 -0.0450
C59 C 0.7063(3) 0.4288(3) -0.1466(4)
H55 H 0.6771 0.4639 -0.1246
H56 H 0.6911 0.4201 -0.1987
H57 H 0.7555 0.4429 -0.1467
C60 C 0.1734(2) 0.0007(2) -0.0570(3)
H58 H 0.1926 0.0381 -0.0317
C61 C 0.1152(2) -0.0329(2) -0.0263(3)
H59 H 0.0954 -0.0180 0.0200
C62 C 0.1148(2) -0.1080(2) -0.1324(3)
H60 H 0.0943 -0.1441 -0.1590
C63 C 0.08582(19) -0.08830(18) -0.0631(2)
C64 C 0.02447(18) -0.12676(19) -0.0280(3)
O10 O 0.00247(16) -0.17593(14) -0.06455(18)
O11 O -0.00032(16) -0.10778(15) 0.03528(19)
O4A O 1.75014(18) -0.18708(16) -0.5371(3)
O5A O 1.75648(17) -0.12119(17) -0.4380(2)
C4A C 1.6722(2) -0.09722(18) -0.5359(3)
C14A C 1.5557(3) -0.0308(2) -0.5982(3)
C17A C 1.7306(2) -0.1409(2) -0.5027(3)
C24A C 1.6463(2) -0.1143(2) -0.6073(3)
H12A H 1.6680 -0.1490 -0.6352
C28A C 1.5884(2) -0.0807(2) -0.6382(3)
H14A H 1.5718 -0.0924 -0.6871
C31A C 1.5827(3) -0.0107(2) -0.5289(4)
H17A H 1.5623 0.0261 -0.5034
C35A C 1.6401(3) -0.0444(2) -0.4959(3)
H20A H 1.6569 -0.0317 -0.4474
C3A C 1.67964(19) 0.57948(19) -0.4845(2)
C7A C 1.7417(2) 0.6125(2) -0.5226(3)
C8A C 1.6468(2) 0.5232(2) -0.5142(3)
H2A H 1.6657 0.5027 -0.5582
O8A O 1.76205(16) 0.59091(15) -0.5864(2)
O9A O 1.77036(16) 0.66086(16) -0.48886(18)
C23A C 1.5592(2) 0.5258(2) -0.4159(3)
C32A C 1.6504(2) 0.6076(2) -0.4185(3)
H18A H 1.6718 0.6459 -0.3973
C34A C 1.5863(3) 0.4960(2) -0.4804(3)
H19A H 1.5644 0.4579 -0.5014
C36A C 1.5910(2) 0.5811(2) -0.3834(3)
H21A H 1.5728 0.6004 -0.3384
Co1A Co 2.43820(2) -0.25251(2) 0.03451(3)
Co2A Co 1.81781(2) -0.25898(2) -0.52557(3)
O1A O 2.74009(15) -0.01053(15) -0.16122(16)
C1A C 2.19389(19) -0.2332(2) 0.2732(2)
C2A C 2.57166(18) -0.09240(17) -0.0374(2)
N1A N 1.89103(16) -0.17067(16) -0.41478(18)
H1A H 1.8509 -0.1504 -0.4070
N2A N 1.89860(16) -0.22531(16) -0.46001(19)
O6A O 2.48914(16) -0.18030(15) -0.01689(17)
O7A O 2.49169(17) -0.09814(14) 0.06866(19)
C5A C 1.96906(19) -0.2407(2) -0.4567(2)
C6A C 2.5124(2) -0.1257(2) 0.0078(3)
N3A N 2.39367(15) -0.22295(16) 0.13375(18)
C9A C 2.6840(2) -0.0361(2) -0.1163(3)
C10A C 2.0750(2) -0.2769(2) 0.2852(2)
H3A H 2.0434 -0.3064 0.3097
N4A N 2.39638(16) -0.15965(17) 0.1621(2)
H4A H 2.4211 -0.1274 0.1421
C11A C 2.3242(2) -0.2141(2) 0.2388(2)
C12A C 2.1455(2) -0.2760(2) 0.3077(2)
H5A H 2.1607 -0.3048 0.3469
C13A C 2.5997(2) -0.03217(19) -0.0137(3)
H6A H 2.5805 -0.0099 0.0289
C15A C 2.6543(2) -0.0943(2) -0.1435(3)
H7A H 2.6716 -0.1149 -0.1881
C16A C 2.27067(19) -0.2317(3) 0.3015(2)
H8A H 2.2746 -0.1988 0.3428
H9A H 2.2827 -0.2758 0.3227
C18A C 2.7972(2) 0.0218(2) -0.1252(3)
C19A C 2.0981(2) -0.1935(2) 0.1918(2)
H10A H 2.0829 -0.1653 0.1520
C20A C 2.5973(2) -0.1222(2) -0.1028(3)
H11A H 2.5763 -0.1621 -0.1205
C21A C 2.34936(18) -0.2567(2) 0.1819(2)
C22A C 2.05004(19) -0.2358(2) 0.2280(2)
C25A C 2.3555(2) -0.1529(3) 0.2259(3)
C26A C 2.8271(2) 0.0759(2) -0.1634(3)
H13A H 2.8078 0.0907 -0.2101
C27A C 1.9538(2) -0.1511(2) -0.3829(2)
C29A C 2.1687(2) -0.1928(2) 0.2146(3)
H15A H 2.2004 -0.1640 0.1894
C30A C 2.6575(2) -0.0040(2) -0.0535(3)
H16A H 2.6777 0.0366 -0.0370
C33A C 2.0042(2) -0.1956(2) -0.4097(2)
C37A C 1.9987(3) -0.2994(3) -0.5010(3)
H22A H 1.9715 -0.3394 -0.4894
H23A H 2.0478 -0.3065 -0.4866
H24A H 1.9960 -0.2901 -0.5554
C38A C 1.9584(3) -0.0926(2) -0.3284(3)
H25A H 1.9158 -0.0656 -0.3325
H26A H 1.9993 -0.0654 -0.3412
H27A H 1.9631 -0.1091 -0.2764
C39A C 2.3335(3) -0.3289(2) 0.1676(3)
H28A H 2.3761 -0.3514 0.1499
H29A H 2.2968 -0.3326 0.1290
H30A H 2.3173 -0.3497 0.2147
C40A C 2.3505(3) -0.0861(3) 0.2670(4)
H31A H 2.3029 -0.0803 0.2870
H32A H 2.3612 -0.0501 0.2315
H33A H 2.3842 -0.0852 0.3089
C41A C 1.9726(2) -0.2367(3) 0.2003(2)
H34A H 1.9582 -0.1909 0.1874
H35A H 1.9696 -0.2637 0.1535
C42A C 1.92148(19) -0.2649(2) 0.2589(2)
C43A C 1.8948(2) -0.3291(3) 0.2647(3)
C44A C 1.89640(19) -0.2314(2) 0.3234(2)
N5A N 1.85754(15) -0.27306(16) 0.36844(19)
N6A N 1.85660(16) -0.33279(18) 0.3311(2)
H36A H 1.8347 -0.3685 0.3472
C45A C 1.9090(3) -0.1599(2) 0.3471(3)
H37A H 1.8657 -0.1414 0.3683
H38A H 1.9232 -0.1338 0.3029
H39A H 1.9461 -0.1585 0.3855
C46A C 1.9027(3) -0.3902(3) 0.2122(4)
H40A H 1.8768 -0.4278 0.2337
H41A H 1.9524 -0.4019 0.2078
H42A H 1.8839 -0.3797 0.1620
C47A C 2.0831(2) -0.1929(3) -0.3910(3)
H43A H 2.0979 -0.1458 -0.3901
H44A H 2.1091 -0.2150 -0.4325
C48A C 2.10520(18) -0.2256(2) -0.3149(2)
C49A C 2.05780(18) -0.2586(2) -0.2670(2)
H45A H 2.0095 -0.2604 -0.2799
C50A C 2.17612(19) -0.2222(2) -0.2935(2)
H46A H 2.2084 -0.1990 -0.3247
C51A C 2.20018(17) -0.2528(2) -0.2264(2)
H47A H 2.2484 -0.2507 -0.2133
C52A C 2.08153(19) -0.2892(2) -0.1998(2)
H48A H 2.0489 -0.3119 -0.1685
C53A C 2.15246(19) -0.2867(2) -0.1783(2)
C54A C 2.1733(2) -0.3185(3) -0.1023(3)
H49A H 2.1576 -0.3654 -0.1028
H50A H 2.1471 -0.2957 -0.0615
C55A C 2.2521(2) -0.3173(3) -0.0815(2)
C56A C 2.28847(19) -0.2697(2) -0.0386(2)
C57A C 2.3011(3) -0.3664(2) -0.1004(2)
N7A N 2.35724(14) -0.28832(15) -0.0299(2)
N8A N 2.36463(16) -0.34737(17) -0.06762(19)
H51A H 2.4038 -0.3701 -0.0707
C58A C 2.2605(3) -0.2063(3) -0.0050(3)
H52A H 2.2932 -0.1900 0.0336
H53A H 2.2147 -0.2148 0.0182
H54A H 2.2555 -0.1729 -0.0450
C59A C 2.2937(3) -0.4288(3) -0.1466(4)
H55A H 2.3229 -0.4639 -0.1246
H56A H 2.3089 -0.4201 -0.1987
H57A H 2.2445 -0.4429 -0.1467
C60A C 2.8266(2) -0.0007(2) -0.0570(3)
H58A H 2.8074 -0.0381 -0.0317
C61A C 2.8848(2) 0.0329(2) -0.0263(3)
H59A H 2.9046 0.0180 0.0200
C62A C 2.8852(2) 0.1080(2) -0.1324(3)
H60A H 2.9057 0.1441 -0.1590
C63A C 2.91418(19) 0.08830(18) -0.0631(2)
C64A C 2.97553(18) 0.12676(19) -0.0280(3)
O10A O 2.99753(16) 0.17593(14) -0.06455(18)
O11A O 3.00032(16) 0.10778(15) 0.03528(19)
Co1B Co -0.06180(2) -0.24749(2) -0.03451(3)
Co1C Co 3.06180(2) 0.24749(2) -0.03451(3)
Co2_2 Co 1.18219(2) 0.25898(2) 0.47443(3)
Co2A_2 Co 1.81781(2) -0.25898(2) 0.47443(3)
Co2A_3 Co 1.81781(2) 0.74102(2) -0.52557(3)
O9A_2 O 1.77036(16) -0.33914(16) -0.48886(18)
N5_2 N 1.14246(15) 0.27306(16) -0.63156(19)
N5A_2 N 1.85754(15) -0.27306(16) -0.63156(19)
O10B O 0.49753(16) 0.32407(14) 0.06455(18)
O10C O 2.50247(16) -0.32407(14) 0.06455(18)
O12 O 1.5000 0.5000 -0.1806(7)
H61 H 1.4761 0.5357 -0.1662
H61A H 1.5239 0.4643 -0.1662
loop_
_geom_bond_atom_site_label_1
_geom_bond_atom_site_label_2
_geom_bond_site_symmetry_1
_geom_bond_site_symmetry_2
Co1 O6 1_555 1_555
Co2 O4 1_555 1_555
O1 C9 1_555 1_555
O2 C14 1_555 1_555
C1 C12 1_555 1_555
O3 C23 1_555 1_555
C2 C6 1_555 1_555
N1 H1 1_555 1_555
C3 C7 1_555 1_555
O4 C17 1_555 1_555
N2 Co2 1_555 1_555
O5 C17 1_555 1_555
O6 C6 1_555 1_555
C4 C17 1_555 1_555
O7 C6 1_555 1_555
C5 N2 1_555 1_555
N3 Co1 1_555 1_555
C7 O8 1_555 1_555
C8 C3 1_555 1_555
H2 C8 1_555 1_555
C9 C15 1_555 1_555
C10 H3 1_555 1_555
N4 N3 1_555 1_555
H4 N4 1_555 1_555
C11 C16 1_555 1_555
C12 C10 1_555 1_555
H5 C12 1_555 1_555
C13 C2 1_555 1_555
H6 C13 1_555 1_555
C14 C28 1_555 1_555
C15 H7 1_555 1_555
C16 C1 1_555 1_555
H8 C16 1_555 1_555
H9 C16 1_555 1_555
C18 O1 1_555 1_555
O9 Co2 1_555 1_555
C19 H10 1_555 1_555
C20 C2 1_555 1_555
H11 C20 1_555 1_555
C21 N3 1_555 1_555
C22 C10 1_555 1_555
C23 C34 1_555 1_555
C24 C4 1_555 1_555
H12 C24 1_555 1_555
C25 N4 1_555 1_555
C26 C18 1_555 1_555
H13 C26 1_555 1_555
C27 N1 1_555 1_555
C28 C24 1_555 1_555
H14 C28 1_555 1_555
C29 C1 1_555 1_555
H15 C29 1_555 1_555
C30 C9 1_555 1_555
H16 C30 1_555 1_555
C31 C14 1_555 1_555
H17 C31 1_555 1_555
C32 C3 1_555 1_555
H18 C32 1_555 1_555
C33 C5 1_555 1_555
C34 C8 1_555 1_555
H19 C34 1_555 1_555
C35 C4 1_555 1_555
H20 C35 1_555 1_555
C36 C23 1_555 1_555
H21 C36 1_555 1_555
C37 C5 1_555 1_555
H22 C37 1_555 1_555
H23 C37 1_555 1_555
H24 C37 1_555 1_555
C38 C27 1_555 1_555
H25 C38 1_555 1_555
H26 C38 1_555 1_555
H27 C38 1_555 1_555
C39 C21 1_555 1_555
H28 C39 1_555 1_555
H29 C39 1_555 1_555
H30 C39 1_555 1_555
C40 C25 1_555 1_555
H31 C40 1_555 1_555
H32 C40 1_555 1_555
H33 C40 1_555 1_555
C41 C22 1_555 1_555
H34 C41 1_555 1_555
H35 C41 1_555 1_555
C42 C41 1_555 1_555
C43 C42 1_555 1_555
C44 C42 1_555 1_555
N5 C44 1_555 1_555
N6 C43 1_555 1_555
H36 N6 1_555 1_555
C45 C44 1_555 1_555
H37 C45 1_555 1_555
H38 C45 1_555 1_555
H39 C45 1_555 1_555
C46 C43 1_555 1_555
H40 C46 1_555 1_555
H41 C46 1_555 1_555
H42 C46 1_555 1_555
C47 C33 1_555 1_555
H43 C47 1_555 1_555
H44 C47 1_555 1_555
C48 C47 1_555 1_555
C49 C48 1_555 1_555
H45 C49 1_555 1_555
C50 C48 1_555 1_555
H46 C50 1_555 1_555
C51 C50 1_555 1_555
H47 C51 1_555 1_555
C52 C49 1_555 1_555
H48 C52 1_555 1_555
C53 C51 1_555 1_555
C54 C53 1_555 1_555
H49 C54 1_555 1_555
H50 C54 1_555 1_555
C55 C54 1_555 1_555
C56 C55 1_555 1_555
C57 C55 1_555 1_555
N7 Co1 1_555 1_555
N8 C57 1_555 1_555
H51 N8 1_555 1_555
C58 C56 1_555 1_555
H52 C58 1_555 1_555
H53 C58 1_555 1_555
H54 C58 1_555 1_555
C59 C57 1_555 1_555
H55 C59 1_555 1_555
H56 C59 1_555 1_555
H57 C59 1_555 1_555
C60 C18 1_555 1_555
H58 C60 1_555 1_555
C61 C60 1_555 1_555
H59 C61 1_555 1_555
C62 C26 1_555 1_555
H60 C62 1_555 1_555
C63 C61 1_555 1_555
C64 C63 1_555 1_555
O10 C64 1_555 1_555
O11 C64 1_555 1_555
O12 H61 1_555 1_555
O4A C17A 1_555 1_555
O5A C17A 1_555 1_555
C4A C17A 1_555 1_555
C14A O2 1_555 1_555
C24A C4A 1_555 1_555
H12A C24A 1_555 1_555
C28A C14A 1_555 1_555
H14A C28A 1_555 1_555
C31A C14A 1_555 1_555
H17A C31A 1_555 1_555
C35A C4A 1_555 1_555
H20A C35A 1_555 1_555
C3A C7A 1_555 1_555
C7A O8A 1_555 1_555
C8A C3A 1_555 1_555
H2A C8A 1_555 1_555
O9A C7A 1_555 1_555
C23A O3 1_555 1_555
C32A C3A 1_555 1_555
H18A C32A 1_555 1_555
C34A C8A 1_555 1_555
H19A C34A 1_555 1_555
C36A C23A 1_555 1_555
H21A C36A 1_555 1_555
Co1A O6A 1_555 1_555
Co2A O4A 1_555 1_555
O1A C9A 1_555 1_555
C1A C12A 1_555 1_555
C2A C6A 1_555 1_555
N1A H1A 1_555 1_555
N2A Co2A 1_555 1_555
O6A C6A 1_555 1_555
O7A C6A 1_555 1_555
C5A N2A 1_555 1_555
N3A Co1A 1_555 1_555
C9A C15A 1_555 1_555
C10A H3A 1_555 1_555
N4A N3A 1_555 1_555
H4A N4A 1_555 1_555
C11A C16A 1_555 1_555
C12A C10A 1_555 1_555
H5A C12A 1_555 1_555
C13A C2A 1_555 1_555
H6A C13A 1_555 1_555
C15A H7A 1_555 1_555
C16A C1A 1_555 1_555
H8A C16A 1_555 1_555
H9A C16A 1_555 1_555
C18A O1A 1_555 1_555
C19A H10A 1_555 1_555
C20A C2A 1_555 1_555
H11A C20A 1_555 1_555
C21A N3A 1_555 1_555
C22A C10A 1_555 1_555
C25A N4A 1_555 1_555
C26A C18A 1_555 1_555
H13A C26A 1_555 1_555
C27A N1A 1_555 1_555
C29A C1A 1_555 1_555
H15A C29A 1_555 1_555
C30A C9A 1_555 1_555
H16A C30A 1_555 1_555
C33A C5A 1_555 1_555
C37A C5A 1_555 1_555
H22A C37A 1_555 1_555
H23A C37A 1_555 1_555
H24A C37A 1_555 1_555
C38A C27A 1_555 1_555
H25A C38A 1_555 1_555
H26A C38A 1_555 1_555
H27A C38A 1_555 1_555
C39A C21A 1_555 1_555
H28A C39A 1_555 1_555
H29A C39A 1_555 1_555
H30A C39A 1_555 1_555
C40A C25A 1_555 1_555
H31A C40A 1_555 1_555
H32A C40A 1_555 1_555
H33A C40A 1_555 1_555
C41A C22A 1_555 1_555
H34A C41A 1_555 1_555
H35A C41A 1_555 1_555
C42A C41A 1_555 1_555
C43A C42A 1_555 1_555
C44A C42A 1_555 1_555
N5A C44A 1_555 1_555
N6A C43A 1_555 1_555
H36A N6A 1_555 1_555
C45A C44A 1_555 1_555
H37A C45A 1_555 1_555
H38A C45A 1_555 1_555
H39A C45A 1_555 1_555
C46A C43A 1_555 1_555
H40A C46A 1_555 1_555
H41A C46A 1_555 1_555
H42A C46A 1_555 1_555
C47A C33A 1_555 1_555
H43A C47A 1_555 1_555
H44A C47A 1_555 1_555
C48A C47A 1_555 1_555
C49A C48A 1_555 1_555
H45A C49A 1_555 1_555
C50A C48A 1_555 1_555
H46A C50A 1_555 1_555
C51A C50A 1_555 1_555
H47A C51A 1_555 1_555
C52A C49A 1_555 1_555
H48A C52A 1_555 1_555
C53A C51A 1_555 1_555
C54A C53A 1_555 1_555
H49A C54A 1_555 1_555
H50A C54A 1_555 1_555
C55A C54A 1_555 1_555
C56A C55A 1_555 1_555
C57A C55A 1_555 1_555
N7A Co1A 1_555 1_555
N8A C57A 1_555 1_555
H51A N8A 1_555 1_555
C58A C56A 1_555 1_555
H52A C58A 1_555 1_555
H53A C58A 1_555 1_555
H54A C58A 1_555 1_555
C59A C57A 1_555 1_555
H55A C59A 1_555 1_555
H56A C59A 1_555 1_555
H57A C59A 1_555 1_555
C60A C18A 1_555 1_555
H58A C60A 1_555 1_555
C61A C60A 1_555 1_555
H59A C61A 1_555 1_555
C62A C26A 1_555 1_555
H60A C62A 1_555 1_555
C63A C61A 1_555 1_555
C64A C63A 1_555 1_555
O10A C64A 1_555 1_555
O11A C64A 1_555 1_555
Co1B O10 1_555 1_555
Co1C O10A 1_555 1_555
Co2_2 N5 1_555 1_555
Co2A_2 N5A 1_555 1_555
Co2A_3 O9A 1_555 1_555
O9A_2 Co2A 1_555 1_555
N5_2 Co2 1_555 1_555
N5A_2 Co2A 1_555 1_555
O10B Co1 1_555 1_555
O10C Co1A 1_555 1_555
H61A O12 1_555 1_555
N1 N2 1_555 1_555
C7 O9 1_555 1_555
C11 C21 1_555 1_555
C11 C25 1_555 1_555
C13 C30 1_555 1_555
C15 C20 1_555 1_555
C19 C22 1_555 1_555
C19 C29 1_555 1_555
C27 C33 1_555 1_555
C31 C35 1_555 1_555
C32 C36 1_555 1_555
N5 N6 1_555 1_555
C52 C53 1_555 1_555
C56 N7 1_555 1_555
N7 N8 1_555 1_555
C62 C63 1_555 1_555
C24A C28A 1_555 1_555
C31A C35A 1_555 1_555
C23A C34A 1_555 1_555
C32A C36A 1_555 1_555
N1A N2A 1_555 1_555
C11A C21A 1_555 1_555
C11A C25A 1_555 1_555
C13A C30A 1_555 1_555
C15A C20A 1_555 1_555
C19A C22A 1_555 1_555
C19A C29A 1_555 1_555
C27A C33A 1_555 1_555
N5A N6A 1_555 1_555
C52A C53A 1_555 1_555
C56A N7A 1_555 1_555
N7A N8A 1_555 1_555
C62A C63A 1_555 1_555

#END
