
#######################################################################
#
#                 Cambridge Crystallographic Data Centre
#                                CCDC 
#
#######################################################################
#
# If this CIF has been generated from an entry in the Cambridge 
# Structural Database, then it will include bibliographic, chemical, 
# crystal, experimental, refinement or atomic coordinate data resulting 
# from the CCDC's data processing and validation procedures.
#
#######################################################################

data_XOGWUN
_symmetry_cell_setting           monoclinic
_symmetry_space_group_name_H-M   'P 21/c'
_symmetry_Int_Tables_number      14
_space_group_name_Hall           '-P 2ybc'
loop_
_symmetry_equiv_pos_site_id
_symmetry_equiv_pos_as_xyz
1 x,y,z
2 -x,1/2+y,1/2-z
3 -x,-y,-z
4 x,1/2-y,1/2+z
_cell_length_a                   13.933(3)
_cell_length_b                   18.143(4)
_cell_length_c                   17.787(4)
_cell_angle_alpha                90
_cell_angle_beta                 103.01(3)
_cell_angle_gamma                90
_cell_volume                     4380.9
loop_
_atom_site_label
_atom_site_type_symbol
_atom_site_fract_x
_atom_site_fract_y
_atom_site_fract_z
Cd1 Cd 0.88536(4) 0.94955(3) 0.62829(4)
Cd2 Cd -0.92531(4) 0.69911(4) 0.11870(4)
Cd3 Cd -0.00076(5) 0.50815(4) 0.34555(5)
O1 O 0.9057(8) 0.9427(7) 0.4965(5)
O2 O 0.8838(5) 0.8298(4) 0.6064(5)
O3 O 0.9440(4) 0.7253(4) 0.5803(4)
O4 O -0.9375(6) 0.6652(5) -0.0108(4)
O5 O -0.9311(7) 0.7028(5) 0.2473(5)
O6 O -0.8345(5) 0.8191(4) 0.1360(5)
O7 O -0.7604(5) 0.7130(4) 0.1535(5)
O8 O -0.0220(4) 0.9952(4) 0.3039(4)
O9 O -0.0800(5) 1.0743(4) 0.3762(4)
O10 O -0.1409(5) 0.5561(4) 0.2566(4)
O11 O -0.0921(5) 0.6094(4) 0.3688(5)
O12 O 0.1319(5) 0.5828(4) 0.3328(4)
O13 O 0.1519(4) 0.5145(4) 0.4366(4)
O14 O -0.0934(8) 0.4520(5) 0.4269(6)
O15 O 0.0061(7) 0.3897(4) 0.3149(5)
O16 O 0.1775(4) 0.9335(4) 0.4284(4)
O17 O 0.2774(4) 1.0242(4) 0.4158(4)
C1 C 0.8716(7) 0.7664(5) 0.5817(6)
C2 C -0.7585(6) 0.7820(5) 0.1575(6)
C3 C -0.6614(6) 0.8182(5) 0.1897(6)
C4 C -0.6537(6) 0.8945(5) 0.2001(6)
H1 H -0.7096 0.9241 0.1898
C5 C -0.5621(6) 0.9248(5) 0.2260(6)
H2 H -0.5571 0.9756 0.2326
C6 C -0.4767(6) 0.8829(5) 0.2427(5)
C7 C -0.4842(6) 0.8059(5) 0.2380(5)
C8 C -0.5788(6) 0.7755(5) 0.2099(5)
H3 H -0.5851 0.7246 0.2049
C9 C -0.3787(6) 0.9214(5) 0.2636(5)
C10 C -0.3016(6) 0.8996(5) 0.2295(5)
H4 H -0.3121 0.8622 0.1929
C11 C -0.2106(6) 0.9328(5) 0.2497(6)
H5 H -0.1602 0.9173 0.2269
C12 C -0.1935(6) 0.9887(5) 0.3030(5)
C13 C -0.2707(6) 1.0136(5) 0.3355(6)
H6 H -0.2606 1.0530 0.3699
C14 C -0.3622(6) 0.9793(5) 0.3162(5)
H7 H -0.4128 0.9952 0.3386
C15 C -0.0927(6) 1.0223(5) 0.3275(5)
C16 C -0.3996(6) 0.7524(5) 0.2577(5)
C17 C -0.3931(7) 0.6936(5) 0.2077(6)
H8 H -0.4428 0.6873 0.1636
C18 C -0.3152(7) 0.6451(6) 0.2223(6)
H9 H -0.3121 0.6067 0.1882
C19 C -0.2411(6) 0.6541(5) 0.2887(6)
C20 C -0.2481(6) 0.7101(6) 0.3396(6)
H10 H -0.1992 0.7151 0.3845
C21 C -0.3265(6) 0.7589(5) 0.3253(5)
H11 H -0.3304 0.7959 0.3607
C22 C 0.1855(6) 0.5606(5) 0.3949(6)
C23 C 0.2889(6) 0.5897(5) 0.4210(5)
C24 C 0.3438(6) 0.5740(5) 0.4935(5)
H12 H 0.3169 0.5449 0.5266
C25 C 0.4379(6) 0.6008(5) 0.5180(5)
H13 H 0.4746 0.5883 0.5667
C26 C 0.4794(6) 0.6471(5) 0.4699(5)
C27 C 0.4245(7) 0.6618(6) 0.3966(6)
H14 H 0.4518 0.6910 0.3639
C28 C 0.3300(7) 0.6343(6) 0.3700(6)
H15 H 0.2943 0.6447 0.3204
C29 C 0.5792(6) 0.6806(5) 0.4980(5)
C30 C 0.6610(6) 0.6336(5) 0.5151(6)
H16 H 0.6519 0.5830 0.5084
C31 C 0.7552(6) 0.6611(5) 0.5418(6)
H17 H 0.8087 0.6291 0.5518
C32 C 0.7702(6) 0.7363(5) 0.5537(5)
C33 C 0.6882(6) 0.7838(5) 0.5377(5)
H18 H 0.6978 0.8342 0.5459
C34 C 0.5919(6) 0.7568(5) 0.5096(5)
C35 C 0.5078(6) 0.8105(5) 0.4946(5)
C36 C 0.5174(6) 0.8768(5) 0.4571(5)
H19 H 0.5764 0.8878 0.4433
C37 C 0.4394(6) 0.9266(5) 0.4403(6)
H20 H 0.4468 0.9711 0.4162
C38 C 0.3505(6) 0.9099(5) 0.4596(5)
C39 C 0.3424(6) 0.8450(5) 0.4985(6)
H21 H 0.2835 0.8337 0.5123
C40 C 0.4213(6) 0.7965(5) 0.5172(5)
H22 H 0.4156 0.7540 0.5452
C41 C 0.2653(6) 0.9593(5) 0.4340(5)
C42 C -0.1537(6) 0.6033(5) 0.3051(6)
Cd1B Cd 0.11464(4) 1.05045(3) 0.37171(4)
Cd1C Cd -0.11464(4) 0.55045(3) 0.12829(4)
Cd2A Cd -0.07469(4) 1.19911(4) 0.38130(4)
Cd2C Cd 1.07469(4) 0.80089(4) 0.61870(4)
Cd3A Cd 0.00076(5) 1.00815(4) 0.15445(5)
O2C O -1.1162(5) 0.6702(4) 0.1064(5)
O3C O -1.0560(4) 0.7747(4) 0.0803(4)
O8A O 0.0220(4) 0.4952(4) 0.1961(4)
O8B O 1.0220(4) 1.0048(4) 0.6961(4)
O9A O -0.9200(5) 0.5743(4) 0.1238(4)
O9B O 1.0800(5) 0.9257(4) 0.6238(4)
O10C O 0.8591(5) 0.9439(4) 0.7566(4)
O16B O 0.8225(4) 1.0665(4) 0.5716(4)
O17B O 0.7226(4) 0.9758(4) 0.5842(4)
O18 O 0.8483(12) 0.1569(9) 0.7015(9)
loop_
_geom_bond_atom_site_label_1
_geom_bond_atom_site_label_2
_geom_bond_site_symmetry_1
_geom_bond_site_symmetry_2
Cd1 O1 1_555 1_555
Cd2 O4 1_555 1_555
Cd3 O10 1_555 1_555
O2 Cd1 1_555 1_555
O3 C1 1_555 1_555
O5 Cd2 1_555 1_555
O6 Cd2 1_555 1_555
O7 Cd2 1_555 1_555
O8 C15 1_555 1_555
O9 C15 1_555 1_555
O10 C42 1_555 1_555
O11 Cd3 1_555 1_555
O12 Cd3 1_555 1_555
O13 Cd3 1_555 1_555
O14 Cd3 1_555 1_555
O15 Cd3 1_555 1_555
O16 C41 1_555 1_555
O17 C41 1_555 1_555
C1 O2 1_555 1_555
C2 O6 1_555 1_555
C3 C2 1_555 1_555
C4 C3 1_555 1_555
H1 C4 1_555 1_555
C5 C4 1_555 1_555
H2 C5 1_555 1_555
C6 C5 1_555 1_555
C7 C6 1_555 1_555
C8 C3 1_555 1_555
H3 C8 1_555 1_555
C9 C6 1_555 1_555
C10 C9 1_555 1_555
H4 C10 1_555 1_555
C11 C10 1_555 1_555
H5 C11 1_555 1_555
C12 C11 1_555 1_555
C13 C12 1_555 1_555
H6 C13 1_555 1_555
C14 C9 1_555 1_555
H7 C14 1_555 1_555
C15 C12 1_555 1_555
C16 C7 1_555 1_555
C17 C16 1_555 1_555
H8 C17 1_555 1_555
C18 C17 1_555 1_555
H9 C18 1_555 1_555
C19 C18 1_555 1_555
C20 C19 1_555 1_555
H10 C20 1_555 1_555
C21 C16 1_555 1_555
H11 C21 1_555 1_555
C22 O12 1_555 1_555
C23 C22 1_555 1_555
C24 C23 1_555 1_555
H12 C24 1_555 1_555
C25 C24 1_555 1_555
H13 C25 1_555 1_555
C26 C25 1_555 1_555
C27 C26 1_555 1_555
H14 C27 1_555 1_555
C28 C23 1_555 1_555
H15 C28 1_555 1_555
C29 C26 1_555 1_555
C30 C29 1_555 1_555
H16 C30 1_555 1_555
C31 C30 1_555 1_555
H17 C31 1_555 1_555
C32 C1 1_555 1_555
C33 C32 1_555 1_555
H18 C33 1_555 1_555
C34 C29 1_555 1_555
C35 C34 1_555 1_555
C36 C35 1_555 1_555
H19 C36 1_555 1_555
C37 C36 1_555 1_555
H20 C37 1_555 1_555
C38 C37 1_555 1_555
C39 C38 1_555 1_555
H21 C39 1_555 1_555
C40 C35 1_555 1_555
H22 C40 1_555 1_555
C41 C38 1_555 1_555
C42 O11 1_555 1_555
Cd1B O8 1_555 1_555
Cd1C O10 1_555 1_555
Cd2A O9 1_555 1_555
Cd2C O2 1_555 1_555
Cd3A O8 1_555 1_555
O2C Cd2 1_555 1_555
O3C Cd2 1_555 1_555
O8A Cd3 1_555 1_555
O8B Cd1 1_555 1_555
O9A Cd2 1_555 1_555
O9B Cd1 1_555 1_555
O10C Cd1 1_555 1_555
O16B Cd1 1_555 1_555
O17B Cd1 1_555 1_555
O3 Cd2C 1_555 1_555
O7 C2 1_555 1_555
O9 Cd1B 1_555 1_555
O13 C22 1_555 1_555
O16 Cd1B 1_555 1_555
O17 Cd1B 1_555 1_555
C7 C8 1_555 1_555
C13 C14 1_555 1_555
C19 C42 1_555 1_555
C20 C21 1_555 1_555
C27 C28 1_555 1_555
C31 C32 1_555 1_555
C33 C34 1_555 1_555
C39 C40 1_555 1_555
Cd1C O8A 1_555 1_555
Cd2C O9B 1_555 1_555

#END
