
#######################################################################
#
#                 Cambridge Crystallographic Data Centre
#                                CCDC 
#
#######################################################################
#
# If this CIF has been generated from an entry in the Cambridge 
# Structural Database, then it will include bibliographic, chemical, 
# crystal, experimental, refinement or atomic coordinate data resulting 
# from the CCDC's data processing and validation procedures.
#
#######################################################################

data_XOGZEZ
_symmetry_cell_setting           monoclinic
_symmetry_space_group_name_H-M   'P 21/n'
_symmetry_Int_Tables_number      14
_space_group_name_Hall           '-P 2yn'
loop_
_symmetry_equiv_pos_site_id
_symmetry_equiv_pos_as_xyz
1 x,y,z
2 1/2-x,1/2+y,1/2-z
3 -x,-y,-z
4 1/2+x,1/2-y,1/2+z
_cell_length_a                   7.5758(12)
_cell_length_b                   13.875(2)
_cell_length_c                   22.230(4)
_cell_angle_alpha                90
_cell_angle_beta                 95.709(7)
_cell_angle_gamma                90
_cell_volume                     2325.1
loop_
_atom_site_label
_atom_site_type_symbol
_atom_site_fract_x
_atom_site_fract_y
_atom_site_fract_z
Co1 Co 0.25(1) -0.007(7) 0.251(3)
N1 N 0.26(5) 0.05(2) 0.34(2)
N2 N -0.04(2) -0.25(4) -0.087(4)
N3 N 0.20(5) -0.07(2) 0.16(1)
N4 N 0.48(4) 0.10(3) 0.42(2)
C1 C -0.01(5) -0.11(3) 0.08(2)
C2 C 0.44(5) 0.07(3) 0.35(2)
C3 C 0.03(6) -0.10(2) 0.14(2)
C4 C 0.11(7) -0.10(3) 0.04(1)
C5 C 0.35(7) 0.10(3) 0.46(1)
C6 C 0.07(2) -0.25(5) -0.125(6)
C7 C 0.14(5) 0.05(3) 0.38(2)
N5 N 0.42(5) 0.10(2) 0.23(1)
N6 N 0.02(5) 0.08(2) 0.22(1)
N7 N 0.46(6) -0.09(2) 0.28(1)
C8 C 0.34(5) -0.06(3) 0.12(2)
N8 N 0.30(5) -0.07(2) 0.06(2)
C9 C 0.17(7) 0.08(3) 0.44(2)
C10 C 0.57(6) -0.14(3) 0.29(2)
C11 C -0.07(6) 0.13(3) 0.21(2)
O2 O 0.34(2) 0.129(9) -0.024(8)
N9 N 0.38(3) -0.09(2) -0.08(1)
C12 C 0.33(4) -0.15(3) -0.11(2)
W1 W 0.270(1) -0.249(3) -0.1816(5)
C13 C 0.36(5) -0.33(3) -0.11(2)
C14 C 0.27(2) -0.24(5) -0.278(6)
N10 N 0.40(4) -0.37(2) -0.077(9)
N11 N 0.24(2) -0.23(2) -0.331(5)
C15 C 0.51(6) 0.16(4) 0.21(2)
C16 C 0.00(6) -0.16(4) 0.30(2)
N12 N 0.10(5) -0.11(2) 0.28(2)
Co2 Co 0.500 0.000 0.0000
Co1B Co 0.75(1) 0.007(7) -0.251(3)
Co1C Co -0.25(1) -0.493(7) -0.249(3)
Co1B_2 Co -0.25(1) 0.007(7) -0.251(3)
Co1C_2 Co 0.75(1) -0.493(7) -0.249(3)
N1B N 0.74(5) -0.05(2) -0.34(2)
N2B N 1.04(2) 0.25(4) 0.087(4)
N3B N 0.80(5) 0.07(2) -0.16(1)
N4B N 0.52(4) -0.10(3) -0.42(2)
C1B C 1.01(5) 0.11(3) -0.08(2)
C2B C 0.56(5) -0.07(3) -0.35(2)
C3B C 0.97(6) 0.10(2) -0.14(2)
C4B C 0.89(7) 0.10(3) -0.04(1)
C5B C 0.65(7) -0.10(3) -0.46(1)
C6B C 0.93(2) 0.25(5) 0.125(6)
C7B C 0.86(5) -0.05(3) -0.38(2)
N5B N 0.58(5) -0.10(2) -0.23(1)
N6B N -0.02(5) -0.08(2) -0.22(1)
N6B_2 N 0.98(5) -0.08(2) -0.22(1)
N7C N -0.04(6) -0.41(2) -0.22(1)
N7B N 0.54(6) 0.09(2) -0.28(1)
C8B C 0.66(5) 0.06(3) -0.12(2)
N8B N 0.70(5) 0.07(2) -0.06(2)
C9B C 0.83(7) -0.08(3) -0.44(2)
C10C C 0.07(6) -0.36(3) -0.21(2)
C10A C 0.93(6) 0.36(3) 0.21(2)
C11B C 0.07(6) -0.13(3) -0.21(2)
C11_2 C 0.93(6) 0.13(3) 0.21(2)
O2B O 0.66(2) -0.129(9) 0.024(8)
N9B N 0.62(3) 0.09(2) 0.08(1)
C12B C 0.67(4) 0.15(3) 0.11(2)
W1B W 0.730(1) 0.249(3) 0.1816(5)
W1C W 0.770(1) -0.251(3) 0.3184(5)
W1B_2 W -0.270(1) 0.249(3) 0.1816(5)
W1C_2 W -0.230(1) -0.251(3) 0.3184(5)
C13B C 0.64(5) 0.33(3) 0.11(2)
C14B C 0.73(2) 0.24(5) 0.278(6)
N10B N 0.60(4) 0.37(2) 0.077(9)
N11B N 0.76(2) 0.23(2) 0.331(5)
C15B C 0.49(6) -0.16(4) -0.21(2)
C16C C 0.50(6) -0.34(4) -0.20(2)
C16A C 0.50(6) 0.34(4) 0.20(2)
N12C N 0.60(5) -0.39(2) -0.22(2)
N12B N 0.90(5) 0.11(2) -0.28(2)
O1 O 0.82(2) 0.07(1) 0.440(5)
O3 O 0.78(2) 0.21(1) 0.514(5)
loop_
_geom_bond_atom_site_label_1
_geom_bond_atom_site_label_2
_geom_bond_site_symmetry_1
_geom_bond_site_symmetry_2
Co1 N1 1_555 1_555
N1 C2 1_555 1_555
N2 C6 1_555 1_555
N3 Co1 1_555 1_555
N4 C2 1_555 1_555
C1 C3 1_555 1_555
C3 N3 1_555 1_555
C4 C1 1_555 1_555
C5 N4 1_555 1_555
C6 W1 1_555 1_555
C7 N1 1_555 1_555
N5 Co1 1_555 1_555
N6 Co1 1_555 1_555
N7 Co1 1_555 1_555
C8 N3 1_555 1_555
N8 C4 1_555 1_555
C9 C5 1_555 1_555
C10 N7 1_555 1_555
C11 N6 1_555 1_555
O2 Co2 1_555 1_555
N9 C12 1_555 1_555
C12 W1 1_555 1_555
W1 C13 1_555 1_555
C13 N10 1_555 1_555
C14 W1 1_555 1_555
N11 C14 1_555 1_555
C15 N5 1_555 1_555
C16 N12 1_555 1_555
N12 Co1 1_555 1_555
Co2 N8 1_555 1_555
Co1B N1B 1_555 1_555
Co1C N7C 1_555 1_555
Co1B_2 N6B 1_555 1_555
Co1C_2 N12C 1_555 1_555
N1B C2B 1_555 1_555
N2B C6B 1_555 1_555
N3B Co1B 1_555 1_555
N4B C2B 1_555 1_555
C1B C3B 1_555 1_555
C3B N3B 1_555 1_555
C4B C1B 1_555 1_555
C5B N4B 1_555 1_555
C6B W1B 1_555 1_555
C7B N1B 1_555 1_555
N5B Co1B 1_555 1_555
N6B C11B 1_555 1_555
N6B_2 Co1B 1_555 1_555
N7C C10C 1_555 1_555
N7B Co1B 1_555 1_555
C8B N3B 1_555 1_555
N8B Co2 1_555 1_555
C9B C5B 1_555 1_555
C10C W1 1_555 1_555
C10A W1B 1_555 1_555
C11B W1 1_555 1_555
C11_2 W1B 1_555 1_555
O2B Co2 1_555 1_555
N9B Co2 1_555 1_555
C12B N9B 1_555 1_555
W1B C15 1_555 1_555
W1C C10 1_555 1_555
W1B_2 C11 1_555 1_555
W1C_2 C16 1_555 1_555
C13B W1B 1_555 1_555
C14B W1B 1_555 1_555
N10B C13B 1_555 1_555
N11B C14B 1_555 1_555
C15B W1 1_555 1_555
C16C W1 1_555 1_555
C16A W1B 1_555 1_555
N12C C16C 1_555 1_555
N12B Co1B 1_555 1_555
C7 C9 1_555 1_555
C8 N8 1_555 1_555
N9 Co2 1_555 1_555
C4B N8B 1_555 1_555
C7B C9B 1_555 1_555
N5B C15B 1_555 1_555
C8B N8B 1_555 1_555
C12B W1B 1_555 1_555

#END
