
#######################################################################
#
#                 Cambridge Crystallographic Data Centre
#                                CCDC 
#
#######################################################################
#
# If this CIF has been generated from an entry in the Cambridge 
# Structural Database, then it will include bibliographic, chemical, 
# crystal, experimental, refinement or atomic coordinate data resulting 
# from the CCDC's data processing and validation procedures.
#
#######################################################################

data_XOHKOW
_symmetry_cell_setting           monoclinic
_symmetry_space_group_name_H-M   'C 2/c'
_symmetry_Int_Tables_number      15
_space_group_name_Hall           '-C 2yn'
loop_
_symmetry_equiv_pos_site_id
_symmetry_equiv_pos_as_xyz
1 x,y,z
2 -x,y,1/2-z
3 1/2+x,1/2+y,z
4 1/2-x,1/2+y,1/2-z
5 -x,-y,-z
6 x,-y,1/2+z
7 1/2-x,1/2-y,-z
8 1/2+x,1/2-y,1/2+z
_cell_length_a                   10.385(5)
_cell_length_b                   32.060(5)
_cell_length_c                   31.248(5)
_cell_angle_alpha                90
_cell_angle_beta                 96.776(5)
_cell_angle_gamma                90
_cell_volume                     10331.1
loop_
_atom_site_label
_atom_site_type_symbol
_atom_site_fract_x
_atom_site_fract_y
_atom_site_fract_z
C1 C 0.2574(4) 0.39088(15) -0.19653(15)
C2 C 0.3055(5) 0.34000(15) -0.15594(15)
C3 C 0.3768(5) 0.31221(14) -0.12435(15)
C4 C 0.5111(5) 0.31530(16) -0.11694(17)
H1 H 0.5552 0.3332 -0.1336
C5 C 0.5782(6) 0.29208(18) -0.08516(19)
H2 H 0.6680 0.2942 -0.0799
C6 C 0.3859(7) 0.26093(18) -0.06899(19)
H3 H 0.3455 0.2418 -0.0526
C7 C 0.3135(6) 0.28371(17) -0.10070(18)
H4 H 0.2242 0.2800 -0.1061
C8 C 0.2588(4) 0.43131(14) -0.21751(15)
C9 C 0.2038(4) 0.48425(14) -0.25340(15)
H5 H 0.1565 0.5032 -0.2715
C10 C -0.3020(4) 0.24676(13) -0.27052(14)
H6 H -0.3499 0.2314 -0.2921
C11 C -0.2449(4) 0.29241(14) -0.22433(15)
C12 C -0.2433(4) 0.32996(15) -0.19811(15)
C13 C -0.1874(4) 0.37669(15) -0.15342(16)
C14 C -0.1126(5) 0.40222(16) -0.12003(16)
C15 C -0.1367(6) 0.44434(17) -0.1170(2)
H7 H -0.2022 0.4569 -0.1355
C16 C -0.0635(7) 0.46738(19) -0.0867(2)
H8 H -0.0798 0.4958 -0.0845
C17 C -0.0160(6) 0.38425(17) -0.09176(19)
H9 H 0.0008 0.3558 -0.0930
C18 C 0.0553(6) 0.4092(2) -0.06155(19)
H10 H 0.1201 0.3974 -0.0422
Ag1 Ag 0.0000 0.37208(2) -0.2500
Ag2 Ag 0.53430(4) 0.432181(14) -0.165826(17)
Ag3 Ag -0.5000 0.355294(19) -0.2500
Ag4 Ag 0.03137(4) 0.284207(13) -0.176998(14)
Mo1 Mo -0.37705(4) 0.069016(13) -0.161440(13)
Mo2 Mo -0.36671(4) 0.067494(12) -0.042274(13)
Mo3 Mo -0.31847(4) 0.170715(12) -0.025762(13)
Mo4 Mo -0.09970(4) 0.100582(12) 0.023496(13)
Mo5 Mo 0.13922(4) 0.166774(13) -0.024785(13)
Mo6 Mo -0.08498(4) 0.226832(12) -0.086813(13)
Mo7 Mo 0.13696(4) 0.169760(13) -0.134551(13)
Mo8 Mo 0.14048(4) 0.052041(12) -0.041109(13)
Mo9 Mo -0.12732(4) 0.005731(12) -0.094818(13)
Mo10 Mo -0.37704(4) 0.175165(13) -0.145930(13)
Mo11 Mo 0.09012(4) 0.056572(13) -0.150876(13)
Mo12 Mo -0.15534(4) 0.130338(13) -0.203817(13)
N1 N 0.0317(4) 0.44979(14) -0.05995(14)
N2 N 0.1857(4) 0.33202(12) -0.17494(13)
N3 N -0.2999(4) 0.38976(12) -0.17467(13)
N4 N 0.3619(4) 0.45711(12) -0.21063(13)
N5 N 0.1546(4) 0.36586(12) -0.20118(14)
N6 N 0.3226(6) 0.49137(16) -0.23370(17)
N7 N -0.3355(4) 0.35872(12) -0.20369(13)
N8 N -0.1478(4) 0.33935(12) -0.16675(13)
N9 N 0.5145(5) 0.26646(14) -0.06180(16)
N10 N -0.1840(5) 0.23670(15) -0.25259(16)
N11 N -0.1435(4) 0.26519(12) -0.22216(13)
N12 N 0.3543(4) 0.37635(12) -0.16881(13)
N13 N 0.1609(4) 0.44631(14) -0.24395(15)
N14 N -0.3435(4) 0.28230(14) -0.25331(14)
O1 O 0.0429(3) 0.22353(9) -0.12425(10)
O2 O 0.0552(3) 0.21750(9) -0.03828(10)
O3 O 0.2650(3) 0.18088(11) 0.01094(11)
O4 O 0.0209(3) 0.14637(10) 0.00920(10)
O5 O -0.2221(3) 0.14997(9) 0.02233(10)
O6 O -0.4244(3) 0.11893(9) -0.02669(10)
O7 O -0.4153(3) 0.07129(10) -0.10054(10)
O8 O 0.0208(3) 0.00495(9) -0.05477(10)
O9 O -0.4997(3) 0.03937(11) -0.18500(11)
O10 O -0.2525(3) 0.03039(10) -0.14163(10)
O11 O -0.0404(3) 0.08075(10) -0.18710(10)
O12 O -0.0383(3) 0.07598(9) -0.09352(9)
O13 O -0.1920(3) 0.11495(9) -0.05164(9)
O14 O -0.0240(3) 0.15374(9) -0.08665(10)
O15 O -0.2125(3) 0.12080(9) -0.13196(9)
O16 O -0.2211(3) 0.21115(10) -0.12600(10)
O17 O 0.2206(3) 0.17565(10) -0.07997(10)
O18 O 0.2438(3) 0.18981(11) -0.16521(11)
O19 O -0.2472(3) 0.06858(9) 0.01309(10)
O20 O 0.2592(3) 0.03008(10) -0.00717(11)
O21 O -0.2364(3) 0.02711(9) -0.05836(10)
O22 O -0.0619(3) 0.09600(10) 0.07708(10)
O23 O -0.0199(3) 0.16165(10) -0.17788(10)
O24 O -0.4857(3) 0.21231(10) -0.16391(11)
O25 O -0.2833(3) 0.16925(10) -0.19749(10)
O26 O 0.1914(3) 0.03758(11) -0.18407(11)
O27 O -0.1411(3) 0.13437(11) -0.25631(10)
O28 O 0.1969(3) 0.04453(10) -0.09425(10)
O29 O -0.4214(3) 0.20348(10) -0.00483(11)
O30 O -0.1705(3) -0.04465(10) -0.09904(11)
O31 O -0.4790(3) 0.03497(10) -0.02630(10)
O32 O -0.4589(3) 0.12571(10) -0.16234(10)
O33 O -0.3915(3) 0.17183(10) -0.08803(10)
O34 O -0.2938(3) 0.08653(10) -0.20689(10)
O35 O 0.1575(3) 0.11328(10) -0.13897(10)
O36 O -0.1039(4) 0.27865(10) -0.08380(11)
O37 O 0.1819(3) 0.10827(9) -0.03583(10)
O38 O -0.1954(3) 0.20678(10) -0.04253(10)
O39 O 0.0121(3) 0.06652(9) -0.00011(10)
P1 P -0.11669(11) 0.11633(3) -0.09106(4)
O40 O -0.0037(3) 0.00889(10) -0.13935(10)
C1A C -1.2574(4) 0.39088(15) -0.30347(15)
C2A C -1.3055(5) 0.34000(15) -0.34406(15)
C3A C -1.3768(5) 0.31221(14) -0.37565(15)
C4A C -1.5111(5) 0.31530(16) -0.38306(17)
H1A H -1.5552 0.3332 -0.3664
C5A C -1.5782(6) 0.29208(18) -0.41484(19)
H2A H -1.6680 0.2942 -0.4201
C6A C -1.3859(7) 0.26093(18) -0.43101(19)
H3A H -1.3455 0.2418 -0.4474
C7A C -1.3135(6) 0.28371(17) -0.39930(18)
H4A H -1.2242 0.2800 -0.3939
C8A C -1.2588(4) 0.43131(14) -0.28249(15)
C9A C -1.2038(4) 0.48425(14) -0.24660(15)
H5A H -1.1565 0.5032 -0.2285
C10A C -0.6980(4) 0.24676(13) -0.22948(14)
H6A H -0.6501 0.2314 -0.2079
C11A C -0.7551(4) 0.29241(14) -0.27567(15)
C12A C -0.7567(4) 0.32996(15) -0.30189(15)
C13A C -0.8126(4) 0.37669(15) -0.34658(16)
C14A C -0.8874(5) 0.40222(16) -0.37997(16)
C15A C -0.8633(6) 0.44434(17) -0.3830(2)
H7A H -0.7978 0.4569 -0.3645
C16A C -0.9365(7) 0.46738(19) -0.4133(2)
H8A H -0.9202 0.4958 -0.4155
C17A C -0.9840(6) 0.38425(17) -0.40824(19)
H9A H -1.0008 0.3558 -0.4070
C18A C -1.0553(6) 0.4092(2) -0.43845(19)
H10A H -1.1201 0.3974 -0.4578
Ag2A Ag -1.53430(4) 0.432181(14) -0.334174(17)
Ag4A Ag -1.03137(4) 0.284207(13) -0.323002(14)
Mo1A Mo -0.62295(4) 0.069016(13) -0.338560(13)
Mo2A Mo -0.63329(4) 0.067494(12) -0.457726(13)
Mo3A Mo -0.68153(4) 0.170715(12) -0.474238(13)
Mo4A Mo -0.90030(4) 0.100582(12) -0.523496(13)
Mo5A Mo -1.13922(4) 0.166774(13) -0.475215(13)
Mo6A Mo -0.91502(4) 0.226832(12) -0.413187(13)
Mo7A Mo -1.13696(4) 0.169760(13) -0.365449(13)
Mo8A Mo -1.14048(4) 0.052041(12) -0.458891(13)
Mo9A Mo -0.87268(4) 0.005731(12) -0.405182(13)
Mo10A Mo -0.62296(4) 0.175165(13) -0.354070(13)
Mo11A Mo -1.09012(4) 0.056572(13) -0.349124(13)
Mo12A Mo -0.84466(4) 0.130338(13) -0.296183(13)
N1A N -1.0317(4) 0.44979(14) -0.44005(14)
N2A N -1.1857(4) 0.33202(12) -0.32506(13)
N3A N -0.7001(4) 0.38976(12) -0.32533(13)
N4A N -1.3619(4) 0.45711(12) -0.28937(13)
N5A N -1.1546(4) 0.36586(12) -0.29882(14)
N6A N -1.3226(6) 0.49137(16) -0.26630(17)
N7A N -0.6645(4) 0.35872(12) -0.29631(13)
N8A N -0.8522(4) 0.33935(12) -0.33325(13)
N9A N -1.5145(5) 0.26646(14) -0.43820(16)
N10A N -0.8160(5) 0.23670(15) -0.24741(16)
N11A N -0.8565(4) 0.26519(12) -0.27784(13)
N12A N -1.3543(4) 0.37635(12) -0.33119(13)
N13A N -1.1609(4) 0.44631(14) -0.25605(15)
N14A N -0.6565(4) 0.28230(14) -0.24669(14)
O1A O -1.0429(3) 0.22353(9) -0.37575(10)
O2A O -1.0552(3) 0.21750(9) -0.46172(10)
O3A O -1.2650(3) 0.18088(11) -0.51094(11)
O4A O -1.0209(3) 0.14637(10) -0.50920(10)
O5A O -0.7779(3) 0.14997(9) -0.52233(10)
O6A O -0.5756(3) 0.11893(9) -0.47331(10)
O7A O -0.5847(3) 0.07129(10) -0.39946(10)
O8A O -1.0208(3) 0.00495(9) -0.44523(10)
O9A O -0.5003(3) 0.03937(11) -0.31500(11)
O10A O -0.7475(3) 0.03039(10) -0.35837(10)
O11A O -0.9596(3) 0.08075(10) -0.31290(10)
O12A O -0.9617(3) 0.07598(9) -0.40648(9)
O13A O -0.8080(3) 0.11495(9) -0.44836(9)
O14A O -0.9760(3) 0.15374(9) -0.41335(10)
O15A O -0.7875(3) 0.12080(9) -0.36804(9)
O16A O -0.7789(3) 0.21115(10) -0.37400(10)
O17A O -1.2206(3) 0.17565(10) -0.42003(10)
O18A O -1.2438(3) 0.18981(11) -0.33479(11)
O19A O -0.7528(3) 0.06858(9) -0.51309(10)
O20A O -1.2592(3) 0.03008(10) -0.49283(11)
O21A O -0.7636(3) 0.02711(9) -0.44164(10)
O22A O -0.9381(3) 0.09600(10) -0.57708(10)
O23A O -0.9801(3) 0.16165(10) -0.32212(10)
O24A O -0.5143(3) 0.21231(10) -0.33609(11)
O25A O -0.7167(3) 0.16925(10) -0.30251(10)
O26A O -1.1914(3) 0.03758(11) -0.31593(11)
O27A O -0.8589(3) 0.13437(11) -0.24369(10)
O28A O -1.1969(3) 0.04453(10) -0.40575(10)
O29A O -0.5786(3) 0.20348(10) -0.49517(11)
O30A O -0.8295(3) -0.04465(10) -0.40096(11)
O31A O -0.5210(3) 0.03497(10) -0.47370(10)
O32A O -0.5411(3) 0.12571(10) -0.33766(10)
O33A O -0.6085(3) 0.17183(10) -0.41197(10)
O34A O -0.7062(3) 0.08653(10) -0.29311(10)
O35A O -1.1575(3) 0.11328(10) -0.36103(10)
O36A O -0.8961(4) 0.27865(10) -0.41620(11)
O37A O -1.1819(3) 0.10827(9) -0.46417(10)
O38A O -0.8046(3) 0.20678(10) -0.45747(10)
O39A O -1.0121(3) 0.06652(9) -0.49989(10)
P1A P -0.88331(11) 0.11633(3) -0.40894(4)
O40A O -0.9963(3) 0.00889(10) -0.36065(10)
Ag1_2 Ag -1.0000 0.37208(2) -0.2500
Ag2_2 Ag -0.46570(4) 0.432181(14) -0.165826(17)
Ag2A_2 Ag -0.53430(4) 0.432181(14) -0.334174(17)
Ag2B Ag 0.03430(4) -0.067819(14) -0.165826(17)
Ag2C Ag -1.03430(4) -0.067819(14) -0.334174(17)
N3_2 N 0.7001(4) 0.38976(12) -0.17467(13)
N3A_2 N -1.7001(4) 0.38976(12) -0.32533(13)
N5A_2 N -0.1546(4) 0.36586(12) -0.29882(14)
O40B O 0.4963(3) 0.50889(10) -0.13935(10)
O40C O -1.4963(3) 0.50889(10) -0.36065(10)
loop_
_geom_bond_atom_site_label_1
_geom_bond_atom_site_label_2
_geom_bond_site_symmetry_1
_geom_bond_site_symmetry_2
C1 C8 1_555 1_555
C2 C3 1_555 1_555
C3 C4 1_555 1_555
C4 H1 1_555 1_555
C5 C4 1_555 1_555
H2 C5 1_555 1_555
C6 H3 1_555 1_555
C7 C3 1_555 1_555
H4 C7 1_555 1_555
C8 N4 1_555 1_555
C9 H5 1_555 1_555
C10 H6 1_555 1_555
C11 C12 1_555 1_555
C12 N7 1_555 1_555
C13 C14 1_555 1_555
C14 C15 1_555 1_555
C15 H7 1_555 1_555
C16 C15 1_555 1_555
H8 C16 1_555 1_555
C17 C14 1_555 1_555
H9 C17 1_555 1_555
C18 C17 1_555 1_555
H10 C18 1_555 1_555
Ag1 N5 1_555 1_555
Ag2 N4 1_555 1_555
Ag3 N7 1_555 1_555
Ag4 N2 1_555 1_555
Mo1 O7 1_555 1_555
Mo2 O6 1_555 1_555
Mo3 O5 1_555 1_555
Mo4 O4 1_555 1_555
Mo5 O2 1_555 1_555
Mo6 O1 1_555 1_555
Mo7 O1 1_555 1_555
Mo8 O8 1_555 1_555
Mo9 O8 1_555 1_555
Mo10 O15 1_555 1_555
Mo11 O11 1_555 1_555
Mo12 O11 1_555 1_555
N1 C16 1_555 1_555
N2 C2 1_555 1_555
N3 C13 1_555 1_555
N4 N6 1_555 1_555
N5 C1 1_555 1_555
N6 C9 1_555 1_555
N7 N3 1_555 1_555
N8 C12 1_555 1_555
N9 C5 1_555 1_555
N10 C10 1_555 1_555
N11 C11 1_555 1_555
N12 C1 1_555 1_555
N13 C8 1_555 1_555
N14 C10 1_555 1_555
O1 Ag4 1_555 1_555
O2 Mo6 1_555 1_555
O3 Mo5 1_555 1_555
O4 Mo5 1_555 1_555
O5 Mo4 1_555 1_555
O6 Mo3 1_555 1_555
O7 Mo2 1_555 1_555
O9 Mo1 1_555 1_555
O10 Mo1 1_555 1_555
O12 Mo8 1_555 1_555
O13 Mo2 1_555 1_555
O14 Mo5 1_555 1_555
O15 Mo1 1_555 1_555
O16 Mo6 1_555 1_555
O17 Mo5 1_555 1_555
O18 Mo7 1_555 1_555
O19 Mo2 1_555 1_555
O20 Mo8 1_555 1_555
O21 Mo2 1_555 1_555
O22 Mo4 1_555 1_555
O23 Mo7 1_555 1_555
O24 Mo10 1_555 1_555
O25 Mo10 1_555 1_555
O26 Mo11 1_555 1_555
O27 Mo12 1_555 1_555
O28 Mo8 1_555 1_555
O29 Mo3 1_555 1_555
O30 Mo9 1_555 1_555
O31 Mo2 1_555 1_555
O32 Mo1 1_555 1_555
O33 Mo3 1_555 1_555
O34 Mo1 1_555 1_555
O35 Mo7 1_555 1_555
O36 Mo6 1_555 1_555
O37 Mo5 1_555 1_555
O38 Mo3 1_555 1_555
O39 Mo4 1_555 1_555
P1 O12 1_555 1_555
O40 Mo9 1_555 1_555
C1A C8A 1_555 1_555
C2A C3A 1_555 1_555
C3A C4A 1_555 1_555
C4A H1A 1_555 1_555
C5A C4A 1_555 1_555
H2A C5A 1_555 1_555
C6A H3A 1_555 1_555
C7A C3A 1_555 1_555
H4A C7A 1_555 1_555
C8A N4A 1_555 1_555
C9A H5A 1_555 1_555
C10A H6A 1_555 1_555
C11A C12A 1_555 1_555
C12A N7A 1_555 1_555
C13A C14A 1_555 1_555
C14A C15A 1_555 1_555
C15A H7A 1_555 1_555
C16A C15A 1_555 1_555
H8A C16A 1_555 1_555
C17A C14A 1_555 1_555
H9A C17A 1_555 1_555
C18A C17A 1_555 1_555
H10A C18A 1_555 1_555
Ag2A N4A 1_555 1_555
Ag4A N2A 1_555 1_555
Mo1A O7A 1_555 1_555
Mo2A O6A 1_555 1_555
Mo3A O5A 1_555 1_555
Mo4A O4A 1_555 1_555
Mo5A O2A 1_555 1_555
Mo6A O1A 1_555 1_555
Mo7A O1A 1_555 1_555
Mo8A O8A 1_555 1_555
Mo9A O8A 1_555 1_555
Mo10A O15A 1_555 1_555
Mo11A O11A 1_555 1_555
Mo12A O11A 1_555 1_555
N1A C16A 1_555 1_555
N2A C2A 1_555 1_555
N3A C13A 1_555 1_555
N4A N6A 1_555 1_555
N5A C1A 1_555 1_555
N6A C9A 1_555 1_555
N7A Ag3 1_555 1_555
N8A C12A 1_555 1_555
N9A C5A 1_555 1_555
N10A C10A 1_555 1_555
N11A C11A 1_555 1_555
N12A C1A 1_555 1_555
N13A C8A 1_555 1_555
N14A C10A 1_555 1_555
O1A Ag4A 1_555 1_555
O2A Mo6A 1_555 1_555
O3A Mo5A 1_555 1_555
O4A Mo5A 1_555 1_555
O5A Mo4A 1_555 1_555
O6A Mo3A 1_555 1_555
O7A Mo2A 1_555 1_555
O9A Mo1A 1_555 1_555
O10A Mo1A 1_555 1_555
O12A Mo8A 1_555 1_555
O13A Mo2A 1_555 1_555
O14A Mo5A 1_555 1_555
O15A Mo1A 1_555 1_555
O16A Mo6A 1_555 1_555
O17A Mo5A 1_555 1_555
O18A Mo7A 1_555 1_555
O19A Mo2A 1_555 1_555
O20A Mo8A 1_555 1_555
O21A Mo2A 1_555 1_555
O22A Mo4A 1_555 1_555
O23A Mo7A 1_555 1_555
O24A Mo10A 1_555 1_555
O25A Mo10A 1_555 1_555
O26A Mo11A 1_555 1_555
O27A Mo12A 1_555 1_555
O28A Mo8A 1_555 1_555
O29A Mo3A 1_555 1_555
O30A Mo9A 1_555 1_555
O31A Mo2A 1_555 1_555
O32A Mo1A 1_555 1_555
O33A Mo3A 1_555 1_555
O34A Mo1A 1_555 1_555
O35A Mo7A 1_555 1_555
O36A Mo6A 1_555 1_555
O37A Mo5A 1_555 1_555
O38A Mo3A 1_555 1_555
O39A Mo4A 1_555 1_555
P1A O12A 1_555 1_555
O40A Mo9A 1_555 1_555
Ag1_2 N5A 1_555 1_555
Ag2_2 N3 1_555 1_555
Ag2A_2 N3A 1_555 1_555
Ag2B O40 1_555 1_555
Ag2C O40A 1_555 1_555
N3_2 Ag2 1_555 1_555
N3A_2 Ag2A 1_555 1_555
N5A_2 Ag1 1_555 1_555
O40B Ag2 1_555 1_555
O40C Ag2A 1_555 1_555
C2 N12 1_555 1_555
C6 C7 1_555 1_555
C6 N9 1_555 1_555
C9 N13 1_555 1_555
C11 N14 1_555 1_555
C13 N8 1_555 1_555
C18 N1 1_555 1_555
Ag2 N12 1_555 1_555
Ag4 N8 1_555 1_555
Ag4 N11 1_555 1_555
Mo3 O13 1_555 1_555
Mo4 O13 1_555 1_555
Mo4 O19 1_555 1_555
Mo6 O14 1_555 1_555
Mo6 O38 1_555 1_555
Mo7 O14 1_555 1_555
Mo7 O17 1_555 1_555
Mo8 O37 1_555 1_555
Mo8 O39 1_555 1_555
Mo9 O10 1_555 1_555
Mo9 O12 1_555 1_555
Mo9 O21 1_555 1_555
Mo10 O16 1_555 1_555
Mo10 O32 1_555 1_555
Mo10 O33 1_555 1_555
Mo11 O12 1_555 1_555
Mo11 O28 1_555 1_555
Mo11 O35 1_555 1_555
Mo11 O40 1_555 1_555
Mo12 O15 1_555 1_555
Mo12 O23 1_555 1_555
Mo12 O25 1_555 1_555
Mo12 O34 1_555 1_555
N2 N5 1_555 1_555
N10 N11 1_555 1_555
O13 P1 1_555 1_555
O14 P1 1_555 1_555
O15 P1 1_555 1_555
C2A N12A 1_555 1_555
C6A C7A 1_555 1_555
C6A N9A 1_555 1_555
C9A N13A 1_555 1_555
C11A N14A 1_555 1_555
C13A N8A 1_555 1_555
C18A N1A 1_555 1_555
Ag2A N12A 1_555 1_555
Ag4A N8A 1_555 1_555
Ag4A N11A 1_555 1_555
Mo3A O13A 1_555 1_555
Mo4A O13A 1_555 1_555
Mo4A O19A 1_555 1_555
Mo6A O14A 1_555 1_555
Mo6A O38A 1_555 1_555
Mo7A O14A 1_555 1_555
Mo7A O17A 1_555 1_555
Mo8A O37A 1_555 1_555
Mo8A O39A 1_555 1_555
Mo9A O10A 1_555 1_555
Mo9A O12A 1_555 1_555
Mo9A O21A 1_555 1_555
Mo10A O16A 1_555 1_555
Mo10A O32A 1_555 1_555
Mo10A O33A 1_555 1_555
Mo11A O12A 1_555 1_555
Mo11A O28A 1_555 1_555
Mo11A O35A 1_555 1_555
Mo11A O40A 1_555 1_555
Mo12A O15A 1_555 1_555
Mo12A O23A 1_555 1_555
Mo12A O25A 1_555 1_555
Mo12A O34A 1_555 1_555
N2A N5A 1_555 1_555
N3A N7A 1_555 1_555
N10A N11A 1_555 1_555
O13A P1A 1_555 1_555
O14A P1A 1_555 1_555
O15A P1A 1_555 1_555

#END
