
#######################################################################
#
#                 Cambridge Crystallographic Data Centre
#                                CCDC 
#
#######################################################################
#
# If this CIF has been generated from an entry in the Cambridge 
# Structural Database, then it will include bibliographic, chemical, 
# crystal, experimental, refinement or atomic coordinate data resulting 
# from the CCDC's data processing and validation procedures.
#
#######################################################################

data_XOHNOY
_symmetry_cell_setting           triclinic
_symmetry_space_group_name_H-M   'P 1'
_symmetry_Int_Tables_number      1
_space_group_name_Hall           'P 1'
loop_
_symmetry_equiv_pos_site_id
_symmetry_equiv_pos_as_xyz
1 x,y,z
_cell_length_a                   9.55080(10)
_cell_length_b                   9.6096(2)
_cell_length_c                   28.5572(2)
_cell_angle_alpha                84.7560(10)
_cell_angle_beta                 85.2430(10)
_cell_angle_gamma                89.63
_cell_volume                     2601
loop_
_atom_site_label
_atom_site_type_symbol
_atom_site_fract_x
_atom_site_fract_y
_atom_site_fract_z
Cu1 Cu 0.60004(9) 0.51246(8) 1.00164(3)
Cu2 Cu 0.10246(9) 0.18411(8) 1.00155(3)
O1 O 0.1278(7) 0.3359(5) 0.95104(19)
O2 O -0.0071(8) 0.2195(7) 0.9090(2)
O3 O 0.2793(6) 0.2467(5) 1.04099(19)
O4 O 0.4660(6) 0.3847(5) 1.03868(18)
O5 O 0.7811(5) 0.4301(5) 1.04174(18)
O6 O 0.6352(6) 0.3892(5) 0.95150(18)
O7 O 0.5008(8) 0.5233(7) 0.9071(2)
N1 N 0.2281(7) 0.0514(6) 0.9660(2)
N2 N 0.0294(7) 0.0006(6) 1.0355(2)
N3 N 0.7239(7) 0.6647(6) 0.9666(2)
N4 N 0.5245(7) 0.6743(6) 1.0372(2)
O8 O 0.9682(4) 0.2925(4) 1.03907(14)
C1 C 0.0861(8) -0.1132(8) 1.0159(3)
C2 C 0.3644(8) 0.3329(7) 1.0199(3)
H1 H 0.3531 0.3612 0.9884
C3 C 0.6118(10) 1.0561(9) 1.0117(4)
H2 H 0.5873 1.1427 1.0220
C4 C 0.6903(8) 0.7934(7) 0.9807(2)
C5 C 0.1970(8) -0.0842(7) 0.9790(2)
C6 C 0.5405(8) 0.9300(8) 1.0344(3)
C7 C 0.1168(9) -0.3611(8) 1.0073(3)
H3 H 0.0916 -0.4532 1.0170
C8 C -0.1210(10) -0.1584(10) 1.0879(3)
H4 H -0.1917 -0.1710 1.1123
C9 C 0.7590(9) 0.9176(8) 0.9601(3)
C10 C 0.5830(8) 0.7985(7) 1.0183(3)
C11 C 0.3755(9) -0.1627(10) 0.9226(3)
H5 H 0.4244 -0.2334 0.9082
C12 C 0.8674(9) 0.9033(9) 0.9239(3)
H6 H 0.9155 0.9814 0.9092
C13 C 0.0459(9) -0.2542(8) 1.0302(3)
C14 C 0.2192(10) -0.3372(8) 0.9721(3)
H7 H 0.2596 -0.4118 0.9573
C15 C 0.7107(10) 1.0485(8) 0.9767(3)
H8 H 0.7509 1.1310 0.9622
C16 C 0.4112(10) -0.0229(8) 0.9096(3)
H9 H 0.4843 0.0013 0.8868
C17 C 0.3318(9) 0.0813(8) 0.9325(3)
H10 H 0.3534 0.1747 0.9236
C18 C -0.0709(9) -0.0185(9) 1.0706(3)
H11 H -0.1097 0.0585 1.0843
C19 C 0.8243(8) 0.6545(8) 0.9327(3)
H12 H 0.8462 0.5670 0.9226
C20 C 0.9003(10) 0.7728(8) 0.9110(3)
H13 H 0.9728 0.7616 0.8878
C21 C 0.2666(9) -0.1957(7) 0.9572(3)
C22 C -0.0629(10) -0.2691(9) 1.0678(3)
H14 H -0.0948 -0.3583 1.0787
C23 C 0.4333(10) 0.9262(9) 1.0714(3)
H15 H 0.4018 1.0090 1.0831
C24 C 0.3745(10) 0.8005(10) 1.0906(3)
H16 H 0.3051 0.7982 1.1155
C25 C 0.0648(11) 0.3207(9) 0.9148(3)
H17 H 0.0734 0.3922 0.8905
C26 C 0.4217(9) 0.6745(9) 1.0717(3)
H18 H 0.3795 0.5904 1.0837
C27 C 0.8655(8) 0.3519(7) 1.0219(3)
H19 H 0.8507 0.3359 0.9910
C28 C 0.5757(11) 0.4239(9) 0.9137(3)
H20 H 0.5918 0.3672 0.8891
Cu2_2 Cu 1.10246(9) 0.18411(8) 1.00155(3)
O8_2 O -0.0318(4) 0.2925(4) 1.03907(14)
Cu3 Cu 0.30082(9) 0.97584(8) 0.22277(3)
Cu4 Cu -0.19835(9) 0.64066(8) 0.22328(3)
O9 O -0.0009(6) 0.7303(5) 0.18459(18)
O10 O 0.1816(6) 0.8700(5) 0.18592(18)
O11 O 0.3087(7) 0.8230(5) 0.2728(2)
O12 O 0.1542(7) 0.9331(7) 0.3184(2)
O13 O 0.4987(6) 0.9082(5) 0.18293(18)
O14 O -0.1984(6) 0.7672(5) 0.2735(2)
O15 O 0.6847(6) 0.7673(5) 0.18575(18)
O16 O -0.3535(8) 0.6255(7) 0.3172(2)
N5 N -0.0881(7) 0.4905(6) 0.2592(2)
N6 N -0.2528(7) 0.4739(6) 0.1899(2)
N7 N 0.2442(6) 1.1601(6) 0.18901(19)
N8 N 0.4083(6) 1.1067(6) 0.2584(2)
C29 C 0.2923(7) 1.2713(7) 0.2085(2)
C30 C -0.2025(8) 0.3502(7) 0.2106(2)
C31 C 0.3148(9) 1.5232(8) 0.2174(3)
H21 H 0.2924 1.6154 0.2080
C32 C -0.1814(9) 0.0949(8) 0.2207(3)
H22 H -0.2048 0.0070 0.2126
C33 C 0.5603(9) 1.1767(8) 0.3149(3)
H23 H 0.6221 1.1505 0.3376
C34 C -0.0926(9) 0.1059(7) 0.2555(3)
H24 H -0.0563 0.0249 0.2703
C35 C 0.1659(9) 1.4357(8) 0.1573(3)
H25 H 0.1382 1.5253 0.1468
C36 C 0.0408(9) 0.2584(9) 0.3045(3)
H26 H 0.0848 0.1820 0.3193
C37 C -0.1141(7) 0.3610(7) 0.2470(2)
C38 C 0.4411(8) 1.3533(7) 0.2677(2)
C39 C -0.3308(9) 0.2164(8) 0.1605(3)
H27 H -0.3584 0.1316 0.1510
C40 C 0.5317(8) 1.3183(8) 0.3034(3)
H28 H 0.5715 1.3872 0.3189
C41 C 0.0669(9) 0.3900(8) 0.3158(3)
H29 H 0.1278 0.4038 0.3388
C42 C -0.2391(8) 0.2180(7) 0.1966(3)
C43 C 0.3825(7) 1.2430(7) 0.2452(2)
C44 C -0.3374(9) 0.4696(9) 0.1551(3)
H30 H -0.3699 0.5529 0.1406
C45 C 0.1628(9) 1.1825(8) 0.1537(3)
H31 H 0.1328 1.1070 0.1389
C46 C 0.2575(8) 1.4130(7) 0.1943(3)
C47 C 0.2335(10) 0.8351(9) 0.3103(3)
H32 H 0.2381 0.7634 0.3343
C48 C 0.4013(9) 1.4964(8) 0.2527(3)
H33 H 0.4354 1.5701 0.2674
C49 C -0.0542(8) 0.2386(8) 0.2698(3)
C50 C -0.3796(9) 0.3385(8) 0.1395(3)
H34 H -0.4392 0.3373 0.1153
C51 C 0.1202(9) 1.3203(8) 0.1378(3)
H35 H 0.0602 1.3322 0.1137
C52 C 0.0003(9) 0.5056(8) 0.2923(2)
H36 H 0.0188 0.5950 0.3003
C53 C 0.0702(8) 0.8093(7) 0.2036(3)
H37 H 0.0395 0.8267 0.2343
C54 C 0.4955(9) 1.0749(8) 0.2920(3)
H38 H 0.5139 0.9812 0.3006
C55 C 0.5716(8) 0.8190(7) 0.2034(3)
H39 H 0.5412 0.7870 0.2342
C56 C -0.2799(10) 0.7297(9) 0.3109(3)
H40 H -0.2824 0.7877 0.3353
Cu4_2 Cu 0.80165(9) 0.64066(8) 0.22328(3)
O15_2 O -0.3153(6) 0.7673(5) 0.18575(18)
Cu5 Cu 0.14774(9) 0.58231(8) 0.50150(3)
Cu6 Cu 0.46890(9) 1.08082(8) 0.50089(3)
O17 O 0.3401(6) 1.1160(6) 0.45097(19)
O18 O 0.4686(8) 0.9692(7) 0.4092(2)
O19 O 0.3428(6) 0.9472(5) 0.53878(18)
O20 O 0.2053(6) 0.7601(5) 0.54190(18)
O21 O 0.3019(6) 0.6182(6) 0.45265(19)
O22 O 0.2590(6) 0.4484(5) 0.53898(18)
O23 O 0.3911(6) 0.2576(5) 0.54176(19)
O24 O 0.2066(10) 0.4729(7) 0.4082(2)
N9 N 0.0107(7) 0.7037(6) 0.4659(2)
N10 N -0.0340(7) 0.5084(6) 0.5364(2)
N11 N 0.6351(6) 1.0073(6) 0.5350(2)
N12 N 0.6201(6) 1.2081(6) 0.4655(2)
C57 C 0.2909(8) 0.8443(7) 0.5211(3)
H41 H 0.3199 0.8317 0.4899
C58 C -0.4047(8) 0.5958(8) 0.5108(3)
H42 H -0.4965 0.5688 0.5206
C59 C -0.1490(8) 0.5661(7) 0.5184(3)
C60 C 0.7620(8) 1.0665(7) 0.5166(3)
C61 C 0.7504(7) 1.1772(7) 0.4784(2)
C62 C -0.3811(9) 0.6994(9) 0.4758(3)
H43 H -0.4565 0.7421 0.4616
C63 C -0.1264(8) 0.6748(7) 0.4807(3)
C64 C -0.0687(9) 0.8858(8) 0.4098(3)
H44 H -0.0459 0.9578 0.3864
C65 C 0.8516(10) 1.3600(8) 0.4229(3)
H45 H 0.9282 1.4110 0.4083
C66 C 0.3670(10) 1.0508(9) 0.4154(3)
H46 H 0.3066 1.0640 0.3914
C67 C 0.0392(9) 0.8078(8) 0.4314(3)
H47 H 0.1324 0.8291 0.4215
C68 C -0.2895(8) 0.5256(8) 0.5332(3)
C69 C -0.0524(10) 0.4035(8) 0.5711(3)
H48 H 0.0257 0.3620 0.5839
C70 C 0.8911(8) 1.0287(8) 0.5303(3)
C71 C 0.7208(10) 1.3915(9) 0.4107(3)
H49 H 0.7073 1.4656 0.3882
C72 C 1.0061(10) 1.2065(9) 0.4730(3)
H50 H 1.0868 1.2511 0.4587
C73 C 0.8723(8) 1.2483(7) 0.4582(3)
C74 C 0.8959(10) 0.9175(9) 0.5677(3)
H51 H 0.9807 0.8877 0.5791
C75 C 0.2981(10) 0.5578(8) 0.4143(3)
H52 H 0.3678 0.5793 0.3901
C76 C -0.2390(8) 0.7444(8) 0.4604(3)
C77 C 0.6035(9) 1.3120(7) 0.4320(3)
H53 H 0.5142 1.3325 0.4225
C78 C 0.6410(10) 0.9056(7) 0.5702(3)
H54 H 0.5575 0.8664 0.5845
C79 C -0.2081(9) 0.8544(9) 0.4236(3)
H55 H -0.2800 0.9034 0.4094
C80 C 0.3150(8) 0.3432(8) 0.5221(3)
H56 H 0.2967 0.3290 0.4914
C81 C -0.3054(10) 0.4163(9) 0.5707(3)
H57 H -0.3946 0.3867 0.5831
C82 C 1.0170(10) 1.0994(9) 0.5086(4)
H58 H 1.1045 1.0733 0.5184
C83 C 0.7687(10) 0.8564(9) 0.5863(3)
H59 H 0.7685 0.7822 0.6097
C84 C -0.1882(10) 0.3554(9) 0.5884(3)
H60 H -0.1981 0.2818 0.6120
Cu6_2 Cu 0.46890(9) 0.08082(8) 0.50089(3)
O23_2 O 0.3911(6) 1.2576(5) 0.54176(19)
Cu7 Cu 0.90334(9) 0.77449(8) 0.72370(3)
Cu8 Cu 0.57599(8) 1.27655(8) 0.72268(3)
O25 O 0.7492(6) 0.7808(6) 0.7729(2)
O26 O 0.8557(8) 0.6141(7) 0.8156(2)
O27 O 0.8000(6) 0.6581(5) 0.68591(18)
O28 O 0.7033(6) 1.1606(5) 0.68567(18)
O29 O 0.6606(6) 0.4745(5) 0.68220(18)
O30 O 0.7072(6) 1.2822(6) 0.77164(19)
O31 O 0.5912(9) 1.1185(7) 0.8172(2)
O32 O 0.8393(6) 0.9732(5) 0.68293(18)
N13 N 1.0335(6) 0.8826(6) 0.7599(2)
N14 N 1.0899(6) 0.7211(6) 0.6901(2)
N15 N 0.4246(7) 1.3840(6) 0.7585(2)
N16 N 0.4076(6) 1.2218(6) 0.6885(2)
C85 C 0.9986(9) 0.9668(7) 0.7934(3)
H61 H 0.9043 0.9786 0.8031
C86 C 0.2948(7) 1.3594(7) 0.7457(2)
C87 C 1.2813(8) 0.9191(7) 0.7686(3)
C88 C 1.1693(8) 0.8603(7) 0.7472(2)
C89 C 0.3225(9) 1.5326(9) 0.8151(3)
H62 H 0.3360 1.5922 0.8382
C90 C 1.3428(8) 0.7392(8) 0.6963(3)
C91 C 1.2029(7) 0.7720(6) 0.7100(2)
C92 C 1.4262(8) 0.8848(8) 0.7547(3)
H63 H 1.4993 0.9202 0.7697
C93 C 1.4532(9) 0.7998(8) 0.7195(3)
H64 H 1.5462 0.7800 0.7100
C94 C 0.2848(8) 1.2698(7) 0.7086(2)
C95 C 0.1500(8) 1.2361(7) 0.6941(3)
C96 C 0.0287(8) 1.2928(8) 0.7174(3)
H65 H -0.0594 1.2692 0.7088
C97 C 1.2434(10) 1.0130(8) 0.8034(3)
H66 H 1.3121 1.0560 0.8183
C98 C 0.0370(8) 1.3818(8) 0.7523(3)
H67 H -0.0444 1.4185 0.7665
C99 C 0.1474(9) 1.1463(8) 0.6578(3)
H68 H 0.0626 1.1211 0.6472
C100 C 0.2740(9) 1.0962(8) 0.6383(3)
H69 H 0.2738 1.0355 0.6148
C101 C 0.4388(9) 1.4655(7) 0.7932(3)
H70 H 0.5277 1.4785 0.8032
C102 C 0.4055(9) 1.1377(7) 0.6542(3)
H71 H 0.4895 1.1052 0.6404
C103 C 1.1143(9) 0.6372(8) 0.6558(3)
H72 H 1.0385 0.6032 0.6419
C104 C 0.1899(9) 1.5105(8) 0.8024(3)
H73 H 0.1127 1.5545 0.8166
C105 C 0.1732(7) 1.4179(7) 0.7667(2)
C106 C 1.1018(9) 1.0391(8) 0.8146(3)
H74 H 1.0750 1.1038 0.8359
C107 C 0.6815(10) 1.2022(9) 0.8097(3)
H75 H 0.7398 1.2111 0.8338
C108 C 0.7598(10) 0.6966(9) 0.8101(3)
H76 H 0.6894 0.6989 0.8346
C109 C 0.7364(8) 0.5470(7) 0.7036(3)
H77 H 0.7477 0.5179 0.7351
C110 C 1.3659(9) 0.6487(8) 0.6601(3)
H78 H 1.4569 0.6237 0.6499
C111 C 1.2526(9) 0.5977(9) 0.6398(3)
H79 H 1.2667 0.5382 0.6160
C112 C 0.7494(8) 1.0444(7) 0.7034(3)
H80 H 0.7132 1.0112 0.7335
Cu8_2 Cu 0.57599(8) 0.27655(8) 0.72268(3)
O29_2 O 0.6606(6) 1.4745(5) 0.68220(18)
loop_
_geom_bond_atom_site_label_1
_geom_bond_atom_site_label_2
_geom_bond_site_symmetry_1
_geom_bond_site_symmetry_2
Cu1 O4 1_555 1_555
Cu2 O1 1_555 1_555
O1 C25 1_555 1_555
O2 C25 1_555 1_555
O3 Cu2 1_555 1_555
O4 C2 1_555 1_555
O5 Cu1 1_555 1_555
O6 Cu1 1_555 1_555
O7 C28 1_555 1_555
N1 Cu2 1_555 1_555
N2 Cu2 1_555 1_555
N3 Cu1 1_555 1_555
N4 Cu1 1_555 1_555
O8 C27 1_555 1_555
C1 N2 1_555 1_555
C2 O3 1_555 1_555
H1 C2 1_555 1_555
C3 H2 1_555 1_555
C4 N3 1_555 1_555
C5 N1 1_555 1_555
C6 C3 1_555 1_555
C7 H3 1_555 1_555
C8 H4 1_555 1_555
C9 C4 1_555 1_555
C10 N4 1_555 1_555
C11 H5 1_555 1_555
C12 C9 1_555 1_555
H6 C12 1_555 1_555
C13 C1 1_555 1_555
C14 C7 1_555 1_555
H7 C14 1_555 1_555
C15 C3 1_555 1_555
H8 C15 1_555 1_555
C16 C11 1_555 1_555
H9 C16 1_555 1_555
C17 N1 1_555 1_555
H10 C17 1_555 1_555
C18 N2 1_555 1_555
H11 C18 1_555 1_555
C19 N3 1_555 1_555
H12 C19 1_555 1_555
C20 C12 1_555 1_555
H13 C20 1_555 1_555
C21 C5 1_555 1_555
C22 C8 1_555 1_555
H14 C22 1_555 1_555
C23 C6 1_555 1_555
H15 C23 1_555 1_555
C24 C23 1_555 1_555
H16 C24 1_555 1_555
C25 H17 1_555 1_555
C26 N4 1_555 1_555
H18 C26 1_555 1_555
C27 O5 1_555 1_555
H19 C27 1_555 1_555
C28 O6 1_555 1_555
H20 C28 1_555 1_555
Cu3 O10 1_555 1_555
Cu4 O9 1_555 1_555
O9 C53 1_555 1_555
O10 C53 1_555 1_555
O11 Cu3 1_555 1_555
O12 C47 1_555 1_555
O13 Cu3 1_555 1_555
O14 Cu4 1_555 1_555
O15 C55 1_555 1_555
O16 C56 1_555 1_555
N5 Cu4 1_555 1_555
N6 Cu4 1_555 1_555
N7 Cu3 1_555 1_555
N8 Cu3 1_555 1_555
C29 N7 1_555 1_555
C30 N6 1_555 1_555
C31 H21 1_555 1_555
C32 H22 1_555 1_555
C33 H23 1_555 1_555
C34 C32 1_555 1_555
H24 C34 1_555 1_555
C35 H25 1_555 1_555
C36 H26 1_555 1_555
C37 N5 1_555 1_555
C38 C40 1_555 1_555
C39 H27 1_555 1_555
C40 C33 1_555 1_555
H28 C40 1_555 1_555
C41 C36 1_555 1_555
H29 C41 1_555 1_555
C42 C30 1_555 1_555
C43 N8 1_555 1_555
C44 N6 1_555 1_555
H30 C44 1_555 1_555
C45 N7 1_555 1_555
H31 C45 1_555 1_555
C46 C29 1_555 1_555
C47 O11 1_555 1_555
H32 C47 1_555 1_555
C48 C31 1_555 1_555
H33 C48 1_555 1_555
C49 C34 1_555 1_555
C50 C39 1_555 1_555
H34 C50 1_555 1_555
C51 C35 1_555 1_555
H35 C51 1_555 1_555
C52 N5 1_555 1_555
H36 C52 1_555 1_555
C53 H37 1_555 1_555
C54 N8 1_555 1_555
H38 C54 1_555 1_555
C55 O13 1_555 1_555
H39 C55 1_555 1_555
C56 O14 1_555 1_555
H40 C56 1_555 1_555
Cu5 O20 1_555 1_555
Cu6 O17 1_555 1_555
O17 C66 1_555 1_555
O18 C66 1_555 1_555
O19 Cu6 1_555 1_555
O20 C57 1_555 1_555
O21 Cu5 1_555 1_555
O22 Cu5 1_555 1_555
O23 C80 1_555 1_555
O24 C75 1_555 1_555
N9 Cu5 1_555 1_555
N10 Cu5 1_555 1_555
N11 Cu6 1_555 1_555
N12 Cu6 1_555 1_555
C57 O19 1_555 1_555
H41 C57 1_555 1_555
C58 H42 1_555 1_555
C59 N10 1_555 1_555
C60 N11 1_555 1_555
C61 N12 1_555 1_555
C62 C58 1_555 1_555
H43 C62 1_555 1_555
C63 N9 1_555 1_555
C64 H44 1_555 1_555
C65 H45 1_555 1_555
C66 H46 1_555 1_555
C67 N9 1_555 1_555
H47 C67 1_555 1_555
C68 C58 1_555 1_555
C69 N10 1_555 1_555
H48 C69 1_555 1_555
C70 C60 1_555 1_555
C71 C65 1_555 1_555
H49 C71 1_555 1_555
C72 H50 1_555 1_555
C73 C61 1_555 1_555
C74 C70 1_555 1_555
H51 C74 1_555 1_555
C75 O21 1_555 1_555
H52 C75 1_555 1_555
C76 C62 1_555 1_555
C77 N12 1_555 1_555
H53 C77 1_555 1_555
C78 N11 1_555 1_555
H54 C78 1_555 1_555
C79 C64 1_555 1_555
H55 C79 1_555 1_555
C80 O22 1_555 1_555
H56 C80 1_555 1_555
C81 C68 1_555 1_555
H57 C81 1_555 1_555
C82 C70 1_555 1_555
H58 C82 1_555 1_555
C83 C74 1_555 1_555
H59 C83 1_555 1_555
C84 C69 1_555 1_555
H60 C84 1_555 1_555
Cu7 O25 1_555 1_555
Cu8 O28 1_555 1_555
O25 C108 1_555 1_555
O26 C108 1_555 1_555
O27 Cu7 1_555 1_555
O28 C112 1_555 1_555
O29 C109 1_555 1_555
O30 Cu8 1_555 1_555
O31 C107 1_555 1_555
O32 Cu7 1_555 1_555
N13 Cu7 1_555 1_555
N14 Cu7 1_555 1_555
N15 Cu8 1_555 1_555
N16 Cu8 1_555 1_555
C85 N13 1_555 1_555
H61 C85 1_555 1_555
C86 N15 1_555 1_555
C87 C88 1_555 1_555
C88 N13 1_555 1_555
C89 H62 1_555 1_555
C90 C91 1_555 1_555
C91 N14 1_555 1_555
C92 C87 1_555 1_555
H63 C92 1_555 1_555
C93 C90 1_555 1_555
H64 C93 1_555 1_555
C94 N16 1_555 1_555
C95 C94 1_555 1_555
C96 C95 1_555 1_555
H65 C96 1_555 1_555
C97 C87 1_555 1_555
H66 C97 1_555 1_555
C98 C96 1_555 1_555
H67 C98 1_555 1_555
C99 C95 1_555 1_555
H68 C99 1_555 1_555
C100 C99 1_555 1_555
H69 C100 1_555 1_555
C101 N15 1_555 1_555
H70 C101 1_555 1_555
C102 N16 1_555 1_555
H71 C102 1_555 1_555
C103 N14 1_555 1_555
H72 C103 1_555 1_555
C104 C89 1_555 1_555
H73 C104 1_555 1_555
C105 C86 1_555 1_555
C106 C85 1_555 1_555
H74 C106 1_555 1_555
C107 O30 1_555 1_555
H75 C107 1_555 1_555
C108 H76 1_555 1_555
C109 O27 1_555 1_555
H77 C109 1_555 1_555
C110 C90 1_555 1_555
H78 C110 1_555 1_555
C111 C103 1_555 1_555
H79 C111 1_555 1_555
C112 O32 1_555 1_555
H80 C112 1_555 1_555
Cu2_2 O8 1_555 1_555
O8_2 Cu2 1_555 1_555
Cu4_2 O15 1_555 1_555
O15_2 Cu4 1_555 1_555
Cu6_2 O23 1_555 1_555
O23_2 Cu6 1_555 1_555
Cu8_2 O29 1_555 1_555
O29_2 Cu8 1_555 1_555
C1 C5 1_555 1_555
C4 C10 1_555 1_555
C6 C10 1_555 1_555
C7 C13 1_555 1_555
C8 C18 1_555 1_555
C9 C15 1_555 1_555
C11 C21 1_555 1_555
C13 C22 1_555 1_555
C14 C21 1_555 1_555
C16 C17 1_555 1_555
C19 C20 1_555 1_555
C24 C26 1_555 1_555
C29 C43 1_555 1_555
C30 C37 1_555 1_555
C31 C46 1_555 1_555
C32 C42 1_555 1_555
C33 C54 1_555 1_555
C35 C46 1_555 1_555
C36 C49 1_555 1_555
C37 C49 1_555 1_555
C38 C43 1_555 1_555
C38 C48 1_555 1_555
C39 C42 1_555 1_555
C41 C52 1_555 1_555
C44 C50 1_555 1_555
C45 C51 1_555 1_555
C59 C63 1_555 1_555
C59 C68 1_555 1_555
C60 C61 1_555 1_555
C63 C76 1_555 1_555
C64 C67 1_555 1_555
C65 C73 1_555 1_555
C71 C77 1_555 1_555
C72 C73 1_555 1_555
C72 C82 1_555 1_555
C76 C79 1_555 1_555
C78 C83 1_555 1_555
C81 C84 1_555 1_555
C86 C94 1_555 1_555
C88 C91 1_555 1_555
C89 C101 1_555 1_555
C92 C93 1_555 1_555
C97 C106 1_555 1_555
C98 C105 1_555 1_555
C100 C102 1_555 1_555
C104 C105 1_555 1_555
C110 C111 1_555 1_555

#END
