
#######################################################################
#
#                 Cambridge Crystallographic Data Centre
#                                CCDC 
#
#######################################################################
#
# If this CIF has been generated from an entry in the Cambridge 
# Structural Database, then it will include bibliographic, chemical, 
# crystal, experimental, refinement or atomic coordinate data resulting 
# from the CCDC's data processing and validation procedures.
#
#######################################################################

data_XOHNIS
_symmetry_cell_setting           tetragonal
_symmetry_space_group_name_H-M   'I -4 2 d'
_symmetry_Int_Tables_number      122
_space_group_name_Hall           'I -4 2bw'
loop_
_symmetry_equiv_pos_site_id
_symmetry_equiv_pos_as_xyz
1 x,y,z
2 -x,-y,z
3 y,-x,-z
4 -y,x,-z
5 1/2-x,y,3/4-z
6 1/2+x,-y,3/4-z
7 1/2-y,-x,3/4+z
8 1/2+y,x,3/4+z
9 1/2+x,1/2+y,1/2+z
10 1/2-x,1/2-y,1/2+z
11 1/2+y,1/2-x,1/2-z
12 1/2-y,1/2+x,1/2-z
13 -x,1/2+y,1/4-z
14 x,1/2-y,1/4-z
15 -y,1/2-x,1/4+z
16 y,1/2+x,1/4+z
_cell_length_a                   12.8343(5)
_cell_length_b                   12.8343(5)
_cell_length_c                   26.381(2)
_cell_angle_alpha                90
_cell_angle_beta                 90
_cell_angle_gamma                90
_cell_volume                     4345.46
loop_
_atom_site_label
_atom_site_type_symbol
_atom_site_fract_x
_atom_site_fract_y
_atom_site_fract_z
Cd1 Cd 0.5000 0.5000 0.5000
P1 P 0.72959(10) 0.65753(9) 0.50711(5)
N1 N 0.5000 0.5000 0.61465(17)
O1 O 0.5000 0.5000 0.66110(17)
O2 O 0.6610(2) 0.5679(2) 0.51482(13)
C1 C 0.9999(6) 0.8543(4) 0.4337(3)
H1 H 1.0715 0.8431 0.4332
C2 C 0.9645(3) 0.9542(3) 0.43258(17)
C3 C 0.8306(4) 0.7812(4) 0.43751(18)
O3 O 0.5315(3) 0.4239(3) 0.59049(18)
C4 C 0.7587(5) 0.6904(5) 0.4431(2)
H2 H 0.7898 0.6303 0.4267
H3 H 0.6940 0.7059 0.4256
O4 O 0.8342(5) 0.6468(6) 0.5340(2)
O5 O 0.6863(6) 0.7601(4) 0.5277(3)
C5 C 0.9351(5) 0.7693(4) 0.4354(3)
H4 H 0.9635 0.7026 0.4352
C6 C 0.7928(5) 0.8805(5) 0.4358(3)
H5 H 0.7211 0.8907 0.4357
C7 C 0.8576(5) 0.9663(4) 0.4342(3)
H6 H 0.8290 1.0329 0.4342
C8 C 0.6254(7) 0.7877(6) 0.5615(4)
H7 H 0.5673 0.7407 0.5627
H8 H 0.6009 0.8569 0.5545
H9 H 0.6608 0.7870 0.5936
C9 C 0.8819(8) 0.5696(8) 0.5527(6)
H10 H 0.8460 0.5462 0.5825
H11 H 0.9516 0.5898 0.5615
H12 H 0.8842 0.5142 0.5282
Cd1_2 Cd 1.5000 1.5000 0.5000
Cd1_3 Cd -0.5000 -0.5000 0.5000
P1A P 1.27041(10) 1.34247(9) 0.50711(5)
P1A_2 P 0.27041(10) 0.34247(9) 0.50711(5)
P1_2 P -0.27041(10) -0.34247(9) 0.50711(5)
N1B N 0.5000 0.5000 0.38535(17)
O1B O 0.5000 0.5000 0.33890(17)
O2A O 1.3390(2) 1.4321(2) 0.51482(13)
O2A_2 O 0.3390(2) 0.4321(2) 0.51482(13)
O2_2 O -0.3390(2) -0.4321(2) 0.51482(13)
O2B O 0.5679(2) 0.3390(2) 0.48518(13)
O2C O 0.4321(2) 0.6610(2) 0.48518(13)
C1A C 1.0001(6) 1.1457(4) 0.4337(3)
C1A_2 C 0.0001(6) 0.1457(4) 0.4337(3)
C1_2 C -0.0001(6) -0.1457(4) 0.4337(3)
H1A H 0.9285 1.1569 0.4332
H1A_2 H -0.0715 0.1569 0.4332
H1_2 H 0.0715 -0.1569 0.4332
C2A C 1.0355(3) 1.0458(3) 0.43258(17)
C2A_2 C 0.0355(3) 0.0458(3) 0.43258(17)
C2_2 C -0.0355(3) -0.0458(3) 0.43258(17)
C3A C 1.1694(4) 1.2188(4) 0.43751(18)
C3A_2 C 0.1694(4) 0.2188(4) 0.43751(18)
C3_2 C -0.1694(4) -0.2188(4) 0.43751(18)
O3A O 0.4685(3) 0.5761(3) 0.59049(18)
O3B O 0.4239(3) 0.4685(3) 0.40951(18)
O3C O 0.5761(3) 0.5315(3) 0.40951(18)
C4A C 1.2413(5) 1.3096(5) 0.4431(2)
C4A_2 C 0.2413(5) 0.3096(5) 0.4431(2)
C4_2 C -0.2413(5) -0.3096(5) 0.4431(2)
H2A H 1.2102 1.3697 0.4267
H2A_2 H 0.2102 0.3697 0.4267
H2_2 H -0.2102 -0.3697 0.4267
H3A H 1.3060 1.2941 0.4256
H3A_2 H 0.3060 0.2941 0.4256
H3_2 H -0.3060 -0.2941 0.4256
O4A O 1.1658(5) 1.3532(6) 0.5340(2)
O4A_2 O 0.1658(5) 0.3532(6) 0.5340(2)
O4_2 O -0.1658(5) -0.3532(6) 0.5340(2)
O5A O 1.3137(6) 1.2399(4) 0.5277(3)
O5A_2 O 0.3137(6) 0.2399(4) 0.5277(3)
O5_2 O -0.3137(6) -0.2399(4) 0.5277(3)
C5A C 1.0649(5) 1.2307(4) 0.4354(3)
C5A_2 C 0.0649(5) 0.2307(4) 0.4354(3)
C5_2 C -0.0649(5) -0.2307(4) 0.4354(3)
H4A H 1.0365 1.2974 0.4352
H4A_2 H 0.0365 0.2974 0.4352
H4_2 H -0.0365 -0.2974 0.4352
C6A C 1.2072(5) 1.1195(5) 0.4358(3)
C6A_2 C 0.2072(5) 0.1195(5) 0.4358(3)
C6_2 C -0.2072(5) -0.1195(5) 0.4358(3)
H5A H 1.2789 1.1093 0.4357
H5A_2 H 0.2789 0.1093 0.4357
H5_2 H -0.2789 -0.1093 0.4357
C7A C 1.1424(5) 1.0337(4) 0.4342(3)
C7A_2 C 0.1424(5) 0.0337(4) 0.4342(3)
C7_2 C -0.1424(5) -0.0337(4) 0.4342(3)
H6A H 1.1710 0.9671 0.4342
H6A_2 H 0.1710 -0.0329 0.4342
H6_2 H -0.1710 0.0329 0.4342
C8A C 1.3746(7) 1.2123(6) 0.5615(4)
C8A_2 C 0.3746(7) 0.2123(6) 0.5615(4)
C8_2 C -0.3746(7) -0.2123(6) 0.5615(4)
H7A H 1.4327 1.2593 0.5627
H7A_2 H 0.4327 0.2593 0.5627
H7_2 H -0.4327 -0.2593 0.5627
H8A H 1.3991 1.1431 0.5545
H8A_2 H 0.3991 0.1431 0.5545
H8_2 H -0.3991 -0.1431 0.5545
H9A H 1.3392 1.2130 0.5936
H9A_2 H 0.3392 0.2130 0.5936
H9_2 H -0.3392 -0.2130 0.5936
C9A C 1.1181(8) 1.4304(8) 0.5527(6)
C9A_2 C 0.1181(8) 0.4304(8) 0.5527(6)
C9_2 C -0.1181(8) -0.4304(8) 0.5527(6)
H10A H 1.1540 1.4538 0.5825
H10A_2 H 0.1540 0.4538 0.5825
H10_2 H -0.1540 -0.4538 0.5825
H11A H 1.0484 1.4102 0.5615
H11A_2 H 0.0484 0.4102 0.5615
H11_2 H -0.0484 -0.4102 0.5615
H12A H 1.1158 1.4858 0.5282
H12A_2 H 0.1158 0.4858 0.5282
H12_2 H -0.1158 -0.4858 0.5282
loop_
_geom_bond_atom_site_label_1
_geom_bond_atom_site_label_2
_geom_bond_site_symmetry_1
_geom_bond_site_symmetry_2
Cd1 O2 1_555 1_555
P1 O2 1_555 1_555
N1 O1 1_555 1_555
C1 H1 1_555 1_555
C2 C1 1_555 1_555
C3 C4 1_555 1_555
O3 Cd1 1_555 1_555
C4 P1 1_555 1_555
H2 C4 1_555 1_555
H3 C4 1_555 1_555
O4 P1 1_555 1_555
O5 P1 1_555 1_555
C5 C1 1_555 1_555
H4 C5 1_555 1_555
C6 C3 1_555 1_555
H5 C6 1_555 1_555
C7 C2 1_555 1_555
H6 C7 1_555 1_555
C8 O5 1_555 1_555
H7 C8 1_555 1_555
H8 C8 1_555 1_555
H9 C8 1_555 1_555
C9 O4 1_555 1_555
H10 C9 1_555 1_555
H11 C9 1_555 1_555
H12 C9 1_555 1_555
Cd1_2 O2A 1_555 1_555
Cd1_3 O2_2 1_555 1_555
P1A O2A 1_555 1_555
P1A_2 O2A_2 1_555 1_555
P1_2 O2_2 1_555 1_555
N1B O1B 1_555 1_555
O2A_2 Cd1 1_555 1_555
O2B Cd1 1_555 1_555
O2C Cd1 1_555 1_555
C1A H1A 1_555 1_555
C1A_2 H1A_2 1_555 1_555
C1_2 H1_2 1_555 1_555
C2A C2 1_555 1_555
C2A_2 C1A_2 1_555 1_555
C2_2 C1_2 1_555 1_555
C3A C4A 1_555 1_555
C3A_2 C4A_2 1_555 1_555
C3_2 C4_2 1_555 1_555
O3A Cd1 1_555 1_555
O3B Cd1 1_555 1_555
O3C Cd1 1_555 1_555
C4A P1A 1_555 1_555
C4A_2 P1A_2 1_555 1_555
C4_2 P1_2 1_555 1_555
H2A C4A 1_555 1_555
H2A_2 C4A_2 1_555 1_555
H2_2 C4_2 1_555 1_555
H3A C4A 1_555 1_555
H3A_2 C4A_2 1_555 1_555
H3_2 C4_2 1_555 1_555
O4A P1A 1_555 1_555
O4A_2 P1A_2 1_555 1_555
O4_2 P1_2 1_555 1_555
O5A P1A 1_555 1_555
O5A_2 P1A_2 1_555 1_555
O5_2 P1_2 1_555 1_555
C5A C1A 1_555 1_555
C5A_2 C1A_2 1_555 1_555
C5_2 C1_2 1_555 1_555
H4A C5A 1_555 1_555
H4A_2 C5A_2 1_555 1_555
H4_2 C5_2 1_555 1_555
C6A C3A 1_555 1_555
C6A_2 C3A_2 1_555 1_555
C6_2 C3_2 1_555 1_555
H5A C6A 1_555 1_555
H5A_2 C6A_2 1_555 1_555
H5_2 C6_2 1_555 1_555
C7A C2A 1_555 1_555
C7A_2 C2A_2 1_555 1_555
C7_2 C2_2 1_555 1_555
H6A C7A 1_555 1_555
H6A_2 C7A_2 1_555 1_555
H6_2 C7_2 1_555 1_555
C8A O5A 1_555 1_555
C8A_2 O5A_2 1_555 1_555
C8_2 O5_2 1_555 1_555
H7A C8A 1_555 1_555
H7A_2 C8A_2 1_555 1_555
H7_2 C8_2 1_555 1_555
H8A C8A 1_555 1_555
H8A_2 C8A_2 1_555 1_555
H8_2 C8_2 1_555 1_555
H9A C8A 1_555 1_555
H9A_2 C8A_2 1_555 1_555
H9_2 C8_2 1_555 1_555
C9A O4A 1_555 1_555
C9A_2 O4A_2 1_555 1_555
C9_2 O4_2 1_555 1_555
H10A C9A 1_555 1_555
H10A_2 C9A_2 1_555 1_555
H10_2 C9_2 1_555 1_555
H11A C9A 1_555 1_555
H11A_2 C9A_2 1_555 1_555
H11_2 C9_2 1_555 1_555
H12A C9A 1_555 1_555
H12A_2 C9A_2 1_555 1_555
H12_2 C9_2 1_555 1_555
N1 O3 1_555 1_555
N1 O3A 1_555 1_555
C3 C5 1_555 1_555
C6 C7 1_555 1_555
N1B O3B 1_555 1_555
N1B O3C 1_555 1_555
C1A C2A 1_555 1_555
C2A_2 C2_2 1_555 1_555
C3A C5A 1_555 1_555
C3A_2 C5A_2 1_555 1_555
C3_2 C5_2 1_555 1_555
C6A C7A 1_555 1_555
C6A_2 C7A_2 1_555 1_555
C6_2 C7_2 1_555 1_555

#END
