
#######################################################################
#
#                 Cambridge Crystallographic Data Centre
#                                CCDC 
#
#######################################################################
#
# If this CIF has been generated from an entry in the Cambridge 
# Structural Database, then it will include bibliographic, chemical, 
# crystal, experimental, refinement or atomic coordinate data resulting 
# from the CCDC's data processing and validation procedures.
#
#######################################################################

data_XOHPOA
_symmetry_cell_setting           monoclinic
_symmetry_space_group_name_H-M   'P 21/n'
_symmetry_Int_Tables_number      14
_space_group_name_Hall           '-P 2yn'
loop_
_symmetry_equiv_pos_site_id
_symmetry_equiv_pos_as_xyz
1 x,y,z
2 1/2-x,1/2+y,1/2-z
3 -x,-y,-z
4 1/2+x,1/2-y,1/2+z
_cell_length_a                   11.913(4)
_cell_length_b                   10.147(3)
_cell_length_c                   11.913(4)
_cell_angle_alpha                90.00
_cell_angle_beta                 115.702(4)
_cell_angle_gamma                90.00
_cell_volume                     1297.58
loop_
_atom_site_label
_atom_site_type_symbol
_atom_site_fract_x
_atom_site_fract_y
_atom_site_fract_z
Cd1 Cd 1.04560(3) 0.93794(4) 0.67057(3)
C1 C 0.7874(5) 0.9103(5) 0.6743(5)
H1 H 0.8005 0.9954 0.7064
C2 C 0.6982(5) 0.7257(6) 0.6010(5)
H2 H 0.6403 0.6577 0.5713
C3 C 0.8142(6) 0.7270(6) 0.6075(5)
H3 H 0.8510 0.6576 0.5848
C4 C 0.5700(4) 0.8917(6) 0.6504(5)
H4 H 0.5915 0.9615 0.7119
H5 H 0.5312 0.8211 0.6759
C5 C 0.4793(5) 0.9435(6) 0.5263(6)
H6 H 0.4568 0.8716 0.4669
H7 H 0.4043 0.9698 0.5333
C6 C 1.2632(5) 1.1731(6) 0.7203(5)
H8 H 1.2651 1.1670 0.6432
C7 C 1.3012(4) 1.2385(5) 0.9013(4)
C8 C 1.2144(4) 1.1376(5) 0.8687(5)
C9 C 1.3558(5) 1.3183(5) 1.0162(5)
C10 C 1.1466(5) 1.0766(5) 0.9319(5)
N1 N 0.8687(4) 0.8447(4) 0.6523(4)
N2 N 0.6830(4) 0.8426(5) 0.6461(4)
N3 N 1.1907(4) 1.0956(4) 0.7517(4)
N4 N 1.3322(4) 1.2591(4) 0.8058(4)
O1 O 1.4276(3) 1.4092(3) 1.0159(3)
O2 O 1.3303(3) 1.2923(3) 1.1051(3)
O3 O 1.0680(3) 0.9917(4) 0.8780(3)
O4 O 1.1713(4) 1.1135(4) 1.0436(4)
H9 H 1.2319 1.1627 1.0694
Cd1B Cd -0.04560(3) 1.06206(4) 0.32943(3)
Cd1A Cd 1.45440(3) 1.43794(4) 0.82943(3)
Cd1C Cd 1.54560(3) 1.56206(4) 1.17057(3)
Cd1A_2 Cd 1.45440(3) 0.43794(4) 0.82943(3)
Cd1B_2 Cd 0.95440(3) 1.06206(4) 0.32943(3)
C1B C 0.2126(5) 1.0897(5) 0.3257(5)
H1B H 0.1995 1.0046 0.2936
C2B C 0.3018(5) 1.2743(6) 0.3990(5)
H2B H 0.3597 1.3423 0.4287
C3B C 0.1858(6) 1.2730(6) 0.3925(5)
H3B H 0.1490 1.3424 0.4152
C4B C 0.4300(4) 1.1083(6) 0.3496(5)
H4B H 0.4085 1.0385 0.2881
H5B H 0.4688 1.1789 0.3241
C5B C 0.5207(5) 1.0565(6) 0.4737(6)
H6B H 0.5432 1.1284 0.5331
H7B H 0.5957 1.0302 0.4667
C6A C 1.2368(5) 0.6731(6) 0.7797(5)
H8A H 1.2349 0.6670 0.8568
C7A C 1.1988(4) 0.7385(5) 0.5987(4)
C8A C 1.2856(4) 0.6376(5) 0.6313(5)
C9A C 1.1442(5) 0.8183(5) 0.4838(5)
C10A C 1.3534(5) 0.5766(5) 0.5681(5)
N1B N 0.1313(4) 1.1553(4) 0.3477(4)
N2B N 0.3170(4) 1.1574(5) 0.3539(4)
N3A N 1.3093(4) 0.5956(4) 0.7483(4)
N3B N -0.1907(4) 0.9044(4) 0.2483(4)
N4A N 1.1678(4) 0.7591(4) 0.6942(4)
N4C N -0.1678(4) 1.2409(4) 0.3058(4)
O1A O 1.0724(3) 0.9092(3) 0.4841(3)
O1C O 0.9276(3) 1.0908(3) 0.5159(3)
O1C_2 O -0.0724(3) 1.0908(3) 0.5159(3)
O1A_2 O 0.0724(3) 0.9092(3) 0.4841(3)
O2A O 1.1697(3) 0.7923(3) 0.3949(3)
O3A O 1.4320(3) 0.4917(4) 0.6220(3)
O3B O -0.0680(3) 1.0083(4) 0.1220(3)
O4A O 1.3287(4) 0.6135(4) 0.4564(4)
H9A H 1.2681 0.6627 0.4306
loop_
_geom_bond_atom_site_label_1
_geom_bond_atom_site_label_2
_geom_bond_site_symmetry_1
_geom_bond_site_symmetry_2
Cd1 N1 1_555 1_555
C1 H1 1_555 1_555
C2 H2 1_555 1_555
C3 C2 1_555 1_555
H3 C3 1_555 1_555
C4 H4 1_555 1_555
H5 C4 1_555 1_555
C5 C4 1_555 1_555
H6 C5 1_555 1_555
H7 C5 1_555 1_555
C6 H8 1_555 1_555
C7 C8 1_555 1_555
C8 C10 1_555 1_555
C9 C7 1_555 1_555
C10 O3 1_555 1_555
N1 C1 1_555 1_555
N2 C1 1_555 1_555
N3 Cd1 1_555 1_555
N4 C6 1_555 1_555
O1 C9 1_555 1_555
O2 C9 1_555 1_555
O3 Cd1 1_555 1_555
O4 C10 1_555 1_555
H9 O4 1_555 1_555
Cd1B N1B 1_555 1_555
Cd1A N4 1_555 1_555
Cd1C O1 1_555 1_555
Cd1A_2 N3A 1_555 1_555
Cd1B_2 O1A 1_555 1_555
C1B H1B 1_555 1_555
C2B H2B 1_555 1_555
C3B C2B 1_555 1_555
H3B C3B 1_555 1_555
C4B H4B 1_555 1_555
H5B C4B 1_555 1_555
C5B C5 1_555 1_555
H6B C5B 1_555 1_555
H7B C5B 1_555 1_555
C6A H8A 1_555 1_555
C7A C8A 1_555 1_555
C8A C10A 1_555 1_555
C9A C7A 1_555 1_555
C10A O3A 1_555 1_555
N1B C1B 1_555 1_555
N2B C1B 1_555 1_555
N3A C6A 1_555 1_555
N3B Cd1B 1_555 1_555
N4A Cd1 1_555 1_555
N4C Cd1B 1_555 1_555
O1A Cd1 1_555 1_555
O1C Cd1 1_555 1_555
O1C_2 Cd1B 1_555 1_555
O1A_2 Cd1B 1_555 1_555
O2A C9A 1_555 1_555
O3A Cd1A_2 1_555 1_555
O3B Cd1B 1_555 1_555
O4A C10A 1_555 1_555
H9A O4A 1_555 1_555
C2 N2 1_555 1_555
C3 N1 1_555 1_555
C4 N2 1_555 1_555
C6 N3 1_555 1_555
C7 N4 1_555 1_555
C8 N3 1_555 1_555
O1 Cd1A 1_555 1_555
Cd1B_2 O1C 1_555 1_555
C2B N2B 1_555 1_555
C3B N1B 1_555 1_555
C4B C5B 1_555 1_555
C4B N2B 1_555 1_555
C6A N4A 1_555 1_555
C7A N4A 1_555 1_555
C8A N3A 1_555 1_555
C9A O1A 1_555 1_555

#END
