
#######################################################################
#
#                 Cambridge Crystallographic Data Centre
#                                CCDC 
#
#######################################################################
#
# If this CIF has been generated from an entry in the Cambridge 
# Structural Database, then it will include bibliographic, chemical, 
# crystal, experimental, refinement or atomic coordinate data resulting 
# from the CCDC's data processing and validation procedures.
#
#######################################################################

data_XOHQAN
_symmetry_cell_setting           triclinic
_symmetry_space_group_name_H-M   'P -1'
_symmetry_Int_Tables_number      2
_space_group_name_Hall           '-P 1'
loop_
_symmetry_equiv_pos_site_id
_symmetry_equiv_pos_as_xyz
1 x,y,z
2 -x,-y,-z
_cell_length_a                   11.3925(10)
_cell_length_b                   12.2237(11)
_cell_length_c                   14.2755(13)
_cell_angle_alpha                95.0430(10)
_cell_angle_beta                 103.5940(10)
_cell_angle_gamma                101.2350(10)
_cell_volume                     1876.53
loop_
_atom_site_label
_atom_site_type_symbol
_atom_site_fract_x
_atom_site_fract_y
_atom_site_fract_z
Dy1 Dy 0.105667(16) 0.666111(14) 0.634763(12)
Dy2 Dy 0.706270(17) 1.135940(15) 0.110670(13)
O1 O -0.0864(2) 0.6935(2) 0.6428(2)
O2 O -0.1029(3) 0.7140(4) 0.7948(3)
O3 O 0.0628(3) 0.6369(2) 0.47150(19)
O4 O 0.0124(3) 0.5029(2) 0.3442(2)
O5 O 0.5981(3) 1.1386(2) 0.2287(2)
O6 O 0.6936(2) 1.2552(2) 0.3667(2)
O7 O 0.2052(3) 0.6637(2) 0.80390(19)
O8 O 0.2590(3) 0.6943(2) 0.9637(2)
O9 O 0.0976(3) -0.1497(2) 0.5838(2)
O10 O 0.1547(3) -0.1249(2) 0.7438(2)
O11 O 0.5051(3) 0.8753(2) -0.0390(2)
O12 O 0.6436(3) 0.9453(2) 0.1026(2)
O13 O 0.2097(2) 0.5158(2) 0.6063(2)
H1 H 0.1737 0.4490 0.5966
H2 H 0.2773 0.5256 0.5923
O14 O 0.9028(3) 1.1427(3) 0.0864(2)
H3 H 0.9643 1.1870 0.1236
H4 H 0.9129 1.1314 0.0310
O15 O 0.6742(3) 1.0706(2) -0.0608(2)
H5 H 0.7012 1.1020 -0.1028
H6 H 0.6326 1.0060 -0.0832
N1 N -0.5407(3) 0.5469(3) 0.6101(2)
N2 N 0.2686(4) 0.8158(3) 0.2283(3)
N3 N 0.3279(4) 1.0144(3) 0.4453(3)
N4 N 0.1260(4) 0.2722(3) 0.8985(3)
N5 N 0.1580(3) 0.2693(3) 0.6523(2)
N6 N 0.4995(4) 0.5355(3) 0.1254(3)
C1 C -0.1462(4) 0.6861(4) 0.7060(3)
C2 C -0.2855(4) 0.6364(4) 0.6714(3)
C3 C -0.3405(4) 0.5776(4) 0.5782(3)
H9 H -0.2923 0.5684 0.5350
C4 C -0.4678(4) 0.5328(3) 0.5498(3)
C5 C -0.4874(4) 0.6032(3) 0.6990(3)
H10 H -0.5379 0.6127 0.7403
C6 C -0.3620(4) 0.6485(4) 0.7335(3)
H11 H -0.3290 0.6861 0.7965
C7 C 0.0669(3) 0.5997(3) 0.3880(3)
C8 C 0.1395(4) 0.6762(3) 0.3337(3)
C9 C 0.1451(4) 0.6366(4) 0.2410(3)
H12 H 0.1079 0.5625 0.2132
C10 C 0.2070(5) 0.7094(4) 0.1907(3)
H13 H 0.2062 0.6835 0.1273
C11 C 0.2669(4) 0.8522(3) 0.3194(3)
C12 C 0.2015(4) 0.7864(3) 0.3739(3)
H14 H 0.1994 0.8156 0.4357
C13 C 0.3444(4) 0.9667(3) 0.3623(3)
C14 C 0.4024(4) 1.1140(4) 0.4861(3)
H15 H 0.3913 1.1477 0.5434
C15 C 0.4953(4) 1.1708(3) 0.4487(3)
H16 H 0.5454 1.2396 0.4806
C16 C 0.5110(4) 1.1219(3) 0.3626(3)
C17 C 0.4342(4) 1.0186(3) 0.3188(3)
H17 H 0.4426 0.9841 0.2608
C18 C 0.6089(4) 1.1761(3) 0.3161(3)
C19 C 0.2173(4) 0.6271(3) 0.8866(3)
C20 C 0.1858(4) 0.5030(3) 0.8915(3)
C21 C 0.1584(5) 0.4628(4) 0.9737(3)
H18 H 0.1597 0.5122 1.0275
C22 C 0.1291(5) 0.3478(4) 0.9735(3)
H19 H 0.1105 0.3211 1.0286
C23 C 0.1553(4) 0.3111(3) 0.8199(3)
C24 C 0.1868(4) 0.4258(3) 0.8150(3)
H20 H 0.2085 0.4505 0.7603
C25 C 0.1497(4) 0.2264(3) 0.7356(3)
C26 C 0.1399(4) 0.1121(3) 0.7432(3)
H21 H 0.1358 0.0857 0.8017
C27 C 0.1364(4) 0.0382(3) 0.6622(3)
C28 C 0.1421(4) 0.0822(3) 0.5759(3)
H22 H 0.1388 0.0353 0.5200
C29 C 0.1526(4) 0.1968(4) 0.5750(3)
H23 H 0.1561 0.2249 0.5171
C30 C 0.1291(4) -0.0859(3) 0.6638(3)
C31 C 0.5669(4) 0.8664(3) 0.0445(3)
C32 C 0.5474(4) 0.7518(3) 0.0750(3)
C33 C 0.5419(4) 0.7362(4) 0.1688(3)
H24 H 0.5556 0.7974 0.2167
C34 C 0.5155(5) 0.6272(4) 0.1894(3)
H25 H 0.5084 0.6169 0.2518
C35 C 0.5085(4) 0.5512(3) 0.0354(3)
C36 C 0.5308(4) 0.6572(3) 0.0077(3)
H26 H 0.5348 0.6652 -0.0557
Dy1A Dy -1.105667(16) 0.333889(14) 0.365237(12)
Dy1A_2 Dy -0.105667(16) 0.333889(14) 0.365237(12)
Dy1A_3 Dy 0.894333(16) 1.333889(14) 0.365237(12)
Dy1_2 Dy 0.105667(16) -0.333889(14) 0.634763(12)
Dy1_3 Dy -0.894333(16) -0.333889(14) 0.634763(12)
Dy1_4 Dy 0.105667(16) 1.666111(14) 0.634763(12)
Dy2A Dy -0.706270(17) -0.135940(15) 0.889330(13)
Dy2A_2 Dy 0.293730(17) 0.864060(15) 0.889330(13)
Dy2A_3 Dy 0.293730(17) -0.135940(15) 0.889330(13)
Dy2A_4 Dy 0.293730(17) 0.864060(15) -0.110670(13)
Dy2_2 Dy 0.706270(17) 0.135940(15) 0.110670(13)
Dy2A_5 Dy 0.293730(17) -0.135940(15) -0.110670(13)
Dy2A_6 Dy 0.293730(17) 1.864060(15) 0.889330(13)
O1A O -0.9136(2) 0.3065(2) 0.3572(2)
O2A O -0.8971(3) 0.2860(4) 0.2052(3)
O3A O -0.0628(3) 0.3631(2) 0.52850(19)
O3A_2 O -1.0628(3) 0.3631(2) 0.52850(19)
O4A O -0.0124(3) 0.4971(2) 0.6558(2)
O4_2 O -0.9876(3) 0.5029(2) 0.3442(2)
O5A O -0.5981(3) -0.1386(2) 0.7713(2)
O6A O -0.6936(2) -0.2552(2) 0.6333(2)
O6A_2 O 0.3064(2) 0.7448(2) 0.6333(2)
O6_2 O -1.3064(2) 0.2552(2) 0.3667(2)
O7_2 O 0.2052(3) 1.6637(2) 0.80390(19)
O7A O 0.7948(3) 1.3363(2) 0.19610(19)
O7A_2 O -1.2052(3) 0.3363(2) 0.19610(19)
O7_3 O -0.7948(3) -0.3363(2) 0.80390(19)
O8_2 O 0.2590(3) 1.6943(2) 0.9637(2)
O8A O 0.7410(3) 1.3057(2) 0.0363(2)
O8_3 O -0.7410(3) -0.3057(2) 0.9637(2)
O9_2 O 0.0976(3) 0.8503(2) 0.5838(2)
O9A O -1.0976(3) 0.1497(2) 0.4162(2)
O10_2 O 0.1547(3) 0.8751(2) 0.7438(2)
O10A O 0.8453(3) 1.1249(2) 0.2562(2)
O10A_2 O -1.1547(3) 0.1249(2) 0.2562(2)
O10_3 O -0.8453(3) -0.1249(2) 0.7438(2)
O11A O 0.4949(3) 0.1247(2) 0.0390(2)
O11A_2 O 0.4949(3) 1.1247(2) 0.0390(2)
O11_2 O -0.4949(3) -0.1247(2) 0.9610(2)
O12A O 0.3564(3) 0.0547(2) -0.1026(2)
O12A_2 O -0.6436(3) 0.0547(2) 0.8974(2)
O13A O -1.2097(2) 0.4842(2) 0.3937(2)
H1A H -1.1737 0.5510 0.4034
H2A H -1.2773 0.4744 0.4077
O14A O -0.9028(3) -0.1427(3) 0.9136(2)
H3A H -0.9643 -0.1870 0.8764
H4A H -0.9129 -0.1314 0.9690
O15A O -0.6742(3) -0.0706(2) 1.0608(2)
H5A H -0.7012 -0.1020 1.1028
H6A H -0.6326 -0.0060 1.0832
N1A N -0.4593(3) 0.4531(3) 0.3899(2)
N2A N -0.2686(4) 0.1842(3) 0.7717(3)
N3A N -0.3279(4) -0.0144(3) 0.5547(3)
N4_2 N 0.1260(4) 1.2722(3) 0.8985(3)
N5_2 N 0.1580(3) 1.2693(3) 0.6523(2)
N6A N 0.5005(4) 0.4645(3) -0.1254(3)
C1A C -0.8538(4) 0.3139(4) 0.2940(3)
C2A C -0.7145(4) 0.3636(4) 0.3286(3)
C3A C -0.6595(4) 0.4224(4) 0.4218(3)
H9A H -0.7077 0.4316 0.4650
C4A C -0.5322(4) 0.4672(3) 0.4502(3)
C5A C -0.5126(4) 0.3968(3) 0.3010(3)
H10A H -0.4621 0.3873 0.2597
C6A C -0.6380(4) 0.3515(4) 0.2665(3)
H11A H -0.6710 0.3139 0.2035
C7A C -0.0669(3) 0.4003(3) 0.6120(3)
C8A C -0.1395(4) 0.3238(3) 0.6663(3)
C9A C -0.1451(4) 0.3634(4) 0.7590(3)
H12A H -0.1079 0.4375 0.7868
C10A C -0.2070(5) 0.2906(4) 0.8093(3)
H13A H -0.2062 0.3165 0.8727
C11A C -0.2669(4) 0.1478(3) 0.6806(3)
C12A C -0.2015(4) 0.2136(3) 0.6261(3)
H14A H -0.1994 0.1844 0.5643
C13A C -0.3444(4) 0.0333(3) 0.6377(3)
C14A C -0.4024(4) -0.1140(4) 0.5139(3)
H15A H -0.3913 -0.1477 0.4566
C15A C -0.4953(4) -0.1708(3) 0.5513(3)
H16A H -0.5454 -0.2396 0.5194
C16A C -0.5110(4) -0.1219(3) 0.6374(3)
C17A C -0.4342(4) -0.0186(3) 0.6812(3)
H17A H -0.4426 0.0159 0.7392
C18A C -0.6089(4) -0.1761(3) 0.6839(3)
C19_2 C 0.2173(4) 1.6271(3) 0.8866(3)
C20_2 C 0.1858(4) 1.5030(3) 0.8915(3)
C21_2 C 0.1584(5) 1.4628(4) 0.9737(3)
H18_2 H 0.1597 1.5122 1.0275
C22_2 C 0.1291(5) 1.3478(4) 0.9735(3)
H19_2 H 0.1105 1.3211 1.0286
C23_2 C 0.1553(4) 1.3111(3) 0.8199(3)
C24_2 C 0.1868(4) 1.4258(3) 0.8150(3)
H20_2 H 0.2085 1.4505 0.7603
C25_2 C 0.1497(4) 1.2264(3) 0.7356(3)
C26_2 C 0.1399(4) 1.1121(3) 0.7432(3)
H21_2 H 0.1358 1.0857 0.8017
C27_2 C 0.1364(4) 1.0382(3) 0.6622(3)
C28_2 C 0.1421(4) 1.0822(3) 0.5759(3)
H22_2 H 0.1388 1.0353 0.5200
C29_2 C 0.1526(4) 1.1968(4) 0.5750(3)
H23_2 H 0.1561 1.2249 0.5171
C30_2 C 0.1291(4) 0.9141(3) 0.6638(3)
C31A C 0.4331(4) 0.1336(3) -0.0445(3)
C32A C 0.4526(4) 0.2482(3) -0.0750(3)
C33A C 0.4581(4) 0.2638(4) -0.1688(3)
H24A H 0.4444 0.2026 -0.2167
C34A C 0.4845(5) 0.3728(4) -0.1894(3)
H25A H 0.4916 0.3831 -0.2518
C35A C 0.4915(4) 0.4488(3) -0.0354(3)
C36A C 0.4692(4) 0.3428(3) -0.0077(3)
H26A H 0.4652 0.3348 0.0557
O16 O 0.9632(5) 0.0802(4) 0.9209(4)
H7 H 0.8984 0.0632 0.9407
H8 H 1.0228 0.0668 0.9604
loop_
_geom_bond_atom_site_label_1
_geom_bond_atom_site_label_2
_geom_bond_site_symmetry_1
_geom_bond_site_symmetry_2
Dy1 O1 1_555 1_555
Dy2 O5 1_555 1_555
O1 C1 1_555 1_555
O2 C1 1_555 1_555
O3 Dy1 1_555 1_555
O4 C7 1_555 1_555
O5 C18 1_555 1_555
O6 C18 1_555 1_555
O7 Dy1 1_555 1_555
O8 C19 1_555 1_555
O9 C30 1_555 1_555
O10 C30 1_555 1_555
O11 C31 1_555 1_555
O12 Dy2 1_555 1_555
O13 Dy1 1_555 1_555
H1 O13 1_555 1_555
H2 O13 1_555 1_555
O14 Dy2 1_555 1_555
H3 O14 1_555 1_555
H4 O14 1_555 1_555
O15 Dy2 1_555 1_555
H5 O15 1_555 1_555
H6 O15 1_555 1_555
O16 H7 1_555 1_555
H8 O16 1_555 1_555
N1 C4 1_555 1_555
N2 C10 1_555 1_555
N3 C13 1_555 1_555
N4 C22 1_555 1_555
N5 C25 1_555 1_555
N6 C34 1_555 1_555
C1 C2 1_555 1_555
C2 C3 1_555 1_555
C3 H9 1_555 1_555
C4 C3 1_555 1_555
C5 N1 1_555 1_555
H10 C5 1_555 1_555
C6 C2 1_555 1_555
H11 C6 1_555 1_555
C7 O3 1_555 1_555
C8 C7 1_555 1_555
C9 C8 1_555 1_555
H12 C9 1_555 1_555
C10 C9 1_555 1_555
H13 C10 1_555 1_555
C11 N2 1_555 1_555
C12 C8 1_555 1_555
H14 C12 1_555 1_555
C13 C11 1_555 1_555
C14 N3 1_555 1_555
H15 C14 1_555 1_555
C15 C14 1_555 1_555
H16 C15 1_555 1_555
C16 C15 1_555 1_555
C17 C13 1_555 1_555
H17 C17 1_555 1_555
C18 C16 1_555 1_555
C19 O7 1_555 1_555
C20 C19 1_555 1_555
C21 C20 1_555 1_555
H18 C21 1_555 1_555
C22 C21 1_555 1_555
H19 C22 1_555 1_555
C23 N4 1_555 1_555
C24 C20 1_555 1_555
H20 C24 1_555 1_555
C25 C23 1_555 1_555
C26 C25 1_555 1_555
H21 C26 1_555 1_555
C27 C26 1_555 1_555
C28 C27 1_555 1_555
H22 C28 1_555 1_555
C29 N5 1_555 1_555
H23 C29 1_555 1_555
C30 C27 1_555 1_555
C31 O12 1_555 1_555
C32 C31 1_555 1_555
C33 C32 1_555 1_555
H24 C33 1_555 1_555
C34 C33 1_555 1_555
H25 C34 1_555 1_555
C35 N6 1_555 1_555
C36 C32 1_555 1_555
H26 C36 1_555 1_555
Dy1A O1A 1_555 1_555
Dy1A_2 O4 1_555 1_555
Dy1A_3 O6 1_555 1_555
Dy1_2 O9 1_555 1_555
Dy1_3 O6A 1_555 1_555
Dy1_4 O7_2 1_555 1_555
Dy2A O5A 1_555 1_555
Dy2A_2 O7 1_555 1_555
Dy2A_3 O10 1_555 1_555
Dy2A_4 O11 1_555 1_555
Dy2_2 O11A 1_555 1_555
Dy2A_5 O12A 1_555 1_555
Dy2A_6 O7_2 1_555 1_555
O1A C1A 1_555 1_555
O2A C1A 1_555 1_555
O3A Dy1A_2 1_555 1_555
O3A_2 Dy1A 1_555 1_555
O4A Dy1 1_555 1_555
O4_2 Dy1A 1_555 1_555
O5A C18A 1_555 1_555
O6A C18A 1_555 1_555
O6A_2 Dy1 1_555 1_555
O6_2 Dy1A 1_555 1_555
O7_2 C19_2 1_555 1_555
O7A Dy2 1_555 1_555
O7A_2 Dy1A 1_555 1_555
O7_3 Dy1_3 1_555 1_555
O8_2 Dy2A_6 1_555 1_555
O8A Dy2 1_555 1_555
O8_3 Dy2A 1_555 1_555
O9_2 Dy1 1_555 1_555
O9A Dy1A 1_555 1_555
O10_2 Dy1 1_555 1_555
O10A Dy2 1_555 1_555
O10A_2 Dy1A 1_555 1_555
O10_3 Dy1_3 1_555 1_555
O11A C31A 1_555 1_555
O11A_2 Dy2 1_555 1_555
O11_2 Dy2A 1_555 1_555
O12A C31A 1_555 1_555
O12A_2 Dy2A 1_555 1_555
O13A Dy1A 1_555 1_555
H1A O13A 1_555 1_555
H2A O13A 1_555 1_555
O14A Dy2A 1_555 1_555
H3A O14A 1_555 1_555
H4A O14A 1_555 1_555
O15A Dy2A 1_555 1_555
H5A O15A 1_555 1_555
H6A O15A 1_555 1_555
N1A C4A 1_555 1_555
N2A C10A 1_555 1_555
N3A C13A 1_555 1_555
N4_2 C22_2 1_555 1_555
N5_2 C25_2 1_555 1_555
N6A C34A 1_555 1_555
C1A C2A 1_555 1_555
C2A C3A 1_555 1_555
C3A H9A 1_555 1_555
C4A C4 1_555 1_555
C5A N1A 1_555 1_555
H10A C5A 1_555 1_555
C6A C2A 1_555 1_555
H11A C6A 1_555 1_555
C7A O3A 1_555 1_555
C8A C7A 1_555 1_555
C9A C8A 1_555 1_555
H12A C9A 1_555 1_555
C10A C9A 1_555 1_555
H13A C10A 1_555 1_555
C11A N2A 1_555 1_555
C12A C8A 1_555 1_555
H14A C12A 1_555 1_555
C13A C11A 1_555 1_555
C14A N3A 1_555 1_555
H15A C14A 1_555 1_555
C15A C14A 1_555 1_555
H16A C15A 1_555 1_555
C16A C15A 1_555 1_555
C17A C13A 1_555 1_555
H17A C17A 1_555 1_555
C18A C16A 1_555 1_555
C19_2 O8_2 1_555 1_555
C20_2 C19_2 1_555 1_555
C21_2 C20_2 1_555 1_555
H18_2 C21_2 1_555 1_555
C22_2 C21_2 1_555 1_555
H19_2 C22_2 1_555 1_555
C23_2 N4_2 1_555 1_555
C24_2 C20_2 1_555 1_555
H20_2 C24_2 1_555 1_555
C25_2 C23_2 1_555 1_555
C26_2 C25_2 1_555 1_555
H21_2 C26_2 1_555 1_555
C27_2 C26_2 1_555 1_555
C28_2 C27_2 1_555 1_555
H22_2 C28_2 1_555 1_555
C29_2 N5_2 1_555 1_555
H23_2 C29_2 1_555 1_555
C30_2 O9_2 1_555 1_555
C31A C32A 1_555 1_555
C32A C33A 1_555 1_555
C33A H24A 1_555 1_555
C34A C33A 1_555 1_555
H25A C34A 1_555 1_555
C35A C35 1_555 1_555
C36A C32A 1_555 1_555
H26A C36A 1_555 1_555
O8 Dy2A_2 1_555 1_555
O10 Dy1_2 1_555 1_555
C5 C6 1_555 1_555
C11 C12 1_555 1_555
C16 C17 1_555 1_555
C23 C24 1_555 1_555
C28 C29 1_555 1_555
C35 C36 1_555 1_555
Dy1A_3 O7A 1_555 1_555
Dy1A_3 O10A 1_555 1_555
Dy2A O7_3 1_555 1_555
Dy2A O10_3 1_555 1_555
Dy2A_2 O10_2 1_555 1_555
O4A C7A 1_555 1_555
O10_2 C30_2 1_555 1_555
N6A C35A 1_555 1_555
C3A C4A 1_555 1_555
C5A C6A 1_555 1_555
C11A C12A 1_555 1_555
C16A C17A 1_555 1_555
C23_2 C24_2 1_555 1_555
C27_2 C30_2 1_555 1_555
C28_2 C29_2 1_555 1_555
C35A C36A 1_555 1_555

#END
