
#######################################################################
#
#                 Cambridge Crystallographic Data Centre
#                                CCDC 
#
#######################################################################
#
# If this CIF has been generated from an entry in the Cambridge 
# Structural Database, then it will include bibliographic, chemical, 
# crystal, experimental, refinement or atomic coordinate data resulting 
# from the CCDC's data processing and validation procedures.
#
#######################################################################

data_XOHRUI
_symmetry_cell_setting           triclinic
_symmetry_space_group_name_H-M   'P -1'
_symmetry_Int_Tables_number      2
_space_group_name_Hall           '-P 1'
loop_
_symmetry_equiv_pos_site_id
_symmetry_equiv_pos_as_xyz
1 x,y,z
2 -x,-y,-z
_cell_length_a                   9.039(1)
_cell_length_b                   11.397(1)
_cell_length_c                   12.185(2)
_cell_angle_alpha                63.270(2)
_cell_angle_beta                 75.425(2)
_cell_angle_gamma                77.368(2)
_cell_volume                     1076.93
loop_
_atom_site_label
_atom_site_type_symbol
_atom_site_fract_x
_atom_site_fract_y
_atom_site_fract_z
Cu1 Cu 0.0000 -0.5000 0.5000
O1 O 0.2181(2) -0.51934(16) 0.58337(16)
O2 O 0.8856(2) 0.1347(2) 0.3815(2)
O3 O -0.0134(2) -0.30206(16) 0.43689(15)
O4 O 0.15080(19) -0.49562(17) 0.35216(15)
N1 N 0.3129(2) -0.43287(19) 0.55472(18)
N2 N 0.7972(2) 0.0453(2) 0.4094(2)
N3 N -0.0121(2) -0.21913(19) 0.31707(18)
N4 N 0.1092(2) -0.50077(19) 0.25648(17)
C1 C 0.3558(3) -0.3486(2) 0.4344(2)
H1 H 0.3194 -0.3535 0.3701
C2 C 0.4520(3) -0.2559(2) 0.4044(2)
H2 H 0.4804 -0.1969 0.3196
C3 C 0.5081(3) -0.2476(2) 0.4974(2)
C4 C 0.4669(3) -0.3399(2) 0.6200(2)
H3 H 0.5065 -0.3404 0.6854
C5 C 0.3691(3) -0.4303(2) 0.6465(2)
H4 H 0.3407 -0.4916 0.7304
C6 C 0.7102(3) 0.0595(3) 0.3276(3)
H5 H 0.7138 0.1354 0.2501
C7 C 0.6166(3) -0.0337(2) 0.3544(2)
H6 H 0.5568 -0.0212 0.2953
C8 C 0.6083(3) -0.1462(2) 0.4673(2)
C9 C 0.6981(3) -0.1577(2) 0.5497(3)
H7 H 0.6955 -0.2326 0.6279
C10 C 0.7909(3) -0.0629(3) 0.5207(3)
H8 H 0.8510 -0.0733 0.5789
C11 C 0.0838(3) -0.1254(3) 0.2632(2)
H9 H 0.1480 -0.1193 0.3109
C12 C 0.0895(3) -0.0382(3) 0.1394(3)
H10 H 0.1579 0.0273 0.1026
C13 C -0.0036(3) -0.0448(2) 0.0674(2)
C14 C -0.1055(3) -0.1393(2) 0.1286(2)
H11 H -0.1745 -0.1449 0.0842
C15 C -0.1082(3) -0.2252(2) 0.2525(2)
H12 H -0.1787 -0.2892 0.2924
C16 C 0.0295(3) -0.5970(2) 0.2747(2)
H13 H 0.0026 -0.6634 0.3563
C17 C -0.0126(3) -0.5985(2) 0.1744(2)
H14 H -0.0680 -0.6669 0.1874
C18 C 0.0246(3) -0.5016(2) 0.0543(2)
C19 C 0.1112(3) -0.4064(3) 0.0400(2)
H15 H 0.1418 -0.3401 -0.0408
C20 C 0.1523(3) -0.4081(3) 0.1416(2)
H16 H 0.2118 -0.3432 0.1307
Cu1_2 Cu 0.0000 0.5000 -0.5000
Cu1_3 Cu 0.0000 -0.5000 -0.5000
O1A O -0.2181(2) -0.48066(16) 0.41663(16)
O2A O -0.8856(2) -1.1347(2) 0.6185(2)
O3A O 0.0134(2) 0.30206(16) -0.43689(15)
O3A_2 O 0.0134(2) -0.69794(16) 0.56311(15)
O4A O -0.15080(19) -0.50438(17) -0.35216(15)
O4A_2 O -0.15080(19) -0.50438(17) 0.64784(15)
N1A N -0.3129(2) -0.56713(19) 0.44528(18)
N2A N -0.7972(2) -1.0453(2) 0.5906(2)
N3A N 0.0121(2) 0.21913(19) -0.31707(18)
N4A N -0.1092(2) -0.49923(19) -0.25648(17)
C1A C -0.3558(3) -0.6514(2) 0.5656(2)
H1A H -0.3194 -0.6465 0.6299
C2A C -0.4520(3) -0.7441(2) 0.5956(2)
H2A H -0.4804 -0.8031 0.6804
C3A C -0.5081(3) -0.7524(2) 0.5026(2)
C4A C -0.4669(3) -0.6601(2) 0.3800(2)
H3A H -0.5065 -0.6596 0.3146
C5A C -0.3691(3) -0.5697(2) 0.3535(2)
H4A H -0.3407 -0.5084 0.2696
C6A C -0.7102(3) -1.0595(3) 0.6724(3)
H5A H -0.7138 -1.1354 0.7499
C7A C -0.6166(3) -0.9663(2) 0.6456(2)
H6A H -0.5568 -0.9788 0.7047
C8A C -0.6083(3) -0.8538(2) 0.5327(2)
C9A C -0.6981(3) -0.8423(2) 0.4503(3)
H7A H -0.6955 -0.7674 0.3721
C10A C -0.7909(3) -0.9371(3) 0.4793(3)
H8A H -0.8510 -0.9267 0.4211
C11A C -0.0838(3) 0.1254(3) -0.2632(2)
H9A H -0.1480 0.1193 -0.3109
C12A C -0.0895(3) 0.0382(3) -0.1394(3)
H10A H -0.1579 -0.0273 -0.1026
C13A C 0.0036(3) 0.0448(2) -0.0674(2)
C14A C 0.1055(3) 0.1393(2) -0.1286(2)
H11A H 0.1745 0.1449 -0.0842
C15A C 0.1082(3) 0.2252(2) -0.2525(2)
H12A H 0.1787 0.2892 -0.2924
C16A C -0.0295(3) -0.4030(2) -0.2747(2)
H13A H -0.0026 -0.3366 -0.3563
C17A C 0.0126(3) -0.4015(2) -0.1744(2)
H14A H 0.0680 -0.3331 -0.1874
C18A C -0.0246(3) -0.4984(2) -0.0543(2)
C19A C -0.1112(3) -0.5936(3) -0.0400(2)
H15A H -0.1418 -0.6599 0.0408
C20A C -0.1523(3) -0.5919(3) -0.1416(2)
H16A H -0.2118 -0.6568 -0.1307
Sb1 Sb -0.44299(2) -0.242680(19) 0.979268(16)
F1 F -0.4853(3) -0.4123(3) 1.0932(2)
F2 F -0.6438(2) -0.1954(3) 0.9460(2)
F3 F -0.2427(2) -0.2871(2) 1.0121(2)
F4 F -0.3941(3) -0.0757(2) 0.8614(2)
F5 F -0.3840(3) -0.3007(3) 0.8517(2)
F6 F -0.4815(18) -0.1620(10) 1.0921(12)
F7? F -0.520(2) -0.2117(10) 1.1184(12)
loop_
_geom_bond_atom_site_label_1
_geom_bond_atom_site_label_2
_geom_bond_site_symmetry_1
_geom_bond_site_symmetry_2
Cu1 O1 1_555 1_555
O1 N1 1_555 1_555
O2 N2 1_555 1_555
O3 Cu1 1_555 1_555
O4 Cu1 1_555 1_555
N1 C1 1_555 1_555
N2 C6 1_555 1_555
N3 O3 1_555 1_555
N4 O4 1_555 1_555
C1 H1 1_555 1_555
C2 C1 1_555 1_555
H2 C2 1_555 1_555
C3 C2 1_555 1_555
C4 C3 1_555 1_555
H3 C4 1_555 1_555
C5 N1 1_555 1_555
H4 C5 1_555 1_555
C6 H5 1_555 1_555
C7 C6 1_555 1_555
H6 C7 1_555 1_555
C8 C3 1_555 1_555
C9 C8 1_555 1_555
H7 C9 1_555 1_555
C10 N2 1_555 1_555
H8 C10 1_555 1_555
C11 N3 1_555 1_555
H9 C11 1_555 1_555
C12 C11 1_555 1_555
H10 C12 1_555 1_555
C13 C12 1_555 1_555
C14 C13 1_555 1_555
H11 C14 1_555 1_555
C15 N3 1_555 1_555
H12 C15 1_555 1_555
C16 N4 1_555 1_555
H13 C16 1_555 1_555
C17 C16 1_555 1_555
H14 C17 1_555 1_555
C18 C17 1_555 1_555
C19 C18 1_555 1_555
H15 C19 1_555 1_555
C20 N4 1_555 1_555
H16 C20 1_555 1_555
Sb1 F1 1_555 1_555
F2 Sb1 1_555 1_555
F3 Sb1 1_555 1_555
F4 Sb1 1_555 1_555
F5 Sb1 1_555 1_555
F6 Sb1 1_555 1_555
Cu1_2 O3A 1_555 1_555
Cu1_3 O4A 1_555 1_555
O1A Cu1 1_555 1_555
O2A N2A 1_555 1_555
O3A N3A 1_555 1_555
O3A_2 Cu1 1_555 1_555
O4A N4A 1_555 1_555
O4A_2 Cu1 1_555 1_555
N1A O1A 1_555 1_555
N2A C6A 1_555 1_555
N3A C11A 1_555 1_555
N4A C16A 1_555 1_555
C1A N1A 1_555 1_555
H1A C1A 1_555 1_555
C2A C1A 1_555 1_555
H2A C2A 1_555 1_555
C3A C2A 1_555 1_555
C4A C3A 1_555 1_555
H3A C4A 1_555 1_555
C5A N1A 1_555 1_555
H4A C5A 1_555 1_555
C6A H5A 1_555 1_555
C7A C6A 1_555 1_555
H6A C7A 1_555 1_555
C8A C3A 1_555 1_555
C9A C8A 1_555 1_555
H7A C9A 1_555 1_555
C10A N2A 1_555 1_555
H8A C10A 1_555 1_555
C11A H9A 1_555 1_555
C12A C11A 1_555 1_555
H10A C12A 1_555 1_555
C13A C13 1_555 1_555
C14A C13A 1_555 1_555
H11A C14A 1_555 1_555
C15A N3A 1_555 1_555
H12A C15A 1_555 1_555
C16A H13A 1_555 1_555
C17A C16A 1_555 1_555
H14A C17A 1_555 1_555
C18A C18 1_555 1_555
C19A C18A 1_555 1_555
H15A C19A 1_555 1_555
C20A N4A 1_555 1_555
H16A C20A 1_555 1_555
C4 C5 1_555 1_555
C7 C8 1_555 1_555
C9 C10 1_555 1_555
C14 C15 1_555 1_555
C19 C20 1_555 1_555
C4A C5A 1_555 1_555
C7A C8A 1_555 1_555
C9A C10A 1_555 1_555
C12A C13A 1_555 1_555
C14A C15A 1_555 1_555
C17A C18A 1_555 1_555
C19A C20A 1_555 1_555

#END
