
#######################################################################
#
#                 Cambridge Crystallographic Data Centre
#                                CCDC 
#
#######################################################################
#
# If this CIF has been generated from an entry in the Cambridge 
# Structural Database, then it will include bibliographic, chemical, 
# crystal, experimental, refinement or atomic coordinate data resulting 
# from the CCDC's data processing and validation procedures.
#
#######################################################################

data_XOHRIW
_symmetry_cell_setting           monoclinic
_symmetry_space_group_name_H-M   'C 2/c'
_symmetry_Int_Tables_number      15
_space_group_name_Hall           '-C 2yn'
loop_
_symmetry_equiv_pos_site_id
_symmetry_equiv_pos_as_xyz
1 x,y,z
2 1/2+x,1/2+y,z
3 -x,y,1/2-z
4 1/2-x,1/2+y,1/2-z
5 -x,-y,-z
6 1/2-x,1/2-y,-z
7 x,-y,1/2+z
8 1/2+x,1/2-y,1/2+z
_cell_length_a                   19.569(2)
_cell_length_b                   13.306(2)
_cell_length_c                   13.617(2)
_cell_angle_alpha                90
_cell_angle_beta                 128.647(2)
_cell_angle_gamma                90
_cell_volume                     2769.19
loop_
_atom_site_label
_atom_site_type_symbol
_atom_site_fract_x
_atom_site_fract_y
_atom_site_fract_z
Cu1 Cu 0.5000 0.5000 0.5000
O1 O 0.61778(12) 0.54940(17) 0.62603(18)
O2 O 0.51203(12) 0.52641(17) 0.37203(18)
N1 N 0.65065(15) 0.59852(19) 0.7318(2)
N2 N 0.57784(15) 0.58883(19) 0.4075(2)
C1 C 0.60080(19) 0.6587(2) 0.7431(3)
H1 H 0.5426 0.6600 0.6770
C2 C 0.63876(17) 0.7181(2) 0.8481(3)
H2 H 0.6037 0.7600 0.8546
C3 C 0.72913(17) 0.7163(2) 0.9452(2)
C4 C 0.77674(18) 0.6480(2) 0.9315(3)
H3 H 0.8366 0.6413 0.9957
C5 C 0.73719(18) 0.5905(2) 0.8254(3)
H4 H 0.7703 0.5458 0.8181
C6 C 0.65681(19) 0.5494(2) 0.4566(3)
H5 H 0.6651 0.4802 0.4655
C7 C 0.72484(19) 0.6119(2) 0.4934(3)
H6 H 0.7791 0.5844 0.5267
C8 C 0.71406(17) 0.7154(2) 0.4819(2)
C9 C 0.63162(19) 0.7524(2) 0.4337(3)
H7 H 0.6216 0.8214 0.4258
C10 C 0.56560(19) 0.6873(2) 0.3983(3)
H8 H 0.5112 0.7127 0.3671
O3 O 0.58135(15) 0.32453(18) 0.5488(2)
H9 H 0.568(2) 0.2638(10) 0.534(3)
C11 C 0.6589(2) 0.3215(3) 0.6781(3)
H10 H 0.7076 0.3471 0.6849
H11 H 0.6706 0.2534 0.7078
H12 H 0.6504 0.3620 0.7280
Cu1A Cu 1.0000 1.0000 1.5000
Cu1A_2 Cu 1.0000 1.0000 0.5000
O1E O 0.88222(12) 0.95060(17) 1.37397(18)
O1D O 0.38222(12) 0.45060(17) 0.37397(18)
O2E O 0.98797(12) 0.97359(17) 0.62797(18)
O2D O 0.48797(12) 0.47359(17) 0.62797(18)
N1E N 0.84935(15) 0.90148(19) 1.2682(2)
N2E N 0.92216(15) 0.91117(19) 0.5925(2)
C1E C 0.89920(19) 0.8413(2) 1.2569(3)
H1E H 0.9574 0.8400 1.3230
C2E C 0.86124(17) 0.7819(2) 1.1519(3)
H2E H 0.8963 0.7400 1.1454
C3E C 0.77087(17) 0.7837(2) 1.0548(2)
C4E C 0.72326(18) 0.8520(2) 1.0685(3)
H3E H 0.6634 0.8587 1.0043
C5E C 0.76281(18) 0.9095(2) 1.1746(3)
H4E H 0.7297 0.9542 1.1819
C6E C 0.84319(19) 0.9506(2) 0.5434(3)
H5E H 0.8349 1.0198 0.5345
C7E C 0.77516(19) 0.8881(2) 0.5066(3)
H6E H 0.7209 0.9156 0.4733
C8E C 0.78594(17) 0.7846(2) 0.5181(2)
C9E C 0.86838(19) 0.7476(2) 0.5663(3)
H7E H 0.8784 0.6786 0.5742
C10E C 0.93440(19) 0.8127(2) 0.6017(3)
H8E H 0.9888 0.7873 0.6329
O3D O 0.41865(15) 0.67547(18) 0.4512(2)
H9D H 0.432(2) 0.7362(10) 0.466(3)
C11D C 0.3411(2) 0.6785(3) 0.3219(3)
H10D H 0.2924 0.6529 0.3151
H11D H 0.3294 0.7466 0.2922
H12D H 0.3496 0.6380 0.2720
Zr1 Zr 0.460774(17) 0.01272(2) 0.34114(2)
F1 F 0.57210(10) 0.00212(13) 0.34299(14)
F2 F 0.42840(10) 0.01510(13) 0.46503(14)
F3 F 0.44655(11) -0.13362(14) 0.33022(17)
F4 F 0.33735(10) 0.04911(15) 0.22783(15)
F5 F 0.50098(11) 0.15494(13) 0.38198(16)
Zr1B Zr 0.539226(17) 0.01272(2) 0.15886(2)
Zr1D Zr 0.539226(17) -0.01272(2) 0.65886(2)
F1B F 0.42790(10) 0.00212(13) 0.15701(14)
F2D F 0.57160(10) -0.01510(13) 0.53497(14)
F2B F 0.57160(10) 0.01510(13) 0.03497(14)
F2F F 0.42840(10) -0.01510(13) -0.03497(14)
F3B F 0.55345(11) -0.13362(14) 0.16978(17)
F4B F 0.66265(10) 0.04911(15) 0.27217(15)
F5B F 0.49902(11) 0.15494(13) 0.11802(16)
loop_
_geom_bond_atom_site_label_1
_geom_bond_atom_site_label_2
_geom_bond_site_symmetry_1
_geom_bond_site_symmetry_2
Cu1 O1 1_555 1_555
O1 N1 1_555 1_555
O2 Cu1 1_555 1_555
N1 C1 1_555 1_555
N2 O2 1_555 1_555
C1 H1 1_555 1_555
C2 C1 1_555 1_555
H2 C2 1_555 1_555
C3 C2 1_555 1_555
C4 C3 1_555 1_555
H3 C4 1_555 1_555
C5 N1 1_555 1_555
H4 C5 1_555 1_555
C6 N2 1_555 1_555
H5 C6 1_555 1_555
C7 C6 1_555 1_555
H6 C7 1_555 1_555
C8 C7 1_555 1_555
C9 C8 1_555 1_555
H7 C9 1_555 1_555
C10 N2 1_555 1_555
H8 C10 1_555 1_555
Zr1 F1 1_555 1_555
F1 Zr1B 1_555 1_555
F2 Zr1 1_555 1_555
F3 Zr1 1_555 1_555
F4 Zr1 1_555 1_555
F5 Zr1 1_555 1_555
O3 Cu1 1_555 1_555
H9 O3 1_555 1_555
C11 O3 1_555 1_555
H10 C11 1_555 1_555
H11 C11 1_555 1_555
H12 C11 1_555 1_555
Cu1A O1E 1_555 1_555
Cu1A_2 O2E 1_555 1_555
O1E N1E 1_555 1_555
O1D Cu1 1_555 1_555
O2E N2E 1_555 1_555
O2D Cu1 1_555 1_555
N1E C1E 1_555 1_555
N2E C6E 1_555 1_555
C1E H1E 1_555 1_555
C2E C1E 1_555 1_555
H2E C2E 1_555 1_555
C3E C3 1_555 1_555
C4E C3E 1_555 1_555
H3E C4E 1_555 1_555
C5E N1E 1_555 1_555
H4E C5E 1_555 1_555
C6E H5E 1_555 1_555
C7E C6E 1_555 1_555
H6E C7E 1_555 1_555
C8E C8 1_555 1_555
C9E C8E 1_555 1_555
H7E C9E 1_555 1_555
C10E N2E 1_555 1_555
H8E C10E 1_555 1_555
Zr1B F1B 1_555 1_555
Zr1D F2 1_555 1_555
F1B Zr1 1_555 1_555
F2D Zr1 1_555 1_555
F2B Zr1B 1_555 1_555
F2F Zr1B 1_555 1_555
F3B Zr1B 1_555 1_555
F4B Zr1B 1_555 1_555
F5B Zr1B 1_555 1_555
O3D Cu1 1_555 1_555
H9D O3D 1_555 1_555
C11D O3D 1_555 1_555
H10D C11D 1_555 1_555
H11D C11D 1_555 1_555
H12D C11D 1_555 1_555
C4 C5 1_555 1_555
C9 C10 1_555 1_555
C2E C3E 1_555 1_555
C4E C5E 1_555 1_555
C7E C8E 1_555 1_555
C9E C10E 1_555 1_555
Zr1D F2D 1_555 1_555

#END
