
#######################################################################
#
#                 Cambridge Crystallographic Data Centre
#                                CCDC 
#
#######################################################################
#
# If this CIF has been generated from an entry in the Cambridge 
# Structural Database, then it will include bibliographic, chemical, 
# crystal, experimental, refinement or atomic coordinate data resulting 
# from the CCDC's data processing and validation procedures.
#
#######################################################################

data_XOHRAO
_symmetry_cell_setting           monoclinic
_symmetry_space_group_name_H-M   'P 21/c'
_symmetry_Int_Tables_number      14
_space_group_name_Hall           '-P 2ybc'
loop_
_symmetry_equiv_pos_site_id
_symmetry_equiv_pos_as_xyz
1 x,y,z
2 -x,1/2+y,1/2-z
3 -x,-y,-z
4 x,1/2-y,1/2+z
_cell_length_a                   8.3593(8)
_cell_length_b                   12.3297(11)
_cell_length_c                   15.0316(14)
_cell_angle_alpha                90
_cell_angle_beta                 100.566(2)
_cell_angle_gamma                90
_cell_volume                     1523
loop_
_atom_site_label
_atom_site_type_symbol
_atom_site_fract_x
_atom_site_fract_y
_atom_site_fract_z
Cu1 Cu 0.0000 0.5000 0.0000
O1 O 0.23314(12) 0.53925(9) 0.02231(8)
O2 O 1.06650(14) 0.09940(10) 0.37380(8)
O3 O 0.04168(13) 0.37844(8) 0.08662(7)
N1 N 0.35632(15) 0.47568(10) 0.06075(8)
N2 N 0.96433(15) 0.15630(11) 0.31464(9)
N3 N 0.02382(15) 0.27419(10) 0.06386(8)
C1 C 0.36947(17) 0.37268(12) 0.03261(10)
H1 H 0.2916 0.3445 -0.0159
C2 C 0.49641(18) 0.30844(12) 0.07448(10)
H2 H 0.5041 0.2355 0.0554
C3 C 0.61371(17) 0.34964(12) 0.14467(10)
C4 C 0.60125(18) 0.45912(13) 0.16631(10)
H3 H 0.6832 0.4915 0.2105
C5 C 0.47189(18) 0.52053(12) 0.12451(10)
H4 H 0.4639 0.5946 0.1405
C6 C 0.99484(18) 0.26272(13) 0.30237(10)
H5 H 1.0928 0.2942 0.3337
C7 C 0.88538(18) 0.32560(12) 0.24497(10)
H6 H 0.9083 0.4001 0.2373
C8 C 0.74058(17) 0.28083(12) 0.19778(10)
C9 C 0.71777(19) 0.16931(12) 0.20796(10)
H7 H 0.6241 0.1350 0.1742
C10 C 0.82949(19) 0.10868(13) 0.26628(11)
H8 H 0.8121 0.0332 0.2727
C11 C -0.10624(18) 0.23856(12) 0.00407(10)
H9 H -0.1895 0.2879 -0.0212
C12 C -0.11842(18) 0.13079(12) -0.02023(10)
H10 H -0.2109 0.1063 -0.0618
C13 C 0.00320(17) 0.05699(12) 0.01531(10)
C14 C 0.13089(18) 0.09619(12) 0.08085(10)
H11 H 0.2135 0.0479 0.1089
C15 C 0.13816(18) 0.20390(12) 0.10510(10)
H12 H 0.2238 0.2290 0.1510
Cu1C Cu 1.0000 0.0000 0.5000
Cu1_2 Cu 0.0000 -0.5000 0.0000
Cu1C_2 Cu -1.0000 0.0000 -0.5000
O1C O -0.76686(12) -0.03925(9) -0.47769(8)
O1B O -0.23314(12) 0.46075(9) -0.02231(8)
O2C O 0.06650(14) 0.40060(10) -0.12620(8)
O2A O -0.06650(14) 0.59940(10) 0.12620(8)
O3B O -0.04168(13) -0.37844(8) -0.08662(7)
O3B_2 O -0.04168(13) 0.62156(8) -0.08662(7)
N1C N -0.64368(15) 0.02432(10) -0.43925(8)
N2C N -0.03567(15) 0.34370(11) -0.18536(9)
N3B N -0.02382(15) -0.27419(10) -0.06386(8)
C1C C -0.63053(17) 0.12732(12) -0.46739(10)
H1C H -0.7084 0.1555 -0.5159
C2C C -0.50359(18) 0.19156(12) -0.42552(10)
H2C H -0.4959 0.2645 -0.4446
C3C C -0.38629(17) 0.15036(12) -0.35533(10)
C4C C -0.39875(18) 0.04088(13) -0.33369(10)
H3C H -0.3168 0.0085 -0.2895
C5C C -0.52811(18) -0.02053(12) -0.37549(10)
H4C H -0.5361 -0.0946 -0.3595
C6C C -0.00516(18) 0.23728(13) -0.19763(10)
H5C H 0.0928 0.2058 -0.1663
C7C C -0.11462(18) 0.17440(12) -0.25503(10)
H6C H -0.0917 0.0999 -0.2627
C8C C -0.25942(17) 0.21917(12) -0.30222(10)
C9C C -0.28223(19) 0.33069(12) -0.29204(10)
H7C H -0.3759 0.3650 -0.3258
C10C C -0.17051(19) 0.39132(13) -0.23372(11)
H8C H -0.1879 0.4668 -0.2273
C11B C 0.10624(18) -0.23856(12) -0.00407(10)
H9B H 0.1895 -0.2879 0.0212
C12B C 0.11842(18) -0.13079(12) 0.02023(10)
H10B H 0.2109 -0.1063 0.0618
C13B C -0.00320(17) -0.05699(12) -0.01531(10)
C14B C -0.13089(18) -0.09619(12) -0.08085(10)
H11B H -0.2135 -0.0479 -0.1089
C15B C -0.13816(18) -0.20390(12) -0.10510(10)
H12B H -0.2238 -0.2290 -0.1510
B1 B 0.5679(2) 0.86652(15) 0.14408(12)
F1 F 0.45776(14) 0.78074(9) 0.12860(9)
F2 F 0.66454(13) 0.85726(10) 0.22947(7)
F3 F 0.66606(13) 0.86480(10) 0.07924(7)
F4 F 0.47936(12) 0.96301(9) 0.13929(7)
loop_
_geom_bond_atom_site_label_1
_geom_bond_atom_site_label_2
_geom_bond_site_symmetry_1
_geom_bond_site_symmetry_2
Cu1 O1 1_555 1_555
O1 N1 1_555 1_555
O2 N2 1_555 1_555
O3 Cu1 1_555 1_555
N1 C1 1_555 1_555
N2 C6 1_555 1_555
N3 O3 1_555 1_555
C1 H1 1_555 1_555
C2 C1 1_555 1_555
H2 C2 1_555 1_555
C3 C2 1_555 1_555
C4 C3 1_555 1_555
H3 C4 1_555 1_555
C5 N1 1_555 1_555
H4 C5 1_555 1_555
C6 H5 1_555 1_555
C7 C6 1_555 1_555
H6 C7 1_555 1_555
C8 C3 1_555 1_555
C9 C8 1_555 1_555
H7 C9 1_555 1_555
C10 N2 1_555 1_555
H8 C10 1_555 1_555
C11 N3 1_555 1_555
H9 C11 1_555 1_555
C12 C11 1_555 1_555
H10 C12 1_555 1_555
C13 C12 1_555 1_555
C14 C13 1_555 1_555
H11 C14 1_555 1_555
C15 N3 1_555 1_555
H12 C15 1_555 1_555
B1 F1 1_555 1_555
F2 B1 1_555 1_555
F3 B1 1_555 1_555
F4 B1 1_555 1_555
Cu1C O2 1_555 1_555
Cu1_2 O3B 1_555 1_555
Cu1C_2 O1C 1_555 1_555
O1C N1C 1_555 1_555
O1B Cu1 1_555 1_555
O2C Cu1 1_555 1_555
O2A Cu1 1_555 1_555
O3B N3B 1_555 1_555
O3B_2 Cu1 1_555 1_555
N1C C1C 1_555 1_555
N2C O2C 1_555 1_555
N3B C11B 1_555 1_555
C1C H1C 1_555 1_555
C2C C1C 1_555 1_555
H2C C2C 1_555 1_555
C3C C2C 1_555 1_555
C4C C3C 1_555 1_555
H3C C4C 1_555 1_555
C5C N1C 1_555 1_555
H4C C5C 1_555 1_555
C6C N2C 1_555 1_555
H5C C6C 1_555 1_555
C7C C6C 1_555 1_555
H6C C7C 1_555 1_555
C8C C3C 1_555 1_555
C9C C8C 1_555 1_555
H7C C9C 1_555 1_555
C10C N2C 1_555 1_555
H8C C10C 1_555 1_555
C11B H9B 1_555 1_555
C12B C11B 1_555 1_555
H10B C12B 1_555 1_555
C13B C13 1_555 1_555
C14B C13B 1_555 1_555
H11B C14B 1_555 1_555
C15B N3B 1_555 1_555
H12B C15B 1_555 1_555
C4 C5 1_555 1_555
C7 C8 1_555 1_555
C9 C10 1_555 1_555
C14 C15 1_555 1_555
C4C C5C 1_555 1_555
C7C C8C 1_555 1_555
C9C C10C 1_555 1_555
C12B C13B 1_555 1_555
C14B C15B 1_555 1_555

#END
