
#######################################################################
#
#                 Cambridge Crystallographic Data Centre
#                                CCDC 
#
#######################################################################
#
# If this CIF has been generated from an entry in the Cambridge 
# Structural Database, then it will include bibliographic, chemical, 
# crystal, experimental, refinement or atomic coordinate data resulting 
# from the CCDC's data processing and validation procedures.
#
#######################################################################

data_XOHROC
_symmetry_cell_setting           triclinic
_symmetry_space_group_name_H-M   'P -1'
_symmetry_Int_Tables_number      2
_space_group_name_Hall           '-P 1'
loop_
_symmetry_equiv_pos_site_id
_symmetry_equiv_pos_as_xyz
1 x,y,z
2 -x,-y,-z
_cell_length_a                   8.719(1)
_cell_length_b                   11.616(2)
_cell_length_c                   12.137(2)
_cell_angle_alpha                62.571(2)
_cell_angle_beta                 76.607(2)
_cell_angle_gamma                76.515(2)
_cell_volume                     1049.92
loop_
_atom_site_label
_atom_site_type_symbol
_atom_site_fract_x
_atom_site_fract_y
_atom_site_fract_z
Cu1 Cu 0.5000 0.5000 0.0000
O1 O 0.2759(2) 0.52164(17) -0.09040(17)
O2 O -0.3868(3) -0.1373(2) 0.1311(3)
O3 O 0.6562(2) 0.50896(18) -0.14741(16)
O4 O 0.5236(2) 0.30553(16) 0.06059(15)
N1 N 0.1822(3) 0.4340(2) -0.06025(19)
N2 N -0.2957(3) -0.0496(2) 0.0994(2)
N3 N 0.6154(2) 0.5013(2) -0.24346(19)
N4 N 0.5188(3) 0.22182(19) 0.18159(19)
C1 C 0.1418(3) 0.3520(2) 0.0616(2)
H1 H 0.1774 0.3594 0.1243
C2 C 0.0486(3) 0.2583(3) 0.0927(2)
H2 H 0.0226 0.2024 0.1768
C3 C -0.0084(3) 0.2445(2) 0.0016(2)
C4 C 0.0312(3) 0.3347(3) -0.1225(2)
H3 H -0.0072 0.3320 -0.1866
C5 C 0.1257(3) 0.4270(2) -0.1513(2)
H4 H 0.1511 0.4854 -0.2346
C6 C -0.2078(3) -0.0587(3) 0.1820(3)
H5 H -0.2111 -0.1295 0.2608
C7 C -0.1136(3) 0.0342(3) 0.1521(3)
H6 H -0.0541 0.0253 0.2108
C8 C -0.1059(3) 0.1420(2) 0.0347(3)
C9 C -0.1956(3) 0.1469(3) -0.0488(3)
H7 H -0.1922 0.2157 -0.1288
C10 C -0.2887(3) 0.0528(3) -0.0161(3)
H8 H -0.3479 0.0591 -0.0738
C11 C 0.5352(3) 0.4067(2) -0.2251(2)
H9 H 0.5100 0.3429 -0.1444
C12 C 0.4906(3) 0.4041(2) -0.3244(2)
H10 H 0.4354 0.3382 -0.3108
C13 C 0.5269(3) 0.4992(2) -0.4462(2)
C14 C 0.6173(4) 0.5906(3) -0.4609(2)
H11 H 0.6485 0.6531 -0.5410
C15 C 0.6609(3) 0.5903(3) -0.3596(2)
H12 H 0.7221 0.6517 -0.3711
C16 C 0.4238(3) 0.1286(3) 0.2294(2)
H13 H 0.3638 0.1236 0.1780
C17 C 0.4149(3) 0.0407(3) 0.3541(3)
H14 H 0.3480 -0.0227 0.3864
C18 C 0.5051(3) 0.0456(2) 0.4325(2)
C19 C 0.6067(4) 0.1390(3) 0.3774(3)
H15 H 0.6724 0.1431 0.4255
C20 C 0.6123(3) 0.2261(3) 0.2528(2)
H16 H 0.6813 0.2882 0.2177
Cu1_2 Cu 0.5000 0.5000 -1.0000
Cu1_3 Cu 0.5000 -0.5000 1.0000
O1A O 0.7241(2) 0.47836(17) 0.09040(17)
O2A O 1.3868(3) 1.1373(2) -0.1311(3)
O3A O 0.3438(2) 0.49104(18) -0.85259(16)
O3A_2 O 0.3438(2) 0.49104(18) 0.14741(16)
O4A O 0.4764(2) -0.30553(16) 0.93941(15)
O4A_2 O 0.4764(2) 0.69447(16) -0.06059(15)
N1A N 0.8178(3) 0.5660(2) 0.06025(19)
N2A N 1.2957(3) 1.0496(2) -0.0994(2)
N3A N 0.3846(2) 0.4987(2) -0.75654(19)
N4A N 0.4812(3) -0.22182(19) 0.81841(19)
C1A C 0.8582(3) 0.6480(2) -0.0616(2)
H1A H 0.8226 0.6406 -0.1243
C2A C 0.9514(3) 0.7417(3) -0.0927(2)
H2A H 0.9774 0.7976 -0.1768
C3A C 1.0084(3) 0.7555(2) -0.0016(2)
C4A C 0.9688(3) 0.6653(3) 0.1225(2)
H3A H 1.0072 0.6680 0.1866
C5A C 0.8743(3) 0.5730(2) 0.1513(2)
H4A H 0.8489 0.5146 0.2346
C6A C 1.2078(3) 1.0587(3) -0.1820(3)
H5A H 1.2111 1.1295 -0.2608
C7A C 1.1136(3) 0.9658(3) -0.1521(3)
H6A H 1.0541 0.9747 -0.2108
C8A C 1.1059(3) 0.8580(2) -0.0347(3)
C9A C 1.1956(3) 0.8531(3) 0.0488(3)
H7A H 1.1922 0.7843 0.1288
C10A C 1.2887(3) 0.9472(3) 0.0161(3)
H8A H 1.3479 0.9409 0.0738
C11A C 0.4648(3) 0.5933(2) -0.7749(2)
H9A H 0.4900 0.6571 -0.8556
C12A C 0.5094(3) 0.5959(2) -0.6756(2)
H10A H 0.5646 0.6618 -0.6892
C13A C 0.4731(3) 0.5008(2) -0.5538(2)
C14A C 0.3827(4) 0.4094(3) -0.5391(2)
H11A H 0.3515 0.3469 -0.4590
C15A C 0.3391(3) 0.4097(3) -0.6404(2)
H12A H 0.2779 0.3483 -0.6289
C16A C 0.5762(3) -0.1286(3) 0.7706(2)
H13A H 0.6362 -0.1236 0.8220
C17A C 0.5851(3) -0.0407(3) 0.6459(3)
H14A H 0.6520 0.0227 0.6136
C18A C 0.4949(3) -0.0456(2) 0.5675(2)
C19A C 0.3933(4) -0.1390(3) 0.6226(3)
H15A H 0.3276 -0.1431 0.5745
C20A C 0.3877(3) -0.2261(3) 0.7472(2)
H16A H 0.3187 -0.2882 0.7823
P1 P 0.94200(10) 0.23734(8) 0.51662(8)
F1 F 1.1238(2) 0.1928(2) 0.5384(2)
F2 F 0.7600(3) 0.2804(2) 0.4958(3)
F3 F 0.9007(3) 0.2611(3) 0.6396(2)
F4 F 0.9697(3) 0.3851(2) 0.4366(2)
F5 F 0.9830(4) 0.2145(3) 0.3951(3)
F6 F 0.9120(3) 0.0902(2) 0.6002(3)
loop_
_geom_bond_atom_site_label_1
_geom_bond_atom_site_label_2
_geom_bond_site_symmetry_1
_geom_bond_site_symmetry_2
Cu1 O1 1_555 1_555
O1 N1 1_555 1_555
O2 N2 1_555 1_555
O3 Cu1 1_555 1_555
O4 Cu1 1_555 1_555
N1 C1 1_555 1_555
N2 C6 1_555 1_555
N3 O3 1_555 1_555
N4 O4 1_555 1_555
C1 H1 1_555 1_555
C2 C1 1_555 1_555
H2 C2 1_555 1_555
C3 C2 1_555 1_555
C4 C3 1_555 1_555
H3 C4 1_555 1_555
C5 N1 1_555 1_555
H4 C5 1_555 1_555
C6 H5 1_555 1_555
C7 C6 1_555 1_555
H6 C7 1_555 1_555
C8 C3 1_555 1_555
C9 C8 1_555 1_555
H7 C9 1_555 1_555
C10 N2 1_555 1_555
H8 C10 1_555 1_555
C11 N3 1_555 1_555
H9 C11 1_555 1_555
C12 C11 1_555 1_555
H10 C12 1_555 1_555
C13 C12 1_555 1_555
C14 C13 1_555 1_555
H11 C14 1_555 1_555
C15 N3 1_555 1_555
H12 C15 1_555 1_555
C16 N4 1_555 1_555
H13 C16 1_555 1_555
C17 C16 1_555 1_555
H14 C17 1_555 1_555
C18 C17 1_555 1_555
C19 C18 1_555 1_555
H15 C19 1_555 1_555
C20 N4 1_555 1_555
H16 C20 1_555 1_555
P1 F1 1_555 1_555
F2 P1 1_555 1_555
F3 P1 1_555 1_555
F4 P1 1_555 1_555
F5 P1 1_555 1_555
F6 P1 1_555 1_555
Cu1_2 O3A 1_555 1_555
Cu1_3 O4A 1_555 1_555
O1A Cu1 1_555 1_555
O2A N2A 1_555 1_555
O3A N3A 1_555 1_555
O3A_2 Cu1 1_555 1_555
O4A N4A 1_555 1_555
O4A_2 Cu1 1_555 1_555
N1A O1A 1_555 1_555
N2A C6A 1_555 1_555
N3A C11A 1_555 1_555
N4A C16A 1_555 1_555
C1A N1A 1_555 1_555
H1A C1A 1_555 1_555
C2A C1A 1_555 1_555
H2A C2A 1_555 1_555
C3A C2A 1_555 1_555
C4A C3A 1_555 1_555
H3A C4A 1_555 1_555
C5A N1A 1_555 1_555
H4A C5A 1_555 1_555
C6A H5A 1_555 1_555
C7A C6A 1_555 1_555
H6A C7A 1_555 1_555
C8A C3A 1_555 1_555
C9A C8A 1_555 1_555
H7A C9A 1_555 1_555
C10A N2A 1_555 1_555
H8A C10A 1_555 1_555
C11A H9A 1_555 1_555
C12A C11A 1_555 1_555
H10A C12A 1_555 1_555
C13A C13 1_555 1_555
C14A C13A 1_555 1_555
H11A C14A 1_555 1_555
C15A N3A 1_555 1_555
H12A C15A 1_555 1_555
C16A H13A 1_555 1_555
C17A C16A 1_555 1_555
H14A C17A 1_555 1_555
C18A C18 1_555 1_555
C19A C18A 1_555 1_555
H15A C19A 1_555 1_555
C20A N4A 1_555 1_555
H16A C20A 1_555 1_555
C4 C5 1_555 1_555
C7 C8 1_555 1_555
C9 C10 1_555 1_555
C14 C15 1_555 1_555
C19 C20 1_555 1_555
C4A C5A 1_555 1_555
C7A C8A 1_555 1_555
C9A C10A 1_555 1_555
C12A C13A 1_555 1_555
C14A C15A 1_555 1_555
C17A C18A 1_555 1_555
C19A C20A 1_555 1_555

#END
