
#######################################################################
#
#                 Cambridge Crystallographic Data Centre
#                                CCDC 
#
#######################################################################
#
# If this CIF has been generated from an entry in the Cambridge 
# Structural Database, then it will include bibliographic, chemical, 
# crystal, experimental, refinement or atomic coordinate data resulting 
# from the CCDC's data processing and validation procedures.
#
#######################################################################

data_XOHTIY
_symmetry_cell_setting           triclinic
_symmetry_space_group_name_H-M   'P -1'
_symmetry_Int_Tables_number      2
_space_group_name_Hall           '-P 1'
loop_
_symmetry_equiv_pos_site_id
_symmetry_equiv_pos_as_xyz
1 x,y,z
2 -x,-y,-z
_cell_length_a                   8.496(2)
_cell_length_b                   9.581(2)
_cell_length_c                   13.225(3)
_cell_angle_alpha                98.988(4)
_cell_angle_beta                 92.752(4)
_cell_angle_gamma                96.294(4)
_cell_volume                     1054.56
loop_
_atom_site_label
_atom_site_type_symbol
_atom_site_fract_x
_atom_site_fract_y
_atom_site_fract_z
Mn1 Mn 0.36351(4) 0.00418(4) 0.31529(3)
O1 O 0.2220(2) -0.12476(19) 0.19357(14)
O2 O 0.1741(2) -0.9009(2) -0.59431(14)
O3 O 0.3407(3) -0.1878(2) 0.39280(17)
O4 O 0.4195(2) -0.8226(2) -0.53887(13)
O5 O 0.0498(3) -0.3633(2) -0.27409(13)
O6 O 0.2915(3) -0.3406(2) 0.19429(15)
N1 N 0.6111(2) -0.0294(2) 0.29388(17)
N2 N 0.3752(3) 0.1782(2) 0.22220(17)
N3 N 0.4297(6) 0.3060(4) 0.0994(3)
H1 H 0.4634 0.3317 0.0440
N4 N 0.8693(3) -0.0031(3) 0.32022(19)
H2 H 0.9628 0.0299 0.3469
C1 C 0.2725(3) -0.8141(3) -0.53565(17)
C2 C 0.2151(3) -0.6954(3) -0.46500(17)
C3 C 0.0559(3) -0.6971(3) -0.4477(2)
H3 H -0.0159 -0.7729 -0.4803
C4 C 0.0015(3) -0.5874(3) -0.3822(2)
H4 H -0.1056 -0.5900 -0.3699
C5 C 0.1077(3) -0.4758(3) -0.33623(18)
C6 C 0.2666(4) -0.4692(3) -0.3533(2)
H5 H 0.3369 -0.3914 -0.3223
C7 C 0.3203(3) -0.5801(3) -0.4174(2)
H6 H 0.4277 -0.5773 -0.4286
C8 C 0.0937(3) -0.3437(3) -0.17039(18)
C9 C 0.1781(3) -0.2851(2) 0.03866(18)
C10 C 0.1835(4) -0.4192(3) -0.0168(2)
H7 H 0.2156 -0.4908 0.0166
C11 C 0.1423(4) -0.4490(3) -0.1212(2)
H8 H 0.1474 -0.5395 -0.1575
C12 C 0.0795(4) -0.2109(3) -0.1160(2)
H9 H 0.0412 -0.1413 -0.1489
C13 C 0.1228(4) -0.1827(3) -0.0120(2)
H10 H 0.1146 -0.0930 0.0246
C14 C 0.2338(3) -0.2497(3) 0.15033(18)
C15 C 0.6742(4) -0.1268(3) 0.2243(3)
H11 H 0.6163 -0.1935 0.1736
C16 C 0.8335(4) -0.1101(4) 0.2414(3)
H12 H 0.9047 -0.1626 0.2054
C17 C 0.7340(3) 0.0427(3) 0.3497(2)
H13 H 0.7273 0.1169 0.4032
C18 C 0.3235(4) 0.3045(3) 0.2420(2)
H14 H 0.2717 0.3347 0.3004
C19 C 0.3530(3) 0.3822(3) 0.1704(2)
H15 H 0.3257 0.4733 0.1691
C20 C 0.4441(5) 0.1797(4) 0.1319(3)
H16 H 0.4936 0.1060 0.0976
H17 H 0.418(5) -0.191(4) 0.430(3)
H18 H 0.333(5) -0.246(5) 0.347(3)
Mn1_2 Mn 0.36351(4) -0.99582(4) -0.68471(3)
O2_2 O 0.1741(2) 0.0991(2) 0.40569(14)
O4_2 O 0.4195(2) 0.1774(2) 0.46113(13)
loop_
_geom_bond_atom_site_label_1
_geom_bond_atom_site_label_2
_geom_bond_site_symmetry_1
_geom_bond_site_symmetry_2
Mn1 O1 1_555 1_555
O1 C14 1_555 1_555
O2 C1 1_555 1_555
O3 Mn1 1_555 1_555
O4 C1 1_555 1_555
O5 C5 1_555 1_555
O6 C14 1_555 1_555
N1 Mn1 1_555 1_555
N2 Mn1 1_555 1_555
N3 H1 1_555 1_555
N4 H2 1_555 1_555
C1 C2 1_555 1_555
C2 C3 1_555 1_555
C3 H3 1_555 1_555
C4 C3 1_555 1_555
H4 C4 1_555 1_555
C5 C4 1_555 1_555
C6 C5 1_555 1_555
H5 C6 1_555 1_555
C7 C2 1_555 1_555
H6 C7 1_555 1_555
C8 O5 1_555 1_555
C9 C10 1_555 1_555
C10 H7 1_555 1_555
C11 C8 1_555 1_555
H8 C11 1_555 1_555
C12 C8 1_555 1_555
H9 C12 1_555 1_555
C13 C9 1_555 1_555
H10 C13 1_555 1_555
C14 C9 1_555 1_555
C15 N1 1_555 1_555
H11 C15 1_555 1_555
C16 N4 1_555 1_555
H12 C16 1_555 1_555
C17 N1 1_555 1_555
H13 C17 1_555 1_555
C18 N2 1_555 1_555
H14 C18 1_555 1_555
C19 N3 1_555 1_555
H15 C19 1_555 1_555
C20 N2 1_555 1_555
H16 C20 1_555 1_555
H17 O3 1_555 1_555
H18 O3 1_555 1_555
Mn1_2 O2 1_555 1_555
O2_2 Mn1 1_555 1_555
O4_2 Mn1 1_555 1_555
O4 Mn1_2 1_555 1_555
N3 C20 1_555 1_555
N4 C17 1_555 1_555
C6 C7 1_555 1_555
C10 C11 1_555 1_555
C12 C13 1_555 1_555
C15 C16 1_555 1_555
C18 C19 1_555 1_555

#END
