
#######################################################################
#
#                 Cambridge Crystallographic Data Centre
#                                CCDC 
#
#######################################################################
#
# If this CIF has been generated from an entry in the Cambridge 
# Structural Database, then it will include bibliographic, chemical, 
# crystal, experimental, refinement or atomic coordinate data resulting 
# from the CCDC's data processing and validation procedures.
#
#######################################################################

data_XOHTOE02
_symmetry_cell_setting           triclinic
_symmetry_space_group_name_H-M   'P -1'
_symmetry_Int_Tables_number      2
_space_group_name_Hall           '-P 1'
loop_
_symmetry_equiv_pos_site_id
_symmetry_equiv_pos_as_xyz
1 x,y,z
2 -x,-y,-z
_cell_length_a                   6.4005(4)
_cell_length_b                   7.3448(5)
_cell_length_c                   10.8755(7)
_cell_angle_alpha                92.227(3)
_cell_angle_beta                 100.872(3)
_cell_angle_gamma                100.015(3)
_cell_volume                     493.075
loop_
_atom_site_label
_atom_site_type_symbol
_atom_site_fract_x
_atom_site_fract_y
_atom_site_fract_z
Mn1 Mn 0.27170(4) 0.62316(3) 1.08114(2)
O1 O 0.3229(2) 0.72159(18) 0.90952(11)
O2 O 0.4787(2) 0.50638(18) 0.83196(12)
O3 O 0.2044(2) 0.34861(17) 0.37984(12)
H1 H 0.176(4) 0.271(3) 0.3061(14)
O4 O 0.1302(2) 0.56762(18) 0.24994(11)
O5 O 0.2336(2) 1.11472(18) 0.82364(13)
O6 O 0.58148(19) 1.10849(16) 0.82658(11)
C1 C 0.3854(3) 0.6428(2) 0.82261(15)
C2 C 0.3357(3) 0.7155(2) 0.69496(15)
C3 C 0.2936(3) 0.5915(2) 0.58931(15)
H2 H 0.3075 0.4658 0.5988
C4 C 0.2314(3) 0.6501(2) 0.46978(15)
C5 C 0.2129(3) 0.8342(2) 0.45592(16)
H3 H 0.1683 0.8744 0.3747
C6 C 0.2593(3) 0.9587(2) 0.56013(16)
H4 H 0.2493 1.0850 0.5498
C7 C 0.3207(2) 0.9016(2) 0.68034(15)
C8 C 0.1841(3) 0.5186(2) 0.35609(15)
C9 C 0.3806(3) 1.0502(2) 0.78785(15)
O7 O 0.0848(2) 0.33500(16) 0.98646(11)
H5 H 0.157(3) 0.301(3) 0.9250(14)
H6 H 0.098(4) 0.259(3) 1.0538(13)
Mn1A Mn 0.72830(4) 0.37684(3) 0.91886(2)
Mn1_2 Mn 0.27170(4) 0.62316(3) 0.08114(2)
Mn1A_2 Mn 0.72830(4) 1.37684(3) 0.91886(2)
Mn1A_3 Mn -0.27170(4) 0.37684(3) 0.91886(2)
O2A O 0.5213(2) 0.49362(18) 1.16804(12)
O4_2 O 0.1302(2) 0.56762(18) 1.24994(11)
O6A O 0.41852(19) 0.89151(16) 1.17342(11)
O7A O -0.0848(2) 0.66500(16) 1.01354(11)
H5A H -0.157(3) 0.699(3) 1.0750(14)
H6A H -0.098(4) 0.741(3) 0.9462(13)
O8 O 0.1315(2) 0.11950(16) 0.18074(12)
H7 H 0.237(2) 0.045(2) 0.181(2)
H8 H -0.0052(18) 0.043(2) 0.177(2)
loop_
_geom_bond_atom_site_label_1
_geom_bond_atom_site_label_2
_geom_bond_site_symmetry_1
_geom_bond_site_symmetry_2
Mn1 O1 1_555 1_555
O1 C1 1_555 1_555
O2 C1 1_555 1_555
O3 H1 1_555 1_555
O4 C8 1_555 1_555
O5 C9 1_555 1_555
O6 C9 1_555 1_555
C1 C2 1_555 1_555
C2 C3 1_555 1_555
C3 H2 1_555 1_555
C4 C3 1_555 1_555
C5 C4 1_555 1_555
H3 C5 1_555 1_555
C6 C5 1_555 1_555
H4 C6 1_555 1_555
C7 C2 1_555 1_555
C8 O3 1_555 1_555
C9 C7 1_555 1_555
O7 Mn1 1_555 1_555
H5 O7 1_555 1_555
H6 O7 1_555 1_555
O8 H7 1_555 1_555
H8 O8 1_555 1_555
Mn1A O2 1_555 1_555
Mn1_2 O4 1_555 1_555
Mn1A_2 O6 1_555 1_555
Mn1A_3 O7 1_555 1_555
O2A Mn1 1_555 1_555
O4_2 Mn1 1_555 1_555
O6A Mn1 1_555 1_555
O7A Mn1 1_555 1_555
H5A O7A 1_555 1_555
H6A O7A 1_555 1_555
C4 C8 1_555 1_555
C6 C7 1_555 1_555
Mn1A_3 O7A 1_555 1_555

#END
