
#######################################################################
#
#                 Cambridge Crystallographic Data Centre
#                                CCDC 
#
#######################################################################
#
# If this CIF has been generated from an entry in the Cambridge 
# Structural Database, then it will include bibliographic, chemical, 
# crystal, experimental, refinement or atomic coordinate data resulting 
# from the CCDC's data processing and validation procedures.
#
#######################################################################

data_XOJJUC
_symmetry_cell_setting           monoclinic
_symmetry_space_group_name_H-M   'P 2/n'
_symmetry_Int_Tables_number      13
_space_group_name_Hall           '-P 2yac'
loop_
_symmetry_equiv_pos_site_id
_symmetry_equiv_pos_as_xyz
1 x,y,z
2 1/2-x,y,1/2-z
3 -x,-y,-z
4 1/2+x,-y,1/2+z
_cell_length_a                   10.1013(8)
_cell_length_b                   11.6466(9)
_cell_length_c                   21.4740(16)
_cell_angle_alpha                90
_cell_angle_beta                 98.2220(10)
_cell_angle_gamma                90
_cell_volume                     2500.36
loop_
_atom_site_label
_atom_site_type_symbol
_atom_site_fract_x
_atom_site_fract_y
_atom_site_fract_z
Mn1 Mn 0.2500 0.23074(4) 0.2500
Mn2 Mn -0.2500 0.32899(5) 0.2500
O1 O 0.0440(2) 0.24099(16) 0.20657(9)
O2 O -0.1328(2) 0.35091(19) 0.17530(11)
O3 O 0.3450(2) 0.21455(17) 0.16221(9)
O4 O 0.4350(3) 0.1030(3) 0.09589(15)
O5 O -0.4164(2) 0.32772(19) 0.17269(12)
H1 H -0.3875 0.3380 0.1393
H2 H -0.4893 0.2924 0.1679
N1 N 0.1751(3) 0.3268(3) 0.03372(13)
N2 N -0.0346(3) 0.1211(3) 0.07022(13)
N3 N 0.2500 0.4278(3) 0.2500
N4 N 0.2500 1.0370(3) 0.2500
N5 N -0.2500 0.5262(3) 0.2500
N6 N -0.2500 1.1354(3) 0.2500
C1 C 0.1860(4) 0.4404(4) 0.02792(18)
H11 H 0.2362 0.4681 -0.0019
C2 C 0.1282(4) 0.5182(3) 0.06303(19)
H12 H 0.1370 0.5965 0.0564
C3 C 0.0561(3) 0.4783(3) 0.10871(16)
H13 H 0.0146 0.5293 0.1331
C4 C 0.0468(3) 0.3606(3) 0.11739(13)
C5 C 0.1059(3) 0.2876(3) 0.07866(13)
C6 C -0.0190(3) 0.3129(2) 0.17051(13)
C7 C 0.0907(3) 0.1611(3) 0.08291(13)
C8 C 0.2011(3) 0.0898(3) 0.09741(14)
C9 C 0.1799(5) -0.0283(3) 0.09565(16)
H14 H 0.2517 -0.0788 0.1031
C10 C 0.0514(5) -0.0688(4) 0.08265(18)
H15 H 0.0346 -0.1474 0.0816
C11 C -0.0520(5) 0.0083(4) 0.07125(18)
H16 H -0.1389 -0.0201 0.0639
C12 C 0.3377(3) 0.1381(3) 0.11932(15)
C13 C 0.3342(3) 0.4882(2) 0.21998(15)
H17 H 0.3933 0.4482 0.1985
C14 C 0.3380(3) 0.6070(2) 0.21910(16)
H18 H 0.3992 0.6450 0.1979
C15 C 0.2500 0.6686(3) 0.2500
C16 C 0.2500 0.7966(3) 0.2500
C17 C 0.3669(3) 0.8589(2) 0.24873(15)
H19 H 0.4475 0.8210 0.2475
C18 C 0.3628(3) 0.9771(2) 0.24935(14)
H20 H 0.4424 1.0172 0.2493
C19 C -0.2564(4) 0.5862(3) 0.19746(17)
H21 H -0.2605 0.5463 0.1597
C20 C -0.2574(4) 0.7051(3) 0.19530(16)
H22 H -0.2630 0.7428 0.1568
C21 C -0.2500 0.7672(3) 0.2500
C22 C -0.2500 0.8950(3) 0.2500
C23 C -0.2806(4) 0.9573(3) 0.19532(16)
H23 H -0.3004 0.9195 0.1570
C24 C -0.2818(4) 1.0746(3) 0.19724(16)
H24 H -0.3062 1.1143 0.1598
Mn1_2 Mn 0.2500 1.23074(4) 0.2500
Mn2_2 Mn -0.2500 1.32899(5) 0.2500
Mn2_3 Mn 0.7500 0.32899(5) 0.2500
O1A O 0.4560(2) 0.24099(16) 0.29343(9)
O2A O 0.6328(2) 0.35091(19) 0.32470(11)
O2A_2 O -0.3672(2) 0.35091(19) 0.32470(11)
O3A O 0.1550(2) 0.21455(17) 0.33779(9)
O4A O 0.0650(3) 0.1030(3) 0.40411(15)
O5A O -0.0836(2) 0.32772(19) 0.32731(12)
H1A H -0.1125 0.3380 0.3607
H2A H -0.0107 0.2924 0.3321
N1A N 0.3249(3) 0.3268(3) 0.46628(13)
N2A N 0.5346(3) 0.1211(3) 0.42978(13)
N4_2 N 0.2500 0.0370(3) 0.2500
N6_2 N -0.2500 0.1354(3) 0.2500
C1A C 0.3140(4) 0.4404(4) 0.47208(18)
H11A H 0.2638 0.4681 0.5019
C2A C 0.3718(4) 0.5182(3) 0.43697(19)
H12A H 0.3630 0.5965 0.4436
C3A C 0.4439(3) 0.4783(3) 0.39129(16)
H13A H 0.4854 0.5293 0.3669
C4A C 0.4532(3) 0.3606(3) 0.38261(13)
C5A C 0.3941(3) 0.2876(3) 0.42134(13)
C6A C 0.5190(3) 0.3129(2) 0.32949(13)
C7A C 0.4093(3) 0.1611(3) 0.41709(13)
C8A C 0.2989(3) 0.0898(3) 0.40259(14)
C9A C 0.3201(5) -0.0283(3) 0.40435(16)
H14A H 0.2483 -0.0788 0.3969
C10A C 0.4486(5) -0.0688(4) 0.41735(18)
H15A H 0.4654 -0.1474 0.4184
C11A C 0.5520(5) 0.0083(4) 0.42875(18)
H16A H 0.6389 -0.0201 0.4361
C12A C 0.1623(3) 0.1381(3) 0.38068(15)
C13A C 0.1658(3) 0.4882(2) 0.28002(15)
H17A H 0.1067 0.4482 0.3015
C14A C 0.1620(3) 0.6070(2) 0.28090(16)
H18A H 0.1008 0.6450 0.3021
C17A C 0.1331(3) 0.8589(2) 0.25127(15)
H19A H 0.0525 0.8210 0.2525
C18A C 0.1372(3) 0.9771(2) 0.25065(14)
H20A H 0.0576 1.0172 0.2507
C19A C -0.2436(4) 0.5862(3) 0.30254(17)
H21A H -0.2395 0.5463 0.3403
C20A C -0.2426(4) 0.7051(3) 0.30470(16)
H22A H -0.2370 0.7428 0.3432
C23A C -0.2194(4) 0.9573(3) 0.30468(16)
H23A H -0.1996 0.9195 0.3430
C24A C -0.2182(4) 1.0746(3) 0.30276(16)
H24A H -0.1938 1.1143 0.3402
O6 O 0.5589(10) 0.4413(10) 0.0622(4)
H3 H 0.6058 0.3861 0.0823
H4 H 0.5270 0.4733 0.0277
O7 O 0.7201(6) 0.2462(5) 0.0292(4)
H5 H 0.8051 0.2377 0.0366
H6 H 0.6886 0.1783 0.0321
O8 O 0.5480(9) 0.3120(12) 0.9268(5)
H7 H 0.6242 0.2836 0.9406
H8 H 0.5166 0.3370 0.9589
O9 O 0.3183(4) 0.1967(4) 0.95185(16)
H9 H 0.3883 0.2314 0.9443
H10 H 0.2833 0.2391 0.9774
O10 O 0.6024(4) 0.0435(3) 0.00955(16)
H25 H 0.5792 -0.0091 0.0363
H26 H 0.6088 -0.0022 -0.0230
loop_
_geom_bond_atom_site_label_1
_geom_bond_atom_site_label_2
_geom_bond_site_symmetry_1
_geom_bond_site_symmetry_2
Mn1 O1 1_555 1_555
Mn2 O2 1_555 1_555
O1 C6 1_555 1_555
O2 C6 1_555 1_555
O3 Mn1 1_555 1_555
O4 C12 1_555 1_555
O5 Mn2 1_555 1_555
H1 O5 1_555 1_555
H2 O5 1_555 1_555
O6 H3 1_555 1_555
H4 O6 1_555 1_555
O7 H5 1_555 1_555
H6 O7 1_555 1_555
O8 H7 1_555 1_555
H8 O8 1_555 1_555
O9 H9 1_555 1_555
H10 O9 1_555 1_555
N1 C1 1_555 1_555
N2 C7 1_555 1_555
N3 Mn1 1_555 1_555
N4 C18 1_555 1_555
N5 Mn2 1_555 1_555
N6 C24 1_555 1_555
C1 H11 1_555 1_555
C2 C1 1_555 1_555
H12 C2 1_555 1_555
C3 C2 1_555 1_555
H13 C3 1_555 1_555
C4 C3 1_555 1_555
C5 N1 1_555 1_555
C6 C4 1_555 1_555
C7 C5 1_555 1_555
C8 C7 1_555 1_555
C9 C8 1_555 1_555
H14 C9 1_555 1_555
C10 C9 1_555 1_555
H15 C10 1_555 1_555
C11 N2 1_555 1_555
H16 C11 1_555 1_555
C12 O3 1_555 1_555
C13 N3 1_555 1_555
H17 C13 1_555 1_555
C14 C13 1_555 1_555
H18 C14 1_555 1_555
C15 C14 1_555 1_555
C16 C15 1_555 1_555
C17 C16 1_555 1_555
H19 C17 1_555 1_555
C18 C17 1_555 1_555
H20 C18 1_555 1_555
C19 N5 1_555 1_555
H21 C19 1_555 1_555
C20 C19 1_555 1_555
H22 C20 1_555 1_555
C21 C20 1_555 1_555
C22 C21 1_555 1_555
C23 C22 1_555 1_555
H23 C23 1_555 1_555
C24 C23 1_555 1_555
H24 C24 1_555 1_555
O10 H25 1_555 1_555
H26 O10 1_555 1_555
Mn1_2 N4 1_555 1_555
Mn2_2 N6 1_555 1_555
Mn2_3 O2A 1_555 1_555
O1A Mn1 1_555 1_555
O2A C6A 1_555 1_555
O2A_2 Mn2 1_555 1_555
O3A Mn1 1_555 1_555
O4A C12A 1_555 1_555
O5A Mn2 1_555 1_555
H1A O5A 1_555 1_555
H2A O5A 1_555 1_555
N1A C1A 1_555 1_555
N2A C7A 1_555 1_555
N4_2 Mn1 1_555 1_555
N6_2 Mn2 1_555 1_555
C1A H11A 1_555 1_555
C2A C1A 1_555 1_555
H12A C2A 1_555 1_555
C3A C2A 1_555 1_555
H13A C3A 1_555 1_555
C4A C3A 1_555 1_555
C5A N1A 1_555 1_555
C6A O1A 1_555 1_555
C7A C5A 1_555 1_555
C8A C7A 1_555 1_555
C9A C8A 1_555 1_555
H14A C9A 1_555 1_555
C10A C9A 1_555 1_555
H15A C10A 1_555 1_555
C11A N2A 1_555 1_555
H16A C11A 1_555 1_555
C12A O3A 1_555 1_555
C13A N3 1_555 1_555
H17A C13A 1_555 1_555
C14A C15 1_555 1_555
H18A C14A 1_555 1_555
C17A C16 1_555 1_555
H19A C17A 1_555 1_555
C18A N4 1_555 1_555
H20A C18A 1_555 1_555
C19A N5 1_555 1_555
H21A C19A 1_555 1_555
C20A C21 1_555 1_555
H22A C20A 1_555 1_555
C23A C22 1_555 1_555
H23A C23A 1_555 1_555
C24A N6 1_555 1_555
H24A C24A 1_555 1_555
C4 C5 1_555 1_555
C8 C12 1_555 1_555
C10 C11 1_555 1_555
C4A C5A 1_555 1_555
C4A C6A 1_555 1_555
C8A C12A 1_555 1_555
C10A C11A 1_555 1_555
C13A C14A 1_555 1_555
C17A C18A 1_555 1_555
C19A C20A 1_555 1_555
C23A C24A 1_555 1_555

#END
