
#######################################################################
#
#                 Cambridge Crystallographic Data Centre
#                                CCDC 
#
#######################################################################
#
# If this CIF has been generated from an entry in the Cambridge 
# Structural Database, then it will include bibliographic, chemical, 
# crystal, experimental, refinement or atomic coordinate data resulting 
# from the CCDC's data processing and validation procedures.
#
#######################################################################

data_XOJJIQ
_symmetry_cell_setting           triclinic
_symmetry_space_group_name_H-M   'P -1'
_symmetry_Int_Tables_number      2
_space_group_name_Hall           '-P 1'
loop_
_symmetry_equiv_pos_site_id
_symmetry_equiv_pos_as_xyz
1 x,y,z
2 -x,-y,-z
_cell_length_a                   8.8241(13)
_cell_length_b                   9.8658(14)
_cell_length_c                   11.0081(16)
_cell_angle_alpha                81.352(2)
_cell_angle_beta                 87.168(2)
_cell_angle_gamma                76.563(2)
_cell_volume                     921.395
loop_
_atom_site_label
_atom_site_type_symbol
_atom_site_fract_x
_atom_site_fract_y
_atom_site_fract_z
Nd1 Nd 0.38855(2) 0.03189(2) 0.157632(17)
O1 O 0.1453(3) 0.1268(3) 0.2620(3)
O2 O 0.4378(3) -0.0921(3) 0.3677(3)
O3 O 0.2931(3) -0.1844(3) 0.2641(3)
O4 O 0.4993(3) 0.1522(3) -0.0330(2)
O5 O 0.3010(3) 0.2875(3) 0.0511(3)
O6 O 0.1980(3) 0.0406(3) 0.0046(2)
O7 O 0.3254(3) 0.0340(3) -0.1746(3)
N1 N 0.4284(4) -0.2769(3) 0.5732(3)
N2 N 0.5237(4) -0.3927(3) 0.6306(3)
N3 N 0.5341(4) -0.2043(3) 0.7157(3)
N4 N 0.2997(4) 0.5119(3) -0.1290(3)
N5 N 0.0766(4) 0.1833(4) -0.2998(3)
N6 N 0.1085(5) 0.6929(4) -0.1564(4)
N7 N 0.3286(4) 0.6008(4) -0.0568(4)
N8 N 0.1091(5) 0.1792(5) -0.4945(4)
N9 N 0.1223(5) 0.3017(5) -0.3426(4)
C1 C 0.3587(4) -0.1790(4) 0.3591(4)
C2 C 0.3376(5) -0.2841(4) 0.4694(4)
H1 H 0.2282 -0.2670 0.4932
H2 H 0.3678 -0.3783 0.4471
C3 C 0.5839(5) -0.3438(4) 0.7153(4)
H3 H 0.6556 -0.4007 0.7713
C4 C 0.4363(5) -0.1664(4) 0.6250(4)
H4 H 0.3804 -0.0749 0.6003
C5 C 0.4001(4) 0.2684(4) -0.0316(3)
C6 C 0.4075(5) 0.3786(4) -0.1392(4)
H5 H 0.5126 0.3934 -0.1476
H6 H 0.3848 0.3449 -0.2131
C7 C 0.2111(5) 0.7068(5) -0.0773(5)
H7 H 0.1991 0.7870 -0.0395
C8 C 0.1700(5) 0.5680(5) -0.1872(5)
H8 H 0.1270 0.5256 -0.2426
C9 C 0.2068(4) 0.0653(4) -0.1090(4)
C10 C 0.0559(5) 0.1424(5) -0.1697(4)
H9 H -0.0179 0.0823 -0.1570
H10 H 0.0128 0.2257 -0.1315
C11 C 0.1386(7) 0.2944(7) -0.4599(5)
H11 H 0.1687 0.3644 -0.5155
C12 C 0.0698(5) 0.1121(5) -0.3892(4)
H12 H 0.0412 0.0261 -0.3801
H13 H 0.139(5) 0.145(5) 0.334(2)
H14 H 0.070(4) 0.185(4) 0.225(4)
Nd1A Nd 0.61145(2) -0.03189(2) -0.157632(17)
Nd1A_2 Nd 0.61145(2) -0.03189(2) 0.842368(17)
O4A O 0.5007(3) -0.1522(3) 0.0330(2)
O7A O 0.6746(3) -0.0340(3) 0.1746(3)
N3A N 0.4659(4) 0.2043(3) 0.2843(3)
loop_
_geom_bond_atom_site_label_1
_geom_bond_atom_site_label_2
_geom_bond_site_symmetry_1
_geom_bond_site_symmetry_2
Nd1 O1 1_555 1_555
O1 H13 1_555 1_555
O2 Nd1 1_555 1_555
O3 Nd1 1_555 1_555
O4 Nd1 1_555 1_555
O5 Nd1 1_555 1_555
O6 Nd1 1_555 1_555
O7 C9 1_555 1_555
N1 N2 1_555 1_555
N2 C3 1_555 1_555
N3 C3 1_555 1_555
N4 N7 1_555 1_555
N5 N9 1_555 1_555
N6 C7 1_555 1_555
N7 C7 1_555 1_555
N8 C11 1_555 1_555
N9 C11 1_555 1_555
C1 O2 1_555 1_555
C2 N1 1_555 1_555
H1 C2 1_555 1_555
H2 C2 1_555 1_555
C3 H3 1_555 1_555
C4 N1 1_555 1_555
H4 C4 1_555 1_555
C5 O4 1_555 1_555
C6 N4 1_555 1_555
H5 C6 1_555 1_555
H6 C6 1_555 1_555
C7 H7 1_555 1_555
C8 N4 1_555 1_555
H8 C8 1_555 1_555
C9 O6 1_555 1_555
C10 N5 1_555 1_555
H9 C10 1_555 1_555
H10 C10 1_555 1_555
C11 H11 1_555 1_555
C12 N5 1_555 1_555
H12 C12 1_555 1_555
H14 O1 1_555 1_555
Nd1A O4 1_555 1_555
Nd1A_2 N3 1_555 1_555
O4A Nd1 1_555 1_555
O7A Nd1 1_555 1_555
N3A Nd1 1_555 1_555
O3 C1 1_555 1_555
O5 C5 1_555 1_555
O7 Nd1A 1_555 1_555
N3 C4 1_555 1_555
N6 C8 1_555 1_555
N8 C12 1_555 1_555
C1 C2 1_555 1_555
C5 C6 1_555 1_555
C9 C10 1_555 1_555
Nd1A O4A 1_555 1_555

#END
