
#######################################################################
#
#                 Cambridge Crystallographic Data Centre
#                                CCDC 
#
#######################################################################
#
# If this CIF has been generated from an entry in the Cambridge 
# Structural Database, then it will include bibliographic, chemical, 
# crystal, experimental, refinement or atomic coordinate data resulting 
# from the CCDC's data processing and validation procedures.
#
#######################################################################

data_XOJMEP
_symmetry_cell_setting           monoclinic
_symmetry_space_group_name_H-M   'C 2/c'
_symmetry_Int_Tables_number      15
_space_group_name_Hall           '-C 2yn'
loop_
_symmetry_equiv_pos_site_id
_symmetry_equiv_pos_as_xyz
1 x,y,z
2 1/2+x,1/2+y,z
3 -x,y,1/2-z
4 1/2-x,1/2+y,1/2-z
5 -x,-y,-z
6 1/2-x,1/2-y,-z
7 x,-y,1/2+z
8 1/2+x,1/2-y,1/2+z
_cell_length_a                   18.0830(5)
_cell_length_b                   13.5410(5)
_cell_length_c                   18.0640(5)
_cell_angle_alpha                90
_cell_angle_beta                 113.408(5)
_cell_angle_gamma                90
_cell_volume                     4059.15
loop_
_atom_site_label
_atom_site_type_symbol
_atom_site_fract_x
_atom_site_fract_y
_atom_site_fract_z
Co1 Co 0.24587(3) 0.52162(4) 0.25760(3)
C1 C 0.2381(2) 0.2243(3) 0.4210(2)
C2 C 0.22816(19) 0.3221(2) 0.43971(19)
C3 C 0.2597(2) 0.1538(3) 0.4817(2)
H1 H 0.2663 0.0886 0.4693
C4 C 0.2250(2) 0.1910(3) 0.33758(19)
C5 C 0.2090(2) 0.4052(2) 0.38052(19)
O1 O 0.26027(15) 0.4253(2) 0.35151(15)
O2 O 0.14594(19) 0.4534(2) 0.36651(19)
O3 O 0.1765(2) 0.2362(2) 0.27791(18)
O4 O 0.26597(16) 0.1163(2) 0.33485(15)
O5 O 0.12653(16) 0.5662(2) 0.24416(17)
O6 O 0.1941(2) 0.4010(2) 0.18280(17)
O7 O 0.35907(17) 0.4721(2) 0.25710(18)
O8 O 0.30228(17) 0.6322(2) 0.33976(15)
Co1E Co 0.25413(3) -0.02162(4) 0.74240(3)
Co1C Co 0.25413(3) 0.02162(4) 0.24240(3)
Co1F Co 0.24587(3) 0.47838(4) 0.75760(3)
C1E C 0.2619(2) 0.2757(3) 0.5790(2)
C2E C 0.27184(19) 0.1779(2) 0.56029(19)
C3E C 0.2403(2) 0.3462(3) 0.5183(2)
H1E H 0.2337 0.4114 0.5307
C4E C 0.2750(2) 0.3090(3) 0.66242(19)
C5E C 0.2910(2) 0.0948(2) 0.61948(19)
O1E O 0.23973(15) 0.0747(2) 0.64849(15)
O2E O 0.35406(19) 0.0466(2) 0.63349(19)
O3E O 0.3235(2) 0.2638(2) 0.72209(18)
O4E O 0.23403(16) 0.3837(2) 0.66515(15)
O4C O 0.23403(16) 0.6163(2) 0.16515(15)
O4F O 0.26597(16) -0.1163(2) 0.83485(15)
O5E O 0.37347(16) -0.0662(2) 0.75584(17)
O6E O 0.3059(2) 0.0990(2) 0.81720(17)
O7E O 0.14093(17) 0.0279(2) 0.74290(18)
O8E O 0.19772(17) -0.1322(2) 0.66024(15)
Co2 Co 0.5000 0.0000 0.0000
Co3 Co 0.5000 0.5000 0.0000
C6 C 0.3266(2) 0.2188(3) 0.0078(2)
C7 C 0.31509(19) 0.3160(3) 0.0276(2)
C8 C 0.2613(2) 0.1545(3) -0.0196(2)
H2 H 0.2690 0.0901 -0.0330
C9 C 0.4080(2) 0.1792(3) 0.0202(2)
C10 C 0.3789(2) 0.3936(3) 0.0497(2)
O9 O 0.40894(15) 0.1054(2) -0.02286(16)
O10 O 0.46937(17) 0.2193(3) 0.0712(2)
O11 O 0.40471(15) 0.4137(2) -0.00446(15)
O12 O 0.3981(2) 0.4387(3) 0.11443(19)
O13 O 0.58162(17) 0.1125(2) 0.04959(18)
O14 O 0.49805(18) -0.0320(2) 0.11394(17)
O15 O 0.57619(19) 0.3826(2) 0.0586(2)
O16 O 0.51212(17) 0.5568(2) 0.11460(17)
Co2A Co 0.0000 0.5000 0.0000
Co3A Co 0.0000 0.0000 0.0000
C6E C 0.1734(2) 0.2812(3) -0.0078(2)
C7E C 0.18491(19) 0.1840(3) -0.0276(2)
C8E C 0.2387(2) 0.3455(3) 0.0196(2)
H2E H 0.2310 0.4099 0.0330
C9E C 0.0920(2) 0.3208(3) -0.0202(2)
C10E C 0.1211(2) 0.1064(3) -0.0497(2)
O9E O 0.09106(15) 0.3946(2) 0.02286(16)
O9D O 0.59106(15) -0.1054(2) 0.02286(16)
O10E O 0.03063(17) 0.2807(3) -0.0712(2)
O11E O 0.09529(15) 0.0863(2) 0.00446(15)
O11D O 0.59529(15) 0.5863(2) 0.00446(15)
O12E O 0.1019(2) 0.0613(3) -0.11443(19)
O13D O 0.41838(17) -0.1125(2) -0.04959(18)
O14D O 0.50195(18) 0.0320(2) -0.11394(17)
O15D O 0.42381(19) 0.6174(2) -0.0586(2)
O16D O 0.48788(17) 0.4432(2) -0.11460(17)
O17 O 0.0820(8) 0.7600(5) 0.2367(6)
O18 O 0.5059(9) 0.7492(4) 0.1348(11)
loop_
_geom_bond_atom_site_label_1
_geom_bond_atom_site_label_2
_geom_bond_site_symmetry_1
_geom_bond_site_symmetry_2
Co1 O1 1_555 1_555
Co2 O9 1_555 1_555
Co3 O11 1_555 1_555
C1 C2 1_555 1_555
C2 C5 1_555 1_555
C3 C1 1_555 1_555
H1 C3 1_555 1_555
C4 C1 1_555 1_555
C5 O1 1_555 1_555
C6 C7 1_555 1_555
C7 C10 1_555 1_555
C8 C6 1_555 1_555
H2 C8 1_555 1_555
C9 C6 1_555 1_555
C10 O11 1_555 1_555
O2 C5 1_555 1_555
O3 C4 1_555 1_555
O4 C4 1_555 1_555
O5 Co1 1_555 1_555
O6 Co1 1_555 1_555
O7 Co1 1_555 1_555
O8 Co1 1_555 1_555
O9 C9 1_555 1_555
O10 C9 1_555 1_555
O12 C10 1_555 1_555
O13 Co2 1_555 1_555
O14 Co2 1_555 1_555
O15 Co3 1_555 1_555
O16 Co3 1_555 1_555
Co1E O1E 1_555 1_555
Co1C O4 1_555 1_555
Co1F O4E 1_555 1_555
Co2A O9E 1_555 1_555
Co3A O11E 1_555 1_555
C1E C2E 1_555 1_555
C2E C3 1_555 1_555
C3E C2 1_555 1_555
H1E C3E 1_555 1_555
C4E C1E 1_555 1_555
C5E C2E 1_555 1_555
C6E C7E 1_555 1_555
C7E C8 1_555 1_555
C8E C7 1_555 1_555
H2E C8E 1_555 1_555
C9E C6E 1_555 1_555
C10E C7E 1_555 1_555
O1E C5E 1_555 1_555
O2E C5E 1_555 1_555
O3E C4E 1_555 1_555
O4E C4E 1_555 1_555
O4C Co1 1_555 1_555
O4F Co1E 1_555 1_555
O5E Co1E 1_555 1_555
O6E Co1E 1_555 1_555
O7E Co1E 1_555 1_555
O8E Co1E 1_555 1_555
O9E C9E 1_555 1_555
O9D Co2 1_555 1_555
O10E C9E 1_555 1_555
O11E C10E 1_555 1_555
O11D Co3 1_555 1_555
O12E C10E 1_555 1_555
O13D Co2 1_555 1_555
O14D Co2 1_555 1_555
O15D Co3 1_555 1_555
O16D Co3 1_555 1_555
C1E C3E 1_555 1_555
C6E C8E 1_555 1_555

#END
