
#######################################################################
#
#                 Cambridge Crystallographic Data Centre
#                                CCDC 
#
#######################################################################
#
# If this CIF has been generated from an entry in the Cambridge 
# Structural Database, then it will include bibliographic, chemical, 
# crystal, experimental, refinement or atomic coordinate data resulting 
# from the CCDC's data processing and validation procedures.
#
#######################################################################

data_XOJSIA
_symmetry_cell_setting           monoclinic
_symmetry_space_group_name_H-M   'C 2/c'
_symmetry_Int_Tables_number      15
_space_group_name_Hall           '-C 2yn'
loop_
_symmetry_equiv_pos_site_id
_symmetry_equiv_pos_as_xyz
1 x,y,z
2 -x,y,1/2-z
3 1/2+x,1/2+y,z
4 1/2-x,1/2+y,1/2-z
5 -x,-y,-z
6 x,-y,1/2+z
7 1/2-x,1/2-y,-z
8 1/2+x,1/2-y,1/2+z
_cell_length_a                   15.369(10)
_cell_length_b                   25.744(17)
_cell_length_c                   15.842(15)
_cell_angle_alpha                90
_cell_angle_beta                 112.697(7)
_cell_angle_gamma                90
_cell_volume                     5782.63
loop_
_atom_site_label
_atom_site_type_symbol
_atom_site_fract_x
_atom_site_fract_y
_atom_site_fract_z
Tb1 Tb 0.5000 0.85594(2) 0.2500
Cu1 Cu 0.70492(7) 0.90517(4) 0.39867(8)
O1 O 0.6623(4) 0.8386(2) 0.3321(5)
O2 O 0.6031(4) 0.9293(2) 0.2851(4)
O3 O 0.5103(5) 0.7671(3) 0.3209(6)
C1 C 0.8107(9) 0.8249(5) 0.5115(10)
H1 H 0.8475 0.8111 0.5684
C2 C 0.6025(7) 0.9769(3) 0.2518(7)
N1 N 0.4732(10) 0.8589(5) 0.4322(10)
C3 C 0.8043(11) 0.8939(6) 0.6041(10)
H2 H 0.7502 0.8911 0.6210
H3 H 0.8554 0.8745 0.6489
N2 N 0.7801(6) 0.8689(4) 0.5135(7)
O4 O 0.5395(9) 0.8674(4) 0.4195(9)
C4 C 0.5543(8) 0.9850(4) 0.1585(9)
H4 H 0.5287 0.9564 0.1212
C5 C 0.7154(9) 0.7665(4) 0.2754(11)
H5 H 0.6668 0.7709 0.2184
C6 C 0.7243(7) 0.8002(3) 0.3466(10)
N3 N 0.7155(6) 0.9746(4) 0.4558(7)
C7 C 0.7987(8) 0.7922(4) 0.4364(11)
N4 N 0.5000 0.7402(4) 0.2500
C8 C 0.6479(8) 1.0189(4) 0.3077(11)
O5 O 0.5000 0.6942(4) 0.2500
C9 C 0.6930(9) 1.0156(5) 0.4062(10)
H6 H 0.7075 1.0471 0.4374
C10 C 0.8623(12) 0.7495(6) 0.4451(12)
H7 H 0.9127 0.7451 0.5009
C11 C 0.5424(10) 1.0349(5) 0.1180(11)
H8 H 0.5061 1.0407 0.0564
C12 C 0.8320(12) 0.9484(8) 0.6098(11)
H9 H 0.8826 0.9521 0.5879
H10 H 0.8560 0.9592 0.6733
C13 C 0.7796(11) 0.7260(6) 0.2895(14)
H11 H 0.7754 0.7044 0.2410
C14 C 0.6356(12) 1.0684(5) 0.2674(14)
H12 H 0.6605 1.0968 0.3053
C15 C 0.7512(11) 0.9836(6) 0.5545(10)
H13 H 0.6999 0.9788 0.5751
H14 H 0.7719 1.0194 0.5667
C16 C 0.5922(13) 1.0767(5) 0.1814(16)
H15 H 0.5922 1.1100 0.1586
O6 O 0.4602(11) 0.8568(7) 0.5043(10)
C17 C 0.8538(14) 0.7171(7) 0.3805(18)
H16 H 0.8939 0.6886 0.3911
O7 O 0.4049(8) 0.8508(5) 0.3556(8)
N5 N 0.8223(6) 0.9167(3) 0.3407(7)
C18 C 0.8045(7) 0.9034(4) 0.2545(9)
H17 H 0.7435 0.8934 0.2175
C19 C 0.9098(9) 0.9311(7) 0.3902(11)
H18 H 0.9240 0.9412 0.4505
C20 C 0.9628(7) 0.9183(4) 0.2701(8)
C21 C 0.9820(8) 0.9321(6) 0.3577(10)
H19 H 1.0426 0.9422 0.3958
C22 C 0.8712(7) 0.9036(4) 0.2183(8)
H20 H 0.8550 0.8938 0.1576
O3A O 0.4897(5) 0.7671(3) 0.1791(6)
N5A N 1.1777(6) 0.9167(3) 0.1593(7)
C18A C 1.1955(7) 0.9034(4) 0.2455(9)
H17A H 1.2565 0.8934 0.2825
C19A C 1.0902(9) 0.9311(7) 0.1098(11)
H18A H 1.0760 0.9412 0.0495
C20A C 1.0372(7) 0.9183(4) 0.2299(8)
C21A C 1.0180(8) 0.9321(6) 0.1423(10)
H19A H 0.9574 0.9422 0.1042
C22A C 1.1288(7) 0.9036(4) 0.2817(8)
H20A H 1.1450 0.8938 0.3424
Cu1A Cu 0.29508(7) 0.90517(4) 0.10133(8)
O1A O 0.3377(4) 0.8386(2) 0.1679(5)
O2A O 0.3969(4) 0.9293(2) 0.2149(4)
C1A C 0.1893(9) 0.8249(5) -0.0115(10)
H1A H 0.1525 0.8111 -0.0684
C2A C 0.3975(7) 0.9769(3) 0.2482(7)
N1A N 0.5268(10) 0.8589(5) 0.0678(10)
C3A C 0.1957(11) 0.8939(6) -0.1041(10)
H2A H 0.2498 0.8911 -0.1210
H3A H 0.1446 0.8745 -0.1489
N2A N 0.2199(6) 0.8689(4) -0.0135(7)
O4A O 0.4605(9) 0.8674(4) 0.0805(9)
C4A C 0.4457(8) 0.9850(4) 0.3415(9)
H4A H 0.4713 0.9564 0.3788
C5A C 0.2846(9) 0.7665(4) 0.2246(11)
H5A H 0.3332 0.7709 0.2816
C6A C 0.2757(7) 0.8002(3) 0.1534(10)
N3A N 0.2845(6) 0.9746(4) 0.0442(7)
C7A C 0.2013(8) 0.7922(4) 0.0636(11)
C8A C 0.3521(8) 1.0189(4) 0.1923(11)
C9A C 0.3070(9) 1.0156(5) 0.0938(10)
H6A H 0.2925 1.0471 0.0626
C10A C 0.1377(12) 0.7495(6) 0.0549(12)
H7A H 0.0873 0.7451 -0.0009
C11A C 0.4576(10) 1.0349(5) 0.3820(11)
H8A H 0.4939 1.0407 0.4436
C12A C 0.1680(12) 0.9484(8) -0.1098(11)
H9A H 0.1174 0.9521 -0.0879
H10A H 0.1440 0.9592 -0.1733
C13A C 0.2204(11) 0.7260(6) 0.2105(14)
H11A H 0.2246 0.7044 0.2590
C14A C 0.3644(12) 1.0684(5) 0.2326(14)
H12A H 0.3395 1.0968 0.1947
C15A C 0.2488(11) 0.9836(6) -0.0545(10)
H13A H 0.3001 0.9788 -0.0751
H14A H 0.2281 1.0194 -0.0667
C16A C 0.4078(13) 1.0767(5) 0.3186(16)
H15A H 0.4078 1.1100 0.3414
O6A O 0.5398(11) 0.8568(7) -0.0043(10)
C17A C 0.1462(14) 0.7171(7) 0.1195(18)
H16A H 0.1061 0.6886 0.1089
O7A O 0.5951(8) 0.8508(5) 0.1444(8)
Cu1A_2 Cu 1.29508(7) 0.90517(4) 0.10133(8)
N5A_2 N 0.1777(6) 0.9167(3) 0.1593(7)
O8 O 0.723(2) 1.1476(11) 0.492(2)
C23 C 1.099(4) 0.8789(17) 0.599(4)
H21 H 1.1503 0.8824 0.6574
H22 H 1.0409 0.8872 0.6044
H23 H 1.1091 0.9021 0.5559
O10 O 1.096(4) 0.8265(17) 0.567(4)
H24 H 1.0678 0.8257 0.5116
O9? O 0.669(8) 1.169(4) 0.479(8)
C24? C 1.099(4) 0.8789(17) 0.599(4)
H25? H 1.1182 0.8519 0.6443
H26? H 1.1504 0.8864 0.5800
H27? H 1.0455 0.8675 0.5469
O11? O 1.076(5) 0.924(2) 0.636(4)
H28? H 1.0326 0.9179 0.6529
loop_
_geom_bond_atom_site_label_1
_geom_bond_atom_site_label_2
_geom_bond_site_symmetry_1
_geom_bond_site_symmetry_2
Tb1 O1 1_555 1_555
Cu1 O1 1_555 1_555
O1 C6 1_555 1_555
O2 Tb1 1_555 1_555
O3 Tb1 1_555 1_555
C1 H1 1_555 1_555
C2 O2 1_555 1_555
N1 O4 1_555 1_555
C3 H2 1_555 1_555
H3 C3 1_555 1_555
N2 Cu1 1_555 1_555
O4 Tb1 1_555 1_555
C4 C2 1_555 1_555
H4 C4 1_555 1_555
C5 H5 1_555 1_555
C6 C5 1_555 1_555
N3 Cu1 1_555 1_555
C7 C1 1_555 1_555
N4 O3 1_555 1_555
C8 C2 1_555 1_555
O5 N4 1_555 1_555
C9 N3 1_555 1_555
H6 C9 1_555 1_555
C10 C7 1_555 1_555
H7 C10 1_555 1_555
C11 C4 1_555 1_555
H8 C11 1_555 1_555
C12 C3 1_555 1_555
H9 C12 1_555 1_555
H10 C12 1_555 1_555
C13 C5 1_555 1_555
H11 C13 1_555 1_555
C14 C8 1_555 1_555
H12 C14 1_555 1_555
C15 N3 1_555 1_555
H13 C15 1_555 1_555
H14 C15 1_555 1_555
C16 C11 1_555 1_555
H15 C16 1_555 1_555
O6 N1 1_555 1_555
C17 C10 1_555 1_555
H16 C17 1_555 1_555
O7 Tb1 1_555 1_555
N5 Cu1 1_555 1_555
C18 N5 1_555 1_555
H17 C18 1_555 1_555
C19 N5 1_555 1_555
H18 C19 1_555 1_555
C20 C21 1_555 1_555
C21 C19 1_555 1_555
H19 C21 1_555 1_555
C22 C18 1_555 1_555
H20 C22 1_555 1_555
C23 H21 1_555 1_555
H22 C23 1_555 1_555
H23 C23 1_555 1_555
O10 C23 1_555 1_555
H24 O10 1_555 1_555
O3A Tb1 1_555 1_555
N5A C18A 1_555 1_555
C18A H17A 1_555 1_555
C19A N5A 1_555 1_555
H18A C19A 1_555 1_555
C20A C20 1_555 1_555
C21A C19A 1_555 1_555
H19A C21A 1_555 1_555
C22A C18A 1_555 1_555
H20A C22A 1_555 1_555
Cu1A O1A 1_555 1_555
O1A Tb1 1_555 1_555
O2A Tb1 1_555 1_555
C1A H1A 1_555 1_555
C2A O2A 1_555 1_555
N1A O4A 1_555 1_555
C3A H2A 1_555 1_555
H3A C3A 1_555 1_555
N2A Cu1A 1_555 1_555
O4A Tb1 1_555 1_555
C4A C2A 1_555 1_555
H4A C4A 1_555 1_555
C5A H5A 1_555 1_555
C6A O1A 1_555 1_555
N3A Cu1A 1_555 1_555
C7A C1A 1_555 1_555
C8A C2A 1_555 1_555
C9A N3A 1_555 1_555
H6A C9A 1_555 1_555
C10A C7A 1_555 1_555
H7A C10A 1_555 1_555
C11A C4A 1_555 1_555
H8A C11A 1_555 1_555
C12A C3A 1_555 1_555
H9A C12A 1_555 1_555
H10A C12A 1_555 1_555
C13A C5A 1_555 1_555
H11A C13A 1_555 1_555
C14A C8A 1_555 1_555
H12A C14A 1_555 1_555
C15A N3A 1_555 1_555
H13A C15A 1_555 1_555
H14A C15A 1_555 1_555
C16A C11A 1_555 1_555
H15A C16A 1_555 1_555
O6A N1A 1_555 1_555
C17A C10A 1_555 1_555
H16A C17A 1_555 1_555
O7A Tb1 1_555 1_555
Cu1A_2 N5A 1_555 1_555
N5A_2 Cu1A 1_555 1_555
Cu1 O2 1_555 1_555
C1 N2 1_555 1_555
N1 O7 1_555 1_555
C3 N2 1_555 1_555
C6 C7 1_555 1_555
N4 O3A 1_555 1_555
C8 C9 1_555 1_555
C12 C15 1_555 1_555
C13 C17 1_555 1_555
C14 C16 1_555 1_555
C20 C22 1_555 1_555
C20A C21A 1_555 1_555
C20A C22A 1_555 1_555
Cu1A O2A 1_555 1_555
C1A N2A 1_555 1_555
N1A O7A 1_555 1_555
C3A N2A 1_555 1_555
C5A C6A 1_555 1_555
C6A C7A 1_555 1_555
C8A C9A 1_555 1_555
C12A C15A 1_555 1_555
C13A C17A 1_555 1_555
C14A C16A 1_555 1_555

#END
