
#######################################################################
#
#                 Cambridge Crystallographic Data Centre
#                                CCDC 
#
#######################################################################
#
# If this CIF has been generated from an entry in the Cambridge 
# Structural Database, then it will include bibliographic, chemical, 
# crystal, experimental, refinement or atomic coordinate data resulting 
# from the CCDC's data processing and validation procedures.
#
#######################################################################

data_XOJVOI
_symmetry_cell_setting           monoclinic
_symmetry_space_group_name_H-M   'P 21/c'
_symmetry_Int_Tables_number      14
_space_group_name_Hall           '-P 2ybc'
loop_
_symmetry_equiv_pos_site_id
_symmetry_equiv_pos_as_xyz
1 x,y,z
2 -x,1/2+y,1/2-z
3 -x,-y,-z
4 x,1/2-y,1/2+z
_cell_length_a                   14.5197(14)
_cell_length_b                   11.0769(10)
_cell_length_c                   21.106(2)
_cell_angle_alpha                90
_cell_angle_beta                 107.720(2)
_cell_angle_gamma                90
_cell_volume                     3233.49
loop_
_atom_site_label
_atom_site_type_symbol
_atom_site_fract_x
_atom_site_fract_y
_atom_site_fract_z
Cd1 Cd 0.0000 0.0000 0.0000
Cd2 Cd 0.118940(12) -0.369850(16) 0.249810(9)
Cd3 Cd 0.0000 -0.5000 0.0000
O1 O 0.05959(12) -0.19802(15) -0.01325(8)
O2 O 0.12593(12) -0.37779(15) 0.02138(9)
O3 O 0.12470(13) -0.26251(16) 0.15026(9)
O4 O 0.26106(13) -0.33393(18) 0.21720(9)
O5 O 0.04483(17) -0.0390(2) 0.10927(10)
O6 O -0.03748(13) -0.27917(17) 0.21355(9)
O7 O -0.01104(13) -0.41507(17) 0.29262(10)
O8 O -0.20576(13) -0.03727(16) 0.19044(9)
O9 O -0.11029(12) -0.06949(15) 0.29258(8)
O10 O -0.05535(17) -0.3868(2) 0.07144(11)
O11 O 0.08552(14) -0.63861(18) 0.07990(11)
N1 N 0.28029(16) 0.1423(2) -0.00818(12)
N2 N 0.29946(17) 0.1487(2) 0.05886(12)
N3 N 0.14665(15) 0.08834(19) 0.01017(11)
N4 N 0.26004(16) 0.5840(2) -0.10802(11)
N5 N 0.16612(17) 0.5543(2) -0.11831(12)
N6 N 0.17720(16) 0.7217(2) -0.17429(11)
C1 C 0.3568(2) 0.1654(3) -0.03875(17)
H1 H 0.3328 0.1438 -0.0865
H2 H 0.4129 0.1128 -0.0175
C2 C 0.3900(2) 0.2966(3) -0.03214(16)
H3 H 0.4109 0.3202 0.0154
H4 H 0.4459 0.3057 -0.0493
C3 C 0.3091(2) 0.3782(2) -0.07044(14)
H5 H 0.2533 0.3682 -0.0532
H6 H 0.2882 0.3538 -0.1178
C4 C 0.3387(2) 0.5100(2) -0.06535(15)
H7 H 0.3538 0.5372 -0.0186
H8 H 0.3975 0.5199 -0.0792
C5 C 0.21712(19) 0.1153(2) 0.06748(13)
H9 H 0.2078 0.1105 0.1100
C6 C 0.18987(19) 0.1072(2) -0.03620(14)
H10 H 0.1602 0.0969 -0.0826
C7 C 0.1191(2) 0.6394(2) -0.15846(14)
H11 H 0.0505 0.6428 -0.1749
C8 C 0.2652(2) 0.6835(2) -0.14195(13)
H12 H 0.3235 0.7216 -0.1428
C9 C 0.22641(17) -0.2116(2) 0.05322(12)
C10 C 0.27009(18) -0.2257(2) 0.12192(12)
C11 C 0.36564(18) -0.1905(2) 0.15033(14)
H13 H 0.3952 -0.1995 0.1969
C12 C 0.41836(19) -0.1425(2) 0.11164(15)
H14 H 0.4835 -0.1179 0.1316
C13 C 0.3758(2) -0.1306(2) 0.04396(15)
H15 H 0.4123 -0.0991 0.0172
C14 C 0.28006(18) -0.1642(2) 0.01450(13)
H16 H 0.2512 -0.1549 -0.0321
C15 C 0.12824(18) -0.2639(2) 0.01842(12)
C16 C 0.21543(18) -0.2774(2) 0.16563(12)
C17 C -0.17021(18) -0.3347(2) 0.25082(11)
C18 C -0.22094(18) -0.2255(2) 0.24034(12)
C19 C -0.3197(2) -0.2254(3) 0.23175(15)
H17 H -0.3543 -0.1513 0.2246
C20 C -0.3681(2) -0.3329(3) 0.23350(16)
H18 H -0.4358 -0.3324 0.2268
C21 C -0.3177(2) -0.4404(2) 0.24496(14)
H19 H -0.3507 -0.5137 0.2467
C22 C -0.21947(19) -0.4416(2) 0.25392(12)
H20 H -0.1851 -0.5159 0.2623
C23 C -0.06651(18) -0.3420(2) 0.25260(12)
C24 C -0.17429(18) -0.1041(2) 0.24038(12)
H21 H 0.035(2) -0.003(3) 0.1389(16)
H22 H 0.064(3) -0.102(4) 0.1204(18)
H23 H -0.017(3) -0.353(4) 0.098(2)
H24 H -0.089(3) -0.416(4) 0.089(2)
H25 H 0.097(3) -0.624(3) 0.1178(19)
H26 H 0.049(3) -0.701(3) 0.0647(17)
Cd1_2 Cd 0.0000 -1.0000 0.0000
Cd2C Cd 0.118940(12) 0.869850(16) -0.250190(9)
Cd2B Cd -0.118940(12) -0.630150(16) -0.249810(9)
Cd2A Cd -0.118940(12) 0.130150(16) 0.250190(9)
Cd2A_2 Cd -0.118940(12) -0.869850(16) 0.250190(9)
Cd2C_2 Cd 0.118940(12) -1.130150(16) -0.250190(9)
O1B O -0.05959(12) 0.19802(15) 0.01325(8)
O1B_2 O -0.05959(12) -0.80198(15) 0.01325(8)
O2B O -0.12593(12) -0.62221(15) -0.02138(9)
O3B O -0.12470(13) -0.73749(16) -0.15026(9)
O4B O -0.26106(13) -0.66607(18) -0.21720(9)
O5B O -0.04483(17) 0.0390(2) -0.10927(10)
O6B O 0.03748(13) -0.72083(17) -0.21355(9)
O7B O 0.01104(13) -0.58493(17) -0.29262(10)
O8A O 0.20576(13) -0.53727(16) 0.30956(9)
O8C O -0.20576(13) -0.46273(16) -0.30956(9)
O8B O 0.20576(13) -0.96273(16) -0.19044(9)
O9A O 0.11029(12) -0.56949(15) 0.20742(8)
O9C O -0.11029(12) -0.43051(15) -0.20742(8)
O9B O 0.11029(12) -0.93051(15) -0.29258(8)
O10B O 0.05535(17) -0.6132(2) -0.07144(11)
O11B O -0.08552(14) -0.36139(18) -0.07990(11)
N1B N -0.28029(16) -0.1423(2) 0.00818(12)
N2B N -0.29946(17) -0.1487(2) -0.05886(12)
N3B N -0.14665(15) -0.08834(19) -0.01017(11)
N4B N -0.26004(16) -0.5840(2) 0.10802(11)
N5B N -0.16612(17) -0.5543(2) 0.11831(12)
N6C N 0.17720(16) -0.2217(2) 0.32571(11)
N6A N -0.17720(16) -0.7783(2) -0.32571(11)
N6B N -0.17720(16) -0.7217(2) 0.17429(11)
C1B C -0.3568(2) -0.1654(3) 0.03875(17)
H1B H -0.3328 -0.1438 0.0865
H2B H -0.4129 -0.1128 0.0175
C2B C -0.3900(2) -0.2966(3) 0.03214(16)
H3B H -0.4109 -0.3202 -0.0154
H4B H -0.4459 -0.3057 0.0493
C3B C -0.3091(2) -0.3782(2) 0.07044(14)
H5B H -0.2533 -0.3682 0.0532
H6B H -0.2882 -0.3538 0.1178
C4B C -0.3387(2) -0.5100(2) 0.06535(15)
H7B H -0.3538 -0.5372 0.0186
H8B H -0.3975 -0.5199 0.0792
C5B C -0.21712(19) -0.1153(2) -0.06748(13)
H9B H -0.2078 -0.1105 -0.1100
C6B C -0.18987(19) -0.1072(2) 0.03620(14)
H10B H -0.1602 -0.0969 0.0826
C7B C -0.1191(2) -0.6394(2) 0.15846(14)
H11B H -0.0505 -0.6428 0.1749
C8B C -0.2652(2) -0.6835(2) 0.14195(13)
H12B H -0.3235 -0.7216 0.1428
C9B C -0.22641(17) -0.7884(2) -0.05322(12)
C10B C -0.27009(18) -0.7743(2) -0.12192(12)
C11B C -0.36564(18) -0.8095(2) -0.15033(14)
H13B H -0.3952 -0.8005 -0.1969
C12B C -0.41836(19) -0.8575(2) -0.11164(15)
H14B H -0.4835 -0.8821 -0.1316
C13B C -0.3758(2) -0.8694(2) -0.04396(15)
H15B H -0.4123 -0.9009 -0.0172
C14B C -0.28006(18) -0.8358(2) -0.01450(13)
H16B H -0.2512 -0.8451 0.0321
C15B C -0.12824(18) -0.7361(2) -0.01842(12)
C16B C -0.21543(18) -0.7226(2) -0.16563(12)
C17B C 0.17021(18) -0.6653(2) -0.25082(11)
C18B C 0.22094(18) -0.7745(2) -0.24034(12)
C19B C 0.3197(2) -0.7746(3) -0.23175(15)
H17B H 0.3543 -0.8487 -0.2246
C20B C 0.3681(2) -0.6671(3) -0.23350(16)
H18B H 0.4358 -0.6676 -0.2268
C21B C 0.3177(2) -0.5596(2) -0.24496(14)
H19B H 0.3507 -0.4863 -0.2467
C22B C 0.21947(19) -0.5584(2) -0.25392(12)
H20B H 0.1851 -0.4841 -0.2623
C23B C 0.06651(18) -0.6580(2) -0.25260(12)
C24B C 0.17429(18) -0.8959(2) -0.24038(12)
H21B H -0.035(2) 0.003(3) -0.1389(16)
H22B H -0.064(3) 0.102(4) -0.1204(18)
H23B H 0.017(3) -0.647(4) -0.098(2)
H24B H 0.089(3) -0.584(4) -0.089(2)
H25B H -0.097(3) -0.376(3) -0.1178(19)
H26B H -0.049(3) -0.299(3) -0.0647(17)
O12 O 0.27678(17) -0.5428(3) 0.07745(14)
H27 H 0.238(3) -0.482(4) 0.060(2)
H28 H 0.241(3) -0.598(4) 0.0825(18)
O13 O 0.56853(19) -0.9625(2) 0.24446(14)
H29 H 0.618(3) -0.935(3) 0.2594(17)
H30 H 0.551(4) -0.992(4) 0.273(2)
O14 O 0.4723(2) -0.5621(3) 0.14530(16)
H31 H 0.415(2) -0.561(3) 0.1250(18)
H32 H 0.481(4) -0.639(3) 0.151(3)
O15 O 0.4965(2) -0.8106(3) 0.1400(2)
H33 H 0.438(3) -0.826(4) 0.114(2)
H34 H 0.501(3) -0.844(3) 0.1720(16)
O16 O 0.6178(4) -0.9289(5) 0.1013(2)
H35 H 0.668(5) -0.967(8) 0.134(4)
H36 H 0.568(10) -0.899(17) 0.118(9)
loop_
_geom_bond_atom_site_label_1
_geom_bond_atom_site_label_2
_geom_bond_site_symmetry_1
_geom_bond_site_symmetry_2
Cd1 O1 1_555 1_555
Cd2 O3 1_555 1_555
Cd3 O2 1_555 1_555
O1 C15 1_555 1_555
O2 C15 1_555 1_555
O3 C16 1_555 1_555
O4 Cd2 1_555 1_555
O5 Cd1 1_555 1_555
O6 Cd2 1_555 1_555
O7 Cd2 1_555 1_555
O8 C24 1_555 1_555
O9 C24 1_555 1_555
O10 Cd3 1_555 1_555
O11 Cd3 1_555 1_555
O12 H27 1_555 1_555
O13 H29 1_555 1_555
O14 H31 1_555 1_555
O15 H33 1_555 1_555
O16 H35 1_555 1_555
N1 N2 1_555 1_555
N2 C5 1_555 1_555
N3 Cd1 1_555 1_555
N4 N5 1_555 1_555
N5 C7 1_555 1_555
N6 C7 1_555 1_555
C1 N1 1_555 1_555
H1 C1 1_555 1_555
H2 C1 1_555 1_555
C2 C1 1_555 1_555
H3 C2 1_555 1_555
H4 C2 1_555 1_555
C3 C2 1_555 1_555
H5 C3 1_555 1_555
H6 C3 1_555 1_555
C4 N4 1_555 1_555
H7 C4 1_555 1_555
H8 C4 1_555 1_555
C5 N3 1_555 1_555
H9 C5 1_555 1_555
C6 N1 1_555 1_555
H10 C6 1_555 1_555
C7 H11 1_555 1_555
C8 N4 1_555 1_555
H12 C8 1_555 1_555
C9 C10 1_555 1_555
C10 C11 1_555 1_555
C11 H13 1_555 1_555
C12 C11 1_555 1_555
H14 C12 1_555 1_555
C13 C12 1_555 1_555
H15 C13 1_555 1_555
C14 C9 1_555 1_555
H16 C14 1_555 1_555
C15 C9 1_555 1_555
C16 O4 1_555 1_555
C17 C18 1_555 1_555
C18 C19 1_555 1_555
C19 H17 1_555 1_555
C20 C19 1_555 1_555
H18 C20 1_555 1_555
C21 C20 1_555 1_555
H19 C21 1_555 1_555
C22 C17 1_555 1_555
H20 C22 1_555 1_555
C23 O6 1_555 1_555
C24 C18 1_555 1_555
H21 O5 1_555 1_555
H22 O5 1_555 1_555
H23 O10 1_555 1_555
H24 O10 1_555 1_555
H25 O11 1_555 1_555
H26 O11 1_555 1_555
H28 O12 1_555 1_555
H30 O13 1_555 1_555
H32 O14 1_555 1_555
H34 O15 1_555 1_555
H36 O16 1_555 1_555
Cd1_2 O1B_2 1_555 1_555
Cd2C N6 1_555 1_555
Cd2B O3B 1_555 1_555
Cd2A O8 1_555 1_555
Cd2A_2 N6B 1_555 1_555
Cd2C_2 O8B 1_555 1_555
O1B Cd1 1_555 1_555
O1B_2 C15B 1_555 1_555
O2B Cd3 1_555 1_555
O3B C16B 1_555 1_555
O4B Cd2B 1_555 1_555
O5B Cd1 1_555 1_555
O6B Cd2B 1_555 1_555
O7B Cd2B 1_555 1_555
O8A Cd2 1_555 1_555
O8C Cd2B 1_555 1_555
O8B C24B 1_555 1_555
O9A Cd2 1_555 1_555
O9C Cd2B 1_555 1_555
O9B Cd2C_2 1_555 1_555
O10B Cd3 1_555 1_555
O11B Cd3 1_555 1_555
N1B N2B 1_555 1_555
N2B C5B 1_555 1_555
N3B Cd1 1_555 1_555
N4B N5B 1_555 1_555
N5B C7B 1_555 1_555
N6C Cd2 1_555 1_555
N6A Cd2B 1_555 1_555
N6B C7B 1_555 1_555
C1B N1B 1_555 1_555
H1B C1B 1_555 1_555
H2B C1B 1_555 1_555
C2B C1B 1_555 1_555
H3B C2B 1_555 1_555
H4B C2B 1_555 1_555
C3B C2B 1_555 1_555
H5B C3B 1_555 1_555
H6B C3B 1_555 1_555
C4B N4B 1_555 1_555
H7B C4B 1_555 1_555
H8B C4B 1_555 1_555
C5B N3B 1_555 1_555
H9B C5B 1_555 1_555
C6B N1B 1_555 1_555
H10B C6B 1_555 1_555
C7B H11B 1_555 1_555
C8B N4B 1_555 1_555
H12B C8B 1_555 1_555
C9B C10B 1_555 1_555
C10B C11B 1_555 1_555
C11B H13B 1_555 1_555
C12B C11B 1_555 1_555
H14B C12B 1_555 1_555
C13B C12B 1_555 1_555
H15B C13B 1_555 1_555
C14B C9B 1_555 1_555
H16B C14B 1_555 1_555
C15B O2B 1_555 1_555
C16B O4B 1_555 1_555
C17B C18B 1_555 1_555
C18B C19B 1_555 1_555
C19B H17B 1_555 1_555
C20B C19B 1_555 1_555
H18B C20B 1_555 1_555
C21B C20B 1_555 1_555
H19B C21B 1_555 1_555
C22B C17B 1_555 1_555
H20B C22B 1_555 1_555
C23B O6B 1_555 1_555
C24B O9B 1_555 1_555
H21B O5B 1_555 1_555
H22B O5B 1_555 1_555
H23B O10B 1_555 1_555
H24B O10B 1_555 1_555
H25B O11B 1_555 1_555
H26B O11B 1_555 1_555
O7 C23 1_555 1_555
O9 Cd2A 1_555 1_555
N3 C6 1_555 1_555
N6 C8 1_555 1_555
C3 C4 1_555 1_555
C10 C16 1_555 1_555
C13 C14 1_555 1_555
C17 C23 1_555 1_555
C21 C22 1_555 1_555
O7B C23B 1_555 1_555
N3B C6B 1_555 1_555
N6B C8B 1_555 1_555
C3B C4B 1_555 1_555
C9B C15B 1_555 1_555
C10B C16B 1_555 1_555
C13B C14B 1_555 1_555
C17B C23B 1_555 1_555
C18B C24B 1_555 1_555
C21B C22B 1_555 1_555

#END
