
#######################################################################
#
#                 Cambridge Crystallographic Data Centre
#                                CCDC 
#
#######################################################################
#
# If this CIF has been generated from an entry in the Cambridge 
# Structural Database, then it will include bibliographic, chemical, 
# crystal, experimental, refinement or atomic coordinate data resulting 
# from the CCDC's data processing and validation procedures.
#
#######################################################################

data_XOJVIC
_symmetry_cell_setting           monoclinic
_symmetry_space_group_name_H-M   'P 21/c'
_symmetry_Int_Tables_number      14
_space_group_name_Hall           '-P 2ybc'
loop_
_symmetry_equiv_pos_site_id
_symmetry_equiv_pos_as_xyz
1 x,y,z
2 -x,1/2+y,1/2-z
3 -x,-y,-z
4 x,1/2-y,1/2+z
_cell_length_a                   12.6665(16)
_cell_length_b                   18.196(2)
_cell_length_c                   10.9031(14)
_cell_angle_alpha                90
_cell_angle_beta                 103.115(3)
_cell_angle_gamma                90
_cell_volume                     2447.4
loop_
_atom_site_label
_atom_site_type_symbol
_atom_site_fract_x
_atom_site_fract_y
_atom_site_fract_z
Cd1 Cd 0.61927(2) 0.208240(13) 0.15273(2)
O1 O 0.5314(2) 0.13833(14) 0.2720(2)
O2 O 0.6926(2) 0.08388(15) 0.3299(3)
O3 O 0.6287(2) 0.18237(14) 0.5363(2)
O4 O 0.5254(2) 0.17455(14) 0.6743(2)
N1 N 0.8991(2) 0.26756(18) 0.4591(3)
N2 N 0.9060(3) 0.32614(19) 0.3839(3)
N3 N 0.7665(2) 0.25306(17) 0.2949(3)
N4 N 1.3452(3) 0.19411(19) 0.8114(3)
N5 N 1.3284(3) 0.12695(19) 0.8571(3)
N6 N 1.4649(2) 0.18461(18) 0.9886(3)
N7 N 0.7931(2) 0.02502(17) 0.0229(3)
N8 N 0.7175(3) 0.03345(18) -0.0872(3)
N9 N 0.7070(2) 0.12518(17) 0.0475(3)
C1 C 0.9750(3) 0.2586(2) 0.5812(4)
H1 H 0.9538 0.2148 0.6239
H2 H 0.9699 0.3020 0.6343
C2 C 1.0915(3) 0.2498(2) 0.5697(4)
H3 H 1.1163 0.2956 0.5362
H4 H 1.0962 0.2094 0.5103
C3 C 1.1638(3) 0.2326(3) 0.6984(4)
H5 H 1.1613 0.2741 0.7563
H6 H 1.1359 0.1884 0.7336
C4 C 1.2802(3) 0.2193(3) 0.6906(4)
H7 H 1.2822 0.1820 0.6252
H8 H 1.3114 0.2654 0.6660
C5 C 0.8240(3) 0.3152(2) 0.2865(4)
H9 H 0.8067 0.3479 0.2169
C6 C 0.8168(3) 0.2253(2) 0.4057(4)
H10 H 0.7964 0.1813 0.4413
C7 C 1.4024(3) 0.1236(2) 0.9633(4)
H11 H 1.4112 0.0820 1.0175
C8 C 1.4263(3) 0.2269(2) 0.8896(3)
H12 H 1.4534 0.2743 0.8767
C9 C 0.9573(3) -0.0269(2) -0.0328(4)
H13 H 0.9921 -0.0748 -0.0409
H14 H 0.9251 -0.0087 -0.1187
C10 C 0.8680(3) -0.0378(2) 0.0377(4)
H15 H 0.8267 -0.0828 0.0062
H16 H 0.9009 -0.0450 0.1283
C11 C 0.6687(3) 0.0947(2) -0.0664(4)
H17 H 0.6109 0.1157 -0.1273
C12 C 0.7863(3) 0.0794(2) 0.1009(4)
H18 H 0.8311 0.0851 0.1829
C13 C 0.5298(3) 0.07204(19) 0.5400(3)
C14 C 0.5503(3) 0.04556(19) 0.4270(3)
C15 C 0.5211(3) -0.0259(2) 0.3890(3)
H19 H 0.5360 -0.0438 0.3128
C16 C 0.5632(3) 0.14840(19) 0.5871(3)
C17 C 0.5976(3) 0.0930(2) 0.3391(3)
Cd1B Cd 0.38073(2) -0.208240(13) 0.84727(2)
Cd1_2 Cd 1.61927(2) 0.208240(13) 1.15273(2)
Cd1A Cd 0.38073(2) -0.291760(13) 0.34727(2)
Cd1B_2 Cd -0.61927(2) -0.208240(13) -0.15273(2)
Cd1B_3 Cd 1.38073(2) -0.208240(13) -0.15273(2)
Cd1C Cd 0.61927(2) 0.291760(13) 0.65273(2)
O1B O 0.4686(2) -0.13833(14) 0.7280(2)
O2B O 0.3074(2) -0.08388(15) 0.6701(3)
O3B O 0.3713(2) -0.18237(14) 0.4637(2)
O3A O 0.3713(2) -0.31763(14) 0.9637(2)
O3C O 0.6287(2) 0.31763(14) 0.0363(2)
O4B O 0.4746(2) -0.17455(14) 0.3257(2)
O4A O 0.4746(2) -0.32545(14) 0.8257(2)
O4C O 0.5254(2) 0.32545(14) 0.1743(2)
N1B N 0.1009(2) -0.26756(18) 0.5409(3)
N2B N 0.0940(3) -0.32614(19) 0.6161(3)
N3B N 0.2335(2) -0.25306(17) 0.7051(3)
N4B N -0.3452(3) -0.19411(19) 0.1886(3)
N5B N -0.3284(3) -0.12695(19) 0.1429(3)
N6B N -0.4649(2) -0.18461(18) 0.0114(3)
N6_2 N 0.4649(2) 0.18461(18) -0.0114(3)
N6B_2 N 0.5351(2) -0.18461(18) 1.0114(3)
N7B N 1.2069(2) -0.02502(17) -0.0229(3)
N8B N 1.2825(3) -0.03345(18) 0.0872(3)
N9B N 1.2930(2) -0.12518(17) -0.0475(3)
N9B_2 N 0.2930(2) -0.12518(17) 0.9525(3)
C1B C 0.0250(3) -0.2586(2) 0.4188(4)
H1B H 0.0462 -0.2148 0.3761
H2B H 0.0301 -0.3020 0.3657
C2B C -0.0915(3) -0.2498(2) 0.4303(4)
H3B H -0.1163 -0.2956 0.4638
H4B H -0.0962 -0.2094 0.4897
C3B C -0.1638(3) -0.2326(3) 0.3016(4)
H5B H -0.1613 -0.2741 0.2437
H6B H -0.1359 -0.1884 0.2664
C4B C -0.2802(3) -0.2193(3) 0.3094(4)
H7B H -0.2822 -0.1820 0.3748
H8B H -0.3114 -0.2654 0.3340
C5B C 0.1760(3) -0.3152(2) 0.7135(4)
H9B H 0.1933 -0.3479 0.7831
C6B C 0.1832(3) -0.2253(2) 0.5943(4)
H10B H 0.2036 -0.1813 0.5587
C7B C -0.4024(3) -0.1236(2) 0.0367(4)
H11B H -0.4112 -0.0820 -0.0175
C8B C -0.4263(3) -0.2269(2) 0.1104(3)
H12B H -0.4534 -0.2743 0.1233
C9B C 1.0427(3) 0.0269(2) 0.0328(4)
H13B H 1.0079 0.0748 0.0409
H14B H 1.0749 0.0087 0.1187
C10B C 1.1320(3) 0.0378(2) -0.0377(4)
H15B H 1.1733 0.0828 -0.0062
H16B H 1.0991 0.0450 -0.1283
C11B C 1.3313(3) -0.0947(2) 0.0664(4)
H17B H 1.3891 -0.1157 0.1273
C12B C 1.2137(3) -0.0794(2) -0.1009(4)
H18B H 1.1689 -0.0851 -0.1829
C13B C 0.4702(3) -0.07204(19) 0.4600(3)
C14B C 0.4497(3) -0.04556(19) 0.5730(3)
C15B C 0.4789(3) 0.0259(2) 0.6110(3)
H19B H 0.4640 0.0438 0.6872
C16B C 0.4368(3) -0.14840(19) 0.4129(3)
C17B C 0.4024(3) -0.0930(2) 0.6609(3)
O5 O 1.0395(4) -0.0730(2) 0.4050(4)
H20 H 0.964(3) -0.049(3) 0.370(4)
H21 H 1.110(6) -0.040(5) 0.427(9)
O6 O 1.0281(4) -0.1073(3) 0.6606(4)
H22 H 0.969(6) -0.069(4) 0.653(9)
H23 H 1.057(6) -0.086(4) 0.587(6)
O7 O 0.6887(3) -0.09601(19) 0.7580(3)
H24 H 0.729(7) -0.081(5) 0.692(7)
H25 H 0.615(3) -0.106(3) 0.737(5)
O8 O 0.8185(4) -0.0556(4) 0.6028(5)
H26 H 0.802(3) -0.034(2) 0.515(3)
O9 O 0.8053(3) -0.04217(19) 0.3463(3)
loop_
_geom_bond_atom_site_label_1
_geom_bond_atom_site_label_2
_geom_bond_site_symmetry_1
_geom_bond_site_symmetry_2
Cd1 O1 1_555 1_555
O1 C17 1_555 1_555
O2 C17 1_555 1_555
O3 C16 1_555 1_555
O4 C16 1_555 1_555
N1 N2 1_555 1_555
N2 C5 1_555 1_555
N3 Cd1 1_555 1_555
N4 N5 1_555 1_555
N5 C7 1_555 1_555
N6 C7 1_555 1_555
N7 N8 1_555 1_555
N8 C11 1_555 1_555
N9 Cd1 1_555 1_555
C1 N1 1_555 1_555
H1 C1 1_555 1_555
H2 C1 1_555 1_555
C2 C1 1_555 1_555
H3 C2 1_555 1_555
H4 C2 1_555 1_555
C3 C2 1_555 1_555
H5 C3 1_555 1_555
H6 C3 1_555 1_555
C4 N4 1_555 1_555
H7 C4 1_555 1_555
H8 C4 1_555 1_555
C5 N3 1_555 1_555
H9 C5 1_555 1_555
C6 N1 1_555 1_555
H10 C6 1_555 1_555
C7 H11 1_555 1_555
C8 N4 1_555 1_555
H12 C8 1_555 1_555
C9 H13 1_555 1_555
H14 C9 1_555 1_555
C10 N7 1_555 1_555
H15 C10 1_555 1_555
H16 C10 1_555 1_555
C11 N9 1_555 1_555
H17 C11 1_555 1_555
C12 N7 1_555 1_555
H18 C12 1_555 1_555
C13 C14 1_555 1_555
C14 C15 1_555 1_555
C15 H19 1_555 1_555
C16 C13 1_555 1_555
C17 C14 1_555 1_555
O5 H20 1_555 1_555
H21 O5 1_555 1_555
O6 H22 1_555 1_555
H23 O6 1_555 1_555
O7 H24 1_555 1_555
H25 O7 1_555 1_555
O8 H26 1_555 1_555
Cd1B O1B 1_555 1_555
Cd1_2 N6 1_555 1_555
Cd1A O3B 1_555 1_555
Cd1B_2 N6B 1_555 1_555
Cd1B_3 N9B 1_555 1_555
Cd1C O3 1_555 1_555
O1B C17B 1_555 1_555
O2B C17B 1_555 1_555
O3B C16B 1_555 1_555
O3A Cd1B 1_555 1_555
O3C Cd1 1_555 1_555
O4B Cd1A 1_555 1_555
O4A Cd1B 1_555 1_555
O4C Cd1 1_555 1_555
N1B N2B 1_555 1_555
N2B C5B 1_555 1_555
N3B Cd1B 1_555 1_555
N4B N5B 1_555 1_555
N5B C7B 1_555 1_555
N6B C7B 1_555 1_555
N6_2 Cd1 1_555 1_555
N6B_2 Cd1B 1_555 1_555
N7B N8B 1_555 1_555
N8B C11B 1_555 1_555
N9B C11B 1_555 1_555
N9B_2 Cd1B 1_555 1_555
C1B N1B 1_555 1_555
H1B C1B 1_555 1_555
H2B C1B 1_555 1_555
C2B C1B 1_555 1_555
H3B C2B 1_555 1_555
H4B C2B 1_555 1_555
C3B C2B 1_555 1_555
H5B C3B 1_555 1_555
H6B C3B 1_555 1_555
C4B N4B 1_555 1_555
H7B C4B 1_555 1_555
H8B C4B 1_555 1_555
C5B N3B 1_555 1_555
H9B C5B 1_555 1_555
C6B N1B 1_555 1_555
H10B C6B 1_555 1_555
C7B H11B 1_555 1_555
C8B N4B 1_555 1_555
H12B C8B 1_555 1_555
C9B C9 1_555 1_555
H13B C9B 1_555 1_555
H14B C9B 1_555 1_555
C10B N7B 1_555 1_555
H15B C10B 1_555 1_555
H16B C10B 1_555 1_555
C11B H17B 1_555 1_555
C12B N7B 1_555 1_555
H18B C12B 1_555 1_555
C13B C15 1_555 1_555
C14B C13B 1_555 1_555
C15B C13 1_555 1_555
H19B C15B 1_555 1_555
C16B O4B 1_555 1_555
C17B C14B 1_555 1_555
O4 Cd1C 1_555 1_555
N3 C6 1_555 1_555
N6 C8 1_555 1_555
N9 C12 1_555 1_555
C3 C4 1_555 1_555
C9 C10 1_555 1_555
N3B C6B 1_555 1_555
N6B C8B 1_555 1_555
N9B C12B 1_555 1_555
C3B C4B 1_555 1_555
C9B C10B 1_555 1_555
C13B C16B 1_555 1_555
C14B C15B 1_555 1_555

#END
