
#######################################################################
#
#                 Cambridge Crystallographic Data Centre
#                                CCDC 
#
#######################################################################
#
# If this CIF has been generated from an entry in the Cambridge 
# Structural Database, then it will include bibliographic, chemical, 
# crystal, experimental, refinement or atomic coordinate data resulting 
# from the CCDC's data processing and validation procedures.
#
#######################################################################

data_XOJWUP
_symmetry_cell_setting           monoclinic
_symmetry_space_group_name_H-M   'P 21/n'
_symmetry_Int_Tables_number      14
_space_group_name_Hall           '-P 2yn'
loop_
_symmetry_equiv_pos_site_id
_symmetry_equiv_pos_as_xyz
1 x,y,z
2 1/2-x,1/2+y,1/2-z
3 -x,-y,-z
4 1/2+x,1/2-y,1/2+z
_cell_length_a                   10.547(5)
_cell_length_b                   14.830(6)
_cell_length_c                   16.269(7)
_cell_angle_alpha                90
_cell_angle_beta                 102.428(6)
_cell_angle_gamma                90
_cell_volume                     2485.04
loop_
_atom_site_label
_atom_site_type_symbol
_atom_site_fract_x
_atom_site_fract_y
_atom_site_fract_z
Zn1 Zn 0.13896(12) -0.57848(9) 0.11210(8)
Zn2 Zn 0.09255(12) -0.26543(8) 0.15996(8)
Zn3 Zn 0.34146(10) -0.45283(8) 0.38704(7)
P1 P 0.2899(2) -0.41060(17) 0.19273(16)
P2 P 0.0849(2) -0.13974(18) 0.00842(16)
C1 C 0.4138(10) -0.4056(7) 0.1316(6)
C2 C 0.5346(11) -0.4433(8) 0.1607(7)
H1 H 0.5541 -0.4713 0.2131
C3 C 0.6264(11) -0.4394(8) 0.1119(7)
H2 H 0.7077 -0.4649 0.1324
C4 C 0.6017(10) -0.3989(7) 0.0336(7)
C5 C 0.4816(11) -0.3614(8) 0.0055(7)
H3 H 0.4619 -0.3346 -0.0474
C6 C 0.3886(10) -0.3625(7) 0.0541(7)
H4 H 0.3091 -0.3342 0.0348
C7 C 0.7043(11) -0.3994(8) -0.0193(7)
C8 C 0.2283(10) -0.1192(7) -0.0330(7)
C9 C 0.3514(10) -0.1410(8) 0.0145(7)
H5 H 0.3593 -0.1692 0.0664
C10 C 0.4618(10) -0.1209(8) -0.0154(7)
H6 H 0.5431 -0.1371 0.0160
C11 C 0.4517(10) -0.0773(7) -0.0912(7)
C12 C 0.3307(11) -0.0538(9) -0.1371(7)
H7 H 0.3236 -0.0233 -0.1878
C13 C 0.2198(11) -0.0750(10) -0.1090(8)
H8 H 0.1388 -0.0594 -0.1412
C14 C 0.5705(11) -0.0544(8) -0.1235(7)
N1 N 0.1159(10) -0.6452(6) 0.2193(6)
H9 H 0.1768 -0.6882 0.2332
H10 H 0.1239 -0.6062 0.2626
N2 N -0.0547(9) -0.6062(7) 0.0673(6)
H11 H -0.0961 -0.5578 0.0409
H12 H -0.0646 -0.6526 0.0308
N3 N 0.0277(9) -0.1627(6) 0.2254(6)
H13 H 0.0759 -0.1591 0.2781
H14 H 0.0315 -0.1094 0.1995
N4 N -0.0655(10) -0.3340(7) 0.1768(7)
H15 H -0.1108 -0.3552 0.1273
H16 H -0.0416 -0.3810 0.2118
C15 C -0.0139(11) -0.6858(9) 0.2016(9)
H17 H -0.0435 -0.6925 0.2538
H18 H -0.0098 -0.7453 0.1776
C16 C -0.1074(12) -0.6299(10) 0.1426(8)
H19 H -0.1252 -0.5751 0.1707
H20 H -0.1884 -0.6626 0.1250
C17 C -0.1444(15) -0.2704(10) 0.2132(14)
H21 H -0.2302 -0.2687 0.1767
H22 H -0.1543 -0.2947 0.2668
C18 C -0.1024(18) -0.1854(16) 0.226(2)
H23 H -0.1180 -0.1669 0.2803
H24 H -0.1577 -0.1483 0.1840
O1 O 0.1698(6) -0.4513(5) 0.1356(5)
O2 O 0.3483(7) -0.4669(5) 0.2690(4)
O3 O 0.2583(7) -0.3152(5) 0.2151(5)
O4 O 0.8149(7) -0.4244(6) 0.0143(5)
O5 O 0.6747(9) -0.3745(6) -0.0938(5)
O6 O 0.0992(7) -0.2341(5) 0.0467(4)
O7 O -0.0314(7) -0.1364(5) -0.0650(5)
O8 O 0.0836(7) -0.0703(5) 0.0759(4)
O9 O 0.6802(7) -0.0765(6) -0.0789(5)
O10 O 0.5553(8) -0.0159(7) -0.1931(6)
Zn1B Zn 0.86104(12) -0.42152(9) -0.11210(8)
Zn3C Zn -0.15854(10) -0.04717(8) -0.11296(7)
Zn3A Zn 0.15854(10) 0.04717(8) 0.11296(7)
Zn3C_2 Zn 0.84146(10) -0.04717(8) -0.11296(7)
O4B O 0.1851(7) -0.5756(6) -0.0143(5)
O5B O 0.3253(9) -0.6255(6) 0.0938(5)
O7C O 0.4686(7) -0.3636(5) 0.4350(5)
O8A O 0.4164(7) -0.5703(5) 0.4241(4)
O9C O 0.1802(7) -0.4235(6) 0.4211(5)
loop_
_geom_bond_atom_site_label_1
_geom_bond_atom_site_label_2
_geom_bond_site_symmetry_1
_geom_bond_site_symmetry_2
Zn1 N1 1_555 1_555
Zn2 N3 1_555 1_555
Zn3 O2 1_555 1_555
P1 C1 1_555 1_555
P2 C8 1_555 1_555
C1 C2 1_555 1_555
C2 H1 1_555 1_555
C3 C2 1_555 1_555
H2 C3 1_555 1_555
C4 C3 1_555 1_555
C5 C4 1_555 1_555
H3 C5 1_555 1_555
C6 C1 1_555 1_555
H4 C6 1_555 1_555
C7 C4 1_555 1_555
C8 C9 1_555 1_555
C9 H5 1_555 1_555
C10 C9 1_555 1_555
H6 C10 1_555 1_555
C11 C10 1_555 1_555
C12 C11 1_555 1_555
H7 C12 1_555 1_555
C13 C8 1_555 1_555
H8 C13 1_555 1_555
C14 C11 1_555 1_555
N1 H9 1_555 1_555
H10 N1 1_555 1_555
N2 Zn1 1_555 1_555
H11 N2 1_555 1_555
H12 N2 1_555 1_555
N3 H13 1_555 1_555
H14 N3 1_555 1_555
N4 Zn2 1_555 1_555
H15 N4 1_555 1_555
H16 N4 1_555 1_555
C15 N1 1_555 1_555
H17 C15 1_555 1_555
H18 C15 1_555 1_555
C16 N2 1_555 1_555
H19 C16 1_555 1_555
H20 C16 1_555 1_555
C17 N4 1_555 1_555
H21 C17 1_555 1_555
H22 C17 1_555 1_555
C18 N3 1_555 1_555
H23 C18 1_555 1_555
H24 C18 1_555 1_555
O1 Zn1 1_555 1_555
O2 P1 1_555 1_555
O3 Zn2 1_555 1_555
O4 C7 1_555 1_555
O5 C7 1_555 1_555
O6 Zn2 1_555 1_555
O7 P2 1_555 1_555
O8 P2 1_555 1_555
O9 C14 1_555 1_555
O10 C14 1_555 1_555
Zn1B O4 1_555 1_555
Zn3C O7 1_555 1_555
Zn3A O8 1_555 1_555
Zn3C_2 O9 1_555 1_555
O4B Zn1 1_555 1_555
O5B Zn1 1_555 1_555
O7C Zn3 1_555 1_555
O8A Zn3 1_555 1_555
O9C Zn3 1_555 1_555
P1 O1 1_555 1_555
P1 O3 1_555 1_555
P2 O6 1_555 1_555
C5 C6 1_555 1_555
C12 C13 1_555 1_555
C15 C16 1_555 1_555
C17 C18 1_555 1_555
O5 Zn1B 1_555 1_555

#END
