
#######################################################################
#
#                 Cambridge Crystallographic Data Centre
#                                CCDC 
#
#######################################################################
#
# If this CIF has been generated from an entry in the Cambridge 
# Structural Database, then it will include bibliographic, chemical, 
# crystal, experimental, refinement or atomic coordinate data resulting 
# from the CCDC's data processing and validation procedures.
#
#######################################################################

data_XOJXOK
_symmetry_cell_setting           triclinic
_symmetry_space_group_name_H-M   'P -1'
_symmetry_Int_Tables_number      2
_space_group_name_Hall           '-P 1'
loop_
_symmetry_equiv_pos_site_id
_symmetry_equiv_pos_as_xyz
1 x,y,z
2 -x,-y,-z
_cell_length_a                   7.98670(10)
_cell_length_b                   8.32810(10)
_cell_length_c                   9.60420(10)
_cell_angle_alpha                98.2050(10)
_cell_angle_beta                 100.4110(10)
_cell_angle_gamma                102.4140(10)
_cell_volume                     602.546
loop_
_atom_site_label
_atom_site_type_symbol
_atom_site_fract_x
_atom_site_fract_y
_atom_site_fract_z
La1 La 0.228382(8) 0.710928(8) 0.123009(7)
O1 O -0.04398(11) 0.47614(11) 0.12084(9)
O2 O 0.16520(14) 0.76551(12) -0.17124(11)
O3 O 0.48321(11) 0.79434(11) 0.33670(9)
O4 O 0.58191(12) 0.83904(12) 0.57539(10)
O5 O 0.14545(12) 0.88785(12) 0.33444(10)
H1 H 0.2292(2) 0.9696(11) 0.3802(11)
H2 H 0.0450(3) 0.9085(13) 0.3226(13)
O6 O 0.37808(14) 1.02103(12) 0.13444(10)
H3 H 0.3991(9) 1.0664(9) 0.2219(2)
H4 H 0.4088(13) 1.0846(10) 0.0779(3)
O7 O -0.04245(13) 0.83099(12) 0.04233(12)
H5 H -0.1360(5) 0.7640(3) -0.0024(15)
H6 H -0.0210(7) 0.9277(4) 0.0288(15)
O8 O 0.49551(11) 0.70933(11) 0.00668(10)
O9 O 0.33005(11) 0.43315(11) 0.08578(10)
N1 N 0.21310(12) 0.55317(12) 0.34658(10)
C1 C -0.05205(16) 0.36912(15) 0.20352(13)
C2 C 0.08554(15) 0.41656(15) 0.34179(13)
C3 C 0.07919(16) 0.33350(16) 0.45612(13)
H9 H -0.0073 0.2360 0.4483
C4 C 0.20505(16) 0.39932(16) 0.58279(14)
H10 H 0.2030 0.3475 0.6623
C5 C 0.33358(16) 0.54272(16) 0.58975(14)
H11 H 0.4175 0.5905 0.6745
C6 C 0.33491(15) 0.61366(15) 0.46833(13)
C7 C 0.47821(15) 0.76293(15) 0.46162(14)
C8 C 0.54788(15) 0.57996(15) -0.02283(13)
La1A La -0.228382(8) 0.289072(8) -0.123009(7)
La1A_2 La 0.771618(8) 0.289072(8) -0.123009(7)
O1A O 0.04398(11) 0.52386(11) -0.12084(9)
O2A O -0.16520(14) 0.23449(12) 0.17124(11)
O3A O -0.48321(11) 0.20566(11) -0.33670(9)
O4A O -0.58191(12) 0.16096(12) -0.57539(10)
O5A O -0.14545(12) 0.11215(12) -0.33444(10)
H1A H -0.2292(2) 0.0304(11) -0.3802(11)
H2A H -0.0450(3) 0.0915(13) -0.3226(13)
O6A O -0.37808(14) -0.02103(12) -0.13444(10)
H3A H -0.3991(9) -0.0664(9) -0.2219(2)
H4A H -0.4088(13) -0.0846(10) -0.0779(3)
O7A O 0.04245(13) 0.16901(12) -0.04233(12)
H5A H 0.1360(5) 0.2360(3) 0.0024(15)
H6A H 0.0210(7) 0.0723(4) -0.0288(15)
O8A O 0.50449(11) 0.29067(11) -0.00668(10)
O8A_2 O -0.49551(11) 0.29067(11) -0.00668(10)
O9A O 0.66995(11) 0.56685(11) -0.08578(10)
O9A_2 O -0.33005(11) 0.56685(11) -0.08578(10)
N1A N -0.21310(12) 0.44683(12) -0.34658(10)
C1A C 0.05205(16) 0.63088(15) -0.20352(13)
C2A C -0.08554(15) 0.58344(15) -0.34179(13)
C3A C -0.07919(16) 0.66650(16) -0.45612(13)
H9A H 0.0073 0.7640 -0.4483
C4A C -0.20505(16) 0.60068(16) -0.58279(14)
H10A H -0.2030 0.6525 -0.6623
C5A C -0.33358(16) 0.45728(16) -0.58975(14)
H11A H -0.4175 0.4095 -0.6745
C6A C -0.33491(15) 0.38634(15) -0.46833(13)
C7A C -0.47821(15) 0.23707(15) -0.46162(14)
C8A C 0.45212(15) 0.42004(15) 0.02283(13)
O10 O 0.18784(13) 0.04628(13) 0.70804(14)
H7 H 0.1905(5) -0.0378(3) 0.7475(4)
H8 H 0.2832(7) 0.0903(6) 0.6859(6)
loop_
_geom_bond_atom_site_label_1
_geom_bond_atom_site_label_2
_geom_bond_site_symmetry_1
_geom_bond_site_symmetry_2
La1 O1 1_555 1_555
O1 C1 1_555 1_555
O2 La1 1_555 1_555
O3 La1 1_555 1_555
O4 C7 1_555 1_555
O5 La1 1_555 1_555
H1 O5 1_555 1_555
H2 O5 1_555 1_555
O6 La1 1_555 1_555
H3 O6 1_555 1_555
H4 O6 1_555 1_555
O7 La1 1_555 1_555
H5 O7 1_555 1_555
H6 O7 1_555 1_555
O8 La1 1_555 1_555
O9 La1 1_555 1_555
O10 H7 1_555 1_555
H8 O10 1_555 1_555
N1 La1 1_555 1_555
C1 C2 1_555 1_555
C2 N1 1_555 1_555
C3 C2 1_555 1_555
H9 C3 1_555 1_555
C4 C3 1_555 1_555
H10 C4 1_555 1_555
C5 C4 1_555 1_555
H11 C5 1_555 1_555
C6 N1 1_555 1_555
C7 O3 1_555 1_555
C8 O8 1_555 1_555
La1A O1 1_555 1_555
La1A_2 O8A 1_555 1_555
O1A La1 1_555 1_555
O2A C1 1_555 1_555
O3A La1A 1_555 1_555
O4A C7A 1_555 1_555
O5A La1A 1_555 1_555
H1A O5A 1_555 1_555
H2A O5A 1_555 1_555
O6A La1A 1_555 1_555
H3A O6A 1_555 1_555
H4A O6A 1_555 1_555
O7A La1A 1_555 1_555
H5A O7A 1_555 1_555
H6A O7A 1_555 1_555
O8A C8A 1_555 1_555
O8A_2 La1A 1_555 1_555
O9A C8 1_555 1_555
O9A_2 La1A 1_555 1_555
N1A La1A 1_555 1_555
C1A O2 1_555 1_555
C2A N1A 1_555 1_555
C3A C2A 1_555 1_555
H9A C3A 1_555 1_555
C4A C3A 1_555 1_555
H10A C4A 1_555 1_555
C5A C4A 1_555 1_555
H11A C5A 1_555 1_555
C6A N1A 1_555 1_555
C7A O3A 1_555 1_555
C8A O9 1_555 1_555
C5 C6 1_555 1_555
C6 C7 1_555 1_555
C8 C8A 1_555 1_555
La1A O1A 1_555 1_555
La1A O2A 1_555 1_555
La1A_2 O9A 1_555 1_555
O1A C1A 1_555 1_555
C1A C2A 1_555 1_555
C5A C6A 1_555 1_555
C6A C7A 1_555 1_555

#END
