
#######################################################################
#
#                 Cambridge Crystallographic Data Centre
#                                CCDC 
#
#######################################################################
#
# If this CIF has been generated from an entry in the Cambridge 
# Structural Database, then it will include bibliographic, chemical, 
# crystal, experimental, refinement or atomic coordinate data resulting 
# from the CCDC's data processing and validation procedures.
#
#######################################################################

data_XOJYEB01
_symmetry_cell_setting           triclinic
_symmetry_space_group_name_H-M   'P -1'
_symmetry_Int_Tables_number      2
_space_group_name_Hall           '-P 1'
loop_
_symmetry_equiv_pos_site_id
_symmetry_equiv_pos_as_xyz
1 x,y,z
2 -x,-y,-z
_cell_length_a                   8.1028(17)
_cell_length_b                   10.463(2)
_cell_length_c                   12.968(3)
_cell_angle_alpha                94.072(2)
_cell_angle_beta                 103.020(2)
_cell_angle_gamma                107.465(2)
_cell_volume                     1010.35
loop_
_atom_site_label
_atom_site_type_symbol
_atom_site_fract_x
_atom_site_fract_y
_atom_site_fract_z
Er1 Er 0.33270(4) 0.02962(3) 0.18920(2)
Er2 Er -0.22187(4) -0.32176(3) 0.39438(2)
O1 O 0.0520(7) -0.1391(6) 0.1491(4)
O2 O -0.0443(7) -0.1805(5) 0.2961(4)
O3 O -0.4194(7) -0.5500(5) 0.3410(4)
O4 O -0.5351(8) -0.7450(5) 0.2315(4)
O5 O 0.5709(7) 0.0305(5) 0.3371(4)
O6 O 0.7419(7) -0.0908(5) 0.4096(4)
O7 O 0.5180(7) -0.3105(5) 0.2712(4)
O8 O 0.3733(8) -0.1810(6) 0.1878(4)
O9 O 0.3928(7) -0.0717(6) -0.1327(4)
O10 O 0.2773(7) -0.0273(6) 0.0015(4)
O11 O -0.1692(7) -0.4525(5) 0.5385(4)
O12 O 0.0180(7) -0.4125(5) 0.3912(4)
N1 N -0.2478(8) -0.4250(6) 0.2107(5)
C1 C -0.1564(11) -0.3544(8) 0.1480(6)
C2 C -0.1671(13) -0.4108(9) 0.0459(6)
H1 H -0.1022 -0.3598 0.0036
C3 C -0.2737(15) -0.5423(9) 0.0073(6)
H2 H -0.2803 -0.5816 -0.0608
C4 C -0.3718(13) -0.6162(9) 0.0714(6)
H3 H -0.4475 -0.7047 0.0466
C5 C -0.3530(10) -0.5532(8) 0.1739(6)
C6 C -0.0395(10) -0.2135(8) 0.2008(6)
C7 C -0.4427(10) -0.6216(7) 0.2554(5)
C8 C 0.6137(10) -0.0759(8) 0.3441(5)
C9 C 0.4902(11) -0.2011(8) 0.2605(6)
C10 C 0.4065(10) -0.0272(8) -0.0363(6)
C11 C -0.0557(10) -0.5120(8) 0.5421(6)
O13 O 0.1176(8) 0.1363(6) 0.1125(5)
H4 H 0.0407 0.0770 0.0651
H5 H 0.0662 0.1630 0.1560
O14 O 0.2237(8) 0.0631(6) 0.3355(4)
H6 H 0.1502 -0.0079 0.3410
H7 H 0.2616 0.1175 0.3920
O15 O 0.0101(7) -0.1756(5) 0.5358(4)
H8 H 0.0639 -0.1084 0.5133
H9 H 0.0511 -0.1732 0.6008
O16 O -0.4072(7) -0.3143(5) 0.5099(4)
H10 H -0.5101 -0.3281 0.4744
H11 H -0.4039 -0.3464 0.5668
Er1_2 Er 1.33270(4) 1.02962(3) 0.18920(2)
Er1_3 Er -0.66730(4) -0.97038(3) 0.18920(2)
Er1A Er 0.66730(4) -0.02962(3) -0.18920(2)
Er1_4 Er -0.66730(4) 0.02962(3) 0.18920(2)
Er2_2 Er 0.77813(4) -0.32176(3) 0.39438(2)
Er2_3 Er 0.77813(4) 0.67824(3) 0.39438(2)
Er2A Er 0.22187(4) -0.67824(3) 0.60562(2)
O1_2 O 1.0520(7) 0.8609(6) 0.1491(4)
O2_2 O 0.9557(7) 0.8195(5) 0.2961(4)
O3_2 O 0.5806(7) 0.4500(5) 0.3410(4)
O4_2 O 0.4649(8) 0.2550(5) 0.2315(4)
O4_3 O 1.4649(8) 1.2550(5) 0.2315(4)
O5_2 O 1.5709(7) 1.0305(5) 0.3371(4)
O5_3 O -0.4291(7) 0.0305(5) 0.3371(4)
O6_2 O -0.2581(7) -0.0908(5) 0.4096(4)
O6_3 O 0.7419(7) 0.9092(5) 0.4096(4)
O7_2 O -0.4820(7) -0.3105(5) 0.2712(4)
O7_3 O 0.5180(7) 0.6895(5) 0.2712(4)
O8_2 O 1.3733(8) 0.8190(6) 0.1878(4)
O8_3 O -0.6267(8) -0.1810(6) 0.1878(4)
O9A O 0.6072(7) 0.0717(6) 0.1327(4)
O9A_2 O 1.6072(7) 1.0717(6) 0.1327(4)
O10A O 0.7227(7) 0.0273(6) -0.0015(4)
O10_2 O 1.2773(7) 0.9727(6) 0.0015(4)
O11_2 O 0.8308(7) 0.5475(5) 0.5385(4)
O11A O 0.1692(7) -0.5475(5) 0.4615(4)
O12_2 O 1.0180(7) 0.5875(5) 0.3912(4)
O12A O -0.0180(7) -0.5875(5) 0.6088(4)
N1_2 N 0.7522(8) 0.5750(6) 0.2107(5)
C1_2 C 0.8436(11) 0.6456(8) 0.1480(6)
C2_2 C 0.8329(13) 0.5892(9) 0.0459(6)
H1_2 H 0.8978 0.6402 0.0036
C3_2 C 0.7263(15) 0.4577(9) 0.0073(6)
H2_2 H 0.7197 0.4184 -0.0608
C4_2 C 0.6282(13) 0.3838(9) 0.0714(6)
H3_2 H 0.5525 0.2953 0.0466
C5_2 C 0.6470(10) 0.4468(8) 0.1739(6)
C6_2 C 0.9605(10) 0.7865(8) 0.2008(6)
C7_2 C 0.5573(10) 0.3784(7) 0.2554(5)
C8_2 C -0.3863(10) -0.0759(8) 0.3441(5)
C9_2 C -0.5098(11) -0.2011(8) 0.2605(6)
C10A C 0.5935(10) 0.0272(8) 0.0363(6)
C11A C 0.0557(10) -0.4880(8) 0.4579(6)
O13_2 O 1.1176(8) 1.1363(6) 0.1125(5)
H4_2 H 1.0407 1.0770 0.0651
H5_2 H 1.0662 1.1630 0.1560
O14_2 O 1.2237(8) 1.0631(6) 0.3355(4)
H6_2 H 1.1502 0.9921 0.3410
H7_2 H 1.2616 1.1175 0.3920
O15_2 O 1.0101(7) 0.8244(5) 0.5358(4)
H8_2 H 1.0639 0.8916 0.5133
H9_2 H 1.0511 0.8268 0.6008
O16_2 O 0.5928(7) 0.6857(5) 0.5099(4)
H10_2 H 0.4899 0.6719 0.4744
H11_2 H 0.5961 0.6536 0.5668
O17 O 0.3545(7) -0.1901(6) 0.4606(4)
H12 H 0.3654 -0.1307 0.4211
H13 H 0.2487 -0.2369 0.4512
O18 O 0.0731(14) -0.2372(9) 0.7356(7)
H14 H 0.0095 -0.2961 0.6815
H15 H 0.0594 -0.2485 0.7961
O19 O 0.8447(12) -0.4646(11) 0.7779(6)
H16 H 0.9071 -0.5086 0.7614
H17 H 0.7381 -0.5130 0.7655
loop_
_geom_bond_atom_site_label_1
_geom_bond_atom_site_label_2
_geom_bond_site_symmetry_1
_geom_bond_site_symmetry_2
Er1 O1 1_555 1_555
Er2 O2 1_555 1_555
O1 C6 1_555 1_555
O2 C6 1_555 1_555
O3 Er2 1_555 1_555
O4 C7 1_555 1_555
O5 Er1 1_555 1_555
O6 C8 1_555 1_555
O7 C9 1_555 1_555
O8 Er1 1_555 1_555
O9 C10 1_555 1_555
O10 Er1 1_555 1_555
O11 Er2 1_555 1_555
O12 Er2 1_555 1_555
N1 Er2 1_555 1_555
C1 N1 1_555 1_555
C2 C1 1_555 1_555
H1 C2 1_555 1_555
C3 C2 1_555 1_555
H2 C3 1_555 1_555
C4 C3 1_555 1_555
H3 C4 1_555 1_555
C5 N1 1_555 1_555
C6 C1 1_555 1_555
C7 O3 1_555 1_555
C8 O5 1_555 1_555
C9 O8 1_555 1_555
C10 O10 1_555 1_555
C11 O11 1_555 1_555
O13 Er1 1_555 1_555
H4 O13 1_555 1_555
H5 O13 1_555 1_555
O14 Er1 1_555 1_555
H6 O14 1_555 1_555
H7 O14 1_555 1_555
O15 Er2 1_555 1_555
H8 O15 1_555 1_555
H9 O15 1_555 1_555
O16 Er2 1_555 1_555
H10 O16 1_555 1_555
H11 O16 1_555 1_555
O17 H12 1_555 1_555
H13 O17 1_555 1_555
O18 H14 1_555 1_555
H15 O18 1_555 1_555
O19 H16 1_555 1_555
H17 O19 1_555 1_555
Er1_2 O1_2 1_555 1_555
Er1_3 O4 1_555 1_555
Er1A O9 1_555 1_555
Er1_4 O5_3 1_555 1_555
Er2_2 O6 1_555 1_555
Er2_3 O2_2 1_555 1_555
Er2A O11A 1_555 1_555
O1_2 C6_2 1_555 1_555
O2_2 C6_2 1_555 1_555
O3_2 Er2_3 1_555 1_555
O4_2 Er1 1_555 1_555
O4_3 Er1_2 1_555 1_555
O5_2 Er1_2 1_555 1_555
O5_3 C8_2 1_555 1_555
O6_2 Er2 1_555 1_555
O6_3 Er2_3 1_555 1_555
O7_2 Er2 1_555 1_555
O7_3 Er2_3 1_555 1_555
O8_2 Er1_2 1_555 1_555
O8_3 Er1_4 1_555 1_555
O9A Er1 1_555 1_555
O9A_2 Er1_2 1_555 1_555
O10A Er1A 1_555 1_555
O10_2 Er1_2 1_555 1_555
O11_2 Er2_3 1_555 1_555
O11A C11A 1_555 1_555
O12_2 Er2_3 1_555 1_555
O12A C11 1_555 1_555
N1_2 Er2_3 1_555 1_555
C1_2 N1_2 1_555 1_555
C2_2 C1_2 1_555 1_555
H1_2 C2_2 1_555 1_555
C3_2 C2_2 1_555 1_555
H2_2 C3_2 1_555 1_555
C4_2 C3_2 1_555 1_555
H3_2 C4_2 1_555 1_555
C5_2 N1_2 1_555 1_555
C6_2 C1_2 1_555 1_555
C7_2 O3_2 1_555 1_555
C8_2 O6_2 1_555 1_555
C9_2 O7_2 1_555 1_555
C10A C10 1_555 1_555
C11A O12 1_555 1_555
O13_2 Er1_2 1_555 1_555
H4_2 O13_2 1_555 1_555
H5_2 O13_2 1_555 1_555
O14_2 Er1_2 1_555 1_555
H6_2 O14_2 1_555 1_555
H7_2 O14_2 1_555 1_555
O15_2 Er2_3 1_555 1_555
H8_2 O15_2 1_555 1_555
H9_2 O15_2 1_555 1_555
O16_2 Er2_3 1_555 1_555
H10_2 O16_2 1_555 1_555
H11_2 O16_2 1_555 1_555
O7 Er2_2 1_555 1_555
C4 C5 1_555 1_555
C5 C7 1_555 1_555
C8 C9 1_555 1_555
C11 C11A 1_555 1_555
Er2A O12A 1_555 1_555
O4_2 C7_2 1_555 1_555
O8_3 C9_2 1_555 1_555
O9A C10A 1_555 1_555
O10A C10A 1_555 1_555
C4_2 C5_2 1_555 1_555
C5_2 C7_2 1_555 1_555
C8_2 C9_2 1_555 1_555

#END
