
#######################################################################
#
#                 Cambridge Crystallographic Data Centre
#                                CCDC 
#
#######################################################################
#
# If this CIF has been generated from an entry in the Cambridge 
# Structural Database, then it will include bibliographic, chemical, 
# crystal, experimental, refinement or atomic coordinate data resulting 
# from the CCDC's data processing and validation procedures.
#
#######################################################################

data_XOJYAX01
_symmetry_cell_setting           triclinic
_symmetry_space_group_name_H-M   'P -1'
_symmetry_Int_Tables_number      2
_space_group_name_Hall           '-P 1'
loop_
_symmetry_equiv_pos_site_id
_symmetry_equiv_pos_as_xyz
1 x,y,z
2 -x,-y,-z
_cell_length_a                   8.2170(6)
_cell_length_b                   10.5900(8)
_cell_length_c                   13.0670(3)
_cell_angle_alpha                93.951(3)
_cell_angle_beta                 103.393(5)
_cell_angle_gamma                107.797(6)
_cell_volume                     1041.16
loop_
_atom_site_label
_atom_site_type_symbol
_atom_site_fract_x
_atom_site_fract_y
_atom_site_fract_z
O17 O 0.1454(3) 0.1918(2) 0.5400(2)
H9 H 0.1425 0.1457 0.4847
H10 H 0.2642 0.2469 0.5612
O18 O 0.4463(7) 0.2276(6) 0.2539(4)
O19 O 0.6341(8) 0.4865(6) 0.2200(4)
Eu1 Eu 0.277079(15) 0.679018(12) 0.395285(9)
Eu2 Eu -0.172863(17) 0.028522(12) 0.188316(10)
O1 O 0.0774(3) 0.4483(2) 0.33868(17)
O2 O -0.0379(3) 0.2570(2) 0.22659(19)
O3 O 0.4513(3) 0.8184(2) 0.29144(17)
O4 O 0.5420(3) 0.8569(2) 0.14504(18)
O5 O 0.0677(3) 1.02674(19) 0.33842(16)
O6 O 0.2365(3) 0.9071(2) 0.40880(16)
O7 O -0.1320(3) 0.8161(2) 0.18945(19)
O8 O 0.0131(3) 0.6894(2) 0.27174(17)
O9 O 0.5197(3) 0.5892(2) 0.39363(17)
O10 O 0.6645(3) 0.4531(2) 0.46110(17)
O11 O 0.1035(3) 0.0695(3) 0.13201(17)
O12 O 0.2216(3) 0.0271(2) 0.00100(17)
O13 O 0.0912(3) 0.6852(2) 0.51409(18)
H1 H 0.0763 0.6473 0.5752
H2 H 0.0042 0.7151 0.4916
O14 O 0.5154(3) 0.8305(2) 0.53853(18)
H3 H 0.5568 0.9222 0.5371
H4 H 0.5576 0.8012 0.5925
O15 O -0.2837(3) 0.0595(2) 0.33744(19)
H5 H -0.3734 -0.0075 0.3445
H6 H -0.2413 0.1157 0.3965
O16 O -0.3928(4) 0.1332(3) 0.1102(2)
H7 H -0.5053 0.0986 0.1106
H8 H -0.3705 0.1926 0.0692
N1 N 0.2485(3) 0.5733(2) 0.20830(18)
C1 C 0.0536(4) 0.3780(3) 0.2517(2)
C2 C 0.1448(4) 0.4462(3) 0.1727(2)
C3 C 0.1270(5) 0.3841(3) 0.0717(3)
H11 H 0.0442 0.2997 0.0496
C4 C 0.2211(6) 0.4558(4) 0.0071(3)
H12 H 0.2081 0.4203 -0.0634
C5 C 0.3294(5) 0.5878(4) 0.0447(3)
H13 H 0.3758 0.6406 0.0004
C6 C 0.3384(4) 0.6428(3) 0.1460(2)
C7 C 0.4535(4) 0.7839(3) 0.1972(2)
C8 C 0.1076(4) 0.9221(3) 0.3438(2)
C9 C -0.0146(4) 0.7983(3) 0.2614(2)
C10 C 0.5537(3) 0.5118(3) 0.4587(2)
C11 C 0.0943(4) 0.0284(3) 0.0381(2)
Eu1A Eu 0.722921(15) 0.320982(12) 0.604715(9)
Eu1_2 Eu -0.722921(15) -0.320982(12) 0.395285(9)
Eu1_3 Eu 0.277079(15) -0.320982(12) 0.395285(9)
Eu2_2 Eu 0.827137(17) 1.028522(12) 0.188316(10)
Eu2_3 Eu -0.172863(17) 1.028522(12) 0.188316(10)
Eu2A Eu 0.172863(17) -0.028522(12) -0.188316(10)
Eu2_4 Eu -1.172863(17) -0.971478(12) 0.188316(10)
O1_2 O -0.9226(3) -0.5517(2) 0.33868(17)
O1A O 0.9226(3) 0.5517(2) 0.66132(17)
O2_2 O -1.0379(3) -0.7430(2) 0.22659(19)
O2_3 O 0.9621(3) 1.2570(2) 0.22659(19)
O3_2 O -0.5487(3) -0.1816(2) 0.29144(17)
O3A O 0.5487(3) 0.1816(2) 0.70856(17)
O4_2 O -0.4580(3) -0.1431(2) 0.14504(18)
O5_2 O 0.0677(3) 0.02674(19) 0.33842(16)
O5_3 O 1.0677(3) 1.02674(19) 0.33842(16)
O6_2 O 0.2365(3) -0.0929(2) 0.40880(16)
O6A O 0.7635(3) 0.0929(2) 0.59120(16)
O7_2 O -0.1320(3) -0.1839(2) 0.18945(19)
O7_3 O 0.8680(3) 0.8161(2) 0.18945(19)
O8_2 O 0.0131(3) -0.3106(2) 0.27174(17)
O8A O 0.9869(3) 0.3106(2) 0.72826(17)
O9A O 0.4803(3) 0.4108(2) 0.60637(17)
O10A O 0.3355(3) 0.5469(2) 0.53890(17)
O11A O -0.1035(3) -0.0695(3) -0.13201(17)
O11_2 O 1.1035(3) 1.0695(3) 0.13201(17)
O12A O -0.2216(3) -0.0271(2) -0.00100(17)
O12A_2 O 0.7784(3) 0.9729(2) -0.00100(17)
O13A O 0.9088(3) 0.3148(2) 0.48591(18)
H1A H 0.9237 0.3527 0.4248
H2A H 0.9958 0.2849 0.5084
O14A O 0.4846(3) 0.1695(2) 0.46147(18)
H3A H 0.4432 0.0778 0.4629
H4A H 0.4424 0.1988 0.4075
O15_2 O 0.7163(3) 1.0595(2) 0.33744(19)
H5_2 H 0.6266 0.9925 0.3445
H6_2 H 0.7587 1.1157 0.3965
O16_2 O 0.6072(4) 1.1332(3) 0.1102(2)
H7_2 H 0.4947 1.0986 0.1106
H8_2 H 0.6295 1.1926 0.0692
N1_2 N -0.7515(3) -0.4267(2) 0.20830(18)
N1A N 0.7515(3) 0.4267(2) 0.79170(18)
C1_2 C -0.9464(4) -0.6220(3) 0.2517(2)
C2_2 C -0.8552(4) -0.5538(3) 0.1727(2)
C3_2 C -0.8730(5) -0.6159(3) 0.0717(3)
H11_2 H -0.9558 -0.7003 0.0496
C4_2 C -0.7789(6) -0.5442(4) 0.0071(3)
H12_2 H -0.7919 -0.5797 -0.0634
C5_2 C -0.6706(5) -0.4122(4) 0.0447(3)
H13_2 H -0.6242 -0.3594 0.0004
C6_2 C -0.6616(4) -0.3572(3) 0.1460(2)
C7_2 C -0.5465(4) -0.2161(3) 0.1972(2)
C8_2 C 0.1076(4) -0.0779(3) 0.3438(2)
C9_2 C -0.0146(4) -0.2017(3) 0.2614(2)
C10A C 0.4463(3) 0.4882(3) 0.5413(2)
C11A C -0.0943(4) -0.0284(3) -0.0381(2)
O20? O 0.3773(9) 0.2583(7) 0.2841(5)
O21? O 0.6783(10) 0.4327(8) 0.2293(6)
loop_
_geom_bond_atom_site_label_1
_geom_bond_atom_site_label_2
_geom_bond_site_symmetry_1
_geom_bond_site_symmetry_2
Eu1 O1 1_555 1_555
Eu2 O2 1_555 1_555
O1 C1 1_555 1_555
O2 C1 1_555 1_555
O3 Eu1 1_555 1_555
O4 C7 1_555 1_555
O5 C8 1_555 1_555
O6 Eu1 1_555 1_555
O7 C9 1_555 1_555
O8 Eu1 1_555 1_555
O9 Eu1 1_555 1_555
O10 C10 1_555 1_555
O11 Eu2 1_555 1_555
O12 C11 1_555 1_555
O13 Eu1 1_555 1_555
H1 O13 1_555 1_555
H2 O13 1_555 1_555
O14 Eu1 1_555 1_555
H3 O14 1_555 1_555
H4 O14 1_555 1_555
O15 Eu2 1_555 1_555
H5 O15 1_555 1_555
H6 O15 1_555 1_555
O16 Eu2 1_555 1_555
H7 O16 1_555 1_555
H8 O16 1_555 1_555
O17 H9 1_555 1_555
H10 O17 1_555 1_555
N1 Eu1 1_555 1_555
C1 C2 1_555 1_555
C2 N1 1_555 1_555
C3 C2 1_555 1_555
H11 C3 1_555 1_555
C4 C3 1_555 1_555
H12 C4 1_555 1_555
C5 C4 1_555 1_555
H13 C5 1_555 1_555
C6 N1 1_555 1_555
C7 O3 1_555 1_555
C8 O6 1_555 1_555
C9 O8 1_555 1_555
C10 O9 1_555 1_555
C11 O11 1_555 1_555
Eu1A O10 1_555 1_555
Eu1_2 O1_2 1_555 1_555
Eu1_3 O6_2 1_555 1_555
Eu2_2 O4 1_555 1_555
Eu2_3 O5 1_555 1_555
Eu2A O12 1_555 1_555
Eu2_4 O2_2 1_555 1_555
O1_2 C1_2 1_555 1_555
O1A Eu1A 1_555 1_555
O2_2 C1_2 1_555 1_555
O2_3 Eu2_2 1_555 1_555
O3_2 Eu1_2 1_555 1_555
O3A Eu1A 1_555 1_555
O4_2 Eu2 1_555 1_555
O5_2 Eu2 1_555 1_555
O5_3 Eu2_2 1_555 1_555
O6_2 C8_2 1_555 1_555
O6A Eu1A 1_555 1_555
O7_2 Eu2 1_555 1_555
O7_3 Eu2_2 1_555 1_555
O8_2 Eu1_3 1_555 1_555
O8A Eu1A 1_555 1_555
O9A Eu1A 1_555 1_555
O10A Eu1 1_555 1_555
O11A Eu2A 1_555 1_555
O11_2 Eu2_2 1_555 1_555
O12A Eu2 1_555 1_555
O12A_2 Eu2_2 1_555 1_555
O13A Eu1A 1_555 1_555
H1A O13A 1_555 1_555
H2A O13A 1_555 1_555
O14A Eu1A 1_555 1_555
H3A O14A 1_555 1_555
H4A O14A 1_555 1_555
O15_2 Eu2_2 1_555 1_555
H5_2 O15_2 1_555 1_555
H6_2 O15_2 1_555 1_555
O16_2 Eu2_2 1_555 1_555
H7_2 O16_2 1_555 1_555
H8_2 O16_2 1_555 1_555
N1_2 Eu1_2 1_555 1_555
N1A Eu1A 1_555 1_555
C1_2 C2_2 1_555 1_555
C2_2 N1_2 1_555 1_555
C3_2 C2_2 1_555 1_555
H11_2 C3_2 1_555 1_555
C4_2 C3_2 1_555 1_555
H12_2 C4_2 1_555 1_555
C5_2 C4_2 1_555 1_555
H13_2 C5_2 1_555 1_555
C6_2 N1_2 1_555 1_555
C7_2 O3_2 1_555 1_555
C8_2 O5_2 1_555 1_555
C9_2 O7_2 1_555 1_555
C10A C10 1_555 1_555
C11A C11 1_555 1_555
O7 Eu2_3 1_555 1_555
C5 C6 1_555 1_555
C6 C7 1_555 1_555
C8 C9 1_555 1_555
O4_2 C7_2 1_555 1_555
O8_2 C9_2 1_555 1_555
O9A C10A 1_555 1_555
O10A C10A 1_555 1_555
O11A C11A 1_555 1_555
O12A C11A 1_555 1_555
C5_2 C6_2 1_555 1_555
C6_2 C7_2 1_555 1_555
C8_2 C9_2 1_555 1_555

#END
