
#######################################################################
#
#                 Cambridge Crystallographic Data Centre
#                                CCDC 
#
#######################################################################
#
# If this CIF has been generated from an entry in the Cambridge 
# Structural Database, then it will include bibliographic, chemical, 
# crystal, experimental, refinement or atomic coordinate data resulting 
# from the CCDC's data processing and validation procedures.
#
#######################################################################

data_XOKDUX
_symmetry_cell_setting           monoclinic
_symmetry_space_group_name_H-M   'P 21/c'
_symmetry_Int_Tables_number      14
_space_group_name_Hall           '-P 2ybc'
loop_
_symmetry_equiv_pos_site_id
_symmetry_equiv_pos_as_xyz
1 x,y,z
2 -x,1/2+y,1/2-z
3 -x,-y,-z
4 x,1/2-y,1/2+z
_cell_length_a                   15.2662(9)
_cell_length_b                   17.8828(10)
_cell_length_c                   16.1926(10)
_cell_angle_alpha                90
_cell_angle_beta                 93.456(2)
_cell_angle_gamma                90
_cell_volume                     4412.58
loop_
_atom_site_label
_atom_site_type_symbol
_atom_site_fract_x
_atom_site_fract_y
_atom_site_fract_z
Mn1 Mn -0.53985(8) 0.40386(7) 0.16528(6)
Mn2 Mn -0.49635(8) 0.31719(7) 0.33150(6)
Mn3 Mn -0.38984(8) 0.27066(7) 0.17508(6)
Na1 Na -0.3554(2) 0.26177(19) 0.47016(18)
O1 O -0.5984(4) 0.4788(3) 0.1050(3)
O2 O -0.4171(4) 0.3178(3) 0.0703(3)
N1 N -0.4876(4) 0.3666(4) 0.0628(4)
O3 O -0.5020(4) 0.3094(3) 0.4461(3)
O4 O -0.5356(4) 0.4646(3) 0.2626(3)
N2 N -0.5361(5) 0.4229(4) 0.3352(4)
O5 O -0.3274(4) 0.2005(3) 0.1160(3)
O6 O -0.4470(4) 0.2195(3) 0.3350(3)
N3 N -0.3979(4) 0.1971(4) 0.2690(3)
O7 O -0.6564(4) 0.3485(3) 0.1851(3)
O8 O -0.6273(4) 0.2797(3) 0.2971(3)
O9 O -0.2841(4) 0.3229(3) 0.2333(3)
O10 O -0.3328(4) 0.3546(4) 0.3571(3)
O11 O -0.4733(3) 0.3301(3) 0.2197(3)
O12 O -0.2308(5) 0.2079(5) 0.4287(5)
C1 C -0.6216(5) 0.4797(5) 0.0243(4)
C2 C -0.6877(6) 0.5316(5) -0.0031(5)
H1 H -0.7147 0.5614 0.0349
C3 C -0.7114(6) 0.5373(6) -0.0853(5)
H2 H -0.7569 0.5693 -0.1026
C4 C -0.6679(7) 0.4955(5) -0.1450(5)
H3 H -0.6825 0.5016 -0.2012
C5 C -0.6052(6) 0.4468(5) -0.1185(5)
H4 H -0.5773 0.4187 -0.1575
C6 C -0.5805(5) 0.4368(4) -0.0348(4)
C7 C -0.5119(5) 0.3855(5) -0.0119(4)
H5 H -0.4823 0.3639 -0.0544
C8 C -0.5456(5) 0.3542(5) 0.4968(5)
C9 C -0.5563(6) 0.3255(5) 0.5768(4)
H6 H -0.5377 0.2773 0.5901
C10 C -0.5944(6) 0.3688(5) 0.6354(5)
H7 H -0.6028 0.3488 0.6874
C11 C -0.6195(6) 0.4396(6) 0.6186(5)
H8 H -0.6430 0.4688 0.6594
C12 C -0.6102(6) 0.4696(5) 0.5386(5)
H9 H -0.6286 0.5181 0.5260
C13 C -0.5722(5) 0.4245(5) 0.4777(4)
C14 C -0.5665(5) 0.4594(5) 0.3964(4)
H10 H -0.5851 0.5086 0.3886
C15 C -0.2918(5) 0.1358(5) 0.1391(5)
C16 C -0.2370(6) 0.0997(5) 0.0875(5)
H11 H -0.2242 0.1222 0.0379
C17 C -0.2008(7) 0.0309(6) 0.1076(6)
H12 H -0.1664 0.0068 0.0703
C18 C -0.2147(7) -0.0022(6) 0.1814(6)
H13 H -0.1879 -0.0475 0.1957
C19 C -0.2694(6) 0.0325(4) 0.2351(5)
H14 H -0.2805 0.0092 0.2847
C20 C -0.3071(5) 0.0998(4) 0.2169(4)
C21 C -0.3641(5) 0.1323(5) 0.2762(4)
H15 H -0.3765 0.1039 0.3222
C22 C -0.6761(6) 0.2996(5) 0.2367(5)
C23 C -0.7650(6) 0.2645(6) 0.2255(5)
C24 C -0.8308(7) 0.3004(7) 0.1807(6)
H16 H -0.8203 0.3470 0.1579
C25 C -0.9139(8) 0.2677(11) 0.1688(8)
H17 H -0.9591 0.2930 0.1397
C26 C -0.9275(9) 0.1986(12) 0.2003(9)
H18 H -0.9822 0.1761 0.1917
C27 C -0.8614(10) 0.1616(9) 0.2448(8)
H19 H -0.8715 0.1142 0.2658
C28 C -0.7794(8) 0.1950(7) 0.2584(7)
H20 H -0.7349 0.1706 0.2894
C29 C -0.2772(5) 0.3549(5) 0.3023(5)
C30 C -0.1925(6) 0.3961(5) 0.3193(5)
C31 C -0.1820(6) 0.4491(5) 0.3816(5)
H21 H -0.2281 0.4587 0.4151
C32 C -0.1044(8) 0.4876(8) 0.3949(7)
H22 H -0.0983 0.5217 0.4381
C33 C -0.0367(8) 0.4764(9) 0.3458(8)
H23 H 0.0156 0.5027 0.3552
C34 C -0.0461(8) 0.4266(11) 0.2831(9)
H24 H -0.0002 0.4196 0.2486
C35 C -0.1225(7) 0.3858(8) 0.2691(7)
H25 H -0.1273 0.3514 0.2260
C36 C -0.1048(10) 0.1829(11) 0.3528(10)
H26 H -0.1336 0.1393 0.3297
H27 H -0.1053 0.2217 0.3119
H28 H -0.0452 0.1707 0.3700
C37 C -0.1539(9) 0.2104(8) 0.4290(8)
C38 C -0.1031(13) 0.2378(18) 0.4985(16)
H29 H -0.1397 0.2434 0.5443
H30 H -0.0566 0.2033 0.5131
H31 H -0.0785 0.2855 0.4853
Na1C Na -0.3554(2) 0.23823(19) -0.02984(18)
O2C O -0.4171(4) 0.1822(3) 0.5703(3)
O5C O -0.3274(4) 0.2995(3) 0.6160(3)
O13 O -0.8898(7) 0.2101(8) 0.4558(7)
C39 C -0.7382(9) 0.2022(10) 0.4791(8)
H32 H -0.7487 0.1495 0.4724
H33 H -0.7138 0.2117 0.5341
H34 H -0.6979 0.2186 0.4397
C40 C -0.8209(9) 0.2427(9) 0.4658(7)
C41 C -0.8141(14) 0.3211(10) 0.4662(14)
H35 H -0.8617 0.3420 0.4323
H36 H -0.7593 0.3356 0.4446
H37 H -0.8165 0.3392 0.5218
loop_
_geom_bond_atom_site_label_1
_geom_bond_atom_site_label_2
_geom_bond_site_symmetry_1
_geom_bond_site_symmetry_2
Mn1 O1 1_555 1_555
Mn2 O3 1_555 1_555
Mn3 O2 1_555 1_555
Na1 O3 1_555 1_555
O1 C1 1_555 1_555
O2 N1 1_555 1_555
N1 Mn1 1_555 1_555
O3 C8 1_555 1_555
O4 Mn1 1_555 1_555
N2 Mn2 1_555 1_555
O5 Mn3 1_555 1_555
O6 Mn2 1_555 1_555
N3 Mn3 1_555 1_555
O7 Mn1 1_555 1_555
O8 Mn2 1_555 1_555
O9 Mn3 1_555 1_555
O10 Na1 1_555 1_555
O11 Mn1 1_555 1_555
O12 Na1 1_555 1_555
C1 C2 1_555 1_555
C2 H1 1_555 1_555
C3 C2 1_555 1_555
H2 C3 1_555 1_555
C4 C3 1_555 1_555
H3 C4 1_555 1_555
C5 C4 1_555 1_555
H4 C5 1_555 1_555
C6 C1 1_555 1_555
C7 N1 1_555 1_555
H5 C7 1_555 1_555
C8 C9 1_555 1_555
C9 H6 1_555 1_555
C10 C9 1_555 1_555
H7 C10 1_555 1_555
C11 C10 1_555 1_555
H8 C11 1_555 1_555
C12 C11 1_555 1_555
H9 C12 1_555 1_555
C13 C8 1_555 1_555
C14 N2 1_555 1_555
H10 C14 1_555 1_555
C15 O5 1_555 1_555
C16 C15 1_555 1_555
H11 C16 1_555 1_555
C17 C16 1_555 1_555
H12 C17 1_555 1_555
C18 C17 1_555 1_555
H13 C18 1_555 1_555
C19 C18 1_555 1_555
H14 C19 1_555 1_555
C20 C15 1_555 1_555
C21 N3 1_555 1_555
H15 C21 1_555 1_555
C22 O7 1_555 1_555
C23 C22 1_555 1_555
C24 C23 1_555 1_555
H16 C24 1_555 1_555
C25 C24 1_555 1_555
H17 C25 1_555 1_555
C26 C25 1_555 1_555
H18 C26 1_555 1_555
C27 C26 1_555 1_555
H19 C27 1_555 1_555
C28 C23 1_555 1_555
H20 C28 1_555 1_555
C29 O9 1_555 1_555
C30 C29 1_555 1_555
C31 C30 1_555 1_555
H21 C31 1_555 1_555
C32 C31 1_555 1_555
H22 C32 1_555 1_555
C33 C32 1_555 1_555
H23 C33 1_555 1_555
C34 C33 1_555 1_555
H24 C34 1_555 1_555
C35 C30 1_555 1_555
H25 C35 1_555 1_555
C36 H26 1_555 1_555
H27 C36 1_555 1_555
H28 C36 1_555 1_555
C37 O12 1_555 1_555
C38 C37 1_555 1_555
H29 C38 1_555 1_555
H30 C38 1_555 1_555
H31 C38 1_555 1_555
O13 C40 1_555 1_555
C39 H32 1_555 1_555
H33 C39 1_555 1_555
H34 C39 1_555 1_555
C40 C39 1_555 1_555
C41 C40 1_555 1_555
H35 C41 1_555 1_555
H36 C41 1_555 1_555
H37 C41 1_555 1_555
Na1C O2 1_555 1_555
O2C Na1 1_555 1_555
O5C Na1 1_555 1_555
Mn2 O11 1_555 1_555
Mn3 O11 1_555 1_555
Na1 O6 1_555 1_555
O4 N2 1_555 1_555
O5 Na1C 1_555 1_555
O6 N3 1_555 1_555
O8 C22 1_555 1_555
O10 C29 1_555 1_555
C5 C6 1_555 1_555
C6 C7 1_555 1_555
C12 C13 1_555 1_555
C13 C14 1_555 1_555
C19 C20 1_555 1_555
C20 C21 1_555 1_555
C27 C28 1_555 1_555
C34 C35 1_555 1_555
C36 C37 1_555 1_555

#END
