
#######################################################################
#
#                 Cambridge Crystallographic Data Centre
#                                CCDC 
#
#######################################################################
#
# If this CIF has been generated from an entry in the Cambridge 
# Structural Database, then it will include bibliographic, chemical, 
# crystal, experimental, refinement or atomic coordinate data resulting 
# from the CCDC's data processing and validation procedures.
#
#######################################################################

data_XOKFUZ
_symmetry_cell_setting           orthorhombic
_symmetry_space_group_name_H-M   'C c c a'
_symmetry_Int_Tables_number      68
_space_group_name_Hall           '-C 2b 2bc'
loop_
_symmetry_equiv_pos_site_id
_symmetry_equiv_pos_as_xyz
1 x,y,z
2 1/2-x,-y,z
3 -x,y,1/2-z
4 1/2+x,-y,1/2-z
5 1/2+x,1/2+y,z
6 -x,1/2-y,z
7 1/2-x,1/2+y,1/2-z
8 x,1/2-y,1/2-z
9 -x,-y,-z
10 1/2+x,y,-z
11 x,-y,1/2+z
12 1/2-x,y,1/2+z
13 1/2-x,1/2-y,-z
14 x,1/2+y,-z
15 1/2+x,1/2-y,1/2+z
16 -x,1/2+y,1/2+z
_cell_length_a                   12.992(2)
_cell_length_b                   26.101(4)
_cell_length_c                   22.618(4)
_cell_angle_alpha                90
_cell_angle_beta                 90
_cell_angle_gamma                90
_cell_volume                     7669.86
loop_
_atom_site_label
_atom_site_type_symbol
_atom_site_fract_x
_atom_site_fract_y
_atom_site_fract_z
Ni1 Ni 0.25000 0.00000 0.380133(11)
O1 O 0.29319(10) 0.07519(5) 0.38247(5)
O2 O 0.46443(11) 0.07559(6) 0.37784(7)
O3 O 0.09553(10) 0.02137(6) 0.38210(5)
H1 H 0.0658 0.0469 0.3662
H2 H 0.0655 -0.0075 0.3797
N1 N 0.25000 0.00000 0.47316(8)
N2 N 0.25000 0.00000 0.78707(8)
C1 C 0.18823(15) 0.03058(8) 0.50421(8)
H3 H 0.1443 0.0523 0.4836
C2 C 0.18561(15) 0.03197(8) 0.56504(8)
H4 H 0.141 0.0542 0.5844
C3 C 0.25000 0.00000 0.59729(10)
C4 C 0.25000 0.00000 0.66283(10)
C5 C 0.32953(15) -0.02173(8) 0.69504(8)
H5 H 0.3847 -0.037 0.6756
C6 C 0.32678(15) -0.02073(8) 0.75604(8)
H6 H 0.3814 -0.0353 0.7766
C7 C 0.37947(14) 0.09709(7) 0.38473(8)
C8 C 0.37602(15) 0.15382(8) 0.39578(10)
C9 C 0.36489(19) 0.18728(10) 0.34832(14)
C10 C 0.3580(2) 0.23940(12) 0.36024(19)
H7 H 0.3515 0.262 0.3287
C11 C 0.3605(2) 0.25871(12) 0.4162(2)
C12 C 0.3725(2) 0.22512(12) 0.46192(18)
H8 H 0.3747 0.2379 0.5003
C13 C 0.38173(17) 0.17229(9) 0.45326(12)
C14 C 0.3991(3) 0.13631(12) 0.50426(12)
H9 H 0.3427 0.1127 0.5069
H10 H 0.4039 0.1556 0.5403
H11 H 0.4619 0.1177 0.4981
C15 C 0.3584(3) 0.16714(13) 0.28630(14)
H12 H 0.4174 0.1461 0.2782
H13 H 0.3567 0.1953 0.259
H14 H 0.2969 0.1471 0.282
C16 C 0.3503(2) 0.31649(11) 0.4265(3)
H15 H 0.3771 0.325 0.4648
H16 H 0.2791 0.3261 0.4244
H17 H 0.3884 0.3346 0.3967
Ni1J Ni 0.25000 0.00000 0.880133(11)
O1A O 0.20681(10) -0.07519(5) 0.38247(5)
O2A O 0.03557(11) -0.07559(6) 0.37784(7)
O3A O 0.40447(10) -0.02137(6) 0.38210(5)
H1A H 0.4342 -0.0469 0.3662
H2A H 0.4345 0.0075 0.3797
N2J N 0.25000 0.00000 0.28707(8)
C1A C 0.31177(15) -0.03058(8) 0.50421(8)
H3A H 0.3557 -0.0523 0.4836
C2A C 0.31439(15) -0.03197(8) 0.56504(8)
H4A H 0.359 -0.0542 0.5844
C5A C 0.17047(15) 0.02173(8) 0.69504(8)
H5A H 0.1153 0.037 0.6756
C6A C 0.17322(15) 0.02073(8) 0.75604(8)
H6A H 0.1186 0.0353 0.7766
C7A C 0.12053(14) -0.09709(7) 0.38473(8)
C8A C 0.12398(15) -0.15382(8) 0.39578(10)
C9A C 0.13511(19) -0.18728(10) 0.34832(14)
C10A C 0.1420(2) -0.23940(12) 0.36024(19)
H7A H 0.1485 -0.262 0.3287
C11A C 0.1395(2) -0.25871(12) 0.4162(2)
C12A C 0.1275(2) -0.22512(12) 0.46192(18)
H8A H 0.1253 -0.2379 0.5003
C13A C 0.11827(17) -0.17229(9) 0.45326(12)
C14A C 0.1009(3) -0.13631(12) 0.50426(12)
H9A H 0.1573 -0.1127 0.5069
H10A H 0.0961 -0.1556 0.5403
H11A H 0.0381 -0.1177 0.4981
C15A C 0.1416(3) -0.16714(13) 0.28630(14)
H12A H 0.0826 -0.1461 0.2782
H13A H 0.1433 -0.1953 0.259
H14A H 0.2031 -0.1471 0.282
C16A C 0.1497(2) -0.31649(11) 0.4265(3)
H15A H 0.1229 -0.325 0.4648
H16A H 0.2209 -0.3261 0.4244
H17A H 0.1116 -0.3346 0.3967
N3 N 0.51744(16) 0.11467(8) 0.65923(10)
C17 C 0.43325(19) 0.13855(9) 0.67770(12)
H18 H 0.3782 0.1188 0.6907
C18 C 0.42283(18) 0.19101(9) 0.67864(11)
H19 H 0.3618 0.2058 0.6917
C19 C 0.50339(16) 0.22177(8) 0.66012(10)
C20 C 0.59085(18) 0.19691(9) 0.64076(12)
H20 H 0.6474 0.2156 0.6278
C21 C 0.5936(2) 0.14420(10) 0.64083(13)
H21 H 0.653 0.1283 0.627
N3E N 0.48256(16) 0.38533(8) 0.65923(10)
C17E C 0.56675(19) 0.36145(9) 0.67770(12)
H18E H 0.6218 0.3812 0.6907
C18E C 0.57717(18) 0.30899(9) 0.67864(11)
H19E H 0.6382 0.2942 0.6917
C19E C 0.49661(16) 0.27823(8) 0.66012(10)
C20E C 0.40915(18) 0.30309(9) 0.64076(12)
H20E H 0.3526 0.2844 0.6278
C21E C 0.4064(2) 0.35580(10) 0.64083(13)
H21E H 0.347 0.3717 0.627
loop_
_geom_bond_atom_site_label_1
_geom_bond_atom_site_label_2
_geom_bond_site_symmetry_1
_geom_bond_site_symmetry_2
Ni1 O1 1_555 1_555
O1 C7 1_555 1_555
O2 C7 1_555 1_555
O3 Ni1 1_555 1_555
H1 O3 1_555 1_555
H2 O3 1_555 1_555
N1 Ni1 1_555 1_555
N2 C6 1_555 1_555
N3 C17 1_555 1_555
C1 N1 1_555 1_555
H3 C1 1_555 1_555
C2 C1 1_555 1_555
H4 C2 1_555 1_555
C3 C2 1_555 1_555
C4 C3 1_555 1_555
C5 C4 1_555 1_555
H5 C5 1_555 1_555
C6 C5 1_555 1_555
H6 C6 1_555 1_555
C7 C8 1_555 1_555
C8 C9 1_555 1_555
C9 C10 1_555 1_555
C10 H7 1_555 1_555
C11 C10 1_555 1_555
C12 C11 1_555 1_555
H8 C12 1_555 1_555
C13 C8 1_555 1_555
C14 C13 1_555 1_555
H9 C14 1_555 1_555
H10 C14 1_555 1_555
H11 C14 1_555 1_555
C15 C9 1_555 1_555
H12 C15 1_555 1_555
H13 C15 1_555 1_555
H14 C15 1_555 1_555
C16 C11 1_555 1_555
H15 C16 1_555 1_555
H16 C16 1_555 1_555
H17 C16 1_555 1_555
C17 H18 1_555 1_555
C18 C17 1_555 1_555
H19 C18 1_555 1_555
C19 C18 1_555 1_555
C20 C19 1_555 1_555
H20 C20 1_555 1_555
C21 N3 1_555 1_555
H21 C21 1_555 1_555
Ni1J N2 1_555 1_555
O1A Ni1 1_555 1_555
O2A C7A 1_555 1_555
O3A Ni1 1_555 1_555
H1A O3A 1_555 1_555
H2A O3A 1_555 1_555
N2J Ni1 1_555 1_555
N3E C17E 1_555 1_555
C1A N1 1_555 1_555
H3A C1A 1_555 1_555
C2A C3 1_555 1_555
H4A C2A 1_555 1_555
C5A C4 1_555 1_555
H5A C5A 1_555 1_555
C6A N2 1_555 1_555
H6A C6A 1_555 1_555
C7A O1A 1_555 1_555
C8A C7A 1_555 1_555
C9A C8A 1_555 1_555
C10A C9A 1_555 1_555
H7A C10A 1_555 1_555
C11A C10A 1_555 1_555
C12A C11A 1_555 1_555
H8A C12A 1_555 1_555
C13A C8A 1_555 1_555
C14A C13A 1_555 1_555
H9A C14A 1_555 1_555
H10A C14A 1_555 1_555
H11A C14A 1_555 1_555
C15A C9A 1_555 1_555
H12A C15A 1_555 1_555
H13A C15A 1_555 1_555
H14A C15A 1_555 1_555
C16A C11A 1_555 1_555
H15A C16A 1_555 1_555
H16A C16A 1_555 1_555
H17A C16A 1_555 1_555
C17E H18E 1_555 1_555
C18E C17E 1_555 1_555
H19E C18E 1_555 1_555
C19E C19 1_555 1_555
C20E C19E 1_555 1_555
H20E C20E 1_555 1_555
C21E N3E 1_555 1_555
H21E C21E 1_555 1_555
C12 C13 1_555 1_555
C20 C21 1_555 1_555
C1A C2A 1_555 1_555
C5A C6A 1_555 1_555
C12A C13A 1_555 1_555
C18E C19E 1_555 1_555
C20E C21E 1_555 1_555

#END
