
#######################################################################
#
#                 Cambridge Crystallographic Data Centre
#                                CCDC 
#
#######################################################################
#
# If this CIF has been generated from an entry in the Cambridge 
# Structural Database, then it will include bibliographic, chemical, 
# crystal, experimental, refinement or atomic coordinate data resulting 
# from the CCDC's data processing and validation procedures.
#
#######################################################################

data_XOKGOU
_symmetry_cell_setting           monoclinic
_symmetry_space_group_name_H-M   'C 2/c'
_symmetry_Int_Tables_number      15
_space_group_name_Hall           '-C 2yn'
loop_
_symmetry_equiv_pos_site_id
_symmetry_equiv_pos_as_xyz
1 x,y,z
2 -x,y,1/2-z
3 1/2+x,1/2+y,z
4 1/2-x,1/2+y,1/2-z
5 -x,-y,-z
6 x,-y,1/2+z
7 1/2-x,1/2-y,-z
8 1/2+x,1/2-y,1/2+z
_cell_length_a                   9.430(5)
_cell_length_b                   17.136(9)
_cell_length_c                   16.480(8)
_cell_angle_alpha                90
_cell_angle_beta                 106.077(6)
_cell_angle_gamma                90
_cell_volume                     2558.89
loop_
_atom_site_label
_atom_site_type_symbol
_atom_site_fract_x
_atom_site_fract_y
_atom_site_fract_z
Cu1 Cu 0.04531(13) 0.43842(8) 0.16316(7)
N1 N 0.2270(8) 0.4623(5) 0.2441(4)
N2 N 0.8784(9) 0.5412(5) 0.5681(5)
O1 O 0.0083(10) 0.3156(5) 0.1810(4)
O2 O -0.1287(8) 0.2168(4) 0.2252(5)
S1 S 0.0000 0.26663(19) 0.2500
C5 C 0.3160(10) 0.4062(6) 0.2834(6)
H4 H 0.2891 0.3548 0.2688
C6 C 0.4457(10) 0.4196(6) 0.3443(6)
H5 H 0.5024 0.3774 0.3705
C7 C 0.4925(10) 0.4931(6) 0.3670(5)
C8 C 0.4006(14) 0.5524(6) 0.3239(8)
H6 H 0.4263 0.6043 0.3364
C9 C 0.2734(13) 0.5350(7) 0.2635(8)
H7 H 0.2164 0.5758 0.2346
C10 C 0.8396(13) 0.4716(7) 0.5418(7)
H8 H 0.8987 0.4307 0.5689
C11 C 0.7189(15) 0.4533(7) 0.4773(8)
H9 H 0.6980 0.4014 0.4620
C12 C 0.6288(9) 0.5111(6) 0.4352(5)
C13 C 0.6705(11) 0.5857(6) 0.4600(6)
H10 H 0.6148 0.6276 0.4325
C14 C 0.7957(11) 0.5988(6) 0.5261(6)
H11 H 0.8229 0.6500 0.5417
Cu1E Cu 1.04531(13) 0.56158(8) 0.66316(7)
Cu1A Cu -0.04531(13) 0.43842(8) 0.33684(7)
Cu1D Cu -1.04531(13) 0.56158(8) -0.16316(7)
N1A N -0.2270(8) 0.4623(5) 0.2559(4)
N2E N -0.1216(9) 0.4588(5) 0.0681(5)
N2D N 0.1216(9) 0.4588(5) 0.4319(5)
N2A N -0.8784(9) 0.5412(5) -0.0681(5)
O1A O -0.0083(10) 0.3156(5) 0.3190(4)
O2A O 0.1287(8) 0.2168(4) 0.2748(5)
C5A C -0.3160(10) 0.4062(6) 0.2166(6)
H4A H -0.2891 0.3548 0.2312
C6A C -0.4457(10) 0.4196(6) 0.1557(6)
H5A H -0.5024 0.3774 0.1295
C7A C -0.4925(10) 0.4931(6) 0.1330(5)
C8A C -0.4006(14) 0.5524(6) 0.1761(8)
H6A H -0.4263 0.6043 0.1636
C9A C -0.2734(13) 0.5350(7) 0.2365(8)
H7A H -0.2164 0.5758 0.2654
C10A C -0.8396(13) 0.4716(7) -0.0418(7)
H8A H -0.8987 0.4307 -0.0689
C11A C -0.7189(15) 0.4533(7) 0.0227(8)
H9A H -0.6980 0.4014 0.0380
C12A C -0.6288(9) 0.5111(6) 0.0648(5)
C13A C -0.6705(11) 0.5857(6) 0.0400(6)
H10A H -0.6148 0.6276 0.0675
C14A C -0.7957(11) 0.5988(6) -0.0261(6)
H11A H -0.8229 0.6500 -0.0417
O3 O 0.5327(16) 0.1865(13) 0.1851(11)
O4 O 0.6349(14) 0.2332(8) 0.1030(7)
H1 H 0.7074 0.2177 0.1396
C1 C 0.5264(18) 0.2122(11) 0.1192(10)
C2 C 0.3818(13) 0.2364(8) 0.0560(8)
C3 C 0.3821(16) 0.2494(8) -0.0280(9)
H2 H 0.4687 0.2506 -0.0446
C4 C 0.2557(15) 0.2397(8) 0.0847(10)
H3 H 0.2642 0.2345 0.1420
O3F O -0.0327(16) 0.3135(13) -0.1851(11)
O4F O -0.1349(14) 0.2668(8) -0.1030(7)
H1F H -0.2074 0.2823 -0.1396
C1F C -0.0264(18) 0.2878(11) -0.1192(10)
C2F C 0.1182(13) 0.2636(8) -0.0560(8)
C3F C 0.1179(16) 0.2506(8) 0.0280(9)
H2F H 0.0313 0.2494 0.0446
C4F C 0.2443(15) 0.2603(8) -0.0847(10)
H3F H 0.2358 0.2655 -0.1420
loop_
_geom_bond_atom_site_label_1
_geom_bond_atom_site_label_2
_geom_bond_site_symmetry_1
_geom_bond_site_symmetry_2
Cu1 N1 1_555 1_555
N1 C5 1_555 1_555
N2 C10 1_555 1_555
O1 Cu1 1_555 1_555
O2 S1 1_555 1_555
O3 C1 1_555 1_555
O4 H1 1_555 1_555
S1 O1 1_555 1_555
C1 O4 1_555 1_555
C2 C1 1_555 1_555
C3 C2 1_555 1_555
H2 C3 1_555 1_555
C4 C2 1_555 1_555
H3 C4 1_555 1_555
C5 H4 1_555 1_555
C6 C5 1_555 1_555
H5 C6 1_555 1_555
C7 C6 1_555 1_555
C8 C7 1_555 1_555
H6 C8 1_555 1_555
C9 N1 1_555 1_555
H7 C9 1_555 1_555
C10 H8 1_555 1_555
C11 C10 1_555 1_555
H9 C11 1_555 1_555
C12 C7 1_555 1_555
C13 C12 1_555 1_555
H10 C13 1_555 1_555
C14 N2 1_555 1_555
H11 C14 1_555 1_555
Cu1E N2 1_555 1_555
Cu1A N1A 1_555 1_555
Cu1D N2A 1_555 1_555
N1A C5A 1_555 1_555
N2E Cu1 1_555 1_555
N2D Cu1A 1_555 1_555
N2A C10A 1_555 1_555
O1A S1 1_555 1_555
O2A S1 1_555 1_555
O3F C1F 1_555 1_555
O4F H1F 1_555 1_555
C1F O4F 1_555 1_555
C2F C1F 1_555 1_555
C3F C4 1_555 1_555
H2F C3F 1_555 1_555
C4F C3 1_555 1_555
H3F C4F 1_555 1_555
C5A H4A 1_555 1_555
C6A C5A 1_555 1_555
H5A C6A 1_555 1_555
C7A C6A 1_555 1_555
C8A C7A 1_555 1_555
H6A C8A 1_555 1_555
C9A N1A 1_555 1_555
H7A C9A 1_555 1_555
C10A H8A 1_555 1_555
C11A C10A 1_555 1_555
H9A C11A 1_555 1_555
C12A C7A 1_555 1_555
C13A C12A 1_555 1_555
H10A C13A 1_555 1_555
C14A N2A 1_555 1_555
H11A C14A 1_555 1_555
C8 C9 1_555 1_555
C11 C12 1_555 1_555
C13 C14 1_555 1_555
Cu1A O1A 1_555 1_555
C2F C3F 1_555 1_555
C2F C4F 1_555 1_555
C8A C9A 1_555 1_555
C11A C12A 1_555 1_555
C13A C14A 1_555 1_555

#END
