
#######################################################################
#
#                 Cambridge Crystallographic Data Centre
#                                CCDC 
#
#######################################################################
#
# If this CIF has been generated from an entry in the Cambridge 
# Structural Database, then it will include bibliographic, chemical, 
# crystal, experimental, refinement or atomic coordinate data resulting 
# from the CCDC's data processing and validation procedures.
#
#######################################################################

data_XOKMUH
_symmetry_cell_setting           monoclinic
_symmetry_space_group_name_H-M   'I 2/a'
_symmetry_Int_Tables_number      15
_space_group_name_Hall           '-I 2ya'
loop_
_symmetry_equiv_pos_site_id
_symmetry_equiv_pos_as_xyz
1 x,y,z
2 1/2-x,y,-z
3 1/2+x,1/2+y,1/2+z
4 -x,1/2+y,1/2-z
5 -x,-y,-z
6 1/2+x,-y,z
7 1/2-x,1/2-y,1/2-z
8 x,1/2-y,1/2+z
_cell_length_a                   20.7069(6)
_cell_length_b                   9.4597(3)
_cell_length_c                   28.7537(9)
_cell_angle_alpha                90
_cell_angle_beta                 104.040(3)
_cell_angle_gamma                90
_cell_volume                     5464.05
loop_
_atom_site_label
_atom_site_type_symbol
_atom_site_fract_x
_atom_site_fract_y
_atom_site_fract_z
Cu1 Cu 0.589341(14) 0.98509(3) 0.398496(10)
N1 N 0.17888(8) 1.0198(2) 0.39133(6)
N2 N 0.28239(8) 0.9404(2) 0.39525(6)
N3 N 0.39665(8) 0.86490(19) 0.38379(6)
C1 C 0.42633(12) 0.4745(3) 0.51594(9)
C2 C 0.22399(10) 0.9212(2) 0.40750(7)
H1 H 0.2162 0.8449 0.4258
N4 N 0.36563(8) 0.82327(19) 0.46185(6)
N5 N 0.49687(8) 0.9384(2) 0.37591(6)
C3 C 0.45520(10) 0.9282(2) 0.40428(7)
H2 H 0.4654 0.9616 0.4356
N6 N 0.40356(9) 0.9027(2) 0.53763(6)
C4 C 0.40096(9) 0.8307(2) 0.33753(7)
C5 C 0.45233(13) 0.5258(3) 0.56323(9)
C6 C 0.39344(11) 0.7080(2) 0.48965(8)
C7 C 0.20985(10) 1.1129(2) 0.36640(7)
C8 C 0.29376(13) 1.2666(3) 0.32379(11)
C9 C 0.37316(10) 0.9327(2) 0.49287(7)
H3 H 0.3579 1.0231 0.4833
C10 C 0.48220(10) 0.8562(2) 0.29017(7)
H4 H 0.5234 0.8877 0.2869
C11 C 0.27459(10) 1.0653(2) 0.36911(7)
C12 C 0.46299(9) 0.8773(2) 0.33275(7)
C13 C 0.35696(10) 0.7599(2) 0.30022(7)
H5 H 0.3158 0.7288 0.3037
C14 C 0.43879(10) 0.7873(2) 0.25273(7)
C15 C 0.37630(10) 0.7374(2) 0.25810(7)
C16 C 0.39807(12) 0.5654(3) 0.47883(8)
H6 H 0.3827 0.5323 0.4476
C17 C 0.33052(12) 0.6592(3) 0.21732(8)
H7 H 0.3531 0.5779 0.2090
H8 H 0.3179 0.7205 0.1900
H9 H 0.2914 0.6293 0.2270
C18 C 0.41720(11) 0.7591(3) 0.53641(8)
C19 C 0.31702(11) 1.1440(3) 0.34769(9)
H10 H 0.3603 1.1136 0.3496
C20 C 0.44795(12) 0.6681(3) 0.57338(8)
H11 H 0.4652 0.7024 0.6042
C21 C 0.45769(12) 0.7678(3) 0.20547(8)
H12 H 0.4256 0.8143 0.1805
H13 H 0.4586 0.6687 0.1983
H14 H 0.5009 0.8079 0.2076
C22 C 0.18557(11) 1.2355(3) 0.34142(8)
H15 H 0.1421 1.2650 0.3392
B1 B 0.33881(11) 0.8264(3) 0.40725(8)
H16 H 0.3207 0.7335 0.3959
C23 C 0.42981(14) 0.3182(3) 0.50544(10)
H17 H 0.4083 0.2655 0.5259
H18 H 0.4078 0.3004 0.4725
H19 H 0.4755 0.2896 0.5112
C24 C 0.22716(13) 1.3130(3) 0.31985(10)
C25 C 0.48456(15) 0.4248(3) 0.60301(9)
H20 H 0.5228 0.3818 0.5955
H21 H 0.4981 0.4759 0.6326
H22 H 0.4532 0.3528 0.6061
C26 C 0.33916(16) 1.3532(3) 0.30075(14)
H23 H 0.3804 1.3039 0.3036
H24 H 0.3181 1.3677 0.2675
H25 H 0.3477 1.4431 0.3166
C27 C 0.20272(16) 1.4468(3) 0.29314(13)
H26 H 0.2083 1.4403 0.2610
H27 H 0.1565 1.4600 0.2922
H28 H 0.2278 1.5256 0.3091
Cu1D Cu 0.410659(14) 1.01491(3) 0.601504(10)
Cu1E Cu 0.089341(14) 1.01491(3) 0.398496(10)
N1E N 0.67888(8) 0.9802(2) 0.39133(6)
N6D N 0.59644(9) 1.0973(2) 0.46237(6)
loop_
_geom_bond_atom_site_label_1
_geom_bond_atom_site_label_2
_geom_bond_site_symmetry_1
_geom_bond_site_symmetry_2
Cu1 N5 1_555 1_555
N1 C2 1_555 1_555
N2 C2 1_555 1_555
N3 C3 1_555 1_555
C1 C5 1_555 1_555
C2 H1 1_555 1_555
N4 C6 1_555 1_555
N5 C3 1_555 1_555
C3 H2 1_555 1_555
N6 C9 1_555 1_555
C4 N3 1_555 1_555
C5 C20 1_555 1_555
C6 C16 1_555 1_555
C7 N1 1_555 1_555
C8 C19 1_555 1_555
C9 N4 1_555 1_555
H3 C9 1_555 1_555
C10 H4 1_555 1_555
C11 N2 1_555 1_555
C12 N5 1_555 1_555
C13 C4 1_555 1_555
H5 C13 1_555 1_555
C14 C10 1_555 1_555
C15 C13 1_555 1_555
C16 C1 1_555 1_555
H6 C16 1_555 1_555
C17 C15 1_555 1_555
H7 C17 1_555 1_555
H8 C17 1_555 1_555
H9 C17 1_555 1_555
C18 N6 1_555 1_555
C19 C11 1_555 1_555
H10 C19 1_555 1_555
C20 C18 1_555 1_555
H11 C20 1_555 1_555
C21 C14 1_555 1_555
H12 C21 1_555 1_555
H13 C21 1_555 1_555
H14 C21 1_555 1_555
C22 C7 1_555 1_555
H15 C22 1_555 1_555
B1 N2 1_555 1_555
H16 B1 1_555 1_555
C23 C1 1_555 1_555
H17 C23 1_555 1_555
H18 C23 1_555 1_555
H19 C23 1_555 1_555
C24 C8 1_555 1_555
C25 C5 1_555 1_555
H20 C25 1_555 1_555
H21 C25 1_555 1_555
H22 C25 1_555 1_555
C26 C8 1_555 1_555
H23 C26 1_555 1_555
H24 C26 1_555 1_555
H25 C26 1_555 1_555
C27 C24 1_555 1_555
H26 C27 1_555 1_555
H27 C27 1_555 1_555
H28 C27 1_555 1_555
Cu1D N6 1_555 1_555
Cu1E N1 1_555 1_555
N1E Cu1 1_555 1_555
N6D Cu1 1_555 1_555
N3 B1 1_555 1_555
N4 B1 1_555 1_555
C4 C12 1_555 1_555
C6 C18 1_555 1_555
C7 C11 1_555 1_555
C10 C12 1_555 1_555
C14 C15 1_555 1_555
C22 C24 1_555 1_555

#END
