
#######################################################################
#
#                 Cambridge Crystallographic Data Centre
#                                CCDC 
#
#######################################################################
#
# If this CIF has been generated from an entry in the Cambridge 
# Structural Database, then it will include bibliographic, chemical, 
# crystal, experimental, refinement or atomic coordinate data resulting 
# from the CCDC's data processing and validation procedures.
#
#######################################################################

data_XOKSOG
_symmetry_cell_setting           triclinic
_symmetry_space_group_name_H-M   'P -1'
_symmetry_Int_Tables_number      2
_space_group_name_Hall           '-P 1'
loop_
_symmetry_equiv_pos_site_id
_symmetry_equiv_pos_as_xyz
1 x,y,z
2 -x,-y,-z
_cell_length_a                   8.499(4)
_cell_length_b                   13.966(5)
_cell_length_c                   15.863(8)
_cell_angle_alpha                90.209(2)
_cell_angle_beta                 97.386(2)
_cell_angle_gamma                90.786(2)
_cell_volume                     1867.06
loop_
_atom_site_label
_atom_site_type_symbol
_atom_site_fract_x
_atom_site_fract_y
_atom_site_fract_z
Ag1 Ag 0.47701(3) 0.438103(14) 0.105764(16)
C1 C 0.4543(4) 0.22653(18) 0.15688(19)
H1 H 0.3441 0.2286 0.1490
C2 C 0.6924(4) 0.1741(2) 0.1866(2)
H2 H 0.7786 0.1350 0.2027
C3 C 0.6981(4) 0.2667(2) 0.1636(2)
H3 H 0.7903 0.3025 0.1609
C4 C 0.4622(3) -0.34367(18) 0.07653(18)
H4 H 0.5720 -0.3389 0.0792
C5 C 0.2286(4) -0.3997(2) 0.0752(2)
H5 H 0.1439 -0.4424 0.0765
C6 C 0.2155(4) -0.3046(2) 0.0663(2)
H6 H 0.1223 -0.2697 0.0609
C7 C 0.4753(4) 0.05326(18) 0.19593(19)
H7 H 0.3701 0.0584 0.2130
H8 H 0.5430 0.0230 0.2418
C8 C 0.4665(4) -0.00797(16) 0.11797(17)
H9 H 0.5700 -0.0090 0.0984
H10 H 0.3924 0.0198 0.0734
C9 C 0.4138(4) -0.10992(17) 0.13408(18)
H11 H 0.4858 -0.1374 0.1797
H12 H 0.3085 -0.1095 0.1516
C10 C 0.4115(4) -0.16988(17) 0.05533(18)
H13 H 0.3384 -0.1421 0.0103
H14 H 0.5164 -0.1682 0.0374
N1 N 0.5375(3) 0.14906(14) 0.18191(14)
N2 N 0.5479(3) 0.29963(15) 0.14477(15)
N3 N 0.3649(3) -0.26946(13) 0.06670(14)
N4 N 0.3831(3) -0.42468(14) 0.08190(14)
Ag1_2 Ag 0.47701(3) -0.561897(14) 0.105764(16)
N4_2 N 0.3831(3) 0.57532(14) 0.08190(14)
Ag2 Ag 0.43997(3) -0.055617(13) 0.391931(15)
C11 C 0.4613(3) 0.16615(17) 0.42118(17)
H15 H 0.3543 0.1700 0.4275
C12 C 0.6885(4) 0.11227(19) 0.40471(19)
H16 H 0.7697 0.0703 0.3971
C13 C 0.7052(4) 0.20734(19) 0.4124(2)
H17 H 0.7979 0.2432 0.4110
C14 C 0.4339(3) 0.73151(17) 0.34252(18)
H18 H 0.5441 0.7324 0.3471
C15 C 0.1913(4) 0.6818(2) 0.3191(3)
H19 H 0.1009 0.6439 0.3048
C16 C 0.1961(4) 0.7745(2) 0.3445(3)
H20 H 0.1081 0.8113 0.3510
C17 C 0.5201(4) 0.34121(17) 0.43681(18)
H21 H 0.6086 0.3721 0.4718
H22 H 0.4292 0.3427 0.4680
C18 C 0.4824(4) 0.39751(17) 0.35566(18)
H23 H 0.3964 0.3661 0.3192
H24 H 0.5747 0.3999 0.3255
C19 C 0.4349(4) 0.49876(17) 0.37627(18)
H25 H 0.3418 0.4957 0.4058
H26 H 0.5202 0.5288 0.4142
C20 C 0.3990(4) 0.55991(18) 0.29786(18)
H27 H 0.4941 0.5669 0.2704
H28 H 0.3185 0.5281 0.2582
N5 N 0.5599(3) 0.24104(14) 0.42254(14)
N6 N 0.5351(3) 0.08587(14) 0.40966(14)
N7 N 0.3430(3) 0.65525(14) 0.31870(15)
N8 N 0.3481(3) 0.80535(14) 0.35883(15)
Ag2_2 Ag 0.43997(3) 0.944383(13) 0.391931(15)
N8_2 N 0.3481(3) -0.19465(14) 0.35883(15)
C21 C 0.0572(3) 0.05564(18) -0.06288(16)
C22 C 0.0534(4) 0.09152(19) 0.01703(18)
H29 H 0.0890 0.1538 0.0296
C23 C -0.0025(4) 0.0369(2) 0.07951(18)
H30 H -0.0033 0.0628 0.1335
C24 C 0.1193(3) 0.1149(2) -0.13156(19)
O1 O 0.1657(3) 0.19839(14) -0.11270(13)
O2 O 0.1214(3) 0.07608(16) -0.20208(14)
C21A C -0.0572(3) -0.05564(18) 0.06288(16)
C22A C -0.0534(4) -0.09152(19) -0.01703(18)
H29A H -0.0890 -0.1538 -0.0296
C23A C 0.0025(4) -0.0369(2) -0.07951(18)
H30A H 0.0033 -0.0628 -0.1335
C24A C -0.1193(3) -0.1149(2) 0.13156(19)
O1A O -0.1657(3) -0.19839(14) 0.11270(13)
O2A O -0.1214(3) -0.07608(16) 0.20208(14)
C25 C 0.8778(3) -0.30693(18) 0.48231(18)
C26 C 0.9397(3) -0.40736(17) 0.49173(16)
C27 C 0.9170(3) -0.47186(18) 0.42444(17)
H31 H 0.8604 -0.4533 0.3732
C28 C 1.0232(3) -0.43701(18) 0.56767(18)
H32 H 1.0390 -0.3950 0.6137
O3 O 0.8963(3) -0.25436(13) 0.54656(13)
O4 O 0.8123(3) -0.28314(13) 0.41064(13)
C25A C 1.1222(3) -0.69307(18) 0.51769(18)
C26A C 1.0603(3) -0.59264(17) 0.50827(16)
C27A C 1.0830(3) -0.52814(18) 0.57556(17)
H31A H 1.1396 -0.5467 0.6268
C28A C 0.9768(3) -0.56299(18) 0.43233(18)
H32A H 0.9610 -0.6050 0.3863
O3A O 1.1037(3) -0.74564(13) 0.45344(13)
O4A O 1.1877(3) -0.71686(13) 0.58936(13)
O5 O -0.1113(4) -0.0410(2) -0.29084(18)
H33 H -0.109(6) -0.037(3) -0.3456(17)
H34 H -0.031(5) -0.008(3) -0.265(3)
O6 O 0.2155(3) 0.33157(14) -0.23710(14)
H35 H 0.205(5) 0.285(2) -0.2055(18)
H36 H 0.202(5) 0.315(2) -0.2913(14)
O7 O 0.1807(3) 0.35531(17) -0.00290(16)
H37 H 0.167(5) 0.298(2) -0.028(2)
H38 H 0.136(5) 0.395(3) -0.0242(18)
O8 O 0.2514(3) 0.10269(15) -0.34897(16)
H39 H 0.233(5) 0.101(3) -0.2977(18)
H40 H 0.234(5) 0.159(2) -0.367(3)
O9 O 0.8905(4) -0.24137(19) 0.72297(16)
H41 H 0.900(6) -0.1803(19) 0.726(3)
H42 H 0.903(6) -0.257(3) 0.6716(19)
O10 O 0.8862(4) -0.05938(17) 0.53703(16)
H43 H 0.907(6) -0.1196(19) 0.539(3)
H44 H 0.880(6) -0.038(3) 0.488(2)
O11 O 0.0859(4) 0.38809(18) 0.15848(17)
H45 H 0.099(6) 0.370(3) 0.1045(15)
H46 H 0.093(6) 0.338(2) 0.189(2)
O12 O 0.1812(3) 0.49040(17) -0.13636(18)
H47 H 0.182(5) 0.445(2) -0.174(2)
H48 H 0.093(4) 0.521(3) -0.145(3)
loop_
_geom_bond_atom_site_label_1
_geom_bond_atom_site_label_2
_geom_bond_site_symmetry_1
_geom_bond_site_symmetry_2
Ag1 N2 1_555 1_555
Ag2 N6 1_555 1_555
C1 H1 1_555 1_555
C2 H2 1_555 1_555
C3 C2 1_555 1_555
H3 C3 1_555 1_555
C4 H4 1_555 1_555
C5 H5 1_555 1_555
C6 C5 1_555 1_555
H6 C6 1_555 1_555
C7 H7 1_555 1_555
H8 C7 1_555 1_555
C8 C7 1_555 1_555
H9 C8 1_555 1_555
H10 C8 1_555 1_555
C9 C8 1_555 1_555
H11 C9 1_555 1_555
H12 C9 1_555 1_555
C10 C9 1_555 1_555
H13 C10 1_555 1_555
H14 C10 1_555 1_555
C11 H15 1_555 1_555
C12 H16 1_555 1_555
C13 C12 1_555 1_555
H17 C13 1_555 1_555
C14 H18 1_555 1_555
C15 H19 1_555 1_555
C16 C15 1_555 1_555
H20 C16 1_555 1_555
C17 H21 1_555 1_555
H22 C17 1_555 1_555
C18 C17 1_555 1_555
H23 C18 1_555 1_555
H24 C18 1_555 1_555
C19 C18 1_555 1_555
H25 C19 1_555 1_555
H26 C19 1_555 1_555
C20 C19 1_555 1_555
H27 C20 1_555 1_555
H28 C20 1_555 1_555
C21 C22 1_555 1_555
C22 H29 1_555 1_555
C23 C22 1_555 1_555
H30 C23 1_555 1_555
C24 C21 1_555 1_555
C25 C26 1_555 1_555
C26 C27 1_555 1_555
C27 H31 1_555 1_555
C28 C26 1_555 1_555
H32 C28 1_555 1_555
N1 C1 1_555 1_555
N2 C1 1_555 1_555
N3 C4 1_555 1_555
N4 C4 1_555 1_555
N5 C11 1_555 1_555
N6 C11 1_555 1_555
N7 C14 1_555 1_555
N8 C14 1_555 1_555
O1 C24 1_555 1_555
O2 C24 1_555 1_555
O3 C25 1_555 1_555
O4 C25 1_555 1_555
O5 H33 1_555 1_555
H34 O5 1_555 1_555
O6 H35 1_555 1_555
H36 O6 1_555 1_555
O7 H37 1_555 1_555
H38 O7 1_555 1_555
O8 H39 1_555 1_555
H40 O8 1_555 1_555
O9 H41 1_555 1_555
H42 O9 1_555 1_555
O10 H43 1_555 1_555
H44 O10 1_555 1_555
O11 H45 1_555 1_555
H46 O11 1_555 1_555
O12 H47 1_555 1_555
H48 O12 1_555 1_555
Ag1_2 N4 1_555 1_555
Ag2_2 N8 1_555 1_555
C21A C23 1_555 1_555
C22A C21A 1_555 1_555
H29A C22A 1_555 1_555
C23A C21 1_555 1_555
H30A C23A 1_555 1_555
C24A C21A 1_555 1_555
C25A C26A 1_555 1_555
C26A C27A 1_555 1_555
C27A C28 1_555 1_555
H31A C27A 1_555 1_555
C28A C27 1_555 1_555
H32A C28A 1_555 1_555
N4_2 Ag1 1_555 1_555
N8_2 Ag2 1_555 1_555
O1A C24A 1_555 1_555
O2A C24A 1_555 1_555
O3A C25A 1_555 1_555
O4A C25A 1_555 1_555
C2 N1 1_555 1_555
C3 N2 1_555 1_555
C5 N4 1_555 1_555
C6 N3 1_555 1_555
C7 N1 1_555 1_555
C10 N3 1_555 1_555
C12 N6 1_555 1_555
C13 N5 1_555 1_555
C15 N7 1_555 1_555
C16 N8 1_555 1_555
C17 N5 1_555 1_555
C20 N7 1_555 1_555
C22A C23A 1_555 1_555
C26A C28A 1_555 1_555

#END
