
#######################################################################
#
#                 Cambridge Crystallographic Data Centre
#                                CCDC 
#
#######################################################################
#
# If this CIF has been generated from an entry in the Cambridge 
# Structural Database, then it will include bibliographic, chemical, 
# crystal, experimental, refinement or atomic coordinate data resulting 
# from the CCDC's data processing and validation procedures.
#
#######################################################################

data_XOKSIZ
_symmetry_cell_setting           triclinic
_symmetry_space_group_name_H-M   'P -1'
_symmetry_Int_Tables_number      2
_space_group_name_Hall           '-P 1'
loop_
_symmetry_equiv_pos_site_id
_symmetry_equiv_pos_as_xyz
1 x,y,z
2 -x,-y,-z
_cell_length_a                   14.2890(3)
_cell_length_b                   14.3427(3)
_cell_length_c                   20.1601(2)
_cell_angle_alpha                76.636(1)
_cell_angle_beta                 84.496(1)
_cell_angle_gamma                60.316(1)
_cell_volume                     3491.43
loop_
_atom_site_label
_atom_site_type_symbol
_atom_site_fract_x
_atom_site_fract_y
_atom_site_fract_z
Pr1 Pr 0.5540(1) 0.4525(1) 0.1051(1)
Pr2 Pr 0.5666(1) 0.4822(1) 0.3942(1)
S1 S 0.6905(3) 0.1523(3) 0.1228(2)
S2 S 0.7557(3) 0.5201(3) 0.1386(2)
S3 S 0.7146(3) 0.6364(3) 0.3718(2)
S4 S 0.7580(3) 0.2100(3) 0.3691(2)
O1 O 0.6960(6) 0.2533(6) 0.1295(4)
O2 O 0.7299(7) 0.4370(7) 0.1241(5)
O3 O 0.7146(6) 0.5310(6) 0.3713(4)
O4 O 0.7396(6) 0.3164(7) 0.3819(5)
O5 O 0.3496(6) 0.5636(6) 0.1161(4)
O6 O 0.3682(6) 0.5818(6) 0.0055(4)
O7 O 0.0015(9) 0.6219(1) 0.2108(6)
O8 O -0.1413(9) 0.7347(1) 0.1527(7)
O9 O 0.0311(9) 0.8135(1) -0.1346(6)
O10 O -0.1205(9) 0.8451(1) -0.0888(7)
O11 O 0.5385(8) 0.6249(7) 0.0364(4)
N1 N 0.1650(1) 0.3853(1) 0.1925(8)
N2 N 0.1944(1) 0.3954(1) 0.4321(7)
N3 N 0.1694(1) 0.9166(1) 0.3199(7)
N4 N 0.1716(1) 0.9054(1) 0.0786(7)
C1 C 0.8266(1) 0.0450(1) 0.1326(7)
C2 C 0.6432(1) 0.1087(1) 0.2026(8)
C3 C 0.8607(2) 0.5141(2) 0.0817(1)
C4 C 0.8330(1) 0.4519(2) 0.2156(9)
C5 C 0.8560(1) 0.5958(2) 0.3744(9)
C6 C 0.6868(2) 0.7167(1) 0.2881(1)
C7 C 0.8671(1) 0.1079(1) 0.4251(1)
C8 C 0.8239(2) 0.1942(2) 0.2916(1)
C9 C 0.1904(8) 0.6538(9) 0.0497(5)
C10 C 0.1311(9) 0.6473(1) 0.1070(6)
C11 C 0.0200(1) 0.6969(1) 0.0986(7)
C12 C -0.0327(1) 0.7509(1) 0.0360(7)
C13 C 0.0292(1) 0.7545(1) -0.0186(7)
O12 O 0.5273(6) 0.6533(6) -0.0769(4)
O13 O 0.6587(1) 0.9694(1) 0.0760(8)
O14 O 0.5983(1) 0.8690(1) 0.1360(6)
O15 O 0.7038(1) 0.8641(1) -0.2043(6)
O16 O 0.6600(1) 1.0125(1) -0.1723(7)
O17 O 0.4910(6) 0.6663(6) 0.4211(4)
O18 O 0.4605(7) 0.6663(6) 0.5322(4)
O19 O 0.5000(1) 0.9851(1) 0.2767(7)
O20 O 0.4347(1) 1.1355(9) 0.3122(7)
O21 O 0.3203(1) 1.1469(1) 0.5445(7)
O22 O 0.3121(1) 1.0095(1) 0.6052(7)
O23 O 0.3635(6) 0.5713(7) 0.3833(4)
O24 O 0.3593(6) 0.5557(7) 0.4947(4)
O25 O 0.0039(8) 0.7131(1) 0.5995(6)
O26 O -0.1335(9) 0.8372(1) 0.5356(7)
O27 O 0.0335(9) 0.7905(1) 0.2468(5)
O28 O -0.1190(9) 0.8465(1) 0.2933(7)
O29 O 0.5232(6) 0.3692(7) 0.2157(4)
O30 O 0.5285(6) 0.3892(6) 0.3204(4)
O31 O 0.1928(9) 0.4008(9) 0.1347(6)
O32 O 0.0850(9) 0.3747(1) 0.2089(7)
O33 O 0.2476(1) 0.3920(1) 0.4756(6)
O34 O 0.1061(1) 0.4051(2) 0.4425(7)
O35 O 0.5227(7) 0.5797(6) 0.1794(4)
O36 O 0.5349(6) 0.5993(6) 0.2838(4)
O37 O 0.2169(1) 0.8903(1) 0.3722(6)
O38 O 0.0724(1) 0.9787(1) 0.3141(7)
O39 O 0.2249(1) 0.8770(1) 0.0307(6)
O40 O 0.0752(1) 0.9681(1) 0.0749(7)
N5 N -0.0434(9) 0.6838(1) 0.1580(7)
N6 N -0.0231(9) 0.8074(1) -0.0859(7)
N7 N 0.6248(1) 0.9057(1) 0.0834(7)
N8 N 0.6705(1) 0.9223(1) -0.1623(7)
N9 N 0.4567(1) 1.0398(1) 0.3199(7)
N10 N 0.3333(1) 1.0552(1) 0.5532(8)
N11 N -0.0410(1) 0.7652(1) 0.5437(7)
N12 N -0.0218(1) 0.7997(1) 0.2969(6)
C14 C 0.1413(9) 0.7051(9) -0.0129(6)
C15 C 0.3119(8) 0.5961(8) 0.0567(6)
C16 C 0.5791(9) 0.7578(9) -0.0294(6)
C17 C 0.5849(8) 0.7913(9) 0.0279(6)
C18 C 0.6178(1) 0.8694(1) 0.0215(7)
C19 C 0.6447(1) 0.9144(1) -0.0405(7)
C20 C 0.6389(1) 0.8781(1) -0.0953(7)
C21 C 0.6066(1) 0.8010(9) -0.0930(6)
C22 C 0.5452(8) 0.6711(9) -0.0229(6)
C23 C 0.4399(8) 0.8278(9) 0.4595(6)
C24 C 0.4551(9) 0.8811(9) 0.3958(6)
C25 C 0.4310(1) 0.9880(1) 0.3861(7)
C26 C 0.3912(1) 1.0466(1) 0.4366(8)
C27 C 0.3767(1) 0.9941(1) 0.4972(8)
C28 C 0.4045(1) 0.8844(1) 0.5121(7)
C29 C 0.4668(8) 0.7095(9) 0.4718(5)
C30 C 0.1933(9) 0.6151(1) 0.4312(5)
C31 C 0.1339(9) 0.6714(1) 0.4900(6)
C32 C 0.0234(9) 0.7361(1) 0.4828(7)
C33 C -0.0310(1) 0.7810(1) 0.4197(7)
C34 C 0.0322(1) 0.7525(1) 0.3654(6)
C35 C 0.1434(1) 0.6906(1) 0.3688(6)
C36 C 0.3150(8) 0.5877(9) 0.4369(5)
C37 C 0.3769(9) 0.3822(9) 0.2866(6)
C38 C 0.3225(9) 0.3829(9) 0.2349(6)
C39 C 0.2243(1) 0.3489(1) 0.2494(7)
C40 C 0.1814(1) 0.3849(1) 0.3132(7)
C41 C 0.2386(1) 0.3861(1) 0.3630(7)
C42 C 0.3383(9) 0.3824(9) 0.3521(6)
C43 C 0.4855(8) 0.3806(8) 0.2726(5)
C44 C 0.3784(8) 0.7294(8) 0.2171(5)
C45 C 0.3273(9) 0.7806(9) 0.2711(6)
C46 C 0.2240(1) 0.8665(1) 0.2618(6)
C47 C 0.1705(1) 0.9096(1) 0.2002(7)
C48 C 0.2237(1) 0.8632(1) 0.1471(6)
C49 C 0.3280(9) 0.7726(9) 0.1544(5)
C50 C 0.4865(8) 0.6269(8) 0.2281(6)
O6A O 0.6318(6) 0.4182(6) -0.0055(4)
O12A O 0.4727(6) 0.3467(6) 0.0769(4)
O18A O 0.5395(7) 0.3337(6) 0.4678(4)
O24A O 0.6407(6) 0.4443(7) 0.5053(4)
Pr1A Pr 0.4460(1) 0.5475(1) -0.1051(1)
Pr2A Pr 0.4334(1) 0.5178(1) 0.6058(1)
loop_
_geom_bond_atom_site_label_1
_geom_bond_atom_site_label_2
_geom_bond_site_symmetry_1
_geom_bond_site_symmetry_2
Pr1 O1 1_555 1_555
Pr2 O3 1_555 1_555
S1 O1 1_555 1_555
S2 O2 1_555 1_555
S3 O3 1_555 1_555
S4 O4 1_555 1_555
O2 Pr1 1_555 1_555
O4 Pr2 1_555 1_555
O5 Pr1 1_555 1_555
O6 C15 1_555 1_555
O7 N5 1_555 1_555
O8 N5 1_555 1_555
O9 N6 1_555 1_555
O10 N6 1_555 1_555
O11 Pr1 1_555 1_555
N1 O31 1_555 1_555
N2 O33 1_555 1_555
N3 O37 1_555 1_555
N4 O39 1_555 1_555
C1 S1 1_555 1_555
C2 S1 1_555 1_555
C3 S2 1_555 1_555
C4 S2 1_555 1_555
C5 S3 1_555 1_555
C6 S3 1_555 1_555
C7 S4 1_555 1_555
C8 S4 1_555 1_555
C9 C10 1_555 1_555
C10 C11 1_555 1_555
C11 C12 1_555 1_555
C12 C13 1_555 1_555
C13 N6 1_555 1_555
O12 C22 1_555 1_555
O13 N7 1_555 1_555
O14 N7 1_555 1_555
O15 N8 1_555 1_555
O16 N8 1_555 1_555
O17 Pr2 1_555 1_555
O18 C29 1_555 1_555
O19 N9 1_555 1_555
O20 N9 1_555 1_555
O21 N10 1_555 1_555
O22 N10 1_555 1_555
O23 Pr2 1_555 1_555
O24 C36 1_555 1_555
O25 N11 1_555 1_555
O26 N11 1_555 1_555
O27 N12 1_555 1_555
O28 N12 1_555 1_555
O29 Pr1 1_555 1_555
O30 Pr2 1_555 1_555
O32 N1 1_555 1_555
O34 N2 1_555 1_555
O35 Pr1 1_555 1_555
O36 Pr2 1_555 1_555
O38 N3 1_555 1_555
O40 N4 1_555 1_555
N5 C11 1_555 1_555
N7 C18 1_555 1_555
N8 C20 1_555 1_555
N9 C25 1_555 1_555
N10 C27 1_555 1_555
N11 C32 1_555 1_555
N12 C34 1_555 1_555
C14 C9 1_555 1_555
C15 O5 1_555 1_555
C16 C17 1_555 1_555
C17 C18 1_555 1_555
C18 C19 1_555 1_555
C19 C20 1_555 1_555
C20 C21 1_555 1_555
C21 C16 1_555 1_555
C22 O11 1_555 1_555
C23 C24 1_555 1_555
C24 C25 1_555 1_555
C25 C26 1_555 1_555
C26 C27 1_555 1_555
C27 C28 1_555 1_555
C28 C23 1_555 1_555
C29 O17 1_555 1_555
C30 C31 1_555 1_555
C31 C32 1_555 1_555
C32 C33 1_555 1_555
C33 C34 1_555 1_555
C34 C35 1_555 1_555
C35 C30 1_555 1_555
C36 O23 1_555 1_555
C37 C38 1_555 1_555
C38 C39 1_555 1_555
C39 N1 1_555 1_555
C40 C39 1_555 1_555
C41 N2 1_555 1_555
C42 C37 1_555 1_555
C43 O29 1_555 1_555
C44 C45 1_555 1_555
C45 C46 1_555 1_555
C46 N3 1_555 1_555
C47 C46 1_555 1_555
C48 N4 1_555 1_555
C49 C44 1_555 1_555
C50 O35 1_555 1_555
O6A Pr1 1_555 1_555
O12A Pr1 1_555 1_555
O18A Pr2 1_555 1_555
O24A Pr2 1_555 1_555
Pr1A O6 1_555 1_555
Pr2A O18 1_555 1_555
C9 C15 1_555 1_555
C13 C14 1_555 1_555
O12 Pr1A 1_555 1_555
O24 Pr2A 1_555 1_555
O30 C43 1_555 1_555
O36 C50 1_555 1_555
C16 C22 1_555 1_555
C23 C29 1_555 1_555
C30 C36 1_555 1_555
C37 C43 1_555 1_555
C40 C41 1_555 1_555
C41 C42 1_555 1_555
C44 C50 1_555 1_555
C47 C48 1_555 1_555
C48 C49 1_555 1_555

#END
