
#######################################################################
#
#                 Cambridge Crystallographic Data Centre
#                                CCDC 
#
#######################################################################
#
# If this CIF has been generated from an entry in the Cambridge 
# Structural Database, then it will include bibliographic, chemical, 
# crystal, experimental, refinement or atomic coordinate data resulting 
# from the CCDC's data processing and validation procedures.
#
#######################################################################

data_XOKVAV
_symmetry_cell_setting           monoclinic
_symmetry_space_group_name_H-M   'P 2/c'
_symmetry_Int_Tables_number      13
_space_group_name_Hall           '-P 2yc'
loop_
_symmetry_equiv_pos_site_id
_symmetry_equiv_pos_as_xyz
1 x,y,z
2 -x,y,1/2-z
3 -x,-y,-z
4 x,-y,1/2+z
_cell_length_a                   9.8808(7)
_cell_length_b                   11.5275(8)
_cell_length_c                   9.8189(7)
_cell_angle_alpha                90
_cell_angle_beta                 109.8960(10)
_cell_angle_gamma                90
_cell_volume                     1051.63
loop_
_atom_site_label
_atom_site_type_symbol
_atom_site_fract_x
_atom_site_fract_y
_atom_site_fract_z
Zn1 Zn 0.5000 0.92126(3) 0.7500
O1 O 0.68296(17) 0.92275(13) 0.93655(16)
O2 O 0.83191(19) 0.82329(16) 0.85418(17)
O3 O 0.62801(17) 0.91751(13) 0.61830(17)
H1 H 0.7060 0.8887 0.6750
H2 H 0.6467 0.9717 0.5687
N1 N 0.5000 0.7262(2) 0.7500
N2 N 0.5000 0.1107(2) 0.7500
C1 C 0.4295(3) 0.6647(2) 0.8207(3)
H5 H 0.3815 0.7049 0.8727
C2 C 0.4243(3) 0.5458(2) 0.8206(3)
H6 H 0.3699 0.5078 0.8678
C3 C 0.5000 0.4820(3) 0.7500
C4 C 0.5000 0.3537(3) 0.7500
C5 C 0.3734(3) 0.2910(2) 0.7229(3)
H7 H 0.2862 0.3294 0.7048
C6 C 0.3781(3) 0.1710(2) 0.7230(3)
H8 H 0.2923 0.1304 0.7033
C7 C 0.9513(2) 0.9644(2) 1.1790(2)
H9 H 0.9181 1.0346 1.1331
C8 C 0.9041(2) 0.86243(19) 1.1064(2)
C9 C 0.9529(2) 0.75406(19) 1.1764(2)
C10 C 0.9097(3) 0.6457(2) 1.1058(3)
H10 H 0.8499 0.6444 1.0094
C11 C 0.9545(3) 0.5439(2) 1.1769(3)
H11 H 0.9250 0.4739 1.1288
C12 C 0.7995(2) 0.86818(19) 0.9534(2)
Zn1_2 Zn 0.5000 -0.07874(3) 0.7500
Zn1_3 Zn 1.5000 0.92126(3) 1.7500
O1A O 1.31704(17) 0.92275(13) 1.56345(16)
O1A_2 O 0.31704(17) 0.92275(13) 0.56345(16)
O2A O 1.16809(19) 0.82329(16) 1.64582(17)
O3A O 0.37199(17) 0.91751(13) 0.88170(17)
H1A H 0.2940 0.8887 0.8250
H2A H 0.3533 0.9717 0.9313
N2_2 N 0.5000 1.1107(2) 0.7500
C1A C 0.5705(3) 0.6647(2) 0.6793(3)
H5A H 0.6185 0.7049 0.6273
C2A C 0.5757(3) 0.5458(2) 0.6794(3)
H6A H 0.6301 0.5078 0.6322
C5A C 0.6266(3) 0.2910(2) 0.7771(3)
H7A H 0.7138 0.3294 0.7952
C6A C 0.6219(3) 0.1710(2) 0.7770(3)
H8A H 0.7077 0.1304 0.7967
C7A C 1.0487(2) 0.9644(2) 1.3210(2)
H9A H 1.0819 1.0346 1.3669
C8A C 1.0959(2) 0.86243(19) 1.3936(2)
C9A C 1.0471(2) 0.75406(19) 1.3236(2)
C10A C 1.0903(3) 0.6457(2) 1.3942(3)
H10A H 1.1501 0.6444 1.4906
C11A C 1.0455(3) 0.5439(2) 1.3231(3)
H11A H 1.0750 0.4739 1.3712
C12A C 1.2005(2) 0.86818(19) 1.5466(2)
O4 O 0.8917(5) 0.7355(4) 0.6149(5)
H3 H 0.9188 0.7322 0.7068
H4 H 0.9627 0.7530 0.5887
loop_
_geom_bond_atom_site_label_1
_geom_bond_atom_site_label_2
_geom_bond_site_symmetry_1
_geom_bond_site_symmetry_2
Zn1 O1 1_555 1_555
O1 C12 1_555 1_555
O2 C12 1_555 1_555
O3 Zn1 1_555 1_555
H1 O3 1_555 1_555
H2 O3 1_555 1_555
O4 H3 1_555 1_555
H4 O4 1_555 1_555
N1 Zn1 1_555 1_555
N2 C6 1_555 1_555
C1 N1 1_555 1_555
H5 C1 1_555 1_555
C2 C1 1_555 1_555
H6 C2 1_555 1_555
C3 C2 1_555 1_555
C4 C3 1_555 1_555
C5 C4 1_555 1_555
H7 C5 1_555 1_555
C6 C5 1_555 1_555
H8 C6 1_555 1_555
C7 H9 1_555 1_555
C8 C7 1_555 1_555
C9 C8 1_555 1_555
C10 C9 1_555 1_555
H10 C10 1_555 1_555
C11 C10 1_555 1_555
H11 C11 1_555 1_555
C12 C8 1_555 1_555
Zn1_2 N2 1_555 1_555
Zn1_3 O1A 1_555 1_555
O1A C12A 1_555 1_555
O1A_2 Zn1 1_555 1_555
O2A C12A 1_555 1_555
O3A Zn1 1_555 1_555
H1A O3A 1_555 1_555
H2A O3A 1_555 1_555
N2_2 Zn1 1_555 1_555
C1A N1 1_555 1_555
H5A C1A 1_555 1_555
C2A C3 1_555 1_555
H6A C2A 1_555 1_555
C5A C4 1_555 1_555
H7A C5A 1_555 1_555
C6A N2 1_555 1_555
H8A C6A 1_555 1_555
C7A C7 1_555 1_555
H9A C7A 1_555 1_555
C8A C7A 1_555 1_555
C9A C9 1_555 1_555
C10A C9A 1_555 1_555
H10A C10A 1_555 1_555
C11A C11 1_555 1_555
H11A C11A 1_555 1_555
C12A C8A 1_555 1_555
C1A C2A 1_555 1_555
C5A C6A 1_555 1_555
C8A C9A 1_555 1_555
C10A C11A 1_555 1_555

#END
