
#######################################################################
#
#                 Cambridge Crystallographic Data Centre
#                                CCDC 
#
#######################################################################
#
# If this CIF has been generated from an entry in the Cambridge 
# Structural Database, then it will include bibliographic, chemical, 
# crystal, experimental, refinement or atomic coordinate data resulting 
# from the CCDC's data processing and validation procedures.
#
#######################################################################

data_XOKVOJ
_symmetry_cell_setting           monoclinic
_symmetry_space_group_name_H-M   'P 2/c'
_symmetry_Int_Tables_number      13
_space_group_name_Hall           '-P 2yc'
loop_
_symmetry_equiv_pos_site_id
_symmetry_equiv_pos_as_xyz
1 x,y,z
2 -x,y,1/2-z
3 -x,-y,-z
4 x,-y,1/2+z
_cell_length_a                   11.5879(9)
_cell_length_b                   7.0970(6)
_cell_length_c                   18.7300(15)
_cell_angle_alpha                90
_cell_angle_beta                 92.8210(10)
_cell_angle_gamma                90
_cell_volume                     1538.48
loop_
_atom_site_label
_atom_site_type_symbol
_atom_site_fract_x
_atom_site_fract_y
_atom_site_fract_z
Pb1 Pb 0.576296(14) 0.77803(2) 0.045812(8)
S1 S 0.61940(10) 1.27569(14) 0.12206(6)
O1 O 0.6432(3) 1.0636(4) -0.02617(13)
O2 O 0.7388(3) 1.2906(4) -0.08029(18)
O3 O 0.5763(2) 1.3977(4) 0.06349(14)
O4 O 0.5638(3) 1.0911(4) 0.12035(15)
O5 O 0.6145(3) 1.3653(4) 0.19136(14)
O6 O 0.7225(3) 0.6698(5) -0.04638(16)
H1 H 0.7448 0.5569 -0.0521
H2 H 0.7043 0.7186 -0.0868
O7 O 0.4657(4) 0.7068(5) 0.1634(2)
H3 H 0.4835 0.6011 0.1823
H4 H 0.3944 0.7077 0.1506
N1 N 0.7544(4) 0.7567(5) 0.1305(2)
C1 C 0.8036(4) 1.2073(6) 0.0371(2)
C2 C 0.7669(4) 1.2387(5) 0.1060(2)
C3 C 0.8482(5) 1.2486(6) 0.1635(3)
H7 H 0.8245 1.2686 0.2096
C4 C 0.9641(5) 1.2282(7) 0.1511(3)
H8 H 1.0181 1.2338 0.1895
C5 C 1.0009(5) 1.2003(7) 0.0845(3)
H9 H 1.0793 1.1870 0.0772
C6 C 0.9204(4) 1.1918(7) 0.0268(3)
H10 H 0.9457 1.1754 -0.0191
C7 C 0.7216(4) 1.1856(6) -0.0277(2)
C8 C 0.8586(4) 0.7151(6) 0.1085(3)
H11 H 0.8656 0.6890 0.0602
C9 C 0.9569(4) 0.7085(6) 0.1530(3)
H12 H 1.0279 0.6790 0.1348
C10 C 0.9486(4) 0.7462(5) 0.2247(3)
C11 C 0.8389(4) 0.7872(6) 0.2486(3)
H13 H 0.8293 0.8120 0.2967
C12 C 0.7453(5) 0.7907(6) 0.2004(3)
H14 H 0.6728 0.8178 0.2171
Pb1B Pb 0.423704(14) 1.22197(2) -0.045812(8)
Pb1_2 Pb 0.576296(14) 1.77803(2) 0.045812(8)
Pb1A Pb 1.423704(14) 0.77803(2) 0.454188(8)
Pb1C Pb 1.576296(14) 1.22197(2) 0.545812(8)
Pb1A_2 Pb 1.423704(14) 1.77803(2) 0.454188(8)
S1A S 1.38060(10) 1.27569(14) 0.37794(6)
O1B O 0.3568(3) 0.9364(4) 0.02617(13)
O1A O 1.3568(3) 1.0636(4) 0.52617(13)
O1C O 1.6432(3) 0.9364(4) 0.47383(13)
O2A O 1.2612(3) 1.2906(4) 0.58029(18)
O3B O 0.4237(2) 0.6023(4) -0.06349(14)
O3_2 O 0.5763(2) 0.3977(4) 0.06349(14)
O3A O 1.4237(2) 0.3977(4) 0.43651(14)
O3C O 1.5763(2) 0.6023(4) 0.56349(14)
O3A_2 O 1.4237(2) 1.3977(4) 0.43651(14)
O4A O 1.4362(3) 1.0911(4) 0.37965(15)
O5A O 1.3855(3) 1.3653(4) 0.30864(14)
O6A O 1.2775(3) 0.6698(5) 0.54638(16)
H1A H 1.2552 0.5569 0.5521
H2A H 1.2957 0.7186 0.5868
O7A O 1.5343(4) 0.7068(5) 0.3366(2)
H3A H 1.5165 0.6011 0.3177
H4A H 1.6056 0.7077 0.3494
N1A N 1.2456(4) 0.7567(5) 0.3695(2)
C1A C 1.1964(4) 1.2073(6) 0.4629(2)
C2A C 1.2331(4) 1.2387(5) 0.3940(2)
C3A C 1.1518(5) 1.2486(6) 0.3365(3)
H7A H 1.1755 1.2686 0.2904
C4A C 1.0359(5) 1.2282(7) 0.3489(3)
H8A H 0.9819 1.2338 0.3105
C5A C 0.9991(5) 1.2003(7) 0.4155(3)
H9A H 0.9207 1.1870 0.4228
C6A C 1.0796(4) 1.1918(7) 0.4732(3)
H10A H 1.0543 1.1754 0.5191
C7A C 1.2784(4) 1.1856(6) 0.5277(2)
C8A C 1.1414(4) 0.7151(6) 0.3915(3)
H11A H 1.1344 0.6890 0.4398
C9A C 1.0431(4) 0.7085(6) 0.3470(3)
H12A H 0.9721 0.6790 0.3652
C10A C 1.0514(4) 0.7462(5) 0.2753(3)
C11A C 1.1611(4) 0.7872(6) 0.2514(3)
H13A H 1.1707 0.8120 0.2033
C12A C 1.2547(5) 0.7907(6) 0.2996(3)
H14A H 1.3272 0.8178 0.2829
O8 O 0.3287(3) 0.1535(5) 0.17669(17)
H5 H 0.3567 0.2247 0.2096
H6 H 0.3756 0.0644 0.1692
loop_
_geom_bond_atom_site_label_1
_geom_bond_atom_site_label_2
_geom_bond_site_symmetry_1
_geom_bond_site_symmetry_2
Pb1 O1 1_555 1_555
S1 O3 1_555 1_555
O1 C7 1_555 1_555
O2 C7 1_555 1_555
O3 Pb1B 1_555 1_555
O4 Pb1 1_555 1_555
O5 S1 1_555 1_555
O6 Pb1 1_555 1_555
H1 O6 1_555 1_555
H2 O6 1_555 1_555
O7 Pb1 1_555 1_555
H3 O7 1_555 1_555
H4 O7 1_555 1_555
O8 H5 1_555 1_555
H6 O8 1_555 1_555
N1 Pb1 1_555 1_555
C1 C2 1_555 1_555
C2 S1 1_555 1_555
C3 C2 1_555 1_555
H7 C3 1_555 1_555
C4 C3 1_555 1_555
H8 C4 1_555 1_555
C5 C4 1_555 1_555
H9 C5 1_555 1_555
C6 C1 1_555 1_555
H10 C6 1_555 1_555
C7 C1 1_555 1_555
C8 N1 1_555 1_555
H11 C8 1_555 1_555
C9 C8 1_555 1_555
H12 C9 1_555 1_555
C10 C9 1_555 1_555
C11 C10 1_555 1_555
H13 C11 1_555 1_555
C12 N1 1_555 1_555
H14 C12 1_555 1_555
Pb1B O1 1_555 1_555
Pb1_2 O3 1_555 1_555
Pb1A O1A 1_555 1_555
Pb1C O1A 1_555 1_555
Pb1A_2 O3A_2 1_555 1_555
S1A O3A_2 1_555 1_555
O1B Pb1 1_555 1_555
O1A C7A 1_555 1_555
O1C Pb1A 1_555 1_555
O2A C7A 1_555 1_555
O3B Pb1 1_555 1_555
O3_2 Pb1 1_555 1_555
O3A Pb1A 1_555 1_555
O3C Pb1A 1_555 1_555
O3A_2 Pb1C 1_555 1_555
O4A Pb1A 1_555 1_555
O5A S1A 1_555 1_555
O6A Pb1A 1_555 1_555
H1A O6A 1_555 1_555
H2A O6A 1_555 1_555
O7A Pb1A 1_555 1_555
H3A O7A 1_555 1_555
H4A O7A 1_555 1_555
N1A Pb1A 1_555 1_555
C1A C2A 1_555 1_555
C2A S1A 1_555 1_555
C3A C2A 1_555 1_555
H7A C3A 1_555 1_555
C4A C3A 1_555 1_555
H8A C4A 1_555 1_555
C5A C4A 1_555 1_555
H9A C5A 1_555 1_555
C6A C1A 1_555 1_555
H10A C6A 1_555 1_555
C7A C1A 1_555 1_555
C8A N1A 1_555 1_555
H11A C8A 1_555 1_555
C9A C8A 1_555 1_555
H12A C9A 1_555 1_555
C10A C10 1_555 1_555
C11A C10A 1_555 1_555
H13A C11A 1_555 1_555
C12A N1A 1_555 1_555
H14A C12A 1_555 1_555
S1 O4 1_555 1_555
C5 C6 1_555 1_555
C11 C12 1_555 1_555
Pb1B O1B 1_555 1_555
Pb1C O1C 1_555 1_555
S1A O4A 1_555 1_555
C5A C6A 1_555 1_555
C9A C10A 1_555 1_555
C11A C12A 1_555 1_555

#END
