
#######################################################################
#
#                 Cambridge Crystallographic Data Centre
#                                CCDC 
#
#######################################################################
#
# If this CIF has been generated from an entry in the Cambridge 
# Structural Database, then it will include bibliographic, chemical, 
# crystal, experimental, refinement or atomic coordinate data resulting 
# from the CCDC's data processing and validation procedures.
#
#######################################################################

data_XOKYOM
_symmetry_cell_setting           monoclinic
_symmetry_space_group_name_H-M   'P 21/c'
_symmetry_Int_Tables_number      14
_space_group_name_Hall           '-P 2ybc'
loop_
_symmetry_equiv_pos_site_id
_symmetry_equiv_pos_as_xyz
1 x,y,z
2 -x,1/2+y,1/2-z
3 -x,-y,-z
4 x,1/2-y,1/2+z
_cell_length_a                   9.9672(3)
_cell_length_b                   33.138(1)
_cell_length_c                   19.6333(5)
_cell_angle_alpha                90
_cell_angle_beta                 93.2869(8)
_cell_angle_gamma                90
_cell_volume                     6474.08
loop_
_atom_site_label
_atom_site_type_symbol
_atom_site_fract_x
_atom_site_fract_y
_atom_site_fract_z
V1 V -0.60968(9) 0.48420(3) 0.43931(4)
V2 V -0.4801(1) 0.46531(3) 0.06035(4)
O1 O -0.4312(4) 0.4776(1) -0.5326(2)
O2 O -0.7269(4) 0.4610(1) 0.4923(2)
O3 O -0.6639(4) 0.5319(1) 0.4050(2)
O4 O -0.5990(4) 0.5058(1) 0.0314(2)
O5 O -0.3204(4) 0.4807(1) 0.0982(2)
O6 O -0.4685(4) 0.4208(2) 0.0091(2)
N1 N -0.6258(4) 0.4561(1) 0.3684(2)
N2 N -0.5537(4) 0.4476(2) 0.1282(2)
C1 C -0.6510(5) 0.4371(2) 0.3060(2)
C2 C -0.5893(5) 0.4513(2) 0.2487(2)
C3 C -0.6153(6) 0.4327(2) 0.1853(2)
C4 C -0.7033(8) 0.4003(2) 0.1794(3)
C5 C -0.7630(9) 0.3861(3) 0.2364(4)
C6 C -0.7379(7) 0.4045(2) 0.2998(3)
C7 C -0.3241(6) 0.4536(2) -0.5568(3)
C8 C -0.3584(9) 0.4096(3) -0.5562(4)
C9 C -0.2858(7) 0.4688(3) -0.6251(3)
C10 C -0.8044(8) 0.4251(2) 0.4867(3)
C11 C -0.798(2) 0.4043(4) 0.5532(5)
C12 C -0.942(1) 0.4349(4) 0.463(1)
C13 C -0.7101(8) 0.5438(2) 0.3379(3)
C14 C -0.852(1) 0.5454(8) 0.3326(7)
C15 C -0.655(2) 0.5823(5) 0.3234(6)
C16 C -0.7258(7) 0.5194(3) 0.0531(3)
C17 C -0.7082(10) 0.5383(3) 0.1240(4)
C18 C -0.8279(8) 0.4861(4) 0.0477(4)
C19 C -0.2682(6) 0.4823(2) 0.1671(3)
C20 C -0.297(1) 0.5222(3) 0.1947(5)
C21 C -0.1249(9) 0.4706(4) 0.1709(4)
C22 C -0.5053(7) 0.3794(3) 0.0179(4)
C23 C -0.398(1) 0.3532(4) -0.0095(8)
C24 C -0.638(1) 0.3723(4) -0.0176(7)
H1 H -0.5294 0.4736 0.2527
H2 H -0.7223 0.3879 0.1363
H3 H -0.8220 0.3636 0.2324
H4 H -0.7802 0.3947 0.3387
H5 H -0.2484 0.4573 -0.5258
H6 H -0.3790 0.4018 -0.5114
H7 H -0.4341 0.4048 -0.5868
H8 H -0.2840 0.3943 -0.5701
H9 H -0.2115 0.4537 -0.6396
H10 H -0.3598 0.4658 -0.6574
H11 H -0.2618 0.4965 -0.6215
H12 H -0.7665 0.4080 0.4541
H13 H -0.8355 0.4211 0.5864
H14 H -0.8468 0.3798 0.5494
H15 H -0.7067 0.3987 0.5668
H16 H -0.9805 0.4528 0.4942
H17 H -0.9417 0.4475 0.4193
H18 H -0.9940 0.4109 0.4592
H19 H -0.6802 0.5247 0.3061
H20 H -0.8826 0.5652 0.3631
H21 H -0.8817 0.5523 0.2872
H22 H -0.8876 0.5198 0.3439
H23 H -0.5601 0.5811 0.3288
H24 H -0.6814 0.5897 0.2778
H25 H -0.6879 0.6017 0.3539
H26 H -0.7563 0.5401 0.0225
H27 H -0.6773 0.5183 0.1560
H28 H -0.6444 0.5595 0.1234
H29 H -0.7919 0.5487 0.1369
H30 H -0.9126 0.4962 0.0596
H31 H -0.8349 0.4762 0.0022
H32 H -0.8007 0.4649 0.0779
H33 H -0.3155 0.4629 0.1922
H34 H -0.2705 0.5228 0.2419
H35 H -0.2484 0.5421 0.1714
H36 H -0.3905 0.5275 0.1886
H37 H -0.1156 0.4447 0.1511
H38 H -0.0749 0.4897 0.1468
H39 H -0.0922 0.4699 0.2173
H40 H -0.5112 0.3741 0.0652
H41 H -0.4190 0.3256 -0.0022
H42 H -0.3927 0.3580 -0.0569
H43 H -0.3137 0.3593 0.0135
H44 H -0.7031 0.3892 0.0015
H45 H -0.6333 0.3783 -0.0647
H46 H -0.6628 0.3449 -0.0123
V1B V -0.39032(9) 0.51580(3) -0.43931(4)
V1_2 V -0.60968(9) 0.48420(3) -0.56069(4)
V2B V -0.5199(1) 0.53469(3) -0.06035(4)
O1B O -0.5688(4) 0.5224(1) 0.5326(2)
O1_2 O -0.4312(4) 0.4776(1) 0.4674(2)
O1B_2 O -0.5688(4) 0.5224(1) -0.4674(2)
O2B O -0.2731(4) 0.5390(1) -0.4923(2)
O3B O -0.3361(4) 0.4681(1) -0.4050(2)
O4B O -0.4010(4) 0.4942(1) -0.0314(2)
O5B O -0.6796(4) 0.5193(1) -0.0982(2)
O6B O -0.5315(4) 0.5792(2) -0.0091(2)
N1B N -0.3742(4) 0.5439(1) -0.3684(2)
N2B N -0.4463(4) 0.5524(2) -0.1282(2)
C1B C -0.3490(5) 0.5629(2) -0.3060(2)
C2B C -0.4107(5) 0.5487(2) -0.2487(2)
C3B C -0.3847(6) 0.5673(2) -0.1853(2)
C4B C -0.2967(8) 0.5997(2) -0.1794(3)
C5B C -0.2370(9) 0.6139(3) -0.2364(4)
C6B C -0.2621(7) 0.5955(2) -0.2998(3)
C7B C -0.6759(6) 0.5464(2) -0.4432(3)
C8B C -0.6416(9) 0.5904(3) -0.4438(4)
C9B C -0.7142(7) 0.5312(3) -0.3749(3)
C10B C -0.1956(8) 0.5749(2) -0.4867(3)
C11B C -0.202(2) 0.5957(4) -0.5532(5)
C12B C -0.058(1) 0.5651(4) -0.463(1)
C13B C -0.2899(8) 0.4562(2) -0.3379(3)
C14B C -0.148(1) 0.4546(8) -0.3326(7)
C15B C -0.345(2) 0.4177(5) -0.3234(6)
C16B C -0.2742(7) 0.4806(3) -0.0531(3)
C17B C -0.2918(10) 0.4617(3) -0.1240(4)
C18B C -0.1721(8) 0.5139(4) -0.0477(4)
C19B C -0.7318(6) 0.5177(2) -0.1671(3)
C20B C -0.703(1) 0.4778(3) -0.1947(5)
C21B C -0.8751(9) 0.5294(4) -0.1709(4)
C22B C -0.4947(7) 0.6206(3) -0.0179(4)
C23B C -0.602(1) 0.6468(4) 0.0095(8)
C24B C -0.362(1) 0.6277(4) 0.0176(7)
H1B H -0.4706 0.5264 -0.2527
H2B H -0.2777 0.6121 -0.1363
H3B H -0.1780 0.6364 -0.2324
H4B H -0.2198 0.6053 -0.3387
H5B H -0.7516 0.5427 -0.4742
H6B H -0.6210 0.5982 -0.4886
H7B H -0.5659 0.5952 -0.4132
H8B H -0.7160 0.6057 -0.4299
H9B H -0.7885 0.5463 -0.3604
H10B H -0.6402 0.5342 -0.3426
H11B H -0.7382 0.5035 -0.3785
H12B H -0.2335 0.5920 -0.4541
H13B H -0.1645 0.5789 -0.5864
H14B H -0.1532 0.6202 -0.5494
H15B H -0.2933 0.6013 -0.5668
H16B H -0.0195 0.5472 -0.4942
H17B H -0.0583 0.5525 -0.4193
H18B H -0.0060 0.5891 -0.4592
H19B H -0.3198 0.4753 -0.3061
H20B H -0.1174 0.4348 -0.3631
H21B H -0.1183 0.4477 -0.2872
H22B H -0.1124 0.4802 -0.3439
H23B H -0.4399 0.4189 -0.3288
H24B H -0.3186 0.4103 -0.2778
H25B H -0.3121 0.3983 -0.3539
H26B H -0.2437 0.4599 -0.0225
H27B H -0.3227 0.4817 -0.1560
H28B H -0.3556 0.4405 -0.1234
H29B H -0.2081 0.4513 -0.1369
H30B H -0.0874 0.5038 -0.0596
H31B H -0.1651 0.5238 -0.0022
H32B H -0.1993 0.5351 -0.0779
H33B H -0.6845 0.5371 -0.1922
H34B H -0.7295 0.4772 -0.2419
H35B H -0.7516 0.4579 -0.1714
H36B H -0.6095 0.4725 -0.1886
H37B H -0.8844 0.5553 -0.1511
H38B H -0.9251 0.5103 -0.1468
H39B H -0.9078 0.5301 -0.2173
H40B H -0.4888 0.6259 -0.0652
H41B H -0.5810 0.6744 0.0022
H42B H -0.6073 0.6420 0.0569
H43B H -0.6863 0.6407 -0.0135
H44B H -0.2969 0.6108 -0.0015
H45B H -0.3667 0.6217 0.0647
H46B H -0.3372 0.6551 0.0123
V3 V -0.0669(1) 0.22706(3) 0.68102(4)
V4 V 0.08904(9) 0.22227(3) 0.30653(4)
O7 O 0.1061(4) 0.2582(1) 0.2087(2)
O8 O -0.1532(5) 0.1929(1) 0.7333(2)
O9 O -0.1723(4) 0.2653(1) 0.6420(2)
O10 O -0.0829(4) 0.2340(1) 0.2720(2)
O11 O 0.1848(4) 0.1866(1) 0.2617(2)
O12 O 0.1876(4) 0.2628(1) 0.3420(2)
N3 N -0.0391(5) 0.1984(1) 0.6131(2)
N4 N 0.0565(4) 0.1959(1) 0.3761(2)
C25 C -0.0169(5) 0.1764(2) 0.5548(2)
C26 C 0.0107(6) 0.1965(2) 0.4948(2)
C27 C 0.0280(5) 0.1754(2) 0.4349(2)
C28 C 0.0168(6) 0.1334(2) 0.4350(3)
C29 C -0.0095(7) 0.1133(2) 0.4946(4)
C30 C -0.0241(6) 0.1343(2) 0.5542(3)
C31 C 0.2280(7) 0.2624(3) 0.1729(3)
C32 C 0.2285(7) 0.2332(3) 0.1146(3)
C33 C 0.336(1) 0.2766(6) 0.2043(9)
C34 C -0.1985(9) 0.1527(2) 0.7265(4)
C35 C -0.150(2) 0.1297(4) 0.7875(7)
C36 C -0.343(1) 0.1519(4) 0.723(1)
C37 C -0.2282(8) 0.2721(3) 0.5747(3)
C38 C -0.376(1) 0.2745(7) 0.5773(6)
C39 C -0.172(1) 0.3091(4) 0.5486(6)
C40 C -0.2152(6) 0.2248(3) 0.2936(3)
C41 C -0.2418(8) 0.1802(3) 0.2913(5)
C42 C -0.2350(8) 0.2444(3) 0.3626(4)
C43 C 0.2206(7) 0.1459(2) 0.2739(3)
C44 C 0.3580(10) 0.1385(3) 0.2534(7)
C45 C 0.115(1) 0.1200(3) 0.2358(5)
C46 C 0.2367(8) 0.2728(3) 0.4092(3)
C47 C 0.164(3) 0.3081(4) 0.4299(6)
C48 C 0.371(2) 0.282(1) 0.4088(7)
H47 H 0.0177 0.2251 0.4950
H48 H 0.0273 0.1186 0.3942
H49 H -0.0176 0.0847 0.4944
H50 H -0.0391 0.1201 0.5951
H51 H 0.2033 0.2858 0.1473
H52 H 0.2476 0.2069 0.1317
H53 H 0.2953 0.2410 0.0846
H54 H 0.1429 0.2333 0.0907
H55 H 0.3136 0.2995 0.2305
H56 H 0.3982 0.2843 0.1718
H57 H 0.3752 0.2565 0.2336
H58 H -0.1660 0.1409 0.6865
H59 H -0.1842 0.1415 0.8270
H60 H -0.1798 0.1025 0.7834
H61 H -0.0545 0.1303 0.7912
H62 H -0.3745 0.1631 0.7639
H63 H -0.3769 0.1672 0.6852
H64 H -0.3733 0.1248 0.7187
H65 H -0.2057 0.2501 0.5463
H66 H -0.3986 0.2965 0.6055
H67 H -0.4152 0.2784 0.5326
H68 H -0.4088 0.2501 0.5956
H69 H -0.0773 0.3065 0.5476
H70 H -0.2094 0.3141 0.5038
H71 H -0.1928 0.3310 0.5775
H72 H -0.2777 0.2371 0.2616
H73 H -0.3312 0.1752 0.3032
H74 H -0.2301 0.1705 0.2465
H75 H -0.1807 0.1669 0.3226
H76 H -0.1725 0.2333 0.3959
H77 H -0.2207 0.2727 0.3594
H78 H -0.3238 0.2395 0.3756
H79 H 0.2177 0.1407 0.3214
H80 H 0.3830 0.1115 0.2643
H81 H 0.3614 0.1426 0.2056
H82 H 0.4182 0.1566 0.2770
H83 H 0.0286 0.1266 0.2504
H84 H 0.1174 0.1248 0.1882
H85 H 0.1332 0.0923 0.2449
H86 H 0.2234 0.2510 0.4395
H87 H 0.1983 0.3161 0.4742
H88 H 0.1778 0.3293 0.3985
H89 H 0.0720 0.3020 0.4307
H90 H 0.4202 0.2593 0.3951
H91 H 0.3834 0.3037 0.3776
H92 H 0.4035 0.2903 0.4532
V3C V -0.0669(1) 0.27294(3) 0.18102(4)
V3_2 V -0.0669(1) 0.22706(3) -0.31898(4)
V4C V 0.08904(9) 0.27773(3) -0.19347(4)
O7C O 0.1061(4) 0.2418(1) 0.7087(2)
O7C_2 O 0.1061(4) 0.2418(1) -0.2913(2)
O8C O -0.1532(5) 0.3071(1) 0.2333(2)
O9C O -0.1723(4) 0.2347(1) 0.1420(2)
O10C O -0.0829(4) 0.2660(1) 0.7720(2)
O10C_2 O -0.0829(4) 0.2660(1) -0.2280(2)
O11C O 0.1848(4) 0.3134(1) -0.2383(2)
O12C O 0.1876(4) 0.2372(1) -0.1580(2)
N3C N -0.0391(5) 0.3016(1) 0.1131(2)
N4C N 0.0565(4) 0.3041(1) -0.1239(2)
C25C C -0.0169(5) 0.3236(2) 0.0548(2)
C26C C 0.0107(6) 0.3035(2) -0.0052(2)
C27C C 0.0280(5) 0.3246(2) -0.0651(2)
C28C C 0.0168(6) 0.3666(2) -0.0650(3)
C29C C -0.0095(7) 0.3867(2) -0.0054(4)
C30C C -0.0241(6) 0.3657(2) 0.0542(3)
C31C C 0.2280(7) 0.2376(3) -0.3271(3)
C32C C 0.2285(7) 0.2668(3) -0.3854(3)
C33C C 0.336(1) 0.2234(6) -0.2957(9)
C34C C -0.1985(9) 0.3473(2) 0.2265(4)
C35C C -0.150(2) 0.3703(4) 0.2875(7)
C36C C -0.343(1) 0.3481(4) 0.223(1)
C37C C -0.2282(8) 0.2279(3) 0.0747(3)
C38C C -0.376(1) 0.2255(7) 0.0773(6)
C39C C -0.172(1) 0.1909(4) 0.0486(6)
C40C C -0.2152(6) 0.2752(3) -0.2064(3)
C41C C -0.2418(8) 0.3198(3) -0.2087(5)
C42C C -0.2350(8) 0.2556(3) -0.1374(4)
C43C C 0.2206(7) 0.3541(2) -0.2261(3)
C44C C 0.3580(10) 0.3615(3) -0.2466(7)
C45C C 0.115(1) 0.3800(3) -0.2642(5)
C46C C 0.2367(8) 0.2272(3) -0.0908(3)
C47C C 0.164(3) 0.1919(4) -0.0701(6)
C48C C 0.371(2) 0.218(1) -0.0912(7)
H47C H 0.0177 0.2749 -0.0050
H48C H 0.0273 0.3814 -0.1058
H49C H -0.0176 0.4153 -0.0056
H50C H -0.0391 0.3799 0.0951
H51C H 0.2033 0.2142 -0.3527
H52C H 0.2476 0.2931 -0.3683
H53C H 0.2953 0.2590 -0.4154
H54C H 0.1429 0.2667 -0.4093
H55C H 0.3136 0.2005 -0.2695
H56C H 0.3982 0.2157 -0.3282
H57C H 0.3752 0.2435 -0.2664
H58C H -0.1660 0.3591 0.1865
H59C H -0.1842 0.3585 0.3270
H60C H -0.1798 0.3975 0.2834
H61C H -0.0545 0.3697 0.2912
H62C H -0.3745 0.3369 0.2639
H63C H -0.3769 0.3328 0.1852
H64C H -0.3733 0.3752 0.2187
H65C H -0.2057 0.2499 0.0463
H66C H -0.3986 0.2035 0.1055
H67C H -0.4152 0.2216 0.0326
H68C H -0.4088 0.2499 0.0956
H69C H -0.0773 0.1935 0.0476
H70C H -0.2094 0.1859 0.0038
H71C H -0.1928 0.1690 0.0775
H72C H -0.2777 0.2629 -0.2384
H73C H -0.3312 0.3248 -0.1968
H74C H -0.2301 0.3295 -0.2535
H75C H -0.1807 0.3331 -0.1774
H76C H -0.1725 0.2667 -0.1041
H77C H -0.2207 0.2273 -0.1406
H78C H -0.3238 0.2605 -0.1244
H79C H 0.2177 0.3593 -0.1786
H80C H 0.3830 0.3885 -0.2357
H81C H 0.3614 0.3574 -0.2944
H82C H 0.4182 0.3434 -0.2230
H83C H 0.0286 0.3734 -0.2496
H84C H 0.1174 0.3752 -0.3118
H85C H 0.1332 0.4077 -0.2551
H86C H 0.2234 0.2490 -0.0605
H87C H 0.1983 0.1839 -0.0258
H88C H 0.1778 0.1707 -0.1015
H89C H 0.0720 0.1980 -0.0693
H90C H 0.4202 0.2407 -0.1049
H91C H 0.3834 0.1963 -0.1224
H92C H 0.4035 0.2097 -0.0468
loop_
_geom_bond_atom_site_label_1
_geom_bond_atom_site_label_2
_geom_bond_site_symmetry_1
_geom_bond_site_symmetry_2
V1 O2 1_555 1_555
V2 O4 1_555 1_555
V3 O8 1_555 1_555
V4 O7 1_555 1_555
O1 C7 1_555 1_555
O2 C10 1_555 1_555
O3 V1 1_555 1_555
O4 C16 1_555 1_555
O5 V2 1_555 1_555
O6 V2 1_555 1_555
O7 C31 1_555 1_555
O8 C34 1_555 1_555
O9 V3 1_555 1_555
O10 V4 1_555 1_555
O11 V4 1_555 1_555
O12 V4 1_555 1_555
N1 V1 1_555 1_555
N2 V2 1_555 1_555
N3 V3 1_555 1_555
N4 V4 1_555 1_555
C1 N1 1_555 1_555
C2 C1 1_555 1_555
C3 N2 1_555 1_555
C4 C3 1_555 1_555
C5 C4 1_555 1_555
C6 C1 1_555 1_555
C7 C8 1_555 1_555
C8 H6 1_555 1_555
C9 C7 1_555 1_555
C10 C11 1_555 1_555
C11 H13 1_555 1_555
C12 C10 1_555 1_555
C13 O3 1_555 1_555
C14 C13 1_555 1_555
C15 C13 1_555 1_555
C16 C17 1_555 1_555
C17 H27 1_555 1_555
C18 C16 1_555 1_555
C19 O5 1_555 1_555
C20 C19 1_555 1_555
C21 C19 1_555 1_555
C22 O6 1_555 1_555
C23 C22 1_555 1_555
C24 C22 1_555 1_555
C25 N3 1_555 1_555
C26 C25 1_555 1_555
C27 N4 1_555 1_555
C28 C27 1_555 1_555
C29 C28 1_555 1_555
C30 C25 1_555 1_555
C31 C32 1_555 1_555
C32 H52 1_555 1_555
C33 C31 1_555 1_555
C34 C35 1_555 1_555
C35 H59 1_555 1_555
C36 C34 1_555 1_555
C37 O9 1_555 1_555
C38 C37 1_555 1_555
C39 C37 1_555 1_555
C40 O10 1_555 1_555
C41 C40 1_555 1_555
C42 C40 1_555 1_555
C43 O11 1_555 1_555
C44 C43 1_555 1_555
C45 C43 1_555 1_555
C46 O12 1_555 1_555
C47 C46 1_555 1_555
C48 C46 1_555 1_555
H1 C2 1_555 1_555
H2 C4 1_555 1_555
H3 C5 1_555 1_555
H4 C6 1_555 1_555
H5 C7 1_555 1_555
H7 C8 1_555 1_555
H8 C8 1_555 1_555
H9 C9 1_555 1_555
H10 C9 1_555 1_555
H11 C9 1_555 1_555
H12 C10 1_555 1_555
H14 C11 1_555 1_555
H15 C11 1_555 1_555
H16 C12 1_555 1_555
H17 C12 1_555 1_555
H18 C12 1_555 1_555
H19 C13 1_555 1_555
H20 C14 1_555 1_555
H21 C14 1_555 1_555
H22 C14 1_555 1_555
H23 C15 1_555 1_555
H24 C15 1_555 1_555
H25 C15 1_555 1_555
H26 C16 1_555 1_555
H28 C17 1_555 1_555
H29 C17 1_555 1_555
H30 C18 1_555 1_555
H31 C18 1_555 1_555
H32 C18 1_555 1_555
H33 C19 1_555 1_555
H34 C20 1_555 1_555
H35 C20 1_555 1_555
H36 C20 1_555 1_555
H37 C21 1_555 1_555
H38 C21 1_555 1_555
H39 C21 1_555 1_555
H40 C22 1_555 1_555
H41 C23 1_555 1_555
H42 C23 1_555 1_555
H43 C23 1_555 1_555
H44 C24 1_555 1_555
H45 C24 1_555 1_555
H46 C24 1_555 1_555
H47 C26 1_555 1_555
H48 C28 1_555 1_555
H49 C29 1_555 1_555
H50 C30 1_555 1_555
H51 C31 1_555 1_555
H53 C32 1_555 1_555
H54 C32 1_555 1_555
H55 C33 1_555 1_555
H56 C33 1_555 1_555
H57 C33 1_555 1_555
H58 C34 1_555 1_555
H60 C35 1_555 1_555
H61 C35 1_555 1_555
H62 C36 1_555 1_555
H63 C36 1_555 1_555
H64 C36 1_555 1_555
H65 C37 1_555 1_555
H66 C38 1_555 1_555
H67 C38 1_555 1_555
H68 C38 1_555 1_555
H69 C39 1_555 1_555
H70 C39 1_555 1_555
H71 C39 1_555 1_555
H72 C40 1_555 1_555
H73 C41 1_555 1_555
H74 C41 1_555 1_555
H75 C41 1_555 1_555
H76 C42 1_555 1_555
H77 C42 1_555 1_555
H78 C42 1_555 1_555
H79 C43 1_555 1_555
H80 C44 1_555 1_555
H81 C44 1_555 1_555
H82 C44 1_555 1_555
H83 C45 1_555 1_555
H84 C45 1_555 1_555
H85 C45 1_555 1_555
H86 C46 1_555 1_555
H87 C47 1_555 1_555
H88 C47 1_555 1_555
H89 C47 1_555 1_555
H90 C48 1_555 1_555
H91 C48 1_555 1_555
H92 C48 1_555 1_555
V1B O1 1_555 1_555
V1_2 O1 1_555 1_555
V2B O4 1_555 1_555
V3C O7 1_555 1_555
V3_2 O7C_2 1_555 1_555
V4C O7C_2 1_555 1_555
O1B V1 1_555 1_555
O1_2 V1 1_555 1_555
O1B_2 V1B 1_555 1_555
O2B V1B 1_555 1_555
O3B V1B 1_555 1_555
O4B V2 1_555 1_555
O5B V2B 1_555 1_555
O6B V2B 1_555 1_555
O7C V3 1_555 1_555
O7C_2 C31C 1_555 1_555
O8C V3C 1_555 1_555
O9C V3C 1_555 1_555
O10C V3 1_555 1_555
O10C_2 V3_2 1_555 1_555
O11C V4C 1_555 1_555
O12C V4C 1_555 1_555
N1B V1B 1_555 1_555
N2B V2B 1_555 1_555
N3C V3C 1_555 1_555
N4C V4C 1_555 1_555
C1B N1B 1_555 1_555
C2B C1B 1_555 1_555
C3B N2B 1_555 1_555
C4B C3B 1_555 1_555
C5B C4B 1_555 1_555
C6B C1B 1_555 1_555
C7B O1B_2 1_555 1_555
C8B C7B 1_555 1_555
C9B C7B 1_555 1_555
C10B O2B 1_555 1_555
C11B C10B 1_555 1_555
C12B C10B 1_555 1_555
C13B O3B 1_555 1_555
C14B C13B 1_555 1_555
C15B C13B 1_555 1_555
C16B O4B 1_555 1_555
C17B C16B 1_555 1_555
C18B C16B 1_555 1_555
C19B O5B 1_555 1_555
C20B C19B 1_555 1_555
C21B C19B 1_555 1_555
C22B O6B 1_555 1_555
C23B C22B 1_555 1_555
C24B C22B 1_555 1_555
C25C N3C 1_555 1_555
C26C C25C 1_555 1_555
C27C N4C 1_555 1_555
C28C C27C 1_555 1_555
C29C C28C 1_555 1_555
C30C C25C 1_555 1_555
C31C C32C 1_555 1_555
C32C H52C 1_555 1_555
C33C C31C 1_555 1_555
C34C O8C 1_555 1_555
C35C C34C 1_555 1_555
C36C C34C 1_555 1_555
C37C O9C 1_555 1_555
C38C C37C 1_555 1_555
C39C C37C 1_555 1_555
C40C O10C_2 1_555 1_555
C41C C40C 1_555 1_555
C42C C40C 1_555 1_555
C43C O11C 1_555 1_555
C44C C43C 1_555 1_555
C45C C43C 1_555 1_555
C46C O12C 1_555 1_555
C47C C46C 1_555 1_555
C48C C46C 1_555 1_555
H1B C2B 1_555 1_555
H2B C4B 1_555 1_555
H3B C5B 1_555 1_555
H4B C6B 1_555 1_555
H5B C7B 1_555 1_555
H6B C8B 1_555 1_555
H7B C8B 1_555 1_555
H8B C8B 1_555 1_555
H9B C9B 1_555 1_555
H10B C9B 1_555 1_555
H11B C9B 1_555 1_555
H12B C10B 1_555 1_555
H13B C11B 1_555 1_555
H14B C11B 1_555 1_555
H15B C11B 1_555 1_555
H16B C12B 1_555 1_555
H17B C12B 1_555 1_555
H18B C12B 1_555 1_555
H19B C13B 1_555 1_555
H20B C14B 1_555 1_555
H21B C14B 1_555 1_555
H22B C14B 1_555 1_555
H23B C15B 1_555 1_555
H24B C15B 1_555 1_555
H25B C15B 1_555 1_555
H26B C16B 1_555 1_555
H27B C17B 1_555 1_555
H28B C17B 1_555 1_555
H29B C17B 1_555 1_555
H30B C18B 1_555 1_555
H31B C18B 1_555 1_555
H32B C18B 1_555 1_555
H33B C19B 1_555 1_555
H34B C20B 1_555 1_555
H35B C20B 1_555 1_555
H36B C20B 1_555 1_555
H37B C21B 1_555 1_555
H38B C21B 1_555 1_555
H39B C21B 1_555 1_555
H40B C22B 1_555 1_555
H41B C23B 1_555 1_555
H42B C23B 1_555 1_555
H43B C23B 1_555 1_555
H44B C24B 1_555 1_555
H45B C24B 1_555 1_555
H46B C24B 1_555 1_555
H47C C26C 1_555 1_555
H48C C28C 1_555 1_555
H49C C29C 1_555 1_555
H50C C30C 1_555 1_555
H51C C31C 1_555 1_555
H53C C32C 1_555 1_555
H54C C32C 1_555 1_555
H55C C33C 1_555 1_555
H56C C33C 1_555 1_555
H57C C33C 1_555 1_555
H58C C34C 1_555 1_555
H59C C35C 1_555 1_555
H60C C35C 1_555 1_555
H61C C35C 1_555 1_555
H62C C36C 1_555 1_555
H63C C36C 1_555 1_555
H64C C36C 1_555 1_555
H65C C37C 1_555 1_555
H66C C38C 1_555 1_555
H67C C38C 1_555 1_555
H68C C38C 1_555 1_555
H69C C39C 1_555 1_555
H70C C39C 1_555 1_555
H71C C39C 1_555 1_555
H72C C40C 1_555 1_555
H73C C41C 1_555 1_555
H74C C41C 1_555 1_555
H75C C41C 1_555 1_555
H76C C42C 1_555 1_555
H77C C42C 1_555 1_555
H78C C42C 1_555 1_555
H79C C43C 1_555 1_555
H80C C44C 1_555 1_555
H81C C44C 1_555 1_555
H82C C44C 1_555 1_555
H83C C45C 1_555 1_555
H84C C45C 1_555 1_555
H85C C45C 1_555 1_555
H86C C46C 1_555 1_555
H87C C47C 1_555 1_555
H88C C47C 1_555 1_555
H89C C47C 1_555 1_555
H90C C48C 1_555 1_555
H91C C48C 1_555 1_555
H92C C48C 1_555 1_555
O10 V3C 1_555 1_555
C2 C3 1_555 1_555
C5 C6 1_555 1_555
C26 C27 1_555 1_555
C29 C30 1_555 1_555
V1_2 O1B_2 1_555 1_555
V2B O4B 1_555 1_555
V4C O10C_2 1_555 1_555
C2B C3B 1_555 1_555
C5B C6B 1_555 1_555
C26C C27C 1_555 1_555
C29C C30C 1_555 1_555

#END
