
#######################################################################
#
#                 Cambridge Crystallographic Data Centre
#                                CCDC 
#
#######################################################################
#
# If this CIF has been generated from an entry in the Cambridge 
# Structural Database, then it will include bibliographic, chemical, 
# crystal, experimental, refinement or atomic coordinate data resulting 
# from the CCDC's data processing and validation procedures.
#
#######################################################################

data_XOLRUM
_symmetry_cell_setting           triclinic
_symmetry_space_group_name_H-M   'P -1'
_symmetry_Int_Tables_number      2
_space_group_name_Hall           '-P 1'
loop_
_symmetry_equiv_pos_site_id
_symmetry_equiv_pos_as_xyz
1 x,y,z
2 -x,-y,-z
_cell_length_a                   8.113(3)
_cell_length_b                   10.649(2)
_cell_length_c                   19.590(5)
_cell_angle_alpha                76.830(6)
_cell_angle_beta                 88.480(5)
_cell_angle_gamma                88.620(3)
_cell_volume                     1647.11
loop_
_atom_site_label
_atom_site_type_symbol
_atom_site_fract_x
_atom_site_fract_y
_atom_site_fract_z
Cu1 Cu -0.7832(4) 0.3697(3) -0.58979(15)
Cu2 Cu -0.5000 0.5000 -0.5000
Cu3 Cu -1.0000 -0.5000 -0.5000
Cu4 Cu -1.2827(4) 0.6285(3) -0.90996(15)
Cu5 Cu -1.0000 0.5000 -1.0000
Cu6 Cu -0.5000 1.5000 -1.0000
O1 O -0.525(3) 0.305(2) -0.7658(9)
O2 O -0.518(5) -0.057(2) -0.5852(14)
O3 O -0.991(3) 0.053(2) -0.7257(10)
O4 O -0.600(2) 0.278(2) -0.5747(13)
O5 O -0.386(3) 0.375(3) -0.5335(12)
O6 O -1.024(4) -0.3245(18) -0.5531(14)
O7 O -1.092(3) -0.222(2) -0.4663(11)
O8 O -1.170(2) 0.514(2) -0.8358(8)
O9 O -1.047(3) 0.4004(17) -0.9073(10)
O10 O -0.969(2) 0.4651(16) -0.5962(10)
O11 O -0.026(3) 0.694(3) -0.7337(11)
O12 O -0.023(4) 1.0506(19) -0.9132(12)
O13 O -0.484(3) 0.9516(15) -0.7752(8)
O14 O 0.139(3) 0.621(2) -0.9629(12)
O15 O -0.087(3) 0.7353(18) -0.9287(14)
O16 O -0.541(4) 1.330(2) -0.9453(12)
O17 O -0.591(2) 1.2228(19) -1.0351(12)
O18 O -0.673(3) 0.488(2) -0.6630(9)
O19 O -0.537(3) 0.6007(18) -0.5915(12)
O20 O -1.485(3) 0.537(2) -0.9049(15)
N1 N -0.765(3) 0.179(2) -0.7451(9)
N2 N -0.524(3) 0.1355(19) -0.6743(12)
N3 N -0.738(4) -0.0009(19) -0.6528(13)
N4 N -0.245(3) 0.8181(16) -0.7561(10)
N5 N -0.005(5) 0.868(3) -0.8251(11)
N6 N -0.243(4) 1.003(2) -0.8448(11)
C1 C -0.587(4) 0.219(2) -0.7267(12)
C2 C -0.844(5) 0.078(3) -0.7103(15)
C3 C -0.573(4) 0.014(4) -0.6334(19)
C4 C -0.342(3) 0.164(4) -0.6484(17)
H1 H -0.2961 0.2341 -0.6842
H2 H -0.2731 0.0886 -0.6484
C5 C -0.322(3) 0.196(4) -0.5858(16)
H3 H -0.2090 0.2231 -0.5849
H4 H -0.3327 0.1167 -0.5498
C6 C -0.420(4) 0.286(3) -0.5662(12)
C7 C -0.813(3) -0.123(3) -0.6151(13)
H5 H -0.8549 -0.1686 -0.6483
H6 H -0.7320 -0.1773 -0.5864
C8 C -0.957(5) -0.087(3) -0.5679(17)
H7 H -0.9169 -0.0376 -0.5363
H8 H -1.0419 -0.0370 -0.5966
C9 C -1.034(3) -0.227(4) -0.5223(18)
C10 C -0.842(4) 0.254(2) -0.8064(11)
H9 H -0.7599 0.3030 -0.8375
H10 H -0.8950 0.1976 -0.8313
C11 C -0.967(4) 0.344(3) -0.7863(12)
H11 H -1.0395 0.2949 -0.7501
H12 H -0.9111 0.4057 -0.7661
C12 C -1.077(3) 0.420(2) -0.8486(16)
C13 C -0.082(3) 0.784(3) -0.7686(14)
C14 C -0.083(3) 0.975(4) -0.8632(14)
C15 C -0.322(4) 0.914(3) -0.7855(15)
C16 C 0.158(4) 0.837(4) -0.849(2)
H13 H 0.2236 0.9129 -0.8512
H14 H 0.2029 0.7701 -0.8114
C17 C 0.189(4) 0.799(3) -0.9085(18)
H15 H 0.3028 0.7680 -0.9059
H16 H 0.1869 0.8768 -0.9455
C18 C 0.088(3) 0.693(4) -0.9383(16)
C19 C -0.327(4) 1.130(4) -0.8838(14)
H17 H -0.3814 1.1738 -0.8508
H18 H -0.2467 1.1875 -0.9115
C20 C -0.451(3) 1.089(2) -0.9304(12)
H19 H -0.5345 1.0354 -0.9026
H20 H -0.3973 1.0420 -0.9619
C21 C -0.539(4) 1.232(4) -0.9773(17)
C22 C -0.358(3) 0.750(2) -0.6961(12)
H21 H -0.4292 0.8134 -0.6813
H22 H -0.2909 0.7090 -0.6566
C23 C -0.467(4) 0.646(3) -0.7153(12)
H23 H -0.3958 0.5843 -0.7319
H24 H -0.5372 0.6873 -0.7534
C24 C -0.577(4) 0.572(4) -0.6526(18)
Cu1A Cu -0.2168(4) 0.6303(3) -0.41021(15)
Cu1A_2 Cu -1.2168(4) -0.3697(3) -0.41021(15)
Cu1_2 Cu 0.2168(4) 1.3697(3) -0.58979(15)
Cu1_3 Cu -0.7832(4) -0.6303(3) -0.58979(15)
Cu3_2 Cu -1.0000 0.5000 -0.5000
Cu3_3 Cu 0.0000 1.5000 -0.5000
Cu4A Cu 0.2827(4) 0.3715(3) -0.09004(15)
Cu4_2 Cu -0.2827(4) 0.6285(3) -0.90996(15)
Cu4A_2 Cu -0.7173(4) 1.3715(3) -1.09004(15)
Cu4A_3 Cu -0.7173(4) 0.3715(3) -0.09004(15)
Cu4_3 Cu -0.2827(4) -0.3715(3) 0.09004(15)
Cu4_4 Cu -0.2827(4) 1.6285(3) -0.90996(15)
Cu5_2 Cu 0.0000 0.5000 -1.0000
Cu5_3 Cu 0.0000 0.5000 0.0000
Cu5_4 Cu -1.0000 0.5000 0.0000
Cu6_2 Cu -1.5000 0.5000 -1.0000
Cu6_3 Cu -0.5000 -0.5000 0.0000
O1A O -0.475(3) 0.695(2) -0.2342(9)
O2A O -0.482(5) 1.057(2) -0.4148(14)
O3A O -0.009(3) 0.947(2) -0.2743(10)
O4A O -0.400(2) 0.722(2) -0.4253(13)
O5A O -0.614(3) 0.625(3) -0.4665(12)
O6A O 0.024(4) 1.3245(18) -0.4469(14)
O6A_2 O -0.976(4) -0.6755(18) -0.4469(14)
O7A O 0.092(3) 1.222(2) -0.5337(11)
O7A_2 O -0.908(3) 0.222(2) -0.5337(11)
O7_2 O -0.092(3) 0.778(2) -0.4663(11)
O8A O 0.170(2) 0.486(2) -0.1642(8)
O9A O 0.047(3) 0.5996(17) -0.0927(10)
O9A_2 O -0.953(3) 0.5996(17) -1.0927(10)
O10_2 O -0.969(2) -0.5349(16) -0.5962(10)
O10A O -1.031(2) -0.4651(16) -0.4038(10)
O10A_2 O -0.031(2) 0.5349(16) -0.4038(10)
O11A O -0.974(3) 0.306(3) -0.2663(11)
O12A O -0.977(4) -0.0506(19) -0.0868(12)
O13A O -0.516(3) 0.0484(15) -0.2248(8)
O14A O -1.139(3) 0.379(2) -0.0371(12)
O14A_2 O -1.139(3) 0.379(2) -1.0371(12)
O14_2 O -0.861(3) 0.621(2) -0.9629(12)
O15A O -0.913(3) 0.2647(18) -0.0713(14)
O15_2 O -1.087(3) 0.7353(18) -0.9287(14)
O15A_2 O 0.087(3) 0.2647(18) -0.0713(14)
O16A O -0.459(4) -0.330(2) -0.0547(12)
O16A_2 O -0.459(4) 1.670(2) -1.0547(12)
O17A O -0.409(2) -0.2228(19) 0.0351(12)
O17A_2 O -1.409(2) 0.7772(19) -0.9649(12)
O17_2 O 0.409(2) 0.2228(19) -0.0351(12)
O18A O -0.327(3) 0.512(2) -0.3370(9)
O19A O -0.463(3) 0.3993(18) -0.4085(12)
O20_2 O -0.485(3) 1.537(2) -0.9049(15)
O20A O -0.515(3) 1.463(2) -1.0951(15)
O20A_2 O 0.485(3) 0.463(2) -0.0951(15)
N1A N -0.235(3) 0.821(2) -0.2549(9)
N2A N -0.476(3) 0.8645(19) -0.3257(12)
N3A N -0.262(4) 1.0009(19) -0.3472(13)
N4A N -0.755(3) 0.1819(16) -0.2439(10)
N5A N -0.995(5) 0.132(3) -0.1749(11)
N6A N -0.757(4) -0.003(2) -0.1552(11)
C1A C -0.413(4) 0.781(2) -0.2733(12)
C2A C -0.156(5) 0.922(3) -0.2897(15)
C3A C -0.427(4) 0.986(4) -0.3666(19)
C4A C -0.658(3) 0.836(4) -0.3516(17)
H1A H -0.7039 0.7659 -0.3158
H2A H -0.7269 0.9114 -0.3516
C5A C -0.678(3) 0.804(4) -0.4142(16)
H3A H -0.7910 0.7769 -0.4151
H4A H -0.6673 0.8833 -0.4502
C6A C -0.580(4) 0.714(3) -0.4338(12)
C7A C -0.187(3) 1.123(3) -0.3849(13)
H5A H -0.1451 1.1686 -0.3517
H6A H -0.2680 1.1773 -0.4136
C8A C -0.043(5) 1.087(3) -0.4321(17)
H7A H -0.0831 1.0376 -0.4637
H8A H 0.0419 1.0370 -0.4034
C9A C 0.034(3) 1.227(4) -0.4777(18)
C10A C -0.158(4) 0.746(2) -0.1936(11)
H9A H -0.2401 0.6970 -0.1625
H10A H -0.1050 0.8024 -0.1687
C11A C -0.033(4) 0.656(3) -0.2137(12)
H11A H 0.0395 0.7051 -0.2499
H12A H -0.0889 0.5943 -0.2339
C12A C 0.077(3) 0.580(2) -0.1514(16)
C13A C -0.918(3) 0.216(3) -0.2314(14)
C14A C -0.917(3) 0.025(4) -0.1368(14)
C15A C -0.678(4) 0.086(3) -0.2145(15)
C16A C -1.158(4) 0.163(4) -0.151(2)
H13A H -1.2236 0.0871 -0.1488
H14A H -1.2029 0.2299 -0.1886
C17A C -1.189(4) 0.201(3) -0.0915(18)
H15A H -1.3028 0.2320 -0.0941
H16A H -1.1869 0.1232 -0.0545
C18A C -1.088(3) 0.307(4) -0.0617(16)
C19A C -0.673(4) -0.130(4) -0.1162(14)
H17A H -0.6186 -0.1738 -0.1492
H18A H -0.7533 -0.1875 -0.0885
C20A C -0.549(3) -0.089(2) -0.0696(12)
H19A H -0.4655 -0.0354 -0.0974
H20A H -0.6027 -0.0420 -0.0381
C21A C -0.461(4) -0.232(4) -0.0227(17)
C22A C -0.642(3) 0.250(2) -0.3039(12)
H21A H -0.5708 0.1866 -0.3187
H22A H -0.7091 0.2910 -0.3434
C23A C -0.533(4) 0.354(3) -0.2847(12)
H23A H -0.6042 0.4157 -0.2681
H24A H -0.4628 0.3127 -0.2466
C24A C -0.423(4) 0.428(4) -0.3474(18)
loop_
_geom_bond_atom_site_label_1
_geom_bond_atom_site_label_2
_geom_bond_site_symmetry_1
_geom_bond_site_symmetry_2
Cu1 O4 1_555 1_555
Cu2 O5 1_555 1_555
Cu3 O6 1_555 1_555
Cu4 O8 1_555 1_555
Cu5 O9 1_555 1_555
Cu6 O16 1_555 1_555
O1 C1 1_555 1_555
O2 C3 1_555 1_555
O3 C2 1_555 1_555
O4 C6 1_555 1_555
O5 C6 1_555 1_555
O6 C9 1_555 1_555
O7 C9 1_555 1_555
O8 C12 1_555 1_555
O9 C12 1_555 1_555
O10 Cu1 1_555 1_555
O11 C13 1_555 1_555
O12 C14 1_555 1_555
O13 C15 1_555 1_555
O14 C18 1_555 1_555
O15 C18 1_555 1_555
O16 C21 1_555 1_555
O17 C21 1_555 1_555
O18 Cu1 1_555 1_555
O19 Cu2 1_555 1_555
O20 Cu4 1_555 1_555
N1 C1 1_555 1_555
N2 C1 1_555 1_555
N3 C2 1_555 1_555
N4 C13 1_555 1_555
N5 C13 1_555 1_555
N6 C14 1_555 1_555
C2 N1 1_555 1_555
C3 N2 1_555 1_555
C4 N2 1_555 1_555
H1 C4 1_555 1_555
H2 C4 1_555 1_555
C5 C4 1_555 1_555
H3 C5 1_555 1_555
H4 C5 1_555 1_555
C6 C5 1_555 1_555
C7 N3 1_555 1_555
H5 C7 1_555 1_555
H6 C7 1_555 1_555
C8 C7 1_555 1_555
H7 C8 1_555 1_555
H8 C8 1_555 1_555
C9 C8 1_555 1_555
C10 N1 1_555 1_555
H9 C10 1_555 1_555
H10 C10 1_555 1_555
C11 C10 1_555 1_555
H11 C11 1_555 1_555
H12 C11 1_555 1_555
C12 C11 1_555 1_555
C14 N5 1_555 1_555
C15 N4 1_555 1_555
C16 N5 1_555 1_555
H13 C16 1_555 1_555
H14 C16 1_555 1_555
C17 C16 1_555 1_555
H15 C17 1_555 1_555
H16 C17 1_555 1_555
C18 C17 1_555 1_555
C19 N6 1_555 1_555
H17 C19 1_555 1_555
H18 C19 1_555 1_555
C20 C19 1_555 1_555
H19 C20 1_555 1_555
H20 C20 1_555 1_555
C21 C20 1_555 1_555
C22 N4 1_555 1_555
H21 C22 1_555 1_555
H22 C22 1_555 1_555
C23 C22 1_555 1_555
H23 C23 1_555 1_555
H24 C23 1_555 1_555
C24 O18 1_555 1_555
Cu1A O4A 1_555 1_555
Cu1A_2 O7 1_555 1_555
Cu1_2 O7A 1_555 1_555
Cu1_3 O10_2 1_555 1_555
Cu3_2 O10 1_555 1_555
Cu3_3 O6A 1_555 1_555
Cu4A O8A 1_555 1_555
Cu4_2 O15 1_555 1_555
Cu4A_2 O17 1_555 1_555
Cu4A_3 O15A 1_555 1_555
Cu4_3 O17A 1_555 1_555
Cu4_4 O20_2 1_555 1_555
Cu5_2 O14 1_555 1_555
Cu5_3 O9A 1_555 1_555
Cu5_4 O14A 1_555 1_555
Cu6_2 O20 1_555 1_555
Cu6_3 O16A 1_555 1_555
O1A C1A 1_555 1_555
O2A C3A 1_555 1_555
O3A C2A 1_555 1_555
O4A C6A 1_555 1_555
O5A Cu2 1_555 1_555
O6A C9A 1_555 1_555
O6A_2 Cu3 1_555 1_555
O7A C9A 1_555 1_555
O7A_2 Cu1 1_555 1_555
O7_2 Cu1A 1_555 1_555
O8A C12A 1_555 1_555
O9A C12A 1_555 1_555
O9A_2 Cu5 1_555 1_555
O10_2 Cu3 1_555 1_555
O10A Cu3 1_555 1_555
O10A_2 Cu1A 1_555 1_555
O11A C13A 1_555 1_555
O12A C14A 1_555 1_555
O13A C15A 1_555 1_555
O14A C18A 1_555 1_555
O14A_2 Cu5 1_555 1_555
O14_2 Cu5 1_555 1_555
O15A C18A 1_555 1_555
O15_2 Cu4 1_555 1_555
O15A_2 Cu4A 1_555 1_555
O16A C21A 1_555 1_555
O16A_2 Cu6 1_555 1_555
O17A C21A 1_555 1_555
O17A_2 Cu4 1_555 1_555
O17_2 Cu4A 1_555 1_555
O18A Cu1A 1_555 1_555
O19A Cu2 1_555 1_555
O20_2 Cu6 1_555 1_555
O20A Cu6 1_555 1_555
O20A_2 Cu4A 1_555 1_555
N1A C1A 1_555 1_555
N2A C1A 1_555 1_555
N3A C2A 1_555 1_555
N4A C13A 1_555 1_555
N5A C13A 1_555 1_555
N6A C14A 1_555 1_555
C2A N1A 1_555 1_555
C3A N2A 1_555 1_555
C4A N2A 1_555 1_555
H1A C4A 1_555 1_555
H2A C4A 1_555 1_555
C5A C4A 1_555 1_555
H3A C5A 1_555 1_555
H4A C5A 1_555 1_555
C6A O5A 1_555 1_555
C7A N3A 1_555 1_555
H5A C7A 1_555 1_555
H6A C7A 1_555 1_555
C8A C7A 1_555 1_555
H7A C8A 1_555 1_555
H8A C8A 1_555 1_555
C9A C8A 1_555 1_555
C10A N1A 1_555 1_555
H9A C10A 1_555 1_555
H10A C10A 1_555 1_555
C11A C10A 1_555 1_555
H11A C11A 1_555 1_555
H12A C11A 1_555 1_555
C12A C11A 1_555 1_555
C14A N5A 1_555 1_555
C15A N4A 1_555 1_555
C16A N5A 1_555 1_555
H13A C16A 1_555 1_555
H14A C16A 1_555 1_555
C17A C16A 1_555 1_555
H15A C17A 1_555 1_555
H16A C17A 1_555 1_555
C18A C17A 1_555 1_555
C19A N6A 1_555 1_555
H17A C19A 1_555 1_555
H18A C19A 1_555 1_555
C20A C19A 1_555 1_555
H19A C20A 1_555 1_555
H20A C20A 1_555 1_555
C21A C20A 1_555 1_555
C22A N4A 1_555 1_555
H21A C22A 1_555 1_555
H22A C22A 1_555 1_555
C23A C22A 1_555 1_555
H23A C23A 1_555 1_555
H24A C23A 1_555 1_555
C24A O18A 1_555 1_555
O19 C24 1_555 1_555
N3 C3 1_555 1_555
N6 C15 1_555 1_555
C23 C24 1_555 1_555
Cu1A_2 O10A 1_555 1_555
Cu4A_2 O20A 1_555 1_555
O19A C24A 1_555 1_555
N3A C3A 1_555 1_555
N6A C15A 1_555 1_555
C5A C6A 1_555 1_555
C23A C24A 1_555 1_555

#END
