
#######################################################################
#
#                 Cambridge Crystallographic Data Centre
#                                CCDC 
#
#######################################################################
#
# If this CIF has been generated from an entry in the Cambridge 
# Structural Database, then it will include bibliographic, chemical, 
# crystal, experimental, refinement or atomic coordinate data resulting 
# from the CCDC's data processing and validation procedures.
#
#######################################################################

data_XOLSIA
_symmetry_cell_setting           monoclinic
_symmetry_space_group_name_H-M   'C 2/c'
_symmetry_Int_Tables_number      15
_space_group_name_Hall           '-C 2yn'
loop_
_symmetry_equiv_pos_site_id
_symmetry_equiv_pos_as_xyz
1 x,y,z
2 1/2+x,1/2+y,z
3 x,-y,1/2+z
4 1/2+x,1/2-y,1/2+z
5 -x,-y,-z
6 1/2-x,1/2-y,-z
7 -x,y,1/2-z
8 1/2-x,1/2+y,1/2-z
_cell_length_a                   23.546(5)
_cell_length_b                   11.957(2)
_cell_length_c                   14.693(3)
_cell_angle_alpha                90
_cell_angle_beta                 116.01(3)
_cell_angle_gamma                90
_cell_volume                     3717.69
loop_
_atom_site_label
_atom_site_type_symbol
_atom_site_fract_x
_atom_site_fract_y
_atom_site_fract_z
Y1 Y 0.0000 0.32290(4) 0.2500
Fe1 Fe 0.2500 0.2500 0.5000
O1 O 0.01111(10) 0.17498(19) 0.15779(16)
N1 N 0.27080(13) 0.2655(3) 0.3069(2)
N2 N 0.23164(14) -0.0057(3) 0.4838(2)
N3 N 0.10763(11) 0.2720(2) 0.36108(18)
N4 N -0.05199(11) 0.4976(2) 0.14884(17)
N5 N 0.05647(10) 0.4105(2) 0.15837(17)
C1 C 0.26284(14) 0.2589(3) 0.3786(2)
C2 C 0.23998(13) 0.0906(3) 0.4891(2)
C3 C 0.16081(14) 0.2634(3) 0.4148(2)
C4 C -0.10614(13) 0.5416(3) 0.1410(2)
H1 H -0.1344 0.4947 0.1511
C5 C -0.12275(14) 0.6530(3) 0.1186(2)
H2 H -0.1608 0.6794 0.1153
C6 C -0.08299(15) 0.7239(3) 0.1015(2)
H3 H -0.0925 0.7995 0.0895
C7 C -0.02715(14) 0.6799(3) 0.1024(2)
C8 C 0.01534(15) 0.7466(3) 0.0792(2)
H4 H 0.0071 0.8223 0.0653
C9 C 0.06681(15) 0.7010(3) 0.0772(2)
H5 H 0.0931 0.7452 0.0598
C10 C 0.08202(13) 0.5861(3) 0.1012(2)
C11 C 0.13587(14) 0.5340(3) 0.1006(2)
H6 H 0.1629 0.5745 0.0822
C12 C 0.14782(14) 0.4253(3) 0.1269(2)
H7 H 0.1826 0.3902 0.1252
C13 C 0.10787(13) 0.3663(3) 0.1566(2)
H8 H 0.1176 0.2921 0.1763
C14 C -0.01378(13) 0.5672(3) 0.1262(2)
C15 C 0.04281(13) 0.5193(3) 0.1285(2)
H9 H -0.0240(10) 0.1285(27) 0.1194(30)
H10 H 0.0492(8) 0.1414(27) 0.1646(29)
O1F O -0.01111(10) 0.17498(19) 0.34221(16)
H9F H 0.0240(10) 0.1285(27) 0.3806(30)
H10F H -0.0492(8) 0.1414(27) 0.3354(29)
N3F N -0.10763(11) 0.2720(2) 0.13892(18)
C3F C -0.16081(14) 0.2634(3) 0.0852(2)
N4F N 0.05199(11) 0.4976(2) 0.35116(17)
N5F N -0.05647(10) 0.4105(2) 0.34163(17)
C4F C 0.10614(13) 0.5416(3) 0.3590(2)
H1F H 0.1344 0.4947 0.3489
C5F C 0.12275(14) 0.6530(3) 0.3814(2)
H2F H 0.1608 0.6794 0.3847
C6F C 0.08299(15) 0.7239(3) 0.3985(2)
H3F H 0.0925 0.7995 0.4105
C7F C 0.02715(14) 0.6799(3) 0.3976(2)
C8F C -0.01534(15) 0.7466(3) 0.4208(2)
H4F H -0.0071 0.8223 0.4347
C9F C -0.06681(15) 0.7010(3) 0.4228(2)
H5F H -0.0931 0.7452 0.4402
C10F C -0.08202(13) 0.5861(3) 0.3988(2)
C11F C -0.13587(14) 0.5340(3) 0.3994(2)
H6F H -0.1629 0.5745 0.4178
C12F C -0.14782(14) 0.4253(3) 0.3731(2)
H7F H -0.1826 0.3902 0.3748
C13F C -0.10787(13) 0.3663(3) 0.3434(2)
H8F H -0.1176 0.2921 0.3237
C14F C 0.01378(13) 0.5672(3) 0.3738(2)
C15F C -0.04281(13) 0.5193(3) 0.3715(2)
N1E N 0.22920(13) 0.2345(3) 0.6931(2)
C1E C 0.23716(14) 0.2411(3) 0.6214(2)
N2E N 0.26836(14) 0.5057(3) 0.5162(2)
C2E C 0.26002(13) 0.4094(3) 0.5109(2)
C3E C 0.33919(14) 0.2366(3) 0.5852(2)
Fe1C Fe -0.2500 0.2500 0.0000
O2 O 0.20075(13) 0.1609(3) 0.1135(2)
H11 H 0.2353(13) 0.1797(39) 0.1762(19)
H12 H 0.2136(19) 0.1068(33) 0.0788(29)
O3 O 0.10636(12) 0.0586(3) 0.1441(2)
H13 H 0.1415(14) 0.0947(41) 0.1412(38)
H14 H 0.1211(22) 0.0066(44) 0.1988(35)
O4 O 0.16016(13) -0.1064(3) 0.2826(2)
H15 H 0.1850(17) -0.1456(33) 0.2565(31)
H16 H 0.1870(18) -0.0673(62) 0.3425(38)
O5 O -0.08204(12) 0.0293(3) 0.0477(2)
H17 H -0.0945(23) 0.0066(42) -0.0203(13)
H18 H -0.1180(16) 0.039(11) 0.0602(47)
loop_
_geom_bond_atom_site_label_1
_geom_bond_atom_site_label_2
_geom_bond_site_symmetry_1
_geom_bond_site_symmetry_2
Y1 O1 1_555 1_555
Fe1 C1 1_555 1_555
O1 H9 1_555 1_555
O2 H11 1_555 1_555
O3 H13 1_555 1_555
O4 H15 1_555 1_555
O5 H17 1_555 1_555
N1 C1 1_555 1_555
N2 C2 1_555 1_555
N3 Y1 1_555 1_555
N4 Y1 1_555 1_555
N5 Y1 1_555 1_555
C2 Fe1 1_555 1_555
C3 Fe1 1_555 1_555
C4 N4 1_555 1_555
H1 C4 1_555 1_555
C5 C4 1_555 1_555
H2 C5 1_555 1_555
C6 C5 1_555 1_555
H3 C6 1_555 1_555
C7 C6 1_555 1_555
C8 C7 1_555 1_555
H4 C8 1_555 1_555
C9 C8 1_555 1_555
H5 C9 1_555 1_555
C10 C9 1_555 1_555
C11 C10 1_555 1_555
H6 C11 1_555 1_555
C12 C11 1_555 1_555
H7 C12 1_555 1_555
C13 N5 1_555 1_555
H8 C13 1_555 1_555
C14 N4 1_555 1_555
C15 N5 1_555 1_555
H10 O1 1_555 1_555
H12 O2 1_555 1_555
H14 O3 1_555 1_555
H16 O4 1_555 1_555
H18 O5 1_555 1_555
O1F Y1 1_555 1_555
H9F O1F 1_555 1_555
H10F O1F 1_555 1_555
N3F Y1 1_555 1_555
C3F N3F 1_555 1_555
N4F Y1 1_555 1_555
N5F Y1 1_555 1_555
C4F N4F 1_555 1_555
H1F C4F 1_555 1_555
C5F C4F 1_555 1_555
H2F C5F 1_555 1_555
C6F C5F 1_555 1_555
H3F C6F 1_555 1_555
C7F C6F 1_555 1_555
C8F C7F 1_555 1_555
H4F C8F 1_555 1_555
C9F C8F 1_555 1_555
H5F C9F 1_555 1_555
C10F C9F 1_555 1_555
C11F C10F 1_555 1_555
H6F C11F 1_555 1_555
C12F C11F 1_555 1_555
H7F C12F 1_555 1_555
C13F N5F 1_555 1_555
H8F C13F 1_555 1_555
C14F N4F 1_555 1_555
C15F N5F 1_555 1_555
N1E C1E 1_555 1_555
C1E Fe1 1_555 1_555
N2E C2E 1_555 1_555
C2E Fe1 1_555 1_555
C3E Fe1 1_555 1_555
Fe1C C3F 1_555 1_555
N3 C3 1_555 1_555
C7 C14 1_555 1_555
C10 C15 1_555 1_555
C12 C13 1_555 1_555
C14 C15 1_555 1_555
C7F C14F 1_555 1_555
C10F C15F 1_555 1_555
C12F C13F 1_555 1_555
C14F C15F 1_555 1_555

#END
