
#######################################################################
#
#                 Cambridge Crystallographic Data Centre
#                                CCDC 
#
#######################################################################
#
# If this CIF has been generated from an entry in the Cambridge 
# Structural Database, then it will include bibliographic, chemical, 
# crystal, experimental, refinement or atomic coordinate data resulting 
# from the CCDC's data processing and validation procedures.
#
#######################################################################

data_XOLSEY
_symmetry_cell_setting           monoclinic
_symmetry_space_group_name_H-M   'P 21/n'
_symmetry_Int_Tables_number      14
_space_group_name_Hall           '-P 2yn'
loop_
_symmetry_equiv_pos_site_id
_symmetry_equiv_pos_as_xyz
1 x,y,z
2 1/2-x,1/2+y,1/2-z
3 -x,-y,-z
4 1/2+x,1/2-y,1/2+z
_cell_length_a                   7.5967(4)
_cell_length_b                   16.7260(10)
_cell_length_c                   17.6795(7)
_cell_angle_alpha                90
_cell_angle_beta                 90.622(5)
_cell_angle_gamma                90
_cell_volume                     2246.27
loop_
_atom_site_label
_atom_site_type_symbol
_atom_site_fract_x
_atom_site_fract_y
_atom_site_fract_z
Pb1 Pb 0.56356(9) 0.40564(4) 0.20149(3)
O1 O 0.6603(19) 0.4818(8) 0.3085(6)
O2 O 0.578(2) 0.3627(8) 0.3502(7)
O3 O 0.972(2) 0.5805(10) 0.6604(9)
H1 H 1.0034 0.5939 0.7030
O4 O 0.767(2) 0.5101(10) 0.7229(8)
O5 O 0.2198(16) 0.2393(8) 0.6720(8)
O6 O 0.3680(17) 0.1330(7) 0.7120(7)
N1 N 0.687(2) 0.5336(9) 0.1421(8)
N2 N 0.660(2) 0.3983(9) 0.0537(8)
C1 C 0.629(3) 0.4284(13) 0.3650(12)
C2 C 0.692(2) 0.4575(10) 0.4407(9)
C3 C 0.666(2) 0.4044(10) 0.5011(9)
H2 H 0.6129 0.3551 0.4918
C4 C 0.717(2) 0.4238(10) 0.5745(9)
C5 C 0.786(2) 0.4997(11) 0.5864(9)
C6 C 0.808(3) 0.5529(11) 0.5267(10)
H3 H 0.8563 0.6032 0.5353
C7 C 0.756(2) 0.5301(11) 0.4538(10)
H4 H 0.7661 0.5661 0.4141
C8 C 0.838(3) 0.5269(12) 0.6653(10)
C9 C 0.697(2) 0.3592(11) 0.6344(9)
C10 C 0.544(2) 0.3170(11) 0.6392(9)
H5 H 0.4489 0.3308 0.6083
C11 C 0.528(2) 0.2519(10) 0.6907(8)
C12 C 0.671(2) 0.2329(11) 0.7360(9)
H6 H 0.6645 0.1908 0.7702
C13 C 0.827(3) 0.2776(13) 0.7299(11)
H7 H 0.9236 0.2646 0.7601
C14 C 0.838(3) 0.3384(12) 0.6815(10)
H8 H 0.9420 0.3675 0.6791
C15 C 0.361(3) 0.2062(12) 0.6916(9)
C16 C 0.698(3) 0.6016(12) 0.1838(11)
H9 H 0.6655 0.5999 0.2343
C17 C 0.754(3) 0.6714(12) 0.1549(12)
H10 H 0.7588 0.7162 0.1860
C18 C 0.805(3) 0.6786(13) 0.0810(12)
H11 H 0.8449 0.7271 0.0619
C19 C 0.795(3) 0.6086(12) 0.0345(12)
C20 C 0.730(2) 0.5379(12) 0.0670(9)
C21 C 0.844(3) 0.6111(16) -0.0434(12)
H12 H 0.8844 0.6583 -0.0651
C22 C 0.831(3) 0.5415(14) -0.0858(12)
H13 H 0.8690 0.5422 -0.1357
C23 C 0.762(3) 0.4692(13) -0.0558(11)
C24 C 0.718(2) 0.4639(13) 0.0208(9)
C25 C 0.746(3) 0.3999(14) -0.0989(12)
H14 H 0.7742 0.3995 -0.1499
C26 C 0.686(4) 0.3315(16) -0.0635(13)
H15 H 0.6713 0.2842 -0.0905
C27 C 0.648(4) 0.3347(14) 0.0116(12)
H16 H 0.6116 0.2877 0.0346
Pb1C Pb 0.06356(9) 0.09436(4) 0.70149(3)
O5C O 0.7198(16) 0.2607(8) 0.1720(8)
O6C O 0.8680(17) 0.3670(7) 0.2120(7)
loop_
_geom_bond_atom_site_label_1
_geom_bond_atom_site_label_2
_geom_bond_site_symmetry_1
_geom_bond_site_symmetry_2
Pb1 O1 1_555 1_555
O1 C1 1_555 1_555
O2 Pb1 1_555 1_555
O3 H1 1_555 1_555
O4 C8 1_555 1_555
O5 C15 1_555 1_555
O6 C15 1_555 1_555
N1 Pb1 1_555 1_555
N2 Pb1 1_555 1_555
C1 O2 1_555 1_555
C2 C1 1_555 1_555
C3 C2 1_555 1_555
H2 C3 1_555 1_555
C4 C3 1_555 1_555
C5 C4 1_555 1_555
C6 C5 1_555 1_555
H3 C6 1_555 1_555
C7 C2 1_555 1_555
H4 C7 1_555 1_555
C8 O3 1_555 1_555
C9 C4 1_555 1_555
C10 C9 1_555 1_555
H5 C10 1_555 1_555
C11 C10 1_555 1_555
C12 C11 1_555 1_555
H6 C12 1_555 1_555
C13 C12 1_555 1_555
H7 C13 1_555 1_555
C14 C9 1_555 1_555
H8 C14 1_555 1_555
C15 C11 1_555 1_555
C16 N1 1_555 1_555
H9 C16 1_555 1_555
C17 C16 1_555 1_555
H10 C17 1_555 1_555
C18 C17 1_555 1_555
H11 C18 1_555 1_555
C19 C18 1_555 1_555
C20 N1 1_555 1_555
C21 C19 1_555 1_555
H12 C21 1_555 1_555
C22 C21 1_555 1_555
H13 C22 1_555 1_555
C23 C22 1_555 1_555
C24 N2 1_555 1_555
C25 C23 1_555 1_555
H14 C25 1_555 1_555
C26 C25 1_555 1_555
H15 C26 1_555 1_555
C27 N2 1_555 1_555
H16 C27 1_555 1_555
Pb1C O5 1_555 1_555
O5C Pb1 1_555 1_555
O6C Pb1 1_555 1_555
O6 Pb1C 1_555 1_555
C5 C8 1_555 1_555
C6 C7 1_555 1_555
C13 C14 1_555 1_555
C19 C20 1_555 1_555
C20 C24 1_555 1_555
C23 C24 1_555 1_555
C26 C27 1_555 1_555

#END
