
#######################################################################
#
#                 Cambridge Crystallographic Data Centre
#                                CCDC 
#
#######################################################################
#
# If this CIF has been generated from an entry in the Cambridge 
# Structural Database, then it will include bibliographic, chemical, 
# crystal, experimental, refinement or atomic coordinate data resulting 
# from the CCDC's data processing and validation procedures.
#
#######################################################################

data_XOMCAF
_symmetry_cell_setting           triclinic
_symmetry_space_group_name_H-M   'P -1'
_symmetry_Int_Tables_number      2
_space_group_name_Hall           '-P 1'
loop_
_symmetry_equiv_pos_site_id
_symmetry_equiv_pos_as_xyz
1 x,y,z
2 -x,-y,-z
_cell_length_a                   10.0055(5)
_cell_length_b                   10.2265(5)
_cell_length_c                   14.5845(8)
_cell_angle_alpha                90.836(3)
_cell_angle_beta                 93.894(3)
_cell_angle_gamma                90.720(3)
_cell_volume                     1488.56
loop_
_atom_site_label
_atom_site_type_symbol
_atom_site_fract_x
_atom_site_fract_y
_atom_site_fract_z
C1 C -0.7002(5) 0.3586(5) 1.1314(3)
H1 H -0.7701 0.3876 1.1650
C2 C -0.4819(4) 0.2976(4) 1.1271(3)
H2 H -0.3987 0.2841 1.1576
C3 C 0.6761(4) 0.4226(4) 0.6457(3)
C4 C 0.6864(4) -0.0718(4) 0.6707(3)
C5 C 0.7466(4) 0.2936(4) 0.6410(3)
C6 C 0.8783(4) 0.2917(4) 0.6148(3)
H3 H 0.9226 0.3699 0.6042
C7 C 0.8778(4) 0.0581(4) 0.6222(3)
H4 H 0.9208 -0.0209 0.6143
C8 C 0.7490(4) 0.0582(4) 0.6515(3)
C9 C 1.0843(4) 0.1712(4) 0.5776(3)
C10 C 0.0233(4) 0.1599(4) 0.8495(3)
C11 C 0.6821(4) 0.1762(4) 0.6593(3)
H5 H 0.5944 0.1765 0.6766
C12 C 0.9432(4) 0.1741(4) 0.6045(3)
C13 C -0.1720(4) 0.1674(4) 0.9431(3)
C14 C 0.0085(4) 0.0211(4) 0.8474(3)
C15 C -0.0691(4) 0.2338(4) 0.8980(3)
C16 C -0.2599(4) 0.2410(4) 1.0042(3)
C17 C 0.1363(4) -0.2415(4) 0.6929(3)
C18 C 0.1106(4) -0.0604(4) 0.8032(3)
C19 C 0.2740(4) -0.2314(4) 0.6881(3)
H6 H 0.3199 -0.1618 0.7182
C20 C 0.2774(4) -0.4165(4) 0.5957(3)
H7 H 0.3253 -0.4777 0.5639
C21 C -0.1851(4) 0.0339(4) 0.9361(3)
H8 H -0.2542 -0.0085 0.9638
C22 C -0.0590(5) 0.3731(4) 0.8988(3)
H9 H -0.1183 0.4224 0.9311
C23 C 0.1401(4) -0.4296(4) 0.5939(3)
H10 H 0.0959 -0.4958 0.5590
C24 C -0.4963(4) 0.2746(4) 1.0326(3)
C25 C -0.0939(4) -0.0394(4) 0.8869(3)
H11 H -0.1043 -0.1298 0.8816
C26 C -0.6201(5) 0.2955(5) 0.9883(3)
H12 H -0.6344 0.2806 0.9253
C27 C 0.0682(4) -0.3425(4) 0.6451(3)
H13 H -0.0241 -0.3520 0.6471
C28 C 0.1223(4) 0.2295(4) 0.8052(3)
H14 H 0.1855 0.1831 0.7746
C29 C -0.7228(5) 0.3392(6) 1.0396(4)
H15 H -0.8069 0.3551 1.0110
C30 C 0.1281(5) 0.3629(5) 0.8060(3)
H16 H 0.1937 0.4059 0.7752
C31 C 0.0374(5) 0.4345(5) 0.8524(4)
H17 H 0.0419 0.5254 0.8520
Cd1 Cd 0.57630(3) -0.32680(3) 0.66382(2)
H18 H -0.0220 -0.1718 0.7243
H19 H -0.4267 0.1678 0.9403
H20 H 1.2267 0.0661 0.6018
H21 H 0.5559 -0.3278 0.4581
H22 H 0.6710 -0.2892 0.4865
N1 N 0.3441(3) -0.3197(3) 0.6411(2)
N2 N 0.0621(3) -0.1551(3) 0.7438(2)
N3 N -0.3926(3) 0.2225(4) 0.9830(2)
N4 N -0.5808(3) 0.3376(3) 1.1756(2)
O1 O 0.7584(3) -0.1710(3) 0.6746(2)
O2 O 0.5609(3) -0.0792(3) 0.6799(2)
O3 O 0.5513(3) 0.4258(3) 0.6318(2)
O4 O 0.7465(3) 0.5239(3) 0.6623(2)
O5 O 1.1378(3) 0.0560(3) 0.5898(2)
O6 O 1.1417(3) 0.2658(3) 0.5484(2)
O7 O 0.5931(3) -0.2903(3) 0.50606(19)
O8 O 0.2314(3) -0.0411(3) 0.8214(2)
O9 O -0.2137(3) 0.3112(3) 1.0660(2)
Cd1_2 Cd 0.57630(3) 0.67320(3) 0.66382(2)
Cd1A Cd -0.57630(3) 0.32680(3) 1.33618(2)
N4A N 0.5808(3) -0.3376(3) 0.8244(2)
O3_2 O 0.5513(3) -0.5742(3) 0.6318(2)
O4_2 O 0.7465(3) -0.4761(3) 0.6623(2)
H23 H 0.4067 0.0315 0.8343
H24 H 0.5118 0.0250 0.7929
O10 O 0.4859(3) 0.0665(5) 0.8399(3)
H25 H 0.4315 0.0745 0.5204
H26 H 0.4467 0.0060 0.5910
O11 O 0.3818(3) 0.0315(3) 0.5550(2)
loop_
_geom_bond_atom_site_label_1
_geom_bond_atom_site_label_2
_geom_bond_site_symmetry_1
_geom_bond_site_symmetry_2
C1 H1 1_555 1_555
C2 H2 1_555 1_555
C3 C5 1_555 1_555
C4 C8 1_555 1_555
C5 C6 1_555 1_555
C6 H3 1_555 1_555
C7 H4 1_555 1_555
C8 C7 1_555 1_555
C9 C12 1_555 1_555
C10 C14 1_555 1_555
C11 C5 1_555 1_555
H5 C11 1_555 1_555
C12 C6 1_555 1_555
C13 C15 1_555 1_555
C14 C18 1_555 1_555
C15 C10 1_555 1_555
C16 C13 1_555 1_555
C17 C19 1_555 1_555
C18 N2 1_555 1_555
C19 H6 1_555 1_555
C20 H7 1_555 1_555
C21 C13 1_555 1_555
H8 C21 1_555 1_555
C22 C15 1_555 1_555
H9 C22 1_555 1_555
C23 C20 1_555 1_555
H10 C23 1_555 1_555
C24 C2 1_555 1_555
C25 C14 1_555 1_555
H11 C25 1_555 1_555
C26 C24 1_555 1_555
H12 C26 1_555 1_555
C27 C17 1_555 1_555
H13 C27 1_555 1_555
C28 C10 1_555 1_555
H14 C28 1_555 1_555
C29 C1 1_555 1_555
H15 C29 1_555 1_555
C30 C28 1_555 1_555
H16 C30 1_555 1_555
C31 C22 1_555 1_555
H17 C31 1_555 1_555
Cd1 N1 1_555 1_555
H18 N2 1_555 1_555
H19 N3 1_555 1_555
H20 O5 1_555 1_555
H21 O7 1_555 1_555
H22 O7 1_555 1_555
N1 C19 1_555 1_555
N2 C17 1_555 1_555
N3 C16 1_555 1_555
N4 C1 1_555 1_555
O1 C4 1_555 1_555
O2 C4 1_555 1_555
O3 C3 1_555 1_555
O4 C3 1_555 1_555
O5 C9 1_555 1_555
O6 C9 1_555 1_555
O7 Cd1 1_555 1_555
O8 C18 1_555 1_555
O9 C16 1_555 1_555
H23 O10 1_555 1_555
H24 O10 1_555 1_555
H25 O11 1_555 1_555
H26 O11 1_555 1_555
Cd1_2 O3 1_555 1_555
Cd1A N4 1_555 1_555
N4A Cd1 1_555 1_555
O3_2 Cd1 1_555 1_555
O4_2 Cd1 1_555 1_555
C2 N4 1_555 1_555
C7 C12 1_555 1_555
C8 C11 1_555 1_555
C20 N1 1_555 1_555
C21 C25 1_555 1_555
C23 C27 1_555 1_555
C24 N3 1_555 1_555
C26 C29 1_555 1_555
C30 C31 1_555 1_555
Cd1 O1 1_555 1_555
Cd1 O2 1_555 1_555
O4 Cd1_2 1_555 1_555

#END
