
#######################################################################
#
#                 Cambridge Crystallographic Data Centre
#                                CCDC 
#
#######################################################################
#
# If this CIF has been generated from an entry in the Cambridge 
# Structural Database, then it will include bibliographic, chemical, 
# crystal, experimental, refinement or atomic coordinate data resulting 
# from the CCDC's data processing and validation procedures.
#
#######################################################################

data_XOMCAF01
_symmetry_cell_setting           triclinic
_symmetry_space_group_name_H-M   'P -1'
_symmetry_Int_Tables_number      2
_space_group_name_Hall           '-P 1'
loop_
_symmetry_equiv_pos_site_id
_symmetry_equiv_pos_as_xyz
1 x,y,z
2 -x,-y,-z
_cell_length_a                   10.0186(6)
_cell_length_b                   10.2419(6)
_cell_length_c                   14.6114(8)
_cell_angle_alpha                90.7530(10)
_cell_angle_beta                 93.9340(10)
_cell_angle_gamma                90.7470(10)
_cell_volume                     1495.46
loop_
_atom_site_label
_atom_site_type_symbol
_atom_site_fract_x
_atom_site_fract_y
_atom_site_fract_z
Cd1 Cd -0.076444(14) 0.326839(14) 0.836244(10)
O1 O -0.06075(15) 0.07928(15) 0.82011(12)
N1 N 0.15588(17) 0.31943(17) 0.85845(13)
C1 C 0.2228(2) 0.4169(2) 0.90407(16)
H1 H 0.1751 0.4780 0.9358
O2 O -0.09364(16) 0.29120(16) 0.99465(11)
H2 H -0.0462 0.2946 1.0452
H3 H -0.1752 0.2962 1.0068
O3 O -0.25840(16) 0.17068(14) 0.82490(12)
N2 N 1.0816(2) -0.3377(2) 0.32431(13)
C2 C 0.3600(2) 0.4295(2) 0.90539(17)
H4 H 0.4041 0.4963 0.9396
O4 O -0.63902(17) -0.05608(17) 0.91052(14)
N3 N 0.43788(18) 0.15470(18) 0.75593(13)
H5 H 0.5236 0.1623 0.7628
C3 C 0.4320(2) 0.3426(2) 0.85577(16)
H6 H 0.5244 0.3514 0.8549
O5 O -0.64176(17) -0.26520(16) 0.95192(13)
C4 C 0.3638(2) 0.2419(2) 0.80723(14)
N4 N 0.8923(2) -0.2228(2) 0.51661(14)
H7 H 0.9155 -0.1753 0.5642
C5 C 0.2254(2) 0.2312(2) 0.81258(15)
H8 H 0.1798 0.1609 0.7835
O6 O -0.24672(16) -0.52355(15) 0.83801(12)
O7 O -0.05093(16) -0.42588(16) 0.86825(13)
C6 C 0.3879(2) 0.0598(2) 0.69677(16)
O8 O 0.26837(17) 0.04158(19) 0.67842(14)
C7 C 0.4906(2) -0.0215(2) 0.65352(15)
O9 O 0.7130(2) -0.3111(2) 0.43328(14)
C8 C 0.4763(2) -0.1606(2) 0.65044(15)
C9 C 0.3767(2) -0.2298(2) 0.69580(16)
H9 H 0.3143 -0.1833 0.7269
C10 C 0.3709(3) -0.3622(3) 0.69454(18)
H10 H 0.3054 -0.4053 0.7253
C11 C 0.4630(3) -0.4350(3) 0.64723(19)
H11 H 0.4586 -0.5257 0.6470
C12 C 0.5588(3) -0.3725(2) 0.60167(18)
H12 H 0.6185 -0.4215 0.5699
C13 C 0.5693(2) -0.2343(2) 0.60160(15)
C14 C 0.6719(2) -0.1670(2) 0.55726(16)
C15 C 0.6846(2) -0.0339(2) 0.56446(17)
H13 H 0.7539 0.0086 0.5372
C16 C 0.5935(2) 0.0391(2) 0.61282(17)
H14 H 0.6033 0.1294 0.6172
C17 C 0.7597(2) -0.2415(2) 0.49608(17)
C18 C 0.9809(2) -0.2969(3) 0.37298(16)
H15 H 0.8978 -0.2834 0.3425
C19 C 0.9958(2) -0.2740(3) 0.46702(16)
C20 C 1.1198(3) -0.2953(3) 0.51161(19)
H16 H 1.1334 -0.2810 0.5746
C21 C 1.2231(3) -0.3380(4) 0.4612(2)
H17 H 1.3072 -0.3527 0.4899
C22 C 1.2002(3) -0.3586(3) 0.36809(18)
H18 H 1.2698 -0.3881 0.3347
C23 C -0.1851(2) 0.07201(19) 0.82918(14)
C24 C -0.2485(2) -0.05814(19) 0.84859(14)
C25 C -0.3776(2) -0.0582(2) 0.87728(14)
H19 H -0.4206 0.0208 0.8847
C26 C -0.4436(2) -0.1741(2) 0.89519(14)
C27 C -0.5843(2) -0.1707(2) 0.92243(15)
C28 C -0.3786(2) -0.2919(2) 0.88452(14)
H20 H -0.4233 -0.3701 0.8941
C29 C -0.2470(2) -0.29358(19) 0.85966(14)
C30 C -0.1765(2) -0.4222(2) 0.85462(14)
C31 C -0.1817(2) -0.17612(19) 0.84131(14)
H21 H -0.0939 -0.1767 0.8243
Cd1_2 Cd -0.076444(14) -0.673161(14) 0.836244(10)
Cd1A Cd 1.076444(14) -0.326839(14) 0.163756(10)
N2A N -0.0816(2) 0.3377(2) 0.67569(13)
O6_2 O -0.24672(16) 0.47645(15) 0.83801(12)
O7_2 O -0.05093(16) 0.57412(16) 0.86825(13)
O10 O -0.88309(17) -0.03269(19) 0.94519(14)
H22 H -0.8256 0.0237 0.9662
H23 H -0.9212 -0.0025 0.8963
O11 O 0.0138(2) -0.0673(3) 0.66095(18)
H24 H -0.0212 -0.0253 0.7036
H25 H 0.0930 -0.0379 0.6575
loop_
_geom_bond_atom_site_label_1
_geom_bond_atom_site_label_2
_geom_bond_site_symmetry_1
_geom_bond_site_symmetry_2
Cd1 O1 1_555 1_555
O1 C23 1_555 1_555
N1 Cd1 1_555 1_555
C1 N1 1_555 1_555
H1 C1 1_555 1_555
O2 Cd1 1_555 1_555
H2 O2 1_555 1_555
H3 O2 1_555 1_555
O3 Cd1 1_555 1_555
N2 C18 1_555 1_555
C2 C1 1_555 1_555
H4 C2 1_555 1_555
O4 C27 1_555 1_555
N3 H5 1_555 1_555
C3 C2 1_555 1_555
H6 C3 1_555 1_555
O5 C27 1_555 1_555
C4 N3 1_555 1_555
N4 H7 1_555 1_555
C5 N1 1_555 1_555
H8 C5 1_555 1_555
O6 C30 1_555 1_555
O7 C30 1_555 1_555
C6 N3 1_555 1_555
O8 C6 1_555 1_555
C7 C6 1_555 1_555
O9 C17 1_555 1_555
C8 C7 1_555 1_555
C9 C8 1_555 1_555
H9 C9 1_555 1_555
C10 C9 1_555 1_555
H10 C10 1_555 1_555
C11 C10 1_555 1_555
H11 C11 1_555 1_555
C12 C11 1_555 1_555
H12 C12 1_555 1_555
C13 C8 1_555 1_555
C14 C13 1_555 1_555
C15 C14 1_555 1_555
H13 C15 1_555 1_555
C16 C7 1_555 1_555
H14 C16 1_555 1_555
C17 N4 1_555 1_555
C18 H15 1_555 1_555
C19 N4 1_555 1_555
C20 C19 1_555 1_555
H16 C20 1_555 1_555
C21 C20 1_555 1_555
H17 C21 1_555 1_555
C22 N2 1_555 1_555
H18 C22 1_555 1_555
C23 O3 1_555 1_555
C24 C23 1_555 1_555
C25 C24 1_555 1_555
H19 C25 1_555 1_555
C26 C25 1_555 1_555
C27 C26 1_555 1_555
C28 C26 1_555 1_555
H20 C28 1_555 1_555
C29 C28 1_555 1_555
C30 C29 1_555 1_555
C31 C24 1_555 1_555
H21 C31 1_555 1_555
O10 H22 1_555 1_555
H23 O10 1_555 1_555
O11 H24 1_555 1_555
H25 O11 1_555 1_555
Cd1_2 O6 1_555 1_555
Cd1A N2 1_555 1_555
N2A Cd1 1_555 1_555
O6_2 Cd1 1_555 1_555
O7_2 Cd1 1_555 1_555
C3 C4 1_555 1_555
C4 C5 1_555 1_555
O7 Cd1_2 1_555 1_555
C12 C13 1_555 1_555
C14 C17 1_555 1_555
C15 C16 1_555 1_555
C18 C19 1_555 1_555
C21 C22 1_555 1_555
C29 C31 1_555 1_555

#END
