
#######################################################################
#
#                 Cambridge Crystallographic Data Centre
#                                CCDC 
#
#######################################################################
#
# If this CIF has been generated from an entry in the Cambridge 
# Structural Database, then it will include bibliographic, chemical, 
# crystal, experimental, refinement or atomic coordinate data resulting 
# from the CCDC's data processing and validation procedures.
#
#######################################################################

data_XOMCIL
_symmetry_cell_setting           monoclinic
_symmetry_space_group_name_H-M   'C m'
_symmetry_Int_Tables_number      8
_space_group_name_Hall           'C -2y'
loop_
_symmetry_equiv_pos_site_id
_symmetry_equiv_pos_as_xyz
1 x,y,z
2 x,-y,z
3 1/2+x,1/2+y,z
4 1/2+x,1/2-y,z
_cell_length_a                   7.7734(16)
_cell_length_b                   14.920(3)
_cell_length_c                   4.7308(8)
_cell_angle_alpha                90
_cell_angle_beta                 90.12(9)
_cell_angle_gamma                90
_cell_volume                     548.673
loop_
_atom_site_label
_atom_site_type_symbol
_atom_site_fract_x
_atom_site_fract_y
_atom_site_fract_z
Er1 Er 0.0017(5) 0.7933(8) -0.002(1)
O1 O -0.0529(8) 0.8208(4) -0.500(2)
O2 O -0.171(2) 0.926(2) -0.014(4)
C1 C -0.194(2) 0.7760(6) -0.499(2)
C2 C -0.100(3) 1.0000 0.005(6)
C3 C 0.097(4) 1.0000 0.003(4)
O3 O 0.169(2) 0.924(2) -0.014(4)
O4 O -0.254(2) 0.752(2) -0.268(3)
O5 O -0.254(2) 0.753(2) -0.747(3)
O6 O 0.002(1) 0.6392(4) 0.093(2)
O2A O -0.171(2) 1.074(2) -0.014(4)
O3A O 0.169(2) 1.076(2) -0.014(4)
O1_2 O -0.0529(8) 0.8208(4) 0.500(2)
C1_2 C -0.194(2) 0.7760(6) 0.501(2)
O4_2 O -0.254(2) 0.752(2) 0.732(3)
O5_2 O -0.254(2) 0.753(2) 0.253(3)
Er1_2 Er 0.0017(5) 0.7933(8) 0.998(1)
O6_2 O 0.002(1) 0.6392(4) 1.093(2)
O4C O 0.246(2) 0.748(2) -0.268(3)
O5C O 0.246(2) 0.747(2) 0.253(3)
Er1_3 Er 0.0017(5) 0.7933(8) -1.002(1)
Er1C Er -0.4983(5) 0.7067(8) -0.002(1)
Er1C_2 Er -0.4983(5) 0.7067(8) -1.002(1)
Er1A Er 0.0017(5) 1.2067(8) -0.002(1)
Er1C_3 Er -0.4983(5) 0.7067(8) 0.998(1)
O1_3 O -0.0529(8) 0.8208(4) 1.500(2)
O2_2 O -0.171(2) 0.926(2) 0.986(4)
O3_2 O 0.169(2) 0.924(2) 0.986(4)
O4C_2 O 0.246(2) 0.748(2) 0.732(3)
O5_3 O -0.254(2) 0.753(2) 1.253(3)
O5C_2 O 0.246(2) 0.747(2) 1.253(3)
loop_
_geom_bond_atom_site_label_1
_geom_bond_atom_site_label_2
_geom_bond_site_symmetry_1
_geom_bond_site_symmetry_2
Er1 O1 1_555 1_555
O1 C1 1_555 1_555
O2 Er1 1_555 1_555
C1 O4 1_555 1_555
C2 O2 1_555 1_555
C3 C2 1_555 1_555
O3 Er1 1_555 1_555
O4 Er1 1_555 1_555
O5 C1 1_555 1_555
O6 Er1 1_555 1_555
O2A C2 1_555 1_555
O3A C3 1_555 1_555
O1_2 Er1 1_555 1_555
C1_2 O1_2 1_555 1_555
O4_2 C1_2 1_555 1_555
O5_2 Er1 1_555 1_555
Er1_2 O1_2 1_555 1_555
O6_2 Er1_2 1_555 1_555
O4C Er1 1_555 1_555
O5C Er1 1_555 1_555
Er1_3 O1 1_555 1_555
Er1C O4 1_555 1_555
Er1C_2 O5 1_555 1_555
Er1A O2A 1_555 1_555
Er1C_3 O4_2 1_555 1_555
O1_3 Er1_2 1_555 1_555
O2_2 Er1_2 1_555 1_555
O3_2 Er1_2 1_555 1_555
O4C_2 Er1_2 1_555 1_555
O5_3 Er1_2 1_555 1_555
O5C_2 Er1_2 1_555 1_555
C3 O3 1_555 1_555
O5 Er1_3 1_555 1_555
O3A Er1A 1_555 1_555
C1_2 O5_2 1_555 1_555
O4_2 Er1_2 1_555 1_555
O5_2 Er1C 1_555 1_555
Er1C_3 O5_3 1_555 1_555

#END
