
#######################################################################
#
#                 Cambridge Crystallographic Data Centre
#                                CCDC 
#
#######################################################################
#
# If this CIF has been generated from an entry in the Cambridge 
# Structural Database, then it will include bibliographic, chemical, 
# crystal, experimental, refinement or atomic coordinate data resulting 
# from the CCDC's data processing and validation procedures.
#
#######################################################################

data_XOMDOT
_symmetry_cell_setting           hexagonal
_symmetry_space_group_name_H-M   'P 63'
_symmetry_Int_Tables_number      173
_space_group_name_Hall           'P 6c'
loop_
_symmetry_equiv_pos_site_id
_symmetry_equiv_pos_as_xyz
1 x,y,z
2 x-y,x,1/2+z
3 -y,x-y,z
4 -x,-y,1/2+z
5 -x+y,-x,z
6 y,-x+y,1/2+z
_cell_length_a                   13.9575(14)
_cell_length_b                   13.9575(14)
_cell_length_c                   16.1626(18)
_cell_angle_alpha                90
_cell_angle_beta                 90
_cell_angle_gamma                120
_cell_volume                     2726.82
loop_
_atom_site_label
_atom_site_type_symbol
_atom_site_fract_x
_atom_site_fract_y
_atom_site_fract_z
Co1 Co 0.71761(8) 0.72016(8) 0.23256(7)
Cu1 Cu 1.0000 1.0000 0.23058(14)
Cd1 Cd 0.83420(5) 0.45861(5) 0.04771(5)
Cl1 Cl 1.0000 1.0000 0.3760(3)
Cl2 Cl 0.6667 0.3333 0.1601(2)
Cl3 Cl 0.6667 0.3333 -0.0549(2)
Cl4 Cl 0.94833(19) 0.54373(19) 0.17678(15)
Cl5 Cl 0.9804(2) 0.4874(2) -0.05199(16)
S1 S 0.89086(15) 0.82065(16) 0.18086(13)
N1 N 0.6657(5) 0.6876(6) 0.1153(4)
H1 H 0.6219 0.6140 0.1099
H2 H 0.6238 0.7187 0.1051
N2 N 0.7760(6) 0.7458(6) 0.3470(5)
H3 H 0.8300 0.8166 0.3530
H4 H 0.7216 0.7322 0.3832
N3 N 0.7275(6) 0.5859(6) 0.2406(5)
H5 H 0.6644 0.5280 0.2218
H6 H 0.7834 0.5928 0.2086
N4 N 0.7008(6) 0.8524(6) 0.2373(5)
H7 H 0.7629 0.9103 0.2574
H8 H 0.6889 0.8699 0.1861
N5 N 0.5604(6) 0.6403(6) 0.2716(5)
H9 H 0.5193 0.5825 0.2382
H10 H 0.5569 0.6145 0.3232
O1 O 0.7344(5) 0.5474(4) 0.0654(4)
O2 O 0.8804(6) 0.6756(6) -0.0036(4)
C1 C 0.8495(7) 0.8391(6) 0.0781(5)
H11 H 0.8256 0.8934 0.0795
H12 H 0.9112 0.8646 0.0400
C2 C 0.7544(6) 0.7267(6) 0.0504(6)
H13 H 0.7244 0.7370 -0.0016
C3 C 0.7931(6) 0.6439(7) 0.0355(5)
C4 C 0.8207(9) 0.6698(10) 0.3632(7)
H14 H 0.8941 0.7001 0.3396
H15 H 0.8256 0.6608 0.4223
C5 C 0.7462(9) 0.5648(8) 0.3257(6)
H16 H 0.6767 0.5285 0.3557
H17 H 0.7782 0.5171 0.3267
C6 C 0.6053(10) 0.8279(9) 0.2918(6)
H18 H 0.6259 0.8308 0.3495
H19 H 0.5817 0.8818 0.2830
C7 C 0.5170(8) 0.7182(9) 0.2709(7)
H20 H 0.4882 0.7189 0.2164
H21 H 0.4573 0.6943 0.3106
Co1B Co 1.27984(8) 0.99745(11) 0.23256(7)
Co1D Co 1.00255(11) 1.28239(8) 0.23256(7)
Cd1B Cd 1.54139(5) 1.37559(7) 0.04771(5)
Cd1D Cd 0.62441(7) 1.16580(5) 0.04771(5)
Cd1D_2 Cd 0.62441(7) 0.16580(5) 0.04771(5)
Cd1B_2 Cd 0.54139(5) 0.37559(7) 0.04771(5)
Cd1D_3 Cd 1.62441(7) 1.16580(5) 0.04771(5)
Cd1_2 Cd 0.83420(5) 1.45861(5) 0.04771(5)
Cl2B Cl 1.6667 1.3334 0.1601(2)
Cl2D Cl 0.6666 1.3333 0.1601(2)
Cl3B Cl 1.6667 1.3334 -0.0549(2)
Cl3D Cl 0.6666 1.3333 -0.0549(2)
Cl4B Cl 1.45627(19) 1.40460(27) 0.17678(15)
Cl4D Cl 0.59540(27) 1.05167(19) 0.17678(15)
Cl5B Cl 1.5126(2) 1.4930(3) -0.05199(16)
Cl5D Cl 0.5070(3) 1.0196(2) -0.05199(16)
S1B S 1.17935(16) 1.07021(22) 0.18086(13)
S1D S 0.92979(22) 1.10914(15) 0.18086(13)
N1B N 1.3124(6) 0.9781(8) 0.1153(4)
N1D N 1.0219(8) 1.3343(5) 0.1153(4)
H1B H 1.3860 1.0079 0.1099
H1D H 0.9921 1.3781 0.1099
H2B H 1.2813 0.9051 0.1051
H2D H 1.0949 1.3762 0.1051
N2B N 1.2542(6) 1.0302(8) 0.3470(5)
N2D N 0.9698(8) 1.2240(6) 0.3470(5)
H3B H 1.1834 1.0134 0.3530
H3D H 0.9866 1.1700 0.3530
H4B H 1.2678 0.9894 0.3832
H4D H 1.0106 1.2784 0.3832
N3B N 1.4141(6) 1.1416(8) 0.2406(5)
N3D N 0.8584(8) 1.2725(6) 0.2406(5)
H5B H 1.4720 1.1364 0.2218
H5D H 0.8636 1.3356 0.2218
H6B H 1.4072 1.1906 0.2086
H6D H 0.8094 1.2166 0.2086
N4B N 1.1476(6) 0.8484(8) 0.2373(5)
N4D N 1.1516(8) 1.2992(6) 0.2373(5)
H7B H 1.0897 0.8526 0.2574
H7D H 1.1474 1.2371 0.2574
H8B H 1.1301 0.8190 0.1861
H8D H 1.1810 1.3111 0.1861
N5B N 1.3597(6) 0.9201(8) 0.2716(5)
N5D N 1.0799(8) 1.4396(6) 0.2716(5)
H9B H 1.4175 0.9368 0.2382
H9D H 1.0632 1.4807 0.2382
H10B H 1.3855 0.9424 0.3232
H10D H 1.0576 1.4431 0.3232
O1B O 1.4526(4) 1.1870(6) 0.0654(4)
O1D O 0.8130(6) 1.2656(5) 0.0654(4)
O1D_2 O 0.8130(6) 0.2656(5) 0.0654(4)
O1_2 O 1.7344(5) 1.5474(4) 0.0654(4)
O1B_2 O 0.4526(4) 1.1870(6) 0.0654(4)
O2B O 1.3244(6) 1.2048(8) -0.0036(4)
O2D O 0.7952(8) 1.1196(6) -0.0036(4)
C1B C 1.1609(6) 1.0104(9) 0.0781(5)
C1D C 0.9896(9) 1.1505(7) 0.0781(5)
H11B H 1.1066 0.9322 0.0795
H11D H 1.0678 1.1744 0.0795
H12B H 1.1354 1.0466 0.0400
H12D H 0.9534 1.0888 0.0400
C2B C 1.2733(6) 1.0277(8) 0.0504(6)
C2D C 0.9723(8) 1.2456(6) 0.0504(6)
H13B H 1.2630 0.9874 -0.0016
H13D H 1.0126 1.2756 -0.0016
C3B C 1.3561(7) 1.1492(9) 0.0355(5)
C3D C 0.8508(9) 1.2069(6) 0.0355(5)
C4B C 1.3302(10) 1.1509(13) 0.3632(7)
C4D C 0.8491(13) 1.1793(9) 0.3632(7)
H14B H 1.2999 1.1940 0.3396
H14D H 0.8060 1.1059 0.3396
H15B H 1.3392 1.1648 0.4223
H15D H 0.8352 1.1744 0.4223
C5B C 1.4352(8) 1.1814(12) 0.3257(6)
C5D C 0.8186(12) 1.2538(9) 0.3257(6)
H16B H 1.4715 1.1482 0.3557
H16D H 0.8518 1.3233 0.3557
H17B H 1.4829 1.2611 0.3267
H17D H 0.7389 1.2218 0.3267
C6B C 1.1721(9) 0.7774(13) 0.2918(6)
C6D C 1.2226(13) 1.3947(10) 0.2918(6)
H18B H 1.1692 0.7951 0.3495
H18D H 1.2049 1.3741 0.3495
H19B H 1.1182 0.6999 0.2830
H19D H 1.3001 1.4183 0.2830
C7B C 1.2818(9) 0.7988(12) 0.2709(7)
C7D C 1.2012(12) 1.4830(8) 0.2709(7)
H20B H 1.2811 0.7693 0.2164
H20D H 1.2307 1.5118 0.2164
H21B H 1.3057 0.7630 0.3106
H21D H 1.2370 1.5427 0.3106
Cl6 Cl 0.3333 0.6667 0.0512(6)
O3 O 0.3333 0.6667 -0.0302(15)
O4 O 0.3964(12) 0.6180(13) 0.0865(9)
O4B O 0.3820(13) 0.7784(18) 0.0865(9)
O4D O 0.2216(18) 0.6036(12) 0.0865(9)
O5 O 0.2494(6) 0.3710(8) 0.0642(5)
loop_
_geom_bond_atom_site_label_1
_geom_bond_atom_site_label_2
_geom_bond_site_symmetry_1
_geom_bond_site_symmetry_2
Co1 S1 1_555 1_555
Cu1 Cl1 1_555 1_555
Cd1 Cl2 1_555 1_555
Cl2 Cd1D_2 1_555 1_555
Cl3 Cd1 1_555 1_555
Cl4 Cd1 1_555 1_555
Cl5 Cd1 1_555 1_555
S1 Cu1 1_555 1_555
N1 Co1 1_555 1_555
H1 N1 1_555 1_555
H2 N1 1_555 1_555
N2 Co1 1_555 1_555
H3 N2 1_555 1_555
H4 N2 1_555 1_555
N3 Co1 1_555 1_555
H5 N3 1_555 1_555
H6 N3 1_555 1_555
N4 Co1 1_555 1_555
H7 N4 1_555 1_555
H8 N4 1_555 1_555
N5 Co1 1_555 1_555
H9 N5 1_555 1_555
H10 N5 1_555 1_555
O1 Cd1 1_555 1_555
O2 C3 1_555 1_555
C1 S1 1_555 1_555
H11 C1 1_555 1_555
H12 C1 1_555 1_555
C2 N1 1_555 1_555
H13 C2 1_555 1_555
C3 O1 1_555 1_555
C4 N2 1_555 1_555
H14 C4 1_555 1_555
H15 C4 1_555 1_555
C5 N3 1_555 1_555
H16 C5 1_555 1_555
H17 C5 1_555 1_555
C6 N4 1_555 1_555
H18 C6 1_555 1_555
H19 C6 1_555 1_555
C7 N5 1_555 1_555
H20 C7 1_555 1_555
H21 C7 1_555 1_555
Cl6 O3 1_555 1_555
O4 Cl6 1_555 1_555
Co1B S1B 1_555 1_555
Co1D S1D 1_555 1_555
Cd1B Cl2B 1_555 1_555
Cd1D Cl2D 1_555 1_555
Cd1D_2 Cl3 1_555 1_555
Cd1B_2 Cl2 1_555 1_555
Cd1D_3 Cl2B 1_555 1_555
Cd1_2 Cl2D 1_555 1_555
Cl3B Cd1B 1_555 1_555
Cl3D Cd1D 1_555 1_555
Cl4B Cd1B 1_555 1_555
Cl4D Cd1D 1_555 1_555
Cl5B Cd1B 1_555 1_555
Cl5D Cd1D 1_555 1_555
S1B Cu1 1_555 1_555
S1D Cu1 1_555 1_555
N1B Co1B 1_555 1_555
N1D Co1D 1_555 1_555
H1B N1B 1_555 1_555
H1D N1D 1_555 1_555
H2B N1B 1_555 1_555
H2D N1D 1_555 1_555
N2B Co1B 1_555 1_555
N2D Co1D 1_555 1_555
H3B N2B 1_555 1_555
H3D N2D 1_555 1_555
H4B N2B 1_555 1_555
H4D N2D 1_555 1_555
N3B Co1B 1_555 1_555
N3D Co1D 1_555 1_555
H5B N3B 1_555 1_555
H5D N3D 1_555 1_555
H6B N3B 1_555 1_555
H6D N3D 1_555 1_555
N4B Co1B 1_555 1_555
N4D Co1D 1_555 1_555
H7B N4B 1_555 1_555
H7D N4D 1_555 1_555
H8B N4B 1_555 1_555
H8D N4D 1_555 1_555
N5B Co1B 1_555 1_555
N5D Co1D 1_555 1_555
H9B N5B 1_555 1_555
H9D N5D 1_555 1_555
H10B N5B 1_555 1_555
H10D N5D 1_555 1_555
O1B Cd1B 1_555 1_555
O1D Cd1D 1_555 1_555
O1D_2 Cd1 1_555 1_555
O1_2 Cd1B 1_555 1_555
O1B_2 Cd1D 1_555 1_555
O2B C3B 1_555 1_555
O2D C3D 1_555 1_555
C1B S1B 1_555 1_555
C1D S1D 1_555 1_555
H11B C1B 1_555 1_555
H11D C1D 1_555 1_555
H12B C1B 1_555 1_555
H12D C1D 1_555 1_555
C2B N1B 1_555 1_555
C2D N1D 1_555 1_555
H13B C2B 1_555 1_555
H13D C2D 1_555 1_555
C3B O1B 1_555 1_555
C3D O1D 1_555 1_555
C4B N2B 1_555 1_555
C4D N2D 1_555 1_555
H14B C4B 1_555 1_555
H14D C4D 1_555 1_555
H15B C4B 1_555 1_555
H15D C4D 1_555 1_555
C5B N3B 1_555 1_555
C5D N3D 1_555 1_555
H16B C5B 1_555 1_555
H16D C5D 1_555 1_555
H17B C5B 1_555 1_555
H17D C5D 1_555 1_555
C6B N4B 1_555 1_555
C6D N4D 1_555 1_555
H18B C6B 1_555 1_555
H18D C6D 1_555 1_555
H19B C6B 1_555 1_555
H19D C6D 1_555 1_555
C7B N5B 1_555 1_555
C7D N5D 1_555 1_555
H20B C7B 1_555 1_555
H20D C7D 1_555 1_555
H21B C7B 1_555 1_555
H21D C7D 1_555 1_555
O4B Cl6 1_555 1_555
O4D Cl6 1_555 1_555
Cl3 Cd1B_2 1_555 1_555
O1 Cd1B_2 1_555 1_555
C1 C2 1_555 1_555
C2 C3 1_555 1_555
C4 C5 1_555 1_555
C6 C7 1_555 1_555
Cd1D_2 O1D_2 1_555 1_555
Cd1D_3 Cl3B 1_555 1_555
Cd1D_3 O1B 1_555 1_555
Cd1_2 Cl3D 1_555 1_555
Cd1_2 O1D 1_555 1_555
C1B C2B 1_555 1_555
C1D C2D 1_555 1_555
C2B C3B 1_555 1_555
C2D C3D 1_555 1_555
C4B C5B 1_555 1_555
C4D C5D 1_555 1_555
C6B C7B 1_555 1_555
C6D C7D 1_555 1_555

#END
