
#######################################################################
#
#                 Cambridge Crystallographic Data Centre
#                                CCDC 
#
#######################################################################
#
# If this CIF has been generated from an entry in the Cambridge 
# Structural Database, then it will include bibliographic, chemical, 
# crystal, experimental, refinement or atomic coordinate data resulting 
# from the CCDC's data processing and validation procedures.
#
#######################################################################

data_XOMDIN
_symmetry_cell_setting           orthorhombic
_symmetry_space_group_name_H-M   'C 2 2 21'
_symmetry_Int_Tables_number      20
_space_group_name_Hall           'C 2n 2'
loop_
_symmetry_equiv_pos_site_id
_symmetry_equiv_pos_as_xyz
1 x,y,z
2 x,-y,-z
3 -x,y,1/2-z
4 -x,-y,1/2+z
5 1/2+x,1/2+y,z
6 1/2+x,1/2-y,-z
7 1/2-x,1/2+y,1/2-z
8 1/2-x,1/2-y,1/2+z
_cell_length_a                   9.910(3)
_cell_length_b                   13.899(5)
_cell_length_c                   27.538(10)
_cell_angle_alpha                90
_cell_angle_beta                 90
_cell_angle_gamma                90
_cell_volume                     3793.06
loop_
_atom_site_label
_atom_site_type_symbol
_atom_site_fract_x
_atom_site_fract_y
_atom_site_fract_z
Co1 Co 0.97650(6) 0.65329(4) 0.110454(19)
Cu1 Cu 0.93576(9) 0.5000 0.0000
Cd1 Cd 0.5000 0.42542(3) 0.2500
Cl1 Cl 1.17056(17) 0.5000 0.0000
Cl2 Cl 0.68014(13) 0.30683(9) 0.27402(4)
S1 S 0.83468(11) 0.59689(8) 0.05303(4)
N1 N 0.8442(4) 0.6086(3) 0.15968(13)
H1 H 0.8817 0.5582 0.1766
H2 H 0.8294 0.6578 0.1814
N2 N 1.0988(4) 0.7018(3) 0.05885(13)
H3 H 1.1870 0.6900 0.0673
H4 H 1.0812 0.6704 0.0301
N3 N 0.8890(4) 0.7815(3) 0.10554(13)
H5 H 0.7967 0.7746 0.1063
H6 H 0.9144 0.8192 0.1314
N4 N 1.0764(4) 0.5308(3) 0.11446(14)
H7 H 1.0222 0.4845 0.1282
H8 H 1.0993 0.5108 0.0837
N5 N 1.1015(4) 0.6975(3) 0.16358(14)
H9 H 1.1649 0.7391 0.1511
H10 H 1.0534 0.7293 0.1872
O1 O 0.6428(4) 0.5450(3) 0.22178(13)
O2 O 0.5583(4) 0.4502(3) 0.16490(12)
C1 C 0.7317(5) 0.5213(3) 0.09318(16)
H11 H 0.6437 0.5069 0.0778
H12 H 0.7784 0.4598 0.0999
C2 C 0.7108(4) 0.5768(3) 0.13963(15)
H13 H 0.6572 0.6357 0.1317
C3 C 0.6313(5) 0.5185(3) 0.17807(17)
C4 C 1.0779(5) 0.8067(4) 0.05241(19)
H14 H 1.1067 0.8265 0.0195
H15 H 1.1323 0.8428 0.0764
C5 C 0.9300(6) 0.8283(4) 0.05944(19)
H16 H 0.9151 0.8987 0.0613
H17 H 0.8767 0.8024 0.0320
C6 C 1.2018(5) 0.5427(4) 0.1444(2)
H18 H 1.2759 0.5685 0.1241
H19 H 1.2304 0.4799 0.1578
C7 C 1.1695(6) 0.6117(4) 0.18491(19)
H20 H 1.1094 0.5803 0.2089
H21 H 1.2535 0.6313 0.2017
Co1A Co 0.97650(6) 0.34671(4) -0.110454(19)
Cd1A Cd 0.5000 0.57458(3) -0.2500
Cl2B Cl 0.31986(13) 0.30683(9) 0.22598(4)
S1A S 0.83468(11) 0.40311(8) -0.05303(4)
N1A N 0.8442(4) 0.3914(3) -0.15968(13)
H1A H 0.8817 0.4418 -0.1766
H2A H 0.8294 0.3422 -0.1814
N2A N 1.0988(4) 0.2982(3) -0.05885(13)
H3A H 1.1870 0.3100 -0.0673
H4A H 1.0812 0.3296 -0.0301
N3A N 0.8890(4) 0.2185(3) -0.10554(13)
H5A H 0.7967 0.2254 -0.1063
H6A H 0.9144 0.1808 -0.1314
N4A N 1.0764(4) 0.4692(3) -0.11446(14)
H7A H 1.0222 0.5155 -0.1282
H8A H 1.0993 0.4892 -0.0837
N5A N 1.1015(4) 0.3025(3) -0.16358(14)
H9A H 1.1649 0.2609 -0.1511
H10A H 1.0534 0.2707 -0.1872
O1A O 0.6428(4) 0.4550(3) -0.22178(13)
O1B O 0.3572(4) 0.5450(3) 0.27822(13)
O2A O 0.5583(4) 0.5498(3) -0.16490(12)
O2B O 0.4417(4) 0.4502(3) 0.33510(12)
C1A C 0.7317(5) 0.4787(3) -0.09318(16)
H11A H 0.6437 0.4931 -0.0778
H12A H 0.7784 0.5402 -0.0999
C2A C 0.7108(4) 0.4232(3) -0.13963(15)
H13A H 0.6572 0.3643 -0.1317
C3A C 0.6313(5) 0.4815(3) -0.17807(17)
C4A C 1.0779(5) 0.1933(4) -0.05241(19)
H14A H 1.1067 0.1735 -0.0195
H15A H 1.1323 0.1572 -0.0764
C5A C 0.9300(6) 0.1717(4) -0.05944(19)
H16A H 0.9151 0.1013 -0.0613
H17A H 0.8767 0.1976 -0.0320
C6A C 1.2018(5) 0.4573(4) -0.1444(2)
H18A H 1.2759 0.4315 -0.1241
H19A H 1.2304 0.5201 -0.1578
C7A C 1.1695(6) 0.3883(4) -0.18491(19)
H20A H 1.1094 0.4197 -0.2089
H21A H 1.2535 0.3687 -0.2017
Cl3 Cl 0.96240(13) 0.26628(9) 0.08850(5)
O3 O 0.9441(8) 0.3222(4) 0.04839(19)
O4 O 0.9657(6) 0.1661(3) 0.07632(19)
O5 O 1.0831(4) 0.2964(3) 0.1136(2)
O6 O 0.8534(5) 0.2830(5) 0.1221(2)
O7 O 0.9306(5) 0.4212(3) 0.20301(18)
O8 O 1.0000 0.2296(5) 0.2500
loop_
_geom_bond_atom_site_label_1
_geom_bond_atom_site_label_2
_geom_bond_site_symmetry_1
_geom_bond_site_symmetry_2
Co1 S1 1_555 1_555
Cu1 Cl1 1_555 1_555
Cd1 Cl2 1_555 1_555
S1 Cu1 1_555 1_555
N1 Co1 1_555 1_555
H1 N1 1_555 1_555
H2 N1 1_555 1_555
N2 Co1 1_555 1_555
H3 N2 1_555 1_555
H4 N2 1_555 1_555
N3 Co1 1_555 1_555
H5 N3 1_555 1_555
H6 N3 1_555 1_555
N4 Co1 1_555 1_555
H7 N4 1_555 1_555
H8 N4 1_555 1_555
N5 Co1 1_555 1_555
H9 N5 1_555 1_555
H10 N5 1_555 1_555
O1 Cd1 1_555 1_555
O2 Cd1 1_555 1_555
C1 S1 1_555 1_555
H11 C1 1_555 1_555
H12 C1 1_555 1_555
C2 N1 1_555 1_555
H13 C2 1_555 1_555
C3 O1 1_555 1_555
C4 N2 1_555 1_555
H14 C4 1_555 1_555
H15 C4 1_555 1_555
C5 N3 1_555 1_555
H16 C5 1_555 1_555
H17 C5 1_555 1_555
C6 N4 1_555 1_555
H18 C6 1_555 1_555
H19 C6 1_555 1_555
C7 N5 1_555 1_555
H20 C7 1_555 1_555
H21 C7 1_555 1_555
Cl3 O3 1_555 1_555
O4 Cl3 1_555 1_555
O5 Cl3 1_555 1_555
O6 Cl3 1_555 1_555
Co1A S1A 1_555 1_555
Cd1A O1A 1_555 1_555
Cl2B Cd1 1_555 1_555
S1A Cu1 1_555 1_555
N1A Co1A 1_555 1_555
H1A N1A 1_555 1_555
H2A N1A 1_555 1_555
N2A Co1A 1_555 1_555
H3A N2A 1_555 1_555
H4A N2A 1_555 1_555
N3A Co1A 1_555 1_555
H5A N3A 1_555 1_555
H6A N3A 1_555 1_555
N4A Co1A 1_555 1_555
H7A N4A 1_555 1_555
H8A N4A 1_555 1_555
N5A Co1A 1_555 1_555
H9A N5A 1_555 1_555
H10A N5A 1_555 1_555
O1A C3A 1_555 1_555
O1B Cd1 1_555 1_555
O2A Cd1A 1_555 1_555
O2B Cd1 1_555 1_555
C1A S1A 1_555 1_555
H11A C1A 1_555 1_555
H12A C1A 1_555 1_555
C2A N1A 1_555 1_555
H13A C2A 1_555 1_555
C3A O2A 1_555 1_555
C4A N2A 1_555 1_555
H14A C4A 1_555 1_555
H15A C4A 1_555 1_555
C5A N3A 1_555 1_555
H16A C5A 1_555 1_555
H17A C5A 1_555 1_555
C6A N4A 1_555 1_555
H18A C6A 1_555 1_555
H19A C6A 1_555 1_555
C7A N5A 1_555 1_555
H20A C7A 1_555 1_555
H21A C7A 1_555 1_555
O2 C3 1_555 1_555
C1 C2 1_555 1_555
C2 C3 1_555 1_555
C4 C5 1_555 1_555
C6 C7 1_555 1_555
C1A C2A 1_555 1_555
C2A C3A 1_555 1_555
C4A C5A 1_555 1_555
C6A C7A 1_555 1_555

#END
