
#######################################################################
#
#                 Cambridge Crystallographic Data Centre
#                                CCDC 
#
#######################################################################
#
# If this CIF has been generated from an entry in the Cambridge 
# Structural Database, then it will include bibliographic, chemical, 
# crystal, experimental, refinement or atomic coordinate data resulting 
# from the CCDC's data processing and validation procedures.
#
#######################################################################

data_XOMFAH
_symmetry_cell_setting           hexagonal
_symmetry_space_group_name_H-M   'P 63'
_symmetry_Int_Tables_number      173
_space_group_name_Hall           'P 6c'
loop_
_symmetry_equiv_pos_site_id
_symmetry_equiv_pos_as_xyz
1 x,y,z
2 x-y,x,1/2+z
3 -y,x-y,z
4 -x,-y,1/2+z
5 -x+y,-x,z
6 y,-x+y,1/2+z
_cell_length_a                   14.0101(16)
_cell_length_b                   14.0101(16)
_cell_length_c                   16.164(2)
_cell_angle_alpha                90
_cell_angle_beta                 90
_cell_angle_gamma                120
_cell_volume                     2747.65
loop_
_atom_site_label
_atom_site_type_symbol
_atom_site_fract_x
_atom_site_fract_y
_atom_site_fract_z
Co1 Co 0.72096(16) 0.71957(15) 0.33381(15)
Cu1 Cu 1.0000 1.0000 0.3383(3)
Cd1 Cd 0.45796(9) 0.83403(9) 0.51868(11)
Cl1 Cl 1.0000 1.0000 0.1920(5)
Cl2 Cl 0.3333 0.6667 0.4060(5)
Cl3 Cl 0.3333 0.6667 0.6214(5)
Cl4 Cl 0.5417(4) 0.9487(4) 0.3895(3)
Cl5 Cl 0.4889(5) 0.9815(5) 0.6167(4)
S1 S 0.8203(3) 0.8920(3) 0.3862(3)
O1 O 0.5467(10) 0.7355(10) 0.5003(7)
O2 O 0.6719(13) 0.8775(13) 0.5723(8)
N1 N 0.6866(12) 0.6664(11) 0.4501(9)
H1 H 0.6130 0.6241 0.4550
H2 H 0.7157 0.6229 0.4598
N2 N 0.7473(12) 0.7776(12) 0.2199(10)
H3 H 0.8180 0.8310 0.2143
H4 H 0.7341 0.7233 0.1839
N3 N 0.5849(11) 0.7293(12) 0.3266(10)
H5 H 0.5273 0.6663 0.3454
H6 H 0.5918 0.7849 0.3586
N4 N 0.8539(13) 0.7039(13) 0.3289(12)
H7 H 0.9111 0.7652 0.3077
H8 H 0.8724 0.6932 0.3800
N5 N 0.6421(12) 0.5654(11) 0.2947(10)
H9 H 0.5843 0.5243 0.3280
H10 H 0.6166 0.5623 0.2431
C1 C 0.8359(13) 0.8486(15) 0.4902(10)
H11 H 0.8918 0.8271 0.4897
H12 H 0.8583 0.9089 0.5290
C2 C 0.7262(11) 0.7522(12) 0.5157(12)
H13 H 0.7359 0.7211 0.5672
C3 C 0.6406(13) 0.7917(13) 0.5309(10)
C4 C 0.673(2) 0.8228(18) 0.2016(13)
H14 H 0.7034 0.8965 0.2244
H15 H 0.6647 0.8268 0.1423
C5 C 0.5644(19) 0.7482(18) 0.2398(11)
H16 H 0.5273 0.6789 0.2100
H17 H 0.5181 0.7815 0.2383
C6 C 0.827(2) 0.606(2) 0.2748(14)
H18 H 0.8296 0.6261 0.2170
H19 H 0.8794 0.5816 0.2838
C7 C 0.720(2) 0.5221(17) 0.2956(14)
H20 H 0.7207 0.4938 0.3502
H21 H 0.6956 0.4621 0.2563
Co1B Co 1.28043(15) 1.00139(22) 0.33381(15)
Co1D Co 0.99861(22) 1.27904(16) 0.33381(15)
Cd1B Cd 1.16597(9) 0.62393(13) 0.51868(11)
Cd1D Cd 1.37607(13) 1.54204(9) 0.51868(11)
Cd1D_2 Cd 0.37607(13) 0.54204(9) 0.51868(11)
Cd1B_2 Cd 0.16597(9) 0.62393(13) 0.51868(11)
Cd1_2 Cd 1.45796(9) 0.83403(9) 0.51868(11)
Cd1B_3 Cd 1.16597(9) 1.62393(13) 0.51868(11)
Cl2B Cl 1.3333 0.6666 0.4060(5)
Cl2D Cl 1.3334 1.6667 0.4060(5)
Cl3B Cl 1.3333 0.6666 0.6214(5)
Cl3D Cl 1.3334 1.6667 0.6214(5)
Cl4B Cl 1.0513(4) 0.5930(6) 0.3895(3)
Cl4D Cl 1.4070(6) 1.4583(4) 0.3895(3)
Cl5B Cl 1.0185(5) 0.5074(7) 0.6167(4)
Cl5D Cl 1.4926(7) 1.5111(5) 0.6167(4)
S1B S 1.1080(3) 0.9283(4) 0.3862(3)
S1D S 1.0717(4) 1.1797(3) 0.3862(3)
O1B O 1.2645(10) 0.8112(14) 0.5003(7)
O1D O 1.1888(14) 1.4533(10) 0.5003(7)
O1B_2 O 0.2645(10) 0.8112(14) 0.5003(7)
O1D_2 O 1.1888(14) 0.4533(10) 0.5003(7)
O1_2 O 1.5467(10) 1.7355(10) 0.5003(7)
O2B O 1.1225(13) 0.7944(18) 0.5723(8)
O2D O 1.2056(18) 1.3281(13) 0.5723(8)
N1B N 1.3336(11) 1.0202(16) 0.4501(9)
N1D N 0.9798(16) 1.3134(12) 0.4501(9)
H1B H 1.3759 0.9889 0.4550
H1D H 1.0111 1.3870 0.4550
H2B H 1.3771 1.0928 0.4598
H2D H 0.9072 1.2843 0.4598
N2B N 1.2224(12) 0.9697(17) 0.2199(10)
N2D N 1.0303(17) 1.2527(12) 0.2199(10)
H3B H 1.1690 0.9870 0.2143
H3D H 1.0130 1.1820 0.2143
H4B H 1.2767 1.0108 0.1839
H4D H 0.9892 1.2659 0.1839
N3B N 1.2707(12) 0.8556(16) 0.3266(10)
N3D N 1.1444(16) 1.4151(11) 0.3266(10)
H5B H 1.3337 0.8610 0.3454
H5D H 1.1390 1.4727 0.3454
H6B H 1.2151 0.8069 0.3586
H6D H 1.1931 1.4082 0.3586
N4B N 1.2961(13) 1.1500(18) 0.3289(12)
N4D N 0.8500(18) 1.1461(13) 0.3289(12)
H7B H 1.2348 1.1459 0.3077
H7D H 0.8541 1.0889 0.3077
H8B H 1.3068 1.1792 0.3800
H8D H 0.8208 1.1276 0.3800
N5B N 1.4346(11) 1.0767(16) 0.2947(10)
N5D N 0.9233(16) 1.3579(12) 0.2947(10)
H9B H 1.4757 1.0600 0.3280
H9D H 0.9400 1.4157 0.3280
H10B H 1.4377 1.0543 0.2431
H10D H 0.9457 1.3834 0.2431
C1B C 1.1514(15) 0.9873(20) 0.4902(10)
C1D C 1.0127(20) 1.1641(13) 0.4902(10)
H11B H 1.1729 1.0647 0.4897
H11D H 0.9353 1.1082 0.4897
H12B H 1.0911 0.9494 0.5290
H12D H 1.0506 1.1417 0.5290
C2B C 1.2478(12) 0.9740(16) 0.5157(12)
C2D C 1.0260(16) 1.2738(11) 0.5157(12)
H13B H 1.2789 1.0148 0.5672
H13D H 0.9852 1.2641 0.5672
C3B C 1.2083(13) 0.8489(18) 0.5309(10)
C3D C 1.1511(18) 1.3594(13) 0.5309(10)
C4B C 1.1772(18) 0.8502(27) 0.2016(13)
C4D C 1.1498(27) 1.327(2) 0.2016(13)
H14B H 1.1035 0.8069 0.2244
H14D H 1.1931 1.2966 0.2244
H15B H 1.1732 0.8379 0.1423
H15D H 1.1621 1.3353 0.1423
C5B C 1.2518(18) 0.8162(26) 0.2398(11)
C5D C 1.1838(26) 1.4356(19) 0.2398(11)
H16B H 1.3211 0.8484 0.2100
H16D H 1.1516 1.4727 0.2100
H17B H 1.2185 0.7366 0.2383
H17D H 1.2634 1.4819 0.2383
C6B C 1.394(2) 1.221(3) 0.2748(14)
C6D C 0.779(3) 1.173(2) 0.2748(14)
H18B H 1.3739 1.2035 0.2170
H18D H 0.7965 1.1704 0.2170
H19B H 1.4184 1.2978 0.2838
H19D H 0.7022 1.1206 0.2838
C7B C 1.4779(17) 1.1979(26) 0.2956(14)
C7D C 0.8021(26) 1.280(2) 0.2956(14)
H20B H 1.5062 1.2269 0.3502
H20D H 0.7731 1.2793 0.3502
H21B H 1.5379 1.2335 0.2563
H21D H 0.7665 1.3044 0.2563
Re1 Re 0.6667 0.3333 0.5296(2)
O3 O 0.6667 0.3333 0.629(3)
O4 O 0.720(2) 0.463(2) 0.500(4)
O4B O 0.537(2) 0.257(3) 0.500(4)
O4D O 0.743(3) 0.280(2) 0.500(4)
O5 O 0.8941(15) 0.6502(15) 0.5029(12)
O6? O 0.637(8) 0.429(7) 0.489(5)
loop_
_geom_bond_atom_site_label_1
_geom_bond_atom_site_label_2
_geom_bond_site_symmetry_1
_geom_bond_site_symmetry_2
Co1 S1 1_555 1_555
Cu1 Cl1 1_555 1_555
Cd1 Cl2 1_555 1_555
Cl2 Cd1D_2 1_555 1_555
Cl3 Cd1 1_555 1_555
Cl4 Cd1 1_555 1_555
Cl5 Cd1 1_555 1_555
S1 Cu1 1_555 1_555
O1 Cd1 1_555 1_555
O2 C3 1_555 1_555
N1 Co1 1_555 1_555
H1 N1 1_555 1_555
H2 N1 1_555 1_555
N2 Co1 1_555 1_555
H3 N2 1_555 1_555
H4 N2 1_555 1_555
N3 Co1 1_555 1_555
H5 N3 1_555 1_555
H6 N3 1_555 1_555
N4 Co1 1_555 1_555
H7 N4 1_555 1_555
H8 N4 1_555 1_555
N5 Co1 1_555 1_555
H9 N5 1_555 1_555
H10 N5 1_555 1_555
C1 S1 1_555 1_555
H11 C1 1_555 1_555
H12 C1 1_555 1_555
C2 N1 1_555 1_555
H13 C2 1_555 1_555
C3 O1 1_555 1_555
C4 N2 1_555 1_555
H14 C4 1_555 1_555
H15 C4 1_555 1_555
C5 N3 1_555 1_555
H16 C5 1_555 1_555
H17 C5 1_555 1_555
C6 N4 1_555 1_555
H18 C6 1_555 1_555
H19 C6 1_555 1_555
C7 N5 1_555 1_555
H20 C7 1_555 1_555
H21 C7 1_555 1_555
Re1 O3 1_555 1_555
O4 Re1 1_555 1_555
Co1B S1B 1_555 1_555
Co1D S1D 1_555 1_555
Cd1B Cl2B 1_555 1_555
Cd1D Cl2D 1_555 1_555
Cd1D_2 Cl3 1_555 1_555
Cd1B_2 Cl2 1_555 1_555
Cd1_2 Cl2B 1_555 1_555
Cd1B_3 Cl2D 1_555 1_555
Cl3B Cd1B 1_555 1_555
Cl3D Cd1D 1_555 1_555
Cl4B Cd1B 1_555 1_555
Cl4D Cd1D 1_555 1_555
Cl5B Cd1B 1_555 1_555
Cl5D Cd1D 1_555 1_555
S1B Cu1 1_555 1_555
S1D Cu1 1_555 1_555
O1B Cd1B 1_555 1_555
O1D Cd1D 1_555 1_555
O1B_2 Cd1 1_555 1_555
O1D_2 Cd1B 1_555 1_555
O1_2 Cd1D 1_555 1_555
O2B C3B 1_555 1_555
O2D C3D 1_555 1_555
N1B Co1B 1_555 1_555
N1D Co1D 1_555 1_555
H1B N1B 1_555 1_555
H1D N1D 1_555 1_555
H2B N1B 1_555 1_555
H2D N1D 1_555 1_555
N2B Co1B 1_555 1_555
N2D Co1D 1_555 1_555
H3B N2B 1_555 1_555
H3D N2D 1_555 1_555
H4B N2B 1_555 1_555
H4D N2D 1_555 1_555
N3B Co1B 1_555 1_555
N3D Co1D 1_555 1_555
H5B N3B 1_555 1_555
H5D N3D 1_555 1_555
H6B N3B 1_555 1_555
H6D N3D 1_555 1_555
N4B Co1B 1_555 1_555
N4D Co1D 1_555 1_555
H7B N4B 1_555 1_555
H7D N4D 1_555 1_555
H8B N4B 1_555 1_555
H8D N4D 1_555 1_555
N5B Co1B 1_555 1_555
N5D Co1D 1_555 1_555
H9B N5B 1_555 1_555
H9D N5D 1_555 1_555
H10B N5B 1_555 1_555
H10D N5D 1_555 1_555
C1B S1B 1_555 1_555
C1D S1D 1_555 1_555
H11B C1B 1_555 1_555
H11D C1D 1_555 1_555
H12B C1B 1_555 1_555
H12D C1D 1_555 1_555
C2B N1B 1_555 1_555
C2D N1D 1_555 1_555
H13B C2B 1_555 1_555
H13D C2D 1_555 1_555
C3B O1B 1_555 1_555
C3D O1D 1_555 1_555
C4B N2B 1_555 1_555
C4D N2D 1_555 1_555
H14B C4B 1_555 1_555
H14D C4D 1_555 1_555
H15B C4B 1_555 1_555
H15D C4D 1_555 1_555
C5B N3B 1_555 1_555
C5D N3D 1_555 1_555
H16B C5B 1_555 1_555
H16D C5D 1_555 1_555
H17B C5B 1_555 1_555
H17D C5D 1_555 1_555
C6B N4B 1_555 1_555
C6D N4D 1_555 1_555
H18B C6B 1_555 1_555
H18D C6D 1_555 1_555
H19B C6B 1_555 1_555
H19D C6D 1_555 1_555
C7B N5B 1_555 1_555
C7D N5D 1_555 1_555
H20B C7B 1_555 1_555
H20D C7D 1_555 1_555
H21B C7B 1_555 1_555
H21D C7D 1_555 1_555
O4B Re1 1_555 1_555
O4D Re1 1_555 1_555
Cl3 Cd1B_2 1_555 1_555
O1 Cd1D_2 1_555 1_555
C1 C2 1_555 1_555
C2 C3 1_555 1_555
C4 C5 1_555 1_555
C6 C7 1_555 1_555
Cd1B_2 O1B_2 1_555 1_555
Cd1_2 Cl3B 1_555 1_555
Cd1_2 O1B 1_555 1_555
Cd1B_3 Cl3D 1_555 1_555
Cd1B_3 O1D 1_555 1_555
C1B C2B 1_555 1_555
C1D C2D 1_555 1_555
C2B C3B 1_555 1_555
C2D C3D 1_555 1_555
C4B C5B 1_555 1_555
C4D C5D 1_555 1_555
C6B C7B 1_555 1_555
C6D C7D 1_555 1_555

#END
