
#######################################################################
#
#                 Cambridge Crystallographic Data Centre
#                                CCDC 
#
#######################################################################
#
# If this CIF has been generated from an entry in the Cambridge 
# Structural Database, then it will include bibliographic, chemical, 
# crystal, experimental, refinement or atomic coordinate data resulting 
# from the CCDC's data processing and validation procedures.
#
#######################################################################

data_XOMGOW
_symmetry_cell_setting           monoclinic
_symmetry_space_group_name_H-M   'P 21/c'
_symmetry_Int_Tables_number      14
_space_group_name_Hall           '-P 2ybc'
loop_
_symmetry_equiv_pos_site_id
_symmetry_equiv_pos_as_xyz
1 x,y,z
2 -x,1/2+y,1/2-z
3 -x,-y,-z
4 x,1/2-y,1/2+z
_cell_length_a                   8.0245(6)
_cell_length_b                   23.9405(18)
_cell_length_c                   23.5600(18)
_cell_angle_alpha                90
_cell_angle_beta                 98.8690(10)
_cell_angle_gamma                90
_cell_volume                     4472.01
loop_
_atom_site_label
_atom_site_type_symbol
_atom_site_fract_x
_atom_site_fract_y
_atom_site_fract_z
Cr1 Cr 0.76476(5) 0.366763(16) 0.098518(16)
Cr2 Cr -0.02494(5) 0.803470(15) 0.045280(15)
Ag1 Ag 0.29374(2) 0.568517(7) 0.276438(8)
N1 N 0.5563(3) 0.53841(12) 0.24922(14)
N2 N 0.2151(3) 0.61534(9) 0.19276(9)
N3 N 0.5960(3) 0.13900(10) 0.15917(11)
N4 N 0.2297(3) 0.49083(9) 0.32130(9)
N5 N 1.1556(4) 0.45442(11) -0.07122(11)
N6 N -0.0175(3) 0.89194(11) -0.18736(10)
O1 O 0.8771(2) 0.42959(7) 0.14009(7)
O2 O 0.5533(2) 0.38680(8) 0.12430(7)
O3 O 0.7037(2) 0.41235(7) 0.02954(7)
O4 O 0.9794(2) 0.34777(7) 0.07378(7)
O5 O -0.1362(2) 0.74189(7) 0.07951(7)
O6 O 0.1780(2) 0.75750(7) 0.05220(7)
O7 O 0.6535(2) 0.30356(7) 0.05656(7)
O8 O -0.1024(2) 0.77577(7) -0.03239(7)
O9 O 0.8270(2) 0.31972(7) 0.16582(7)
O10 O 0.0901(2) 0.86493(7) 0.01256(7)
O11 O -0.0492(2) 0.33304(7) 0.37834(7)
O12 O 0.2253(2) 0.34999(7) 0.46056(7)
C1 C 0.9381(3) 0.50784(11) 0.19962(11)
H1 H 1.0504 0.4912 0.2096
H2 H 0.8994 0.5216 0.2345
H3 H 0.9434 0.5390 0.1730
C2 C 0.8181(3) 0.46482(10) 0.17186(10)
C3 C 0.6490(3) 0.46432(10) 0.18202(11)
C4 C 0.5245(3) 0.42511(11) 0.15772(10)
C5 C 0.3490(3) 0.42973(12) 0.17159(12)
H4 H 0.2831 0.3971 0.1563
H5 H 0.2959 0.4638 0.1542
H6 H 0.3533 0.4313 0.2134
C6 C 0.5995(4) 0.50592(12) 0.21899(13)
C7 C 0.7186(4) 0.46676(12) -0.05272(12)
H7 H 0.6130 0.4819 -0.0431
H8 H 0.6952 0.4456 -0.0887
H9 H 0.7961 0.4975 -0.0573
C8 C 0.7979(4) 0.42878(10) -0.00511(11)
C9 C 0.9675(3) 0.41269(10) -0.00211(10)
C10 C 1.0500(3) 0.37169(10) 0.03611(10)
C11 C 1.2265(3) 0.35431(11) 0.03230(11)
H10 H 1.2732 0.3338 0.0671
H11 H 1.2955 0.3875 0.0286
H12 H 1.2269 0.3302 -0.0013
C12 C 1.0679(4) 0.43628(11) -0.04179(11)
C13 C -0.1807(3) 0.67229(11) 0.14632(11)
H13 H -0.2582 0.6978 0.1617
H14 H -0.1125 0.6523 0.1780
H15 H -0.2456 0.6453 0.1205
C14 C -0.0671(3) 0.70509(9) 0.11377(9)
C15 C 0.1076(3) 0.69283(9) 0.12056(9)
C16 C 0.2202(3) 0.71765(10) 0.08707(9)
C17 C 0.3960(3) 0.69616(10) 0.08981(10)
H16 H 0.4080 0.6782 0.0533
H17 H 0.4196 0.6689 0.1211
H18 H 0.4758 0.7273 0.0969
C18 C 0.1692(3) 0.64991(10) 0.16015(10)
C19 C 0.1653(4) 0.93398(11) -0.05028(12)
H19 H 0.2260 0.9483 -0.0139
H20 H 0.0825 0.9617 -0.0672
H21 H 0.2456 0.9267 -0.0768
C20 C 0.0762(3) 0.88074(10) -0.03945(11)
C21 C -0.0152(3) 0.85093(10) -0.08581(10)
C22 C -0.0988(3) 0.79937(10) -0.08040(10)
C23 C -0.1865(3) 0.76977(11) -0.13232(10)
H22 H -0.1210 0.7368 -0.1399
H23 H -0.1971 0.7949 -0.1655
H24 H -0.2990 0.7581 -0.1257
C24 C -0.0187(3) 0.87368(11) -0.14248(11)
C25 C 0.8506(4) 0.24536(11) 0.23184(11)
H25 H 0.9531 0.2652 0.2487
H26 H 0.8768 0.2058 0.2272
H27 H 0.7652 0.2489 0.2572
C26 C 0.7843(3) 0.27007(10) 0.17444(10)
C27 C 0.6799(3) 0.23781(10) 0.13226(10)
C28 C 0.6241(3) 0.25548(10) 0.07507(10)
C29 C 0.5283(3) 0.21671(10) 0.03213(11)
H28 H 0.4353 0.2370 0.0092
H29 H 0.4829 0.1857 0.0522
H30 H 0.6039 0.2020 0.0068
C30 C 0.6343(3) 0.18314(11) 0.14764(11)
C31 C -0.0914(3) 0.39095(11) 0.29689(10)
H31 H -0.0240 0.3816 0.2669
H32 H -0.1138 0.4312 0.2962
H33 H -0.1985 0.3705 0.2900
C32 C 0.0032(3) 0.37501(10) 0.35423(10)
C33 C 0.1472(3) 0.40631(10) 0.37870(10)
C34 C 0.2563(3) 0.39062(10) 0.42917(10)
C35 C 0.4175(3) 0.42087(12) 0.44853(13)
H34 H 0.4250 0.4305 0.4893
H35 H 0.4205 0.4551 0.4259
H36 H 0.5128 0.3969 0.4431
C36 C 0.1946(3) 0.45290(10) 0.34663(10)
Cr2A Cr 0.02494(5) 0.303470(15) 0.454720(15)
Ag1A Ag 0.70626(2) 0.068517(7) 0.223562(8)
N3A N 0.4040(3) 0.63900(10) 0.34083(11)
O11A O 0.0492(2) 0.83304(7) 0.12166(7)
O12A O -0.2253(2) 0.84999(7) 0.03944(7)
P1 P -0.58069(9) 0.30975(3) 0.28557(3)
F1 F -0.6656(2) 0.29909(7) 0.34171(8)
F2 F -0.7593(2) 0.32604(10) 0.25019(10)
F3 F -0.5482(3) 0.37357(7) 0.30375(8)
F4 F -0.4933(2) 0.32064(8) 0.22980(7)
F5 F -0.4017(2) 0.29308(8) 0.32096(8)
F6 F -0.6098(3) 0.24580(8) 0.26737(8)
O13 O 0.3556(4) 0.45884(13) 0.59444(12)
H37 H 0.3757 0.4325 0.6180
C37 C 0.2760(5) 0.50222(18) 0.61945(18)
H38 H 0.2056 0.4866 0.6461
H39 H 0.2052 0.5235 0.5894
H40 H 0.3613 0.5270 0.6405
loop_
_geom_bond_atom_site_label_1
_geom_bond_atom_site_label_2
_geom_bond_site_symmetry_1
_geom_bond_site_symmetry_2
Cr1 O1 1_555 1_555
Cr2 O5 1_555 1_555
Ag1 N1 1_555 1_555
N1 C6 1_555 1_555
N2 Ag1 1_555 1_555
N3 C30 1_555 1_555
N4 Ag1 1_555 1_555
N5 C12 1_555 1_555
N6 C24 1_555 1_555
O1 C2 1_555 1_555
O2 Cr1 1_555 1_555
O3 Cr1 1_555 1_555
O4 Cr1 1_555 1_555
O5 C14 1_555 1_555
O6 Cr2 1_555 1_555
O7 Cr1 1_555 1_555
O8 Cr2 1_555 1_555
O9 Cr1 1_555 1_555
O10 Cr2 1_555 1_555
O11 C32 1_555 1_555
O12 C34 1_555 1_555
C1 H1 1_555 1_555
H2 C1 1_555 1_555
H3 C1 1_555 1_555
C2 C1 1_555 1_555
C3 C2 1_555 1_555
C4 O2 1_555 1_555
C5 C4 1_555 1_555
H4 C5 1_555 1_555
H5 C5 1_555 1_555
H6 C5 1_555 1_555
C6 C3 1_555 1_555
C7 H7 1_555 1_555
H8 C7 1_555 1_555
H9 C7 1_555 1_555
C8 O3 1_555 1_555
C9 C8 1_555 1_555
C10 O4 1_555 1_555
C11 C10 1_555 1_555
H10 C11 1_555 1_555
H11 C11 1_555 1_555
H12 C11 1_555 1_555
C12 C9 1_555 1_555
C13 H13 1_555 1_555
H14 C13 1_555 1_555
H15 C13 1_555 1_555
C14 C13 1_555 1_555
C15 C14 1_555 1_555
C16 O6 1_555 1_555
C17 C16 1_555 1_555
H16 C17 1_555 1_555
H17 C17 1_555 1_555
H18 C17 1_555 1_555
C18 N2 1_555 1_555
C19 H19 1_555 1_555
H20 C19 1_555 1_555
H21 C19 1_555 1_555
C20 O10 1_555 1_555
C21 C20 1_555 1_555
C22 O8 1_555 1_555
C23 C22 1_555 1_555
H22 C23 1_555 1_555
H23 C23 1_555 1_555
H24 C23 1_555 1_555
C24 C21 1_555 1_555
C25 H25 1_555 1_555
H26 C25 1_555 1_555
H27 C25 1_555 1_555
C26 O9 1_555 1_555
C27 C26 1_555 1_555
C28 O7 1_555 1_555
C29 C28 1_555 1_555
H28 C29 1_555 1_555
H29 C29 1_555 1_555
H30 C29 1_555 1_555
C30 C27 1_555 1_555
C31 H31 1_555 1_555
H32 C31 1_555 1_555
H33 C31 1_555 1_555
C32 C31 1_555 1_555
C33 C32 1_555 1_555
C34 C33 1_555 1_555
C35 C34 1_555 1_555
H34 C35 1_555 1_555
H35 C35 1_555 1_555
H36 C35 1_555 1_555
C36 N4 1_555 1_555
P1 F1 1_555 1_555
F2 P1 1_555 1_555
F3 P1 1_555 1_555
F4 P1 1_555 1_555
F5 P1 1_555 1_555
F6 P1 1_555 1_555
O13 H37 1_555 1_555
C37 O13 1_555 1_555
H38 C37 1_555 1_555
H39 C37 1_555 1_555
H40 C37 1_555 1_555
Cr2A O11 1_555 1_555
Ag1A N3 1_555 1_555
N3A Ag1 1_555 1_555
O11A Cr2 1_555 1_555
O12A Cr2 1_555 1_555
O12 Cr2A 1_555 1_555
C3 C4 1_555 1_555
C7 C8 1_555 1_555
C9 C10 1_555 1_555
C15 C16 1_555 1_555
C15 C18 1_555 1_555
C19 C20 1_555 1_555
C21 C22 1_555 1_555
C25 C26 1_555 1_555
C27 C28 1_555 1_555
C33 C36 1_555 1_555

#END
