
#######################################################################
#
#                 Cambridge Crystallographic Data Centre
#                                CCDC 
#
#######################################################################
#
# If this CIF has been generated from an entry in the Cambridge 
# Structural Database, then it will include bibliographic, chemical, 
# crystal, experimental, refinement or atomic coordinate data resulting 
# from the CCDC's data processing and validation procedures.
#
#######################################################################

data_XOMHAJ
_symmetry_cell_setting           monoclinic
_symmetry_space_group_name_H-M   'P 21/c'
_symmetry_Int_Tables_number      14
_space_group_name_Hall           '-P 2ybc'
loop_
_symmetry_equiv_pos_site_id
_symmetry_equiv_pos_as_xyz
1 x,y,z
2 -x,1/2+y,1/2-z
3 -x,-y,-z
4 x,1/2-y,1/2+z
_cell_length_a                   7.8367(5)
_cell_length_b                   24.3686(17)
_cell_length_c                   23.2360(16)
_cell_angle_alpha                90
_cell_angle_beta                 96.3383(16)
_cell_angle_gamma                90
_cell_volume                     4410.24
loop_
_atom_site_label
_atom_site_type_symbol
_atom_site_fract_x
_atom_site_fract_y
_atom_site_fract_z
Cr1 Cr 0.77742(11) 0.36738(4) 0.09934(4)
Cr2 Cr 0.04711(12) 0.29752(4) 0.45207(4)
Ag1 Ag 0.28093(6) 0.569687(18) 0.280423(18)
N1 N 0.5410(10) 0.5307(3) 0.2546(4)
N2 N -0.1952(6) 0.1134(2) 0.3054(2)
N3 N 0.6126(6) 0.1444(2) 0.1657(2)
N4 N 0.2154(6) 0.4927(2) 0.3253(2)
N5 N 1.1809(7) 0.4522(2) -0.0778(2)
N6 N 0.0389(7) 0.3843(2) 0.6877(2)
O1 O 0.8815(4) 0.43051(15) 0.14027(15)
O2 O 0.5579(4) 0.38358(16) 0.12646(15)
O3 O 0.7166(5) 0.41212(15) 0.03004(15)
O4 O 0.9997(4) 0.35123(14) 0.07312(14)
O5 O 0.1615(5) 0.23943(17) 0.41282(15)
O6 O -0.1558(4) 0.25077(15) 0.44770(14)
O7 O 0.6751(4) 0.30394(15) 0.05827(14)
O8 O 0.1256(5) 0.26993(16) 0.52960(15)
O9 O 0.8388(4) 0.32242(16) 0.16726(14)
O10 O -0.0732(5) 0.35703(16) 0.48758(16)
O11 O -0.0350(4) 0.32764(16) 0.37701(14)
O12 O 0.2482(5) 0.34361(19) 0.45521(17)
C1 C 0.9293(7) 0.5066(2) 0.2019(2)
H1 H 1.0416 0.5048 0.1872
H2 H 0.9436 0.5008 0.2439
H3 H 0.8777 0.5427 0.1932
C2 C 0.8153(7) 0.4631(2) 0.1737(2)
C3 C 0.6407(7) 0.4596(2) 0.1851(2)
C4 C 0.5214(7) 0.4204(2) 0.1609(2)
C5 C 0.3397(7) 0.4218(2) 0.1756(2)
H4 H 0.2796 0.4532 0.1564
H5 H 0.3396 0.4253 0.2176
H6 H 0.2811 0.3878 0.1625
C6 C 0.5850(9) 0.4988(3) 0.2244(3)
C7 C 0.7334(8) 0.4660(3) -0.0527(2)
H7 H 0.7265 0.4472 -0.0901
H8 H 0.8027 0.4993 -0.0541
H9 H 0.6176 0.4758 -0.0441
C8 C 0.8143(7) 0.4289(2) -0.0066(2)
C9 C 0.9859(7) 0.4129(2) -0.0050(2)
C10 C 1.0708(7) 0.3735(2) 0.0329(2)
C11 C 1.2511(6) 0.3575(2) 0.0266(2)
H10 H 1.3005 0.3386 0.0618
H11 H 1.3187 0.3904 0.0206
H12 H 1.2529 0.3330 -0.0067
C12 C 1.0885(8) 0.4356(3) -0.0468(2)
C13 C 0.2058(7) 0.1755(3) 0.3399(2)
H13 H 0.2866 0.2020 0.3266
H14 H 0.1352 0.1598 0.3065
H15 H 0.2698 0.1460 0.3615
C14 C 0.0916(7) 0.2039(3) 0.3789(2)
C15 C -0.0836(7) 0.1897(2) 0.3760(2)
C16 C -0.1990(6) 0.2124(2) 0.4133(2)
C17 C -0.3739(6) 0.1906(2) 0.4130(2)
H16 H -0.3924 0.1791 0.4523
H17 H -0.3887 0.1590 0.3869
H18 H -0.4572 0.2191 0.3998
C18 C -0.1455(7) 0.1474(3) 0.3372(2)
C19 C -0.1470(8) 0.4248(3) 0.5516(3)
H19 H -0.1985 0.4408 0.5150
H20 H -0.0646 0.4508 0.5712
H21 H -0.2372 0.4169 0.5764
C20 C -0.0568(8) 0.3730(3) 0.5395(2)
C21 C 0.0342(7) 0.3443(3) 0.5849(2)
C22 C 0.1184(7) 0.2937(3) 0.5790(2)
C23 C 0.2037(7) 0.2629(3) 0.6309(2)
H22 H 0.1305 0.2322 0.6400
H23 H 0.2207 0.2878 0.6642
H24 H 0.3151 0.2488 0.6221
C24 C 0.0398(8) 0.3666(3) 0.6420(3)
C25 C 0.8515(7) 0.2508(2) 0.2356(2)
H25 H 0.9498 0.2717 0.2537
H26 H 0.8851 0.2124 0.2313
H27 H 0.7573 0.2527 0.2600
C26 C 0.7938(6) 0.2744(2) 0.1775(2)
C27 C 0.6961(6) 0.2409(2) 0.1355(2)
C28 C 0.6459(6) 0.2569(2) 0.0782(2)
C29 C 0.5555(7) 0.2172(2) 0.0360(2)
H28 H 0.4581 0.2356 0.0139
H29 H 0.5138 0.1860 0.0571
H30 H 0.6354 0.2041 0.0095
C30 C 0.6501(7) 0.1877(3) 0.1531(2)
C31 C -0.0936(7) 0.3899(3) 0.3003(2)
H31 H -0.0297 0.3829 0.2672
H32 H -0.1176 0.4292 0.3028
H33 H -0.2021 0.3695 0.2954
C32 C 0.0103(7) 0.3716(2) 0.3545(2)
C33 C 0.1530(8) 0.4029(3) 0.3776(2)
C34 C 0.2708(9) 0.3846(3) 0.4243(3)
C35 C 0.4438(12) 0.4132(4) 0.4380(4)
H34 H 0.4881 0.4063 0.4784
H35 H 0.4294 0.4528 0.4318
H36 H 0.5251 0.3989 0.4125
C36 C 0.1898(8) 0.4517(3) 0.3480(2)
Ag1A Ag 0.71907(6) 0.069687(18) 0.219577(18)
Ag1A_2 Ag -0.28093(6) 0.069687(18) 0.219577(18)
N2A N 0.1952(6) 0.6134(2) 0.1946(2)
N3A N 0.3874(6) 0.6444(2) 0.3343(2)
B1 B 0.4204(11) 0.3105(4) 0.2811(4)
F1 F 0.2482(4) 0.30867(19) 0.27887(19)
F2 F 0.4671(6) 0.3668(2) 0.2999(2)
F3 F 0.5037(6) 0.2786(3) 0.3205(2)
F4 F 0.4750(6) 0.3081(2) 0.2288(2)
C37 C 0.3582(17) 0.4503(5) 0.5898(6)
H37 H 0.4795 0.4588 0.6012
H38 H 0.3380 0.4470 0.5476
H39 H 0.3288 0.4156 0.6076
O13 O 0.2643(11) 0.4890(4) 0.6068(4)
H40 H 0.1685 0.4889 0.5866
loop_
_geom_bond_atom_site_label_1
_geom_bond_atom_site_label_2
_geom_bond_site_symmetry_1
_geom_bond_site_symmetry_2
Cr1 O1 1_555 1_555
Cr2 O5 1_555 1_555
Ag1 N1 1_555 1_555
B1 F1 1_555 1_555
F2 B1 1_555 1_555
F3 B1 1_555 1_555
F4 B1 1_555 1_555
N1 C6 1_555 1_555
N2 C18 1_555 1_555
N3 C30 1_555 1_555
N4 Ag1 1_555 1_555
N5 C12 1_555 1_555
N6 C24 1_555 1_555
O1 C2 1_555 1_555
O2 Cr1 1_555 1_555
O3 Cr1 1_555 1_555
O4 Cr1 1_555 1_555
O5 C14 1_555 1_555
O6 Cr2 1_555 1_555
O7 Cr1 1_555 1_555
O8 Cr2 1_555 1_555
O9 Cr1 1_555 1_555
O10 Cr2 1_555 1_555
O11 Cr2 1_555 1_555
O12 Cr2 1_555 1_555
C1 H1 1_555 1_555
H2 C1 1_555 1_555
H3 C1 1_555 1_555
C2 C1 1_555 1_555
C3 C2 1_555 1_555
C4 O2 1_555 1_555
C5 C4 1_555 1_555
H4 C5 1_555 1_555
H5 C5 1_555 1_555
H6 C5 1_555 1_555
C6 C3 1_555 1_555
C7 H7 1_555 1_555
H8 C7 1_555 1_555
H9 C7 1_555 1_555
C8 O3 1_555 1_555
C9 C8 1_555 1_555
C10 O4 1_555 1_555
C11 C10 1_555 1_555
H10 C11 1_555 1_555
H11 C11 1_555 1_555
H12 C11 1_555 1_555
C12 C9 1_555 1_555
C13 H13 1_555 1_555
H14 C13 1_555 1_555
H15 C13 1_555 1_555
C14 C13 1_555 1_555
C15 C14 1_555 1_555
C16 O6 1_555 1_555
C17 C16 1_555 1_555
H16 C17 1_555 1_555
H17 C17 1_555 1_555
H18 C17 1_555 1_555
C18 C15 1_555 1_555
C19 H19 1_555 1_555
H20 C19 1_555 1_555
H21 C19 1_555 1_555
C20 O10 1_555 1_555
C21 C20 1_555 1_555
C22 O8 1_555 1_555
C23 C22 1_555 1_555
H22 C23 1_555 1_555
H23 C23 1_555 1_555
H24 C23 1_555 1_555
C24 C21 1_555 1_555
C25 H25 1_555 1_555
H26 C25 1_555 1_555
H27 C25 1_555 1_555
C26 O9 1_555 1_555
C27 C26 1_555 1_555
C28 O7 1_555 1_555
C29 C28 1_555 1_555
H28 C29 1_555 1_555
H29 C29 1_555 1_555
H30 C29 1_555 1_555
C30 C27 1_555 1_555
C31 H31 1_555 1_555
H32 C31 1_555 1_555
H33 C31 1_555 1_555
C32 O11 1_555 1_555
C33 C32 1_555 1_555
C34 O12 1_555 1_555
C35 C34 1_555 1_555
H34 C35 1_555 1_555
H35 C35 1_555 1_555
H36 C35 1_555 1_555
C36 N4 1_555 1_555
C37 H37 1_555 1_555
H38 C37 1_555 1_555
H39 C37 1_555 1_555
O13 C37 1_555 1_555
H40 O13 1_555 1_555
Ag1A N3 1_555 1_555
Ag1A_2 N2 1_555 1_555
N2A Ag1 1_555 1_555
N3A Ag1 1_555 1_555
C3 C4 1_555 1_555
C7 C8 1_555 1_555
C9 C10 1_555 1_555
C15 C16 1_555 1_555
C19 C20 1_555 1_555
C21 C22 1_555 1_555
C25 C26 1_555 1_555
C27 C28 1_555 1_555
C31 C32 1_555 1_555
C33 C34 1_555 1_555
C33 C36 1_555 1_555

#END
