
#######################################################################
#
#                 Cambridge Crystallographic Data Centre
#                                CCDC 
#
#######################################################################
#
# If this CIF has been generated from an entry in the Cambridge 
# Structural Database, then it will include bibliographic, chemical, 
# crystal, experimental, refinement or atomic coordinate data resulting 
# from the CCDC's data processing and validation procedures.
#
#######################################################################

data_XOMJEP
_symmetry_cell_setting           monoclinic
_symmetry_space_group_name_H-M   'C 2/c'
_symmetry_Int_Tables_number      15
_space_group_name_Hall           '-C 2yn'
loop_
_symmetry_equiv_pos_site_id
_symmetry_equiv_pos_as_xyz
1 x,y,z
2 -x,y,1/2-z
3 1/2+x,1/2+y,z
4 1/2-x,1/2+y,1/2-z
5 -x,-y,-z
6 x,-y,1/2+z
7 1/2-x,1/2-y,-z
8 1/2+x,1/2-y,1/2+z
_cell_length_a                   10.099(2)
_cell_length_b                   15.087(2)
_cell_length_c                   18.507(3)
_cell_angle_alpha                90
_cell_angle_beta                 104.340(10)
_cell_angle_gamma                90
_cell_volume                     2731.94
loop_
_atom_site_label
_atom_site_type_symbol
_atom_site_fract_x
_atom_site_fract_y
_atom_site_fract_z
Co1 Co 0.5000 0.0000 0.5000
Co2 Co 0.79579(6) -0.02139(4) 0.61253(3)
O1 O 0.3433(4) 0.1933(3) 0.3311(2)
O2 O 0.3937(3) 0.08886(19) 0.41589(16)
C1 C 0.4201(5) 0.1609(3) 0.3868(3)
C2 C 0.5535(5) 0.2061(3) 0.4206(3)
H1 H 0.5864 0.1876 0.4721
H2 H 0.5396 0.2697 0.4199
C3 C 0.6599(6) 0.1837(4) 0.3780(3)
H3 H 0.7404 0.2199 0.3970
H4 H 0.6238 0.1986 0.3259
C4 C 0.7015(6) 0.0861(4) 0.3841(3)
H5 H 0.6207 0.0492 0.3686
H6 H 0.7606 0.0741 0.3511
C5 C 0.7748(5) 0.0639(3) 0.4626(3)
O3 O 0.8960(4) 0.0844(3) 0.4856(2)
O4 O 0.7068(3) 0.0266(2) 0.50429(16)
O5 O 0.8538(4) -0.0776(2) 0.72123(19)
H7 H 0.7986 -0.1208 0.7148
H8 H 0.9233 -0.1035 0.7447
O6 O 0.9860(4) 0.0402(3) 0.6318(3)
H9 H 0.9848 0.0652 0.5895
H10 H 1.0155 0.0663 0.6642
O7 O 0.8901(3) -0.1262(2) 0.57283(19)
H11 H 0.9667 -0.1149 0.5580
H12 H 0.8417 -0.1448 0.5357
O8 O 0.5044(3) 0.0939(2) 0.58137(17)
O9 O 0.7116(4) 0.0818(2) 0.65837(19)
C6 C 0.5940(5) 0.1143(3) 0.6401(3)
C7 C 0.5526(6) 0.1767(3) 0.6938(3)
H13 H 0.4815 0.2164 0.6673
H14 H 0.6303 0.2120 0.7194
C8 C 0.5000 0.1215(4) 0.7500
H15 H 0.4187 0.0874 0.7274
Co1A Co 0.5000 0.0000 1.0000
Co2A Co 0.20421(6) -0.02139(4) 0.88747(3)
Co2D Co 0.20421(6) 0.02139(4) 0.38747(3)
Co2E Co 0.79579(6) 0.02139(4) 1.11253(3)
O1A O 0.6567(4) 0.1933(3) 1.1689(2)
O2A O 0.6063(3) 0.08886(19) 1.08411(16)
O2D O 0.6063(3) -0.08886(19) 0.58411(16)
O2E O 0.3937(3) -0.08886(19) 0.91589(16)
C1A C 0.5799(5) 0.1609(3) 1.1132(3)
C2A C 0.4465(5) 0.2061(3) 1.0794(3)
H1A H 0.4136 0.1876 1.0279
H2A H 0.4604 0.2697 1.0801
C3A C 0.3401(6) 0.1837(4) 1.1220(3)
H3A H 0.2596 0.2199 1.1030
H4A H 0.3762 0.1986 1.1741
C4A C 0.2985(6) 0.0861(4) 1.1159(3)
H5A H 0.3793 0.0492 1.1314
H6A H 0.2394 0.0741 1.1489
C5A C 0.2252(5) 0.0639(3) 1.0374(3)
O3A O 0.1040(4) 0.0844(3) 1.0144(2)
O4A O 0.2932(3) 0.0266(2) 0.99571(16)
O4D O 0.2932(3) -0.0266(2) 0.49571(16)
O5A O 0.1462(4) -0.0776(2) 0.77877(19)
H7A H 0.2014 -0.1208 0.7852
H8A H 0.0767 -0.1035 0.7553
O6A O 0.0140(4) 0.0402(3) 0.8682(3)
H9A H 0.0152 0.0652 0.9105
H10A H -0.0155 0.0663 0.8358
O7A O 0.1099(3) -0.1262(2) 0.92717(19)
H11A H 0.0333 -0.1149 0.9420
H12A H 0.1583 -0.1448 0.9643
O8A O 0.4956(3) 0.0939(2) 0.91863(17)
O8D O 0.4956(3) -0.0939(2) 0.41863(17)
O9A O 0.2884(4) 0.0818(2) 0.84163(19)
C6A C 0.4060(5) 0.1143(3) 0.8599(3)
C7A C 0.4474(6) 0.1767(3) 0.8062(3)
H13A H 0.5185 0.2164 0.8327
H14A H 0.3697 0.2120 0.7806
H15A H 0.5813 0.0874 0.7726
O10 O 0.0859(8) 0.1550(5) 0.7353(4)
O11 O 0.7356(14) -0.1831(8) 0.4397(9)
O12? O 0.177(3) 0.1344(15) 0.6969(12)
O13? O 0.773(2) -0.1388(13) 0.4200(15)
loop_
_geom_bond_atom_site_label_1
_geom_bond_atom_site_label_2
_geom_bond_site_symmetry_1
_geom_bond_site_symmetry_2
Co1 O2 1_555 1_555
Co2 O4 1_555 1_555
O1 C1 1_555 1_555
O2 C1 1_555 1_555
C1 C2 1_555 1_555
C2 H1 1_555 1_555
H2 C2 1_555 1_555
C3 C2 1_555 1_555
H3 C3 1_555 1_555
H4 C3 1_555 1_555
C4 C3 1_555 1_555
H5 C4 1_555 1_555
H6 C4 1_555 1_555
C5 C4 1_555 1_555
O3 C5 1_555 1_555
O4 Co1 1_555 1_555
O5 Co2 1_555 1_555
H7 O5 1_555 1_555
H8 O5 1_555 1_555
O6 Co2 1_555 1_555
H9 O6 1_555 1_555
H10 O6 1_555 1_555
O7 Co2 1_555 1_555
H11 O7 1_555 1_555
H12 O7 1_555 1_555
O8 Co1 1_555 1_555
O9 Co2 1_555 1_555
C6 O8 1_555 1_555
C7 C6 1_555 1_555
H13 C7 1_555 1_555
H14 C7 1_555 1_555
C8 C7 1_555 1_555
H15 C8 1_555 1_555
Co1A O2A 1_555 1_555
Co2A O2E 1_555 1_555
Co2D O2 1_555 1_555
Co2E O2A 1_555 1_555
O1A C1A 1_555 1_555
O2A C1A 1_555 1_555
O2D Co1 1_555 1_555
O2E Co1A 1_555 1_555
C1A C2A 1_555 1_555
C2A H1A 1_555 1_555
H2A C2A 1_555 1_555
C3A C2A 1_555 1_555
H3A C3A 1_555 1_555
H4A C3A 1_555 1_555
C4A C3A 1_555 1_555
H5A C4A 1_555 1_555
H6A C4A 1_555 1_555
C5A C4A 1_555 1_555
O3A C5A 1_555 1_555
O4A Co1A 1_555 1_555
O4D Co1 1_555 1_555
O5A Co2A 1_555 1_555
H7A O5A 1_555 1_555
H8A O5A 1_555 1_555
O6A Co2A 1_555 1_555
H9A O6A 1_555 1_555
H10A O6A 1_555 1_555
O7A Co2A 1_555 1_555
H11A O7A 1_555 1_555
H12A O7A 1_555 1_555
O8A Co1A 1_555 1_555
O8D Co1 1_555 1_555
O9A Co2A 1_555 1_555
C6A O8A 1_555 1_555
C7A C8 1_555 1_555
H13A C7A 1_555 1_555
H14A C7A 1_555 1_555
H15A C8 1_555 1_555
Co2 O2D 1_555 1_555
C5 O4 1_555 1_555
O9 C6 1_555 1_555
Co2A O4A 1_555 1_555
Co2D O4D 1_555 1_555
C5A O4A 1_555 1_555
O9A C6A 1_555 1_555
C6A C7A 1_555 1_555

#END
