
#######################################################################
#
#                 Cambridge Crystallographic Data Centre
#                                CCDC 
#
#######################################################################
#
# If this CIF has been generated from an entry in the Cambridge 
# Structural Database, then it will include bibliographic, chemical, 
# crystal, experimental, refinement or atomic coordinate data resulting 
# from the CCDC's data processing and validation procedures.
#
#######################################################################

data_XOMMUJ
_symmetry_cell_setting           monoclinic
_symmetry_space_group_name_H-M   'P 21/n'
_symmetry_Int_Tables_number      14
_space_group_name_Hall           '-P 2yn'
loop_
_symmetry_equiv_pos_site_id
_symmetry_equiv_pos_as_xyz
1 x,y,z
2 1/2-x,1/2+y,1/2-z
3 -x,-y,-z
4 1/2+x,1/2-y,1/2+z
_cell_length_a                   9.5048(8)
_cell_length_b                   26.132(2)
_cell_length_c                   16.8487(14)
_cell_angle_alpha                90
_cell_angle_beta                 99.253(2)
_cell_angle_gamma                90
_cell_volume                     4130.42
loop_
_atom_site_label
_atom_site_type_symbol
_atom_site_fract_x
_atom_site_fract_y
_atom_site_fract_z
C1 C 0.6352(4) 0.03795(13) 1.0923(2)
C2 C 0.6797(4) 0.07599(12) 1.1567(2)
C3 C 0.6870(4) 0.12838(12) 1.1384(2)
H1 H 0.6651 0.1396 1.0855
C4 C 0.7269(4) 0.16319(12) 1.20000(19)
C5 C 0.7550(4) 0.14627(12) 1.2799(2)
C6 C 0.7494(4) 0.09500(13) 1.2987(2)
H2 H 0.7698 0.0841 1.3518
C7 C 0.7127(4) 0.05984(13) 1.2368(2)
H3 H 0.7101 0.0251 1.2488
C8 C 0.7486(4) 0.22047(12) 1.19410(19)
C9 C 0.7810(4) 0.23520(12) 1.28296(19)
C10 C 0.7848(4) 0.19153(12) 1.33222(19)
C11 C 0.8127(4) 0.19555(13) 1.4155(2)
H4 H 0.8162 0.1666 1.4480
C12 C 0.8351(4) 0.24392(13) 1.4487(2)
H5 H 0.8544 0.2473 1.5043
C13 C 0.8294(4) 0.28788(13) 1.4009(2)
C14 C 0.8041(4) 0.28309(13) 1.3170(2)
H6 H 0.8029 0.3119 1.2845
C15 C 0.8515(4) 0.33911(14) 1.4407(2)
C16 C 0.8775(4) 0.23181(16) 1.1523(2)
H7 H 0.8899 0.2682 1.1489
H8 H 0.8616 0.2174 1.0992
H9 H 0.9616 0.2169 1.1828
C17 C 0.6163(4) 0.24815(14) 1.1504(2)
H10 H 0.6356 0.2842 1.1484
H11 H 0.5378 0.2426 1.1787
H12 H 0.5929 0.2351 1.0967
C18 C -0.5780(5) 0.04957(17) 1.4030(3)
C19 C -0.6112(5) 0.09703(16) 1.3551(2)
C20 C -0.6152(5) 0.09426(18) 1.2717(2)
H13 H -0.5948 0.0635 1.2482
C21 C -0.6492(4) 0.13708(17) 1.2238(2)
H14 H -0.6530 0.1355 1.1684
C22 C -0.6776(4) 0.18244(16) 1.2612(2)
C23 C -0.6669(4) 0.18621(15) 1.3440(2)
C24 C -0.6362(4) 0.14332(15) 1.3917(2)
H15 H -0.6322 0.1453 1.4471
C25 C -0.6981(4) 0.24043(15) 1.3693(2)
C26 C -0.7440(4) 0.26575(16) 1.2877(2)
C27 C -0.7268(4) 0.23175(16) 1.2258(2)
C28 C -0.7611(4) 0.24646(17) 1.1454(2)
H16 H -0.7493 0.2239 1.1044
C29 C -0.8132(4) 0.29561(18) 1.1279(3)
H17 H -0.8344 0.3062 1.0746
C30 C -0.8339(4) 0.32883(17) 1.1888(3)
C31 C -0.7979(4) 0.31372(16) 1.2693(2)
H18 H -0.8106 0.3362 1.3103
C32 C -0.5627(5) 0.26574(18) 1.4141(3)
H19 H -0.5354 0.2493 1.4653
H20 H -0.5808 0.3013 1.4223
H21 H -0.4872 0.2624 1.3829
C33 C -0.8174(5) 0.24139(18) 1.4207(2)
H22 H -0.7848 0.2251 1.4714
H23 H -0.8990 0.2234 1.3932
H24 H -0.8429 0.2762 1.4297
C34 C -0.9026(5) 0.3794(2) 1.1686(3)
C35 C 0.1272(5) 0.0772(2) 1.0614(3)
H25 H 0.0970 0.1069 1.0333
C36 C 0.0626(6) 0.0559(2) 1.1194(4)
H26 H -0.0182 0.0680 1.1380
C37 C 0.2435(5) 0.01074(19) 1.1015(3)
H27 H 0.3107 -0.0154 1.1063
C38 C 0.1093(6) -0.0227(3) 1.2097(3)
H28 H 0.1960 -0.0404 1.2327
H29 H 0.0754 -0.0035 1.2522
C39 C 0.0002(6) -0.0602(2) 1.1752(3)
H30 H 0.0301 -0.0762 1.1287
H31 H -0.0886 -0.0424 1.1570
C40 C -0.0261(6) -0.1022(2) 1.2353(3)
H32 H -0.0874 -0.1280 1.2065
H33 H 0.0644 -0.1184 1.2556
C41 C -0.2288(5) -0.07808(16) 1.3045(3)
H34 H -0.2998 -0.0827 1.2603
C42 C -0.1213(8) -0.0618(3) 1.4234(4)
H35 H -0.1038 -0.0533 1.4777
C43 C -0.0212(7) -0.0740(3) 1.3786(4)
H36 H 0.0768 -0.0747 1.3959
N1 N 0.2421(4) 0.04910(13) 1.0503(2)
N2 N 0.1396(5) 0.01317(18) 1.1453(3)
N3 N -0.0897(4) -0.08526(16) 1.3031(2)
N4 N -0.2532(5) -0.06370(15) 1.3764(2)
O1 O 0.5807(3) 0.05365(9) 1.02248(15)
O2 O 0.6544(3) -0.00859(9) 1.10877(16)
O3 O 0.8395(3) 0.37896(10) 1.39574(16)
O4 O 0.8789(4) 0.34264(11) 1.51528(17)
O5 O -0.5098(5) 0.01555(13) 1.3732(2)
O6 O -0.6232(4) 0.04485(13) 1.46914(18)
O7 O -0.9316(4) 0.40835(14) 1.2218(2)
O8 O -0.9344(4) 0.39034(14) 1.0935(2)
Zn1 Zn -0.44083(7) -0.050206(19) 1.41321(3)
Zn2 Zn 0.37968(5) 0.064113(15) 0.97402(2)
O2B O 0.3456(3) 0.00859(9) 0.89123(16)
O3C O 0.3395(3) 0.12104(10) 0.89574(16)
O4C O 0.3789(4) 0.15736(11) 1.01528(17)
O6B O -0.3768(4) -0.04485(13) 1.53086(18)
O8A O -0.5656(4) -0.10966(14) 1.4065(2)
Zn1A Zn -1.05917(7) 0.449794(19) 1.08679(3)
Zn1B Zn -0.55917(7) 0.050206(19) 1.58679(3)
Zn2B Zn 0.62032(5) -0.064113(15) 1.02598(2)
Zn2C Zn 0.87968(5) 0.435887(15) 1.47402(2)
O9 O 0.263(3) -0.0619(10) 1.4958(18)
loop_
_geom_bond_atom_site_label_1
_geom_bond_atom_site_label_2
_geom_bond_site_symmetry_1
_geom_bond_site_symmetry_2
C1 C2 1_555 1_555
C2 C3 1_555 1_555
C3 H1 1_555 1_555
C4 C3 1_555 1_555
C5 C4 1_555 1_555
C6 C5 1_555 1_555
H2 C6 1_555 1_555
C7 C2 1_555 1_555
H3 C7 1_555 1_555
C8 C4 1_555 1_555
C9 C8 1_555 1_555
C10 C5 1_555 1_555
C11 C10 1_555 1_555
H4 C11 1_555 1_555
C12 C11 1_555 1_555
H5 C12 1_555 1_555
C13 C12 1_555 1_555
C14 C9 1_555 1_555
H6 C14 1_555 1_555
C15 C13 1_555 1_555
C16 C8 1_555 1_555
H7 C16 1_555 1_555
H8 C16 1_555 1_555
H9 C16 1_555 1_555
C17 C8 1_555 1_555
H10 C17 1_555 1_555
H11 C17 1_555 1_555
H12 C17 1_555 1_555
C18 C19 1_555 1_555
C19 C20 1_555 1_555
C20 H13 1_555 1_555
C21 C20 1_555 1_555
H14 C21 1_555 1_555
C22 C21 1_555 1_555
C23 C22 1_555 1_555
C24 C19 1_555 1_555
H15 C24 1_555 1_555
C25 C23 1_555 1_555
C26 C25 1_555 1_555
C27 C22 1_555 1_555
C28 C27 1_555 1_555
H16 C28 1_555 1_555
C29 C28 1_555 1_555
H17 C29 1_555 1_555
C30 C29 1_555 1_555
C31 C26 1_555 1_555
H18 C31 1_555 1_555
C32 C25 1_555 1_555
H19 C32 1_555 1_555
H20 C32 1_555 1_555
H21 C32 1_555 1_555
C33 C25 1_555 1_555
H22 C33 1_555 1_555
H23 C33 1_555 1_555
H24 C33 1_555 1_555
C34 C30 1_555 1_555
C35 H25 1_555 1_555
C36 C35 1_555 1_555
H26 C36 1_555 1_555
C37 H27 1_555 1_555
C38 H28 1_555 1_555
H29 C38 1_555 1_555
C39 C38 1_555 1_555
H30 C39 1_555 1_555
H31 C39 1_555 1_555
C40 C39 1_555 1_555
H32 C40 1_555 1_555
H33 C40 1_555 1_555
C41 H34 1_555 1_555
C42 H35 1_555 1_555
C43 C42 1_555 1_555
H36 C43 1_555 1_555
N1 C35 1_555 1_555
N2 C36 1_555 1_555
N3 C40 1_555 1_555
N4 C41 1_555 1_555
O1 C1 1_555 1_555
O2 C1 1_555 1_555
O3 C15 1_555 1_555
O4 C15 1_555 1_555
O5 C18 1_555 1_555
O6 C18 1_555 1_555
O7 C34 1_555 1_555
O8 C34 1_555 1_555
Zn1 N4 1_555 1_555
Zn2 N1 1_555 1_555
O2B Zn2 1_555 1_555
O3C Zn2 1_555 1_555
O4C Zn2 1_555 1_555
O6B Zn1 1_555 1_555
O8A Zn1 1_555 1_555
Zn1A O8 1_555 1_555
Zn1B O6 1_555 1_555
Zn2B O2 1_555 1_555
Zn2C O3 1_555 1_555
C6 C7 1_555 1_555
C9 C10 1_555 1_555
C13 C14 1_555 1_555
C23 C24 1_555 1_555
C26 C27 1_555 1_555
C30 C31 1_555 1_555
C37 N1 1_555 1_555
C37 N2 1_555 1_555
C38 N2 1_555 1_555
C41 N3 1_555 1_555
C42 N4 1_555 1_555
C43 N3 1_555 1_555
O1 Zn2 1_555 1_555
O4 Zn2C 1_555 1_555
O5 Zn1 1_555 1_555

#END
