
#######################################################################
#
#                 Cambridge Crystallographic Data Centre
#                                CCDC 
#
#######################################################################
#
# If this CIF has been generated from an entry in the Cambridge 
# Structural Database, then it will include bibliographic, chemical, 
# crystal, experimental, refinement or atomic coordinate data resulting 
# from the CCDC's data processing and validation procedures.
#
#######################################################################

data_XOMSID
_symmetry_cell_setting           orthorhombic
_symmetry_space_group_name_H-M   'P b c n'
_symmetry_Int_Tables_number      60
_space_group_name_Hall           '-P 2n 2ab'
loop_
_symmetry_equiv_pos_site_id
_symmetry_equiv_pos_as_xyz
1 x,y,z
2 1/2-x,1/2-y,1/2+z
3 -x,y,1/2-z
4 1/2+x,1/2-y,-z
5 -x,-y,-z
6 1/2+x,1/2+y,1/2-z
7 x,-y,1/2+z
8 1/2-x,1/2+y,z
_cell_length_a                   32.222(7)
_cell_length_b                   7.8503(16)
_cell_length_c                   28.389(6)
_cell_angle_alpha                90
_cell_angle_beta                 90
_cell_angle_gamma                90
_cell_volume                     7181.06
loop_
_atom_site_label
_atom_site_type_symbol
_atom_site_fract_x
_atom_site_fract_y
_atom_site_fract_z
Cu1 Cu 0.137064(18) 1.21007(8) 0.13619(2)
Cu2 Cu 0.127421(19) 0.83839(9) 0.38573(2)
O1 O 0.17837(11) 1.2076(5) 0.18681(12)
O2 O 0.16111(13) 0.9443(6) 0.20802(15)
O3 O 0.14931(12) 1.1034(5) 0.30627(14)
O4 O 0.17078(11) 0.8592(5) 0.33955(12)
O5 O 0.32230(14) 0.9099(7) 0.36340(17)
O6 O 0.36190(13) 0.9882(6) 0.3053(2)
O7 O 0.06305(13) 1.0220(6) 0.60007(16)
O8 O 0.09834(10) 0.7861(5) 0.58260(12)
O9 O 0.09742(12) 0.9844(6) 0.48771(13)
O10 O 0.08369(10) 0.7932(5) 0.43130(13)
O11 O -0.05775(16) 0.5992(7) 0.42397(19)
O12 O -0.09943(15) 0.6202(8) 0.4851(2)
O13 O 0.14626(13) 1.0936(6) 0.41706(15)
H1 H 0.1322 1.1120 0.4419
H2 H 0.1287 1.1664 0.4073
O14 O 0.14948(14) 1.4856(5) 0.10968(16)
H3 H 0.1671 1.4798 0.1319
H4 H 0.1382 1.5562 0.1284
N1 N 0.32757(16) 0.9648(7) 0.3229(2)
N2 N -0.06484(18) 0.6364(7) 0.4655(2)
N3 N 0.17971(12) 1.1008(5) 0.09268(15)
N4 N 0.32895(13) 0.7833(6) -0.06961(15)
N5 N 0.09029(13) 1.2822(6) 0.18081(15)
N6 N 0.08070(13) 0.8419(6) 0.33525(15)
C1 C 0.22059(16) 1.0601(7) 0.24173(18)
C2 C 0.21681(16) 1.0049(7) 0.28866(19)
C3 C 0.25243(17) 0.9736(7) 0.31435(19)
H5 H 0.2504 0.9351 0.3452
C4 C 0.29054(16) 0.9989(7) 0.2946(2)
C5 C 0.29528(18) 1.0563(8) 0.2492(2)
H6 H 0.3215 1.0737 0.2362
C6 C 0.25982(17) 1.0871(9) 0.2236(2)
H7 H 0.2623 1.1277 0.1930
C7 C 0.18345(16) 1.0699(8) 0.21023(18)
C8 C 0.17527(16) 0.9917(7) 0.31288(18)
C9 C 0.03435(15) 0.8282(6) 0.54526(19)
C10 C 0.03856(15) 0.8067(7) 0.49669(18)
C11 C 0.00581(16) 0.7394(7) 0.4710(2)
H8 H 0.0085 0.7228 0.4387
C12 C -0.03035(16) 0.6975(7) 0.4931(2)
C13 C -0.03547(17) 0.7190(8) 0.5413(2)
H9 H -0.0604 0.6910 0.5560
C14 C -0.00310(17) 0.7820(8) 0.5665(2)
H10 H -0.0060 0.7948 0.5989
C15 C 0.06825(17) 0.8878(8) 0.57789(19)
C16 C 0.07708(15) 0.8674(8) 0.47078(19)
C17 C 0.16916(16) 0.9982(7) 0.05738(19)
H11 H 0.1415 0.9654 0.0546
C18 C 0.19701(16) 0.9387(8) 0.0249(2)
H12 H 0.1878 0.8700 0.0004
C19 C 0.23866(15) 0.9789(7) 0.02809(17)
C20 C 0.25003(16) 1.0800(7) 0.06592(18)
H13 H 0.2778 1.1076 0.0708
C21 C 0.22028(16) 1.1393(7) 0.09614(18)
H14 H 0.2286 1.2104 0.1206
C22 C 0.28855(17) 0.7719(9) -0.0772(2)
H15 H 0.2800 0.7181 -0.1047
C23 C 0.25842(17) 0.8332(9) -0.0479(2)
H16 H 0.2306 0.8200 -0.0556
C24 C 0.26951(15) 0.9149(7) -0.00649(18)
C25 C 0.31143(17) 0.9299(9) 0.0008(2)
H17 H 0.3210 0.9850 0.0277
C26 C 0.33963(17) 0.8653(9) -0.0308(2)
H18 H 0.3677 0.8800 -0.0245
C27 C 0.05657(17) 1.3624(8) 0.16408(19)
H19 H 0.0573 1.4039 0.1334
C28 C 0.02113(16) 1.3860(7) 0.1900(2)
H20 H -0.0016 1.4405 0.1767
C29 C 0.01930(16) 1.3289(7) 0.23586(19)
C30 C 0.05532(17) 1.2604(8) 0.2541(2)
H21 H 0.0564 1.2285 0.2856
C31 C 0.08957(18) 1.2389(8) 0.22603(19)
H22 H 0.1134 1.1920 0.2393
C32 C 0.08810(16) 0.8016(7) 0.29019(18)
H23 H 0.1152 0.7766 0.2813
C33 C 0.05747(15) 0.7952(7) 0.25636(19)
H24 H 0.0641 0.7643 0.2256
C34 C 0.01682(15) 0.8344(7) 0.26790(18)
C35 C 0.00906(16) 0.8806(7) 0.31456(18)
H25 H -0.0176 0.9102 0.3240
C36 C 0.04115(16) 0.8818(8) 0.34635(19)
H26 H 0.0353 0.9119 0.3773
N5B N -0.09029(13) 1.2822(6) 0.31919(15)
C27B C -0.05657(17) 1.3624(8) 0.33592(19)
H19B H -0.0573 1.4039 0.3666
C28B C -0.02113(16) 1.3860(7) 0.3100(2)
H20B H 0.0016 1.4405 0.3233
C29B C -0.01930(16) 1.3289(7) 0.26414(19)
C30B C -0.05532(17) 1.2604(8) 0.2459(2)
H21B H -0.0564 1.2285 0.2144
C31B C -0.08957(18) 1.2389(8) 0.27397(19)
H22B H -0.1134 1.1920 0.2607
N6B N -0.08070(13) 0.8419(6) 0.16475(15)
C32B C -0.08810(16) 0.8016(7) 0.20981(18)
H23B H -0.1152 0.7766 0.2187
C33B C -0.05747(15) 0.7952(7) 0.24364(19)
H24B H -0.0641 0.7643 0.2744
C34B C -0.01682(15) 0.8344(7) 0.23210(18)
C35B C -0.00906(16) 0.8806(7) 0.18544(18)
H25B H 0.0176 0.9102 0.1760
C36B C -0.04115(16) 0.8818(8) 0.15365(19)
H26B H -0.0353 0.9119 0.1227
Cu1B Cu -0.137064(18) 1.21007(8) 0.36381(2)
Cu2B Cu -0.127421(19) 0.83839(9) 0.11427(2)
O1B O -0.17837(11) 1.2076(5) 0.31319(12)
O2B O -0.16111(13) 0.9443(6) 0.29198(15)
O3B O -0.14931(12) 1.1034(5) 0.19373(14)
O4B O -0.17078(11) 0.8592(5) 0.16045(12)
O5B O -0.32230(14) 0.9099(7) 0.13660(17)
O6B O -0.36190(13) 0.9882(6) 0.1947(2)
O7B O -0.06305(13) 1.0220(6) -0.10007(16)
O8B O -0.09834(10) 0.7861(5) -0.08260(12)
O9B O -0.09742(12) 0.9844(6) 0.01229(13)
O10B O -0.08369(10) 0.7932(5) 0.06870(13)
O11B O 0.05775(16) 0.5992(7) 0.07603(19)
O12B O 0.09943(15) 0.6202(8) 0.0149(2)
O13B O -0.14626(13) 1.0936(6) 0.08294(15)
H1B H -0.1322 1.1120 0.0581
H2B H -0.1287 1.1664 0.0927
O14B O -0.14948(14) 1.4856(5) 0.39032(16)
H3B H -0.1671 1.4798 0.3681
H4B H -0.1382 1.5562 0.3716
N1B N -0.32757(16) 0.9648(7) 0.1771(2)
N2B N 0.06484(18) 0.6364(7) 0.0345(2)
N3B N -0.17971(12) 1.1008(5) 0.40732(15)
N4B N -0.32895(13) 0.7833(6) 0.56961(15)
C1B C -0.22059(16) 1.0601(7) 0.25827(18)
C2B C -0.21681(16) 1.0049(7) 0.21134(19)
C3B C -0.25243(17) 0.9736(7) 0.18565(19)
H5B H -0.2504 0.9351 0.1548
C4B C -0.29054(16) 0.9989(7) 0.2054(2)
C5B C -0.29528(18) 1.0563(8) 0.2508(2)
H6B H -0.3215 1.0737 0.2638
C6B C -0.25982(17) 1.0871(9) 0.2764(2)
H7B H -0.2623 1.1277 0.3070
C7B C -0.18345(16) 1.0699(8) 0.28977(18)
C8B C -0.17527(16) 0.9917(7) 0.18712(18)
C9B C -0.03435(15) 0.8282(6) -0.04526(19)
C10B C -0.03856(15) 0.8067(7) 0.00331(18)
C11B C -0.00581(16) 0.7394(7) 0.0290(2)
H8B H -0.0085 0.7228 0.0613
C12B C 0.03035(16) 0.6975(7) 0.0069(2)
C13B C 0.03547(17) 0.7190(8) -0.0413(2)
H9B H 0.0604 0.6910 -0.0560
C14B C 0.00310(17) 0.7820(8) -0.0665(2)
H10B H 0.0060 0.7948 -0.0989
C15B C -0.06825(17) 0.8878(8) -0.07789(19)
C16B C -0.07708(15) 0.8674(8) 0.02922(19)
C17B C -0.16916(16) 0.9982(7) 0.44262(19)
H11B H -0.1415 0.9654 0.4454
C18B C -0.19701(16) 0.9387(8) 0.4751(2)
H12B H -0.1878 0.8700 0.4996
C19B C -0.23866(15) 0.9789(7) 0.47191(17)
C20B C -0.25003(16) 1.0800(7) 0.43408(18)
H13B H -0.2778 1.1076 0.4292
C21B C -0.22028(16) 1.1393(7) 0.40386(18)
H14B H -0.2286 1.2104 0.3794
C22B C -0.28855(17) 0.7719(9) 0.5772(2)
H15B H -0.2800 0.7181 0.6047
C23B C -0.25842(17) 0.8332(9) 0.5479(2)
H16B H -0.2306 0.8200 0.5556
C24B C -0.26951(15) 0.9149(7) 0.50649(18)
C25B C -0.31143(17) 0.9299(9) 0.4992(2)
H17B H -0.3210 0.9850 0.4723
C26B C -0.33963(17) 0.8653(9) 0.5308(2)
H18B H -0.3677 0.8800 0.5245
Cu1D Cu -0.137064(18) 0.78993(8) -0.13619(2)
Cu1F Cu 0.137064(18) 0.78993(8) 0.63619(2)
Cu2A Cu 0.372579(19) 0.66161(9) -0.11427(2)
Cu2C Cu -0.372579(19) 0.66161(9) 0.61427(2)
O8D O -0.09834(10) 1.2139(5) 0.41740(12)
O8F O 0.09834(10) 1.2139(5) 0.08260(12)
N4A N 0.17105(13) 0.7167(6) 0.43039(15)
N4C N -0.17105(13) 0.7167(6) 0.06961(15)
O15 O 0.4172(4) 0.825(3) 0.3664(4)
H27 H 0.4289 0.9211 0.3688
H28 H 0.3922 0.8564 0.3624
O16 O 0.11138(15) 0.7476(6) 0.15368(17)
H29 H 0.1258 0.8110 0.1716
H30 H 0.0959 0.8038 0.1351
loop_
_geom_bond_atom_site_label_1
_geom_bond_atom_site_label_2
_geom_bond_site_symmetry_1
_geom_bond_site_symmetry_2
Cu1 O1 1_555 1_555
Cu2 O4 1_555 1_555
O1 C7 1_555 1_555
O2 C7 1_555 1_555
O3 C8 1_555 1_555
O4 C8 1_555 1_555
O5 N1 1_555 1_555
O6 N1 1_555 1_555
O7 C15 1_555 1_555
O8 C15 1_555 1_555
O9 C16 1_555 1_555
O10 Cu2 1_555 1_555
O11 N2 1_555 1_555
O12 N2 1_555 1_555
O13 Cu2 1_555 1_555
H1 O13 1_555 1_555
H2 O13 1_555 1_555
O14 Cu1 1_555 1_555
H3 O14 1_555 1_555
H4 O14 1_555 1_555
N1 C4 1_555 1_555
N2 C12 1_555 1_555
N3 Cu1 1_555 1_555
N4 C22 1_555 1_555
N5 Cu1 1_555 1_555
N6 Cu2 1_555 1_555
C1 C2 1_555 1_555
C2 C3 1_555 1_555
C3 H5 1_555 1_555
C4 C3 1_555 1_555
C5 C4 1_555 1_555
H6 C5 1_555 1_555
C6 C1 1_555 1_555
H7 C6 1_555 1_555
C7 C1 1_555 1_555
C8 C2 1_555 1_555
C9 C10 1_555 1_555
C10 C11 1_555 1_555
C11 H8 1_555 1_555
C12 C11 1_555 1_555
C13 C12 1_555 1_555
H9 C13 1_555 1_555
C14 C9 1_555 1_555
H10 C14 1_555 1_555
C15 C9 1_555 1_555
C16 O10 1_555 1_555
C17 N3 1_555 1_555
H11 C17 1_555 1_555
C18 C17 1_555 1_555
H12 C18 1_555 1_555
C19 C18 1_555 1_555
C20 C19 1_555 1_555
H13 C20 1_555 1_555
C21 N3 1_555 1_555
H14 C21 1_555 1_555
C22 H15 1_555 1_555
C23 C22 1_555 1_555
H16 C23 1_555 1_555
C24 C19 1_555 1_555
C25 C24 1_555 1_555
H17 C25 1_555 1_555
C26 N4 1_555 1_555
H18 C26 1_555 1_555
C27 N5 1_555 1_555
H19 C27 1_555 1_555
C28 C27 1_555 1_555
H20 C28 1_555 1_555
C29 C28 1_555 1_555
C30 C29 1_555 1_555
H21 C30 1_555 1_555
C31 N5 1_555 1_555
H22 C31 1_555 1_555
C32 N6 1_555 1_555
H23 C32 1_555 1_555
C33 C32 1_555 1_555
H24 C33 1_555 1_555
C34 C33 1_555 1_555
C35 C34 1_555 1_555
H25 C35 1_555 1_555
C36 N6 1_555 1_555
H26 C36 1_555 1_555
O15 H27 1_555 1_555
H28 O15 1_555 1_555
O16 H29 1_555 1_555
H30 O16 1_555 1_555
N5B C27B 1_555 1_555
C27B H19B 1_555 1_555
C28B C27B 1_555 1_555
H20B C28B 1_555 1_555
C29B C29 1_555 1_555
C30B C29B 1_555 1_555
H21B C30B 1_555 1_555
C31B N5B 1_555 1_555
H22B C31B 1_555 1_555
N6B C32B 1_555 1_555
C32B H23B 1_555 1_555
C33B C32B 1_555 1_555
H24B C33B 1_555 1_555
C34B C34 1_555 1_555
C35B C34B 1_555 1_555
H25B C35B 1_555 1_555
C36B N6B 1_555 1_555
H26B C36B 1_555 1_555
Cu1B N5B 1_555 1_555
Cu2B N6B 1_555 1_555
O1B Cu1B 1_555 1_555
O2B C7B 1_555 1_555
O3B C8B 1_555 1_555
O4B Cu2B 1_555 1_555
O5B N1B 1_555 1_555
O6B N1B 1_555 1_555
O7B C15B 1_555 1_555
O8B C15B 1_555 1_555
O9B C16B 1_555 1_555
O10B Cu2B 1_555 1_555
O11B N2B 1_555 1_555
O12B N2B 1_555 1_555
O13B Cu2B 1_555 1_555
H1B O13B 1_555 1_555
H2B O13B 1_555 1_555
O14B Cu1B 1_555 1_555
H3B O14B 1_555 1_555
H4B O14B 1_555 1_555
N1B C4B 1_555 1_555
N2B C12B 1_555 1_555
N3B Cu1B 1_555 1_555
N4B C22B 1_555 1_555
C1B C2B 1_555 1_555
C2B C3B 1_555 1_555
C3B H5B 1_555 1_555
C4B C3B 1_555 1_555
C5B C4B 1_555 1_555
H6B C5B 1_555 1_555
C6B C1B 1_555 1_555
H7B C6B 1_555 1_555
C7B O1B 1_555 1_555
C8B O4B 1_555 1_555
C9B C10B 1_555 1_555
C10B C11B 1_555 1_555
C11B H8B 1_555 1_555
C12B C11B 1_555 1_555
C13B C12B 1_555 1_555
H9B C13B 1_555 1_555
C14B C9B 1_555 1_555
H10B C14B 1_555 1_555
C15B C9B 1_555 1_555
C16B O10B 1_555 1_555
C17B N3B 1_555 1_555
H11B C17B 1_555 1_555
C18B C17B 1_555 1_555
H12B C18B 1_555 1_555
C19B C18B 1_555 1_555
C20B C19B 1_555 1_555
H13B C20B 1_555 1_555
C21B N3B 1_555 1_555
H14B C21B 1_555 1_555
C22B H15B 1_555 1_555
C23B C22B 1_555 1_555
H16B C23B 1_555 1_555
C24B C19B 1_555 1_555
C25B C24B 1_555 1_555
H17B C25B 1_555 1_555
C26B N4B 1_555 1_555
H18B C26B 1_555 1_555
Cu1D O8B 1_555 1_555
Cu1F O8 1_555 1_555
Cu2A N4 1_555 1_555
Cu2C N4B 1_555 1_555
O8D Cu1B 1_555 1_555
O8F Cu1 1_555 1_555
N4A Cu2 1_555 1_555
N4C Cu2B 1_555 1_555
C5 C6 1_555 1_555
C10 C16 1_555 1_555
C13 C14 1_555 1_555
C20 C21 1_555 1_555
C23 C24 1_555 1_555
C25 C26 1_555 1_555
C30 C31 1_555 1_555
C35 C36 1_555 1_555
C28B C29B 1_555 1_555
C30B C31B 1_555 1_555
C33B C34B 1_555 1_555
C35B C36B 1_555 1_555
C1B C7B 1_555 1_555
C2B C8B 1_555 1_555
C5B C6B 1_555 1_555
C10B C16B 1_555 1_555
C13B C14B 1_555 1_555
C20B C21B 1_555 1_555
C23B C24B 1_555 1_555
C25B C26B 1_555 1_555

#END
