
#######################################################################
#
#                 Cambridge Crystallographic Data Centre
#                                CCDC 
#
#######################################################################
#
# If this CIF has been generated from an entry in the Cambridge 
# Structural Database, then it will include bibliographic, chemical, 
# crystal, experimental, refinement or atomic coordinate data resulting 
# from the CCDC's data processing and validation procedures.
#
#######################################################################

data_XOMTAU
_symmetry_cell_setting           triclinic
_symmetry_space_group_name_H-M   'P -1'
_symmetry_Int_Tables_number      2
_space_group_name_Hall           '-P 1'
loop_
_symmetry_equiv_pos_site_id
_symmetry_equiv_pos_as_xyz
1 x,y,z
2 -x,-y,-z
_cell_length_a                   3.7030(10)
_cell_length_b                   7.3740(10)
_cell_length_c                   14.634(3)
_cell_angle_alpha                77.29(3)
_cell_angle_beta                 88.21(3)
_cell_angle_gamma                84.59(3)
_cell_volume                     388.044
loop_
_atom_site_label
_atom_site_type_symbol
_atom_site_fract_x
_atom_site_fract_y
_atom_site_fract_z
Cu1 Cu -0.50000 0.50000 0.50000
Cl1 Cl -0.17863(18) 0.27985(8) -0.00721(4)
O1 O -0.4808(5) 0.33659(19) 0.41336(10)
O2 O -0.1987(5) 0.5340(2) 0.30355(11)
O3 O -1.1053(5) 0.33413(19) 0.56981(10)
O4 O -0.6271(5) 0.0199(2) 0.38424(11)
C1 C -0.3862(6) 0.2623(3) 0.26458(14)
C2 C -0.5155(6) 0.0856(3) 0.29440(15)
C3 C -0.5280(7) -0.0297(3) 0.23106(15)
H1 H -0.6069 -0.1482 0.2512
C4 C -0.4249(6) 0.0300(3) 0.13929(15)
H2 H -0.4354 -0.0473 0.0972
C5 C -0.3051(6) 0.2058(3) 0.10969(15)
C6 C -0.2845(6) 0.3217(3) 0.17107(15)
H3 H -0.2028 0.4393 0.1501
C7 C -0.3495(6) 0.3893(3) 0.32989(14)
H4 H -0.9952 0.3585 0.62
H5 H -1.167 0.2221 0.5808
H6 H -0.6273 0.1024 0.4211
Cl1A Cl -0.82137(18) 0.72015(8) 1.00721(4)
O1A O -0.5192(5) 0.66341(19) 0.58664(10)
O2A O -0.8013(5) 0.4660(2) 0.69645(11)
O4A O -0.3729(5) 0.9801(2) 0.61576(11)
C1A C -0.6138(6) 0.7377(3) 0.73542(14)
C2A C -0.4845(6) 0.9144(3) 0.70560(15)
C3A C -0.4720(7) 1.0297(3) 0.76894(15)
H1A H -0.3931 1.1482 0.7488
C4A C -0.5751(6) 0.9700(3) 0.86071(15)
H2A H -0.5646 1.0473 0.9028
C5A C -0.6949(6) 0.7942(3) 0.89031(15)
C6A C -0.7155(6) 0.6783(3) 0.82893(15)
H3A H -0.7972 0.5607 0.8499
C7A C -0.6505(6) 0.6107(3) 0.67011(14)
H6A H -0.3727 0.8976 0.5789
O3_2 O -0.1053(5) 0.33413(19) 0.56981(10)
H4_2 H 0.0048 0.3585 0.62
H5_2 H -0.167 0.2221 0.5808
O3A O -0.8947(5) 0.66587(19) 0.43019(10)
O3A_2 O 0.1053(5) 0.66587(19) 0.43019(10)
Cu1_2 Cu -1.50000 0.50000 0.50000
Cu1_3 Cu 0.50000 0.50000 0.50000
H4A H -1.0048 0.6415 0.38
H5A H -0.833 0.7779 0.4192
H4A_2 H -0.0048 0.6415 0.38
H5A_2 H 0.167 0.7779 0.4192
loop_
_geom_bond_atom_site_label_1
_geom_bond_atom_site_label_2
_geom_bond_site_symmetry_1
_geom_bond_site_symmetry_2
Cu1 O1 1_555 1_555
Cl1 C5 1_555 1_555
O1 C7 1_555 1_555
O2 C7 1_555 1_555
O3 Cu1 1_555 1_555
O4 C2 1_555 1_555
C1 C2 1_555 1_555
C2 C3 1_555 1_555
C3 H1 1_555 1_555
C4 C3 1_555 1_555
H2 C4 1_555 1_555
C5 C4 1_555 1_555
C6 C1 1_555 1_555
H3 C6 1_555 1_555
C7 C1 1_555 1_555
H4 O3 1_555 1_555
H5 O3 1_555 1_555
H6 O4 1_555 1_555
Cl1A C5A 1_555 1_555
O1A Cu1 1_555 1_555
O2A C7A 1_555 1_555
O4A C2A 1_555 1_555
C1A C2A 1_555 1_555
C2A C3A 1_555 1_555
C3A H1A 1_555 1_555
C4A C3A 1_555 1_555
H2A C4A 1_555 1_555
C5A C4A 1_555 1_555
C6A C1A 1_555 1_555
H3A C6A 1_555 1_555
C7A O1A 1_555 1_555
H6A O4A 1_555 1_555
O3_2 Cu1 1_555 1_555
H4_2 O3_2 1_555 1_555
H5_2 O3_2 1_555 1_555
O3A Cu1 1_555 1_555
O3A_2 Cu1 1_555 1_555
Cu1_2 O3 1_555 1_555
Cu1_3 O3_2 1_555 1_555
H4A O3A 1_555 1_555
H5A O3A 1_555 1_555
H4A_2 O3A_2 1_555 1_555
H5A_2 O3A_2 1_555 1_555
C5 C6 1_555 1_555
C1A C7A 1_555 1_555
C5A C6A 1_555 1_555
O3A Cu1_2 1_555 1_555
O3A_2 Cu1_3 1_555 1_555

#END
