
#######################################################################
#
#                 Cambridge Crystallographic Data Centre
#                                CCDC 
#
#######################################################################
#
# If this CIF has been generated from an entry in the Cambridge 
# Structural Database, then it will include bibliographic, chemical, 
# crystal, experimental, refinement or atomic coordinate data resulting 
# from the CCDC's data processing and validation procedures.
#
#######################################################################

data_XOMXOO
_symmetry_cell_setting           orthorhombic
_symmetry_space_group_name_H-M   'P b c m'
_symmetry_Int_Tables_number      57
_space_group_name_Hall           '-P 2c 2b'
loop_
_symmetry_equiv_pos_site_id
_symmetry_equiv_pos_as_xyz
1 x,y,z
2 -x,-y,1/2+z
3 x,1/2-y,-z
4 -x,1/2+y,1/2-z
5 -x,-y,-z
6 x,y,1/2-z
7 -x,1/2+y,z
8 x,1/2-y,1/2+z
_cell_length_a                   11.6662(4)
_cell_length_b                   11.1416(3)
_cell_length_c                   14.2188(4)
_cell_angle_alpha                90
_cell_angle_beta                 90
_cell_angle_gamma                90
_cell_volume                     1848.16
loop_
_atom_site_label
_atom_site_type_symbol
_atom_site_fract_x
_atom_site_fract_y
_atom_site_fract_z
Cu1 Cu 0.52099(9) 0.11412(9) 0.2500
N1 N 0.3917(4) 0.0968(5) 0.3429(4)
F1 F 0.8665(7) 0.2091(9) 0.1832(6)
O1 O 0.6380(4) 0.1368(4) 0.1555(3)
O2 O 0.5800(4) 0.3151(4) 0.1012(3)
C1 C 0.7559(5) 0.2379(5) 0.0481(4)
C2 C 0.8620(6) 0.2278(7) 0.0928(4)
C3 C 0.9661(5) 0.2394(6) 0.0476(5)
H1 H 1.0345 0.2330 0.0808
C4 C 0.6483(5) 0.2300(6) 0.1050(4)
C5 C 0.3941(6) 0.0987(6) 0.4365(5)
H2 H 0.4624 0.1178 0.4667
C6 C 0.2976(6) 0.0730(6) 0.4909(5)
H3 H 0.3020 0.0767 0.5561
C7 C 0.1972(6) 0.0426(6) 0.4487(5)
H4 H 0.1331 0.0244 0.4848
C8 C 0.1911(6) 0.0389(6) 0.3489(5)
C9 C 0.2904(5) 0.0683(5) 0.3004(5)
C10 C 0.0901(6) 0.0102(6) 0.2969(6)
H5 H 0.0231 -0.0088 0.3290
O3 O 0.5503(6) -0.0990(6) 0.2500
H6 H 0.5049 -0.1216 0.2971
N1E N 0.3917(4) 0.0968(5) 0.1571(4)
C5E C 0.3941(6) 0.0987(6) 0.0635(5)
H2E H 0.4624 0.1178 0.0333
C6E C 0.2976(6) 0.0730(6) 0.0091(5)
H3E H 0.3020 0.0767 -0.0561
C7E C 0.1972(6) 0.0426(6) 0.0513(5)
H4E H 0.1331 0.0244 0.0152
C8E C 0.1911(6) 0.0389(6) 0.1511(5)
C9E C 0.2904(5) 0.0683(5) 0.1996(5)
C10E C 0.0901(6) 0.0102(6) 0.2031(6)
H5E H 0.0231 -0.0088 0.1710
F1B F 0.8665(7) 0.2909(9) -0.1832(6)
O1B O 0.6380(4) 0.3632(4) -0.1555(3)
O2B O 0.5800(4) 0.1849(4) -0.1012(3)
C1B C 0.7559(5) 0.2621(5) -0.0481(4)
C2B C 0.8620(6) 0.2722(7) -0.0928(4)
C3B C 0.9661(5) 0.2606(6) -0.0476(5)
H1B H 1.0345 0.2670 -0.0808
C4B C 0.6483(5) 0.2700(6) -0.1050(4)
H6E H 0.5049 -0.1216 0.2029
Cu1B Cu 0.52099(9) 0.38588(9) -0.2500
O1E O 0.6380(4) 0.1368(4) 0.3445(3)
O4 O 1.2017(8) 0.4275(11) 0.2500
H7 H 1.1700 0.4444 0.3054
H7E H 1.1700 0.4444 0.1946
loop_
_geom_bond_atom_site_label_1
_geom_bond_atom_site_label_2
_geom_bond_site_symmetry_1
_geom_bond_site_symmetry_2
Cu1 N1 1_555 1_555
N1 C5 1_555 1_555
F1 C2 1_555 1_555
O1 Cu1 1_555 1_555
O2 C4 1_555 1_555
C1 C2 1_555 1_555
C2 C3 1_555 1_555
C3 H1 1_555 1_555
C4 O1 1_555 1_555
C5 H2 1_555 1_555
C6 C5 1_555 1_555
H3 C6 1_555 1_555
C7 C6 1_555 1_555
H4 C7 1_555 1_555
C8 C7 1_555 1_555
C9 N1 1_555 1_555
C10 C8 1_555 1_555
H5 C10 1_555 1_555
O3 Cu1 1_555 1_555
H6 O3 1_555 1_555
O4 H7 1_555 1_555
N1E Cu1 1_555 1_555
C5E N1E 1_555 1_555
H2E C5E 1_555 1_555
C6E C5E 1_555 1_555
H3E C6E 1_555 1_555
C7E C6E 1_555 1_555
H4E C7E 1_555 1_555
C8E C7E 1_555 1_555
C9E C9 1_555 1_555
C10E C10 1_555 1_555
H5E C10E 1_555 1_555
F1B C2B 1_555 1_555
O1B C4B 1_555 1_555
O2B C4B 1_555 1_555
C1B C1 1_555 1_555
C2B C1B 1_555 1_555
C3B C3 1_555 1_555
H1B C3B 1_555 1_555
C4B C1B 1_555 1_555
H6E O3 1_555 1_555
Cu1B O1B 1_555 1_555
O1E Cu1 1_555 1_555
H7E O4 1_555 1_555
C1 C4 1_555 1_555
C8 C9 1_555 1_555
N1E C9E 1_555 1_555
C8E C9E 1_555 1_555
C8E C10E 1_555 1_555
C2B C3B 1_555 1_555

#END
