
#######################################################################
#
#                 Cambridge Crystallographic Data Centre
#                                CCDC 
#
#######################################################################
#
# If this CIF has been generated from an entry in the Cambridge 
# Structural Database, then it will include bibliographic, chemical, 
# crystal, experimental, refinement or atomic coordinate data resulting 
# from the CCDC's data processing and validation procedures.
#
#######################################################################

data_XONCUY
_symmetry_cell_setting           triclinic
_symmetry_space_group_name_H-M   'P -1'
_symmetry_Int_Tables_number      2
_space_group_name_Hall           '-P 1'
loop_
_symmetry_equiv_pos_site_id
_symmetry_equiv_pos_as_xyz
1 x,y,z
2 -x,-y,-z
_cell_length_a                   8.0315(4)
_cell_length_b                   11.3713(6)
_cell_length_c                   13.3117(7)
_cell_angle_alpha                97.1220(10)
_cell_angle_beta                 103.1870(10)
_cell_angle_gamma                108.6680(10)
_cell_volume                     1095.53
loop_
_atom_site_label
_atom_site_type_symbol
_atom_site_fract_x
_atom_site_fract_y
_atom_site_fract_z
Cu1 Cu 0.24156(12) 0.23481(8) 0.73944(7)
Cu2 Cu -0.28952(11) -0.06873(7) 0.93588(6)
Cu3 Cu 0.21293(11) 0.44047(7) 0.43173(6)
P1 P 0.0372(2) 0.02968(16) 0.85083(13)
P2 P 0.4237(2) 0.06511(16) 0.86718(13)
P3 P 0.0651(2) 0.41792(16) 0.62422(13)
P4 P 0.4544(2) 0.45464(16) 0.64445(13)
O1 O 0.0370(6) 0.1088(4) 0.7674(4)
O2 O -0.1554(6) -0.0689(4) 0.8312(3)
O3 O 0.1133(6) 0.1089(4) 0.9629(3)
O4 O 0.4167(6) 0.1564(5) 0.7942(4)
O5 O 0.4711(6) 0.1294(4) 0.9842(3)
O6 O 0.5542(7) -0.0013(5) 0.8475(4)
O7 O 0.1887(7) -0.1303(4) 0.9169(4)
H1 H 0.293(11) -0.150(7) 0.934(6)
O8 O 0.0656(7) 0.3121(5) 0.6846(4)
O9 O 0.0209(6) 0.3710(4) 0.5042(3)
O10 O -0.0666(6) 0.4794(5) 0.6514(4)
O11 O 0.4489(6) 0.3645(4) 0.7207(4)
O12 O 0.3777(6) 0.3848(4) 0.5290(3)
O13 O 0.6473(6) 0.5536(4) 0.6693(3)
O14 O 0.3092(7) 0.6236(5) 0.5941(4)
H2 H 0.232(13) 0.630(9) 0.576(7)
C1 C 0.1912(9) -0.0563(6) 0.8355(5)
C2 C 0.1322(11) -0.1406(7) 0.7260(6)
H3 H 0.2167 -0.1834 0.7217
H4 H 0.1312 -0.0894 0.6739
H5 H 0.0115 -0.2024 0.7133
C3 C 0.2982(9) 0.5372(6) 0.6663(5)
C4 C 0.3514(11) 0.6070(7) 0.7809(6)
H6 H 0.4739 0.6684 0.7997
H7 H 0.3459 0.5471 0.8260
H8 H 0.2680 0.6495 0.7891
O3A O -0.1133(6) -0.1089(4) 1.0371(3)
O5A O -0.4711(6) -0.1294(4) 1.0158(3)
O6_2 O -0.4458(7) -0.0013(5) 0.8475(4)
O7A O -0.1887(7) 0.1303(4) 1.0831(4)
O10A O 0.0666(6) 0.5206(5) 0.3486(4)
O13A O 0.3527(6) 0.4464(4) 0.3307(3)
Cu2A Cu 0.28952(11) 0.06873(7) 1.06412(6)
Cu2_2 Cu 0.71048(11) -0.06873(7) 0.93588(6)
Cu3A Cu -0.21293(11) 0.55953(7) 0.56827(6)
Cu3A_2 Cu 0.78707(11) 0.55953(7) 0.56827(6)
H1A H -0.293(11) 0.150(7) 1.066(6)
N1 N -0.651(6) 0.146(3) 0.388(2)
H9 H -0.7490 0.1217 0.3323
H10 H -0.5667 0.2157 0.3831
H11 H -0.6840 0.1611 0.4468
C5 C -0.580(3) 0.0489(17) 0.3931(13)
H12 H -0.5441 0.0326 0.3294
C6 C -0.418(3) 0.081(2) 0.4870(17)
H13 H -0.3666 0.0147 0.4819
H14 H -0.3250 0.1596 0.4851
C7 C -0.457(3) 0.095(3) 0.5868(16)
H15 H -0.5631 0.0224 0.5841
H16 H -0.4911 0.1699 0.5961
N2 N -0.3071(17) 0.1086(12) 0.6807(9)
O15 O 0.3707(9) 0.3754(7) 0.9610(6)
H17 H 0.431(14) 0.321(9) 0.970(9)
H18 H 0.472(9) 0.446(6) 0.984(10)
O16 O 0.1269(9) 0.1215(6) 0.5289(5)
H19 H 0.191(12) 0.124(10) 0.482(6)
H20 H 0.102(14) 0.186(6) 0.504(8)
N3? N -0.2224(18) 0.2941(16) 0.7781(11)
H21? H -0.1989 0.2318 0.7437
H22? H -0.1908 0.3621 0.7499
H23? H -0.3416 0.2688 0.7729
C8? C -0.117(2) 0.3265(15) 0.8893(13)
H24? H 0.0120 0.3492 0.8943
H25? H -0.1537 0.2525 0.9199
C9? C -0.145(2) 0.4340(14) 0.9510(12)
H26? H -0.0912 0.4415 1.0256
H27? H -0.2753 0.4153 0.9392
C10? C -0.058(2) 0.5625(14) 0.9207(13)
H28? H 0.0605 0.5698 0.9113
H29? H -0.1361 0.5657 0.8544
N4? N -0.0374(18) 0.6682(12) 1.0031(11)
H30? H 0.0130 0.7414 0.9850
H31? H 0.0345 0.6655 1.0638
H32? H -0.1469 0.6623 1.0107
H33? H -0.6745 -0.0283 0.3955
H34? H -0.3438 0.1174 0.7385
H35? H -0.2098 0.1767 0.6854
H36? H -0.2773 0.0397 0.6747
O17? O 0.2010(18) 0.6417(12) 1.1824(12)
O18? O 0.8345(19) 0.6501(12) 0.8854(9)
O19? O -0.648(6) 0.172(3) 0.380(3)
loop_
_geom_bond_atom_site_label_1
_geom_bond_atom_site_label_2
_geom_bond_site_symmetry_1
_geom_bond_site_symmetry_2
Cu1 O1 1_555 1_555
Cu2 O2 1_555 1_555
Cu3 O9 1_555 1_555
P1 O1 1_555 1_555
P2 O4 1_555 1_555
P3 O8 1_555 1_555
P4 O11 1_555 1_555
O2 P1 1_555 1_555
O3 P1 1_555 1_555
O4 Cu1 1_555 1_555
O5 P2 1_555 1_555
O6 P2 1_555 1_555
O7 H1 1_555 1_555
O8 Cu1 1_555 1_555
O9 P3 1_555 1_555
O10 P3 1_555 1_555
O11 Cu1 1_555 1_555
O12 Cu3 1_555 1_555
O13 P4 1_555 1_555
O14 Cu3 1_555 1_555
H2 O14 1_555 1_555
C1 P1 1_555 1_555
C2 C1 1_555 1_555
H3 C2 1_555 1_555
H4 C2 1_555 1_555
H5 C2 1_555 1_555
C3 P3 1_555 1_555
C4 C3 1_555 1_555
H6 C4 1_555 1_555
H7 C4 1_555 1_555
H8 C4 1_555 1_555
N1 H9 1_555 1_555
H10 N1 1_555 1_555
H11 N1 1_555 1_555
C5 N1 1_555 1_555
H12 C5 1_555 1_555
C6 C5 1_555 1_555
H13 C6 1_555 1_555
H14 C6 1_555 1_555
C7 C6 1_555 1_555
H15 C7 1_555 1_555
H16 C7 1_555 1_555
N2 C7 1_555 1_555
O15 H17 1_555 1_555
H18 O15 1_555 1_555
O16 H19 1_555 1_555
H20 O16 1_555 1_555
O3A Cu2 1_555 1_555
O5A Cu2 1_555 1_555
O6_2 Cu2 1_555 1_555
O7A Cu2 1_555 1_555
O10A Cu3 1_555 1_555
O13A Cu3 1_555 1_555
Cu2A O3 1_555 1_555
Cu2_2 O6 1_555 1_555
Cu3A O10 1_555 1_555
Cu3A_2 O13 1_555 1_555
H1A O7A 1_555 1_555
P2 C1 1_555 1_555
P4 O12 1_555 1_555
P4 C3 1_555 1_555
O5 Cu2A 1_555 1_555
O7 C1 1_555 1_555
O7 Cu2A 1_555 1_555
O14 C3 1_555 1_555

#END
