
#######################################################################
#
#                 Cambridge Crystallographic Data Centre
#                                CCDC 
#
#######################################################################
#
# If this CIF has been generated from an entry in the Cambridge 
# Structural Database, then it will include bibliographic, chemical, 
# crystal, experimental, refinement or atomic coordinate data resulting 
# from the CCDC's data processing and validation procedures.
#
#######################################################################

data_XONGEO
_symmetry_cell_setting           triclinic
_symmetry_space_group_name_H-M   'P -1'
_symmetry_Int_Tables_number      2
_space_group_name_Hall           '-P 1'
loop_
_symmetry_equiv_pos_site_id
_symmetry_equiv_pos_as_xyz
1 x,y,z
2 -x,-y,-z
_cell_length_a                   7.8698(4)
_cell_length_b                   8.6926(5)
_cell_length_c                   11.8044(7)
_cell_angle_alpha                103.353(5)
_cell_angle_beta                 100.965(4)
_cell_angle_gamma                93.123(4)
_cell_volume                     767.248
loop_
_atom_site_label
_atom_site_type_symbol
_atom_site_fract_x
_atom_site_fract_y
_atom_site_fract_z
Zn1 Zn 0.5000 1.0000 0.5000
S1 S 0.13670(6) 0.80236(5) 0.32144(4)
O1 O 0.32664(16) 0.84491(16) 0.35332(12)
O2 O 0.05409(18) 0.84893(17) 0.42187(13)
O3 O 0.06012(18) 0.85820(17) 0.21756(12)
O4 O 0.36373(19) 0.38323(17) -0.21225(12)
N1 N 0.46362(19) 0.84495(19) -0.39026(14)
N2 N 0.3168(2) 0.5959(2) -0.07160(14)
H1 H 0.3235 0.6977 -0.0479
N3 N 0.2633(2) 0.5006(2) -0.00249(14)
C1 C 0.4764(2) 0.9010(2) -0.27286(16)
H2 H 0.5066 1.0092 -0.2396
C2 C 0.3993(2) 0.6429(2) -0.24692(16)
C3 C 0.4199(2) 0.6878(2) -0.43646(17)
H3 H 0.4117 0.6476 -0.5177
C4 C 0.3868(2) 0.5838(2) -0.36940(16)
H4 H 0.3565 0.4761 -0.4049
C5 C 0.0352(3) 0.3461(2) 0.33152(17)
H5 H -0.0062 0.2944 0.3831
C6 C 0.3583(2) 0.5271(2) -0.17629(16)
C7 C 0.1131(2) 0.5900(2) 0.27922(16)
C8 C 0.1637(2) 0.5017(2) 0.17663(17)
C9 C 0.0484(2) 0.5110(2) 0.35474(17)
H6 H 0.0137 0.5693 0.4215
C10 C 0.4463(2) 0.8033(2) -0.19869(17)
H7 H 0.4577 0.8460 -0.1174
C11 C 0.2314(3) 0.5812(2) 0.09513(17)
H8 H 0.2514 0.6915 0.1146
C12 C 0.1453(3) 0.3357(2) 0.15373(17)
H9 H 0.1746 0.2758 0.0854
C13 C 0.0844(3) 0.2591(2) 0.23054(18)
H10 H 0.0763 0.1488 0.2147
O5 O 0.30981(16) 1.14506(16) 0.56700(12)
H11 H 0.3476 1.1892 0.6404
H12 H 0.2155 1.0871 0.5584
S1A S 0.86330(6) 1.19764(5) -0.32144(4)
O1A O 0.67336(16) 1.15509(16) -0.35332(12)
O2A O 0.94591(18) 1.15107(17) -0.42187(13)
O3A O 0.93988(18) 1.14180(17) -0.21756(12)
O4A O 0.63627(19) 1.61677(17) 0.21225(12)
N1A N 0.53638(19) 1.15505(19) 0.39026(14)
N2A N 0.6832(2) 1.4041(2) 0.07160(14)
H1A H 0.6765 1.3023 0.0479
N3A N 0.7367(2) 1.4994(2) 0.00249(14)
C1A C 0.5236(2) 1.0990(2) 0.27286(16)
H2A H 0.4934 0.9908 0.2396
C2A C 0.6007(2) 1.3571(2) 0.24692(16)
C3A C 0.5801(2) 1.3122(2) 0.43646(17)
H3A H 0.5883 1.3524 0.5177
C4A C 0.6132(2) 1.4162(2) 0.36940(16)
H4A H 0.6435 1.5239 0.4049
C5A C 0.9648(3) 1.6539(2) -0.33152(17)
H5A H 1.0062 1.7056 -0.3831
C6A C 0.6417(2) 1.4729(2) 0.17629(16)
C7A C 0.8869(2) 1.4100(2) -0.27922(16)
C8A C 0.8363(2) 1.4983(2) -0.17663(17)
C9A C 0.9516(2) 1.4890(2) -0.35474(17)
H6A H 0.9863 1.4307 -0.4215
C10A C 0.5537(2) 1.1967(2) 0.19869(17)
H7A H 0.5423 1.1540 0.1174
C11A C 0.7686(3) 1.4188(2) -0.09513(17)
H8A H 0.7486 1.3085 -0.1146
C12A C 0.8547(3) 1.6643(2) -0.15373(17)
H9A H 0.8254 1.7242 -0.0854
C13A C 0.9156(3) 1.7409(2) -0.23054(18)
H10A H 0.9237 1.8512 -0.2147
O5A O 0.69019(16) 0.85494(16) 0.43300(12)
H11A H 0.6524 0.8108 0.3596
H12A H 0.7845 0.9129 0.4416
Zn1_2 Zn 0.5000 1.0000 -0.5000
O1A_2 O 0.67336(16) 1.15509(16) 0.64668(12)
N1_2 N 0.46362(19) 0.84495(19) 0.60974(14)
O6 O 0.2786(2) 1.13302(18) 0.89993(14)
H13 H 0.3197 1.2298 0.9155
H14 H 0.1841 1.1176 0.8482
O7 O 0.2408(2) 0.91163(18) 1.02279(14)
H15 H 0.1783 0.9257 1.0749
H16 H 0.2474 0.9941 0.9962
loop_
_geom_bond_atom_site_label_1
_geom_bond_atom_site_label_2
_geom_bond_site_symmetry_1
_geom_bond_site_symmetry_2
Zn1 O1 1_555 1_555
S1 O1 1_555 1_555
O2 S1 1_555 1_555
O3 S1 1_555 1_555
O4 C6 1_555 1_555
N1 C1 1_555 1_555
N2 H1 1_555 1_555
N3 N2 1_555 1_555
C1 H2 1_555 1_555
C2 C4 1_555 1_555
C3 N1 1_555 1_555
H3 C3 1_555 1_555
C4 C3 1_555 1_555
H4 C4 1_555 1_555
C5 H5 1_555 1_555
C6 N2 1_555 1_555
C7 S1 1_555 1_555
C8 C7 1_555 1_555
C9 C5 1_555 1_555
H6 C9 1_555 1_555
C10 C1 1_555 1_555
H7 C10 1_555 1_555
C11 N3 1_555 1_555
H8 C11 1_555 1_555
C12 C8 1_555 1_555
H9 C12 1_555 1_555
C13 C5 1_555 1_555
H10 C13 1_555 1_555
O5 Zn1 1_555 1_555
H11 O5 1_555 1_555
H12 O5 1_555 1_555
O6 H13 1_555 1_555
H14 O6 1_555 1_555
O7 H15 1_555 1_555
H16 O7 1_555 1_555
S1A O1A 1_555 1_555
O1A Zn1_2 1_555 1_555
O2A S1A 1_555 1_555
O3A S1A 1_555 1_555
O4A C6A 1_555 1_555
N1A Zn1 1_555 1_555
N2A H1A 1_555 1_555
N3A N2A 1_555 1_555
C1A N1A 1_555 1_555
H2A C1A 1_555 1_555
C2A C4A 1_555 1_555
C3A N1A 1_555 1_555
H3A C3A 1_555 1_555
C4A C3A 1_555 1_555
H4A C4A 1_555 1_555
C5A H5A 1_555 1_555
C6A N2A 1_555 1_555
C7A S1A 1_555 1_555
C8A C7A 1_555 1_555
C9A C5A 1_555 1_555
H6A C9A 1_555 1_555
C10A C1A 1_555 1_555
H7A C10A 1_555 1_555
C11A N3A 1_555 1_555
H8A C11A 1_555 1_555
C12A C8A 1_555 1_555
H9A C12A 1_555 1_555
C13A C5A 1_555 1_555
H10A C13A 1_555 1_555
O5A Zn1 1_555 1_555
H11A O5A 1_555 1_555
H12A O5A 1_555 1_555
Zn1_2 N1 1_555 1_555
O1A_2 Zn1 1_555 1_555
N1_2 Zn1 1_555 1_555
C2 C6 1_555 1_555
C2 C10 1_555 1_555
C7 C9 1_555 1_555
C8 C11 1_555 1_555
C12 C13 1_555 1_555
C2A C6A 1_555 1_555
C2A C10A 1_555 1_555
C7A C9A 1_555 1_555
C8A C11A 1_555 1_555
C12A C13A 1_555 1_555

#END
