
#######################################################################
#
#                 Cambridge Crystallographic Data Centre
#                                CCDC 
#
#######################################################################
#
# If this CIF has been generated from an entry in the Cambridge 
# Structural Database, then it will include bibliographic, chemical, 
# crystal, experimental, refinement or atomic coordinate data resulting 
# from the CCDC's data processing and validation procedures.
#
#######################################################################

data_XONHEO
_symmetry_cell_setting           monoclinic
_symmetry_space_group_name_H-M   'C 2/c'
_symmetry_Int_Tables_number      15
_space_group_name_Hall           '-C 2yn'
loop_
_symmetry_equiv_pos_site_id
_symmetry_equiv_pos_as_xyz
1 x,y,z
2 -x,y,1/2-z
3 1/2+x,1/2+y,z
4 1/2-x,1/2+y,1/2-z
5 -x,-y,-z
6 x,-y,1/2+z
7 1/2-x,1/2-y,-z
8 1/2+x,1/2-y,1/2+z
_cell_length_a                   19.248(3)
_cell_length_b                   12.265(2)
_cell_length_c                   14.214(2)
_cell_angle_alpha                90
_cell_angle_beta                 131.269(8)
_cell_angle_gamma                90
_cell_volume                     2522.14
loop_
_atom_site_label
_atom_site_type_symbol
_atom_site_fract_x
_atom_site_fract_y
_atom_site_fract_z
Cd1 Cd 0.5000 0.63793(4) 0.7500
O1 O 0.33436(18) 0.9014(2) 0.3959(2)
O2 O 0.40370(19) 0.7119(2) 0.5400(3)
O3 O 0.38810(19) 0.7862(2) 0.6644(2)
N1 N 0.4181(2) 0.5660(2) 0.8062(3)
N2 N 0.3849(2) 0.4286(3) 0.8738(3)
N3 N 0.5000 0.4416(3) 0.7500
C1 C 0.3776(2) 0.6078(3) 0.8511(3)
C2 C 0.3560(3) 0.7148(3) 0.8557(4)
H1 H 0.3698 0.7725 0.8281
C3 C 0.3131(3) 0.7319(4) 0.9031(4)
H2 H 0.2979 0.8025 0.9076
C4 C 0.2921(3) 0.6449(4) 0.9444(4)
H3 H 0.2628 0.6593 0.9751
C5 C 0.3135(3) 0.5394(4) 0.9411(3)
H4 H 0.3000 0.4820 0.9696
C6 C 0.3564(3) 0.5220(3) 0.8929(3)
C7 C 0.4218(2) 0.4596(3) 0.8229(3)
C8 C 0.4614(2) 0.3870(3) 0.7877(3)
C9 C 0.4608(3) 0.2741(3) 0.7891(4)
H5 H 0.4344 0.2370 0.8159
C10 C 0.5000 0.2172(5) 0.7500
H6 H 0.5000 0.1414 0.7500
C11 C 0.4296(3) 0.9893(3) 0.3732(3)
H7 H 0.3819 0.9819 0.2871
C12 C 0.4893(3) 0.9616(3) 0.5813(3)
H8 H 0.4823 0.9357 0.6362
C13 C 0.4175(3) 0.9508(3) 0.4526(4)
C14 C 0.3149(2) 0.8758(4) 0.4733(3)
H9 H 0.2503 0.8558 0.4207
H10 H 0.3245 0.9405 0.5198
C15 C 0.3731(2) 0.7842(3) 0.5650(4)
H11 H 0.392(2) 0.366(3) 0.907(3)
Cd1D Cd 0.5000 1.36207(4) 0.2500
O1D O 0.66564(18) 1.0986(2) 0.6041(2)
O2D O 0.59630(19) 1.2881(2) 0.4600(3)
O2A O 0.59630(19) 0.7119(2) 0.9600(3)
O3D O 0.61190(19) 1.2138(2) 0.3356(2)
O3A O 0.61190(19) 0.7862(2) 0.8356(2)
N1A N 0.5819(2) 0.5660(2) 0.6938(3)
N2A N 0.6151(2) 0.4286(3) 0.6262(3)
C1A C 0.6224(2) 0.6078(3) 0.6489(3)
C2A C 0.6440(3) 0.7148(3) 0.6443(4)
H1A H 0.6302 0.7725 0.6719
C3A C 0.6869(3) 0.7319(4) 0.5969(4)
H2A H 0.7021 0.8025 0.5924
C4A C 0.7079(3) 0.6449(4) 0.5556(4)
H3A H 0.7372 0.6593 0.5249
C5A C 0.6865(3) 0.5394(4) 0.5589(3)
H4A H 0.7000 0.4820 0.5304
C6A C 0.6436(3) 0.5220(3) 0.6071(3)
C7A C 0.5782(2) 0.4596(3) 0.6771(3)
C8A C 0.5386(2) 0.3870(3) 0.7123(3)
C9A C 0.5392(3) 0.2741(3) 0.7109(4)
H5A H 0.5656 0.2370 0.6841
C11D C 0.5704(3) 1.0107(3) 0.6268(3)
H7D H 0.6181 1.0181 0.7129
C12D C 0.5107(3) 1.0384(3) 0.4187(3)
H8D H 0.5177 1.0643 0.3638
C13D C 0.5825(3) 1.0492(3) 0.5474(4)
C14D C 0.6851(2) 1.1242(4) 0.5267(3)
H9D H 0.7497 1.1442 0.5793
H10D H 0.6755 1.0595 0.4802
C15D C 0.6269(2) 1.2158(3) 0.4350(4)
H11A H 0.608(2) 0.366(3) 0.593(3)
loop_
_geom_bond_atom_site_label_1
_geom_bond_atom_site_label_2
_geom_bond_site_symmetry_1
_geom_bond_site_symmetry_2
Cd1 O2 1_555 1_555
O1 C13 1_555 1_555
O2 C15 1_555 1_555
O3 Cd1 1_555 1_555
N1 Cd1 1_555 1_555
N2 C6 1_555 1_555
N3 Cd1 1_555 1_555
C1 N1 1_555 1_555
C2 C1 1_555 1_555
H1 C2 1_555 1_555
C3 C2 1_555 1_555
H2 C3 1_555 1_555
C4 C3 1_555 1_555
H3 C4 1_555 1_555
C5 C4 1_555 1_555
H4 C5 1_555 1_555
C6 C1 1_555 1_555
C7 N1 1_555 1_555
C8 N3 1_555 1_555
C9 C8 1_555 1_555
H5 C9 1_555 1_555
C10 C9 1_555 1_555
H6 C10 1_555 1_555
C11 H7 1_555 1_555
C12 H8 1_555 1_555
C13 C11 1_555 1_555
C14 O1 1_555 1_555
H9 C14 1_555 1_555
H10 C14 1_555 1_555
C15 O3 1_555 1_555
H11 N2 1_555 1_555
Cd1D O2D 1_555 1_555
O1D C13D 1_555 1_555
O2D C15D 1_555 1_555
O2A Cd1 1_555 1_555
O3D Cd1D 1_555 1_555
O3A Cd1 1_555 1_555
N1A Cd1 1_555 1_555
N2A C6A 1_555 1_555
C1A N1A 1_555 1_555
C2A C1A 1_555 1_555
H1A C2A 1_555 1_555
C3A C2A 1_555 1_555
H2A C3A 1_555 1_555
C4A C3A 1_555 1_555
H3A C4A 1_555 1_555
C5A C4A 1_555 1_555
H4A C5A 1_555 1_555
C6A C1A 1_555 1_555
C7A N1A 1_555 1_555
C8A N3 1_555 1_555
C9A C10 1_555 1_555
H5A C9A 1_555 1_555
C11D C12 1_555 1_555
H7D C11D 1_555 1_555
C12D C11 1_555 1_555
H8D C12D 1_555 1_555
C13D C11D 1_555 1_555
C14D O1D 1_555 1_555
H9D C14D 1_555 1_555
H10D C14D 1_555 1_555
C15D O3D 1_555 1_555
H11A N2A 1_555 1_555
N2 C7 1_555 1_555
C5 C6 1_555 1_555
C7 C8 1_555 1_555
C12 C13 1_555 1_555
C14 C15 1_555 1_555
N2A C7A 1_555 1_555
C5A C6A 1_555 1_555
C7A C8A 1_555 1_555
C8A C9A 1_555 1_555
C12D C13D 1_555 1_555
C14D C15D 1_555 1_555

#END
