
#######################################################################
#
#                 Cambridge Crystallographic Data Centre
#                                CCDC 
#
#######################################################################
#
# If this CIF has been generated from an entry in the Cambridge 
# Structural Database, then it will include bibliographic, chemical, 
# crystal, experimental, refinement or atomic coordinate data resulting 
# from the CCDC's data processing and validation procedures.
#
#######################################################################

data_XONLOC
_symmetry_cell_setting           monoclinic
_symmetry_space_group_name_H-M   'P 21'
_symmetry_Int_Tables_number      4
_space_group_name_Hall           'P 2yb'
loop_
_symmetry_equiv_pos_site_id
_symmetry_equiv_pos_as_xyz
1 x,y,z
2 -x,1/2+y,-z
_cell_length_a                   10.8292(4)
_cell_length_b                   19.6626(8)
_cell_length_c                   15.1761(6)
_cell_angle_alpha                90
_cell_angle_beta                 103.5040(10)
_cell_angle_gamma                90
_cell_volume                     3142.11
loop_
_atom_site_label
_atom_site_type_symbol
_atom_site_fract_x
_atom_site_fract_y
_atom_site_fract_z
Cu1 Cu -0.46557(14) 1.02352(7) 0.03013(9)
Cu2 Cu -0.69648(14) 1.04171(8) -0.06734(10)
Cu3 Cu -0.51739(16) 1.10387(8) -0.12915(11)
Cu4 Cu -0.32619(16) 1.18446(8) -0.13120(11)
I1 I -0.65531(7) 1.03264(4) 0.11116(5)
I2 I -0.33362(8) 1.13787(4) 0.02857(5)
I3 I -0.50915(8) 0.96726(4) -0.13333(5)
I4 I -0.72974(8) 1.16572(4) -0.12438(6)
I5 I -0.46484(8) 1.14638(4) -0.28150(5)
I6 I -0.16107(9) 1.27388(4) -0.12616(5)
K1 K -0.1824(2) 0.91553(13) 0.32390(16)
K2 K -0.0143(3) 0.94528(12) 0.65739(16)
S1 S -0.3182(3) 0.94943(14) 0.11675(18)
S2 S 0.1416(3) 0.97197(17) 0.86163(19)
O1 O 0.0516(7) 0.9717(4) 0.3748(5)
O2 O -0.0303(8) 0.9225(5) 0.2001(5)
O3 O -0.4139(8) 0.8527(4) 0.2456(5)
O4 O -0.3353(8) 0.8764(4) 0.4284(5)
O5 O -0.1412(7) 1.0495(4) 0.5653(5)
O6 O -0.0936(9) 1.0482(4) 0.7555(5)
O7 O 0.0736(9) 0.8301(4) 0.7762(5)
O8 O 0.0565(8) 0.8287(4) 0.5927(5)
C1 C 0.1235(11) 0.9843(7) 0.3075(8)
H1 H 0.1898 0.9490 0.3117
H2 H 0.1661 1.0291 0.3188
C2 C 0.0361(15) 0.9834(7) 0.2137(8)
H3 H -0.0243 1.0218 0.2074
H4 H 0.0866 0.9887 0.1675
C3 C -0.0773(13) 0.9059(7) 0.1073(8)
H5 H -0.1017 0.8573 0.1025
H6 H -0.0083 0.9122 0.0752
C4 C -0.1894(11) 0.9477(7) 0.0610(7)
H7 H -0.2215 0.9297 -0.0011
H8 H -0.1605 0.9949 0.0554
C5 C -0.3785(13) 0.8627(6) 0.0951(8)
H9 H -0.4180 0.8570 0.0297
H10 H -0.3076 0.8299 0.1119
C6 C -0.4745(12) 0.8488(7) 0.1492(7)
H11 H -0.5439 0.8827 0.1340
H12 H -0.5115 0.8030 0.1344
C7 C -0.5038(13) 0.8537(7) 0.3003(8)
H13 H -0.5743 0.8220 0.2753
H14 H -0.5395 0.9000 0.3007
C8 C -0.4415(13) 0.8334(7) 0.3925(9)
H15 H -0.5030 0.8362 0.4315
H16 H -0.4126 0.7857 0.3925
C9 C -0.3050(11) 0.8803(6) 0.5236(7)
C10 C -0.3425(11) 0.9397(6) 0.5622(8)
C11 C -0.3226(12) 0.9420(6) 0.6564(8)
H17 H -0.3602 0.9799 0.6854
C12 C -0.2677(13) 0.8883(6) 0.7079(8)
H18 H -0.2713 0.8864 0.7731
C13 C -0.2229(12) 0.8312(7) 0.6693(8)
H19 H -0.1964 0.7899 0.7075
C14 C -0.2397(11) 0.8265(6) 0.5757(7)
C15 C -0.1904(11) 0.7641(6) 0.5356(8)
H20 H -0.1426 0.7357 0.5860
H21 H -0.2642 0.7371 0.5029
C16 C -0.1055(12) 0.7783(6) 0.4712(8)
C17 C 0.0147(12) 0.8100(5) 0.5005(7)
C18 C 0.0934(12) 0.8256(6) 0.4440(9)
C19 C 0.0563(13) 0.8028(6) 0.3533(8)
H22 H 0.1180 0.8050 0.3137
C20 C -0.0574(13) 0.7691(7) 0.3235(8)
H23 H -0.0724 0.7429 0.2656
C21 C -0.1353(13) 0.7570(6) 0.3836(8)
H24 H -0.2076 0.7245 0.3645
C22 C 0.2142(11) 0.8647(6) 0.4762(8)
H25 H 0.2560 0.8690 0.4250
H26 H 0.2713 0.8378 0.5240
C23 C 0.2015(11) 0.9355(6) 0.5135(8)
C24 C 0.2688(12) 0.9526(6) 0.5992(8)
H27 H 0.3390 0.9220 0.6308
C25 C 0.2559(12) 1.0171(6) 0.6369(8)
H28 H 0.3195 1.0323 0.6923
C26 C 0.1702(12) 1.0629(6) 0.5893(8)
H29 H 0.1701 1.1106 0.6121
C27 C 0.0991(12) 1.0472(6) 0.5016(7)
C28 C 0.0057(12) 1.1002(6) 0.4481(8)
H30 H 0.0078 1.1408 0.4870
H31 H 0.0375 1.1143 0.3948
C29 C -0.1298(12) 1.0789(5) 0.4153(7)
C30 C -0.1994(12) 1.0514(5) 0.4731(8)
C31 C -0.3263(10) 1.0291(6) 0.4414(7)
C32 C -0.3828(11) 1.0370(6) 0.3505(8)
H32 H -0.4762 1.0291 0.3289
C33 C -0.3148(11) 1.0686(5) 0.2909(7)
H33 H -0.3611 1.0827 0.2286
C34 C -0.1890(13) 1.0878(6) 0.3237(8)
H34 H -0.1442 1.1135 0.2836
C35 C -0.1829(13) 1.1061(6) 0.6151(8)
H35 H -0.2710 1.0978 0.6206
H36 H -0.1819 1.1490 0.5812
C36 C -0.0972(13) 1.1124(6) 0.7072(8)
H37 H -0.0105 1.1246 0.7019
H38 H -0.1284 1.1489 0.7414
C37 C -0.0579(13) 1.0576(7) 0.8512(8)
H39 H -0.1334 1.0695 0.8743
H40 H 0.0045 1.0951 0.8664
C38 C -0.0016(13) 0.9938(8) 0.8932(9)
H41 H -0.0637 0.9565 0.8752
H42 H 0.0160 0.9984 0.9599
C39 C 0.1792(14) 0.8883(7) 0.9147(9)
H43 H 0.2678 0.8768 0.9135
H44 H 0.1753 0.8919 0.9791
C40 C 0.0945(17) 0.8306(7) 0.8720(9)
H45 H 0.1338 0.7869 0.8963
H46 H 0.0118 0.8345 0.8889
C41 C 0.1704(13) 0.8014(7) 0.7435(9)
H47 H 0.2094 0.7637 0.7838
H48 H 0.2368 0.8359 0.7433
C42 C 0.1208(13) 0.7746(7) 0.6488(8)
H49 H 0.1921 0.7575 0.6243
H50 H 0.0614 0.7365 0.6496
C43 C -0.4031(12) 0.9972(6) 0.5026(8)
H51 H -0.4244 1.0334 0.5419
H52 H -0.4840 0.9806 0.4639
C44 C 0.1187(11) 0.9850(6) 0.4648(7)
Cu2_2 Cu 0.30352(14) 1.04171(8) 0.93266(10)
S2_2 S -0.8584(3) 0.97197(17) -0.13837(19)
C45 C -0.0425(14) 0.6556(10) 0.9333(9)
H53 H -0.0103 0.6096 0.9496
H54 H -0.1207 0.6627 0.9539
H55 H 0.0214 0.6890 0.9622
C46 C -0.0686(14) 0.6637(7) 0.8359(9)
N1 N -0.0852(14) 0.6675(6) 0.7607(9)
C47 C 0.6039(18) 0.7389(11) 0.8996(14)
H56 H 0.6231 0.6898 0.8975
H57 H 0.5644 0.7471 0.9513
Cl1 Cl 0.7501(10) 0.7891(4) 0.9130(5)
Cl2 Cl 0.5026(15) 0.7639(11) 0.8000(15)
C48 C 0.5841(14) 0.6750(7) 0.6408(9)
H58 H 0.5625 0.6497 0.6916
H59 H 0.6538 0.7070 0.6666
Cl3 Cl 0.6354(5) 0.6182(2) 0.5696(4)
Cl4 Cl 0.4527(7) 0.7205(4) 0.5841(7)
loop_
_geom_bond_atom_site_label_1
_geom_bond_atom_site_label_2
_geom_bond_site_symmetry_1
_geom_bond_site_symmetry_2
Cu1 I1 1_555 1_555
Cu2 I1 1_555 1_555
Cu3 I2 1_555 1_555
Cu4 I2 1_555 1_555
I2 Cu1 1_555 1_555
I3 Cu1 1_555 1_555
I4 Cu2 1_555 1_555
I5 Cu3 1_555 1_555
I6 Cu4 1_555 1_555
K1 O1 1_555 1_555
K2 O5 1_555 1_555
S1 Cu1 1_555 1_555
S2 C38 1_555 1_555
O1 C1 1_555 1_555
O2 K1 1_555 1_555
O3 K1 1_555 1_555
O4 K1 1_555 1_555
O5 C30 1_555 1_555
O6 K2 1_555 1_555
O7 K2 1_555 1_555
O8 K2 1_555 1_555
C1 H1 1_555 1_555
H2 C1 1_555 1_555
C2 O2 1_555 1_555
H3 C2 1_555 1_555
H4 C2 1_555 1_555
C3 O2 1_555 1_555
H5 C3 1_555 1_555
H6 C3 1_555 1_555
C4 S1 1_555 1_555
H7 C4 1_555 1_555
H8 C4 1_555 1_555
C5 S1 1_555 1_555
H9 C5 1_555 1_555
H10 C5 1_555 1_555
C6 O3 1_555 1_555
H11 C6 1_555 1_555
H12 C6 1_555 1_555
C7 O3 1_555 1_555
H13 C7 1_555 1_555
H14 C7 1_555 1_555
C8 O4 1_555 1_555
H15 C8 1_555 1_555
H16 C8 1_555 1_555
C9 O4 1_555 1_555
C10 C9 1_555 1_555
C11 C10 1_555 1_555
H17 C11 1_555 1_555
C12 C11 1_555 1_555
H18 C12 1_555 1_555
C13 C12 1_555 1_555
H19 C13 1_555 1_555
C14 C9 1_555 1_555
C15 C14 1_555 1_555
H20 C15 1_555 1_555
H21 C15 1_555 1_555
C16 C15 1_555 1_555
C17 O8 1_555 1_555
C18 C17 1_555 1_555
C19 C18 1_555 1_555
H22 C19 1_555 1_555
C20 C19 1_555 1_555
H23 C20 1_555 1_555
C21 C16 1_555 1_555
H24 C21 1_555 1_555
C22 C18 1_555 1_555
H25 C22 1_555 1_555
H26 C22 1_555 1_555
C23 C22 1_555 1_555
C24 C23 1_555 1_555
H27 C24 1_555 1_555
C25 C24 1_555 1_555
H28 C25 1_555 1_555
C26 C25 1_555 1_555
H29 C26 1_555 1_555
C27 C26 1_555 1_555
C28 C27 1_555 1_555
H30 C28 1_555 1_555
H31 C28 1_555 1_555
C29 C28 1_555 1_555
C30 C29 1_555 1_555
C31 C30 1_555 1_555
C32 C31 1_555 1_555
H32 C32 1_555 1_555
C33 C32 1_555 1_555
H33 C33 1_555 1_555
C34 C29 1_555 1_555
H34 C34 1_555 1_555
C35 O5 1_555 1_555
H35 C35 1_555 1_555
H36 C35 1_555 1_555
C36 O6 1_555 1_555
H37 C36 1_555 1_555
H38 C36 1_555 1_555
C37 O6 1_555 1_555
H39 C37 1_555 1_555
H40 C37 1_555 1_555
C38 C37 1_555 1_555
H41 C38 1_555 1_555
H42 C38 1_555 1_555
C39 S2 1_555 1_555
H43 C39 1_555 1_555
H44 C39 1_555 1_555
C40 O7 1_555 1_555
H45 C40 1_555 1_555
H46 C40 1_555 1_555
C41 O7 1_555 1_555
H47 C41 1_555 1_555
H48 C41 1_555 1_555
C42 O8 1_555 1_555
H49 C42 1_555 1_555
H50 C42 1_555 1_555
C43 C10 1_555 1_555
H51 C43 1_555 1_555
H52 C43 1_555 1_555
C44 O1 1_555 1_555
C45 H53 1_555 1_555
H54 C45 1_555 1_555
H55 C45 1_555 1_555
C46 C45 1_555 1_555
N1 C46 1_555 1_555
C47 H56 1_555 1_555
H57 C47 1_555 1_555
Cl1 C47 1_555 1_555
Cl2 C47 1_555 1_555
C48 H58 1_555 1_555
H59 C48 1_555 1_555
Cl3 C48 1_555 1_555
Cl4 C48 1_555 1_555
Cu2_2 S2 1_555 1_555
S2_2 Cu2 1_555 1_555
Cu2 I3 1_555 1_555
Cu3 I3 1_555 1_555
Cu3 I4 1_555 1_555
Cu4 I5 1_555 1_555
C1 C2 1_555 1_555
C3 C4 1_555 1_555
C5 C6 1_555 1_555
C7 C8 1_555 1_555
C13 C14 1_555 1_555
C16 C17 1_555 1_555
C20 C21 1_555 1_555
C23 C44 1_555 1_555
C27 C44 1_555 1_555
C31 C43 1_555 1_555
C33 C34 1_555 1_555
C35 C36 1_555 1_555
C39 C40 1_555 1_555
C41 C42 1_555 1_555

#END
