
#######################################################################
#
#                 Cambridge Crystallographic Data Centre
#                                CCDC 
#
#######################################################################
#
# If this CIF has been generated from an entry in the Cambridge 
# Structural Database, then it will include bibliographic, chemical, 
# crystal, experimental, refinement or atomic coordinate data resulting 
# from the CCDC's data processing and validation procedures.
#
#######################################################################

data_XOPHEQ
_symmetry_cell_setting           triclinic
_symmetry_space_group_name_H-M   'P -1'
_symmetry_Int_Tables_number      2
_space_group_name_Hall           '-P 1'
loop_
_symmetry_equiv_pos_site_id
_symmetry_equiv_pos_as_xyz
1 x,y,z
2 -x,-y,-z
_cell_length_a                   10.1503(10)
_cell_length_b                   15.0272(15)
_cell_length_c                   16.7597(17)
_cell_angle_alpha                66.575(2)
_cell_angle_beta                 77.358(3)
_cell_angle_gamma                81.2200(10)
_cell_volume                     2282.65
loop_
_atom_site_label
_atom_site_type_symbol
_atom_site_fract_x
_atom_site_fract_y
_atom_site_fract_z
C1 C 0.6205(8) 0.2433(5) 0.4246(5)
C2 C 0.6738(8) 0.2516(5) 0.4940(5)
C3 C 0.6115(7) 0.3139(6) 0.5338(5)
H1 H 0.6497 0.3201 0.5768
C4 C 0.4903(8) 0.3692(5) 0.5113(5)
H2 H 0.4440 0.4072 0.5424
C5 C 0.4416(7) 0.3653(5) 0.4406(4)
H3 H 0.3659 0.4057 0.4223
C6 C 0.5030(8) 0.3020(5) 0.3953(6)
C7 C 0.4485(7) 0.2942(5) 0.3257(5)
C8 C 0.5056(7) 0.3414(5) 0.2381(5)
H4 H 0.5833 0.3740 0.2243
C9 C 0.4477(8) 0.3403(6) 0.1704(6)
H5 H 0.4855 0.3746 0.1120
C10 C 0.3352(8) 0.2894(5) 0.1880(5)
H6 H 0.2965 0.2900 0.1424
C11 C 0.2798(7) 0.2355(5) 0.2790(5)
C12 C 0.3371(7) 0.2400(5) 0.3478(5)
C13 C 0.6883(8) 0.1789(5) 0.3756(5)
C14 C 0.7972(8) 0.1897(5) 0.5243(5)
C15 C 0.2780(8) 0.1920(5) 0.4437(5)
C16 C 0.1623(7) 0.1748(5) 0.3026(5)
C17 C 0.1842(7) 0.1370(6) 0.8218(5)
C18 C 0.0695(7) 0.0867(5) 0.8524(5)
C19 C -0.0319(8) 0.0967(5) 0.9209(5)
H7 H -0.1106 0.0646 0.9369
C20 C -0.0151(8) 0.1537(5) 0.9643(5)
H8 H -0.0804 0.1580 1.0114
C21 C 0.1038(7) 0.2064(5) 0.9365(5)
H9 H 0.1162 0.2457 0.9650
C22 C 0.2021(7) 0.1978(5) 0.8652(5)
C23 C 0.3167(7) 0.2606(5) 0.8330(4)
C24 C 0.3161(9) 0.3361(5) 0.7486(5)
H10 H 0.2555 0.3397 0.7129
C25 C 0.4160(8) 0.4079(5) 0.7209(5)
H11 H 0.4211 0.4571 0.6651
C26 C 0.4996(8) 0.4052(5) 0.7727(5)
H12 H 0.5606 0.4529 0.7537
C27 C 0.4955(7) 0.3284(5) 0.8584(5)
C28 C 0.4072(8) 0.2564(6) 0.8866(5)
C29 C 0.0453(7) 0.0240(5) 0.8077(4)
C30 C 0.2901(8) 0.1304(5) 0.7491(5)
C31 C 0.4027(7) 0.1779(5) 0.9769(5)
C32 C 0.5961(8) 0.3253(6) 0.9129(5)
C33 C -0.0712(8) 0.3193(6) 0.6979(5)
H13 H -0.1220 0.2671 0.7353
C34 C -0.1004(9) 0.4109(6) 0.7117(5)
H14 H -0.1721 0.4197 0.7537
C35 C -0.0102(7) 0.4882(5) 0.6555(5)
C36 C 0.0881(8) 0.4685(5) 0.5922(4)
H15 H 0.1471 0.5156 0.5548
C37 C 0.1001(8) 0.3794(5) 0.5837(5)
H16 H 0.1658 0.3692 0.5393
C38 C -0.0272(9) 0.5865(6) 0.6656(6)
H17 H -0.0057 0.6378 0.6080
H18 H -0.1207 0.5990 0.6902
C39 C 0.0638(9) 0.5874(5) 0.7248(5)
H19 H 0.0712 0.6540 0.7170
H20 H 0.1535 0.5603 0.7079
C40 C 0.0119(8) 0.5299(5) 0.8204(5)
H21 H -0.0819 0.5515 0.8354
H22 H 0.0155 0.4617 0.8297
C41 C 0.0921(7) 0.5414(5) 0.8790(4)
C42 C 0.0700(8) 0.6283(6) 0.8978(5)
H23 H -0.0001 0.6744 0.8781
C43 C 0.1593(7) 0.6433(5) 0.9483(5)
H24 H 0.1506 0.7019 0.9562
C44 C 0.2731(8) 0.4962(6) 0.9651(5)
H25 H 0.3447 0.4528 0.9863
C45 C 0.1950(8) 0.4733(5) 0.9166(5)
H26 H 0.2113 0.4141 0.9095
Cd1 Cd 0.5000 0.0000 0.5000
Cd2 Cd 1.0000 0.0000 0.5000
Cd3 Cd 0.05916(6) 0.16651(4) 0.60925(3)
Cd4 Cd 0.50523(5) 0.02953(4) 0.87991(3)
Cd5 Cd 0.92874(6) 0.10196(4) 0.28434(3)
N1 N 0.0215(6) 0.3078(4) 0.6365(4)
N2 N 0.2486(7) 0.5777(4) 0.9817(4)
H27 H 0.2941 0.5859 1.0156
O1 O 0.6510(5) 0.0984(4) 0.3948(3)
O2 O 0.7898(5) 0.2140(4) 0.3144(3)
O3 O 0.8298(6) 0.1190(5) 0.5060(4)
O4 O 0.8555(6) 0.2121(4) 0.5704(4)
O5 O 0.3258(5) 0.1120(3) 0.4891(3)
O6 O 0.1797(5) 0.2378(4) 0.4730(3)
O7 O 0.1278(5) 0.1167(4) 0.3732(3)
O8 O 0.1011(5) 0.1900(4) 0.2345(3)
O9 O -0.0504(5) 0.0504(3) 0.7612(3)
O10 O 0.1207(5) -0.0532(3) 0.8161(3)
O11 O 0.2542(6) 0.1340(4) 0.6779(3)
O12 O 0.4158(5) 0.1097(4) 0.7568(3)
O13 O 0.4282(6) 0.0913(3) 0.9857(3)
O14 O 0.3569(6) 0.2053(4) 1.0409(3)
O15 O 0.6679(6) 0.2519(4) 0.9455(4)
O16 O 0.6030(7) 0.4071(5) 0.9201(4)
O17 O 0.4550(7) -0.0343(4) 0.3851(4)
H28 H 0.527(11) -0.058(7) 0.362(7)
H29 H 0.395(11) -0.075(8) 0.405(7)
O18 O 0.6828(6) 0.1320(4) 0.8303(5)
H30 H 0.671(11) 0.168(8) 0.860(7)
H31 H 0.757(11) 0.097(7) 0.838(7)
O19 O 0.6559(8) -0.0463(5) 0.8025(5)
H32 H 0.723(12) -0.011(8) 0.779(8)
H33 H 0.618(12) -0.043(8) 0.761(8)
O20 O 0.3385(7) -0.0756(5) 0.9178(4)
H34 H 0.302(11) -0.064(7) 0.873(7)
H35 H 0.373(11) -0.134(8) 0.935(7)
O21 O 0.9044(5) -0.0239(3) 0.4067(3)
C1A C 0.3795(8) -0.2433(5) 0.5754(5)
C2A C 0.3262(8) -0.2516(5) 0.5060(5)
C3A C 0.3885(7) -0.3139(6) 0.4662(5)
H1A H 0.3503 -0.3201 0.4232
C4A C 0.5097(8) -0.3692(5) 0.4887(5)
H2A H 0.5560 -0.4072 0.4576
C5A C 0.5584(7) -0.3653(5) 0.5594(4)
H3A H 0.6341 -0.4057 0.5777
C6A C 0.4970(8) -0.3020(5) 0.6047(6)
C7A C 0.5515(7) -0.2942(5) 0.6743(5)
C8A C 0.4944(7) -0.3414(5) 0.7619(5)
H4A H 0.4167 -0.3740 0.7757
C9A C 0.5523(8) -0.3403(6) 0.8296(6)
H5A H 0.5145 -0.3746 0.8880
C10A C 0.6648(8) -0.2894(5) 0.8120(5)
H6A H 0.7035 -0.2900 0.8576
C11A C 0.7202(7) -0.2355(5) 0.7210(5)
C12A C 0.6629(7) -0.2400(5) 0.6522(5)
C13A C 0.3117(8) -0.1789(5) 0.6244(5)
C14A C 0.2028(8) -0.1897(5) 0.4757(5)
C15A C 0.7220(8) -0.1920(5) 0.5563(5)
C16A C 0.8377(7) -0.1748(5) 0.6974(5)
C17A C 0.8158(7) -0.1370(6) 0.1782(5)
C18A C 0.9305(7) -0.0867(5) 0.1476(5)
C19A C 1.0319(8) -0.0967(5) 0.0791(5)
H7A H 1.1106 -0.0646 0.0631
C20A C 1.0151(8) -0.1537(5) 0.0357(5)
H8A H 1.0804 -0.1580 -0.0114
C21A C 0.8962(7) -0.2064(5) 0.0635(5)
H9A H 0.8838 -0.2457 0.0350
C22A C 0.7979(7) -0.1978(5) 0.1348(5)
C23A C 0.6833(7) -0.2606(5) 0.1670(4)
C24A C 0.6839(9) -0.3361(5) 0.2514(5)
H10A H 0.7445 -0.3397 0.2871
C25A C 0.5840(8) -0.4079(5) 0.2791(5)
H11A H 0.5789 -0.4571 0.3349
C26A C 0.5004(8) -0.4052(5) 0.2273(5)
H12A H 0.4394 -0.4529 0.2463
C27A C 0.5045(7) -0.3284(5) 0.1416(5)
C28A C 0.5928(8) -0.2564(6) 0.1134(5)
C29A C 0.9547(7) -0.0240(5) 0.1923(4)
C30A C 0.7099(8) -0.1304(5) 0.2509(5)
C31A C 0.5973(7) -0.1779(5) 0.0231(5)
C32A C 0.4039(8) -0.3253(6) 0.0871(5)
C33A C 1.0712(8) -0.3193(6) 0.3021(5)
H13A H 1.1220 -0.2671 0.2647
C34A C 1.1004(9) -0.4109(6) 0.2883(5)
H14A H 1.1721 -0.4197 0.2463
C35A C 1.0102(7) -0.4882(5) 0.3445(5)
C36A C 0.9119(8) -0.4685(5) 0.4078(4)
H15A H 0.8529 -0.5156 0.4452
C37A C 0.8999(8) -0.3794(5) 0.4163(5)
H16A H 0.8342 -0.3692 0.4607
C38A C 1.0272(9) -0.5865(6) 0.3344(6)
H17A H 1.0057 -0.6378 0.3920
H18A H 1.1207 -0.5990 0.3098
C39A C 0.9362(9) -0.5874(5) 0.2752(5)
H19A H 0.9288 -0.6540 0.2830
H20A H 0.8465 -0.5603 0.2921
C40A C 0.9881(8) -0.5299(5) 0.1796(5)
H21A H 1.0819 -0.5515 0.1646
H22A H 0.9845 -0.4617 0.1703
C41A C 0.9079(7) -0.5414(5) 0.1210(4)
C42A C 0.9300(8) -0.6283(6) 0.1022(5)
H23A H 1.0001 -0.6744 0.1219
C43A C 0.8407(7) -0.6433(5) 0.0517(5)
H24A H 0.8494 -0.7019 0.0438
C44A C 0.7269(8) -0.4962(6) 0.0349(5)
H25A H 0.6553 -0.4528 0.0137
C45A C 0.8050(8) -0.4733(5) 0.0834(5)
H26A H 0.7887 -0.4141 0.0905
Cd2_2 Cd 0.0000 0.0000 0.5000
Cd3A Cd 0.94084(6) -0.16651(4) 0.39075(3)
Cd3_2 Cd 1.05916(6) 0.16651(4) 0.60925(3)
Cd3A_2 Cd -0.05916(6) -0.16651(4) 0.39075(3)
Cd4A Cd 0.49477(5) -0.02953(4) 0.12009(3)
Cd4A_2 Cd 0.49477(5) -0.02953(4) 1.12009(3)
Cd4_2 Cd 0.50523(5) 0.02953(4) -0.12009(3)
Cd5A Cd 0.07126(6) -0.10196(4) 0.71566(3)
Cd5_2 Cd -0.07126(6) 0.10196(4) 0.28434(3)
Cd5A_2 Cd 1.07126(6) -0.10196(4) 0.71566(3)
N1A N 0.9785(6) -0.3078(4) 0.3635(4)
N2A N 0.7514(7) -0.5777(4) 0.0183(4)
H27A H 0.7059 -0.5859 -0.0156
O1A O 0.3490(5) -0.0984(4) 0.6052(3)
O2A O 0.2102(5) -0.2140(4) 0.6856(3)
O3A O 0.1702(6) -0.1190(5) 0.4940(4)
O3A_2 O 1.1702(6) -0.1190(5) 0.4940(4)
O4A O 0.1445(6) -0.2121(4) 0.4296(4)
O4_2 O -0.1445(6) 0.2121(4) 0.5704(4)
O4A_2 O 1.1445(6) -0.2121(4) 0.4296(4)
O5A O 0.6742(5) -0.1120(3) 0.5109(3)
O6A O 0.8203(5) -0.2378(4) 0.5270(3)
O7A O 0.8722(5) -0.1167(4) 0.6268(3)
O7_2 O 1.1278(5) 0.1167(4) 0.3732(3)
O8A O 0.8989(5) -0.1900(4) 0.7655(3)
O8_2 O 1.1011(5) 0.1900(4) 0.2345(3)
O8A_2 O -0.1011(5) -0.1900(4) 0.7655(3)
O9A O 1.0504(5) -0.0504(3) 0.2388(3)
O10A O 0.8793(5) 0.0532(3) 0.1839(3)
O11A O 0.7458(6) -0.1340(4) 0.3221(3)
O12A O 0.5842(5) -0.1097(4) 0.2432(3)
O13A O 0.5718(6) -0.0913(3) 0.0143(3)
O13A_2 O 0.5718(6) -0.0913(3) 1.0143(3)
O13_2 O 0.4282(6) 0.0913(3) -0.0143(3)
O14A O 0.6431(6) -0.2053(4) -0.0409(3)
O15A O 0.3321(6) -0.2519(4) 0.0545(4)
O16A O 0.3970(7) -0.4071(5) 0.0799(4)
O17A O 0.5450(7) 0.0343(4) 0.6149(4)
H28A H 0.473(11) 0.058(7) 0.638(7)
H29A H 0.605(11) 0.075(8) 0.595(7)
O18A O 0.3172(6) -0.1320(4) 0.1697(5)
H30A H 0.329(11) -0.168(8) 0.140(7)
H31A H 0.243(11) -0.097(7) 0.162(7)
O19A O 0.3441(8) 0.0463(5) 0.1975(5)
H32A H 0.277(12) 0.011(8) 0.221(8)
H33A H 0.382(12) 0.043(8) 0.239(8)
O20A O 0.6615(7) 0.0756(5) 0.0822(4)
H34A H 0.698(11) 0.064(7) 0.127(7)
H35A H 0.627(11) 0.134(8) 0.065(7)
O21A O 1.0956(5) 0.0239(3) 0.5933(3)
O21A_2 O 0.0956(5) 0.0239(3) 0.5933(3)
loop_
_geom_bond_atom_site_label_1
_geom_bond_atom_site_label_2
_geom_bond_site_symmetry_1
_geom_bond_site_symmetry_2
C1 C2 1_555 1_555
C2 C3 1_555 1_555
C3 H1 1_555 1_555
C4 C3 1_555 1_555
H2 C4 1_555 1_555
C5 C4 1_555 1_555
H3 C5 1_555 1_555
C6 C1 1_555 1_555
C7 C6 1_555 1_555
C8 C7 1_555 1_555
H4 C8 1_555 1_555
C9 C8 1_555 1_555
H5 C9 1_555 1_555
C10 C9 1_555 1_555
H6 C10 1_555 1_555
C11 C10 1_555 1_555
C12 C7 1_555 1_555
C13 C1 1_555 1_555
C14 C2 1_555 1_555
C15 C12 1_555 1_555
C16 C11 1_555 1_555
C17 C18 1_555 1_555
C18 C19 1_555 1_555
C19 H7 1_555 1_555
C20 C19 1_555 1_555
H8 C20 1_555 1_555
C21 C20 1_555 1_555
H9 C21 1_555 1_555
C22 C17 1_555 1_555
C23 C22 1_555 1_555
C24 C23 1_555 1_555
H10 C24 1_555 1_555
C25 C24 1_555 1_555
H11 C25 1_555 1_555
C26 C25 1_555 1_555
H12 C26 1_555 1_555
C27 C26 1_555 1_555
C28 C23 1_555 1_555
C29 C18 1_555 1_555
C30 C17 1_555 1_555
C31 C28 1_555 1_555
C32 C27 1_555 1_555
C33 H13 1_555 1_555
C34 C33 1_555 1_555
H14 C34 1_555 1_555
C35 C34 1_555 1_555
C36 C35 1_555 1_555
H15 C36 1_555 1_555
C37 C36 1_555 1_555
H16 C37 1_555 1_555
C38 C35 1_555 1_555
H17 C38 1_555 1_555
H18 C38 1_555 1_555
C39 C38 1_555 1_555
H19 C39 1_555 1_555
H20 C39 1_555 1_555
C40 C39 1_555 1_555
H21 C40 1_555 1_555
H22 C40 1_555 1_555
C41 C40 1_555 1_555
C42 C41 1_555 1_555
H23 C42 1_555 1_555
C43 C42 1_555 1_555
H24 C43 1_555 1_555
C44 H25 1_555 1_555
C45 C41 1_555 1_555
H26 C45 1_555 1_555
Cd1 O1 1_555 1_555
Cd2 O3 1_555 1_555
Cd3 N1 1_555 1_555
Cd4 O12 1_555 1_555
Cd5 O2 1_555 1_555
N1 C33 1_555 1_555
N2 C43 1_555 1_555
H27 N2 1_555 1_555
O1 C13 1_555 1_555
O2 C13 1_555 1_555
O3 C14 1_555 1_555
O4 C14 1_555 1_555
O5 C15 1_555 1_555
O6 C15 1_555 1_555
O7 C16 1_555 1_555
O8 C16 1_555 1_555
O9 C29 1_555 1_555
O10 C29 1_555 1_555
O11 C30 1_555 1_555
O12 C30 1_555 1_555
O13 C31 1_555 1_555
O14 C31 1_555 1_555
O15 C32 1_555 1_555
O16 C32 1_555 1_555
O17 Cd1 1_555 1_555
H28 O17 1_555 1_555
H29 O17 1_555 1_555
O18 Cd4 1_555 1_555
H30 O18 1_555 1_555
H31 O18 1_555 1_555
O19 Cd4 1_555 1_555
H32 O19 1_555 1_555
H33 O19 1_555 1_555
O20 Cd4 1_555 1_555
H34 O20 1_555 1_555
H35 O20 1_555 1_555
O21 Cd2 1_555 1_555
C1A C2A 1_555 1_555
C2A C3A 1_555 1_555
C3A H1A 1_555 1_555
C4A C3A 1_555 1_555
H2A C4A 1_555 1_555
C5A C4A 1_555 1_555
H3A C5A 1_555 1_555
C6A C1A 1_555 1_555
C7A C6A 1_555 1_555
C8A C7A 1_555 1_555
H4A C8A 1_555 1_555
C9A C8A 1_555 1_555
H5A C9A 1_555 1_555
C10A C9A 1_555 1_555
H6A C10A 1_555 1_555
C11A C10A 1_555 1_555
C12A C7A 1_555 1_555
C13A C1A 1_555 1_555
C14A C2A 1_555 1_555
C15A C12A 1_555 1_555
C16A C11A 1_555 1_555
C17A C18A 1_555 1_555
C18A C19A 1_555 1_555
C19A H7A 1_555 1_555
C20A C19A 1_555 1_555
H8A C20A 1_555 1_555
C21A C20A 1_555 1_555
H9A C21A 1_555 1_555
C22A C17A 1_555 1_555
C23A C22A 1_555 1_555
C24A C23A 1_555 1_555
H10A C24A 1_555 1_555
C25A C24A 1_555 1_555
H11A C25A 1_555 1_555
C26A C25A 1_555 1_555
H12A C26A 1_555 1_555
C27A C26A 1_555 1_555
C28A C23A 1_555 1_555
C29A C18A 1_555 1_555
C30A C17A 1_555 1_555
C31A C28A 1_555 1_555
C32A C27A 1_555 1_555
C33A H13A 1_555 1_555
C34A C33A 1_555 1_555
H14A C34A 1_555 1_555
C35A C34A 1_555 1_555
C36A C35A 1_555 1_555
H15A C36A 1_555 1_555
C37A C36A 1_555 1_555
H16A C37A 1_555 1_555
C38A C35A 1_555 1_555
H17A C38A 1_555 1_555
H18A C38A 1_555 1_555
C39A C38A 1_555 1_555
H19A C39A 1_555 1_555
H20A C39A 1_555 1_555
C40A C39A 1_555 1_555
H21A C40A 1_555 1_555
H22A C40A 1_555 1_555
C41A C40A 1_555 1_555
C42A C41A 1_555 1_555
H23A C42A 1_555 1_555
C43A C42A 1_555 1_555
H24A C43A 1_555 1_555
C44A H25A 1_555 1_555
C45A C41A 1_555 1_555
H26A C45A 1_555 1_555
Cd2_2 O7 1_555 1_555
Cd3A O21 1_555 1_555
Cd3_2 O4 1_555 1_555
Cd3A_2 O4A 1_555 1_555
Cd4A O12A 1_555 1_555
Cd4A_2 O13 1_555 1_555
Cd4_2 O13A 1_555 1_555
Cd5A O10 1_555 1_555
Cd5_2 O8 1_555 1_555
Cd5A_2 O8A 1_555 1_555
N1A C33A 1_555 1_555
N2A C43A 1_555 1_555
H27A N2A 1_555 1_555
O1A Cd1 1_555 1_555
O2A C13A 1_555 1_555
O3A C14A 1_555 1_555
O3A_2 Cd2 1_555 1_555
O4A C14A 1_555 1_555
O4_2 Cd3 1_555 1_555
O4A_2 Cd3A 1_555 1_555
O5A Cd1 1_555 1_555
O6A C15A 1_555 1_555
O7A Cd2 1_555 1_555
O7_2 Cd2 1_555 1_555
O8A C16A 1_555 1_555
O8_2 Cd5 1_555 1_555
O8A_2 Cd5A 1_555 1_555
O9A C29A 1_555 1_555
O10A Cd5 1_555 1_555
O11A C30A 1_555 1_555
O12A C30A 1_555 1_555
O13A C31A 1_555 1_555
O13A_2 Cd4 1_555 1_555
O13_2 Cd4A 1_555 1_555
O14A C31A 1_555 1_555
O15A C32A 1_555 1_555
O16A C32A 1_555 1_555
O17A Cd1 1_555 1_555
H28A O17A 1_555 1_555
H29A O17A 1_555 1_555
O18A Cd4A 1_555 1_555
H30A O18A 1_555 1_555
H31A O18A 1_555 1_555
O19A Cd4A 1_555 1_555
H32A O19A 1_555 1_555
H33A O19A 1_555 1_555
O20A Cd4A 1_555 1_555
H34A O20A 1_555 1_555
H35A O20A 1_555 1_555
O21A Cd2 1_555 1_555
O21A_2 Cd3 1_555 1_555
C5 C6 1_555 1_555
C11 C12 1_555 1_555
C21 C22 1_555 1_555
C27 C28 1_555 1_555
C37 N1 1_555 1_555
C44 C45 1_555 1_555
C44 N2 1_555 1_555
Cd1 O5 1_555 1_555
Cd3 O6 1_555 1_555
Cd3 O9 1_555 1_555
Cd3 O11 1_555 1_555
Cd4 O13 1_555 1_555
Cd5 O21 1_555 1_555
C5A C6A 1_555 1_555
C11A C12A 1_555 1_555
C13A O1A 1_555 1_555
C15A O5A 1_555 1_555
C16A O7A 1_555 1_555
C21A C22A 1_555 1_555
C27A C28A 1_555 1_555
C29A O10A 1_555 1_555
C37A N1A 1_555 1_555
C44A C45A 1_555 1_555
C44A N2A 1_555 1_555
Cd2_2 O3A 1_555 1_555
Cd2_2 O21A_2 1_555 1_555
Cd3A N1A 1_555 1_555
Cd3A O6A 1_555 1_555
Cd3A O9A 1_555 1_555
Cd3A O11A 1_555 1_555
Cd3_2 O21A 1_555 1_555
Cd4A O13A 1_555 1_555
Cd4A_2 O13A_2 1_555 1_555
Cd4_2 O13_2 1_555 1_555
Cd5A O2A 1_555 1_555
Cd5A O21A_2 1_555 1_555
Cd5A_2 O21A 1_555 1_555

#END
