
#######################################################################
#
#                 Cambridge Crystallographic Data Centre
#                                CCDC 
#
#######################################################################
#
# If this CIF has been generated from an entry in the Cambridge 
# Structural Database, then it will include bibliographic, chemical, 
# crystal, experimental, refinement or atomic coordinate data resulting 
# from the CCDC's data processing and validation procedures.
#
#######################################################################

data_XOPKAP
_symmetry_cell_setting           monoclinic
_symmetry_space_group_name_H-M   'P 21/c'
_symmetry_Int_Tables_number      14
_space_group_name_Hall           '-P 2ybc'
loop_
_symmetry_equiv_pos_site_id
_symmetry_equiv_pos_as_xyz
1 x,y,z
2 -x,1/2+y,1/2-z
3 -x,-y,-z
4 x,1/2-y,1/2+z
_cell_length_a                   7.4242(6)
_cell_length_b                   19.9968(17)
_cell_length_c                   12.8576(10)
_cell_angle_alpha                90
_cell_angle_beta                 92.527(2)
_cell_angle_gamma                90
_cell_volume                     1906.99
loop_
_atom_site_label
_atom_site_type_symbol
_atom_site_fract_x
_atom_site_fract_y
_atom_site_fract_z
Ag1 Ag 0.22694(3) 0.515029(14) 0.505037(16)
N1 N 0.4190(3) 0.48449(13) 0.62505(18)
N2 N 1.0703(4) 0.55650(13) 1.37651(18)
C1 C 0.4908(4) 0.47104(14) 0.7024(2)
C2 C 0.5788(3) 0.45413(14) 0.80040(18)
C3 C 0.5941(4) 0.38758(15) 0.8291(2)
H1 H 0.5530 0.3537 0.7845
C4 C 0.6723(5) 0.37313(15) 0.9261(2)
H2 H 0.6839 0.3288 0.9473
C5 C 0.7337(4) 0.42377(14) 0.99186(19)
H3 H 0.7850 0.4127 1.0569
C6 C 0.7206(3) 0.49076(13) 0.96329(18)
C7 C 0.6408(3) 0.50559(13) 0.86578(18)
H4 H 0.6289 0.5499 0.8444
C8 C 0.7870(3) 0.54557(12) 1.03361(18)
C9 C 0.7748(4) 0.61257(14) 1.0040(2)
H5 H 0.7255 0.6230 0.9382
C10 C 0.8331(5) 0.66402(15) 1.0687(2)
H6 H 0.8214 0.7081 1.0464
C11 C 0.9087(4) 0.65025(14) 1.1663(2)
H7 H 0.9494 0.6845 1.2102
C12 C 0.9224(3) 0.58417(13) 1.19722(18)
C13 C 0.8629(3) 0.53205(13) 1.13258(18)
H8 H 0.8739 0.4881 1.1555
C14 C 1.0048(4) 0.56834(13) 1.2976(2)
Ag1_2 Ag 1.22694(3) 0.515029(14) 1.505037(16)
N2_2 N 0.0703(4) 0.55650(13) 0.37651(18)
Cl1 Cl -0.06146(12) 0.62453(4) 0.66544(6)
O1 O -0.0519(6) 0.69220(15) 0.6468(4)
O2 O -0.0854(7) 0.6175(3) 0.7712(3)
O3 O 0.1102(4) 0.59112(17) 0.6573(3)
O4 O -0.2191(9) 0.5897(2) 0.6250(6)
C15 C 0.5692(11) 0.7564(4) 0.3297(6)
H9 H 0.6660 0.7729 0.2939
C16 C 0.3931(13) 0.7782(2) 0.3065(4)
H10 H 0.3695 0.8096 0.2543
C17 C 0.2589(8) 0.7531(3) 0.3609(5)
H11 H 0.1410 0.7669 0.3458
C18 C 0.2924(10) 0.7087(3) 0.4359(5)
H12 H 0.1978 0.6923 0.4735
C19 C 0.4580(14) 0.6875(3) 0.4578(4)
H13 H 0.4783 0.6561 0.5104
C20 C 0.5938(9) 0.7098(4) 0.4069(7)
H14 H 0.7092 0.6938 0.4233
O5? O -0.1269(19) 0.6054(5) 0.5656(12)
loop_
_geom_bond_atom_site_label_1
_geom_bond_atom_site_label_2
_geom_bond_site_symmetry_1
_geom_bond_site_symmetry_2
Ag1 N1 1_555 1_555
Cl1 O1 1_555 1_555
O2 Cl1 1_555 1_555
O3 Cl1 1_555 1_555
O4 Cl1 1_555 1_555
N1 C1 1_555 1_555
N2 C14 1_555 1_555
C1 C2 1_555 1_555
C2 C3 1_555 1_555
C3 H1 1_555 1_555
C4 C3 1_555 1_555
H2 C4 1_555 1_555
C5 C4 1_555 1_555
H3 C5 1_555 1_555
C6 C5 1_555 1_555
C7 C2 1_555 1_555
H4 C7 1_555 1_555
C8 C6 1_555 1_555
C9 C8 1_555 1_555
H5 C9 1_555 1_555
C10 C9 1_555 1_555
H6 C10 1_555 1_555
C11 C10 1_555 1_555
H7 C11 1_555 1_555
C12 C11 1_555 1_555
C13 C8 1_555 1_555
H8 C13 1_555 1_555
C14 C12 1_555 1_555
C15 H9 1_555 1_555
C16 C15 1_555 1_555
H10 C16 1_555 1_555
C17 C16 1_555 1_555
H11 C17 1_555 1_555
C18 C17 1_555 1_555
H12 C18 1_555 1_555
C19 C18 1_555 1_555
H13 C19 1_555 1_555
C20 C15 1_555 1_555
H14 C20 1_555 1_555
Ag1_2 N2 1_555 1_555
N2_2 Ag1 1_555 1_555
C6 C7 1_555 1_555
C12 C13 1_555 1_555
C19 C20 1_555 1_555

#END
