
#######################################################################
#
#                 Cambridge Crystallographic Data Centre
#                                CCDC 
#
#######################################################################
#
# If this CIF has been generated from an entry in the Cambridge 
# Structural Database, then it will include bibliographic, chemical, 
# crystal, experimental, refinement or atomic coordinate data resulting 
# from the CCDC's data processing and validation procedures.
#
#######################################################################

data_XOPMOG
_symmetry_cell_setting           monoclinic
_symmetry_space_group_name_H-M   'C 2/c'
_symmetry_Int_Tables_number      15
_space_group_name_Hall           '-C 2yn'
loop_
_symmetry_equiv_pos_site_id
_symmetry_equiv_pos_as_xyz
1 x,y,z
2 -x,y,1/2-z
3 1/2+x,1/2+y,z
4 1/2-x,1/2+y,1/2-z
5 -x,-y,-z
6 x,-y,1/2+z
7 1/2-x,1/2-y,-z
8 1/2+x,1/2-y,1/2+z
_cell_length_a                   15.5064(10)
_cell_length_b                   11.7116(8)
_cell_length_c                   29.7359(19)
_cell_angle_alpha                90
_cell_angle_beta                 103.6011(12)
_cell_angle_gamma                90
_cell_volume                     5248.74
loop_
_atom_site_label
_atom_site_type_symbol
_atom_site_fract_x
_atom_site_fract_y
_atom_site_fract_z
Cd1 Cd 0.622284(12) 0.152988(16) -0.210770(6)
O1 O 0.72346(12) 0.32225(16) 0.17815(6)
O2 O 0.80886(11) 0.36268(16) 0.13023(6)
O3 O 0.47858(11) 0.13695(16) -0.20331(6)
O4 O 0.42788(12) 0.32559(19) -0.00954(6)
O5 O 0.33574(11) 0.17582(15) -0.21960(6)
N1 N 0.60867(13) 0.3516(2) -0.20923(7)
N2 N 0.61792(15) 0.95586(18) -0.21004(8)
C1 C 0.73408(16) 0.3411(2) 0.13801(8)
C2 C 0.65446(16) 0.3370(2) 0.09831(8)
C3 C 0.57708(18) 0.2823(2) 0.10303(9)
H1 H 0.5749 0.2492 0.1319
C4 C 0.50328(18) 0.2754(3) 0.06621(9)
H2 H 0.4518 0.2352 0.0693
C5 C 0.65506(19) 0.3882(2) 0.05624(9)
H3 H 0.7071 0.4258 0.0523
C6 C 0.40979(16) 0.1704(2) -0.19136(8)
C7 C 0.41629(16) 0.2076(2) -0.14274(8)
C8 C 0.34647(17) 0.2678(2) -0.13160(9)
H4 H 0.2939 0.2812 -0.1549
C9 C 0.35220(18) 0.3083(3) -0.08742(9)
H5 H 0.3048 0.3506 -0.0804
C10 C 0.42863(17) 0.2861(2) -0.05322(9)
C11 C 0.49877(18) 0.2255(2) -0.06336(9)
H6 H 0.5507 0.2109 -0.0398
C12 C 0.49248(17) 0.1865(2) -0.10820(9)
H7 H 0.5404 0.1453 -0.1153
C13 C 0.50590(17) 0.3277(2) 0.02503(9)
C14 C 0.5802(2) 0.3848(3) 0.01976(9)
H8 H 0.5804 0.4217 -0.0086
C15 C 0.65754(18) 0.4107(2) -0.23278(10)
H9 H 0.6924 0.3696 -0.2496
C16 C 0.65966(17) 0.5283(2) -0.23374(10)
H10 H 0.6945 0.5667 -0.2514
C17 C 0.60993(18) 0.5910(2) -0.20845(10)
C18 C 0.56021(19) 0.5288(2) -0.18390(10)
H11 H 0.5256 0.5672 -0.1661
C19 C 0.56108(19) 0.4108(2) -0.18530(10)
H12 H 0.5261 0.3699 -0.1684
C20 C 0.62203(18) 0.8943(2) -0.24760(10)
H13 H 0.6264 0.9335 -0.2749
C21 C 0.62013(17) 0.7764(2) -0.24818(10)
H14 H 0.6245 0.7359 -0.2752
C22 C 0.61184(18) 0.7178(2) -0.20898(10)
C23 C 0.60576(18) 0.7814(2) -0.17008(10)
H15 H 0.5988 0.7442 -0.1428
C24 C 0.61005(18) 0.8992(2) -0.17191(10)
H16 H 0.6073 0.9418 -0.1451
Cd1_2 Cd 0.622284(12) 1.152988(16) -0.210770(6)
Cd1A Cd 0.377716(12) 0.152988(16) -0.289230(6)
Cd1F Cd 0.877716(12) 0.347012(16) 0.210770(6)
O1F O 0.77654(12) 0.17775(16) -0.17815(6)
O2F O 0.69114(11) 0.13732(16) -0.13023(6)
O3A O 0.52142(11) 0.13695(16) -0.29669(6)
O5A O 0.66426(11) 0.17582(15) -0.28040(6)
N2_2 N 0.61792(15) -0.04414(18) -0.21004(8)
loop_
_geom_bond_atom_site_label_1
_geom_bond_atom_site_label_2
_geom_bond_site_symmetry_1
_geom_bond_site_symmetry_2
Cd1 O3 1_555 1_555
O1 C1 1_555 1_555
O2 C1 1_555 1_555
O3 C6 1_555 1_555
O4 C10 1_555 1_555
O5 C6 1_555 1_555
N1 Cd1 1_555 1_555
N2 C20 1_555 1_555
C1 C2 1_555 1_555
C2 C3 1_555 1_555
C3 H1 1_555 1_555
C4 C3 1_555 1_555
H2 C4 1_555 1_555
C5 C2 1_555 1_555
H3 C5 1_555 1_555
C6 C7 1_555 1_555
C7 C8 1_555 1_555
C8 H4 1_555 1_555
C9 C8 1_555 1_555
H5 C9 1_555 1_555
C10 C9 1_555 1_555
C11 C10 1_555 1_555
H6 C11 1_555 1_555
C12 C7 1_555 1_555
H7 C12 1_555 1_555
C13 O4 1_555 1_555
C14 C5 1_555 1_555
H8 C14 1_555 1_555
C15 N1 1_555 1_555
H9 C15 1_555 1_555
C16 C15 1_555 1_555
H10 C16 1_555 1_555
C17 C16 1_555 1_555
C18 C17 1_555 1_555
H11 C18 1_555 1_555
C19 N1 1_555 1_555
H12 C19 1_555 1_555
C20 H13 1_555 1_555
C21 C20 1_555 1_555
H14 C21 1_555 1_555
C22 C17 1_555 1_555
C23 C22 1_555 1_555
H15 C23 1_555 1_555
C24 N2 1_555 1_555
H16 C24 1_555 1_555
Cd1_2 N2 1_555 1_555
Cd1A O3 1_555 1_555
Cd1F O1 1_555 1_555
O1F Cd1 1_555 1_555
O2F Cd1 1_555 1_555
O3A Cd1 1_555 1_555
O5A Cd1 1_555 1_555
N2_2 Cd1 1_555 1_555
O2 Cd1F 1_555 1_555
O5 Cd1A 1_555 1_555
C4 C13 1_555 1_555
C11 C12 1_555 1_555
C13 C14 1_555 1_555
C18 C19 1_555 1_555
C21 C22 1_555 1_555
C23 C24 1_555 1_555
Cd1A O3A 1_555 1_555

#END
