
#######################################################################
#
#                 Cambridge Crystallographic Data Centre
#                                CCDC 
#
#######################################################################
#
# If this CIF has been generated from an entry in the Cambridge 
# Structural Database, then it will include bibliographic, chemical, 
# crystal, experimental, refinement or atomic coordinate data resulting 
# from the CCDC's data processing and validation procedures.
#
#######################################################################

data_XOPTOM
_symmetry_cell_setting           monoclinic
_symmetry_space_group_name_H-M   'P 21/c'
_symmetry_Int_Tables_number      14
_space_group_name_Hall           '-P 2ybc'
loop_
_symmetry_equiv_pos_site_id
_symmetry_equiv_pos_as_xyz
1 x,y,z
2 -x,1/2+y,1/2-z
3 -x,-y,-z
4 x,1/2-y,1/2+z
_cell_length_a                   8.903(5)
_cell_length_b                   23.565(14)
_cell_length_c                   8.164(5)
_cell_angle_alpha                90
_cell_angle_beta                 111.178(9)
_cell_angle_gamma                90
_cell_volume                     1597.12
loop_
_atom_site_label
_atom_site_type_symbol
_atom_site_fract_x
_atom_site_fract_y
_atom_site_fract_z
Cu1 Cu 0.44327(5) 0.606455(19) 0.31416(6)
Cu2 Cu 0.0000 0.5000 0.5000
N1 N 0.5245(3) 0.62703(12) 0.5739(4)
O1 O 0.2956(3) 0.66954(12) 0.2628(4)
O2 O 0.2300(3) 0.75909(12) 0.2780(4)
O3 O 0.9635(4) 0.82505(14) 0.9312(5)
O4 O 0.9852(4) 0.73390(13) 1.0055(4)
H1 H 1.0483 0.7456 1.0999
O5 O 0.3009(4) 0.54840(12) 0.4059(4)
O6 O 0.1799(3) 0.55172(12) 0.6033(4)
O7 O 0.3686(4) 0.58340(14) 0.0685(4)
H2 H 0.2760 0.5945 0.0183
O8 O 0.6538(3) 0.57018(12) 0.3641(4)
O9 O 0.8803(3) 0.55240(11) 0.5919(4)
O10 O -0.0550(10) 0.5670(4) 0.2338(13)
C1 C 0.3230(5) 0.71811(17) 0.3351(5)
C2 C 0.4756(4) 0.72911(16) 0.4917(5)
C3 C 0.5209(5) 0.78558(16) 0.5262(5)
H3 H 0.4534 0.8136 0.4582
C4 C 0.6620(5) 0.80151(16) 0.6574(6)
H4 H 0.6900 0.8396 0.6761
C5 C 0.7619(4) 0.76007(17) 0.7615(5)
C6 C 0.7176(4) 0.70289(16) 0.7324(5)
H5 H 0.7841 0.6752 0.8034
C7 C 0.5757(4) 0.68686(15) 0.5990(5)
C8 C 0.9137(5) 0.77687(17) 0.9073(6)
C9 C 0.3893(4) 0.61664(16) 0.6381(5)
H6 H 0.3248 0.6508 0.6225
H7 H 0.4332 0.6079 0.7627
C10 C 0.2824(4) 0.56755(16) 0.5393(5)
C11 C 0.6552(4) 0.58452(15) 0.6526(5)
H8 H 0.6097 0.5507 0.6840
H9 H 0.7339 0.6000 0.7592
C12 C 0.7381(5) 0.56881(15) 0.5259(6)
C13 C -0.0500(13) 0.6047(5) 0.1082(17)
Cu1B Cu 0.55673(5) 0.393545(19) 0.68584(6)
Cu2_2 Cu 1.0000 0.5000 0.5000
N1B N 0.4755(3) 0.37297(12) 0.4261(4)
O1B O 0.7044(3) 0.33046(12) 0.7372(4)
O2B O 0.7700(3) 0.24091(12) 0.7220(4)
O3B O 0.0365(4) 0.17495(14) 0.0688(5)
O4B O 0.0148(4) 0.26610(13) -0.0055(4)
H1B H -0.0483 0.2544 -0.0999
O5B O 0.6991(4) 0.45160(12) 0.5941(4)
O6B O 0.8201(3) 0.44828(12) 0.3967(4)
O6B_2 O -0.1799(3) 0.44828(12) 0.3967(4)
O7B O 0.6314(4) 0.41660(14) 0.9315(4)
H2B H 0.7240 0.4055 0.9817
O8B O 0.3462(3) 0.42982(12) 0.6359(4)
O9B O 0.1197(3) 0.44760(11) 0.4081(4)
O9_2 O -0.1197(3) 0.55240(11) 0.5919(4)
O10B O 0.0550(10) 0.4330(4) 0.7662(13)
C1B C 0.6770(5) 0.28189(17) 0.6649(5)
C2B C 0.5244(4) 0.27089(16) 0.5083(5)
C3B C 0.4791(5) 0.21442(16) 0.4738(5)
H3B H 0.5466 0.1864 0.5418
C4B C 0.3380(5) 0.19849(16) 0.3426(6)
H4B H 0.3100 0.1604 0.3239
C5B C 0.2381(4) 0.23993(17) 0.2385(5)
C6B C 0.2824(4) 0.29711(16) 0.2676(5)
H5B H 0.2159 0.3248 0.1966
C7B C 0.4243(4) 0.31314(15) 0.4010(5)
C8B C 0.0863(5) 0.22313(17) 0.0927(6)
C9B C 0.6107(4) 0.38336(16) 0.3619(5)
H6B H 0.6752 0.3492 0.3775
H7B H 0.5668 0.3921 0.2373
C10B C 0.7176(4) 0.43245(16) 0.4607(5)
C11B C 0.3448(4) 0.41548(15) 0.3474(5)
H8B H 0.3903 0.4493 0.3160
H9B H 0.2661 0.4000 0.2408
C12B C 0.2619(5) 0.43119(15) 0.4741(6)
C13B C 0.0500(13) 0.3953(5) 0.8918(17)
O11 O 0.0989(5) 0.63131(17) 0.8545(6)
H10 H 0.111(14) 0.611(4) 0.779(11)
H11 H 0.110(10) 0.6649(11) 0.844(11)
O12 O 0.3314(7) 0.4740(2) 0.9787(7)
H12 H 0.329(19) 0.497(8) 1.058(16)
H13 H 0.241(8) 0.475(5) 0.892(11)
loop_
_geom_bond_atom_site_label_1
_geom_bond_atom_site_label_2
_geom_bond_site_symmetry_1
_geom_bond_site_symmetry_2
Cu1 N1 1_555 1_555
Cu2 O6 1_555 1_555
N1 C7 1_555 1_555
O1 Cu1 1_555 1_555
O2 C1 1_555 1_555
O3 C8 1_555 1_555
O4 H1 1_555 1_555
O5 Cu1 1_555 1_555
O6 C10 1_555 1_555
O7 Cu1 1_555 1_555
H2 O7 1_555 1_555
O8 Cu1 1_555 1_555
O9 C12 1_555 1_555
O10 Cu2 1_555 1_555
C1 O1 1_555 1_555
C2 C1 1_555 1_555
C3 C2 1_555 1_555
H3 C3 1_555 1_555
C4 C3 1_555 1_555
H4 C4 1_555 1_555
C5 C4 1_555 1_555
C6 C5 1_555 1_555
H5 C6 1_555 1_555
C7 C2 1_555 1_555
C8 O4 1_555 1_555
C9 N1 1_555 1_555
H6 C9 1_555 1_555
H7 C9 1_555 1_555
C10 O5 1_555 1_555
C11 N1 1_555 1_555
H8 C11 1_555 1_555
H9 C11 1_555 1_555
C12 O8 1_555 1_555
C13 O10 1_555 1_555
O11 H10 1_555 1_555
H11 O11 1_555 1_555
O12 H12 1_555 1_555
H13 O12 1_555 1_555
Cu1B N1B 1_555 1_555
Cu2_2 O9 1_555 1_555
N1B C7B 1_555 1_555
O1B Cu1B 1_555 1_555
O2B C1B 1_555 1_555
O3B C8B 1_555 1_555
O4B H1B 1_555 1_555
O5B Cu1B 1_555 1_555
O6B Cu2_2 1_555 1_555
O6B_2 Cu2 1_555 1_555
O7B Cu1B 1_555 1_555
H2B O7B 1_555 1_555
O8B Cu1B 1_555 1_555
O9B Cu2 1_555 1_555
O9_2 Cu2 1_555 1_555
O10B Cu2 1_555 1_555
C1B O1B 1_555 1_555
C2B C1B 1_555 1_555
C3B C2B 1_555 1_555
H3B C3B 1_555 1_555
C4B C3B 1_555 1_555
H4B C4B 1_555 1_555
C5B C4B 1_555 1_555
C6B C5B 1_555 1_555
H5B C6B 1_555 1_555
C7B C2B 1_555 1_555
C8B O4B 1_555 1_555
C9B N1B 1_555 1_555
H6B C9B 1_555 1_555
H7B C9B 1_555 1_555
C10B O5B 1_555 1_555
C11B N1B 1_555 1_555
H8B C11B 1_555 1_555
H9B C11B 1_555 1_555
C12B O8B 1_555 1_555
C13B O10B 1_555 1_555
C5 C8 1_555 1_555
C6 C7 1_555 1_555
C9 C10 1_555 1_555
C11 C12 1_555 1_555
O6B C10B 1_555 1_555
O9B C12B 1_555 1_555
C5B C8B 1_555 1_555
C6B C7B 1_555 1_555
C9B C10B 1_555 1_555
C11B C12B 1_555 1_555

#END
