
#######################################################################
#
#                 Cambridge Crystallographic Data Centre
#                                CCDC 
#
#######################################################################
#
# If this CIF has been generated from an entry in the Cambridge 
# Structural Database, then it will include bibliographic, chemical, 
# crystal, experimental, refinement or atomic coordinate data resulting 
# from the CCDC's data processing and validation procedures.
#
#######################################################################

data_XOPXEG
_symmetry_cell_setting           monoclinic
_symmetry_space_group_name_H-M   'C 2/c'
_symmetry_Int_Tables_number      15
_space_group_name_Hall           '-C 2yn'
loop_
_symmetry_equiv_pos_site_id
_symmetry_equiv_pos_as_xyz
1 x,y,z
2 1/2+x,1/2+y,z
3 -x,y,1/2-z
4 1/2-x,1/2+y,1/2-z
5 -x,-y,-z
6 1/2-x,1/2-y,-z
7 x,-y,1/2+z
8 1/2+x,1/2-y,1/2+z
_cell_length_a                   18.991(4)
_cell_length_b                   9.987(2)
_cell_length_c                   24.707(5)
_cell_angle_alpha                90
_cell_angle_beta                 100.697(3)
_cell_angle_gamma                90
_cell_volume                     4604.58
loop_
_atom_site_label
_atom_site_type_symbol
_atom_site_fract_x
_atom_site_fract_y
_atom_site_fract_z
Au1 Au 0.03997(4) 1.38710(7) 1.04792(3)
Au2 Au 0.16758(3) 1.21509(7) 1.11660(3)
Cd1 Cd 0.08105(6) 1.04074(12) 0.89063(5)
O1 O 0.0489(8) 1.183(2) 0.8178(7)
N1 N 0.0389(8) 1.0284(16) 1.1239(7)
N2 N 0.3010(8) 1.3847(16) 1.1069(6)
N3 N 0.0602(11) 1.1896(17) 0.9539(8)
N4 N 0.0310(11) 1.563(2) 1.1519(8)
N5 N 0.0995(7) 0.8431(16) 0.8423(6)
N6 N 0.1203(7) 0.8737(15) 0.9534(7)
C1 C 0.0860(9) 1.0942(18) 1.1231(8)
C2 C 0.2507(8) 1.3273(18) 1.1110(6)
C3 C 0.0478(11) 1.2639(19) 0.9853(10)
C4 C 0.0327(11) 1.499(2) 1.1132(8)
C5 C 0.0854(11) 0.829(3) 0.7895(9)
H1 H 0.0700 0.9032 0.7679
C6 C 0.0922(15) 0.706(3) 0.7632(11)
H2 H 0.0809 0.6971 0.7251
C7 C 0.1162(13) 0.602(3) 0.7962(14)
H3 H 0.1217 0.5199 0.7795
C8 C 0.1332(10) 0.607(2) 0.8530(10)
C9 C 0.1591(13) 0.504(3) 0.8936(12)
H4 H 0.1678 0.4201 0.8799
C10 C 0.1711(13) 0.517(2) 0.9462(12)
H5 H 0.1876 0.4456 0.9691
C11 C 0.1587(10) 0.645(2) 0.9688(11)
C12 C 0.1697(13) 0.668(3) 1.0267(10)
H6 H 0.1862 0.5992 1.0511
C13 C 0.1559(14) 0.790(3) 1.0458(11)
H7 H 0.1630 0.8072 1.0834
C14 C 0.1307(11) 0.891(2) 1.0077(9)
H8 H 0.1206 0.9742 1.0211
C15 C 0.1331(8) 0.7522(18) 0.9325(9)
C16 C 0.1204(8) 0.7396(18) 0.8751(8)
Au1D Au -0.03997(4) 1.61290(7) 0.95208(3)
Cd1D Cd -0.08105(6) 0.95926(12) 1.10937(5)
Cd1E Cd 0.41895(6) 1.45926(12) 1.10937(5)
N1D N -0.0389(8) 0.9716(16) 0.8761(7)
N2E N 0.1990(8) 1.1153(16) 0.8931(6)
O2 O 0.8931(11) 0.7151(19) 0.2650(7)
H9 H 0.8779 0.7237 0.2319
C17 C 0.8421(13) 0.767(2) 0.2949(11)
H10 H 0.8683 0.7945 0.3312
C18 C 0.8060(18) 0.888(3) 0.2674(12)
H11 H 0.8413 0.9546 0.2637
H12 H 0.7733 0.9235 0.2891
H13 H 0.7800 0.8643 0.2315
C19 C 0.7910(16) 0.659(3) 0.3040(16)
H14 H 0.7594 0.6391 0.2699
H15 H 0.7634 0.6883 0.3306
H16 H 0.8173 0.5797 0.3173
loop_
_geom_bond_atom_site_label_1
_geom_bond_atom_site_label_2
_geom_bond_site_symmetry_1
_geom_bond_site_symmetry_2
Au1 Au2 1_555 1_555
Au2 C1 1_555 1_555
Cd1 O1 1_555 1_555
N1 C1 1_555 1_555
N2 C2 1_555 1_555
N3 Cd1 1_555 1_555
N4 C4 1_555 1_555
N5 Cd1 1_555 1_555
N6 Cd1 1_555 1_555
C2 Au2 1_555 1_555
C3 Au1 1_555 1_555
C4 Au1 1_555 1_555
C5 N5 1_555 1_555
H1 C5 1_555 1_555
C6 C5 1_555 1_555
H2 C6 1_555 1_555
C7 C6 1_555 1_555
H3 C7 1_555 1_555
C8 C7 1_555 1_555
C9 C8 1_555 1_555
H4 C9 1_555 1_555
C10 C9 1_555 1_555
H5 C10 1_555 1_555
C11 C10 1_555 1_555
C12 C11 1_555 1_555
H6 C12 1_555 1_555
C13 C12 1_555 1_555
H7 C13 1_555 1_555
C14 N6 1_555 1_555
H8 C14 1_555 1_555
C15 N6 1_555 1_555
C16 N5 1_555 1_555
O2 H9 1_555 1_555
C17 O2 1_555 1_555
H10 C17 1_555 1_555
C18 C17 1_555 1_555
H11 C18 1_555 1_555
H12 C18 1_555 1_555
H13 C18 1_555 1_555
C19 C17 1_555 1_555
H14 C19 1_555 1_555
H15 C19 1_555 1_555
H16 C19 1_555 1_555
Au1D Au1 1_555 1_555
Cd1D N1 1_555 1_555
Cd1E N2 1_555 1_555
N1D Cd1 1_555 1_555
N2E Cd1 1_555 1_555
N3 C3 1_555 1_555
C8 C16 1_555 1_555
C11 C15 1_555 1_555
C13 C14 1_555 1_555
C15 C16 1_555 1_555

#END
