
#######################################################################
#
#                 Cambridge Crystallographic Data Centre
#                                CCDC 
#
#######################################################################
#
# If this CIF has been generated from an entry in the Cambridge 
# Structural Database, then it will include bibliographic, chemical, 
# crystal, experimental, refinement or atomic coordinate data resulting 
# from the CCDC's data processing and validation procedures.
#
#######################################################################

data_XOQCEN
_symmetry_cell_setting           monoclinic
_symmetry_space_group_name_H-M   'P 21/c'
_symmetry_Int_Tables_number      14
_space_group_name_Hall           '-P 2ybc'
loop_
_symmetry_equiv_pos_site_id
_symmetry_equiv_pos_as_xyz
1 x,y,z
2 -x,1/2+y,1/2-z
3 -x,-y,-z
4 x,1/2-y,1/2+z
_cell_length_a                   11.758(2)
_cell_length_b                   20.008(3)
_cell_length_c                   17.143(3)
_cell_angle_alpha                90
_cell_angle_beta                 100.766(3)
_cell_angle_gamma                90
_cell_volume                     3961.97
loop_
_atom_site_label
_atom_site_type_symbol
_atom_site_fract_x
_atom_site_fract_y
_atom_site_fract_z
C1 C 0.5698(4) -0.1407(2) 0.2659(2)
C2 C 0.5944(4) -0.2155(2) 0.2721(3)
C3 C 0.5034(4) -0.2612(2) 0.2638(2)
H1 H 0.4273 -0.2460 0.2529
C4 C 0.5261(4) -0.3296(2) 0.2716(2)
C5 C 0.6398(4) -0.3523(2) 0.2844(2)
H2 H 0.6548 -0.3979 0.2890
C6 C 0.7308(4) -0.3076(2) 0.2903(3)
C7 C 0.7089(4) -0.2392(2) 0.2861(2)
H3 H 0.7702 -0.2091 0.2926
C8 C 0.4276(4) -0.3775(2) 0.2663(3)
C9 C 0.9234(4) 0.0216(2) 0.2511(3)
C10 C 1.0213(4) -0.0253(2) 0.2531(2)
C11 C 1.0057(4) -0.0927(2) 0.2666(2)
H4 H 0.9348 -0.1083 0.2757
C12 C 1.0971(4) -0.1370(2) 0.2663(3)
C13 C 1.2035(4) -0.1131(2) 0.2536(3)
H5 H 1.2642 -0.1428 0.2527
C14 C 1.2195(4) -0.0459(2) 0.2424(3)
C15 C 1.1263(4) -0.0007(2) 0.2401(3)
H6 H 1.1353 0.0445 0.2300
C16 C 1.0802(4) -0.2113(2) 0.2747(3)
C17 C 0.5623(4) 0.0526(2) 0.3950(3)
H7 H 0.4989 0.0603 0.3547
C18 C 0.5588(4) 0.0744(2) 0.4722(3)
C19 C 0.6492(4) 0.0589(2) 0.5324(3)
H8 H 0.6477 0.0709 0.5846
C20 C 0.7422(4) 0.0251(2) 0.5134(3)
H9 H 0.8053 0.0144 0.5529
C21 C 0.7415(4) 0.0074(2) 0.4366(3)
H10 H 0.8053 -0.0154 0.4250
C22 C 0.4001(4) 0.1496(2) 0.4311(3)
H11 H 0.3386 0.1239 0.3990
H12 H 0.4490 0.1679 0.3966
C23 C 0.3493(4) 0.2061(2) 0.4749(3)
C24 C 0.4508(4) 0.2432(2) 0.5257(3)
H13 H 0.4225 0.2777 0.5569
H14 H 0.4984 0.2125 0.5616
C25 C 0.6660(4) 0.3091(2) 0.5807(3)
H15 H 0.6279 0.2897 0.6179
C26 C 0.6173(4) 0.3032(2) 0.5008(3)
C27 C 0.6745(4) 0.3328(2) 0.4463(3)
H16 H 0.6434 0.3309 0.3923
C28 C 0.7770(4) 0.3648(2) 0.4723(3)
H17 H 0.8172 0.3843 0.4363
C29 C 0.8202(4) 0.3680(2) 0.5531(3)
H18 H 0.8904 0.3896 0.5704
C30 C 0.2814(4) 0.2538(2) 0.4142(2)
H19 H 0.3320 0.2727 0.3813
H20 H 0.2195 0.2299 0.3801
C31 C 0.2862(4) 0.3964(3) 0.3740(3)
H21 H 0.2666 0.3691 0.3296
C32 C 0.2729(4) 0.3717(2) 0.4465(3)
C33 C 0.2976(4) 0.4107(2) 0.5124(3)
H22 H 0.2860 0.3955 0.5616
C34 C 0.3405(4) 0.4739(3) 0.5031(3)
H23 H 0.3608 0.5018 0.5468
C35 C 0.3532(4) 0.4952(2) 0.4290(3)
H24 H 0.3822 0.5380 0.4241
C36 C 0.2696(4) 0.1764(2) 0.5269(3)
H25 H 0.3148 0.1508 0.5699
H26 H 0.2306 0.2120 0.5499
C37 C 0.0166(4) 0.1441(2) 0.3862(3)
H27 H 0.0589 0.1286 0.3491
C38 C 0.0722(4) 0.1532(2) 0.4632(3)
C39 C 0.0111(4) 0.1756(2) 0.5190(3)
H28 H 0.0467 0.1811 0.5718
C40 C -0.1038(4) 0.1898(2) 0.4941(3)
H29 H -0.1470 0.2066 0.5299
C41 C -0.1559(4) 0.1791(2) 0.4160(3)
H30 H -0.2346 0.1878 0.4004
N1 N 0.6552(3) 0.02082(19) 0.3781(2)
N2 N 0.7664(3) 0.34173(19) 0.6066(2)
N3 N 0.3261(3) 0.4580(2) 0.3644(2)
N4 N -0.0968(3) 0.1568(2) 0.3624(2)
O1 O 0.6581(3) -0.10365(16) 0.28715(17)
O2 O 0.4712(2) -0.12272(16) 0.24036(17)
O3 O 0.3275(3) -0.35499(16) 0.24015(17)
O4 O 0.4494(3) -0.43798(16) 0.28594(17)
O5 O 0.8396(2) -0.33275(15) 0.30004(17)
H31 H 0.8879 -0.3009 0.3024
O6 O 0.8380(3) 0.00306(16) 0.27995(17)
O7 O 0.9313(3) 0.07899(16) 0.22058(17)
O8 O 0.9868(3) -0.23283(16) 0.28872(18)
O9 O 1.1650(2) -0.24693(17) 0.26714(17)
O10 O 1.3228(3) -0.02008(16) 0.23162(18)
H32 H 1.3727 -0.0511 0.2341
O11 O 0.4669(3) 0.10788(16) 0.49110(17)
O12 O 0.5162(3) 0.27214(16) 0.47183(18)
O13 O 0.2343(3) 0.30603(16) 0.45540(17)
O14 O 0.1863(3) 0.13406(16) 0.47962(17)
Zn1 Zn 0.83048(4) 0.15475(3) 0.23544(3)
Zn2 Zn 0.66607(4) -0.00851(3) 0.25707(3)
N2C N 0.7664(3) 0.15827(19) 0.1066(2)
N3A N 0.6739(3) -0.0420(2) 0.1356(2)
N4_2 N 0.9032(3) 0.1568(2) 0.3624(2)
O3A O 0.6725(3) 0.14501(16) 0.25985(17)
O4A O 0.5506(3) 0.06202(16) 0.21406(17)
O9A O 0.8350(2) 0.25307(17) 0.23286(17)
Zn1_2 Zn -0.16952(4) 0.15475(3) 0.23544(3)
Zn1A Zn 0.16952(4) -0.34525(3) 0.26456(3)
Zn1A_2 Zn 1.16952(4) -0.34525(3) 0.26456(3)
Zn1C Zn 0.83048(4) 0.34525(3) 0.73544(3)
Zn2A Zn 0.33393(4) -0.50851(3) 0.24293(3)
Zn2A_2 Zn 0.33393(4) 0.49149(3) 0.24293(3)
O15 O 1.0000 0.0000 1.0000
O16 O 0.0000 0.0000 0.5000
H33? H 0.0082 -0.0398 0.5176
H34? H 1.0614 -0.0152 1.0286
H35? H 0.9413 -0.0154 1.0164
H36? H 0.0000 0.0000 0.4504
loop_
_geom_bond_atom_site_label_1
_geom_bond_atom_site_label_2
_geom_bond_site_symmetry_1
_geom_bond_site_symmetry_2
C1 C2 1_555 1_555
C2 C3 1_555 1_555
C3 H1 1_555 1_555
C4 C3 1_555 1_555
C5 C4 1_555 1_555
H2 C5 1_555 1_555
C6 C5 1_555 1_555
C7 C2 1_555 1_555
H3 C7 1_555 1_555
C8 C4 1_555 1_555
C9 C10 1_555 1_555
C10 C11 1_555 1_555
C11 H4 1_555 1_555
C12 C11 1_555 1_555
C13 C12 1_555 1_555
H5 C13 1_555 1_555
C14 C13 1_555 1_555
C15 C10 1_555 1_555
H6 C15 1_555 1_555
C16 C12 1_555 1_555
C17 H7 1_555 1_555
C18 C17 1_555 1_555
C19 C18 1_555 1_555
H8 C19 1_555 1_555
C20 C19 1_555 1_555
H9 C20 1_555 1_555
C21 C20 1_555 1_555
H10 C21 1_555 1_555
C22 H11 1_555 1_555
H12 C22 1_555 1_555
C23 C22 1_555 1_555
C24 C23 1_555 1_555
H13 C24 1_555 1_555
H14 C24 1_555 1_555
C25 H15 1_555 1_555
C26 C25 1_555 1_555
C27 C26 1_555 1_555
H16 C27 1_555 1_555
C28 C27 1_555 1_555
H17 C28 1_555 1_555
C29 C28 1_555 1_555
H18 C29 1_555 1_555
C30 C23 1_555 1_555
H19 C30 1_555 1_555
H20 C30 1_555 1_555
C31 H21 1_555 1_555
C32 C31 1_555 1_555
C33 C32 1_555 1_555
H22 C33 1_555 1_555
C34 C33 1_555 1_555
H23 C34 1_555 1_555
C35 C34 1_555 1_555
H24 C35 1_555 1_555
C36 C23 1_555 1_555
H25 C36 1_555 1_555
H26 C36 1_555 1_555
C37 H27 1_555 1_555
C38 C37 1_555 1_555
C39 C38 1_555 1_555
H28 C39 1_555 1_555
C40 C39 1_555 1_555
H29 C40 1_555 1_555
C41 C40 1_555 1_555
H30 C41 1_555 1_555
N1 C17 1_555 1_555
N2 C25 1_555 1_555
N3 C31 1_555 1_555
N4 C37 1_555 1_555
O1 C1 1_555 1_555
O2 C1 1_555 1_555
O3 C8 1_555 1_555
O4 C8 1_555 1_555
O5 C6 1_555 1_555
H31 O5 1_555 1_555
O6 C9 1_555 1_555
O7 C9 1_555 1_555
O8 C16 1_555 1_555
O9 C16 1_555 1_555
O10 C14 1_555 1_555
H32 O10 1_555 1_555
O11 C18 1_555 1_555
O12 C24 1_555 1_555
O13 C30 1_555 1_555
O14 C36 1_555 1_555
Zn1 O7 1_555 1_555
Zn2 N1 1_555 1_555
N2C Zn1 1_555 1_555
N3A Zn2 1_555 1_555
N4_2 Zn1 1_555 1_555
O3A Zn1 1_555 1_555
O4A Zn2 1_555 1_555
O9A Zn1 1_555 1_555
Zn1_2 N4 1_555 1_555
Zn1A O3 1_555 1_555
Zn1A_2 O9 1_555 1_555
Zn1C N2 1_555 1_555
Zn2A O4 1_555 1_555
Zn2A_2 N3 1_555 1_555
C6 C7 1_555 1_555
C14 C15 1_555 1_555
C21 N1 1_555 1_555
C22 O11 1_555 1_555
C26 O12 1_555 1_555
C29 N2 1_555 1_555
C32 O13 1_555 1_555
C35 N3 1_555 1_555
C38 O14 1_555 1_555
C41 N4 1_555 1_555
O1 Zn2 1_555 1_555
O6 Zn2 1_555 1_555

#END
