
#######################################################################
#
#                 Cambridge Crystallographic Data Centre
#                                CCDC 
#
#######################################################################
#
# If this CIF has been generated from an entry in the Cambridge 
# Structural Database, then it will include bibliographic, chemical, 
# crystal, experimental, refinement or atomic coordinate data resulting 
# from the CCDC's data processing and validation procedures.
#
#######################################################################

data_XOQCOX
_symmetry_cell_setting           monoclinic
_symmetry_space_group_name_H-M   'P 21/n'
_symmetry_Int_Tables_number      14
_space_group_name_Hall           '-P 2yn'
loop_
_symmetry_equiv_pos_site_id
_symmetry_equiv_pos_as_xyz
1 x,y,z
2 1/2-x,1/2+y,1/2-z
3 -x,-y,-z
4 1/2+x,1/2-y,1/2+z
_cell_length_a                   7.6026(5)
_cell_length_b                   14.7841(10)
_cell_length_c                   21.0839(15)
_cell_angle_alpha                90
_cell_angle_beta                 96.7890(10)
_cell_angle_gamma                90
_cell_volume                     2353.16
loop_
_atom_site_label
_atom_site_type_symbol
_atom_site_fract_x
_atom_site_fract_y
_atom_site_fract_z
Sr1 Sr 0.50569(4) 0.480693(17) 0.327905(13)
O1 O 0.7618(3) 0.50604(13) 0.25769(11)
O2 O 0.9191(3) 0.44674(14) 0.18679(10)
H1 H 0.950(4) 0.396(2) 0.1770(15)
O3 O 1.0023(3) 0.29118(12) 0.15439(9)
O4 O 0.9505(3) 0.14930(13) 0.18365(10)
O5 O 0.6075(3) 0.29494(14) 0.55511(10)
H2 H 0.584(5) 0.272(2) 0.5803(17)
O6 O 0.3399(3) 0.37027(12) 0.38686(10)
O7 O 0.2283(3) 0.23672(14) 0.40744(10)
O8 O 0.1769(3) 0.08643(14) 0.35872(10)
H3 H 0.196(4) 0.138(2) 0.3756(16)
O9 O 0.2076(3) 0.02425(13) 0.26577(9)
O10 O 0.6806(3) 0.19327(14) 0.02005(11)
H4 H 0.708(5) 0.216(2) -0.0126(17)
O11 O 0.6397(4) 0.52280(15) 0.44298(13)
H5 H 0.673(6) 0.5740(13) 0.452(2)
O12 O 0.2423(3) 0.55915(14) 0.37898(10)
H6 H 0.280(4) 0.6013(15) 0.4024(12)
H7 H 0.168(3) 0.5276(17) 0.3939(14)
N1 N 0.7794(3) 0.34671(15) 0.33024(11)
N2 N 0.8307(3) 0.20961(16) 0.29516(12)
H8 H 0.834(4) 0.159(2) 0.2928(16)
N3 N 0.4068(3) 0.31379(15) 0.26527(11)
N4 N 0.3676(3) 0.17704(16) 0.22307(12)
H9 H 0.354(4) 0.138(2) 0.1984(16)
C1 C 0.8408(4) 0.44130(18) 0.23794(14)
C2 C 0.8409(4) 0.35236(18) 0.27113(13)
C3 C 0.8752(4) 0.26733(18) 0.24898(13)
C4 C 0.7760(4) 0.25855(19) 0.34354(13)
C5 C 0.7220(4) 0.21819(18) 0.40164(13)
C6 C 0.6941(4) 0.12471(19) 0.40548(14)
H10 H 0.7133 0.0870 0.3717
C7 C 0.6375(4) 0.0894(2) 0.46019(15)
H11 H 0.6190 0.0274 0.4630
C8 C 0.6080(4) 0.1440(2) 0.51077(14)
H12 H 0.5694 0.1191 0.5472
C9 C 0.6366(4) 0.23675(19) 0.50702(13)
C10 C 0.6939(4) 0.27376(19) 0.45261(13)
H13 H 0.7136 0.3357 0.4503
C11 C 0.9471(4) 0.23220(19) 0.19150(13)
C12 C 0.3006(4) 0.29170(19) 0.37154(14)
C13 C 0.3369(4) 0.25770(18) 0.30790(13)
C14 C 0.3107(4) 0.17238(18) 0.28215(13)
C15 C 0.4224(4) 0.26262(18) 0.21414(13)
C16 C 0.4869(4) 0.29128(18) 0.15435(13)
C17 C 0.4756(4) 0.38227(18) 0.13689(14)
H14 H 0.4291 0.4244 0.1632
C18 C 0.5340(4) 0.4094(2) 0.08025(14)
H15 H 0.5262 0.4701 0.0686
C19 C 0.6040(4) 0.34803(19) 0.04047(14)
H16 H 0.6443 0.3672 0.0027
C20 C 0.6132(4) 0.25704(19) 0.05783(13)
C21 C 0.5566(4) 0.22878(19) 0.11447(13)
H17 H 0.5649 0.1681 0.1260
C22 C 0.2284(4) 0.08842(19) 0.30228(14)
Sr1A Sr -0.00569(4) -0.019307(17) 0.172095(13)
Sr1A_2 Sr 0.99431(4) -0.019307(17) 0.172095(13)
O4A O 0.5495(3) 0.64930(13) 0.31635(10)
O9A O 0.2924(3) 0.52425(13) 0.23423(9)
O13 O 1.0090(4) 0.4556(2) 0.4414(2)
H18 H 1.026(7) 0.4052(19) 0.456(3)
H19 H 0.908(3) 0.472(3) 0.430(3)
loop_
_geom_bond_atom_site_label_1
_geom_bond_atom_site_label_2
_geom_bond_site_symmetry_1
_geom_bond_site_symmetry_2
Sr1 O1 1_555 1_555
O1 C1 1_555 1_555
O2 H1 1_555 1_555
O3 C11 1_555 1_555
O4 C11 1_555 1_555
O5 H2 1_555 1_555
O6 Sr1 1_555 1_555
O7 C12 1_555 1_555
O8 H3 1_555 1_555
O9 C22 1_555 1_555
O10 H4 1_555 1_555
O11 Sr1 1_555 1_555
H5 O11 1_555 1_555
O12 Sr1 1_555 1_555
H6 O12 1_555 1_555
H7 O12 1_555 1_555
N1 Sr1 1_555 1_555
N2 H8 1_555 1_555
N3 Sr1 1_555 1_555
N4 H9 1_555 1_555
C1 O2 1_555 1_555
C2 N1 1_555 1_555
C3 N2 1_555 1_555
C4 N1 1_555 1_555
C5 C4 1_555 1_555
C6 C5 1_555 1_555
H10 C6 1_555 1_555
C7 C6 1_555 1_555
H11 C7 1_555 1_555
C8 C7 1_555 1_555
H12 C8 1_555 1_555
C9 O5 1_555 1_555
C10 C5 1_555 1_555
H13 C10 1_555 1_555
C11 C3 1_555 1_555
C12 O6 1_555 1_555
C13 N3 1_555 1_555
C14 N4 1_555 1_555
C15 N3 1_555 1_555
C16 C15 1_555 1_555
C17 C16 1_555 1_555
H14 C17 1_555 1_555
C18 C17 1_555 1_555
H15 C18 1_555 1_555
C19 C18 1_555 1_555
H16 C19 1_555 1_555
C20 O10 1_555 1_555
C21 C16 1_555 1_555
H17 C21 1_555 1_555
C22 O8 1_555 1_555
O13 H18 1_555 1_555
H19 O13 1_555 1_555
Sr1A O9 1_555 1_555
Sr1A_2 O4 1_555 1_555
O4A Sr1 1_555 1_555
O9A Sr1 1_555 1_555
N2 C4 1_555 1_555
N4 C15 1_555 1_555
C1 C2 1_555 1_555
C2 C3 1_555 1_555
C8 C9 1_555 1_555
C9 C10 1_555 1_555
C12 C13 1_555 1_555
C13 C14 1_555 1_555
C14 C22 1_555 1_555
C19 C20 1_555 1_555
C20 C21 1_555 1_555

#END
