
#######################################################################
#
#                 Cambridge Crystallographic Data Centre
#                                CCDC 
#
#######################################################################
#
# If this CIF has been generated from an entry in the Cambridge 
# Structural Database, then it will include bibliographic, chemical, 
# crystal, experimental, refinement or atomic coordinate data resulting 
# from the CCDC's data processing and validation procedures.
#
#######################################################################

data_XOQDIS
_symmetry_cell_setting           monoclinic
_symmetry_space_group_name_H-M   'P 21/n'
_symmetry_Int_Tables_number      14
_space_group_name_Hall           '-P 2yn'
loop_
_symmetry_equiv_pos_site_id
_symmetry_equiv_pos_as_xyz
1 x,y,z
2 1/2-x,1/2+y,1/2-z
3 -x,-y,-z
4 1/2+x,1/2-y,1/2+z
_cell_length_a                   9.5955(19)
_cell_length_b                   11.276(2)
_cell_length_c                   13.318(3)
_cell_angle_alpha                90
_cell_angle_beta                 95.62(3)
_cell_angle_gamma                90
_cell_volume                     1434.07
loop_
_atom_site_label
_atom_site_type_symbol
_atom_site_fract_x
_atom_site_fract_y
_atom_site_fract_z
Mn1 Mn 0.5000 0.0000 0.5000
N1 N 0.3033(3) -0.0313(3) 0.3910(3)
C1 C 0.3047(5) -0.0865(5) 0.3037(4)
H1 H 0.3897 -0.1144 0.2852
C2 C 0.0555(5) -0.0087(5) 0.3544(5)
H2 H -0.0281 0.0193 0.3754
C3 C 0.1782(5) 0.0066(5) 0.4144(4)
H3 H 0.1745 0.0459 0.4754
C4 C 0.0558(5) -0.0651(4) 0.2638(4)
C5 C 0.1836(6) -0.1048(5) 0.2376(4)
H4 H 0.1892 -0.1435 0.1765
C6 C -0.0824(6) -0.0837(4) 0.2045(4)
H5 H -0.1622 -0.0743 0.2381
C7 C -0.0997(6) -0.1113(5) 0.1125(4)
H6 H -0.0204 -0.1216 0.0784
C8 C -0.2400(6) -0.1285(4) 0.0547(4)
C9 C -0.3643(7) -0.1436(5) 0.0983(4)
H7 H -0.3644 -0.1422 0.1681
C10 C -0.2461(6) -0.1309(5) -0.0475(5)
H8 H -0.1651 -0.1222 -0.0798
C11 C -0.4890(6) -0.1608(5) 0.0372(4)
H9 H -0.5711 -0.1722 0.0677
C12 C -0.3743(5) -0.1467(5) -0.1032(4)
H10 H -0.3765 -0.1470 -0.1732
N2 N -0.4952(4) -0.1614(3) -0.0628(3)
Ag1 Ag -0.72179(3) -0.17122(3) -0.17183(2)
C13 C -0.8528(4) -0.2590(3) -0.0815(3)
C14 C -0.6517(4) -0.1020(3) -0.3033(3)
N3 N -0.9170(4) -0.3208(3) -0.0374(3)
N4 N -0.6055(4) -0.0671(3) -0.3727(2)
N1B N -0.3033(3) 0.0313(3) -0.3910(3)
C1B C -0.3047(5) 0.0865(5) -0.3037(4)
H1B H -0.3897 0.1144 -0.2852
C2B C -0.0555(5) 0.0087(5) -0.3544(5)
H2B H 0.0281 -0.0193 -0.3754
C3B C -0.1782(5) -0.0066(5) -0.4144(4)
H3B H -0.1745 -0.0459 -0.4754
C4B C -0.0558(5) 0.0651(4) -0.2638(4)
C5B C -0.1836(6) 0.1048(5) -0.2376(4)
H4B H -0.1892 0.1435 -0.1765
C6B C 0.0824(6) 0.0837(4) -0.2045(4)
H5B H 0.1622 0.0743 -0.2381
C7B C 0.0997(6) 0.1113(5) -0.1125(4)
H6B H 0.0204 0.1216 -0.0784
C8B C 0.2400(6) 0.1285(4) -0.0547(4)
C9B C 0.3643(7) 0.1436(5) -0.0983(4)
H7B H 0.3644 0.1422 -0.1681
C10B C 0.2461(6) 0.1309(5) 0.0475(5)
H8B H 0.1651 0.1222 0.0798
C11B C 0.4890(6) 0.1608(5) -0.0372(4)
H9B H 0.5711 0.1722 -0.0677
C12B C 0.3743(5) 0.1467(5) 0.1032(4)
H10B H 0.3765 0.1470 0.1732
N2B N 0.4952(4) 0.1614(3) 0.0628(3)
Ag1B Ag 0.72179(3) 0.17122(3) 0.17183(2)
C13B C 0.8528(4) 0.2590(3) 0.0815(3)
C14B C 0.6517(4) 0.1020(3) 0.3033(3)
N3B N 0.9170(4) 0.3208(3) 0.0374(3)
N4B N 0.6055(4) 0.0671(3) 0.3727(2)
Mn1_2 Mn -0.5000 0.0000 -0.5000
Mn1A Mn -1.0000 -0.5000 0.0000
Mn1A_2 Mn 1.0000 0.5000 0.0000
N1B_2 N 0.6967(3) 0.0313(3) 0.6090(3)
N3A N 0.4170(4) 0.1792(3) 0.5374(3)
N3C N 0.5830(4) -0.1792(3) 0.4626(3)
N4_2 N 0.3945(4) -0.0671(3) 0.6273(2)
loop_
_geom_bond_atom_site_label_1
_geom_bond_atom_site_label_2
_geom_bond_site_symmetry_1
_geom_bond_site_symmetry_2
Mn1 N1 1_555 1_555
N1 C1 1_555 1_555
C1 H1 1_555 1_555
C2 H2 1_555 1_555
C3 N1 1_555 1_555
H3 C3 1_555 1_555
C4 C2 1_555 1_555
C5 C1 1_555 1_555
H4 C5 1_555 1_555
C6 C4 1_555 1_555
H5 C6 1_555 1_555
C7 C6 1_555 1_555
H6 C7 1_555 1_555
C8 C7 1_555 1_555
C9 C8 1_555 1_555
H7 C9 1_555 1_555
C10 C8 1_555 1_555
H8 C10 1_555 1_555
C11 C9 1_555 1_555
H9 C11 1_555 1_555
C12 C10 1_555 1_555
H10 C12 1_555 1_555
N2 C11 1_555 1_555
Ag1 N2 1_555 1_555
C13 Ag1 1_555 1_555
C14 Ag1 1_555 1_555
N3 C13 1_555 1_555
N4 C14 1_555 1_555
N1B C1B 1_555 1_555
C1B H1B 1_555 1_555
C2B H2B 1_555 1_555
C3B N1B 1_555 1_555
H3B C3B 1_555 1_555
C4B C2B 1_555 1_555
C5B C1B 1_555 1_555
H4B C5B 1_555 1_555
C6B C4B 1_555 1_555
H5B C6B 1_555 1_555
C7B C6B 1_555 1_555
H6B C7B 1_555 1_555
C8B C7B 1_555 1_555
C9B C8B 1_555 1_555
H7B C9B 1_555 1_555
C10B C8B 1_555 1_555
H8B C10B 1_555 1_555
C11B C9B 1_555 1_555
H9B C11B 1_555 1_555
C12B C10B 1_555 1_555
H10B C12B 1_555 1_555
N2B C11B 1_555 1_555
Ag1B N2B 1_555 1_555
C13B Ag1B 1_555 1_555
C14B Ag1B 1_555 1_555
N3B C13B 1_555 1_555
N4B Mn1 1_555 1_555
Mn1_2 N4 1_555 1_555
Mn1A N3 1_555 1_555
Mn1A_2 N3B 1_555 1_555
N1B_2 Mn1 1_555 1_555
N3A Mn1 1_555 1_555
N3C Mn1 1_555 1_555
N4_2 Mn1 1_555 1_555
C2 C3 1_555 1_555
C4 C5 1_555 1_555
C12 N2 1_555 1_555
N1B Mn1_2 1_555 1_555
C2B C3B 1_555 1_555
C4B C5B 1_555 1_555
C12B N2B 1_555 1_555
C14B N4B 1_555 1_555

#END
