
#######################################################################
#
#                 Cambridge Crystallographic Data Centre
#                                CCDC 
#
#######################################################################
#
# If this CIF has been generated from an entry in the Cambridge 
# Structural Database, then it will include bibliographic, chemical, 
# crystal, experimental, refinement or atomic coordinate data resulting 
# from the CCDC's data processing and validation procedures.
#
#######################################################################

data_XOQQOK
_symmetry_cell_setting           tetragonal
_symmetry_space_group_name_H-M   'P 41 21 2'
_symmetry_Int_Tables_number      92
_space_group_name_Hall           'P 4abw 2nw'
loop_
_symmetry_equiv_pos_site_id
_symmetry_equiv_pos_as_xyz
1 x,y,z
2 1/2-y,1/2+x,1/4+z
3 -x,-y,1/2+z
4 1/2+y,1/2-x,3/4+z
5 1/2+x,1/2-y,3/4-z
6 y,x,-z
7 1/2-x,1/2+y,1/4-z
8 -y,-x,1/2-z
_cell_length_a                   12.366(3)
_cell_length_b                   12.366(3)
_cell_length_c                   29.154(8)
_cell_angle_alpha                90
_cell_angle_beta                 90
_cell_angle_gamma                90
_cell_volume                     4458.17
loop_
_atom_site_label
_atom_site_type_symbol
_atom_site_fract_x
_atom_site_fract_y
_atom_site_fract_z
Na1 Na 0.05873(16) -0.15847(17) 0.02913(7)
Na2 Na 0.16761(15) -0.00906(15) 0.11597(7)
N1 N -0.0101(3) -0.0486(3) 0.08953(14)
N2 N 0.1529(3) -0.1974(3) 0.09812(15)
C1 C -0.0106(4) -0.1198(4) 0.12696(18)
C2 C 0.0686(4) -0.1949(4) 0.13169(18)
C3 C -0.0897(4) -0.0967(4) 0.16555(18)
H1 H -0.0515 -0.0942 0.1942
H2 H -0.1432 -0.1529 0.1667
H3 H -0.1244 -0.0285 0.1602
C4 C 0.0887(4) -0.2584(4) 0.17528(18)
H4 H 0.0734 -0.2135 0.2014
H5 H 0.1629 -0.2810 0.1763
H6 H 0.0426 -0.3208 0.1758
C5 C -0.1063(4) -0.0032(4) 0.07485(17)
C6 C -0.2001(4) -0.0656(5) 0.06298(19)
C7 C -0.2916(5) -0.0128(6) 0.0482(2)
H7 H -0.3529 -0.0531 0.0411
C8 C -0.2953(6) 0.0984(7) 0.0435(2)
H8 H -0.3586 0.1321 0.0339
C9 C -0.2062(6) 0.1579(5) 0.0532(2)
H9 H -0.2085 0.2326 0.0496
C10 C -0.1117(4) 0.1096(5) 0.06815(19)
C11 C 0.1997(4) -0.2917(4) 0.08418(16)
C12 C 0.3113(5) -0.2852(5) 0.07018(19)
C13 C 0.3625(5) -0.3749(6) 0.0506(2)
H10 H 0.4343 -0.3696 0.0414
C14 C 0.3086(7) -0.4700(6) 0.0447(2)
H11 H 0.3441 -0.5288 0.0318
C15 C 0.2023(6) -0.4797(5) 0.0578(2)
H12 H 0.1671 -0.5454 0.0538
C16 C 0.1462(5) -0.3929(5) 0.0772(2)
C17 C -0.1955(4) -0.1875(5) 0.0656(2)
H13 H -0.1593 -0.2070 0.0940
H14 H -0.1507 -0.2131 0.0406
C18 C -0.3017(5) -0.2479(5) 0.0638(3)
H15 H -0.2882 -0.3242 0.0657
H16 H -0.3378 -0.2320 0.0354
H17 H -0.3464 -0.2259 0.0890
C19 C -0.0195(5) 0.1797(4) 0.0838(2)
H18 H -0.0469 0.2522 0.0891
H19 H 0.0064 0.1523 0.1130
C20 C 0.0749(5) 0.1870(5) 0.0514(2)
H20 H 0.1294 0.2332 0.0644
H21 H 0.0511 0.2162 0.0227
H22 H 0.1045 0.1161 0.0466
C21 C 0.3737(4) -0.1823(5) 0.0764(2)
H23 H 0.3524 -0.1499 0.1053
H24 H 0.4499 -0.2001 0.0786
C22 C 0.3597(6) -0.0997(6) 0.0392(3)
H25 H 0.4025 -0.0371 0.0461
H26 H 0.2849 -0.0794 0.0372
H27 H 0.3826 -0.1298 0.0104
C23 C 0.0265(5) -0.4041(5) 0.0849(3)
H28 H 0.0141 -0.3858 0.1168
H29 H -0.0074 -0.3474 0.0670
C24 C -0.0315(7) -0.4956(7) 0.0767(5)
H30 H -0.1061 -0.4832 0.0842
H31 H -0.0038 -0.5535 0.0952
H32 H -0.0256 -0.5147 0.0449
Na1E Na -0.15847(17) 0.05873(16) -0.02913(7)
Na2F Na 0.33239(15) -0.50906(15) 0.13403(7)
C7E C -0.0128(6) -0.2916(5) -0.0482(2)
H7E H -0.0531 -0.3529 -0.0411
C8E C 0.0984(7) -0.2953(6) -0.0435(2)
H8E H 0.1321 -0.3586 -0.0339
C9E C 0.1579(5) -0.2062(6) -0.0532(2)
H9E H 0.2326 -0.2085 -0.0496
C10E C 0.1096(5) -0.1117(4) -0.06815(19)
C13F C 0.1375(5) 0.1251(6) 0.1994(2)
H10F H 0.0657 0.1304 0.2086
C14F C 0.1914(7) 0.0300(6) 0.2053(2)
H11F H 0.1559 -0.0288 0.2182
C15F C 0.2977(6) 0.0203(5) 0.1922(2)
H12F H 0.3329 -0.0454 0.1962
loop_
_geom_bond_atom_site_label_1
_geom_bond_atom_site_label_2
_geom_bond_site_symmetry_1
_geom_bond_site_symmetry_2
Na1 N1 1_555 1_555
Na2 N1 1_555 1_555
N1 C1 1_555 1_555
N2 Na1 1_555 1_555
C1 Na2 1_555 1_555
C2 Na2 1_555 1_555
C3 C1 1_555 1_555
H1 C3 1_555 1_555
H2 C3 1_555 1_555
H3 C3 1_555 1_555
C4 C2 1_555 1_555
H4 C4 1_555 1_555
H5 C4 1_555 1_555
H6 C4 1_555 1_555
C5 N1 1_555 1_555
C6 C5 1_555 1_555
C7 C6 1_555 1_555
H7 C7 1_555 1_555
C8 C7 1_555 1_555
H8 C8 1_555 1_555
C9 C8 1_555 1_555
H9 C9 1_555 1_555
C10 C5 1_555 1_555
C11 Na1 1_555 1_555
C12 C11 1_555 1_555
C13 C12 1_555 1_555
H10 C13 1_555 1_555
C14 C13 1_555 1_555
H11 C14 1_555 1_555
C15 C14 1_555 1_555
H12 C15 1_555 1_555
C16 C11 1_555 1_555
C17 C6 1_555 1_555
H13 C17 1_555 1_555
H14 C17 1_555 1_555
C18 C17 1_555 1_555
H15 C18 1_555 1_555
H16 C18 1_555 1_555
H17 C18 1_555 1_555
C19 C10 1_555 1_555
H18 C19 1_555 1_555
H19 C19 1_555 1_555
C20 C19 1_555 1_555
H20 C20 1_555 1_555
H21 C20 1_555 1_555
H22 C20 1_555 1_555
C21 C12 1_555 1_555
H23 C21 1_555 1_555
H24 C21 1_555 1_555
C22 C21 1_555 1_555
H25 C22 1_555 1_555
H26 C22 1_555 1_555
H27 C22 1_555 1_555
C23 C16 1_555 1_555
H28 C23 1_555 1_555
H29 C23 1_555 1_555
C24 C23 1_555 1_555
H30 C24 1_555 1_555
H31 C24 1_555 1_555
H32 C24 1_555 1_555
Na1E C7 1_555 1_555
Na2F C13 1_555 1_555
C7E Na1 1_555 1_555
H7E C7E 1_555 1_555
C8E Na1 1_555 1_555
H8E C8E 1_555 1_555
C9E Na1 1_555 1_555
H9E C9E 1_555 1_555
C10E Na1 1_555 1_555
C13F Na2 1_555 1_555
H10F C13F 1_555 1_555
C14F Na2 1_555 1_555
H11F C14F 1_555 1_555
C15F Na2 1_555 1_555
H12F C15F 1_555 1_555
Na2 N2 1_555 1_555
N2 C2 1_555 1_555
N2 C11 1_555 1_555
C1 C2 1_555 1_555
C8 Na1E 1_555 1_555
C9 C10 1_555 1_555
C9 Na1E 1_555 1_555
C10 Na1E 1_555 1_555
C14 Na2F 1_555 1_555
C15 C16 1_555 1_555
C15 Na2F 1_555 1_555
C7E C8E 1_555 1_555
C8E C9E 1_555 1_555
C9E C10E 1_555 1_555
C13F C14F 1_555 1_555
C14F C15F 1_555 1_555

#END
