
#######################################################################
#
#                 Cambridge Crystallographic Data Centre
#                                CCDC 
#
#######################################################################
#
# If this CIF has been generated from an entry in the Cambridge 
# Structural Database, then it will include bibliographic, chemical, 
# crystal, experimental, refinement or atomic coordinate data resulting 
# from the CCDC's data processing and validation procedures.
#
#######################################################################

data_XORGUI
_symmetry_cell_setting           monoclinic
_symmetry_space_group_name_H-M   'P 21/c'
_symmetry_Int_Tables_number      14
_space_group_name_Hall           '-P 2ybc'
loop_
_symmetry_equiv_pos_site_id
_symmetry_equiv_pos_as_xyz
1 x,y,z
2 -x,1/2+y,1/2-z
3 -x,-y,-z
4 x,1/2-y,1/2+z
_cell_length_a                   9.9480(14)
_cell_length_b                   10.1981(14)
_cell_length_c                   12.8656(18)
_cell_angle_alpha                90
_cell_angle_beta                 106.089(2)
_cell_angle_gamma                90
_cell_volume                     1254.1
loop_
_atom_site_label
_atom_site_type_symbol
_atom_site_fract_x
_atom_site_fract_y
_atom_site_fract_z
Cd1 Cd 0.20267(4) 0.17157(3) 0.21739(3)
N1 N 0.4008(5) 0.1712(4) 0.7698(4)
N2 N -0.0500(5) 0.5031(4) 0.3134(3)
N3 N 0.6116(5) -0.0149(5) 0.7850(4)
N4 N 0.0203(5) 0.4408(5) 0.4080(3)
C1 C -0.0177(6) 0.4361(5) 0.2358(4)
H1 H -0.0514 0.4565 0.1627
C2 C 0.4185(6) 0.1105(5) 0.6826(4)
C3 C 0.4872(7) 0.1375(6) 0.8642(5)
H2 H 0.4766 0.1764 0.9269
C4 C 0.5236(7) 0.0183(6) 0.6911(5)
H3 H 0.5325 -0.0218 0.6284
C5 C 0.5946(7) 0.0448(7) 0.8730(5)
H4 H 0.6543 0.0248 0.9407
N5 N 0.2441(5) 0.1583(4) 0.4054(3)
N6 N 0.0709(5) 0.3336(4) 0.2744(4)
N7 N 0.2343(5) 0.2493(4) 0.5612(3)
N8 N 0.3359(5) 0.0922(4) 0.4857(4)
C6 C 0.0904(6) 0.3418(5) 0.3821(4)
C7 C 0.1849(5) 0.2520(5) 0.4512(4)
C8 C 0.3280(6) 0.1488(5) 0.5770(4)
Cd1A Cd -0.20267(4) 0.67157(3) 0.28261(3)
Cd1B Cd 0.79733(4) -0.17157(3) 0.78261(3)
Cd1C Cd 0.20267(4) 0.32843(3) 0.71739(3)
N1C N 0.4008(5) 0.3288(4) 0.2698(4)
N2A N 0.0500(5) 0.0031(4) 0.1866(3)
N3B N 0.3884(5) 0.0149(5) 0.2150(4)
N7C N 0.2343(5) 0.2507(4) 0.0612(3)
loop_
_geom_bond_atom_site_label_1
_geom_bond_atom_site_label_2
_geom_bond_site_symmetry_1
_geom_bond_site_symmetry_2
Cd1 N5 1_555 1_555
N1 C2 1_555 1_555
N2 N4 1_555 1_555
N3 C4 1_555 1_555
N4 C6 1_555 1_555
C1 N2 1_555 1_555
H1 C1 1_555 1_555
C2 C4 1_555 1_555
C3 N1 1_555 1_555
H2 C3 1_555 1_555
C4 H3 1_555 1_555
C5 N3 1_555 1_555
H4 C5 1_555 1_555
N5 N8 1_555 1_555
N6 Cd1 1_555 1_555
N7 C7 1_555 1_555
N8 C8 1_555 1_555
C6 N6 1_555 1_555
C7 N5 1_555 1_555
C8 C2 1_555 1_555
Cd1A N2 1_555 1_555
Cd1B N3 1_555 1_555
Cd1C N1 1_555 1_555
N1C Cd1 1_555 1_555
N2A Cd1 1_555 1_555
N3B Cd1 1_555 1_555
N7C Cd1 1_555 1_555
C1 N6 1_555 1_555
C3 C5 1_555 1_555
N7 C8 1_555 1_555
N7 Cd1C 1_555 1_555
C6 C7 1_555 1_555

#END
