
#######################################################################
#
#                 Cambridge Crystallographic Data Centre
#                                CCDC 
#
#######################################################################
#
# If this CIF has been generated from an entry in the Cambridge 
# Structural Database, then it will include bibliographic, chemical, 
# crystal, experimental, refinement or atomic coordinate data resulting 
# from the CCDC's data processing and validation procedures.
#
#######################################################################

data_XORMUO
_symmetry_cell_setting           triclinic
_symmetry_space_group_name_H-M   'P -1'
_symmetry_Int_Tables_number      2
_space_group_name_Hall           '-P 1'
loop_
_symmetry_equiv_pos_site_id
_symmetry_equiv_pos_as_xyz
1 x,y,z
2 -x,-y,-z
_cell_length_a                   10.0561(4)
_cell_length_b                   10.4403(5)
_cell_length_c                   18.1007(8)
_cell_angle_alpha                74.804(2)
_cell_angle_beta                 85.064(2)
_cell_angle_gamma                77.007(2)
_cell_volume                     1786.23
loop_
_atom_site_label
_atom_site_type_symbol
_atom_site_fract_x
_atom_site_fract_y
_atom_site_fract_z
Ag1 Ag 0.68037(2) 0.03135(2) 0.220979(13)
Ag2 Ag 0.56839(2) -0.18760(2) 0.324398(13)
P1 P 0.50259(8) 0.17607(8) 0.27188(4)
O1 O 0.7803(3) -0.1193(2) 0.15527(13)
O2 O 0.8402(2) -0.0859(2) 0.32698(12)
P2 P 0.34030(8) -0.16361(8) 0.28932(4)
O3 O 0.7488(3) -0.2960(2) 0.25343(14)
O4 O 0.6912(2) -0.1690(3) 0.41714(13)
C1 C 0.3546(3) 0.1289(3) 0.33237(17)
C2 C 0.5806(3) 0.2501(3) 0.33345(18)
C3 C 0.4295(3) 0.3178(3) 0.19409(17)
C4 C 0.7969(3) -0.2409(4) 0.19016(19)
C5 C 0.7956(3) -0.1204(3) 0.39305(18)
C6 C 0.2139(3) -0.0256(3) 0.31752(18)
C7 C 0.2630(3) -0.3096(3) 0.33281(18)
C8 C 0.3237(3) -0.1288(3) 0.18570(18)
N1 N 0.2501(3) 0.1071(3) 0.28765(14)
H1 H 0.3864 0.0448 0.3725
H2 H 0.3135 0.2019 0.3581
C9 C 0.6513(3) 0.3535(3) 0.30222(19)
C10 C 0.5790(4) 0.1971(4) 0.41276(19)
C11 C 0.4451(3) 0.3008(4) 0.11982(18)
C12 C 0.3585(3) 0.4426(3) 0.2066(2)
C13 C 0.8870(4) -0.3400(4) 0.1472(2)
C14 C 0.8816(4) -0.1030(4) 0.45446(19)
H3 H 0.1235 -0.0222 0.2984
H4 H 0.2064 -0.0456 0.3741
C15 C 0.3373(4) -0.4205(3) 0.38381(18)
C16 C 0.1288(4) -0.3097(4) 0.3177(2)
C17 C 0.4428(4) -0.1602(4) 0.14298(19)
C18 C 0.2016(4) -0.0747(4) 0.1486(2)
C19 C 0.1285(3) 0.2195(3) 0.28021(18)
H5 H 0.6536 0.3903 0.2484
C20 C 0.7178(4) 0.4030(4) 0.3488(2)
C21 C 0.6453(4) 0.2490(4) 0.4590(2)
H6 H 0.5326 0.1257 0.4351
H7 H 0.4941 0.2170 0.1108
C22 C 0.3899(4) 0.4051(4) 0.05917(19)
C23 C 0.3043(4) 0.5467(4) 0.1450(2)
H8 H 0.3475 0.4557 0.2570
F1 F 0.9466(4) -0.4552(3) 0.19364(16)
F2 F 0.9880(2) -0.2891(3) 0.10606(14)
F3 F 0.8133(3) -0.3662(3) 0.09773(18)
F4 F 0.9254(2) 0.0146(2) 0.43139(11)
F5 F 0.8133(2) -0.0999(3) 0.52099(11)
F6 F 0.9916(2) -0.2017(2) 0.46941(13)
H9 H 0.4289 -0.4218 0.3938
C24 C 0.2784(4) -0.5296(4) 0.4204(2)
C25 C 0.0711(4) -0.4190(4) 0.3542(2)
H10 H 0.0773 -0.2346 0.2824
H11 H 0.5271 -0.1984 0.1680
C26 C 0.4391(4) -0.1358(4) 0.0635(2)
C27 C 0.1986(5) -0.0494(4) 0.0693(2)
H12 H 0.1194 -0.0547 0.1773
H13 H 0.1582 0.3067 0.2710
H14 H 0.0735 0.2073 0.3286
C28 C 0.0419(3) 0.2243(3) 0.21534(18)
H15 H 0.7657 0.4733 0.3268
C29 C 0.7152(4) 0.3507(4) 0.4272(2)
H16 H 0.6424 0.2140 0.5130
H17 H 0.4004 0.3927 0.0087
C30 C 0.3198(4) 0.5268(4) 0.0718(2)
H18 H 0.2566 0.6317 0.1530
H19 H 0.3295 -0.6050 0.4556
C31 C 0.1447(4) -0.5289(4) 0.4056(2)
H20 H -0.0200 -0.4186 0.3439
H21 H 0.5205 -0.1588 0.0348
C32 C 0.3191(5) -0.0792(4) 0.0272(2)
H22 H 0.1146 -0.0118 0.0439
C33 C -0.0743(3) 0.1706(3) 0.22949(18)
C34 C 0.0778(3) 0.2778(3) 0.13967(19)
H23 H 0.7613 0.3848 0.4591
H24 H 0.2815 0.5980 0.0299
H25 H 0.1044 -0.6035 0.4307
H26 H 0.3175 -0.0600 -0.0270
N2 N -0.1520(3) 0.1644(3) 0.17419(15)
H27 H -0.1007 0.1362 0.2813
C35 C -0.0029(4) 0.2753(4) 0.0825(2)
H28 H 0.1569 0.3156 0.1274
C36 C -0.1145(4) 0.2155(4) 0.10176(19)
H29 H 0.0181 0.3143 0.0304
H30 H -0.1670 0.2105 0.0618
Ag1_2 Ag -0.31963(2) 0.03135(2) 0.220979(13)
N2_2 N 0.8480(3) 0.1644(3) 0.17419(15)
loop_
_geom_bond_atom_site_label_1
_geom_bond_atom_site_label_2
_geom_bond_site_symmetry_1
_geom_bond_site_symmetry_2
Ag1 Ag2 1_555 1_555
Ag2 P2 1_555 1_555
P1 Ag1 1_555 1_555
O1 Ag1 1_555 1_555
O2 Ag1 1_555 1_555
P2 C6 1_555 1_555
O3 Ag2 1_555 1_555
O4 Ag2 1_555 1_555
C1 P1 1_555 1_555
C2 P1 1_555 1_555
C3 P1 1_555 1_555
C4 O1 1_555 1_555
C5 O2 1_555 1_555
C6 N1 1_555 1_555
C7 P2 1_555 1_555
C8 P2 1_555 1_555
N1 C1 1_555 1_555
H1 C1 1_555 1_555
H2 C1 1_555 1_555
C9 C2 1_555 1_555
C10 C2 1_555 1_555
C11 C3 1_555 1_555
C12 C3 1_555 1_555
C13 C4 1_555 1_555
C14 C5 1_555 1_555
H3 C6 1_555 1_555
H4 C6 1_555 1_555
C15 C7 1_555 1_555
C16 C7 1_555 1_555
C17 C8 1_555 1_555
C18 C8 1_555 1_555
C19 N1 1_555 1_555
H5 C9 1_555 1_555
C20 C9 1_555 1_555
C21 C10 1_555 1_555
H6 C10 1_555 1_555
H7 C11 1_555 1_555
C22 C11 1_555 1_555
C23 C12 1_555 1_555
H8 C12 1_555 1_555
F1 C13 1_555 1_555
F2 C13 1_555 1_555
F3 C13 1_555 1_555
F4 C14 1_555 1_555
F5 C14 1_555 1_555
F6 C14 1_555 1_555
H9 C15 1_555 1_555
C24 C15 1_555 1_555
C25 C16 1_555 1_555
H10 C16 1_555 1_555
H11 C17 1_555 1_555
C26 C17 1_555 1_555
C27 C18 1_555 1_555
H12 C18 1_555 1_555
H13 C19 1_555 1_555
H14 C19 1_555 1_555
C28 C19 1_555 1_555
H15 C20 1_555 1_555
C29 C20 1_555 1_555
H16 C21 1_555 1_555
H17 C22 1_555 1_555
C30 C22 1_555 1_555
H18 C23 1_555 1_555
H19 C24 1_555 1_555
C31 C24 1_555 1_555
H20 C25 1_555 1_555
H21 C26 1_555 1_555
C32 C26 1_555 1_555
H22 C27 1_555 1_555
C33 C28 1_555 1_555
C34 C28 1_555 1_555
H23 C29 1_555 1_555
H24 C30 1_555 1_555
H25 C31 1_555 1_555
H26 C32 1_555 1_555
N2 C33 1_555 1_555
H27 C33 1_555 1_555
C35 C34 1_555 1_555
H28 C34 1_555 1_555
C36 N2 1_555 1_555
H29 C35 1_555 1_555
H30 C36 1_555 1_555
Ag1_2 N2 1_555 1_555
N2_2 Ag1 1_555 1_555
O3 C4 1_555 1_555
O4 C5 1_555 1_555
C21 C29 1_555 1_555
C23 C30 1_555 1_555
C25 C31 1_555 1_555
C27 C32 1_555 1_555
C35 C36 1_555 1_555

#END
