
#######################################################################
#
#                 Cambridge Crystallographic Data Centre
#                                CCDC 
#
#######################################################################
#
# If this CIF has been generated from an entry in the Cambridge 
# Structural Database, then it will include bibliographic, chemical, 
# crystal, experimental, refinement or atomic coordinate data resulting 
# from the CCDC's data processing and validation procedures.
#
#######################################################################

data_XORRIF
_symmetry_cell_setting           monoclinic
_symmetry_space_group_name_H-M   'C 2/c'
_symmetry_Int_Tables_number      15
_space_group_name_Hall           '-C 2yn'
loop_
_symmetry_equiv_pos_site_id
_symmetry_equiv_pos_as_xyz
1 x,y,z
2 1/2+x,1/2+y,z
3 -x,y,1/2-z
4 1/2-x,1/2+y,1/2-z
5 -x,-y,-z
6 1/2-x,1/2-y,-z
7 x,-y,1/2+z
8 1/2+x,1/2-y,1/2+z
_cell_length_a                   25.768(4)
_cell_length_b                   5.4660(8)
_cell_length_c                   28.304(4)
_cell_angle_alpha                90
_cell_angle_beta                 114.271(3)
_cell_angle_gamma                90
_cell_volume                     3634.19
loop_
_atom_site_label
_atom_site_type_symbol
_atom_site_fract_x
_atom_site_fract_y
_atom_site_fract_z
Ca1 Ca 0.27387(3) 0.99781(13) 0.47297(2)
O1 O 0.23389(10) 0.7005(4) 0.40625(8)
O2 O 0.21868(9) 0.3558(4) 0.44136(8)
O3 O 0.20411(14) 0.6801(6) 0.22304(10)
O4 O 0.17845(13) 0.3410(6) 0.18079(10)
O5 O 0.07416(14) -0.2291(5) 0.23809(11)
O6 O 0.08298(14) -0.2195(5) 0.31697(11)
O7 O 0.31599(10) 0.6429(4) 0.52204(8)
O8 O 0.34917(10) 0.2873(4) 0.50582(9)
O9 O 0.45721(15) 1.1862(6) 0.64811(12)
O10 O 0.54631(14) 1.1511(6) 0.66346(11)
O11 O 0.60966(13) 0.4907(6) 0.58806(13)
O12 O 0.55126(13) 0.1976(6) 0.54949(13)
O13 O 0.31478(16) 1.0591(7) 0.41239(14)
H1 H 0.314(3) 0.976(12) 0.384(3)
H2 H 0.340(2) 1.142(10) 0.420(2)
N1 N 0.18763(13) 0.4689(7) 0.21894(11)
N2 N 0.09301(14) -0.1416(6) 0.28152(13)
N3 N 0.49648(19) 1.0831(6) 0.64350(12)
N4 N 0.56249(16) 0.3975(8) 0.57074(14)
C1 C 0.21693(14) 0.4860(7) 0.40364(12)
C2 C 0.19091(14) 0.3710(6) 0.35045(12)
C3 C 0.20125(14) 0.4721(6) 0.31017(12)
H3 H 0.2237 0.6112 0.3155
C4 C 0.17753(15) 0.3623(7) 0.26210(12)
C5 C 0.14338(15) 0.1581(6) 0.25224(13)
H4 H 0.1284 0.0849 0.2197
C6 C 0.13247(15) 0.0677(6) 0.29209(12)
C7 C 0.15578(14) 0.1669(6) 0.34091(12)
H5 H 0.1481 0.0982 0.3674
C8 C 0.35546(14) 0.4998(7) 0.52362(12)
C9 C 0.41592(15) 0.5888(6) 0.55151(13)
C10 C 0.42783(15) 0.7962(6) 0.58258(13)
H6 H 0.3986 0.8876 0.5850
C11 C 0.48403(17) 0.8637(7) 0.60979(13)
C12 C 0.52840(17) 0.7388(8) 0.60644(15)
H7 H 0.5658 0.7895 0.6247
C13 C 0.51561(15) 0.5353(7) 0.57501(14)
C14 C 0.46068(15) 0.4574(6) 0.54833(13)
H8 H 0.4533 0.3168 0.5281
O2_2 O 0.21868(9) 1.3558(4) 0.44136(8)
O2E O 0.28132(9) 1.1442(4) 0.55864(8)
O7E O 0.18401(10) 0.8571(4) 0.47796(8)
O8_2 O 0.34917(10) 1.2873(4) 0.50582(9)
Ca1_2 Ca 0.27387(3) -0.00219(13) 0.47297(2)
Ca1E Ca 0.22613(3) 0.50219(13) 0.52703(2)
loop_
_geom_bond_atom_site_label_1
_geom_bond_atom_site_label_2
_geom_bond_site_symmetry_1
_geom_bond_site_symmetry_2
Ca1 O1 1_555 1_555
O1 C1 1_555 1_555
O2 C1 1_555 1_555
O3 N1 1_555 1_555
O4 N1 1_555 1_555
O5 N2 1_555 1_555
O6 N2 1_555 1_555
O7 Ca1 1_555 1_555
O8 C8 1_555 1_555
O9 N3 1_555 1_555
O10 N3 1_555 1_555
O11 N4 1_555 1_555
O12 N4 1_555 1_555
O13 Ca1 1_555 1_555
H1 O13 1_555 1_555
H2 O13 1_555 1_555
N1 C4 1_555 1_555
N2 C6 1_555 1_555
N3 C11 1_555 1_555
N4 C13 1_555 1_555
C1 C2 1_555 1_555
C2 C3 1_555 1_555
C3 H3 1_555 1_555
C4 C3 1_555 1_555
C5 C4 1_555 1_555
H4 C5 1_555 1_555
C6 C5 1_555 1_555
C7 C2 1_555 1_555
H5 C7 1_555 1_555
C8 O7 1_555 1_555
C9 C8 1_555 1_555
C10 C9 1_555 1_555
H6 C10 1_555 1_555
C11 C10 1_555 1_555
C12 C11 1_555 1_555
H7 C12 1_555 1_555
C13 C12 1_555 1_555
C14 C9 1_555 1_555
H8 C14 1_555 1_555
O2_2 Ca1 1_555 1_555
O2E Ca1 1_555 1_555
O7E Ca1 1_555 1_555
O8_2 Ca1 1_555 1_555
Ca1_2 O2 1_555 1_555
Ca1E O2 1_555 1_555
O7 Ca1E 1_555 1_555
O8 Ca1_2 1_555 1_555
C6 C7 1_555 1_555
C13 C14 1_555 1_555
O7E Ca1E 1_555 1_555

#END
