
#######################################################################
#
#                 Cambridge Crystallographic Data Centre
#                                CCDC 
#
#######################################################################
#
# If this CIF has been generated from an entry in the Cambridge 
# Structural Database, then it will include bibliographic, chemical, 
# crystal, experimental, refinement or atomic coordinate data resulting 
# from the CCDC's data processing and validation procedures.
#
#######################################################################

data_XORROL
_symmetry_cell_setting           monoclinic
_symmetry_space_group_name_H-M   'C 2/c'
_symmetry_Int_Tables_number      15
_space_group_name_Hall           '-C 2yn'
loop_
_symmetry_equiv_pos_site_id
_symmetry_equiv_pos_as_xyz
1 x,y,z
2 1/2+x,1/2+y,z
3 x,-y,1/2+z
4 1/2+x,1/2-y,1/2+z
5 -x,-y,-z
6 1/2-x,1/2-y,-z
7 -x,y,1/2-z
8 1/2-x,1/2+y,1/2-z
_cell_length_a                   25.84(3)
_cell_length_b                   5.321(2)
_cell_length_c                   12.227(11)
_cell_angle_alpha                90
_cell_angle_beta                 99.35(3)
_cell_angle_gamma                90
_cell_volume                     1658.81
loop_
_atom_site_label
_atom_site_type_symbol
_atom_site_fract_x
_atom_site_fract_y
_atom_site_fract_z
Cd1 Cd 0.0000 0.04208(8) 0.2500
O1 O 0.0682(1) 0.3076(6) 0.2693(2)
O2 O 0.0358(1) 0.2527(6) 0.0917(2)
O3 O 0.2313(1) 0.9978(6) 0.0812(3)
O4 O -0.0378(2) -0.2448(6) 0.1308(2)
C1 C 0.0688(2) 0.3510(7) 0.1666(3)
C2 C 0.1105(2) 0.5249(8) 0.1399(3)
C3 C 0.1023(2) 0.6810(8) 0.0463(3)
C4 C 0.1416(2) 0.8427(8) 0.0230(3)
C5 C 0.1896(2) 0.8475(8) 0.0940(3)
C6 C 0.1983(2) 0.6911(9) 0.1875(3)
C7 C 0.1591(2) 0.5363(8) 0.2111(3)
C8 C 0.2245(2) 1.1778(8) -0.0067(3)
H1 H -0.0701 -0.2452 0.1375
H2 H -0.0255 -0.3856 0.1555
H3 H 0.0691 0.6773 -0.0022
H4 H 0.1358 0.9490 -0.0413
H5 H 0.2317 0.6934 0.2353
H6 H 0.1648 0.4342 0.2767
H7 H 0.1960 1.2891 0.0002
H8 H 0.2176 1.0963 -0.0776
C8E C 0.2755(2) 1.3222(8) 0.0067(3)
O3E O 0.2687(1) 1.5022(6) -0.0812(3)
C5E C 0.3104(2) 1.6525(8) -0.0940(3)
C4E C 0.3584(2) 1.6573(8) -0.0230(3)
C3E C 0.3977(2) 1.8190(8) -0.0463(3)
C2E C 0.3895(2) 1.9751(8) -0.1399(3)
C1E C 0.4312(2) 2.1490(7) -0.1666(3)
O1E O 0.4318(1) 2.1924(6) -0.2693(2)
O2E O 0.4642(1) 2.2473(6) -0.0917(2)
C7E C 0.3409(2) 1.9637(8) -0.2111(3)
C6E C 0.3017(2) 1.8089(9) -0.1875(3)
H5E H 0.2683 1.8066 -0.2353
H6E H 0.3352 2.0658 -0.2767
H3E H 0.4309 1.8227 0.0022
H4E H 0.3642 1.5510 0.0413
H7E H 0.3040 1.2109 -0.0002
H8E H 0.2824 1.4037 0.0776
O4F O 0.0378(2) -0.2448(6) 0.3692(2)
H1F H 0.0701 -0.2452 0.3625
H2F H 0.0255 -0.3856 0.3445
O1F O -0.0682(1) 0.3076(6) 0.2307(2)
O2F O -0.0358(1) 0.2527(6) 0.4083(2)
Cd1C Cd 0.5000 2.45792(8) -0.2500
loop_
_geom_bond_atom_site_label_1
_geom_bond_atom_site_label_2
_geom_bond_site_symmetry_1
_geom_bond_site_symmetry_2
Cd1 O1 1_555 1_555
O1 C1 1_555 1_555
O2 Cd1 1_555 1_555
O3 C5 1_555 1_555
O4 Cd1 1_555 1_555
C1 O2 1_555 1_555
C2 C1 1_555 1_555
C3 C2 1_555 1_555
C4 C3 1_555 1_555
C5 C4 1_555 1_555
C6 C5 1_555 1_555
C7 C2 1_555 1_555
C8 O3 1_555 1_555
H1 O4 1_555 1_555
H2 O4 1_555 1_555
H3 C3 1_555 1_555
H4 C4 1_555 1_555
H5 C6 1_555 1_555
H6 C7 1_555 1_555
H7 C8 1_555 1_555
H8 C8 1_555 1_555
C8E C8 1_555 1_555
O3E C8E 1_555 1_555
C5E O3E 1_555 1_555
C4E C5E 1_555 1_555
C3E C4E 1_555 1_555
C2E C3E 1_555 1_555
C1E C2E 1_555 1_555
O1E C1E 1_555 1_555
O2E C1E 1_555 1_555
C7E C2E 1_555 1_555
C6E C5E 1_555 1_555
H5E C6E 1_555 1_555
H6E C7E 1_555 1_555
H3E C3E 1_555 1_555
H4E C4E 1_555 1_555
H7E C8E 1_555 1_555
H8E C8E 1_555 1_555
O4F Cd1 1_555 1_555
H1F O4F 1_555 1_555
H2F O4F 1_555 1_555
O1F Cd1 1_555 1_555
O2F Cd1 1_555 1_555
Cd1C O1E 1_555 1_555
C6 C7 1_555 1_555
O2E Cd1C 1_555 1_555
C7E C6E 1_555 1_555

#END
