
#######################################################################
#
#                 Cambridge Crystallographic Data Centre
#                                CCDC 
#
#######################################################################
#
# If this CIF has been generated from an entry in the Cambridge 
# Structural Database, then it will include bibliographic, chemical, 
# crystal, experimental, refinement or atomic coordinate data resulting 
# from the CCDC's data processing and validation procedures.
#
#######################################################################

data_XORVIL01
_symmetry_cell_setting           monoclinic
_symmetry_space_group_name_H-M   'P 21/n'
_symmetry_Int_Tables_number      14
_space_group_name_Hall           '-P 2yn'
loop_
_symmetry_equiv_pos_site_id
_symmetry_equiv_pos_as_xyz
1 x,y,z
2 1/2-x,1/2+y,1/2-z
3 -x,-y,-z
4 1/2+x,1/2-y,1/2+z
_cell_length_a                   7.0304(3)
_cell_length_b                   10.3047(3)
_cell_length_c                   10.6446(4)
_cell_angle_alpha                90
_cell_angle_beta                 107.174(4)
_cell_angle_gamma                90
_cell_volume                     736.776
loop_
_atom_site_label
_atom_site_type_symbol
_atom_site_fract_x
_atom_site_fract_y
_atom_site_fract_z
Cd1 Cd 0.18301(3) 0.140497(18) 1.002522(17)
Cl1 Cl 0.09863(10) -0.08841(6) 0.89213(6)
O1 O 0.4531(3) 0.1417(2) 0.9121(2)
N1 N 0.2239(3) 0.35795(19) 1.01292(18)
C1 C 0.0108(4) 0.3544(2) 0.7893(2)
O2 O -0.0113(3) 0.23475(16) 0.80229(17)
C2 C 0.1422(4) 0.4258(2) 0.9029(2)
N2 N 0.3257(3) 0.4447(2) 1.1006(2)
C3 C 0.1943(4) 0.5562(3) 0.9229(2)
H1 H 0.1568 0.6238 0.8626
C4 C 0.3125(4) 0.5635(3) 1.0503(2)
H2 H 0.3725 0.6379 1.0938
O3 O -0.0717(3) 0.41938(18) 0.68703(15)
H3 H 0.549(6) 0.151(3) 0.974(3)
H4 H 0.382(4) 0.418(3) 1.172(3)
H5 H 0.471(5) 0.070(3) 0.878(3)
Cd1B Cd -0.18301(3) -0.140497(18) 0.997478(17)
Cd1C Cd -0.31699(3) 0.359503(18) 0.502522(17)
Cl1B Cl -0.09863(10) 0.08841(6) 1.10787(6)
O3C O 0.4283(3) 0.08062(18) 1.18703(15)
loop_
_geom_bond_atom_site_label_1
_geom_bond_atom_site_label_2
_geom_bond_site_symmetry_1
_geom_bond_site_symmetry_2
Cd1 Cl1 1_555 1_555
Cl1 Cd1B 1_555 1_555
O1 Cd1 1_555 1_555
N1 Cd1 1_555 1_555
C1 O2 1_555 1_555
O2 Cd1 1_555 1_555
C2 N1 1_555 1_555
N2 N1 1_555 1_555
C3 C2 1_555 1_555
H1 C3 1_555 1_555
C4 N2 1_555 1_555
H2 C4 1_555 1_555
O3 C1 1_555 1_555
H3 O1 1_555 1_555
H4 N2 1_555 1_555
H5 O1 1_555 1_555
Cd1B Cl1B 1_555 1_555
Cd1C O3 1_555 1_555
Cl1B Cd1 1_555 1_555
O3C Cd1 1_555 1_555
C1 C2 1_555 1_555
C3 C4 1_555 1_555

#END
