
#######################################################################
#
#                 Cambridge Crystallographic Data Centre
#                                CCDC 
#
#######################################################################
#
# If this CIF has been generated from an entry in the Cambridge 
# Structural Database, then it will include bibliographic, chemical, 
# crystal, experimental, refinement or atomic coordinate data resulting 
# from the CCDC's data processing and validation procedures.
#
#######################################################################

data_XORVAB
_symmetry_cell_setting           monoclinic
_symmetry_space_group_name_H-M   'P 21/n'
_symmetry_Int_Tables_number      14
_space_group_name_Hall           '-P 2yn'
loop_
_symmetry_equiv_pos_site_id
_symmetry_equiv_pos_as_xyz
1 x,y,z
2 1/2-x,1/2+y,1/2-z
3 -x,-y,-z
4 1/2+x,1/2-y,1/2+z
_cell_length_a                   6.8590(18)
_cell_length_b                   9.273(2)
_cell_length_c                   7.925(2)
_cell_angle_alpha                90
_cell_angle_beta                 114.082(5)
_cell_angle_gamma                90
_cell_volume                     460.186
loop_
_atom_site_label
_atom_site_type_symbol
_atom_site_fract_x
_atom_site_fract_y
_atom_site_fract_z
Fe1 Fe 0.0000 0.5000 0.0000
Cl1 Cl 0.03854(8) 0.23836(5) -0.02603(7)
O1 O 0.1774(3) 0.48894(17) 0.2862(3)
H1 H 0.240(6) 0.561(4) 0.343(5)
H2 H 0.268(7) 0.425(4) 0.327(5)
O2 O 0.2847(3) 0.54151(18) -0.0509(2)
C1 C 0.3476(4) 0.4532(2) -0.1708(3)
H3 H 0.225(5) 0.388(3) -0.237(4)
H4 H 0.379(6) 0.518(3) -0.254(5)
C2 C 0.4591(4) 0.6350(2) 0.0583(4)
H5 H 0.492(5) 0.697(4) -0.028(4)
H6 H 0.406(5) 0.690(3) 0.140(4)
C2B C 0.5409(4) 0.3650(2) -0.0583(4)
O2B O 0.7153(3) 0.45849(18) 0.0509(2)
C1B C 0.6524(4) 0.5468(2) 0.1708(3)
H3B H 0.775(5) 0.612(3) 0.237(4)
H4B H 0.621(6) 0.482(3) 0.254(5)
H5B H 0.508(5) 0.303(4) 0.028(4)
H6B H 0.594(5) 0.310(3) -0.140(4)
Cl1B Cl -0.03854(8) 0.76164(5) 0.02603(7)
O1B O -0.1774(3) 0.51106(17) -0.2862(3)
H1B H -0.240(6) 0.439(4) -0.343(5)
H2B H -0.268(7) 0.575(4) -0.327(5)
O2B_2 O -0.2847(3) 0.45849(18) 0.0509(2)
Fe1_2 Fe 1.0000 0.5000 0.0000
loop_
_geom_bond_atom_site_label_1
_geom_bond_atom_site_label_2
_geom_bond_site_symmetry_1
_geom_bond_site_symmetry_2
Fe1 Cl1 1_555 1_555
O1 Fe1 1_555 1_555
H1 O1 1_555 1_555
H2 O1 1_555 1_555
O2 Fe1 1_555 1_555
C1 O2 1_555 1_555
H3 C1 1_555 1_555
H4 C1 1_555 1_555
C2 O2 1_555 1_555
H5 C2 1_555 1_555
H6 C2 1_555 1_555
C2B C1 1_555 1_555
O2B C2B 1_555 1_555
C1B C2 1_555 1_555
H3B C1B 1_555 1_555
H4B C1B 1_555 1_555
H5B C2B 1_555 1_555
H6B C2B 1_555 1_555
Cl1B Fe1 1_555 1_555
O1B Fe1 1_555 1_555
H1B O1B 1_555 1_555
H2B O1B 1_555 1_555
O2B_2 Fe1 1_555 1_555
Fe1_2 O2B 1_555 1_555
O2B C1B 1_555 1_555

#END
