
#######################################################################
#
#                 Cambridge Crystallographic Data Centre
#                                CCDC 
#
#######################################################################
#
# If this CIF has been generated from an entry in the Cambridge 
# Structural Database, then it will include bibliographic, chemical, 
# crystal, experimental, refinement or atomic coordinate data resulting 
# from the CCDC's data processing and validation procedures.
#
#######################################################################

data_XOSFAO
_symmetry_cell_setting           monoclinic
_symmetry_space_group_name_H-M   'P 21/c'
_symmetry_Int_Tables_number      14
_space_group_name_Hall           '-P 2ybc'
loop_
_symmetry_equiv_pos_site_id
_symmetry_equiv_pos_as_xyz
1 x,y,z
2 -x,1/2+y,1/2-z
3 -x,-y,-z
4 x,1/2-y,1/2+z
_cell_length_a                   16.0591(3)
_cell_length_b                   10.4117(2)
_cell_length_c                   17.3203(3)
_cell_angle_alpha                90
_cell_angle_beta                 90.7920(10)
_cell_angle_gamma                90
_cell_volume                     2895.72
loop_
_atom_site_label
_atom_site_type_symbol
_atom_site_fract_x
_atom_site_fract_y
_atom_site_fract_z
Mn1 Mn 0.33850(3) 0.08652(4) 0.97424(2)
Mn2 Mn 0.13165(3) -0.07034(4) 0.98823(2)
O1 O 0.34907(13) -0.06956(17) 0.89612(11)
O2 O 0.21802(13) -0.1404(2) 0.90548(11)
O3 O 0.38937(12) -0.46732(17) 0.57327(10)
O4 O 0.25324(12) -0.47025(17) 0.55691(10)
O5 O 0.26040(13) 0.18016(18) 0.89405(10)
O6 O 0.13522(13) 0.11432(18) 0.93293(10)
O7 O 0.06937(12) 0.49630(18) 0.58532(10)
O8 O -0.03615(13) 0.35588(18) 0.58840(10)
O9 O 0.33332(13) 0.24877(18) 1.05408(10)
O10 O 0.11847(13) -0.26111(18) 1.04380(11)
O11 O 0.45999(14) 0.1574(2) 0.94425(12)
C1 C 0.28671(19) -0.1330(3) 0.87302(15)
C2 C 0.29532(18) -0.2086(2) 0.79967(14)
C3 C 0.2249(2) -0.2552(3) 0.76200(16)
C4 C 0.2307(2) -0.3246(3) 0.69385(16)
C5 C 0.30888(18) -0.3495(2) 0.66378(14)
C6 C 0.3799(2) -0.3023(3) 0.70104(16)
C7 C 0.3729(2) -0.2319(3) 0.76815(16)
C8 C 0.31776(19) -0.4320(2) 0.59367(15)
C9 C 0.18205(19) 0.1668(2) 0.88566(15)
C10 C 0.14452(18) 0.2221(2) 0.81271(14)
C11 C 0.06083(19) 0.1995(3) 0.79433(15)
H1 H 0.0287(18) 0.148(3) 0.8243(16)
C12 C 0.02490(19) 0.2552(3) 0.72918(15)
C13 C 0.07181(18) 0.3348(2) 0.68158(14)
C14 C 0.15525(19) 0.3539(3) 0.69875(16)
H2 H 0.1873(19) 0.404(3) 0.6690(17)
C15 C 0.1915(2) 0.2977(3) 0.76364(16)
C16 C 0.03201(18) 0.4007(3) 0.61231(15)
N1 N 0.36405(17) 0.3516(2) 1.16621(13)
C17 C 0.3688(2) 0.2553(3) 1.11779(17)
C18 C 0.4065(2) 0.3535(3) 1.24083(17)
H3 H 0.4339 0.2706 1.2498
H4 H 0.3660 0.3693 1.2815
H5 H 0.4484 0.4220 1.2414
C19 C 0.3177(4) 0.4629(5) 1.1458(3)
H6 H 0.2835 0.4892 1.1894
H7 H 0.2816 0.4438 1.1012
H8 H 0.3560 0.5326 1.1326
N2 N 0.03726(18) -0.4205(2) 1.09076(15)
C20 C 0.0490(2) -0.3100(3) 1.05449(16)
C21 C 0.1069(3) -0.4894(4) 1.1241(3)
H9 H 0.1586 -0.4427 1.1138
H10 H 0.1099 -0.5753 1.1012
H11 H 0.0997 -0.4970 1.1800
C22 C -0.0454(2) -0.4736(3) 1.1030(2)
H12 H -0.0468 -0.5631 1.0854
H13 H -0.0867 -0.4235 1.0737
H14 H -0.0583 -0.4701 1.1581
H15 H 0.485(2) 0.214(4) 0.976(2)
H16 H 0.503(2) 0.112(3) 0.9347(19)
H17 H 0.1733(19) -0.241(3) 0.7824(16)
H18 H 0.185(2) -0.361(3) 0.6691(18)
H19 H 0.4320(19) -0.317(3) 0.6791(16)
H20 H 0.4198(18) -0.197(3) 0.7924(16)
H21 H -0.0371(19) 0.242(3) 0.7162(16)
H22 H 0.2499(19) 0.311(3) 0.7745(16)
H23 H 0.403(2) 0.184(3) 1.1411(19)
H24 H -0.004(2) -0.267(3) 1.0344(19)
Mn1C Mn 0.33850(3) -0.58652(4) 0.47424(2)
Mn2A Mn -0.13165(3) 0.42966(4) 0.51177(2)
Mn2C Mn 0.13165(3) -0.42966(4) 0.48823(2)
Mn2C_2 Mn 0.13165(3) 0.57034(4) 0.48823(2)
O3C O 0.38937(12) -0.03268(17) 1.07327(10)
O4C O 0.25324(12) -0.02975(17) 1.05691(10)
O7C O 0.06937(12) 0.00370(18) 1.08532(10)
O8A O 0.03615(13) -0.14412(18) 0.91160(10)
O12 O 0.47236(16) -0.1601(2) 0.46398(14)
N3 N 0.35486(18) -0.0514(2) 0.42967(15)
C23 C 0.3973(3) -0.1428(3) 0.46762(19)
C24 C 0.3978(2) 0.0365(3) 0.3796(2)
H25 H 0.3857 0.0141 0.3256
H26 H 0.4579 0.0306 0.3894
H27 H 0.3789 0.1243 0.3896
C25 C 0.2654(2) -0.0357(3) 0.4360(2)
H28 H 0.2533 0.0490 0.4578
H29 H 0.2432 -0.1026 0.4697
H30 H 0.2394 -0.0427 0.3846
H31 H 0.358(2) -0.202(3) 0.5007(18)
loop_
_geom_bond_atom_site_label_1
_geom_bond_atom_site_label_2
_geom_bond_site_symmetry_1
_geom_bond_site_symmetry_2
Mn1 O1 1_555 1_555
Mn2 O2 1_555 1_555
O1 C1 1_555 1_555
O2 C1 1_555 1_555
O3 C8 1_555 1_555
O4 C8 1_555 1_555
O5 Mn1 1_555 1_555
O6 Mn2 1_555 1_555
O7 C16 1_555 1_555
O8 C16 1_555 1_555
O9 Mn1 1_555 1_555
O10 Mn2 1_555 1_555
O11 Mn1 1_555 1_555
C1 C2 1_555 1_555
C2 C3 1_555 1_555
C3 C4 1_555 1_555
C4 C5 1_555 1_555
C5 C6 1_555 1_555
C6 C7 1_555 1_555
C7 C2 1_555 1_555
C8 C5 1_555 1_555
C9 O5 1_555 1_555
C10 C9 1_555 1_555
C11 C10 1_555 1_555
H1 C11 1_555 1_555
C12 C11 1_555 1_555
C13 C12 1_555 1_555
C14 C13 1_555 1_555
H2 C14 1_555 1_555
C15 C10 1_555 1_555
C16 C13 1_555 1_555
N1 C17 1_555 1_555
C17 O9 1_555 1_555
C18 N1 1_555 1_555
H3 C18 1_555 1_555
H4 C18 1_555 1_555
H5 C18 1_555 1_555
C19 N1 1_555 1_555
H6 C19 1_555 1_555
H7 C19 1_555 1_555
H8 C19 1_555 1_555
N2 C20 1_555 1_555
C20 O10 1_555 1_555
C21 N2 1_555 1_555
H9 C21 1_555 1_555
H10 C21 1_555 1_555
H11 C21 1_555 1_555
C22 N2 1_555 1_555
H12 C22 1_555 1_555
H13 C22 1_555 1_555
H14 C22 1_555 1_555
H15 O11 1_555 1_555
H16 O11 1_555 1_555
H17 C3 1_555 1_555
H18 C4 1_555 1_555
H19 C6 1_555 1_555
H20 C7 1_555 1_555
H21 C12 1_555 1_555
H22 C15 1_555 1_555
H23 C17 1_555 1_555
H24 C20 1_555 1_555
O12 C23 1_555 1_555
N3 C23 1_555 1_555
C23 H31 1_555 1_555
C24 N3 1_555 1_555
H25 C24 1_555 1_555
H26 C24 1_555 1_555
H27 C24 1_555 1_555
C25 N3 1_555 1_555
H28 C25 1_555 1_555
H29 C25 1_555 1_555
H30 C25 1_555 1_555
Mn1C O3 1_555 1_555
Mn2A O8 1_555 1_555
Mn2C O4 1_555 1_555
Mn2C_2 O7 1_555 1_555
O3C Mn1 1_555 1_555
O4C Mn1 1_555 1_555
O7C Mn2 1_555 1_555
O8A Mn2 1_555 1_555
Mn2 O4C 1_555 1_555
O4 Mn1C 1_555 1_555
O6 C9 1_555 1_555
C14 C15 1_555 1_555

#END
