
#######################################################################
#
#                 Cambridge Crystallographic Data Centre
#                                CCDC 
#
#######################################################################
#
# If this CIF has been generated from an entry in the Cambridge 
# Structural Database, then it will include bibliographic, chemical, 
# crystal, experimental, refinement or atomic coordinate data resulting 
# from the CCDC's data processing and validation procedures.
#
#######################################################################

data_XOSHEU
_symmetry_cell_setting           monoclinic
_symmetry_space_group_name_H-M   'P 21/c'
_symmetry_Int_Tables_number      14
_space_group_name_Hall           '-P 2ybc'
loop_
_symmetry_equiv_pos_site_id
_symmetry_equiv_pos_as_xyz
1 x,y,z
2 -x,1/2+y,1/2-z
3 -x,-y,-z
4 x,1/2-y,1/2+z
_cell_length_a                   10.1639(4)
_cell_length_b                   9.6526(3)
_cell_length_c                   18.9701(6)
_cell_angle_alpha                90
_cell_angle_beta                 91.740(3)
_cell_angle_gamma                90
_cell_volume                     1860.26
loop_
_atom_site_label
_atom_site_type_symbol
_atom_site_fract_x
_atom_site_fract_y
_atom_site_fract_z
Cu1 Cu 0.39917(4) 0.04022(3) 0.167158(18)
O1 O 0.5049(2) 0.0478(2) 0.25260(11)
O2 O 0.2916(2) 0.0069(2) 0.08788(11)
N1 N 0.6144(2) -0.1305(2) 0.19885(12)
N2 N 0.7247(2) -0.3133(2) 0.29572(12)
H1 H 0.8041 -0.3530 0.2911
H2 H 0.6953 -0.2893 0.2522
C1 C 0.5383(3) -0.1648(3) 0.08362(15)
N3 N 0.5216(2) -0.1039(2) 0.14395(12)
C2 C 0.7782(4) 0.0454(3) 0.42029(17)
H3 H 0.7885 0.1232 0.4488
C3 C 0.3207(3) -0.0719(3) 0.03373(15)
C4 C 0.7435(3) -0.1885(3) 0.33569(14)
C5 C 0.6402(4) -0.4049(4) 0.0872(2)
H4 H 0.6113 -0.4172 0.1345
H5 H 0.7217 -0.4534 0.0815
H6 H 0.5749 -0.4411 0.0545
C6 C 0.8264(3) -0.1921(3) 0.39524(16)
H7 H 0.8702 -0.2738 0.4071
C7 C 0.4547(4) -0.2238(3) -0.03641(16)
H8 H 0.5313 -0.2749 -0.0417
C8 C 0.6790(3) -0.0651(3) 0.31701(15)
C9 C 0.5937(3) -0.0488(3) 0.25230(15)
C10 C 0.6604(3) -0.2504(3) 0.07280(16)
H9 H 0.7308 -0.2161 0.1038
H10 H 0.6878 -0.2387 0.0246
C11 C 0.8448(3) -0.0764(3) 0.43698(16)
H11 H 0.9016 -0.0800 0.4763
C12 C 0.4375(3) -0.1512(3) 0.02729(15)
C13 C 0.3621(4) -0.2219(3) -0.09096(17)
H12 H 0.3766 -0.2702 -0.1324
C14 C 0.6971(3) 0.0497(3) 0.36115(17)
H13 H 0.6528 0.1315 0.3501
C15 C 0.2269(4) -0.0756(3) -0.02272(17)
H14 H 0.1484 -0.0273 -0.0185
C16 C 0.2478(4) -0.1477(4) -0.08336(18)
H15 H 0.1843 -0.1466 -0.1197
Cu1A Cu 0.60083(4) -0.45978(3) 0.332842(18)
N2A N 0.2753(2) 0.1867(2) 0.20428(12)
S1 S 0.99790(12) 0.90896(12) 0.22742(7)
O3 O 1.0199(3) 1.0612(3) 0.21862(19)
C17 C 1.1449(7) 0.8454(5) 0.2635(3)
H16 H 1.2165 0.8742 0.2350
H17 H 1.1416 0.7461 0.2649
H18 H 1.1581 0.8808 0.3104
C18 C 1.0150(5) 0.8344(5) 0.1439(3)
H19 H 0.9457 0.8668 0.1126
H20 H 1.0101 0.7353 0.1478
H21 H 1.0986 0.8601 0.1256
loop_
_geom_bond_atom_site_label_1
_geom_bond_atom_site_label_2
_geom_bond_site_symmetry_1
_geom_bond_site_symmetry_2
Cu1 O1 1_555 1_555
O1 C9 1_555 1_555
O2 Cu1 1_555 1_555
N1 N3 1_555 1_555
N2 H1 1_555 1_555
H2 N2 1_555 1_555
C1 N3 1_555 1_555
N3 Cu1 1_555 1_555
C2 H3 1_555 1_555
C3 O2 1_555 1_555
C4 N2 1_555 1_555
C5 H4 1_555 1_555
H5 C5 1_555 1_555
H6 C5 1_555 1_555
C6 C4 1_555 1_555
H7 C6 1_555 1_555
C7 H8 1_555 1_555
C8 C4 1_555 1_555
C9 N1 1_555 1_555
C10 C1 1_555 1_555
H9 C10 1_555 1_555
H10 C10 1_555 1_555
C11 C2 1_555 1_555
H11 C11 1_555 1_555
C12 C1 1_555 1_555
C13 C7 1_555 1_555
H12 C13 1_555 1_555
C14 C2 1_555 1_555
H13 C14 1_555 1_555
C15 C3 1_555 1_555
H14 C15 1_555 1_555
C16 C13 1_555 1_555
H15 C16 1_555 1_555
S1 O3 1_555 1_555
C17 S1 1_555 1_555
H16 C17 1_555 1_555
H17 C17 1_555 1_555
H18 C17 1_555 1_555
C18 S1 1_555 1_555
H19 C18 1_555 1_555
H20 C18 1_555 1_555
H21 C18 1_555 1_555
Cu1A N2 1_555 1_555
N2A Cu1 1_555 1_555
C3 C12 1_555 1_555
C5 C10 1_555 1_555
C6 C11 1_555 1_555
C7 C12 1_555 1_555
C8 C9 1_555 1_555
C8 C14 1_555 1_555
C15 C16 1_555 1_555

#END
