
#######################################################################
#
#                 Cambridge Crystallographic Data Centre
#                                CCDC 
#
#######################################################################
#
# If this CIF has been generated from an entry in the Cambridge 
# Structural Database, then it will include bibliographic, chemical, 
# crystal, experimental, refinement or atomic coordinate data resulting 
# from the CCDC's data processing and validation procedures.
#
#######################################################################

data_XOSZIO
_symmetry_cell_setting           monoclinic
_symmetry_space_group_name_H-M   'P 21/n'
_symmetry_Int_Tables_number      14
_space_group_name_Hall           '-P 2yn'
loop_
_symmetry_equiv_pos_site_id
_symmetry_equiv_pos_as_xyz
1 x,y,z
2 1/2+x,1/2-y,1/2+z
3 -x,-y,-z
4 1/2-x,1/2+y,1/2-z
_cell_length_a                   11.4570(2)
_cell_length_b                   16.9176(2)
_cell_length_c                   12.46340(10)
_cell_angle_alpha                90
_cell_angle_beta                 92.5630(10)
_cell_angle_gamma                90
_cell_volume                     2413.3
loop_
_atom_site_label
_atom_site_type_symbol
_atom_site_fract_x
_atom_site_fract_y
_atom_site_fract_z
Mo1 Mo -0.26655(4) -0.38788(3) -0.50154(3)
Mo2 Mo -0.12959(4) -0.46781(2) -0.69552(3)
Mo3 Mo -0.16766(4) -0.52312(2) -0.33719(3)
Mo4 Mo 0.03238(4) -0.39885(2) -0.46741(3)
Cu1 Cu -0.29494(5) -0.53505(4) -0.06971(5)
O1 O -0.2402(6) -0.4445(3) 0.0121(5)
O2 O -0.3340(4) -0.3426(2) -0.1111(4)
O3 O -0.2450(3) -0.5278(2) -0.7215(3)
O4 O -0.2049(3) -0.3777(2) -0.6425(3)
O5 O -0.0928(3) -0.4343(2) -0.8198(3)
O6 O -0.0880(3) -0.33563(19) -0.4666(3)
O7 O -0.2324(3) -0.4221(2) -0.3557(3)
O8 O -0.2817(3) -0.5803(2) -0.3815(3)
O9 O -0.1200(3) -0.49081(19) -0.5144(3)
O10 O 0.3773(3) -0.5471(2) -0.4674(3)
O11 O 0.3348(3) -0.6993(2) -0.5185(3)
O12 O 0.0067(3) -0.45141(19) -0.3305(2)
O13 O -0.4006(3) -0.4639(2) -0.1512(3)
O14 O 0.1477(3) -0.3412(2) -0.4338(3)
O15 O -0.0405(3) -0.59532(19) -0.3766(3)
O16 O -0.1624(3) -0.5328(2) -0.2004(3)
N1 N -0.5817(4) -0.3824(3) -0.4159(4)
H1 H -0.6102 -0.4156 -0.4624
N2 N -0.7009(4) -0.8953(2) -0.4699(3)
N3 N -0.3826(4) -0.6250(2) -0.1383(3)
C1 C -0.3952(5) -0.3900(3) -0.1644(4)
C2 C -0.6038(5) -0.3055(4) -0.4309(5)
H2 H -0.653(5) -0.290(4) -0.495(5)
C3 C -0.4934(5) -0.2783(3) -0.2681(5)
H3 H -0.465(5) -0.243(4) -0.219(5)
C4 C -0.5610(5) -0.2524(4) -0.3570(5)
H4 H -0.574(6) -0.195(4) -0.363(6)
C5 C -0.4708(4) -0.3584(3) -0.2567(4)
C6 C -0.5174(4) -0.4103(3) -0.3319(4)
H5 H -0.505(5) -0.473(3) -0.328(4)
C7 C -0.5839(5) -0.8952(3) -0.4679(4)
H6 H -0.550(4) -0.931(3) -0.523(4)
C8 C -0.5181(5) -0.8482(3) -0.3967(4)
H7 H -0.444(4) -0.853(3) -0.401(4)
C9 C -0.5723(4) -0.7989(3) -0.3256(4)
C10 C -0.6930(5) -0.8025(3) -0.3268(4)
H8 H -0.726(4) -0.774(3) -0.283(4)
C11 C -0.7536(5) -0.8495(3) -0.3987(4)
H9 H -0.832(5) -0.853(3) -0.401(5)
C12 C -0.4989(5) -0.6212(4) -0.1564(5)
H10 H 0.033(5) -0.078(4) -1.374(5)
C13 C -0.1708(5) -0.1870(3) -1.3208(4)
H11 H -0.241(5) -0.190(3) -1.326(4)
C14 C -0.5610(5) -0.6764(4) -0.2137(5)
H12 H 0.127(5) -0.171(3) -1.275(4)
C15 C -0.1139(5) -0.2452(3) -1.2619(4)
H13 H -0.152(4) -0.286(3) -1.237(4)
C16 C -0.5061(4) -0.7408(3) -0.2582(4)
H14 H -0.204(6) -0.438(4) 0.067(6)
H15 H -0.262(8) -0.408(6) -0.011(8)
Cu1A Cu -0.79494(5) -0.96495(4) -0.56971(5)
O9B O 0.1200(3) -0.50919(19) -0.4856(3)
Mo1B Mo 0.26655(4) -0.61212(3) -0.49846(3)
O4B O 0.2049(3) -0.6223(2) -0.3575(3)
Mo2B Mo 0.12959(4) -0.53219(2) -0.30448(3)
O3B O 0.2450(3) -0.4722(2) -0.2785(3)
O5B O 0.0928(3) -0.5657(2) -0.1802(3)
Mo3B Mo 0.16766(4) -0.47688(2) -0.66281(3)
O7B O 0.2324(3) -0.5779(2) -0.6443(3)
O6B O 0.0880(3) -0.66437(19) -0.5334(3)
Mo4B Mo -0.03238(4) -0.60115(2) -0.53259(3)
O12B O -0.0067(3) -0.54859(19) -0.6695(2)
O15B O 0.0405(3) -0.40468(19) -0.6234(3)
O8B O 0.2817(3) -0.4197(2) -0.6185(3)
O16B O 0.1624(3) -0.4672(2) -0.7996(3)
Cu1B Cu 0.29494(5) -0.46495(4) -0.93029(5)
O1B O 0.2402(6) -0.5555(3) -1.0121(5)
H14B H 0.204(6) -0.562(4) -1.067(6)
H15B H 0.262(8) -0.592(6) -0.989(8)
O13B O 0.4006(3) -0.5361(2) -0.8488(3)
C1B C 0.3952(5) -0.6100(3) -0.8356(4)
O2B O 0.3340(4) -0.6574(2) -0.8889(4)
C5B C 0.4708(4) -0.6416(3) -0.7433(4)
C3B C 0.4934(5) -0.7217(3) -0.7319(5)
H3B H 0.465(5) -0.757(4) -0.781(5)
C4B C 0.5610(5) -0.7476(4) -0.6430(5)
C2B C 0.6038(5) -0.6945(4) -0.5691(5)
N1B N 0.5817(4) -0.6176(3) -0.5841(4)
H1B H 0.6102 -0.5844 -0.5376
C6B C 0.5174(4) -0.5897(3) -0.6681(4)
H5B H 0.505(5) -0.527(3) -0.672(4)
H2B H 0.653(5) -0.710(4) -0.505(5)
H4B H 0.574(6) -0.805(4) -0.637(6)
N2C N 0.2009(4) -0.3953(2) -1.0301(3)
C7C C 0.0839(5) -0.3952(3) -1.0321(4)
H6C H 0.050(4) -0.431(3) -0.977(4)
C8C C 0.0181(5) -0.3482(3) -1.1033(4)
H7C H -0.056(4) -0.353(3) -1.099(4)
C9C C 0.0723(4) -0.2989(3) -1.1744(4)
C10C C 0.1930(5) -0.3025(3) -1.1732(4)
H8C H 0.226(4) -0.274(3) -1.217(4)
C11C C 0.2536(5) -0.3495(3) -1.1013(4)
H9C H 0.332(5) -0.353(3) -1.099(5)
C16C C 0.0061(4) -0.2408(3) -1.2418(4)
C14C C 0.0610(5) -0.1764(4) -1.2863(5)
C12C C -0.0011(5) -0.1212(4) -1.3436(5)
N3C N -0.1174(4) -0.1250(2) -1.3617(3)
Cu1C Cu -0.20506(5) -0.03505(4) -1.43029(5)
N3B N 0.3826(4) -0.3750(2) -0.8617(3)
O14B O -0.1477(3) -0.6588(2) -0.5662(3)
O10B O -0.3773(3) -0.4529(2) -0.5326(3)
O11B O -0.3348(3) -0.3007(2) -0.4815(3)
N2A N -0.2009(4) -0.6047(2) 0.0301(3)
C13C C -0.3292(5) -0.6870(3) -0.1792(4)
H11C H -0.259(5) -0.690(3) -0.174(4)
C15C C -0.3861(5) -0.7452(3) -0.2381(4)
H13C H -0.348(4) -0.786(3) -0.263(4)
H10C H -0.533(5) -0.578(4) -0.126(5)
H12C H -0.627(5) -0.671(3) -0.225(4)
loop_
_geom_bond_atom_site_label_1
_geom_bond_atom_site_label_2
_geom_bond_site_symmetry_1
_geom_bond_site_symmetry_2
Mo1 O4 1_555 1_555
Mo2 O3 1_555 1_555
Mo3 O7 1_555 1_555
Mo4 O6 1_555 1_555
Cu1 O1 1_555 1_555
O1 H14 1_555 1_555
O2 C1 1_555 1_555
O4 Mo2 1_555 1_555
O5 Mo2 1_555 1_555
O6 Mo1 1_555 1_555
O7 Mo1 1_555 1_555
O8 Mo3 1_555 1_555
O9 Mo1 1_555 1_555
O10 Mo1B 1_555 1_555
O11 Mo1B 1_555 1_555
O12 Mo3 1_555 1_555
O13 Cu1 1_555 1_555
O14 Mo4 1_555 1_555
O15 Mo3 1_555 1_555
O16 Mo3 1_555 1_555
N1 H1 1_555 1_555
N2 C7 1_555 1_555
N3 Cu1 1_555 1_555
C1 O13 1_555 1_555
C2 N1 1_555 1_555
H2 C2 1_555 1_555
C3 H3 1_555 1_555
C4 C2 1_555 1_555
H4 C4 1_555 1_555
C5 C1 1_555 1_555
C6 N1 1_555 1_555
H5 C6 1_555 1_555
C7 H6 1_555 1_555
C8 C7 1_555 1_555
H7 C8 1_555 1_555
C9 C8 1_555 1_555
C10 C9 1_555 1_555
H8 C10 1_555 1_555
C11 N2 1_555 1_555
H9 C11 1_555 1_555
C12 N3 1_555 1_555
H10 C12C 1_555 1_555
C13 H11 1_555 1_555
C14 C12 1_555 1_555
H12 C14C 1_555 1_555
C15 C13 1_555 1_555
H13 C15 1_555 1_555
C16 C9 1_555 1_555
H15 O1 1_555 1_555
Cu1A N2 1_555 1_555
O9B Mo4 1_555 1_555
Mo1B O9B 1_555 1_555
O4B Mo1B 1_555 1_555
Mo2B O12 1_555 1_555
O3B Mo2B 1_555 1_555
O5B Mo2B 1_555 1_555
Mo3B O9B 1_555 1_555
O7B Mo1B 1_555 1_555
O6B Mo1B 1_555 1_555
Mo4B O9 1_555 1_555
O12B Mo2 1_555 1_555
O15B Mo2 1_555 1_555
O8B Mo3B 1_555 1_555
O16B Mo3B 1_555 1_555
Cu1B O16B 1_555 1_555
O1B Cu1B 1_555 1_555
H14B O1B 1_555 1_555
H15B O1B 1_555 1_555
O13B Cu1B 1_555 1_555
C1B O13B 1_555 1_555
O2B C1B 1_555 1_555
C5B C1B 1_555 1_555
C3B C5B 1_555 1_555
H3B C3B 1_555 1_555
C4B C3B 1_555 1_555
C2B C4B 1_555 1_555
N1B C2B 1_555 1_555
H1B N1B 1_555 1_555
C6B C5B 1_555 1_555
H5B C6B 1_555 1_555
H2B C2B 1_555 1_555
H4B C4B 1_555 1_555
N2C Cu1B 1_555 1_555
C7C N2C 1_555 1_555
H6C C7C 1_555 1_555
C8C C7C 1_555 1_555
H7C C8C 1_555 1_555
C9C C8C 1_555 1_555
C10C C9C 1_555 1_555
H8C C10C 1_555 1_555
C11C N2C 1_555 1_555
H9C C11C 1_555 1_555
C16C C15 1_555 1_555
C14C C16C 1_555 1_555
C12C C14C 1_555 1_555
N3C C13 1_555 1_555
Cu1C N3C 1_555 1_555
N3B Cu1B 1_555 1_555
O14B Mo4B 1_555 1_555
O10B Mo1 1_555 1_555
O11B Mo1 1_555 1_555
N2A Cu1 1_555 1_555
C13C N3 1_555 1_555
H11C C13C 1_555 1_555
C15C C16 1_555 1_555
H13C C15C 1_555 1_555
H10C C12 1_555 1_555
H12C C14 1_555 1_555
Mo2 O9 1_555 1_555
Mo3 O9 1_555 1_555
Mo4 O15B 1_555 1_555
Mo4 O9 1_555 1_555
Mo4 O12 1_555 1_555
Cu1 O16 1_555 1_555
O15 Mo2B 1_555 1_555
O15 Mo4B 1_555 1_555
C3 C5 1_555 1_555
C3 C4 1_555 1_555
C5 C6 1_555 1_555
C10 C11 1_555 1_555
C14 C16 1_555 1_555
O9B Mo2B 1_555 1_555
O9B Mo4B 1_555 1_555
O4B Mo2B 1_555 1_555
Mo3B O7B 1_555 1_555
Mo3B O15B 1_555 1_555
Mo3B O12B 1_555 1_555
O6B Mo4B 1_555 1_555
Mo4B O12B 1_555 1_555
N1B C6B 1_555 1_555
C9C C16C 1_555 1_555
C10C C11C 1_555 1_555
C12C N3C 1_555 1_555
C13C C15C 1_555 1_555

#END
