
#######################################################################
#
#                 Cambridge Crystallographic Data Centre
#                                CCDC 
#
#######################################################################
#
# If this CIF has been generated from an entry in the Cambridge 
# Structural Database, then it will include bibliographic, chemical, 
# crystal, experimental, refinement or atomic coordinate data resulting 
# from the CCDC's data processing and validation procedures.
#
#######################################################################

data_XOTNEB
_symmetry_cell_setting           monoclinic
_symmetry_space_group_name_H-M   'C 2/c'
_symmetry_Int_Tables_number      15
_space_group_name_Hall           '-C 2yn'
loop_
_symmetry_equiv_pos_site_id
_symmetry_equiv_pos_as_xyz
1 x,y,z
2 -x,y,1/2-z
3 1/2+x,1/2+y,z
4 1/2-x,1/2+y,1/2-z
5 -x,-y,-z
6 x,-y,1/2+z
7 1/2-x,1/2-y,-z
8 1/2+x,1/2-y,1/2+z
_cell_length_a                   17.1657(18)
_cell_length_b                   7.4202(8)
_cell_length_c                   12.8427(14)
_cell_angle_alpha                90
_cell_angle_beta                 106.434(2)
_cell_angle_gamma                90
_cell_volume                     1568.98
loop_
_atom_site_label
_atom_site_type_symbol
_atom_site_fract_x
_atom_site_fract_y
_atom_site_fract_z
Zn1 Zn 0.5000 0.85021(6) 0.7500
N1 N 0.33650(13) 0.4432(3) 0.56112(18)
N2 N 0.22799(13) 0.5647(3) 0.58066(18)
O1 O 0.45222(12) 0.6928(3) 0.62659(16)
O2 O 0.55345(12) 0.4939(3) 0.64707(18)
O3 O 0.07343(12) 0.5284(3) 0.71787(18)
O4 O 0.17138(14) 0.3390(3) 0.7078(2)
C1 C 0.48185(16) 0.5352(4) 0.6227(2)
C2 C 0.42086(16) 0.3833(4) 0.5861(2)
H1 H 0.4295 0.3271 0.5221
H2 H 0.4306 0.2928 0.6428
C3 C 0.28132(17) 0.4479(4) 0.4603(2)
H3 H 0.2894 0.4070 0.3958
C4 C 0.21312(18) 0.5231(4) 0.4728(2)
H4 H 0.1650 0.5431 0.4185
C5 C 0.30320(16) 0.5147(4) 0.6323(2)
H5 H 0.3282 0.5277 0.7063
C6 C 0.16804(17) 0.6324(4) 0.6320(3)
H6 H 0.1232 0.6866 0.5773
H7 H 0.1927 0.7250 0.6843
C7 C 0.13578(16) 0.4825(4) 0.6893(2)
N1A N 0.66350(13) 0.4432(3) 0.93888(18)
N2A N 0.77201(13) 0.5647(3) 0.91934(18)
O1A O 0.54778(12) 0.6928(3) 0.87341(16)
O2A O 0.44655(12) 0.4939(3) 0.85293(18)
O3A O 0.92657(12) 0.5284(3) 0.78213(18)
O4A O 0.82862(14) 0.3390(3) 0.7922(2)
C1A C 0.51815(16) 0.5352(4) 0.8773(2)
C2A C 0.57914(16) 0.3833(4) 0.9139(2)
H1A H 0.5705 0.3271 0.9779
H2A H 0.5694 0.2928 0.8572
C3A C 0.71868(17) 0.4479(4) 1.0397(2)
H3A H 0.7106 0.4070 1.1042
C4A C 0.78688(18) 0.5231(4) 1.0272(2)
H4A H 0.8350 0.5431 1.0815
C5A C 0.69680(16) 0.5147(4) 0.8677(2)
H5A H 0.6718 0.5277 0.7937
C6A C 0.83196(17) 0.6324(4) 0.8680(3)
H6A H 0.8768 0.6866 0.9227
H7A H 0.8073 0.7250 0.8157
C7A C 0.86422(16) 0.4825(4) 0.8107(2)
Zn1B Zn 0.0000 0.35021(6) 0.7500
Zn1B_2 Zn 1.0000 0.35021(6) 0.7500
O3B O 0.57343(12) 1.0284(3) 0.71787(18)
O3C O 0.42657(12) 1.0284(3) 0.78213(18)
loop_
_geom_bond_atom_site_label_1
_geom_bond_atom_site_label_2
_geom_bond_site_symmetry_1
_geom_bond_site_symmetry_2
Zn1 O1 1_555 1_555
N1 C2 1_555 1_555
N2 C4 1_555 1_555
O1 C1 1_555 1_555
O2 C1 1_555 1_555
O3 C7 1_555 1_555
O4 C7 1_555 1_555
C1 C2 1_555 1_555
C2 H1 1_555 1_555
H2 C2 1_555 1_555
C3 N1 1_555 1_555
H3 C3 1_555 1_555
C4 C3 1_555 1_555
H4 C4 1_555 1_555
C5 N1 1_555 1_555
H5 C5 1_555 1_555
C6 N2 1_555 1_555
H6 C6 1_555 1_555
H7 C6 1_555 1_555
C7 C6 1_555 1_555
N1A C2A 1_555 1_555
N2A C4A 1_555 1_555
O1A Zn1 1_555 1_555
O2A C1A 1_555 1_555
O3A C7A 1_555 1_555
O4A C7A 1_555 1_555
C1A O1A 1_555 1_555
C2A C1A 1_555 1_555
H1A C2A 1_555 1_555
H2A C2A 1_555 1_555
C3A N1A 1_555 1_555
H3A C3A 1_555 1_555
C4A C3A 1_555 1_555
H4A C4A 1_555 1_555
C5A N1A 1_555 1_555
H5A C5A 1_555 1_555
C6A N2A 1_555 1_555
H6A C6A 1_555 1_555
H7A C6A 1_555 1_555
C7A C6A 1_555 1_555
Zn1B O3 1_555 1_555
Zn1B_2 O3A 1_555 1_555
O3B Zn1 1_555 1_555
O3C Zn1 1_555 1_555
N2 C5 1_555 1_555
N2A C5A 1_555 1_555

#END
