
#######################################################################
#
#                 Cambridge Crystallographic Data Centre
#                                CCDC 
#
#######################################################################
#
# If this CIF has been generated from an entry in the Cambridge 
# Structural Database, then it will include bibliographic, chemical, 
# crystal, experimental, refinement or atomic coordinate data resulting 
# from the CCDC's data processing and validation procedures.
#
#######################################################################

data_XOTSUV
_symmetry_cell_setting           monoclinic
_symmetry_space_group_name_H-M   'P 21/c'
_symmetry_Int_Tables_number      14
_space_group_name_Hall           '-P 2ybc'
loop_
_symmetry_equiv_pos_site_id
_symmetry_equiv_pos_as_xyz
1 x,y,z
2 -x,1/2+y,1/2-z
3 -x,-y,-z
4 x,1/2-y,1/2+z
_cell_length_a                   7.6887(8)
_cell_length_b                   12.5870(13)
_cell_length_c                   7.8704(8)
_cell_angle_alpha                90
_cell_angle_beta                 118.098(2)
_cell_angle_gamma                90
_cell_volume                     671.91
loop_
_atom_site_label
_atom_site_type_symbol
_atom_site_fract_x
_atom_site_fract_y
_atom_site_fract_z
Zn1 Zn 0.5000 0.0000 1.0000
O1 O 0.6111(3) 0.02464(17) 0.8015(3)
O2 O -0.2321(3) 0.44724(17) 0.7274(3)
O3 O -0.0773(3) 0.3720(2) 0.5804(3)
N1 N 0.2166(3) 0.29674(19) 0.9220(4)
N2 N 0.3692(4) 0.33435(19) 0.8987(4)
N3 N 0.3939(3) 0.15868(18) 0.9446(4)
C1 C 0.4715(4) 0.2481(2) 0.9140(5)
H1 H 0.5876 0.2486 0.9045
C2 C 0.2336(4) 0.1929(2) 0.9483(4)
H2 H 0.1453 0.1501 0.9667
C3 C 0.0661(5) 0.3655(3) 0.9234(5)
H3 H 0.1287 0.4293 0.9956
H4 H 0.0046 0.3295 0.9903
C4 C -0.0934(4) 0.3976(2) 0.7239(4)
H5 H 0.616(6) -0.028(2) 0.730(5)
H6 H 0.729(3) 0.054(3) 0.866(5)
Zn1A Zn -0.5000 0.5000 0.5000
Zn1A_2 Zn 1.5000 -0.5000 1.5000
O1B O 0.3889(3) -0.02464(17) 1.1985(3)
O2B O 1.2321(3) -0.44724(17) 1.2726(3)
O2A O 0.2321(3) -0.05276(17) 0.7726(3)
O2C O 0.7679(3) 0.05276(17) 1.2274(3)
O3B O 1.0773(3) -0.3720(2) 1.4196(3)
N1B N 0.7834(3) -0.29674(19) 1.0780(4)
N2B N 0.6308(4) -0.33435(19) 1.1013(4)
N3B N 0.6061(3) -0.15868(18) 1.0554(4)
C1B C 0.5285(4) -0.2481(2) 1.0860(5)
H1B H 0.4124 -0.2486 1.0955
C2B C 0.7664(4) -0.1929(2) 1.0517(4)
H2B H 0.8547 -0.1501 1.0333
C3B C 0.9339(5) -0.3655(3) 1.0766(5)
H3B H 0.8713 -0.4293 1.0044
H4B H 0.9954 -0.3295 1.0097
C4B C 1.0934(4) -0.3976(2) 1.2761(4)
H5B H 0.384(6) 0.028(2) 1.270(5)
H6B H 0.271(3) -0.054(3) 1.134(5)
loop_
_geom_bond_atom_site_label_1
_geom_bond_atom_site_label_2
_geom_bond_site_symmetry_1
_geom_bond_site_symmetry_2
Zn1 O1 1_555 1_555
O1 H5 1_555 1_555
O2 C4 1_555 1_555
O3 C4 1_555 1_555
N1 N2 1_555 1_555
N2 C1 1_555 1_555
N3 Zn1 1_555 1_555
C1 N3 1_555 1_555
H1 C1 1_555 1_555
C2 N1 1_555 1_555
H2 C2 1_555 1_555
C3 N1 1_555 1_555
H3 C3 1_555 1_555
H4 C3 1_555 1_555
C4 C3 1_555 1_555
H6 O1 1_555 1_555
Zn1A O2 1_555 1_555
Zn1A_2 O2B 1_555 1_555
O1B Zn1 1_555 1_555
O2B C4B 1_555 1_555
O2A Zn1 1_555 1_555
O2C Zn1 1_555 1_555
O3B C4B 1_555 1_555
N1B N2B 1_555 1_555
N2B C1B 1_555 1_555
N3B Zn1 1_555 1_555
C1B N3B 1_555 1_555
H1B C1B 1_555 1_555
C2B N1B 1_555 1_555
H2B C2B 1_555 1_555
C3B N1B 1_555 1_555
H3B C3B 1_555 1_555
H4B C3B 1_555 1_555
C4B C3B 1_555 1_555
H5B O1B 1_555 1_555
H6B O1B 1_555 1_555
N3 C2 1_555 1_555
N3B C2B 1_555 1_555

#END
