
#######################################################################
#
#                 Cambridge Crystallographic Data Centre
#                                CCDC 
#
#######################################################################
#
# If this CIF has been generated from an entry in the Cambridge 
# Structural Database, then it will include bibliographic, chemical, 
# crystal, experimental, refinement or atomic coordinate data resulting 
# from the CCDC's data processing and validation procedures.
#
#######################################################################

data_XOTSOP01
_symmetry_cell_setting           monoclinic
_symmetry_space_group_name_H-M   'P 21/c'
_symmetry_Int_Tables_number      14
_space_group_name_Hall           '-P 2ybc'
loop_
_symmetry_equiv_pos_site_id
_symmetry_equiv_pos_as_xyz
1 x,y,z
2 -x,1/2+y,1/2-z
3 -x,-y,-z
4 x,1/2-y,1/2+z
_cell_length_a                   7.6673(15)
_cell_length_b                   12.559(3)
_cell_length_c                   7.9117(16)
_cell_angle_alpha                90
_cell_angle_beta                 118.58(3)
_cell_angle_gamma                90
_cell_volume                     669.015
loop_
_atom_site_label
_atom_site_type_symbol
_atom_site_fract_x
_atom_site_fract_y
_atom_site_fract_z
Ni1 Ni 0.5000 0.5000 0.5000
O1 O 0.7669(2) 0.44824(12) 0.7249(2)
C1 C 0.9085(3) 0.39974(15) 0.7218(3)
O2 O 0.3971(2) 0.52284(13) 0.6981(2)
N1 N 1.3969(2) 0.15623(12) 0.9453(2)
N2 N 1.2216(2) 0.29705(13) 0.9207(2)
O3 O 0.9249(2) 0.37534(15) 0.5779(2)
N3 N 1.3766(3) 0.33291(13) 0.8970(3)
C2 C 1.4771(3) 0.24514(16) 0.9131(3)
H1 H 1.5932 0.2442 0.9033
C3 C 1.2360(3) 0.19251(16) 0.9481(3)
H2 H 1.1463 0.1508 0.9667
C4 C 1.0727(3) 0.36827(18) 0.9218(3)
H3 H 1.1383 0.4324 0.9915
H4 H 1.0124 0.3342 0.9911
H5 H 0.282(5) 0.553(3) 0.638(5)
H6 H 0.390(5) 0.474(2) 0.759(4)
Ni1A Ni 1.5000 0.0000 1.0000
Ni1A_2 Ni -0.5000 1.0000 0.0000
O1B O 0.2331(2) 0.55176(12) 0.2751(2)
C1B C 0.0915(3) 0.60026(15) 0.2782(3)
O2B O 0.6029(2) 0.47716(13) 0.3019(2)
N1B N -0.3969(2) 0.84377(12) 0.0547(2)
N1A N 0.6031(2) 0.65623(12) 0.5547(2)
N1C N 0.3969(2) 0.34377(12) 0.4453(2)
N2B N -0.2216(2) 0.70295(13) 0.0793(2)
O3B O 0.0751(2) 0.62466(15) 0.4221(2)
N3B N -0.3766(3) 0.66709(13) 0.1030(3)
C2B C -0.4771(3) 0.75486(16) 0.0869(3)
H1B H -0.5932 0.7558 0.0967
C3B C -0.2360(3) 0.80749(16) 0.0519(3)
H2B H -0.1463 0.8492 0.0333
C4B C -0.0727(3) 0.63173(18) 0.0782(3)
H3B H -0.1383 0.5676 0.0085
H4B H -0.0124 0.6658 0.0089
H5B H 0.718(5) 0.447(3) 0.362(5)
H6B H 0.610(5) 0.526(2) 0.241(4)
loop_
_geom_bond_atom_site_label_1
_geom_bond_atom_site_label_2
_geom_bond_site_symmetry_1
_geom_bond_site_symmetry_2
Ni1 O1 1_555 1_555
O1 C1 1_555 1_555
C1 O3 1_555 1_555
O2 Ni1 1_555 1_555
N1 C2 1_555 1_555
N2 N3 1_555 1_555
N3 C2 1_555 1_555
C2 H1 1_555 1_555
C3 N1 1_555 1_555
H2 C3 1_555 1_555
C4 C1 1_555 1_555
H3 C4 1_555 1_555
H4 C4 1_555 1_555
H5 O2 1_555 1_555
H6 O2 1_555 1_555
Ni1A N1 1_555 1_555
Ni1A_2 N1B 1_555 1_555
O1B Ni1 1_555 1_555
C1B O1B 1_555 1_555
O2B Ni1 1_555 1_555
N1B C2B 1_555 1_555
N1A Ni1 1_555 1_555
N1C Ni1 1_555 1_555
N2B N3B 1_555 1_555
O3B C1B 1_555 1_555
N3B C2B 1_555 1_555
C2B H1B 1_555 1_555
C3B N1B 1_555 1_555
H2B C3B 1_555 1_555
C4B C1B 1_555 1_555
H3B C4B 1_555 1_555
H4B C4B 1_555 1_555
H5B O2B 1_555 1_555
H6B O2B 1_555 1_555
N2 C3 1_555 1_555
N2 C4 1_555 1_555
N2B C3B 1_555 1_555
N2B C4B 1_555 1_555

#END
