
#######################################################################
#
#                 Cambridge Crystallographic Data Centre
#                                CCDC 
#
#######################################################################
#
# If this CIF has been generated from an entry in the Cambridge 
# Structural Database, then it will include bibliographic, chemical, 
# crystal, experimental, refinement or atomic coordinate data resulting 
# from the CCDC's data processing and validation procedures.
#
#######################################################################

data_XOTTAC
_symmetry_cell_setting           monoclinic
_symmetry_space_group_name_H-M   'P 21/n'
_symmetry_Int_Tables_number      14
_space_group_name_Hall           '-P 2yn'
loop_
_symmetry_equiv_pos_site_id
_symmetry_equiv_pos_as_xyz
1 x,y,z
2 1/2-x,1/2+y,1/2-z
3 -x,-y,-z
4 1/2+x,1/2-y,1/2+z
_cell_length_a                   8.7264(12)
_cell_length_b                   4.8637(7)
_cell_length_c                   12.3231(17)
_cell_angle_alpha                90
_cell_angle_beta                 91.025(2)
_cell_angle_gamma                90
_cell_volume                     522.941
loop_
_atom_site_label
_atom_site_type_symbol
_atom_site_fract_x
_atom_site_fract_y
_atom_site_fract_z
Cd1 Cd 1.0000 0.0000 0.5000
N1 N 0.7637(4) 0.0974(9) 0.5736(3)
N2 N 0.5503(6) 0.0102(6) 0.6536(4)
N3 N 0.5226(4) 0.2395(8) 0.5947(3)
O1 O 0.3772(4) -0.1415(7) 0.9069(3)
O2 O 0.4760(4) 0.2495(6) 0.8455(3)
C1 C 0.6557(5) 0.2806(9) 0.5502(4)
H1 H 0.6734 0.4295 0.5047
C2 C 0.6922(6) -0.0698(10) 0.6414(4)
H2 H 0.7367 -0.2217 0.6753
C3 C 0.4339(5) -0.1145(10) 0.7229(4)
H3 H 0.4539 -0.3101 0.7291
H4 H 0.3339 -0.0920 0.6883
C4 C 0.4303(6) 0.0083(8) 0.8346(5)
Cd1A Cd 0.5000 -0.5000 1.0000
Cd1A_2 Cd 0.5000 0.5000 1.0000
Cd1A_3 Cd 1.5000 -0.5000 0.0000
Cd1A_4 Cd 1.5000 0.5000 0.0000
N1B N 1.2363(4) -0.0974(9) 0.4264(3)
N2B N 1.4497(6) -0.0102(6) 0.3464(4)
N3B N 1.4774(4) -0.2395(8) 0.4053(3)
O1B O 1.6228(4) 0.1415(7) 0.0931(3)
O1A O 1.1228(4) 0.3585(7) 0.5931(3)
O1C O 0.8772(4) -0.3585(7) 0.4069(3)
O2B O 1.5240(4) -0.2495(6) 0.1545(3)
O2A O 1.0240(4) -0.2505(6) 0.6545(3)
O2C O 0.9760(4) 0.2505(6) 0.3455(3)
C1B C 1.3443(5) -0.2806(9) 0.4498(4)
H1B H 1.3266 -0.4295 0.4953
C2B C 1.3078(6) 0.0698(10) 0.3586(4)
H2B H 1.2633 0.2217 0.3247
C3B C 1.5661(5) 0.1145(10) 0.2771(4)
H3B H 1.5461 0.3101 0.2709
H4B H 1.6661 0.0920 0.3117
C4B C 1.5697(6) -0.0083(8) 0.1654(5)
loop_
_geom_bond_atom_site_label_1
_geom_bond_atom_site_label_2
_geom_bond_site_symmetry_1
_geom_bond_site_symmetry_2
Cd1 N1 1_555 1_555
N1 C1 1_555 1_555
N2 N3 1_555 1_555
N3 C1 1_555 1_555
O1 C4 1_555 1_555
O2 C4 1_555 1_555
C1 H1 1_555 1_555
C2 N1 1_555 1_555
H2 C2 1_555 1_555
C3 N2 1_555 1_555
H3 C3 1_555 1_555
H4 C3 1_555 1_555
C4 C3 1_555 1_555
Cd1A O1 1_555 1_555
Cd1A_2 O2 1_555 1_555
Cd1A_3 O2B 1_555 1_555
Cd1A_4 O1B 1_555 1_555
N1B Cd1 1_555 1_555
N2B N3B 1_555 1_555
N3B C1B 1_555 1_555
O1B C4B 1_555 1_555
O1A Cd1 1_555 1_555
O1C Cd1 1_555 1_555
O2B C4B 1_555 1_555
O2A Cd1 1_555 1_555
O2C Cd1 1_555 1_555
C1B N1B 1_555 1_555
H1B C1B 1_555 1_555
C2B N1B 1_555 1_555
H2B C2B 1_555 1_555
C3B N2B 1_555 1_555
H3B C3B 1_555 1_555
H4B C3B 1_555 1_555
C4B C3B 1_555 1_555
N2 C2 1_555 1_555
N2B C2B 1_555 1_555

#END
