
#######################################################################
#
#                 Cambridge Crystallographic Data Centre
#                                CCDC 
#
#######################################################################
#
# If this CIF has been generated from an entry in the Cambridge 
# Structural Database, then it will include bibliographic, chemical, 
# crystal, experimental, refinement or atomic coordinate data resulting 
# from the CCDC's data processing and validation procedures.
#
#######################################################################

data_XOTTUX
_symmetry_cell_setting           orthorhombic
_symmetry_space_group_name_H-M   'P b c n'
_symmetry_Int_Tables_number      60
_space_group_name_Hall           '-P 2n 2ab'
loop_
_symmetry_equiv_pos_site_id
_symmetry_equiv_pos_as_xyz
1 x,y,z
2 1/2-x,1/2-y,1/2+z
3 -x,y,1/2-z
4 1/2+x,1/2-y,-z
5 -x,-y,-z
6 1/2+x,1/2+y,1/2-z
7 x,-y,1/2+z
8 1/2-x,1/2+y,z
_cell_length_a                   20.077(9)
_cell_length_b                   10.095(5)
_cell_length_c                   7.476(3)
_cell_angle_alpha                90
_cell_angle_beta                 90
_cell_angle_gamma                90
_cell_volume                     1515.22
loop_
_atom_site_label
_atom_site_type_symbol
_atom_site_fract_x
_atom_site_fract_y
_atom_site_fract_z
Cu1 Cu 0.289032(18) -0.05346(3) 0.19363(5)
C1 C 0.41996(14) 0.0545(3) 0.0724(4)
H1 H 0.4272 -0.0256 0.0142
C2 C 0.37314(13) 0.2017(3) 0.2241(3)
H2 H 0.3432 0.2494 0.2937
C3 C 0.44305(13) 0.4882(3) 0.1892(3)
H3 H 0.4009 0.5070 0.1443
C4 C 0.46736(13) 0.3645(3) 0.2149(3)
C5 C 0.20310(13) 0.1670(3) 0.3411(3)
N1 N 0.36295(11) 0.0809(2) 0.1629(3)
N2 N 0.46414(11) 0.1504(2) 0.0728(3)
N3 N 0.43261(10) 0.2457(2) 0.1716(3)
N4 N 0.19302(13) 0.2658(2) 0.2695(3)
S1 S 0.5000 0.60506(10) 0.2500
S2 S 0.21889(3) 0.02251(7) 0.43806(9)
C1B C 0.58004(14) 0.0545(3) 0.4276(4)
H1B H 0.5728 -0.0256 0.4858
C2B C 0.62686(13) 0.2017(3) 0.2759(3)
H2B H 0.6568 0.2494 0.2063
C3B C 0.55695(13) 0.4882(3) 0.3108(3)
H3B H 0.5991 0.5070 0.3557
C4B C 0.53264(13) 0.3645(3) 0.2851(3)
N1B N 0.63705(11) 0.0809(2) 0.3371(3)
N2B N 0.53586(11) 0.1504(2) 0.4272(3)
N3B N 0.56739(10) 0.2457(2) 0.3284(3)
Cu1B Cu 0.710968(18) -0.05346(3) 0.30637(5)
C5B C 0.79690(13) 0.1670(3) 0.1589(3)
N4B N 0.80698(13) 0.2658(2) 0.2305(3)
S2B S 0.78111(3) 0.02251(7) 0.06194(9)
Cu1D Cu 0.710968(18) 0.05346(3) -0.19363(5)
Cu1E Cu 0.789032(18) 0.44654(3) 0.30637(5)
Cu1F Cu 0.289032(18) 0.05346(3) 0.69363(5)
Cu1G Cu 0.210968(18) 0.44654(3) 0.19363(5)
N4E N 0.69302(13) -0.2342(2) 0.2305(3)
N4G N 0.30698(13) -0.2342(2) 0.2695(3)
S2D S 0.78111(3) -0.02251(7) 0.56194(9)
S2F S 0.21889(3) -0.02251(7) -0.06194(9)
loop_
_geom_bond_atom_site_label_1
_geom_bond_atom_site_label_2
_geom_bond_site_symmetry_1
_geom_bond_site_symmetry_2
Cu1 N1 1_555 1_555
C1 H1 1_555 1_555
C2 H2 1_555 1_555
C3 H3 1_555 1_555
C4 C3 1_555 1_555
C5 N4 1_555 1_555
N1 C1 1_555 1_555
N2 C1 1_555 1_555
N3 C2 1_555 1_555
N4 Cu1G 1_555 1_555
S1 C3 1_555 1_555
S2 Cu1 1_555 1_555
C1B H1B 1_555 1_555
C2B H2B 1_555 1_555
C3B S1 1_555 1_555
H3B C3B 1_555 1_555
C4B C4 1_555 1_555
N1B C1B 1_555 1_555
N2B C1B 1_555 1_555
N3B C2B 1_555 1_555
Cu1B N1B 1_555 1_555
C5B N4B 1_555 1_555
N4B Cu1E 1_555 1_555
S2B Cu1B 1_555 1_555
Cu1D S2B 1_555 1_555
Cu1F S2 1_555 1_555
N4E Cu1B 1_555 1_555
N4G Cu1 1_555 1_555
S2D Cu1B 1_555 1_555
S2F Cu1 1_555 1_555
C2 N1 1_555 1_555
C4 N3 1_555 1_555
C5 S2 1_555 1_555
N2 N3 1_555 1_555
C2B N1B 1_555 1_555
C3B C4B 1_555 1_555
C4B N3B 1_555 1_555
N2B N3B 1_555 1_555
C5B S2B 1_555 1_555

#END
