
#######################################################################
#
#                 Cambridge Crystallographic Data Centre
#                                CCDC 
#
#######################################################################
#
# If this CIF has been generated from an entry in the Cambridge 
# Structural Database, then it will include bibliographic, chemical, 
# crystal, experimental, refinement or atomic coordinate data resulting 
# from the CCDC's data processing and validation procedures.
#
#######################################################################

data_XOTVIN
_symmetry_cell_setting           monoclinic
_symmetry_space_group_name_H-M   'P 21/c'
_symmetry_Int_Tables_number      14
_space_group_name_Hall           '-P 2ybc'
loop_
_symmetry_equiv_pos_site_id
_symmetry_equiv_pos_as_xyz
1 x,y,z
2 -x,1/2+y,1/2-z
3 -x,-y,-z
4 x,1/2-y,1/2+z
_cell_length_a                   7.4934(14)
_cell_length_b                   24.294(4)
_cell_length_c                   8.0536(15)
_cell_angle_alpha                90
_cell_angle_beta                 115.837(2)
_cell_angle_gamma                90
_cell_volume                     1319.56
loop_
_atom_site_label
_atom_site_type_symbol
_atom_site_fract_x
_atom_site_fract_y
_atom_site_fract_z
Co1 Co 1.0000 0.0000 0.5000
C1 C 0.9536(5) 0.12458(15) 0.3350(5)
H1 H 1.0874 0.1280 0.3631
C2 C 0.6859(5) 0.08981(14) 0.3044(4)
H2 H 0.5886 0.0660 0.3044
C3 C 0.4829(5) 0.22591(14) 0.2470(5)
H3 H 0.5968 0.2443 0.3270
C4 C 0.4812(4) 0.17443(14) 0.1907(4)
C5 C 0.2860(4) 0.15590(13) 0.0692(4)
C6 C 0.1490(5) 0.19540(15) 0.0404(5)
H4 H 0.0140 0.1909 -0.0337
C7 C 0.1885(5) 0.02044(15) -0.0726(5)
H5 H 0.1817 -0.0172 -0.0551
C8 C 0.1681(4) 0.09568(14) -0.2040(4)
H6 H 0.1460 0.1230 -0.2916
N1 N 0.8749(4) 0.07666(11) 0.3610(4)
N2 N 0.8291(4) 0.16530(12) 0.2683(4)
N3 N 0.6551(3) 0.14147(11) 0.2479(4)
N4 N 0.2376(4) 0.10454(11) -0.0239(4)
N5 N 0.2510(4) 0.05575(12) 0.0643(4)
N6 N 0.1346(4) 0.04298(11) -0.2416(3)
O1 O 1.2560(3) 0.01118(10) 0.4599(3)
H7 H 1.2588 -0.0100 0.3770
H8 H 1.2572 0.0450 0.4336
S1 S 0.25277(14) 0.25412(4) 0.15554(15)
C1B C 0.0464(5) -0.12458(15) -0.3350(5)
H1B H -0.0874 -0.1280 -0.3631
C2B C 0.3141(5) -0.08981(14) -0.3044(4)
H2B H 0.4114 -0.0660 -0.3044
C3B C 0.5171(5) -0.22591(14) -0.2470(5)
H3B H 0.4032 -0.2443 -0.3270
C4B C 0.5188(4) -0.17443(14) -0.1907(4)
C5B C 0.7140(4) -0.15590(13) -0.0692(4)
C6B C 0.8510(5) -0.19540(15) -0.0404(5)
H4B H 0.9860 -0.1909 0.0337
C7B C 0.8115(5) -0.02044(15) 0.0726(5)
H5B H 0.8183 0.0172 0.0551
C8B C 0.8319(4) -0.09568(14) 0.2040(4)
H6B H 0.8540 -0.1230 0.2916
N1B N 0.1251(4) -0.07666(11) -0.3610(4)
N2B N 0.1709(4) -0.16530(12) -0.2683(4)
N3B N 0.3449(3) -0.14147(11) -0.2479(4)
N4B N 0.7624(4) -0.10454(11) 0.0239(4)
N5B N 0.7490(4) -0.05575(12) -0.0643(4)
N6B N 0.8654(4) -0.04298(11) 0.2416(3)
S1B S 0.74723(14) -0.25412(4) -0.15554(15)
O1B O 0.7440(3) -0.01118(10) 0.5401(3)
H7B H 0.7412 0.0100 0.6230
H8B H 0.7428 -0.0450 0.5664
Co1_2 Co 0.0000 0.0000 -0.5000
N1B_2 N 1.1251(4) -0.07666(11) 0.6390(4)
N6_2 N 1.1346(4) 0.04298(11) 0.7584(3)
Cl1 Cl 0.61776(12) 0.12162(3) 0.71083(11)
O2 O 0.4432(3) 0.11254(11) 0.5412(3)
O3 O 0.7472(4) 0.15632(13) 0.6728(4)
O4 O 0.5651(4) 0.14649(12) 0.8418(4)
O5 O 0.7115(5) 0.07025(12) 0.7782(4)
loop_
_geom_bond_atom_site_label_1
_geom_bond_atom_site_label_2
_geom_bond_site_symmetry_1
_geom_bond_site_symmetry_2
Co1 N1 1_555 1_555
C1 H1 1_555 1_555
C2 H2 1_555 1_555
C3 H3 1_555 1_555
C4 C3 1_555 1_555
C5 C4 1_555 1_555
C6 C5 1_555 1_555
H4 C6 1_555 1_555
C7 H5 1_555 1_555
C8 H6 1_555 1_555
N1 C1 1_555 1_555
N2 C1 1_555 1_555
N3 C2 1_555 1_555
N4 C5 1_555 1_555
N5 C7 1_555 1_555
N6 C7 1_555 1_555
O1 Co1 1_555 1_555
H7 O1 1_555 1_555
H8 O1 1_555 1_555
S1 C3 1_555 1_555
Cl1 O2 1_555 1_555
O3 Cl1 1_555 1_555
O4 Cl1 1_555 1_555
O5 Cl1 1_555 1_555
C1B H1B 1_555 1_555
C2B H2B 1_555 1_555
C3B H3B 1_555 1_555
C4B C3B 1_555 1_555
C5B C4B 1_555 1_555
C6B C5B 1_555 1_555
H4B C6B 1_555 1_555
C7B H5B 1_555 1_555
C8B H6B 1_555 1_555
N1B C1B 1_555 1_555
N2B C1B 1_555 1_555
N3B C2B 1_555 1_555
N4B C5B 1_555 1_555
N5B C7B 1_555 1_555
N6B Co1 1_555 1_555
S1B C3B 1_555 1_555
O1B Co1 1_555 1_555
H7B O1B 1_555 1_555
H8B O1B 1_555 1_555
Co1_2 N6 1_555 1_555
N1B_2 Co1 1_555 1_555
N6_2 Co1 1_555 1_555
C2 N1 1_555 1_555
C4 N3 1_555 1_555
C6 S1 1_555 1_555
C8 N4 1_555 1_555
C8 N6 1_555 1_555
N2 N3 1_555 1_555
N4 N5 1_555 1_555
C2B N1B 1_555 1_555
C4B N3B 1_555 1_555
C6B S1B 1_555 1_555
C7B N6B 1_555 1_555
C8B N4B 1_555 1_555
C8B N6B 1_555 1_555
N1B Co1_2 1_555 1_555
N2B N3B 1_555 1_555
N4B N5B 1_555 1_555

#END
