
#######################################################################
#
#                 Cambridge Crystallographic Data Centre
#                                CCDC 
#
#######################################################################
#
# If this CIF has been generated from an entry in the Cambridge 
# Structural Database, then it will include bibliographic, chemical, 
# crystal, experimental, refinement or atomic coordinate data resulting 
# from the CCDC's data processing and validation procedures.
#
#######################################################################

data_XOTVUY
_symmetry_cell_setting           triclinic
_symmetry_space_group_name_H-M   'P -1'
_symmetry_Int_Tables_number      2
_space_group_name_Hall           '-P 1'
loop_
_symmetry_equiv_pos_site_id
_symmetry_equiv_pos_as_xyz
1 x,y,z
2 -x,-y,-z
_cell_length_a                   5.1098(2)
_cell_length_b                   9.3271(4)
_cell_length_c                   9.8661(4)
_cell_angle_alpha                104.937(2)
_cell_angle_beta                 95.279(2)
_cell_angle_gamma                93.442(2)
_cell_volume                     450.681
loop_
_atom_site_label
_atom_site_type_symbol
_atom_site_fract_x
_atom_site_fract_y
_atom_site_fract_z
Zn1 Zn 0.29405(4) 0.68439(2) -0.218581(18)
O1 O 0.3083(3) 0.61086(18) -0.51054(15)
O2 O 0.0627(3) 0.74327(15) -0.36011(12)
O3 O 0.0903(2) 0.70173(13) -0.72159(11)
O4 O -0.5070(3) 0.97136(15) -0.68477(14)
O5 O 0.3061(3) 0.60773(17) -0.95572(14)
O6 O 0.0626(3) 0.73845(16) -1.06725(13)
O7 O 0.4612(3) 0.50025(14) -0.25215(13)
H1 H 0.535(4) 0.471(3) -0.3264(14)
H2 H 0.523(4) 0.471(3) -0.1824(15)
O8 O 0.5909(3) 0.84350(15) -0.15933(15)
H3 H 0.581(4) 0.909(2) -0.204(3)
H4 H 0.736(3) 0.808(2) -0.153(3)
C1 C 0.1342(3) 0.69531(18) -0.48234(17)
C2 C -0.0056(3) 0.75271(17) -0.59600(16)
C3 C -0.1995(3) 0.84401(18) -0.57796(17)
H5 H -0.2595 0.8752 -0.4898
C4 C -0.3159(3) 0.89420(17) -0.69463(17)
C5 C -0.1944(3) 0.84617(19) -0.82323(17)
H6 H -0.2488 0.8803 -0.9010
C6 C -0.0039(3) 0.75278(18) -0.83131(16)
C7 C 0.1344(3) 0.69243(19) -0.95990(17)
Zn1_2 Zn 0.29405(4) 0.68439(2) -1.218581(18)
O6_2 O 0.0626(3) 0.73845(16) -0.06725(13)
loop_
_geom_bond_atom_site_label_1
_geom_bond_atom_site_label_2
_geom_bond_site_symmetry_1
_geom_bond_site_symmetry_2
Zn1 O2 1_555 1_555
O1 C1 1_555 1_555
O2 C1 1_555 1_555
O3 C2 1_555 1_555
O4 C4 1_555 1_555
O5 C7 1_555 1_555
O6 C7 1_555 1_555
O7 Zn1 1_555 1_555
H1 O7 1_555 1_555
H2 O7 1_555 1_555
O8 Zn1 1_555 1_555
H3 O8 1_555 1_555
H4 O8 1_555 1_555
C1 C2 1_555 1_555
C2 C3 1_555 1_555
C3 H5 1_555 1_555
C4 C3 1_555 1_555
C5 C4 1_555 1_555
H6 C5 1_555 1_555
C6 O3 1_555 1_555
C7 C6 1_555 1_555
Zn1_2 O6 1_555 1_555
O6_2 Zn1 1_555 1_555
C5 C6 1_555 1_555

#END
