
#######################################################################
#
#                 Cambridge Crystallographic Data Centre
#                                CCDC 
#
#######################################################################
#
# If this CIF has been generated from an entry in the Cambridge 
# Structural Database, then it will include bibliographic, chemical, 
# crystal, experimental, refinement or atomic coordinate data resulting 
# from the CCDC's data processing and validation procedures.
#
#######################################################################

data_XOTWEK
_symmetry_cell_setting           monoclinic
_symmetry_space_group_name_H-M   'C 2/c'
_symmetry_Int_Tables_number      15
_space_group_name_Hall           '-C 2yn'
loop_
_symmetry_equiv_pos_site_id
_symmetry_equiv_pos_as_xyz
1 x,y,z
2 -x,y,1/2-z
3 1/2+x,1/2+y,z
4 1/2-x,1/2+y,1/2-z
5 -x,-y,-z
6 x,-y,1/2+z
7 1/2-x,1/2-y,-z
8 1/2+x,1/2-y,1/2+z
_cell_length_a                   17.624(4)
_cell_length_b                   20.230(4)
_cell_length_c                   7.6442(15)
_cell_angle_alpha                90
_cell_angle_beta                 94.675(3)
_cell_angle_gamma                90
_cell_volume                     2716.35
loop_
_atom_site_label
_atom_site_type_symbol
_atom_site_fract_x
_atom_site_fract_y
_atom_site_fract_z
Co1 Co 0.0000 -0.20669(3) 0.2500
C1 C 0.0555(2) -0.07108(18) 0.4210(5)
H1 H 0.0104 -0.0681 0.4757
C2 C 0.1433(2) -0.11086(18) 0.2835(5)
H2 H 0.1740 -0.1387 0.2229
C3 C 0.2245(2) -0.01164(18) 0.2876(5)
C4 C 0.2924(3) -0.0359(2) 0.2540(6)
H3 H 0.3052 -0.0805 0.2599
C5 C 0.3424(3) 0.0151(2) 0.2079(6)
H4 H 0.3922 0.0079 0.1805
C6 C 0.3098(2) 0.07473(18) 0.2085(5)
C7 C 0.3581(2) 0.22428(19) 0.0363(5)
H5 H 0.3518 0.2595 -0.0418
C8 C 0.4047(2) 0.16448(19) 0.2425(6)
H6 H 0.4349 0.1474 0.3374
N1 N 0.07703(19) -0.12734(14) 0.3407(4)
N2 N 0.1029(2) -0.02176(15) 0.4155(5)
N3 N 0.15957(19) -0.04791(15) 0.3261(4)
N4 N 0.34281(19) 0.13570(15) 0.1674(4)
N5 N 0.3113(2) 0.17474(16) 0.0331(4)
N6 N 0.41728(19) 0.22099(15) 0.1627(4)
O1 O 0.04276(17) -0.20410(13) -0.0011(4)
H7 H 0.0177 -0.2295 -0.0675
H8 H 0.0897 -0.2156 0.0074
S1 S 0.21727(6) 0.07308(5) 0.26831(15)
C1A C -0.0555(2) -0.07108(18) 0.0790(5)
H1A H -0.0104 -0.0681 0.0243
C2A C -0.1433(2) -0.11086(18) 0.2165(5)
H2A H -0.1740 -0.1387 0.2771
C3A C -0.2245(2) -0.01164(18) 0.2124(5)
C4A C -0.2924(3) -0.0359(2) 0.2460(6)
H3A H -0.3052 -0.0805 0.2401
C5A C -0.3424(3) 0.0151(2) 0.2921(6)
H4A H -0.3922 0.0079 0.3195
C6A C -0.3098(2) 0.07473(18) 0.2915(5)
C7A C -0.3581(2) 0.22428(19) 0.4637(5)
H5A H -0.3518 0.2595 0.5418
C8A C -0.4047(2) 0.16448(19) 0.2575(6)
H6A H -0.4349 0.1474 0.1626
N1A N -0.07703(19) -0.12734(14) 0.1593(4)
N2A N -0.1029(2) -0.02176(15) 0.0845(5)
N3A N -0.15957(19) -0.04791(15) 0.1739(4)
N4A N -0.34281(19) 0.13570(15) 0.3326(4)
N5A N -0.3113(2) 0.17474(16) 0.4669(4)
N6A N -0.41728(19) 0.22099(15) 0.3373(4)
O1A O -0.04276(17) -0.20410(13) 0.5011(4)
H7A H -0.0177 -0.2295 0.5675
H8A H -0.0897 -0.2156 0.4926
S1A S -0.21727(6) 0.07308(5) 0.23169(15)
Co1B Co -0.5000 0.29331(3) 0.2500
Co1B_2 Co 0.5000 0.29331(3) 0.2500
N6B N -0.08272(19) -0.27901(15) 0.1627(4)
N6C N 0.08272(19) -0.27901(15) 0.3373(4)
Cl1 Cl 0.2500 0.2500 0.5000
O2 O 0.2799(7) 0.2517(3) 0.3660(11)
O3 O 0.2010(5) 0.3163(3) 0.4477(10)
O2F O 0.2201(7) 0.2483(3) 0.6340(11)
O3F O 0.2990(5) 0.1837(3) 0.5523(10)
Cl2 Cl 0.5000 0.13337(8) 0.7500
O4 O 0.4818(4) 0.1012(2) 0.8967(5)
O5 O 0.5839(5) 0.1356(5) 0.8428(12)
O4A O 0.5182(4) 0.1012(2) 0.6033(5)
O5A O 0.4161(5) 0.1356(5) 0.6572(12)
O6? O 0.3074(5) 0.2942(4) 0.5775(17)
O7? O 0.5000 0.2015(2) 0.7500
loop_
_geom_bond_atom_site_label_1
_geom_bond_atom_site_label_2
_geom_bond_site_symmetry_1
_geom_bond_site_symmetry_2
Co1 N1 1_555 1_555
C1 H1 1_555 1_555
C2 H2 1_555 1_555
C3 C4 1_555 1_555
C4 H3 1_555 1_555
C5 C4 1_555 1_555
H4 C5 1_555 1_555
C6 C5 1_555 1_555
C7 H5 1_555 1_555
C8 H6 1_555 1_555
N1 C1 1_555 1_555
N2 C1 1_555 1_555
N3 C2 1_555 1_555
N4 C6 1_555 1_555
N5 C7 1_555 1_555
N6 C7 1_555 1_555
O1 Co1 1_555 1_555
H7 O1 1_555 1_555
H8 O1 1_555 1_555
S1 C3 1_555 1_555
Cl1 O2 1_555 1_555
O3 Cl1 1_555 1_555
Cl2 O4 1_555 1_555
O5 Cl2 1_555 1_555
C1A H1A 1_555 1_555
C2A H2A 1_555 1_555
C3A C4A 1_555 1_555
C4A H3A 1_555 1_555
C5A C4A 1_555 1_555
H4A C5A 1_555 1_555
C6A C5A 1_555 1_555
C7A H5A 1_555 1_555
C8A H6A 1_555 1_555
N1A Co1 1_555 1_555
N2A C1A 1_555 1_555
N3A C2A 1_555 1_555
N4A C6A 1_555 1_555
N5A C7A 1_555 1_555
N6A C7A 1_555 1_555
O1A Co1 1_555 1_555
H7A O1A 1_555 1_555
H8A O1A 1_555 1_555
S1A C3A 1_555 1_555
Co1B N6A 1_555 1_555
Co1B_2 N6 1_555 1_555
N6B Co1 1_555 1_555
N6C Co1 1_555 1_555
O2F Cl1 1_555 1_555
O3F Cl1 1_555 1_555
O4A Cl2 1_555 1_555
O5A Cl2 1_555 1_555
C2 N1 1_555 1_555
C3 N3 1_555 1_555
C6 S1 1_555 1_555
C8 N4 1_555 1_555
C8 N6 1_555 1_555
N2 N3 1_555 1_555
N4 N5 1_555 1_555
C1A N1A 1_555 1_555
C2A N1A 1_555 1_555
C3A N3A 1_555 1_555
C6A S1A 1_555 1_555
C8A N4A 1_555 1_555
C8A N6A 1_555 1_555
N2A N3A 1_555 1_555
N4A N5A 1_555 1_555

#END
