
#######################################################################
#
#                 Cambridge Crystallographic Data Centre
#                                CCDC 
#
#######################################################################
#
# If this CIF has been generated from an entry in the Cambridge 
# Structural Database, then it will include bibliographic, chemical, 
# crystal, experimental, refinement or atomic coordinate data resulting 
# from the CCDC's data processing and validation procedures.
#
#######################################################################

data_XOTWUZ
_symmetry_cell_setting           triclinic
_symmetry_space_group_name_H-M   'P -1'
_symmetry_Int_Tables_number      2
_space_group_name_Hall           '-P 1'
loop_
_symmetry_equiv_pos_site_id
_symmetry_equiv_pos_as_xyz
1 x,y,z
2 -x,-y,-z
_cell_length_a                   6.0385(2)
_cell_length_b                   10.1977(4)
_cell_length_c                   10.6910(5)
_cell_angle_alpha                105.454(2)
_cell_angle_beta                 91.987(2)
_cell_angle_gamma                92.967(2)
_cell_volume                     632.882
loop_
_atom_site_label
_atom_site_type_symbol
_atom_site_fract_x
_atom_site_fract_y
_atom_site_fract_z
La1 La 0.57195(3) 0.286077(18) 0.501109(18)
O1 O 0.2810(4) 0.4811(3) 0.5340(3)
O2 O 0.7427(5) 0.0686(3) 0.3740(3)
O3 O 0.7518(5) 0.1558(3) 0.6579(3)
O4 O 0.8272(5) 0.2387(3) 0.2916(3)
O5 O 1.3660(5) 0.3068(3) 0.2902(3)
O6 O 0.2765(5) 0.1918(4) 0.6174(3)
O7 O 0.5892(6) 0.4448(3) 0.7366(3)
O8 O 1.2695(6) 0.1120(3) 0.3258(3)
O9 O -0.0235(5) 0.3601(3) 0.5635(3)
C1 C 1.0115(6) 0.0375(4) 0.0674(4)
C2 C 0.8432(7) 0.0147(4) 0.1524(4)
C3 C 1.2746(6) 0.1886(4) 0.2529(4)
C4 C 0.0739(6) 0.4532(4) 0.5276(4)
C5 C 0.8100(6) 0.1132(4) 0.2821(4)
C6 C 0.6602(7) -0.1620(5) -0.0237(4)
H1 H 0.550(9) -0.232(6) -0.051(6)
C7 C 0.6809(7) -0.0872(5) 0.1086(4)
H2 H 0.582(9) -0.108(6) 0.167(6)
C8 C 1.1995(6) 0.1327(4) 0.1118(4)
La1A La -0.57195(3) 0.713923(18) 0.498891(18)
La1A_2 La 0.42805(3) 0.713923(18) 0.498891(18)
La1_2 La 1.57195(3) 0.286077(18) 0.501109(18)
La1_3 La -0.42805(3) 0.286077(18) 0.501109(18)
La1A_3 La 1.42805(3) -0.286077(18) -0.501109(18)
La1A_4 La 0.42805(3) -0.286077(18) -0.501109(18)
O1A O -0.2810(4) 0.5189(3) 0.4660(3)
O1A_2 O 0.7190(4) 0.5189(3) 0.4660(3)
O1_2 O -0.7190(4) 0.4811(3) 0.5340(3)
O2A O 1.2573(5) -0.0686(3) -0.3740(3)
O2A_2 O -0.7427(5) 0.9314(3) 0.6260(3)
O3A O -0.7518(5) 0.8442(3) 0.3421(3)
O4A O 1.1728(5) -0.2387(3) -0.2916(3)
O4A_2 O -0.8272(5) 0.7613(3) 0.7084(3)
O5A O 0.6340(5) -0.3068(3) -0.2902(3)
O5_2 O 0.3660(5) 0.3068(3) 0.2902(3)
O5A_2 O -0.3660(5) 0.6932(3) 0.7098(3)
O6A O -0.2765(5) 0.8082(4) 0.3826(3)
O7A O -0.5892(6) 0.5552(3) 0.2634(3)
O8A O 0.7305(6) -0.1120(3) -0.3258(3)
O8_2 O 0.2695(6) 0.1120(3) 0.3258(3)
O8A_2 O -0.2695(6) 0.8880(3) 0.6742(3)
O9A O 0.0235(5) 0.6399(3) 0.4365(3)
O9_2 O 0.9765(5) 0.3601(3) 0.5635(3)
O9A_2 O -0.9765(5) 0.6399(3) 0.4365(3)
C1A C 0.9885(6) -0.0375(4) -0.0674(4)
C2A C 1.1568(7) -0.0147(4) -0.1524(4)
C3A C 0.7254(6) -0.1886(4) -0.2529(4)
C4A C -0.0739(6) 0.5468(4) 0.4724(4)
C5A C 1.1900(6) -0.1132(4) -0.2821(4)
C6A C 1.3398(7) 0.1620(5) 0.0237(4)
H1A H 1.450(9) 0.232(6) 0.051(6)
C7A C 1.3191(7) 0.0872(5) -0.1086(4)
H2A H 1.418(9) 0.108(6) -0.167(6)
C8A C 0.8005(6) -0.1327(4) -0.1118(4)
O10 O 0.1925(8) 0.5704(5) 0.8536(4)
O11 O 0.8854(8) 0.3529(5) 0.8851(4)
loop_
_geom_bond_atom_site_label_1
_geom_bond_atom_site_label_2
_geom_bond_site_symmetry_1
_geom_bond_site_symmetry_2
La1 O1 1_555 1_555
O1 C4 1_555 1_555
O2 La1 1_555 1_555
O3 La1 1_555 1_555
O4 La1 1_555 1_555
O5 C3 1_555 1_555
O6 La1 1_555 1_555
O7 La1 1_555 1_555
O8 C3 1_555 1_555
O9 C4 1_555 1_555
C1 C2 1_555 1_555
C2 C5 1_555 1_555
C3 C8 1_555 1_555
C4 C4A 1_555 1_555
C5 O2 1_555 1_555
C6 H1 1_555 1_555
C7 C2 1_555 1_555
H2 C7 1_555 1_555
C8 C1 1_555 1_555
La1A O1A 1_555 1_555
La1A_2 O1 1_555 1_555
La1_2 O5 1_555 1_555
La1_3 O9 1_555 1_555
La1A_3 O2A 1_555 1_555
La1A_4 O5A 1_555 1_555
O1A La1_3 1_555 1_555
O1A_2 La1 1_555 1_555
O1_2 La1A 1_555 1_555
O2A C5A 1_555 1_555
O2A_2 La1A 1_555 1_555
O3A La1A 1_555 1_555
O4A La1A_3 1_555 1_555
O4A_2 La1A 1_555 1_555
O5A C3A 1_555 1_555
O5_2 La1 1_555 1_555
O5A_2 La1A 1_555 1_555
O6A La1A 1_555 1_555
O7A La1A 1_555 1_555
O8A La1A_4 1_555 1_555
O8_2 La1 1_555 1_555
O8A_2 La1A 1_555 1_555
O9A La1A_2 1_555 1_555
O9_2 La1 1_555 1_555
O9A_2 La1A 1_555 1_555
C1A C1 1_555 1_555
C2A C1A 1_555 1_555
C3A O8A 1_555 1_555
C4A O1A 1_555 1_555
C5A O4A 1_555 1_555
C6A C8 1_555 1_555
H1A C6A 1_555 1_555
C7A C2A 1_555 1_555
H2A C7A 1_555 1_555
C8A C6 1_555 1_555
O4 C5 1_555 1_555
O8 La1_2 1_555 1_555
C6 C7 1_555 1_555
La1A_2 O1A_2 1_555 1_555
La1_3 O1_2 1_555 1_555
O9A C4A 1_555 1_555
C1A C8A 1_555 1_555
C2A C5A 1_555 1_555
C3A C8A 1_555 1_555
C6A C7A 1_555 1_555

#END
