
#######################################################################
#
#                 Cambridge Crystallographic Data Centre
#                                CCDC 
#
#######################################################################
#
# If this CIF has been generated from an entry in the Cambridge 
# Structural Database, then it will include bibliographic, chemical, 
# crystal, experimental, refinement or atomic coordinate data resulting 
# from the CCDC's data processing and validation procedures.
#
#######################################################################

data_XOVFOF01
_symmetry_cell_setting           orthorhombic
_symmetry_space_group_name_H-M   'P b c m'
_symmetry_Int_Tables_number      57
_space_group_name_Hall           '-P 2c 2b'
loop_
_symmetry_equiv_pos_site_id
_symmetry_equiv_pos_as_xyz
1 x,y,z
2 -x,-y,1/2+z
3 -x,1/2+y,1/2-z
4 x,1/2-y,-z
5 -x,-y,-z
6 x,y,1/2-z
7 x,1/2-y,1/2+z
8 -x,1/2+y,z
_cell_length_a                   6.7987(4)
_cell_length_b                   13.1320(9)
_cell_length_c                   23.1349(15)
_cell_angle_alpha                90
_cell_angle_beta                 90
_cell_angle_gamma                90
_cell_volume                     2065.5
loop_
_atom_site_label
_atom_site_type_symbol
_atom_site_fract_x
_atom_site_fract_y
_atom_site_fract_z
Cd1 Cd 0.41051(3) 0.081541(17) 0.7500
O1 O 0.7608(4) 0.08980(19) 0.7500
O2 O 0.5338(4) -0.08289(17) 0.7500
N1 N 0.4106(3) 0.10016(15) 0.65366(9)
O3 O 0.0766(3) 0.05568(18) 0.7500
O4 O 0.3586(3) 0.26025(17) 0.7500
Cd2 Cd 0.87828(3) -0.094981(18) 0.7500
C1 C 0.9353(5) 0.1186(3) 0.7500
C2 C 0.5025(5) -0.1771(3) 0.7500
C3 C 0.2656(3) 0.13967(19) 0.61982(10)
C4 C 0.5591(4) 0.08762(17) 0.61750(10)
O5 O 0.8758(3) -0.06973(14) 0.64175(8)
O6 O 1.0956(2) -0.16704(14) 0.68475(7)
H1 H 0.9632 0.1895 0.7500
H2 H 0.3709 -0.2013 0.7500
N2 N 0.3152(3) 0.15130(16) 0.56536(8)
H3 H 0.1394 0.1573 0.6343
N3 N 0.5056(3) 0.11796(15) 0.56463(8)
H4 H 0.6846 0.0611 0.6275
C5 C 1.0318(4) -0.12037(18) 0.64100(9)
C6 C 0.6217(3) 0.12065(18) 0.51293(10)
C7 C 1.1531(4) -0.12416(18) 0.58655(10)
C8 C 0.8229(4) 0.1120(2) 0.51718(10)
C9 C 0.5302(4) 0.13331(18) 0.45999(9)
C10 C 1.0650(4) -0.1123(2) 0.53300(10)
C11 C 1.3553(4) -0.13629(17) 0.58955(10)
H5 H 0.8842 0.1059 0.5539
H6 H 0.3912 0.1399 0.4576
H7 H 0.9263 -0.1042 0.5306
H8 H 1.4162 -0.1468 0.6260
N1E N 0.4106(3) 0.10016(15) 0.84634(9)
O3_2 O 1.0766(3) 0.05568(18) 0.7500
O4B O 0.6414(3) -0.23975(17) 0.7500
O5E O 0.8758(3) -0.06973(14) 0.85825(8)
O6E O 1.0956(2) -0.16704(14) 0.81525(7)
Cd1_2 Cd 1.41051(3) 0.081541(17) 0.7500
Cd1B Cd 0.58949(3) -0.418459(17) 0.7500
C10D C 0.9350(4) 0.1123(2) 0.46700(10)
C11D C 0.6447(4) 0.13629(17) 0.41045(10)
C8D C 1.1771(4) -0.1120(2) 0.48282(10)
C9D C 1.4698(4) -0.13331(18) 0.54001(9)
H7D H 1.0737 0.1042 0.4694
C7D C 0.8469(4) 0.12416(18) 0.41345(10)
H8D H 0.5838 0.1468 0.3740
C6D C 1.3783(3) -0.12065(18) 0.48707(10)
H5D H 1.1158 -0.1059 0.4461
H6D H 1.6088 -0.1399 0.5424
C5D C 0.9682(4) 0.12037(18) 0.35900(9)
N3D N 1.4944(3) -0.11796(15) 0.43537(8)
O5D O 1.1242(3) 0.06973(14) 0.35825(8)
O6D O 0.9044(2) 0.16704(14) 0.31525(7)
N2D N 1.6848(3) -0.15130(16) 0.43464(8)
C4D C 1.4409(4) -0.08762(17) 0.38250(10)
Cd2A Cd 1.12172(3) 0.094981(18) 0.2500
C3D C 1.7344(3) -0.13967(19) 0.38018(10)
N1D N 1.5894(3) -0.10016(15) 0.34634(9)
H4D H 1.3154 -0.0611 0.3725
H3D H 1.8606 -0.1573 0.3657
Cd1A Cd 1.58949(3) -0.081541(17) 0.2500
loop_
_geom_bond_atom_site_label_1
_geom_bond_atom_site_label_2
_geom_bond_site_symmetry_1
_geom_bond_site_symmetry_2
Cd1 O1 1_555 1_555
O1 Cd2 1_555 1_555
O2 Cd1 1_555 1_555
N1 Cd1 1_555 1_555
O3 Cd1 1_555 1_555
O4 Cd1 1_555 1_555
Cd2 O2 1_555 1_555
C1 O1 1_555 1_555
C2 O2 1_555 1_555
C3 N1 1_555 1_555
C4 N1 1_555 1_555
O5 Cd2 1_555 1_555
O6 Cd2 1_555 1_555
H1 C1 1_555 1_555
H2 C2 1_555 1_555
N2 C3 1_555 1_555
H3 C3 1_555 1_555
N3 C4 1_555 1_555
H4 C4 1_555 1_555
C5 O5 1_555 1_555
C6 N3 1_555 1_555
C7 C5 1_555 1_555
C8 C6 1_555 1_555
C9 C6 1_555 1_555
C10 C7 1_555 1_555
C11 C7 1_555 1_555
H5 C8 1_555 1_555
H6 C9 1_555 1_555
H7 C10 1_555 1_555
H8 C11 1_555 1_555
N1E Cd1 1_555 1_555
O3_2 Cd2 1_555 1_555
O4B Cd2 1_555 1_555
O5E Cd2 1_555 1_555
O6E Cd2 1_555 1_555
Cd1_2 O3_2 1_555 1_555
Cd1B O4B 1_555 1_555
C10D C8 1_555 1_555
C11D C9 1_555 1_555
C8D C10 1_555 1_555
C9D C11 1_555 1_555
H7D C10D 1_555 1_555
C7D C10D 1_555 1_555
H8D C11D 1_555 1_555
C6D C8D 1_555 1_555
H5D C8D 1_555 1_555
H6D C9D 1_555 1_555
C5D C7D 1_555 1_555
N3D C6D 1_555 1_555
O5D C5D 1_555 1_555
O6D C5D 1_555 1_555
N2D N3D 1_555 1_555
C4D N3D 1_555 1_555
Cd2A O5D 1_555 1_555
C3D N2D 1_555 1_555
N1D C4D 1_555 1_555
H4D C4D 1_555 1_555
H3D C3D 1_555 1_555
Cd1A N1D 1_555 1_555
C1 O3_2 1_555 1_555
C2 O4B 1_555 1_555
O6 C5 1_555 1_555
N2 N3 1_555 1_555
C11D C7D 1_555 1_555
C9D C6D 1_555 1_555
O6D Cd2A 1_555 1_555
C3D N1D 1_555 1_555

#END
