
#######################################################################
#
#                 Cambridge Crystallographic Data Centre
#                                CCDC 
#
#######################################################################
#
# If this CIF has been generated from an entry in the Cambridge 
# Structural Database, then it will include bibliographic, chemical, 
# crystal, experimental, refinement or atomic coordinate data resulting 
# from the CCDC's data processing and validation procedures.
#
#######################################################################

data_XOVTIN
_symmetry_cell_setting           triclinic
_symmetry_space_group_name_H-M   'P -1'
_symmetry_Int_Tables_number      2
_space_group_name_Hall           '-P 1'
loop_
_symmetry_equiv_pos_site_id
_symmetry_equiv_pos_as_xyz
1 x,y,z
2 -x,-y,-z
_cell_length_a                   7.3724(8)
_cell_length_b                   7.6349(8)
_cell_length_c                   13.4069(15)
_cell_angle_alpha                88.839(3)
_cell_angle_beta                 78.330(3)
_cell_angle_gamma                66.035(3)
_cell_volume                     673.715
loop_
_atom_site_label
_atom_site_type_symbol
_atom_site_fract_x
_atom_site_fract_y
_atom_site_fract_z
Pb1 Pb 0.67380(5) 0.66477(5) 0.53022(2)
N1 N 0.7227(14) 0.4007(13) 0.6920(7)
H1 H 0.670(16) 0.320(12) 0.682(11)
H2 H 0.845(8) 0.333(14) 0.702(10)
N2 N 0.8921(17) 0.592(2) 0.8005(10)
H3 H 0.97(2) 0.54(2) 0.742(7)
H4 H 0.94(2) 0.67(2) 0.823(12)
C1 C 0.6114(17) 0.5081(16) 0.7846(8)
C2 C 0.6936(17) 0.6094(15) 0.8374(8)
C3 C 0.5729(17) 0.7188(17) 0.9252(9)
H5 H 0.6284 0.7802 0.9635
C4 C 0.3739(18) 0.7430(18) 0.9601(9)
C5 C 0.2911(18) 0.6475(18) 0.9083(9)
H6 H 0.156 0.6596 0.9329
C6 C 0.4078(17) 0.5367(16) 0.8218(9)
H7 H 0.3496 0.476 0.7848
C7 C 0.251(2) 0.870(2) 1.0495(9)
N3 N 0.1570(19) 0.9743(18) 1.1197(10)
O1 O 0.6745(10) 0.3933(10) 0.4281(6)
O2 O 0.9632(11) 0.3531(12) 0.4658(6)
C8 C 0.8580(15) 0.2890(15) 0.4258(8)
C9 C 0.9546(18) 0.0876(19) 0.3768(11)
H8 H 1.1009 0.0496 0.3529
H9 H 0.8942 0.0826 0.3188
H10 H 0.9315 -0.0005 0.4269
O3 O 0.8051(11) 0.7257(11) 0.3578(6)
O4 O 0.4720(12) 0.8727(14) 0.3943(7)
C10 C 0.6369(18) 0.8350(18) 0.3345(9)
C11 C 0.642(2) 0.916(2) 0.2316(10)
H11 H 0.6577 1.0367 0.2353
H12 H 0.5144 0.9398 0.2104
H13 H 0.756 0.8238 0.1818
Pb1A Pb 0.32620(5) 0.33523(5) 0.46978(2)
Pb1A_2 Pb 1.32620(5) 0.33523(5) 0.46978(2)
O1A O 0.3255(10) 0.6067(10) 0.5719(6)
O2A O 1.0368(11) 0.6469(12) 0.5342(6)
loop_
_geom_bond_atom_site_label_1
_geom_bond_atom_site_label_2
_geom_bond_site_symmetry_1
_geom_bond_site_symmetry_2
Pb1 N1 1_555 1_555
N1 H1 1_555 1_555
H2 N1 1_555 1_555
N2 H3 1_555 1_555
H4 N2 1_555 1_555
C1 N1 1_555 1_555
C2 N2 1_555 1_555
C3 C2 1_555 1_555
H5 C3 1_555 1_555
C4 C3 1_555 1_555
C5 C4 1_555 1_555
H6 C5 1_555 1_555
C6 C1 1_555 1_555
H7 C6 1_555 1_555
C7 C4 1_555 1_555
N3 C7 1_555 1_555
O1 Pb1 1_555 1_555
O2 Pb1 1_555 1_555
C8 O1 1_555 1_555
C9 C8 1_555 1_555
H8 C9 1_555 1_555
H9 C9 1_555 1_555
H10 C9 1_555 1_555
O3 Pb1 1_555 1_555
O4 Pb1 1_555 1_555
C10 O3 1_555 1_555
C11 C10 1_555 1_555
H11 C11 1_555 1_555
H12 C11 1_555 1_555
H13 C11 1_555 1_555
Pb1A O1 1_555 1_555
Pb1A_2 O2 1_555 1_555
O1A Pb1 1_555 1_555
O2A Pb1 1_555 1_555
C1 C2 1_555 1_555
C5 C6 1_555 1_555
O2 C8 1_555 1_555
O4 C10 1_555 1_555
Pb1A O1A 1_555 1_555
Pb1A_2 O2A 1_555 1_555

#END
