
#######################################################################
#
#                 Cambridge Crystallographic Data Centre
#                                CCDC 
#
#######################################################################
#
# If this CIF has been generated from an entry in the Cambridge 
# Structural Database, then it will include bibliographic, chemical, 
# crystal, experimental, refinement or atomic coordinate data resulting 
# from the CCDC's data processing and validation procedures.
#
#######################################################################

data_XOVTEJ
_symmetry_cell_setting           triclinic
_symmetry_space_group_name_H-M   'P -1'
_symmetry_Int_Tables_number      2
_space_group_name_Hall           '-P 1'
loop_
_symmetry_equiv_pos_site_id
_symmetry_equiv_pos_as_xyz
1 x,y,z
2 -x,-y,-z
_cell_length_a                   7.3623(10)
_cell_length_b                   7.6177(10)
_cell_length_c                   13.1413(17)
_cell_angle_alpha                89.762(4)
_cell_angle_beta                 76.405(4)
_cell_angle_gamma                66.691(4)
_cell_volume                     654.63
loop_
_atom_site_label
_atom_site_type_symbol
_atom_site_fract_x
_atom_site_fract_y
_atom_site_fract_z
Pb1 Pb 0.67144(4) 0.16792(4) 0.53160(2)
Cl1 Cl 0.2021(4) 0.3992(4) 1.0948(2)
O1 O 0.8134(9) 0.2240(10) 0.3510(5)
O2 O 0.4752(10) 0.3657(10) 0.3929(6)
O3 O 0.6797(9) -0.1072(9) 0.4242(5)
O4 O 0.9660(9) -0.1498(9) 0.4639(5)
N1 N 0.7013(12) -0.0788(11) 0.6912(6)
H1 H 0.652(11) -0.160(9) 0.675(8)
H2 H 0.827(6) -0.145(10) 0.696(8)
N2 N 0.8707(15) 0.0961(18) 0.8079(9)
H3 H 0.951(13) 0.031(17) 0.749(5)
H4 H 0.933(14) 0.138(18) 0.844(8)
C1 C 0.5832(14) 0.0307(12) 0.7902(7)
C2 C 0.6734(14) 0.1165(13) 0.8450(7)
C3 C 0.5512(14) 0.2296(14) 0.9401(8)
H5 H 0.608 0.2878 0.9803
C4 C 0.3504(14) 0.2563(14) 0.9749(7)
C5 C 0.2584(14) 0.1756(15) 0.9208(8)
H6 H 0.1189 0.196 0.946
C6 C 0.3793(15) 0.0641(14) 0.8284(8)
H7 H 0.3202 0.0073 0.789
C7 C 0.6442(13) 0.3293(14) 0.3291(7)
C8 C 0.6519(17) 0.4058(15) 0.2235(8)
H8 H 0.542 0.3983 0.1962
H9 H 0.7843 0.3291 0.1748
H10 H 0.6344 0.5399 0.2306
C9 C 0.8652(12) -0.2138(13) 0.4197(7)
C10 C 0.9620(17) -0.4105(15) 0.3656(9)
H11 H 0.9409 -0.5006 0.4156
H12 H 1.1089 -0.4461 0.3375
H13 H 0.9003 -0.415 0.3077
Pb1A Pb 0.32856(4) -0.16792(4) 0.46840(2)
Pb1A_2 Pb 1.32856(4) -0.16792(4) 0.46840(2)
O3A O 0.3203(9) 0.1072(9) 0.5758(5)
O4A O 1.0340(9) 0.1498(9) 0.5361(5)
loop_
_geom_bond_atom_site_label_1
_geom_bond_atom_site_label_2
_geom_bond_site_symmetry_1
_geom_bond_site_symmetry_2
Pb1 O1 1_555 1_555
Cl1 C4 1_555 1_555
O1 C7 1_555 1_555
O2 Pb1 1_555 1_555
O3 Pb1 1_555 1_555
O4 Pb1 1_555 1_555
N1 Pb1 1_555 1_555
H1 N1 1_555 1_555
H2 N1 1_555 1_555
N2 H3 1_555 1_555
H4 N2 1_555 1_555
C1 N1 1_555 1_555
C2 N2 1_555 1_555
C3 C2 1_555 1_555
H5 C3 1_555 1_555
C4 C3 1_555 1_555
C5 C4 1_555 1_555
H6 C5 1_555 1_555
C6 C1 1_555 1_555
H7 C6 1_555 1_555
C7 O2 1_555 1_555
C8 C7 1_555 1_555
H8 C8 1_555 1_555
H9 C8 1_555 1_555
H10 C8 1_555 1_555
C9 O3 1_555 1_555
C10 C9 1_555 1_555
H11 C10 1_555 1_555
H12 C10 1_555 1_555
H13 C10 1_555 1_555
Pb1A O3 1_555 1_555
Pb1A_2 O4 1_555 1_555
O3A Pb1 1_555 1_555
O4A Pb1 1_555 1_555
O4 C9 1_555 1_555
C1 C2 1_555 1_555
C5 C6 1_555 1_555
Pb1A O3A 1_555 1_555
Pb1A_2 O4A 1_555 1_555

#END
