
#######################################################################
#
#                 Cambridge Crystallographic Data Centre
#                                CCDC 
#
#######################################################################
#
# If this CIF has been generated from an entry in the Cambridge 
# Structural Database, then it will include bibliographic, chemical, 
# crystal, experimental, refinement or atomic coordinate data resulting 
# from the CCDC's data processing and validation procedures.
#
#######################################################################

data_XOVVOU
_symmetry_cell_setting           monoclinic
_symmetry_space_group_name_H-M   'C 2/c'
_symmetry_Int_Tables_number      15
_space_group_name_Hall           '-C 2yn'
loop_
_symmetry_equiv_pos_site_id
_symmetry_equiv_pos_as_xyz
1 x,y,z
2 -x,y,1/2-z
3 1/2+x,1/2+y,z
4 1/2-x,1/2+y,1/2-z
5 -x,-y,-z
6 x,-y,1/2+z
7 1/2-x,1/2-y,-z
8 1/2+x,1/2-y,1/2+z
_cell_length_a                   23.769(3)
_cell_length_b                   13.7612(13)
_cell_length_c                   14.0822(14)
_cell_angle_alpha                90
_cell_angle_beta                 92.911(2)
_cell_angle_gamma                90
_cell_volume                     4600.2
loop_
_atom_site_label
_atom_site_type_symbol
_atom_site_fract_x
_atom_site_fract_y
_atom_site_fract_z
Zn1 Zn 0.30784(3) 0.84581(4) 0.01279(4)
Zn2 Zn 0.20778(3) 0.76890(4) 0.38988(4)
C1 C 0.2717(2) 0.8048(4) 0.2100(3)
H1 H 0.2947 0.8535 0.2362
C2 C 0.2133(3) 0.6902(4) 0.1940(4)
H2 H 0.1876 0.6418 0.2076
C3 C 0.1910(2) 0.5588(4) 0.4370(4)
H3 H 0.1665 0.5480 0.3845
C4 C 0.2440(3) 0.5350(4) 0.5587(4)
H4 H 0.2643 0.5048 0.6087
C5 C 0.4759(3) 0.8274(5) 0.0696(5)
C6 C 0.5029(3) 0.9066(5) 0.1114(6)
H5 H 0.4824 0.9616 0.1262
C7 C 0.5612(3) 0.9038(5) 0.1315(5)
C8 C 0.5914(3) 0.8213(5) 0.1134(5)
H6 H 0.6301 0.8190 0.1267
C9 C 0.5629(3) 0.7416(5) 0.0748(5)
C10 C 0.5055(3) 0.7443(5) 0.0517(5)
H7 H 0.4873 0.6906 0.0245
C11 C 0.4120(3) 0.8356(6) 0.0553(7)
C12 C 0.5913(3) 0.9877(5) 0.1777(6)
C13 C 0.0475(3) 0.8362(4) 0.2844(4)
C14 C 0.0000 0.7872(6) 0.2500
H8 H 0.0000 0.7197 0.2500
C15 C 0.0000 0.9856(6) 0.2500
C16 C 0.0479(3) 0.9371(4) 0.2864(5)
H9 H 0.0791 0.9712 0.3113
C17 C 0.0993(2) 0.7822(4) 0.3203(4)
N1 N 0.2689(2) 0.7819(3) 0.1181(3)
N2 N 0.2301(2) 0.7080(3) 0.1075(3)
N3 N 0.2375(2) 0.7498(3) 0.2605(3)
N4 N 0.21123(19) 0.6449(3) 0.4617(3)
N5 N 0.2459(2) 0.6303(3) 0.5414(3)
N6 N 0.2102(2) 0.4884(3) 0.4967(3)
N7 N 0.5940(3) 0.6517(5) 0.0635(5)
N8 N 0.0000 1.0923(6) 0.2500
O1 O 0.3872(3) 0.7866(6) -0.0070(5)
O2 O 0.3854(3) 0.8914(5) 0.1054(7)
O3 O 0.5578(2) 1.0604(4) 0.1949(5)
H10 H 0.5761 1.1047 0.2202
O4 O 0.6419(2) 0.9892(4) 0.1974(4)
O5 O 0.6450(3) 0.6512(4) 0.0819(5)
O6 O 0.5669(3) 0.5788(4) 0.0382(5)
O7 O 0.13622(19) 0.8341(3) 0.3648(3)
O8 O 0.10527(19) 0.6956(3) 0.3059(4)
O9 O -0.0438(3) 1.1340(4) 0.2275(5)
Zn1A Zn -0.30784(3) 0.84581(4) 0.48721(4)
Zn1B Zn -0.19216(3) 0.34581(4) 0.01279(4)
Zn1C Zn 0.19216(3) 0.34581(4) 0.48721(4)
Zn1F Zn 0.19216(3) 0.65419(4) -0.01279(4)
Zn1G Zn -0.19216(3) 0.65419(4) 0.51279(4)
Zn2A Zn -0.20778(3) 0.76890(4) 0.11012(4)
Zn2F Zn 0.29222(3) 0.73110(4) 0.61012(4)
Zn2G Zn -0.29222(3) 0.73110(4) -0.11012(4)
C1A C -0.2717(2) 0.8048(4) 0.2900(3)
H1A H -0.2947 0.8535 0.2638
C2A C -0.2133(3) 0.6902(4) 0.3060(4)
H2A H -0.1876 0.6418 0.2924
C3A C -0.1910(2) 0.5588(4) 0.0630(4)
H3A H -0.1665 0.5480 0.1155
C4A C -0.2440(3) 0.5350(4) -0.0587(4)
H4A H -0.2643 0.5048 -0.1087
C5A C -0.4759(3) 0.8274(5) 0.4304(5)
C6A C -0.5029(3) 0.9066(5) 0.3886(6)
H5A H -0.4824 0.9616 0.3738
C7A C -0.5612(3) 0.9038(5) 0.3685(5)
C8A C -0.5914(3) 0.8213(5) 0.3866(5)
H6A H -0.6301 0.8190 0.3733
C9A C -0.5629(3) 0.7416(5) 0.4252(5)
C10A C -0.5055(3) 0.7443(5) 0.4483(5)
H7A H -0.4873 0.6906 0.4755
C11A C -0.4120(3) 0.8356(6) 0.4447(7)
C12A C -0.5913(3) 0.9877(5) 0.3223(6)
C13A C -0.0475(3) 0.8362(4) 0.2156(4)
C16A C -0.0479(3) 0.9371(4) 0.2136(5)
H9A H -0.0791 0.9712 0.1887
C17A C -0.0993(2) 0.7822(4) 0.1797(4)
N1A N -0.2689(2) 0.7819(3) 0.3819(3)
N2A N -0.2301(2) 0.7080(3) 0.3925(3)
N2F N 0.2699(2) 0.7920(3) -0.1075(3)
N2G N -0.2699(2) 0.7920(3) 0.6075(3)
N3A N -0.2375(2) 0.7498(3) 0.2395(3)
N4A N -0.21123(19) 0.6449(3) 0.0383(3)
N5A N -0.2459(2) 0.6303(3) -0.0414(3)
N5F N 0.2541(2) 0.8697(3) 0.4586(3)
N5G N -0.2541(2) 0.8697(3) 0.0414(3)
N6A N -0.2102(2) 0.4884(3) 0.0033(3)
N6B N -0.2898(2) 0.9884(3) 0.4967(3)
N6C N 0.2898(2) 0.9884(3) 0.0033(3)
N7A N -0.5940(3) 0.6517(5) 0.4365(5)
O1A O -0.3872(3) 0.7866(6) 0.5070(5)
O2A O -0.3854(3) 0.8914(5) 0.3946(7)
O3A O -0.5578(2) 1.0604(4) 0.3051(5)
H10A H -0.5761 1.1047 0.2798
O4A O -0.6419(2) 0.9892(4) 0.3026(4)
O5A O -0.6450(3) 0.6512(4) 0.4181(5)
O6A O -0.5669(3) 0.5788(4) 0.4618(5)
O7A O -0.13622(19) 0.8341(3) 0.1352(3)
O8A O -0.10527(19) 0.6956(3) 0.1941(4)
O9A O 0.0438(3) 1.1340(4) 0.2725(5)
loop_
_geom_bond_atom_site_label_1
_geom_bond_atom_site_label_2
_geom_bond_site_symmetry_1
_geom_bond_site_symmetry_2
Zn1 N1 1_555 1_555
Zn2 N3 1_555 1_555
C1 H1 1_555 1_555
C2 H2 1_555 1_555
C3 H3 1_555 1_555
C4 H4 1_555 1_555
C5 C6 1_555 1_555
C6 H5 1_555 1_555
C7 C6 1_555 1_555
C8 C7 1_555 1_555
H6 C8 1_555 1_555
C9 C8 1_555 1_555
C10 C5 1_555 1_555
H7 C10 1_555 1_555
C11 C5 1_555 1_555
C12 C7 1_555 1_555
C13 C14 1_555 1_555
C14 H8 1_555 1_555
C15 C16 1_555 1_555
C16 C13 1_555 1_555
H9 C16 1_555 1_555
C17 C13 1_555 1_555
N1 C1 1_555 1_555
N2 C2 1_555 1_555
N3 C1 1_555 1_555
N4 Zn2 1_555 1_555
N5 C4 1_555 1_555
N6 C3 1_555 1_555
N7 C9 1_555 1_555
N8 C15 1_555 1_555
O1 Zn1 1_555 1_555
O2 Zn1 1_555 1_555
O3 C12 1_555 1_555
H10 O3 1_555 1_555
O4 C12 1_555 1_555
O5 N7 1_555 1_555
O6 N7 1_555 1_555
O7 Zn2 1_555 1_555
O8 C17 1_555 1_555
O9 N8 1_555 1_555
Zn1A N1A 1_555 1_555
Zn1B N6A 1_555 1_555
Zn1C N6 1_555 1_555
Zn1F N2 1_555 1_555
Zn1G N2A 1_555 1_555
Zn2A N3A 1_555 1_555
Zn2F N5 1_555 1_555
Zn2G N5A 1_555 1_555
C1A H1A 1_555 1_555
C2A H2A 1_555 1_555
C3A H3A 1_555 1_555
C4A H4A 1_555 1_555
C5A C6A 1_555 1_555
C6A H5A 1_555 1_555
C7A C6A 1_555 1_555
C8A C7A 1_555 1_555
H6A C8A 1_555 1_555
C9A C8A 1_555 1_555
C10A C5A 1_555 1_555
H7A C10A 1_555 1_555
C11A C5A 1_555 1_555
C12A C7A 1_555 1_555
C13A C14 1_555 1_555
C16A C15 1_555 1_555
H9A C16A 1_555 1_555
C17A C13A 1_555 1_555
N1A C1A 1_555 1_555
N2A C2A 1_555 1_555
N2F Zn1 1_555 1_555
N2G Zn1A 1_555 1_555
N3A C1A 1_555 1_555
N4A Zn2A 1_555 1_555
N5A C4A 1_555 1_555
N5F Zn2 1_555 1_555
N5G Zn2A 1_555 1_555
N6A C3A 1_555 1_555
N6B Zn1A 1_555 1_555
N6C Zn1 1_555 1_555
N7A C9A 1_555 1_555
O1A Zn1A 1_555 1_555
O2A Zn1A 1_555 1_555
O3A C12A 1_555 1_555
H10A O3A 1_555 1_555
O4A C12A 1_555 1_555
O5A N7A 1_555 1_555
O6A N7A 1_555 1_555
O7A Zn2A 1_555 1_555
O8A C17A 1_555 1_555
O9A N8 1_555 1_555
C2 N3 1_555 1_555
C3 N4 1_555 1_555
C4 N6 1_555 1_555
C9 C10 1_555 1_555
C11 O1 1_555 1_555
C11 O2 1_555 1_555
C17 O7 1_555 1_555
N1 N2 1_555 1_555
N4 N5 1_555 1_555
C2A N3A 1_555 1_555
C3A N4A 1_555 1_555
C4A N6A 1_555 1_555
C9A C10A 1_555 1_555
C11A O1A 1_555 1_555
C11A O2A 1_555 1_555
C13A C16A 1_555 1_555
C17A O7A 1_555 1_555
N1A N2A 1_555 1_555
N4A N5A 1_555 1_555

#END
