
#######################################################################
#
#                 Cambridge Crystallographic Data Centre
#                                CCDC 
#
#######################################################################
#
# If this CIF has been generated from an entry in the Cambridge 
# Structural Database, then it will include bibliographic, chemical, 
# crystal, experimental, refinement or atomic coordinate data resulting 
# from the CCDC's data processing and validation procedures.
#
#######################################################################

data_XOVXEM
_symmetry_cell_setting           triclinic
_symmetry_space_group_name_H-M   'P -1'
_symmetry_Int_Tables_number      2
_space_group_name_Hall           '-P 1'
loop_
_symmetry_equiv_pos_site_id
_symmetry_equiv_pos_as_xyz
1 x,y,z
2 -x,-y,-z
_cell_length_a                   11.232(4)
_cell_length_b                   11.361(4)
_cell_length_c                   17.072(6)
_cell_angle_alpha                97.950(6)
_cell_angle_beta                 108.889(5)
_cell_angle_gamma                91.409(6)
_cell_volume                     2035.77
loop_
_atom_site_label
_atom_site_type_symbol
_atom_site_fract_x
_atom_site_fract_y
_atom_site_fract_z
Cd1 Cd -0.08487(5) 0.77429(5) 0.53920(3)
Cd2 Cd 0.21501(5) 0.71430(5) 0.54860(3)
Cd3 Cd -0.17571(5) 0.20595(5) 0.04390(3)
Cd4 Cd -0.18250(5) 1.13304(5) 0.24990(3)
Cd5 Cd -0.25023(5) 0.91234(5) 0.04376(3)
C1 C -0.2983(7) 0.7663(8) 0.3397(5)
C2 C -0.2529(7) 0.8824(7) 0.3993(4)
C3 C -0.3236(7) 0.7483(7) 0.2523(5)
C4 C -0.2899(7) 0.8458(7) 0.2105(5)
C5 C -0.3604(7) 0.6338(7) 0.2067(5)
H1 H -0.3634 0.6177 0.1512
C6 C -0.3934(7) 0.5409(7) 0.2473(4)
H2 H -0.4374 0.4697 0.2170
C7 C -0.3556(7) 0.5641(8) 0.3340(6)
H3 H -0.3567 0.5022 0.3642
C8 C -0.0453(7) 0.4469(7) 0.3745(5)
C9 C -0.0396(7) 0.5433(7) 0.3237(5)
C10 C -0.0619(7) 0.5231(8) 0.2380(5)
C11 C -0.0509(7) 0.6180(7) 0.1988(5)
H4 H -0.0668 0.6063 0.1412
C12 C -0.0157(8) 0.7335(8) 0.2450(5)
H5 H -0.0033 0.7969 0.2187
C13 C 0.0007(7) 0.7526(7) 0.3309(4)
H6 H 0.0153 0.8292 0.3611
C14 C -0.1006(8) 0.4030(7) 0.1931(5)
C15 C 0.4418(8) 0.7477(7) 0.7146(6)
C16 C 0.5729(7) 0.7215(6) 0.7638(5)
C17 C 0.5374(7) 0.7646(7) 0.9063(4)
C18 C 0.6153(7) 0.7338(7) 0.8494(5)
C19 C 0.8165(9) 0.6769(8) 0.8501(6)
H7 H 0.8994 0.6662 0.8808
C20 C 0.7783(8) 0.6557(9) 0.7645(5)
H8 H 0.8322 0.6262 0.7363
C21 C 0.6534(8) 0.6804(7) 0.7206(5)
H9 H 0.6249 0.6691 0.6624
C22 C -0.1292(7) 0.9219(7) 0.6906(5)
C23 C -0.2103(8) 0.9725(7) 0.7417(5)
C24 C -0.3430(7) 0.9834(7) 0.6963(5)
H10 H -0.3745 0.9682 0.6381
C25 C -0.4203(7) 1.0173(7) 0.7430(5)
H11 H -0.5045 1.0290 0.7160
C26 C -0.3735(7) 1.0338(7) 0.8288(5)
H12 H -0.4257 1.0568 0.8599
C27 C -0.1694(7) 0.9942(7) 0.8242(5)
C28 C -0.0377(7) 0.9768(8) 0.8769(5)
N1 N -0.3174(6) 0.6753(6) 0.3748(4)
N2 N -0.0054(6) 0.6563(6) 0.3685(4)
N3 N 0.7392(6) 0.7117(6) 0.8893(4)
N4 N -0.2541(6) 1.0169(5) 0.8672(4)
O1 O -0.2887(5) 0.6911(5) 0.4606(3)
O2 O -0.1389(5) 0.9020(5) 0.4357(3)
O3 O -0.3347(5) 0.9499(4) 0.4060(3)
O4 O -0.2564(5) 0.9487(5) 0.2557(3)
O5 O -0.2973(5) 0.8168(5) 0.1374(4)
O6 O 0.0138(5) 0.6694(4) 0.4496(3)
O7 O 0.0598(5) 0.3955(5) 0.4037(3)
O8 O -0.1406(5) 0.4304(5) 0.3914(3)
O9 O -0.1111(5) 0.3202(5) 0.2312(3)
O10 O -0.1137(5) 0.3859(5) 0.1119(3)
O11 O 0.2647(5) 0.5670(5) 0.4583(3)
H13 H 0.1991 0.5483 0.4155
H14 H 0.2914 0.5028 0.4755
O12 O 0.2711(5) 0.8559(5) 0.4777(3)
H15 H 0.3458 0.8470 0.4772
H16 H 0.2676 0.9255 0.5023
O13 O 0.1107(5) 0.8458(5) 0.6084(3)
H17 H 0.1226 0.9236 0.5922
O14 O 0.7749(5) 0.7276(5) 0.9722(3)
O15 O 0.5464(5) 0.8735(5) 0.9417(3)
O16 O 0.4711(5) 0.6831(4) 0.9133(3)
O17 O 0.3746(5) 0.7930(5) 0.7542(3)
O18 O 0.4089(5) 0.7138(5) 0.6385(3)
O19 O -0.0864(5) 0.2664(4) -0.0524(3)
H18 H -0.1356 0.2437 -0.1022
H19 H -0.0162 0.2358 -0.0459
O20 O -0.3717(5) 0.2721(4) -0.0330(3)
H20 H -0.4130 0.2893 0.0003
H21 H -0.3618 0.3345 -0.0532
O21 O -0.2653(5) 0.0934(5) 0.1106(3)
H22 H -0.3549 0.1084 0.0950
O22 O 0.0323(5) 1.0758(5) 0.8995(3)
O23 O -0.0098(5) 0.8786(5) 0.8940(3)
O24 O -0.0144(5) 0.9363(5) 0.7290(3)
O25 O -0.1855(5) 0.8663(5) 0.6186(3)
O26 O -0.2097(5) 1.0296(5) 0.9528(3)
Cd1A Cd 0.08487(5) 0.22571(5) 0.46080(3)
Cd2A Cd -0.21501(5) 0.28570(5) 0.45140(3)
Cd3A Cd 0.17571(5) 0.79405(5) 0.95610(3)
Cd3_2 Cd -0.17571(5) 1.20595(5) 1.04390(3)
Cd4_2 Cd -0.18250(5) 0.13304(5) 0.24990(3)
Cd4A Cd 0.18250(5) 0.86696(5) 0.75010(3)
Cd5_2 Cd 0.74977(5) 0.91234(5) 1.04376(3)
Cd5_3 Cd -0.25023(5) -0.08766(5) 0.04376(3)
Cd5A Cd 0.25023(5) 1.08766(5) 0.95624(3)
Cd5_4 Cd -0.25023(5) 0.91234(5) 1.04376(3)
O7A O -0.0598(5) 0.6045(5) 0.5963(3)
O8A O 0.1406(5) 0.5696(5) 0.6086(3)
O9_2 O -0.1111(5) 1.3202(5) 0.2312(3)
O13A O -0.1107(5) 1.1542(5) 0.3916(3)
H17A H -0.1226 1.0764 0.4078
O14_2 O -0.2251(5) 0.7276(5) -0.0278(3)
O15_2 O -0.4536(5) 0.8735(5) -0.0583(3)
O17A O -0.3746(5) 1.2070(5) 0.2458(3)
O21_2 O -0.2653(5) 1.0934(5) 0.1106(3)
H22_2 H -0.3549 1.1084 0.0950
O22A O -0.0323(5) 0.9242(5) 0.1005(3)
O23A O 0.0098(5) 0.1214(5) 0.1060(3)
O24A O 0.0144(5) 1.0637(5) 0.2710(3)
O26_2 O -0.2097(5) 0.0296(5) -0.0472(3)
O26_3 O -0.2097(5) 1.0296(5) -0.0472(3)
O27 O 0.2819(10) 0.6502(9) 0.1781(6)
H23 H 0.2519 0.6272 0.2137
H24 H 0.3392 0.7060 0.2024
O28 O 0.5064(5) 0.8261(5) 0.4635(3)
H25 H 0.5240 0.8788 0.4374
H26 H 0.5069 0.7573 0.4369
loop_
_geom_bond_atom_site_label_1
_geom_bond_atom_site_label_2
_geom_bond_site_symmetry_1
_geom_bond_site_symmetry_2
Cd1 O1 1_555 1_555
Cd2 O6 1_555 1_555
Cd3 O10 1_555 1_555
Cd4 O4 1_555 1_555
Cd5 O5 1_555 1_555
C1 C2 1_555 1_555
C2 O2 1_555 1_555
C3 C1 1_555 1_555
C4 C3 1_555 1_555
C5 C3 1_555 1_555
H1 C5 1_555 1_555
C6 C5 1_555 1_555
H2 C6 1_555 1_555
C7 C6 1_555 1_555
H3 C7 1_555 1_555
C8 C9 1_555 1_555
C9 C10 1_555 1_555
C10 C11 1_555 1_555
C11 H4 1_555 1_555
C12 C11 1_555 1_555
H5 C12 1_555 1_555
C13 C12 1_555 1_555
H6 C13 1_555 1_555
C14 C10 1_555 1_555
C15 C16 1_555 1_555
C16 C18 1_555 1_555
C17 C18 1_555 1_555
C18 N3 1_555 1_555
C19 H7 1_555 1_555
C20 C19 1_555 1_555
H8 C20 1_555 1_555
C21 C16 1_555 1_555
H9 C21 1_555 1_555
C22 C23 1_555 1_555
C23 C24 1_555 1_555
C24 H10 1_555 1_555
C25 C24 1_555 1_555
H11 C25 1_555 1_555
C26 C25 1_555 1_555
H12 C26 1_555 1_555
C27 C23 1_555 1_555
C28 C27 1_555 1_555
N1 C1 1_555 1_555
N2 C9 1_555 1_555
N3 C19 1_555 1_555
N4 C26 1_555 1_555
O1 N1 1_555 1_555
O2 Cd1 1_555 1_555
O3 C2 1_555 1_555
O4 C4 1_555 1_555
O5 C4 1_555 1_555
O6 Cd1 1_555 1_555
O7 C8 1_555 1_555
O8 C8 1_555 1_555
O9 C14 1_555 1_555
O10 C14 1_555 1_555
O11 Cd2 1_555 1_555
H13 O11 1_555 1_555
H14 O11 1_555 1_555
O12 Cd2 1_555 1_555
H15 O12 1_555 1_555
H16 O12 1_555 1_555
O13 Cd1 1_555 1_555
H17 O13 1_555 1_555
O14 N3 1_555 1_555
O15 C17 1_555 1_555
O16 C17 1_555 1_555
O17 C15 1_555 1_555
O18 Cd2 1_555 1_555
O19 Cd3 1_555 1_555
H18 O19 1_555 1_555
H19 O19 1_555 1_555
O20 Cd3 1_555 1_555
H20 O20 1_555 1_555
H21 O20 1_555 1_555
O21 Cd3 1_555 1_555
H22 O21 1_555 1_555
O22 C28 1_555 1_555
O23 C28 1_555 1_555
O24 C22 1_555 1_555
O25 Cd1 1_555 1_555
O26 N4 1_555 1_555
O27 H23 1_555 1_555
H24 O27 1_555 1_555
O28 H25 1_555 1_555
H26 O28 1_555 1_555
Cd1A O7 1_555 1_555
Cd2A O8 1_555 1_555
Cd3A O23 1_555 1_555
Cd3_2 O26 1_555 1_555
Cd4_2 O9 1_555 1_555
Cd4A O13 1_555 1_555
Cd5_2 O14 1_555 1_555
Cd5_3 O21 1_555 1_555
Cd5A O22 1_555 1_555
Cd5_4 O26 1_555 1_555
O7A Cd1 1_555 1_555
O8A Cd2 1_555 1_555
O9_2 Cd4 1_555 1_555
O13A Cd4 1_555 1_555
H17A O13A 1_555 1_555
O14_2 Cd5 1_555 1_555
O15_2 Cd5 1_555 1_555
O17A Cd4 1_555 1_555
O21_2 Cd4 1_555 1_555
H22_2 O21_2 1_555 1_555
O22A Cd5 1_555 1_555
O23A Cd3 1_555 1_555
O24A Cd4 1_555 1_555
O26_2 Cd3 1_555 1_555
O26_3 Cd5 1_555 1_555
Cd2 O13 1_555 1_555
Cd5 O21_2 1_555 1_555
C7 N1 1_555 1_555
C13 N2 1_555 1_555
C15 O18 1_555 1_555
C20 C21 1_555 1_555
C22 O25 1_555 1_555
C27 N4 1_555 1_555
N2 O6 1_555 1_555
O15 Cd5_2 1_555 1_555
O17 Cd4A 1_555 1_555
O21 Cd4_2 1_555 1_555
O24 Cd4A 1_555 1_555
Cd5_3 O26_2 1_555 1_555

#END
