
#######################################################################
#
#                 Cambridge Crystallographic Data Centre
#                                CCDC 
#
#######################################################################
#
# If this CIF has been generated from an entry in the Cambridge 
# Structural Database, then it will include bibliographic, chemical, 
# crystal, experimental, refinement or atomic coordinate data resulting 
# from the CCDC's data processing and validation procedures.
#
#######################################################################

data_XOVZEO
_symmetry_cell_setting           monoclinic
_symmetry_space_group_name_H-M   'C 2'
_symmetry_Int_Tables_number      5
_space_group_name_Hall           'C 2y'
loop_
_symmetry_equiv_pos_site_id
_symmetry_equiv_pos_as_xyz
1 x,y,z
2 -x,y,-z
3 1/2+x,1/2+y,z
4 1/2-x,1/2+y,-z
_cell_length_a                   21.111(3)
_cell_length_b                   17.542(3)
_cell_length_c                   21.355(3)
_cell_angle_alpha                90
_cell_angle_beta                 97.37(3)
_cell_angle_gamma                90
_cell_volume                     7843.04
loop_
_atom_site_label
_atom_site_type_symbol
_atom_site_fract_x
_atom_site_fract_y
_atom_site_fract_z
S1 S 0.6639(4) 0.7140(7) 0.2706(4)
O1 O 0.6204(10) 0.6697(15) 0.2963(13)
O2 O 0.6338(10) 0.7907(15) 0.2618(13)
O3 O 0.7258(10) 0.699(2) 0.2911(14)
F1 F 0.6733(14) 0.6133(9) 0.1892(10)
F2 F 0.6914(13) 0.7267(10) 0.1571(9)
F3 F 0.5952(10) 0.6912(19) 0.1644(10)
C37 C 0.6553(12) 0.6862(12) 0.1913(13)
S2 S 0.1629(4) 0.6005(7) 0.2716(5)
O4 O 0.1236(7) 0.6525(12) 0.3007(9)
O5 O 0.1441(12) 0.5231(11) 0.2686(10)
O6 O 0.2273(10) 0.602(2) 0.2901(13)
F4 F 0.1868(12) 0.5896(18) 0.1543(13)
F5 F 0.0962(15) 0.6223(17) 0.1670(15)
F6 F 0.186(3) 0.709(3) 0.185(3)
C38 C 0.1575(16) 0.640(3) 0.1889(18)
O7 O 0.2334(6) 0.9022(17) 0.3619(6)
O8 O 0.1013(6) 0.9149(16) 0.3185(6)
C39 C 0.2011(18) 0.976(2) 0.3516(17)
C40 C 0.1981(16) 0.8370(19) 0.3333(15)
C41 C 0.1371(16) 0.841(2) 0.3125(15)
C42 C 0.1337(11) 0.9772(15) 0.3534(11)
O11 O 0.2504(10) 0.903(3) 0.1809(10)
O12 O 0.2228(13) 0.9377(17) 0.0518(13)
C47 C 0.259(3) 0.814(4) 0.158(3)
C48 C 0.228(3) 1.010(4) 0.082(3)
C49 C 0.211(2) 0.845(3) 0.090(2)
C50 C 0.2636(19) 0.969(3) 0.141(2)
Zn1 Zn 0.34281(5) 0.4067(6) 0.29525(7)
N1 N 0.3980(6) 0.5039(8) 0.2976(6)
N2 N 0.4229(7) 0.6275(11) 0.2904(7)
N3 N 0.3942(10) 1.3155(14) 0.2980(8)
N4 N 0.4229(10) 1.1951(12) 0.2911(8)
N5 N 0.2903(4) 0.4040(13) 0.2101(5)
N6 N 0.2134(4) 0.4061(15) 0.1313(6)
N7 N 0.2922(5) 0.3987(13) 0.3651(6)
N8 N 0.2142(5) 0.3936(15) 0.4243(6)
C1 C 0.3741(11) 0.5734(13) 0.2890(7)
H1 H 0.3307 0.5848 0.2829
C2 C 0.4580(11) 0.5012(18) 0.3050(9)
H2 H 0.4835 0.4581 0.3117
C3 C 0.4801(10) 0.5845(10) 0.3009(9)
H3 H 0.5218 0.6025 0.3045
C4 C 0.4163(10) 0.7038(14) 0.2866(7)
C5 C 0.4725(11) 0.7438(13) 0.2703(9)
H4 H 0.5088 0.7173 0.2625
C6 C 0.4699(10) 0.8248(14) 0.2669(10)
H5 H 0.5057 0.8504 0.2566
C7 C 0.4159(10) 0.8689(13) 0.2782(9)
C8 C 0.3626(7) 0.8226(12) 0.2942(8)
H6 H 0.3258 0.8478 0.3024
C9 C 0.3633(12) 0.7397(16) 0.2982(8)
H7 H 0.3281 0.7128 0.3085
C10 C 0.4156(8) 0.9525(13) 0.2807(6)
C11 C 0.4652(13) 0.9892(13) 0.2684(11)
H8 H 0.5004 0.9625 0.2577
C12 C 0.4669(13) 1.0681(18) 0.2707(11)
H9 H 0.5044 1.0925 0.2635
C13 C 0.4192(11) 1.1096(12) 0.2824(10)
C14 C 0.3655(10) 1.0695(15) 0.2927(9)
H10 H 0.3287 1.0955 0.2997
C15 C 0.3661(14) 0.9909(14) 0.2928(8)
H11 H 0.3301 0.9648 0.3018
C16 C 0.3755(9) 1.2414(13) 0.2898(8)
H12 H 0.3330 1.2260 0.2840
C17 C 0.4641(8) 1.3064(9) 0.3047(10)
H13 H 0.4941 1.3453 0.3111
C18 C 0.4760(13) 1.235(2) 0.3001(10)
H14 H 0.5168 1.2141 0.3029
C19 C 0.2287(5) 0.4107(13) 0.1918(6)
H15 H 0.1989 0.4181 0.2197
C20 C 0.3159(7) 0.394(2) 0.1566(8)
H16 H 0.3591 0.3877 0.1534
C21 C 0.2692(9) 0.396(2) 0.1090(9)
H17 H 0.2744 0.3903 0.0666
C22 C 0.1516(6) 0.4001(12) 0.0922(8)
C23 C 0.0975(7) 0.4007(15) 0.1214(8)
H18 H 0.0992 0.3979 0.1651
C24 C 0.0407(9) 0.4059(15) 0.0828(10)
H19 H 0.0042 0.4063 0.1028
C25 C 0.0310(6) 0.4104(16) 0.0185(7)
C26 C 0.0877(8) 0.409(2) -0.0052(8)
H20 H 0.0864 0.4123 -0.0488
C27 C 0.1473(8) 0.404(2) 0.0302(8)
H21 H 0.1840 0.4037 0.0103
C28 C 0.2306(6) 0.4147(13) 0.3714(7)
H22 H 0.2028 0.4387 0.3402
C29 C 0.3153(10) 0.3631(14) 0.4224(9)
H23 H 0.3568 0.3451 0.4327
C30 C 0.2681(10) 0.3587(14) 0.4609(13)
H24 H 0.2706 0.3379 0.5013
C31 C 0.1518(6) 0.4182(13) 0.4501(7)
C32 C 0.1472(7) 0.4099(12) 0.5079(6)
H25 H 0.1842 0.4057 0.5364
C33 C 0.0869(6) 0.4066(14) 0.5307(7)
H26 H 0.0839 0.4006 0.5734
C34 C 0.0325(6) 0.4129(17) 0.4865(8)
C35 C 0.0378(7) 0.422(2) 0.4282(8)
H27 H 0.0010 0.4261 0.3994
C36 C 0.0997(8) 0.425(2) 0.4054(9)
H28 H 0.1036 0.4307 0.3628
Zn1_2 Zn 0.34281(5) -0.5933(6) 0.29525(7)
Zn1_3 Zn 0.34281(5) 1.4067(6) 0.29525(7)
Zn1A Zn -0.34281(5) 0.4067(6) -0.29525(7)
Zn1A_2 Zn -0.34281(5) 0.4067(6) 0.70475(7)
N1_2 N 0.3980(6) -0.4961(8) 0.2976(6)
N2_2 N 0.4229(7) -0.3725(11) 0.2904(7)
N3_2 N 0.3942(10) 0.3155(14) 0.2980(8)
N3_3 N 0.3942(10) -0.6845(14) 0.2980(8)
N4_2 N 0.4229(10) 0.1951(12) 0.2911(8)
N5A N -0.2903(4) 0.4040(13) -0.2101(5)
N5_2 N 0.2903(4) -0.5960(13) 0.2101(5)
N6A N -0.2134(4) 0.4061(15) -0.1313(6)
N7A N -0.2922(5) 0.3987(13) 0.6349(6)
N7_2 N 0.2922(5) -0.6013(13) 0.3651(6)
N8A N -0.2142(5) 0.3936(15) 0.5757(6)
C1_2 C 0.3741(11) -0.4266(13) 0.2890(7)
H1_2 H 0.3307 -0.4152 0.2829
C2_2 C 0.4580(11) -0.4988(18) 0.3050(9)
H2_2 H 0.4835 -0.5419 0.3117
C3_2 C 0.4801(10) -0.4155(10) 0.3009(9)
H3_2 H 0.5218 -0.3975 0.3045
C4_2 C 0.4163(10) -0.2962(14) 0.2866(7)
C5_2 C 0.4725(11) -0.2562(13) 0.2703(9)
H4_2 H 0.5088 -0.2827 0.2625
C6_2 C 0.4699(10) -0.1752(14) 0.2669(10)
H5_2 H 0.5057 -0.1496 0.2566
C7_2 C 0.4159(10) -0.1311(13) 0.2782(9)
C8_2 C 0.3626(7) -0.1774(12) 0.2942(8)
H6_2 H 0.3258 -0.1522 0.3024
C9_2 C 0.3633(12) -0.2603(16) 0.2982(8)
H7_2 H 0.3281 -0.2872 0.3085
C10_2 C 0.4156(8) -0.0475(13) 0.2807(6)
C11_2 C 0.4652(13) -0.0108(13) 0.2684(11)
H8_2 H 0.5004 -0.0375 0.2577
C12_2 C 0.4669(13) 0.0681(18) 0.2707(11)
H9_2 H 0.5044 0.0925 0.2635
C13_2 C 0.4192(11) 0.1096(12) 0.2824(10)
C14_2 C 0.3655(10) 0.0695(15) 0.2927(9)
H10_2 H 0.3287 0.0955 0.2997
C15_2 C 0.3661(14) -0.0091(14) 0.2928(8)
H11_2 H 0.3301 -0.0352 0.3018
C16_2 C 0.3755(9) 0.2414(13) 0.2898(8)
H12_2 H 0.3330 0.2260 0.2840
C17_2 C 0.4641(8) 0.3064(9) 0.3047(10)
H13_2 H 0.4941 0.3453 0.3111
C18_2 C 0.4760(13) 0.235(2) 0.3001(10)
H14_2 H 0.5168 0.2141 0.3029
C19A C -0.2287(5) 0.4107(13) -0.1918(6)
H15A H -0.1989 0.4181 -0.2197
C20A C -0.3159(7) 0.394(2) -0.1566(8)
H16A H -0.3591 0.3877 -0.1534
C21A C -0.2692(9) 0.396(2) -0.1090(9)
H17A H -0.2744 0.3903 -0.0666
C22A C -0.1516(6) 0.4001(12) -0.0922(8)
C23A C -0.0975(7) 0.4007(15) -0.1214(8)
H18A H -0.0992 0.3979 -0.1651
C24A C -0.0407(9) 0.4059(15) -0.0828(10)
H19A H -0.0042 0.4063 -0.1028
C25A C -0.0310(6) 0.4104(16) -0.0185(7)
C26A C -0.0877(8) 0.409(2) 0.0052(8)
H20A H -0.0864 0.4123 0.0488
C27A C -0.1473(8) 0.404(2) -0.0302(8)
H21A H -0.1840 0.4037 -0.0103
C28A C -0.2306(6) 0.4147(13) 0.6286(7)
H22A H -0.2028 0.4387 0.6598
C29A C -0.3153(10) 0.3631(14) 0.5776(9)
H23A H -0.3568 0.3451 0.5673
C30A C -0.2681(10) 0.3587(14) 0.5391(13)
H24A H -0.2706 0.3379 0.4987
C31A C -0.1518(6) 0.4182(13) 0.5499(7)
C32A C -0.1472(7) 0.4099(12) 0.4921(6)
H25A H -0.1842 0.4057 0.4636
C33A C -0.0869(6) 0.4066(14) 0.4693(7)
H26A H -0.0839 0.4006 0.4266
C34A C -0.0325(6) 0.4129(17) 0.5135(8)
C35A C -0.0378(7) 0.422(2) 0.5718(8)
H27A H -0.0010 0.4261 0.6006
C36A C -0.0997(8) 0.425(2) 0.5946(9)
H28A H -0.1036 0.4307 0.6372
O9? O 0.4811(12) 0.415(3) 0.1622(12)
O10? O 0.549(2) 0.371(2) 0.0768(19)
C43? C 0.524(2) 0.337(3) 0.152(2)
C44? C 0.481(3) 0.496(5) 0.157(3)
C45? C 0.508(3) 0.317(3) 0.074(3)
C46? C 0.423(4) 0.353(5) 0.057(4)
O13? O 0.4665(8) 0.3975(18) 0.4369(8)
C51? C 0.497(2) 0.339(3) 0.4630(17)
O14? O 0.342(2) 0.196(3) 0.125(2)
O15? O 0.444(2) 0.115(3) 0.062(2)
C52? C 0.407(2) 0.180(3) 0.1205(19)
C53? C 0.437(3) 0.207(4) 0.045(3)
C54? C 0.338(3) 0.100(4) 0.076(3)
C55? C 0.324(3) 0.206(4) 0.047(3)
loop_
_geom_bond_atom_site_label_1
_geom_bond_atom_site_label_2
_geom_bond_site_symmetry_1
_geom_bond_site_symmetry_2
Zn1 N1 1_555 1_555
N1 C1 1_555 1_555
N2 C1 1_555 1_555
N3 C16 1_555 1_555
N4 C13 1_555 1_555
N5 Zn1 1_555 1_555
N6 C19 1_555 1_555
N7 Zn1 1_555 1_555
N8 C28 1_555 1_555
C1 H1 1_555 1_555
C2 N1 1_555 1_555
H2 C2 1_555 1_555
C3 N2 1_555 1_555
H3 C3 1_555 1_555
C4 N2 1_555 1_555
C5 C4 1_555 1_555
H4 C5 1_555 1_555
C6 C5 1_555 1_555
H5 C6 1_555 1_555
C7 C6 1_555 1_555
C8 C7 1_555 1_555
H6 C8 1_555 1_555
C9 C4 1_555 1_555
H7 C9 1_555 1_555
C10 C7 1_555 1_555
C11 C10 1_555 1_555
H8 C11 1_555 1_555
C12 C11 1_555 1_555
H9 C12 1_555 1_555
C13 C12 1_555 1_555
C14 C13 1_555 1_555
H10 C14 1_555 1_555
C15 C10 1_555 1_555
H11 C15 1_555 1_555
C16 N4 1_555 1_555
H12 C16 1_555 1_555
C17 N3 1_555 1_555
H13 C17 1_555 1_555
C18 N4 1_555 1_555
H14 C18 1_555 1_555
C19 N5 1_555 1_555
H15 C19 1_555 1_555
C20 N5 1_555 1_555
H16 C20 1_555 1_555
C21 N6 1_555 1_555
H17 C21 1_555 1_555
C22 N6 1_555 1_555
C23 C22 1_555 1_555
H18 C23 1_555 1_555
C24 C23 1_555 1_555
H19 C24 1_555 1_555
C25 C24 1_555 1_555
C26 C25 1_555 1_555
H20 C26 1_555 1_555
C27 C22 1_555 1_555
H21 C27 1_555 1_555
C28 N7 1_555 1_555
H22 C28 1_555 1_555
C29 N7 1_555 1_555
H23 C29 1_555 1_555
C30 N8 1_555 1_555
H24 C30 1_555 1_555
C31 N8 1_555 1_555
C32 C31 1_555 1_555
H25 C32 1_555 1_555
C33 C32 1_555 1_555
H26 C33 1_555 1_555
C34 C33 1_555 1_555
C35 C34 1_555 1_555
H27 C35 1_555 1_555
C36 C31 1_555 1_555
H28 C36 1_555 1_555
S1 O1 1_555 1_555
O2 S1 1_555 1_555
O3 S1 1_555 1_555
F1 C37 1_555 1_555
F2 C37 1_555 1_555
F3 C37 1_555 1_555
C37 S1 1_555 1_555
S2 O4 1_555 1_555
O5 S2 1_555 1_555
O6 S2 1_555 1_555
F4 C38 1_555 1_555
F5 C38 1_555 1_555
F6 C38 1_555 1_555
C38 S2 1_555 1_555
O7 C39 1_555 1_555
O8 C41 1_555 1_555
C39 C42 1_555 1_555
C40 O7 1_555 1_555
C41 C40 1_555 1_555
C42 O8 1_555 1_555
O11 C47 1_555 1_555
O12 C48 1_555 1_555
C47 C49 1_555 1_555
C48 C50 1_555 1_555
C49 O12 1_555 1_555
C50 O11 1_555 1_555
Zn1_2 N1_2 1_555 1_555
Zn1_3 N3 1_555 1_555
Zn1A N5A 1_555 1_555
Zn1A_2 N7A 1_555 1_555
N1_2 C1_2 1_555 1_555
N2_2 C1_2 1_555 1_555
N3_2 Zn1 1_555 1_555
N3_3 Zn1_2 1_555 1_555
N4_2 C13_2 1_555 1_555
N5A C19A 1_555 1_555
N5_2 Zn1_2 1_555 1_555
N6A C19A 1_555 1_555
N7A C28A 1_555 1_555
N7_2 Zn1_2 1_555 1_555
N8A C28A 1_555 1_555
C1_2 H1_2 1_555 1_555
C2_2 N1_2 1_555 1_555
H2_2 C2_2 1_555 1_555
C3_2 N2_2 1_555 1_555
H3_2 C3_2 1_555 1_555
C4_2 N2_2 1_555 1_555
C5_2 C4_2 1_555 1_555
H4_2 C5_2 1_555 1_555
C6_2 C5_2 1_555 1_555
H5_2 C6_2 1_555 1_555
C7_2 C6_2 1_555 1_555
C8_2 C7_2 1_555 1_555
H6_2 C8_2 1_555 1_555
C9_2 C4_2 1_555 1_555
H7_2 C9_2 1_555 1_555
C10_2 C7_2 1_555 1_555
C11_2 C10_2 1_555 1_555
H8_2 C11_2 1_555 1_555
C12_2 C11_2 1_555 1_555
H9_2 C12_2 1_555 1_555
C13_2 C12_2 1_555 1_555
C14_2 C13_2 1_555 1_555
H10_2 C14_2 1_555 1_555
C15_2 C10_2 1_555 1_555
H11_2 C15_2 1_555 1_555
C16_2 N3_2 1_555 1_555
H12_2 C16_2 1_555 1_555
C17_2 N3_2 1_555 1_555
H13_2 C17_2 1_555 1_555
C18_2 N4_2 1_555 1_555
H14_2 C18_2 1_555 1_555
C19A H15A 1_555 1_555
C20A N5A 1_555 1_555
H16A C20A 1_555 1_555
C21A N6A 1_555 1_555
H17A C21A 1_555 1_555
C22A N6A 1_555 1_555
C23A C22A 1_555 1_555
H18A C23A 1_555 1_555
C24A C23A 1_555 1_555
H19A C24A 1_555 1_555
C25A C25 1_555 1_555
C26A C25A 1_555 1_555
H20A C26A 1_555 1_555
C27A C22A 1_555 1_555
H21A C27A 1_555 1_555
C28A H22A 1_555 1_555
C29A N7A 1_555 1_555
H23A C29A 1_555 1_555
C30A N8A 1_555 1_555
H24A C30A 1_555 1_555
C31A N8A 1_555 1_555
C32A C31A 1_555 1_555
H25A C32A 1_555 1_555
C33A C32A 1_555 1_555
H26A C33A 1_555 1_555
C34A C34 1_555 1_555
C35A C34A 1_555 1_555
H27A C35A 1_555 1_555
C36A C31A 1_555 1_555
H28A C36A 1_555 1_555
C2 C3 1_555 1_555
C8 C9 1_555 1_555
C14 C15 1_555 1_555
C17 C18 1_555 1_555
C20 C21 1_555 1_555
C26 C27 1_555 1_555
C29 C30 1_555 1_555
C35 C36 1_555 1_555
N4_2 C16_2 1_555 1_555
C2_2 C3_2 1_555 1_555
C8_2 C9_2 1_555 1_555
C14_2 C15_2 1_555 1_555
C17_2 C18_2 1_555 1_555
C20A C21A 1_555 1_555
C24A C25A 1_555 1_555
C26A C27A 1_555 1_555
C29A C30A 1_555 1_555
C33A C34A 1_555 1_555
C35A C36A 1_555 1_555

#END
