
#######################################################################
#
#                 Cambridge Crystallographic Data Centre
#                                CCDC 
#
#######################################################################
#
# If this CIF has been generated from an entry in the Cambridge 
# Structural Database, then it will include bibliographic, chemical, 
# crystal, experimental, refinement or atomic coordinate data resulting 
# from the CCDC's data processing and validation procedures.
#
#######################################################################

data_XOXGIB
_symmetry_cell_setting           monoclinic
_symmetry_space_group_name_H-M   'C 2/c'
_symmetry_Int_Tables_number      15
_space_group_name_Hall           '-C 2yn'
loop_
_symmetry_equiv_pos_site_id
_symmetry_equiv_pos_as_xyz
1 x,y,z
2 -x,y,1/2-z
3 1/2+x,1/2+y,z
4 1/2-x,1/2+y,1/2-z
5 -x,-y,-z
6 x,-y,1/2+z
7 1/2-x,1/2-y,-z
8 1/2+x,1/2-y,1/2+z
_cell_length_a                   31.638(3)
_cell_length_b                   8.5009(8)
_cell_length_c                   20.568(2)
_cell_angle_alpha                90
_cell_angle_beta                 108.2260(10)
_cell_angle_gamma                90
_cell_volume                     5254.27
loop_
_atom_site_label
_atom_site_type_symbol
_atom_site_fract_x
_atom_site_fract_y
_atom_site_fract_z
Cd1 Cd 0.294254(7) 0.27945(3) 0.102241(11)
N1 N 0.32421(10) 0.4805(4) 0.05226(15)
N2 N 0.28683(11) 0.0299(4) 0.14593(14)
O1 O 0.37273(10) 0.2368(3) 0.17722(14)
O2 O 0.32576(8) 0.3837(3) 0.21030(12)
O3 O 0.28930(7) 0.1372(3) 0.00442(12)
O4 O 0.27312(8) 0.1575(4) -0.10696(13)
C1 C 0.36352(12) 0.3234(4) 0.22035(17)
C2 C 0.39911(12) 0.3602(4) 0.28639(17)
C3 C 0.44158(15) 0.2991(5) 0.3000(2)
H1 H 0.4483 0.2356 0.2678
C4 C 0.39059(13) 0.4597(5) 0.33396(18)
H2 H 0.3626 0.5049 0.3249
C5 C 0.47401(15) 0.3323(6) 0.3614(2)
H3 H 0.5023 0.2893 0.3702
C6 C 0.42338(14) 0.4927(6) 0.3950(2)
H4 H 0.4171 0.5597 0.4265
C7 C 0.46521(14) 0.4279(5) 0.4098(2)
C8 C 0.50071(16) 0.4553(6) 0.4749(2)
H5 H 0.5273 0.4019 0.4807
C9 C 0.30064(10) 0.1401(4) -0.04849(17)
C10 C 0.34845(10) 0.1154(4) -0.04271(17)
C11 C 0.36094(12) 0.0921(5) -0.10116(19)
H6 H 0.3397 0.0983 -0.1442
C12 C 0.38065(10) 0.1078(4) 0.02042(18)
H7 H 0.3727 0.1239 0.0598
C13 C 0.40473(13) 0.0598(6) -0.0954(2)
H8 H 0.4126 0.0444 -0.1348
C14 C 0.42437(11) 0.0768(5) 0.02613(19)
H9 H 0.4456 0.0738 0.0692
C15 C 0.43721(11) 0.0497(5) -0.0320(2)
C16 C 0.48348(12) 0.0142(5) -0.0276(2)
H10 H 0.4899 0.0117 -0.0687
C17 C 0.29849(16) 0.5757(5) 0.0052(2)
H11 H 0.2678 0.5636 -0.0066
C18 C 0.3150(2) 0.6916(6) -0.0271(3)
H12 H 0.2959 0.7549 -0.0603
C19 C 0.3600(2) 0.7111(6) -0.0091(3)
H13 H 0.3720 0.7879 -0.0304
C20 C 0.38710(17) 0.6187(6) 0.0397(3)
H14 H 0.4178 0.6318 0.0531
C21 C 0.36789(14) 0.5032(5) 0.0694(2)
H15 H 0.3865 0.4390 0.1029
C22 C 0.25602(15) -0.0009(5) 0.1757(2)
H16 H 0.2360 0.0781 0.1773
C23 C 0.25234(19) -0.1444(6) 0.2044(2)
H17 H 0.2304 -0.1612 0.2250
C24 C 0.2813(2) -0.2617(6) 0.2021(3)
H18 H 0.2790 -0.3606 0.2200
C25 C 0.3134(2) -0.2312(5) 0.1731(3)
H19 H 0.3342 -0.3077 0.1722
C26 C 0.31470(16) -0.0860(5) 0.1452(2)
H20 H 0.3364 -0.0675 0.1244
Cd1D Cd 0.705746(7) 0.72055(3) 0.897759(11)
Cd1F Cd 0.205746(7) 0.22055(3) -0.102241(11)
Cd1D_2 Cd 0.705746(7) -0.27945(3) -0.102241(11)
Cd1B Cd 0.794254(7) -0.22055(3) 0.102241(11)
N1D N 0.67579(10) 0.5195(4) 0.94774(15)
N2D N 0.71317(11) 0.9701(4) 0.85407(14)
O1D O 0.62727(10) 0.7632(3) 0.82278(14)
O2D O 0.67424(8) 0.6163(3) 0.78970(12)
O3D O 0.71070(7) -0.1372(3) -0.00442(12)
O3D_2 O 0.71070(7) 0.8628(3) 0.99558(12)
O4D O 0.72688(8) -0.1575(4) 0.10696(13)
O4F O 0.22688(8) 0.3425(4) 0.10696(13)
O4B O 0.77312(8) 0.6575(4) 0.89304(13)
C1D C 0.63648(12) 0.6766(4) 0.77965(17)
C2D C 0.60089(12) 0.6398(4) 0.71361(17)
C3D C 0.55842(15) 0.7009(5) 0.7000(2)
H1D H 0.5517 0.7644 0.7322
C4D C 0.60941(13) 0.5403(5) 0.66604(18)
H2D H 0.6374 0.4951 0.6751
C5D C 0.52599(15) 0.6677(6) 0.6386(2)
H3D H 0.4977 0.7107 0.6298
C6D C 0.57662(14) 0.5073(6) 0.6050(2)
H4D H 0.5829 0.4403 0.5735
C7D C 0.53479(14) 0.5721(5) 0.5902(2)
C8D C 0.49929(16) 0.5447(6) 0.5251(2)
H5D H 0.4727 0.5981 0.5193
C9D C 0.69936(10) -0.1401(4) 0.04849(17)
C10D C 0.65155(10) -0.1154(4) 0.04271(17)
C11D C 0.63906(12) -0.0921(5) 0.10116(19)
H6D H 0.6603 -0.0983 0.1442
C12D C 0.61935(10) -0.1078(4) -0.02042(18)
H7D H 0.6273 -0.1239 -0.0598
C13D C 0.59527(13) -0.0598(6) 0.0954(2)
H8D H 0.5874 -0.0444 0.1348
C14D C 0.57563(11) -0.0768(5) -0.02613(19)
H9D H 0.5544 -0.0738 -0.0692
C15D C 0.56279(11) -0.0497(5) 0.0320(2)
C16D C 0.51652(12) -0.0142(5) 0.0276(2)
H10D H 0.5101 -0.0117 0.0687
C17D C 0.70151(16) 0.4243(5) 0.9948(2)
H11D H 0.7322 0.4364 1.0066
C18D C 0.6850(2) 0.3084(6) 1.0271(3)
H12D H 0.7041 0.2451 1.0603
C19D C 0.6400(2) 0.2889(6) 1.0091(3)
H13D H 0.6280 0.2121 1.0304
C20D C 0.61290(17) 0.3813(6) 0.9603(3)
H14D H 0.5822 0.3682 0.9469
C21D C 0.63211(14) 0.4968(5) 0.9306(2)
H15D H 0.6135 0.5610 0.8971
C22D C 0.74398(15) 1.0009(5) 0.8243(2)
H16D H 0.7640 0.9219 0.8227
C23D C 0.74766(19) 1.1444(6) 0.7956(2)
H17D H 0.7696 1.1612 0.7750
C24D C 0.7187(2) 1.2617(6) 0.7979(3)
H18D H 0.7210 1.3606 0.7800
C25D C 0.6866(2) 1.2312(5) 0.8269(3)
H19D H 0.6658 1.3077 0.8278
C26D C 0.68530(16) 1.0860(5) 0.8548(2)
H20D H 0.6636 1.0675 0.8756
C27 C 0.5000 0.976(2) 0.2500
H21 H 0.5000 1.0850 0.2500
N3 N 0.5000 0.6648(16) 0.2500
C28 C 0.4990(8) 0.736(2) 0.3073(6)
H22 H 0.4967 0.6783 0.3446
C29 C 0.5015(8) 0.9009(19) 0.3089(6)
H23 H 0.5040 0.9568 0.3488
C28A C 0.5010(8) 0.736(2) 0.1927(6)
H22A H 0.5033 0.6783 0.1554
C29A C 0.4985(8) 0.9009(19) 0.1911(6)
H23A H 0.4960 0.9568 0.1512
C30? C 0.4597(3) 0.7417(16) 0.2388(8)
C31? C 0.4583(3) 0.8992(16) 0.2331(7)
H24? H 0.4339 0.6849 0.2354
H25? H 0.4316 0.9544 0.2189
loop_
_geom_bond_atom_site_label_1
_geom_bond_atom_site_label_2
_geom_bond_site_symmetry_1
_geom_bond_site_symmetry_2
Cd1 N1 1_555 1_555
N1 C17 1_555 1_555
N2 Cd1 1_555 1_555
O1 Cd1 1_555 1_555
O2 Cd1 1_555 1_555
O3 Cd1 1_555 1_555
O4 C9 1_555 1_555
C1 O1 1_555 1_555
C2 C1 1_555 1_555
C3 C2 1_555 1_555
H1 C3 1_555 1_555
C4 C2 1_555 1_555
H2 C4 1_555 1_555
C5 C3 1_555 1_555
H3 C5 1_555 1_555
C6 C4 1_555 1_555
H4 C6 1_555 1_555
C7 C5 1_555 1_555
C8 C7 1_555 1_555
H5 C8 1_555 1_555
C9 O3 1_555 1_555
C10 C9 1_555 1_555
C11 C10 1_555 1_555
H6 C11 1_555 1_555
C12 C10 1_555 1_555
H7 C12 1_555 1_555
C13 C11 1_555 1_555
H8 C13 1_555 1_555
C14 C12 1_555 1_555
H9 C14 1_555 1_555
C15 C13 1_555 1_555
C16 C15 1_555 1_555
H10 C16 1_555 1_555
C17 H11 1_555 1_555
C18 C17 1_555 1_555
H12 C18 1_555 1_555
C19 C18 1_555 1_555
H13 C19 1_555 1_555
C20 C19 1_555 1_555
H14 C20 1_555 1_555
C21 N1 1_555 1_555
H15 C21 1_555 1_555
C22 N2 1_555 1_555
H16 C22 1_555 1_555
C23 C22 1_555 1_555
H17 C23 1_555 1_555
C24 C23 1_555 1_555
H18 C24 1_555 1_555
C25 C24 1_555 1_555
H19 C25 1_555 1_555
C26 N2 1_555 1_555
H20 C26 1_555 1_555
C27 H21 1_555 1_555
N3 C28 1_555 1_555
C28 H22 1_555 1_555
C29 C27 1_555 1_555
H23 C29 1_555 1_555
Cd1D N1D 1_555 1_555
Cd1F O4 1_555 1_555
Cd1D_2 O3D 1_555 1_555
Cd1B O4D 1_555 1_555
N1D C17D 1_555 1_555
N2D Cd1D 1_555 1_555
O1D Cd1D 1_555 1_555
O2D Cd1D 1_555 1_555
O3D C9D 1_555 1_555
O3D_2 Cd1D 1_555 1_555
O4D C9D 1_555 1_555
O4F Cd1 1_555 1_555
O4B Cd1D 1_555 1_555
C1D O1D 1_555 1_555
C2D C1D 1_555 1_555
C3D C2D 1_555 1_555
H1D C3D 1_555 1_555
C4D C2D 1_555 1_555
H2D C4D 1_555 1_555
C5D C3D 1_555 1_555
H3D C5D 1_555 1_555
C6D C4D 1_555 1_555
H4D C6D 1_555 1_555
C7D C5D 1_555 1_555
C8D C8 1_555 1_555
H5D C8D 1_555 1_555
C9D C10D 1_555 1_555
C10D C11D 1_555 1_555
C11D H6D 1_555 1_555
C12D C10D 1_555 1_555
H7D C12D 1_555 1_555
C13D C11D 1_555 1_555
H8D C13D 1_555 1_555
C14D C12D 1_555 1_555
H9D C14D 1_555 1_555
C15D C13D 1_555 1_555
C16D C16 1_555 1_555
H10D C16D 1_555 1_555
C17D H11D 1_555 1_555
C18D C17D 1_555 1_555
H12D C18D 1_555 1_555
C19D C18D 1_555 1_555
H13D C19D 1_555 1_555
C20D C19D 1_555 1_555
H14D C20D 1_555 1_555
C21D N1D 1_555 1_555
H15D C21D 1_555 1_555
C22D N2D 1_555 1_555
H16D C22D 1_555 1_555
C23D C22D 1_555 1_555
H17D C23D 1_555 1_555
C24D C23D 1_555 1_555
H18D C24D 1_555 1_555
C25D C24D 1_555 1_555
H19D C25D 1_555 1_555
C26D N2D 1_555 1_555
H20D C26D 1_555 1_555
C28A N3 1_555 1_555
H22A C28A 1_555 1_555
C29A C27 1_555 1_555
H23A C29A 1_555 1_555
O2 C1 1_555 1_555
C6 C7 1_555 1_555
C14 C15 1_555 1_555
C20 C21 1_555 1_555
C25 C26 1_555 1_555
C28 C29 1_555 1_555
O2D C1D 1_555 1_555
C6D C7D 1_555 1_555
C7D C8D 1_555 1_555
C14D C15D 1_555 1_555
C15D C16D 1_555 1_555
C20D C21D 1_555 1_555
C25D C26D 1_555 1_555
C28A C29A 1_555 1_555

#END
