
#######################################################################
#
#                 Cambridge Crystallographic Data Centre
#                                CCDC 
#
#######################################################################
#
# If this CIF has been generated from an entry in the Cambridge 
# Structural Database, then it will include bibliographic, chemical, 
# crystal, experimental, refinement or atomic coordinate data resulting 
# from the CCDC's data processing and validation procedures.
#
#######################################################################

data_XOXHOH
_symmetry_cell_setting           monoclinic
_symmetry_space_group_name_H-M   'P 21'
_symmetry_Int_Tables_number      4
_space_group_name_Hall           'P 2yb'
loop_
_symmetry_equiv_pos_site_id
_symmetry_equiv_pos_as_xyz
1 x,y,z
2 -x,1/2+y,-z
_cell_length_a                   11.543(5)
_cell_length_b                   8.614(3)
_cell_length_c                   12.662(5)
_cell_angle_alpha                90
_cell_angle_beta                 107.95(2)
_cell_angle_gamma                90
_cell_volume                     1197.72
loop_
_atom_site_label
_atom_site_type_symbol
_atom_site_fract_x
_atom_site_fract_y
_atom_site_fract_z
C1 C 1.0256(4) 0.2338(10) -0.3836(4)
C2 C 1.1119(3) 0.2517(11) -0.2661(4)
C3 C 1.1429(4) 0.4208(6) -0.2382(4)
C4 C 1.0270(4) 0.5167(6) -0.2602(4)
C5 C 0.9342(4) 0.4927(6) -0.3765(3)
C6 C 0.8192(4) 0.5903(6) -0.3909(4)
C7 C 0.7353(4) 0.5270(6) -0.3282(4)
C8 C 0.7103(4) 0.3537(6) -0.3469(3)
C9 C 0.8284(3) 0.2600(20) -0.3305(3)
C10 C 0.9039(4) 0.3208(6) -0.4046(4)
C11 C 0.8037(4) 0.0847(6) -0.3407(4)
C12 C 0.7320(4) 0.0259(5) -0.2644(4)
C13 C 0.6120(4) 0.1150(5) -0.2842(4)
C14 C 0.6417(3) 0.2895(5) -0.2712(3)
C15 C 0.5228(5) 0.3667(7) -0.2728(5)
C16 C 0.4618(4) 0.2472(11) -0.2187(4)
C17 C 0.5408(4) 0.0972(6) -0.1968(4)
C18 C 0.5284(5) 0.0726(10) -0.4007(5)
C19 C 0.8365(5) 0.3016(8) -0.5290(4)
C20 C 0.4679(5) -0.0497(6) -0.1966(5)
C21 C 0.5440(14) -0.1963(13) -0.1792(14)
C22 C 0.3992(4) -0.0379(6) -0.1099(4)
C23 C 0.3003(7) -0.1579(8) -0.1253(6)
C24 C 0.2335(5) -0.1604(7) -0.0399(4)
O1 O 1.2142(4) 0.4290(5) -0.1241(3)
O2 O 0.7903(3) 0.5676(5) -0.2140(3)
O3 O 0.8131(3) 0.0330(4) -0.1519(3)
O4 O 0.1952(3) -0.2922(4) -0.0235(3)
O5 O 0.2156(4) -0.0401(5) 0.0046(4)
Cs1 Cs 1.0687(1) 0.2500 0.0189(1)
H1 H 1.0089 0.1254 -0.3985
H2 H 1.0655 0.2712 -0.4349
H3 H 1.1854 0.1947 -0.2591
H4 H 1.0747 0.2091 -0.2144
H5 H 1.1899 0.4593 -0.2833
H6 H 1.0488 0.6246 -0.2514
H7 H 0.9884 0.4910 -0.2053
H8 H 0.9717 0.5310 -0.4293
H9 H 0.7744 0.5958 -0.4685
H10 H 0.8430 0.6940 -0.3657
H11 H 0.6589 0.5807 -0.3546
H12 H 0.6599 0.3395 -0.4223
H13 H 0.8775 0.2777 -0.2551
H14 H 0.8800 0.0306 -0.3229
H15 H 0.7587 0.0607 -0.4163
H16 H 0.7123 -0.0812 -0.2820
H17 H 0.6954 0.3022 -0.1969
H18 H 0.4734 0.3885 -0.3475
H19 H 0.5376 0.4617 -0.2312
H20 H 0.3814 0.2245 -0.2668
H21 H 0.4551 0.2871 -0.1500
H22 H 0.5992 0.1070 -0.1244
H23 H 0.5724 0.0837 -0.4534
H24 H 0.5015 -0.0329 -0.4008
H25 H 0.4591 0.1405 -0.4206
H26 H 0.8864 0.3406 -0.5713
H27 H 0.8195 0.1937 -0.5456
H28 H 0.7614 0.3586 -0.5479
H29 H 0.4078 -0.0576 -0.2683
H30 H 0.5860 -0.2016 -0.2338
H31 H 0.6023 -0.1950 -0.1063
H32 H 0.4920 -0.2852 -0.1864
H33 H 0.3636 0.0636 -0.1142
H34 H 0.4565 -0.0494 -0.0371
H35 H 0.3359 -0.2584 -0.1262
H36 H 0.2416 -0.1420 -0.1969
H37 H 1.2045 0.5173 -0.0980
H38 H 0.7463 0.5344 -0.1760
H39 H 0.7867 0.0995 -0.1153
Cs1A Cs 0.9313(1) 0.7500 -0.0189(1)
Cs1A_2 Cs 0.9313(1) -0.2500 -0.0189(1)
Cs1A_3 Cs -0.0687(1) -0.2500 -0.0189(1)
Cs1_2 Cs 0.0687(1) 0.2500 0.0189(1)
O2A O 1.2097(3) 0.0676(5) 0.2140(3)
O3A O 1.1869(3) 0.5330(4) 0.1519(3)
O4A O 0.8048(3) 0.2078(4) 0.0235(3)
O5_2 O 1.2156(4) -0.0401(5) 0.0046(4)
O5A O 0.7844(4) 0.4599(5) -0.0046(4)
H38A H 1.2537 0.0344 0.1760
H39A H 1.2133 0.5995 0.1153
loop_
_geom_bond_atom_site_label_1
_geom_bond_atom_site_label_2
_geom_bond_site_symmetry_1
_geom_bond_site_symmetry_2
C1 C2 1_555 1_555
C2 C3 1_555 1_555
C3 C4 1_555 1_555
C4 C5 1_555 1_555
C5 C6 1_555 1_555
C6 C7 1_555 1_555
C7 C8 1_555 1_555
C8 C9 1_555 1_555
C9 C10 1_555 1_555
C10 C1 1_555 1_555
C11 C9 1_555 1_555
C12 C11 1_555 1_555
C13 C12 1_555 1_555
C14 C8 1_555 1_555
C15 C14 1_555 1_555
C16 C15 1_555 1_555
C17 C13 1_555 1_555
C18 C13 1_555 1_555
C19 C10 1_555 1_555
C20 C17 1_555 1_555
C21 C20 1_555 1_555
C22 C20 1_555 1_555
C23 C22 1_555 1_555
C24 C23 1_555 1_555
O1 C3 1_555 1_555
O2 C7 1_555 1_555
O3 C12 1_555 1_555
O4 C24 1_555 1_555
O5 C24 1_555 1_555
Cs1 O1 1_555 1_555
H1 C1 1_555 1_555
H2 C1 1_555 1_555
H3 C2 1_555 1_555
H4 C2 1_555 1_555
H5 C3 1_555 1_555
H6 C4 1_555 1_555
H7 C4 1_555 1_555
H8 C5 1_555 1_555
H9 C6 1_555 1_555
H10 C6 1_555 1_555
H11 C7 1_555 1_555
H12 C8 1_555 1_555
H13 C9 1_555 1_555
H14 C11 1_555 1_555
H15 C11 1_555 1_555
H16 C12 1_555 1_555
H17 C14 1_555 1_555
H18 C15 1_555 1_555
H19 C15 1_555 1_555
H20 C16 1_555 1_555
H21 C16 1_555 1_555
H22 C17 1_555 1_555
H23 C18 1_555 1_555
H24 C18 1_555 1_555
H25 C18 1_555 1_555
H26 C19 1_555 1_555
H27 C19 1_555 1_555
H28 C19 1_555 1_555
H29 C20 1_555 1_555
H30 C21 1_555 1_555
H31 C21 1_555 1_555
H32 C21 1_555 1_555
H33 C22 1_555 1_555
H34 C22 1_555 1_555
H35 C23 1_555 1_555
H36 C23 1_555 1_555
H37 O1 1_555 1_555
H38 O2 1_555 1_555
H39 O3 1_555 1_555
Cs1A O2 1_555 1_555
Cs1A_2 O3 1_555 1_555
Cs1A_3 O4 1_555 1_555
Cs1_2 O5 1_555 1_555
O2A Cs1 1_555 1_555
O3A Cs1 1_555 1_555
O4A Cs1 1_555 1_555
O5_2 Cs1 1_555 1_555
O5A Cs1 1_555 1_555
H38A O2A 1_555 1_555
H39A O3A 1_555 1_555
C5 C10 1_555 1_555
C13 C14 1_555 1_555
C16 C17 1_555 1_555
O3 Cs1 1_555 1_555
O5 Cs1A_3 1_555 1_555
Cs1A O3A 1_555 1_555
Cs1A O5A 1_555 1_555
Cs1A_2 O5_2 1_555 1_555

#END
