
#######################################################################
#
#                 Cambridge Crystallographic Data Centre
#                                CCDC 
#
#######################################################################
#
# If this CIF has been generated from an entry in the Cambridge 
# Structural Database, then it will include bibliographic, chemical, 
# crystal, experimental, refinement or atomic coordinate data resulting 
# from the CCDC's data processing and validation procedures.
#
#######################################################################

data_XOYRUZ
_symmetry_cell_setting           monoclinic
_symmetry_space_group_name_H-M   'C 2/m'
_symmetry_Int_Tables_number      12
_space_group_name_Hall           '-C 2y'
loop_
_symmetry_equiv_pos_site_id
_symmetry_equiv_pos_as_xyz
1 x,y,z
2 -x,y,-z
3 1/2+x,1/2+y,z
4 1/2-x,1/2+y,-z
5 -x,-y,-z
6 x,-y,z
7 1/2-x,1/2-y,-z
8 1/2+x,1/2-y,z
_cell_length_a                   28.987(6)
_cell_length_b                   16.351(3)
_cell_length_c                   11.547(2)
_cell_angle_alpha                90
_cell_angle_beta                 100.29(3)
_cell_angle_gamma                90
_cell_volume                     5384.87
loop_
_atom_site_label
_atom_site_type_symbol
_atom_site_fract_x
_atom_site_fract_y
_atom_site_fract_z
W1 W 0.28236(2) -0.5000 1.11499(5)
S1 S 0.23307(11) -0.3888(2) 1.0921(3)
S2 S 0.31500(15) -0.5000 0.9487(4)
Cu1 Cu 0.19092(7) -0.5000 1.0353(2)
Cu2 Cu 0.25430(6) -0.41329(11) 0.91708(13)
N1 N 0.3395(4) -0.4092(7) 1.1900(8)
N2 N 0.3693(4) -0.4241(7) 1.2939(8)
N3 N 0.2755(5) -0.5000 1.3107(12)
N4 N 0.2531(4) -0.3380(8) 0.7812(9)
N5 N 0.1235(5) -0.5000 1.0262(15)
N6 N 0.3139(5) -0.5000 1.3942(11)
C1 C 0.2548(8) -0.5000 1.4830(18)
H1 H 0.2367 -0.5000 1.5420
C2 C 0.0262(6) -0.5000 1.0041(18)
C3 C 0.2501(6) -0.2674(10) 0.5595(11)
C4 C 0.2130(6) -0.3141(11) 0.7167(13)
H2 H 0.1855 -0.3208 0.7466
C5 C 0.2382(8) -0.5000 1.3655(19)
C6 C 0.3010(8) -0.5000 1.4991(16)
C7 C 0.4012(5) -0.3653(9) 1.3190(11)
C8 C 0.3934(6) -0.3096(10) 1.2334(14)
H3 H 0.4096 -0.2611 1.2279
C9 C 0.2919(6) -0.3230(13) 0.7410(14)
H4 H 0.3206 -0.3365 0.7869
C10 C 0.3334(7) -0.2942(11) 1.0400(16)
H5 H 0.3079 -0.3255 0.9971
H6 H 0.3569 -0.2863 0.9921
H7 H 0.3220 -0.2421 1.0606
C11 C 0.3549(5) -0.3406(10) 1.1530(13)
C12 C 0.1868(8) -0.5000 1.303(2)
H8 H 0.1855 -0.5000 1.2195
H9 H 0.1714 -0.4521 1.3255
C13 C 0.2910(6) -0.2873(13) 0.6317(15)
H10 H 0.3192 -0.2766 0.6069
C14 C 0.0984(6) -0.4326(12) 1.017(3)
H11 H 0.1139 -0.3831 1.0132
C15 C 0.4411(6) -0.3656(13) 1.4236(15)
H12 H 0.4382 -0.4124 1.4719
H13 H 0.4398 -0.3166 1.4688
H14 H 0.4704 -0.3678 1.3963
C16 C 0.0506(5) -0.4308(11) 1.011(2)
H15 H 0.0353 -0.3809 1.0129
C17 C 0.2106(6) -0.2797(13) 0.6068(14)
H16 H 0.1815 -0.2645 0.5641
B1 B 0.3626(7) -0.5000 1.3649(17)
H17 H 0.3857 -0.5000 1.4380
Br1 Br 0.17902(8) -0.5000 0.7950(2)
C18 C 0.3370(9) -0.5000 1.6140(16)
H18 H 0.3209 -0.5000 1.6798
H19 H 0.3563 -0.4521 1.6171
W1A W -0.28236(2) -0.5000 0.88501(5)
S1E S 0.23307(11) -0.6112(2) 1.0921(3)
S1A S -0.23307(11) -0.3888(2) 0.9079(3)
S1D S -0.23307(11) -0.6112(2) 0.9079(3)
S2A S -0.31500(15) -0.5000 1.0513(4)
Cu1A Cu -0.19092(7) -0.5000 0.9647(2)
Cu2E Cu 0.25430(6) -0.58671(11) 0.91708(13)
Cu2F Cu 0.24570(6) -0.08671(11) 0.08292(13)
Cu2C Cu 0.24570(6) -0.91329(11) 0.08292(13)
Cu2A Cu -0.25430(6) -0.41329(11) 1.08292(13)
Cu2D Cu -0.25430(6) -0.58671(11) 1.08292(13)
N1E N 0.3395(4) -0.5908(7) 1.1900(8)
N1A N -0.3395(4) -0.4092(7) 0.8100(8)
N1D N -0.3395(4) -0.5908(7) 0.8100(8)
N2E N 0.3693(4) -0.5759(7) 1.2939(8)
N2A N -0.3693(4) -0.4241(7) 0.7061(8)
N2D N -0.3693(4) -0.5759(7) 0.7061(8)
N3A N -0.2755(5) -0.5000 0.6893(12)
N4F N 0.2469(4) -0.1620(8) 0.2188(9)
N4E N 0.2531(4) -0.6620(8) 0.7812(9)
N4C N 0.2469(4) -0.8380(8) 0.2188(9)
N4A N -0.2531(4) -0.3380(8) 1.2188(9)
N4D N -0.2531(4) -0.6620(8) 1.2188(9)
N5A N -0.1235(5) -0.5000 0.9738(15)
N6A N -0.3139(5) -0.5000 0.6058(11)
C1A C -0.2548(8) -0.5000 0.5170(18)
H1A H -0.2367 -0.5000 0.4580
C2A C -0.0262(6) -0.5000 0.9959(18)
C3F C 0.2499(6) -0.2326(10) 0.4405(11)
C3E C 0.2501(6) -0.7326(10) 0.5595(11)
C3C C 0.2499(6) -0.7674(10) 0.4405(11)
C4F C 0.2870(6) -0.1859(11) 0.2833(13)
C4E C 0.2130(6) -0.6859(11) 0.7167(13)
C4C C 0.2870(6) -0.8141(11) 0.2833(13)
H2F H 0.3145 -0.1792 0.2534
H2E H 0.1855 -0.6792 0.7466
H2C H 0.3145 -0.8208 0.2534
C5A C -0.2382(8) -0.5000 0.6345(19)
C6A C -0.3010(8) -0.5000 0.5009(16)
C7E C 0.4012(5) -0.6347(9) 1.3190(11)
C7A C -0.4012(5) -0.3653(9) 0.6810(11)
C7D C -0.4012(5) -0.6347(9) 0.6810(11)
C8E C 0.3934(6) -0.6904(10) 1.2334(14)
C8A C -0.3934(6) -0.3096(10) 0.7666(14)
C8D C -0.3934(6) -0.6904(10) 0.7666(14)
H3E H 0.4096 -0.7389 1.2279
H3A H -0.4096 -0.2611 0.7721
H3D H -0.4096 -0.7389 0.7721
C9F C 0.2081(6) -0.1770(13) 0.2590(14)
C9E C 0.2919(6) -0.6770(13) 0.7410(14)
C9C C 0.2081(6) -0.8230(13) 0.2590(14)
H4F H 0.1794 -0.1635 0.2131
H4E H 0.3206 -0.6635 0.7869
H4C H 0.1794 -0.8365 0.2131
C10E C 0.3334(7) -0.7058(11) 1.0400(16)
C10A C -0.3334(7) -0.2942(11) 0.9600(16)
C10D C -0.3334(7) -0.7058(11) 0.9600(16)
H5E H 0.3079 -0.6745 0.9971
H5A H -0.3079 -0.3255 1.0029
H5D H -0.3079 -0.6745 1.0029
H6E H 0.3569 -0.7137 0.9921
H6A H -0.3569 -0.2863 1.0079
H6D H -0.3569 -0.7137 1.0079
H7E H 0.3220 -0.7579 1.0606
H7A H -0.3220 -0.2421 0.9394
H7D H -0.3220 -0.7579 0.9394
C11E C 0.3549(5) -0.6594(10) 1.1530(13)
C11A C -0.3549(5) -0.3406(10) 0.8470(13)
C11D C -0.3549(5) -0.6594(10) 0.8470(13)
C12A C -0.1868(8) -0.5000 0.697(2)
H8A H -0.1855 -0.5000 0.7805
H9E H 0.1714 -0.5479 1.3255
H9A H -0.1714 -0.4521 0.6745
H9D H -0.1714 -0.5479 0.6745
C13F C 0.2090(6) -0.2127(13) 0.3683(15)
C13E C 0.2910(6) -0.7127(13) 0.6317(15)
C13C C 0.2090(6) -0.7873(13) 0.3683(15)
H10F H 0.1808 -0.2234 0.3931
H10E H 0.3192 -0.7234 0.6069
H10C H 0.1808 -0.7766 0.3931
C14A C -0.0984(6) -0.4326(12) 0.983(3)
C14D C -0.0984(6) -0.5674(12) 0.983(3)
C14E C 0.0984(6) -0.5674(12) 1.017(3)
H11D H -0.1139 -0.6169 0.9868
H11A H -0.1139 -0.3831 0.9868
H11E H 0.1139 -0.6169 1.0132
C15E C 0.4411(6) -0.6344(13) 1.4236(15)
C15A C -0.4411(6) -0.3656(13) 0.5764(15)
C15D C -0.4411(6) -0.6344(13) 0.5764(15)
H12E H 0.4382 -0.5876 1.4719
H12A H -0.4382 -0.4124 0.5281
H12D H -0.4382 -0.5876 0.5281
H13E H 0.4398 -0.6834 1.4688
H13A H -0.4398 -0.3166 0.5312
H13D H -0.4398 -0.6834 0.5312
H14E H 0.4704 -0.6322 1.3963
H14A H -0.4704 -0.3678 0.6037
H14D H -0.4704 -0.6322 0.6037
C16A C -0.0506(5) -0.4308(11) 0.989(2)
C16D C -0.0506(5) -0.5692(11) 0.989(2)
C16E C 0.0506(5) -0.5692(11) 1.011(2)
H15D H -0.0353 -0.6191 0.9871
H15A H -0.0353 -0.3809 0.9871
H15E H 0.0353 -0.6191 1.0129
C17F C 0.2894(6) -0.2203(13) 0.3932(14)
C17E C 0.2106(6) -0.7203(13) 0.6068(14)
C17C C 0.2894(6) -0.7797(13) 0.3932(14)
H16F H 0.3185 -0.2355 0.4359
H16E H 0.1815 -0.7355 0.5641
H16C H 0.3185 -0.7645 0.4359
B1A B -0.3626(7) -0.5000 0.6351(17)
H17A H -0.3857 -0.5000 0.5620
Br1A Br -0.17902(8) -0.5000 1.2050(2)
C18A C -0.3370(9) -0.5000 0.3860(16)
H18A H -0.3209 -0.5000 0.3202
H19E H 0.3563 -0.5479 1.6171
H19A H -0.3563 -0.4521 0.3829
H19D H -0.3563 -0.5479 0.3829
P1 P 0.0695(3) -0.2622(7) 1.2602(8)
F1 F 0.1116(7) -0.2878(14) 1.2101(18)
F2 F 0.0425(11) -0.2514(14) 1.137(2)
F3 F 0.0312(7) -0.243(2) 1.320(3)
F4 F 0.0888(9) -0.1787(15) 1.272(2)
F5 F 0.0979(8) -0.279(2) 1.3773(19)
F6 F 0.0537(9) -0.3512(15) 1.2517(19)
O1 O 0.0000 -0.5000 1.5000
O2 O 0.0000 0.0000 1.0000
loop_
_geom_bond_atom_site_label_1
_geom_bond_atom_site_label_2
_geom_bond_site_symmetry_1
_geom_bond_site_symmetry_2
W1 S1 1_555 1_555
S1 Cu1 1_555 1_555
S2 W1 1_555 1_555
Cu1 N5 1_555 1_555
Cu2 S1 1_555 1_555
N1 W1 1_555 1_555
N2 N1 1_555 1_555
N3 W1 1_555 1_555
N4 Cu2 1_555 1_555
N5 C14 1_555 1_555
N6 N3 1_555 1_555
C1 H1 1_555 1_555
C2 C16 1_555 1_555
C3 C13 1_555 1_555
C4 N4 1_555 1_555
H2 C4 1_555 1_555
C5 N3 1_555 1_555
C6 N6 1_555 1_555
C7 N2 1_555 1_555
C8 C7 1_555 1_555
H3 C8 1_555 1_555
C9 N4 1_555 1_555
H4 C9 1_555 1_555
C10 H5 1_555 1_555
H6 C10 1_555 1_555
H7 C10 1_555 1_555
C11 N1 1_555 1_555
C12 C5 1_555 1_555
H8 C12 1_555 1_555
H9 C12 1_555 1_555
C13 C9 1_555 1_555
H10 C13 1_555 1_555
C14 H11 1_555 1_555
C15 C7 1_555 1_555
H12 C15 1_555 1_555
H13 C15 1_555 1_555
H14 C15 1_555 1_555
C16 C14 1_555 1_555
H15 C16 1_555 1_555
C17 C3 1_555 1_555
H16 C17 1_555 1_555
P1 F1 1_555 1_555
B1 N2 1_555 1_555
H17 B1 1_555 1_555
F2 P1 1_555 1_555
F3 P1 1_555 1_555
F4 P1 1_555 1_555
F5 P1 1_555 1_555
Br1 Cu1 1_555 1_555
C18 C6 1_555 1_555
H18 C18 1_555 1_555
H19 C18 1_555 1_555
F6 P1 1_555 1_555
W1A S1A 1_555 1_555
S1E W1 1_555 1_555
S1A Cu1A 1_555 1_555
S1D W1A 1_555 1_555
S2A W1A 1_555 1_555
Cu1A S1D 1_555 1_555
Cu2E S2 1_555 1_555
Cu2F N4F 1_555 1_555
Cu2C N4C 1_555 1_555
Cu2A S1A 1_555 1_555
Cu2D S1D 1_555 1_555
N1E W1 1_555 1_555
N1A W1A 1_555 1_555
N1D W1A 1_555 1_555
N2E B1 1_555 1_555
N2A N1A 1_555 1_555
N2D N1D 1_555 1_555
N3A W1A 1_555 1_555
N4F C4F 1_555 1_555
N4E Cu2E 1_555 1_555
N4C C4C 1_555 1_555
N4A Cu2A 1_555 1_555
N4D Cu2D 1_555 1_555
N5A Cu1A 1_555 1_555
N6A N3A 1_555 1_555
C1A H1A 1_555 1_555
C2A C2 1_555 1_555
C3F C3 1_555 1_555
C3E C3C 1_555 1_555
C3C C13C 1_555 1_555
C4F H2F 1_555 1_555
C4E N4E 1_555 1_555
C4C H2C 1_555 1_555
H2E C4E 1_555 1_555
C5A N3A 1_555 1_555
C6A N6A 1_555 1_555
C7E N2E 1_555 1_555
C7A N2A 1_555 1_555
C7D N2D 1_555 1_555
C8E C7E 1_555 1_555
C8A C7A 1_555 1_555
C8D C7D 1_555 1_555
H3E C8E 1_555 1_555
H3A C8A 1_555 1_555
H3D C8D 1_555 1_555
C9F N4F 1_555 1_555
C9E N4E 1_555 1_555
C9C N4C 1_555 1_555
H4F C9F 1_555 1_555
H4E C9E 1_555 1_555
H4C C9C 1_555 1_555
C10E H5E 1_555 1_555
C10A H5A 1_555 1_555
C10D H5D 1_555 1_555
H6E C10E 1_555 1_555
H6A C10A 1_555 1_555
H6D C10D 1_555 1_555
H7E C10E 1_555 1_555
H7A C10A 1_555 1_555
H7D C10D 1_555 1_555
C11E N1E 1_555 1_555
C11A N1A 1_555 1_555
C11D N1D 1_555 1_555
C12A C5A 1_555 1_555
H8A C12A 1_555 1_555
H9E C12 1_555 1_555
H9A C12A 1_555 1_555
H9D C12A 1_555 1_555
C13F C3F 1_555 1_555
C13E C3E 1_555 1_555
C13C C9C 1_555 1_555
H10F C13F 1_555 1_555
H10E C13E 1_555 1_555
H10C C13C 1_555 1_555
C14A N5A 1_555 1_555
C14D N5A 1_555 1_555
C14E N5 1_555 1_555
H11D C14D 1_555 1_555
H11A C14A 1_555 1_555
H11E C14E 1_555 1_555
C15E C7E 1_555 1_555
C15A C7A 1_555 1_555
C15D C7D 1_555 1_555
H12E C15E 1_555 1_555
H12A C15A 1_555 1_555
H12D C15D 1_555 1_555
H13E C15E 1_555 1_555
H13A C15A 1_555 1_555
H13D C15D 1_555 1_555
H14E C15E 1_555 1_555
H14A C15A 1_555 1_555
H14D C15D 1_555 1_555
C16A C2A 1_555 1_555
C16D C2A 1_555 1_555
C16E C2 1_555 1_555
H15D C16D 1_555 1_555
H15A C16A 1_555 1_555
H15E C16E 1_555 1_555
C17F C3F 1_555 1_555
C17E C3E 1_555 1_555
C17C C3C 1_555 1_555
H16F C17F 1_555 1_555
H16E C17E 1_555 1_555
H16C C17C 1_555 1_555
B1A N2A 1_555 1_555
H17A B1A 1_555 1_555
Br1A Cu1A 1_555 1_555
C18A C6A 1_555 1_555
H18A C18A 1_555 1_555
H19E C18 1_555 1_555
H19A C18A 1_555 1_555
H19D C18A 1_555 1_555
S2 Cu2 1_555 1_555
Cu1 S1E 1_555 1_555
Cu2 Br1 1_555 1_555
N6 B1 1_555 1_555
C1 C5 1_555 1_555
C1 C6 1_555 1_555
C4 C17 1_555 1_555
C8 C11 1_555 1_555
C10 C11 1_555 1_555
Br1 Cu2E 1_555 1_555
S1E Cu2E 1_555 1_555
S2A Cu2A 1_555 1_555
S2A Cu2D 1_555 1_555
Cu2A Br1A 1_555 1_555
Cu2D Br1A 1_555 1_555
N1E N2E 1_555 1_555
N2D B1A 1_555 1_555
N6A B1A 1_555 1_555
C1A C5A 1_555 1_555
C1A C6A 1_555 1_555
C4F C17F 1_555 1_555
C4E C17E 1_555 1_555
C4C C17C 1_555 1_555
C8E C11E 1_555 1_555
C8A C11A 1_555 1_555
C8D C11D 1_555 1_555
C9F C13F 1_555 1_555
C9E C13E 1_555 1_555
C10E C11E 1_555 1_555
C10A C11A 1_555 1_555
C10D C11D 1_555 1_555
C14A C16A 1_555 1_555
C14D C16D 1_555 1_555
C14E C16E 1_555 1_555

#END
