
#######################################################################
#
#                 Cambridge Crystallographic Data Centre
#                                CCDC 
#
#######################################################################
#
# If this CIF has been generated from an entry in the Cambridge 
# Structural Database, then it will include bibliographic, chemical, 
# crystal, experimental, refinement or atomic coordinate data resulting 
# from the CCDC's data processing and validation procedures.
#
#######################################################################

data_XOYSUB
_symmetry_cell_setting           monoclinic
_symmetry_space_group_name_H-M   'C 2/c'
_symmetry_Int_Tables_number      15
_space_group_name_Hall           '-C 2yn'
loop_
_symmetry_equiv_pos_site_id
_symmetry_equiv_pos_as_xyz
1 x,y,z
2 -x,y,1/2-z
3 1/2+x,1/2+y,z
4 1/2-x,1/2+y,1/2-z
5 -x,-y,-z
6 x,-y,1/2+z
7 1/2-x,1/2-y,-z
8 1/2+x,1/2-y,1/2+z
_cell_length_a                   21.456(4)
_cell_length_b                   8.1045(15)
_cell_length_c                   15.222(3)
_cell_angle_alpha                90
_cell_angle_beta                 127.130(2)
_cell_angle_gamma                90
_cell_volume                     2110.33
loop_
_atom_site_label
_atom_site_type_symbol
_atom_site_fract_x
_atom_site_fract_y
_atom_site_fract_z
Cu1 Cu 1.0000 0.81861(13) 0.2500
I1 I 1.10133(2) 0.68199(5) 0.43279(3)
Cu2 Cu 0.94181(5) 0.53019(10) 0.28375(8)
C1 C 0.7753(4) 0.8063(8) 0.2686(6)
H1 H 0.7289 0.8658 0.2332
N1 N 0.9800(3) 0.3222(5) 0.2723(4)
N2 N 0.8271(3) 0.7748(7) 0.3800(4)
N3 N 1.0000 0.0629(8) 0.2500
N4 N 0.8745(3) 0.6560(6) 0.3004(4)
C2 C 0.8050(4) 0.7336(9) 0.2205(5)
H2 H 0.7821 0.7359 0.1456
C3 C 0.9694(3) 0.1646(7) 0.2864(5)
C4 C 0.8848(4) 0.6837(7) 0.3936(6)
H3 H 0.9275 0.6446 0.4616
C5 C 0.7517(4) 0.7348(9) 0.4519(6)
H4 H 0.7552 0.6171 0.4442
H5 H 0.7036 0.7743 0.3845
C6 C 0.9332(4) 0.1074(9) 0.3386(6)
H6 H 0.9711 0.0471 0.4045
H7 H 0.8896 0.0370 0.2883
H8 H 0.9155 0.2009 0.3567
C7 C 0.8196(4) 0.8191(9) 0.4672(7)
H9 H 0.8132 0.9376 0.4669
H10 H 0.8672 0.7887 0.5383
C1F C 0.7247(4) 0.6937(8) 0.7314(6)
H1F H 0.7711 0.6342 0.7668
N2F N 0.6729(3) 0.7252(7) 0.6200(4)
N4F N 0.6255(3) 0.8440(6) 0.6996(4)
C2F C 0.6950(4) 0.7664(9) 0.7795(5)
H2F H 0.7179 0.7641 0.8544
C4F C 0.6152(4) 0.8163(7) 0.6064(6)
H3F H 0.5725 0.8554 0.5384
C5F C 0.7483(4) 0.7652(9) 0.5481(6)
H4F H 0.7448 0.8829 0.5558
H5F H 0.7964 0.7257 0.6155
C7F C 0.6804(4) 0.6809(9) 0.5328(7)
H9F H 0.6868 0.5624 0.5331
H10F H 0.6328 0.7113 0.4617
N1A N 1.0200(3) 0.3222(5) 0.2277(4)
C3A C 1.0306(3) 0.1646(7) 0.2136(5)
C6A C 1.0668(4) 0.1074(9) 0.1614(6)
H6A H 1.0289 0.0471 0.0955
H7A H 1.1104 0.0370 0.2117
H8A H 1.0845 0.2009 0.1433
I1A I 0.89867(2) 0.68199(5) 0.06721(3)
Cu2A Cu 1.05819(5) 0.53019(10) 0.21625(8)
Cu1_2 Cu 1.0000 -0.18139(13) 0.2500
Cu2F Cu 0.55819(5) 0.96981(10) 0.71625(8)
N3_2 N 1.0000 1.0629(8) 0.2500
N4A N 1.1255(3) 0.6560(6) 0.1996(4)
loop_
_geom_bond_atom_site_label_1
_geom_bond_atom_site_label_2
_geom_bond_site_symmetry_1
_geom_bond_site_symmetry_2
Cu1 I1 1_555 1_555
I1 Cu2 1_555 1_555
Cu2 N1 1_555 1_555
C1 H1 1_555 1_555
N1 C3 1_555 1_555
N2 C1 1_555 1_555
N3 C3 1_555 1_555
N4 Cu2 1_555 1_555
C2 C1 1_555 1_555
H2 C2 1_555 1_555
C3 C6 1_555 1_555
C4 N2 1_555 1_555
H3 C4 1_555 1_555
C5 H4 1_555 1_555
H5 C5 1_555 1_555
C6 H6 1_555 1_555
H7 C6 1_555 1_555
H8 C6 1_555 1_555
C7 N2 1_555 1_555
H9 C7 1_555 1_555
H10 C7 1_555 1_555
C1F H1F 1_555 1_555
N2F C1F 1_555 1_555
N4F C2F 1_555 1_555
C2F C1F 1_555 1_555
H2F C2F 1_555 1_555
C4F N2F 1_555 1_555
H3F C4F 1_555 1_555
C5F C5 1_555 1_555
H4F C5F 1_555 1_555
H5F C5F 1_555 1_555
C7F N2F 1_555 1_555
H9F C7F 1_555 1_555
H10F C7F 1_555 1_555
N1A N1 1_555 1_555
C3A N3 1_555 1_555
C6A C3A 1_555 1_555
H6A C6A 1_555 1_555
H7A C6A 1_555 1_555
H8A C6A 1_555 1_555
I1A Cu1 1_555 1_555
Cu2A I1 1_555 1_555
Cu1_2 N3 1_555 1_555
Cu2F N4F 1_555 1_555
N3_2 Cu1 1_555 1_555
N4A Cu2A 1_555 1_555
Cu2 I1A 1_555 1_555
N4 C2 1_555 1_555
N4 C4 1_555 1_555
C5 C7 1_555 1_555
N4F C4F 1_555 1_555
C5F C7F 1_555 1_555
N1A C3A 1_555 1_555
N1A Cu2A 1_555 1_555
I1A Cu2A 1_555 1_555

#END
