
#######################################################################
#
#                 Cambridge Crystallographic Data Centre
#                                CCDC 
#
#######################################################################
#
# If this CIF has been generated from an entry in the Cambridge 
# Structural Database, then it will include bibliographic, chemical, 
# crystal, experimental, refinement or atomic coordinate data resulting 
# from the CCDC's data processing and validation procedures.
#
#######################################################################

data_XOYSIO
_symmetry_cell_setting           monoclinic
_symmetry_space_group_name_H-M   'P 21/c'
_symmetry_Int_Tables_number      14
_space_group_name_Hall           '-P 2ybc'
loop_
_symmetry_equiv_pos_site_id
_symmetry_equiv_pos_as_xyz
1 x,y,z
2 -x,1/2+y,1/2-z
3 -x,-y,-z
4 x,1/2-y,1/2+z
_cell_length_a                   16.996(3)
_cell_length_b                   10.512(2)
_cell_length_c                   22.559(5)
_cell_angle_alpha                90
_cell_angle_beta                 90.39(3)
_cell_angle_gamma                90
_cell_volume                     4030.34
loop_
_atom_site_label
_atom_site_type_symbol
_atom_site_fract_x
_atom_site_fract_y
_atom_site_fract_z
W1 W 0.21690(4) -0.20376(5) 0.52211(2)
Cu1 Cu 0.24118(12) -0.14098(18) 0.40822(8)
Br1 Br 0.33917(9) -0.31148(15) 0.36583(7)
S1 S 0.1400(2) -0.2580(3) 0.44198(16)
C1 C 0.1999(11) -0.0292(17) 0.7616(7)
H1 H 0.1762 0.0513 0.7523
H2 H 0.2370 -0.0184 0.7935
H3 H 0.1598 -0.0883 0.7733
N1 N 0.2051(7) -0.1107(12) 0.6589(5)
B1 B 0.1193(11) -0.1050(18) 0.6455(8)
H4 H 0.0911 -0.0767 0.6808
Cu2 Cu 0.36270(11) -0.23737(19) 0.48359(8)
Br2 Br 0.22086(11) -0.61002(15) 0.40982(7)
S2 S 0.3003(2) -0.0500(3) 0.48683(16)
C2 C 0.2412(10) -0.0790(14) 0.7087(6)
N2 N 0.2582(8) -0.1487(12) 0.6156(5)
Cu3 Cu 0.23688(12) -0.40433(17) 0.44778(8)
S3 S 0.2956(2) -0.3801(3) 0.53629(16)
C3 C 0.3206(10) -0.0957(14) 0.6995(6)
H5 H 0.3604 -0.0820 0.7272
N3 N 0.0863(7) -0.2350(11) 0.6251(5)
C4 C 0.3306(9) -0.1361(14) 0.6424(6)
N4 N 0.1232(7) -0.2992(11) 0.5792(5)
C5 C 0.4062(11) -0.1699(17) 0.6143(7)
H6 H 0.4083 -0.2602 0.6082
H7 H 0.4489 -0.1444 0.6397
H8 H 0.4104 -0.1271 0.5769
N5 N 0.1032(7) -0.0102(11) 0.5938(5)
C6 C -0.0261(11) -0.256(2) 0.6941(8)
H9 H -0.0449 -0.1732 0.6836
H10 H 0.0035 -0.2515 0.7305
H11 H -0.0700 -0.3127 0.6993
N6 N 0.1332(7) -0.0360(11) 0.5385(5)
C7 C 0.0253(9) -0.3057(17) 0.6461(7)
N7 N 0.2316(8) -0.0446(12) 0.3335(5)
C8 C 0.0231(10) -0.4113(17) 0.6139(6)
H12 H -0.0137 -0.4760 0.6183
N8 N 0.5236(8) 0.2664(12) 0.0293(6)
C9 C 0.0838(10) -0.4119(15) 0.5724(7)
C10 C 0.1019(11) -0.5111(16) 0.5316(8)
H13 H 0.0873 -0.4851 0.4922
H14 H 0.0733 -0.5865 0.5420
H15 H 0.1574 -0.5284 0.5330
C11 C 0.0187(10) 0.1479(16) 0.6467(7)
H16 H 0.0167 0.2390 0.6440
H17 H 0.0480 0.1237 0.6815
H18 H -0.0339 0.1148 0.6492
C12 C 0.0582(9) 0.0947(14) 0.5925(6)
C13 C 0.0569(9) 0.1376(14) 0.5357(6)
H19 H 0.0297 0.2081 0.5213
C14 C 0.1029(9) 0.0580(13) 0.5041(6)
C15 C 0.1180(10) 0.0723(14) 0.4373(6)
H20 H 0.0837 0.1363 0.4212
H21 H 0.1080 -0.0074 0.4178
H22 H 0.1718 0.0968 0.4312
C16 C 0.4710(9) 0.2000(16) -0.0008(6)
H23 H 0.4878 0.1531 -0.0333
C17 C 0.4979(10) 0.3359(15) 0.0755(8)
H24 H 0.5341 0.3856 0.0962
C18 C 0.3918(11) 0.1968(17) 0.0136(7)
H25 H 0.3567 0.1495 -0.0092
C19 C 0.4200(11) 0.3369(16) 0.0936(8)
H26 H 0.4048 0.3853 0.1261
C20 C 0.3653(10) 0.2651(15) 0.0628(7)
C21 C 0.2828(10) 0.2625(17) 0.0841(7)
H27 H 0.2480 0.2280 0.0539
H28 H 0.2653 0.3477 0.0940
C22 C 0.2828(10) 0.1764(16) 0.1400(6)
H29 H 0.2994 0.0917 0.1285
H30 H 0.3214 0.2091 0.1679
C23 C 0.2051(13) 0.167(2) 0.1705(9)
H31 H 0.1855 0.2515 0.1789
H32 H 0.1675 0.1246 0.1447
C24 C 0.2133(12) 0.0935(17) 0.2272(8)
C25 C 0.2445(11) 0.1478(16) 0.2772(7)
H33 H 0.2593 0.2330 0.2768
C26 C 0.1941(12) -0.0361(16) 0.2325(7)
H34 H 0.1743 -0.0788 0.1995
C27 C 0.2037(12) -0.1019(17) 0.2847(7)
H35 H 0.1906 -0.1877 0.2861
C28 C 0.2542(10) 0.0767(15) 0.3285(7)
H36 H 0.2777 0.1155 0.3611
Cu2A Cu 0.63730(11) 0.26263(19) 0.01641(8)
N8A N 0.4764(8) -0.2336(12) 0.4707(6)
O1 O 0.5846(11) -0.2129(19) 0.2436(8)
N9 N 0.4958(9) -0.0741(15) 0.2060(7)
C29 C 0.4395(16) -0.095(2) 0.2509(11)
H37 H 0.4533 -0.1708 0.2726
H38 H 0.3885 -0.1063 0.2331
H39 H 0.4386 -0.0239 0.2773
C30 C 0.4778(17) 0.015(2) 0.1587(12)
H40 H 0.5220 0.0209 0.1325
H41 H 0.4668 0.0969 0.1752
H42 H 0.4326 -0.0148 0.1369
C31 C 0.5642(12) -0.136(2) 0.2054(10)
H43 H 0.5984 -0.1210 0.1742
loop_
_geom_bond_atom_site_label_1
_geom_bond_atom_site_label_2
_geom_bond_site_symmetry_1
_geom_bond_site_symmetry_2
W1 S1 1_555 1_555
Cu1 Br1 1_555 1_555
Br1 Cu2 1_555 1_555
S1 Cu1 1_555 1_555
C1 H1 1_555 1_555
H2 C1 1_555 1_555
H3 C1 1_555 1_555
N1 B1 1_555 1_555
B1 H4 1_555 1_555
O1 C31 1_555 1_555
Cu2 S2 1_555 1_555
Br2 Cu3 1_555 1_555
S2 W1 1_555 1_555
C2 C1 1_555 1_555
N2 W1 1_555 1_555
Cu3 Br1 1_555 1_555
S3 W1 1_555 1_555
C3 C2 1_555 1_555
H5 C3 1_555 1_555
N3 B1 1_555 1_555
C4 N2 1_555 1_555
N4 W1 1_555 1_555
C5 C4 1_555 1_555
H6 C5 1_555 1_555
H7 C5 1_555 1_555
H8 C5 1_555 1_555
N5 B1 1_555 1_555
C6 H9 1_555 1_555
H10 C6 1_555 1_555
H11 C6 1_555 1_555
N6 W1 1_555 1_555
C7 N3 1_555 1_555
N7 Cu1 1_555 1_555
C8 C7 1_555 1_555
H12 C8 1_555 1_555
N8 C16 1_555 1_555
C9 N4 1_555 1_555
N9 C29 1_555 1_555
C10 C9 1_555 1_555
H13 C10 1_555 1_555
H14 C10 1_555 1_555
H15 C10 1_555 1_555
C11 H16 1_555 1_555
H17 C11 1_555 1_555
H18 C11 1_555 1_555
C12 N5 1_555 1_555
C13 C12 1_555 1_555
H19 C13 1_555 1_555
C14 N6 1_555 1_555
C15 C14 1_555 1_555
H20 C15 1_555 1_555
H21 C15 1_555 1_555
H22 C15 1_555 1_555
C16 H23 1_555 1_555
C17 N8 1_555 1_555
H24 C17 1_555 1_555
C18 C16 1_555 1_555
H25 C18 1_555 1_555
C19 C17 1_555 1_555
H26 C19 1_555 1_555
C20 C18 1_555 1_555
C21 C20 1_555 1_555
H27 C21 1_555 1_555
H28 C21 1_555 1_555
C22 C21 1_555 1_555
H29 C22 1_555 1_555
H30 C22 1_555 1_555
C23 C22 1_555 1_555
H31 C23 1_555 1_555
H32 C23 1_555 1_555
C24 C23 1_555 1_555
C25 C24 1_555 1_555
H33 C25 1_555 1_555
C26 C24 1_555 1_555
H34 C26 1_555 1_555
C27 N7 1_555 1_555
H35 C27 1_555 1_555
C28 N7 1_555 1_555
H36 C28 1_555 1_555
C29 H37 1_555 1_555
H38 C29 1_555 1_555
H39 C29 1_555 1_555
C30 N9 1_555 1_555
H40 C30 1_555 1_555
H41 C30 1_555 1_555
H42 C30 1_555 1_555
C31 N9 1_555 1_555
H43 C31 1_555 1_555
Cu2A N8 1_555 1_555
N8A Cu2 1_555 1_555
Cu1 S2 1_555 1_555
S1 Cu3 1_555 1_555
N1 C2 1_555 1_555
N1 N2 1_555 1_555
Cu2 S3 1_555 1_555
Cu3 S3 1_555 1_555
C3 C4 1_555 1_555
N3 N4 1_555 1_555
N5 N6 1_555 1_555
C6 C7 1_555 1_555
C8 C9 1_555 1_555
C11 C12 1_555 1_555
C13 C14 1_555 1_555
C19 C20 1_555 1_555
C25 C28 1_555 1_555
C26 C27 1_555 1_555

#END
