
#######################################################################
#
#                 Cambridge Crystallographic Data Centre
#                                CCDC 
#
#######################################################################
#
# If this CIF has been generated from an entry in the Cambridge 
# Structural Database, then it will include bibliographic, chemical, 
# crystal, experimental, refinement or atomic coordinate data resulting 
# from the CCDC's data processing and validation procedures.
#
#######################################################################

data_XOYTUA
_symmetry_cell_setting           triclinic
_symmetry_space_group_name_H-M   'P -1'
_symmetry_Int_Tables_number      2
_space_group_name_Hall           '-P 1'
loop_
_symmetry_equiv_pos_site_id
_symmetry_equiv_pos_as_xyz
1 x,y,z
2 -x,-y,-z
_cell_length_a                   8.6985(3)
_cell_length_b                   9.4776(3)
_cell_length_c                   14.6544(5)
_cell_angle_alpha                71.5360(10)
_cell_angle_beta                 85.7600(10)
_cell_angle_gamma                88.1420(10)
_cell_volume                     1142.74
loop_
_atom_site_label
_atom_site_type_symbol
_atom_site_fract_x
_atom_site_fract_y
_atom_site_fract_z
Cu1 Cu 0.38005(4) -0.69809(3) 0.36348(2)
O1 O 0.2699(2) -0.7884(3) 0.49082(15)
N1 N 0.5525(3) -0.6237(3) 0.41362(18)
C1 C 0.5794(4) -0.6808(4) 0.5077(2)
H1 H 0.499(5) -0.745(4) 0.548(3)
O2 O 0.0339(3) -0.8572(3) 0.55459(16)
N2 N 0.9441(3) -0.5151(3) 0.5288(2)
C2 C 0.7070(4) -0.6443(4) 0.5450(3)
H2 H 0.720(4) -0.683(4) 0.611(3)
O3 O 0.5182(2) -0.8372(2) 0.30242(18)
N3 N 0.2128(3) -0.7906(2) 0.31617(16)
C3 C 0.8121(3) -0.5486(3) 0.4836(2)
O4 O 0.4972(2) -1.0537(2) 0.27476(18)
C4 C 0.7856(4) -0.4872(4) 0.3875(3)
H3 H 0.846(5) -0.420(5) 0.340(3)
O5 O 0.3367(3) -0.5148(2) 0.25224(15)
C5 C 0.6541(4) -0.5271(4) 0.3547(3)
H4 H 0.634(4) -0.494(3) 0.295(2)
O6 O 0.2013(3) -0.4432(3) 0.12205(17)
C6 C 0.0775(3) -0.7934(3) 0.3843(2)
H5 H 0.033(4) -0.696(4) 0.365(2)
H6 H 0.013(4) -0.865(4) 0.382(2)
C7 C 0.1296(3) -0.8169(3) 0.4845(2)
C8 C 0.2677(3) -0.9423(3) 0.3210(2)
H7 H 0.213(4) -0.978(4) 0.280(2)
H8 H 0.245(4) -1.009(4) 0.385(3)
C9 C 0.4419(3) -0.9447(3) 0.2960(2)
C10 C 0.1888(4) -0.6962(3) 0.2160(2)
H9 H 0.083(4) -0.694(4) 0.201(2)
H10 H 0.244(4) -0.738(4) 0.170(3)
C11 C 0.2441(3) -0.5380(3) 0.1948(2)
N2A N 1.0559(3) -0.4849(3) 0.4712(2)
C3A C 1.1879(3) -0.4514(3) 0.5164(2)
C2A C 1.2930(4) -0.3557(4) 0.4550(3)
C1A C 1.4206(4) -0.3192(4) 0.4923(2)
N1A N 1.4475(3) -0.3763(3) 0.58638(18)
C5A C 1.3459(4) -0.4729(4) 0.6453(3)
C4A C 1.2144(4) -0.5128(4) 0.6125(3)
H3A H 1.154(5) -0.580(5) 0.660(3)
H4A H 1.366(4) -0.506(3) 0.705(2)
H1A H 1.501(5) -0.255(4) 0.452(3)
H2A H 1.280(4) -0.317(4) 0.389(3)
Cu1A Cu 1.61995(4) -0.30191(3) 0.63652(2)
O1A O 1.7301(2) -0.2116(3) 0.50918(15)
O2A O 1.9661(3) -0.1428(3) 0.44541(16)
O3A O 1.4818(2) -0.1628(2) 0.69758(18)
N3A N 1.7872(3) -0.2094(2) 0.68383(16)
O4A O 1.5028(2) 0.0537(2) 0.72524(18)
O5A O 1.6633(3) -0.4852(2) 0.74776(15)
O6A O 1.7987(3) -0.5568(3) 0.87795(17)
C6A C 1.9225(3) -0.2066(3) 0.6157(2)
H5A H 1.967(4) -0.304(4) 0.635(2)
H6A H 1.987(4) -0.135(4) 0.618(2)
C7A C 1.8704(3) -0.1831(3) 0.5155(2)
C8A C 1.7323(3) -0.0577(3) 0.6790(2)
H7A H 1.787(4) -0.022(4) 0.720(2)
H8A H 1.755(4) 0.009(4) 0.615(3)
C9A C 1.5581(3) -0.0553(3) 0.7040(2)
C10A C 1.8112(4) -0.3038(3) 0.7840(2)
H9A H 1.917(4) -0.306(4) 0.799(2)
H10A H 1.756(4) -0.262(4) 0.830(3)
C11A C 1.7559(3) -0.4620(3) 0.8052(2)
Cu2 Cu 0.0000 0.0000 0.0000
O7 O 0.0415(3) -0.0651(3) 0.13802(16)
H11 H -0.029(5) -0.086(4) 0.177(3)
H12 H 0.111(5) -0.110(5) 0.153(3)
O8 O 0.1972(3) -0.1659(3) -0.0241(2)
H13 H 0.201(5) -0.246(5) 0.018(3)
H14 H 0.196(4) -0.188(4) -0.070(3)
N4 N 0.1671(2) 0.1607(2) -0.02516(17)
N5 N 0.4586(3) 0.5143(3) -0.03395(19)
C12 C 0.3072(3) 0.1295(3) 0.0103(2)
H15 H 0.331(3) 0.030(4) 0.039(2)
C13 C 0.4094(3) 0.2391(4) 0.0089(2)
H16 H 0.498(5) 0.213(4) 0.034(3)
C14 C 0.3663(3) 0.3873(3) -0.0308(2)
C15 C 0.2267(4) 0.4199(3) -0.0722(2)
H17 H 0.196(4) 0.516(4) -0.103(3)
C16 C 0.1308(4) 0.3042(3) -0.0667(2)
H18 H 0.036(4) 0.326(4) -0.094(2)
N5A N 0.5414(3) 0.4857(3) 0.03395(19)
C14A C 0.6337(3) 0.6127(3) 0.0308(2)
C13A C 0.5906(3) 0.7609(4) -0.0089(2)
C12A C 0.6928(3) 0.8705(3) -0.0103(2)
N4A N 0.8329(2) 0.8393(2) 0.02516(17)
C16A C 0.8692(4) 0.6958(3) 0.0667(2)
C15A C 0.7733(4) 0.5801(3) 0.0722(2)
H17A H 0.804(4) 0.484(4) 0.103(3)
H18A H 0.964(4) 0.674(4) 0.094(2)
H15A H 0.669(3) 0.970(4) -0.039(2)
H16A H 0.502(5) 0.787(4) -0.034(3)
O7A O -0.0415(3) 0.0651(3) -0.13802(16)
H11A H 0.029(5) 0.086(4) -0.177(3)
H12A H -0.111(5) 0.110(5) -0.153(3)
O8A O -0.1972(3) 0.1659(3) 0.0241(2)
H13A H -0.201(5) 0.246(5) -0.018(3)
H14A H -0.196(4) 0.188(4) 0.070(3)
N4A_2 N -0.1671(2) -0.1607(2) 0.02516(17)
Cu2_2 Cu 1.0000 1.0000 0.0000
O9 O 0.1906(3) -0.2133(3) -0.2053(2)
H19 H 0.275(6) -0.212(5) -0.232(3)
H20 H 0.171(5) -0.134(5) -0.227(3)
O10 O 0.3070(3) -1.1963(3) 0.1940(2)
H21 H 0.367(5) -1.160(4) 0.216(3)
H22 H 0.321(6) -1.275(6) 0.200(4)
O11 O -0.1799(4) -0.1115(4) 0.2776(2)
H23 H -0.154(7) -0.123(6) 0.326(4)
H24 H -0.269(6) -0.103(6) 0.277(4)
loop_
_geom_bond_atom_site_label_1
_geom_bond_atom_site_label_2
_geom_bond_site_symmetry_1
_geom_bond_site_symmetry_2
Cu1 O1 1_555 1_555
O1 C7 1_555 1_555
N1 Cu1 1_555 1_555
C1 N1 1_555 1_555
H1 C1 1_555 1_555
O2 C7 1_555 1_555
N2 C3 1_555 1_555
C2 C1 1_555 1_555
H2 C2 1_555 1_555
O3 Cu1 1_555 1_555
N3 Cu1 1_555 1_555
C3 C2 1_555 1_555
O4 C9 1_555 1_555
C4 C3 1_555 1_555
H3 C4 1_555 1_555
O5 Cu1 1_555 1_555
C5 N1 1_555 1_555
H4 C5 1_555 1_555
O6 C11 1_555 1_555
C6 N3 1_555 1_555
H5 C6 1_555 1_555
H6 C6 1_555 1_555
C7 C6 1_555 1_555
C8 N3 1_555 1_555
H7 C8 1_555 1_555
H8 C8 1_555 1_555
C9 O3 1_555 1_555
C10 N3 1_555 1_555
H9 C10 1_555 1_555
H10 C10 1_555 1_555
C11 O5 1_555 1_555
Cu2 O7 1_555 1_555
O7 H11 1_555 1_555
H12 O7 1_555 1_555
O8 Cu2 1_555 1_555
H13 O8 1_555 1_555
H14 O8 1_555 1_555
N4 Cu2 1_555 1_555
N5 C14 1_555 1_555
C12 N4 1_555 1_555
H15 C12 1_555 1_555
C13 C12 1_555 1_555
H16 C13 1_555 1_555
C14 C13 1_555 1_555
C15 C14 1_555 1_555
H17 C15 1_555 1_555
C16 N4 1_555 1_555
H18 C16 1_555 1_555
O9 H19 1_555 1_555
H20 O9 1_555 1_555
O10 H21 1_555 1_555
H22 O10 1_555 1_555
O11 H23 1_555 1_555
H24 O11 1_555 1_555
N2A N2 1_555 1_555
C3A N2A 1_555 1_555
C2A C3A 1_555 1_555
C1A C2A 1_555 1_555
N1A C1A 1_555 1_555
C5A N1A 1_555 1_555
C4A C3A 1_555 1_555
H3A C4A 1_555 1_555
H4A C5A 1_555 1_555
H1A C1A 1_555 1_555
H2A C2A 1_555 1_555
N5A N5 1_555 1_555
C14A N5A 1_555 1_555
C13A C14A 1_555 1_555
C12A C13A 1_555 1_555
N4A C12A 1_555 1_555
C16A N4A 1_555 1_555
C15A C14A 1_555 1_555
H17A C15A 1_555 1_555
H18A C16A 1_555 1_555
H15A C12A 1_555 1_555
H16A C13A 1_555 1_555
O7A Cu2 1_555 1_555
H11A O7A 1_555 1_555
H12A O7A 1_555 1_555
O8A Cu2 1_555 1_555
H13A O8A 1_555 1_555
H14A O8A 1_555 1_555
Cu1A N1A 1_555 1_555
O1A Cu1A 1_555 1_555
O2A C7A 1_555 1_555
O3A Cu1A 1_555 1_555
N3A Cu1A 1_555 1_555
O4A C9A 1_555 1_555
O5A Cu1A 1_555 1_555
O6A C11A 1_555 1_555
C6A N3A 1_555 1_555
H5A C6A 1_555 1_555
H6A C6A 1_555 1_555
C7A O1A 1_555 1_555
C8A N3A 1_555 1_555
H7A C8A 1_555 1_555
H8A C8A 1_555 1_555
C9A O3A 1_555 1_555
C10A N3A 1_555 1_555
H9A C10A 1_555 1_555
H10A C10A 1_555 1_555
C11A O5A 1_555 1_555
N4A_2 Cu2 1_555 1_555
Cu2_2 N4A 1_555 1_555
C4 C5 1_555 1_555
C8 C9 1_555 1_555
C10 C11 1_555 1_555
C15 C16 1_555 1_555
C5A C4A 1_555 1_555
C16A C15A 1_555 1_555
C6A C7A 1_555 1_555
C8A C9A 1_555 1_555
C10A C11A 1_555 1_555

#END
