
#######################################################################
#
#                 Cambridge Crystallographic Data Centre
#                                CCDC 
#
#######################################################################
#
# If this CIF has been generated from an entry in the Cambridge 
# Structural Database, then it will include bibliographic, chemical, 
# crystal, experimental, refinement or atomic coordinate data resulting 
# from the CCDC's data processing and validation procedures.
#
#######################################################################

data_XOZJAX
_symmetry_cell_setting           hexagonal
_symmetry_space_group_name_H-M   'P 63'
_symmetry_Int_Tables_number      173
_space_group_name_Hall           'P 6c'
loop_
_symmetry_equiv_pos_site_id
_symmetry_equiv_pos_as_xyz
1 x,y,z
2 -y,x-y,z
3 -x+y,-x,z
4 -x,-y,1/2+z
5 y,-x+y,1/2+z
6 x-y,x,1/2+z
_cell_length_a                   13.864(2)
_cell_length_b                   13.864(2)
_cell_length_c                   15.023(2)
_cell_angle_alpha                90
_cell_angle_beta                 90
_cell_angle_gamma                120
_cell_volume                     2500.72
loop_
_atom_site_label
_atom_site_type_symbol
_atom_site_fract_x
_atom_site_fract_y
_atom_site_fract_z
Ag1 Ag 0.6667 0.3333 0.5867
Co1 Co 0.35617(7) 0.03361(7) 0.62402(10)
S1 S 0.5081(1) 0.1452(1) 0.5422(1)
Na1 Na 0.3333 -0.3333 0.7158(4)
O1 O 0.4958(4) -0.2096(4) 0.6344(4)
O2 O 0.6316(4) -0.1069(4) 0.5405(4)
O9 O 0.2527(7) -0.4901(7) 0.8303(5)
N1 N 0.4103(4) -0.0725(4) 0.6291(4)
N2 N 0.2995(4) 0.1376(4) 0.6100(4)
N3 N 0.2702(5) -0.0370(5) 0.5153(4)
N4 N 0.4319(5) 0.1046(5) 0.7367(4)
N5 N 0.2277(5) -0.0672(5) 0.7017(4)
C1 C 0.5709(6) 0.0570(6) 0.5372(6)
C2 C 0.4863(5) -0.0651(5) 0.5563(5)
C3 C 0.5434(5) -0.1341(5) 0.5788(5)
C4 C 0.2610(6) 0.1316(6) 0.5188(5)
C5 C 0.1966(6) 0.0105(6) 0.4934(5)
C6 C 0.3675(8) 0.0389(8) 0.8137(5)
C7 C 0.2458(8) -0.0170(8) 0.7910(6)
H1 H 0.4488 -0.0611 0.6839
H2 H 0.3472 -0.1454 0.6281
H3 H 0.2394 0.1178 0.6500
H4 H 0.3574 0.2112 0.6225
H5 H 0.3200 -0.0233 0.4672
H6 H 0.2256 -0.1150 0.5245
H7 H 0.5032 0.1105 0.7377
H8 H 0.4403 0.1768 0.7402
H9 H 0.1606 -0.0759 0.6772
H10 H 0.2229 -0.1379 0.7056
H11 H 0.6011 0.0625 0.4795
H12 H 0.6289 0.0825 0.5801
H13 H 0.4428 -0.0959 0.5042
H14 H 0.2143 0.1635 0.5152
H15 H 0.3229 0.1705 0.4801
H16 H 0.1799 0.0030 0.4316
H17 H 0.1293 -0.0266 0.5265
H18 H 0.3874 -0.0157 0.8275
H19 H 0.3825 0.0866 0.8636
H20 H 0.2220 0.0364 0.7917
H21 H 0.2044 -0.0736 0.8336
S1A S 0.8548(1) 0.3629(1) 0.5422(1)
O1A O 1.2096(4) 0.7054(6) 0.6344(4)
O2A O 1.1069(4) 0.7385(6) 0.5405(4)
N1A N 1.0725(4) 0.4828(6) 0.6291(4)
C1A C 0.9430(6) 0.5139(8) 0.5372(6)
C2A C 1.0651(5) 0.5514(7) 0.5563(5)
C3A C 1.1341(5) 0.6775(7) 0.5788(5)
H1A H 1.0611 0.5099 0.6839
H2A H 1.1454 0.4926 0.6281
H11A H 0.9375 0.5386 0.4795
H12A H 0.9175 0.5464 0.5801
H13A H 1.0959 0.5387 0.5042
S1B S 0.6371(1) 0.4919(1) 0.5422(1)
O1B O 0.2946(6) 0.5042(4) 0.6344(4)
O2B O 0.2615(6) 0.3684(4) 0.5405(4)
N1B N 0.5172(6) 0.5897(4) 0.6291(4)
C1B C 0.4861(8) 0.4291(6) 0.5372(6)
C2B C 0.4486(7) 0.5137(5) 0.5563(5)
C3B C 0.3225(7) 0.4566(5) 0.5788(5)
H1B H 0.4901 0.5512 0.6839
H2B H 0.5074 0.6528 0.6281
H11B H 0.4614 0.3989 0.4795
H12B H 0.4536 0.3711 0.5801
H13B H 0.4613 0.5572 0.5042
Co1A Co 0.96639(7) 0.32256(10) 0.62402(10)
Co1B Co 0.67744(10) 0.64383(7) 0.62402(10)
O9A O 0.4901(7) -0.2572(10) 0.8303(5)
O9B O 0.2572(10) -0.2527(7) 0.8303(5)
N2A N 0.8624(4) 0.1619(6) 0.6100(4)
N3A N 1.0370(5) 0.3072(7) 0.5153(4)
C4A C 0.8684(6) 0.1294(8) 0.5188(5)
C5A C 0.9895(6) 0.1861(8) 0.4934(5)
H3A H 0.8822 0.1216 0.6500
H4A H 0.7888 0.1462 0.6225
H5A H 1.0233 0.3433 0.4672
H6A H 1.1150 0.3406 0.5245
H14A H 0.8365 0.0508 0.5152
H15A H 0.8295 0.1524 0.4801
H16A H 0.9970 0.1769 0.4316
H17A H 1.0266 0.1559 0.5265
N4A N 0.8954(5) 0.3273(7) 0.7367(4)
N5A N 1.0672(5) 0.2949(7) 0.7017(4)
C6A C 0.9611(8) 0.3286(11) 0.8137(5)
C7A C 1.0170(8) 0.2628(11) 0.7910(6)
H7A H 0.8895 0.3927 0.7377
H8A H 0.8232 0.2635 0.7402
H9A H 1.0759 0.2365 0.6772
H10A H 1.1379 0.3608 0.7056
H18A H 1.0157 0.4031 0.8275
H19A H 0.9134 0.2959 0.8636
H20A H 0.9636 0.1856 0.7917
H21A H 1.0736 0.2780 0.8336
N2B N 0.8381(6) 0.7005(4) 0.6100(4)
N3B N 0.6928(7) 0.7298(5) 0.5153(4)
C4B C 0.8706(8) 0.7390(6) 0.5188(5)
C5B C 0.8139(8) 0.8034(6) 0.4934(5)
H3B H 0.8784 0.7606 0.6500
H4B H 0.8538 0.6426 0.6225
H5B H 0.6567 0.6800 0.4672
H6B H 0.6594 0.7744 0.5245
H14B H 0.9492 0.7857 0.5152
H15B H 0.8476 0.6771 0.4801
H16B H 0.8231 0.8201 0.4316
H17B H 0.8441 0.8707 0.5265
N4B N 0.6727(7) 0.5681(5) 0.7367(4)
N5B N 0.7051(7) 0.7723(5) 0.7017(4)
C6B C 0.6714(11) 0.6325(8) 0.8137(5)
C7B C 0.7372(11) 0.7542(8) 0.7910(6)
H7B H 0.6073 0.4968 0.7377
H8B H 0.7365 0.5597 0.7402
H9B H 0.7635 0.8394 0.6772
H10B H 0.6392 0.7771 0.7056
H18B H 0.5969 0.6126 0.8275
H19B H 0.7041 0.6175 0.8636
H20B H 0.8144 0.7780 0.7917
H21B H 0.7220 0.7956 0.8336
O1A_2 O 0.2096(4) -0.2946(6) 0.6344(4)
O1B_2 O 0.2946(6) -0.4958(4) 0.6344(4)
Na1_2 Na 1.3333 0.6667 0.7158(4)
Na1_3 Na 0.3333 0.6667 0.7158(4)
Cl1 Cl 0.6667 0.3333 0.8703(3)
O7 O 0.6667 0.3333 0.7760(8)
O8 O 0.5579(6) 0.2970(9) 0.9036(5)
O8A O 0.7030(9) 0.2609(11) 0.9036(5)
O8B O 0.7391(11) 0.4421(6) 0.9036(5)
O3 O 0.0051(5) -0.0855(5) 0.6863(6)
N6 N 0.0000 0.0000 0.6908(10)
O3B O -0.0906(7) -0.0051(5) 0.6863(6)
O3A O 0.0855(5) 0.0906(7) 0.6863(6)
O4 O 0.4020(9) 0.4326(9) 0.8203(7)
O5 O 0.4462(6) 0.3434(6) 0.7280(6)
O6 O 0.2947(9) 0.2623(10) 0.7983(7)
N7 N 0.3819(8) 0.3435(8) 0.7827(6)
loop_
_geom_bond_atom_site_label_1
_geom_bond_atom_site_label_2
_geom_bond_site_symmetry_1
_geom_bond_site_symmetry_2
Ag1 S1 1_555 1_555
Co1 S1 1_555 1_555
Cl1 O7 1_555 1_555
S1 C1 1_555 1_555
Na1 O1 1_555 1_555
O1 C3 1_555 1_555
O2 C3 1_555 1_555
O3 N6 1_555 1_555
O4 N7 1_555 1_555
O5 N7 1_555 1_555
O6 N7 1_555 1_555
O8 Cl1 1_555 1_555
O9 Na1 1_555 1_555
N1 Co1 1_555 1_555
N2 Co1 1_555 1_555
N3 Co1 1_555 1_555
N4 Co1 1_555 1_555
N5 Co1 1_555 1_555
N6 O3B 1_555 1_555
C1 C2 1_555 1_555
C2 N1 1_555 1_555
C3 C2 1_555 1_555
C4 N2 1_555 1_555
C5 N3 1_555 1_555
C6 N4 1_555 1_555
C7 N5 1_555 1_555
H1 N1 1_555 1_555
H2 N1 1_555 1_555
H3 N2 1_555 1_555
H4 N2 1_555 1_555
H5 N3 1_555 1_555
H6 N3 1_555 1_555
H7 N4 1_555 1_555
H8 N4 1_555 1_555
H9 N5 1_555 1_555
H10 N5 1_555 1_555
H11 C1 1_555 1_555
H12 C1 1_555 1_555
H13 C2 1_555 1_555
H14 C4 1_555 1_555
H15 C4 1_555 1_555
H16 C5 1_555 1_555
H17 C5 1_555 1_555
H18 C6 1_555 1_555
H19 C6 1_555 1_555
H20 C7 1_555 1_555
H21 C7 1_555 1_555
O8A Cl1 1_555 1_555
O8B Cl1 1_555 1_555
O3A N6 1_555 1_555
S1A Ag1 1_555 1_555
O1A C3A 1_555 1_555
O2A C3A 1_555 1_555
N1A C2A 1_555 1_555
C1A S1A 1_555 1_555
C2A C1A 1_555 1_555
C3A C2A 1_555 1_555
H1A N1A 1_555 1_555
H2A N1A 1_555 1_555
H11A C1A 1_555 1_555
H12A C1A 1_555 1_555
H13A C2A 1_555 1_555
S1B Ag1 1_555 1_555
O1B C3B 1_555 1_555
O2B C3B 1_555 1_555
N1B C2B 1_555 1_555
C1B S1B 1_555 1_555
C2B C1B 1_555 1_555
C3B C2B 1_555 1_555
H1B N1B 1_555 1_555
H2B N1B 1_555 1_555
H11B C1B 1_555 1_555
H12B C1B 1_555 1_555
H13B C2B 1_555 1_555
Co1A S1A 1_555 1_555
Co1B S1B 1_555 1_555
O9A Na1 1_555 1_555
O9B Na1 1_555 1_555
N2A Co1A 1_555 1_555
N3A Co1A 1_555 1_555
C4A N2A 1_555 1_555
C5A N3A 1_555 1_555
H3A N2A 1_555 1_555
H4A N2A 1_555 1_555
H5A N3A 1_555 1_555
H6A N3A 1_555 1_555
H14A C4A 1_555 1_555
H15A C4A 1_555 1_555
H16A C5A 1_555 1_555
H17A C5A 1_555 1_555
N4A Co1A 1_555 1_555
N5A Co1A 1_555 1_555
C6A N4A 1_555 1_555
C7A N5A 1_555 1_555
H7A N4A 1_555 1_555
H8A N4A 1_555 1_555
H9A N5A 1_555 1_555
H10A N5A 1_555 1_555
H18A C6A 1_555 1_555
H19A C6A 1_555 1_555
H20A C7A 1_555 1_555
H21A C7A 1_555 1_555
N2B Co1B 1_555 1_555
N3B Co1B 1_555 1_555
C4B N2B 1_555 1_555
C5B N3B 1_555 1_555
H3B N2B 1_555 1_555
H4B N2B 1_555 1_555
H5B N3B 1_555 1_555
H6B N3B 1_555 1_555
H14B C4B 1_555 1_555
H15B C4B 1_555 1_555
H16B C5B 1_555 1_555
H17B C5B 1_555 1_555
N4B Co1B 1_555 1_555
N5B Co1B 1_555 1_555
C6B N4B 1_555 1_555
C7B N5B 1_555 1_555
H7B N4B 1_555 1_555
H8B N4B 1_555 1_555
H9B N5B 1_555 1_555
H10B N5B 1_555 1_555
H18B C6B 1_555 1_555
H19B C6B 1_555 1_555
H20B C7B 1_555 1_555
H21B C7B 1_555 1_555
O1A_2 Na1 1_555 1_555
O1B_2 Na1 1_555 1_555
Na1_2 O1A 1_555 1_555
Na1_3 O1B 1_555 1_555
C4 C5 1_555 1_555
C6 C7 1_555 1_555
N1A Co1A 1_555 1_555
N1B Co1B 1_555 1_555
C4A C5A 1_555 1_555
C6A C7A 1_555 1_555
C4B C5B 1_555 1_555
C6B C7B 1_555 1_555

#END
