
#######################################################################
#
#                 Cambridge Crystallographic Data Centre
#                                CCDC 
#
#######################################################################
#
# If this CIF has been generated from an entry in the Cambridge 
# Structural Database, then it will include bibliographic, chemical, 
# crystal, experimental, refinement or atomic coordinate data resulting 
# from the CCDC's data processing and validation procedures.
#
#######################################################################

data_XOZKOO
_symmetry_cell_setting           orthorhombic
_symmetry_space_group_name_H-M   'P b c a'
_symmetry_Int_Tables_number      61
_space_group_name_Hall           '-P 2ac 2ab'
loop_
_symmetry_equiv_pos_site_id
_symmetry_equiv_pos_as_xyz
1 x,y,z
2 1/2-x,-y,1/2+z
3 -x,1/2+y,1/2-z
4 1/2+x,1/2-y,-z
5 -x,-y,-z
6 1/2+x,y,1/2-z
7 x,1/2-y,1/2+z
8 1/2-x,1/2+y,z
_cell_length_a                   10.6771(3)
_cell_length_b                   15.8651(6)
_cell_length_c                   20.2646(6)
_cell_angle_alpha                90
_cell_angle_beta                 90
_cell_angle_gamma                90
_cell_volume                     3432.69
loop_
_atom_site_label
_atom_site_type_symbol
_atom_site_fract_x
_atom_site_fract_y
_atom_site_fract_z
Cd1 Cd 0.55273(2) 0.111629(17) 0.634889(12)
C1 C 0.7812(4) -0.0073(2) 0.68177(19)
H1 H 0.8207 0.0399 0.6994
C2 C 0.6485(4) -0.0881(3) 0.6355(2)
H2 H 0.5765 -0.1071 0.6144
C3 C 0.7445(4) -0.1371(3) 0.6536(3)
H3 H 0.7520 -0.1949 0.6473
C4 C 0.9493(4) -0.1128(4) 0.7111(4)
H4 H 0.9513 -0.0960 0.7572
H5 H 0.9518 -0.1739 0.7099
C5 C 1.0581(4) -0.0823(5) 0.6808(3)
H6 H 1.0935 -0.0429 0.7122
H7 H 1.1148 -0.1301 0.6799
C6 C 1.0727(5) -0.0448(6) 0.6215(4)
H8 H 1.0137 0.0017 0.6201
H9 H 1.0453 -0.0852 0.5885
C7 C 1.2858(4) 0.0207(4) 0.6338(2)
H10 H 1.2834 0.0258 0.6795
C8 C 1.2277(6) -0.0075(7) 0.5390(3)
H11 H 1.1821 -0.0247 0.5023
C9 C 1.3412(6) 0.0263(7) 0.5386(3)
H12 H 1.3880 0.0361 0.5006
C10 C 0.5565(3) 0.1663(2) 0.76030(17)
C11 C 0.5629(3) 0.1952(2) 0.83111(16)
C12 C 0.6717(3) 0.2281(3) 0.85625(18)
H13 H 0.7424 0.2322 0.8296
C13 C 0.4585(3) 0.1882(3) 0.87115(17)
H14 H 0.3850 0.1651 0.8544
C14 C 0.4628(3) 0.2153(2) 0.93599(18)
H15 H 0.3922 0.2106 0.9626
C15 C 0.5724(3) 0.2853(3) 1.03019(18)
C16 C 0.5719(3) 0.2496(2) 0.96127(17)
C17 C 0.6767(3) 0.2552(3) 0.92129(18)
H16 H 0.7508 0.2773 0.9381
N1 N 0.6713(3) -0.00586(19) 0.65255(16)
N2 N 0.8287(3) -0.0851(2) 0.68282(19)
N3 N 1.1926(3) -0.0118(2) 0.5990(2)
N4 N 1.3794(3) 0.0443(2) 0.59910(17)
O1 O 0.6469(2) 0.18233(17) 0.72289(12)
O2 O 0.4629(2) 0.12631(19) 0.74079(13)
O3 O 0.4871(3) 0.26696(19) 1.06889(13)
O4 O 0.6575(3) 0.3364(2) 1.04512(13)
Cd1_2 Cd 1.55273(2) 0.111629(17) 0.634889(12)
Cd1F Cd 0.55273(2) 0.388371(17) 1.134889(12)
N4_2 N 0.3794(3) 0.0443(2) 0.59910(17)
O3F O 0.4871(3) 0.23304(19) 0.56889(13)
O4F O 0.6575(3) 0.1636(2) 0.54512(13)
loop_
_geom_bond_atom_site_label_1
_geom_bond_atom_site_label_2
_geom_bond_site_symmetry_1
_geom_bond_site_symmetry_2
Cd1 N1 1_555 1_555
C1 H1 1_555 1_555
C2 H2 1_555 1_555
C3 C2 1_555 1_555
H3 C3 1_555 1_555
C4 H4 1_555 1_555
H5 C4 1_555 1_555
C5 C4 1_555 1_555
H6 C5 1_555 1_555
H7 C5 1_555 1_555
C6 C5 1_555 1_555
H8 C6 1_555 1_555
H9 C6 1_555 1_555
C7 H10 1_555 1_555
C8 H11 1_555 1_555
C9 C8 1_555 1_555
H12 C9 1_555 1_555
C10 C11 1_555 1_555
C11 C12 1_555 1_555
C12 H13 1_555 1_555
C13 C11 1_555 1_555
H14 C13 1_555 1_555
C14 C13 1_555 1_555
H15 C14 1_555 1_555
C15 C16 1_555 1_555
C16 C14 1_555 1_555
C17 C12 1_555 1_555
H16 C17 1_555 1_555
N1 C1 1_555 1_555
N2 C1 1_555 1_555
N3 C6 1_555 1_555
N4 C7 1_555 1_555
O1 Cd1 1_555 1_555
O2 Cd1 1_555 1_555
O3 C15 1_555 1_555
O4 C15 1_555 1_555
Cd1_2 N4 1_555 1_555
Cd1F O3 1_555 1_555
N4_2 Cd1 1_555 1_555
O3F Cd1 1_555 1_555
O4F Cd1 1_555 1_555
C2 N1 1_555 1_555
C3 N2 1_555 1_555
C4 N2 1_555 1_555
C7 N3 1_555 1_555
C8 N3 1_555 1_555
C9 N4 1_555 1_555
C10 O1 1_555 1_555
C10 O2 1_555 1_555
C16 C17 1_555 1_555
O4 Cd1F 1_555 1_555

#END
