
#######################################################################
#
#                 Cambridge Crystallographic Data Centre
#                                CCDC 
#
#######################################################################
#
# If this CIF has been generated from an entry in the Cambridge 
# Structural Database, then it will include bibliographic, chemical, 
# crystal, experimental, refinement or atomic coordinate data resulting 
# from the CCDC's data processing and validation procedures.
#
#######################################################################

data_XOZTEN
_symmetry_cell_setting           orthorhombic
_symmetry_space_group_name_H-M   'P c a 21'
_symmetry_Int_Tables_number      29
_space_group_name_Hall           'P 2c -2ac'
loop_
_symmetry_equiv_pos_site_id
_symmetry_equiv_pos_as_xyz
1 x,y,z
2 -x,-y,1/2+z
3 1/2+x,-y,z
4 1/2-x,y,1/2+z
_cell_length_a                   19.4601(13)
_cell_length_b                   10.1541(7)
_cell_length_c                   32.758(2)
_cell_angle_alpha                90
_cell_angle_beta                 90
_cell_angle_gamma                90
_cell_volume                     6472.97
loop_
_atom_site_label
_atom_site_type_symbol
_atom_site_fract_x
_atom_site_fract_y
_atom_site_fract_z
C1 C 0.40945(16) -0.4326(3) 0.38258(10)
H1 H 0.4509 -0.4200 0.3677
C2 C 0.3886(2) -0.5521(3) 0.39911(11)
H2 H 0.4116 -0.6344 0.3974
C3 C 0.3280(2) -0.5257(3) 0.41821(10)
H3 H 0.3007 -0.5871 0.4329
C4 C 0.25225(15) -0.3229(3) 0.42544(10)
H4 H 0.2309 -0.2823 0.4011
H5 H 0.2186 -0.3851 0.4373
C5 C 0.25195(15) -0.0881(3) 0.44388(10)
H6 H 0.2150 -0.0549 0.4619
H7 H 0.2345 -0.0857 0.4155
C6 C 0.32095(18) 0.1003(3) 0.47363(11)
H8 H 0.2901 0.1262 0.4946
C7 C 0.38266(19) 0.1574(3) 0.46509(12)
H9 H 0.4035 0.2301 0.4785
C8 C 0.40840(17) 0.0854(3) 0.43220(10)
H10 H 0.4513 0.1024 0.4194
C9 C 0.26469(15) -0.2550(3) 0.49723(9)
C10 C 0.19998(16) -0.2702(3) 0.51666(10)
C11 C 0.19972(18) -0.2998(3) 0.55830(10)
H11 H 0.1571 -0.3087 0.5721
C12 C 0.2600(2) -0.3163(3) 0.57966(11)
H12 H 0.2585 -0.3371 0.6079
C13 C 0.32293(18) -0.3027(3) 0.56031(10)
H13 H 0.3641 -0.3152 0.5754
C14 C 0.32642(16) -0.2706(3) 0.51876(9)
C15 C 0.13239(16) -0.2568(3) 0.49431(11)
H14 H 0.1427 -0.2396 0.4649
C16 C 0.09025(18) -0.1389(3) 0.51081(13)
H15 H 0.0786 -0.1543 0.5395
H16 H 0.0479 -0.1296 0.4948
H17 H 0.1175 -0.0581 0.5085
C17 C 0.08961(19) -0.3832(4) 0.49683(12)
H18 H 0.1166 -0.4574 0.4864
H19 H 0.0478 -0.3731 0.4804
H20 H 0.0770 -0.4001 0.5253
C18 C 0.39639(16) -0.2537(3) 0.49893(10)
H21 H 0.3889 -0.2269 0.4699
C19 C 0.43873(19) -0.1454(3) 0.51985(12)
H22 H 0.4126 -0.0628 0.5198
H23 H 0.4820 -0.1328 0.5050
H24 H 0.4486 -0.1713 0.5481
C20 C 0.43752(19) -0.3833(3) 0.49891(12)
H25 H 0.4493 -0.4072 0.5270
H26 H 0.4797 -0.3717 0.4830
H27 H 0.4097 -0.4534 0.4867
C21 C 0.44893(17) -0.2174(4) 0.30239(10)
H28 H 0.4123 -0.2782 0.2991
C22 C 0.49970(18) -0.0512(3) 0.33586(11)
H29 H 0.5009 0.0113 0.3574
C23 C 0.28446(19) 0.0597(3) 0.33400(12)
H30 H 0.3071 0.1116 0.3540
C24 C 0.2455(2) 0.1226(3) 0.30521(12)
H31 H 0.2410 0.2157 0.3064
C25 C 0.22336(16) -0.0740(3) 0.27540(10)
H32 H 0.2040 -0.1248 0.2539
C26 C 0.26094(17) -0.1378(3) 0.30578(11)
H33 H 0.2644 -0.2312 0.3054
C27 C 0.55233(19) -0.0508(3) 0.30767(12)
H34 H 0.5876 0.0134 0.3100
C28 C 0.50169(17) -0.2178(4) 0.27406(10)
H35 H 0.4996 -0.2770 0.2517
C29 C 0.13399(18) 0.4475(4) 0.25280(12)
H36 H 0.0994 0.4425 0.2732
C30 C 0.1599(2) 0.5628(4) 0.23730(14)
H37 H 0.1470 0.6498 0.2447
C31 C 0.2077(2) 0.5272(3) 0.20910(12)
H38 H 0.2348 0.5851 0.1929
C32 C 0.25923(15) 0.3106(3) 0.18713(10)
H39 H 0.2941 0.3678 0.1741
H40 H 0.2831 0.2551 0.2075
C33 C 0.23594(15) 0.0854(3) 0.16128(10)
H41 H 0.2593 0.0663 0.1875
H42 H 0.2649 0.0497 0.1390
C34 C 0.1458(2) -0.0666(4) 0.13334(13)
H43 H 0.1694 -0.0959 0.1097
C35 C 0.0810(2) -0.1049(5) 0.14547(14)
H44 H 0.0510 -0.1651 0.1322
C36 C 0.06925(19) -0.0365(3) 0.18132(12)
H45 H 0.0282 -0.0424 0.1969
C37 C 0.22700(15) 0.2751(3) 0.11520(9)
C38 C 0.28810(15) 0.2849(3) 0.09236(9)
C39 C 0.28408(19) 0.3345(3) 0.05275(11)
H46 H 0.3248 0.3427 0.0370
C40 C 0.2220(2) 0.3720(3) 0.03600(11)
H47 H 0.2202 0.4066 0.0091
C41 C 0.16254(19) 0.3589(3) 0.05866(10)
H48 H 0.1198 0.3820 0.0466
C42 C 0.16343(16) 0.3130(3) 0.09866(10)
C43 C 0.35762(17) 0.2410(3) 0.10894(11)
H49 H 0.3509 0.2107 0.1377
C44 C 0.3863(2) 0.1265(4) 0.08437(13)
H50 H 0.3528 0.0546 0.0839
H51 H 0.4291 0.0956 0.0970
H52 H 0.3957 0.1556 0.0564
C45 C 0.40916(19) 0.3571(4) 0.10937(13)
H53 H 0.4193 0.3839 0.0813
H54 H 0.4517 0.3294 0.1229
H55 H 0.3891 0.4315 0.1242
C46 C 0.09651(16) 0.3044(3) 0.12231(11)
H56 H 0.1059 0.2577 0.1486
C47 C 0.0681(2) 0.4403(4) 0.13233(12)
H57 H 0.1029 0.4909 0.1473
H58 H 0.0269 0.4312 0.1492
H59 H 0.0564 0.4863 0.1070
C48 C 0.0417(2) 0.2251(5) 0.09865(14)
H60 H 0.0002 0.2166 0.1154
H61 H 0.0597 0.1373 0.0923
H62 H 0.0304 0.2710 0.0732
Cu1 Cu 0.139466(19) 0.15213(4) 0.239711(11)
Cu2 Cu 0.367543(18) -0.14598(4) 0.375422(11)
N1 N 0.36356(13) -0.3373(2) 0.39026(8)
N2 N 0.31363(13) -0.3970(2) 0.41260(8)
N3 N 0.26657(12) -0.2221(2) 0.45460(8)
N4 N 0.31129(13) 0.0003(2) 0.44701(8)
N5 N 0.36533(13) -0.0104(3) 0.42102(8)
N6 N 0.44751(13) -0.1347(2) 0.33422(9)
N7 N 0.29225(13) -0.0704(3) 0.33544(8)
N8 N 0.21371(13) 0.0566(3) 0.27550(8)
N9 N 0.55514(14) -0.1373(3) 0.27750(8)
N10 N 0.16387(13) 0.3428(2) 0.23530(9)
N11 N 0.20961(13) 0.3940(3) 0.20838(8)
N12 N 0.22996(12) 0.2262(2) 0.15641(7)
N13 N 0.16923(13) 0.0189(2) 0.16077(8)
N14 N 0.12279(13) 0.0388(3) 0.19115(9)
Cu1B Cu 0.639466(19) -0.15213(4) 0.239711(11)
N9B N 0.05514(14) 0.1373(3) 0.27750(8)
C49 C 0.1237(3) 0.2352(6) 0.45495(17)
H63 H 0.1000 0.2968 0.4737
H64 H 0.1353 0.1542 0.4702
C50 C 0.0802(4) 0.2043(14) 0.4212(2)
H65 H 0.0799 0.1081 0.4163
H66 H 0.0325 0.2334 0.4267
C51 C 0.1069(5) 0.2713(9) 0.3868(3)
H67 H 0.1113 0.2098 0.3635
H68 H 0.0755 0.3435 0.3787
C52 C 0.1699(4) 0.3213(7) 0.39692(19)
H69 H 0.1706 0.4176 0.3923
H70 H 0.2059 0.2806 0.3797
O1 O 0.18305(18) 0.2931(6) 0.43955(12)
C53 C 0.3801(3) 0.4150(5) 0.27080(17)
H71 H 0.3936 0.4399 0.2989
H72 H 0.3431 0.4751 0.2616
C54 C 0.4406(2) 0.4237(5) 0.2427(2)
H73 H 0.4291 0.4769 0.2183
H74 H 0.4802 0.4648 0.2567
C55 C 0.4565(3) 0.2876(6) 0.23109(18)
H75 H 0.5064 0.2698 0.2333
H76 H 0.4412 0.2687 0.2029
C56 C 0.4161(3) 0.2067(4) 0.2619(2)
H77 H 0.4032 0.1200 0.2504
H78 H 0.4432 0.1927 0.2872
O2 O 0.35731(17) 0.2840(3) 0.26982(11)
F1 F 0.08712(13) 0.6316(2) 0.39880(6)
F2 F 0.15930(10) 0.6270(2) 0.34475(7)
F3 F 0.12040(11) 0.8230(2) 0.36882(7)
F4 F 0.08325(10) 0.7461(2) 0.30798(6)
F5 F 0.04935(10) 0.5549(2) 0.33779(6)
F6 F 0.01078(11) 0.7517(2) 0.36189(7)
P1 P 0.08481(4) 0.68827(9) 0.35344(3)
F7 F 0.27758(10) 0.80890(18) 0.18605(7)
F8 F 0.36572(12) 0.8625(2) 0.14427(8)
F9 F 0.35046(12) 0.6514(2) 0.16392(7)
F10 F 0.35240(11) 0.7148(2) 0.22985(6)
F11 F 0.36712(13) 0.9254(2) 0.21034(9)
F12 F 0.44070(10) 0.7680(3) 0.18802(7)
P2 P 0.35967(4) 0.78881(9) 0.18688(3)
loop_
_geom_bond_atom_site_label_1
_geom_bond_atom_site_label_2
_geom_bond_site_symmetry_1
_geom_bond_site_symmetry_2
C1 H1 1_555 1_555
C2 C1 1_555 1_555
H2 C2 1_555 1_555
C3 C2 1_555 1_555
H3 C3 1_555 1_555
C4 H4 1_555 1_555
H5 C4 1_555 1_555
C5 H6 1_555 1_555
H7 C5 1_555 1_555
C6 H8 1_555 1_555
C7 C6 1_555 1_555
H9 C7 1_555 1_555
C8 C7 1_555 1_555
H10 C8 1_555 1_555
C9 C10 1_555 1_555
C10 C11 1_555 1_555
C11 H11 1_555 1_555
C12 C11 1_555 1_555
H12 C12 1_555 1_555
C13 C12 1_555 1_555
H13 C13 1_555 1_555
C14 C9 1_555 1_555
C15 C10 1_555 1_555
H14 C15 1_555 1_555
C16 C15 1_555 1_555
H15 C16 1_555 1_555
H16 C16 1_555 1_555
H17 C16 1_555 1_555
C17 C15 1_555 1_555
H18 C17 1_555 1_555
H19 C17 1_555 1_555
H20 C17 1_555 1_555
C18 C14 1_555 1_555
H21 C18 1_555 1_555
C19 C18 1_555 1_555
H22 C19 1_555 1_555
H23 C19 1_555 1_555
H24 C19 1_555 1_555
C20 C18 1_555 1_555
H25 C20 1_555 1_555
H26 C20 1_555 1_555
H27 C20 1_555 1_555
C21 H28 1_555 1_555
C22 H29 1_555 1_555
C23 H30 1_555 1_555
C24 C23 1_555 1_555
H31 C24 1_555 1_555
C25 H32 1_555 1_555
C26 C25 1_555 1_555
H33 C26 1_555 1_555
C27 C22 1_555 1_555
H34 C27 1_555 1_555
C28 C21 1_555 1_555
H35 C28 1_555 1_555
C29 H36 1_555 1_555
C30 C29 1_555 1_555
H37 C30 1_555 1_555
C31 C30 1_555 1_555
H38 C31 1_555 1_555
C32 H39 1_555 1_555
H40 C32 1_555 1_555
C33 H41 1_555 1_555
H42 C33 1_555 1_555
C34 H43 1_555 1_555
C35 C34 1_555 1_555
H44 C35 1_555 1_555
C36 C35 1_555 1_555
H45 C36 1_555 1_555
C37 C38 1_555 1_555
C38 C39 1_555 1_555
C39 H46 1_555 1_555
C40 C39 1_555 1_555
H47 C40 1_555 1_555
C41 C40 1_555 1_555
H48 C41 1_555 1_555
C42 C37 1_555 1_555
C43 C38 1_555 1_555
H49 C43 1_555 1_555
C44 C43 1_555 1_555
H50 C44 1_555 1_555
H51 C44 1_555 1_555
H52 C44 1_555 1_555
C45 C43 1_555 1_555
H53 C45 1_555 1_555
H54 C45 1_555 1_555
H55 C45 1_555 1_555
C46 C42 1_555 1_555
H56 C46 1_555 1_555
C47 C46 1_555 1_555
H57 C47 1_555 1_555
H58 C47 1_555 1_555
H59 C47 1_555 1_555
C48 C46 1_555 1_555
H60 C48 1_555 1_555
H61 C48 1_555 1_555
H62 C48 1_555 1_555
Cu1 N8 1_555 1_555
Cu2 N1 1_555 1_555
N1 C1 1_555 1_555
N2 C3 1_555 1_555
N3 C4 1_555 1_555
N4 C5 1_555 1_555
N5 C8 1_555 1_555
N6 C21 1_555 1_555
N7 C23 1_555 1_555
N8 C24 1_555 1_555
N9 C27 1_555 1_555
N10 C29 1_555 1_555
N11 C31 1_555 1_555
N12 C32 1_555 1_555
N13 C33 1_555 1_555
N14 C36 1_555 1_555
C49 H63 1_555 1_555
H64 C49 1_555 1_555
C50 C49 1_555 1_555
H65 C50 1_555 1_555
H66 C50 1_555 1_555
C51 C50 1_555 1_555
H67 C51 1_555 1_555
H68 C51 1_555 1_555
C52 C51 1_555 1_555
H69 C52 1_555 1_555
H70 C52 1_555 1_555
O1 C49 1_555 1_555
C53 H71 1_555 1_555
H72 C53 1_555 1_555
C54 C53 1_555 1_555
H73 C54 1_555 1_555
H74 C54 1_555 1_555
C55 C54 1_555 1_555
H75 C55 1_555 1_555
H76 C55 1_555 1_555
C56 C55 1_555 1_555
H77 C56 1_555 1_555
H78 C56 1_555 1_555
O2 C53 1_555 1_555
F1 P1 1_555 1_555
F2 P1 1_555 1_555
F3 P1 1_555 1_555
F4 P1 1_555 1_555
F5 P1 1_555 1_555
F6 P1 1_555 1_555
F7 P2 1_555 1_555
F8 P2 1_555 1_555
F9 P2 1_555 1_555
F10 P2 1_555 1_555
F11 P2 1_555 1_555
F12 P2 1_555 1_555
Cu1B N9 1_555 1_555
N9B Cu1 1_555 1_555
C4 N2 1_555 1_555
C5 N3 1_555 1_555
C6 N4 1_555 1_555
C9 N3 1_555 1_555
C13 C14 1_555 1_555
C22 N6 1_555 1_555
C25 N8 1_555 1_555
C26 N7 1_555 1_555
C28 N9 1_555 1_555
C32 N11 1_555 1_555
C33 N12 1_555 1_555
C34 N13 1_555 1_555
C37 N12 1_555 1_555
C41 C42 1_555 1_555
Cu1 N10 1_555 1_555
Cu1 N14 1_555 1_555
Cu2 N5 1_555 1_555
Cu2 N6 1_555 1_555
Cu2 N7 1_555 1_555
N1 N2 1_555 1_555
N4 N5 1_555 1_555
N10 N11 1_555 1_555
N13 N14 1_555 1_555
C52 O1 1_555 1_555
C56 O2 1_555 1_555

#END
