
#######################################################################
#
#                 Cambridge Crystallographic Data Centre
#                                CCDC 
#
#######################################################################
#
# If this CIF has been generated from an entry in the Cambridge 
# Structural Database, then it will include bibliographic, chemical, 
# crystal, experimental, refinement or atomic coordinate data resulting 
# from the CCDC's data processing and validation procedures.
#
#######################################################################

data_XOZVOY
_symmetry_cell_setting           trigonal
_symmetry_space_group_name_H-M   'P 31'
_symmetry_Int_Tables_number      144
_space_group_name_Hall           'P 31'
loop_
_symmetry_equiv_pos_site_id
_symmetry_equiv_pos_as_xyz
1 x,y,z
2 -y,x-y,1/3+z
3 -x+y,-x,2/3+z
_cell_length_a                   16.3795(4)
_cell_length_b                   16.3795(4)
_cell_length_c                   17.4232(6)
_cell_angle_alpha                90
_cell_angle_beta                 90
_cell_angle_gamma                120
_cell_volume                     4048.18
loop_
_atom_site_label
_atom_site_type_symbol
_atom_site_fract_x
_atom_site_fract_y
_atom_site_fract_z
Na1 Na 0.40243(6) 0.79506(6) 0.70138(4)
O1 O 0.42335(10) 0.97603(9) 0.90774(7)
O2 O 0.37480(10) 0.88583(10) 0.79491(8)
H1 H 0.3487 0.9164 0.7792
O3 O 0.51727(9) 0.84858(10) 0.80086(8)
H2 H 0.5753 0.8645 0.8013
O4 O 0.47353(11) 0.75675(11) 0.95023(8)
H3 H 0.4628 0.7117 0.9229
O5 O 0.32729(10) 0.76721(9) 1.03053(7)
H4 H 0.3395 0.7896 1.0745
O6 O 0.39899(12) 0.99572(10) 1.07224(8)
H5 H 0.4010 0.9595 1.1037
O7 O 0.56259(10) 0.94644(9) 0.48723(8)
O8 O 0.51828(9) 0.86139(10) 0.60264(8)
H6 H 0.5747 0.8829 0.6178
O9 O 0.36105(10) 0.87692(11) 0.61387(8)
H7 H 0.3206 0.8949 0.6118
O10 O 0.27167(10) 0.77955(11) 0.47331(9)
H8 H 0.2351 0.7350 0.5001
O11 O 0.39410(10) 0.74111(10) 0.37729(8)
H9 H 0.3626 0.7434 0.3395
O12 O 0.58050(12) 0.95678(11) 0.32001(9)
H10 H 0.5305 0.9282 0.2967
C1 C 0.45104(12) 0.94345(12) 0.84180(10)
H11 H 0.4971 0.9979 0.8121
C2 C 0.49595(12) 0.88519(12) 0.86730(10)
H12 H 0.5542 0.9257 0.8956
C3 C 0.42781(12) 0.80420(12) 0.91894(9)
H13 H 0.3728 0.7596 0.8889
C4 C 0.39598(12) 0.84212(12) 0.98499(10)
H14 H 0.4506 0.8823 1.0172
C5 C 0.35402(12) 0.90065(12) 0.95469(10)
H15 H 0.2986 0.8604 0.9232
C6 C 0.32521(13) 0.94381(13) 1.01897(11)
H16 H 0.3052 0.9853 0.9968
H17 H 0.2718 0.8939 1.0461
C7 C 0.51247(12) 0.92956(12) 0.55789(10)
H18 H 0.5390 0.9886 0.5869
C8 C 0.40834(12) 0.89450(12) 0.54197(10)
H19 H 0.4026 0.9437 0.5147
C9 C 0.36633(12) 0.80596(12) 0.49278(10)
H20 H 0.3667 0.7548 0.5217
C10 C 0.42518(12) 0.82541(12) 0.41974(10)
H21 H 0.4188 0.8714 0.3881
C11 C 0.52941(12) 0.86400(11) 0.43898(10)
H22 H 0.5357 0.8156 0.4671
C12 C 0.59197(14) 0.89208(14) 0.36868(11)
H23 H 0.6573 0.9211 0.3848
H24 H 0.5773 0.8359 0.3395
Na1A Na 0.20494(6) 0.60737(8) 1.03471(4)
Na1B Na 0.39263(8) 0.59757(6) 0.36805(4)
O5B O 0.43992(13) 0.67271(10) 0.69720(7)
H4B H 0.4501 0.6605 0.7412
O11A O 0.25889(10) 0.65299(14) 0.71062(8)
H9A H 0.2566 0.6192 0.6728
Na2 Na 0.87325(6) 0.92592(5) 1.03422(4)
O13 O 0.70647(9) 0.91250(10) 0.82118(8)
O14 O 0.79165(10) 0.95978(10) 0.93703(8)
H25 H 0.7640 0.9881 0.9544
O15 O 0.79791(11) 0.79928(10) 0.94733(8)
H26 H 0.7838 0.7418 0.9462
O16 O 0.89994(11) 0.82099(11) 0.80581(9)
H27 H 0.9544 0.8446 0.8213
O17 O 0.91942(9) 0.97609(10) 0.71147(8)
H28 H 0.9321 0.9400 0.6854
O18 O 0.69713(11) 0.92403(12) 0.65406(9)
H29 H 0.7308 0.9150 0.6245
O19 O 0.70408(9) 0.75684(9) 1.24067(7)
O20 O 0.79839(10) 0.80594(9) 1.12998(8)
H30 H 0.8114 0.7573 1.1369
O21 O 0.81132(10) 0.97772(10) 1.13269(8)
H31 H 0.7926 1.0176 1.1343
O22 O 0.90017(11) 1.03683(10) 1.28298(8)
H32 H 0.9472 1.0735 1.2586
O23 O 0.90851(9) 0.89131(10) 1.36548(7)
H33 H 0.8911 0.8745 1.4092
O24 O 0.68312(10) 0.71785(11) 1.40569(8)
H34 H 0.7132 0.7455 1.4441
C13 C 0.72851(12) 0.88272(13) 0.89236(10)
H35 H 0.6703 0.8446 0.9214
C14 C 0.77495(12) 0.82421(12) 0.87540(10)
H36 H 0.7302 0.7668 0.8480
C15 C 0.86262(12) 0.88006(12) 0.82614(10)
H37 H 0.9099 0.9341 0.8556
C16 C 0.83738(12) 0.91541(12) 0.75406(10)
H38 H 0.7954 0.8613 0.7220
C17 C 0.78801(12) 0.97057(12) 0.77426(10)
H39 H 0.8316 1.0268 0.8035
C18 C 0.75485(14) 1.00088(14) 0.70404(11)
H40 H 0.7194 1.0306 0.7206
H41 H 0.8094 1.0473 0.6758
C19 C 0.73296(12) 0.81654(12) 1.17456(9)
H42 H 0.6775 0.8013 1.1432
C20 C 0.77960(12) 0.91972(12) 1.19957(9)
H43 H 0.7333 0.9304 1.2267
C21 C 0.86271(12) 0.94398(11) 1.25254(9)
H44 H 0.9120 0.9397 1.2240
C22 C 0.82991(11) 0.87510(12) 1.31930(9)
H45 H 0.7854 0.8842 1.3507
C23 C 0.78116(12) 0.77340(12) 1.29000(9)
H46 H 0.8267 0.7637 1.2607
C24 C 0.74206(13) 0.70209(12) 1.35467(10)
H47 H 0.7060 0.6393 1.3330
H48 H 0.7941 0.7049 1.3835
Na2B Na 1.05267(8) 1.12675(6) 0.70089(4)
Na2A Na 1.07408(5) 0.94733(8) 1.36755(4)
O17A O 1.02391(10) 0.94333(13) 1.04480(8)
H28A H 1.0600 0.9921 1.0187
O23B O 0.98280(13) 1.09149(9) 1.03215(7)
H33B H 0.9834 1.1089 1.0759
Na3 Na 0.72272(5) 0.26194(6) 0.36712(4)
O25 O 0.87438(9) 0.25866(10) 0.58123(8)
O26 O 0.83296(9) 0.30390(10) 0.46694(8)
H49 H 0.8882 0.3340 0.4483
O27 O 0.67052(10) 0.13599(10) 0.45499(8)
H50 H 0.6325 0.0769 0.4548
O28 O 0.58660(10) 0.15191(10) 0.59700(9)
H51 H 0.5568 0.1799 0.5959
O29 O 0.71738(10) 0.31138(10) 0.68982(9)
H52 H 0.6798 0.2779 0.7252
O30 O 0.89548(12) 0.26778(14) 0.74742(9)
H53 H 0.9069 0.2317 0.7231
O31 O 0.73582(10) 0.09477(9) 0.16154(7)
O32 O 0.68727(10) 0.13749(9) 0.27402(8)
H54 H 0.6568 0.0796 0.2865
O33 O 0.83698(9) 0.31498(10) 0.27036(8)
H55 H 0.8941 0.3590 0.2676
O34 O 0.79948(11) 0.36892(9) 0.12121(8)
H56 H 0.8187 0.4069 0.1567
O35 O 0.64855(10) 0.21736(10) 0.03950(7)
H57 H 0.6674 0.2224 -0.0056
O36 O 0.71783(12) 0.05674(11) -0.00376(8)
H58 H 0.7264 0.1011 -0.0311
C25 C 0.82406(12) 0.22769(13) 0.51041(10)
H59 H 0.8479 0.1931 0.4808
C26 C 0.71885(12) 0.16317(12) 0.52677(10)
H60 H 0.7096 0.1069 0.5541
C27 C 0.68206(12) 0.21485(12) 0.57588(10)
H61 H 0.6855 0.2675 0.5465
C28 C 0.74205(12) 0.25268(12) 0.64813(10)
H62 H 0.7322 0.1996 0.6806
C29 C 0.84708(12) 0.31259(13) 0.62873(10)
H63 H 0.8573 0.3685 0.6002
C30 C 0.91000(14) 0.34435(15) 0.69944(11)
H64 H 0.9754 0.3783 0.6833
H65 H 0.8978 0.3874 0.7288
C31 C 0.76415(12) 0.15386(12) 0.22817(9)
H66 H 0.8080 0.1427 0.2585
C32 C 0.81344(12) 0.25722(12) 0.20314(10)
H67 H 0.8713 0.2725 0.1752
C33 C 0.74880(12) 0.27549(12) 0.15133(10)
H68 H 0.6942 0.2674 0.1807
C34 C 0.71611(12) 0.20734(12) 0.08441(10)
H69 H 0.7705 0.2207 0.0522
C35 C 0.67005(12) 0.10534(12) 0.11347(9)
H70 H 0.6140 0.0912 0.1437
C36 C 0.64163(14) 0.03467(13) 0.04824(11)
H71 H 0.6195 -0.0277 0.0695
H72 H 0.5899 0.0333 0.0201
Na3A Na 0.73806(6) 0.46078(8) 0.70045(4)
Na3B Na 0.53922(8) 0.27728(5) 0.03379(4)
O29B O 0.59400(14) 0.28262(10) 0.35649(9)
H52B H 0.5981 0.3202 0.3919
O35A O 0.78264(10) 0.43119(14) 0.37283(7)
H57A H 0.7776 0.4450 0.3277
Cl1 Cl 0.47325(3) 0.25978(4) 0.54724(3)
Cl2 Cl 0.42150(4) 0.86126(3) 0.18827(3)
Cl3 Cl 0.12199(4) 0.92863(4) 0.85610(3)
loop_
_geom_bond_atom_site_label_1
_geom_bond_atom_site_label_2
_geom_bond_site_symmetry_1
_geom_bond_site_symmetry_2
Na1 O2 1_555 1_555
O1 C1 1_555 1_555
O2 H1 1_555 1_555
O3 Na1 1_555 1_555
H2 O3 1_555 1_555
O4 H3 1_555 1_555
O5 H4 1_555 1_555
O6 H5 1_555 1_555
O7 C7 1_555 1_555
O8 Na1 1_555 1_555
H6 O8 1_555 1_555
O9 Na1 1_555 1_555
H7 O9 1_555 1_555
O10 H8 1_555 1_555
O11 H9 1_555 1_555
O12 H10 1_555 1_555
C1 O2 1_555 1_555
H11 C1 1_555 1_555
C2 O3 1_555 1_555
H12 C2 1_555 1_555
C3 O4 1_555 1_555
H13 C3 1_555 1_555
C4 O5 1_555 1_555
H14 C4 1_555 1_555
C5 O1 1_555 1_555
H15 C5 1_555 1_555
C6 O6 1_555 1_555
H16 C6 1_555 1_555
H17 C6 1_555 1_555
C7 O8 1_555 1_555
H18 C7 1_555 1_555
C8 O9 1_555 1_555
H19 C8 1_555 1_555
C9 O10 1_555 1_555
H20 C9 1_555 1_555
C10 O11 1_555 1_555
H21 C10 1_555 1_555
C11 O7 1_555 1_555
H22 C11 1_555 1_555
C12 O12 1_555 1_555
H23 C12 1_555 1_555
H24 C12 1_555 1_555
Na2 O14 1_555 1_555
O13 C13 1_555 1_555
O14 H25 1_555 1_555
O15 Na2 1_555 1_555
H26 O15 1_555 1_555
O16 H27 1_555 1_555
O17 H28 1_555 1_555
O18 H29 1_555 1_555
O19 C19 1_555 1_555
O20 Na2 1_555 1_555
H30 O20 1_555 1_555
O21 Na2 1_555 1_555
H31 O21 1_555 1_555
O22 H32 1_555 1_555
O23 H33 1_555 1_555
O24 H34 1_555 1_555
C13 O14 1_555 1_555
H35 C13 1_555 1_555
C14 O15 1_555 1_555
H36 C14 1_555 1_555
C15 O16 1_555 1_555
H37 C15 1_555 1_555
C16 O17 1_555 1_555
H38 C16 1_555 1_555
C17 O13 1_555 1_555
H39 C17 1_555 1_555
C18 O18 1_555 1_555
H40 C18 1_555 1_555
H41 C18 1_555 1_555
C19 O20 1_555 1_555
H42 C19 1_555 1_555
C20 O21 1_555 1_555
H43 C20 1_555 1_555
C21 O22 1_555 1_555
H44 C21 1_555 1_555
C22 O23 1_555 1_555
H45 C22 1_555 1_555
C23 O19 1_555 1_555
H46 C23 1_555 1_555
C24 O24 1_555 1_555
H47 C24 1_555 1_555
H48 C24 1_555 1_555
Na3 O26 1_555 1_555
O25 C25 1_555 1_555
O26 H49 1_555 1_555
O27 Na3 1_555 1_555
H50 O27 1_555 1_555
O28 H51 1_555 1_555
O29 H52 1_555 1_555
O30 H53 1_555 1_555
O31 C31 1_555 1_555
O32 Na3 1_555 1_555
H54 O32 1_555 1_555
O33 Na3 1_555 1_555
H55 O33 1_555 1_555
O34 H56 1_555 1_555
O35 H57 1_555 1_555
O36 H58 1_555 1_555
C25 O26 1_555 1_555
H59 C25 1_555 1_555
C26 O27 1_555 1_555
H60 C26 1_555 1_555
C27 O28 1_555 1_555
H61 C27 1_555 1_555
C28 O29 1_555 1_555
H62 C28 1_555 1_555
C29 O25 1_555 1_555
H63 C29 1_555 1_555
C30 O30 1_555 1_555
H64 C30 1_555 1_555
H65 C30 1_555 1_555
C31 O32 1_555 1_555
H66 C31 1_555 1_555
C32 O33 1_555 1_555
H67 C32 1_555 1_555
C33 O34 1_555 1_555
H68 C33 1_555 1_555
C34 O35 1_555 1_555
H69 C34 1_555 1_555
C35 O31 1_555 1_555
H70 C35 1_555 1_555
C36 O36 1_555 1_555
H71 C36 1_555 1_555
H72 C36 1_555 1_555
Na1A O5 1_555 1_555
Na1B O11 1_555 1_555
O5B Na1 1_555 1_555
H4B O5B 1_555 1_555
O11A Na1 1_555 1_555
H9A O11A 1_555 1_555
Na2B O17 1_555 1_555
Na2A O23 1_555 1_555
O17A Na2 1_555 1_555
H28A O17A 1_555 1_555
O23B Na2 1_555 1_555
H33B O23B 1_555 1_555
Na3A O29 1_555 1_555
Na3B O35 1_555 1_555
O29B Na3 1_555 1_555
H52B O29B 1_555 1_555
O35A Na3 1_555 1_555
H57A O35A 1_555 1_555
C1 C2 1_555 1_555
C2 C3 1_555 1_555
C3 C4 1_555 1_555
C4 C5 1_555 1_555
C5 C6 1_555 1_555
C7 C8 1_555 1_555
C8 C9 1_555 1_555
C9 C10 1_555 1_555
C10 C11 1_555 1_555
C11 C12 1_555 1_555
C13 C14 1_555 1_555
C14 C15 1_555 1_555
C15 C16 1_555 1_555
C16 C17 1_555 1_555
C17 C18 1_555 1_555
C19 C20 1_555 1_555
C20 C21 1_555 1_555
C21 C22 1_555 1_555
C22 C23 1_555 1_555
C23 C24 1_555 1_555
C25 C26 1_555 1_555
C26 C27 1_555 1_555
C27 C28 1_555 1_555
C28 C29 1_555 1_555
C29 C30 1_555 1_555
C31 C32 1_555 1_555
C32 C33 1_555 1_555
C33 C34 1_555 1_555
C34 C35 1_555 1_555
C35 C36 1_555 1_555

#END
