
#######################################################################
#
#                 Cambridge Crystallographic Data Centre
#                                CCDC 
#
#######################################################################
#
# If this CIF has been generated from an entry in the Cambridge 
# Structural Database, then it will include bibliographic, chemical, 
# crystal, experimental, refinement or atomic coordinate data resulting 
# from the CCDC's data processing and validation procedures.
#
#######################################################################

data_XOZXUG02
_symmetry_cell_setting           cubic
_symmetry_space_group_name_H-M   'P 21 3'
_symmetry_Int_Tables_number      198
_space_group_name_Hall           'P 2ac 2ab 3'
loop_
_symmetry_equiv_pos_site_id
_symmetry_equiv_pos_as_xyz
1 x,y,z
2 1/2-x,-y,1/2+z
3 -x,1/2+y,1/2-z
4 1/2+x,1/2-y,-z
5 z,x,y
6 1/2+z,1/2-x,-y
7 1/2-z,-x,1/2+y
8 -z,1/2+x,1/2-y
9 y,z,x
10 -y,1/2+z,1/2-x
11 1/2+y,1/2-z,-x
12 1/2-y,-z,1/2+x
_cell_length_a                   9.1331(4)
_cell_length_b                   9.1331(4)
_cell_length_c                   9.1331(4)
_cell_angle_alpha                90
_cell_angle_beta                 90
_cell_angle_gamma                90
_cell_volume                     761.824
loop_
_atom_site_label
_atom_site_type_symbol
_atom_site_fract_x
_atom_site_fract_y
_atom_site_fract_z
Mn1 Mn 0.13397(3) 0.86603(3) 0.36603(3)
Na1 Na 0.31383(8) 0.81383(8) 0.68617(8)
O1 O 0.57890(14) 0.70642(14) 0.41187(14)
O2 O 0.34900(13) 0.78463(13) 0.43159(13)
C1 C 0.46431(18) 0.7639(2) 0.3636(2)
H1 H 0.4660 0.7948 0.2643
O1D O 0.41187(14) 0.57890(14) 0.70642(14)
O2D O 0.43159(13) 0.34900(13) 0.78463(13)
C1D C 0.3636(2) 0.46431(18) 0.7639(2)
H1D H 0.2643 0.4660 0.7948
O1J O 0.20642(14) 1.08813(14) 0.42110(14)
O2J O 0.28463(13) 1.06841(13) 0.65100(13)
C1J C 0.2639(2) 1.1364(2) 0.53569(18)
H1J H 0.2948 1.2357 0.5340
Mn1A Mn 0.36603(3) 0.13397(3) 0.86603(3)
Mn1A_2 Mn 0.36603(3) 1.13397(3) 0.86603(3)
Mn1C Mn 0.63397(3) 0.63397(3) 0.63397(3)
Na1A Na 0.18617(8) 1.18617(8) 0.18617(8)
Na1B Na 0.68617(8) 0.31383(8) 0.81383(8)
Na1C Na 0.81383(8) 0.68617(8) 0.31383(8)
O1C O 0.07890(14) 0.79358(14) 0.58813(14)
O1E O -0.08813(14) 0.92110(14) 0.29358(14)
O1I O 0.29358(14) 0.91187(14) 0.92110(14)
O2F O 0.06841(13) 0.65100(13) 0.28463(13)
O2G O 0.56841(13) 0.84900(13) 0.71537(13)
O2I O 0.21537(13) 0.93159(13) 0.15100(13)
loop_
_geom_bond_atom_site_label_1
_geom_bond_atom_site_label_2
_geom_bond_site_symmetry_1
_geom_bond_site_symmetry_2
Mn1 O2 1_555 1_555
Na1 O2 1_555 1_555
O1 C1 1_555 1_555
O2 C1 1_555 1_555
C1 H1 1_555 1_555
O1D Na1 1_555 1_555
O2D C1D 1_555 1_555
C1D O1D 1_555 1_555
H1D C1D 1_555 1_555
O1J Mn1 1_555 1_555
O2J Na1 1_555 1_555
C1J O1J 1_555 1_555
H1J C1J 1_555 1_555
Mn1A O2D 1_555 1_555
Mn1A_2 O2J 1_555 1_555
Mn1C O1 1_555 1_555
Na1A O1J 1_555 1_555
Na1B O2D 1_555 1_555
Na1C O1 1_555 1_555
O1C Mn1 1_555 1_555
O1E Mn1 1_555 1_555
O1I Na1 1_555 1_555
O2F Mn1 1_555 1_555
O2G Na1 1_555 1_555
O2I Mn1 1_555 1_555
Na1 O1C 1_555 1_555
O1D Mn1C 1_555 1_555
O2J C1J 1_555 1_555
Mn1A_2 O1I 1_555 1_555
Mn1C O2G 1_555 1_555
Na1A O2I 1_555 1_555

#END
