
#######################################################################
#
#                 Cambridge Crystallographic Data Centre
#                                CCDC 
#
#######################################################################
#
# If this CIF has been generated from an entry in the Cambridge 
# Structural Database, then it will include bibliographic, chemical, 
# crystal, experimental, refinement or atomic coordinate data resulting 
# from the CCDC's data processing and validation procedures.
#
#######################################################################

data_XOZYER
_symmetry_cell_setting           monoclinic
_symmetry_space_group_name_H-M   'P 21/c'
_symmetry_Int_Tables_number      14
_space_group_name_Hall           '-P 2ybc'
loop_
_symmetry_equiv_pos_site_id
_symmetry_equiv_pos_as_xyz
1 x,y,z
2 -x,1/2+y,1/2-z
3 -x,-y,-z
4 x,1/2-y,1/2+z
_cell_length_a                   12.791(2)
_cell_length_b                   7.2645(13)
_cell_length_c                   23.439(4)
_cell_angle_alpha                90
_cell_angle_beta                 98.450(3)
_cell_angle_gamma                90
_cell_volume                     2154.31
loop_
_atom_site_label
_atom_site_type_symbol
_atom_site_fract_x
_atom_site_fract_y
_atom_site_fract_z
Gd1 Gd 0.006500(11) 0.849768(19) 0.215396(6)
Ni1 Ni 0.5000 0.5000 0.5000
O1 O 0.10773(16) 1.1410(3) 0.24537(9)
O2 O 0.09687(17) 1.0796(3) 0.15294(9)
O3 O 0.10218(17) 0.7992(3) 0.30796(9)
O4 O 0.18330(18) 1.7478(3) 0.19968(11)
O5 O 0.07863(16) 1.5184(3) 0.21462(9)
O6 O -0.0470(2) 0.7067(4) 0.12547(11)
O7 O 0.13645(17) 0.5104(3) 0.33616(9)
O8 O 0.5773(2) 0.3737(4) 0.43612(12)
O9 O 0.59647(17) 0.7235(3) 0.49907(10)
O10 O 0.60793(18) 0.9999(3) 0.45861(10)
C1 C 0.1572(2) 0.6796(4) 0.33608(13)
C2 C 0.2592(2) 0.7392(4) 0.37114(13)
C3 C 0.2979(3) 0.9160(4) 0.36793(14)
H1 H 0.2588 1.0050 0.3456
C4 C 0.3956(3) 0.9582(4) 0.39849(14)
H2 H 0.4239 1.0754 0.3963
C5 C 0.4506(2) 0.8256(4) 0.43209(14)
N1 N 0.4109(2) 0.6549(3) 0.43773(11)
C6 C 0.3184(2) 0.6137(4) 0.40684(13)
H3 H 0.2921 0.4950 0.4093
C7 C 0.5601(2) 0.8546(4) 0.46568(14)
C8 C 0.1421(2) 1.1596(4) 0.19687(14)
C9 C 0.2440(2) 1.2598(4) 0.19563(13)
C10 C 0.3299(3) 1.1488(5) 0.18886(16)
H4 H 0.3201 1.0231 0.1828
C11 C 0.4295(3) 1.2233(5) 0.19104(17)
H5 H 0.4864 1.1477 0.1866
C12 C 0.4447(3) 1.4093(5) 0.19978(17)
H6 H 0.5124 1.4587 0.2031
C13 C 0.3593(3) 1.5221(5) 0.20365(16)
H7 H 0.3692 1.6487 0.2072
C14 C 0.2587(2) 1.4491(4) 0.20227(14)
C15 C 0.1688(3) 1.5798(4) 0.20600(13)
H8 H 0.586(3) 0.2593(17) 0.4401(17)
H9 H 0.6385(16) 0.412(6) 0.433(2)
H10 H -0.092(2) 0.755(5) 0.1000(13)
H11 H -0.027(3) 0.603(3) 0.1146(15)
Gd1B Gd 0.993500(11) 0.150232(19) 0.784604(6)
Gd1A Gd -0.006500(11) 1.349768(19) 0.284604(6)
Gd1_2 Gd 0.006500(11) 1.849768(19) 0.215396(6)
Gd1A_2 Gd -0.006500(11) 0.349768(19) 0.284604(6)
Gd1C Gd 1.006500(11) 0.650232(19) 0.715396(6)
Gd1_3 Gd 0.006500(11) -0.150232(19) 0.215396(6)
O1_2 O 0.10773(16) 0.1410(3) 0.24537(9)
O1A O -0.10773(16) 0.6410(3) 0.25463(9)
O1B O 0.89227(16) -0.1410(3) 0.75463(9)
O1C O 1.10773(16) 0.3590(3) 0.74537(9)
O2_2 O 0.09687(17) 0.0796(3) 0.15294(9)
O2B O 0.90313(17) -0.0796(3) 0.84706(9)
O3B O 0.89782(17) 0.2008(3) 0.69204(9)
O4_2 O 0.18330(18) 0.7478(3) 0.19968(11)
O4B O 0.81670(18) 0.2522(3) 0.80032(11)
O5_2 O 0.07863(16) 0.5184(3) 0.21462(9)
O5A O -0.07863(16) 1.0184(3) 0.28538(9)
O5B O 0.92137(16) 0.4816(3) 0.78538(9)
O5C O 1.07863(16) -0.0184(3) 0.71462(9)
O6B O 1.0470(2) 0.2933(4) 0.87453(11)
O7B O 0.86355(17) 0.4896(3) 0.66384(9)
O7A O -0.13645(17) 1.0104(3) 0.16384(9)
O7C O 1.13645(17) -0.0104(3) 0.83616(9)
O8B O 0.4227(2) 0.6263(4) 0.56388(12)
O9B O 0.40353(17) 0.2765(3) 0.50093(10)
O10B O 0.39207(18) 0.0001(3) 0.54139(10)
C1B C 0.8428(2) 0.3204(4) 0.66392(13)
C2B C 0.7408(2) 0.2608(4) 0.62886(13)
C3B C 0.7021(3) 0.0840(4) 0.63207(14)
H1B H 0.7412 -0.0050 0.6544
C4B C 0.6044(3) 0.0418(4) 0.60151(14)
H2B H 0.5761 -0.0754 0.6037
C5B C 0.5494(2) 0.1744(4) 0.56791(14)
N1B N 0.5891(2) 0.3451(3) 0.56227(11)
C6B C 0.6816(2) 0.3863(4) 0.59316(13)
H3B H 0.7079 0.5050 0.5907
C7B C 0.4399(2) 0.1454(4) 0.53432(14)
C8_2 C 0.1421(2) 0.1596(4) 0.19687(14)
C9_2 C 0.2440(2) 0.2598(4) 0.19563(13)
C10_2 C 0.3299(3) 0.1488(5) 0.18886(16)
H4_2 H 0.3201 0.0231 0.1828
C11_2 C 0.4295(3) 0.2233(5) 0.19104(17)
H5_2 H 0.4864 0.1477 0.1866
C12_2 C 0.4447(3) 0.4093(5) 0.19978(17)
H6_2 H 0.5124 0.4587 0.2031
C13_2 C 0.3593(3) 0.5221(5) 0.20365(16)
H7_2 H 0.3692 0.6487 0.2072
C14_2 C 0.2587(2) 0.4491(4) 0.20227(14)
C15_2 C 0.1688(3) 0.5798(4) 0.20600(13)
H8B H 0.414(3) 0.7407(17) 0.5599(17)
H9B H 0.3615(16) 0.588(6) 0.567(2)
H10B H 1.092(2) 0.245(5) 0.9000(13)
H11B H 1.027(3) 0.397(3) 0.8854(15)
O11 O 0.0073(4) 0.3833(5) 0.07333(16)
H12 H 0.020(5) 0.276(3) 0.086(2)
H19 H -0.037(6) 0.371(12) 0.043(2)
O12 O -0.1829(3) 0.7850(6) 0.02787(15)
H13 H -0.153(5) 0.868(7) 0.010(3)
H14 H -0.2493(13) 0.769(10) 0.020(3)
O13 O 0.1617(4) 0.5947(6) 0.0237(2)
H15 H 0.202(6) 0.517(10) 0.011(4)
H16 H 0.111(4) 0.536(10) 0.035(3)
O14 O 0.2017(3) 0.9465(5) 0.05997(14)
H17 H 0.171(4) 0.969(7) 0.0890(14)
H18 H 0.186(3) 0.835(2) 0.0515(17)
loop_
_geom_bond_atom_site_label_1
_geom_bond_atom_site_label_2
_geom_bond_site_symmetry_1
_geom_bond_site_symmetry_2
Gd1 O1 1_555 1_555
Ni1 O8 1_555 1_555
O1 C8 1_555 1_555
O2 Gd1 1_555 1_555
O3 Gd1 1_555 1_555
O4 C15 1_555 1_555
O5 C15 1_555 1_555
O6 Gd1 1_555 1_555
O7 C1 1_555 1_555
O8 H8 1_555 1_555
O9 Ni1 1_555 1_555
O10 C7 1_555 1_555
C1 O3 1_555 1_555
C2 C1 1_555 1_555
C3 C2 1_555 1_555
H1 C3 1_555 1_555
C4 C3 1_555 1_555
H2 C4 1_555 1_555
C5 C4 1_555 1_555
N1 Ni1 1_555 1_555
C6 C2 1_555 1_555
H3 C6 1_555 1_555
C7 O9 1_555 1_555
C8 O2 1_555 1_555
C9 C8 1_555 1_555
C10 C9 1_555 1_555
H4 C10 1_555 1_555
C11 C10 1_555 1_555
H5 C11 1_555 1_555
C12 C11 1_555 1_555
H6 C12 1_555 1_555
C13 C12 1_555 1_555
H7 C13 1_555 1_555
C14 C9 1_555 1_555
C15 C14 1_555 1_555
O11 H12 1_555 1_555
O12 H13 1_555 1_555
O13 H15 1_555 1_555
O14 H17 1_555 1_555
H9 O8 1_555 1_555
H10 O6 1_555 1_555
H11 O6 1_555 1_555
H14 O12 1_555 1_555
H16 O13 1_555 1_555
H18 O14 1_555 1_555
H19 O11 1_555 1_555
Gd1B O1B 1_555 1_555
Gd1A O1 1_555 1_555
Gd1_2 O4 1_555 1_555
Gd1A_2 O7 1_555 1_555
Gd1C O1C 1_555 1_555
Gd1_3 O1_2 1_555 1_555
O1_2 Gd1A_2 1_555 1_555
O1A Gd1 1_555 1_555
O1C Gd1B 1_555 1_555
O2_2 Gd1_3 1_555 1_555
O2B Gd1B 1_555 1_555
O3B Gd1B 1_555 1_555
O4_2 Gd1 1_555 1_555
O4B Gd1B 1_555 1_555
O5_2 Gd1 1_555 1_555
O5A Gd1 1_555 1_555
O5B Gd1B 1_555 1_555
O5C Gd1B 1_555 1_555
O6B Gd1B 1_555 1_555
O7B Gd1C 1_555 1_555
O7A Gd1 1_555 1_555
O7C Gd1B 1_555 1_555
O8B Ni1 1_555 1_555
O9B Ni1 1_555 1_555
O10B C7B 1_555 1_555
C1B O3B 1_555 1_555
C2B C1B 1_555 1_555
C3B C2B 1_555 1_555
H1B C3B 1_555 1_555
C4B C3B 1_555 1_555
H2B C4B 1_555 1_555
C5B C4B 1_555 1_555
N1B Ni1 1_555 1_555
C6B C2B 1_555 1_555
H3B C6B 1_555 1_555
C7B O9B 1_555 1_555
C8_2 O1_2 1_555 1_555
C9_2 C8_2 1_555 1_555
C10_2 C9_2 1_555 1_555
H4_2 C10_2 1_555 1_555
C11_2 C10_2 1_555 1_555
H5_2 C11_2 1_555 1_555
C12_2 C11_2 1_555 1_555
H6_2 C12_2 1_555 1_555
C13_2 C12_2 1_555 1_555
H7_2 C13_2 1_555 1_555
C14_2 C9_2 1_555 1_555
C15_2 O4_2 1_555 1_555
H8B O8B 1_555 1_555
H9B O8B 1_555 1_555
H10B O6B 1_555 1_555
H11B O6B 1_555 1_555
O5 Gd1A 1_555 1_555
O5 Gd1_2 1_555 1_555
C5 N1 1_555 1_555
C5 C7 1_555 1_555
N1 C6 1_555 1_555
C13 C14 1_555 1_555
Gd1A O5A 1_555 1_555
Gd1A_2 O1A 1_555 1_555
Gd1A_2 O5_2 1_555 1_555
Gd1C O5B 1_555 1_555
O2_2 C8_2 1_555 1_555
O5_2 C15_2 1_555 1_555
O7B C1B 1_555 1_555
C5B N1B 1_555 1_555
C5B C7B 1_555 1_555
N1B C6B 1_555 1_555
C13_2 C14_2 1_555 1_555
C14_2 C15_2 1_555 1_555

#END
