
#######################################################################
#
#                 Cambridge Crystallographic Data Centre
#                                CCDC 
#
#######################################################################
#
# If this CIF has been generated from an entry in the Cambridge 
# Structural Database, then it will include bibliographic, chemical, 
# crystal, experimental, refinement or atomic coordinate data resulting 
# from the CCDC's data processing and validation procedures.
#
#######################################################################

data_XUBBIG
_symmetry_cell_setting           triclinic
_symmetry_space_group_name_H-M   'P -1'
_symmetry_Int_Tables_number      2
_space_group_name_Hall           '-P 1'
loop_
_symmetry_equiv_pos_site_id
_symmetry_equiv_pos_as_xyz
1 x,y,z
2 -x,-y,-z
_cell_length_a                   12.2762(13)
_cell_length_b                   12.6058(13)
_cell_length_c                   22.125(2)
_cell_angle_alpha                96.347(2)
_cell_angle_beta                 90.706(2)
_cell_angle_gamma                113.790(2)
_cell_volume                     3107.64
loop_
_atom_site_label
_atom_site_type_symbol
_atom_site_fract_x
_atom_site_fract_y
_atom_site_fract_z
Cd1 Cd -0.15269(7) 0.13484(7) 0.25017(3)
Cd2 Cd 0.16806(7) 0.34173(7) 0.30155(3)
Cd3 Cd 0.06313(6) 0.28883(7) 0.13619(3)
O1 O 0.0153(6) 0.3081(6) 0.2367(3)
H1 H -0.0078 0.3742 0.2433
N1 N -0.2026(8) 0.2210(8) 0.0680(4)
N2 N -0.1427(8) 0.1981(8) 0.1121(4)
N3 N -0.2212(7) 0.1272(8) 0.1459(4)
N4 N -0.3315(7) 0.1038(8) 0.1247(4)
N5 N -0.8000(8) 0.1819(8) -0.0333(4)
N6 N -0.8974(8) 0.2314(8) 0.0400(4)
N7 N 0.0179(8) -0.0139(8) 0.2313(4)
N8 N -0.0154(8) 0.0638(9) 0.2137(4)
N9 N 0.0563(7) 0.1164(8) 0.1706(4)
N10 N 0.1343(8) 0.0735(8) 0.1607(4)
N11 N 0.5164(8) -0.1833(8) 0.2462(5)
N12 N 0.6922(8) -0.0356(8) 0.2634(4)
N13 N 0.3633(8) 0.4221(8) 0.1334(4)
N14 N 0.2668(7) 0.3867(7) 0.1667(4)
N15 N 0.3002(7) 0.4175(8) 0.2236(4)
N16 N 0.4181(7) 0.4763(8) 0.2302(4)
N17 N 1.0059(7) 0.6020(8) 0.1089(5)
N18 N 1.0656(8) 0.4613(8) 0.1157(5)
N19 N 0.0324(7) 0.2559(8) 0.3744(4)
N20 N -0.0725(8) 0.1691(8) 0.3513(4)
N21 N -0.1408(8) 0.1333(9) 0.3967(4)
N22 N -0.0814(8) 0.1947(9) 0.4498(4)
N23 N 0.3350(8) 0.6525(8) 0.6640(4)
N24 N 0.2572(8) 0.7533(8) 0.7239(4)
N25 N 0.3337(9) 0.5835(9) 0.3864(4)
N26 N 0.2310(9) 0.5243(9) 0.3535(4)
N27 N 0.1580(10) 0.5742(10) 0.3653(5)
N28 N 0.2124(10) 0.6697(10) 0.4066(5)
N29 N 0.6792(9) 0.9027(8) 0.6508(4)
N30 N 0.7415(7) 0.7811(8) 0.6885(4)
C1 C -0.3161(9) 0.1645(9) 0.0778(4)
C2 C -0.4151(9) 0.1701(9) 0.0409(4)
C3 C -0.5299(10) 0.1012(12) 0.0499(6)
H2 H -0.5468 0.0502 0.0792
C4 C -0.6008(10) 0.1780(11) -0.0281(5)
C5 C -0.6231(11) 0.1066(13) 0.0150(6)
H3 H -0.7016 0.0599 0.0220
C6 C -0.4873(11) 0.2470(11) -0.0365(5)
H4 H -0.4715 0.2993 -0.0651
C7 C -0.3930(10) 0.2421(10) -0.0035(5)
H5 H -0.3149 0.2878 -0.0116
C8 C -0.7010(11) 0.1803(12) -0.0686(5)
H6 H -0.6703 0.2490 -0.0897
H7 H -0.7296 0.1119 -0.0990
C9 C -0.7933(10) 0.2496(10) 0.0189(5)
H8 H -0.7218 0.3041 0.0382
C10 C -0.9760(10) 0.1464(10) -0.0024(5)
H9 H -1.0585 0.1147 -0.0008
C11 C -0.9171(11) 0.1157(11) -0.0462(5)
H10 H -0.9507 0.0590 -0.0796
C12 C 0.1111(9) -0.0078(9) 0.1985(4)
C13 C 0.1819(9) -0.0753(9) 0.2037(5)
C14 C 0.1716(10) -0.1451(11) 0.2503(5)
H11 H 0.1166 -0.1500 0.2795
C15 C 0.2413(11) -0.2058(11) 0.2534(7)
H12 H 0.2332 -0.2512 0.2848
C16 C 0.3225(10) -0.2012(9) 0.2112(5)
C17 C 0.3291(12) -0.1336(12) 0.1636(6)
H13 H 0.3824 -0.1307 0.1337
C18 C 0.2622(10) -0.0740(11) 0.1599(5)
H14 H 0.2692 -0.0308 0.1276
C19 C 0.4024(11) -0.2632(10) 0.2169(6)
H15 H 0.3656 -0.3274 0.2407
H16 H 0.4139 -0.2952 0.1768
C20 C 0.6002(10) -0.0917(10) 0.2251(6)
H17 H 0.5935 -0.0701 0.1869
C21 C 0.6632(13) -0.0994(12) 0.3129(6)
H18 H 0.7116 -0.0826 0.3484
C22 C 0.5577(12) -0.1867(11) 0.3022(6)
H19 H 0.5187 -0.2408 0.3285
C23 C 0.4543(8) 0.4785(9) 0.1748(4)
C24 C 0.5797(9) 0.5312(9) 0.1598(4)
C25 C 0.6184(9) 0.4889(10) 0.1098(5)
H20 H 0.5642 0.4284 0.0827
C26 C 0.7378(11) 0.5348(12) 0.0986(7)
H21 H 0.7628 0.5037 0.0641
C27 C 0.8204(9) 0.6246(9) 0.1368(6)
C28 C 0.7797(10) 0.6683(10) 0.1864(6)
H22 H 0.8337 0.7324 0.2118
C29 C 0.6619(10) 0.6214(10) 0.2006(5)
H23 H 0.6379 0.6491 0.2365
C30 C 0.9499(11) 0.6812(12) 0.1221(9)
H24 H 0.9551 0.7231 0.0873
H25 H 0.9942 0.7381 0.1564
C31 C 1.0010(11) 0.5138(11) 0.1379(6)
H26 H 0.9553 0.4917 0.1712
C32 C 1.101(4) 0.509(3) 0.062(2)
H27 H 1.1314 0.4788 0.0299
C33 C 1.0823(15) 0.6090(15) 0.0664(7)
H28 H 1.1170 0.6706 0.0436
C34 C 0.0234(10) 0.2689(10) 0.4346(5)
C35 C 0.1142(10) 0.3563(10) 0.4788(5)
C36 C 0.2350(10) 0.3817(11) 0.4763(5)
H29 H 0.2606 0.3425 0.4455
C37 C 0.3176(10) 0.4645(11) 0.5188(5)
H30 H 0.3982 0.4815 0.5157
C38 C 0.2820(9) 0.5219(10) 0.5653(5)
C39 C 0.1634(11) 0.4954(12) 0.5681(5)
H31 H 0.1376 0.5335 0.5994
C40 C 0.0818(10) 0.4145(12) 0.5263(5)
H32 H 0.0015 0.3982 0.5300
C41 C 0.3768(11) 0.6134(11) 0.6082(5)
H33 H 0.4346 0.5831 0.6190
H34 H 0.4179 0.6806 0.5869
C42 C 0.2848(9) 0.7297(11) 0.6681(5)
H35 H 0.2709 0.7632 0.6350
C43 C 0.2881(10) 0.6814(11) 0.7560(5)
H36 H 0.2776 0.6756 0.7973
C44 C 0.3352(11) 0.6208(11) 0.7201(5)
H37 H 0.3629 0.5670 0.7317
C45 C 0.3185(11) 0.6694(11) 0.4177(5)
C46 C 0.4080(10) 0.7559(9) 0.4643(5)
C47 C 0.3780(11) 0.8263(11) 0.5070(5)
H38 H 0.3012 0.8236 0.5055
C48 C 0.4615(11) 0.9012(9) 0.5524(5)
H39 H 0.4400 0.9487 0.5805
C49 C 0.5744(11) 0.9060(10) 0.5564(5)
C50 C 0.6061(11) 0.8385(11) 0.5128(5)
H40 H 0.6834 0.8424 0.5139
C51 C 0.5233(10) 0.7649(11) 0.4673(5)
H41 H 0.5463 0.7205 0.4380
C52 C 0.6640(11) 0.9778(11) 0.6091(5)
H42 H 0.7402 1.0223 0.5932
H43 H 0.6366 1.0326 0.6308
C53 C 0.7563(10) 0.8554(10) 0.6469(5)
H44 H 0.8146 0.8711 0.6186
C54 C 0.6475(10) 0.7864(10) 0.7197(5)
H45 H 0.6154 0.7447 0.7520
C55 C 0.6086(10) 0.8595(10) 0.6973(5)
H46 H 0.5459 0.8777 0.7107
Cd1_2 Cd 0.84731(7) 0.13484(7) 0.25017(3)
Cd1A Cd 0.15269(7) 0.86516(7) 0.74983(3)
Cd2A Cd 0.83194(7) 0.65827(7) 0.69845(3)
Cd3_2 Cd -0.93687(6) 0.28883(7) 0.13619(3)
Cd3_3 Cd 1.06313(6) 0.28883(7) 0.13619(3)
N6_2 N 0.1026(8) 0.2314(8) 0.0400(4)
N12_2 N -0.3078(8) -0.0356(8) 0.2634(4)
N18_2 N 0.0656(8) 0.4613(8) 0.1157(5)
N24A N -0.2572(8) 0.2467(8) 0.2761(4)
N30A N 0.2585(7) 0.2189(8) 0.3115(4)
O2 O 0.9676(10) 0.5339(12) 0.2809(5)
O3 O 0.527(3) 0.554(3) 0.3512(11)
O4 O 0.9465(19) 0.886(2) 0.3494(10)
O5 O 0.933(2) 1.024(2) 0.5405(12)
C56? C 1.145(5) 0.534(3) 0.084(2)
C57? C 1.0823(15) 0.6090(15) 0.0664(7)
H47? H 1.2199 0.5380 0.0751
H48? H 1.0951 0.6507 0.0332
O6? O 0.818(4) 0.687(4) 0.3445(19)
O7? O 0.910(2) 1.183(2) 0.5815(12)
loop_
_geom_bond_atom_site_label_1
_geom_bond_atom_site_label_2
_geom_bond_site_symmetry_1
_geom_bond_site_symmetry_2
Cd1 O1 1_555 1_555
Cd2 O1 1_555 1_555
Cd3 O1 1_555 1_555
O1 H1 1_555 1_555
N1 N2 1_555 1_555
N2 Cd3 1_555 1_555
N3 Cd1 1_555 1_555
N4 N3 1_555 1_555
N5 C8 1_555 1_555
N6 C9 1_555 1_555
N7 N8 1_555 1_555
N8 Cd1 1_555 1_555
N9 Cd3 1_555 1_555
N10 N9 1_555 1_555
N11 C19 1_555 1_555
N12 C20 1_555 1_555
N13 N14 1_555 1_555
N14 Cd3 1_555 1_555
N15 Cd2 1_555 1_555
N16 N15 1_555 1_555
N17 C30 1_555 1_555
N18 C31 1_555 1_555
N19 Cd2 1_555 1_555
N20 Cd1 1_555 1_555
N21 N20 1_555 1_555
N22 N21 1_555 1_555
N23 C41 1_555 1_555
N24 C42 1_555 1_555
N25 N26 1_555 1_555
N26 Cd2 1_555 1_555
N27 N26 1_555 1_555
N28 N27 1_555 1_555
N29 C52 1_555 1_555
N30 C53 1_555 1_555
C1 N1 1_555 1_555
C2 C1 1_555 1_555
C3 C2 1_555 1_555
H2 C3 1_555 1_555
C4 C5 1_555 1_555
C5 C3 1_555 1_555
H3 C5 1_555 1_555
C6 C4 1_555 1_555
H4 C6 1_555 1_555
C7 C2 1_555 1_555
H5 C7 1_555 1_555
C8 C4 1_555 1_555
H6 C8 1_555 1_555
H7 C8 1_555 1_555
C9 N5 1_555 1_555
H8 C9 1_555 1_555
C10 N6 1_555 1_555
H9 C10 1_555 1_555
C11 N5 1_555 1_555
H10 C11 1_555 1_555
C12 N7 1_555 1_555
C13 C12 1_555 1_555
C14 C13 1_555 1_555
H11 C14 1_555 1_555
C15 C14 1_555 1_555
H12 C15 1_555 1_555
C16 C15 1_555 1_555
C17 C16 1_555 1_555
H13 C17 1_555 1_555
C18 C13 1_555 1_555
H14 C18 1_555 1_555
C19 C16 1_555 1_555
H15 C19 1_555 1_555
H16 C19 1_555 1_555
C20 N11 1_555 1_555
H17 C20 1_555 1_555
C21 N12 1_555 1_555
H18 C21 1_555 1_555
C22 N11 1_555 1_555
H19 C22 1_555 1_555
C23 N13 1_555 1_555
C24 C23 1_555 1_555
C25 C24 1_555 1_555
H20 C25 1_555 1_555
C26 C25 1_555 1_555
H21 C26 1_555 1_555
C27 C26 1_555 1_555
C28 C27 1_555 1_555
H22 C28 1_555 1_555
C29 C24 1_555 1_555
H23 C29 1_555 1_555
C30 C27 1_555 1_555
H24 C30 1_555 1_555
H25 C30 1_555 1_555
C31 N17 1_555 1_555
H26 C31 1_555 1_555
C32 N18 1_555 1_555
H27 C32 1_555 1_555
C33 N17 1_555 1_555
H28 C33 1_555 1_555
C34 N19 1_555 1_555
C35 C34 1_555 1_555
C36 C35 1_555 1_555
H29 C36 1_555 1_555
C37 C36 1_555 1_555
H30 C37 1_555 1_555
C38 C37 1_555 1_555
C39 C38 1_555 1_555
H31 C39 1_555 1_555
C40 C35 1_555 1_555
H32 C40 1_555 1_555
C41 C38 1_555 1_555
H33 C41 1_555 1_555
H34 C41 1_555 1_555
C42 N23 1_555 1_555
H35 C42 1_555 1_555
C43 N24 1_555 1_555
H36 C43 1_555 1_555
C44 N23 1_555 1_555
H37 C44 1_555 1_555
C45 N25 1_555 1_555
C46 C45 1_555 1_555
C47 C46 1_555 1_555
H38 C47 1_555 1_555
C48 C47 1_555 1_555
H39 C48 1_555 1_555
C49 C48 1_555 1_555
C50 C49 1_555 1_555
H40 C50 1_555 1_555
C51 C46 1_555 1_555
H41 C51 1_555 1_555
C52 C49 1_555 1_555
H42 C52 1_555 1_555
H43 C52 1_555 1_555
C53 N29 1_555 1_555
H44 C53 1_555 1_555
C54 N30 1_555 1_555
H45 C54 1_555 1_555
C55 N29 1_555 1_555
H46 C55 1_555 1_555
Cd1_2 N12 1_555 1_555
Cd1A N24 1_555 1_555
Cd2A N30 1_555 1_555
Cd3_2 N6 1_555 1_555
Cd3_3 N18 1_555 1_555
N6_2 Cd3 1_555 1_555
N12_2 Cd1 1_555 1_555
N18_2 Cd3 1_555 1_555
N24A Cd1 1_555 1_555
N30A Cd2 1_555 1_555
N2 N3 1_555 1_555
N4 C1 1_555 1_555
N8 N9 1_555 1_555
N10 C12 1_555 1_555
N14 N15 1_555 1_555
N16 C23 1_555 1_555
N19 N20 1_555 1_555
N22 C34 1_555 1_555
N28 C45 1_555 1_555
C6 C7 1_555 1_555
C10 C11 1_555 1_555
C17 C18 1_555 1_555
C21 C22 1_555 1_555
C28 C29 1_555 1_555
C32 C33 1_555 1_555
C39 C40 1_555 1_555
C43 C44 1_555 1_555
C50 C51 1_555 1_555
C54 C55 1_555 1_555

#END
