
#######################################################################
#
#                 Cambridge Crystallographic Data Centre
#                                CCDC 
#
#######################################################################
#
# If this CIF has been generated from an entry in the Cambridge 
# Structural Database, then it will include bibliographic, chemical, 
# crystal, experimental, refinement or atomic coordinate data resulting 
# from the CCDC's data processing and validation procedures.
#
#######################################################################

data_XUBBUS
_symmetry_cell_setting           orthorhombic
_symmetry_space_group_name_H-M   'P n a 21'
_symmetry_Int_Tables_number      33
_space_group_name_Hall           'P 2c -2n'
loop_
_symmetry_equiv_pos_site_id
_symmetry_equiv_pos_as_xyz
1 x,y,z
2 -x,-y,1/2+z
3 1/2+x,1/2-y,z
4 1/2-x,1/2+y,1/2+z
_cell_length_a                   17.9554(6)
_cell_length_b                   12.6230(5)
_cell_length_c                   16.6588(6)
_cell_angle_alpha                90
_cell_angle_beta                 90
_cell_angle_gamma                90
_cell_volume                     3775.73
loop_
_atom_site_label
_atom_site_type_symbol
_atom_site_fract_x
_atom_site_fract_y
_atom_site_fract_z
Ag1 Ag 0.139607(17) 0.14319(3) 0.88978(2)
Ag2 Ag 0.601390(16) -0.47098(2) 0.40850(2)
N1 N -0.0257(2) 0.2076(3) 0.9371(3)
N4 N 0.25014(19) 0.1223(3) 0.8484(3)
N5 N 0.35710(17) 0.1478(3) 0.7860(2)
N6 N 0.24945(18) -0.0502(3) 0.3987(3)
N7 N 0.35224(16) 0.0233(2) 0.4473(2)
N8 N 0.6159(2) -0.4809(3) 0.5384(2)
N9 N 0.64722(17) -0.4064(2) 0.6524(2)
N10 N 0.90967(18) 0.0147(3) 0.7797(2)
N11 N 0.86923(16) -0.0193(3) 0.6577(2)
C1 C 0.0347(2) 0.1875(3) 0.9215(3)
C4 C 0.2962(2) 0.1933(3) 0.8170(3)
H1 H 0.2873 0.2659 0.8167
C5 C 0.2844(2) 0.0275(3) 0.8376(3)
H2 H 0.2654 -0.0375 0.8541
C6 C 0.3498(2) 0.0412(3) 0.7997(3)
H3 H 0.3835 -0.0115 0.7855
C7 C 0.4204(2) 0.2035(3) 0.7498(3)
H4 H 0.4588 0.2136 0.7901
H5 H 0.4043 0.2729 0.7317
C8 C 0.4528(2) 0.1429(3) 0.6795(2)
C9 C 0.4183(2) 0.1469(3) 0.6055(3)
C10 C 0.44892(18) 0.0925(3) 0.5398(2)
C11 C 0.51300(18) 0.0306(2) 0.5498(2)
C12 C 0.54672(17) 0.0252(2) 0.6254(2)
C13 C 0.51855(18) 0.0827(3) 0.6909(2)
C14 C 0.3463(3) 0.2086(4) 0.5935(3)
H6 H 0.3318 0.2407 0.6434
H7 H 0.3078 0.1612 0.5758
H8 H 0.3539 0.2627 0.5539
C15 C 0.5459(2) -0.0297(4) 0.4802(3)
H9 H 0.5892 -0.0677 0.4979
H10 H 0.5597 0.0191 0.4386
H11 H 0.5097 -0.0788 0.4598
C16 C 0.5591(3) 0.0795(4) 0.7699(2)
H12 H 0.6020 0.0345 0.7653
H13 H 0.5266 0.0522 0.8107
H14 H 0.5747 0.1497 0.7842
C17 C 0.61241(18) -0.0465(3) 0.6376(2)
C18 C 0.6845(2) -0.0124(3) 0.6142(2)
C19 C 0.74419(18) -0.0822(3) 0.6197(2)
C20 C 0.7348(2) -0.1832(3) 0.6519(2)
C21 C 0.6647(2) -0.2150(3) 0.6786(2)
C22 C 0.6021(2) -0.1474(3) 0.6695(2)
C23 C 0.5251(2) -0.1844(3) 0.6916(3)
H15 H 0.4901 -0.1283 0.6820
H16 H 0.5240 -0.2036 0.7473
H17 H 0.5121 -0.2447 0.6594
C24 C 0.6940(2) 0.0990(4) 0.5837(4)
H18 H 0.7453 0.1107 0.5701
H19 H 0.6792 0.1482 0.6246
H20 H 0.6636 0.1091 0.5369
C25 C 0.8007(2) -0.2582(4) 0.6604(3)
H21 H 0.7841 -0.3238 0.6835
H22 H 0.8376 -0.2266 0.6946
H23 H 0.8219 -0.2714 0.6085
C26 C 0.2928(2) 0.0353(4) 0.3997(4)
H24 H 0.2829 0.0965 0.3706
C27 C 0.2828(2) -0.1170(4) 0.4512(3)
H25 H 0.2648 -0.1837 0.4650
C28 C 0.3457(2) -0.0736(3) 0.4808(3)
H26 H 0.3783 -0.1045 0.5173
C29 C 0.4130(2) 0.1012(3) 0.4575(2)
H27 H 0.3932 0.1722 0.4506
H28 H 0.4504 0.0897 0.4165
C30 C 0.6177(2) -0.3923(3) 0.5793(2)
H29 H 0.6006 -0.3276 0.5599
C31 C 0.6453(3) -0.5551(4) 0.5887(3)
H30 H 0.6512 -0.6264 0.5761
C32 C 0.6643(3) -0.5110(4) 0.6585(4)
H31 H 0.6851 -0.5451 0.7026
C33 C 0.6545(3) -0.3245(3) 0.7153(3)
H32 H 0.6103 -0.3247 0.7487
H33 H 0.6970 -0.3408 0.7491
C34 C 0.8521(2) -0.0080(3) 0.7348(2)
H34 H 0.8040 -0.0154 0.7548
C35 C 0.9682(2) 0.0207(4) 0.7269(3)
H35 H 1.0171 0.0365 0.7412
C36 C 0.94483(19) 0.0003(4) 0.6513(3)
H36 H 0.9735 -0.0003 0.6049
C37 C 0.8204(2) -0.0466(4) 0.5903(2)
H37 H 0.8430 -0.1029 0.5591
H38 H 0.8147 0.0147 0.5557
Ag2C Ag 0.898610(16) 0.02902(2) 0.90850(2)
N10C N 0.59033(18) -0.4853(3) 0.2797(2)
Ag3 Ag 0.966824(19) -0.18370(2) 0.90524(3)
N2 N 0.8039(3) -0.2714(4) 0.8757(4)
N3 N 1.1237(3) -0.0725(4) 0.9175(4)
C2 C 0.8627(3) -0.2457(3) 0.8885(5)
C3 C 1.0701(3) -0.1148(3) 0.9144(4)
loop_
_geom_bond_atom_site_label_1
_geom_bond_atom_site_label_2
_geom_bond_site_symmetry_1
_geom_bond_site_symmetry_2
Ag1 N4 1_555 1_555
Ag2 N8 1_555 1_555
Ag3 C2 1_555 1_555
N1 C1 1_555 1_555
N2 C2 1_555 1_555
N3 C3 1_555 1_555
N4 C4 1_555 1_555
N5 C4 1_555 1_555
N6 C26 1_555 1_555
N7 C26 1_555 1_555
N8 C30 1_555 1_555
N9 C30 1_555 1_555
N10 C34 1_555 1_555
N11 C34 1_555 1_555
C1 Ag1 1_555 1_555
C3 Ag3 1_555 1_555
C4 H1 1_555 1_555
C5 N4 1_555 1_555
H2 C5 1_555 1_555
C6 N5 1_555 1_555
H3 C6 1_555 1_555
C7 N5 1_555 1_555
H4 C7 1_555 1_555
H5 C7 1_555 1_555
C8 C7 1_555 1_555
C9 C8 1_555 1_555
C10 C9 1_555 1_555
C11 C10 1_555 1_555
C12 C11 1_555 1_555
C13 C8 1_555 1_555
C14 C9 1_555 1_555
H6 C14 1_555 1_555
H7 C14 1_555 1_555
H8 C14 1_555 1_555
C15 C11 1_555 1_555
H9 C15 1_555 1_555
H10 C15 1_555 1_555
H11 C15 1_555 1_555
C16 C13 1_555 1_555
H12 C16 1_555 1_555
H13 C16 1_555 1_555
H14 C16 1_555 1_555
C17 C12 1_555 1_555
C18 C17 1_555 1_555
C19 C18 1_555 1_555
C20 C19 1_555 1_555
C21 C20 1_555 1_555
C22 C17 1_555 1_555
C23 C22 1_555 1_555
H15 C23 1_555 1_555
H16 C23 1_555 1_555
H17 C23 1_555 1_555
C24 C18 1_555 1_555
H18 C24 1_555 1_555
H19 C24 1_555 1_555
H20 C24 1_555 1_555
C25 C20 1_555 1_555
H21 C25 1_555 1_555
H22 C25 1_555 1_555
H23 C25 1_555 1_555
C26 H24 1_555 1_555
C27 N6 1_555 1_555
H25 C27 1_555 1_555
C28 N7 1_555 1_555
H26 C28 1_555 1_555
C29 N7 1_555 1_555
H27 C29 1_555 1_555
H28 C29 1_555 1_555
C30 H29 1_555 1_555
C31 N8 1_555 1_555
H30 C31 1_555 1_555
C32 N9 1_555 1_555
H31 C32 1_555 1_555
C33 N9 1_555 1_555
H32 C33 1_555 1_555
H33 C33 1_555 1_555
C34 H34 1_555 1_555
C35 N10 1_555 1_555
H35 C35 1_555 1_555
C36 N11 1_555 1_555
H36 C36 1_555 1_555
C37 N11 1_555 1_555
H37 C37 1_555 1_555
H38 C37 1_555 1_555
Ag2C N10 1_555 1_555
N10C Ag2 1_555 1_555
C5 C6 1_555 1_555
C10 C29 1_555 1_555
C12 C13 1_555 1_555
C19 C37 1_555 1_555
C21 C22 1_555 1_555
C21 C33 1_555 1_555
C27 C28 1_555 1_555
C31 C32 1_555 1_555
C35 C36 1_555 1_555

#END
