
#######################################################################
#
#                 Cambridge Crystallographic Data Centre
#                                CCDC 
#
#######################################################################
#
# If this CIF has been generated from an entry in the Cambridge 
# Structural Database, then it will include bibliographic, chemical, 
# crystal, experimental, refinement or atomic coordinate data resulting 
# from the CCDC's data processing and validation procedures.
#
#######################################################################

data_XUBCAZ
_symmetry_cell_setting           monoclinic
_symmetry_space_group_name_H-M   'P 21/c'
_symmetry_Int_Tables_number      14
_space_group_name_Hall           '-P 2ybc'
loop_
_symmetry_equiv_pos_site_id
_symmetry_equiv_pos_as_xyz
1 x,y,z
2 -x,1/2+y,1/2-z
3 -x,-y,-z
4 x,1/2-y,1/2+z
_cell_length_a                   18.931(3)
_cell_length_b                   11.4590(19)
_cell_length_c                   17.253(3)
_cell_angle_alpha                90
_cell_angle_beta                 95.592(3)
_cell_angle_gamma                90
_cell_volume                     3724.89
loop_
_atom_site_label
_atom_site_type_symbol
_atom_site_fract_x
_atom_site_fract_y
_atom_site_fract_z
Ag1 Ag -0.024396(14) -0.45860(3) 0.081664(14)
Ag2 Ag -0.512540(13) -1.00402(2) 0.305930(19)
S1 S -0.01001(4) -0.68085(7) 0.02315(5)
S2 S -0.51831(5) -0.91333(8) 0.16614(6)
N1 N 0.12113(17) -0.7221(3) 0.11031(19)
N2 N -0.45332(19) -0.6965(3) 0.1908(3)
N3 N -0.24394(12) -0.50402(19) 0.14349(12)
N4 N -0.14233(13) -0.4510(2) 0.10246(14)
N5 N -0.28031(12) -0.98253(18) 0.34907(13)
N6 N -0.39360(14) -1.0253(2) 0.34928(18)
N7 N -0.06695(13) -0.4659(2) 0.67734(13)
N8 N -0.02978(17) -0.5334(3) 0.79425(16)
N9 N -0.39265(13) -0.3166(2) 0.60760(13)
N10 N -0.44358(14) -0.1468(2) 0.62505(16)
C1 C 0.06831(17) -0.7037(3) 0.07406(18)
C2 C -0.48091(17) -0.7857(3) 0.1825(2)
C3 C -0.25995(16) -0.4394(2) 0.07723(15)
H1 H -0.3049 -0.4211 0.0538
C4 C -0.19692(16) -0.4077(3) 0.05304(15)
H2 H -0.1915 -0.3629 0.0091
C5 C -0.17322(16) -0.5087(3) 0.15586(17)
H3 H -0.1487 -0.5481 0.1973
C6 C -0.28447(15) -1.1002(2) 0.36240(15)
H4 H -0.2469 -1.1526 0.3698
C7 C -0.35451(15) -1.1246(2) 0.36254(16)
H5 H -0.3732 -1.1982 0.3705
C8 C -0.34726(16) -0.9419(2) 0.3416(2)
H6 H -0.3593 -0.8642 0.3321
C9 C -0.0587(3) -0.5826(4) 0.6705(2)
H7 H -0.0670 -0.6268 0.6253
C10 C -0.0357(3) -0.6227(4) 0.7428(3)
H8 H -0.0256 -0.7003 0.7551
C11 C -0.05019(18) -0.4411(3) 0.75296(17)
H9 H -0.0528 -0.3665 0.7738
C12 C -0.4171(2) -0.2755(3) 0.53546(18)
H10 H -0.4130 -0.3116 0.4878
C13 C -0.4485(2) -0.1720(3) 0.5474(2)
H11 H -0.4704 -0.1247 0.5083
C14 C -0.40999(16) -0.2359(3) 0.65908(17)
H12 H -0.3994 -0.2425 0.7127
C15 C -0.29749(15) -0.5571(3) 0.18911(15)
H13 H -0.3237 -0.6154 0.1573
H14 H -0.3308 -0.4972 0.2015
C16 C -0.21465(15) -0.9164(2) 0.34113(19)
H15 H -0.1946 -0.9409 0.2941
H16 H -0.1803 -0.9333 0.3851
C17 C -0.09296(17) -0.3837(3) 0.61509(16)
H17 H -0.0591 -0.3798 0.5765
H18 H -0.0971 -0.3063 0.6370
C18 C -0.35644(16) -0.4277(2) 0.62646(16)
H19 H -0.3895 -0.4912 0.6138
H20 H -0.3426 -0.4305 0.6821
C19 C -0.24998(15) -0.7328(2) 0.26579(15)
C20 C -0.26665(14) -0.6137(2) 0.26386(14)
C21 C -0.25887(13) -0.5475(2) 0.33253(14)
C22 C -0.23930(12) -0.6027(2) 0.40360(13)
C23 C -0.22516(13) -0.7225(2) 0.40658(14)
C24 C -0.22880(13) -0.7864(2) 0.33745(15)
C25 C -0.23467(14) -0.5330(2) 0.47744(13)
C26 C -0.29574(14) -0.5162(2) 0.51617(14)
C27 C -0.29113(15) -0.4463(2) 0.58355(14)
C28 C -0.22600(15) -0.3983(2) 0.61332(13)
C29 C -0.16470(14) -0.4220(2) 0.57624(14)
C30 C -0.16919(14) -0.4870(2) 0.50712(14)
C31 C -0.2581(2) -0.8035(3) 0.1911(2)
H21 H -0.2445 -0.8829 0.2022
H22 H -0.2283 -0.7712 0.1546
H23 H -0.3067 -0.8012 0.1692
C32 C -0.27199(17) -0.4171(2) 0.33099(17)
H24 H -0.2643 -0.3865 0.3829
H25 H -0.3200 -0.4019 0.3103
H26 H -0.2400 -0.3801 0.2988
C33 C -0.20803(18) -0.7805(2) 0.48422(17)
H27 H -0.2077 -0.7232 0.5248
H28 H -0.1622 -0.8168 0.4858
H29 H -0.2432 -0.8387 0.4916
C34 C -0.10469(15) -0.5097(3) 0.46342(17)
H30 H -0.1184 -0.5556 0.4179
H31 H -0.0695 -0.5511 0.4966
H32 H -0.0854 -0.4367 0.4482
C35 C -0.36409(15) -0.5762(3) 0.48561(18)
H33 H -0.3566 -0.6193 0.4394
H34 H -0.4004 -0.5187 0.4736
H35 H -0.3786 -0.6286 0.5245
C36 C -0.22102(18) -0.3233(3) 0.68559(16)
H36 H -0.2672 -0.3160 0.7037
H37 H -0.2036 -0.2474 0.6736
H38 H -0.1891 -0.3589 0.7254
Ag1B Ag 0.024396(14) -0.54140(3) -0.081664(14)
Ag1B_2 Ag 0.024396(14) -0.54140(3) 0.918336(14)
Ag2A Ag -0.487460(13) -0.50402(2) 0.194070(19)
Ag2B Ag -0.487460(13) 0.00402(2) 0.694070(19)
S1B S 0.01001(4) -0.31915(7) -0.02315(5)
N2A N -0.54668(19) -1.1965(3) 0.3092(3)
N8B N 0.02978(17) -0.4666(3) 0.20575(16)
N10B N -0.55642(14) -0.8532(2) 0.37495(16)
loop_
_geom_bond_atom_site_label_1
_geom_bond_atom_site_label_2
_geom_bond_site_symmetry_1
_geom_bond_site_symmetry_2
Ag1 S1 1_555 1_555
Ag2 S2 1_555 1_555
S1 C1 1_555 1_555
S2 C2 1_555 1_555
N1 C1 1_555 1_555
N2 C2 1_555 1_555
N3 C3 1_555 1_555
N4 Ag1 1_555 1_555
N5 C6 1_555 1_555
N6 Ag2 1_555 1_555
N7 C9 1_555 1_555
N8 C10 1_555 1_555
N9 C12 1_555 1_555
N10 C13 1_555 1_555
C3 H1 1_555 1_555
C4 N4 1_555 1_555
H2 C4 1_555 1_555
C5 N3 1_555 1_555
H3 C5 1_555 1_555
C6 H4 1_555 1_555
C7 N6 1_555 1_555
H5 C7 1_555 1_555
C8 N5 1_555 1_555
H6 C8 1_555 1_555
C9 H7 1_555 1_555
C10 C9 1_555 1_555
H8 C10 1_555 1_555
C11 N7 1_555 1_555
H9 C11 1_555 1_555
C12 H10 1_555 1_555
C13 C12 1_555 1_555
H11 C13 1_555 1_555
C14 N9 1_555 1_555
H12 C14 1_555 1_555
C15 N3 1_555 1_555
H13 C15 1_555 1_555
H14 C15 1_555 1_555
C16 N5 1_555 1_555
H15 C16 1_555 1_555
H16 C16 1_555 1_555
C17 N7 1_555 1_555
H17 C17 1_555 1_555
H18 C17 1_555 1_555
C18 N9 1_555 1_555
H19 C18 1_555 1_555
H20 C18 1_555 1_555
C19 C20 1_555 1_555
C20 C15 1_555 1_555
C21 C20 1_555 1_555
C22 C21 1_555 1_555
C23 C22 1_555 1_555
C24 C16 1_555 1_555
C25 C22 1_555 1_555
C26 C25 1_555 1_555
C27 C18 1_555 1_555
C28 C27 1_555 1_555
C29 C17 1_555 1_555
C30 C25 1_555 1_555
C31 C19 1_555 1_555
H21 C31 1_555 1_555
H22 C31 1_555 1_555
H23 C31 1_555 1_555
C32 C21 1_555 1_555
H24 C32 1_555 1_555
H25 C32 1_555 1_555
H26 C32 1_555 1_555
C33 C23 1_555 1_555
H27 C33 1_555 1_555
H28 C33 1_555 1_555
H29 C33 1_555 1_555
C34 C30 1_555 1_555
H30 C34 1_555 1_555
H31 C34 1_555 1_555
H32 C34 1_555 1_555
C35 C26 1_555 1_555
H33 C35 1_555 1_555
H34 C35 1_555 1_555
H35 C35 1_555 1_555
C36 C28 1_555 1_555
H36 C36 1_555 1_555
H37 C36 1_555 1_555
H38 C36 1_555 1_555
Ag1B S1 1_555 1_555
Ag1B_2 N8 1_555 1_555
Ag2A N2 1_555 1_555
Ag2B N10 1_555 1_555
S1B Ag1 1_555 1_555
N2A Ag2 1_555 1_555
N8B Ag1 1_555 1_555
N10B Ag2 1_555 1_555
N4 C5 1_555 1_555
N6 C8 1_555 1_555
N8 C11 1_555 1_555
N10 C14 1_555 1_555
C3 C4 1_555 1_555
C6 C7 1_555 1_555
C19 C24 1_555 1_555
C23 C24 1_555 1_555
C26 C27 1_555 1_555
C28 C29 1_555 1_555
C29 C30 1_555 1_555
Ag1B S1B 1_555 1_555

#END
