
#######################################################################
#
#                 Cambridge Crystallographic Data Centre
#                                CCDC 
#
#######################################################################
#
# If this CIF has been generated from an entry in the Cambridge 
# Structural Database, then it will include bibliographic, chemical, 
# crystal, experimental, refinement or atomic coordinate data resulting 
# from the CCDC's data processing and validation procedures.
#
#######################################################################

data_XUBHIM
_symmetry_cell_setting           monoclinic
_symmetry_space_group_name_H-M   'P 21/n'
_symmetry_Int_Tables_number      14
_space_group_name_Hall           '-P 2yn'
loop_
_symmetry_equiv_pos_site_id
_symmetry_equiv_pos_as_xyz
1 x,y,z
2 1/2-x,1/2+y,1/2-z
3 -x,-y,-z
4 1/2+x,1/2-y,1/2+z
_cell_length_a                   6.8590(2)
_cell_length_b                   9.1904(3)
_cell_length_c                   8.0991(3)
_cell_angle_alpha                90
_cell_angle_beta                 114.8540(10)
_cell_angle_gamma                90
_cell_volume                     463.257
loop_
_atom_site_label
_atom_site_type_symbol
_atom_site_fract_x
_atom_site_fract_y
_atom_site_fract_z
Co1 Co 0.0000 0.5000 0.5000
Cl1 Cl 0.03661(6) 0.76097(4) 0.47301(5)
O1 O 0.28472(19) 0.46139(13) 0.45741(18)
O2 O 0.1737(2) 0.50905(13) 0.77862(18)
C1 C 0.3418(3) 0.5435(2) 0.3327(3)
C2 C 0.4619(3) 0.36854(19) 0.5667(3)
H1 H 0.490(3) 0.303(3) 0.483(2)
H2 H 0.222(3) 0.604(2) 0.271(2)
H3 H 0.257(4) 0.579(3) 0.818(3)
H4 H 0.412(3) 0.3158(19) 0.647(3)
H5 H 0.233(4) 0.434(3) 0.839(3)
H6 H 0.374(4) 0.470(2) 0.257(3)
Co1_2 Co 1.0000 0.5000 0.5000
Cl1B Cl -0.03661(6) 0.23903(4) 0.52699(5)
O1B O 0.71528(19) 0.53861(13) 0.54259(18)
O1B_2 O -0.28472(19) 0.53861(13) 0.54259(18)
O2B O -0.1737(2) 0.49095(13) 0.22138(18)
C1B C 0.6582(3) 0.4565(2) 0.6673(3)
C2B C 0.5381(3) 0.63146(19) 0.4333(3)
H1B H 0.510(3) 0.697(3) 0.517(2)
H2B H 0.778(3) 0.396(2) 0.729(2)
H3B H -0.257(4) 0.421(3) 0.182(3)
H4B H 0.588(3) 0.6842(19) 0.353(3)
H5B H -0.233(4) 0.566(3) 0.161(3)
H6B H 0.626(4) 0.530(2) 0.743(3)
loop_
_geom_bond_atom_site_label_1
_geom_bond_atom_site_label_2
_geom_bond_site_symmetry_1
_geom_bond_site_symmetry_2
Co1 Cl1 1_555 1_555
O1 Co1 1_555 1_555
O2 Co1 1_555 1_555
C1 O1 1_555 1_555
C2 O1 1_555 1_555
H1 C2 1_555 1_555
H2 C1 1_555 1_555
H3 O2 1_555 1_555
H4 C2 1_555 1_555
H5 O2 1_555 1_555
H6 C1 1_555 1_555
Co1_2 O1B 1_555 1_555
Cl1B Co1 1_555 1_555
O1B C1B 1_555 1_555
O1B_2 Co1 1_555 1_555
O2B Co1 1_555 1_555
C1B C2 1_555 1_555
C2B C1 1_555 1_555
H1B C2B 1_555 1_555
H2B C1B 1_555 1_555
H3B O2B 1_555 1_555
H4B C2B 1_555 1_555
H5B O2B 1_555 1_555
H6B C1B 1_555 1_555
O1B C2B 1_555 1_555

#END
