
#######################################################################
#
#                 Cambridge Crystallographic Data Centre
#                                CCDC 
#
#######################################################################
#
# If this CIF has been generated from an entry in the Cambridge 
# Structural Database, then it will include bibliographic, chemical, 
# crystal, experimental, refinement or atomic coordinate data resulting 
# from the CCDC's data processing and validation procedures.
#
#######################################################################

data_XUBJAF02
_symmetry_cell_setting           monoclinic
_symmetry_space_group_name_H-M   'C 2/c'
_symmetry_Int_Tables_number      15
_space_group_name_Hall           '-C 2yn'
loop_
_symmetry_equiv_pos_site_id
_symmetry_equiv_pos_as_xyz
1 x,y,z
2 1/2+x,1/2+y,z
3 -x,y,1/2-z
4 1/2-x,1/2+y,1/2-z
5 -x,-y,-z
6 1/2-x,1/2-y,-z
7 x,-y,1/2+z
8 1/2+x,1/2-y,1/2+z
_cell_length_a                   17.135(3)
_cell_length_b                   12.245(2)
_cell_length_c                   11.110(2)
_cell_angle_alpha                90
_cell_angle_beta                 127.52(3)
_cell_angle_gamma                90
_cell_volume                     1848.87
loop_
_atom_site_label
_atom_site_type_symbol
_atom_site_fract_x
_atom_site_fract_y
_atom_site_fract_z
Eu1 Eu 0.216876(16) 0.148343(16) 0.62029(2)
O1 O 0.1653(3) 0.1444(2) 0.7746(5)
O2 O 0.1283(3) 0.1843(3) 0.9279(5)
O3 O 0.2017(3) 0.4841(3) 0.7859(5)
O4 O 0.1601(2) 0.2907(3) 0.4083(4)
O5 O 0.0516(2) 0.2416(3) 0.4417(4)
O6 O 0.0862(4) 0.0050(4) 0.5105(7)
O7 O 0.2260(3) 0.3313(3) 0.7082(4)
O8 O 0.3746(3) 0.1802(3) 0.8823(4)
O9 O 0.1808(4) 0.0640(3) 0.3896(5)
C1 C 0.1404(4) 0.2106(4) 0.8322(5)
C2 C 0.1199(4) 0.3292(4) 0.7818(6)
H1 H 0.0534 0.3338 0.6880
H2 H 0.1216 0.3711 0.8575
C3 C 0.1883(3) 0.3836(4) 0.7563(5)
C4 C 0.0760(3) 0.2991(4) 0.3764(5)
C5 C 0.0000 0.3754(6) 0.2500
H3 H 0.031(5) 0.422(6) 0.212(8)
Eu1C Eu 0.283124(16) -0.351657(16) 0.87971(2)
Eu1C_2 Eu 0.283124(16) 0.648343(16) 0.87971(2)
Eu1E Eu 0.283124(16) 0.351657(16) 0.37971(2)
Eu1G Eu -0.283124(16) 0.351657(16) 0.12029(2)
Eu1B Eu -0.216876(16) 0.148343(16) -0.12029(2)
O1C O 0.3347(3) -0.3556(2) 0.7254(5)
O2C O 0.3717(3) -0.3157(3) 0.5721(5)
O3C O 0.2983(3) -0.0159(3) 0.7141(5)
O3_2 O 0.2017(3) -0.5159(3) 0.7859(5)
O4B O -0.1601(2) 0.2907(3) 0.0917(4)
O4E O 0.3399(2) 0.2093(3) 0.5917(4)
O4F O 0.1601(2) -0.2907(3) 0.9083(4)
O4C O 0.3399(2) -0.2093(3) 1.0917(4)
O5B O -0.0516(2) 0.2416(3) 0.0583(4)
O5C O 0.4484(2) -0.2584(3) 1.0583(4)
O6C O 0.4138(4) -0.4950(4) 0.9895(7)
O7C O 0.2740(3) -0.1687(3) 0.7918(4)
O8C O 0.1254(3) -0.3198(3) 0.6177(4)
O9C O 0.3192(4) -0.4360(3) 1.1104(5)
C1C C 0.3596(4) -0.2894(4) 0.6678(5)
C2C C 0.3801(4) -0.1708(4) 0.7182(6)
H1C H 0.4466 -0.1662 0.8120
H2C H 0.3784 -0.1289 0.6425
C3C C 0.3117(3) -0.1164(4) 0.7437(5)
C4B C -0.0760(3) 0.2991(4) 0.1236(5)
H3B H -0.031(5) 0.422(6) 0.288(8)
loop_
_geom_bond_atom_site_label_1
_geom_bond_atom_site_label_2
_geom_bond_site_symmetry_1
_geom_bond_site_symmetry_2
Eu1 O1 1_555 1_555
O1 C1 1_555 1_555
O2 C1 1_555 1_555
O3 C3 1_555 1_555
O4 Eu1 1_555 1_555
O5 Eu1 1_555 1_555
O6 Eu1 1_555 1_555
O7 Eu1 1_555 1_555
O8 Eu1 1_555 1_555
O9 Eu1 1_555 1_555
C1 C2 1_555 1_555
C2 H1 1_555 1_555
H2 C2 1_555 1_555
C3 O7 1_555 1_555
C4 O4 1_555 1_555
C5 C4 1_555 1_555
H3 C5 1_555 1_555
Eu1C O1C 1_555 1_555
Eu1C_2 O3 1_555 1_555
Eu1E O4 1_555 1_555
Eu1G O4B 1_555 1_555
Eu1B O4B 1_555 1_555
O1C C1C 1_555 1_555
O2C C1C 1_555 1_555
O3C Eu1 1_555 1_555
O3_2 Eu1C 1_555 1_555
O4B C4B 1_555 1_555
O4E Eu1 1_555 1_555
O4F Eu1C 1_555 1_555
O4C Eu1C 1_555 1_555
O5B Eu1B 1_555 1_555
O5C Eu1C 1_555 1_555
O6C Eu1C 1_555 1_555
O7C Eu1C 1_555 1_555
O8C Eu1C 1_555 1_555
O9C Eu1C 1_555 1_555
C1C C2C 1_555 1_555
C2C H1C 1_555 1_555
H2C C2C 1_555 1_555
C3C O3C 1_555 1_555
C4B C5 1_555 1_555
H3B C5 1_555 1_555
O5 C4 1_555 1_555
C2 C3 1_555 1_555
Eu1E O4E 1_555 1_555
O5B C4B 1_555 1_555
O7C C3C 1_555 1_555
C2C C3C 1_555 1_555

#END
