
#######################################################################
#
#                 Cambridge Crystallographic Data Centre
#                                CCDC 
#
#######################################################################
#
# If this CIF has been generated from an entry in the Cambridge 
# Structural Database, then it will include bibliographic, chemical, 
# crystal, experimental, refinement or atomic coordinate data resulting 
# from the CCDC's data processing and validation procedures.
#
#######################################################################

data_XUBJAF01
_symmetry_cell_setting           monoclinic
_symmetry_space_group_name_H-M   'I 2/a'
_symmetry_Int_Tables_number      15
_space_group_name_Hall           '-I 2ya'
loop_
_symmetry_equiv_pos_site_id
_symmetry_equiv_pos_as_xyz
1 x,y,z
2 1/2+x,1/2+y,1/2+z
3 1/2+x,-y,z
4 x,1/2-y,1/2+z
5 -x,-y,-z
6 1/2-x,1/2-y,1/2-z
7 1/2-x,y,-z
8 -x,1/2+y,1/2-z
_cell_length_a                   11.094(6)
_cell_length_b                   12.246(4)
_cell_length_c                   13.581(6)
_cell_angle_alpha                90
_cell_angle_beta                 93.00(3)
_cell_angle_gamma                90
_cell_volume                     1842.55
loop_
_atom_site_label
_atom_site_type_symbol
_atom_site_fract_x
_atom_site_fract_y
_atom_site_fract_z
Eu1 Eu 0.59645(3) 0.85151(3) 0.21684(2)
O1 O 0.3906(5) 0.8559(4) 0.1653(5)
O2 O 0.5190(5) 0.6677(4) 0.2262(4)
O3 O 0.4171(5) 0.5157(4) 0.2007(4)
O4 O 0.2002(5) 0.8162(5) 0.1280(5)
O5 O 0.6098(4) 0.7581(5) 0.0515(3)
O6 O 0.7518(4) 0.7093(4) 0.1597(3)
C1 C 0.3086(6) 0.7885(6) 0.1396(5)
C2 C 0.3409(7) 0.6717(6) 0.1197(6)
H1 H 0.2670 0.6293 0.1190
H2 H 0.3703 0.6683 0.0538
C3 C 0.4314(6) 0.6159(6) 0.1876(5)
C4 C 0.7001(6) 0.7009(6) 0.0750(5)
C5 C 0.7500 0.6256(8) 0.0000
H3 H 0.6875 0.5801 -0.0294
O7 O 0.7919(5) 0.9364(5) 0.1809(5)
O8 O 0.5745(7) 0.9941(5) 0.0855(5)
O9 O 0.4921(5) 0.8201(5) 0.3745(4)
C4F C 0.7999(6) 0.7009(6) -0.0750(5)
O5F O 0.8902(4) 0.7581(5) -0.0515(3)
O6F O 0.7482(4) 0.7093(4) -0.1597(3)
H3F H 0.8125 0.5801 0.0294
O1G O 0.6094(5) 1.3559(4) 0.3347(5)
O2G O 0.4810(5) 1.1677(4) 0.2738(4)
O3G O 0.5829(5) 1.0157(4) 0.2993(4)
O4G O 0.7998(5) 1.3162(5) 0.3720(5)
C1G C 0.6914(6) 1.2885(6) 0.3604(5)
C2G C 0.6591(7) 1.1717(6) 0.3803(6)
H1G H 0.7330 1.1293 0.3810
H2G H 0.6297 1.1683 0.4462
C3G C 0.5686(6) 1.1159(6) 0.3124(5)
Eu1G Eu 0.40355(3) 1.35151(3) 0.28316(2)
O7G O 0.2081(5) 1.4364(5) 0.3191(5)
O8G O 0.4255(7) 1.4941(5) 0.4145(5)
O9G O 0.5079(5) 1.3201(5) 0.1255(4)
O6E O 0.7482(4) 0.7907(4) 0.3403(3)
Eu1G_2 Eu 0.40355(3) 0.35151(3) 0.28316(2)
Eu1E Eu 0.90355(3) 0.64849(3) 0.28316(2)
Eu1F Eu 0.90355(3) 0.85151(3) -0.21684(2)
Eu1C Eu 0.59645(3) 0.64849(3) -0.28316(2)
O3_2 O 0.4171(5) 1.5157(4) 0.2007(4)
O5G O 0.3902(4) 1.2581(5) 0.4485(3)
O6B O 0.2518(4) 1.2907(4) 0.1597(3)
O6G O 0.2482(4) 1.2093(4) 0.3403(3)
loop_
_geom_bond_atom_site_label_1
_geom_bond_atom_site_label_2
_geom_bond_site_symmetry_1
_geom_bond_site_symmetry_2
Eu1 O1 1_555 1_555
O1 C1 1_555 1_555
O2 Eu1 1_555 1_555
O3 C3 1_555 1_555
O4 C1 1_555 1_555
O5 Eu1 1_555 1_555
O6 Eu1 1_555 1_555
C1 C2 1_555 1_555
C2 H1 1_555 1_555
H2 C2 1_555 1_555
C3 O2 1_555 1_555
C4 O5 1_555 1_555
C5 C4 1_555 1_555
H3 C5 1_555 1_555
O7 Eu1 1_555 1_555
O8 Eu1 1_555 1_555
O9 Eu1 1_555 1_555
C4F C5 1_555 1_555
O5F C4F 1_555 1_555
O6F C4F 1_555 1_555
H3F C5 1_555 1_555
O1G C1G 1_555 1_555
O2G C3G 1_555 1_555
O3G Eu1 1_555 1_555
O4G C1G 1_555 1_555
C1G C2G 1_555 1_555
C2G H1G 1_555 1_555
H2G C2G 1_555 1_555
C3G O3G 1_555 1_555
Eu1G O1G 1_555 1_555
O7G Eu1G 1_555 1_555
O8G Eu1G 1_555 1_555
O9G Eu1G 1_555 1_555
O6E Eu1 1_555 1_555
Eu1G_2 O3 1_555 1_555
Eu1E O6 1_555 1_555
Eu1F O5F 1_555 1_555
Eu1C O6F 1_555 1_555
O3_2 Eu1G 1_555 1_555
O5G Eu1G 1_555 1_555
O6B Eu1G 1_555 1_555
O6G Eu1G 1_555 1_555
O6 C4 1_555 1_555
C2 C3 1_555 1_555
O6F Eu1F 1_555 1_555
O2G Eu1G 1_555 1_555
C2G C3G 1_555 1_555
O6E Eu1E 1_555 1_555

#END
