
#######################################################################
#
#                 Cambridge Crystallographic Data Centre
#                                CCDC 
#
#######################################################################
#
# If this CIF has been generated from an entry in the Cambridge 
# Structural Database, then it will include bibliographic, chemical, 
# crystal, experimental, refinement or atomic coordinate data resulting 
# from the CCDC's data processing and validation procedures.
#
#######################################################################

data_XUBJAF03
_symmetry_cell_setting           monoclinic
_symmetry_space_group_name_H-M   'C 2/c'
_symmetry_Int_Tables_number      15
_space_group_name_Hall           '-C 2yn'
loop_
_symmetry_equiv_pos_site_id
_symmetry_equiv_pos_as_xyz
1 x,y,z
2 -x,y,1/2-z
3 1/2+x,1/2+y,z
4 1/2-x,1/2+y,1/2-z
5 -x,-y,-z
6 x,-y,1/2+z
7 1/2-x,1/2-y,-z
8 1/2+x,1/2-y,1/2+z
_cell_length_a                   17.1551(19)
_cell_length_b                   12.2767(13)
_cell_length_c                   11.1298(12)
_cell_angle_alpha                90
_cell_angle_beta                 127.5340(10)
_cell_angle_gamma                90
_cell_volume                     1858.79
loop_
_atom_site_label
_atom_site_type_symbol
_atom_site_fract_x
_atom_site_fract_y
_atom_site_fract_z
Eu1 Eu 0.78310(2) 0.85168(2) 1.37965(3)
O1 O 0.8348(4) 0.8562(3) 1.2260(6)
O2 O 0.8718(4) 0.8157(4) 1.0719(6)
O3 O 0.7738(3) 0.6681(3) 1.2921(5)
O4 O 0.7981(4) 0.5159(3) 1.2142(6)
O5 O 0.5515(3) 0.7421(4) 1.4418(5)
O6 O 0.6601(3) 0.7912(3) 1.4086(4)
O7 O 0.8193(4) 0.9359(4) 1.6104(6)
H1 H 0.816(6) 1.003(2) 1.626(9)
H2 H 0.796(6) 0.913(7) 1.655(9)
O8 O 0.9148(4) 0.9951(4) 1.4902(7)
O9 O 0.6256(3) 0.8205(4) 1.1185(5)
H3 H 0.635(9) 0.778(8) 1.069(12)
C1 C 0.8601(4) 0.7887(5) 1.1685(7)
C2 C 0.8814(5) 0.6725(5) 1.2222(8)
H4 H 0.8835 0.6300 1.1507
H5 H 0.9467 0.6701 1.3184
C3 C 0.8119(4) 0.6159(5) 1.2430(7)
C4 C 0.5756(4) 0.7995(5) 1.3749(6)
C5 C 0.5000 0.8752(7) 1.2500
H6 H 0.4710 0.9206 1.2833
Eu1C Eu 0.71690(2) 1.35168(2) 1.12035(3)
Eu1C_2 Eu 0.71690(2) 0.35168(2) 1.12035(3)
Eu1F Eu 0.71690(2) 0.64832(2) 1.62035(3)
Eu1G Eu 0.28310(2) 0.64832(2) 0.87965(3)
Eu1A Eu 0.21690(2) 0.85168(2) 1.12035(3)
O1C O 0.6652(4) 1.3562(3) 1.2740(6)
O2C O 0.6282(4) 1.3157(4) 1.4281(6)
O3C O 0.7262(3) 1.1681(3) 1.2079(5)
O4C O 0.7019(4) 1.0159(3) 1.2858(6)
O4_2 O 0.7981(4) 1.5159(3) 1.2142(6)
O5A O 0.4485(3) 0.7421(4) 1.0582(5)
O5F O 0.9485(3) 0.7579(4) 1.5582(5)
O5E O 0.5515(3) 1.2579(4) 0.9418(5)
O6A O 0.3399(3) 0.7912(3) 1.0914(4)
O6F O 0.8399(3) 0.7088(3) 1.5914(4)
O6C O 0.8399(3) 1.2912(3) 1.0914(4)
O6E O 0.6601(3) 1.2088(3) 0.9086(4)
O7C O 0.6807(4) 1.4359(4) 0.8896(6)
H1C H 0.684(6) 1.503(2) 0.874(9)
H2C H 0.704(6) 1.413(7) 0.845(9)
O8C O 0.5852(4) 1.4951(4) 1.0098(7)
O9C O 0.8744(3) 1.3205(4) 1.3815(5)
H3C H 0.865(9) 1.278(8) 1.431(12)
C1C C 0.6399(4) 1.2887(5) 1.3315(7)
C2C C 0.6186(5) 1.1725(5) 1.2778(8)
H4C H 0.6165 1.1300 1.3493
H5C H 0.5533 1.1701 1.1816
C3C C 0.6881(4) 1.1159(5) 1.2570(7)
C4A C 0.4244(4) 0.7995(5) 1.1251(6)
H6A H 0.5290 0.9206 1.2167
loop_
_geom_bond_atom_site_label_1
_geom_bond_atom_site_label_2
_geom_bond_site_symmetry_1
_geom_bond_site_symmetry_2
Eu1 O1 1_555 1_555
O1 C1 1_555 1_555
O2 C1 1_555 1_555
O3 Eu1 1_555 1_555
O4 C3 1_555 1_555
O5 C4 1_555 1_555
O6 Eu1 1_555 1_555
O7 Eu1 1_555 1_555
H1 O7 1_555 1_555
H2 O7 1_555 1_555
O8 Eu1 1_555 1_555
O9 Eu1 1_555 1_555
H3 O9 1_555 1_555
C1 C2 1_555 1_555
C2 H4 1_555 1_555
H5 C2 1_555 1_555
C3 O3 1_555 1_555
C4 O6 1_555 1_555
C5 C4 1_555 1_555
H6 C5 1_555 1_555
Eu1C O1C 1_555 1_555
Eu1C_2 O4 1_555 1_555
Eu1F O5 1_555 1_555
Eu1G O5A 1_555 1_555
Eu1A O6A 1_555 1_555
O1C C1C 1_555 1_555
O2C C1C 1_555 1_555
O3C Eu1C 1_555 1_555
O4C Eu1 1_555 1_555
O4_2 Eu1C 1_555 1_555
O5A C4A 1_555 1_555
O5F Eu1 1_555 1_555
O5E Eu1C 1_555 1_555
O6A Eu1G 1_555 1_555
O6F Eu1 1_555 1_555
O6C Eu1C 1_555 1_555
O6E Eu1C 1_555 1_555
O7C Eu1C 1_555 1_555
H1C O7C 1_555 1_555
H2C O7C 1_555 1_555
O8C Eu1C 1_555 1_555
O9C Eu1C 1_555 1_555
H3C O9C 1_555 1_555
C1C C2C 1_555 1_555
C2C H4C 1_555 1_555
H5C C2C 1_555 1_555
C3C O3C 1_555 1_555
C4A C5 1_555 1_555
H6A C5 1_555 1_555
O6 Eu1F 1_555 1_555
C2 C3 1_555 1_555
Eu1F O6F 1_555 1_555
O4C C3C 1_555 1_555
O6A C4A 1_555 1_555
C2C C3C 1_555 1_555

#END
