
#######################################################################
#
#                 Cambridge Crystallographic Data Centre
#                                CCDC 
#
#######################################################################
#
# If this CIF has been generated from an entry in the Cambridge 
# Structural Database, then it will include bibliographic, chemical, 
# crystal, experimental, refinement or atomic coordinate data resulting 
# from the CCDC's data processing and validation procedures.
#
#######################################################################

data_XUBLUD
_symmetry_cell_setting           triclinic
_symmetry_space_group_name_H-M   'P -1'
_symmetry_Int_Tables_number      2
_space_group_name_Hall           '-P 1'
loop_
_symmetry_equiv_pos_site_id
_symmetry_equiv_pos_as_xyz
1 x,y,z
2 -x,-y,-z
_cell_length_a                   7.8745(8)
_cell_length_b                   9.5915(10)
_cell_length_c                   17.3499(18)
_cell_angle_alpha                100.8390(10)
_cell_angle_beta                 91.4490(10)
_cell_angle_gamma                106.9250(10)
_cell_volume                     1226.81
loop_
_atom_site_label
_atom_site_type_symbol
_atom_site_fract_x
_atom_site_fract_y
_atom_site_fract_z
Hg1 Hg 0.86710(12) 0.12905(10) 0.17235(5)
Hg2 Hg 1.63228(12) -0.12936(10) 0.32755(5)
C1 C 1.124(3) 0.470(2) 0.1024(14)
C2 C 1.203(3) 0.527(2) 0.0405(13)
H1 H 1.2033 0.6210 0.0334
C3 C 1.279(3) 0.445(2) -0.0086(13)
H2 H 1.3304 0.4790 -0.0518
C4 C 1.280(3) 0.306(2) 0.0051(13)
H3 H 1.3339 0.2471 -0.0282
C5 C 1.199(2) 0.258(2) 0.0690(11)
C6 C 1.199(2) 0.1093(16) 0.0834(10)
H4 H 1.2804 0.0646 0.0601
C7 C 1.121(3) -0.0878(19) 0.1490(12)
H5 H 1.2184 -0.1100 0.1211
H6 H 1.0155 -0.1727 0.1329
C8 C 1.166(2) -0.065(2) 0.2365(11)
H7 H 1.1832 -0.1556 0.2482
H8 H 1.0672 -0.0468 0.2643
C9 C 1.335(2) 0.0648(15) 0.2659(10)
H9 H 1.4332 0.0446 0.2384
H10 H 1.3180 0.1539 0.2523
C10 C 1.384(3) 0.096(2) 0.3536(11)
H11 H 1.2914 0.1238 0.3825
H12 H 1.4946 0.1762 0.3677
C11 C 1.303(2) -0.119(2) 0.4169(10)
H13 H 1.2199 -0.0775 0.4410
C12 C 1.305(3) -0.262(2) 0.4319(13)
C13 C 1.219(2) -0.305(2) 0.4943(11)
H14 H 1.1623 -0.2455 0.5254
C14 C 1.219(2) -0.442(3) 0.5100(12)
H15 H 1.1677 -0.4740 0.5539
C15 C 1.294(3) -0.528(3) 0.4602(14)
H16 H 1.2939 -0.6206 0.4691
C16 C 1.374(2) -0.476(2) 0.3943(12)
C17 C 0.981(3) 0.523(2) 0.2219(14)
H17 H 0.9386 0.6015 0.2495
H18 H 1.0697 0.5076 0.2553
H19 H 0.8833 0.4332 0.2075
C18 C 1.519(3) -0.516(2) 0.2778(15)
H20 H 1.5655 -0.5887 0.2476
H21 H 1.6132 -0.4239 0.2946
H22 H 1.4280 -0.4994 0.2459
N1 N 1.116(2) 0.3385(17) 0.1181(9)
N2 N 1.089(2) 0.0427(19) 0.1269(9)
N3 N 1.4057(18) -0.0463(16) 0.3731(9)
N4 N 1.3832(19) -0.3423(17) 0.3808(9)
Cl1 Cl 0.8660(9) 0.1883(7) 0.3135(4)
Cl2 Cl 0.6595(8) 0.1575(8) 0.0786(4)
Cl3 Cl 1.8395(8) -0.1576(8) 0.4211(4)
Cl4 Cl 1.6321(9) -0.1883(7) 0.1864(4)
O1 O 1.057(2) 0.5640(16) 0.1527(10)
O2 O 1.444(2) -0.5679(16) 0.3459(11)
Hg1_2 Hg 1.86710(12) 0.12905(10) 0.17235(5)
Hg2_2 Hg 0.63228(12) -0.12936(10) 0.32755(5)
Cl1_2 Cl 1.8660(9) 0.1883(7) 0.3135(4)
Cl4_2 Cl 0.6321(9) -0.1883(7) 0.1864(4)
loop_
_geom_bond_atom_site_label_1
_geom_bond_atom_site_label_2
_geom_bond_site_symmetry_1
_geom_bond_site_symmetry_2
Hg1 N1 1_555 1_555
Hg2 N3 1_555 1_555
C1 C2 1_555 1_555
C2 H1 1_555 1_555
C3 C2 1_555 1_555
H2 C3 1_555 1_555
C4 C3 1_555 1_555
H3 C4 1_555 1_555
C5 C4 1_555 1_555
C6 C5 1_555 1_555
H4 C6 1_555 1_555
C7 H5 1_555 1_555
H6 C7 1_555 1_555
C8 C7 1_555 1_555
H7 C8 1_555 1_555
H8 C8 1_555 1_555
C9 C8 1_555 1_555
H9 C9 1_555 1_555
H10 C9 1_555 1_555
C10 C9 1_555 1_555
H11 C10 1_555 1_555
H12 C10 1_555 1_555
C11 H13 1_555 1_555
C12 C11 1_555 1_555
C13 C12 1_555 1_555
H14 C13 1_555 1_555
C14 C13 1_555 1_555
H15 C14 1_555 1_555
C15 C14 1_555 1_555
H16 C15 1_555 1_555
C16 C15 1_555 1_555
C17 H17 1_555 1_555
H18 C17 1_555 1_555
H19 C17 1_555 1_555
C18 H20 1_555 1_555
H21 C18 1_555 1_555
H22 C18 1_555 1_555
N1 C1 1_555 1_555
N2 Hg1 1_555 1_555
N3 C10 1_555 1_555
N4 Hg2 1_555 1_555
Cl1 Hg1 1_555 1_555
Cl2 Hg1 1_555 1_555
Cl3 Hg2 1_555 1_555
Cl4 Hg2 1_555 1_555
O1 C1 1_555 1_555
O2 C16 1_555 1_555
Hg1_2 Cl4 1_555 1_555
Hg2_2 Cl1 1_555 1_555
Cl1_2 Hg2 1_555 1_555
Cl4_2 Hg1 1_555 1_555
C5 N1 1_555 1_555
C6 N2 1_555 1_555
C7 N2 1_555 1_555
C11 N3 1_555 1_555
C12 N4 1_555 1_555
C16 N4 1_555 1_555
C17 O1 1_555 1_555
C18 O2 1_555 1_555
Hg1_2 Cl1_2 1_555 1_555
Hg2_2 Cl4_2 1_555 1_555

#END
