
#######################################################################
#
#                 Cambridge Crystallographic Data Centre
#                                CCDC 
#
#######################################################################
#
# If this CIF has been generated from an entry in the Cambridge 
# Structural Database, then it will include bibliographic, chemical, 
# crystal, experimental, refinement or atomic coordinate data resulting 
# from the CCDC's data processing and validation procedures.
#
#######################################################################

data_XUBLUC01
_symmetry_cell_setting           monoclinic
_symmetry_space_group_name_H-M   'C 2'
_symmetry_Int_Tables_number      5
_space_group_name_Hall           'C 2y'
loop_
_symmetry_equiv_pos_site_id
_symmetry_equiv_pos_as_xyz
1 x,y,z
2 -x,y,-z
3 1/2+x,1/2+y,z
4 1/2-x,1/2+y,-z
_cell_length_a                   17.3387(4)
_cell_length_b                   12.8748(4)
_cell_length_c                   6.5302(2)
_cell_angle_alpha                90
_cell_angle_beta                 111.620(2)
_cell_angle_gamma                90
_cell_volume                     1355.2
loop_
_atom_site_label
_atom_site_type_symbol
_atom_site_fract_x
_atom_site_fract_y
_atom_site_fract_z
C1 C 0.34886(19) 0.4982(3) 0.2713(5)
C2 C 0.4267(2) 0.5597(3) 0.3909(5)
C3 C 0.5000 0.5053(4) 0.5000
H1 H 0.5000 0.4331 0.5000
C4 C 0.4267(2) 0.6672(3) 0.3919(5)
H2 H 0.3777 0.7032 0.3201
C5 C 0.5000 0.7217(4) 0.5000
C6 C 0.5000 0.8390(4) 0.5000
C7 C 0.1557(2) 0.1113(3) 0.2157(5)
C8 C 0.0740(2) 0.0559(3) 0.1070(5)
C9 C 0.0000 0.1099(4) 0.0000
H3 H 0.0000 0.1821 0.0000
C10 C 0.0732(2) -0.0517(3) 0.1095(5)
H4 H 0.1218 -0.0880 0.1848
C11 C 0.0000 -0.1059(4) 0.0000
C12 C 0.0000 -0.2205(4) 0.0000
Ni1 Ni 0.25819(2) 0.29904(3) 0.22828(6)
Ni2 Ni 0.0000 -0.41088(5) 0.0000
O1 O 0.35324(15) 0.4013(2) 0.2991(4)
O2 O 0.28523(16) 0.5464(2) 0.1505(4)
O3 O 0.17770(16) 0.4023(2) 0.0138(5)
H5 H 0.2016 0.4576 0.0170
O4 O 0.23502(18) 0.3637(2) 0.4942(5)
H6 H 0.2514 0.4239 0.5123
O5 O 0.27838(17) 0.2363(2) -0.0427(5)
H7 H 0.2572 0.1785 -0.0700
O6 O 0.34032(17) 0.1900(2) 0.4264(5)
H8 H 0.3650 0.2150 0.5486
O7 O 0.15810(16) 0.2058(2) 0.1675(4)
O8 O 0.21612(16) 0.0609(2) 0.3450(4)
O9 O 0.06422(16) -0.2711(2) 0.1167(4)
O10 O -0.0559(2) -0.4160(3) 0.2324(5)
H9 H -0.0578 -0.4763 0.2706
O11 O 0.0809(3) -0.5111(4) 0.1980(7)
H10 H 0.0611 -0.5374 0.2821
O12 O 0.43128(18) 0.8860(2) 0.4285(5)
H11 H -0.072(5) -0.374(5) 0.300(12)
H12 H 0.102(4) -0.544(5) 0.127(12)
H13 H 0.197(3) 0.344(5) 0.529(10)
H14 H 0.324(2) 0.232(6) -0.052(11)
H15 H 0.151(4) 0.389(5) -0.119(10)
H16 H 0.304(4) 0.144(5) 0.434(9)
C1A C 0.65114(19) 0.4982(3) 0.7287(5)
C2A C 0.5733(2) 0.5597(3) 0.6091(5)
C4A C 0.5733(2) 0.6672(3) 0.6081(5)
H2A H 0.6223 0.7032 0.6799
C7A C -0.1557(2) 0.1113(3) -0.2157(5)
C8A C -0.0740(2) 0.0559(3) -0.1070(5)
C10A C -0.0732(2) -0.0517(3) -0.1095(5)
H4A H -0.1218 -0.0880 -0.1848
Ni1A Ni -0.25819(2) 0.29904(3) -0.22828(6)
Ni1A_2 Ni 0.74181(2) 0.29904(3) 0.77172(6)
O1A O 0.64676(15) 0.4013(2) 0.7009(4)
O1A_2 O -0.35324(15) 0.4013(2) -0.2991(4)
O2A O 0.71477(16) 0.5464(2) 0.8495(4)
O3A O -0.17770(16) 0.4023(2) -0.0138(5)
H5A H -0.2016 0.4576 -0.0170
O4A O -0.23502(18) 0.3637(2) -0.4942(5)
H6A H -0.2514 0.4239 -0.5123
O5A O -0.27838(17) 0.2363(2) 0.0427(5)
H7A H -0.2572 0.1785 0.0700
O6A O -0.34032(17) 0.1900(2) -0.4264(5)
H8A H -0.3650 0.2150 -0.5486
O7A O -0.15810(16) 0.2058(2) -0.1675(4)
O8A O -0.21612(16) 0.0609(2) -0.3450(4)
O9A O -0.06422(16) -0.2711(2) -0.1167(4)
O10A O 0.0559(2) -0.4160(3) -0.2324(5)
H9A H 0.0578 -0.4763 -0.2706
O11A O -0.0809(3) -0.5111(4) -0.1980(7)
H10A H -0.0611 -0.5374 -0.2821
O12A O 0.56872(18) 0.8860(2) 0.5715(5)
H11A H 0.072(5) -0.374(5) -0.300(12)
H12A H -0.102(4) -0.544(5) -0.127(12)
H13A H -0.197(3) 0.344(5) -0.529(10)
H14A H -0.324(2) 0.232(6) 0.052(11)
H15A H -0.151(4) 0.389(5) 0.119(10)
H16A H -0.304(4) 0.144(5) -0.434(9)
loop_
_geom_bond_atom_site_label_1
_geom_bond_atom_site_label_2
_geom_bond_site_symmetry_1
_geom_bond_site_symmetry_2
C1 C2 1_555 1_555
C2 C3 1_555 1_555
C3 H1 1_555 1_555
C4 C2 1_555 1_555
H2 C4 1_555 1_555
C5 C4 1_555 1_555
C6 C5 1_555 1_555
C7 C8 1_555 1_555
C8 C9 1_555 1_555
C9 H3 1_555 1_555
C10 C8 1_555 1_555
H4 C10 1_555 1_555
C11 C10 1_555 1_555
C12 C11 1_555 1_555
Ni1 O1 1_555 1_555
Ni2 O9 1_555 1_555
O1 C1 1_555 1_555
O2 C1 1_555 1_555
O3 Ni1 1_555 1_555
H5 O3 1_555 1_555
O4 Ni1 1_555 1_555
H6 O4 1_555 1_555
O5 Ni1 1_555 1_555
H7 O5 1_555 1_555
O6 Ni1 1_555 1_555
H8 O6 1_555 1_555
O7 C7 1_555 1_555
O8 C7 1_555 1_555
O9 C12 1_555 1_555
O10 Ni2 1_555 1_555
H9 O10 1_555 1_555
O11 Ni2 1_555 1_555
H10 O11 1_555 1_555
O12 C6 1_555 1_555
H11 O10 1_555 1_555
H12 O11 1_555 1_555
H13 O4 1_555 1_555
H14 O5 1_555 1_555
H15 O3 1_555 1_555
H16 O6 1_555 1_555
C1A C2A 1_555 1_555
C2A C3 1_555 1_555
C4A C5 1_555 1_555
H2A C4A 1_555 1_555
C7A C8A 1_555 1_555
C8A C9 1_555 1_555
C10A C11 1_555 1_555
H4A C10A 1_555 1_555
Ni1A O1A_2 1_555 1_555
Ni1A_2 O1A 1_555 1_555
O1A C1A 1_555 1_555
O2A C1A 1_555 1_555
O3A Ni1A 1_555 1_555
H5A O3A 1_555 1_555
O4A Ni1A 1_555 1_555
H6A O4A 1_555 1_555
O5A Ni1A 1_555 1_555
H7A O5A 1_555 1_555
O6A Ni1A 1_555 1_555
H8A O6A 1_555 1_555
O7A C7A 1_555 1_555
O8A C7A 1_555 1_555
O9A C12 1_555 1_555
O10A Ni2 1_555 1_555
H9A O10A 1_555 1_555
O11A Ni2 1_555 1_555
H10A O11A 1_555 1_555
O12A C6 1_555 1_555
H11A O10A 1_555 1_555
H12A O11A 1_555 1_555
H13A O4A 1_555 1_555
H14A O5A 1_555 1_555
H15A O3A 1_555 1_555
H16A O6A 1_555 1_555
Ni1 O7 1_555 1_555
Ni2 O9A 1_555 1_555
C2A C4A 1_555 1_555
C8A C10A 1_555 1_555
Ni1A O7A 1_555 1_555

#END
