
#######################################################################
#
#                 Cambridge Crystallographic Data Centre
#                                CCDC 
#
#######################################################################
#
# If this CIF has been generated from an entry in the Cambridge 
# Structural Database, then it will include bibliographic, chemical, 
# crystal, experimental, refinement or atomic coordinate data resulting 
# from the CCDC's data processing and validation procedures.
#
#######################################################################

data_XUBLIQ
_symmetry_cell_setting           triclinic
_symmetry_space_group_name_H-M   'P -1'
_symmetry_Int_Tables_number      2
_space_group_name_Hall           '-P 1'
loop_
_symmetry_equiv_pos_site_id
_symmetry_equiv_pos_as_xyz
1 x,y,z
2 -x,-y,-z
_cell_length_a                   9.1374(12)
_cell_length_b                   10.1394(14)
_cell_length_c                   12.9642(18)
_cell_angle_alpha                80.046(2)
_cell_angle_beta                 83.233(2)
_cell_angle_gamma                70.004(2)
_cell_volume                     1109.47
loop_
_atom_site_label
_atom_site_type_symbol
_atom_site_fract_x
_atom_site_fract_y
_atom_site_fract_z
Ni1 Ni -0.11002(5) 0.18147(4) 0.34656(3)
N1 N 0.1280(3) 0.0814(3) 0.3229(2)
N2 N 0.3530(3) -0.0730(3) 0.2776(2)
N3 N 0.4261(3) -0.5489(3) 0.3554(2)
N4 N 0.6546(3) -0.7159(3) 0.3708(2)
O1 O -0.0886(3) 0.3683(2) 0.27370(18)
O2 O -0.0881(4) 0.4666(3) 0.4146(2)
O3 O -0.1442(3) 0.9777(2) 0.37521(17)
O4 O -0.1529(3) 1.0986(2) 0.21699(17)
O5 O -0.0840(3) 0.2116(3) 0.4966(2)
Br1 Br -0.14928(6) 0.76345(5) -0.06669(3)
C1 C -0.0961(4) 0.4705(3) 0.3195(3)
C2 C -0.1196(4) 0.6114(3) 0.2502(3)
C3 C -0.1282(4) 0.6229(4) 0.1422(3)
H1 H -0.1227 0.5444 0.1120
C4 C -0.1448(4) 0.7516(4) 0.0806(3)
C5 C -0.1547(4) 0.8709(4) 0.1226(3)
H2 H -0.1661 0.9569 0.0796
C6 C -0.1473(4) 0.8599(3) 0.2307(3)
C7 C -0.1303(4) 0.7308(3) 0.2944(3)
H3 H -0.1260 0.7240 0.3665
C8 C -0.1508(4) 0.9869(3) 0.2772(3)
C9 C 0.2459(5) 0.1249(4) 0.3411(3)
H4 H 0.2329 0.2076 0.3682
C10 C 0.3845(5) 0.0317(4) 0.3144(3)
H5 H 0.4826 0.0376 0.3199
C11 C 0.1973(4) -0.0380(4) 0.2842(3)
H6 H 0.1444 -0.0919 0.2638
C12 C 0.4673(4) -0.2047(4) 0.2455(3)
H7 H 0.4975 -0.2743 0.3074
H8 H 0.5601 -0.1848 0.2128
C13 C 0.4039(4) -0.2660(4) 0.1699(3)
C14 C 0.4232(5) -0.2198(5) 0.0633(4)
H9 H 0.4746 -0.1540 0.0412
C15 C 0.3664(5) -0.2713(5) -0.0108(4)
H10 H 0.3765 -0.2380 -0.0819
C16 C 0.2960(4) -0.3706(3) 0.0223(3)
H11 H 0.2594 -0.4069 -0.0267
C17 C 0.2782(4) -0.4182(3) 0.1269(3)
H12 H 0.2305 -0.4871 0.1477
C18 C 0.3299(4) -0.3658(4) 0.2031(3)
C19 C 0.3027(5) -0.4184(4) 0.3173(4)
H13 H 0.2961 -0.3452 0.3587
H14 H 0.2035 -0.4356 0.3275
C20 C 0.5718(4) -0.6006(4) 0.3131(3)
H15 H 0.6095 -0.5598 0.2505
C21 C 0.5557(5) -0.7398(4) 0.4541(3)
H16 H 0.5813 -0.8154 0.5082
C22 C 0.4150(5) -0.6367(5) 0.4458(3)
H17 H 0.3280 -0.6278 0.4926
H18 H -0.067(5) 0.285(5) 0.483(3)
H19 H -0.008(5) 0.158(4) 0.529(3)
Ni1_2 Ni -0.11002(5) 1.18147(4) 0.34656(3)
Ni1_3 Ni 0.88998(5) -0.81853(4) 0.34656(3)
N4_2 N -0.3454(3) 0.2841(3) 0.3708(2)
O3_2 O -0.1442(3) -0.0223(2) 0.37521(17)
O4_2 O -0.1529(3) 0.0986(2) 0.21699(17)
C8_2 C -0.1508(4) -0.0131(3) 0.2772(3)
loop_
_geom_bond_atom_site_label_1
_geom_bond_atom_site_label_2
_geom_bond_site_symmetry_1
_geom_bond_site_symmetry_2
Ni1 N1 1_555 1_555
N1 C9 1_555 1_555
N2 C10 1_555 1_555
N3 C19 1_555 1_555
N4 C20 1_555 1_555
O1 Ni1 1_555 1_555
O2 C1 1_555 1_555
O3 C8 1_555 1_555
O4 C8 1_555 1_555
O5 Ni1 1_555 1_555
Br1 C4 1_555 1_555
C1 O1 1_555 1_555
C2 C1 1_555 1_555
C3 C2 1_555 1_555
H1 C3 1_555 1_555
C4 C3 1_555 1_555
C5 C4 1_555 1_555
H2 C5 1_555 1_555
C6 C5 1_555 1_555
C7 C2 1_555 1_555
H3 C7 1_555 1_555
C8 C6 1_555 1_555
C9 H4 1_555 1_555
C10 C9 1_555 1_555
H5 C10 1_555 1_555
C11 N1 1_555 1_555
H6 C11 1_555 1_555
C12 N2 1_555 1_555
H7 C12 1_555 1_555
H8 C12 1_555 1_555
C13 C12 1_555 1_555
C14 C13 1_555 1_555
H9 C14 1_555 1_555
C15 C14 1_555 1_555
H10 C15 1_555 1_555
C16 C15 1_555 1_555
H11 C16 1_555 1_555
C17 C16 1_555 1_555
H12 C17 1_555 1_555
C18 C13 1_555 1_555
C19 C18 1_555 1_555
H13 C19 1_555 1_555
H14 C19 1_555 1_555
C20 N3 1_555 1_555
H15 C20 1_555 1_555
C21 N4 1_555 1_555
H16 C21 1_555 1_555
C22 N3 1_555 1_555
H17 C22 1_555 1_555
H18 O5 1_555 1_555
H19 O5 1_555 1_555
Ni1_2 O3 1_555 1_555
Ni1_3 N4 1_555 1_555
N4_2 Ni1 1_555 1_555
O3_2 Ni1 1_555 1_555
O4_2 Ni1 1_555 1_555
C8_2 O3_2 1_555 1_555
N2 C11 1_555 1_555
O4 Ni1_2 1_555 1_555
C6 C7 1_555 1_555
C17 C18 1_555 1_555
C21 C22 1_555 1_555
O4_2 C8_2 1_555 1_555

#END
