
#######################################################################
#
#                 Cambridge Crystallographic Data Centre
#                                CCDC 
#
#######################################################################
#
# If this CIF has been generated from an entry in the Cambridge 
# Structural Database, then it will include bibliographic, chemical, 
# crystal, experimental, refinement or atomic coordinate data resulting 
# from the CCDC's data processing and validation procedures.
#
#######################################################################

data_XUBPER
_symmetry_cell_setting           triclinic
_symmetry_space_group_name_H-M   'P -1'
_symmetry_Int_Tables_number      2
_space_group_name_Hall           '-P 1'
loop_
_symmetry_equiv_pos_site_id
_symmetry_equiv_pos_as_xyz
1 x,y,z
2 -x,-y,-z
_cell_length_a                   8.9976(6)
_cell_length_b                   9.3056(6)
_cell_length_c                   13.6701(8)
_cell_angle_alpha                97.2840(10)
_cell_angle_beta                 104.5170(10)
_cell_angle_gamma                92.9670(10)
_cell_volume                     1094.92
loop_
_atom_site_label
_atom_site_type_symbol
_atom_site_fract_x
_atom_site_fract_y
_atom_site_fract_z
Ni1 Ni 1.0000 0.0000 1.0000
O1 O 1.23479(15) -0.03426(16) 1.02243(11)
H1 H 1.3081 0.0028 1.0022
H2 H 1.2742 -0.0799 1.0713
N1 N 0.98107(18) 0.03067(18) 0.84850(12)
N2 N 1.00796(19) 0.12220(18) 0.71233(12)
N3 N 0.9335(3) 0.5619(2) 0.86147(15)
N4 N 0.93452(19) 0.77898(18) 0.94543(13)
C1 C 0.8590(2) -0.0242(2) 0.76642(17)
H3 H 0.7785 -0.0895 0.7686
C2 C 0.8741(3) 0.0313(3) 0.68233(17)
H4 H 0.8074 0.0119 0.6172
C3 C 1.0678(2) 0.1169(2) 0.81261(14)
H5 H 1.1594 0.1682 0.8515
C4 C 1.0657(3) 0.2211(2) 0.65245(16)
H6 H 1.0873 0.1647 0.5936
H7 H 1.1617 0.2731 0.6937
C5 C 0.9519(3) 0.3300(2) 0.61628(15)
C6 C 0.9129(3) 0.4370(2) 0.68438(17)
C7 C 0.8119(3) 0.5359(3) 0.6458(2)
H8 H 0.7838 0.6073 0.6902
C8 C 0.7518(3) 0.5287(3) 0.5401(2)
H9 H 0.6852 0.5963 0.5149
C9 C 0.7897(4) 0.4241(3) 0.4741(2)
H10 H 0.7490 0.4197 0.4041
C10 C 0.8889(3) 0.3246(3) 0.51171(17)
H11 H 0.9144 0.2526 0.4665
C11 C 0.9770(4) 0.4414(3) 0.79900(18)
H12 H 0.9422 0.3512 0.8181
H13 H 1.0886 0.4465 0.8143
C12 C 1.0091(3) 0.6941(2) 0.89401(16)
H14 H 1.1027 0.7220 0.8817
C13 C 0.8030(3) 0.5617(3) 0.8952(2)
H15 H 0.7286 0.4842 0.8853
C14 C 0.8031(3) 0.6968(3) 0.94587(18)
H16 H 0.7267 0.7287 0.9761
O1A O 0.76521(15) 0.03426(16) 0.97757(11)
H1A H 0.6919 -0.0028 0.9978
H2A H 0.7258 0.0799 0.9287
N1A N 1.01893(18) -0.03067(18) 1.15150(12)
N2A N 0.99204(19) -0.12220(18) 1.28767(12)
N3A N 1.0665(3) -0.5619(2) 1.13853(15)
N4A N 1.06548(19) -0.77898(18) 1.05457(13)
C1A C 1.1410(2) 0.0242(2) 1.23358(17)
H3A H 1.2215 0.0895 1.2314
C2A C 1.1259(3) -0.0313(3) 1.31767(17)
H4A H 1.1926 -0.0119 1.3828
C3A C 0.9322(2) -0.1169(2) 1.18739(14)
H5A H 0.8406 -0.1682 1.1485
C4A C 0.9343(3) -0.2211(2) 1.34755(16)
H6A H 0.9127 -0.1647 1.4064
H7A H 0.8383 -0.2731 1.3063
C5A C 1.0481(3) -0.3300(2) 1.38372(15)
C6A C 1.0871(3) -0.4370(2) 1.31562(17)
C7A C 1.1881(3) -0.5359(3) 1.3542(2)
H8A H 1.2162 -0.6073 1.3098
C8A C 1.2482(3) -0.5287(3) 1.4599(2)
H9A H 1.3148 -0.5963 1.4851
C9A C 1.2103(4) -0.4241(3) 1.5259(2)
H10A H 1.2510 -0.4197 1.5959
C10A C 1.1111(3) -0.3246(3) 1.48829(17)
H11A H 1.0856 -0.2526 1.5335
C11A C 1.0230(4) -0.4414(3) 1.20100(18)
H12A H 1.0578 -0.3512 1.1819
H13A H 0.9114 -0.4465 1.1857
C12A C 0.9909(3) -0.6941(2) 1.10599(16)
H14A H 0.8973 -0.7220 1.1183
C13A C 1.1970(3) -0.5617(3) 1.1048(2)
H15A H 1.2714 -0.4842 1.1147
C14A C 1.1969(3) -0.6968(3) 1.05413(18)
H16A H 1.2733 -0.7287 1.0239
Ni1_2 Ni 1.0000 -1.0000 1.0000
Ni1_3 Ni 1.0000 1.0000 1.0000
N4_2 N 0.93452(19) -0.22102(18) 0.94543(13)
N4A_2 N 1.06548(19) 0.22102(18) 1.05457(13)
O2 O 0.3817(2) -0.01592(17) 0.86864(12)
O3 O 0.4426(3) -0.20375(17) 0.77247(13)
H17 H 0.4103 -0.2511 0.8107
O4 O 0.37658(18) 0.33628(16) 0.85081(12)
O5 O 0.60612(18) 0.25912(17) 0.91621(10)
C15 C 0.4814(2) 0.17524(19) 0.74389(13)
C16 C 0.4568(2) 0.02469(19) 0.71938(13)
C17 C 0.4625(2) -0.0424(2) 0.62333(13)
H18 H 0.4442 -0.1430 0.6077
C18 C 0.4946(2) 0.03664(19) 0.55035(12)
C19 C 0.5183(3) 0.1880(2) 0.57600(15)
H19 H 0.5397 0.2441 0.5288
C20 C 0.5103(3) 0.2553(2) 0.67050(15)
H20 H 0.5245 0.3562 0.6852
C21 C 0.4860(2) 0.26092(18) 0.84626(13)
C22 C 0.4225(2) -0.0670(2) 0.79463(14)
O2A O 0.6183(2) 0.01592(17) 0.13136(12)
O3A O 0.5574(3) 0.20375(17) 0.22753(13)
H17A H 0.5897 0.2511 0.1893
O4A O 0.62342(18) -0.33628(16) 0.14919(12)
O5A O 0.39388(18) -0.25912(17) 0.08379(10)
C15A C 0.5186(2) -0.17524(19) 0.25611(13)
C16A C 0.5432(2) -0.02469(19) 0.28062(13)
C17A C 0.5375(2) 0.0424(2) 0.37667(13)
H18A H 0.5558 0.1430 0.3923
C18A C 0.5054(2) -0.03664(19) 0.44965(12)
C19A C 0.4817(3) -0.1880(2) 0.42400(15)
H19A H 0.4603 -0.2441 0.4712
C20A C 0.4897(3) -0.2553(2) 0.32950(15)
H20A H 0.4755 -0.3562 0.3148
C21A C 0.5140(2) -0.26092(18) 0.15374(13)
C22A C 0.5775(2) 0.0670(2) 0.20537(14)
O6 O 0.3750(2) -0.37055(16) 0.89093(11)
H21 H 0.3759 -0.4623 0.8784
H22 H 0.3863 -0.2920 0.9323
loop_
_geom_bond_atom_site_label_1
_geom_bond_atom_site_label_2
_geom_bond_site_symmetry_1
_geom_bond_site_symmetry_2
Ni1 O1 1_555 1_555
O1 H1 1_555 1_555
H2 O1 1_555 1_555
N1 Ni1 1_555 1_555
N2 C2 1_555 1_555
N3 C11 1_555 1_555
N4 C12 1_555 1_555
C1 N1 1_555 1_555
H3 C1 1_555 1_555
C2 C1 1_555 1_555
H4 C2 1_555 1_555
C3 N1 1_555 1_555
H5 C3 1_555 1_555
C4 N2 1_555 1_555
H6 C4 1_555 1_555
H7 C4 1_555 1_555
C5 C4 1_555 1_555
C6 C5 1_555 1_555
C7 C6 1_555 1_555
H8 C7 1_555 1_555
C8 C7 1_555 1_555
H9 C8 1_555 1_555
C9 C8 1_555 1_555
H10 C9 1_555 1_555
C10 C5 1_555 1_555
H11 C10 1_555 1_555
C11 C6 1_555 1_555
H12 C11 1_555 1_555
H13 C11 1_555 1_555
C12 N3 1_555 1_555
H14 C12 1_555 1_555
C13 N3 1_555 1_555
H15 C13 1_555 1_555
C14 N4 1_555 1_555
H16 C14 1_555 1_555
O2 C22 1_555 1_555
O3 H17 1_555 1_555
O4 C21 1_555 1_555
O5 C21 1_555 1_555
C15 C16 1_555 1_555
C16 C17 1_555 1_555
C17 H18 1_555 1_555
C18 C17 1_555 1_555
C19 C18 1_555 1_555
H19 C19 1_555 1_555
C20 C15 1_555 1_555
H20 C20 1_555 1_555
C21 C15 1_555 1_555
C22 O3 1_555 1_555
O6 H21 1_555 1_555
H22 O6 1_555 1_555
O1A Ni1 1_555 1_555
H1A O1A 1_555 1_555
H2A O1A 1_555 1_555
N1A Ni1 1_555 1_555
N2A C2A 1_555 1_555
N3A C11A 1_555 1_555
N4A C12A 1_555 1_555
C1A N1A 1_555 1_555
H3A C1A 1_555 1_555
C2A C1A 1_555 1_555
H4A C2A 1_555 1_555
C3A N1A 1_555 1_555
H5A C3A 1_555 1_555
C4A N2A 1_555 1_555
H6A C4A 1_555 1_555
H7A C4A 1_555 1_555
C5A C4A 1_555 1_555
C6A C5A 1_555 1_555
C7A C6A 1_555 1_555
H8A C7A 1_555 1_555
C8A C7A 1_555 1_555
H9A C8A 1_555 1_555
C9A C8A 1_555 1_555
H10A C9A 1_555 1_555
C10A C5A 1_555 1_555
H11A C10A 1_555 1_555
C11A C6A 1_555 1_555
H12A C11A 1_555 1_555
H13A C11A 1_555 1_555
C12A N3A 1_555 1_555
H14A C12A 1_555 1_555
C13A N3A 1_555 1_555
H15A C13A 1_555 1_555
C14A N4A 1_555 1_555
H16A C14A 1_555 1_555
Ni1_2 N4A 1_555 1_555
Ni1_3 N4 1_555 1_555
N4_2 Ni1 1_555 1_555
N4A_2 Ni1 1_555 1_555
O2A C22A 1_555 1_555
O3A H17A 1_555 1_555
O4A C21A 1_555 1_555
O5A C21A 1_555 1_555
C15A C16A 1_555 1_555
C16A C17A 1_555 1_555
C17A H18A 1_555 1_555
C18A C18 1_555 1_555
C19A C18A 1_555 1_555
H19A C19A 1_555 1_555
C20A C15A 1_555 1_555
H20A C20A 1_555 1_555
C21A C15A 1_555 1_555
C22A O3A 1_555 1_555
N2 C3 1_555 1_555
C9 C10 1_555 1_555
C13 C14 1_555 1_555
C16 C22 1_555 1_555
C19 C20 1_555 1_555
N2A C3A 1_555 1_555
C9A C10A 1_555 1_555
C13A C14A 1_555 1_555
C16A C22A 1_555 1_555
C17A C18A 1_555 1_555
C19A C20A 1_555 1_555

#END
