
#######################################################################
#
#                 Cambridge Crystallographic Data Centre
#                                CCDC 
#
#######################################################################
#
# If this CIF has been generated from an entry in the Cambridge 
# Structural Database, then it will include bibliographic, chemical, 
# crystal, experimental, refinement or atomic coordinate data resulting 
# from the CCDC's data processing and validation procedures.
#
#######################################################################

data_XUBQES
_symmetry_cell_setting           triclinic
_symmetry_space_group_name_H-M   'P -1'
_symmetry_Int_Tables_number      2
_space_group_name_Hall           '-P 1'
loop_
_symmetry_equiv_pos_site_id
_symmetry_equiv_pos_as_xyz
1 x,y,z
2 -x,-y,-z
_cell_length_a                   8.0768(5)
_cell_length_b                   10.7271(8)
_cell_length_c                   11.0323(8)
_cell_angle_alpha                68.061(15)
_cell_angle_beta                 80.680(18)
_cell_angle_gamma                73.799(17)
_cell_volume                     849.628
loop_
_atom_site_label
_atom_site_type_symbol
_atom_site_fract_x
_atom_site_fract_y
_atom_site_fract_z
H1 H 0.6284 0.5623 0.7802
H2 H 0.5953 0.3512 0.9312
H3 H 0.3220 0.3050 0.9853
H4 H 0.0820 0.4742 0.8935
H5 H 0.1234 0.7333 0.9501
H6 H 0.0017 0.8306 1.1055
H7 H -0.2702 0.9926 1.0775
H8 H -0.4094 1.0498 0.8886
H9 H 1.0086 0.9204 0.3976
H10 H 1.2760 0.7639 0.3934
H11 H 1.2861 0.5579 0.3644
H12 H 1.0262 0.5138 0.3364
H13 H 0.7680 0.6685 0.3549
C1 C 0.4083(8) 0.7824(7) 0.6486(7)
C2 C 0.3722(8) 0.6493(7) 0.7462(6)
C3 C 0.5163(9) 0.5452(8) 0.8035(7)
C4 C 0.4971(9) 0.4196(8) 0.8923(8)
C5 C 0.3352(9) 0.3927(8) 0.9252(7)
C6 C 0.1933(9) 0.4930(8) 0.8706(7)
C7 C 0.2104(8) 0.6211(8) 0.7827(7)
C8 C -0.0700(8) 0.8253(7) 0.8239(7)
C9 C 0.0132(8) 0.7963(8) 0.9374(7)
C10 C -0.0579(9) 0.8548(8) 1.0294(7)
C11 C -0.2196(10) 0.9515(9) 1.0133(7)
C12 C -0.3013(9) 0.9839(8) 0.9017(7)
C13 C -0.2308(8) 0.9232(8) 0.8069(6)
C14 C -0.3331(8) 0.9644(7) 0.6896(7)
C15 C 1.0131(9) 0.8344(9) 0.3894(7)
C16 C 1.1729(9) 0.7428(8) 0.3846(7)
C17 C 1.1788(10) 0.6224(9) 0.3670(8)
C18 C 1.0250(11) 0.5949(9) 0.3527(8)
C19 C 0.8726(10) 0.6881(8) 0.3627(7)
N1 N 0.8639(7) 0.8034(6) 0.3827(5)
O1 O 0.5317(6) 0.7690(5) 0.5659(5)
O2 O 0.3160(6) 0.8940(5) 0.6590(5)
O3 O -0.4824(6) 1.0426(6) 0.6905(5)
O4 O -0.2608(6) 0.9173(6) 0.5999(5)
S1 S 0.0197(2) 0.74251(19) 0.70806(16)
Cu1 Cu 0.63103(9) 0.92560(9) 0.44778(8)
O2A O 0.6840(6) 1.1060(5) 0.3410(5)
O3A O 0.4824(6) 0.9574(6) 0.3095(5)
O4_2 O 0.7392(6) 0.9173(6) 0.5999(5)
Cu1_2 Cu -0.36897(9) 0.92560(9) 0.44778(8)
Cu1A Cu -0.63103(9) 1.07440(9) 0.55222(8)
Cu1A_2 Cu 0.36897(9) 1.07440(9) 0.55222(8)
loop_
_geom_bond_atom_site_label_1
_geom_bond_atom_site_label_2
_geom_bond_site_symmetry_1
_geom_bond_site_symmetry_2
H1 C3 1_555 1_555
H2 C4 1_555 1_555
H3 C5 1_555 1_555
H4 C6 1_555 1_555
H5 C9 1_555 1_555
H6 C10 1_555 1_555
H7 C11 1_555 1_555
H8 C12 1_555 1_555
H9 C15 1_555 1_555
H10 C16 1_555 1_555
H11 C17 1_555 1_555
H12 C18 1_555 1_555
H13 C19 1_555 1_555
C1 C2 1_555 1_555
C2 C3 1_555 1_555
C3 C4 1_555 1_555
C4 C5 1_555 1_555
C5 C6 1_555 1_555
C6 C7 1_555 1_555
C7 C2 1_555 1_555
C8 C9 1_555 1_555
C9 C10 1_555 1_555
C10 C11 1_555 1_555
C11 C12 1_555 1_555
C12 C13 1_555 1_555
C13 C8 1_555 1_555
C14 C13 1_555 1_555
C15 C16 1_555 1_555
C16 C17 1_555 1_555
C17 C18 1_555 1_555
C18 C19 1_555 1_555
C19 N1 1_555 1_555
N1 C15 1_555 1_555
O1 C1 1_555 1_555
O2 C1 1_555 1_555
O3 C14 1_555 1_555
O4 C14 1_555 1_555
S1 C7 1_555 1_555
Cu1 N1 1_555 1_555
O2A Cu1 1_555 1_555
O3A Cu1 1_555 1_555
O4_2 Cu1 1_555 1_555
Cu1_2 O4 1_555 1_555
Cu1A O3 1_555 1_555
Cu1A_2 O2 1_555 1_555
C8 S1 1_555 1_555
O1 Cu1 1_555 1_555
Cu1 Cu1A_2 1_555 1_555
Cu1_2 Cu1A 1_555 1_555

#END
