
#######################################################################
#
#                 Cambridge Crystallographic Data Centre
#                                CCDC 
#
#######################################################################
#
# If this CIF has been generated from an entry in the Cambridge 
# Structural Database, then it will include bibliographic, chemical, 
# crystal, experimental, refinement or atomic coordinate data resulting 
# from the CCDC's data processing and validation procedures.
#
#######################################################################

data_XUBRUJ
_symmetry_cell_setting           monoclinic
_symmetry_space_group_name_H-M   'P 21/c'
_symmetry_Int_Tables_number      14
_space_group_name_Hall           '-P 2ybc'
loop_
_symmetry_equiv_pos_site_id
_symmetry_equiv_pos_as_xyz
1 x,y,z
2 -x,1/2+y,1/2-z
3 -x,-y,-z
4 x,1/2-y,1/2+z
_cell_length_a                   9.8120(7)
_cell_length_b                   7.0222(5)
_cell_length_c                   19.6608(15)
_cell_angle_alpha                90
_cell_angle_beta                 98.5823(11)
_cell_angle_gamma                90
_cell_volume                     1339.5
loop_
_atom_site_label
_atom_site_type_symbol
_atom_site_fract_x
_atom_site_fract_y
_atom_site_fract_z
Sn1 Sn 0.16498(3) 0.08444(5) 0.38989(1)
S1 S 0.40491(10) 0.23935(16) 0.40594(5)
S2 S 0.24444(11) 0.50761(19) 0.30710(7)
O1 O 0.9519(4) 0.8653(6) 0.3997(2)
N1 N 0.5177(4) 0.5190(6) 0.3430(2)
N2 N 0.7260(5) 0.7913(7) 0.3776(3)
C1 C 0.3966(4) 0.4347(6) 0.3503(2)
C2 C 0.6545(4) 0.4550(7) 0.3760(2)
C3 C 0.7275(5) 0.6170(9) 0.4189(3)
C4 C 0.5915(6) 0.8502(8) 0.3427(4)
C5 C 0.5251(6) 0.6911(8) 0.3003(3)
C6 C 0.8377(5) 0.8991(8) 0.3718(3)
C7 C 0.0371(5) 0.3010(9) 0.4221(3)
C8 C 0.1305(5) 0.0120(8) 0.2834(2)
C9 C 0.2467(6) -0.1256(8) 0.4632(3)
H1 H 0.708(6) 0.424(8) 0.335(3)
H2 H 0.649(5) 0.347(8) 0.406(3)
H3 H 0.677(7) 0.631(10) 0.462(3)
H4 H 0.813(6) 0.571(8) 0.435(3)
H5 H 0.605(7) 0.968(10) 0.310(3)
H6 H 0.533(7) 0.875(9) 0.380(3)
H7 H 0.425(8) 0.737(11) 0.281(4)
H8 H 0.588(6) 0.659(8) 0.262(3)
H9 H 0.82454 1.00942 0.34358
H10 H 0.007(7) 0.261(10) 0.466(3)
H11 H -0.044(7) 0.309(9) 0.385(3)
H12 H 0.081(6) 0.414(8) 0.431(3)
H13 H 0.178(9) -0.084(14) 0.274(4)
H14 H 0.162(8) 0.105(12) 0.256(4)
H15 H 0.055(8) 0.035(11) 0.266(4)
H16 H 0.250(7) -0.238(11) 0.450(4)
H17 H 0.194(8) -0.123(11) 0.500(4)
H18 H 0.330(9) -0.107(11) 0.485(4)
Sn1_2 Sn 1.16498(3) 1.08444(5) 0.38989(1)
O1_2 O -0.0481(4) -0.1347(6) 0.3997(2)
loop_
_geom_bond_atom_site_label_1
_geom_bond_atom_site_label_2
_geom_bond_site_symmetry_1
_geom_bond_site_symmetry_2
Sn1 S1 1_555 1_555
S1 C1 1_555 1_555
S2 C1 1_555 1_555
O1 C6 1_555 1_555
N1 C1 1_555 1_555
N2 C3 1_555 1_555
C2 N1 1_555 1_555
C3 C2 1_555 1_555
C4 N2 1_555 1_555
C5 N1 1_555 1_555
C6 N2 1_555 1_555
C7 Sn1 1_555 1_555
C8 Sn1 1_555 1_555
C9 Sn1 1_555 1_555
H1 C2 1_555 1_555
H2 C2 1_555 1_555
H3 C3 1_555 1_555
H4 C3 1_555 1_555
H5 C4 1_555 1_555
H6 C4 1_555 1_555
H7 C5 1_555 1_555
H8 C5 1_555 1_555
H9 C6 1_555 1_555
H10 C7 1_555 1_555
H11 C7 1_555 1_555
H12 C7 1_555 1_555
H13 C8 1_555 1_555
H14 C8 1_555 1_555
H15 C8 1_555 1_555
H16 C9 1_555 1_555
H17 C9 1_555 1_555
H18 C9 1_555 1_555
Sn1_2 O1 1_555 1_555
O1_2 Sn1 1_555 1_555
C4 C5 1_555 1_555

#END
