
#######################################################################
#
#                 Cambridge Crystallographic Data Centre
#                                CCDC 
#
#######################################################################
#
# If this CIF has been generated from an entry in the Cambridge 
# Structural Database, then it will include bibliographic, chemical, 
# crystal, experimental, refinement or atomic coordinate data resulting 
# from the CCDC's data processing and validation procedures.
#
#######################################################################

data_XUCCAA
_symmetry_cell_setting           monoclinic
_symmetry_space_group_name_H-M   'P 21/c'
_symmetry_Int_Tables_number      14
_space_group_name_Hall           '-P 2ybc'
loop_
_symmetry_equiv_pos_site_id
_symmetry_equiv_pos_as_xyz
1 x,y,z
2 -x,1/2+y,1/2-z
3 -x,-y,-z
4 x,1/2-y,1/2+z
_cell_length_a                   11.7626(12)
_cell_length_b                   11.2714(12)
_cell_length_c                   13.1448(14)
_cell_angle_alpha                90
_cell_angle_beta                 92.6600(10)
_cell_angle_gamma                90
_cell_volume                     1740.87
loop_
_atom_site_label
_atom_site_type_symbol
_atom_site_fract_x
_atom_site_fract_y
_atom_site_fract_z
Mn1 Mn 0.19653(2) 0.25700(2) 0.10238(2)
C1 C 0.15858(16) 0.24908(15) 0.34793(13)
C2 C 0.07149(17) 0.15366(17) 0.33391(14)
H1 H -0.0010 0.1898 0.3139
H2 H 0.0628 0.1144 0.3988
C3 C 0.09907(15) 0.06242(16) 0.25648(14)
C4 C 0.4482(2) 0.1418(2) 0.11189(18)
H3 H 0.4102 0.0699 0.1033
C5 C 0.5668(3) 0.1409(3) 0.1277(2)
H4 H 0.6066 0.0697 0.1278
C6 C 0.6230(2) 0.2450(3) 0.1428(2)
H5 H 0.7014 0.2449 0.1559
C7 C 0.56373(18) 0.3518(3) 0.13874(17)
C8 C 0.6161(2) 0.4666(3) 0.15068(19)
H6 H 0.6939 0.4713 0.1658
C9 C 0.5559(2) 0.5662(3) 0.14059(19)
H7 H 0.5930 0.6388 0.1475
C10 C 0.4358(2) 0.5642(2) 0.11940(16)
C11 C 0.3682(3) 0.6662(2) 0.10718(19)
H8 H 0.4012 0.7410 0.1138
C12 C 0.2551(3) 0.6560(2) 0.08583(19)
H9 H 0.2096 0.7232 0.0785
C13 C 0.2080(2) 0.54376(19) 0.07502(17)
H10 H 0.1304 0.5379 0.0591
C14 C 0.38061(17) 0.45371(18) 0.10848(14)
C15 C 0.44501(16) 0.34590(19) 0.11948(14)
N1 N 0.20501(14) 0.30498(14) 0.27148(12)
N2 N 0.27623(17) 0.38633(15) 0.31574(13)
N3 N 0.27226(17) 0.37758(16) 0.41423(13)
N4 N 0.19744(14) 0.29087(14) 0.43731(12)
N5 N 0.07406(15) -0.05119(14) 0.26654(14)
N6 N 0.10928(18) -0.10394(16) 0.18157(16)
N7 N 0.15385(17) -0.02491(15) 0.12298(14)
N8 N 0.14891(14) 0.08235(13) 0.16871(12)
N9 N 0.38819(15) 0.24133(15) 0.10876(13)
N10 N 0.26718(13) 0.44449(14) 0.08607(12)
O1 O 0.01809(12) 0.31107(13) 0.08539(11)
H11 H -0.0249(18) 0.2502(14) 0.081(2)
H12 H -0.0103(18) 0.3585(16) 0.1272(15)
Mn1C Mn 0.19653(2) 0.24300(2) 0.60238(2)
N4C N 0.19744(14) 0.20913(14) -0.06269(12)
O2 O 0.12388(18) 0.61583(18) 0.41924(18)
H13 H 0.130(3) 0.585(3) 0.4790(11)
H14 H 0.131(4) 0.561(2) 0.3765(18)
loop_
_geom_bond_atom_site_label_1
_geom_bond_atom_site_label_2
_geom_bond_site_symmetry_1
_geom_bond_site_symmetry_2
Mn1 N1 1_555 1_555
C1 C2 1_555 1_555
C2 H1 1_555 1_555
H2 C2 1_555 1_555
C3 C2 1_555 1_555
C4 H3 1_555 1_555
C5 C4 1_555 1_555
H4 C5 1_555 1_555
C6 C5 1_555 1_555
H5 C6 1_555 1_555
C7 C6 1_555 1_555
C8 C7 1_555 1_555
H6 C8 1_555 1_555
C9 C8 1_555 1_555
H7 C9 1_555 1_555
C10 C9 1_555 1_555
C11 C10 1_555 1_555
H8 C11 1_555 1_555
C12 C11 1_555 1_555
H9 C12 1_555 1_555
C13 C12 1_555 1_555
H10 C13 1_555 1_555
C14 C10 1_555 1_555
C15 C7 1_555 1_555
N1 C1 1_555 1_555
N2 N1 1_555 1_555
N3 N2 1_555 1_555
N4 C1 1_555 1_555
N5 C3 1_555 1_555
N6 N5 1_555 1_555
N7 N6 1_555 1_555
N8 Mn1 1_555 1_555
N9 Mn1 1_555 1_555
N10 Mn1 1_555 1_555
O1 Mn1 1_555 1_555
O2 H13 1_555 1_555
H11 O1 1_555 1_555
H12 O1 1_555 1_555
H14 O2 1_555 1_555
Mn1C N4 1_555 1_555
N4C Mn1 1_555 1_555
C3 N8 1_555 1_555
C4 N9 1_555 1_555
C13 N10 1_555 1_555
C14 C15 1_555 1_555
C14 N10 1_555 1_555
C15 N9 1_555 1_555
N3 N4 1_555 1_555
N7 N8 1_555 1_555

#END
