
#######################################################################
#
#                 Cambridge Crystallographic Data Centre
#                                CCDC 
#
#######################################################################
#
# If this CIF has been generated from an entry in the Cambridge 
# Structural Database, then it will include bibliographic, chemical, 
# crystal, experimental, refinement or atomic coordinate data resulting 
# from the CCDC's data processing and validation procedures.
#
#######################################################################

data_XUCDUV
_symmetry_cell_setting           monoclinic
_symmetry_space_group_name_H-M   'C 2/c'
_symmetry_Int_Tables_number      15
_space_group_name_Hall           '-C 2yn'
loop_
_symmetry_equiv_pos_site_id
_symmetry_equiv_pos_as_xyz
1 x,y,z
2 -x,y,1/2-z
3 1/2+x,1/2+y,z
4 1/2-x,1/2+y,1/2-z
5 -x,-y,-z
6 x,-y,1/2+z
7 1/2-x,1/2-y,-z
8 1/2+x,1/2-y,1/2+z
_cell_length_a                   15.924(11)
_cell_length_b                   23.739(12)
_cell_length_c                   12.212(8)
_cell_angle_alpha                90
_cell_angle_beta                 115.08(6)
_cell_angle_gamma                90
_cell_volume                     4181.13
loop_
_atom_site_label
_atom_site_type_symbol
_atom_site_fract_x
_atom_site_fract_y
_atom_site_fract_z
Cd1 Cd 0.204820(11) 0.176801(6) 0.794252(13)
O1 O 0.37132(12) 0.15942(8) 0.83587(16)
O3 O 0.33532(12) 0.19981(8) 0.97405(16)
O4 O 0.05006(12) 0.16196(8) 0.64603(15)
O5 O 0.15589(12) 0.12951(7) 0.59013(15)
O6 O 0.12688(12) 0.19872(7) 0.91080(15)
H2 H 0.0713(13) 0.1884(11) 0.888(3)
H3 H 0.1342(19) 0.2326(8) 0.938(2)
N1 N 0.20795(14) 0.26420(8) 0.71338(18)
N2 N 0.26070(16) 0.41106(8) 0.5622(2)
H4 H 0.282(2) 0.4026(13) 0.515(3)
N3 N 0.27964(15) 0.58276(8) 0.64927(19)
C1 C 0.23205(17) 0.31191(10) 0.7786(2)
H5 H 0.2382 0.3110 0.8594
C2 C 0.24834(17) 0.36226(9) 0.7342(2)
H6 H 0.2653 0.3949 0.7840
C3 C 0.23964(16) 0.36480(9) 0.6156(2)
C4 C 0.21103(17) 0.31588(9) 0.5456(2)
H7 H 0.2017 0.3161 0.4635
C5 C 0.19657(16) 0.26752(9) 0.5970(2)
H8 H 0.1775 0.2346 0.5484
C6 C 0.23295(18) 0.54708(10) 0.6888(2)
H9 H 0.2045 0.5620 0.7370
C7 C 0.22378(17) 0.49017(9) 0.6638(2)
H10 H 0.1896 0.4670 0.6938
C8 C 0.26541(17) 0.46698(9) 0.5937(2)
C9 C 0.3108(2) 0.50444(11) 0.5480(3)
H11 H 0.3377 0.4912 0.4968
C10 C 0.3158(2) 0.56047(11) 0.5782(3)
H12 H 0.3471 0.5850 0.5465
C11 C 0.39284(17) 0.17575(10) 0.9423(2)
C12 C 0.49112(19) 0.16625(15) 1.0385(3)
H13 H 0.5267 0.1453 1.0020
H14 H 0.5215 0.2033 1.0656
C13 C 0.49494(17) 0.13398(12) 1.1472(2)
C14 C 0.4943(2) 0.07560(14) 1.1483(3)
H15 H 0.4899 0.0553 1.0790
C15 C 0.5000 0.0464(2) 1.2500
H16 H 0.5000 0.0064 1.2500
C16 C 0.5000 0.16211(16) 1.2500
H17 H 0.5000 0.2021 1.2500
C17 C 0.07299(17) 0.13621(10) 0.5718(2)
C18 C -0.0036(2) 0.11359(14) 0.4556(2)
H18 H 0.0059 0.0728 0.4482
H19 H -0.0645 0.1187 0.4579
C19 C -0.00240(18) 0.14467(12) 0.3479(2)
C20 C 0.0000 0.11715(15) 0.2500
H20 H 0.0000 0.0771 0.2500
C21 C -0.0042(3) 0.20311(14) 0.3458(3)
H21 H -0.0083 0.2230 0.4109
C22 C 0.0000 0.2333(2) 0.2500
H22 H 0.0000 0.2733 0.2500
Cd1A Cd 0.795180(11) 0.176801(6) 1.705748(13)
Cd1C Cd 0.295180(11) 0.676801(6) 0.705748(13)
Cd1A_2 Cd -0.204820(11) 0.176801(6) -0.294252(13)
Cd1C_2 Cd 0.295180(11) -0.323199(6) 0.705748(13)
O1A O 0.62868(12) 0.15942(8) 1.66413(16)
O3A O 0.66468(12) 0.19981(8) 1.52595(16)
O4A O -0.05006(12) 0.16196(8) -0.14603(15)
O4A_2 O 0.94994(12) 0.16196(8) 1.85397(15)
O5A O -0.15589(12) 0.12951(7) -0.09013(15)
O5A_2 O 0.84411(12) 0.12951(7) 1.90987(15)
O6A O 0.87312(12) 0.19872(7) 1.58920(15)
H2A H 0.9287(13) 0.1884(11) 1.612(3)
H3A H 0.8658(19) 0.2326(8) 1.562(2)
N1C N 0.29205(14) -0.23580(8) 0.78662(18)
N1A N 0.79205(14) 0.26420(8) 1.78662(18)
N2C N 0.23930(16) -0.08894(8) 0.9378(2)
H4C H 0.218(2) -0.0974(13) 0.985(3)
N3C N 0.22036(15) 0.08276(8) 0.85073(19)
N3B N 0.77964(15) 0.08276(8) 1.64927(19)
C1C C 0.26795(17) -0.18809(10) 0.7214(2)
H5C H 0.2618 -0.1890 0.6406
C2C C 0.25166(17) -0.13774(9) 0.7658(2)
H6C H 0.2347 -0.1051 0.7160
C3C C 0.26036(16) -0.13520(9) 0.8844(2)
C4C C 0.28897(17) -0.18412(9) 0.9544(2)
H7C H 0.2983 -0.1839 1.0365
C5C C 0.30343(16) -0.23248(9) 0.9030(2)
H8C H 0.3225 -0.2654 0.9516
C6C C 0.26705(18) 0.04708(10) 0.8112(2)
H9C H 0.2955 0.0620 0.7630
C7C C 0.27622(17) -0.00983(9) 0.8362(2)
H10C H 0.3104 -0.0330 0.8062
C8C C 0.23459(17) -0.03302(9) 0.9063(2)
C9C C 0.1892(2) 0.00444(11) 0.9520(3)
H11C H 0.1623 -0.0088 1.0032
C10C C 0.1842(2) 0.06047(11) 0.9218(3)
H12C H 0.1529 0.0850 0.9535
C11A C 0.60716(17) 0.17575(10) 1.5577(2)
C12A C 0.50888(19) 0.16625(15) 1.4615(3)
H13A H 0.4733 0.1453 1.4980
H14A H 0.4785 0.2033 1.4344
C13A C 0.50506(17) 0.13398(12) 1.3528(2)
C14A C 0.5057(2) 0.07560(14) 1.3517(3)
H15A H 0.5101 0.0553 1.4210
C17A C -0.07299(17) 0.13621(10) -0.0718(2)
C18A C 0.0036(2) 0.11359(14) 0.0444(2)
H18A H -0.0059 0.0728 0.0518
H19A H 0.0645 0.1187 0.0421
C19A C 0.00240(18) 0.14467(12) 0.1521(2)
C21A C 0.0042(3) 0.20311(14) 0.1542(3)
H21A H 0.0083 0.2230 0.0891
O2 O 0.5000 0.1017(2) 0.7500
H1 H 0.441(2) 0.101(3) 0.740(7)
H1A H 0.559(2) 0.101(3) 0.760(7)
loop_
_geom_bond_atom_site_label_1
_geom_bond_atom_site_label_2
_geom_bond_site_symmetry_1
_geom_bond_site_symmetry_2
Cd1 O1 1_555 1_555
O1 C11 1_555 1_555
O2 H1 1_555 1_555
O3 Cd1 1_555 1_555
O4 Cd1 1_555 1_555
O5 Cd1 1_555 1_555
O6 Cd1 1_555 1_555
H2 O6 1_555 1_555
H3 O6 1_555 1_555
N1 Cd1 1_555 1_555
N2 H4 1_555 1_555
N3 C6 1_555 1_555
C1 N1 1_555 1_555
H5 C1 1_555 1_555
C2 C1 1_555 1_555
H6 C2 1_555 1_555
C3 N2 1_555 1_555
C4 C3 1_555 1_555
H7 C4 1_555 1_555
C5 N1 1_555 1_555
H8 C5 1_555 1_555
C6 H9 1_555 1_555
C7 C6 1_555 1_555
H10 C7 1_555 1_555
C8 N2 1_555 1_555
C9 C8 1_555 1_555
H11 C9 1_555 1_555
C10 N3 1_555 1_555
H12 C10 1_555 1_555
C11 O3 1_555 1_555
C12 C11 1_555 1_555
H13 C12 1_555 1_555
H14 C12 1_555 1_555
C13 C12 1_555 1_555
C14 C13 1_555 1_555
H15 C14 1_555 1_555
C15 C14 1_555 1_555
H16 C15 1_555 1_555
C16 C13 1_555 1_555
H17 C16 1_555 1_555
C17 O4 1_555 1_555
C18 C17 1_555 1_555
H18 C18 1_555 1_555
H19 C18 1_555 1_555
C19 C18 1_555 1_555
C20 C19 1_555 1_555
H20 C20 1_555 1_555
C21 C19 1_555 1_555
H21 C21 1_555 1_555
C22 C21 1_555 1_555
H22 C22 1_555 1_555
Cd1A O1A 1_555 1_555
Cd1C N3 1_555 1_555
Cd1A_2 O4A 1_555 1_555
Cd1C_2 N1C 1_555 1_555
O1A C11A 1_555 1_555
H1A O2 1_555 1_555
O3A Cd1A 1_555 1_555
O4A C17A 1_555 1_555
O4A_2 Cd1A 1_555 1_555
O5A Cd1A_2 1_555 1_555
O5A_2 Cd1A 1_555 1_555
O6A Cd1A 1_555 1_555
H2A O6A 1_555 1_555
H3A O6A 1_555 1_555
N1C C1C 1_555 1_555
N1A Cd1A 1_555 1_555
N2C H4C 1_555 1_555
N3C Cd1 1_555 1_555
N3B Cd1A 1_555 1_555
C1C H5C 1_555 1_555
C2C C1C 1_555 1_555
H6C C2C 1_555 1_555
C3C N2C 1_555 1_555
C4C C3C 1_555 1_555
H7C C4C 1_555 1_555
C5C N1C 1_555 1_555
H8C C5C 1_555 1_555
C6C N3C 1_555 1_555
H9C C6C 1_555 1_555
C7C C6C 1_555 1_555
H10C C7C 1_555 1_555
C8C N2C 1_555 1_555
C9C C8C 1_555 1_555
H11C C9C 1_555 1_555
C10C N3C 1_555 1_555
H12C C10C 1_555 1_555
C11A O3A 1_555 1_555
C12A C11A 1_555 1_555
H13A C12A 1_555 1_555
H14A C12A 1_555 1_555
C13A C16 1_555 1_555
C14A C15 1_555 1_555
H15A C14A 1_555 1_555
C17A O5A 1_555 1_555
C18A C17A 1_555 1_555
H18A C18A 1_555 1_555
H19A C18A 1_555 1_555
C19A C20 1_555 1_555
C21A C22 1_555 1_555
H21A C21A 1_555 1_555
O5 C17 1_555 1_555
C2 C3 1_555 1_555
C4 C5 1_555 1_555
C7 C8 1_555 1_555
C9 C10 1_555 1_555
C2C C3C 1_555 1_555
C4C C5C 1_555 1_555
C7C C8C 1_555 1_555
C9C C10C 1_555 1_555
C12A C13A 1_555 1_555
C13A C14A 1_555 1_555
C18A C19A 1_555 1_555
C19A C21A 1_555 1_555

#END
