
#######################################################################
#
#                 Cambridge Crystallographic Data Centre
#                                CCDC 
#
#######################################################################
#
# If this CIF has been generated from an entry in the Cambridge 
# Structural Database, then it will include bibliographic, chemical, 
# crystal, experimental, refinement or atomic coordinate data resulting 
# from the CCDC's data processing and validation procedures.
#
#######################################################################

data_XUCFAD
_symmetry_cell_setting           triclinic
_symmetry_space_group_name_H-M   'P -1'
_symmetry_Int_Tables_number      2
_space_group_name_Hall           '-P 1'
loop_
_symmetry_equiv_pos_site_id
_symmetry_equiv_pos_as_xyz
1 x,y,z
2 -x,-y,-z
_cell_length_a                   9.4298(1)
_cell_length_b                   10.3740(1)
_cell_length_c                   19.8803(3)
_cell_angle_alpha                85.914(1)
_cell_angle_beta                 77.183(1)
_cell_angle_gamma                75.246(1)
_cell_volume                     1833.58
loop_
_atom_site_label
_atom_site_type_symbol
_atom_site_fract_x
_atom_site_fract_y
_atom_site_fract_z
Cd1 Cd 0.691065(14) 0.016899(12) 0.109297(7)
Cd2 Cd 1.640073(15) -0.258221(13) 0.450545(7)
O1 O 1.74395(18) -0.10070(14) 0.37575(8)
O3 O 1.78178(18) -0.12185(14) 0.48144(7)
O5 O 0.53924(16) 0.15230(14) 0.04134(7)
O6 O 0.75275(16) 0.19953(14) 0.04327(8)
O7 O 0.40095(15) 0.15609(13) -0.09493(7)
O8 O 0.19708(16) 0.16296(15) -0.01470(8)
O9 O 1.58339(17) 0.16538(15) 0.47774(8)
O10 O 1.45162(19) 0.35362(16) 0.44238(9)
N1 N 1.51365(19) -0.27495(17) 0.36668(9)
N2 N 1.33933(18) -0.17314(17) 0.18898(8)
H5 H 1.410(2) -0.173(2) 0.1534(10)
N3 N 0.91148(18) -0.05090(16) 0.14398(8)
N4 N 0.52023(18) 0.08812(15) 0.20934(8)
N5 N 0.18886(19) 0.21828(17) 0.38639(9)
H6 H 0.204(3) 0.177(2) 0.4233(10)
N6 N -0.16418(19) 0.56031(16) 0.42679(9)
C1 C 0.3838(2) 0.16458(19) 0.20420(10)
H7 H 0.3642 0.1865 0.1594
C2 C 0.2960(2) 0.17951(18) 0.32685(10)
C3 C 0.2713(2) 0.21266(19) 0.26019(10)
H8 H 0.1779 0.2677 0.2536
C4 C 0.4355(2) 0.09699(18) 0.33255(10)
H9 H 0.4563 0.0692 0.3767
C5 C 0.5428(2) 0.05625(19) 0.27354(10)
H10 H 0.6380 0.0027 0.2786
C6 C -0.0535(2) 0.5546(2) 0.37072(11)
H11 H -0.0576 0.6304 0.3408
C7 C 0.0654(2) 0.4458(2) 0.35387(11)
H12 H 0.1403 0.4470 0.3132
C8 C 0.0749(2) 0.33307(19) 0.39727(10)
C9 C -0.0372(2) 0.34116(19) 0.45750(10)
H13 H -0.0330 0.2691 0.4899
C10 C -0.1533(2) 0.45374(19) 0.46961(10)
H14 H -0.2294 0.4562 0.5102
C11 C 0.9355(2) -0.13163(19) 0.19844(10)
H15 H 0.8535 -0.1620 0.2254
C12 C 1.0718(2) -0.17274(19) 0.21731(10)
H16 H 1.0825 -0.2292 0.2566
C13 C 1.1948(2) -0.13044(18) 0.17789(10)
C14 C 1.1711(2) -0.04662(19) 0.12096(10)
H17 H 1.2512 -0.0149 0.0930
C15 C 1.0305(2) -0.01072(19) 0.10600(10)
H18 H 1.0165 0.0453 0.0669
C16 C 1.3669(2) -0.2173(2) 0.37157(11)
H19 H 1.3061 -0.1960 0.4162
C17 C 1.2995(2) -0.1874(2) 0.31560(11)
H20 H 1.1946 -0.1492 0.3221
C18 C 1.3874(2) -0.21400(18) 0.24920(10)
C19 C 1.5395(2) -0.27864(19) 0.24409(10)
H21 H 1.6030 -0.3029 0.2003
C20 C 1.5955(2) -0.30642(19) 0.30285(10)
H22 H 1.6986 -0.3506 0.2982
C21 C 1.6830(2) 0.25183(19) 0.36830(10)
C22 C 1.6504(3) 0.3458(2) 0.31661(11)
H23 H 1.5593 0.4132 0.3251
C23 C 1.7479(3) 0.3428(2) 0.25327(12)
H24 H 1.7239 0.4072 0.2185
C24 C 1.8808(3) 0.2447(2) 0.24107(11)
H25 H 1.9482 0.2406 0.1975
C25 C 1.9154(2) 0.1525(2) 0.29258(11)
H26 H 2.0077 0.0866 0.2838
C26 C 1.8192(2) 0.15339(19) 0.35673(10)
C27 C 1.8682(2) 0.0510(2) 0.41059(11)
H27 H 1.9777 0.0131 0.3963
H28 H 1.8500 0.0972 0.4547
C28 C 1.7912(2) -0.06298(19) 0.42325(10)
C29 C 1.5665(2) 0.2582(2) 0.43361(10)
C30 C 0.4635(2) 0.37790(18) -0.04999(10)
C31 C 0.6057(2) 0.32695(18) -0.03396(10)
C32 C 0.7280(2) 0.37254(19) -0.07108(10)
H29 H 0.8233 0.3398 -0.0594
C33 C 0.7131(2) 0.4645(2) -0.12464(11)
H30 H 0.7979 0.4929 -0.1502
C34 C 0.5732(3) 0.5148(2) -0.14065(11)
H31 H 0.5616 0.5778 -0.1773
C35 C 0.4507(2) 0.47262(19) -0.10281(10)
H32 H 0.3549 0.5096 -0.1133
C36 C 0.6327(2) 0.22086(18) 0.02045(10)
C37 C 0.3240(2) 0.33515(18) -0.01367(10)
H33 H 0.3259 0.3203 0.0359
H34 H 0.2351 0.4084 -0.0173
C38 C 0.3069(2) 0.20936(18) -0.04226(10)
Cd1A Cd 0.308935(14) -0.016899(12) -0.109297(7)
Cd2A Cd 1.359927(15) 0.258221(13) 0.549455(7)
Cd2_2 Cd -0.359927(15) 0.741779(13) 0.450545(7)
O7A O 0.59905(15) -0.15609(13) 0.09493(7)
O8A O 0.80292(16) -0.16296(15) 0.01470(8)
O9A O 1.41661(17) -0.16538(15) 0.52226(8)
O10A O 1.54838(19) -0.35362(16) 0.55762(9)
N6_2 N 1.83582(19) -0.43969(16) 0.42679(9)
O2 O 1.04908(19) -0.34491(17) 0.93462(10)
H1 H 0.970(2) -0.293(3) 0.9569(14)
H2 H 1.117(3) -0.305(3) 0.9399(15)
O4 O -0.0995(2) -0.4221(2) 0.14071(12)
H3 H -0.073(4) -0.496(2) 0.1168(15)
H4 H -0.067(4) -0.363(3) 0.1107(14)
loop_
_geom_bond_atom_site_label_1
_geom_bond_atom_site_label_2
_geom_bond_site_symmetry_1
_geom_bond_site_symmetry_2
Cd1 O5 1_555 1_555
Cd2 O1 1_555 1_555
O1 C28 1_555 1_555
O2 H1 1_555 1_555
H2 O2 1_555 1_555
O3 Cd2 1_555 1_555
O4 H3 1_555 1_555
H4 O4 1_555 1_555
O5 C36 1_555 1_555
O6 Cd1 1_555 1_555
O7 C38 1_555 1_555
O8 C38 1_555 1_555
O9 C29 1_555 1_555
O10 C29 1_555 1_555
N1 Cd2 1_555 1_555
N2 H5 1_555 1_555
N3 Cd1 1_555 1_555
N4 Cd1 1_555 1_555
N5 H6 1_555 1_555
N6 C6 1_555 1_555
C1 N4 1_555 1_555
H7 C1 1_555 1_555
C2 N5 1_555 1_555
C3 C1 1_555 1_555
H8 C3 1_555 1_555
C4 C2 1_555 1_555
H9 C4 1_555 1_555
C5 N4 1_555 1_555
H10 C5 1_555 1_555
C6 H11 1_555 1_555
C7 C6 1_555 1_555
H12 C7 1_555 1_555
C8 N5 1_555 1_555
C9 C8 1_555 1_555
H13 C9 1_555 1_555
C10 N6 1_555 1_555
H14 C10 1_555 1_555
C11 N3 1_555 1_555
H15 C11 1_555 1_555
C12 C11 1_555 1_555
H16 C12 1_555 1_555
C13 N2 1_555 1_555
C14 C13 1_555 1_555
H17 C14 1_555 1_555
C15 N3 1_555 1_555
H18 C15 1_555 1_555
C16 N1 1_555 1_555
H19 C16 1_555 1_555
C17 C16 1_555 1_555
H20 C17 1_555 1_555
C18 N2 1_555 1_555
C19 C18 1_555 1_555
H21 C19 1_555 1_555
C20 N1 1_555 1_555
H22 C20 1_555 1_555
C21 C22 1_555 1_555
C22 H23 1_555 1_555
C23 C22 1_555 1_555
H24 C23 1_555 1_555
C24 C23 1_555 1_555
H25 C24 1_555 1_555
C25 C24 1_555 1_555
H26 C25 1_555 1_555
C26 C21 1_555 1_555
C27 C26 1_555 1_555
H27 C27 1_555 1_555
H28 C27 1_555 1_555
C28 O3 1_555 1_555
C29 C21 1_555 1_555
C30 C31 1_555 1_555
C31 C32 1_555 1_555
C32 H29 1_555 1_555
C33 C32 1_555 1_555
H30 C33 1_555 1_555
C34 C33 1_555 1_555
H31 C34 1_555 1_555
C35 C30 1_555 1_555
H32 C35 1_555 1_555
C36 O6 1_555 1_555
C37 C30 1_555 1_555
H33 C37 1_555 1_555
H34 C37 1_555 1_555
C38 C37 1_555 1_555
Cd1A O7 1_555 1_555
Cd2A O9 1_555 1_555
Cd2_2 N6 1_555 1_555
O7A Cd1 1_555 1_555
O8A Cd1 1_555 1_555
O9A Cd2 1_555 1_555
O10A Cd2 1_555 1_555
N6_2 Cd2 1_555 1_555
O8 Cd1A 1_555 1_555
O10 Cd2A 1_555 1_555
C2 C3 1_555 1_555
C4 C5 1_555 1_555
C7 C8 1_555 1_555
C9 C10 1_555 1_555
C12 C13 1_555 1_555
C14 C15 1_555 1_555
C17 C18 1_555 1_555
C19 C20 1_555 1_555
C25 C26 1_555 1_555
C27 C28 1_555 1_555
C31 C36 1_555 1_555
C34 C35 1_555 1_555

#END
