
#######################################################################
#
#                 Cambridge Crystallographic Data Centre
#                                CCDC 
#
#######################################################################
#
# If this CIF has been generated from an entry in the Cambridge 
# Structural Database, then it will include bibliographic, chemical, 
# crystal, experimental, refinement or atomic coordinate data resulting 
# from the CCDC's data processing and validation procedures.
#
#######################################################################

data_XUCFIK
_symmetry_cell_setting           triclinic
_symmetry_space_group_name_H-M   'P 1'
_symmetry_Int_Tables_number      1
_space_group_name_Hall           'P 1'
loop_
_symmetry_equiv_pos_site_id
_symmetry_equiv_pos_as_xyz
1 x,y,z
_cell_length_a                   7.8708(7)
_cell_length_b                   9.2665(8)
_cell_length_c                   13.0232(11)
_cell_angle_alpha                75.2950(10)
_cell_angle_beta                 75.000(2)
_cell_angle_gamma                79.109(2)
_cell_volume                     879.673
loop_
_atom_site_label
_atom_site_type_symbol
_atom_site_fract_x
_atom_site_fract_y
_atom_site_fract_z
Er1 Er 0.70995(9) 0.67238(7) 0.41946(6)
Er2 Er 1.80817(10) -0.22024(8) -0.16913(7)
Zn1 Zn 0.7606(15) 0.2266(13) 0.1254(11)
O1 O 0.929(4) 0.697(3) 0.510(2)
H1 H 0.8905 0.7631 0.5456
O2 O 0.400(4) 0.741(3) 0.417(2)
H2 H 0.3571 0.8065 0.4513
O3 O 0.646(4) 0.614(3) 0.2647(18)
H3 H 0.7180 0.6461 0.2095
O4 O 0.908(3) 0.823(3) 0.2645(16)
H4 H 0.8648 0.9120 0.2556
O5 O 1.595(4) -0.217(3) -0.254(3)
H5 H 1.6393 -0.2369 -0.3137
O6 O 2.112(3) -0.293(3) -0.173(2)
H6 H 2.1353 -0.2723 -0.1211
O7 O 1.873(4) -0.192(3) -0.010(2)
H7 H 1.8322 -0.1073 -0.0003
O8 O 1.617(4) -0.351(3) -0.023(2)
H8 H 1.6023 -0.4283 -0.0378
O9 O 0.570(4) 0.619(3) 0.598(2)
O10 O 0.351(5) 0.491(4) 0.733(3)
O11 O 0.631(5) -0.075(3) 0.437(3)
O12 O 0.782(3) 0.083(3) 0.303(2)
O13 O 1.699(4) 0.031(3) 0.106(2)
O14 O 1.482(4) -0.107(4) 0.162(3)
O15 O 0.958(4) 0.493(2) 0.369(2)
O16 O 1.198(3) 0.533(3) 0.4054(15)
O17 O 0.833(4) 0.409(3) 0.152(2)
O18 O 1.039(5) 0.566(3) 0.092(2)
O19 O 1.574(3) -0.047(3) -0.1176(16)
O20 O 1.318(3) -0.141(3) -0.090(2)
O21 O 0.948(3) -0.162(3) -0.3530(16)
O22 O 1.146(5) -0.052(3) -0.476(3)
O23 O 0.872(5) 0.539(4) -0.184(3)
O24 O 0.728(4) 0.362(2) -0.056(2)
N1 N 0.621(4) 0.405(3) 0.481(2)
N2 N 1.499(5) 0.248(5) 0.204(3)
N3 N 1.032(4) 0.195(3) 0.058(2)
N4 N 0.916(4) 0.024(3) -0.230(2)
C1 C 0.464(6) 0.504(4) 0.640(3)
C2 C 0.510(5) 0.367(6) 0.584(4)
C3 C 0.463(7) 0.238(4) 0.636(3)
H9 H 0.3920 0.2204 0.7056
C4 C 0.526(6) 0.132(5) 0.580(3)
H10 H 0.5097 0.0338 0.6152
C5 C 0.620(4) 0.158(4) 0.466(3)
C6 C 0.670(5) 0.312(5) 0.425(2)
H11 H 0.7411 0.3383 0.3559
C7 C 0.682(5) 0.043(3) 0.396(4)
C8 C 1.530(4) 0.008(3) 0.153(3)
C9 C 1.432(5) 0.135(4) 0.210(3)
C10 C 1.256(7) 0.105(4) 0.262(3)
H12 H 1.2152 0.0154 0.2683
C11 C 1.144(5) 0.236(5) 0.307(3)
H13 H 1.0259 0.2324 0.3426
C12 C 1.220(5) 0.349(5) 0.294(4)
C13 C 1.399(5) 0.362(5) 0.235(3)
H14 H 1.4430 0.4539 0.2183
C14 C 1.128(4) 0.493(5) 0.363(3)
C15 C 0.966(7) 0.444(6) 0.098(3)
C16 C 1.110(5) 0.333(4) 0.050(3)
C17 C 1.274(4) 0.334(4) -0.015(2)
H15 H 1.3277 0.4202 -0.0265
C18 C 1.361(5) 0.231(4) -0.061(2)
H16 H 1.4741 0.2461 -0.1024
C19 C 1.299(7) 0.087(5) -0.054(3)
C20 C 1.131(5) 0.091(3) 0.002(3)
H17 H 1.0731 0.0116 0.0018
C21 C 1.412(4) -0.032(3) -0.091(2)
C22 C 1.029(6) -0.056(5) -0.399(3)
C23 C 0.998(5) 0.062(3) -0.339(2)
C24 C 1.044(7) 0.214(6) -0.375(3)
H18 H 1.1063 0.2397 -0.4470
C25 C 1.004(8) 0.328(6) -0.314(4)
H19 H 1.0463 0.4204 -0.3375
C26 C 0.897(6) 0.282(5) -0.215(3)
C27 C 0.863(5) 0.145(3) -0.172(3)
H20 H 0.8017 0.1238 -0.1001
C28 C 0.828(4) 0.395(3) -0.1465(18)
O11_2 O 0.631(5) 0.925(3) 0.437(3)
O21_2 O 1.948(3) -0.162(3) -0.3530(16)
O23_2 O 1.872(5) -0.461(4) -0.184(3)
N4_2 N 1.916(4) 0.024(3) -0.230(2)
O13_2 O 0.699(4) 0.031(3) 0.106(2)
N2_2 N 0.499(5) 0.248(5) 0.204(3)
Er1_2 Er 0.70995(9) -0.32762(7) 0.41946(6)
Zn1_2 Zn 1.7606(15) 0.2266(13) 0.1254(11)
Er2_2 Er 0.80817(10) -0.22024(8) -0.16913(7)
Er2_3 Er 0.80817(10) 0.77976(8) -0.16913(7)
O25 O 0.230(3) 0.720(3) 0.1609(14)
loop_
_geom_bond_atom_site_label_1
_geom_bond_atom_site_label_2
_geom_bond_site_symmetry_1
_geom_bond_site_symmetry_2
Er1 O1 1_555 1_555
Er2 O5 1_555 1_555
Zn1 O12 1_555 1_555
O1 H1 1_555 1_555
O2 Er1 1_555 1_555
H2 O2 1_555 1_555
O3 Er1 1_555 1_555
H3 O3 1_555 1_555
O4 Er1 1_555 1_555
H4 O4 1_555 1_555
O5 H5 1_555 1_555
O6 Er2 1_555 1_555
H6 O6 1_555 1_555
O7 Er2 1_555 1_555
H7 O7 1_555 1_555
O8 Er2 1_555 1_555
H8 O8 1_555 1_555
O9 Er1 1_555 1_555
O10 C1 1_555 1_555
O11 C7 1_555 1_555
O12 C7 1_555 1_555
O13 C8 1_555 1_555
O14 C8 1_555 1_555
O15 Er1 1_555 1_555
O16 C14 1_555 1_555
O17 Zn1 1_555 1_555
O18 C15 1_555 1_555
O19 Er2 1_555 1_555
O20 C21 1_555 1_555
O21 C22 1_555 1_555
O22 C22 1_555 1_555
O23 C28 1_555 1_555
O24 Zn1 1_555 1_555
N1 Er1 1_555 1_555
N2 C9 1_555 1_555
N3 Zn1 1_555 1_555
N4 C23 1_555 1_555
C1 O9 1_555 1_555
C2 N1 1_555 1_555
C3 C2 1_555 1_555
H9 C3 1_555 1_555
C4 C3 1_555 1_555
H10 C4 1_555 1_555
C5 C4 1_555 1_555
C6 N1 1_555 1_555
H11 C6 1_555 1_555
C7 C5 1_555 1_555
C8 C9 1_555 1_555
C9 C10 1_555 1_555
C10 H12 1_555 1_555
C11 C10 1_555 1_555
H13 C11 1_555 1_555
C12 C11 1_555 1_555
C13 N2 1_555 1_555
H14 C13 1_555 1_555
C14 O15 1_555 1_555
C15 O17 1_555 1_555
C16 N3 1_555 1_555
C17 C16 1_555 1_555
H15 C17 1_555 1_555
C18 C17 1_555 1_555
H16 C18 1_555 1_555
C19 C18 1_555 1_555
C20 N3 1_555 1_555
H17 C20 1_555 1_555
C21 O19 1_555 1_555
C22 C23 1_555 1_555
C23 C24 1_555 1_555
C24 H18 1_555 1_555
C25 C24 1_555 1_555
H19 C25 1_555 1_555
C26 C25 1_555 1_555
C27 N4 1_555 1_555
H20 C27 1_555 1_555
C28 O24 1_555 1_555
O11_2 Er1 1_555 1_555
O21_2 Er2 1_555 1_555
O23_2 Er2 1_555 1_555
N4_2 Er2 1_555 1_555
O13_2 Zn1 1_555 1_555
N2_2 Zn1 1_555 1_555
Er1_2 O11 1_555 1_555
Zn1_2 O13 1_555 1_555
Er2_2 O21 1_555 1_555
Er2_3 O23 1_555 1_555
N2 Zn1_2 1_555 1_555
N4 Er2_2 1_555 1_555
C1 C2 1_555 1_555
C5 C6 1_555 1_555
C12 C13 1_555 1_555
C12 C14 1_555 1_555
C15 C16 1_555 1_555
C19 C20 1_555 1_555
C19 C21 1_555 1_555
C26 C27 1_555 1_555
C26 C28 1_555 1_555

#END
