
#######################################################################
#
#                 Cambridge Crystallographic Data Centre
#                                CCDC 
#
#######################################################################
#
# If this CIF has been generated from an entry in the Cambridge 
# Structural Database, then it will include bibliographic, chemical, 
# crystal, experimental, refinement or atomic coordinate data resulting 
# from the CCDC's data processing and validation procedures.
#
#######################################################################

data_XUCGUY
_symmetry_cell_setting           triclinic
_symmetry_space_group_name_H-M   'P -1'
_symmetry_Int_Tables_number      2
_space_group_name_Hall           '-P 1'
loop_
_symmetry_equiv_pos_site_id
_symmetry_equiv_pos_as_xyz
1 x,y,z
2 -x,-y,-z
_cell_length_a                   8.6582(2)
_cell_length_b                   9.1780(2)
_cell_length_c                   9.8954(3)
_cell_angle_alpha                101.167(2)
_cell_angle_beta                 104.950(2)
_cell_angle_gamma                114.4120(10)
_cell_volume                     650.254
loop_
_atom_site_label
_atom_site_type_symbol
_atom_site_fract_x
_atom_site_fract_y
_atom_site_fract_z
Cd1 Cd 0.22907(2) 0.01622(2) 0.138142(19)
Cd2 Cd 0.5000 0.0000 0.5000
N1 N 0.3875(3) -0.1338(3) 0.1418(2)
N2 N 0.4646(3) -0.1559(3) 0.2706(2)
N3 N 0.4973(3) -0.3029(3) 0.0892(2)
C1 C 0.4084(3) -0.2225(3) 0.0349(3)
H1 H 0.3682 -0.2295 -0.0641
C2 C 0.5287(4) -0.2582(3) 0.2363(3)
H2 H 0.5874 -0.2949 0.3032
C3 C 0.5572(3) -0.4072(3) 0.0084(3)
H3 H 0.6857 -0.3680 0.0625
H4 H 0.5429 -0.3963 -0.0890
O1 O 0.4900(3) -0.2643(2) 0.7483(2)
O2 O 0.3822(3) -0.2539(3) 0.5218(2)
O3 O 0.0797(3) -0.8339(2) 0.1238(2)
O4 O -0.2082(3) -0.9584(3) 0.1073(2)
O5 O -0.2241(2) -0.9851(2) 0.6215(2)
O6 O 0.0018(3) -0.7772(3) 0.8214(2)
C4 C 0.2309(3) -0.5111(3) 0.5561(3)
C5 C 0.1682(3) -0.6019(3) 0.4059(3)
H5 H 0.2232 -0.5509 0.3461
C6 C 0.0240(3) -0.7686(3) 0.3440(3)
C7 C -0.0575(3) -0.8449(3) 0.4340(3)
H6 H -0.1560 -0.9552 0.3927
C8 C 0.0079(3) -0.7565(3) 0.5860(3)
C9 C 0.1530(3) -0.5886(3) 0.6469(3)
H7 H 0.1970 -0.5290 0.7481
C10 C 0.3812(3) -0.3271(3) 0.6150(3)
C11 C -0.0403(3) -0.8618(3) 0.1815(3)
C12 C -0.0756(3) -0.8427(3) 0.6833(3)
Cd1A Cd 0.77093(2) -1.01622(2) -0.138142(19)
Cd1A_2 Cd 0.77093(2) -0.01622(2) 0.861858(19)
Cd1_2 Cd 0.22907(2) -0.98378(2) 0.138142(19)
Cd1A_3 Cd -0.22907(2) -1.01622(2) -0.138142(19)
Cd1A_4 Cd -0.22907(2) -1.01622(2) 0.861858(19)
Cd1A_5 Cd 0.77093(2) 0.98378(2) 0.861858(19)
Cd1_3 Cd 1.22907(2) 1.01622(2) 1.138142(19)
Cd1_4 Cd 1.22907(2) 1.01622(2) 0.138142(19)
Cd2_2 Cd -0.5000 -1.0000 0.5000
Cd2_3 Cd 0.5000 -1.0000 -0.5000
Cd2_4 Cd 1.5000 1.0000 0.5000
N1A N 0.6125(3) -0.8662(3) -0.1418(2)
N2A N 0.5354(3) -0.8441(3) -0.2706(2)
N2A_2 N 0.5354(3) 0.1559(3) 0.7294(2)
N3A N 0.5027(3) -0.6971(3) -0.0892(2)
C1A C 0.5916(3) -0.7775(3) -0.0349(3)
H1A H 0.6318 -0.7705 0.0641
C2A C 0.4713(4) -0.7418(3) -0.2363(3)
H2A H 0.4126 -0.7051 -0.3032
C3A C 0.4428(3) -0.5928(3) -0.0084(3)
H3A H 0.3143 -0.6320 -0.0625
H4A H 0.4571 -0.6037 0.0890
O1A O 0.5100(3) 0.2643(2) 0.2517(2)
O1_2 O 0.4900(3) -1.2643(2) -0.2517(2)
O2A O 0.6178(3) 0.2539(3) 0.4782(2)
O3A O 0.9203(3) 0.8339(2) 0.8762(2)
O3_2 O 0.0797(3) 0.1661(2) 0.1238(2)
O3A_2 O 0.9203(3) -1.1661(2) -0.1238(2)
O4A O 1.2082(3) 0.9584(3) 0.8927(2)
O4A_2 O 0.2082(3) -0.0416(3) -0.1073(2)
O4_2 O 0.7918(3) -0.9584(3) 0.1073(2)
O5A O 1.2241(2) 0.9851(2) 0.3785(2)
O5A_2 O 0.2241(2) -0.0149(2) 0.3785(2)
O5_2 O 0.7759(2) 0.0149(2) 0.6215(2)
O5_3 O 0.7759(2) -0.9851(2) -0.3785(2)
O6A O 0.9982(3) 0.7772(3) 0.1786(2)
O6A_2 O -0.0018(3) -0.2228(3) 0.1786(2)
O6_2 O 1.0018(3) -0.7772(3) -0.1786(2)
C4A C 0.7691(3) 0.5111(3) 0.4439(3)
C5A C 0.8318(3) 0.6019(3) 0.5941(3)
H5A H 0.7768 0.5509 0.6539
C6A C 0.9760(3) 0.7686(3) 0.6560(3)
C7A C 1.0575(3) 0.8449(3) 0.5660(3)
H6A H 1.1560 0.9552 0.6073
C8A C 0.9921(3) 0.7565(3) 0.4140(3)
C9A C 0.8470(3) 0.5886(3) 0.3531(3)
H7A H 0.8030 0.5290 0.2519
C10A C 0.6188(3) 0.3271(3) 0.3850(3)
C11A C 1.0403(3) 0.8618(3) 0.8185(3)
C12A C 1.0756(3) 0.8427(3) 0.3167(3)
O7 O 0.0397(13) -0.5212(9) 0.0848(8)
loop_
_geom_bond_atom_site_label_1
_geom_bond_atom_site_label_2
_geom_bond_site_symmetry_1
_geom_bond_site_symmetry_2
Cd1 N1 1_555 1_555
Cd2 N2 1_555 1_555
N1 N2 1_555 1_555
N2 C2 1_555 1_555
N3 C1 1_555 1_555
C1 N1 1_555 1_555
H1 C1 1_555 1_555
C2 N3 1_555 1_555
H2 C2 1_555 1_555
C3 N3 1_555 1_555
H3 C3 1_555 1_555
H4 C3 1_555 1_555
O1 C10 1_555 1_555
O2 Cd2 1_555 1_555
O3 C11 1_555 1_555
O4 C11 1_555 1_555
O5 C12 1_555 1_555
O6 C12 1_555 1_555
C4 C5 1_555 1_555
C5 H5 1_555 1_555
C6 C5 1_555 1_555
C7 C6 1_555 1_555
H6 C7 1_555 1_555
C8 C7 1_555 1_555
C9 C4 1_555 1_555
H7 C9 1_555 1_555
C10 O2 1_555 1_555
C11 C6 1_555 1_555
C12 C8 1_555 1_555
Cd1A N1A 1_555 1_555
Cd1A_2 O1 1_555 1_555
Cd1_2 O3 1_555 1_555
Cd1A_3 O4 1_555 1_555
Cd1A_4 O5 1_555 1_555
Cd1A_5 O3A 1_555 1_555
Cd1_3 O4A 1_555 1_555
Cd1_4 O5A 1_555 1_555
Cd2_2 O5 1_555 1_555
Cd2_3 N2A 1_555 1_555
Cd2_4 O5A 1_555 1_555
N1A N2A 1_555 1_555
N2A C2A 1_555 1_555
N2A_2 Cd2 1_555 1_555
N3A C1A 1_555 1_555
C1A N1A 1_555 1_555
H1A C1A 1_555 1_555
C2A N3A 1_555 1_555
H2A C2A 1_555 1_555
C3A C3 1_555 1_555
H3A C3A 1_555 1_555
H4A C3A 1_555 1_555
O1A Cd1 1_555 1_555
O1_2 Cd1A 1_555 1_555
O2A Cd2 1_555 1_555
O3A C11A 1_555 1_555
O3_2 Cd1 1_555 1_555
O3A_2 Cd1A 1_555 1_555
O4A C11A 1_555 1_555
O4A_2 Cd1 1_555 1_555
O4_2 Cd1A 1_555 1_555
O5A C12A 1_555 1_555
O5A_2 Cd1 1_555 1_555
O5_2 Cd2 1_555 1_555
O5_3 Cd1A 1_555 1_555
O6A Cd1_4 1_555 1_555
O6A_2 Cd1 1_555 1_555
O6_2 Cd1A 1_555 1_555
C4A C5A 1_555 1_555
C5A H5A 1_555 1_555
C6A C5A 1_555 1_555
C7A C6A 1_555 1_555
H6A C7A 1_555 1_555
C8A C7A 1_555 1_555
C9A C4A 1_555 1_555
H7A C9A 1_555 1_555
C10A O1A 1_555 1_555
C11A C6A 1_555 1_555
C12A O6A 1_555 1_555
Cd2 O5A_2 1_555 1_555
O6 Cd1A_4 1_555 1_555
C4 C10 1_555 1_555
C8 C9 1_555 1_555
Cd1A_2 O5_2 1_555 1_555
Cd2_3 O5_3 1_555 1_555
N3A C3A 1_555 1_555
O2A C10A 1_555 1_555
C4A C10A 1_555 1_555
C8A C9A 1_555 1_555
C8A C12A 1_555 1_555

#END
