
#######################################################################
#
#                 Cambridge Crystallographic Data Centre
#                                CCDC 
#
#######################################################################
#
# If this CIF has been generated from an entry in the Cambridge 
# Structural Database, then it will include bibliographic, chemical, 
# crystal, experimental, refinement or atomic coordinate data resulting 
# from the CCDC's data processing and validation procedures.
#
#######################################################################

data_XUCHOS02
_symmetry_cell_setting           monoclinic
_symmetry_space_group_name_H-M   'P 21/c'
_symmetry_Int_Tables_number      14
_space_group_name_Hall           '-P 2ybc'
loop_
_symmetry_equiv_pos_site_id
_symmetry_equiv_pos_as_xyz
1 x,y,z
2 -x,1/2+y,1/2-z
3 -x,-y,-z
4 x,1/2-y,1/2+z
_cell_length_a                   7.751(5)
_cell_length_b                   15.049(5)
_cell_length_c                   6.435(5)
_cell_angle_alpha                90
_cell_angle_beta                 108.440(5)
_cell_angle_gamma                90
_cell_volume                     712.07
loop_
_atom_site_label
_atom_site_type_symbol
_atom_site_fract_x
_atom_site_fract_y
_atom_site_fract_z
C1 C -1.3085(3) 0.31921(17) 0.2326(4)
C2 C -1.1025(3) 0.19707(16) 0.2821(4)
C3 C -1.2779(3) 0.22832(17) 0.2432(4)
H1 H -1.3740 0.1888 0.2244
Ni1 Ni -0.77533(4) 0.41705(2) 0.24861(6)
N1 N -0.9937(3) 0.34602(14) 0.2794(3)
O1 O -0.6565(3) 0.41177(16) 0.5894(4)
C4 C -1.4905(3) 0.35575(17) 0.2202(4)
O2 O -0.8946(2) 0.07691(11) 0.4035(3)
O3 O -1.5159(2) 0.43915(12) 0.2155(3)
O4 O -1.6159(2) 0.30386(12) 0.2218(3)
O5 O -1.1850(2) 0.04719(12) 0.2174(3)
C5 C -1.1634(3) 0.37582(16) 0.2464(4)
H2 H -1.1849 0.4367 0.2323
C6 C -1.0562(4) 0.09894(16) 0.3043(4)
C7 C -0.9638(3) 0.25818(17) 0.3049(4)
H3 H -0.8450 0.2375 0.3393
H4 H -0.608(5) 0.452(2) 0.648(6)
H5 H -0.710(5) 0.407(3) 0.656(6)
Ni1C Ni -0.77533(4) 0.08295(2) 0.74861(6)
Ni1_2 Ni -1.77533(4) 0.41705(2) 0.24861(6)
Ni1A Ni -1.22467(4) -0.08295(2) 0.25139(6)
O2C O -0.8946(2) 0.42309(11) -0.0965(3)
O3_2 O -0.5159(2) 0.43915(12) 0.2155(3)
O4_2 O -0.6159(2) 0.30386(12) 0.2218(3)
O5A O -0.8150(2) 0.54719(12) 0.2826(3)
loop_
_geom_bond_atom_site_label_1
_geom_bond_atom_site_label_2
_geom_bond_site_symmetry_1
_geom_bond_site_symmetry_2
C1 C3 1_555 1_555
C2 C3 1_555 1_555
C3 H1 1_555 1_555
Ni1 N1 1_555 1_555
N1 C5 1_555 1_555
O1 Ni1 1_555 1_555
C4 C1 1_555 1_555
O2 C6 1_555 1_555
O3 C4 1_555 1_555
O4 C4 1_555 1_555
O5 C6 1_555 1_555
C5 C1 1_555 1_555
H2 C5 1_555 1_555
C6 C2 1_555 1_555
C7 C2 1_555 1_555
H3 C7 1_555 1_555
H4 O1 1_555 1_555
H5 O1 1_555 1_555
Ni1C O2 1_555 1_555
Ni1_2 O3 1_555 1_555
Ni1A O5 1_555 1_555
O2C Ni1 1_555 1_555
O3_2 Ni1 1_555 1_555
O4_2 Ni1 1_555 1_555
O5A Ni1 1_555 1_555
N1 C7 1_555 1_555
O4 Ni1_2 1_555 1_555

#END
