
#######################################################################
#
#                 Cambridge Crystallographic Data Centre
#                                CCDC 
#
#######################################################################
#
# If this CIF has been generated from an entry in the Cambridge 
# Structural Database, then it will include bibliographic, chemical, 
# crystal, experimental, refinement or atomic coordinate data resulting 
# from the CCDC's data processing and validation procedures.
#
#######################################################################

data_XUCHOS01
_symmetry_cell_setting           monoclinic
_symmetry_space_group_name_H-M   'P 21/c'
_symmetry_Int_Tables_number      14
_space_group_name_Hall           '-P 2ybc'
loop_
_symmetry_equiv_pos_site_id
_symmetry_equiv_pos_as_xyz
1 x,y,z
2 -x,1/2+y,1/2-z
3 -x,-y,-z
4 x,1/2-y,1/2+z
_cell_length_a                   7.7496(6)
_cell_length_b                   15.050(1)
_cell_length_c                   6.4224(5)
_cell_angle_alpha                90
_cell_angle_beta                 108.437(1)
_cell_angle_gamma                90
_cell_volume                     710.607
loop_
_atom_site_label
_atom_site_type_symbol
_atom_site_fract_x
_atom_site_fract_y
_atom_site_fract_z
Ni1 Ni 0.72476(4) 0.41704(2) 0.24885(5)
N1 N 0.5062(3) 0.34612(13) 0.2798(3)
O1 O 0.6054(2) 0.07696(11) 0.4040(3)
O2 O 0.3152(2) 0.04716(12) 0.2171(3)
O3 O -0.0157(2) 0.43926(11) 0.2164(3)
O4 O -0.1162(2) 0.30383(11) 0.2223(3)
O5 O 0.8442(3) 0.41180(12) 0.5904(3)
H1 H 0.8950(39) 0.4614(12) 0.6555(44)
H2 H 0.7764(34) 0.4026(20) 0.6761(41)
C1 C 0.5357(3) 0.2581(2) 0.3047(4)
H3 H 0.6621(39) 0.2394(18) 0.3338(42)
C2 C 0.3978(3) 0.1971(2) 0.2826(4)
C3 C 0.2223(3) 0.2283(2) 0.2436(4)
H4 H 0.1313(39) 0.1931(19) 0.2301(45)
C4 C 0.1916(3) 0.3194(2) 0.2336(4)
C5 C 0.3367(3) 0.3757(2) 0.2473(4)
H5 H 0.3176(39) 0.4325(20) 0.2285(43)
C6 C 0.4430(3) 0.0991(2) 0.3036(4)
C7 C 0.0093(3) 0.3558(2) 0.2207(4)
O1C O 0.6054(2) 0.42304(11) -0.0960(3)
O2A O 0.6848(2) 0.54716(12) 0.2829(3)
O3_2 O 0.9843(2) 0.43926(11) 0.2164(3)
O4_2 O 0.8838(2) 0.30383(11) 0.2223(3)
Ni1C Ni 0.72476(4) 0.08296(2) 0.74885(5)
Ni1A Ni 0.27524(4) -0.08296(2) 0.25115(5)
Ni1_2 Ni -0.27524(4) 0.41704(2) 0.24885(5)
loop_
_geom_bond_atom_site_label_1
_geom_bond_atom_site_label_2
_geom_bond_site_symmetry_1
_geom_bond_site_symmetry_2
Ni1 N1 1_555 1_555
N1 C1 1_555 1_555
O1 C6 1_555 1_555
O2 C6 1_555 1_555
O3 C7 1_555 1_555
O4 C7 1_555 1_555
O5 Ni1 1_555 1_555
H1 O5 1_555 1_555
H2 O5 1_555 1_555
C1 H3 1_555 1_555
C2 C1 1_555 1_555
C3 C2 1_555 1_555
H4 C3 1_555 1_555
C4 C3 1_555 1_555
C5 N1 1_555 1_555
H5 C5 1_555 1_555
C6 C2 1_555 1_555
C7 C4 1_555 1_555
O1C Ni1 1_555 1_555
O2A Ni1 1_555 1_555
O3_2 Ni1 1_555 1_555
O4_2 Ni1 1_555 1_555
Ni1C O1 1_555 1_555
Ni1A O2 1_555 1_555
Ni1_2 O3 1_555 1_555
O4 Ni1_2 1_555 1_555
C4 C5 1_555 1_555

#END
