
#######################################################################
#
#                 Cambridge Crystallographic Data Centre
#                                CCDC 
#
#######################################################################
#
# If this CIF has been generated from an entry in the Cambridge 
# Structural Database, then it will include bibliographic, chemical, 
# crystal, experimental, refinement or atomic coordinate data resulting 
# from the CCDC's data processing and validation procedures.
#
#######################################################################

data_XUCROD
_symmetry_cell_setting           monoclinic
_symmetry_space_group_name_H-M   'P 21/c'
_symmetry_Int_Tables_number      14
_space_group_name_Hall           '-P 2ybc'
loop_
_symmetry_equiv_pos_site_id
_symmetry_equiv_pos_as_xyz
1 x,y,z
2 -x,1/2+y,1/2-z
3 -x,-y,-z
4 x,1/2-y,1/2+z
_cell_length_a                   10.0069(5)
_cell_length_b                   11.7324(6)
_cell_length_c                   17.9975(8)
_cell_angle_alpha                90
_cell_angle_beta                 95.3660(10)
_cell_angle_gamma                90
_cell_volume                     2103.74
loop_
_atom_site_label
_atom_site_type_symbol
_atom_site_fract_x
_atom_site_fract_y
_atom_site_fract_z
Cu1 Cu 0.64299(3) 0.86511(2) 1.029054(15)
Cu2 Cu 0.89377(3) 1.02348(2) 1.110361(14)
Cu3 Cu 0.79302(3) 1.06418(2) 0.927538(14)
N1 N 0.69230(18) 0.85765(16) 1.13604(10)
N2 N 0.95152(18) 1.14096(15) 0.97611(10)
N3 N 0.98431(19) 1.13066(15) 1.05092(11)
N4 N 0.79058(18) 0.92546(17) 1.16945(10)
N5 N 0.64308(19) 0.97253(17) 0.88394(10)
N6 N 0.58636(18) 0.89078(16) 0.92444(11)
C1 C 0.5780(2) 0.9743(2) 0.81580(13)
H1 H 0.5971 1.0230 0.7774
C2 C 0.6408(3) 0.7984(2) 1.18991(14)
H2 H 0.5715 0.7457 1.1822
C3 C 0.4875(2) 0.8422(2) 0.87967(13)
H3 H 0.4334 0.7828 0.8935
C4 C 1.0311(2) 1.21989(19) 0.95020(14)
H4 H 1.0290 1.2429 0.9007
C5 C 1.0843(2) 1.2043(2) 1.07042(14)
H5 H 1.1249 1.2143 1.1186
C6 C 0.4778(2) 0.8927(2) 0.81080(13)
H6 H 0.4174 0.8759 0.7698
C7 C 1.1176(2) 1.2625(2) 1.00850(15)
H7 H 1.1833 1.3181 1.0062
C8 C 0.7046(3) 0.8263(2) 1.25789(14)
H8 H 0.6880 0.7974 1.3043
C9 C 0.7973(2) 0.9052(2) 1.24280(14)
H9 H 0.8570 0.9403 1.2784
C10 C 0.4349(2) 0.71140(19) 1.04508(12)
O1 O 1.03321(16) 1.03662(15) 1.19481(9)
C11 C 1.1115(2) 0.9563(2) 1.21567(13)
C12 C 1.1457(2) 0.9404(2) 1.29785(14)
C13 C 1.1942(3) 0.8343(3) 1.32326(17)
H10 H 1.2153 0.8220 1.3740
H11 H 1.2054 0.7760 1.2894
C14 C 1.1256(4) 1.0334(3) 1.34507(17)
H12 H 1.1779 1.0972 1.3311
H13 H 1.0323 1.0538 1.3405
H14 H 1.1530 1.0127 1.3958
O2 O 0.55824(15) 0.71556(13) 1.03317(9)
C15 C 0.3855(2) 0.6008(2) 1.07318(14)
C16 C 0.4776(3) 0.5168(2) 1.09738(17)
H15 H 0.4479 0.4487 1.1165
H16 H 0.5688 0.5288 1.0944
C17 C 0.2456(3) 0.5873(3) 1.0763(2)
H17 H 0.2262 0.5089 1.0863
H18 H 0.1992 0.6093 1.0294
H19 H 0.2165 0.6344 1.1153
O3 O 0.74916(15) 1.00959(13) 1.02808(8)
H20 H 0.703(2) 1.0639(16) 1.0342(13)
O4 O 1.16303(17) 0.88840(15) 1.17260(9)
O5 O 0.35679(17) 0.79280(15) 1.03455(11)
Cu3B Cu 1.20698(3) 0.93582(2) 1.072462(14)
Cu3B_2 Cu 0.20698(3) 0.93582(2) 1.072462(14)
O4B O 0.83697(17) 1.11160(15) 0.82740(9)
O5B O 0.64321(17) 1.20720(15) 0.96545(11)
loop_
_geom_bond_atom_site_label_1
_geom_bond_atom_site_label_2
_geom_bond_site_symmetry_1
_geom_bond_site_symmetry_2
Cu1 N1 1_555 1_555
Cu2 N3 1_555 1_555
Cu3 N2 1_555 1_555
N1 N4 1_555 1_555
N2 N3 1_555 1_555
N3 C5 1_555 1_555
N4 Cu2 1_555 1_555
N5 Cu3 1_555 1_555
N6 Cu1 1_555 1_555
C1 N5 1_555 1_555
H1 C1 1_555 1_555
C2 N1 1_555 1_555
H2 C2 1_555 1_555
C3 N6 1_555 1_555
H3 C3 1_555 1_555
C4 N2 1_555 1_555
H4 C4 1_555 1_555
C5 H5 1_555 1_555
C6 C1 1_555 1_555
H6 C6 1_555 1_555
C7 C4 1_555 1_555
H7 C7 1_555 1_555
C8 C2 1_555 1_555
H8 C8 1_555 1_555
C9 N4 1_555 1_555
H9 C9 1_555 1_555
C10 O2 1_555 1_555
O1 Cu2 1_555 1_555
C11 O1 1_555 1_555
C12 C11 1_555 1_555
C13 C12 1_555 1_555
H10 C13 1_555 1_555
H11 C13 1_555 1_555
C14 C12 1_555 1_555
H12 C14 1_555 1_555
H13 C14 1_555 1_555
H14 C14 1_555 1_555
O2 Cu1 1_555 1_555
C15 C10 1_555 1_555
C16 C15 1_555 1_555
H15 C16 1_555 1_555
H16 C16 1_555 1_555
C17 C15 1_555 1_555
H17 C17 1_555 1_555
H18 C17 1_555 1_555
H19 C17 1_555 1_555
O3 Cu1 1_555 1_555
H20 O3 1_555 1_555
O4 C11 1_555 1_555
O5 C10 1_555 1_555
Cu3B O4 1_555 1_555
Cu3B_2 O5 1_555 1_555
O4B Cu3 1_555 1_555
O5B Cu3 1_555 1_555
Cu2 O3 1_555 1_555
Cu3 O3 1_555 1_555
N5 N6 1_555 1_555
C3 C6 1_555 1_555
C5 C7 1_555 1_555
C8 C9 1_555 1_555

#END
