
#######################################################################
#
#                 Cambridge Crystallographic Data Centre
#                                CCDC 
#
#######################################################################
#
# If this CIF has been generated from an entry in the Cambridge 
# Structural Database, then it will include bibliographic, chemical, 
# crystal, experimental, refinement or atomic coordinate data resulting 
# from the CCDC's data processing and validation procedures.
#
#######################################################################

data_XUCRIX
_symmetry_cell_setting           monoclinic
_symmetry_space_group_name_H-M   'P 21/c'
_symmetry_Int_Tables_number      14
_space_group_name_Hall           '-P 2ybc'
loop_
_symmetry_equiv_pos_site_id
_symmetry_equiv_pos_as_xyz
1 x,y,z
2 -x,1/2+y,1/2-z
3 -x,-y,-z
4 x,1/2-y,1/2+z
_cell_length_a                   10.982(2)
_cell_length_b                   20.322(4)
_cell_length_c                   10.4061(19)
_cell_angle_alpha                90
_cell_angle_beta                 113.891(3)
_cell_angle_gamma                90
_cell_volume                     2123.41
loop_
_atom_site_label
_atom_site_type_symbol
_atom_site_fract_x
_atom_site_fract_y
_atom_site_fract_z
Cu1 Cu 0.37578(5) 1.07825(3) 0.35097(6)
Cu2 Cu 0.44448(5) 0.92650(3) 0.27145(6)
Cu3 Cu 0.12450(5) 0.97708(3) 0.15923(6)
N1 N 0.5577(4) 1.0513(2) 0.3984(4)
N2 N 0.5864(4) 0.98818(19) 0.3740(4)
N3 N 0.2960(4) 0.8669(2) 0.1792(4)
N4 N 0.1909(4) 1.1021(2) 0.3026(4)
N5 N 0.1672(4) 0.8887(2) 0.1191(4)
N6 N 0.0950(4) 1.0553(2) 0.2495(4)
O1 O 0.3155(3) 1.00188(15) 0.2230(3)
H1 H 0.334(4) 1.014(2) 0.152(3)
C1 C 0.7173(4) 0.9849(2) 0.4119(5)
H2 H 0.7631 0.9474 0.4056
C2 C 0.7751(5) 1.0447(3) 0.4617(6)
H3 H 0.8649 1.0555 0.4948
C3 C 0.6721(5) 1.0849(3) 0.4520(5)
H4 H 0.6802 1.1289 0.4787
C4 C 0.2962(5) 0.8049(3) 0.1366(6)
H5 H 0.3713 0.7784 0.1614
C5 C 0.1675(6) 0.7860(3) 0.0499(6)
H6 H 0.1392 0.7454 0.0069
C6 C 0.0913(6) 0.8409(3) 0.0419(6)
H7 H -0.0001 0.8438 -0.0103
C7 C 0.1368(6) 1.1532(3) 0.3421(6)
H8 H 0.1814 1.1919 0.3818
C8 C 0.0063(6) 1.1400(3) 0.3154(6)
H9 H -0.0540 1.1671 0.3321
C9 C -0.0153(5) 1.0785(3) 0.2589(6)
H10 H -0.0954 1.0557 0.2308
O2 O 0.4360(3) 1.15176(16) 0.6560(3)
O3 O -0.0707(3) 0.96321(17) 0.0621(3)
O4 O 0.4381(3) 1.16289(17) 0.4433(4)
O5 O 0.4900(3) 0.9253(2) 0.0700(4)
H11 H 0.570(3) 0.931(3) 0.069(6)
C10 C 0.4306(5) 1.1850(2) 0.5528(5)
C11 C 0.4087(6) 1.2572(3) 0.5534(6)
H12 H 0.432(5) 1.280(3) 0.483(4)
C12 C 0.3944(5) 0.9129(3) -0.0686(5)
H13 H 0.3065 0.9152 -0.0701
H14 H 0.4089 0.8699 -0.0977
H15 H 0.4031 0.9453 -0.1315
C13 C -0.1539(5) 0.9311(2) 0.0944(5)
C14 C -0.0985(6) 0.8874(3) 0.2181(6)
H16 H -0.0024(14) 0.885(3) 0.274(5)
O6 O -0.2748(3) 0.93541(17) 0.0249(4)
C15 C -0.1663(7) 0.8499(4) 0.2607(7)
H17 H -0.2636(14) 0.851(3) 0.212(6)
H18 H -0.110(5) 0.827(3) 0.348(4)
C16 C 0.3685(8) 1.2858(3) 0.6372(7)
H19 H 0.361(6) 1.3336(7) 0.625(7)
H20 H 0.347(6) 1.261(3) 0.706(5)
Cu2B Cu 0.55552(5) 1.07350(3) 0.72855(6)
Cu3B Cu -0.12450(5) 1.02292(3) -0.15923(6)
O2B O 0.5640(3) 0.84824(16) 0.3440(3)
O3B O 0.0707(3) 1.03679(17) -0.0621(3)
loop_
_geom_bond_atom_site_label_1
_geom_bond_atom_site_label_2
_geom_bond_site_symmetry_1
_geom_bond_site_symmetry_2
Cu1 N1 1_555 1_555
Cu2 N2 1_555 1_555
Cu3 N5 1_555 1_555
N1 N2 1_555 1_555
N2 C1 1_555 1_555
N3 Cu2 1_555 1_555
N4 Cu1 1_555 1_555
N5 N3 1_555 1_555
N6 Cu3 1_555 1_555
O1 Cu1 1_555 1_555
H1 O1 1_555 1_555
C1 H2 1_555 1_555
C2 C1 1_555 1_555
H3 C2 1_555 1_555
C3 N1 1_555 1_555
H4 C3 1_555 1_555
C4 N3 1_555 1_555
H5 C4 1_555 1_555
C5 C4 1_555 1_555
H6 C5 1_555 1_555
C6 N5 1_555 1_555
H7 C6 1_555 1_555
C7 N4 1_555 1_555
H8 C7 1_555 1_555
C8 C7 1_555 1_555
H9 C8 1_555 1_555
C9 N6 1_555 1_555
H10 C9 1_555 1_555
O2 C10 1_555 1_555
O3 Cu3 1_555 1_555
O4 Cu1 1_555 1_555
O5 Cu2 1_555 1_555
H11 O5 1_555 1_555
C10 O4 1_555 1_555
C11 C10 1_555 1_555
H12 C11 1_555 1_555
C12 O5 1_555 1_555
H13 C12 1_555 1_555
H14 C12 1_555 1_555
H15 C12 1_555 1_555
C13 O3 1_555 1_555
C14 C13 1_555 1_555
H16 C14 1_555 1_555
O6 C13 1_555 1_555
C15 C14 1_555 1_555
H17 C15 1_555 1_555
H18 C15 1_555 1_555
C16 C11 1_555 1_555
H19 C16 1_555 1_555
H20 C16 1_555 1_555
Cu2B O2 1_555 1_555
Cu3B O3 1_555 1_555
O2B Cu2 1_555 1_555
O3B Cu3 1_555 1_555
Cu2 O1 1_555 1_555
Cu3 O1 1_555 1_555
N4 N6 1_555 1_555
C2 C3 1_555 1_555
C5 C6 1_555 1_555
C8 C9 1_555 1_555
Cu3B O3B 1_555 1_555

#END
