
#######################################################################
#
#                 Cambridge Crystallographic Data Centre
#                                CCDC 
#
#######################################################################
#
# If this CIF has been generated from an entry in the Cambridge 
# Structural Database, then it will include bibliographic, chemical, 
# crystal, experimental, refinement or atomic coordinate data resulting 
# from the CCDC's data processing and validation procedures.
#
#######################################################################

data_XUCRUK
_symmetry_cell_setting           orthorhombic
_symmetry_space_group_name_H-M   'P b n m'
_symmetry_Int_Tables_number      62
_space_group_name_Hall           '-P 2c 2ab'
loop_
_symmetry_equiv_pos_site_id
_symmetry_equiv_pos_as_xyz
1 x,y,z
2 -x,-y,1/2+z
3 1/2+x,1/2-y,-z
4 1/2-x,1/2+y,1/2-z
5 -x,-y,-z
6 x,y,1/2-z
7 1/2-x,1/2+y,z
8 1/2+x,1/2-y,1/2+z
_cell_length_a                   13.125(4)
_cell_length_b                   14.315(4)
_cell_length_c                   22.276(6)
_cell_angle_alpha                90
_cell_angle_beta                 90
_cell_angle_gamma                90
_cell_volume                     4185.31
loop_
_atom_site_label
_atom_site_type_symbol
_atom_site_fract_x
_atom_site_fract_y
_atom_site_fract_z
Y1 Y 0.43664(2) 0.752001(19) 0.916269(11)
N1 N 0.57358(18) 0.70488(16) 1.00228(11)
C1 C 0.6672(2) 0.73761(18) 1.01413(13)
H1 H 0.6887 0.7896 0.9925
N2 N 0.73228(19) 0.70200(16) 1.05436(11)
C2 C 0.6990(2) 0.62833(19) 1.08603(12)
C3 C 0.6016(2) 0.5924(2) 1.07948(13)
H2 H 0.5778 0.5440 1.1035
C4 C 0.5415(2) 0.63245(19) 1.03514(13)
C5 C 0.4367(2) 0.59382(19) 1.02037(13)
O1 O 0.38822(16) 0.63283(14) 0.97841(9)
O2 O 0.40593(16) 0.52494(14) 1.04977(10)
C6 C 0.7759(2) 0.58235(19) 1.12744(12)
O3 O 0.86428(16) 0.61674(14) 1.12786(9)
O4 O 0.74817(17) 0.51259(15) 1.15682(10)
N3 N 0.50277(18) 0.78477(16) 0.80374(11)
C7 C 0.4766(3) 0.7497(3) 0.7500
H3 H 0.4366 0.6961 0.7500
C8 C 0.5610(2) 0.86213(19) 0.80294(13)
C9 C 0.5923(3) 0.9034(3) 0.7500
H4 H 0.6327 0.9567 0.7500
C10 C 0.5922(2) 0.9013(2) 0.86320(13)
O5 O 0.57207(16) 0.85151(14) 0.90880(9)
O6 O 0.6371(2) 0.97755(16) 0.86358(10)
O7 O 0.54334(18) 0.62856(15) 0.88230(10)
O8 O 0.32579(17) 0.66993(14) 0.85282(9)
O9 O 0.42016(16) 0.84261(15) 1.00332(9)
H5 H 0.5600 0.5819 0.9040
H6 H 0.5637 0.6141 0.8470
H7 H 0.2986 0.6152 0.8567
H8 H 0.2922 0.6934 0.8229
H9 H 0.4700 0.8614 1.0259
H10 H 0.3746 0.8849 1.0092
N3E N 0.50277(18) 0.78477(16) 0.69626(11)
C8E C 0.5610(2) 0.86213(19) 0.69706(13)
C10E C 0.5922(2) 0.9013(2) 0.63680(13)
O5E O 0.57207(16) 0.85151(14) 0.59120(9)
O6E O 0.6371(2) 0.97755(16) 0.63642(10)
Y1E Y 0.43664(2) 0.752001(19) 0.583731(11)
N1E N 0.57358(18) 0.70488(16) 0.49772(11)
C1E C 0.6672(2) 0.73761(18) 0.48587(13)
H1E H 0.6887 0.7896 0.5075
N2E N 0.73228(19) 0.70200(16) 0.44564(11)
C2E C 0.6990(2) 0.62833(19) 0.41397(12)
C3E C 0.6016(2) 0.5924(2) 0.42052(13)
H2E H 0.5778 0.5440 0.3965
C4E C 0.5415(2) 0.63245(19) 0.46486(13)
C5E C 0.4367(2) 0.59382(19) 0.47963(13)
O1E O 0.38822(16) 0.63283(14) 0.52159(9)
O2E O 0.40593(16) 0.52494(14) 0.45023(10)
C6E C 0.7759(2) 0.58235(19) 0.37256(12)
O3E O 0.86428(16) 0.61674(14) 0.37214(9)
O4E O 0.74817(17) 0.51259(15) 0.34318(10)
O7E O 0.54334(18) 0.62856(15) 0.61770(10)
O8E O 0.32579(17) 0.66993(14) 0.64718(9)
O9E O 0.42016(16) 0.84261(15) 0.49668(9)
H5E H 0.5600 0.5819 0.5960
H6E H 0.5637 0.6141 0.6530
H7E H 0.2986 0.6152 0.6433
H8E H 0.2922 0.6934 0.6771
H9E H 0.4700 0.8614 0.4741
H10E H 0.3746 0.8849 0.4908
Y1B Y 0.93664(2) 0.747999(19) 1.083731(11)
Y1G Y 0.93664(2) 0.747999(19) 0.416269(11)
N2B N 0.23228(19) 0.79800(16) 0.94564(11)
N2G N 0.23228(19) 0.79800(16) 0.55436(11)
O3B O 0.36428(16) 0.88326(14) 0.87214(9)
O3G O 0.36428(16) 0.88326(14) 0.62786(9)
O10 O 0.8786(2) 0.4493(2) 0.2500
H11 H 0.8531 0.4830 0.2817
H11E H 0.8531 0.4830 0.2183
O11 O 0.57961(19) 0.92776(17) 0.05659(11)
H12 H 0.5762 0.9789 0.0824
H13 H 0.6074 0.9449 0.0198
O12 O 0.7759(2) 0.2849(2) 0.2500
H14 H 0.8180 0.3319 0.2500
H15 H 0.8181 0.2375 0.2500
O13 O 0.20644(16) 0.48511(16) 1.02507(10)
H16 H 0.2701 0.4983 1.0281
H17 H 0.1841 0.4965 1.0613
O14 O 0.1224(4) 0.8773(3) 0.7500
O15 O 0.7947(4) 1.1725(4) 0.8012(2)
N4 N 0.6371(5) 1.2179(4) 0.8321(3)
C11 C 0.7007(5) 1.1629(5) 0.8035(3)
H18 H 0.6729 1.1122 0.7832
C12 C 0.6724(8) 1.2907(7) 0.8689(5)
H19 H 0.6153 1.3232 0.8859
H20 H 0.7123 1.3333 0.8454
H21 H 0.7136 1.2653 0.9005
C13 C 0.5325(6) 1.1964(6) 0.8322(4)
H22 H 0.4962 1.2429 0.8547
H23 H 0.5223 1.1363 0.8504
H24 H 0.5076 1.1953 0.7917
O16? O 0.5703(5) 1.3875(5) 0.7881(3)
C14? C 0.6377(5) 1.3438(4) 0.8144(4)
H25? H 0.7010 1.3712 0.8209
N5? N 0.6199(3) 1.2581(4) 0.8335(3)
C15? C 0.5207(5) 1.2152(7) 0.8330(5)
H26? H 0.5270 1.1503 0.8431
H27? H 0.4914 1.2210 0.7936
H28? H 0.4776 1.2458 0.8617
C16? C 0.7079(5) 1.2147(4) 0.8601(4)
H29? H 0.6956 1.1490 0.8649
H30? H 0.7210 1.2422 0.8986
H31? H 0.7659 1.2238 0.8345
O17? O 0.5964(4) 0.5629(4) 0.7751(2)
loop_
_geom_bond_atom_site_label_1
_geom_bond_atom_site_label_2
_geom_bond_site_symmetry_1
_geom_bond_site_symmetry_2
Y1 N1 1_555 1_555
N1 C1 1_555 1_555
C1 H1 1_555 1_555
N2 C1 1_555 1_555
C2 N2 1_555 1_555
C3 C2 1_555 1_555
H2 C3 1_555 1_555
C4 N1 1_555 1_555
C5 C4 1_555 1_555
O1 Y1 1_555 1_555
O2 C5 1_555 1_555
C6 C2 1_555 1_555
O3 C6 1_555 1_555
O4 C6 1_555 1_555
N3 Y1 1_555 1_555
C7 N3 1_555 1_555
H3 C7 1_555 1_555
C8 N3 1_555 1_555
C9 C8 1_555 1_555
H4 C9 1_555 1_555
C10 C8 1_555 1_555
O5 Y1 1_555 1_555
O6 C10 1_555 1_555
O7 Y1 1_555 1_555
O8 Y1 1_555 1_555
O9 Y1 1_555 1_555
H5 O7 1_555 1_555
H6 O7 1_555 1_555
H7 O8 1_555 1_555
H8 O8 1_555 1_555
H9 O9 1_555 1_555
H10 O9 1_555 1_555
O10 H11 1_555 1_555
O11 H12 1_555 1_555
H13 O11 1_555 1_555
O12 H14 1_555 1_555
H15 O12 1_555 1_555
O13 H16 1_555 1_555
H17 O13 1_555 1_555
O15 C11 1_555 1_555
N4 C11 1_555 1_555
C11 H18 1_555 1_555
C12 N4 1_555 1_555
H19 C12 1_555 1_555
H20 C12 1_555 1_555
H21 C12 1_555 1_555
C13 N4 1_555 1_555
H22 C13 1_555 1_555
H23 C13 1_555 1_555
H24 C13 1_555 1_555
N3E C7 1_555 1_555
C8E C9 1_555 1_555
C10E C8E 1_555 1_555
O5E C10E 1_555 1_555
O6E C10E 1_555 1_555
Y1E N3E 1_555 1_555
N1E Y1E 1_555 1_555
C1E N1E 1_555 1_555
H1E C1E 1_555 1_555
N2E C1E 1_555 1_555
C2E N2E 1_555 1_555
C3E C2E 1_555 1_555
H2E C3E 1_555 1_555
C4E N1E 1_555 1_555
C5E C4E 1_555 1_555
O1E Y1E 1_555 1_555
O2E C5E 1_555 1_555
C6E C2E 1_555 1_555
O3E C6E 1_555 1_555
O4E C6E 1_555 1_555
O7E Y1E 1_555 1_555
O8E Y1E 1_555 1_555
O9E Y1E 1_555 1_555
H5E O7E 1_555 1_555
H6E O7E 1_555 1_555
H7E O8E 1_555 1_555
H8E O8E 1_555 1_555
H9E O9E 1_555 1_555
H10E O9E 1_555 1_555
Y1B N2 1_555 1_555
Y1G N2E 1_555 1_555
N2B Y1 1_555 1_555
N2G Y1E 1_555 1_555
O3B Y1 1_555 1_555
O3G Y1E 1_555 1_555
H11E O10 1_555 1_555
C3 C4 1_555 1_555
C5 O1 1_555 1_555
O3 Y1B 1_555 1_555
C10 O5 1_555 1_555
N3E C8E 1_555 1_555
O5E Y1E 1_555 1_555
C3E C4E 1_555 1_555
C5E O1E 1_555 1_555
O3E Y1G 1_555 1_555

#END
