
#######################################################################
#
#                 Cambridge Crystallographic Data Centre
#                                CCDC 
#
#######################################################################
#
# If this CIF has been generated from an entry in the Cambridge 
# Structural Database, then it will include bibliographic, chemical, 
# crystal, experimental, refinement or atomic coordinate data resulting 
# from the CCDC's data processing and validation procedures.
#
#######################################################################

data_XUCSAR01
_symmetry_cell_setting           monoclinic
_symmetry_space_group_name_H-M   'P 21/n'
_symmetry_Int_Tables_number      14
_space_group_name_Hall           '-P 2yn'
loop_
_symmetry_equiv_pos_site_id
_symmetry_equiv_pos_as_xyz
1 x,y,z
2 1/2-x,1/2+y,1/2-z
3 -x,-y,-z
4 1/2+x,1/2-y,1/2+z
_cell_length_a                   9.6084(5)
_cell_length_b                   15.8032(10)
_cell_length_c                   23.7927(8)
_cell_angle_alpha                90
_cell_angle_beta                 96.840(6)
_cell_angle_gamma                90
_cell_volume                     3587.05
loop_
_atom_site_label
_atom_site_type_symbol
_atom_site_fract_x
_atom_site_fract_y
_atom_site_fract_z
Y1 Y 0.86919(8) 0.67458(5) 0.02199(3)
O1 O 0.7117(5) 0.5711(3) -0.0183(2)
O2 O 0.1121(5) 0.6932(3) 0.0449(2)
O3 O 0.9506(6) 0.5428(3) 0.0619(2)
O4 O 0.1868(5) 0.7542(3) 0.1270(2)
O5 O 0.8404(6) 0.8190(3) 0.0471(3)
O6 O 1.0183(5) 0.4116(3) 0.0435(2)
O7 O 0.9045(6) 0.6864(3) 0.1236(2)
N1 N 0.6297(7) 0.6719(4) 0.0614(3)
N2 N 0.4539(7) 0.7320(4) 0.1117(3)
C1 C 0.5301(8) 0.6323(4) 0.0261(3)
C2 C 0.2054(8) 0.7156(5) 0.0829(3)
C3 C 0.3882(8) 0.6412(5) 0.0320(3)
C4 C 0.3552(8) 0.6939(5) 0.0747(3)
O8 O 0.4910(5) 0.5572(3) -0.0591(2)
C5 C 0.5810(8) 0.5821(5) -0.0206(3)
C6 C 0.5868(8) 0.7191(5) 0.1032(3)
C7 C 0.9897(8) 0.4869(5) 0.0306(3)
H1 H 0.321(9) 0.606(6) 0.013(4)
H2 H 0.646(7) 0.753(4) 0.127(3)
Y2 Y 1.36614(8) 0.83480(5) -0.14242(4)
O9 O 1.2067(5) 0.9363(4) -0.1836(2)
O10 O 0.6071(6) 0.8161(4) -0.1177(2)
O11 O 1.4430(6) 0.9696(4) -0.1056(2)
O12 O 1.5640(6) 1.0404(3) -0.2301(2)
O13 O 0.6874(5) 0.7370(3) -0.0436(2)
O14 O 1.3453(6) 0.6912(4) -0.1160(3)
O15 O 1.4748(6) 0.9151(3) -0.2095(2)
O16 O 1.5268(6) 1.0965(4) -0.1260(2)
O17 O 1.3972(7) 0.8312(5) -0.0404(3)
N3 N 1.1251(7) 0.8312(4) -0.1066(3)
N4 N 0.9523(7) 0.7668(4) -0.0586(3)
C8 C 1.0254(8) 0.8719(5) -0.1407(3)
C9 C 0.7027(8) 0.7857(5) -0.0835(4)
C10 C 0.8846(9) 0.8625(5) -0.1335(3)
C11 C 0.8533(8) 0.8078(5) -0.0932(3)
O18 O 0.9851(6) 0.9499(3) -0.2253(2)
C12 C 1.0741(8) 0.9243(5) -0.1880(3)
C13 C 1.0834(8) 0.7807(5) -0.0674(3)
C14 C 1.4942(8) 1.0223(5) -0.1376(3)
C15 C 1.5135(8) 0.9901(5) -0.1978(4)
H3 H 0.816(6) 0.886(3) -0.155(2)
H4 H 1.156(9) 0.758(5) -0.048(4)
Y3 Y 0.36551(8) 0.82187(5) 0.19299(3)
O19 O 0.2072(6) 0.9229(3) 0.1505(2)
O20 O -0.3936(5) 0.8078(3) 0.2170(2)
O21 O -0.3123(6) 0.7295(4) 0.2923(2)
O22 O 0.3354(6) 0.6784(3) 0.2189(2)
O23 O 0.3942(6) 0.8190(3) 0.2945(2)
N5 N 0.1231(7) 0.8218(4) 0.2281(3)
N6 N -0.0501(7) 0.7586(4) 0.2774(3)
C16 C 0.0253(8) 0.8640(5) 0.1955(3)
C17 C -0.2978(8) 0.7775(5) 0.2521(3)
C18 C -0.1167(8) 0.8553(5) 0.2021(3)
C19 C -0.1489(8) 0.8008(5) 0.2434(3)
O24 O -0.0127(6) 0.9408(4) 0.1095(2)
C20 C 0.0758(8) 0.9139(5) 0.1489(3)
C21 C 0.0802(8) 0.7715(5) 0.2681(4)
H5 H -0.201(7) 0.884(4) 0.177(3)
H6 H 0.150(7) 0.741(4) 0.291(3)
O3B O 1.0494(6) 0.4572(3) -0.0619(2)
O6B O 0.9817(5) 0.5884(3) -0.0435(2)
C7B C 1.0103(8) 0.5131(5) -0.0306(3)
Y1B Y 1.13081(8) 0.32542(5) -0.02199(3)
O1B O 1.2883(5) 0.4289(3) 0.0183(2)
O2B O 1.8879(5) 0.3068(3) -0.0449(2)
O4B O 1.8132(5) 0.2458(3) -0.1270(2)
O5B O 1.1596(6) 0.1810(3) -0.0471(3)
O7B O 1.0955(6) 0.3136(3) -0.1236(2)
N1B N 1.3703(7) 0.3281(4) -0.0614(3)
N2B N 1.5461(7) 0.2680(4) -0.1117(3)
C1B C 1.4699(8) 0.3677(4) -0.0261(3)
C2B C 1.7946(8) 0.2844(5) -0.0829(3)
C3B C 1.6118(8) 0.3588(5) -0.0320(3)
C4B C 1.6448(8) 0.3061(5) -0.0747(3)
O8B O 1.5090(5) 0.4428(3) 0.0591(2)
C5B C 1.4190(8) 0.4179(5) 0.0206(3)
C6B C 1.4132(8) 0.2809(5) -0.1032(3)
H1B H 1.679(9) 0.394(6) -0.013(4)
H2B H 1.354(7) 0.247(4) -0.127(3)
Y2B Y 0.63386(8) 0.16520(5) 0.14242(4)
O9B O 0.7933(5) 0.0637(4) 0.1836(2)
O10B O 1.3929(6) 0.1839(4) 0.1177(2)
O11B O 0.5570(6) 0.0304(4) 0.1056(2)
O12B O 0.4360(6) -0.0404(3) 0.2301(2)
O13B O 1.3126(5) 0.2630(3) 0.0436(2)
O14B O 0.6547(6) 0.3088(4) 0.1160(3)
O15B O 0.5252(6) 0.0849(3) 0.2095(2)
O16B O 0.4732(6) -0.0965(4) 0.1260(2)
O17B O 0.6028(7) 0.1688(5) 0.0404(3)
N3B N 0.8749(7) 0.1688(4) 0.1066(3)
N4B N 1.0477(7) 0.2332(4) 0.0586(3)
C8B C 0.9746(8) 0.1281(5) 0.1407(3)
C9B C 1.2973(8) 0.2143(5) 0.0835(4)
C10B C 1.1154(9) 0.1375(5) 0.1335(3)
C11B C 1.1467(8) 0.1922(5) 0.0932(3)
O18B O 1.0149(6) 0.0501(3) 0.2253(2)
C12B C 0.9259(8) 0.0757(5) 0.1880(3)
C13B C 0.9166(8) 0.2193(5) 0.0674(3)
C14B C 0.5058(8) -0.0223(5) 0.1376(3)
C15B C 0.4865(8) 0.0099(5) 0.1978(4)
H3B H 1.184(6) 0.114(3) 0.155(2)
H4B H 0.844(9) 0.242(5) 0.048(4)
Y3B Y 1.63449(8) 0.17813(5) -0.19299(3)
O19B O 1.7928(6) 0.0771(3) -0.1505(2)
O20B O 2.3936(5) 0.1922(3) -0.2170(2)
O21B O 2.3123(6) 0.2705(4) -0.2923(2)
O22B O 1.6646(6) 0.3216(3) -0.2189(2)
O23B O 1.6058(6) 0.1810(3) -0.2945(2)
N5B N 1.8769(7) 0.1782(4) -0.2281(3)
N6B N 2.0501(7) 0.2414(4) -0.2774(3)
C16B C 1.9747(8) 0.1360(5) -0.1955(3)
C17B C 2.2978(8) 0.2225(5) -0.2521(3)
C18B C 2.1167(8) 0.1447(5) -0.2021(3)
C19B C 2.1489(8) 0.1992(5) -0.2434(3)
O24B O 2.0127(6) 0.0592(4) -0.1095(2)
C20B C 1.9242(8) 0.0861(5) -0.1489(3)
C21B C 1.9198(8) 0.2285(5) -0.2681(4)
H5B H 2.201(7) 0.116(4) -0.177(3)
H6B H 1.850(7) 0.259(4) -0.291(3)
Y1_2 Y -0.13081(8) 0.67458(5) 0.02199(3)
Y1B_2 Y 2.13081(8) 0.32542(5) -0.02199(3)
O2_2 O 1.1121(5) 0.6932(3) 0.0449(2)
O2B_2 O 0.8879(5) 0.3068(3) -0.0449(2)
Y2_2 Y 0.36614(8) 0.83480(5) -0.14242(4)
Y2A Y 2.13386(8) 0.33480(5) -0.35758(4)
Y2B_2 Y 1.63386(8) 0.16520(5) 0.14242(4)
Y2C Y -0.13386(8) 0.66520(5) 0.35758(4)
O10_2 O 1.6071(6) 0.8161(4) -0.1177(2)
O10B_2 O 0.3929(6) 0.1839(4) 0.1177(2)
O12_2 O 1.5640(6) 0.0404(3) -0.2301(2)
O12B_2 O 0.4360(6) 0.9596(3) 0.2301(2)
O16_2 O 1.5268(6) 0.0965(4) -0.1260(2)
O16B_2 O 0.4732(6) 0.9035(4) 0.1260(2)
Y3_2 Y -0.63449(8) 0.82187(5) 0.19299(3)
Y3_3 Y 0.36551(8) -0.17813(5) 0.19299(3)
Y3B_2 Y 1.63449(8) 1.17813(5) -0.19299(3)
Y3B_3 Y 2.63449(8) 0.17813(5) -0.19299(3)
O20_2 O 0.6064(5) 0.8078(3) 0.2170(2)
O20B_2 O 1.3936(5) 0.1922(3) -0.2170(2)
O21A O 0.8123(6) 0.2295(4) 0.2077(2)
O21C O 1.1877(6) 0.7705(4) -0.2077(2)
N6A N 0.5501(7) 0.2586(4) 0.2226(3)
N6C N 1.4499(7) 0.7414(4) -0.2226(3)
O25 O 0.6294(7) 0.9268(5) 0.0133(3)
O26 O 0.6166(6) 0.9015(4) 0.3553(3)
O27 O 0.6414(6) 0.9451(4) 0.6744(3)
O28 O 0.8129(8) 0.5603(4) 0.1831(3)
O29 O 0.7459(14) 0.5713(6) 0.5279(4)
O30 O 0.7134(7) 0.5918(4) 0.8543(3)
O31 O 0.4577(8) 0.4615(5) 0.8386(3)
loop_
_geom_bond_atom_site_label_1
_geom_bond_atom_site_label_2
_geom_bond_site_symmetry_1
_geom_bond_site_symmetry_2
Y1 O1 1_555 1_555
O1 C5 1_555 1_555
O2 C2 1_555 1_555
O3 Y1 1_555 1_555
O4 C2 1_555 1_555
O5 Y1 1_555 1_555
O6 C7 1_555 1_555
O7 Y1 1_555 1_555
N1 Y1 1_555 1_555
N2 C4 1_555 1_555
C1 N1 1_555 1_555
C2 C4 1_555 1_555
C3 C1 1_555 1_555
C4 C3 1_555 1_555
O8 C5 1_555 1_555
C5 C1 1_555 1_555
C6 N1 1_555 1_555
C7 O3 1_555 1_555
H1 C3 1_555 1_555
H2 C6 1_555 1_555
Y2 O9 1_555 1_555
O9 C12 1_555 1_555
O10 C9 1_555 1_555
O11 Y2 1_555 1_555
O12 C15 1_555 1_555
O13 Y1 1_555 1_555
O14 Y2 1_555 1_555
O15 Y2 1_555 1_555
O16 C14 1_555 1_555
O17 Y2 1_555 1_555
N3 Y2 1_555 1_555
N4 Y1 1_555 1_555
C8 N3 1_555 1_555
C9 O13 1_555 1_555
C10 C8 1_555 1_555
C11 N4 1_555 1_555
O18 C12 1_555 1_555
C12 C8 1_555 1_555
C13 N3 1_555 1_555
C14 O11 1_555 1_555
C15 O15 1_555 1_555
H3 C10 1_555 1_555
H4 C13 1_555 1_555
Y3 O4 1_555 1_555
O19 Y3 1_555 1_555
O20 C17 1_555 1_555
O21 C17 1_555 1_555
O22 Y3 1_555 1_555
O23 Y3 1_555 1_555
N5 Y3 1_555 1_555
N6 C19 1_555 1_555
C16 N5 1_555 1_555
C17 C19 1_555 1_555
C18 C16 1_555 1_555
C19 C18 1_555 1_555
O24 C20 1_555 1_555
C20 O19 1_555 1_555
C21 N5 1_555 1_555
H5 C18 1_555 1_555
H6 C21 1_555 1_555
O3B C7B 1_555 1_555
O6B Y1 1_555 1_555
C7B C7 1_555 1_555
Y1B O6 1_555 1_555
O1B Y1B 1_555 1_555
O2B C2B 1_555 1_555
O4B C2B 1_555 1_555
O5B Y1B 1_555 1_555
O7B Y1B 1_555 1_555
N1B Y1B 1_555 1_555
N2B C4B 1_555 1_555
C1B N1B 1_555 1_555
C2B C4B 1_555 1_555
C3B C1B 1_555 1_555
C4B C3B 1_555 1_555
O8B C5B 1_555 1_555
C5B O1B 1_555 1_555
C6B N1B 1_555 1_555
H1B C3B 1_555 1_555
H2B C6B 1_555 1_555
Y2B O9B 1_555 1_555
O9B C12B 1_555 1_555
O10B C9B 1_555 1_555
O11B Y2B 1_555 1_555
O12B C15B 1_555 1_555
O13B Y1B 1_555 1_555
O14B Y2B 1_555 1_555
O15B Y2B 1_555 1_555
O16B C14B 1_555 1_555
O17B Y2B 1_555 1_555
N3B Y2B 1_555 1_555
N4B Y1B 1_555 1_555
C8B N3B 1_555 1_555
C9B O13B 1_555 1_555
C10B C8B 1_555 1_555
C11B N4B 1_555 1_555
O18B C12B 1_555 1_555
C12B C8B 1_555 1_555
C13B N3B 1_555 1_555
C14B O11B 1_555 1_555
C15B O15B 1_555 1_555
H3B C10B 1_555 1_555
H4B C13B 1_555 1_555
Y3B O4B 1_555 1_555
O19B Y3B 1_555 1_555
O20B C17B 1_555 1_555
O21B C17B 1_555 1_555
O22B Y3B 1_555 1_555
O23B Y3B 1_555 1_555
N5B Y3B 1_555 1_555
N6B C19B 1_555 1_555
C16B N5B 1_555 1_555
C17B C19B 1_555 1_555
C18B C16B 1_555 1_555
C19B C18B 1_555 1_555
O24B C20B 1_555 1_555
C20B O19B 1_555 1_555
C21B N5B 1_555 1_555
H5B C18B 1_555 1_555
H6B C21B 1_555 1_555
Y1_2 O2 1_555 1_555
Y1B_2 O2B 1_555 1_555
O2_2 Y1 1_555 1_555
O2B_2 Y1B 1_555 1_555
Y2_2 O10 1_555 1_555
Y2A O21B 1_555 1_555
Y2B_2 O10B 1_555 1_555
Y2C O21 1_555 1_555
O10_2 Y2 1_555 1_555
O10B_2 Y2B 1_555 1_555
O12_2 Y3B 1_555 1_555
O12B_2 Y3 1_555 1_555
O16_2 Y3B 1_555 1_555
O16B_2 Y3 1_555 1_555
Y3_2 O20 1_555 1_555
Y3_3 O12B 1_555 1_555
Y3B_2 O12 1_555 1_555
Y3B_3 O20B 1_555 1_555
O20_2 Y3 1_555 1_555
O20B_2 Y3B 1_555 1_555
O21A Y2B 1_555 1_555
O21C Y2 1_555 1_555
N6A Y2B 1_555 1_555
N6C Y2 1_555 1_555
N2 C6 1_555 1_555
N2 Y3 1_555 1_555
O16 Y3B_2 1_555 1_555
N4 C13 1_555 1_555
C9 C11 1_555 1_555
C10 C11 1_555 1_555
C14 C15 1_555 1_555
N6 C21 1_555 1_555
N6 Y2C 1_555 1_555
C16 C20 1_555 1_555
O3B Y1B 1_555 1_555
O6B C7B 1_555 1_555
N2B C6B 1_555 1_555
N2B Y3B 1_555 1_555
C1B C5B 1_555 1_555
O16B Y3_3 1_555 1_555
N4B C13B 1_555 1_555
C9B C11B 1_555 1_555
C10B C11B 1_555 1_555
C14B C15B 1_555 1_555
N6B C21B 1_555 1_555
N6B Y2A 1_555 1_555
C16B C20B 1_555 1_555

#END
