
#######################################################################
#
#                 Cambridge Crystallographic Data Centre
#                                CCDC 
#
#######################################################################
#
# If this CIF has been generated from an entry in the Cambridge 
# Structural Database, then it will include bibliographic, chemical, 
# crystal, experimental, refinement or atomic coordinate data resulting 
# from the CCDC's data processing and validation procedures.
#
#######################################################################

data_XUCSAR
_symmetry_cell_setting           monoclinic
_symmetry_space_group_name_H-M   'P 21/n'
_symmetry_Int_Tables_number      14
_space_group_name_Hall           '-P 2yn'
loop_
_symmetry_equiv_pos_site_id
_symmetry_equiv_pos_as_xyz
1 x,y,z
2 1/2-x,1/2+y,1/2-z
3 -x,-y,-z
4 1/2+x,1/2-y,1/2+z
_cell_length_a                   9.6084(5)
_cell_length_b                   15.803(1)
_cell_length_c                   7.9309(8)
_cell_angle_alpha                90
_cell_angle_beta                 96.840(6)
_cell_angle_gamma                90
_cell_volume                     1195.67
loop_
_atom_site_label
_atom_site_type_symbol
_atom_site_fract_x
_atom_site_fract_y
_atom_site_fract_z
Y1 Y 0.86694(4) 0.67263(3) 0.07257(6)
O1 O 0.7087(3) 0.5706(2) -0.0515(4)
O2 O 0.1086(3) 0.68972(19) 0.1442(4)
O3 O 0.9433(3) 0.5380(2) 0.1865(4)
O4 O 0.1872(3) 0.7625(2) 0.3757(4)
O5 O 0.8402(3) 0.8165(2) 0.1503(5)
O6 O 1.0235(3) 0.41004(20) 0.1269(4)
O7 O 0.8986(3) 0.6787(2) 0.3779(4)
N1 N 0.6259(4) 0.6730(2) 0.1829(5)
N2 N 0.4520(4) 0.7355(2) 0.3305(5)
C1 C 0.5268(4) 0.6323(3) 0.0808(6)
C2 C 0.2033(4) 0.7174(3) 0.2515(6)
C3 C 0.3854(4) 0.6412(3) 0.1005(5)
C4 C 0.3532(4) 0.6953(3) 0.2247(6)
O8 O 0.4880(3) 0.55551(20) -0.1749(4)
C5 C 0.5768(5) 0.5813(3) -0.0596(6)
C6 C 0.5836(4) 0.7223(3) 0.3037(6)
C7 C 0.9902(4) 0.4850(3) 0.0907(6)
H1 H 0.313933 0.610828 0.030175
H2 H 0.655102 0.750705 0.377575
O3B O 1.0567(3) 0.4620(2) -0.1865(4)
C7B C 1.0098(4) 0.5150(3) -0.0907(6)
O6B O 0.9765(3) 0.58996(20) -0.1269(4)
Y1B Y 1.13306(4) 0.32737(3) -0.07257(6)
O1B O 1.2913(3) 0.4294(2) 0.0515(4)
O2B O 1.8914(3) 0.31028(19) -0.1442(4)
O4B O 1.8128(3) 0.2375(2) -0.3757(4)
O5B O 1.1598(3) 0.1835(2) -0.1503(5)
O7B O 1.1014(3) 0.3213(2) -0.3779(4)
N1B N 1.3741(4) 0.3270(2) -0.1829(5)
N2B N 1.5480(4) 0.2645(2) -0.3305(5)
C1B C 1.4732(4) 0.3677(3) -0.0808(6)
C2B C 1.7967(4) 0.2826(3) -0.2515(6)
C3B C 1.6146(4) 0.3588(3) -0.1005(5)
C4B C 1.6468(4) 0.3047(3) -0.2247(6)
O8B O 1.5120(3) 0.44449(20) 0.1749(4)
C5B C 1.4232(5) 0.4187(3) 0.0596(6)
C6B C 1.4164(4) 0.2777(3) -0.3037(6)
H1B H 1.686067 0.389172 -0.030175
H2B H 1.344898 0.249295 -0.377575
Y1_2 Y -0.13306(4) 0.67263(3) 0.07257(6)
Y1A Y 1.63306(4) 0.17263(3) -0.57257(6)
Y1B_2 Y 2.13306(4) 0.32737(3) -0.07257(6)
Y1C Y 0.36694(4) 0.82737(3) 0.57257(6)
O2_2 O 1.1086(3) 0.68972(19) 0.1442(4)
O2B_2 O 0.8914(3) 0.31028(19) -0.1442(4)
O4A O 1.3128(3) 0.2625(2) 0.1243(4)
O4C O 0.6872(3) 0.7375(2) -0.1243(4)
N2A N 1.0480(4) 0.2355(2) 0.1695(5)
N2C N 0.9520(4) 0.7645(2) -0.1695(5)
O9 O 0.6291(4) 0.9248(3) 0.0430(5)
O10 O 0.7559(5) 0.5745(3) 0.5665(6)
O11 O 0.500 0.500 -0.5
loop_
_geom_bond_atom_site_label_1
_geom_bond_atom_site_label_2
_geom_bond_site_symmetry_1
_geom_bond_site_symmetry_2
Y1 O1 1_555 1_555
O1 C5 1_555 1_555
O2 C2 1_555 1_555
O3 Y1 1_555 1_555
O4 C2 1_555 1_555
O5 Y1 1_555 1_555
O6 C7 1_555 1_555
O7 Y1 1_555 1_555
N1 Y1 1_555 1_555
N2 C4 1_555 1_555
C1 N1 1_555 1_555
C2 C4 1_555 1_555
C3 C1 1_555 1_555
C4 C3 1_555 1_555
O8 C5 1_555 1_555
C5 C1 1_555 1_555
C6 N1 1_555 1_555
C7 O3 1_555 1_555
H1 C3 1_555 1_555
H2 C6 1_555 1_555
O3B C7B 1_555 1_555
C7B C7 1_555 1_555
O6B Y1 1_555 1_555
Y1B O6 1_555 1_555
O1B Y1B 1_555 1_555
O2B C2B 1_555 1_555
O4B C2B 1_555 1_555
O5B Y1B 1_555 1_555
O7B Y1B 1_555 1_555
N1B Y1B 1_555 1_555
N2B C4B 1_555 1_555
C1B N1B 1_555 1_555
C2B C4B 1_555 1_555
C3B C1B 1_555 1_555
C4B C3B 1_555 1_555
O8B C5B 1_555 1_555
C5B O1B 1_555 1_555
C6B N1B 1_555 1_555
H1B C3B 1_555 1_555
H2B C6B 1_555 1_555
Y1_2 O2 1_555 1_555
Y1A O4B 1_555 1_555
Y1B_2 O2B 1_555 1_555
Y1C O4 1_555 1_555
O2_2 Y1 1_555 1_555
O2B_2 Y1B 1_555 1_555
O4A Y1B 1_555 1_555
O4C Y1 1_555 1_555
N2A Y1B 1_555 1_555
N2C Y1 1_555 1_555
N2 C6 1_555 1_555
N2 Y1C 1_555 1_555
O3B Y1B 1_555 1_555
C7B O6B 1_555 1_555
N2B C6B 1_555 1_555
N2B Y1A 1_555 1_555
C1B C5B 1_555 1_555

#END
