
#######################################################################
#
#                 Cambridge Crystallographic Data Centre
#                                CCDC 
#
#######################################################################
#
# If this CIF has been generated from an entry in the Cambridge 
# Structural Database, then it will include bibliographic, chemical, 
# crystal, experimental, refinement or atomic coordinate data resulting 
# from the CCDC's data processing and validation procedures.
#
#######################################################################

data_XUCXEZ
_symmetry_cell_setting           monoclinic
_symmetry_space_group_name_H-M   'P 21/n'
_symmetry_Int_Tables_number      14
_space_group_name_Hall           '-P 2yn'
loop_
_symmetry_equiv_pos_site_id
_symmetry_equiv_pos_as_xyz
1 x,y,z
2 1/2-x,1/2+y,1/2-z
3 -x,-y,-z
4 1/2+x,1/2-y,1/2+z
_cell_length_a                   7.774(3)
_cell_length_b                   10.157(3)
_cell_length_c                   20.497(7)
_cell_angle_alpha                90
_cell_angle_beta                 91.535(7)
_cell_angle_gamma                90
_cell_volume                     1617.87
loop_
_atom_site_label
_atom_site_type_symbol
_atom_site_fract_x
_atom_site_fract_y
_atom_site_fract_z
Zn1 Zn -0.28064(6) 0.28915(4) 0.19203(2)
Zn2 Zn -0.62566(6) 0.65003(4) 0.26749(2)
O1 O -0.5561(3) 0.4868(2) 0.21836(13)
O2 O -0.4738(3) 0.3574(2) 0.13886(12)
O3 O -0.8391(3) 0.3086(2) 0.17743(13)
O4 O -1.1003(4) 0.3879(3) 0.15278(15)
O5 O -0.4412(3) 0.6248(2) 0.07509(12)
O6 O -0.2047(3) 0.8056(3) 0.21451(13)
O7 O -0.4790(4) 0.7565(3) 0.19800(13)
O8 O -0.3048(4) 1.1016(3) 0.17099(14)
O9 O -0.0256(4) 1.0689(3) 0.15396(13)
O10 O -0.8337(4) 0.7515(3) 0.20614(16)
H1 H -0.7921 0.8207 0.1894
H2 H -0.9146 0.7711 0.2291
O11 O -0.8315(4) 0.5382(3) 0.30594(16)
H3 H -0.8818 0.4959 0.2751
H4 H -0.9026 0.5894 0.3239
C1 C -0.6175(5) 0.6137(4) 0.07265(19)
C2 C -0.6852(5) 0.5176(3) 0.11292(18)
C3 C -0.8624(5) 0.4967(4) 0.11169(19)
C4 C -0.9697(5) 0.5747(4) 0.0721(2)
H5 H -1.0882 0.5624 0.0718
C5 C -0.8987(6) 0.6703(4) 0.0335(2)
H6 H -0.9700 0.7228 0.0072
C6 C -0.7230(5) 0.6889(4) 0.0334(2)
H7 H -0.6762 0.7527 0.0065
C7 C -0.3698(5) 0.7464(3) 0.05850(19)
C8 C -0.3163(5) 0.8275(3) 0.10882(18)
C9 C -0.2315(5) 0.9444(4) 0.09254(18)
C10 C -0.2040(5) 0.9746(4) 0.02793(19)
H8 H -0.1472 1.0519 0.0174
C11 C -0.2604(5) 0.8906(4) -0.0211(2)
H9 H -0.2428 0.9122 -0.0645
C12 C -0.3423(5) 0.7756(4) -0.00597(19)
H10 H -0.3788 0.7180 -0.0388
C13 C -0.5653(5) 0.4489(3) 0.16013(19)
C14 C -0.9412(5) 0.3885(4) 0.15096(19)
C15 C -0.3385(5) 0.7930(3) 0.17900(19)
C16 C -0.1808(5) 1.0436(4) 0.14402(19)
Zn1_2 Zn -1.28064(6) 0.28915(4) 0.19203(2)
Zn1A Zn -0.21936(6) 0.78915(4) 0.30797(2)
Zn1_3 Zn -0.28064(6) 1.28915(4) 0.19203(2)
Zn2A Zn -0.87434(6) 0.15003(4) 0.23251(2)
Zn2A_2 Zn 0.12566(6) 1.15003(4) 0.23251(2)
O3A O -0.6609(3) 0.8086(2) 0.32257(13)
O4_2 O -0.1003(4) 0.3879(3) 0.15278(15)
O6A O -0.2953(3) 0.3056(3) 0.28549(13)
O8_2 O -0.3048(4) 0.1016(3) 0.17099(14)
O9A O -0.4744(4) 0.5689(3) 0.34604(13)
loop_
_geom_bond_atom_site_label_1
_geom_bond_atom_site_label_2
_geom_bond_site_symmetry_1
_geom_bond_site_symmetry_2
Zn1 O2 1_555 1_555
Zn2 O1 1_555 1_555
O1 C13 1_555 1_555
O2 C13 1_555 1_555
O3 C14 1_555 1_555
O4 C14 1_555 1_555
O5 C1 1_555 1_555
O6 C15 1_555 1_555
O7 Zn2 1_555 1_555
O8 C16 1_555 1_555
O9 C16 1_555 1_555
O10 Zn2 1_555 1_555
H1 O10 1_555 1_555
H2 O10 1_555 1_555
O11 Zn2 1_555 1_555
H3 O11 1_555 1_555
H4 O11 1_555 1_555
C1 C2 1_555 1_555
C2 C3 1_555 1_555
C3 C4 1_555 1_555
C4 H5 1_555 1_555
C5 C4 1_555 1_555
H6 C5 1_555 1_555
C6 C1 1_555 1_555
H7 C6 1_555 1_555
C7 O5 1_555 1_555
C8 C7 1_555 1_555
C9 C8 1_555 1_555
C10 C9 1_555 1_555
H8 C10 1_555 1_555
C11 C10 1_555 1_555
H9 C11 1_555 1_555
C12 C7 1_555 1_555
H10 C12 1_555 1_555
C13 C2 1_555 1_555
C14 C3 1_555 1_555
C15 O7 1_555 1_555
C16 C9 1_555 1_555
Zn1_2 O4 1_555 1_555
Zn1A O6 1_555 1_555
Zn1_3 O8 1_555 1_555
Zn2A O3 1_555 1_555
Zn2A_2 O9 1_555 1_555
O3A Zn2 1_555 1_555
O4_2 Zn1 1_555 1_555
O6A Zn1 1_555 1_555
O8_2 Zn1 1_555 1_555
O9A Zn2 1_555 1_555
C5 C6 1_555 1_555
C8 C15 1_555 1_555
C11 C12 1_555 1_555

#END
