
#######################################################################
#
#                 Cambridge Crystallographic Data Centre
#                                CCDC 
#
#######################################################################
#
# If this CIF has been generated from an entry in the Cambridge 
# Structural Database, then it will include bibliographic, chemical, 
# crystal, experimental, refinement or atomic coordinate data resulting 
# from the CCDC's data processing and validation procedures.
#
#######################################################################

data_XUDJUD
_symmetry_cell_setting           monoclinic
_symmetry_space_group_name_H-M   'P 21/n'
_symmetry_Int_Tables_number      14
_space_group_name_Hall           '-P 2yn'
loop_
_symmetry_equiv_pos_site_id
_symmetry_equiv_pos_as_xyz
1 x,y,z
2 1/2-x,1/2+y,1/2-z
3 -x,-y,-z
4 1/2+x,1/2-y,1/2+z
_cell_length_a                   7.7598(15)
_cell_length_b                   20.649(4)
_cell_length_c                   19.235(4)
_cell_angle_alpha                90
_cell_angle_beta                 92.482(3)
_cell_angle_gamma                90
_cell_volume                     3079.17
loop_
_atom_site_label
_atom_site_type_symbol
_atom_site_fract_x
_atom_site_fract_y
_atom_site_fract_z
Ag1 Ag 0.87598(4) 0.060736(15) 0.228026(15)
Ag2 Ag 0.38254(4) 0.289459(15) 0.230693(16)
Cl1 Cl 0.45919(14) 0.42383(5) 0.12939(5)
O1 O 0.3260(5) 0.39008(16) 0.16604(19)
O2 O 0.4855(5) 0.48665(16) 0.15983(17)
O3 O 0.6134(5) 0.3869(2) 0.1363(3)
O4 O 0.4046(8) 0.4310(2) 0.05861(19)
O5 O 0.4572(5) 0.15576(16) -0.01659(14)
O6 O 1.2990(4) 0.16535(16) 0.48141(14)
O7 O 0.7167(5) -0.03346(16) 0.22133(17)
N1 N 0.7313(4) 0.13491(17) 0.30208(16)
N2 N 0.6987(5) 0.19603(17) 0.40646(17)
N3 N 0.5897(5) 0.23692(17) 0.29664(17)
N4 N 0.8328(5) 0.09721(18) 0.40883(17)
H1 H 0.8474 0.1008 0.4543
H2 H 0.8704 0.0626 0.3875
N5 N 0.5701(5) 0.29558(18) 0.39800(18)
H3 H 0.5870 0.3005 0.4432
H4 H 0.5190 0.3263 0.3731
N6 N 1.0366(4) 0.12921(17) 0.16369(16)
N7 N 1.0651(5) 0.18766(17) 0.05707(16)
N8 N 1.1686(5) 0.23290(17) 0.16568(16)
N9 N 0.9420(5) 0.08608(18) 0.05853(18)
H5 H 0.9258 0.0879 0.0130
H6 H 0.9092 0.0516 0.0814
N10 N 1.1846(5) 0.28925(18) 0.06286(17)
H7 H 1.1696 0.2927 0.0174
H8 H 1.2316 0.3213 0.0871
C1 C 0.7541(5) 0.1441(2) 0.37234(19)
C2 C 0.6216(6) 0.2418(2) 0.3674(2)
C3 C 0.6461(5) 0.18189(19) 0.26792(18)
C4 C 0.6055(5) 0.17314(19) 0.19274(19)
C5 C 0.5335(5) 0.1150(2) 0.16844(19)
H9 H 0.5204 0.0801 0.2000
C6 C 0.4804(6) 0.1071(2) 0.0988(2)
H10 H 0.4281 0.0678 0.0832
C7 C 0.5052(6) 0.1576(2) 0.05233(19)
C8 C 0.5833(6) 0.2157(2) 0.0755(2)
H11 H 0.6034 0.2496 0.0434
C9 C 0.6309(6) 0.2233(2) 0.1453(2)
H12 H 0.6811 0.2629 0.1610
C10 C 0.3758(7) 0.0974(2) -0.0418(2)
H13 H 0.3448 0.1021 -0.0915
H14 H 0.2714 0.0894 -0.0162
H15 H 0.4555 0.0610 -0.0350
C11 C 1.0163(5) 0.1358(2) 0.09295(19)
C12 C 1.1361(5) 0.2355(2) 0.09487(19)
C13 C 1.1156(6) 0.17865(19) 0.19593(19)
C14 C 1.1532(5) 0.17284(19) 0.27167(18)
C15 C 1.2180(6) 0.1148(2) 0.29956(19)
H16 H 1.2279 0.0779 0.2705
C16 C 1.2681(6) 0.1109(2) 0.36971(19)
H17 H 1.3144 0.0716 0.3883
C17 C 1.2504(6) 0.1643(2) 0.41257(19)
C18 C 1.1793(6) 0.2219(2) 0.3858(2)
H18 H 1.1623 0.2579 0.4156
C19 C 1.1340(6) 0.2260(2) 0.3157(2)
H19 H 1.0892 0.2654 0.2971
C20 C 1.3745(7) 0.1080(2) 0.5103(2)
H20 H 1.4029 0.1147 0.5599
H21 H 1.4799 0.0977 0.4862
H22 H 1.2927 0.0720 0.5046
C21 C 0.6216(6) -0.0578(2) 0.2635(2)
C22 C 0.5450(7) -0.0200(2) 0.3201(2)
H23 H 0.5861 0.0248 0.3185
H24 H 0.5793 -0.0393 0.3651
H25 H 0.4190 -0.0207 0.3139
C23 C 0.5737(7) -0.1283(2) 0.2580(3)
H26 H 0.6339 -0.1481 0.2196
H27 H 0.4488 -0.1323 0.2491
H28 H 0.6072 -0.1503 0.3016
Ag2_2 Ag 1.38254(4) 0.289459(15) 0.230693(16)
N8_2 N 0.1686(5) 0.23290(17) 0.16568(16)
Cl2 Cl 1.18202(15) -0.05658(5) 0.14317(5)
O8 O 1.0063(6) -0.0397(2) 0.1446(3)
O9 O 1.2861(6) -0.0153(2) 0.1872(2)
O10 O 1.2387(6) -0.0474(3) 0.0725(2)
O11 O 1.2052(6) -0.12290(18) 0.1643(2)
O12? O 1.148(3) -0.0151(12) 0.2046(12)
O13? O 1.028(3) -0.0524(12) 0.0983(13)
O14? O 1.339(3) -0.0419(12) 0.1161(13)
loop_
_geom_bond_atom_site_label_1
_geom_bond_atom_site_label_2
_geom_bond_site_symmetry_1
_geom_bond_site_symmetry_2
Ag1 O7 1_555 1_555
Ag2 O1 1_555 1_555
Cl1 O1 1_555 1_555
O2 Cl1 1_555 1_555
O3 Cl1 1_555 1_555
O4 Cl1 1_555 1_555
O5 C7 1_555 1_555
O6 C17 1_555 1_555
O7 C21 1_555 1_555
N1 Ag1 1_555 1_555
N2 C1 1_555 1_555
N3 Ag2 1_555 1_555
N4 H1 1_555 1_555
H2 N4 1_555 1_555
N5 H3 1_555 1_555
H4 N5 1_555 1_555
N6 Ag1 1_555 1_555
N7 C11 1_555 1_555
N8 C12 1_555 1_555
N9 H5 1_555 1_555
H6 N9 1_555 1_555
N10 H7 1_555 1_555
H8 N10 1_555 1_555
C1 N1 1_555 1_555
C2 N2 1_555 1_555
C3 N1 1_555 1_555
C4 C3 1_555 1_555
C5 C4 1_555 1_555
H9 C5 1_555 1_555
C6 C5 1_555 1_555
H10 C6 1_555 1_555
C7 C6 1_555 1_555
C8 C7 1_555 1_555
H11 C8 1_555 1_555
C9 C4 1_555 1_555
H12 C9 1_555 1_555
C10 O5 1_555 1_555
H13 C10 1_555 1_555
H14 C10 1_555 1_555
H15 C10 1_555 1_555
C11 N6 1_555 1_555
C12 N7 1_555 1_555
C13 N6 1_555 1_555
C14 C13 1_555 1_555
C15 C14 1_555 1_555
H16 C15 1_555 1_555
C16 C15 1_555 1_555
H17 C16 1_555 1_555
C17 C16 1_555 1_555
C18 C17 1_555 1_555
H18 C18 1_555 1_555
C19 C14 1_555 1_555
H19 C19 1_555 1_555
C20 O6 1_555 1_555
H20 C20 1_555 1_555
H21 C20 1_555 1_555
H22 C20 1_555 1_555
C21 C22 1_555 1_555
C22 H23 1_555 1_555
H24 C22 1_555 1_555
H25 C22 1_555 1_555
C23 C21 1_555 1_555
H26 C23 1_555 1_555
H27 C23 1_555 1_555
H28 C23 1_555 1_555
Cl2 O8 1_555 1_555
O9 Cl2 1_555 1_555
O10 Cl2 1_555 1_555
O11 Cl2 1_555 1_555
Ag2_2 N8 1_555 1_555
N8_2 Ag2 1_555 1_555
N3 C2 1_555 1_555
N3 C3 1_555 1_555
N4 C1 1_555 1_555
N5 C2 1_555 1_555
N8 C13 1_555 1_555
N9 C11 1_555 1_555
N10 C12 1_555 1_555
C8 C9 1_555 1_555
C18 C19 1_555 1_555

#END
