
#######################################################################
#
#                 Cambridge Crystallographic Data Centre
#                                CCDC 
#
#######################################################################
#
# If this CIF has been generated from an entry in the Cambridge 
# Structural Database, then it will include bibliographic, chemical, 
# crystal, experimental, refinement or atomic coordinate data resulting 
# from the CCDC's data processing and validation procedures.
#
#######################################################################

data_XUDJIR
_symmetry_cell_setting           monoclinic
_symmetry_space_group_name_H-M   'P 21/n'
_symmetry_Int_Tables_number      14
_space_group_name_Hall           '-P 2yn'
loop_
_symmetry_equiv_pos_site_id
_symmetry_equiv_pos_as_xyz
1 x,y,z
2 1/2-x,1/2+y,1/2-z
3 -x,-y,-z
4 1/2+x,1/2-y,1/2+z
_cell_length_a                   8.0182(5)
_cell_length_b                   20.4529(12)
_cell_length_c                   18.8674(11)
_cell_angle_alpha                90
_cell_angle_beta                 90.8780(10)
_cell_angle_gamma                90
_cell_volume                     3093.8
loop_
_atom_site_label
_atom_site_type_symbol
_atom_site_fract_x
_atom_site_fract_y
_atom_site_fract_z
Ag1 Ag 0.378859(19) 0.216914(8) 0.256519(8)
Ag2 Ag 0.86770(2) 0.442695(8) 0.254304(9)
N1 N 0.1728(2) 0.27334(9) 0.19841(9)
N2 N 0.0685(2) 0.31185(9) 0.08610(10)
N3 N 0.0404(2) 0.37694(9) 0.19050(9)
N4 N 0.1745(3) 0.20856(9) 0.09820(10)
H1 H 0.1544 0.2021 0.0528
H2 H 0.2195 0.1773 0.1241
N5 N -0.0468(3) 0.41504(9) 0.08150(10)
H3 H -0.0617 0.4105 0.0355
H4 H -0.0775 0.4514 0.1025
C1 C 0.1368(3) 0.26574(10) 0.12773(11)
C2 C 0.0224(3) 0.36701(10) 0.11929(11)
C3 C 0.1228(2) 0.33051(10) 0.22609(11)
C4 C 0.1692(3) 0.34541(10) 0.30074(11)
C5 C 0.1663(3) 0.29860(11) 0.35427(11)
H5 H 0.1244 0.2560 0.3445
C6 C 0.2248(3) 0.31419(12) 0.42216(11)
H6 H 0.2203 0.2822 0.4586
C7 C 0.2898(3) 0.37615(12) 0.43750(11)
C8 C 0.2879(3) 0.42301(11) 0.38398(12)
H7 H 0.3290 0.4657 0.3938
C9 C 0.2269(3) 0.40853(10) 0.31642(11)
H8 H 0.2244 0.4414 0.2809
C10 C 0.3625(3) 0.39255(15) 0.50966(12)
H9 H 0.3480 0.3553 0.5416
H10 H 0.3050 0.4308 0.5289
H11 H 0.4816 0.4023 0.5054
N6 N 0.5790(2) 0.27040(9) 0.32585(9)
N7 N 0.6943(2) 0.30886(9) 0.43601(9)
N8 N 0.7261(2) 0.37133(9) 0.32946(9)
N9 N 0.5507(2) 0.21196(9) 0.42896(10)
H12 H 0.5675 0.2065 0.4748
H13 H 0.4948 0.1824 0.4044
N10 N 0.8335(3) 0.40684(10) 0.43680(10)
H14 H 0.8509 0.4021 0.4827
H15 H 0.8714 0.4417 0.4149
C11 C 0.6095(3) 0.26468(10) 0.39695(11)
C12 C 0.7500(3) 0.36127(10) 0.40053(11)
C13 C 0.6402(2) 0.32457(10) 0.29578(10)
C14 C 0.6078(3) 0.33154(10) 0.21869(11)
C15 C 0.6374(3) 0.27807(10) 0.17389(12)
H16 H 0.6877 0.2395 0.1924
C16 C 0.5929(3) 0.28160(11) 0.10256(12)
H17 H 0.6130 0.2453 0.0725
C17 C 0.5188(3) 0.33801(12) 0.07467(12)
C18 C 0.4932(3) 0.39117(12) 0.11899(12)
H18 H 0.4446 0.4300 0.1002
C19 C 0.5380(3) 0.38838(10) 0.19057(11)
H19 H 0.5208 0.4253 0.2202
C20 C 0.4666(4) 0.34044(16) -0.00253(13)
H20 H 0.4191 0.2982 -0.0166
H21 H 0.5640 0.3499 -0.0315
H22 H 0.3827 0.3748 -0.0095
Cl1 Cl 0.47872(6) 0.08735(2) 0.14340(3)
O1 O 0.5502(2) 0.12767(8) 0.19858(9)
O2 O 0.5547(2) 0.02334(8) 0.14560(9)
O3 O 0.3010(2) 0.08109(9) 0.15354(11)
O4 O 0.5053(2) 0.11688(9) 0.07516(9)
Cl2 Cl 0.30782(7) 0.06687(2) 0.36807(3)
O5 O 0.2877(2) 0.13503(8) 0.34594(9)
O6 O 0.3573(3) 0.02714(10) 0.31061(11)
O7 O 0.1547(3) 0.04501(11) 0.39705(17)
O8 O 0.4381(3) 0.06601(10) 0.42251(11)
O9 O 0.7476(2) 0.52998(9) 0.19474(9)
C21 C 0.6602(3) 0.57222(11) 0.21983(13)
C22 C 0.5653(3) 0.56193(14) 0.28672(16)
H23 H 0.6008 0.5208 0.3090
H24 H 0.4456 0.5599 0.2756
H25 H 0.5873 0.5983 0.3194
C23 C 0.6404(4) 0.63739(13) 0.18402(17)
H26 H 0.7042 0.6377 0.1401
H27 H 0.6819 0.6719 0.2157
H28 H 0.5223 0.6450 0.1729
Ag2_2 Ag -0.13230(2) 0.442695(8) 0.254304(9)
Ag2A Ag 0.63230(2) -0.057305(8) 0.245696(9)
N3_2 N 1.0404(2) 0.37694(9) 0.19050(9)
O2A O 0.9453(2) 0.52334(8) 0.35440(9)
loop_
_geom_bond_atom_site_label_1
_geom_bond_atom_site_label_2
_geom_bond_site_symmetry_1
_geom_bond_site_symmetry_2
Ag1 N1 1_555 1_555
Ag2 N8 1_555 1_555
N1 C1 1_555 1_555
N2 C1 1_555 1_555
N3 C2 1_555 1_555
N4 H1 1_555 1_555
H2 N4 1_555 1_555
N5 H3 1_555 1_555
H4 N5 1_555 1_555
C1 N4 1_555 1_555
C2 N2 1_555 1_555
C3 N1 1_555 1_555
C4 C3 1_555 1_555
C5 C4 1_555 1_555
H5 C5 1_555 1_555
C6 C5 1_555 1_555
H6 C6 1_555 1_555
C7 C6 1_555 1_555
C8 C7 1_555 1_555
H7 C8 1_555 1_555
C9 C4 1_555 1_555
H8 C9 1_555 1_555
C10 C7 1_555 1_555
H9 C10 1_555 1_555
H10 C10 1_555 1_555
H11 C10 1_555 1_555
N6 Ag1 1_555 1_555
N7 C11 1_555 1_555
N8 C12 1_555 1_555
N9 H12 1_555 1_555
H13 N9 1_555 1_555
N10 H14 1_555 1_555
H15 N10 1_555 1_555
C11 N6 1_555 1_555
C12 N7 1_555 1_555
C13 N6 1_555 1_555
C14 C13 1_555 1_555
C15 C14 1_555 1_555
H16 C15 1_555 1_555
C16 C15 1_555 1_555
H17 C16 1_555 1_555
C17 C16 1_555 1_555
C18 C17 1_555 1_555
H18 C18 1_555 1_555
C19 C14 1_555 1_555
H19 C19 1_555 1_555
C20 C17 1_555 1_555
H20 C20 1_555 1_555
H21 C20 1_555 1_555
H22 C20 1_555 1_555
Cl1 O1 1_555 1_555
O1 Ag1 1_555 1_555
O2 Cl1 1_555 1_555
O3 Cl1 1_555 1_555
O4 Cl1 1_555 1_555
Cl2 O5 1_555 1_555
O5 Ag1 1_555 1_555
O6 Cl2 1_555 1_555
O7 Cl2 1_555 1_555
O8 Cl2 1_555 1_555
O9 Ag2 1_555 1_555
C21 O9 1_555 1_555
C22 C21 1_555 1_555
H23 C22 1_555 1_555
H24 C22 1_555 1_555
H25 C22 1_555 1_555
C23 C21 1_555 1_555
H26 C23 1_555 1_555
H27 C23 1_555 1_555
H28 C23 1_555 1_555
Ag2_2 N3 1_555 1_555
Ag2A O2 1_555 1_555
N3_2 Ag2 1_555 1_555
O2A Ag2 1_555 1_555
N3 C3 1_555 1_555
N5 C2 1_555 1_555
C8 C9 1_555 1_555
N8 C13 1_555 1_555
N9 C11 1_555 1_555
N10 C12 1_555 1_555
C18 C19 1_555 1_555

#END
