
#######################################################################
#
#                 Cambridge Crystallographic Data Centre
#                                CCDC 
#
#######################################################################
#
# If this CIF has been generated from an entry in the Cambridge 
# Structural Database, then it will include bibliographic, chemical, 
# crystal, experimental, refinement or atomic coordinate data resulting 
# from the CCDC's data processing and validation procedures.
#
#######################################################################

data_XUDNIV
_symmetry_cell_setting           monoclinic
_symmetry_space_group_name_H-M   'C c'
_symmetry_Int_Tables_number      9
_space_group_name_Hall           'C -2yc'
loop_
_symmetry_equiv_pos_site_id
_symmetry_equiv_pos_as_xyz
1 x,y,z
2 x,-y,1/2+z
3 1/2+x,1/2+y,z
4 1/2+x,1/2-y,1/2+z
_cell_length_a                   19.8102(15)
_cell_length_b                   24.4012(19)
_cell_length_c                   18.1151(14)
_cell_angle_alpha                90
_cell_angle_beta                 118.3790(10)
_cell_angle_gamma                90
_cell_volume                     7704.35
loop_
_atom_site_label
_atom_site_type_symbol
_atom_site_fract_x
_atom_site_fract_y
_atom_site_fract_z
C28 C 0.3519(7) 0.4440(5) 0.2931(7)
H22 H 0.3477 0.4768 0.3168
C29 C 0.3908(11) 0.3996(6) 0.3426(7)
H23 H 0.3920 0.3949 0.3942
C30 C 0.4279(7) 0.3620(5) 0.3171(7)
C31 C 0.3974(7) 0.3574(5) 0.2328(7)
H24 H 0.4089 0.3268 0.2101
C32 C 0.3500(7) 0.3971(5) 0.1808(6)
H25 H 0.3371 0.3966 0.1243
C33 C 0.4702(10) 0.3161(6) 0.3725(7)
H26 H 0.4826 0.3171 0.4288
C34 C 0.5923(5) 0.8511(4) 0.4356(5)
C35 C 0.6287(6) 0.8856(4) 0.4053(6)
H27 H 0.6266 0.8803 0.3535
C36 C 0.6696(6) 0.9298(4) 0.4590(5)
H28 H 0.6928 0.9551 0.4397
C37 C 0.6421(5) 0.9015(4) 0.5620(5)
H29 H 0.6489 0.9052 0.6162
C38 C 0.5984(6) 0.8606(4) 0.5158(6)
H30 H 0.5721 0.8386 0.5356
C39 C 0.3554(7) 0.5988(5) 0.1867(7)
H31 H 0.3615 0.5902 0.1402
C40 C 0.3922(6) 0.6441(4) 0.2358(6)
H32 H 0.4208 0.6668 0.2200
C41 C 0.3871(7) 0.6562(5) 0.3080(8)
C42 C 0.3483(7) 0.6205(5) 0.3293(6)
H33 H 0.3500 0.6239 0.3813
C43 C 0.3063(5) 0.5790(4) 0.2767(6)
H34 H 0.2738 0.5587 0.2900
C44 C 0.4325(7) 0.7001(5) 0.3614(5)
H35 H 0.4378 0.7031 0.4151
C45 C 0.5457(7) 0.8056(5) 0.3768(7)
H36 H 0.5478 0.7987 0.3275
C46 C 0.5583(7) 0.2010(4) 0.3785(7)
H37 H 0.5517 0.2028 0.3242
C47 C 0.6011(5) 0.1544(4) 0.4361(5)
C48 C 0.6352(6) 0.1142(4) 0.4076(7)
H38 H 0.6304 0.1160 0.3540
C49 C 0.6747(6) 0.0733(3) 0.4605(5)
H39 H 0.6977 0.0476 0.4417
C50 C 0.6520(6) 0.1056(5) 0.5657(6)
H40 H 0.6596 0.1029 0.6204
C51 C 0.6108(7) 0.1473(5) 0.5190(7)
H41 H 0.5883 0.1718 0.5401
C52 C 0.0319(11) 0.4875(9) 0.1494(12)
C53 C 0.4532(7) 0.4631(5) 0.0903(7)
F7 F 0.4353(5) 0.4121(3) 0.0772(5)
F8 F 0.5127(4) 0.4765(4) 0.0776(4)
F9 F 0.4786(5) 0.4738(3) 0.1748(4)
F10 F 0.0126(8) 0.5326(6) 0.1284(10)
F11 F -0.0021(7) 0.4617(6) 0.1912(8)
F12 F 0.0184(5) 0.4518(6) 0.0870(6)
N8 N 0.3209(6) 0.4380(3) 0.2107(5)
N9 N 0.4896(7) 0.2757(4) 0.3440(6)
N10 N 0.5309(7) 0.2385(4) 0.4072(6)
N11 N 0.6769(5) 0.9376(3) 0.5365(4)
N12 N 0.6835(5) 0.0665(3) 0.5384(5)
N13 N 0.3101(5) 0.5668(3) 0.2075(4)
N14 N 0.4648(5) 0.7342(4) 0.3378(5)
N15 N 0.5018(6) 0.7763(4) 0.3982(6)
O7 O 0.4031(6) 0.5635(3) 0.0422(6)
O8 O 0.3426(6) 0.4899(4) -0.0546(5)
O9 O 0.3234(4) 0.4999(2) 0.0639(5)
O10 O 0.1717(6) 0.4980(2) 0.1735(6)
O11 O 0.1500(9) 0.4237(4) 0.2476(8)
O12 O 0.1483(5) 0.5145(5) 0.2942(6)
S3 S 0.3729(2) 0.51115(14) 0.0276(2)
S4 S 0.13576(18) 0.48537(16) 0.22507(16)
Zn2 Zn 0.24779(6) 0.49975(3) 0.12246(5)
N11C N 0.1769(5) 0.5624(3) 0.0365(4)
N12C N 0.1835(5) 0.4335(3) 0.0384(5)
Zn2C Zn 0.74779(6) 0.00025(3) 0.62246(5)
Zn2C_2 Zn 0.74779(6) 1.00025(3) 0.62246(5)
C54 C 0.2545(7) 0.7504(5) 0.4492(7)
H42 H 0.2792 0.7860 0.4645
H43 H 0.2103 0.7508 0.4587
Cl1 Cl 0.3195(3) 0.69851(17) 0.5109(2)
Cl2 Cl 0.2252(3) 0.73639(18) 0.3421(3)
C55 C 0.7523(8) 0.8206(5) 0.3131(10)
H44 H 0.7414 0.8584 0.3204
H45 H 0.7741 0.8202 0.2752
Cl3 Cl 0.8206(3) 0.79293(14) 0.4127(3)
Cl4 Cl 0.6651(2) 0.78247(13) 0.2677(3)
C1 C 1.1460(6) 0.8980(4) 0.8150(6)
H1 H 1.1614 0.8969 0.8721
C2 C 1.0987(6) 0.8583(4) 0.7669(6)
H2 H 1.0806 0.8320 0.7903
C3 C 1.0766(9) 0.8570(5) 0.6804(6)
C4 C 1.0905(6) 0.9064(4) 0.6451(5)
H3 H 1.0623 0.9161 0.5889
C5 C 1.1514(8) 0.9381(5) 0.7053(5)
H4 H 1.1785 0.9599 0.6865
C6 C 1.0168(7) 0.8204(5) 0.6217(8)
H5 H 0.9879 0.8301 0.5656
C7 C 0.9401(7) 0.6958(5) 0.6147(6)
H6 H 0.9593 0.6922 0.6723
C8 C 0.8912(7) 0.6524(5) 0.5608(7)
C9 C 0.8585(7) 0.6150(4) 0.5857(5)
H7 H 0.8652 0.6171 0.6400
C10 C 0.8139(7) 0.5719(4) 0.5336(6)
H8 H 0.7894 0.5475 0.5524
C11 C 0.8416(7) 0.6052(4) 0.4304(7)
H9 H 0.8372 0.6018 0.3772
C12 C 0.8822(7) 0.6483(4) 0.4800(6)
H10 H 0.9035 0.6746 0.4599
C13 C 0.8570(7) 0.4032(5) 0.4366(7)
H11 H 0.8581 0.4104 0.3867
C14 C 0.8992(6) 0.3594(5) 0.4866(7)
H12 H 0.9244 0.3361 0.4671
C15 C 0.9045(7) 0.3498(4) 0.5634(7)
C16 C 0.8631(7) 0.3874(5) 0.5844(6)
H13 H 0.8661 0.3848 0.6371
C17 C 0.8199(6) 0.4264(4) 0.5332(7)
H14 H 0.7921 0.4484 0.5510
C18 C 0.9480(6) 0.3064(4) 0.6147(5)
H15 H 0.9454 0.2997 0.6638
C19 C 1.0660(6) 0.2051(4) 0.6345(7)
H16 H 1.0724 0.2130 0.5879
C20 C 1.1033(5) 0.1552(4) 0.6885(5)
C21 C 1.1015(6) 0.1443(5) 0.7632(6)
H17 H 1.0734 0.1660 0.7809
C22 C 1.1429(6) 0.1003(4) 0.8093(6)
H18 H 1.1435 0.0943 0.8603
C23 C 1.1855(7) 0.0768(4) 0.7167(6)
H19 H 1.2114 0.0524 0.6995
C24 C 1.1525(6) 0.1227(4) 0.6679(6)
H20 H 1.1617 0.1321 0.6237
C25 C 0.9898(7) 0.2764(5) 0.5981(6)
H21 H 0.9960 0.2810 0.5507
C26 C 0.9587(7) 0.5220(12) 0.3435(10)
C27 C 0.5362(7) 0.5335(6) 0.4003(8)
F1 F 0.9728(6) 0.5490(6) 0.4090(6)
F2 F 1.0034(7) 0.5274(8) 0.3143(8)
F3 F 0.9774(9) 0.4620(8) 0.3661(10)
F4 F 0.4802(5) 0.5265(3) 0.4168(5)
F5 F 0.5179(5) 0.5290(3) 0.3258(5)
F6 F 0.5597(4) 0.5877(3) 0.4235(5)
N1 N 1.1731(5) 0.9391(4) 0.7876(5)
N2 N 1.0041(5) 0.7731(4) 0.6493(5)
N3 N 0.9581(6) 0.7379(4) 0.5882(6)
N4 N 0.8070(5) 0.5665(3) 0.4572(5)
N5 N 1.0253(6) 0.2364(4) 0.6553(6)
N6 N 1.1823(5) 0.0654(3) 0.7883(5)
N7 N 0.8137(5) 0.4362(4) 0.4596(5)
O1 O 0.8437(8) 0.5759(4) 0.2481(6)
O2 O 0.8231(4) 0.5014(2) 0.3173(5)
O3 O 0.8427(7) 0.4874(4) 0.2041(6)
O4 O 0.6719(6) 0.50018(19) 0.4288(5)
O5 O 0.6518(5) 0.5111(4) 0.5518(5)
O6 O 0.5896(5) 0.4372(3) 0.4567(5)
S1 S 0.62445(17) 0.49369(11) 0.47037(16)
S2 S 0.8573(2) 0.52065(11) 0.2703(2)
Zn1 Zn 0.74470(6) 0.50032(3) 0.37273(5)
N1C N 0.6731(5) 0.5609(4) 0.2876(5)
N6C N 0.6823(5) 0.4346(3) 0.2883(5)
Zn1C Zn 1.24470(6) -0.00032(3) 0.87273(5)
Zn1C_2 Zn 1.24470(6) 0.99968(3) 0.87273(5)
loop_
_geom_bond_atom_site_label_1
_geom_bond_atom_site_label_2
_geom_bond_site_symmetry_1
_geom_bond_site_symmetry_2
C1 H1 1_555 1_555
C2 C1 1_555 1_555
H2 C2 1_555 1_555
C3 C2 1_555 1_555
C4 C3 1_555 1_555
H3 C4 1_555 1_555
C5 C4 1_555 1_555
H4 C5 1_555 1_555
C6 C3 1_555 1_555
H5 C6 1_555 1_555
C7 H6 1_555 1_555
C8 C7 1_555 1_555
C9 C8 1_555 1_555
H7 C9 1_555 1_555
C10 C9 1_555 1_555
H8 C10 1_555 1_555
C11 H9 1_555 1_555
C12 C8 1_555 1_555
H10 C12 1_555 1_555
C13 H11 1_555 1_555
C14 C13 1_555 1_555
H12 C14 1_555 1_555
C15 C14 1_555 1_555
C16 C15 1_555 1_555
H13 C16 1_555 1_555
C17 C16 1_555 1_555
H14 C17 1_555 1_555
C18 C15 1_555 1_555
H15 C18 1_555 1_555
C19 H16 1_555 1_555
C20 C19 1_555 1_555
C21 C20 1_555 1_555
H17 C21 1_555 1_555
C22 C21 1_555 1_555
H18 C22 1_555 1_555
C23 H19 1_555 1_555
C24 C20 1_555 1_555
H20 C24 1_555 1_555
C25 C18 1_555 1_555
H21 C25 1_555 1_555
C26 F1 1_555 1_555
C27 F4 1_555 1_555
F2 C26 1_555 1_555
F3 C26 1_555 1_555
F5 C27 1_555 1_555
F6 C27 1_555 1_555
N1 C1 1_555 1_555
N2 C6 1_555 1_555
N3 C7 1_555 1_555
N4 C10 1_555 1_555
N5 C19 1_555 1_555
N6 C22 1_555 1_555
N7 C13 1_555 1_555
O1 S2 1_555 1_555
O2 S2 1_555 1_555
O3 S2 1_555 1_555
O4 S1 1_555 1_555
O5 S1 1_555 1_555
O6 S1 1_555 1_555
S1 C27 1_555 1_555
S2 C26 1_555 1_555
Zn1 N4 1_555 1_555
C28 H22 1_555 1_555
C29 C28 1_555 1_555
H23 C29 1_555 1_555
C30 C29 1_555 1_555
C31 C30 1_555 1_555
H24 C31 1_555 1_555
C32 C31 1_555 1_555
H25 C32 1_555 1_555
C33 C30 1_555 1_555
H26 C33 1_555 1_555
C34 C35 1_555 1_555
C35 H27 1_555 1_555
C36 C35 1_555 1_555
H28 C36 1_555 1_555
C37 H29 1_555 1_555
C38 C34 1_555 1_555
H30 C38 1_555 1_555
C39 H31 1_555 1_555
C40 C39 1_555 1_555
H32 C40 1_555 1_555
C41 C40 1_555 1_555
C42 C41 1_555 1_555
H33 C42 1_555 1_555
C43 C42 1_555 1_555
H34 C43 1_555 1_555
C44 C41 1_555 1_555
H35 C44 1_555 1_555
C45 C34 1_555 1_555
H36 C45 1_555 1_555
C46 H37 1_555 1_555
C47 C46 1_555 1_555
C48 C47 1_555 1_555
H38 C48 1_555 1_555
C49 C48 1_555 1_555
H39 C49 1_555 1_555
C50 H40 1_555 1_555
C51 C47 1_555 1_555
H41 C51 1_555 1_555
C52 F10 1_555 1_555
C53 F7 1_555 1_555
F8 C53 1_555 1_555
F9 C53 1_555 1_555
F11 C52 1_555 1_555
F12 C52 1_555 1_555
N8 C28 1_555 1_555
N9 C33 1_555 1_555
N10 C46 1_555 1_555
N11 C36 1_555 1_555
N12 C49 1_555 1_555
N13 C39 1_555 1_555
N14 C44 1_555 1_555
N15 C45 1_555 1_555
O7 S3 1_555 1_555
O8 S3 1_555 1_555
O9 S3 1_555 1_555
O10 S4 1_555 1_555
O11 S4 1_555 1_555
O12 S4 1_555 1_555
S3 C53 1_555 1_555
S4 C52 1_555 1_555
Zn2 N8 1_555 1_555
C54 H42 1_555 1_555
H43 C54 1_555 1_555
Cl1 C54 1_555 1_555
Cl2 C54 1_555 1_555
C55 H44 1_555 1_555
H45 C55 1_555 1_555
Cl3 C55 1_555 1_555
Cl4 C55 1_555 1_555
N1C Zn1 1_555 1_555
N6C Zn1 1_555 1_555
Zn1C N6 1_555 1_555
Zn1C_2 N1 1_555 1_555
N11C Zn2 1_555 1_555
N12C Zn2 1_555 1_555
Zn2C N12 1_555 1_555
Zn2C_2 N11 1_555 1_555
C5 N1 1_555 1_555
C11 C12 1_555 1_555
C11 N4 1_555 1_555
C17 N7 1_555 1_555
C23 C24 1_555 1_555
C23 N6 1_555 1_555
C25 N5 1_555 1_555
N2 N3 1_555 1_555
N7 Zn1 1_555 1_555
O2 Zn1 1_555 1_555
O4 Zn1 1_555 1_555
C32 N8 1_555 1_555
C37 C38 1_555 1_555
C37 N11 1_555 1_555
C43 N13 1_555 1_555
C50 C51 1_555 1_555
C50 N12 1_555 1_555
N9 N10 1_555 1_555
N13 Zn2 1_555 1_555
N14 N15 1_555 1_555
O9 Zn2 1_555 1_555
O10 Zn2 1_555 1_555

#END
