
#######################################################################
#
#                 Cambridge Crystallographic Data Centre
#                                CCDC 
#
#######################################################################
#
# If this CIF has been generated from an entry in the Cambridge 
# Structural Database, then it will include bibliographic, chemical, 
# crystal, experimental, refinement or atomic coordinate data resulting 
# from the CCDC's data processing and validation procedures.
#
#######################################################################

data_XUDNOB
_symmetry_cell_setting           monoclinic
_symmetry_space_group_name_H-M   'C 2/c'
_symmetry_Int_Tables_number      15
_space_group_name_Hall           '-C 2yn'
loop_
_symmetry_equiv_pos_site_id
_symmetry_equiv_pos_as_xyz
1 x,y,z
2 -x,y,1/2-z
3 1/2+x,1/2+y,z
4 1/2-x,1/2+y,1/2-z
5 -x,-y,-z
6 x,-y,1/2+z
7 1/2-x,1/2-y,-z
8 1/2+x,1/2-y,1/2+z
_cell_length_a                   28.669(6)
_cell_length_b                   12.460(3)
_cell_length_c                   16.680(3)
_cell_angle_alpha                90
_cell_angle_beta                 110.61(3)
_cell_angle_gamma                90
_cell_volume                     5577.01
loop_
_atom_site_label
_atom_site_type_symbol
_atom_site_fract_x
_atom_site_fract_y
_atom_site_fract_z
Ni1 Ni 0.166284(12) 0.74673(2) 0.20607(2)
Na1 Na 0.24656(7) 0.48647(17) 0.30645(13)
O1 O 0.17205(7) 0.84003(15) 0.11325(12)
O2 O 0.19280(8) 0.98581(17) 0.02069(13)
O3 O 0.17277(7) 0.65041(15) 0.30426(12)
O4 O 0.18702(8) 0.48896(16) 0.40810(13)
O5 O 0.22316(7) 0.64507(16) 0.18805(13)
O6 O 0.22662(7) 0.84137(15) 0.29040(13)
N1 N 0.10992(9) 0.65903(18) 0.11817(15)
N2 N 0.11438(8) 0.84106(17) 0.23436(15)
C1 C 0.10177(10) 0.7737(2) -0.00508(18)
C2 C 0.07426(11) 0.7823(2) -0.09430(19)
H1 H 0.0470 0.7351 -0.1196
C3 C 0.08591(12) 0.8565(2) -0.14472(19)
H2 H 0.0673 0.8600 -0.2044
C4 C 0.12562(11) 0.9273(2) -0.10724(18)
H3 H 0.1336 0.9798 -0.1416
C5 C 0.15309(10) 0.9212(2) -0.02115(18)
C6 C 0.14322(10) 0.8432(2) 0.03385(17)
C7 C 0.08776(10) 0.6880(2) 0.03943(17)
H4 H 0.0590 0.6482 0.0074
C8 C 0.08876(11) 0.5676(2) 0.14486(18)
C9 C 0.11907(11) 0.4805(2) 0.18164(19)
H5 H 0.1534 0.4816 0.1884
C10 C 0.09906(12) 0.3920(2) 0.20847(19)
H6 H 0.1197 0.3327 0.2340
C11 C 0.04875(12) 0.3903(3) 0.1980(2)
H7 H 0.0351 0.3294 0.2160
C12 C 0.01859(12) 0.4769(3) 0.1615(2)
H8 H -0.0158 0.4754 0.1544
C13 C 0.03847(11) 0.5665(3) 0.1351(2)
H9 H 0.0179 0.6263 0.1106
C14 C 0.20292(13) 1.0731(2) -0.0256(2)
H10 H 0.2321 1.1126 0.0115
H11 H 0.1741 1.1213 -0.0446
H12 H 0.2095 1.0457 -0.0756
C15 C 0.10865(10) 0.7256(2) 0.34978(18)
C16 C 0.08322(11) 0.7190(2) 0.4089(2)
H13 H 0.0596 0.7728 0.4082
C17 C 0.09186(11) 0.6369(3) 0.4668(2)
H14 H 0.0747 0.6342 0.5062
C18 C 0.12655(11) 0.5562(2) 0.46745(18)
H15 H 0.1322 0.4978 0.5063
C19 C 0.15227(10) 0.5623(2) 0.41172(17)
C20 C 0.14533(10) 0.6486(2) 0.35170(17)
C21 C 0.09560(10) 0.8153(2) 0.29171(18)
H16 H 0.0701 0.8611 0.2960
C22 C 0.09250(11) 0.9342(2) 0.18439(18)
C23 C 0.12311(11) 1.0157(2) 0.17399(19)
H17 H 0.1583 1.0091 0.1989
C24 C 0.10208(12) 1.1066(2) 0.1271(2)
H18 H 0.1230 1.1619 0.1198
C25 C 0.05081(13) 1.1174(2) 0.0908(2)
H19 H 0.0366 1.1802 0.0593
C26 C 0.02041(12) 1.0360(3) 0.1007(2)
H20 H -0.0148 1.0434 0.0761
C27 C 0.04075(11) 0.9440(3) 0.1459(2)
H21 H 0.0196 0.8877 0.1509
C28 C 0.19319(14) 0.3948(3) 0.4599(2)
H22 H 0.1716 0.3995 0.4941
H23 H 0.2280 0.3891 0.4981
H24 H 0.1842 0.3313 0.4229
C29 C 0.26471(11) 0.6869(2) 0.1692(2)
H25 H 0.2532 0.7437 0.1260
H26 H 0.2800 0.6292 0.1471
H27 H 0.2893 0.7165 0.2215
C30 C 0.26553(11) 0.7970(3) 0.36226(19)
H28 H 0.2889 0.8539 0.3916
H29 H 0.2832 0.7416 0.3425
H30 H 0.2511 0.7651 0.4020
Na1C Na 0.25344(7) 0.98647(17) 0.19355(13)
O1C O 0.32795(7) 0.34003(15) 0.38675(12)
O2C O 0.30720(8) 0.48581(17) 0.47931(13)
O6C O 0.27338(7) 0.34137(15) 0.20960(13)
loop_
_geom_bond_atom_site_label_1
_geom_bond_atom_site_label_2
_geom_bond_site_symmetry_1
_geom_bond_site_symmetry_2
Ni1 O1 1_555 1_555
Na1 O3 1_555 1_555
O1 C6 1_555 1_555
O2 C5 1_555 1_555
O3 Ni1 1_555 1_555
O4 Na1 1_555 1_555
O5 Ni1 1_555 1_555
O6 Ni1 1_555 1_555
N1 Ni1 1_555 1_555
N2 Ni1 1_555 1_555
C1 C2 1_555 1_555
C2 H1 1_555 1_555
C3 C2 1_555 1_555
H2 C3 1_555 1_555
C4 C3 1_555 1_555
H3 C4 1_555 1_555
C5 C4 1_555 1_555
C6 C1 1_555 1_555
C7 N1 1_555 1_555
H4 C7 1_555 1_555
C8 N1 1_555 1_555
C9 C8 1_555 1_555
H5 C9 1_555 1_555
C10 C9 1_555 1_555
H6 C10 1_555 1_555
C11 C10 1_555 1_555
H7 C11 1_555 1_555
C12 C11 1_555 1_555
H8 C12 1_555 1_555
C13 C8 1_555 1_555
H9 C13 1_555 1_555
C14 O2 1_555 1_555
H10 C14 1_555 1_555
H11 C14 1_555 1_555
H12 C14 1_555 1_555
C15 C16 1_555 1_555
C16 H13 1_555 1_555
C17 C16 1_555 1_555
H14 C17 1_555 1_555
C18 C17 1_555 1_555
H15 C18 1_555 1_555
C19 O4 1_555 1_555
C20 O3 1_555 1_555
C21 N2 1_555 1_555
H16 C21 1_555 1_555
C22 N2 1_555 1_555
C23 C22 1_555 1_555
H17 C23 1_555 1_555
C24 C23 1_555 1_555
H18 C24 1_555 1_555
C25 C24 1_555 1_555
H19 C25 1_555 1_555
C26 C25 1_555 1_555
H20 C26 1_555 1_555
C27 C22 1_555 1_555
H21 C27 1_555 1_555
C28 O4 1_555 1_555
H22 C28 1_555 1_555
H23 C28 1_555 1_555
H24 C28 1_555 1_555
C29 O5 1_555 1_555
H25 C29 1_555 1_555
H26 C29 1_555 1_555
H27 C29 1_555 1_555
C30 O6 1_555 1_555
H28 C30 1_555 1_555
H29 C30 1_555 1_555
H30 C30 1_555 1_555
Na1C O1 1_555 1_555
O1C Na1 1_555 1_555
O2C Na1 1_555 1_555
O6C Na1 1_555 1_555
Na1 O5 1_555 1_555
O2 Na1C 1_555 1_555
O6 Na1C 1_555 1_555
C1 C7 1_555 1_555
C5 C6 1_555 1_555
C12 C13 1_555 1_555
C15 C20 1_555 1_555
C15 C21 1_555 1_555
C18 C19 1_555 1_555
C19 C20 1_555 1_555
C26 C27 1_555 1_555

#END
