
#######################################################################
#
#                 Cambridge Crystallographic Data Centre
#                                CCDC 
#
#######################################################################
#
# If this CIF has been generated from an entry in the Cambridge 
# Structural Database, then it will include bibliographic, chemical, 
# crystal, experimental, refinement or atomic coordinate data resulting 
# from the CCDC's data processing and validation procedures.
#
#######################################################################

data_XUDSUK
_symmetry_cell_setting           monoclinic
_symmetry_space_group_name_H-M   'C 2/c'
_symmetry_Int_Tables_number      15
_space_group_name_Hall           '-C 2yn'
loop_
_symmetry_equiv_pos_site_id
_symmetry_equiv_pos_as_xyz
1 x,y,z
2 x,-y,1/2+z
3 1/2+x,1/2+y,z
4 1/2+x,1/2-y,1/2+z
5 -x,-y,-z
6 -x,y,1/2-z
7 1/2-x,1/2-y,-z
8 1/2-x,1/2+y,1/2-z
_cell_length_a                   18.7213(13)
_cell_length_b                   6.5960(4)
_cell_length_c                   7.4035(6)
_cell_angle_alpha                90
_cell_angle_beta                 99.287(3)
_cell_angle_gamma                90
_cell_volume                     902.243
loop_
_atom_site_label
_atom_site_type_symbol
_atom_site_fract_x
_atom_site_fract_y
_atom_site_fract_z
C1 C 0.06975(17) 0.0001(7) 0.1016(9)
C2 C 0.0371(3) 0.1829(4) 0.0381(8)
C3 C 0.0326(3) -0.1827(3) 0.0635(10)
H1 H 0.0627(4) 0.3090(6) 0.0644(14)
H2 H 0.0551(5) -0.3087(6) 0.1073(17)
C4 C 0.1463(3) -0.0009(9) 0.2055(15)
O1 O 0.1817(2) 0.1615(10) 0.2019(7)
O2 O 0.1709(3) -0.1721(9) 0.2589(8)
Mn1 Mn 0.25000 0.25000 0.00000
O3 O 0.1949(3) 0.5448(6) -0.0204(15)
H3 H 0.18709 0.54683 0.10907
H4 H 0.24861 0.5982 -0.0057
C3D C -0.0326(3) 0.1827(3) -0.0635(10)
C1D C -0.06975(17) -0.0001(7) -0.1016(9)
C2D C -0.0371(3) -0.1829(4) -0.0381(8)
H1D H -0.0627(4) -0.3090(6) -0.0644(14)
C4D C -0.1463(3) 0.0009(9) -0.2055(15)
O1D O -0.1817(2) -0.1615(10) -0.2019(7)
O2D O -0.1709(3) 0.1721(9) -0.2589(8)
H2D H -0.0551(5) 0.3087(6) -0.1073(17)
O3F O 0.3051(3) -0.0448(6) 0.0204(15)
H3F H 0.31291 -0.04683 -0.10907
H4F H 0.25139 -0.0982 0.0057
Mn1A Mn 0.25000 -0.25000 0.50000
O1F O 0.3183(2) 0.3385(10) -0.2019(7)
O2A O 0.1709(3) 0.1721(9) -0.2411(8)
O2G O 0.3291(3) 0.3279(9) 0.2411(8)
Mn1B Mn -0.25000 -0.25000 0.00000
Mn1C Mn -0.25000 0.25000 -0.50000
loop_
_geom_bond_atom_site_label_1
_geom_bond_atom_site_label_2
_geom_bond_site_symmetry_1
_geom_bond_site_symmetry_2
C1 C2 1_555 1_555
C2 H1 1_555 1_555
C3 C1 1_555 1_555
H2 C3 1_555 1_555
C4 C1 1_555 1_555
O1 C4 1_555 1_555
O2 C4 1_555 1_555
Mn1 O1 1_555 1_555
O3 Mn1 1_555 1_555
H3 O3 1_555 1_555
H4 O3 1_555 1_555
C3D C2 1_555 1_555
C1D C3D 1_555 1_555
C2D C3 1_555 1_555
H1D C2D 1_555 1_555
C4D C1D 1_555 1_555
O1D C4D 1_555 1_555
O2D C4D 1_555 1_555
H2D C3D 1_555 1_555
O3F Mn1 1_555 1_555
H3F O3F 1_555 1_555
H4F O3F 1_555 1_555
Mn1A O2 1_555 1_555
O1F Mn1 1_555 1_555
O2A Mn1 1_555 1_555
O2G Mn1 1_555 1_555
Mn1B O1D 1_555 1_555
Mn1C O2D 1_555 1_555
C1D C2D 1_555 1_555

#END
