
#######################################################################
#
#                 Cambridge Crystallographic Data Centre
#                                CCDC 
#
#######################################################################
#
# If this CIF has been generated from an entry in the Cambridge 
# Structural Database, then it will include bibliographic, chemical, 
# crystal, experimental, refinement or atomic coordinate data resulting 
# from the CCDC's data processing and validation procedures.
#
#######################################################################

data_XUDXOL
_symmetry_cell_setting           monoclinic
_symmetry_space_group_name_H-M   'C 2/c'
_symmetry_Int_Tables_number      15
_space_group_name_Hall           '-C 2yn'
loop_
_symmetry_equiv_pos_site_id
_symmetry_equiv_pos_as_xyz
1 x,y,z
2 -x,y,1/2-z
3 1/2+x,1/2+y,z
4 1/2-x,1/2+y,1/2-z
5 -x,-y,-z
6 x,-y,1/2+z
7 1/2-x,1/2-y,-z
8 1/2+x,1/2-y,1/2+z
_cell_length_a                   24.6340(8)
_cell_length_b                   8.9175(2)
_cell_length_c                   15.4495(4)
_cell_angle_alpha                90
_cell_angle_beta                 92.811(2)
_cell_angle_gamma                90
_cell_volume                     3389.77
loop_
_atom_site_label
_atom_site_type_symbol
_atom_site_fract_x
_atom_site_fract_y
_atom_site_fract_z
C1 C 0.11213(17) 0.7497(5) -0.0429(2)
C2 C 0.05918(17) 0.7332(5) -0.0188(3)
H1 H 0.0367 0.6602 -0.0444
C3 C 0.04030(17) 0.8276(5) 0.0440(3)
C4 C 0.07405(17) 0.9369(5) 0.0829(3)
H2 H 0.0616 0.9987 0.1263
C5 C 0.12615(17) 0.9509(4) 0.0554(2)
C6 C 0.14633(16) 0.8590(5) -0.0070(2)
H3 H 0.1817 0.8700 -0.0246
C7 C -0.01728(19) 0.8077(5) 0.0722(3)
C8 C 0.14777(17) 1.2122(5) 0.1006(2)
H4 H 0.1134 1.2525 0.0889
C9 C 0.21460(17) 1.0581(5) 0.1147(3)
H5 H 0.2351 0.9706 0.1143
C10 C 0.15745(18) 0.6760(5) -0.1804(3)
H6 H 0.1629 0.7712 -0.2030
C11 C 0.13461(17) 0.4962(5) -0.0961(3)
H7 H 0.1212 0.4429 -0.0500
Mo1 Mo 0.197224(14) 1.53914(4) 0.14214(2)
Mo2 Mo 0.318476(13) 1.30826(4) 0.17965(2)
N1 N 0.16076(14) 1.0663(4) 0.0932(2)
N2 N 0.19030(14) 1.2881(4) 0.1263(2)
N3 N 0.23365(14) 1.1898(4) 0.1360(2)
N4 N 0.13324(14) 0.6465(4) -0.1044(2)
N5 N 0.17174(15) 0.5508(4) -0.2167(2)
N6 N 0.15750(14) 0.4364(4) -0.1621(2)
O1 O -0.02847(14) 0.8968(5) 0.1369(2)
H8 H -0.0601 0.8842 0.1494
O2 O -0.04817(14) 0.7213(5) 0.0368(3)
O3 O 0.20377(12) 1.7085(3) 0.20518(17)
O4 O 0.12811(12) 1.5253(3) 0.11712(19)
O5 O 0.22342(12) 1.5792(4) 0.04443(17)
O6 O 0.27201(12) 1.4614(3) 0.19469(17)
O7 O 0.38086(12) 1.3684(4) 0.22291(19)
O8 O 0.32744(14) 1.3102(3) 0.07095(19)
Mo1E Mo 0.197224(14) 0.46086(4) -0.35786(2)
Mo2C Mo 0.181524(13) 1.80826(4) 0.32035(2)
Mo2F Mo 0.181524(13) 0.19174(4) -0.17965(2)
N5E N 0.17174(15) 1.4492(4) 0.2833(2)
N6F N 0.34250(14) 1.0636(4) 0.1621(2)
O3C O 0.29623(12) 1.2085(3) 0.29482(17)
C12 C 0.0417(5) 0.5997(15) 0.2162(7)
O9 O 0.0337(7) 0.4314(17) 0.2012(12)
O10 O 0.0457(5) 0.1841(15) 0.2484(8)
loop_
_geom_bond_atom_site_label_1
_geom_bond_atom_site_label_2
_geom_bond_site_symmetry_1
_geom_bond_site_symmetry_2
C1 C2 1_555 1_555
C2 H1 1_555 1_555
C3 C2 1_555 1_555
C4 C3 1_555 1_555
H2 C4 1_555 1_555
C5 C4 1_555 1_555
C6 C1 1_555 1_555
H3 C6 1_555 1_555
C7 C3 1_555 1_555
C8 H4 1_555 1_555
C9 H5 1_555 1_555
C10 H6 1_555 1_555
C11 H7 1_555 1_555
Mo1 N2 1_555 1_555
Mo2 N3 1_555 1_555
N1 C5 1_555 1_555
N2 C8 1_555 1_555
N3 C9 1_555 1_555
N4 C1 1_555 1_555
N5 C10 1_555 1_555
N6 C11 1_555 1_555
O1 C7 1_555 1_555
H8 O1 1_555 1_555
O2 C7 1_555 1_555
O3 Mo1 1_555 1_555
O4 Mo1 1_555 1_555
O5 Mo1 1_555 1_555
O6 Mo1 1_555 1_555
O7 Mo2 1_555 1_555
O8 Mo2 1_555 1_555
C12 O9 1_555 1_555
Mo1E N5 1_555 1_555
Mo2C O3 1_555 1_555
Mo2F N6 1_555 1_555
N5E Mo1 1_555 1_555
N6F Mo2 1_555 1_555
O3C Mo2 1_555 1_555
C5 C6 1_555 1_555
C8 N1 1_555 1_555
C9 N1 1_555 1_555
C10 N4 1_555 1_555
C11 N4 1_555 1_555
Mo2 O6 1_555 1_555
N2 N3 1_555 1_555
N5 N6 1_555 1_555

#END
