
#######################################################################
#
#                 Cambridge Crystallographic Data Centre
#                                CCDC 
#
#######################################################################
#
# If this CIF has been generated from an entry in the Cambridge 
# Structural Database, then it will include bibliographic, chemical, 
# crystal, experimental, refinement or atomic coordinate data resulting 
# from the CCDC's data processing and validation procedures.
#
#######################################################################

data_XUDXEB
_symmetry_cell_setting           triclinic
_symmetry_space_group_name_H-M   'P -1'
_symmetry_Int_Tables_number      2
_space_group_name_Hall           '-P 1'
loop_
_symmetry_equiv_pos_site_id
_symmetry_equiv_pos_as_xyz
1 x,y,z
2 -x,-y,-z
_cell_length_a                   9.224(3)
_cell_length_b                   9.999(3)
_cell_length_c                   13.312(4)
_cell_angle_alpha                105.996(4)
_cell_angle_beta                 102.804(2)
_cell_angle_gamma                103.4290(10)
_cell_volume                     1093.1
loop_
_atom_site_label
_atom_site_type_symbol
_atom_site_fract_x
_atom_site_fract_y
_atom_site_fract_z
Co1 Co 0.0000 0.0000 0.0000
Co2 Co -0.05574(3) 0.20253(3) 0.25106(2)
O1 O 0.06833(15) 0.22441(14) 0.03684(11)
O2 O 0.0897(2) 0.34248(17) 0.21055(13)
O3 O 0.7278(3) 0.3024(3) 0.16488(17)
O4 O 0.8338(2) 0.3178(2) 0.33221(15)
O5 O 0.77163(16) 0.98173(16) 0.25022(11)
O6 O 0.86311(14) 1.01385(13) 0.11758(10)
N1 N 0.18980(17) 0.00495(17) 0.12554(12)
N2 N 0.31814(17) -0.06451(17) 0.25299(12)
N3 N 0.68538(17) -0.19720(17) 0.49809(12)
N4 N 0.89516(18) -0.19512(18) 0.61737(13)
C1 C 0.10069(19) 0.33769(19) 0.11753(15)
C2 C 0.1654(2) 0.4840(2) 0.10390(18)
C3 C 0.3427(2) 0.53589(18) 0.13587(15)
C4 C 0.4345(2) 0.48797(19) 0.20719(16)
H1 H 0.3854 0.4224 0.2383
C5 C 0.5971(2) 0.5342(2) 0.23391(15)
C6 C 0.6669(2) 0.6324(2) 0.18937(16)
H2 H 0.7776 0.6638 0.2062
C7 C 0.5777(2) 0.68576(19) 0.12040(15)
C8 C 0.4154(2) 0.63551(18) 0.09299(15)
H3 H 0.3536 0.6694 0.0446
C9 C 0.6538(2) 0.7920(2) 0.07140(15)
C10 C 0.76906(18) 0.93502(19) 0.15331(14)
C11 C 0.6938(3) 0.4819(2) 0.31280(18)
C12 C 0.7533(2) 0.3581(2) 0.26244(19)
C13 C 0.1769(2) -0.0805(2) 0.18485(15)
H4 H 0.0806 -0.1453 0.1805
C14 C 0.4283(2) 0.0381(2) 0.23441(16)
H5 H 0.5383 0.0723 0.2690
C15 C 0.3476(2) 0.0801(2) 0.15675(16)
H6 H 0.3930 0.1508 0.1281
C16 C 0.3465(2) -0.1376(2) 0.33016(14)
C17 C 0.2247(2) -0.2082(3) 0.36058(18)
H7 H 0.1214 -0.2069 0.3318
C18 C 0.2557(3) -0.2811(3) 0.4338(2)
H8 H 0.1723 -0.3320 0.4537
C19 C 0.4066(2) -0.2805(3) 0.47811(19)
H9 H 0.4269 -0.3316 0.5274
C20 C 0.5278(2) -0.2045(2) 0.44982(14)
C21 C 0.4992(2) -0.1344(2) 0.37454(14)
H10 H 0.5823 -0.0851 0.3537
C22 C 0.7430(2) -0.2212(2) 0.59234(15)
H11 H 0.6811 -0.2528 0.6348
C23 C 0.9384(2) -0.1535(2) 0.53530(16)
H12 H 1.0422 -0.1287 0.5310
C24 C 0.8115(2) -0.1530(2) 0.46161(16)
H13 H 0.8094 -0.1275 0.3978
Co2A Co 0.05574(3) -0.20253(3) -0.25106(2)
O1A O -0.06833(15) -0.22441(14) -0.03684(11)
O2A O -0.0897(2) -0.34248(17) -0.21055(13)
O3A O -0.7278(3) -0.3024(3) -0.16488(17)
O4A O -0.8338(2) -0.3178(2) -0.33221(15)
O5A O -0.77163(16) -0.98173(16) -0.25022(11)
O6A O -0.86311(14) -1.01385(13) -0.11758(10)
N1A N -0.18980(17) -0.00495(17) -0.12554(12)
N2A N -0.31814(17) 0.06451(17) -0.25299(12)
N3A N -0.68538(17) 0.19720(17) -0.49809(12)
N4A N -0.89516(18) 0.19512(18) -0.61737(13)
C1A C -0.10069(19) -0.33769(19) -0.11753(15)
C2A C -0.1654(2) -0.4840(2) -0.10390(18)
C3A C -0.3427(2) -0.53589(18) -0.13587(15)
C4A C -0.4345(2) -0.48797(19) -0.20719(16)
H1A H -0.3854 -0.4224 -0.2383
C5A C -0.5971(2) -0.5342(2) -0.23391(15)
C6A C -0.6669(2) -0.6324(2) -0.18937(16)
H2A H -0.7776 -0.6638 -0.2062
C7A C -0.5777(2) -0.68576(19) -0.12040(15)
C8A C -0.4154(2) -0.63551(18) -0.09299(15)
H3A H -0.3536 -0.6694 -0.0446
C9A C -0.6538(2) -0.7920(2) -0.07140(15)
C10A C -0.76906(18) -0.93502(19) -0.15331(14)
C11A C -0.6938(3) -0.4819(2) -0.31280(18)
C12A C -0.7533(2) -0.3581(2) -0.26244(19)
C13A C -0.1769(2) 0.0805(2) -0.18485(15)
H4A H -0.0806 0.1453 -0.1805
C14A C -0.4283(2) -0.0381(2) -0.23441(16)
H5A H -0.5383 -0.0723 -0.2690
C15A C -0.3476(2) -0.0801(2) -0.15675(16)
H6A H -0.3930 -0.1508 -0.1281
C16A C -0.3465(2) 0.1376(2) -0.33016(14)
C17A C -0.2247(2) 0.2082(3) -0.36058(18)
H7A H -0.1214 0.2069 -0.3318
C18A C -0.2557(3) 0.2811(3) -0.4338(2)
H8A H -0.1723 0.3320 -0.4537
C19A C -0.4066(2) 0.2805(3) -0.47811(19)
H9A H -0.4269 0.3316 -0.5274
C20A C -0.5278(2) 0.2045(2) -0.44982(14)
C21A C -0.4992(2) 0.1344(2) -0.37454(14)
H10A H -0.5823 0.0851 -0.3537
C22A C -0.7430(2) 0.2212(2) -0.59234(15)
H11A H -0.6811 0.2528 -0.6348
C23A C -0.9384(2) 0.1535(2) -0.53530(16)
H12A H -1.0422 0.1287 -0.5310
C24A C -0.8115(2) 0.1530(2) -0.46161(16)
H13A H -0.8094 0.1275 -0.3978
Co1_2 Co -1.0000 -1.0000 0.0000
Co1_3 Co 1.0000 1.0000 0.0000
Co2_2 Co -1.05574(3) 0.20253(3) -0.74894(2)
Co2_3 Co 0.94426(3) 0.20253(3) 0.25106(2)
Co2_4 Co 0.94426(3) 1.20253(3) 0.25106(2)
Co2A_2 Co -0.94426(3) -1.20253(3) -0.25106(2)
Co2A_3 Co -0.94426(3) -0.20253(3) -0.25106(2)
Co2A_4 Co 1.05574(3) -0.20253(3) 0.74894(2)
O4_2 O -0.1662(2) 0.3178(2) 0.33221(15)
O4A_2 O 0.1662(2) -0.3178(2) -0.33221(15)
O5_2 O -0.22837(16) -0.01827(16) 0.25022(11)
O5A_2 O 0.22837(16) 0.01827(16) -0.25022(11)
O6_2 O -0.13689(14) 0.01385(13) 0.11758(10)
O6A_2 O 0.13689(14) -0.01385(13) -0.11758(10)
N4_2 N -0.10484(18) -0.19512(18) -0.38263(13)
N4A_2 N 0.10484(18) 0.19512(18) 0.38263(13)
loop_
_geom_bond_atom_site_label_1
_geom_bond_atom_site_label_2
_geom_bond_site_symmetry_1
_geom_bond_site_symmetry_2
Co1 O1 1_555 1_555
Co2 O2 1_555 1_555
O1 C1 1_555 1_555
O2 C1 1_555 1_555
O3 C12 1_555 1_555
O4 C12 1_555 1_555
O5 C10 1_555 1_555
O6 C10 1_555 1_555
N1 Co1 1_555 1_555
N2 C13 1_555 1_555
N3 C20 1_555 1_555
N4 C22 1_555 1_555
C1 C2 1_555 1_555
C2 C3 1_555 1_555
C3 C4 1_555 1_555
C4 H1 1_555 1_555
C5 C4 1_555 1_555
C6 C5 1_555 1_555
H2 C6 1_555 1_555
C7 C6 1_555 1_555
C8 C3 1_555 1_555
H3 C8 1_555 1_555
C9 C7 1_555 1_555
C10 C9 1_555 1_555
C11 C5 1_555 1_555
C12 C11 1_555 1_555
C13 N1 1_555 1_555
H4 C13 1_555 1_555
C14 N2 1_555 1_555
H5 C14 1_555 1_555
C15 N1 1_555 1_555
H6 C15 1_555 1_555
C16 N2 1_555 1_555
C17 C16 1_555 1_555
H7 C17 1_555 1_555
C18 C17 1_555 1_555
H8 C18 1_555 1_555
C19 C18 1_555 1_555
H9 C19 1_555 1_555
C20 C19 1_555 1_555
C21 C16 1_555 1_555
H10 C21 1_555 1_555
C22 N3 1_555 1_555
H11 C22 1_555 1_555
C23 N4 1_555 1_555
H12 C23 1_555 1_555
C24 N3 1_555 1_555
H13 C24 1_555 1_555
Co2A O2A 1_555 1_555
O1A Co1 1_555 1_555
O2A C1A 1_555 1_555
O3A C12A 1_555 1_555
O4A C12A 1_555 1_555
O5A C10A 1_555 1_555
O6A C10A 1_555 1_555
N1A Co1 1_555 1_555
N2A C13A 1_555 1_555
N3A C20A 1_555 1_555
N4A C22A 1_555 1_555
C1A O1A 1_555 1_555
C2A C1A 1_555 1_555
C3A C2A 1_555 1_555
C4A C3A 1_555 1_555
H1A C4A 1_555 1_555
C5A C4A 1_555 1_555
C6A C5A 1_555 1_555
H2A C6A 1_555 1_555
C7A C6A 1_555 1_555
C8A C3A 1_555 1_555
H3A C8A 1_555 1_555
C9A C7A 1_555 1_555
C10A C9A 1_555 1_555
C11A C5A 1_555 1_555
C12A C11A 1_555 1_555
C13A N1A 1_555 1_555
H4A C13A 1_555 1_555
C14A N2A 1_555 1_555
H5A C14A 1_555 1_555
C15A N1A 1_555 1_555
H6A C15A 1_555 1_555
C16A N2A 1_555 1_555
C17A C16A 1_555 1_555
H7A C17A 1_555 1_555
C18A C17A 1_555 1_555
H8A C18A 1_555 1_555
C19A C18A 1_555 1_555
H9A C19A 1_555 1_555
C20A C19A 1_555 1_555
C21A C16A 1_555 1_555
H10A C21A 1_555 1_555
C22A N3A 1_555 1_555
H11A C22A 1_555 1_555
C23A N4A 1_555 1_555
H12A C23A 1_555 1_555
C24A N3A 1_555 1_555
H13A C24A 1_555 1_555
Co1_2 O6A 1_555 1_555
Co1_3 O6 1_555 1_555
Co2_2 N4A 1_555 1_555
Co2_3 O4 1_555 1_555
Co2_4 O5 1_555 1_555
Co2A_2 O5A 1_555 1_555
Co2A_3 O4A 1_555 1_555
Co2A_4 N4 1_555 1_555
O4_2 Co2 1_555 1_555
O4A_2 Co2A 1_555 1_555
O5_2 Co2 1_555 1_555
O5A_2 Co2A 1_555 1_555
O6_2 Co1 1_555 1_555
O6A_2 Co1 1_555 1_555
N4_2 Co2A 1_555 1_555
N4A_2 Co2 1_555 1_555
Co2 O6_2 1_555 1_555
O6 Co2_4 1_555 1_555
C7 C8 1_555 1_555
C14 C15 1_555 1_555
C20 C21 1_555 1_555
C23 C24 1_555 1_555
Co2A O6A_2 1_555 1_555
O6A Co2A_2 1_555 1_555
C7A C8A 1_555 1_555
C14A C15A 1_555 1_555
C20A C21A 1_555 1_555
C23A C24A 1_555 1_555

#END
