
#######################################################################
#
#                 Cambridge Crystallographic Data Centre
#                                CCDC 
#
#######################################################################
#
# If this CIF has been generated from an entry in the Cambridge 
# Structural Database, then it will include bibliographic, chemical, 
# crystal, experimental, refinement or atomic coordinate data resulting 
# from the CCDC's data processing and validation procedures.
#
#######################################################################

data_XUDYAX
_symmetry_cell_setting           monoclinic
_symmetry_space_group_name_H-M   'P 21/c'
_symmetry_Int_Tables_number      14
_space_group_name_Hall           '-P 2ybc'
loop_
_symmetry_equiv_pos_site_id
_symmetry_equiv_pos_as_xyz
1 x,y,z
2 -x,1/2+y,1/2-z
3 -x,-y,-z
4 x,1/2-y,1/2+z
_cell_length_a                   12.2934(14)
_cell_length_b                   9.4532(10)
_cell_length_c                   7.2959(8)
_cell_angle_alpha                90
_cell_angle_beta                 99.465(2)
_cell_angle_gamma                90
_cell_volume                     836.328
loop_
_atom_site_label
_atom_site_type_symbol
_atom_site_fract_x
_atom_site_fract_y
_atom_site_fract_z
Mn1 Mn 1.0000 0.5000 0.0000
Mn2 Mn 1.38431(4) 0.49956(4) 0.61323(6)
O1 O 1.13521(19) 0.3851(2) 0.1712(3)
O2 O 1.28523(19) 0.4063(2) 0.3817(3)
O3 O 1.46435(17) 0.6144(2) 0.4016(3)
O4 O 1.46795(18) 0.8375(2) 0.3069(3)
N1 N 1.1382(2) 0.6584(3) 0.0734(3)
N2 N 1.1587(2) 0.7939(3) 0.0408(3)
N3 N 1.2609(2) 0.8251(3) 0.1244(3)
C1 C 1.2162(3) 0.4539(3) 0.2506(4)
C2 C 1.2271(2) 0.6020(3) 0.1827(4)
C3 C 1.3058(2) 0.7092(3) 0.2138(4)
C4 C 1.4203(2) 0.7217(3) 0.3140(4)
O5 O 1.3510(2) 0.3827(3) 0.8563(4)
H1 H 1.3275 0.2980 0.8546
H2 H 1.4025 0.3843 0.9496
N4 N 1.0570(3) 0.4260(3) -0.2636(4)
H3 H 1.0113 0.3595 -0.3176
H4 H 1.1247 0.3905 -0.2361
H5 H 1.0572 0.4988 -0.3409
Mn2B Mn 0.61569(4) 0.50044(4) -0.61323(6)
Mn2B_2 Mn 1.61569(4) 0.50044(4) 0.38677(6)
Mn2C Mn 1.38431(4) 1.00044(4) 0.11323(6)
Mn2_2 Mn 0.38431(4) 0.49956(4) -0.38677(6)
Mn2A Mn 0.61569(4) -0.00044(4) -0.11323(6)
O1B O 0.86479(19) 0.6149(2) -0.1712(3)
O2B O 0.71477(19) 0.5937(2) -0.3817(3)
O3B O 0.53565(17) 0.3856(2) -0.4016(3)
O3B_2 O 1.53565(17) 0.3856(2) 0.5984(3)
O3_2 O 0.46435(17) 0.6144(2) -0.5984(3)
O4B O 0.53205(18) 0.1625(2) -0.3069(3)
O4C O 1.46795(18) 0.6625(2) 0.8069(3)
O4A O 0.53205(18) 0.3375(2) -0.8069(3)
N1B N 0.8618(2) 0.3416(3) -0.0734(3)
N2B N 0.8413(2) 0.2061(3) -0.0408(3)
N3B N 0.7391(2) 0.1749(3) -0.1244(3)
N3C N 1.2609(2) 0.6749(3) 0.6244(3)
N3A N 0.7391(2) 0.3251(3) -0.6244(3)
C1B C 0.7838(3) 0.5461(3) -0.2506(4)
C2B C 0.7729(2) 0.3980(3) -0.1827(4)
C3B C 0.6942(2) 0.2908(3) -0.2138(4)
C4B C 0.5797(2) 0.2783(3) -0.3140(4)
O5B O 0.6490(2) 0.6173(3) -0.8563(4)
H1B H 0.6725 0.7020 -0.8546
H2B H 0.5975 0.6157 -0.9496
N4B N 0.9430(3) 0.5740(3) 0.2636(4)
H3B H 0.9887 0.6405 0.3176
H4B H 0.8753 0.6095 0.2361
H5B H 0.9428 0.5012 0.3409
loop_
_geom_bond_atom_site_label_1
_geom_bond_atom_site_label_2
_geom_bond_site_symmetry_1
_geom_bond_site_symmetry_2
Mn1 O1 1_555 1_555
Mn2 O2 1_555 1_555
O1 C1 1_555 1_555
O2 C1 1_555 1_555
O3 Mn2 1_555 1_555
O4 C4 1_555 1_555
N1 Mn1 1_555 1_555
N2 N1 1_555 1_555
N3 N2 1_555 1_555
C1 C2 1_555 1_555
C2 N1 1_555 1_555
C3 N3 1_555 1_555
C4 O3 1_555 1_555
O5 Mn2 1_555 1_555
H1 O5 1_555 1_555
H2 O5 1_555 1_555
N4 Mn1 1_555 1_555
H3 N4 1_555 1_555
H4 N4 1_555 1_555
H5 N4 1_555 1_555
Mn2B O2B 1_555 1_555
Mn2B_2 O3 1_555 1_555
Mn2C O4 1_555 1_555
Mn2_2 O3B 1_555 1_555
Mn2A O4B 1_555 1_555
O1B Mn1 1_555 1_555
O2B C1B 1_555 1_555
O3B Mn2B 1_555 1_555
O3B_2 Mn2 1_555 1_555
O3_2 Mn2B 1_555 1_555
O4B C4B 1_555 1_555
O4C Mn2 1_555 1_555
O4A Mn2B 1_555 1_555
N1B Mn1 1_555 1_555
N2B N1B 1_555 1_555
N3B Mn2A 1_555 1_555
N3C Mn2 1_555 1_555
N3A Mn2B 1_555 1_555
C1B O1B 1_555 1_555
C2B N1B 1_555 1_555
C3B N3B 1_555 1_555
C4B O3B 1_555 1_555
O5B Mn2B 1_555 1_555
H1B O5B 1_555 1_555
H2B O5B 1_555 1_555
N4B Mn1 1_555 1_555
H3B N4B 1_555 1_555
H4B N4B 1_555 1_555
H5B N4B 1_555 1_555
N3 Mn2C 1_555 1_555
C2 C3 1_555 1_555
C3 C4 1_555 1_555
Mn2B_2 O3B_2 1_555 1_555
Mn2_2 O3_2 1_555 1_555
N2B N3B 1_555 1_555
C1B C2B 1_555 1_555
C2B C3B 1_555 1_555
C3B C4B 1_555 1_555

#END
