
#######################################################################
#
#                 Cambridge Crystallographic Data Centre
#                                CCDC 
#
#######################################################################
#
# If this CIF has been generated from an entry in the Cambridge 
# Structural Database, then it will include bibliographic, chemical, 
# crystal, experimental, refinement or atomic coordinate data resulting 
# from the CCDC's data processing and validation procedures.
#
#######################################################################

data_XUFCUY
_symmetry_cell_setting           monoclinic
_symmetry_space_group_name_H-M   'P 21/n'
_symmetry_Int_Tables_number      14
_space_group_name_Hall           '-P 2yn'
loop_
_symmetry_equiv_pos_site_id
_symmetry_equiv_pos_as_xyz
1 x,y,z
2 1/2-x,1/2+y,1/2-z
3 -x,-y,-z
4 1/2+x,1/2-y,1/2+z
_cell_length_a                   12.3161(7)
_cell_length_b                   7.8934(4)
_cell_length_c                   16.9833(10)
_cell_angle_alpha                90
_cell_angle_beta                 104.060(3)
_cell_angle_gamma                90
_cell_volume                     1601.58
loop_
_atom_site_label
_atom_site_type_symbol
_atom_site_fract_x
_atom_site_fract_y
_atom_site_fract_z
Zn1 Zn 0.74248(2) 0.25452(4) -0.004572(18)
Cl1 Cl 0.64613(6) 0.01451(9) -0.02293(4)
Cl2 Cl 0.76958(7) 0.41358(11) -0.10467(5)
Si1 Si 0.98239(5) -0.18435(9) 0.24538(4)
C1 C 0.8968(2) 0.0548(3) 0.12199(16)
H1 H 0.8273 0.0180 0.1308
C2 C 0.9926(2) 0.2238(4) 0.05201(18)
H2 H 0.9926 0.3084 0.0122
C3 C 1.0927(2) 0.1576(4) 0.0940(2)
H3 H 1.1608 0.1945 0.0827
C4 C 1.0937(2) 0.0366(4) 0.15270(18)
H4 H 1.1627 -0.0097 0.1824
C5 C 0.9934(2) -0.0177(3) 0.16849(15)
C6 C 1.1089(2) -0.3196(3) 0.28047(17)
H5 H 1.1702 -0.2820 0.2561
H6 H 1.1357 -0.3163 0.3403
C7 C 1.0690(3) -0.4982(4) 0.2513(2)
H7 H 1.0831 -0.5190 0.1971
H8 H 1.1113 -0.5835 0.2894
C8 C 0.9446(3) -0.5156(4) 0.2464(2)
H9 H 0.9320 -0.5224 0.3018
H10 H 0.9152 -0.6203 0.2168
C9 C 0.8842(2) -0.3604(4) 0.20187(17)
H11 H 0.8100 -0.3442 0.2136
H12 H 0.8747 -0.3700 0.1425
C10 C 0.8725(2) -0.1626(3) 0.37501(15)
H13 H 0.8542 -0.2775 0.3612
C11 C 0.8614(2) 0.0671(3) 0.45537(16)
H14 H 0.8350 0.1173 0.4980
C12 C 0.9239(2) 0.1636(3) 0.41583(17)
H15 H 0.9411 0.2781 0.4311
C13 C 0.9615(2) 0.0909(3) 0.35317(17)
H16 H 1.0057 0.1558 0.3256
C14 C 0.93528(19) -0.0758(3) 0.33016(15)
N1 N 0.89473(17) 0.1737(3) 0.06511(13)
N2 N 0.83599(16) -0.0957(3) 0.43622(13)
Zn1A Zn 0.75752(2) -0.24548(4) 0.504572(18)
N2A N 0.66401(16) 0.4043(3) 0.06378(13)
loop_
_geom_bond_atom_site_label_1
_geom_bond_atom_site_label_2
_geom_bond_site_symmetry_1
_geom_bond_site_symmetry_2
Zn1 Cl1 1_555 1_555
Cl2 Zn1 1_555 1_555
Si1 C5 1_555 1_555
C1 H1 1_555 1_555
C2 H2 1_555 1_555
C3 C2 1_555 1_555
H3 C3 1_555 1_555
C4 C3 1_555 1_555
H4 C4 1_555 1_555
C5 C1 1_555 1_555
C6 Si1 1_555 1_555
H5 C6 1_555 1_555
H6 C6 1_555 1_555
C7 C6 1_555 1_555
H7 C7 1_555 1_555
H8 C7 1_555 1_555
C8 C7 1_555 1_555
H9 C8 1_555 1_555
H10 C8 1_555 1_555
C9 Si1 1_555 1_555
H11 C9 1_555 1_555
H12 C9 1_555 1_555
C10 H13 1_555 1_555
C11 H14 1_555 1_555
C12 C11 1_555 1_555
H15 C12 1_555 1_555
C13 C12 1_555 1_555
H16 C13 1_555 1_555
C14 Si1 1_555 1_555
N1 Zn1 1_555 1_555
N2 C10 1_555 1_555
Zn1A N2 1_555 1_555
N2A Zn1 1_555 1_555
C1 N1 1_555 1_555
C2 N1 1_555 1_555
C4 C5 1_555 1_555
C8 C9 1_555 1_555
C10 C14 1_555 1_555
C11 N2 1_555 1_555
C13 C14 1_555 1_555

#END
