
#######################################################################
#
#                 Cambridge Crystallographic Data Centre
#                                CCDC 
#
#######################################################################
#
# If this CIF has been generated from an entry in the Cambridge 
# Structural Database, then it will include bibliographic, chemical, 
# crystal, experimental, refinement or atomic coordinate data resulting 
# from the CCDC's data processing and validation procedures.
#
#######################################################################

data_XUFLOB
_symmetry_cell_setting           triclinic
_symmetry_space_group_name_H-M   'P -1'
_symmetry_Int_Tables_number      2
_space_group_name_Hall           '-P 1'
loop_
_symmetry_equiv_pos_site_id
_symmetry_equiv_pos_as_xyz
1 x,y,z
2 -x,-y,-z
_cell_length_a                   11.467(6)
_cell_length_b                   17.402(10)
_cell_length_c                   20.493(11)
_cell_angle_alpha                100.383(8)
_cell_angle_beta                 90.651(8)
_cell_angle_gamma                108.525(8)
_cell_volume                     3803.63
loop_
_atom_site_label
_atom_site_type_symbol
_atom_site_fract_x
_atom_site_fract_y
_atom_site_fract_z
Mn1 Mn 0.63381(12) 0.82364(7) 0.06057(6)
Mn2 Mn 0.5000 0.5000 0.0000
Mn3 Mn 0.57768(11) 0.47946(7) 0.24841(5)
Mn4 Mn 0.5000 0.5000 0.5000
Mn5 Mn 0.11494(11) 0.23874(7) 0.44779(6)
Mn6 Mn -0.19951(11) 0.05757(7) 0.25496(6)
N1 N 0.6304(7) 0.8788(4) -0.0352(3)
N2 N 0.5097(9) 0.7911(6) 0.1502(4)
H1 H 0.561(8) 0.816(6) 0.188(5)
N3 N 0.7923(8) 0.8044(6) 0.1292(4)
H2 H 0.840(9) 0.857(6) 0.147(5)
N4 N 0.8216(7) 0.8503(5) 0.0081(4)
N5 N 0.4429(7) 0.8355(5) 0.0352(4)
N6 N 0.5812(6) 0.6914(5) 0.0147(3)
N7 N 0.2428(8) 0.4970(6) 0.0488(4)
N8 N 0.6087(6) 0.5168(4) 0.1458(3)
N9 N 0.4064(7) 0.5184(5) 0.2503(3)
N10 N 0.6210(8) 0.6161(5) 0.3013(3)
N11 N 0.7937(8) 0.5381(6) 0.2819(4)
H3 H 0.833(9) 0.519(6) 0.248(5)
N12 N 0.4102(7) 0.3756(5) 0.1876(3)
N13 N 0.6367(7) 0.3609(5) 0.2126(4)
H4 H 0.718(8) 0.379(6) 0.205(4)
N14 N 0.3388(9) 0.6095(7) 0.4789(5)
N15 N 0.5240(6) 0.4471(4) 0.3471(3)
N16 N 0.2683(7) 0.3456(5) 0.4965(3)
N17 N 0.0537(6) 0.1756(4) 0.5373(3)
N18 N 0.2155(7) 0.1442(5) 0.4605(4)
N19 N -0.0195(6) 0.2912(5) 0.5079(3)
N20 N 0.0569(9) 0.3302(6) 0.3858(4)
H5 H 0.030(9) 0.295(6) 0.346(5)
N21 N 0.2545(9) 0.2359(6) 0.3607(5)
H6 H 0.291(9) 0.290(6) 0.359(5)
N22 N -0.0416(7) 0.1450(5) 0.3883(4)
N23 N -0.0883(9) 0.2205(6) 0.2011(5)
N24 N -0.4231(9) 0.1167(6) 0.2977(5)
N25 N 0.0124(8) -0.0142(6) 0.2157(4)
N26 N -0.3421(8) -0.1007(6) 0.3093(5)
N27 N 0.6907(7) 0.9522(5) 0.1159(4)
C1 C 0.7729(11) 0.7640(7) 0.1849(5)
H7 H 0.7356 0.7056 0.1695
H8 H 0.7194 0.7845 0.2136
H9 H 0.8506 0.7748 0.2089
C2 C 0.8723(10) 0.7731(7) 0.0852(5)
H10 H 0.8262 0.7185 0.0603
H11 H 0.9399 0.7683 0.1114
C3 C 0.9229(9) 0.8308(6) 0.0375(5)
H12 H 0.9839 0.8811 0.0611
H13 H 0.9624 0.8046 0.0028
C4 C 0.9599(9) 0.9094(6) -0.0744(5)
H14 H 1.0236 0.9478 -0.0428
H15 H 0.9494 0.9348 -0.1109
H16 H 0.9826 0.8612 -0.0905
C5 C 0.8404(9) 0.8848(6) -0.0410(5)
C6 C 0.7336(9) 0.9026(5) -0.0684(4)
C7 C 0.7311(10) 0.9387(6) -0.1228(4)
H17 H 0.8016 0.9554 -0.1456
C8 C 0.6245(11) 0.9498(6) -0.1432(5)
H18 H 0.6227 0.9731 -0.1804
C9 C 0.5209(9) 0.9272(6) -0.1096(4)
H19 H 0.4491 0.9357 -0.1230
C10 C 0.5253(9) 0.8912(5) -0.0549(4)
C11 C 0.4206(8) 0.8641(6) -0.0140(5)
C12 C 0.3016(9) 0.8764(7) -0.0342(5)
H20 H 0.2667 0.8398 -0.0756
H21 H 0.3179 0.9325 -0.0394
H22 H 0.2447 0.8646 -0.0005
C13 C 0.3495(9) 0.8081(7) 0.0826(5)
H23 H 0.3087 0.7489 0.0708
H24 H 0.2878 0.8354 0.0819
C14 C 0.4186(10) 0.8316(7) 0.1529(5)
H25 H 0.4575 0.8910 0.1651
H26 H 0.3611 0.8138 0.1858
C15 C 0.4614(10) 0.7082(7) 0.1546(5)
H27 H 0.4329 0.7039 0.1981
H28 H 0.5243 0.6827 0.1472
H29 H 0.3938 0.6808 0.1217
C16 C 0.5513(8) 0.6215(6) 0.0075(4)
C17 C 0.3363(9) 0.4978(5) 0.0315(4)
C18 C 0.5689(7) 0.5138(5) 0.0931(4)
C19 C 0.8361(9) 0.5154(7) 0.3418(6)
H30 H 0.9244 0.5380 0.3482
H31 H 0.8112 0.4563 0.3362
H32 H 0.8003 0.5372 0.3799
C20 C 0.8296(9) 0.6260(7) 0.2863(5)
H33 H 0.8273 0.6381 0.2420
H34 H 0.9135 0.6515 0.3061
C21 C 0.7440(9) 0.6619(6) 0.3282(5)
H35 H 0.7540 0.6571 0.3742
H36 H 0.7624 0.7199 0.3265
C22 C 0.5464(11) 0.7170(6) 0.3715(5)
H37 H 0.5762 0.7103 0.4133
H38 H 0.4668 0.7239 0.3757
H39 H 0.6028 0.7649 0.3587
C23 C 0.5357(11) 0.6415(6) 0.3192(4)
C24 C 0.4118(10) 0.5927(6) 0.2863(4)
C25 C 0.3078(11) 0.6164(7) 0.2878(5)
H40 H 0.3103 0.6673 0.3126
C26 C 0.2013(11) 0.5649(8) 0.2529(5)
H41 H 0.1315 0.5813 0.2541
C27 C 0.1950(10) 0.4889(7) 0.2159(5)
H42 H 0.1224 0.4541 0.1918
C28 C 0.3004(9) 0.4664(6) 0.2158(4)
C29 C 0.3103(9) 0.3865(6) 0.1797(4)
C30 C 0.1980(9) 0.3279(7) 0.1383(5)
H43 H 0.1929 0.3446 0.0965
H44 H 0.1258 0.3284 0.1613
H45 H 0.2035 0.2731 0.1306
C31 C 0.4316(9) 0.3015(6) 0.1552(5)
H46 H 0.3877 0.2822 0.1116
H47 H 0.4017 0.2586 0.1811
C32 C 0.5690(10) 0.3199(6) 0.1486(5)
H48 H 0.5861 0.2688 0.1330
H49 H 0.5956 0.3551 0.1162
C33 C 0.6240(12) 0.3043(7) 0.2595(6)
H50 H 0.5403 0.2866 0.2714
H51 H 0.6779 0.3323 0.2987
H52 H 0.6456 0.2570 0.2389
C34 C 0.3941(9) 0.5669(6) 0.4852(4)
C35 C 0.5112(7) 0.4665(5) 0.4029(4)
C36 C 0.3535(8) 0.4029(5) 0.4989(4)
C37 C 0.1409(11) 0.4005(8) 0.3642(7)
H53 H 0.0983 0.4178 0.3320
H54 H 0.2081 0.3856 0.3444
H55 H 0.1724 0.4449 0.4017
C38 C -0.0611(12) 0.3366(8) 0.4087(6)
H56 H -0.1265 0.2846 0.3935
H57 H -0.0811 0.3792 0.3909
C39 C -0.0497(9) 0.3579(6) 0.4840(5)
H58 H 0.0148 0.4102 0.4993
H59 H -0.1267 0.3622 0.5005
C40 C -0.1664(9) 0.2861(7) 0.5958(5)
H60 H -0.1468 0.3450 0.6049
H61 H -0.1703 0.2667 0.6370
H62 H -0.2447 0.2610 0.5706
C41 C -0.0685(8) 0.2633(6) 0.5566(4)
C42 C -0.0314(8) 0.1958(6) 0.5756(4)
C43 C -0.0752(8) 0.1544(6) 0.6265(4)
H63 H -0.1341 0.1681 0.6527
C44 C -0.0313(10) 0.0932(7) 0.6382(5)
H64 H -0.0612 0.0647 0.6721
C45 C 0.0561(9) 0.0737(6) 0.6003(5)
H65 H 0.0882 0.0336 0.6093
C46 C 0.0965(8) 0.1142(6) 0.5485(4)
C47 C 0.1893(9) 0.0993(6) 0.5028(5)
C48 C 0.2387(9) 0.0324(6) 0.5126(5)
H66 H 0.1715 -0.0176 0.5120
H67 H 0.2861 0.0481 0.5546
H68 H 0.2905 0.0235 0.4774
C49 C 0.3037(10) 0.1329(7) 0.4132(5)
H69 H 0.2642 0.0865 0.3774
H70 H 0.3704 0.1215 0.4348
C50 C 0.3541(10) 0.2119(7) 0.3855(6)
H71 H 0.4044 0.2560 0.4202
H72 H 0.4060 0.2032 0.3497
C51 C 0.2125(11) 0.1985(9) 0.2966(6)
H73 H 0.2812 0.1980 0.2704
H74 H 0.1664 0.2283 0.2788
H75 H 0.1603 0.1428 0.2955
C52 C -0.1059(8) 0.1130(6) 0.3411(5)
C53 C -0.1264(9) 0.1608(6) 0.2195(5)
C54 C -0.3425(9) 0.0955(6) 0.2809(5)
C55 C -0.0612(9) 0.0152(6) 0.2313(4)
C56 C -0.2860(8) -0.0428(6) 0.2909(4)
C57 C 0.7252(8) 0.9968(6) 0.1656(4)
Mn1A Mn 0.36619(12) 0.17636(7) -0.06057(6)
Mn3A Mn 0.42232(11) 0.52054(7) -0.24841(5)
N1A N 0.3696(7) 0.1212(4) 0.0352(3)
N2A N 0.4903(9) 0.2089(6) -0.1502(4)
H1A H 0.439(8) 0.184(6) -0.188(5)
N3A N 0.2077(8) 0.1956(6) -0.1292(4)
H2A H 0.160(9) 0.143(6) -0.147(5)
N4A N 0.1784(7) 0.1497(5) -0.0081(4)
N5A N 0.5571(7) 0.1645(5) -0.0352(4)
N6A N 0.4188(6) 0.3086(5) -0.0147(3)
N7A N 0.7572(8) 0.5030(6) -0.0488(4)
N8A N 0.3913(6) 0.4832(4) -0.1458(3)
N9A N 0.5936(7) 0.4816(5) -0.2503(3)
N10A N 0.3790(8) 0.3839(5) -0.3013(3)
N11A N 0.2063(8) 0.4619(6) -0.2819(4)
H3A H 0.167(9) 0.481(6) -0.248(5)
N12A N 0.5898(7) 0.6244(5) -0.1876(3)
N13A N 0.3633(7) 0.6391(5) -0.2126(4)
H4A H 0.282(8) 0.621(6) -0.205(4)
N15A N 0.4760(6) 0.5529(4) -0.3471(3)
N27A N 0.3093(7) 0.0478(5) -0.1159(4)
C1A C 0.2271(11) 0.2360(7) -0.1849(5)
H7A H 0.2644 0.2944 -0.1695
H8A H 0.2806 0.2155 -0.2136
H9A H 0.1494 0.2252 -0.2089
C2A C 0.1277(10) 0.2269(7) -0.0852(5)
H10A H 0.1738 0.2815 -0.0603
H11A H 0.0601 0.2317 -0.1114
C3A C 0.0771(9) 0.1692(6) -0.0375(5)
H12A H 0.0161 0.1189 -0.0611
H13A H 0.0376 0.1954 -0.0028
C4A C 0.0401(9) 0.0906(6) 0.0744(5)
H14A H -0.0236 0.0522 0.0428
H15A H 0.0506 0.0652 0.1109
H16A H 0.0174 0.1388 0.0905
C5A C 0.1596(9) 0.1152(6) 0.0410(5)
C6A C 0.2664(9) 0.0974(5) 0.0684(4)
C7A C 0.2689(10) 0.0613(6) 0.1228(4)
H17A H 0.1984 0.0446 0.1456
C8A C 0.3755(11) 0.0502(6) 0.1432(5)
H18A H 0.3773 0.0269 0.1804
C9A C 0.4791(9) 0.0728(6) 0.1096(4)
H19A H 0.5509 0.0643 0.1230
C10A C 0.4747(9) 0.1088(5) 0.0549(4)
C11A C 0.5794(8) 0.1359(6) 0.0140(5)
C12A C 0.6984(9) 0.1236(7) 0.0342(5)
H20A H 0.7333 0.1602 0.0756
H21A H 0.6821 0.0675 0.0394
H22A H 0.7553 0.1354 0.0005
C13A C 0.6505(9) 0.1919(7) -0.0826(5)
H23A H 0.6913 0.2511 -0.0708
H24A H 0.7122 0.1646 -0.0819
C14A C 0.5814(10) 0.1684(7) -0.1529(5)
H25A H 0.5425 0.1090 -0.1651
H26A H 0.6389 0.1862 -0.1858
C15A C 0.5386(10) 0.2918(7) -0.1546(5)
H27A H 0.5671 0.2961 -0.1981
H28A H 0.4757 0.3173 -0.1472
H29A H 0.6062 0.3192 -0.1217
C16A C 0.4487(8) 0.3785(6) -0.0075(4)
C17A C 0.6637(9) 0.5022(5) -0.0315(4)
C18A C 0.4311(7) 0.4862(5) -0.0931(4)
C19A C 0.1639(9) 0.4846(7) -0.3418(6)
H30A H 0.0756 0.4620 -0.3482
H31A H 0.1888 0.5437 -0.3362
H32A H 0.1997 0.4628 -0.3799
C20A C 0.1704(9) 0.3740(7) -0.2863(5)
H33A H 0.1727 0.3619 -0.2420
H34A H 0.0865 0.3485 -0.3061
C21A C 0.2560(9) 0.3381(6) -0.3282(5)
H35A H 0.2460 0.3429 -0.3742
H36A H 0.2376 0.2801 -0.3265
C22A C 0.4536(11) 0.2830(6) -0.3715(5)
H37A H 0.4238 0.2897 -0.4133
H38A H 0.5332 0.2761 -0.3757
H39A H 0.3972 0.2351 -0.3587
C23A C 0.4643(11) 0.3585(6) -0.3192(4)
C24A C 0.5882(10) 0.4073(6) -0.2863(4)
C25A C 0.6922(11) 0.3836(7) -0.2878(5)
H40A H 0.6897 0.3327 -0.3126
C26A C 0.7987(11) 0.4351(8) -0.2529(5)
H41A H 0.8685 0.4187 -0.2541
C27A C 0.8050(10) 0.5111(7) -0.2159(5)
H42A H 0.8776 0.5459 -0.1918
C28A C 0.6996(9) 0.5336(6) -0.2158(4)
C29A C 0.6897(9) 0.6135(6) -0.1797(4)
C30A C 0.8020(9) 0.6721(7) -0.1383(5)
H43A H 0.8071 0.6554 -0.0965
H44A H 0.8742 0.6716 -0.1613
H45A H 0.7965 0.7269 -0.1306
C31A C 0.5684(9) 0.6985(6) -0.1552(5)
H46A H 0.6123 0.7178 -0.1116
H47A H 0.5983 0.7414 -0.1811
C32A C 0.4310(10) 0.6801(6) -0.1486(5)
H48A H 0.4139 0.7312 -0.1330
H49A H 0.4044 0.6449 -0.1162
C33A C 0.3760(12) 0.6957(7) -0.2595(6)
H50A H 0.4597 0.7134 -0.2714
H51A H 0.3221 0.6677 -0.2987
H52A H 0.3544 0.7430 -0.2389
C35A C 0.4888(7) 0.5335(5) -0.4029(4)
C57A C 0.2748(8) 0.0032(6) -0.1656(4)
Mn5A Mn 0.88506(11) 0.76126(7) 0.55221(6)
Mn6A Mn 1.19951(11) 0.94243(7) 0.74504(6)
N16A N 0.7317(7) 0.6544(5) 0.5035(3)
N17A N 0.9463(6) 0.8244(4) 0.4627(3)
N18A N 0.7845(7) 0.8558(5) 0.5395(4)
N19A N 1.0195(6) 0.7088(5) 0.4921(3)
N20A N 0.9431(9) 0.6698(6) 0.6142(4)
H5A H 0.970(9) 0.705(6) 0.654(5)
N21A N 0.7455(9) 0.7641(6) 0.6393(5)
H6A H 0.709(9) 0.710(6) 0.641(5)
N22A N 1.0416(7) 0.8550(5) 0.6117(4)
N23A N 1.0883(9) 0.7795(6) 0.7989(5)
N24A N 1.4231(9) 0.8833(6) 0.7023(5)
N25A N 0.9876(8) 1.0142(6) 0.7843(4)
N26A N 1.3421(8) 1.1007(6) 0.6907(5)
C36A C 0.6465(8) 0.5971(5) 0.5011(4)
C37A C 0.8591(11) 0.5995(8) 0.6358(7)
H53A H 0.9017 0.5822 0.6680
H54A H 0.7919 0.6144 0.6556
H55A H 0.8276 0.5551 0.5983
C38A C 1.0611(12) 0.6634(8) 0.5913(6)
H56A H 1.1265 0.7154 0.6065
H57A H 1.0811 0.6208 0.6091
C39A C 1.0497(9) 0.6421(6) 0.5160(5)
H58A H 0.9852 0.5898 0.5007
H59A H 1.1267 0.6378 0.4995
C40A C 1.1664(9) 0.7139(7) 0.4042(5)
H60A H 1.1468 0.6550 0.3951
H61A H 1.1703 0.7333 0.3630
H62A H 1.2447 0.7390 0.4294
C41A C 1.0685(8) 0.7367(6) 0.4434(4)
C42A C 1.0314(8) 0.8042(6) 0.4244(4)
C43A C 1.0752(8) 0.8456(6) 0.3735(4)
H63A H 1.1341 0.8319 0.3473
C44A C 1.0313(10) 0.9068(7) 0.3618(5)
H64A H 1.0612 0.9353 0.3279
C45A C 0.9439(9) 0.9263(6) 0.3997(5)
H65A H 0.9118 0.9664 0.3907
C46A C 0.9035(8) 0.8858(6) 0.4515(4)
C47A C 0.8107(9) 0.9007(6) 0.4972(5)
C48A C 0.7613(9) 0.9676(6) 0.4874(5)
H66A H 0.8285 1.0176 0.4880
H67A H 0.7139 0.9519 0.4454
H68A H 0.7095 0.9765 0.5226
C49A C 0.6963(10) 0.8671(7) 0.5868(5)
H69A H 0.7358 0.9135 0.6226
H70A H 0.6296 0.8785 0.5652
C50A C 0.6459(10) 0.7881(7) 0.6145(6)
H71A H 0.5956 0.7440 0.5798
H72A H 0.5940 0.7968 0.6503
C51A C 0.7875(11) 0.8015(9) 0.7034(6)
H73A H 0.7188 0.8020 0.7296
H74A H 0.8336 0.7717 0.7212
H75A H 0.8397 0.8572 0.7045
C52A C 1.1059(8) 0.8870(6) 0.6589(5)
C53A C 1.1264(9) 0.8392(6) 0.7805(5)
C54A C 1.3425(9) 0.9045(6) 0.7191(5)
C55A C 1.0612(9) 0.9848(6) 0.7687(4)
C56A C 1.2860(8) 1.0428(6) 0.7091(4)
N14A N 0.6612(9) 0.3905(7) 0.5211(5)
C34A C 0.6059(9) 0.4331(6) 0.5148(4)
Mn4_2 Mn 0.5000 0.5000 -0.5000
Mn6_2 Mn 0.80049(11) 1.05757(7) 0.25496(6)
Mn6A_2 Mn 0.19951(11) -0.05757(7) -0.25496(6)
C35A_2 C 0.4888(7) 0.5335(5) 0.5971(4)
C57_2 C -0.2748(8) -0.0032(6) 0.1656(4)
C57A_2 C 1.2748(8) 1.0032(6) 0.8344(4)
O1 O 0.1670(6) 0.8839(5) 0.2033(4)
O2 O 0.1094(9) 0.7213(6) 0.2169(5)
O3 O 0.0904(9) 0.6016(7) 0.0961(5)
O4 O 0.3498(7) 0.9737(5) 0.3018(4)
O5 O 0.0067(9) 0.6281(9) 0.9801(7)
O6 O 0.3626(11) 0.7813(9) 0.5547(8)
O7 O 0.1155(9) 0.6500(9) 0.8570(10)
O8 O 0.8783(9) 0.5042(8) 0.1358(5)
O9 O 0.4341(12) 0.8904(11) 0.3767(11)
O10 O 0.4197(14) 0.9101(10) 0.5057(12)
H76 H 0.4206 0.8634 0.5123
H77 H 0.4241 0.9101 0.4643
loop_
_geom_bond_atom_site_label_1
_geom_bond_atom_site_label_2
_geom_bond_site_symmetry_1
_geom_bond_site_symmetry_2
Mn1 N1 1_555 1_555
Mn2 C16 1_555 1_555
Mn3 N8 1_555 1_555
Mn4 C34 1_555 1_555
Mn5 N16 1_555 1_555
Mn6 C52 1_555 1_555
N1 C6 1_555 1_555
N2 Mn1 1_555 1_555
H1 N2 1_555 1_555
N3 Mn1 1_555 1_555
H2 N3 1_555 1_555
N4 Mn1 1_555 1_555
N5 Mn1 1_555 1_555
N6 Mn1 1_555 1_555
N7 C17 1_555 1_555
N8 C18 1_555 1_555
N9 Mn3 1_555 1_555
N10 Mn3 1_555 1_555
N11 Mn3 1_555 1_555
H3 N11 1_555 1_555
N12 Mn3 1_555 1_555
N13 Mn3 1_555 1_555
H4 N13 1_555 1_555
N14 C34 1_555 1_555
N15 Mn3 1_555 1_555
N16 C36 1_555 1_555
N17 Mn5 1_555 1_555
N18 Mn5 1_555 1_555
N19 Mn5 1_555 1_555
N20 Mn5 1_555 1_555
H5 N20 1_555 1_555
N21 Mn5 1_555 1_555
H6 N21 1_555 1_555
N22 Mn5 1_555 1_555
N23 C53 1_555 1_555
N24 C54 1_555 1_555
N25 C55 1_555 1_555
N26 C56 1_555 1_555
N27 Mn1 1_555 1_555
C1 N3 1_555 1_555
H7 C1 1_555 1_555
H8 C1 1_555 1_555
H9 C1 1_555 1_555
C2 N3 1_555 1_555
H10 C2 1_555 1_555
H11 C2 1_555 1_555
C3 N4 1_555 1_555
H12 C3 1_555 1_555
H13 C3 1_555 1_555
C4 H14 1_555 1_555
H15 C4 1_555 1_555
H16 C4 1_555 1_555
C5 N4 1_555 1_555
C6 C5 1_555 1_555
C7 C6 1_555 1_555
H17 C7 1_555 1_555
C8 C7 1_555 1_555
H18 C8 1_555 1_555
C9 C8 1_555 1_555
H19 C9 1_555 1_555
C10 N1 1_555 1_555
C11 N5 1_555 1_555
C12 C11 1_555 1_555
H20 C12 1_555 1_555
H21 C12 1_555 1_555
H22 C12 1_555 1_555
C13 N5 1_555 1_555
H23 C13 1_555 1_555
H24 C13 1_555 1_555
C14 N2 1_555 1_555
H25 C14 1_555 1_555
H26 C14 1_555 1_555
C15 N2 1_555 1_555
H27 C15 1_555 1_555
H28 C15 1_555 1_555
H29 C15 1_555 1_555
C16 N6 1_555 1_555
C17 Mn2 1_555 1_555
C18 Mn2 1_555 1_555
C19 N11 1_555 1_555
H30 C19 1_555 1_555
H31 C19 1_555 1_555
H32 C19 1_555 1_555
C20 N11 1_555 1_555
H33 C20 1_555 1_555
H34 C20 1_555 1_555
C21 N10 1_555 1_555
H35 C21 1_555 1_555
H36 C21 1_555 1_555
C22 H37 1_555 1_555
H38 C22 1_555 1_555
H39 C22 1_555 1_555
C23 N10 1_555 1_555
C24 N9 1_555 1_555
C25 C24 1_555 1_555
H40 C25 1_555 1_555
C26 C25 1_555 1_555
H41 C26 1_555 1_555
C27 C26 1_555 1_555
H42 C27 1_555 1_555
C28 N9 1_555 1_555
C29 N12 1_555 1_555
C30 C29 1_555 1_555
H43 C30 1_555 1_555
H44 C30 1_555 1_555
H45 C30 1_555 1_555
C31 N12 1_555 1_555
H46 C31 1_555 1_555
H47 C31 1_555 1_555
C32 N13 1_555 1_555
H48 C32 1_555 1_555
H49 C32 1_555 1_555
C33 N13 1_555 1_555
H50 C33 1_555 1_555
H51 C33 1_555 1_555
H52 C33 1_555 1_555
C35 Mn4 1_555 1_555
C36 Mn4 1_555 1_555
C37 N20 1_555 1_555
H53 C37 1_555 1_555
H54 C37 1_555 1_555
H55 C37 1_555 1_555
C38 N20 1_555 1_555
H56 C38 1_555 1_555
H57 C38 1_555 1_555
C39 N19 1_555 1_555
H58 C39 1_555 1_555
H59 C39 1_555 1_555
C40 H60 1_555 1_555
H61 C40 1_555 1_555
H62 C40 1_555 1_555
C41 N19 1_555 1_555
C42 N17 1_555 1_555
C43 C42 1_555 1_555
H63 C43 1_555 1_555
C44 C43 1_555 1_555
H64 C44 1_555 1_555
C45 C44 1_555 1_555
H65 C45 1_555 1_555
C46 N17 1_555 1_555
C47 N18 1_555 1_555
C48 C47 1_555 1_555
H66 C48 1_555 1_555
H67 C48 1_555 1_555
H68 C48 1_555 1_555
C49 N18 1_555 1_555
H69 C49 1_555 1_555
H70 C49 1_555 1_555
C50 N21 1_555 1_555
H71 C50 1_555 1_555
H72 C50 1_555 1_555
C51 N21 1_555 1_555
H73 C51 1_555 1_555
H74 C51 1_555 1_555
H75 C51 1_555 1_555
C52 N22 1_555 1_555
C53 Mn6 1_555 1_555
C54 Mn6 1_555 1_555
C55 Mn6 1_555 1_555
C56 Mn6 1_555 1_555
C57 N27 1_555 1_555
O10 H76 1_555 1_555
H77 O10 1_555 1_555
Mn1A N1A 1_555 1_555
Mn3A N8A 1_555 1_555
N1A C6A 1_555 1_555
N2A Mn1A 1_555 1_555
H1A N2A 1_555 1_555
N3A Mn1A 1_555 1_555
H2A N3A 1_555 1_555
N4A Mn1A 1_555 1_555
N5A Mn1A 1_555 1_555
N6A Mn1A 1_555 1_555
N7A C17A 1_555 1_555
N8A C18A 1_555 1_555
N9A Mn3A 1_555 1_555
N10A Mn3A 1_555 1_555
N11A Mn3A 1_555 1_555
H3A N11A 1_555 1_555
N12A Mn3A 1_555 1_555
N13A Mn3A 1_555 1_555
H4A N13A 1_555 1_555
N15A Mn3A 1_555 1_555
N27A Mn1A 1_555 1_555
C1A N3A 1_555 1_555
H7A C1A 1_555 1_555
H8A C1A 1_555 1_555
H9A C1A 1_555 1_555
C2A N3A 1_555 1_555
H10A C2A 1_555 1_555
H11A C2A 1_555 1_555
C3A N4A 1_555 1_555
H12A C3A 1_555 1_555
H13A C3A 1_555 1_555
C4A H14A 1_555 1_555
H15A C4A 1_555 1_555
H16A C4A 1_555 1_555
C5A N4A 1_555 1_555
C6A C5A 1_555 1_555
C7A C6A 1_555 1_555
H17A C7A 1_555 1_555
C8A C7A 1_555 1_555
H18A C8A 1_555 1_555
C9A C8A 1_555 1_555
H19A C9A 1_555 1_555
C10A N1A 1_555 1_555
C11A N5A 1_555 1_555
C12A C11A 1_555 1_555
H20A C12A 1_555 1_555
H21A C12A 1_555 1_555
H22A C12A 1_555 1_555
C13A N5A 1_555 1_555
H23A C13A 1_555 1_555
H24A C13A 1_555 1_555
C14A N2A 1_555 1_555
H25A C14A 1_555 1_555
H26A C14A 1_555 1_555
C15A N2A 1_555 1_555
H27A C15A 1_555 1_555
H28A C15A 1_555 1_555
H29A C15A 1_555 1_555
C16A Mn2 1_555 1_555
C17A Mn2 1_555 1_555
C18A Mn2 1_555 1_555
C19A N11A 1_555 1_555
H30A C19A 1_555 1_555
H31A C19A 1_555 1_555
H32A C19A 1_555 1_555
C20A N11A 1_555 1_555
H33A C20A 1_555 1_555
H34A C20A 1_555 1_555
C21A N10A 1_555 1_555
H35A C21A 1_555 1_555
H36A C21A 1_555 1_555
C22A H37A 1_555 1_555
H38A C22A 1_555 1_555
H39A C22A 1_555 1_555
C23A N10A 1_555 1_555
C24A N9A 1_555 1_555
C25A C24A 1_555 1_555
H40A C25A 1_555 1_555
C26A C25A 1_555 1_555
H41A C26A 1_555 1_555
C27A C26A 1_555 1_555
H42A C27A 1_555 1_555
C28A N9A 1_555 1_555
C29A N12A 1_555 1_555
C30A C29A 1_555 1_555
H43A C30A 1_555 1_555
H44A C30A 1_555 1_555
H45A C30A 1_555 1_555
C31A N12A 1_555 1_555
H46A C31A 1_555 1_555
H47A C31A 1_555 1_555
C32A N13A 1_555 1_555
H48A C32A 1_555 1_555
H49A C32A 1_555 1_555
C33A N13A 1_555 1_555
H50A C33A 1_555 1_555
H51A C33A 1_555 1_555
H52A C33A 1_555 1_555
C35A N15A 1_555 1_555
C57A N27A 1_555 1_555
Mn5A N16A 1_555 1_555
Mn6A C52A 1_555 1_555
N16A C36A 1_555 1_555
N17A Mn5A 1_555 1_555
N18A Mn5A 1_555 1_555
N19A Mn5A 1_555 1_555
N20A Mn5A 1_555 1_555
H5A N20A 1_555 1_555
N21A Mn5A 1_555 1_555
H6A N21A 1_555 1_555
N22A Mn5A 1_555 1_555
N23A C53A 1_555 1_555
N24A C54A 1_555 1_555
N25A C55A 1_555 1_555
N26A C56A 1_555 1_555
C36A Mn4 1_555 1_555
C37A N20A 1_555 1_555
H53A C37A 1_555 1_555
H54A C37A 1_555 1_555
H55A C37A 1_555 1_555
C38A N20A 1_555 1_555
H56A C38A 1_555 1_555
H57A C38A 1_555 1_555
C39A N19A 1_555 1_555
H58A C39A 1_555 1_555
H59A C39A 1_555 1_555
C40A H60A 1_555 1_555
H61A C40A 1_555 1_555
H62A C40A 1_555 1_555
C41A N19A 1_555 1_555
C42A N17A 1_555 1_555
C43A C42A 1_555 1_555
H63A C43A 1_555 1_555
C44A C43A 1_555 1_555
H64A C44A 1_555 1_555
C45A C44A 1_555 1_555
H65A C45A 1_555 1_555
C46A N17A 1_555 1_555
C47A N18A 1_555 1_555
C48A C47A 1_555 1_555
H66A C48A 1_555 1_555
H67A C48A 1_555 1_555
H68A C48A 1_555 1_555
C49A N18A 1_555 1_555
H69A C49A 1_555 1_555
H70A C49A 1_555 1_555
C50A N21A 1_555 1_555
H71A C50A 1_555 1_555
H72A C50A 1_555 1_555
C51A N21A 1_555 1_555
H73A C51A 1_555 1_555
H74A C51A 1_555 1_555
H75A C51A 1_555 1_555
C52A N22A 1_555 1_555
C53A Mn6A 1_555 1_555
C54A Mn6A 1_555 1_555
C55A Mn6A 1_555 1_555
C56A Mn6A 1_555 1_555
N14A C34A 1_555 1_555
C34A Mn4 1_555 1_555
Mn4_2 C35A 1_555 1_555
Mn6_2 C57 1_555 1_555
Mn6A_2 C57A 1_555 1_555
C35A_2 Mn4 1_555 1_555
C57_2 Mn6 1_555 1_555
C57A_2 Mn6A 1_555 1_555
N15 C35 1_555 1_555
C2 C3 1_555 1_555
C4 C5 1_555 1_555
C9 C10 1_555 1_555
C10 C11 1_555 1_555
C13 C14 1_555 1_555
C20 C21 1_555 1_555
C22 C23 1_555 1_555
C23 C24 1_555 1_555
C27 C28 1_555 1_555
C28 C29 1_555 1_555
C31 C32 1_555 1_555
C38 C39 1_555 1_555
C40 C41 1_555 1_555
C41 C42 1_555 1_555
C45 C46 1_555 1_555
C46 C47 1_555 1_555
C49 C50 1_555 1_555
N6A C16A 1_555 1_555
C2A C3A 1_555 1_555
C4A C5A 1_555 1_555
C9A C10A 1_555 1_555
C10A C11A 1_555 1_555
C13A C14A 1_555 1_555
C20A C21A 1_555 1_555
C22A C23A 1_555 1_555
C23A C24A 1_555 1_555
C27A C28A 1_555 1_555
C28A C29A 1_555 1_555
C31A C32A 1_555 1_555
C38A C39A 1_555 1_555
C40A C41A 1_555 1_555
C41A C42A 1_555 1_555
C45A C46A 1_555 1_555
C46A C47A 1_555 1_555
C49A C50A 1_555 1_555

#END
