
#######################################################################
#
#                 Cambridge Crystallographic Data Centre
#                                CCDC 
#
#######################################################################
#
# If this CIF has been generated from an entry in the Cambridge 
# Structural Database, then it will include bibliographic, chemical, 
# crystal, experimental, refinement or atomic coordinate data resulting 
# from the CCDC's data processing and validation procedures.
#
#######################################################################

data_XUFPIZ
_symmetry_cell_setting           orthorhombic
_symmetry_space_group_name_H-M   'P c c n'
_symmetry_Int_Tables_number      56
_space_group_name_Hall           '-P 2ab 2ac'
loop_
_symmetry_equiv_pos_site_id
_symmetry_equiv_pos_as_xyz
1 x,y,z
2 1/2-x,1/2-y,z
3 -x,1/2+y,1/2-z
4 1/2+x,-y,1/2-z
5 -x,-y,-z
6 1/2+x,1/2+y,-z
7 x,1/2-y,1/2+z
8 1/2-x,y,1/2+z
_cell_length_a                   17.201(10)
_cell_length_b                   23.810(15)
_cell_length_c                   13.601(8)
_cell_angle_alpha                90
_cell_angle_beta                 90
_cell_angle_gamma                90
_cell_volume                     5570.37
loop_
_atom_site_label
_atom_site_type_symbol
_atom_site_fract_x
_atom_site_fract_y
_atom_site_fract_z
Co1 Co 0.35195(4) 0.57257(3) 0.51642(5)
O1 O 0.3571(2) 0.49356(17) 0.4656(3)
O2 O 0.3092(2) 0.54821(16) 0.3489(3)
O3 O 0.5280(3) 0.0946(2) 0.0477(4)
O4 O 0.6143(3) 0.1581(2) 0.0189(4)
O5 O 0.3275(2) 0.31364(17) 0.1238(4)
N1 N 0.4031(2) 0.55496(19) 0.6502(3)
N2 N 0.4737(3) 0.50403(19) 0.7514(3)
N3 N 0.6385(2) 0.36994(18) 0.8745(3)
N4 N 0.7403(2) 0.40645(18) 0.9492(3)
C1 C 0.3334(3) 0.4516(2) 0.3099(4)
C2 C 0.2971(3) 0.4536(2) 0.2206(4)
H1 H 0.2717 0.4863 0.2016
C3 C 0.2974(3) 0.4075(2) 0.1574(4)
H2 H 0.2721 0.4092 0.0970
C4 C 0.3356(3) 0.3594(3) 0.1859(5)
C5 C 0.3733(3) 0.3567(3) 0.2752(5)
H3 H 0.3989 0.3240 0.2941
C6 C 0.3725(3) 0.4029(3) 0.3364(4)
H4 H 0.3986 0.4015 0.3962
C7 C 0.3322(3) 0.5006(3) 0.3769(4)
C8 C 0.3866(3) 0.2745(3) 0.1127(4)
C9 C 0.3633(4) 0.2203(3) 0.0966(5)
H5 H 0.3105 0.2121 0.0988
C10 C 0.4145(4) 0.1780(3) 0.0775(4)
H6 H 0.3975 0.1412 0.0694
C11 C 0.4920(5) 0.1914(3) 0.0705(4)
C12 C 0.5185(4) 0.2455(3) 0.0874(5)
H7 H 0.5712 0.2538 0.0830
C13 C 0.4635(4) 0.2887(3) 0.1117(5)
H8 H 0.4797 0.3251 0.1263
C14 C 0.5515(5) 0.1427(4) 0.0418(5)
C15 C 0.4429(3) 0.5081(2) 0.6616(4)
H9 H 0.4489 0.4811 0.6128
C16 C 0.4537(4) 0.5518(3) 0.7999(5)
H10 H 0.4673 0.5614 0.8639
C17 C 0.4099(3) 0.5832(3) 0.7366(4)
H11 H 0.3883 0.6181 0.7505
C18 C 0.5191(3) 0.4574(3) 0.7892(5)
H12 H 0.5464 0.4694 0.8479
H13 H 0.5577 0.4468 0.7406
C19 C 0.4694(3) 0.4059(3) 0.8139(4)
C20 C 0.5049(3) 0.3535(3) 0.8189(4)
C21 C 0.4595(4) 0.3067(3) 0.8429(4)
H14 H 0.4826 0.2714 0.8460
C22 C 0.3798(4) 0.3121(4) 0.8623(5)
H15 H 0.3501 0.2805 0.8767
C23 C 0.3459(4) 0.3643(3) 0.8601(5)
H16 H 0.2935 0.3685 0.8752
C24 C 0.3910(3) 0.4108(3) 0.8349(5)
H17 H 0.3678 0.4460 0.8321
C25 C 0.5902(3) 0.3453(2) 0.7976(4)
H18 H 0.6012 0.3054 0.7926
H19 H 0.6028 0.3625 0.7349
C26 C 0.7092(3) 0.3909(2) 0.8647(4)
H20 H 0.7345 0.3943 0.8046
C27 C 0.6847(4) 0.3947(4) 1.0157(5)
H21 H 0.6885 0.4015 1.0829
C28 C 0.6221(4) 0.3714(3) 0.9706(5)
H22 H 0.5767 0.3589 1.0006
Co1B Co 0.64805(4) 0.07257(3) -0.01642(5)
Co1C Co 0.85195(4) 0.42743(3) 0.98358(5)
O3B O 0.4720(3) 0.5946(2) 0.4523(4)
O4B O 0.3857(3) 0.6581(2) 0.4811(4)
N4C N 0.2403(2) 0.59355(18) 0.5508(3)
O6 O 0.6887(11) 0.2261(7) 0.853(3)
loop_
_geom_bond_atom_site_label_1
_geom_bond_atom_site_label_2
_geom_bond_site_symmetry_1
_geom_bond_site_symmetry_2
Co1 O1 1_555 1_555
O1 C7 1_555 1_555
O2 C7 1_555 1_555
O3 C14 1_555 1_555
O4 C14 1_555 1_555
O5 C4 1_555 1_555
N1 Co1 1_555 1_555
N2 C15 1_555 1_555
N3 C25 1_555 1_555
N4 C26 1_555 1_555
C1 C2 1_555 1_555
C2 H1 1_555 1_555
C3 C2 1_555 1_555
H2 C3 1_555 1_555
C4 C3 1_555 1_555
C5 C4 1_555 1_555
H3 C5 1_555 1_555
C6 C1 1_555 1_555
H4 C6 1_555 1_555
C7 C1 1_555 1_555
C8 O5 1_555 1_555
C9 C8 1_555 1_555
H5 C9 1_555 1_555
C10 C9 1_555 1_555
H6 C10 1_555 1_555
C11 C10 1_555 1_555
C12 C11 1_555 1_555
H7 C12 1_555 1_555
C13 C8 1_555 1_555
H8 C13 1_555 1_555
C14 C11 1_555 1_555
C15 N1 1_555 1_555
H9 C15 1_555 1_555
C16 N2 1_555 1_555
H10 C16 1_555 1_555
C17 N1 1_555 1_555
H11 C17 1_555 1_555
C18 N2 1_555 1_555
H12 C18 1_555 1_555
H13 C18 1_555 1_555
C19 C18 1_555 1_555
C20 C19 1_555 1_555
C21 C20 1_555 1_555
H14 C21 1_555 1_555
C22 C21 1_555 1_555
H15 C22 1_555 1_555
C23 C22 1_555 1_555
H16 C23 1_555 1_555
C24 C19 1_555 1_555
H17 C24 1_555 1_555
C25 C20 1_555 1_555
H18 C25 1_555 1_555
H19 C25 1_555 1_555
C26 N3 1_555 1_555
H20 C26 1_555 1_555
C27 N4 1_555 1_555
H21 C27 1_555 1_555
C28 N3 1_555 1_555
H22 C28 1_555 1_555
Co1B O3 1_555 1_555
Co1C N4 1_555 1_555
O3B Co1 1_555 1_555
O4B Co1 1_555 1_555
N4C Co1 1_555 1_555
O4 Co1B 1_555 1_555
C5 C6 1_555 1_555
C12 C13 1_555 1_555
C16 C17 1_555 1_555
C23 C24 1_555 1_555
C27 C28 1_555 1_555

#END
