
#######################################################################
#
#                 Cambridge Crystallographic Data Centre
#                                CCDC 
#
#######################################################################
#
# If this CIF has been generated from an entry in the Cambridge 
# Structural Database, then it will include bibliographic, chemical, 
# crystal, experimental, refinement or atomic coordinate data resulting 
# from the CCDC's data processing and validation procedures.
#
#######################################################################

data_XUFQEW
_symmetry_cell_setting           triclinic
_symmetry_space_group_name_H-M   'P -1'
_symmetry_Int_Tables_number      2
_space_group_name_Hall           '-P 1'
loop_
_symmetry_equiv_pos_site_id
_symmetry_equiv_pos_as_xyz
1 x,y,z
2 -x,-y,-z
_cell_length_a                   9.4795(19)
_cell_length_b                   10.136(2)
_cell_length_c                   13.885(3)
_cell_angle_alpha                93.14(3)
_cell_angle_beta                 93.03(3)
_cell_angle_gamma                96.92(3)
_cell_volume                     1320.04
loop_
_atom_site_label
_atom_site_type_symbol
_atom_site_fract_x
_atom_site_fract_y
_atom_site_fract_z
Pr1 Pr 0.11418(4) 0.55655(4) -0.11562(3)
O1 O 0.1821(7) 0.7714(6) -0.0105(4)
O2 O 0.0483(6) 0.6236(5) 0.0633(3)
O3 O 0.2696(6) 0.8391(6) -0.3377(4)
O4 O 0.1494(6) 0.7175(6) -0.2342(4)
N1 N 0.2154(7) 1.3518(7) 0.7895(4)
N2 N -0.0100(7) 1.4615(6) 0.7131(4)
N3 N 0.2138(7) 1.0854(7) 0.4797(4)
N4 N 0.0160(7) 1.1623(7) 0.4229(4)
H1 H -0.0546 1.1728 0.3838
N5 N 0.3834(7) 0.6450(6) -0.1520(4)
C1 C 0.3207(10) 1.2924(9) 0.8280(6)
H2 H 0.3525 1.3167 0.8917
C2 C 0.3854(10) 1.1968(9) 0.7786(6)
H3 H 0.4594 1.1590 0.8087
C3 C 0.3407(10) 1.1585(9) 0.6865(6)
H4 H 0.3850 1.0953 0.6524
C4 C 0.2286(9) 1.2133(8) 0.6426(5)
C5 C 0.1666(9) 1.1755(8) 0.5477(5)
C6 C 0.0469(9) 1.2255(8) 0.5134(5)
C7 C -0.0198(9) 1.3216(8) 0.5639(5)
C8 C -0.1390(10) 1.3749(8) 0.5314(6)
H5 H -0.1843 1.3455 0.4717
C9 C -0.1897(11) 1.4699(10) 0.5866(6)
H6 H -0.2694 1.5074 0.5648
C10 C -0.1221(10) 1.5118(9) 0.6768(6)
H7 H -0.1578 1.5786 0.7132
C11 C 0.0433(8) 1.3669(7) 0.6577(5)
C12 C 0.1639(8) 1.3103(8) 0.6972(5)
C13 C 0.1162(8) 1.0811(8) 0.4067(5)
C14 C 0.1179(8) 0.9970(8) 0.3166(5)
C15 C 0.2118(10) 0.9023(8) 0.3106(6)
H8 H 0.2746 0.8937 0.3631
C16 C 0.2134(10) 0.8210(8) 0.2284(6)
H9 H 0.2769 0.7580 0.2257
C17 C 0.1223(9) 0.8320(8) 0.1501(5)
C18 C 0.0281(10) 0.9270(9) 0.1532(6)
H10 H -0.0324 0.9366 0.0998
C19 C 0.0256(10) 1.0081(8) 0.2379(5)
H11 H -0.0390 1.0701 0.2413
C20 C 0.1183(9) 0.7381(8) 0.0633(5)
C21 C 0.3998(8) 0.7377(7) -0.2174(5)
C22 C 0.5344(9) 0.7970(9) -0.2420(6)
H12 H 0.5428 0.8612 -0.2874
C23 C 0.6519(9) 0.7570(9) -0.1968(6)
H13 H 0.7423 0.7940 -0.2115
C24 C 0.6370(8) 0.6617(7) -0.1294(5)
C25 C 0.5023(9) 0.6105(8) -0.1093(5)
H14 H 0.4928 0.5476 -0.0630
C26 C 0.2623(10) 0.7682(8) -0.2663(5)
O5 O 0.7418(5) 0.5423(5) -0.0073(3)
O6 O 0.8829(6) 0.6388(5) -0.1161(3)
C27 C 0.7636(9) 0.6110(7) -0.0801(5)
Pr1_2 Pr 0.11418(4) 1.55655(4) 0.88438(3)
Pr1_3 Pr 1.11418(4) 0.55655(4) -0.11562(3)
Pr1A Pr -0.11418(4) 0.44345(4) 0.11562(3)
Pr1A_2 Pr 0.88582(4) 0.44345(4) 0.11562(3)
O2A O -0.0483(6) 0.3764(5) -0.0633(3)
N1_2 N 0.2154(7) 0.3518(7) -0.2105(4)
N2_2 N -0.0100(7) 0.4615(6) -0.2869(4)
O5A O 0.2582(5) 0.4577(5) 0.0073(3)
O6_2 O -0.1171(6) 0.6388(5) -0.1161(3)
O7 O 0.5279(14) 1.167(3) 0.4895(9)
O8 O 0.350(3) 1.026(2) -0.0155(15)
H15 H 0.32(3) 1.01(4) -0.074(8)
H16 H 0.42(3) 0.99(4) -0.01(3)
loop_
_geom_bond_atom_site_label_1
_geom_bond_atom_site_label_2
_geom_bond_site_symmetry_1
_geom_bond_site_symmetry_2
Pr1 O1 1_555 1_555
O1 C20 1_555 1_555
O2 Pr1 1_555 1_555
O3 C26 1_555 1_555
O4 Pr1 1_555 1_555
N1 C1 1_555 1_555
N2 C10 1_555 1_555
N3 C5 1_555 1_555
N4 H1 1_555 1_555
N5 Pr1 1_555 1_555
C1 H2 1_555 1_555
C2 C1 1_555 1_555
H3 C2 1_555 1_555
C3 C2 1_555 1_555
H4 C3 1_555 1_555
C4 C3 1_555 1_555
C5 C4 1_555 1_555
C6 N4 1_555 1_555
C7 C6 1_555 1_555
C8 C7 1_555 1_555
H5 C8 1_555 1_555
C9 C8 1_555 1_555
H6 C9 1_555 1_555
C10 C9 1_555 1_555
H7 C10 1_555 1_555
C11 N2 1_555 1_555
C12 N1 1_555 1_555
C13 N3 1_555 1_555
C14 C13 1_555 1_555
C15 C14 1_555 1_555
H8 C15 1_555 1_555
C16 C15 1_555 1_555
H9 C16 1_555 1_555
C17 C16 1_555 1_555
C18 C17 1_555 1_555
H10 C18 1_555 1_555
C19 C14 1_555 1_555
H11 C19 1_555 1_555
C20 O2 1_555 1_555
C21 N5 1_555 1_555
C22 C21 1_555 1_555
H12 C22 1_555 1_555
C23 C22 1_555 1_555
H13 C23 1_555 1_555
C24 C23 1_555 1_555
C25 N5 1_555 1_555
H14 C25 1_555 1_555
C26 O4 1_555 1_555
O5 C27 1_555 1_555
O6 C27 1_555 1_555
C27 C24 1_555 1_555
O8 H15 1_555 1_555
H16 O8 1_555 1_555
Pr1_2 N1 1_555 1_555
Pr1_3 O6 1_555 1_555
Pr1A O2 1_555 1_555
Pr1A_2 O5 1_555 1_555
O2A Pr1 1_555 1_555
N1_2 Pr1 1_555 1_555
N2_2 Pr1 1_555 1_555
O5A Pr1 1_555 1_555
O6_2 Pr1 1_555 1_555
N2 Pr1_2 1_555 1_555
N4 C13 1_555 1_555
C4 C12 1_555 1_555
C5 C6 1_555 1_555
C7 C11 1_555 1_555
C11 C12 1_555 1_555
C17 C20 1_555 1_555
C18 C19 1_555 1_555
C21 C26 1_555 1_555
C24 C25 1_555 1_555
Pr1A O2A 1_555 1_555

#END
