
#######################################################################
#
#                 Cambridge Crystallographic Data Centre
#                                CCDC 
#
#######################################################################
#
# If this CIF has been generated from an entry in the Cambridge 
# Structural Database, then it will include bibliographic, chemical, 
# crystal, experimental, refinement or atomic coordinate data resulting 
# from the CCDC's data processing and validation procedures.
#
#######################################################################

data_XUFVAX
_symmetry_cell_setting           monoclinic
_symmetry_space_group_name_H-M   'P 21/c'
_symmetry_Int_Tables_number      14
_space_group_name_Hall           '-P 2ybc'
loop_
_symmetry_equiv_pos_site_id
_symmetry_equiv_pos_as_xyz
1 x,y,z
2 -x,1/2+y,1/2-z
3 -x,-y,-z
4 x,1/2-y,1/2+z
_cell_length_a                   10.5078(7)
_cell_length_b                   9.1266(6)
_cell_length_c                   11.7875(8)
_cell_angle_alpha                90
_cell_angle_beta                 99.869(3)
_cell_angle_gamma                90
_cell_volume                     1113.7
loop_
_atom_site_label
_atom_site_type_symbol
_atom_site_fract_x
_atom_site_fract_y
_atom_site_fract_z
Cu1 Cu 0.78027(2) 0.72579(3) 0.44131(2)
Cu2 Cu 0.63017(3) 0.62819(3) 0.17821(2)
Cl1 Cl 0.85505(5) 0.88747(5) 0.58187(4)
O1 O 0.71650(15) 0.57374(15) 0.33045(12)
O2 O 0.59293(15) 0.42632(15) 0.12380(12)
O3 O 0.47758(15) 0.31381(16) -0.02837(12)
N1 N 0.64127(17) 0.83043(19) 0.22544(14)
N2 N 0.70949(17) 0.87222(18) 0.32907(15)
N3 N 0.84438(17) 0.55525(19) 0.53232(15)
N4 N 0.82086(18) 0.42629(19) 0.47708(15)
C1 C 0.5954(2) 0.9505(2) 0.16782(17)
H1 H 0.5446 0.9511 0.0929
C2 C 0.6327(2) 1.0743(2) 0.23319(19)
H2 H 0.6137 1.1738 0.2137
C3 C 0.7044(2) 1.0190(2) 0.33369(19)
H3 H 0.7442 1.0768 0.3969
C4 C 0.9117(2) 0.5237(2) 0.63629(18)
H4 H 0.9414 0.5938 0.6945
C5 C 0.9320(2) 0.3735(2) 0.64682(19)
H5 H 0.9771 0.3221 0.7116
C6 C 0.8729(2) 0.3150(2) 0.5436(2)
H6 H 0.8696 0.2142 0.5232
C7 C 0.7494(2) 0.4297(2) 0.35729(18)
H7 H 0.8042 0.3908 0.3038
H8 H 0.6706 0.3685 0.3506
C8 C 0.5203(2) 0.4251(2) 0.02767(17)
O2B O 0.40707(15) 0.57368(15) -0.12380(12)
O3B O 0.52242(15) 0.68619(16) 0.02837(12)
C8B C 0.4797(2) 0.5749(2) -0.02767(17)
Cu1B Cu 0.21973(2) 0.27421(3) -0.44131(2)
Cu2B Cu 0.36983(3) 0.37181(3) -0.17821(2)
Cl1B Cl 0.14495(5) 0.11253(5) -0.58187(4)
O1B O 0.28350(15) 0.42626(15) -0.33045(12)
N1B N 0.35873(17) 0.16957(19) -0.22544(14)
N2B N 0.29051(17) 0.12778(18) -0.32907(15)
N3B N 0.15562(17) 0.44475(19) -0.53232(15)
N4B N 0.17914(18) 0.57371(19) -0.47708(15)
C1B C 0.4046(2) 0.0495(2) -0.16782(17)
H1B H 0.4554 0.0489 -0.0929
C2B C 0.3673(2) -0.0743(2) -0.23319(19)
H2B H 0.3863 -0.1738 -0.2137
C3B C 0.2956(2) -0.0190(2) -0.33369(19)
H3B H 0.2558 -0.0768 -0.3969
C4B C 0.0883(2) 0.4763(2) -0.63629(18)
H4B H 0.0586 0.4062 -0.6945
C5B C 0.0680(2) 0.6265(2) -0.64682(19)
H5B H 0.0229 0.6779 -0.7116
C6B C 0.1271(2) 0.6850(2) -0.5436(2)
H6B H 0.1304 0.7858 -0.5232
C7B C 0.2506(2) 0.5703(2) -0.35729(18)
H7B H 0.1958 0.6092 -0.3038
H8B H 0.3294 0.6315 -0.3506
Cu2A Cu 0.36983(3) 0.12819(3) -0.67821(2)
Cu2C Cu 0.63017(3) 0.87181(3) 0.67821(2)
Cl1A Cl 0.14495(5) 0.38747(5) -0.08187(4)
Cl1C Cl 0.85505(5) 0.61253(5) 0.08187(4)
loop_
_geom_bond_atom_site_label_1
_geom_bond_atom_site_label_2
_geom_bond_site_symmetry_1
_geom_bond_site_symmetry_2
Cu1 Cl1 1_555 1_555
Cu2 O1 1_555 1_555
Cl1 Cu2C 1_555 1_555
O1 Cu1 1_555 1_555
O2 Cu2 1_555 1_555
O3 C8 1_555 1_555
N1 Cu2 1_555 1_555
N2 Cu1 1_555 1_555
N3 Cu1 1_555 1_555
N4 N3 1_555 1_555
C1 N1 1_555 1_555
H1 C1 1_555 1_555
C2 C1 1_555 1_555
H2 C2 1_555 1_555
C3 N2 1_555 1_555
H3 C3 1_555 1_555
C4 N3 1_555 1_555
H4 C4 1_555 1_555
C5 C4 1_555 1_555
H5 C5 1_555 1_555
C6 N4 1_555 1_555
H6 C6 1_555 1_555
C7 O1 1_555 1_555
H7 C7 1_555 1_555
H8 C7 1_555 1_555
C8 O2 1_555 1_555
O2B C8B 1_555 1_555
O3B Cu2 1_555 1_555
C8B C8 1_555 1_555
Cu1B Cl1B 1_555 1_555
Cu2B O3 1_555 1_555
Cl1B Cu2A 1_555 1_555
O1B Cu1B 1_555 1_555
N1B Cu2B 1_555 1_555
N2B Cu1B 1_555 1_555
N3B Cu1B 1_555 1_555
N4B N3B 1_555 1_555
C1B N1B 1_555 1_555
H1B C1B 1_555 1_555
C2B C1B 1_555 1_555
H2B C2B 1_555 1_555
C3B N2B 1_555 1_555
H3B C3B 1_555 1_555
C4B N3B 1_555 1_555
H4B C4B 1_555 1_555
C5B C4B 1_555 1_555
H5B C5B 1_555 1_555
C6B N4B 1_555 1_555
H6B C6B 1_555 1_555
C7B O1B 1_555 1_555
H7B C7B 1_555 1_555
H8B C7B 1_555 1_555
Cl1A Cu2B 1_555 1_555
Cl1C Cu2 1_555 1_555
N1 N2 1_555 1_555
N4 C7 1_555 1_555
C2 C3 1_555 1_555
C5 C6 1_555 1_555
O2B Cu2B 1_555 1_555
O3B C8B 1_555 1_555
Cu2B O1B 1_555 1_555
N1B N2B 1_555 1_555
N4B C7B 1_555 1_555
C2B C3B 1_555 1_555
C5B C6B 1_555 1_555

#END
