
#######################################################################
#
#                 Cambridge Crystallographic Data Centre
#                                CCDC 
#
#######################################################################
#
# If this CIF has been generated from an entry in the Cambridge 
# Structural Database, then it will include bibliographic, chemical, 
# crystal, experimental, refinement or atomic coordinate data resulting 
# from the CCDC's data processing and validation procedures.
#
#######################################################################

data_XUFYII
_symmetry_cell_setting           orthorhombic
_symmetry_space_group_name_H-M   'P 21 21 2'
_symmetry_Int_Tables_number      18
_space_group_name_Hall           'P 2 2ab'
loop_
_symmetry_equiv_pos_site_id
_symmetry_equiv_pos_as_xyz
1 x,y,z
2 -x,-y,z
3 1/2-x,1/2+y,-z
4 1/2+x,1/2-y,-z
_cell_length_a                   10.1554(5)
_cell_length_b                   15.2536(9)
_cell_length_c                   9.2600(6)
_cell_angle_alpha                90
_cell_angle_beta                 90
_cell_angle_gamma                90
_cell_volume                     1434.43
loop_
_atom_site_label
_atom_site_type_symbol
_atom_site_fract_x
_atom_site_fract_y
_atom_site_fract_z
Cd1 Cd 1.35970(3) -0.090252(19) 0.22201(3)
C1 C 0.9890(4) -0.1242(3) 0.0377(4)
C2 C 0.8715(4) -0.1051(2) 0.1089(4)
H1 H 0.8736 -0.0785 0.1992
C3 C 0.7513(4) -0.1257(3) 0.0458(5)
C4 C 0.7491(4) -0.1670(3) -0.0879(5)
H2 H 0.6692 -0.1813 -0.1310
C5 C 0.8672(5) -0.1869(3) -0.1571(5)
C6 C 0.9861(4) -0.1633(3) -0.0969(5)
H3 H 1.0641 -0.1737 -0.1466
C7 C 1.1183(4) -0.1089(3) 0.1094(5)
C8 C 0.6261(4) -0.1034(3) 0.1205(4)
C9 C 0.9609(5) -0.2364(3) -0.3814(5)
H4 H 1.0401 -0.2573 -0.3341
H5 H 0.9775 -0.1783 -0.4199
C10 C 0.9193(5) -0.2988(3) -0.5008(5)
C11 C 0.9272(5) -0.2747(4) -0.6448(5)
H6 H 0.9600 -0.2201 -0.6715
C12 C 0.8846(6) -0.3342(4) -0.7479(5)
H7 H 0.8853 -0.3192 -0.8452
C13 C 0.8415(5) -0.4155(4) -0.7054(5)
H8 H 0.8135 -0.4567 -0.7728
C14 C 0.8408(6) -0.4344(3) -0.5593(5)
H9 H 0.8116 -0.4894 -0.5301
O1 O 1.2207(3) -0.1090(2) 0.0335(3)
O2 O 1.1228(3) -0.0977(2) 0.2445(3)
O3 O 0.6287(3) -0.05710(18) 0.2352(3)
O4 O 0.5202(3) -0.1337(3) 0.0719(4)
O5 O 0.8535(3) -0.2350(2) -0.2835(4)
N1 N 0.8797(4) -0.3782(2) -0.4587(4)
Cd1_2 Cd 0.35970(3) -0.090252(19) 0.22201(3)
Cd1A Cd 0.64030(3) 0.090252(19) 0.22201(3)
Cd1C Cd 0.85970(3) -0.409748(19) -0.22201(3)
O3_2 O 1.6287(3) -0.05710(18) 0.2352(3)
O3A O 1.3713(3) 0.05710(18) 0.2352(3)
O4_2 O 1.5202(3) -0.1337(3) 0.0719(4)
O5C O 1.3535(3) -0.2650(2) 0.2835(4)
N1C N 1.3797(4) -0.1218(2) 0.4587(4)
O6 O 0.5000 -0.5000 -0.4701(10)
H10 H 0.5827 -0.4998 -0.4841
H10A H 0.4173 -0.5002 -0.4841
loop_
_geom_bond_atom_site_label_1
_geom_bond_atom_site_label_2
_geom_bond_site_symmetry_1
_geom_bond_site_symmetry_2
Cd1 O1 1_555 1_555
C1 C2 1_555 1_555
C2 H1 1_555 1_555
C3 C2 1_555 1_555
C4 C3 1_555 1_555
H2 C4 1_555 1_555
C5 C4 1_555 1_555
C6 C1 1_555 1_555
H3 C6 1_555 1_555
C7 C1 1_555 1_555
C8 C3 1_555 1_555
C9 H4 1_555 1_555
H5 C9 1_555 1_555
C10 C9 1_555 1_555
C11 C10 1_555 1_555
H6 C11 1_555 1_555
C12 C11 1_555 1_555
H7 C12 1_555 1_555
C13 C12 1_555 1_555
H8 C13 1_555 1_555
C14 C13 1_555 1_555
H9 C14 1_555 1_555
O1 C7 1_555 1_555
O2 Cd1 1_555 1_555
O3 C8 1_555 1_555
O4 C8 1_555 1_555
O5 C5 1_555 1_555
N1 C10 1_555 1_555
O6 H10 1_555 1_555
Cd1_2 O3 1_555 1_555
Cd1A O3 1_555 1_555
Cd1C O5 1_555 1_555
O3_2 Cd1 1_555 1_555
O3A Cd1 1_555 1_555
O4_2 Cd1 1_555 1_555
O5C Cd1 1_555 1_555
N1C Cd1 1_555 1_555
H10A O6 1_555 1_555
C5 C6 1_555 1_555
C7 O2 1_555 1_555
C9 O5 1_555 1_555
C14 N1 1_555 1_555
O4 Cd1_2 1_555 1_555
N1 Cd1C 1_555 1_555

#END
