
#######################################################################
#
#                 Cambridge Crystallographic Data Centre
#                                CCDC 
#
#######################################################################
#
# If this CIF has been generated from an entry in the Cambridge 
# Structural Database, then it will include bibliographic, chemical, 
# crystal, experimental, refinement or atomic coordinate data resulting 
# from the CCDC's data processing and validation procedures.
#
#######################################################################

data_XUFYAZ
_symmetry_cell_setting           monoclinic
_symmetry_space_group_name_H-M   'P 21/c'
_symmetry_Int_Tables_number      14
_space_group_name_Hall           '-P 2ybc'
loop_
_symmetry_equiv_pos_site_id
_symmetry_equiv_pos_as_xyz
1 x,y,z
2 -x,1/2+y,1/2-z
3 -x,-y,-z
4 x,1/2-y,1/2+z
_cell_length_a                   6.3663(5)
_cell_length_b                   23.512(3)
_cell_length_c                   23.109(4)
_cell_angle_alpha                90
_cell_angle_beta                 92.579(11)
_cell_angle_gamma                90
_cell_volume                     3455.55
loop_
_atom_site_label
_atom_site_type_symbol
_atom_site_fract_x
_atom_site_fract_y
_atom_site_fract_z
C1 C 0.6630(8) 0.4254(3) 0.8978(2)
H1 H 0.6076 0.3891 0.8924
C2 C 0.6871(9) 0.4473(3) 0.9545(3)
H2 H 0.6497 0.4262 0.9866
C3 C 0.7687(9) 0.5015(3) 0.9603(3)
H3 H 0.7842 0.5175 0.9970
C4 C 0.8274(9) 0.5322(3) 0.9133(3)
H4 H 0.8848 0.5683 0.9181
C5 C 0.8004(7) 0.5089(2) 0.8588(2)
C6 C 0.8552(8) 0.5417(2) 0.8069(2)
H5 H 0.9664 0.5220 0.7877
H6 H 0.9089 0.5786 0.8190
C7 C 0.6672(8) 0.5503(2) 0.7632(2)
H7 H 0.5432 0.5616 0.7833
H8 H 0.6988 0.5797 0.7355
N1 N 0.6306(6) 0.49557(17) 0.73348(18)
C8 C 0.5900(7) 0.4941(2) 0.6781(2)
H9 H 0.5744 0.5263 0.6550
C9 C 0.5715(7) 0.4361(2) 0.6562(2)
C10 C 0.5396(7) 0.3594(2) 0.6042(2)
H10 H 0.5222 0.3344 0.5732
C11 C 0.5729(7) 0.3448(2) 0.6611(2)
H11 H 0.5811 0.3080 0.6756
C12 C 1.1997(8) 0.3289(3) 0.8954(2)
H12 H 1.1141 0.3607 0.8904
C13 C 1.2815(8) 0.3164(3) 0.9503(2)
H13 H 1.2505 0.3388 0.9820
C14 C 1.4122(9) 0.2690(3) 0.9565(3)
H14 H 1.4787 0.2606 0.9922
C15 C 1.4414(8) 0.2349(3) 0.9093(2)
H15 H 1.5232 0.2023 0.9133
C16 C 1.3515(7) 0.2486(2) 0.8567(2)
C17 C 1.3808(8) 0.2114(2) 0.8048(2)
H16 H 1.4340 0.1747 0.8179
H17 H 1.4862 0.2285 0.7812
C18 C 1.1783(8) 0.2020(2) 0.7669(2)
H18 H 1.1963 0.1704 0.7406
H19 H 1.0615 0.1936 0.7910
C19 C 1.1032(7) 0.2531(2) 0.6792(2)
H20 H 1.0974 0.2197 0.6576
C20 C 1.0748(7) 0.3094(2) 0.6540(2)
C21 C 1.0374(7) 0.3835(2) 0.5983(2)
H21 H 1.0197 0.4066 0.5657
C22 C 1.0644(7) 0.4013(2) 0.6546(2)
H22 H 1.0662 0.4389 0.6672
C23 C 0.5057(9) 0.4528(3) 0.5494(2)
H23 H 0.3672 0.4690 0.5483
H24 H 0.5212 0.4295 0.5157
H25 H 0.6084 0.4827 0.5499
C24 C 1.0212(9) 0.2886(3) 0.5479(2)
H26 H 1.1047 0.2550 0.5542
H27 H 1.0691 0.3088 0.5149
H28 H 0.8765 0.2780 0.5411
Cu1 Cu 0.64858(9) 0.41949(3) 0.77408(3)
Cu2 Cu 1.14360(9) 0.33125(3) 0.77188(3)
N2 N 0.7182(6) 0.45565(19) 0.85109(18)
N3 N 0.5364(6) 0.41820(19) 0.60114(19)
N4 N 0.5920(6) 0.39324(19) 0.69264(18)
N5 N 1.2381(6) 0.29728(18) 0.84929(18)
N6 N 1.1372(6) 0.25403(18) 0.73432(19)
N7 N 1.0414(6) 0.32516(19) 0.59914(17)
N8 N 1.0880(6) 0.35442(19) 0.68895(19)
Cl1 Cl 1.24123(17) 0.42174(5) 0.79609(5)
Cl2 Cl 0.75227(17) 0.33025(5) 0.80074(5)
Cu1_2 Cu 1.64858(9) 0.41949(3) 0.77408(3)
Cl1_2 Cl 0.24123(17) 0.42174(5) 0.79609(5)
P1 P 0.6169(2) 0.15967(7) 0.61995(7)
F1 F 0.6667(7) 0.0947(2) 0.6340(2)
F2 F 0.3983(6) 0.15272(18) 0.6481(2)
F3 F 0.5324(8) 0.1399(2) 0.56041(18)
F4 F 0.8457(7) 0.1646(2) 0.5975(3)
F5 F 0.5726(10) 0.22361(17) 0.6056(2)
F6 F 0.7047(9) 0.1813(3) 0.6809(2)
P2 P 1.0450(3) 0.58686(8) 0.59619(8)
F7 F 0.9417(16) 0.5887(3) 0.6517(3)
F8 F 1.0055(13) 0.5228(2) 0.5937(3)
F9 F 1.0745(8) 0.6524(2) 0.6019(3)
F10 F 1.1146(13) 0.5885(4) 0.5355(2)
F11 F 1.2648(9) 0.5788(4) 0.6163(4)
F12 F 0.8268(10) 0.5948(3) 0.5672(5)
loop_
_geom_bond_atom_site_label_1
_geom_bond_atom_site_label_2
_geom_bond_site_symmetry_1
_geom_bond_site_symmetry_2
C1 H1 1_555 1_555
C2 C1 1_555 1_555
H2 C2 1_555 1_555
C3 C2 1_555 1_555
H3 C3 1_555 1_555
C4 C3 1_555 1_555
H4 C4 1_555 1_555
C5 C4 1_555 1_555
C6 C5 1_555 1_555
H5 C6 1_555 1_555
H6 C6 1_555 1_555
C7 C6 1_555 1_555
H7 C7 1_555 1_555
H8 C7 1_555 1_555
N1 C7 1_555 1_555
C8 N1 1_555 1_555
H9 C8 1_555 1_555
C9 C8 1_555 1_555
C10 H10 1_555 1_555
C11 C10 1_555 1_555
H11 C11 1_555 1_555
C12 H12 1_555 1_555
C13 C12 1_555 1_555
H13 C13 1_555 1_555
C14 C13 1_555 1_555
H14 C14 1_555 1_555
C15 C14 1_555 1_555
H15 C15 1_555 1_555
C16 C15 1_555 1_555
C17 C16 1_555 1_555
H16 C17 1_555 1_555
H17 C17 1_555 1_555
C18 C17 1_555 1_555
H18 C18 1_555 1_555
H19 C18 1_555 1_555
C19 H20 1_555 1_555
C20 C19 1_555 1_555
C21 H21 1_555 1_555
C22 C21 1_555 1_555
H22 C22 1_555 1_555
C23 H23 1_555 1_555
H24 C23 1_555 1_555
H25 C23 1_555 1_555
C24 H26 1_555 1_555
H27 C24 1_555 1_555
H28 C24 1_555 1_555
Cu1 N1 1_555 1_555
Cu2 N5 1_555 1_555
P1 F1 1_555 1_555
P2 F7 1_555 1_555
F2 P1 1_555 1_555
F3 P1 1_555 1_555
F4 P1 1_555 1_555
F5 P1 1_555 1_555
F6 P1 1_555 1_555
F8 P2 1_555 1_555
F9 P2 1_555 1_555
F10 P2 1_555 1_555
F11 P2 1_555 1_555
F12 P2 1_555 1_555
N2 C1 1_555 1_555
N3 C9 1_555 1_555
N4 C9 1_555 1_555
N5 C12 1_555 1_555
N6 C18 1_555 1_555
N7 C20 1_555 1_555
N8 C20 1_555 1_555
Cl1 Cu2 1_555 1_555
Cl2 Cu1 1_555 1_555
Cu1_2 Cl1 1_555 1_555
Cl1_2 Cu1 1_555 1_555
C5 N2 1_555 1_555
C10 N3 1_555 1_555
C11 N4 1_555 1_555
C16 N5 1_555 1_555
C19 N6 1_555 1_555
C21 N7 1_555 1_555
C22 N8 1_555 1_555
C23 N3 1_555 1_555
C24 N7 1_555 1_555
Cu1 N2 1_555 1_555
Cu1 N4 1_555 1_555
Cu2 N6 1_555 1_555
Cu2 N8 1_555 1_555
Cu2 Cl2 1_555 1_555

#END
