
#######################################################################
#
#                 Cambridge Crystallographic Data Centre
#                                CCDC 
#
#######################################################################
#
# If this CIF has been generated from an entry in the Cambridge 
# Structural Database, then it will include bibliographic, chemical, 
# crystal, experimental, refinement or atomic coordinate data resulting 
# from the CCDC's data processing and validation procedures.
#
#######################################################################

data_XUGBUY
_symmetry_cell_setting           monoclinic
_symmetry_space_group_name_H-M   'C 2/c'
_symmetry_Int_Tables_number      15
_space_group_name_Hall           '-C 2yn'
loop_
_symmetry_equiv_pos_site_id
_symmetry_equiv_pos_as_xyz
1 x,y,z
2 -x,y,1/2-z
3 1/2+x,1/2+y,z
4 1/2-x,1/2+y,1/2-z
5 -x,-y,-z
6 x,-y,1/2+z
7 1/2-x,1/2-y,-z
8 1/2+x,1/2-y,1/2+z
_cell_length_a                   15.967(5)
_cell_length_b                   19.101(5)
_cell_length_c                   9.544(3)
_cell_angle_alpha                90
_cell_angle_beta                 122.218(4)
_cell_angle_gamma                90
_cell_volume                     2462.6
loop_
_atom_site_label
_atom_site_type_symbol
_atom_site_fract_x
_atom_site_fract_y
_atom_site_fract_z
Sm1 Sm 0.5000 -0.065157(11) 0.7500
O1 O 0.37907(17) -0.10557(16) 0.4781(3)
O2 O 0.42136(15) 0.03266(16) 0.5803(3)
O3 O 0.55757(19) -0.18794(16) 0.7225(3)
O4 O 0.38069(18) 0.05732(13) 0.3236(3)
C1 C 0.3470(4) -0.1505(3) 0.3712(5)
C2 C 0.36006(17) 0.04972(16) 0.4323(3)
N1 N 0.5000 -0.2196(4) 0.7500
N2 N 0.2603(3) -0.1762(2) 0.2956(5)
C3 C 0.4134(3) -0.1783(3) 0.3023(6)
C4 C 0.25322(19) 0.06225(14) 0.3811(4)
O5 O 0.5000 -0.2857(2) 0.7500
C5 C 0.2164(4) -0.2240(3) 0.1577(7)
C6 C 0.1995(3) -0.1457(4) 0.3563(6)
H1 H 0.4772 -0.1563 0.3623
H2 H 0.3814 -0.1672 0.1867
H3 H 0.4212 -0.2282 0.3166
C7 C 0.18467(18) 0.0870(2) 0.2252(3)
C8 C 0.22308(19) 0.0464(2) 0.4882(4)
H4 H 0.2659 -0.2393 0.1363
H5 H 0.1640 -0.2007 0.0614
H6 H 0.1902 -0.2637 0.1833
H7 H 0.2400 -0.1153 0.4484
H8 H 0.1737 -0.1827 0.3907
H9 H 0.1457 -0.1195 0.2688
H10 H 0.2050 0.0988 0.1534
C9 C 0.08603(17) 0.09456(19) 0.1735(3)
C10 C 0.1236(2) 0.05258(18) 0.4377(4)
H11 H 0.2693 0.0314 0.5952
H12 H 0.0415 0.1119 0.0681
C11 C 0.05188(18) 0.07650(15) 0.2778(3)
H13 H 0.1044 0.0407 0.5110
O2A O -0.42136(15) 0.03266(16) -0.0803(3)
C2A C -0.36006(17) 0.04972(16) 0.0677(3)
C4A C -0.25322(19) 0.06225(14) 0.1189(4)
C7A C -0.18467(18) 0.0870(2) 0.2748(3)
C8A C -0.22308(19) 0.0464(2) 0.0118(4)
H10A H -0.2050 0.0988 0.3466
C9A C -0.08603(17) 0.09456(19) 0.3265(3)
C10A C -0.1236(2) 0.05258(18) 0.0623(4)
H11A H -0.2693 0.0314 -0.0952
H12A H -0.0415 0.1119 0.4319
C11A C -0.05188(18) 0.07650(15) 0.2222(3)
H13A H -0.1044 0.0407 -0.0110
O4A O -0.38069(18) 0.05732(13) 0.1764(3)
O3A O 0.44243(19) -0.18794(16) 0.7775(3)
O1A O 0.62093(17) -0.10557(16) 1.0219(3)
C1A C 0.6530(4) -0.1505(3) 1.1288(5)
N2A N 0.7397(3) -0.1762(2) 1.2044(5)
C3A C 0.5866(3) -0.1783(3) 1.1977(6)
C5A C 0.7836(4) -0.2240(3) 1.3423(7)
C6A C 0.8005(3) -0.1457(4) 1.1437(6)
H1A H 0.5228 -0.1563 1.1377
H2A H 0.6186 -0.1672 1.3133
H3A H 0.5788 -0.2282 1.1834
H4A H 0.7341 -0.2393 1.3637
H5A H 0.8360 -0.2007 1.4386
H6A H 0.8098 -0.2637 1.3167
H7A H 0.7600 -0.1153 1.0516
H8A H 0.8263 -0.1827 1.1093
H9A H 0.8543 -0.1195 1.2312
Sm1_2 Sm -0.5000 -0.065157(11) -0.2500
Sm1D Sm -0.5000 0.065157(11) 0.2500
Sm1D_2 Sm 0.5000 0.065157(11) 0.2500
O2A_2 O 0.57864(15) 0.03266(16) 0.9197(3)
O4D O 0.61931(18) -0.05732(13) 0.6764(3)
O4E O 0.38069(18) -0.05732(13) 0.8236(3)
loop_
_geom_bond_atom_site_label_1
_geom_bond_atom_site_label_2
_geom_bond_site_symmetry_1
_geom_bond_site_symmetry_2
Sm1 O1 1_555 1_555
O1 C1 1_555 1_555
O2 Sm1 1_555 1_555
O3 Sm1 1_555 1_555
O4 C2 1_555 1_555
C1 N2 1_555 1_555
C2 O2 1_555 1_555
N1 O3 1_555 1_555
N2 C5 1_555 1_555
C3 C1 1_555 1_555
C4 C2 1_555 1_555
O5 N1 1_555 1_555
C5 H4 1_555 1_555
C6 N2 1_555 1_555
H1 C3 1_555 1_555
H2 C3 1_555 1_555
H3 C3 1_555 1_555
C7 C4 1_555 1_555
C8 C4 1_555 1_555
H5 C5 1_555 1_555
H6 C5 1_555 1_555
H7 C6 1_555 1_555
H8 C6 1_555 1_555
H9 C6 1_555 1_555
H10 C7 1_555 1_555
C9 C7 1_555 1_555
C10 C8 1_555 1_555
H11 C8 1_555 1_555
H12 C9 1_555 1_555
C11 C9 1_555 1_555
H13 C10 1_555 1_555
O2A C2A 1_555 1_555
C2A C4A 1_555 1_555
C4A C7A 1_555 1_555
C7A H10A 1_555 1_555
C8A C4A 1_555 1_555
C9A C7A 1_555 1_555
C10A C8A 1_555 1_555
H11A C8A 1_555 1_555
H12A C9A 1_555 1_555
C11A C11 1_555 1_555
H13A C10A 1_555 1_555
O4A C2A 1_555 1_555
O3A Sm1 1_555 1_555
O1A Sm1 1_555 1_555
C1A O1A 1_555 1_555
N2A C1A 1_555 1_555
C3A C1A 1_555 1_555
C5A N2A 1_555 1_555
C6A N2A 1_555 1_555
H1A C3A 1_555 1_555
H2A C3A 1_555 1_555
H3A C3A 1_555 1_555
H4A C5A 1_555 1_555
H5A C5A 1_555 1_555
H6A C5A 1_555 1_555
H7A C6A 1_555 1_555
H8A C6A 1_555 1_555
H9A C6A 1_555 1_555
Sm1_2 O2A 1_555 1_555
Sm1D O4A 1_555 1_555
Sm1D_2 O4 1_555 1_555
O2A_2 Sm1 1_555 1_555
O4D Sm1 1_555 1_555
O4E Sm1 1_555 1_555
N1 O3A 1_555 1_555
C10 C11 1_555 1_555
C9A C11A 1_555 1_555
C10A C11A 1_555 1_555

#END
