
#######################################################################
#
#                 Cambridge Crystallographic Data Centre
#                                CCDC 
#
#######################################################################
#
# If this CIF has been generated from an entry in the Cambridge 
# Structural Database, then it will include bibliographic, chemical, 
# crystal, experimental, refinement or atomic coordinate data resulting 
# from the CCDC's data processing and validation procedures.
#
#######################################################################

data_XUGBOS
_symmetry_cell_setting           monoclinic
_symmetry_space_group_name_H-M   'C 2/c'
_symmetry_Int_Tables_number      15
_space_group_name_Hall           '-C 2yn'
loop_
_symmetry_equiv_pos_site_id
_symmetry_equiv_pos_as_xyz
1 x,y,z
2 -x,y,1/2-z
3 1/2+x,1/2+y,z
4 1/2-x,1/2+y,1/2-z
5 -x,-y,-z
6 x,-y,1/2+z
7 1/2-x,1/2-y,-z
8 1/2+x,1/2-y,1/2+z
_cell_length_a                   16.148(5)
_cell_length_b                   18.624(5)
_cell_length_c                   9.569(4)
_cell_angle_alpha                90
_cell_angle_beta                 122.670(5)
_cell_angle_gamma                90
_cell_volume                     2422.5
loop_
_atom_site_label
_atom_site_type_symbol
_atom_site_fract_x
_atom_site_fract_y
_atom_site_fract_z
Pr1 Pr -0.5000 -0.435897(15) -0.7500
C1 C -0.2100(3) -0.2688(2) -0.1523(5)
H1 H -0.2546 -0.2521 -0.1222
H2 H -0.1861 -0.2287 -0.1836
H3 H -0.1556 -0.2930 -0.0593
O1 O -0.37492(15) -0.55830(13) -0.3147(3)
O2 O -0.41930(15) -0.53813(15) -0.5760(2)
C2 C -0.2511(2) -0.56407(17) -0.3755(3)
C3 C -0.05184(19) -0.57682(16) -0.2762(3)
C4 C -0.3563(2) -0.55264(18) -0.4262(3)
C5 C -0.1253(2) -0.55541(19) -0.4380(4)
H4 H -0.1079 -0.5449 -0.5139
C6 C -0.1800(2) -0.5875(2) -0.2182(3)
H5 H -0.1982 -0.5992 -0.1438
C7 C -0.0821(2) -0.5942(2) -0.1685(3)
H6 H -0.0361 -0.6104 -0.0619
C8 C -0.2229(2) -0.54966(19) -0.4869(3)
H7 H -0.2701 -0.5361 -0.5951
O3 O -0.38118(17) -0.39414(16) -0.4732(3)
O4 O -0.5588(2) -0.30821(18) -0.7272(4)
C9 C -0.4183(3) -0.3188(3) -0.3043(5)
H8 H -0.3859 -0.2824 -0.2206
H9 H -0.4342 -0.3588 -0.2597
H10 H -0.4776 -0.2995 -0.3978
N1 N -0.2637(3) -0.3211(2) -0.2988(5)
C10 C -0.2030(3) -0.3515(3) -0.3583(5)
H11 H -0.2419 -0.3847 -0.4471
H12 H -0.1473 -0.3762 -0.2686
H13 H -0.1806 -0.3135 -0.3975
C11 C -0.3451(4) -0.3455(3) -0.3636(5)
N2 N -0.5000 -0.2760(3) -0.7500
O5 O -0.5000 -0.2078(3) -0.7500
O1A O 0.37492(15) -0.55830(13) -0.1853(3)
O2A O 0.41930(15) -0.53813(15) 0.0760(2)
C2A C 0.2511(2) -0.56407(17) -0.1245(3)
C3A C 0.05184(19) -0.57682(16) -0.2238(3)
C4A C 0.3563(2) -0.55264(18) -0.0738(3)
C5A C 0.1253(2) -0.55541(19) -0.0620(4)
H4A H 0.1079 -0.5449 0.0139
C6A C 0.1800(2) -0.5875(2) -0.2818(3)
H5A H 0.1982 -0.5992 -0.3562
C7A C 0.0821(2) -0.5942(2) -0.3315(3)
H6A H 0.0361 -0.6104 -0.4381
C8A C 0.2229(2) -0.54966(19) -0.0131(3)
H7A H 0.2701 -0.5361 0.0951
O4A O -0.4412(2) -0.30821(18) -0.7728(4)
C1A C -0.7900(3) -0.2688(2) -1.3477(5)
H1A H -0.7454 -0.2521 -1.3778
H2A H -0.8139 -0.2287 -1.3164
H3A H -0.8444 -0.2930 -1.4407
O3A O -0.61882(17) -0.39414(16) -1.0268(3)
C9A C -0.5817(3) -0.3188(3) -1.1957(5)
H8A H -0.6141 -0.2824 -1.2794
H9A H -0.5658 -0.3588 -1.2403
H10A H -0.5224 -0.2995 -1.1022
N1A N -0.7363(3) -0.3211(2) -1.2012(5)
C10A C -0.7970(3) -0.3515(3) -1.1417(5)
H11A H -0.7581 -0.3847 -1.0529
H12A H -0.8527 -0.3762 -1.2314
H13A H -0.8194 -0.3135 -1.1025
C11A C -0.6549(4) -0.3455(3) -1.1364(5)
Pr1_2 Pr 0.5000 -0.435897(15) 0.2500
Pr1D Pr -0.5000 -0.564103(15) -0.2500
Pr1D_2 Pr 0.5000 -0.564103(15) -0.2500
O1D O -0.62508(15) -0.44170(13) -0.6853(3)
O1E O -0.37492(15) -0.44170(13) -0.8147(3)
O2A_2 O -0.58070(15) -0.53813(15) -0.9240(2)
loop_
_geom_bond_atom_site_label_1
_geom_bond_atom_site_label_2
_geom_bond_site_symmetry_1
_geom_bond_site_symmetry_2
Pr1 O2 1_555 1_555
C1 H1 1_555 1_555
H2 C1 1_555 1_555
H3 C1 1_555 1_555
O1 C4 1_555 1_555
O2 C4 1_555 1_555
C2 C4 1_555 1_555
C3 C5 1_555 1_555
C5 H4 1_555 1_555
C6 C2 1_555 1_555
H5 C6 1_555 1_555
C7 C3 1_555 1_555
H6 C7 1_555 1_555
C8 C2 1_555 1_555
H7 C8 1_555 1_555
O3 Pr1 1_555 1_555
O4 Pr1 1_555 1_555
C9 H8 1_555 1_555
H9 C9 1_555 1_555
H10 C9 1_555 1_555
N1 C1 1_555 1_555
C10 N1 1_555 1_555
H11 C10 1_555 1_555
H12 C10 1_555 1_555
H13 C10 1_555 1_555
C11 O3 1_555 1_555
N2 O4 1_555 1_555
O5 N2 1_555 1_555
O1A C4A 1_555 1_555
O2A C4A 1_555 1_555
C2A C4A 1_555 1_555
C3A C3 1_555 1_555
C5A C3A 1_555 1_555
H4A C5A 1_555 1_555
C6A C2A 1_555 1_555
H5A C6A 1_555 1_555
C7A C3A 1_555 1_555
H6A C7A 1_555 1_555
C8A C2A 1_555 1_555
H7A C8A 1_555 1_555
O4A Pr1 1_555 1_555
C1A H1A 1_555 1_555
H2A C1A 1_555 1_555
H3A C1A 1_555 1_555
O3A Pr1 1_555 1_555
C9A H8A 1_555 1_555
H9A C9A 1_555 1_555
H10A C9A 1_555 1_555
N1A C1A 1_555 1_555
C10A N1A 1_555 1_555
H11A C10A 1_555 1_555
H12A C10A 1_555 1_555
H13A C10A 1_555 1_555
C11A O3A 1_555 1_555
Pr1_2 O2A 1_555 1_555
Pr1D O1 1_555 1_555
Pr1D_2 O1A 1_555 1_555
O1D Pr1 1_555 1_555
O1E Pr1 1_555 1_555
O2A_2 Pr1 1_555 1_555
C5 C8 1_555 1_555
C6 C7 1_555 1_555
C9 C11 1_555 1_555
N1 C11 1_555 1_555
N2 O4A 1_555 1_555
C5A C8A 1_555 1_555
C6A C7A 1_555 1_555
C9A C11A 1_555 1_555
N1A C11A 1_555 1_555

#END
