
#######################################################################
#
#                 Cambridge Crystallographic Data Centre
#                                CCDC 
#
#######################################################################
#
# If this CIF has been generated from an entry in the Cambridge 
# Structural Database, then it will include bibliographic, chemical, 
# crystal, experimental, refinement or atomic coordinate data resulting 
# from the CCDC's data processing and validation procedures.
#
#######################################################################

data_XUGDIN
_symmetry_cell_setting           monoclinic
_symmetry_space_group_name_H-M   'P 21/n'
_symmetry_Int_Tables_number      14
_space_group_name_Hall           '-P 2yn'
loop_
_symmetry_equiv_pos_site_id
_symmetry_equiv_pos_as_xyz
1 x,y,z
2 1/2-x,1/2+y,1/2-z
3 -x,-y,-z
4 1/2+x,1/2-y,1/2+z
_cell_length_a                   7.7474(3)
_cell_length_b                   10.7638(3)
_cell_length_c                   23.7613(6)
_cell_angle_alpha                90
_cell_angle_beta                 93.306(2)
_cell_angle_gamma                90
_cell_volume                     1978.19
loop_
_atom_site_label
_atom_site_type_symbol
_atom_site_fract_x
_atom_site_fract_y
_atom_site_fract_z
Zn1 Zn 0.71805(10) 0.91203(7) 0.84816(3)
O1 O 0.9724(6) 0.8523(5) 0.8460(2)
O2 O 1.1647(7) 0.7193(6) 0.8183(3)
O3 O 1.1869(7) 0.5615(6) 0.7486(3)
O4 O 1.0244(6) 0.4626(5) 0.68479(19)
N1 N 0.7120(7) 0.7473(5) 0.7912(2)
N2 N 0.7354(7) 0.5525(5) 0.7172(2)
N3 N 0.6216(7) 0.8140(5) 0.9166(2)
N4 N 0.7850(7) 1.0342(5) 0.9165(2)
C1 C 1.0120(9) 0.7609(7) 0.8176(3)
C2 C 0.8669(8) 0.6978(6) 0.7820(3)
C3 C 0.8794(8) 0.6000(6) 0.7436(3)
C4 C 1.0429(8) 0.5366(6) 0.7238(3)
C5 C 0.5837(8) 0.5991(7) 0.7290(3)
H1 H 0.4833 0.5637 0.7128
C6 C 0.5712(8) 0.6996(7) 0.7651(3)
H2 H 0.4635 0.7337 0.7711
C7 C 0.5344(10) 0.7079(7) 0.9155(3)
H3 H 0.5072 0.6703 0.8809
C8 C 0.4820(11) 0.6506(7) 0.9646(3)
H4 H 0.4200 0.5766 0.9624
C9 C 0.5226(10) 0.7041(7) 1.0157(3)
H5 H 0.4908 0.6658 1.0486
C10 C 0.6125(9) 0.8171(7) 1.0183(3)
C11 C 0.6552(10) 0.8836(8) 1.0700(3)
H6 H 0.6243 0.8498 1.1040
C12 C 0.7377(9) 0.9920(8) 1.0702(3)
H7 H 0.7637 1.0322 1.1043
C13 C 0.7873(9) 1.0479(7) 1.0188(3)
C14 C 0.8714(10) 1.1615(7) 1.0162(3)
H8 H 0.9005 1.2050 1.0492
C15 C 0.9114(10) 1.2091(7) 0.9658(3)
H9 H 0.9691 1.2847 0.9642
C16 C 0.8655(10) 1.1440(7) 0.9164(3)
H10 H 0.8919 1.1784 0.8820
C17 C 0.7458(8) 0.9864(6) 0.9673(3)
C18 C 0.6594(8) 0.8699(6) 0.9673(3)
Zn1A Zn 0.78195(10) 0.41203(7) 0.65184(3)
O4A O 0.4756(6) 0.9626(5) 0.81521(19)
N2A N 0.7646(7) 1.0525(5) 0.7828(2)
O5 O 0.799(3) 0.888(2) 0.6624(9)
O6 O 1.282(4) 0.884(3) 0.6472(14)
O7 O 0.032(3) 0.460(3) 0.0726(11)
O8 O 1.019(3) 0.832(2) 0.6782(9)
loop_
_geom_bond_atom_site_label_1
_geom_bond_atom_site_label_2
_geom_bond_site_symmetry_1
_geom_bond_site_symmetry_2
Zn1 O1 1_555 1_555
O1 C1 1_555 1_555
O2 C1 1_555 1_555
O3 C4 1_555 1_555
O4 C4 1_555 1_555
N1 Zn1 1_555 1_555
N2 C3 1_555 1_555
N3 Zn1 1_555 1_555
N4 Zn1 1_555 1_555
C1 C2 1_555 1_555
C2 N1 1_555 1_555
C3 C2 1_555 1_555
C4 C3 1_555 1_555
C5 N2 1_555 1_555
H1 C5 1_555 1_555
C6 N1 1_555 1_555
H2 C6 1_555 1_555
C7 N3 1_555 1_555
H3 C7 1_555 1_555
C8 C7 1_555 1_555
H4 C8 1_555 1_555
C9 C8 1_555 1_555
H5 C9 1_555 1_555
C10 C9 1_555 1_555
C11 C10 1_555 1_555
H6 C11 1_555 1_555
C12 C11 1_555 1_555
H7 C12 1_555 1_555
C13 C12 1_555 1_555
C14 C13 1_555 1_555
H8 C14 1_555 1_555
C15 C14 1_555 1_555
H9 C15 1_555 1_555
C16 N4 1_555 1_555
H10 C16 1_555 1_555
C17 N4 1_555 1_555
C18 N3 1_555 1_555
Zn1A O4 1_555 1_555
O4A Zn1 1_555 1_555
N2A Zn1 1_555 1_555
N2 Zn1A 1_555 1_555
C5 C6 1_555 1_555
C10 C18 1_555 1_555
C13 C17 1_555 1_555
C15 C16 1_555 1_555
C17 C18 1_555 1_555

#END
