
#######################################################################
#
#                 Cambridge Crystallographic Data Centre
#                                CCDC 
#
#######################################################################
#
# If this CIF has been generated from an entry in the Cambridge 
# Structural Database, then it will include bibliographic, chemical, 
# crystal, experimental, refinement or atomic coordinate data resulting 
# from the CCDC's data processing and validation procedures.
#
#######################################################################

data_XUGFAI
_symmetry_cell_setting           monoclinic
_symmetry_space_group_name_H-M   'P 21/c'
_symmetry_Int_Tables_number      14
_space_group_name_Hall           '-P 2ybc'
loop_
_symmetry_equiv_pos_site_id
_symmetry_equiv_pos_as_xyz
1 x,y,z
2 -x,1/2+y,1/2-z
3 -x,-y,-z
4 x,1/2-y,1/2+z
_cell_length_a                   8.7566(10)
_cell_length_b                   8.2814(9)
_cell_length_c                   19.113(2)
_cell_angle_alpha                90
_cell_angle_beta                 90.3790(10)
_cell_angle_gamma                90
_cell_volume                     1385.99
loop_
_atom_site_label
_atom_site_type_symbol
_atom_site_fract_x
_atom_site_fract_y
_atom_site_fract_z
C1 C 1.1828(4) 0.0865(4) 0.32920(18)
C2 C 1.3007(4) 0.0846(5) 0.3857(2)
H1 H 1.3417 0.1927 0.3913
H2 H 1.3838 0.0145 0.3718
C3 C 1.2389(5) 0.0268(5) 0.4560(2)
H3 H 1.1584 -0.0508 0.4467
H4 H 1.3204 -0.0303 0.4801
C4 C 1.1771(4) 0.1516(5) 0.50511(19)
C5 C 0.6332(4) 0.3818(4) 0.37191(17)
C6 C 0.5671(4) 0.4500(4) 0.43737(17)
C7 C 0.6318(4) 0.4078(4) 0.50124(17)
H5 H 0.7208 0.3465 0.5023
C8 C 0.4347(4) 0.5440(4) 0.43647(17)
C9 C 0.3656(4) 0.6054(4) 0.37063(17)
Cd1 Cd 1.02050(3) 0.42254(3) 0.387629(13)
Cd2 Cd 0.73393(3) 0.22939(3) 0.254137(12)
N1 N 1.0688(3) 0.1936(4) 0.32550(15)
N2 N 0.9864(3) 0.1503(4) 0.26911(15)
N3 N 1.0476(3) 0.0259(4) 0.23962(15)
N4 N 1.1704(3) -0.0194(4) 0.27714(15)
N5 N 1.1008(3) 0.2882(4) 0.48989(15)
N6 N 1.0674(4) 0.3526(4) 0.55313(16)
N7 N 1.1235(5) 0.2604(5) 0.60255(19)
N8 N 1.1927(5) 0.1338(5) 0.57341(17)
O1 O 0.5471(3) 0.3633(3) 0.31992(12)
O2 O 0.7705(2) 0.3325(3) 0.37262(12)
O3 O 0.4402(3) 0.7026(3) 0.33405(13)
O4 O 0.2298(3) 0.5654(3) 0.35362(13)
O5 O 0.6548(3) -0.0068(4) 0.30540(16)
H6 H 0.6867 -0.0374 0.3434
H7 H 0.6303 -0.0830 0.2805
C5B C 0.3668(4) 0.6182(4) 0.62809(17)
C6B C 0.4329(4) 0.5500(4) 0.56263(17)
C7B C 0.3682(4) 0.5922(4) 0.49876(17)
H5B H 0.2792 0.6535 0.4977
C8B C 0.5653(4) 0.4560(4) 0.56353(17)
C9B C 0.6344(4) 0.3946(4) 0.62937(17)
O1B O 0.4529(3) 0.6367(3) 0.68008(12)
O2B O 0.2295(2) 0.6675(3) 0.62738(12)
O3B O 0.5598(3) 0.2974(3) 0.66595(13)
O4B O 0.7702(3) 0.4346(3) 0.64638(13)
C1B C -0.1828(4) 0.9135(4) 0.67080(18)
C2B C -0.3007(4) 0.9154(5) 0.6143(2)
H1B H -0.3417 0.8073 0.6087
H2B H -0.3838 0.9855 0.6282
C3B C -0.2389(5) 0.9732(5) 0.5440(2)
H3B H -0.1584 1.0508 0.5533
H4B H -0.3204 1.0303 0.5199
C4B C -0.1771(4) 0.8484(5) 0.49489(19)
Cd1B Cd -0.02050(3) 0.57746(3) 0.612371(13)
Cd2B Cd 0.26607(3) 0.77061(3) 0.745863(12)
N1B N -0.0688(3) 0.8064(4) 0.67450(15)
N2B N 0.0136(3) 0.8497(4) 0.73089(15)
N3B N -0.0476(3) 0.9741(4) 0.76038(15)
N4B N -0.1704(3) 1.0194(4) 0.72286(15)
N5B N -0.1008(3) 0.7118(4) 0.51011(15)
N6B N -0.0674(4) 0.6474(4) 0.44687(16)
N7B N -0.1235(5) 0.7396(5) 0.39745(19)
N8B N -0.1927(5) 0.8662(5) 0.42659(17)
O5B O 0.3452(3) 1.0068(4) 0.69460(16)
H6B H 0.3133 1.0374 0.6566
H7B H 0.3697 1.0830 0.7195
Cd1_2 Cd 0.02050(3) 0.42254(3) 0.387629(13)
Cd1A Cd 0.97950(3) -0.07746(3) 0.112371(13)
Cd1B_2 Cd 0.97950(3) 0.57746(3) 0.612371(13)
Cd1C Cd 0.02050(3) 1.07746(3) 0.887629(13)
Cd2A Cd 0.26607(3) 0.72939(3) 0.245863(12)
Cd2A_2 Cd 1.26607(3) -0.27061(3) 0.245863(12)
Cd2C Cd -0.26607(3) 1.27061(3) 0.754137(12)
Cd2C_2 Cd 0.73393(3) 0.27061(3) 0.754137(12)
N3A N 0.9524(3) 0.5259(4) 0.26038(15)
N3C N 0.0476(3) 0.4741(4) 0.73962(15)
N4A N 0.8296(3) 0.4806(4) 0.22286(15)
N4C N 0.1704(3) 0.5194(4) 0.77714(15)
N6_2 N 0.0674(4) 0.3526(4) 0.55313(16)
N6B_2 N 0.9326(4) 0.6474(4) 0.44687(16)
O3A O 0.5598(3) 0.2026(3) 0.16595(13)
O3C O 0.4402(3) 0.7974(3) 0.83405(13)
O4_2 O 1.2298(3) 0.5654(3) 0.35362(13)
O4A O 0.7702(3) 0.0654(3) 0.14638(13)
O4B_2 O -0.2298(3) 0.4346(3) 0.64638(13)
O4C O 0.2298(3) 0.9346(3) 0.85362(13)
loop_
_geom_bond_atom_site_label_1
_geom_bond_atom_site_label_2
_geom_bond_site_symmetry_1
_geom_bond_site_symmetry_2
C1 C2 1_555 1_555
C2 H1 1_555 1_555
H2 C2 1_555 1_555
C3 C2 1_555 1_555
H3 C3 1_555 1_555
H4 C3 1_555 1_555
C4 C3 1_555 1_555
C5 C6 1_555 1_555
C6 C7 1_555 1_555
C7 H5 1_555 1_555
C8 C6 1_555 1_555
C9 C8 1_555 1_555
Cd1 N1 1_555 1_555
Cd2 N2 1_555 1_555
N1 C1 1_555 1_555
N2 N1 1_555 1_555
N3 N2 1_555 1_555
N4 C1 1_555 1_555
N5 C4 1_555 1_555
N6 N5 1_555 1_555
N7 N6 1_555 1_555
N8 C4 1_555 1_555
O1 C5 1_555 1_555
O2 C5 1_555 1_555
O3 C9 1_555 1_555
O4 C9 1_555 1_555
O5 Cd2 1_555 1_555
H6 O5 1_555 1_555
H7 O5 1_555 1_555
C5B C6B 1_555 1_555
C6B C7B 1_555 1_555
C7B C8 1_555 1_555
H5B C7B 1_555 1_555
C8B C7 1_555 1_555
C9B C8B 1_555 1_555
O1B C5B 1_555 1_555
O2B C5B 1_555 1_555
O3B C9B 1_555 1_555
O4B C9B 1_555 1_555
C1B C2B 1_555 1_555
C2B H1B 1_555 1_555
H2B C2B 1_555 1_555
C3B C2B 1_555 1_555
H3B C3B 1_555 1_555
H4B C3B 1_555 1_555
C4B C3B 1_555 1_555
Cd1B O2B 1_555 1_555
Cd2B O1B 1_555 1_555
N1B C1B 1_555 1_555
N2B Cd2B 1_555 1_555
N3B N2B 1_555 1_555
N4B C1B 1_555 1_555
N5B C4B 1_555 1_555
N6B N5B 1_555 1_555
N7B N6B 1_555 1_555
N8B C4B 1_555 1_555
O5B Cd2B 1_555 1_555
H6B O5B 1_555 1_555
H7B O5B 1_555 1_555
Cd1_2 O4 1_555 1_555
Cd1A N3 1_555 1_555
Cd1B_2 N6 1_555 1_555
Cd1C N3B 1_555 1_555
Cd2A O3 1_555 1_555
Cd2A_2 N4 1_555 1_555
Cd2C N4B 1_555 1_555
Cd2C_2 O3B 1_555 1_555
N3A Cd1 1_555 1_555
N3C Cd1B 1_555 1_555
N4A Cd2 1_555 1_555
N4C Cd2B 1_555 1_555
N6_2 Cd1B 1_555 1_555
N6B_2 Cd1 1_555 1_555
O3A Cd2 1_555 1_555
O3C Cd2B 1_555 1_555
O4_2 Cd1 1_555 1_555
O4A Cd2 1_555 1_555
O4B_2 Cd1B 1_555 1_555
O4C Cd2B 1_555 1_555
Cd1 N5 1_555 1_555
Cd1 O2 1_555 1_555
Cd2 O1 1_555 1_555
Cd2 O2 1_555 1_555
N3 N4 1_555 1_555
N7 N8 1_555 1_555
O4 Cd2A 1_555 1_555
C6B C8B 1_555 1_555
O2B Cd2B 1_555 1_555
O4B Cd1B_2 1_555 1_555
O4B Cd2C_2 1_555 1_555
Cd1B N1B 1_555 1_555
Cd1B N5B 1_555 1_555
N1B N2B 1_555 1_555
N3B N4B 1_555 1_555
N6B Cd1_2 1_555 1_555
N7B N8B 1_555 1_555
Cd1A O4A 1_555 1_555
Cd1C O4C 1_555 1_555
N3A N4A 1_555 1_555
N3C N4C 1_555 1_555

#END
