
#######################################################################
#
#                 Cambridge Crystallographic Data Centre
#                                CCDC 
#
#######################################################################
#
# If this CIF has been generated from an entry in the Cambridge 
# Structural Database, then it will include bibliographic, chemical, 
# crystal, experimental, refinement or atomic coordinate data resulting 
# from the CCDC's data processing and validation procedures.
#
#######################################################################

data_XUGFEM
_symmetry_cell_setting           orthorhombic
_symmetry_space_group_name_H-M   'P b c a'
_symmetry_Int_Tables_number      61
_space_group_name_Hall           '-P 2ac 2ab'
loop_
_symmetry_equiv_pos_site_id
_symmetry_equiv_pos_as_xyz
1 x,y,z
2 1/2-x,-y,1/2+z
3 -x,1/2+y,1/2-z
4 1/2+x,1/2-y,-z
5 -x,-y,-z
6 1/2+x,y,1/2-z
7 x,1/2-y,1/2+z
8 1/2-x,1/2+y,z
_cell_length_a                   9.7636(15)
_cell_length_b                   16.297(2)
_cell_length_c                   19.006(3)
_cell_angle_alpha                90
_cell_angle_beta                 90
_cell_angle_gamma                90
_cell_volume                     3024.19
loop_
_atom_site_label
_atom_site_type_symbol
_atom_site_fract_x
_atom_site_fract_y
_atom_site_fract_z
C1 C -0.0193(5) 0.0182(3) 0.3787(3)
H1 H -0.0231 0.0121 0.4273
C2 C -0.1007(6) -0.0315(3) 0.3379(3)
H2 H -0.1584 -0.0702 0.3582
C3 C -0.0942(6) -0.0222(4) 0.2666(3)
H3 H -0.1473 -0.0551 0.2374
C4 C -0.0087(6) 0.0359(3) 0.2382(3)
H4 H -0.0038 0.0423 0.1897
C5 C 0.0701(5) 0.0848(3) 0.2817(2)
C6 C 0.1611(5) 0.1508(3) 0.2552(2)
C7 C 0.1654(7) 0.1723(4) 0.1845(3)
H5 H 0.1104 0.1449 0.1521
C8 C 0.2505(7) 0.2340(4) 0.1625(3)
H6 H 0.2545 0.2481 0.1151
C9 C 0.3286(6) 0.2741(4) 0.2101(3)
H7 H 0.3873 0.3160 0.1962
C10 C 0.3191(5) 0.2514(3) 0.2795(3)
H8 H 0.3722 0.2794 0.3123
C11 C 0.0049(4) 0.2825(2) 0.4910(2)
C12 C 0.0508(5) 0.3583(3) 0.4528(2)
H9 H -0.0289 0.3882 0.4362
H10 H 0.1047 0.3426 0.4121
C13 C 0.1357(4) 0.4136(2) 0.4999(2)
H11 H 0.0830 0.4258 0.5419
H12 H 0.2168 0.3837 0.5146
C14 C 0.1803(4) 0.4934(2) 0.4671(2)
Cd1 Cd 0.22707(3) 0.142056(18) 0.421022(15)
N1 N 0.0650(4) 0.0748(2) 0.35217(18)
N2 N 0.2376(4) 0.1911(2) 0.30248(19)
N3 N 0.0608(3) 0.2090(2) 0.48315(18)
N4 N -0.0073(4) 0.1585(2) 0.5274(2)
N5 N -0.0994(4) 0.2007(2) 0.5609(2)
N6 N -0.0939(4) 0.2800(2) 0.53906(19)
O1 O 0.1410(3) 0.51284(19) 0.40644(16)
O2 O 0.2543(3) 0.54024(19) 0.50335(17)
Cd1C Cd -0.27293(3) 0.357944(18) 0.578978(15)
Cd1G Cd 0.27293(3) 0.642056(18) 0.421022(15)
N6C N 0.4061(4) 0.2200(2) 0.46094(19)
O1G O 0.3590(3) 0.01284(19) 0.40644(16)
O2G O 0.2457(3) 0.04024(19) 0.50335(17)
loop_
_geom_bond_atom_site_label_1
_geom_bond_atom_site_label_2
_geom_bond_site_symmetry_1
_geom_bond_site_symmetry_2
C1 H1 1_555 1_555
C2 C1 1_555 1_555
H2 C2 1_555 1_555
C3 C2 1_555 1_555
H3 C3 1_555 1_555
C4 C3 1_555 1_555
H4 C4 1_555 1_555
C5 C4 1_555 1_555
C6 C5 1_555 1_555
C7 C6 1_555 1_555
H5 C7 1_555 1_555
C8 C7 1_555 1_555
H6 C8 1_555 1_555
C9 C8 1_555 1_555
H7 C9 1_555 1_555
C10 C9 1_555 1_555
H8 C10 1_555 1_555
C11 C12 1_555 1_555
C12 H9 1_555 1_555
H10 C12 1_555 1_555
C13 C12 1_555 1_555
H11 C13 1_555 1_555
H12 C13 1_555 1_555
C14 C13 1_555 1_555
Cd1 N1 1_555 1_555
N1 C1 1_555 1_555
N2 C6 1_555 1_555
N3 C11 1_555 1_555
N4 N3 1_555 1_555
N5 N4 1_555 1_555
N6 C11 1_555 1_555
O1 C14 1_555 1_555
O2 C14 1_555 1_555
Cd1C N6 1_555 1_555
Cd1G O1 1_555 1_555
N6C Cd1 1_555 1_555
O1G Cd1 1_555 1_555
O2G Cd1 1_555 1_555
C5 N1 1_555 1_555
C10 N2 1_555 1_555
Cd1 N2 1_555 1_555
Cd1 N3 1_555 1_555
N5 N6 1_555 1_555
O2 Cd1G 1_555 1_555

#END
