
#######################################################################
#
#                 Cambridge Crystallographic Data Centre
#                                CCDC 
#
#######################################################################
#
# If this CIF has been generated from an entry in the Cambridge 
# Structural Database, then it will include bibliographic, chemical, 
# crystal, experimental, refinement or atomic coordinate data resulting 
# from the CCDC's data processing and validation procedures.
#
#######################################################################

data_XUGHIS
_symmetry_cell_setting           monoclinic
_symmetry_space_group_name_H-M   'C 2/c'
_symmetry_Int_Tables_number      15
_space_group_name_Hall           '-C 2yn'
loop_
_symmetry_equiv_pos_site_id
_symmetry_equiv_pos_as_xyz
1 x,y,z
2 -x,y,1/2-z
3 1/2+x,1/2+y,z
4 1/2-x,1/2+y,1/2-z
5 -x,-y,-z
6 x,-y,1/2+z
7 1/2-x,1/2-y,-z
8 1/2+x,1/2-y,1/2+z
_cell_length_a                   19.614(5)
_cell_length_b                   9.209(3)
_cell_length_c                   14.988(4)
_cell_angle_alpha                90
_cell_angle_beta                 108.403(6)
_cell_angle_gamma                90
_cell_volume                     2568.76
loop_
_atom_site_label
_atom_site_type_symbol
_atom_site_fract_x
_atom_site_fract_y
_atom_site_fract_z
Co1 Co 0.0000 0.29859(9) 0.2500
N1 N 0.06377(17) 0.4450(4) 0.3428(2)
N2 N 0.1171(2) 0.6477(4) 0.4049(3)
O1 O 0.04722(15) 0.2119(3) 0.1608(2)
O2 O 0.09599(16) 0.1132(3) 0.2992(2)
C1 C 0.0905(2) 0.1221(5) 0.2151(3)
C2 C 0.2004(2) -0.0232(4) 0.2237(3)
H1 H 0.2198 0.0026 0.2866
C3 C 0.2397(2) -0.1104(5) 0.1820(3)
H2 H 0.2851 -0.1425 0.2176
C4 C 0.2122(2) -0.1504(4) 0.0880(3)
C5 C 0.1435(2) -0.1046(5) 0.0376(3)
H3 H 0.1232 -0.1325 -0.0248
C6 C 0.2572(2) -0.2342(5) 0.0445(3)
H4 H 0.3006 -0.2685 0.0847
C7 C 0.0659(2) 0.4533(5) 0.4357(3)
H5 H 0.0474 0.3837 0.4668
C8 C 0.0983(2) 0.5762(5) 0.4741(3)
H6 H 0.1066 0.6072 0.5357
C9 C 0.0942(2) 0.5669(5) 0.3271(3)
C10 C 0.1016(2) 0.6092(5) 0.2351(3)
H7 H 0.0933 0.5261 0.1944
H8 H 0.1493 0.6456 0.2444
H9 H 0.0672 0.6834 0.2069
C11 C 0.1532(2) 0.7884(5) 0.4162(3)
H10 H 0.1372 0.8468 0.4596
H11 H 0.1388 0.8379 0.3559
C12 C 0.2345(3) 0.7791(5) 0.4519(3)
H12 H 0.2502 0.7185 0.4092
H13 H 0.2539 0.8756 0.4501
C13 C 0.1334(2) 0.0250(4) 0.1724(3)
C14 C 0.1049(2) -0.0180(5) 0.0795(3)
H14 H 0.0590 0.0121 0.0447
N1F N 0.43623(17) 1.0550(4) 0.6572(2)
N2F N 0.3829(2) 0.8523(4) 0.5951(3)
C7F C 0.4341(2) 1.0467(5) 0.5643(3)
H5F H 0.4526 1.1163 0.5332
C8F C 0.4017(2) 0.9238(5) 0.5259(3)
H6F H 0.3934 0.8928 0.4643
C9F C 0.4058(2) 0.9331(5) 0.6729(3)
C10F C 0.3984(2) 0.8908(5) 0.7649(3)
H7F H 0.4067 0.9739 0.8056
H8F H 0.3507 0.8544 0.7556
H9F H 0.4328 0.8166 0.7931
C11F C 0.3468(2) 0.7116(5) 0.5838(3)
H10F H 0.3628 0.6532 0.5404
H11F H 0.3612 0.6621 0.6441
C12F C 0.2655(3) 0.7209(5) 0.5481(3)
H12F H 0.2498 0.7815 0.5908
H13F H 0.2461 0.6244 0.5499
O1F O 0.45278(15) -0.7119(3) -0.1608(2)
O2F O 0.40401(16) -0.6132(3) -0.2992(2)
C1F C 0.4095(2) -0.6221(5) -0.2151(3)
C2F C 0.2996(2) -0.4768(4) -0.2237(3)
H1F H 0.2802 -0.5026 -0.2866
C3F C 0.2603(2) -0.3896(5) -0.1820(3)
H2F H 0.2149 -0.3575 -0.2176
C4F C 0.2878(2) -0.3496(4) -0.0880(3)
C5F C 0.3565(2) -0.3954(5) -0.0376(3)
H3F H 0.3768 -0.3675 0.0248
C6F C 0.2428(2) -0.2658(5) -0.0445(3)
H4F H 0.1994 -0.2315 -0.0847
C13F C 0.3666(2) -0.5250(4) -0.1724(3)
C14F C 0.3951(2) -0.4820(5) -0.0795(3)
H14F H 0.4410 -0.5121 -0.0447
Co1F Co 0.5000 -0.79859(9) -0.2500
Co1F_2 Co 0.5000 1.20141(9) 0.7500
N1A N -0.06377(17) 0.4450(4) 0.1572(2)
O1A O -0.04722(15) 0.2119(3) 0.3392(2)
loop_
_geom_bond_atom_site_label_1
_geom_bond_atom_site_label_2
_geom_bond_site_symmetry_1
_geom_bond_site_symmetry_2
Co1 N1 1_555 1_555
N1 C7 1_555 1_555
N2 C8 1_555 1_555
O1 Co1 1_555 1_555
O2 C1 1_555 1_555
C1 O1 1_555 1_555
C2 H1 1_555 1_555
C3 C2 1_555 1_555
H2 C3 1_555 1_555
C4 C3 1_555 1_555
C5 C4 1_555 1_555
H3 C5 1_555 1_555
C6 C4 1_555 1_555
H4 C6 1_555 1_555
C7 H5 1_555 1_555
C8 C7 1_555 1_555
H6 C8 1_555 1_555
C9 N1 1_555 1_555
C10 C9 1_555 1_555
H7 C10 1_555 1_555
H8 C10 1_555 1_555
H9 C10 1_555 1_555
C11 N2 1_555 1_555
H10 C11 1_555 1_555
H11 C11 1_555 1_555
C12 C11 1_555 1_555
H12 C12 1_555 1_555
H13 C12 1_555 1_555
C13 C1 1_555 1_555
C14 C5 1_555 1_555
H14 C14 1_555 1_555
N1F C7F 1_555 1_555
N2F C8F 1_555 1_555
C7F H5F 1_555 1_555
C8F C7F 1_555 1_555
H6F C8F 1_555 1_555
C9F N1F 1_555 1_555
C10F C9F 1_555 1_555
H7F C10F 1_555 1_555
H8F C10F 1_555 1_555
H9F C10F 1_555 1_555
C11F N2F 1_555 1_555
H10F C11F 1_555 1_555
H11F C11F 1_555 1_555
C12F C12 1_555 1_555
H12F C12F 1_555 1_555
H13F C12F 1_555 1_555
O1F C1F 1_555 1_555
O2F C1F 1_555 1_555
C1F C13F 1_555 1_555
C2F H1F 1_555 1_555
C3F C2F 1_555 1_555
H2F C3F 1_555 1_555
C4F C3F 1_555 1_555
C5F C4F 1_555 1_555
H3F C5F 1_555 1_555
C6F C6 1_555 1_555
H4F C6F 1_555 1_555
C13F C2F 1_555 1_555
C14F C5F 1_555 1_555
H14F C14F 1_555 1_555
Co1F O1F 1_555 1_555
Co1F_2 N1F 1_555 1_555
N1A Co1 1_555 1_555
O1A Co1 1_555 1_555
N2 C9 1_555 1_555
C2 C13 1_555 1_555
C13 C14 1_555 1_555
N2F C9F 1_555 1_555
C11F C12F 1_555 1_555
C4F C6F 1_555 1_555
C13F C14F 1_555 1_555

#END
