
#######################################################################
#
#                 Cambridge Crystallographic Data Centre
#                                CCDC 
#
#######################################################################
#
# If this CIF has been generated from an entry in the Cambridge 
# Structural Database, then it will include bibliographic, chemical, 
# crystal, experimental, refinement or atomic coordinate data resulting 
# from the CCDC's data processing and validation procedures.
#
#######################################################################

data_XUGNAQ
_symmetry_cell_setting           monoclinic
_symmetry_space_group_name_H-M   'P 21/n'
_symmetry_Int_Tables_number      14
_space_group_name_Hall           '-P 2yn'
loop_
_symmetry_equiv_pos_site_id
_symmetry_equiv_pos_as_xyz
1 x,y,z
2 1/2-x,1/2+y,1/2-z
3 -x,-y,-z
4 1/2+x,1/2-y,1/2+z
_cell_length_a                   8.0512(2)
_cell_length_b                   11.6763(3)
_cell_length_c                   21.0563(6)
_cell_angle_alpha                90
_cell_angle_beta                 90.8062(11)
_cell_angle_gamma                90
_cell_volume                     1979.27
loop_
_atom_site_label
_atom_site_type_symbol
_atom_site_fract_x
_atom_site_fract_y
_atom_site_fract_z
Cd1 Cd 0.69057(2) 0.642460(13) 0.672936(7)
Co1 Co 0.0000 1.0000 0.5000
O1 O 0.4804(3) 0.74675(16) 0.61420(10)
O2 O 0.7108(3) 0.83880(16) 0.63694(10)
O3 O -0.0223(2) 0.63816(14) 0.67451(10)
O4 O -0.1227(2) 0.49369(16) 0.72975(9)
O5 O 0.9503(2) 0.17707(16) 0.50802(9)
O6 O 0.9062(3) 0.20093(17) 0.61170(9)
O7 O 0.6740(3) 0.75259(17) 0.76571(9)
H1 H 0.6415 0.7339 0.8076
H2 H 0.6603 0.8314 0.7558
O8 O -0.0480(3) 0.97415(16) 0.59493(9)
H3 H -0.0633 1.0494 0.6110
H4 H -0.1318 0.9221 0.6077
N1 N 0.2524(3) 1.0304(2) 0.53735(11)
N2 N 0.4652(3) 0.53978(18) 0.71265(10)
N3 N 0.7161(3) 0.52462(19) 0.58183(10)
C1 C 0.3380(3) 0.9392(2) 0.55827(12)
H5 H 0.2971 0.8661 0.5479
C2 C 0.4823(3) 0.9459(2) 0.59408(12)
C3 C 0.5419(4) 1.0533(2) 0.61122(15)
H6 H 0.6387 1.0613 0.6363
C4 C 0.4539(4) 1.1485(2) 0.59003(18)
H7 H 0.4910 1.2226 0.6005
C5 C 0.3126(4) 1.1340(2) 0.55377(16)
H8 H 0.2550 1.1995 0.5397
C6 C 0.5638(3) 0.8369(2) 0.61594(12)
C7 C 0.3074(3) 0.5710(2) 0.70015(12)
H9 H 0.2880 0.6369 0.6755
C8 C 0.1716(3) 0.5100(2) 0.72223(12)
C9 C 0.2017(4) 0.4116(2) 0.75831(14)
H10 H 0.1129 0.3673 0.7732
C10 C 0.3637(4) 0.3804(3) 0.77185(16)
H11 H 0.3869 0.3150 0.7965
C11 C 0.4911(3) 0.4465(2) 0.74862(14)
H12 H 0.6011 0.4253 0.7584
C12 C -0.0027(3) 0.5500(2) 0.70788(12)
C13 C 0.7794(4) 0.4196(2) 0.58980(12)
H13 H 0.7879 0.3906 0.6313
C14 C 0.8329(4) 0.3515(2) 0.54064(13)
C15 C 0.8196(4) 0.3942(3) 0.47925(13)
H14 H 0.8565 0.3508 0.4446
C16 C 0.7515(5) 0.5010(3) 0.47001(14)
H15 H 0.7395 0.5311 0.4288
C17 C 0.7007(4) 0.5638(2) 0.52218(13)
H16 H 0.6536 0.6365 0.5155
C18 C 0.9023(3) 0.2341(2) 0.55491(12)
Cd1B Cd -0.69057(2) 1.357540(13) 0.327064(7)
O1B O -0.4804(3) 1.25325(16) 0.38580(10)
O2B O -0.7108(3) 1.16120(16) 0.36306(10)
O3B O 0.0223(2) 1.36184(14) 0.32549(10)
O4B O 0.1227(2) 1.50631(16) 0.27025(9)
O5B O -0.9503(2) 1.82293(16) 0.49198(9)
O6B O -0.9062(3) 1.79907(17) 0.38830(9)
O7B O -0.6740(3) 1.24741(17) 0.23429(9)
H1B H -0.6415 1.2661 0.1924
H2B H -0.6603 1.1686 0.2442
O8B O 0.0480(3) 1.02585(16) 0.40507(9)
H3B H 0.0633 0.9506 0.3890
H4B H 0.1318 1.0779 0.3923
N1B N -0.2524(3) 0.9696(2) 0.46265(11)
N2B N -0.4652(3) 1.46022(18) 0.28735(10)
N3B N -0.7161(3) 1.47538(19) 0.41817(10)
C1B C -0.3380(3) 1.0608(2) 0.44173(12)
H5B H -0.2971 1.1339 0.4521
C2B C -0.4823(3) 1.0541(2) 0.40592(12)
C3B C -0.5419(4) 0.9467(2) 0.38878(15)
H6B H -0.6387 0.9387 0.3637
C4B C -0.4539(4) 0.8515(2) 0.40997(18)
H7B H -0.4910 0.7774 0.3995
C5B C -0.3126(4) 0.8660(2) 0.44623(16)
H8B H -0.2550 0.8005 0.4603
C6B C -0.5638(3) 1.1631(2) 0.38406(12)
C7B C -0.3074(3) 1.4290(2) 0.29985(12)
H9B H -0.2880 1.3631 0.3245
C8B C -0.1716(3) 1.4900(2) 0.27777(12)
C9B C -0.2017(4) 1.5884(2) 0.24169(14)
H10B H -0.1129 1.6327 0.2268
C10B C -0.3637(4) 1.6196(3) 0.22815(16)
H11B H -0.3869 1.6850 0.2035
C11B C -0.4911(3) 1.5535(2) 0.25138(14)
H12B H -0.6011 1.5747 0.2416
C12B C 0.0027(3) 1.4500(2) 0.29212(12)
C13B C -0.7794(4) 1.5804(2) 0.41020(12)
H13B H -0.7879 1.6094 0.3687
C14B C -0.8329(4) 1.6485(2) 0.45936(13)
C15B C -0.8196(4) 1.6058(3) 0.52075(13)
H14B H -0.8565 1.6492 0.5554
C16B C -0.7515(5) 1.4990(3) 0.52999(14)
H15B H -0.7395 1.4689 0.5712
C17B C -0.7007(4) 1.4362(2) 0.47782(13)
H16B H -0.6536 1.3635 0.4845
C18B C -0.9023(3) 1.7659(2) 0.44509(12)
Cd1_2 Cd -0.30943(2) 0.642460(13) 0.672936(7)
Cd1B_2 Cd 0.30943(2) 1.357540(13) 0.327064(7)
Co1_2 Co -1.0000 2.0000 0.5000
Co1_3 Co 1.0000 0.0000 0.5000
O3_2 O 0.9777(2) 0.63816(14) 0.67451(10)
O3B_2 O -0.9777(2) 1.36184(14) 0.32549(10)
O4_2 O 0.8773(2) 0.49369(16) 0.72975(9)
O4B_2 O -0.8773(2) 1.50631(16) 0.27025(9)
O5_2 O -0.0497(2) 1.17707(16) 0.50802(9)
O5B_2 O 0.0497(2) 0.82293(16) 0.49198(9)
loop_
_geom_bond_atom_site_label_1
_geom_bond_atom_site_label_2
_geom_bond_site_symmetry_1
_geom_bond_site_symmetry_2
Cd1 O1 1_555 1_555
Co1 O8 1_555 1_555
O1 C6 1_555 1_555
O2 Cd1 1_555 1_555
O3 C12 1_555 1_555
O4 C12 1_555 1_555
O5 C18 1_555 1_555
O6 C18 1_555 1_555
O7 Cd1 1_555 1_555
H1 O7 1_555 1_555
H2 O7 1_555 1_555
O8 H3 1_555 1_555
H4 O8 1_555 1_555
N1 Co1 1_555 1_555
N2 Cd1 1_555 1_555
N3 Cd1 1_555 1_555
C1 N1 1_555 1_555
H5 C1 1_555 1_555
C2 C1 1_555 1_555
C3 C2 1_555 1_555
H6 C3 1_555 1_555
C4 C3 1_555 1_555
H7 C4 1_555 1_555
C5 N1 1_555 1_555
H8 C5 1_555 1_555
C6 O2 1_555 1_555
C7 N2 1_555 1_555
H9 C7 1_555 1_555
C8 C7 1_555 1_555
C9 C8 1_555 1_555
H10 C9 1_555 1_555
C10 C9 1_555 1_555
H11 C10 1_555 1_555
C11 N2 1_555 1_555
H12 C11 1_555 1_555
C12 C8 1_555 1_555
C13 N3 1_555 1_555
H13 C13 1_555 1_555
C14 C13 1_555 1_555
C15 C14 1_555 1_555
H14 C15 1_555 1_555
C16 C15 1_555 1_555
H15 C16 1_555 1_555
C17 N3 1_555 1_555
H16 C17 1_555 1_555
C18 C14 1_555 1_555
Cd1B O1B 1_555 1_555
O1B C6B 1_555 1_555
O2B Cd1B 1_555 1_555
O3B C12B 1_555 1_555
O4B C12B 1_555 1_555
O5B C18B 1_555 1_555
O6B C18B 1_555 1_555
O7B Cd1B 1_555 1_555
H1B O7B 1_555 1_555
H2B O7B 1_555 1_555
O8B Co1 1_555 1_555
H3B O8B 1_555 1_555
H4B O8B 1_555 1_555
N1B Co1 1_555 1_555
N2B Cd1B 1_555 1_555
N3B Cd1B 1_555 1_555
C1B N1B 1_555 1_555
H5B C1B 1_555 1_555
C2B C1B 1_555 1_555
C3B C2B 1_555 1_555
H6B C3B 1_555 1_555
C4B C3B 1_555 1_555
H7B C4B 1_555 1_555
C5B N1B 1_555 1_555
H8B C5B 1_555 1_555
C6B O2B 1_555 1_555
C7B N2B 1_555 1_555
H9B C7B 1_555 1_555
C8B C7B 1_555 1_555
C9B C8B 1_555 1_555
H10B C9B 1_555 1_555
C10B C9B 1_555 1_555
H11B C10B 1_555 1_555
C11B N2B 1_555 1_555
H12B C11B 1_555 1_555
C12B C8B 1_555 1_555
C13B N3B 1_555 1_555
H13B C13B 1_555 1_555
C14B C13B 1_555 1_555
C15B C14B 1_555 1_555
H14B C15B 1_555 1_555
C16B C15B 1_555 1_555
H15B C16B 1_555 1_555
C17B N3B 1_555 1_555
H16B C17B 1_555 1_555
C18B C14B 1_555 1_555
Cd1_2 O3 1_555 1_555
Cd1B_2 O3B 1_555 1_555
Co1_2 O5B 1_555 1_555
Co1_3 O5 1_555 1_555
O3_2 Cd1 1_555 1_555
O3B_2 Cd1B 1_555 1_555
O4_2 Cd1 1_555 1_555
O4B_2 Cd1B 1_555 1_555
O5_2 Co1 1_555 1_555
O5B_2 Co1 1_555 1_555
O4 Cd1_2 1_555 1_555
C2 C6 1_555 1_555
C4 C5 1_555 1_555
C10 C11 1_555 1_555
C16 C17 1_555 1_555
O4B Cd1B_2 1_555 1_555
C2B C6B 1_555 1_555
C4B C5B 1_555 1_555
C10B C11B 1_555 1_555
C16B C17B 1_555 1_555

#END
