
#######################################################################
#
#                 Cambridge Crystallographic Data Centre
#                                CCDC 
#
#######################################################################
#
# If this CIF has been generated from an entry in the Cambridge 
# Structural Database, then it will include bibliographic, chemical, 
# crystal, experimental, refinement or atomic coordinate data resulting 
# from the CCDC's data processing and validation procedures.
#
#######################################################################

data_XUGQEX
_symmetry_cell_setting           monoclinic
_symmetry_space_group_name_H-M   'P 21/n'
_symmetry_Int_Tables_number      14
_space_group_name_Hall           '-P 2yn'
loop_
_symmetry_equiv_pos_site_id
_symmetry_equiv_pos_as_xyz
1 x,y,z
2 1/2-x,1/2+y,1/2-z
3 -x,-y,-z
4 1/2+x,1/2-y,1/2+z
_cell_length_a                   15.841(3)
_cell_length_b                   12.639(3)
_cell_length_c                   16.633(3)
_cell_angle_alpha                90
_cell_angle_beta                 96.32(3)
_cell_angle_gamma                90
_cell_volume                     3309.93
loop_
_atom_site_label
_atom_site_type_symbol
_atom_site_fract_x
_atom_site_fract_y
_atom_site_fract_z
Mg1 Mg 0.5000 0.5000 0.0000
Mg2 Mg 0.37414(6) 0.44991(7) 0.16335(6)
O1 O 0.87419(12) 1.01437(15) 0.53349(11)
O2 O 0.53414(13) 0.60073(16) 0.09807(12)
N1 N 0.59596(16) 1.06048(18) 0.23642(15)
O3 O 0.53706(13) 1.36592(16) 0.06431(13)
O4 O 0.45151(14) 0.57117(17) 0.19649(13)
O5 O 0.77729(15) 0.9484(2) 0.60373(14)
O6 O 0.33793(16) 0.44568(19) 0.27652(14)
O7 O 0.28304(16) 0.3306(2) 0.13831(15)
O8 O 0.51854(16) 0.96625(18) 0.13845(15)
N2 N 0.62659(15) 0.88222(17) 0.21339(14)
N3 N 0.70611(16) 0.97598(18) 0.31755(15)
O9 O 0.46379(15) 1.33720(17) 0.16923(14)
O10 O 0.72832(15) 0.80132(17) 0.29793(15)
O11 O 0.67339(17) 1.14811(18) 0.33854(15)
C1 C 0.51948(18) 1.3142(2) 0.12421(17)
C2 C 0.5419(2) 0.7187(2) 0.21038(18)
H1 H 0.4949 0.7648 0.2194
H2 H 0.5683 0.6960 0.2629
C3 C 0.50683(17) 0.6221(2) 0.16388(17)
C4 C 0.60564(18) 0.7818(2) 0.16973(17)
H3 H 0.6570 0.7404 0.1681
H4 H 0.5827 0.7972 0.1145
C5 C 0.68940(18) 0.8809(2) 0.27805(18)
C6 C 0.6595(2) 1.0677(2) 0.30032(18)
C7 C 0.80392(19) 0.9659(2) 0.53751(19)
C8 C 0.5426(2) 1.1550(2) 0.21542(19)
H5 H 0.5457 1.2020 0.2617
H6 H 0.4839 1.1331 0.2031
C9 C 0.57632(19) 0.9695(2) 0.19240(17)
C10 C 0.7756(2) 0.9787(2) 0.38446(18)
H7 H 0.7945 1.0512 0.3934
H8 H 0.8233 0.9379 0.3693
C11 C 0.2595(2) 0.2617(3) 0.0883(2)
C12 C 0.57000(19) 1.2142(2) 0.1440(2)
H9 H 0.5640 1.1680 0.0971
H10 H 0.6296 1.2323 0.1552
N4 N 0.1910(2) 0.2037(3) 0.09797(19)
C13 C 0.7486(3) 0.9350(3) 0.4616(2)
H11 H 0.6911 0.9584 0.4664
H12 H 0.7476 0.8584 0.4578
C14 C 0.1458(3) 0.2208(4) 0.1689(3)
H13 H 0.1840 0.2501 0.2120
H14 H 0.1241 0.1545 0.1860
H15 H 0.0995 0.2689 0.1554
C15 C 0.3058(3) 0.2397(3) 0.0161(2)
H16 H 0.3513 0.2896 0.0147
H17 H 0.2673 0.2462 -0.0323
H18 H 0.3286 0.1693 0.0199
N5 N 0.2340(3) 0.3871(4) 0.3411(3)
C16 C 0.1826(3) 0.4923(4) 0.2942(4)
H19 H 0.2081 0.5094 0.2461
H20 H 0.1867 0.5520 0.3300
H21 H 0.1239 0.4746 0.2800
C17 C 0.2988(4) 0.3860(5) 0.3169(3)
C18 C 0.1836(3) 0.3267(4) 0.3917(3)
H22 H 0.1588 0.2674 0.3618
H23 H 0.1394 0.3707 0.4085
H24 H 0.2191 0.3019 0.4384
C19 C 0.1567(4) 0.1231(4) 0.0409(3)
H25 H 0.1746 0.1371 -0.0113
H26 H 0.0958 0.1242 0.0371
H27 H 0.1770 0.0547 0.0593
C20 C 0.3462(4) 0.2797(4) 0.3540(4)
H28 H 0.3635 0.2896 0.4106
H29 H 0.3953 0.2660 0.3265
H30 H 0.3079 0.2207 0.3467
Mg2B Mg 0.62586(6) 0.55009(7) -0.16335(6)
O1B O 0.12581(12) -0.01437(15) -0.53349(11)
O2B O 0.46586(13) 0.39927(16) -0.09807(12)
N1B N 0.40404(16) -0.06048(18) -0.23642(15)
O3B O 0.46294(13) -0.36592(16) -0.06431(13)
O4B O 0.54849(14) 0.42883(17) -0.19649(13)
O5B O 0.22271(15) 0.0516(2) -0.60373(14)
O6B O 0.66207(16) 0.55432(19) -0.27652(14)
O7B O 0.71696(16) 0.6694(2) -0.13831(15)
O8B O 0.48146(16) 0.03375(18) -0.13845(15)
N2B N 0.37341(15) 0.11778(17) -0.21339(14)
N3B N 0.29389(16) 0.02402(18) -0.31755(15)
O9B O 0.53621(15) -0.33720(17) -0.16923(14)
O10B O 0.27168(15) 0.19868(17) -0.29793(15)
O11B O 0.32661(17) -0.14811(18) -0.33854(15)
C1B C 0.48052(18) -0.3142(2) -0.12421(17)
C2B C 0.4581(2) 0.2813(2) -0.21038(18)
H1B H 0.5051 0.2352 -0.2194
H2B H 0.4317 0.3040 -0.2629
C3B C 0.49317(17) 0.3779(2) -0.16388(17)
C4B C 0.39436(18) 0.2182(2) -0.16973(17)
H3B H 0.3430 0.2596 -0.1681
H4B H 0.4173 0.2028 -0.1145
C5B C 0.31060(18) 0.1191(2) -0.27805(18)
C6B C 0.3405(2) -0.0677(2) -0.30032(18)
C7B C 0.19608(19) 0.0341(2) -0.53751(19)
C8B C 0.4574(2) -0.1550(2) -0.21542(19)
H5B H 0.4543 -0.2020 -0.2617
H6B H 0.5161 -0.1331 -0.2031
C9B C 0.42368(19) 0.0305(2) -0.19240(17)
C10B C 0.2244(2) 0.0213(2) -0.38446(18)
H7B H 0.2055 -0.0512 -0.3934
H8B H 0.1767 0.0621 -0.3693
C11B C 0.7405(2) 0.7383(3) -0.0883(2)
C12B C 0.43000(19) -0.2142(2) -0.1440(2)
H9B H 0.4360 -0.1680 -0.0971
H10B H 0.3704 -0.2323 -0.1552
N4B N 0.8090(2) 0.7963(3) -0.09797(19)
C13B C 0.2514(3) 0.0650(3) -0.4616(2)
H11B H 0.3089 0.0416 -0.4664
H12B H 0.2524 0.1416 -0.4578
C14B C 0.8542(3) 0.7792(4) -0.1689(3)
H13B H 0.8160 0.7499 -0.2120
H14B H 0.8759 0.8455 -0.1860
H15B H 0.9005 0.7311 -0.1554
C15B C 0.6942(3) 0.7603(3) -0.0161(2)
H16B H 0.6487 0.7104 -0.0147
H17B H 0.7327 0.7538 0.0323
H18B H 0.6714 0.8307 -0.0199
N5B N 0.7660(3) 0.6129(4) -0.3411(3)
C16B C 0.8174(3) 0.5077(4) -0.2942(4)
H19B H 0.7919 0.4906 -0.2461
H20B H 0.8133 0.4480 -0.3300
H21B H 0.8761 0.5254 -0.2800
C17B C 0.7012(4) 0.6140(5) -0.3169(3)
C18B C 0.8164(3) 0.6733(4) -0.3917(3)
H22B H 0.8412 0.7326 -0.3618
H23B H 0.8606 0.6293 -0.4085
H24B H 0.7809 0.6981 -0.4384
C19B C 0.8433(4) 0.8769(4) -0.0409(3)
H25B H 0.8254 0.8629 0.0113
H26B H 0.9042 0.8758 -0.0371
H27B H 0.8230 0.9453 -0.0593
C20B C 0.6538(4) 0.7203(4) -0.3540(4)
H28B H 0.6365 0.7104 -0.4106
H29B H 0.6047 0.7340 -0.3265
H30B H 0.6921 0.7793 -0.3467
Mg1_2 Mg 0.5000 -0.5000 0.0000
Mg1_3 Mg 0.5000 1.5000 0.0000
Mg1A Mg 0.0000 0.0000 -0.5000
Mg1A_2 Mg 1.0000 1.0000 0.5000
Mg2_2 Mg 0.37414(6) 1.44991(7) 0.16335(6)
Mg2A Mg 0.12586(6) -0.05009(7) -0.66335(6)
Mg2B_2 Mg 0.62586(6) -0.44991(7) -0.16335(6)
Mg2C Mg 0.87414(6) 1.05009(7) 0.66335(6)
O1A O 0.62581(12) 0.51437(15) -0.03349(11)
O1C O 0.37419(12) 0.48563(15) 0.03349(11)
O3_2 O 0.53706(13) 0.36592(16) 0.06431(13)
O3B_2 O 0.46294(13) 0.63408(16) -0.06431(13)
O5A O 0.72271(15) 0.4484(2) -0.10373(14)
O5C O 0.27729(15) 0.5516(2) 0.10373(14)
O9_2 O 0.46379(15) 0.33720(17) 0.16923(14)
O9B_2 O 0.53621(15) 0.66280(17) -0.16923(14)
N6 N 0.6206(2) 0.5186(3) 0.3710(2)
O12 O 0.5674(4) 0.6308(4) 0.4547(3)
C21 C 0.5604(5) 0.5542(6) 0.4059(4)
H31 H 0.5074 0.5223 0.3952
C22 C 0.6136(5) 0.4321(6) 0.3142(4)
H32 H 0.5597 0.3978 0.3155
H33 H 0.6585 0.3822 0.3286
H34 H 0.6180 0.4586 0.2608
C23 C 0.7079(4) 0.5628(5) 0.3807(5)
H35 H 0.7171 0.6029 0.3334
H36 H 0.7483 0.5060 0.3876
H37 H 0.7147 0.6080 0.4273
loop_
_geom_bond_atom_site_label_1
_geom_bond_atom_site_label_2
_geom_bond_site_symmetry_1
_geom_bond_site_symmetry_2
Mg1 O2 1_555 1_555
Mg2 O4 1_555 1_555
O1 C7 1_555 1_555
O2 C3 1_555 1_555
N1 C6 1_555 1_555
O3 C1 1_555 1_555
O4 C3 1_555 1_555
O5 C7 1_555 1_555
O6 Mg2 1_555 1_555
O7 Mg2 1_555 1_555
O8 C9 1_555 1_555
N2 C4 1_555 1_555
N3 C5 1_555 1_555
O9 C1 1_555 1_555
O10 C5 1_555 1_555
O11 C6 1_555 1_555
C1 C12 1_555 1_555
C2 H1 1_555 1_555
H2 C2 1_555 1_555
C3 C2 1_555 1_555
C4 C2 1_555 1_555
H3 C4 1_555 1_555
H4 C4 1_555 1_555
C5 N2 1_555 1_555
C6 N3 1_555 1_555
C7 C13 1_555 1_555
C8 N1 1_555 1_555
H5 C8 1_555 1_555
H6 C8 1_555 1_555
C9 N1 1_555 1_555
C10 N3 1_555 1_555
H7 C10 1_555 1_555
H8 C10 1_555 1_555
C11 O7 1_555 1_555
C12 C8 1_555 1_555
H9 C12 1_555 1_555
H10 C12 1_555 1_555
N4 C11 1_555 1_555
C13 C10 1_555 1_555
H11 C13 1_555 1_555
H12 C13 1_555 1_555
C14 N4 1_555 1_555
H13 C14 1_555 1_555
H14 C14 1_555 1_555
H15 C14 1_555 1_555
C15 C11 1_555 1_555
H16 C15 1_555 1_555
H17 C15 1_555 1_555
H18 C15 1_555 1_555
N5 C16 1_555 1_555
C16 H19 1_555 1_555
H20 C16 1_555 1_555
H21 C16 1_555 1_555
C17 O6 1_555 1_555
C18 N5 1_555 1_555
H22 C18 1_555 1_555
H23 C18 1_555 1_555
H24 C18 1_555 1_555
C19 N4 1_555 1_555
H25 C19 1_555 1_555
H26 C19 1_555 1_555
H27 C19 1_555 1_555
C20 C17 1_555 1_555
H28 C20 1_555 1_555
H29 C20 1_555 1_555
H30 C20 1_555 1_555
N6 C21 1_555 1_555
O12 C21 1_555 1_555
C21 H31 1_555 1_555
C22 N6 1_555 1_555
H32 C22 1_555 1_555
H33 C22 1_555 1_555
H34 C22 1_555 1_555
C23 N6 1_555 1_555
H35 C23 1_555 1_555
H36 C23 1_555 1_555
H37 C23 1_555 1_555
Mg2B O4B 1_555 1_555
O1B C7B 1_555 1_555
O2B Mg1 1_555 1_555
N1B C6B 1_555 1_555
O3B C1B 1_555 1_555
O4B C3B 1_555 1_555
O5B C7B 1_555 1_555
O6B Mg2B 1_555 1_555
O7B Mg2B 1_555 1_555
O8B C9B 1_555 1_555
N2B C4B 1_555 1_555
N3B C5B 1_555 1_555
O9B C1B 1_555 1_555
O10B C5B 1_555 1_555
O11B C6B 1_555 1_555
C1B C12B 1_555 1_555
C2B H1B 1_555 1_555
H2B C2B 1_555 1_555
C3B O2B 1_555 1_555
C4B C2B 1_555 1_555
H3B C4B 1_555 1_555
H4B C4B 1_555 1_555
C5B N2B 1_555 1_555
C6B N3B 1_555 1_555
C7B C13B 1_555 1_555
C8B N1B 1_555 1_555
H5B C8B 1_555 1_555
H6B C8B 1_555 1_555
C9B N1B 1_555 1_555
C10B N3B 1_555 1_555
H7B C10B 1_555 1_555
H8B C10B 1_555 1_555
C11B O7B 1_555 1_555
C12B C8B 1_555 1_555
H9B C12B 1_555 1_555
H10B C12B 1_555 1_555
N4B C11B 1_555 1_555
C13B C10B 1_555 1_555
H11B C13B 1_555 1_555
H12B C13B 1_555 1_555
C14B N4B 1_555 1_555
H13B C14B 1_555 1_555
H14B C14B 1_555 1_555
H15B C14B 1_555 1_555
C15B C11B 1_555 1_555
H16B C15B 1_555 1_555
H17B C15B 1_555 1_555
H18B C15B 1_555 1_555
N5B C16B 1_555 1_555
C16B H19B 1_555 1_555
H20B C16B 1_555 1_555
H21B C16B 1_555 1_555
C17B O6B 1_555 1_555
C18B N5B 1_555 1_555
H22B C18B 1_555 1_555
H23B C18B 1_555 1_555
H24B C18B 1_555 1_555
C19B N4B 1_555 1_555
H25B C19B 1_555 1_555
H26B C19B 1_555 1_555
H27B C19B 1_555 1_555
C20B C17B 1_555 1_555
H28B C20B 1_555 1_555
H29B C20B 1_555 1_555
H30B C20B 1_555 1_555
Mg1_2 O3B 1_555 1_555
Mg1_3 O3 1_555 1_555
Mg1A O1B 1_555 1_555
Mg1A_2 O1 1_555 1_555
Mg2_2 O9 1_555 1_555
Mg2A O1B 1_555 1_555
Mg2B_2 O9B 1_555 1_555
Mg2C O1 1_555 1_555
O1A Mg1 1_555 1_555
O1C Mg1 1_555 1_555
O3_2 Mg1 1_555 1_555
O3B_2 Mg1 1_555 1_555
O5A Mg2B 1_555 1_555
O5C Mg2 1_555 1_555
O9_2 Mg2 1_555 1_555
O9B_2 Mg2B 1_555 1_555
Mg2 O1C 1_555 1_555
O5 Mg2C 1_555 1_555
N2 C9 1_555 1_555
N5 C17 1_555 1_555
Mg2B O1A 1_555 1_555
O5B Mg2A 1_555 1_555
N2B C9B 1_555 1_555
C2B C3B 1_555 1_555
N5B C17B 1_555 1_555

#END
