
#######################################################################
#
#                 Cambridge Crystallographic Data Centre
#                                CCDC 
#
#######################################################################
#
# If this CIF has been generated from an entry in the Cambridge 
# Structural Database, then it will include bibliographic, chemical, 
# crystal, experimental, refinement or atomic coordinate data resulting 
# from the CCDC's data processing and validation procedures.
#
#######################################################################

data_XUGQUN
_symmetry_cell_setting           orthorhombic
_symmetry_space_group_name_H-M   'P b c a'
_symmetry_Int_Tables_number      61
_space_group_name_Hall           '-P 2ac 2ab'
loop_
_symmetry_equiv_pos_site_id
_symmetry_equiv_pos_as_xyz
1 x,y,z
2 1/2-x,-y,1/2+z
3 -x,1/2+y,1/2-z
4 1/2+x,1/2-y,-z
5 -x,-y,-z
6 1/2+x,y,1/2-z
7 x,1/2-y,1/2+z
8 1/2-x,1/2+y,z
_cell_length_a                   17.7597(12)
_cell_length_b                   18.1136(10)
_cell_length_c                   25.4503(11)
_cell_angle_alpha                90
_cell_angle_beta                 90
_cell_angle_gamma                90
_cell_volume                     8187.16
loop_
_atom_site_label
_atom_site_type_symbol
_atom_site_fract_x
_atom_site_fract_y
_atom_site_fract_z
Ag1 Ag 0.71899(2) 0.182413(19) 0.082533(11)
Ag2 Ag 0.75873(3) 0.053921(17) 0.151915(10)
C1 C 0.9116(4) 0.1114(3) 0.1167(2)
C2 C 0.9876(3) 0.1493(3) 0.10372(18)
H1 H 1.0289 0.1163 0.1138
C3 C 0.9917(3) 0.1638(4) 0.0447(2)
C4 C 0.9916(3) 0.1071(4) 0.0100(3)
H2 H 0.9936 0.0586 0.0220
C5 C 0.9885(4) 0.1212(5) -0.0430(3)
H3 H 0.9889 0.0818 -0.0665
C6 C 0.9851(4) 0.1902(6) -0.0618(3)
H4 H 0.9813 0.1982 -0.0978
C7 C 0.9874(3) 0.2497(4) -0.0273(3)
H5 H 0.9881 0.2980 -0.0397
C8 C 0.9887(3) 0.2343(5) 0.0266(3)
C9 C 0.9920(3) 0.2858(4) 0.1118(3)
C10 C 0.9916(3) 0.3516(3) 0.1410(3)
H6 H 0.9900 0.3970 0.1239
C11 C 0.9936(3) 0.3486(4) 0.1944(3)
H7 H 0.9936 0.3919 0.2140
C12 C 0.9955(3) 0.2818(5) 0.2189(2)
H8 H 0.9965 0.2795 0.2554
C13 C 0.9959(3) 0.2163(3) 0.1892(2)
H9 H 0.9980 0.1709 0.2063
C14 C 0.9933(3) 0.2188(3) 0.1346(2)
C15 C 0.6512(3) 0.2949(3) 0.15829(19)
H10 H 0.6070 0.2781 0.1429
C16 C 0.7780(3) 0.2889(3) 0.16669(18)
H11 H 0.8240 0.2683 0.1572
C17 C 0.7769(3) 0.3441(3) 0.20436(17)
H12 H 0.8216 0.3593 0.2200
C18 C 0.6463(3) 0.3497(3) 0.19480(19)
H13 H 0.5994 0.3689 0.2036
C19 C 0.7097(4) 0.3767(2) 0.21871(16)
C20 C 0.7077(3) 0.4366(2) 0.25895(14)
H14 H 0.6620 0.4652 0.2542
H15 H 0.7501 0.4694 0.2533
C21 C 0.7103(2) 0.4084(2) 0.31496(13)
H16 H 0.7558 0.3797 0.3200
H17 H 0.6676 0.3761 0.3211
C22 C 0.7087(2) 0.4714(2) 0.35463(13)
H18 H 0.7514 0.5036 0.3486
H19 H 0.6632 0.5002 0.3496
C23 C 0.7110(4) 0.4432(2) 0.41056(17)
C24 C 0.6471(3) 0.4300(3) 0.43863(19)
H20 H 0.6005 0.4423 0.4244
C25 C 0.7783(3) 0.4251(2) 0.43490(19)
H21 H 0.8238 0.4332 0.4177
C26 C 0.7777(3) 0.3947(2) 0.48558(19)
H22 H 0.8233 0.3846 0.5020
C27 C 0.6509(3) 0.3987(3) 0.4881(2)
H23 H 0.6062 0.3903 0.5062
C28 C 0.8073(3) -0.0599(3) 0.0704(2)
H24 H 0.8543 -0.0446 0.0824
C29 C 0.6806(4) -0.0534(3) 0.0738(2)
H25 H 0.6370 -0.0332 0.0882
C30 C 0.6732(3) -0.1068(3) 0.0353(2)
H26 H 0.6255 -0.1215 0.0242
C31 C 0.8044(4) -0.1137(3) 0.0313(2)
H27 H 0.8488 -0.1330 0.0175
C32 C 0.7363(4) -0.1381(3) 0.01332(16)
C33 C 0.7312(3) -0.1963(2) -0.02847(13)
H28 H 0.6849 -0.2240 -0.0240
H29 H 0.7730 -0.2304 -0.0246
C34 C 0.7330(3) -0.16359(19) -0.08280(13)
H30 H 0.7778 -0.1335 -0.0867
H31 H 0.6894 -0.1320 -0.0876
C35 C 0.7328(3) -0.2242(2) -0.12471(13)
H32 H 0.7762 -0.2560 -0.1197
H33 H 0.6878 -0.2540 -0.1211
C36 C 0.7354(4) -0.1906(2) -0.17925(15)
C37 C 0.6722(3) -0.1676(3) -0.20460(18)
H34 H 0.6251 -0.1762 -0.1898
C38 C 0.8032(3) -0.1797(3) -0.20421(18)
H35 H 0.8475 -0.1967 -0.1890
C39 C 0.8051(3) -0.1432(3) -0.2522(2)
H36 H 0.8515 -0.1354 -0.2682
C40 C 0.6777(3) -0.1318(3) -0.25224(19)
H37 H 0.6336 -0.1159 -0.2684
N1 N 0.7153(3) 0.2643(2) 0.14350(11)
N2 N 0.7143(3) 0.3800(2) 0.51085(13)
N3 N 0.7466(3) -0.02951(18) 0.09131(11)
N4 N 0.7432(3) -0.11871(19) -0.27637(12)
O1 O 0.8543(2) 0.1423(2) 0.10238(12)
O2 O 0.91436(19) 0.0530(2) 0.14329(14)
O3 O 0.9890(2) 0.2968(2) 0.05762(19)
Ag1F Ag 0.71899(2) 0.317587(19) 0.582533(11)
Ag2A Ag 0.74127(3) -0.053921(17) -0.348085(10)
N2F N 0.7143(3) 0.1200(2) 0.01085(13)
N4A N 0.7568(3) 0.11871(19) 0.22363(12)
C41 C 0.0784(4) 0.9862(4) 0.1981(3)
H38 H 0.1084 1.0179 0.1763
H39 H 0.1095 0.9478 0.2124
H40 H 0.0568 1.0144 0.2262
O4 O 0.0232(4) 0.9560(3) 0.1692(3)
H41 H -0.0135 0.9835 0.1692
Cl1 Cl 0.52355(11) 0.09188(11) 0.14276(7)
O5 O 0.5903(3) 0.0965(5) 0.1248(3)
O6 O 0.5106(3) 0.1550(3) 0.1667(3)
O7 O 0.5203(7) 0.0437(4) 0.1759(3)
O8 O 0.4767(3) 0.0689(4) 0.1083(2)
loop_
_geom_bond_atom_site_label_1
_geom_bond_atom_site_label_2
_geom_bond_site_symmetry_1
_geom_bond_site_symmetry_2
Ag1 Ag2 1_555 1_555
Ag2 N3 1_555 1_555
C1 C2 1_555 1_555
C2 H1 1_555 1_555
C3 C2 1_555 1_555
C4 C3 1_555 1_555
H2 C4 1_555 1_555
C5 C4 1_555 1_555
H3 C5 1_555 1_555
C6 C5 1_555 1_555
H4 C6 1_555 1_555
C7 C6 1_555 1_555
H5 C7 1_555 1_555
C8 C3 1_555 1_555
C9 C10 1_555 1_555
C10 H6 1_555 1_555
C11 C10 1_555 1_555
H7 C11 1_555 1_555
C12 C11 1_555 1_555
H8 C12 1_555 1_555
C13 C12 1_555 1_555
H9 C13 1_555 1_555
C14 C2 1_555 1_555
C15 H10 1_555 1_555
C16 H11 1_555 1_555
C17 C16 1_555 1_555
H12 C17 1_555 1_555
C18 C15 1_555 1_555
H13 C18 1_555 1_555
C19 C17 1_555 1_555
C20 C19 1_555 1_555
H14 C20 1_555 1_555
H15 C20 1_555 1_555
C21 C20 1_555 1_555
H16 C21 1_555 1_555
H17 C21 1_555 1_555
C22 C21 1_555 1_555
H18 C22 1_555 1_555
H19 C22 1_555 1_555
C23 C22 1_555 1_555
C24 C23 1_555 1_555
H20 C24 1_555 1_555
C25 C23 1_555 1_555
H21 C25 1_555 1_555
C26 C25 1_555 1_555
H22 C26 1_555 1_555
C27 C24 1_555 1_555
H23 C27 1_555 1_555
C28 H24 1_555 1_555
C29 H25 1_555 1_555
C30 C29 1_555 1_555
H26 C30 1_555 1_555
C31 C28 1_555 1_555
H27 C31 1_555 1_555
C32 C30 1_555 1_555
C33 C32 1_555 1_555
H28 C33 1_555 1_555
H29 C33 1_555 1_555
C34 C33 1_555 1_555
H30 C34 1_555 1_555
H31 C34 1_555 1_555
C35 C34 1_555 1_555
H32 C35 1_555 1_555
H33 C35 1_555 1_555
C36 C35 1_555 1_555
C37 C36 1_555 1_555
H34 C37 1_555 1_555
C38 C36 1_555 1_555
H35 C38 1_555 1_555
C39 C38 1_555 1_555
H36 C39 1_555 1_555
C40 C37 1_555 1_555
H37 C40 1_555 1_555
N1 Ag1 1_555 1_555
N2 C26 1_555 1_555
N3 C28 1_555 1_555
N4 C39 1_555 1_555
O1 Ag1 1_555 1_555
O2 C1 1_555 1_555
O3 C8 1_555 1_555
C41 H38 1_555 1_555
H39 C41 1_555 1_555
H40 C41 1_555 1_555
O4 C41 1_555 1_555
H41 O4 1_555 1_555
Cl1 O5 1_555 1_555
O6 Cl1 1_555 1_555
O7 Cl1 1_555 1_555
O8 Cl1 1_555 1_555
Ag1F N2 1_555 1_555
Ag2A N4 1_555 1_555
N2F Ag1 1_555 1_555
N4A Ag2 1_555 1_555
Ag2 O1 1_555 1_555
C1 O1 1_555 1_555
C7 C8 1_555 1_555
C9 C14 1_555 1_555
C9 O3 1_555 1_555
C13 C14 1_555 1_555
C15 N1 1_555 1_555
C16 N1 1_555 1_555
C18 C19 1_555 1_555
C27 N2 1_555 1_555
C29 N3 1_555 1_555
C31 C32 1_555 1_555
C40 N4 1_555 1_555

#END
