
#######################################################################
#
#                 Cambridge Crystallographic Data Centre
#                                CCDC 
#
#######################################################################
#
# If this CIF has been generated from an entry in the Cambridge 
# Structural Database, then it will include bibliographic, chemical, 
# crystal, experimental, refinement or atomic coordinate data resulting 
# from the CCDC's data processing and validation procedures.
#
#######################################################################

data_XUGQUM
_symmetry_cell_setting           monoclinic
_symmetry_space_group_name_H-M   'C 2/c'
_symmetry_Int_Tables_number      15
_space_group_name_Hall           '-C 2yn'
loop_
_symmetry_equiv_pos_site_id
_symmetry_equiv_pos_as_xyz
1 x,y,z
2 -x,y,1/2-z
3 1/2+x,1/2+y,z
4 1/2-x,1/2+y,1/2-z
5 -x,-y,-z
6 x,-y,1/2+z
7 1/2-x,1/2-y,-z
8 1/2+x,1/2-y,1/2+z
_cell_length_a                   15.99695(15)
_cell_length_b                   7.150080(64)
_cell_length_c                   14.61384(13)
_cell_angle_alpha                90
_cell_angle_beta                 124.95713(46)
_cell_angle_gamma                90
_cell_volume                     1369.95
loop_
_atom_site_label
_atom_site_type_symbol
_atom_site_fract_x
_atom_site_fract_y
_atom_site_fract_z
Ag1 Ag 0.00000 -0.28061(14) 0.25000
N1 N 0.00000 0.034426 0.25000
N2 N 0.00000 0.406195 0.25000
C1 C 0.071499 0.119994 0.25000
C2 C 0.071499 0.320627 0.25000
H1 H 0.124459 0.045689 0.25000
H2 H 0.124459 0.394932 0.25000
N3 N -0.157380 -0.271060 0.093600
C3 C -0.235360 -0.314240 0.095050
C4 C -0.164670 -0.208490 0.005970
H3 H -0.224520 -0.361820 0.16546
H4 H -0.101460 -0.177740 0.010390
S1 S 0.114570 -0.329160 0.082050
O1 O 0.021550 -0.436950 -0.024020
O2 O 0.076680 -0.220220 0.135120
O3 O 0.195430 -0.452940 0.163870
O4 O 0.151730 -0.215040 0.030070
Ag1_2 Ag 0.00000 0.71939(14) 0.25000
Ag1F Ag -0.50000 -0.21939(14) -0.25000
Ag1D Ag 0.00000 -0.71939(14) -0.25000
N2_2 N 0.00000 -0.593805 0.25000
C1A C -0.071499 0.119994 0.25000
C2A C -0.071499 0.320627 0.25000
H1A H -0.124459 0.045689 0.25000
H2A H -0.124459 0.394932 0.25000
N3F N -0.342620 -0.228940 -0.093600
N3A N 0.157380 -0.271060 0.406400
C3F C -0.264640 -0.185760 -0.095050
C4F C -0.335330 -0.291510 -0.005970
H3F H -0.275480 -0.138180 -0.16546
H4F H -0.398540 -0.322260 -0.010390
S1D S -0.114570 -0.670840 -0.082050
O1D O -0.021550 -0.563050 0.024020
O2D O -0.076680 -0.779780 -0.135120
O2A O -0.076680 -0.220220 0.364880
O3D O -0.195430 -0.547060 -0.163870
O4D O -0.151730 -0.784960 -0.030070
loop_
_geom_bond_atom_site_label_1
_geom_bond_atom_site_label_2
_geom_bond_site_symmetry_1
_geom_bond_site_symmetry_2
Ag1 N1 1_555 1_555
N1 C1 1_555 1_555
N2 C2 1_555 1_555
C1 C2 1_555 1_555
C2 H2 1_555 1_555
H1 C1 1_555 1_555
N3 Ag1 1_555 1_555
C3 N3 1_555 1_555
C4 N3 1_555 1_555
H3 C3 1_555 1_555
H4 C4 1_555 1_555
S1 O1 1_555 1_555
O1 O1D 1_555 1_555
O2 Ag1 1_555 1_555
O3 S1 1_555 1_555
O4 S1 1_555 1_555
Ag1_2 N2 1_555 1_555
Ag1F N3F 1_555 1_555
Ag1D O2D 1_555 1_555
N2_2 Ag1 1_555 1_555
C1A N1 1_555 1_555
C2A N2 1_555 1_555
H1A C1A 1_555 1_555
H2A C2A 1_555 1_555
N3F C3F 1_555 1_555
N3A Ag1 1_555 1_555
C3F C4 1_555 1_555
C4F C3 1_555 1_555
H3F C3F 1_555 1_555
H4F C4F 1_555 1_555
S1D O1D 1_555 1_555
O2D S1D 1_555 1_555
O2A Ag1 1_555 1_555
O3D S1D 1_555 1_555
O4D S1D 1_555 1_555
S1 O2 1_555 1_555
C1A C2A 1_555 1_555
N3F C4F 1_555 1_555

#END
