
#######################################################################
#
#                 Cambridge Crystallographic Data Centre
#                                CCDC 
#
#######################################################################
#
# If this CIF has been generated from an entry in the Cambridge 
# Structural Database, then it will include bibliographic, chemical, 
# crystal, experimental, refinement or atomic coordinate data resulting 
# from the CCDC's data processing and validation procedures.
#
#######################################################################

data_XUHGOX
_symmetry_cell_setting           monoclinic
_symmetry_space_group_name_H-M   'C 2/c'
_symmetry_Int_Tables_number      15
_space_group_name_Hall           '-C 2yn'
loop_
_symmetry_equiv_pos_site_id
_symmetry_equiv_pos_as_xyz
1 x,y,z
2 -x,y,1/2-z
3 1/2+x,1/2+y,z
4 1/2-x,1/2+y,1/2-z
5 -x,-y,-z
6 x,-y,1/2+z
7 1/2-x,1/2-y,-z
8 1/2+x,1/2-y,1/2+z
_cell_length_a                   22.547(4)
_cell_length_b                   8.0858(13)
_cell_length_c                   15.003(2)
_cell_angle_alpha                90
_cell_angle_beta                 113.843(2)
_cell_angle_gamma                90
_cell_volume                     2501.77
loop_
_atom_site_label
_atom_site_type_symbol
_atom_site_fract_x
_atom_site_fract_y
_atom_site_fract_z
Hg1 Hg 0.085219(9) 0.57894(2) 0.202553(13)
S1 S 0.09709(10) 0.31243(19) 0.28096(13)
S2 S 0.10796(7) 0.69467(16) 0.06791(10)
N1 N 0.16164(17) 0.7593(5) 0.3240(3)
N2 N 0.03331(16) 0.7852(4) 0.2640(3)
N3 N 0.1375(3) 0.1122(7) 0.1619(5)
N4 N 0.0401(3) 0.4688(7) -0.0803(4)
C1 C 0.2247(2) 0.7625(7) 0.3421(4)
H1 H 0.2405 0.6889 0.3093
C2 C 0.2674(3) 0.8722(8) 0.4083(5)
H2 H 0.3110 0.8731 0.4192
C3 C 0.2439(3) 0.9797(7) 0.4576(5)
H3 H 0.2716 1.0538 0.5028
C4 C 0.1792(2) 0.9755(6) 0.4389(4)
H4 H 0.1625 1.0465 0.4719
C5 C 0.1387(2) 0.8652(6) 0.3708(3)
C6 C 0.0670(2) 0.8638(5) 0.3420(3)
C7 C 0.0387(2) 0.9593(7) 0.4007(4)
H5 H 0.0322 1.0721 0.3789
H6 H 0.0679 0.9557 0.4683
H7 H -0.0021 0.9113 0.3927
C8 C 0.1214(3) 0.1972(7) 0.2080(4)
C9 C 0.0673(3) 0.5586(6) -0.0183(4)
Hg1D Hg -0.085219(9) 0.42106(2) -0.202553(13)
Hg1A Hg -0.085219(9) 0.57894(2) 0.297447(13)
S1D S -0.09709(10) 0.68757(19) -0.28096(13)
S2D S -0.10796(7) 0.30533(16) -0.06791(10)
N1A N -0.16164(17) 0.7593(5) 0.1760(3)
N1D N -0.16164(17) 0.2407(5) -0.3240(3)
N2A N -0.03331(16) 0.7852(4) 0.2360(3)
N2D N -0.03331(16) 0.2148(4) -0.2640(3)
N3D N -0.1375(3) 0.8878(7) -0.1619(5)
N4D N -0.0401(3) 0.5312(7) 0.0803(4)
C1A C -0.2247(2) 0.7625(7) 0.1579(4)
H1A H -0.2405 0.6889 0.1907
C2A C -0.2674(3) 0.8722(8) 0.0917(5)
H2A H -0.3110 0.8731 0.0808
C3A C -0.2439(3) 0.9797(7) 0.0424(5)
H3A H -0.2716 1.0538 -0.0028
C4A C -0.1792(2) 0.9755(6) 0.0611(4)
H4A H -0.1625 1.0465 0.0281
C5A C -0.1387(2) 0.8652(6) 0.1292(3)
C6A C -0.0670(2) 0.8638(5) 0.1580(3)
C7A C -0.0387(2) 0.9593(7) 0.0993(4)
H5A H -0.0322 1.0721 0.1211
H6A H -0.0679 0.9557 0.0317
H7A H 0.0021 0.9113 0.1073
C8D C -0.1214(3) 0.8028(7) -0.2080(4)
C9D C -0.0673(3) 0.4414(6) 0.0183(4)
loop_
_geom_bond_atom_site_label_1
_geom_bond_atom_site_label_2
_geom_bond_site_symmetry_1
_geom_bond_site_symmetry_2
Hg1 S1 1_555 1_555
S1 C8 1_555 1_555
S2 Hg1 1_555 1_555
N1 Hg1 1_555 1_555
N2 Hg1 1_555 1_555
N3 C8 1_555 1_555
N4 C9 1_555 1_555
C1 N1 1_555 1_555
H1 C1 1_555 1_555
C2 C1 1_555 1_555
H2 C2 1_555 1_555
C3 C2 1_555 1_555
H3 C3 1_555 1_555
C4 C3 1_555 1_555
H4 C4 1_555 1_555
C5 N1 1_555 1_555
C6 N2 1_555 1_555
C7 C6 1_555 1_555
H5 C7 1_555 1_555
H6 C7 1_555 1_555
H7 C7 1_555 1_555
C9 S2 1_555 1_555
Hg1D N4 1_555 1_555
Hg1A N1A 1_555 1_555
S1D Hg1D 1_555 1_555
S2D Hg1D 1_555 1_555
N1A C1A 1_555 1_555
N1D Hg1D 1_555 1_555
N2A N2 1_555 1_555
N2D Hg1D 1_555 1_555
N3D C8D 1_555 1_555
N4D Hg1 1_555 1_555
C1A H1A 1_555 1_555
C2A C1A 1_555 1_555
H2A C2A 1_555 1_555
C3A C2A 1_555 1_555
H3A C3A 1_555 1_555
C4A C3A 1_555 1_555
H4A C4A 1_555 1_555
C5A N1A 1_555 1_555
C6A N2A 1_555 1_555
C7A C6A 1_555 1_555
H5A C7A 1_555 1_555
H6A C7A 1_555 1_555
H7A C7A 1_555 1_555
C8D S1D 1_555 1_555
C9D S2D 1_555 1_555
C4 C5 1_555 1_555
C5 C6 1_555 1_555
Hg1A N2A 1_555 1_555
N4D C9D 1_555 1_555
C4A C5A 1_555 1_555
C5A C6A 1_555 1_555

#END
