
#######################################################################
#
#                 Cambridge Crystallographic Data Centre
#                                CCDC 
#
#######################################################################
#
# If this CIF has been generated from an entry in the Cambridge 
# Structural Database, then it will include bibliographic, chemical, 
# crystal, experimental, refinement or atomic coordinate data resulting 
# from the CCDC's data processing and validation procedures.
#
#######################################################################

data_XUHSID
_symmetry_cell_setting           trigonal
_symmetry_space_group_name_H-M   'P 3 1 c'
_symmetry_Int_Tables_number      159
_space_group_name_Hall           "P 3 -2'c"
loop_
_symmetry_equiv_pos_site_id
_symmetry_equiv_pos_as_xyz
1 x,y,z
2 -y,x-y,z
3 -x+y,-x,z
4 y,x,1/2+z
5 -x,-x+y,1/2+z
6 x-y,-y,1/2+z
_cell_length_a                   13.5658(10)
_cell_length_b                   13.5658(10)
_cell_length_c                   24.835(4)
_cell_angle_alpha                90
_cell_angle_beta                 90
_cell_angle_gamma                120
_cell_volume                     3958.09
loop_
_atom_site_label
_atom_site_type_symbol
_atom_site_fract_x
_atom_site_fract_y
_atom_site_fract_z
Zn1 Zn 0.6667 0.3333 0.00876(9)
Zn2 Zn 0.78138(8) 0.60459(9) 0.07614(4)
Zn3 Zn 0.93717(9) 0.48930(9) -0.05861(4)
Zn4 Zn 1.3333 0.6667 -0.10527(10)
Zn5 Zn 1.0000 1.0000 0.12130(13)
P1 P 0.7729(2) 0.5832(2) -0.04762(11)
P2 P 0.5222(2) 0.4383(2) 0.06685(11)
O1 O 1.1026(6) 0.5737(6) -0.0845(3)
O2 O 1.2250(6) 0.7051(6) -0.1384(3)
O3 O 0.4433(6) 0.3327(5) 0.0975(3)
O4 O 0.6368(5) 0.4463(5) 0.0557(3)
O5 O 0.8636(6) 0.7686(6) 0.1051(3)
O6 O 0.7783(5) 0.4757(5) -0.0362(3)
O7 O 0.6653(5) 0.5578(6) -0.0770(3)
O8 O 0.8505(6) 0.8934(6) 0.1559(3)
O9 O 0.7921(6) 0.6555(5) 0.0015(3)
N1 N 0.6662(7) 0.5923(6) 0.1398(4)
O10 O 0.4682(6) 0.4565(6) 0.0171(3)
C1 C 0.8916(9) 0.6639(9) -0.0926(4)
H1 H 0.8713 0.7043 -0.1185
H2 H 0.9564 0.7197 -0.0721
N2 N 0.9226(7) 0.5897(7) -0.1210(4)
C2 C 0.8168(9) 0.7945(8) 0.1402(4)
C3 C 1.1262(8) 0.6436(8) -0.1214(5)
C4 C 0.5613(8) 0.5598(9) 0.1105(5)
H3 H 0.5710 0.6237 0.0889
H4 H 0.5003 0.5413 0.1360
O11 O 1.0000 1.0000 0.0436(9)
C5 C 0.6506(10) 0.5048(10) 0.1814(5)
H5 H 0.5757 0.4711 0.1977
H6 H 0.6608 0.4451 0.1658
C6 C 0.8358(10) 0.5192(11) -0.1604(6)
H7 H 0.8065 0.5620 -0.1791
H8 H 0.7732 0.4527 -0.1437
C7 C 1.0337(9) 0.6540(10) -0.1512(5)
H9 H 1.0553 0.7342 -0.1552
C8 C 0.7128(10) 0.7034(9) 0.1686(5)
H10 H 0.6546 0.7259 0.1713
C9 C 0.9046(13) 0.4852(14) -0.1993(6)
H11 H 0.9179 0.4274 -0.1835
H12 H 0.8663 0.4582 -0.2336
C10 C 0.7436(16) 0.6802(13) 0.2252(6)
H13 H 0.8186 0.7404 0.2357
H14 H 0.6887 0.6757 0.2516
C11 C 0.7413(12) 0.5719(14) 0.2216(6)
H15 H 0.7231 0.5337 0.2562
H16 H 0.8142 0.5831 0.2096
C12 C 1.0147(13) 0.5982(16) -0.2052(6)
H17 H 1.0773 0.5861 -0.2144
H18 H 1.0074 0.6445 -0.2328
O12 O 1.3333 0.6667 -0.0255(9)
Zn2A Zn 0.39541(9) 0.17679(12) 0.07614(4)
Zn2B Zn 0.82321(12) 0.21862(8) 0.07614(4)
Zn3A Zn 0.51070(9) 0.44787(13) -0.05861(4)
Zn3B Zn 0.55213(13) 0.06283(9) -0.05861(4)
Zn4A Zn 0.3333 0.6666 -0.10527(10)
Zn4B Zn 0.3334 -0.3333 -0.10527(10)
Zn5_2 Zn 0.0000 0.0000 0.12130(13)
Zn5_3 Zn 1.0000 0.0000 0.12130(13)
P1A P 0.4168(2) 0.1897(3) -0.04762(11)
P1B P 0.8103(3) 0.2271(2) -0.04762(11)
P2A P 0.5617(2) 0.0839(3) 0.06685(11)
P2B P 0.9161(3) 0.4778(2) 0.06685(11)
O1A O 0.4263(6) 0.5289(8) -0.0845(3)
O1B O 0.4711(8) -0.1026(6) -0.0845(3)
O2A O 0.2949(6) 0.5199(8) -0.1384(3)
O2B O 0.4801(8) -0.2250(6) -0.1384(3)
O2B_2 O 1.4801(8) 0.7750(6) -0.1384(3)
O2A_2 O 1.2949(6) 0.5199(8) -0.1384(3)
O3A O 0.6673(5) 0.1106(8) 0.0975(3)
O3B O 0.8894(8) 0.5567(6) 0.0975(3)
O4A O 0.5537(5) 0.1905(7) 0.0557(3)
O4B O 0.8095(7) 0.3632(5) 0.0557(3)
O5A O 0.2314(6) 0.0950(8) 0.1051(3)
O5B O 0.9050(8) 0.1364(6) 0.1051(3)
O6A O 0.5243(5) 0.3026(7) -0.0362(3)
O6B O 0.6974(7) 0.2217(5) -0.0362(3)
O7A O 0.4422(6) 0.1075(8) -0.0770(3)
O7B O 0.8925(8) 0.3347(5) -0.0770(3)
O8A O 0.1066(6) -0.0429(8) 0.1559(3)
O8B O 1.0429(8) 0.1495(6) 0.1559(3)
O8A_2 O 1.1066(6) 0.9571(8) 0.1559(3)
O8B_2 O 1.0429(8) 1.1495(6) 0.1559(3)
O9A O 0.3445(5) 0.1366(8) 0.0015(3)
O9B O 0.8634(8) 0.2079(6) 0.0015(3)
N1A N 0.4077(6) 0.0739(9) 0.1398(4)
N1B N 0.9261(9) 0.3338(7) 0.1398(4)
O10A O 0.5435(6) 0.0117(8) 0.0171(3)
O10B O 0.9883(8) 0.5318(6) 0.0171(3)
C1A C 0.3361(9) 0.2277(13) -0.0926(4)
C1B C 0.7723(13) 0.1084(9) -0.0926(4)
H1A H 0.2957 0.1670 -0.1185
H1B H 0.8330 0.1287 -0.1185
H2A H 0.2803 0.2367 -0.0721
H2B H 0.7633 0.0436 -0.0721
N2A N 0.4103(7) 0.3329(10) -0.1210(4)
N2B N 0.6671(10) 0.0774(7) -0.1210(4)
C2A C 0.2055(8) 0.0223(12) 0.1402(4)
C2B C 0.9777(12) 0.1832(9) 0.1402(4)
C3A C 0.3564(8) 0.4826(11) -0.1214(5)
C3B C 0.5174(11) -0.1262(8) -0.1214(5)
C4A C 0.4402(9) 0.0015(12) 0.1105(5)
C4B C 0.9985(12) 0.4387(8) 0.1105(5)
H3A H 0.3763 -0.0527 0.0889
H3B H 1.0527 0.4290 0.0889
H4A H 0.4587 -0.0410 0.1360
H4B H 1.0410 0.4997 0.1360
C5A C 0.4952(10) 0.1458(14) 0.1814(5)
C5B C 0.8542(14) 0.3494(10) 0.1814(5)
H5A H 0.5289 0.1046 0.1977
H5B H 0.8954 0.4243 0.1977
H6A H 0.5549 0.2157 0.1658
H6B H 0.7843 0.3392 0.1658
C6A C 0.4808(11) 0.3166(15) -0.1604(6)
C6B C 0.6834(15) 0.1642(10) -0.1604(6)
H7A H 0.4380 0.2445 -0.1791
H7B H 0.7555 0.1935 -0.1791
H8A H 0.5473 0.3205 -0.1437
H8B H 0.6795 0.2268 -0.1437
C7A C 0.3460(10) 0.3797(13) -0.1512(5)
C7B C 0.6203(13) -0.0337(9) -0.1512(5)
H9A H 0.2658 0.3211 -0.1552
H9B H 0.6789 -0.0553 -0.1552
C8A C 0.2966(9) 0.0094(13) 0.1686(5)
C8B C 0.9906(13) 0.2872(10) 0.1686(5)
H10A H 0.2741 -0.0713 0.1713
H10B H 1.0713 0.3454 0.1713
C9A C 0.5148(14) 0.4194(19) -0.1993(6)
C9B C 0.5806(19) 0.0954(13) -0.1993(6)
H11A H 0.5726 0.4905 -0.1835
H11B H 0.5095 0.0821 -0.1835
H12A H 0.5418 0.4081 -0.2336
H12B H 0.5919 0.1337 -0.2336
C10A C 0.3198(13) 0.0634(21) 0.2252(6)
C10B C 0.9366(21) 0.2564(16) 0.2252(6)
H13A H 0.2596 0.0782 0.2357
H13B H 0.9218 0.1814 0.2357
H14A H 0.3243 0.0130 0.2516
H14B H 0.9870 0.3113 0.2516
C11A C 0.4281(14) 0.1694(18) 0.2216(6)
C11B C 0.8306(18) 0.2587(12) 0.2216(6)
H15A H 0.4663 0.1894 0.2562
H15B H 0.8106 0.2769 0.2562
H16A H 0.4169 0.2311 0.2096
H16B H 0.7689 0.1858 0.2096
C12A C 0.4018(16) 0.4165(21) -0.2052(6)
C12B C 0.5835(21) -0.0147(13) -0.2052(6)
H17A H 0.4139 0.4912 -0.2144
H17B H 0.5088 -0.0773 -0.2144
H18A H 0.3555 0.3629 -0.2328
H18B H 0.6371 -0.0074 -0.2328
O13 O 0.2785(9) 0.3289(10) 0.1708(5)
O14 O 0.6679(15) 0.7201(16) 0.8572(8)
O15 O 0.1954(13) 0.7305(13) 0.0240(7)
O16 O 0.787(2) 0.8633(19) -0.0024(9)
O17 O 0.2811(19) 0.529(2) 0.1521(16)
loop_
_geom_bond_atom_site_label_1
_geom_bond_atom_site_label_2
_geom_bond_site_symmetry_1
_geom_bond_site_symmetry_2
Zn1 O4 1_555 1_555
Zn2 O4 1_555 1_555
Zn3 O1 1_555 1_555
Zn4 O2 1_555 1_555
Zn5 O8 1_555 1_555
P1 O6 1_555 1_555
P2 O3 1_555 1_555
O1 C3 1_555 1_555
O2 C3 1_555 1_555
O3 Zn2A 1_555 1_555
O4 P2 1_555 1_555
O5 Zn2 1_555 1_555
O6 Zn1 1_555 1_555
O7 P1 1_555 1_555
O8 C2 1_555 1_555
O9 Zn2 1_555 1_555
N1 Zn2 1_555 1_555
O10 P2 1_555 1_555
C1 P1 1_555 1_555
H1 C1 1_555 1_555
H2 C1 1_555 1_555
N2 Zn3 1_555 1_555
C2 O5 1_555 1_555
C3 C7 1_555 1_555
C4 P2 1_555 1_555
H3 C4 1_555 1_555
H4 C4 1_555 1_555
O11 Zn5 1_555 1_555
C5 N1 1_555 1_555
H5 C5 1_555 1_555
H6 C5 1_555 1_555
C6 N2 1_555 1_555
H7 C6 1_555 1_555
H8 C6 1_555 1_555
C7 N2 1_555 1_555
H9 C7 1_555 1_555
C8 N1 1_555 1_555
H10 C8 1_555 1_555
C9 C6 1_555 1_555
H11 C9 1_555 1_555
H12 C9 1_555 1_555
C10 C8 1_555 1_555
H13 C10 1_555 1_555
H14 C10 1_555 1_555
C11 C5 1_555 1_555
H15 C11 1_555 1_555
H16 C11 1_555 1_555
C12 C7 1_555 1_555
H17 C12 1_555 1_555
H18 C12 1_555 1_555
O12 Zn4 1_555 1_555
Zn2A O4A 1_555 1_555
Zn2B O3A 1_555 1_555
Zn3A O7 1_555 1_555
Zn3B O1B 1_555 1_555
Zn4A O2A 1_555 1_555
Zn4B O2B 1_555 1_555
Zn5_2 O8A 1_555 1_555
Zn5_3 O8B 1_555 1_555
P1A O6A 1_555 1_555
P1B O6B 1_555 1_555
P2A O3A 1_555 1_555
P2B O3B 1_555 1_555
O1A Zn3A 1_555 1_555
O1B C3B 1_555 1_555
O2A C3A 1_555 1_555
O2B C3B 1_555 1_555
O2B_2 Zn4 1_555 1_555
O2A_2 Zn4 1_555 1_555
O3B Zn2 1_555 1_555
O4A Zn1 1_555 1_555
O4B Zn1 1_555 1_555
O5A Zn2A 1_555 1_555
O5B Zn2B 1_555 1_555
O6A Zn1 1_555 1_555
O6B Zn1 1_555 1_555
O7A Zn3B 1_555 1_555
O7B Zn3 1_555 1_555
O8A C2A 1_555 1_555
O8B C2B 1_555 1_555
O8A_2 Zn5 1_555 1_555
O8B_2 Zn5 1_555 1_555
O9A Zn2A 1_555 1_555
O9B Zn2B 1_555 1_555
N1A Zn2A 1_555 1_555
N1B Zn2B 1_555 1_555
O10A Zn3B 1_555 1_555
O10B Zn3 1_555 1_555
C1A P1A 1_555 1_555
C1B P1B 1_555 1_555
H1A C1A 1_555 1_555
H1B C1B 1_555 1_555
H2A C1A 1_555 1_555
H2B C1B 1_555 1_555
N2A Zn3A 1_555 1_555
N2B Zn3B 1_555 1_555
C2A O5A 1_555 1_555
C2B O5B 1_555 1_555
C3A O1A 1_555 1_555
C3B C7B 1_555 1_555
C4A P2A 1_555 1_555
C4B P2B 1_555 1_555
H3A C4A 1_555 1_555
H3B C4B 1_555 1_555
H4A C4A 1_555 1_555
H4B C4B 1_555 1_555
C5A N1A 1_555 1_555
C5B N1B 1_555 1_555
H5A C5A 1_555 1_555
H5B C5B 1_555 1_555
H6A C5A 1_555 1_555
H6B C5B 1_555 1_555
C6A N2A 1_555 1_555
C6B N2B 1_555 1_555
H7A C6A 1_555 1_555
H7B C6B 1_555 1_555
H8A C6A 1_555 1_555
H8B C6B 1_555 1_555
C7A N2A 1_555 1_555
C7B N2B 1_555 1_555
H9A C7A 1_555 1_555
H9B C7B 1_555 1_555
C8A N1A 1_555 1_555
C8B N1B 1_555 1_555
H10A C8A 1_555 1_555
H10B C8B 1_555 1_555
C9A C6A 1_555 1_555
C9B C6B 1_555 1_555
H11A C9A 1_555 1_555
H11B C9B 1_555 1_555
H12A C9A 1_555 1_555
H12B C9B 1_555 1_555
C10A C8A 1_555 1_555
C10B C8B 1_555 1_555
H13A C10A 1_555 1_555
H13B C10B 1_555 1_555
H14A C10A 1_555 1_555
H14B C10B 1_555 1_555
C11A C5A 1_555 1_555
C11B C5B 1_555 1_555
H15A C11A 1_555 1_555
H15B C11B 1_555 1_555
H16A C11A 1_555 1_555
H16B C11B 1_555 1_555
C12A C7A 1_555 1_555
C12B C7B 1_555 1_555
H17A C12A 1_555 1_555
H17B C12B 1_555 1_555
H18A C12A 1_555 1_555
H18B C12B 1_555 1_555
Zn3 O6 1_555 1_555
P1 O9 1_555 1_555
N1 C4 1_555 1_555
O10 Zn3A 1_555 1_555
C1 N2 1_555 1_555
C2 C8 1_555 1_555
C9 C12 1_555 1_555
C10 C11 1_555 1_555
Zn2B O4B 1_555 1_555
Zn3A O6A 1_555 1_555
Zn3B O6B 1_555 1_555
P1A O7A 1_555 1_555
P1A O9A 1_555 1_555
P1B O7B 1_555 1_555
P1B O9B 1_555 1_555
P2A O4A 1_555 1_555
P2A O10A 1_555 1_555
P2B O4B 1_555 1_555
P2B O10B 1_555 1_555
N1A C4A 1_555 1_555
N1B C4B 1_555 1_555
C1A N2A 1_555 1_555
C1B N2B 1_555 1_555
C2A C8A 1_555 1_555
C2B C8B 1_555 1_555
C3A C7A 1_555 1_555
C9A C12A 1_555 1_555
C9B C12B 1_555 1_555
C10A C11A 1_555 1_555
C10B C11B 1_555 1_555

#END
