
#######################################################################
#
#                 Cambridge Crystallographic Data Centre
#                                CCDC 
#
#######################################################################
#
# If this CIF has been generated from an entry in the Cambridge 
# Structural Database, then it will include bibliographic, chemical, 
# crystal, experimental, refinement or atomic coordinate data resulting 
# from the CCDC's data processing and validation procedures.
#
#######################################################################

data_XUHSOI
_symmetry_cell_setting           orthorhombic
_symmetry_space_group_name_H-M   'I 2 m m'
_symmetry_Int_Tables_number      44
_space_group_name_Hall           'I -2 2'
loop_
_symmetry_equiv_pos_site_id
_symmetry_equiv_pos_as_xyz
1 x,y,z
2 x,-y,-z
3 x,y,-z
4 x,-y,z
5 1/2+x,1/2+y,1/2+z
6 1/2+x,1/2-y,1/2-z
7 1/2+x,1/2+y,1/2-z
8 1/2+x,1/2-y,1/2+z
_cell_length_a                   7.1960(10)
_cell_length_b                   7.7840(10)
_cell_length_c                   16.1820(10)
_cell_angle_alpha                90
_cell_angle_beta                 90
_cell_angle_gamma                90
_cell_volume                     906.413
loop_
_atom_site_label
_atom_site_type_symbol
_atom_site_fract_x
_atom_site_fract_y
_atom_site_fract_z
Cd1 Cd 0.38554(5) 1.0000 0.194343(10)
O1 O 0.2126(3) 0.8084(2) 0.26788(11)
O2 O 0.0188(3) 0.7316(2) 0.36742(12)
O3 O 0.6138(4) 1.0000 0.29606(17)
N1 N 0.1903(3) 1.0000 0.07577(15)
N2 N -0.0509(4) 1.1567(4) 0.0000
C1 C 0.3048(6) 1.0000 0.0000
H1 H 0.3841 1.1007 0.0000
H2 H 0.3841 0.8993 0.0000
C2 C 0.0685(3) 1.1559(3) 0.07317(14)
H3 H -0.0084 1.1589 0.1224
H4 H 0.1455 1.2581 0.0730
C3 C -0.1652(6) 1.0000 0.0000
H5 H -0.2445 1.0000 -0.0485
H6 H -0.2445 1.0000 0.0485
C4 C 0.1678(5) 1.0000 0.3830(2)
H7 H 0.2972 1.0000 0.3998
H8 H 0.0928 1.0000 0.4329
C5 C 0.1288(3) 0.8356(3) 0.33542(13)
H9 H 0.688(3) 1.077(4) 0.2841(16)
C5C C 0.1288(3) 1.1644(3) 0.33542(13)
O1C O 0.2126(3) 1.1916(2) 0.26788(11)
O2C O 0.0188(3) 1.2684(2) 0.36742(12)
H9C H 0.688(3) 0.923(4) 0.2841(16)
N1A N 0.1903(3) 1.0000 -0.07577(15)
C2A C 0.0685(3) 0.8441(3) -0.07317(14)
N2A N -0.0509(4) 0.8433(4) 0.0000
C2C C 0.0685(3) 0.8441(3) 0.07317(14)
C2B C 0.0685(3) 1.1559(3) -0.07317(14)
H3B H -0.0084 1.1589 -0.1224
H4B H 0.1455 1.2581 -0.0730
H3C H -0.0084 0.8411 0.1224
H4C H 0.1455 0.7419 0.0730
H3A H -0.0084 0.8411 -0.1224
H4A H 0.1455 0.7419 -0.0730
O1E O 0.7126(3) 0.6916(2) 0.23212(11)
O2E O 0.5188(3) 0.7684(2) 0.13258(12)
C4E C 0.6678(5) 0.5000 0.1170(2)
H7E H 0.7972 0.5000 0.1002
H8E H 0.5928 0.5000 0.0671
C5E C 0.6288(3) 0.6644(3) 0.16458(13)
C5F C 0.6288(3) 0.3356(3) 0.16458(13)
O1F O 0.7126(3) 0.3084(2) 0.23212(11)
O2F O 0.5188(3) 0.2316(2) 0.13258(12)
Cd1E Cd 0.88554(5) 0.5000 0.305657(10)
O3E O 1.1138(4) 0.5000 0.20394(17)
H9E H 1.188(3) 0.423(4) 0.2159(16)
H9F H 1.188(3) 0.577(4) 0.2159(16)
O2F_2 O 0.5188(3) 1.2316(2) 0.13258(12)
Cd1E_2 Cd -0.11446(5) 0.5000 0.305657(10)
Cd1E_3 Cd -0.11446(5) 1.5000 0.305657(10)
Cd1A Cd 0.38554(5) 1.0000 -0.194343(10)
Cd1_2 Cd 0.38554(5) 0.0000 0.194343(10)
O2_2 O 1.0188(3) 0.7316(2) 0.36742(12)
O2C_2 O 1.0188(3) 0.2684(2) 0.36742(12)
N1E N 0.6903(3) 0.5000 0.42423(15)
loop_
_geom_bond_atom_site_label_1
_geom_bond_atom_site_label_2
_geom_bond_site_symmetry_1
_geom_bond_site_symmetry_2
Cd1 O1 1_555 1_555
O1 C5 1_555 1_555
O2 C5 1_555 1_555
O3 Cd1 1_555 1_555
N1 Cd1 1_555 1_555
N2 C2 1_555 1_555
C1 N1 1_555 1_555
H1 C1 1_555 1_555
H2 C1 1_555 1_555
C2 N1 1_555 1_555
H3 C2 1_555 1_555
H4 C2 1_555 1_555
C3 N2 1_555 1_555
H5 C3 1_555 1_555
H6 C3 1_555 1_555
C4 H7 1_555 1_555
H8 C4 1_555 1_555
C5 C4 1_555 1_555
H9 O3 1_555 1_555
C5C C4 1_555 1_555
O1C Cd1 1_555 1_555
O2C C5C 1_555 1_555
H9C O3 1_555 1_555
N1A C1 1_555 1_555
C2A N1A 1_555 1_555
N2A C3 1_555 1_555
C2C N1 1_555 1_555
C2B N2 1_555 1_555
H3B C2B 1_555 1_555
H4B C2B 1_555 1_555
H3C C2C 1_555 1_555
H4C C2C 1_555 1_555
H3A C2A 1_555 1_555
H4A C2A 1_555 1_555
O1E C5E 1_555 1_555
O2E Cd1 1_555 1_555
C4E H7E 1_555 1_555
H8E C4E 1_555 1_555
C5E O2E 1_555 1_555
C5F C4E 1_555 1_555
O1F C5F 1_555 1_555
O2F C5F 1_555 1_555
Cd1E O1E 1_555 1_555
O3E Cd1E 1_555 1_555
H9E O3E 1_555 1_555
H9F O3E 1_555 1_555
O2F_2 Cd1 1_555 1_555
Cd1E_2 O2 1_555 1_555
Cd1E_3 O2C 1_555 1_555
Cd1A N1A 1_555 1_555
Cd1_2 O2F 1_555 1_555
O2_2 Cd1E 1_555 1_555
O2C_2 Cd1E 1_555 1_555
N1E Cd1E 1_555 1_555
C5C O1C 1_555 1_555
N1A C2B 1_555 1_555
C2A N2A 1_555 1_555
N2A C2C 1_555 1_555
C4E C5E 1_555 1_555
O1F Cd1E 1_555 1_555

#END
