
#######################################################################
#
#                 Cambridge Crystallographic Data Centre
#                                CCDC 
#
#######################################################################
#
# If this CIF has been generated from an entry in the Cambridge 
# Structural Database, then it will include bibliographic, chemical, 
# crystal, experimental, refinement or atomic coordinate data resulting 
# from the CCDC's data processing and validation procedures.
#
#######################################################################

data_XUHSUO
_symmetry_cell_setting           monoclinic
_symmetry_space_group_name_H-M   'P 2/c'
_symmetry_Int_Tables_number      13
_space_group_name_Hall           '-P 2yc'
loop_
_symmetry_equiv_pos_site_id
_symmetry_equiv_pos_as_xyz
1 x,y,z
2 x,-y,1/2+z
3 -x,-y,-z
4 -x,y,1/2-z
_cell_length_a                   6.807(3)
_cell_length_b                   11.531(4)
_cell_length_c                   12.358(4)
_cell_angle_alpha                90
_cell_angle_beta                 102.92(2)
_cell_angle_gamma                90
_cell_volume                     945.441
loop_
_atom_site_label
_atom_site_type_symbol
_atom_site_fract_x
_atom_site_fract_y
_atom_site_fract_z
Mn1 Mn 0.5000 0.63995(3) 0.2500
O1 O 0.7013(3) 0.64776(15) 0.13222(16)
H1 H 0.775(4) 0.7180(16) 0.134(3)
H2 H 0.797(4) 0.5883(17) 0.133(3)
O2 O 0.2312(3) 0.62468(16) 0.11559(15)
H3 H 0.145(4) 0.563(2) 0.116(2)
H4 H 0.191(5) 0.664(2) 0.0482(19)
N1 N 0.5000 0.8309(2) 0.2500
N2 N 0.5000 1.4457(2) 0.2500
C1 C 0.4241(4) 0.89176(19) 0.15788(19)
H5 H 0.3710 0.8512 0.0929
C2 C 0.4202(4) 1.01164(18) 0.15409(19)
H6 H 0.3648 1.0499 0.0881
C3 C 0.5000 1.0744(2) 0.2500
C4 C 0.5000 1.2026(2) 0.2500
C5 C 0.4655(3) 1.26564(17) 0.15125(17)
H7 H 0.4422 1.2273 0.0834
C6 C 0.4663(4) 1.38488(18) 0.15489(17)
H8 H 0.4422 1.4254 0.0882
C2C C 0.5798(4) 1.01164(18) 0.34591(19)
C1C C 0.5759(4) 0.89176(19) 0.34212(19)
H5C H 0.6290 0.8512 0.4071
H6C H 0.6352 1.0499 0.4119
C6C C 0.5337(4) 1.38488(18) 0.34511(17)
C5C C 0.5345(3) 1.26564(17) 0.34875(17)
H7C H 0.5578 1.2273 0.4166
H8C H 0.5578 1.4254 0.4118
O1C O 0.2987(3) 0.64776(15) 0.36778(16)
H1C H 0.225(4) 0.7180(16) 0.366(3)
H2C H 0.203(4) 0.5883(17) 0.367(3)
O2C O 0.7688(3) 0.62468(16) 0.38441(15)
H3C H 0.855(4) 0.563(2) 0.384(2)
H4C H 0.809(5) 0.664(2) 0.4518(19)
N2_2 N 0.5000 0.4457(2) 0.2500
Mn1_2 Mn 0.5000 1.63995(3) 0.2500
O3 O 1.0000 0.0612(2) 0.2500
O4 O 0.9010(3) 0.21335(17) 0.05344(13)
O5 O 0.9445(3) 0.45204(15) 0.12726(15)
C7 C 1.0000 0.1678(3) 0.2500
C8 C 0.9520(3) 0.24498(19) 0.15165(17)
C9 C 0.9716(3) 0.36465(18) 0.19003(17)
C9C C 1.0284(3) 0.36465(18) 0.30997(17)
O5C O 1.0555(3) 0.45204(15) 0.37274(15)
C8C C 1.0480(3) 0.24498(19) 0.34835(17)
O4C O 1.0990(3) 0.21335(17) 0.44656(13)
O6 O 0.8624(3) -0.13508(17) 0.09583(19)
H9 H 0.963(4) -0.141(3) 0.056(3)
H10 H 0.894(5) -0.075(2) 0.146(2)
loop_
_geom_bond_atom_site_label_1
_geom_bond_atom_site_label_2
_geom_bond_site_symmetry_1
_geom_bond_site_symmetry_2
Mn1 O1 1_555 1_555
O1 H1 1_555 1_555
H2 O1 1_555 1_555
O2 Mn1 1_555 1_555
H3 O2 1_555 1_555
H4 O2 1_555 1_555
N1 Mn1 1_555 1_555
N2 C6 1_555 1_555
C1 N1 1_555 1_555
H5 C1 1_555 1_555
C2 C1 1_555 1_555
H6 C2 1_555 1_555
C3 C2 1_555 1_555
C4 C3 1_555 1_555
C5 C4 1_555 1_555
H7 C5 1_555 1_555
C6 C5 1_555 1_555
H8 C6 1_555 1_555
O3 C7 1_555 1_555
O4 C8 1_555 1_555
O5 C9 1_555 1_555
C7 C8 1_555 1_555
C8 C9 1_555 1_555
C9 C9C 1_555 1_555
O6 H9 1_555 1_555
H10 O6 1_555 1_555
C2C C3 1_555 1_555
C1C N1 1_555 1_555
H5C C1C 1_555 1_555
H6C C2C 1_555 1_555
C6C N2 1_555 1_555
C5C C4 1_555 1_555
H7C C5C 1_555 1_555
H8C C6C 1_555 1_555
C9C O5C 1_555 1_555
C8C C7 1_555 1_555
O4C C8C 1_555 1_555
O1C Mn1 1_555 1_555
H1C O1C 1_555 1_555
H2C O1C 1_555 1_555
O2C Mn1 1_555 1_555
H3C O2C 1_555 1_555
H4C O2C 1_555 1_555
N2_2 Mn1 1_555 1_555
Mn1_2 N2 1_555 1_555
C2C C1C 1_555 1_555
C6C C5C 1_555 1_555
C9C C8C 1_555 1_555

#END
