
#######################################################################
#
#                 Cambridge Crystallographic Data Centre
#                                CCDC 
#
#######################################################################
#
# If this CIF has been generated from an entry in the Cambridge 
# Structural Database, then it will include bibliographic, chemical, 
# crystal, experimental, refinement or atomic coordinate data resulting 
# from the CCDC's data processing and validation procedures.
#
#######################################################################

data_XUHVED
_symmetry_cell_setting           monoclinic
_symmetry_space_group_name_H-M   'P 21/c'
_symmetry_Int_Tables_number      14
_space_group_name_Hall           '-P 2ybc'
loop_
_symmetry_equiv_pos_site_id
_symmetry_equiv_pos_as_xyz
1 x,y,z
2 -x,1/2+y,1/2-z
3 -x,-y,-z
4 x,1/2-y,1/2+z
_cell_length_a                   9.6145(13)
_cell_length_b                   10.9896(15)
_cell_length_c                   14.604(2)
_cell_angle_alpha                90
_cell_angle_beta                 103.789(2)
_cell_angle_gamma                90
_cell_volume                     1498.58
loop_
_atom_site_label
_atom_site_type_symbol
_atom_site_fract_x
_atom_site_fract_y
_atom_site_fract_z
Ni1 Ni 0.85298(3) 0.07693(3) 0.98582(2)
O1 O 0.80122(19) 0.00463(18) 0.85626(13)
N1 N 0.6397(2) 0.0319(2) 0.99795(15)
N2 N 0.9315(3) 0.1363(3) 1.12623(17)
C1 C 0.4150(3) 0.0768(3) 1.0293(2)
N3 N 0.9342(2) -0.0984(2) 1.03061(17)
N4 N 0.7830(2) 0.2429(2) 0.93223(16)
C2 C 0.6343(3) 0.1586(3) 0.78603(19)
N5 N 0.8908(3) -0.1813(3) 1.06692(19)
C3 C 0.6891(3) 0.2534(3) 0.8535(2)
C4 C 0.5518(3) 0.1089(3) 1.0266(2)
C5 C 0.7003(3) 0.0429(3) 0.78710(19)
C6 C 0.6541(3) -0.0317(3) 0.7065(2)
H1 H 0.6999 -0.1056 0.7031
C7 C 0.5191(3) 0.1885(3) 0.7099(2)
H2 H 0.4735 0.2630 0.7105
C8 C 0.5434(4) 0.0028(3) 0.6335(2)
H3 H 0.5155 -0.0483 0.5815
C9 C 0.8329(4) 0.3575(3) 0.9819(2)
H4 H 0.9068 0.3916 0.9545
H5 H 0.7535 0.4144 0.9697
C10 C 0.4718(4) 0.1119(3) 0.6350(2)
H6 H 0.3937 0.1325 0.5864
C11 C 0.8696(4) 0.0841(4) 1.1995(2)
H7 H 0.8545 -0.0015 1.1885
H8 H 0.7798 0.1230 1.1983
H9 H 0.9339 0.0966 1.2601
C12 C 0.9566(7) 0.2666(4) 1.1398(3)
H10 H 0.9403 0.2860 1.2012
H11 H 1.0579 0.2794 1.1445
N6 N 0.8476(4) -0.2622(4) 1.1010(3)
C13 C 0.8881(7) 0.3497(4) 1.0811(3)
H12 H 0.9499 0.4204 1.0953
H13 H 0.8057 0.3686 1.1061
H14 H 0.653(3) 0.335(3) 0.8338(19)
H15 H 1.007(4) 0.106(4) 1.133(3)
H16 H 0.357(3) 0.125(3) 1.0481(18)
H17 H 0.591(3) 0.190(3) 1.044(2)
N1B N 0.3603(2) -0.0319(2) 1.00205(15)
C1B C 0.5850(3) -0.0768(3) 0.9707(2)
C4B C 0.4482(3) -0.1089(3) 0.9734(2)
H16B H 0.643(3) -0.125(3) 0.9519(18)
H17B H 0.409(3) -0.190(3) 0.956(2)
Ni1B Ni 0.14702(3) -0.07693(3) 1.01418(2)
O1B O 0.19878(19) -0.00463(18) 1.14374(13)
N2B N 0.0685(3) -0.1363(3) 0.87377(17)
N3B N 0.0658(2) 0.0984(2) 0.96939(17)
N4B N 0.2170(2) -0.2429(2) 1.06777(16)
C2B C 0.3657(3) -0.1586(3) 1.21397(19)
N5B N 0.1092(3) 0.1813(3) 0.93308(19)
C3B C 0.3109(3) -0.2534(3) 1.1465(2)
C5B C 0.2997(3) -0.0429(3) 1.21290(19)
C6B C 0.3459(3) 0.0317(3) 1.2935(2)
H1B H 0.3001 0.1056 1.2969
C7B C 0.4809(3) -0.1885(3) 1.2901(2)
H2B H 0.5265 -0.2630 1.2895
C8B C 0.4566(4) -0.0028(3) 1.3665(2)
H3B H 0.4845 0.0483 1.4185
C9B C 0.1671(4) -0.3575(3) 1.0181(2)
H4B H 0.0932 -0.3916 1.0455
H5B H 0.2465 -0.4144 1.0303
C10B C 0.5282(4) -0.1119(3) 1.3650(2)
H6B H 0.6063 -0.1325 1.4136
C11B C 0.1304(4) -0.0841(4) 0.8005(2)
H7B H 0.1455 0.0015 0.8115
H8B H 0.2202 -0.1230 0.8017
H9B H 0.0661 -0.0966 0.7399
C12B C 0.0434(7) -0.2666(4) 0.8602(3)
H10B H 0.0597 -0.2860 0.7988
H11B H -0.0579 -0.2794 0.8555
N6B N 0.1524(4) 0.2622(4) 0.8990(3)
C13B C 0.1119(7) -0.3497(4) 0.9189(3)
H12B H 0.0501 -0.4204 0.9047
H13B H 0.1943 -0.3686 0.8939
H14B H 0.347(3) -0.335(3) 1.1662(19)
H15B H -0.007(4) -0.106(4) 0.867(3)
Ni1_2 Ni -0.14702(3) 0.07693(3) 0.98582(2)
Ni1B_2 Ni 1.14702(3) -0.07693(3) 1.01418(2)
N3_2 N -0.0658(2) -0.0984(2) 1.03061(17)
N3B_2 N 1.0658(2) 0.0984(2) 0.96939(17)
loop_
_geom_bond_atom_site_label_1
_geom_bond_atom_site_label_2
_geom_bond_site_symmetry_1
_geom_bond_site_symmetry_2
Ni1 O1 1_555 1_555
O1 C5 1_555 1_555
N1 Ni1 1_555 1_555
N2 Ni1 1_555 1_555
C1 C4 1_555 1_555
N3 Ni1 1_555 1_555
N4 Ni1 1_555 1_555
C2 C3 1_555 1_555
N5 N3 1_555 1_555
C3 N4 1_555 1_555
C4 N1 1_555 1_555
C5 C2 1_555 1_555
C6 C5 1_555 1_555
H1 C6 1_555 1_555
C7 C2 1_555 1_555
H2 C7 1_555 1_555
C8 C6 1_555 1_555
H3 C8 1_555 1_555
C9 N4 1_555 1_555
H4 C9 1_555 1_555
H5 C9 1_555 1_555
C10 C7 1_555 1_555
H6 C10 1_555 1_555
C11 N2 1_555 1_555
H7 C11 1_555 1_555
H8 C11 1_555 1_555
H9 C11 1_555 1_555
C12 N2 1_555 1_555
H10 C12 1_555 1_555
H11 C12 1_555 1_555
N6 N5 1_555 1_555
C13 C9 1_555 1_555
H12 C13 1_555 1_555
H13 C13 1_555 1_555
H14 C3 1_555 1_555
H15 N2 1_555 1_555
H16 C1 1_555 1_555
H17 C4 1_555 1_555
N1B C1 1_555 1_555
C1B N1 1_555 1_555
C4B N1B 1_555 1_555
H16B C1B 1_555 1_555
H17B C4B 1_555 1_555
Ni1B N1B 1_555 1_555
O1B Ni1B 1_555 1_555
N2B Ni1B 1_555 1_555
N3B Ni1B 1_555 1_555
N4B Ni1B 1_555 1_555
C2B C3B 1_555 1_555
N5B N3B 1_555 1_555
C3B N4B 1_555 1_555
C5B O1B 1_555 1_555
C6B C5B 1_555 1_555
H1B C6B 1_555 1_555
C7B C2B 1_555 1_555
H2B C7B 1_555 1_555
C8B C6B 1_555 1_555
H3B C8B 1_555 1_555
C9B N4B 1_555 1_555
H4B C9B 1_555 1_555
H5B C9B 1_555 1_555
C10B C7B 1_555 1_555
H6B C10B 1_555 1_555
C11B N2B 1_555 1_555
H7B C11B 1_555 1_555
H8B C11B 1_555 1_555
H9B C11B 1_555 1_555
C12B N2B 1_555 1_555
H10B C12B 1_555 1_555
H11B C12B 1_555 1_555
N6B N5B 1_555 1_555
C13B C9B 1_555 1_555
H12B C13B 1_555 1_555
H13B C13B 1_555 1_555
H14B C3B 1_555 1_555
H15B N2B 1_555 1_555
Ni1_2 N3B 1_555 1_555
Ni1B_2 N3 1_555 1_555
N3_2 Ni1B 1_555 1_555
N3B_2 Ni1 1_555 1_555
C8 C10 1_555 1_555
C12 C13 1_555 1_555
C1B C4B 1_555 1_555
C2B C5B 1_555 1_555
C8B C10B 1_555 1_555
C12B C13B 1_555 1_555
Ni1_2 N3_2 1_555 1_555
Ni1B_2 N3B_2 1_555 1_555

#END
