
#######################################################################
#
#                 Cambridge Crystallographic Data Centre
#                                CCDC 
#
#######################################################################
#
# If this CIF has been generated from an entry in the Cambridge 
# Structural Database, then it will include bibliographic, chemical, 
# crystal, experimental, refinement or atomic coordinate data resulting 
# from the CCDC's data processing and validation procedures.
#
#######################################################################

data_XUJDAI01
_symmetry_cell_setting           monoclinic
_symmetry_space_group_name_H-M   'C 2/c'
_symmetry_Int_Tables_number      15
_space_group_name_Hall           '-C 2yn'
loop_
_symmetry_equiv_pos_site_id
_symmetry_equiv_pos_as_xyz
1 x,y,z
2 -x,y,1/2-z
3 1/2+x,1/2+y,z
4 1/2-x,1/2+y,1/2-z
5 -x,-y,-z
6 x,-y,1/2+z
7 1/2-x,1/2-y,-z
8 1/2+x,1/2-y,1/2+z
_cell_length_a                   9.209(2)
_cell_length_b                   15.433(3)
_cell_length_c                   7.0430(10)
_cell_angle_alpha                90
_cell_angle_beta                 103.72(2)
_cell_angle_gamma                90
_cell_volume                     972.407
loop_
_atom_site_label
_atom_site_type_symbol
_atom_site_fract_x
_atom_site_fract_y
_atom_site_fract_z
C1 C 0.8342(14) 0.3287(9) 0.0432(17)
H1 H 0.8728 0.3811 -0.0030
H2 H 0.8707 0.3264 0.1841
C2 C 0.6091(11) 0.2477(8) 0.0449(18)
H3 H 0.6359 0.2415 0.1859
H4 H 0.5008 0.2482 0.0036
I1 I 0.29097(8) 0.42148(6) -0.00015(10)
Cu1 Cu 0.58411(17) 0.43915(12) 0.1173(2)
N1 N 0.6663(12) 0.3323(8) -0.0068(14)
H5 H 0.6357 0.3381 -0.1388
C1F C 0.6658(14) 0.1713(9) -0.0432(17)
H1F H 0.6272 0.1189 0.0030
H2F H 0.6293 0.1736 -0.1841
C2F C 0.8909(11) 0.2523(8) -0.0449(18)
H3F H 0.8641 0.2585 -0.1859
H4F H 0.9992 0.2518 -0.0036
N1F N 0.8337(12) 0.1677(8) 0.0068(14)
H5F H 0.8643 0.1619 0.1388
I1A I 0.70903(8) 0.42148(6) 0.50015(10)
Cu1A Cu 0.41589(17) 0.43915(12) 0.3827(2)
I1D I 0.70903(8) 0.57852(6) 0.00015(10)
I1E I 0.29097(8) 0.57852(6) 0.49985(10)
Cu1D Cu 0.41589(17) 0.56085(12) -0.1173(2)
Cu1E Cu 0.58411(17) 0.56085(12) 0.6173(2)
Cu1F Cu 0.91589(17) 0.06085(12) -0.1173(2)
N1A N 0.3337(12) 0.3323(8) 0.5068(14)
loop_
_geom_bond_atom_site_label_1
_geom_bond_atom_site_label_2
_geom_bond_site_symmetry_1
_geom_bond_site_symmetry_2
C1 H1 1_555 1_555
H2 C1 1_555 1_555
C2 H3 1_555 1_555
H4 C2 1_555 1_555
I1 Cu1 1_555 1_555
Cu1 N1 1_555 1_555
N1 C1 1_555 1_555
H5 N1 1_555 1_555
C1F C2 1_555 1_555
H1F C1F 1_555 1_555
H2F C1F 1_555 1_555
C2F C1 1_555 1_555
H3F C2F 1_555 1_555
H4F C2F 1_555 1_555
N1F C1F 1_555 1_555
H5F N1F 1_555 1_555
I1A Cu1 1_555 1_555
Cu1A I1 1_555 1_555
I1D Cu1 1_555 1_555
I1E Cu1A 1_555 1_555
Cu1D I1 1_555 1_555
Cu1E I1A 1_555 1_555
Cu1F N1F 1_555 1_555
N1A Cu1A 1_555 1_555
C2 N1 1_555 1_555
C2F N1F 1_555 1_555
I1A Cu1A 1_555 1_555
I1D Cu1D 1_555 1_555
I1E Cu1E 1_555 1_555

#END
