
#######################################################################
#
#                 Cambridge Crystallographic Data Centre
#                                CCDC 
#
#######################################################################
#
# If this CIF has been generated from an entry in the Cambridge 
# Structural Database, then it will include bibliographic, chemical, 
# crystal, experimental, refinement or atomic coordinate data resulting 
# from the CCDC's data processing and validation procedures.
#
#######################################################################

data_XUJDAI02
_symmetry_cell_setting           monoclinic
_symmetry_space_group_name_H-M   'C 2/c'
_symmetry_Int_Tables_number      15
_space_group_name_Hall           '-C 2yn'
loop_
_symmetry_equiv_pos_site_id
_symmetry_equiv_pos_as_xyz
1 x,y,z
2 -x,y,1/2-z
3 1/2+x,1/2+y,z
4 1/2-x,1/2+y,1/2-z
5 -x,-y,-z
6 x,-y,1/2+z
7 1/2-x,1/2-y,-z
8 1/2+x,1/2-y,1/2+z
_cell_length_a                   9.255(3)
_cell_length_b                   15.294(3)
_cell_length_c                   7.076(2)
_cell_angle_alpha                90
_cell_angle_beta                 103.45(3)
_cell_angle_gamma                90
_cell_volume                     974.109
loop_
_atom_site_label
_atom_site_type_symbol
_atom_site_fract_x
_atom_site_fract_y
_atom_site_fract_z
N1 N 0.3315(6) 0.6679(4) 0.0049(7)
H1 H 0.3611 0.6616 0.1361
C1 C 0.3913(8) 0.7510(4) -0.0436(10)
H2 H 0.3678 0.7574 -0.1838
H3 H 0.4987 0.7498 0.0010
C2 C 0.1679(7) 0.6706(5) -0.0442(10)
H4 H 0.1301 0.6176 0.0024
H5 H 0.1323 0.6724 -0.1844
I1 I 0.70600(5) 0.57831(3) -0.00126(6)
Cu1 Cu 0.41481(11) 0.56172(6) -0.11768(13)
N1F N 0.1685(6) 0.8321(4) -0.0049(7)
H1F H 0.1389 0.8384 -0.1361
C1F C 0.1087(8) 0.7490(4) 0.0436(10)
H2F H 0.1322 0.7426 0.1838
H3F H 0.0013 0.7502 -0.0010
C2F C 0.3321(7) 0.8294(5) 0.0442(10)
H4F H 0.3699 0.8824 -0.0024
H5F H 0.3677 0.8276 0.1844
I1A I 0.29400(5) 0.57831(3) -0.49874(6)
Cu1A Cu 0.58519(11) 0.56172(6) -0.38232(13)
N1A N 0.6685(6) 0.6679(4) -0.5049(7)
I1D I 0.29400(5) 0.42169(3) 0.00126(6)
I1E I 0.70600(5) 0.42169(3) -0.50126(6)
Cu1D Cu 0.58519(11) 0.43828(6) 0.11768(13)
Cu1E Cu 0.41481(11) 0.43828(6) -0.61768(13)
Cu1F Cu 0.08519(11) 0.93828(6) 0.11768(13)
loop_
_geom_bond_atom_site_label_1
_geom_bond_atom_site_label_2
_geom_bond_site_symmetry_1
_geom_bond_site_symmetry_2
N1 H1 1_555 1_555
C1 N1 1_555 1_555
H2 C1 1_555 1_555
H3 C1 1_555 1_555
C2 N1 1_555 1_555
H4 C2 1_555 1_555
H5 C2 1_555 1_555
I1 Cu1 1_555 1_555
Cu1 N1 1_555 1_555
N1F H1F 1_555 1_555
C1F C2 1_555 1_555
H2F C1F 1_555 1_555
H3F C1F 1_555 1_555
C2F C1 1_555 1_555
H4F C2F 1_555 1_555
H5F C2F 1_555 1_555
I1A Cu1 1_555 1_555
Cu1A I1 1_555 1_555
N1A Cu1A 1_555 1_555
I1D Cu1 1_555 1_555
I1E Cu1A 1_555 1_555
Cu1D I1 1_555 1_555
Cu1E I1A 1_555 1_555
Cu1F N1F 1_555 1_555
N1F C1F 1_555 1_555
N1F C2F 1_555 1_555
I1A Cu1A 1_555 1_555
I1D Cu1D 1_555 1_555
I1E Cu1E 1_555 1_555

#END
