
#######################################################################
#
#                 Cambridge Crystallographic Data Centre
#                                CCDC 
#
#######################################################################
#
# If this CIF has been generated from an entry in the Cambridge 
# Structural Database, then it will include bibliographic, chemical, 
# crystal, experimental, refinement or atomic coordinate data resulting 
# from the CCDC's data processing and validation procedures.
#
#######################################################################

data_XUJFEO
_symmetry_cell_setting           monoclinic
_symmetry_space_group_name_H-M   'C 2/c'
_symmetry_Int_Tables_number      15
_space_group_name_Hall           '-C 2yn'
loop_
_symmetry_equiv_pos_site_id
_symmetry_equiv_pos_as_xyz
1 x,y,z
2 -x,y,1/2-z
3 1/2+x,1/2+y,z
4 1/2-x,1/2+y,1/2-z
5 -x,-y,-z
6 x,-y,1/2+z
7 1/2-x,1/2-y,-z
8 1/2+x,1/2-y,1/2+z
_cell_length_a                   21.982(3)
_cell_length_b                   7.5118(9)
_cell_length_c                   20.281(3)
_cell_angle_alpha                90
_cell_angle_beta                 100.276(3)
_cell_angle_gamma                90
_cell_volume                     3295.17
loop_
_atom_site_label
_atom_site_type_symbol
_atom_site_fract_x
_atom_site_fract_y
_atom_site_fract_z
Mn1 Mn 0.09734(3) 0.10323(7) 0.11670(3)
O1 O 0.09143(12) -0.1977(3) 0.15622(12)
O2 O 0.07375(13) -0.0785(3) 0.02297(12)
O3 O 0.06229(13) -0.3933(3) -0.06944(13)
O4 O 0.08070(12) -0.7117(3) 0.02040(12)
O5 O 0.09671(12) -0.6038(3) 0.15387(12)
O6 O 0.00375(11) 0.1184(3) 0.13538(11)
H1 H -0.0198 0.1921 0.1093
H2 H -0.0195 0.0187 0.1295
N1 N 0.15987(15) 0.0944(4) 0.22658(15)
N2 N 0.19415(15) 0.0780(4) 0.10457(16)
N3 N 0.29390(16) 0.0755(5) 0.14402(18)
H8 H 0.3281 0.0752 0.1722
C1 C 0.1414(2) 0.0968(6) 0.2858(2)
H9 H 0.0992 0.1041 0.2864
C2 C 0.1815(2) 0.0891(7) 0.3462(2)
H10 H 0.1667 0.0901 0.3864
C3 C 0.2431(2) 0.0800(8) 0.3459(2)
H11 H 0.2713 0.0768 0.3859
C4 C 0.2632(2) 0.0756(7) 0.2853(2)
H12 H 0.3051 0.0669 0.2839
C5 C 0.22056(19) 0.0840(5) 0.2270(2)
C6 C 0.23674(18) 0.0790(5) 0.1590(2)
C7 C 0.2264(2) 0.0730(7) 0.0519(2)
H13 H 0.2085 0.0703 0.0067
C8 C 0.2877(2) 0.0725(7) 0.0758(3)
H14 H 0.3193 0.0705 0.0509
C9 C 0.08613(16) -0.3013(5) 0.10761(17)
C10 C 0.07644(16) -0.2390(5) 0.03832(18)
C11 C 0.07107(16) -0.3943(5) -0.00726(18)
C12 C 0.08031(16) -0.5514(5) 0.03667(18)
C13 C 0.08793(16) -0.4952(5) 0.10617(17)
Mn1_2 Mn 0.09734(3) 1.10323(7) 0.11670(3)
Mn1_3 Mn 0.09734(3) -0.89677(7) 0.11670(3)
O1_2 O 0.09143(12) 0.8023(3) 0.15622(12)
O2_2 O 0.07375(13) 0.9215(3) 0.02297(12)
O3_2 O 0.06229(13) 0.6067(3) -0.06944(13)
O4_2 O 0.08070(12) 0.2883(3) 0.02040(12)
O4_3 O 0.08070(12) 1.2883(3) 0.02040(12)
O5_2 O 0.09671(12) 0.3962(3) 0.15387(12)
O5_3 O 0.09671(12) 1.3962(3) 0.15387(12)
O6_2 O 0.00375(11) 1.1184(3) 0.13538(11)
H1_2 H -0.0198 1.1921 0.1093
H2_2 H -0.0195 1.0187 0.1295
N1_2 N 0.15987(15) 1.0944(4) 0.22658(15)
N2_2 N 0.19415(15) 1.0780(4) 0.10457(16)
N3_2 N 0.29390(16) 1.0755(5) 0.14402(18)
H8_2 H 0.3281 1.0752 0.1722
C1_2 C 0.1414(2) 1.0968(6) 0.2858(2)
H9_2 H 0.0992 1.1041 0.2864
C2_2 C 0.1815(2) 1.0891(7) 0.3462(2)
H10_2 H 0.1667 1.0901 0.3864
C3_2 C 0.2431(2) 1.0800(8) 0.3459(2)
H11_2 H 0.2713 1.0768 0.3859
C4_2 C 0.2632(2) 1.0756(7) 0.2853(2)
H12_2 H 0.3051 1.0669 0.2839
C5_2 C 0.22056(19) 1.0840(5) 0.2270(2)
C6_2 C 0.23674(18) 1.0790(5) 0.1590(2)
C7_2 C 0.2264(2) 1.0730(7) 0.0519(2)
H13_2 H 0.2085 1.0703 0.0067
C8_2 C 0.2877(2) 1.0725(7) 0.0758(3)
H14_2 H 0.3193 1.0705 0.0509
C9_2 C 0.08613(16) 0.6987(5) 0.10761(17)
C10_2 C 0.07644(16) 0.7610(5) 0.03832(18)
C11_2 C 0.07107(16) 0.6057(5) -0.00726(18)
C12_2 C 0.08031(16) 0.4486(5) 0.03667(18)
C13_2 C 0.08793(16) 0.5048(5) 0.10617(17)
O7 O 0.06562(15) -0.8362(4) -0.11137(14)
H3 H 0.0702 -0.7872 -0.0691
H4 H 0.0697 -0.7543 -0.1445
O8 O 0.0000 0.3493(5) 0.2500
H5 H -0.0068 0.3056 0.2141
H5A H 0.0068 0.3056 0.2859
O9 O 0.41173(13) 0.1237(4) 0.21879(13)
H6 H 0.4166 0.2002 0.2587
H7 H 0.4472 0.0792 0.2257
loop_
_geom_bond_atom_site_label_1
_geom_bond_atom_site_label_2
_geom_bond_site_symmetry_1
_geom_bond_site_symmetry_2
Mn1 O1 1_555 1_555
O1 C9 1_555 1_555
O2 Mn1 1_555 1_555
O3 C11 1_555 1_555
O4 C12 1_555 1_555
O5 C13 1_555 1_555
O6 Mn1 1_555 1_555
H1 O6 1_555 1_555
H2 O6 1_555 1_555
O7 H3 1_555 1_555
H4 O7 1_555 1_555
O8 H5 1_555 1_555
O9 H6 1_555 1_555
H7 O9 1_555 1_555
N1 Mn1 1_555 1_555
N2 Mn1 1_555 1_555
N3 H8 1_555 1_555
C1 N1 1_555 1_555
H9 C1 1_555 1_555
C2 C1 1_555 1_555
H10 C2 1_555 1_555
C3 C2 1_555 1_555
H11 C3 1_555 1_555
C4 C3 1_555 1_555
H12 C4 1_555 1_555
C5 N1 1_555 1_555
C6 N2 1_555 1_555
C7 N2 1_555 1_555
H13 C7 1_555 1_555
C8 N3 1_555 1_555
H14 C8 1_555 1_555
C9 C10 1_555 1_555
C10 O2 1_555 1_555
C11 C10 1_555 1_555
C12 C11 1_555 1_555
C13 C9 1_555 1_555
Mn1_2 O1_2 1_555 1_555
Mn1_3 O4 1_555 1_555
O1_2 C9_2 1_555 1_555
O2_2 Mn1_2 1_555 1_555
O3_2 C11_2 1_555 1_555
O4_2 Mn1 1_555 1_555
O4_3 Mn1_2 1_555 1_555
O5_2 Mn1 1_555 1_555
O5_3 Mn1_2 1_555 1_555
O6_2 Mn1_2 1_555 1_555
H1_2 O6_2 1_555 1_555
H2_2 O6_2 1_555 1_555
H5A O8 1_555 1_555
N1_2 Mn1_2 1_555 1_555
N2_2 Mn1_2 1_555 1_555
N3_2 H8_2 1_555 1_555
C1_2 N1_2 1_555 1_555
H9_2 C1_2 1_555 1_555
C2_2 C1_2 1_555 1_555
H10_2 C2_2 1_555 1_555
C3_2 C2_2 1_555 1_555
H11_2 C3_2 1_555 1_555
C4_2 C3_2 1_555 1_555
H12_2 C4_2 1_555 1_555
C5_2 N1_2 1_555 1_555
C6_2 N2_2 1_555 1_555
C7_2 N2_2 1_555 1_555
H13_2 C7_2 1_555 1_555
C8_2 N3_2 1_555 1_555
H14_2 C8_2 1_555 1_555
C9_2 C10_2 1_555 1_555
C10_2 O2_2 1_555 1_555
C11_2 C10_2 1_555 1_555
C12_2 O4_2 1_555 1_555
C13_2 O5_2 1_555 1_555
O5 Mn1_3 1_555 1_555
N3 C6 1_555 1_555
C4 C5 1_555 1_555
C5 C6 1_555 1_555
C7 C8 1_555 1_555
C12 C13 1_555 1_555
N3_2 C6_2 1_555 1_555
C4_2 C5_2 1_555 1_555
C5_2 C6_2 1_555 1_555
C7_2 C8_2 1_555 1_555
C9_2 C13_2 1_555 1_555
C11_2 C12_2 1_555 1_555
C12_2 C13_2 1_555 1_555

#END
