
#######################################################################
#
#                 Cambridge Crystallographic Data Centre
#                                CCDC 
#
#######################################################################
#
# If this CIF has been generated from an entry in the Cambridge 
# Structural Database, then it will include bibliographic, chemical, 
# crystal, experimental, refinement or atomic coordinate data resulting 
# from the CCDC's data processing and validation procedures.
#
#######################################################################

data_XUJJUI
_symmetry_cell_setting           orthorhombic
_symmetry_space_group_name_H-M   'P 21 21 21'
_symmetry_Int_Tables_number      19
_space_group_name_Hall           'P 2ac 2ab'
loop_
_symmetry_equiv_pos_site_id
_symmetry_equiv_pos_as_xyz
1 x,y,z
2 1/2-x,-y,1/2+z
3 1/2+x,1/2-y,-z
4 -x,1/2+y,1/2-z
_cell_length_a                   8.6028(15)
_cell_length_b                   10.7956(19)
_cell_length_c                   14.945(3)
_cell_angle_alpha                90
_cell_angle_beta                 90
_cell_angle_gamma                90
_cell_volume                     1387.98
loop_
_atom_site_label
_atom_site_type_symbol
_atom_site_fract_x
_atom_site_fract_y
_atom_site_fract_z
Cu1 Cu 0.02245(4) 0.74508(4) 0.86984(3)
O1 O 0.0293(4) 0.7942(2) 0.74330(16)
O2 O 0.0478(3) 0.6697(2) 0.99045(16)
N1 N -0.3064(4) 0.6440(3) 1.0908(2)
N2 N 0.0893(4) 0.9041(3) 0.7184(2)
C1 C -0.1294(4) 0.5100(3) 1.0402(2)
C2 C -0.2740(4) 0.5185(3) 1.0812(2)
C3 C 0.2423(4) 1.0531(3) 0.6747(2)
N3 N 0.0889(4) 1.0907(3) 0.6706(2)
C4 C -0.3534(4) 0.4131(3) 1.1053(2)
H1 H -0.4511 0.4169 1.1318
C5 C -0.0556(5) 0.3972(3) 1.0210(3)
H2 H 0.0409 0.3931 0.9931
C6 C 0.2426(5) 0.9312(3) 0.7059(2)
C7 C 0.3783(5) 0.8641(4) 0.7203(3)
H3 H 0.3768 0.7836 0.7423
C8 C -0.1361(5) 0.2938(3) 1.0462(3)
H4 H -0.0931 0.2163 1.0350
C9 C 0.3804(5) 1.1121(4) 0.6534(3)
H5 H 0.3817 1.1924 0.6309
C10 C -0.2807(5) 0.3008(4) 1.0882(3)
H6 H -0.3300 0.2278 1.1053
C11 C 0.5162(5) 1.0463(4) 0.6669(3)
H7 H 0.6115 1.0827 0.6540
N4 N -0.1884(3) 0.7081(3) 1.0580(2)
N5 N -0.0838(3) 0.6297(3) 1.0280(2)
O3 O -0.1774(4) 0.8767(3) 0.9002(2)
N6 N -0.0018(3) 0.9981(3) 0.6979(2)
C12 C 0.5109(5) 0.9224(3) 0.7007(3)
H8 H 0.6041 0.8805 0.7094
H9 H -0.1650 0.9012 0.9526
H10 H -0.1885 0.9370 0.8671
Cu1B Cu -0.47755(4) 0.75492(4) 1.13016(3)
Cu1C Cu -0.02245(4) 1.24508(4) 0.63016(3)
N1B N 0.1936(4) 0.8560(3) 0.9092(2)
N3C N -0.0889(4) 0.5907(3) 0.8294(2)
O4 O -0.2369(5) 1.1185(3) 0.8559(3)
H11 H -0.1840 1.1745 0.8317
loop_
_geom_bond_atom_site_label_1
_geom_bond_atom_site_label_2
_geom_bond_site_symmetry_1
_geom_bond_site_symmetry_2
Cu1 O1 1_555 1_555
O1 N2 1_555 1_555
O2 Cu1 1_555 1_555
N1 C2 1_555 1_555
N2 C6 1_555 1_555
C1 C2 1_555 1_555
C2 C4 1_555 1_555
C3 N3 1_555 1_555
N3 N6 1_555 1_555
C4 H1 1_555 1_555
C5 C1 1_555 1_555
H2 C5 1_555 1_555
C6 C3 1_555 1_555
C7 C6 1_555 1_555
H3 C7 1_555 1_555
C8 C5 1_555 1_555
H4 C8 1_555 1_555
C9 C3 1_555 1_555
H5 C9 1_555 1_555
C10 C4 1_555 1_555
H6 C10 1_555 1_555
C11 C9 1_555 1_555
H7 C11 1_555 1_555
N4 N1 1_555 1_555
N5 O2 1_555 1_555
O3 Cu1 1_555 1_555
N6 N2 1_555 1_555
C12 C7 1_555 1_555
H8 C12 1_555 1_555
H9 O3 1_555 1_555
H10 O3 1_555 1_555
O4 H11 1_555 1_555
Cu1B N1 1_555 1_555
Cu1C N3 1_555 1_555
N1B Cu1 1_555 1_555
N3C Cu1 1_555 1_555
C1 N5 1_555 1_555
C8 C10 1_555 1_555
C11 C12 1_555 1_555
N4 N5 1_555 1_555

#END
