
#######################################################################
#
#                 Cambridge Crystallographic Data Centre
#                                CCDC 
#
#######################################################################
#
# If this CIF has been generated from an entry in the Cambridge 
# Structural Database, then it will include bibliographic, chemical, 
# crystal, experimental, refinement or atomic coordinate data resulting 
# from the CCDC's data processing and validation procedures.
#
#######################################################################

data_XUJLUL
_symmetry_cell_setting           monoclinic
_symmetry_space_group_name_H-M   'P 21/n'
_symmetry_Int_Tables_number      14
_space_group_name_Hall           '-P 2yn'
loop_
_symmetry_equiv_pos_site_id
_symmetry_equiv_pos_as_xyz
1 x,y,z
2 1/2-x,1/2+y,1/2-z
3 -x,-y,-z
4 1/2+x,1/2-y,1/2+z
_cell_length_a                   9.3063(19)
_cell_length_b                   9.872(2)
_cell_length_c                   16.532(3)
_cell_angle_alpha                90
_cell_angle_beta                 102.339(4)
_cell_angle_gamma                90
_cell_volume                     1483.74
loop_
_atom_site_label
_atom_site_type_symbol
_atom_site_fract_x
_atom_site_fract_y
_atom_site_fract_z
Cd1 Cd 0.5000 0.5000 0.5000
N1 N 0.4504(3) 0.2725(3) 0.52787(15)
N2 N 0.8125(3) 0.0946(3) 0.68697(15)
N3 N 0.9141(3) 0.0409(3) 0.85507(15)
O1 O 0.5073(3) -0.0810(3) 0.72462(18)
C1 C 0.5293(3) 0.2046(3) 0.59325(17)
H1 H 0.6145 0.2444 0.6236
C2 C 0.4892(3) 0.0786(3) 0.61724(17)
C3 C 0.3633(4) 0.0190(3) 0.5717(2)
H2 H 0.3331 -0.0653 0.5869
C4 C 0.2826(4) 0.0856(4) 0.5033(2)
H3 H 0.1987 0.0463 0.4712
C5 C 0.3294(3) 0.2116(3) 0.48389(18)
H4 H 0.2746 0.2567 0.4382
C6 C 0.5694(4) 0.0069(3) 0.6936(2)
C7 C 0.7260(4) 0.0412(3) 0.73305(18)
C8 C 0.9505(4) 0.1180(4) 0.7252(2)
H5 H 1.0155 0.1526 0.6948
C9 C 1.0015(4) 0.0928(3) 0.80920(19)
H6 H 1.0987 0.1126 0.8337
C10 C 0.7758(4) 0.0139(3) 0.81660(19)
H7 H 0.7117 -0.0239 0.8464
O2 O 0.2636(3) 0.5394(3) 0.51136(17)
H8 H 0.2192 0.4871 0.5425
H9 H 0.2058 0.6111 0.4974
N1B N 0.5496(3) 0.7275(3) 0.47213(15)
N2B N 0.1875(3) 0.9054(3) 0.31303(15)
N3B N 0.0859(3) 0.9591(3) 0.14493(15)
O1B O 0.4927(3) 1.0810(3) 0.27538(18)
C1B C 0.4707(3) 0.7954(3) 0.40675(17)
H1B H 0.3855 0.7556 0.3764
C2B C 0.5108(3) 0.9214(3) 0.38276(17)
C3B C 0.6367(4) 0.9810(3) 0.4283(2)
H2B H 0.6669 1.0653 0.4131
C4B C 0.7174(4) 0.9144(4) 0.4967(2)
H3B H 0.8013 0.9537 0.5288
C5B C 0.6706(3) 0.7884(3) 0.51611(18)
H4B H 0.7254 0.7433 0.5618
C6B C 0.4306(4) 0.9931(3) 0.3064(2)
C7B C 0.2740(4) 0.9588(3) 0.26695(18)
C8B C 0.0495(4) 0.8820(4) 0.2748(2)
H5B H -0.0155 0.8474 0.3052
C9B C -0.0015(4) 0.9072(3) 0.19080(19)
H6B H -0.0987 0.8874 0.1663
C10B C 0.2242(4) 0.9861(3) 0.18340(19)
H7B H 0.2883 1.0239 0.1536
O2B O 0.7364(3) 0.4606(3) 0.48864(17)
H8B H 0.7808 0.5129 0.4575
H9B H 0.7942 0.3889 0.5026
Cd1A Cd 0.0000 1.0000 0.0000
Cd1A_2 Cd 1.0000 0.0000 1.0000
N3A N 0.5859(3) 0.5409(3) 0.64493(15)
N3C N 0.4141(3) 0.4591(3) 0.35507(15)
B1 B 0.0525(5) 0.7606(5) 0.6786(3)
F1 F 0.1749(5) 0.7353(6) 0.7337(3)
F2 F 0.0129(4) 0.6416(3) 0.6335(2)
F3 F -0.0612(4) 0.7871(3) 0.7153(2)
F4 F 0.0675(4) 0.8610(3) 0.6247(2)
O3 O 0.1651(4) 0.3888(4) 0.6311(2)
H10 H 0.1185 0.4480 0.6571
H11 H 0.2206 0.3475 0.6748
O4 O 0.0862(4) 0.7515(4) 0.4680(2)
H12 H 0.0095 0.7082 0.4376
H13 H 0.0495 0.7641 0.5129
loop_
_geom_bond_atom_site_label_1
_geom_bond_atom_site_label_2
_geom_bond_site_symmetry_1
_geom_bond_site_symmetry_2
Cd1 N1 1_555 1_555
N1 C1 1_555 1_555
N2 C7 1_555 1_555
N3 C9 1_555 1_555
O1 C6 1_555 1_555
C1 H1 1_555 1_555
C2 C1 1_555 1_555
C3 C2 1_555 1_555
H2 C3 1_555 1_555
C4 C3 1_555 1_555
H3 C4 1_555 1_555
C5 N1 1_555 1_555
H4 C5 1_555 1_555
C6 C2 1_555 1_555
C7 C6 1_555 1_555
C8 N2 1_555 1_555
H5 C8 1_555 1_555
C9 C8 1_555 1_555
H6 C9 1_555 1_555
C10 N3 1_555 1_555
H7 C10 1_555 1_555
O2 Cd1 1_555 1_555
H8 O2 1_555 1_555
H9 O2 1_555 1_555
B1 F1 1_555 1_555
F2 B1 1_555 1_555
F3 B1 1_555 1_555
F4 B1 1_555 1_555
O3 H10 1_555 1_555
H11 O3 1_555 1_555
O4 H12 1_555 1_555
H13 O4 1_555 1_555
N1B Cd1 1_555 1_555
N2B C7B 1_555 1_555
N3B C9B 1_555 1_555
O1B C6B 1_555 1_555
C1B N1B 1_555 1_555
H1B C1B 1_555 1_555
C2B C1B 1_555 1_555
C3B C2B 1_555 1_555
H2B C3B 1_555 1_555
C4B C3B 1_555 1_555
H3B C4B 1_555 1_555
C5B N1B 1_555 1_555
H4B C5B 1_555 1_555
C6B C2B 1_555 1_555
C7B C6B 1_555 1_555
C8B N2B 1_555 1_555
H5B C8B 1_555 1_555
C9B C8B 1_555 1_555
H6B C9B 1_555 1_555
C10B N3B 1_555 1_555
H7B C10B 1_555 1_555
O2B Cd1 1_555 1_555
H8B O2B 1_555 1_555
H9B O2B 1_555 1_555
Cd1A N3B 1_555 1_555
Cd1A_2 N3 1_555 1_555
N3A Cd1 1_555 1_555
N3C Cd1 1_555 1_555
C4 C5 1_555 1_555
C7 C10 1_555 1_555
C4B C5B 1_555 1_555
C7B C10B 1_555 1_555

#END
