
#######################################################################
#
#                 Cambridge Crystallographic Data Centre
#                                CCDC 
#
#######################################################################
#
# If this CIF has been generated from an entry in the Cambridge 
# Structural Database, then it will include bibliographic, chemical, 
# crystal, experimental, refinement or atomic coordinate data resulting 
# from the CCDC's data processing and validation procedures.
#
#######################################################################

data_XUJQOK
_symmetry_cell_setting           triclinic
_symmetry_space_group_name_H-M   'P -1'
_symmetry_Int_Tables_number      2
_space_group_name_Hall           '-P 1'
loop_
_symmetry_equiv_pos_site_id
_symmetry_equiv_pos_as_xyz
1 x,y,z
2 -x,-y,-z
_cell_length_a                   9.0698(18)
_cell_length_b                   9.3033(19)
_cell_length_c                   12.459(2)
_cell_angle_alpha                75.63(3)
_cell_angle_beta                 86.86(3)
_cell_angle_gamma                83.27(3)
_cell_volume                     1011.01
loop_
_atom_site_label
_atom_site_type_symbol
_atom_site_fract_x
_atom_site_fract_y
_atom_site_fract_z
Zn1 Zn 0.30660(2) 0.08857(2) 0.050800(17)
N1 N 0.14174(16) 0.19416(17) -0.05496(12)
O1 O 0.3018(2) 0.02827(17) 0.21242(12)
O2 O 0.1738(3) 0.2452(3) 0.18446(16)
O3 O 0.31886(18) -0.10272(18) 1.00787(14)
O4 O 0.54139(16) -0.22669(18) 0.99493(14)
C1 C 0.0732(2) 0.1214(2) -0.11523(16)
H1 H 0.0987 0.0180 -0.1048
C2 C -0.0329(2) 0.1917(2) -0.19168(16)
H2 H -0.0780 0.1363 -0.2318
C3 C -0.07335(19) 0.3454(2) -0.20955(15)
C4 C 0.0003(2) 0.4206(2) -0.14787(16)
H3 H -0.0213 0.5243 -0.1577
C5 C 0.1049(2) 0.3420(2) -0.07240(16)
H4 H 0.1525 0.3946 -0.0314
C6 C -0.1862(2) 0.4264(2) -0.28981(16)
H5 H -0.1922 0.5312 -0.3095
C7 C -0.2796(2) 0.3622(2) -0.33604(16)
H6 H -0.2747 0.2577 -0.3125
C8 C -0.39185(19) 0.4360(2) -0.42114(15)
C9 C -0.5397(2) 0.4029(2) -0.39903(15)
C10 C -0.35148(19) 0.5319(2) -0.52241(15)
C11 C -0.5802(2) 0.2987(3) -0.28937(17)
H7 H -0.5767 0.3486 -0.2300
H8 H -0.5102 0.2093 -0.2756
H9 H -0.6797 0.2716 -0.2926
C12 C -0.1900(2) 0.5576(3) -0.55191(19)
H10 H -0.1669 0.5477 -0.6269
H11 H -0.1259 0.4843 -0.5007
H12 H -0.1742 0.6570 -0.5470
C13 C 0.2313(3) 0.1342(3) 0.24733(18)
C14 C 0.2223(4) 0.1223(3) 0.37116(19)
H13 H 0.2873 0.1910 0.3872
H14 H 0.1204 0.1566 0.3908
C15 C 0.2635(4) -0.0291(3) 0.4449(2)
H15 H 0.3638 -0.0661 0.4238
H16 H 0.1952 -0.0973 0.4325
C16 C 0.2593(4) -0.0323(3) 0.5675(2)
H17 H 0.3232 0.0400 0.5793
H18 H 0.1577 -0.0010 0.5896
C17 C 0.3093(4) -0.1839(3) 0.6409(2)
H19 H 0.4126 -0.2133 0.6212
H20 H 0.2485 -0.2573 0.6267
C18 C 0.2980(3) -0.1877(3) 0.76309(19)
H21 H 0.1933 -0.1668 0.7835
H22 H 0.3507 -0.1072 0.7755
C19 C 0.3598(3) -0.3332(3) 0.83956(19)
H23 H 0.4671 -0.3494 0.8252
H24 H 0.3144 -0.4155 0.8230
C20 C 0.3315(3) -0.3356(2) 0.96215(18)
H25 H 0.2243 -0.3235 0.9778
H26 H 0.3725 -0.4321 1.0079
C21 C 0.4028(2) -0.2114(2) 0.99147(15)
N1A N -1.14174(16) 0.80584(17) -0.94504(12)
C1A C -1.0732(2) 0.8786(2) -0.88477(16)
H1A H -1.0987 0.9820 -0.8952
C2A C -0.9671(2) 0.8083(2) -0.80832(16)
H2A H -0.9220 0.8637 -0.7682
C3A C -0.92665(19) 0.6546(2) -0.79045(15)
C4A C -1.0003(2) 0.5794(2) -0.85213(16)
H3A H -0.9787 0.4757 -0.8423
C5A C -1.1049(2) 0.6580(2) -0.92760(16)
H4A H -1.1525 0.6054 -0.9686
C6A C -0.8138(2) 0.5736(2) -0.71019(16)
H5A H -0.8078 0.4688 -0.6905
C7A C -0.7204(2) 0.6378(2) -0.66396(16)
H6A H -0.7253 0.7423 -0.6875
C8A C -0.60815(19) 0.5640(2) -0.57886(15)
C9A C -0.4603(2) 0.5971(2) -0.60097(15)
C10A C -0.64852(19) 0.4681(2) -0.47759(15)
C11A C -0.4198(2) 0.7013(3) -0.71063(17)
H7A H -0.4233 0.6514 -0.7700
H8A H -0.4898 0.7907 -0.7244
H9A H -0.3203 0.7284 -0.7074
C12A C -0.8100(2) 0.4424(3) -0.44809(19)
H10A H -0.8331 0.4523 -0.3731
H11A H -0.8741 0.5157 -0.4993
H12A H -0.8258 0.3430 -0.4530
Zn1A Zn -1.30660(2) 0.91143(2) -1.050800(17)
O1A O -1.3018(2) 0.97173(17) -1.21242(12)
O2A O -1.1738(3) 0.7548(3) -1.18446(16)
O3A O -1.31886(18) 1.10272(18) -2.00787(14)
O4A O -1.54139(16) 1.22669(18) -1.99493(14)
C13A C -1.2313(3) 0.8658(3) -1.24733(18)
C14A C -1.2223(4) 0.8777(3) -1.37116(19)
H13A H -1.2873 0.8090 -1.3872
H14A H -1.1204 0.8434 -1.3908
C15A C -1.2635(4) 1.0291(3) -1.4449(2)
H15A H -1.3638 1.0661 -1.4238
H16A H -1.1952 1.0973 -1.4325
C16A C -1.2593(4) 1.0323(3) -1.5675(2)
H17A H -1.3232 0.9600 -1.5793
H18A H -1.1577 1.0010 -1.5896
C17A C -1.3093(4) 1.1839(3) -1.6409(2)
H19A H -1.4126 1.2133 -1.6212
H20A H -1.2485 1.2573 -1.6267
C18A C -1.2980(3) 1.1877(3) -1.76309(19)
H21A H -1.1933 1.1668 -1.7835
H22A H -1.3507 1.1072 -1.7755
C19A C -1.3598(3) 1.3332(3) -1.83956(19)
H23A H -1.4671 1.3494 -1.8252
H24A H -1.3144 1.4155 -1.8230
C20A C -1.3315(3) 1.3356(2) -1.96215(18)
H25A H -1.2243 1.3235 -1.9778
H26A H -1.3725 1.4321 -2.0079
C21A C -1.4028(2) 1.2114(2) -1.99147(15)
Zn1_2 Zn -1.69340(2) 1.08857(2) -1.949200(17)
Zn1_3 Zn 0.30660(2) 0.08857(2) 1.050800(17)
Zn1A_2 Zn -1.30660(2) 0.91143(2) -2.050800(17)
Zn1A_3 Zn 0.69340(2) -0.08857(2) 0.949200(17)
O3_2 O 0.31886(18) -0.10272(18) 0.00787(14)
O3A_2 O -1.31886(18) 1.10272(18) -1.00787(14)
O4_2 O -1.45861(16) 0.77331(18) -1.00507(14)
O4A_2 O 0.45861(16) 0.22669(18) 0.00507(14)
loop_
_geom_bond_atom_site_label_1
_geom_bond_atom_site_label_2
_geom_bond_site_symmetry_1
_geom_bond_site_symmetry_2
Zn1 N1 1_555 1_555
N1 C1 1_555 1_555
O1 Zn1 1_555 1_555
O2 C13 1_555 1_555
O3 C21 1_555 1_555
O4 C21 1_555 1_555
C1 H1 1_555 1_555
C2 C1 1_555 1_555
H2 C2 1_555 1_555
C3 C2 1_555 1_555
C4 C3 1_555 1_555
H3 C4 1_555 1_555
C5 N1 1_555 1_555
H4 C5 1_555 1_555
C6 C3 1_555 1_555
H5 C6 1_555 1_555
C7 C6 1_555 1_555
H6 C7 1_555 1_555
C8 C7 1_555 1_555
C9 C8 1_555 1_555
C10 C8 1_555 1_555
C11 C9 1_555 1_555
H7 C11 1_555 1_555
H8 C11 1_555 1_555
H9 C11 1_555 1_555
C12 C10 1_555 1_555
H10 C12 1_555 1_555
H11 C12 1_555 1_555
H12 C12 1_555 1_555
C13 O1 1_555 1_555
C14 C13 1_555 1_555
H13 C14 1_555 1_555
H14 C14 1_555 1_555
C15 C14 1_555 1_555
H15 C15 1_555 1_555
H16 C15 1_555 1_555
C16 C15 1_555 1_555
H17 C16 1_555 1_555
H18 C16 1_555 1_555
C17 C16 1_555 1_555
H19 C17 1_555 1_555
H20 C17 1_555 1_555
C18 C17 1_555 1_555
H21 C18 1_555 1_555
H22 C18 1_555 1_555
C19 C18 1_555 1_555
H23 C19 1_555 1_555
H24 C19 1_555 1_555
C20 C19 1_555 1_555
H25 C20 1_555 1_555
H26 C20 1_555 1_555
C21 C20 1_555 1_555
N1A C1A 1_555 1_555
C1A H1A 1_555 1_555
C2A C1A 1_555 1_555
H2A C2A 1_555 1_555
C3A C2A 1_555 1_555
C4A C3A 1_555 1_555
H3A C4A 1_555 1_555
C5A N1A 1_555 1_555
H4A C5A 1_555 1_555
C6A C3A 1_555 1_555
H5A C6A 1_555 1_555
C7A C6A 1_555 1_555
H6A C7A 1_555 1_555
C8A C7A 1_555 1_555
C9A C10 1_555 1_555
C10A C9 1_555 1_555
C11A C9A 1_555 1_555
H7A C11A 1_555 1_555
H8A C11A 1_555 1_555
H9A C11A 1_555 1_555
C12A C10A 1_555 1_555
H10A C12A 1_555 1_555
H11A C12A 1_555 1_555
H12A C12A 1_555 1_555
Zn1A N1A 1_555 1_555
O1A Zn1A 1_555 1_555
O2A C13A 1_555 1_555
O3A C21A 1_555 1_555
O4A C21A 1_555 1_555
C13A O1A 1_555 1_555
C14A C13A 1_555 1_555
H13A C14A 1_555 1_555
H14A C14A 1_555 1_555
C15A C14A 1_555 1_555
H15A C15A 1_555 1_555
H16A C15A 1_555 1_555
C16A C15A 1_555 1_555
H17A C16A 1_555 1_555
H18A C16A 1_555 1_555
C17A C16A 1_555 1_555
H19A C17A 1_555 1_555
H20A C17A 1_555 1_555
C18A C17A 1_555 1_555
H21A C18A 1_555 1_555
H22A C18A 1_555 1_555
C19A C18A 1_555 1_555
H23A C19A 1_555 1_555
H24A C19A 1_555 1_555
C20A C19A 1_555 1_555
H25A C20A 1_555 1_555
H26A C20A 1_555 1_555
C21A C20A 1_555 1_555
Zn1_2 O4A 1_555 1_555
Zn1_3 O3 1_555 1_555
Zn1A_2 O3A 1_555 1_555
Zn1A_3 O4 1_555 1_555
O3_2 Zn1 1_555 1_555
O3A_2 Zn1A 1_555 1_555
O4_2 Zn1A 1_555 1_555
O4A_2 Zn1 1_555 1_555
C4 C5 1_555 1_555
C4A C5A 1_555 1_555
C8A C9A 1_555 1_555
C8A C10A 1_555 1_555

#END
