
#######################################################################
#
#                 Cambridge Crystallographic Data Centre
#                                CCDC 
#
#######################################################################
#
# If this CIF has been generated from an entry in the Cambridge 
# Structural Database, then it will include bibliographic, chemical, 
# crystal, experimental, refinement or atomic coordinate data resulting 
# from the CCDC's data processing and validation procedures.
#
#######################################################################

data_XUJRAX
_symmetry_cell_setting           triclinic
_symmetry_space_group_name_H-M   'P -1'
_symmetry_Int_Tables_number      2
_space_group_name_Hall           '-P 1'
loop_
_symmetry_equiv_pos_site_id
_symmetry_equiv_pos_as_xyz
1 x,y,z
2 -x,-y,-z
_cell_length_a                   9.2569(19)
_cell_length_b                   10.270(2)
_cell_length_c                   15.604(3)
_cell_angle_alpha                99.68(3)
_cell_angle_beta                 99.16(3)
_cell_angle_gamma                110.02(3)
_cell_volume                     1335.81
loop_
_atom_site_label
_atom_site_type_symbol
_atom_site_fract_x
_atom_site_fract_y
_atom_site_fract_z
Zn1 Zn 1.10044(4) 1.12457(3) 0.37577(2)
N1 N 0.9009(3) 1.0138(3) 0.25806(16)
N2 N -0.7064(3) 0.2184(3) -0.50288(17)
O1 O 1.2610(2) 1.1697(2) 0.29965(15)
O2 O 1.2936(4) 0.9645(3) 0.29702(19)
O3 O 1.9225(3) 1.1497(3) 0.45220(17)
O4 O 2.0354(3) 1.3118(3) 0.38511(16)
O5 O 1.0685(3) 0.9181(2) 0.38824(16)
H1 H 1.0782 0.8900 0.4363
H2 H 1.1462 0.9152 0.3664
C1 C 0.7785(3) 0.8987(3) 0.2611(2)
H3 H 0.7853 0.8621 0.3123
C2 C 0.6433(3) 0.8312(3) 0.1934(2)
H4 H 0.5614 0.7507 0.1992
C3 C 0.6280(3) 0.8823(3) 0.11635(18)
C4 C 0.7568(4) 1.0002(3) 0.1131(2)
H5 H 0.7544 1.0382 0.0624
C5 C 0.8880(3) 1.0617(3) 0.1840(2)
H6 H 0.9726 1.1415 0.1798
C6 C 0.4847(3) 0.8186(3) 0.04339(19)
H7 H 0.4937 0.8403 -0.0122
C7 C 0.3441(3) 0.7333(3) 0.0490(2)
H8 H 0.3349 0.7119 0.1046
C8 C 0.1993(3) 0.6682(3) -0.02510(19)
C9 C 0.1962(3) 0.5768(3) -0.1040(2)
C10 C 0.0610(4) 0.5237(3) -0.1747(2)
C11 C -0.0711(4) 0.5584(4) -0.1652(2)
C12 C -0.0687(3) 0.6462(4) -0.0852(2)
C13 C 0.0658(3) 0.7007(3) -0.01532(19)
C14 C -0.2149(4) 0.5140(5) -0.2404(3)
H9 H -0.2456 0.5857 -0.2578
C15 C -0.2976(4) 0.3847(4) -0.2818(3)
H10 H -0.2669 0.3140 -0.2626
C16 C -0.4392(4) 0.3351(5) -0.3582(2)
C17 C -0.5004(4) 0.1938(4) -0.3994(2)
H11 H -0.4538 0.1326 -0.3798
C18 C -0.6302(4) 0.1411(4) -0.4698(2)
H12 H -0.6690 0.0431 -0.4970
C19 C -0.6469(5) 0.3568(4) -0.4637(3)
H13 H -0.6958 0.4153 -0.4852
C20 C -0.5141(5) 0.4194(5) -0.3915(3)
H14 H -0.4756 0.5179 -0.3656
C21 C 0.3335(4) 0.5309(4) -0.1120(3)
H15 H 0.2936 0.4290 -0.1381
H16 H 0.4015 0.5525 -0.0531
H17 H 0.3935 0.5818 -0.1499
C22 C 0.0615(4) 0.4320(5) -0.2616(2)
H18 H 0.1664 0.4663 -0.2731
H19 H -0.0141 0.4373 -0.3102
H20 H 0.0327 0.3338 -0.2569
C23 C -0.2139(4) 0.6799(5) -0.0760(3)
H21 H -0.2257 0.6854 -0.0150
H22 H -0.3070 0.6051 -0.1165
H23 H -0.2017 0.7705 -0.0908
C24 C 0.0708(4) 0.7988(4) 0.0705(2)
H24 H 0.0662 0.8869 0.0582
H25 H 0.1682 0.8198 0.1139
H26 H -0.0188 0.7523 0.0944
C25 C 1.3292(4) 1.0849(4) 0.2810(2)
C26 C 1.4659(5) 1.1345(6) 0.2370(3)
H27 H 1.4736 1.0501 0.2012
H28 H 1.4413 1.1902 0.1957
C27 C 1.6199(5) 1.2202(7) 0.2968(3)
H29 H 1.6932 1.1777 0.2780
H30 H 1.6517 1.3143 0.2831
C28 C 1.6528(5) 1.2465(6) 0.3928(3)
H31 H 1.6205 1.1538 0.4082
H32 H 1.5847 1.2939 0.4135
C29 C 1.8217(4) 1.3350(4) 0.4463(3)
H33 H 1.8572 1.4282 0.4316
H34 H 1.8235 1.3513 0.5103
C30 C 1.9342(3) 1.2631(3) 0.4276(2)
Zn1_2 Zn -0.89956(4) 0.12457(3) -0.62423(2)
Zn1_3 Zn 2.10044(4) 1.12457(3) 0.37577(2)
N2_2 N 1.2936(3) 1.2184(3) 0.49712(17)
O3_2 O 0.9225(3) 1.1497(3) 0.45220(17)
O4_2 O 1.0354(3) 1.3118(3) 0.38511(16)
loop_
_geom_bond_atom_site_label_1
_geom_bond_atom_site_label_2
_geom_bond_site_symmetry_1
_geom_bond_site_symmetry_2
Zn1 N1 1_555 1_555
N1 C1 1_555 1_555
N2 C18 1_555 1_555
O1 Zn1 1_555 1_555
O2 C25 1_555 1_555
O3 C30 1_555 1_555
O4 C30 1_555 1_555
O5 Zn1 1_555 1_555
H1 O5 1_555 1_555
H2 O5 1_555 1_555
C1 H3 1_555 1_555
C2 C1 1_555 1_555
H4 C2 1_555 1_555
C3 C2 1_555 1_555
C4 C3 1_555 1_555
H5 C4 1_555 1_555
C5 N1 1_555 1_555
H6 C5 1_555 1_555
C6 C3 1_555 1_555
H7 C6 1_555 1_555
C7 C6 1_555 1_555
H8 C7 1_555 1_555
C8 C7 1_555 1_555
C9 C8 1_555 1_555
C10 C9 1_555 1_555
C11 C10 1_555 1_555
C12 C11 1_555 1_555
C13 C8 1_555 1_555
C14 C11 1_555 1_555
H9 C14 1_555 1_555
C15 C14 1_555 1_555
H10 C15 1_555 1_555
C16 C15 1_555 1_555
C17 C16 1_555 1_555
H11 C17 1_555 1_555
C18 C17 1_555 1_555
H12 C18 1_555 1_555
C19 N2 1_555 1_555
H13 C19 1_555 1_555
C20 C16 1_555 1_555
H14 C20 1_555 1_555
C21 C9 1_555 1_555
H15 C21 1_555 1_555
H16 C21 1_555 1_555
H17 C21 1_555 1_555
C22 C10 1_555 1_555
H18 C22 1_555 1_555
H19 C22 1_555 1_555
H20 C22 1_555 1_555
C23 C12 1_555 1_555
H21 C23 1_555 1_555
H22 C23 1_555 1_555
H23 C23 1_555 1_555
C24 C13 1_555 1_555
H24 C24 1_555 1_555
H25 C24 1_555 1_555
H26 C24 1_555 1_555
C25 O1 1_555 1_555
C26 C25 1_555 1_555
H27 C26 1_555 1_555
H28 C26 1_555 1_555
C27 C26 1_555 1_555
H29 C27 1_555 1_555
H30 C27 1_555 1_555
C28 C27 1_555 1_555
H31 C28 1_555 1_555
H32 C28 1_555 1_555
C29 C28 1_555 1_555
H33 C29 1_555 1_555
H34 C29 1_555 1_555
C30 C29 1_555 1_555
Zn1_2 N2 1_555 1_555
Zn1_3 O3 1_555 1_555
N2_2 Zn1 1_555 1_555
O3_2 Zn1 1_555 1_555
O4_2 Zn1 1_555 1_555
O4 Zn1_3 1_555 1_555
C4 C5 1_555 1_555
C12 C13 1_555 1_555
C19 C20 1_555 1_555

#END
