
#######################################################################
#
#                 Cambridge Crystallographic Data Centre
#                                CCDC 
#
#######################################################################
#
# If this CIF has been generated from an entry in the Cambridge 
# Structural Database, then it will include bibliographic, chemical, 
# crystal, experimental, refinement or atomic coordinate data resulting 
# from the CCDC's data processing and validation procedures.
#
#######################################################################

data_XUJRUR
_symmetry_cell_setting           triclinic
_symmetry_space_group_name_H-M   'P -1'
_symmetry_Int_Tables_number      2
_space_group_name_Hall           '-P 1'
loop_
_symmetry_equiv_pos_site_id
_symmetry_equiv_pos_as_xyz
1 x,y,z
2 -x,-y,-z
_cell_length_a                   12.5906(5)
_cell_length_b                   14.9088(6)
_cell_length_c                   21.9753(6)
_cell_angle_alpha                82.214(2)
_cell_angle_beta                 85.027(2)
_cell_angle_gamma                70.730(2)
_cell_volume                     3854.11
loop_
_atom_site_label
_atom_site_type_symbol
_atom_site_fract_x
_atom_site_fract_y
_atom_site_fract_z
Tb1 Tb 0.315205(13) 0.605164(11) 0.820965(7)
Tb2 Tb -0.095094(13) 1.113682(11) 0.551855(7)
O1 O 0.21438(19) 0.63150(16) 0.72836(10)
O2 O 0.11264(19) 0.65639(16) 0.81455(10)
O3 O -0.1022(3) 0.9672(2) 0.59618(15)
O4 O -0.0052(3) 0.8647(2) 0.53512(13)
O5 O 0.41853(19) 0.67899(15) 0.74477(10)
O6 O 0.2638(2) 0.78096(16) 0.78196(10)
O7 O 0.0901(2) 1.0395(2) 0.57668(13)
O8 O 0.1886(2) 0.92908(19) 0.51925(13)
O9 O 0.51490(19) 0.53288(15) 0.86023(10)
O10 O 0.4142(2) 0.67712(16) 0.87997(11)
O11 O 0.7013(2) 0.53396(16) 1.11894(10)
O12 O 0.7548(2) 0.40675(15) 1.06998(10)
O13 O 0.38855(19) 0.47295(15) 0.76438(10)
H1 H 0.4345 0.4144 0.7711
H2 H 0.3996 0.4812 0.7269
O14 O -0.0539(2) 1.25028(19) 0.58255(12)
H3 H -0.0462 1.2564 0.6220
H4 H -0.0937 1.2926 0.5680
O15 O -0.2234(2) 1.26582(17) 0.50331(11)
H5 H -0.2265 1.3168 0.5138
H6 H -0.2333 1.2799 0.4614
O16 O -0.2836(2) 1.13799(18) 0.59978(11)
H7 H -0.3169 1.1996 0.6015
H8 H -0.2800 1.1090 0.6398
O17 O -0.0796(2) 1.10578(19) 0.66774(11)
H9 H -0.1388 1.1362 0.6930
H10 H -0.0464 1.0461 0.6859
C1 C 0.0144(3) 0.6898(2) 0.71828(14)
C2 C 0.0227(3) 0.7728(2) 0.67078(14)
H11 H 0.0937 0.7522 0.6455
H12 H 0.0233 0.8271 0.6920
C3 C -0.0786(3) 0.8044(2) 0.62911(14)
C4 C -0.1882(3) 0.8372(2) 0.66949(15)
H13 H -0.1883 0.8917 0.6907
H14 H -0.2541 0.8586 0.6433
C5 C -0.1963(3) 0.7547(3) 0.71672(15)
H15 H -0.2673 0.7765 0.7427
C6 C -0.0954(3) 0.7225(2) 0.75775(14)
H16 H -0.1009 0.6691 0.7886
H17 H -0.0953 0.7760 0.7799
C7 C 0.0141(3) 0.6062(2) 0.68454(16)
H18 H 0.0844 0.5852 0.6588
H19 H 0.0106 0.5515 0.7148
C8 C -0.0876(3) 0.6380(3) 0.64418(16)
H20 H -0.0874 0.5830 0.6226
C9 C -0.0781(3) 0.7193(2) 0.59644(14)
H21 H -0.1421 0.7391 0.5690
H22 H -0.0075 0.6976 0.5710
C10 C -0.1980(3) 0.6701(3) 0.68391(17)
H23 H -0.2637 0.6901 0.6576
H24 H -0.2039 0.6166 0.7146
C11 C 0.1181(3) 0.6575(2) 0.75629(14)
C12 C -0.0634(3) 0.8857(3) 0.58280(16)
C13 C 0.3661(3) 0.8425(2) 0.69670(14)
C14 C 0.2686(3) 0.8717(2) 0.65243(13)
H25 H 0.1957 0.8923 0.6760
H26 H 0.2711 0.8161 0.6317
C15 C 0.2780(3) 0.9542(2) 0.60382(14)
C16 C 0.2728(3) 1.0401(2) 0.63680(15)
H27 H 0.2783 1.0938 0.6061
H28 H 0.2000 1.0617 0.6604
C17 C 0.3697(3) 1.0117(2) 0.68041(16)
H29 H 0.3660 1.0682 0.7014
C18 C 0.3601(3) 0.9301(2) 0.72896(15)
H30 H 0.2878 0.9512 0.7530
H31 H 0.4221 0.9126 0.7576
C19 C 0.4784(3) 0.8108(2) 0.65974(15)
H32 H 0.5414 0.7921 0.6878
H33 H 0.4831 0.7545 0.6391
C20 C 0.4883(3) 0.8923(2) 0.61167(16)
H34 H 0.5618 0.8706 0.5878
C21 C 0.3918(3) 0.9205(2) 0.56755(15)
H35 H 0.3955 0.8649 0.5463
H36 H 0.3990 0.9725 0.5360
C22 C 0.4836(3) 0.9787(3) 0.64387(17)
H37 H 0.4913 1.0314 0.6130
H38 H 0.5464 0.9608 0.6721
C23 C 0.3492(3) 0.7639(2) 0.74391(14)
C24 C 0.1771(3) 0.9766(2) 0.56279(14)
C25 C 0.6043(3) 0.6195(2) 0.91337(13)
C26 C 0.6184(3) 0.5542(2) 0.97556(13)
H39 H 0.5485 0.5744 1.0017
H40 H 0.6325 0.4871 0.9681
C27 C 0.7186(3) 0.5614(2) 1.00871(14)
C28 C 0.6940(3) 0.6659(2) 1.02002(14)
H41 H 0.6235 0.6871 1.0456
H42 H 0.7561 0.6715 1.0424
C29 C 0.6823(3) 0.7296(2) 0.95840(14)
H43 H 0.6679 0.7973 0.9661
C30 C 0.5820(3) 0.7236(2) 0.92570(14)
H44 H 0.5720 0.7660 0.8864
H45 H 0.5122 0.7451 0.9517
C31 C 0.7145(3) 0.5867(2) 0.87321(14)
H46 H 0.7292 0.5200 0.8648
H47 H 0.7064 0.6278 0.8334
C32 C 0.8141(3) 0.5932(2) 0.90647(15)
H48 H 0.8849 0.5720 0.8803
C33 C 0.8268(3) 0.5285(2) 0.96804(14)
H49 H 0.8416 0.4614 0.9604
H50 H 0.8915 0.5314 0.9894
C34 C 0.7909(3) 0.6966(2) 0.91880(15)
H51 H 0.8546 0.7012 0.9402
H52 H 0.7838 0.7384 0.8793
C35 C 0.5054(3) 0.6091(2) 0.88273(13)
C36 C 0.7267(3) 0.4974(2) 1.06961(14)
Tb1A Tb 0.684795(13) 0.394836(11) 1.179035(7)
Tb2A Tb 0.095094(13) 0.886318(11) 0.448145(7)
O4A O 0.0052(3) 1.1353(2) 0.46488(13)
O8A O -0.1886(2) 1.07092(19) 0.48075(13)
O11A O 0.2987(2) 0.46604(16) 0.88106(10)
O12A O 0.2452(2) 0.59325(15) 0.93002(10)
Tb3 Tb 0.682784(13) 0.398825(11) 0.681470(7)
Tb4 Tb 1.087943(13) -0.109461(10) 0.957807(7)
O18 O 0.58021(19) 0.32528(15) 0.75919(10)
O19 O 0.7366(2) 0.22687(15) 0.72198(10)
O20 O 0.9016(2) -0.04926(16) 0.92743(10)
O21 O 0.8003(2) 0.07288(16) 0.97951(10)
O22 O 0.7858(2) 0.37487(16) 0.77402(10)
O23 O 0.8855(2) 0.35228(17) 0.68695(10)
O24 O 1.0237(2) 0.08350(17) 0.95258(10)
O25 O 1.0962(2) 0.00583(17) 0.87272(11)
O26 O 0.6866(2) 0.54250(16) 0.61948(10)
O27 O 0.7431(2) 0.41410(15) 0.57181(10)
O28 O 0.5128(2) 0.53726(16) 0.35764(10)
O29 O 0.4108(2) 0.68309(16) 0.37418(10)
O30 O 0.60796(19) 0.53065(15) 0.73813(9)
H53 H 0.5573 0.5799 0.7291
H54 H 0.5988 0.5156 0.7784
O31 O 1.0388(2) -0.21122(18) 0.89766(11)
H55 H 1.0580 -0.2673 0.8805
H56 H 0.9638 -0.1638 0.8894
O32 O 1.1811(2) -0.26679(15) 1.00510(10)
H57 H 1.2096 -0.2926 0.9706
H58 H 1.2159 -0.2805 1.0371
O33 O 1.2620(2) -0.15686(17) 0.89978(10)
H59 H 1.2445 -0.1523 0.8646
H60 H 1.3033 -0.2174 0.9123
C37 C 0.6321(3) 0.1588(2) 0.80237(14)
C38 C 0.7276(3) 0.1266(2) 0.84854(14)
H61 H 0.8016 0.1072 0.8259
H62 H 0.7238 0.1807 0.8712
C39 C 0.7165(3) 0.0423(2) 0.89437(14)
C40 C 0.7241(3) -0.0402(2) 0.85801(15)
H63 H 0.7186 -0.0959 0.8867
H64 H 0.7978 -0.0596 0.8351
C41 C 0.6290(3) -0.0101(2) 0.81281(15)
H65 H 0.6345 -0.0651 0.7899
C42 C 0.6404(3) 0.0739(2) 0.76704(15)
H66 H 0.5798 0.0932 0.7374
H67 H 0.7138 0.0543 0.7438
C43 C 0.5187(3) 0.1888(2) 0.83814(15)
H68 H 0.4568 0.2099 0.8092
H69 H 0.5134 0.2430 0.8610
C44 C 0.5069(3) 0.1037(2) 0.88358(15)
H70 H 0.4322 0.1235 0.9065
C45 C 0.6010(3) 0.0736(2) 0.92923(15)
H71 H 0.5930 0.0201 0.9592
H72 H 0.5954 0.1279 0.9521
C46 C 0.5148(3) 0.0202(3) 0.84779(17)
H73 H 0.5062 -0.0343 0.8766
H74 H 0.4536 0.0400 0.8185
C47 C 0.6501(3) 0.2405(2) 0.75854(14)
C48 C 0.8129(3) 0.0195(2) 0.93793(14)
C49 C 0.9853(3) 0.3076(2) 0.78234(14)
C50 C 0.9776(3) 0.2165(2) 0.82137(14)
H75 H 0.9756 0.1694 0.7941
H76 H 0.9072 0.2318 0.8475
C51 C 1.0807(3) 0.1727(2) 0.86275(14)
C52 C 1.1888(3) 0.1496(2) 0.82053(15)
H77 H 1.2556 0.1212 0.8459
H78 H 1.1876 0.1023 0.7932
C53 C 1.1970(3) 0.2403(2) 0.78169(15)
H79 H 1.2675 0.2243 0.7549
C54 C 1.0942(3) 0.2826(2) 0.74139(14)
H80 H 1.0929 0.2357 0.7138
H81 H 1.0995 0.3409 0.7156
C55 C 0.9881(3) 0.3799(2) 0.82538(14)
H82 H 0.9917 0.4396 0.8007
H83 H 0.9185 0.3956 0.8520
C56 C 1.0908(3) 0.3377(2) 0.86519(15)
H84 H 1.0918 0.3856 0.8927
C57 C 1.0827(3) 0.2468(2) 0.90478(14)
H85 H 1.0133 0.2626 0.9316
H86 H 1.1481 0.2199 0.9313
C58 C 1.1987(3) 0.3149(3) 0.82394(16)
H87 H 1.2654 0.2891 0.8495
H88 H 1.2032 0.3739 0.7987
C59 C 0.8806(3) 0.3475(2) 0.74501(14)
C60 C 1.0673(3) 0.0823(3) 0.89838(14)
C61 C 0.7063(3) 0.5679(2) 0.50954(14)
C62 C 0.6099(3) 0.5606(2) 0.47419(13)
H89 H 0.5384 0.5809 0.4990
H90 H 0.6250 0.4933 0.4668
C63 C 0.5989(3) 0.6250(2) 0.41184(14)
C64 C 0.7106(3) 0.5913(2) 0.37356(14)
H91 H 0.7259 0.5243 0.3655
H92 H 0.7049 0.6317 0.3336
C65 C 0.8076(3) 0.5981(2) 0.40884(15)
H93 H 0.8799 0.5762 0.3839
C66 C 0.8171(3) 0.5345(2) 0.47067(14)
H94 H 0.8801 0.5382 0.4931
H95 H 0.8330 0.4672 0.4633
C67 C 0.6817(3) 0.6728(2) 0.52046(14)
H96 H 0.6100 0.6948 0.5449
H97 H 0.7426 0.6782 0.5439
C68 C 0.6736(3) 0.7356(2) 0.45845(14)
H98 H 0.6584 0.8035 0.4660
C69 C 0.5760(3) 0.7292(2) 0.42393(14)
H99 H 0.5684 0.7709 0.3844
H100 H 0.5047 0.7512 0.4487
C70 C 0.7841(3) 0.7025(2) 0.42057(15)
H101 H 0.8464 0.7075 0.4430
H102 H 0.7789 0.7437 0.3809
C71 C 0.7131(3) 0.5055(2) 0.57070(14)
C72 C 0.5021(3) 0.6152(2) 0.37937(14)
Tb3A Tb 0.317216(13) 0.601175(11) 0.318530(7)
Tb4A Tb 0.912057(13) 0.109461(10) 1.042193(7)
O21A O 1.1997(2) -0.07288(16) 1.02049(10)
O24A O 0.9763(2) -0.08350(17) 1.04742(10)
O28A O 0.4872(2) 0.46274(16) 0.64236(10)
O29A O 0.5892(2) 0.31691(16) 0.62582(10)
O34 O 0.6928(2) 0.34764(16) 0.89268(10)
H103 H 0.6292 0.3988 0.8885
H104 H 0.7208 0.3526 0.8533
O35 O -0.3185(2) 1.35269(16) 0.39090(10)
H105 H -0.2778 1.3557 0.3534
H106 H -0.3800 1.3954 0.3893
O36 O 1.0345(3) -0.0505(2) 0.76449(13)
H107 H 1.1149 -0.0807 0.7696
H108 H 1.0215 -0.0449 0.8049
loop_
_geom_bond_atom_site_label_1
_geom_bond_atom_site_label_2
_geom_bond_site_symmetry_1
_geom_bond_site_symmetry_2
Tb1 O1 1_555 1_555
Tb2 O3 1_555 1_555
O1 C11 1_555 1_555
O2 Tb1 1_555 1_555
O3 C12 1_555 1_555
O4 C12 1_555 1_555
O5 Tb1 1_555 1_555
O6 Tb1 1_555 1_555
O7 Tb2 1_555 1_555
O8 C24 1_555 1_555
O9 Tb1 1_555 1_555
O10 Tb1 1_555 1_555
O11 C36 1_555 1_555
O12 C36 1_555 1_555
O13 Tb1 1_555 1_555
H1 O13 1_555 1_555
H2 O13 1_555 1_555
O14 Tb2 1_555 1_555
H3 O14 1_555 1_555
H4 O14 1_555 1_555
O15 Tb2 1_555 1_555
H5 O15 1_555 1_555
H6 O15 1_555 1_555
O16 Tb2 1_555 1_555
H7 O16 1_555 1_555
H8 O16 1_555 1_555
O17 Tb2 1_555 1_555
H9 O17 1_555 1_555
H10 O17 1_555 1_555
C1 C2 1_555 1_555
C2 H11 1_555 1_555
H12 C2 1_555 1_555
C3 C2 1_555 1_555
C4 C3 1_555 1_555
H13 C4 1_555 1_555
H14 C4 1_555 1_555
C5 C4 1_555 1_555
H15 C5 1_555 1_555
C6 C1 1_555 1_555
H16 C6 1_555 1_555
H17 C6 1_555 1_555
C7 C1 1_555 1_555
H18 C7 1_555 1_555
H19 C7 1_555 1_555
C8 C7 1_555 1_555
H20 C8 1_555 1_555
C9 C3 1_555 1_555
H21 C9 1_555 1_555
H22 C9 1_555 1_555
C10 C5 1_555 1_555
H23 C10 1_555 1_555
H24 C10 1_555 1_555
C11 O2 1_555 1_555
C12 C3 1_555 1_555
C13 C14 1_555 1_555
C14 H25 1_555 1_555
H26 C14 1_555 1_555
C15 C14 1_555 1_555
C16 C15 1_555 1_555
H27 C16 1_555 1_555
H28 C16 1_555 1_555
C17 C16 1_555 1_555
H29 C17 1_555 1_555
C18 C13 1_555 1_555
H30 C18 1_555 1_555
H31 C18 1_555 1_555
C19 C13 1_555 1_555
H32 C19 1_555 1_555
H33 C19 1_555 1_555
C20 C19 1_555 1_555
H34 C20 1_555 1_555
C21 C15 1_555 1_555
H35 C21 1_555 1_555
H36 C21 1_555 1_555
C22 C17 1_555 1_555
H37 C22 1_555 1_555
H38 C22 1_555 1_555
C23 O5 1_555 1_555
C24 O7 1_555 1_555
C25 C26 1_555 1_555
C26 H39 1_555 1_555
H40 C26 1_555 1_555
C27 C26 1_555 1_555
C28 C27 1_555 1_555
H41 C28 1_555 1_555
H42 C28 1_555 1_555
C29 C28 1_555 1_555
H43 C29 1_555 1_555
C30 C25 1_555 1_555
H44 C30 1_555 1_555
H45 C30 1_555 1_555
C31 C25 1_555 1_555
H46 C31 1_555 1_555
H47 C31 1_555 1_555
C32 C31 1_555 1_555
H48 C32 1_555 1_555
C33 C27 1_555 1_555
H49 C33 1_555 1_555
H50 C33 1_555 1_555
C34 C29 1_555 1_555
H51 C34 1_555 1_555
H52 C34 1_555 1_555
C35 O9 1_555 1_555
C36 C27 1_555 1_555
Tb3 O18 1_555 1_555
Tb4 O20 1_555 1_555
O18 C47 1_555 1_555
O19 Tb3 1_555 1_555
O20 C48 1_555 1_555
O21 C48 1_555 1_555
O22 Tb3 1_555 1_555
O23 Tb3 1_555 1_555
O24 Tb4 1_555 1_555
O25 Tb4 1_555 1_555
O26 Tb3 1_555 1_555
O27 Tb3 1_555 1_555
O28 C72 1_555 1_555
O29 C72 1_555 1_555
O30 Tb3 1_555 1_555
H53 O30 1_555 1_555
H54 O30 1_555 1_555
O31 Tb4 1_555 1_555
H55 O31 1_555 1_555
H56 O31 1_555 1_555
O32 Tb4 1_555 1_555
H57 O32 1_555 1_555
H58 O32 1_555 1_555
O33 Tb4 1_555 1_555
H59 O33 1_555 1_555
H60 O33 1_555 1_555
C37 C38 1_555 1_555
C38 H61 1_555 1_555
H62 C38 1_555 1_555
C39 C38 1_555 1_555
C40 C39 1_555 1_555
H63 C40 1_555 1_555
H64 C40 1_555 1_555
C41 C40 1_555 1_555
H65 C41 1_555 1_555
C42 C37 1_555 1_555
H66 C42 1_555 1_555
H67 C42 1_555 1_555
C43 C37 1_555 1_555
H68 C43 1_555 1_555
H69 C43 1_555 1_555
C44 C43 1_555 1_555
H70 C44 1_555 1_555
C45 C39 1_555 1_555
H71 C45 1_555 1_555
H72 C45 1_555 1_555
C46 C41 1_555 1_555
H73 C46 1_555 1_555
H74 C46 1_555 1_555
C47 O19 1_555 1_555
C48 C39 1_555 1_555
C49 C50 1_555 1_555
C50 H75 1_555 1_555
H76 C50 1_555 1_555
C51 C50 1_555 1_555
C52 C51 1_555 1_555
H77 C52 1_555 1_555
H78 C52 1_555 1_555
C53 C52 1_555 1_555
H79 C53 1_555 1_555
C54 C49 1_555 1_555
H80 C54 1_555 1_555
H81 C54 1_555 1_555
C55 C49 1_555 1_555
H82 C55 1_555 1_555
H83 C55 1_555 1_555
C56 C55 1_555 1_555
H84 C56 1_555 1_555
C57 C51 1_555 1_555
H85 C57 1_555 1_555
H86 C57 1_555 1_555
C58 C53 1_555 1_555
H87 C58 1_555 1_555
H88 C58 1_555 1_555
C59 O22 1_555 1_555
C60 O24 1_555 1_555
C61 C62 1_555 1_555
C62 H89 1_555 1_555
H90 C62 1_555 1_555
C63 C62 1_555 1_555
C64 C63 1_555 1_555
H91 C64 1_555 1_555
H92 C64 1_555 1_555
C65 C64 1_555 1_555
H93 C65 1_555 1_555
C66 C61 1_555 1_555
H94 C66 1_555 1_555
H95 C66 1_555 1_555
C67 C61 1_555 1_555
H96 C67 1_555 1_555
H97 C67 1_555 1_555
C68 C67 1_555 1_555
H98 C68 1_555 1_555
C69 C63 1_555 1_555
H99 C69 1_555 1_555
H100 C69 1_555 1_555
C70 C65 1_555 1_555
H101 C70 1_555 1_555
H102 C70 1_555 1_555
C71 O26 1_555 1_555
C72 C63 1_555 1_555
O34 H103 1_555 1_555
H104 O34 1_555 1_555
O35 H105 1_555 1_555
H106 O35 1_555 1_555
O36 H107 1_555 1_555
H108 O36 1_555 1_555
Tb1A O11 1_555 1_555
Tb2A O4 1_555 1_555
O4A Tb2 1_555 1_555
O8A Tb2 1_555 1_555
O11A Tb1 1_555 1_555
O12A Tb1 1_555 1_555
Tb3A O28 1_555 1_555
Tb4A O21 1_555 1_555
O21A Tb4 1_555 1_555
O24A Tb4 1_555 1_555
O28A Tb3 1_555 1_555
O29A Tb3 1_555 1_555
O6 C23 1_555 1_555
O8 Tb2A 1_555 1_555
O10 C35 1_555 1_555
O12 Tb1A 1_555 1_555
C1 C11 1_555 1_555
C5 C6 1_555 1_555
C8 C9 1_555 1_555
C8 C10 1_555 1_555
C13 C23 1_555 1_555
C15 C24 1_555 1_555
C17 C18 1_555 1_555
C20 C21 1_555 1_555
C20 C22 1_555 1_555
C25 C35 1_555 1_555
C29 C30 1_555 1_555
C32 C33 1_555 1_555
C32 C34 1_555 1_555
O23 C59 1_555 1_555
O24 Tb4A 1_555 1_555
O25 C60 1_555 1_555
O27 C71 1_555 1_555
O29 Tb3A 1_555 1_555
C37 C47 1_555 1_555
C41 C42 1_555 1_555
C44 C45 1_555 1_555
C44 C46 1_555 1_555
C49 C59 1_555 1_555
C51 C60 1_555 1_555
C53 C54 1_555 1_555
C56 C57 1_555 1_555
C56 C58 1_555 1_555
C61 C71 1_555 1_555
C65 C66 1_555 1_555
C68 C69 1_555 1_555
C68 C70 1_555 1_555
Tb4A O24A 1_555 1_555

#END
