
#######################################################################
#
#                 Cambridge Crystallographic Data Centre
#                                CCDC 
#
#######################################################################
#
# If this CIF has been generated from an entry in the Cambridge 
# Structural Database, then it will include bibliographic, chemical, 
# crystal, experimental, refinement or atomic coordinate data resulting 
# from the CCDC's data processing and validation procedures.
#
#######################################################################

data_XUJYEI
_symmetry_cell_setting           monoclinic
_symmetry_space_group_name_H-M   'P 21/n'
_symmetry_Int_Tables_number      14
_space_group_name_Hall           '-P 2yn'
loop_
_symmetry_equiv_pos_site_id
_symmetry_equiv_pos_as_xyz
1 x,y,z
2 1/2-x,1/2+y,1/2-z
3 -x,-y,-z
4 1/2+x,1/2-y,1/2+z
_cell_length_a                   15.372(2)
_cell_length_b                   18.996(3)
_cell_length_c                   19.227(3)
_cell_angle_alpha                90
_cell_angle_beta                 98.401(3)
_cell_angle_gamma                90
_cell_volume                     5554.17
loop_
_atom_site_label
_atom_site_type_symbol
_atom_site_fract_x
_atom_site_fract_y
_atom_site_fract_z
Mn1 Mn 0.86161(4) 0.63442(2) 0.37762(2)
Mn2 Mn 0.64948(4) 0.84073(2) 0.58304(3)
Mn3 Mn 0.96368(4) 0.80911(2) 0.33441(3)
O1 O 0.86134(18) 0.61359(11) 0.23917(12)
O2 O 0.88177(16) 0.71306(10) 0.29805(11)
O3 O 1.2439(2) 0.74120(18) 0.37967(13)
H1 H 1.263(3) 0.7177(19) 0.3488(16)
O4 O 1.11898(17) 0.79311(13) 0.39565(11)
O5 O 0.50891(19) 0.75286(14) 0.39902(14)
H2 H 0.531(2) 0.7261(16) 0.3730(17)
O6 O 0.54263(16) 0.81184(12) 0.49863(12)
O7 O 0.72107(16) 0.63358(12) 0.32356(11)
O8 O 0.58643(17) 0.67793(13) 0.32296(11)
O9 O 0.97113(17) 0.69634(12) 0.43774(11)
O10 O 0.94012(17) 0.81055(12) 0.43947(11)
O11 O 1.30104(17) 0.67644(14) 0.28305(12)
O12 O 1.25324(17) 0.64395(11) 0.17202(12)
N1 N 0.8368(2) 0.52833(14) 0.42643(15)
N2 N 0.9770(2) 0.56169(14) 0.36804(14)
N3 N 0.5758(2) 0.94090(15) 0.59469(15)
N4 N 0.7151(2) 0.92920(15) 0.52744(15)
N5 N 0.8404(2) 0.86972(14) 0.29327(15)
N6 N 1.0001(2) 0.92412(14) 0.32546(15)
N7 N 0.70831(19) 0.75599(13) 0.52379(13)
N8 N 0.78099(19) 0.69056(13) 0.45243(13)
N9 N 1.04349(18) 0.76821(13) 0.26033(12)
N10 N 1.09706(18) 0.71327(12) 0.17192(13)
C1 C 1.0141(3) 0.74962(19) 0.66626(19)
H3 H 1.0639 0.7565 0.6994
C2 C 0.9349(3) 0.73372(19) 0.68760(18)
H4 H 0.9312 0.7293 0.7352
C3 C 1.0197(3) 0.75532(18) 0.59551(18)
H5 H 1.0736 0.7654 0.5812
C4 C 0.9461(2) 0.74625(16) 0.54550(16)
C5 C 0.8653(2) 0.73141(15) 0.56676(15)
C6 C 0.8611(3) 0.72435(17) 0.63861(16)
H6 H 0.8079 0.7132 0.6534
C7 C 0.7853(2) 0.72529(16) 0.51460(16)
C8 C 0.6959(2) 0.70014(15) 0.42103(16)
C9 C 0.6516(2) 0.74018(16) 0.46413(16)
C10 C 0.5630(3) 0.76993(18) 0.45418(19)
C11 C 0.6656(3) 0.66805(17) 0.35108(17)
C12 C 0.8666(2) 0.71644(16) 0.17114(16)
C13 C 0.7882(3) 0.71354(18) 0.12530(18)
H7 H 0.7395 0.6919 0.1396
C14 C 0.7812(3) 0.7423(2) 0.05872(19)
H8 H 0.7285 0.7395 0.0281
C15 C 0.8534(3) 0.7753(2) 0.03820(18)
H9 H 0.8492 0.7950 -0.0064
C16 C 0.9316(3) 0.77920(17) 0.08313(16)
H10 H 0.9791 0.8024 0.0688
C17 C 0.9405(2) 0.74917(15) 0.14947(15)
C18 C 0.8710(2) 0.67790(17) 0.24030(16)
C19 C 1.0272(2) 0.74539(15) 0.19323(15)
C20 C 1.1289(2) 0.74876(16) 0.28395(15)
C21 C 1.1650(3) 0.76250(19) 0.35755(18)
C22 C 0.6077(3) 1.00143(19) 0.57273(19)
C23 C 0.5039(3) 0.9421(2) 0.6252(2)
H11 H 0.4826 0.8996 0.6399
C24 C 0.4592(4) 1.0024(3) 0.6363(3)
H12 H 0.4075 1.0013 0.6561
C25 C 0.5671(4) 1.0647(2) 0.5844(2)
H13 H 0.5895 1.1070 0.5702
C26 C 0.6858(3) 0.9950(2) 0.53624(19)
C27 C 0.7648(3) 0.5149(2) 0.4548(2)
H14 H 0.7201 0.5483 0.4504
C28 C 0.7536(3) 0.4530(2) 0.4910(2)
H15 H 0.7019 0.4443 0.5094
C29 C 0.8210(3) 0.4050(2) 0.4987(2)
H16 H 0.8166 0.3642 0.5246
C30 C 0.8949(3) 0.41708(18) 0.46813(19)
H17 H 0.9400 0.3841 0.4717
C31 C 0.9008(3) 0.47965(16) 0.43187(16)
C32 C 0.9772(3) 0.49633(17) 0.39600(17)
C33 C 1.0435(3) 0.4495(2) 0.3898(2)
H18 H 1.0429 0.4048 0.4096
C34 C 1.0436(3) 0.57953(19) 0.3340(2)
H19 H 1.0432 0.6243 0.3145
C35 C 1.1120(3) 0.5359(2) 0.3261(2)
H20 H 1.1577 0.5507 0.3028
C36 C 0.7598(3) 0.8418(2) 0.2810(2)
H21 H 0.7542 0.7937 0.2883
C37 C 0.6841(3) 0.8797(2) 0.2580(2)
H22 H 0.6292 0.8582 0.2509
C38 C 0.6935(3) 0.9505(2) 0.2462(2)
H23 H 0.6446 0.9780 0.2302
C39 C 0.7748(3) 0.9802(2) 0.25810(19)
H24 H 0.7812 1.0280 0.2500
C40 C 0.8478(3) 0.93997(17) 0.28214(17)
C41 C 0.9368(3) 0.96910(17) 0.29833(17)
C42 C 0.9556(3) 1.03949(19) 0.2878(2)
H25 H 0.9113 1.0701 0.2687
C43 C 1.0395(4) 1.0633(2) 0.3057(3)
H26 H 1.0526 1.1103 0.2989
C44 C 1.1037(3) 1.0184(2) 0.3335(2)
H27 H 1.1613 1.0338 0.3461
C45 C 1.0810(3) 0.9486(2) 0.3427(2)
H28 H 1.1248 0.9175 0.3618
C46 C 0.9536(2) 0.75186(18) 0.46885(17)
C47 C 0.7840(3) 0.9208(2) 0.4939(2)
H29 H 0.8035 0.8751 0.4877
C48 C 0.8281(4) 0.9751(3) 0.4678(2)
H30 H 0.8760 0.9670 0.4443
C49 C 0.7983(4) 1.0422(3) 0.4778(3)
H31 H 0.8274 1.0807 0.4621
C50 C 0.7260(4) 1.0528(2) 0.5109(3)
H32 H 0.7045 1.0979 0.5161
C51 C 0.4941(4) 1.0644(3) 0.6169(3)
H33 H 0.4677 1.1068 0.6260
C52 C 1.1109(3) 0.4690(2) 0.3540(3)
H34 H 1.1555 0.4373 0.3486
C53 C 1.1611(2) 0.71464(16) 0.22956(16)
C54 C 1.2449(2) 0.67629(18) 0.22833(19)
Mn2C Mn 1.14948(4) 0.65927(2) 0.08304(3)
O12C O 0.75324(17) 0.85605(11) 0.67202(12)
N10C N 0.59706(18) 0.78673(12) 0.67192(13)
N11 N 0.4332(15) 0.4289(12) 0.4673(9)
C55 C 0.3790(13) 0.4110(11) 0.4105(8)
H35 H 0.3660 0.3622 0.4010
C56 C 0.3513(11) 0.4523(7) 0.3515(8)
H36 H 0.3082 0.4389 0.3125
C57 C 0.3827(12) 0.5212(8) 0.3498(12)
H37 H 0.3678 0.5578 0.3157
C58 C 0.4400(14) 0.5381(14) 0.4108(12)
H38 H 0.4633 0.5849 0.4176
C59 C 0.4651(18) 0.4927(13) 0.4682(15)
N11B N 0.5668(15) 0.5711(12) 0.5327(9)
C55B C 0.6210(13) 0.5890(11) 0.5895(8)
H35B H 0.6340 0.6378 0.5990
C56B C 0.6487(11) 0.5477(7) 0.6485(8)
H36B H 0.6918 0.5611 0.6875
C57B C 0.6173(12) 0.4788(8) 0.6502(12)
H37B H 0.6322 0.4422 0.6843
C58B C 0.5600(14) 0.4619(14) 0.5892(12)
H38B H 0.5367 0.4151 0.5824
C59B C 0.5349(18) 0.5073(13) 0.5318(15)
N12? N 0.5374(13) 0.4482(11) 0.5792(12)
C60? C 0.5642(18) 0.5704(16) 0.5501(11)
H39? H 0.4487 0.3960 0.4873
C61? C 0.3809(15) 0.4202(10) 0.3876(9)
H40? H 0.3467 0.3777 0.3839
C62? C 0.3660(12) 0.4759(8) 0.3414(9)
H41? H 0.3337 0.4626 0.2968
C63? C 0.4080(12) 0.5401(9) 0.3604(12)
H42? H 0.3931 0.5749 0.3244
C64? C 0.5255(18) 0.5059(13) 0.5355(16)
loop_
_geom_bond_atom_site_label_1
_geom_bond_atom_site_label_2
_geom_bond_site_symmetry_1
_geom_bond_site_symmetry_2
Mn1 O2 1_555 1_555
Mn2 O6 1_555 1_555
Mn3 O2 1_555 1_555
O1 C18 1_555 1_555
O2 C18 1_555 1_555
O3 H1 1_555 1_555
O4 C21 1_555 1_555
O5 H2 1_555 1_555
O6 C10 1_555 1_555
O7 Mn1 1_555 1_555
O8 C11 1_555 1_555
O9 Mn1 1_555 1_555
O10 Mn3 1_555 1_555
O11 C54 1_555 1_555
O12 C54 1_555 1_555
N1 Mn1 1_555 1_555
N2 Mn1 1_555 1_555
N3 Mn2 1_555 1_555
N4 Mn2 1_555 1_555
N5 Mn3 1_555 1_555
N6 Mn3 1_555 1_555
N7 Mn2 1_555 1_555
N8 Mn1 1_555 1_555
N9 Mn3 1_555 1_555
N10 C19 1_555 1_555
C1 H3 1_555 1_555
C2 C1 1_555 1_555
H4 C2 1_555 1_555
C3 C1 1_555 1_555
H5 C3 1_555 1_555
C4 C3 1_555 1_555
C5 C4 1_555 1_555
C6 C2 1_555 1_555
H6 C6 1_555 1_555
C7 N7 1_555 1_555
C8 N8 1_555 1_555
C9 N7 1_555 1_555
C10 O5 1_555 1_555
C11 O7 1_555 1_555
C12 C13 1_555 1_555
C13 H7 1_555 1_555
C14 C13 1_555 1_555
H8 C14 1_555 1_555
C15 C14 1_555 1_555
H9 C15 1_555 1_555
C16 C15 1_555 1_555
H10 C16 1_555 1_555
C17 C12 1_555 1_555
C18 C12 1_555 1_555
C19 N9 1_555 1_555
C20 N9 1_555 1_555
C21 O3 1_555 1_555
C22 N3 1_555 1_555
C23 N3 1_555 1_555
H11 C23 1_555 1_555
C24 C23 1_555 1_555
H12 C24 1_555 1_555
C25 C22 1_555 1_555
H13 C25 1_555 1_555
C26 N4 1_555 1_555
C27 N1 1_555 1_555
H14 C27 1_555 1_555
C28 C27 1_555 1_555
H15 C28 1_555 1_555
C29 C28 1_555 1_555
H16 C29 1_555 1_555
C30 C29 1_555 1_555
H17 C30 1_555 1_555
C31 N1 1_555 1_555
C32 N2 1_555 1_555
C33 C32 1_555 1_555
H18 C33 1_555 1_555
C34 N2 1_555 1_555
H19 C34 1_555 1_555
C35 C34 1_555 1_555
H20 C35 1_555 1_555
C36 N5 1_555 1_555
H21 C36 1_555 1_555
C37 C36 1_555 1_555
H22 C37 1_555 1_555
C38 C37 1_555 1_555
H23 C38 1_555 1_555
C39 C38 1_555 1_555
H24 C39 1_555 1_555
C40 N5 1_555 1_555
C41 N6 1_555 1_555
C42 C41 1_555 1_555
H25 C42 1_555 1_555
C43 C42 1_555 1_555
H26 C43 1_555 1_555
C44 C43 1_555 1_555
H27 C44 1_555 1_555
C45 N6 1_555 1_555
H28 C45 1_555 1_555
C46 O9 1_555 1_555
C47 N4 1_555 1_555
H29 C47 1_555 1_555
C48 C47 1_555 1_555
H30 C48 1_555 1_555
C49 C48 1_555 1_555
H31 C49 1_555 1_555
C50 C26 1_555 1_555
H32 C50 1_555 1_555
C51 C24 1_555 1_555
H33 C51 1_555 1_555
C52 C33 1_555 1_555
H34 C52 1_555 1_555
C53 N10 1_555 1_555
C54 C53 1_555 1_555
N11 C55 1_555 1_555
C55 H35 1_555 1_555
C56 C55 1_555 1_555
H36 C56 1_555 1_555
C57 C56 1_555 1_555
H37 C57 1_555 1_555
C58 C57 1_555 1_555
H38 C58 1_555 1_555
C59 N11 1_555 1_555
Mn2C O12 1_555 1_555
O12C Mn2 1_555 1_555
N10C Mn2 1_555 1_555
N11B C55B 1_555 1_555
C55B H35B 1_555 1_555
C56B C55B 1_555 1_555
H36B C56B 1_555 1_555
C57B C56B 1_555 1_555
H37B C57B 1_555 1_555
C58B C57B 1_555 1_555
H38B C58B 1_555 1_555
C59B C59 1_555 1_555
O10 C46 1_555 1_555
N8 C7 1_555 1_555
N10 Mn2C 1_555 1_555
C4 C46 1_555 1_555
C5 C6 1_555 1_555
C5 C7 1_555 1_555
C8 C9 1_555 1_555
C8 C11 1_555 1_555
C9 C10 1_555 1_555
C16 C17 1_555 1_555
C17 C19 1_555 1_555
C20 C21 1_555 1_555
C20 C53 1_555 1_555
C22 C26 1_555 1_555
C25 C51 1_555 1_555
C30 C31 1_555 1_555
C31 C32 1_555 1_555
C35 C52 1_555 1_555
C39 C40 1_555 1_555
C40 C41 1_555 1_555
C44 C45 1_555 1_555
C49 C50 1_555 1_555
C58 C59 1_555 1_555
N11B C59B 1_555 1_555
C58B C59B 1_555 1_555

#END
