
#######################################################################
#
#                 Cambridge Crystallographic Data Centre
#                                CCDC 
#
#######################################################################
#
# If this CIF has been generated from an entry in the Cambridge 
# Structural Database, then it will include bibliographic, chemical, 
# crystal, experimental, refinement or atomic coordinate data resulting 
# from the CCDC's data processing and validation procedures.
#
#######################################################################

data_XUKTEE
_symmetry_cell_setting           monoclinic
_symmetry_space_group_name_H-M   'P 21'
_symmetry_Int_Tables_number      4
_space_group_name_Hall           'P 2yb'
loop_
_symmetry_equiv_pos_site_id
_symmetry_equiv_pos_as_xyz
1 x,y,z
2 -x,1/2+y,-z
_cell_length_a                   13.8460(10)
_cell_length_b                   15.2342(11)
_cell_length_c                   18.2747(13)
_cell_angle_alpha                90
_cell_angle_beta                 92.796(2)
_cell_angle_gamma                90
_cell_volume                     3850.14
loop_
_atom_site_label
_atom_site_type_symbol
_atom_site_fract_x
_atom_site_fract_y
_atom_site_fract_z
Bi1 Bi 0.46189(2) 1.00194(2) 0.00147(2)
Ag1 Ag 0.46672(2) 1.31085(3) -0.00988(2)
Cl1 Cl 0.38867(9) 1.15256(8) -0.03561(7)
S1 S 0.22932(9) 1.35544(8) 0.04158(7)
P1 P 0.42620(9) 0.81366(9) -0.10039(7)
P2 P 0.46896(8) 0.83255(10) 0.13237(6)
O1 O 0.2389(3) 1.2692(3) 0.0740(2)
F1 F 0.0547(2) 1.3142(3) -0.00900(19)
F2 F 0.1670(3) 1.2822(3) -0.0812(2)
F3 F 0.1229(3) 1.4163(2) -0.0694(2)
O2 O 0.3132(2) 1.3835(2) 0.0027(2)
O3 O 0.1888(3) 1.4225(3) 0.0868(2)
C1 C 0.1392(4) 1.3415(4) -0.0331(3)
C2 C 0.3174(4) 0.9409(3) -0.0332(3)
C3 C 0.3130(4) 0.8644(4) -0.0764(3)
C4 C 0.3919(4) 0.7069(3) -0.1366(3)
C5 C 0.3507(4) 0.6472(4) -0.0888(3)
H1 H 0.3412 0.6633 -0.0394
C6 C 0.3236(4) 0.5640(4) -0.1141(4)
H2 H 0.2954 0.5233 -0.0819
C7 C 0.3378(4) 0.5402(4) -0.1868(4)
H3 H 0.3186 0.4839 -0.2043
C8 C 0.3796(4) 0.5989(4) -0.2325(4)
H4 H 0.3910 0.5818 -0.2813
C9 C 0.4059(4) 0.6830(4) -0.2089(3)
H5 H 0.4330 0.7235 -0.2417
C10 C 0.4638(4) 0.8795(3) -0.1770(3)
C11 C 0.5614(4) 0.8944(4) -0.1840(3)
H6 H 0.6080 0.8670 -0.1516
C12 C 0.5910(5) 0.9508(4) -0.2397(3)
H7 H 0.6578 0.9616 -0.2451
C13 C 0.5239(5) 0.9898(4) -0.2862(3)
H8 H 0.5445 1.0283 -0.3232
C14 C 0.4256(5) 0.9741(4) -0.2800(3)
H9 H 0.3794 1.0009 -0.3129
C15 C 0.3960(4) 0.9190(4) -0.2254(3)
H10 H 0.3290 0.9080 -0.2208
C16 C 0.2222(3) 0.8291(4) -0.0979(2)
H11 H 0.2182 0.7778 -0.1273
C17 C 0.1384(4) 0.8692(4) -0.0760(3)
H12 H 0.0772 0.8455 -0.0910
C18 C 0.1433(4) 0.9442(4) -0.0320(3)
H13 H 0.0858 0.9706 -0.0162
C19 C 0.2330(4) 0.9799(3) -0.0117(3)
H14 H 0.2365 1.0317 0.0173
C20 C 0.4169(3) 1.0098(4) 0.1189(2)
C21 C 0.4248(4) 0.9375(3) 0.1657(3)
C22 C 0.3656(4) 0.7585(4) 0.1258(3)
C23 C 0.3809(3) 0.6676(3) 0.1292(3)
H15 H 0.4432 0.6455 0.1433
C24 C 0.3061(4) 0.6099(3) 0.1124(3)
H16 H 0.3173 0.5485 0.1152
C25 C 0.2155(4) 0.6408(3) 0.0915(3)
H17 H 0.1647 0.6006 0.0794
C26 C 0.1979(4) 0.7308(4) 0.0880(3)
H18 H 0.1352 0.7521 0.0739
C27 C 0.2732(4) 0.7895(4) 0.1055(3)
H19 H 0.2614 0.8509 0.1035
C28 C 0.5483(4) 0.7873(3) 0.2055(3)
C29 C 0.6471(4) 0.7936(3) 0.1978(3)
H20 H 0.6711 0.8213 0.1558
C30 C 0.7113(4) 0.7594(3) 0.2514(3)
H21 H 0.7790 0.7645 0.2464
C31 C 0.6763(4) 0.7179(3) 0.3123(3)
H22 H 0.7199 0.6940 0.3487
C32 C 0.5778(4) 0.7113(3) 0.3196(3)
H23 H 0.5541 0.6834 0.3617
C33 C 0.5130(4) 0.7449(3) 0.2666(3)
H24 H 0.4453 0.7391 0.2717
C34 C 0.3993(4) 0.9470(3) 0.2385(3)
H25 H 0.4043 0.8980 0.2706
C35 C 0.3673(4) 1.0260(4) 0.2642(3)
H26 H 0.3502 1.0314 0.3137
C36 C 0.3602(4) 1.0976(3) 0.2179(3)
H27 H 0.3389 1.1524 0.2360
C37 C 0.3835(4) 1.0904(4) 0.1456(3)
H28 H 0.3771 1.1397 0.1139
Bi1A Bi 0.53811(2) 1.50194(2) -0.00147(2)
Ag1A Ag 0.53328(2) 0.81085(3) 0.00988(2)
P1A P 0.57380(9) 1.31366(9) 0.10039(7)
P2A P 0.53104(8) 1.33255(10) -0.13237(6)
Bi2 Bi 0.02878(2) 0.32898(2) 0.49911(2)
Ag2 Ag 0.02446(3) 0.02077(3) 0.52151(2)
Cl2 Cl 0.08708(9) 0.17955(8) 0.55311(7)
S2 S 0.27475(8) 0.01821(8) 0.50559(6)
P3 P 0.06296(9) 0.51755(9) 0.59757(7)
P4 P 0.04834(9) 0.48566(9) 0.36136(7)
F4 F 0.4439(3) -0.0369(3) 0.4699(3)
F5 F 0.3277(3) -0.1198(3) 0.4329(3)
F6 F 0.3762(3) -0.1201(3) 0.5461(3)
O4 O 0.1918(3) -0.0296(3) 0.5307(2)
O5 O 0.2595(3) 0.0583(3) 0.4351(2)
O6 O 0.3251(3) 0.0709(3) 0.5602(2)
C38 C 0.3597(4) -0.0695(4) 0.4877(3)
C39 C 0.1727(4) 0.3831(3) 0.5427(3)
C40 C 0.1769(3) 0.4614(3) 0.5830(3)
C41 C 0.0980(4) 0.6213(3) 0.6394(3)
C42 C 0.0797(4) 0.6412(4) 0.7118(3)
H29 H 0.0495 0.5991 0.7414
C43 C 0.1057(4) 0.7226(4) 0.7404(3)
H30 H 0.0922 0.7367 0.7895
C44 C 0.1512(4) 0.7830(4) 0.6975(4)
H31 H 0.1692 0.8385 0.7176
C45 C 0.1710(4) 0.7640(4) 0.6265(4)
H32 H 0.2035 0.8057 0.5980
C46 C 0.1433(4) 0.6835(4) 0.5962(3)
H33 H 0.1550 0.6708 0.5465
C47 C 0.0085(4) 0.4502(3) 0.6664(3)
C48 C 0.0622(4) 0.3953(4) 0.7130(3)
H34 H 0.1308 0.3967 0.7132
C49 C 0.0163(4) 0.3380(4) 0.7595(3)
H35 H 0.0535 0.2997 0.7908
C50 C -0.0832(4) 0.3370(4) 0.7602(3)
H36 H -0.1146 0.2969 0.7910
C51 C -0.1372(4) 0.3941(4) 0.7162(3)
H37 H -0.2056 0.3949 0.7189
C52 C -0.0934(4) 0.4502(3) 0.6683(3)
H38 H -0.1312 0.4882 0.6373
C53 C 0.2653(3) 0.4929(4) 0.6112(3)
H39 H 0.2679 0.5450 0.6397
C54 C 0.3498(4) 0.4478(4) 0.5975(3)
H40 H 0.4104 0.4695 0.6164
C55 C 0.3458(4) 0.3715(4) 0.5566(3)
H41 H 0.4038 0.3416 0.5465
C56 C 0.2575(3) 0.3382(4) 0.5301(3)
H42 H 0.2551 0.2848 0.5033
C57 C 0.0898(3) 0.3080(3) 0.3881(3)
C58 C 0.0915(4) 0.3767(3) 0.3366(3)
C59 C 0.1561(4) 0.5541(3) 0.3716(3)
C60 C 0.1483(4) 0.6444(4) 0.3637(3)
H43 H 0.0892 0.6696 0.3452
C61 C 0.2264(4) 0.6979(4) 0.3827(3)
H44 H 0.2211 0.7596 0.3759
C62 C 0.3120(4) 0.6626(4) 0.4117(3)
H45 H 0.3645 0.6999 0.4261
C63 C 0.3209(4) 0.5720(4) 0.4195(3)
H46 H 0.3798 0.5472 0.4387
C64 C 0.2433(3) 0.5180(4) 0.3994(3)
H47 H 0.2494 0.4561 0.4045
C65 C -0.0215(4) 0.5291(3) 0.2828(3)
C66 C -0.1219(4) 0.5291(3) 0.2860(3)
H48 H -0.1516 0.5068 0.3280
C67 C -0.1786(4) 0.5620(3) 0.2267(3)
H49 H -0.2471 0.5612 0.2283
C68 C -0.1363(4) 0.5958(3) 0.1658(3)
H50 H -0.1753 0.6188 0.1262
C69 C -0.0365(4) 0.5959(4) 0.1630(3)
H51 H -0.0074 0.6183 0.1209
C70 C 0.0210(4) 0.5640(3) 0.2208(3)
H52 H 0.0894 0.5656 0.2187
C71 C 0.1297(4) 0.3611(4) 0.2684(3)
H53 H 0.1314 0.4073 0.2336
C72 C 0.1651(4) 0.2792(3) 0.2510(3)
H54 H 0.1906 0.2691 0.2044
C73 C 0.1631(4) 0.2120(3) 0.3021(3)
H55 H 0.1875 0.1557 0.2904
C74 C 0.1257(4) 0.2263(4) 0.3701(3)
H56 H 0.1247 0.1797 0.4046
Bi2A Bi -0.02878(2) -0.17102(2) 0.50089(2)
Ag2A Ag -0.02446(3) 0.52077(3) 0.47849(2)
P3A P -0.06296(9) 0.01755(9) 0.40243(7)
P4A P -0.04834(9) -0.01434(9) 0.63864(7)
Cl3 Cl 0.54518(14) 0.16423(13) 0.42081(11)
Cl4 Cl 0.40930(11) 0.29611(11) 0.36566(9)
C75 C 0.4262(5) 0.2005(4) 0.4182(4)
H57 H 0.4071 0.2123 0.4688
H58 H 0.3835 0.1537 0.3975
Cl5 Cl 0.10061(11) 0.04450(11) 0.15100(8)
Cl6 Cl -0.05281(12) 0.13016(11) 0.06338(10)
C76 C 0.0666(4) 0.1372(5) 0.0981(4)
H59 H 0.0742 0.1906 0.1288
H60 H 0.1101 0.1428 0.0570
loop_
_geom_bond_atom_site_label_1
_geom_bond_atom_site_label_2
_geom_bond_site_symmetry_1
_geom_bond_site_symmetry_2
Bi1 Cl1 1_555 1_555
Ag1 Cl1 1_555 1_555
S1 O1 1_555 1_555
P1 C3 1_555 1_555
P2 C21 1_555 1_555
F1 C1 1_555 1_555
F2 C1 1_555 1_555
F3 C1 1_555 1_555
O2 Ag1 1_555 1_555
O3 S1 1_555 1_555
C1 S1 1_555 1_555
C2 Bi1 1_555 1_555
C3 C2 1_555 1_555
C4 P1 1_555 1_555
C5 C4 1_555 1_555
H1 C5 1_555 1_555
C6 C5 1_555 1_555
H2 C6 1_555 1_555
C7 C6 1_555 1_555
H3 C7 1_555 1_555
C8 C7 1_555 1_555
H4 C8 1_555 1_555
C9 C4 1_555 1_555
H5 C9 1_555 1_555
C10 P1 1_555 1_555
C11 C10 1_555 1_555
H6 C11 1_555 1_555
C12 C11 1_555 1_555
H7 C12 1_555 1_555
C13 C12 1_555 1_555
H8 C13 1_555 1_555
C14 C13 1_555 1_555
H9 C14 1_555 1_555
C15 C10 1_555 1_555
H10 C15 1_555 1_555
C16 C3 1_555 1_555
H11 C16 1_555 1_555
C17 C16 1_555 1_555
H12 C17 1_555 1_555
C18 C17 1_555 1_555
H13 C18 1_555 1_555
C19 C2 1_555 1_555
H14 C19 1_555 1_555
C20 Bi1 1_555 1_555
C21 C20 1_555 1_555
C22 P2 1_555 1_555
C23 C22 1_555 1_555
H15 C23 1_555 1_555
C24 C23 1_555 1_555
H16 C24 1_555 1_555
C25 C24 1_555 1_555
H17 C25 1_555 1_555
C26 C25 1_555 1_555
H18 C26 1_555 1_555
C27 C22 1_555 1_555
H19 C27 1_555 1_555
C28 P2 1_555 1_555
C29 C28 1_555 1_555
H20 C29 1_555 1_555
C30 C29 1_555 1_555
H21 C30 1_555 1_555
C31 C30 1_555 1_555
H22 C31 1_555 1_555
C32 C31 1_555 1_555
H23 C32 1_555 1_555
C33 C28 1_555 1_555
H24 C33 1_555 1_555
C34 C21 1_555 1_555
H25 C34 1_555 1_555
C35 C34 1_555 1_555
H26 C35 1_555 1_555
C36 C35 1_555 1_555
H27 C36 1_555 1_555
C37 C20 1_555 1_555
H28 C37 1_555 1_555
Bi2 Cl2 1_555 1_555
Ag2 Cl2 1_555 1_555
S2 O4 1_555 1_555
P3 C40 1_555 1_555
P4 C58 1_555 1_555
F4 C38 1_555 1_555
F5 C38 1_555 1_555
F6 C38 1_555 1_555
O4 Ag2 1_555 1_555
O5 S2 1_555 1_555
O6 S2 1_555 1_555
C38 S2 1_555 1_555
C39 Bi2 1_555 1_555
C40 C39 1_555 1_555
C41 P3 1_555 1_555
C42 C41 1_555 1_555
H29 C42 1_555 1_555
C43 C42 1_555 1_555
H30 C43 1_555 1_555
C44 C43 1_555 1_555
H31 C44 1_555 1_555
C45 C44 1_555 1_555
H32 C45 1_555 1_555
C46 C41 1_555 1_555
H33 C46 1_555 1_555
C47 P3 1_555 1_555
C48 C47 1_555 1_555
H34 C48 1_555 1_555
C49 C48 1_555 1_555
H35 C49 1_555 1_555
C50 C49 1_555 1_555
H36 C50 1_555 1_555
C51 C50 1_555 1_555
H37 C51 1_555 1_555
C52 C47 1_555 1_555
H38 C52 1_555 1_555
C53 C40 1_555 1_555
H39 C53 1_555 1_555
C54 C53 1_555 1_555
H40 C54 1_555 1_555
C55 C54 1_555 1_555
H41 C55 1_555 1_555
C56 C39 1_555 1_555
H42 C56 1_555 1_555
C57 Bi2 1_555 1_555
C58 C57 1_555 1_555
C59 P4 1_555 1_555
C60 C59 1_555 1_555
H43 C60 1_555 1_555
C61 C60 1_555 1_555
H44 C61 1_555 1_555
C62 C61 1_555 1_555
H45 C62 1_555 1_555
C63 C62 1_555 1_555
H46 C63 1_555 1_555
C64 C59 1_555 1_555
H47 C64 1_555 1_555
C65 P4 1_555 1_555
C66 C65 1_555 1_555
H48 C66 1_555 1_555
C67 C66 1_555 1_555
H49 C67 1_555 1_555
C68 C67 1_555 1_555
H50 C68 1_555 1_555
C69 C68 1_555 1_555
H51 C69 1_555 1_555
C70 C65 1_555 1_555
H52 C70 1_555 1_555
C71 C58 1_555 1_555
H53 C71 1_555 1_555
C72 C71 1_555 1_555
H54 C72 1_555 1_555
C73 C72 1_555 1_555
H55 C73 1_555 1_555
C74 C57 1_555 1_555
H56 C74 1_555 1_555
Cl3 C75 1_555 1_555
Cl4 C75 1_555 1_555
C75 H57 1_555 1_555
H58 C75 1_555 1_555
Cl5 C76 1_555 1_555
Cl6 C76 1_555 1_555
C76 H59 1_555 1_555
H60 C76 1_555 1_555
Bi1A Ag1 1_555 1_555
Ag1A Bi1 1_555 1_555
P1A Ag1 1_555 1_555
P2A Ag1 1_555 1_555
Bi2A Ag2 1_555 1_555
Ag2A Bi2 1_555 1_555
P3A Ag2 1_555 1_555
P4A Ag2 1_555 1_555
S1 O2 1_555 1_555
P1 Ag1A 1_555 1_555
P2 Ag1A 1_555 1_555
C8 C9 1_555 1_555
C14 C15 1_555 1_555
C18 C19 1_555 1_555
C26 C27 1_555 1_555
C32 C33 1_555 1_555
C36 C37 1_555 1_555
P3 Ag2A 1_555 1_555
P4 Ag2A 1_555 1_555
C45 C46 1_555 1_555
C51 C52 1_555 1_555
C55 C56 1_555 1_555
C63 C64 1_555 1_555
C69 C70 1_555 1_555
C73 C74 1_555 1_555

#END
