
#######################################################################
#
#                 Cambridge Crystallographic Data Centre
#                                CCDC 
#
#######################################################################
#
# If this CIF has been generated from an entry in the Cambridge 
# Structural Database, then it will include bibliographic, chemical, 
# crystal, experimental, refinement or atomic coordinate data resulting 
# from the CCDC's data processing and validation procedures.
#
#######################################################################

data_XUKVUV
_symmetry_cell_setting           monoclinic
_symmetry_space_group_name_H-M   'P 21/n'
_symmetry_Int_Tables_number      14
_space_group_name_Hall           '-P 2yn'
loop_
_symmetry_equiv_pos_site_id
_symmetry_equiv_pos_as_xyz
1 x,y,z
2 1/2-x,1/2+y,1/2-z
3 -x,-y,-z
4 1/2+x,1/2-y,1/2+z
_cell_length_a                   7.1454(9)
_cell_length_b                   21.404(3)
_cell_length_c                   9.3051(11)
_cell_angle_alpha                90
_cell_angle_beta                 112.074(2)
_cell_angle_gamma                90
_cell_volume                     1318.81
loop_
_atom_site_label
_atom_site_type_symbol
_atom_site_fract_x
_atom_site_fract_y
_atom_site_fract_z
Ag1 Ag 0.29637(9) 0.19186(2) 1.07718(5)
O1 O 0.2173(5) -0.03770(16) 0.5790(3)
O2 O 0.5332(6) 0.22841(19) 1.3182(4)
O3 O 0.5979(8) 0.2103(2) 1.5579(5)
O4 O 0.3451(10) 0.1670(3) 1.3836(6)
N1 N 0.2368(5) 0.04024(17) 0.7458(3)
N2 N 0.2604(5) 0.12432(17) 0.8925(4)
N3 N 0.4925(9) 0.2010(2) 1.4217(6)
C1 C 0.2253(6) -0.0222(2) 0.7073(4)
C2 C 0.2533(5) 0.06499(19) 0.8878(4)
C3 C 0.2568(6) 0.02128(19) 1.0108(4)
C4 C 0.2740(6) 0.0415(2) 1.1551(4)
H1 H 0.2869 0.0840 1.1777
C5 C 0.2723(7) -0.0010(3) 1.2687(5)
H2 H 0.2860 0.0131 1.3666
C6 C 0.2504(6) -0.0632(2) 1.2354(5)
H3 H 0.2467 -0.0911 1.3110
C7 C 0.2336(6) -0.0861(2) 1.0906(5)
C8 C 0.2376(5) -0.04273(19) 0.9760(4)
C9 C 0.2199(6) -0.06554(19) 0.8272(4)
C10 C 0.1996(7) -0.1286(2) 0.7962(5)
H4 H 0.1883 -0.1431 0.6991
C11 C 0.1956(7) -0.1706(3) 0.9082(6)
H5 H 0.1827 -0.2132 0.8859
C12 C 0.2105(7) -0.1501(2) 1.0507(6)
H6 H 0.2054 -0.1790 1.1238
C13 C 0.2316(7) 0.0904(2) 0.6391(4)
H7 H 0.1074 0.0897 0.5480
H8 H 0.3460 0.0882 0.6071
C14 C 0.2433(8) 0.1480(2) 0.7391(5)
H9 H 0.3600 0.1732 0.7482
H10 H 0.1228 0.1733 0.6937
Ag1C Ag 0.79637(9) 0.30814(2) 1.57718(5)
O3C O 0.0979(8) 0.2897(2) 1.0579(5)
loop_
_geom_bond_atom_site_label_1
_geom_bond_atom_site_label_2
_geom_bond_site_symmetry_1
_geom_bond_site_symmetry_2
Ag1 O2 1_555 1_555
O1 C1 1_555 1_555
O2 N3 1_555 1_555
O3 N3 1_555 1_555
O4 N3 1_555 1_555
N1 C1 1_555 1_555
N2 Ag1 1_555 1_555
C1 C9 1_555 1_555
C2 N1 1_555 1_555
C3 C2 1_555 1_555
C4 C3 1_555 1_555
H1 C4 1_555 1_555
C5 C4 1_555 1_555
H2 C5 1_555 1_555
C6 C5 1_555 1_555
H3 C6 1_555 1_555
C7 C6 1_555 1_555
C8 C3 1_555 1_555
C9 C8 1_555 1_555
C10 C9 1_555 1_555
H4 C10 1_555 1_555
C11 C10 1_555 1_555
H5 C11 1_555 1_555
C12 C7 1_555 1_555
H6 C12 1_555 1_555
C13 N1 1_555 1_555
H7 C13 1_555 1_555
H8 C13 1_555 1_555
C14 N2 1_555 1_555
H9 C14 1_555 1_555
H10 C14 1_555 1_555
Ag1C O3 1_555 1_555
O3C Ag1 1_555 1_555
N2 C2 1_555 1_555
C7 C8 1_555 1_555
C11 C12 1_555 1_555
C13 C14 1_555 1_555

#END
