
#######################################################################
#
#                 Cambridge Crystallographic Data Centre
#                                CCDC 
#
#######################################################################
#
# If this CIF has been generated from an entry in the Cambridge 
# Structural Database, then it will include bibliographic, chemical, 
# crystal, experimental, refinement or atomic coordinate data resulting 
# from the CCDC's data processing and validation procedures.
#
#######################################################################

data_XUKYEI
_symmetry_cell_setting           tetragonal
_symmetry_space_group_name_H-M   'I 41/a'
_symmetry_Int_Tables_number      88
_space_group_name_Hall           '-I 4ad'
loop_
_symmetry_equiv_pos_site_id
_symmetry_equiv_pos_as_xyz
1 x,y,z
2 3/4-y,1/4+x,1/4+z
3 -x,1/2-y,z
4 1/4+y,1/4-x,1/4+z
5 1/2+x,1/2+y,1/2+z
6 1/4-y,3/4+x,3/4+z
7 1/2-x,-y,1/2+z
8 3/4+y,3/4-x,3/4+z
9 -x,-y,-z
10 1/4+y,3/4-x,3/4-z
11 x,1/2+y,-z
12 3/4-y,3/4+x,3/4-z
13 1/2-x,1/2-y,1/2-z
14 3/4+y,1/4-x,1/4-z
15 1/2+x,y,1/2-z
16 1/4-y,1/4+x,1/4-z
_cell_length_a                   17.3335(14)
_cell_length_b                   17.3335(14)
_cell_length_c                   40.872(7)
_cell_angle_alpha                90
_cell_angle_beta                 90
_cell_angle_gamma                90
_cell_volume                     12280
loop_
_atom_site_label
_atom_site_type_symbol
_atom_site_fract_x
_atom_site_fract_y
_atom_site_fract_z
Cu1 Cu 0.0000 0.2500 0.02857(3)
Cl1 Cl 0.11123(13) 0.35833(12) 0.02837(6)
N1 N -0.0630(4) 0.3093(4) 0.06370(15)
C1 C -0.1385(5) 0.3134(5) 0.0619(2)
H1 H -0.1636 0.2868 0.0446
N2 N -0.4370(4) 0.3077(4) 0.24369(17)
C2 C -0.1827(6) 0.3539(5) 0.0835(2)
H2 H -0.2372 0.3541 0.0810
C3 C -0.1488(5) 0.3950(5) 0.1091(2)
C4 C -0.0686(5) 0.3900(5) 0.1103(2)
H3 H -0.0416 0.4162 0.1273
C5 C -0.0276(6) 0.3484(5) 0.0878(2)
H4 H 0.0271 0.3472 0.0891
C6 C -0.1940(6) 0.4381(5) 0.1342(2)
H5 H -0.2235 0.4793 0.1230
H6 H -0.1575 0.4635 0.1494
C7 C -0.2490(5) 0.3905(5) 0.1538(2)
H7 H -0.2197 0.3519 0.1666
H8 H -0.2840 0.3625 0.1388
C8 C -0.2971(6) 0.4406(6) 0.1773(2)
H9 H -0.2616 0.4730 0.1904
H10 H -0.3300 0.4756 0.1642
C9 C -0.3471(5) 0.3954(5) 0.19999(19)
C10 C -0.4277(6) 0.3920(6) 0.1979(2)
H11 H -0.4536 0.4200 0.1812
C11 C -0.4695(5) 0.3486(5) 0.2197(2)
H12 H -0.5241 0.3476 0.2176
C12 C -0.3588(5) 0.3100(5) 0.2455(2)
H13 H -0.3339 0.2811 0.2622
C13 C -0.3145(5) 0.3521(5) 0.2245(2)
H14 H -0.2600 0.3515 0.2269
Cu1A Cu -0.5000 0.2500 0.27857(3)
Cu1A_2 Cu 0.5000 0.2500 0.27857(3)
Cl1B Cl -0.11123(13) 0.14167(12) 0.02837(6)
N1B N 0.0630(4) 0.1907(4) 0.06370(15)
C1B C 0.1385(5) 0.1866(5) 0.0619(2)
H1B H 0.1636 0.2132 0.0446
N2B N 0.4370(4) 0.1923(4) 0.24369(17)
N2E N -0.0577(4) 0.3130(4) -0.00631(17)
N2G N 0.0577(4) 0.1870(4) -0.00631(17)
C2B C 0.1827(6) 0.1461(5) 0.0835(2)
H2B H 0.2372 0.1459 0.0810
C3B C 0.1488(5) 0.1050(5) 0.1091(2)
C4B C 0.0686(5) 0.1100(5) 0.1103(2)
H3B H 0.0416 0.0838 0.1273
C5B C 0.0276(6) 0.1516(5) 0.0878(2)
H4B H -0.0271 0.1528 0.0891
C6B C 0.1940(6) 0.0619(5) 0.1342(2)
H5B H 0.2235 0.0207 0.1230
H6B H 0.1575 0.0365 0.1494
C7B C 0.2490(5) 0.1095(5) 0.1538(2)
H7B H 0.2197 0.1481 0.1666
H8B H 0.2840 0.1375 0.1388
C8B C 0.2971(6) 0.0594(6) 0.1773(2)
H9B H 0.2616 0.0270 0.1904
H10B H 0.3300 0.0244 0.1642
C9B C 0.3471(5) 0.1046(5) 0.19999(19)
C10B C 0.4277(6) 0.1080(6) 0.1979(2)
H11B H 0.4536 0.0800 0.1812
C11B C 0.4695(5) 0.1514(5) 0.2197(2)
H12B H 0.5241 0.1524 0.2176
C12B C 0.3588(5) 0.1900(5) 0.2455(2)
H13B H 0.3339 0.2189 0.2622
C13B C 0.3145(5) 0.1479(5) 0.2245(2)
H14B H 0.2600 0.1485 0.2269
Cu2 Cu 0.5000 0.7500 0.33487(4)
N3 N 0.4397(5) 0.6911(6) 0.36983(19)
N4 N 0.0637(6) 0.6959(6) 0.5502(2)
C14 C 0.4745(6) 0.6536(7) 0.3942(3)
H15 H 0.5292 0.6554 0.3957
C15 C 0.4329(6) 0.6118(8) 0.4177(3)
H16 H 0.4599 0.5847 0.4344
C16 C 0.3624(6) 0.6868(8) 0.3685(3)
H17 H 0.3358 0.7127 0.3514
C17 C 0.3208(5) 0.6461(7) 0.3912(3)
H18 H 0.2663 0.6430 0.3891
C18 C 0.3568(6) 0.6093(6) 0.4170(2)
C19 C 0.3103(7) 0.5598(8) 0.4408(3)
H19 H 0.3460 0.5343 0.4563
H20 H 0.2829 0.5191 0.4284
C20 C 0.2502(7) 0.6089(7) 0.4604(3)
H21 H 0.2774 0.6505 0.4723
H22 H 0.2136 0.6333 0.4450
C21 C 0.2059(7) 0.5601(8) 0.4845(3)
H23 H 0.2432 0.5307 0.4980
H24 H 0.1744 0.5224 0.4722
C22 C 0.1523(7) 0.6065(7) 0.5076(3)
C23 C 0.0774(8) 0.6046(8) 0.5048(4)
H25 H 0.0528 0.5740 0.4886
C24 C 0.0330(10) 0.6515(7) 0.5276(3)
H26 H -0.0217 0.6500 0.5260
C25 C 0.1402(9) 0.6970(7) 0.5515(3)
H27 H 0.1626 0.7307 0.5672
C26 C 0.1904(2) 0.65470(19) 0.53276(8)
H28 H 0.2448 0.6563 0.5356
Cu2A Cu 0.0000 0.7500 0.58487(4)
Cu2A_2 Cu 1.0000 0.7500 0.58487(4)
N3B N 0.5603(5) 0.8089(6) 0.36983(19)
N4B N 0.9363(6) 0.8041(6) 0.5502(2)
N4G N 0.4459(6) 0.6863(6) 0.3002(2)
N4E N 0.5541(6) 0.8137(6) 0.3002(2)
C14B C 0.5255(6) 0.8464(7) 0.3942(3)
H15B H 0.4708 0.8446 0.3957
C15B C 0.5671(6) 0.8882(8) 0.4177(3)
H16B H 0.5401 0.9153 0.4344
C16B C 0.6376(6) 0.8132(8) 0.3685(3)
H17B H 0.6642 0.7873 0.3514
C17B C 0.6792(5) 0.8539(7) 0.3912(3)
H18B H 0.7337 0.8570 0.3891
C18B C 0.6432(6) 0.8907(6) 0.4170(2)
C19B C 0.6897(7) 0.9402(8) 0.4408(3)
H19B H 0.6540 0.9657 0.4563
H20B H 0.7171 0.9809 0.4284
C20B C 0.7498(7) 0.8911(7) 0.4604(3)
H21B H 0.7226 0.8495 0.4723
H22B H 0.7864 0.8667 0.4450
C21B C 0.7941(7) 0.9399(8) 0.4845(3)
H23B H 0.7568 0.9693 0.4980
H24B H 0.8256 0.9776 0.4722
C22B C 0.8477(7) 0.8935(7) 0.5076(3)
C23B C 0.9226(8) 0.8954(8) 0.5048(4)
H25B H 0.9472 0.9260 0.4886
C24B C 0.9670(10) 0.8485(7) 0.5276(3)
H26B H 1.0217 0.8500 0.5260
C25B C 0.8598(9) 0.8030(7) 0.5515(3)
H27B H 0.8374 0.7693 0.5672
C26B C 0.8096(2) 0.84530(19) 0.53276(8)
H28B H 0.7552 0.8437 0.5356
Cl2 Cl 0.6203(2) 0.64117(19) 0.33477(8)
loop_
_geom_bond_atom_site_label_1
_geom_bond_atom_site_label_2
_geom_bond_site_symmetry_1
_geom_bond_site_symmetry_2
Cu1 Cl1 1_555 1_555
N1 Cu1 1_555 1_555
C1 N1 1_555 1_555
H1 C1 1_555 1_555
Cu2 N3 1_555 1_555
N2 C11 1_555 1_555
C2 C1 1_555 1_555
H2 C2 1_555 1_555
N3 C14 1_555 1_555
C3 C2 1_555 1_555
N4 C24 1_555 1_555
C4 C3 1_555 1_555
H3 C4 1_555 1_555
C5 N1 1_555 1_555
H4 C5 1_555 1_555
C6 C3 1_555 1_555
H5 C6 1_555 1_555
H6 C6 1_555 1_555
C7 C6 1_555 1_555
H7 C7 1_555 1_555
H8 C7 1_555 1_555
C8 C7 1_555 1_555
H9 C8 1_555 1_555
H10 C8 1_555 1_555
C9 C8 1_555 1_555
C10 C9 1_555 1_555
H11 C10 1_555 1_555
C11 C10 1_555 1_555
H12 C11 1_555 1_555
C12 N2 1_555 1_555
H13 C12 1_555 1_555
C13 C9 1_555 1_555
H14 C13 1_555 1_555
C14 H15 1_555 1_555
C15 C14 1_555 1_555
H16 C15 1_555 1_555
C16 N3 1_555 1_555
H17 C16 1_555 1_555
C17 C16 1_555 1_555
H18 C17 1_555 1_555
C18 C15 1_555 1_555
C19 C18 1_555 1_555
H19 C19 1_555 1_555
H20 C19 1_555 1_555
C20 C19 1_555 1_555
H21 C20 1_555 1_555
H22 C20 1_555 1_555
C21 C20 1_555 1_555
H23 C21 1_555 1_555
H24 C21 1_555 1_555
C22 C21 1_555 1_555
C23 C22 1_555 1_555
H25 C23 1_555 1_555
C24 C23 1_555 1_555
H26 C24 1_555 1_555
C25 N4 1_555 1_555
H27 C25 1_555 1_555
C26 C22 1_555 1_555
H28 C26 1_555 1_555
Cu1A N2 1_555 1_555
Cu1A_2 N2B 1_555 1_555
Cl1B Cu1 1_555 1_555
N1B Cu1 1_555 1_555
C1B N1B 1_555 1_555
H1B C1B 1_555 1_555
Cu2A N4 1_555 1_555
Cu2A_2 N4B 1_555 1_555
N2B C11B 1_555 1_555
N2E Cu1 1_555 1_555
N2G Cu1 1_555 1_555
C2B C1B 1_555 1_555
H2B C2B 1_555 1_555
N3B Cu2 1_555 1_555
C3B C2B 1_555 1_555
N4B C24B 1_555 1_555
N4G Cu2 1_555 1_555
N4E Cu2 1_555 1_555
C4B C3B 1_555 1_555
H3B C4B 1_555 1_555
C5B N1B 1_555 1_555
H4B C5B 1_555 1_555
C6B C3B 1_555 1_555
H5B C6B 1_555 1_555
H6B C6B 1_555 1_555
C7B C6B 1_555 1_555
H7B C7B 1_555 1_555
H8B C7B 1_555 1_555
C8B C7B 1_555 1_555
H9B C8B 1_555 1_555
H10B C8B 1_555 1_555
C9B C8B 1_555 1_555
C10B C9B 1_555 1_555
H11B C10B 1_555 1_555
C11B C10B 1_555 1_555
H12B C11B 1_555 1_555
C12B N2B 1_555 1_555
H13B C12B 1_555 1_555
C13B C9B 1_555 1_555
H14B C13B 1_555 1_555
C14B N3B 1_555 1_555
H15B C14B 1_555 1_555
C15B C14B 1_555 1_555
H16B C15B 1_555 1_555
C16B N3B 1_555 1_555
H17B C16B 1_555 1_555
C17B C16B 1_555 1_555
H18B C17B 1_555 1_555
C18B C15B 1_555 1_555
C19B C18B 1_555 1_555
H19B C19B 1_555 1_555
H20B C19B 1_555 1_555
C20B C19B 1_555 1_555
H21B C20B 1_555 1_555
H22B C20B 1_555 1_555
C21B C20B 1_555 1_555
H23B C21B 1_555 1_555
H24B C21B 1_555 1_555
C22B C21B 1_555 1_555
C23B C22B 1_555 1_555
H25B C23B 1_555 1_555
C24B C23B 1_555 1_555
H26B C24B 1_555 1_555
C25B N4B 1_555 1_555
H27B C25B 1_555 1_555
C26B C22B 1_555 1_555
H28B C26B 1_555 1_555
C4 C5 1_555 1_555
C12 C13 1_555 1_555
C17 C18 1_555 1_555
C25 C26 1_555 1_555
C4B C5B 1_555 1_555
C12B C13B 1_555 1_555
C17B C18B 1_555 1_555
C25B C26B 1_555 1_555

#END
