
#######################################################################
#
#                 Cambridge Crystallographic Data Centre
#                                CCDC 
#
#######################################################################
#
# If this CIF has been generated from an entry in the Cambridge 
# Structural Database, then it will include bibliographic, chemical, 
# crystal, experimental, refinement or atomic coordinate data resulting 
# from the CCDC's data processing and validation procedures.
#
#######################################################################

data_XULDEP
_symmetry_cell_setting           monoclinic
_symmetry_space_group_name_H-M   'P 21/c'
_symmetry_Int_Tables_number      14
_space_group_name_Hall           '-P 2ybc'
loop_
_symmetry_equiv_pos_site_id
_symmetry_equiv_pos_as_xyz
1 x,y,z
2 -x,1/2+y,1/2-z
3 -x,-y,-z
4 x,1/2-y,1/2+z
_cell_length_a                   7.7720(16)
_cell_length_b                   18.629(4)
_cell_length_c                   19.518(5)
_cell_angle_alpha                90
_cell_angle_beta                 104.23(3)
_cell_angle_gamma                90
_cell_volume                     2739.2
loop_
_atom_site_label
_atom_site_type_symbol
_atom_site_fract_x
_atom_site_fract_y
_atom_site_fract_z
Co1 Co -0.29590(7) 0.56004(3) 0.97052(3)
Co2 Co -0.19801(7) 0.93997(3) 1.03536(3)
O1 O -0.0271(5) 0.91897(18) 1.14029(19)
H1 H 0.0109 0.8761 1.1453
H2 H -0.1027 0.9280 1.1642
O2 O 0.0119(5) 0.91818(18) 0.9973(2)
O3 O 0.1978(5) 0.95562(15) 0.93553(19)
O4 O -0.2004(4) 0.66555(16) 0.97217(18)
O5 O -0.0847(4) 0.58923(15) 0.91099(17)
O6 O -0.4888(5) 0.58124(19) 0.8779(2)
H3 H -0.5284 0.6226 0.8649
H4 H -0.5811 0.5491 0.8558
O7 O -0.0802(4) 0.53963(18) 1.06195(18)
O8 O 0.3941(4) 0.72396(15) 0.83797(17)
O9 O 1.0989(4) 0.72352(15) 0.65924(17)
O10 O 1.5676(4) 0.58648(15) 0.57852(18)
O11 O 1.7023(4) 0.66645(16) 0.52881(19)
O12 O 1.5510(5) 0.92585(17) 0.5386(2)
O13 O 1.2847(4) 0.95326(15) 0.55316(18)
N1 N -0.3784(7) 0.9618(2) 0.9358(2)
C1 C -0.2262(12) 0.9666(5) 0.8232(4)
H5 H -0.1755 0.9210 0.8163
H6 H -0.1343 1.0023 0.8341
H7 H -0.3122 0.9801 0.7808
C2 C -0.3146(14) 0.9613(6) 0.8828(5)
C3 C 0.1078(5) 0.9078(2) 0.9556(2)
C4 C 0.1229(5) 0.83295(19) 0.9299(2)
C5 C 0.0113(5) 0.77952(19) 0.94465(19)
H8 H -0.0734 0.7904 0.9694
C6 C 0.0286(5) 0.70956(19) 0.92173(19)
C7 C 0.1575(5) 0.6930(2) 0.8857(2)
H9 H 0.1688 0.6463 0.8707
C8 C 0.2695(5) 0.7468(2) 0.8721(2)
C9 C 0.2526(5) 0.8168(2) 0.8934(2)
H10 H 0.3263 0.8527 0.8836
C10 C -0.0911(5) 0.6517(2) 0.9356(2)
C11 C 0.5121(5) 0.7761(2) 0.8194(2)
H11 H 0.5849 0.7984 0.8616
H12 H 0.4451 0.8131 0.7895
C12 C 0.6265(5) 0.7352(2) 0.7804(2)
H13 H 0.5500 0.7084 0.7422
H14 H 0.6981 0.7009 0.8126
C13 C 0.7495(5) 0.7828(3) 0.7497(2)
H15 H 0.8233 0.8117 0.7869
H16 H 0.6796 0.8149 0.7145
C14 C 0.8664(5) 0.7352(2) 0.7158(2)
H17 H 0.9395 0.7052 0.7522
H18 H 0.7906 0.7038 0.6817
C15 C 0.9853(6) 0.7763(2) 0.6794(2)
H19 H 0.9156 0.8010 0.6381
H20 H 1.0550 0.8114 0.7112
C16 C 1.2249(5) 0.7457(2) 0.6252(2)
C17 C 1.2481(5) 0.8161(2) 0.6072(2)
H21 H 1.1765 0.8522 0.6181
C18 C 1.3809(5) 0.83266(18) 0.5723(2)
C19 C 1.4894(5) 0.77915(19) 0.5566(2)
H22 H 1.5785 0.7905 0.5342
C20 C 1.4639(5) 0.70812(19) 0.57474(19)
C21 C 1.3325(5) 0.69108(19) 0.6091(2)
H23 H 1.3160 0.6438 0.6212
C22 C 1.4073(5) 0.9090(2) 0.5527(2)
C23 C 1.5825(5) 0.6505(2) 0.5587(2)
Co1A Co 1.29590(7) 1.06004(3) 0.52948(3)
Co1C Co 1.70410(7) 0.93996(3) 0.47052(3)
Co2B Co 0.19801(7) 1.06003(3) 0.96464(3)
Co2C Co 1.80199(7) 0.56003(3) 0.53536(3)
O3B O -0.1978(5) 1.04438(15) 1.06447(19)
O10C O -0.4324(4) 0.91352(15) 1.07852(18)
O11C O -0.2977(4) 0.83355(16) 1.02881(19)
O12C O -0.4490(5) 0.57415(17) 1.0386(2)
O13A O -0.2847(4) 0.45326(15) 0.94684(18)
O14 O 0.7528(7) 0.5158(3) 0.1821(3)
H24 H 0.7659 0.5328 0.1413
H25 H 0.8565 0.5048 0.2068
O15 O 0.8787(8) 0.5398(3) 0.7681(3)
H26 H 0.8449 0.5804 0.7743
C24 C 0.7350(12) 0.4952(6) 0.7483(4)
H27 H 0.7287 0.4646 0.7873
H28 H 0.7469 0.4663 0.7090
H29 H 0.6286 0.5233 0.7348
loop_
_geom_bond_atom_site_label_1
_geom_bond_atom_site_label_2
_geom_bond_site_symmetry_1
_geom_bond_site_symmetry_2
Co1 O4 1_555 1_555
Co2 O1 1_555 1_555
O1 H1 1_555 1_555
H2 O1 1_555 1_555
O2 Co2 1_555 1_555
O3 C3 1_555 1_555
O4 C10 1_555 1_555
O5 Co1 1_555 1_555
O6 Co1 1_555 1_555
H3 O6 1_555 1_555
H4 O6 1_555 1_555
O7 Co1 1_555 1_555
O8 C8 1_555 1_555
O9 C15 1_555 1_555
O10 C23 1_555 1_555
O11 C23 1_555 1_555
O12 C22 1_555 1_555
O13 C22 1_555 1_555
N1 Co2 1_555 1_555
C1 H5 1_555 1_555
H6 C1 1_555 1_555
H7 C1 1_555 1_555
C2 N1 1_555 1_555
C3 O2 1_555 1_555
C4 C3 1_555 1_555
C5 C4 1_555 1_555
H8 C5 1_555 1_555
C6 C5 1_555 1_555
C7 C6 1_555 1_555
H9 C7 1_555 1_555
C8 C7 1_555 1_555
C9 C4 1_555 1_555
H10 C9 1_555 1_555
C10 O5 1_555 1_555
C11 O8 1_555 1_555
H11 C11 1_555 1_555
H12 C11 1_555 1_555
C12 C11 1_555 1_555
H13 C12 1_555 1_555
H14 C12 1_555 1_555
C13 C12 1_555 1_555
H15 C13 1_555 1_555
H16 C13 1_555 1_555
C14 C13 1_555 1_555
H17 C14 1_555 1_555
H18 C14 1_555 1_555
C15 C14 1_555 1_555
H19 C15 1_555 1_555
H20 C15 1_555 1_555
C16 O9 1_555 1_555
C17 C16 1_555 1_555
H21 C17 1_555 1_555
C18 C17 1_555 1_555
C19 C18 1_555 1_555
H22 C19 1_555 1_555
C20 C19 1_555 1_555
C21 C16 1_555 1_555
H23 C21 1_555 1_555
C22 C18 1_555 1_555
C23 C20 1_555 1_555
O14 H24 1_555 1_555
H25 O14 1_555 1_555
O15 H26 1_555 1_555
C24 O15 1_555 1_555
H27 C24 1_555 1_555
H28 C24 1_555 1_555
H29 C24 1_555 1_555
Co1A O13 1_555 1_555
Co1C O12 1_555 1_555
Co2B O3 1_555 1_555
Co2C O10 1_555 1_555
O3B Co2 1_555 1_555
O10C Co2 1_555 1_555
O11C Co2 1_555 1_555
O12C Co1 1_555 1_555
O13A Co1 1_555 1_555
O11 Co2C 1_555 1_555
C1 C2 1_555 1_555
C6 C10 1_555 1_555
C8 C9 1_555 1_555
C20 C21 1_555 1_555

#END
