
#######################################################################
#
#                 Cambridge Crystallographic Data Centre
#                                CCDC 
#
#######################################################################
#
# If this CIF has been generated from an entry in the Cambridge 
# Structural Database, then it will include bibliographic, chemical, 
# crystal, experimental, refinement or atomic coordinate data resulting 
# from the CCDC's data processing and validation procedures.
#
#######################################################################

data_XULDIR
_symmetry_cell_setting           monoclinic
_symmetry_space_group_name_H-M   'C 2/c'
_symmetry_Int_Tables_number      15
_space_group_name_Hall           '-C 2yn'
loop_
_symmetry_equiv_pos_site_id
_symmetry_equiv_pos_as_xyz
1 x,y,z
2 1/2+x,1/2+y,z
3 -x,y,1/2-z
4 1/2-x,1/2+y,1/2-z
5 -x,-y,-z
6 1/2-x,1/2-y,-z
7 x,-y,1/2+z
8 1/2+x,1/2-y,1/2+z
_cell_length_a                   18.3846(14)
_cell_length_b                   14.9260(2)
_cell_length_c                   16.9890(2)
_cell_angle_alpha                90
_cell_angle_beta                 93.897(7)
_cell_angle_gamma                90
_cell_volume                     4651.15
loop_
_atom_site_label
_atom_site_type_symbol
_atom_site_fract_x
_atom_site_fract_y
_atom_site_fract_z
Cd1 Cd 0.10700(3) 0.08105(5) 0.31476(4)
O1 O 0.0577(3) 0.2104(5) 0.2733(4)
O2 O 0.0611(3) 0.9616(4) 0.2520(3)
O3 O 0.2098(3) 0.1384(5) 0.4146(4)
O4 O 0.2032(3) 0.0005(5) 0.3693(4)
N1 N 0.1906(4) 0.1227(6) 0.2227(4)
N2 N 0.5300(4) 0.4012(6) -0.0845(4)
C1 C 0.0000 0.9234(11) 0.2500
C2 C 0.0000 0.8232(10) 0.2500
C3 C 0.0580(5) 0.7766(6) 0.2215(5)
H1 H 0.0978 0.8083 0.2020
C4 C 0.0577(4) 0.6827(6) 0.2214(5)
H2 H 0.0975 0.6512 0.2016
C5 C 0.0000 0.6347(10) 0.2500
C6 C 0.0000 0.5352(10) 0.2500
C7 C 0.0621(5) 0.4868(7) 0.2748(5)
H3 H 0.1052 0.5180 0.2924
C8 C 0.0620(5) 0.3955(6) 0.2743(5)
H4 H 0.1053 0.3643 0.2910
C9 C 0.0000 0.3471(10) 0.2500
C10 C 0.3143(5) 0.0438(7) 0.4333(5)
C11 C 0.3515(4) 0.1000(7) 0.4884(5)
H5 H 0.3279 0.1509 0.5085
C12 C 0.4239(4) 0.0802(8) 0.5133(5)
H6 H 0.4479 0.1181 0.5517
C13 C 0.4619(4) 0.0098(7) 0.4858(5)
C14 C 0.4230(5) -0.0453(6) 0.4324(5)
H7 H 0.4463 -0.0967 0.4128
C15 C 0.3508(4) -0.0277(7) 0.4066(5)
H8 H 0.3265 -0.0669 0.3693
C16 C 0.2374(5) 0.0630(9) 0.4049(5)
C17 C 0.2093(5) 0.2082(8) 0.2200(6)
H9 H 0.1869 0.2484 0.2543
C18 C 0.2593(5) 0.2435(7) 0.1705(6)
H10 H 0.2701 0.3058 0.1697
C19 C 0.2925(5) 0.1835(8) 0.1224(6)
C20 C 0.2736(5) 0.0943(9) 0.1231(5)
H11 H 0.2945 0.0529 0.0887
C21 C 0.2241(4) 0.0666(7) 0.1744(5)
H12 H 0.2127 0.0046 0.1762
C22 C 0.3502(6) 0.2186(8) 0.0669(6)
H13 H 0.3946 0.1814 0.0757
H14 H 0.3310 0.2086 0.0117
C23 C 0.3716(5) 0.3111(7) 0.0744(6)
H15 H 0.3909 0.3216 0.1295
H16 H 0.3276 0.3488 0.0649
C24 C 0.4276(5) 0.3415(8) 0.0202(6)
C25 C 0.4945(5) 0.3009(7) 0.0175(6)
H17 H 0.5070 0.2519 0.0514
C26 C 0.0000 0.2486(10) 0.2500
C27 C 0.5443(5) 0.3317(8) -0.0352(6)
H18 H 0.5901 0.3024 -0.0363
C28 C 0.4641(5) 0.4417(7) -0.0800(5)
H19 H 0.4523 0.4915 -0.1131
C29 C 0.4136(4) 0.4124(9) -0.0283(6)
H20 H 0.3683 0.4428 -0.0271
O1B O -0.0577(3) 0.2104(5) 0.2267(4)
O2B O -0.0611(3) 0.9616(4) 0.2480(3)
C3B C -0.0580(5) 0.7766(6) 0.2785(5)
H1B H -0.0978 0.8083 0.2980
C4B C -0.0577(4) 0.6827(6) 0.2786(5)
H2B H -0.0975 0.6512 0.2984
C7B C -0.0621(5) 0.4868(7) 0.2252(5)
H3B H -0.1052 0.5180 0.2076
C8B C -0.0620(5) 0.3955(6) 0.2257(5)
H4B H -0.1053 0.3643 0.2090
C13D C 0.5381(4) -0.0098(7) 0.5142(5)
C12D C 0.5761(4) -0.0802(8) 0.4867(5)
C11D C 0.6485(4) -0.1000(7) 0.5116(5)
C10D C 0.6857(5) -0.0438(7) 0.5667(5)
C15D C 0.6492(4) 0.0277(7) 0.5934(5)
C14D C 0.5770(5) 0.0453(6) 0.5676(5)
H7D H 0.5537 0.0967 0.5872
H8D H 0.6735 0.0669 0.6307
C16D C 0.7626(5) -0.0630(9) 0.5951(5)
O3D O 0.7902(3) -0.1384(5) 0.5854(4)
O4D O 0.7968(3) -0.0005(5) 0.6307(4)
H5D H 0.6721 -0.1509 0.4915
H6D H 0.5521 -0.1181 0.4483
N1G N -0.3094(4) 0.3773(6) 0.7227(4)
N2G N 0.0300(4) 0.0988(6) 0.4155(4)
C17G C -0.2907(5) 0.2918(8) 0.7200(6)
H9G H -0.3131 0.2516 0.7543
C18G C -0.2407(5) 0.2565(7) 0.6705(6)
H10G H -0.2299 0.1942 0.6697
C19G C -0.2075(5) 0.3165(8) 0.6224(6)
C20G C -0.2264(5) 0.4057(9) 0.6231(5)
H11G H -0.2055 0.4471 0.5887
C21G C -0.2759(4) 0.4334(7) 0.6744(5)
H12G H -0.2873 0.4954 0.6762
C22G C -0.1498(6) 0.2814(8) 0.5669(6)
H13G H -0.1054 0.3186 0.5757
H14G H -0.1690 0.2914 0.5117
C23G C -0.1284(5) 0.1889(7) 0.5744(6)
H15G H -0.1091 0.1784 0.6295
H16G H -0.1724 0.1512 0.5649
C24G C -0.0724(5) 0.1585(8) 0.5202(6)
C25G C -0.0055(5) 0.1991(7) 0.5175(6)
H17G H 0.0070 0.2481 0.5514
C27G C 0.0443(5) 0.1683(8) 0.4648(6)
H18G H 0.0901 0.1976 0.4637
C28G C -0.0359(5) 0.0583(7) 0.4200(5)
H19G H -0.0477 0.0085 0.3869
C29G C -0.0864(4) 0.0876(9) 0.4717(6)
H20G H -0.1317 0.0572 0.4729
Cd1B Cd -0.10700(3) 0.08105(5) 0.18524(4)
O2_2 O 0.0611(3) -0.0384(4) 0.2520(3)
Cd1_2 Cd 0.10700(3) 1.08105(5) 0.31476(4)
Cd1G Cd 0.60700(3) 0.41895(5) -0.18524(4)
Cd1B_2 Cd -0.10700(3) 1.08105(5) 0.18524(4)
Cd1D Cd 0.89300(3) -0.08105(5) 0.68524(4)
Cd1G_2 Cd -0.39300(3) 0.41895(5) 0.81476(4)
O2B_2 O -0.0611(3) -0.0384(4) 0.2480(3)
O3B O -0.2098(3) 0.1384(5) 0.0854(4)
O4B O -0.2032(3) 0.0005(5) 0.1307(4)
N1B N -0.1906(4) 0.1227(6) 0.2773(4)
N2E N -0.0300(4) 0.0988(6) 0.0845(4)
O5 O 0.2886(6) 0.3113(7) 0.4028(5)
H21 H 0.301(7) 0.260(4) 0.421(6)
H22 H 0.269(7) 0.341(6) 0.439(5)
loop_
_geom_bond_atom_site_label_1
_geom_bond_atom_site_label_2
_geom_bond_site_symmetry_1
_geom_bond_site_symmetry_2
Cd1 O1 1_555 1_555
O1 C26 1_555 1_555
O2 C1 1_555 1_555
O3 Cd1 1_555 1_555
O4 Cd1 1_555 1_555
N1 Cd1 1_555 1_555
N2 C27 1_555 1_555
C1 C2 1_555 1_555
C2 C3 1_555 1_555
C3 H1 1_555 1_555
C4 C3 1_555 1_555
H2 C4 1_555 1_555
C5 C4 1_555 1_555
C6 C5 1_555 1_555
C7 C6 1_555 1_555
H3 C7 1_555 1_555
C8 C7 1_555 1_555
H4 C8 1_555 1_555
C9 C8 1_555 1_555
C10 C11 1_555 1_555
C11 H5 1_555 1_555
C12 C11 1_555 1_555
H6 C12 1_555 1_555
C13 C12 1_555 1_555
C14 C13 1_555 1_555
H7 C14 1_555 1_555
C15 C10 1_555 1_555
H8 C15 1_555 1_555
C16 O3 1_555 1_555
C17 N1 1_555 1_555
H9 C17 1_555 1_555
C18 C17 1_555 1_555
H10 C18 1_555 1_555
C19 C18 1_555 1_555
C20 C19 1_555 1_555
H11 C20 1_555 1_555
C21 N1 1_555 1_555
H12 C21 1_555 1_555
C22 C19 1_555 1_555
H13 C22 1_555 1_555
H14 C22 1_555 1_555
C23 C22 1_555 1_555
H15 C23 1_555 1_555
H16 C23 1_555 1_555
C24 C23 1_555 1_555
C25 C24 1_555 1_555
H17 C25 1_555 1_555
C26 C9 1_555 1_555
C27 C25 1_555 1_555
H18 C27 1_555 1_555
C28 N2 1_555 1_555
H19 C28 1_555 1_555
C29 C24 1_555 1_555
H20 C29 1_555 1_555
O5 H21 1_555 1_555
H22 O5 1_555 1_555
O1B C26 1_555 1_555
O2B C1 1_555 1_555
C3B C2 1_555 1_555
H1B C3B 1_555 1_555
C4B C5 1_555 1_555
H2B C4B 1_555 1_555
C7B C6 1_555 1_555
H3B C7B 1_555 1_555
C8B C9 1_555 1_555
H4B C8B 1_555 1_555
C13D C13 1_555 1_555
C12D C13D 1_555 1_555
C11D C12D 1_555 1_555
C10D C11D 1_555 1_555
C15D C10D 1_555 1_555
C14D C13D 1_555 1_555
H7D C14D 1_555 1_555
H8D C15D 1_555 1_555
C16D C10D 1_555 1_555
O3D C16D 1_555 1_555
O4D C16D 1_555 1_555
H5D C11D 1_555 1_555
H6D C12D 1_555 1_555
N1G C17G 1_555 1_555
N2G Cd1 1_555 1_555
C17G H9G 1_555 1_555
C18G C17G 1_555 1_555
H10G C18G 1_555 1_555
C19G C18G 1_555 1_555
C20G C19G 1_555 1_555
H11G C20G 1_555 1_555
C21G N1G 1_555 1_555
H12G C21G 1_555 1_555
C22G C19G 1_555 1_555
H13G C22G 1_555 1_555
H14G C22G 1_555 1_555
C23G C22G 1_555 1_555
H15G C23G 1_555 1_555
H16G C23G 1_555 1_555
C24G C23G 1_555 1_555
C25G C24G 1_555 1_555
H17G C25G 1_555 1_555
C27G N2G 1_555 1_555
H18G C27G 1_555 1_555
C28G N2G 1_555 1_555
H19G C28G 1_555 1_555
C29G C24G 1_555 1_555
H20G C29G 1_555 1_555
Cd1B O1B 1_555 1_555
O2_2 Cd1 1_555 1_555
Cd1_2 O2 1_555 1_555
Cd1G N2 1_555 1_555
Cd1B_2 O2B 1_555 1_555
Cd1D O3D 1_555 1_555
Cd1G_2 N1G 1_555 1_555
O2B_2 Cd1B 1_555 1_555
O3B Cd1B 1_555 1_555
O4B Cd1B 1_555 1_555
N1B Cd1B 1_555 1_555
N2E Cd1B 1_555 1_555
O4 C16 1_555 1_555
C10 C16 1_555 1_555
C14 C15 1_555 1_555
C20 C21 1_555 1_555
C28 C29 1_555 1_555
C3B C4B 1_555 1_555
C7B C8B 1_555 1_555
C15D C14D 1_555 1_555
O4D Cd1D 1_555 1_555
C20G C21G 1_555 1_555
C25G C27G 1_555 1_555
C28G C29G 1_555 1_555

#END
