
#######################################################################
#
#                 Cambridge Crystallographic Data Centre
#                                CCDC 
#
#######################################################################
#
# If this CIF has been generated from an entry in the Cambridge 
# Structural Database, then it will include bibliographic, chemical, 
# crystal, experimental, refinement or atomic coordinate data resulting 
# from the CCDC's data processing and validation procedures.
#
#######################################################################

data_XULGOC
_symmetry_cell_setting           triclinic
_symmetry_space_group_name_H-M   'P -1'
_symmetry_Int_Tables_number      2
_space_group_name_Hall           '-P 1'
loop_
_symmetry_equiv_pos_site_id
_symmetry_equiv_pos_as_xyz
1 x,y,z
2 -x,-y,-z
_cell_length_a                   8.2095(16)
_cell_length_b                   12.047(2)
_cell_length_c                   12.653(2)
_cell_angle_alpha                78.026(4)
_cell_angle_beta                 82.467(4)
_cell_angle_gamma                89.128(5)
_cell_volume                     1213.49
loop_
_atom_site_label
_atom_site_type_symbol
_atom_site_fract_x
_atom_site_fract_y
_atom_site_fract_z
Gd1 Gd 0.19722(5) 0.52968(4) 0.36460(4)
C1 C 0.1217(10) 0.2985(7) 0.5521(7)
C2 C 0.1186(10) 0.1717(7) 0.5833(7)
C3 C -0.0103(11) 0.1140(8) 0.6608(7)
H1 H -0.0878 0.1555 0.6963
C4 C -0.0209(11) -0.0007(8) 0.6831(8)
H2 H -0.1055 -0.0365 0.7344
C5 C 0.0914(10) -0.0665(7) 0.6315(7)
C6 C 0.2211(11) -0.0120(7) 0.5554(7)
C7 C 0.2315(10) 0.1091(7) 0.5338(7)
H3 H 0.3178 0.1460 0.4847
C8 C 0.3311(11) -0.0774(8) 0.4989(8)
H4 H 0.4175 -0.0418 0.4489
C9 C 0.3121(11) -0.1910(8) 0.5166(8)
H5 H 0.3872 -0.2329 0.4798
C10 C 0.1805(10) -0.2473(7) 0.5898(7)
C11 C 0.0744(11) -0.1863(7) 0.6466(7)
H6 H -0.0109 -0.2236 0.6963
C12 C 0.1470(10) -0.3695(8) 0.5933(7)
C13 C 0.4729(11) 0.7492(8) 0.2602(7)
C14 C 0.6517(12) 0.9131(9) 0.1550(8)
H7 H 0.7263 0.8950 0.2051
C15 C 0.5010(11) 0.8522(7) 0.1728(7)
C16 C 0.3904(11) 0.8828(8) 0.1032(8)
H8 H 0.2898 0.8447 0.1164
C17 C 0.4233(11) 0.9724(7) 0.0093(7)
C18 C 0.3124(12) 1.0045(9) -0.0678(9)
H9 H 0.2116 0.9669 -0.0572
C19 C 0.3905(13) 0.3242(9) 0.2446(9)
H10 H 0.4083 0.2983 0.3166
C20 C 0.4547(16) 0.2632(11) 0.1684(12)
H11 H 0.5139 0.1979 0.1904
C21 C 0.4343(18) 0.2952(12) 0.0660(12)
H12 H 0.4760 0.2520 0.0159
C22 C 0.3500(15) 0.3942(13) 0.0327(9)
C23 C 0.2815(12) 0.4518(10) 0.1156(8)
C24 C 0.1852(12) 0.5542(10) 0.0871(8)
C25 C 0.1636(14) 0.5906(12) -0.0218(9)
C26 C 0.2346(18) 0.5348(13) -0.1022(10)
H13 H 0.2206 0.5629 -0.1746
C27 C 0.3195(17) 0.4442(14) -0.0771(10)
H14 H 0.3638 0.4090 -0.1330
C28 C 0.0684(17) 0.6849(15) -0.0434(10)
H15 H 0.0536 0.7157 -0.1151
C29 C -0.0053(17) 0.7346(12) 0.0378(12)
H16 H -0.0703 0.7983 0.0227
C30 C 0.0207(14) 0.6861(9) 0.1447(9)
H17 H -0.0335 0.7166 0.2012
N1 N 0.3075(10) 0.4147(7) 0.2210(7)
N2 N 0.1156(10) 0.6017(7) 0.1684(6)
O1 O 0.2249(8) 0.3454(5) 0.4736(5)
O2 O 0.0159(7) 0.3503(5) 0.6014(5)
O3 O 0.0276(7) -0.4184(5) 0.6566(5)
O4 O 0.2378(7) -0.4162(5) 0.5268(5)
O5 O 0.3340(7) 0.6992(5) 0.2752(5)
O6 O 0.5917(9) 0.7128(7) 0.3097(6)
O7 O 0.4866(7) 0.5020(6) 0.3770(5)
H18 H 0.5523 0.5548 0.3418
H19 H 0.5436 0.4496 0.4098
C13A C 0.5271(11) 1.2508(8) -0.2602(7)
C14A C 0.3483(12) 1.0869(9) -0.1550(8)
H7A H 0.2737 1.1050 -0.2051
C15A C 0.4990(11) 1.1478(7) -0.1728(7)
C16A C 0.6096(11) 1.1172(8) -0.1032(8)
H8A H 0.7102 1.1553 -0.1164
C17A C 0.5767(11) 1.0276(7) -0.0093(7)
C18A C 0.6876(12) 0.9955(9) 0.0678(9)
H9A H 0.7884 1.0331 0.0572
O5A O 0.6660(7) 1.3008(5) -0.2752(5)
O6A O 0.4083(9) 1.2872(7) -0.3097(6)
Gd1A Gd -0.19722(5) -0.52968(4) 0.63540(4)
C1A C -0.1217(10) -0.2985(7) 0.4479(7)
C2A C -0.1186(10) -0.1717(7) 0.4167(7)
C3A C 0.0103(11) -0.1140(8) 0.3392(7)
H1A H 0.0878 -0.1555 0.3037
C4A C 0.0209(11) 0.0007(8) 0.3169(8)
H2A H 0.1055 0.0365 0.2656
C5A C -0.0914(10) 0.0665(7) 0.3685(7)
C6A C -0.2211(11) 0.0120(7) 0.4446(7)
C7A C -0.2315(10) -0.1091(7) 0.4662(7)
H3A H -0.3178 -0.1460 0.5153
C8A C -0.3311(11) 0.0774(8) 0.5011(8)
H4A H -0.4175 0.0418 0.5511
C9A C -0.3121(11) 0.1910(8) 0.4834(8)
H5A H -0.3872 0.2329 0.5202
C10A C -0.1805(10) 0.2473(7) 0.4102(7)
C11A C -0.0744(11) 0.1863(7) 0.3534(7)
H6A H 0.0109 0.2236 0.3037
C12A C -0.1470(10) 0.3695(8) 0.4067(7)
C19A C -0.3905(13) -0.3242(9) 0.7554(9)
H10A H -0.4083 -0.2983 0.6834
C20A C -0.4547(16) -0.2632(11) 0.8316(12)
H11A H -0.5139 -0.1979 0.8096
C21A C -0.4343(18) -0.2952(12) 0.9340(12)
H12A H -0.4760 -0.2520 0.9841
C22A C -0.3500(15) -0.3942(13) 0.9673(9)
C23A C -0.2815(12) -0.4518(10) 0.8844(8)
C24A C -0.1852(12) -0.5542(10) 0.9129(8)
C25A C -0.1636(14) -0.5906(12) 1.0218(9)
C26A C -0.2346(18) -0.5348(13) 1.1022(10)
H13A H -0.2206 -0.5629 1.1746
C27A C -0.3195(17) -0.4442(14) 1.0771(10)
H14A H -0.3638 -0.4090 1.1330
C28A C -0.0684(17) -0.6849(15) 1.0434(10)
H15A H -0.0536 -0.7157 1.1151
C29A C 0.0053(17) -0.7346(12) 0.9622(12)
H16A H 0.0703 -0.7983 0.9773
C30A C -0.0207(14) -0.6861(9) 0.8553(9)
H17A H 0.0335 -0.7166 0.7988
N1A N -0.3075(10) -0.4147(7) 0.7790(7)
N2A N -0.1156(10) -0.6017(7) 0.8316(6)
O1A O -0.2249(8) -0.3454(5) 0.5264(5)
O2A O -0.0159(7) -0.3503(5) 0.3986(5)
O3A O -0.0276(7) 0.4184(5) 0.3434(5)
O4A O -0.2378(7) 0.4162(5) 0.4732(5)
O7A O -0.4866(7) -0.5020(6) 0.6230(5)
H18A H -0.5523 -0.5548 0.6582
H19A H -0.5436 -0.4496 0.5902
Gd1_2 Gd 0.19722(5) -0.47032(4) 0.36460(4)
Gd1A_2 Gd -0.19722(5) 0.47032(4) 0.63540(4)
Gd1A_3 Gd 0.80278(5) 1.47032(4) -0.36460(4)
O2_2 O 0.0159(7) -0.6497(5) 0.6014(5)
O2A_2 O -0.0159(7) 0.6497(5) 0.3986(5)
O4_2 O 0.2378(7) 0.5838(5) 0.5268(5)
O4A_2 O -0.2378(7) -0.5838(5) 0.4732(5)
O5A_2 O -0.3340(7) -0.6992(5) 0.7248(5)
loop_
_geom_bond_atom_site_label_1
_geom_bond_atom_site_label_2
_geom_bond_site_symmetry_1
_geom_bond_site_symmetry_2
Gd1 N1 1_555 1_555
C1 C2 1_555 1_555
C2 C3 1_555 1_555
C3 H1 1_555 1_555
C4 C3 1_555 1_555
H2 C4 1_555 1_555
C5 C4 1_555 1_555
C6 C5 1_555 1_555
C7 C2 1_555 1_555
H3 C7 1_555 1_555
C8 C6 1_555 1_555
H4 C8 1_555 1_555
C9 C8 1_555 1_555
H5 C9 1_555 1_555
C10 C9 1_555 1_555
C11 C5 1_555 1_555
H6 C11 1_555 1_555
C12 C10 1_555 1_555
C13 C15 1_555 1_555
C14 H7 1_555 1_555
C15 C14 1_555 1_555
C16 C15 1_555 1_555
H8 C16 1_555 1_555
C17 C16 1_555 1_555
C18 C17 1_555 1_555
H9 C18 1_555 1_555
C19 H10 1_555 1_555
C20 C19 1_555 1_555
H11 C20 1_555 1_555
C21 C20 1_555 1_555
H12 C21 1_555 1_555
C22 C21 1_555 1_555
C23 C22 1_555 1_555
C24 C23 1_555 1_555
C25 C24 1_555 1_555
C26 C25 1_555 1_555
H13 C26 1_555 1_555
C27 C22 1_555 1_555
H14 C27 1_555 1_555
C28 C25 1_555 1_555
H15 C28 1_555 1_555
C29 C28 1_555 1_555
H16 C29 1_555 1_555
C30 C29 1_555 1_555
H17 C30 1_555 1_555
N1 C19 1_555 1_555
N2 Gd1 1_555 1_555
O1 Gd1 1_555 1_555
O2 C1 1_555 1_555
O3 C12 1_555 1_555
O4 C12 1_555 1_555
O5 Gd1 1_555 1_555
O6 C13 1_555 1_555
O7 Gd1 1_555 1_555
H18 O7 1_555 1_555
H19 O7 1_555 1_555
C13A C15A 1_555 1_555
C14A C18 1_555 1_555
H7A C14A 1_555 1_555
C15A C14A 1_555 1_555
C16A C15A 1_555 1_555
H8A C16A 1_555 1_555
C17A C17 1_555 1_555
C18A C14 1_555 1_555
H9A C18A 1_555 1_555
O5A C13A 1_555 1_555
O6A C13A 1_555 1_555
Gd1A O3 1_555 1_555
C1A C2A 1_555 1_555
C2A C3A 1_555 1_555
C3A H1A 1_555 1_555
C4A C3A 1_555 1_555
H2A C4A 1_555 1_555
C5A C4A 1_555 1_555
C6A C5A 1_555 1_555
C7A C2A 1_555 1_555
H3A C7A 1_555 1_555
C8A C6A 1_555 1_555
H4A C8A 1_555 1_555
C9A C8A 1_555 1_555
H5A C9A 1_555 1_555
C10A C9A 1_555 1_555
C11A C5A 1_555 1_555
H6A C11A 1_555 1_555
C12A C10A 1_555 1_555
C19A H10A 1_555 1_555
C20A C19A 1_555 1_555
H11A C20A 1_555 1_555
C21A C20A 1_555 1_555
H12A C21A 1_555 1_555
C22A C21A 1_555 1_555
C23A C22A 1_555 1_555
C24A C23A 1_555 1_555
C25A C24A 1_555 1_555
C26A C25A 1_555 1_555
H13A C26A 1_555 1_555
C27A C22A 1_555 1_555
H14A C27A 1_555 1_555
C28A C25A 1_555 1_555
H15A C28A 1_555 1_555
C29A C28A 1_555 1_555
H16A C29A 1_555 1_555
C30A C29A 1_555 1_555
H17A C30A 1_555 1_555
N1A Gd1A 1_555 1_555
N2A Gd1A 1_555 1_555
O1A Gd1A 1_555 1_555
O2A C1A 1_555 1_555
O3A Gd1 1_555 1_555
O4A C12A 1_555 1_555
O7A Gd1A 1_555 1_555
H18A O7A 1_555 1_555
H19A O7A 1_555 1_555
Gd1_2 O4 1_555 1_555
Gd1A_2 O2 1_555 1_555
Gd1A_3 O5A 1_555 1_555
O2_2 Gd1A 1_555 1_555
O2A_2 Gd1 1_555 1_555
O4_2 Gd1 1_555 1_555
O4A_2 Gd1A 1_555 1_555
O5A_2 Gd1A 1_555 1_555
C1 O1 1_555 1_555
C6 C7 1_555 1_555
C10 C11 1_555 1_555
C13 O5 1_555 1_555
C23 N1 1_555 1_555
C24 N2 1_555 1_555
C26 C27 1_555 1_555
C30 N2 1_555 1_555
C16A C17A 1_555 1_555
C17A C18A 1_555 1_555
C1A O1A 1_555 1_555
C6A C7A 1_555 1_555
C10A C11A 1_555 1_555
C12A O3A 1_555 1_555
C19A N1A 1_555 1_555
C23A N1A 1_555 1_555
C24A N2A 1_555 1_555
C26A C27A 1_555 1_555
C30A N2A 1_555 1_555
O2A Gd1_2 1_555 1_555
O4A Gd1A_2 1_555 1_555

#END
