
#######################################################################
#
#                 Cambridge Crystallographic Data Centre
#                                CCDC 
#
#######################################################################
#
# If this CIF has been generated from an entry in the Cambridge 
# Structural Database, then it will include bibliographic, chemical, 
# crystal, experimental, refinement or atomic coordinate data resulting 
# from the CCDC's data processing and validation procedures.
#
#######################################################################

data_XULPAV
_symmetry_cell_setting           triclinic
_symmetry_space_group_name_H-M   'P -1'
_symmetry_Int_Tables_number      2
_space_group_name_Hall           '-P 1'
loop_
_symmetry_equiv_pos_site_id
_symmetry_equiv_pos_as_xyz
1 x,y,z
2 -x,-y,-z
_cell_length_a                   8.405(2)
_cell_length_b                   10.714(2)
_cell_length_c                   18.031(2)
_cell_angle_alpha                77.36(2)
_cell_angle_beta                 76.56(2)
_cell_angle_gamma                66.92(2)
_cell_volume                     1437.97
loop_
_atom_site_label
_atom_site_type_symbol
_atom_site_fract_x
_atom_site_fract_y
_atom_site_fract_z
Ag1 Ag 0.30876(7) 0.03619(5) 0.43793(4)
S1 S 0.7513(2) -0.00598(19) 0.35796(12)
O1 O 0.7618(6) -0.4851(5) 0.4727(3)
O6 O 0.8732(10) -0.1388(6) 0.3615(5)
O7 O 0.6780(10) 0.0473(9) 0.2877(4)
O8 O 0.6242(7) 0.0288(7) 0.4244(3)
N1 N 0.4021(7) -0.1798(5) 0.4217(4)
N2 N 1.1738(7) -0.7436(5) 0.4132(3)
C1 C 0.5368(8) -0.2705(6) 0.4549(4)
H1 H 0.5704 -0.2463 0.4937
C2 C 0.6272(8) -0.3981(6) 0.4336(4)
C3 C 0.5775(11) -0.4354(8) 0.3778(6)
H2 H 0.6369 -0.5217 0.3626
C4 C 0.4378(12) -0.3427(9) 0.3444(6)
H3 H 0.4019 -0.3655 0.3058
C5 C 0.3518(9) -0.2172(8) 0.3680(5)
H4 H 0.2553 -0.1561 0.3460
C6 C 1.0154(8) -0.6787(6) 0.4512(4)
H5 H 0.9667 -0.7257 0.4941
C7 C 0.9233(8) -0.5428(6) 0.4274(4)
C8 C 0.9901(10) -0.4717(7) 0.3661(5)
H6 H 0.9277 -0.3798 0.3506
C9 C 1.1549(10) -0.5384(8) 0.3261(5)
H7 H 1.2053 -0.4926 0.2831
C10 C 1.2419(9) -0.6748(8) 0.3522(5)
H8 H 1.3524 -0.7201 0.3259
C21 C 0.8769(12) 0.0989(10) 0.3535(6)
F1 F 1.0043(8) 0.0820(7) 0.2928(4)
F2 F 0.7847(10) 0.2256(6) 0.3512(5)
F3 F 0.9543(9) 0.0546(10) 0.4176(4)
O8A O 0.3758(7) -0.0288(7) 0.5756(3)
N2_2 N 0.1738(7) 0.2564(5) 0.4132(3)
Ag1A Ag 0.69124(7) -0.03619(5) 0.56207(4)
Ag1_2 Ag 1.30876(7) -0.96381(5) 0.43793(4)
Ag2 Ag 0.28273(8) 0.46385(5) 0.06203(4)
S2 S 0.6033(3) 0.50605(19) 0.14200(12)
O2 O 0.2498(8) 0.9849(5) 0.0273(3)
O3 O 0.5772(7) 0.4714(7) 0.0752(3)
O4 O 0.5954(11) 0.6393(6) 0.1388(5)
O5 O 0.5126(10) 0.4524(9) 0.2124(4)
N3 N 0.1438(8) 0.6797(5) 0.0783(4)
N4 N 0.3429(8) 1.2439(5) 0.0865(3)
C11 C 0.2218(9) 0.7703(6) 0.0451(4)
H9 H 0.3185 0.7462 0.0064
C12 C 0.1622(10) 0.8974(6) 0.0668(4)
C13 C 0.0212(12) 0.9345(8) 0.1225(6)
H10 H -0.0193 1.0205 0.1380
C14 C -0.0609(12) 0.8438(10) 0.1557(6)
H11 H -0.1590 0.8674 0.1938
C15 C 0.0027(10) 0.7173(8) 0.1323(5)
H12 H -0.0541 0.6559 0.1548
C16 C 0.4199(10) 1.1747(8) 0.1470(5)
H13 H 0.4610 1.2195 0.1726
C17 C 0.4418(11) 1.0391(8) 0.1736(5)
H14 H 0.4935 0.9942 0.2171
C18 C 0.3848(10) 0.9710(7) 0.1337(5)
H15 H 0.4000 0.8788 0.1488
C19 C 0.3071(9) 1.0435(6) 0.0727(4)
C20 C 0.2873(9) 1.1790(6) 0.0488(4)
H16 H 0.2346 1.2258 0.0058
C22 C 0.8293(12) 0.4010(9) 0.1468(7)
F4 F 0.8795(9) 0.4173(8) 0.2075(4)
F5 F 0.8621(9) 0.2741(6) 0.1482(5)
F6 F 0.9267(8) 0.4448(10) 0.0824(5)
O3A O 0.4228(7) 0.5286(7) -0.0752(3)
N4_2 N 0.3429(8) 0.2439(5) 0.0865(3)
Ag2A Ag 0.71727(8) 0.53615(5) -0.06203(4)
Ag2_2 Ag 0.28273(8) 1.46385(5) 0.06203(4)
loop_
_geom_bond_atom_site_label_1
_geom_bond_atom_site_label_2
_geom_bond_site_symmetry_1
_geom_bond_site_symmetry_2
Ag1 O8 1_555 1_555
Ag2 O3 1_555 1_555
S1 O6 1_555 1_555
S2 O3 1_555 1_555
O1 C2 1_555 1_555
O2 C12 1_555 1_555
O3 Ag2A 1_555 1_555
O4 S2 1_555 1_555
O5 S2 1_555 1_555
O7 S1 1_555 1_555
O8 S1 1_555 1_555
N1 Ag1 1_555 1_555
N2 C6 1_555 1_555
N3 Ag2 1_555 1_555
N4 C16 1_555 1_555
C1 N1 1_555 1_555
H1 C1 1_555 1_555
C2 C1 1_555 1_555
C3 C2 1_555 1_555
H2 C3 1_555 1_555
C4 C3 1_555 1_555
H3 C4 1_555 1_555
C5 N1 1_555 1_555
H4 C5 1_555 1_555
C6 H5 1_555 1_555
C7 O1 1_555 1_555
C8 C7 1_555 1_555
H6 C8 1_555 1_555
C9 C8 1_555 1_555
H7 C9 1_555 1_555
C10 N2 1_555 1_555
H8 C10 1_555 1_555
C11 N3 1_555 1_555
H9 C11 1_555 1_555
C12 C11 1_555 1_555
C13 C12 1_555 1_555
H10 C13 1_555 1_555
C14 C13 1_555 1_555
H11 C14 1_555 1_555
C15 N3 1_555 1_555
H12 C15 1_555 1_555
C16 H13 1_555 1_555
C17 C16 1_555 1_555
H14 C17 1_555 1_555
C18 C17 1_555 1_555
H15 C18 1_555 1_555
C19 O2 1_555 1_555
C20 N4 1_555 1_555
H16 C20 1_555 1_555
C21 S1 1_555 1_555
C22 S2 1_555 1_555
F1 C21 1_555 1_555
F2 C21 1_555 1_555
F3 C21 1_555 1_555
F4 C22 1_555 1_555
F5 C22 1_555 1_555
F6 C22 1_555 1_555
O8A Ag1 1_555 1_555
N2_2 Ag1 1_555 1_555
O3A Ag2 1_555 1_555
N4_2 Ag2 1_555 1_555
Ag2A O3A 1_555 1_555
Ag1A O8 1_555 1_555
Ag1_2 N2 1_555 1_555
Ag2_2 N4 1_555 1_555
C4 C5 1_555 1_555
C6 C7 1_555 1_555
C9 C10 1_555 1_555
C14 C15 1_555 1_555
C18 C19 1_555 1_555
C19 C20 1_555 1_555
O8A Ag1A 1_555 1_555

#END
