
#######################################################################
#
#                 Cambridge Crystallographic Data Centre
#                                CCDC 
#
#######################################################################
#
# If this CIF has been generated from an entry in the Cambridge 
# Structural Database, then it will include bibliographic, chemical, 
# crystal, experimental, refinement or atomic coordinate data resulting 
# from the CCDC's data processing and validation procedures.
#
#######################################################################

data_XULQEA
_symmetry_cell_setting           triclinic
_symmetry_space_group_name_H-M   'P -1'
_symmetry_Int_Tables_number      2
_space_group_name_Hall           '-P 1'
loop_
_symmetry_equiv_pos_site_id
_symmetry_equiv_pos_as_xyz
1 x,y,z
2 -x,-y,-z
_cell_length_a                   11.3590(6)
_cell_length_b                   12.1965(11)
_cell_length_c                   14.2601(8)
_cell_angle_alpha                95.072(7)
_cell_angle_beta                 103.522(4)
_cell_angle_gamma                101.077(6)
_cell_volume                     1866.55
loop_
_atom_site_label
_atom_site_type_symbol
_atom_site_fract_x
_atom_site_fract_y
_atom_site_fract_z
Tb1 Tb 0.206692(13) 0.135941(11) 0.110580(9)
Tb2 Tb 0.394818(12) 0.334136(11) 0.365355(9)
O1 O 0.1930(2) 0.25519(19) 0.36653(16)
O2 O 0.0976(2) 0.1386(2) 0.22904(17)
O3 O -0.4861(2) -0.49624(18) 0.34350(16)
O4 O -0.4358(2) -0.36284(19) 0.47093(15)
O5 O 0.4031(2) 0.14946(19) 0.41659(17)
O6 O 0.3460(2) 0.12530(19) 0.25724(16)
O7 O 0.2954(2) -0.66296(18) 0.19567(15)
O8 O 0.2425(3) -0.69370(19) 0.03617(16)
O9 O 0.6046(3) 0.2854(4) 0.2055(2)
O10 O 0.5886(2) 0.3066(2) 0.35744(18)
O11 O -0.0061(2) 0.12469(18) 0.03936(16)
O12 O -0.1431(2) 0.05551(19) -0.10270(17)
O13 O 0.2905(2) 0.4859(2) 0.39398(18)
O14 O 0.1750(3) 0.0703(2) -0.06142(18)
O15 O 0.4058(3) 0.1414(3) 0.0874(2)
N1 N -0.1723(3) 0.0141(3) 0.4450(2)
N2 N -0.2315(3) -0.1837(3) 0.2282(2)
N3 N 0.3415(3) -0.2696(2) 0.34710(19)
N4 N 0.3736(3) -0.2716(2) 0.1014(2)
N5 N 1.0416(2) 0.4544(2) 0.3903(2)
N6 N -0.0002(3) 0.4643(3) -0.1258(2)
C1 C 0.1083(3) 0.1766(3) 0.3161(2)
C2 C 0.0104(3) 0.1219(3) 0.3622(2)
C3 C -0.0047(3) 0.1705(3) 0.4483(2)
H1 H 0.0458 0.2393 0.4801
C4 C -0.0970(4) 0.1144(3) 0.4863(3)
H2 H -0.1077 0.1482 0.5439
C5 C -0.1550(3) -0.0325(3) 0.3620(2)
C6 C -0.2328(3) -0.1477(3) 0.3194(2)
C7 C -0.2985(3) -0.2140(3) 0.3734(2)
H3 H -0.3009 -0.1852 0.4354
C8 C -0.3601(3) -0.3233(3) 0.3329(2)
C9 C -0.3554(4) -0.3624(3) 0.2397(3)
H4 H -0.3942 -0.4361 0.2114
C10 C -0.2920(4) -0.2898(3) 0.1898(3)
H5 H -0.2914 -0.3157 0.1267
C11 C -0.0663(3) 0.0187(3) 0.3181(2)
H6 H -0.0583 -0.0158 0.2598
C12 C -0.4325(3) -0.4001(3) 0.3874(2)
C13 C 0.3717(3) 0.0860(3) 0.3374(2)
C14 C 0.3639(3) -0.0387(3) 0.3378(2)
C15 C 0.3586(3) -0.0822(3) 0.4242(2)
H7 H 0.3630 -0.0349 0.4804
C16 C 0.3467(3) -0.1973(3) 0.4246(2)
H8 H 0.3420 -0.2258 0.4823
C17 C 0.3496(3) -0.2265(3) 0.2640(2)
C18 C 0.3446(3) -0.3106(3) 0.1800(2)
C19 C 0.3140(3) -0.4259(3) 0.1843(2)
H9 H 0.2930 -0.4509 0.2392
C20 C 0.3146(3) -0.5028(3) 0.1083(2)
C21 C 0.3415(4) -0.4622(3) 0.0258(3)
H10 H 0.3406 -0.5114 -0.0281
C22 C 0.3696(5) -0.3470(3) 0.0263(3)
H11 H 0.3868 -0.3202 -0.0292
C23 C 0.3602(3) -0.1121(3) 0.2570(2)
H12 H 0.3648 -0.0853 0.1986
C24 C 0.2832(3) -0.6265(3) 0.1130(2)
C25 C 0.6483(3) 0.3134(3) 0.2940(3)
C26 C 0.7869(3) 0.3634(3) 0.3286(2)
C27 C 0.8629(3) 0.3515(3) 0.2668(2)
H13 H 0.8300 0.3135 0.2038
C28 C 0.9884(3) 0.3973(3) 0.3011(2)
H14 H 1.0391 0.3879 0.2598
C29 C 0.9684(3) 0.4677(3) 0.4508(2)
C30 C 0.8403(3) 0.4219(3) 0.4215(2)
H15 H 0.7912 0.4306 0.4643
C31 C -0.0670(3) 0.1342(3) -0.0446(2)
C32 C -0.0477(3) 0.2487(3) -0.0754(2)
C33 C -0.0413(4) 0.2639(3) -0.1688(3)
H16 H -0.0539 0.2025 -0.2164
C34 C -0.0156(5) 0.3728(3) -0.1896(3)
H17 H -0.0086 0.3832 -0.2521
C35 C -0.0087(3) 0.4487(3) -0.0353(2)
C36 C -0.0304(3) 0.3423(3) -0.0073(2)
H18 H -0.0334 0.3340 0.0564
H19 H 0.220(4) 0.476(3) 0.404(3)
H20 H 0.318(4) 0.545(4) 0.389(3)
H21 H 0.196(5) 0.098(4) -0.111(4)
H22 H 0.129(5) 0.008(4) -0.083(4)
H23 H 0.484(5) 0.185(5) 0.133(4)
H24 H 0.419(7) 0.143(6) 0.044(5)
C29A C 1.0316(3) 0.5323(3) 0.5492(2)
N5A N 0.9584(2) 0.5456(2) 0.6097(2)
C28A C 1.0116(3) 0.6027(3) 0.6989(2)
C27A C 1.1371(3) 0.6485(3) 0.7332(2)
C26A C 1.2131(3) 0.6366(3) 0.6714(2)
C25A C 1.3517(3) 0.6866(3) 0.7060(3)
O9A O 1.3954(3) 0.7146(4) 0.7945(2)
O10A O 1.4114(2) 0.6934(2) 0.64256(18)
C30A C 1.1597(3) 0.5781(3) 0.5785(2)
H15A H 1.2088 0.5694 0.5357
H13A H 1.1700 0.6865 0.7962
H14A H 0.9609 0.6121 0.7402
C35A C 0.0087(3) 0.5513(3) 0.0353(2)
N6A N 0.0002(3) 0.5357(3) 0.1258(2)
C34A C 0.0156(5) 0.6272(3) 0.1896(3)
C33A C 0.0413(4) 0.7361(3) 0.1688(3)
C32A C 0.0477(3) 0.7513(3) 0.0754(2)
C31A C 0.0670(3) 0.8658(3) 0.0446(2)
O11A O 0.0061(2) 0.87531(18) -0.03936(16)
O12A O 0.1431(2) 0.94449(19) 0.10270(17)
C36A C 0.0304(3) 0.6577(3) 0.0073(2)
H18A H 0.0334 0.6660 -0.0564
H16A H 0.0539 0.7975 0.2164
H17A H 0.0086 0.6168 0.2521
O5_2 O 0.4031(2) 1.14946(19) 0.41659(17)
O6_2 O 0.3460(2) 1.12530(19) 0.25724(16)
O7_2 O 0.2954(2) 0.33704(18) 0.19567(15)
O8_2 O 0.2425(3) 0.30630(19) 0.03617(16)
N3_2 N 0.3415(3) 0.7304(2) 0.34710(19)
N4_2 N 0.3736(3) 0.7284(2) 0.1014(2)
C13_2 C 0.3717(3) 1.0860(3) 0.3374(2)
C14_2 C 0.3639(3) 0.9613(3) 0.3378(2)
C15_2 C 0.3586(3) 0.9178(3) 0.4242(2)
H7_2 H 0.3630 0.9651 0.4804
C16_2 C 0.3467(3) 0.8027(3) 0.4246(2)
H8_2 H 0.3420 0.7742 0.4823
C17_2 C 0.3496(3) 0.7735(3) 0.2640(2)
C18_2 C 0.3446(3) 0.6894(3) 0.1800(2)
C19_2 C 0.3140(3) 0.5741(3) 0.1843(2)
H9_2 H 0.2930 0.5491 0.2392
C20_2 C 0.3146(3) 0.4972(3) 0.1083(2)
C21_2 C 0.3415(4) 0.5378(3) 0.0258(3)
H10_2 H 0.3406 0.4886 -0.0281
C22_2 C 0.3696(5) 0.6530(3) 0.0263(3)
H11_2 H 0.3868 0.6798 -0.0292
C23_2 C 0.3602(3) 0.8879(3) 0.2570(2)
H12_2 H 0.3648 0.9147 0.1986
C24_2 C 0.2832(3) 0.3735(3) 0.1130(2)
Tb1_2 Tb 0.206692(13) 1.135941(11) 0.110580(9)
Tb2_2 Tb -0.605182(12) -0.665864(11) 0.365355(9)
O1_2 O 1.1930(2) 1.25519(19) 0.36653(16)
O2_2 O 1.0976(2) 1.1386(2) 0.22904(17)
O3_2 O 0.5139(2) 0.50376(18) 0.34350(16)
O4_2 O 0.5642(2) 0.63716(19) 0.47093(15)
N1_2 N 0.8277(3) 1.0141(3) 0.4450(2)
N2_2 N 0.7685(3) 0.8163(3) 0.2282(2)
C1_2 C 1.1083(3) 1.1766(3) 0.3161(2)
C2_2 C 1.0104(3) 1.1219(3) 0.3622(2)
C3_2 C 0.9953(3) 1.1705(3) 0.4483(2)
H1_2 H 1.0458 1.2393 0.4801
C4_2 C 0.9030(4) 1.1144(3) 0.4863(3)
H2_2 H 0.8923 1.1482 0.5439
C5_2 C 0.8450(3) 0.9675(3) 0.3620(2)
C6_2 C 0.7672(3) 0.8523(3) 0.3194(2)
C7_2 C 0.7015(3) 0.7860(3) 0.3734(2)
H3_2 H 0.6991 0.8148 0.4354
C8_2 C 0.6399(3) 0.6767(3) 0.3329(2)
C9_2 C 0.6446(4) 0.6376(3) 0.2397(3)
H4_2 H 0.6058 0.5639 0.2114
C10_2 C 0.7080(4) 0.7102(3) 0.1898(3)
H5_2 H 0.7086 0.6843 0.1267
C11_2 C 0.9337(3) 1.0187(3) 0.3181(2)
H6_2 H 0.9417 0.9842 0.2598
C12_2 C 0.5675(3) 0.5999(3) 0.3874(2)
O14_2 O 0.1750(3) 1.0703(2) -0.06142(18)
H21_2 H 0.196(5) 1.098(4) -0.111(4)
H22_2 H 0.129(5) 1.008(4) -0.083(4)
O15_2 O 0.4058(3) 1.1414(3) 0.0874(2)
H23_2 H 0.484(5) 1.185(5) 0.133(4)
H24_2 H 0.419(7) 1.143(6) 0.044(5)
O13_2 O -0.7095(2) -0.5141(2) 0.39398(18)
H19_2 H -0.780(4) -0.524(3) 0.404(3)
H20_2 H -0.682(4) -0.455(4) 0.389(3)
O12A_2 O 0.1431(2) -0.05551(19) 0.10270(17)
O4A O 0.4358(2) 0.36284(19) 0.52907(15)
Tb2A Tb -0.394818(12) -0.334136(11) 0.634645(9)
Tb1_3 Tb 0.206692(13) -0.864059(11) 0.110580(9)
Tb2_3 Tb 0.394818(12) -0.665864(11) 0.365355(9)
Tb1A Tb -0.206692(13) -0.135941(11) -0.110580(9)
Tb2A_2 Tb 1.605182(12) 0.665864(11) 0.634645(9)
Tb1A_2 Tb -0.206692(13) 0.864059(11) -0.110580(9)
Tb2_4 Tb 0.394818(12) 1.334136(11) 0.365355(9)
O2_3 O 0.0976(2) 1.1386(2) 0.22904(17)
O7_3 O 0.2954(2) 1.33704(18) 0.19567(15)
O8_3 O 0.2425(3) 1.30630(19) 0.03617(16)
O11_2 O -0.0061(2) 1.12469(18) 0.03936(16)
O1_3 O -0.8070(2) -0.74481(19) 0.36653(16)
O4A_2 O -0.5642(2) -0.63716(19) 0.52907(15)
O5_3 O -0.5969(2) -0.85054(19) 0.41659(17)
O6_3 O -0.6540(2) -0.87470(19) 0.25724(16)
O7_4 O -0.7046(2) -0.66296(18) 0.19567(15)
O10_2 O -0.4114(2) -0.6934(2) 0.35744(18)
Tb2_5 Tb 1.394818(12) 1.334136(11) 0.365355(9)
Tb1_4 Tb 1.206692(13) 1.135941(11) 0.110580(9)
Tb2A_3 Tb 0.605182(12) 0.665864(11) 0.634645(9)
O16 O 0.4621(5) 0.0791(4) -0.0778(4)
H25 H 0.561(6) 0.072(5) -0.024(5)
H26 H 0.511(6) 0.162(5) -0.100(4)
loop_
_geom_bond_atom_site_label_1
_geom_bond_atom_site_label_2
_geom_bond_site_symmetry_1
_geom_bond_site_symmetry_2
Tb1 O2 1_555 1_555
Tb2 O1 1_555 1_555
O1 C1 1_555 1_555
O2 C1 1_555 1_555
O3 C12 1_555 1_555
O4 C12 1_555 1_555
O5 Tb2 1_555 1_555
O6 Tb1 1_555 1_555
O7 C24 1_555 1_555
O8 C24 1_555 1_555
O9 C25 1_555 1_555
O10 Tb2 1_555 1_555
O11 Tb1 1_555 1_555
O12 C31 1_555 1_555
O13 Tb2 1_555 1_555
O14 Tb1 1_555 1_555
O15 Tb1 1_555 1_555
N1 C4 1_555 1_555
N2 C6 1_555 1_555
N3 C16 1_555 1_555
N4 C18 1_555 1_555
N5 C28 1_555 1_555
N6 C34 1_555 1_555
C1 C2 1_555 1_555
C2 C3 1_555 1_555
C3 H1 1_555 1_555
C4 C3 1_555 1_555
H2 C4 1_555 1_555
C5 N1 1_555 1_555
C6 C5 1_555 1_555
C7 C6 1_555 1_555
H3 C7 1_555 1_555
C8 C7 1_555 1_555
C9 C8 1_555 1_555
H4 C9 1_555 1_555
C10 N2 1_555 1_555
H5 C10 1_555 1_555
C11 C2 1_555 1_555
H6 C11 1_555 1_555
C12 C8 1_555 1_555
C13 O5 1_555 1_555
C14 C13 1_555 1_555
C15 C14 1_555 1_555
H7 C15 1_555 1_555
C16 C15 1_555 1_555
H8 C16 1_555 1_555
C17 N3 1_555 1_555
C18 C17 1_555 1_555
C19 C18 1_555 1_555
H9 C19 1_555 1_555
C20 C19 1_555 1_555
C21 C20 1_555 1_555
H10 C21 1_555 1_555
C22 N4 1_555 1_555
H11 C22 1_555 1_555
C23 C14 1_555 1_555
H12 C23 1_555 1_555
C24 C20 1_555 1_555
C25 O10 1_555 1_555
C26 C25 1_555 1_555
C27 C26 1_555 1_555
H13 C27 1_555 1_555
C28 C27 1_555 1_555
H14 C28 1_555 1_555
C29 N5 1_555 1_555
C30 C26 1_555 1_555
H15 C30 1_555 1_555
C31 O11 1_555 1_555
C32 C31 1_555 1_555
C33 C32 1_555 1_555
H16 C33 1_555 1_555
C34 C33 1_555 1_555
H17 C34 1_555 1_555
C35 N6 1_555 1_555
C36 C32 1_555 1_555
H18 C36 1_555 1_555
H19 O13 1_555 1_555
H20 O13 1_555 1_555
H21 O14 1_555 1_555
H22 O14 1_555 1_555
H23 O15 1_555 1_555
H24 O15 1_555 1_555
O16 H25 1_555 1_555
H26 O16 1_555 1_555
C29A C29 1_555 1_555
N5A C29A 1_555 1_555
C28A N5A 1_555 1_555
C27A C28A 1_555 1_555
C26A C27A 1_555 1_555
C25A C26A 1_555 1_555
O9A C25A 1_555 1_555
O10A C25A 1_555 1_555
C30A C29A 1_555 1_555
H15A C30A 1_555 1_555
H13A C27A 1_555 1_555
H14A C28A 1_555 1_555
C35A C35 1_555 1_555
N6A C35A 1_555 1_555
C34A N6A 1_555 1_555
C33A C34A 1_555 1_555
C32A C33A 1_555 1_555
C31A C32A 1_555 1_555
O11A C31A 1_555 1_555
O12A C31A 1_555 1_555
C36A C35A 1_555 1_555
H18A C36A 1_555 1_555
H16A C33A 1_555 1_555
H17A C34A 1_555 1_555
O5_2 C13_2 1_555 1_555
O6_2 C13_2 1_555 1_555
O7_2 Tb1 1_555 1_555
O8_2 Tb1 1_555 1_555
N3_2 C16_2 1_555 1_555
N4_2 C18_2 1_555 1_555
C13_2 C14_2 1_555 1_555
C14_2 C15_2 1_555 1_555
C15_2 H7_2 1_555 1_555
C16_2 C15_2 1_555 1_555
H8_2 C16_2 1_555 1_555
C17_2 N3_2 1_555 1_555
C18_2 C17_2 1_555 1_555
C19_2 C18_2 1_555 1_555
H9_2 C19_2 1_555 1_555
C20_2 C19_2 1_555 1_555
C21_2 C20_2 1_555 1_555
H10_2 C21_2 1_555 1_555
C22_2 N4_2 1_555 1_555
H11_2 C22_2 1_555 1_555
C23_2 C14_2 1_555 1_555
H12_2 C23_2 1_555 1_555
C24_2 O7_2 1_555 1_555
Tb1_2 O12A 1_555 1_555
Tb2_2 O3 1_555 1_555
O1_2 C1_2 1_555 1_555
O2_2 C1_2 1_555 1_555
O3_2 Tb2 1_555 1_555
O4_2 C12_2 1_555 1_555
N1_2 C4_2 1_555 1_555
N2_2 C6_2 1_555 1_555
C1_2 C2_2 1_555 1_555
C2_2 C3_2 1_555 1_555
C3_2 H1_2 1_555 1_555
C4_2 C3_2 1_555 1_555
H2_2 C4_2 1_555 1_555
C5_2 N1_2 1_555 1_555
C6_2 C5_2 1_555 1_555
C7_2 C6_2 1_555 1_555
H3_2 C7_2 1_555 1_555
C8_2 C7_2 1_555 1_555
C9_2 C8_2 1_555 1_555
H4_2 C9_2 1_555 1_555
C10_2 N2_2 1_555 1_555
H5_2 C10_2 1_555 1_555
C11_2 C2_2 1_555 1_555
H6_2 C11_2 1_555 1_555
C12_2 O3_2 1_555 1_555
O14_2 Tb1_2 1_555 1_555
H21_2 O14_2 1_555 1_555
H22_2 O14_2 1_555 1_555
O15_2 Tb1_2 1_555 1_555
H23_2 O15_2 1_555 1_555
H24_2 O15_2 1_555 1_555
O13_2 Tb2_2 1_555 1_555
H19_2 O13_2 1_555 1_555
H20_2 O13_2 1_555 1_555
O12A_2 Tb1 1_555 1_555
O4A Tb2 1_555 1_555
Tb2A O4 1_555 1_555
Tb1_3 O7 1_555 1_555
Tb2_3 O7 1_555 1_555
Tb1A O12 1_555 1_555
Tb2A_2 O10A 1_555 1_555
Tb1A_2 O11A 1_555 1_555
Tb2_4 O5_2 1_555 1_555
O2_3 Tb1_2 1_555 1_555
O7_3 Tb1_2 1_555 1_555
O8_3 Tb1_2 1_555 1_555
O11_2 Tb1_2 1_555 1_555
O1_3 Tb2_2 1_555 1_555
O4A_2 Tb2_2 1_555 1_555
O5_3 Tb2_2 1_555 1_555
O6_3 Tb2_2 1_555 1_555
O7_4 Tb2_2 1_555 1_555
O10_2 Tb2_2 1_555 1_555
Tb2_5 O1_2 1_555 1_555
Tb1_4 O2_2 1_555 1_555
Tb2A_3 O4_2 1_555 1_555
Tb2 O6 1_555 1_555
Tb2 O7_2 1_555 1_555
O6 C13 1_555 1_555
O8 Tb1_3 1_555 1_555
C5 C11 1_555 1_555
C9 C10 1_555 1_555
C17 C23 1_555 1_555
C21 C22 1_555 1_555
C29 C30 1_555 1_555
C35 C36 1_555 1_555
C26A C30A 1_555 1_555
C32A C36A 1_555 1_555
O6_2 Tb1_2 1_555 1_555
O6_2 Tb2_4 1_555 1_555
O8_2 C24_2 1_555 1_555
C17_2 C23_2 1_555 1_555
C20_2 C24_2 1_555 1_555
C21_2 C22_2 1_555 1_555
C5_2 C11_2 1_555 1_555
C8_2 C12_2 1_555 1_555
C9_2 C10_2 1_555 1_555
Tb2_4 O7_3 1_555 1_555

#END
