
#######################################################################
#
#                 Cambridge Crystallographic Data Centre
#                                CCDC 
#
#######################################################################
#
# If this CIF has been generated from an entry in the Cambridge 
# Structural Database, then it will include bibliographic, chemical, 
# crystal, experimental, refinement or atomic coordinate data resulting 
# from the CCDC's data processing and validation procedures.
#
#######################################################################

data_XULSIH
_symmetry_cell_setting           monoclinic
_symmetry_space_group_name_H-M   'C 2/c'
_symmetry_Int_Tables_number      15
_space_group_name_Hall           '-C 2yn'
loop_
_symmetry_equiv_pos_site_id
_symmetry_equiv_pos_as_xyz
1 x,y,z
2 -x,y,1/2-z
3 1/2+x,1/2+y,z
4 1/2-x,1/2+y,1/2-z
5 -x,-y,-z
6 x,-y,1/2+z
7 1/2-x,1/2-y,-z
8 1/2+x,1/2-y,1/2+z
_cell_length_a                   17.068(4)
_cell_length_b                   11.446(3)
_cell_length_c                   19.074(5)
_cell_angle_alpha                90
_cell_angle_beta                 102.576(3)
_cell_angle_gamma                90
_cell_volume                     3636.9
loop_
_atom_site_label
_atom_site_type_symbol
_atom_site_fract_x
_atom_site_fract_y
_atom_site_fract_z
Cu1 Cu 0.17266(3) 0.23310(4) 0.07368(2)
S1 S 0.06214(6) 0.53814(9) -0.06511(5)
O1 O 0.19479(18) 0.3756(3) -0.00531(16)
O2 O 0.26706(15) 0.4125(2) -0.08783(14)
O3 O -0.06696(18) 0.7866(3) -0.17395(15)
O4 O -0.08997(16) 0.6581(3) -0.09266(15)
N1 N 0.09029(19) 0.1609(3) -0.00774(18)
N2 N -0.0762(2) 0.0268(4) -0.1839(2)
H1 H -0.074(3) -0.043(5) -0.179(3)
N3 N -0.24301(19) 0.1902(3) -0.34822(17)
C1 C 0.0267(3) 0.2251(4) -0.0406(2)
H2 H 0.0209 0.3016 -0.0230
C2 C -0.0300(3) 0.1859(4) -0.0983(2)
H3 H -0.0742 0.2344 -0.1191
C3 C -0.0229(2) 0.0751(4) -0.1263(2)
C4 C 0.0417(2) 0.0074(4) -0.0912(2)
H4 H 0.0485 -0.0697 -0.1072
C5 C 0.0954(2) 0.0527(4) -0.0333(2)
H5 H 0.1387 0.0046 -0.0100
C6 C -0.2466(2) 0.0764(4) -0.3343(2)
H6 H -0.2884 0.0315 -0.3629
C7 C -0.1924(3) 0.0203(4) -0.2804(2)
H7 H -0.1975 -0.0610 -0.2727
C8 C -0.1304(2) 0.0837(4) -0.2374(2)
C9 C -0.1246(3) 0.2011(4) -0.2533(2)
H8 H -0.0816 0.2472 -0.2276
C10 C -0.1822(3) 0.2495(4) -0.3071(2)
H9 H -0.1787 0.3309 -0.3158
C11 C 0.0317(2) 0.6448(4) -0.1286(2)
C12 C 0.0879(2) 0.6653(4) -0.1680(2)
H10 H 0.0816 0.7215 -0.2055
C13 C 0.1562(2) 0.5943(4) -0.1472(2)
H11 H 0.2010 0.5968 -0.1692
C14 C 0.1506(2) 0.5211(4) -0.0916(2)
C15 C 0.2083(2) 0.4292(4) -0.0573(2)
C16 C -0.0479(2) 0.7017(4) -0.1335(2)
Cu1F Cu 0.32734(3) 0.26690(4) -0.07368(2)
Cu1D Cu -0.17266(3) 0.76690(4) -0.07368(2)
Cu1G Cu -0.32734(3) 0.26690(4) -0.42632(2)
O2F O 0.23294(15) 0.0875(2) 0.08783(14)
O4D O 0.08997(16) 0.3419(3) 0.09266(15)
N3G N 0.25699(19) 0.3098(3) 0.15178(17)
loop_
_geom_bond_atom_site_label_1
_geom_bond_atom_site_label_2
_geom_bond_site_symmetry_1
_geom_bond_site_symmetry_2
Cu1 O1 1_555 1_555
S1 C11 1_555 1_555
O1 C15 1_555 1_555
O2 C15 1_555 1_555
O3 C16 1_555 1_555
O4 C16 1_555 1_555
N1 Cu1 1_555 1_555
N2 H1 1_555 1_555
N3 C6 1_555 1_555
C1 N1 1_555 1_555
H2 C1 1_555 1_555
C2 C1 1_555 1_555
H3 C2 1_555 1_555
C3 N2 1_555 1_555
C4 C3 1_555 1_555
H4 C4 1_555 1_555
C5 N1 1_555 1_555
H5 C5 1_555 1_555
C6 H6 1_555 1_555
C7 C6 1_555 1_555
H7 C7 1_555 1_555
C8 N2 1_555 1_555
C9 C8 1_555 1_555
H8 C9 1_555 1_555
C10 N3 1_555 1_555
H9 C10 1_555 1_555
C11 C12 1_555 1_555
C12 H10 1_555 1_555
C13 C12 1_555 1_555
H11 C13 1_555 1_555
C14 S1 1_555 1_555
C15 C14 1_555 1_555
C16 C11 1_555 1_555
Cu1F O2 1_555 1_555
Cu1D O4 1_555 1_555
Cu1G N3 1_555 1_555
O2F Cu1 1_555 1_555
O4D Cu1 1_555 1_555
N3G Cu1 1_555 1_555
C2 C3 1_555 1_555
C4 C5 1_555 1_555
C7 C8 1_555 1_555
C9 C10 1_555 1_555
C13 C14 1_555 1_555

#END
