
#######################################################################
#
#                 Cambridge Crystallographic Data Centre
#                                CCDC 
#
#######################################################################
#
# If this CIF has been generated from an entry in the Cambridge 
# Structural Database, then it will include bibliographic, chemical, 
# crystal, experimental, refinement or atomic coordinate data resulting 
# from the CCDC's data processing and validation procedures.
#
#######################################################################

data_XULTAZ
_symmetry_cell_setting           triclinic
_symmetry_space_group_name_H-M   'P -1'
_symmetry_Int_Tables_number      2
_space_group_name_Hall           '-P 1'
loop_
_symmetry_equiv_pos_site_id
_symmetry_equiv_pos_as_xyz
1 x,y,z
2 -x,-y,-z
_cell_length_a                   10.082(4)
_cell_length_b                   11.950(5)
_cell_length_c                   17.504(8)
_cell_angle_alpha                105.06(5)
_cell_angle_beta                 97.98(5)
_cell_angle_gamma                106.18(5)
_cell_volume                     1904.38
loop_
_atom_site_label
_atom_site_type_symbol
_atom_site_fract_x
_atom_site_fract_y
_atom_site_fract_z
W1 W 0.56007(5) 0.19382(5) 0.75803(3)
Yb1 Yb 0.11036(5) 0.29140(5) 0.79176(3)
P1 P 0.4795(3) 0.3573(3) 0.7118(2)
P2 P 0.3065(3) 0.0404(3) 0.7316(2)
C1 C 0.3724(13) 0.4635(12) 0.8454(8)
H1 H 0.4360 0.4527 0.8844
O1 O 0.6176(11) 0.0856(12) 0.5829(6)
O2 O 0.1213(10) 0.2836(10) 0.9304(5)
C2 C 0.2453(14) 0.4563(13) 0.7245(9)
H2 H 0.2104 0.4399 0.6693
C3 C 0.7661(10) 0.2881(11) 0.7838(7)
C4 C 0.6195(13) 0.0690(12) 0.7986(8)
C5 C 0.5872(14) 0.1226(13) 0.6440(8)
C6 C 0.0270(12) 0.0428(12) 0.7530(8)
H3 H 0.0245 0.0105 0.7959
C7 C 0.3550(13) 0.4182(12) 0.7591(8)
C8 C 0.6305(12) 0.4967(13) 0.7291(8)
O3 O 0.8846(9) 0.3332(9) 0.8001(6)
O4 O 0.5719(12) 0.3223(10) 0.9431(6)
O5 O 0.6591(10) -0.0013(10) 0.8219(7)
C9 C 0.3010(13) -0.0126(13) 0.8219(9)
C10 C 0.3555(13) 0.2024(13) 0.5498(8)
H4 H 0.3606 0.1390 0.5704
C11 C -0.0384(13) 0.1186(13) 0.6511(8)
H5 H -0.0912 0.1461 0.6167
C12 C 0.2627(14) -0.1020(13) 0.6480(8)
C13 C 0.1489(14) 0.0794(14) 0.7174(8)
C14 C 0.3955(14) 0.4178(13) 0.5702(8)
H6 H 0.4270 0.4986 0.6041
C15 C 0.4058(12) 0.3213(13) 0.6019(8)
C16 C 0.1015(13) 0.1225(13) 0.6535(7)
H7 H 0.1556 0.1490 0.6187
C17 C -0.0861(13) 0.0660(13) 0.7097(8)
H8 H -0.1775 0.0492 0.7185
C18 C 0.5593(14) 0.2734(12) 0.8757(8)
C19 C 0.3645(14) -0.1549(13) 0.6240(9)
H9 H 0.4597 -0.1144 0.6496
C20 C 0.2753(14) 0.5276(13) 0.8606(8)
H10 H 0.2645 0.5669 0.9115
C21 C 0.7460(14) 0.4853(13) 0.6934(8)
H11 H 0.7429 0.4088 0.6612
C22 C 0.6356(15) 0.6121(13) 0.7733(8)
H12 H 0.5595 0.6221 0.7956
C23 C 0.8700(16) 0.7030(16) 0.7534(10)
H13 H 0.9503 0.7708 0.7634
C24 C 0.2984(14) 0.1748(15) 0.4686(8)
H14 H 0.2673 0.0940 0.4346
C25 C 0.2176(16) 0.3637(15) 1.0046(9)
H15 H 0.2872 0.4303 0.9952
H16 H 0.2666 0.3196 1.0309
C26 C 0.1993(14) 0.5221(14) 0.7871(9)
H17 H 0.1284 0.5569 0.7805
C27 C 0.8633(15) 0.5874(16) 0.7061(9)
H18 H 0.9386 0.5785 0.6827
C28 C 0.7553(17) 0.7149(16) 0.7851(10)
H19 H 0.7569 0.7922 0.8147
C29 C 0.1255(18) 0.4102(17) 1.0540(9)
H20 H 0.1126 0.4827 1.0433
H21 H 0.1659 0.4308 1.1114
C30 C 0.1194(15) -0.1660(15) 0.6052(9)
H22 H 0.0492 -0.1334 0.6192
C31 C 0.0822(17) -0.2753(16) 0.5434(10)
H23 H -0.0119 -0.3154 0.5155
C32 C -0.0017(16) 0.2169(16) 0.9515(9)
H24 H 0.0094 0.1439 0.9620
H25 H -0.0856 0.1931 0.9084
C33 C 0.1891(17) -0.3264(17) 0.5227(10)
H26 H 0.1651 -0.4008 0.4816
C34 C 0.3177(17) -0.1235(15) 0.8228(10)
H27 H 0.3223 -0.1778 0.7752
C35 C 0.3256(17) -0.2662(15) 0.5630(11)
H28 H 0.3950 -0.3001 0.5495
C36 C 0.3008(17) 0.0375(17) 0.9664(9)
H29 H 0.2912 0.0896 1.0135
C37 C 0.3218(18) -0.0728(17) 0.9664(11)
H30 H 0.3320 -0.0917 1.0147
C38 C 0.3278(18) -0.1551(15) 0.8956(11)
H31 H 0.3384 -0.2299 0.8960
C39 C -0.012(2) 0.3078(19) 1.0285(11)
H32 H -0.0903 0.3373 1.0173
H33 H -0.0247 0.2694 1.0707
C40 C 0.2942(15) 0.0689(14) 0.8950(9)
H34 H 0.2852 0.1444 0.8953
C41 C 0.3375(15) 0.3890(15) 0.4873(9)
H35 H 0.3325 0.4513 0.4655
C42 C 0.2874(14) 0.2682(15) 0.4379(9)
H36 H 0.2458 0.2495 0.3833
O3_2 O -0.1154(9) 0.3332(9) 0.8001(6)
Yb1_2 Yb 1.11036(5) 0.29140(5) 0.79176(3)
loop_
_geom_bond_atom_site_label_1
_geom_bond_atom_site_label_2
_geom_bond_site_symmetry_1
_geom_bond_site_symmetry_2
W1 P1 1_555 1_555
Yb1 C1 1_555 1_555
P1 C7 1_555 1_555
P2 W1 1_555 1_555
C1 H1 1_555 1_555
O1 C5 1_555 1_555
O2 Yb1 1_555 1_555
C2 Yb1 1_555 1_555
H2 C2 1_555 1_555
C3 W1 1_555 1_555
C4 W1 1_555 1_555
C5 W1 1_555 1_555
C6 Yb1 1_555 1_555
H3 C6 1_555 1_555
C7 Yb1 1_555 1_555
C8 P1 1_555 1_555
O3 C3 1_555 1_555
O4 C18 1_555 1_555
O5 C4 1_555 1_555
C9 P2 1_555 1_555
C10 H4 1_555 1_555
C11 Yb1 1_555 1_555
H5 C11 1_555 1_555
C12 P2 1_555 1_555
C13 Yb1 1_555 1_555
C14 H6 1_555 1_555
C15 P1 1_555 1_555
C16 Yb1 1_555 1_555
H7 C16 1_555 1_555
C17 Yb1 1_555 1_555
H8 C17 1_555 1_555
C18 W1 1_555 1_555
C19 C12 1_555 1_555
H9 C19 1_555 1_555
C20 Yb1 1_555 1_555
H10 C20 1_555 1_555
C21 C8 1_555 1_555
H11 C21 1_555 1_555
C22 C8 1_555 1_555
H12 C22 1_555 1_555
C23 H13 1_555 1_555
C24 C10 1_555 1_555
H14 C24 1_555 1_555
C25 O2 1_555 1_555
H15 C25 1_555 1_555
H16 C25 1_555 1_555
C26 Yb1 1_555 1_555
H17 C26 1_555 1_555
C27 C21 1_555 1_555
H18 C27 1_555 1_555
C28 C22 1_555 1_555
H19 C28 1_555 1_555
C29 C25 1_555 1_555
H20 C29 1_555 1_555
H21 C29 1_555 1_555
C30 C12 1_555 1_555
H22 C30 1_555 1_555
C31 C30 1_555 1_555
H23 C31 1_555 1_555
C32 O2 1_555 1_555
H24 C32 1_555 1_555
H25 C32 1_555 1_555
C33 C31 1_555 1_555
H26 C33 1_555 1_555
C34 C9 1_555 1_555
H27 C34 1_555 1_555
C35 C19 1_555 1_555
H28 C35 1_555 1_555
C36 H29 1_555 1_555
C37 C36 1_555 1_555
H30 C37 1_555 1_555
C38 C34 1_555 1_555
H31 C38 1_555 1_555
C39 C29 1_555 1_555
H32 C39 1_555 1_555
H33 C39 1_555 1_555
C40 C9 1_555 1_555
H34 C40 1_555 1_555
C41 C14 1_555 1_555
H35 C41 1_555 1_555
C42 C24 1_555 1_555
H36 C42 1_555 1_555
O3_2 Yb1 1_555 1_555
Yb1_2 O3 1_555 1_555
P2 C13 1_555 1_555
C1 C7 1_555 1_555
C1 C20 1_555 1_555
C2 C26 1_555 1_555
C2 C7 1_555 1_555
C6 C13 1_555 1_555
C6 C17 1_555 1_555
C10 C15 1_555 1_555
C11 C17 1_555 1_555
C11 C16 1_555 1_555
C13 C16 1_555 1_555
C14 C15 1_555 1_555
C20 C26 1_555 1_555
C23 C27 1_555 1_555
C23 C28 1_555 1_555
C32 C39 1_555 1_555
C33 C35 1_555 1_555
C36 C40 1_555 1_555
C37 C38 1_555 1_555
C41 C42 1_555 1_555

#END
