
#######################################################################
#
#                 Cambridge Crystallographic Data Centre
#                                CCDC 
#
#######################################################################
#
# If this CIF has been generated from an entry in the Cambridge 
# Structural Database, then it will include bibliographic, chemical, 
# crystal, experimental, refinement or atomic coordinate data resulting 
# from the CCDC's data processing and validation procedures.
#
#######################################################################

data_XUMBIR
_symmetry_cell_setting           monoclinic
_symmetry_space_group_name_H-M   'P 21/c'
_symmetry_Int_Tables_number      14
_space_group_name_Hall           '-P 2ybc'
loop_
_symmetry_equiv_pos_site_id
_symmetry_equiv_pos_as_xyz
1 x,y,z
2 -x,1/2+y,1/2-z
3 -x,-y,-z
4 x,1/2-y,1/2+z
_cell_length_a                   6.8518(14)
_cell_length_b                   8.3708(17)
_cell_length_c                   15.245(4)
_cell_angle_alpha                90
_cell_angle_beta                 112.34(3)
_cell_angle_gamma                90
_cell_volume                     808.751
loop_
_atom_site_label
_atom_site_type_symbol
_atom_site_fract_x
_atom_site_fract_y
_atom_site_fract_z
O1 O 0.297(4) 0.406(3) 0.1014(12)
O2 O 0.242(4) 0.515(2) -0.0447(16)
O3 O 0.188(4) 0.897(3) -0.0557(18)
H1 H 0.0423 0.9103 -0.0842
H2 H 0.2756 0.9500 -0.0801
O4 O 0.396(4) 0.260(3) -0.011(2)
O5 O 0.791(3) 0.457(3) 0.3455(17)
O6 O 0.406(4) 0.450(3) 0.3495(16)
O7 O 0.039(3) 0.287(2) -0.041(2)
Cl1 Cl 0.2445(12) 0.3651(9) 0.0034(5)
O8 O 0.682(3) 0.628(3) 0.2232(15)
O9 O 0.304(4) 0.646(3) 0.2386(16)
Pr1 Pr 0.3430(3) 0.7203(2) 0.08671(12)
C1 C 0.649(5) 0.545(4) 0.287(2)
C2 C 0.433(5) 0.550(4) 0.291(2)
O4B O 0.604(4) 0.740(3) 0.011(2)
O5A O 0.209(3) 0.957(3) 0.1545(17)
O6A O 0.594(4) 0.950(3) 0.1505(16)
O7B O -0.039(3) 0.713(2) 0.041(2)
Pr1B Pr 0.6570(3) 0.2797(2) -0.08671(12)
Pr1A Pr 0.6570(3) 0.2203(2) 0.41329(12)
Pr1B_2 Pr -0.3430(3) 0.2797(2) -0.08671(12)
Cl2 Cl 0.0132(13) 0.8528(10) 0.2859(6)
loop_
_geom_bond_atom_site_label_1
_geom_bond_atom_site_label_2
_geom_bond_site_symmetry_1
_geom_bond_site_symmetry_2
O1 Cl1 1_555 1_555
O2 Cl1 1_555 1_555
O3 H1 1_555 1_555
H2 O3 1_555 1_555
O4 Cl1 1_555 1_555
O5 C1 1_555 1_555
O6 C2 1_555 1_555
O7 Cl1 1_555 1_555
O8 Pr1 1_555 1_555
O9 Pr1 1_555 1_555
Pr1 O1 1_555 1_555
C1 O8 1_555 1_555
C2 O9 1_555 1_555
O4B Pr1 1_555 1_555
O5A Pr1 1_555 1_555
O6A Pr1 1_555 1_555
O7B Pr1 1_555 1_555
Pr1B O4 1_555 1_555
Pr1A O5 1_555 1_555
Pr1B_2 O7 1_555 1_555
O2 Pr1 1_555 1_555
O3 Pr1 1_555 1_555
O6 Pr1A 1_555 1_555
C1 C2 1_555 1_555

#END
