
#######################################################################
#
#                 Cambridge Crystallographic Data Centre
#                                CCDC 
#
#######################################################################
#
# If this CIF has been generated from an entry in the Cambridge 
# Structural Database, then it will include bibliographic, chemical, 
# crystal, experimental, refinement or atomic coordinate data resulting 
# from the CCDC's data processing and validation procedures.
#
#######################################################################

data_XUMCOZ
_symmetry_cell_setting           monoclinic
_symmetry_space_group_name_H-M   'P 21/c'
_symmetry_Int_Tables_number      14
_space_group_name_Hall           '-P 2ybc'
loop_
_symmetry_equiv_pos_site_id
_symmetry_equiv_pos_as_xyz
1 x,y,z
2 -x,1/2+y,1/2-z
3 -x,-y,-z
4 x,1/2-y,1/2+z
_cell_length_a                   9.0526(3)
_cell_length_b                   15.5395(4)
_cell_length_c                   15.7049(6)
_cell_angle_alpha                90
_cell_angle_beta                 113.496(3)
_cell_angle_gamma                90
_cell_volume                     2026.08
loop_
_atom_site_label
_atom_site_type_symbol
_atom_site_fract_x
_atom_site_fract_y
_atom_site_fract_z
Cd1 Cd 1.09131(5) 0.72559(3) 0.46867(3)
Cd2 Cd 1.0000 0.5000 0.5000
Cl1 Cl 1.07458(17) 0.58897(10) 0.37945(9)
Cl2 Cl 0.95999(17) 0.64936(9) 0.56707(9)
Cl3 Cl 1.36522(19) 0.75010(12) 0.58137(12)
O1 O 1.0574(5) 0.7947(3) 0.3267(3)
H1 H 1.1094 0.7984 0.2958
N1 N 0.9381(5) 0.8435(3) 0.4478(3)
N2 N 0.8158(5) 0.9605(3) 0.3696(3)
N3 N 0.2679(5) 1.0017(3) 0.1020(3)
C1 C 0.8786(6) 0.8910(3) 0.5034(3)
C2 C 0.8859(6) 0.8756(4) 0.5919(4)
H2 H 0.9386 0.8275 0.6257
C3 C 0.8121(7) 0.9342(4) 0.6283(4)
H3 H 0.8143 0.9249 0.6873
C4 C 0.7339(7) 1.0077(4) 0.5785(4)
H4 H 0.6860 1.0460 0.6053
C5 C 0.7267(6) 1.0240(4) 0.4906(4)
H5 H 0.6748 1.0724 0.4573
C6 C 0.8012(6) 0.9644(4) 0.4541(3)
C7 C 0.8976(6) 0.8875(4) 0.3700(3)
C8 C 0.9278(6) 0.8534(4) 0.2890(4)
H6 H 0.9573 0.9005 0.2573
C9 C 0.7765(7) 0.8085(5) 0.2222(4)
H7 H 0.7479 0.7631 0.2541
H8 H 0.7964 0.7849 0.1712
H9 H 0.6899 0.8493 0.1990
C10 C 0.7589(6) 1.0263(4) 0.2968(4)
H10 H 0.8279 1.0259 0.2628
H11 H 0.7691 1.0823 0.3258
C11 C 0.5861(6) 1.0141(4) 0.2287(4)
C12 C 0.4730(6) 0.9714(4) 0.2512(4)
H12 H 0.5018 0.9458 0.3091
C13 C 0.3150(6) 0.9672(4) 0.1857(4)
H13 H 0.2389 0.9390 0.2015
C14 C 0.3791(7) 1.0407(5) 0.0796(4)
H14 H 0.3479 1.0636 0.0203
C15 C 0.5382(7) 1.0487(5) 0.1406(4)
H15 H 0.6120 1.0769 0.1227
Cd1B Cd 0.90869(5) 0.27441(3) 0.53133(3)
Cl1B Cl 0.92542(17) 0.41103(10) 0.62055(9)
Cl2B Cl 1.04001(17) 0.35064(9) 0.43293(9)
Cl3B Cl 0.63478(19) 0.24990(12) 0.41863(12)
O1B O 0.9426(5) 0.2053(3) 0.6733(3)
H1B H 0.8906 0.2016 0.7042
N1B N 1.0619(5) 0.1565(3) 0.5522(3)
N2B N 1.1842(5) 0.0395(3) 0.6304(3)
N3B N 1.7321(5) -0.0017(3) 0.8980(3)
C1B C 1.1214(6) 0.1090(3) 0.4966(3)
C2B C 1.1141(6) 0.1244(4) 0.4081(4)
H2B H 1.0614 0.1725 0.3743
C3B C 1.1879(7) 0.0658(4) 0.3717(4)
H3B H 1.1857 0.0751 0.3127
C4B C 1.2661(7) -0.0077(4) 0.4215(4)
H4B H 1.3140 -0.0460 0.3947
C5B C 1.2733(6) -0.0240(4) 0.5094(4)
H5B H 1.3252 -0.0724 0.5427
C6B C 1.1988(6) 0.0356(4) 0.5459(3)
C7B C 1.1024(6) 0.1125(4) 0.6300(3)
C8B C 1.0722(6) 0.1466(4) 0.7110(4)
H6B H 1.0427 0.0995 0.7427
C9B C 1.2235(7) 0.1915(5) 0.7778(4)
H7B H 1.2521 0.2369 0.7459
H8B H 1.2036 0.2151 0.8288
H9B H 1.3101 0.1507 0.8010
C10B C 1.2411(6) -0.0263(4) 0.7032(4)
H10B H 1.1721 -0.0259 0.7372
H11B H 1.2309 -0.0823 0.6742
C11B C 1.4139(6) -0.0141(4) 0.7713(4)
C12B C 1.5270(6) 0.0286(4) 0.7488(4)
H12B H 1.4982 0.0542 0.6909
C13B C 1.6850(6) 0.0328(4) 0.8143(4)
H13B H 1.7611 0.0610 0.7985
C14B C 1.6209(7) -0.0407(5) 0.9204(4)
H14B H 1.6521 -0.0636 0.9797
C15B C 1.4618(7) -0.0487(5) 0.8594(4)
H15B H 1.3880 -0.0769 0.8773
Cd2A Cd 0.0000 1.0000 0.0000
Cd2A_2 Cd 2.0000 0.0000 1.0000
N3A N 0.7321(5) 0.5017(3) 0.3980(3)
N3C N 1.2679(5) 0.4983(3) 0.6020(3)
O2 O 0.2792(6) 0.7598(5) 0.2639(4)
H16 H 0.3232 0.8011 0.3018
H17 H 0.3428 0.7547 0.2358
O3 O 0.5345(8) 0.7733(6) 0.4323(5)
H18 H 0.4905 0.7680 0.4715
H19 H 0.6274 0.7949 0.4659
loop_
_geom_bond_atom_site_label_1
_geom_bond_atom_site_label_2
_geom_bond_site_symmetry_1
_geom_bond_site_symmetry_2
Cd1 Cl1 1_555 1_555
Cd2 Cl1 1_555 1_555
Cl2 Cd1 1_555 1_555
Cl3 Cd1 1_555 1_555
O1 Cd1 1_555 1_555
H1 O1 1_555 1_555
N1 Cd1 1_555 1_555
N2 C6 1_555 1_555
N3 C13 1_555 1_555
C1 N1 1_555 1_555
C2 C1 1_555 1_555
H2 C2 1_555 1_555
C3 C2 1_555 1_555
H3 C3 1_555 1_555
C4 C3 1_555 1_555
H4 C4 1_555 1_555
C5 C4 1_555 1_555
H5 C5 1_555 1_555
C6 C1 1_555 1_555
C7 N1 1_555 1_555
C8 O1 1_555 1_555
H6 C8 1_555 1_555
C9 C8 1_555 1_555
H7 C9 1_555 1_555
H8 C9 1_555 1_555
H9 C9 1_555 1_555
C10 N2 1_555 1_555
H10 C10 1_555 1_555
H11 C10 1_555 1_555
C11 C10 1_555 1_555
C12 C11 1_555 1_555
H12 C12 1_555 1_555
C13 C12 1_555 1_555
H13 C13 1_555 1_555
C14 N3 1_555 1_555
H14 C14 1_555 1_555
C15 C11 1_555 1_555
H15 C15 1_555 1_555
O2 H16 1_555 1_555
H17 O2 1_555 1_555
O3 H18 1_555 1_555
H19 O3 1_555 1_555
Cd1B Cl1B 1_555 1_555
Cl1B Cd2 1_555 1_555
Cl2B Cd2 1_555 1_555
Cl3B Cd1B 1_555 1_555
O1B Cd1B 1_555 1_555
H1B O1B 1_555 1_555
N1B Cd1B 1_555 1_555
N2B C6B 1_555 1_555
N3B C13B 1_555 1_555
C1B N1B 1_555 1_555
C2B C1B 1_555 1_555
H2B C2B 1_555 1_555
C3B C2B 1_555 1_555
H3B C3B 1_555 1_555
C4B C3B 1_555 1_555
H4B C4B 1_555 1_555
C5B C4B 1_555 1_555
H5B C5B 1_555 1_555
C6B C1B 1_555 1_555
C7B N1B 1_555 1_555
C8B O1B 1_555 1_555
H6B C8B 1_555 1_555
C9B C8B 1_555 1_555
H7B C9B 1_555 1_555
H8B C9B 1_555 1_555
H9B C9B 1_555 1_555
C10B N2B 1_555 1_555
H10B C10B 1_555 1_555
H11B C10B 1_555 1_555
C11B C10B 1_555 1_555
C12B C11B 1_555 1_555
H12B C12B 1_555 1_555
C13B C12B 1_555 1_555
H13B C13B 1_555 1_555
C14B N3B 1_555 1_555
H14B C14B 1_555 1_555
C15B C11B 1_555 1_555
H15B C15B 1_555 1_555
Cd2A N3 1_555 1_555
Cd2A_2 N3B 1_555 1_555
N3A Cd2 1_555 1_555
N3C Cd2 1_555 1_555
Cd2 Cl2 1_555 1_555
N2 C7 1_555 1_555
C5 C6 1_555 1_555
C7 C8 1_555 1_555
C14 C15 1_555 1_555
Cd1B Cl2B 1_555 1_555
N2B C7B 1_555 1_555
C5B C6B 1_555 1_555
C7B C8B 1_555 1_555
C14B C15B 1_555 1_555

#END
