
#######################################################################
#
#                 Cambridge Crystallographic Data Centre
#                                CCDC 
#
#######################################################################
#
# If this CIF has been generated from an entry in the Cambridge 
# Structural Database, then it will include bibliographic, chemical, 
# crystal, experimental, refinement or atomic coordinate data resulting 
# from the CCDC's data processing and validation procedures.
#
#######################################################################

data_XUMDEQ
_symmetry_cell_setting           monoclinic
_symmetry_space_group_name_H-M   'P 21/n'
_symmetry_Int_Tables_number      14
_space_group_name_Hall           '-P 2yn'
loop_
_symmetry_equiv_pos_site_id
_symmetry_equiv_pos_as_xyz
1 x,y,z
2 1/2-x,1/2+y,1/2-z
3 -x,-y,-z
4 1/2+x,1/2-y,1/2+z
_cell_length_a                   12.8847(5)
_cell_length_b                   14.6317(6)
_cell_length_c                   32.5124(11)
_cell_angle_alpha                90
_cell_angle_beta                 92.795(3)
_cell_angle_gamma                90
_cell_volume                     6122.11
loop_
_atom_site_label
_atom_site_type_symbol
_atom_site_fract_x
_atom_site_fract_y
_atom_site_fract_z
Zn1 Zn 0.09049(4) 0.00748(4) 0.778151(17)
Zn2 Zn -0.12650(4) 0.01941(5) 0.805644(17)
O1 O 0.2386(3) 0.0062(2) 0.76544(13)
H1 H 0.2708 -0.0366 0.7791
H2 H 0.2447 -0.0032 0.7395
O2 O -0.2752(2) 0.0250(3) 0.81447(11)
H3 H -0.3057 -0.0237 0.8049
H4 H -0.2861 0.0292 0.8404
O3 O -0.0616(3) 0.1085(3) 0.84772(10)
O4 O 0.0983(3) 0.1054(2) 0.82293(9)
C1 C 0.1816(3) 0.1978(3) 0.88984(13)
H5 H 0.2256 0.1722 0.8711
C2 C 0.0328(3) 0.1300(3) 0.84781(13)
C3 C 0.1568(4) 0.2860(5) 0.95103(15)
H6 H 0.1837 0.3195 0.9734
C4 C 0.0744(4) 0.1873(4) 0.88350(14)
C5 C 0.0083(4) 0.2299(4) 0.91069(15)
H7 H -0.0633 0.2270 0.9058
C6 C 0.2239(3) 0.2456(4) 0.92353(14)
C7 C 0.3398(3) 0.2517(3) 0.93076(14)
C8 C 0.0493(4) 0.2758(5) 0.94458(15)
H8 H 0.0050 0.3003 0.9635
C9 C 0.5105(4) 0.2619(3) 0.90320(14)
C10 C 0.5549(3) 0.2641(3) 0.94355(13)
H9 H 0.6266 0.2697 0.9477
C11 C 0.3833(4) 0.2514(3) 0.97073(13)
H10 H 0.3404 0.2470 0.9928
C12 C 0.4920(3) 0.2577(3) 0.97815(13)
C13 C 0.4032(4) 0.2568(3) 0.89736(14)
H11 H 0.3732 0.2567 0.8707
C14 C 0.4755(3) 0.2547(3) 1.05434(12)
H12 H 0.4037 0.2564 1.0498
C15 C 0.5409(3) 0.2544(3) 1.02052(13)
C16 C 0.5200(4) 0.2523(3) 1.09488(14)
C17 C 0.6475(3) 0.2530(3) 1.02794(13)
H13 H 0.6907 0.2554 1.0059
C18 C 0.4503(4) 0.2543(3) 1.13023(14)
C19 C 0.4801(3) 0.3021(3) 1.16577(14)
H14 H 0.5449 0.3302 1.1680
C20 C 0.6266(3) 0.2497(3) 1.10084(13)
H15 H 0.6559 0.2492 1.1276
C21 C 0.3544(4) 0.2083(4) 1.12832(14)
H16 H 0.3341 0.1745 1.1051
C22 C 0.5408(4) 0.3233(4) 0.83363(15)
H17 H 0.4728 0.3448 0.8324
C23 C 0.5774(3) 0.2745(4) 0.86794(14)
C24 C 0.6053(4) 0.3407(4) 0.80057(13)
C25 C 0.4134(3) 0.3082(4) 1.19820(12)
C26 C 0.3174(3) 0.2634(4) 1.19600(14)
H18 H 0.2729 0.2673 1.2176
C27 C 0.2899(4) 0.2134(4) 1.16130(15)
H19 H 0.2268 0.1824 1.1599
C28 C 0.8439(4) 0.1857(3) 1.10891(13)
H20 H 0.7971 0.1604 1.1266
C29 C 0.8052(4) 0.2376(4) 1.07622(14)
C30 C 0.6912(4) 0.2480(3) 1.06797(14)
C31 C 0.9476(4) 0.1698(4) 1.11658(14)
C32 C 0.5632(4) 0.3959(4) 0.76481(13)
C33 C 0.7427(4) 0.2582(5) 0.83554(16)
H21 H 0.8105 0.2363 0.8367
C34 C 0.6780(4) 0.2399(4) 0.86782(15)
H22 H 0.7027 0.2038 0.8897
C35 C 0.7070(4) 0.3078(5) 0.80247(15)
H23 H 0.7504 0.3197 0.7811
C36 C 1.0203(4) 0.2099(5) 1.09106(16)
H24 H 1.0913 0.2014 1.0960
C37 C 0.9810(4) 0.2634(6) 1.05770(18)
H25 H 1.0275 0.2908 1.0405
C38 C 0.8759(4) 0.2763(6) 1.04979(17)
H26 H 0.8521 0.3104 1.0271
O5 O 0.4670(3) 0.4139(2) 0.76220(10)
O6 O 0.6287(3) 0.4260(3) 0.73982(10)
C39 C 0.9830(3) 0.1071(4) 1.15139(14)
C40 C 0.4425(3) 0.3674(3) 1.23500(13)
O7 O 1.0763(2) 0.0818(3) 1.15310(10)
O8 O 0.5347(3) 0.3995(3) 1.23678(10)
O9 O 0.9139(2) 0.0848(3) 1.17522(10)
O10 O 0.3771(3) 0.3815(3) 1.26147(10)
Zn1A Zn 0.40951(4) 0.50748(4) 0.721849(17)
Zn1B Zn 0.90951(4) -0.00748(4) 1.221849(17)
Zn1C Zn 0.59049(4) 0.49252(4) 1.278151(17)
Zn2A Zn 0.62650(4) 0.51941(5) 0.694356(17)
Zn2B Zn 1.12650(4) -0.01941(5) 1.194356(17)
Zn2C Zn 0.37350(4) 0.48059(5) 1.305644(17)
O5A O 0.0330(3) -0.0861(2) 0.73780(10)
O6A O -0.1287(3) -0.0740(3) 0.76018(10)
O7B O -0.0763(2) -0.0818(3) 0.84690(10)
O8C O 0.0347(3) 0.1005(3) 0.73678(10)
O9B O 0.0861(2) -0.0848(3) 0.82478(10)
O10C O -0.1229(3) 0.1185(3) 0.76147(10)
loop_
_geom_bond_atom_site_label_1
_geom_bond_atom_site_label_2
_geom_bond_site_symmetry_1
_geom_bond_site_symmetry_2
Zn1 O1 1_555 1_555
Zn2 O2 1_555 1_555
O1 H1 1_555 1_555
H2 O1 1_555 1_555
O2 H3 1_555 1_555
H4 O2 1_555 1_555
O3 Zn2 1_555 1_555
O4 Zn1 1_555 1_555
C1 H5 1_555 1_555
C2 O3 1_555 1_555
C3 H6 1_555 1_555
C4 C1 1_555 1_555
C5 C4 1_555 1_555
H7 C5 1_555 1_555
C6 C1 1_555 1_555
C7 C6 1_555 1_555
C8 C3 1_555 1_555
H8 C8 1_555 1_555
C9 C10 1_555 1_555
C10 H9 1_555 1_555
C11 C7 1_555 1_555
H10 C11 1_555 1_555
C12 C10 1_555 1_555
C13 C7 1_555 1_555
H11 C13 1_555 1_555
C14 H12 1_555 1_555
C15 C12 1_555 1_555
C16 C14 1_555 1_555
C17 C15 1_555 1_555
H13 C17 1_555 1_555
C18 C16 1_555 1_555
C19 C18 1_555 1_555
H14 C19 1_555 1_555
C20 C16 1_555 1_555
H15 C20 1_555 1_555
C21 C18 1_555 1_555
H16 C21 1_555 1_555
C22 H17 1_555 1_555
C23 C9 1_555 1_555
C24 C22 1_555 1_555
C25 C19 1_555 1_555
C26 C25 1_555 1_555
H18 C26 1_555 1_555
C27 C21 1_555 1_555
H19 C27 1_555 1_555
C28 H20 1_555 1_555
C29 C28 1_555 1_555
C30 C17 1_555 1_555
C31 C28 1_555 1_555
C32 C24 1_555 1_555
C33 H21 1_555 1_555
C34 C23 1_555 1_555
H22 C34 1_555 1_555
C35 C24 1_555 1_555
H23 C35 1_555 1_555
C36 C31 1_555 1_555
H24 C36 1_555 1_555
C37 C36 1_555 1_555
H25 C37 1_555 1_555
C38 C29 1_555 1_555
H26 C38 1_555 1_555
O5 C32 1_555 1_555
O6 C32 1_555 1_555
C39 C31 1_555 1_555
C40 C25 1_555 1_555
O7 C39 1_555 1_555
O8 C40 1_555 1_555
O9 C39 1_555 1_555
O10 C40 1_555 1_555
Zn1A O5 1_555 1_555
Zn1B O9 1_555 1_555
Zn1C O8 1_555 1_555
Zn2A O6 1_555 1_555
Zn2B O7 1_555 1_555
Zn2C O10 1_555 1_555
O5A Zn1 1_555 1_555
O6A Zn2 1_555 1_555
O7B Zn2 1_555 1_555
O8C Zn1 1_555 1_555
O9B Zn1 1_555 1_555
O10C Zn2 1_555 1_555
O4 C2 1_555 1_555
C2 C4 1_555 1_555
C3 C6 1_555 1_555
C5 C8 1_555 1_555
C9 C13 1_555 1_555
C11 C12 1_555 1_555
C14 C15 1_555 1_555
C20 C30 1_555 1_555
C22 C23 1_555 1_555
C26 C27 1_555 1_555
C29 C30 1_555 1_555
C33 C34 1_555 1_555
C33 C35 1_555 1_555
C37 C38 1_555 1_555

#END
