
#######################################################################
#
#                 Cambridge Crystallographic Data Centre
#                                CCDC 
#
#######################################################################
#
# If this CIF has been generated from an entry in the Cambridge 
# Structural Database, then it will include bibliographic, chemical, 
# crystal, experimental, refinement or atomic coordinate data resulting 
# from the CCDC's data processing and validation procedures.
#
#######################################################################

data_XUMLIC
_symmetry_cell_setting           monoclinic
_symmetry_space_group_name_H-M   'P 21/c'
_symmetry_Int_Tables_number      14
_space_group_name_Hall           '-P 2ybc'
loop_
_symmetry_equiv_pos_site_id
_symmetry_equiv_pos_as_xyz
1 x,y,z
2 -x,1/2+y,1/2-z
3 -x,-y,-z
4 x,1/2-y,1/2+z
_cell_length_a                   10.2807(5)
_cell_length_b                   10.8171(4)
_cell_length_c                   17.7717(13)
_cell_angle_alpha                90
_cell_angle_beta                 122.852(5)
_cell_angle_gamma                90
_cell_volume                     1660.28
loop_
_atom_site_label
_atom_site_type_symbol
_atom_site_fract_x
_atom_site_fract_y
_atom_site_fract_z
Cd1 Cd 0.66624(3) 0.91585(3) 1.036365(16)
O1 O 0.4074(3) 0.9055(2) 0.94470(15)
O2 O 0.7328(3) 0.8108(3) 1.17844(18)
O3 O 0.9125(3) 0.8748(3) 1.16057(18)
O4 O 0.9721(4) 0.7793(4) 1.2817(2)
N1 N 0.6055(4) 0.7224(3) 0.97497(18)
N2 N 0.4277(4) 0.5890(3) 0.88020(18)
N3 N 0.2697(4) 0.4823(3) 0.56396(19)
N4 N 0.8731(4) 0.8207(3) 1.2082(2)
C1 C 0.5670(5) 0.5243(4) 0.9252(2)
C2 C 0.6048(5) 0.4036(4) 0.9199(3)
H1 H 0.5305 0.3471 0.8808
C3 C 0.7580(6) 0.3713(4) 0.9754(3)
H2 H 0.7881 0.2909 0.9733
C4 C 0.8693(5) 0.4553(5) 1.0346(3)
H3 H 0.9716 0.4295 1.0715
C5 C 0.8319(5) 0.5753(4) 1.0400(3)
H4 H 0.9066 0.6314 1.0793
C6 C 0.6779(5) 0.6094(4) 0.9843(2)
C7 C 0.4581(4) 0.7073(3) 0.9123(2)
C8 C 0.3385(4) 0.8096(4) 0.8830(2)
H5 H 0.2506 0.7779 0.8845
C9 C 0.2805(5) 0.8519(4) 0.7883(2)
H6 H 0.2096 0.9195 0.7725
H7 H 0.2286 0.7847 0.7474
H8 H 0.3666 0.8784 0.7852
C10 C 0.2824(4) 0.5366(4) 0.8077(2)
H9 H 0.1978 0.5902 0.7962
H10 H 0.2665 0.4568 0.8263
C11 C 0.2787(4) 0.5207(3) 0.7218(2)
C12 C 0.3786(4) 0.5815(4) 0.7060(2)
H11 H 0.4519 0.6361 0.7481
C13 C 0.1738(5) 0.4408(4) 0.6574(2)
H12 H 0.1034 0.3986 0.6655
C14 C 0.3685(5) 0.5601(4) 0.6262(3)
H13 H 0.4356 0.6031 0.6158
C15 C 0.1738(4) 0.4236(4) 0.5807(2)
H14 H 0.1031 0.3680 0.5381
Cd1A Cd 0.33376(3) 0.41585(3) 0.463635(16)
Cd1B Cd 0.33376(3) 1.08415(3) 0.963635(16)
O1B O 0.5926(3) 1.0945(2) 1.05530(15)
N3A N 0.7303(4) 0.9823(3) 0.93604(19)
loop_
_geom_bond_atom_site_label_1
_geom_bond_atom_site_label_2
_geom_bond_site_symmetry_1
_geom_bond_site_symmetry_2
Cd1 O1 1_555 1_555
O1 C8 1_555 1_555
O2 Cd1 1_555 1_555
O3 Cd1 1_555 1_555
O4 N4 1_555 1_555
N1 Cd1 1_555 1_555
N2 C1 1_555 1_555
N3 C14 1_555 1_555
N4 O2 1_555 1_555
C1 C2 1_555 1_555
C2 H1 1_555 1_555
C3 C2 1_555 1_555
H2 C3 1_555 1_555
C4 C3 1_555 1_555
H3 C4 1_555 1_555
C5 C4 1_555 1_555
H4 C5 1_555 1_555
C6 N1 1_555 1_555
C7 N1 1_555 1_555
C8 C7 1_555 1_555
H5 C8 1_555 1_555
C9 C8 1_555 1_555
H6 C9 1_555 1_555
H7 C9 1_555 1_555
H8 C9 1_555 1_555
C10 N2 1_555 1_555
H9 C10 1_555 1_555
H10 C10 1_555 1_555
C11 C10 1_555 1_555
C12 C11 1_555 1_555
H11 C12 1_555 1_555
C13 C11 1_555 1_555
H12 C13 1_555 1_555
C14 C12 1_555 1_555
H13 C14 1_555 1_555
C15 N3 1_555 1_555
H14 C15 1_555 1_555
Cd1A N3 1_555 1_555
Cd1B O1 1_555 1_555
O1B Cd1 1_555 1_555
N3A Cd1 1_555 1_555
O3 N4 1_555 1_555
N2 C7 1_555 1_555
C1 C6 1_555 1_555
C5 C6 1_555 1_555
C13 C15 1_555 1_555
Cd1B O1B 1_555 1_555

#END
