
#######################################################################
#
#                 Cambridge Crystallographic Data Centre
#                                CCDC 
#
#######################################################################
#
# If this CIF has been generated from an entry in the Cambridge 
# Structural Database, then it will include bibliographic, chemical, 
# crystal, experimental, refinement or atomic coordinate data resulting 
# from the CCDC's data processing and validation procedures.
#
#######################################################################

data_XUMMEZ
_symmetry_cell_setting           tetragonal
_symmetry_space_group_name_H-M   'P 4/n'
_symmetry_Int_Tables_number      85
_space_group_name_Hall           '-P 4a'
loop_
_symmetry_equiv_pos_site_id
_symmetry_equiv_pos_as_xyz
1 x,y,z
2 1/2-x,1/2-y,z
3 1/2-y,x,z
4 y,1/2-x,z
5 -x,-y,-z
6 1/2+x,1/2+y,-z
7 1/2+y,-x,-z
8 -y,1/2+x,-z
_cell_length_a                   20.2967(10)
_cell_length_b                   20.2967(10)
_cell_length_c                   5.4228(6)
_cell_angle_alpha                90
_cell_angle_beta                 90
_cell_angle_gamma                90
_cell_volume                     2233.96
loop_
_atom_site_label
_atom_site_type_symbol
_atom_site_fract_x
_atom_site_fract_y
_atom_site_fract_z
O2 O 0.8234(3) 0.0937(3) 0.1155(12)
Cl2 Cl 0.6846(5) 0.0650(5) 0.073(2)
Cu1 Cu 0.7500 0.7500 0.6381(2)
Cl1 Cl 0.7500 0.7500 0.1518(5)
O1 O 0.9366(2) 0.8688(2) 1.1003(8)
N1 N 0.7758(2) 0.8471(2) 0.6454(9)
C1 C 0.8346(3) 0.9356(3) 0.8298(11)
C2 C 0.8075(3) 0.9792(3) 0.6632(12)
H1 H 0.8180 1.0238 0.6696
C3 C 0.8177(3) 0.8695(3) 0.8157(10)
H2 H 0.8361 0.8400 0.9277
C4 C 0.7498(3) 0.8891(3) 0.4819(11)
H3 H 0.7213 0.8732 0.3618
C5 C 0.7645(3) 0.9558(3) 0.4872(12)
H4 H 0.7455 0.9843 0.3734
C6 C 0.9247(3) 0.9274(3) 1.1395(11)
N2 N 0.8766(2) 0.9606(2) 1.0180(10)
H5 H 0.8710 1.0012 1.0590
C7 C 0.9702(3) 1.0346(3) 1.3081(12)
H6 H 0.9501 1.0580 1.1812
C8 C 0.9630(3) 0.9662(3) 1.3224(11)
C9 C 0.9927(3) 0.9325(3) 1.5158(12)
H7 H 0.9875 0.8871 1.5275
O1D O 1.0634(2) 1.1312(2) 1.8997(8)
N1D N 1.2242(2) 1.1529(2) 2.3546(9)
C1D C 1.1654(3) 1.0644(3) 2.1702(11)
C2D C 1.1925(3) 1.0208(3) 2.3368(12)
H1D H 1.1820 0.9762 2.3304
C3D C 1.1823(3) 1.1305(3) 2.1843(10)
H2D H 1.1639 1.1600 2.0723
C4D C 1.2502(3) 1.1109(3) 2.5181(11)
H3D H 1.2787 1.1268 2.6382
C5D C 1.2355(3) 1.0442(3) 2.5128(12)
H4D H 1.2545 1.0157 2.6266
C6D C 1.0753(3) 1.0726(3) 1.8605(11)
N2D N 1.1234(2) 1.0394(2) 1.9820(10)
H5D H 1.1290 0.9988 1.9410
C7D C 1.0298(3) 0.9654(3) 1.6919(12)
H6D H 1.0499 0.9420 1.8188
C8D C 1.0370(3) 1.0338(3) 1.6776(11)
C9D C 1.0073(3) 1.0675(3) 1.4842(12)
H7D H 1.0125 1.1129 1.4725
O1B O 0.6312(2) 0.9366(2) 1.1003(8)
N1B N 0.6529(2) 0.7758(2) 0.6454(9)
C1B C 0.5644(3) 0.8346(3) 0.8298(11)
C2B C 0.5208(3) 0.8075(3) 0.6632(12)
H1B H 0.4762 0.8180 0.6696
C3B C 0.6305(3) 0.8177(3) 0.8157(10)
H2B H 0.6600 0.8361 0.9277
C4B C 0.6109(3) 0.7498(3) 0.4819(11)
H3B H 0.6268 0.7213 0.3618
C5B C 0.5442(3) 0.7645(3) 0.4872(12)
H4B H 0.5157 0.7455 0.3734
C6B C 0.5726(3) 0.9247(3) 1.1395(11)
N2B N 0.5394(2) 0.8766(2) 1.0180(10)
H5B H 0.4988 0.8710 1.0590
C7B C 0.4654(3) 0.9702(3) 1.3081(12)
H6B H 0.4420 0.9501 1.1812
C8B C 0.5338(3) 0.9630(3) 1.3224(11)
C9B C 0.5675(3) 0.9927(3) 1.5158(12)
H7B H 0.6129 0.9875 1.5275
O1F O 0.3688(2) 1.0634(2) 1.8997(8)
N1F N 0.3471(2) 1.2242(2) 2.3546(9)
C1F C 0.4356(3) 1.1654(3) 2.1702(11)
C2F C 0.4792(3) 1.1925(3) 2.3368(12)
H1F H 0.5238 1.1820 2.3304
C3F C 0.3695(3) 1.1823(3) 2.1843(10)
H2F H 0.3400 1.1639 2.0723
C4F C 0.3891(3) 1.2502(3) 2.5181(11)
H3F H 0.3732 1.2787 2.6382
C5F C 0.4558(3) 1.2355(3) 2.5128(12)
H4F H 0.4843 1.2545 2.6266
C6F C 0.4274(3) 1.0753(3) 1.8605(11)
N2F N 0.4606(2) 1.1234(2) 1.9820(10)
H5F H 0.5012 1.1290 1.9410
C7F C 0.5346(3) 1.0298(3) 1.6919(12)
H6F H 0.5580 1.0499 1.8188
C8F C 0.4662(3) 1.0370(3) 1.6776(11)
C9F C 0.4325(3) 1.0073(3) 1.4842(12)
H7F H 0.3871 1.0125 1.4725
Cu1_2 Cu 0.7500 0.7500 -0.3619(2)
Cu1D Cu 0.2500 1.2500 2.3619(2)
Cu1D_2 Cu 1.2500 1.2500 2.3619(2)
Cl1_2 Cl 0.7500 0.7500 1.1518(5)
N1A N 0.7242(2) 0.6529(2) 0.6454(9)
N1C N 0.8471(2) 0.7242(2) 0.6454(9)
loop_
_geom_bond_atom_site_label_1
_geom_bond_atom_site_label_2
_geom_bond_site_symmetry_1
_geom_bond_site_symmetry_2
Cu1 Cl1 1_555 1_555
Cl1 Cu1_2 1_555 1_555
O1 C6 1_555 1_555
N1 Cu1 1_555 1_555
C1 C2 1_555 1_555
C2 H1 1_555 1_555
C3 N1 1_555 1_555
H2 C3 1_555 1_555
C4 N1 1_555 1_555
H3 C4 1_555 1_555
C5 C2 1_555 1_555
H4 C5 1_555 1_555
C6 N2 1_555 1_555
N2 C1 1_555 1_555
H5 N2 1_555 1_555
C7 H6 1_555 1_555
C8 C6 1_555 1_555
C9 C8 1_555 1_555
H7 C9 1_555 1_555
O1D C6D 1_555 1_555
N1D C3D 1_555 1_555
C1D C2D 1_555 1_555
C2D H1D 1_555 1_555
C3D C1D 1_555 1_555
H2D C3D 1_555 1_555
C4D N1D 1_555 1_555
H3D C4D 1_555 1_555
C5D C2D 1_555 1_555
H4D C5D 1_555 1_555
C6D N2D 1_555 1_555
N2D C1D 1_555 1_555
H5D N2D 1_555 1_555
C7D C9 1_555 1_555
H6D C7D 1_555 1_555
C8D C6D 1_555 1_555
C9D C7 1_555 1_555
H7D C9D 1_555 1_555
O1B C6B 1_555 1_555
N1B Cu1 1_555 1_555
C1B C2B 1_555 1_555
C2B H1B 1_555 1_555
C3B N1B 1_555 1_555
H2B C3B 1_555 1_555
C4B N1B 1_555 1_555
H3B C4B 1_555 1_555
C5B C2B 1_555 1_555
H4B C5B 1_555 1_555
C6B N2B 1_555 1_555
N2B C1B 1_555 1_555
H5B N2B 1_555 1_555
C7B H6B 1_555 1_555
C8B C6B 1_555 1_555
C9B C8B 1_555 1_555
H7B C9B 1_555 1_555
O1F C6F 1_555 1_555
N1F C3F 1_555 1_555
C1F C2F 1_555 1_555
C2F H1F 1_555 1_555
C3F C1F 1_555 1_555
H2F C3F 1_555 1_555
C4F N1F 1_555 1_555
H3F C4F 1_555 1_555
C5F C2F 1_555 1_555
H4F C5F 1_555 1_555
C6F N2F 1_555 1_555
N2F C1F 1_555 1_555
H5F N2F 1_555 1_555
C7F C9B 1_555 1_555
H6F C7F 1_555 1_555
C8F C6F 1_555 1_555
C9F C7B 1_555 1_555
H7F C9F 1_555 1_555
Cu1D N1F 1_555 1_555
Cu1D_2 N1D 1_555 1_555
Cl1_2 Cu1 1_555 1_555
N1A Cu1 1_555 1_555
N1C Cu1 1_555 1_555
C1 C3 1_555 1_555
C4 C5 1_555 1_555
C7 C8 1_555 1_555
C4D C5D 1_555 1_555
C7D C8D 1_555 1_555
C8D C9D 1_555 1_555
C1B C3B 1_555 1_555
C4B C5B 1_555 1_555
C7B C8B 1_555 1_555
C4F C5F 1_555 1_555
C7F C8F 1_555 1_555
C8F C9F 1_555 1_555

#END
