
#######################################################################
#
#                 Cambridge Crystallographic Data Centre
#                                CCDC 
#
#######################################################################
#
# If this CIF has been generated from an entry in the Cambridge 
# Structural Database, then it will include bibliographic, chemical, 
# crystal, experimental, refinement or atomic coordinate data resulting 
# from the CCDC's data processing and validation procedures.
#
#######################################################################

data_XUMMUP
_symmetry_cell_setting           tetragonal
_symmetry_space_group_name_H-M   'P 4 b m'
_symmetry_Int_Tables_number      100
_space_group_name_Hall           'P 4 -2ab'
loop_
_symmetry_equiv_pos_site_id
_symmetry_equiv_pos_as_xyz
1 x,y,z
2 -y,x,z
3 -x,-y,z
4 y,-x,z
5 1/2-x,1/2+y,z
6 1/2-y,1/2-x,z
7 1/2+x,1/2-y,z
8 1/2+y,1/2+x,z
_cell_length_a                   21.6145(4)
_cell_length_b                   21.6145(4)
_cell_length_c                   5.16780(10)
_cell_angle_alpha                90
_cell_angle_beta                 90
_cell_angle_gamma                90
_cell_volume                     2414.33
loop_
_atom_site_label
_atom_site_type_symbol
_atom_site_fract_x
_atom_site_fract_y
_atom_site_fract_z
Cu1 Cu 1.0000 1.0000 -0.2957(2)
Cl1 Cl 1.0000 1.0000 0.2016(7)
N1 N 0.91190(12) 0.96346(12) -0.2997(9)
C1 C 0.87016(17) 0.98429(18) -0.4662(10)
H1 H 0.8812 1.0159 -0.5791
C2 C 0.81005(18) 0.96025(19) -0.4780(11)
H2 H 0.7816 0.9753 -0.5974
C3 C 0.79407(16) 0.91333(18) -0.3065(12)
H3 H 0.7545 0.8965 -0.3095
C4 C 0.83762(17) 0.89176(17) -0.1309(9)
C5 C 0.89613(17) 0.91916(17) -0.1312(9)
H4 H 0.9252 0.9062 -0.0101
N2 N 0.81999(16) 0.84374(17) 0.0380(9)
H5 H 0.7810 0.8386 0.0637
C6 C 0.85903(18) 0.80482(18) 0.1639(9)
O1 O 0.91541(14) 0.81079(15) 0.1708(10)
C7 C 0.82785(18) 0.75142(18) 0.2941(9)
C8 C 0.77541(18) 0.72459(18) 0.1866(14)
H6 H 0.7579 0.7421 0.0395
C9 C 0.85479(19) 0.7241(2) 0.5092(10)
H7 H 0.8906 0.7409 0.5801
C10 C 0.8285(2) 0.6715(2) 0.6196(14)
H8 H 0.8459 0.6541 0.7668
N1E N 0.53654(12) 0.58810(12) -0.2997(9)
C1E C 0.51571(18) 0.62984(17) -0.4662(10)
H1E H 0.4841 0.6188 -0.5791
C2E C 0.53975(19) 0.68995(18) -0.4780(11)
H2E H 0.5247 0.7184 -0.5974
C3E C 0.58667(18) 0.70593(16) -0.3065(12)
H3E H 0.6035 0.7455 -0.3095
C4E C 0.60824(17) 0.66238(17) -0.1309(9)
C5E C 0.58084(17) 0.60387(17) -0.1312(9)
H4E H 0.5938 0.5748 -0.0101
N2E N 0.65626(17) 0.68001(16) 0.0380(9)
H5E H 0.6614 0.7190 0.0637
C6E C 0.69518(18) 0.64097(18) 0.1639(9)
O1E O 0.68921(15) 0.58459(14) 0.1708(10)
C7E C 0.74858(18) 0.67215(18) 0.2941(9)
C9E C 0.7759(2) 0.64521(19) 0.5092(10)
H7E H 0.7591 0.6094 0.5801
N1A N 1.03654(12) 0.91190(12) -0.2997(9)
C1A C 1.01571(18) 0.87016(17) -0.4662(10)
H1A H 0.9841 0.8812 -0.5791
C2A C 1.03975(19) 0.81005(18) -0.4780(11)
H2A H 1.0247 0.7816 -0.5974
C3A C 1.08667(18) 0.79407(16) -0.3065(12)
H3A H 1.1035 0.7545 -0.3095
C4A C 1.10824(17) 0.83762(17) -0.1309(9)
C5A C 1.08084(17) 0.89613(17) -0.1312(9)
H4A H 1.0938 0.9252 -0.0101
N2A N 1.15626(17) 0.81999(16) 0.0380(9)
H5A H 1.1614 0.7810 0.0637
C6A C 1.19518(18) 0.85903(18) 0.1639(9)
O1A O 1.18921(15) 0.91541(14) 0.1708(10)
C7A C 1.24858(18) 0.82785(18) 0.2941(9)
C8A C 1.27541(18) 0.77541(18) 0.1866(14)
H6A H 1.2579 0.7579 0.0395
C9A C 1.2759(2) 0.85479(19) 0.5092(10)
H7A H 1.2591 0.8906 0.5801
C10A C 1.3285(2) 0.8285(2) 0.6196(14)
H8A H 1.3459 0.8459 0.7668
N1F N 1.41190(12) 0.53654(12) -0.2997(9)
C1F C 1.37016(17) 0.51571(18) -0.4662(10)
H1F H 1.3812 0.4841 -0.5791
C2F C 1.31005(18) 0.53975(19) -0.4780(11)
H2F H 1.2816 0.5247 -0.5974
C3F C 1.29407(16) 0.58667(18) -0.3065(12)
H3F H 1.2545 0.6035 -0.3095
C4F C 1.33762(17) 0.60824(17) -0.1309(9)
C5F C 1.39613(17) 0.58084(17) -0.1312(9)
H4F H 1.4252 0.5938 -0.0101
N2F N 1.31999(16) 0.65626(17) 0.0380(9)
H5F H 1.2810 0.6614 0.0637
C6F C 1.35903(18) 0.69518(18) 0.1639(9)
O1F O 1.41541(14) 0.68921(15) 0.1708(10)
C7F C 1.32785(18) 0.74858(18) 0.2941(9)
C9F C 1.35479(19) 0.7759(2) 0.5092(10)
H7F H 1.3906 0.7591 0.5801
Cu1_2 Cu 1.0000 1.0000 0.7043(2)
Cu1D Cu 0.5000 0.5000 -0.2957(2)
Cu1D_2 Cu 1.5000 0.5000 -0.2957(2)
Cl1_2 Cl 1.0000 1.0000 -0.7984(7)
N1B N 1.08810(12) 1.03654(12) -0.2997(9)
N1C N 0.96346(12) 1.08810(12) -0.2997(9)
Cl2 Cl 0.67464(17) 0.82536(17) 0.0371(14)
O2 O 0.9782(5) 0.6971(5) 0.034(3)
O3 O 0.6484(5) 0.9912(5) 0.536(3)
O4 O 0.6332(3) 0.8668(3) 0.532(3)
loop_
_geom_bond_atom_site_label_1
_geom_bond_atom_site_label_2
_geom_bond_site_symmetry_1
_geom_bond_site_symmetry_2
Cu1 Cl1 1_555 1_555
Cl1 Cu1_2 1_555 1_555
N1 Cu1 1_555 1_555
C1 N1 1_555 1_555
H1 C1 1_555 1_555
C2 C1 1_555 1_555
H2 C2 1_555 1_555
C3 C2 1_555 1_555
H3 C3 1_555 1_555
C4 C3 1_555 1_555
C5 N1 1_555 1_555
H4 C5 1_555 1_555
N2 C4 1_555 1_555
H5 N2 1_555 1_555
C6 N2 1_555 1_555
O1 C6 1_555 1_555
C7 C6 1_555 1_555
C8 C7 1_555 1_555
H6 C8 1_555 1_555
C9 C7 1_555 1_555
H7 C9 1_555 1_555
C10 C9 1_555 1_555
H8 C10 1_555 1_555
N1E C1E 1_555 1_555
C1E H1E 1_555 1_555
C2E C1E 1_555 1_555
H2E C2E 1_555 1_555
C3E C2E 1_555 1_555
H3E C3E 1_555 1_555
C4E C3E 1_555 1_555
C5E N1E 1_555 1_555
H4E C5E 1_555 1_555
N2E C4E 1_555 1_555
H5E N2E 1_555 1_555
C6E N2E 1_555 1_555
O1E C6E 1_555 1_555
C7E C8 1_555 1_555
C9E C10 1_555 1_555
H7E C9E 1_555 1_555
N1A Cu1 1_555 1_555
C1A N1A 1_555 1_555
H1A C1A 1_555 1_555
C2A C1A 1_555 1_555
H2A C2A 1_555 1_555
C3A C2A 1_555 1_555
H3A C3A 1_555 1_555
C4A C3A 1_555 1_555
C5A N1A 1_555 1_555
H4A C5A 1_555 1_555
N2A C4A 1_555 1_555
H5A N2A 1_555 1_555
C6A N2A 1_555 1_555
O1A C6A 1_555 1_555
C7A C6A 1_555 1_555
C8A C7A 1_555 1_555
H6A C8A 1_555 1_555
C9A C7A 1_555 1_555
H7A C9A 1_555 1_555
C10A C9A 1_555 1_555
H8A C10A 1_555 1_555
N1F C1F 1_555 1_555
C1F H1F 1_555 1_555
C2F C1F 1_555 1_555
H2F C2F 1_555 1_555
C3F C2F 1_555 1_555
H3F C3F 1_555 1_555
C4F C3F 1_555 1_555
C5F N1F 1_555 1_555
H4F C5F 1_555 1_555
N2F C4F 1_555 1_555
H5F N2F 1_555 1_555
C6F N2F 1_555 1_555
O1F C6F 1_555 1_555
C7F C8A 1_555 1_555
C9F C10A 1_555 1_555
H7F C9F 1_555 1_555
Cu1D N1E 1_555 1_555
Cu1D_2 N1F 1_555 1_555
Cl1_2 Cu1 1_555 1_555
N1B Cu1 1_555 1_555
N1C Cu1 1_555 1_555
C4 C5 1_555 1_555
C4E C5E 1_555 1_555
C6E C7E 1_555 1_555
C7E C9E 1_555 1_555
C4A C5A 1_555 1_555
C4F C5F 1_555 1_555
C6F C7F 1_555 1_555
C7F C9F 1_555 1_555

#END
