
#######################################################################
#
#                 Cambridge Crystallographic Data Centre
#                                CCDC 
#
#######################################################################
#
# If this CIF has been generated from an entry in the Cambridge 
# Structural Database, then it will include bibliographic, chemical, 
# crystal, experimental, refinement or atomic coordinate data resulting 
# from the CCDC's data processing and validation procedures.
#
#######################################################################

data_XUMQUT
_symmetry_cell_setting           monoclinic
_symmetry_space_group_name_H-M   'P 21/c'
_symmetry_Int_Tables_number      14
_space_group_name_Hall           '-P 2ybc'
loop_
_symmetry_equiv_pos_site_id
_symmetry_equiv_pos_as_xyz
1 x,y,z
2 -x,1/2+y,1/2-z
3 -x,-y,-z
4 x,1/2-y,1/2+z
_cell_length_a                   7.2450(4)
_cell_length_b                   16.1456(8)
_cell_length_c                   26.6414(13)
_cell_angle_alpha                90
_cell_angle_beta                 91.8990(10)
_cell_angle_gamma                90
_cell_volume                     3114.66
loop_
_atom_site_label
_atom_site_type_symbol
_atom_site_fract_x
_atom_site_fract_y
_atom_site_fract_z
Cd1 Cd 0.44365(3) 0.211168(15) 0.407876(8)
N1 N 0.4875(4) 0.22770(19) 0.49102(11)
N2 N 0.4573(4) 0.27346(17) 0.56822(10)
N3 N 0.3206(4) 0.54699(18) 0.63705(11)
N4 N 0.3712(5) 0.67491(19) 0.61153(12)
N5 N 0.3254(5) 0.30347(19) 0.74360(11)
N6 N 0.3444(5) 0.28400(19) 0.82543(11)
C1 C 0.4106(5) 0.3260(2) 0.60880(12)
C2 C 0.3853(5) 0.4104(2) 0.60154(12)
H1 H 0.3967 0.4338 0.5699
C3 C 0.3423(5) 0.4592(2) 0.64261(13)
C4 C 0.3228(5) 0.4249(2) 0.68986(13)
H2 H 0.2936 0.4580 0.7171
C5 C 0.3479(5) 0.3406(2) 0.69559(12)
C6 C 0.3920(5) 0.2902(2) 0.65578(13)
H3 H 0.4088 0.2335 0.6604
C7 C 0.4299(5) 0.2897(2) 0.51830(13)
H4 H 0.3776 0.3381 0.5053
C8 C 0.5542(5) 0.1686(2) 0.52446(13)
H5 H 0.6044 0.1179 0.5155
C9 C 0.5356(5) 0.1952(2) 0.57213(14)
H6 H 0.5685 0.1670 0.6015
C10 C 0.4019(5) 0.5961(2) 0.60279(13)
H7 H 0.4708 0.5765 0.5765
C11 C 0.2625(6) 0.6767(2) 0.65301(15)
H8 H 0.2169 0.7246 0.6675
C12 C 0.2318(6) 0.5995(2) 0.66955(14)
H9 H 0.1645 0.5843 0.6972
C13 C 0.3870(5) 0.3332(2) 0.78835(13)
H10 H 0.4519 0.3826 0.7925
C14 C 0.2508(7) 0.2196(3) 0.80328(16)
H11 H 0.2022 0.1748 0.8204
C15 C 0.2388(8) 0.2303(3) 0.75330(16)
H12 H 0.1826 0.1948 0.7299
C16 C 0.8560(5) 0.0024(2) 0.39968(13)
C17 C 0.9418(5) -0.0385(2) 0.36046(13)
C18 C 1.0040(5) -0.1194(2) 0.36737(13)
H13 H 1.0645 -0.1455 0.3415
C19 C 0.9784(5) -0.1625(2) 0.41187(12)
C20 C 0.8948(5) -0.1206(2) 0.45097(14)
H14 H 0.8784 -0.1475 0.4814
C21 C 0.8362(5) -0.0396(2) 0.44498(14)
H15 H 0.7825 -0.0126 0.4717
C22 C 1.1422(5) -0.4189(2) 0.42688(14)
C23 C 1.1176(5) -0.3826(2) 0.37845(13)
C24 C 1.0660(5) -0.2993(2) 0.37570(13)
H16 H 1.0503 -0.2754 0.3441
C25 C 1.0366(5) -0.2502(2) 0.41749(13)
C26 C 1.0650(5) -0.2871(2) 0.46467(14)
H17 H 1.0480 -0.2561 0.4936
C27 C 1.1181(5) -0.3690(2) 0.46868(14)
H18 H 1.1384 -0.3917 0.5005
C28 C 0.7913(5) 0.0913(2) 0.39760(14)
C29 C 0.9707(5) 0.0009(2) 0.31026(14)
C30 C 1.1918(6) -0.5076(2) 0.43917(16)
C31 C 1.1440(5) -0.4225(2) 0.32775(15)
O1 O 0.6216(4) 0.10157(17) 0.38942(12)
O2 O 0.1534(4) 0.27345(15) 0.42369(10)
H19 H 0.1617 0.3256 0.4200
H20 H 0.0720 0.2544 0.4031
O3 O 0.2572(4) 0.09277(16) 0.42751(10)
H21 H 0.3223 0.0491 0.4258
H22 H 0.1664 0.0896 0.4066
O4 O 0.9057(4) 0.14635(18) 0.40654(14)
O5 O 0.8487(5) 0.05600(19) 0.29801(11)
H23 H 0.8654 0.0720 0.2693
O6 O 1.1000(5) -0.0162(2) 0.28466(12)
O7 O 1.2638(5) -0.52494(18) 0.47964(11)
O8 O 1.1524(5) -0.56325(17) 0.40591(13)
H24 H 1.1553 -0.5426 0.3778
O9 O 1.1625(5) -0.50090(17) 0.32426(12)
O10 O 1.1461(4) -0.37766(17) 0.29030(10)
Cd1B Cd 0.55635(3) 0.788832(15) 0.592124(8)
Cd1C Cd 0.44365(3) 0.288832(15) 0.907876(8)
N4B N 0.6288(5) 0.32509(19) 0.38847(12)
N6C N 0.3444(5) 0.21600(19) 0.32543(11)
O11 O 0.4107(5) -0.0360(2) 0.35814(16)
H25 H 0.3466 -0.0233 0.3320
H26 H 0.4747 0.0055 0.3677
loop_
_geom_bond_atom_site_label_1
_geom_bond_atom_site_label_2
_geom_bond_site_symmetry_1
_geom_bond_site_symmetry_2
Cd1 N1 1_555 1_555
N1 C7 1_555 1_555
N2 C1 1_555 1_555
N3 C3 1_555 1_555
N4 C10 1_555 1_555
N5 C5 1_555 1_555
N6 C13 1_555 1_555
C1 C2 1_555 1_555
C2 H1 1_555 1_555
C3 C2 1_555 1_555
C4 C3 1_555 1_555
H2 C4 1_555 1_555
C5 C4 1_555 1_555
C6 C1 1_555 1_555
H3 C6 1_555 1_555
C7 N2 1_555 1_555
H4 C7 1_555 1_555
C8 N1 1_555 1_555
H5 C8 1_555 1_555
C9 N2 1_555 1_555
H6 C9 1_555 1_555
C10 N3 1_555 1_555
H7 C10 1_555 1_555
C11 N4 1_555 1_555
H8 C11 1_555 1_555
C12 N3 1_555 1_555
H9 C12 1_555 1_555
C13 N5 1_555 1_555
H10 C13 1_555 1_555
C14 N6 1_555 1_555
H11 C14 1_555 1_555
C15 N5 1_555 1_555
H12 C15 1_555 1_555
C16 C17 1_555 1_555
C17 C18 1_555 1_555
C18 H13 1_555 1_555
C19 C18 1_555 1_555
C20 C19 1_555 1_555
H14 C20 1_555 1_555
C21 C16 1_555 1_555
H15 C21 1_555 1_555
C22 C23 1_555 1_555
C23 C24 1_555 1_555
C24 H16 1_555 1_555
C25 C19 1_555 1_555
C26 C25 1_555 1_555
H17 C26 1_555 1_555
C27 C22 1_555 1_555
H18 C27 1_555 1_555
C28 C16 1_555 1_555
C29 C17 1_555 1_555
C30 C22 1_555 1_555
C31 C23 1_555 1_555
O1 Cd1 1_555 1_555
O2 Cd1 1_555 1_555
H19 O2 1_555 1_555
H20 O2 1_555 1_555
O3 Cd1 1_555 1_555
H21 O3 1_555 1_555
H22 O3 1_555 1_555
O4 C28 1_555 1_555
O5 C29 1_555 1_555
H23 O5 1_555 1_555
O6 C29 1_555 1_555
O7 C30 1_555 1_555
O8 C30 1_555 1_555
H24 O8 1_555 1_555
O9 C31 1_555 1_555
O10 C31 1_555 1_555
O11 H25 1_555 1_555
H26 O11 1_555 1_555
Cd1B N4 1_555 1_555
Cd1C N6 1_555 1_555
N4B Cd1 1_555 1_555
N6C Cd1 1_555 1_555
C5 C6 1_555 1_555
C8 C9 1_555 1_555
C11 C12 1_555 1_555
C14 C15 1_555 1_555
C20 C21 1_555 1_555
C24 C25 1_555 1_555
C26 C27 1_555 1_555
C28 O1 1_555 1_555

#END
