
#######################################################################
#
#                 Cambridge Crystallographic Data Centre
#                                CCDC 
#
#######################################################################
#
# If this CIF has been generated from an entry in the Cambridge 
# Structural Database, then it will include bibliographic, chemical, 
# crystal, experimental, refinement or atomic coordinate data resulting 
# from the CCDC's data processing and validation procedures.
#
#######################################################################

data_XUMROO
_symmetry_cell_setting           orthorhombic
_symmetry_space_group_name_H-M   'P c a 21'
_symmetry_Int_Tables_number      29
_space_group_name_Hall           'P 2c -2ac'
loop_
_symmetry_equiv_pos_site_id
_symmetry_equiv_pos_as_xyz
1 x,y,z
2 -x,-y,1/2+z
3 1/2+x,-y,z
4 1/2-x,y,1/2+z
_cell_length_a                   18.296(2)
_cell_length_b                   9.8044(11)
_cell_length_c                   13.0202(15)
_cell_angle_alpha                90
_cell_angle_beta                 90
_cell_angle_gamma                90
_cell_volume                     2335.58
loop_
_atom_site_label
_atom_site_type_symbol
_atom_site_fract_x
_atom_site_fract_y
_atom_site_fract_z
Co1 Co 0.78029(2) 1.09927(5) 0.16904(5)
S1 S 1.00897(6) 0.88223(10) 0.13843(9)
N1 N 0.68348(17) 0.8214(3) 0.3722(3)
N2 N 0.74125(18) 0.9898(3) 0.2965(3)
N3 N 0.6159(2) 0.3582(3) 0.4580(3)
N4 N 0.6697(2) 0.1935(4) 0.5427(3)
N5 N 0.43137(17) 0.6816(3) 0.3506(3)
N6 N 0.33899(19) 0.7777(3) 0.2699(3)
C1 C 0.6286(2) 0.7176(4) 0.3862(3)
C2 C 0.6496(2) 0.5912(4) 0.4177(3)
H1 H 0.6982 0.5716 0.4324
C3 C 0.5957(2) 0.4929(4) 0.4270(3)
C4 C 0.5232(2) 0.5203(4) 0.4069(3)
H2 H 0.4876 0.4534 0.4148
C5 C 0.5052(2) 0.6502(4) 0.3745(3)
C6 C 0.5578(2) 0.7513(4) 0.3660(3)
H3 H 0.5451 0.8396 0.3470
C7 C 0.6849(2) 0.9081(4) 0.2924(3)
H4 H 0.6501 0.9098 0.2404
C8 C 0.7771(2) 0.9549(5) 0.3850(4)
H5 H 0.8196 0.9963 0.4088
C9 C 0.7417(3) 0.8512(5) 0.4332(4)
H6 H 0.7545 0.8095 0.4948
C10 C 0.6664(2) 0.3268(4) 0.5298(3)
H7 H 0.6947 0.3901 0.5650
C11 C 0.6187(3) 0.1382(4) 0.4783(4)
H8 H 0.6087 0.0456 0.4718
C12 C 0.5847(3) 0.2396(4) 0.4249(4)
H9 H 0.5479 0.2300 0.3761
C13 C 0.4101(2) 0.7677(4) 0.2757(3)
H10 H 0.4422 0.8146 0.2331
C14 C 0.3138(2) 0.6908(6) 0.3456(4)
H11 H 0.2647 0.6765 0.3608
C15 C 0.3693(3) 0.6304(6) 0.3938(4)
H12 H 0.3663 0.5663 0.4463
C16 C 0.93786(19) 0.7709(4) 0.1579(4)
C17 C 0.9620(2) 0.6423(4) 0.1689(4)
H13 H 0.9313 0.5679 0.1791
C18 C 1.0381(2) 0.6319(4) 0.1635(5)
H14 H 1.0632 0.5499 0.1701
C19 C 1.0713(2) 0.7531(4) 0.1475(3)
C20 C 0.8609(2) 0.8217(4) 0.1580(4)
C21 C 1.1519(2) 0.7844(6) 0.1449(4)
O1 O 0.81159(15) 0.7386(3) 0.1677(4)
O2 O 0.85490(15) 0.9501(3) 0.1479(3)
O3 O 1.19527(16) 0.6932(4) 0.1688(4)
O4 O 1.17147(18) 0.9036(4) 0.1210(3)
Co1B Co 0.28029(2) 0.90073(5) 0.16904(5)
Co1B_2 Co 1.28029(2) 0.90073(5) 0.16904(5)
Co1C Co 0.71971(2) 0.09927(5) 0.66904(5)
N4C N 0.8303(2) 1.1935(4) 0.0427(3)
N6B N 0.83899(19) 1.2223(3) 0.2699(3)
O4B O 0.67147(18) 1.0964(4) 0.1210(3)
O5 O 0.6924(3) 0.5828(5) 0.1185(4)
H15 H 0.7295 0.6304 0.1343
H16 H 0.6570 0.6353 0.1035
O6 O 0.5668(4) 0.7408(8) 0.0924(9)
H17 H 0.5309 0.6900 0.0767
H18 H 0.5735 0.7995 0.0453
loop_
_geom_bond_atom_site_label_1
_geom_bond_atom_site_label_2
_geom_bond_site_symmetry_1
_geom_bond_site_symmetry_2
Co1 N2 1_555 1_555
S1 C16 1_555 1_555
N1 C1 1_555 1_555
N2 C7 1_555 1_555
N3 C3 1_555 1_555
N4 C10 1_555 1_555
N5 C5 1_555 1_555
N6 C13 1_555 1_555
C1 C2 1_555 1_555
C2 H1 1_555 1_555
C3 C2 1_555 1_555
C4 C3 1_555 1_555
H2 C4 1_555 1_555
C5 C4 1_555 1_555
C6 C1 1_555 1_555
H3 C6 1_555 1_555
C7 N1 1_555 1_555
H4 C7 1_555 1_555
C8 N2 1_555 1_555
H5 C8 1_555 1_555
C9 N1 1_555 1_555
H6 C9 1_555 1_555
C10 N3 1_555 1_555
H7 C10 1_555 1_555
C11 N4 1_555 1_555
H8 C11 1_555 1_555
C12 N3 1_555 1_555
H9 C12 1_555 1_555
C13 N5 1_555 1_555
H10 C13 1_555 1_555
C14 N6 1_555 1_555
H11 C14 1_555 1_555
C15 N5 1_555 1_555
H12 C15 1_555 1_555
C16 C17 1_555 1_555
C17 H13 1_555 1_555
C18 C17 1_555 1_555
H14 C18 1_555 1_555
C19 S1 1_555 1_555
C20 C16 1_555 1_555
C21 C19 1_555 1_555
O1 C20 1_555 1_555
O2 Co1 1_555 1_555
O3 C21 1_555 1_555
O4 C21 1_555 1_555
O5 H15 1_555 1_555
H16 O5 1_555 1_555
O6 H17 1_555 1_555
H18 O6 1_555 1_555
Co1B N6 1_555 1_555
Co1B_2 O4 1_555 1_555
Co1C N4 1_555 1_555
N4C Co1 1_555 1_555
N6B Co1 1_555 1_555
O4B Co1 1_555 1_555
C5 C6 1_555 1_555
C8 C9 1_555 1_555
C11 C12 1_555 1_555
C14 C15 1_555 1_555
C18 C19 1_555 1_555
C20 O2 1_555 1_555

#END
