
#######################################################################
#
#                 Cambridge Crystallographic Data Centre
#                                CCDC 
#
#######################################################################
#
# If this CIF has been generated from an entry in the Cambridge 
# Structural Database, then it will include bibliographic, chemical, 
# crystal, experimental, refinement or atomic coordinate data resulting 
# from the CCDC's data processing and validation procedures.
#
#######################################################################

data_XUMRAA
_symmetry_cell_setting           monoclinic
_symmetry_space_group_name_H-M   'P 21/n'
_symmetry_Int_Tables_number      14
_space_group_name_Hall           '-P 2yn'
loop_
_symmetry_equiv_pos_site_id
_symmetry_equiv_pos_as_xyz
1 x,y,z
2 1/2-x,1/2+y,1/2-z
3 -x,-y,-z
4 1/2+x,1/2-y,1/2+z
_cell_length_a                   15.8744(12)
_cell_length_b                   12.6089(9)
_cell_length_c                   27.9469(19)
_cell_angle_alpha                90
_cell_angle_beta                 94.0760(10)
_cell_angle_gamma                90
_cell_volume                     5579.67
loop_
_atom_site_label
_atom_site_type_symbol
_atom_site_fract_x
_atom_site_fract_y
_atom_site_fract_z
Co1 Co 1.12805(3) -0.13125(3) 0.903785(16)
Co2 Co 0.86008(3) 0.16355(3) 0.592064(16)
N1 N 0.89624(17) 0.0270(2) 0.88248(10)
N2 N 1.00354(17) -0.0799(2) 0.90146(10)
N3 N 0.73228(17) 0.3513(2) 0.89066(10)
N4 N 0.67974(18) 0.5056(2) 0.90972(10)
N5 N 0.83784(18) 0.2411(2) 0.74031(10)
N6 N 0.85428(18) 0.2168(2) 0.66314(10)
N7 N 1.14869(18) -0.2090(2) 0.75475(10)
N8 N 1.13112(18) -0.1798(2) 0.83133(10)
N9 N 1.26165(17) -0.3236(2) 0.60666(10)
N10 N 1.32461(17) -0.4753(2) 0.59148(10)
N11 N 1.08977(18) -0.0027(2) 0.61055(10)
N12 N 0.98599(17) 0.1095(2) 0.59279(10)
C1 C 0.8517(2) 0.1132(2) 0.85900(12)
C2 C 0.8080(2) 0.1840(3) 0.88649(12)
H1 H 0.8008 0.1711 0.9187
C3 C 0.7760(2) 0.2741(3) 0.86393(12)
C4 C 0.7855(2) 0.2931(3) 0.81621(12)
H2 H 0.7630 0.3542 0.8017
C5 C 0.8286(2) 0.2208(3) 0.78968(12)
C6 C 0.8609(2) 0.1287(3) 0.81076(12)
H3 H 0.8881 0.0785 0.7929
C7 C 0.9767(2) 0.0013(3) 0.87588(12)
H4 H 1.0099 0.0377 0.8552
C8 C 0.9346(2) -0.1102(3) 0.92572(14)
H5 H 0.9337 -0.1672 0.9468
C9 C 0.8685(2) -0.0448(3) 0.91433(13)
H6 H 0.8150 -0.0482 0.9259
C10 C 0.7267(2) 0.4556(3) 0.88033(12)
H7 H 0.7529 0.4880 0.8554
C11 C 0.6539(2) 0.4287(3) 0.94104(12)
H8 H 0.6196 0.4410 0.9661
C12 C 0.6859(2) 0.3337(3) 0.92995(12)
H9 H 0.6783 0.2696 0.9455
C13 C 0.8480(2) 0.1701(3) 0.70491(12)
H10 H 0.8504 0.0971 0.7095
C14 C 0.8475(3) 0.3246(3) 0.67243(14)
H11 H 0.8493 0.3780 0.6496
C15 C 0.8379(3) 0.3403(3) 0.71928(14)
H12 H 0.8324 0.4052 0.7346
C16 C 1.1580(2) -0.1917(3) 0.70515(12)
C17 C 1.2047(2) -0.2640(3) 0.68027(12)
H13 H 1.2287 -0.3231 0.6958
C18 C 1.2150(2) -0.2467(2) 0.63210(12)
C19 C 1.1806(2) -0.1591(3) 0.60831(12)
H14 H 1.1885 -0.1470 0.5761
C20 C 1.1336(2) -0.0896(3) 0.63446(12)
C21 C 1.1227(2) -0.1036(3) 0.68252(12)
H15 H 1.0922 -0.0548 0.6993
C22 C 1.1294(2) -0.1375(3) 0.78852(12)
H16 H 1.1166 -0.0668 0.7820
C23 C 1.1520(3) -0.2851(3) 0.82459(14)
H17 H 1.1581 -0.3357 0.8488
C24 C 1.1621(3) -0.3033(3) 0.77830(14)
H18 H 1.1758 -0.3678 0.7647
C25 C 1.2787(2) -0.4241(3) 0.62150(12)
H19 H 1.2603 -0.4534 0.6495
C26 C 1.3361(2) -0.4035(3) 0.55520(13)
H20 H 1.3659 -0.4176 0.5284
C27 C 1.2987(2) -0.3109(3) 0.56374(12)
H21 H 1.2979 -0.2504 0.5447
C28 C 1.0125(2) 0.0300(3) 0.62046(12)
H22 H 0.9814 0.0002 0.6440
C29 C 1.0518(2) 0.1300(3) 0.56417(13)
H23 H 1.0520 0.1832 0.5411
C30 C 1.1155(2) 0.0616(3) 0.57464(13)
H24 H 1.1666 0.0584 0.5604
C31 C 1.0999(2) -0.4350(3) 1.01962(12)
C32 C 1.0795(2) -0.3270(3) 1.01343(12)
C33 C 1.0349(2) -0.2760(3) 1.04745(12)
H25 H 1.0212 -0.2047 1.0434
C34 C 1.0104(2) -0.3297(3) 1.08746(12)
C35 C 1.0319(2) -0.4339(3) 1.09487(13)
H26 H 1.0173 -0.4695 1.1222
C36 C 1.0759(2) -0.4847(3) 1.06054(12)
H27 H 1.0899 -0.5557 1.0652
C37 C 0.8650(2) -0.3610(3) 1.24490(12)
C38 C 0.9100(2) -0.2650(3) 1.24142(13)
C39 C 0.9449(2) -0.2416(3) 1.19874(13)
H28 H 0.9761 -0.1795 1.1968
C40 C 0.9356(2) -0.3055(3) 1.15939(13)
C41 C 0.8861(2) -0.3955(3) 1.16008(13)
H29 H 0.8756 -0.4370 1.1328
C42 C 0.8528(2) -0.4216(3) 1.20297(13)
H30 H 0.8204 -0.4829 1.2040
C43 C 1.1480(2) -0.5041(3) 0.98695(13)
C44 C 1.1014(2) -0.2559(3) 0.97290(12)
C45 C 0.8278(2) -0.4084(3) 1.28885(14)
C46 C 0.9217(2) -0.1743(3) 1.27756(14)
C47 C 0.8938(2) 0.4736(3) 0.48038(12)
C48 C 0.9079(2) 0.3632(3) 0.48302(12)
C49 C 0.9487(2) 0.3132(3) 0.44703(12)
H31 H 0.9578 0.2404 0.4487
C50 C 0.9764(2) 0.3702(3) 0.40836(12)
C51 C 0.9668(2) 0.4783(3) 0.40685(13)
H32 H 0.9878 0.5175 0.3821
C52 C 0.9257(2) 0.5279(3) 0.44222(13)
H33 H 0.9189 0.6011 0.4406
C53 C 1.0815(2) 0.3432(3) 0.23661(13)
C54 C 1.0879(2) 0.2465(3) 0.26140(12)
C55 C 1.0647(2) 0.2433(3) 0.30793(13)
H34 H 1.0727 0.1805 0.3251
C56 C 1.0307(2) 0.3274(3) 0.33001(13)
C57 C 1.0126(3) 0.4201(3) 0.30390(14)
H35 H 0.9829 0.4756 0.3167
C58 C 1.0406(3) 0.4264(3) 0.25823(14)
H36 H 1.0317 0.4892 0.2411
C59 C 0.8478(2) 0.5422(3) 0.51418(13)
C60 C 0.8853(2) 0.2886(3) 0.52286(12)
C61 C 1.1197(2) 0.3716(3) 0.19011(14)
C62 C 1.1159(3) 0.1403(3) 0.24230(15)
O1 O 1.25456(14) -0.18568(18) 0.91104(8)
H37 H 1.2669 -0.2025 0.9401
H38 H 1.2595 -0.2397 0.8933
O2 O 0.97012(17) -0.26676(19) 1.11887(9)
O3 O 0.73026(14) 0.20795(18) 0.57962(8)
H39 H 0.7063 0.2042 0.6058
H40 H 0.7275 0.2712 0.5691
O4 O 1.16439(16) -0.4700(2) 0.94412(9)
H41 H 1.1428 -0.4114 0.9394
O5 O 1.17162(17) -0.5926(2) 0.99905(9)
O6 O 1.09886(15) -0.29166(18) 0.93024(8)
O7 O 1.11808(15) -0.16036(18) 0.98128(8)
O8 O 0.78863(19) -0.4919(2) 1.28347(10)
O9 O 0.84122(18) -0.3620(2) 1.32897(10)
O10 O 0.8948(2) -0.1845(3) 1.31949(10)
H42 H 0.8764 -0.2447 1.3226
O11 O 0.95458(19) -0.0928(2) 1.26545(10)
O12 O 1.01344(18) 0.3059(2) 0.37699(9)
O13 O 0.83344(16) 0.5080(2) 0.55688(9)
H43 H 0.8512 0.4471 0.5603
O14 O 0.82474(17) 0.6306(2) 0.50161(9)
O15 O 0.86939(14) 0.19416(18) 0.51382(8)
O16 O 0.88792(15) 0.32295(18) 0.56582(8)
O17 O 1.13178(18) 0.2998(2) 0.15956(9)
O18 O 1.1364(2) 0.4662(2) 0.18394(10)
O19 O 1.1250(2) 0.1296(2) 0.19739(10)
H44 H 1.1272 0.1883 0.1849
O20 O 1.1274(2) 0.0664(2) 0.27055(11)
Co1A Co 1.37195(3) -0.63125(3) 0.596215(16)
Co2A Co 0.63992(3) 0.66355(3) 0.907936(16)
N4A N 0.82026(18) 0.0056(2) 0.59028(10)
N10A N 1.17539(17) 0.0247(2) 0.90852(10)
loop_
_geom_bond_atom_site_label_1
_geom_bond_atom_site_label_2
_geom_bond_site_symmetry_1
_geom_bond_site_symmetry_2
Co1 N2 1_555 1_555
Co2 N6 1_555 1_555
N1 C1 1_555 1_555
N2 C7 1_555 1_555
N3 C3 1_555 1_555
N4 C10 1_555 1_555
N5 C5 1_555 1_555
N6 C13 1_555 1_555
N7 C16 1_555 1_555
N8 Co1 1_555 1_555
N9 C18 1_555 1_555
N10 C25 1_555 1_555
N11 C20 1_555 1_555
N12 Co2 1_555 1_555
C1 C2 1_555 1_555
C2 H1 1_555 1_555
C3 C2 1_555 1_555
C4 C3 1_555 1_555
H2 C4 1_555 1_555
C5 C4 1_555 1_555
C6 C1 1_555 1_555
H3 C6 1_555 1_555
C7 N1 1_555 1_555
H4 C7 1_555 1_555
C8 N2 1_555 1_555
H5 C8 1_555 1_555
C9 N1 1_555 1_555
H6 C9 1_555 1_555
C10 N3 1_555 1_555
H7 C10 1_555 1_555
C11 N4 1_555 1_555
H8 C11 1_555 1_555
C12 N3 1_555 1_555
H9 C12 1_555 1_555
C13 N5 1_555 1_555
H10 C13 1_555 1_555
C14 N6 1_555 1_555
H11 C14 1_555 1_555
C15 N5 1_555 1_555
H12 C15 1_555 1_555
C16 C17 1_555 1_555
C17 H13 1_555 1_555
C18 C17 1_555 1_555
C19 C18 1_555 1_555
H14 C19 1_555 1_555
C20 C19 1_555 1_555
C21 C16 1_555 1_555
H15 C21 1_555 1_555
C22 N7 1_555 1_555
H16 C22 1_555 1_555
C23 N8 1_555 1_555
H17 C23 1_555 1_555
C24 N7 1_555 1_555
H18 C24 1_555 1_555
C25 N9 1_555 1_555
H19 C25 1_555 1_555
C26 N10 1_555 1_555
H20 C26 1_555 1_555
C27 N9 1_555 1_555
H21 C27 1_555 1_555
C28 N11 1_555 1_555
H22 C28 1_555 1_555
C29 N12 1_555 1_555
H23 C29 1_555 1_555
C30 N11 1_555 1_555
H24 C30 1_555 1_555
C31 C32 1_555 1_555
C32 C33 1_555 1_555
C33 H25 1_555 1_555
C34 C33 1_555 1_555
C35 C34 1_555 1_555
H26 C35 1_555 1_555
C36 C31 1_555 1_555
H27 C36 1_555 1_555
C37 C38 1_555 1_555
C38 C39 1_555 1_555
C39 H28 1_555 1_555
C40 C39 1_555 1_555
C41 C40 1_555 1_555
H29 C41 1_555 1_555
C42 C37 1_555 1_555
H30 C42 1_555 1_555
C43 C31 1_555 1_555
C44 C32 1_555 1_555
C45 C37 1_555 1_555
C46 C38 1_555 1_555
C47 C48 1_555 1_555
C48 C49 1_555 1_555
C49 H31 1_555 1_555
C50 C49 1_555 1_555
C51 C50 1_555 1_555
H32 C51 1_555 1_555
C52 C47 1_555 1_555
H33 C52 1_555 1_555
C53 C54 1_555 1_555
C54 C55 1_555 1_555
C55 H34 1_555 1_555
C56 C55 1_555 1_555
C57 C56 1_555 1_555
H35 C57 1_555 1_555
C58 C53 1_555 1_555
H36 C58 1_555 1_555
C59 C47 1_555 1_555
C60 C48 1_555 1_555
C61 C53 1_555 1_555
C62 C54 1_555 1_555
O1 Co1 1_555 1_555
H37 O1 1_555 1_555
H38 O1 1_555 1_555
O2 C34 1_555 1_555
O3 Co2 1_555 1_555
H39 O3 1_555 1_555
H40 O3 1_555 1_555
O4 C43 1_555 1_555
H41 O4 1_555 1_555
O5 C43 1_555 1_555
O6 Co1 1_555 1_555
O7 Co1 1_555 1_555
O8 C45 1_555 1_555
O9 C45 1_555 1_555
O10 C46 1_555 1_555
H42 O10 1_555 1_555
O11 C46 1_555 1_555
O12 C50 1_555 1_555
O13 C59 1_555 1_555
H43 O13 1_555 1_555
O14 C59 1_555 1_555
O15 Co2 1_555 1_555
O16 Co2 1_555 1_555
O17 C61 1_555 1_555
O18 C61 1_555 1_555
O19 C62 1_555 1_555
H44 O19 1_555 1_555
O20 C62 1_555 1_555
Co1A N10 1_555 1_555
Co2A N4 1_555 1_555
N4A Co2 1_555 1_555
N10A Co1 1_555 1_555
N8 C22 1_555 1_555
N12 C28 1_555 1_555
C5 C6 1_555 1_555
C8 C9 1_555 1_555
C11 C12 1_555 1_555
C14 C15 1_555 1_555
C20 C21 1_555 1_555
C23 C24 1_555 1_555
C26 C27 1_555 1_555
C29 C30 1_555 1_555
C35 C36 1_555 1_555
C40 O2 1_555 1_555
C41 C42 1_555 1_555
C44 O6 1_555 1_555
C44 O7 1_555 1_555
C51 C52 1_555 1_555
C56 O12 1_555 1_555
C57 C58 1_555 1_555
C60 O15 1_555 1_555
C60 O16 1_555 1_555

#END
