
#######################################################################
#
#                 Cambridge Crystallographic Data Centre
#                                CCDC 
#
#######################################################################
#
# If this CIF has been generated from an entry in the Cambridge 
# Structural Database, then it will include bibliographic, chemical, 
# crystal, experimental, refinement or atomic coordinate data resulting 
# from the CCDC's data processing and validation procedures.
#
#######################################################################

data_XUMTAB
_symmetry_cell_setting           tetragonal
_symmetry_space_group_name_H-M   'P -4 21 m'
_symmetry_Int_Tables_number      113
_space_group_name_Hall           'P -4 2ab'
loop_
_symmetry_equiv_pos_site_id
_symmetry_equiv_pos_as_xyz
1 x,y,z
2 -x,-y,z
3 y,-x,-z
4 -y,x,-z
5 1/2-x,1/2+y,-z
6 1/2+x,1/2-y,-z
7 1/2-y,1/2-x,z
8 1/2+y,1/2+x,z
_cell_length_a                   13.0570(3)
_cell_length_b                   13.0570(3)
_cell_length_c                   6.5702(4)
_cell_angle_alpha                90
_cell_angle_beta                 90
_cell_angle_gamma                90
_cell_volume                     1120.12
loop_
_atom_site_label
_atom_site_type_symbol
_atom_site_fract_x
_atom_site_fract_y
_atom_site_fract_z
Zn1 Zn 0.33736(3) 0.83736(3) 0.57211(9)
Cl1 Cl 0.31356(10) 0.81356(10) 0.2373(2)
B1 B 0.0000 1.0000 1.0000
N1 N 0.0678(2) 0.9322(2) 0.8629(4)
N2 N 0.1982(2) 0.8706(2) 0.6839(5)
N3 N 0.4395(3) 0.9395(3) 0.6574(8)
C1 C 0.1688(3) 0.9356(3) 0.8254(5)
H1 H 0.2136 0.9795 0.8928
C2 C 0.0307(3) 0.8590(3) 0.7297(6)
H2 H -0.0373 0.8389 0.7166
C3 C 0.1097(3) 0.8224(3) 0.6234(5)
H3 H 0.1056 0.7720 0.5237
C4 C 0.4638(3) 0.9638(3) 0.8544(9)
H4 H 0.4346 0.9346 0.9697
C5 C 0.5000 1.0000 0.5475(14)
H5 H 0.5000 1.0000 0.4059
Zn1A Zn -0.33736(3) 1.16264(3) 0.57211(9)
Zn1B Zn -0.16264(3) 0.66264(3) 1.42789(9)
Zn1C Zn 0.16264(3) 0.33736(3) 1.42789(9)
Zn1_2 Zn 0.33736(3) -0.16264(3) 0.57211(9)
Zn1A_2 Zn -0.33736(3) 0.16264(3) 0.57211(9)
Zn1A_3 Zn 0.66264(3) 1.16264(3) 0.57211(9)
Zn1B_2 Zn -0.16264(3) -0.33736(3) 1.42789(9)
Zn1C_2 Zn 0.16264(3) 1.33736(3) 1.42789(9)
Cl1A Cl -0.31356(10) 1.18644(10) 0.2373(2)
Cl1B Cl -0.18644(10) 0.68644(10) 1.7627(2)
Cl1C Cl 0.18644(10) 0.31356(10) 1.7627(2)
B1_2 B 0.0000 0.0000 1.0000
N1A N -0.0678(2) 1.0678(2) 0.8629(4)
N1B N -0.0678(2) 0.9322(2) 1.1371(4)
N1C N 0.0678(2) 1.0678(2) 1.1371(4)
N1C_2 N 0.0678(2) 0.0678(2) 1.1371(4)
N1B_2 N -0.0678(2) -0.0678(2) 1.1371(4)
N1_2 N 0.0678(2) -0.0678(2) 0.8629(4)
N1A_2 N -0.0678(2) 0.0678(2) 0.8629(4)
N2A N -0.1982(2) 1.1294(2) 0.6839(5)
N2B N -0.1294(2) 0.8018(2) 1.3161(5)
N2C N 0.1294(2) 1.1982(2) 1.3161(5)
N2C_2 N 0.1294(2) 0.1982(2) 1.3161(5)
N2B_2 N -0.1294(2) -0.1982(2) 1.3161(5)
N2_2 N 0.1982(2) -0.1294(2) 0.6839(5)
N2A_2 N -0.1982(2) 0.1294(2) 0.6839(5)
N2D N 0.3018(2) 0.3706(2) 1.3161(5)
N2E N -0.3018(2) 0.6294(2) 1.3161(5)
N2F N -0.3706(2) 1.3018(2) 0.6839(5)
N2G N 0.3706(2) 0.6982(2) 0.6839(5)
N3A N 0.5605(3) 1.0605(3) 0.6574(8)
N3B N -0.0605(3) 0.5605(3) 1.3426(8)
N3C N 0.0605(3) 0.4395(3) 1.3426(8)
N3A_2 N -0.4395(3) 1.0605(3) 0.6574(8)
C1A C -0.1688(3) 1.0644(3) 0.8254(5)
C1B C -0.0644(3) 0.8312(3) 1.1746(5)
C1C C 0.0644(3) 1.1688(3) 1.1746(5)
C1C_2 C 0.0644(3) 0.1688(3) 1.1746(5)
C1B_2 C -0.0644(3) -0.1688(3) 1.1746(5)
C1_2 C 0.1688(3) -0.0644(3) 0.8254(5)
C1A_2 C -0.1688(3) 0.0644(3) 0.8254(5)
H1A H -0.2136 1.0205 0.8928
H1B H -0.0205 0.7864 1.1072
H1C H 0.0205 1.2136 1.1072
H1C_2 H 0.0205 0.2136 1.1072
H1B_2 H -0.0205 -0.2136 1.1072
H1_2 H 0.2136 -0.0205 0.8928
H1A_2 H -0.2136 0.0205 0.8928
C2A C -0.0307(3) 1.1410(3) 0.7297(6)
C2B C -0.1410(3) 0.9693(3) 1.2703(6)
C2C C 0.1410(3) 1.0307(3) 1.2703(6)
C2C_2 C 0.1410(3) 0.0307(3) 1.2703(6)
C2B_2 C -0.1410(3) -0.0307(3) 1.2703(6)
C2_2 C 0.0307(3) -0.1410(3) 0.7297(6)
C2A_2 C -0.0307(3) 0.1410(3) 0.7297(6)
H2A H 0.0373 1.1611 0.7166
H2B H -0.1611 1.0373 1.2834
H2C H 0.1611 0.9627 1.2834
H2C_2 H 0.1611 -0.0373 1.2834
H2B_2 H -0.1611 0.0373 1.2834
H2_2 H -0.0373 -0.1611 0.7166
H2A_2 H 0.0373 0.1611 0.7166
C3A C -0.1097(3) 1.1776(3) 0.6234(5)
C3B C -0.1776(3) 0.8903(3) 1.3766(5)
C3C C 0.1776(3) 1.1097(3) 1.3766(5)
C3C_2 C 0.1776(3) 0.1097(3) 1.3766(5)
C3B_2 C -0.1776(3) -0.1097(3) 1.3766(5)
C3_2 C 0.1097(3) -0.1776(3) 0.6234(5)
C3A_2 C -0.1097(3) 0.1776(3) 0.6234(5)
H3A H -0.1056 1.2280 0.5237
H3B H -0.2280 0.8944 1.4763
H3C H 0.2280 1.1056 1.4763
H3C_2 H 0.2280 0.1056 1.4763
H3B_2 H -0.2280 -0.1056 1.4763
H3_2 H 0.1056 -0.2280 0.5237
H3A_2 H -0.1056 0.2280 0.5237
C4A C 0.5362(3) 1.0362(3) 0.8544(9)
C4B C -0.0362(3) 0.5362(3) 1.1456(9)
C4C C 0.0362(3) 0.4638(3) 1.1456(9)
H4A H 0.5654 1.0654 0.9697
H4B H -0.0654 0.5654 1.0303
H4C H 0.0654 0.4346 1.0303
C5B C 0.0000 0.5000 1.4525(14)
H5B H 0.0000 0.5000 1.5941
loop_
_geom_bond_atom_site_label_1
_geom_bond_atom_site_label_2
_geom_bond_site_symmetry_1
_geom_bond_site_symmetry_2
Zn1 Cl1 1_555 1_555
B1 N1 1_555 1_555
N1 C1 1_555 1_555
N2 Zn1 1_555 1_555
N3 Zn1 1_555 1_555
C1 N2 1_555 1_555
H1 C1 1_555 1_555
C2 N1 1_555 1_555
H2 C2 1_555 1_555
C3 N2 1_555 1_555
H3 C3 1_555 1_555
C4 N3 1_555 1_555
H4 C4 1_555 1_555
C5 N3 1_555 1_555
H5 C5 1_555 1_555
Zn1A Cl1A 1_555 1_555
Zn1B Cl1B 1_555 1_555
Zn1C Cl1C 1_555 1_555
Zn1_2 N2_2 1_555 1_555
Zn1A_2 N2A_2 1_555 1_555
Zn1A_3 N3A 1_555 1_555
Zn1B_2 N2B_2 1_555 1_555
Zn1C_2 N2C 1_555 1_555
B1_2 N1C_2 1_555 1_555
N1A B1 1_555 1_555
N1B B1 1_555 1_555
N1C B1 1_555 1_555
N1C_2 C1C_2 1_555 1_555
N1B_2 B1_2 1_555 1_555
N1_2 B1_2 1_555 1_555
N1A_2 B1_2 1_555 1_555
N2A Zn1A 1_555 1_555
N2B Zn1B 1_555 1_555
N2C C1C 1_555 1_555
N2C_2 Zn1C 1_555 1_555
N2B_2 C1B_2 1_555 1_555
N2_2 C1_2 1_555 1_555
N2A_2 C1A_2 1_555 1_555
N2D Zn1C 1_555 1_555
N2E Zn1B 1_555 1_555
N2F Zn1A 1_555 1_555
N2G Zn1 1_555 1_555
N3A C5 1_555 1_555
N3B Zn1B 1_555 1_555
N3C Zn1C 1_555 1_555
N3A_2 Zn1A 1_555 1_555
C1A N1A 1_555 1_555
C1B N1B 1_555 1_555
C1C N1C 1_555 1_555
C1C_2 N2C_2 1_555 1_555
C1B_2 N1B_2 1_555 1_555
C1_2 N1_2 1_555 1_555
C1A_2 N1A_2 1_555 1_555
H1A C1A 1_555 1_555
H1B C1B 1_555 1_555
H1C C1C 1_555 1_555
H1C_2 C1C_2 1_555 1_555
H1B_2 C1B_2 1_555 1_555
H1_2 C1_2 1_555 1_555
H1A_2 C1A_2 1_555 1_555
C2A N1A 1_555 1_555
C2B N1B 1_555 1_555
C2C N1C 1_555 1_555
C2C_2 N1C_2 1_555 1_555
C2B_2 N1B_2 1_555 1_555
C2_2 N1_2 1_555 1_555
C2A_2 N1A_2 1_555 1_555
H2A C2A 1_555 1_555
H2B C2B 1_555 1_555
H2C C2C 1_555 1_555
H2C_2 C2C_2 1_555 1_555
H2B_2 C2B_2 1_555 1_555
H2_2 C2_2 1_555 1_555
H2A_2 C2A_2 1_555 1_555
C3A N2A 1_555 1_555
C3B N2B 1_555 1_555
C3C N2C 1_555 1_555
C3C_2 N2C_2 1_555 1_555
C3B_2 N2B_2 1_555 1_555
C3_2 N2_2 1_555 1_555
C3A_2 N2A_2 1_555 1_555
H3A C3A 1_555 1_555
H3B C3B 1_555 1_555
H3C C3C 1_555 1_555
H3C_2 C3C_2 1_555 1_555
H3B_2 C3B_2 1_555 1_555
H3_2 C3_2 1_555 1_555
H3A_2 C3A_2 1_555 1_555
C4A C4 1_555 1_555
C4B N3B 1_555 1_555
C4C N3C 1_555 1_555
H4A C4A 1_555 1_555
H4B C4B 1_555 1_555
H4C C4C 1_555 1_555
C5B N3B 1_555 1_555
H5B C5B 1_555 1_555
C2 C3 1_555 1_555
N2A C1A 1_555 1_555
N2B C1B 1_555 1_555
N3A C4A 1_555 1_555
N3C C5B 1_555 1_555
C2A C3A 1_555 1_555
C2B C3B 1_555 1_555
C2C C3C 1_555 1_555
C2C_2 C3C_2 1_555 1_555
C2B_2 C3B_2 1_555 1_555
C2_2 C3_2 1_555 1_555
C2A_2 C3A_2 1_555 1_555
C4B C4C 1_555 1_555

#END
