
#######################################################################
#
#                 Cambridge Crystallographic Data Centre
#                                CCDC 
#
#######################################################################
#
# If this CIF has been generated from an entry in the Cambridge 
# Structural Database, then it will include bibliographic, chemical, 
# crystal, experimental, refinement or atomic coordinate data resulting 
# from the CCDC's data processing and validation procedures.
#
#######################################################################

data_XUNGIX
_symmetry_cell_setting           cubic
_symmetry_space_group_name_H-M   'P 21 3'
_symmetry_Int_Tables_number      198
_space_group_name_Hall           'P 2ac 2ab 3'
loop_
_symmetry_equiv_pos_site_id
_symmetry_equiv_pos_as_xyz
1 x,y,z
2 1/2-x,-y,1/2+z
3 1/2+x,1/2-y,-z
4 -x,1/2+y,1/2-z
5 z,x,y
6 y,z,x
7 1/2-z,-x,1/2+y
8 -y,1/2+z,1/2-x
9 1/2+z,1/2-x,-y
10 1/2-y,-z,1/2+x
11 -z,1/2+x,1/2-y
12 1/2+y,1/2-z,-x
_cell_length_a                   24.2096(30)
_cell_length_b                   24.2096(30)
_cell_length_c                   24.2096(30)
_cell_angle_alpha                90
_cell_angle_beta                 90
_cell_angle_gamma                90
_cell_volume                     14189.4
loop_
_atom_site_label
_atom_site_type_symbol
_atom_site_fract_x
_atom_site_fract_y
_atom_site_fract_z
C1 C 0.4390(5) 0.3529(4) 0.5027(4)
H1 H 0.4703 0.3760 0.5139
H2 H 0.4203 0.3699 0.4710
H3 H 0.4525 0.3161 0.4923
C2 C 0.3415(5) 0.3296(4) 0.5323(6)
H4 H 0.3333 0.3438 0.4953
H5 H 0.3145 0.3441 0.5586
H6 H 0.3396 0.2892 0.5319
C3 C 0.4233(5) 0.3064(4) 0.5859(5)
H7 H 0.4274 0.2715 0.5657
H8 H 0.3989 0.3008 0.6177
H9 H 0.4595 0.3189 0.5988
C4 C 0.3996(3) 0.3478(4) 0.5495(4)
C5 C 0.3955(4) 0.4030(3) 0.5787(4)
C6 C 0.3510(3) 0.4396(3) 0.5754(3)
H10 H 0.3191 0.4262 0.5569
C7 C 0.3476(4) 0.4912(4) 0.5951(4)
C8 C 0.3013(3) 0.5262(4) 0.5842(3)
C9 C 0.3031(4) 0.5802(5) 0.5996(4)
H11 H 0.3339 0.5939 0.6196
C10 C 0.2590(5) 0.6158(4) 0.5859(4)
H12 H 0.2635 0.6538 0.5943
C11 C 0.2103(3) 0.6003(4) 0.5616(3)
C12 C 0.2109(4) 0.5439(5) 0.5479(4)
H13 H 0.1786 0.5295 0.5308
C13 C 0.2537(4) 0.5074(4) 0.5569(4)
H14 H 0.2511 0.4702 0.5448
C14 C 0.1652(4) 0.6389(4) 0.5505(4)
C15 C 0.1611(4) 0.6855(4) 0.5748(4)
H15 H 0.1899 0.6964 0.5991
C16 C 0.1171(4) 0.7210(3) 0.5676(4)
H16 H 0.1118 0.7516 0.5915
C17 C 0.0799(4) 0.7104(4) 0.5234(4)
C18 C 0.0889(4) 0.6640(3) 0.4919(4)
H17 H 0.0660 0.6570 0.4607
C19 C 0.1311(3) 0.6268(3) 0.5050(4)
H18 H 0.1366 0.5943 0.4838
C20 C 0.0333(3) 0.7504(4) 0.5146(4)
C21 C -0.0053(4) 0.7405(3) 0.4710(4)
H19 H 0.0007 0.7089 0.4484
C22 C -0.0507(4) 0.7733(4) 0.4591(4)
C23 C -0.0878(4) 0.7599(4) 0.4132(4)
C24 C -0.0806(5) 0.8040(5) 0.3707(4)
H20 H -0.0849 0.8403 0.3881
H21 H -0.1085 0.7995 0.3417
H22 H -0.0437 0.8012 0.3544
C25 C -0.1475(4) 0.7617(3) 0.4382(4)
H23 H -0.1544 0.7983 0.4541
H24 H -0.1510 0.7336 0.4670
H25 H -0.1746 0.7544 0.4089
C26 C -0.0754(4) 0.7028(4) 0.3874(4)
H26 H -0.1053 0.6926 0.3621
H27 H -0.0724 0.6751 0.4168
H28 H -0.0404 0.7046 0.3670
C27 C 0.5483(3) 0.5613(4) 0.6222(3)
H29 H 0.5256 0.5894 0.6415
H30 H 0.5674 0.5389 0.6507
C28 C 0.4824(3) 0.5588(3) 0.5452(3)
H31 H 0.4595 0.5349 0.5213
H32 H 0.4578 0.5860 0.5633
N1 N 0.5109(2) 0.5241(3) 0.5885(2)
N2 N 0.5886(2) 0.5886(2) 0.5886(2)
O1 O 0.4398(2) 0.4142(2) 0.6057(2)
O2 O 0.3849(2) 0.51142(19) 0.6252(2)
O3 O 0.03327(18) 0.7921(2) 0.5438(2)
O4 O -0.06041(19) 0.8181(2) 0.4847(2)
Cu1 Cu 0.45256(4) 0.47829(4) 0.65056(4)
C1D C 0.5027(4) 0.4390(5) 0.3529(4)
C1E C 0.3529(4) 0.5027(4) 0.4390(5)
H1D H 0.5139 0.4703 0.3760
H1E H 0.3760 0.5139 0.4703
H2D H 0.4710 0.4203 0.3699
H2E H 0.3699 0.4710 0.4203
H3D H 0.4923 0.4525 0.3161
H3E H 0.3161 0.4923 0.4525
C2D C 0.5323(6) 0.3415(5) 0.3296(4)
C2E C 0.3296(4) 0.5323(6) 0.3415(5)
H4D H 0.4953 0.3333 0.3438
H4E H 0.3438 0.4953 0.3333
H5D H 0.5586 0.3145 0.3441
H5E H 0.3441 0.5586 0.3145
H6D H 0.5319 0.3396 0.2892
H6E H 0.2892 0.5319 0.3396
C3D C 0.5859(5) 0.4233(5) 0.3064(4)
C3E C 0.3064(4) 0.5859(5) 0.4233(5)
H7D H 0.5657 0.4274 0.2715
H7E H 0.2715 0.5657 0.4274
H8D H 0.6177 0.3989 0.3008
H8E H 0.3008 0.6177 0.3989
H9D H 0.5988 0.4595 0.3189
H9E H 0.3189 0.5988 0.4595
C4D C 0.5495(4) 0.3996(3) 0.3478(4)
C4E C 0.3478(4) 0.5495(4) 0.3996(3)
C5D C 0.5787(4) 0.3955(4) 0.4030(3)
C5E C 0.4030(3) 0.5787(4) 0.3955(4)
C6D C 0.5754(3) 0.3510(3) 0.4396(3)
C6E C 0.4396(3) 0.5754(3) 0.3510(3)
H10D H 0.5569 0.3191 0.4262
H10E H 0.4262 0.5569 0.3191
C7D C 0.5951(4) 0.3476(4) 0.4912(4)
C7E C 0.4912(4) 0.5951(4) 0.3476(4)
C8D C 0.5842(3) 0.3013(3) 0.5262(4)
C8E C 0.5262(4) 0.5842(3) 0.3013(3)
C9D C 0.5996(4) 0.3031(4) 0.5802(5)
C9E C 0.5802(5) 0.5996(4) 0.3031(4)
H11D H 0.6196 0.3339 0.5939
H11E H 0.5939 0.6196 0.3339
C10D C 0.5859(4) 0.2590(5) 0.6158(4)
C10E C 0.6158(4) 0.5859(4) 0.2590(5)
H12D H 0.5943 0.2635 0.6538
H12E H 0.6538 0.5943 0.2635
C11D C 0.5616(3) 0.2103(3) 0.6003(4)
C11E C 0.6003(4) 0.5616(3) 0.2103(3)
C12D C 0.5479(4) 0.2109(4) 0.5439(5)
C12E C 0.5439(5) 0.5479(4) 0.2109(4)
H13D H 0.5308 0.1786 0.5295
H13E H 0.5295 0.5308 0.1786
C13D C 0.5569(4) 0.2537(4) 0.5074(4)
C13E C 0.5074(4) 0.5569(4) 0.2537(4)
H14D H 0.5448 0.2511 0.4702
H14E H 0.4702 0.5448 0.2511
C14D C 0.5505(4) 0.1652(4) 0.6389(4)
C14E C 0.6389(4) 0.5505(4) 0.1652(4)
C15D C 0.5748(4) 0.1611(4) 0.6855(4)
C15E C 0.6855(4) 0.5748(4) 0.1611(4)
H15D H 0.5991 0.1899 0.6964
H15E H 0.6964 0.5991 0.1899
C16D C 0.5676(4) 0.1171(4) 0.7210(3)
C16E C 0.7210(3) 0.5676(4) 0.1171(4)
H16D H 0.5915 0.1118 0.7516
H16E H 0.7516 0.5915 0.1118
C17D C 0.5234(4) 0.0799(4) 0.7104(4)
C17E C 0.7104(4) 0.5234(4) 0.0799(4)
C18D C 0.4919(4) 0.0889(4) 0.6640(3)
C18E C 0.6640(3) 0.4919(4) 0.0889(4)
H17D H 0.4607 0.0660 0.6570
H17E H 0.6570 0.4607 0.0660
C19D C 0.5050(4) 0.1311(3) 0.6268(3)
C19E C 0.6268(3) 0.5050(4) 0.1311(3)
H18D H 0.4838 0.1366 0.5943
H18E H 0.5943 0.4838 0.1366
C20D C 0.5146(4) 0.0333(3) 0.7504(4)
C20E C 0.7504(4) 0.5146(4) 0.0333(3)
C21D C 0.4710(4) -0.0053(4) 0.7405(3)
C21E C 0.7405(3) 0.4710(4) -0.0053(4)
H19D H 0.4484 0.0007 0.7089
H19E H 0.7089 0.4484 0.0007
C22D C 0.4591(4) -0.0507(4) 0.7733(4)
C22E C 0.7733(4) 0.4591(4) -0.0507(4)
C23D C 0.4132(4) -0.0878(4) 0.7599(4)
C23E C 0.7599(4) 0.4132(4) -0.0878(4)
C24D C 0.3707(4) -0.0806(5) 0.8040(5)
C24E C 0.8040(5) 0.3707(4) -0.0806(5)
H20D H 0.3881 -0.0849 0.8403
H20E H 0.8403 0.3881 -0.0849
H21D H 0.3417 -0.1085 0.7995
H21E H 0.7995 0.3417 -0.1085
H22D H 0.3544 -0.0437 0.8012
H22E H 0.8012 0.3544 -0.0437
C25D C 0.4382(4) -0.1475(4) 0.7617(3)
C25E C 0.7617(3) 0.4382(4) -0.1475(4)
H23D H 0.4541 -0.1544 0.7983
H23E H 0.7983 0.4541 -0.1544
H24D H 0.4670 -0.1510 0.7336
H24E H 0.7336 0.4670 -0.1510
H25D H 0.4089 -0.1746 0.7544
H25E H 0.7544 0.4089 -0.1746
C26D C 0.3874(4) -0.0754(4) 0.7028(4)
C26E C 0.7028(4) 0.3874(4) -0.0754(4)
H26D H 0.3621 -0.1053 0.6926
H26E H 0.6926 0.3621 -0.1053
H27D H 0.4168 -0.0724 0.6751
H27E H 0.6751 0.4168 -0.0724
H28D H 0.3670 -0.0404 0.7046
H28E H 0.7046 0.3670 -0.0404
C27D C 0.6222(3) 0.5483(3) 0.5613(4)
C27E C 0.5613(4) 0.6222(3) 0.5483(3)
H29D H 0.6415 0.5256 0.5894
H29E H 0.5894 0.6415 0.5256
H30D H 0.6507 0.5674 0.5389
H30E H 0.5389 0.6507 0.5674
C28D C 0.5452(3) 0.4824(3) 0.5588(3)
C28E C 0.5588(3) 0.5452(3) 0.4824(3)
H31D H 0.5213 0.4595 0.5349
H31E H 0.5349 0.5213 0.4595
H32D H 0.5633 0.4578 0.5860
H32E H 0.5860 0.5633 0.4578
N1D N 0.5885(2) 0.5109(2) 0.5241(3)
N1E N 0.5241(3) 0.5885(2) 0.5109(2)
O1D O 0.6057(2) 0.4398(2) 0.4142(2)
O1E O 0.4142(2) 0.6057(2) 0.4398(2)
O2D O 0.6252(2) 0.3849(2) 0.51142(19)
O2E O 0.51142(19) 0.6252(2) 0.3849(2)
O3D O 0.5438(2) 0.03327(18) 0.7921(2)
O3E O 0.7921(2) 0.5438(2) 0.03327(18)
O3B O 0.53327(18) 0.7079(2) 0.4562(2)
O3I O 0.7079(2) 0.4562(2) 0.53327(18)
O3J O 0.4562(2) 0.53327(18) 0.7079(2)
O4D O 0.4847(2) -0.06041(19) 0.8181(2)
O4E O 0.8181(2) 0.4847(2) -0.06041(19)
O4B O 0.43959(19) 0.6819(2) 0.5153(2)
O4I O 0.6819(2) 0.5153(2) 0.43959(19)
O4J O 0.5153(2) 0.43959(19) 0.6819(2)
Cu1D Cu 0.65056(4) 0.45256(4) 0.47829(4)
Cu1E Cu 0.47829(4) 0.65056(4) 0.45256(4)
Cu1C Cu 0.54744(4) -0.02171(4) 0.84944(4)
Cu1F Cu 0.84944(4) 0.54744(4) -0.02171(4)
Cu1K Cu -0.02171(4) 0.84944(4) 0.54744(4)
loop_
_geom_bond_atom_site_label_1
_geom_bond_atom_site_label_2
_geom_bond_site_symmetry_1
_geom_bond_site_symmetry_2
C1 H1 1_555 1_555
H2 C1 1_555 1_555
H3 C1 1_555 1_555
C2 H4 1_555 1_555
H5 C2 1_555 1_555
H6 C2 1_555 1_555
C3 H7 1_555 1_555
H8 C3 1_555 1_555
H9 C3 1_555 1_555
C4 C1 1_555 1_555
C5 C4 1_555 1_555
C6 C5 1_555 1_555
H10 C6 1_555 1_555
C7 C6 1_555 1_555
C8 C7 1_555 1_555
C9 C8 1_555 1_555
H11 C9 1_555 1_555
C10 C9 1_555 1_555
H12 C10 1_555 1_555
C11 C10 1_555 1_555
C12 C11 1_555 1_555
H13 C12 1_555 1_555
C13 C8 1_555 1_555
H14 C13 1_555 1_555
C14 C11 1_555 1_555
C15 C14 1_555 1_555
H15 C15 1_555 1_555
C16 C15 1_555 1_555
H16 C16 1_555 1_555
C17 C16 1_555 1_555
C18 C17 1_555 1_555
H17 C18 1_555 1_555
C19 C14 1_555 1_555
H18 C19 1_555 1_555
C20 C17 1_555 1_555
C21 C20 1_555 1_555
H19 C21 1_555 1_555
C22 C21 1_555 1_555
C23 C22 1_555 1_555
C24 C23 1_555 1_555
H20 C24 1_555 1_555
H21 C24 1_555 1_555
H22 C24 1_555 1_555
C25 C23 1_555 1_555
H23 C25 1_555 1_555
H24 C25 1_555 1_555
H25 C25 1_555 1_555
C26 C23 1_555 1_555
H26 C26 1_555 1_555
H27 C26 1_555 1_555
H28 C26 1_555 1_555
C27 H29 1_555 1_555
H30 C27 1_555 1_555
C28 H31 1_555 1_555
H32 C28 1_555 1_555
N1 C27 1_555 1_555
N2 C27 1_555 1_555
O1 C5 1_555 1_555
O2 C7 1_555 1_555
O3 C20 1_555 1_555
O4 C22 1_555 1_555
Cu1 N1 1_555 1_555
C1D H1D 1_555 1_555
C1E H1E 1_555 1_555
H2D C1D 1_555 1_555
H2E C1E 1_555 1_555
H3D C1D 1_555 1_555
H3E C1E 1_555 1_555
C2D H4D 1_555 1_555
C2E H4E 1_555 1_555
H5D C2D 1_555 1_555
H5E C2E 1_555 1_555
H6D C2D 1_555 1_555
H6E C2E 1_555 1_555
C3D H7D 1_555 1_555
C3E H7E 1_555 1_555
H8D C3D 1_555 1_555
H8E C3E 1_555 1_555
H9D C3D 1_555 1_555
H9E C3E 1_555 1_555
C4D C1D 1_555 1_555
C4E C1E 1_555 1_555
C5D C4D 1_555 1_555
C5E C4E 1_555 1_555
C6D C5D 1_555 1_555
C6E C5E 1_555 1_555
H10D C6D 1_555 1_555
H10E C6E 1_555 1_555
C7D C6D 1_555 1_555
C7E C6E 1_555 1_555
C8D C7D 1_555 1_555
C8E C7E 1_555 1_555
C9D C8D 1_555 1_555
C9E C8E 1_555 1_555
H11D C9D 1_555 1_555
H11E C9E 1_555 1_555
C10D C9D 1_555 1_555
C10E C9E 1_555 1_555
H12D C10D 1_555 1_555
H12E C10E 1_555 1_555
C11D C10D 1_555 1_555
C11E C10E 1_555 1_555
C12D C11D 1_555 1_555
C12E C11E 1_555 1_555
H13D C12D 1_555 1_555
H13E C12E 1_555 1_555
C13D C8D 1_555 1_555
C13E C8E 1_555 1_555
H14D C13D 1_555 1_555
H14E C13E 1_555 1_555
C14D C11D 1_555 1_555
C14E C11E 1_555 1_555
C15D C14D 1_555 1_555
C15E C14E 1_555 1_555
H15D C15D 1_555 1_555
H15E C15E 1_555 1_555
C16D C15D 1_555 1_555
C16E C15E 1_555 1_555
H16D C16D 1_555 1_555
H16E C16E 1_555 1_555
C17D C16D 1_555 1_555
C17E C16E 1_555 1_555
C18D C17D 1_555 1_555
C18E C17E 1_555 1_555
H17D C18D 1_555 1_555
H17E C18E 1_555 1_555
C19D C14D 1_555 1_555
C19E C14E 1_555 1_555
H18D C19D 1_555 1_555
H18E C19E 1_555 1_555
C20D C17D 1_555 1_555
C20E C17E 1_555 1_555
C21D C20D 1_555 1_555
C21E C20E 1_555 1_555
H19D C21D 1_555 1_555
H19E C21E 1_555 1_555
C22D C21D 1_555 1_555
C22E C21E 1_555 1_555
C23D C22D 1_555 1_555
C23E C22E 1_555 1_555
C24D C23D 1_555 1_555
C24E C23E 1_555 1_555
H20D C24D 1_555 1_555
H20E C24E 1_555 1_555
H21D C24D 1_555 1_555
H21E C24E 1_555 1_555
H22D C24D 1_555 1_555
H22E C24E 1_555 1_555
C25D C23D 1_555 1_555
C25E C23E 1_555 1_555
H23D C25D 1_555 1_555
H23E C25E 1_555 1_555
H24D C25D 1_555 1_555
H24E C25E 1_555 1_555
H25D C25D 1_555 1_555
H25E C25E 1_555 1_555
C26D C23D 1_555 1_555
C26E C23E 1_555 1_555
H26D C26D 1_555 1_555
H26E C26E 1_555 1_555
H27D C26D 1_555 1_555
H27E C26E 1_555 1_555
H28D C26D 1_555 1_555
H28E C26E 1_555 1_555
C27D N2 1_555 1_555
C27E N2 1_555 1_555
H29D C27D 1_555 1_555
H29E C27E 1_555 1_555
H30D C27D 1_555 1_555
H30E C27E 1_555 1_555
C28D N1 1_555 1_555
C28E H31E 1_555 1_555
H31D C28D 1_555 1_555
H32D C28D 1_555 1_555
H32E C28E 1_555 1_555
N1D C27D 1_555 1_555
N1E C28 1_555 1_555
O1D C5D 1_555 1_555
O1E C5E 1_555 1_555
O2D C7D 1_555 1_555
O2E C7E 1_555 1_555
O3D C20D 1_555 1_555
O3E C20E 1_555 1_555
O3B Cu1E 1_555 1_555
O3I Cu1D 1_555 1_555
O3J Cu1 1_555 1_555
O4D C22D 1_555 1_555
O4E C22E 1_555 1_555
O4B Cu1E 1_555 1_555
O4I Cu1D 1_555 1_555
O4J Cu1 1_555 1_555
Cu1D N1D 1_555 1_555
Cu1E N1E 1_555 1_555
Cu1C O3D 1_555 1_555
Cu1F O3E 1_555 1_555
Cu1K O3 1_555 1_555
C2 C4 1_555 1_555
C3 C4 1_555 1_555
C12 C13 1_555 1_555
C18 C19 1_555 1_555
C28 N1 1_555 1_555
O1 Cu1 1_555 1_555
O2 Cu1 1_555 1_555
O4 Cu1K 1_555 1_555
C2D C4D 1_555 1_555
C2E C4E 1_555 1_555
C3D C4D 1_555 1_555
C3E C4E 1_555 1_555
C12D C13D 1_555 1_555
C12E C13E 1_555 1_555
C18D C19D 1_555 1_555
C18E C19E 1_555 1_555
C27E N1E 1_555 1_555
C28D N1D 1_555 1_555
C28E N1D 1_555 1_555
C28E N1E 1_555 1_555
O1D Cu1D 1_555 1_555
O1E Cu1E 1_555 1_555
O2D Cu1D 1_555 1_555
O2E Cu1E 1_555 1_555
O4D Cu1C 1_555 1_555
O4E Cu1F 1_555 1_555

#END
