
#######################################################################
#
#                 Cambridge Crystallographic Data Centre
#                                CCDC 
#
#######################################################################
#
# If this CIF has been generated from an entry in the Cambridge 
# Structural Database, then it will include bibliographic, chemical, 
# crystal, experimental, refinement or atomic coordinate data resulting 
# from the CCDC's data processing and validation procedures.
#
#######################################################################

data_XUNMIE
_symmetry_cell_setting           orthorhombic
_symmetry_space_group_name_H-M   'P b c a'
_symmetry_Int_Tables_number      61
_space_group_name_Hall           '-P 2ac 2ab'
loop_
_symmetry_equiv_pos_site_id
_symmetry_equiv_pos_as_xyz
1 x,y,z
2 1/2-x,-y,1/2+z
3 1/2+x,1/2-y,-z
4 -x,1/2+y,1/2-z
5 -x,-y,-z
6 1/2+x,y,1/2-z
7 1/2-x,1/2+y,z
8 x,1/2-y,1/2+z
_cell_length_a                   21.8299(3)
_cell_length_b                   13.12475(11)
_cell_length_c                   22.6416(3)
_cell_angle_alpha                90
_cell_angle_beta                 90
_cell_angle_gamma                90
_cell_volume                     6487.09
loop_
_atom_site_label
_atom_site_type_symbol
_atom_site_fract_x
_atom_site_fract_y
_atom_site_fract_z
Ag1 Ag 0.205616(8) 0.296437(12) 0.229927(8)
P1 P 0.18960(3) 0.41929(4) 0.30592(3)
N1 N 0.25811(14) 0.72163(17) 0.14677(11)
N2 N 0.23206(12) 0.62758(16) 0.14461(10)
N3 N 0.30527(12) 0.62412(17) 0.26292(12)
N4 N 0.28334(10) 0.55175(15) 0.22611(10)
C1 C 0.15751(12) 0.54528(17) 0.28848(12)
C2 C 0.17452(12) 0.60217(17) 0.23852(12)
C3 C 0.14200(14) 0.6907(2) 0.22510(14)
H1 H 0.1522 0.7281 0.1906
C4 C 0.09504(14) 0.7251(2) 0.26124(16)
H2 H 0.0736 0.7856 0.2513
C5 C 0.07951(14) 0.67200(19) 0.31114(16)
H3 H 0.0480 0.6966 0.3364
C6 C 0.11005(13) 0.58184(19) 0.32474(14)
H4 H 0.0987 0.5445 0.3590
C7 C 0.22446(12) 0.56427(16) 0.19737(12)
H5 H 0.2116 0.4952 0.1834
C8 C 0.2563(2) 0.7561(3) 0.09163(15)
H6 H 0.2710 0.8209 0.0795
C9 C 0.2298(3) 0.6843(3) 0.05383(17)
H7 H 0.2235 0.6906 0.0125
C10 C 0.2149(2) 0.6037(3) 0.08857(15)
H8 H 0.1960 0.5422 0.0761
C11 C 0.36227(16) 0.5931(2) 0.27531(17)
H9 H 0.3896 0.6285 0.3008
C12 C 0.37650(15) 0.5032(2) 0.2465(2)
H10 H 0.4140 0.4666 0.2484
C13 C 0.32537(13) 0.4782(2) 0.21472(16)
H11 H 0.3203 0.4208 0.1897
C14 C 0.13119(13) 0.36350(17) 0.35331(12)
C15 C 0.07631(13) 0.3317(2) 0.32782(12)
H12 H 0.0706 0.3387 0.2864
C16 C 0.03006(14) 0.29022(19) 0.36197(13)
H13 H -0.0072 0.2701 0.3436
C17 C 0.03684(15) 0.2773(2) 0.42253(13)
C18 C 0.09245(17) 0.3057(2) 0.44771(14)
H14 H 0.0987 0.2952 0.4888
C19 C 0.13910(15) 0.3490(2) 0.41421(13)
H15 H 0.1764 0.3687 0.4326
C20 C -0.01450(18) 0.2350(3) 0.45919(15)
H16 H -0.0501 0.2219 0.4339
H17 H -0.0256 0.2843 0.4899
H18 H -0.0013 0.1712 0.4777
C21 C 0.25306(12) 0.44389(19) 0.35557(12)
C22 C 0.25841(14) 0.5341(2) 0.38755(14)
H19 H 0.2290 0.5866 0.3822
C23 C 0.30611(15) 0.5481(2) 0.42696(14)
H20 H 0.3089 0.6103 0.4483
C24 C 0.35010(12) 0.4727(2) 0.43606(12)
C25 C 0.34478(12) 0.3828(2) 0.40370(12)
H21 H 0.3742 0.3302 0.4091
C26 C 0.29746(12) 0.3687(2) 0.36386(12)
H22 H 0.2952 0.3072 0.3419
C27 C 0.40230(14) 0.4888(3) 0.47860(14)
H23 H 0.3994 0.5571 0.4958
H24 H 0.4413 0.4819 0.4575
H25 H 0.4001 0.4377 0.5101
Ag1F Ag 0.294384(8) 0.796437(12) 0.229927(8)
N1F N 0.24189(14) 0.22163(17) 0.14677(11)
N3F N 0.19473(12) 0.12412(17) 0.26292(12)
S1 S 0.08623(3) 0.35035(4) 0.13554(3)
F1 F 0.02787(8) 0.52137(15) 0.11629(9)
F2 F -0.02691(9) 0.40583(18) 0.15709(9)
F3 F 0.04013(9) 0.48661(13) 0.20790(9)
O1 O 0.08586(14) 0.28230(15) 0.18526(10)
O2 O 0.14142(9) 0.41015(15) 0.12980(10)
O3 O 0.06360(12) 0.30848(17) 0.08129(9)
C28 C 0.02931(12) 0.4465(2) 0.15516(13)
loop_
_geom_bond_atom_site_label_1
_geom_bond_atom_site_label_2
_geom_bond_site_symmetry_1
_geom_bond_site_symmetry_2
Ag1 P1 1_555 1_555
P1 C1 1_555 1_555
N1 N2 1_555 1_555
N2 C7 1_555 1_555
N3 N4 1_555 1_555
N4 C7 1_555 1_555
C1 C2 1_555 1_555
C2 C3 1_555 1_555
C3 H1 1_555 1_555
C4 C3 1_555 1_555
H2 C4 1_555 1_555
C5 C4 1_555 1_555
H3 C5 1_555 1_555
C6 C1 1_555 1_555
H4 C6 1_555 1_555
C7 C2 1_555 1_555
H5 C7 1_555 1_555
C8 N1 1_555 1_555
H6 C8 1_555 1_555
C9 C8 1_555 1_555
H7 C9 1_555 1_555
C10 N2 1_555 1_555
H8 C10 1_555 1_555
C11 N3 1_555 1_555
H9 C11 1_555 1_555
C12 C11 1_555 1_555
H10 C12 1_555 1_555
C13 N4 1_555 1_555
H11 C13 1_555 1_555
C14 P1 1_555 1_555
C15 C14 1_555 1_555
H12 C15 1_555 1_555
C16 C15 1_555 1_555
H13 C16 1_555 1_555
C17 C16 1_555 1_555
C18 C17 1_555 1_555
H14 C18 1_555 1_555
C19 C14 1_555 1_555
H15 C19 1_555 1_555
C20 C17 1_555 1_555
H16 C20 1_555 1_555
H17 C20 1_555 1_555
H18 C20 1_555 1_555
C21 P1 1_555 1_555
C22 C21 1_555 1_555
H19 C22 1_555 1_555
C23 C22 1_555 1_555
H20 C23 1_555 1_555
C24 C23 1_555 1_555
C25 C24 1_555 1_555
H21 C25 1_555 1_555
C26 C21 1_555 1_555
H22 C26 1_555 1_555
C27 C24 1_555 1_555
H23 C27 1_555 1_555
H24 C27 1_555 1_555
H25 C27 1_555 1_555
S1 O1 1_555 1_555
F1 C28 1_555 1_555
F2 C28 1_555 1_555
F3 C28 1_555 1_555
O2 S1 1_555 1_555
O3 S1 1_555 1_555
C28 S1 1_555 1_555
Ag1F N1 1_555 1_555
N1F Ag1 1_555 1_555
N3F Ag1 1_555 1_555
N3 Ag1F 1_555 1_555
C5 C6 1_555 1_555
C9 C10 1_555 1_555
C12 C13 1_555 1_555
C18 C19 1_555 1_555
C25 C26 1_555 1_555

#END
