
#######################################################################
#
#                 Cambridge Crystallographic Data Centre
#                                CCDC 
#
#######################################################################
#
# If this CIF has been generated from an entry in the Cambridge 
# Structural Database, then it will include bibliographic, chemical, 
# crystal, experimental, refinement or atomic coordinate data resulting 
# from the CCDC's data processing and validation procedures.
#
#######################################################################

data_XUNTEH01
_symmetry_cell_setting           monoclinic
_symmetry_space_group_name_H-M   'P 21/n'
_symmetry_Int_Tables_number      14
_space_group_name_Hall           '-P 2yn'
loop_
_symmetry_equiv_pos_site_id
_symmetry_equiv_pos_as_xyz
1 x,y,z
2 1/2-x,1/2+y,1/2-z
3 -x,-y,-z
4 1/2+x,1/2-y,1/2+z
_cell_length_a                   5.21200(10)
_cell_length_b                   18.8836(5)
_cell_length_c                   11.8624(3)
_cell_angle_alpha                90
_cell_angle_beta                 101.984(3)
_cell_angle_gamma                90
_cell_volume                     1142.07
loop_
_atom_site_label
_atom_site_type_symbol
_atom_site_fract_x
_atom_site_fract_y
_atom_site_fract_z
O1 O 0.24873(17) 0.53639(5) 0.61801(8)
O2 O 0.65951(16) 0.49855(5) 0.63686(8)
O3 O 0.64475(18) 0.62893(5) 0.48862(8)
O4 O 1.01862(18) 0.63970(5) 0.42784(9)
N1 N 0.5066(2) 0.84345(6) 0.22867(10)
C1 C 0.3963(2) 0.82175(7) 0.31501(12)
H1 H 0.2557 0.8489 0.3322
C2 C 0.7899(2) 0.65855(7) 0.42985(11)
C3 C 0.4755(3) 0.76190(7) 0.38081(12)
H2 H 0.3882 0.7481 0.4401
C4 C 0.4288(2) 0.46171(7) 0.77781(11)
N2 N 0.4152(3) 0.38459(8) 0.97860(11)
C5 C 0.6847(2) 0.72254(7) 0.35867(11)
C6 C 0.2450(3) 0.47682(8) 0.84355(13)
H3 H 0.1190 0.5132 0.8212
C7 C 0.4438(2) 0.50217(7) 0.66971(11)
C8 C 0.8013(3) 0.74454(7) 0.26949(12)
H4 H 0.9445 0.7189 0.2517
C9 C 0.6062(3) 0.40742(8) 0.81469(12)
H5 H 0.7371 0.3959 0.7727
C10 C 0.7069(3) 0.80410(8) 0.20707(12)
H6 H 0.7872 0.8181 0.1457
C11 C 0.2488(3) 0.43757(10) 0.94281(13)
H7 H 0.1248 0.4492 0.9883
C12 C 0.5892(3) 0.37044(9) 0.91355(14)
H8 H 0.7088 0.3326 0.9365
Li1 Li 0.3116(4) 0.57956(12) 0.4718(2)
Li2 Li -0.1070(4) 0.57385(12) 0.6101(2)
O2_2 O -0.34049(16) 0.49855(5) 0.63686(8)
O2B O 0.34049(16) 0.50145(5) 0.36314(8)
O3_2 O -0.35525(18) 0.62893(5) 0.48862(8)
O4_2 O 0.01862(18) 0.63970(5) 0.42784(9)
N1C N 0.0066(2) 0.65655(6) 0.72867(10)
Li1_2 Li 1.3116(4) 0.57956(12) 0.4718(2)
Li1B Li 0.6884(4) 0.42044(12) 0.5282(2)
Li2_2 Li 0.8930(4) 0.57385(12) 0.6101(2)
Li2C Li 0.3930(4) 0.92615(12) 0.1101(2)
loop_
_geom_bond_atom_site_label_1
_geom_bond_atom_site_label_2
_geom_bond_site_symmetry_1
_geom_bond_site_symmetry_2
O1 C7 1_555 1_555
O2 C7 1_555 1_555
O3 C2 1_555 1_555
O4 C2 1_555 1_555
N1 C1 1_555 1_555
C1 H1 1_555 1_555
C2 C5 1_555 1_555
C3 C1 1_555 1_555
H2 C3 1_555 1_555
C4 C6 1_555 1_555
N2 C11 1_555 1_555
C5 C3 1_555 1_555
C6 H3 1_555 1_555
C7 C4 1_555 1_555
C8 C5 1_555 1_555
H4 C8 1_555 1_555
C9 C4 1_555 1_555
H5 C9 1_555 1_555
C10 N1 1_555 1_555
H6 C10 1_555 1_555
C11 C6 1_555 1_555
H7 C11 1_555 1_555
C12 N2 1_555 1_555
H8 C12 1_555 1_555
Li1 O1 1_555 1_555
Li2 O1 1_555 1_555
O2_2 Li2 1_555 1_555
O2B Li1 1_555 1_555
O3_2 Li2 1_555 1_555
O4_2 Li1 1_555 1_555
N1C Li2 1_555 1_555
Li1_2 O4 1_555 1_555
Li1B O2 1_555 1_555
Li2_2 O2 1_555 1_555
Li2C N1 1_555 1_555
O3 Li1 1_555 1_555
O3 Li2_2 1_555 1_555
C8 C10 1_555 1_555
C9 C12 1_555 1_555

#END
