
#######################################################################
#
#                 Cambridge Crystallographic Data Centre
#                                CCDC 
#
#######################################################################
#
# If this CIF has been generated from an entry in the Cambridge 
# Structural Database, then it will include bibliographic, chemical, 
# crystal, experimental, refinement or atomic coordinate data resulting 
# from the CCDC's data processing and validation procedures.
#
#######################################################################

data_XUNXOU01
_symmetry_cell_setting           monoclinic
_symmetry_space_group_name_H-M   'P 21'
_symmetry_Int_Tables_number      4
_space_group_name_Hall           'P 2yb'
loop_
_symmetry_equiv_pos_site_id
_symmetry_equiv_pos_as_xyz
1 x,y,z
2 -x,1/2+y,-z
_cell_length_a                   10.4406(4)
_cell_length_b                   14.5752(7)
_cell_length_c                   18.1024(10)
_cell_angle_alpha                90
_cell_angle_beta                 94.020(3)
_cell_angle_gamma                90
_cell_volume                     2747.93
loop_
_atom_site_label
_atom_site_type_symbol
_atom_site_fract_x
_atom_site_fract_y
_atom_site_fract_z
Na1 Na 0.7961(5) 1.2729(4) 0.5093(3)
Cr1 Cr 0.6991(2) 0.9000(2) 0.49301(16)
C1 C 0.7925(14) 1.0685(10) 0.5361(9)
C2 C 0.6943(14) 1.0854(10) 0.4679(9)
O1 O 0.8006(9) 0.9867(7) 0.5562(6)
O2 O 0.6339(10) 1.0139(7) 0.4443(6)
O3 O 0.6810(10) 1.1628(7) 0.4407(7)
O4 O 0.8495(10) 1.1358(7) 0.5629(6)
C3 C 0.4664(13) 0.8238(10) 0.4495(8)
C4 C 0.4518(12) 0.8746(10) 0.5227(8)
O5 O 0.5810(9) 0.8214(8) 0.4278(6)
O6 O 0.5550(8) 0.8979(7) 0.5592(5)
O7 O 0.3408(9) 0.8790(7) 0.5506(6)
O8 O 0.3682(9) 0.7892(9) 0.4156(6)
C5 C 0.9383(13) 0.8642(10) 0.4528(9)
C6 C 0.9150(13) 0.8012(10) 0.5222(8)
O9 O 0.8419(9) 0.8980(8) 0.4239(6)
O10 O 0.8011(9) 0.7970(7) 0.5398(6)
O11 O 1.0125(9) 0.7616(8) 0.5544(6)
O12 O 1.0466(9) 0.8628(8) 0.4304(7)
Na1A Na 0.2039(5) 0.7729(4) 0.4907(3)
Na1A_2 Na 1.2039(5) 0.7729(4) 0.4907(3)
C3A C 0.5336(13) 1.3238(10) 0.5505(8)
C4A C 0.5482(12) 1.3746(10) 0.4773(8)
O7A O 0.6592(9) 1.3790(7) 0.4494(6)
O8A O 0.6318(9) 1.2892(9) 0.5844(6)
O11A O 0.9875(9) 1.2616(8) 0.4456(6)
O12A O 0.9534(9) 1.3628(8) 0.5696(7)
C7 C 0.0980(14) 0.5947(9) -0.3193(7)
H1 H 0.0743 0.6245 -0.3674
H2 H 0.1702 0.5525 -0.3268
C8 C -0.0136(13) 0.5387(10) -0.2984(7)
H3 H -0.0412 0.4989 -0.3409
H4 H -0.0856 0.5808 -0.2900
C9 C 0.1012(13) 0.5407(9) -0.1572(7)
C10 C 0.1585(14) 0.6222(10) -0.1722(7)
C11 C 0.2211(13) 0.5877(10) -0.0353(7)
C12 C 0.2783(14) 0.5870(10) 0.0361(7)
C13 C 0.4048(13) 0.6291(9) 0.1584(7)
C14 C 0.3514(13) 0.5505(9) 0.1727(6)
C15 C 0.4095(14) 0.5777(11) 0.3215(8)
H5 H 0.3377 0.6211 0.3269
H6 H 0.4311 0.5494 0.3705
C16 C 0.5226(13) 0.6298(11) 0.2990(8)
H7 H 0.5908 0.5855 0.2885
H8 H 0.5557 0.6680 0.3413
S1 S 0.1545(4) 0.6820(3) -0.2550(3)
S2 S 0.0145(4) 0.4686(3) -0.2188(3)
S3 S 0.1195(4) 0.4973(3) -0.0669(2)
S4 S 0.2434(4) 0.6760(3) -0.0956(3)
S5 S 0.3819(4) 0.6733(3) 0.0680(3)
S6 S 0.2605(4) 0.4962(3) 0.0990(3)
S7 S 0.3567(4) 0.4887(4) 0.2564(3)
S8 S 0.4930(4) 0.7038(3) 0.2186(3)
C17 C 0.9902(10) 0.6908(9) 0.2953(7)
H9 H 0.9828 0.6886 0.3495
H10 H 1.0181 0.6292 0.2799
C18 C 1.0951(10) 0.7584(8) 0.2801(6)
H11 H 1.1710 0.7466 0.3146
H12 H 1.0646 0.8214 0.2893
C19 C 0.9948(10) 0.7367(13) 0.1364(6)
C20 C 0.8759(11) 0.7260(14) 0.1615(6)
C21 C 0.8415(11) 0.7267(14) 0.0191(7)
C22 C 0.7879(10) 0.7300(12) -0.0539(6)
C23 C 0.6315(10) 0.7311(11) -0.1705(6)
C24 C 0.7459(10) 0.7382(10) -0.1969(6)
C25 C 0.6424(11) 0.7068(10) -0.3352(7)
H13 H 0.6473 0.7136 -0.3893
H14 H 0.6396 0.6404 -0.3240
C26 C 0.5225(11) 0.7501(12) -0.3133(7)
H15 H 0.4509 0.7303 -0.3485
H16 H 0.5309 0.8175 -0.3181
S9 S 0.8344(4) 0.7116(4) 0.2520(2)
S10 S 1.1412(3) 0.7507(3) 0.1867(2)
S11 S 1.0042(3) 0.7427(4) 0.0405(2)
S12 S 0.7496(4) 0.7136(4) 0.0923(2)
S13 S 0.6249(3) 0.7175(4) -0.0748(2)
S14 S 0.8791(4) 0.7426(4) -0.1300(2)
S15 S 0.7853(3) 0.7557(3) -0.2885(2)
S16 S 0.4810(3) 0.7238(3) -0.2197(2)
C27 C 0.8596(11) 0.4521(13) 0.3386(8)
H17 H 0.8635 0.5199 0.3356
H18 H 0.8543 0.4357 0.3913
C28 C 0.9820(12) 0.4142(15) 0.3133(7)
H19 H 0.9767 0.3465 0.3150
H20 H 1.0526 0.4331 0.3494
C29 C 0.8760(10) 0.4428(12) 0.1734(7)
C30 C 0.7585(10) 0.4268(12) 0.1989(6)
C31 C 0.7200(11) 0.4446(13) 0.0572(7)
C32 C 0.6652(11) 0.4455(14) -0.0154(6)
C33 C 0.5140(10) 0.4378(11) -0.1334(7)
C34 C 0.6285(10) 0.4518(12) -0.1586(6)
C35 C 0.5264(11) 0.4437(14) -0.3023(8)
H21 H 0.5327 0.4771 -0.3495
H22 H 0.5206 0.3776 -0.3147
C36 C 0.4069(13) 0.4693(13) -0.2738(8)
H23 H 0.3376 0.4503 -0.3108
H24 H 0.4048 0.5371 -0.2716
S17 S 0.7154(3) 0.4147(3) 0.2886(2)
S18 S 1.0248(3) 0.4464(3) 0.2230(2)
S19 S 0.8842(4) 0.4561(4) 0.0777(2)
S20 S 0.6282(3) 0.4312(3) 0.1303(2)
S21 S 0.5036(3) 0.4344(3) -0.0379(2)
S22 S 0.7593(4) 0.4604(3) -0.0907(2)
S23 S 0.6723(4) 0.4602(4) -0.2494(3)
S24 S 0.3656(4) 0.4267(3) -0.1846(2)
C37 C 0.8217(16) 0.5719(14) 0.5230(11)
H25 H 0.8845 0.5348 0.4985
H26 H 0.7755 0.5330 0.5564
H27 H 0.8663 0.6210 0.5515
N1 N 0.7330(13) 0.6111(11) 0.4688(9)
O13 O 0.6208(10) 0.6078(9) 0.4839(7)
O14 O 0.7726(10) 0.6447(9) 0.4148(7)
loop_
_geom_bond_atom_site_label_1
_geom_bond_atom_site_label_2
_geom_bond_site_symmetry_1
_geom_bond_site_symmetry_2
Na1 O3 1_555 1_555
Cr1 O1 1_555 1_555
C1 C2 1_555 1_555
C2 O2 1_555 1_555
O1 C1 1_555 1_555
O2 Cr1 1_555 1_555
O3 C2 1_555 1_555
O4 Na1 1_555 1_555
C3 C4 1_555 1_555
C4 O6 1_555 1_555
O5 Cr1 1_555 1_555
O6 Cr1 1_555 1_555
O7 C4 1_555 1_555
O8 C3 1_555 1_555
C5 C6 1_555 1_555
C6 O10 1_555 1_555
O9 Cr1 1_555 1_555
O10 Cr1 1_555 1_555
O11 C6 1_555 1_555
O12 C5 1_555 1_555
C7 H1 1_555 1_555
H2 C7 1_555 1_555
C8 C7 1_555 1_555
H3 C8 1_555 1_555
H4 C8 1_555 1_555
C9 C10 1_555 1_555
C10 S1 1_555 1_555
C11 C12 1_555 1_555
C12 S5 1_555 1_555
C13 C14 1_555 1_555
C14 S6 1_555 1_555
C15 H5 1_555 1_555
H6 C15 1_555 1_555
C16 C15 1_555 1_555
H7 C16 1_555 1_555
H8 C16 1_555 1_555
S1 C7 1_555 1_555
S2 C8 1_555 1_555
S3 C9 1_555 1_555
S4 C10 1_555 1_555
S5 C13 1_555 1_555
S6 C12 1_555 1_555
S7 C14 1_555 1_555
S8 C13 1_555 1_555
C17 H9 1_555 1_555
H10 C17 1_555 1_555
C18 C17 1_555 1_555
H11 C18 1_555 1_555
H12 C18 1_555 1_555
C19 C20 1_555 1_555
C20 S9 1_555 1_555
C21 C22 1_555 1_555
C22 S13 1_555 1_555
C23 C24 1_555 1_555
C24 S14 1_555 1_555
C25 H13 1_555 1_555
H14 C25 1_555 1_555
C26 C25 1_555 1_555
H15 C26 1_555 1_555
H16 C26 1_555 1_555
S9 C17 1_555 1_555
S10 C18 1_555 1_555
S11 C19 1_555 1_555
S12 C20 1_555 1_555
S13 C23 1_555 1_555
S14 C22 1_555 1_555
S15 C24 1_555 1_555
S16 C23 1_555 1_555
C27 H17 1_555 1_555
H18 C27 1_555 1_555
C28 C27 1_555 1_555
H19 C28 1_555 1_555
H20 C28 1_555 1_555
C29 C30 1_555 1_555
C30 S17 1_555 1_555
C31 C32 1_555 1_555
C32 S21 1_555 1_555
C33 C34 1_555 1_555
C34 S22 1_555 1_555
C35 H21 1_555 1_555
H22 C35 1_555 1_555
C36 C35 1_555 1_555
H23 C36 1_555 1_555
H24 C36 1_555 1_555
S17 C27 1_555 1_555
S18 C28 1_555 1_555
S19 C29 1_555 1_555
S20 C30 1_555 1_555
S21 C33 1_555 1_555
S22 C32 1_555 1_555
S23 C34 1_555 1_555
S24 C33 1_555 1_555
C37 H25 1_555 1_555
H26 C37 1_555 1_555
H27 C37 1_555 1_555
N1 C37 1_555 1_555
O13 N1 1_555 1_555
O14 N1 1_555 1_555
Na1A O7 1_555 1_555
Na1A_2 O11 1_555 1_555
C3A C4A 1_555 1_555
C4A O7A 1_555 1_555
O7A Na1 1_555 1_555
O8A Na1 1_555 1_555
O11A Na1 1_555 1_555
O12A Na1 1_555 1_555
C1 O4 1_555 1_555
C3 O5 1_555 1_555
O8 Na1A 1_555 1_555
C5 O9 1_555 1_555
O12 Na1A_2 1_555 1_555
C9 S2 1_555 1_555
C11 S3 1_555 1_555
C11 S4 1_555 1_555
C15 S7 1_555 1_555
C16 S8 1_555 1_555
C19 S10 1_555 1_555
C21 S11 1_555 1_555
C21 S12 1_555 1_555
C25 S15 1_555 1_555
C26 S16 1_555 1_555
C29 S18 1_555 1_555
C31 S19 1_555 1_555
C31 S20 1_555 1_555
C35 S23 1_555 1_555
C36 S24 1_555 1_555
C3A O8A 1_555 1_555

#END
