
#######################################################################
#
#                 Cambridge Crystallographic Data Centre
#                                CCDC 
#
#######################################################################
#
# If this CIF has been generated from an entry in the Cambridge 
# Structural Database, then it will include bibliographic, chemical, 
# crystal, experimental, refinement or atomic coordinate data resulting 
# from the CCDC's data processing and validation procedures.
#
#######################################################################

data_XUNYIO
_symmetry_cell_setting           monoclinic
_symmetry_space_group_name_H-M   'P 21/c'
_symmetry_Int_Tables_number      14
_space_group_name_Hall           '-P 2ybc'
loop_
_symmetry_equiv_pos_site_id
_symmetry_equiv_pos_as_xyz
1 x,y,z
2 x,1/2-y,1/2+z
3 -x,-y,-z
4 -x,1/2+y,1/2-z
_cell_length_a                   11.174(3)
_cell_length_b                   15.284(4)
_cell_length_c                   22.331(6)
_cell_angle_alpha                90
_cell_angle_beta                 93.629(5)
_cell_angle_gamma                90
_cell_volume                     3806.12
loop_
_atom_site_label
_atom_site_type_symbol
_atom_site_fract_x
_atom_site_fract_y
_atom_site_fract_z
Cu1 Cu 0.19758(5) 0.26796(4) 0.74729(2)
N1 N 0.3805(3) 0.2740(3) 0.75020(15)
N2 N 1.0140(3) 0.2749(3) 0.74348(16)
N3 N 0.1971(3) 0.2647(3) 0.65649(16)
N4 N 0.2004(3) 0.2388(3) 0.33839(15)
C1 C 0.4378(4) 0.3405(4) 0.7253(2)
H1 H 0.3919 0.3860 0.7083
C2 C 0.5605(4) 0.3455(4) 0.7236(2)
H2 H 0.5961 0.3944 0.7074
C3 C 0.6306(4) 0.2767(4) 0.7461(2)
C4 C 0.5711(4) 0.2066(4) 0.7719(2)
H3 H 0.6147 0.1593 0.7878
C5 C 0.4483(4) 0.2079(4) 0.7735(2)
H4 H 0.4106 0.1613 0.7914
C6 C 0.7629(4) 0.2757(4) 0.7432(2)
C7 C 0.8296(5) 0.3505(4) 0.7536(3)
H5 H 0.7914 0.4034 0.7601
C8 C 0.9538(4) 0.3471(4) 0.7544(3)
H6 H 0.9968 0.3981 0.7631
C9 C 0.9489(5) 0.2033(4) 0.7328(3)
H7 H 0.9891 0.1519 0.7245
C10 C 0.8245(4) 0.2000(4) 0.7332(3)
H8 H 0.7838 0.1474 0.7267
C11 C 0.1285(4) 0.3161(4) 0.6205(2)
H9 H 0.0783 0.3559 0.6380
C12 C 0.1275(4) 0.3137(4) 0.5589(2)
H10 H 0.0783 0.3517 0.5360
C13 C 0.2001(4) 0.2545(3) 0.5309(2)
C14 C 0.2712(4) 0.2008(3) 0.5681(2)
H11 H 0.3214 0.1600 0.5516
C15 C 0.2680(4) 0.2076(4) 0.6293(2)
H12 H 0.3173 0.1709 0.6532
C16 C 0.2013(4) 0.2494(3) 0.46430(19)
C17 C 0.1267(4) 0.3004(4) 0.4270(2)
H13 H 0.0745 0.3397 0.4435
C18 C 0.1289(4) 0.2936(4) 0.3654(2)
H14 H 0.0777 0.3292 0.3416
C19 C 0.2742(4) 0.1889(3) 0.3744(2)
H15 H 0.3260 0.1506 0.3567
C20 C 0.2765(4) 0.1919(3) 0.4356(2)
H16 H 0.3283 0.1555 0.4583
O12 O 0.1979(3) 0.4369(2) 0.75193(16)
O14 O 0.1959(3) 0.1082(2) 0.74547(15)
N2_2 N 0.0140(3) 0.2749(3) 0.74348(16)
N4A N 0.2004(3) 0.2612(3) 0.83839(15)
Cu1_2 Cu 1.19758(5) 0.26796(4) 0.74729(2)
Cu1A Cu 0.19758(5) 0.23204(4) 0.24729(2)
O1 O 0.2878(3) 0.8029(3) 0.54086(16)
N5 N 0.1296(4) 0.7978(4) 0.4757(2)
N6 N 0.2137(5) 0.7358(4) 0.4589(2)
N7 N 0.4713(6) 0.6648(4) 0.5563(3)
N8 N -0.0018(5) 0.9197(4) 0.5475(3)
C21 C 0.5661(4) 0.6113(4) 0.5594(2)
H17 H 0.6035 0.5959 0.5963
C22 C 0.6053(5) 0.5809(4) 0.5093(4)
H18 H 0.6708 0.5432 0.5117
C23 C 0.5544(6) 0.6018(4) 0.4531(3)
H19 H 0.5859 0.5794 0.4188
C24 C 0.4567(6) 0.6560(4) 0.4490(3)
H20 H 0.4205 0.6707 0.4117
C25 C 0.4130(5) 0.6883(4) 0.5007(3)
C26 C 0.3045(5) 0.7420(4) 0.4976(2)
C27 C 0.1756(5) 0.8350(4) 0.5236(3)
C28 C 0.1224(5) 0.9014(4) 0.5600(3)
C29 C 0.1827(6) 0.9489(5) 0.6053(3)
H21 H 0.2644 0.9390 0.6128
C30 C 0.1305(6) 1.0073(4) 0.6384(3)
H22 H 0.1732 1.0358 0.6698
C31 C 0.0162(8) 1.0240(5) 0.6257(3)
H23 H -0.0192 1.0677 0.6475
C32 C -0.0538(6) 0.9820(5) 0.5829(3)
H24 H -0.1352 0.9946 0.5774
Cl1 Cl 0.16485(15) 0.56827(12) 0.61088(8)
O2 O 0.0788(4) 0.5426(3) 0.6514(3)
O3 O 0.2747(4) 0.5287(4) 0.6308(3)
O4 O 0.1268(7) 0.5374(4) 0.5538(3)
O5 O 0.1756(4) 0.6599(3) 0.6112(2)
Cl2 Cl 0.4433(4) 0.5395(3) 0.8654(2)
O6 O 0.3362(7) 0.5298(4) 0.8351(4)
O7 O 0.4629(8) 0.6258(6) 0.8818(4)
O8 O 0.4899(8) 0.4607(7) 0.8877(6)
O9 O 0.5338(14) 0.5378(9) 0.8201(6)
O10 O 0.3063(3) 0.0222(3) 0.84192(16)
O11 O 0.1423(4) 0.5708(3) 0.4033(2)
O13 O 0.3555(11) 0.9858(9) 0.4789(12)
loop_
_geom_bond_atom_site_label_1
_geom_bond_atom_site_label_2
_geom_bond_site_symmetry_1
_geom_bond_site_symmetry_2
Cu1 N1 1_555 1_555
O1 C26 1_555 1_555
N1 C1 1_555 1_555
N2 C8 1_555 1_555
N3 Cu1 1_555 1_555
N4 C18 1_555 1_555
N5 N6 1_555 1_555
N6 C26 1_555 1_555
N7 C21 1_555 1_555
N8 C28 1_555 1_555
C1 H1 1_555 1_555
C2 C1 1_555 1_555
H2 C2 1_555 1_555
C3 C2 1_555 1_555
C4 C3 1_555 1_555
H3 C4 1_555 1_555
C5 N1 1_555 1_555
H4 C5 1_555 1_555
C6 C3 1_555 1_555
C7 C6 1_555 1_555
H5 C7 1_555 1_555
C8 C7 1_555 1_555
H6 C8 1_555 1_555
C9 N2 1_555 1_555
H7 C9 1_555 1_555
C10 C6 1_555 1_555
H8 C10 1_555 1_555
C11 N3 1_555 1_555
H9 C11 1_555 1_555
C12 C11 1_555 1_555
H10 C12 1_555 1_555
C13 C12 1_555 1_555
C14 C13 1_555 1_555
H11 C14 1_555 1_555
C15 N3 1_555 1_555
H12 C15 1_555 1_555
C16 C13 1_555 1_555
C17 C16 1_555 1_555
H13 C17 1_555 1_555
C18 C17 1_555 1_555
H14 C18 1_555 1_555
C19 N4 1_555 1_555
H15 C19 1_555 1_555
C20 C16 1_555 1_555
H16 C20 1_555 1_555
C21 H17 1_555 1_555
C22 C21 1_555 1_555
H18 C22 1_555 1_555
C23 C22 1_555 1_555
H19 C23 1_555 1_555
C24 C23 1_555 1_555
H20 C24 1_555 1_555
C25 N7 1_555 1_555
C26 C25 1_555 1_555
C27 O1 1_555 1_555
C28 C27 1_555 1_555
C29 C28 1_555 1_555
H21 C29 1_555 1_555
C30 C29 1_555 1_555
H22 C30 1_555 1_555
C31 C30 1_555 1_555
H23 C31 1_555 1_555
C32 N8 1_555 1_555
H24 C32 1_555 1_555
Cl1 O2 1_555 1_555
O3 Cl1 1_555 1_555
O4 Cl1 1_555 1_555
O5 Cl1 1_555 1_555
Cl2 O6 1_555 1_555
O7 Cl2 1_555 1_555
O8 Cl2 1_555 1_555
O9 Cl2 1_555 1_555
O12 Cu1 1_555 1_555
O14 Cu1 1_555 1_555
N2_2 Cu1 1_555 1_555
N4A Cu1 1_555 1_555
Cu1_2 N2 1_555 1_555
Cu1A N4 1_555 1_555
N5 C27 1_555 1_555
C4 C5 1_555 1_555
C9 C10 1_555 1_555
C14 C15 1_555 1_555
C19 C20 1_555 1_555
C24 C25 1_555 1_555
C31 C32 1_555 1_555

#END
