
#######################################################################
#
#                 Cambridge Crystallographic Data Centre
#                                CCDC 
#
#######################################################################
#
# If this CIF has been generated from an entry in the Cambridge 
# Structural Database, then it will include bibliographic, chemical, 
# crystal, experimental, refinement or atomic coordinate data resulting 
# from the CCDC's data processing and validation procedures.
#
#######################################################################

data_XUPBOA
_symmetry_cell_setting           triclinic
_symmetry_space_group_name_H-M   'P -1'
_symmetry_Int_Tables_number      2
_space_group_name_Hall           '-P 1'
loop_
_symmetry_equiv_pos_site_id
_symmetry_equiv_pos_as_xyz
1 x,y,z
2 -x,-y,-z
_cell_length_a                   7.6702(15)
_cell_length_b                   9.802(2)
_cell_length_c                   12.145(2)
_cell_angle_alpha                73.65(3)
_cell_angle_beta                 82.51(3)
_cell_angle_gamma                69.63(3)
_cell_volume                     820.851
loop_
_atom_site_label
_atom_site_type_symbol
_atom_site_fract_x
_atom_site_fract_y
_atom_site_fract_z
Cd1 Cd 0.28586(2) -0.250194(17) 0.247639(12)
O1 O 0.6271(3) -0.4061(2) 0.23470(15)
O2 O 1.0031(3) -0.3089(2) 0.28485(19)
O3 O 0.4978(3) -0.3158(3) 0.38166(17)
O4 O 1.2598(3) -0.4977(2) 0.28244(17)
C1 C 0.3010(5) 0.0903(3) 0.1967(2)
H1 H 0.3252 0.0592 0.2746
C2 C 0.7978(4) -0.4984(3) 0.4072(2)
H2 H 0.7668 -0.5840 0.4567
H3 H 0.8175 -0.4424 0.4561
C3 C 1.0869(3) -0.4471(3) 0.3004(2)
C4 C 0.2504(3) 0.0342(3) 0.03424(19)
C5 C 0.2148(4) -0.0532(3) -0.1362(2)
H4 H 0.1895 0.0439 -0.1833
C6 C 0.6344(3) -0.3994(3) 0.3344(2)
C7 C 0.2441(3) -0.0829(3) -0.01966(19)
N1 N 0.2720(3) -0.2204(2) 0.05004(17)
N2 N 0.2846(3) -0.0098(3) 0.14585(18)
O5 O 0.1081(3) -0.1128(3) 0.3871(2)
C8 C 0.9799(3) -0.5567(3) 0.3414(2)
H5 H 1.0584 -0.6483 0.3905
H6 H 0.9528 -0.5822 0.2754
C9 C 0.2470(5) 0.2819(3) 0.0242(3)
H7 H 0.2336 0.3803 -0.0173
C10 C 0.2820(5) -0.3327(3) 0.0056(2)
H8 H 0.3028 -0.4284 0.0544
C11 C 0.2300(4) 0.1798(3) -0.0296(2)
H9 H 0.2053 0.2088 -0.1073
C12 C 0.2243(5) -0.1715(4) -0.1802(2)
H10 H 0.2045 -0.1543 -0.2575
C13 C 0.2628(5) -0.3132(4) -0.1100(2)
H11 H 0.2759 -0.3946 -0.1390
C14 C 0.2836(4) 0.2371(4) 0.1389(3)
H12 H 0.2962 0.3036 0.1765
H13 H 0.002(2) -0.107(5) 0.405(4)
H14 H 0.146(6) -0.095(5) 0.438(3)
Cd1_2 Cd 1.28586(2) -0.250194(17) 0.247639(12)
O2_2 O 0.0031(3) -0.3089(2) 0.28485(19)
O4_2 O 0.2598(3) -0.4977(2) 0.28244(17)
O6 O 0.5416(3) -0.2358(3) 0.5686(2)
H15 H 0.463(4) -0.262(5) 0.554(4)
H16 H 0.562(6) -0.308(3) 0.622(2)
O7 O 0.2545(4) 0.0332(3) 0.5158(2)
H17 H 0.278(6) 0.108(3) 0.511(4)
H18 H 0.277(6) 0.027(5) 0.5795(17)
loop_
_geom_bond_atom_site_label_1
_geom_bond_atom_site_label_2
_geom_bond_site_symmetry_1
_geom_bond_site_symmetry_2
Cd1 O1 1_555 1_555
O1 C6 1_555 1_555
O2 C3 1_555 1_555
O3 Cd1 1_555 1_555
O4 C3 1_555 1_555
C1 H1 1_555 1_555
C2 H2 1_555 1_555
H3 C2 1_555 1_555
C3 C8 1_555 1_555
C4 C7 1_555 1_555
C5 H4 1_555 1_555
C6 O3 1_555 1_555
C7 C5 1_555 1_555
N1 Cd1 1_555 1_555
N2 Cd1 1_555 1_555
O5 Cd1 1_555 1_555
C8 C2 1_555 1_555
H5 C8 1_555 1_555
H6 C8 1_555 1_555
C9 H7 1_555 1_555
C10 N1 1_555 1_555
H8 C10 1_555 1_555
C11 C4 1_555 1_555
H9 C11 1_555 1_555
C12 C5 1_555 1_555
H10 C12 1_555 1_555
C13 C10 1_555 1_555
H11 C13 1_555 1_555
C14 C1 1_555 1_555
H12 C14 1_555 1_555
H13 O5 1_555 1_555
H14 O5 1_555 1_555
O6 H15 1_555 1_555
H16 O6 1_555 1_555
O7 H17 1_555 1_555
H18 O7 1_555 1_555
Cd1_2 O2 1_555 1_555
O2_2 Cd1 1_555 1_555
O4_2 Cd1 1_555 1_555
O4 Cd1_2 1_555 1_555
C1 N2 1_555 1_555
C2 C6 1_555 1_555
C4 N2 1_555 1_555
C7 N1 1_555 1_555
C9 C11 1_555 1_555
C9 C14 1_555 1_555
C12 C13 1_555 1_555

#END
