
#######################################################################
#
#                 Cambridge Crystallographic Data Centre
#                                CCDC 
#
#######################################################################
#
# If this CIF has been generated from an entry in the Cambridge 
# Structural Database, then it will include bibliographic, chemical, 
# crystal, experimental, refinement or atomic coordinate data resulting 
# from the CCDC's data processing and validation procedures.
#
#######################################################################

data_XUPCEQ
_symmetry_cell_setting           monoclinic
_symmetry_space_group_name_H-M   'C 2/c'
_symmetry_Int_Tables_number      15
_space_group_name_Hall           '-C 2yn'
loop_
_symmetry_equiv_pos_site_id
_symmetry_equiv_pos_as_xyz
1 x,y,z
2 1/2+x,1/2+y,z
3 x,-y,1/2+z
4 1/2+x,1/2-y,1/2+z
5 -x,-y,-z
6 1/2-x,1/2-y,-z
7 -x,y,1/2-z
8 1/2-x,1/2+y,1/2-z
_cell_length_a                   36.444(7)
_cell_length_b                   8.282(2)
_cell_length_c                   25.506(5)
_cell_angle_alpha                90
_cell_angle_beta                 91.49(3)
_cell_angle_gamma                90
_cell_volume                     7695.85
loop_
_atom_site_label
_atom_site_type_symbol
_atom_site_fract_x
_atom_site_fract_y
_atom_site_fract_z
Zn1 Zn -0.12258(3) 1.13400(13) 0.49393(5)
Fe1 Fe -0.20751(5) 0.9690(2) 0.67354(7)
Fe2 Fe -0.08761(5) 1.5397(2) 0.31700(7)
N1 N -0.1633(3) 1.3300(10) 0.4980(4)
N2 N -0.0832(2) 0.9343(10) 0.4895(4)
O1 O -0.1471(2) 1.0142(8) 0.5549(3)
O2 O -0.0892(2) 1.2608(9) 0.5487(3)
O3 O -0.0967(2) 1.2476(8) 0.4340(3)
O4 O -0.1592(2) 1.0250(8) 0.4412(3)
C1 C -0.2215(5) 1.1725(18) 0.7150(6)
H1 H -0.2061(5) 1.2250(18) 0.7421(6)
C2 C -0.2203(4) 1.2041(18) 0.6605(7)
H2 H -0.2054(4) 1.2851(18) 0.6430(7)
C3 C -0.2470(5) 1.1008(25) 0.6368(7)
H3 H -0.2530(5) 1.0964(25) 0.5991(7)
C4 C -0.2635(4) 1.0038(23) 0.6754(8)
H4 H -0.2827(4) 0.9224(23) 0.6698(8)
C5 C -0.2464(5) 1.0491(23) 0.7235(7)
H5 H -0.2516(5) 1.0015(23) 0.7577(7)
C6 C -0.1557(3) 0.9065(15) 0.6939(5)
H6 H -0.1392(3) 0.9716(15) 0.7164(5)
C7 C -0.1800(4) 0.7855(17) 0.7127(6)
H7 H -0.1830(4) 0.7478(17) 0.7488(6)
C8 C -0.1978(4) 0.7291(16) 0.6658(6)
H8 H -0.2172(4) 0.6469(16) 0.6651(6)
C9 C -0.1862(4) 0.8069(14) 0.6226(5)
H9 H -0.1949(4) 0.7876(14) 0.5864(5)
C10 C -0.1588(3) 0.9217(14) 0.6390(4)
C11 C -0.1406(3) 1.0343(13) 0.6026(5)
C12 C -0.1164(5) 1.1497(18) 0.6248(5)
H10 H -0.1156(5) 1.1585(18) 0.6611(5)
C13 C -0.0936(4) 1.2522(19) 0.5968(5)
C14 C -0.0692(7) 1.3725(26) 0.6288(6)
H11 H -0.0549(7) 1.4355(26) 0.6052(6)
H12 H -0.0531(7) 1.3135(26) 0.6522(6)
H13 H -0.0844(7) 1.4428(26) 0.6487(6)
C15 C -0.1071(10) 1.7238(39) 0.2739(10)
H14 H -0.0981(10) 1.7581(39) 0.2398(10)
C16 C -0.1368(7) 1.6088(35) 0.2826(13)
H15 H -0.1523(7) 1.5511(35) 0.2568(13)
C17 C -0.1386(5) 1.6102(21) 0.3371(10)
H16 H -0.1553(5) 1.5409(21) 0.3565(10)
C18 C -0.1154(6) 1.7039(25) 0.3595(8)
H17 H -0.1126(6) 1.7177(25) 0.3976(8)
C19 C -0.0944(6) 1.7806(18) 0.3233(14)
H18 H -0.0753(6) 1.8616(18) 0.3302(14)
C20 C -0.0790(4) 1.3098(15) 0.2924(5)
H19 H -0.0953(4) 1.2459(15) 0.2695(5)
C21 C -0.0498(3) 1.4128(16) 0.2761(5)
H20 H -0.0429(3) 1.4332(16) 0.2398(5)
C22 C -0.0331(4) 1.4823(18) 0.3218(5)
H21 H -0.0128(4) 1.5602(18) 0.3220(5)
C23 C -0.0513(4) 1.4296(15) 0.3659(5)
H22 H -0.0456(4) 1.4609(15) 0.4023(5)
C24 C -0.0791(3) 1.3148(13) 0.3490(5)
C25 C -0.1046(3) 1.2334(13) 0.3863(5)
C26 C -0.1346(3) 1.1508(14) 0.3641(5)
H23 H -0.1383(3) 1.1575(14) 0.3279(5)
C27 C -0.1600(3) 1.0563(12) 0.3933(5)
C28 C -0.1925(3) 0.9862(14) 0.3595(5)
H24 H -0.2083(3) 0.9247(14) 0.3814(5)
H25 H -0.1831(3) 0.9175(14) 0.3327(5)
H26 H -0.2062(3) 1.0731(14) 0.3435(5)
C29 C -0.1954(4) 1.3083(16) 0.5193(5)
H27 H -0.2000(4) 1.2072(16) 0.5336(5)
C30 C -0.2228(4) 1.4230(18) 0.5223(6)
H28 H -0.2449(4) 1.3984(18) 0.5377(6)
C31 C -0.2168(4) 1.5718(20) 0.5023(6)
C32 C -0.1828(5) 1.6007(15) 0.4794(6)
H29 H -0.1777(5) 1.7016(15) 0.4653(6)
C33 C -0.1566(4) 1.4770(14) 0.4777(5)
H30 H -0.1342(4) 1.4968(14) 0.4623(5)
C34 C -0.2565(6) 1.7004(25) 0.5060(6)
H31 H -0.2806(6) 1.6814(25) 0.5155(6)
C35 C 0.0006(4) 0.5715(13) 0.4936(5)
H32 H 0.0237(4) 0.6085(13) 0.4846(5)
C36 C -0.0899(4) 0.7883(13) 0.5084(5)
H33 H -0.1130(4) 0.7672(13) 0.5215(5)
C37 C -0.0640(4) 0.6660(12) 0.5093(5)
H34 H -0.0701(4) 0.5652(12) 0.5226(5)
C38 C -0.0286(4) 0.6923(15) 0.4903(5)
C39 C -0.0229(3) 0.8397(14) 0.4692(6)
H35 H -0.0003(3) 0.8633(14) 0.4552(6)
C40 C -0.0500(4) 0.9554(14) 0.4680(5)
H36 H -0.0453(4) 1.0532(14) 0.4516(5)
C34E C -0.2435(6) 1.7996(25) 0.4940(6)
C31E C -0.2832(4) 1.9282(20) 0.4977(6)
C30E C -0.2772(4) 2.0770(18) 0.4777(6)
C29E C -0.3046(4) 2.1917(16) 0.4807(5)
N1E N -0.3367(3) 2.1700(10) 0.5020(4)
C33E C -0.3434(4) 2.0230(14) 0.5223(5)
C32E C -0.3172(5) 1.8993(15) 0.5206(6)
H29E H -0.3223(5) 1.7984(15) 0.5347(6)
H30E H -0.3658(4) 2.0032(14) 0.5377(5)
H27E H -0.3000(4) 2.2928(16) 0.4664(5)
H28E H -0.2551(4) 2.1016(18) 0.4623(6)
H31E H -0.2194(6) 1.8186(25) 0.4845(6)
C35D C -0.0006(4) 0.4285(13) 0.5064(5)
H32D H -0.0237(4) 0.3915(13) 0.5154(5)
C38D C 0.0286(4) 0.3077(15) 0.5097(5)
C37D C 0.0640(4) 0.3340(12) 0.4907(5)
C36D C 0.0899(4) 0.2117(13) 0.4916(5)
N2D N 0.0832(2) 0.0657(10) 0.5105(4)
C40D C 0.0500(4) 0.0446(14) 0.5320(5)
C39D C 0.0229(3) 0.1603(14) 0.5308(6)
H35D H 0.0003(3) 0.1367(14) 0.5448(6)
H36D H 0.0453(4) -0.0532(14) 0.5484(5)
H33D H 0.1130(4) 0.2328(13) 0.4785(5)
H34D H 0.0701(4) 0.4348(12) 0.4774(5)
Zn1E Zn -0.37742(3) 2.36600(13) 0.50607(5)
O1E O -0.3529(2) 2.4858(8) 0.4451(3)
O2E O -0.4108(2) 2.2392(9) 0.4513(3)
C6E C -0.3443(3) 2.5935(15) 0.3061(5)
H6E H -0.3608(3) 2.5284(15) 0.2836(5)
C7E C -0.3200(4) 2.7145(17) 0.2873(6)
H7E H -0.3170(4) 2.7522(17) 0.2512(6)
C8E C -0.3022(4) 2.7709(16) 0.3342(6)
H8E H -0.2828(4) 2.8531(16) 0.3349(6)
C9E C -0.3138(4) 2.6931(14) 0.3774(5)
H9E H -0.3051(4) 2.7124(14) 0.4136(5)
C10E C -0.3412(3) 2.5783(14) 0.3610(4)
C11E C -0.3594(3) 2.4657(13) 0.3974(5)
C12E C -0.3836(5) 2.3503(18) 0.3752(5)
H10E H -0.3844(5) 2.3415(18) 0.3389(5)
C13E C -0.4064(4) 2.2478(19) 0.4032(5)
C14E C -0.4308(7) 2.1275(26) 0.3712(6)
H11E H -0.4451(7) 2.0645(26) 0.3948(6)
H12E H -0.4469(7) 2.1865(26) 0.3478(6)
H13E H -0.4156(7) 2.0572(26) 0.3513(6)
O3E O -0.4033(2) 2.2524(8) 0.5660(3)
O4E O -0.3408(2) 2.4750(8) 0.5588(3)
C20E C -0.4210(4) 2.1902(15) 0.7076(5)
H19E H -0.4047(4) 2.2541(15) 0.7305(5)
C21E C -0.4502(3) 2.0872(16) 0.7239(5)
H20E H -0.4571(3) 2.0668(16) 0.7602(5)
C22E C -0.4669(4) 2.0177(18) 0.6782(5)
H21E H -0.4872(4) 1.9398(18) 0.6780(5)
C23E C -0.4487(4) 2.0704(15) 0.6341(5)
H22E H -0.4544(4) 2.0391(15) 0.5977(5)
C24E C -0.4209(3) 2.1852(13) 0.6510(5)
C25E C -0.3954(3) 2.2666(13) 0.6137(5)
C26E C -0.3654(3) 2.3492(14) 0.6359(5)
H23E H -0.3617(3) 2.3425(14) 0.6721(5)
C27E C -0.3400(3) 2.4437(12) 0.6067(5)
C28E C -0.3075(3) 2.5138(14) 0.6405(5)
H24E H -0.2917(3) 2.5753(14) 0.6186(5)
H25E H -0.3169(3) 2.5825(14) 0.6673(5)
H26E H -0.2938(3) 2.4269(14) 0.6565(5)
Fe1E Fe -0.29249(5) 2.5310(2) 0.32646(7)
Fe2E Fe -0.41239(5) 1.9603(2) 0.68300(7)
C1E C -0.2785(5) 2.3275(18) 0.2850(6)
H1E H -0.2939(5) 2.2750(18) 0.2579(6)
C2E C -0.2797(4) 2.2959(18) 0.3395(7)
H2E H -0.2946(4) 2.2149(18) 0.3570(7)
C3E C -0.2530(5) 2.3992(25) 0.3632(7)
H3E H -0.2470(5) 2.4036(25) 0.4009(7)
C4E C -0.2365(4) 2.4962(23) 0.3246(8)
H4E H -0.2173(4) 2.5776(23) 0.3302(8)
C5E C -0.2536(5) 2.4509(23) 0.2765(7)
H5E H -0.2484(5) 2.4985(23) 0.2423(7)
C15E C -0.3929(10) 1.7762(39) 0.7261(10)
H14E H -0.4019(10) 1.7419(39) 0.7602(10)
C16E C -0.3632(7) 1.8912(35) 0.7174(13)
H15E H -0.3477(7) 1.9489(35) 0.7432(13)
C17E C -0.3614(5) 1.8898(21) 0.6629(10)
H16E H -0.3447(5) 1.9591(21) 0.6435(10)
C18E C -0.3846(6) 1.7961(25) 0.6405(8)
H17E H -0.3874(6) 1.7823(25) 0.6024(8)
C19E C -0.4056(6) 1.7194(18) 0.6767(14)
H18E H -0.4247(6) 1.6384(18) 0.6698(14)
Zn1D Zn 0.12258(3) -0.13400(13) 0.50607(5)
N2E N -0.4168(2) 2.5657(10) 0.5105(4)
O5 O 0.0068(7) 0.9692(46) 0.3084(17)
H37 H 0.0169(22) 0.8883(83) 0.3225(28)
H38 H -0.0115(22) 0.9651(90) 0.3350(29)
O6 O 0.0363(9) 1.1511(32) 0.3577(10)
H39 H 0.0294(28) 1.139(14) 0.3834(36)
H40 H 0.0615(21) 1.2128(89) 0.3443(33)
loop_
_geom_bond_atom_site_label_1
_geom_bond_atom_site_label_2
_geom_bond_site_symmetry_1
_geom_bond_site_symmetry_2
Zn1 N1 1_555 1_555
Fe1 C1 1_555 1_555
Fe2 C15 1_555 1_555
N1 C29 1_555 1_555
N2 Zn1 1_555 1_555
O1 Zn1 1_555 1_555
O2 Zn1 1_555 1_555
O3 Zn1 1_555 1_555
O4 Zn1 1_555 1_555
O5 H37 1_555 1_555
O6 H39 1_555 1_555
C1 H1 1_555 1_555
C2 Fe1 1_555 1_555
H2 C2 1_555 1_555
C3 Fe1 1_555 1_555
H3 C3 1_555 1_555
C4 Fe1 1_555 1_555
H4 C4 1_555 1_555
C5 Fe1 1_555 1_555
H5 C5 1_555 1_555
C6 Fe1 1_555 1_555
H6 C6 1_555 1_555
C7 Fe1 1_555 1_555
H7 C7 1_555 1_555
C8 Fe1 1_555 1_555
H8 C8 1_555 1_555
C9 Fe1 1_555 1_555
H9 C9 1_555 1_555
C10 Fe1 1_555 1_555
C11 O1 1_555 1_555
C12 C11 1_555 1_555
H10 C12 1_555 1_555
C13 O2 1_555 1_555
C14 C13 1_555 1_555
H11 C14 1_555 1_555
H12 C14 1_555 1_555
H13 C14 1_555 1_555
C15 H14 1_555 1_555
C16 Fe2 1_555 1_555
H15 C16 1_555 1_555
C17 Fe2 1_555 1_555
H16 C17 1_555 1_555
C18 Fe2 1_555 1_555
H17 C18 1_555 1_555
C19 Fe2 1_555 1_555
H18 C19 1_555 1_555
C20 Fe2 1_555 1_555
H19 C20 1_555 1_555
C21 Fe2 1_555 1_555
H20 C21 1_555 1_555
C22 Fe2 1_555 1_555
H21 C22 1_555 1_555
C23 Fe2 1_555 1_555
H22 C23 1_555 1_555
C24 Fe2 1_555 1_555
C25 O3 1_555 1_555
C26 C25 1_555 1_555
H23 C26 1_555 1_555
C27 O4 1_555 1_555
C28 C27 1_555 1_555
H24 C28 1_555 1_555
H25 C28 1_555 1_555
H26 C28 1_555 1_555
C29 H27 1_555 1_555
C30 C29 1_555 1_555
H28 C30 1_555 1_555
C31 C30 1_555 1_555
C32 C31 1_555 1_555
H29 C32 1_555 1_555
C33 N1 1_555 1_555
H30 C33 1_555 1_555
C34 C31 1_555 1_555
H31 C34 1_555 1_555
C35 H32 1_555 1_555
C36 N2 1_555 1_555
H33 C36 1_555 1_555
C37 C36 1_555 1_555
H34 C37 1_555 1_555
C38 C35 1_555 1_555
C39 C38 1_555 1_555
H35 C39 1_555 1_555
C40 N2 1_555 1_555
H36 C40 1_555 1_555
H38 O5 1_555 1_555
H40 O6 1_555 1_555
C34E C34 1_555 1_555
C31E C34E 1_555 1_555
C30E C31E 1_555 1_555
C29E C30E 1_555 1_555
N1E C29E 1_555 1_555
C33E N1E 1_555 1_555
C32E C31E 1_555 1_555
H29E C32E 1_555 1_555
H30E C33E 1_555 1_555
H27E C29E 1_555 1_555
H28E C30E 1_555 1_555
H31E C34E 1_555 1_555
C35D C35 1_555 1_555
H32D C35D 1_555 1_555
C38D C35D 1_555 1_555
C37D C38D 1_555 1_555
C36D C37D 1_555 1_555
N2D C36D 1_555 1_555
C40D N2D 1_555 1_555
C39D C38D 1_555 1_555
H35D C39D 1_555 1_555
H36D C40D 1_555 1_555
H33D C36D 1_555 1_555
H34D C37D 1_555 1_555
Zn1E N1E 1_555 1_555
O1E Zn1E 1_555 1_555
O2E Zn1E 1_555 1_555
C6E H6E 1_555 1_555
C7E C6E 1_555 1_555
H7E C7E 1_555 1_555
C8E C7E 1_555 1_555
H8E C8E 1_555 1_555
C9E C8E 1_555 1_555
H9E C9E 1_555 1_555
C10E C6E 1_555 1_555
C11E O1E 1_555 1_555
C12E C11E 1_555 1_555
H10E C12E 1_555 1_555
C13E O2E 1_555 1_555
C14E C13E 1_555 1_555
H11E C14E 1_555 1_555
H12E C14E 1_555 1_555
H13E C14E 1_555 1_555
O3E Zn1E 1_555 1_555
O4E Zn1E 1_555 1_555
C20E H19E 1_555 1_555
C21E C20E 1_555 1_555
H20E C21E 1_555 1_555
C22E C21E 1_555 1_555
H21E C22E 1_555 1_555
C23E C22E 1_555 1_555
H22E C23E 1_555 1_555
C24E C20E 1_555 1_555
C25E O3E 1_555 1_555
C26E C25E 1_555 1_555
H23E C26E 1_555 1_555
C27E O4E 1_555 1_555
C28E C27E 1_555 1_555
H24E C28E 1_555 1_555
H25E C28E 1_555 1_555
H26E C28E 1_555 1_555
Fe1E C6E 1_555 1_555
Fe2E C20E 1_555 1_555
C1E Fe1E 1_555 1_555
H1E C1E 1_555 1_555
C2E Fe1E 1_555 1_555
H2E C2E 1_555 1_555
C3E Fe1E 1_555 1_555
H3E C3E 1_555 1_555
C4E Fe1E 1_555 1_555
H4E C4E 1_555 1_555
C5E Fe1E 1_555 1_555
H5E C5E 1_555 1_555
C15E Fe2E 1_555 1_555
H14E C15E 1_555 1_555
C16E Fe2E 1_555 1_555
H15E C16E 1_555 1_555
C17E Fe2E 1_555 1_555
H16E C17E 1_555 1_555
C18E Fe2E 1_555 1_555
H17E C18E 1_555 1_555
C19E Fe2E 1_555 1_555
H18E C19E 1_555 1_555
Zn1D N2D 1_555 1_555
N2E Zn1E 1_555 1_555
C1 C2 1_555 1_555
C1 C5 1_555 1_555
C2 C3 1_555 1_555
C3 C4 1_555 1_555
C4 C5 1_555 1_555
C6 C10 1_555 1_555
C6 C7 1_555 1_555
C7 C8 1_555 1_555
C8 C9 1_555 1_555
C9 C10 1_555 1_555
C10 C11 1_555 1_555
C12 C13 1_555 1_555
C15 C16 1_555 1_555
C15 C19 1_555 1_555
C16 C17 1_555 1_555
C17 C18 1_555 1_555
C18 C19 1_555 1_555
C20 C24 1_555 1_555
C20 C21 1_555 1_555
C21 C22 1_555 1_555
C22 C23 1_555 1_555
C23 C24 1_555 1_555
C24 C25 1_555 1_555
C26 C27 1_555 1_555
C32 C33 1_555 1_555
C37 C38 1_555 1_555
C39 C40 1_555 1_555
C33E C32E 1_555 1_555
C40D C39D 1_555 1_555
C7E Fe1E 1_555 1_555
C8E Fe1E 1_555 1_555
C9E Fe1E 1_555 1_555
C9E C10E 1_555 1_555
C10E Fe1E 1_555 1_555
C10E C11E 1_555 1_555
C12E C13E 1_555 1_555
C21E Fe2E 1_555 1_555
C22E Fe2E 1_555 1_555
C23E Fe2E 1_555 1_555
C23E C24E 1_555 1_555
C24E Fe2E 1_555 1_555
C24E C25E 1_555 1_555
C26E C27E 1_555 1_555
C1E C2E 1_555 1_555
C1E C5E 1_555 1_555
C2E C3E 1_555 1_555
C3E C4E 1_555 1_555
C4E C5E 1_555 1_555
C15E C16E 1_555 1_555
C15E C19E 1_555 1_555
C16E C17E 1_555 1_555
C17E C18E 1_555 1_555
C18E C19E 1_555 1_555

#END
