
#######################################################################
#
#                 Cambridge Crystallographic Data Centre
#                                CCDC 
#
#######################################################################
#
# If this CIF has been generated from an entry in the Cambridge 
# Structural Database, then it will include bibliographic, chemical, 
# crystal, experimental, refinement or atomic coordinate data resulting 
# from the CCDC's data processing and validation procedures.
#
#######################################################################

data_XUPCAM
_symmetry_cell_setting           monoclinic
_symmetry_space_group_name_H-M   'P 21'
_symmetry_Int_Tables_number      4
_space_group_name_Hall           'P 2yb'
loop_
_symmetry_equiv_pos_site_id
_symmetry_equiv_pos_as_xyz
1 x,y,z
2 -x,1/2+y,-z
_cell_length_a                   7.6118(19)
_cell_length_b                   9.8253(17)
_cell_length_c                   14.748(3)
_cell_angle_alpha                90
_cell_angle_beta                 98.14(2)
_cell_angle_gamma                90
_cell_volume                     1091.86
loop_
_atom_site_label
_atom_site_type_symbol
_atom_site_fract_x
_atom_site_fract_y
_atom_site_fract_z
Tb1 Tb 0.39879(5) 0.23783(3) 0.11078(2)
Tb2 Tb 0.89873(5) -0.17132(3) -0.38929(2)
O1 O 0.4425(8) 0.3697(9) -0.0189(4)
O2 O 0.4161(10) 0.5446(11) -0.1026(5)
O3 O 0.7324(8) -0.0187(11) -0.3145(4)
O4 O 0.6561(10) -0.0575(11) -0.1758(4)
O5 O -0.0533(8) -0.2834(10) 0.4815(4)
O6 O -0.0807(9) -0.4822(8) 0.3976(5)
O7 O 0.2247(9) 0.0965(11) 0.1797(4)
O8 O 0.1580(10) 0.1285(11) 0.3181(5)
O9 O 0.5438(9) 0.2221(10) 0.2702(4)
O10 O 0.6949(7) 0.3257(15) 0.1352(4)
O11 O 0.8018(9) 0.2323(18) 0.3641(4)
O12 O 0.9519(11) 0.3474(12) 0.2288(6)
O13 O 0.0923(8) 0.3220(15) 0.0626(5)
O14 O 0.2694(9) 0.1016(11) -0.0193(4)
O15 O 0.5923(8) -0.2402(10) -0.4382(4)
O16 O 0.7590(8) -0.0239(10) -0.5168(4)
N1 N 0.4525(11) 0.3414(19) -0.3343(5)
N2 N -0.0652(10) -0.2626(18) 0.1550(5)
C1 C 0.4479(15) 0.4186(14) -0.0897(7)
C2 C 0.4850(10) 0.3429(15) -0.1734(5)
C3 C 0.4211(15) 0.3897(16) -0.2613(7)
H1 H 0.3470 0.4654 -0.2651
C4 C 0.5272(12) 0.2115(16) -0.3352(7)
H2 H 0.5492 0.1710 -0.3895
C5 C 0.5671(12) 0.1455(17) -0.2512(7)
C6 C 0.5516(11) 0.2172(14) -0.1648(6)
H3 H 0.5861 0.1772 -0.1079
C7 C 0.6472(12) 0.0140(14) -0.2465(6)
C8 C -0.0627(11) -0.3515(13) 0.4045(7)
C9 C -0.0432(10) -0.2717(16) 0.3223(6)
C10 C 0.0364(12) -0.1394(14) 0.3235(6)
H4 H 0.0544 -0.0909 0.3782
C11 C 0.0853(12) -0.0841(13) 0.2487(6)
C12 C 0.0234(12) -0.1484(12) 0.1677(6)
H5 H 0.0476 -0.1050 0.1149
C13 C -0.0763(15) -0.3349(12) 0.2379(6)
H6 H -0.1065 -0.4267 0.2351
C14 C 0.1713(10) 0.0580(13) 0.2477(5)
C15 C 0.7162(14) 0.2494(19) 0.2901(7)
C16 C 0.7983(10) 0.3134(14) 0.2113(5)
O2A O 0.5839(10) 0.0446(11) 0.1026(5)
O4A O 0.3439(10) 0.4425(11) 0.1758(4)
O5_2 O 0.9467(8) -0.2834(10) -0.5185(4)
O6A O 1.0807(9) 0.0178(8) -0.3976(5)
O8A O 0.8420(10) -0.3715(11) -0.3181(5)
O11A O 1.1982(9) -0.2677(18) -0.3641(4)
O12A O 1.0481(11) -0.1526(12) -0.2288(6)
Tb1A Tb 0.60121(5) 0.73783(3) -0.11078(2)
Tb1A_2 Tb 0.60121(5) -0.26217(3) -0.11078(2)
Tb2_2 Tb -0.10127(5) -0.17132(3) 0.61071(2)
Tb2A Tb 0.10127(5) -0.67132(3) 0.38929(2)
Tb2A_2 Tb 0.10127(5) 0.32868(3) 0.38929(2)
Tb2A_3 Tb 1.10127(5) 0.32868(3) 0.38929(2)
O17 O -0.1348(10) 0.1069(16) 0.0019(6)
O18 O 0.6441(8) 0.4511(10) 0.4974(4)
loop_
_geom_bond_atom_site_label_1
_geom_bond_atom_site_label_2
_geom_bond_site_symmetry_1
_geom_bond_site_symmetry_2
Tb1 O1 1_555 1_555
Tb2 O3 1_555 1_555
O1 C1 1_555 1_555
O2 C1 1_555 1_555
O3 C7 1_555 1_555
O4 C7 1_555 1_555
O5 C8 1_555 1_555
O6 C8 1_555 1_555
O7 Tb1 1_555 1_555
O8 C14 1_555 1_555
O9 Tb1 1_555 1_555
O10 Tb1 1_555 1_555
O11 C15 1_555 1_555
O12 C16 1_555 1_555
O13 Tb1 1_555 1_555
O14 Tb1 1_555 1_555
O15 Tb2 1_555 1_555
O16 Tb2 1_555 1_555
N1 C3 1_555 1_555
N2 C12 1_555 1_555
C1 C2 1_555 1_555
C2 C3 1_555 1_555
C3 H1 1_555 1_555
C4 N1 1_555 1_555
H2 C4 1_555 1_555
C5 C4 1_555 1_555
C6 C2 1_555 1_555
H3 C6 1_555 1_555
C7 C5 1_555 1_555
C8 C9 1_555 1_555
C9 C10 1_555 1_555
C10 H4 1_555 1_555
C11 C10 1_555 1_555
C12 C11 1_555 1_555
H5 C12 1_555 1_555
C13 N2 1_555 1_555
H6 C13 1_555 1_555
C14 O7 1_555 1_555
C15 O9 1_555 1_555
C16 O10 1_555 1_555
O2A Tb1 1_555 1_555
O4A Tb1 1_555 1_555
O5_2 Tb2 1_555 1_555
O6A Tb2 1_555 1_555
O8A Tb2 1_555 1_555
O11A Tb2 1_555 1_555
O12A Tb2 1_555 1_555
Tb1A O2 1_555 1_555
Tb1A_2 O4 1_555 1_555
Tb2_2 O5 1_555 1_555
Tb2A O6 1_555 1_555
Tb2A_2 O8 1_555 1_555
Tb2A_3 O11 1_555 1_555
O12 Tb2A_3 1_555 1_555
C5 C6 1_555 1_555
C9 C13 1_555 1_555
C11 C14 1_555 1_555
C15 C16 1_555 1_555

#END
