
#######################################################################
#
#                 Cambridge Crystallographic Data Centre
#                                CCDC 
#
#######################################################################
#
# If this CIF has been generated from an entry in the Cambridge 
# Structural Database, then it will include bibliographic, chemical, 
# crystal, experimental, refinement or atomic coordinate data resulting 
# from the CCDC's data processing and validation procedures.
#
#######################################################################

data_XUPCIU
_symmetry_cell_setting           monoclinic
_symmetry_space_group_name_H-M   'P 21/a'
_symmetry_Int_Tables_number      14
_space_group_name_Hall           '-P 2yab'
loop_
_symmetry_equiv_pos_site_id
_symmetry_equiv_pos_as_xyz
1 x,y,z
2 1/2+x,1/2-y,z
3 -x,-y,-z
4 1/2-x,1/2+y,-z
_cell_length_a                   12.445(4)
_cell_length_b                   15.252(3)
_cell_length_c                   13.567(3)
_cell_angle_alpha                90
_cell_angle_beta                 108.17(3)
_cell_angle_gamma                90
_cell_volume                     2446.76
loop_
_atom_site_label
_atom_site_type_symbol
_atom_site_fract_x
_atom_site_fract_y
_atom_site_fract_z
Zn1 Zn 0.58060(3) 0.50176(3) 0.44028(3)
S1 S 0.6463(1) 0.4514(1) 0.2525(1)
O1 O 0.6942(2) 0.4906(2) 0.5849(2)
O2 O 0.5734(2) 0.4946(2) 0.6753(2)
O3 O 0.5598(3) 0.3692(2) 0.4437(3)
O4 O 0.4345(3) 0.3696(2) 0.5295(3)
O5 O 0.6741(3) 0.5116(2) 0.3463(2)
C1 C 0.6713(3) 0.4924(2) 0.6680(3)
C2 C 0.7679(3) 0.4930(3) 0.7664(3)
C3 C 0.8752(4) 0.4696(3) 0.7684(3)
C4 C 0.9644(4) 0.4705(3) 0.8589(3)
C5 C 0.9516(3) 0.4975(3) 0.9515(3)
C6 C 0.8424(4) 0.5204(4) 0.9502(3)
C7 C 0.7529(4) 0.5176(4) 0.8592(3)
C8 C 0.4957(4) 0.3320(2) 0.4847(3)
C9 C 0.4932(3) 0.2334(2) 0.4832(3)
C10 C 0.5791(4) 0.1859(3) 0.4644(4)
C11 C 0.5822(4) 0.0955(3) 0.4710(4)
C12 C 0.4976(3) 0.0488(2) 0.4957(3)
C13 C 0.4093(3) 0.0970(2) 0.5102(3)
C14 C 0.4078(4) 0.1875(3) 0.5058(3)
C15 C 0.5796(5) 0.5191(4) 0.1454(4)
C16 C 0.7798(5) 0.4383(5) 0.2311(5)
H1 H 0.8879 0.4529 0.7070
H2 H 1.0352 0.4523 0.8576
H3 H 0.8298 0.5378 1.0114
H4 H 0.6809 0.5326 0.8604
H5 H 0.6361 0.2153 0.4468
H6 H 0.6417 0.0652 0.4588
H7 H 0.3496 0.0676 0.5232
H8 H 0.3486 0.2180 0.5182
H9 H 0.5045 0.5330 0.1458
H10 H 0.5758 0.4890 0.0823
H11 H 0.6222 0.5723 0.1499
H12 H 0.8275 0.4013 0.2842
H13 H 0.8150 0.4946 0.2333
H14 H 0.7688 0.4119 0.1644
C5B C 1.0484(3) 0.5025(3) 1.0485(3)
C4B C 1.0356(4) 0.5295(3) 1.1411(3)
C3B C 1.1248(4) 0.5304(3) 1.2316(3)
C2B C 1.2321(3) 0.5070(3) 1.2336(3)
C1B C 1.3287(3) 0.5076(2) 1.3320(3)
O1B O 1.3058(2) 0.5094(2) 1.4151(2)
O2B O 1.4266(2) 0.5054(2) 1.3247(2)
C7B C 1.2471(4) 0.4824(4) 1.1408(3)
C6B C 1.1576(4) 0.4796(4) 1.0498(3)
H3B H 1.1702 0.4622 0.9886
H4B H 1.3191 0.4674 1.1396
H1B H 1.1121 0.5471 1.2930
H2B H 0.9648 0.5477 1.1424
C12B C 0.5024(3) -0.0488(2) 0.5043(3)
C11B C 0.4178(4) -0.0955(3) 0.5290(4)
C10B C 0.4209(4) -0.1859(3) 0.5356(4)
C9B C 0.5068(3) -0.2334(2) 0.5168(3)
C8B C 0.5043(4) -0.3320(2) 0.5153(3)
O3B O 0.4402(3) -0.3692(2) 0.5563(3)
O4B O 0.5655(3) -0.3696(2) 0.4705(3)
C14B C 0.5922(4) -0.1875(3) 0.4942(3)
C13B C 0.5907(3) -0.0970(2) 0.4898(3)
H7B H 0.6504 -0.0676 0.4768
H8B H 0.6514 -0.2180 0.4818
H5B H 0.3639 -0.2153 0.5532
H6B H 0.3583 -0.0652 0.5412
Zn1B Zn 1.41940(3) 0.49824(3) 1.55972(3)
S1B S 1.3537(1) 0.5486(1) 1.7475(1)
O5B O 1.3259(3) 0.4884(2) 1.6537(2)
C15B C 1.4204(5) 0.4809(4) 1.8546(4)
C16B C 1.2202(5) 0.5617(5) 1.7689(5)
H9B H 1.4955 0.4670 1.8542
H10B H 1.4242 0.5110 1.9177
H11B H 1.3778 0.4277 1.8501
H12B H 1.1725 0.5987 1.7158
H13B H 1.1850 0.5054 1.7667
H14B H 1.2312 0.5881 1.8356
O2B_2 O 0.4266(2) 0.5054(2) 0.3247(2)
O4B_2 O 0.5655(3) 0.6304(2) 0.4705(3)
Zn1B_2 Zn 0.41940(3) 0.49824(3) 0.55972(3)
Zn1_2 Zn 1.58060(3) 0.50176(3) 1.44028(3)
Zn1B_3 Zn 0.41940(3) -0.50176(3) 0.55972(3)
Zn1_3 Zn 0.58060(3) -0.49824(3) 0.44028(3)
O2_2 O 1.5734(2) 0.4946(2) 1.6753(2)
O3B_2 O 1.4402(3) 0.6308(2) 1.5563(3)
O4_2 O 1.4345(3) 0.3696(2) 1.5295(3)
S2 S 0.5194(4) 0.2448(2) 0.0694(3)
O6 O 0.5779(7) 0.3273(4) 0.0576(5)
C17 C 0.580(1) 0.2124(6) 0.1930(8)
C18 C 0.406(1) 0.2806(9) 0.098(1)
H15 H 0.6537 0.1885 0.2004
H16 H 0.5340 0.1686 0.2106
H17 H 0.5878 0.2619 0.2385
H18 H 0.3521 0.3047 0.0368
H19 H 0.4278 0.3251 0.1505
H20 H 0.3714 0.2326 0.1229
S3 S 0.6427(2) 0.1937(2) -0.2455(2)
O7 O 0.7074(4) 0.1475(3) -0.1425(4)
C19 C 0.7445(6) 0.2450(5) -0.2841(5)
C20 C 0.5807(7) 0.2826(5) -0.2078(7)
H21 H 0.7879 0.2020 -0.3070
H22 H 0.7935 0.2773 -0.2269
H23 H 0.7096 0.2844 -0.3400
H24 H 0.5197 0.2632 -0.1840
H25 H 0.5520 0.3215 -0.2657
H26 H 0.6358 0.3128 -0.1527
S4? S 0.7156(5) 0.2478(4) -0.1659(4)
loop_
_geom_bond_atom_site_label_1
_geom_bond_atom_site_label_2
_geom_bond_site_symmetry_1
_geom_bond_site_symmetry_2
Zn1 O1 1_555 1_555
S1 O5 1_555 1_555
S2 O6 1_555 1_555
S3 O7 1_555 1_555
O1 C1 1_555 1_555
O2 C1 1_555 1_555
O3 Zn1 1_555 1_555
O4 C8 1_555 1_555
O5 Zn1 1_555 1_555
C1 C2 1_555 1_555
C2 C3 1_555 1_555
C3 C4 1_555 1_555
C4 C5 1_555 1_555
C5 C6 1_555 1_555
C6 C7 1_555 1_555
C7 C2 1_555 1_555
C8 O3 1_555 1_555
C9 C8 1_555 1_555
C10 C9 1_555 1_555
C11 C10 1_555 1_555
C12 C11 1_555 1_555
C13 C12 1_555 1_555
C14 C9 1_555 1_555
C15 S1 1_555 1_555
C16 S1 1_555 1_555
C17 S2 1_555 1_555
C18 S2 1_555 1_555
C19 S3 1_555 1_555
C20 S3 1_555 1_555
H1 C3 1_555 1_555
H2 C4 1_555 1_555
H3 C6 1_555 1_555
H4 C7 1_555 1_555
H5 C10 1_555 1_555
H6 C11 1_555 1_555
H7 C13 1_555 1_555
H8 C14 1_555 1_555
H9 C15 1_555 1_555
H10 C15 1_555 1_555
H11 C15 1_555 1_555
H12 C16 1_555 1_555
H13 C16 1_555 1_555
H14 C16 1_555 1_555
H15 C17 1_555 1_555
H16 C17 1_555 1_555
H17 C17 1_555 1_555
H18 C18 1_555 1_555
H19 C18 1_555 1_555
H20 C18 1_555 1_555
H21 C19 1_555 1_555
H22 C19 1_555 1_555
H23 C19 1_555 1_555
H24 C20 1_555 1_555
H25 C20 1_555 1_555
H26 C20 1_555 1_555
C5B C5 1_555 1_555
C4B C5B 1_555 1_555
C3B C4B 1_555 1_555
C2B C3B 1_555 1_555
C1B C2B 1_555 1_555
O1B C1B 1_555 1_555
O2B C1B 1_555 1_555
C7B C2B 1_555 1_555
C6B C5B 1_555 1_555
H3B C6B 1_555 1_555
H4B C7B 1_555 1_555
H1B C3B 1_555 1_555
H2B C4B 1_555 1_555
C12B C12 1_555 1_555
C11B C12B 1_555 1_555
C10B C11B 1_555 1_555
C9B C10B 1_555 1_555
C8B C9B 1_555 1_555
O3B C8B 1_555 1_555
O4B C8B 1_555 1_555
C14B C9B 1_555 1_555
C13B C12B 1_555 1_555
H7B C13B 1_555 1_555
H8B C14B 1_555 1_555
H5B C10B 1_555 1_555
H6B C11B 1_555 1_555
Zn1B O1B 1_555 1_555
S1B O5B 1_555 1_555
O5B Zn1B 1_555 1_555
C15B S1B 1_555 1_555
C16B S1B 1_555 1_555
H9B C15B 1_555 1_555
H10B C15B 1_555 1_555
H11B C15B 1_555 1_555
H12B C16B 1_555 1_555
H13B C16B 1_555 1_555
H14B C16B 1_555 1_555
O2B_2 Zn1 1_555 1_555
O4B_2 Zn1 1_555 1_555
Zn1B_2 O2 1_555 1_555
Zn1_2 O2B 1_555 1_555
Zn1B_3 O3B 1_555 1_555
Zn1_3 O4B 1_555 1_555
O2_2 Zn1B 1_555 1_555
O3B_2 Zn1B 1_555 1_555
O4_2 Zn1B 1_555 1_555
O4 Zn1B_2 1_555 1_555
C13 C14 1_555 1_555
C7B C6B 1_555 1_555
C14B C13B 1_555 1_555

#END
