
#######################################################################
#
#                 Cambridge Crystallographic Data Centre
#                                CCDC 
#
#######################################################################
#
# If this CIF has been generated from an entry in the Cambridge 
# Structural Database, then it will include bibliographic, chemical, 
# crystal, experimental, refinement or atomic coordinate data resulting 
# from the CCDC's data processing and validation procedures.
#
#######################################################################

data_XUPPIJ
_symmetry_cell_setting           monoclinic
_symmetry_space_group_name_H-M   'P 21/c'
_symmetry_Int_Tables_number      14
_space_group_name_Hall           '-P 2ybc'
loop_
_symmetry_equiv_pos_site_id
_symmetry_equiv_pos_as_xyz
1 x,y,z
2 -x,1/2+y,1/2-z
3 -x,-y,-z
4 x,1/2-y,1/2+z
_cell_length_a                   21.8715(17)
_cell_length_b                   7.4843(6)
_cell_length_c                   32.824(2)
_cell_angle_alpha                90
_cell_angle_beta                 94.418(5)
_cell_angle_gamma                90
_cell_volume                     5357.09
loop_
_atom_site_label
_atom_site_type_symbol
_atom_site_fract_x
_atom_site_fract_y
_atom_site_fract_z
Na1 Na 0.39519(6) 0.64948(19) 0.65860(4)
O1 O 0.41262(12) 0.9092(3) 0.61892(7)
O2 O 0.39726(11) 0.3952(3) 0.61339(7)
O3 O 0.29060(11) 0.6510(4) 0.64541(7)
O4 O 0.38995(10) 0.3945(3) 0.70781(7)
O5 O 0.37599(13) 0.8368(4) 0.71612(9)
O6 O 0.49446(12) 0.6712(4) 0.67801(8)
C1 C 0.39827(17) 0.9581(5) 0.57873(10)
C2 C 0.38772(16) 0.4493(5) 0.57352(10)
C3 C 0.24818(16) 0.6782(5) 0.66648(10)
H1 H 0.4062 0.4238 0.7334
H2 H 0.4111 0.2978 0.6997
C4 C 0.44302(17) 1.0312(5) 0.55595(10)
C5 C 0.33979(17) 0.9316(5) 0.56144(10)
C6 C 0.33148(16) 0.4302(5) 0.55152(10)
C7 C 0.43656(17) 0.5274(5) 0.55541(10)
C8 C 0.18438(15) 0.6244(4) 0.65347(10)
O7 O 0.25428(11) 0.7571(4) 0.70235(7)
H3 H 0.4833 1.0455 0.5676
C9 C 0.42800(18) 1.0829(5) 0.51602(11)
C10 C 0.32489(17) 0.9845(5) 0.52158(10)
H4 H 0.3101 0.8777 0.5766
H5 H 0.2983 0.3781 0.5637
C11 C 0.32467(16) 0.4879(4) 0.51181(10)
C12 C 0.42913(16) 0.5865(4) 0.51562(10)
H6 H 0.4747 0.5398 0.5704
C13 C 0.17252(16) 0.5501(4) 0.61504(10)
C14 C 0.13702(15) 0.6499(4) 0.67898(10)
H7 H 0.2908 0.7836 0.7079
H8 H 0.4580 1.1327 0.5004
C15 C 0.36827(17) 1.0610(5) 0.49908(10)
H9 H 0.2847 0.9680 0.5098
H10 H 0.2866 0.4736 0.4968
C16 C 0.37280(16) 0.5670(5) 0.49341(10)
H11 H 0.4621 0.6400 0.5035
C17 C 0.11314(15) 0.4995(4) 0.60205(10)
H12 H 0.2045 0.5340 0.5978
H13 H 0.1453 0.6995 0.7051
C18 C 0.07736(15) 0.6013(4) 0.66543(10)
N1 N 0.34699(14) 1.1199(4) 0.45873(9)
N2 N 0.35908(13) 0.6279(4) 0.45280(8)
C19 C 0.06574(15) 0.5252(4) 0.62729(10)
N3 N 0.09561(13) 0.4291(4) 0.56223(8)
C20 C 0.02504(16) 0.6322(5) 0.69207(10)
N4 N 0.38888(14) 1.1787(4) 0.43895(9)
N5 N 0.40516(13) 0.6851(4) 0.43549(8)
H14 H 0.0256 0.4907 0.6184
N6 N 0.13952(13) 0.3711(4) 0.54330(8)
O8 O 0.03914(10) 0.6645(3) 0.72986(7)
O9 O -0.02871(10) 0.6252(3) 0.67644(7)
C21 C 0.36845(17) 1.2478(4) 0.39957(10)
C22 C 0.38896(16) 0.7528(4) 0.39577(10)
C23 C 0.12291(16) 0.3133(4) 0.50264(9)
C24 C 0.30864(16) 1.3022(5) 0.38728(10)
C25 C 0.41439(16) 1.2729(4) 0.37350(10)
C26 C 0.32970(15) 0.8017(4) 0.38160(10)
C27 C 0.43626(15) 0.7781(4) 0.37066(9)
C28 C 0.16839(15) 0.2349(4) 0.48153(10)
C29 C 0.06438(16) 0.3317(4) 0.48351(10)
H15 H 0.2773 1.2899 0.4051
C30 C 0.29606(15) 1.3739(5) 0.34885(10)
C31 C 0.40146(15) 1.3418(4) 0.33504(10)
H16 H 0.4550 1.2424 0.3822
H17 H 0.2973 0.7870 0.3985
C32 C 0.31840(15) 0.8717(4) 0.34289(10)
C33 C 0.42568(15) 0.8485(4) 0.33170(10)
H18 H 0.4764 0.7468 0.3802
C34 C 0.15707(16) 0.1824(5) 0.44149(10)
H19 H 0.2076 0.2174 0.4948
H20 H 0.0328 0.3807 0.4979
C35 C 0.05254(16) 0.2785(5) 0.44371(10)
C36 C 0.34207(15) 1.3924(4) 0.32167(10)
C37 C 0.23287(16) 1.4388(5) 0.33740(11)
C38 C 0.45400(16) 1.3639(5) 0.30899(10)
C39 C 0.36576(15) 0.8945(4) 0.31771(10)
C40 C 0.25392(16) 0.9210(5) 0.32928(10)
C41 C 0.47776(16) 0.8795(4) 0.30533(10)
C42 C 0.09917(17) 0.2069(5) 0.42209(10)
H21 H 0.1884 0.1303 0.4274
H22 H 0.0128 0.2904 0.4309
H23 H 0.3330 1.4376 0.2952
O10 O 0.22414(11) 1.5033(3) 0.30013(7)
O11 O 0.19276(12) 1.4336(4) 0.36132(8)
O12 O 0.44042(11) 1.4199(4) 0.27198(7)
H24 H 0.3576 0.9410 0.2912
O13 O 0.24781(11) 0.9948(3) 0.29279(7)
O14 O 0.21193(11) 0.8968(4) 0.35030(7)
O15 O 0.53148(11) 0.8722(3) 0.32120(7)
O16 O 0.46437(10) 0.9093(3) 0.26775(7)
O17 O 0.08870(12) 0.1548(3) 0.38179(7)
H25 H 0.1880 1.5368 0.2959
H26 H 0.4722 1.4280 0.2598
H27 H 0.2112 1.0192 0.2869
Na2 Na 0.10686(6) 0.90017(18) 0.34076(4)
O18 O 0.10100(12) 0.6451(3) 0.38621(7)
O19 O 0.12565(12) 1.0614(4) 0.27783(9)
O20 O 0.10809(10) 0.6293(3) 0.29258(7)
O21 O 0.00751(12) 0.9201(4) 0.31898(8)
C43 C 0.11349(17) 0.6974(5) 0.42587(10)
C44 C 0.17146(16) 0.6766(5) 0.44589(11)
C45 C 0.06660(16) 0.7766(5) 0.44589(10)
H28 H 0.2031 0.6227 0.4325
C46 C 0.18194(17) 0.7354(5) 0.48545(11)
C47 C 0.07800(16) 0.8361(5) 0.48559(10)
H29 H 0.0273 0.7896 0.4324
H30 H 0.2209 0.7197 0.4991
C48 C 0.13629(17) 0.8173(5) 0.50549(10)
H31 H 0.0464 0.8894 0.4992
N7 N 0.15361(14) 0.8791(4) 0.54558(9)
N8 N 0.11023(14) 0.9407(4) 0.56364(9)
C49 C 0.12964(16) 1.0121(4) 0.60311(10)
C50 C 0.18897(17) 1.0650(4) 0.61545(10)
C51 C 0.08370(16) 1.0330(4) 0.62905(10)
H32 H 0.2204 1.0524 0.5976
C52 C 0.20194(16) 1.1369(4) 0.65431(10)
C53 C 0.09592(16) 1.1020(4) 0.66794(10)
H33 H 0.0434 0.9999 0.6202
C54 C 0.15557(15) 1.1543(5) 0.68090(10)
C55 C 0.26510(16) 1.2000(5) 0.66536(11)
C56 C 0.04382(16) 1.1196(5) 0.69388(11)
H34 H 0.1644 1.2009 0.7073
O22 O 0.30578(12) 1.1926(4) 0.64170(8)
O23 O 0.27354(11) 1.2696(3) 0.70219(7)
O24 O 0.05676(11) 1.1760(4) 0.73101(7)
H35 H 0.3098 1.3022 0.7064
H36 H 0.0248 1.1814 0.7431
O6B O 0.50554(12) 1.3288(4) 0.32199(8)
Na1B Na 0.60481(6) 1.35052(19) 0.34140(4)
Na2_2 Na 0.10686(6) -0.09983(18) 0.34076(4)
O17_2 O 0.08870(12) 1.1548(3) 0.38179(7)
O21B O -0.00751(12) 1.0799(4) 0.68102(8)
Na2B Na -0.10686(6) 1.09983(18) 0.65924(4)
loop_
_geom_bond_atom_site_label_1
_geom_bond_atom_site_label_2
_geom_bond_site_symmetry_1
_geom_bond_site_symmetry_2
Na1 O1 1_555 1_555
O1 C1 1_555 1_555
O2 Na1 1_555 1_555
O3 Na1 1_555 1_555
O4 Na1 1_555 1_555
O5 Na1 1_555 1_555
O6 Na1 1_555 1_555
C1 C4 1_555 1_555
C2 O2 1_555 1_555
C3 O3 1_555 1_555
H1 O4 1_555 1_555
H2 O4 1_555 1_555
C4 H3 1_555 1_555
C5 C1 1_555 1_555
C6 C2 1_555 1_555
C7 C2 1_555 1_555
C8 C3 1_555 1_555
O7 C3 1_555 1_555
C9 C4 1_555 1_555
C10 C5 1_555 1_555
H4 C5 1_555 1_555
H5 C6 1_555 1_555
C11 C6 1_555 1_555
C12 C7 1_555 1_555
H6 C7 1_555 1_555
C13 C8 1_555 1_555
C14 C8 1_555 1_555
H7 O7 1_555 1_555
H8 C9 1_555 1_555
C15 C9 1_555 1_555
H9 C10 1_555 1_555
H10 C11 1_555 1_555
C16 C11 1_555 1_555
H11 C12 1_555 1_555
C17 C13 1_555 1_555
H12 C13 1_555 1_555
H13 C14 1_555 1_555
C18 C14 1_555 1_555
N1 C15 1_555 1_555
N2 C16 1_555 1_555
C19 C17 1_555 1_555
N3 C17 1_555 1_555
C20 C18 1_555 1_555
N4 N1 1_555 1_555
N5 N2 1_555 1_555
H14 C19 1_555 1_555
N6 N3 1_555 1_555
O8 C20 1_555 1_555
O9 C20 1_555 1_555
C21 N4 1_555 1_555
C22 N5 1_555 1_555
C23 N6 1_555 1_555
C24 C21 1_555 1_555
C25 C21 1_555 1_555
C26 C22 1_555 1_555
C27 C22 1_555 1_555
C28 C23 1_555 1_555
C29 C23 1_555 1_555
H15 C24 1_555 1_555
C30 C24 1_555 1_555
C31 C25 1_555 1_555
H16 C25 1_555 1_555
H17 C26 1_555 1_555
C32 C26 1_555 1_555
C33 C27 1_555 1_555
H18 C27 1_555 1_555
C34 C28 1_555 1_555
H19 C28 1_555 1_555
H20 C29 1_555 1_555
C35 C29 1_555 1_555
C36 C30 1_555 1_555
C37 C30 1_555 1_555
C38 C31 1_555 1_555
C39 C32 1_555 1_555
C40 C32 1_555 1_555
C41 C33 1_555 1_555
C42 C34 1_555 1_555
H21 C34 1_555 1_555
H22 C35 1_555 1_555
H23 C36 1_555 1_555
O10 C37 1_555 1_555
O11 C37 1_555 1_555
O12 C38 1_555 1_555
H24 C39 1_555 1_555
O13 C40 1_555 1_555
O14 C40 1_555 1_555
O15 C41 1_555 1_555
O16 C41 1_555 1_555
O17 C42 1_555 1_555
H25 O10 1_555 1_555
H26 O12 1_555 1_555
H27 O13 1_555 1_555
Na2 O14 1_555 1_555
O18 Na2 1_555 1_555
O19 Na2 1_555 1_555
O20 Na2 1_555 1_555
O21 Na2 1_555 1_555
C43 O18 1_555 1_555
C44 C43 1_555 1_555
C45 C43 1_555 1_555
H28 C44 1_555 1_555
C46 C44 1_555 1_555
C47 C45 1_555 1_555
H29 C45 1_555 1_555
H30 C46 1_555 1_555
C48 C46 1_555 1_555
H31 C47 1_555 1_555
N7 C48 1_555 1_555
N8 N7 1_555 1_555
C49 N8 1_555 1_555
C50 C49 1_555 1_555
C51 C49 1_555 1_555
H32 C50 1_555 1_555
C52 C50 1_555 1_555
C53 C51 1_555 1_555
H33 C51 1_555 1_555
C54 C52 1_555 1_555
C55 C52 1_555 1_555
C56 C53 1_555 1_555
H34 C54 1_555 1_555
O22 C55 1_555 1_555
O23 C55 1_555 1_555
O24 C56 1_555 1_555
H35 O23 1_555 1_555
H36 O24 1_555 1_555
O6B C38 1_555 1_555
Na1B O6B 1_555 1_555
Na2_2 O17 1_555 1_555
O17_2 Na2 1_555 1_555
O21B C56 1_555 1_555
Na2B O21B 1_555 1_555
C10 C15 1_555 1_555
C12 C16 1_555 1_555
C18 C19 1_555 1_555
C31 C36 1_555 1_555
C33 C39 1_555 1_555
C35 C42 1_555 1_555
C47 C48 1_555 1_555
C53 C54 1_555 1_555

#END
