
#######################################################################
#
#                 Cambridge Crystallographic Data Centre
#                                CCDC 
#
#######################################################################
#
# If this CIF has been generated from an entry in the Cambridge 
# Structural Database, then it will include bibliographic, chemical, 
# crystal, experimental, refinement or atomic coordinate data resulting 
# from the CCDC's data processing and validation procedures.
#
#######################################################################

data_XUPSIK
_symmetry_cell_setting           triclinic
_symmetry_space_group_name_H-M   'P -1'
_symmetry_Int_Tables_number      2
_space_group_name_Hall           '-P 1'
loop_
_symmetry_equiv_pos_site_id
_symmetry_equiv_pos_as_xyz
1 x,y,z
2 -x,-y,-z
_cell_length_a                   9.868(2)
_cell_length_b                   14.755(3)
_cell_length_c                   14.969(3)
_cell_angle_alpha                68.48(4)
_cell_angle_beta                 85.60(4)
_cell_angle_gamma                71.92(4)
_cell_volume                     1925.77
loop_
_atom_site_label
_atom_site_type_symbol
_atom_site_fract_x
_atom_site_fract_y
_atom_site_fract_z
Pb1 Pb 0.27004(4) 0.75169(3) 0.75716(3)
Pb2 Pb 0.5000 0.5000 1.0000
Pb3 Pb 0.0000 1.0000 0.5000
I1 I 0.46380(7) 0.73993(6) 0.92297(5)
I2 I 0.08159(8) 0.75658(6) 0.58882(5)
I3 I 0.29901(7) 0.51055(6) 0.83732(5)
I4 I 0.20867(8) 0.98983(6) 0.65957(5)
C1 C -0.4588(11) 0.9674(9) 1.1804(8)
H1 H -0.4579 1.0252 1.1274
N1 N -0.4918(9) 0.7208(7) 1.6613(7)
C2 C -0.1839(11) 0.6948(9) 1.4505(8)
H2 H -0.1370 0.7439 1.4240
N2 N -0.0618(9) 0.6261(7) 1.3469(7)
N3 N -0.1588(9) 0.6206(7) 1.4209(7)
C3 C -0.3256(10) 0.7867(9) 1.5523(8)
H3 H -0.2845 0.8391 1.5257
N4 N -0.3696(9) 0.8842(8) 1.1888(7)
C4 C 0.2154(11) 0.4450(9) 1.1579(8)
H4 H 0.2452 0.3850 1.1449
C5 C -0.2845(11) 0.7037(9) 1.5247(8)
C6 C -0.3481(11) 0.6271(9) 1.5695(8)
H5 H -0.3216 0.5672 1.5563
C7 C -0.6667(11) 0.9086(9) 1.4037(8)
H6 H -0.6614 0.8545 1.4616
C8 C -0.4517(11) 0.6434(9) 1.6339(8)
H7 H -0.4974 0.5936 1.6604
C9 C 0.1332(11) 0.6180(9) 1.1999(8)
H8 H 0.1071 0.6785 1.2121
C10 C 0.1139(11) 0.4532(9) 1.2250(8)
H9 H 0.0737 0.4007 1.2542
N5 N -0.2799(9) 0.8909(8) 1.1114(7)
C11 C -0.4270(10) 0.7923(9) 1.6190(8)
H10 H -0.4528 0.8497 1.6362
C12 C 0.2326(11) 0.6028(9) 1.1337(8)
H11 H 0.2745 0.6541 1.1029
C13 C -0.5606(11) 0.8979(9) 1.3411(8)
H12 H -0.4842 0.8380 1.3574
C14 C -0.0311(11) 0.5496(9) 1.3230(8)
H13 H -0.0739 0.4986 1.3525
C15 C 0.0712(11) 0.5402(9) 1.2493(8)
C16 C -0.6809(11) 1.0636(9) 1.2337(8)
H14 H -0.6901 1.1179 1.1755
C17 C -0.7826(11) 1.0694(9) 1.3026(8)
H15 H -0.8579 1.1296 1.2899
N7 N 0.2739(9) 0.5198(8) 1.1100(7)
N8 N -0.7776(9) 0.9930(8) 1.3860(7)
C18 C -0.5659(11) 0.9760(9) 1.2529(8)
C19 C -0.1313(12) 0.7993(9) 1.0215(9)
C20 C -0.2315(11) 0.8103(9) 1.0955(8)
H16 H -0.2609 0.7543 1.1330
C21 C -0.0984(11) 0.7151(9) 0.9946(8)
H17 H -0.1387 0.6628 1.0246
C22 C -0.0684(11) 0.8738(9) 0.9743(8)
H18 H -0.0881 0.9323 0.9893
C27 C -0.0060(11) 0.7106(9) 0.9238(8)
H22 H 0.0132 0.6542 0.9055
N9 N 0.0590(9) 0.7793(8) 0.8784(7)
C28 C 0.0252(11) 0.8593(9) 0.9037(8)
H23 H 0.0673 0.9102 0.8717
I1A I 0.53620(7) 0.26007(6) 1.07703(5)
I3A I 0.70099(7) 0.48945(6) 1.16268(5)
N1A N 1.4918(9) 0.2792(7) 0.3387(7)
C2A C 1.1839(11) 0.3052(9) 0.5495(8)
H2A H 1.1370 0.2561 0.5760
N2A N 1.0618(9) 0.3739(7) 0.6531(7)
N3A N 1.1588(9) 0.3794(7) 0.5791(7)
C3A C 1.3256(10) 0.2133(9) 0.4477(8)
H3A H 1.2845 0.1609 0.4743
C4A C 0.7846(11) 0.5550(9) 0.8421(8)
H4A H 0.7548 0.6150 0.8551
C5A C 1.2845(11) 0.2963(9) 0.4753(8)
C6A C 1.3481(11) 0.3729(9) 0.4305(8)
H5A H 1.3216 0.4328 0.4437
C8A C 1.4517(11) 0.3566(9) 0.3661(8)
H7A H 1.4974 0.4064 0.3396
C9A C 0.8668(11) 0.3820(9) 0.8001(8)
H8A H 0.8929 0.3215 0.7879
C10A C 0.8861(11) 0.5468(9) 0.7750(8)
H9A H 0.9263 0.5993 0.7458
C11A C 1.4270(10) 0.2077(9) 0.3810(8)
H10A H 1.4528 0.1503 0.3638
C12A C 0.7674(11) 0.3972(9) 0.8663(8)
H11A H 0.7255 0.3459 0.8971
C14A C 1.0311(11) 0.4504(9) 0.6770(8)
H13A H 1.0739 0.5014 0.6475
C15A C 0.9288(11) 0.4598(9) 0.7507(8)
N7A N 0.7261(9) 0.4802(8) 0.8900(7)
Pb1A Pb 0.72996(4) 0.24831(3) 1.24284(3)
I2A I 0.91841(8) 0.24342(6) 1.41118(5)
I4A I 0.79133(8) 0.01017(6) 1.34043(5)
C1A C 1.4588(11) 0.0326(9) 0.8196(8)
H1A H 1.4579 -0.0252 0.8726
N4A N 1.3696(9) 0.1158(8) 0.8112(7)
C7A C 1.6667(11) 0.0914(9) 0.5963(8)
H6A H 1.6614 0.1455 0.5384
N5A N 1.2799(9) 0.1091(8) 0.8886(7)
C13A C 1.5606(11) 0.1021(9) 0.6589(8)
H12A H 1.4842 0.1620 0.6426
C16A C 1.6809(11) -0.0636(9) 0.7663(8)
H14A H 1.6901 -0.1179 0.8245
C17A C 1.7826(11) -0.0694(9) 0.6974(8)
H15A H 1.8579 -0.1296 0.7101
N8A N 1.7776(9) 0.0070(8) 0.6140(7)
C18A C 1.5659(11) 0.0240(9) 0.7471(8)
C19A C 1.1313(12) 0.2007(9) 0.9785(9)
C20A C 1.2315(11) 0.1897(9) 0.9045(8)
H16A H 1.2609 0.2457 0.8670
C21A C 1.0984(11) 0.2849(9) 1.0054(8)
H17A H 1.1387 0.3372 0.9754
C22A C 1.0684(11) 0.1262(9) 1.0257(8)
H18A H 1.0881 0.0677 1.0107
C27A C 1.0060(11) 0.2894(9) 1.0762(8)
H22A H 0.9868 0.3458 1.0945
N9A N 0.9410(9) 0.2207(8) 1.1216(7)
C28A C 0.9748(11) 0.1407(9) 1.0963(8)
H23A H 0.9327 0.0898 1.1283
N1_2 N 0.5082(9) 0.7208(7) 0.6613(7)
I2A_2 I -0.08159(8) 1.24342(6) 0.41118(5)
I4A_2 I -0.20867(8) 1.01017(6) 0.34043(5)
N8_2 N 0.2224(9) 0.9930(8) 0.3860(7)
N8A_2 N -0.2224(9) 1.0070(8) 0.6140(7)
Pb1_2 Pb -0.72996(4) 0.75169(3) 1.75716(3)
Pb3_2 Pb -1.0000 1.0000 1.5000
Pb1A_2 Pb 1.72996(4) 0.24831(3) 0.24284(3)
N1A_2 N 0.4918(9) 0.2792(7) 1.3387(7)
Pb3_3 Pb 1.0000 0.0000 1.5000
Pb3_4 Pb 2.0000 0.0000 0.5000
N6 N 0.4448(13) 0.5448(10) 0.4730(12)
C23 C 0.3176(18) 0.8162(14) 0.1644(14)
H19 H 0.3433 0.8444 0.1016
C24 C 0.3748(19) 0.6849(15) 0.3215(15)
C25 C 0.4775(19) 0.5906(14) 0.3890(13)
H20 H 0.5678 0.5651 0.3685
C26 C 0.4122(18) 0.7305(13) 0.2284(13)
H21 H 0.5022 0.7030 0.2087
C29 C 0.1655(19) 0.8071(14) 0.2855(14)
H24 H 0.0771 0.8367 0.3058
N10 N 0.1926(15) 0.8581(11) 0.1914(11)
C30 C 0.2456(18) 0.7228(14) 0.3513(14)
H25 H 0.2149 0.6929 0.4122
N6A N 0.5552(13) 0.4552(10) 0.5270(12)
C25A C 0.5225(19) 0.4094(14) 0.6110(13)
C24A C 0.6252(19) 0.3151(15) 0.6785(15)
C26A C 0.5878(18) 0.2695(13) 0.7716(13)
C23A C 0.6824(18) 0.1838(14) 0.8356(14)
H19A H 0.6567 0.1556 0.8984
N10A N 0.8074(15) 0.1419(11) 0.8086(11)
C29A C 0.8345(19) 0.1929(14) 0.7145(14)
H24A H 0.9229 0.1633 0.6942
C30A C 0.7544(18) 0.2772(14) 0.6487(14)
H25A H 0.7851 0.3071 0.5878
H21A H 0.4978 0.2970 0.7913
H20A H 0.4322 0.4349 0.6315
loop_
_geom_bond_atom_site_label_1
_geom_bond_atom_site_label_2
_geom_bond_site_symmetry_1
_geom_bond_site_symmetry_2
Pb1 I1 1_555 1_555
Pb2 I1 1_555 1_555
Pb3 I2 1_555 1_555
I2 Pb1 1_555 1_555
I3 Pb1 1_555 1_555
I4 Pb1 1_555 1_555
C1 H1 1_555 1_555
N1 C8 1_555 1_555
C2 H2 1_555 1_555
N2 N3 1_555 1_555
N3 C2 1_555 1_555
C3 H3 1_555 1_555
N4 C1 1_555 1_555
C4 H4 1_555 1_555
C5 C2 1_555 1_555
C6 C5 1_555 1_555
H5 C6 1_555 1_555
C7 H6 1_555 1_555
C8 C6 1_555 1_555
H7 C8 1_555 1_555
C9 H8 1_555 1_555
C10 C4 1_555 1_555
H9 C10 1_555 1_555
N5 N4 1_555 1_555
C11 N1 1_555 1_555
H10 C11 1_555 1_555
C12 C9 1_555 1_555
H11 C12 1_555 1_555
N6 C25 1_555 1_555
C13 C7 1_555 1_555
H12 C13 1_555 1_555
C14 N2 1_555 1_555
H13 C14 1_555 1_555
C15 C9 1_555 1_555
C16 H14 1_555 1_555
C17 C16 1_555 1_555
H15 C17 1_555 1_555
N7 Pb2 1_555 1_555
N8 C7 1_555 1_555
C18 C1 1_555 1_555
C19 C20 1_555 1_555
C20 N5 1_555 1_555
H16 C20 1_555 1_555
C21 C19 1_555 1_555
H17 C21 1_555 1_555
C22 C19 1_555 1_555
H18 C22 1_555 1_555
C23 H19 1_555 1_555
C24 C25 1_555 1_555
C25 H20 1_555 1_555
C26 C23 1_555 1_555
H21 C26 1_555 1_555
C27 C21 1_555 1_555
H22 C27 1_555 1_555
N9 Pb1 1_555 1_555
C28 C22 1_555 1_555
H23 C28 1_555 1_555
C29 H24 1_555 1_555
N10 C23 1_555 1_555
C30 C24 1_555 1_555
H25 C30 1_555 1_555
N6A N6 1_555 1_555
C25A N6A 1_555 1_555
C24A C25A 1_555 1_555
C26A C24A 1_555 1_555
C23A C26A 1_555 1_555
H19A C23A 1_555 1_555
N10A C23A 1_555 1_555
C29A N10A 1_555 1_555
H24A C29A 1_555 1_555
C30A C24A 1_555 1_555
H25A C30A 1_555 1_555
H21A C26A 1_555 1_555
H20A C25A 1_555 1_555
I1A Pb2 1_555 1_555
I3A Pb2 1_555 1_555
N1A C8A 1_555 1_555
C2A H2A 1_555 1_555
N2A N3A 1_555 1_555
N3A C2A 1_555 1_555
C3A H3A 1_555 1_555
C4A H4A 1_555 1_555
C5A C2A 1_555 1_555
C6A C5A 1_555 1_555
H5A C6A 1_555 1_555
C8A C6A 1_555 1_555
H7A C8A 1_555 1_555
C9A H8A 1_555 1_555
C10A C4A 1_555 1_555
H9A C10A 1_555 1_555
C11A N1A 1_555 1_555
H10A C11A 1_555 1_555
C12A C9A 1_555 1_555
H11A C12A 1_555 1_555
C14A N2A 1_555 1_555
H13A C14A 1_555 1_555
C15A C9A 1_555 1_555
N7A Pb2 1_555 1_555
Pb1A I1A 1_555 1_555
I2A Pb1A 1_555 1_555
I4A Pb1A 1_555 1_555
C1A H1A 1_555 1_555
N4A C1A 1_555 1_555
C7A H6A 1_555 1_555
N5A N4A 1_555 1_555
C13A C7A 1_555 1_555
H12A C13A 1_555 1_555
C16A H14A 1_555 1_555
C17A C16A 1_555 1_555
H15A C17A 1_555 1_555
N8A C7A 1_555 1_555
C18A C1A 1_555 1_555
C19A C20A 1_555 1_555
C20A N5A 1_555 1_555
H16A C20A 1_555 1_555
C21A C19A 1_555 1_555
H17A C21A 1_555 1_555
C22A C19A 1_555 1_555
H18A C22A 1_555 1_555
C27A C21A 1_555 1_555
H22A C27A 1_555 1_555
N9A Pb1A 1_555 1_555
C28A C22A 1_555 1_555
H23A C28A 1_555 1_555
N1_2 Pb1 1_555 1_555
I2A_2 Pb3 1_555 1_555
I4A_2 Pb3 1_555 1_555
N8_2 Pb3 1_555 1_555
N8A_2 Pb3 1_555 1_555
Pb1_2 N1 1_555 1_555
Pb3_2 N8 1_555 1_555
Pb1A_2 N1A 1_555 1_555
N1A_2 Pb1A 1_555 1_555
Pb3_3 I2A 1_555 1_555
Pb3_4 N8A 1_555 1_555
Pb2 I3 1_555 1_555
Pb3 I4 1_555 1_555
C3 C5 1_555 1_555
C3 C11 1_555 1_555
C4 N7 1_555 1_555
C10 C15 1_555 1_555
C12 N7 1_555 1_555
C13 C18 1_555 1_555
C14 C15 1_555 1_555
C16 C18 1_555 1_555
C17 N8 1_555 1_555
C24 C26 1_555 1_555
C27 N9 1_555 1_555
N9 C28 1_555 1_555
C29 N10 1_555 1_555
C29 C30 1_555 1_555
C29A C30A 1_555 1_555
I3A Pb1A 1_555 1_555
C3A C5A 1_555 1_555
C3A C11A 1_555 1_555
C4A N7A 1_555 1_555
C10A C15A 1_555 1_555
C12A N7A 1_555 1_555
C14A C15A 1_555 1_555
I4A Pb3_3 1_555 1_555
C13A C18A 1_555 1_555
C16A C18A 1_555 1_555
C17A N8A 1_555 1_555
C27A N9A 1_555 1_555
N9A C28A 1_555 1_555

#END
