
#######################################################################
#
#                 Cambridge Crystallographic Data Centre
#                                CCDC 
#
#######################################################################
#
# If this CIF has been generated from an entry in the Cambridge 
# Structural Database, then it will include bibliographic, chemical, 
# crystal, experimental, refinement or atomic coordinate data resulting 
# from the CCDC's data processing and validation procedures.
#
#######################################################################

data_XUQDAO
_symmetry_cell_setting           orthorhombic
_symmetry_space_group_name_H-M   'P n a 21'
_symmetry_Int_Tables_number      33
_space_group_name_Hall           'P 2c -2n'
loop_
_symmetry_equiv_pos_site_id
_symmetry_equiv_pos_as_xyz
1 x,y,z
2 -x,-y,1/2+z
3 1/2+x,1/2-y,z
4 1/2-x,1/2+y,1/2+z
_cell_length_a                   16.956(7)
_cell_length_b                   22.495(5)
_cell_length_c                   8.0303(19)
_cell_angle_alpha                90
_cell_angle_beta                 90
_cell_angle_gamma                90
_cell_volume                     3062.96
loop_
_atom_site_label
_atom_site_type_symbol
_atom_site_fract_x
_atom_site_fract_y
_atom_site_fract_z
K1 K 0.46357(13) 0.98152(11) -0.1518(6)
P1 P 0.31071(12) 0.86566(12) -0.1707(4)
O1 O 0.3696(4) 0.8959(3) -0.2830(10)
C1 C 0.3632(6) 0.8110(5) -0.0438(15)
C2 C 0.3638(6) 0.8188(6) 0.1277(15)
H1 H 0.3371 0.8510 0.1737
C3 C 0.4039(6) 0.7795(6) 0.2330(16)
H2 H 0.4027 0.7847 0.3478
C4 C 0.4452(7) 0.7326(6) 0.1628(18)
H3 H 0.4720 0.7058 0.2303
C5 C 0.4463(7) 0.7259(6) -0.0096(18)
H4 H 0.4743 0.6944 -0.0555
C6 C 0.4070(6) 0.7646(5) -0.1149(14)
C7 C 0.4123(7) 0.7537(6) -0.3022(14)
H5 H 0.3602 0.7488 -0.3471
H6 H 0.4426 0.7184 -0.3227
H7 H 0.4375 0.7870 -0.3547
C8 C 0.2413(5) 0.8243(5) -0.2966(15)
C9 C 0.2436(7) 0.8305(6) -0.4691(16)
H8 H 0.2820 0.8550 -0.5156
C10 C 0.1923(8) 0.8026(6) -0.5719(18)
H9 H 0.1953 0.8079 -0.6866
C11 C 0.1353(8) 0.7660(7) -0.503(2)
H10 H 0.0994 0.7468 -0.5721
C12 C 0.1308(7) 0.7575(6) -0.3315(19)
H11 H 0.0927 0.7324 -0.2871
C13 C 0.1827(6) 0.7862(5) -0.2283(15)
C14 C 0.1744(7) 0.7756(6) -0.0403(16)
H12 H 0.1249 0.7565 -0.0179
H13 H 0.1764 0.8130 0.0172
H14 H 0.2168 0.7507 -0.0025
N1 N 0.2585(4) 0.9051(3) -0.0495(12)
P2 P 0.24076(13) 0.96156(12) 0.0535(4)
O2 O 0.2998(4) 0.9798(3) 0.1848(10)
C15 C 0.2275(6) 1.0253(5) -0.0854(15)
C16 C 0.2426(7) 1.0183(6) -0.2537(16)
H15 H 0.2581 0.9813 -0.2943
C17 C 0.2348(7) 1.0661(7) -0.3626(19)
H16 H 0.2430 1.0606 -0.4761
C18 C 0.2156(7) 1.1201(6) -0.304(2)
H17 H 0.2117 1.1518 -0.3780
C19 C 0.2015(7) 1.1298(6) -0.1382(19)
H18 H 0.1880 1.1674 -0.0999
C20 C 0.2076(6) 1.0816(6) -0.0267(17)
C21 C 0.1914(8) 1.0950(6) 0.1582(19)
H19 H 0.1378 1.0850 0.1842
H20 H 0.2001 1.1365 0.1794
H21 H 0.2264 1.0718 0.2263
C22 C 0.1472(6) 0.9491(5) 0.1560(14)
C23 C 0.1460(6) 0.9511(5) 0.3291(18)
H22 H 0.1923 0.9597 0.3862
C24 C 0.0781(7) 0.9408(6) 0.4179(16)
H23 H 0.0780 0.9428 0.5336
C25 C 0.0107(6) 0.9275(6) 0.332(2)
H24 H -0.0356 0.9209 0.3918
C26 C 0.0086(7) 0.9237(6) 0.1671(19)
H25 H -0.0382 0.9142 0.1131
C27 C 0.0771(6) 0.9342(5) 0.0753(16)
C28 C 0.0729(6) 0.9289(6) -0.1142(15)
H26 H 0.0883 0.9659 -0.1639
H27 H 0.0200 0.9193 -0.1470
H28 H 0.1080 0.8980 -0.1508
O3 O 0.5166(4) 0.9208(3) 0.1345(11)
H29 H 0.4682 0.9024 0.1767
C29 C 0.5621(7) 0.8712(6) 0.087(2)
H30 H 0.5282 0.8410 0.0426
H31 H 0.5895 0.8559 0.1826
H32 H 0.5997 0.8830 0.0040
O4 O 0.4225(4) 1.0495(3) 0.1269(11)
H33 H 0.3727 1.0334 0.1693
C30 C 0.4084(5) 1.1093(3) 0.0851(16)
H34 H 0.3730 1.1265 0.1650
H35 H 0.3852 1.1114 -0.0238
H36 H 0.4573 1.1307 0.0856
O5 O 0.5885(3) 1.0635(3) -0.0975(10)
H37 H 0.6028 1.0592 0.0033
H38 H 0.6272 1.0511 -0.1550
O3A O 0.4834(4) 1.0792(3) -0.3655(11)
O4A O 0.5775(4) 0.9505(3) -0.3731(11)
K1A K 0.53643(13) 1.01848(11) 0.3482(6)
H29A H 0.5318 1.0976 -0.3233
H33A H 0.6273 0.9666 -0.3307
loop_
_geom_bond_atom_site_label_1
_geom_bond_atom_site_label_2
_geom_bond_site_symmetry_1
_geom_bond_site_symmetry_2
K1 O1 1_555 1_555
P1 O1 1_555 1_555
C1 P1 1_555 1_555
C2 C1 1_555 1_555
H1 C2 1_555 1_555
C3 C2 1_555 1_555
H2 C3 1_555 1_555
C4 C3 1_555 1_555
H3 C4 1_555 1_555
C5 C4 1_555 1_555
H4 C5 1_555 1_555
C6 C1 1_555 1_555
C7 C6 1_555 1_555
H5 C7 1_555 1_555
H6 C7 1_555 1_555
H7 C7 1_555 1_555
C8 P1 1_555 1_555
C9 C8 1_555 1_555
H8 C9 1_555 1_555
C10 C9 1_555 1_555
H9 C10 1_555 1_555
C11 C10 1_555 1_555
H10 C11 1_555 1_555
C12 C11 1_555 1_555
H11 C12 1_555 1_555
C13 C8 1_555 1_555
C14 C13 1_555 1_555
H12 C14 1_555 1_555
H13 C14 1_555 1_555
H14 C14 1_555 1_555
N1 P1 1_555 1_555
P2 N1 1_555 1_555
O2 P2 1_555 1_555
C15 P2 1_555 1_555
C16 C15 1_555 1_555
H15 C16 1_555 1_555
C17 C16 1_555 1_555
H16 C17 1_555 1_555
C18 C17 1_555 1_555
H17 C18 1_555 1_555
C19 C18 1_555 1_555
H18 C19 1_555 1_555
C20 C15 1_555 1_555
C21 C20 1_555 1_555
H19 C21 1_555 1_555
H20 C21 1_555 1_555
H21 C21 1_555 1_555
C22 P2 1_555 1_555
C23 C22 1_555 1_555
H22 C23 1_555 1_555
C24 C23 1_555 1_555
H23 C24 1_555 1_555
C25 C24 1_555 1_555
H24 C25 1_555 1_555
C26 C25 1_555 1_555
H25 C26 1_555 1_555
C27 C22 1_555 1_555
C28 C27 1_555 1_555
H26 C28 1_555 1_555
H27 C28 1_555 1_555
H28 C28 1_555 1_555
O3 K1 1_555 1_555
H29 O3 1_555 1_555
C29 O3 1_555 1_555
H30 C29 1_555 1_555
H31 C29 1_555 1_555
H32 C29 1_555 1_555
O4 K1 1_555 1_555
H33 O4 1_555 1_555
C30 O4 1_555 1_555
H34 C30 1_555 1_555
H35 C30 1_555 1_555
H36 C30 1_555 1_555
O5 K1 1_555 1_555
H37 O5 1_555 1_555
H38 O5 1_555 1_555
O3A K1 1_555 1_555
O4A K1 1_555 1_555
K1A O3 1_555 1_555
H29A O3A 1_555 1_555
H33A O4A 1_555 1_555
C5 C6 1_555 1_555
C12 C13 1_555 1_555
C19 C20 1_555 1_555
C26 C27 1_555 1_555
O4 K1A 1_555 1_555

#END
