
#######################################################################
#
#                 Cambridge Crystallographic Data Centre
#                                CCDC 
#
#######################################################################
#
# If this CIF has been generated from an entry in the Cambridge 
# Structural Database, then it will include bibliographic, chemical, 
# crystal, experimental, refinement or atomic coordinate data resulting 
# from the CCDC's data processing and validation procedures.
#
#######################################################################

data_XUQHAT
_symmetry_cell_setting           orthorhombic
_symmetry_space_group_name_H-M   'P b c n'
_symmetry_Int_Tables_number      60
_space_group_name_Hall           '-P 2n 2ab'
loop_
_symmetry_equiv_pos_site_id
_symmetry_equiv_pos_as_xyz
1 x,y,z
2 1/2-x,1/2-y,1/2+z
3 -x,y,1/2-z
4 1/2+x,1/2-y,-z
5 -x,-y,-z
6 1/2+x,1/2+y,1/2-z
7 x,-y,1/2+z
8 1/2-x,1/2+y,z
_cell_length_a                   16.5885(5)
_cell_length_b                   19.0857(5)
_cell_length_c                   19.1195(5)
_cell_angle_alpha                90
_cell_angle_beta                 90
_cell_angle_gamma                90
_cell_volume                     6053.29
loop_
_atom_site_label
_atom_site_type_symbol
_atom_site_fract_x
_atom_site_fract_y
_atom_site_fract_z
Sm1 Sm 0.595525(15) 0.280447(14) 0.015557(13)
Cu1 Cu 0.72388(3) 0.17375(3) -0.09145(3)
O1 O 0.65326(19) 0.16241(17) -0.00930(16)
O2 O 0.5578(2) 0.17787(19) 0.09847(16)
O3 O 0.65715(19) 0.25885(17) -0.09869(15)
O4 O 0.5571(2) 0.36314(19) -0.08422(17)
O5 O 0.3242(2) 0.2608(2) 0.04051(18)
O6 O 0.45363(19) 0.29149(19) 0.04138(18)
O7 O 0.21623(19) 0.24683(18) -0.09295(17)
O8 O 0.22548(19) 0.15055(18) -0.02884(17)
O9 O 0.5822(2) 0.33712(19) 0.13846(18)
O10 O 0.5673(2) 0.41174(18) 0.05438(18)
O11 O 0.5677(3) 0.4479(2) 0.1624(2)
N1 N 0.7870(3) 0.0879(2) -0.0693(2)
N2 N 0.7564(3) 0.1806(2) -0.1903(2)
N3 N 0.4833(2) 0.2144(2) -0.0720(2)
N4 N 0.3560(2) 0.1544(2) -0.1478(2)
N5 N 0.5717(3) 0.4002(2) 0.1190(2)
C1 C 0.6619(3) 0.1161(2) 0.0425(2)
C2 C 0.6106(3) 0.1214(3) 0.1012(2)
C3 C 0.6147(3) 0.0735(3) 0.1553(3)
H1 H 0.5790 0.0776 0.1939
C4 C 0.6701(4) 0.0200(3) 0.1536(3)
H2 H 0.6725 -0.0129 0.1909
C5 C 0.7213(4) 0.0141(3) 0.0987(3)
H3 H 0.7599 -0.0228 0.0983
C6 C 0.7187(3) 0.0614(3) 0.0420(3)
C7 C 0.7768(3) 0.0515(3) -0.0129(3)
H4 H 0.8125 0.0130 -0.0070
C8 C 0.8547(4) 0.0624(3) -0.1132(3)
H5 H 0.8415 0.0146 -0.1299
H6 H 0.9035 0.0588 -0.0836
C9 C 0.8740(4) 0.1069(3) -0.1751(3)
H7 H 0.8974 0.1517 -0.1586
H8 H 0.9154 0.0829 -0.2037
C10 C 0.8028(4) 0.1223(3) -0.2199(3)
H9 H 0.8210 0.1347 -0.2677
H10 H 0.7682 0.0802 -0.2232
C11 C 0.7436(3) 0.2338(3) -0.2299(2)
H11 H 0.7699 0.2332 -0.2740
C12 C 0.6939(3) 0.2945(3) -0.2156(3)
C13 C 0.6880(3) 0.3460(3) -0.2683(3)
H12 H 0.7181 0.3411 -0.3103
C14 C 0.6393(4) 0.4027(3) -0.2592(3)
H13 H 0.6377 0.4383 -0.2940
C15 C 0.5918(3) 0.4093(3) -0.1996(3)
H14 H 0.5548 0.4470 -0.1951
C16 C 0.5991(3) 0.3603(3) -0.1472(3)
C17 C 0.6518(3) 0.3026(3) -0.1526(2)
C18 C 0.5129(4) 0.1911(3) 0.1618(3)
H15 H 0.4764 0.1518 0.1709
H16 H 0.4814 0.2342 0.1564
H17 H 0.5503 0.1963 0.2011
C19 C 0.4863(3) 0.4075(3) -0.0817(3)
H18 H 0.4508 0.3962 -0.1210
H19 H 0.5028 0.4568 -0.0847
H20 H 0.4576 0.3997 -0.0376
C20 C 0.4062(3) 0.2210(2) -0.0515(2)
C21 C 0.4956(3) 0.1781(3) -0.1308(3)
H21 H 0.5491 0.1725 -0.1476
C22 C 0.4328(3) 0.1487(3) -0.1677(3)
H22 H 0.4447 0.1231 -0.2090
C23 C 0.3427(3) 0.1910(2) -0.0886(2)
C24 C 0.3926(3) 0.2614(3) 0.0164(3)
C25 C 0.2559(3) 0.1970(3) -0.0677(2)
Sm1C Sm 0.095525(15) 0.219553(14) -0.015557(13)
Cu1C Cu 0.22388(3) 0.32625(3) 0.09145(3)
O5C O 0.8242(2) 0.2392(2) -0.04051(18)
O7C O 0.71623(19) 0.25317(18) 0.09295(17)
O8C O 0.72548(19) 0.34945(18) 0.02884(17)
O12 O 0.6115(3) 0.0463(3) -0.1838(2)
C26 C 0.5931(4) 0.0207(3) -0.1280(3)
H23 H 0.5549 0.0457 -0.1007
N6 N 0.6211(3) -0.0389(2) -0.1011(2)
C27 C 0.6823(4) -0.0796(4) -0.1364(4)
H24 H 0.6942 -0.0583 -0.1819
H25 H 0.6629 -0.1275 -0.1433
H26 H 0.7315 -0.0804 -0.1079
C28 C 0.5939(4) -0.0642(4) -0.0332(3)
H27 H 0.5614 -0.0279 -0.0104
H28 H 0.6407 -0.0752 -0.0040
H29 H 0.5612 -0.1065 -0.0396
loop_
_geom_bond_atom_site_label_1
_geom_bond_atom_site_label_2
_geom_bond_site_symmetry_1
_geom_bond_site_symmetry_2
Sm1 O1 1_555 1_555
Cu1 O1 1_555 1_555
O1 C1 1_555 1_555
O2 Sm1 1_555 1_555
O3 Sm1 1_555 1_555
O4 Sm1 1_555 1_555
O5 C24 1_555 1_555
O6 Sm1 1_555 1_555
O7 C25 1_555 1_555
O8 C25 1_555 1_555
O9 Sm1 1_555 1_555
O10 Sm1 1_555 1_555
O11 N5 1_555 1_555
N1 Cu1 1_555 1_555
N2 Cu1 1_555 1_555
N3 Sm1 1_555 1_555
N4 C22 1_555 1_555
N5 O9 1_555 1_555
C1 C2 1_555 1_555
C2 O2 1_555 1_555
C3 C2 1_555 1_555
H1 C3 1_555 1_555
C4 C3 1_555 1_555
H2 C4 1_555 1_555
C5 C4 1_555 1_555
H3 C5 1_555 1_555
C6 C1 1_555 1_555
C7 N1 1_555 1_555
H4 C7 1_555 1_555
C8 N1 1_555 1_555
H5 C8 1_555 1_555
H6 C8 1_555 1_555
C9 C8 1_555 1_555
H7 C9 1_555 1_555
H8 C9 1_555 1_555
C10 N2 1_555 1_555
H9 C10 1_555 1_555
H10 C10 1_555 1_555
C11 N2 1_555 1_555
H11 C11 1_555 1_555
C12 C11 1_555 1_555
C13 C12 1_555 1_555
H12 C13 1_555 1_555
C14 C13 1_555 1_555
H13 C14 1_555 1_555
C15 C14 1_555 1_555
H14 C15 1_555 1_555
C16 O4 1_555 1_555
C17 O3 1_555 1_555
C18 O2 1_555 1_555
H15 C18 1_555 1_555
H16 C18 1_555 1_555
H17 C18 1_555 1_555
C19 O4 1_555 1_555
H18 C19 1_555 1_555
H19 C19 1_555 1_555
H20 C19 1_555 1_555
C20 N3 1_555 1_555
C21 N3 1_555 1_555
H21 C21 1_555 1_555
C22 C21 1_555 1_555
H22 C22 1_555 1_555
C23 N4 1_555 1_555
C24 O6 1_555 1_555
C25 C23 1_555 1_555
O12 C26 1_555 1_555
C26 H23 1_555 1_555
N6 C26 1_555 1_555
C27 N6 1_555 1_555
H24 C27 1_555 1_555
H25 C27 1_555 1_555
H26 C27 1_555 1_555
C28 N6 1_555 1_555
H27 C28 1_555 1_555
H28 C28 1_555 1_555
H29 C28 1_555 1_555
Sm1C O7 1_555 1_555
Cu1C O5 1_555 1_555
O5C Cu1 1_555 1_555
O7C Sm1 1_555 1_555
O8C Sm1 1_555 1_555
Cu1 O3 1_555 1_555
O8 Sm1C 1_555 1_555
O10 N5 1_555 1_555
C5 C6 1_555 1_555
C6 C7 1_555 1_555
C9 C10 1_555 1_555
C12 C17 1_555 1_555
C15 C16 1_555 1_555
C16 C17 1_555 1_555
C20 C23 1_555 1_555
C20 C24 1_555 1_555

#END
