
#######################################################################
#
#                 Cambridge Crystallographic Data Centre
#                                CCDC 
#
#######################################################################
#
# If this CIF has been generated from an entry in the Cambridge 
# Structural Database, then it will include bibliographic, chemical, 
# crystal, experimental, refinement or atomic coordinate data resulting 
# from the CCDC's data processing and validation procedures.
#
#######################################################################

data_XUQMAX
_symmetry_cell_setting           trigonal
_symmetry_space_group_name_H-M   'P 3 c 1'
_symmetry_Int_Tables_number      158
_space_group_name_Hall           'P 3 -2"c'
loop_
_symmetry_equiv_pos_site_id
_symmetry_equiv_pos_as_xyz
1 x,y,z
2 -y,x-y,z
3 -x+y,-x,z
4 -y,-x,1/2+z
5 -x+y,y,1/2+z
6 x,x-y,1/2+z
_cell_length_a                   11.0285(8)
_cell_length_b                   11.0285(8)
_cell_length_c                   13.4888(13)
_cell_angle_alpha                90
_cell_angle_beta                 90
_cell_angle_gamma                120
_cell_volume                     1420.81
loop_
_atom_site_label
_atom_site_type_symbol
_atom_site_fract_x
_atom_site_fract_y
_atom_site_fract_z
Zn1 Zn 0.3333 0.6667 0.20117(12)
N1 N 0.2015(4) 0.2871(4) 0.0282(3)
N2 N 0.0992(4) 0.3157(4) 0.0220(3)
N3 N 0.1238(4) 0.4286(4) 0.0707(4)
N4 N 0.2474(4) 0.4779(5) 0.1132(3)
C1 C 0.2965(4) 0.3940(4) 0.0875(4)
N5 N -0.0416(4) 0.5417(4) -0.1260(3)
N6 N -0.0150(4) 0.4364(4) -0.1189(3)
N7 N 0.0950(4) 0.4535(4) -0.1679(3)
N8 N 0.1451(4) 0.5796(4) -0.2100(3)
C2 C 0.0556(5) 0.6250(5) -0.1825(4)
C3 C -0.0248(5) 0.2309(4) -0.0377(4)
C4 C -0.1044(5) 0.3067(5) -0.0609(4)
H1 H -0.087(3) 0.149(3) 0.008(2)
H2 H 0.011(4) 0.206(4) -0.096(3)
H3 H -0.129(6) 0.328(5) 0.000(5)
H4 H -0.189(4) 0.240(4) -0.081(3)
H5 H 0.361(3) 0.397(3) 0.106(2)
H6 H 0.077(4) 0.732(4) -0.207(3)
N1A N 0.7129(4) 0.9144(6) 0.0282(3)
N2A N 0.6843(4) 0.7835(6) 0.0220(3)
N3A N 0.5714(4) 0.6952(6) 0.0707(4)
N4A N 0.5221(5) 0.7695(6) 0.1132(3)
C1A C 0.6060(4) 0.9025(6) 0.0875(4)
N5A N 0.4583(4) 0.4167(6) -0.1260(3)
N6A N 0.5636(4) 0.5486(6) -0.1189(3)
N7A N 0.5465(4) 0.6415(6) -0.1679(3)
N8A N 0.4204(4) 0.5655(6) -0.2100(3)
C2A C 0.3750(5) 0.4306(7) -0.1825(4)
C3A C 0.7691(4) 0.7443(6) -0.0377(4)
C4A C 0.6933(5) 0.5889(7) -0.0609(4)
H1A H 0.851(3) 0.764(4) 0.008(2)
H2A H 0.794(4) 0.805(6) -0.096(3)
H3A H 0.672(5) 0.543(8) 0.000(5)
H4A H 0.760(4) 0.571(6) -0.081(3)
H5A H 0.603(3) 0.964(4) 0.106(2)
H6A H 0.268(4) 0.345(6) -0.207(3)
N1B N 0.0856(6) 0.7985(4) 0.0282(3)
N2B N 0.2165(6) 0.9008(4) 0.0220(3)
N3B N 0.3048(6) 0.8762(4) 0.0707(4)
N4B N 0.2305(6) 0.7526(4) 0.1132(3)
C1B C 0.0975(6) 0.7035(4) 0.0875(4)
N5B N 0.5833(6) 1.0416(4) -0.1260(3)
N6B N 0.4514(6) 1.0150(4) -0.1189(3)
N7B N 0.3585(6) 0.9050(4) -0.1679(3)
N8B N 0.4345(6) 0.8549(4) -0.2100(3)
C2B C 0.5694(7) 0.9444(5) -0.1825(4)
C3B C 0.2557(6) 1.0248(5) -0.0377(4)
C4B C 0.4111(7) 1.1044(5) -0.0609(4)
H1B H 0.236(4) 1.087(3) 0.008(2)
H2B H 0.195(6) 0.989(4) -0.096(3)
H3B H 0.457(8) 1.129(6) 0.000(5)
H4B H 0.429(6) 1.189(4) -0.081(3)
H5B H 0.036(4) 0.639(3) 0.106(2)
H6B H 0.655(6) 0.923(4) -0.207(3)
N8C N 0.4204(4) 0.8549(4) 0.2900(3)
N8D N 0.4345(6) 0.5796(4) 0.2900(3)
N8E N 0.1451(4) 0.5655(6) 0.2900(3)
Zn1C Zn 0.3333 0.6667 -0.29883(12)
Cl1 Cl -0.3333 0.3333 -0.32321(17)
O1 O -0.3414(5) 0.4506(4) -0.3585(5)
O2 O -0.3333 0.3333 -0.2194(7)
O1A O -0.4506(4) 0.2080(6) -0.3585(5)
O1B O -0.2080(6) 0.3414(5) -0.3585(5)
Cl2 Cl 0.0000 0.0000 0.22559(18)
O3 O 0.0000 0.0000 0.1203(7)
O4 O 0.0198(6) 0.1296(5) 0.2617(4)
O4A O -0.1296(5) -0.1098(8) 0.2617(4)
O4B O 0.1098(8) -0.0198(6) 0.2617(4)
loop_
_geom_bond_atom_site_label_1
_geom_bond_atom_site_label_2
_geom_bond_site_symmetry_1
_geom_bond_site_symmetry_2
Zn1 N4 1_555 1_555
N1 N2 1_555 1_555
N2 N3 1_555 1_555
N3 N4 1_555 1_555
N4 C1 1_555 1_555
C1 N1 1_555 1_555
N5 N6 1_555 1_555
N6 N7 1_555 1_555
N7 N8 1_555 1_555
N8 C2 1_555 1_555
C2 N5 1_555 1_555
C3 N2 1_555 1_555
C4 N6 1_555 1_555
Cl1 O1 1_555 1_555
O2 Cl1 1_555 1_555
Cl2 O3 1_555 1_555
O4 Cl2 1_555 1_555
H1 C3 1_555 1_555
H2 C3 1_555 1_555
H3 C4 1_555 1_555
H4 C4 1_555 1_555
H5 C1 1_555 1_555
H6 C2 1_555 1_555
O1A Cl1 1_555 1_555
O1B Cl1 1_555 1_555
O4A Cl2 1_555 1_555
O4B Cl2 1_555 1_555
N1A N2A 1_555 1_555
N2A N3A 1_555 1_555
N3A N4A 1_555 1_555
N4A Zn1 1_555 1_555
C1A N1A 1_555 1_555
N5A N6A 1_555 1_555
N6A N7A 1_555 1_555
N7A N8A 1_555 1_555
N8A C2A 1_555 1_555
C2A N5A 1_555 1_555
C3A N2A 1_555 1_555
C4A N6A 1_555 1_555
H1A C3A 1_555 1_555
H2A C3A 1_555 1_555
H3A C4A 1_555 1_555
H4A C4A 1_555 1_555
H5A C1A 1_555 1_555
H6A C2A 1_555 1_555
N1B N2B 1_555 1_555
N2B N3B 1_555 1_555
N3B N4B 1_555 1_555
N4B Zn1 1_555 1_555
C1B N1B 1_555 1_555
N5B N6B 1_555 1_555
N6B N7B 1_555 1_555
N7B N8B 1_555 1_555
N8B C2B 1_555 1_555
C2B N5B 1_555 1_555
C3B N2B 1_555 1_555
C4B N6B 1_555 1_555
H1B C3B 1_555 1_555
H2B C3B 1_555 1_555
H3B C4B 1_555 1_555
H4B C4B 1_555 1_555
H5B C1B 1_555 1_555
H6B C2B 1_555 1_555
N8C Zn1 1_555 1_555
N8D Zn1 1_555 1_555
N8E Zn1 1_555 1_555
Zn1C N8 1_555 1_555
C3 C4 1_555 1_555
N4A C1A 1_555 1_555
N8A Zn1C 1_555 1_555
C3A C4A 1_555 1_555
N4B C1B 1_555 1_555
N8B Zn1C 1_555 1_555
C3B C4B 1_555 1_555

#END
