
#######################################################################
#
#                 Cambridge Crystallographic Data Centre
#                                CCDC 
#
#######################################################################
#
# If this CIF has been generated from an entry in the Cambridge 
# Structural Database, then it will include bibliographic, chemical, 
# crystal, experimental, refinement or atomic coordinate data resulting 
# from the CCDC's data processing and validation procedures.
#
#######################################################################

data_XURFUL
_symmetry_cell_setting           triclinic
_symmetry_space_group_name_H-M   'P -1'
_symmetry_Int_Tables_number      2
_space_group_name_Hall           '-P 1'
loop_
_symmetry_equiv_pos_site_id
_symmetry_equiv_pos_as_xyz
1 x,y,z
2 -x,-y,-z
_cell_length_a                   7.4145(4)
_cell_length_b                   8.1805(9)
_cell_length_c                   9.5248(7)
_cell_angle_alpha                92.839(7)
_cell_angle_beta                 110.263(6)
_cell_angle_gamma                92.162(7)
_cell_volume                     540.372
loop_
_atom_site_label
_atom_site_type_symbol
_atom_site_fract_x
_atom_site_fract_y
_atom_site_fract_z
Zn1 Zn 0.20132(4) 0.81700(3) 0.26338(3)
S1 S 0.77483(11) 0.55127(10) 0.41898(11)
S2 S 0.42618(13) 1.22858(12) 0.03346(13)
N1 N 0.4415(4) 0.7171(3) 0.3641(3)
N2 N 0.2563(4) 1.0107(3) 0.1697(3)
N3 N 0.0546(3) 0.8864(2) 0.4002(2)
N4 N 0.0359(3) 0.6447(3) 0.1047(2)
C1 C 0.5785(4) 0.6469(3) 0.3858(3)
C2 C 0.3292(4) 1.1000(3) 0.1136(3)
C3 C 0.1839(4) 0.9287(4) 0.5565(3)
C4 C -0.0718(5) 1.0228(4) 0.3431(3)
C5 C 0.0508(6) 0.4755(4) 0.1558(3)
C6 C 0.0766(5) 0.6481(4) -0.0363(3)
H1 H 0.2512(43) 0.8358(36) 0.5935(31)
H2 H -0.0145(42) 0.8058(34) 0.4066(30)
H3 H 0.2684(48) 1.0184(40) 0.5530(35)
H4 H 0.0575(48) 0.7577(42) -0.0688(35)
H5 H -0.1575(51) 0.9937(40) 0.2515(39)
H6 H -0.0693(48) 0.6655(38) 0.0848(34)
H7 H 0.0162(50) 1.1108(42) 0.3393(36)
H8 H 0.2011(53) 0.6257(40) -0.0119(37)
H9 H 0.1818(65) 0.4536(49) 0.1904(44)
H10 H 0.0194(57) 0.4735(46) 0.2375(45)
C4A C 0.0718(5) 0.9772(4) 0.6569(3)
N3A N -0.0546(3) 1.1136(2) 0.5998(2)
C3A C -0.1839(4) 1.0713(4) 0.4435(3)
H1A H -0.2512(43) 1.1642(36) 0.4065(31)
H3A H -0.2684(48) 0.9816(40) 0.4470(35)
H2A H 0.0145(42) 1.1942(34) 0.5934(30)
H5A H 0.1575(51) 1.0063(40) 0.7485(39)
H7A H -0.0162(50) 0.8892(42) 0.6607(36)
C6A C -0.0766(5) 0.3519(4) 0.0363(3)
N4A N -0.0359(3) 0.3553(3) -0.1047(2)
C5A C -0.0508(6) 0.5245(4) -0.1558(3)
H9A H -0.1818(65) 0.5464(49) -0.1904(44)
H10A H -0.0194(57) 0.5265(46) -0.2375(45)
H6A H 0.0693(48) 0.3345(38) -0.0848(34)
H4A H -0.0575(48) 0.2423(42) 0.0688(35)
H8A H -0.2011(53) 0.3743(40) 0.0119(37)
Zn1A Zn -0.20132(4) 1.18300(3) 0.73662(3)
S1A S -0.77483(11) 1.44873(10) 0.58102(11)
N1A N -0.4415(4) 1.2829(3) 0.6359(3)
C1A C -0.5785(4) 1.3531(3) 0.6142(3)
S2A S -0.42618(13) 0.77142(12) 0.96654(13)
N2A N -0.2563(4) 0.9893(3) 0.8303(3)
C2A C -0.3292(4) 0.9000(3) 0.8864(3)
Zn1A_2 Zn -0.20132(4) 0.18300(3) -0.26338(3)
N4A_2 N -0.0359(3) 1.3553(3) 0.8953(2)
H6A_2 H 0.0693(48) 1.3345(38) 0.9152(34)
loop_
_geom_bond_atom_site_label_1
_geom_bond_atom_site_label_2
_geom_bond_site_symmetry_1
_geom_bond_site_symmetry_2
Zn1 N1 1_555 1_555
S1 C1 1_555 1_555
S2 C2 1_555 1_555
N1 C1 1_555 1_555
N2 Zn1 1_555 1_555
N3 Zn1 1_555 1_555
N4 Zn1 1_555 1_555
C2 N2 1_555 1_555
C3 N3 1_555 1_555
C4 N3 1_555 1_555
C5 N4 1_555 1_555
C6 N4 1_555 1_555
H1 C3 1_555 1_555
H2 N3 1_555 1_555
H3 C3 1_555 1_555
H4 C6 1_555 1_555
H5 C4 1_555 1_555
H6 N4 1_555 1_555
H7 C4 1_555 1_555
H8 C6 1_555 1_555
H9 C5 1_555 1_555
H10 C5 1_555 1_555
C4A C3 1_555 1_555
N3A C4A 1_555 1_555
C3A C4 1_555 1_555
H1A C3A 1_555 1_555
H3A C3A 1_555 1_555
H2A N3A 1_555 1_555
H5A C4A 1_555 1_555
H7A C4A 1_555 1_555
C6A C5 1_555 1_555
N4A C6A 1_555 1_555
C5A C6 1_555 1_555
H9A C5A 1_555 1_555
H10A C5A 1_555 1_555
H6A N4A 1_555 1_555
H4A C6A 1_555 1_555
H8A C6A 1_555 1_555
Zn1A N3A 1_555 1_555
S1A C1A 1_555 1_555
N1A Zn1A 1_555 1_555
C1A N1A 1_555 1_555
S2A C2A 1_555 1_555
N2A Zn1A 1_555 1_555
C2A N2A 1_555 1_555
Zn1A_2 N4A 1_555 1_555
N4A_2 Zn1A 1_555 1_555
H6A_2 N4A_2 1_555 1_555
N3A C3A 1_555 1_555
N4A C5A 1_555 1_555

#END
