
#######################################################################
#
#                 Cambridge Crystallographic Data Centre
#                                CCDC 
#
#######################################################################
#
# If this CIF has been generated from an entry in the Cambridge 
# Structural Database, then it will include bibliographic, chemical, 
# crystal, experimental, refinement or atomic coordinate data resulting 
# from the CCDC's data processing and validation procedures.
#
#######################################################################

data_XURJUQ
_symmetry_cell_setting           monoclinic
_symmetry_space_group_name_H-M   'P 21/c'
_symmetry_Int_Tables_number      14
_space_group_name_Hall           '-P 2ybc'
loop_
_symmetry_equiv_pos_site_id
_symmetry_equiv_pos_as_xyz
1 x,y,z
2 -x,1/2+y,1/2-z
3 -x,-y,-z
4 x,1/2-y,1/2+z
_cell_length_a                   19.359(4)
_cell_length_b                   23.771(5)
_cell_length_c                   9.4710(19)
_cell_angle_alpha                90
_cell_angle_beta                 91.62(3)
_cell_angle_gamma                90
_cell_volume                     4356.65
loop_
_atom_site_label
_atom_site_type_symbol
_atom_site_fract_x
_atom_site_fract_y
_atom_site_fract_z
C1 C 0.4500(4) 0.8982(3) 0.7344(7)
C2 C 0.4246(4) 0.8394(3) 0.7162(7)
C3 C 0.3693(4) 0.8273(3) 0.6257(9)
H1 H 0.3459 0.8563 0.5791
C4 C 0.3488(5) 0.7723(3) 0.6042(10)
H2 H 0.3114 0.7647 0.5432
C5 C 0.3821(5) 0.7293(3) 0.6702(10)
C6 C 0.4376(5) 0.7412(3) 0.7644(9)
C7 C 0.4586(4) 0.7956(3) 0.7852(8)
H3 H 0.4959 0.8032 0.8462
C8 C 0.5294(6) 0.7059(4) 0.9161(14)
H4 H 0.5655 0.7210 0.8598
H5 H 0.5448 0.6713 0.9589
H6 H 0.5182 0.7324 0.9884
C9 C 0.3196(6) 0.6563(4) 0.5382(15)
H7 H 0.3257 0.6166 0.5187
H8 H 0.3305 0.6768 0.4531
C10 C 0.2461(6) 0.6663(5) 0.5695(15)
C11 C 0.2245(9) 0.6551(5) 0.6995(16)
H9 H 0.2568 0.6464 0.7707
C12 C 0.1521(12) 0.6562(12) 0.731(3)
H10 H 0.1352 0.6436 0.8166
C13 C 0.1093(12) 0.6778(9) 0.623(3)
H11 H 0.0642 0.6866 0.6458
C14 C 0.1292(8) 0.6885(7) 0.470(3)
H12 H 0.0980 0.6977 0.3971
C15 C 0.2013(8) 0.6825(6) 0.454(2)
H13 H 0.2200 0.6893 0.3662
C16 C 0.3764(3) 1.0018(3) 1.0052(7)
C17 C 0.3037(3) 0.9946(3) 0.9527(7)
C18 C 0.2507(4) 0.9922(4) 1.0437(7)
H14 H 0.2598 0.9972 1.1398
C19 C 0.1840(4) 0.9825(4) 0.9965(8)
H15 H 0.1482 0.9822 1.0600
C20 C 0.1702(4) 0.9731(4) 0.8531(8)
C21 C 0.2238(3) 0.9761(3) 0.7585(7)
C22 C 0.2907(3) 0.9878(3) 0.8062(7)
H16 H 0.3263 0.9912 0.7429
C23 C 0.2572(4) 0.9719(4) 0.5187(7)
H17 H 0.2745 1.0098 0.5197
H18 H 0.2382 0.9633 0.4265
H19 H 0.2942 0.9463 0.5415
C24 C 0.0506(4) 0.9582(5) 0.8912(9)
H20 H 0.0473 0.9937 0.9411
H21 H 0.0584 0.9286 0.9602
C25 C -0.0155(4) 0.9472(4) 0.8080(9)
C26 C -0.0357(4) 0.9802(4) 0.6952(9)
H22 H -0.0072 1.0093 0.6666
C27 C -0.0975(4) 0.9707(4) 0.6241(9)
H23 H -0.1106 0.9933 0.5476
C28 C -0.1402(4) 0.9278(4) 0.6662(9)
H24 H -0.1817 0.9210 0.6175
C29 C -0.1213(4) 0.8953(4) 0.7796(10)
H25 H -0.1505 0.8669 0.8096
C30 C -0.0586(5) 0.9045(4) 0.8501(10)
H26 H -0.0456 0.8819 0.9263
C31 C 0.5952(3) 0.9339(3) 0.4918(7)
C32 C 0.6470(3) 0.8919(3) 0.5429(7)
C33 C 0.6870(4) 0.8636(3) 0.4493(8)
H27 H 0.6835 0.8729 0.3540
C34 C 0.7325(4) 0.8213(3) 0.4926(7)
H28 H 0.7593 0.8026 0.4275
C35 C 0.7372(4) 0.8077(3) 0.6358(7)
C36 C 0.6963(4) 0.8360(3) 0.7315(7)
C37 C 0.6533(4) 0.8784(3) 0.6880(7)
H29 H 0.6282 0.8984 0.7537
C38 C 0.6659(5) 0.8462(4) 0.9742(8)
H30 H 0.6798 0.8849 0.9815
H31 H 0.6733 0.8280 1.0638
H32 H 0.6178 0.8443 0.9473
C39 C 0.8302(4) 0.7432(3) 0.5991(9)
H33 H 0.8581 0.7728 0.5588
H34 H 0.8080 0.7221 0.5229
C40 C 0.8737(4) 0.7056(3) 0.6909(8)
C41 C 0.8616(5) 0.6480(4) 0.6992(10)
H35 H 0.8266 0.6319 0.6433
C42 C 0.9005(6) 0.6144(4) 0.7886(11)
H36 H 0.8916 0.5760 0.7928
C43 C 0.9534(5) 0.6374(4) 0.8730(11)
H37 H 0.9796 0.6148 0.9340
C44 C 0.9660(5) 0.6939(4) 0.8646(10)
H38 H 1.0007 0.7097 0.9218
C45 C 0.9279(5) 0.7284(4) 0.7721(10)
H39 H 0.9386 0.7664 0.7646
O1 O 0.4262(2) 0.93670(18) 0.6546(4)
O2 O 0.4970(2) 0.9094(2) 0.8261(5)
O3 O 0.4690(3) 0.6953(2) 0.8275(7)
O4 O 0.3692(3) 0.6729(2) 0.6515(7)
O5 O 0.4242(2) 1.0065(2) 0.9199(5)
O6 O 0.2046(3) 0.9666(2) 0.6203(5)
O7 O 0.1065(3) 0.9601(3) 0.7960(5)
O8 O 0.5639(2) 0.9637(2) 0.5790(5)
O9 O 0.7054(3) 0.8188(2) 0.8709(5)
O10 O 0.7793(3) 0.7667(2) 0.6913(5)
O11 O 0.3873(2) 1.0018(2) 1.1370(4)
O12 O 0.5718(3) 1.0794(2) 0.6259(5)
O13 O 0.5129(3) 1.0970(2) 0.8879(5)
O14 O 0.5835(3) 0.9379(2) 0.3601(5)
Tb1 Tb 0.504773(17) 1.010061(13) 0.75012(4)
O11B O 0.6127(2) 0.9982(2) 0.8630(4)
O14B O 0.4165(3) 1.0621(2) 0.6399(5)
Tb1B Tb 0.495227(17) 0.989939(13) 1.24988(4)
Tb1B_2 Tb 0.495227(17) 0.989939(13) 0.24988(4)
loop_
_geom_bond_atom_site_label_1
_geom_bond_atom_site_label_2
_geom_bond_site_symmetry_1
_geom_bond_site_symmetry_2
C1 C2 1_555 1_555
C2 C3 1_555 1_555
C3 H1 1_555 1_555
C4 C3 1_555 1_555
H2 C4 1_555 1_555
C5 C4 1_555 1_555
C6 C5 1_555 1_555
C7 C2 1_555 1_555
H3 C7 1_555 1_555
C8 H4 1_555 1_555
H5 C8 1_555 1_555
H6 C8 1_555 1_555
C9 H7 1_555 1_555
H8 C9 1_555 1_555
C10 C9 1_555 1_555
C11 C10 1_555 1_555
H9 C11 1_555 1_555
C12 C11 1_555 1_555
H10 C12 1_555 1_555
C13 C12 1_555 1_555
H11 C13 1_555 1_555
C14 C13 1_555 1_555
H12 C14 1_555 1_555
C15 C10 1_555 1_555
H13 C15 1_555 1_555
C16 C17 1_555 1_555
C17 C18 1_555 1_555
C18 H14 1_555 1_555
C19 C18 1_555 1_555
H15 C19 1_555 1_555
C20 C19 1_555 1_555
C21 C20 1_555 1_555
C22 C17 1_555 1_555
H16 C22 1_555 1_555
C23 H17 1_555 1_555
H18 C23 1_555 1_555
H19 C23 1_555 1_555
C24 H20 1_555 1_555
H21 C24 1_555 1_555
C25 C24 1_555 1_555
C26 C25 1_555 1_555
H22 C26 1_555 1_555
C27 C26 1_555 1_555
H23 C27 1_555 1_555
C28 C27 1_555 1_555
H24 C28 1_555 1_555
C29 C28 1_555 1_555
H25 C29 1_555 1_555
C30 C25 1_555 1_555
H26 C30 1_555 1_555
C31 C32 1_555 1_555
C32 C33 1_555 1_555
C33 H27 1_555 1_555
C34 C33 1_555 1_555
H28 C34 1_555 1_555
C35 C34 1_555 1_555
C36 C35 1_555 1_555
C37 C32 1_555 1_555
H29 C37 1_555 1_555
C38 H30 1_555 1_555
H31 C38 1_555 1_555
H32 C38 1_555 1_555
C39 H33 1_555 1_555
H34 C39 1_555 1_555
C40 C39 1_555 1_555
C41 C40 1_555 1_555
H35 C41 1_555 1_555
C42 C41 1_555 1_555
H36 C42 1_555 1_555
C43 C42 1_555 1_555
H37 C43 1_555 1_555
C44 C43 1_555 1_555
H38 C44 1_555 1_555
C45 C40 1_555 1_555
H39 C45 1_555 1_555
O1 C1 1_555 1_555
O2 C1 1_555 1_555
O3 C6 1_555 1_555
O4 C5 1_555 1_555
O5 C16 1_555 1_555
O6 C21 1_555 1_555
O7 C20 1_555 1_555
O8 C31 1_555 1_555
O9 C36 1_555 1_555
O10 C35 1_555 1_555
O11 C16 1_555 1_555
O12 Tb1 1_555 1_555
O13 Tb1 1_555 1_555
O14 C31 1_555 1_555
Tb1 O1 1_555 1_555
O11B Tb1 1_555 1_555
O14B Tb1 1_555 1_555
Tb1B O11 1_555 1_555
Tb1B_2 O14 1_555 1_555
C6 C7 1_555 1_555
C8 O3 1_555 1_555
C9 O4 1_555 1_555
C14 C15 1_555 1_555
C21 C22 1_555 1_555
C23 O6 1_555 1_555
C24 O7 1_555 1_555
C29 C30 1_555 1_555
C36 C37 1_555 1_555
C38 O9 1_555 1_555
C39 O10 1_555 1_555
C44 C45 1_555 1_555
O2 Tb1 1_555 1_555
O5 Tb1 1_555 1_555
O8 Tb1 1_555 1_555

#END
