
#######################################################################
#
#                 Cambridge Crystallographic Data Centre
#                                CCDC 
#
#######################################################################
#
# If this CIF has been generated from an entry in the Cambridge 
# Structural Database, then it will include bibliographic, chemical, 
# crystal, experimental, refinement or atomic coordinate data resulting 
# from the CCDC's data processing and validation procedures.
#
#######################################################################

data_XURNOO
_symmetry_cell_setting           monoclinic
_symmetry_space_group_name_H-M   'P 2/n'
_symmetry_Int_Tables_number      13
_space_group_name_Hall           '-P 2yac'
loop_
_symmetry_equiv_pos_site_id
_symmetry_equiv_pos_as_xyz
1 x,y,z
2 1/2-x,y,1/2-z
3 -x,-y,-z
4 1/2+x,-y,1/2+z
_cell_length_a                   13.420(3)
_cell_length_b                   17.361(4)
_cell_length_c                   15.840(3)
_cell_angle_alpha                90
_cell_angle_beta                 105.228(3)
_cell_angle_gamma                90
_cell_volume                     3560.9
loop_
_atom_site_label
_atom_site_type_symbol
_atom_site_fract_x
_atom_site_fract_y
_atom_site_fract_z
Cd1 Cd 0.7500 0.72100(3) 0.2500
S1 S 0.65816(14) 0.76471(11) 0.35834(10)
S2 S 0.55243(15) 0.82366(13) 0.26584(11)
N1 N 0.6556(4) 0.6284(3) 0.1523(3)
O1 O 0.5615(5) 0.7956(4) 0.1826(3)
C1 C 0.5331(4) 0.5263(3) 0.0321(3)
C2 C 0.5771(5) 0.5917(3) 0.0060(4)
H1 H 0.5657 0.6027 -0.0532
C3 C 0.5524(6) 0.5145(4) 0.1208(4)
H2 H 0.5254 0.4717 0.1422
O2 O 0.4547(4) 0.8114(6) 0.2817(5)
O3 O 0.5800(7) 0.9070(3) 0.2766(4)
C4 C 0.6371(5) 0.6400(3) 0.0671(4)
H3 H 0.6660 0.6830 0.0477
C5 C 0.6127(6) 0.5673(4) 0.1780(4)
H4 H 0.6234 0.5591 0.2378
Cd1B Cd 0.2500 0.27900(3) -0.2500
S1A S 0.84184(14) 0.76471(11) 0.14166(10)
S2A S 0.94757(15) 0.82366(13) 0.23416(11)
N1B N 0.3444(4) 0.3716(3) -0.1523(3)
N1A N 0.8444(4) 0.6284(3) 0.3477(3)
O1A O 0.9385(5) 0.7956(4) 0.3174(3)
C1B C 0.4669(4) 0.4737(3) -0.0321(3)
C2B C 0.4229(5) 0.4083(3) -0.0060(4)
H1B H 0.4343 0.3973 0.0532
C3B C 0.4476(6) 0.4855(4) -0.1208(4)
H2B H 0.4746 0.5283 -0.1422
O2A O 1.0453(4) 0.8114(6) 0.2183(5)
O3A O 0.9200(7) 0.9070(3) 0.2234(4)
C4B C 0.3629(5) 0.3600(3) -0.0671(4)
H3B H 0.3340 0.3170 -0.0477
C5B C 0.3873(6) 0.4327(4) -0.1780(4)
H4B H 0.3766 0.4409 -0.2378
Cd2 Cd 0.2500 0.22024(3) 0.2500
S3 S 0.34938(15) 0.26632(11) 0.14720(11)
S4 S 0.4690(3) 0.2993(2) 0.24836(15)
N2 N 0.1556(4) 0.1290(3) 0.1531(3)
O4 O 0.4250(5) 0.3064(4) 0.3235(3)
C6 C 0.0534(5) 0.0152(4) 0.1217(4)
H5 H 0.0267 -0.0277 0.1434
C7 C 0.0767(5) 0.0915(3) 0.0058(4)
H6 H 0.0661 0.1021 -0.0535
C8 C 0.0328(4) 0.0273(3) 0.0324(3)
C9 C 0.1362(5) 0.1398(4) 0.0673(4)
H7 H 0.1647 0.1829 0.0477
O5 O 0.5182(6) 0.3615(4) 0.2268(4)
C10 C 0.1134(5) 0.0668(4) 0.1777(4)
H8 H 0.1255 0.0577 0.2374
O6 O 0.5541(7) 0.2311(6) 0.2641(8)
H9 H 0.5718 0.2237 0.2190
Cd2B Cd -0.2500 -0.22024(3) -0.2500
S3A S 0.15062(15) 0.26632(11) 0.35280(11)
S4A S 0.0310(3) 0.2993(2) 0.25164(15)
N2B N -0.1556(4) -0.1290(3) -0.1531(3)
N2A N 0.3444(4) 0.1290(3) 0.3469(3)
O4A O 0.0750(5) 0.3064(4) 0.1765(3)
C6B C -0.0534(5) -0.0152(4) -0.1217(4)
H5B H -0.0267 0.0277 -0.1434
C7B C -0.0767(5) -0.0915(3) -0.0058(4)
H6B H -0.0661 -0.1021 0.0535
C8B C -0.0328(4) -0.0273(3) -0.0324(3)
C9B C -0.1362(5) -0.1398(4) -0.0673(4)
H7B H -0.1647 -0.1829 -0.0477
O5A O -0.0182(6) 0.3615(4) 0.2732(4)
C10B C -0.1134(5) -0.0668(4) -0.1777(4)
H8B H -0.1255 -0.0577 -0.2374
O6A O -0.0541(7) 0.2311(6) 0.2359(8)
H9A H -0.0718 0.2237 0.2810
N3 N 0.3802(4) 0.7403(3) 0.9592(5)
C11 C 0.2558(4) 0.6125(3) 0.9663(4)
N4 N 0.0752(6) 0.4136(3) 0.9728(5)
C12 C 0.2153(6) 0.4939(4) 1.0392(5)
H10 H 0.2716 0.5038 1.0865
C13 C 0.1916(5) 0.5436(3) 0.9687(4)
C14 C 0.1071(5) 0.5265(4) 0.9005(5)
H11 H 0.0886 0.5586 0.8519
C15 C 0.3136(5) 0.6485(4) 1.0414(5)
H12 H 0.3110 0.6303 1.0960
C16 C 0.2622(6) 0.6445(4) 0.8876(5)
H13 H 0.2242 0.6235 0.8349
C17 C 0.0506(6) 0.4616(4) 0.9051(5)
H14 H -0.0069 0.4507 0.8592
C18 C 0.3244(6) 0.7068(4) 0.8878(5)
H15 H 0.3276 0.7268 0.8341
C19 C 0.1551(8) 0.4295(5) 1.0393(6)
H16 H 0.1711 0.3966 1.0873
C20 C 0.3745(5) 0.7106(4) 1.0357(5)
H17 H 0.4134 0.7330 1.0871
N5 N 0.5026(4) 0.8648(3) 0.9520(4)
H18 H 0.4615 0.8266 0.9512
C21 C 0.7033(4) 1.0539(3) 0.9602(4)
C22 C 0.6333(4) 0.9868(3) 0.9562(4)
N6 N 0.8345(5) 1.1786(3) 0.9674(5)
C23 C 0.5399(5) 0.9811(4) 0.8921(4)
H19 H 0.5202 1.0192 0.8498
C24 C 0.6592(5) 0.9287(3) 1.0190(4)
H20 H 0.7209 0.9308 1.0627
C25 C 0.8306(5) 1.1410(4) 1.0403(5)
H21 H 0.8724 1.1578 1.0936
C26 C 0.5923(5) 0.8689(4) 1.0149(5)
H22 H 0.6089 0.8299 1.0565
C27 C 0.7071(5) 1.0934(4) 0.8859(5)
H23 H 0.6648 1.0786 0.8319
C28 C 0.7737(6) 1.1551(4) 0.8912(5)
H24 H 0.7761 1.1808 0.8403
C29 C 0.4774(5) 0.9184(4) 0.8921(5)
H25 H 0.4159 0.9140 0.8485
C30 C 0.7676(5) 1.0789(4) 1.0393(5)
H26 H 0.7678 1.0536 1.0911
O7 O -0.0355(5) 0.3013(3) 1.0085(4)
O8 O 0.7500 0.9840(5) 0.2500
O9 O 0.2500 0.8583(8) 0.7500
O10 O 0.8585(10) 0.3432(6) 0.7768(7)
O11 O 0.3562(11) 0.4570(16) 1.2382(7)
loop_
_geom_bond_atom_site_label_1
_geom_bond_atom_site_label_2
_geom_bond_site_symmetry_1
_geom_bond_site_symmetry_2
Cd1 S1 1_555 1_555
S1 S2 1_555 1_555
S2 O1 1_555 1_555
N1 Cd1 1_555 1_555
C1 C2 1_555 1_555
C2 H1 1_555 1_555
C3 C1 1_555 1_555
H2 C3 1_555 1_555
O2 S2 1_555 1_555
O3 S2 1_555 1_555
C4 N1 1_555 1_555
H3 C4 1_555 1_555
C5 N1 1_555 1_555
H4 C5 1_555 1_555
Cd2 S3 1_555 1_555
S3 S4 1_555 1_555
S4 O4 1_555 1_555
N2 Cd2 1_555 1_555
C6 H5 1_555 1_555
C7 H6 1_555 1_555
C8 C6 1_555 1_555
C9 N2 1_555 1_555
H7 C9 1_555 1_555
O5 S4 1_555 1_555
C10 N2 1_555 1_555
H8 C10 1_555 1_555
O6 S4 1_555 1_555
H9 O6 1_555 1_555
N3 C18 1_555 1_555
C11 C13 1_555 1_555
N4 C17 1_555 1_555
C12 H10 1_555 1_555
C13 C12 1_555 1_555
C14 C13 1_555 1_555
H11 C14 1_555 1_555
C15 C11 1_555 1_555
H12 C15 1_555 1_555
C16 C11 1_555 1_555
H13 C16 1_555 1_555
C17 C14 1_555 1_555
H14 C17 1_555 1_555
C18 C16 1_555 1_555
H15 C18 1_555 1_555
C19 N4 1_555 1_555
H16 C19 1_555 1_555
C20 N3 1_555 1_555
H17 C20 1_555 1_555
N5 H18 1_555 1_555
C21 C22 1_555 1_555
C22 C23 1_555 1_555
N6 C25 1_555 1_555
C23 H19 1_555 1_555
C24 C22 1_555 1_555
H20 C24 1_555 1_555
C25 H21 1_555 1_555
C26 N5 1_555 1_555
H22 C26 1_555 1_555
C27 C21 1_555 1_555
H23 C27 1_555 1_555
C28 N6 1_555 1_555
H24 C28 1_555 1_555
C29 N5 1_555 1_555
H25 C29 1_555 1_555
C30 C21 1_555 1_555
H26 C30 1_555 1_555
Cd1B N1B 1_555 1_555
S1A Cd1 1_555 1_555
S2A S1A 1_555 1_555
N1B C4B 1_555 1_555
N1A Cd1 1_555 1_555
O1A S2A 1_555 1_555
C1B C1 1_555 1_555
C2B C1B 1_555 1_555
H1B C2B 1_555 1_555
C3B C1B 1_555 1_555
H2B C3B 1_555 1_555
O2A S2A 1_555 1_555
O3A S2A 1_555 1_555
C4B C2B 1_555 1_555
H3B C4B 1_555 1_555
C5B N1B 1_555 1_555
H4B C5B 1_555 1_555
Cd2B N2B 1_555 1_555
S3A Cd2 1_555 1_555
S4A S3A 1_555 1_555
N2B C9B 1_555 1_555
N2A Cd2 1_555 1_555
O4A S4A 1_555 1_555
C6B H5B 1_555 1_555
C7B H6B 1_555 1_555
C8B C8 1_555 1_555
C9B C7B 1_555 1_555
H7B C9B 1_555 1_555
O5A S4A 1_555 1_555
C10B N2B 1_555 1_555
H8B C10B 1_555 1_555
O6A S4A 1_555 1_555
H9A O6A 1_555 1_555
C2 C4 1_555 1_555
C3 C5 1_555 1_555
C6 C10 1_555 1_555
C7 C8 1_555 1_555
C7 C9 1_555 1_555
C12 C19 1_555 1_555
C15 C20 1_555 1_555
C23 C29 1_555 1_555
C24 C26 1_555 1_555
C25 C30 1_555 1_555
C27 C28 1_555 1_555
C3B C5B 1_555 1_555
C6B C8B 1_555 1_555
C6B C10B 1_555 1_555
C7B C8B 1_555 1_555

#END
