
#######################################################################
#
#                 Cambridge Crystallographic Data Centre
#                                CCDC 
#
#######################################################################
#
# If this CIF has been generated from an entry in the Cambridge 
# Structural Database, then it will include bibliographic, chemical, 
# crystal, experimental, refinement or atomic coordinate data resulting 
# from the CCDC's data processing and validation procedures.
#
#######################################################################

data_XUSBIX
_symmetry_cell_setting           orthorhombic
_symmetry_space_group_name_H-M   'P n a 21'
_symmetry_Int_Tables_number      33
_space_group_name_Hall           'P 2c -2n'
loop_
_symmetry_equiv_pos_site_id
_symmetry_equiv_pos_as_xyz
1 x,y,z
2 -x,-y,1/2+z
3 1/2+x,1/2-y,z
4 1/2-x,1/2+y,1/2+z
_cell_length_a                   13.449(3)
_cell_length_b                   26.229(5)
_cell_length_c                   10.973(2)
_cell_angle_alpha                90
_cell_angle_beta                 90
_cell_angle_gamma                90
_cell_volume                     3870.77
loop_
_atom_site_label
_atom_site_type_symbol
_atom_site_fract_x
_atom_site_fract_y
_atom_site_fract_z
C1 C 0.7769(3) 0.32704(16) 0.1536(5)
C2 C 0.6955(4) 0.33369(18) 0.0772(6)
H1 H 0.6613 0.3048 0.0459
C3 C 0.6642(4) 0.3825(2) 0.0466(7)
H2 H 0.6086 0.3871 -0.0056
C4 C 0.7143(4) 0.42475(18) 0.0925(6)
C5 C 0.7957(5) 0.41810(16) 0.1689(7)
H3 H 0.8299 0.4469 0.2002
C6 C 0.8270(4) 0.36925(16) 0.1995(6)
C7 C 0.9089(10) 0.3677(5) 0.2871(12)
H4 H 0.9329 0.3989 0.3203
C8 C 1.0291(9) 0.3245(5) 0.4113(13)
H5 H 1.0015 0.3154 0.4921
H6 H 1.0598 0.3587 0.4174
C9 C 1.1061(9) 0.2860(4) 0.3744(15)
H7 H 1.1490 0.3001 0.3093
H8 H 1.1484 0.2769 0.4450
C10 C 0.9656(4) 0.14944(16) 0.2285(5)
C11 C 0.9274(5) 0.10355(16) 0.1858(6)
H9 H 0.8759 0.1036 0.1266
C12 C 0.9646(5) 0.05766(16) 0.2298(7)
H10 H 0.9385 0.0263 0.2006
C13 C 1.0400(5) 0.05766(19) 0.3164(7)
C14 C 1.0782(5) 0.1035(2) 0.3591(7)
H11 H 1.1298 0.1033 0.4183
C15 C 1.0418(8) 0.1499(5) 0.3160(13)
C16 C 1.0826(9) 0.1968(4) 0.3562(12)
H12 H 1.1387 0.1947 0.4085
C17 C 1.0409(4) 0.36083(17) -0.2467(5)
C18 C 1.1027(5) 0.40284(16) -0.2622(7)
H13 H 1.1609 0.4001 -0.3107
C19 C 1.0791(5) 0.44893(16) -0.2067(8)
H14 H 1.1213 0.4776 -0.2173
C20 C 0.9939(5) 0.45301(18) -0.1357(7)
C21 C 0.9322(4) 0.41100(19) -0.1202(7)
H15 H 0.8739 0.4138 -0.0717
C22 C 0.9557(4) 0.36491(18) -0.1757(7)
C23 C 0.8906(9) 0.3228(5) -0.1510(13)
H16 H 0.8294 0.3300 -0.1113
C24 C 0.8396(9) 0.2363(5) -0.1513(14)
H17 H 0.8001 0.2278 -0.2247
H18 H 0.7935 0.2471 -0.0859
C25 C 0.8984(9) 0.1913(5) -0.1112(15)
H19 H 0.8571 0.1601 -0.1156
H20 H 0.9207 0.1959 -0.0259
C26 C 1.1719(4) 0.17365(18) -0.3374(5)
C27 C 1.2596(5) 0.1626(2) -0.3989(7)
H21 H 1.2966 0.1893 -0.4362
C28 C 1.2934(5) 0.1126(2) -0.4057(7)
H22 H 1.3534 0.1051 -0.4477
C29 C 1.2394(5) 0.07364(19) -0.3511(7)
C30 C 1.1516(6) 0.08467(17) -0.2896(8)
H23 H 1.1147 0.0580 -0.2526
C31 C 1.1172(10) 0.1350(5) -0.2821(15)
C32 C 1.0271(9) 0.1428(5) -0.2132(11)
H24 H 0.9954 0.1137 -0.1794
C33 C 1.0826(10) 0.2908(5) 0.0176(13)
C34 C 1.1623(9) 0.3315(5) 0.0403(16)
H25 H 1.2174 0.3154 0.0862
H26 H 1.1894 0.3421 -0.0397
C35 C 1.1314(11) 0.3782(5) 0.1071(15)
H27 H 1.0785 0.3955 0.0617
H28 H 1.1885 0.4011 0.1156
H29 H 1.1069 0.3687 0.1881
C36 C 0.8790(11) 0.2147(5) 0.5194(14)
C37 C 0.8212(10) 0.1681(5) 0.5641(14)
H30 H 0.8591 0.1522 0.6314
H31 H 0.7570 0.1799 0.5980
C38 C 0.8008(10) 0.1286(5) 0.4701(14)
H32 H 0.7773 0.1450 0.3953
H33 H 0.7498 0.1051 0.5003
H34 H 0.8620 0.1096 0.4530
N1 N 0.9500(7) 0.3253(4) 0.3210(10)
N2 N 1.0526(7) 0.2412(4) 0.3304(11)
N3 N 0.9091(7) 0.2766(4) -0.1783(11)
N4 N 0.9874(7) 0.1863(4) -0.1947(10)
O1 O 0.8039(5) 0.2800(3) 0.1754(8)
O2 O 0.9194(6) 0.1902(3) 0.1847(8)
O3 O 1.0689(6) 0.3178(4) -0.3030(8)
O4 O 1.1470(6) 0.2222(3) -0.3277(9)
O5 O 1.0107(6) 0.2869(3) 0.0901(8)
O6 O 1.0988(6) 0.2638(4) -0.0737(9)
O7 O 0.8498(6) 0.2308(3) 0.4141(9)
O8 O 0.9423(6) 0.2366(4) 0.5799(9)
Mn1 Mn 0.92478(12) 0.25657(7) 0.2470(2)
Mn2 Mn 1.03361(12) 0.25204(8) -0.2557(2)
Br1 Br 0.67704(11) 0.49107(6) 0.03709(17)
Br2 Br 1.09757(12) -0.00254(6) 0.37693(17)
Br3 Br 0.96236(13) 0.51476(6) -0.05831(19)
Br4 Br 1.28762(11) 0.00585(6) -0.35583(19)
O8_2 O 0.9423(6) 0.2366(4) -0.4201(9)
Mn2_2 Mn 1.03361(12) 0.25204(8) 0.7443(2)
loop_
_geom_bond_atom_site_label_1
_geom_bond_atom_site_label_2
_geom_bond_site_symmetry_1
_geom_bond_site_symmetry_2
C1 C2 1_555 1_555
C2 H1 1_555 1_555
C3 C2 1_555 1_555
H2 C3 1_555 1_555
C4 C3 1_555 1_555
C5 C4 1_555 1_555
H3 C5 1_555 1_555
C6 C1 1_555 1_555
C7 C6 1_555 1_555
H4 C7 1_555 1_555
C8 H5 1_555 1_555
H6 C8 1_555 1_555
C9 C8 1_555 1_555
H7 C9 1_555 1_555
H8 C9 1_555 1_555
C10 C11 1_555 1_555
C11 H9 1_555 1_555
C12 C11 1_555 1_555
H10 C12 1_555 1_555
C13 C12 1_555 1_555
C14 C13 1_555 1_555
H11 C14 1_555 1_555
C15 C10 1_555 1_555
C16 C15 1_555 1_555
H12 C16 1_555 1_555
C17 C18 1_555 1_555
C18 H13 1_555 1_555
C19 C18 1_555 1_555
H14 C19 1_555 1_555
C20 C19 1_555 1_555
C21 C20 1_555 1_555
H15 C21 1_555 1_555
C22 C17 1_555 1_555
C23 C22 1_555 1_555
H16 C23 1_555 1_555
C24 H17 1_555 1_555
H18 C24 1_555 1_555
C25 C24 1_555 1_555
H19 C25 1_555 1_555
H20 C25 1_555 1_555
C26 C27 1_555 1_555
C27 H21 1_555 1_555
C28 C27 1_555 1_555
H22 C28 1_555 1_555
C29 C28 1_555 1_555
C30 C29 1_555 1_555
H23 C30 1_555 1_555
C31 C26 1_555 1_555
C32 C31 1_555 1_555
H24 C32 1_555 1_555
C33 C34 1_555 1_555
C34 H25 1_555 1_555
H26 C34 1_555 1_555
C35 C34 1_555 1_555
H27 C35 1_555 1_555
H28 C35 1_555 1_555
H29 C35 1_555 1_555
C36 C37 1_555 1_555
C37 H30 1_555 1_555
H31 C37 1_555 1_555
C38 C37 1_555 1_555
H32 C38 1_555 1_555
H33 C38 1_555 1_555
H34 C38 1_555 1_555
N1 C7 1_555 1_555
N2 C9 1_555 1_555
N3 C23 1_555 1_555
N4 C25 1_555 1_555
O1 C1 1_555 1_555
O2 C10 1_555 1_555
O3 C17 1_555 1_555
O4 C26 1_555 1_555
O5 C33 1_555 1_555
O6 C33 1_555 1_555
O7 C36 1_555 1_555
O8 C36 1_555 1_555
Mn1 N1 1_555 1_555
Mn2 N3 1_555 1_555
Br1 C4 1_555 1_555
Br2 C13 1_555 1_555
Br3 C20 1_555 1_555
Br4 C29 1_555 1_555
O8_2 Mn2 1_555 1_555
Mn2_2 O8 1_555 1_555
C5 C6 1_555 1_555
C8 N1 1_555 1_555
C14 C15 1_555 1_555
C16 N2 1_555 1_555
C21 C22 1_555 1_555
C24 N3 1_555 1_555
C30 C31 1_555 1_555
C32 N4 1_555 1_555
N2 Mn1 1_555 1_555
N4 Mn2 1_555 1_555
O1 Mn1 1_555 1_555
O2 Mn1 1_555 1_555
O3 Mn2 1_555 1_555
O4 Mn2 1_555 1_555
O5 Mn1 1_555 1_555
O6 Mn2 1_555 1_555
O7 Mn1 1_555 1_555

#END
