
#######################################################################
#
#                 Cambridge Crystallographic Data Centre
#                                CCDC 
#
#######################################################################
#
# If this CIF has been generated from an entry in the Cambridge 
# Structural Database, then it will include bibliographic, chemical, 
# crystal, experimental, refinement or atomic coordinate data resulting 
# from the CCDC's data processing and validation procedures.
#
#######################################################################

data_XUSBIW
_symmetry_cell_setting           triclinic
_symmetry_space_group_name_H-M   'P -1'
_symmetry_Int_Tables_number      2
_space_group_name_Hall           '-P 1'
loop_
_symmetry_equiv_pos_site_id
_symmetry_equiv_pos_as_xyz
1 x,y,z
2 -x,-y,-z
_cell_length_a                   8.8138(5)
_cell_length_b                   12.8500(7)
_cell_length_c                   18.88860(10)
_cell_angle_alpha                87.918(2)
_cell_angle_beta                 89.801(3)
_cell_angle_gamma                82.823(3)
_cell_volume                     2121.11
loop_
_atom_site_label
_atom_site_type_symbol
_atom_site_fract_x
_atom_site_fract_y
_atom_site_fract_z
Cd1 Cd 0.76673(2) 0.681965(14) 0.686673(9)
P1 P 0.41817(12) 0.88620(6) 1.07076(5)
P2 P 1.02653(9) 1.28950(6) 0.66102(5)
N1 N 0.6979(3) 0.54299(19) 0.96393(13)
H1 H 0.740(5) 0.503(3) 0.992(2)
N2 N 0.7573(3) 1.01674(18) 0.50364(12)
H2 H 0.708(5) 1.056(3) 0.468(2)
C1 C 0.7430(3) 0.5237(2) 0.89743(14)
C2 C 0.7481(3) 0.9137(2) 0.51302(14)
C3 C 0.6749(3) 0.59036(19) 0.84084(13)
C4 C 0.8333(3) 0.85721(19) 0.56884(13)
C5 C 0.5681(3) 0.67689(19) 0.85978(13)
C6 C 0.9231(3) 0.91362(19) 0.61276(13)
C7 C 0.5290(3) 0.6932(2) 0.93126(14)
C8 C 0.9262(3) 1.0216(2) 0.59984(14)
C9 C 0.5944(4) 0.6240(2) 0.98292(15)
H3 H 0.5674 0.6329 1.0313
C10 C 0.8420(3) 1.0722(2) 0.54420(14)
H4 H 0.8436 1.1451 0.5346
C11 C 0.8613(3) 0.4326(2) 0.88562(16)
H5 H 0.8919 0.3977 0.9313
H6 H 0.9506 0.4572 0.8625
H7 H 0.8191 0.3829 0.8553
C12 C 0.6481(3) 0.8637(2) 0.46439(15)
H8 H 0.6008 0.9165 0.4298
H9 H 0.5682 0.8342 0.4919
H10 H 0.7097 0.8076 0.4395
C13 C 0.4919(3) 0.7481(2) 0.80089(14)
H11 H 0.4376 0.7055 0.7691
H12 H 0.4146 0.8006 0.8220
C14 C 1.0168(3) 0.8533(2) 0.67120(14)
H13 H 1.0825 0.7939 0.6506
H14 H 1.0845 0.8999 0.6922
N3 N 0.6005(3) 0.80412(17) 0.75810(12)
N4 N 0.9205(2) 0.81206(17) 0.72832(11)
C15 C 0.6914(3) 0.8645(2) 0.80333(14)
H15 H 0.7283 0.8205 0.8454
H16 H 0.6253 0.9268 0.8201
C16 C 0.8281(3) 0.9003(2) 0.76358(14)
H17 H 0.7909 0.9552 0.7275
H18 H 0.8937 0.9315 0.7973
C17 C 0.5109(3) 0.8716(3) 0.70446(17)
H19 H 0.5741 0.9246 0.6853
H20 H 0.4203 0.9095 0.7276
C18 C 1.0212(3) 0.7475(2) 0.78028(14)
H21 H 0.9620 0.7357 0.8239
H22 H 1.1063 0.7866 0.7931
C19 C 0.4579(3) 0.8113(3) 0.64369(17)
C20 C 1.0877(3) 0.6408(2) 0.75210(14)
C21 C 0.4160(4) 0.7867(2) 0.95136(17)
H23 H 0.4555 0.8526 0.9357
H24 H 0.3172 0.7839 0.9272
C22 C 1.0185(3) 1.0860(2) 0.64517(15)
H25 H 0.9785 1.0874 0.6942
H26 H 1.1270 1.0547 0.6466
O1 O 0.3934(4) 0.78566(17) 1.02696(13)
O2 O 1.0059(3) 1.19083(16) 0.61433(11)
O3 O 0.3053(3) 0.97951(19) 1.03711(14)
H27 H 0.370(6) 1.019(4) 1.006(3)
O4 O 0.8914(3) 1.2999(2) 0.71531(12)
H28 H 0.899(5) 1.253(3) 0.7475(19)
O5 O 0.3660(4) 0.86087(19) 1.14425(13)
O6 O 1.0026(3) 1.38226(18) 0.60994(14)
O7 O 0.5795(3) 0.9099(2) 1.06098(15)
O8 O 1.1781(3) 1.2710(3) 0.69746(19)
O9 O 0.7130(2) 0.56971(15) 0.77562(10)
O10 O 0.8282(2) 0.75578(14) 0.57718(10)
O11 O 0.3559(3) 0.8588(3) 0.60391(18)
O12 O 1.2022(2) 0.59384(16) 0.78645(11)
O13 O 0.5184(3) 0.7183(2) 0.63491(11)
O14 O 1.0293(2) 0.60614(15) 0.69897(11)
Na1 Na 0.64316(14) 1.42339(9) 0.71371(6)
Na2 Na 1.18305(17) 1.49558(11) 0.60771(8)
O15 O 0.7554(3) 0.52710(18) 0.62413(11)
H29 H 0.723(4) 0.541(3) 0.5831(9)
H30 H 0.836(3) 0.486(3) 0.6205(19)
O17 O 0.5536(3) 1.35457(18) 0.81762(13)
H33 H 0.4579(12) 1.360(3) 0.817(2)
H34 H 0.582(4) 1.2926(14) 0.831(2)
O18 O 1.0762(3) 1.6273(2) 0.52985(15)
H35 H 1.005(4) 1.667(3) 0.548(2)
H36 H 1.049(5) 1.623(4) 0.4873(9)
O19 O 0.3977(3) 1.5298(2) 0.67557(13)
H37 H 0.439(5) 1.584(2) 0.665(2)
H38 H 0.354(5) 1.543(3) 0.7144(14)
O23 O 1.3111(4) 1.3968(3) 0.5125(2)
H45 H 1.363(7) 1.373(4) 0.548(2)
H46 H 1.283(8) 1.344(3) 0.494(3)
O27 O 0.5451(4) 1.3013(3) 0.6375(2)
H53 H 0.616(5) 1.250(3) 0.644(4)
H54 H 0.591(6) 1.354(3) 0.644(4)
Na1_2 Na 0.64316(14) 0.42339(9) 0.71371(6)
Na2_2 Na 1.18305(17) 0.49558(11) 0.60771(8)
O15_2 O 0.7554(3) 1.52710(18) 0.62413(11)
O9_2 O 0.7130(2) 1.56971(15) 0.77562(10)
O19_2 O 1.3977(3) 1.5298(2) 0.67557(13)
O14_2 O 1.0293(2) 1.60614(15) 0.69897(11)
Na2_3 Na 0.18305(17) 1.49558(11) 0.60771(8)
H29_2 H 0.723(4) 1.541(3) 0.5831(9)
H30_2 H 0.836(3) 1.486(3) 0.6205(19)
H37_2 H 1.439(5) 1.584(2) 0.665(2)
H38_2 H 1.354(5) 1.543(3) 0.7144(14)
O16 O 0.7640(3) 0.62339(17) 0.18771(12)
H31 H 0.778(5) 0.649(3) 0.2272(11)
H32 H 0.789(5) 0.5582(9) 0.1949(19)
O20 O 1.1783(3) 0.5930(2) 0.93298(13)
H39 H 1.189(5) 0.589(4) 0.8890(7)
H40 H 1.094(3) 0.629(4) 0.939(2)
O21 O 0.8453(3) 0.7700(2) 0.09031(14)
H41 H 0.764(3) 0.812(3) 0.091(3)
H42 H 0.829(5) 0.719(3) 0.117(2)
O22 O 0.3666(4) 0.6815(2) 0.50150(18)
H43 H 0.2710(14) 0.685(4) 0.504(3)
H44 H 0.390(5) 0.722(4) 0.533(2)
O25 O 0.9302(4) 1.1646(2) 0.82008(16)
H49 H 0.988(5) 1.183(5) 0.8506(19)
H50 H 0.852(4) 1.151(5) 0.842(2)
O26 O 0.9495(5) 0.7506(3) 0.95240(17)
H51 H 1.000(8) 0.803(4) 0.952(3)
H52 H 0.914(7) 0.749(5) 0.9940(15)
O28 O 0.9856(5) 1.0478(4) 1.0648(3)
O29 O 0.7713(8) 1.0220(6) 1.1668(5)
C23 C 1.3300(11) 1.0972(8) 0.7336(5)
H55 H 1.2413 1.1477 0.7202
H56 H 1.3281 1.0818 0.7848
H57 H 1.3265 1.0322 0.7083
C24 C 1.4705(6) 1.1415(4) 0.7150(3)
H58 H 1.4578 1.1595 0.6637
H59 H 1.4581 1.2096 0.7385
O30 O 1.6258(11) 1.1078(9) 0.7216(6)
H60 H 1.6409 1.0661 0.7569
O24? O 0.6300(10) 0.5276(6) 0.4904(4)
H47? H 0.545(7) 0.565(8) 0.496(8)
H48? H 0.611(14) 0.466(3) 0.499(8)
loop_
_geom_bond_atom_site_label_1
_geom_bond_atom_site_label_2
_geom_bond_site_symmetry_1
_geom_bond_site_symmetry_2
Cd1 N3 1_555 1_555
P1 O1 1_555 1_555
P2 O2 1_555 1_555
N1 H1 1_555 1_555
N2 H2 1_555 1_555
C1 N1 1_555 1_555
C2 N2 1_555 1_555
C3 C1 1_555 1_555
C4 C2 1_555 1_555
C5 C3 1_555 1_555
C6 C4 1_555 1_555
C7 C5 1_555 1_555
C8 C6 1_555 1_555
C9 N1 1_555 1_555
H3 C9 1_555 1_555
C10 N2 1_555 1_555
H4 C10 1_555 1_555
C11 C1 1_555 1_555
H5 C11 1_555 1_555
H6 C11 1_555 1_555
H7 C11 1_555 1_555
C12 C2 1_555 1_555
H8 C12 1_555 1_555
H9 C12 1_555 1_555
H10 C12 1_555 1_555
C13 C5 1_555 1_555
H11 C13 1_555 1_555
H12 C13 1_555 1_555
C14 C6 1_555 1_555
H13 C14 1_555 1_555
H14 C14 1_555 1_555
N3 C13 1_555 1_555
N4 Cd1 1_555 1_555
C15 N3 1_555 1_555
H15 C15 1_555 1_555
H16 C15 1_555 1_555
C16 N4 1_555 1_555
H17 C16 1_555 1_555
H18 C16 1_555 1_555
C17 N3 1_555 1_555
H19 C17 1_555 1_555
H20 C17 1_555 1_555
C18 N4 1_555 1_555
H21 C18 1_555 1_555
H22 C18 1_555 1_555
C19 C17 1_555 1_555
C20 C18 1_555 1_555
C21 C7 1_555 1_555
H23 C21 1_555 1_555
H24 C21 1_555 1_555
C22 C8 1_555 1_555
H25 C22 1_555 1_555
H26 C22 1_555 1_555
O1 C21 1_555 1_555
O2 C22 1_555 1_555
O3 P1 1_555 1_555
H27 O3 1_555 1_555
O4 P2 1_555 1_555
H28 O4 1_555 1_555
O5 P1 1_555 1_555
O6 P2 1_555 1_555
O7 P1 1_555 1_555
O8 P2 1_555 1_555
O9 Cd1 1_555 1_555
O10 Cd1 1_555 1_555
O11 C19 1_555 1_555
O12 C20 1_555 1_555
O13 Cd1 1_555 1_555
O14 Cd1 1_555 1_555
Na1 O4 1_555 1_555
Na2 O6 1_555 1_555
O15 Cd1 1_555 1_555
H29 O15 1_555 1_555
H30 O15 1_555 1_555
O16 H31 1_555 1_555
H32 O16 1_555 1_555
O17 Na1 1_555 1_555
H33 O17 1_555 1_555
H34 O17 1_555 1_555
O18 Na2 1_555 1_555
H35 O18 1_555 1_555
H36 O18 1_555 1_555
O19 Na1 1_555 1_555
H37 O19 1_555 1_555
H38 O19 1_555 1_555
O20 H39 1_555 1_555
H40 O20 1_555 1_555
O21 H41 1_555 1_555
H42 O21 1_555 1_555
O22 H43 1_555 1_555
H44 O22 1_555 1_555
O23 Na2 1_555 1_555
H45 O23 1_555 1_555
H46 O23 1_555 1_555
O25 H49 1_555 1_555
H50 O25 1_555 1_555
O26 H51 1_555 1_555
H52 O26 1_555 1_555
O27 Na1 1_555 1_555
H53 O27 1_555 1_555
H54 O27 1_555 1_555
C23 H55 1_555 1_555
H56 C23 1_555 1_555
H57 C23 1_555 1_555
C24 C23 1_555 1_555
H58 C24 1_555 1_555
H59 C24 1_555 1_555
O30 C24 1_555 1_555
H60 O30 1_555 1_555
Na1_2 O9 1_555 1_555
Na2_2 O14 1_555 1_555
O15_2 Na1 1_555 1_555
O9_2 Na1 1_555 1_555
O19_2 Na2 1_555 1_555
O14_2 Na2 1_555 1_555
Na2_3 O19 1_555 1_555
H29_2 O15_2 1_555 1_555
H30_2 O15_2 1_555 1_555
H37_2 O19_2 1_555 1_555
H38_2 O19_2 1_555 1_555
C3 O9 1_555 1_555
C4 O10 1_555 1_555
C7 C9 1_555 1_555
C8 C10 1_555 1_555
C14 N4 1_555 1_555
C15 C16 1_555 1_555
C19 O13 1_555 1_555
C20 O14 1_555 1_555
O15 Na1_2 1_555 1_555

#END
