
#######################################################################
#
#                 Cambridge Crystallographic Data Centre
#                                CCDC 
#
#######################################################################
#
# If this CIF has been generated from an entry in the Cambridge 
# Structural Database, then it will include bibliographic, chemical, 
# crystal, experimental, refinement or atomic coordinate data resulting 
# from the CCDC's data processing and validation procedures.
#
#######################################################################

data_XUSBOE
_symmetry_cell_setting           hexagonal
_symmetry_space_group_name_H-M   'P -6 2 m'
_symmetry_Int_Tables_number      189
_space_group_name_Hall           "P -6 -2'"
loop_
_symmetry_equiv_pos_site_id
_symmetry_equiv_pos_as_xyz
1 x,y,z
2 -y,x-y,z
3 -x+y,-x,z
4 x,y,-z
5 -y,x-y,-z
6 -x+y,-x,-z
7 y,x,-z
8 x-y,-y,-z
9 -x,-x+y,-z
10 y,x,z
11 x-y,-y,z
12 -x,-x+y,z
_cell_length_a                   9.1979(6)
_cell_length_b                   9.1979(6)
_cell_length_c                   4.4463(6)
_cell_angle_alpha                90
_cell_angle_beta                 90
_cell_angle_gamma                120
_cell_volume                     325.767
loop_
_atom_site_label
_atom_site_type_symbol
_atom_site_fract_x
_atom_site_fract_y
_atom_site_fract_z
Rb1 Rb 0.0000 0.71733(6) 0.0000
Ca1 Ca -0.38568(14) 0.61432(14) -0.5000
F1 F -0.3820(4) 0.6180(4) -1.0000
O1 O -0.5158(3) 0.7956(3) -0.5000
O2 O -0.1387(5) 0.8613(5) -0.5000
C1 C -0.6667 0.6667 -0.5000
C2 C 0.0000 1.0000 -0.5000
O1A O -0.7956(3) 0.6886(4) -0.5000
O1B O -0.6886(4) 0.5158(3) -0.5000
O2A O 0.1387(5) 1.0000(7) -0.5000
O2B O 0.0000(7) 1.1387(5) -0.5000
Rb1A Rb -0.71733(6) 0.28267(6) 0.0000
Ca1B Ca -1.00000(20) 0.38568(14) -0.5000
F1B F -1.0000(6) 0.3820(4) -1.0000
Ca1A Ca 0.38568(14) 1.00000(20) 0.5000
F1A F 0.3820(4) 1.0000(6) 0.0000
O1A_2 O 0.2044(3) 0.6886(4) 0.5000
C1_2 C 0.3333 0.6667 0.5000
O1B_2 O 0.3114(4) 0.5158(3) 0.5000
O1_2 O 0.4842(3) 0.7956(3) 0.5000
Rb1B Rb -0.28267(6) 1.0000 -1.0000
Rb1_2 Rb -1.0000 0.71733(6) -1.0000
Rb1_3 Rb -1.0000 0.71733(6) 0.0000
Rb1_4 Rb 0.0000 0.71733(6) -1.0000
Rb1_5 Rb 0.0000 0.71733(6) 1.0000
Rb1A_2 Rb -0.71733(6) 0.28267(6) -1.0000
Rb1A_3 Rb 0.28267(6) 0.28267(6) 0.0000
Rb1A_4 Rb 0.28267(6) 0.28267(6) 1.0000
Rb1A_5 Rb 0.28267(6) 1.28267(6) -1.0000
Rb1A_6 Rb 0.28267(6) 1.28267(6) 0.0000
Rb1B_2 Rb -1.28267(6) 0.0000 -1.0000
Rb1B_3 Rb -0.28267(6) 1.0000 0.0000
Rb1B_4 Rb 0.71733(6) 1.0000 0.0000
Rb1B_5 Rb 0.71733(6) 1.0000 1.0000
Ca1_2 Ca -0.38568(14) 0.61432(14) -1.5000
Ca1_3 Ca 0.61432(14) 0.61432(14) 0.5000
Ca1A_2 Ca -0.61432(14) 1.00000(20) -0.5000
Ca1A_3 Ca 0.38568(14) 1.00000(20) -0.5000
Ca1B_2 Ca -1.00000(20) 0.38568(14) -1.5000
Ca1B_3 Ca 0.00000(20) 0.38568(14) 0.5000
Ca1B_4 Ca 0.00000(20) 1.38568(14) -0.5000
F1_2 F -0.3820(4) 0.6180(4) 0.0000
F1A_2 F -0.6180(4) 0.0000(6) 0.0000
F1A_3 F -0.6180(4) 1.0000(6) -1.0000
F1A_4 F 0.3820(4) 1.0000(6) 1.0000
F1B_2 F -1.0000(6) 0.3820(4) 0.0000
F1B_3 F 0.0000(6) 0.3820(4) 0.0000
F1B_4 F 0.0000(6) 1.3820(4) -1.0000
O1_3 O -0.5158(3) 0.7956(3) -1.5000
O1A_3 O 0.2044(3) 0.6886(4) -0.5000
O1B_3 O -0.6886(4) 0.5158(3) 0.5000
O1F O -1.2044(3) 0.4842(3) -0.5000
O1F_2 O -0.2044(3) 0.4842(3) -0.5000
O1F_3 O -0.2044(3) 0.4842(3) 0.5000
O1G O -1.3114(4) 0.2044(3) -0.5000
O1G_2 O -0.3114(4) 1.2044(3) -1.5000
O1G_3 O -0.3114(4) 1.2044(3) -0.5000
O1G_4 O 0.6886(4) 1.2044(3) 0.5000
O1H O -0.4842(3) 0.3114(4) -0.5000
O1H_2 O -0.4842(3) 0.3114(4) 0.5000
O1H_3 O 0.5158(3) 1.3114(4) 0.5000
O2_2 O -0.1387(5) 0.8613(5) -1.5000
O2_3 O -0.1387(5) 0.8613(5) 0.5000
O2A_2 O -0.8613(5) 0.0000(7) -0.5000
O2A_3 O -0.8613(5) 0.0000(7) 0.5000
O2A_4 O 0.1387(5) 1.0000(7) 0.5000
O2B_2 O -1.0000(7) 0.1387(5) -0.5000
O2B_3 O -1.0000(7) 0.1387(5) 0.5000
O2B_4 O 0.0000(7) 1.1387(5) -1.5000
loop_
_geom_bond_atom_site_label_1
_geom_bond_atom_site_label_2
_geom_bond_site_symmetry_1
_geom_bond_site_symmetry_2
Rb1 O2 1_555 1_555
Ca1 F1 1_555 1_555
F1 Rb1B 1_555 1_555
O1 Ca1 1_555 1_555
O2 Ca1 1_555 1_555
C1 O1 1_555 1_555
C2 O2 1_555 1_555
O1A C1 1_555 1_555
O1B Ca1 1_555 1_555
O2A Rb1 1_555 1_555
O2B C2 1_555 1_555
Rb1A O1B 1_555 1_555
Ca1B O1A 1_555 1_555
F1B Ca1B 1_555 1_555
Ca1A F1A 1_555 1_555
F1A Rb1 1_555 1_555
O1A_2 Rb1 1_555 1_555
C1_2 O1A_2 1_555 1_555
O1B_2 C1_2 1_555 1_555
O1_2 Ca1A 1_555 1_555
Rb1B O1 1_555 1_555
Rb1_2 O1A 1_555 1_555
Rb1_3 O1A 1_555 1_555
Rb1_4 F1 1_555 1_555
Rb1_5 O1A_2 1_555 1_555
Rb1A_2 F1 1_555 1_555
Rb1A_3 O1B_2 1_555 1_555
Rb1A_4 O1B_2 1_555 1_555
Rb1A_5 O2A 1_555 1_555
Rb1A_6 O2A 1_555 1_555
Rb1B_2 F1B 1_555 1_555
Rb1B_3 O1 1_555 1_555
Rb1B_4 F1A 1_555 1_555
Rb1B_5 O1_2 1_555 1_555
Ca1_2 F1 1_555 1_555
Ca1_3 O1B_2 1_555 1_555
Ca1A_2 O1 1_555 1_555
Ca1A_3 O2A 1_555 1_555
Ca1B_2 F1B 1_555 1_555
Ca1B_3 O1A_2 1_555 1_555
Ca1B_4 O2B 1_555 1_555
F1_2 Rb1 1_555 1_555
F1A_2 Rb1A 1_555 1_555
F1A_3 Rb1B 1_555 1_555
F1A_4 Ca1A 1_555 1_555
F1B_2 Rb1A 1_555 1_555
F1B_3 Rb1 1_555 1_555
F1B_4 Rb1B 1_555 1_555
O1_3 Rb1B 1_555 1_555
O1A_3 Rb1 1_555 1_555
O1B_3 Rb1A 1_555 1_555
O1F Ca1B 1_555 1_555
O1F_2 Rb1 1_555 1_555
O1F_3 Rb1 1_555 1_555
O1G Ca1B 1_555 1_555
O1G_2 Rb1B 1_555 1_555
O1G_3 Rb1B 1_555 1_555
O1G_4 Ca1A 1_555 1_555
O1H Ca1 1_555 1_555
O1H_2 Rb1A 1_555 1_555
O1H_3 Ca1A 1_555 1_555
O2_2 Rb1B 1_555 1_555
O2_3 Rb1 1_555 1_555
O2A_2 Rb1A 1_555 1_555
O2A_3 Rb1A 1_555 1_555
O2A_4 Rb1 1_555 1_555
O2B_2 Rb1A 1_555 1_555
O2B_3 Rb1A 1_555 1_555
O2B_4 Rb1B 1_555 1_555
Ca1 F1_2 1_555 1_555
Ca1 O1F_2 1_555 1_555
O2 Rb1B 1_555 1_555
O2 Rb1_4 1_555 1_555
O2 Rb1B_3 1_555 1_555
C1 O1B 1_555 1_555
C2 O2A 1_555 1_555
O1A Ca1A_2 1_555 1_555
O1B Ca1B 1_555 1_555
O1B Rb1A_2 1_555 1_555
O2A Rb1_4 1_555 1_555
O2B Rb1B 1_555 1_555
O2B Rb1A_5 1_555 1_555
O2B Rb1A_6 1_555 1_555
O2B Rb1B_3 1_555 1_555
Rb1A F1_2 1_555 1_555
Rb1A O1H 1_555 1_555
Ca1B F1B_2 1_555 1_555
Ca1B O2B_2 1_555 1_555
F1B Rb1_2 1_555 1_555
F1B Rb1A_2 1_555 1_555
Ca1A O1A_2 1_555 1_555
Ca1A O2A_4 1_555 1_555
F1A Rb1A_6 1_555 1_555
F1A Ca1A_3 1_555 1_555
C1_2 O1_2 1_555 1_555
O1B_2 Ca1B_3 1_555 1_555
O1_2 Rb1B_4 1_555 1_555
O1_2 Ca1_3 1_555 1_555
Rb1_2 F1A_3 1_555 1_555
Rb1_2 O1F 1_555 1_555
Rb1_3 F1B_2 1_555 1_555
Rb1_3 O1F 1_555 1_555
Rb1_4 O1A_3 1_555 1_555
Rb1_4 O1F_2 1_555 1_555
Rb1_4 O2_2 1_555 1_555
Rb1_5 F1A_4 1_555 1_555
Rb1_5 O1F_3 1_555 1_555
Rb1_5 O2_3 1_555 1_555
Rb1_5 O2A_4 1_555 1_555
Rb1A_2 O1H 1_555 1_555
Rb1A_2 O2A_2 1_555 1_555
Rb1A_2 O2B_2 1_555 1_555
Rb1A_3 F1B_3 1_555 1_555
Rb1A_5 F1B_4 1_555 1_555
Rb1A_5 O2B_4 1_555 1_555
Rb1A_6 O1H_3 1_555 1_555
Rb1A_6 O2A_4 1_555 1_555
Rb1B_2 O1G 1_555 1_555
Rb1B_2 O2B_2 1_555 1_555
Rb1B_3 F1_2 1_555 1_555
Rb1B_3 O1G_3 1_555 1_555
Rb1B_3 O2_3 1_555 1_555
Rb1B_4 O1G_4 1_555 1_555
Rb1B_5 F1A_4 1_555 1_555
Rb1B_5 O1G_4 1_555 1_555
Ca1_2 O1_3 1_555 1_555
Ca1_2 O2_2 1_555 1_555
Ca1A_2 F1A_3 1_555 1_555
Ca1A_2 O1G_3 1_555 1_555
Ca1A_3 O1A_3 1_555 1_555
Ca1B_3 F1B_3 1_555 1_555
Ca1B_3 O1F_3 1_555 1_555
Ca1B_4 F1B_4 1_555 1_555
Ca1B_4 O1G_3 1_555 1_555

#END
