
#######################################################################
#
#                 Cambridge Crystallographic Data Centre
#                                CCDC 
#
#######################################################################
#
# If this CIF has been generated from an entry in the Cambridge 
# Structural Database, then it will include bibliographic, chemical, 
# crystal, experimental, refinement or atomic coordinate data resulting 
# from the CCDC's data processing and validation procedures.
#
#######################################################################

data_XUSCEV
_symmetry_cell_setting           hexagonal
_symmetry_space_group_name_H-M   'P 63 m c'
_symmetry_Int_Tables_number      186
_space_group_name_Hall           "P 6c -2'c"
loop_
_symmetry_equiv_pos_site_id
_symmetry_equiv_pos_as_xyz
1 x,y,z
2 -y,x-y,z
3 -x+y,-x,z
4 -x,-y,1/2+z
5 y,-x+y,1/2+z
6 x-y,x,1/2+z
7 -y,-x,z
8 -x+y,y,z
9 x,x-y,z
10 y,x,1/2+z
11 x-y,-y,1/2+z
12 -x,-x+y,1/2+z
_cell_length_a                   11.5158(9)
_cell_length_b                   11.5158(9)
_cell_length_c                   7.6132(12)
_cell_angle_alpha                90
_cell_angle_beta                 90
_cell_angle_gamma                120
_cell_volume                     874.352
loop_
_atom_site_label
_atom_site_type_symbol
_atom_site_fract_x
_atom_site_fract_y
_atom_site_fract_z
Cs1 Cs 0.87799(4) 0.12201(4) 0.56861(10)
Ba1 Ba 0.53720(3) 0.07440(5) 0.90370(7)
O1 O 0.3622(8) 0.1811(4) 0.9736(10)
O2 O 0.4156(5) 0.3051(5) 1.2178(7)
F1 F 0.5719(3) 0.1439(6) 0.5852(9)
F2 F 0.6667 0.3333 0.9978(14)
F3 F 1.0000 0.0000 0.3116(19)
C1 C 0.3955(9) 0.1978(5) 1.1355(17)
Ba2 Ba 0.6667 0.3333 1.36070(13)
O2H O 0.4156(5) 0.1105(7) 1.2178(7)
Cs1A Cs 0.87799(4) -0.24402(6) 0.56861(10)
Ba1A Ba 0.92560(5) -0.53720(6) 0.90370(7)
O1A O 0.8189(4) -0.8189(9) 0.9736(10)
O2A O 0.6949(5) -0.8895(7) 1.2178(7)
F1A F 0.8561(6) -0.5720(7) 0.5852(9)
C1A C 0.8022(5) -0.8023(10) 1.1355(17)
O2G O 0.8895(7) -0.6949(5) 1.2178(7)
Cs1B Cs 0.24402(6) -0.87799(4) 0.56861(10)
Ba1B Ba 0.53720(6) -0.53720(3) 0.90370(7)
O1B O 0.8189(9) -0.3622(8) 0.9736(10)
O2B O 0.8895(7) -0.4156(5) 1.2178(7)
F1B F 0.5720(7) -0.5719(3) 0.5852(9)
C1B C 0.8023(10) -0.3955(9) 1.1355(17)
O2F O 0.6949(5) -0.4156(5) 1.2178(7)
Cs1_2 Cs 0.87799(4) -0.87799(4) 0.56861(10)
Cs1_3 Cs 0.87799(4) -0.87799(4) 1.56861(10)
Cs1A_2 Cs 0.87799(4) -0.24402(6) 1.56861(10)
Cs1B_2 Cs 0.24402(6) 0.12201(4) 0.56861(10)
Cs1B_3 Cs 0.24402(6) 0.12201(4) 1.56861(10)
Cs1B_4 Cs 1.24402(6) 0.12201(4) 0.56861(10)
Cs1C Cs 0.12201(4) -0.12201(4) 1.06861(10)
Cs1C_2 Cs 1.12201(4) -0.12201(4) 0.06861(10)
Cs1C_3 Cs 1.12201(4) -0.12201(4) 1.06861(10)
Cs1D Cs 0.12201(4) 0.24402(6) 1.06861(10)
Cs1D_2 Cs 1.12201(4) -0.75598(6) 1.06861(10)
Cs1D_3 Cs 1.12201(4) 0.24402(6) 0.06861(10)
Cs1E Cs 0.75598(6) -1.12201(4) 1.06861(10)
Cs1E_2 Cs 0.75598(6) -0.12201(4) 0.06861(10)
Cs1E_3 Cs 0.75598(6) -0.12201(4) 1.06861(10)
Ba1_2 Ba 0.53720(3) -0.92560(5) 0.90370(7)
Ba1A_2 Ba 0.92560(5) 0.46280(6) 0.90370(7)
Ba1B_2 Ba 0.53720(6) 0.46280(3) 0.90370(7)
Ba1C Ba 0.46280(3) -1.07440(5) 1.40370(7)
Ba1C_2 Ba 0.46280(3) -0.07440(5) 0.40370(7)
Ba1C_3 Ba 0.46280(3) -0.07440(5) 1.40370(7)
Ba1D Ba 1.07440(5) -0.46280(6) 0.40370(7)
Ba1D_2 Ba 1.07440(5) -0.46280(6) 1.40370(7)
Ba1E Ba 0.46280(6) -0.46280(3) 0.40370(7)
Ba1E_2 Ba 0.46280(6) -0.46280(3) 1.40370(7)
Ba1E_3 Ba 0.46280(6) 0.53720(3) 1.40370(7)
O1_2 O 0.3622(8) -0.8189(4) 0.9736(10)
O1A_2 O 0.8189(4) 0.1811(9) 0.9736(10)
O1C O 0.6378(8) -0.1811(4) 0.4736(10)
O1D O 0.1811(4) -1.1811(9) 0.4736(10)
O1D_2 O 1.1811(4) -0.1811(9) 0.4736(10)
O1E O 0.1811(9) -0.6378(8) 0.4736(10)
O1E_2 O 1.1811(9) 0.3622(8) 0.4736(10)
O2_2 O 0.4156(5) -0.6949(5) 0.2178(7)
O2_3 O 0.4156(5) -0.6949(5) 1.2178(7)
O2A_2 O 0.6949(5) 0.1105(7) 0.2178(7)
O2A_3 O 0.6949(5) 0.1105(7) 1.2178(7)
O2B_2 O 0.8895(7) -0.4156(5) 0.2178(7)
O2B_3 O 0.8895(7) 0.5844(5) 1.2178(7)
O2C O 0.5844(5) -0.3051(5) 0.7178(7)
O2D O 0.3051(5) -1.1105(7) 0.7178(7)
O2D_2 O 0.3051(5) -0.1105(7) 0.7178(7)
O2E O 1.1105(7) -0.5844(5) 0.7178(7)
O2E_2 O 1.1105(7) 0.4156(5) 0.7178(7)
O2F_2 O 0.6949(5) -0.4156(5) 0.2178(7)
O2F_3 O 0.6949(5) 0.5844(5) 1.2178(7)
O2G_2 O 0.8895(7) 0.3051(5) 0.2178(7)
O2G_3 O 0.8895(7) 0.3051(5) 1.2178(7)
O2H_2 O 0.4156(5) -0.8895(7) 0.2178(7)
O2I O 0.3051(5) -0.5844(5) 0.7178(7)
O2J O 1.1105(7) -0.3051(5) 0.7178(7)
O2K O 0.5844(5) -0.1105(7) 0.7178(7)
F1_2 F 0.5719(3) -0.8561(6) 0.5852(9)
F1_3 F 0.5719(3) 0.1439(6) 1.5852(9)
F1A_2 F 0.8561(6) 0.4280(7) 0.5852(9)
F1A_3 F 0.8561(6) 0.4280(7) 1.5852(9)
F1B_2 F 0.5720(7) 0.4281(3) 1.5852(9)
F1C F 0.4281(3) -0.1439(6) 1.0852(9)
F1D F 1.1439(6) -0.4280(7) 1.0852(9)
F1E F 0.4280(7) -0.4281(3) 1.0852(9)
F2_2 F 0.6667 -0.6667 0.9978(14)
F3_2 F 0.0000 -1.0000 0.3116(19)
F3C F 0.0000 -1.0000 0.8116(19)
F3C_2 F 1.0000 0.0000 0.8116(19)
Ba2_2 Ba 0.6667 -0.6667 0.36070(13)
Ba2_3 Ba 0.6667 -0.6667 1.36070(13)
Ba2_4 Ba 0.6667 0.3333 0.36070(13)
loop_
_geom_bond_atom_site_label_1
_geom_bond_atom_site_label_2
_geom_bond_site_symmetry_1
_geom_bond_site_symmetry_2
Cs1 F1 1_555 1_555
Ba1 O1 1_555 1_555
O1 C1 1_555 1_555
O2 C1 1_555 1_555
F1 Ba1 1_555 1_555
F2 Ba1 1_555 1_555
F3 Cs1 1_555 1_555
C1 O2H 1_555 1_555
Ba2 O2 1_555 1_555
O2H Ba1 1_555 1_555
Cs1A F3 1_555 1_555
Ba1A O1A 1_555 1_555
O1A C1A 1_555 1_555
O2A C1A 1_555 1_555
F1A Cs1A 1_555 1_555
C1A O2G 1_555 1_555
O2G Ba1A 1_555 1_555
Cs1B F1B 1_555 1_555
Ba1B O1B 1_555 1_555
O1B Cs1A 1_555 1_555
O2B Ba1A 1_555 1_555
F1B Cs1A 1_555 1_555
C1B O1B 1_555 1_555
O2F Ba1B 1_555 1_555
Cs1_2 O1A 1_555 1_555
Cs1_3 O2A 1_555 1_555
Cs1A_2 O2B 1_555 1_555
Cs1B_2 O1 1_555 1_555
Cs1B_3 O2 1_555 1_555
Cs1B_4 F3 1_555 1_555
Cs1C O1 1_555 1_555
Cs1C_2 F3 1_555 1_555
Cs1C_3 O1B 1_555 1_555
Cs1D O1 1_555 1_555
Cs1D_2 O1A 1_555 1_555
Cs1D_3 F3 1_555 1_555
Cs1E O1A 1_555 1_555
Cs1E_2 F3 1_555 1_555
Cs1E_3 O1B 1_555 1_555
Ba1_2 O1A 1_555 1_555
Ba1A_2 F2 1_555 1_555
Ba1B_2 O1 1_555 1_555
Ba1C O2A 1_555 1_555
Ba1C_2 F1 1_555 1_555
Ba1C_3 O2H 1_555 1_555
Ba1D F1A 1_555 1_555
Ba1D_2 O2G 1_555 1_555
Ba1E F1B 1_555 1_555
Ba1E_2 O2F 1_555 1_555
Ba1E_3 O2 1_555 1_555
O1_2 Cs1B 1_555 1_555
O1A_2 Cs1 1_555 1_555
O1C Cs1 1_555 1_555
O1D Cs1B 1_555 1_555
O1D_2 Cs1A 1_555 1_555
O1E Cs1B 1_555 1_555
O1E_2 Cs1 1_555 1_555
O2_2 Cs1B 1_555 1_555
O2_3 Ba1B 1_555 1_555
O2A_2 Cs1 1_555 1_555
O2A_3 Ba1 1_555 1_555
O2B_2 Cs1A 1_555 1_555
O2B_3 Ba2 1_555 1_555
O2C Cs1A 1_555 1_555
O2D Cs1B 1_555 1_555
O2D_2 Ba1 1_555 1_555
O2E Ba1A 1_555 1_555
O2E_2 Cs1 1_555 1_555
O2F_2 Cs1A 1_555 1_555
O2F_3 Ba2 1_555 1_555
O2G_2 Cs1 1_555 1_555
O2G_3 Ba2 1_555 1_555
O2H_2 Cs1B 1_555 1_555
O2I Cs1B 1_555 1_555
O2J Cs1A 1_555 1_555
O2K Cs1 1_555 1_555
F1_2 Cs1B 1_555 1_555
F1_3 Ba2 1_555 1_555
F1A_2 Cs1 1_555 1_555
F1A_3 Ba2 1_555 1_555
F1B_2 Ba2 1_555 1_555
F1C Ba1 1_555 1_555
F1D Ba1A 1_555 1_555
F1E Ba1B 1_555 1_555
F2_2 Ba1A 1_555 1_555
F3_2 Cs1B 1_555 1_555
F3C Cs1B 1_555 1_555
F3C_2 Cs1 1_555 1_555
Ba2_2 F1A 1_555 1_555
Ba2_3 O2A 1_555 1_555
Ba2_4 F1 1_555 1_555
Ba1 O1A_2 1_555 1_555
Ba1 O2K 1_555 1_555
O2 Cs1D 1_555 1_555
O2 Ba1B_2 1_555 1_555
F1 Cs1B_2 1_555 1_555
F2 Ba2 1_555 1_555
F2 Ba1B_2 1_555 1_555
Ba2 O2H 1_555 1_555
Ba2 O2A_3 1_555 1_555
O2H Cs1B_3 1_555 1_555
O2H Cs1C 1_555 1_555
Cs1A O1C 1_555 1_555
Cs1A F3C_2 1_555 1_555
Ba1A F1A 1_555 1_555
Ba1A O1B 1_555 1_555
Ba1A O2J 1_555 1_555
O2A Cs1E 1_555 1_555
O2A Ba1_2 1_555 1_555
F1A Cs1_2 1_555 1_555
O2G Cs1_3 1_555 1_555
O2G Cs1D_2 1_555 1_555
O2G Ba2_3 1_555 1_555
Ba1B F1B 1_555 1_555
Ba1B O1_2 1_555 1_555
Ba1B O2C 1_555 1_555
Ba1B O2I 1_555 1_555
Ba1B F2_2 1_555 1_555
O2B C1B 1_555 1_555
O2B Cs1C_3 1_555 1_555
O2B Ba1D_2 1_555 1_555
O2B Ba2_3 1_555 1_555
F1B Ba2_2 1_555 1_555
C1B O2F 1_555 1_555
O2F Cs1A_2 1_555 1_555
O2F Cs1E_3 1_555 1_555
O2F Ba2_3 1_555 1_555
Cs1_2 O2E 1_555 1_555
Cs1_2 F1_2 1_555 1_555
Cs1B_2 O2D_2 1_555 1_555
Cs1B_3 F1_3 1_555 1_555
Cs1B_3 F1B_2 1_555 1_555
Cs1B_4 O1D_2 1_555 1_555
Cs1B_4 O1E_2 1_555 1_555
Cs1B_4 F3C_2 1_555 1_555
Cs1C O2D_2 1_555 1_555
Cs1C F1C 1_555 1_555
Cs1C_2 O1D_2 1_555 1_555
Cs1C_2 O2B_2 1_555 1_555
Cs1C_3 O2J 1_555 1_555
Cs1C_3 F1D 1_555 1_555
Cs1C_3 F3C_2 1_555 1_555
Cs1D_2 O2E 1_555 1_555
Cs1D_2 F1D 1_555 1_555
Cs1D_3 O1E_2 1_555 1_555
Cs1D_3 O2G_2 1_555 1_555
Cs1E_2 O1C 1_555 1_555
Cs1E_2 O2A_2 1_555 1_555
Cs1E_2 O2F_2 1_555 1_555
Cs1E_3 O1A_2 1_555 1_555
Cs1E_3 O2A_3 1_555 1_555
Cs1E_3 O2C 1_555 1_555
Cs1E_3 O2K 1_555 1_555
Cs1E_3 F1C 1_555 1_555
Cs1E_3 F1E 1_555 1_555
Cs1E_3 F3C_2 1_555 1_555
Ba1_2 O1_2 1_555 1_555
Ba1_2 O2D 1_555 1_555
Ba1_2 F1_2 1_555 1_555
Ba1_2 F2_2 1_555 1_555
Ba1A_2 O1A_2 1_555 1_555
Ba1A_2 O2B_3 1_555 1_555
Ba1A_2 O2E_2 1_555 1_555
Ba1A_2 O2G_3 1_555 1_555
Ba1A_2 F1A_2 1_555 1_555
Ba1B_2 O2F_3 1_555 1_555
Ba1C_2 O1C 1_555 1_555
Ba1C_2 O2A_2 1_555 1_555
Ba1C_2 O2D_2 1_555 1_555
Ba1C_2 O2K 1_555 1_555
Ba1C_3 O2A_3 1_555 1_555
Ba1C_3 F1_3 1_555 1_555
Ba1C_3 F1C 1_555 1_555
Ba1D O1D_2 1_555 1_555
Ba1D O2B_2 1_555 1_555
Ba1D O2E 1_555 1_555
Ba1D O2J 1_555 1_555
Ba1D_2 F1D 1_555 1_555
Ba1E O1C 1_555 1_555
Ba1E O1E 1_555 1_555
Ba1E O2_2 1_555 1_555
Ba1E O2C 1_555 1_555
Ba1E O2F_2 1_555 1_555
Ba1E O2I 1_555 1_555
Ba1E_2 O2_3 1_555 1_555
Ba1E_2 F1E 1_555 1_555
Ba1E_3 O2F_3 1_555 1_555
Ba1E_3 F1B_2 1_555 1_555
O2_2 Ba2_2 1_555 1_555
O2_3 Ba2_3 1_555 1_555
O2A_2 Ba2_4 1_555 1_555
O2B_2 Ba2_2 1_555 1_555
O2F_2 Ba2_2 1_555 1_555
O2G_2 Ba2_4 1_555 1_555
O2H_2 Ba2_2 1_555 1_555
F1_2 Ba2_2 1_555 1_555
F1A_2 Ba2_4 1_555 1_555
F2_2 Ba2_3 1_555 1_555

#END
