
#######################################################################
#
#                 Cambridge Crystallographic Data Centre
#                                CCDC 
#
#######################################################################
#
# If this CIF has been generated from an entry in the Cambridge 
# Structural Database, then it will include bibliographic, chemical, 
# crystal, experimental, refinement or atomic coordinate data resulting 
# from the CCDC's data processing and validation procedures.
#
#######################################################################

data_XUTMOQ
_symmetry_cell_setting           triclinic
_symmetry_space_group_name_H-M   'P -1'
_symmetry_Int_Tables_number      2
_space_group_name_Hall           '-P 1'
loop_
_symmetry_equiv_pos_site_id
_symmetry_equiv_pos_as_xyz
1 x,y,z
2 -x,-y,-z
_cell_length_a                   12.0855(6)
_cell_length_b                   12.1636(6)
_cell_length_c                   13.5127(6)
_cell_angle_alpha                98.040(4)
_cell_angle_beta                 111.284(4)
_cell_angle_gamma                96.639(4)
_cell_volume                     1802.68
loop_
_atom_site_label
_atom_site_type_symbol
_atom_site_fract_x
_atom_site_fract_y
_atom_site_fract_z
Cd1 Cd 0.09875(3) 0.88546(2) 0.22988(2)
Cd2 Cd 0.14670(2) 1.07098(2) 0.04851(2)
O1 O 0.1671(3) 0.7665(2) 0.3653(2)
O2 O 0.1608(3) 0.7124(2) 0.2007(2)
O3 O 0.1330(3) 0.1878(2) 0.1893(2)
O4 O -0.0028(3) 0.2853(2) 0.1014(2)
O5 O 0.6801(2) 0.9525(2) 0.8116(2)
O6 O 0.7276(3) 0.9931(2) 0.6739(2)
O7 O 0.0407(2) 0.90979(19) 0.06176(18)
H1 H 0.0297 0.8521 0.0136
N1 N 0.4257(3) 0.6747(3) 0.5992(3)
N2 N -0.0879(3) 0.7770(3) 0.2181(3)
N3 N 0.0033(3) 0.9983(3) 0.3178(2)
N4 N 0.2839(3) 1.2268(3) 0.0367(3)
N5 N 0.2401(3) 1.0048(3) -0.0664(3)
C1 C 0.1783(4) 0.6961(3) 0.2948(3)
C2 C 0.2087(4) 0.5831(3) 0.3199(3)
C3 C 0.1368(4) 0.4864(3) 0.2463(3)
H2 H 0.0751 0.4931 0.1830
C4 C 0.1563(4) 0.3793(3) 0.2665(3)
C5 C 0.0877(4) 0.2758(3) 0.1785(3)
C6 C 0.2471(4) 0.3708(3) 0.3624(3)
H3 H 0.2615 0.3001 0.3768
C7 C 0.3164(4) 0.4671(3) 0.4367(3)
H4 H 0.3747 0.4598 0.5019
C8 C 0.3010(3) 0.5744(3) 0.4164(3)
C9 C 0.3887(4) 0.6742(3) 0.4920(3)
C10 C 0.4355(4) 0.7591(3) 0.4534(3)
H5 H 0.4085 0.7571 0.3792
C11 C 0.5218(4) 0.8464(4) 0.5241(3)
H6 H 0.5531 0.9040 0.4979
C12 C 0.5629(3) 0.8495(3) 0.6345(3)
C13 C 0.6652(3) 0.9395(3) 0.7140(3)
C14 C 0.5116(4) 0.7620(3) 0.6679(3)
H7 H 0.5376 0.7630 0.7418
C15 C -0.1268(4) 0.6688(4) 0.1748(4)
H8 H -0.0912 0.6338 0.1313
C16 C -0.2200(5) 0.6045(5) 0.1920(5)
H9 H -0.2434 0.5276 0.1631
C17 C -0.2748(5) 0.6557(5) 0.2505(5)
H10 H -0.3391 0.6147 0.2597
C18 C -0.2365(5) 0.7701(5) 0.2980(4)
C19 C -0.1398(4) 0.8280(4) 0.2806(3)
C20 C -0.2903(5) 0.8310(6) 0.3624(4)
H11 H -0.3551 0.7934 0.3733
C21 C -0.2490(5) 0.9406(6) 0.4068(4)
H12 H -0.2857 0.9774 0.4481
C22 C -0.1497(5) 1.0026(5) 0.3924(4)
C23 C -0.0939(4) 0.9463(4) 0.3306(3)
C24 C -0.1039(5) 1.1168(5) 0.4385(4)
H13 H -0.1390 1.1568 0.4794
C25 C -0.0073(5) 1.1686(4) 0.4228(4)
H14 H 0.0228 1.2451 0.4511
C26 C 0.0460(5) 1.1065(4) 0.3642(3)
H15 H 0.1143 1.1421 0.3570
C27 C 0.3068(5) 1.3337(4) 0.0862(4)
H16 H 0.2530 1.3585 0.1154
C28 C 0.4060(6) 1.4105(5) 0.0969(5)
H17 H 0.4191 1.4844 0.1334
C29 C 0.4833(5) 1.3766(5) 0.0537(5)
H18 H 0.5509 1.4273 0.0611
C30 C 0.4631(4) 1.2668(5) -0.0018(4)
C31 C 0.3604(4) 1.1917(4) -0.0087(3)
C32 C 0.5382(5) 1.2278(6) -0.0537(5)
H19 H 0.6056 1.2771 -0.0490
C33 C 0.5143(5) 1.1213(7) -0.1099(5)
H20 H 0.5644 1.0982 -0.1441
C34 C 0.4112(5) 1.0429(5) -0.1171(4)
C35 C 0.3354(4) 1.0770(4) -0.0655(3)
C36 C 0.3841(6) 0.9324(6) -0.1724(4)
H21 H 0.4320 0.9073 -0.2082
C37 C 0.2886(6) 0.8603(5) -0.1749(4)
H22 H 0.2702 0.7862 -0.2126
C38 C 0.2174(5) 0.8998(4) -0.1193(3)
H23 H 0.1525 0.8500 -0.1200
Cd1A Cd 0.90125(3) 1.11454(2) 0.77012(2)
Cd2_2 Cd 0.14670(2) 0.07098(2) 0.04851(2)
Cd2A Cd -0.14670(2) 0.92902(2) -0.04851(2)
Cd2A_2 Cd 0.85330(2) 0.92902(2) 0.95149(2)
O3_2 O 0.1330(3) 1.1878(2) 0.1893(2)
O5A O 0.3199(2) 1.0475(2) 0.1884(2)
O6A O 0.2724(3) 1.0069(2) 0.3261(2)
O7A O -0.0407(2) 1.09021(19) -0.06176(18)
O8 O 0.8154(4) 0.4065(3) 0.9921(3)
H24 H 0.8221 0.3722 0.9359
H25 H 0.8695 0.3708 1.0250
O9 O 0.174(4) 0.575(4) 0.625(4)
H26 H 0.2170 0.5713 0.5875
H27 H 0.1205 0.6145 0.6315
loop_
_geom_bond_atom_site_label_1
_geom_bond_atom_site_label_2
_geom_bond_site_symmetry_1
_geom_bond_site_symmetry_2
Cd1 O1 1_555 1_555
Cd2 O7 1_555 1_555
O1 C1 1_555 1_555
O2 Cd1 1_555 1_555
O3 C5 1_555 1_555
O4 C5 1_555 1_555
O5 C13 1_555 1_555
O6 C13 1_555 1_555
O7 Cd1 1_555 1_555
H1 O7 1_555 1_555
N1 C9 1_555 1_555
N2 Cd1 1_555 1_555
N3 Cd1 1_555 1_555
N4 Cd2 1_555 1_555
N5 Cd2 1_555 1_555
C1 O2 1_555 1_555
C2 C1 1_555 1_555
C3 C2 1_555 1_555
H2 C3 1_555 1_555
C4 C3 1_555 1_555
C5 C4 1_555 1_555
C6 C4 1_555 1_555
H3 C6 1_555 1_555
C7 C6 1_555 1_555
H4 C7 1_555 1_555
C8 C2 1_555 1_555
C9 C8 1_555 1_555
C10 C9 1_555 1_555
H5 C10 1_555 1_555
C11 C10 1_555 1_555
H6 C11 1_555 1_555
C12 C11 1_555 1_555
C13 C12 1_555 1_555
C14 N1 1_555 1_555
H7 C14 1_555 1_555
C15 N2 1_555 1_555
H8 C15 1_555 1_555
C16 C15 1_555 1_555
H9 C16 1_555 1_555
C17 C16 1_555 1_555
H10 C17 1_555 1_555
C18 C17 1_555 1_555
C19 N2 1_555 1_555
C20 C18 1_555 1_555
H11 C20 1_555 1_555
C21 C20 1_555 1_555
H12 C21 1_555 1_555
C22 C21 1_555 1_555
C23 N3 1_555 1_555
C24 C22 1_555 1_555
H13 C24 1_555 1_555
C25 C24 1_555 1_555
H14 C25 1_555 1_555
C26 N3 1_555 1_555
H15 C26 1_555 1_555
C27 N4 1_555 1_555
H16 C27 1_555 1_555
C28 C27 1_555 1_555
H17 C28 1_555 1_555
C29 C28 1_555 1_555
H18 C29 1_555 1_555
C30 C29 1_555 1_555
C31 N4 1_555 1_555
C32 C30 1_555 1_555
H19 C32 1_555 1_555
C33 C32 1_555 1_555
H20 C33 1_555 1_555
C34 C33 1_555 1_555
C35 N5 1_555 1_555
C36 C34 1_555 1_555
H21 C36 1_555 1_555
C37 C36 1_555 1_555
H22 C37 1_555 1_555
C38 N5 1_555 1_555
H23 C38 1_555 1_555
O8 H24 1_555 1_555
H25 O8 1_555 1_555
O9 H26 1_555 1_555
H27 O9 1_555 1_555
Cd1A O6 1_555 1_555
Cd2_2 O3 1_555 1_555
Cd2A O7 1_555 1_555
Cd2A_2 O5 1_555 1_555
O3_2 Cd2 1_555 1_555
O5A Cd2 1_555 1_555
O6A Cd1 1_555 1_555
O7A Cd2 1_555 1_555
C7 C8 1_555 1_555
C12 C14 1_555 1_555
C18 C19 1_555 1_555
C19 C23 1_555 1_555
C22 C23 1_555 1_555
C25 C26 1_555 1_555
C30 C31 1_555 1_555
C31 C35 1_555 1_555
C34 C35 1_555 1_555
C37 C38 1_555 1_555
Cd2A O7A 1_555 1_555

#END
