
#######################################################################
#
#                 Cambridge Crystallographic Data Centre
#                                CCDC 
#
#######################################################################
#
# If this CIF has been generated from an entry in the Cambridge 
# Structural Database, then it will include bibliographic, chemical, 
# crystal, experimental, refinement or atomic coordinate data resulting 
# from the CCDC's data processing and validation procedures.
#
#######################################################################

data_XUTMUW
_symmetry_cell_setting           monoclinic
_symmetry_space_group_name_H-M   'P 21/n'
_symmetry_Int_Tables_number      14
_space_group_name_Hall           '-P 2yn'
loop_
_symmetry_equiv_pos_site_id
_symmetry_equiv_pos_as_xyz
1 x,y,z
2 1/2-x,1/2+y,1/2-z
3 -x,-y,-z
4 1/2+x,1/2-y,1/2+z
_cell_length_a                   8.6220(4)
_cell_length_b                   39.658(3)
_cell_length_c                   13.6015(6)
_cell_angle_alpha                90
_cell_angle_beta                 92.600(5)
_cell_angle_gamma                90
_cell_volume                     4645.99
loop_
_atom_site_label
_atom_site_type_symbol
_atom_site_fract_x
_atom_site_fract_y
_atom_site_fract_z
Mn1 Mn 0.82711(11) 0.19590(2) 0.00467(6)
Mn2 Mn 1.27216(11) 0.19069(3) 0.06729(6)
Mn3 Mn 1.03408(13) 0.01615(3) 0.64315(7)
O1 O 0.9905(5) 0.15700(11) 0.0580(3)
O2 O 1.1893(5) 0.15346(14) 0.1654(3)
O3 O 0.8356(6) 0.02433(16) 0.5574(4)
O4 O 0.8772(7) 0.03122(12) 0.3982(4)
O5 O 0.1321(7) 0.0656(2) 0.5555(5)
O6 O 0.2810(7) 0.03114(16) 0.6358(5)
O7 O 1.2015(6) 0.23250(13) 0.1562(3)
O8 O 1.0257(5) 0.22939(11) 0.0363(3)
O9 O 0.7843(5) 0.33067(12) 0.4198(3)
O10 O 0.8722(5) 0.27910(12) 0.4400(3)
O11 O 1.0058(5) 0.31560(13) -0.3818(3)
O12 O 1.2523(5) 0.30388(12) -0.3475(3)
O13 O 0.6709(6) 0.23918(13) -0.0196(3)
H1 H 0.5736 0.2329 -0.0379
H2 H 0.7033 0.2528 -0.0674
N1 N 0.7087(7) 0.10249(15) 0.2396(4)
N2 N 0.9082(7) 0.31054(19) -0.0849(4)
N3 N 0.9011(6) 0.19779(14) -0.1533(4)
N4 N 0.6960(6) 0.15257(13) -0.0834(4)
N5 N 0.8897(8) -0.01300(16) 0.7509(4)
N6 N 1.0208(7) 0.04780(14) 0.7806(4)
C1 C 1.0508(8) 0.14760(15) 0.1401(4)
C2 C 0.9555(7) 0.12865(16) 0.2090(4)
C3 C 0.8076(8) 0.11753(18) 0.1797(4)
H3 H 0.7748 0.1207 0.1143
C4 C 0.7606(8) 0.09694(16) 0.3338(4)
C5 C 0.9081(8) 0.10543(16) 0.3677(4)
H4 H 0.9416 0.1004 0.4321
C6 C 1.0071(8) 0.12164(17) 0.3045(5)
H5 H 1.1070 0.1277 0.3264
C7 C 0.6418(8) 0.08413(17) 0.3996(5)
C8 C 0.4991(9) 0.1013(2) 0.3951(6)
H6 H 0.4853 0.1192 0.3512
C9 C 0.3788(9) 0.0927(2) 0.4537(5)
H7 H 0.2866 0.1049 0.4506
C10 C 0.3975(9) 0.06535(19) 0.5175(5)
C11 C 0.5362(8) 0.04879(17) 0.5225(5)
H8 H 0.5491 0.0310 0.5666
C12 C 0.6586(8) 0.05725(16) 0.4650(4)
C13 C 0.8031(9) 0.03632(18) 0.4729(6)
C14 C 0.2583(11) 0.0539(2) 0.5746(6)
C15 C 1.0851(7) 0.24382(16) 0.1109(4)
C16 C 1.0139(6) 0.27540(16) 0.1481(4)
C17 C 0.9745(7) 0.27659(16) 0.2468(4)
H9 H 0.9994 0.2586 0.2883
C18 C 0.8992(7) 0.30430(16) 0.2827(4)
C19 C 0.8485(7) 0.30494(17) 0.3868(4)
C20 C 0.8664(8) 0.33194(17) 0.2210(4)
H10 H 0.8174 0.3509 0.2452
C21 C 0.9069(8) 0.33081(18) 0.1249(5)
H11 H 0.8850 0.3493 0.0844
C22 C 0.9801(7) 0.30274(16) 0.0860(4)
C23 C 1.0240(8) 0.30332(16) -0.0189(4)
C24 C 0.9442(9) 0.3124(2) -0.1799(5)
H12 H 0.8647 0.3174 -0.2261
C25 C 1.0902(7) 0.30743(15) -0.2134(4)
C26 C 1.1167(7) 0.30900(15) -0.3223(4)
C27 C 1.2064(8) 0.30034(18) -0.1448(4)
H13 H 1.3074 0.2971 -0.1642
C28 C 1.1734(8) 0.29801(18) -0.0461(4)
H14 H 1.2514 0.2929 0.0010
C29 C 0.9901(8) 0.2212(2) -0.1895(5)
H15 H 1.0216 0.2390 -0.1488
C30 C 1.0401(8) 0.2208(2) -0.2864(5)
H16 H 1.1003 0.2382 -0.3101
C31 C 0.9978(9) 0.1942(2) -0.3444(5)
H17 H 1.0315 0.1930 -0.4083
C32 C 0.9046(8) 0.1688(2) -0.3092(5)
C33 C 0.8550(7) 0.17189(17) -0.2125(4)
C34 C 0.8556(11) 0.1398(3) -0.3658(6)
H18 H 0.8889 0.1373 -0.4294
C35 C 0.7651(12) 0.1170(2) -0.3296(6)
H19 H 0.7374 0.0983 -0.3679
C36 C 0.7068(9) 0.1197(2) -0.2324(6)
C37 C 0.7514(7) 0.14724(17) -0.1744(5)
C38 C 0.6046(11) 0.0967(2) -0.1932(7)
H20 H 0.5753 0.0776 -0.2292
C39 C 0.5476(10) 0.1018(2) -0.1030(6)
H21 H 0.4783 0.0867 -0.0766
C40 C 0.5968(8) 0.13063(19) -0.0512(5)
H22 H 0.5564 0.1345 0.0100
C41 C 0.8240(11) -0.0428(2) 0.7331(6)
H23 H 0.8397 -0.0533 0.6733
C42 C 0.7334(12) -0.0586(2) 0.8001(7)
H24 H 0.6904 -0.0796 0.7856
C43 C 0.7073(12) -0.0436(2) 0.8868(7)
H25 H 0.6457 -0.0541 0.9320
C44 C 0.7727(10) -0.0121(2) 0.9087(5)
C45 C 0.8643(8) 0.00235(18) 0.8357(5)
C46 C 0.7582(12) 0.0060(3) 0.9996(6)
H26 H 0.7001 -0.0034 1.0487
C47 C 0.8246(11) 0.0352(3) 1.0149(6)
H27 H 0.8103 0.0461 1.0744
C48 C 0.9190(9) 0.0515(2) 0.9438(6)
C49 C 0.9360(8) 0.03517(18) 0.8531(5)
C50 C 0.9920(11) 0.0821(2) 0.9557(7)
H28 H 0.9829 0.0939 1.0143
C51 C 1.0764(11) 0.0955(2) 0.8847(7)
H29 H 1.1261 0.1162 0.8937
C52 C 1.0874(9) 0.0774(2) 0.7966(6)
H30 H 1.1444 0.0867 0.7470
Mn1C Mn 1.32711(11) 0.30410(2) -0.49533(6)
Mn2C Mn 0.77216(11) 0.30931(3) -0.43271(6)
Mn2C_2 Mn 0.77216(11) 0.30931(3) 0.56729(6)
Mn3_2 Mn 0.03408(13) 0.01615(3) 0.64315(7)
Mn3B Mn 0.96592(13) -0.01615(3) 0.35685(7)
O4B O 1.1228(7) -0.03122(12) 0.6018(4)
O5_2 O 1.1321(7) 0.0656(2) 0.5555(5)
O6_2 O 1.2810(7) 0.03114(16) 0.6358(5)
O9C O 1.2843(5) 0.16933(12) -0.0802(3)
O10C O 1.3722(5) 0.22090(12) -0.0600(3)
O11C O 1.5058(5) 0.18440(13) 0.1182(3)
O12C O 0.7523(5) 0.19612(12) 0.1525(3)
O14 O 0.1093(13) 0.2008(4) 0.3865(11)
H31 H 0.1055 0.1825 0.3537
H32 H 0.2074 0.1979 0.3947
loop_
_geom_bond_atom_site_label_1
_geom_bond_atom_site_label_2
_geom_bond_site_symmetry_1
_geom_bond_site_symmetry_2
Mn1 O1 1_555 1_555
Mn2 O2 1_555 1_555
Mn3 O3 1_555 1_555
O1 C1 1_555 1_555
O2 C1 1_555 1_555
O3 C13 1_555 1_555
O4 C13 1_555 1_555
O5 C14 1_555 1_555
O6 C14 1_555 1_555
O7 Mn2 1_555 1_555
O8 Mn1 1_555 1_555
O9 C19 1_555 1_555
O10 C19 1_555 1_555
O11 C26 1_555 1_555
O12 C26 1_555 1_555
O13 Mn1 1_555 1_555
H1 O13 1_555 1_555
H2 O13 1_555 1_555
N1 C3 1_555 1_555
N2 C23 1_555 1_555
N3 Mn1 1_555 1_555
N4 Mn1 1_555 1_555
N5 Mn3 1_555 1_555
N6 Mn3 1_555 1_555
C1 C2 1_555 1_555
C2 C3 1_555 1_555
C3 H3 1_555 1_555
C4 N1 1_555 1_555
C5 C4 1_555 1_555
H4 C5 1_555 1_555
C6 C2 1_555 1_555
H5 C6 1_555 1_555
C7 C4 1_555 1_555
C8 C7 1_555 1_555
H6 C8 1_555 1_555
C9 C8 1_555 1_555
H7 C9 1_555 1_555
C10 C9 1_555 1_555
C11 C10 1_555 1_555
H8 C11 1_555 1_555
C12 C7 1_555 1_555
C13 C12 1_555 1_555
C14 C10 1_555 1_555
C15 O7 1_555 1_555
C16 C15 1_555 1_555
C17 C16 1_555 1_555
H9 C17 1_555 1_555
C18 C17 1_555 1_555
C19 C18 1_555 1_555
C20 C18 1_555 1_555
H10 C20 1_555 1_555
C21 C20 1_555 1_555
H11 C21 1_555 1_555
C22 C16 1_555 1_555
C23 C22 1_555 1_555
C24 N2 1_555 1_555
H12 C24 1_555 1_555
C25 C24 1_555 1_555
C26 C25 1_555 1_555
C27 C25 1_555 1_555
H13 C27 1_555 1_555
C28 C23 1_555 1_555
H14 C28 1_555 1_555
C29 N3 1_555 1_555
H15 C29 1_555 1_555
C30 C29 1_555 1_555
H16 C30 1_555 1_555
C31 C30 1_555 1_555
H17 C31 1_555 1_555
C32 C31 1_555 1_555
C33 N3 1_555 1_555
C34 C32 1_555 1_555
H18 C34 1_555 1_555
C35 C34 1_555 1_555
H19 C35 1_555 1_555
C36 C35 1_555 1_555
C37 N4 1_555 1_555
C38 C36 1_555 1_555
H20 C38 1_555 1_555
C39 C38 1_555 1_555
H21 C39 1_555 1_555
C40 N4 1_555 1_555
H22 C40 1_555 1_555
C41 N5 1_555 1_555
H23 C41 1_555 1_555
C42 C41 1_555 1_555
H24 C42 1_555 1_555
C43 C42 1_555 1_555
H25 C43 1_555 1_555
C44 C43 1_555 1_555
C45 N5 1_555 1_555
C46 C44 1_555 1_555
H26 C46 1_555 1_555
C47 C46 1_555 1_555
H27 C47 1_555 1_555
C48 C47 1_555 1_555
C49 N6 1_555 1_555
C50 C48 1_555 1_555
H28 C50 1_555 1_555
C51 C50 1_555 1_555
H29 C51 1_555 1_555
C52 N6 1_555 1_555
H30 C52 1_555 1_555
O14 H31 1_555 1_555
H32 O14 1_555 1_555
Mn1C O12 1_555 1_555
Mn2C O11 1_555 1_555
Mn2C_2 O9 1_555 1_555
Mn3_2 O5 1_555 1_555
Mn3B O4 1_555 1_555
O4B Mn3 1_555 1_555
O5_2 Mn3 1_555 1_555
O6_2 Mn3 1_555 1_555
O9C Mn2 1_555 1_555
O10C Mn2 1_555 1_555
O11C Mn2 1_555 1_555
O12C Mn1 1_555 1_555
O6 Mn3_2 1_555 1_555
O8 C15 1_555 1_555
O10 Mn2C_2 1_555 1_555
C5 C6 1_555 1_555
C11 C12 1_555 1_555
C21 C22 1_555 1_555
C27 C28 1_555 1_555
C32 C33 1_555 1_555
C33 C37 1_555 1_555
C36 C37 1_555 1_555
C39 C40 1_555 1_555
C44 C45 1_555 1_555
C45 C49 1_555 1_555
C48 C49 1_555 1_555
C51 C52 1_555 1_555

#END
