
#######################################################################
#
#                 Cambridge Crystallographic Data Centre
#                                CCDC 
#
#######################################################################
#
# If this CIF has been generated from an entry in the Cambridge 
# Structural Database, then it will include bibliographic, chemical, 
# crystal, experimental, refinement or atomic coordinate data resulting 
# from the CCDC's data processing and validation procedures.
#
#######################################################################

data_XUVMIM
_symmetry_cell_setting           monoclinic
_symmetry_space_group_name_H-M   'P 21/c'
_symmetry_Int_Tables_number      14
_space_group_name_Hall           '-P 2ybc'
loop_
_symmetry_equiv_pos_site_id
_symmetry_equiv_pos_as_xyz
1 x,y,z
2 -x,1/2+y,1/2-z
3 -x,-y,-z
4 x,1/2-y,1/2+z
_cell_length_a                   11.595(2)
_cell_length_b                   11.262(2)
_cell_length_c                   16.731(3)
_cell_angle_alpha                90
_cell_angle_beta                 96.524(3)
_cell_angle_gamma                90
_cell_volume                     2170.63
loop_
_atom_site_label
_atom_site_type_symbol
_atom_site_fract_x
_atom_site_fract_y
_atom_site_fract_z
O1 O 0.3772(4) 0.9050(4) -0.2367(3)
Ni1 Ni 0.36150(6) 0.57730(6) 0.11885(5)
Ni2 Ni 0.23918(6) 0.77083(7) -0.04304(4)
O2 O 0.5209(3) 0.5232(4) 0.1166(3)
O3 O 0.6456(3) 0.4126(4) 0.0591(3)
O4 O 0.3180(4) 0.4149(4) 0.1393(3)
O5 O 0.1203(4) 0.7343(4) -0.1313(2)
O6 O 0.3289(4) 0.8567(4) -0.1175(2)
O7 O 0.3171(4) 0.2244(4) 0.1174(3)
O8 O 0.0529(4) 0.6909(4) -0.2567(3)
N1 N 0.3526(4) 0.8229(4) 0.0484(3)
N2 N 0.4790(4) 0.9232(4) 0.1287(3)
H1 H 0.5182 0.9816 0.1509
N3 N 0.1439(4) 0.6801(4) 0.0289(3)
N4 N 0.4121(4) 0.7437(4) 0.1046(3)
C1 C 0.5455(5) 0.4295(5) 0.0795(4)
N5 N 0.1933(4) 0.6124(4) 0.0957(3)
C2 C 0.1346(5) 0.7190(5) -0.2048(4)
C3 C 0.1047(5) 0.5701(6) 0.1306(4)
C4 C 0.3965(5) 0.9286(5) 0.0646(4)
N6 N 0.3678(5) 1.0306(4) 0.0244(3)
H2 H 0.3157 1.0301 -0.0165
H3 H 0.4018 1.0959 0.0397
C5 C 0.3243(5) 0.8402(5) -0.1924(4)
N7 N 0.5609(5) 0.7672(6) 0.2123(4)
H4 H 0.5617 0.6931 0.2247
H5 H 0.6073 0.8157 0.2395
C6 C 0.3564(6) 0.3242(6) 0.1072(4)
N8 N 0.1127(5) 0.5054(5) 0.1986(3)
H6 H 0.1797 0.4881 0.2233
H7 H 0.0507 0.4812 0.2173
N9 N 0.0044(4) 0.6053(5) 0.0901(3)
H8 H -0.0642 0.5877 0.1012
C7 C 0.4875(5) 0.8070(6) 0.1511(4)
C8 C 0.2556(5) 0.7343(5) -0.2298(4)
H9 H 0.2489 0.7423 -0.2878
H10 H 0.2996 0.6626 -0.2157
C9 C 0.4542(5) 0.3360(5) 0.0552(4)
H11 H 0.4204 0.3530 0.0007
H12 H 0.4928 0.2597 0.0542
N10 N -0.0497(5) 0.7250(6) -0.0256(4)
H13 H -0.0290 0.7667 -0.0646
H14 H -0.1221 0.7154 -0.0207
C10 C 0.0315(5) 0.6744(6) 0.0278(4)
O9 O 0.1337(4) 0.9547(5) -0.0293(3)
H15 H 0.1276 0.9399 -0.0794
H16 H 0.0863 1.0094 -0.0203
O1C O 0.3772(4) 0.5950(4) 0.2633(3)
Ni1C Ni 0.36150(6) 0.92270(6) -0.38115(5)
Ni2B Ni 0.76082(6) 0.22917(7) 0.04304(4)
O3B O 0.3544(3) 0.5874(4) -0.0591(3)
O10 O 0.0692(6) 0.9786(6) 0.1271(3)
H17 H 0.038(13) 0.938(10) 0.162(5)
H18 H 0.109(9) 1.038(6) 0.147(6)
O11 O 0.1507(6) 0.1765(5) 0.2191(3)
H19 H 0.1147 0.2335 0.1941
H20 H 0.2215 0.1968 0.2291
O12 O 0.7861(5) 0.5955(7) 0.1179(5)
H21 H 0.779(11) 0.634(8) 0.148(5)
loop_
_geom_bond_atom_site_label_1
_geom_bond_atom_site_label_2
_geom_bond_site_symmetry_1
_geom_bond_site_symmetry_2
O1 C5 1_555 1_555
Ni1 O2 1_555 1_555
Ni2 O5 1_555 1_555
O2 C1 1_555 1_555
O3 C1 1_555 1_555
O4 Ni1 1_555 1_555
O5 C2 1_555 1_555
O6 Ni2 1_555 1_555
O7 C6 1_555 1_555
O8 C2 1_555 1_555
N1 Ni2 1_555 1_555
N2 H1 1_555 1_555
N3 Ni2 1_555 1_555
N4 Ni1 1_555 1_555
C1 C9 1_555 1_555
N5 Ni1 1_555 1_555
C2 C8 1_555 1_555
C3 N5 1_555 1_555
C4 N1 1_555 1_555
N6 C4 1_555 1_555
H2 N6 1_555 1_555
H3 N6 1_555 1_555
C5 O6 1_555 1_555
N7 H4 1_555 1_555
H5 N7 1_555 1_555
C6 O4 1_555 1_555
N8 C3 1_555 1_555
H6 N8 1_555 1_555
H7 N8 1_555 1_555
N9 C3 1_555 1_555
H8 N9 1_555 1_555
C7 N2 1_555 1_555
C8 C5 1_555 1_555
H9 C8 1_555 1_555
H10 C8 1_555 1_555
C9 C6 1_555 1_555
H11 C9 1_555 1_555
H12 C9 1_555 1_555
N10 H13 1_555 1_555
H14 N10 1_555 1_555
C10 N3 1_555 1_555
O9 Ni2 1_555 1_555
H15 O9 1_555 1_555
H16 O9 1_555 1_555
O10 H17 1_555 1_555
H18 O10 1_555 1_555
O11 H19 1_555 1_555
H20 O11 1_555 1_555
O12 H21 1_555 1_555
O1C Ni1 1_555 1_555
Ni1C O1 1_555 1_555
Ni2B O3 1_555 1_555
O3B Ni2 1_555 1_555
N1 N4 1_555 1_555
N2 C4 1_555 1_555
N3 N5 1_555 1_555
N4 C7 1_555 1_555
N7 C7 1_555 1_555
N9 C10 1_555 1_555
N10 C10 1_555 1_555

#END
