
#######################################################################
#
#                 Cambridge Crystallographic Data Centre
#                                CCDC 
#
#######################################################################
#
# If this CIF has been generated from an entry in the Cambridge 
# Structural Database, then it will include bibliographic, chemical, 
# crystal, experimental, refinement or atomic coordinate data resulting 
# from the CCDC's data processing and validation procedures.
#
#######################################################################

data_XUVMOQ06
_symmetry_cell_setting           monoclinic
_symmetry_space_group_name_H-M   'C 2/c'
_symmetry_Int_Tables_number      15
_space_group_name_Hall           '-C 2yn'
loop_
_symmetry_equiv_pos_site_id
_symmetry_equiv_pos_as_xyz
1 x,y,z
2 1/2+x,1/2+y,z
3 x,-y,1/2+z
4 1/2+x,1/2-y,1/2+z
5 -x,-y,-z
6 1/2-x,1/2-y,-z
7 -x,y,1/2-z
8 1/2-x,1/2+y,1/2-z
_cell_length_a                   17.384(4)
_cell_length_b                   9.5754(19)
_cell_length_c                   19.522(4)
_cell_angle_alpha                90
_cell_angle_beta                 98.561(8)
_cell_angle_gamma                90
_cell_volume                     3213.4
loop_
_atom_site_label
_atom_site_type_symbol
_atom_site_fract_x
_atom_site_fract_y
_atom_site_fract_z
C1 C -0.0592(3) 0.7728(6) 0.1189(3)
C2 C -0.0987(3) 0.7766(6) 0.0458(3)
C3 C -0.1358(4) 0.6580(6) 0.0155(3)
H1 H -0.1326 0.5723 0.0402
C4 C -0.1774(4) 0.6653(7) -0.0509(3)
H2 H -0.2034 0.5848 -0.0712
C5 C -0.1810(4) 0.7877(7) -0.0871(3)
H3 H -0.2101 0.7918 -0.1323
C6 C -0.1426(4) 0.9063(7) -0.0587(3)
H4 H -0.1441 0.9905 -0.0847
C7 C -0.1020(4) 0.9002(6) 0.0081(3)
H5 H -0.0762 0.9811 0.0282
C8 C 0.1395(3) 0.7703(6) 0.2156(3)
C9 C 0.2162(3) 0.7678(6) 0.1903(3)
C10 C 0.2454(4) 0.6437(6) 0.1690(3)
H6 H 0.2192 0.5583 0.1746
C11 C 0.3137(4) 0.6442(6) 0.1393(3)
H7 H 0.3341 0.5592 0.1245
C12 C 0.3514(4) 0.7693(6) 0.1316(3)
H8 H 0.3967 0.7703 0.1096
C13 C 0.3241(4) 0.8924(6) 0.1554(3)
H9 H 0.3518 0.9769 0.1517
C14 C 0.2567(4) 0.8933(6) 0.1846(3)
H10 H 0.2376 0.9783 0.2008
C15 C 0.0404(3) 1.1981(6) 0.2084(3)
H11 H 0.0694 1.1501 0.1781
C16 C 0.0405(3) 1.3422(6) 0.2089(3)
H12 H 0.0700 1.3910 0.1794
N1 N 0.0000 1.1233(8) 0.2500
N2 N 0.0000 1.4149(8) 0.2500
O1 O -0.0419(2) 0.8890(4) 0.1476(2)
O2 O -0.0465(2) 0.6555(4) 0.1478(2)
O3 O 0.1102(2) 0.8880(4) 0.2263(2)
O4 O 0.1087(2) 0.6524(4) 0.2233(2)
Rh1 Rh 0.0000 0.89592(7) 0.2500
Rh2 Rh 0.0000 1.64598(7) 0.2500
C16F C -0.0405(3) 1.3422(6) 0.2911(3)
C15F C -0.0404(3) 1.1981(6) 0.2916(3)
H11F H -0.0694 1.1501 0.3219
H12F H -0.0700 1.3910 0.3206
C1F C 0.0592(3) 0.7728(6) 0.3811(3)
C2F C 0.0987(3) 0.7766(6) 0.4542(3)
C3F C 0.1358(4) 0.6580(6) 0.4845(3)
H1F H 0.1326 0.5723 0.4598
C4F C 0.1774(4) 0.6653(7) 0.5509(3)
H2F H 0.2034 0.5848 0.5712
C5F C 0.1810(4) 0.7877(7) 0.5871(3)
H3F H 0.2101 0.7918 0.6323
C6F C 0.1426(4) 0.9063(7) 0.5587(3)
H4F H 0.1441 0.9905 0.5847
C7F C 0.1020(4) 0.9002(6) 0.4919(3)
H5F H 0.0762 0.9811 0.4718
O1F O 0.0419(2) 0.8890(4) 0.3524(2)
O2F O 0.0465(2) 0.6555(4) 0.3522(2)
C8F C -0.1395(3) 0.7703(6) 0.2844(3)
C9F C -0.2162(3) 0.7678(6) 0.3097(3)
C10F C -0.2454(4) 0.6437(6) 0.3310(3)
H6F H -0.2192 0.5583 0.3254
C11F C -0.3137(4) 0.6442(6) 0.3607(3)
H7F H -0.3341 0.5592 0.3755
C12F C -0.3514(4) 0.7693(6) 0.3684(3)
H8F H -0.3967 0.7703 0.3904
C13F C -0.3241(4) 0.8924(6) 0.3446(3)
H9F H -0.3518 0.9769 0.3483
C14F C -0.2567(4) 0.8933(6) 0.3154(3)
H10F H -0.2376 0.9783 0.2992
O3F O -0.1102(2) 0.8880(4) 0.2737(2)
O4F O -0.1087(2) 0.6524(4) 0.2767(2)
Rh2_2 Rh 0.0000 0.64598(7) 0.2500
O2_2 O -0.0465(2) 1.6555(4) 0.1478(2)
O2F_2 O 0.0465(2) 1.6555(4) 0.3522(2)
O4_2 O 0.1087(2) 1.6524(4) 0.2233(2)
O4F_2 O -0.1087(2) 1.6524(4) 0.2767(2)
Rh1_2 Rh 0.0000 1.89592(7) 0.2500
loop_
_geom_bond_atom_site_label_1
_geom_bond_atom_site_label_2
_geom_bond_site_symmetry_1
_geom_bond_site_symmetry_2
C1 C2 1_555 1_555
C2 C3 1_555 1_555
C3 H1 1_555 1_555
C4 C3 1_555 1_555
H2 C4 1_555 1_555
C5 C4 1_555 1_555
H3 C5 1_555 1_555
C6 C5 1_555 1_555
H4 C6 1_555 1_555
C7 C2 1_555 1_555
H5 C7 1_555 1_555
C8 C9 1_555 1_555
C9 C10 1_555 1_555
C10 H6 1_555 1_555
C11 C10 1_555 1_555
H7 C11 1_555 1_555
C12 C11 1_555 1_555
H8 C12 1_555 1_555
C13 C12 1_555 1_555
H9 C13 1_555 1_555
C14 C9 1_555 1_555
H10 C14 1_555 1_555
C15 H11 1_555 1_555
C16 C15 1_555 1_555
H12 C16 1_555 1_555
N1 C15 1_555 1_555
N2 C16 1_555 1_555
O1 C1 1_555 1_555
O2 C1 1_555 1_555
O3 C8 1_555 1_555
O4 C8 1_555 1_555
Rh1 N1 1_555 1_555
Rh2 N2 1_555 1_555
C16F N2 1_555 1_555
C15F N1 1_555 1_555
H11F C15F 1_555 1_555
H12F C16F 1_555 1_555
C1F C2F 1_555 1_555
C2F C3F 1_555 1_555
C3F H1F 1_555 1_555
C4F C3F 1_555 1_555
H2F C4F 1_555 1_555
C5F C4F 1_555 1_555
H3F C5F 1_555 1_555
C6F C5F 1_555 1_555
H4F C6F 1_555 1_555
C7F C2F 1_555 1_555
H5F C7F 1_555 1_555
O1F Rh1 1_555 1_555
O2F C1F 1_555 1_555
C8F C9F 1_555 1_555
C9F C10F 1_555 1_555
C10F H6F 1_555 1_555
C11F C10F 1_555 1_555
H7F C11F 1_555 1_555
C12F C11F 1_555 1_555
H8F C12F 1_555 1_555
C13F C12F 1_555 1_555
H9F C13F 1_555 1_555
C14F C9F 1_555 1_555
H10F C14F 1_555 1_555
O3F Rh1 1_555 1_555
O4F C8F 1_555 1_555
Rh2_2 O2 1_555 1_555
O2_2 Rh2 1_555 1_555
O2F_2 Rh2 1_555 1_555
O4_2 Rh2 1_555 1_555
O4F_2 Rh2 1_555 1_555
Rh1_2 Rh2 1_555 1_555
C6 C7 1_555 1_555
C13 C14 1_555 1_555
O1 Rh1 1_555 1_555
O3 Rh1 1_555 1_555
O4 Rh2_2 1_555 1_555
Rh1 Rh2_2 1_555 1_555
C16F C15F 1_555 1_555
C1F O1F 1_555 1_555
C6F C7F 1_555 1_555
O2F Rh2_2 1_555 1_555
C8F O3F 1_555 1_555
C13F C14F 1_555 1_555
O4F Rh2_2 1_555 1_555

#END
