
#######################################################################
#
#                 Cambridge Crystallographic Data Centre
#                                CCDC 
#
#######################################################################
#
# If this CIF has been generated from an entry in the Cambridge 
# Structural Database, then it will include bibliographic, chemical, 
# crystal, experimental, refinement or atomic coordinate data resulting 
# from the CCDC's data processing and validation procedures.
#
#######################################################################

data_XUWHUT
_symmetry_cell_setting           orthorhombic
_symmetry_space_group_name_H-M   'P 21 21 21'
_symmetry_Int_Tables_number      19
_space_group_name_Hall           'P 2ac 2ab'
loop_
_symmetry_equiv_pos_site_id
_symmetry_equiv_pos_as_xyz
1 x,y,z
2 1/2-x,-y,1/2+z
3 1/2+x,1/2-y,-z
4 -x,1/2+y,1/2-z
_cell_length_a                   6.7107(3)
_cell_length_b                   14.8288(5)
_cell_length_c                   31.5966(13)
_cell_angle_alpha                90
_cell_angle_beta                 90
_cell_angle_gamma                90
_cell_volume                     3144.23
loop_
_atom_site_label
_atom_site_type_symbol
_atom_site_fract_x
_atom_site_fract_y
_atom_site_fract_z
Cs1 Cs 0.83037(6) 0.30589(3) -0.025354(13)
V1 V 0.71266(17) 0.72613(8) 0.32856(4)
O1 O 0.5558(7) 0.4714(3) -0.04513(14)
N1 N 0.6392(9) 0.6067(4) -0.01316(19)
C1 C 1.1887(12) 0.9167(4) 0.3163(2)
Cs2 Cs 0.30636(7) 0.34227(3) -0.117960(14)
V2 V 0.36745(16) 0.44765(7) 0.00150(4)
O2 O 0.2430(7) 0.3732(3) -0.02657(15)
N2 N 0.4741(8) 0.5825(4) 0.01068(19)
C2 C 1.3039(12) 0.9043(5) 0.3517(3)
H1 H 1.2639 0.8637 0.3725
O3 O 1.0244(7) 0.3233(3) 0.06825(15)
O4 O 0.5027(7) 0.3917(3) 0.03467(15)
N3 N 0.7275(8) 0.8206(4) 0.27725(17)
C3 C 1.4819(11) 0.9528(6) 0.3567(3)
H2 H 1.5589 0.9444 0.3808
O5 O 0.1420(7) 0.4910(3) 0.03210(14)
N4 N 0.8930(9) 0.8785(4) 0.27661(19)
C4 C 1.5423(12) 1.0114(6) 0.3267(3)
H3 H 1.659(11) 1.040(5) 0.332(2)
O6 O 0.4591(7) 0.6994(4) 0.30536(15)
C5 C 1.4285(13) 1.0233(6) 0.2918(3)
H4 H 1.4715 1.0635 0.2712
O7 O 0.6449(7) 0.7254(3) 0.37840(15)
C6 C 1.2519(12) 0.9783(5) 0.2857(3)
H5 H 1.1758 0.9886 0.2616
O8 O 0.8332(8) 0.6336(3) 0.31893(17)
C7 C 0.9973(11) 0.8645(4) 0.3102(2)
O9 O 0.9448(7) 0.8072(4) 0.34022(15)
C8 C 0.6067(12) 0.8309(5) 0.2456(2)
H6 H 0.615(12) 0.870(5) 0.230(2)
C9 C 0.4300(10) 0.7788(4) 0.2390(2)
C10 C 0.3113(12) 0.7930(4) 0.2031(2)
H7 H 0.342(9) 0.834(4) 0.1852(19)
C11 C 0.1411(10) 0.7463(4) 0.1945(2)
C12 C 0.0853(11) 0.6796(5) 0.2238(2)
H8 H -0.029(12) 0.646(5) 0.224(2)
C13 C 0.1963(11) 0.6625(5) 0.2602(2)
H9 H 0.1569 0.6171 0.2787
C14 C 0.3659(10) 0.7131(4) 0.2690(2)
C15 C 0.0196(12) 0.7629(5) 0.1564(2)
H10 H 0.0530 0.8219 0.1451
H11 H -0.1198 0.7641 0.1644
C16 C 0.0480(10) 0.6929(5) 0.1215(2)
C17 C 0.2122(11) 0.6949(5) 0.0961(2)
H12 H 0.3028 0.7419 0.0993
C18 C 0.2493(11) 0.6304(5) 0.0657(2)
C19 C 0.1120(11) 0.5585(5) 0.0610(2)
C20 C -0.0571(11) 0.5573(5) 0.0853(2)
H13 H -0.1507 0.5118 0.0815
C21 C -0.0896(11) 0.6232(5) 0.1154(2)
H14 H -0.2044 0.6212 0.1319
C22 C 0.4215(11) 0.6405(5) 0.0394(3)
C23 C 0.6719(11) 0.5427(4) -0.0411(2)
C24 C 0.8431(11) 0.5513(4) -0.0698(2)
C25 C 1.0074(11) 0.6035(5) -0.0575(3)
H15 H 1.0085 0.6320 -0.0313
C26 C 1.1715(12) 0.6125(5) -0.0853(3)
H16 H 1.2827 0.6462 -0.0775
C27 C 1.1630(11) 0.5702(5) -0.1243(3)
H17 H 1.2696 0.5761 -0.1429
C28 C 0.9994(12) 0.5191(5) -0.1362(3)
H18 H 0.9970 0.4914 -0.1626
C29 C 0.8402(11) 0.5093(5) -0.1090(2)
H19 H 0.7309 0.4747 -0.1170
Cs1B Cs 1.33037(6) 0.19411(3) 0.025354(13)
Cs1_2 Cs -0.16963(6) 0.30589(3) -0.025354(13)
Cs1B_2 Cs 0.33037(6) 0.19411(3) 0.025354(13)
Cs1A Cs 0.66963(6) 0.69411(3) 0.474646(13)
Cs2B Cs 0.80636(7) 0.15773(3) 0.117960(14)
Cs2A Cs 0.19364(7) 0.65773(3) 0.382040(14)
Cs2A_2 Cs 1.19364(7) 0.65773(3) 0.382040(14)
O2_2 O 1.2430(7) 0.3732(3) -0.02657(15)
O2B O 0.7430(7) 0.1268(3) 0.02657(15)
O3B O 0.5244(7) 0.1767(3) -0.06825(15)
O4B O 1.0027(7) 0.1083(3) -0.03467(15)
O6A O 0.0409(7) 0.3006(4) -0.19464(15)
O7A O 0.8551(7) 0.2746(3) -0.12160(15)
O7A_2 O -0.1449(7) 0.2746(3) -0.12160(15)
O8A O 0.6668(8) 0.3664(3) -0.18107(17)
O9A O 0.5552(7) 0.1928(4) -0.15978(15)
O10 O 1.0301(15) 0.4673(7) 0.3056(3)
loop_
_geom_bond_atom_site_label_1
_geom_bond_atom_site_label_2
_geom_bond_site_symmetry_1
_geom_bond_site_symmetry_2
Cs1 O1 1_555 1_555
V1 N3 1_555 1_555
O1 Cs2 1_555 1_555
N1 N2 1_555 1_555
C1 C2 1_555 1_555
Cs2 O2 1_555 1_555
V2 O1 1_555 1_555
O2 V2 1_555 1_555
N2 V2 1_555 1_555
C2 H1 1_555 1_555
O3 Cs1 1_555 1_555
O4 Cs1 1_555 1_555
N3 N4 1_555 1_555
C3 C2 1_555 1_555
H2 C3 1_555 1_555
O5 V2 1_555 1_555
N4 C7 1_555 1_555
C4 C3 1_555 1_555
H3 C4 1_555 1_555
O6 V1 1_555 1_555
C5 C4 1_555 1_555
H4 C5 1_555 1_555
O7 V1 1_555 1_555
C6 C1 1_555 1_555
H5 C6 1_555 1_555
O8 V1 1_555 1_555
C7 C1 1_555 1_555
O9 V1 1_555 1_555
C8 N3 1_555 1_555
H6 C8 1_555 1_555
C9 C8 1_555 1_555
C10 C9 1_555 1_555
H7 C10 1_555 1_555
C11 C10 1_555 1_555
C12 C11 1_555 1_555
H8 C12 1_555 1_555
C13 C12 1_555 1_555
H9 C13 1_555 1_555
C14 O6 1_555 1_555
C15 C11 1_555 1_555
H10 C15 1_555 1_555
H11 C15 1_555 1_555
C16 C15 1_555 1_555
C17 C16 1_555 1_555
H12 C17 1_555 1_555
C18 C17 1_555 1_555
C19 O5 1_555 1_555
C20 C19 1_555 1_555
H13 C20 1_555 1_555
C21 C16 1_555 1_555
H14 C21 1_555 1_555
C22 N2 1_555 1_555
C23 O1 1_555 1_555
C24 C23 1_555 1_555
C25 C24 1_555 1_555
H15 C25 1_555 1_555
C26 C25 1_555 1_555
H16 C26 1_555 1_555
C27 C26 1_555 1_555
H17 C27 1_555 1_555
C28 C27 1_555 1_555
H18 C28 1_555 1_555
C29 C24 1_555 1_555
H19 C29 1_555 1_555
Cs1B O3 1_555 1_555
Cs1_2 O2 1_555 1_555
Cs1B_2 O2 1_555 1_555
Cs1A O7 1_555 1_555
Cs2B O3 1_555 1_555
Cs2A O6 1_555 1_555
Cs2A_2 O8 1_555 1_555
O2_2 Cs1 1_555 1_555
O2B Cs1 1_555 1_555
O3B Cs1 1_555 1_555
O4B Cs1 1_555 1_555
O6A Cs2 1_555 1_555
O7A Cs1 1_555 1_555
O7A_2 Cs2 1_555 1_555
O8A Cs2 1_555 1_555
O9A Cs2 1_555 1_555
N1 C23 1_555 1_555
Cs2 O3B 1_555 1_555
V2 O4 1_555 1_555
O4 Cs1B_2 1_555 1_555
C5 C6 1_555 1_555
O7 Cs2A 1_555 1_555
C7 O9 1_555 1_555
O9 Cs2A_2 1_555 1_555
C9 C14 1_555 1_555
C13 C14 1_555 1_555
C18 C19 1_555 1_555
C18 C22 1_555 1_555
C20 C21 1_555 1_555
C28 C29 1_555 1_555
Cs1B O2_2 1_555 1_555
Cs1B O4B 1_555 1_555
Cs1_2 O7A_2 1_555 1_555
Cs1B_2 O2B 1_555 1_555
Cs1B_2 O3B 1_555 1_555
Cs2B O2B 1_555 1_555

#END
