
#######################################################################
#
#                 Cambridge Crystallographic Data Centre
#                                CCDC 
#
#######################################################################
#
# If this CIF has been generated from an entry in the Cambridge 
# Structural Database, then it will include bibliographic, chemical, 
# crystal, experimental, refinement or atomic coordinate data resulting 
# from the CCDC's data processing and validation procedures.
#
#######################################################################

data_XUWHAZ
_symmetry_cell_setting           tetragonal
_symmetry_space_group_name_H-M   'I 41/a'
_symmetry_Int_Tables_number      88
_space_group_name_Hall           '-I 4ad'
loop_
_symmetry_equiv_pos_site_id
_symmetry_equiv_pos_as_xyz
1 x,y,z
2 1/2-x,-y,1/2+z
3 3/4-y,1/4+x,1/4+z
4 3/4+y,3/4-x,3/4+z
5 1/2+x,1/2+y,1/2+z
6 -x,1/2-y,z
7 1/4-y,3/4+x,3/4+z
8 1/4+y,1/4-x,1/4+z
9 -x,-y,-z
10 1/2+x,y,1/2-z
11 1/4+y,3/4-x,3/4-z
12 1/4-y,1/4+x,1/4-z
13 1/2-x,1/2-y,1/2-z
14 x,1/2+y,-z
15 3/4+y,1/4-x,1/4-z
16 3/4-y,3/4+x,3/4-z
_cell_length_a                   8.6768(6)
_cell_length_b                   8.6768(6)
_cell_length_c                   17.3688(16)
_cell_angle_alpha                90
_cell_angle_beta                 90
_cell_angle_gamma                90
_cell_volume                     1307.64
loop_
_atom_site_label
_atom_site_type_symbol
_atom_site_fract_x
_atom_site_fract_y
_atom_site_fract_z
Co1 Co 0.5000 0.7500 0.1250
Co2 Co 0.5000 0.5000 0.0000
O1 O 0.5000 0.7500 0.00743(17)
O2 O 0.2772(3) 0.5085(3) 0.03604(15)
O3 O 0.2762(3) 0.6696(3) 0.13593(14)
C1 C 0.0461(5) 0.5329(6) 0.1067(3)
H1 H 0.0098 0.5912 0.1500
H2 H 0.0375 0.4248 0.1176
H3 H -0.0150 0.5575 0.0622
C2 C 0.2110(4) 0.5724(4) 0.0913(2)
Co2G Co 0.7500 0.7500 0.2500
Co2E Co 0.5000 1.0000 0.0000
Co2B Co 0.2500 0.7500 0.2500
O1K O 0.5000 0.7500 0.24257(17)
O1H O 0.5000 0.2500 -0.00743(17)
O1B O 1.0000 0.7500 0.25743(17)
O2E O 0.7228(3) 0.9915(3) 0.03604(15)
O2K O 0.7415(3) 0.5272(3) 0.21396(15)
O2N O 0.2585(3) 0.9728(3) 0.21396(15)
O2H O 0.7228(3) 0.4915(3) -0.03604(15)
O2G O 0.7585(3) 0.9728(3) 0.28604(15)
O3E O 0.7238(3) 0.8304(3) 0.13593(14)
O3K O 0.5804(3) 0.5262(3) 0.11407(14)
O3N O 0.4196(3) 0.9738(3) 0.11407(14)
O3C O 0.4196(3) 0.4738(3) -0.11407(14)
O3I O 0.7762(3) 0.6696(3) 0.36407(14)
C1E C 0.9539(5) 0.9671(6) 0.1067(3)
C1K C 0.7171(6) 0.2961(5) 0.1433(3)
C1N C 0.2829(6) 1.2039(5) 0.1433(3)
H1E H 0.9902 0.9088 0.1500
H1K H 0.6588 0.2598 0.1000
H1N H 0.3412 1.2402 0.1000
H2E H 0.9625 1.0752 0.1176
H2K H 0.8252 0.2875 0.1324
H2N H 0.1748 1.2125 0.1324
H3E H 1.0150 0.9425 0.0622
H3K H 0.6925 0.2350 0.1878
H3N H 0.3075 1.2650 0.1878
C2E C 0.7890(4) 0.9276(4) 0.0913(2)
C2K C 0.6776(4) 0.4610(4) 0.1587(2)
C2N C 0.3224(4) 1.0390(4) 0.1587(2)
loop_
_geom_bond_atom_site_label_1
_geom_bond_atom_site_label_2
_geom_bond_site_symmetry_1
_geom_bond_site_symmetry_2
Co1 O1 1_555 1_555
Co2 O1 1_555 1_555
O1 Co2E 1_555 1_555
O2 Co2 1_555 1_555
O3 Co1 1_555 1_555
C1 H1 1_555 1_555
H2 C1 1_555 1_555
H3 C1 1_555 1_555
C2 O2 1_555 1_555
Co2G O1K 1_555 1_555
Co2E O2E 1_555 1_555
Co2B O3 1_555 1_555
O1K Co1 1_555 1_555
O1H Co2 1_555 1_555
O1B Co2G 1_555 1_555
O2E C2E 1_555 1_555
O2K Co2G 1_555 1_555
O2N Co2B 1_555 1_555
O2H Co2 1_555 1_555
O2G Co2G 1_555 1_555
O3E Co1 1_555 1_555
O3K Co1 1_555 1_555
O3N Co1 1_555 1_555
O3C Co2 1_555 1_555
O3I Co2G 1_555 1_555
C1E H1E 1_555 1_555
C1K H1K 1_555 1_555
C1N H1N 1_555 1_555
H2E C1E 1_555 1_555
H2K C1K 1_555 1_555
H2N C1N 1_555 1_555
H3E C1E 1_555 1_555
H3K C1K 1_555 1_555
H3N C1N 1_555 1_555
C2E O3E 1_555 1_555
C2K O2K 1_555 1_555
C2N O2N 1_555 1_555
Co2 O3K 1_555 1_555
O3 C2 1_555 1_555
C1 C2 1_555 1_555
Co2G O3E 1_555 1_555
Co2E O3N 1_555 1_555
Co2B O1K 1_555 1_555
O3K C2K 1_555 1_555
O3N C2N 1_555 1_555
C1E C2E 1_555 1_555
C1K C2K 1_555 1_555
C1N C2N 1_555 1_555

#END
