
#######################################################################
#
#                 Cambridge Crystallographic Data Centre
#                                CCDC 
#
#######################################################################
#
# If this CIF has been generated from an entry in the Cambridge 
# Structural Database, then it will include bibliographic, chemical, 
# crystal, experimental, refinement or atomic coordinate data resulting 
# from the CCDC's data processing and validation procedures.
#
#######################################################################

data_XUWMOS
_symmetry_cell_setting           triclinic
_symmetry_space_group_name_H-M   'P -1'
_symmetry_Int_Tables_number      2
_space_group_name_Hall           '-P 1'
loop_
_symmetry_equiv_pos_site_id
_symmetry_equiv_pos_as_xyz
1 x,y,z
2 -x,-y,-z
_cell_length_a                   12.571(3)
_cell_length_b                   13.419(3)
_cell_length_c                   13.898(3)
_cell_angle_alpha                95.825(18)
_cell_angle_beta                 108.151(15)
_cell_angle_gamma                109.665(17)
_cell_volume                     2041.33
loop_
_atom_site_label
_atom_site_type_symbol
_atom_site_fract_x
_atom_site_fract_y
_atom_site_fract_z
Ag1 Ag 0.400625(17) 0.359196(18) 0.886469(15)
Ag2 Ag 0.102305(17) 0.111969(16) 0.638945(16)
N1 N 0.51125(19) 0.52305(19) 0.86315(16)
N2 N 0.5676(2) 0.6210(2) 0.93897(17)
N3 N 0.5926(2) 0.65547(19) 0.79781(16)
N4 N 0.6333(3) 0.7110(2) 0.72837(19)
H1 H 0.6185 0.6760 0.6672
H2 H 0.6733 0.7803 0.7468
N5 N 0.40757(18) 0.22426(18) 0.77770(16)
N6 N 0.31561(18) 0.17480(18) 0.67981(16)
N7 N 0.47888(18) 0.1573(2) 0.67536(17)
N8 N 0.5643(2) 0.1306(3) 0.6447(2)
H3 H 0.5435 0.0948 0.5824
H4 H 0.6374 0.1500 0.6884
N9 N -0.00272(19) 0.14564(17) 0.48667(17)
N10 N -0.06026(19) 0.07159(17) 0.39098(17)
N11 N -0.0737(2) 0.22394(18) 0.36737(18)
N12 N -0.1000(3) 0.3067(2) 0.3236(2)
H5 H -0.1391 0.2943 0.2578
H6 H -0.0771 0.3698 0.3627
N13 N 0.09412(18) 0.21984(18) 0.77361(17)
N14 N 0.18846(18) 0.32033(17) 0.82388(16)
N15 N 0.02546(19) 0.32297(19) 0.84313(18)
N16 N -0.0588(2) 0.3533(3) 0.8738(3)
H7 H -0.0356 0.4166 0.9125
H8 H -0.1332 0.3083 0.8537
C1 C 0.6149(2) 0.6983(2) 0.8976(2)
C2 C 0.6793(3) 0.8191(3) 0.9514(3)
H9 H 0.6519 0.8614 0.9040
H10 H 0.6586 0.8323 1.0118
C3 C 0.8156(4) 0.8550(5) 0.9849(6)
H11 H 0.8544 0.9303 1.0206
H12 H 0.8364 0.8453 0.9247
H13 H 0.8425 0.8121 1.0306
C4 C 0.5301(2) 0.5490(2) 0.78079(17)
C5 C 0.4842(3) 0.4699(3) 0.6762(2)
H14 H 0.4471 0.5001 0.6208
H15 H 0.4230 0.4019 0.6749
C6 C 0.5906(3) 0.4485(5) 0.6583(4)
H16 H 0.5608 0.3983 0.5926
H17 H 0.6269 0.4184 0.7131
H18 H 0.6503 0.5157 0.6582
C7 C 0.3616(2) 0.1359(2) 0.62134(17)
C8 C 0.2951(3) 0.0800(2) 0.50654(19)
H19 H 0.3432 0.0467 0.4834
H20 H 0.2181 0.0228 0.4968
C9 C 0.2724(3) 0.1599(3) 0.4416(2)
H21 H 0.2307 0.1226 0.3696
H22 H 0.3486 0.2160 0.4505
H23 H 0.2234 0.1918 0.4634
C10 C 0.5038(2) 0.2131(2) 0.77245(19)
C11 C 0.6261(2) 0.2507(2) 0.8584(2)
H24 H 0.6391 0.3161 0.9052
H25 H 0.6887 0.2690 0.8288
C12 C 0.6380(4) 0.1649(3) 0.9199(3)
H26 H 0.7166 0.1929 0.9748
H27 H 0.6286 0.1011 0.8745
H28 H 0.5761 0.1464 0.9493
C13 C -0.1006(2) 0.1208(2) 0.32164(18)
C14 C -0.1659(3) 0.0709(3) 0.2064(2)
H29 H -0.1561 0.0032 0.1904
H30 H -0.1295 0.1197 0.1682
C15 C -0.3003(3) 0.0488(5) 0.1715(4)
H31 H -0.3393 0.0146 0.0986
H32 H -0.3104 0.1162 0.1836
H33 H -0.3363 0.0017 0.2102
C16 C -0.0111(2) 0.2374(2) 0.4710(2)
C17 C 0.0365(3) 0.3426(2) 0.5513(3)
H34 H 0.0783 0.4029 0.5260
H35 H 0.0943 0.3397 0.6152
C18 C -0.0704(3) 0.3610(4) 0.5736(4)
H36 H -0.0394 0.4288 0.6232
H37 H -0.1095 0.3027 0.6013
H38 H -0.1281 0.3627 0.5101
C19 C -0.0017(2) 0.2237(2) 0.7857(2)
C20 C -0.1269(3) 0.1316(3) 0.7454(3)
H39 H -0.1384 0.0858 0.6813
H40 H -0.1888 0.1617 0.7302
C21 C -0.1414(4) 0.0624(3) 0.8257(3)
H41 H -0.2210 0.0054 0.7987
H42 H -0.1308 0.1075 0.8890
H43 H -0.0813 0.0312 0.8396
C22 C 0.1436(2) 0.37918(18) 0.8651(2)
C23 C 0.2140(3) 0.4970(2) 0.9227(2)
H44 H 0.2907 0.5048 0.9743
H45 H 0.1683 0.5197 0.9587
C24 C 0.2382(3) 0.5691(2) 0.8485(2)
H46 H 0.2819 0.6435 0.8866
H47 H 0.1623 0.5615 0.7974
H48 H 0.2856 0.5481 0.8144
Ag1A Ag -0.400625(17) -0.359196(18) 0.113531(15)
Ag1_2 Ag -0.599375(17) -0.640804(18) -0.113531(15)
Ag1A_2 Ag 0.599375(17) 0.640804(18) 1.113531(15)
Ag2A Ag -0.102305(17) -0.111969(16) 0.361055(16)
N1A N -0.51125(19) -0.52305(19) 0.13685(16)
N2A N -0.5676(2) -0.6210(2) 0.06103(17)
N2_2 N -0.4324(2) -0.3790(2) -0.06103(17)
N2A_2 N 0.4324(2) 0.3790(2) 1.06103(17)
N3A N -0.5926(2) -0.65547(19) 0.20219(16)
N4A N -0.6333(3) -0.7110(2) 0.27163(19)
H1A H -0.6185 -0.6760 0.3328
H2A H -0.6733 -0.7803 0.2532
N5A N -0.40757(18) -0.22426(18) 0.22230(16)
N6A N -0.31561(18) -0.17480(18) 0.32019(16)
N7A N -0.47888(18) -0.1573(2) 0.32464(17)
N8A N -0.5643(2) -0.1306(3) 0.3553(2)
H3A H -0.5435 -0.0948 0.4176
H4A H -0.6374 -0.1500 0.3116
N9A N 0.00272(19) -0.14564(17) 0.51333(17)
N10A N 0.06026(19) -0.07159(17) 0.60902(17)
N11A N 0.0737(2) -0.22394(18) 0.63263(18)
N12A N 0.1000(3) -0.3067(2) 0.6764(2)
H5A H 0.1391 -0.2943 0.7422
H6A H 0.0771 -0.3698 0.6373
N13A N -0.09412(18) -0.21984(18) 0.22639(17)
N14A N -0.18846(18) -0.32033(17) 0.17612(16)
N15A N -0.02546(19) -0.32297(19) 0.15687(18)
N16A N 0.0588(2) -0.3533(3) 0.1262(3)
H7A H 0.0356 -0.4166 0.0875
H8A H 0.1332 -0.3083 0.1463
C1A C -0.6149(2) -0.6983(2) 0.1024(2)
C2A C -0.6793(3) -0.8191(3) 0.0486(3)
H9A H -0.6519 -0.8614 0.0960
H10A H -0.6586 -0.8323 -0.0118
C3A C -0.8156(4) -0.8550(5) 0.0151(6)
H11A H -0.8544 -0.9303 -0.0206
H12A H -0.8364 -0.8453 0.0753
H13A H -0.8425 -0.8121 -0.0306
C4A C -0.5301(2) -0.5490(2) 0.21921(17)
C5A C -0.4842(3) -0.4699(3) 0.3238(2)
H14A H -0.4471 -0.5001 0.3792
H15A H -0.4230 -0.4019 0.3251
C6A C -0.5906(3) -0.4485(5) 0.3417(4)
H16A H -0.5608 -0.3983 0.4074
H17A H -0.6269 -0.4184 0.2869
H18A H -0.6503 -0.5157 0.3418
C7A C -0.3616(2) -0.1359(2) 0.37866(17)
C8A C -0.2951(3) -0.0800(2) 0.49346(19)
H19A H -0.3432 -0.0467 0.5166
H20A H -0.2181 -0.0228 0.5032
C9A C -0.2724(3) -0.1599(3) 0.5584(2)
H21A H -0.2307 -0.1226 0.6304
H22A H -0.3486 -0.2160 0.5495
H23A H -0.2234 -0.1918 0.5366
C10A C -0.5038(2) -0.2131(2) 0.22755(19)
C11A C -0.6261(2) -0.2507(2) 0.1416(2)
H24A H -0.6391 -0.3161 0.0948
H25A H -0.6887 -0.2690 0.1712
C12A C -0.6380(4) -0.1649(3) 0.0801(3)
H26A H -0.7166 -0.1929 0.0252
H27A H -0.6286 -0.1011 0.1255
H28A H -0.5761 -0.1464 0.0507
C13A C 0.1006(2) -0.1208(2) 0.67836(18)
C14A C 0.1659(3) -0.0709(3) 0.7936(2)
H29A H 0.1561 -0.0032 0.8096
H30A H 0.1295 -0.1197 0.8318
C15A C 0.3003(3) -0.0488(5) 0.8285(4)
H31A H 0.3393 -0.0146 0.9014
H32A H 0.3104 -0.1162 0.8164
H33A H 0.3363 -0.0017 0.7898
C16A C 0.0111(2) -0.2374(2) 0.5290(2)
C17A C -0.0365(3) -0.3426(2) 0.4487(3)
H34A H -0.0783 -0.4029 0.4740
H35A H -0.0943 -0.3397 0.3848
C18A C 0.0704(3) -0.3610(4) 0.4264(4)
H36A H 0.0394 -0.4288 0.3768
H37A H 0.1095 -0.3027 0.3987
H38A H 0.1281 -0.3627 0.4899
C19A C 0.0017(2) -0.2237(2) 0.2143(2)
C20A C 0.1269(3) -0.1316(3) 0.2546(3)
H39A H 0.1384 -0.0858 0.3187
H40A H 0.1888 -0.1617 0.2698
C21A C 0.1414(4) -0.0624(3) 0.1743(3)
H41A H 0.2210 -0.0054 0.2013
H42A H 0.1308 -0.1075 0.1110
H43A H 0.0813 -0.0312 0.1604
C22A C -0.1436(2) -0.37918(18) 0.1349(2)
C23A C -0.2140(3) -0.4970(2) 0.0773(2)
H44A H -0.2907 -0.5048 0.0257
H45A H -0.1683 -0.5197 0.0413
C24A C -0.2382(3) -0.5691(2) 0.1515(2)
H46A H -0.2819 -0.6435 0.1134
H47A H -0.1623 -0.5615 0.2026
H48A H -0.2856 -0.5481 0.1856
Cl1 Cl 0.40647(13) 0.82159(14) 0.62381(12)
O1 O 0.3679(4) 0.7505(3) 0.6857(3)
O2 O 0.4118(3) 0.7590(3) 0.5385(3)
O3 O 0.3270(3) 0.8734(3) 0.5918(4)
O4 O 0.5257(3) 0.8994(3) 0.6855(4)
Cl2 Cl 0.92100(14) 0.64103(15) 0.84722(15)
O5 O 0.8420(3) 0.6194(4) 0.9002(3)
O6 O 0.8863(4) 0.7026(3) 0.7738(3)
O7 O 1.0420(3) 0.7063(4) 0.9160(4)
O8 O 0.9196(4) 0.5477(3) 0.7913(4)
Cl3? Cl 0.3878(3) 0.8286(3) 0.6368(3)
Cl4? Cl 0.8938(2) 0.6390(3) 0.8439(2)
O9? O 0.5092(3) 0.8736(5) 0.6451(4)
O10? O 0.3562(6) 0.7235(2) 0.6531(4)
O11? O 0.3663(4) 0.8952(4) 0.7079(3)
O12? O 0.3115(5) 0.8255(5) 0.5350(3)
O13? O 0.8640(5) 0.6598(4) 0.7449(2)
O14? O 0.8048(4) 0.5398(3) 0.8440(4)
O15? O 0.8966(4) 0.7217(3) 0.9163(3)
O16? O 1.0067(3) 0.6284(4) 0.8731(5)
loop_
_geom_bond_atom_site_label_1
_geom_bond_atom_site_label_2
_geom_bond_site_symmetry_1
_geom_bond_site_symmetry_2
Ag1 N1 1_555 1_555
Ag2 N6 1_555 1_555
N1 N2 1_555 1_555
N2 C1 1_555 1_555
N3 N4 1_555 1_555
N4 H1 1_555 1_555
H2 N4 1_555 1_555
N5 Ag1 1_555 1_555
N6 N5 1_555 1_555
N7 N8 1_555 1_555
N8 H3 1_555 1_555
H4 N8 1_555 1_555
N9 Ag2 1_555 1_555
N10 N9 1_555 1_555
N11 N12 1_555 1_555
N12 H5 1_555 1_555
H6 N12 1_555 1_555
N13 Ag2 1_555 1_555
N14 Ag1 1_555 1_555
N15 N16 1_555 1_555
N16 H7 1_555 1_555
H8 N16 1_555 1_555
C1 N3 1_555 1_555
C2 C1 1_555 1_555
H9 C2 1_555 1_555
H10 C2 1_555 1_555
C3 C2 1_555 1_555
H11 C3 1_555 1_555
H12 C3 1_555 1_555
H13 C3 1_555 1_555
C4 N1 1_555 1_555
C5 C4 1_555 1_555
H14 C5 1_555 1_555
H15 C5 1_555 1_555
C6 C5 1_555 1_555
H16 C6 1_555 1_555
H17 C6 1_555 1_555
H18 C6 1_555 1_555
C7 N6 1_555 1_555
C8 C7 1_555 1_555
H19 C8 1_555 1_555
H20 C8 1_555 1_555
C9 C8 1_555 1_555
H21 C9 1_555 1_555
H22 C9 1_555 1_555
H23 C9 1_555 1_555
C10 N5 1_555 1_555
C11 C10 1_555 1_555
H24 C11 1_555 1_555
H25 C11 1_555 1_555
C12 C11 1_555 1_555
H26 C12 1_555 1_555
H27 C12 1_555 1_555
H28 C12 1_555 1_555
C13 N10 1_555 1_555
C14 C13 1_555 1_555
H29 C14 1_555 1_555
H30 C14 1_555 1_555
C15 C14 1_555 1_555
H31 C15 1_555 1_555
H32 C15 1_555 1_555
H33 C15 1_555 1_555
C16 N9 1_555 1_555
C17 C16 1_555 1_555
H34 C17 1_555 1_555
H35 C17 1_555 1_555
C18 C17 1_555 1_555
H36 C18 1_555 1_555
H37 C18 1_555 1_555
H38 C18 1_555 1_555
C19 N13 1_555 1_555
C20 C19 1_555 1_555
H39 C20 1_555 1_555
H40 C20 1_555 1_555
C21 C20 1_555 1_555
H41 C21 1_555 1_555
H42 C21 1_555 1_555
H43 C21 1_555 1_555
C22 N14 1_555 1_555
C23 C22 1_555 1_555
H44 C23 1_555 1_555
H45 C23 1_555 1_555
C24 C23 1_555 1_555
H46 C24 1_555 1_555
H47 C24 1_555 1_555
H48 C24 1_555 1_555
Cl1 O1 1_555 1_555
O2 Cl1 1_555 1_555
O3 Cl1 1_555 1_555
O4 Cl1 1_555 1_555
Cl2 O5 1_555 1_555
O6 Cl2 1_555 1_555
O7 Cl2 1_555 1_555
O8 Cl2 1_555 1_555
Ag1A N1A 1_555 1_555
Ag1_2 N2A 1_555 1_555
Ag1A_2 N2 1_555 1_555
Ag2A N10 1_555 1_555
N1A N2A 1_555 1_555
N2A C1A 1_555 1_555
N2_2 Ag1A 1_555 1_555
N2A_2 Ag1 1_555 1_555
N3A N4A 1_555 1_555
N4A H1A 1_555 1_555
H2A N4A 1_555 1_555
N5A Ag1A 1_555 1_555
N6A Ag2A 1_555 1_555
N7A N8A 1_555 1_555
N8A H3A 1_555 1_555
H4A N8A 1_555 1_555
N9A Ag2A 1_555 1_555
N10A Ag2 1_555 1_555
N11A N12A 1_555 1_555
N12A H5A 1_555 1_555
H6A N12A 1_555 1_555
N13A Ag2A 1_555 1_555
N14A Ag1A 1_555 1_555
N15A N16A 1_555 1_555
N16A H7A 1_555 1_555
H8A N16A 1_555 1_555
C1A N3A 1_555 1_555
C2A C1A 1_555 1_555
H9A C2A 1_555 1_555
H10A C2A 1_555 1_555
C3A C2A 1_555 1_555
H11A C3A 1_555 1_555
H12A C3A 1_555 1_555
H13A C3A 1_555 1_555
C4A N1A 1_555 1_555
C5A C4A 1_555 1_555
H14A C5A 1_555 1_555
H15A C5A 1_555 1_555
C6A C5A 1_555 1_555
H16A C6A 1_555 1_555
H17A C6A 1_555 1_555
H18A C6A 1_555 1_555
C7A N6A 1_555 1_555
C8A C7A 1_555 1_555
H19A C8A 1_555 1_555
H20A C8A 1_555 1_555
C9A C8A 1_555 1_555
H21A C9A 1_555 1_555
H22A C9A 1_555 1_555
H23A C9A 1_555 1_555
C10A N5A 1_555 1_555
C11A C10A 1_555 1_555
H24A C11A 1_555 1_555
H25A C11A 1_555 1_555
C12A C11A 1_555 1_555
H26A C12A 1_555 1_555
H27A C12A 1_555 1_555
H28A C12A 1_555 1_555
C13A N10A 1_555 1_555
C14A C13A 1_555 1_555
H29A C14A 1_555 1_555
H30A C14A 1_555 1_555
C15A C14A 1_555 1_555
H31A C15A 1_555 1_555
H32A C15A 1_555 1_555
H33A C15A 1_555 1_555
C16A N9A 1_555 1_555
C17A C16A 1_555 1_555
H34A C17A 1_555 1_555
H35A C17A 1_555 1_555
C18A C17A 1_555 1_555
H36A C18A 1_555 1_555
H37A C18A 1_555 1_555
H38A C18A 1_555 1_555
C19A N13A 1_555 1_555
C20A C19A 1_555 1_555
H39A C20A 1_555 1_555
H40A C20A 1_555 1_555
C21A C20A 1_555 1_555
H41A C21A 1_555 1_555
H42A C21A 1_555 1_555
H43A C21A 1_555 1_555
C22A N14A 1_555 1_555
C23A C22A 1_555 1_555
H44A C23A 1_555 1_555
H45A C23A 1_555 1_555
C24A C23A 1_555 1_555
H46A C24A 1_555 1_555
H47A C24A 1_555 1_555
H48A C24A 1_555 1_555
N3 C4 1_555 1_555
N7 C7 1_555 1_555
N7 C10 1_555 1_555
N11 C13 1_555 1_555
N11 C16 1_555 1_555
N13 N14 1_555 1_555
N15 C19 1_555 1_555
N15 C22 1_555 1_555
N3A C4A 1_555 1_555
N5A N6A 1_555 1_555
N7A C7A 1_555 1_555
N7A C10A 1_555 1_555
N9A N10A 1_555 1_555
N11A C13A 1_555 1_555
N11A C16A 1_555 1_555
N13A N14A 1_555 1_555
N15A C19A 1_555 1_555
N15A C22A 1_555 1_555

#END
