
#######################################################################
#
#                 Cambridge Crystallographic Data Centre
#                                CCDC 
#
#######################################################################
#
# If this CIF has been generated from an entry in the Cambridge 
# Structural Database, then it will include bibliographic, chemical, 
# crystal, experimental, refinement or atomic coordinate data resulting 
# from the CCDC's data processing and validation procedures.
#
#######################################################################

data_XUWQUC
_symmetry_cell_setting           monoclinic
_symmetry_space_group_name_H-M   'C 2/c'
_symmetry_Int_Tables_number      15
_space_group_name_Hall           '-C 2yn'
loop_
_symmetry_equiv_pos_site_id
_symmetry_equiv_pos_as_xyz
1 x,y,z
2 -x,y,1/2-z
3 1/2+x,1/2+y,z
4 1/2-x,1/2+y,1/2-z
5 -x,-y,-z
6 x,-y,1/2+z
7 1/2-x,1/2-y,-z
8 1/2+x,1/2-y,1/2+z
_cell_length_a                   15.673(5)
_cell_length_b                   8.987(3)
_cell_length_c                   18.129(8)
_cell_angle_alpha                90
_cell_angle_beta                 108.267(5)
_cell_angle_gamma                90
_cell_volume                     2424.85
loop_
_atom_site_label
_atom_site_type_symbol
_atom_site_fract_x
_atom_site_fract_y
_atom_site_fract_z
Zn1 Zn 0.0000 0.21839(6) 0.2500
Cl1 Cl -0.16989(9) 0.28847(14) 0.39252(7)
Cl2 Cl -0.19727(7) 0.51000(16) 0.49963(6)
O1 O 0.0419(3) 0.1679(4) 0.4135(2)
O2 O 0.00878(18) 0.3555(3) 0.33361(14)
N1 N 0.0000 -0.0132(4) 0.2500
N2 N 0.1595(2) 0.2216(3) 0.29735(18)
C1 C 0.0605(3) -0.0888(4) 0.3136(2)
H1 H 0.0993 -0.0348 0.3541
C2 C 0.0623(4) -0.2418(5) 0.3155(3)
H2 H 0.1013 -0.2939 0.3567
C3 C 0.0000 -0.3176(7) 0.2500
H3 H 0.0000 -0.4211 0.2500
C4 C 0.2063(3) 0.1268(5) 0.2749(2)
H4 H 0.1779 0.0505 0.2415
C5 C 0.3047(3) 0.1368(6) 0.3011(3)
H5 H 0.3351 0.0638 0.2829
C6 C 0.3585(3) 0.2461(6) 0.3513(3)
H6 H 0.4210 0.2470 0.3660
C7 C 0.3120(4) 0.3443(6) 0.3746(3)
H7 H 0.3396 0.4211 0.4078
C8 C 0.2132(3) 0.3291(5) 0.3461(2)
H8 H 0.1819 0.4022 0.3633
C9 C 0.0226(3) 0.2960(4) 0.3953(2)
C10 C -0.0864(3) 0.5027(4) 0.5017(2)
C11 C 0.0117(3) 0.4024(4) 0.45031(18)
C12 C -0.0747(3) 0.4059(4) 0.4527(2)
Zn1D Zn 0.0000 0.78161(6) 0.7500
Cl1D Cl 0.16989(9) 0.71153(14) 0.60748(7)
Cl2D Cl 0.19727(7) 0.49000(16) 0.50037(6)
O1D O -0.0419(3) 0.8321(4) 0.5865(2)
O2D O -0.00878(18) 0.6445(3) 0.66639(14)
O2A O -0.00878(18) 0.3555(3) 0.16639(14)
N2A N -0.1595(2) 0.2216(3) 0.20265(18)
C1A C -0.0605(3) -0.0888(4) 0.1864(2)
H1A H -0.0993 -0.0348 0.1459
C2A C -0.0623(4) -0.2418(5) 0.1845(3)
H2A H -0.1013 -0.2939 0.1433
C4A C -0.2063(3) 0.1268(5) 0.2251(2)
H4A H -0.1779 0.0505 0.2585
C5A C -0.3047(3) 0.1368(6) 0.1989(3)
H5A H -0.3351 0.0638 0.2171
C6A C -0.3585(3) 0.2461(6) 0.1487(3)
H6A H -0.4210 0.2470 0.1340
C7A C -0.3120(4) 0.3443(6) 0.1254(3)
H7A H -0.3396 0.4211 0.0922
C8A C -0.2132(3) 0.3291(5) 0.1539(2)
H8A H -0.1819 0.4022 0.1367
C9D C -0.0226(3) 0.7040(4) 0.6047(2)
C10D C 0.0864(3) 0.4973(4) 0.4983(2)
C11D C -0.0117(3) 0.5976(4) 0.54969(18)
C12D C 0.0747(3) 0.5941(4) 0.5473(2)
loop_
_geom_bond_atom_site_label_1
_geom_bond_atom_site_label_2
_geom_bond_site_symmetry_1
_geom_bond_site_symmetry_2
Zn1 O2 1_555 1_555
Cl1 C12 1_555 1_555
Cl2 C10 1_555 1_555
O1 C9 1_555 1_555
O2 C9 1_555 1_555
N1 Zn1 1_555 1_555
N2 Zn1 1_555 1_555
C1 N1 1_555 1_555
H1 C1 1_555 1_555
C2 C1 1_555 1_555
H2 C2 1_555 1_555
C3 C2 1_555 1_555
H3 C3 1_555 1_555
C4 N2 1_555 1_555
H4 C4 1_555 1_555
C5 C4 1_555 1_555
H5 C5 1_555 1_555
C6 C5 1_555 1_555
H6 C6 1_555 1_555
C7 C6 1_555 1_555
H7 C7 1_555 1_555
C8 N2 1_555 1_555
H8 C8 1_555 1_555
C9 C11 1_555 1_555
C10 C12 1_555 1_555
C11 C12 1_555 1_555
Zn1D O2D 1_555 1_555
Cl1D C12D 1_555 1_555
Cl2D C10D 1_555 1_555
O1D C9D 1_555 1_555
O2D C9D 1_555 1_555
O2A Zn1 1_555 1_555
N2A Zn1 1_555 1_555
C1A N1 1_555 1_555
H1A C1A 1_555 1_555
C2A C3 1_555 1_555
H2A C2A 1_555 1_555
C4A N2A 1_555 1_555
H4A C4A 1_555 1_555
C5A C4A 1_555 1_555
H5A C5A 1_555 1_555
C6A C5A 1_555 1_555
H6A C6A 1_555 1_555
C7A C6A 1_555 1_555
H7A C7A 1_555 1_555
C8A N2A 1_555 1_555
H8A C8A 1_555 1_555
C9D C11D 1_555 1_555
C10D C11 1_555 1_555
C11D C10 1_555 1_555
C12D C10D 1_555 1_555
C7 C8 1_555 1_555
C1A C2A 1_555 1_555
C7A C8A 1_555 1_555
C11D C12D 1_555 1_555

#END
