
#######################################################################
#
#                 Cambridge Crystallographic Data Centre
#                                CCDC 
#
#######################################################################
#
# If this CIF has been generated from an entry in the Cambridge 
# Structural Database, then it will include bibliographic, chemical, 
# crystal, experimental, refinement or atomic coordinate data resulting 
# from the CCDC's data processing and validation procedures.
#
#######################################################################

data_XUWREN
_symmetry_cell_setting           monoclinic
_symmetry_space_group_name_H-M   'P 21/c'
_symmetry_Int_Tables_number      14
_space_group_name_Hall           '-P 2ybc'
loop_
_symmetry_equiv_pos_site_id
_symmetry_equiv_pos_as_xyz
1 x,y,z
2 -x,1/2+y,1/2-z
3 -x,-y,-z
4 x,1/2-y,1/2+z
_cell_length_a                   12.901(3)
_cell_length_b                   20.392(4)
_cell_length_c                   15.568(3)
_cell_angle_alpha                90
_cell_angle_beta                 109.02(3)
_cell_angle_gamma                90
_cell_volume                     3871.99
loop_
_atom_site_label
_atom_site_type_symbol
_atom_site_fract_x
_atom_site_fract_y
_atom_site_fract_z
Mn1 Mn 0.77896(5) 0.45180(3) 1.33869(4)
Mn2 Mn 0.35277(5) 0.44584(3) 0.81028(4)
Mn3 Mn 0.44475(5) 0.51522(4) 0.63424(4)
Mn4 Mn 0.5000 0.5000 1.0000
Mn5 Mn 1.0000 0.5000 1.5000
O1 O 0.6629(3) 0.52851(16) 1.3138(2)
O2 O 0.9060(3) 0.51677(16) 1.3483(2)
O3 O 1.0254(3) 0.40408(16) 1.4872(2)
O4 O 0.4954(3) 0.39989(17) 1.0131(2)
O5 O 0.6385(3) 0.40067(17) 1.3410(2)
O6 O 0.8119(3) 0.58242(17) 1.2339(2)
O7 O 0.4036(3) 0.36263(17) 0.8740(2)
O8 O 0.5242(3) 0.48642(17) 0.8720(2)
O9 O 0.5047(4) 0.3281(2) 1.3231(3)
C1 C 0.9989(4) 0.6045(2) 1.3035(3)
C2 C 0.9658(4) 0.3616(2) 1.4329(3)
C3 C 1.1008(4) 0.5751(3) 1.3191(3)
C4 C 1.1121(4) 0.5018(3) 1.3109(3)
O10 O 0.5324(3) 0.5766(2) 0.5746(3)
C5 C 0.8973(4) 0.5652(2) 1.2936(3)
C6 C 0.7691(4) 0.5192(3) 0.9627(3)
O11 O 0.5666(3) 0.5270(2) 0.7550(2)
O12 O 0.5299(4) 0.4309(3) 0.6138(3)
C7 C 0.6852(4) 0.5535(2) 0.8982(3)
C8 C 0.4577(4) 0.3549(2) 0.9569(4)
C9 C 0.7683(4) 0.4459(3) 0.9695(3)
C10 C 0.5850(4) 0.5202(2) 0.8376(3)
C11 C 1.1931(4) 0.6144(3) 1.3331(4)
H1 H 1.2616 0.5953 1.3437
C12 C 0.5918(4) 0.3454(3) 1.3103(3)
C13 C 1.1797(4) 0.4654(2) 1.3830(3)
C14 C 1.0809(6) 0.4054(3) 1.2172(4)
H2 H 1.0462 0.3853 1.1616
C15 C 0.8640(6) 0.6228(3) 1.0101(5)
H3 H 0.9218 0.6463 1.0497
C16 C 0.6943(5) 0.6198(3) 0.8892(4)
H4 H 0.6398 0.6422 0.8447
C17 C 0.7832(5) 0.6539(3) 0.9453(5)
H5 H 0.7873 0.6991 0.9384
C18 C 1.0636(5) 0.4698(3) 1.2293(4)
H6 H 1.0174 0.4934 1.1807
C19 C 0.7867(5) 0.4095(3) 0.8999(4)
H7 H 0.7954 0.4309 0.8499
C20 C 1.1990(4) 0.3993(3) 1.3712(4)
H8 H 1.2447 0.3753 1.4194
C21 C 1.0822(5) 0.7109(3) 1.3128(4)
H9 H 1.0761 0.7564 1.3098
C22 C 0.9897(4) 0.6718(3) 1.2987(4)
H10 H 0.9212 0.6912 1.2859
C23 C 1.0087(5) 0.2928(2) 1.4413(4)
H11 H 0.9570 0.2654 1.3979
H12 H 1.0192 0.2769 1.5016
H13 H 1.0774 0.2922 1.4298
C24 C 1.1509(5) 0.3696(3) 1.2886(4)
H14 H 1.1652 0.3257 1.2806
C25 C 0.8591(5) 0.5543(3) 1.0164(4)
H15 H 0.9173 0.5320 1.0574
C26 C 1.1825(5) 0.6812(3) 1.3311(4)
H16 H 1.2448 0.7071 1.3426
C27 C 0.4726(7) 0.2854(3) 0.9902(4)
H17 H 0.5144 0.2848 1.0538
H18 H 0.5107 0.2610 0.9571
H19 H 0.4021 0.2659 0.9812
C28 C 0.7920(7) 0.3417(3) 0.9050(5)
H20 H 0.8009 0.3176 0.8572
C29 C 0.6426(6) 0.3048(3) 1.2576(5)
H21 H 0.6004 0.2655 1.2386
H22 H 0.6449 0.3287 1.2052
H23 H 0.7159 0.2936 1.2946
C30 C 0.7842(7) 0.3101(3) 0.9809(5)
H24 H 0.7898 0.2646 0.9847
C31 C 0.7683(5) 0.3446(3) 1.0503(4)
H25 H 0.7643 0.3227 1.1015
C32 C 0.7580(4) 0.4127(3) 1.0453(3)
C33 C 0.7285(4) 0.4474(2) 1.1180(3)
O13 O 0.7656(3) 0.42891(17) 1.1974(2)
O14 O 0.6636(3) 0.49688(16) 1.0924(2)
C34 C 1.2315(4) 0.4959(2) 1.4747(3)
O15 O 1.1696(3) 0.51902(16) 1.5168(2)
O16 O 1.3338(3) 0.49607(18) 1.5048(2)
O17 O 0.8763(3) 0.37220(17) 1.3739(2)
H26 H 0.687(5) 0.558(2) 1.350(3)
H27 H 0.578(4) 0.549(2) 0.579(4)
H28 H 0.528(5) 0.6112(16) 0.598(4)
H29 H 0.512(5) 0.429(3) 0.5596(9)
H30 H 0.489(5) 0.402(2) 0.618(5)
Mn1B Mn 0.22104(5) 0.54820(3) 0.66131(4)
Mn1B_2 Mn 1.22104(5) 0.54820(3) 1.66131(4)
Mn2B Mn 0.64723(5) 0.55416(3) 1.18972(4)
Mn2_2 Mn 1.35277(5) 0.44584(3) 1.81028(4)
Mn3B Mn 0.55525(5) 0.48478(4) 1.36576(4)
Mn3_2 Mn 1.44475(5) 0.51522(4) 1.63424(4)
Mn5_2 Mn 0.0000 0.5000 0.5000
O1B O 0.3371(3) 0.47149(16) 0.6862(2)
O2B O 1.0940(3) 0.48323(16) 1.6517(2)
O2B_2 O 0.0940(3) 0.48323(16) 0.6517(2)
O3B O -0.0254(3) 0.59592(16) 0.5128(2)
O3B_2 O 0.9746(3) 0.59592(16) 1.5128(2)
O4B O 0.5046(3) 0.60011(17) 0.9869(2)
O5B O 0.3615(3) 0.59933(17) 0.6590(2)
O6B O 1.1881(3) 0.41758(17) 1.7661(2)
O6B_2 O 0.1881(3) 0.41758(17) 0.7661(2)
O7B O 0.5964(3) 0.63737(17) 1.1260(2)
O8B O 0.4758(3) 0.51358(17) 1.1280(2)
O9B O 0.4953(4) 0.6719(2) 0.6769(3)
C1B C 1.0011(4) 0.3955(2) 1.6965(3)
C2B C 0.0342(4) 0.6384(2) 0.5671(3)
C3B C 0.8992(4) 0.4249(3) 1.6809(3)
C4B C 0.8879(4) 0.4982(3) 1.6891(3)
O10B O 0.4676(3) 0.4234(2) 1.4254(3)
C5B C 1.1027(4) 0.4348(2) 1.7064(3)
C6B C 0.2309(4) 0.4808(3) 1.0373(3)
O11B O 0.4334(3) 0.4730(2) 1.2450(2)
O12B O 0.4701(4) 0.5691(3) 1.3862(3)
C7B C 0.3148(4) 0.4465(2) 1.1018(3)
C8B C 0.5423(4) 0.6451(2) 1.0431(4)
C9B C 0.2317(4) 0.5541(3) 1.0305(3)
C10B C 0.4150(4) 0.4798(2) 1.1624(3)
C11B C 0.8069(4) 0.3856(3) 1.6669(4)
H1B H 0.7384 0.4047 1.6563
C12B C 0.4082(4) 0.6546(3) 0.6897(3)
C13B C 0.8203(4) 0.5346(2) 1.6170(3)
C14B C 0.9191(6) 0.5946(3) 1.7828(4)
H2B H 0.9538 0.6147 1.8384
C15B C 0.1360(6) 0.3772(3) 0.9899(5)
H3B H 0.0782 0.3537 0.9503
C16B C 0.3057(5) 0.3802(3) 1.1108(4)
H4B H 0.3602 0.3578 1.1553
C17B C 0.2168(5) 0.3461(3) 1.0547(5)
H5B H 0.2127 0.3009 1.0616
C18B C 0.9364(5) 0.5302(3) 1.7707(4)
H6B H 0.9826 0.5066 1.8193
C19B C 0.2133(5) 0.5905(3) 1.1001(4)
H7B H 0.2046 0.5691 1.1501
C20B C 0.8010(4) 0.6007(3) 1.6288(4)
H8B H 0.7553 0.6247 1.5806
C21B C 0.9178(5) 0.2891(3) 1.6872(4)
H9B H 0.9239 0.2436 1.6902
C22B C 1.0103(4) 0.3282(3) 1.7013(4)
H10B H 1.0788 0.3088 1.7141
C23B C -0.0087(5) 0.7072(2) 0.5587(4)
H11B H 0.0430 0.7346 0.6021
H12B H -0.0192 0.7231 0.4984
H13B H -0.0774 0.7078 0.5702
C24B C 0.8491(5) 0.6304(3) 1.7114(4)
H14B H 0.8348 0.6743 1.7194
C25B C 0.1409(5) 0.4457(3) 0.9836(4)
H15B H 0.0827 0.4680 0.9426
C26B C 0.8175(5) 0.3188(3) 1.6689(4)
H16B H 0.7552 0.2929 1.6574
C27B C 0.5274(7) 0.7146(3) 1.0098(4)
H17B H 0.4856 0.7152 0.9462
H18B H 0.4893 0.7390 1.0429
H19B H 0.5979 0.7341 1.0188
C28B C 0.2080(7) 0.6583(3) 1.0950(5)
H20B H 0.1991 0.6824 1.1428
C29B C 0.3574(6) 0.6952(3) 0.7424(5)
H21B H 0.3996 0.7345 0.7614
H22B H 0.3551 0.6713 0.7948
H23B H 0.2841 0.7064 0.7054
C30B C 0.2158(7) 0.6899(3) 1.0191(5)
H24B H 0.2102 0.7354 1.0153
C31B C 0.2317(5) 0.6554(3) 0.9497(4)
H25B H 0.2357 0.6773 0.8985
C32B C 0.2420(4) 0.5873(3) 0.9547(3)
C33B C 0.2715(4) 0.5526(2) 0.8820(3)
O13B O 0.2344(3) 0.57109(17) 0.8026(2)
O14B O 0.3364(3) 0.50312(16) 0.9076(2)
C34B C 0.7685(4) 0.5041(2) 1.5253(3)
O15B O 0.8304(3) 0.48098(16) 1.4832(2)
O15_2 O 0.1696(3) 0.51902(16) 0.5168(2)
O16B O 0.6662(3) 0.50393(18) 1.4952(2)
O16_2 O 0.3338(3) 0.49607(18) 0.5048(2)
O17B O 0.1237(3) 0.62780(17) 0.6261(2)
H26B H 0.313(5) 0.442(2) 0.650(3)
H27B H 0.422(4) 0.451(2) 1.421(4)
H28B H 0.472(5) 0.3888(16) 1.402(4)
H29B H 0.488(5) 0.571(3) 1.4404(9)
H30B H 0.511(5) 0.598(2) 1.382(5)
O18 O 0.2470(4) 0.3592(2) 0.5896(3)
H31 H 0.214(5) 0.3930(17) 0.587(4)
H32 H 0.296(4) 0.333(2) 0.604(4)
O19 O 0.3286(7) 0.2669(3) 0.7419(4)
H33 H 0.348(5) 0.281(3) 0.7931(17)
H34 H 0.302(5) 0.253(3) 0.6909(17)
loop_
_geom_bond_atom_site_label_1
_geom_bond_atom_site_label_2
_geom_bond_site_symmetry_1
_geom_bond_site_symmetry_2
Mn1 O1 1_555 1_555
Mn2 O7 1_555 1_555
Mn3 O10 1_555 1_555
Mn4 O4 1_555 1_555
Mn5 O2 1_555 1_555
O1 H26 1_555 1_555
O2 Mn1 1_555 1_555
O3 Mn5 1_555 1_555
O4 C8 1_555 1_555
O5 Mn1 1_555 1_555
O6 C5 1_555 1_555
O7 C8 1_555 1_555
O8 Mn2 1_555 1_555
O9 C12 1_555 1_555
C1 C3 1_555 1_555
C2 O3 1_555 1_555
C3 C4 1_555 1_555
C4 C13 1_555 1_555
O10 H27 1_555 1_555
C5 O2 1_555 1_555
C6 C7 1_555 1_555
O11 Mn3 1_555 1_555
O12 Mn3 1_555 1_555
C7 C10 1_555 1_555
C8 C27 1_555 1_555
C9 C6 1_555 1_555
C10 O8 1_555 1_555
C11 C3 1_555 1_555
H1 C11 1_555 1_555
C12 O5 1_555 1_555
C13 C20 1_555 1_555
C14 H2 1_555 1_555
C15 H3 1_555 1_555
C16 C7 1_555 1_555
H4 C16 1_555 1_555
C17 C15 1_555 1_555
H5 C17 1_555 1_555
C18 C4 1_555 1_555
H6 C18 1_555 1_555
C19 C9 1_555 1_555
H7 C19 1_555 1_555
C20 H8 1_555 1_555
C21 H9 1_555 1_555
C22 C1 1_555 1_555
H10 C22 1_555 1_555
C23 C2 1_555 1_555
H11 C23 1_555 1_555
H12 C23 1_555 1_555
H13 C23 1_555 1_555
C24 C14 1_555 1_555
H14 C24 1_555 1_555
C25 C6 1_555 1_555
H15 C25 1_555 1_555
C26 C11 1_555 1_555
H16 C26 1_555 1_555
C27 H17 1_555 1_555
H18 C27 1_555 1_555
H19 C27 1_555 1_555
C28 C19 1_555 1_555
H20 C28 1_555 1_555
C29 C12 1_555 1_555
H21 C29 1_555 1_555
H22 C29 1_555 1_555
H23 C29 1_555 1_555
C30 C28 1_555 1_555
H24 C30 1_555 1_555
C31 C30 1_555 1_555
H25 C31 1_555 1_555
C32 C9 1_555 1_555
C33 C32 1_555 1_555
O13 Mn1 1_555 1_555
O14 Mn4 1_555 1_555
C34 C13 1_555 1_555
O15 Mn5 1_555 1_555
O16 C34 1_555 1_555
O17 Mn1 1_555 1_555
H28 O10 1_555 1_555
H29 O12 1_555 1_555
H30 O12 1_555 1_555
O18 H31 1_555 1_555
H32 O18 1_555 1_555
O19 H33 1_555 1_555
H34 O19 1_555 1_555
Mn1B O1B 1_555 1_555
Mn1B_2 O15 1_555 1_555
Mn2B O1 1_555 1_555
Mn2_2 O6B 1_555 1_555
Mn3B O1 1_555 1_555
Mn3_2 O16 1_555 1_555
Mn5_2 O2B_2 1_555 1_555
O1B Mn2 1_555 1_555
O2B Mn5 1_555 1_555
O2B_2 Mn1B 1_555 1_555
O3B Mn5_2 1_555 1_555
O3B_2 Mn5 1_555 1_555
O4B Mn4 1_555 1_555
O5B Mn3 1_555 1_555
O6B C5B 1_555 1_555
O6B_2 Mn2 1_555 1_555
O7B Mn2B 1_555 1_555
O8B Mn4 1_555 1_555
O9B C12B 1_555 1_555
C1B C3B 1_555 1_555
C2B O3B 1_555 1_555
C3B C4B 1_555 1_555
C4B C13B 1_555 1_555
O10B Mn3B 1_555 1_555
C5B O2B 1_555 1_555
C6B C7B 1_555 1_555
O11B Mn3B 1_555 1_555
O12B Mn3B 1_555 1_555
C7B C10B 1_555 1_555
C8B O4B 1_555 1_555
C9B C6B 1_555 1_555
C10B O8B 1_555 1_555
C11B C3B 1_555 1_555
H1B C11B 1_555 1_555
C12B O5B 1_555 1_555
C13B C20B 1_555 1_555
C14B H2B 1_555 1_555
C15B H3B 1_555 1_555
C16B C7B 1_555 1_555
H4B C16B 1_555 1_555
C17B C15B 1_555 1_555
H5B C17B 1_555 1_555
C18B C4B 1_555 1_555
H6B C18B 1_555 1_555
C19B C9B 1_555 1_555
H7B C19B 1_555 1_555
C20B H8B 1_555 1_555
C21B H9B 1_555 1_555
C22B C1B 1_555 1_555
H10B C22B 1_555 1_555
C23B C2B 1_555 1_555
H11B C23B 1_555 1_555
H12B C23B 1_555 1_555
H13B C23B 1_555 1_555
C24B C14B 1_555 1_555
H14B C24B 1_555 1_555
C25B C6B 1_555 1_555
H15B C25B 1_555 1_555
C26B C11B 1_555 1_555
H16B C26B 1_555 1_555
C27B C8B 1_555 1_555
H17B C27B 1_555 1_555
H18B C27B 1_555 1_555
H19B C27B 1_555 1_555
C28B C19B 1_555 1_555
H20B C28B 1_555 1_555
C29B C12B 1_555 1_555
H21B C29B 1_555 1_555
H22B C29B 1_555 1_555
H23B C29B 1_555 1_555
C30B C28B 1_555 1_555
H24B C30B 1_555 1_555
C31B C30B 1_555 1_555
H25B C31B 1_555 1_555
C32B C9B 1_555 1_555
C33B C32B 1_555 1_555
O13B Mn1B 1_555 1_555
O14B Mn2 1_555 1_555
C34B C13B 1_555 1_555
O15B Mn1 1_555 1_555
O15_2 Mn1B 1_555 1_555
O16B Mn3B 1_555 1_555
O16_2 Mn3 1_555 1_555
O17B Mn1B 1_555 1_555
H26B O1B 1_555 1_555
H27B O10B 1_555 1_555
H28B O10B 1_555 1_555
H29B O12B 1_555 1_555
H30B O12B 1_555 1_555
Mn3 O1B 1_555 1_555
Mn4 O8 1_555 1_555
Mn4 O14B 1_555 1_555
Mn5 O15B 1_555 1_555
O5 Mn3B 1_555 1_555
O6 Mn2B 1_555 1_555
C1 C5 1_555 1_555
C2 O17 1_555 1_555
O11 C10 1_555 1_555
C14 C18 1_555 1_555
C15 C25 1_555 1_555
C16 C17 1_555 1_555
C20 C24 1_555 1_555
C21 C22 1_555 1_555
C21 C26 1_555 1_555
C31 C32 1_555 1_555
C33 O13 1_555 1_555
C33 O14 1_555 1_555
O14 Mn2B 1_555 1_555
C34 O15 1_555 1_555
Mn1B O5B 1_555 1_555
Mn1B_2 O2B 1_555 1_555
Mn2B O8B 1_555 1_555
Mn5_2 O15_2 1_555 1_555
O7B C8B 1_555 1_555
C1B C5B 1_555 1_555
C2B O17B 1_555 1_555
O11B C10B 1_555 1_555
C14B C18B 1_555 1_555
C15B C25B 1_555 1_555
C16B C17B 1_555 1_555
C20B C24B 1_555 1_555
C21B C22B 1_555 1_555
C21B C26B 1_555 1_555
C31B C32B 1_555 1_555
C33B O13B 1_555 1_555
C33B O14B 1_555 1_555
C34B O15B 1_555 1_555
C34B O16B 1_555 1_555

#END
