
#######################################################################
#
#                 Cambridge Crystallographic Data Centre
#                                CCDC 
#
#######################################################################
#
# If this CIF has been generated from an entry in the Cambridge 
# Structural Database, then it will include bibliographic, chemical, 
# crystal, experimental, refinement or atomic coordinate data resulting 
# from the CCDC's data processing and validation procedures.
#
#######################################################################

data_XUXWUJ
_symmetry_cell_setting           monoclinic
_symmetry_space_group_name_H-M   'P 2/n'
_symmetry_Int_Tables_number      13
_space_group_name_Hall           '-P 2yac'
loop_
_symmetry_equiv_pos_site_id
_symmetry_equiv_pos_as_xyz
1 x,y,z
2 1/2-x,y,1/2-z
3 -x,-y,-z
4 1/2+x,-y,1/2+z
_cell_length_a                   15.392(2)
_cell_length_b                   6.2359(8)
_cell_length_c                   19.822(3)
_cell_angle_alpha                90
_cell_angle_beta                 108.350(2)
_cell_angle_gamma                90
_cell_volume                     1805.83
loop_
_atom_site_label
_atom_site_type_symbol
_atom_site_fract_x
_atom_site_fract_y
_atom_site_fract_z
Ag1 Ag 0.66457(3) 0.05332(7) 0.69454(2)
Ag2 Ag 0.79070(2) -0.47012(7) 0.69547(2)
Ag3 Ag 0.49330(2) -0.24245(7) 0.77023(2)
Ag4 Ag 0.46134(4) 0.26435(7) 0.72051(3)
O1 O 0.5035(2) -0.0087(6) 0.65762(19)
O2 O 0.3652(3) 0.0162(6) 0.5762(2)
O3 O 0.4135(3) -0.2262(6) 0.48302(19)
H1 H 0.3677 -0.1486 0.4797
O4 O 0.4194(2) -0.4734(6) 0.61519(19)
H2 H 0.3819 -0.5260 0.5785
O5 O 0.6527(2) -0.3643(6) 0.63190(18)
O6 O 0.5882(3) -0.5240(6) 0.70490(19)
C1 C 0.4451(3) -0.0511(8) 0.5977(3)
C2 C 0.4769(3) -0.2046(8) 0.5509(3)
H3 H 0.5360 -0.1514 0.5464
C3 C 0.4933(3) -0.4227(8) 0.5887(2)
H4 H 0.4937 -0.5335 0.5524
C4 C 0.5846(3) -0.4357(8) 0.6470(3)
O7 O 0.6290(3) -0.0220(6) 0.79609(19)
O8 O 0.7501(2) 0.1308(6) 0.87330(19)
O9 O 0.5313(3) -0.0075(7) 0.8893(2)
H5 H 0.5293 -0.1360 0.9015
O10 O 0.6090(3) 0.2503(6) 1.0149(2)
H6 H 0.6136 0.3690 1.0358
O11 O 0.5243(3) 0.5618(7) 0.9296(2)
O12 O 0.5831(3) 0.4745(6) 0.8438(2)
C5 C 0.6697(3) 0.0564(8) 0.8555(3)
C6 C 0.6236(3) 0.0582(8) 0.9140(3)
H7 H 0.6569 -0.0490 0.9505
C7 C 0.6323(3) 0.2752(8) 0.9521(3)
H8 H 0.6979 0.3207 0.9657
C8 C 0.5741(4) 0.4507(8) 0.9047(3)
N1 N 0.3643(6) 0.2713(11) 0.7787(5)
C9 C 0.3494(5) 0.2627(11) 0.8342(5)
C10 C 0.3287(8) 0.2443(15) 0.9029(6)
H9 H 0.3185 0.0937 0.9132
H10 H 0.3795 0.3058 0.9399
H11 H 0.2670 0.3353 0.8955
N2 N 0.3420(3) -0.2331(7) 0.7543(2)
C11 C 0.2768(4) -0.2320(9) 0.6920(3)
H12 H 0.2931 -0.2304 0.6496
C12 C 0.3152(4) -0.2330(10) 0.8124(3)
H13 H 0.3603 -0.2336 0.8579
Ag1A Ag 0.83543(3) 0.05332(7) 0.80546(2)
Ag2A Ag 0.70930(2) -0.47012(7) 0.80453(2)
Ag2A_2 Ag 0.70930(2) 0.52988(7) 0.80453(2)
Ag2_2 Ag 0.79070(2) 0.52988(7) 0.69547(2)
Ag3A Ag 1.00670(2) -0.24245(7) 0.72977(2)
Ag3_2 Ag 0.49330(2) 0.75755(7) 0.77023(2)
Ag3A_2 Ag 0.00670(2) -0.24245(7) 0.72977(2)
Ag3A_3 Ag 1.00670(2) 0.75755(7) 0.72977(2)
Ag4_2 Ag 0.46134(4) -0.73565(7) 0.72051(3)
Ag4A Ag 1.03866(4) 0.26435(7) 0.77949(3)
Ag4A_2 Ag 1.03866(4) -0.73565(7) 0.77949(3)
O1A O 0.9965(2) -0.0087(6) 0.84238(19)
O1_2 O 0.5035(2) -1.0087(6) 0.65762(19)
O2A O 1.1348(3) 0.0162(6) 0.9238(2)
O3A O 1.0865(3) -0.2262(6) 1.01698(19)
H1A H 1.1323 -0.1486 1.0203
O4A O 1.0806(2) -0.4734(6) 0.88481(19)
O4_2 O 0.4194(2) 0.5266(6) 0.61519(19)
H2A H 1.1181 -0.5260 0.9215
H2_2 H 0.3819 0.4740 0.5785
O5A O 0.8473(2) -0.3643(6) 0.86810(18)
O6A O 0.9118(3) -0.5240(6) 0.79510(19)
O6_2 O 0.5882(3) 0.4760(6) 0.70490(19)
C1A C 1.0549(3) -0.0511(8) 0.9023(3)
C2A C 1.0231(3) -0.2046(8) 0.9491(3)
H3A H 0.9640 -0.1514 0.9536
C3A C 1.0067(3) -0.4227(8) 0.9113(2)
H4A H 1.0063 -0.5335 0.9476
C4A C 0.9154(3) -0.4357(8) 0.8530(3)
O7A O 0.8710(3) -0.0220(6) 0.70391(19)
O8A O 0.7499(2) 0.1308(6) 0.62670(19)
O9A O 0.9687(3) -0.0075(7) 0.6107(2)
H5A H 0.9707 -0.1360 0.5985
O10A O 0.8910(3) 0.2503(6) 0.4851(2)
H6A H 0.8864 0.3690 0.4642
O11A O 0.9757(3) 0.5618(7) 0.5704(2)
O12A O 0.9169(3) 0.4745(6) 0.6562(2)
O12A_2 O 0.9169(3) -0.5255(6) 0.6562(2)
O12_2 O 0.5831(3) -0.5255(6) 0.8438(2)
C5A C 0.8303(3) 0.0564(8) 0.6445(3)
C6A C 0.8764(3) 0.0582(8) 0.5860(3)
H7A H 0.8431 -0.0490 0.5495
C7A C 0.8677(3) 0.2752(8) 0.5479(3)
H8A H 0.8021 0.3207 0.5343
C8A C 0.9259(4) 0.4507(8) 0.5953(3)
N1_2 N 0.3643(6) -0.7287(11) 0.7787(5)
C9_2 C 0.3494(5) -0.7373(11) 0.8342(5)
C10_2 C 0.3287(8) -0.7557(15) 0.9029(6)
H9_2 H 0.3185 -0.9063 0.9132
H10_2 H 0.3795 -0.6942 0.9399
H11_2 H 0.2670 -0.6647 0.8955
N2A N 0.1580(3) -0.2331(7) 0.7457(2)
N2A_2 N 1.1580(3) -0.2331(7) 0.7457(2)
C11A C 0.2232(4) -0.2320(9) 0.8080(3)
H12A H 0.2069 -0.2304 0.8504
C12A C 0.1848(4) -0.2330(10) 0.6876(3)
H13A H 0.1397 -0.2336 0.6421
O13 O 0.2959(3) 0.3573(6) 0.4950(2)
H14 H 0.3088 0.2339 0.5128
H15 H 0.3340 0.3558 0.4726
loop_
_geom_bond_atom_site_label_1
_geom_bond_atom_site_label_2
_geom_bond_site_symmetry_1
_geom_bond_site_symmetry_2
Ag1 O1 1_555 1_555
Ag2 O5 1_555 1_555
Ag3 O7 1_555 1_555
Ag4 O1 1_555 1_555
O1 C1 1_555 1_555
O2 C1 1_555 1_555
O3 H1 1_555 1_555
O4 H2 1_555 1_555
O5 C4 1_555 1_555
O6 C4 1_555 1_555
C1 C2 1_555 1_555
C2 O3 1_555 1_555
H3 C2 1_555 1_555
C3 O4 1_555 1_555
H4 C3 1_555 1_555
C4 C3 1_555 1_555
O7 Ag1 1_555 1_555
O8 C5 1_555 1_555
O9 H5 1_555 1_555
O10 H6 1_555 1_555
O11 C8 1_555 1_555
O12 C8 1_555 1_555
C5 O7 1_555 1_555
C6 O9 1_555 1_555
H7 C6 1_555 1_555
C7 O10 1_555 1_555
H8 C7 1_555 1_555
C8 C7 1_555 1_555
N1 Ag4 1_555 1_555
C9 N1 1_555 1_555
C10 C9 1_555 1_555
H9 C10 1_555 1_555
H10 C10 1_555 1_555
H11 C10 1_555 1_555
N2 Ag3 1_555 1_555
C11 N2 1_555 1_555
H12 C11 1_555 1_555
C12 N2 1_555 1_555
H13 C12 1_555 1_555
O13 H14 1_555 1_555
H15 O13 1_555 1_555
Ag1A O8 1_555 1_555
Ag2A O6 1_555 1_555
Ag2A_2 O12 1_555 1_555
Ag2_2 O12A 1_555 1_555
Ag3A O7A 1_555 1_555
Ag3_2 O12 1_555 1_555
Ag3A_2 N2A 1_555 1_555
Ag3A_3 O12A 1_555 1_555
Ag4_2 O4 1_555 1_555
Ag4A O1A 1_555 1_555
Ag4A_2 O4A 1_555 1_555
O1A Ag1A 1_555 1_555
O1_2 Ag4_2 1_555 1_555
O2A C1A 1_555 1_555
O3A H1A 1_555 1_555
O4A H2A 1_555 1_555
O4_2 Ag4 1_555 1_555
H2_2 O4_2 1_555 1_555
O5A Ag2A 1_555 1_555
O6A Ag2 1_555 1_555
O6_2 Ag4 1_555 1_555
C1A O1A 1_555 1_555
C2A O3A 1_555 1_555
H3A C2A 1_555 1_555
C3A O4A 1_555 1_555
H4A C3A 1_555 1_555
C4A O5A 1_555 1_555
O7A Ag1A 1_555 1_555
O8A Ag1 1_555 1_555
O9A H5A 1_555 1_555
O10A H6A 1_555 1_555
O11A C8A 1_555 1_555
O12A C8A 1_555 1_555
O12A_2 Ag2 1_555 1_555
O12_2 Ag3 1_555 1_555
C5A O7A 1_555 1_555
C6A O9A 1_555 1_555
H7A C6A 1_555 1_555
C7A O10A 1_555 1_555
H8A C7A 1_555 1_555
C8A C7A 1_555 1_555
N1_2 Ag4_2 1_555 1_555
C9_2 N1_2 1_555 1_555
C10_2 C9_2 1_555 1_555
H9_2 C10_2 1_555 1_555
H10_2 C10_2 1_555 1_555
H11_2 C10_2 1_555 1_555
N2A C11A 1_555 1_555
N2A_2 Ag3A 1_555 1_555
C11A C12 1_555 1_555
H12A C11A 1_555 1_555
C12A C11 1_555 1_555
H13A C12A 1_555 1_555
O6 Ag4_2 1_555 1_555
C2 C3 1_555 1_555
C5 C6 1_555 1_555
C6 C7 1_555 1_555
Ag2A O12_2 1_555 1_555
Ag2A_2 O6_2 1_555 1_555
Ag3A O12A_2 1_555 1_555
Ag4A_2 O6A 1_555 1_555
O6A C4A 1_555 1_555
C1A C2A 1_555 1_555
C2A C3A 1_555 1_555
C3A C4A 1_555 1_555
O8A C5A 1_555 1_555
C5A C6A 1_555 1_555
C6A C7A 1_555 1_555
N2A C12A 1_555 1_555

#END
