
#######################################################################
#
#                 Cambridge Crystallographic Data Centre
#                                CCDC 
#
#######################################################################
#
# If this CIF has been generated from an entry in the Cambridge 
# Structural Database, then it will include bibliographic, chemical, 
# crystal, experimental, refinement or atomic coordinate data resulting 
# from the CCDC's data processing and validation procedures.
#
#######################################################################

data_XUXWOD
_symmetry_cell_setting           monoclinic
_symmetry_space_group_name_H-M   'P 21/n'
_symmetry_Int_Tables_number      14
_space_group_name_Hall           '-P 2yn'
loop_
_symmetry_equiv_pos_site_id
_symmetry_equiv_pos_as_xyz
1 x,y,z
2 1/2-x,1/2+y,1/2-z
3 -x,-y,-z
4 1/2+x,1/2-y,1/2+z
_cell_length_a                   9.9947(15)
_cell_length_b                   10.2858(16)
_cell_length_c                   16.355(3)
_cell_angle_alpha                90
_cell_angle_beta                 99.536(2)
_cell_angle_gamma                90
_cell_volume                     1658.12
loop_
_atom_site_label
_atom_site_type_symbol
_atom_site_fract_x
_atom_site_fract_y
_atom_site_fract_z
Ag1 Ag 0.35985(3) 0.59066(3) 0.039336(18)
Ag2 Ag 0.65447(3) 0.64527(3) 0.465540(18)
Ag3 Ag 0.58931(3) 0.69810(3) -0.034980(17)
Ag4 Ag 0.41179(3) 0.63983(3) 0.546400(18)
O1 O 0.5277(3) 0.5848(3) 0.14367(18)
O2 O 0.6923(3) 0.6900(3) 0.09015(16)
C1 C 0.6421(4) 0.6381(4) 0.1481(2)
C2 C 0.7311(4) 0.6431(4) 0.2342(2)
H1 H 0.8230 0.6078 0.2300
O3 O 0.6753(3) 0.5696(2) 0.29381(16)
H2 H 0.6181 0.6104 0.3161
C3 C 0.7451(4) 0.7859(4) 0.2595(2)
H3 H 0.7921 0.8320 0.2185
O4 O 0.6159(3) 0.8445(3) 0.25729(16)
H4 H 0.6103 0.8751 0.3042
C4 C 0.8349(4) 0.7961(4) 0.3445(2)
O5 O 0.7821(3) 0.8312(3) 0.40505(17)
O6 O 0.9592(3) 0.7669(3) 0.34835(16)
O7 O 0.5389(3) 0.6103(3) 0.66365(17)
O8 O 0.7051(3) 0.7066(3) 0.60837(16)
C5 C 0.6564(4) 0.6599(4) 0.6674(2)
C6 C 0.7441(4) 0.6640(4) 0.7531(2)
H5 H 0.8345 0.6249 0.7492
O9 O 0.6844(3) 0.5922(3) 0.81268(16)
H6 H 0.7351 0.5962 0.8590
C7 C 0.7650(4) 0.8061(4) 0.7795(2)
H7 H 0.8191 0.8480 0.7404
O10 O 0.6416(3) 0.8752(3) 0.77321(16)
H8 H 0.5767 0.8252 0.7558
C8 C 0.8504(4) 0.8131(4) 0.8665(2)
O11 O 0.7905(3) 0.8417(3) 0.92672(17)
O12 O 0.9739(3) 0.7873(3) 0.87213(16)
N1 N 0.1396(3) 0.5200(3) 0.0153(2)
C9 C 0.0650(4) 0.5261(4) 0.0768(2)
H9 H 0.1085 0.5440 0.1318
C10 C 0.0732(4) 0.4934(4) -0.0610(2)
H10 H 0.1230 0.4877 -0.1056
N2 N 0.8654(3) 0.5429(3) 0.4867(2)
C11 C 0.9216(4) 0.4885(4) 0.4263(2)
H11 H 0.8683 0.4783 0.3730
C12 C 0.9455(4) 0.5534(4) 0.5611(2)
H12 H 0.9097 0.5905 0.6060
Ag1C Ag -0.14015(3) 0.90934(3) -0.460664(18)
Ag1C_2 Ag 0.85985(3) 0.90934(3) 0.539336(18)
Ag1B Ag -0.35985(3) 0.40934(3) -0.039336(18)
Ag2C Ag 0.15447(3) 0.85473(3) -0.034460(18)
Ag2C_2 Ag 1.15447(3) 0.85473(3) 0.965540(18)
Ag2B Ag 1.34553(3) 0.35473(3) 0.534460(18)
Ag3C Ag 0.08931(3) 0.80190(3) -0.534980(17)
Ag3C_2 Ag 1.08931(3) 0.80190(3) 0.465020(17)
Ag4C Ag -0.08821(3) 0.86017(3) 0.046400(18)
Ag4C_2 Ag 0.91179(3) 0.86017(3) 1.046400(18)
O1C O 0.0277(3) 0.9152(3) -0.35633(18)
O2C O 0.1923(3) 0.8100(3) -0.40985(16)
C1C C 0.1421(4) 0.8619(4) -0.3519(2)
C2C C 0.2311(4) 0.8569(4) -0.2658(2)
H1C H 0.3230 0.8922 -0.2700
O3C O 0.1753(3) 0.9304(2) -0.20619(16)
H2C H 0.1181 0.8896 -0.1839
C3C C 0.2451(4) 0.7141(4) -0.2405(2)
H3C H 0.2921 0.6680 -0.2815
O4C O 0.1159(3) 0.6555(3) -0.24271(16)
H4C H 0.1103 0.6249 -0.1958
C4C C 0.3349(4) 0.7039(4) -0.1555(2)
O5C O 0.2821(3) 0.6688(3) -0.09495(17)
O5_2 O -0.2179(3) 0.8312(3) -0.59495(17)
O6C O 0.4592(3) 0.7331(3) -0.15165(16)
O6_2 O -0.0408(3) 0.7669(3) -0.65165(16)
O7C O 0.0389(3) 0.8897(3) 0.16365(17)
O8C O 0.2051(3) 0.7934(3) 0.10837(16)
C5C C 0.1564(4) 0.8401(4) 0.1674(2)
C6C C 0.2441(4) 0.8360(4) 0.2531(2)
H5C H 0.3345 0.8751 0.2492
O9C O 0.1844(3) 0.9078(3) 0.31268(16)
H6C H 0.2351 0.9038 0.3590
C7C C 0.2650(4) 0.6939(4) 0.2795(2)
H7C H 0.3191 0.6520 0.2404
O10C O 0.1416(3) 0.6248(3) 0.27321(16)
H8C H 0.0767 0.6748 0.2558
C8C C 0.3504(4) 0.6869(4) 0.3665(2)
O11C O 0.2905(3) 0.6583(3) 0.42672(17)
O11_2 O -0.2095(3) 0.8417(3) -0.07328(17)
O12C O 0.4739(3) 0.7127(3) 0.37213(16)
O12_2 O -0.0261(3) 0.7873(3) -0.12787(16)
N1B N -0.1396(3) 0.4800(3) -0.0153(2)
N1C N -0.3604(3) 0.9800(3) -0.4847(2)
C9B C -0.0650(4) 0.4739(4) -0.0768(2)
H9B H -0.1085 0.4560 -0.1318
C10B C -0.0732(4) 0.5066(4) 0.0610(2)
H10B H -0.1230 0.5123 0.1056
N2B N 1.1346(3) 0.4571(3) 0.5133(2)
N2C N 0.3654(3) 0.9571(3) -0.0133(2)
C11B C 1.0784(4) 0.5115(4) 0.5737(2)
H11B H 1.1317 0.5217 0.6270
C12B C 1.0545(4) 0.4466(4) 0.4389(2)
H12B H 1.0903 0.4095 0.3940
loop_
_geom_bond_atom_site_label_1
_geom_bond_atom_site_label_2
_geom_bond_site_symmetry_1
_geom_bond_site_symmetry_2
Ag1 O1 1_555 1_555
Ag2 O5 1_555 1_555
Ag3 O2 1_555 1_555
Ag4 O7 1_555 1_555
O1 C1 1_555 1_555
O2 C1 1_555 1_555
C1 C2 1_555 1_555
C2 H1 1_555 1_555
O3 C2 1_555 1_555
H2 O3 1_555 1_555
C3 C2 1_555 1_555
H3 C3 1_555 1_555
O4 C3 1_555 1_555
H4 O4 1_555 1_555
C4 C3 1_555 1_555
O5 C4 1_555 1_555
O6 C4 1_555 1_555
O7 C5 1_555 1_555
O8 Ag2 1_555 1_555
C5 O8 1_555 1_555
C6 C5 1_555 1_555
H5 C6 1_555 1_555
O9 C6 1_555 1_555
H6 O9 1_555 1_555
C7 C6 1_555 1_555
H7 C7 1_555 1_555
O10 C7 1_555 1_555
H8 O10 1_555 1_555
C8 C7 1_555 1_555
O11 C8 1_555 1_555
O12 C8 1_555 1_555
N1 Ag1 1_555 1_555
C9 N1 1_555 1_555
H9 C9 1_555 1_555
C10 N1 1_555 1_555
H10 C10 1_555 1_555
N2 Ag2 1_555 1_555
C11 N2 1_555 1_555
H11 C11 1_555 1_555
C12 N2 1_555 1_555
H12 C12 1_555 1_555
Ag1C O1C 1_555 1_555
Ag1C_2 O5 1_555 1_555
Ag1B N1B 1_555 1_555
Ag2C O5C 1_555 1_555
Ag2C_2 O12 1_555 1_555
Ag2B N2B 1_555 1_555
Ag3C O2C 1_555 1_555
Ag3C_2 O6 1_555 1_555
Ag4C O7C 1_555 1_555
Ag4C_2 O11 1_555 1_555
O1C C1C 1_555 1_555
O2C C1C 1_555 1_555
C1C C2C 1_555 1_555
C2C H1C 1_555 1_555
O3C C2C 1_555 1_555
H2C O3C 1_555 1_555
C3C C2C 1_555 1_555
H3C C3C 1_555 1_555
O4C C3C 1_555 1_555
H4C O4C 1_555 1_555
C4C C3C 1_555 1_555
O5C Ag1 1_555 1_555
O5_2 Ag1C 1_555 1_555
O6C Ag3 1_555 1_555
O6_2 Ag3C 1_555 1_555
O7C C5C 1_555 1_555
O8C Ag2C 1_555 1_555
C5C O8C 1_555 1_555
C6C C5C 1_555 1_555
H5C C6C 1_555 1_555
O9C C6C 1_555 1_555
H6C O9C 1_555 1_555
C7C C6C 1_555 1_555
H7C C7C 1_555 1_555
O10C C7C 1_555 1_555
H8C O10C 1_555 1_555
C8C C7C 1_555 1_555
O11C Ag4 1_555 1_555
O11_2 Ag4C 1_555 1_555
O12C Ag2 1_555 1_555
O12_2 Ag2C 1_555 1_555
N1B C9B 1_555 1_555
N1C Ag1C 1_555 1_555
C9B C10 1_555 1_555
H9B C9B 1_555 1_555
C10B C9 1_555 1_555
H10B C10B 1_555 1_555
N2B C11B 1_555 1_555
N2C Ag2C 1_555 1_555
C11B C12 1_555 1_555
H11B C11B 1_555 1_555
C12B C11 1_555 1_555
H12B C12B 1_555 1_555
C4C O5C 1_555 1_555
C4C O6C 1_555 1_555
C8C O11C 1_555 1_555
C8C O12C 1_555 1_555
N1B C10B 1_555 1_555
N2B C12B 1_555 1_555

#END
