
#######################################################################
#
#                 Cambridge Crystallographic Data Centre
#                                CCDC 
#
#######################################################################
#
# If this CIF has been generated from an entry in the Cambridge 
# Structural Database, then it will include bibliographic, chemical, 
# crystal, experimental, refinement or atomic coordinate data resulting 
# from the CCDC's data processing and validation procedures.
#
#######################################################################

data_XUYFOM
_symmetry_cell_setting           triclinic
_symmetry_space_group_name_H-M   'P -1'
_symmetry_Int_Tables_number      2
_space_group_name_Hall           '-P 1'
loop_
_symmetry_equiv_pos_site_id
_symmetry_equiv_pos_as_xyz
1 x,y,z
2 -x,-y,-z
_cell_length_a                   12.390(1)
_cell_length_b                   15.297(2)
_cell_length_c                   15.576(2)
_cell_angle_alpha                111.798(6)
_cell_angle_beta                 90.357(3)
_cell_angle_gamma                93.627(5)
_cell_volume                     2734.14
loop_
_atom_site_label
_atom_site_type_symbol
_atom_site_fract_x
_atom_site_fract_y
_atom_site_fract_z
Ag1 Ag 0.27497(1) 0.03798(1) 0.82744(1)
Ag2 Ag 0.77595(1) 0.03953(1) 0.70001(1)
Cl1 Cl 0.02851(5) -0.07790(4) 0.83783(4)
Cl2 Cl 0.53098(4) -0.07640(4) 0.60052(4)
S1 S 0.33319(4) -0.10618(4) 0.84720(4)
S2 S 0.71134(4) 0.09656(4) 0.86181(4)
S3 S 0.67987(5) -0.17895(4) 1.01790(4)
S4 S 0.20326(4) 0.10294(4) 0.71527(4)
S5 S -0.16862(4) -0.10580(4) 0.57149(4)
S6 S 0.18645(5) -0.17856(4) 0.35943(4)
O1 O 0.0801(2) 0.0164(2) 0.8702(2)
O2 O 0.0375(2) -0.1175(2) 0.9055(2)
O3 O -0.0835(1) -0.0723(1) 0.8179(1)
O4 O 0.0793(2) -0.1341(2) 0.7550(1)
O5 O 0.5806(2) 0.0179(1) 0.6493(1)
O6 O 0.5774(2) -0.1391(1) 0.6374(1)
O7 O 0.4169(1) -0.0741(1) 0.6160(1)
O8 O 0.5508(2) -0.1049(2) 0.5046(1)
C1 C 0.4738(2) -0.0855(2) 0.8769(1)
C2 C 0.5355(2) -0.0162(2) 0.8579(1)
C3 C 0.6447(2) 0.0018(2) 0.8852(1)
C4 C 0.6926(2) -0.0484(2) 0.9313(2)
C5 C 0.6299(2) -0.1184(2) 0.9494(1)
C6 C 0.5213(2) -0.1372(2) 0.9226(2)
C7 C 0.3311(2) -0.2071(2) 0.7358(2)
C8 C 0.3743(2) -0.2892(2) 0.7510(2)
C9 C 0.4789(2) -0.3140(2) 0.7278(2)
C10 C 0.5217(3) -0.3845(2) 0.7501(2)
C11 C 0.4599(3) -0.4317(2) 0.7948(2)
C12 C 0.3553(3) -0.4084(2) 0.8172(2)
C13 C 0.3122(2) -0.3380(2) 0.7958(2)
C14 C 0.8279(2) 0.1377(2) 0.9426(2)
C15 C 0.8761(2) 0.2241(2) 0.9296(2)
C16 C 0.8328(2) 0.3108(2) 0.9715(2)
C17 C 0.8749(3) 0.3896(2) 0.9565(3)
C18 C 0.9597(3) 0.3822(3) 0.8969(3)
C19 C 1.0032(3) 0.2964(2) 0.8545(2)
C20 C 0.9624(2) 0.2175(2) 0.8707(2)
C21 C 0.8123(2) -0.2155(2) 0.9713(2)
C22 C 0.8043(2) -0.3067(2) 0.8884(2)
C23 C 0.7725(3) -0.3913(2) 0.8974(2)
C24 C 0.7687(3) -0.4758(2) 0.8221(2)
C25 C 0.7964(3) -0.4770(2) 0.7361(2)
C26 C 0.8268(3) -0.3941(3) 0.7265(2)
C27 C 0.8305(3) -0.3090(2) 0.8016(2)
C28 C 0.1396(2) 0.0087(2) 0.6195(1)
C29 C 0.0311(2) -0.0120(2) 0.6306(2)
C30 C -0.0277(2) -0.0834(2) 0.5601(2)
C31 C 0.0221(2) -0.1347(2) 0.4784(2)
C32 C 0.1309(2) -0.1133(2) 0.4683(1)
C33 C 0.1907(2) -0.0412(2) 0.5385(2)
C34 C 0.3206(2) 0.1490(2) 0.6707(2)
C35 C 0.3751(2) 0.2262(2) 0.7535(2)
C36 C 0.4722(2) 0.2121(2) 0.7898(2)
C37 C 0.5216(2) 0.2813(2) 0.8670(2)
C38 C 0.4739(2) 0.3647(2) 0.9108(2)
C39 C 0.3774(2) 0.3796(2) 0.8760(2)
C40 C 0.3281(2) 0.3111(2) 0.7975(2)
C41 C -0.1701(2) -0.2068(2) 0.6095(2)
C42 C -0.1533(2) -0.2955(2) 0.5299(2)
C43 C -0.2365(3) -0.3386(2) 0.4646(2)
C44 C -0.2200(4) -0.4199(3) 0.3896(3)
C45 C -0.1217(4) -0.4578(3) 0.3783(3)
C46 C -0.0390(3) -0.4170(2) 0.4423(3)
C47 C -0.0545(3) -0.3359(2) 0.5180(2)
C48 C 0.3220(2) -0.1998(2) 0.3893(2)
C49 C 0.3296(2) -0.2786(2) 0.4249(2)
C50 C 0.4202(2) -0.3312(2) 0.4031(2)
C51 C 0.4338(3) -0.4015(2) 0.4375(3)
C52 C 0.3581(3) -0.4208(2) 0.4925(2)
C53 C 0.2679(3) -0.3701(2) 0.5141(2)
C54 C 0.2541(2) -0.2989(2) 0.4810(2)
H1 H 0.504(2) 0.017(2) 0.828(2)
H2 H 0.765(2) -0.037(2) 0.950(2)
H3 H 0.482(2) -0.178(2) 0.937(2)
H4 H 0.369(2) -0.190(2) 0.693(2)
H5 H 0.255(2) -0.216(2) 0.717(2)
H6 H 0.517(2) -0.281(2) 0.700(2)
H7 H 0.589(2) -0.398(2) 0.730(2)
H8 H 0.490(2) -0.478(2) 0.809(2)
H9 H 0.308(2) -0.440(2) 0.844(2)
H10 H 0.236(2) -0.321(2) 0.810(2)
H11 H 0.879(2) 0.088(2) 0.926(2)
H12 H 0.798(2) 0.151(2) 1.002(2)
H13 H 0.773(2) 0.312(2) 1.012(2)
H14 H 0.844(2) 0.447(2) 0.989(2)
H15 H 0.987(2) 0.440(2) 0.889(2)
H16 H 1.058(2) 0.290(2) 0.812(2)
H17 H 0.999(2) 0.158(2) 0.844(2)
H18 H 0.847(2) -0.167(2) 0.962(2)
H19 H 0.846(2) -0.225(2) 1.022(2)
H20 H 0.750(2) -0.389(2) 0.957(2)
H21 H 0.744(2) -0.530(2) 0.830(2)
H22 H 0.791(2) -0.536(2) 0.684(2)
H23 H 0.843(2) -0.396(2) 0.669(2)
H24 H 0.853(2) -0.253(2) 0.796(2)
H25 H -0.006(2) 0.022(2) 0.685(2)
H26 H -0.016(2) -0.180(2) 0.431(2)
H27 H 0.265(2) -0.026(2) 0.530(2)
H28 H 0.366(2) 0.101(2) 0.644(2)
H29 H 0.292(2) 0.173(2) 0.626(2)
H30 H 0.503(2) 0.158(2) 0.758(2)
H31 H 0.585(2) 0.273(2) 0.889(2)
H32 H 0.508(2) 0.413(2) 0.969(2)
H33 H 0.348(2) 0.434(2) 0.904(2)
H34 H 0.263(2) 0.318(2) 0.772(2)
H35 H -0.117(2) -0.189(2) 0.659(2)
H36 H -0.240(2) -0.207(2) 0.634(2)
H37 H -0.301(2) -0.311(2) 0.471(2)
H38 H -0.267(2) -0.446(2) 0.350(2)
H39 H -0.105(2) -0.506(2) 0.331(2)
H40 H 0.032(2) -0.444(2) 0.435(2)
H41 H -0.002(2) -0.308(2) 0.563(2)
H42 H 0.355(2) -0.138(2) 0.434(2)
H43 H 0.356(2) -0.214(2) 0.332(2)
H44 H 0.471(2) -0.319(2) 0.364(2)
H45 H 0.485(2) -0.434(2) 0.421(2)
H46 H 0.363(2) -0.465(2) 0.516(2)
H47 H 0.218(2) -0.383(2) 0.551(2)
H48 H 0.195(2) -0.266(2) 0.496(2)
S3A S 0.32013(5) 0.17895(4) 0.98210(4)
S5_2 S 0.83138(4) -0.10580(4) 0.57149(4)
S6A S 0.81355(5) 0.17856(4) 0.64057(4)
Ag1A Ag 0.72503(1) -0.03798(1) 1.17256(1)
Ag2_2 Ag -0.22405(1) 0.03953(1) 0.70001(1)
Ag2A Ag 0.22405(1) -0.03953(1) 0.29999(1)
loop_
_geom_bond_atom_site_label_1
_geom_bond_atom_site_label_2
_geom_bond_site_symmetry_1
_geom_bond_site_symmetry_2
Ag1 S1 1_555 1_555
Ag2 S2 1_555 1_555
Cl1 O1 1_555 1_555
Cl2 O5 1_555 1_555
S1 C1 1_555 1_555
S2 C3 1_555 1_555
S3 C5 1_555 1_555
S4 Ag1 1_555 1_555
S5 C30 1_555 1_555
S6 C32 1_555 1_555
O1 Ag1 1_555 1_555
O2 Cl1 1_555 1_555
O3 Cl1 1_555 1_555
O4 Cl1 1_555 1_555
O5 Ag2 1_555 1_555
O6 Cl2 1_555 1_555
O7 Cl2 1_555 1_555
O8 Cl2 1_555 1_555
C1 C2 1_555 1_555
C2 C3 1_555 1_555
C3 C4 1_555 1_555
C4 C5 1_555 1_555
C5 C6 1_555 1_555
C6 C1 1_555 1_555
C7 S1 1_555 1_555
C8 C7 1_555 1_555
C9 C8 1_555 1_555
C10 C9 1_555 1_555
C11 C10 1_555 1_555
C12 C11 1_555 1_555
C13 C8 1_555 1_555
C14 S2 1_555 1_555
C15 C14 1_555 1_555
C16 C15 1_555 1_555
C17 C16 1_555 1_555
C18 C17 1_555 1_555
C19 C18 1_555 1_555
C20 C15 1_555 1_555
C21 S3 1_555 1_555
C22 C21 1_555 1_555
C23 C22 1_555 1_555
C24 C23 1_555 1_555
C25 C24 1_555 1_555
C26 C25 1_555 1_555
C27 C22 1_555 1_555
C28 S4 1_555 1_555
C29 C28 1_555 1_555
C30 C29 1_555 1_555
C31 C30 1_555 1_555
C32 C31 1_555 1_555
C33 C28 1_555 1_555
C34 S4 1_555 1_555
C35 C34 1_555 1_555
C36 C35 1_555 1_555
C37 C36 1_555 1_555
C38 C37 1_555 1_555
C39 C38 1_555 1_555
C40 C35 1_555 1_555
C41 S5 1_555 1_555
C42 C41 1_555 1_555
C43 C42 1_555 1_555
C44 C43 1_555 1_555
C45 C44 1_555 1_555
C46 C45 1_555 1_555
C47 C42 1_555 1_555
C48 S6 1_555 1_555
C49 C48 1_555 1_555
C50 C49 1_555 1_555
C51 C50 1_555 1_555
C52 C51 1_555 1_555
C53 C52 1_555 1_555
C54 C49 1_555 1_555
H1 C2 1_555 1_555
H2 C4 1_555 1_555
H3 C6 1_555 1_555
H4 C7 1_555 1_555
H5 C7 1_555 1_555
H6 C9 1_555 1_555
H7 C10 1_555 1_555
H8 C11 1_555 1_555
H9 C12 1_555 1_555
H10 C13 1_555 1_555
H11 C14 1_555 1_555
H12 C14 1_555 1_555
H13 C16 1_555 1_555
H14 C17 1_555 1_555
H15 C18 1_555 1_555
H16 C19 1_555 1_555
H17 C20 1_555 1_555
H18 C21 1_555 1_555
H19 C21 1_555 1_555
H20 C23 1_555 1_555
H21 C24 1_555 1_555
H22 C25 1_555 1_555
H23 C26 1_555 1_555
H24 C27 1_555 1_555
H25 C29 1_555 1_555
H26 C31 1_555 1_555
H27 C33 1_555 1_555
H28 C34 1_555 1_555
H29 C34 1_555 1_555
H30 C36 1_555 1_555
H31 C37 1_555 1_555
H32 C38 1_555 1_555
H33 C39 1_555 1_555
H34 C40 1_555 1_555
H35 C41 1_555 1_555
H36 C41 1_555 1_555
H37 C43 1_555 1_555
H38 C44 1_555 1_555
H39 C45 1_555 1_555
H40 C46 1_555 1_555
H41 C47 1_555 1_555
H42 C48 1_555 1_555
H43 C48 1_555 1_555
H44 C50 1_555 1_555
H45 C51 1_555 1_555
H46 C52 1_555 1_555
H47 C53 1_555 1_555
H48 C54 1_555 1_555
S3A Ag1 1_555 1_555
S5_2 Ag2 1_555 1_555
S6A Ag2 1_555 1_555
Ag1A S3 1_555 1_555
Ag2_2 S5 1_555 1_555
Ag2A S6 1_555 1_555
C12 C13 1_555 1_555
C19 C20 1_555 1_555
C26 C27 1_555 1_555
C32 C33 1_555 1_555
C39 C40 1_555 1_555
C46 C47 1_555 1_555
C53 C54 1_555 1_555

#END
