
#######################################################################
#
#                 Cambridge Crystallographic Data Centre
#                                CCDC 
#
#######################################################################
#
# If this CIF has been generated from an entry in the Cambridge 
# Structural Database, then it will include bibliographic, chemical, 
# crystal, experimental, refinement or atomic coordinate data resulting 
# from the CCDC's data processing and validation procedures.
#
#######################################################################

data_XUYJEH
_symmetry_cell_setting           triclinic
_symmetry_space_group_name_H-M   'P -1'
_symmetry_Int_Tables_number      2
_space_group_name_Hall           '-P 1'
loop_
_symmetry_equiv_pos_site_id
_symmetry_equiv_pos_as_xyz
1 x,y,z
2 -x,-y,-z
_cell_length_a                   9.9778(16)
_cell_length_b                   10.1465(17)
_cell_length_c                   14.718(3)
_cell_angle_alpha                103.554(3)
_cell_angle_beta                 102.280(3)
_cell_angle_gamma                99.063(3)
_cell_volume                     1381.27
loop_
_atom_site_label
_atom_site_type_symbol
_atom_site_fract_x
_atom_site_fract_y
_atom_site_fract_z
Co1 Co 0.5000 0.0000 0.0000
Co2 Co 1.0000 0.0000 0.0000
C1 C 0.5507(13) 0.3647(11) 0.6668(8)
H1 H 0.4848 0.4042 0.6988
H2 H 0.5259 0.3688 0.6003
C2 C 0.5354(12) 0.2185(10) 0.6671(7)
H3 H 0.6109 0.1819 0.6456
H4 H 0.5409 0.2112 0.7322
C3 C 0.3554(10) 0.0161(13) 0.6232(7)
H5 H 0.2645 -0.0284 0.5781
H6 H 0.3411 0.0373 0.6878
C4 C 0.4486(11) -0.0849(11) 0.6169(7)
H7 H 0.3922 -0.1788 0.5974
H8 H 0.4988 -0.0756 0.5683
C5 C 0.6362(11) -0.1624(9) 0.7033(7)
H9 H 0.6825 -0.1568 0.7696
H10 H 0.5784 -0.2554 0.6740
C6 C 0.7409(10) -0.1426(9) 0.6526(7)
H11 H 0.7910 -0.2173 0.6498
H12 H 0.6970 -0.1437 0.5869
C7 C 0.9227(11) 0.0284(9) 0.6428(6)
H13 H 0.8661 0.0547 0.5906
H14 H 0.9596 -0.0496 0.6143
C8 C 1.0403(10) 0.1455(10) 0.6987(6)
H15 H 1.1019 0.1621 0.6578
H16 H 1.0938 0.1203 0.7527
C9 C 0.9130(9) 0.3407(7) 0.6391(5)
C10 C 0.8129(10) 0.4142(8) 0.6363(5)
C11 C 0.8564(7) 0.3706(6) 0.4656(4)
C12 C 0.8310(7) 0.3514(6) 0.3693(4)
C13 C 0.6795(7) 0.2969(6) 0.1959(4)
C14 C 0.7804(6) 0.2227(6) 0.1892(4)
C15 C 0.8041(7) 0.1307(7) 0.1019(5)
C16 C 0.5483(7) 0.3009(7) 0.1229(5)
O1 O 0.4032(8) 0.1401(9) 0.6042(5)
O2 O 0.5436(6) -0.0620(6) 0.7049(4)
O3 O 0.8360(6) -0.0135(5) 0.7010(4)
O4 O 0.9252(5) 0.1084(5) 0.1106(3)
O5 O 0.7080(5) 0.0871(6) 0.0247(3)
O6 O 0.4701(5) 0.1882(5) 0.0701(3)
O7 O 0.5219(6) 0.4158(5) 0.1277(4)
O8 O 1.1049(6) -0.0956(6) 0.0972(3)
H17 H 1.1201 -0.0689 0.1584
H18 H 1.0446 -0.1722 0.0768
O9 O 1.1715(5) 0.1651(5) 0.0437(4)
H19 H 1.2558 0.1649 0.0412
H20 H 1.1730 0.2357 0.0887
O10 O 0.5368(7) -0.0629(6) 0.1276(3)
H21 H 0.5383 -0.1476 0.1234
H22 H 0.5168 -0.0172 0.1773
S1 S 0.7306(4) 0.4726(2) 0.72756(16)
S2 S 0.9884(3) 0.3002(2) 0.74342(14)
S3 S 0.7667(2) 0.47495(19) 0.53230(13)
S4 S 0.9809(2) 0.30600(18) 0.53687(12)
S5 S 0.70439(19) 0.41974(17) 0.30704(11)
S6 S 0.91832(18) 0.25564(18) 0.29375(11)
Co2_2 Co 0.0000 0.0000 0.0000
C1A C 0.4493(13) -0.3647(11) -0.6668(8)
H1A H 0.5152 -0.4042 -0.6988
H2A H 0.4741 -0.3688 -0.6003
C2A C 0.4646(12) -0.2185(10) -0.6671(7)
H3A H 0.3891 -0.1819 -0.6456
H4A H 0.4591 -0.2112 -0.7322
C3A C 0.6446(10) -0.0161(13) -0.6232(7)
H5A H 0.7355 0.0284 -0.5781
H6A H 0.6589 -0.0373 -0.6878
C4A C 0.5514(11) 0.0849(11) -0.6169(7)
H7A H 0.6078 0.1788 -0.5974
H8A H 0.5012 0.0756 -0.5683
C5A C 0.3638(11) 0.1624(9) -0.7033(7)
H9A H 0.3175 0.1568 -0.7696
H10A H 0.4216 0.2554 -0.6740
C6A C 0.2591(10) 0.1426(9) -0.6526(7)
H11A H 0.2090 0.2173 -0.6498
H12A H 0.3030 0.1437 -0.5869
C7A C 0.0773(11) -0.0284(9) -0.6428(6)
H13A H 0.1339 -0.0547 -0.5906
H14A H 0.0404 0.0496 -0.6143
C8A C -0.0403(10) -0.1455(10) -0.6987(6)
H15A H -0.1019 -0.1621 -0.6578
H16A H -0.0938 -0.1203 -0.7527
C9A C 0.0870(9) -0.3407(7) -0.6391(5)
C10A C 0.1871(10) -0.4142(8) -0.6363(5)
C11A C 0.1436(7) -0.3706(6) -0.4656(4)
C12A C 0.1690(7) -0.3514(6) -0.3693(4)
C13A C 0.3205(7) -0.2969(6) -0.1959(4)
C14A C 0.2196(6) -0.2227(6) -0.1892(4)
C15A C 0.1959(7) -0.1307(7) -0.1019(5)
C16A C 0.4517(7) -0.3009(7) -0.1229(5)
O1A O 0.5968(8) -0.1401(9) -0.6042(5)
O2A O 0.4564(6) 0.0620(6) -0.7049(4)
O3A O 0.1640(6) 0.0135(5) -0.7010(4)
O4A O 0.0748(5) -0.1084(5) -0.1106(3)
O4A_2 O 1.0748(5) -0.1084(5) -0.1106(3)
O5A O 0.2920(5) -0.0871(6) -0.0247(3)
O6A O 0.5299(5) -0.1882(5) -0.0701(3)
O7A O 0.4781(6) -0.4158(5) -0.1277(4)
O8A O 0.8951(6) 0.0956(6) -0.0972(3)
H17A H 0.8799 0.0689 -0.1584
H18A H 0.9554 0.1722 -0.0768
O9A O 0.8285(5) -0.1651(5) -0.0437(4)
H19A H 0.7442 -0.1649 -0.0412
H20A H 0.8270 -0.2357 -0.0887
O10A O 0.4632(7) 0.0629(6) -0.1276(3)
H21A H 0.4617 0.1476 -0.1234
H22A H 0.4832 0.0172 -0.1773
S1A S 0.2694(4) -0.4726(2) -0.72756(16)
S2A S 0.0116(3) -0.3002(2) -0.74342(14)
S3A S 0.2333(2) -0.47495(19) -0.53230(13)
S4A S 0.0191(2) -0.30600(18) -0.53687(12)
S5A S 0.29561(19) -0.41974(17) -0.30704(11)
S6A S 0.08168(18) -0.25564(18) -0.29375(11)
O11 O 0.6166(12) 0.6863(12) 0.1123(8)
H23 H 0.6557 0.7710 0.1407
H24 H 0.5821 0.6525 0.1522
O12 O 0.760(3) 0.329(3) 0.9346(19)
H25 H 0.7225 0.2825 0.8760
H26 H 0.7524 0.2734 0.9695
O13 O 0.778(2) 0.5724(19) -0.0131(13)
H27 H 0.8556 0.5665 0.0218
H28 H 0.7128 0.5403 0.0095
loop_
_geom_bond_atom_site_label_1
_geom_bond_atom_site_label_2
_geom_bond_site_symmetry_1
_geom_bond_site_symmetry_2
Co1 O5 1_555 1_555
Co2 O4 1_555 1_555
C1 H1 1_555 1_555
H2 C1 1_555 1_555
C2 C1 1_555 1_555
H3 C2 1_555 1_555
H4 C2 1_555 1_555
C3 H5 1_555 1_555
H6 C3 1_555 1_555
C4 C3 1_555 1_555
H7 C4 1_555 1_555
H8 C4 1_555 1_555
C5 H9 1_555 1_555
H10 C5 1_555 1_555
C6 C5 1_555 1_555
H11 C6 1_555 1_555
H12 C6 1_555 1_555
C7 H13 1_555 1_555
H14 C7 1_555 1_555
C8 C7 1_555 1_555
H15 C8 1_555 1_555
H16 C8 1_555 1_555
C9 C10 1_555 1_555
C10 S1 1_555 1_555
C11 C12 1_555 1_555
C12 S5 1_555 1_555
C13 C14 1_555 1_555
C14 C15 1_555 1_555
C15 O4 1_555 1_555
C16 C13 1_555 1_555
O1 C2 1_555 1_555
O2 C4 1_555 1_555
O3 C6 1_555 1_555
O5 C15 1_555 1_555
O6 Co1 1_555 1_555
O7 C16 1_555 1_555
O8 Co2 1_555 1_555
H17 O8 1_555 1_555
H18 O8 1_555 1_555
O9 Co2 1_555 1_555
H19 O9 1_555 1_555
H20 O9 1_555 1_555
O10 Co1 1_555 1_555
H21 O10 1_555 1_555
H22 O10 1_555 1_555
O11 H23 1_555 1_555
H24 O11 1_555 1_555
O12 H25 1_555 1_555
H26 O12 1_555 1_555
O13 H27 1_555 1_555
H28 O13 1_555 1_555
S1 C1 1_555 1_555
S2 C8 1_555 1_555
S3 C10 1_555 1_555
S4 C9 1_555 1_555
S5 C13 1_555 1_555
S6 C12 1_555 1_555
Co2_2 O4A 1_555 1_555
C1A H1A 1_555 1_555
H2A C1A 1_555 1_555
C2A C1A 1_555 1_555
H3A C2A 1_555 1_555
H4A C2A 1_555 1_555
C3A H5A 1_555 1_555
H6A C3A 1_555 1_555
C4A C3A 1_555 1_555
H7A C4A 1_555 1_555
H8A C4A 1_555 1_555
C5A H9A 1_555 1_555
H10A C5A 1_555 1_555
C6A C5A 1_555 1_555
H11A C6A 1_555 1_555
H12A C6A 1_555 1_555
C7A H13A 1_555 1_555
H14A C7A 1_555 1_555
C8A C7A 1_555 1_555
H15A C8A 1_555 1_555
H16A C8A 1_555 1_555
C9A C10A 1_555 1_555
C10A S1A 1_555 1_555
C11A C12A 1_555 1_555
C12A S5A 1_555 1_555
C13A C14A 1_555 1_555
C14A C15A 1_555 1_555
C15A O4A 1_555 1_555
C16A C13A 1_555 1_555
O1A C2A 1_555 1_555
O2A C4A 1_555 1_555
O3A C6A 1_555 1_555
O4A_2 Co2 1_555 1_555
O5A Co1 1_555 1_555
O6A Co1 1_555 1_555
O7A C16A 1_555 1_555
O8A Co2 1_555 1_555
H17A O8A 1_555 1_555
H18A O8A 1_555 1_555
O9A Co2 1_555 1_555
H19A O9A 1_555 1_555
H20A O9A 1_555 1_555
O10A Co1 1_555 1_555
H21A O10A 1_555 1_555
H22A O10A 1_555 1_555
S1A C1A 1_555 1_555
S2A C8A 1_555 1_555
S3A C10A 1_555 1_555
S4A C9A 1_555 1_555
S5A C13A 1_555 1_555
S6A C12A 1_555 1_555
C3 O1 1_555 1_555
C5 O2 1_555 1_555
C7 O3 1_555 1_555
C9 S2 1_555 1_555
C11 S3 1_555 1_555
C11 S4 1_555 1_555
C14 S6 1_555 1_555
C16 O6 1_555 1_555
C3A O1A 1_555 1_555
C5A O2A 1_555 1_555
C7A O3A 1_555 1_555
C9A S2A 1_555 1_555
C11A S3A 1_555 1_555
C11A S4A 1_555 1_555
C14A S6A 1_555 1_555
C15A O5A 1_555 1_555
C16A O6A 1_555 1_555

#END
