
#######################################################################
#
#                 Cambridge Crystallographic Data Centre
#                                CCDC 
#
#######################################################################
#
# If this CIF has been generated from an entry in the Cambridge 
# Structural Database, then it will include bibliographic, chemical, 
# crystal, experimental, refinement or atomic coordinate data resulting 
# from the CCDC's data processing and validation procedures.
#
#######################################################################

data_XUYMAG
_symmetry_cell_setting           triclinic
_symmetry_space_group_name_H-M   'P -1'
_symmetry_Int_Tables_number      2
_space_group_name_Hall           '-P 1'
loop_
_symmetry_equiv_pos_site_id
_symmetry_equiv_pos_as_xyz
1 x,y,z
2 -x,-y,-z
_cell_length_a                   10.4585(11)
_cell_length_b                   11.0901(12)
_cell_length_c                   13.6890(15)
_cell_angle_alpha                107.747(2)
_cell_angle_beta                 106.8520(10)
_cell_angle_gamma                102.640(2)
_cell_volume                     1362.57
loop_
_atom_site_label
_atom_site_type_symbol
_atom_site_fract_x
_atom_site_fract_y
_atom_site_fract_z
Ag1 Ag -0.11620(4) -0.26702(6) 0.05076(3)
Nd1 Nd -0.63607(2) -0.95343(2) -1.111720(16)
C1 C -0.3225(4) -0.7433(4) -0.8988(3)
C2 C -0.2937(4) -0.6021(4) -0.8231(3)
C3 C -0.2459(5) -0.5659(4) -0.7094(3)
H1 H -0.2238 -0.6271 -0.6795
C4 C -0.2310(5) -0.4384(4) -0.6401(3)
C5 C -0.2635(5) -0.3475(4) -0.6844(3)
H2 H -0.2557 -0.2628 -0.6382
C6 C -0.3079(4) -0.3830(4) -0.7985(3)
C7 C -0.3232(4) -0.5095(4) -0.8673(3)
H3 H -0.3534 -0.5330 -0.9436
C8 C -0.3439(4) -0.2832(4) -0.8443(3)
C9 C -0.2549(5) -0.4761(5) -0.4802(4)
C10 C -0.2166(5) -0.4224(5) -0.3571(4)
C11 C -0.3245(5) -0.4426(5) -0.3190(4)
H4 H -0.4183 -0.4861 -0.3689
C12 C -0.2926(6) -0.3981(5) -0.2073(4)
H5 H -0.3668 -0.4098 -0.1828
C13 C -0.0558(5) -0.3191(6) -0.1690(4)
H6 H 0.0373 -0.2764 -0.1176
C14 C -0.0794(5) -0.3589(5) -0.2795(4)
H7 H -0.0038 -0.3434 -0.3021
C15 C 0.6730(4) -0.0671(4) 0.9037(3)
C16 C 0.7024(4) -0.0835(4) 0.8008(3)
C17 C 0.8404(4) -0.0553(4) 0.8045(3)
H8 H 0.9163 -0.0242 0.8721
C18 C 0.8650(4) -0.0731(4) 0.7080(3)
C19 C 0.7498(4) -0.1194(4) 0.6071(3)
H9 H 0.7652 -0.1312 0.5418
C20 C 0.6144(4) -0.1474(4) 0.6043(3)
C21 C 0.5892(4) -0.1326(4) 0.6999(3)
H10 H 0.4966 -0.1555 0.6967
C22 C 1.0100(4) -0.0593(4) 0.7072(3)
C23 C 0.4799(4) -0.1532(4) 0.4226(3)
C24 C 0.3323(4) -0.2096(4) 0.3340(3)
C25 C 0.3173(5) -0.2318(6) 0.2266(4)
H11 H 0.3964 -0.2189 0.2079
C26 C 0.1830(5) -0.2737(6) 0.1467(4)
H12 H 0.1731 -0.2928 0.0733
C27 C 0.0833(5) -0.2678(6) 0.2745(4)
H13 H 0.0029 -0.2799 0.2918
C28 C 0.2123(5) -0.2305(6) 0.3573(4)
H14 H 0.2189 -0.2193 0.4290
N1 N -0.1593(4) -0.3382(5) -0.1313(3)
N2 N -0.1885(4) -0.4010(4) -0.5223(3)
H15 H -0.1186 -0.3284 -0.4779
N3 N 0.0671(4) -0.2879(5) 0.1696(3)
N4 N 0.4934(4) -0.1999(4) 0.5032(3)
H16 H 0.4238 -0.2665 0.4931
O1 O -0.4022(3) -0.7814(3) -0.9990(2)
O2 O -0.2655(3) -0.8144(3) -0.8578(2)
O3 O -0.3336(3) -0.2862(3) -0.9347(2)
O4 O -0.3825(3) -0.1967(3) -0.7896(2)
O5 O -0.3473(5) -0.5857(4) -0.5380(3)
O6 O 0.5538(3) -0.0608(3) 0.9041(2)
O7 O 0.7659(3) -0.0624(3) 0.9874(2)
O8 O 1.0191(3) -0.1319(3) 0.6207(2)
O9 O 1.1140(3) 0.0215(3) 0.7941(2)
O10 O 0.5751(3) -0.0701(3) 0.4207(2)
O11 O -0.6997(3) -1.0811(3) -1.3171(2)
H17 H -0.6531 -1.0324 -1.3411
H18 H -0.7875 -1.0989 -1.3524
Ag1_2 Ag -0.11620(4) -0.26702(6) -0.94924(3)
Nd1A Nd -0.36393(2) -1.04657(2) -0.888280(16)
Nd1A_2 Nd -0.36393(2) -0.04657(2) -0.888280(16)
Nd1_2 Nd 0.36393(2) 0.04657(2) 0.888280(16)
Nd1A_3 Nd 0.63607(2) -0.04657(2) 1.111720(16)
Nd1_3 Nd 1.36393(2) 0.04657(2) 0.888280(16)
O2A O -0.7345(3) -1.1856(3) -1.1422(2)
O3_2 O -0.3336(3) -0.2862(3) 0.0653(2)
O3A O -0.6664(3) -0.7138(3) -1.0653(2)
O4A O -0.6175(3) -0.8033(3) -1.2104(2)
O6_2 O -0.4462(3) -1.0608(3) -1.0959(2)
O6A O -0.5538(3) -0.9392(3) -0.9041(2)
O7A O -0.7659(3) -0.9376(3) -0.9874(2)
O9_2 O -0.8860(3) -0.9785(3) -1.2059(2)
loop_
_geom_bond_atom_site_label_1
_geom_bond_atom_site_label_2
_geom_bond_site_symmetry_1
_geom_bond_site_symmetry_2
Ag1 N1 1_555 1_555
Nd1 O1 1_555 1_555
C1 C2 1_555 1_555
C2 C3 1_555 1_555
C3 H1 1_555 1_555
C4 C3 1_555 1_555
C5 C4 1_555 1_555
H2 C5 1_555 1_555
C6 C5 1_555 1_555
C7 C2 1_555 1_555
H3 C7 1_555 1_555
C8 C6 1_555 1_555
C9 C10 1_555 1_555
C10 C11 1_555 1_555
C11 H4 1_555 1_555
C12 C11 1_555 1_555
H5 C12 1_555 1_555
C13 H6 1_555 1_555
C14 C10 1_555 1_555
H7 C14 1_555 1_555
C15 C16 1_555 1_555
C16 C17 1_555 1_555
C17 H8 1_555 1_555
C18 C17 1_555 1_555
C19 C18 1_555 1_555
H9 C19 1_555 1_555
C20 C19 1_555 1_555
C21 C16 1_555 1_555
H10 C21 1_555 1_555
C22 C18 1_555 1_555
C23 C24 1_555 1_555
C24 C25 1_555 1_555
C25 H11 1_555 1_555
C26 C25 1_555 1_555
H12 C26 1_555 1_555
C27 H13 1_555 1_555
C28 C24 1_555 1_555
H14 C28 1_555 1_555
N1 C12 1_555 1_555
N2 C4 1_555 1_555
H15 N2 1_555 1_555
N3 Ag1 1_555 1_555
N4 C20 1_555 1_555
H16 N4 1_555 1_555
O1 C1 1_555 1_555
O2 C1 1_555 1_555
O3 C8 1_555 1_555
O4 C8 1_555 1_555
O5 C9 1_555 1_555
O6 C15 1_555 1_555
O7 C15 1_555 1_555
O8 C22 1_555 1_555
O9 C22 1_555 1_555
O10 C23 1_555 1_555
O11 Nd1 1_555 1_555
H17 O11 1_555 1_555
H18 O11 1_555 1_555
Ag1_2 O3 1_555 1_555
Nd1A O2 1_555 1_555
Nd1A_2 O3 1_555 1_555
Nd1_2 O6 1_555 1_555
Nd1A_3 O6 1_555 1_555
Nd1_3 O9 1_555 1_555
O2A Nd1 1_555 1_555
O3_2 Ag1 1_555 1_555
O3A Nd1 1_555 1_555
O4A Nd1 1_555 1_555
O6_2 Nd1 1_555 1_555
O6A Nd1 1_555 1_555
O7A Nd1 1_555 1_555
O9_2 Nd1 1_555 1_555
C6 C7 1_555 1_555
C9 N2 1_555 1_555
C13 C14 1_555 1_555
C13 N1 1_555 1_555
C20 C21 1_555 1_555
C23 N4 1_555 1_555
C26 N3 1_555 1_555
C27 C28 1_555 1_555
C27 N3 1_555 1_555
O4 Nd1A_2 1_555 1_555
O7 Nd1A_3 1_555 1_555
Nd1A O6_2 1_555 1_555
Nd1A O6A 1_555 1_555

#END
