
#######################################################################
#
#                 Cambridge Crystallographic Data Centre
#                                CCDC 
#
#######################################################################
#
# If this CIF has been generated from an entry in the Cambridge 
# Structural Database, then it will include bibliographic, chemical, 
# crystal, experimental, refinement or atomic coordinate data resulting 
# from the CCDC's data processing and validation procedures.
#
#######################################################################

data_XUYNEL
_symmetry_cell_setting           orthorhombic
_symmetry_space_group_name_H-M   'P b c a'
_symmetry_Int_Tables_number      61
_space_group_name_Hall           '-P 2ac 2ab'
loop_
_symmetry_equiv_pos_site_id
_symmetry_equiv_pos_as_xyz
1 x,y,z
2 1/2-x,-y,1/2+z
3 1/2+x,1/2-y,-z
4 -x,1/2+y,1/2-z
5 -x,-y,-z
6 1/2+x,y,1/2-z
7 1/2-x,1/2+y,z
8 x,1/2-y,1/2+z
_cell_length_a                   18.370(4)
_cell_length_b                   9.5403(19)
_cell_length_c                   21.034(4)
_cell_angle_alpha                90
_cell_angle_beta                 90
_cell_angle_gamma                90
_cell_volume                     3686.32
loop_
_atom_site_label
_atom_site_type_symbol
_atom_site_fract_x
_atom_site_fract_y
_atom_site_fract_z
C1 C -0.1044(3) -0.1947(6) 0.3019(3)
C2 C 0.2281(2) 0.0069(5) 0.3292(2)
C3 C 0.2134(2) 0.0734(5) 0.3925(2)
C4 C 0.0593(2) 0.0335(5) 0.3330(2)
H1 H 0.0832 0.1083 0.3138
C5 C 0.2684(3) 0.1441(5) 0.4237(2)
H2 H 0.3127 0.1589 0.4033
C6 C -0.0009(2) -0.0246(5) 0.3031(2)
H3 H -0.0169 0.0105 0.2643
C7 C 0.0848(2) -0.0170(5) 0.3907(2)
C8 C 0.1468(2) 0.0511(5) 0.4236(2)
C9 C -0.0116(3) -0.1869(5) 0.3882(2)
H4 H -0.0351 -0.2627 0.4070
C10 C -0.0368(2) -0.1355(5) 0.3318(2)
C11 C 0.3887(3) 0.2035(6) 0.1194(2)
H5 H 0.4145 0.1473 0.0911
C12 C 0.3237(3) 0.1740(5) 0.1469(2)
H6 H 0.2967 0.0929 0.1398
C13 C 0.3570(3) 0.3741(5) 0.1819(2)
H7 H 0.3583 0.4584 0.2041
C14 C 0.0480(3) -0.1282(5) 0.4178(2)
H8 H 0.0638 -0.1640 0.4566
C15 C 0.4772(3) 0.4061(6) 0.1293(2)
H9 H 0.5173 0.3458 0.1416
H10 H 0.4792 0.4891 0.1559
C16 C 0.1943(3) 0.1703(6) 0.5160(3)
H11 H 0.1883 0.2009 0.5577
C17 C 0.2582(3) 0.1929(6) 0.4846(3)
H12 H 0.2955 0.2420 0.5047
C18 C 0.1382(3) 0.1009(6) 0.4848(2)
H13 H 0.0940 0.0878 0.5055
C19 C 0.4305(3) 0.4950(5) 0.0241(2)
H14 H 0.3832 0.4920 0.0399
C20 C 0.4873(3) 0.4491(5) 0.0613(2)
C21 C 0.5572(3) 0.4546(5) 0.0364(3)
H15 H 0.5962 0.4239 0.0609
Co1 Co 0.22672(3) 0.27865(6) 0.25412(3)
N1 N 0.3034(2) 0.2816(4) 0.18679(18)
N2 N 0.4088(2) 0.3326(4) 0.14177(19)
O1 O 0.23510(17) 0.0794(3) 0.27991(14)
O2 O 0.23332(18) -0.1230(3) 0.32875(15)
O3 O -0.12888(17) -0.1370(4) 0.25212(18)
O4 O -0.13633(19) -0.2941(4) 0.32784(17)
C1D C 1.1044(3) 1.1947(6) -0.3019(3)
C2D C 0.7719(2) 0.9931(5) -0.3292(2)
C3D C 0.7866(2) 0.9266(5) -0.3925(2)
C4D C 0.9407(2) 0.9665(5) -0.3330(2)
H1D H 0.9168 0.8917 -0.3138
C5D C 0.7316(3) 0.8559(5) -0.4237(2)
H2D H 0.6873 0.8411 -0.4033
C6D C 1.0009(2) 1.0246(5) -0.3031(2)
H3D H 1.0169 0.9895 -0.2643
C7D C 0.9152(2) 1.0170(5) -0.3907(2)
C8D C 0.8532(2) 0.9489(5) -0.4236(2)
C9D C 1.0116(3) 1.1869(5) -0.3882(2)
H4D H 1.0351 1.2627 -0.4070
C10D C 1.0368(2) 1.1355(5) -0.3318(2)
C11D C 0.6113(3) 0.7965(6) -0.1194(2)
H5D H 0.5855 0.8527 -0.0911
C12D C 0.6763(3) 0.8260(5) -0.1469(2)
H6D H 0.7033 0.9071 -0.1398
C13D C 0.6430(3) 0.6259(5) -0.1819(2)
H7D H 0.6417 0.5416 -0.2041
C14D C 0.9520(3) 1.1282(5) -0.4178(2)
H8D H 0.9362 1.1640 -0.4566
C15D C 0.5228(3) 0.5939(6) -0.1293(2)
H9D H 0.4827 0.6542 -0.1416
H10D H 0.5208 0.5109 -0.1559
C16D C 0.8057(3) 0.8297(6) -0.5160(3)
H11D H 0.8117 0.7991 -0.5577
C17D C 0.7418(3) 0.8071(6) -0.4846(3)
H12D H 0.7045 0.7580 -0.5047
C18D C 0.8618(3) 0.8991(6) -0.4848(2)
H13D H 0.9060 0.9122 -0.5055
C19D C 0.5695(3) 0.5050(5) -0.0241(2)
H14D H 0.6168 0.5080 -0.0399
C20D C 0.5127(3) 0.5509(5) -0.0613(2)
C21D C 0.4428(3) 0.5454(5) -0.0364(3)
H15D H 0.4038 0.5761 -0.0609
Co1D Co 0.77328(3) 0.72135(6) -0.25412(3)
Co1B Co 0.72672(3) 1.22135(6) -0.25412(3)
Co1C Co -0.22672(3) -0.22135(6) 0.24588(3)
Co1F Co 0.27328(3) -0.22135(6) 0.25412(3)
Co1G Co 1.22672(3) 1.22135(6) -0.24588(3)
N1D N 0.6966(2) 0.7184(4) -0.18679(18)
N2D N 0.5912(2) 0.6674(4) -0.14177(19)
O1D O 0.76490(17) 0.9206(3) -0.27991(14)
O2D O 0.76668(18) 1.1230(3) -0.32875(15)
O2B O 0.73332(18) 0.6230(3) -0.32875(15)
O2F O 0.26668(18) 0.3770(3) 0.32875(15)
O3D O 1.12888(17) 1.1370(4) -0.25212(18)
O3C O 0.12888(17) 0.3630(4) 0.24788(18)
O3G O 0.87112(17) 0.6370(4) -0.24788(18)
O4D O 1.13633(19) 1.2941(4) -0.32784(17)
O5 O 0.9044(8) 0.1267(18) 0.1895(7)
loop_
_geom_bond_atom_site_label_1
_geom_bond_atom_site_label_2
_geom_bond_site_symmetry_1
_geom_bond_site_symmetry_2
C1 C10 1_555 1_555
C2 C3 1_555 1_555
C3 C5 1_555 1_555
C4 H1 1_555 1_555
C5 H2 1_555 1_555
C6 C4 1_555 1_555
H3 C6 1_555 1_555
C7 C4 1_555 1_555
C8 C3 1_555 1_555
C9 H4 1_555 1_555
C10 C6 1_555 1_555
C11 H5 1_555 1_555
C12 C11 1_555 1_555
H6 C12 1_555 1_555
C13 H7 1_555 1_555
C14 C7 1_555 1_555
H8 C14 1_555 1_555
C15 H9 1_555 1_555
H10 C15 1_555 1_555
C16 H11 1_555 1_555
C17 C5 1_555 1_555
H12 C17 1_555 1_555
C18 C8 1_555 1_555
H13 C18 1_555 1_555
C19 H14 1_555 1_555
C20 C15 1_555 1_555
C21 C20 1_555 1_555
H15 C21 1_555 1_555
Co1 N1 1_555 1_555
N1 C12 1_555 1_555
N2 C11 1_555 1_555
O1 C2 1_555 1_555
O2 C2 1_555 1_555
O3 C1 1_555 1_555
O4 C1 1_555 1_555
C1D C10D 1_555 1_555
C2D C3D 1_555 1_555
C3D C5D 1_555 1_555
C4D H1D 1_555 1_555
C5D H2D 1_555 1_555
C6D C4D 1_555 1_555
H3D C6D 1_555 1_555
C7D C4D 1_555 1_555
C8D C3D 1_555 1_555
C9D H4D 1_555 1_555
C10D C6D 1_555 1_555
C11D H5D 1_555 1_555
C12D C11D 1_555 1_555
H6D C12D 1_555 1_555
C13D H7D 1_555 1_555
C14D C7D 1_555 1_555
H8D C14D 1_555 1_555
C15D H9D 1_555 1_555
H10D C15D 1_555 1_555
C16D H11D 1_555 1_555
C17D C5D 1_555 1_555
H12D C17D 1_555 1_555
C18D C8D 1_555 1_555
H13D C18D 1_555 1_555
C19D C21 1_555 1_555
H14D C19D 1_555 1_555
C20D C15D 1_555 1_555
C21D C19 1_555 1_555
H15D C21D 1_555 1_555
Co1D N1D 1_555 1_555
Co1B O2D 1_555 1_555
Co1C O3 1_555 1_555
Co1F O2 1_555 1_555
Co1G O3D 1_555 1_555
N1D C12D 1_555 1_555
N2D C11D 1_555 1_555
O1D C2D 1_555 1_555
O2D C2D 1_555 1_555
O2B Co1D 1_555 1_555
O2F Co1 1_555 1_555
O3D C1D 1_555 1_555
O3C Co1 1_555 1_555
O3G Co1D 1_555 1_555
O4D C1D 1_555 1_555
C7 C8 1_555 1_555
C9 C10 1_555 1_555
C9 C14 1_555 1_555
C13 N1 1_555 1_555
C13 N2 1_555 1_555
C15 N2 1_555 1_555
C16 C17 1_555 1_555
C16 C18 1_555 1_555
C19 C20 1_555 1_555
Co1 O1 1_555 1_555
C7D C8D 1_555 1_555
C9D C10D 1_555 1_555
C9D C14D 1_555 1_555
C13D N1D 1_555 1_555
C13D N2D 1_555 1_555
C15D N2D 1_555 1_555
C16D C17D 1_555 1_555
C16D C18D 1_555 1_555
C19D C20D 1_555 1_555
C20D C21D 1_555 1_555
Co1D O1D 1_555 1_555

#END
