
#######################################################################
#
#                 Cambridge Crystallographic Data Centre
#                                CCDC 
#
#######################################################################
#
# If this CIF has been generated from an entry in the Cambridge 
# Structural Database, then it will include bibliographic, chemical, 
# crystal, experimental, refinement or atomic coordinate data resulting 
# from the CCDC's data processing and validation procedures.
#
#######################################################################

data_XUYNAH
_symmetry_cell_setting           monoclinic
_symmetry_space_group_name_H-M   'P 21/c'
_symmetry_Int_Tables_number      14
_space_group_name_Hall           '-P 2ybc'
loop_
_symmetry_equiv_pos_site_id
_symmetry_equiv_pos_as_xyz
1 x,y,z
2 -x,1/2+y,1/2-z
3 -x,-y,-z
4 x,1/2-y,1/2+z
_cell_length_a                   11.568(2)
_cell_length_b                   14.658(3)
_cell_length_c                   16.150(6)
_cell_angle_alpha                90
_cell_angle_beta                 116.52(2)
_cell_angle_gamma                90
_cell_volume                     2450.31
loop_
_atom_site_label
_atom_site_type_symbol
_atom_site_fract_x
_atom_site_fract_y
_atom_site_fract_z
C1 C 0.40096(18) -0.25409(12) 0.30599(14)
C2 C 0.34260(17) -0.16244(11) 0.30431(13)
C3 C 0.23319(18) -0.13376(12) 0.22837(13)
H1 H 0.1942 -0.1717 0.1771
C4 C 0.18072(18) -0.04828(12) 0.22805(13)
H2 H 0.1070 -0.0294 0.1764
C5 C 0.23701(16) 0.00865(11) 0.30363(12)
C6 C 0.34655(18) -0.02166(12) 0.38044(13)
H3 H 0.3849 0.0156 0.4323
C7 C 0.39890(18) -0.10613(12) 0.38069(14)
H4 H 0.4723 -0.1253 0.4324
C8 C 0.18186(17) 0.10018(12) 0.30494(12)
C9 C 0.0587(2) 0.10560(15) 0.30055(14)
H5 H 0.0114 0.0525 0.2936
C10 C 0.0058(2) 0.18892(18) 0.30639(16)
H6 H -0.0770 0.1917 0.3020
C11 C 0.0770(2) 0.26733(16) 0.31868(16)
H7 H 0.0431 0.3232 0.3244
C12 C 0.1984(2) 0.26345(14) 0.32252(14)
H8 H 0.2454 0.3170 0.3306
C13 C 0.25199(18) 0.18080(12) 0.31449(12)
C14 C 0.37841(19) 0.18305(12) 0.30832(14)
C15 C -0.40677(18) -0.93558(13) -0.08806(13)
H9 H -0.4378 -0.8919 -0.1347
C16 C -0.3673(2) -1.06307(14) -0.01555(14)
H10 H -0.3663 -1.1251 -0.0032
C17 C -0.3073(2) -0.99800(15) 0.04777(15)
H11 H -0.2581 -1.0065 0.1111
C18 C -0.2891(2) -0.82617(14) 0.04035(16)
H12 H -0.3535 -0.7818 0.0030
H13 H -0.2834 -0.8245 0.1021
C19 C -0.16028(17) -0.79837(12) 0.04590(12)
C20 C -0.11779(19) -0.71010(13) 0.07320(15)
H14 H -0.1696 -0.6700 0.0864
C21 C -0.0005(2) -0.68062(14) 0.08115(15)
H15 H 0.0259 -0.6210 0.0999
C22 C 0.07887(17) -0.73807(13) 0.06168(13)
C23 C 0.0371(2) -0.82653(14) 0.03487(15)
H16 H 0.0892 -0.8667 0.0220
C24 C -0.0808(2) -0.85607(14) 0.02687(15)
H17 H -0.1071 -0.9157 0.0084
C25 C 0.2087(2) -0.71154(15) 0.06898(17)
H18 H 0.2080 -0.7213 0.0094
H19 H 0.2736 -0.7517 0.1132
C26 C 0.1979(3) -0.53985(17) 0.04587(16)
H20 H 0.1326 -0.5369 -0.0145
C27 C 0.2622(3) -0.46935(17) 0.09919(16)
H21 H 0.2481 -0.4084 0.0817
C28 C 0.33911(18) -0.58982(12) 0.17933(14)
H22 H 0.3881 -0.6291 0.2275
Co1 Co 0.47335(2) -0.407990(15) 0.276630(17)
N1 N -0.43040(15) -1.02366(10) -0.10157(11)
N2 N -0.33265(15) -0.91694(10) 0.00116(11)
N3 N 0.24663(16) -0.61702(11) 0.09730(12)
N4 N 0.35194(15) -0.50040(11) 0.18323(11)
O1 O 0.51315(14) -0.27109(9) 0.36453(11)
O2 O 0.33376(13) -0.31377(9) 0.24833(11)
O3 O 0.39069(14) 0.12108(9) 0.25802(11)
O4 O 0.45538(17) 0.24515(12) 0.34532(14)
Co1C Co -0.52665(2) -1.092010(15) -0.223370(17)
Co1A Co 0.52665(2) 0.092010(15) 0.223370(17)
N1C N 0.56960(15) -0.47634(10) 0.39843(11)
O3A O 0.60931(14) -0.37892(9) 0.24198(11)
loop_
_geom_bond_atom_site_label_1
_geom_bond_atom_site_label_2
_geom_bond_site_symmetry_1
_geom_bond_site_symmetry_2
C1 C2 1_555 1_555
C2 C3 1_555 1_555
C3 H1 1_555 1_555
C4 C3 1_555 1_555
H2 C4 1_555 1_555
C5 C4 1_555 1_555
C6 C5 1_555 1_555
H3 C6 1_555 1_555
C7 C2 1_555 1_555
H4 C7 1_555 1_555
C8 C5 1_555 1_555
C9 C8 1_555 1_555
H5 C9 1_555 1_555
C10 C9 1_555 1_555
H6 C10 1_555 1_555
C11 C10 1_555 1_555
H7 C11 1_555 1_555
C12 C11 1_555 1_555
H8 C12 1_555 1_555
C13 C8 1_555 1_555
C14 C13 1_555 1_555
C15 H9 1_555 1_555
C16 H10 1_555 1_555
C17 C16 1_555 1_555
H11 C17 1_555 1_555
C18 H12 1_555 1_555
H13 C18 1_555 1_555
C19 C18 1_555 1_555
C20 C19 1_555 1_555
H14 C20 1_555 1_555
C21 C20 1_555 1_555
H15 C21 1_555 1_555
C22 C21 1_555 1_555
C23 C22 1_555 1_555
H16 C23 1_555 1_555
C24 C19 1_555 1_555
H17 C24 1_555 1_555
C25 C22 1_555 1_555
H18 C25 1_555 1_555
H19 C25 1_555 1_555
C26 H20 1_555 1_555
C27 C26 1_555 1_555
H21 C27 1_555 1_555
C28 H22 1_555 1_555
Co1 N4 1_555 1_555
N1 C15 1_555 1_555
N2 C15 1_555 1_555
N3 C25 1_555 1_555
N4 C27 1_555 1_555
O1 C1 1_555 1_555
O2 C1 1_555 1_555
O3 C14 1_555 1_555
O4 C14 1_555 1_555
Co1C N1 1_555 1_555
Co1A O3 1_555 1_555
N1C Co1 1_555 1_555
O3A Co1 1_555 1_555
C6 C7 1_555 1_555
C12 C13 1_555 1_555
C16 N1 1_555 1_555
C17 N2 1_555 1_555
C18 N2 1_555 1_555
C23 C24 1_555 1_555
C26 N3 1_555 1_555
C28 N3 1_555 1_555
C28 N4 1_555 1_555
Co1 O2 1_555 1_555

#END
