
#######################################################################
#
#                 Cambridge Crystallographic Data Centre
#                                CCDC 
#
#######################################################################
#
# If this CIF has been generated from an entry in the Cambridge 
# Structural Database, then it will include bibliographic, chemical, 
# crystal, experimental, refinement or atomic coordinate data resulting 
# from the CCDC's data processing and validation procedures.
#
#######################################################################

data_XUYPAJ
_symmetry_cell_setting           triclinic
_symmetry_space_group_name_H-M   'P -1'
_symmetry_Int_Tables_number      2
_space_group_name_Hall           '-P 1'
loop_
_symmetry_equiv_pos_site_id
_symmetry_equiv_pos_as_xyz
1 x,y,z
2 -x,-y,-z
_cell_length_a                   7.5591(5)
_cell_length_b                   11.1614(8)
_cell_length_c                   13.0251(9)
_cell_angle_alpha                76.8160(10)
_cell_angle_beta                 89.2920(10)
_cell_angle_gamma                79.6100(10)
_cell_volume                     1051.95
loop_
_atom_site_label
_atom_site_type_symbol
_atom_site_fract_x
_atom_site_fract_y
_atom_site_fract_z
Cd1 Cd -0.5000 0.0000 0.0000
O1 O 0.4510(5) -0.2036(3) 0.0400(3)
O8 O -0.5314(6) 0.0222(4) -0.1732(3)
H1 H -0.502(9) 0.082(4) -0.217(4)
H2 H -0.503(9) -0.049(3) -0.185(5)
N1 N -0.2052(5) -0.1030(4) -0.0048(3)
N2 N 0.4084(6) -0.3958(4) 0.0331(4)
C1 C -0.1369(7) -0.1931(5) 0.0794(4)
H3 H -0.2121 -0.2146 0.1351
C2 C 0.0395(7) -0.2556(4) 0.0874(4)
H4 H 0.0809 -0.3190 0.1463
C3 C 0.1543(6) -0.2216(4) 0.0054(4)
C4 C 0.0850(7) -0.1304(5) -0.0827(4)
H5 H 0.1575 -0.1073 -0.1393
C5 C -0.0950(7) -0.0740(5) -0.0850(4)
H6 H -0.1414 -0.0135 -0.1447
C6 C 0.3511(6) -0.2736(4) 0.0232(4)
C7 C 0.3048(7) -0.4833(5) 0.0022(6)
H7 H 0.2842 -0.5463 0.0638
H8 H 0.1890 -0.4381 -0.0288
C8 C 0.5910(7) -0.4563(5) 0.0751(5)
H9 H 0.5827 -0.5187 0.1395
H10 H 0.6531 -0.3941 0.0921
Cd1_2 Cd 0.5000 -1.0000 0.0000
Cd1_3 Cd 0.5000 0.0000 0.0000
Cd1_4 Cd 1.5000 -1.0000 0.0000
O1A O 0.5490(5) -0.7964(3) -0.0400(3)
O1_2 O -0.5490(5) -0.2036(3) 0.0400(3)
O1A_2 O -0.4510(5) 0.2036(3) -0.0400(3)
O8A O -0.4686(6) -0.0222(4) 0.1732(3)
H1A H -0.498(9) -0.082(4) 0.217(4)
H2A H -0.497(9) 0.049(3) 0.185(5)
N1A N 1.2052(5) -0.8970(4) 0.0048(3)
N1A_2 N -0.7948(5) 0.1030(4) 0.0048(3)
N2A N 0.5916(6) -0.6042(4) -0.0331(4)
C1A C 1.1369(7) -0.8069(5) -0.0794(4)
H3A H 1.2121 -0.7854 -0.1351
C2A C 0.9605(7) -0.7444(4) -0.0874(4)
H4A H 0.9191 -0.6810 -0.1463
C3A C 0.8457(6) -0.7784(4) -0.0054(4)
C4A C 0.9150(7) -0.8696(5) 0.0827(4)
H5A H 0.8425 -0.8927 0.1393
C5A C 1.0950(7) -0.9260(5) 0.0850(4)
H6A H 1.1414 -0.9865 0.1447
C6A C 0.6489(6) -0.7264(4) -0.0232(4)
C7A C 0.6952(7) -0.5167(5) -0.0022(6)
H7A H 0.7158 -0.4537 -0.0638
H8A H 0.8110 -0.5619 0.0288
C8A C 0.4090(7) -0.5437(5) -0.0751(5)
H9A H 0.4173 -0.4813 -0.1395
H10A H 0.3469 -0.6059 -0.0921
Cl1 Cl 0.0710(3) 0.4120(2) 0.28080(15)
O3 O -0.0823(13) 0.5137(10) 0.2609(10)
O5 O 0.0687(12) 0.3401(7) 0.3839(5)
O6 O 0.0624(16) 0.3403(10) 0.2086(7)
O7 O 0.2234(8) 0.4718(6) 0.2645(5)
O2 O -0.459(2) -0.2076(13) -0.2212(14)
O4 O -0.720(2) -0.2309(12) -0.3319(12)
O9 O -0.5390(9) 0.2418(6) -0.3065(5)
N3 N 0.0563(10) 0.0095(8) -0.3655(5)
N4 N -0.4455(14) 0.3945(8) -0.4276(7)
C9 C 0.0655(12) 0.1250(10) -0.3564(6)
H11 H 0.1777 0.1445 -0.3465
C10 C -0.0858(13) 0.2166(9) -0.3611(6)
H12 H -0.0749 0.2961 -0.3542
C11 C -0.2540(11) 0.1893(7) -0.3761(5)
C12 C -0.2606(11) 0.0700(7) -0.3864(5)
H13 H -0.3702 0.0475 -0.3976
C13 C -0.1036(13) -0.0149(8) -0.3801(5)
H14 H -0.1109 -0.0952 -0.3864
C14 C -0.4259(13) 0.2780(8) -0.3702(7)
C15 C -0.594(2) 0.4907(12) -0.4101(12)
C16 C -0.3346(17) 0.4406(10) -0.5180(10)
H15 H -0.2453 0.4800 -0.4923
H16 H -0.2703 0.3684 -0.5410
O9A O -0.4610(9) 0.7582(6) -0.6935(5)
N3A N -1.0563(10) 0.9905(8) -0.6345(5)
N4A N -0.5545(14) 0.6055(8) -0.5724(7)
C9A C -1.0655(12) 0.8750(10) -0.6436(6)
H11A H -1.1777 0.8555 -0.6535
C10A C -0.9142(13) 0.7834(9) -0.6389(6)
H12A H -0.9251 0.7039 -0.6458
C11A C -0.7460(11) 0.8107(7) -0.6239(5)
C12A C -0.7394(11) 0.9300(7) -0.6136(5)
H13A H -0.6298 0.9525 -0.6024
C13A C -0.8964(13) 1.0149(8) -0.6199(5)
H14A H -0.8891 1.0952 -0.6136
C14A C -0.5741(13) 0.7220(8) -0.6298(7)
C15A C -0.406(2) 0.5093(12) -0.5899(12)
C16A C -0.6654(17) 0.5594(10) -0.4820(10)
H15A H -0.7547 0.5200 -0.5077
H16A H -0.7297 0.6316 -0.4590
O10? O -0.5911(18) -0.1077(16) -0.3052(12)
loop_
_geom_bond_atom_site_label_1
_geom_bond_atom_site_label_2
_geom_bond_site_symmetry_1
_geom_bond_site_symmetry_2
Cd1 O8 1_555 1_555
Cl1 O3 1_555 1_555
O1 C6 1_555 1_555
O5 Cl1 1_555 1_555
O6 Cl1 1_555 1_555
O7 Cl1 1_555 1_555
O8 H1 1_555 1_555
H2 O8 1_555 1_555
O9 C14 1_555 1_555
N1 Cd1 1_555 1_555
N2 C6 1_555 1_555
N3 C9 1_555 1_555
N4 C14 1_555 1_555
C1 N1 1_555 1_555
H3 C1 1_555 1_555
C2 C1 1_555 1_555
H4 C2 1_555 1_555
C3 C2 1_555 1_555
C4 C3 1_555 1_555
H5 C4 1_555 1_555
C5 N1 1_555 1_555
H6 C5 1_555 1_555
C6 C3 1_555 1_555
C7 N2 1_555 1_555
H7 C7 1_555 1_555
H8 C7 1_555 1_555
C8 N2 1_555 1_555
H9 C8 1_555 1_555
H10 C8 1_555 1_555
C9 H11 1_555 1_555
C10 C9 1_555 1_555
H12 C10 1_555 1_555
C11 C10 1_555 1_555
C12 C11 1_555 1_555
H13 C12 1_555 1_555
C13 N3 1_555 1_555
H14 C13 1_555 1_555
C14 C11 1_555 1_555
C15 N4 1_555 1_555
C16 N4 1_555 1_555
H15 C16 1_555 1_555
H16 C16 1_555 1_555
Cd1_2 O1A 1_555 1_555
Cd1_3 O1 1_555 1_555
Cd1_4 N1A 1_555 1_555
O1A C6A 1_555 1_555
O1_2 Cd1 1_555 1_555
O1A_2 Cd1 1_555 1_555
O8A Cd1 1_555 1_555
H1A O8A 1_555 1_555
H2A O8A 1_555 1_555
O9A C14A 1_555 1_555
N1A C1A 1_555 1_555
N1A_2 Cd1 1_555 1_555
N2A C6A 1_555 1_555
N3A C9A 1_555 1_555
N4A C14A 1_555 1_555
C1A H3A 1_555 1_555
C2A C1A 1_555 1_555
H4A C2A 1_555 1_555
C3A C2A 1_555 1_555
C4A C3A 1_555 1_555
H5A C4A 1_555 1_555
C5A N1A 1_555 1_555
H6A C5A 1_555 1_555
C6A C3A 1_555 1_555
C7A C8 1_555 1_555
H7A C7A 1_555 1_555
H8A C7A 1_555 1_555
C8A C7 1_555 1_555
H9A C8A 1_555 1_555
H10A C8A 1_555 1_555
C9A H11A 1_555 1_555
C10A C9A 1_555 1_555
H12A C10A 1_555 1_555
C11A C10A 1_555 1_555
C12A C11A 1_555 1_555
H13A C12A 1_555 1_555
C13A N3A 1_555 1_555
H14A C13A 1_555 1_555
C14A C11A 1_555 1_555
C15A C16 1_555 1_555
C16A C15 1_555 1_555
H15A C16A 1_555 1_555
H16A C16A 1_555 1_555
C4 C5 1_555 1_555
C12 C13 1_555 1_555
N2A C7A 1_555 1_555
N2A C8A 1_555 1_555
N4A C15A 1_555 1_555
N4A C16A 1_555 1_555
C4A C5A 1_555 1_555
C12A C13A 1_555 1_555

#END
