
#######################################################################
#
#                 Cambridge Crystallographic Data Centre
#                                CCDC 
#
#######################################################################
#
# If this CIF has been generated from an entry in the Cambridge 
# Structural Database, then it will include bibliographic, chemical, 
# crystal, experimental, refinement or atomic coordinate data resulting 
# from the CCDC's data processing and validation procedures.
#
#######################################################################

data_XUYXUL
_symmetry_cell_setting           monoclinic
_symmetry_space_group_name_H-M   'P 21/n'
_symmetry_Int_Tables_number      14
_space_group_name_Hall           '-P 2yn'
loop_
_symmetry_equiv_pos_site_id
_symmetry_equiv_pos_as_xyz
1 x,y,z
2 1/2-x,1/2+y,1/2-z
3 -x,-y,-z
4 1/2+x,1/2-y,1/2+z
_cell_length_a                   9.2298(7)
_cell_length_b                   15.2279(11)
_cell_length_c                   23.9952(17)
_cell_angle_alpha                90
_cell_angle_beta                 94.940(1)
_cell_angle_gamma                90
_cell_volume                     3360.01
loop_
_atom_site_label
_atom_site_type_symbol
_atom_site_fract_x
_atom_site_fract_y
_atom_site_fract_z
Cd1 Cd 0.16477(4) 0.89897(2) 0.631428(14)
Cd2 Cd 0.15802(4) 0.63395(2) 0.458414(14)
C1 C 0.3529(5) 0.7662(3) 0.54346(19)
C2 C 0.4882(5) 0.7252(3) 0.57330(19)
C3 C 0.5427(5) 0.6466(3) 0.55590(18)
H1 H 0.4954 0.6175 0.5255
C4 C 0.6673(5) 0.6101(3) 0.58320(18)
C5 C 0.7404(5) 0.6537(3) 0.62908(18)
C6 C 0.6835(5) 0.7330(3) 0.64548(19)
H2 H 0.7311 0.7631 0.6754
C7 C 0.5590(5) 0.7685(3) 0.61887(19)
H3 H 0.5223 0.8212 0.6313
C8 C 0.7197(5) 0.5226(3) 0.56356(18)
C9 C 0.8615(5) 0.6116(3) 0.66441(18)
C10 C 0.9926(5) 0.6540(3) 0.68215(17)
C11 C 1.0915(5) 0.6129(3) 0.72077(18)
H4 H 1.1771 0.6419 0.7330
C12 C 1.0655(5) 0.5295(3) 0.74161(18)
C13 C 0.9354(5) 0.4875(3) 0.72407(19)
H5 H 0.9149 0.4324 0.7382
C14 C 0.8376(5) 0.5277(3) 0.68586(19)
H6 H 0.7524 0.4982 0.6738
C15 C 1.0353(5) 0.7433(3) 0.6621(2)
C16 C 1.1725(6) 0.4878(3) 0.7845(2)
C17 C 0.3083(6) 1.0359(4) 0.5462(2)
H7 H 0.3898 1.0014 0.5554
C18 C 0.3198(7) 1.1061(4) 0.5106(2)
H8 H 0.4083 1.1191 0.4967
C19 C 0.2008(7) 1.1562(4) 0.4961(2)
H9 H 0.2069 1.2035 0.4719
C20 C 0.0702(6) 1.1362(3) 0.5176(2)
H10 H -0.0129 1.1692 0.5078
C21 C 0.0663(5) 1.0656(3) 0.55405(19)
C22 C -0.0672(5) 1.0407(3) 0.58080(19)
C23 C -0.1969(6) 1.0851(3) 0.5694(2)
H11 H -0.2036 1.1311 0.5438
C24 C -0.3158(6) 1.0603(4) 0.5964(2)
H12 H -0.4039 1.0894 0.5890
C25 C -0.3044(6) 0.9924(4) 0.6343(2)
H13 H -0.3835 0.9749 0.6531
C26 C -0.1710(6) 0.9512(3) 0.6433(2)
H14 H -0.1615 0.9056 0.6692
C27 C 0.3139(8) 0.7264(4) 0.3583(3)
H15 H 0.3980 0.7066 0.3786
C28 C 0.3259(10) 0.7831(5) 0.3138(3)
H16 H 0.4170 0.7987 0.3032
C29 C 0.2042(12) 0.8156(5) 0.2860(3)
H17 H 0.2106 0.8567 0.2577
C30 C 0.0699(9) 0.7873(4) 0.3002(3)
H18 H -0.0151 0.8080 0.2810
C31 C 0.0644(7) 0.7273(3) 0.3435(2)
C32 C -0.0750(6) 0.6880(4) 0.3582(2)
C33 C -0.1989(7) 0.6829(4) 0.3205(3)
H19 H -0.1983 0.7076 0.2851
C34 C -0.3207(8) 0.6416(5) 0.3356(3)
H20 H -0.4043 0.6387 0.3111
C35 C -0.3169(7) 0.6048(5) 0.3875(3)
H21 H -0.3976 0.5752 0.3988
C36 C -0.1923(7) 0.6118(5) 0.4231(3)
H22 H -0.1921 0.5874 0.4586
N1 N 0.1839(4) 1.0159(2) 0.56772(16)
N2 N -0.0560(4) 0.9734(2) 0.61692(16)
N3 N 0.1844(5) 0.6994(3) 0.37283(18)
N4 N -0.0719(5) 0.6516(3) 0.40937(18)
O1 O 0.2964(4) 0.8310(2) 0.56501(14)
O2 O 0.3094(4) 0.7346(2) 0.49639(14)
O3 O 0.8519(4) 0.5148(2) 0.55381(14)
O4 O 0.6337(4) 0.4600(2) 0.55788(15)
O5 O 1.0196(4) 0.7611(2) 0.61094(14)
O6 O 1.0915(5) 0.7963(2) 0.69717(15)
O7 O 1.3002(4) 0.5130(3) 0.78919(15)
O8 O 1.1258(4) 0.4281(2) 0.81473(14)
O9 O 0.0667(5) 0.6283(2) 0.54135(15)
H23 H 0.0076 0.5900 0.5516
H24 H 0.0324 0.6786 0.5483
Cd1_2 Cd 1.16477(4) 0.89897(2) 0.631428(14)
Cd1A Cd 1.33523(4) 0.39897(2) 0.868572(14)
Cd2B Cd 0.84198(4) 0.36605(2) 0.541586(14)
O3B O 0.1481(4) 0.4852(2) 0.44619(14)
O4B O 0.3663(4) 0.5400(2) 0.44212(15)
O5_2 O 0.0196(4) 0.7611(2) 0.61094(14)
O6_2 O 0.0915(5) 0.7963(2) 0.69717(15)
O7A O 0.1998(4) 1.0130(3) 0.71081(15)
O8A O 0.3742(4) 0.9281(2) 0.68527(14)
O10 O 0.4789(8) 0.5570(6) 0.7041(3)
loop_
_geom_bond_atom_site_label_1
_geom_bond_atom_site_label_2
_geom_bond_site_symmetry_1
_geom_bond_site_symmetry_2
Cd1 N1 1_555 1_555
Cd2 N3 1_555 1_555
C1 C2 1_555 1_555
C2 C3 1_555 1_555
C3 H1 1_555 1_555
C4 C3 1_555 1_555
C5 C4 1_555 1_555
C6 C5 1_555 1_555
H2 C6 1_555 1_555
C7 C2 1_555 1_555
H3 C7 1_555 1_555
C8 C4 1_555 1_555
C9 C5 1_555 1_555
C10 C9 1_555 1_555
C11 C10 1_555 1_555
H4 C11 1_555 1_555
C12 C11 1_555 1_555
C13 C12 1_555 1_555
H5 C13 1_555 1_555
C14 C9 1_555 1_555
H6 C14 1_555 1_555
C15 C10 1_555 1_555
C16 C12 1_555 1_555
C17 H7 1_555 1_555
C18 C17 1_555 1_555
H8 C18 1_555 1_555
C19 C18 1_555 1_555
H9 C19 1_555 1_555
C20 C19 1_555 1_555
H10 C20 1_555 1_555
C21 C20 1_555 1_555
C22 C21 1_555 1_555
C23 C22 1_555 1_555
H11 C23 1_555 1_555
C24 C23 1_555 1_555
H12 C24 1_555 1_555
C25 C24 1_555 1_555
H13 C25 1_555 1_555
C26 C25 1_555 1_555
H14 C26 1_555 1_555
C27 H15 1_555 1_555
C28 C27 1_555 1_555
H16 C28 1_555 1_555
C29 C28 1_555 1_555
H17 C29 1_555 1_555
C30 C29 1_555 1_555
H18 C30 1_555 1_555
C31 C30 1_555 1_555
C32 C31 1_555 1_555
C33 C32 1_555 1_555
H19 C33 1_555 1_555
C34 C33 1_555 1_555
H20 C34 1_555 1_555
C35 C34 1_555 1_555
H21 C35 1_555 1_555
C36 C35 1_555 1_555
H22 C36 1_555 1_555
N1 C17 1_555 1_555
N2 Cd1 1_555 1_555
N3 C27 1_555 1_555
N4 Cd2 1_555 1_555
O1 Cd1 1_555 1_555
O2 Cd2 1_555 1_555
O3 C8 1_555 1_555
O4 C8 1_555 1_555
O5 C15 1_555 1_555
O6 C15 1_555 1_555
O7 C16 1_555 1_555
O8 C16 1_555 1_555
O9 Cd2 1_555 1_555
H23 O9 1_555 1_555
H24 O9 1_555 1_555
Cd1_2 O5 1_555 1_555
Cd1A O7 1_555 1_555
Cd2B O3 1_555 1_555
O3B Cd2 1_555 1_555
O4B Cd2 1_555 1_555
O5_2 Cd1 1_555 1_555
O6_2 Cd1 1_555 1_555
O7A Cd1 1_555 1_555
O8A Cd1 1_555 1_555
C1 O1 1_555 1_555
C1 O2 1_555 1_555
C6 C7 1_555 1_555
C13 C14 1_555 1_555
C21 N1 1_555 1_555
C22 N2 1_555 1_555
C26 N2 1_555 1_555
C31 N3 1_555 1_555
C32 N4 1_555 1_555
C36 N4 1_555 1_555
O4 Cd2B 1_555 1_555
O6 Cd1_2 1_555 1_555
O8 Cd1A 1_555 1_555

#END
