
#######################################################################
#
#                 Cambridge Crystallographic Data Centre
#                                CCDC 
#
#######################################################################
#
# If this CIF has been generated from an entry in the Cambridge 
# Structural Database, then it will include bibliographic, chemical, 
# crystal, experimental, refinement or atomic coordinate data resulting 
# from the CCDC's data processing and validation procedures.
#
#######################################################################

data_XUYXOF01
_symmetry_cell_setting           monoclinic
_symmetry_space_group_name_H-M   'P 21/c'
_symmetry_Int_Tables_number      14
_space_group_name_Hall           '-P 2ybc'
loop_
_symmetry_equiv_pos_site_id
_symmetry_equiv_pos_as_xyz
1 x,y,z
2 -x,1/2+y,1/2-z
3 -x,-y,-z
4 x,1/2-y,1/2+z
_cell_length_a                   14.3898(13)
_cell_length_b                   14.2288(12)
_cell_length_c                   16.5501(15)
_cell_angle_alpha                90
_cell_angle_beta                 111.7730(10)
_cell_angle_gamma                90
_cell_volume                     3146.88
loop_
_atom_site_label
_atom_site_type_symbol
_atom_site_fract_x
_atom_site_fract_y
_atom_site_fract_z
Zn1 Zn -0.39777(3) -0.33491(3) -0.30386(3)
Zn2 Zn -0.12155(3) -0.32537(3) -0.17536(3)
C1 C -0.3210(3) -0.6343(3) -0.4950(3)
C2 C -0.3120(3) -0.5510(3) -0.4488(3)
H1 H -0.3535 -0.5006 -0.4748
C3 C -0.2425(3) -0.5417(3) -0.3649(3)
C4 C -0.1862(3) -0.6190(3) -0.3244(3)
H2 H -0.1415 -0.6147 -0.2670
C5 C -0.1965(3) -0.7022(3) -0.3692(3)
H3 H -0.1597 -0.7542 -0.3408
C6 C -0.2599(3) -0.7108(3) -0.4554(3)
C7 C -0.2656(3) -0.8006(3) -0.5035(2)
C8 C -0.1786(3) -0.8483(3) -0.5008(2)
C9 C -0.1873(3) -0.9321(3) -0.5457(3)
H4 H -0.1298 -0.9648 -0.5417
C10 C -0.2801(3) -0.9678(3) -0.5966(2)
C11 C -0.3650(3) -0.9218(3) -0.5982(3)
H5 H -0.4278 -0.9457 -0.6314
C12 C -0.3574(3) -0.8405(3) -0.5509(3)
H6 H -0.4154 -0.8118 -0.5507
C13 C -0.3966(3) -0.6363(3) -0.5874(3)
C14 C -0.2265(3) -0.4480(3) -0.3194(3)
C15 C -0.0747(3) -0.8079(3) -0.4572(3)
C16 C -0.2881(3) -1.0539(3) -0.6501(3)
C17 C -0.3306(4) -0.1776(4) -0.3976(3)
H7 H -0.3194 -0.2267 -0.4300
C18 C -0.3116(4) -0.0876(5) -0.4168(4)
H8 H -0.2906 -0.0754 -0.4625
C19 C -0.3248(4) -0.0156(4) -0.3661(5)
H9 H -0.3102 0.0460 -0.3763
C20 C -0.3590(4) -0.0344(3) -0.3014(4)
H10 H -0.3683 0.0137 -0.2672
C21 C -0.3796(3) -0.1270(3) -0.2874(3)
C22 C -0.4236(3) -0.1551(3) -0.2231(3)
C23 C -0.4505(4) -0.0916(4) -0.1731(4)
H11 H -0.4403 -0.0276 -0.1778
C24 C -0.4922(4) -0.1236(5) -0.1165(4)
H12 H -0.5103 -0.0817 -0.0818
C25 C -0.5073(5) -0.2181(5) -0.1114(4)
H13 H -0.5353 -0.2415 -0.0731
C26 C -0.4800(4) -0.2778(4) -0.1645(3)
H14 H -0.4911 -0.3419 -0.1620
C27 C -0.0636(4) -0.2468(4) -0.3252(3)
H15 H -0.0604 -0.3096 -0.3397
C28 C -0.0432(4) -0.1787(5) -0.3760(4)
H16 H -0.0274 -0.1950 -0.4239
C29 C -0.0470(4) -0.0868(5) -0.3536(4)
H17 H -0.0338 -0.0392 -0.3864
C30 C -0.0702(4) -0.0649(4) -0.2832(4)
H18 H -0.0720 -0.0025 -0.2671
C31 C -0.0910(3) -0.1368(3) -0.2356(3)
C32 C -0.1218(3) -0.1200(3) -0.1607(3)
C33 C -0.1156(4) -0.0327(4) -0.1212(4)
H19 H -0.0911 0.0193 -0.1410
C34 C -0.1463(5) -0.0253(5) -0.0527(4)
H20 H -0.1434 0.0324 -0.0256
C35 C -0.1816(5) -0.1030(5) -0.0237(4)
H21 H -0.2020 -0.0992 0.0233
C36 C -0.1856(4) -0.1858(4) -0.0666(3)
H22 H -0.2104 -0.2385 -0.0479
N1 N -0.3642(3) -0.1981(3) -0.3349(2)
N2 N -0.4384(3) -0.2470(3) -0.2188(2)
N3 N -0.0874(3) -0.2273(3) -0.2570(2)
N4 N -0.1561(3) -0.1959(3) -0.1336(2)
O1 O -0.3696(2) -0.6377(2) -0.6490(2)
O2 O -0.4867(2) -0.6330(2) -0.59169(18)
O3 O -0.2903(2) -0.3844(2) -0.34964(19)
O4 O -0.1472(2) -0.4380(2) -0.2541(2)
O5 O -0.0570(2) -0.7292(2) -0.4765(2)
O6 O -0.0119(2) -0.8638(2) -0.4050(2)
O7 O -0.2201(2) -1.1137(2) -0.6251(2)
O8 O -0.3660(2) -1.0602(2) -0.71796(19)
Zn1B Zn -0.60223(3) -0.66509(3) -0.69614(3)
Zn1C Zn -0.39777(3) -1.16509(3) -0.80386(3)
Zn2A Zn 0.12155(3) -0.82537(3) -0.32464(3)
Zn2C Zn -0.12155(3) -1.17463(3) -0.67536(3)
O2B O -0.5133(2) -0.3670(2) -0.40831(18)
O6A O 0.0119(2) -0.3638(2) -0.0950(2)
O7C O -0.2201(2) -0.3863(2) -0.1251(2)
O8C O -0.3660(2) -0.4398(2) -0.21796(19)
O9 O -0.1765(4) -0.6851(4) -0.6661(4)
H23 H -0.2233 -0.6618 -0.6527
H24 H -0.1481 -0.6944 -0.6117
loop_
_geom_bond_atom_site_label_1
_geom_bond_atom_site_label_2
_geom_bond_site_symmetry_1
_geom_bond_site_symmetry_2
Zn1 N1 1_555 1_555
Zn2 N3 1_555 1_555
C1 C2 1_555 1_555
C2 H1 1_555 1_555
C3 C2 1_555 1_555
C4 C3 1_555 1_555
H2 C4 1_555 1_555
C5 C4 1_555 1_555
H3 C5 1_555 1_555
C6 C1 1_555 1_555
C7 C6 1_555 1_555
C8 C7 1_555 1_555
C9 C8 1_555 1_555
H4 C9 1_555 1_555
C10 C9 1_555 1_555
C11 C10 1_555 1_555
H5 C11 1_555 1_555
C12 C7 1_555 1_555
H6 C12 1_555 1_555
C13 C1 1_555 1_555
C14 C3 1_555 1_555
C15 C8 1_555 1_555
C16 C10 1_555 1_555
C17 H7 1_555 1_555
C18 C17 1_555 1_555
H8 C18 1_555 1_555
C19 C18 1_555 1_555
H9 C19 1_555 1_555
C20 C19 1_555 1_555
H10 C20 1_555 1_555
C21 C20 1_555 1_555
C22 C21 1_555 1_555
C23 C22 1_555 1_555
H11 C23 1_555 1_555
C24 C23 1_555 1_555
H12 C24 1_555 1_555
C25 C24 1_555 1_555
H13 C25 1_555 1_555
C26 C25 1_555 1_555
H14 C26 1_555 1_555
C27 H15 1_555 1_555
C28 C27 1_555 1_555
H16 C28 1_555 1_555
C29 C28 1_555 1_555
H17 C29 1_555 1_555
C30 C29 1_555 1_555
H18 C30 1_555 1_555
C31 C30 1_555 1_555
C32 C31 1_555 1_555
C33 C32 1_555 1_555
H19 C33 1_555 1_555
C34 C33 1_555 1_555
H20 C34 1_555 1_555
C35 C34 1_555 1_555
H21 C35 1_555 1_555
C36 C35 1_555 1_555
H22 C36 1_555 1_555
N1 C17 1_555 1_555
N2 Zn1 1_555 1_555
N3 C27 1_555 1_555
N4 Zn2 1_555 1_555
O1 C13 1_555 1_555
O2 C13 1_555 1_555
O3 Zn1 1_555 1_555
O4 Zn2 1_555 1_555
O5 C15 1_555 1_555
O6 C15 1_555 1_555
O7 C16 1_555 1_555
O8 C16 1_555 1_555
O9 H23 1_555 1_555
H24 O9 1_555 1_555
Zn1B O2 1_555 1_555
Zn1C O8 1_555 1_555
Zn2A O6 1_555 1_555
Zn2C O7 1_555 1_555
O2B Zn1 1_555 1_555
O6A Zn2 1_555 1_555
O7C Zn2 1_555 1_555
O8C Zn1 1_555 1_555
C5 C6 1_555 1_555
C11 C12 1_555 1_555
C14 O3 1_555 1_555
C14 O4 1_555 1_555
C21 N1 1_555 1_555
C22 N2 1_555 1_555
C26 N2 1_555 1_555
C31 N3 1_555 1_555
C32 N4 1_555 1_555
C36 N4 1_555 1_555

#END
