
#######################################################################
#
#                 Cambridge Crystallographic Data Centre
#                                CCDC 
#
#######################################################################
#
# If this CIF has been generated from an entry in the Cambridge 
# Structural Database, then it will include bibliographic, chemical, 
# crystal, experimental, refinement or atomic coordinate data resulting 
# from the CCDC's data processing and validation procedures.
#
#######################################################################

data_XUZDOM
_symmetry_cell_setting           monoclinic
_symmetry_space_group_name_H-M   'P 21/c'
_symmetry_Int_Tables_number      14
_space_group_name_Hall           '-P 2ybc'
loop_
_symmetry_equiv_pos_site_id
_symmetry_equiv_pos_as_xyz
1 x,y,z
2 -x,1/2+y,1/2-z
3 -x,-y,-z
4 x,1/2-y,1/2+z
_cell_length_a                   12.8954(10)
_cell_length_b                   12.1734(9)
_cell_length_c                   22.9113(17)
_cell_angle_alpha                90
_cell_angle_beta                 96.499(1)
_cell_angle_gamma                90
_cell_volume                     3573.52
loop_
_atom_site_label
_atom_site_type_symbol
_atom_site_fract_x
_atom_site_fract_y
_atom_site_fract_z
Ag1 Ag 0.28383(10) 0.52620(11) 0.44386(6)
Ag2 Ag 0.21439(10) 0.48786(11) 0.55750(6)
Ag3 Ag 0.01605(13) 0.32009(11) 0.23254(6)
Ag4 Ag 0.50294(13) 0.26487(13) 0.25761(7)
S1 S 0.2636(4) -0.0374(4) 0.3306(2)
S2 S 0.2308(3) 1.0535(3) 0.6729(2)
O1 O 0.2886(11) 0.3362(11) 0.4574(7)
O2 O 0.1493(11) 0.3380(11) 0.5059(6)
O3 O 0.2594(11) 0.0347(11) 0.2790(6)
O4 O 0.3679(13) -0.0502(14) 0.3573(7)
O5 O 0.2085(15) -0.1396(12) 0.3159(8)
O6 O 0.1897(12) 0.6758(12) 0.5457(7)
O7 O 0.3219(12) 0.6839(12) 0.4928(7)
O8 O 0.3068(12) 1.1410(12) 0.6906(6)
O9 O 0.2353(13) 0.9665(12) 0.7164(6)
O10 O 0.1275(11) 1.0973(14) 0.6586(7)
N1 N 0.1152(11) 0.5403(11) 0.3842(6)
N2 N 0.0116(10) 0.4560(10) 0.2997(6)
N3 N 0.0056(11) 0.6554(12) 0.3143(6)
N4 N -0.0739(11) 0.5320(11) 0.3805(6)
N5 N 0.6172(11) 0.5257(11) 0.3843(6)
N6 N 0.5069(10) 0.4233(11) 0.3101(6)
N7 N 0.4271(10) 0.5297(11) 0.3833(6)
N8 N 0.5103(12) 0.6230(12) 0.3065(7)
C1 C 0.2034(14) 0.2946(14) 0.4711(8)
C2 C 0.1688(14) 0.1873(15) 0.4440(8)
C3 C 0.2264(13) 0.1323(13) 0.4057(7)
H1 H 0.2895 0.1612 0.3967
C4 C 0.1890(14) 0.0321(15) 0.3802(8)
C5 C 0.0968(18) -0.0108(17) 0.3948(9)
H2 H 0.0735 -0.0782 0.3794
C6 C 0.038(2) 0.0452(19) 0.4324(12)
H3 H -0.0251 0.0159 0.4414
C7 C 0.0723(17) 0.1429(19) 0.4559(9)
H4 H 0.0317 0.1810 0.4801
C8 C 0.2576(17) 0.7262(17) 0.5251(8)
C9 C 0.2774(17) 0.8447(16) 0.5398(9)
C10 C 0.2440(14) 0.8897(13) 0.5900(7)
H5 H 0.2032 0.8475 0.6124
C11 C 0.2703(14) 0.9973(13) 0.6077(7)
C12 C 0.3299(17) 1.0612(17) 0.5739(9)
H6 H 0.3500 1.1320 0.5855
C13 C 0.3588(18) 1.0164(17) 0.5221(9)
H7 H 0.3941 1.0600 0.4974
C14 C 0.3364(19) 0.9098(16) 0.5067(9)
H8 H 0.3612 0.8805 0.4734
C15 C 0.1057(13) 0.6478(14) 0.3542(8)
H9 H 0.1641 0.6578 0.3315
H10 H 0.1082 0.7060 0.3832
C16 C 0.1094(12) 0.4526(14) 0.3383(8)
H11 H 0.1672 0.4614 0.3150
H12 H 0.1164 0.3814 0.3573
C17 C 0.0240(13) 0.5259(13) 0.4187(7)
H13 H 0.0290 0.4552 0.4384
H14 H 0.0254 0.5827 0.4485
C18 C 0.0026(14) 0.5677(13) 0.2704(8)
H15 H 0.0595 0.5774 0.2465
H16 H -0.0625 0.5718 0.2447
C19 C -0.0812(12) 0.6397(15) 0.3514(7)
H17 H -0.0784 0.6972 0.3809
H18 H -0.1476 0.6455 0.3270
C20 C -0.0772(14) 0.4442(14) 0.3357(8)
H19 H -0.1426 0.4482 0.3104
H20 H -0.0734 0.3731 0.3549
C21 C 0.6093(13) 0.4245(15) 0.3495(7)
H21 H 0.6669 0.4202 0.3259
H22 H 0.6130 0.3613 0.3755
C22 C 0.5277(14) 0.5296(14) 0.4210(8)
H23 H 0.5331 0.5954 0.4451
H24 H 0.5310 0.4665 0.4470
C23 C 0.6095(13) 0.6219(13) 0.3447(7)
H25 H 0.6668 0.6204 0.3207
H26 H 0.6155 0.6886 0.3680
C24 C 0.4202(12) 0.4279(13) 0.3464(7)
H27 H 0.3544 0.4271 0.3213
H28 H 0.4224 0.3637 0.3717
C25 C 0.5022(13) 0.5210(13) 0.2709(6)
H29 H 0.4368 0.5208 0.2453
H30 H 0.5589 0.5181 0.2465
C26 C 0.4227(13) 0.6258(13) 0.3449(8)
H31 H 0.3562 0.6273 0.3204
H32 H 0.4281 0.6921 0.3685
Ag2B Ag -0.21439(10) 0.51214(11) 0.44250(6)
Ag2B_2 Ag 0.78561(10) 0.51214(11) 0.44250(6)
Ag3A Ag -0.01605(13) 0.82009(11) 0.26746(6)
Ag4A Ag 0.49706(13) 0.76487(13) 0.24239(7)
N3A N -0.0056(11) 0.1554(12) 0.1857(6)
N4B N 0.0739(11) 0.4680(11) 0.6195(6)
N5B N 0.3828(11) 0.4743(11) 0.6157(6)
N8A N 0.4897(12) 0.1230(12) 0.1935(7)
O11 O 0.4788(18) 0.243(2) 0.4633(13)
O12 O 0.2105(13) 0.2574(12) 0.2790(6)
O13 O 0.2905(12) 0.7453(11) 0.7255(6)
O14 O 0.5100(13) 0.8519(13) 0.6468(7)
loop_
_geom_bond_atom_site_label_1
_geom_bond_atom_site_label_2
_geom_bond_site_symmetry_1
_geom_bond_site_symmetry_2
Ag1 Ag2 1_555 1_555
Ag2 O2 1_555 1_555
Ag3 N2 1_555 1_555
Ag4 N6 1_555 1_555
S1 O3 1_555 1_555
S2 O8 1_555 1_555
O1 Ag1 1_555 1_555
O2 C1 1_555 1_555
O4 S1 1_555 1_555
O5 S1 1_555 1_555
O6 Ag2 1_555 1_555
O7 Ag1 1_555 1_555
O9 S2 1_555 1_555
O10 S2 1_555 1_555
N1 Ag1 1_555 1_555
N2 C16 1_555 1_555
N3 C15 1_555 1_555
N4 C17 1_555 1_555
N5 C21 1_555 1_555
N6 C21 1_555 1_555
N7 Ag1 1_555 1_555
N8 C23 1_555 1_555
C1 O1 1_555 1_555
C2 C1 1_555 1_555
C3 C2 1_555 1_555
H1 C3 1_555 1_555
C4 S1 1_555 1_555
C5 C4 1_555 1_555
H2 C5 1_555 1_555
C6 C5 1_555 1_555
H3 C6 1_555 1_555
C7 C2 1_555 1_555
H4 C7 1_555 1_555
C8 O6 1_555 1_555
C9 C8 1_555 1_555
C10 C9 1_555 1_555
H5 C10 1_555 1_555
C11 S2 1_555 1_555
C12 C11 1_555 1_555
H6 C12 1_555 1_555
C13 C12 1_555 1_555
H7 C13 1_555 1_555
C14 C9 1_555 1_555
H8 C14 1_555 1_555
C15 N1 1_555 1_555
H9 C15 1_555 1_555
H10 C15 1_555 1_555
C16 N1 1_555 1_555
H11 C16 1_555 1_555
H12 C16 1_555 1_555
C17 N1 1_555 1_555
H13 C17 1_555 1_555
H14 C17 1_555 1_555
C18 N2 1_555 1_555
H15 C18 1_555 1_555
H16 C18 1_555 1_555
C19 N3 1_555 1_555
H17 C19 1_555 1_555
H18 C19 1_555 1_555
C20 N2 1_555 1_555
H19 C20 1_555 1_555
H20 C20 1_555 1_555
C21 H21 1_555 1_555
H22 C21 1_555 1_555
C22 N5 1_555 1_555
H23 C22 1_555 1_555
H24 C22 1_555 1_555
C23 N5 1_555 1_555
H25 C23 1_555 1_555
H26 C23 1_555 1_555
C24 N6 1_555 1_555
H27 C24 1_555 1_555
H28 C24 1_555 1_555
C25 N6 1_555 1_555
H29 C25 1_555 1_555
H30 C25 1_555 1_555
C26 N7 1_555 1_555
H31 C26 1_555 1_555
H32 C26 1_555 1_555
Ag2B N4 1_555 1_555
Ag2B_2 N5 1_555 1_555
Ag3A N3 1_555 1_555
Ag4A N8 1_555 1_555
N3A Ag3 1_555 1_555
N4B Ag2 1_555 1_555
N5B Ag2 1_555 1_555
N8A Ag4 1_555 1_555
O7 C8 1_555 1_555
N3 C18 1_555 1_555
N4 C19 1_555 1_555
N4 C20 1_555 1_555
N7 C22 1_555 1_555
N7 C24 1_555 1_555
N8 C25 1_555 1_555
N8 C26 1_555 1_555
C3 C4 1_555 1_555
C6 C7 1_555 1_555
C10 C11 1_555 1_555
C13 C14 1_555 1_555

#END
