
#######################################################################
#
#                 Cambridge Crystallographic Data Centre
#                                CCDC 
#
#######################################################################
#
# If this CIF has been generated from an entry in the Cambridge 
# Structural Database, then it will include bibliographic, chemical, 
# crystal, experimental, refinement or atomic coordinate data resulting 
# from the CCDC's data processing and validation procedures.
#
#######################################################################

data_XUZFEE
_symmetry_cell_setting           tetragonal
_symmetry_space_group_name_H-M   'I 41/a'
_symmetry_Int_Tables_number      88
_space_group_name_Hall           '-I 4ad'
loop_
_symmetry_equiv_pos_site_id
_symmetry_equiv_pos_as_xyz
1 x,y,z
2 3/4-y,1/4+x,1/4+z
3 1/2-x,-y,1/2+z
4 3/4+y,3/4-x,3/4+z
5 1/2+x,1/2+y,1/2+z
6 1/4-y,3/4+x,3/4+z
7 -x,1/2-y,z
8 1/4+y,1/4-x,1/4+z
9 -x,-y,-z
10 1/4+y,3/4-x,3/4-z
11 1/2+x,y,1/2-z
12 1/4-y,1/4+x,1/4-z
13 1/2-x,1/2-y,1/2-z
14 3/4+y,1/4-x,1/4-z
15 x,1/2+y,-z
16 3/4-y,3/4+x,3/4-z
_cell_length_a                   15.547(1)
_cell_length_b                   15.547(1)
_cell_length_c                   12.4988(13)
_cell_angle_alpha                90
_cell_angle_beta                 90
_cell_angle_gamma                90
_cell_volume                     3021.08
loop_
_atom_site_label
_atom_site_type_symbol
_atom_site_fract_x
_atom_site_fract_y
_atom_site_fract_z
Ni1 Ni 0.0000 0.5000 0.0000
O1 O -0.00686(11) 0.57059(10) 0.14472(13)
N1 N 0.08059(12) 0.42630(12) 0.09410(15)
N2 N 0.17252(13) 0.35463(12) 0.20140(16)
N3 N 0.08274(12) 0.46297(12) 0.19345(15)
N4 N 0.15399(14) 0.44649(13) 0.35873(17)
C1 C 0.13469(15) 0.36156(15) 0.10457(18)
H1 H 0.1460 0.3233 0.0491
C2 C 0.13903(15) 0.42117(14) 0.25842(18)
C3 C 0.03924(14) 0.53787(14) 0.21794(19)
C4 C 0.05385(17) 0.56340(16) 0.3240(2)
H2 H 0.0257 0.6115 0.3510
C5 C 0.11005(17) 0.51737(17) 0.3893(2)
C6 C 0.1255(3) 0.5462(2) 0.5030(2)
H3 H 0.1068 0.5021 0.5515
H4 H 0.0938 0.5981 0.5165
H5 H 0.1857 0.5569 0.5134
Ni1A Ni 0.2500 0.2500 0.2500
Ni1E Ni -0.2500 0.7500 -0.2500
O1H O 0.00686(11) 0.42941(10) -0.14472(13)
N1H N -0.08059(12) 0.57370(12) -0.09410(15)
N2H N -0.17252(13) 0.64537(12) -0.20140(16)
N2C N 0.10463(12) 0.57748(13) -0.04860(16)
N2K N -0.10463(12) 0.42252(13) 0.04860(16)
N3H N -0.08274(12) 0.53703(12) -0.19345(15)
N4H N -0.15399(14) 0.55351(13) -0.35873(17)
C1H C -0.13469(15) 0.63844(15) -0.10457(18)
H1H H -0.1460 0.6767 -0.0491
C2H C -0.13903(15) 0.57883(14) -0.25842(18)
C3H C -0.03924(14) 0.46213(14) -0.21794(19)
C4H C -0.05385(17) 0.43660(16) -0.3240(2)
H2H H -0.0257 0.3885 -0.3510
C5H C -0.11005(17) 0.48263(17) -0.3893(2)
C6H C -0.1255(3) 0.4538(2) -0.5030(2)
H3H H -0.1068 0.4979 -0.5515
H4H H -0.0938 0.4019 -0.5165
H5H H -0.1857 0.4431 -0.5134
O2 O 0.0000 0.7500 0.0670(6)
H6 H 0.0123 0.7074 0.1068
H6F H -0.0123 0.7926 0.1068
loop_
_geom_bond_atom_site_label_1
_geom_bond_atom_site_label_2
_geom_bond_site_symmetry_1
_geom_bond_site_symmetry_2
Ni1 O1 1_555 1_555
O1 C3 1_555 1_555
N1 Ni1 1_555 1_555
N2 C1 1_555 1_555
N3 N1 1_555 1_555
N4 C2 1_555 1_555
C1 N1 1_555 1_555
H1 C1 1_555 1_555
C2 N2 1_555 1_555
C3 N3 1_555 1_555
C4 C3 1_555 1_555
H2 C4 1_555 1_555
C5 N4 1_555 1_555
C6 C5 1_555 1_555
H3 C6 1_555 1_555
H4 C6 1_555 1_555
H5 C6 1_555 1_555
O2 H6 1_555 1_555
Ni1A N2 1_555 1_555
Ni1E N2H 1_555 1_555
O1H Ni1 1_555 1_555
N1H Ni1 1_555 1_555
N2H C1H 1_555 1_555
N2C Ni1 1_555 1_555
N2K Ni1 1_555 1_555
N3H N1H 1_555 1_555
N4H C2H 1_555 1_555
C1H N1H 1_555 1_555
H1H C1H 1_555 1_555
C2H N2H 1_555 1_555
C3H O1H 1_555 1_555
C4H C3H 1_555 1_555
H2H C4H 1_555 1_555
C5H N4H 1_555 1_555
C6H C5H 1_555 1_555
H3H C6H 1_555 1_555
H4H C6H 1_555 1_555
H5H C6H 1_555 1_555
H6F O2 1_555 1_555
N3 C2 1_555 1_555
C4 C5 1_555 1_555
N3H C2H 1_555 1_555
N3H C3H 1_555 1_555
C4H C5H 1_555 1_555

#END
