
#######################################################################
#
#                 Cambridge Crystallographic Data Centre
#                                CCDC 
#
#######################################################################
#
# If this CIF has been generated from an entry in the Cambridge 
# Structural Database, then it will include bibliographic, chemical, 
# crystal, experimental, refinement or atomic coordinate data resulting 
# from the CCDC's data processing and validation procedures.
#
#######################################################################

data_XUZLAG
_symmetry_cell_setting           monoclinic
_symmetry_space_group_name_H-M   'C 2/c'
_symmetry_Int_Tables_number      15
_space_group_name_Hall           '-C 2yn'
loop_
_symmetry_equiv_pos_site_id
_symmetry_equiv_pos_as_xyz
1 x,y,z
2 -x,y,1/2-z
3 1/2+x,1/2+y,z
4 1/2-x,1/2+y,1/2-z
5 -x,-y,-z
6 x,-y,1/2+z
7 1/2-x,1/2-y,-z
8 1/2+x,1/2-y,1/2+z
_cell_length_a                   22.6363(13)
_cell_length_b                   19.3555(12)
_cell_length_c                   29.7445(18)
_cell_angle_alpha                90
_cell_angle_beta                 97.805(1)
_cell_angle_gamma                90
_cell_volume                     12911.4
loop_
_atom_site_label
_atom_site_type_symbol
_atom_site_fract_x
_atom_site_fract_y
_atom_site_fract_z
N1 N 0.0032(12) 1.129(2) 0.6664(11)
C45 C -0.0371(11) 1.1265(9) 0.6938(8)
C46 C -0.0822(11) 1.1212(13) 0.7231(9)
N2 N 0.5000 0.9131(19) 0.7500
C47 C 0.5000 0.9804(11) 0.7500
C48 C 0.5000 1.0551(11) 0.7500
Cu1 Cu -0.08033(7) 0.13784(9) 0.46976(6)
Cu2 Cu -0.03073(8) 0.22148(10) 0.54205(6)
Cu3 Cu -0.08631(9) 0.34170(10) 0.51184(7)
Cu4 Cu -0.07015(18) 0.4075(2) 0.44051(15)
Cu5 Cu -0.10400(19) 0.4613(2) 0.54039(16)
Cu6 Cu 0.03254(16) 0.44903(19) 0.41689(13)
Cu7 Cu -0.00206(8) 0.07302(9) 0.52866(6)
K1 K -0.21916(13) 0.13246(13) 0.31718(9)
K2 K -0.22856(13) 0.15846(14) 0.14129(10)
I1 I -0.11005(4) 0.11962(5) 0.55143(3)
I2 I 0.07534(4) 0.16534(5) 0.56111(3)
I3 I -0.03863(4) 0.26655(4) 0.45487(3)
I4 I -0.05085(5) 0.32885(6) 0.59562(4)
I5 I -0.17568(5) 0.41125(5) 0.47448(4)
I6 I 0.00797(15) 0.48737(16) 0.49532(12)
I7 I -0.14177(8) 0.55167(9) 0.59358(6)
I8 I -0.05078(10) 0.41357(11) 0.35643(7)
I9 I -0.00369(4) 0.05377(4) 0.43802(3)
S1 S -0.17113(15) 0.13811(17) 0.42315(11)
O1 O -0.2493(4) 0.2581(4) 0.2861(3)
O2 O -0.2714(5) 0.2289(5) 0.3729(3)
O3 O -0.1934(4) 0.0089(5) 0.3625(3)
O4 O -0.1858(4) 0.0237(4) 0.2693(3)
O5 O -0.3311(4) 0.1185(4) 0.1784(3)
O6 O -0.3327(5) 0.1197(7) 0.0859(4)
O7 O -0.2327(5) 0.1657(6) 0.0488(4)
O8 O -0.1276(5) 0.1926(7) 0.1031(4)
O9 O -0.1219(4) 0.1921(4) 0.1977(3)
C1 C -0.2701(8) 0.3132(7) 0.3143(5)
H1 H -0.2518 0.3578 0.3077
H2 H -0.3140 0.3180 0.3077
C2 C -0.2525(9) 0.2941(8) 0.3628(5)
H3 H -0.2694 0.3282 0.3822
H4 H -0.2085 0.2962 0.3699
C3 C -0.2746(6) 0.2157(8) 0.4203(4)
H5 H -0.2941 0.2555 0.4332
H6 H -0.2998 0.1745 0.4229
C4 C -0.2153(8) 0.2042(11) 0.4473(5)
H7 H -0.1929 0.2482 0.4495
H8 H -0.2210 0.1902 0.4785
C5 C -0.2102(8) 0.0609(9) 0.4331(6)
H9 H -0.2527 0.0658 0.4203
H10 H -0.2080 0.0529 0.4661
C6 C -0.1832(6) -0.0009(7) 0.4111(4)
H11 H -0.2023 -0.0443 0.4193
H12 H -0.1399 -0.0038 0.4217
C7 C -0.1526(6) -0.0313(7) 0.3404(4)
H13 H -0.1139 -0.0070 0.3423
H14 H -0.1457 -0.0764 0.3559
C8 C -0.1774(6) -0.0428(6) 0.2915(4)
H15 H -0.2159 -0.0676 0.2894
H16 H -0.1494 -0.0713 0.2764
C9 C -0.1888(6) 0.0198(6) 0.2231(4)
C10 C -0.2427(5) -0.0012(6) 0.1963(4)
C11 C -0.2429(6) -0.0100(6) 0.1493(4)
H17 H -0.2776 -0.0334 0.1312
C12 C -0.1925(6) 0.0024(6) 0.1297(4)
H18 H -0.1903 -0.0158 0.0985
C13 C -0.1409(6) 0.0266(6) 0.1553(4)
H19 H -0.1028 0.0271 0.1417
C14 C -0.1389(6) 0.0350(6) 0.2030(4)
C15 C -0.0814(5) 0.0583(6) 0.2314(4)
H20 H -0.0520 0.0695 0.2107
H21 H -0.0653 0.0191 0.2507
C16 C -0.0870(5) 0.1199(6) 0.2616(4)
C17 C -0.0702(5) 0.1156(6) 0.3081(4)
H22 H -0.0482 0.0738 0.3211
C18 C -0.0760(5) 0.1717(7) 0.3358(5)
H23 H -0.0551 0.1709 0.3677
C19 C -0.1024(6) 0.2317(7) 0.3191(5)
H24 H -0.0992 0.2737 0.3389
C20 C -0.1183(6) 0.2396(7) 0.2730(4)
C21 C -0.1087(6) 0.1850(7) 0.2449(4)
C22 C -0.1451(7) 0.3080(7) 0.2537(5)
H25 H -0.1161 0.3304 0.2362
H26 H -0.1506 0.3388 0.2793
C23 C -0.2040(6) 0.3014(6) 0.2234(4)
C24 C -0.2105(7) 0.3234(6) 0.1789(4)
H27 H -0.1781 0.3518 0.1686
C25 C -0.2637(7) 0.3176(7) 0.1508(5)
H28 H -0.2708 0.3469 0.1229
C26 C -0.3115(6) 0.2861(6) 0.1662(4)
H29 H -0.3517 0.2917 0.1480
C27 C -0.3088(6) 0.2663(6) 0.2126(4)
C28 C -0.2547(6) 0.2778(6) 0.2394(4)
C29 C -0.3641(6) 0.2349(6) 0.2293(5)
H30 H -0.3965 0.2316 0.2034
H31 H -0.3779 0.2663 0.2520
C30 C -0.3532(6) 0.1634(7) 0.2504(4)
C31 C -0.3631(7) 0.1500(8) 0.2945(5)
H32 H -0.3830 0.1862 0.3111
C32 C -0.3529(6) 0.0860(7) 0.3145(5)
H33 H -0.3692 0.0746 0.3432
C33 C -0.3308(6) 0.0339(8) 0.2889(5)
H34 H -0.3291 -0.0141 0.3014
C34 C -0.3215(6) 0.0428(6) 0.2448(4)
C35 C -0.3346(6) 0.1086(6) 0.2244(4)
C36 C -0.2984(5) -0.0173(6) 0.2168(5)
H35 H -0.3304 -0.0301 0.1921
H36 H -0.2906 -0.0580 0.2369
C37 C -0.3823(6) 0.0997(9) 0.1481(5)
H37 H -0.4177 0.1200 0.1594
H38 H -0.3866 0.0489 0.1490
C38 C -0.3828(7) 0.1198(11) 0.1031(5)
H39 H -0.3994 0.1671 0.0999
H40 H -0.4110 0.0892 0.0841
C39 C -0.3345(8) 0.1343(12) 0.0403(5)
H41 H -0.3655 0.1053 0.0227
H42 H -0.3460 0.1832 0.0349
C40 C -0.2758(8) 0.1215(10) 0.0235(5)
H43 H -0.2789 0.1321 -0.0093
H44 H -0.2639 0.0726 0.0282
C41 C -0.1767(8) 0.1598(10) 0.0308(6)
H45 H -0.1613 0.1119 0.0343
H46 H -0.1819 0.1720 -0.0018
C42 C -0.1344(8) 0.2092(13) 0.0575(5)
H47 H -0.1500 0.2569 0.0532
H48 H -0.0952 0.2073 0.0464
C43 C -0.0839(7) 0.2319(11) 0.1313(6)
H49 H -0.0973 0.2806 0.1306
H50 H -0.0463 0.2303 0.1178
C44 C -0.0712(6) 0.2115(9) 0.1772(5)
H51 H -0.0432 0.1720 0.1792
H52 H -0.0508 0.2501 0.1948
Cu5D Cu 0.10400(19) 0.5387(2) 0.45961(16)
Cu6D Cu -0.03254(16) 0.55097(19) 0.58311(13)
Cu7D Cu 0.00206(8) -0.07302(9) 0.47134(6)
I6D I -0.00797(15) 0.51263(16) 0.50468(12)
I7D I 0.14177(8) 0.44833(9) 0.40642(6)
I9D I 0.00369(4) -0.05377(4) 0.56198(3)
loop_
_geom_bond_atom_site_label_1
_geom_bond_atom_site_label_2
_geom_bond_site_symmetry_1
_geom_bond_site_symmetry_2
Cu1 I1 1_555 1_555
Cu2 I1 1_555 1_555
Cu3 I3 1_555 1_555
Cu4 I3 1_555 1_555
Cu5 I5 1_555 1_555
Cu6 I6 1_555 1_555
Cu7 I1 1_555 1_555
K1 S1 1_555 1_555
K2 O5 1_555 1_555
I2 Cu2 1_555 1_555
I3 Cu1 1_555 1_555
I4 Cu2 1_555 1_555
I5 Cu3 1_555 1_555
I6 Cu4 1_555 1_555
I7 Cu5 1_555 1_555
I8 Cu4 1_555 1_555
I9 Cu1 1_555 1_555
S1 Cu1 1_555 1_555
O1 K1 1_555 1_555
O2 K1 1_555 1_555
O3 K1 1_555 1_555
O4 K1 1_555 1_555
O5 C35 1_555 1_555
O6 K2 1_555 1_555
O7 K2 1_555 1_555
O8 K2 1_555 1_555
O9 K2 1_555 1_555
C1 O1 1_555 1_555
H1 C1 1_555 1_555
H2 C1 1_555 1_555
C2 O2 1_555 1_555
H3 C2 1_555 1_555
H4 C2 1_555 1_555
C3 O2 1_555 1_555
H5 C3 1_555 1_555
H6 C3 1_555 1_555
C4 S1 1_555 1_555
H7 C4 1_555 1_555
H8 C4 1_555 1_555
C5 S1 1_555 1_555
H9 C5 1_555 1_555
H10 C5 1_555 1_555
C6 O3 1_555 1_555
H11 C6 1_555 1_555
H12 C6 1_555 1_555
C7 O3 1_555 1_555
H13 C7 1_555 1_555
H14 C7 1_555 1_555
C8 O4 1_555 1_555
H15 C8 1_555 1_555
H16 C8 1_555 1_555
C9 O4 1_555 1_555
C10 C9 1_555 1_555
C11 C10 1_555 1_555
H17 C11 1_555 1_555
C12 C11 1_555 1_555
H18 C12 1_555 1_555
C13 C12 1_555 1_555
H19 C13 1_555 1_555
C14 C9 1_555 1_555
C15 C14 1_555 1_555
H20 C15 1_555 1_555
H21 C15 1_555 1_555
C16 C15 1_555 1_555
C17 C16 1_555 1_555
H22 C17 1_555 1_555
C18 C17 1_555 1_555
H23 C18 1_555 1_555
C19 C18 1_555 1_555
H24 C19 1_555 1_555
C20 C19 1_555 1_555
C21 O9 1_555 1_555
C22 C20 1_555 1_555
H25 C22 1_555 1_555
H26 C22 1_555 1_555
C23 C22 1_555 1_555
C24 C23 1_555 1_555
H27 C24 1_555 1_555
C25 C24 1_555 1_555
H28 C25 1_555 1_555
C26 C25 1_555 1_555
H29 C26 1_555 1_555
C27 C26 1_555 1_555
C28 O1 1_555 1_555
C29 C27 1_555 1_555
H30 C29 1_555 1_555
H31 C29 1_555 1_555
C30 C29 1_555 1_555
C31 C30 1_555 1_555
H32 C31 1_555 1_555
C32 C31 1_555 1_555
H33 C32 1_555 1_555
C33 C32 1_555 1_555
H34 C33 1_555 1_555
C34 C33 1_555 1_555
C35 C30 1_555 1_555
C36 C10 1_555 1_555
H35 C36 1_555 1_555
H36 C36 1_555 1_555
C37 O5 1_555 1_555
H37 C37 1_555 1_555
H38 C37 1_555 1_555
C38 O6 1_555 1_555
H39 C38 1_555 1_555
H40 C38 1_555 1_555
C39 O6 1_555 1_555
H41 C39 1_555 1_555
H42 C39 1_555 1_555
C40 O7 1_555 1_555
H43 C40 1_555 1_555
H44 C40 1_555 1_555
C41 O7 1_555 1_555
H45 C41 1_555 1_555
H46 C41 1_555 1_555
C42 O8 1_555 1_555
H47 C42 1_555 1_555
H48 C42 1_555 1_555
C43 O8 1_555 1_555
H49 C43 1_555 1_555
H50 C43 1_555 1_555
C44 O9 1_555 1_555
H51 C44 1_555 1_555
H52 C44 1_555 1_555
N1 C45 1_555 1_555
C45 C46 1_555 1_555
N2 C47 1_555 1_555
C47 C48 1_555 1_555
Cu5D I6 1_555 1_555
Cu6D I7 1_555 1_555
Cu7D I9 1_555 1_555
I6D Cu5 1_555 1_555
I7D Cu6 1_555 1_555
I9D Cu7 1_555 1_555
Cu2 I3 1_555 1_555
Cu3 I4 1_555 1_555
Cu4 I5 1_555 1_555
Cu6 I8 1_555 1_555
Cu7 I2 1_555 1_555
Cu7 I9 1_555 1_555
I6 I6D 1_555 1_555
C1 C2 1_555 1_555
C3 C4 1_555 1_555
C5 C6 1_555 1_555
C7 C8 1_555 1_555
C13 C14 1_555 1_555
C16 C21 1_555 1_555
C20 C21 1_555 1_555
C23 C28 1_555 1_555
C27 C28 1_555 1_555
C34 C35 1_555 1_555
C34 C36 1_555 1_555
C37 C38 1_555 1_555
C39 C40 1_555 1_555
C41 C42 1_555 1_555
C43 C44 1_555 1_555
Cu5D I7D 1_555 1_555
Cu6D I6D 1_555 1_555
Cu7D I9D 1_555 1_555

#END
