
#######################################################################
#
#                 Cambridge Crystallographic Data Centre
#                                CCDC 
#
#######################################################################
#
# If this CIF has been generated from an entry in the Cambridge 
# Structural Database, then it will include bibliographic, chemical, 
# crystal, experimental, refinement or atomic coordinate data resulting 
# from the CCDC's data processing and validation procedures.
#
#######################################################################

data_XUZNAH
_symmetry_cell_setting           monoclinic
_symmetry_space_group_name_H-M   'P 21'
_symmetry_Int_Tables_number      4
_space_group_name_Hall           'P 2yb'
loop_
_symmetry_equiv_pos_site_id
_symmetry_equiv_pos_as_xyz
1 x,y,z
2 -x,1/2+y,-z
_cell_length_a                   7.8943(8)
_cell_length_b                   10.3993(10)
_cell_length_c                   11.8406(11)
_cell_angle_alpha                90
_cell_angle_beta                 92.425(2)
_cell_angle_gamma                90
_cell_volume                     971.186
loop_
_atom_site_label
_atom_site_type_symbol
_atom_site_fract_x
_atom_site_fract_y
_atom_site_fract_z
Ag1 Ag 0.0865(1) 0.3968(1) 0.7857(1)
S1 S -0.0386(3) 0.4595(2) 0.5895(1)
S2 S -0.0667(2) -0.0134(1) 1.0231(1)
O1 O 0.2591(8) 0.2708(6) 0.6629(4)
O2 O 0.1597(5) 0.1566(5) 0.8679(3)
C1 C -0.2510(9) 0.3888(9) 0.5926(4)
C2 C 0.0745(13) 0.3356(13) 0.5100(5)
C3 C 0.2433(17) 0.3125(13) 0.5505(7)
C4 C 0.2477(11) 0.1369(8) 0.6779(6)
C5 C 0.2850(9) 0.1065(9) 0.7962(6)
C6 C 0.2044(8) 0.1431(8) 0.9846(5)
C7 C 0.0459(8) 0.1368(6) 1.0507(5)
C8 C -0.2785(7) 0.0373(7) 0.9734(5)
C9 C -0.2743(6) 0.1268(6) 0.8740(4)
C10 C -0.2976(8) 0.2582(6) 0.8876(4)
C11 C -0.2936(7) 0.3415(6) 0.7969(5)
C12 C -0.2658(7) 0.2955(6) 0.6889(4)
C13 C -0.2479(8) 0.1642(7) 0.6743(4)
C14 C -0.2507(7) 0.0796(6) 0.7651(4)
H1 H -0.3329 0.4562 0.5997
H2 H -0.2761 0.3450 0.5225
H3 H 0.0120 0.2565 0.5128
H4 H 0.0763 0.3615 0.4322
H5 H 0.2927 0.2489 0.5033
H6 H 0.3073 0.3904 0.5434
H7 H 0.3270 0.0941 0.6315
H8 H 0.1357 0.1079 0.6559
H9 H 0.2909 0.0148 0.8051
H10 H 0.3937 0.1415 0.8189
H11 H 0.2723 0.2150 1.0099
H12 H 0.2697 0.0661 0.9968
H13 H -0.0266 0.2078 1.0300
H14 H 0.0752 0.1435 1.1300
H15 H -0.3442 -0.0373 0.9524
H16 H -0.3335 0.0795 1.0340
H17 H -0.3169 0.2918 0.9615
H18 H -0.3101 0.4319 0.8084
H19 H -0.2331 0.1307 0.5998
H20 H -0.2365 -0.0110 0.7532
S2A S 0.0667(2) 0.4866(1) 0.9769(1)
Ag1A Ag -0.0865(1) -0.1032(1) 1.2143(1)
P1 P 0.4403(2) 0.7152(2) 0.7186(1)
F1 F 0.4120(9) 0.5764(5) 0.7717(5)
F2 F 0.2482(7) 0.7379(9) 0.7117(8)
F3 F 0.4544(9) 0.7800(7) 0.8396(4)
F4 F 0.6385(7) 0.6896(8) 0.7241(6)
F5 F 0.4346(8) 0.6514(6) 0.5964(3)
F6 F 0.4710(8) 0.8507(5) 0.6627(4)
loop_
_geom_bond_atom_site_label_1
_geom_bond_atom_site_label_2
_geom_bond_site_symmetry_1
_geom_bond_site_symmetry_2
Ag1 S1 1_555 1_555
S1 C1 1_555 1_555
S2 C7 1_555 1_555
O1 Ag1 1_555 1_555
O2 C5 1_555 1_555
C1 C12 1_555 1_555
C2 S1 1_555 1_555
C3 O1 1_555 1_555
C4 O1 1_555 1_555
C5 C4 1_555 1_555
C6 O2 1_555 1_555
C7 C6 1_555 1_555
C8 S2 1_555 1_555
C9 C8 1_555 1_555
C10 C9 1_555 1_555
C11 C10 1_555 1_555
C12 C11 1_555 1_555
C13 C12 1_555 1_555
C14 C9 1_555 1_555
P1 F1 1_555 1_555
F2 P1 1_555 1_555
F3 P1 1_555 1_555
F4 P1 1_555 1_555
F5 P1 1_555 1_555
F6 P1 1_555 1_555
H1 C1 1_555 1_555
H2 C1 1_555 1_555
H3 C2 1_555 1_555
H4 C2 1_555 1_555
H5 C3 1_555 1_555
H6 C3 1_555 1_555
H7 C4 1_555 1_555
H8 C4 1_555 1_555
H9 C5 1_555 1_555
H10 C5 1_555 1_555
H11 C6 1_555 1_555
H12 C6 1_555 1_555
H13 C7 1_555 1_555
H14 C7 1_555 1_555
H15 C8 1_555 1_555
H16 C8 1_555 1_555
H17 C10 1_555 1_555
H18 C11 1_555 1_555
H19 C13 1_555 1_555
H20 C14 1_555 1_555
S2A Ag1 1_555 1_555
Ag1A S2 1_555 1_555
C2 C3 1_555 1_555
C13 C14 1_555 1_555

#END
