
#######################################################################
#
#                 Cambridge Crystallographic Data Centre
#                                CCDC 
#
#######################################################################
#
# If this CIF has been generated from an entry in the Cambridge 
# Structural Database, then it will include bibliographic, chemical, 
# crystal, experimental, refinement or atomic coordinate data resulting 
# from the CCDC's data processing and validation procedures.
#
#######################################################################

data_YABQIC
_symmetry_cell_setting           monoclinic
_symmetry_space_group_name_H-M   'P 21/c'
_symmetry_Int_Tables_number      14
_space_group_name_Hall           '-P 2ybc'
loop_
_symmetry_equiv_pos_site_id
_symmetry_equiv_pos_as_xyz
1 x,y,z
2 x,1/2-y,1/2+z
3 -x,-y,-z
4 -x,1/2+y,1/2-z
_cell_length_a                   24.870(1)
_cell_length_b                   23.601(1)
_cell_length_c                   23.564(1)
_cell_angle_alpha                90
_cell_angle_beta                 104.85(1)
_cell_angle_gamma                90
_cell_volume                     13369.1
loop_
_atom_site_label
_atom_site_type_symbol
_atom_site_fract_x
_atom_site_fract_y
_atom_site_fract_z
Ti1 Ti 0.13348(5) 0.57277(6) 0.27781(6)
Ti2 Ti -0.64531(5) 0.58080(6) 0.21862(6)
O1 O 0.0911(2) 0.6016(2) 0.3335(2)
O2 O 0.1795(2) 0.6359(2) 0.3141(2)
C1 C 0.1091(3) 0.6509(4) 0.3607(4)
C2 C 0.1586(3) 0.6707(4) 0.3482(3)
C3 C 0.1810(4) 0.7216(4) 0.3702(4)
H1 H 0.2143 0.7348 0.3620
C4 C 0.1547(4) 0.7541(4) 0.4048(5)
H2 H 0.1697 0.7897 0.4197
C5 C 0.1063(4) 0.7339(4) 0.4174(4)
H3 H 0.0887 0.7560 0.4412
C6 C 0.0830(3) 0.6814(3) 0.3956(4)
C7 C 0.0326(3) 0.6611(4) 0.4085(4)
H4 H 0.0208 0.6236 0.3970
N1 N 0.0029(3) 0.6907(3) 0.4345(3)
C8 C -0.0472(3) 0.6684(4) 0.4434(4)
C9 C -0.0795(4) 0.6284(4) 0.4066(4)
H5 H -0.0687 0.6156 0.3729
C10 C -0.1278(4) 0.6068(5) 0.4189(5)
H6 H -0.1486 0.5781 0.3946
C11 C -0.1454(4) 0.6274(5) 0.4664(5)
C12 C -0.1135(4) 0.6693(5) 0.5012(4)
H7 H -0.1249 0.6842 0.5337
C13 C -0.0661(4) 0.6892(4) 0.4893(4)
H8 H -0.0456 0.7183 0.5133
C14 C -0.2002(4) 0.6050(4) 0.4774(4)
H9 H -0.2139 0.5725 0.4510
H10 H -0.1935 0.5916 0.5184
C15 C -0.2426(4) 0.6504(4) 0.4665(5)
H11 H -0.2435 0.6689 0.4285
H12 H -0.2319 0.6793 0.4977
C16 C -0.3004(4) 0.6284(4) 0.4648(4)
C17 C -0.3247(4) 0.6327(4) 0.5102(4)
H13 H -0.3039 0.6482 0.5464
C18 C -0.3779(4) 0.6153(4) 0.5053(4)
H14 H -0.3931 0.6194 0.5383
C19 C -0.4107(3) 0.5922(3) 0.4544(3)
C20 C -0.3863(3) 0.5831(4) 0.4085(4)
H15 H -0.4061 0.5641 0.3740
C21 C -0.3321(4) 0.6024(5) 0.4137(5)
H16 H -0.3162 0.5977 0.3813
N2 N -0.4663(3) 0.5763(3) 0.4514(3)
C22 C -0.5024(3) 0.5782(3) 0.4027(4)
H17 H -0.4913 0.5917 0.3694
C23 C -0.5602(3) 0.5609(3) 0.3947(3)
C24 C -0.5791(4) 0.5378(4) 0.4404(4)
H18 H -0.5538 0.5332 0.4779
C25 C -0.6341(4) 0.5214(4) 0.4325(4)
H19 H -0.6461 0.5053 0.4641
C26 C -0.6718(3) 0.5286(4) 0.3777(4)
H20 H -0.7099 0.5188 0.3724
C27 C -0.6537(3) 0.5499(3) 0.3317(3)
C28 C -0.5973(3) 0.5662(3) 0.3401(3)
O3 O -0.6856(2) 0.5573(2) 0.2760(2)
O4 O -0.5853(2) 0.5859(2) 0.2912(2)
O5 O 0.0765(2) 0.6046(2) 0.2117(2)
O6 O 0.1747(2) 0.5744(2) 0.2163(2)
C29 C 0.0894(3) 0.6058(3) 0.1599(3)
C30 C 0.1443(3) 0.5908(3) 0.1624(3)
C31 C 0.1638(4) 0.5928(4) 0.1134(4)
H21 H 0.2015 0.5833 0.1160
C32 C 0.1285(4) 0.6090(4) 0.0592(4)
H22 H 0.1420 0.6106 0.0250
C33 C 0.0740(4) 0.6226(4) 0.0565(4)
H23 H 0.0498 0.6324 0.0196
C34 C 0.0532(3) 0.6224(3) 0.1066(4)
C35 C -0.0039(3) 0.6378(3) 0.1055(4)
H24 H -0.0165 0.6303 0.1396
N3 N -0.0379(3) 0.6608(3) 0.0618(3)
C36 C -0.0907(4) 0.6771(4) 0.0681(4)
C37 C -0.1019(4) 0.6911(4) 0.1200(5)
H25 H -0.0726 0.6903 0.1550
C38 C -0.1547(4) 0.7063(4) 0.1231(5)
H26 H -0.1609 0.7159 0.1600
C39 C -0.1978(4) 0.7080(4) 0.0746(5)
C40 C -0.1878(4) 0.6939(5) 0.0220(6)
H27 H -0.2178 0.6936 -0.0123
C41 C -0.1338(4) 0.6796(5) 0.0174(4)
H28 H -0.1273 0.6719 -0.0198
C42 C -0.2563(4) 0.7229(4) 0.0782(6)
H29 H -0.2538 0.7404 0.1169
H30 H -0.2715 0.7519 0.0479
C43 C -0.2954(4) 0.6764(5) 0.0705(6)
H31 H -0.2788 0.6458 0.0983
H32 H -0.3010 0.6612 0.0302
C44 C -0.3507(4) 0.6915(4) 0.0798(5)
C45 C -0.3673(4) 0.6734(4) 0.1276(5)
H33 H -0.3428 0.6500 0.1555
C46 C -0.4176(4) 0.6876(4) 0.1372(4)
H34 H -0.4276 0.6729 0.1706
C47 C -0.4538(3) 0.7226(4) 0.0992(4)
C48 C -0.4382(4) 0.7424(5) 0.0504(4)
H35 H -0.4622 0.7670 0.0233
C49 C -0.3873(4) 0.7259(5) 0.0410(5)
H36 H -0.3775 0.7389 0.0068
N4 N -0.5053(3) 0.7411(3) 0.1082(3)
C50 C -0.5333(3) 0.7067(4) 0.1298(3)
H37 H -0.5198 0.6690 0.1367
C51 C -0.5847(3) 0.7207(3) 0.1450(3)
C52 C -0.6074(4) 0.7754(4) 0.1359(4)
H38 H -0.5890 0.8035 0.1190
C53 C -0.6559(4) 0.7893(4) 0.1510(4)
H39 H -0.6707 0.8264 0.1437
C54 C -0.6831(4) 0.7495(4) 0.1766(4)
H40 H -0.7160 0.7595 0.1876
C55 C -0.6621(3) 0.6955(3) 0.1860(3)
C56 C -0.6128(3) 0.6812(3) 0.1703(3)
O7 O -0.6844(2) 0.6526(2) 0.2103(2)
O8 O -0.5978(2) 0.6265(2) 0.1806(2)
O9 O 0.0801(2) 0.5085(2) 0.2699(2)
O10 O 0.1830(2) 0.5113(2) 0.3137(2)
C57 C 0.1007(3) 0.4609(3) 0.2981(4)
C58 C 0.1586(3) 0.4616(3) 0.3217(3)
C59 C 0.1854(4) 0.4147(4) 0.3491(4)
H41 H 0.2247 0.4148 0.3641
C60 C 0.1544(4) 0.3665(4) 0.3549(4)
H42 H 0.1728 0.3339 0.3742
C61 C 0.0973(4) 0.3658(4) 0.3328(4)
H43 H 0.0769 0.3329 0.3375
C62 C 0.0690(4) 0.4134(4) 0.3034(4)
C63 C 0.0085(4) 0.4147(4) 0.2794(4)
H44 H -0.0074 0.4437 0.2523
N5 N -0.0238(3) 0.3778(3) 0.2938(4)
C64 C -0.0816(4) 0.3820(4) 0.2655(5)
C65 C -0.1192(5) 0.3775(5) 0.3014(5)
H45 H -0.1060 0.3723 0.3426
C66 C -0.1757(5) 0.3807(5) 0.2751(6)
H46 H -0.2012 0.3771 0.2989
C67 C -0.1967(4) 0.3891(4) 0.2143(6)
C68 C -0.1597(5) 0.3921(5) 0.1824(5)
H47 H -0.1725 0.3964 0.1410
C69 C -0.1024(4) 0.3892(5) 0.2081(5)
H48 H -0.0775 0.3925 0.1837
C70 C -0.2601(4) 0.3945(5) 0.1891(6)
H49 H -0.2740 0.4244 0.2112
H50 H -0.2674 0.4073 0.1478
C71 C -0.2924(4) 0.3422(4) 0.1908(6)
H51 H -0.2818 0.3264 0.2310
H52 H -0.2827 0.3138 0.1641
C72 C -0.3547(4) 0.3523(4) 0.1728(6)
C73 C -0.3856(4) 0.3454(4) 0.1171(5)
H53 H -0.3678 0.3326 0.0882
C74 C -0.4420(4) 0.3561(4) 0.1004(5)
H54 H -0.4624 0.3487 0.0612
C75 C -0.4689(4) 0.3774(4) 0.1401(4)
C76 C -0.4385(4) 0.3856(4) 0.1982(5)
H55 H -0.4561 0.3994 0.2268
C77 C -0.3816(4) 0.3731(4) 0.2132(5)
H56 H -0.3606 0.3792 0.2525
N6 N -0.5266(3) 0.3884(3) 0.1196(3)
C78 C -0.5487(3) 0.4278(4) 0.1431(4)
H57 H -0.5257 0.4493 0.1740
C79 C -0.6083(3) 0.4413(4) 0.1241(4)
C80 C -0.6446(4) 0.4114(4) 0.0798(4)
H58 H -0.6306 0.3812 0.0611
C81 C -0.6998(4) 0.4240(4) 0.0623(4)
H59 H -0.7236 0.4023 0.0322
C82 C -0.7215(4) 0.4680(4) 0.0880(4)
H60 H -0.7599 0.4772 0.0749
C83 C -0.6873(3) 0.4986(4) 0.1324(3)
C84 C -0.6305(3) 0.4847(4) 0.1517(3)
O11 O -0.7034(2) 0.5432(2) 0.1598(2)
O12 O -0.6025(2) 0.5160(2) 0.1967(2)
Na1 Na 0.00309(13) 0.57009(14) 0.26344(15)
O13 O -0.0294(3) 0.5274(3) 0.3356(3)
C85 C -0.0401(6) 0.4941(5) 0.3726(6)
H61 H -0.0779 0.4839 0.3685
N7 N -0.0013(7) 0.4717(5) 0.4181(5)
C86 C 0.0553(7) 0.4866(8) 0.4242(8)
H62 H 0.0581 0.5105 0.3910
H63 H 0.0774 0.4522 0.4247
H64 H 0.0693 0.5075 0.4609
C87 C -0.0182(8) 0.4301(6) 0.4494(7)
H65 H -0.0016 0.4363 0.4914
H66 H -0.0064 0.3932 0.4378
H67 H -0.0589 0.4309 0.4416
O14 O -0.0465(3) 0.6518(3) 0.2609(3)
C88 C -0.0486(4) 0.6984(5) 0.2837(5)
H68 H -0.0759 0.7023 0.3051
N8 N -0.0185(4) 0.7423(4) 0.2822(4)
C89 C -0.0252(6) 0.7940(5) 0.3124(5)
H69 H -0.0371 0.8245 0.2837
H70 H 0.0103 0.8042 0.3397
H71 H -0.0534 0.7884 0.3343
C90 C 0.0260(4) 0.7393(5) 0.2524(5)
H72 H 0.0293 0.7003 0.2393
H73 H 0.0612 0.7508 0.2795
H74 H 0.0176 0.7647 0.2184
O15 O -0.0565(3) 0.5331(3) 0.1809(3)
C91 C -0.1064(7) 0.5404(6) 0.1742(7)
H75 H -0.1175 0.5536 0.2075
N9 N -0.1464(6) 0.5321(5) 0.1262(6)
C92 C -0.2044(9) 0.5383(9) 0.1238(9)
H76 H -0.2228 0.5013 0.1163
H77 H -0.2217 0.5646 0.0922
H78 H -0.2084 0.5532 0.1613
C93 C -0.1313(9) 0.5195(9) 0.0796(9)
H79 H -0.1344 0.4785 0.0732
H80 H -0.0926 0.5313 0.0843
H81 H -0.1553 0.5391 0.0459
Na2 Na -0.76166(13) 0.49774(13) 0.22963(15)
O16 O -0.7091(3) 0.4194(3) 0.2631(3)
C94 C -0.6708(5) 0.3942(5) 0.2525(5)
H82 H -0.6576 0.4082 0.2207
N10 N -0.6449(4) 0.3490(3) 0.2801(4)
C95 C -0.5995(5) 0.3219(6) 0.2630(6)
H83 H -0.6118 0.2850 0.2451
H84 H -0.5684 0.3163 0.2977
H85 H -0.5875 0.3458 0.2345
C96 C -0.6630(6) 0.3272(6) 0.3278(6)
H86 H -0.6778 0.3581 0.3471
H87 H -0.6315 0.3094 0.3560
H88 H -0.6921 0.2989 0.3135
O17 O -0.8291(3) 0.4501(3) 0.1585(4)
C97 C -0.8795(8) 0.4486(6) 0.1550(8)
H89 H -0.8901 0.4461 0.1909
N11 N -0.9198(4) 0.4500(4) 0.1066(5)
C98 C -0.9114(9) 0.4543(8) 0.0515(7)
H90 H -0.8715 0.4580 0.0546
H91 H -0.9309 0.4878 0.0318
H92 H -0.9259 0.4204 0.0288
C99 C -0.9737(8) 0.4517(8) 0.1152(11)
H93 H -0.9959 0.4802 0.0892
H94 H -0.9714 0.4616 0.1562
H95 H -0.9913 0.4144 0.1064
Na3 Na -0.51546(12) 0.57042(13) 0.22524(14)
O18 O -0.4573(3) 0.6429(3) 0.2607(3)
C100 C -0.4330(5) 0.6748(5) 0.2980(5)
H96 H -0.3936 0.6713 0.3092
N12 N -0.4548(4) 0.7149(4) 0.3257(4)
C101 C -0.5155(5) 0.7227(6) 0.3080(6)
H97 H -0.5262 0.7414 0.2697
H98 H -0.5270 0.7461 0.3372
H99 H -0.5338 0.6856 0.3054
C102 C -0.4228(7) 0.7475(6) 0.3747(5)
H100 H -0.4326 0.7359 0.4107
H101 H -0.4311 0.7879 0.3676
H102 H -0.3830 0.7410 0.3791
O19 O -0.4749(2) 0.4962(3) 0.2885(3)
C103 C -0.5046(4) 0.4690(4) 0.3135(4)
H103 H -0.5438 0.4706 0.2976
N13 N -0.4850(3) 0.4374(3) 0.3615(3)
C104 C -0.4260(4) 0.4343(4) 0.3887(5)
H104 H -0.4055 0.4514 0.3626
H105 H -0.4150 0.3946 0.3959
H106 H -0.4176 0.4549 0.4260
C105 C -0.5214(5) 0.4098(5) 0.3917(5)
H107 H -0.5601 0.4150 0.3694
H108 H -0.5160 0.4264 0.4309
H109 H -0.5127 0.3693 0.3954
O20 O -0.4852(4) 0.5530(4) 0.1423(4)
C106 C -0.4589(9) 0.5410(7) 0.1183(9)
H110 H -0.4371 0.5138 0.1438
N14 N -0.4364(4) 0.5391(4) 0.0763(5)
C107 C -0.4589(8) 0.5709(8) 0.0254(7)
H111 H -0.4988 0.5766 0.0211
H112 H -0.4534 0.5506 -0.0089
H113 H -0.4402 0.6078 0.0285
C108 C -0.3848(7) 0.5096(7) 0.0862(11)
H114 H -0.3760 0.4922 0.1252
H115 H -0.3553 0.5363 0.0838
H116 H -0.3876 0.4801 0.0563
Na4 Na 0.24663(12) 0.65385(14) 0.26157(13)
O21 O 0.1947(3) 0.7228(3) 0.2043(3)
C109 C 0.1477(5) 0.7362(4) 0.1760(5)
H117 H 0.1189 0.7346 0.1958
N15 N 0.1332(4) 0.7531(4) 0.1195(5)
C110 C 0.0756(6) 0.7679(5) 0.0900(7)
H118 H 0.0611 0.7411 0.0580
H119 H 0.0744 0.8064 0.0740
H120 H 0.0528 0.7662 0.1182
C111 C 0.1758(7) 0.7541(8) 0.0860(7)
H121 H 0.1924 0.7920 0.0884
H122 H 0.1586 0.7446 0.0449
H123 H 0.2049 0.7263 0.1026
O22 O 0.3045(3) 0.6908(3) 0.3430(3)
C112 C 0.3515(5) 0.6964(4) 0.3752(6)
H124 H 0.3800 0.7053 0.3563
N16 N 0.3674(4) 0.6917(4) 0.4333(4)
C113 C 0.4240(5) 0.6982(6) 0.4648(6)
H125 H 0.4383 0.6619 0.4827
H126 H 0.4267 0.7267 0.4957
H127 H 0.4459 0.7105 0.4379
C114 C 0.3279(6) 0.6705(7) 0.4638(6)
H128 H 0.2960 0.6538 0.4355
H129 H 0.3151 0.7019 0.4844
H130 H 0.3458 0.6417 0.4923
Na2_2 Na 0.23834(13) 0.49774(13) 0.22963(15)
Na4_2 Na -0.75337(12) 0.65385(14) 0.26157(13)
O6_2 O -0.8253(2) 0.5744(2) 0.2163(2)
O10_2 O -0.8170(2) 0.5113(2) 0.3137(2)
O7_2 O 0.3156(2) 0.6526(2) 0.2103(2)
O23 O -0.2235(5) 0.4044(5) 0.0365(5)
C115 C -0.2744(7) 0.4181(7) 0.0140(7)
H131 H -0.2859 0.4559 0.0183
N17 N -0.3122(6) 0.3805(6) -0.0158(6)
C116 C -0.3682(6) 0.3992(7) -0.0352(7)
H132 H -0.3712 0.4377 -0.0207
H133 H -0.3923 0.3737 -0.0200
H134 H -0.3797 0.3992 -0.0782
C117 C -0.2969(7) 0.3291(6) -0.0208(7)
H135 H -0.2941 0.3225 -0.0610
H136 H -0.3244 0.3031 -0.0119
H137 H -0.2606 0.3225 0.0068
O24 O -0.2803(7) 0.4309(7) 0.3998(7)
C118 C -0.2669(9) 0.4480(10) 0.4535(9)
H138 H -0.2901 0.4739 0.4672
N18 N -0.2196(8) 0.4289(8) 0.4900(8)
C119 C -0.2114(9) 0.4507(9) 0.5478(8)
H139 H -0.2373 0.4820 0.5475
H140 H -0.1731 0.4644 0.5619
H141 H -0.2181 0.4206 0.5739
C120 C -0.1788(9) 0.4150(9) 0.4661(9)
H142 H -0.1597 0.3813 0.4858
H143 H -0.1524 0.4465 0.4705
H144 H -0.1942 0.4068 0.4243
O25 O -0.2970(9) 0.7265(9) 0.3228(9)
C121 C -0.2559(11) 0.7325(11) 0.2978(12)
H145 H -0.2511 0.7071 0.2682
N19 N -0.2202(9) 0.7767(10) 0.3160(10)
C122 C -0.1942(12) 0.8005(12) 0.2746(12)
H146 H -0.1653 0.8272 0.2945
H147 H -0.2220 0.8205 0.2442
H148 H -0.1773 0.7702 0.2565
C123 C -0.2334(13) 0.8046(12) 0.3572(12)
H149 H -0.2416 0.8440 0.3447
H150 H -0.2023 0.8038 0.3925
H151 H -0.2662 0.7875 0.3659
O26 O -0.2083(9) 0.5386(10) 0.2927(10)
C124 C -0.2493(11) 0.5156(13) 0.3076(14)
H152 H -0.2463 0.4867 0.3363
N20 N -0.2978(10) 0.5389(11) 0.2763(13)
C125 C -0.3457(11) 0.5129(14) 0.2812(15)
H153 H -0.3366 0.4840 0.3121
H154 H -0.3642 0.4950 0.2438
H155 H -0.3706 0.5411 0.2914
C126 C -0.2876(14) 0.5808(12) 0.2454(15)
H156 H -0.3109 0.6132 0.2496
H157 H -0.2958 0.5696 0.2040
H158 H -0.2483 0.5914 0.2591
O27 O -0.0244(3) 0.6856(3) -0.0562(3)
loop_
_geom_bond_atom_site_label_1
_geom_bond_atom_site_label_2
_geom_bond_site_symmetry_1
_geom_bond_site_symmetry_2
Ti1 O1 1_555 1_555
Ti2 O3 1_555 1_555
O1 C1 1_555 1_555
O2 Ti1 1_555 1_555
C1 C2 1_555 1_555
C2 O2 1_555 1_555
C3 C2 1_555 1_555
H1 C3 1_555 1_555
C4 C3 1_555 1_555
H2 C4 1_555 1_555
C5 C4 1_555 1_555
H3 C5 1_555 1_555
C6 C1 1_555 1_555
C7 C6 1_555 1_555
H4 C7 1_555 1_555
N1 C7 1_555 1_555
C8 N1 1_555 1_555
C9 C8 1_555 1_555
H5 C9 1_555 1_555
C10 C9 1_555 1_555
H6 C10 1_555 1_555
C11 C10 1_555 1_555
C12 C11 1_555 1_555
H7 C12 1_555 1_555
C13 C8 1_555 1_555
H8 C13 1_555 1_555
C14 C11 1_555 1_555
H9 C14 1_555 1_555
H10 C14 1_555 1_555
C15 C14 1_555 1_555
H11 C15 1_555 1_555
H12 C15 1_555 1_555
C16 C15 1_555 1_555
C17 C16 1_555 1_555
H13 C17 1_555 1_555
C18 C17 1_555 1_555
H14 C18 1_555 1_555
C19 C18 1_555 1_555
C20 C19 1_555 1_555
H15 C20 1_555 1_555
C21 C16 1_555 1_555
H16 C21 1_555 1_555
N2 C19 1_555 1_555
C22 N2 1_555 1_555
H17 C22 1_555 1_555
C23 C22 1_555 1_555
C24 C23 1_555 1_555
H18 C24 1_555 1_555
C25 C24 1_555 1_555
H19 C25 1_555 1_555
C26 C25 1_555 1_555
H20 C26 1_555 1_555
C27 C26 1_555 1_555
C28 C23 1_555 1_555
O3 C27 1_555 1_555
O4 Ti2 1_555 1_555
O5 Ti1 1_555 1_555
O6 Ti1 1_555 1_555
C29 O5 1_555 1_555
C30 O6 1_555 1_555
C31 C30 1_555 1_555
H21 C31 1_555 1_555
C32 C31 1_555 1_555
H22 C32 1_555 1_555
C33 C32 1_555 1_555
H23 C33 1_555 1_555
C34 C29 1_555 1_555
C35 C34 1_555 1_555
H24 C35 1_555 1_555
N3 C35 1_555 1_555
C36 N3 1_555 1_555
C37 C36 1_555 1_555
H25 C37 1_555 1_555
C38 C37 1_555 1_555
H26 C38 1_555 1_555
C39 C38 1_555 1_555
C40 C39 1_555 1_555
H27 C40 1_555 1_555
C41 C36 1_555 1_555
H28 C41 1_555 1_555
C42 C39 1_555 1_555
H29 C42 1_555 1_555
H30 C42 1_555 1_555
C43 C42 1_555 1_555
H31 C43 1_555 1_555
H32 C43 1_555 1_555
C44 C43 1_555 1_555
C45 C44 1_555 1_555
H33 C45 1_555 1_555
C46 C45 1_555 1_555
H34 C46 1_555 1_555
C47 C46 1_555 1_555
C48 C47 1_555 1_555
H35 C48 1_555 1_555
C49 C44 1_555 1_555
H36 C49 1_555 1_555
N4 C47 1_555 1_555
C50 N4 1_555 1_555
H37 C50 1_555 1_555
C51 C50 1_555 1_555
C52 C51 1_555 1_555
H38 C52 1_555 1_555
C53 C52 1_555 1_555
H39 C53 1_555 1_555
C54 C53 1_555 1_555
H40 C54 1_555 1_555
C55 C54 1_555 1_555
C56 C51 1_555 1_555
O7 Ti2 1_555 1_555
O8 Ti2 1_555 1_555
O9 Ti1 1_555 1_555
O10 Ti1 1_555 1_555
C57 O9 1_555 1_555
C58 O10 1_555 1_555
C59 C58 1_555 1_555
H41 C59 1_555 1_555
C60 C59 1_555 1_555
H42 C60 1_555 1_555
C61 C60 1_555 1_555
H43 C61 1_555 1_555
C62 C57 1_555 1_555
C63 C62 1_555 1_555
H44 C63 1_555 1_555
N5 C63 1_555 1_555
C64 N5 1_555 1_555
C65 C64 1_555 1_555
H45 C65 1_555 1_555
C66 C65 1_555 1_555
H46 C66 1_555 1_555
C67 C66 1_555 1_555
C68 C67 1_555 1_555
H47 C68 1_555 1_555
C69 C64 1_555 1_555
H48 C69 1_555 1_555
C70 C67 1_555 1_555
H49 C70 1_555 1_555
H50 C70 1_555 1_555
C71 C70 1_555 1_555
H51 C71 1_555 1_555
H52 C71 1_555 1_555
C72 C71 1_555 1_555
C73 C72 1_555 1_555
H53 C73 1_555 1_555
C74 C73 1_555 1_555
H54 C74 1_555 1_555
C75 C74 1_555 1_555
C76 C75 1_555 1_555
H55 C76 1_555 1_555
C77 C72 1_555 1_555
H56 C77 1_555 1_555
N6 C75 1_555 1_555
C78 N6 1_555 1_555
H57 C78 1_555 1_555
C79 C78 1_555 1_555
C80 C79 1_555 1_555
H58 C80 1_555 1_555
C81 C80 1_555 1_555
H59 C81 1_555 1_555
C82 C81 1_555 1_555
H60 C82 1_555 1_555
C83 C82 1_555 1_555
C84 C79 1_555 1_555
O11 Ti2 1_555 1_555
O12 Ti2 1_555 1_555
Na1 O1 1_555 1_555
O13 Na1 1_555 1_555
C85 O13 1_555 1_555
H61 C85 1_555 1_555
N7 C85 1_555 1_555
C86 N7 1_555 1_555
H62 C86 1_555 1_555
H63 C86 1_555 1_555
H64 C86 1_555 1_555
C87 N7 1_555 1_555
H65 C87 1_555 1_555
H66 C87 1_555 1_555
H67 C87 1_555 1_555
O14 Na1 1_555 1_555
C88 O14 1_555 1_555
H68 C88 1_555 1_555
N8 C88 1_555 1_555
C89 N8 1_555 1_555
H69 C89 1_555 1_555
H70 C89 1_555 1_555
H71 C89 1_555 1_555
C90 N8 1_555 1_555
H72 C90 1_555 1_555
H73 C90 1_555 1_555
H74 C90 1_555 1_555
O15 Na1 1_555 1_555
C91 O15 1_555 1_555
H75 C91 1_555 1_555
N9 C91 1_555 1_555
C92 N9 1_555 1_555
H76 C92 1_555 1_555
H77 C92 1_555 1_555
H78 C92 1_555 1_555
C93 N9 1_555 1_555
H79 C93 1_555 1_555
H80 C93 1_555 1_555
H81 C93 1_555 1_555
Na2 O3 1_555 1_555
O16 Na2 1_555 1_555
C94 O16 1_555 1_555
H82 C94 1_555 1_555
N10 C94 1_555 1_555
C95 N10 1_555 1_555
H83 C95 1_555 1_555
H84 C95 1_555 1_555
H85 C95 1_555 1_555
C96 N10 1_555 1_555
H86 C96 1_555 1_555
H87 C96 1_555 1_555
H88 C96 1_555 1_555
O17 Na2 1_555 1_555
C97 O17 1_555 1_555
H89 C97 1_555 1_555
N11 C97 1_555 1_555
C98 N11 1_555 1_555
H90 C98 1_555 1_555
H91 C98 1_555 1_555
H92 C98 1_555 1_555
C99 N11 1_555 1_555
H93 C99 1_555 1_555
H94 C99 1_555 1_555
H95 C99 1_555 1_555
Na3 O4 1_555 1_555
O18 Na3 1_555 1_555
C100 O18 1_555 1_555
H96 C100 1_555 1_555
N12 C100 1_555 1_555
C101 N12 1_555 1_555
H97 C101 1_555 1_555
H98 C101 1_555 1_555
H99 C101 1_555 1_555
C102 N12 1_555 1_555
H100 C102 1_555 1_555
H101 C102 1_555 1_555
H102 C102 1_555 1_555
O19 Na3 1_555 1_555
C103 O19 1_555 1_555
H103 C103 1_555 1_555
N13 C103 1_555 1_555
C104 N13 1_555 1_555
H104 C104 1_555 1_555
H105 C104 1_555 1_555
H106 C104 1_555 1_555
C105 N13 1_555 1_555
H107 C105 1_555 1_555
H108 C105 1_555 1_555
H109 C105 1_555 1_555
O20 Na3 1_555 1_555
C106 O20 1_555 1_555
H110 C106 1_555 1_555
N14 C106 1_555 1_555
C107 N14 1_555 1_555
H111 C107 1_555 1_555
H112 C107 1_555 1_555
H113 C107 1_555 1_555
C108 N14 1_555 1_555
H114 C108 1_555 1_555
H115 C108 1_555 1_555
H116 C108 1_555 1_555
Na4 O2 1_555 1_555
O21 Na4 1_555 1_555
C109 O21 1_555 1_555
H117 C109 1_555 1_555
N15 C109 1_555 1_555
C110 N15 1_555 1_555
H118 C110 1_555 1_555
H119 C110 1_555 1_555
H120 C110 1_555 1_555
C111 N15 1_555 1_555
H121 C111 1_555 1_555
H122 C111 1_555 1_555
H123 C111 1_555 1_555
O22 Na4 1_555 1_555
C112 O22 1_555 1_555
H124 C112 1_555 1_555
N16 C112 1_555 1_555
C113 N16 1_555 1_555
H125 C113 1_555 1_555
H126 C113 1_555 1_555
H127 C113 1_555 1_555
C114 N16 1_555 1_555
H128 C114 1_555 1_555
H129 C114 1_555 1_555
H130 C114 1_555 1_555
O23 C115 1_555 1_555
C115 H131 1_555 1_555
N17 C115 1_555 1_555
C116 N17 1_555 1_555
H132 C116 1_555 1_555
H133 C116 1_555 1_555
H134 C116 1_555 1_555
C117 N17 1_555 1_555
H135 C117 1_555 1_555
H136 C117 1_555 1_555
H137 C117 1_555 1_555
O24 C118 1_555 1_555
C118 H138 1_555 1_555
N18 C118 1_555 1_555
C119 N18 1_555 1_555
H139 C119 1_555 1_555
H140 C119 1_555 1_555
H141 C119 1_555 1_555
C120 N18 1_555 1_555
H142 C120 1_555 1_555
H143 C120 1_555 1_555
H144 C120 1_555 1_555
O25 C121 1_555 1_555
C121 H145 1_555 1_555
N19 C121 1_555 1_555
C122 N19 1_555 1_555
H146 C122 1_555 1_555
H147 C122 1_555 1_555
H148 C122 1_555 1_555
C123 N19 1_555 1_555
H149 C123 1_555 1_555
H150 C123 1_555 1_555
H151 C123 1_555 1_555
O26 C124 1_555 1_555
C124 H152 1_555 1_555
N20 C124 1_555 1_555
C125 N20 1_555 1_555
H153 C125 1_555 1_555
H154 C125 1_555 1_555
H155 C125 1_555 1_555
C126 N20 1_555 1_555
H156 C126 1_555 1_555
H157 C126 1_555 1_555
H158 C126 1_555 1_555
Na2_2 O6 1_555 1_555
Na4_2 O7 1_555 1_555
O6_2 Na2 1_555 1_555
O10_2 Na2 1_555 1_555
O7_2 Na4 1_555 1_555
C5 C6 1_555 1_555
C12 C13 1_555 1_555
C20 C21 1_555 1_555
C27 C28 1_555 1_555
C28 O4 1_555 1_555
O5 Na1 1_555 1_555
O6 Na4 1_555 1_555
C29 C30 1_555 1_555
C33 C34 1_555 1_555
C40 C41 1_555 1_555
C48 C49 1_555 1_555
C55 C56 1_555 1_555
C55 O7 1_555 1_555
C56 O8 1_555 1_555
O8 Na3 1_555 1_555
O9 Na1 1_555 1_555
O10 Na2_2 1_555 1_555
C57 C58 1_555 1_555
C61 C62 1_555 1_555
C68 C69 1_555 1_555
C76 C77 1_555 1_555
C83 C84 1_555 1_555
C83 O11 1_555 1_555
C84 O12 1_555 1_555
O11 Na2 1_555 1_555
O12 Na3 1_555 1_555
Na4_2 O6_2 1_555 1_555

#END
