
#######################################################################
#
#                 Cambridge Crystallographic Data Centre
#                                CCDC 
#
#######################################################################
#
# If this CIF has been generated from an entry in the Cambridge 
# Structural Database, then it will include bibliographic, chemical, 
# crystal, experimental, refinement or atomic coordinate data resulting 
# from the CCDC's data processing and validation procedures.
#
#######################################################################

data_YABQEY
_symmetry_cell_setting           monoclinic
_symmetry_space_group_name_H-M   'P 21/c'
_symmetry_Int_Tables_number      14
_space_group_name_Hall           '-P 2ybc'
loop_
_symmetry_equiv_pos_site_id
_symmetry_equiv_pos_as_xyz
1 x,y,z
2 x,1/2-y,1/2+z
3 -x,-y,-z
4 -x,1/2+y,1/2-z
_cell_length_a                   22.716(1)
_cell_length_b                   24.487(1)
_cell_length_c                   22.868(1)
_cell_angle_alpha                90
_cell_angle_beta                 104.35(1)
_cell_angle_gamma                90
_cell_volume                     12323.4
loop_
_atom_site_label
_atom_site_type_symbol
_atom_site_fract_x
_atom_site_fract_y
_atom_site_fract_z
Ti1 Ti -0.61160(5) 0.92496(5) 0.21513(6)
Ti2 Ti 0.14708(5) 0.90734(5) 0.27662(6)
O1 O -0.55447(17) 0.98803(19) 0.2268(2)
O2 O -0.66615(18) 0.9830(2) 0.1791(2)
C1 C -0.5781(3) 1.0357(3) 0.2018(3)
C2 C -0.6418(3) 1.0335(3) 0.1751(4)
C3 C -0.6729(3) 1.0780(3) 0.1497(4)
H1 H -0.7154 1.0764 0.1323
C4 C -0.6405(3) 1.1269(4) 0.1500(5)
H2 H -0.6615 1.1588 0.1327
C5 C -0.5791(3) 1.1295(3) 0.1745(4)
H3 H -0.5583 1.1630 0.1737
C6 C -0.5468(3) 1.0838(3) 0.2007(4)
C7 C -0.4803(3) 1.0851(3) 0.2277(4)
H4 H -0.4611 1.0524 0.2450
N1 N -0.4474(2) 1.1271(3) 0.2290(3)
C8 C -0.3837(3) 1.1217(3) 0.2473(4)
C9 C -0.3531(3) 1.0782(4) 0.2302(4)
H5 H -0.3753 1.0498 0.2061
C10 C -0.2902(4) 1.0757(4) 0.2478(4)
H6 H -0.2704 1.0456 0.2346
C11 C -0.2550(3) 1.1148(3) 0.2834(4)
C12 C -0.3492(3) 1.1629(3) 0.2821(4)
H7 H -0.3691 1.1938 0.2934
C13 C -0.2865(3) 1.1592(3) 0.3004(4)
H8 H -0.2642 1.1873 0.3249
C14 C -0.1881(3) 1.1099(3) 0.3028(4)
C15 C -0.1561(3) 1.0853(4) 0.2658(4)
H9 H -0.1776 1.0725 0.2271
C16 C -0.0926(3) 1.0788(4) 0.2839(4)
H10 H -0.0716 1.0622 0.2574
C17 C -0.0607(3) 1.0966(3) 0.3405(3)
C18 C -0.1549(3) 1.1297(3) 0.3576(4)
H11 H -0.1753 1.1480 0.3835
C19 C -0.0915(3) 1.1232(4) 0.3760(4)
H12 H -0.0698 1.1377 0.4137
N2 N 0.0038(2) 1.0918(3) 0.3629(3)
C20 C 0.0314(3) 1.0527(3) 0.3428(3)
H13 H 0.0086 1.0292 0.3126
C21 C 0.0970(3) 1.0432(3) 0.3651(3)
C22 C 0.1336(3) 1.0749(3) 0.4108(3)
H14 H 0.1160 1.1042 0.4277
C23 C 0.1948(3) 1.0643(4) 0.4319(4)
H15 H 0.2186 1.0864 0.4631
C24 C 0.2224(3) 1.0212(4) 0.4082(4)
H16 H 0.2645 1.0139 0.4230
C25 C 0.1872(3) 0.9901(3) 0.3631(3)
C26 C 0.1247(3) 1.0012(3) 0.3408(3)
O3 O 0.20797(18) 0.9476(2) 0.3366(2)
O4 O 0.09677(17) 0.96848(19) 0.2955(2)
O5 O -0.56561(17) 0.89852(19) 0.1578(2)
O6 O -0.66346(18) 0.86554(19) 0.1767(2)
C27 C -0.5862(3) 0.8524(3) 0.1281(3)
C28 C -0.6420(3) 0.8337(3) 0.1379(3)
C29 C -0.6688(3) 0.7859(3) 0.1114(3)
H17 H -0.7062 0.7736 0.1182
C30 C -0.6398(3) 0.7566(3) 0.0748(4)
H18 H -0.6574 0.7236 0.0566
C31 C -0.5862(3) 0.7744(3) 0.0646(4)
H19 H -0.5674 0.7536 0.0392
C32 C -0.5585(3) 0.8223(3) 0.0904(3)
C33 C -0.4989(3) 0.8399(3) 0.0817(3)
H20 H -0.4832 0.8744 0.0971
N3 N -0.4681(2) 0.8105(3) 0.0545(3)
C34 C -0.4101(3) 0.8294(3) 0.0504(3)
C35 C -0.3782(3) 0.8727(4) 0.0841(4)
H21 H -0.3955 0.8918 0.1119
C36 C -0.3215(3) 0.8879(4) 0.0771(4)
H22 H -0.3019 0.9189 0.0982
C37 C -0.2924(3) 0.8587(3) 0.0397(3)
C38 C -0.3813(3) 0.8018(3) 0.0128(4)
H23 H -0.4015 0.7721 -0.0106
C39 C -0.3243(3) 0.8160(4) 0.0082(4)
H24 H -0.3061 0.7954 -0.0179
C40 C -0.2296(3) 0.8734(3) 0.0371(3)
C41 C -0.1924(3) 0.9023(4) 0.0845(4)
H25 H -0.2088 0.9132 0.1170
C42 C -0.1330(3) 0.9160(4) 0.0867(4)
H26 H -0.1091 0.9350 0.1206
C43 C -0.1082(3) 0.9017(3) 0.0389(3)
C44 C -0.2049(3) 0.8631(5) -0.0101(4)
H27 H -0.2293 0.8461 -0.0452
C45 C -0.1454(3) 0.8767(5) -0.0089(4)
H28 H -0.1302 0.8680 -0.0429
N4 N -0.0481(2) 0.9160(3) 0.0392(3)
C46 C -0.0079(3) 0.9125(3) 0.0898(3)
H29 H -0.0194 0.8979 0.1237
C47 C 0.0548(3) 0.9301(3) 0.0968(3)
C48 C 0.0754(3) 0.9566(4) 0.0513(4)
H30 H 0.0476 0.9642 0.0138
C49 C 0.1356(3) 0.9721(4) 0.0602(4)
H31 H 0.1486 0.9894 0.0283
C50 C 0.1772(3) 0.9628(3) 0.1149(3)
H32 H 0.2186 0.9729 0.1203
C51 C 0.1582(3) 0.9389(3) 0.1609(3)
C52 C 0.0960(3) 0.9219(3) 0.1525(3)
O7 O 0.19254(17) 0.9304(2) 0.2172(2)
O8 O 0.08324(18) 0.89975(19) 0.2016(2)
O9 O -0.54748(18) 0.89165(19) 0.2800(2)
O10 O -0.65384(18) 0.9221(2) 0.2804(2)
C53 C -0.5604(3) 0.8882(3) 0.3344(3)
C54 C -0.6198(3) 0.9032(3) 0.3349(3)
C55 C -0.6405(3) 0.8998(4) 0.3869(3)
H33 H -0.6809 0.9100 0.3868
C56 C -0.6011(3) 0.8813(4) 0.4384(4)
H34 H -0.6143 0.8793 0.4746
C57 C -0.5424(3) 0.8654(4) 0.4392(4)
H35 H -0.5168 0.8511 0.4752
C58 C -0.5202(3) 0.8703(3) 0.3872(3)
C59 C -0.4588(3) 0.8545(3) 0.3858(3)
H36 H -0.4469 0.8581 0.3490
N5 N -0.4197(2) 0.8356(3) 0.4328(3)
C60 C -0.3604(3) 0.8222(3) 0.4260(3)
C61 C -0.3505(3) 0.8013(4) 0.3723(4)
H37 H -0.3839 0.7951 0.3386
C62 C -0.2923(3) 0.7896(4) 0.3683(4)
H38 H -0.2865 0.7759 0.3312
C63 C -0.2431(3) 0.7969(3) 0.4152(4)
C64 C -0.3117(3) 0.8274(3) 0.4749(4)
H39 H -0.3174 0.8398 0.5124
C65 C -0.2526(3) 0.8142(3) 0.4691(4)
H40 H -0.2191 0.8174 0.5033
C66 C -0.1791(2) 0.7861(3) 0.4103(3)
C67 C -0.1631(3) 0.8058(3) 0.3594(3)
H41 H -0.1911 0.8270 0.3306
C68 C -0.1059(3) 0.7944(3) 0.3507(3)
H42 H -0.0949 0.8078 0.3159
C69 C -0.0648(2) 0.7634(3) 0.3928(3)
C70 C -0.0809(3) 0.7437(3) 0.4438(3)
H43 H -0.0528 0.7225 0.4726
C71 C -0.1381(3) 0.7551(3) 0.4525(3)
H44 H -0.1490 0.7417 0.4873
N6 N -0.0066(2) 0.7461(3) 0.3827(3)
C72 C 0.0246(3) 0.7818(3) 0.3638(4)
H45 H 0.0100 0.8183 0.3600
C73 C 0.0810(3) 0.7705(3) 0.3478(4)
C74 C 0.1046(4) 0.7161(4) 0.3528(5)
H46 H 0.0845 0.6881 0.3692
C75 C 0.1569(4) 0.7039(4) 0.3337(5)
H47 H 0.1715 0.6674 0.3363
C76 C 0.1876(4) 0.7438(4) 0.3114(4)
H48 H 0.2233 0.7351 0.2989
C77 C 0.1665(3) 0.7963(3) 0.3073(3)
C78 C 0.1126(3) 0.8092(3) 0.3249(3)
O11 O 0.19193(19) 0.8395(2) 0.2861(2)
O12 O 0.09639(18) 0.86242(19) 0.3171(2)
Na1 Na -0.46806(11) 0.92608(12) 0.23212(13)
O13 O -0.4445(2) 0.9727(2) 0.1493(2)
C79 C -0.4871(4) 0.9955(3) 0.1151(4)
H49 H -0.5267 0.9845 0.1168
N7 N -0.4835(3) 1.0343(3) 0.0757(3)
C80 C -0.4269(5) 1.0541(5) 0.0676(6)
H50 H -0.4180 1.0898 0.0873
H51 H -0.4294 1.0578 0.0244
H52 H -0.3945 1.0283 0.0856
C81 C -0.5365(5) 1.0629(5) 0.0424(6)
H53 H -0.5729 1.0463 0.0505
H54 H -0.5387 1.0605 -0.0009
H55 H -0.5339 1.1013 0.0547
O14 O -0.4195(3) 0.8468(3) 0.2296(3)
C82 C -0.4129(7) 0.8023(7) 0.2080(7)
H56 H -0.3798 0.7995 0.1897
N8 N -0.4482(6) 0.7545(6) 0.2065(5)
C83 C -0.4971(7) 0.7605(6) 0.2312(7)
H57 H -0.5046 0.7260 0.2499
H58 H -0.5331 0.7704 0.1994
H59 H -0.4885 0.7893 0.2618
C84 C -0.4470(9) 0.7016(9) 0.1737(9)
H60 H -0.4829 0.6800 0.1749
H61 H -0.4102 0.6812 0.1931
H62 H -0.4470 0.7092 0.1316
O15 O -0.4095(3) 0.9690(3) 0.3171(3)
C85 C -0.3612(8) 0.9582(8) 0.3425(8)
H63 H -0.3452 0.9238 0.3350
N9 N -0.3239(5) 0.9936(5) 0.3848(5)
C86 C -0.3377(10) 1.0421(11) 0.4010(11)
H64 H -0.3698 1.0580 0.3687
H65 H -0.3016 1.0655 0.4084
H66 H -0.3520 1.0393 0.4380
C87 C -0.2645(12) 0.9743(12) 0.4033(13)
H67 H -0.2369 1.0051 0.4168
H68 H -0.2535 0.9559 0.3695
H69 H -0.2613 0.9485 0.4367
Na2 Na 0.00405(11) 0.91268(12) 0.25962(13)
O16 O -0.0390(3) 0.9315(3) 0.3377(3)
C88 C -0.0214(6) 0.9283(6) 0.3859(7)
H70 H 0.0184 0.9138 0.3999
N10 N -0.0523(6) 0.9439(6) 0.4304(7)
C89 C -0.0309(12) 0.9181(11) 0.4866(13)
H71 H 0.0059 0.8973 0.4865
H72 H -0.0622 0.8933 0.4938
H73 H -0.0216 0.9458 0.5185
C90 C -0.1123(8) 0.9571(8) 0.4137(8)
H74 H -0.1366 0.9252 0.4190
H75 H -0.1231 0.9682 0.3712
H76 H -0.1204 0.9872 0.4388
O17 O -0.0329(2) 0.9877(2) 0.1980(2)
C91 C 0.0012(4) 1.0186(3) 0.1811(4)
H77 H 0.0436 1.0149 0.1986
N11 N -0.0164(3) 1.0575(3) 0.1396(3)
C92 C 0.0267(5) 1.0922(5) 0.1177(5)
H78 H 0.0166 1.1307 0.1216
H79 H 0.0241 1.0839 0.0752
H80 H 0.0681 1.0852 0.1417
C93 C -0.0805(4) 1.0641(4) 0.1115(5)
H81 H -0.0908 1.0441 0.0732
H82 H -0.0895 1.1030 0.1039
H83 H -0.1044 1.0498 0.1384
O18 O -0.0492(3) 0.8360(3) 0.2180(3)
C94 C -0.0720(13) 0.8123(14) 0.1744(14)
H84 H -0.0975 0.8313 0.1415
N12 N -0.0630(8) 0.7568(8) 0.1695(9)
C95 C -0.0983(14) 0.7360(14) 0.1153(15)
H85 H -0.1163 0.7011 0.1230
H86 H -0.0728 0.7302 0.0870
H87 H -0.1308 0.7619 0.0979
C96 C -0.0279(15) 0.7216(14) 0.2151(15)
H88 H 0.0121 0.7379 0.2318
H89 H -0.0228 0.6860 0.1973
H90 H -0.0489 0.7167 0.2473
Na3 Na -0.73588(10) 0.84282(12) 0.22950(13)
O19 O -0.8006(3) 0.7986(3) 0.1511(3)
C97 C -0.8541(10) 0.7877(9) 0.1265(11)
H91 H -0.8712 0.7694 0.1551
N13 N -0.8924(8) 0.7917(7) 0.0804(8)
C98 C -0.9476(13) 0.7690(12) 0.0861(14)
H92 H -0.9392 0.7390 0.1154
H93 H -0.9704 0.7550 0.0469
H94 H -0.9716 0.7971 0.1001
C99 C -0.8723(14) 0.8166(14) 0.0426(14)
H95 H -0.8655 0.7909 0.0120
H96 H -0.8338 0.8342 0.0625
H97 H -0.9017 0.8444 0.0231
O20 O -0.6750(3) 0.7797(2) 0.2880(3)
C100 C -0.6212(4) 0.7670(4) 0.3121(4)
H98 H -0.5907 0.7803 0.2938
N14 N -0.6036(4) 0.7370(4) 0.3603(4)
C101 C -0.5408(4) 0.7239(5) 0.3863(5)
H99 H -0.5317 0.6879 0.3719
H100 H -0.5331 0.7234 0.4304
H101 H -0.5149 0.7515 0.3741
C102 C -0.6455(6) 0.7113(6) 0.3877(6)
H102 H -0.6742 0.7384 0.3956
H103 H -0.6236 0.6946 0.4259
H104 H -0.6676 0.6830 0.3607
Na4 Na 0.26971(11) 0.99103(13) 0.26525(15)
O21 O 0.3377(3) 1.0420(3) 0.3356(3)
C103 C 0.3928(5) 1.0384(4) 0.3448(5)
H105 H 0.4095 1.0269 0.3126
N15 N 0.4295(5) 1.0494(4) 0.3962(5)
C104 C 0.4963(9) 1.0408(9) 0.4034(10)
H106 H 0.5029 1.0220 0.3677
H107 H 0.5128 1.0186 0.4394
H108 H 0.5170 1.0763 0.4077
C105 C 0.4063(8) 1.0575(8) 0.4531(9)
H109 H 0.4117 1.0958 0.4659
H110 H 0.4292 1.0339 0.4854
H111 H 0.3631 1.0481 0.4443
O22 O 0.2058(4) 1.0630(4) 0.2361(4)
C106 C 0.2015(9) 1.1017(9) 0.2685(9)
H112 H 0.1774 1.0942 0.2960
N16 N 0.2254(14) 1.1562(16) 0.2735(16)
C107 C 0.2532(19) 1.1960(19) 0.343(2)
H113 H 0.2266 1.1898 0.3705
H114 H 0.2532 1.2350 0.3335
H115 H 0.2947 1.1845 0.3633
C108 C 0.1839(18) 1.1567(18) 0.1931(19)
H116 H 0.1432 1.1415 0.1888
H117 H 0.2060 1.1345 0.1698
H118 H 0.1807 1.1943 0.1779
Na3_2 Na 0.26412(10) 0.84282(12) 0.22950(13)
Na4_2 Na -0.73029(11) 0.99103(13) 0.26525(15)
O7_2 O -0.80746(17) 0.9304(2) 0.2172(2)
O11_2 O -0.80807(19) 0.8395(2) 0.2861(2)
O10_2 O 0.34616(18) 0.9221(2) 0.2804(2)
O23 O -0.9049(6) 0.8598(6) 0.4779(6)
C109 C -0.8528(7) 0.8819(7) 0.4661(7)
H119 H -0.8492 0.9183 0.4530
N17 N -0.8090(4) 0.8454(4) 0.4753(4)
C110 C -0.7555(6) 0.8558(6) 0.4541(6)
H120 H -0.7444 0.8227 0.4351
H121 H -0.7219 0.8661 0.4882
H122 H -0.7636 0.8855 0.4245
C111 C -0.8118(8) 0.7890(7) 0.4972(8)
H123 H -0.8536 0.7805 0.4987
H124 H -0.7848 0.7854 0.5377
H125 H -0.7989 0.7635 0.4698
O24 O -0.2568(6) 1.0246(6) 0.1171(6)
C112 C -0.2510(9) 1.0596(9) 0.0914(10)
H126 H -0.2273 1.0887 0.1124
N18 N -0.2753(4) 1.0664(4) 0.0289(4)
C113 C -0.2997(8) 1.0357(8) -0.0207(9)
H127 H -0.2764 1.0017 -0.0191
H128 H -0.2982 1.0561 -0.0572
H129 H -0.3420 1.0270 -0.0217
C114 C -0.2736(9) 1.1248(10) 0.0253(10)
H130 H -0.2877 1.1362 -0.0170
H131 H -0.2318 1.1376 0.0415
H132 H -0.3000 1.1406 0.0488
O25 O -0.2619(9) 0.8082(8) 0.2182(8)
C115 C -0.2216(13) 0.8459(14) 0.2139(13)
H133 H -0.1900 0.8377 0.1947
N19 N -0.2256(8) 0.8959(8) 0.2367(7)
C116 C -0.1785(7) 0.9390(7) 0.2375(8)
H134 H -0.1401 0.9216 0.2357
H135 H -0.1723 0.9603 0.2748
H136 H -0.1921 0.9632 0.2027
C117 C -0.2822(10) 0.9184(9) 0.2405(10)
H137 H -0.2982 0.9417 0.2054
H138 H -0.2764 0.9401 0.2775
H139 H -0.3110 0.8887 0.2414
loop_
_geom_bond_atom_site_label_1
_geom_bond_atom_site_label_2
_geom_bond_site_symmetry_1
_geom_bond_site_symmetry_2
Ti1 O1 1_555 1_555
Ti2 O3 1_555 1_555
O1 C1 1_555 1_555
O2 Ti1 1_555 1_555
C1 C2 1_555 1_555
C2 O2 1_555 1_555
C3 C2 1_555 1_555
H1 C3 1_555 1_555
C4 C3 1_555 1_555
H2 C4 1_555 1_555
C5 C4 1_555 1_555
H3 C5 1_555 1_555
C6 C1 1_555 1_555
C7 C6 1_555 1_555
H4 C7 1_555 1_555
N1 C7 1_555 1_555
C8 N1 1_555 1_555
C9 C8 1_555 1_555
H5 C9 1_555 1_555
C10 C9 1_555 1_555
H6 C10 1_555 1_555
C11 C10 1_555 1_555
C12 C8 1_555 1_555
H7 C12 1_555 1_555
C13 C11 1_555 1_555
H8 C13 1_555 1_555
C14 C11 1_555 1_555
C15 C14 1_555 1_555
H9 C15 1_555 1_555
C16 C15 1_555 1_555
H10 C16 1_555 1_555
C17 C16 1_555 1_555
C18 C14 1_555 1_555
H11 C18 1_555 1_555
C19 C17 1_555 1_555
H12 C19 1_555 1_555
N2 C17 1_555 1_555
C20 N2 1_555 1_555
H13 C20 1_555 1_555
C21 C20 1_555 1_555
C22 C21 1_555 1_555
H14 C22 1_555 1_555
C23 C22 1_555 1_555
H15 C23 1_555 1_555
C24 C23 1_555 1_555
H16 C24 1_555 1_555
C25 C24 1_555 1_555
C26 C21 1_555 1_555
O3 C25 1_555 1_555
O4 Ti2 1_555 1_555
O5 Ti1 1_555 1_555
O6 Ti1 1_555 1_555
C27 O5 1_555 1_555
C28 O6 1_555 1_555
C29 C28 1_555 1_555
H17 C29 1_555 1_555
C30 C29 1_555 1_555
H18 C30 1_555 1_555
C31 C30 1_555 1_555
H19 C31 1_555 1_555
C32 C27 1_555 1_555
C33 C32 1_555 1_555
H20 C33 1_555 1_555
N3 C33 1_555 1_555
C34 N3 1_555 1_555
C35 C34 1_555 1_555
H21 C35 1_555 1_555
C36 C35 1_555 1_555
H22 C36 1_555 1_555
C37 C36 1_555 1_555
C38 C34 1_555 1_555
H23 C38 1_555 1_555
C39 C37 1_555 1_555
H24 C39 1_555 1_555
C40 C37 1_555 1_555
C41 C40 1_555 1_555
H25 C41 1_555 1_555
C42 C41 1_555 1_555
H26 C42 1_555 1_555
C43 C42 1_555 1_555
C44 C40 1_555 1_555
H27 C44 1_555 1_555
C45 C43 1_555 1_555
H28 C45 1_555 1_555
N4 C43 1_555 1_555
C46 N4 1_555 1_555
H29 C46 1_555 1_555
C47 C46 1_555 1_555
C48 C47 1_555 1_555
H30 C48 1_555 1_555
C49 C48 1_555 1_555
H31 C49 1_555 1_555
C50 C49 1_555 1_555
H32 C50 1_555 1_555
C51 C50 1_555 1_555
C52 C47 1_555 1_555
O7 Ti2 1_555 1_555
O8 Ti2 1_555 1_555
O9 Ti1 1_555 1_555
O10 Ti1 1_555 1_555
C53 O9 1_555 1_555
C54 O10 1_555 1_555
C55 C54 1_555 1_555
H33 C55 1_555 1_555
C56 C55 1_555 1_555
H34 C56 1_555 1_555
C57 C56 1_555 1_555
H35 C57 1_555 1_555
C58 C53 1_555 1_555
C59 C58 1_555 1_555
H36 C59 1_555 1_555
N5 C59 1_555 1_555
C60 N5 1_555 1_555
C61 C60 1_555 1_555
H37 C61 1_555 1_555
C62 C61 1_555 1_555
H38 C62 1_555 1_555
C63 C62 1_555 1_555
C64 C60 1_555 1_555
H39 C64 1_555 1_555
C65 C63 1_555 1_555
H40 C65 1_555 1_555
C66 C63 1_555 1_555
C67 C66 1_555 1_555
H41 C67 1_555 1_555
C68 C67 1_555 1_555
H42 C68 1_555 1_555
C69 C68 1_555 1_555
C70 C69 1_555 1_555
H43 C70 1_555 1_555
C71 C66 1_555 1_555
H44 C71 1_555 1_555
N6 C69 1_555 1_555
C72 N6 1_555 1_555
H45 C72 1_555 1_555
C73 C72 1_555 1_555
C74 C73 1_555 1_555
H46 C74 1_555 1_555
C75 C74 1_555 1_555
H47 C75 1_555 1_555
C76 C75 1_555 1_555
H48 C76 1_555 1_555
C77 C76 1_555 1_555
C78 C73 1_555 1_555
O11 Ti2 1_555 1_555
O12 Ti2 1_555 1_555
Na1 O1 1_555 1_555
O13 Na1 1_555 1_555
C79 O13 1_555 1_555
H49 C79 1_555 1_555
N7 C79 1_555 1_555
C80 N7 1_555 1_555
H50 C80 1_555 1_555
H51 C80 1_555 1_555
H52 C80 1_555 1_555
C81 N7 1_555 1_555
H53 C81 1_555 1_555
H54 C81 1_555 1_555
H55 C81 1_555 1_555
O14 Na1 1_555 1_555
C82 O14 1_555 1_555
H56 C82 1_555 1_555
N8 C82 1_555 1_555
C83 N8 1_555 1_555
H57 C83 1_555 1_555
H58 C83 1_555 1_555
H59 C83 1_555 1_555
C84 N8 1_555 1_555
H60 C84 1_555 1_555
H61 C84 1_555 1_555
H62 C84 1_555 1_555
O15 Na1 1_555 1_555
C85 O15 1_555 1_555
H63 C85 1_555 1_555
N9 C85 1_555 1_555
C86 N9 1_555 1_555
H64 C86 1_555 1_555
H65 C86 1_555 1_555
H66 C86 1_555 1_555
C87 N9 1_555 1_555
H67 C87 1_555 1_555
H68 C87 1_555 1_555
H69 C87 1_555 1_555
Na2 O4 1_555 1_555
O16 Na2 1_555 1_555
C88 O16 1_555 1_555
H70 C88 1_555 1_555
N10 C88 1_555 1_555
C89 N10 1_555 1_555
H71 C89 1_555 1_555
H72 C89 1_555 1_555
H73 C89 1_555 1_555
C90 N10 1_555 1_555
H74 C90 1_555 1_555
H75 C90 1_555 1_555
H76 C90 1_555 1_555
O17 Na2 1_555 1_555
C91 O17 1_555 1_555
H77 C91 1_555 1_555
N11 C91 1_555 1_555
C92 N11 1_555 1_555
H78 C92 1_555 1_555
H79 C92 1_555 1_555
H80 C92 1_555 1_555
C93 N11 1_555 1_555
H81 C93 1_555 1_555
H82 C93 1_555 1_555
H83 C93 1_555 1_555
O18 Na2 1_555 1_555
C94 O18 1_555 1_555
H84 C94 1_555 1_555
N12 C94 1_555 1_555
C95 N12 1_555 1_555
H85 C95 1_555 1_555
H86 C95 1_555 1_555
H87 C95 1_555 1_555
C96 N12 1_555 1_555
H88 C96 1_555 1_555
H89 C96 1_555 1_555
H90 C96 1_555 1_555
Na3 O6 1_555 1_555
O19 Na3 1_555 1_555
C97 O19 1_555 1_555
H91 C97 1_555 1_555
N13 C97 1_555 1_555
C98 N13 1_555 1_555
H92 C98 1_555 1_555
H93 C98 1_555 1_555
H94 C98 1_555 1_555
C99 N13 1_555 1_555
H95 C99 1_555 1_555
H96 C99 1_555 1_555
H97 C99 1_555 1_555
O20 Na3 1_555 1_555
C100 O20 1_555 1_555
H98 C100 1_555 1_555
N14 C100 1_555 1_555
C101 N14 1_555 1_555
H99 C101 1_555 1_555
H100 C101 1_555 1_555
H101 C101 1_555 1_555
C102 N14 1_555 1_555
H102 C102 1_555 1_555
H103 C102 1_555 1_555
H104 C102 1_555 1_555
Na4 O3 1_555 1_555
O21 Na4 1_555 1_555
C103 O21 1_555 1_555
H105 C103 1_555 1_555
N15 C103 1_555 1_555
C104 N15 1_555 1_555
H106 C104 1_555 1_555
H107 C104 1_555 1_555
H108 C104 1_555 1_555
C105 N15 1_555 1_555
H109 C105 1_555 1_555
H110 C105 1_555 1_555
H111 C105 1_555 1_555
O22 Na4 1_555 1_555
C106 O22 1_555 1_555
H112 C106 1_555 1_555
N16 C106 1_555 1_555
C107 N16 1_555 1_555
H113 C107 1_555 1_555
H114 C107 1_555 1_555
H115 C107 1_555 1_555
C108 N16 1_555 1_555
H116 C108 1_555 1_555
H117 C108 1_555 1_555
H118 C108 1_555 1_555
O23 C109 1_555 1_555
C109 H119 1_555 1_555
N17 C109 1_555 1_555
C110 N17 1_555 1_555
H120 C110 1_555 1_555
H121 C110 1_555 1_555
H122 C110 1_555 1_555
C111 N17 1_555 1_555
H123 C111 1_555 1_555
H124 C111 1_555 1_555
H125 C111 1_555 1_555
O24 C112 1_555 1_555
C112 H126 1_555 1_555
N18 C112 1_555 1_555
C113 N18 1_555 1_555
H127 C113 1_555 1_555
H128 C113 1_555 1_555
H129 C113 1_555 1_555
C114 N18 1_555 1_555
H130 C114 1_555 1_555
H131 C114 1_555 1_555
H132 C114 1_555 1_555
O25 C115 1_555 1_555
C115 H133 1_555 1_555
N19 C115 1_555 1_555
C116 N19 1_555 1_555
H134 C116 1_555 1_555
H135 C116 1_555 1_555
H136 C116 1_555 1_555
C117 N19 1_555 1_555
H137 C117 1_555 1_555
H138 C117 1_555 1_555
H139 C117 1_555 1_555
Na3_2 O7 1_555 1_555
Na4_2 O10 1_555 1_555
O7_2 Na3 1_555 1_555
O11_2 Na3 1_555 1_555
O10_2 Na4 1_555 1_555
C5 C6 1_555 1_555
C12 C13 1_555 1_555
C18 C19 1_555 1_555
C25 C26 1_555 1_555
C26 O4 1_555 1_555
O5 Na1 1_555 1_555
C27 C28 1_555 1_555
C31 C32 1_555 1_555
C38 C39 1_555 1_555
C44 C45 1_555 1_555
C51 C52 1_555 1_555
C51 O7 1_555 1_555
C52 O8 1_555 1_555
O7 Na4 1_555 1_555
O8 Na2 1_555 1_555
O9 Na1 1_555 1_555
C53 C54 1_555 1_555
C57 C58 1_555 1_555
C64 C65 1_555 1_555
C70 C71 1_555 1_555
C77 C78 1_555 1_555
C77 O11 1_555 1_555
C78 O12 1_555 1_555
O11 Na3_2 1_555 1_555
O12 Na2 1_555 1_555
Na4_2 O7_2 1_555 1_555

#END
