
#######################################################################
#
#                 Cambridge Crystallographic Data Centre
#                                CCDC 
#
#######################################################################
#
# If this CIF has been generated from an entry in the Cambridge 
# Structural Database, then it will include bibliographic, chemical, 
# crystal, experimental, refinement or atomic coordinate data resulting 
# from the CCDC's data processing and validation procedures.
#
#######################################################################

data_YABSUR
_symmetry_cell_setting           orthorhombic
_symmetry_space_group_name_H-M   'P b c a'
_symmetry_Int_Tables_number      61
_space_group_name_Hall           '-P 2ac 2ab'
loop_
_symmetry_equiv_pos_site_id
_symmetry_equiv_pos_as_xyz
1 x,y,z
2 1/2-x,-y,1/2+z
3 -x,1/2+y,1/2-z
4 1/2+x,1/2-y,-z
5 -x,-y,-z
6 1/2+x,y,1/2-z
7 x,1/2-y,1/2+z
8 1/2-x,1/2+y,z
_cell_length_a                   13.314(8)
_cell_length_b                   16.119(9)
_cell_length_c                   24.976(14)
_cell_angle_alpha                90
_cell_angle_beta                 90
_cell_angle_gamma                90
_cell_volume                     5360.06
loop_
_atom_site_label
_atom_site_type_symbol
_atom_site_fract_x
_atom_site_fract_y
_atom_site_fract_z
C1 C 0.2935(16) 0.7306(10) 0.9595(7)
Sn1 Sn 0.02686(6) 1.04308(5) 0.75090(3)
Se1 Se 0.27667(9) 0.98264(7) 0.77040(5)
O1 O 0.1764(6) 1.0388(4) 0.7880(3)
O2 O 0.3722(6) 1.0464(5) 0.7834(3)
C2 C 0.0225(10) 0.8576(8) 0.7156(6)
H1 H -0.0074 0.8472 0.7486
C3 C 0.2833(12) 0.9089(8) 0.8307(5)
C4 C 0.0621(10) 1.1533(8) 0.7084(5)
C5 C 0.2492(12) 0.8321(9) 0.8222(5)
H2 H 0.2230 0.8177 0.7889
C6 C -0.0378(10) 1.0388(8) 0.8296(5)
C7 C 0.0559(10) 0.9373(8) 0.7021(5)
C8 C 0.1032(10) 0.9484(8) 0.6541(5)
H3 H 0.1273 1.0005 0.6446
C9 C 0.0139(11) 0.9935(8) 0.8690(5)
H4 H 0.0745 0.9675 0.8610
C10 C 0.1118(10) 1.2960(8) 0.6512(5)
H5 H 0.1280 1.3447 0.6332
C11 C 0.1151(11) 0.8824(8) 0.6201(5)
H6 H 0.1468 0.8901 0.5873
C12 C 0.2529(13) 0.7709(9) 0.8650(6)
H7 H 0.2273 0.7178 0.8597
C13 C 0.1784(11) 1.2675(8) 0.6881(5)
H8 H 0.2394 1.2941 0.6937
C14 C -0.1242(11) 1.0776(8) 0.8412(5)
H9 H -0.1558 1.1090 0.8149
C15 C 0.3277(13) 0.9295(9) 0.8776(5)
H10 H 0.3580 0.9808 0.8827
C16 C -0.0283(10) 0.9878(9) 0.9217(5)
H11 H 0.0032 0.9572 0.9484
C17 C 0.3253(13) 0.8683(9) 0.9184(5)
H12 H 0.3478 0.8832 0.9524
C18 C 0.0245(11) 1.2591(9) 0.6389(6)
H13 H -0.0169 1.2783 0.6116
C19 C -0.0007(11) 1.1875(8) 0.6710(5)
H14 H -0.0634 1.1632 0.6659
C20 C 0.1518(10) 1.1967(8) 0.7172(5)
H15 H 0.1954 1.1776 0.7436
C21 C -0.1164(11) 1.0290(8) 0.9314(5)
H16 H -0.1426 1.0281 0.9660
C22 C 0.2931(13) 0.7914(9) 0.9114(6)
C23 C 0.0353(11) 0.7938(9) 0.6779(6)
H17 H 0.0095 0.7415 0.6854
C24 C 0.0811(11) 0.8056(9) 0.6338(5)
H18 H 0.0914 0.7612 0.6107
C25 C 0.2514(16) 0.7558(10) 1.0043(7)
H19 H 0.2344 0.7086 1.0259
H20 H 0.1916 0.7866 0.9962
H21 H 0.2975 0.7906 1.0235
C26 C 0.3969(17) 0.7152(12) 0.9735(7)
H22 H 0.4285 0.7665 0.9835
H23 H 0.4314 0.6918 0.9433
H24 H 0.3997 0.6771 1.0030
C27 C 0.2656(16) 0.6453(11) 0.9447(7)
H25 H 0.2991 0.6303 0.9120
H26 H 0.1942 0.6421 0.9396
H27 H 0.2854 0.6080 0.9727
C28 C -0.1681(12) 1.0718(8) 0.8924(5)
H28 H -0.2300 1.0961 0.8996
Sn1E Sn 0.52686(6) 1.04308(5) 0.74910(3)
O2E O -0.1278(6) 1.0464(5) 0.7166(3)
loop_
_geom_bond_atom_site_label_1
_geom_bond_atom_site_label_2
_geom_bond_site_symmetry_1
_geom_bond_site_symmetry_2
C1 C22 1_555 1_555
Sn1 O1 1_555 1_555
Se1 O1 1_555 1_555
O2 Se1 1_555 1_555
C2 H1 1_555 1_555
C3 Se1 1_555 1_555
C4 Sn1 1_555 1_555
C5 C3 1_555 1_555
H2 C5 1_555 1_555
C6 Sn1 1_555 1_555
C7 Sn1 1_555 1_555
C8 C7 1_555 1_555
H3 C8 1_555 1_555
C9 C6 1_555 1_555
H4 C9 1_555 1_555
C10 H5 1_555 1_555
C11 C8 1_555 1_555
H6 C11 1_555 1_555
C12 C5 1_555 1_555
H7 C12 1_555 1_555
C13 C10 1_555 1_555
H8 C13 1_555 1_555
C14 C6 1_555 1_555
H9 C14 1_555 1_555
C15 C3 1_555 1_555
H10 C15 1_555 1_555
C16 C9 1_555 1_555
H11 C16 1_555 1_555
C17 C15 1_555 1_555
H12 C17 1_555 1_555
C18 C10 1_555 1_555
H13 C18 1_555 1_555
C19 C4 1_555 1_555
H14 C19 1_555 1_555
C20 C4 1_555 1_555
H15 C20 1_555 1_555
C21 C16 1_555 1_555
H16 C21 1_555 1_555
C22 C12 1_555 1_555
C23 C2 1_555 1_555
H17 C23 1_555 1_555
C24 C11 1_555 1_555
H18 C24 1_555 1_555
C25 C1 1_555 1_555
H19 C25 1_555 1_555
H20 C25 1_555 1_555
H21 C25 1_555 1_555
C26 C1 1_555 1_555
H22 C26 1_555 1_555
H23 C26 1_555 1_555
H24 C26 1_555 1_555
C27 C1 1_555 1_555
H25 C27 1_555 1_555
H26 C27 1_555 1_555
H27 C27 1_555 1_555
C28 C14 1_555 1_555
H28 C28 1_555 1_555
Sn1E O2 1_555 1_555
O2E Sn1 1_555 1_555
C2 C7 1_555 1_555
C13 C20 1_555 1_555
C17 C22 1_555 1_555
C18 C19 1_555 1_555
C21 C28 1_555 1_555
C23 C24 1_555 1_555

#END
