
#######################################################################
#
#                 Cambridge Crystallographic Data Centre
#                                CCDC 
#
#######################################################################
#
# If this CIF has been generated from an entry in the Cambridge 
# Structural Database, then it will include bibliographic, chemical, 
# crystal, experimental, refinement or atomic coordinate data resulting 
# from the CCDC's data processing and validation procedures.
#
#######################################################################

data_YABYUW
_symmetry_cell_setting           monoclinic
_symmetry_space_group_name_H-M   'C 2'
_symmetry_Int_Tables_number      5
_space_group_name_Hall           'C 2y'
loop_
_symmetry_equiv_pos_site_id
_symmetry_equiv_pos_as_xyz
1 x,y,z
2 -x,y,-z
3 1/2+x,1/2+y,z
4 1/2-x,1/2+y,-z
_cell_length_a                   15.8696(12)
_cell_length_b                   5.8339(4)
_cell_length_c                   10.6621(5)
_cell_angle_alpha                90
_cell_angle_beta                 130.272(4)
_cell_angle_gamma                90
_cell_volume                     753.153
loop_
_atom_site_label
_atom_site_type_symbol
_atom_site_fract_x
_atom_site_fract_y
_atom_site_fract_z
Cd1 Cd 0.5000 0.5124 1.0000
O1 O 0.6445(13) 0.276(3) 1.097(2)
O2 O 0.7617(12) 0.534(7) 1.140(2)
O3 O 0.5913(15) 0.826(3) 1.000(2)
C1 C 0.739(2) 0.339(4) 1.156(2)
C2 C 0.8321(15) 0.164(4) 1.252(2)
H1 H 0.8945 0.2181 1.2632
H2 H 0.8074 0.0199 1.1930
C3 C 0.8676(16) 0.128(4) 1.422(3)
C4 C 0.9238(18) 0.295(4) 1.540(2)
H3 H 0.9432 0.4292 1.5172
C5 C 0.8728(18) -0.082(3) 1.619(2)
H4 H 0.8533 -0.2128 1.6449
C6 C 0.8361(19) -0.067(4) 1.456(3)
H5 H 0.7939 -0.1820 1.3782
C7 C 0.952(2) 0.268(4) 1.689(2)
H6 H 0.9869 0.3879 1.7650
N1 N 0.9293(13) 0.067(4) 1.7313(18)
O1A O 0.3555(13) 0.276(3) 0.903(2)
O2A O 0.2383(12) 0.534(7) 0.860(2)
C1A C 0.261(2) 0.339(4) 0.844(2)
C2A C 0.1679(15) 0.164(4) 0.748(2)
H1A H 0.1055 0.2181 0.7368
H2A H 0.1926 0.0199 0.8070
C3A C 0.1324(16) 0.128(4) 0.578(3)
C4A C 0.0762(18) 0.295(4) 0.460(2)
H3A H 0.0568 0.4292 0.4828
C5A C 0.1272(18) -0.082(3) 0.381(2)
H4A H 0.1467 -0.2128 0.3551
C6A C 0.1639(19) -0.067(4) 0.544(3)
H5A H 0.2061 -0.1820 0.6218
C7A C 0.048(2) 0.268(4) 0.311(2)
H6A H 0.0131 0.3879 0.2350
N1A N 0.0707(13) 0.067(4) 0.2687(18)
O3A O 0.4087(15) 0.826(3) 1.000(2)
N1B N 0.4293(13) 0.567(4) 0.7313(18)
N1C N 0.5707(13) 0.567(4) 1.2687(18)
Cd1B Cd 1.0000 0.0124 2.0000
Cd1B_2 Cd 0.0000 0.0124 0.0000
loop_
_geom_bond_atom_site_label_1
_geom_bond_atom_site_label_2
_geom_bond_site_symmetry_1
_geom_bond_site_symmetry_2
Cd1 O1 1_555 1_555
O1 C1 1_555 1_555
O2 C1 1_555 1_555
O3 Cd1 1_555 1_555
C1 C2 1_555 1_555
C2 H1 1_555 1_555
H2 C2 1_555 1_555
C3 C2 1_555 1_555
C4 C3 1_555 1_555
H3 C4 1_555 1_555
C5 H4 1_555 1_555
C6 C3 1_555 1_555
H5 C6 1_555 1_555
C7 C4 1_555 1_555
H6 C7 1_555 1_555
N1 C5 1_555 1_555
O1A Cd1 1_555 1_555
O2A C1A 1_555 1_555
C1A O1A 1_555 1_555
C2A C1A 1_555 1_555
H1A C2A 1_555 1_555
H2A C2A 1_555 1_555
C3A C2A 1_555 1_555
C4A C3A 1_555 1_555
H3A C4A 1_555 1_555
C5A H4A 1_555 1_555
C6A C3A 1_555 1_555
H5A C6A 1_555 1_555
C7A C4A 1_555 1_555
H6A C7A 1_555 1_555
N1A C5A 1_555 1_555
O3A Cd1 1_555 1_555
N1B Cd1 1_555 1_555
N1C Cd1 1_555 1_555
Cd1B N1 1_555 1_555
Cd1B_2 N1A 1_555 1_555
C5 C6 1_555 1_555
C7 N1 1_555 1_555
C5A C6A 1_555 1_555
C7A N1A 1_555 1_555

#END
