
#######################################################################
#
#                 Cambridge Crystallographic Data Centre
#                                CCDC 
#
#######################################################################
#
# If this CIF has been generated from an entry in the Cambridge 
# Structural Database, then it will include bibliographic, chemical, 
# crystal, experimental, refinement or atomic coordinate data resulting 
# from the CCDC's data processing and validation procedures.
#
#######################################################################

data_YABYEG
_symmetry_cell_setting           monoclinic
_symmetry_space_group_name_H-M   'C 2/c'
_symmetry_Int_Tables_number      15
_space_group_name_Hall           '-C 2yn'
loop_
_symmetry_equiv_pos_site_id
_symmetry_equiv_pos_as_xyz
1 x,y,z
2 1/2+x,1/2+y,z
3 x,-y,1/2+z
4 1/2+x,1/2-y,1/2+z
5 -x,-y,-z
6 1/2-x,1/2-y,-z
7 -x,y,1/2-z
8 1/2-x,1/2+y,1/2-z
_cell_length_a                   12.4753(7)
_cell_length_b                   13.9648(8)
_cell_length_c                   11.8204(6)
_cell_angle_alpha                90
_cell_angle_beta                 93.583(2)
_cell_angle_gamma                90
_cell_volume                     2055.27
loop_
_atom_site_label
_atom_site_type_symbol
_atom_site_fract_x
_atom_site_fract_y
_atom_site_fract_z
Zn1 Zn 0.5000 0.62597(5) 0.7500
O1 O 0.3558(3) 0.4803(2) 0.7473(3)
O2 O 0.4354(2) 0.5687(2) 0.8816(2)
C1 C 0.2514(3) 0.3636(3) 0.9020(3)
C2 C 0.1438(3) 0.3668(3) 0.9210(4)
H1 H 0.1166 0.4174 0.9615
N1 N 0.1105(3) 0.2202(2) 0.8207(3)
C3 C 0.3262(4) 0.4424(3) 0.9419(4)
H2 H 0.3842 0.4148 0.9897
H3 H 0.2875 0.4863 0.9882
C4 C 0.3744(3) 0.4990(3) 0.8480(3)
C5 C 0.2877(3) 0.2851(3) 0.8432(4)
H4 H 0.3602 0.2794 0.8303
C6 C 0.0763(3) 0.2947(3) 0.8797(4)
H5 H 0.0038 0.2982 0.8936
C7 C 0.2161(3) 0.2158(3) 0.8041(4)
H6 H 0.2417 0.1638 0.7647
O1F O 0.6442(3) 0.4803(2) 0.7527(3)
O2F O 0.5646(2) 0.5687(2) 0.6184(2)
C1F C 0.7486(3) 0.3636(3) 0.5980(3)
C2F C 0.8562(3) 0.3668(3) 0.5790(4)
H1F H 0.8834 0.4174 0.5385
N1F N 0.8895(3) 0.2202(2) 0.6793(3)
C3F C 0.6738(4) 0.4424(3) 0.5581(4)
H2F H 0.6158 0.4148 0.5103
H3F H 0.7125 0.4863 0.5118
C4F C 0.6256(3) 0.4990(3) 0.6520(3)
C5F C 0.7123(3) 0.2851(3) 0.6568(4)
H4F H 0.6398 0.2794 0.6697
C6F C 0.9237(3) 0.2947(3) 0.6203(4)
H5F H 0.9962 0.2982 0.6064
C7F C 0.7839(3) 0.2158(3) 0.6959(4)
H6F H 0.7583 0.1638 0.7353
N1A N 0.6105(3) 0.7202(2) 0.8207(3)
N1G N 0.3895(3) 0.7202(2) 0.6793(3)
Zn1A Zn 0.0000 0.12597(5) 0.7500
Zn1A_2 Zn 1.0000 0.12597(5) 0.7500
O3 O 0.5000 1.0401(4) 0.7500
O4 O 0.6462(3) 0.9372(3) 0.6283(3)
O5 O 0.8728(4) 0.6397(3) 0.5899(4)
O6 O 0.9224(4) 1.1632(3) 1.0937(3)
loop_
_geom_bond_atom_site_label_1
_geom_bond_atom_site_label_2
_geom_bond_site_symmetry_1
_geom_bond_site_symmetry_2
Zn1 O2 1_555 1_555
O1 C4 1_555 1_555
O2 C4 1_555 1_555
C1 C2 1_555 1_555
C2 H1 1_555 1_555
N1 C6 1_555 1_555
C3 C1 1_555 1_555
H2 C3 1_555 1_555
H3 C3 1_555 1_555
C4 C3 1_555 1_555
C5 C1 1_555 1_555
H4 C5 1_555 1_555
C6 C2 1_555 1_555
H5 C6 1_555 1_555
C7 N1 1_555 1_555
H6 C7 1_555 1_555
O1F C4F 1_555 1_555
O2F Zn1 1_555 1_555
C1F C2F 1_555 1_555
C2F H1F 1_555 1_555
N1F C6F 1_555 1_555
C3F C1F 1_555 1_555
H2F C3F 1_555 1_555
H3F C3F 1_555 1_555
C4F O2F 1_555 1_555
C5F C1F 1_555 1_555
H4F C5F 1_555 1_555
C6F C2F 1_555 1_555
H5F C6F 1_555 1_555
C7F N1F 1_555 1_555
H6F C7F 1_555 1_555
N1A Zn1 1_555 1_555
N1G Zn1 1_555 1_555
Zn1A N1 1_555 1_555
Zn1A_2 N1F 1_555 1_555
C5 C7 1_555 1_555
C3F C4F 1_555 1_555
C5F C7F 1_555 1_555

#END
