
#######################################################################
#
#                 Cambridge Crystallographic Data Centre
#                                CCDC 
#
#######################################################################
#
# If this CIF has been generated from an entry in the Cambridge 
# Structural Database, then it will include bibliographic, chemical, 
# crystal, experimental, refinement or atomic coordinate data resulting 
# from the CCDC's data processing and validation procedures.
#
#######################################################################

data_YABYOQ
_symmetry_cell_setting           monoclinic
_symmetry_space_group_name_H-M   'P 21/n'
_symmetry_Int_Tables_number      14
_space_group_name_Hall           '-P 2yn'
loop_
_symmetry_equiv_pos_site_id
_symmetry_equiv_pos_as_xyz
1 x,y,z
2 1/2+x,1/2-y,1/2+z
3 -x,-y,-z
4 1/2-x,1/2+y,1/2-z
_cell_length_a                   10.6573(17)
_cell_length_b                   5.7063(9)
_cell_length_c                   11.9129(19)
_cell_angle_alpha                90
_cell_angle_beta                 91.415(2)
_cell_angle_gamma                90
_cell_volume                     724.247
loop_
_atom_site_label
_atom_site_type_symbol
_atom_site_fract_x
_atom_site_fract_y
_atom_site_fract_z
N1 N 0.6953(2) 0.0592(5) -0.0689(2)
Mn1 Mn 0.5000 0.0000 0.0000
O1 O 1.04380(19) 0.2733(4) -0.35650(16)
O2 O 1.1288(3) 0.5288(4) -0.2362(2)
O3 O 0.5791(2) -0.3053(5) 0.0877(2)
H1 H 0.595(4) -0.233(8) 0.138(3)
H2 H 0.564(4) -0.450(9) 0.103(4)
C1 C 1.0870(3) 0.3343(5) -0.2602(2)
C2 C 1.0802(3) 0.1504(6) -0.1669(3)
H3 H 1.127(3) 0.203(5) -0.105(3)
C3 C 0.9454(3) 0.1153(5) -0.1339(2)
C4 C 0.8838(3) 0.2841(6) -0.0734(3)
H4 H 0.926(3) 0.412(7) -0.051(3)
C5 C 0.7618(3) 0.2497(6) -0.0421(3)
H5 H 0.723(4) 0.364(7) -0.002(3)
C6 C 0.7541(3) -0.1043(6) -0.1290(3)
H6 H 0.710(3) -0.236(7) -0.145(3)
C7 C 0.8771(3) -0.0814(6) -0.1628(3)
H7 H 0.912(3) -0.204(6) -0.201(3)
H8 H 1.109(3) 0.011(6) -0.193(3)
N1B N 0.3047(2) -0.0592(5) 0.0689(2)
O1B O -0.04380(19) -0.2733(4) 0.35650(16)
O2B O -0.1288(3) -0.5288(4) 0.2362(2)
C1B C -0.0870(3) -0.3343(5) 0.2602(2)
C2B C -0.0802(3) -0.1504(6) 0.1669(3)
H3B H -0.127(3) -0.203(5) 0.105(3)
C3B C 0.0546(3) -0.1153(5) 0.1339(2)
C4B C 0.1162(3) -0.2841(6) 0.0734(3)
H4B H 0.074(3) -0.412(7) 0.051(3)
C5B C 0.2382(3) -0.2497(6) 0.0421(3)
H5B H 0.277(4) -0.364(7) 0.002(3)
C6B C 0.2459(3) 0.1043(6) 0.1290(3)
H6B H 0.290(3) 0.236(7) 0.145(3)
C7B C 0.1229(3) 0.0814(6) 0.1628(3)
H7B H 0.088(3) 0.204(6) 0.201(3)
H8B H -0.109(3) -0.011(6) 0.193(3)
O3B O 0.4209(2) 0.3053(5) -0.0877(2)
H1B H 0.405(4) 0.233(8) -0.138(3)
H2B H 0.436(4) 0.450(9) -0.103(4)
O1A O 0.54380(19) 0.2267(4) 0.14350(16)
O1C O 0.45620(19) -0.2267(4) -0.14350(16)
Mn1A Mn 1.0000 0.5000 -0.5000
Mn1A_2 Mn 0.0000 -0.5000 0.5000
loop_
_geom_bond_atom_site_label_1
_geom_bond_atom_site_label_2
_geom_bond_site_symmetry_1
_geom_bond_site_symmetry_2
N1 Mn1 1_555 1_555
Mn1 O3 1_555 1_555
O1 C1 1_555 1_555
O2 C1 1_555 1_555
O3 H1 1_555 1_555
H2 O3 1_555 1_555
C1 C2 1_555 1_555
C2 H3 1_555 1_555
C3 C2 1_555 1_555
C4 C3 1_555 1_555
H4 C4 1_555 1_555
C5 N1 1_555 1_555
H5 C5 1_555 1_555
C6 N1 1_555 1_555
H6 C6 1_555 1_555
C7 C3 1_555 1_555
H7 C7 1_555 1_555
H8 C2 1_555 1_555
N1B Mn1 1_555 1_555
O1B C1B 1_555 1_555
O2B C1B 1_555 1_555
C1B C2B 1_555 1_555
C2B H3B 1_555 1_555
C3B C2B 1_555 1_555
C4B C3B 1_555 1_555
H4B C4B 1_555 1_555
C5B N1B 1_555 1_555
H5B C5B 1_555 1_555
C6B N1B 1_555 1_555
H6B C6B 1_555 1_555
C7B C3B 1_555 1_555
H7B C7B 1_555 1_555
H8B C2B 1_555 1_555
O3B Mn1 1_555 1_555
H1B O3B 1_555 1_555
H2B O3B 1_555 1_555
O1A Mn1 1_555 1_555
O1C Mn1 1_555 1_555
Mn1A O1 1_555 1_555
Mn1A_2 O1B 1_555 1_555
C4 C5 1_555 1_555
C6 C7 1_555 1_555
C4B C5B 1_555 1_555
C6B C7B 1_555 1_555

#END
