
#######################################################################
#
#                 Cambridge Crystallographic Data Centre
#                                CCDC 
#
#######################################################################
#
# If this CIF has been generated from an entry in the Cambridge 
# Structural Database, then it will include bibliographic, chemical, 
# crystal, experimental, refinement or atomic coordinate data resulting 
# from the CCDC's data processing and validation procedures.
#
#######################################################################

data_YABYAD
_symmetry_cell_setting           monoclinic
_symmetry_space_group_name_H-M   'C 2/c'
_symmetry_Int_Tables_number      15
_space_group_name_Hall           '-C 2yn'
loop_
_symmetry_equiv_pos_site_id
_symmetry_equiv_pos_as_xyz
1 x,y,z
2 -x,y,1/2-z
3 1/2+x,1/2+y,z
4 1/2-x,1/2+y,1/2-z
5 -x,-y,-z
6 x,-y,1/2+z
7 1/2-x,1/2-y,-z
8 1/2+x,1/2-y,1/2+z
_cell_length_a                   15.7443(9)
_cell_length_b                   12.7077(7)
_cell_length_c                   21.1794(12)
_cell_angle_alpha                90
_cell_angle_beta                 103.9190(10)
_cell_angle_gamma                90
_cell_volume                     4113.02
loop_
_atom_site_label
_atom_site_type_symbol
_atom_site_fract_x
_atom_site_fract_y
_atom_site_fract_z
Co1 Co 0.14032(2) 0.25545(3) 0.032655(17)
O1 O 0.03619(13) 0.36748(16) 0.02859(11)
O3 O 0.03052(14) 0.22447(16) 0.08452(10)
O5 O -0.19170(13) 0.64851(15) 0.02515(10)
O7 O -0.30944(12) 0.60797(14) 0.05960(9)
N1 N -0.10029(17) 0.0500(2) -0.21978(12)
H3 H -0.102(2) -0.022(3) -0.2189(16)
N2 N 0.06487(15) 0.18499(18) -0.05441(11)
N3 N -0.27700(15) 0.17815(19) -0.38242(11)
C1 C -0.1911(2) 0.1983(3) -0.27305(15)
H4 H -0.1741 0.2420 -0.2357
C2 C -0.1475(2) 0.2677(2) 0.08350(15)
H5 H -0.1273 0.1975 0.0921
C3 C 0.0369(2) 0.2409(2) -0.10919(15)
H6 H 0.0556 0.3120 -0.1094
C4 C -0.12103(18) 0.4461(2) 0.05501(13)
H7 H -0.0841 0.4973 0.0426
C5 C 0.03848(18) 0.0842(2) -0.05649(14)
H8 H 0.0587 0.0421 -0.0188
C6 C -0.00314(18) 0.3100(2) 0.06026(14)
C7 C -0.2467(2) 0.0797(2) -0.38055(15)
H9 H -0.2671 0.0367 -0.4178
C8 C -0.01608(18) 0.0383(2) -0.11003(14)
H10 H -0.0329 -0.0333 -0.1087
C9 C -0.2323(2) 0.2932(2) 0.08708(15)
C10 C -0.2488(2) 0.2350(2) -0.32821(15)
H11 H -0.2699 0.3050 -0.3278
C11 C -0.04647(18) 0.0981(2) -0.16629(14)
C12 C -0.09198(18) 0.3424(2) 0.06767(14)
C13 C -0.1882(2) 0.0368(2) -0.32837(15)
H12 H -0.1684 -0.0334 -0.3304
C14 C -0.0173(2) 0.2015(2) -0.16513(14)
H13 H -0.0346 0.2447 -0.2027
C15 C -0.25914(19) 0.3973(2) 0.07639(14)
H14 H -0.3161 0.4167 0.0799
C16 C -0.15783(19) 0.0965(2) -0.27237(14)
C17 C -0.20443(18) 0.4736(2) 0.06069(13)
C18 C -0.23713(17) 0.5850(2) 0.04729(12)
C19 C -0.2937(2) 0.2101(3) 0.10029(19)
H15 H -0.2738 0.1859 0.1454
H16 H -0.2945 0.1507 0.0707
H17 H -0.3527 0.2396 0.0934
Co1D Co -0.14032(2) 0.74455(3) -0.032655(17)
Co1B Co -0.35968(2) 0.75545(3) 0.032655(17)
Co1G Co -0.35968(2) 0.24455(3) -0.467345(17)
O5D O 0.19170(13) 0.35149(15) -0.02515(10)
O7B O 0.19056(12) 0.10797(14) 0.05960(9)
N3G N 0.22300(15) 0.32185(19) 0.11758(11)
O2 O 0.57025(19) -0.3233(2) 0.21805(12)
H1 H 0.560(3) -0.303(3) 0.1757(10)
H2 H 0.547(3) -0.267(2) 0.2311(19)
O4 O 0.5702(7) 0.0475(8) 0.1029(7)
O6 O 0.3816(8) -0.1141(9) 0.2324(6)
O8? O 0.5403(10) 0.0492(11) 0.2270(10)
loop_
_geom_bond_atom_site_label_1
_geom_bond_atom_site_label_2
_geom_bond_site_symmetry_1
_geom_bond_site_symmetry_2
Co1 O1 1_555 1_555
O1 C6 1_555 1_555
O2 H1 1_555 1_555
H2 O2 1_555 1_555
O3 Co1 1_555 1_555
O5 C18 1_555 1_555
O7 C18 1_555 1_555
N1 H3 1_555 1_555
N2 Co1 1_555 1_555
N3 C7 1_555 1_555
C1 H4 1_555 1_555
C2 H5 1_555 1_555
C3 N2 1_555 1_555
H6 C3 1_555 1_555
C4 H7 1_555 1_555
C5 N2 1_555 1_555
H8 C5 1_555 1_555
C6 O3 1_555 1_555
C7 H9 1_555 1_555
C8 C5 1_555 1_555
H10 C8 1_555 1_555
C9 C2 1_555 1_555
C10 N3 1_555 1_555
H11 C10 1_555 1_555
C11 N1 1_555 1_555
C12 C2 1_555 1_555
C13 C7 1_555 1_555
H12 C13 1_555 1_555
C14 C3 1_555 1_555
H13 C14 1_555 1_555
C15 C9 1_555 1_555
H14 C15 1_555 1_555
C16 N1 1_555 1_555
C17 C4 1_555 1_555
C18 C17 1_555 1_555
C19 C9 1_555 1_555
H15 C19 1_555 1_555
H16 C19 1_555 1_555
H17 C19 1_555 1_555
Co1D O5 1_555 1_555
Co1B O7 1_555 1_555
Co1G N3 1_555 1_555
O5D Co1 1_555 1_555
O7B Co1 1_555 1_555
N3G Co1 1_555 1_555
C1 C10 1_555 1_555
C1 C16 1_555 1_555
C4 C12 1_555 1_555
C6 C12 1_555 1_555
C8 C11 1_555 1_555
C11 C14 1_555 1_555
C13 C16 1_555 1_555
C15 C17 1_555 1_555

#END
