
#######################################################################
#
#                 Cambridge Crystallographic Data Centre
#                                CCDC 
#
#######################################################################
#
# If this CIF has been generated from an entry in the Cambridge 
# Structural Database, then it will include bibliographic, chemical, 
# crystal, experimental, refinement or atomic coordinate data resulting 
# from the CCDC's data processing and validation procedures.
#
#######################################################################

data_YABZAD
_symmetry_cell_setting           monoclinic
_symmetry_space_group_name_H-M   'P 21/n'
_symmetry_Int_Tables_number      14
_space_group_name_Hall           '-P 2yn'
loop_
_symmetry_equiv_pos_site_id
_symmetry_equiv_pos_as_xyz
1 x,y,z
2 1/2+x,1/2-y,1/2+z
3 -x,-y,-z
4 1/2-x,1/2+y,1/2-z
_cell_length_a                   10.5005(19)
_cell_length_b                   5.6915(10)
_cell_length_c                   11.781(2)
_cell_angle_alpha                90
_cell_angle_beta                 91.115(3)
_cell_angle_gamma                90
_cell_volume                     703.942
loop_
_atom_site_label
_atom_site_type_symbol
_atom_site_fract_x
_atom_site_fract_y
_atom_site_fract_z
Zn1 Zn 1.0000 0.5000 0.5000
O1 O 0.9602(3) 0.7237(6) 0.3592(3)
O2 O 0.8743(4) 0.4670(7) 0.2369(3)
O3 O 0.9235(4) 0.1989(6) 0.4141(3)
C1 C 0.9175(4) 0.6629(9) 0.2611(4)
C2 C 0.9221(5) 0.8487(9) 0.1677(4)
H1 H 0.8873 0.9955 0.1952
H2 H 0.8712 0.7981 0.1027
C3 C 1.0584(5) 0.8845(9) 0.1332(4)
C4 C 1.1271(5) 1.0843(10) 0.1604(5)
H3 H 1.0896 1.2037 0.2021
C5 C 1.2516(5) 1.1071(10) 0.1255(5)
H4 H 1.2963 1.2421 0.1460
C6 C 1.2445(5) 0.7502(10) 0.0384(5)
H5 H 1.2835 0.6332 -0.0036
C7 C 1.1217(5) 0.7154(10) 0.0715(5)
H6 H 1.0802 0.5762 0.0523
N1 N 1.3110(4) 0.9442(7) 0.0635(4)
O1B O 1.0398(3) 0.2763(6) 0.6408(3)
O2B O 1.1257(4) 0.5330(7) 0.7631(3)
C1B C 1.0825(4) 0.3371(9) 0.7389(4)
C2B C 1.0779(5) 0.1513(9) 0.8323(4)
H1B H 1.1127 0.0045 0.8048
H2B H 1.1288 0.2019 0.8973
C3B C 0.9416(5) 0.1155(9) 0.8668(4)
C4B C 0.8729(5) -0.0843(10) 0.8396(5)
H3B H 0.9104 -0.2037 0.7979
C5B C 0.7484(5) -0.1071(10) 0.8745(5)
H4B H 0.7037 -0.2421 0.8540
C6B C 0.7555(5) 0.2498(10) 0.9616(5)
H5B H 0.7165 0.3668 1.0036
C7B C 0.8783(5) 0.2846(10) 0.9285(5)
H6B H 0.9198 0.4238 0.9477
N1B N 0.6890(4) 0.0558(7) 0.9365(4)
O3B O 1.0765(4) 0.8011(6) 0.5859(3)
N1A N 0.8110(4) 0.5558(7) 0.5635(4)
N1C N 1.1890(4) 0.4442(7) 0.4365(4)
Zn1A Zn 1.5000 1.0000 0.0000
Zn1A_2 Zn 0.5000 0.0000 1.0000
loop_
_geom_bond_atom_site_label_1
_geom_bond_atom_site_label_2
_geom_bond_site_symmetry_1
_geom_bond_site_symmetry_2
Zn1 O1 1_555 1_555
O1 C1 1_555 1_555
O2 C1 1_555 1_555
O3 Zn1 1_555 1_555
C1 C2 1_555 1_555
C2 H1 1_555 1_555
H2 C2 1_555 1_555
C3 C2 1_555 1_555
C4 C3 1_555 1_555
H3 C4 1_555 1_555
C5 C4 1_555 1_555
H4 C5 1_555 1_555
C6 H5 1_555 1_555
C7 C3 1_555 1_555
H6 C7 1_555 1_555
N1 C5 1_555 1_555
O1B Zn1 1_555 1_555
O2B C1B 1_555 1_555
C1B O1B 1_555 1_555
C2B C1B 1_555 1_555
H1B C2B 1_555 1_555
H2B C2B 1_555 1_555
C3B C2B 1_555 1_555
C4B C3B 1_555 1_555
H3B C4B 1_555 1_555
C5B C4B 1_555 1_555
H4B C5B 1_555 1_555
C6B H5B 1_555 1_555
C7B C3B 1_555 1_555
H6B C7B 1_555 1_555
N1B C5B 1_555 1_555
O3B Zn1 1_555 1_555
N1A Zn1 1_555 1_555
N1C Zn1 1_555 1_555
Zn1A N1 1_555 1_555
Zn1A_2 N1B 1_555 1_555
C6 N1 1_555 1_555
C6 C7 1_555 1_555
C6B N1B 1_555 1_555
C6B C7B 1_555 1_555

#END
