
#######################################################################
#
#                 Cambridge Crystallographic Data Centre
#                                CCDC 
#
#######################################################################
#
# If this CIF has been generated from an entry in the Cambridge 
# Structural Database, then it will include bibliographic, chemical, 
# crystal, experimental, refinement or atomic coordinate data resulting 
# from the CCDC's data processing and validation procedures.
#
#######################################################################

data_YACFEP
_symmetry_cell_setting           monoclinic
_symmetry_space_group_name_H-M   'P 21/c'
_symmetry_Int_Tables_number      14
_space_group_name_Hall           '-P 2ybc'
loop_
_symmetry_equiv_pos_site_id
_symmetry_equiv_pos_as_xyz
1 x,y,z
2 -x,1/2+y,1/2-z
3 -x,-y,-z
4 x,1/2-y,1/2+z
_cell_length_a                   7.9272(16)
_cell_length_b                   13.544(3)
_cell_length_c                   18.779(4)
_cell_angle_alpha                90
_cell_angle_beta                 101.41(3)
_cell_angle_gamma                90
_cell_volume                     1976.38
loop_
_atom_site_label
_atom_site_type_symbol
_atom_site_fract_x
_atom_site_fract_y
_atom_site_fract_z
Hg1 Hg 1.28460(4) 0.77972(3) 0.150823(17)
Cl1 Cl 1.1391(3) 0.74532(16) 0.24711(11)
S1 S 1.5615(3) 0.7840(2) 0.11705(12)
O1 O 0.8262(6) 0.9689(4) 0.2631(3)
O2 O 0.4123(7) 0.8933(6) 0.4148(4)
N1 N 1.1351(8) 0.9314(5) 0.1174(3)
N2 N 0.7360(7) 1.0418(5) 0.1532(3)
H1 H 0.6499 1.0686 0.1247
N3 N 0.1329(8) 0.9346(5) 0.3814(3)
H2 H 0.0593 0.9620 0.3473
N4 N 0.1062(8) 0.8119(5) 0.5538(3)
N5 N 1.4841(11) 0.8644(8) -0.0257(5)
C1 C 1.1895(10) 1.0038(6) 0.0789(4)
H3 H 1.2927 0.9957 0.0631
C2 C 1.0981(10) 1.0898(6) 0.0619(4)
H4 H 1.1383 1.1383 0.0344
C3 C 0.9462(10) 1.1036(6) 0.0860(4)
H5 H 0.8818 1.1609 0.0749
C4 C 0.8918(9) 1.0291(5) 0.1275(4)
C5 C 0.9880(9) 0.9441(6) 0.1412(4)
H6 H 0.9496 0.8939 0.1678
C6 C 0.7165(9) 1.0135(6) 0.2207(4)
C7 C 0.5455(9) 1.0389(6) 0.2388(4)
C8 C 0.4478(9) 1.1206(6) 0.2110(4)
H7 H 0.4847 1.1620 0.1777
C9 C 0.2942(10) 1.1396(6) 0.2337(4)
H8 H 0.2281 1.1938 0.2149
C10 C 0.2385(10) 1.0793(6) 0.2835(4)
H9 H 0.1341 1.0920 0.2973
C11 C 0.3377(9) 1.0003(6) 0.3130(4)
C12 C 0.4911(9) 0.9805(6) 0.2901(4)
H10 H 0.5579 0.9269 0.3097
C13 C 0.3001(11) 0.9366(7) 0.3737(4)
C14 C 0.0673(9) 0.8931(6) 0.4383(4)
C15 C -0.1069(10) 0.8990(6) 0.4372(4)
H11 H -0.1796 0.9281 0.3979
C16 C -0.1739(10) 0.8618(6) 0.4941(4)
H12 H -0.2913 0.8654 0.4935
C17 C -0.0644(10) 0.8198(6) 0.5511(4)
H13 H -0.1093 0.7956 0.5898
C18 C 0.1708(9) 0.8492(6) 0.4995(4)
H14 H 0.2890 0.8462 0.5021
C19 C 1.5137(10) 0.8335(7) 0.0337(6)
Hg1C Hg 0.28460(4) 0.72028(3) 0.650823(17)
N4C N 1.1062(8) 0.6881(5) 0.0538(3)
loop_
_geom_bond_atom_site_label_1
_geom_bond_atom_site_label_2
_geom_bond_site_symmetry_1
_geom_bond_site_symmetry_2
Hg1 Cl1 1_555 1_555
S1 Hg1 1_555 1_555
O1 C6 1_555 1_555
O2 C13 1_555 1_555
N1 Hg1 1_555 1_555
N2 H1 1_555 1_555
N3 H2 1_555 1_555
N4 C17 1_555 1_555
N5 C19 1_555 1_555
C1 N1 1_555 1_555
H3 C1 1_555 1_555
C2 C1 1_555 1_555
H4 C2 1_555 1_555
C3 C2 1_555 1_555
H5 C3 1_555 1_555
C4 N2 1_555 1_555
C5 N1 1_555 1_555
H6 C5 1_555 1_555
C6 N2 1_555 1_555
C7 C6 1_555 1_555
C8 C7 1_555 1_555
H7 C8 1_555 1_555
C9 C8 1_555 1_555
H8 C9 1_555 1_555
C10 C9 1_555 1_555
H9 C10 1_555 1_555
C11 C10 1_555 1_555
C12 C7 1_555 1_555
H10 C12 1_555 1_555
C13 N3 1_555 1_555
C14 N3 1_555 1_555
C15 C14 1_555 1_555
H11 C15 1_555 1_555
C16 C15 1_555 1_555
H12 C16 1_555 1_555
C17 C16 1_555 1_555
H13 C17 1_555 1_555
C18 N4 1_555 1_555
H14 C18 1_555 1_555
C19 S1 1_555 1_555
Hg1C N4 1_555 1_555
N4C Hg1 1_555 1_555
C3 C4 1_555 1_555
C4 C5 1_555 1_555
C11 C12 1_555 1_555
C11 C13 1_555 1_555
C14 C18 1_555 1_555

#END
