
#######################################################################
#
#                 Cambridge Crystallographic Data Centre
#                                CCDC 
#
#######################################################################
#
# If this CIF has been generated from an entry in the Cambridge 
# Structural Database, then it will include bibliographic, chemical, 
# crystal, experimental, refinement or atomic coordinate data resulting 
# from the CCDC's data processing and validation procedures.
#
#######################################################################

data_YACTUS
_symmetry_cell_setting           orthorhombic
_symmetry_space_group_name_H-M   'P c a 21'
_symmetry_Int_Tables_number      29
_space_group_name_Hall           'P 2c -2ac'
loop_
_symmetry_equiv_pos_site_id
_symmetry_equiv_pos_as_xyz
1 x,y,z
2 -x,-y,1/2+z
3 1/2-x,y,1/2+z
4 1/2+x,-y,z
_cell_length_a                   11.159(3)
_cell_length_b                   11.640(2)
_cell_length_c                   14.066(5)
_cell_angle_alpha                90
_cell_angle_beta                 90
_cell_angle_gamma                90
_cell_volume                     1827.04
loop_
_atom_site_label
_atom_site_type_symbol
_atom_site_fract_x
_atom_site_fract_y
_atom_site_fract_z
Cu1 Cu 0.1135(1) 0.5233(1) 0.5973(3)
N1 N 0.0995(9) 0.3925(9) 0.5042(7)
N2 N 0.0942(10) 0.3963(10) 0.6923(9)
O1 O 0.1397(8) 0.6411(8) 0.6910(7)
O2 O 0.3138(8) 0.5847(7) 0.7462(7)
O3 O 0.3697(7) 0.6434(8) 1.0032(6)
O4 O 0.1863(7) 0.5807(7) 0.9489(8)
O5 O -0.0999(3) 0.5516(3) 0.5988(9)
C1 C 0.2642(9) 0.6508(10) 0.9540(8)
C2 C 0.2630(10) 0.7575(10) 0.9005(8)
C3 C 0.2746(9) 0.8701(10) 0.9427(9)
C4 C 0.2611(10) 0.9674(8) 0.8960(11)
C5 C 0.2389(11) 0.9701(11) 0.7991(11)
C6 C 0.2271(11) 0.8606(10) 0.7508(10)
C7 C 0.2386(10) 0.7649(9) 0.8027(9)
C8 C 0.2228(10) 0.6516(8) 0.7421(8)
C9 C 0.0979(11) 0.3972(11) 0.4117(10)
C10 C 0.0748(14) 0.2996(13) 0.3568(11)
C11 C 0.0409(11) 0.1984(9) 0.3997(11)
C12 C 0.0406(12) 0.1914(12) 0.4970(11)
C13 C 0.0096(11) 0.0942(11) 0.5498(12)
C14 C 0.0088(13) 0.0907(12) 0.6451(15)
C15 C 0.0381(10) 0.1958(12) 0.6995(10)
C16 C 0.0429(12) 0.2030(12) 0.8007(9)
C17 C 0.0705(13) 0.3030(12) 0.8446(10)
C18 C 0.0991(11) 0.3963(13) 0.7882(9)
C19 C 0.0667(10) 0.2897(9) 0.6484(8)
C20 C 0.0689(10) 0.2982(10) 0.5450(8)
Cu1B Cu 0.3865(1) 0.5233(1) 1.0973(3)
O3B O 0.1303(7) 0.6434(8) 0.5032(6)
O6 O -0.0649(7) 0.8056(5) 0.6021(18)
loop_
_geom_bond_atom_site_label_1
_geom_bond_atom_site_label_2
_geom_bond_site_symmetry_1
_geom_bond_site_symmetry_2
Cu1 N1 1_555 1_555
N1 C9 1_555 1_555
N2 Cu1 1_555 1_555
O1 Cu1 1_555 1_555
O2 C8 1_555 1_555
O3 C1 1_555 1_555
O4 C1 1_555 1_555
O5 Cu1 1_555 1_555
C1 C2 1_555 1_555
C2 C3 1_555 1_555
C3 C4 1_555 1_555
C4 C5 1_555 1_555
C5 C6 1_555 1_555
C6 C7 1_555 1_555
C7 C2 1_555 1_555
C8 O1 1_555 1_555
C9 C10 1_555 1_555
C10 C11 1_555 1_555
C11 C12 1_555 1_555
C12 C13 1_555 1_555
C13 C14 1_555 1_555
C14 C15 1_555 1_555
C15 C16 1_555 1_555
C16 C17 1_555 1_555
C17 C18 1_555 1_555
C18 N2 1_555 1_555
C19 N2 1_555 1_555
C20 N1 1_555 1_555
Cu1B O3 1_555 1_555
O3B Cu1 1_555 1_555
C7 C8 1_555 1_555
C12 C20 1_555 1_555
C15 C19 1_555 1_555
C19 C20 1_555 1_555

#END
