
#######################################################################
#
#                 Cambridge Crystallographic Data Centre
#                                CCDC 
#
#######################################################################
#
# If this CIF has been generated from an entry in the Cambridge 
# Structural Database, then it will include bibliographic, chemical, 
# crystal, experimental, refinement or atomic coordinate data resulting 
# from the CCDC's data processing and validation procedures.
#
#######################################################################

data_YACTUS01
_symmetry_cell_setting           orthorhombic
_symmetry_space_group_name_H-M   'P b c m'
_symmetry_Int_Tables_number      57
_space_group_name_Hall           '-P 2c 2b'
loop_
_symmetry_equiv_pos_site_id
_symmetry_equiv_pos_as_xyz
1 x,y,z
2 -x,-y,1/2+z
3 -x,1/2+y,1/2-z
4 x,1/2-y,-z
5 -x,-y,-z
6 x,y,1/2-z
7 x,1/2-y,1/2+z
8 -x,1/2+y,z
_cell_length_a                   11.6652(3)
_cell_length_b                   11.1709(3)
_cell_length_c                   14.0532(4)
_cell_angle_alpha                90
_cell_angle_beta                 90
_cell_angle_gamma                90
_cell_volume                     1831.28
loop_
_atom_site_label
_atom_site_type_symbol
_atom_site_fract_x
_atom_site_fract_y
_atom_site_fract_z
N1 N 0.60594(18) 0.09674(17) 0.34380(15)
Cu1 Cu 0.47667(4) 0.11350(4) 0.2500
O1 O 0.4477(3) -0.0996(3) 0.2500
O2 O 0.41750(15) 0.31333(15) 0.39842(13)
O3 O 0.35778(15) 0.13503(15) 0.34426(13)
C1 C 0.6036(2) 0.0987(2) 0.43855(19)
C2 C 0.6991(3) 0.0730(3) 0.4940(2)
C3 C 0.7992(3) 0.0421(2) 0.4509(2)
C4 C 0.8062(2) 0.0393(2) 0.3510(2)
C5 C 0.7069(2) 0.0678(2) 0.30105(18)
C6 C 0.9072(2) 0.0098(3) 0.2972(2)
C7 C 0.0317(2) 0.2392(3) 0.4516(2)
C8 C 0.1341(2) 0.2269(2) 0.4040(2)
C9 C 0.23810(19) 0.2377(2) 0.45141(17)
C10 C 0.3472(2) 0.2298(2) 0.39486(17)
H1 H 0.538(3) 0.116(3) 0.466(3)
H2 H 0.473(2) -0.122(2) 0.289(2)
H3 H -0.037(2) 0.232(3) 0.420(2)
H4 H 0.696(2) 0.077(2) 0.558(2)
H5 H 0.133(2) 0.209(2) 0.336(2)
H6 H 0.969(2) -0.008(3) 0.328(2)
H7 H 0.860(3) 0.024(3) 0.488(2)
N1E N 0.60594(18) 0.09674(17) 0.15620(15)
Cu1C Cu 0.47667(4) 0.38650(4) 0.7500
O2C O 0.41750(15) 0.18667(15) 0.60158(13)
O3C O 0.35778(15) 0.36497(15) 0.65574(13)
O3E O 0.35778(15) 0.13503(15) 0.15574(13)
C1E C 0.6036(2) 0.0987(2) 0.06145(19)
C2E C 0.6991(3) 0.0730(3) 0.0060(2)
C3E C 0.7992(3) 0.0421(2) 0.0491(2)
C4E C 0.8062(2) 0.0393(2) 0.1490(2)
C5E C 0.7069(2) 0.0678(2) 0.19895(18)
C6E C 0.9072(2) 0.0098(3) 0.2028(2)
C7C C 0.0317(2) 0.2608(3) 0.5484(2)
C8C C 0.1341(2) 0.2731(2) 0.5960(2)
C9C C 0.23810(19) 0.2623(2) 0.54859(17)
C10C C 0.3472(2) 0.2702(2) 0.60514(17)
H1E H 0.538(3) 0.116(3) 0.034(3)
H2E H 0.473(2) -0.122(2) 0.211(2)
H3C H -0.037(2) 0.268(3) 0.580(2)
H4E H 0.696(2) 0.077(2) -0.058(2)
H5C H 0.133(2) 0.291(2) 0.664(2)
H6E H 0.969(2) -0.008(3) 0.172(2)
H7E H 0.860(3) 0.024(3) 0.012(2)
O4 O 0.1949(4) -0.0637(5) 0.2500
H8 H 0.213(5) -0.145(2) 0.2500
H9 H 0.265(4) -0.020(6) 0.2500
loop_
_geom_bond_atom_site_label_1
_geom_bond_atom_site_label_2
_geom_bond_site_symmetry_1
_geom_bond_site_symmetry_2
N1 Cu1 1_555 1_555
Cu1 O1 1_555 1_555
O1 H2 1_555 1_555
O2 C10 1_555 1_555
O3 Cu1 1_555 1_555
O4 H8 1_555 1_555
C1 N1 1_555 1_555
C2 C1 1_555 1_555
C3 C2 1_555 1_555
C4 C3 1_555 1_555
C5 N1 1_555 1_555
C6 C4 1_555 1_555
C7 C8 1_555 1_555
C8 C9 1_555 1_555
C9 C10 1_555 1_555
C10 O3 1_555 1_555
H1 C1 1_555 1_555
H3 C7 1_555 1_555
H4 C2 1_555 1_555
H5 C8 1_555 1_555
H6 C6 1_555 1_555
H7 C3 1_555 1_555
H9 O4 1_555 1_555
N1E Cu1 1_555 1_555
Cu1C O3C 1_555 1_555
O2C C10C 1_555 1_555
O3C C10C 1_555 1_555
O3E Cu1 1_555 1_555
C1E N1E 1_555 1_555
C2E C1E 1_555 1_555
C3E C2E 1_555 1_555
C4E C3E 1_555 1_555
C5E C5 1_555 1_555
C6E C6 1_555 1_555
C7C C7 1_555 1_555
C8C C7C 1_555 1_555
C9C C9 1_555 1_555
C10C C9C 1_555 1_555
H1E C1E 1_555 1_555
H2E O1 1_555 1_555
H3C C7C 1_555 1_555
H4E C2E 1_555 1_555
H5C C8C 1_555 1_555
H6E C6E 1_555 1_555
H7E C3E 1_555 1_555
C4 C5 1_555 1_555
N1E C5E 1_555 1_555
C4E C5E 1_555 1_555
C4E C6E 1_555 1_555
C8C C9C 1_555 1_555

#END
