
#######################################################################
#
#                 Cambridge Crystallographic Data Centre
#                                CCDC 
#
#######################################################################
#
# If this CIF has been generated from an entry in the Cambridge 
# Structural Database, then it will include bibliographic, chemical, 
# crystal, experimental, refinement or atomic coordinate data resulting 
# from the CCDC's data processing and validation procedures.
#
#######################################################################

data_YACYAD
_symmetry_cell_setting           monoclinic
_symmetry_space_group_name_H-M   'P 21/c'
_symmetry_Int_Tables_number      14
_space_group_name_Hall           '-P 2ybc'
loop_
_symmetry_equiv_pos_site_id
_symmetry_equiv_pos_as_xyz
1 x,y,z
2 x,1/2-y,1/2+z
3 -x,-y,-z
4 -x,1/2+y,1/2-z
_cell_length_a                   9.960(3)
_cell_length_b                   25.097(7)
_cell_length_c                   8.374(2)
_cell_angle_alpha                90
_cell_angle_beta                 106.519(5)
_cell_angle_gamma                90
_cell_volume                     2006.82
loop_
_atom_site_label
_atom_site_type_symbol
_atom_site_fract_x
_atom_site_fract_y
_atom_site_fract_z
K1 K 0.25507(11) 0.36443(4) 0.89809(12)
S1 S 0.65288(18) 0.37333(6) 0.69978(17)
N1 N 0.3790(6) 0.4047(2) 0.6536(6)
O1 O 0.2965(3) 0.25776(10) 0.8536(3)
O2 O 0.0867(3) 0.30281(13) 0.6429(3)
O3 O -0.0008(3) 0.40387(15) 0.7125(4)
O4 O 0.1793(5) 0.46997(13) 0.9579(5)
O5 O 0.4483(4) 0.42731(14) 1.1139(4)
O6 O 0.4871(3) 0.31646(13) 1.1100(4)
C1 C 0.1938(5) 0.2247(2) 0.7647(5)
C2 C 0.1952(8) 0.1697(3) 0.7814(9)
C3 C 0.0881(8) 0.1387(3) 0.6818(8)
C4 C -0.0197(8) 0.1623(3) 0.5688(8)
C5 C -0.0261(6) 0.2168(3) 0.5522(7)
C6 C 0.0814(6) 0.2485(2) 0.6496(6)
C7 C -0.0337(7) 0.3299(3) 0.5376(9)
C8 C -0.0057(8) 0.3877(3) 0.5493(8)
C9 C -0.0255(14) 0.4584(4) 0.7385(17)
C10 C 0.0964(11) 0.4889(3) 0.7894(16)
C11 C 0.3030(9) 0.5010(3) 1.0186(11)
C12 C 0.3975(9) 0.4750(3) 1.1693(12)
C13 C 0.5466(8) 0.4002(3) 1.2422(9)
C14 C 0.5999(6) 0.3534(2) 1.1693(8)
C15 C 0.5283(6) 0.2742(2) 1.0227(7)
C16 C 0.4131(6) 0.2337(2) 0.9726(7)
C17 C 0.4939(7) 0.3909(2) 0.6749(6)
H1 H 0.254(5) 0.1568(17) 0.846(5)
H2 H 0.101(5) 0.1038(17) 0.706(5)
H3 H -0.092(4) 0.1392(15) 0.510(4)
H4 H -0.108(5) 0.2350(18) 0.464(5)
H5 H -0.112(4) 0.3178(16) 0.569(5)
H6 H -0.045(5) 0.3199(19) 0.440(5)
H7 H -0.088(4) 0.4048(14) 0.477(5)
H8 H 0.086(6) 0.4045(19) 0.519(6)
H9 H -0.095(6) 0.481(2) 0.663(7)
H10 H -0.072(5) 0.462(3) 0.827(5)
H11 H 0.148(5) 0.484(3) 0.708(7)
H12 H 0.053(7) 0.5207(17) 0.817(8)
H13 H 0.355(4) 0.5022(13) 0.920(5)
H14 H 0.283(6) 0.539(2) 1.041(7)
H15 H 0.353(5) 0.4660(16) 1.244(5)
H16 H 0.481(5) 0.5026(17) 1.239(7)
H17 H 0.507(5) 0.3914(16) 1.323(5)
H18 H 0.634(5) 0.4265(18) 1.299(5)
H19 H 0.681(5) 0.3355(15) 1.253(5)
H20 H 0.651(4) 0.3678(15) 1.067(5)
H21 H 0.620(4) 0.2554(12) 1.090(4)
H22 H 0.559(4) 0.2915(13) 0.919(4)
H23 H 0.388(3) 0.2210(12) 1.059(3)
H24 H 0.444(3) 0.2040(13) 0.920(4)
C2A C 0.1952(8) 0.3303(3) 1.2814(9)
C3A C 0.0881(8) 0.3613(3) 1.1818(8)
C4A C -0.0197(8) 0.3377(3) 1.0688(8)
K1A K 0.25507(11) 0.13557(4) 0.39809(12)
H1A H 0.254(5) 0.3432(17) 1.346(5)
H2A H 0.101(5) 0.3962(17) 1.206(5)
H3A H -0.092(4) 0.3608(15) 1.010(4)
loop_
_geom_bond_atom_site_label_1
_geom_bond_atom_site_label_2
_geom_bond_site_symmetry_1
_geom_bond_site_symmetry_2
K1 N1 1_555 1_555
S1 C17 1_555 1_555
N1 C17 1_555 1_555
O1 K1 1_555 1_555
O2 K1 1_555 1_555
O3 K1 1_555 1_555
O4 K1 1_555 1_555
O5 K1 1_555 1_555
O6 K1 1_555 1_555
C1 O1 1_555 1_555
C2 C1 1_555 1_555
C3 C2 1_555 1_555
C4 C3 1_555 1_555
C5 C4 1_555 1_555
C6 O2 1_555 1_555
C7 O2 1_555 1_555
C8 O3 1_555 1_555
C9 O3 1_555 1_555
C10 O4 1_555 1_555
C11 O4 1_555 1_555
C12 O5 1_555 1_555
C13 O5 1_555 1_555
C14 O6 1_555 1_555
C15 O6 1_555 1_555
C16 O1 1_555 1_555
H1 C2 1_555 1_555
H2 C3 1_555 1_555
H3 C4 1_555 1_555
H4 C5 1_555 1_555
H5 C7 1_555 1_555
H6 C7 1_555 1_555
H7 C8 1_555 1_555
H8 C8 1_555 1_555
H9 C9 1_555 1_555
H10 C9 1_555 1_555
H11 C10 1_555 1_555
H12 C10 1_555 1_555
H13 C11 1_555 1_555
H14 C11 1_555 1_555
H15 C12 1_555 1_555
H16 C12 1_555 1_555
H17 C13 1_555 1_555
H18 C13 1_555 1_555
H19 C14 1_555 1_555
H20 C14 1_555 1_555
H21 C15 1_555 1_555
H22 C15 1_555 1_555
H23 C16 1_555 1_555
H24 C16 1_555 1_555
C2A K1 1_555 1_555
C3A K1 1_555 1_555
C4A K1 1_555 1_555
K1A C2 1_555 1_555
H1A C2A 1_555 1_555
H2A C3A 1_555 1_555
H3A C4A 1_555 1_555
C1 C6 1_555 1_555
C3 K1A 1_555 1_555
C4 K1A 1_555 1_555
C5 C6 1_555 1_555
C7 C8 1_555 1_555
C9 C10 1_555 1_555
C11 C12 1_555 1_555
C13 C14 1_555 1_555
C15 C16 1_555 1_555
C2A C3A 1_555 1_555
C3A C4A 1_555 1_555

#END
