
#######################################################################
#
#                 Cambridge Crystallographic Data Centre
#                                CCDC 
#
#######################################################################
#
# If this CIF has been generated from an entry in the Cambridge 
# Structural Database, then it will include bibliographic, chemical, 
# crystal, experimental, refinement or atomic coordinate data resulting 
# from the CCDC's data processing and validation procedures.
#
#######################################################################

data_YADHIV
_symmetry_cell_setting           triclinic
_symmetry_space_group_name_H-M   'P -1'
_symmetry_Int_Tables_number      2
_space_group_name_Hall           '-P 1'
loop_
_symmetry_equiv_pos_site_id
_symmetry_equiv_pos_as_xyz
1 x,y,z
2 -x,-y,-z
_cell_length_a                   7.217(5)
_cell_length_b                   10.605(3)
_cell_length_c                   17.705(2)
_cell_angle_alpha                79.609(5)
_cell_angle_beta                 83.571(5)
_cell_angle_gamma                71.787(7)
_cell_volume                     1263.83
loop_
_atom_site_label
_atom_site_type_symbol
_atom_site_fract_x
_atom_site_fract_y
_atom_site_fract_z
Cu1 Cu 0.59123(15) 0.51544(9) 0.12543(5)
Cu2 Cu -0.11086(16) 0.74675(9) 0.28731(5)
O1 O 0.2744(8) 0.6151(5) 0.3202(3)
O2 O 0.4512(8) 0.6286(5) 0.2085(3)
O3 O 0.6707(8) 0.3695(5) 0.0619(3)
O4 O 0.6678(9) 0.1577(5) 0.0659(3)
O5 O 0.8655(8) 0.4234(5) 0.2064(3)
O6 O 0.9266(8) 0.6146(5) 0.2135(3)
O7 O 0.8484(9) 0.8221(5) 0.3877(3)
O8 O 0.7567(11) 0.7758(6) 0.5106(3)
N1 N 0.4781(9) 0.3923(6) 0.1902(4)
N2 N 0.6806(9) 0.6469(6) 0.0531(4)
N3 N 1.0163(10) 1.1195(6) -0.2168(4)
N4 N 0.8313(9) 0.6027(6) 0.3562(3)
C1 C 0.6314(12) 0.2614(8) 0.0921(4)
C2 C 0.5179(11) 0.2707(7) 0.1709(4)
C3 C 0.4605(12) 0.1727(8) 0.2195(5)
H1 H 0.4866 0.0876 0.2063
C4 C 0.3627(14) 0.2023(8) 0.2888(5)
H2 H 0.3226 0.1367 0.3228
C5 C 0.3240(12) 0.3306(8) 0.3080(5)
H3 H 0.2596 0.3517 0.3546
C6 C 0.3841(11) 0.4243(7) 0.2558(4)
C7 C 0.3642(12) 0.5681(8) 0.2649(5)
C8 C 0.7801(12) 0.6138(8) -0.0120(4)
H4 H 0.8029 0.5267 -0.0216
C9 C 0.8511(12) 0.7005(7) -0.0657(5)
H5 H 0.9213 0.6717 -0.1100
C10 C 0.8166(11) 0.8332(7) -0.0532(4)
C11 C 0.7165(12) 0.8663(7) 0.0162(4)
H6 H 0.6937 0.9519 0.0283
C12 C 0.6522(12) 0.7721(8) 0.0663(5)
H7 H 0.5851 0.7966 0.1120
C13 C 0.8849(11) 0.9318(7) -0.1103(4)
C14 C 0.9630(12) 0.9049(7) -0.1830(5)
H8 H 0.9730 0.8226 -0.1971
C15 C 1.0254(12) 0.9986(8) -0.2339(4)
H9 H 1.0763 0.9782 -0.2824
C16 C 0.8753(12) 1.0568(7) -0.0928(4)
H10 H 0.8221 1.0803 -0.0452
C17 C 0.9446(12) 1.1451(8) -0.1462(4)
H11 H 0.9416 1.2265 -0.1327
C18 C 0.7969(14) 0.7473(8) 0.4466(5)
C19 C 0.7899(12) 0.6119(8) 0.4300(4)
C20 C 0.7465(12) 0.5113(8) 0.4817(4)
H12 H 0.7191 0.5183 0.5336
C21 C 0.7453(14) 0.3991(8) 0.4533(5)
H13 H 0.7157 0.3289 0.4869
C22 C 0.7876(12) 0.3879(8) 0.3753(5)
H14 H 0.7870 0.3119 0.3561
C23 C 0.8297(12) 0.4942(7) 0.3286(5)
C24 C 0.8791(11) 0.5100(8) 0.2421(4)
O12 O -0.4400(9) 0.8401(6) 0.2570(3)
H21 H -0.5121 0.8567 0.3032
H22 H -0.4460 0.7668 0.2531
O6_2 O -0.0734(8) 0.6146(5) 0.2135(3)
O7_2 O -0.1516(9) 0.8221(5) 0.3877(3)
N3A N -0.0163(10) 0.8805(6) 0.2168(4)
N4_2 N -0.1687(9) 0.6027(6) 0.3562(3)
Cu2_2 Cu 0.88914(16) 0.74675(9) 0.28731(5)
Cu2A Cu 1.11086(16) 1.25325(9) -0.28731(5)
O9 O 1.3238(15) 0.9053(11) -0.4260(7)
H15 H 1.3485 0.9779 -0.4083
H16 H 1.3564 0.9194 -0.4719
O10 O 0.9276(13) 0.9314(8) -0.4205(5)
H17 H 1.0203 0.9561 -0.4520
H18 H 0.8996 0.8758 -0.4461
O11 O 0.6718(11) 1.1732(7) -0.3897(4)
H19 H 0.7472 1.0894 -0.3988
H20 H 0.7516 1.2150 -0.4180
loop_
_geom_bond_atom_site_label_1
_geom_bond_atom_site_label_2
_geom_bond_site_symmetry_1
_geom_bond_site_symmetry_2
Cu1 O2 1_555 1_555
Cu2 O1 1_555 1_555
O1 C7 1_555 1_555
O2 C7 1_555 1_555
O3 Cu1 1_555 1_555
O4 C1 1_555 1_555
O5 Cu1 1_555 1_555
O6 C24 1_555 1_555
O7 C18 1_555 1_555
O8 C18 1_555 1_555
N1 Cu1 1_555 1_555
N2 Cu1 1_555 1_555
N3 C15 1_555 1_555
N4 C19 1_555 1_555
C1 O3 1_555 1_555
C2 N1 1_555 1_555
C3 C2 1_555 1_555
H1 C3 1_555 1_555
C4 C3 1_555 1_555
H2 C4 1_555 1_555
C5 C4 1_555 1_555
H3 C5 1_555 1_555
C6 N1 1_555 1_555
C7 C6 1_555 1_555
C8 N2 1_555 1_555
H4 C8 1_555 1_555
C9 C8 1_555 1_555
H5 C9 1_555 1_555
C10 C9 1_555 1_555
C11 C10 1_555 1_555
H6 C11 1_555 1_555
C12 N2 1_555 1_555
H7 C12 1_555 1_555
C13 C10 1_555 1_555
C14 C13 1_555 1_555
H8 C14 1_555 1_555
C15 C14 1_555 1_555
H9 C15 1_555 1_555
C16 C13 1_555 1_555
H10 C16 1_555 1_555
C17 N3 1_555 1_555
H11 C17 1_555 1_555
C18 C19 1_555 1_555
C19 C20 1_555 1_555
C20 H12 1_555 1_555
C21 C20 1_555 1_555
H13 C21 1_555 1_555
C22 C21 1_555 1_555
H14 C22 1_555 1_555
C23 N4 1_555 1_555
C24 O5 1_555 1_555
O9 H15 1_555 1_555
H16 O9 1_555 1_555
O10 H17 1_555 1_555
H18 O10 1_555 1_555
O11 H19 1_555 1_555
H20 O11 1_555 1_555
O12 Cu2 1_555 1_555
H21 O12 1_555 1_555
H22 O12 1_555 1_555
O6_2 Cu2 1_555 1_555
O7_2 Cu2 1_555 1_555
N3A Cu2 1_555 1_555
N4_2 Cu2 1_555 1_555
Cu2_2 O6 1_555 1_555
Cu2A N3 1_555 1_555
O7 Cu2_2 1_555 1_555
N4 Cu2_2 1_555 1_555
C1 C2 1_555 1_555
C5 C6 1_555 1_555
C11 C12 1_555 1_555
C16 C17 1_555 1_555
C22 C23 1_555 1_555
C23 C24 1_555 1_555

#END
