
#######################################################################
#
#                 Cambridge Crystallographic Data Centre
#                                CCDC 
#
#######################################################################
#
# If this CIF has been generated from an entry in the Cambridge 
# Structural Database, then it will include bibliographic, chemical, 
# crystal, experimental, refinement or atomic coordinate data resulting 
# from the CCDC's data processing and validation procedures.
#
#######################################################################

data_YADHUH01
_symmetry_cell_setting           monoclinic
_symmetry_space_group_name_H-M   'C 2/c'
_symmetry_Int_Tables_number      15
_space_group_name_Hall           '-C 2yn'
loop_
_symmetry_equiv_pos_site_id
_symmetry_equiv_pos_as_xyz
1 x,y,z
2 1/2+x,1/2+y,z
3 -x,y,1/2-z
4 1/2-x,1/2+y,1/2-z
5 -x,-y,-z
6 1/2-x,1/2-y,-z
7 x,-y,1/2+z
8 1/2+x,1/2-y,1/2+z
_cell_length_a                   7.8042(9)
_cell_length_b                   13.6152(17)
_cell_length_c                   10.0667(12)
_cell_angle_alpha                90
_cell_angle_beta                 91.687(4)
_cell_angle_gamma                90
_cell_volume                     1069.18
loop_
_atom_site_label
_atom_site_type_symbol
_atom_site_fract_x
_atom_site_fract_y
_atom_site_fract_z
Cu1 Cu 0.5000 0.06463(3) 0.2500
O1 O 0.3461(2) 0.04164(13) 0.08928(18)
O2 O 0.2652(2) -0.07906(13) -0.05100(19)
N1 N 0.5000 0.2074(2) 0.2500
N2 N 0.5000 -0.0746(2) 0.2500
C1 C 0.3334(3) -0.04888(19) 0.0526(3)
C2 C 0.4161(3) -0.1210(2) 0.1514(3)
C3 C 0.4135(3) -0.2221(2) 0.1484(3)
H1 H 0.3542 -0.2564 0.0789
C4 C 0.5000 -0.2728(3) 0.2500
H2 H 0.5000 -0.3426 0.2500
C5 C 0.5748(3) 0.2583(2) 0.3507(3)
H3 H 0.6286 0.2230 0.4218
C6 C 0.5765(4) 0.3594(2) 0.3549(3)
H4 H 0.6290 0.3931 0.4281
C7 C 0.5000 0.4112(3) 0.2500
H5 H 0.5000 0.4810 0.2500
Cu1F Cu 0.5000 -0.06463(3) -0.2500
Cu1F_2 Cu 0.5000 -0.06463(3) 0.7500
O1B O 0.6539(2) 0.04164(13) 0.41072(18)
O2B O 0.7348(2) -0.07906(13) 0.55100(19)
O2F O 0.2652(2) 0.07906(13) 0.44900(19)
O2D O 0.7348(2) 0.07906(13) 0.05100(19)
C1B C 0.6666(3) -0.04888(19) 0.4474(3)
C2B C 0.5839(3) -0.1210(2) 0.3486(3)
C3B C 0.5865(3) -0.2221(2) 0.3516(3)
H1B H 0.6458 -0.2564 0.4211
C5B C 0.4252(3) 0.2583(2) 0.1493(3)
H3B H 0.3714 0.2230 0.0782
C6B C 0.4235(4) 0.3594(2) 0.1451(3)
H4B H 0.3710 0.3931 0.0719
loop_
_geom_bond_atom_site_label_1
_geom_bond_atom_site_label_2
_geom_bond_site_symmetry_1
_geom_bond_site_symmetry_2
Cu1 O1 1_555 1_555
O1 C1 1_555 1_555
O2 C1 1_555 1_555
N1 Cu1 1_555 1_555
N2 Cu1 1_555 1_555
C1 C2 1_555 1_555
C2 N2 1_555 1_555
C3 C2 1_555 1_555
H1 C3 1_555 1_555
C4 C3 1_555 1_555
H2 C4 1_555 1_555
C5 N1 1_555 1_555
H3 C5 1_555 1_555
C6 C5 1_555 1_555
H4 C6 1_555 1_555
C7 C6 1_555 1_555
H5 C7 1_555 1_555
Cu1F O2 1_555 1_555
Cu1F_2 O2B 1_555 1_555
O1B Cu1 1_555 1_555
O2B C1B 1_555 1_555
O2F Cu1 1_555 1_555
O2D Cu1 1_555 1_555
C1B O1B 1_555 1_555
C2B N2 1_555 1_555
C3B C4 1_555 1_555
H1B C3B 1_555 1_555
C5B N1 1_555 1_555
H3B C5B 1_555 1_555
C6B C7 1_555 1_555
H4B C6B 1_555 1_555
C1B C2B 1_555 1_555
C2B C3B 1_555 1_555
C5B C6B 1_555 1_555

#END
