
#######################################################################
#
#                 Cambridge Crystallographic Data Centre
#                                CCDC 
#
#######################################################################
#
# If this CIF has been generated from an entry in the Cambridge 
# Structural Database, then it will include bibliographic, chemical, 
# crystal, experimental, refinement or atomic coordinate data resulting 
# from the CCDC's data processing and validation procedures.
#
#######################################################################

data_YADPIE
_symmetry_cell_setting           triclinic
_symmetry_space_group_name_H-M   'P -1'
_symmetry_Int_Tables_number      2
_space_group_name_Hall           '-P 1'
loop_
_symmetry_equiv_pos_site_id
_symmetry_equiv_pos_as_xyz
1 x,y,z
2 -x,-y,-z
_cell_length_a                   9.7477(16)
_cell_length_b                   10.2610(18)
_cell_length_c                   11.0480(19)
_cell_angle_alpha                88.849(3)
_cell_angle_beta                 72.115(4)
_cell_angle_gamma                83.121(3)
_cell_volume                     1043.9
loop_
_atom_site_label
_atom_site_type_symbol
_atom_site_fract_x
_atom_site_fract_y
_atom_site_fract_z
Zn1 Zn 0.39808(6) 0.38395(5) 0.54113(5)
C1 C 0.6671(5) 0.1755(5) 0.4727(5)
H1 H 0.7021 0.2253 0.5235
C2 C 0.7546(5) 0.0643(5) 0.4098(5)
H2 H 0.8454 0.0403 0.4200
C3 C 0.7059(5) -0.0093(5) 0.3327(5)
H3 H 0.7632 -0.0835 0.2900
C4 C 0.5686(5) 0.0291(4) 0.3194(4)
C5 C 0.5041(5) -0.0321(4) 0.2395(4)
C6 C 0.3733(5) 0.0143(4) 0.2210(5)
C7 C 0.2859(5) 0.1260(5) 0.2933(5)
C8 C 0.1468(5) 0.1777(5) 0.2890(5)
H4 H 0.1048 0.1402 0.2352
C9 C 0.0745(6) 0.2835(5) 0.3647(5)
H5 H -0.0181 0.3176 0.3641
C10 C 0.1403(5) 0.3396(5) 0.4423(5)
H6 H 0.0903 0.4124 0.4924
C11 C 0.3431(5) 0.1878(4) 0.3759(4)
C12 C 0.4856(5) 0.1422(4) 0.3874(4)
C13 C 0.4616(5) -0.1529(4) 0.0957(5)
C14 C 0.4894(5) -0.2566(4) -0.0019(5)
C15 C 0.6139(5) -0.3454(5) -0.0274(5)
H7 H 0.6767 -0.3415 0.0207
C16 C 0.6468(5) -0.4398(5) -0.1230(5)
H8 H 0.7298 -0.4998 -0.1371
C17 C 0.5563(5) -0.4452(4) -0.1980(4)
C18 C 0.4302(5) -0.3563(4) -0.1718(4)
H9 H 0.3680 -0.3587 -0.2206
C19 C 0.3971(5) -0.2648(5) -0.0741(5)
H10 H 0.3114 -0.2079 -0.0566
C20 C 0.5974(6) -0.5445(5) -0.3046(5)
C21 C -0.0493(5) 0.4022(5) 1.0852(5)
H11 H -0.0820 0.3366 1.1424
C22 C 0.0434(5) 0.3690(5) 0.9641(5)
H12 H 0.0721 0.2812 0.9401
C23 C 0.0935(5) 0.4665(5) 0.8785(5)
C24 C 0.1997(5) 0.4312(5) 0.7506(5)
N1 N 0.5364(4) 0.2129(4) 0.4629(4)
N2 N 0.2706(4) 0.2945(4) 0.4484(4)
N3 N 0.5581(4) -0.1389(4) 0.1592(4)
H13 H 0.6385 -0.1880 0.1506
N4 N 0.3485(4) -0.0610(4) 0.1302(4)
O1 O 0.6824(5) -0.6414(4) -0.3044(4)
O2 O 0.5370(4) -0.5184(3) -0.3944(3)
O3 O 0.2806(4) 0.3234(3) 0.7355(3)
O4 O 0.2120(4) 0.5109(3) 0.6606(3)
Zn1A Zn -0.39808(6) 0.61605(5) 1.45887(5)
Zn1_2 Zn -0.60192(6) 1.38395(5) 2.54113(5)
Zn1_3 Zn 0.39808(6) -0.61605(5) -0.45887(5)
Zn1A_2 Zn -0.39808(6) 1.61605(5) 2.45887(5)
Zn1A_3 Zn 0.60192(6) -0.38395(5) -0.54113(5)
C1A C -0.6671(5) 0.8245(5) 1.5273(5)
H1A H -0.7021 0.7747 1.4765
C2A C -0.7546(5) 0.9357(5) 1.5902(5)
H2A H -0.8454 0.9597 1.5800
C3A C -0.7059(5) 1.0093(5) 1.6673(5)
H3A H -0.7632 1.0835 1.7100
C4A C -0.5686(5) 0.9709(4) 1.6806(4)
C5A C -0.5041(5) 1.0321(4) 1.7605(4)
C6A C -0.3733(5) 0.9857(4) 1.7790(5)
C7A C -0.2859(5) 0.8740(5) 1.7067(5)
C8A C -0.1468(5) 0.8223(5) 1.7110(5)
H4A H -0.1048 0.8598 1.7648
C9A C -0.0745(6) 0.7165(5) 1.6353(5)
H5A H 0.0181 0.6824 1.6359
C10A C -0.1403(5) 0.6604(5) 1.5577(5)
H6A H -0.0903 0.5876 1.5076
C11A C -0.3431(5) 0.8122(4) 1.6241(4)
C12A C -0.4856(5) 0.8578(4) 1.6126(4)
C13A C -0.4616(5) 1.1529(4) 1.9043(5)
C14A C -0.4894(5) 1.2566(4) 2.0019(5)
C15A C -0.6139(5) 1.3454(5) 2.0274(5)
H7A H -0.6767 1.3415 1.9793
C16A C -0.6468(5) 1.4398(5) 2.1230(5)
H8A H -0.7298 1.4998 2.1371
C17A C -0.5563(5) 1.4452(4) 2.1980(4)
C18A C -0.4302(5) 1.3563(4) 2.1718(4)
H9A H -0.3680 1.3587 2.2206
C19A C -0.3971(5) 1.2648(5) 2.0741(5)
H10A H -0.3114 1.2079 2.0566
C20A C -0.5974(6) 1.5445(5) 2.3046(5)
C21A C 0.0493(5) 0.5978(5) 0.9148(5)
H11A H 0.0820 0.6634 0.8576
C22A C -0.0434(5) 0.6310(5) 1.0359(5)
H12A H -0.0721 0.7188 1.0599
C23A C -0.0935(5) 0.5335(5) 1.1215(5)
C24A C -0.1997(5) 0.5688(5) 1.2494(5)
N1A N -0.5364(4) 0.7871(4) 1.5371(4)
N2A N -0.2706(4) 0.7055(4) 1.5516(4)
N3A N -0.5581(4) 1.1389(4) 1.8408(4)
H13A H -0.6385 1.1880 1.8494
N4A N -0.3485(4) 1.0610(4) 1.8698(4)
O1A O -0.6824(5) 1.6414(4) 2.3044(4)
O2A O -0.5370(4) 1.5184(3) 2.3944(3)
O2_2 O -0.4630(4) 0.4816(3) 1.6056(3)
O2_3 O 0.5370(4) 0.4816(3) 0.6056(3)
O2A_2 O -0.5370(4) 0.5184(3) 1.3944(3)
O2A_3 O 0.4630(4) 0.5184(3) 0.3944(3)
O3A O -0.2806(4) 0.6766(3) 1.2645(3)
O4A O -0.2120(4) 0.4891(3) 1.3394(3)
O5 O 0.0693(8) -0.0278(10) 0.0842(10)
O6 O 0.9457(7) 0.2012(9) 0.7044(9)
loop_
_geom_bond_atom_site_label_1
_geom_bond_atom_site_label_2
_geom_bond_site_symmetry_1
_geom_bond_site_symmetry_2
Zn1 N1 1_555 1_555
C1 H1 1_555 1_555
C2 C1 1_555 1_555
H2 C2 1_555 1_555
C3 C2 1_555 1_555
H3 C3 1_555 1_555
C4 C3 1_555 1_555
C5 C4 1_555 1_555
C6 C5 1_555 1_555
C7 C6 1_555 1_555
C8 C7 1_555 1_555
H4 C8 1_555 1_555
C9 C8 1_555 1_555
H5 C9 1_555 1_555
C10 C9 1_555 1_555
H6 C10 1_555 1_555
C11 C7 1_555 1_555
C12 C4 1_555 1_555
C13 C14 1_555 1_555
C14 C15 1_555 1_555
C15 H7 1_555 1_555
C16 C15 1_555 1_555
H8 C16 1_555 1_555
C17 C16 1_555 1_555
C18 C17 1_555 1_555
H9 C18 1_555 1_555
C19 C14 1_555 1_555
H10 C19 1_555 1_555
C20 C17 1_555 1_555
C21 H11 1_555 1_555
C22 C21 1_555 1_555
H12 C22 1_555 1_555
C23 C22 1_555 1_555
C24 C23 1_555 1_555
N1 C1 1_555 1_555
N2 Zn1 1_555 1_555
N3 C5 1_555 1_555
H13 N3 1_555 1_555
N4 C6 1_555 1_555
O1 C20 1_555 1_555
O2 C20 1_555 1_555
O3 Zn1 1_555 1_555
O4 Zn1 1_555 1_555
Zn1A N1A 1_555 1_555
Zn1_2 O2A 1_555 1_555
Zn1_3 O2 1_555 1_555
Zn1A_2 O2A 1_555 1_555
Zn1A_3 O2 1_555 1_555
C1A H1A 1_555 1_555
C2A C1A 1_555 1_555
H2A C2A 1_555 1_555
C3A C2A 1_555 1_555
H3A C3A 1_555 1_555
C4A C3A 1_555 1_555
C5A C4A 1_555 1_555
C6A C5A 1_555 1_555
C7A C6A 1_555 1_555
C8A C7A 1_555 1_555
H4A C8A 1_555 1_555
C9A C8A 1_555 1_555
H5A C9A 1_555 1_555
C10A C9A 1_555 1_555
H6A C10A 1_555 1_555
C11A C7A 1_555 1_555
C12A C4A 1_555 1_555
C13A C14A 1_555 1_555
C14A C15A 1_555 1_555
C15A H7A 1_555 1_555
C16A C15A 1_555 1_555
H8A C16A 1_555 1_555
C17A C16A 1_555 1_555
C18A C17A 1_555 1_555
H9A C18A 1_555 1_555
C19A C14A 1_555 1_555
H10A C19A 1_555 1_555
C20A C17A 1_555 1_555
C21A C23 1_555 1_555
H11A C21A 1_555 1_555
C22A C21A 1_555 1_555
H12A C22A 1_555 1_555
C23A C21 1_555 1_555
C24A C23A 1_555 1_555
N1A C1A 1_555 1_555
N2A Zn1A 1_555 1_555
N3A C5A 1_555 1_555
H13A N3A 1_555 1_555
N4A C6A 1_555 1_555
O1A C20A 1_555 1_555
O2A C20A 1_555 1_555
O2_2 Zn1A 1_555 1_555
O2_3 Zn1 1_555 1_555
O2A_2 Zn1A 1_555 1_555
O2A_3 Zn1 1_555 1_555
O3A Zn1A 1_555 1_555
O4A Zn1A 1_555 1_555
C10 N2 1_555 1_555
C11 C12 1_555 1_555
C11 N2 1_555 1_555
C12 N1 1_555 1_555
C13 N3 1_555 1_555
C13 N4 1_555 1_555
C18 C19 1_555 1_555
C24 O3 1_555 1_555
C24 O4 1_555 1_555
C10A N2A 1_555 1_555
C11A C12A 1_555 1_555
C11A N2A 1_555 1_555
C12A N1A 1_555 1_555
C13A N3A 1_555 1_555
C13A N4A 1_555 1_555
C18A C19A 1_555 1_555
C22A C23A 1_555 1_555
C24A O3A 1_555 1_555
C24A O4A 1_555 1_555

#END
