
#######################################################################
#
#                 Cambridge Crystallographic Data Centre
#                                CCDC 
#
#######################################################################
#
# If this CIF has been generated from an entry in the Cambridge 
# Structural Database, then it will include bibliographic, chemical, 
# crystal, experimental, refinement or atomic coordinate data resulting 
# from the CCDC's data processing and validation procedures.
#
#######################################################################

data_YADQAV
_symmetry_cell_setting           monoclinic
_symmetry_space_group_name_H-M   'P 21/n'
_symmetry_Int_Tables_number      14
_space_group_name_Hall           '-P 2yn'
loop_
_symmetry_equiv_pos_site_id
_symmetry_equiv_pos_as_xyz
1 x,y,z
2 1/2-x,1/2+y,1/2-z
3 -x,-y,-z
4 1/2+x,1/2-y,1/2+z
_cell_length_a                   12.0504(4)
_cell_length_b                   17.3029(7)
_cell_length_c                   18.3985(5)
_cell_angle_alpha                90
_cell_angle_beta                 94.879(2)
_cell_angle_gamma                90
_cell_volume                     3822.31
loop_
_atom_site_label
_atom_site_type_symbol
_atom_site_fract_x
_atom_site_fract_y
_atom_site_fract_z
Re1 Re 0.05649(3) 0.22580(2) 0.149225(18)
Re2 Re 0.48649(3) 0.26411(2) -0.242000(18)
Cl1 Cl 0.16373(18) 0.11448(14) 0.15823(12)
Cl2 Cl -0.08425(18) 0.16344(15) 0.07932(12)
Cl3 Cl 0.55863(18) 0.37055(15) -0.17890(12)
Cl4 Cl 0.31290(18) 0.32074(16) -0.26204(12)
P1 P 0.17066(18) 0.28987(14) -0.02696(11)
P2 P 0.37743(18) 0.19986(15) -0.06896(11)
O1 O 0.1375(5) 0.2552(4) 0.0420(3)
O2 O 0.4365(5) 0.2195(4) -0.1342(3)
O3 O 0.1938(5) 0.2884(4) 0.1894(3)
O4 O -0.0155(5) 0.3302(4) 0.1189(3)
O5 O 0.1246(5) 0.2985(4) 0.2970(3)
O6 O -0.0841(5) 0.3396(4) 0.2270(3)
C1 C 0.2003(7) 0.3117(6) 0.2544(5)
C2 C 0.2978(9) 0.3616(8) 0.2820(6)
C3 C -0.0729(8) 0.3682(6) 0.1639(5)
C4 C -0.1189(11) 0.4417(7) 0.1417(7)
C5 C 0.2460(6) 0.2315(4) -0.0759(4)
C6 C 0.0499(7) 0.3130(6) -0.0880(5)
C7 C 0.0636(8) 0.3418(7) -0.1581(5)
C8 C -0.0306(8) 0.3619(7) -0.2029(5)
C9 C -0.1365(8) 0.3537(7) -0.1794(5)
C10 C -0.1483(8) 0.3242(8) -0.1121(6)
C11 C -0.0554(7) 0.3053(6) -0.0656(5)
C12 C 0.2483(7) 0.3775(5) -0.0113(5)
C13 C 0.3167(7) 0.4082(6) -0.0621(5)
C14 C 0.3672(8) 0.4782(6) -0.0493(6)
C15 C 0.3528(9) 0.5188(6) 0.0139(6)
C16 C 0.2853(9) 0.4881(7) 0.0642(6)
C17 C 0.2344(8) 0.4190(6) 0.0514(5)
C18 C 0.4521(7) 0.2367(5) 0.0121(5)
C19 C 0.4109(9) 0.2351(7) 0.0805(5)
C20 C 0.4771(11) 0.2604(7) 0.1409(6)
C21 C 0.5852(11) 0.2854(7) 0.1341(6)
C22 C 0.6262(10) 0.2889(8) 0.0664(6)
C23 C 0.5588(8) 0.2643(6) 0.0049(5)
C24 C 0.3665(8) 0.0965(6) -0.0604(5)
C25 C 0.3037(13) 0.0623(7) -0.0106(8)
C26 C 0.2983(15) -0.0181(10) -0.0066(12)
C27 C 0.3507(16) -0.0629(10) -0.0502(12)
C28 C 0.4133(18) -0.0301(10) -0.0986(12)
C29 C 0.4224(14) 0.0492(8) -0.1050(8)
H1 H 0.134 0.347 -0.174
H2 H -0.023 0.381 -0.249
H3 H -0.199 0.368 -0.210
H4 H -0.219 0.316 -0.097
H5 H -0.064 0.287 -0.019
H6 H 0.328 0.381 -0.104
H7 H 0.412 0.499 -0.083
H8 H 0.388 0.566 0.023
H9 H 0.275 0.515 0.107
H10 H 0.189 0.399 0.085
H11 H 0.347 0.332 0.315
H12 H 0.271 0.406 0.306
H13 H 0.337 0.378 0.242
H14 H -0.144 0.440 0.091
H15 H -0.063 0.481 0.150
H16 H -0.181 0.453 0.169
H17 H 0.203 0.184 -0.079
H18 H 0.237 0.254 -0.124
H19 H 0.339 0.217 0.085
H20 H 0.449 0.261 0.186
H21 H 0.630 0.300 0.175
H22 H 0.698 0.307 0.062
H23 H 0.586 0.266 -0.041
H24 H 0.265 0.093 0.020
H25 H 0.257 -0.041 0.028
H26 H 0.344 -0.116 -0.048
H27 H 0.452 -0.062 -0.129
H28 H 0.466 0.070 -0.139
Re2C Re -0.01351(3) 0.23589(2) 0.258000(18)
Re1C Re 0.55649(3) 0.27420(2) -0.350775(18)
O5C O 0.6246(5) 0.2015(4) -0.2030(3)
O6C O 0.4159(5) 0.1604(4) -0.2730(3)
O7 O 0.1133(9) 0.1426(5) 0.8218(5)
C30 C 0.084(2) 0.0155(11) 0.7833(10)
C31 C 0.0777(9) 0.0787(7) 0.8357(7)
C32 C 0.0290(12) 0.0599(9) 0.9052(8)
H29 H 0.097 0.036 0.736
H30 H 0.016 -0.013 0.780
H31 H 0.145 -0.018 0.799
H32 H 0.015 0.107 0.931
H33 H 0.080 0.029 0.935
H34 H -0.039 0.032 0.895
loop_
_geom_bond_atom_site_label_1
_geom_bond_atom_site_label_2
_geom_bond_site_symmetry_1
_geom_bond_site_symmetry_2
Re1 Cl1 1_555 1_555
Re2 Cl3 1_555 1_555
Cl2 Re1 1_555 1_555
Cl4 Re2 1_555 1_555
P1 O1 1_555 1_555
P2 O2 1_555 1_555
O1 Re1 1_555 1_555
O2 Re2 1_555 1_555
O3 Re1 1_555 1_555
O4 Re1 1_555 1_555
O5 C1 1_555 1_555
O6 C3 1_555 1_555
C1 O3 1_555 1_555
C2 C1 1_555 1_555
C3 O4 1_555 1_555
C4 C3 1_555 1_555
C5 P1 1_555 1_555
C6 P1 1_555 1_555
C7 C6 1_555 1_555
C8 C7 1_555 1_555
C9 C8 1_555 1_555
C10 C9 1_555 1_555
C11 C6 1_555 1_555
C12 P1 1_555 1_555
C13 C12 1_555 1_555
C14 C13 1_555 1_555
C15 C14 1_555 1_555
C16 C15 1_555 1_555
C17 C12 1_555 1_555
C18 P2 1_555 1_555
C19 C18 1_555 1_555
C20 C19 1_555 1_555
C21 C20 1_555 1_555
C22 C21 1_555 1_555
C23 C18 1_555 1_555
C24 P2 1_555 1_555
C25 C24 1_555 1_555
C26 C25 1_555 1_555
C27 C26 1_555 1_555
C28 C27 1_555 1_555
C29 C24 1_555 1_555
O7 C31 1_555 1_555
C30 C31 1_555 1_555
C31 C32 1_555 1_555
C32 H32 1_555 1_555
H1 C7 1_555 1_555
H2 C8 1_555 1_555
H3 C9 1_555 1_555
H4 C10 1_555 1_555
H5 C11 1_555 1_555
H6 C13 1_555 1_555
H7 C14 1_555 1_555
H8 C15 1_555 1_555
H9 C16 1_555 1_555
H10 C17 1_555 1_555
H11 C2 1_555 1_555
H12 C2 1_555 1_555
H13 C2 1_555 1_555
H14 C4 1_555 1_555
H15 C4 1_555 1_555
H16 C4 1_555 1_555
H17 C5 1_555 1_555
H18 C5 1_555 1_555
H19 C19 1_555 1_555
H20 C20 1_555 1_555
H21 C21 1_555 1_555
H22 C22 1_555 1_555
H23 C23 1_555 1_555
H24 C25 1_555 1_555
H25 C26 1_555 1_555
H26 C27 1_555 1_555
H27 C28 1_555 1_555
H28 C29 1_555 1_555
H29 C30 1_555 1_555
H30 C30 1_555 1_555
H31 C30 1_555 1_555
H33 C32 1_555 1_555
H34 C32 1_555 1_555
Re2C Re1 1_555 1_555
Re1C Re2 1_555 1_555
O5C Re2 1_555 1_555
O6C Re2 1_555 1_555
P2 C5 1_555 1_555
O5 Re2C 1_555 1_555
O6 Re2C 1_555 1_555
C10 C11 1_555 1_555
C16 C17 1_555 1_555
C22 C23 1_555 1_555
C28 C29 1_555 1_555

#END
