
#######################################################################
#
#                 Cambridge Crystallographic Data Centre
#                                CCDC 
#
#######################################################################
#
# If this CIF has been generated from an entry in the Cambridge 
# Structural Database, then it will include bibliographic, chemical, 
# crystal, experimental, refinement or atomic coordinate data resulting 
# from the CCDC's data processing and validation procedures.
#
#######################################################################

data_YADSIH
_symmetry_cell_setting           monoclinic
_symmetry_space_group_name_H-M   'P 21/c'
_symmetry_Int_Tables_number      14
_space_group_name_Hall           '-P 2ybc'
loop_
_symmetry_equiv_pos_site_id
_symmetry_equiv_pos_as_xyz
1 x,y,z
2 -x,1/2+y,1/2-z
3 -x,-y,-z
4 x,1/2-y,1/2+z
_cell_length_a                   16.371(3)
_cell_length_b                   8.8526(18)
_cell_length_c                   9.5041(19)
_cell_angle_alpha                90
_cell_angle_beta                 94.18(3)
_cell_angle_gamma                90
_cell_volume                     1373.73
loop_
_atom_site_label
_atom_site_type_symbol
_atom_site_fract_x
_atom_site_fract_y
_atom_site_fract_z
Zn1 Zn 0.34131(3) 0.68665(6) 1.02084(6)
N1 N 0.2233(2) 0.7526(5) 0.9820(4)
C1 C 0.0573(3) 0.8142(5) 0.9123(5)
C2 C 0.0820(3) 0.6924(5) 0.9969(5)
H1 H 0.0430 0.6294 1.0325
C3 C 0.1635(3) 0.6647(6) 1.0280(5)
H2 H 0.1784 0.5813 1.0836
C4 C 0.1992(3) 0.8734(6) 0.9045(5)
H3 H 0.2393 0.9371 0.8736
C5 C 0.1192(3) 0.9082(5) 0.8682(5)
H4 H 0.1059 0.9938 0.8146
N2 N -0.1561(3) 0.7919(5) 0.8372(5)
H5 H -0.2025 0.7466 0.8393
C6 C -0.0297(3) 0.8401(5) 0.8676(5)
N3 N -0.0849(3) 0.7342(5) 0.8937(5)
C7 C -0.0660(3) 0.9619(6) 0.7937(5)
H6 H -0.0402 1.0480 0.7624
C8 C -0.1469(3) 0.9277(7) 0.7774(6)
H7 H -0.1880 0.9870 0.7333
O1 O 0.4195(2) 0.8246(4) 0.9418(3)
O2 O 0.3590(2) 0.4837(4) 0.9518(4)
O3 O 0.2878(2) 0.3956(4) 1.1226(4)
C9 C 0.3292(3) 0.3761(6) 1.0208(6)
C10 C 0.3494(5) 0.2163(7) 0.9709(8)
C11 C 0.4183(3) 0.8446(5) 0.8100(5)
C12 C 0.4840(3) 0.9438(7) 0.7551(6)
O4 O 0.3643(2) 0.7841(4) 0.7269(3)
Zn1C Zn 0.34131(3) 0.81335(6) 0.52084(6)
O4C O 0.3643(2) 0.7159(4) 1.2269(3)
loop_
_geom_bond_atom_site_label_1
_geom_bond_atom_site_label_2
_geom_bond_site_symmetry_1
_geom_bond_site_symmetry_2
Zn1 N1 1_555 1_555
N1 C3 1_555 1_555
C1 C2 1_555 1_555
C2 H1 1_555 1_555
C3 C2 1_555 1_555
H2 C3 1_555 1_555
C4 N1 1_555 1_555
H3 C4 1_555 1_555
C5 C1 1_555 1_555
H4 C5 1_555 1_555
N2 H5 1_555 1_555
C6 C1 1_555 1_555
N3 N2 1_555 1_555
C7 C6 1_555 1_555
H6 C7 1_555 1_555
C8 N2 1_555 1_555
H7 C8 1_555 1_555
O1 Zn1 1_555 1_555
O2 Zn1 1_555 1_555
O3 C9 1_555 1_555
C9 O2 1_555 1_555
C10 C9 1_555 1_555
C11 O1 1_555 1_555
C12 C11 1_555 1_555
O4 C11 1_555 1_555
Zn1C O4 1_555 1_555
O4C Zn1 1_555 1_555
C4 C5 1_555 1_555
C6 N3 1_555 1_555
C7 C8 1_555 1_555

#END
