
#######################################################################
#
#                 Cambridge Crystallographic Data Centre
#                                CCDC 
#
#######################################################################
#
# If this CIF has been generated from an entry in the Cambridge 
# Structural Database, then it will include bibliographic, chemical, 
# crystal, experimental, refinement or atomic coordinate data resulting 
# from the CCDC's data processing and validation procedures.
#
#######################################################################

data_YADVAC
_symmetry_cell_setting           orthorhombic
_symmetry_space_group_name_H-M   'P 21 21 21'
_symmetry_Int_Tables_number      19
_space_group_name_Hall           'P 2ac 2ab'
loop_
_symmetry_equiv_pos_site_id
_symmetry_equiv_pos_as_xyz
1 x,y,z
2 1/2-x,-y,1/2+z
3 -x,1/2+y,1/2-z
4 1/2+x,1/2-y,-z
_cell_length_a                   7.737(2)
_cell_length_b                   13.165(4)
_cell_length_c                   16.889(6)
_cell_angle_alpha                90
_cell_angle_beta                 90
_cell_angle_gamma                90
_cell_volume                     1720.27
loop_
_atom_site_label
_atom_site_type_symbol
_atom_site_fract_x
_atom_site_fract_y
_atom_site_fract_z
C1 C 0.0679(2) 0.92359(12) 0.67688(10)
C2 C 0.0859(2) 1.02319(13) 0.70061(11)
H1 H 0.0378 1.0749 0.6703
C3 C 0.1765(2) 1.04734(13) 0.77039(12)
H2 H 0.1895 1.1148 0.7856
C4 C 0.2450(3) 0.97166(13) 0.81555(10)
H3 H 0.3025 0.9878 0.8622
C5 C 0.2298(2) 0.86831(12) 0.79230(10)
C6 C 0.14000(19) 0.84231(11) 0.72185(10)
C7 C 0.3021(2) 0.79245(15) 0.84132(11)
H4 H 0.3452 0.8149 0.8897
C8 C -0.0953(3) 0.96653(15) 0.56154(13)
H5 H -0.1781 1.0034 0.5926
H6 H -0.1529 0.9341 0.5180
H7 H -0.0095 1.0126 0.5416
C9 C 0.0758(2) 0.44760(12) 0.54819(9)
C10 C 0.0625(3) 0.34687(13) 0.52792(12)
H8 H 0.0032 0.3281 0.4823
C11 C 0.1387(3) 0.27166(13) 0.57635(13)
H9 H 0.1292 0.2036 0.5622
C12 C 0.2248(3) 0.29714(13) 0.64274(12)
H10 H 0.2738 0.2466 0.6740
C13 C 0.2416(3) 0.40139(11) 0.66559(10)
C14 C 0.1682(2) 0.47851(12) 0.61750(9)
C15 C 0.3276(2) 0.42379(13) 0.73717(11)
H11 H 0.3728 0.3688 0.7648
C16 C -0.0964(3) 0.50378(17) 0.43943(13)
H12 H -0.0241 0.4728 0.4000
H13 H -0.1458 0.5650 0.4185
H14 H -0.1872 0.4577 0.4538
Cu1 Cu 0.25742(3) 0.636953(13) 0.726538(11)
N1 N 0.5362(2) 0.72115(11) 0.60308(10)
Na1 Na 0.03464(14) 0.71081(6) 0.56511(5)
O1 O -0.01427(18) 0.89168(9) 0.60950(8)
O2 O 0.11760(15) 0.74989(9) 0.69651(7)
O3 O 0.31612(18) 0.69909(10) 0.82857(8)
O4 O 0.00468(16) 0.52733(9) 0.50775(7)
O5 O 0.17851(16) 0.57479(8) 0.63174(7)
O6 O 0.34982(16) 0.50983(9) 0.76779(8)
O7 O 0.51745(17) 0.70304(11) 0.67537(8)
O8 O 0.4100(2) 0.74389(12) 0.56117(8)
O9 O 0.6790(2) 0.7162(2) 0.57232(13)
Na1C Na 0.53464(14) 0.78919(6) 0.43489(5)
Na1_2 Na 1.03464(14) 0.71081(6) 0.56511(5)
O8C O -0.0900(2) 0.75611(12) 0.43883(8)
O9_2 O -0.3210(2) 0.7162(2) 0.57232(13)
O9C O 0.1790(2) 0.7838(2) 0.42768(13)
loop_
_geom_bond_atom_site_label_1
_geom_bond_atom_site_label_2
_geom_bond_site_symmetry_1
_geom_bond_site_symmetry_2
C1 C2 1_555 1_555
C2 H1 1_555 1_555
C3 C2 1_555 1_555
H2 C3 1_555 1_555
C4 C3 1_555 1_555
H3 C4 1_555 1_555
C5 C4 1_555 1_555
C6 C1 1_555 1_555
C7 C5 1_555 1_555
H4 C7 1_555 1_555
C8 H5 1_555 1_555
H6 C8 1_555 1_555
H7 C8 1_555 1_555
C9 C10 1_555 1_555
C10 H8 1_555 1_555
C11 C10 1_555 1_555
H9 C11 1_555 1_555
C12 C11 1_555 1_555
H10 C12 1_555 1_555
C13 C12 1_555 1_555
C14 C9 1_555 1_555
C15 C13 1_555 1_555
H11 C15 1_555 1_555
C16 H12 1_555 1_555
H13 C16 1_555 1_555
H14 C16 1_555 1_555
Cu1 O2 1_555 1_555
N1 O7 1_555 1_555
Na1 O1 1_555 1_555
O1 C1 1_555 1_555
O2 C6 1_555 1_555
O3 C7 1_555 1_555
O4 C9 1_555 1_555
O5 C14 1_555 1_555
O6 C15 1_555 1_555
O7 Cu1 1_555 1_555
O8 N1 1_555 1_555
O9 N1 1_555 1_555
Na1C O8 1_555 1_555
Na1_2 O9 1_555 1_555
O8C Na1 1_555 1_555
O9_2 Na1 1_555 1_555
O9C Na1 1_555 1_555
C5 C6 1_555 1_555
C8 O1 1_555 1_555
C13 C14 1_555 1_555
C16 O4 1_555 1_555
Cu1 O3 1_555 1_555
Cu1 O5 1_555 1_555
Cu1 O6 1_555 1_555
Na1 O2 1_555 1_555
Na1 O4 1_555 1_555
Na1 O5 1_555 1_555
Na1 O8 1_555 1_555
O9 Na1C 1_555 1_555
Na1C O9C 1_555 1_555

#END
