
#######################################################################
#
#                 Cambridge Crystallographic Data Centre
#                                CCDC 
#
#######################################################################
#
# If this CIF has been generated from an entry in the Cambridge 
# Structural Database, then it will include bibliographic, chemical, 
# crystal, experimental, refinement or atomic coordinate data resulting 
# from the CCDC's data processing and validation procedures.
#
#######################################################################

data_YADWAD
_symmetry_cell_setting           monoclinic
_symmetry_space_group_name_H-M   'P 21/n'
_symmetry_Int_Tables_number      14
_space_group_name_Hall           '-P 2yn'
loop_
_symmetry_equiv_pos_site_id
_symmetry_equiv_pos_as_xyz
1 x,y,z
2 1/2-x,1/2+y,1/2-z
3 -x,-y,-z
4 1/2+x,1/2-y,1/2+z
_cell_length_a                   7.5478(9)
_cell_length_b                   15.8275(17)
_cell_length_c                   22.229(3)
_cell_angle_alpha                90
_cell_angle_beta                 99.7270(10)
_cell_angle_gamma                90
_cell_volume                     2617.36
loop_
_atom_site_label
_atom_site_type_symbol
_atom_site_fract_x
_atom_site_fract_y
_atom_site_fract_z
Ag1 Ag 0.67725(4) 0.369866(19) 0.563731(15)
P1 P 0.84677(14) 0.23813(6) 0.56205(5)
P2 P 1.53770(14) 0.35222(6) 0.65884(5)
S1 S 0.82981(18) 0.51569(8) 0.57515(8)
N1 N 0.5431(6) 0.6134(3) 0.51878(19)
C1 C 0.6602(7) 0.5719(3) 0.5414(2)
C2 C 1.0481(5) 0.2237(2) 0.61989(17)
H1 H 1.0149 0.2270 0.6601
H2 H 1.0970 0.1678 0.6154
C3 C 1.1935(5) 0.2899(2) 0.61504(18)
H3 H 1.2256 0.2877 0.5746
H4 H 1.1468 0.3458 0.6209
C4 C 1.3605(5) 0.2739(2) 0.66287(17)
H5 H 1.4067 0.2179 0.6568
H6 H 1.3276 0.2756 0.7032
C5 C 0.9279(5) 0.2047(2) 0.49304(17)
C6 C 0.9994(6) 0.2658(3) 0.46022(18)
H7 H 0.9932 0.3223 0.4712
C7 C 1.0802(7) 0.2442(3) 0.4110(2)
H8 H 1.1306 0.2859 0.3898
C8 C 1.0861(7) 0.1617(3) 0.3936(2)
H9 H 1.1424 0.1471 0.3609
C9 C 1.0091(6) 0.1002(3) 0.4243(2)
H10 H 1.0096 0.0442 0.4116
C10 C 0.9309(5) 0.1216(3) 0.47387(18)
H11 H 0.8795 0.0798 0.4947
C11 C 0.6995(5) 0.1523(2) 0.57727(17)
C12 C 0.5367(6) 0.1429(3) 0.5382(2)
H12 H 0.5077 0.1790 0.5050
C13 C 0.4176(6) 0.0806(4) 0.5481(2)
H13 H 0.3098 0.0743 0.5213
C14 C 0.4571(7) 0.0281(3) 0.5973(3)
H14 H 0.3768 -0.0142 0.6037
C15 C 0.6145(7) 0.0377(3) 0.6370(2)
H15 H 0.6407 0.0026 0.6709
C16 C 0.7344(6) 0.0994(3) 0.6269(2)
H16 H 0.8414 0.1055 0.6542
C17 C 1.4373(5) 0.4470(2) 0.68533(19)
C18 C 1.3580(6) 0.5036(3) 0.6417(2)
H17 H 1.3670 0.4949 0.6009
C19 C 1.2658(7) 0.5725(3) 0.6579(3)
H18 H 1.2119 0.6099 0.6280
C20 C 1.2531(7) 0.5864(3) 0.7180(3)
H19 H 1.1897 0.6327 0.7290
C21 C 1.3336(7) 0.5319(3) 0.7613(2)
H20 H 1.3265 0.5416 0.8021
C22 C 1.4260(6) 0.4621(3) 0.7455(2)
H21 H 1.4806 0.4253 0.7756
C23 C 1.7159(5) 0.3225(2) 0.72144(18)
C24 C 1.8650(6) 0.3745(3) 0.7347(2)
H22 H 1.8677 0.4252 0.7136
C25 C 2.0084(6) 0.3527(3) 0.7782(2)
H23 H 2.1065 0.3889 0.7866
C26 C 2.0090(7) 0.2786(4) 0.8094(2)
H24 H 2.1063 0.2645 0.8392
C27 C 1.8650(7) 0.2248(3) 0.7963(2)
H25 H 1.8660 0.1735 0.8168
C28 C 1.7187(6) 0.2465(3) 0.75300(19)
H26 H 1.6212 0.2099 0.7448
Ag1_2 Ag 1.67725(4) 0.369866(19) 0.563731(15)
Ag1B Ag 0.32275(4) 0.630134(19) 0.436269(15)
P2_2 P 0.53770(14) 0.35222(6) 0.65884(5)
N1B N 0.4569(6) 0.3866(3) 0.48122(19)
loop_
_geom_bond_atom_site_label_1
_geom_bond_atom_site_label_2
_geom_bond_site_symmetry_1
_geom_bond_site_symmetry_2
Ag1 P1 1_555 1_555
P1 C2 1_555 1_555
P2 C4 1_555 1_555
S1 Ag1 1_555 1_555
N1 C1 1_555 1_555
C1 S1 1_555 1_555
C2 H1 1_555 1_555
H2 C2 1_555 1_555
C3 C2 1_555 1_555
H3 C3 1_555 1_555
H4 C3 1_555 1_555
C4 C3 1_555 1_555
H5 C4 1_555 1_555
H6 C4 1_555 1_555
C5 P1 1_555 1_555
C6 C5 1_555 1_555
H7 C6 1_555 1_555
C7 C6 1_555 1_555
H8 C7 1_555 1_555
C8 C7 1_555 1_555
H9 C8 1_555 1_555
C9 C8 1_555 1_555
H10 C9 1_555 1_555
C10 C5 1_555 1_555
H11 C10 1_555 1_555
C11 P1 1_555 1_555
C12 C11 1_555 1_555
H12 C12 1_555 1_555
C13 C12 1_555 1_555
H13 C13 1_555 1_555
C14 C13 1_555 1_555
H14 C14 1_555 1_555
C15 C14 1_555 1_555
H15 C15 1_555 1_555
C16 C11 1_555 1_555
H16 C16 1_555 1_555
C17 P2 1_555 1_555
C18 C17 1_555 1_555
H17 C18 1_555 1_555
C19 C18 1_555 1_555
H18 C19 1_555 1_555
C20 C19 1_555 1_555
H19 C20 1_555 1_555
C21 C20 1_555 1_555
H20 C21 1_555 1_555
C22 C17 1_555 1_555
H21 C22 1_555 1_555
C23 P2 1_555 1_555
C24 C23 1_555 1_555
H22 C24 1_555 1_555
C25 C24 1_555 1_555
H23 C25 1_555 1_555
C26 C25 1_555 1_555
H24 C26 1_555 1_555
C27 C26 1_555 1_555
H25 C27 1_555 1_555
C28 C23 1_555 1_555
H26 C28 1_555 1_555
Ag1_2 P2 1_555 1_555
Ag1B N1 1_555 1_555
P2_2 Ag1 1_555 1_555
N1B Ag1 1_555 1_555
C9 C10 1_555 1_555
C15 C16 1_555 1_555
C21 C22 1_555 1_555
C27 C28 1_555 1_555

#END
