
#######################################################################
#
#                 Cambridge Crystallographic Data Centre
#                                CCDC 
#
#######################################################################
#
# If this CIF has been generated from an entry in the Cambridge 
# Structural Database, then it will include bibliographic, chemical, 
# crystal, experimental, refinement or atomic coordinate data resulting 
# from the CCDC's data processing and validation procedures.
#
#######################################################################

data_YAFFAO
_symmetry_cell_setting           rhombohedral
_symmetry_space_group_name_H-M   'R -3'
_symmetry_Int_Tables_number      148
_space_group_name_Hall           '-R 3'
loop_
_symmetry_equiv_pos_site_id
_symmetry_equiv_pos_as_xyz
1 x,y,z
2 -y,x-y,z
3 -x+y,-x,z
4 2/3+x,1/3+y,1/3+z
5 2/3-y,1/3+x-y,1/3+z
6 2/3-x+y,1/3-x,1/3+z
7 1/3+x,2/3+y,2/3+z
8 1/3-y,2/3+x-y,2/3+z
9 1/3-x+y,2/3-x,2/3+z
10 -x,-y,-z
11 y,-x+y,-z
12 x-y,x,-z
13 1/3-x,2/3-y,2/3-z
14 1/3+y,2/3-x+y,2/3-z
15 1/3+x-y,2/3+x,2/3-z
16 2/3-x,1/3-y,1/3-z
17 2/3+y,1/3-x+y,1/3-z
18 2/3+x-y,1/3+x,1/3-z
_cell_length_a                   28.6702(5)
_cell_length_b                   28.6702(5)
_cell_length_c                   9.0146(2)
_cell_angle_alpha                90
_cell_angle_beta                 90
_cell_angle_gamma                120
_cell_volume                     6417.1
loop_
_atom_site_label
_atom_site_type_symbol
_atom_site_fract_x
_atom_site_fract_y
_atom_site_fract_z
Pb1 Pb 0.172066(4) 0.851864(4) 1.061072(10)
O1 O 0.09837(8) 0.86813(8) 1.0476(2)
O2 O 0.25307(7) 0.88497(8) 1.19856(19)
N1 N 0.17051(9) 0.89277(9) 1.2955(2)
N2 N 0.21170(9) 0.90223(9) 1.3966(2)
N3 N 0.39001(9) 0.94432(9) 1.6044(2)
C1 C 0.07467(11) 0.88735(11) 1.1315(3)
C2 C 0.03012(11) 0.89079(11) 1.0785(3)
H2 H 0.0177 0.8792 0.9803
C3 C 0.00415(12) 0.91040(12) 1.1650(3)
H3 H -0.0252 0.9129 1.1248
C4 C 0.02038(12) 0.92671(13) 1.3109(3)
H4 H 0.0025 0.9403 1.3702
C5 C 0.06267(12) 0.92271(12) 1.3669(3)
H5 H 0.0733 0.9330 1.4669
C6 C 0.09089(11) 0.90384(11) 1.2809(3)
C7 C 0.13591(11) 0.90432(11) 1.3515(3)
H6 H 0.1411 0.9145 1.4531
C8 C 0.25097(10) 0.89833(10) 1.3328(3)
C9 C 0.38059(11) 0.91341(11) 1.4841(3)
H7 H 0.4057 0.9022 1.4592
C10 C 0.33565(10) 0.89697(10) 1.3940(3)
H8 H 0.3306 0.8756 1.3084
C11 C 0.29821(10) 0.91231(10) 1.4312(3)
C12 C 0.30750(11) 0.94353(11) 1.5581(3)
H9 H 0.2822 0.9539 1.5884
C13 C 0.35383(12) 0.95919(12) 1.6392(3)
H10 H 0.3604 0.9815 1.7235
Pb1G Pb 0.481469(4) 0.986869(6) 1.727739(10)
N3E N 0.22098(13) 0.94332(9) 0.9377(2)
O3 O 0.08109(8) 0.83045(11) 0.7716(2)
H1 H 0.0854 0.8444 0.8561
C14 C 0.02725(13) 0.81018(16) 0.7254(4)
H11 H 0.0034 0.7974 0.8120
H12 H 0.0171 0.7802 0.6562
H13 H 0.0239 0.8388 0.6759
loop_
_geom_bond_atom_site_label_1
_geom_bond_atom_site_label_2
_geom_bond_site_symmetry_1
_geom_bond_site_symmetry_2
Pb1 O1 1_555 1_555
O1 C1 1_555 1_555
O2 Pb1 1_555 1_555
O3 H1 1_555 1_555
N1 Pb1 1_555 1_555
N2 N1 1_555 1_555
N3 C9 1_555 1_555
C1 C2 1_555 1_555
C2 H2 1_555 1_555
C3 C2 1_555 1_555
H3 C3 1_555 1_555
C4 C3 1_555 1_555
H4 C4 1_555 1_555
C5 C4 1_555 1_555
H5 C5 1_555 1_555
C6 C1 1_555 1_555
C7 N1 1_555 1_555
H6 C7 1_555 1_555
C8 O2 1_555 1_555
C9 H7 1_555 1_555
C10 C9 1_555 1_555
H8 C10 1_555 1_555
C11 C8 1_555 1_555
C12 C11 1_555 1_555
H9 C12 1_555 1_555
C13 N3 1_555 1_555
H10 C13 1_555 1_555
C14 O3 1_555 1_555
H11 C14 1_555 1_555
H12 C14 1_555 1_555
H13 C14 1_555 1_555
Pb1G N3 1_555 1_555
N3E Pb1 1_555 1_555
N2 C8 1_555 1_555
C5 C6 1_555 1_555
C6 C7 1_555 1_555
C10 C11 1_555 1_555
C12 C13 1_555 1_555

#END
