
#######################################################################
#
#                 Cambridge Crystallographic Data Centre
#                                CCDC 
#
#######################################################################
#
# If this CIF has been generated from an entry in the Cambridge 
# Structural Database, then it will include bibliographic, chemical, 
# crystal, experimental, refinement or atomic coordinate data resulting 
# from the CCDC's data processing and validation procedures.
#
#######################################################################

data_YAFJAS
_symmetry_cell_setting           monoclinic
_symmetry_space_group_name_H-M   'P 21/c'
_symmetry_Int_Tables_number      14
_space_group_name_Hall           '-P 2ybc'
loop_
_symmetry_equiv_pos_site_id
_symmetry_equiv_pos_as_xyz
1 x,y,z
2 -x,1/2+y,1/2-z
3 -x,-y,-z
4 x,1/2-y,1/2+z
_cell_length_a                   14.730(2)
_cell_length_b                   5.4063(8)
_cell_length_c                   20.983(3)
_cell_angle_alpha                90
_cell_angle_beta                 106.620(2)
_cell_angle_gamma                90
_cell_volume                     1601.17
loop_
_atom_site_label
_atom_site_type_symbol
_atom_site_fract_x
_atom_site_fract_y
_atom_site_fract_z
Zn1 Zn 0.37549(2) 0.04095(6) 0.273648(16)
O1 O 0.33632(13) -0.1912(4) 0.33490(10)
O2 O 0.04795(17) -0.1639(6) 0.32481(16)
O3 O 0.35695(13) 0.1914(4) 0.16947(9)
O4 O 0.45124(12) -0.1779(3) 0.23378(9)
O5 O 0.54232(13) -0.2163(4) 0.16671(9)
N1 N 0.18798(16) -0.0372(4) 0.28074(13)
N2 N 0.23483(15) 0.1069(4) 0.24511(11)
C1 C 0.2011(2) -0.3599(5) 0.35985(14)
C2 C 0.1069(2) -0.3391(7) 0.35924(17)
C3 C 0.0705(3) -0.5039(8) 0.3972(2)
H1 H 0.0084 -0.4860 0.3988
C4 C 0.1252(3) -0.6905(7) 0.43192(19)
H2 H 0.0998 -0.8000 0.4564
C5 C 0.2174(3) -0.7179(6) 0.43094(17)
H3 H 0.2541 -0.8471 0.4541
C6 C 0.2553(3) -0.5528(5) 0.39543(16)
H4 H 0.3181 -0.5705 0.3952
C7 C 0.24582(19) -0.1871(5) 0.32341(13)
C8 C 0.1840(2) 0.2634(5) 0.20485(14)
H5 H 0.1218 0.2832 0.2061
C9 C 0.2143(2) 0.4136(5) 0.15722(14)
C10 C 0.29665(18) 0.3766(5) 0.13731(13)
C11 C 0.3143(2) 0.5182(5) 0.08720(15)
H6 H 0.3689 0.4913 0.0743
C12 C 0.2508(2) 0.6998(5) 0.05635(15)
H7 H 0.2627 0.7940 0.0225
C13 C 0.1696(2) 0.7423(6) 0.07554(16)
H8 H 0.1275 0.8663 0.0552
C14 C 0.1519(2) 0.5995(6) 0.12493(17)
H9 H 0.0969 0.6274 0.1372
C15 C 0.42785(19) 0.1002(5) 0.14144(14)
H10 H 0.4731 0.2296 0.1406
H11 H 0.3992 0.0441 0.0962
C16 C 0.47695(18) -0.1127(5) 0.18446(13)
H14 H 0.074(3) -0.090(7) 0.305(2)
Zn1A Zn 0.62451(2) -0.45905(6) 0.226352(16)
O5A O 0.45768(13) 0.2837(4) 0.33329(9)
O6 O 0.4589(3) 0.7641(10) 0.47903(19)
H12 H 0.4249 0.7787 0.4396
H13 H 0.5164 0.7397 0.4823
loop_
_geom_bond_atom_site_label_1
_geom_bond_atom_site_label_2
_geom_bond_site_symmetry_1
_geom_bond_site_symmetry_2
Zn1 O1 1_555 1_555
O1 C7 1_555 1_555
O2 C2 1_555 1_555
O3 Zn1 1_555 1_555
O4 Zn1 1_555 1_555
O5 C16 1_555 1_555
N1 N2 1_555 1_555
N2 Zn1 1_555 1_555
C1 C2 1_555 1_555
C2 C3 1_555 1_555
C3 H1 1_555 1_555
C4 C3 1_555 1_555
H2 C4 1_555 1_555
C5 C4 1_555 1_555
H3 C5 1_555 1_555
C6 C1 1_555 1_555
H4 C6 1_555 1_555
C7 N1 1_555 1_555
C8 N2 1_555 1_555
H5 C8 1_555 1_555
C9 C8 1_555 1_555
C10 O3 1_555 1_555
C11 C10 1_555 1_555
H6 C11 1_555 1_555
C12 C11 1_555 1_555
H7 C12 1_555 1_555
C13 C12 1_555 1_555
H8 C13 1_555 1_555
C14 C9 1_555 1_555
H9 C14 1_555 1_555
C15 O3 1_555 1_555
H10 C15 1_555 1_555
H11 C15 1_555 1_555
C16 O4 1_555 1_555
O6 H12 1_555 1_555
H13 O6 1_555 1_555
H14 O2 1_555 1_555
Zn1A O5 1_555 1_555
O5A Zn1 1_555 1_555
C1 C7 1_555 1_555
C5 C6 1_555 1_555
C9 C10 1_555 1_555
C13 C14 1_555 1_555
C15 C16 1_555 1_555

#END
