
#######################################################################
#
#                 Cambridge Crystallographic Data Centre
#                                CCDC 
#
#######################################################################
#
# If this CIF has been generated from an entry in the Cambridge 
# Structural Database, then it will include bibliographic, chemical, 
# crystal, experimental, refinement or atomic coordinate data resulting 
# from the CCDC's data processing and validation procedures.
#
#######################################################################

data_YAFKEX
_symmetry_cell_setting           monoclinic
_symmetry_space_group_name_H-M   'P 21/c'
_symmetry_Int_Tables_number      14
_space_group_name_Hall           '-P 2ybc'
loop_
_symmetry_equiv_pos_site_id
_symmetry_equiv_pos_as_xyz
1 x,y,z
2 -x,1/2+y,1/2-z
3 -x,-y,-z
4 x,1/2-y,1/2+z
_cell_length_a                   6.0585(9)
_cell_length_b                   23.544(3)
_cell_length_c                   8.3308(9)
_cell_angle_alpha                90
_cell_angle_beta                 118.787(8)
_cell_angle_gamma                90
_cell_volume                     1041.46
loop_
_atom_site_label
_atom_site_type_symbol
_atom_site_fract_x
_atom_site_fract_y
_atom_site_fract_z
C1 C 0.2430(14) 0.8769(3) 0.3235(9)
H1 H 0.1239 0.8731 0.3710
C2 C 0.0977(14) 0.9021(3) 0.1294(9)
H2 H 0.0117 0.9360 0.1402
C3 C 0.2681(16) 0.9226(4) 0.0541(11)
H3 H 0.1677 0.9430 -0.0595
H4 H 0.3423 0.8900 0.0268
C4 C 0.4788(18) 0.9615(4) 0.1884(13)
H5 H 0.5925 0.9702 0.1405
H6 H 0.4067 0.9969 0.2011
C5 C 0.6240(16) 0.9336(4) 0.3738(12)
H7 H 0.7527 0.9594 0.4574
H8 H 0.7071 0.8998 0.3625
C6 C 0.4523(17) 0.9175(3) 0.4512(11)
H9 H 0.3772 0.9516 0.4694
H10 H 0.5506 0.8994 0.5694
C7 C 0.3489(12) 0.8179(3) 0.3255(9)
C8 C -0.1078(14) 0.8624(3) 0.0000(10)
Cd1 Cd 0.52611(10) 0.71211(2) 0.27582(7)
O1 O 0.4616(10) 0.7907(2) 0.4755(7)
O2 O 0.3166(11) 0.7961(2) 0.1782(7)
O3 O -0.2409(10) 0.8354(2) 0.0540(7)
O4 O -0.1527(11) 0.8576(3) -0.1638(7)
O5 O 0.1442(11) 0.6699(3) 0.1849(8)
H11 H 0.0396 0.6864 0.0873
H12 H 0.0655 0.6580 0.2390
O6 O 0.8811(10) 0.7702(2) 0.3509(7)
H13 H 0.8529 0.7914 0.2610
H14 H 0.9968 0.7461 0.3832
Cd1C Cd 0.52611(10) 0.78789(2) 0.77582(7)
Cd1C_2 Cd -0.47389(10) 0.78789(2) -0.22418(7)
O1C O 0.4616(10) 0.7093(2) -0.0245(7)
O3C O 0.7591(10) 0.6646(2) 0.5540(7)
O4C O 0.8473(11) 0.6424(3) 0.3362(7)
loop_
_geom_bond_atom_site_label_1
_geom_bond_atom_site_label_2
_geom_bond_site_symmetry_1
_geom_bond_site_symmetry_2
C1 H1 1_555 1_555
C2 C1 1_555 1_555
H2 C2 1_555 1_555
C3 C2 1_555 1_555
H3 C3 1_555 1_555
H4 C3 1_555 1_555
C4 C3 1_555 1_555
H5 C4 1_555 1_555
H6 C4 1_555 1_555
C5 C4 1_555 1_555
H7 C5 1_555 1_555
H8 C5 1_555 1_555
C6 C1 1_555 1_555
H9 C6 1_555 1_555
H10 C6 1_555 1_555
C7 C1 1_555 1_555
C8 C2 1_555 1_555
Cd1 O1 1_555 1_555
O1 C7 1_555 1_555
O2 C7 1_555 1_555
O3 C8 1_555 1_555
O4 C8 1_555 1_555
O5 Cd1 1_555 1_555
H11 O5 1_555 1_555
H12 O5 1_555 1_555
O6 Cd1 1_555 1_555
H13 O6 1_555 1_555
H14 O6 1_555 1_555
Cd1C O1 1_555 1_555
Cd1C_2 O3 1_555 1_555
O1C Cd1 1_555 1_555
O3C Cd1 1_555 1_555
O4C Cd1 1_555 1_555
C5 C6 1_555 1_555
Cd1 O2 1_555 1_555
O4 Cd1C_2 1_555 1_555

#END
