
#######################################################################
#
#                 Cambridge Crystallographic Data Centre
#                                CCDC 
#
#######################################################################
#
# If this CIF has been generated from an entry in the Cambridge 
# Structural Database, then it will include bibliographic, chemical, 
# crystal, experimental, refinement or atomic coordinate data resulting 
# from the CCDC's data processing and validation procedures.
#
#######################################################################

data_YAFQIH
_symmetry_cell_setting           monoclinic
_symmetry_space_group_name_H-M   'C 2/c'
_symmetry_Int_Tables_number      15
_space_group_name_Hall           '-C 2yn'
loop_
_symmetry_equiv_pos_site_id
_symmetry_equiv_pos_as_xyz
1 x,y,z
2 -x,y,1/2-z
3 1/2+x,1/2+y,z
4 1/2-x,1/2+y,1/2-z
5 -x,-y,-z
6 x,-y,1/2+z
7 1/2-x,1/2-y,-z
8 1/2+x,1/2-y,1/2+z
_cell_length_a                   26.1947(17)
_cell_length_b                   9.7258(5)
_cell_length_c                   21.2247(14)
_cell_angle_alpha                90
_cell_angle_beta                 127.4110(10)
_cell_angle_gamma                90
_cell_volume                     4295.01
loop_
_atom_site_label
_atom_site_type_symbol
_atom_site_fract_x
_atom_site_fract_y
_atom_site_fract_z
Cd1 Cd 0.576743(12) 0.54986(2) 0.356955(13)
O1 O 0.58387(13) 0.7247(2) 0.43196(14)
O2 O 0.53633(12) 1.4416(2) 0.71597(14)
N1 N 0.55605(13) 0.3153(3) 0.35361(14)
N2 N 0.66457(14) 0.4227(3) 0.38232(16)
O3 O 0.60664(16) 1.2882(2) 0.80000(16)
O4 O 0.63552(15) 0.5452(3) 0.50456(15)
C1 C 0.63079(16) 0.9542(3) 0.62890(18)
C2 C 0.7643(2) 0.2526(5) 0.4166(2)
H1 H 0.7980 0.1969 0.4287
C3 C 0.50313(17) 0.2623(4) 0.33813(19)
H2 H 0.4707 0.3218 0.3267
C4 C 0.61051(15) 0.8739(3) 0.56284(18)
H3 H 0.5779 0.9068 0.5125
C5 C 0.60253(15) 1.1531(3) 0.67908(18)
H4 H 0.6193 1.1044 0.7256
C6 C 0.66020(16) 0.2840(3) 0.38477(18)
C7 C 0.57685(16) 1.2827(3) 0.66989(18)
C8 C 0.60382(15) 1.0940(3) 0.62004(18)
C9 C 0.70931(19) 0.1938(4) 0.4015(2)
C10 C 0.60325(16) 0.2285(3) 0.37016(17)
C11 C 0.71735(19) 0.4739(4) 0.3960(2)
H5 H 0.7207 0.5686 0.3937
C12 C 0.61750(17) 0.6662(3) 0.4976(2)
C13 C 0.63737(18) 0.7474(4) 0.5699(2)
C14 C 0.7685(2) 0.3906(5) 0.4137(2)
H6 H 0.8049 0.4303 0.4234
C15 C 0.5534(2) 1.3575(4) 0.6021(2)
H7 H 0.5363 1.4447 0.5957
C16 C 0.57283(18) 1.3394(3) 0.7327(2)
C17 C 0.5556(2) 1.3028(4) 0.5438(2)
H8 H 0.5407 1.3539 0.4986
C18 C 0.5397(2) 0.0336(4) 0.3544(2)
H9 H 0.5336 -0.0606 0.3544
C19 C 0.57985(18) 1.1717(4) 0.5526(2)
H10 H 0.5801 1.1351 0.5123
C20 C 0.4936(2) 0.1214(4) 0.3381(2)
H11 H 0.4555 0.0885 0.3270
C21 C 0.6478(2) -0.0034(4) 0.3886(2)
H12 H 0.6439 -0.0982 0.3901
C22 C 0.6841(3) 0.6979(5) 0.6435(3)
H13 H 0.7014 0.6111 0.6491
C23 C 0.59693(19) 0.0839(3) 0.37142(19)
C24 C 0.6786(2) 0.9026(5) 0.7021(2)
H14 H 0.6926 0.9536 0.7470
C25 C 0.7065(3) 0.7767(6) 0.7108(3)
H15 H 0.7399 0.7446 0.7610
C26 C 0.7008(2) 0.0496(4) 0.4026(2)
H16 H 0.7332 -0.0095 0.4135
Cd1D Cd 0.423257(12) 1.45014(2) 0.643045(13)
Cd1E Cd 0.576743(12) 1.45014(2) 0.856955(13)
O2D O 0.46367(12) 0.5584(2) 0.28403(14)
O2E O 0.53633(12) 0.5584(2) 0.21597(14)
O3E O 0.60664(16) 0.7118(2) 0.30000(16)
loop_
_geom_bond_atom_site_label_1
_geom_bond_atom_site_label_2
_geom_bond_site_symmetry_1
_geom_bond_site_symmetry_2
Cd1 O1 1_555 1_555
O1 C12 1_555 1_555
O2 C16 1_555 1_555
N1 Cd1 1_555 1_555
N2 Cd1 1_555 1_555
O3 C16 1_555 1_555
O4 Cd1 1_555 1_555
C1 C4 1_555 1_555
C2 H1 1_555 1_555
C3 N1 1_555 1_555
H2 C3 1_555 1_555
C4 H3 1_555 1_555
C5 H4 1_555 1_555
C6 N2 1_555 1_555
C7 C5 1_555 1_555
C8 C1 1_555 1_555
C9 C2 1_555 1_555
C10 N1 1_555 1_555
C11 N2 1_555 1_555
H5 C11 1_555 1_555
C12 O4 1_555 1_555
C13 C4 1_555 1_555
C14 C2 1_555 1_555
H6 C14 1_555 1_555
C15 C7 1_555 1_555
H7 C15 1_555 1_555
C16 C7 1_555 1_555
C17 C15 1_555 1_555
H8 C17 1_555 1_555
C18 H9 1_555 1_555
C19 C8 1_555 1_555
H10 C19 1_555 1_555
C20 C3 1_555 1_555
H11 C20 1_555 1_555
C21 H12 1_555 1_555
C22 C13 1_555 1_555
H13 C22 1_555 1_555
C23 C10 1_555 1_555
C24 C1 1_555 1_555
H14 C24 1_555 1_555
C25 C22 1_555 1_555
H15 C25 1_555 1_555
C26 C9 1_555 1_555
H16 C26 1_555 1_555
Cd1D O2 1_555 1_555
Cd1E O2 1_555 1_555
O2D Cd1 1_555 1_555
O2E Cd1 1_555 1_555
O3E Cd1 1_555 1_555
O3 Cd1E 1_555 1_555
C5 C8 1_555 1_555
C6 C9 1_555 1_555
C6 C10 1_555 1_555
C11 C14 1_555 1_555
C12 C13 1_555 1_555
C17 C19 1_555 1_555
C18 C20 1_555 1_555
C18 C23 1_555 1_555
C21 C23 1_555 1_555
C21 C26 1_555 1_555
C24 C25 1_555 1_555

#END
