
#######################################################################
#
#                 Cambridge Crystallographic Data Centre
#                                CCDC 
#
#######################################################################
#
# If this CIF has been generated from an entry in the Cambridge 
# Structural Database, then it will include bibliographic, chemical, 
# crystal, experimental, refinement or atomic coordinate data resulting 
# from the CCDC's data processing and validation procedures.
#
#######################################################################

data_YAFQAZ
_symmetry_cell_setting           triclinic
_symmetry_space_group_name_H-M   'P -1'
_symmetry_Int_Tables_number      2
_space_group_name_Hall           '-P 1'
loop_
_symmetry_equiv_pos_site_id
_symmetry_equiv_pos_as_xyz
1 x,y,z
2 -x,-y,-z
_cell_length_a                   7.646(5)
_cell_length_b                   10.340(4)
_cell_length_c                   11.375(4)
_cell_angle_alpha                78.751(3)
_cell_angle_beta                 73.436(4)
_cell_angle_gamma                82.882(5)
_cell_volume                     843.19
loop_
_atom_site_label
_atom_site_type_symbol
_atom_site_fract_x
_atom_site_fract_y
_atom_site_fract_z
Ag1 Ag 0.29090(6) 0.17665(4) -0.29686(4)
Ag2 Ag 0.39877(5) 0.41619(4) 0.22945(4)
C1 C -0.1323(5) -0.1138(4) -0.3765(4)
C2 C -0.2275(6) 0.0059(4) -0.3506(4)
C3 C -0.1985(6) 0.0669(4) -0.2601(4)
H1 H -0.2663 0.1448 -0.2411
C4 C -0.0686(6) 0.0115(4) -0.1981(4)
H2 H -0.0493 0.0518 -0.1370
C5 C 0.0332(5) -0.1047(4) -0.2274(4)
C6 C 0.0001(5) -0.1680(4) -0.3129(4)
H3 H 0.0656 -0.2474 -0.3291
C7 C -0.1616(6) -0.1842(5) -0.4712(4)
C8 C 0.3541(6) 0.1792(5) -0.0457(4)
H4 H 0.3830 0.0903 -0.0517
C9 C 0.3716(6) 0.2241(4) 0.0570(4)
H5 H 0.4142 0.1646 0.1171
C10 C 0.2678(6) 0.4298(5) -0.0175(4)
H6 H 0.2345 0.5181 -0.0100
C11 C 0.2525(6) 0.3863(5) -0.1201(5)
H7 H 0.2101 0.4459 -0.1802
C12 C 0.5470(6) 0.3813(5) 0.4676(4)
H8 H 0.5817 0.2972 0.4474
C13 C 0.5893(6) 0.4121(5) 0.5675(4)
H9 H 0.6523 0.3482 0.6129
N1 N 0.2969(5) 0.2599(4) -0.1363(3)
N2 N 0.3295(5) 0.3496(4) 0.0728(4)
N3 N 0.4568(5) 0.4690(4) 0.3978(3)
O1 O 0.3073(6) -0.2729(4) -0.2146(4)
O2 O 0.1208(6) -0.2172(5) -0.0251(4)
O3 O 0.3110(6) -0.0589(4) -0.1628(5)
O4 O -0.3512(4) 0.0688(3) -0.4118(3)
H10 H -0.3588 0.0253 -0.4630
O5 O -0.0833(5) -0.2950(3) -0.4847(3)
O6 O -0.2710(4) -0.1232(3) -0.5340(3)
S1 S 0.20943(15) -0.16850(10) -0.15372(11)
O8 O 0.2451(5) 0.6472(4) 0.1729(4)
H13 H 0.230(8) 0.686(5) 0.100(3)
H14 H 0.128(3) 0.648(3) 0.218(4)
Ag1A Ag -0.29090(6) -0.17665(4) -0.70314(4)
Ag2A Ag 0.60123(5) -0.41619(4) -0.22945(4)
Ag2A_2 Ag 0.60123(5) 0.58381(4) 0.77055(4)
Ag2_2 Ag -0.60123(5) 0.41619(4) -0.77055(4)
Ag2A_3 Ag -0.39877(5) -0.41619(4) -1.22945(4)
C1A C 0.1323(5) 0.1138(4) -0.6235(4)
C2A C 0.2275(6) -0.0059(4) -0.6494(4)
C3A C 0.1985(6) -0.0669(4) -0.7399(4)
H1A H 0.2663 -0.1448 -0.7589
C4A C 0.0686(6) -0.0115(4) -0.8019(4)
H2A H 0.0493 -0.0518 -0.8630
C5A C -0.0332(5) 0.1047(4) -0.7726(4)
C6A C -0.0001(5) 0.1680(4) -0.6871(4)
H3A H -0.0656 0.2474 -0.6709
C7A C 0.1616(6) 0.1842(5) -0.5288(4)
C8A C -0.3541(6) -0.1792(5) -0.9543(4)
H4A H -0.3830 -0.0903 -0.9483
C9A C -0.3716(6) -0.2241(4) -1.0570(4)
H5A H -0.4142 -0.1646 -1.1171
C10A C -0.2678(6) -0.4298(5) -0.9825(4)
H6A H -0.2345 -0.5181 -0.9900
C11A C -0.2525(6) -0.3863(5) -0.8799(5)
H7A H -0.2101 -0.4459 -0.8198
C12A C 0.4530(6) 0.6187(5) 0.5324(4)
H8A H 0.4183 0.7028 0.5526
C13A C 0.4107(6) 0.5879(5) 0.4325(4)
H9A H 0.3477 0.6518 0.3871
N1A N -0.2969(5) -0.2599(4) -0.8637(3)
N2A N -0.3295(5) -0.3496(4) -1.0728(4)
N2A_2 N 0.6705(5) -0.3496(4) -0.0728(4)
N3A N 0.5432(5) 0.5310(4) 0.6022(3)
N3A_2 N 0.5432(5) -0.4690(4) -0.3978(3)
O1A O -0.3073(6) 0.2729(4) -0.7854(4)
O1A_2 O 0.6927(6) 0.2729(4) 0.2146(4)
O2A O -0.1208(6) 0.2172(5) -0.9749(4)
O3A O -0.3110(6) 0.0589(4) -0.8372(5)
O4A O 0.3512(4) -0.0688(3) -0.5882(3)
H10A H 0.3588 -0.0253 -0.5370
O5A O 0.0833(5) 0.2950(3) -0.5153(3)
O6A O 0.2710(4) 0.1232(3) -0.4660(3)
S1A S -0.20943(15) 0.16850(10) -0.84628(11)
O8A O 0.7549(5) -0.6472(4) -0.1729(4)
H13A H 0.770(8) -0.686(5) -0.100(3)
H14A H 0.872(3) -0.648(3) -0.218(4)
O7 O 0.0538(5) 0.4656(4) -0.3518(4)
H11 H 0.072(8) 0.403(5) -0.397(5)
H12 H 0.021(8) 0.542(3) -0.393(5)
loop_
_geom_bond_atom_site_label_1
_geom_bond_atom_site_label_2
_geom_bond_site_symmetry_1
_geom_bond_site_symmetry_2
Ag1 N1 1_555 1_555
Ag2 N2 1_555 1_555
C1 C2 1_555 1_555
C2 C3 1_555 1_555
C3 H1 1_555 1_555
C4 C3 1_555 1_555
H2 C4 1_555 1_555
C5 C4 1_555 1_555
C6 C1 1_555 1_555
H3 C6 1_555 1_555
C7 C1 1_555 1_555
C8 H4 1_555 1_555
C9 C8 1_555 1_555
H5 C9 1_555 1_555
C10 H6 1_555 1_555
C11 C10 1_555 1_555
H7 C11 1_555 1_555
C12 H8 1_555 1_555
C13 C12 1_555 1_555
H9 C13 1_555 1_555
N1 C8 1_555 1_555
N2 C9 1_555 1_555
N3 Ag2 1_555 1_555
O1 S1 1_555 1_555
O2 S1 1_555 1_555
O3 Ag1 1_555 1_555
O4 C2 1_555 1_555
H10 O4 1_555 1_555
O5 C7 1_555 1_555
O6 C7 1_555 1_555
S1 C5 1_555 1_555
O7 H11 1_555 1_555
H12 O7 1_555 1_555
O8 Ag2 1_555 1_555
H13 O8 1_555 1_555
H14 O8 1_555 1_555
Ag1A O6 1_555 1_555
Ag2A O1 1_555 1_555
Ag2A_2 N3A 1_555 1_555
Ag2_2 O1A 1_555 1_555
Ag2A_3 N2A 1_555 1_555
C1A C2A 1_555 1_555
C2A C3A 1_555 1_555
C3A H1A 1_555 1_555
C4A C3A 1_555 1_555
H2A C4A 1_555 1_555
C5A C4A 1_555 1_555
C6A C1A 1_555 1_555
H3A C6A 1_555 1_555
C7A C1A 1_555 1_555
C8A H4A 1_555 1_555
C9A C8A 1_555 1_555
H5A C9A 1_555 1_555
C10A H6A 1_555 1_555
C11A C10A 1_555 1_555
H7A C11A 1_555 1_555
C12A H8A 1_555 1_555
C13A N3 1_555 1_555
H9A C13A 1_555 1_555
N1A Ag1A 1_555 1_555
N2A C9A 1_555 1_555
N2A_2 Ag2A 1_555 1_555
N3A C13 1_555 1_555
N3A_2 Ag2A 1_555 1_555
O1A S1A 1_555 1_555
O1A_2 Ag2 1_555 1_555
O2A S1A 1_555 1_555
O3A Ag1A 1_555 1_555
O4A C2A 1_555 1_555
H10A O4A 1_555 1_555
O5A C7A 1_555 1_555
O6A Ag1 1_555 1_555
S1A C5A 1_555 1_555
O8A Ag2A 1_555 1_555
H13A O8A 1_555 1_555
H14A O8A 1_555 1_555
C5 C6 1_555 1_555
C10 N2 1_555 1_555
C11 N1 1_555 1_555
C12 N3 1_555 1_555
O3 S1 1_555 1_555
C5A C6A 1_555 1_555
C7A O6A 1_555 1_555
C8A N1A 1_555 1_555
C10A N2A 1_555 1_555
C11A N1A 1_555 1_555
C12A C13A 1_555 1_555
C12A N3A 1_555 1_555
O3A S1A 1_555 1_555

#END
