
#######################################################################
#
#                 Cambridge Crystallographic Data Centre
#                                CCDC 
#
#######################################################################
#
# If this CIF has been generated from an entry in the Cambridge 
# Structural Database, then it will include bibliographic, chemical, 
# crystal, experimental, refinement or atomic coordinate data resulting 
# from the CCDC's data processing and validation procedures.
#
#######################################################################

data_YAFRON
_symmetry_cell_setting           monoclinic
_symmetry_space_group_name_H-M   'P 21/n'
_symmetry_Int_Tables_number      14
_space_group_name_Hall           '-P 2yn'
loop_
_symmetry_equiv_pos_site_id
_symmetry_equiv_pos_as_xyz
1 x,y,z
2 1/2+x,1/2-y,1/2+z
3 -x,-y,-z
4 1/2-x,1/2+y,1/2-z
_cell_length_a                   10.1040(15)
_cell_length_b                   10.1294(14)
_cell_length_c                   13.843(2)
_cell_angle_alpha                90
_cell_angle_beta                 99.266(2)
_cell_angle_gamma                90
_cell_volume                     1398.31
loop_
_atom_site_label
_atom_site_type_symbol
_atom_site_fract_x
_atom_site_fract_y
_atom_site_fract_z
Cd1 Cd 1.08665(2) 0.583260(19) 0.208924(14)
N1 N 0.9397(2) 0.6742(2) 0.30870(16)
N2 N 0.9895(2) 0.4143(2) 0.29086(18)
N3 N 0.9171(3) 0.5865(2) 0.0758(2)
N4 N 1.1458(2) 0.7890(2) 0.16434(18)
C1 C 0.9053(3) 0.8023(3) 0.3083(2)
H1 H 0.9481 0.8609 0.2717
C2 C 0.8110(3) 0.8506(3) 0.3587(2)
H2 H 0.7905 0.9402 0.3566
C3 C 0.7468(3) 0.7665(3) 0.4123(3)
H3 H 0.6821 0.7977 0.4473
C4 C 0.7795(3) 0.6341(3) 0.4137(2)
H4 H 0.7363 0.5749 0.4495
C5 C 0.8766(3) 0.5899(3) 0.3618(2)
C6 C 0.9154(3) 0.4488(3) 0.3594(2)
C7 C 0.8787(3) 0.3565(3) 0.4238(2)
H5 H 0.8280 0.3819 0.4710
C8 C 0.9175(3) 0.2269(3) 0.4177(3)
H6 H 0.8949 0.1641 0.4613
C9 C 0.9901(3) 0.1921(3) 0.3461(3)
H7 H 1.0160 0.1049 0.3394
C10 C 1.0238(3) 0.2873(3) 0.2850(2)
H8 H 1.0732 0.2628 0.2367
C11 C 0.8582(3) 0.5816(2) -0.0023(2)
C12 C 1.1654(3) 0.8989(3) 0.1537(2)
S1 S 0.76756(8) 0.57739(8) -0.11222(6)
S2 S 1.19279(8) 1.05819(7) 0.13989(6)
S1B S 1.23244(8) 0.42261(8) 0.11222(6)
S2C S 1.30721(8) 0.55819(7) 0.36011(6)
Cd1B Cd 0.91335(2) 0.416740(19) -0.208924(14)
Cd1C Cd 1.41335(2) 1.083260(19) 0.291076(14)
loop_
_geom_bond_atom_site_label_1
_geom_bond_atom_site_label_2
_geom_bond_site_symmetry_1
_geom_bond_site_symmetry_2
Cd1 N1 1_555 1_555
N1 C1 1_555 1_555
N2 Cd1 1_555 1_555
N3 Cd1 1_555 1_555
N4 Cd1 1_555 1_555
C1 H1 1_555 1_555
C2 C1 1_555 1_555
H2 C2 1_555 1_555
C3 C2 1_555 1_555
H3 C3 1_555 1_555
C4 C3 1_555 1_555
H4 C4 1_555 1_555
C5 N1 1_555 1_555
C6 N2 1_555 1_555
C7 C6 1_555 1_555
H5 C7 1_555 1_555
C8 C7 1_555 1_555
H6 C8 1_555 1_555
C9 C8 1_555 1_555
H7 C9 1_555 1_555
C10 N2 1_555 1_555
H8 C10 1_555 1_555
C11 N3 1_555 1_555
C12 N4 1_555 1_555
S1 C11 1_555 1_555
S2 C12 1_555 1_555
S1B Cd1 1_555 1_555
S2C Cd1 1_555 1_555
Cd1B S1 1_555 1_555
Cd1C S2 1_555 1_555
C4 C5 1_555 1_555
C5 C6 1_555 1_555
C9 C10 1_555 1_555

#END
