
#######################################################################
#
#                 Cambridge Crystallographic Data Centre
#                                CCDC 
#
#######################################################################
#
# If this CIF has been generated from an entry in the Cambridge 
# Structural Database, then it will include bibliographic, chemical, 
# crystal, experimental, refinement or atomic coordinate data resulting 
# from the CCDC's data processing and validation procedures.
#
#######################################################################

data_YAFRAY01
_symmetry_cell_setting           monoclinic
_symmetry_space_group_name_H-M   'I 2/a'
_symmetry_Int_Tables_number      15
_space_group_name_Hall           '-I 2ya'
loop_
_symmetry_equiv_pos_site_id
_symmetry_equiv_pos_as_xyz
1 x,y,z
2 1/2-x,y,-z
3 1/2+x,1/2+y,1/2+z
4 -x,1/2+y,1/2-z
5 -x,-y,-z
6 1/2+x,-y,z
7 1/2-x,1/2-y,1/2-z
8 x,1/2-y,1/2+z
_cell_length_a                   18.936(4)
_cell_length_b                   11.077(3)
_cell_length_c                   19.322(2)
_cell_angle_alpha                90
_cell_angle_beta                 90.69(1)
_cell_angle_gamma                90
_cell_volume                     4052.57
loop_
_atom_site_label
_atom_site_type_symbol
_atom_site_fract_x
_atom_site_fract_y
_atom_site_fract_z
Cu1 Cu 0.29010(2) 0.61650(4) 0.61030(2)
Cu2 Cu 0.35390(2) 0.90300(4) 0.66920(2)
Cu3 Cu 0.2500 0.7500 0.7500
O5 O 0.2813(1) 0.7788(2) 0.6520(1)
O6 O 0.3864(1) 0.6447(3) 0.5785(2)
O7 O 0.4302(1) 0.8068(2) 0.6337(1)
C1 C 0.4336(2) 0.7211(3) 0.5908(2)
C2 C 0.5009(2) 0.7098(4) 0.5526(2)
O8 O 0.1891(1) 0.5819(2) 0.6207(1)
O9 O 0.1441(1) 0.6838(2) 0.7102(1)
C3 C 0.1384(2) 0.6240(3) 0.6546(2)
C4 C 0.0658(2) 0.5990(5) 0.6264(3)
O10 O 0.2801(1) 1.0191(2) 0.6933(1)
O11 O 0.2026(1) 0.9093(2) 0.7539(1)
C5 C 0.2231(2) 1.0070(3) 0.7259(2)
C6 C 0.1775(2) 1.1159(4) 0.7320(2)
N1 N 0.3054(2) 0.4423(3) 0.5901(2)
C7 C 0.3688(2) 0.3849(3) 0.5815(2)
N2 N 0.3581(3) 0.2666(4) 0.5762(2)
C8 C 0.2879(2) 0.2475(3) 0.5811(2)
C9 C 0.2573(2) 0.3556(4) 0.5886(2)
N3 N 0.4258(1) 1.0269(3) 0.6917(2)
C10 C 0.4910(2) 1.0327(4) 0.6705(3)
N4 N 0.5259(2) 1.1220(3) 0.7028(3)
C11 C 0.4805(2) 1.1803(4) 0.7446(3)
C12 C 0.4182(2) 1.1212(4) 0.7379(2)
O12 O 0.2500 0.6974(4) 0.5000
H1 H 0.2414 0.8201 0.6292
H2 H 0.5396 0.7236 0.5844
H3 H 0.5065 0.6388 0.5244
H4 H 0.5045 0.7731 0.5143
H5 H 0.0287 0.5626 0.6646
H6 H 0.0663 0.5448 0.5938
H7 H 0.0329 0.6685 0.6204
H8 H 0.1394 1.1081 0.7531
H9 H 0.1704 1.1595 0.6841
H10 H 0.2007 1.1783 0.7643
H11 H 0.4154 0.4320 0.5862
H12 H 0.3939 0.2046 0.5719
H13 H 0.2024 0.3755 0.5895
H14 H 0.2428 0.1731 0.5760
H15 H 0.5157 0.9621 0.6366
H16 H 0.5760 1.1447 0.7074
H17 H 0.3691 1.1360 0.7569
H18 H 0.4977 1.2457 0.7782
H19 H 0.2878 0.7229 0.4830
Cu1F Cu 0.20990(2) 0.88350(4) 0.88970(2)
Cu2F Cu 0.14610(2) 0.59700(4) 0.83080(2)
O5F O 0.2187(1) 0.7212(2) 0.8480(1)
O9F O 0.3559(1) 0.8162(2) 0.7898(1)
O11F O 0.2974(1) 0.5907(2) 0.7461(1)
Cu1A Cu 0.20990(2) 0.61650(4) 0.38970(2)
H19A H 0.2122 0.7229 0.5170
O6F O 0.1136(1) 0.8553(3) 0.9215(2)
O8F O 0.3109(1) 0.9181(2) 0.8793(1)
N1F N 0.1946(2) 1.0577(3) 0.9099(2)
O12F O 0.2500 0.8026(4) 1.0000
O7F O 0.0698(1) 0.6932(2) 0.8663(1)
O10F O 0.2199(1) 0.4809(2) 0.8067(1)
N3F N 0.0742(1) 0.4731(3) 0.8083(2)
H1F H 0.2586 0.6799 0.8708
C3F C 0.3616(2) 0.8760(3) 0.8454(2)
C5F C 0.2769(2) 0.4930(3) 0.7741(2)
Cu3A Cu 0.2500 0.7500 0.2500
O5A O 0.2187(1) 0.7788(2) 0.3480(1)
O6A O 0.1136(1) 0.6447(3) 0.4215(2)
O8A O 0.3109(1) 0.5819(2) 0.3793(1)
N1A N 0.1946(2) 0.4423(3) 0.4099(2)
C1F C 0.0664(2) 0.7789(3) 0.9092(2)
C7F C 0.1312(2) 1.1151(3) 0.9185(2)
C9F C 0.2427(2) 1.1444(4) 0.9114(2)
Cu1G Cu 0.29010(2) 0.88350(4) 1.11030(2)
H19F H 0.2122 0.7771 1.0170
H19G H 0.2878 0.7771 0.9830
C10F C 0.0090(2) 0.4673(4) 0.8295(3)
C12F C 0.0818(2) 0.3788(4) 0.7621(2)
C4F C 0.4342(2) 0.9010(5) 0.8736(3)
C6F C 0.3225(2) 0.3841(4) 0.7680(2)
Cu1G_2 Cu 0.29010(2) 0.88350(4) 0.11030(2)
Cu2A Cu 0.14610(2) 0.90300(4) 0.33080(2)
Cu2G Cu 0.35390(2) 0.59700(4) 0.16920(2)
O5G O 0.2813(1) 0.7212(2) 0.1520(1)
O9A O 0.3559(1) 0.6838(2) 0.2898(1)
O9G O 0.1441(1) 0.8162(2) 0.2102(1)
O11A O 0.2974(1) 0.9093(2) 0.2461(1)
O11G O 0.2026(1) 0.5907(2) 0.2539(1)
H1A H 0.2586 0.8201 0.3708
C1A C 0.0664(2) 0.7211(3) 0.4092(2)
C3A C 0.3616(2) 0.6240(3) 0.3454(2)
C7A C 0.1312(2) 0.3849(3) 0.4185(2)
C9A C 0.2427(2) 0.3556(4) 0.4114(2)
C2F C -0.0009(2) 0.7902(4) 0.9474(2)
N2F N 0.1419(3) 1.2334(4) 0.9238(2)
H11F H 0.0846 1.0680 0.9138
C8F C 0.2121(2) 1.2525(3) 0.9189(2)
H13F H 0.2976 1.1245 0.9105
Cu3A_2 Cu 0.2500 0.7500 1.2500
O5G_2 O 0.2813(1) 0.7212(2) 1.1520(1)
O6G O 0.3864(1) 0.8553(3) 1.0785(2)
O8G O 0.1891(1) 0.9181(2) 1.1207(1)
N1G N 0.3054(2) 1.0577(3) 1.0901(2)
N4F N -0.0259(2) 0.3780(3) 0.7972(3)
H15F H -0.0157 0.5379 0.8634
C11F C 0.0195(2) 0.3197(4) 0.7554(3)
H17F H 0.1309 0.3640 0.7431
H5F H 0.4713 0.9374 0.8354
H6F H 0.4337 0.9552 0.9062
H7F H 0.4671 0.8315 0.8796
H8F H 0.3606 0.3919 0.7469
H9F H 0.3296 0.3405 0.8159
H10F H 0.2993 0.3217 0.7357
O7A O 0.0698(1) 0.8068(2) 0.3663(1)
O10A O 0.2199(1) 1.0191(2) 0.3067(1)
N3A N 0.0742(1) 1.0269(3) 0.3083(2)
O7G O 0.4302(1) 0.6932(2) 0.1337(1)
O10G O 0.2801(1) 0.4809(2) 0.1933(1)
N3G N 0.4258(1) 0.4731(3) 0.1917(2)
H1G H 0.2414 0.6799 0.1292
C3G C 0.1384(2) 0.8760(3) 0.1546(2)
C5A C 0.2769(2) 1.0070(3) 0.2741(2)
C5G C 0.2231(2) 0.4930(3) 0.2259(2)
C2A C -0.0009(2) 0.7098(4) 0.4474(2)
C4A C 0.4342(2) 0.5990(5) 0.3736(3)
N2A N 0.1419(3) 0.2666(4) 0.4238(2)
H11A H 0.0846 0.4320 0.4138
C8A C 0.2121(2) 0.2475(3) 0.4189(2)
H13A H 0.2976 0.3755 0.4105
H2F H -0.0396 0.7764 0.9156
H3F H -0.0065 0.8612 0.9756
H4F H -0.0045 0.7269 0.9857
H12F H 0.1061 1.2954 0.9281
H14F H 0.2572 1.3269 0.9240
C1G C 0.4336(2) 0.7789(3) 1.0908(2)
C3G_2 C 0.1384(2) 0.8760(3) 1.1546(2)
C7G C 0.3688(2) 1.1151(3) 1.0815(2)
C9G C 0.2573(2) 1.1444(4) 1.0886(2)
H16F H -0.0760 0.3553 0.7926
H18F H 0.0023 0.2543 0.7218
C10A C 0.0090(2) 1.0327(4) 0.3295(3)
C12A C 0.0818(2) 1.1212(4) 0.2621(2)
C1G_2 C 0.4336(2) 0.7789(3) 0.0908(2)
C10G C 0.4910(2) 0.4673(4) 0.1705(3)
C12G C 0.4182(2) 0.3788(4) 0.2379(2)
O8G_2 O 0.1891(1) 0.9181(2) 0.1207(1)
C4G C 0.0658(2) 0.9010(5) 0.1264(3)
C6A C 0.3225(2) 1.1159(4) 0.2680(2)
C6G C 0.1775(2) 0.3841(4) 0.2320(2)
H2A H -0.0396 0.7236 0.4156
H3A H -0.0065 0.6388 0.4756
H4A H -0.0045 0.7731 0.4857
H5A H 0.4713 0.5626 0.3354
H6A H 0.4337 0.5448 0.4062
H7A H 0.4671 0.6685 0.3796
H12A H 0.1061 0.2046 0.4281
H14A H 0.2572 0.1731 0.4240
O7G_2 O 0.4302(1) 0.6932(2) 1.1337(1)
C2G C 0.5009(2) 0.7902(4) 1.0526(2)
N2G N 0.3581(3) 1.2334(4) 1.0762(2)
H11G H 0.4154 1.0680 1.0862
C8G C 0.2879(2) 1.2525(3) 1.0811(2)
H13G H 0.2024 1.1245 1.0895
N4A N -0.0259(2) 1.1220(3) 0.2972(3)
H15A H -0.0157 0.9621 0.3634
C11A C 0.0195(2) 1.1803(4) 0.2554(3)
H17A H 0.1309 1.1360 0.2431
N4G N 0.5259(2) 0.3780(3) 0.2028(3)
H15G H 0.5157 0.5379 0.1366
C11G C 0.4805(2) 0.3197(4) 0.2446(3)
H17G H 0.3691 0.3640 0.2569
H5G H 0.0287 0.9374 0.1646
H6G H 0.0663 0.9552 0.0938
H7G H 0.0329 0.8315 0.1204
H8A H 0.3606 1.1081 0.2469
H9A H 0.3296 1.1595 0.3159
H10A H 0.2993 1.1783 0.2357
H8G H 0.1394 0.3919 0.2531
H9G H 0.1704 0.3405 0.1841
H10G H 0.2007 0.3217 0.2643
H2G H 0.5396 0.7764 1.0844
H3G H 0.5065 0.8612 1.0244
H4G H 0.5045 0.7269 1.0143
H12G H 0.3939 1.2954 1.0719
H14G H 0.2428 1.3269 1.0760
H16A H -0.0760 1.1447 0.2926
H18A H 0.0023 1.2457 0.2218
H16G H 0.5760 0.3553 0.2074
H18G H 0.4977 0.2543 0.2782
Cl1 Cl 0.6417(1) 1.0245(1) 0.5306(1)
O1 O 0.6758(2) 1.0386(4) 0.4650(2)
O2 O 0.6676(2) 0.9179(3) 0.5631(2)
O3 O 0.5683(2) 1.0152(4) 0.5208(2)
O4 O 0.6589(2) 1.1251(3) 0.5744(2)
loop_
_geom_bond_atom_site_label_1
_geom_bond_atom_site_label_2
_geom_bond_site_symmetry_1
_geom_bond_site_symmetry_2
Cl1 O1 1_555 1_555
O2 Cl1 1_555 1_555
O3 Cl1 1_555 1_555
O4 Cl1 1_555 1_555
Cu1 Cu3 1_555 1_555
Cu2 Cu3 1_555 1_555
Cu3 O5 1_555 1_555
O5 Cu1 1_555 1_555
O6 Cu1 1_555 1_555
O7 Cu2 1_555 1_555
C1 O6 1_555 1_555
C2 C1 1_555 1_555
O8 Cu1 1_555 1_555
O9 Cu3 1_555 1_555
C3 O8 1_555 1_555
C4 C3 1_555 1_555
O10 Cu2 1_555 1_555
O11 Cu3 1_555 1_555
C5 O10 1_555 1_555
C6 C5 1_555 1_555
N1 Cu1 1_555 1_555
C7 N1 1_555 1_555
N2 C7 1_555 1_555
C8 N2 1_555 1_555
C9 N1 1_555 1_555
N3 Cu2 1_555 1_555
C10 N3 1_555 1_555
N4 C10 1_555 1_555
C11 N4 1_555 1_555
C12 N3 1_555 1_555
O12 Cu1 1_555 1_555
H1 O5 1_555 1_555
H2 C2 1_555 1_555
H3 C2 1_555 1_555
H4 C2 1_555 1_555
H5 C4 1_555 1_555
H6 C4 1_555 1_555
H7 C4 1_555 1_555
H8 C6 1_555 1_555
H9 C6 1_555 1_555
H10 C6 1_555 1_555
H11 C7 1_555 1_555
H12 N2 1_555 1_555
H13 C9 1_555 1_555
H14 C8 1_555 1_555
H15 C10 1_555 1_555
H16 N4 1_555 1_555
H17 C12 1_555 1_555
H18 C11 1_555 1_555
H19 O12 1_555 1_555
Cu1F Cu3 1_555 1_555
Cu2F Cu3 1_555 1_555
O5F Cu3 1_555 1_555
O9F Cu3 1_555 1_555
O11F Cu3 1_555 1_555
Cu1A O12 1_555 1_555
H19A O12 1_555 1_555
O6F Cu1F 1_555 1_555
O8F Cu1F 1_555 1_555
N1F Cu1F 1_555 1_555
O12F Cu1F 1_555 1_555
O7F Cu2F 1_555 1_555
O10F Cu2F 1_555 1_555
N3F Cu2F 1_555 1_555
H1F O5F 1_555 1_555
C3F O9F 1_555 1_555
C5F O11F 1_555 1_555
Cu3A Cu1A 1_555 1_555
O5A Cu1A 1_555 1_555
O6A Cu1A 1_555 1_555
O8A Cu1A 1_555 1_555
N1A Cu1A 1_555 1_555
C1F O6F 1_555 1_555
C7F N1F 1_555 1_555
C9F N1F 1_555 1_555
Cu1G O12F 1_555 1_555
H19F O12F 1_555 1_555
H19G O12F 1_555 1_555
C10F N3F 1_555 1_555
C12F N3F 1_555 1_555
C4F C3F 1_555 1_555
C6F C5F 1_555 1_555
Cu1G_2 Cu3A 1_555 1_555
Cu2A Cu3A 1_555 1_555
Cu2G Cu3A 1_555 1_555
O5G Cu3A 1_555 1_555
O9A Cu3A 1_555 1_555
O9G Cu3A 1_555 1_555
O11A Cu3A 1_555 1_555
O11G Cu3A 1_555 1_555
H1A O5A 1_555 1_555
C1A O6A 1_555 1_555
C3A O8A 1_555 1_555
C7A N1A 1_555 1_555
C9A N1A 1_555 1_555
C2F C1F 1_555 1_555
N2F C7F 1_555 1_555
H11F C7F 1_555 1_555
C8F C9F 1_555 1_555
H13F C9F 1_555 1_555
Cu3A_2 Cu1G 1_555 1_555
O5G_2 Cu1G 1_555 1_555
O6G Cu1G 1_555 1_555
O8G Cu1G 1_555 1_555
N1G Cu1G 1_555 1_555
N4F C10F 1_555 1_555
H15F C10F 1_555 1_555
C11F C12F 1_555 1_555
H17F C12F 1_555 1_555
H5F C4F 1_555 1_555
H6F C4F 1_555 1_555
H7F C4F 1_555 1_555
H8F C6F 1_555 1_555
H9F C6F 1_555 1_555
H10F C6F 1_555 1_555
O7A Cu2A 1_555 1_555
O10A Cu2A 1_555 1_555
N3A Cu2A 1_555 1_555
O7G Cu2G 1_555 1_555
O10G Cu2G 1_555 1_555
N3G Cu2G 1_555 1_555
H1G O5G 1_555 1_555
C3G O9G 1_555 1_555
C5A O11A 1_555 1_555
C5G O11G 1_555 1_555
C2A C1A 1_555 1_555
C4A C3A 1_555 1_555
N2A C7A 1_555 1_555
H11A C7A 1_555 1_555
C8A C9A 1_555 1_555
H13A C9A 1_555 1_555
H2F C2F 1_555 1_555
H3F C2F 1_555 1_555
H4F C2F 1_555 1_555
H12F N2F 1_555 1_555
H14F C8F 1_555 1_555
C1G O6G 1_555 1_555
C3G_2 O8G 1_555 1_555
C7G N1G 1_555 1_555
C9G N1G 1_555 1_555
H16F N4F 1_555 1_555
H18F C11F 1_555 1_555
C10A N3A 1_555 1_555
C12A N3A 1_555 1_555
C1G_2 O7G 1_555 1_555
C10G N3G 1_555 1_555
C12G N3G 1_555 1_555
O8G_2 C3G 1_555 1_555
C4G C3G 1_555 1_555
C6A C5A 1_555 1_555
C6G C5G 1_555 1_555
H2A C2A 1_555 1_555
H3A C2A 1_555 1_555
H4A C2A 1_555 1_555
H5A C4A 1_555 1_555
H6A C4A 1_555 1_555
H7A C4A 1_555 1_555
H12A N2A 1_555 1_555
H14A C8A 1_555 1_555
O7G_2 C1G 1_555 1_555
C2G C1G 1_555 1_555
N2G C7G 1_555 1_555
H11G C7G 1_555 1_555
C8G C9G 1_555 1_555
H13G C9G 1_555 1_555
N4A C10A 1_555 1_555
H15A C10A 1_555 1_555
C11A C12A 1_555 1_555
H17A C12A 1_555 1_555
N4G C10G 1_555 1_555
H15G C10G 1_555 1_555
C11G C12G 1_555 1_555
H17G C12G 1_555 1_555
H5G C4G 1_555 1_555
H6G C4G 1_555 1_555
H7G C4G 1_555 1_555
H8A C6A 1_555 1_555
H9A C6A 1_555 1_555
H10A C6A 1_555 1_555
H8G C6G 1_555 1_555
H9G C6G 1_555 1_555
H10G C6G 1_555 1_555
H2G C2G 1_555 1_555
H3G C2G 1_555 1_555
H4G C2G 1_555 1_555
H12G N2G 1_555 1_555
H14G C8G 1_555 1_555
H16A N4A 1_555 1_555
H18A C11A 1_555 1_555
H16G N4G 1_555 1_555
H18G C11G 1_555 1_555
Cu2 O5 1_555 1_555
O7 C1 1_555 1_555
O9 C3 1_555 1_555
O11 C5 1_555 1_555
C8 C9 1_555 1_555
C11 C12 1_555 1_555
Cu1F O5F 1_555 1_555
Cu2F O5F 1_555 1_555
O8F C3F 1_555 1_555
O7F C1F 1_555 1_555
O10F C5F 1_555 1_555
Cu3A O5A 1_555 1_555
O5A Cu2A 1_555 1_555
Cu1G_2 O5G 1_555 1_555
Cu2G O5G 1_555 1_555
O9A C3A 1_555 1_555
C1A O7A 1_555 1_555
N2F C8F 1_555 1_555
N4F C11F 1_555 1_555
O10A C5A 1_555 1_555
O10G C5G 1_555 1_555
N2A C8A 1_555 1_555
N2G C8G 1_555 1_555
N4A C11A 1_555 1_555
N4G C11G 1_555 1_555

#END
