
#######################################################################
#
#                 Cambridge Crystallographic Data Centre
#                                CCDC 
#
#######################################################################
#
# If this CIF has been generated from an entry in the Cambridge 
# Structural Database, then it will include bibliographic, chemical, 
# crystal, experimental, refinement or atomic coordinate data resulting 
# from the CCDC's data processing and validation procedures.
#
#######################################################################

data_YAFRAA
_symmetry_cell_setting           monoclinic
_symmetry_space_group_name_H-M   'C 2/c'
_symmetry_Int_Tables_number      15
_space_group_name_Hall           '-C 2yn'
loop_
_symmetry_equiv_pos_site_id
_symmetry_equiv_pos_as_xyz
1 x,y,z
2 -x,y,1/2-z
3 1/2+x,1/2+y,z
4 1/2-x,1/2+y,1/2-z
5 -x,-y,-z
6 x,-y,1/2+z
7 1/2-x,1/2-y,-z
8 1/2+x,1/2-y,1/2+z
_cell_length_a                   23.6748(14)
_cell_length_b                   11.6289(7)
_cell_length_c                   9.6440(6)
_cell_angle_alpha                90
_cell_angle_beta                 96.353(4)
_cell_angle_gamma                90
_cell_volume                     2638.8
loop_
_atom_site_label
_atom_site_type_symbol
_atom_site_fract_x
_atom_site_fract_y
_atom_site_fract_z
Co1 Co 0.5000 0.52263(3) 0.7500
O1 O 0.55380(5) 0.53098(11) 0.92961(11)
C1 C 0.58754(7) 0.49847(13) 1.02991(16)
N1 N 0.5000 0.71171(16) 0.7500
C2 C 0.67426(10) 0.6225(2) 1.0358(3)
H1 H 0.7136 0.6252 1.0199
H2 H 0.6708 0.6423 1.1312
H3 H 0.6530 0.6762 0.9751
C3 C 0.65102(8) 0.50059(19) 1.0060(2)
H4 H 0.6548 0.4805 0.9088
C4 C 0.45124(8) 0.89365(15) 0.76775(19)
H5 H 0.4177 0.9315 0.7812
O2 O 0.68453(5) 0.42260(14) 1.09706(14)
C5 C 0.45282(7) 0.77274(15) 0.76537(19)
H6 H 0.4194 0.7328 0.7749
C6 C 0.64660(10) 0.2551(2) 0.9605(3)
H7 H 0.6246 0.3010 0.8965
C7 C 0.64664(11) 0.1349(3) 0.9439(3)
H8 H 0.6251 0.1027 0.8671
C8 C 0.67937(8) 0.3048(2) 1.0721(2)
C9 C 0.71055(10) 0.2322(2) 1.1675(2)
H9 H 0.7324 0.2641 1.2440
C10 C 0.70968(11) 0.1124(3) 1.1507(3)
H10 H 0.7308 0.0661 1.2158
C11 C 0.67765(12) 0.0629(3) 1.0379(4)
H11 H 0.6770 -0.0164 1.0256
C12 C 0.5000 0.95685(19) 0.7500
O3 O 0.57552(5) 0.47394(10) 1.14927(11)
C13 C 0.5000 1.08758(19) 0.7500
N2 N 0.5000 1.33300(16) 0.7500
C14 C 0.48321(8) 1.15074(14) 0.86106(17)
H12 H 0.4708 1.1130 0.9371
C15 C 0.48508(8) 1.27175(15) 0.85836(17)
H13 H 0.4754 1.3115 0.9360
Co1D Co 0.5000 0.47737(3) 1.2500
Co1_2 Co 0.5000 1.52263(3) 0.7500
Co1D_2 Co 0.5000 0.47737(3) 0.2500
O1E O 0.55380(5) 0.46902(11) 0.42961(11)
O1A O 0.44620(5) 0.53098(11) 0.57039(11)
C1E C 0.58754(7) 0.50153(13) 0.52991(16)
C2E C 0.67426(10) 0.3775(2) 0.5358(3)
H1E H 0.7136 0.3748 0.5199
H2E H 0.6708 0.3577 0.6312
H3E H 0.6530 0.3238 0.4751
C3E C 0.65102(8) 0.49941(19) 0.5060(2)
H4E H 0.6548 0.5195 0.4088
C4A C 0.54876(8) 0.89365(15) 0.73225(19)
H5A H 0.5823 0.9315 0.7188
O2E O 0.68453(5) 0.57740(14) 0.59706(14)
C5A C 0.54718(7) 0.77274(15) 0.73463(19)
H6A H 0.5806 0.7328 0.7251
C6E C 0.64660(10) 0.7449(2) 0.4605(3)
H7E H 0.6246 0.6990 0.3965
C7E C 0.64664(11) 0.8651(3) 0.4439(3)
H8E H 0.6251 0.8973 0.3671
C8E C 0.67937(8) 0.6952(2) 0.5721(2)
C9E C 0.71055(10) 0.7678(2) 0.6675(2)
H9E H 0.7324 0.7359 0.7440
C10E C 0.70968(11) 0.8876(3) 0.6507(3)
H10E H 0.7308 0.9339 0.7158
C11E C 0.67765(12) 0.9371(3) 0.5379(4)
H11E H 0.6770 1.0164 0.5256
O3E O 0.57552(5) 0.52606(10) 0.64927(11)
O3D O 0.42448(5) 0.52606(10) 0.85073(11)
N2_2 N 0.5000 0.33300(16) 0.7500
C14A C 0.51679(8) 1.15074(14) 0.63894(17)
H12A H 0.5292 1.1130 0.5629
C15A C 0.51492(8) 1.27175(15) 0.64164(17)
H13A H 0.5246 1.3115 0.5640
loop_
_geom_bond_atom_site_label_1
_geom_bond_atom_site_label_2
_geom_bond_site_symmetry_1
_geom_bond_site_symmetry_2
Co1 O1 1_555 1_555
O1 C1 1_555 1_555
C1 C3 1_555 1_555
N1 Co1 1_555 1_555
C2 H1 1_555 1_555
H2 C2 1_555 1_555
H3 C2 1_555 1_555
C3 C2 1_555 1_555
H4 C3 1_555 1_555
C4 H5 1_555 1_555
O2 C3 1_555 1_555
C5 N1 1_555 1_555
H6 C5 1_555 1_555
C6 H7 1_555 1_555
C7 C6 1_555 1_555
H8 C7 1_555 1_555
C8 O2 1_555 1_555
C9 C8 1_555 1_555
H9 C9 1_555 1_555
C10 C9 1_555 1_555
H10 C10 1_555 1_555
C11 C7 1_555 1_555
H11 C11 1_555 1_555
C12 C4 1_555 1_555
O3 C1 1_555 1_555
C13 C12 1_555 1_555
N2 C15 1_555 1_555
C14 C13 1_555 1_555
H12 C14 1_555 1_555
C15 C14 1_555 1_555
H13 C15 1_555 1_555
Co1D O3 1_555 1_555
Co1_2 N2 1_555 1_555
Co1D_2 O1E 1_555 1_555
O1E C1E 1_555 1_555
O1A Co1 1_555 1_555
C1E C3E 1_555 1_555
C2E H1E 1_555 1_555
H2E C2E 1_555 1_555
H3E C2E 1_555 1_555
C3E C2E 1_555 1_555
H4E C3E 1_555 1_555
C4A C12 1_555 1_555
H5A C4A 1_555 1_555
O2E C3E 1_555 1_555
C5A N1 1_555 1_555
H6A C5A 1_555 1_555
C6E H7E 1_555 1_555
C7E C6E 1_555 1_555
H8E C7E 1_555 1_555
C8E O2E 1_555 1_555
C9E C8E 1_555 1_555
H9E C9E 1_555 1_555
C10E C9E 1_555 1_555
H10E C10E 1_555 1_555
C11E C7E 1_555 1_555
H11E C11E 1_555 1_555
O3E Co1 1_555 1_555
O3D Co1 1_555 1_555
N2_2 Co1 1_555 1_555
C14A C13 1_555 1_555
H12A C14A 1_555 1_555
C15A N2 1_555 1_555
H13A C15A 1_555 1_555
C4 C5 1_555 1_555
C6 C8 1_555 1_555
C10 C11 1_555 1_555
C1E O3E 1_555 1_555
C4A C5A 1_555 1_555
C6E C8E 1_555 1_555
C10E C11E 1_555 1_555
C14A C15A 1_555 1_555

#END
