
#######################################################################
#
#                 Cambridge Crystallographic Data Centre
#                                CCDC 
#
#######################################################################
#
# If this CIF has been generated from an entry in the Cambridge 
# Structural Database, then it will include bibliographic, chemical, 
# crystal, experimental, refinement or atomic coordinate data resulting 
# from the CCDC's data processing and validation procedures.
#
#######################################################################

data_YAGCAL
_symmetry_cell_setting           monoclinic
_symmetry_space_group_name_H-M   'C 2/c'
_symmetry_Int_Tables_number      15
_space_group_name_Hall           '-C 2yn'
loop_
_symmetry_equiv_pos_site_id
_symmetry_equiv_pos_as_xyz
1 x,y,z
2 1/2+x,1/2+y,z
3 x,-y,1/2+z
4 1/2+x,1/2-y,1/2+z
5 -x,-y,-z
6 1/2-x,1/2-y,-z
7 -x,y,1/2-z
8 1/2-x,1/2+y,1/2-z
_cell_length_a                   15.524(12)
_cell_length_b                   12.802(10)
_cell_length_c                   6.601(5)
_cell_angle_alpha                90
_cell_angle_beta                 102.56(3)
_cell_angle_gamma                90
_cell_volume                     1280.48
loop_
_atom_site_label
_atom_site_type_symbol
_atom_site_fract_x
_atom_site_fract_y
_atom_site_fract_z
O1 O 0.09775(12) 0.61282(14) 0.2508(3)
H1 H 0.1006 0.5994 0.1310
C1 C 0.22810(16) 0.9334(2) 0.3151(4)
H2 H 0.2889 0.9263 0.3337
C2 C 0.18946(18) 1.0309(2) 0.3041(4)
H3 H 0.2241 1.0907 0.3140
C3 C 0.09889(17) 1.03913(18) 0.2782(4)
H4 H 0.0720 1.1043 0.2712
Co1 Co 0.0000 0.72499(3) 0.2500
S1 S 0.0000 0.65952(6) -0.2500
N1 N 0.08648(12) 0.85289(14) 0.2726(3)
C4 C 0.04876(15) 0.94849(17) 0.2628(3)
C5 C 0.17439(16) 0.84696(19) 0.2978(4)
H5 H 0.2003 0.7812 0.3040
O2 O -0.07670(11) 0.59307(13) -0.3397(3)
O3 O -0.02089(13) 0.72654(12) -0.0852(2)
H6 H 0.0907(19) 0.560(2) 0.289(5)
C4F C -0.04876(15) 0.94849(17) 0.2372(3)
C3F C -0.09889(17) 1.03913(18) 0.2218(4)
C2F C -0.18946(18) 1.0309(2) 0.1959(4)
C1F C -0.22810(16) 0.9334(2) 0.1849(4)
H2F H -0.2889 0.9263 0.1663
C5F C -0.17439(16) 0.84696(19) 0.2022(4)
N1F N -0.08648(12) 0.85289(14) 0.2274(3)
H5F H -0.2003 0.7812 0.1960
H3F H -0.2241 1.0907 0.1860
H4F H -0.0720 1.1043 0.2288
O2F O 0.07670(11) 0.59307(13) -0.1603(3)
O3F O 0.02089(13) 0.72654(12) -0.4148(2)
O1F O -0.09775(12) 0.61282(14) 0.2492(3)
H1F H -0.1006 0.5994 0.3690
H6F H -0.0907(19) 0.560(2) 0.211(5)
O3F_2 O 0.02089(13) 0.72654(12) 0.5852(2)
Co1_2 Co 0.0000 0.72499(3) -0.7500
loop_
_geom_bond_atom_site_label_1
_geom_bond_atom_site_label_2
_geom_bond_site_symmetry_1
_geom_bond_site_symmetry_2
O1 H1 1_555 1_555
C1 H2 1_555 1_555
C2 C1 1_555 1_555
H3 C2 1_555 1_555
C3 C2 1_555 1_555
H4 C3 1_555 1_555
Co1 O1 1_555 1_555
S1 O2 1_555 1_555
N1 Co1 1_555 1_555
C4 C3 1_555 1_555
C5 C1 1_555 1_555
H5 C5 1_555 1_555
O3 Co1 1_555 1_555
H6 O1 1_555 1_555
C4F C4 1_555 1_555
C3F C4F 1_555 1_555
C2F C3F 1_555 1_555
C1F C2F 1_555 1_555
H2F C1F 1_555 1_555
C5F C1F 1_555 1_555
N1F Co1 1_555 1_555
H5F C5F 1_555 1_555
H3F C2F 1_555 1_555
H4F C3F 1_555 1_555
O2F S1 1_555 1_555
O3F S1 1_555 1_555
O1F Co1 1_555 1_555
H1F O1F 1_555 1_555
H6F O1F 1_555 1_555
O3F_2 Co1 1_555 1_555
Co1_2 O3F 1_555 1_555
S1 O3 1_555 1_555
N1 C4 1_555 1_555
N1 C5 1_555 1_555
C4F N1F 1_555 1_555
C5F N1F 1_555 1_555

#END
