
#######################################################################
#
#                 Cambridge Crystallographic Data Centre
#                                CCDC 
#
#######################################################################
#
# If this CIF has been generated from an entry in the Cambridge 
# Structural Database, then it will include bibliographic, chemical, 
# crystal, experimental, refinement or atomic coordinate data resulting 
# from the CCDC's data processing and validation procedures.
#
#######################################################################

data_YAHLUP
_symmetry_cell_setting           monoclinic
_symmetry_space_group_name_H-M   'P 21/n'
_symmetry_Int_Tables_number      14
_space_group_name_Hall           '-P 2yn'
loop_
_symmetry_equiv_pos_site_id
_symmetry_equiv_pos_as_xyz
1 x,y,z
2 1/2-x,1/2+y,1/2-z
3 -x,-y,-z
4 1/2+x,1/2-y,1/2+z
_cell_length_a                   11.1894(11)
_cell_length_b                   5.2258(5)
_cell_length_c                   14.5794(12)
_cell_angle_alpha                90
_cell_angle_beta                 95.930(7)
_cell_angle_gamma                90
_cell_volume                     847.948
loop_
_atom_site_label
_atom_site_type_symbol
_atom_site_fract_x
_atom_site_fract_y
_atom_site_fract_z
Zn1 Zn 0.512033(17) 0.20929(4) 0.116067(13)
O1 O 0.58174(11) -0.1299(2) 0.13983(8)
O2 O 0.62613(11) -0.1912(2) -0.02539(9)
O3 O 0.79179(11) -0.2317(2) 0.10210(9)
H1 H 0.806(3) -0.101(4) 0.130(2)
O4 O 0.63966(11) -0.5665(2) 0.08513(9)
P1 P 0.65362(4) -0.27892(8) 0.07354(3)
N1 N 0.38422(14) 0.3105(3) 0.37010(10)
N2 N 0.44407(13) 0.3170(3) 0.23154(10)
C1 C 0.44827(15) 0.1897(3) 0.31052(12)
H4 H 0.4909 0.0343 0.3231
C2 C 0.37429(15) 0.5307(3) 0.24230(12)
H5 H 0.3555 0.6590 0.1970
C3 C 0.33674(15) 0.5283(3) 0.32817(13)
H6 H 0.2877 0.6522 0.3538
C4 C 0.36802(19) 0.2267(4) 0.46385(13)
H7 H 0.4104 0.0644 0.4767
H8 H 0.2822 0.2030 0.4695
H9 H 0.4006 0.3565 0.5081
Zn1B Zn 0.487967(17) -0.20929(4) -0.116067(13)
Zn1_2 Zn 0.512033(17) -0.79071(4) 0.116067(13)
O2B O 0.37387(11) 0.1912(2) 0.02539(9)
O4_2 O 0.63966(11) 0.4335(2) 0.08513(9)
O5 O 0.84912(12) 0.2101(3) 0.17835(9)
H2 H 0.864(2) 0.245(5) 0.2321(12)
H3 H 0.797(2) 0.308(5) 0.160(2)
loop_
_geom_bond_atom_site_label_1
_geom_bond_atom_site_label_2
_geom_bond_site_symmetry_1
_geom_bond_site_symmetry_2
Zn1 O1 1_555 1_555
O1 P1 1_555 1_555
O2 P1 1_555 1_555
O3 H1 1_555 1_555
O4 P1 1_555 1_555
O5 H2 1_555 1_555
H3 O5 1_555 1_555
P1 O3 1_555 1_555
N1 C1 1_555 1_555
N2 Zn1 1_555 1_555
C1 N2 1_555 1_555
H4 C1 1_555 1_555
C2 N2 1_555 1_555
H5 C2 1_555 1_555
C3 N1 1_555 1_555
H6 C3 1_555 1_555
C4 N1 1_555 1_555
H7 C4 1_555 1_555
H8 C4 1_555 1_555
H9 C4 1_555 1_555
Zn1B O2 1_555 1_555
Zn1_2 O4 1_555 1_555
O2B Zn1 1_555 1_555
O4_2 Zn1 1_555 1_555
C2 C3 1_555 1_555

#END
