
#######################################################################
#
#                 Cambridge Crystallographic Data Centre
#                                CCDC 
#
#######################################################################
#
# If this CIF has been generated from an entry in the Cambridge 
# Structural Database, then it will include bibliographic, chemical, 
# crystal, experimental, refinement or atomic coordinate data resulting 
# from the CCDC's data processing and validation procedures.
#
#######################################################################

data_YAHMAW
_symmetry_cell_setting           triclinic
_symmetry_space_group_name_H-M   'P -1'
_symmetry_Int_Tables_number      2
_space_group_name_Hall           '-P 1'
loop_
_symmetry_equiv_pos_site_id
_symmetry_equiv_pos_as_xyz
1 x,y,z
2 -x,-y,-z
_cell_length_a                   9.4190(11)
_cell_length_b                   9.5201(9)
_cell_length_c                   13.2467(14)
_cell_angle_alpha                76.692(9)
_cell_angle_beta                 78.841(10)
_cell_angle_gamma                66.443(10)
_cell_volume                     1052.71
loop_
_atom_site_label
_atom_site_type_symbol
_atom_site_fract_x
_atom_site_fract_y
_atom_site_fract_z
Zn1 Zn 0.37730(4) 0.63476(4) 0.37550(3)
Zn2 Zn 0.89185(4) 0.10326(4) 0.36863(3)
P1 P 0.74195(9) 0.46890(8) 0.38825(6)
P2 P 0.23104(9) 0.99039(8) 0.39632(6)
O1 O 0.8077(2) 0.5997(2) 0.33207(16)
H1 H 0.8551 0.6153 0.3671
O3 O 0.5923(2) 0.5086(2) 0.34244(17)
O5 O 0.8635(2) 0.3149(2) 0.36537(17)
O6 O 0.7169(2) 0.4761(2) 0.50514(17)
O7 O 0.1138(2) 1.0042(2) 0.32728(17)
O8 O 0.3058(3) 1.1141(2) 0.34131(18)
H6 H 0.340(4) 1.133(4) 0.385(3)
O9 O 0.3620(2) 0.8291(2) 0.40552(17)
O10 O 0.1559(2) 1.0292(2) 0.50454(16)
N1 N 0.3719(3) -0.0130(3) -0.1957(2)
N2 N 0.2369(3) -0.0985(3) -0.2674(2)
N3 N 0.1411(3) 0.5401(3) 0.1871(2)
N4 N 0.2669(3) 0.6317(3) 0.2614(2)
C1 C 0.3407(3) 0.1792(3) -0.0860(2)
C2 C 0.3418(4) 0.3259(3) -0.0868(3)
H7 H 0.3987 0.3702 -0.1431
C3 C 0.2601(4) 0.4073(3) -0.0059(2)
H8 H 0.2622 0.5068 -0.0076
C4 C 0.1758(3) 0.3463(3) 0.0773(2)
C5 C 0.1753(4) 0.1996(3) 0.0783(3)
H9 H 0.1177 0.1557 0.1344
C6 C 0.2587(4) 0.1169(3) -0.0026(3)
H10 H 0.2590 0.0163 0.0000
C7 C 0.4349(4) 0.0932(3) -0.1744(2)
H11 H 0.4390 0.1700 -0.2384
H12 H 0.5429 0.0334 -0.1571
C8 C 0.2684(4) 0.0229(3) -0.2629(2)
H13 H 0.2231 0.1235 -0.3025
C9 C 0.3278(4) -0.2202(3) -0.1994(3)
H14 H 0.3314 -0.3238 -0.1863
C10 C 0.4104(4) -0.1688(3) -0.1545(3)
H15 H 0.4813 -0.2282 -0.1045
C11 C 0.0806(4) 0.4311(4) 0.1656(3)
H16 H -0.0277 0.4892 0.1484
H17 H 0.0778 0.3539 0.2296
C12 C 0.2432(3) 0.5065(3) 0.2546(2)
H18 H 0.2924 0.4058 0.2927
C13 C 0.1748(4) 0.7516(3) 0.1933(3)
H19 H 0.1678 0.8563 0.1807
C14 C 0.0960(4) 0.6966(3) 0.1470(3)
H20 H 0.0243 0.7542 0.0972
Zn1A Zn 0.62270(4) 0.36524(4) 0.62450(3)
Zn2_2 Zn -0.10815(4) 1.10326(4) 0.36863(3)
Zn2A Zn 0.10815(4) 0.89674(4) 0.63137(3)
Zn2A_2 Zn 0.10815(4) -0.10326(4) -0.36863(3)
O6A O 0.2831(2) 0.5239(2) 0.49486(17)
O7_2 O 1.1138(2) 0.0042(2) 0.32728(17)
O10A O 0.8441(2) -0.0292(2) 0.49546(16)
N2A N 0.7631(3) 0.0985(3) 0.2674(2)
O2 O 0.0425(3) 0.3242(3) 0.5573(2)
H2 H -0.045(3) 0.371(4) 0.545(3)
H3 H 0.062(5) 0.250(3) 0.532(3)
O4 O 0.4183(3) 1.2172(3) 0.4593(2)
H4 H 0.498(2) 1.185(2) 0.490(2)
H5 H 0.3641 1.3051 0.4679
loop_
_geom_bond_atom_site_label_1
_geom_bond_atom_site_label_2
_geom_bond_site_symmetry_1
_geom_bond_site_symmetry_2
Zn1 O3 1_555 1_555
Zn2 O5 1_555 1_555
P1 O1 1_555 1_555
P2 O7 1_555 1_555
O1 H1 1_555 1_555
O2 H2 1_555 1_555
H3 O2 1_555 1_555
O3 P1 1_555 1_555
O4 H4 1_555 1_555
H5 O4 1_555 1_555
O5 P1 1_555 1_555
O6 P1 1_555 1_555
O7 Zn2_2 1_555 1_555
O8 P2 1_555 1_555
H6 O8 1_555 1_555
O9 Zn1 1_555 1_555
O10 P2 1_555 1_555
N1 C7 1_555 1_555
N2 C8 1_555 1_555
N3 C11 1_555 1_555
N4 Zn1 1_555 1_555
C1 C2 1_555 1_555
C2 H7 1_555 1_555
C3 C2 1_555 1_555
H8 C3 1_555 1_555
C4 C3 1_555 1_555
C5 C4 1_555 1_555
H9 C5 1_555 1_555
C6 C1 1_555 1_555
H10 C6 1_555 1_555
C7 C1 1_555 1_555
H11 C7 1_555 1_555
H12 C7 1_555 1_555
C8 N1 1_555 1_555
H13 C8 1_555 1_555
C9 N2 1_555 1_555
H14 C9 1_555 1_555
C10 N1 1_555 1_555
H15 C10 1_555 1_555
C11 C4 1_555 1_555
H16 C11 1_555 1_555
H17 C11 1_555 1_555
C12 N3 1_555 1_555
H18 C12 1_555 1_555
C13 N4 1_555 1_555
H19 C13 1_555 1_555
C14 N3 1_555 1_555
H20 C14 1_555 1_555
Zn1A O6 1_555 1_555
Zn2A O10 1_555 1_555
Zn2A_2 N2 1_555 1_555
O6A Zn1 1_555 1_555
O7_2 Zn2 1_555 1_555
O10A Zn2 1_555 1_555
N2A Zn2 1_555 1_555
P2 O9 1_555 1_555
N4 C12 1_555 1_555
C5 C6 1_555 1_555
C9 C10 1_555 1_555
C13 C14 1_555 1_555

#END
