
#######################################################################
#
#                 Cambridge Crystallographic Data Centre
#                                CCDC 
#
#######################################################################
#
# If this CIF has been generated from an entry in the Cambridge 
# Structural Database, then it will include bibliographic, chemical, 
# crystal, experimental, refinement or atomic coordinate data resulting 
# from the CCDC's data processing and validation procedures.
#
#######################################################################

data_YAHMEA
_symmetry_cell_setting           triclinic
_symmetry_space_group_name_H-M   'P -1'
_symmetry_Int_Tables_number      2
_space_group_name_Hall           '-P 1'
loop_
_symmetry_equiv_pos_site_id
_symmetry_equiv_pos_as_xyz
1 x,y,z
2 -x,-y,-z
_cell_length_a                   8.536(3)
_cell_length_b                   9.914(3)
_cell_length_c                   10.631(4)
_cell_angle_alpha                81.33(3)
_cell_angle_beta                 74.62(3)
_cell_angle_gamma                69.10(3)
_cell_volume                     808.791
loop_
_atom_site_label
_atom_site_type_symbol
_atom_site_fract_x
_atom_site_fract_y
_atom_site_fract_z
Zn1 Zn 0.88617(3) 0.56578(2) 0.17167(2)
P1 P 0.72209(6) 0.53476(5) -0.04341(5)
O1 O 0.55914(18) 0.66208(15) -0.04579(15)
C1 C 0.8271(3) 1.0347(2) -0.27151(19)
O2 O 0.75315(19) 0.49164(16) 0.09547(14)
C2 C 0.8284(3) 1.1422(2) -0.37407(19)
O3 O 0.70702(19) 0.39645(16) -0.09069(14)
H1 H 0.621(3) 0.380(4) -0.047(3)
C3 C 0.7617(3) 1.1389(2) -0.4795(2)
H2 H 0.757(3) 1.206(3) -0.549(3)
O4 O 0.87835(19) 0.56168(16) -0.13782(14)
C4 C 0.6937(3) 1.0316(2) -0.4835(2)
H3 H 0.653(4) 1.032(3) -0.557(3)
C5 C 0.6917(3) 0.9259(2) -0.3815(2)
H6 H 0.635(4) 0.859(3) -0.382(3)
C6 C 0.7586(3) 0.9281(2) -0.2759(2)
H7 H 0.760(4) 0.856(3) -0.212(3)
N1 N 0.8474(2) 0.95173(18) -0.04246(16)
C7 C 0.9060(3) 1.0346(2) -0.1597(2)
H8 H 1.024(4) 0.991(3) -0.181(3)
H9 H 0.883(4) 1.126(3) -0.134(3)
N2 N 0.8413(2) 0.77015(18) 0.10303(16)
C8 C 0.9322(3) 0.8152(2) -0.00554(19)
H10 H 1.041(4) 0.759(3) -0.047(3)
C9 C 0.6891(3) 0.8847(2) 0.1359(2)
H11 H 0.597(4) 0.879(3) 0.212(3)
C10 C 0.6915(3) 0.9975(2) 0.0468(2)
H12 H 0.616(5) 1.089(4) 0.040(4)
N3 N 0.8473(2) 1.38549(18) -0.45612(16)
C11 C 0.9067(3) 1.2565(2) -0.37067(19)
H13 H 1.029(4) 1.221(3) -0.395(3)
H14 H 0.876(4) 1.289(3) -0.284(3)
N4 N 0.8245(2) 1.52827(19) -0.63455(17)
C12 C 0.9207(3) 1.4072(2) -0.58197(19)
H15 H 1.021(3) 1.344(3) -0.625(3)
C13 C 0.6827(3) 1.5866(2) -0.5360(2)
H16 H 0.604(4) 1.667(4) -0.548(3)
C14 C 0.6953(3) 1.4988(2) -0.4246(2)
H17 H 0.615(4) 1.505(3) -0.340(3)
Zn1A Zn 1.11383(3) 0.43422(2) -0.17167(2)
Zn1_2 Zn 0.88617(3) 1.56578(2) -0.82833(2)
O4A O 1.12165(19) 0.43832(16) 0.13782(14)
N4_2 N 0.8245(2) 0.52827(19) 0.36545(17)
O5 O 1.3572(2) 0.73330(19) -0.24103(17)
H4 H 1.421(4) 0.736(4) -0.195(3)
H5 H 1.336(5) 0.658(3) -0.209(4)
loop_
_geom_bond_atom_site_label_1
_geom_bond_atom_site_label_2
_geom_bond_site_symmetry_1
_geom_bond_site_symmetry_2
Zn1 O2 1_555 1_555
P1 O1 1_555 1_555
C1 C2 1_555 1_555
O2 P1 1_555 1_555
C2 C3 1_555 1_555
O3 P1 1_555 1_555
H1 O3 1_555 1_555
C3 H2 1_555 1_555
O4 P1 1_555 1_555
C4 C3 1_555 1_555
H3 C4 1_555 1_555
O5 H4 1_555 1_555
H5 O5 1_555 1_555
C5 C4 1_555 1_555
H6 C5 1_555 1_555
C6 C1 1_555 1_555
H7 C6 1_555 1_555
N1 C7 1_555 1_555
C7 C1 1_555 1_555
H8 C7 1_555 1_555
H9 C7 1_555 1_555
N2 Zn1 1_555 1_555
C8 N1 1_555 1_555
H10 C8 1_555 1_555
C9 N2 1_555 1_555
H11 C9 1_555 1_555
C10 N1 1_555 1_555
H12 C10 1_555 1_555
N3 C11 1_555 1_555
C11 C2 1_555 1_555
H13 C11 1_555 1_555
H14 C11 1_555 1_555
N4 C12 1_555 1_555
C12 N3 1_555 1_555
H15 C12 1_555 1_555
C13 N4 1_555 1_555
H16 C13 1_555 1_555
C14 N3 1_555 1_555
H17 C14 1_555 1_555
Zn1A O4 1_555 1_555
Zn1_2 N4 1_555 1_555
O4A Zn1 1_555 1_555
N4_2 Zn1 1_555 1_555
C5 C6 1_555 1_555
N2 C8 1_555 1_555
C9 C10 1_555 1_555
C13 C14 1_555 1_555

#END
