
#######################################################################
#
#                 Cambridge Crystallographic Data Centre
#                                CCDC 
#
#######################################################################
#
# If this CIF has been generated from an entry in the Cambridge 
# Structural Database, then it will include bibliographic, chemical, 
# crystal, experimental, refinement or atomic coordinate data resulting 
# from the CCDC's data processing and validation procedures.
#
#######################################################################

data_YAJLUS
_symmetry_cell_setting           monoclinic
_symmetry_space_group_name_H-M   'P 21/c'
_symmetry_Int_Tables_number      14
_space_group_name_Hall           '-P 2ybc'
loop_
_symmetry_equiv_pos_site_id
_symmetry_equiv_pos_as_xyz
1 x,y,z
2 -x,1/2+y,1/2-z
3 -x,-y,-z
4 x,1/2-y,1/2+z
_cell_length_a                   10.263(5)
_cell_length_b                   21.919(5)
_cell_length_c                   15.640(5)
_cell_angle_alpha                90
_cell_angle_beta                 130.014(19)
_cell_angle_gamma                90
_cell_volume                     2694.61
loop_
_atom_site_label
_atom_site_type_symbol
_atom_site_fract_x
_atom_site_fract_y
_atom_site_fract_z
N1 N -0.0103(10) 1.1946(4) 0.6537(7)
C1 C -0.0762(12) 1.1668(4) 0.5586(8)
H1 H -0.1904 1.1713 0.4915
C2 C 0.1551(13) 1.1746(6) 0.7234(9)
H2 H 0.2364 1.1874 0.7989
I1 I 1.41473(11) 0.80444(5) 0.95383(7)
I2 I 0.99655(11) 0.72037(4) 0.58665(6)
Cd1 Cd 1.10497(8) 0.76130(3) 0.78665(6)
N2 N 0.0282(10) 0.9793(4) 0.2820(6)
N3 N 0.8937(10) 0.8295(4) 0.7305(7)
N4 N 0.7378(13) 0.8983(5) 0.7340(8)
N5 N 0.6618(9) 0.8827(4) 0.6271(6)
N6 N 0.0410(9) 1.1311(3) 0.5698(6)
N7 N 0.1912(11) 1.1366(5) 0.6770(7)
C3 C 0.0324(11) 1.0937(4) 0.4928(7)
C4 C 0.1635(11) 1.0555(4) 0.5298(7)
H3 H 0.2611 1.0543 0.6067
C5 C 0.1533(10) 1.0186(4) 0.4547(7)
C6 C 0.0096(11) 1.0206(4) 0.3419(8)
C7 C -0.1249(12) 1.0593(5) 0.3021(8)
H4 H -0.2228 1.0602 0.2252
C8 C -0.1110(11) 1.0964(5) 0.3786(8)
H5 H -0.1998 1.1243 0.3538
C9 C 0.1865(12) 0.9519(4) 0.3575(8)
C10 C 0.2614(13) 0.9066(5) 0.3369(8)
H6 H 0.2058 0.8917 0.2637
C11 C 0.4199(12) 0.8849(5) 0.4285(8)
H7 H 0.4745 0.8543 0.4185
C12 C 0.4992(11) 0.9076(4) 0.5349(7)
C13 C 0.4269(11) 0.9511(4) 0.5557(7)
H8 H 0.4837 0.9656 0.6292
C14 C 0.2676(11) 0.9733(4) 0.4655(7)
C15 C 0.8742(14) 0.8637(6) 0.7919(10)
H9 H 0.9526 0.8631 0.8712
C16 C -0.0866(19) 0.9868(8) 0.0873(11)
H10 H 0.0311 0.9804 0.1164
H11 H -0.1063 1.0313 0.0831
C17 C -0.1050(18) 0.9599(8) 0.1627(11)
H12 H -0.1009 0.9150 0.1586
H13 H -0.2184 0.9708 0.1379
C18 C -0.430(2) 1.0394(8) -0.1054(14)
H14 H -0.5551 1.0447 -0.1538
H15 H -0.3793 1.0562 -0.0310
C19 C -0.3922(17) 0.9733(8) -0.0935(13)
H16 H -0.4318 0.9537 -0.0567
H17 H -0.4567 0.9551 -0.1687
C20 C -0.2095(17) 0.9599(9) -0.0280(10)
H18 H -0.1761 0.9741 -0.0717
H19 H -0.1950 0.9150 -0.0211
C21 C -0.368(2) 1.0751(9) -0.1526(16)
H20 H -0.3767 1.0505 -0.2083
H21 H -0.2493 1.0866 -0.0928
H22 H -0.4375 1.1121 -0.1880
C22 C 0.7586(12) 0.8420(4) 0.6282(8)
H23 H 0.7332 0.8244 0.5634
N1A N 1.0103(10) 0.6946(4) 0.8463(7)
Cd1A Cd -0.10497(8) 1.26130(3) 0.71335(6)
loop_
_geom_bond_atom_site_label_1
_geom_bond_atom_site_label_2
_geom_bond_site_symmetry_1
_geom_bond_site_symmetry_2
N1 C1 1_555 1_555
C1 H1 1_555 1_555
C2 N1 1_555 1_555
H2 C2 1_555 1_555
I1 Cd1 1_555 1_555
I2 Cd1 1_555 1_555
Cd1 N3 1_555 1_555
N2 C6 1_555 1_555
N3 C15 1_555 1_555
N4 N5 1_555 1_555
N5 C12 1_555 1_555
N6 C1 1_555 1_555
N7 C2 1_555 1_555
C3 N6 1_555 1_555
C4 C3 1_555 1_555
H3 C4 1_555 1_555
C5 C4 1_555 1_555
C6 C5 1_555 1_555
C7 C6 1_555 1_555
H4 C7 1_555 1_555
C8 C3 1_555 1_555
H5 C8 1_555 1_555
C9 N2 1_555 1_555
C10 C9 1_555 1_555
H6 C10 1_555 1_555
C11 C10 1_555 1_555
H7 C11 1_555 1_555
C12 C11 1_555 1_555
C13 C12 1_555 1_555
H8 C13 1_555 1_555
C14 C5 1_555 1_555
C15 N4 1_555 1_555
H9 C15 1_555 1_555
C16 H10 1_555 1_555
H11 C16 1_555 1_555
C17 N2 1_555 1_555
H12 C17 1_555 1_555
H13 C17 1_555 1_555
C18 H14 1_555 1_555
H15 C18 1_555 1_555
C19 C18 1_555 1_555
H16 C19 1_555 1_555
H17 C19 1_555 1_555
C20 C16 1_555 1_555
H18 C20 1_555 1_555
H19 C20 1_555 1_555
C21 C18 1_555 1_555
H20 C21 1_555 1_555
H21 C21 1_555 1_555
H22 C21 1_555 1_555
C22 N3 1_555 1_555
H23 C22 1_555 1_555
N1A Cd1 1_555 1_555
Cd1A N1 1_555 1_555
N5 C22 1_555 1_555
N6 N7 1_555 1_555
C7 C8 1_555 1_555
C9 C14 1_555 1_555
C13 C14 1_555 1_555
C16 C17 1_555 1_555
C19 C20 1_555 1_555

#END
