
#######################################################################
#
#                 Cambridge Crystallographic Data Centre
#                                CCDC 
#
#######################################################################
#
# If this CIF has been generated from an entry in the Cambridge 
# Structural Database, then it will include bibliographic, chemical, 
# crystal, experimental, refinement or atomic coordinate data resulting 
# from the CCDC's data processing and validation procedures.
#
#######################################################################

data_YAJSEJ
_symmetry_cell_setting           monoclinic
_symmetry_space_group_name_H-M   'C 2/c'
_symmetry_Int_Tables_number      15
_space_group_name_Hall           '-C 2yn'
loop_
_symmetry_equiv_pos_site_id
_symmetry_equiv_pos_as_xyz
1 x,y,z
2 -x,y,1/2-z
3 1/2+x,1/2+y,z
4 1/2-x,1/2+y,1/2-z
5 -x,-y,-z
6 x,-y,1/2+z
7 1/2-x,1/2-y,-z
8 1/2+x,1/2-y,1/2+z
_cell_length_a                   19.217(14)
_cell_length_b                   9.514(7)
_cell_length_c                   12.334(9)
_cell_angle_alpha                90
_cell_angle_beta                 129.93
_cell_angle_gamma                90
_cell_volume                     1729.22
loop_
_atom_site_label
_atom_site_type_symbol
_atom_site_fract_x
_atom_site_fract_y
_atom_site_fract_z
Ni1 Ni 0.13226(8) 0.20667(11) 0.06307(11)
O1 O 0.1203(4) 0.4096(6) 0.0016(6)
O2 O 0.1077(4) 0.3415(5) -0.1834(6)
O3 O 0.1554(4) 1.0775(6) -0.0462(6)
O4 O 0.1366(4) 0.9546(6) 0.0861(5)
C1 C 0.1318(5) 0.8525(8) -0.2026(8)
H1 H 0.1349 0.9438 -0.2263
C2 C 0.1347(5) 0.8335(8) -0.0885(8)
C3 C 0.1269(5) 0.6973(9) -0.0554(7)
H2 H 0.1258 0.6811 0.0179
C4 C 0.1208(5) 0.5856(9) -0.1351(8)
C5 C 0.1168(5) 0.6146(8) -0.2490(8)
H3 H 0.1083 0.5404 -0.3055
C6 C 0.1430(6) 0.9639(9) -0.0115(8)
C7 C 0.1163(5) 0.4331(9) -0.1040(8)
O5 O 0.2705(3) 0.2318(6) 0.2112(5)
O6 O -0.0057(4) 0.1694(6) -0.0900(6)
N1 N 0.1246(4) 0.7456(7) -0.2816(6)
Ni1_2 Ni 0.13226(8) 1.20667(11) 0.06307(11)
Ni1E Ni 0.13226(8) 0.79333(11) -0.43693(11)
O3_2 O 0.1554(4) 0.0775(6) -0.0462(6)
O4_2 O 0.1366(4) -0.0454(6) 0.0861(5)
N1E N 0.1246(4) 0.2544(7) 0.2184(6)
loop_
_geom_bond_atom_site_label_1
_geom_bond_atom_site_label_2
_geom_bond_site_symmetry_1
_geom_bond_site_symmetry_2
Ni1 O1 1_555 1_555
O1 C7 1_555 1_555
O2 C7 1_555 1_555
O3 C6 1_555 1_555
O4 C6 1_555 1_555
C1 H1 1_555 1_555
C2 C1 1_555 1_555
C3 C2 1_555 1_555
H2 C3 1_555 1_555
C4 C3 1_555 1_555
C5 C4 1_555 1_555
H3 C5 1_555 1_555
C6 C2 1_555 1_555
C7 C4 1_555 1_555
O5 Ni1 1_555 1_555
O6 Ni1 1_555 1_555
N1 C1 1_555 1_555
Ni1_2 O3 1_555 1_555
Ni1E N1 1_555 1_555
O3_2 Ni1 1_555 1_555
O4_2 Ni1 1_555 1_555
N1E Ni1 1_555 1_555
O4 Ni1_2 1_555 1_555
C5 N1 1_555 1_555

#END
