
#######################################################################
#
#                 Cambridge Crystallographic Data Centre
#                                CCDC 
#
#######################################################################
#
# If this CIF has been generated from an entry in the Cambridge 
# Structural Database, then it will include bibliographic, chemical, 
# crystal, experimental, refinement or atomic coordinate data resulting 
# from the CCDC's data processing and validation procedures.
#
#######################################################################

data_YAJSOT
_symmetry_cell_setting           orthorhombic
_symmetry_space_group_name_H-M   'P c a 21'
_symmetry_Int_Tables_number      29
_space_group_name_Hall           'P 2c -2ac'
loop_
_symmetry_equiv_pos_site_id
_symmetry_equiv_pos_as_xyz
1 x,y,z
2 -x,-y,1/2+z
3 1/2+x,-y,z
4 1/2-x,y,1/2+z
_cell_length_a                   24.513(5)
_cell_length_b                   6.7339(14)
_cell_length_c                   13.993(3)
_cell_angle_alpha                90
_cell_angle_beta                 90
_cell_angle_gamma                90
_cell_volume                     2309.8
loop_
_atom_site_label
_atom_site_type_symbol
_atom_site_fract_x
_atom_site_fract_y
_atom_site_fract_z
Ni1 Ni 0.47056(3) 0.02363(12) 0.51894(7)
N1 N 0.4171(2) 0.0573(9) 0.6349(4)
C1 C 0.3626(3) 0.0809(10) 0.6232(5)
H1 H 0.3486 0.0851 0.5615
C2 C 0.3272(3) 0.0988(11) 0.6990(6)
C3 C 0.3478(3) 0.0890(11) 0.7903(5)
H2 H 0.3247 0.0969 0.8427
C4 C 0.4041(3) 0.0668(10) 0.8034(5)
C5 C 0.4364(3) 0.0548(10) 0.7235(5)
H3 H 0.4740 0.0443 0.7319
C6 C 0.2658(3) 0.1198(13) 0.6814(6)
C7 C 0.4291(3) 0.0581(11) 0.9018(5)
O1 O 0.2496(2) 0.0959(9) 0.5987(4)
O2 O 0.2373(2) 0.1676(11) 0.7514(4)
O3 O 0.47809(18) 0.0064(7) 0.9047(4)
O4 O 0.39987(19) 0.1000(8) 0.9709(4)
O9 O 0.5267(2) -0.1172(9) 0.6100(4)
H7 H 0.512(3) -0.273(11) 0.642(6)
H8 H 0.553(3) -0.152(12) 0.571(6)
O10 O 0.4168(3) 0.1685(12) 0.4296(5)
H9 H 0.406(6) 0.28(3) 0.491(15)
H10 H 0.431(3) 0.231(11) 0.419(6)
O11 O 0.5103(2) 0.2902(9) 0.5484(5)
H11 H 0.510(3) 0.359(13) 0.603(7)
H12 H 0.505(3) 0.385(12) 0.506(7)
O12 O 0.4371(3) -0.2396(12) 0.4791(7)
H13 H 0.405(2) -0.305(8) 0.495(4)
H14 H 0.443(5) -0.257(19) 0.446(8)
Ni1A Ni 0.52944(3) -0.02363(12) 1.01894(7)
O3A O 0.52191(18) -0.0064(7) 0.4047(4)
Ni2 Ni 0.71412(3) 0.40312(14) 0.47979(7)
N2 N 0.6628(2) 0.4056(9) 0.3617(4)
C8 C 0.6853(3) 0.3945(10) 0.2744(5)
H4 H 0.7228 0.3748 0.2704
C9 C 0.6561(3) 0.4106(10) 0.1900(5)
C10 C 0.6001(3) 0.4370(11) 0.1969(5)
H5 H 0.5789 0.4501 0.1421
C11 C 0.5761(3) 0.4434(9) 0.2861(5)
C12 C 0.6091(3) 0.4284(10) 0.3669(5)
H6 H 0.5928 0.4346 0.4268
C13 C 0.6856(3) 0.4101(11) 0.0958(6)
C14 C 0.5150(3) 0.4682(10) 0.2951(6)
O5 O 0.73618(19) 0.4089(8) 0.0977(4)
O6 O 0.65667(19) 0.4100(9) 0.0224(4)
O7 O 0.4876(2) 0.4751(9) 0.2193(4)
O8 O 0.49509(19) 0.4845(8) 0.3774(4)
O13 O 0.7705(3) 0.5617(15) 0.4022(7)
H15 H 0.769(5) 0.64(2) 0.362(11)
H16 H 0.757(3) 0.675(13) 0.433(6)
O14 O 0.7501(2) 0.1364(9) 0.4384(4)
H17 H 0.7704(19) 0.267(8) 0.394(4)
O15 O 0.6744(2) 0.6395(9) 0.5408(5)
H20 H 0.697(4) 0.762(14) 0.573(6)
O16 O 0.6610(2) 0.2232(10) 0.5579(5)
H21 H 0.621(4) 0.121(15) 0.526(9)
H26 H 0.652(5) 0.26(2) 0.624(12)
Ni2C Ni 0.78588(3) 0.40312(14) -0.02021(7)
O5C O 0.76382(19) 0.4089(8) 0.5977(4)
O17 O 0.8445(3) 1.0599(14) 0.3250(6)
H22 H 0.850(4) 1.211(18) 0.270(9)
H23 H 0.872(2) 0.956(9) 0.270(4)
O18 O 0.6235(3) 0.4187(15) 0.7318(7)
H18? H 0.755(10) 0.05(3) 0.060(17)
H19? H 0.701(3) 0.677(12) 0.477(7)
H24? H 0.646(6) 0.57(2) 0.733(12)
H25? H 0.642(6) 0.84(2) 0.746(11)
loop_
_geom_bond_atom_site_label_1
_geom_bond_atom_site_label_2
_geom_bond_site_symmetry_1
_geom_bond_site_symmetry_2
Ni1 N1 1_555 1_555
Ni2 N2 1_555 1_555
N1 C1 1_555 1_555
N2 C8 1_555 1_555
C1 H1 1_555 1_555
C2 C1 1_555 1_555
C3 C2 1_555 1_555
H2 C3 1_555 1_555
C4 C3 1_555 1_555
C5 N1 1_555 1_555
H3 C5 1_555 1_555
C6 C2 1_555 1_555
C7 C4 1_555 1_555
C8 H4 1_555 1_555
C9 C8 1_555 1_555
C10 C9 1_555 1_555
H5 C10 1_555 1_555
C11 C10 1_555 1_555
C12 N2 1_555 1_555
H6 C12 1_555 1_555
C13 C9 1_555 1_555
C14 C11 1_555 1_555
O1 C6 1_555 1_555
O2 C6 1_555 1_555
O3 C7 1_555 1_555
O4 C7 1_555 1_555
O5 C13 1_555 1_555
O6 C13 1_555 1_555
O7 C14 1_555 1_555
O8 C14 1_555 1_555
O9 Ni1 1_555 1_555
H7 O9 1_555 1_555
H8 O9 1_555 1_555
O10 Ni1 1_555 1_555
H9 O10 1_555 1_555
H10 O10 1_555 1_555
O11 Ni1 1_555 1_555
H11 O11 1_555 1_555
H12 O11 1_555 1_555
O12 Ni1 1_555 1_555
H13 O12 1_555 1_555
H14 O12 1_555 1_555
O13 Ni2 1_555 1_555
H15 O13 1_555 1_555
H16 O13 1_555 1_555
O14 Ni2 1_555 1_555
H17 O14 1_555 1_555
O15 Ni2 1_555 1_555
H20 O15 1_555 1_555
O16 Ni2 1_555 1_555
H21 O16 1_555 1_555
O17 H22 1_555 1_555
H23 O17 1_555 1_555
H26 O16 1_555 1_555
Ni1A O3 1_555 1_555
Ni2C O5 1_555 1_555
O3A Ni1 1_555 1_555
O5C Ni2 1_555 1_555
C4 C5 1_555 1_555
C11 C12 1_555 1_555

#END
