
#######################################################################
#
#                 Cambridge Crystallographic Data Centre
#                                CCDC 
#
#######################################################################
#
# If this CIF has been generated from an entry in the Cambridge 
# Structural Database, then it will include bibliographic, chemical, 
# crystal, experimental, refinement or atomic coordinate data resulting 
# from the CCDC's data processing and validation procedures.
#
#######################################################################

data_YAKLED
_symmetry_cell_setting           triclinic
_symmetry_space_group_name_H-M   'P -1'
_symmetry_Int_Tables_number      2
_space_group_name_Hall           '-P 1'
loop_
_symmetry_equiv_pos_site_id
_symmetry_equiv_pos_as_xyz
1 x,y,z
2 -x,-y,-z
_cell_length_a                   10.080(3)
_cell_length_b                   11.589(4)
_cell_length_c                   11.589(4)
_cell_angle_alpha                88.57
_cell_angle_beta                 74.742(3)
_cell_angle_gamma                74.742(3)
_cell_volume                     1258.61
loop_
_atom_site_label
_atom_site_type_symbol
_atom_site_fract_x
_atom_site_fract_y
_atom_site_fract_z
Mo1 Mo 0.80321(4) 0.44712(4) 0.43582(4)
Mo2 Mo 0.59787(5) 0.31107(4) 0.32104(4)
Mo3 Mo 0.51178(4) 0.61761(4) 0.39628(4)
Mo4 Mo 0.30009(5) 0.48364(4) 0.27395(4)
Ni1 Ni 0.13583(7) 0.22630(5) 0.26290(6)
C1 C 0.2869(7) 0.0672(6) 0.5500(6)
H1 H 0.3321 0.0611 0.6111
C2 C 0.2507(7) -0.0239(6) 0.5026(6)
H2 H 0.2661 -0.1032 0.5241
C3 C 0.1867(6) 0.0283(5) 0.4164(5)
C4 C 0.1224(6) -0.0169(5) 0.3319(5)
C5 C 0.1077(7) -0.1338(5) 0.3355(6)
H3 H 0.1407 -0.1872 0.3894
C6 C 0.0412(7) -0.1673(6) 0.2543(6)
H4 H 0.0271 -0.2434 0.2541
C7 C -0.0022(7) -0.0863(6) 0.1761(6)
H5 H -0.0455 -0.1075 0.1213
C8 C 0.0172(6) 0.0282(5) 0.1770(5)
H6 H -0.0148 0.0826 0.1235
C9 C 0.4604(6) 0.1011(5) 0.1596(5)
H7 H 0.4573 0.0631 0.2315
C10 C 0.5911(7) 0.0898(7) 0.0772(7)
H8 H 0.6736 0.0429 0.0937
C11 C 0.6000(8) 0.1464(8) -0.0272(8)
H9 H 0.6884 0.1414 -0.0806
C12 C 0.4770(8) 0.2112(8) -0.0534(7)
H10 H 0.4801 0.2502 -0.1247
C13 C 0.3471(6) 0.2166(5) 0.0306(5)
C14 C 0.2082(7) 0.2803(5) 0.0113(5)
C15 C 0.1638(8) 0.3305(6) -0.0886(6)
H11 H 0.2205 0.3366 -0.1648
C16 C 0.0199(8) 0.3678(6) -0.0487(6)
H12 H -0.0419 0.4039 -0.0942
N1 N 0.2458(5) 0.1659(4) 0.4928(4)
H13 H 0.2573 0.2343 0.5078
N2 N 0.1841(5) 0.1450(4) 0.4090(4)
N3 N 0.0813(5) 0.0615(4) 0.2534(4)
N4 N 0.0981(5) 0.2892(4) 0.1065(4)
N5 N -0.0188(6) 0.3440(5) 0.0675(5)
H14 H -0.1053 0.3609 0.1113
N6 N 0.3395(5) 0.1646(4) 0.1388(4)
O1 O 0.2545(5) 0.5480(4) 0.1528(4)
O2 O 0.2178(4) 0.3679(4) 0.3002(4)
O3 O 0.4922(4) 0.3915(4) 0.2148(3)
O4 O 0.5252(5) 0.1944(4) 0.3605(4)
O5 O 0.7597(5) 0.2508(4) 0.2211(4)
O6 O 0.5846(4) 0.5514(3) 0.5486(3)
O7 O 0.3425(4) 0.6827(3) 0.5261(3)
O8 O 0.5870(5) 0.7343(4) 0.3693(4)
O9 O 0.6759(4) 0.4840(3) 0.3253(3)
O10 O 0.4246(4) 0.6194(3) 0.2840(4)
O11 O 0.1787(4) 0.5868(3) 0.4080(3)
O12 O 0.8654(4) 0.5705(4) 0.4082(4)
O13 O 0.9368(4) 0.3298(4) 0.3552(4)
Mo1A Mo 0.19679(4) 0.55288(4) 0.56418(4)
Mo2A Mo 0.40213(5) 0.68893(4) 0.67896(4)
Mo3A Mo 0.48822(4) 0.38239(4) 0.60372(4)
Ni1_2 Ni 1.13583(7) 0.22630(5) 0.26290(6)
O6A O 0.4154(4) 0.4486(3) 0.4514(3)
O7A O 0.6575(4) 0.3173(3) 0.4739(3)
O11A O 0.8213(4) 0.4132(3) 0.5920(3)
O13_2 O -0.0632(4) 0.3298(4) 0.3552(4)
loop_
_geom_bond_atom_site_label_1
_geom_bond_atom_site_label_2
_geom_bond_site_symmetry_1
_geom_bond_site_symmetry_2
Mo1 O6 1_555 1_555
Mo2 O3 1_555 1_555
Mo3 O6 1_555 1_555
Mo4 O1 1_555 1_555
Ni1 N2 1_555 1_555
C1 H1 1_555 1_555
C2 C1 1_555 1_555
H2 C2 1_555 1_555
C3 C2 1_555 1_555
C4 C3 1_555 1_555
C5 C4 1_555 1_555
H3 C5 1_555 1_555
C6 C5 1_555 1_555
H4 C6 1_555 1_555
C7 C6 1_555 1_555
H5 C7 1_555 1_555
C8 C7 1_555 1_555
H6 C8 1_555 1_555
C9 H7 1_555 1_555
C10 C9 1_555 1_555
H8 C10 1_555 1_555
C11 C10 1_555 1_555
H9 C11 1_555 1_555
C12 C11 1_555 1_555
H10 C12 1_555 1_555
C13 C12 1_555 1_555
C14 C13 1_555 1_555
C15 C14 1_555 1_555
H11 C15 1_555 1_555
C16 C15 1_555 1_555
H12 C16 1_555 1_555
N1 C1 1_555 1_555
H13 N1 1_555 1_555
N2 C3 1_555 1_555
N3 Ni1 1_555 1_555
N4 Ni1 1_555 1_555
N5 C16 1_555 1_555
H14 N5 1_555 1_555
N6 Ni1 1_555 1_555
O2 Mo4 1_555 1_555
O3 Mo4 1_555 1_555
O4 Mo2 1_555 1_555
O5 Mo2 1_555 1_555
O6 Mo2A 1_555 1_555
O7 Mo3 1_555 1_555
O8 Mo3 1_555 1_555
O9 Mo1 1_555 1_555
O10 Mo3 1_555 1_555
O11 Mo4 1_555 1_555
O12 Mo1 1_555 1_555
O13 Mo1 1_555 1_555
Mo1A O7 1_555 1_555
Mo2A O7 1_555 1_555
Mo3A O6 1_555 1_555
Ni1_2 O13 1_555 1_555
O6A Mo2 1_555 1_555
O7A Mo1 1_555 1_555
O11A Mo1 1_555 1_555
O13_2 Ni1 1_555 1_555
Mo2 O9 1_555 1_555
Mo2 O7A 1_555 1_555
Mo3 O9 1_555 1_555
Mo3 O6A 1_555 1_555
Mo4 O10 1_555 1_555
Ni1 O2 1_555 1_555
C4 N3 1_555 1_555
C8 N3 1_555 1_555
C9 N6 1_555 1_555
C13 N6 1_555 1_555
C14 N4 1_555 1_555
N1 N2 1_555 1_555
N4 N5 1_555 1_555
O11 Mo1A 1_555 1_555
Mo1A O6A 1_555 1_555
Mo3A O6A 1_555 1_555
Mo3A O7A 1_555 1_555

#END
