
#######################################################################
#
#                 Cambridge Crystallographic Data Centre
#                                CCDC 
#
#######################################################################
#
# If this CIF has been generated from an entry in the Cambridge 
# Structural Database, then it will include bibliographic, chemical, 
# crystal, experimental, refinement or atomic coordinate data resulting 
# from the CCDC's data processing and validation procedures.
#
#######################################################################

data_YAKLAZ
_symmetry_cell_setting           triclinic
_symmetry_space_group_name_H-M   'P -1'
_symmetry_Int_Tables_number      2
_space_group_name_Hall           '-P 1'
loop_
_symmetry_equiv_pos_site_id
_symmetry_equiv_pos_as_xyz
1 x,y,z
2 -x,-y,-z
_cell_length_a                   10.065(3)
_cell_length_b                   11.583(3)
_cell_length_c                   11.583(3)
_cell_angle_alpha                88.79
_cell_angle_beta                 74.772(2)
_cell_angle_gamma                74.772(2)
_cell_volume                     1255.55
loop_
_atom_site_label
_atom_site_type_symbol
_atom_site_fract_x
_atom_site_fract_y
_atom_site_fract_z
Mo1 Mo -0.49130(3) 0.61834(3) 0.39853(3)
Mo2 Mo -0.39882(3) 0.31230(3) 0.31834(3)
Mo3 Mo -0.69852(4) 0.48175(3) 0.27563(3)
Mo4 Mo -0.19749(3) 0.45160(3) 0.43430(3)
Co1 Co -0.86561(5) 0.22546(4) 0.26043(5)
C1 C -0.9839(5) 0.0201(4) 0.1790(4)
H1 H -1.0147 0.0731 0.1241
C2 C -1.0056(6) -0.0921(4) 0.1802(5)
H2 H -1.0498 -0.1142 0.1263
C3 C -0.9623(5) -0.1715(4) 0.2609(5)
H3 H -0.9772 -0.2476 0.2633
C4 C -0.8961(5) -0.1356(4) 0.3381(4)
H4 H -0.8640 -0.1880 0.3930
C5 C -0.8775(4) -0.0217(4) 0.3342(4)
C6 C -0.8141(5) 0.0256(4) 0.4159(4)
C7 C -0.7463(5) -0.0268(4) 0.5004(5)
H5 H -0.7303 -0.1062 0.5215
C8 C -0.7072(5) 0.0638(5) 0.5469(5)
H6 H -0.6592 0.0569 0.6063
C9 C -0.5376(5) 0.1045(4) 0.1520(4)
H7 H -0.5406 0.0665 0.2239
C10 C -0.4060(5) 0.0945(5) 0.0710(5)
H8 H -0.3232 0.0487 0.0880
C11 C -0.3981(6) 0.1512(6) -0.0325(6)
H9 H -0.3099 0.1480 -0.0856
C12 C -0.5242(6) 0.2148(5) -0.0589(5)
H10 H -0.5225 0.2531 -0.1304
C13 C -0.6508(5) 0.2186(4) 0.0245(4)
C14 C -0.7905(5) 0.2794(4) 0.0067(4)
C15 C -0.8339(6) 0.3331(5) -0.0923(4)
H11 H -0.7763 0.3414 -0.1675
C16 C -0.9795(6) 0.3704(4) -0.0535(5)
H12 H -1.0410 0.4094 -0.0980
N1 N -0.8152(4) 0.1415(3) 0.4098(3)
N2 N -0.9198(4) 0.0562(3) 0.2539(3)
N3 N -0.7506(4) 0.1630(3) 0.4915(3)
H13 H -0.7388 0.2316 0.5062
N4 N -0.9025(4) 0.2858(3) 0.0990(3)
N5 N -1.0172(4) 0.3407(3) 0.0598(4)
H14 H -1.1042 0.3547 0.1028
N6 N -0.6595(4) 0.1661(3) 0.1313(3)
O1 O -0.7480(4) 0.5452(3) 0.1561(3)
O2 O -0.8221(3) 0.5830(2) 0.4107(3)
O3 O -0.3258(3) 0.4862(2) 0.3255(2)
O4 O -0.5793(3) 0.6198(2) 0.2872(3)
O5 O -0.4170(3) 0.5521(2) 0.5492(2)
O6 O -0.2372(3) 0.2535(3) 0.2179(3)
O7 O -0.5057(3) 0.3930(3) 0.2142(2)
O8 O -0.6609(3) 0.6811(2) 0.5299(2)
O9 O -0.0623(3) 0.3363(3) 0.3520(3)
O10 O -0.7751(3) 0.3628(3) 0.3021(3)
O11 O -0.4191(3) 0.7368(3) 0.3723(3)
O12 O -0.4693(3) 0.1942(3) 0.3562(3)
O13 O -0.1379(3) 0.5763(3) 0.4078(3)
Mo1A Mo -0.50870(3) 0.38166(3) 0.60147(3)
Mo2A Mo -0.60118(3) 0.68770(3) 0.68166(3)
Mo4A Mo -0.80251(3) 0.54840(3) 0.56570(3)
Co1_2 Co 0.13439(5) 0.22546(4) 0.26043(5)
O2A O -0.1779(3) 0.4170(2) 0.5893(3)
O5A O -0.5830(3) 0.4479(2) 0.4508(2)
O8A O -0.3391(3) 0.3189(2) 0.4701(2)
O9_2 O -1.0623(3) 0.3363(3) 0.3520(3)
loop_
_geom_bond_atom_site_label_1
_geom_bond_atom_site_label_2
_geom_bond_site_symmetry_1
_geom_bond_site_symmetry_2
Mo1 O3 1_555 1_555
Mo2 O3 1_555 1_555
Mo3 O1 1_555 1_555
Mo4 O3 1_555 1_555
Co1 N1 1_555 1_555
C1 H1 1_555 1_555
C2 C1 1_555 1_555
H2 C2 1_555 1_555
C3 C2 1_555 1_555
H3 C3 1_555 1_555
C4 C3 1_555 1_555
H4 C4 1_555 1_555
C5 C4 1_555 1_555
C6 C5 1_555 1_555
C7 C6 1_555 1_555
H5 C7 1_555 1_555
C8 C7 1_555 1_555
H6 C8 1_555 1_555
C9 H7 1_555 1_555
C10 C9 1_555 1_555
H8 C10 1_555 1_555
C11 C10 1_555 1_555
H9 C11 1_555 1_555
C12 C11 1_555 1_555
H10 C12 1_555 1_555
C13 C12 1_555 1_555
C14 C13 1_555 1_555
C15 C14 1_555 1_555
H11 C15 1_555 1_555
C16 C15 1_555 1_555
H12 C16 1_555 1_555
N1 C6 1_555 1_555
N2 Co1 1_555 1_555
N3 C8 1_555 1_555
H13 N3 1_555 1_555
N4 Co1 1_555 1_555
N5 C16 1_555 1_555
H14 N5 1_555 1_555
N6 Co1 1_555 1_555
O2 Mo3 1_555 1_555
O4 Mo1 1_555 1_555
O5 Mo1 1_555 1_555
O6 Mo2 1_555 1_555
O7 Mo2 1_555 1_555
O8 Mo1 1_555 1_555
O9 Mo4 1_555 1_555
O10 Mo3 1_555 1_555
O11 Mo1 1_555 1_555
O12 Mo2 1_555 1_555
O13 Mo4 1_555 1_555
Mo1A O5 1_555 1_555
Mo2A O5 1_555 1_555
Mo4A O2 1_555 1_555
Co1_2 O9 1_555 1_555
O2A Mo4 1_555 1_555
O5A Mo1 1_555 1_555
O8A Mo2 1_555 1_555
O9_2 Co1 1_555 1_555
Mo2 O5A 1_555 1_555
Mo3 O4 1_555 1_555
Mo3 O7 1_555 1_555
Mo4 O5 1_555 1_555
Mo4 O8A 1_555 1_555
Co1 O10 1_555 1_555
C1 N2 1_555 1_555
C5 N2 1_555 1_555
C9 N6 1_555 1_555
C13 N6 1_555 1_555
C14 N4 1_555 1_555
N1 N3 1_555 1_555
N4 N5 1_555 1_555
O8 Mo2A 1_555 1_555
O8 Mo4A 1_555 1_555
Mo1A O5A 1_555 1_555
Mo1A O8A 1_555 1_555
Mo4A O5A 1_555 1_555

#END
