
#######################################################################
#
#                 Cambridge Crystallographic Data Centre
#                                CCDC 
#
#######################################################################
#
# If this CIF has been generated from an entry in the Cambridge 
# Structural Database, then it will include bibliographic, chemical, 
# crystal, experimental, refinement or atomic coordinate data resulting 
# from the CCDC's data processing and validation procedures.
#
#######################################################################

data_YAKNII
_symmetry_cell_setting           monoclinic
_symmetry_space_group_name_H-M   'C c'
_symmetry_Int_Tables_number      9
_space_group_name_Hall           'C -2yc'
loop_
_symmetry_equiv_pos_site_id
_symmetry_equiv_pos_as_xyz
1 x,y,z
2 x,-y,1/2+z
3 1/2+x,1/2+y,z
4 1/2+x,1/2-y,1/2+z
_cell_length_a                   21.736(5)
_cell_length_b                   9.285(2)
_cell_length_c                   16.0170(10)
_cell_angle_alpha                90
_cell_angle_beta                 112.320(10)
_cell_angle_gamma                90
_cell_volume                     2990.34
loop_
_atom_site_label
_atom_site_type_symbol
_atom_site_fract_x
_atom_site_fract_y
_atom_site_fract_z
Ag1 Ag 0.00000 0.75546(6) 0.00000
C1 C 0.0885(5) 0.7979(11) 0.1773(6)
O1 O 0.0950(3) 0.8602(7) 0.1135(4)
O2 O 0.0469(4) 0.6990(8) 0.1680(4)
C2 C 0.1339(6) 0.8445(16) 0.2712(6)
C3 C -0.0237(4) 0.6172(8) -0.2183(5)
C4 C -0.0254(4) 0.7712(8) -0.2534(5)
C5 C -0.0681(4) 0.7853(8) -0.3540(5)
C6 C -0.0661(4) 0.9362(8) -0.3889(5)
C7 C -0.1064(4) 0.9488(8) -0.4900(5)
P1 P 0.03298(11) 0.6084(2) -0.10060(14)
C8 C 0.1113(4) 0.6477(8) -0.1115(5)
C9 C 0.1507(5) 0.7585(9) -0.0621(8)
C10 C 0.2069(5) 0.8010(12) -0.0770(8)
C11 C 0.2250(5) 0.7298(12) -0.1412(8)
C12 C 0.1862(5) 0.6159(11) -0.1888(7)
C13 C 0.1306(4) 0.5763(10) -0.1748(5)
C14 C 0.0391(4) 0.4208(8) -0.0676(5)
C15 C 0.0630(5) 0.3881(10) 0.0227(6)
C16 C 0.0709(7) 0.2481(14) 0.0535(10)
C17 C 0.0538(6) 0.1375(13) -0.0065(11)
C18 C 0.0275(6) 0.1676(11) -0.0974(11)
C19 C 0.0212(5) 0.3075(10) -0.1294(7)
P2 P -0.10720(10) 1.1309(2) -0.53315(13)
C20 C -0.1632(4) 1.2242(8) -0.4908(6)
C21 C -0.1372(5) 1.3358(11) -0.4278(7)
C22 C -0.1806(6) 1.4070(11) -0.3955(7)
C23 C -0.2455(5) 1.3701(12) -0.4217(7)
C24 C -0.2703(4) 1.2596(10) -0.4834(6)
C25 C -0.2289(4) 1.1884(10) -0.5165(5)
C26 C -0.1569(3) 1.1119(9) -0.6540(5)
C27 C -0.1944(5) 1.2278(9) -0.7018(6)
C28 C -0.2318(5) 1.2141(12) -0.7948(7)
C29 C -0.2307(5) 1.0931(12) -0.8389(5)
C30 C -0.1916(5) 0.9782(12) -0.7934(6)
C31 C -0.1552(4) 0.9893(9) -0.7012(5)
H1 H 0.14942 0.94156 0.26850
H2 H 0.11020 0.84554 0.31030
H3 H 0.17097 0.78322 0.29411
H4 H -0.00761 0.55409 -0.25277
H5 H -0.06631 0.58895 -0.22351
H6 H -0.04326 0.83352 -0.22086
H7 H 0.01882 0.80213 -0.24342
H8 H -0.05128 0.72030 -0.38681
H9 H -0.11252 0.75977 -0.36409
H10 H -0.08526 0.99995 -0.35811
H11 H -0.02200 0.96263 -0.37656
H12 H -0.08767 0.88546 -0.52051
H13 H -0.15120 0.92026 -0.50212
H14 H 0.13933 0.80570 -0.01718
H15 H 0.23317 0.87812 -0.04272
H16 H 0.26360 0.75776 -0.15178
H17 H 0.19788 0.56602 -0.23217
H18 H 0.10535 0.49927 -0.20787
H19 H 0.07548 0.46296 0.06629
H20 H 0.08692 0.22587 0.11541
H21 H 0.06013 0.04020 0.01345
H22 H 0.01321 0.09035 -0.13948
H23 H 0.00444 0.32423 -0.19375
H24 H -0.09121 1.36053 -0.40663
H25 H -0.16317 1.48461 -0.35339
H26 H -0.27393 1.42004 -0.39805
H27 H -0.31581 1.23154 -0.50344
H28 H -0.24664 1.11360 -0.55811
H29 H -0.19466 1.31618 -0.67158
H30 H -0.25712 1.29403 -0.82676
H31 H -0.25762 1.08272 -0.90188
H32 H -0.18896 0.89262 -0.82474
H33 H -0.12830 0.91100 -0.66979
Ag1A Ag 0.00000 1.24454(6) -0.50000
P2A P -0.10720(10) 0.8691(2) -0.03315(13)
loop_
_geom_bond_atom_site_label_1
_geom_bond_atom_site_label_2
_geom_bond_site_symmetry_1
_geom_bond_site_symmetry_2
Ag1 O1 1_555 1_555
C1 O1 1_555 1_555
O2 Ag1 1_555 1_555
C2 C1 1_555 1_555
C3 C4 1_555 1_555
C4 C5 1_555 1_555
C5 C6 1_555 1_555
C6 C7 1_555 1_555
C7 P2 1_555 1_555
P1 Ag1 1_555 1_555
C8 P1 1_555 1_555
C9 C8 1_555 1_555
C10 C9 1_555 1_555
C11 C10 1_555 1_555
C12 C11 1_555 1_555
C13 C8 1_555 1_555
C14 P1 1_555 1_555
C15 C14 1_555 1_555
C16 C15 1_555 1_555
C17 C16 1_555 1_555
C18 C17 1_555 1_555
C19 C14 1_555 1_555
P2 C20 1_555 1_555
C20 C21 1_555 1_555
C21 C22 1_555 1_555
C22 C23 1_555 1_555
C23 C24 1_555 1_555
C24 C25 1_555 1_555
C25 C20 1_555 1_555
C26 P2 1_555 1_555
C27 C26 1_555 1_555
C28 C27 1_555 1_555
C29 C28 1_555 1_555
C30 C29 1_555 1_555
C31 C26 1_555 1_555
H1 C2 1_555 1_555
H2 C2 1_555 1_555
H3 C2 1_555 1_555
H4 C3 1_555 1_555
H5 C3 1_555 1_555
H6 C4 1_555 1_555
H7 C4 1_555 1_555
H8 C5 1_555 1_555
H9 C5 1_555 1_555
H10 C6 1_555 1_555
H11 C6 1_555 1_555
H12 C7 1_555 1_555
H13 C7 1_555 1_555
H14 C9 1_555 1_555
H15 C10 1_555 1_555
H16 C11 1_555 1_555
H17 C12 1_555 1_555
H18 C13 1_555 1_555
H19 C15 1_555 1_555
H20 C16 1_555 1_555
H21 C17 1_555 1_555
H22 C18 1_555 1_555
H23 C19 1_555 1_555
H24 C21 1_555 1_555
H25 C22 1_555 1_555
H26 C23 1_555 1_555
H27 C24 1_555 1_555
H28 C25 1_555 1_555
H29 C27 1_555 1_555
H30 C28 1_555 1_555
H31 C29 1_555 1_555
H32 C30 1_555 1_555
H33 C31 1_555 1_555
Ag1A P2 1_555 1_555
P2A Ag1 1_555 1_555
C1 O2 1_555 1_555
C3 P1 1_555 1_555
C12 C13 1_555 1_555
C18 C19 1_555 1_555
C30 C31 1_555 1_555

#END
