
#######################################################################
#
#                 Cambridge Crystallographic Data Centre
#                                CCDC 
#
#######################################################################
#
# If this CIF has been generated from an entry in the Cambridge 
# Structural Database, then it will include bibliographic, chemical, 
# crystal, experimental, refinement or atomic coordinate data resulting 
# from the CCDC's data processing and validation procedures.
#
#######################################################################

data_YAKYEP
_symmetry_cell_setting           monoclinic
_symmetry_space_group_name_H-M   'C 2/c'
_symmetry_Int_Tables_number      15
_space_group_name_Hall           '-C 2yn'
loop_
_symmetry_equiv_pos_site_id
_symmetry_equiv_pos_as_xyz
1 x,y,z
2 1/2+x,1/2+y,z
3 -x,y,1/2-z
4 1/2-x,1/2+y,1/2-z
5 -x,-y,-z
6 1/2-x,1/2-y,-z
7 x,-y,1/2+z
8 1/2+x,1/2-y,1/2+z
_cell_length_a                   17.875(2)
_cell_length_b                   7.3093(9)
_cell_length_c                   20.382(2)
_cell_angle_alpha                90
_cell_angle_beta                 92.890(2)
_cell_angle_gamma                90
_cell_volume                     2659.6
loop_
_atom_site_label
_atom_site_type_symbol
_atom_site_fract_x
_atom_site_fract_y
_atom_site_fract_z
Cu1 Cu 0.162282(15) 0.69740(4) 0.210488(14)
C1 C 0.18704(15) 1.2471(4) 0.05961(13)
H1 H 0.2362 1.2400 0.0767
C2 C 0.16549(17) 1.3899(4) 0.01862(15)
H2 H 0.1997 1.4811 0.0093
C3 C 0.09339(18) 1.3977(4) -0.00861(14)
H3 H 0.0798 1.4903 -0.0381
C4 C 0.04163(17) 1.2686(4) 0.00783(15)
H4 H -0.0072 1.2758 -0.0100
C5 C 0.06158(15) 1.1284(4) 0.05060(14)
H5 H 0.0259 1.0440 0.0628
C6 C 0.13539(13) 1.1138(3) 0.07538(11)
C7 C 0.15840(13) 0.9529(3) 0.11587(11)
C8 C 0.28701(12) 0.6141(3) 0.14051(11)
C9 C 0.28390(12) 0.4735(3) 0.19456(11)
C10 C 0.34391(14) 0.6083(4) 0.08978(13)
H6 H 0.3258 0.6753 0.0517
H7 H 0.3529 0.4835 0.0778
H8 H 0.3897 0.6624 0.1071
C11 C 0.0000 0.6795(4) 0.2500
H9 H -0.0122 0.7566 0.2129
C12 C 0.04466(15) 0.4446(5) 0.17884(17)
H10 H 0.0326 0.5202 0.1406
H11 H 0.0869 0.3677 0.1690
C13 C 0.08270(14) 0.4463(4) 0.29451(17)
H12 H 0.1259 0.3703 0.2868
H13 H 0.0950 0.5226 0.3325
C14 C 0.0000 0.2187(7) 0.2500
H14 H -0.0418 0.1416 0.2589
N1 N 0.22349(11) 0.8772(3) 0.10252(10)
N2 N 0.23454(10) 0.7326(3) 0.14506(9)
N3 N 0.06609(10) 0.5647(3) 0.23614(9)
N4 N -0.01917(14) 0.3301(4) 0.1919(2)
O1 O 0.11346(9) 0.8954(3) 0.15838(9)
O2 O 0.22976(9) 0.4870(3) 0.23261(9)
O3 O 0.33318(9) 0.3538(2) 0.19913(9)
Cu1C Cu 0.337718(15) 1.19740(4) 0.289512(14)
Cu1C_2 Cu 0.337718(15) 0.19740(4) 0.289512(14)
Cu1B Cu -0.162282(15) 0.69740(4) 0.289512(14)
C1C C 0.31296(15) 1.7471(4) 0.44039(13)
H1C H 0.2638 1.7400 0.4233
C2C C 0.33451(17) 1.8899(4) 0.48138(15)
H2C H 0.3003 1.9811 0.4907
C3C C 0.40661(18) 1.8977(4) 0.50861(14)
H3C H 0.4202 1.9903 0.5381
C4C C 0.45837(17) 1.7686(4) 0.49217(15)
H4C H 0.5072 1.7758 0.5100
C5C C 0.43842(15) 1.6284(4) 0.44940(14)
H5C H 0.4741 1.5440 0.4372
C6C C 0.36461(13) 1.6138(3) 0.42462(11)
C7C C 0.34160(13) 1.4529(3) 0.38413(11)
C8C C 0.21299(12) 1.1141(3) 0.35949(11)
C9C C 0.21610(12) 0.9735(3) 0.30544(11)
C10C C 0.15609(14) 1.1083(4) 0.41022(13)
H6C H 0.1742 1.1753 0.4483
H7C H 0.1471 0.9835 0.4222
H8C H 0.1103 1.1624 0.3929
H9B H 0.0122 0.7566 0.2871
C12B C -0.04466(15) 0.4446(5) 0.32116(17)
H10B H -0.0326 0.5202 0.3594
H11B H -0.0869 0.3677 0.3310
C13B C -0.08270(14) 0.4463(4) 0.20549(17)
H12B H -0.1259 0.3703 0.2132
H13B H -0.0950 0.5226 0.1675
H14B H 0.0418 0.1416 0.2411
N1C N 0.27651(11) 1.3772(3) 0.39748(10)
N2C N 0.26546(10) 1.2326(3) 0.35494(9)
N3B N -0.06609(10) 0.5647(3) 0.26386(9)
N3C N 0.43391(10) 1.0647(3) 0.26386(9)
N4B N 0.01917(14) 0.3301(4) 0.3081(2)
O1C O 0.38654(9) 1.3954(3) 0.34162(9)
O2C O 0.27024(9) 0.9870(3) 0.26739(9)
O3C O 0.16682(9) 0.8538(2) 0.30087(9)
O3_2 O 0.33318(9) 1.3538(2) 0.19913(9)
loop_
_geom_bond_atom_site_label_1
_geom_bond_atom_site_label_2
_geom_bond_site_symmetry_1
_geom_bond_site_symmetry_2
Cu1 N2 1_555 1_555
C1 H1 1_555 1_555
C2 C1 1_555 1_555
H2 C2 1_555 1_555
C3 C2 1_555 1_555
H3 C3 1_555 1_555
C4 C3 1_555 1_555
H4 C4 1_555 1_555
C5 C4 1_555 1_555
H5 C5 1_555 1_555
C6 C1 1_555 1_555
C7 C6 1_555 1_555
C8 C9 1_555 1_555
C9 O2 1_555 1_555
C10 C8 1_555 1_555
H6 C10 1_555 1_555
H7 C10 1_555 1_555
H8 C10 1_555 1_555
C11 H9 1_555 1_555
C12 H10 1_555 1_555
H11 C12 1_555 1_555
C13 H12 1_555 1_555
H13 C13 1_555 1_555
C14 H14 1_555 1_555
N1 C7 1_555 1_555
N2 C8 1_555 1_555
N3 Cu1 1_555 1_555
N4 C12 1_555 1_555
O1 Cu1 1_555 1_555
O2 Cu1 1_555 1_555
O3 C9 1_555 1_555
Cu1C N2C 1_555 1_555
Cu1C_2 O3 1_555 1_555
Cu1B N3B 1_555 1_555
C1C H1C 1_555 1_555
C2C C1C 1_555 1_555
H2C C2C 1_555 1_555
C3C C2C 1_555 1_555
H3C C3C 1_555 1_555
C4C C3C 1_555 1_555
H4C C4C 1_555 1_555
C5C C4C 1_555 1_555
H5C C5C 1_555 1_555
C6C C1C 1_555 1_555
C7C C6C 1_555 1_555
C8C C9C 1_555 1_555
C9C O2C 1_555 1_555
C10C C8C 1_555 1_555
H6C C10C 1_555 1_555
H7C C10C 1_555 1_555
H8C C10C 1_555 1_555
H9B C11 1_555 1_555
C12B H10B 1_555 1_555
H11B C12B 1_555 1_555
C13B N4 1_555 1_555
H12B C13B 1_555 1_555
H13B C13B 1_555 1_555
H14B C14 1_555 1_555
N1C C7C 1_555 1_555
N2C C8C 1_555 1_555
N3B C11 1_555 1_555
N3C Cu1C 1_555 1_555
N4B C13 1_555 1_555
O1C Cu1C 1_555 1_555
O2C Cu1C 1_555 1_555
O3C Cu1 1_555 1_555
O3_2 Cu1C 1_555 1_555
C5 C6 1_555 1_555
C7 O1 1_555 1_555
C11 N3 1_555 1_555
C12 N3 1_555 1_555
C13 N3 1_555 1_555
C14 N4 1_555 1_555
C14 N4B 1_555 1_555
N1 N2 1_555 1_555
C5C C6C 1_555 1_555
C7C O1C 1_555 1_555
C9C O3C 1_555 1_555
C12B N3B 1_555 1_555
C12B N4B 1_555 1_555
C13B N3B 1_555 1_555
N1C N2C 1_555 1_555

#END
