
#######################################################################
#
#                 Cambridge Crystallographic Data Centre
#                                CCDC 
#
#######################################################################
#
# If this CIF has been generated from an entry in the Cambridge 
# Structural Database, then it will include bibliographic, chemical, 
# crystal, experimental, refinement or atomic coordinate data resulting 
# from the CCDC's data processing and validation procedures.
#
#######################################################################

data_YALCIY
_symmetry_cell_setting           triclinic
_symmetry_space_group_name_H-M   'P -1'
_symmetry_Int_Tables_number      2
_space_group_name_Hall           '-P 1'
loop_
_symmetry_equiv_pos_site_id
_symmetry_equiv_pos_as_xyz
1 x,y,z
2 -x,-y,-z
_cell_length_a                   8.6509(12)
_cell_length_b                   12.618(2)
_cell_length_c                   14.000(3)
_cell_angle_alpha                107.936(10)
_cell_angle_beta                 99.633(6)
_cell_angle_gamma                90.210(7)
_cell_volume                     1430.95
loop_
_atom_site_label
_atom_site_type_symbol
_atom_site_fract_x
_atom_site_fract_y
_atom_site_fract_z
Ag1 Ag -0.11478(4) 0.51475(3) 0.60634(3)
Ag2 Ag 0.12013(4) 0.65700(3) 0.75249(3)
Ag3 Ag -0.00971(5) 1.03837(3) 0.25647(3)
Ag4 Ag 0.01111(4) 0.13788(3) 1.10452(3)
C1 C -0.4048(6) 0.3336(4) 0.5206(4)
H1 H -0.3642 0.3205 0.5831
C2 C -0.5364(6) 0.2694(4) 0.4589(4)
H2 H -0.5824 0.2124 0.4782
C3 C -0.5998(6) 0.2896(4) 0.3687(4)
C4 C -0.5282(6) 0.3731(4) 0.3436(4)
H3 H -0.5704 0.3903 0.2833
C5 C -0.3935(6) 0.4318(4) 0.4077(4)
H4 H -0.3428 0.4871 0.3886
C6 C -0.7411(6) 0.2203(4) 0.2981(3)
C7 C 0.7471(6) 0.9472(4) 1.0609(4)
C8 C 0.6072(5) 0.8763(4) 0.9909(4)
C9 C 0.5287(6) 0.7978(4) 1.0193(4)
H5 H 0.5647 0.7850 1.0825
C10 C 0.3961(6) 0.7378(4) 0.9533(4)
H6 H 0.3435 0.6836 0.9727
C11 C 0.4168(6) 0.8294(4) 0.8371(4)
H7 H 0.3773 0.8421 0.7743
C12 C 0.5522(6) 0.8905(4) 0.8974(4)
H8 H 0.6060 0.9412 0.8746
C13 C 0.0063(6) 0.4463(4) 0.7961(3)
C14 C 0.0082(6) 0.3751(4) 0.8658(3)
C15 C -0.1024(6) 0.2863(4) 0.8422(3)
H9 H -0.1797 0.2693 0.7820
C16 C -0.0982(6) 0.2228(4) 0.9082(4)
H10 H -0.1705 0.1601 0.8903
C17 C 0.1104(6) 0.3328(4) 1.0193(4)
H11 H 0.1834 0.3501 1.0815
C18 C 0.1177(6) 0.3979(4) 0.9556(4)
H12 H 0.1961 0.4569 0.9733
C19 C 0.0204(6) 0.7201(4) 0.5562(3)
C20 C 0.0212(6) 0.7909(4) 0.4858(3)
C21 C 0.1415(6) 0.8698(4) 0.5002(4)
H13 H 0.2273 0.8815 0.5552
C22 C 0.1352(6) 0.9314(4) 0.4333(4)
H14 H 0.2189 0.9848 0.4431
C23 C -0.1001(6) 0.8414(4) 0.3407(4)
H15 H -0.1841 0.8310 0.2849
C24 C -0.1023(6) 0.7754(4) 0.4041(4)
H16 H -0.1858 0.7211 0.3919
N1 N -0.3326(5) 0.4130(3) 0.4959(3)
N2 N 0.3398(5) 0.7536(3) 0.8637(3)
N3 N 0.0052(5) 0.2473(3) 0.9966(3)
N4 N 0.0155(5) 0.9190(3) 0.3552(3)
O1 O -0.7702(5) 0.1279(3) 0.3112(3)
O2 O -0.8147(4) 0.2588(3) 0.2328(3)
O3 O 0.7714(5) 0.9476(3) 1.1514(3)
O4 O 0.8274(4) 1.0008(3) 1.0216(3)
O5 O 0.1299(4) 0.5060(3) 0.8084(3)
O6 O -0.1174(4) 0.4412(3) 0.7338(3)
O7 O -0.0608(4) 0.6309(3) 0.5224(3)
O8 O 0.1059(4) 0.7597(3) 0.6438(3)
Ag2A Ag -0.12013(4) 0.34300(3) 1.24751(3)
Ag3_2 Ag -0.00971(5) 0.03837(3) 1.25647(3)
Ag3_3 Ag -1.00971(5) 0.03837(3) 0.25647(3)
Ag3_4 Ag 0.99029(5) 1.03837(3) 1.25647(3)
Ag4A Ag -0.01111(4) 0.86212(3) 0.89548(3)
Ag4_2 Ag 0.01111(4) 1.13788(3) 0.10452(3)
Ag4_3 Ag -0.98889(4) 0.13788(3) 0.10452(3)
Ag4_4 Ag 1.01111(4) 1.13788(3) 1.10452(3)
O1_2 O 0.2298(5) 1.1279(3) 0.3112(3)
O2_2 O 0.1853(4) 0.2588(3) 1.2328(3)
O3_2 O -0.2286(5) 0.9476(3) 0.1514(3)
O4_2 O -0.1726(4) 0.0008(3) 1.0216(3)
C25 C 0.5249(12) 0.4450(9) 0.8433(8)
H17 H 0.6226 0.4193 0.8194
H18 H 0.5234 0.4323 0.9087
H19 H 0.5187 0.5248 0.8518
O9 O 0.4039(9) 0.3891(8) 0.7756(8)
H22 H 0.3578 0.4313 0.7454
H20 H 0.492(14) 0.246(7) 0.713(8)
O10 O 0.5371(16) 0.1933(12) 0.6749(11)
H21 H 0.581(4) 0.065(4) 0.725(4)
O11 O 0.4859(16) 0.0404(19) 0.6929(10)
loop_
_geom_bond_atom_site_label_1
_geom_bond_atom_site_label_2
_geom_bond_site_symmetry_1
_geom_bond_site_symmetry_2
Ag1 Ag2 1_555 1_555
Ag2 N2 1_555 1_555
Ag3 N4 1_555 1_555
Ag4 N3 1_555 1_555
C1 H1 1_555 1_555
C2 C1 1_555 1_555
H2 C2 1_555 1_555
C3 C2 1_555 1_555
C4 C3 1_555 1_555
H3 C4 1_555 1_555
C5 C4 1_555 1_555
H4 C5 1_555 1_555
C6 C3 1_555 1_555
C7 C8 1_555 1_555
C8 C9 1_555 1_555
C9 H5 1_555 1_555
C10 C9 1_555 1_555
H6 C10 1_555 1_555
C11 H7 1_555 1_555
C12 C8 1_555 1_555
H8 C12 1_555 1_555
C13 C14 1_555 1_555
C14 C15 1_555 1_555
C15 H9 1_555 1_555
C16 C15 1_555 1_555
H10 C16 1_555 1_555
C17 H11 1_555 1_555
C18 C14 1_555 1_555
H12 C18 1_555 1_555
C19 C20 1_555 1_555
C20 C21 1_555 1_555
C21 H13 1_555 1_555
C22 C21 1_555 1_555
H14 C22 1_555 1_555
C23 H15 1_555 1_555
C24 C20 1_555 1_555
H16 C24 1_555 1_555
C25 H17 1_555 1_555
H18 C25 1_555 1_555
H19 C25 1_555 1_555
H20 O10 1_555 1_555
H21 O11 1_555 1_555
N1 Ag1 1_555 1_555
N2 C10 1_555 1_555
N3 C16 1_555 1_555
N4 C22 1_555 1_555
O1 C6 1_555 1_555
O2 C6 1_555 1_555
O3 C7 1_555 1_555
O4 C7 1_555 1_555
O5 Ag2 1_555 1_555
O6 Ag1 1_555 1_555
O7 Ag1 1_555 1_555
O8 Ag2 1_555 1_555
O9 C25 1_555 1_555
H22 O9 1_555 1_555
Ag2A Ag4 1_555 1_555
Ag3_2 Ag4 1_555 1_555
Ag3_3 O1 1_555 1_555
Ag3_4 O3 1_555 1_555
Ag4A Ag2 1_555 1_555
Ag4_2 Ag3 1_555 1_555
Ag4_3 O2 1_555 1_555
Ag4_4 O4 1_555 1_555
O1_2 Ag3 1_555 1_555
O2_2 Ag4 1_555 1_555
O3_2 Ag3 1_555 1_555
O4_2 Ag4 1_555 1_555
C1 N1 1_555 1_555
C5 N1 1_555 1_555
C11 C12 1_555 1_555
C11 N2 1_555 1_555
C13 O5 1_555 1_555
C13 O6 1_555 1_555
C17 C18 1_555 1_555
C17 N3 1_555 1_555
C19 O7 1_555 1_555
C19 O8 1_555 1_555
C23 C24 1_555 1_555
C23 N4 1_555 1_555
Ag3_3 Ag4_3 1_555 1_555
Ag3_4 Ag4_4 1_555 1_555

#END
