
#######################################################################
#
#                 Cambridge Crystallographic Data Centre
#                                CCDC 
#
#######################################################################
#
# If this CIF has been generated from an entry in the Cambridge 
# Structural Database, then it will include bibliographic, chemical, 
# crystal, experimental, refinement or atomic coordinate data resulting 
# from the CCDC's data processing and validation procedures.
#
#######################################################################

data_YALMAB
_symmetry_cell_setting           monoclinic
_symmetry_space_group_name_H-M   'C 2/c'
_symmetry_Int_Tables_number      15
_space_group_name_Hall           '-C 2yn'
loop_
_symmetry_equiv_pos_site_id
_symmetry_equiv_pos_as_xyz
1 x,y,z
2 -x,y,1/2-z
3 1/2+x,1/2+y,z
4 1/2-x,1/2+y,1/2-z
5 -x,-y,-z
6 x,-y,1/2+z
7 1/2-x,1/2-y,-z
8 1/2+x,1/2-y,1/2+z
_cell_length_a                   16.231(4)
_cell_length_b                   10.123(2)
_cell_length_c                   20.290(6)
_cell_angle_alpha                90
_cell_angle_beta                 106.999(3)
_cell_angle_gamma                90
_cell_volume                     3188.12
loop_
_atom_site_label
_atom_site_type_symbol
_atom_site_fract_x
_atom_site_fract_y
_atom_site_fract_z
Pb1 Pb 1.0000 0.290577(18) 0.2500
Br1 Br 0.82733(3) 0.13189(5) 0.02437(2)
Br2 Br 0.81377(3) -0.04852(5) -0.11627(2)
O1 O 1.0211(2) 0.2826(3) 0.11763(15)
O2 O 1.00305(18) 0.1021(3) 0.17456(13)
O3 O 0.8430(2) 0.2217(3) 0.20548(17)
N1 N 0.7427(3) 0.0605(5) 0.1834(2)
C1 C 1.0111(2) 0.1624(4) 0.1223(2)
C2 C 1.0054(2) 0.0772(3) 0.05879(18)
C3 C 0.9272(2) 0.0560(4) 0.00912(18)
C4 C 0.9210(2) -0.0199(4) -0.04887(18)
C5 C 0.8220(3) 0.1047(5) 0.2043(2)
H1 H 0.8658 0.0428 0.2194
C6 C 0.6710(4) 0.1498(8) 0.1600(4)
H2 H 0.6525 0.1780 0.1986
H3 H 0.6243 0.1055 0.1272
H4 H 0.6882 0.2253 0.1387
C7 C 0.7245(5) -0.0784(7) 0.1887(4)
H5 H 0.7777 -0.1266 0.2038
H6 H 0.6912 -0.1108 0.1445
H7 H 0.6927 -0.0900 0.2214
Pb1D Pb 1.0000 -0.290577(18) -0.2500
Br1D Br 1.17267(3) -0.13189(5) -0.02437(2)
Br2D Br 1.18623(3) 0.04852(5) 0.11627(2)
O1D O 0.9789(2) -0.2826(3) -0.11763(15)
O1A O 0.9789(2) 0.2826(3) 0.38237(15)
O2D O 0.99695(18) -0.1021(3) -0.17456(13)
O2A O 0.99695(18) 0.1021(3) 0.32544(13)
O3A O 1.1570(2) 0.2217(3) 0.29452(17)
N1A N 1.2573(3) 0.0605(5) 0.3166(2)
C1D C 0.9889(2) -0.1624(4) -0.1223(2)
C2D C 0.9946(2) -0.0772(3) -0.05879(18)
C3D C 1.0728(2) -0.0560(4) -0.00912(18)
C4D C 1.0790(2) 0.0199(4) 0.04887(18)
C5A C 1.1780(3) 0.1047(5) 0.2957(2)
H1A H 1.1342 0.0428 0.2806
C6A C 1.3290(4) 0.1498(8) 0.3400(4)
H2A H 1.3475 0.1780 0.3014
H3A H 1.3757 0.1055 0.3728
H4A H 1.3118 0.2253 0.3613
C7A C 1.2755(5) -0.0784(7) 0.3113(4)
H5A H 1.2223 -0.1266 0.2962
H6A H 1.3088 -0.1108 0.3555
H7A H 1.3073 -0.0900 0.2786
O4 O 0.9040(4) 0.5378(6) 0.1917(3)
N2 N 0.9110(3) 0.6396(6) 0.0958(3)
C8 C 0.9283(9) 0.7678(9) 0.1240(7)
H8 H 0.8779 0.8219 0.1074
H9 H 0.9750 0.8059 0.1103
H10 H 0.9439 0.7627 0.1734
C9 C 0.9056(9) 0.6273(16) 0.0240(6)
H11 H 0.9080 0.5357 0.0126
H12 H 0.9529 0.6735 0.0151
H13 H 0.8522 0.6646 -0.0036
C10 C 0.9016(4) 0.5387(7) 0.1309(4)
H14 H 0.8919 0.4581 0.1079
loop_
_geom_bond_atom_site_label_1
_geom_bond_atom_site_label_2
_geom_bond_site_symmetry_1
_geom_bond_site_symmetry_2
Pb1 O1 1_555 1_555
Br1 C3 1_555 1_555
Br2 C4 1_555 1_555
O1 C1 1_555 1_555
O2 Pb1 1_555 1_555
O3 Pb1 1_555 1_555
O4 C10 1_555 1_555
N1 C5 1_555 1_555
N2 C8 1_555 1_555
C1 O2 1_555 1_555
C2 C1 1_555 1_555
C3 C2 1_555 1_555
C4 C3 1_555 1_555
C5 O3 1_555 1_555
H1 C5 1_555 1_555
C6 N1 1_555 1_555
H2 C6 1_555 1_555
H3 C6 1_555 1_555
H4 C6 1_555 1_555
C7 N1 1_555 1_555
H5 C7 1_555 1_555
H6 C7 1_555 1_555
H7 C7 1_555 1_555
C8 H8 1_555 1_555
H9 C8 1_555 1_555
H10 C8 1_555 1_555
C9 N2 1_555 1_555
H11 C9 1_555 1_555
H12 C9 1_555 1_555
H13 C9 1_555 1_555
C10 N2 1_555 1_555
H14 C10 1_555 1_555
Pb1D O1D 1_555 1_555
Br1D C3D 1_555 1_555
Br2D C4D 1_555 1_555
O1D C1D 1_555 1_555
O1A Pb1 1_555 1_555
O2D Pb1D 1_555 1_555
O2A Pb1 1_555 1_555
O3A Pb1 1_555 1_555
N1A C5A 1_555 1_555
C1D O2D 1_555 1_555
C2D C4 1_555 1_555
C3D C2D 1_555 1_555
C4D C2 1_555 1_555
C5A O3A 1_555 1_555
H1A C5A 1_555 1_555
C6A N1A 1_555 1_555
H2A C6A 1_555 1_555
H3A C6A 1_555 1_555
H4A C6A 1_555 1_555
C7A N1A 1_555 1_555
H5A C7A 1_555 1_555
H6A C7A 1_555 1_555
H7A C7A 1_555 1_555
C1D C2D 1_555 1_555
C3D C4D 1_555 1_555

#END
