
#######################################################################
#
#                 Cambridge Crystallographic Data Centre
#                                CCDC 
#
#######################################################################
#
# If this CIF has been generated from an entry in the Cambridge 
# Structural Database, then it will include bibliographic, chemical, 
# crystal, experimental, refinement or atomic coordinate data resulting 
# from the CCDC's data processing and validation procedures.
#
#######################################################################

data_YALYIU
_symmetry_cell_setting           monoclinic
_symmetry_space_group_name_H-M   'P 21/n'
_symmetry_Int_Tables_number      14
_space_group_name_Hall           '-P 2yn'
loop_
_symmetry_equiv_pos_site_id
_symmetry_equiv_pos_as_xyz
1 x,y,z
2 1/2-x,1/2+y,1/2-z
3 -x,-y,-z
4 1/2+x,1/2-y,1/2+z
_cell_length_a                   9.94316(4)
_cell_length_b                   10.44577(5)
_cell_length_c                   24.32402(12)
_cell_angle_alpha                90
_cell_angle_beta                 89.9966(10)
_cell_angle_gamma                90
_cell_volume                     2526.39
loop_
_atom_site_label
_atom_site_type_symbol
_atom_site_fract_x
_atom_site_fract_y
_atom_site_fract_z
Zn1 Zn 0.48796(29) 0.04112(27) 0.82295(11)
Zn2 Zn 0.69670(21) 0.2469(8) 1.00035(26)
Zn3 Zn 0.51890(28) 0.54058(27) 0.82617(12)
P1 P 0.4993(5) 0.2824(5) 0.89693(19)
Cl1 Cl 0.8248(5) 0.4023(5) 1.03790(25)
O1 O 0.5181(10) 0.3575(6) 0.84521(27)
C1 C 0.1058(6) 0.3264(7) 0.89164(27)
P2 P 0.5106(5) -0.2119(5) 0.89962(19)
C2 C 0.3202(6) 0.3068(8) 0.91891(26)
O2 O 1.1153(7) 0.0859(8) 0.73011(32)
O3 O 0.4900(13) -0.3552(6) 0.89253(33)
O4 O 0.5842(7) 0.3367(8) 0.94342(28)
C3 C 0.0062(7) 0.2796(6) 0.85368(27)
O5 O 0.5256(13) 0.1407(6) 0.89040(32)
O6 O 0.4058(8) -0.1646(8) 0.94096(28)
N1 N 0.2312(5) 0.2871(7) 0.87497(27)
O7 O 0.4932(13) -0.1402(6) 0.84654(29)
Cl2 Cl 0.8601(5) 0.0976(5) 0.97225(26)
N2 N -0.0550(7) 0.3856(6) 0.82977(28)
C4 C 0.9761(6) -0.2210(6) 0.83197(26)
N3 N 0.7753(5) -0.2188(10) 0.87637(29)
O8 O 1.3269(8) -0.0354(10) 0.70835(32)
C5 C 0.9078(6) -0.1976(8) 0.88528(25)
C6 C 0.6853(7) -0.1787(8) 0.91670(32)
O11 O -0.3009(9) 0.4838(11) 0.70456(30)
C7 C -0.1595(8) 0.3649(7) 0.79342(34)
P3 P 1.2238(5) -0.0028(5) 0.75364(22)
O12 O 1.2955(7) 0.0662(10) 0.80063(29)
N4 N 1.0759(6) -0.1320(6) 0.82780(25)
C8 C 1.1371(9) -0.1461(7) 0.77687(26)
O13 O -0.2992(7) 0.5839(9) 0.79853(30)
O14 O -0.0922(7) 0.5845(10) 0.74276(34)
P4 P -0.2193(6) 0.5054(5) 0.75721(22)
H1 H 0.3101(13) 0.3949(7) 0.9347(5)
H2 H 0.2952(13) 0.2455(10) 0.9481(5)
H3 H 0.0895(14) 0.4189(7) 0.8923(7)
H4 H 0.0822(13) 0.2839(12) 0.92517(33)
H5 H 0.9584(11) -0.2546(10) 0.9086(4)
H6 H 0.9362(13) -0.1072(7) 0.8910(6)
H7 H 0.7305(12) -0.2434(10) 0.9396(7)
H8 H -0.1470(35) 0.2886(9) 0.7691(8)
H9 H -0.2296(17) 0.3053(11) 0.8069(8)
H10 H 1.1916(14) -0.2048(11) 0.7999(5)
H11 H 1.0756(11) -0.1849(12) 0.7489(4)
H12 H 0.0646(11) 0.2318(10) 0.8273(4)
H13 H -0.0478(10) 0.2238(10) 0.8751(5)
H17 H 0.0180(9) 0.4425(10) 0.8112(5)
H18 H 0.7435(13) -0.205(5) 0.83787(33)
H20 H 1.0421(13) -0.0405(7) 0.8329(6)
H21 H 0.2638(13) 0.3319(11) 0.84043(34)
H22 H 0.2323(15) 0.1934(7) 0.8635(5)
H23 H 0.7005(13) -0.0858(7) 0.9272(6)
H24 H -0.367(14) 0.420(13) 0.724(5)
H25 H 0.8971(9) -0.2055(15) 0.8071(4)
H26 H 1.0057(13) -0.3095(7) 0.8382(6)
H27 H -0.0855(13) 0.4473(10) 0.8607(4)
H28 H 1.1441(10) -0.1409(14) 0.8589(4)
Zn1_2 Zn 1.48796(29) 0.04112(27) 0.82295(11)
Zn1A Zn 0.01204(29) 0.54112(27) 0.67705(11)
Zn2B Zn 0.30330(21) -0.2469(8) 0.99965(26)
Zn3A Zn 0.98110(28) 0.04058(27) 0.67383(12)
Zn3_2 Zn 0.51890(28) -0.45942(27) 0.82617(12)
Zn3_3 Zn -0.48110(28) 0.54058(27) 0.82617(12)
O2A O 0.3847(7) 0.5859(8) 0.76989(32)
O3_2 O 0.4900(13) 0.6448(6) 0.89253(33)
O6B O 0.5942(8) 0.1646(8) 1.05904(28)
O12_2 O 0.2955(7) 0.0662(10) 0.80063(29)
O13_2 O 0.7008(7) 0.5839(9) 0.79853(30)
O14A O 0.5922(7) 0.0845(10) 0.75724(34)
O9 O 0.1814(11) 0.5132(13) 0.0714(4)
H14 H 0.172(13) 0.452(11) 0.101(4)
H19 H 0.208(4) 0.489(4) 0.0330(5)
O10 O 0.7824(12) -0.0106(9) 0.0913(4)
H15 H 0.767(9) -0.1031(12) 0.0803(18)
H16 H 0.766(6) 0.0220(34) 0.0530(5)
loop_
_geom_bond_atom_site_label_1
_geom_bond_atom_site_label_2
_geom_bond_site_symmetry_1
_geom_bond_site_symmetry_2
Zn1 O5 1_555 1_555
Zn2 Cl1 1_555 1_555
Zn3 O1 1_555 1_555
P1 O1 1_555 1_555
C1 C3 1_555 1_555
P2 O3 1_555 1_555
C2 P1 1_555 1_555
O2 P3 1_555 1_555
O3 Zn3_2 1_555 1_555
O4 Zn2 1_555 1_555
C3 N2 1_555 1_555
O5 P1 1_555 1_555
O6 P2 1_555 1_555
N1 C1 1_555 1_555
O7 Zn1 1_555 1_555
Cl2 Zn2 1_555 1_555
N2 C7 1_555 1_555
C4 C5 1_555 1_555
N3 C5 1_555 1_555
O8 P3 1_555 1_555
C5 H5 1_555 1_555
C6 P2 1_555 1_555
O9 H14 1_555 1_555
O10 H15 1_555 1_555
O11 P4 1_555 1_555
C7 P4 1_555 1_555
P3 O12 1_555 1_555
O12 Zn1_2 1_555 1_555
N4 C4 1_555 1_555
C8 P3 1_555 1_555
O13 P4 1_555 1_555
O14 P4 1_555 1_555
H1 C2 1_555 1_555
H2 C2 1_555 1_555
H3 C1 1_555 1_555
H4 C1 1_555 1_555
H6 C5 1_555 1_555
H7 C6 1_555 1_555
H8 C7 1_555 1_555
H9 C7 1_555 1_555
H10 C8 1_555 1_555
H11 C8 1_555 1_555
H12 C3 1_555 1_555
H13 C3 1_555 1_555
H16 O10 1_555 1_555
H17 N2 1_555 1_555
H18 N3 1_555 1_555
H19 O9 1_555 1_555
H20 N4 1_555 1_555
H21 N1 1_555 1_555
H22 N1 1_555 1_555
H23 C6 1_555 1_555
H24 O11 1_555 1_555
H25 C4 1_555 1_555
H26 C4 1_555 1_555
H27 N2 1_555 1_555
H28 N4 1_555 1_555
Zn1A O14 1_555 1_555
Zn2B O6 1_555 1_555
Zn3A O2 1_555 1_555
Zn3_3 O13 1_555 1_555
O2A Zn3 1_555 1_555
O3_2 Zn3 1_555 1_555
O6B Zn2 1_555 1_555
O12_2 Zn1 1_555 1_555
O13_2 Zn3 1_555 1_555
O14A Zn1 1_555 1_555
P1 O4 1_555 1_555
P2 O7 1_555 1_555
C2 N1 1_555 1_555
N3 C6 1_555 1_555
N4 C8 1_555 1_555

#END
