
#######################################################################
#
#                 Cambridge Crystallographic Data Centre
#                                CCDC 
#
#######################################################################
#
# If this CIF has been generated from an entry in the Cambridge 
# Structural Database, then it will include bibliographic, chemical, 
# crystal, experimental, refinement or atomic coordinate data resulting 
# from the CCDC's data processing and validation procedures.
#
#######################################################################

data_YAMBIZ
_symmetry_cell_setting           triclinic
_symmetry_space_group_name_H-M   'P -1'
_symmetry_Int_Tables_number      2
_space_group_name_Hall           '-P 1'
loop_
_symmetry_equiv_pos_site_id
_symmetry_equiv_pos_as_xyz
1 x,y,z
2 -x,-y,-z
_cell_length_a                   5.127(7)
_cell_length_b                   8.905(12)
_cell_length_c                   9.068(12)
_cell_angle_alpha                82.74(1)
_cell_angle_beta                 99.46(1)
_cell_angle_gamma                100.10(1)
_cell_volume                     400.016
loop_
_atom_site_label
_atom_site_type_symbol
_atom_site_fract_x
_atom_site_fract_y
_atom_site_fract_z
Ba1 Ba 0.980(4) 0.722(2) 0.434(2)
Ba2 Ba 0.814(4) 0.210(2) 1.074(2)
C1 C 0.604(2) 0.574(1) 0.713(1)
C2 C 0.592(2) 0.418(1) 0.826(2)
O1 O 0.789(4) 0.688(2) 0.740(2)
O2 O 0.424(5) 0.586(2) 0.598(3)
O3 O 0.750(5) 0.323(2) 0.824(3)
O4 O 0.402(5) 0.379(3) 0.904(3)
C3 C 1.417(2) 0.986(2) 0.706(1)
C4 C 1.693(2) 1.002(2) 0.827(1)
O5 O 1.405(4) 0.926(4) 0.585(2)
O6 O 1.223(3) 1.051(2) 0.722(2)
O7 O 1.895(3) 1.102(3) 0.799(2)
O8 O 1.689(3) 0.941(3) 0.962(1)
Ba1A Ba 1.020(4) 0.278(2) 0.566(2)
Ba1_2 Ba -0.020(4) 0.722(2) 0.434(2)
Ba1A_2 Ba 1.020(4) 1.278(2) 0.566(2)
Ba1A_3 Ba 2.020(4) 1.278(2) 0.566(2)
Ba2A Ba 1.186(4) 0.790(2) 0.926(2)
Ba2_2 Ba 1.814(4) 1.210(2) 1.074(2)
O1A O 1.211(4) 0.312(2) 1.260(2)
O2_2 O 1.424(5) 0.586(2) 0.598(3)
O3A O 1.250(5) 0.677(2) 0.176(3)
C3A C 0.583(2) 0.014(2) 1.294(1)
C4_2 C 0.693(2) 0.002(2) 0.827(1)
O6A O 0.777(3) 0.949(2) 0.278(2)
O6A_2 O 0.777(3) -0.051(2) 1.278(2)
O7A O 1.105(3) 0.898(3) 0.201(2)
O7_2 O 0.895(3) 0.102(3) 0.799(2)
O8_2 O 0.689(3) -0.059(3) 0.962(1)
O8A O 0.311(3) 0.059(3) 1.038(1)
loop_
_geom_bond_atom_site_label_1
_geom_bond_atom_site_label_2
_geom_bond_site_symmetry_1
_geom_bond_site_symmetry_2
Ba1 O1 1_555 1_555
Ba2 O3 1_555 1_555
C1 C2 1_555 1_555
C2 O3 1_555 1_555
O1 C1 1_555 1_555
O2 C1 1_555 1_555
O3 Ba1A 1_555 1_555
O4 Ba2 1_555 1_555
C3 C4 1_555 1_555
C4 O7 1_555 1_555
O5 Ba1 1_555 1_555
O6 C3 1_555 1_555
O7 Ba1A_3 1_555 1_555
O8 C4 1_555 1_555
Ba1A Ba1 1_555 1_555
Ba1_2 O2 1_555 1_555
Ba1A_2 O6 1_555 1_555
Ba2A O1 1_555 1_555
Ba2_2 O7 1_555 1_555
O1A Ba2 1_555 1_555
O2_2 Ba1 1_555 1_555
O3A Ba1 1_555 1_555
C3A O6A_2 1_555 1_555
C4_2 O7_2 1_555 1_555
O6A Ba1 1_555 1_555
O6A_2 Ba2 1_555 1_555
O7A Ba1 1_555 1_555
O7_2 Ba2 1_555 1_555
O8_2 Ba2 1_555 1_555
O8A Ba2 1_555 1_555
C2 O4 1_555 1_555
C3 O5 1_555 1_555
O6 Ba2A 1_555 1_555
O8 Ba2A 1_555 1_555
O8 Ba2_2 1_555 1_555
Ba1A O7_2 1_555 1_555
C4_2 O8_2 1_555 1_555

#END
