
#######################################################################
#
#                 Cambridge Crystallographic Data Centre
#                                CCDC 
#
#######################################################################
#
# If this CIF has been generated from an entry in the Cambridge 
# Structural Database, then it will include bibliographic, chemical, 
# crystal, experimental, refinement or atomic coordinate data resulting 
# from the CCDC's data processing and validation procedures.
#
#######################################################################

data_YAMNUW
_symmetry_cell_setting           triclinic
_symmetry_space_group_name_H-M   'P -1'
_symmetry_Int_Tables_number      2
_space_group_name_Hall           '-P 1'
loop_
_symmetry_equiv_pos_site_id
_symmetry_equiv_pos_as_xyz
1 x,y,z
2 -x,-y,-z
_cell_length_a                   6.8930(10)
_cell_length_b                   7.0780(10)
_cell_length_c                   24.754(5)
_cell_angle_alpha                96.41(3)
_cell_angle_beta                 90.83(3)
_cell_angle_gamma                108.49(3)
_cell_volume                     1136.61
loop_
_atom_site_label
_atom_site_type_symbol
_atom_site_fract_x
_atom_site_fract_y
_atom_site_fract_z
Sr1 Sr 0.56771(3) 0.21834(3) 0.294713(7)
S1 S 0.41196(7) 0.69622(7) 0.342393(19)
S2 S 0.25460(8) 0.10884(8) 0.15309(2)
O1 O 0.4151(2) 0.5033(2) 0.31629(6)
O2 O 0.5309(2) 0.8639(2) 0.31478(6)
O3 O 0.2029(2) 0.6980(2) 0.35134(6)
O4 O 0.4862(2) 0.7675(2) 0.60053(6)
O5 O 0.2103(2) 0.7237(3) 0.54619(7)
O6 O 0.8313(3) 0.7955(3) 0.55784(7)
O7 O 0.3905(3) 0.1379(3) 0.20067(6)
O8 O 0.1200(3) 0.2316(3) 0.15814(7)
O9 O 0.1345(3) -0.1031(2) 0.13809(6)
O10 O 0.1305(3) 0.1734(3) -0.04903(7)
O11 O 0.4264(3) 0.2769(3) -0.08968(6)
O12 O 0.7698(3) 0.3518(3) -0.03138(8)
O13 O 0.8156(3) 0.5321(3) 0.26431(9)
O14 O 0.8357(3) 0.0818(3) 0.24024(7)
O15 O 0.1618(2) 0.0471(3) 0.31154(7)
O16 O 0.9289(2) 0.3115(3) 0.35426(6)
C1 C 0.5209(3) 0.7517(3) 0.50515(8)
C2 C 0.7294(3) 0.7744(3) 0.50955(9)
C3 C 0.8391(3) 0.7752(4) 0.46262(9)
H1 H 0.9779 0.7901 0.4655
C4 C 0.7435(3) 0.7541(3) 0.41225(9)
H2 H 0.8179 0.7556 0.3812
C5 C 0.5344(3) 0.7305(3) 0.40759(8)
C6 C 0.4241(3) 0.7284(3) 0.45357(8)
H3 H 0.2848 0.7115 0.4504
C7 C 0.4043(3) 0.7487(3) 0.55467(8)
C8 C 0.4327(3) 0.2370(3) 0.00390(8)
C9 C 0.6475(3) 0.2959(3) 0.00987(9)
C10 C 0.7413(3) 0.2987(4) 0.06034(10)
H4 H 0.8834 0.3383 0.0645
C11 C 0.6245(3) 0.2430(4) 0.10415(9)
H5 H 0.6881 0.2441 0.1376
C12 C 0.4115(3) 0.1850(3) 0.09846(8)
C13 C 0.3166(3) 0.1831(3) 0.04872(8)
H6 H 0.1745 0.1455 0.0451
C14 C 0.3305(3) 0.2314(3) -0.04921(9)
H7 H 0.741(6) 0.801(5) 0.5835(15)
H8 H 0.156(5) 0.718(5) 0.5750(14)
H9 H 0.693(5) 0.338(5) -0.0571(14)
H10 H 0.069(5) 0.172(5) -0.0779(13)
H11 H 0.936(2) 0.557(5) 0.2534(12)
H12 H 0.746(4) 0.580(4) 0.2446(11)
H13 H 0.769(4) -0.034(2) 0.2249(12)
H14 H 0.907(4) 0.147(4) 0.2168(10)
H15 H 0.143(6) -0.071(3) 0.3194(15)
H16 H 0.077(4) 0.029(4) 0.2850(8)
H17 H 0.990(5) 0.232(4) 0.3410(13)
H18 H 1.007(4) 0.430(2) 0.3537(13)
Sr1_2 Sr 0.56771(3) 1.21834(3) 0.294713(7)
Sr1A Sr 0.43229(3) 0.78166(3) 0.705287(7)
O2_2 O 0.5309(2) -0.1361(2) 0.31478(6)
O4A O 0.5138(2) 0.2325(2) 0.39947(6)
O17 O 0.1803(3) 0.6202(3) 0.20657(9)
H19 H 0.159(5) 0.696(4) 0.1849(12)
H20 H 0.161(5) 0.509(3) 0.1874(12)
O18 O 0.6094(3) -0.2963(3) 0.19978(7)
H21 H 0.486(2) -0.318(4) 0.2077(12)
H22 H 0.597(5) -0.305(5) 0.1655(4)
loop_
_geom_bond_atom_site_label_1
_geom_bond_atom_site_label_2
_geom_bond_site_symmetry_1
_geom_bond_site_symmetry_2
Sr1 O1 1_555 1_555
S1 O1 1_555 1_555
S2 O7 1_555 1_555
O2 S1 1_555 1_555
O3 S1 1_555 1_555
O4 C7 1_555 1_555
O5 C7 1_555 1_555
O6 C2 1_555 1_555
O7 Sr1 1_555 1_555
O8 S2 1_555 1_555
O9 S2 1_555 1_555
O10 C14 1_555 1_555
O11 C14 1_555 1_555
O12 C9 1_555 1_555
O13 Sr1 1_555 1_555
O14 Sr1 1_555 1_555
O15 Sr1 1_555 1_555
O16 Sr1 1_555 1_555
O17 H19 1_555 1_555
O18 H21 1_555 1_555
C1 C2 1_555 1_555
C2 C3 1_555 1_555
C3 H1 1_555 1_555
C4 C3 1_555 1_555
H2 C4 1_555 1_555
C5 S1 1_555 1_555
C6 C1 1_555 1_555
H3 C6 1_555 1_555
C7 C1 1_555 1_555
C8 C9 1_555 1_555
C9 C10 1_555 1_555
C10 H4 1_555 1_555
C11 C10 1_555 1_555
H5 C11 1_555 1_555
C12 S2 1_555 1_555
C13 C8 1_555 1_555
H6 C13 1_555 1_555
C14 C8 1_555 1_555
H7 O6 1_555 1_555
H8 O5 1_555 1_555
H9 O12 1_555 1_555
H10 O10 1_555 1_555
H11 O13 1_555 1_555
H12 O13 1_555 1_555
H13 O14 1_555 1_555
H14 O14 1_555 1_555
H15 O15 1_555 1_555
H16 O15 1_555 1_555
H17 O16 1_555 1_555
H18 O16 1_555 1_555
H20 O17 1_555 1_555
H22 O18 1_555 1_555
Sr1_2 O2 1_555 1_555
Sr1A O4 1_555 1_555
O2_2 Sr1 1_555 1_555
O4A Sr1 1_555 1_555
C4 C5 1_555 1_555
C5 C6 1_555 1_555
C11 C12 1_555 1_555
C12 C13 1_555 1_555

#END
