
#######################################################################
#
#                 Cambridge Crystallographic Data Centre
#                                CCDC 
#
#######################################################################
#
# If this CIF has been generated from an entry in the Cambridge 
# Structural Database, then it will include bibliographic, chemical, 
# crystal, experimental, refinement or atomic coordinate data resulting 
# from the CCDC's data processing and validation procedures.
#
#######################################################################

data_YAMXAM
_symmetry_cell_setting           monoclinic
_symmetry_space_group_name_H-M   'I 2/a'
_symmetry_Int_Tables_number      15
_space_group_name_Hall           '-I 2ya'
loop_
_symmetry_equiv_pos_site_id
_symmetry_equiv_pos_as_xyz
1 x,y,z
2 1/2+x,1/2+y,1/2+z
3 1/2-x,y,-z
4 -x,1/2+y,1/2-z
5 -x,-y,-z
6 1/2-x,1/2-y,1/2-z
7 1/2+x,-y,z
8 x,1/2-y,1/2+z
_cell_length_a                   18.515(3)
_cell_length_b                   9.927(2)
_cell_length_c                   20.948(3)
_cell_angle_alpha                90
_cell_angle_beta                 94.659(3)
_cell_angle_gamma                90
_cell_volume                     3837.49
loop_
_atom_site_label
_atom_site_type_symbol
_atom_site_fract_x
_atom_site_fract_y
_atom_site_fract_z
Mn1 Mn 0.06507(4) 0.03268(7) 0.17918(3)
N1 N -0.0256(2) 0.0470(4) 0.10043(18)
N2 N 0.1010(2) 0.1839(4) 0.10756(19)
N3 N 0.3879(2) -0.3721(4) 0.1436(2)
O1 O 0.15756(16) -0.1022(3) 0.14920(16)
O2 O 0.17238(17) 0.0249(3) 0.23499(16)
O3 O 0.54032(16) -0.1955(3) 0.24027(16)
O4 O 0.49302(16) -0.3728(3) 0.28361(16)
O5 O 0.4510(2) -0.4035(4) 0.14722(18)
O6 O 0.3417(2) -0.4252(4) 0.1072(2)
C1 C -0.0877(3) -0.0207(5) 0.0964(3)
C2 C -0.1421(3) -0.0012(5) 0.0481(3)
C3 C -0.1337(3) 0.0926(5) 0.0027(3)
C4 C -0.0699(3) 0.1687(5) 0.0042(2)
C5 C -0.0545(3) 0.2688(6) -0.0421(3)
C6 C 0.0091(4) 0.3360(6) -0.0390(3)
C7 C 0.0643(3) 0.3109(5) 0.0116(3)
C8 C 0.1301(3) 0.3774(6) 0.0179(3)
C9 C 0.1794(3) 0.3480(6) 0.0670(3)
C10 C 0.1635(3) 0.2497(6) 0.1103(3)
C11 C -0.0163(3) 0.1403(4) 0.0547(2)
C12 C 0.0515(3) 0.2131(5) 0.0581(2)
C13 C 0.1957(2) -0.0585(5) 0.1962(3)
C14 C 0.2729(2) -0.1069(4) 0.2071(2)
C15 C 0.2971(2) -0.2118(4) 0.1718(2)
C16 C 0.3653(2) -0.2618(4) 0.1848(2)
C17 C 0.4128(2) -0.2116(4) 0.2338(2)
C18 C 0.3888(2) -0.1036(5) 0.2675(2)
C19 C 0.3206(2) -0.0524(4) 0.2550(2)
C20 C 0.4876(2) -0.2665(5) 0.2524(2)
H1 H -0.0949 -0.0846 0.1277
H2 H -0.1842 -0.0525 0.0469
H3 H -0.1704 0.1068 -0.0297
H4 H -0.0894 0.2881 -0.0753
H5 H 0.0172 0.3996 -0.0703
H6 H 0.1405 0.4426 -0.0119
H7 H 0.2234 0.3934 0.0715
H8 H 0.1984 0.2285 0.1431
H9 H 0.2668 -0.2489 0.1388
H10 H 0.4197 -0.0646 0.2996
H11 H 0.3059 0.0202 0.2788
Mn1F Mn 0.56507(4) -0.03268(7) 0.17918(3)
Mn1E Mn 0.43493(4) -0.53268(7) 0.32082(3)
O3F O 0.04032(16) 0.1955(3) 0.24027(16)
O4E O 0.00698(16) -0.1272(3) 0.21639(16)
O7 O 0.1740(3) 0.2421(5) 0.3238(4)
H12 H 0.167(4) 0.163(3) 0.337(3)
H13 H 0.1348(18) 0.255(6) 0.300(2)
loop_
_geom_bond_atom_site_label_1
_geom_bond_atom_site_label_2
_geom_bond_site_symmetry_1
_geom_bond_site_symmetry_2
Mn1 N1 1_555 1_555
N1 C1 1_555 1_555
N2 Mn1 1_555 1_555
N3 O5 1_555 1_555
O1 Mn1 1_555 1_555
O2 Mn1 1_555 1_555
O3 C20 1_555 1_555
O4 C20 1_555 1_555
O6 N3 1_555 1_555
O7 H12 1_555 1_555
C1 C2 1_555 1_555
C2 C3 1_555 1_555
C3 C4 1_555 1_555
C4 C5 1_555 1_555
C5 C6 1_555 1_555
C6 C7 1_555 1_555
C7 C8 1_555 1_555
C8 C9 1_555 1_555
C9 C10 1_555 1_555
C10 N2 1_555 1_555
C11 N1 1_555 1_555
C12 N2 1_555 1_555
C13 O1 1_555 1_555
C14 C13 1_555 1_555
C15 C14 1_555 1_555
C16 N3 1_555 1_555
C17 C16 1_555 1_555
C18 C17 1_555 1_555
C19 C14 1_555 1_555
C20 C17 1_555 1_555
H1 C1 1_555 1_555
H2 C2 1_555 1_555
H3 C3 1_555 1_555
H4 C5 1_555 1_555
H5 C6 1_555 1_555
H6 C8 1_555 1_555
H7 C9 1_555 1_555
H8 C10 1_555 1_555
H9 C15 1_555 1_555
H10 C18 1_555 1_555
H11 C19 1_555 1_555
H13 O7 1_555 1_555
Mn1F O3 1_555 1_555
Mn1E O4 1_555 1_555
O3F Mn1 1_555 1_555
O4E Mn1 1_555 1_555
O2 C13 1_555 1_555
C4 C11 1_555 1_555
C7 C12 1_555 1_555
C11 C12 1_555 1_555
C15 C16 1_555 1_555
C18 C19 1_555 1_555

#END
