
#######################################################################
#
#                 Cambridge Crystallographic Data Centre
#                                CCDC 
#
#######################################################################
#
# If this CIF has been generated from an entry in the Cambridge 
# Structural Database, then it will include bibliographic, chemical, 
# crystal, experimental, refinement or atomic coordinate data resulting 
# from the CCDC's data processing and validation procedures.
#
#######################################################################

data_YAMZUI
_symmetry_cell_setting           monoclinic
_symmetry_space_group_name_H-M   'P 21/n'
_symmetry_Int_Tables_number      14
_space_group_name_Hall           '-P 2yn'
loop_
_symmetry_equiv_pos_site_id
_symmetry_equiv_pos_as_xyz
1 x,y,z
2 1/2-x,1/2+y,1/2-z
3 -x,-y,-z
4 1/2+x,1/2-y,1/2+z
_cell_length_a                   8.574(2)
_cell_length_b                   11.467(2)
_cell_length_c                   18.374(3)
_cell_angle_alpha                90
_cell_angle_beta                 101.88(3)
_cell_angle_gamma                90
_cell_volume                     1767.8
loop_
_atom_site_label
_atom_site_type_symbol
_atom_site_fract_x
_atom_site_fract_y
_atom_site_fract_z
Cd1 Cd 0.46649(2) 0.583610(10) 0.646680(10)
O1 O 0.5231(2) 0.79000(10) 0.64380(10)
O2 O 0.5552(2) 0.68520(10) 0.54860(10)
O3 O 0.7954(2) 0.94550(10) 0.38780(10)
O4 O 0.8890(2) 0.88880(10) 0.26520(10)
O5 O 0.9147(2) 1.07090(10) 0.23350(10)
O6 O 0.7272(2) 0.5770(2) 0.70430(10)
O7 O 0.5260(3) 0.41200(10) 0.58800(10)
N1 N 0.2123(2) 0.6040(2) 0.58660(10)
N2 N 0.0056(2) 0.6425(2) 0.49830(10)
C1 C 0.0807(3) 0.6189(2) 0.61740(10)
C2 C -0.0465(3) 0.6423(2) 0.5638(2)
C3 C 0.1611(3) 0.6186(2) 0.51430(10)
C4 C 0.5689(2) 0.7803(2) 0.58320(10)
C5 C 0.6455(2) 0.8823(2) 0.55330(10)
C6 C 0.6776(3) 0.9855(2) 0.59350(10)
C7 C 0.7516(3) 1.0766(2) 0.56480(10)
C8 C 0.7929(3) 1.0670(2) 0.49590(10)
C9 C 0.7602(2) 0.9649(2) 0.45630(10)
C10 C 0.6870(2) 0.8723(2) 0.48490(10)
C11 C 0.8541(3) 1.0392(2) 0.35130(10)
C12 C 0.8871(2) 0.9944(2) 0.27850(10)
H1 H 0.7778 0.6301 0.7288
H2 H 0.7796 0.5173 0.7088
H3 H 0.5459 0.3583 0.6181
H4 H 0.4911 0.3823 0.5465
H13 H -0.0514 0.6556 0.4548
H14 H 0.0801 0.6136 0.6678
H15 H -0.1500 0.6557 0.5699
H16 H 0.2251 0.6130 0.4792
H17 H 0.6493 0.9931 0.6394
H18 H 0.7740 1.1452 0.5920
H19 H 0.8421 1.1287 0.4768
H20 H 0.6660 0.8035 0.4579
H21 H 0.9513 1.0696 0.3821
H22 H 0.7761 1.1016 0.3420
Cd1C Cd 0.96649(2) 0.916390(10) 0.146680(10)
O4C O 0.3890(2) 0.61120(10) 0.76520(10)
O5C O 0.4147(2) 0.42910(10) 0.73350(10)
O8 O 0.1465(2) 0.30970(10) 0.6500(10)
H5 H 0.1486 0.2442 0.6688
H6 H 0.2330 0.3420 0.6669
O9 O 0.5884(3) 0.8880(2) 0.77800(10)
H7 H 0.5656 0.8635 0.7345
H8 H 0.5251 0.8594 0.8014
O10 O 0.8634(4) 0.7632(3) 0.7895(2)
H9 H 0.7903 0.8091 0.7730
H10 H 0.9313 0.7802 0.7655
O11? O 0.974(2) 0.7088(9) 0.7973(5)
H11? H 1.0335 0.7323 0.7700
H12? H 1.0267 0.6542 0.8216
loop_
_geom_bond_atom_site_label_1
_geom_bond_atom_site_label_2
_geom_bond_site_symmetry_1
_geom_bond_site_symmetry_2
Cd1 O1 1_555 1_555
O1 C4 1_555 1_555
O2 Cd1 1_555 1_555
O3 C9 1_555 1_555
O4 C12 1_555 1_555
O5 C12 1_555 1_555
O6 Cd1 1_555 1_555
O7 Cd1 1_555 1_555
O8 H5 1_555 1_555
O9 H7 1_555 1_555
O10 H9 1_555 1_555
N1 Cd1 1_555 1_555
N2 C2 1_555 1_555
C1 N1 1_555 1_555
C2 C1 1_555 1_555
C3 N1 1_555 1_555
C4 O2 1_555 1_555
C5 C4 1_555 1_555
C6 C5 1_555 1_555
C7 C6 1_555 1_555
C8 C7 1_555 1_555
C9 C8 1_555 1_555
C10 C5 1_555 1_555
C11 O3 1_555 1_555
C12 C11 1_555 1_555
H1 O6 1_555 1_555
H2 O6 1_555 1_555
H3 O7 1_555 1_555
H4 O7 1_555 1_555
H6 O8 1_555 1_555
H8 O9 1_555 1_555
H10 O10 1_555 1_555
H13 N2 1_555 1_555
H14 C1 1_555 1_555
H15 C2 1_555 1_555
H16 C3 1_555 1_555
H17 C6 1_555 1_555
H18 C7 1_555 1_555
H19 C8 1_555 1_555
H20 C10 1_555 1_555
H21 C11 1_555 1_555
H22 C11 1_555 1_555
Cd1C O4 1_555 1_555
O4C Cd1 1_555 1_555
O5C Cd1 1_555 1_555
O5 Cd1C 1_555 1_555
N2 C3 1_555 1_555
C9 C10 1_555 1_555

#END
