
#######################################################################
#
#                 Cambridge Crystallographic Data Centre
#                                CCDC 
#
#######################################################################
#
# If this CIF has been generated from an entry in the Cambridge 
# Structural Database, then it will include bibliographic, chemical, 
# crystal, experimental, refinement or atomic coordinate data resulting 
# from the CCDC's data processing and validation procedures.
#
#######################################################################

data_YAPFUR
_symmetry_cell_setting           monoclinic
_symmetry_space_group_name_H-M   'P 2/c'
_symmetry_Int_Tables_number      13
_space_group_name_Hall           '-P 2yc'
loop_
_symmetry_equiv_pos_site_id
_symmetry_equiv_pos_as_xyz
1 x,y,z
2 -x,y,1/2-z
3 -x,-y,-z
4 x,-y,1/2+z
_cell_length_a                   5.5679(7)
_cell_length_b                   8.9606(12)
_cell_length_c                   21.873(3)
_cell_angle_alpha                90
_cell_angle_beta                 94.942(3)
_cell_angle_gamma                90
_cell_volume                     1087.22
loop_
_atom_site_label
_atom_site_type_symbol
_atom_site_fract_x
_atom_site_fract_y
_atom_site_fract_z
Ni1 Ni 1.0000 0.0000 0.5000
O1 O 0.7590(2) -0.15001(14) 0.52978(6)
O2 O 1.1844(2) 0.00616(14) 0.58349(5)
N1 N 0.7813(3) 0.18625(19) 0.52175(8)
C1 C 0.5916(4) -0.3254(3) 0.59495(12)
C2 C 0.7725(3) -0.2055(2) 0.58336(9)
C3 C 0.9386(4) -0.1651(2) 0.63211(9)
C4 C 1.1245(3) -0.0605(2) 0.63057(8)
C5 C 1.2711(5) -0.0227(3) 0.68994(11)
C6 C 0.8365(3) 0.2627(2) 0.57864(8)
C7 C 0.6937(3) 0.2418(2) 0.62639(9)
C8 C 0.7518(4) 0.3125(2) 0.68216(9)
C9 C 0.9506(3) 0.4063(2) 0.69126(8)
C10 C 1.0940(4) 0.4235(2) 0.64296(9)
C11 C 1.0394(3) 0.3525(2) 0.58728(9)
C12 C 1.0000 0.4951(3) 0.7500
H1 H 0.628(5) 0.161(3) 0.5145(11)
H2 H 0.810(4) 0.239(3) 0.4930(11)
H3 H 0.436(5) -0.283(3) 0.5996(12)
H4 H 0.637(5) -0.388(3) 0.6290(14)
H5 H 0.572(5) -0.390(3) 0.5582(13)
H6 H 0.919(4) -0.213(2) 0.6712(10)
H7 H 1.246(6) 0.078(4) 0.6992(14)
H8 H 1.434(5) -0.029(3) 0.6843(12)
H9 H 1.231(5) -0.084(3) 0.7230(13)
H10 H 0.550(4) 0.181(3) 0.6204(10)
H11 H 0.648(4) 0.298(3) 0.7160(11)
H12 H 1.228(4) 0.483(3) 0.6483(11)
H13 H 1.142(4) 0.364(2) 0.5545(10)
H14 H 0.863(4) 0.561(3) 0.7558(11)
Ni1C Ni 1.0000 0.0000 1.0000
O1B O 1.2410(2) 0.15001(14) 0.47022(6)
O2B O 0.8156(2) -0.00616(14) 0.41651(5)
N1A N 1.2187(3) 0.18625(19) 0.97825(8)
N1B N 1.2187(3) -0.18625(19) 0.47825(8)
C1B C 1.4084(4) 0.3254(3) 0.40505(12)
C2B C 1.2275(3) 0.2055(2) 0.41664(9)
C3B C 1.0614(4) 0.1651(2) 0.36789(9)
C4B C 0.8755(3) 0.0605(2) 0.36943(8)
C5B C 0.7289(5) 0.0227(3) 0.31006(11)
C6A C 1.1635(3) 0.2627(2) 0.92136(8)
C7A C 1.3063(3) 0.2418(2) 0.87361(9)
C8A C 1.2482(4) 0.3125(2) 0.81784(9)
C9A C 1.0494(3) 0.4063(2) 0.80874(8)
C10A C 0.9060(4) 0.4235(2) 0.85704(9)
C11A C 0.9606(3) 0.3525(2) 0.91272(9)
H1A H 1.372(5) 0.161(3) 0.9855(11)
H1B H 1.372(5) -0.161(3) 0.4855(11)
H2A H 1.190(4) 0.239(3) 1.0070(11)
H2B H 1.190(4) -0.239(3) 0.5070(11)
H3B H 1.564(5) 0.283(3) 0.4004(12)
H4B H 1.363(5) 0.388(3) 0.3710(14)
H5B H 1.428(5) 0.390(3) 0.4418(13)
H6B H 1.081(4) 0.213(2) 0.3288(10)
H7B H 0.754(6) -0.078(4) 0.3008(14)
H8B H 0.566(5) 0.029(3) 0.3157(12)
H9B H 0.769(5) 0.084(3) 0.2770(13)
H10A H 1.450(4) 0.181(3) 0.8796(10)
H11A H 1.352(4) 0.298(3) 0.7840(11)
H12A H 0.772(4) 0.483(3) 0.8517(11)
H13A H 0.858(4) 0.364(2) 0.9455(10)
H14A H 1.137(4) 0.561(3) 0.7442(11)
loop_
_geom_bond_atom_site_label_1
_geom_bond_atom_site_label_2
_geom_bond_site_symmetry_1
_geom_bond_site_symmetry_2
Ni1 O1 1_555 1_555
O1 C2 1_555 1_555
O2 Ni1 1_555 1_555
N1 Ni1 1_555 1_555
C1 C2 1_555 1_555
C2 C3 1_555 1_555
C3 C4 1_555 1_555
C4 O2 1_555 1_555
C5 C4 1_555 1_555
C6 N1 1_555 1_555
C7 C6 1_555 1_555
C8 C7 1_555 1_555
C9 C8 1_555 1_555
C10 C9 1_555 1_555
C11 C6 1_555 1_555
C12 C9 1_555 1_555
H1 N1 1_555 1_555
H2 N1 1_555 1_555
H3 C1 1_555 1_555
H4 C1 1_555 1_555
H5 C1 1_555 1_555
H6 C3 1_555 1_555
H7 C5 1_555 1_555
H8 C5 1_555 1_555
H9 C5 1_555 1_555
H10 C7 1_555 1_555
H11 C8 1_555 1_555
H12 C10 1_555 1_555
H13 C11 1_555 1_555
H14 C12 1_555 1_555
Ni1C N1A 1_555 1_555
O1B Ni1 1_555 1_555
O2B Ni1 1_555 1_555
N1A C6A 1_555 1_555
N1B Ni1 1_555 1_555
C1B C2B 1_555 1_555
C2B O1B 1_555 1_555
C3B C2B 1_555 1_555
C4B O2B 1_555 1_555
C5B C4B 1_555 1_555
C6A C7A 1_555 1_555
C7A C8A 1_555 1_555
C8A C9A 1_555 1_555
C9A C12 1_555 1_555
C10A C9A 1_555 1_555
C11A C6A 1_555 1_555
H1A N1A 1_555 1_555
H1B N1B 1_555 1_555
H2A N1A 1_555 1_555
H2B N1B 1_555 1_555
H3B C1B 1_555 1_555
H4B C1B 1_555 1_555
H5B C1B 1_555 1_555
H6B C3B 1_555 1_555
H7B C5B 1_555 1_555
H8B C5B 1_555 1_555
H9B C5B 1_555 1_555
H10A C7A 1_555 1_555
H11A C8A 1_555 1_555
H12A C10A 1_555 1_555
H13A C11A 1_555 1_555
H14A C12 1_555 1_555
C10 C11 1_555 1_555
C3B C4B 1_555 1_555
C10A C11A 1_555 1_555

#END
