
#######################################################################
#
#                 Cambridge Crystallographic Data Centre
#                                CCDC 
#
#######################################################################
#
# If this CIF has been generated from an entry in the Cambridge 
# Structural Database, then it will include bibliographic, chemical, 
# crystal, experimental, refinement or atomic coordinate data resulting 
# from the CCDC's data processing and validation procedures.
#
#######################################################################

data_YAPGAY
_symmetry_cell_setting           monoclinic
_symmetry_space_group_name_H-M   'P 21/n'
_symmetry_Int_Tables_number      14
_space_group_name_Hall           '-P 2yn'
loop_
_symmetry_equiv_pos_site_id
_symmetry_equiv_pos_as_xyz
1 x,y,z
2 1/2-x,1/2+y,1/2-z
3 -x,-y,-z
4 1/2+x,1/2-y,1/2+z
_cell_length_a                   14.5758(2)
_cell_length_b                   17.0098(3)
_cell_length_c                   15.7961(2)
_cell_angle_alpha                90
_cell_angle_beta                 93.8800(10)
_cell_angle_gamma                90
_cell_volume                     3907.37
loop_
_atom_site_label
_atom_site_type_symbol
_atom_site_fract_x
_atom_site_fract_y
_atom_site_fract_z
I1 I -0.23606(4) 0.04305(4) 0.18595(4)
I2 I -0.28074(3) 0.18589(3) 0.29086(3)
I3 I -0.32848(7) 0.31700(4) 0.38542(6)
I4 I -0.07028(4) 0.01505(3) 0.05257(4)
I5 I -0.42146(4) 0.01198(3) 0.05259(3)
I4B I 0.07028(4) -0.01505(3) -0.05257(4)
I5B I -0.57854(4) -0.01198(3) -0.05259(3)
Na1 Na 0.2294(2) 0.0765(2) 0.3633(2)
C1 C 0.1066(5) 0.2766(4) 0.2958(5)
O1 O 0.1903(4) 0.2692(4) 0.3409(3)
C2 C 0.2055(6) 0.3085(4) 0.4186(5)
H1 H 0.1643(6) 0.2889(4) 0.4595(5)
H2 H 0.1953(6) 0.3645(4) 0.4112(5)
C3 C 0.3027(6) 0.2928(5) 0.4481(5)
H3 H 0.3429(6) 0.3151(5) 0.4079(5)
H4 H 0.3162(6) 0.3184(5) 0.5024(5)
O2 O 0.3205(4) 0.2123(3) 0.4566(4)
C4 C 0.4170(6) 0.1923(6) 0.4570(6)
H5 H 0.4284(6) 0.1459(6) 0.4918(6)
H6 H 0.4529(6) 0.2351(6) 0.4827(6)
C5 C 0.4481(6) 0.1771(6) 0.3718(5)
H7 H 0.4331(6) 0.2214(6) 0.3348(5)
H8 H 0.5143(6) 0.1696(6) 0.3749(5)
O3 O 0.4030(4) 0.1081(4) 0.3395(3)
C6 C 0.4337(6) 0.0889(7) 0.2566(6)
H9 H 0.4295(6) 0.1349(7) 0.2202(6)
H10 H 0.4972(6) 0.0716(7) 0.2617(6)
C7 C 0.3754(6) 0.0270(6) 0.2206(6)
H11 H 0.3964(6) 0.0117(6) 0.1660(6)
H12 H 0.3799(6) -0.0186(6) 0.2575(6)
O4 O 0.2822(3) 0.0516(3) 0.2100(3)
C8 C 0.2590(6) 0.0969(5) 0.1371(5)
H13 H 0.2610(6) 0.0645(5) 0.0867(5)
H14 H 0.3026(6) 0.1395(5) 0.1330(5)
C9 C 0.1640(6) 0.1295(5) 0.1431(5)
H15 H 0.1449(6) 0.1584(5) 0.0920(5)
H16 H 0.1204(6) 0.0873(5) 0.1503(5)
O5 O 0.1685(3) 0.1800(3) 0.2147(3)
C10 C 0.0946(5) 0.2271(4) 0.2258(4)
C11 C 0.0135(5) 0.2273(5) 0.1772(5)
H17 H 0.0045(5) 0.1939(5) 0.1307(5)
C12 C -0.0547(6) 0.2782(6) 0.1988(7)
H18 H -0.1105(6) 0.2781(6) 0.1665(7)
C13 C -0.0437(7) 0.3284(6) 0.2650(7)
H19 H -0.0903(7) 0.3633(6) 0.2769(7)
C14 C 0.0376(6) 0.3270(5) 0.3146(6)
H20 H 0.0457(6) 0.3605(5) 0.3611(6)
C15 C 0.1028(6) 0.1427(4) 0.5308(5)
O6 O 0.1698(4) 0.0870(3) 0.5294(3)
C16 C 0.2429(7) 0.0860(6) 0.5938(5)
H21 H 0.2188(7) 0.0843(6) 0.6495(5)
H22 H 0.2807(7) 0.1327(6) 0.5902(5)
C17 C 0.2979(7) 0.0139(7) 0.5788(6)
H23 H 0.3477(7) 0.0091(7) 0.6224(6)
H24 H 0.2593(7) -0.0324(7) 0.5809(6)
O7 O 0.3337(4) 0.0200(4) 0.4984(4)
C18 C 0.3748(9) -0.0507(9) 0.4717(9)
H25 H 0.4089(9) -0.0747(9) 0.5198(9)
H26 H 0.4181(9) -0.0383(9) 0.4296(9)
C19 C 0.3041(11) -0.1089(7) 0.4341(10)
H27 H 0.3347(11) -0.1565(7) 0.4170(10)
H28 H 0.2615(11) -0.1229(7) 0.4762(10)
O8 O 0.2568(5) -0.0749(4) 0.3643(5)
C20 C 0.1863(9) -0.1235(5) 0.3291(9)
H29 H 0.1437(9) -0.1358(5) 0.3718(9)
H30 H 0.2122(9) -0.1723(5) 0.3099(9)
C21 C 0.1369(8) -0.0826(6) 0.2565(7)
H31 H 0.1793(8) -0.0738(6) 0.2127(7)
H32 H 0.0880(8) -0.1164(6) 0.2330(7)
O9 O 0.0987(4) -0.0098(3) 0.2791(3)
C22 C 0.0136(5) -0.0165(5) 0.3142(5)
H33 H 0.0181(5) -0.0540(5) 0.3605(5)
H34 H -0.0320(5) -0.0357(5) 0.2715(5)
C23 C -0.0152(5) 0.0600(5) 0.3456(5)
H35 H -0.0245(5) 0.0972(5) 0.2992(5)
H36 H -0.0722(5) 0.0551(5) 0.3735(5)
O10 O 0.0564(3) 0.0854(3) 0.4035(3)
C24 C 0.0383(5) 0.1410(4) 0.4627(5)
C25 C -0.0330(6) 0.1938(5) 0.4583(6)
H37 H -0.0771(6) 0.1925(5) 0.4130(6)
C26 C -0.0386(8) 0.2492(6) 0.5225(8)
H38 H -0.0865(8) 0.2854(6) 0.5200(8)
C27 C 0.0249(10) 0.2505(7) 0.5881(8)
H39 H 0.0201(10) 0.2878(7) 0.6307(8)
C28 C 0.0963(8) 0.1983(5) 0.5940(6)
H40 H 0.1399(8) 0.2002(5) 0.6398(6)
loop_
_geom_bond_atom_site_label_1
_geom_bond_atom_site_label_2
_geom_bond_site_symmetry_1
_geom_bond_site_symmetry_2
I1 I2 1_555 1_555
I2 I3 1_555 1_555
I4 I1 1_555 1_555
I5 I1 1_555 1_555
Na1 O1 1_555 1_555
C1 O1 1_555 1_555
O1 C2 1_555 1_555
C2 H1 1_555 1_555
H2 C2 1_555 1_555
C3 C2 1_555 1_555
H3 C3 1_555 1_555
H4 C3 1_555 1_555
O2 Na1 1_555 1_555
C4 O2 1_555 1_555
H5 C4 1_555 1_555
H6 C4 1_555 1_555
C5 C4 1_555 1_555
H7 C5 1_555 1_555
H8 C5 1_555 1_555
O3 Na1 1_555 1_555
C6 O3 1_555 1_555
H9 C6 1_555 1_555
H10 C6 1_555 1_555
C7 C6 1_555 1_555
H11 C7 1_555 1_555
H12 C7 1_555 1_555
O4 Na1 1_555 1_555
C8 O4 1_555 1_555
H13 C8 1_555 1_555
H14 C8 1_555 1_555
C9 C8 1_555 1_555
H15 C9 1_555 1_555
H16 C9 1_555 1_555
O5 Na1 1_555 1_555
C10 C1 1_555 1_555
C11 C10 1_555 1_555
H17 C11 1_555 1_555
C12 C11 1_555 1_555
H18 C12 1_555 1_555
C13 C12 1_555 1_555
H19 C13 1_555 1_555
C14 C1 1_555 1_555
H20 C14 1_555 1_555
C15 O6 1_555 1_555
O6 Na1 1_555 1_555
C16 O6 1_555 1_555
H21 C16 1_555 1_555
H22 C16 1_555 1_555
C17 C16 1_555 1_555
H23 C17 1_555 1_555
H24 C17 1_555 1_555
O7 Na1 1_555 1_555
C18 O7 1_555 1_555
H25 C18 1_555 1_555
H26 C18 1_555 1_555
C19 C18 1_555 1_555
H27 C19 1_555 1_555
H28 C19 1_555 1_555
O8 Na1 1_555 1_555
C20 O8 1_555 1_555
H29 C20 1_555 1_555
H30 C20 1_555 1_555
C21 C20 1_555 1_555
H31 C21 1_555 1_555
H32 C21 1_555 1_555
O9 Na1 1_555 1_555
C22 O9 1_555 1_555
H33 C22 1_555 1_555
H34 C22 1_555 1_555
C23 C22 1_555 1_555
H35 C23 1_555 1_555
H36 C23 1_555 1_555
O10 Na1 1_555 1_555
C24 C15 1_555 1_555
C25 C24 1_555 1_555
H37 C25 1_555 1_555
C26 C25 1_555 1_555
H38 C26 1_555 1_555
C27 C26 1_555 1_555
H39 C27 1_555 1_555
C28 C15 1_555 1_555
H40 C28 1_555 1_555
I4B I4 1_555 1_555
I5B I5 1_555 1_555
C3 O2 1_555 1_555
C5 O3 1_555 1_555
C7 O4 1_555 1_555
C9 O5 1_555 1_555
O5 C10 1_555 1_555
C13 C14 1_555 1_555
C17 O7 1_555 1_555
C19 O8 1_555 1_555
C21 O9 1_555 1_555
C23 O10 1_555 1_555
O10 C24 1_555 1_555
C27 C28 1_555 1_555

#END
