
#######################################################################
#
#                 Cambridge Crystallographic Data Centre
#                                CCDC 
#
#######################################################################
#
# If this CIF has been generated from an entry in the Cambridge 
# Structural Database, then it will include bibliographic, chemical, 
# crystal, experimental, refinement or atomic coordinate data resulting 
# from the CCDC's data processing and validation procedures.
#
#######################################################################

data_YAPLAE
_symmetry_cell_setting           triclinic
_symmetry_space_group_name_H-M   'P -1'
_symmetry_Int_Tables_number      2
_space_group_name_Hall           '-P 1'
loop_
_symmetry_equiv_pos_site_id
_symmetry_equiv_pos_as_xyz
1 x,y,z
2 -x,-y,-z
_cell_length_a                   10.4977(17)
_cell_length_b                   13.273(4)
_cell_length_c                   16.561(3)
_cell_angle_alpha                88.393(17)
_cell_angle_beta                 76.549(13)
_cell_angle_gamma                69.16(2)
_cell_volume                     2093.62
loop_
_atom_site_label
_atom_site_type_symbol
_atom_site_fract_x
_atom_site_fract_y
_atom_site_fract_z
Cd1 Cd -0.33388(15) 0.69695(13) 0.43863(10)
Cd2 Cd -0.5000 0.5000 0.5000
O1 O -0.4837(14) 0.7761(11) 0.3540(8)
C1 C -0.617(2) 0.8200(19) 0.3813(14)
H1 H -0.6733 0.7840 0.3671
N1 N -0.6803(17) 0.9083(14) 0.4262(10)
C2 C -0.606(2) 0.9712(19) 0.4507(14)
H2 H -0.5122 0.9508 0.4134
H3 H -0.5975 0.9572 0.5080
H4 H -0.6581 1.0482 0.4472
C3 C -0.834(2) 0.9433(19) 0.4636(14)
H5 H -0.8752 0.9041 0.4345
H6 H -0.8783 1.0211 0.4583
H7 H -0.8500 0.9279 0.5225
O2 O -0.1928(14) 0.5548(11) 0.4991(8)
C4 C -0.095(3) 0.481(2) 0.4456(17)
H8 H -0.0516 0.5044 0.3957
N2 N -0.0571(19) 0.3854(16) 0.4549(12)
C5 C -0.117(3) 0.340(2) 0.5274(16)
H9 H -0.1752 0.3979 0.5702
H10 H -0.0417 0.2880 0.5490
H11 H -0.1753 0.3034 0.5123
C6 C 0.059(3) 0.308(2) 0.3942(17)
H12 H 0.0801 0.3441 0.3430
H13 H 0.0318 0.2479 0.3816
H14 H 0.1418 0.2807 0.4172
C7 C -0.521(2) 0.7190(16) -0.0211(12)
C8 C -0.648(2) 0.7256(17) -0.0395(13)
H15 H -0.6495 0.6727 -0.0763
C9 C -0.7728(18) 0.8113(15) -0.0030(12)
C10 C -0.769(2) 0.8840(16) 0.0507(12)
H16 H -0.8520 0.9442 0.0732
C11 C -0.642(2) 0.8707(16) 0.0740(12)
C12 C -0.5258(19) 0.7914(15) 0.0379(11)
H17 H -0.4414 0.7841 0.0534
C13 C -0.3873(18) 0.6278(14) -0.0615(11)
C14 C -0.2987(19) 0.5630(15) -0.0136(12)
C15 C -0.174(2) 0.4873(17) -0.0552(13)
H18 H -0.1125 0.4405 -0.0247
C16 C -0.134(2) 0.4783(16) -0.1465(12)
H19 H -0.0462 0.4270 -0.1749
C17 C -0.2215(19) 0.5426(16) -0.1896(13)
H20 H -0.1970 0.5345 -0.2487
C18 C -0.3492(19) 0.6219(16) -0.1486(12)
H21 H -0.4083 0.6705 -0.1793
C19 C -0.3359(19) 0.5626(15) 0.0759(11)
C20 C -0.4646(18) 0.5574(14) 0.1182(11)
H22 H -0.5301 0.5546 0.0881
C21 C -0.496(2) 0.5563(15) 0.2023(12)
H23 H -0.5840 0.5517 0.2297
C22 C -0.4070(19) 0.5616(15) 0.2496(12)
C23 C -0.2765(18) 0.5684(14) 0.2071(11)
H24 H -0.2118 0.5726 0.2374
C24 C -0.244(2) 0.5690(15) 0.1224(12)
H25 H -0.1571 0.5738 0.0945
C25 C -0.439(2) 0.5466(16) 0.3393(12)
O3 O -0.5554(12) 0.5412(10) 0.3758(8)
O4 O -0.3502(13) 0.5429(10) 0.3829(8)
C26 C -0.914(2) 0.8143(17) -0.0160(13)
C27 C -0.9386(19) 0.8047(15) -0.0958(12)
C28 C -1.0717(19) 0.8038(15) -0.0965(13)
H26 H -1.0901 0.7915 -0.1482
C29 C -1.176(2) 0.8201(15) -0.0254(12)
H27 H -1.2672 0.8249 -0.0293
C30 C -1.151(2) 0.8299(16) 0.0527(13)
H28 H -1.2221 0.8367 0.1020
C31 C -1.0202(18) 0.8294(14) 0.0566(12)
H29 H -1.0024 0.8393 0.1090
C32 C -0.8356(19) 0.7891(16) -0.1768(12)
C33 C -0.7514(18) 0.8500(16) -0.1965(12)
H30 H -0.7580 0.9029 -0.1567
C34 C -0.6574(19) 0.8356(16) -0.2731(11)
H31 H -0.5982 0.8768 -0.2850
C35 C -0.6503(19) 0.7602(16) -0.3327(12)
C36 C -0.7397(19) 0.7021(16) -0.3150(13)
H32 H -0.7379 0.6529 -0.3562
C37 C -0.8307(19) 0.7159(16) -0.2379(12)
H33 H -0.8908 0.6754 -0.2260
C38 C -0.549(2) 0.7417(16) -0.4150(12)
O5 O -0.5500(13) 0.6779(10) -0.4725(8)
O6 O -0.4535(14) 0.7816(11) -0.4273(8)
C39 C -0.6458(19) 0.9517(16) 0.1360(12)
C40 C -0.7456(18) 0.9815(15) 0.2137(11)
C41 C -0.743(2) 1.0608(16) 0.2630(12)
H34 H -0.8100 1.0810 0.3149
C42 C -0.647(2) 1.1144(17) 0.2418(13)
H35 H -0.6501 1.1699 0.2779
C43 C -0.550(2) 1.0842(16) 0.1678(12)
H36 H -0.4839 1.1189 0.1519
C44 C -0.547(2) 1.0036(16) 0.1156(13)
H37 H -0.4777 0.9827 0.0648
C45 C -0.8450(19) 0.9248(15) 0.2441(12)
C46 C -0.803(2) 0.8142(16) 0.2386(12)
H38 H -0.7094 0.7721 0.2116
C47 C -0.8962(19) 0.7633(16) 0.2716(11)
H39 H -0.8661 0.6867 0.2682
C48 C -1.0347(19) 0.8255(16) 0.3101(12)
C49 C -1.077(2) 0.9303(15) 0.3166(12)
H40 H -1.1720 0.9704 0.3439
C50 C -0.9844(19) 0.9868(17) 0.2834(11)
H41 H -1.0161 1.0634 0.2878
C51 C -1.138(2) 0.7697(17) 0.3525(13)
O7 O -1.1152(13) 0.6722(11) 0.3301(8)
O8 O -1.2349(13) 0.8221(11) 0.4135(8)
Cd1A Cd -0.66612(15) 0.30305(13) 0.56137(10)
Cd1_2 Cd -0.33388(15) 0.69695(13) -0.56137(10)
Cd1_3 Cd -1.33388(15) 0.69695(13) 0.43863(10)
Cd1A_2 Cd -0.66612(15) 0.30305(13) 1.56137(10)
Cd1A_3 Cd 0.33388(15) 0.30305(13) 0.56137(10)
Cd2_2 Cd -0.5000 0.5000 -0.5000
Cd2_3 Cd -0.5000 0.5000 1.5000
O1A O -0.5163(14) 0.2239(11) 0.6460(8)
C1A C -0.383(2) 0.1800(19) 0.6187(14)
H1A H -0.3267 0.2160 0.6329
N1A N -0.3197(17) 0.0917(14) 0.5738(10)
C2A C -0.394(2) 0.0288(19) 0.5493(14)
H2A H -0.4878 0.0492 0.5866
H3A H -0.4025 0.0428 0.4920
H4A H -0.3419 -0.0482 0.5528
C3A C -0.166(2) 0.0567(19) 0.5364(14)
H5A H -0.1248 0.0959 0.5655
H6A H -0.1217 -0.0211 0.5417
H7A H -0.1500 0.0721 0.4775
O2A O -0.8072(14) 0.4452(11) 0.5009(8)
C4A C -0.905(3) 0.519(2) 0.5544(17)
H8A H -0.9484 0.4956 0.6043
N2A N -0.9429(19) 0.6146(16) 0.5451(12)
C5A C -0.883(3) 0.660(2) 0.4726(16)
H9A H -0.8248 0.6021 0.4298
H10A H -0.9583 0.7120 0.4510
H11A H -0.8247 0.6966 0.4877
C6A C -1.059(3) 0.692(2) 0.6058(17)
H12A H -1.0801 0.6559 0.6570
H13A H -1.0318 0.7521 0.6184
H14A H -1.1418 0.7193 0.5828
C7A C -0.479(2) 0.2810(16) 1.0211(12)
C8A C -0.352(2) 0.2744(17) 1.0395(13)
H15A H -0.3505 0.3273 1.0763
C9A C -0.2272(18) 0.1887(15) 1.0030(12)
C10A C -0.231(2) 0.1160(16) 0.9493(12)
H16A H -0.1480 0.0558 0.9268
C11A C -0.358(2) 0.1293(16) 0.9260(12)
C12A C -0.4742(19) 0.2086(15) 0.9621(11)
H17A H -0.5586 0.2159 0.9466
C13A C -0.6127(18) 0.3722(14) 1.0615(11)
C14A C -0.7013(19) 0.4370(15) 1.0136(12)
C15A C -0.826(2) 0.5127(17) 1.0552(13)
H18A H -0.8875 0.5595 1.0247
C16A C -0.866(2) 0.5217(16) 1.1465(12)
H19A H -0.9538 0.5730 1.1749
C17A C -0.7785(19) 0.4574(16) 1.1896(13)
H20A H -0.8030 0.4655 1.2487
C18A C -0.6508(19) 0.3781(16) 1.1486(12)
H21A H -0.5917 0.3295 1.1793
C19A C -0.6641(19) 0.4374(15) 0.9241(11)
C20A C -0.5354(18) 0.4426(14) 0.8818(11)
H22A H -0.4699 0.4454 0.9119
C21A C -0.504(2) 0.4437(15) 0.7977(12)
H23A H -0.4160 0.4483 0.7703
C22A C -0.5930(19) 0.4384(15) 0.7504(12)
C23A C -0.7235(18) 0.4316(14) 0.7929(11)
H24A H -0.7882 0.4274 0.7626
C24A C -0.756(2) 0.4310(15) 0.8776(12)
H25A H -0.8429 0.4262 0.9055
C25A C -0.561(2) 0.4534(16) 0.6607(12)
O3A O -0.4446(12) 0.4588(10) 0.6242(8)
O4A O -0.6498(13) 0.4571(10) 0.6171(8)
C26A C -0.086(2) 0.1857(17) 1.0160(13)
C27A C -0.0614(19) 0.1953(15) 1.0958(12)
C28A C 0.0717(19) 0.1962(15) 1.0965(13)
H26A H 0.0901 0.2085 1.1482
C29A C 0.176(2) 0.1799(15) 1.0254(12)
H27A H 0.2672 0.1751 1.0293
C30A C 0.151(2) 0.1701(16) 0.9473(13)
H28A H 0.2221 0.1633 0.8980
C31A C 0.0202(18) 0.1706(14) 0.9434(12)
H29A H 0.0024 0.1607 0.8910
C32A C -0.1644(19) 0.2109(16) 1.1768(12)
C33A C -0.2486(18) 0.1500(16) 1.1965(12)
H30A H -0.2420 0.0971 1.1567
C34A C -0.3426(19) 0.1644(16) 1.2731(11)
H31A H -0.4018 0.1232 1.2850
C35A C -0.3497(19) 0.2398(16) 1.3327(12)
C36A C -0.2603(19) 0.2979(16) 1.3150(13)
H32A H -0.2621 0.3471 1.3562
C37A C -0.1693(19) 0.2841(16) 1.2379(12)
H33A H -0.1092 0.3246 1.2260
C38A C -0.451(2) 0.2583(16) 1.4150(12)
O5A O -0.4500(13) 0.3221(10) 1.4725(8)
O5_2 O -0.5500(13) 0.6779(10) 0.5275(8)
O5A_2 O -0.4500(13) 0.3221(10) 0.4725(8)
O6A O -0.5465(14) 0.2184(11) 1.4273(8)
O6_2 O -0.4535(14) 0.7816(11) 0.5727(8)
O6A_2 O -0.5465(14) 0.2184(11) 0.4273(8)
C39A C -0.3542(19) 0.0483(16) 0.8640(12)
C40A C -0.2544(18) 0.0185(15) 0.7863(11)
C41A C -0.257(2) -0.0608(16) 0.7370(12)
H34A H -0.1900 -0.0810 0.6851
C42A C -0.353(2) -0.1144(17) 0.7582(13)
H35A H -0.3499 -0.1699 0.7221
C43A C -0.450(2) -0.0842(16) 0.8322(12)
H36A H -0.5161 -0.1189 0.8481
C44A C -0.453(2) -0.0036(16) 0.8844(13)
H37A H -0.5223 0.0173 0.9352
C45A C -0.1550(19) 0.0752(15) 0.7559(12)
C46A C -0.197(2) 0.1858(16) 0.7614(12)
H38A H -0.2906 0.2279 0.7884
C47A C -0.1038(19) 0.2367(16) 0.7284(11)
H39A H -0.1339 0.3133 0.7318
C48A C 0.0347(19) 0.1745(16) 0.6899(12)
C49A C 0.077(2) 0.0697(15) 0.6834(12)
H40A H 0.1720 0.0296 0.6561
C50A C -0.0156(19) 0.0132(17) 0.7166(11)
H41A H 0.0161 -0.0634 0.7122
C51A C 0.138(2) 0.2303(17) 0.6475(13)
O7A O 0.1152(13) 0.3278(11) 0.6699(8)
O7_2 O -0.1152(13) 0.6722(11) 0.3301(8)
O7A_2 O -0.8848(13) 0.3278(11) 0.6699(8)
O8A O 0.2349(13) 0.1779(11) 0.5865(8)
O8_2 O -0.2349(13) 0.8221(11) 0.4135(8)
O8A_2 O -0.7651(13) 0.1779(11) 0.5865(8)
loop_
_geom_bond_atom_site_label_1
_geom_bond_atom_site_label_2
_geom_bond_site_symmetry_1
_geom_bond_site_symmetry_2
Cd1 O1 1_555 1_555
Cd2 O3 1_555 1_555
O1 C1 1_555 1_555
C1 H1 1_555 1_555
N1 C1 1_555 1_555
C2 N1 1_555 1_555
H2 C2 1_555 1_555
H3 C2 1_555 1_555
H4 C2 1_555 1_555
C3 N1 1_555 1_555
H5 C3 1_555 1_555
H6 C3 1_555 1_555
H7 C3 1_555 1_555
O2 Cd1 1_555 1_555
C4 O2 1_555 1_555
H8 C4 1_555 1_555
N2 C4 1_555 1_555
C5 N2 1_555 1_555
H9 C5 1_555 1_555
H10 C5 1_555 1_555
H11 C5 1_555 1_555
C6 N2 1_555 1_555
H12 C6 1_555 1_555
H13 C6 1_555 1_555
H14 C6 1_555 1_555
C7 C8 1_555 1_555
C8 H15 1_555 1_555
C9 C8 1_555 1_555
C10 C9 1_555 1_555
H16 C10 1_555 1_555
C11 C10 1_555 1_555
C12 C7 1_555 1_555
H17 C12 1_555 1_555
C13 C7 1_555 1_555
C14 C13 1_555 1_555
C15 C14 1_555 1_555
H18 C15 1_555 1_555
C16 C15 1_555 1_555
H19 C16 1_555 1_555
C17 C16 1_555 1_555
H20 C17 1_555 1_555
C18 C13 1_555 1_555
H21 C18 1_555 1_555
C19 C14 1_555 1_555
C20 C19 1_555 1_555
H22 C20 1_555 1_555
C21 C20 1_555 1_555
H23 C21 1_555 1_555
C22 C21 1_555 1_555
C23 C22 1_555 1_555
H24 C23 1_555 1_555
C24 C19 1_555 1_555
H25 C24 1_555 1_555
C25 C22 1_555 1_555
O3 C25 1_555 1_555
O4 Cd1 1_555 1_555
C26 C9 1_555 1_555
C27 C26 1_555 1_555
C28 C27 1_555 1_555
H26 C28 1_555 1_555
C29 C28 1_555 1_555
H27 C29 1_555 1_555
C30 C29 1_555 1_555
H28 C30 1_555 1_555
C31 C26 1_555 1_555
H29 C31 1_555 1_555
C32 C27 1_555 1_555
C33 C32 1_555 1_555
H30 C33 1_555 1_555
C34 C33 1_555 1_555
H31 C34 1_555 1_555
C35 C34 1_555 1_555
C36 C35 1_555 1_555
H32 C36 1_555 1_555
C37 C32 1_555 1_555
H33 C37 1_555 1_555
C38 C35 1_555 1_555
O5 C38 1_555 1_555
O6 C38 1_555 1_555
C39 C11 1_555 1_555
C40 C39 1_555 1_555
C41 C40 1_555 1_555
H34 C41 1_555 1_555
C42 C41 1_555 1_555
H35 C42 1_555 1_555
C43 C42 1_555 1_555
H36 C43 1_555 1_555
C44 C39 1_555 1_555
H37 C44 1_555 1_555
C45 C40 1_555 1_555
C46 C45 1_555 1_555
H38 C46 1_555 1_555
C47 C46 1_555 1_555
H39 C47 1_555 1_555
C48 C47 1_555 1_555
C49 C48 1_555 1_555
H40 C49 1_555 1_555
C50 C45 1_555 1_555
H41 C50 1_555 1_555
C51 C48 1_555 1_555
O7 C51 1_555 1_555
O8 C51 1_555 1_555
Cd1A O1A 1_555 1_555
Cd1_2 O6 1_555 1_555
Cd1_3 O7 1_555 1_555
Cd1A_2 O6A 1_555 1_555
Cd1A_3 O7A 1_555 1_555
Cd2_2 O5 1_555 1_555
Cd2_3 O5A 1_555 1_555
O1A C1A 1_555 1_555
C1A H1A 1_555 1_555
N1A C1A 1_555 1_555
C2A N1A 1_555 1_555
H2A C2A 1_555 1_555
H3A C2A 1_555 1_555
H4A C2A 1_555 1_555
C3A N1A 1_555 1_555
H5A C3A 1_555 1_555
H6A C3A 1_555 1_555
H7A C3A 1_555 1_555
O2A Cd1A 1_555 1_555
C4A O2A 1_555 1_555
H8A C4A 1_555 1_555
N2A C4A 1_555 1_555
C5A N2A 1_555 1_555
H9A C5A 1_555 1_555
H10A C5A 1_555 1_555
H11A C5A 1_555 1_555
C6A N2A 1_555 1_555
H12A C6A 1_555 1_555
H13A C6A 1_555 1_555
H14A C6A 1_555 1_555
C7A C8A 1_555 1_555
C8A H15A 1_555 1_555
C9A C8A 1_555 1_555
C10A C9A 1_555 1_555
H16A C10A 1_555 1_555
C11A C10A 1_555 1_555
C12A C7A 1_555 1_555
H17A C12A 1_555 1_555
C13A C7A 1_555 1_555
C14A C13A 1_555 1_555
C15A C14A 1_555 1_555
H18A C15A 1_555 1_555
C16A C15A 1_555 1_555
H19A C16A 1_555 1_555
C17A C16A 1_555 1_555
H20A C17A 1_555 1_555
C18A C13A 1_555 1_555
H21A C18A 1_555 1_555
C19A C14A 1_555 1_555
C20A C19A 1_555 1_555
H22A C20A 1_555 1_555
C21A C20A 1_555 1_555
H23A C21A 1_555 1_555
C22A C21A 1_555 1_555
C23A C22A 1_555 1_555
H24A C23A 1_555 1_555
C24A C19A 1_555 1_555
H25A C24A 1_555 1_555
C25A C22A 1_555 1_555
O3A Cd2 1_555 1_555
O4A Cd2 1_555 1_555
C26A C9A 1_555 1_555
C27A C26A 1_555 1_555
C28A C27A 1_555 1_555
H26A C28A 1_555 1_555
C29A C28A 1_555 1_555
H27A C29A 1_555 1_555
C30A C29A 1_555 1_555
H28A C30A 1_555 1_555
C31A C26A 1_555 1_555
H29A C31A 1_555 1_555
C32A C27A 1_555 1_555
C33A C32A 1_555 1_555
H30A C33A 1_555 1_555
C34A C33A 1_555 1_555
H31A C34A 1_555 1_555
C35A C34A 1_555 1_555
C36A C35A 1_555 1_555
H32A C36A 1_555 1_555
C37A C32A 1_555 1_555
H33A C37A 1_555 1_555
C38A C35A 1_555 1_555
O5A C38A 1_555 1_555
O5_2 Cd2 1_555 1_555
O5A_2 Cd2 1_555 1_555
O6A C38A 1_555 1_555
O6_2 Cd1 1_555 1_555
O6A_2 Cd1A 1_555 1_555
C39A C11A 1_555 1_555
C40A C39A 1_555 1_555
C41A C40A 1_555 1_555
H34A C41A 1_555 1_555
C42A C41A 1_555 1_555
H35A C42A 1_555 1_555
C43A C42A 1_555 1_555
H36A C43A 1_555 1_555
C44A C39A 1_555 1_555
H37A C44A 1_555 1_555
C45A C40A 1_555 1_555
C46A C45A 1_555 1_555
H38A C46A 1_555 1_555
C47A C46A 1_555 1_555
H39A C47A 1_555 1_555
C48A C47A 1_555 1_555
C49A C48A 1_555 1_555
H40A C49A 1_555 1_555
C50A C45A 1_555 1_555
H41A C50A 1_555 1_555
C51A C48A 1_555 1_555
O7A C51A 1_555 1_555
O7_2 Cd1 1_555 1_555
O7A_2 Cd1A 1_555 1_555
O8A Cd1A_3 1_555 1_555
O8_2 Cd1 1_555 1_555
O8A_2 Cd1A 1_555 1_555
Cd2 O4 1_555 1_555
C11 C12 1_555 1_555
C17 C18 1_555 1_555
C23 C24 1_555 1_555
C25 O4 1_555 1_555
C30 C31 1_555 1_555
C36 C37 1_555 1_555
C43 C44 1_555 1_555
C49 C50 1_555 1_555
O8 Cd1_3 1_555 1_555
Cd1A O4A 1_555 1_555
C11A C12A 1_555 1_555
C17A C18A 1_555 1_555
C23A C24A 1_555 1_555
C25A O3A 1_555 1_555
C25A O4A 1_555 1_555
C30A C31A 1_555 1_555
C36A C37A 1_555 1_555
C43A C44A 1_555 1_555
C49A C50A 1_555 1_555
C51A O8A 1_555 1_555

#END
