
#######################################################################
#
#                 Cambridge Crystallographic Data Centre
#                                CCDC 
#
#######################################################################
#
# If this CIF has been generated from an entry in the Cambridge 
# Structural Database, then it will include bibliographic, chemical, 
# crystal, experimental, refinement or atomic coordinate data resulting 
# from the CCDC's data processing and validation procedures.
#
#######################################################################

data_YAPWUJ
_symmetry_cell_setting           monoclinic
_symmetry_space_group_name_H-M   'P 21'
_symmetry_Int_Tables_number      4
_space_group_name_Hall           'P 2yb'
loop_
_symmetry_equiv_pos_site_id
_symmetry_equiv_pos_as_xyz
1 x,y,z
2 -x,1/2+y,-z
_cell_length_a                   9.4828(11)
_cell_length_b                   16.6237(19)
_cell_length_c                   10.3520(12)
_cell_angle_alpha                90
_cell_angle_beta                 101.619(2)
_cell_angle_gamma                90
_cell_volume                     1598.44
loop_
_atom_site_label
_atom_site_type_symbol
_atom_site_fract_x
_atom_site_fract_y
_atom_site_fract_z
C1 C 0.1658(7) -0.1061(4) 0.3648(5)
C2 C 0.2119(7) -0.1847(3) 0.4311(5)
C3 C 0.1058(7) -0.2410(4) 0.4425(5)
H1 H 0.0080 -0.2292 0.4055
C4 C 0.1399(7) -0.3135(3) 0.5065(5)
C5 C 0.2850(7) -0.3305(3) 0.5598(5)
C6 C 0.3902(7) -0.2762(3) 0.5457(5)
H2 H 0.4880 -0.2894 0.5802
C7 C 0.3577(8) -0.2019(4) 0.4820(6)
C8 C 0.3307(7) -0.4063(4) 0.6367(6)
C9 C -0.1525(6) -0.3560(3) 0.4117(5)
H3 H -0.1759 -0.2996 0.4300
H4 H -0.1412 -0.3600 0.3189
C10 C -0.2702(7) -0.4126(4) 0.4370(6)
H5 H -0.2389 -0.4695 0.4292
C11 C -0.4092(7) -0.3978(4) 0.3387(6)
H6 H -0.4853 -0.4321 0.3604
H7 H -0.3954 -0.4107 0.2497
H8 H -0.4369 -0.3412 0.3423
C12 C 0.6534(6) -0.1826(3) 0.5536(6)
H9 H 0.6514 -0.1888 0.6484
H10 H 0.6578 -0.2368 0.5152
C13 C 0.7840(7) -0.1341(4) 0.5380(6)
H11 H 0.8718 -0.1671 0.5719
C14 C 0.7983(7) -0.0555(3) 0.6137(6)
H12 H 0.8818 -0.0257 0.5966
H13 H 0.8113 -0.0667 0.7083
H14 H 0.7110 -0.0233 0.5852
C15 C 0.6214(7) -0.4010(4) 0.9142(5)
C16 C 0.6956(7) -0.3218(3) 0.9534(5)
C17 C 0.6170(7) -0.2517(3) 0.9170(5)
H15 H 0.5204 -0.2558 0.8697
C18 C 0.6762(7) -0.1759(3) 0.9480(5)
C19 C 0.8197(7) -0.1713(3) 1.0157(5)
C20 C 0.8986(7) -0.2421(3) 1.0491(5)
H16 H 0.9969 -0.2383 1.0920
C21 C 0.8373(7) -0.3175(3) 1.0215(5)
C22 C 0.8927(8) -0.0934(4) 1.0624(6)
C23 C 0.4075(7) -0.1165(4) 0.8074(6)
H17 H 0.3634 -0.0699 0.7547
H18 H 0.4243 -0.1585 0.7445
C24 C 0.2996(7) -0.1486(4) 0.8829(5)
H19 H 0.3279 -0.2045 0.9132
C25 C 0.1512(7) -0.1507(4) 0.7954(6)
H20 H 0.0834 -0.1758 0.8431
H21 H 0.1544 -0.1819 0.7157
H22 H 0.1197 -0.0957 0.7707
C26 C 1.1034(7) -0.3760(4) 1.1590(6)
H23 H 1.0910 -0.3246 1.2037
H24 H 1.1404 -0.4158 1.2288
C27 C 1.2203(8) -0.3633(4) 1.0772(6)
H25 H 1.2775 -0.4140 1.0790
C28 C 1.3199(8) -0.2962(4) 1.1375(6)
H26 H 1.4043 -0.2948 1.0962
H27 H 1.3510 -0.3055 1.2324
H28 H 1.2690 -0.2446 1.1229
O1 O 0.2522(5) -0.0677(3) 0.3120(4)
O2 O 0.0384(5) -0.0811(3) 0.3621(4)
O3 O 0.2510(5) -0.4338(3) 0.7101(4)
O4 O 0.4495(5) -0.4373(2) 0.6304(4)
O5 O 0.7739(6) -0.1220(3) 0.3983(4)
H29 H 0.8382 -0.0898 0.3863
O6 O -0.2849(5) -0.3974(3) 0.5703(4)
H30 H -0.3719 -0.3888 0.5718
O7 O 0.6868(4) -0.4539(2) 0.8636(4)
O8 O 0.4936(5) -0.4097(3) 0.9274(4)
O9 O 0.8171(4) -0.0377(3) 1.0971(4)
O10 O 1.0265(5) -0.0871(3) 1.0711(4)
O11 O 0.3030(5) -0.0986(3) 0.9957(5)
H31 H 0.2263 -0.1045 1.0235
O12 O 1.1545(5) -0.3449(3) 0.9421(4)
H32 H 1.2102 -0.3587 0.8924
Pb1 Pb 0.44594(3) -0.537480(10) 0.80730(2)
Pb2 Pb 0.07030(3) 0.034854(11) 0.21177(2)
S1 S 0.00984(19) -0.38784(11) 0.52254(16)
S2 S 0.49226(19) -0.13086(9) 0.47000(15)
S3 S 0.57951(19) -0.08532(9) 0.90069(14)
S4 S 0.92993(19) -0.40879(9) 1.07573(14)
O7A O 0.3132(4) 0.0461(2) 0.1364(4)
O9A O 0.1829(4) -0.5377(3) 0.9029(4)
O9_2 O -0.1829(4) -0.0377(3) 0.0971(4)
O10_2 O 0.0265(5) -0.0871(3) 0.0711(4)
Pb1A Pb 0.55406(3) -0.037480(10) 1.19270(2)
Pb2A Pb 0.92970(3) -0.465146(11) 0.78823(2)
Pb2_2 Pb 1.07030(3) 0.034854(11) 1.21177(2)
loop_
_geom_bond_atom_site_label_1
_geom_bond_atom_site_label_2
_geom_bond_site_symmetry_1
_geom_bond_site_symmetry_2
C1 C2 1_555 1_555
C2 C3 1_555 1_555
C3 H1 1_555 1_555
C4 C3 1_555 1_555
C5 C4 1_555 1_555
C6 C5 1_555 1_555
H2 C6 1_555 1_555
C7 C2 1_555 1_555
C8 C5 1_555 1_555
C9 H3 1_555 1_555
H4 C9 1_555 1_555
C10 C9 1_555 1_555
H5 C10 1_555 1_555
C11 C10 1_555 1_555
H6 C11 1_555 1_555
H7 C11 1_555 1_555
H8 C11 1_555 1_555
C12 H9 1_555 1_555
H10 C12 1_555 1_555
C13 C12 1_555 1_555
H11 C13 1_555 1_555
C14 C13 1_555 1_555
H12 C14 1_555 1_555
H13 C14 1_555 1_555
H14 C14 1_555 1_555
C15 C16 1_555 1_555
C16 C17 1_555 1_555
C17 H15 1_555 1_555
C18 C17 1_555 1_555
C19 C18 1_555 1_555
C20 C19 1_555 1_555
H16 C20 1_555 1_555
C21 C16 1_555 1_555
C22 C19 1_555 1_555
C23 H17 1_555 1_555
H18 C23 1_555 1_555
C24 C23 1_555 1_555
H19 C24 1_555 1_555
C25 C24 1_555 1_555
H20 C25 1_555 1_555
H21 C25 1_555 1_555
H22 C25 1_555 1_555
C26 H23 1_555 1_555
H24 C26 1_555 1_555
C27 C26 1_555 1_555
H25 C27 1_555 1_555
C28 C27 1_555 1_555
H26 C28 1_555 1_555
H27 C28 1_555 1_555
H28 C28 1_555 1_555
O1 C1 1_555 1_555
O2 C1 1_555 1_555
O3 C8 1_555 1_555
O4 C8 1_555 1_555
O5 C13 1_555 1_555
H29 O5 1_555 1_555
O6 C10 1_555 1_555
H30 O6 1_555 1_555
O7 C15 1_555 1_555
O8 C15 1_555 1_555
O9 C22 1_555 1_555
O10 C22 1_555 1_555
O11 C24 1_555 1_555
H31 O11 1_555 1_555
O12 C27 1_555 1_555
H32 O12 1_555 1_555
Pb1 O3 1_555 1_555
Pb2 O1 1_555 1_555
S1 C4 1_555 1_555
S2 C7 1_555 1_555
S3 C18 1_555 1_555
S4 C21 1_555 1_555
O7A Pb2 1_555 1_555
O9A Pb1 1_555 1_555
O9_2 Pb2 1_555 1_555
O10_2 Pb2 1_555 1_555
Pb1A O9 1_555 1_555
Pb2A O7 1_555 1_555
Pb2_2 O9 1_555 1_555
C6 C7 1_555 1_555
C9 S1 1_555 1_555
C12 S2 1_555 1_555
C20 C21 1_555 1_555
C23 S3 1_555 1_555
C26 S4 1_555 1_555
O2 Pb2 1_555 1_555
O4 Pb1 1_555 1_555
O7 Pb1 1_555 1_555
O8 Pb1 1_555 1_555
O10 Pb2_2 1_555 1_555

#END
