
#######################################################################
#
#                 Cambridge Crystallographic Data Centre
#                                CCDC 
#
#######################################################################
#
# If this CIF has been generated from an entry in the Cambridge 
# Structural Database, then it will include bibliographic, chemical, 
# crystal, experimental, refinement or atomic coordinate data resulting 
# from the CCDC's data processing and validation procedures.
#
#######################################################################

data_YAQKEH
_symmetry_cell_setting           monoclinic
_symmetry_space_group_name_H-M   'P 21/c'
_symmetry_Int_Tables_number      14
_space_group_name_Hall           '-P 2ybc'
loop_
_symmetry_equiv_pos_site_id
_symmetry_equiv_pos_as_xyz
1 x,y,z
2 -x,1/2+y,1/2-z
3 -x,-y,-z
4 x,1/2-y,1/2+z
_cell_length_a                   11.8773(2)
_cell_length_b                   22.2747(4)
_cell_length_c                   9.15840(10)
_cell_angle_alpha                90
_cell_angle_beta                 107.1404(9)
_cell_angle_gamma                90
_cell_volume                     2315.36
loop_
_atom_site_label
_atom_site_type_symbol
_atom_site_fract_x
_atom_site_fract_y
_atom_site_fract_z
Ag1 Ag 0.315253(13) 0.367573(7) 0.639896(17)
Ag2 Ag 0.227341(14) 0.414177(7) 0.258938(17)
C1 C 0.05065(18) 0.34885(9) 0.4174(2)
C2 C -0.07534(18) 0.33175(9) 0.3924(2)
C3 C -0.1257(2) 0.30355(10) 0.4927(2)
H1 H -0.0786 0.2904 0.5903
C4 C -0.2467(2) 0.29505(11) 0.4466(3)
H2 H -0.2829 0.2757 0.5136
C5 C -0.3162(2) 0.31435(10) 0.3037(3)
H3 H -0.3990 0.3083 0.2753
C6 C -0.26614(19) 0.34238(10) 0.2019(2)
H4 H -0.3126 0.3555 0.1040
C7 C -0.14560(18) 0.35011(9) 0.2508(2)
N1 N 0.06862(15) 0.37791(8) 0.29709(19)
S1 S -0.05408(4) 0.38566(2) 0.15706(5)
O1 O 0.12750(13) 0.33704(7) 0.53825(16)
O2 O -0.08372(14) 0.44828(7) 0.13253(18)
O3 O -0.04944(14) 0.35253(8) 0.02487(16)
C8 C 0.50112(18) 0.42437(9) 0.4871(2)
C9 C 0.62726(18) 0.44065(9) 0.5120(2)
C10 C 0.67907(19) 0.46466(10) 0.4074(2)
H5 H 0.6339 0.4723 0.3048
C11 C 0.7989(2) 0.47717(10) 0.4574(2)
H6 H 0.8365 0.4930 0.3874
C12 C 0.86496(19) 0.46692(10) 0.6087(2)
H7 H 0.9463 0.4770 0.6407
C13 C 0.81404(19) 0.44221(10) 0.7135(2)
H8 H 0.8587 0.4345 0.8162
C14 C 0.69551(18) 0.42945(9) 0.6605(2)
N2 N 0.47966(15) 0.40334(8) 0.61513(18)
O4 O 0.42651(13) 0.43018(7) 0.36122(15)
O5 O 0.62879(13) 0.33738(7) 0.79845(17)
O6 O 0.59520(13) 0.43741(7) 0.88269(16)
S2 S 0.60049(4) 0.39942(2) 0.75798(5)
C15 C 0.16950(17) 0.35164(10) 0.8929(2)
H9 H 0.1605 0.3346 0.9886
H10 H 0.1067 0.3346 0.8064
C16 C 0.15577(19) 0.41874(9) 0.8946(2)
H11 H 0.1617 0.4359 0.7974
H12 H 0.0772 0.4289 0.9044
C17 C 0.36472(18) 0.42895(9) 1.0068(2)
H13 H 0.4278 0.4465 1.0922
H14 H 0.3722 0.4457 0.9100
C18 C 0.37793(18) 0.36154(9) 1.0067(2)
H15 H 0.4567 0.3511 0.9979
H16 H 0.3717 0.3450 1.1043
C19 C 0.29209(19) 0.26835(9) 0.8776(2)
H17 H 0.2288 0.2530 0.7891
H18 H 0.2767 0.2531 0.9715
C20 C 0.4086(2) 0.24354(10) 0.8700(2)
H19 H 0.4723 0.2573 0.9601
H20 H 0.4064 0.1991 0.8723
N3 N 0.28588(14) 0.33462(7) 0.87789(18)
N4 N 0.24827(15) 0.44468(8) 1.02375(18)
H21 H 0.2455 0.4869 1.0267
O7 O 0.43301(13) 0.26289(6) 0.73360(15)
H22 H 0.4960 0.2853 0.7621
Ag2_2 Ag 0.227341(14) 0.414177(7) 1.258938(17)
N4_2 N 0.24827(15) 0.44468(8) 0.02375(18)
H21_2 H 0.2455 0.4869 0.0267
loop_
_geom_bond_atom_site_label_1
_geom_bond_atom_site_label_2
_geom_bond_site_symmetry_1
_geom_bond_site_symmetry_2
Ag1 Ag2 1_555 1_555
Ag2 N1 1_555 1_555
C1 C2 1_555 1_555
C2 C3 1_555 1_555
C3 H1 1_555 1_555
C4 C3 1_555 1_555
H2 C4 1_555 1_555
C5 C4 1_555 1_555
H3 C5 1_555 1_555
C6 C5 1_555 1_555
H4 C6 1_555 1_555
C7 C2 1_555 1_555
N1 C1 1_555 1_555
S1 C7 1_555 1_555
O1 Ag1 1_555 1_555
O2 S1 1_555 1_555
O3 S1 1_555 1_555
C8 C9 1_555 1_555
C9 C10 1_555 1_555
C10 H5 1_555 1_555
C11 C10 1_555 1_555
H6 C11 1_555 1_555
C12 C11 1_555 1_555
H7 C12 1_555 1_555
C13 C12 1_555 1_555
H8 C13 1_555 1_555
C14 C9 1_555 1_555
N2 Ag1 1_555 1_555
O4 Ag2 1_555 1_555
O5 S2 1_555 1_555
O6 S2 1_555 1_555
S2 C14 1_555 1_555
C15 H9 1_555 1_555
H10 C15 1_555 1_555
C16 C15 1_555 1_555
H11 C16 1_555 1_555
H12 C16 1_555 1_555
C17 H13 1_555 1_555
H14 C17 1_555 1_555
C18 C17 1_555 1_555
H15 C18 1_555 1_555
H16 C18 1_555 1_555
C19 H17 1_555 1_555
H18 C19 1_555 1_555
C20 C19 1_555 1_555
H19 C20 1_555 1_555
H20 C20 1_555 1_555
N3 Ag1 1_555 1_555
N4 C16 1_555 1_555
H21 N4 1_555 1_555
O7 Ag1 1_555 1_555
H22 O7 1_555 1_555
Ag2_2 N4 1_555 1_555
N4_2 Ag2 1_555 1_555
H21_2 N4_2 1_555 1_555
C1 O1 1_555 1_555
C6 C7 1_555 1_555
N1 S1 1_555 1_555
C8 N2 1_555 1_555
C8 O4 1_555 1_555
C13 C14 1_555 1_555
N2 S2 1_555 1_555
C15 N3 1_555 1_555
C17 N4 1_555 1_555
C18 N3 1_555 1_555
C19 N3 1_555 1_555
C20 O7 1_555 1_555

#END
