
#######################################################################
#
#                 Cambridge Crystallographic Data Centre
#                                CCDC 
#
#######################################################################
#
# If this CIF has been generated from an entry in the Cambridge 
# Structural Database, then it will include bibliographic, chemical, 
# crystal, experimental, refinement or atomic coordinate data resulting 
# from the CCDC's data processing and validation procedures.
#
#######################################################################

data_YAQKEI
_symmetry_cell_setting           monoclinic
_symmetry_space_group_name_H-M   'P n'
_symmetry_Int_Tables_number      7
_space_group_name_Hall           'P -2yac'
loop_
_symmetry_equiv_pos_site_id
_symmetry_equiv_pos_as_xyz
1 x,y,z
2 1/2+x,-y,1/2+z
_cell_length_a                   7.2389(13)
_cell_length_b                   22.164(4)
_cell_length_c                   10.633(2)
_cell_angle_alpha                90
_cell_angle_beta                 90.800(2)
_cell_angle_gamma                90
_cell_volume                     1705.82
loop_
_atom_site_label
_atom_site_type_symbol
_atom_site_fract_x
_atom_site_fract_y
_atom_site_fract_z
Ho1 Ho 0.26317(5) 0.250369(12) 0.84882(4)
Sb1 Sb 0.45267(6) -0.00743(2) 1.13905(5)
Sb2 Sb 0.57508(5) 0.482195(19) 0.59598(4)
N1 N 0.1901(7) 0.0510(3) 1.1299(5)
N2 N 0.2199(7) -0.0773(3) 1.1666(5)
N3 N 0.8085(7) 0.4119(2) 0.6326(5)
N4 N 0.8393(7) 0.5413(2) 0.5945(6)
O1 O 0.3708(8) 0.0119(3) 1.3358(5)
O2 O 0.2566(7) 0.0839(4) 1.4589(5)
O3 O 0.5123(6) 0.0888(2) 1.0372(5)
O4 O 0.3820(6) 0.1595(2) 0.9165(5)
O5 O 0.5732(6) -0.1126(2) 1.1893(5)
O6 O 0.5027(6) -0.1966(2) 1.2966(5)
O7 O 0.3615(6) -0.0271(2) 0.9540(5)
O8 O 0.2200(8) -0.0922(3) 0.8253(5)
O9 O 0.4528(7) 0.3776(2) 0.6549(5)
O10 O 0.5221(6) 0.3012(2) 0.7845(5)
O11 O 0.6800(6) 0.4626(2) 0.4142(5)
O12 O 0.8248(8) 0.3970(3) 0.2919(5)
O13 O 0.6481(6) 0.5013(2) 0.7946(4)
O14 O 0.7685(7) 0.5701(2) 0.9241(5)
O15 O 0.5171(6) 0.5793(2) 0.4950(4)
O16 O 0.6456(6) 0.6555(2) 0.3927(4)
O17 O 0.3685(6) 0.1917(2) 0.6709(4)
O18 O 0.4449(6) 0.2735(2) 1.0333(4)
O19 O 0.0814(7) 0.2394(2) 1.0306(5)
O20 O 0.1561(6) 0.2978(2) 0.6550(4)
C1 C 0.1968(10) 0.0916(3) 1.2414(6)
H1 H 0.2715 0.1277 1.2215
H2 H 0.0701 0.1053 1.2607
C2 C 0.2788(12) 0.0607(4) 1.3548(8)
C3 C 0.1856(9) 0.0881(3) 1.0123(6)
H3 H 0.0942 0.1210 1.0210
H4 H 0.1468 0.0626 0.9403
C4 C 0.3719(9) 0.1145(3) 0.9877(7)
C5 C 0.0283(10) 0.0090(3) 1.1285(7)
H5 H 0.0050 -0.0044 1.0409
H6 H -0.0821 0.0315 1.1560
C6 C 0.0501(9) -0.0448(3) 1.2086(7)
H7 H 0.0635 -0.0328 1.2980
H8 H -0.0594 -0.0713 1.1998
C7 C 0.2687(9) -0.1221(3) 1.2661(7)
H9 H 0.2613 -0.1027 1.3498
H10 H 0.1794 -0.1559 1.2634
C8 C 0.4634(9) -0.1463(3) 1.2470(6)
C9 C 0.1909(9) -0.1091(3) 1.0440(7)
H11 H 0.2546 -0.1486 1.0479
H12 H 0.0572 -0.1170 1.0320
C10 C 0.2595(9) -0.0748(3) 0.9319(7)
C11 C 0.7599(8) 0.3689(3) 0.7334(6)
H13 H 0.7790 0.3886 0.8161
H14 H 0.8435 0.3336 0.7297
C12 C 0.5624(9) 0.3475(3) 0.7226(6)
C13 C 0.8352(9) 0.3791(3) 0.5131(7)
H15 H 0.7621 0.3414 0.5151
H16 H 0.9670 0.3678 0.5068
C14 C 0.7796(9) 0.4148(3) 0.3956(7)
C15 C 0.9770(8) 0.4466(3) 0.6712(6)
H17 H 0.9663 0.4584 0.7606
H18 H 1.0867 0.4202 0.6639
C16 C 1.0049(11) 0.5018(4) 0.5937(8)
H19 H 1.1128 0.5244 0.6269
H20 H 1.0315 0.4898 0.5060
C17 C 0.8372(9) 0.5801(3) 0.7089(7)
H21 H 0.7683 0.6176 0.6897
H22 H 0.9656 0.5914 0.7320
C18 C 0.7491(9) 0.5488(3) 0.8192(6)
C19 C 0.8465(9) 0.5804(3) 0.4831(7)
H23 H 0.8861 0.5565 0.4095
H24 H 0.9381 0.6129 0.4975
C20 C 0.6548(9) 0.6083(3) 0.4557(6)
Ho1A Ho 0.76317(5) -0.250369(12) 1.34882(4)
Ho1A_2 Ho 0.76317(5) 0.749631(12) 0.34882(4)
O6A O 0.0027(6) 0.1966(2) 0.7966(5)
O16A O 0.1456(6) 0.3445(2) 0.8927(4)
O21 O 0.3014(8) -0.1674(3) 0.5984(5)
O22 O 0.2666(11) 0.6644(4) 0.5686(7)
N5 N 0.5628(10) 0.2414(3) 0.3582(6)
O23 O 0.5418(9) 0.2500(3) 0.4728(5)
O24 O 0.4207(9) 0.2292(3) 0.2890(6)
O25 O 0.7210(8) 0.2448(3) 0.3120(7)
O26 O 0.0584(10) 0.2260(4) 0.4539(7)
O27 O 0.5981(13) 0.6985(5) 0.7453(9)
loop_
_geom_bond_atom_site_label_1
_geom_bond_atom_site_label_2
_geom_bond_site_symmetry_1
_geom_bond_site_symmetry_2
Ho1 O4 1_555 1_555
Sb1 N1 1_555 1_555
Sb2 N3 1_555 1_555
N1 C1 1_555 1_555
N2 Sb1 1_555 1_555
N3 C11 1_555 1_555
N4 Sb2 1_555 1_555
O1 Sb1 1_555 1_555
O2 C2 1_555 1_555
O3 Sb1 1_555 1_555
O4 C4 1_555 1_555
O5 C8 1_555 1_555
O6 C8 1_555 1_555
O7 Sb1 1_555 1_555
O8 C10 1_555 1_555
O9 C12 1_555 1_555
O10 Ho1 1_555 1_555
O11 Sb2 1_555 1_555
O12 C14 1_555 1_555
O13 Sb2 1_555 1_555
O14 C18 1_555 1_555
O15 Sb2 1_555 1_555
O16 C20 1_555 1_555
O17 Ho1 1_555 1_555
O18 Ho1 1_555 1_555
O19 Ho1 1_555 1_555
O20 Ho1 1_555 1_555
C1 H1 1_555 1_555
H2 C1 1_555 1_555
C2 O1 1_555 1_555
C3 N1 1_555 1_555
H3 C3 1_555 1_555
H4 C3 1_555 1_555
C4 O3 1_555 1_555
C5 N1 1_555 1_555
H5 C5 1_555 1_555
H6 C5 1_555 1_555
C6 N2 1_555 1_555
H7 C6 1_555 1_555
H8 C6 1_555 1_555
C7 N2 1_555 1_555
H9 C7 1_555 1_555
H10 C7 1_555 1_555
C8 C7 1_555 1_555
C9 N2 1_555 1_555
H11 C9 1_555 1_555
H12 C9 1_555 1_555
C10 O7 1_555 1_555
C11 H13 1_555 1_555
H14 C11 1_555 1_555
C12 O10 1_555 1_555
C13 N3 1_555 1_555
H15 C13 1_555 1_555
H16 C13 1_555 1_555
C14 O11 1_555 1_555
C15 N3 1_555 1_555
H17 C15 1_555 1_555
H18 C15 1_555 1_555
C16 N4 1_555 1_555
H19 C16 1_555 1_555
H20 C16 1_555 1_555
C17 N4 1_555 1_555
H21 C17 1_555 1_555
H22 C17 1_555 1_555
C18 O13 1_555 1_555
C19 N4 1_555 1_555
H23 C19 1_555 1_555
H24 C19 1_555 1_555
C20 O15 1_555 1_555
N5 O23 1_555 1_555
O24 N5 1_555 1_555
O25 N5 1_555 1_555
Ho1A O6 1_555 1_555
Ho1A_2 O16 1_555 1_555
O6A Ho1 1_555 1_555
O16A Ho1 1_555 1_555
C1 C2 1_555 1_555
C3 C4 1_555 1_555
C5 C6 1_555 1_555
C9 C10 1_555 1_555
C11 C12 1_555 1_555
C13 C14 1_555 1_555
C15 C16 1_555 1_555
C17 C18 1_555 1_555
C19 C20 1_555 1_555

#END
