
#######################################################################
#
#                 Cambridge Crystallographic Data Centre
#                                CCDC 
#
#######################################################################
#
# If this CIF has been generated from an entry in the Cambridge 
# Structural Database, then it will include bibliographic, chemical, 
# crystal, experimental, refinement or atomic coordinate data resulting 
# from the CCDC's data processing and validation procedures.
#
#######################################################################

data_YARCIF
_symmetry_cell_setting           triclinic
_symmetry_space_group_name_H-M   'P -1'
_symmetry_Int_Tables_number      2
_space_group_name_Hall           '-P 1'
loop_
_symmetry_equiv_pos_site_id
_symmetry_equiv_pos_as_xyz
1 x,y,z
2 -x,-y,-z
_cell_length_a                   8.6826(6)
_cell_length_b                   8.9946(7)
_cell_length_c                   17.6757(13)
_cell_angle_alpha                89.3300(10)
_cell_angle_beta                 83.0360(10)
_cell_angle_gamma                68.5220(10)
_cell_volume                     1274.28
loop_
_atom_site_label
_atom_site_type_symbol
_atom_site_fract_x
_atom_site_fract_y
_atom_site_fract_z
C1 C 0.3829(3) 0.6602(3) 0.57450(15)
H1 H 0.3280 0.7212 0.6222
H2 H 0.4476 0.7154 0.5450
H3 H 0.4577 0.5532 0.5861
C2 C 0.2527(3) 0.6463(3) 0.52868(12)
C3 C 0.2112(3) 0.7474(3) 0.46626(13)
H4 H 0.2632 0.8236 0.4585
C4 C 0.1017(3) 0.7460(2) 0.41524(11)
C5 C 0.0789(3) 0.8585(3) 0.35077(12)
C6 C 0.0998(3) 0.7965(2) 0.27675(12)
H5 H 0.1318 0.6846 0.2679
C7 C 0.0739(3) 0.8980(3) 0.21614(12)
C8 C 0.0242(3) 1.0623(3) 0.22828(13)
H6 H 0.0055 1.1316 0.1866
C9 C 0.0024(3) 1.1235(3) 0.30205(14)
H7 H -0.0333 1.2358 0.3110
C10 C 0.0322(3) 1.0227(3) 0.36309(13)
H8 H 0.0209 1.0656 0.4132
C11 C 0.0646(3) 0.6986(3) 0.12387(12)
H9 H 0.0363 0.6321 0.1608
C12 C 0.1246(3) 0.7941(3) 0.01757(13)
H10 H 0.1463 0.8061 -0.0357
C13 C 0.1319(3) 0.8942(3) 0.07254(12)
H11 H 0.1583 0.9875 0.0656
C14 C 0.4716(3) 0.4209(4) -0.13761(15)
H12 H 0.4949 0.3399 -0.1784
H13 H 0.5751 0.4081 -0.1167
H14 H 0.4263 0.5277 -0.1582
C15 C 0.3463(3) 0.4011(3) -0.07522(12)
C16 C 0.4045(3) 0.3237(3) -0.00914(12)
H15 H 0.5204 0.2938 -0.0061
C17 C 0.3099(3) 0.2855(2) 0.05308(11)
C18 C 0.4039(3) 0.1902(3) 0.11488(12)
C19 C 0.3328(3) 0.2233(3) 0.19066(12)
H16 H 0.2251 0.3034 0.2030
C20 C 0.4201(3) 0.1387(3) 0.24809(12)
C21 C 0.5746(3) 0.0165(3) 0.23036(14)
H17 H 0.6342 -0.0412 0.2697
C22 C 0.6405(3) -0.0202(3) 0.15453(14)
H18 H 0.7439 -0.1064 0.1419
C23 C 0.5581(3) 0.0666(3) 0.09710(13)
H19 H 0.6064 0.0423 0.0454
C24 C 0.2282(3) 0.3123(3) 0.35579(12)
H20 H 0.1762 0.4016 0.3262
C25 C 0.2930(3) 0.1587(3) 0.44961(12)
H21 H 0.2943 0.1202 0.4999
C26 C 0.3922(3) 0.0749(3) 0.38728(12)
H22 H 0.4734 -0.0305 0.3855
N1 N 0.0814(2) 0.6728(2) 0.04956(10)
N2 N 0.0930(2) 0.8318(2) 0.14089(10)
N3 N 0.1902(2) 0.3070(2) 0.43002(10)
N4 N 0.3504(2) 0.1750(2) 0.32672(10)
O1 O 0.1901(2) 0.54396(18) 0.54872(8)
O2 O 0.01757(19) 0.65586(17) 0.41619(8)
O3 O 0.19512(19) 0.45497(19) -0.08799(8)
O4 O 0.15383(18) 0.32368(19) 0.06321(8)
Zn1 Zn 0.0000 0.5000 0.5000
Zn2 Zn 0.0000 0.5000 0.0000
C1A C -0.3829(3) 0.3398(3) 0.42550(15)
H1A H -0.3280 0.2788 0.3778
H2A H -0.4476 0.2846 0.4550
H3A H -0.4577 0.4468 0.4139
C2A C -0.2527(3) 0.3537(3) 0.47132(12)
C3A C -0.2112(3) 0.2526(3) 0.53374(13)
H4A H -0.2632 0.1764 0.5415
C4A C -0.1017(3) 0.2540(2) 0.58476(11)
C5A C -0.0789(3) 0.1415(3) 0.64923(12)
C6A C -0.0998(3) 0.2035(2) 0.72325(12)
H5A H -0.1318 0.3154 0.7321
C7A C -0.0739(3) 0.1020(3) 0.78386(12)
C8A C -0.0242(3) -0.0623(3) 0.77172(13)
H6A H -0.0055 -0.1316 0.8134
C9A C -0.0024(3) -0.1235(3) 0.69795(14)
H7A H 0.0333 -0.2358 0.6890
C10A C -0.0322(3) -0.0227(3) 0.63691(13)
H8A H -0.0209 -0.0656 0.5868
C11A C -0.0646(3) 0.3014(3) 0.87613(12)
H9A H -0.0363 0.3679 0.8392
C12A C -0.1246(3) 0.2059(3) 0.98243(13)
H10A H -0.1463 0.1939 1.0357
C13A C -0.1319(3) 0.1058(3) 0.92746(12)
H11A H -0.1583 0.0125 0.9344
C14A C -0.4716(3) 0.5791(4) 1.13761(15)
H12A H -0.4949 0.6601 1.1784
H13A H -0.5751 0.5919 1.1167
H14A H -0.4263 0.4723 1.1582
C15A C -0.3463(3) 0.5989(3) 1.07522(12)
C16A C -0.4045(3) 0.6763(3) 1.00914(12)
H15A H -0.5204 0.7062 1.0061
C17A C -0.3099(3) 0.7145(2) 0.94692(11)
C18A C -0.4039(3) 0.8098(3) 0.88512(12)
C19A C -0.3328(3) 0.7767(3) 0.80934(12)
H16A H -0.2251 0.6966 0.7970
C20A C -0.4201(3) 0.8613(3) 0.75191(12)
C21A C -0.5746(3) 0.9835(3) 0.76964(14)
H17A H -0.6342 1.0412 0.7303
C22A C -0.6405(3) 1.0202(3) 0.84547(14)
H18A H -0.7439 1.1064 0.8581
C23A C -0.5581(3) 0.9334(3) 0.90290(13)
H19A H -0.6064 0.9577 0.9546
C24A C -0.2282(3) 0.6877(3) 0.64421(12)
H20A H -0.1762 0.5984 0.6738
C25A C -0.2930(3) 0.8413(3) 0.55039(12)
H21A H -0.2943 0.8798 0.5001
C26A C -0.3922(3) 0.9251(3) 0.61272(12)
H22A H -0.4734 1.0305 0.6145
N1A N -0.0814(2) 0.3272(2) 0.95044(10)
N1A_2 N -0.0814(2) 0.3272(2) -0.04956(10)
N2A N -0.0930(2) 0.1682(2) 0.85911(10)
N3A N -0.1902(2) 0.6930(2) 0.56998(10)
N4A N -0.3504(2) 0.8250(2) 0.67328(10)
O1A O -0.1901(2) 0.45604(18) 0.45128(8)
O2A O -0.01757(19) 0.34414(17) 0.58381(8)
O3A O -0.19512(19) 0.54503(19) 1.08799(8)
O3A_2 O -0.19512(19) 0.54503(19) 0.08799(8)
O4A O -0.15383(18) 0.67632(19) 0.93679(8)
O4A_2 O -0.15383(18) 0.67632(19) -0.06321(8)
Zn2_2 Zn 0.0000 0.5000 1.0000
O5 O 0.2808(2) 0.2851(2) 0.64657(9)
H23 H 0.1916 0.2825 0.6400
H24 H 0.3022 0.3523 0.6160
O6 O 0.0840(2) 0.5184(2) 0.76594(9)
H25 H 0.1537 0.4495 0.7341
H26 H 0.1176 0.5112 0.8031
loop_
_geom_bond_atom_site_label_1
_geom_bond_atom_site_label_2
_geom_bond_site_symmetry_1
_geom_bond_site_symmetry_2
C1 H1 1_555 1_555
H2 C1 1_555 1_555
H3 C1 1_555 1_555
C2 C1 1_555 1_555
C3 C2 1_555 1_555
H4 C3 1_555 1_555
C4 C3 1_555 1_555
C5 C4 1_555 1_555
C6 C5 1_555 1_555
H5 C6 1_555 1_555
C7 C6 1_555 1_555
C8 C7 1_555 1_555
H6 C8 1_555 1_555
C9 C8 1_555 1_555
H7 C9 1_555 1_555
C10 C5 1_555 1_555
H8 C10 1_555 1_555
C11 H9 1_555 1_555
C12 H10 1_555 1_555
C13 C12 1_555 1_555
H11 C13 1_555 1_555
C14 H12 1_555 1_555
H13 C14 1_555 1_555
H14 C14 1_555 1_555
C15 C14 1_555 1_555
C16 C15 1_555 1_555
H15 C16 1_555 1_555
C17 C16 1_555 1_555
C18 C17 1_555 1_555
C19 C18 1_555 1_555
H16 C19 1_555 1_555
C20 C19 1_555 1_555
C21 C20 1_555 1_555
H17 C21 1_555 1_555
C22 C21 1_555 1_555
H18 C22 1_555 1_555
C23 C18 1_555 1_555
H19 C23 1_555 1_555
C24 H20 1_555 1_555
C25 H21 1_555 1_555
C26 C25 1_555 1_555
H22 C26 1_555 1_555
N1 C11 1_555 1_555
N2 C7 1_555 1_555
N3 C24 1_555 1_555
N4 C20 1_555 1_555
O1 C2 1_555 1_555
O2 C4 1_555 1_555
O3 C15 1_555 1_555
O4 C17 1_555 1_555
O5 H23 1_555 1_555
H24 O5 1_555 1_555
O6 H25 1_555 1_555
H26 O6 1_555 1_555
Zn1 N3 1_555 1_555
Zn2 N1 1_555 1_555
C1A H1A 1_555 1_555
H2A C1A 1_555 1_555
H3A C1A 1_555 1_555
C2A C1A 1_555 1_555
C3A C2A 1_555 1_555
H4A C3A 1_555 1_555
C4A C3A 1_555 1_555
C5A C4A 1_555 1_555
C6A C5A 1_555 1_555
H5A C6A 1_555 1_555
C7A C6A 1_555 1_555
C8A C7A 1_555 1_555
H6A C8A 1_555 1_555
C9A C8A 1_555 1_555
H7A C9A 1_555 1_555
C10A C5A 1_555 1_555
H8A C10A 1_555 1_555
C11A H9A 1_555 1_555
C12A H10A 1_555 1_555
C13A C12A 1_555 1_555
H11A C13A 1_555 1_555
C14A H12A 1_555 1_555
H13A C14A 1_555 1_555
H14A C14A 1_555 1_555
C15A C14A 1_555 1_555
C16A C15A 1_555 1_555
H15A C16A 1_555 1_555
C17A C16A 1_555 1_555
C18A C17A 1_555 1_555
C19A C18A 1_555 1_555
H16A C19A 1_555 1_555
C20A C19A 1_555 1_555
C21A C20A 1_555 1_555
H17A C21A 1_555 1_555
C22A C21A 1_555 1_555
H18A C22A 1_555 1_555
C23A C18A 1_555 1_555
H19A C23A 1_555 1_555
C24A H20A 1_555 1_555
C25A H21A 1_555 1_555
C26A C25A 1_555 1_555
H22A C26A 1_555 1_555
N1A C11A 1_555 1_555
N1A_2 Zn2 1_555 1_555
N2A C7A 1_555 1_555
N3A Zn1 1_555 1_555
N4A C20A 1_555 1_555
O1A Zn1 1_555 1_555
O2A Zn1 1_555 1_555
O3A C15A 1_555 1_555
O3A_2 Zn2 1_555 1_555
O4A C17A 1_555 1_555
O4A_2 Zn2 1_555 1_555
Zn2_2 N1A 1_555 1_555
C9 C10 1_555 1_555
C11 N2 1_555 1_555
C12 N1 1_555 1_555
C13 N2 1_555 1_555
C22 C23 1_555 1_555
C24 N4 1_555 1_555
C25 N3 1_555 1_555
C26 N4 1_555 1_555
O1 Zn1 1_555 1_555
O2 Zn1 1_555 1_555
O3 Zn2 1_555 1_555
O4 Zn2 1_555 1_555
C2A O1A 1_555 1_555
C4A O2A 1_555 1_555
C9A C10A 1_555 1_555
C11A N2A 1_555 1_555
C12A N1A 1_555 1_555
C13A N2A 1_555 1_555
C22A C23A 1_555 1_555
C24A N3A 1_555 1_555
C24A N4A 1_555 1_555
C25A N3A 1_555 1_555
C26A N4A 1_555 1_555
O3A Zn2_2 1_555 1_555
O4A Zn2_2 1_555 1_555

#END
