
#######################################################################
#
#                 Cambridge Crystallographic Data Centre
#                                CCDC 
#
#######################################################################
#
# If this CIF has been generated from an entry in the Cambridge 
# Structural Database, then it will include bibliographic, chemical, 
# crystal, experimental, refinement or atomic coordinate data resulting 
# from the CCDC's data processing and validation procedures.
#
#######################################################################

data_YARDAY
_symmetry_cell_setting           tetragonal
_symmetry_space_group_name_H-M   'I 41/a'
_symmetry_Int_Tables_number      88
_space_group_name_Hall           '-I 4ad'
loop_
_symmetry_equiv_pos_site_id
_symmetry_equiv_pos_as_xyz
1 x,y,z
2 1/2-x,-y,1/2+z
3 3/4-y,1/4+x,1/4+z
4 3/4+y,3/4-x,3/4+z
5 1/2+x,1/2+y,1/2+z
6 -x,1/2-y,z
7 1/4-y,3/4+x,3/4+z
8 1/4+y,1/4-x,1/4+z
9 -x,-y,-z
10 1/2+x,y,1/2-z
11 1/4+y,3/4-x,3/4-z
12 1/4-y,1/4+x,1/4-z
13 1/2-x,1/2-y,1/2-z
14 x,1/2+y,-z
15 3/4+y,1/4-x,1/4-z
16 3/4-y,3/4+x,3/4-z
_cell_length_a                   24.73040(10)
_cell_length_b                   24.73040(10)
_cell_length_c                   35.5900(3)
_cell_angle_alpha                90
_cell_angle_beta                 90
_cell_angle_gamma                90
_cell_volume                     21766.6
loop_
_atom_site_label
_atom_site_type_symbol
_atom_site_fract_x
_atom_site_fract_y
_atom_site_fract_z
Zn1 Zn 1.000183(18) 0.499216(19) 0.119511(12)
C1 C 0.9132(2) 0.2769(2) 0.41488(14)
H1 H 0.9036 0.2889 0.4403
H2 H 0.9420 0.3001 0.4049
H3 H 0.9259 0.2394 0.4158
C2 C 0.86392(17) 0.28061(18) 0.38958(12)
C3 C 0.86943(19) 0.31013(18) 0.35547(12)
H4 H 0.9036 0.3264 0.3509
C4 C 0.83009(15) 0.31748(16) 0.32833(11)
C5 C 0.84468(16) 0.34816(16) 0.29341(10)
C6 C 0.88618(18) 0.38612(18) 0.29251(11)
H5 H 0.9063 0.3935 0.3147
C7 C 0.89847(19) 0.41329(19) 0.25943(12)
H6 H 0.9271 0.4389 0.2589
C8 C 0.86891(16) 0.40287(17) 0.22719(10)
C9 C 0.82735(16) 0.36483(16) 0.22734(11)
H7 H 0.8076 0.3573 0.2050
C10 C 0.81525(16) 0.33805(16) 0.26062(11)
H8 H 0.7866 0.3125 0.2611
C11 C 0.84713(16) 0.44716(17) 0.16539(11)
H9 H 0.8089 0.4434 0.1652
C12 C 0.87821(16) 0.47045(17) 0.13874(11)
H10 H 0.8649 0.4863 0.1162
C13 C 0.93269(16) 0.44336(16) 0.18155(11)
H11 H 0.9647 0.4360 0.1954
C14 C 1.0857(2) 0.72240(17) -0.17617(13)
H12 H 1.0680 0.7575 -0.1726
H13 H 1.0603 0.6933 -0.1701
H14 H 1.0974 0.7189 -0.2024
C15 C 1.13442(16) 0.71863(17) -0.15062(11)
C16 C 1.12908(18) 0.68945(18) -0.11668(11)
H15 H 1.0950 0.6730 -0.1121
C17 C 1.16846(15) 0.68228(16) -0.08922(11)
C18 C 1.15375(16) 0.65237(17) -0.05407(11)
C19 C 1.11095(18) 0.61514(17) -0.05252(12)
H16 H 1.0897 0.6085 -0.0743
C20 C 1.09954(18) 0.58807(17) -0.01928(11)
H17 H 1.0708 0.5627 -0.0183
C21 C 1.13017(17) 0.59815(16) 0.01245(11)
C22 C 1.17229(17) 0.63492(17) 0.01190(11)
H18 H 1.1929 0.6419 0.0339
C23 C 1.18367(17) 0.66148(17) -0.02167(11)
H19 H 1.2127 0.6866 -0.0224
C24 C 1.15278(15) 0.55464(15) 0.07481(10)
H20 H 1.1909 0.5593 0.0752
C25 C 1.12211(15) 0.53068(15) 0.10146(10)
H21 H 1.1355 0.5155 0.1242
C26 C 1.06729(16) 0.55591(16) 0.05807(11)
H22 H 1.0353 0.5622 0.0440
N1 N 0.93154(13) 0.46798(13) 0.14874(9)
N2 N 0.88220(13) 0.43004(13) 0.19290(9)
N3 N 1.06882(13) 0.53147(13) 0.09086(9)
N4 N 1.11761(13) 0.57089(13) 0.04703(9)
O1 O 0.82179(11) 0.25722(11) 0.40039(7)
O2 O 0.78198(10) 0.29945(10) 0.32897(7)
O3 O 1.17674(10) 0.74267(11) -0.16140(7)
O4 O 1.21654(10) 0.70037(10) -0.08984(7)
Zn1G Zn 0.749216(19) 0.249817(18) 0.369511(12)
Zn1C Zn 1.249216(19) 0.749817(18) -0.130489(12)
O1F O 0.99278(11) 0.57179(11) 0.15039(7)
O2F O 0.95055(10) 0.53198(10) 0.07897(7)
O3B O 1.00733(11) 0.42674(10) 0.08860(7)
O4B O 1.04963(10) 0.46654(10) 0.16016(7)
Zn2 Zn 0.24854(2) 0.75070(2) 0.106265(16)
C27 C 0.0449(3) 0.8455(3) 0.40861(15)
H23 H 0.0717 0.8191 0.4001
H24 H 0.0096 0.8279 0.4111
H25 H 0.0559 0.8602 0.4330
C28 C 0.0409(2) 0.8908(2) 0.38042(13)
C29 C 0.0711(2) 0.8850(2) 0.34676(13)
H26 H 0.0920 0.8530 0.3441
C30 C 0.0726(2) 0.9218(2) 0.31750(13)
C31 C 0.1034(3) 0.9067(2) 0.28239(14)
C32 C 0.1427(4) 0.8657(3) 0.28122(16)
H27 H 0.1510 0.8458 0.3033
C33 C 0.1695(3) 0.8539(3) 0.24781(16)
H28 H 0.1967 0.8269 0.2472
C34 C 0.1562(2) 0.8817(2) 0.21565(13)
C35 C 0.11775(19) 0.92263(19) 0.21592(13)
H29 H 0.1095 0.9420 0.1936
C36 C 0.0915(2) 0.9347(2) 0.24958(13)
H30 H 0.0651 0.9625 0.2501
C37 C 0.20456(19) 0.90416(19) 0.15531(13)
H31 H 0.2044 0.9425 0.1565
C38 C 0.2262(2) 0.87280(19) 0.12785(13)
H32 H 0.2447 0.8860 0.1063
C39 C 0.1919(2) 0.8184(2) 0.16799(14)
H33 H 0.1813 0.7862 0.1805
C40 C 0.4735(2) 0.6643(2) -0.18982(14)
H34 H 0.5084 0.6821 -0.1858
H35 H 0.4442 0.6897 -0.1841
H36 H 0.4707 0.6526 -0.2161
C41 C 0.46908(19) 0.61554(18) -0.16422(12)
C42 C 0.4394(2) 0.6210(2) -0.13083(12)
H37 H 0.4225 0.6550 -0.1266
C43 C 0.4322(2) 0.58170(17) -0.10313(12)
C44 C 0.4025(2) 0.5961(2) -0.06786(13)
C45 C 0.4138(3) 0.5677(3) -0.03513(14)
H38 H 0.4386 0.5384 -0.0358
C46 C 0.3893(3) 0.5816(3) -0.00142(15)
H39 H 0.3992 0.5636 0.0211
C47 C 0.3504(3) 0.6217(2) -0.00084(13)
C48 C 0.3377(2) 0.6502(2) -0.03319(13)
H40 H 0.3110 0.6778 -0.0326
C49 C 0.3638(2) 0.63800(19) -0.06627(12)
H41 H 0.3557 0.6581 -0.0883
C50 C 0.3130(2) 0.6007(2) 0.06357(13)
H42 H 0.3211 0.5632 0.0650
C51 C 0.2885(2) 0.63100(18) 0.08995(12)
H43 H 0.2759 0.6181 0.1135
C52 C 0.30659(19) 0.68472(19) 0.04413(12)
H44 H 0.3098 0.7163 0.0291
N5 N 0.21735(18) 0.81981(15) 0.13563(11)
N6 N 0.18286(17) 0.86852(17) 0.18107(10)
N7 N 0.28446(15) 0.68338(14) 0.07766(9)
N8 N 0.32422(19) 0.63512(17) 0.03397(11)
O5 O 0.01120(14) 0.93008(13) 0.38854(9)
O6 O 0.05043(13) 0.96787(12) 0.31600(8)
O7 O 0.49273(13) 0.57289(12) -0.17489(9)
O8 O 0.45007(12) 0.53345(12) -0.10384(8)
Zn2G Zn 0.00070(2) 1.00146(2) 0.356265(16)
Zn2C Zn 0.50070(2) 0.50146(2) -0.143735(16)
O5F O 0.31992(13) 0.76120(14) 0.13854(9)
O6F O 0.28213(12) 0.80043(13) 0.06600(8)
O7B O 0.17711(12) 0.74273(13) 0.07511(9)
O8B O 0.21655(12) 0.70007(12) 0.14616(8)
N9 N 0.25654(15) 0.99972(16) 0.05349(12)
O9 O 0.2691(3) 1.00394(19) 0.11654(15)
C53 C 0.2834(5) 1.0026(5) 0.0843(3)
H45 H 0.3215 1.0040 0.0809
C54 C 0.2720(5) 0.9990(8) 0.0157(3)
H46 H 0.2756 0.9614 0.0072
H47 H 0.3067 1.0176 0.0128
H48 H 0.2445 1.0173 0.0005
C55 C 0.2025(3) 0.9948(9) 0.0539(3)
H49 H 0.1923 0.9648 0.0705
H50 H 0.1895 0.9875 0.0284
H51 H 0.1863 1.0284 0.0632
O10 O 0.2838(3) 0.7558(3) 0.2171(2)
H52 H 0.2545 0.7700 0.2218
H53 H 0.3057 0.7776 0.2086
O11 O 0.4691(9) 0.7700(4) 0.0111(2)
H54 H 0.4536 0.7896 0.0265
H55 H 0.5028 0.7835 0.0071
O12 O 0.4967(6) 0.8568(7) 0.9894(2)
H56 H 0.5244 0.8341 0.9946
H57 H 0.4687 0.8406 1.0030
loop_
_geom_bond_atom_site_label_1
_geom_bond_atom_site_label_2
_geom_bond_site_symmetry_1
_geom_bond_site_symmetry_2
Zn1 N1 1_555 1_555
Zn2 N5 1_555 1_555
C1 H1 1_555 1_555
H2 C1 1_555 1_555
H3 C1 1_555 1_555
C2 C1 1_555 1_555
C3 C2 1_555 1_555
H4 C3 1_555 1_555
C4 C3 1_555 1_555
C5 C4 1_555 1_555
C6 C5 1_555 1_555
H5 C6 1_555 1_555
C7 C6 1_555 1_555
H6 C7 1_555 1_555
C8 C7 1_555 1_555
C9 C8 1_555 1_555
H7 C9 1_555 1_555
C10 C5 1_555 1_555
H8 C10 1_555 1_555
C11 H9 1_555 1_555
C12 C11 1_555 1_555
H10 C12 1_555 1_555
C13 H11 1_555 1_555
C14 H12 1_555 1_555
H13 C14 1_555 1_555
H14 C14 1_555 1_555
C15 C14 1_555 1_555
C16 C15 1_555 1_555
H15 C16 1_555 1_555
C17 C16 1_555 1_555
C18 C17 1_555 1_555
C19 C18 1_555 1_555
H16 C19 1_555 1_555
C20 C19 1_555 1_555
H17 C20 1_555 1_555
C21 C20 1_555 1_555
C22 C21 1_555 1_555
H18 C22 1_555 1_555
C23 C18 1_555 1_555
H19 C23 1_555 1_555
C24 H20 1_555 1_555
C25 C24 1_555 1_555
H21 C25 1_555 1_555
C26 H22 1_555 1_555
C27 H23 1_555 1_555
H24 C27 1_555 1_555
H25 C27 1_555 1_555
C28 C27 1_555 1_555
C29 C28 1_555 1_555
H26 C29 1_555 1_555
C30 C29 1_555 1_555
C31 C30 1_555 1_555
C32 C31 1_555 1_555
H27 C32 1_555 1_555
C33 C32 1_555 1_555
H28 C33 1_555 1_555
C34 C33 1_555 1_555
C35 C34 1_555 1_555
H29 C35 1_555 1_555
C36 C31 1_555 1_555
H30 C36 1_555 1_555
C37 H31 1_555 1_555
C38 C37 1_555 1_555
H32 C38 1_555 1_555
C39 H33 1_555 1_555
C40 H34 1_555 1_555
H35 C40 1_555 1_555
H36 C40 1_555 1_555
C41 C40 1_555 1_555
C42 C41 1_555 1_555
H37 C42 1_555 1_555
C43 C42 1_555 1_555
C44 C43 1_555 1_555
C45 C44 1_555 1_555
H38 C45 1_555 1_555
C46 C45 1_555 1_555
H39 C46 1_555 1_555
C47 C46 1_555 1_555
C48 C47 1_555 1_555
H40 C48 1_555 1_555
C49 C44 1_555 1_555
H41 C49 1_555 1_555
C50 H42 1_555 1_555
C51 C50 1_555 1_555
H43 C51 1_555 1_555
C52 H44 1_555 1_555
N1 C12 1_555 1_555
N2 C8 1_555 1_555
N3 Zn1 1_555 1_555
N4 C21 1_555 1_555
N5 C38 1_555 1_555
N6 C34 1_555 1_555
N7 Zn2 1_555 1_555
N8 C47 1_555 1_555
O1 C2 1_555 1_555
O2 C4 1_555 1_555
O3 C15 1_555 1_555
O4 C17 1_555 1_555
O5 C28 1_555 1_555
O6 C30 1_555 1_555
O7 C41 1_555 1_555
O8 C43 1_555 1_555
N9 C53 1_555 1_555
O9 C53 1_555 1_555
C53 H45 1_555 1_555
C54 N9 1_555 1_555
H46 C54 1_555 1_555
H47 C54 1_555 1_555
H48 C54 1_555 1_555
C55 N9 1_555 1_555
H49 C55 1_555 1_555
H50 C55 1_555 1_555
H51 C55 1_555 1_555
O10 H52 1_555 1_555
H53 O10 1_555 1_555
O11 H54 1_555 1_555
H55 O11 1_555 1_555
O12 H56 1_555 1_555
H57 O12 1_555 1_555
Zn1G O1 1_555 1_555
Zn1C O3 1_555 1_555
Zn2G O5 1_555 1_555
Zn2C O7 1_555 1_555
O1F Zn1 1_555 1_555
O2F Zn1 1_555 1_555
O3B Zn1 1_555 1_555
O4B Zn1 1_555 1_555
O5F Zn2 1_555 1_555
O6F Zn2 1_555 1_555
O7B Zn2 1_555 1_555
O8B Zn2 1_555 1_555
C9 C10 1_555 1_555
C11 N2 1_555 1_555
C13 N1 1_555 1_555
C13 N2 1_555 1_555
C22 C23 1_555 1_555
C24 N4 1_555 1_555
C25 N3 1_555 1_555
C26 N3 1_555 1_555
C26 N4 1_555 1_555
C35 C36 1_555 1_555
C37 N6 1_555 1_555
C39 N5 1_555 1_555
C39 N6 1_555 1_555
C48 C49 1_555 1_555
C50 N8 1_555 1_555
C51 N7 1_555 1_555
C52 N7 1_555 1_555
C52 N8 1_555 1_555
O2 Zn1G 1_555 1_555
O4 Zn1C 1_555 1_555
O6 Zn2G 1_555 1_555
O8 Zn2C 1_555 1_555

#END
