
#######################################################################
#
#                 Cambridge Crystallographic Data Centre
#                                CCDC 
#
#######################################################################
#
# If this CIF has been generated from an entry in the Cambridge 
# Structural Database, then it will include bibliographic, chemical, 
# crystal, experimental, refinement or atomic coordinate data resulting 
# from the CCDC's data processing and validation procedures.
#
#######################################################################

data_YARFII02
_symmetry_cell_setting           monoclinic
_symmetry_space_group_name_H-M   'P 21/n'
_symmetry_Int_Tables_number      14
_space_group_name_Hall           '-P 2yn'
loop_
_symmetry_equiv_pos_site_id
_symmetry_equiv_pos_as_xyz
1 x,y,z
2 1/2-x,1/2+y,1/2-z
3 -x,-y,-z
4 1/2+x,1/2-y,1/2+z
_cell_length_a                   9.5136(8)
_cell_length_b                   16.6490(14)
_cell_length_c                   17.5660(15)
_cell_angle_alpha                90
_cell_angle_beta                 97.206(2)
_cell_angle_gamma                90
_cell_volume                     2760.34
loop_
_atom_site_label
_atom_site_type_symbol
_atom_site_fract_x
_atom_site_fract_y
_atom_site_fract_z
C1 C 0.5521(5) -0.1024(2) 0.2367(3)
C2 C 0.5325(4) -0.1894(2) 0.2582(3)
C3 C 0.6488(5) -0.2398(2) 0.2714(3)
H1 H 0.7393 -0.2199 0.2684
C4 C 0.6307(5) -0.3193(3) 0.2888(3)
H2 H 0.7090 -0.3531 0.2977
C5 C 0.4964(4) -0.3491(2) 0.2929(3)
H3 H 0.4848 -0.4034 0.3029
C6 C 0.3802(4) -0.3000(2) 0.2826(2)
C7 C 0.3991(4) -0.2200(2) 0.2645(2)
H4 H 0.3208 -0.1863 0.2564
C8 C 0.2357(5) -0.3311(3) 0.2911(3)
C9 C 0.5997(5) 0.1801(3) 0.3263(3)
H5 H 0.5367 0.2193 0.3052
C10 C 0.7106(5) 0.0676(3) 0.3493(3)
H6 H 0.7358 0.0138 0.3467
C11 C 0.7771(5) 0.1223(3) 0.3986(3)
H7 H 0.8561 0.1137 0.4345
C12 C 0.7468(5) 0.2707(3) 0.4200(3)
H8 H 0.8066 0.2986 0.3878
H9 H 0.8019 0.2615 0.4695
C13 C 0.6209(5) 0.3227(3) 0.4305(3)
C14 C 0.5598(5) 0.3189(3) 0.4985(3)
H10 H 0.5977 0.2846 0.5376
C15 C 0.4435(5) 0.3655(3) 0.5083(3)
H11 H 0.4037 0.3620 0.5539
C16 C 0.3850(4) 0.4174(3) 0.4513(3)
C17 C 0.4466(5) 0.4205(2) 0.3837(3)
H12 H 0.4083 0.4544 0.3444
C18 C 0.5630(5) 0.3747(3) 0.3737(3)
H13 H 0.6032 0.3786 0.3282
C19 C 0.2623(5) 0.4713(3) 0.4608(3)
H14 H 0.2984 0.5230 0.4798
H15 H 0.2080 0.4800 0.4110
C20 C 0.1411(4) 0.4701(2) 0.5796(3)
H16 H 0.1801 0.5180 0.5996
C21 C 0.0885(5) 0.3689(3) 0.5035(3)
H17 H 0.0849 0.3339 0.4620
C22 C 0.0200(5) 0.3614(3) 0.5638(3)
H18 H -0.0414 0.3196 0.5716
N1 N 0.5993(4) 0.1041(2) 0.3030(2)
N2 N 0.7037(4) 0.1928(2) 0.3846(2)
N3 N 0.0526(4) 0.4249(2) 0.6140(2)
N4 N 0.1669(3) 0.4392(2) 0.5139(2)
O1 O 0.4404(3) -0.05852(16) 0.22982(17)
O2 O 0.6720(3) -0.07791(16) 0.22888(19)
O3 O 0.1369(3) -0.28360(18) 0.2976(2)
O4 O 0.2205(3) -0.40783(17) 0.29040(18)
Zn1 Zn 0.47706(5) 0.05565(3) 0.21455(3)
N3C N 0.5526(4) 0.0751(2) 0.1140(2)
O4A O 0.2795(3) 0.09217(17) 0.20960(18)
Zn1A Zn 0.02294(5) -0.44435(3) 0.28545(3)
Zn1C Zn -0.02294(5) 0.44435(3) 0.71455(3)
loop_
_geom_bond_atom_site_label_1
_geom_bond_atom_site_label_2
_geom_bond_site_symmetry_1
_geom_bond_site_symmetry_2
C1 C2 1_555 1_555
C2 C3 1_555 1_555
C3 H1 1_555 1_555
C4 C3 1_555 1_555
H2 C4 1_555 1_555
C5 C4 1_555 1_555
H3 C5 1_555 1_555
C6 C5 1_555 1_555
C7 C2 1_555 1_555
H4 C7 1_555 1_555
C8 C6 1_555 1_555
C9 H5 1_555 1_555
C10 H6 1_555 1_555
C11 C10 1_555 1_555
H7 C11 1_555 1_555
C12 H8 1_555 1_555
H9 C12 1_555 1_555
C13 C12 1_555 1_555
C14 C13 1_555 1_555
H10 C14 1_555 1_555
C15 C14 1_555 1_555
H11 C15 1_555 1_555
C16 C15 1_555 1_555
C17 C16 1_555 1_555
H12 C17 1_555 1_555
C18 C13 1_555 1_555
H13 C18 1_555 1_555
C19 C16 1_555 1_555
H14 C19 1_555 1_555
H15 C19 1_555 1_555
C20 H16 1_555 1_555
C21 H17 1_555 1_555
C22 C21 1_555 1_555
H18 C22 1_555 1_555
N1 C9 1_555 1_555
N2 C9 1_555 1_555
N3 C20 1_555 1_555
N4 C19 1_555 1_555
O1 C1 1_555 1_555
O2 C1 1_555 1_555
O3 C8 1_555 1_555
O4 C8 1_555 1_555
Zn1 N1 1_555 1_555
N3C Zn1 1_555 1_555
O4A Zn1 1_555 1_555
Zn1A O4 1_555 1_555
Zn1C N3 1_555 1_555
C6 C7 1_555 1_555
C10 N1 1_555 1_555
C11 N2 1_555 1_555
C12 N2 1_555 1_555
C17 C18 1_555 1_555
C20 N4 1_555 1_555
C21 N4 1_555 1_555
C22 N3 1_555 1_555
O1 Zn1 1_555 1_555

#END
