
#######################################################################
#
#                 Cambridge Crystallographic Data Centre
#                                CCDC 
#
#######################################################################
#
# If this CIF has been generated from an entry in the Cambridge 
# Structural Database, then it will include bibliographic, chemical, 
# crystal, experimental, refinement or atomic coordinate data resulting 
# from the CCDC's data processing and validation procedures.
#
#######################################################################

data_YARGIJ
_symmetry_cell_setting           monoclinic
_symmetry_space_group_name_H-M   'P 21/n'
_symmetry_Int_Tables_number      14
_space_group_name_Hall           '-P 2yn'
loop_
_symmetry_equiv_pos_site_id
_symmetry_equiv_pos_as_xyz
1 x,y,z
2 1/2-x,1/2+y,1/2-z
3 -x,-y,-z
4 1/2+x,1/2-y,1/2+z
_cell_length_a                   15.810(3)
_cell_length_b                   26.422(6)
_cell_length_c                   16.435(4)
_cell_angle_alpha                90
_cell_angle_beta                 90.00
_cell_angle_gamma                90
_cell_volume                     6865.42
loop_
_atom_site_label
_atom_site_type_symbol
_atom_site_fract_x
_atom_site_fract_y
_atom_site_fract_z
Zn1 Zn 0.36104(4) 0.12509(2) 0.75076(4)
Zn2 Zn 0.07725(4) 0.36058(2) 1.25357(4)
Zn3 Zn 0.45162(4) 0.24522(2) 0.74948(4)
O1 O 0.3799(3) 0.23384(15) 0.8552(2)
O2 O 0.2916(2) 0.16924(14) 0.8293(2)
O3 O 0.1308(2) 0.30650(15) 1.1789(2)
O4 O 0.0317(3) 0.24740(14) 1.1486(2)
O5 O 0.0882(3) 0.31839(16) 0.3593(2)
O6 O 0.0525(3) 0.23894(15) 0.3277(2)
O7 O 0.3433(2) 0.23963(15) 0.6752(2)
O8 O 0.3064(3) 0.15886(14) 0.6497(2)
O9 O 0.4144(3) 0.09268(15) 0.8564(2)
O10 O 0.5513(3) 0.07853(15) 0.8264(2)
O11 O 0.4274(3) 0.07267(15) 0.6753(2)
O12 O 0.5621(3) 0.09489(15) 0.6500(2)
O13 O 0.46226(19) 0.16972(12) 0.73785(18)
O14 O 0.2081(3) 0.3831(2) 1.2723(3)
N1 N 0.2674(3) 0.06653(19) 0.7526(3)
N2 N 0.0782(3) -0.17588(18) 0.7501(3)
N3 N 0.3105(5) 0.3834(4) 1.3750(5)
C1 C 0.3163(3) 0.2075(2) 0.8690(3)
C2 C 0.2609(4) 0.2235(2) 0.9384(3)
C3 C 0.2691(4) 0.1999(2) 1.0150(4)
C4 C 0.3305(4) 0.1605(2) 1.0286(4)
H5 H 0.3651 0.1487 0.9853
C5 C 0.3380(5) 0.1403(3) 1.1044(4)
H6 H 0.3797 0.1151 1.1138
C6 C 0.2862(5) 0.1558(3) 1.1692(4)
H7 H 0.2933 0.1409 1.2214
C7 C 0.2254(5) 0.1921(2) 1.1576(4)
H8 H 0.1903 0.2018 1.2018
C8 C 0.2143(4) 0.2153(2) 1.0804(3)
C9 C 0.1558(4) 0.2537(2) 1.0679(3)
C10 C 0.1488(3) 0.2782(2) 0.9918(3)
C11 C 0.0922(4) 0.3198(2) 0.9790(4)
H9 H 0.0585 0.3318 1.0227
C12 C 0.0867(4) 0.3419(3) 0.9052(4)
H10 H 0.0484 0.3692 0.8976
C13 C 0.1362(5) 0.3256(3) 0.8399(4)
H11 H 0.1297 0.3411 0.7882
C14 C 0.1936(4) 0.2874(2) 0.8495(4)
H12 H 0.2285 0.2776 0.8052
C15 C 0.2015(4) 0.2621(2) 0.9270(3)
C16 C 0.1006(4) 0.2701(2) 1.1373(3)
C17 C 0.0897(4) 0.2716(2) 0.3692(4)
C18 C 0.1442(4) 0.2541(2) 0.4387(3)
C19 C 0.1088(4) 0.2438(2) 0.5150(3)
C20 C 0.0192(4) 0.2500(2) 0.5307(4)
H13 H -0.0175 0.2595 0.4875
C21 C -0.0122(5) 0.2424(3) 0.6045(4)
H14 H -0.0709 0.2477 0.6134
C22 C 0.0390(5) 0.2268(4) 0.6706(5)
H15 H 0.0146 0.2214 0.7227
C23 C 0.1242(4) 0.2193(3) 0.6589(4)
H16 H 0.1584 0.2080 0.7028
C24 C 0.1622(4) 0.2287(2) 0.5801(4)
C25 C 0.2489(4) 0.2226(2) 0.5681(3)
C26 C 0.2863(4) 0.2346(2) 0.4925(4)
C27 C 0.3745(4) 0.2325(2) 0.4794(4)
H17 H 0.4110 0.2239 0.5232
C28 C 0.4083(4) 0.2428(3) 0.4033(4)
H18 H 0.4678 0.2417 0.3952
C29 C 0.3540(5) 0.2550(3) 0.3377(4)
H19 H 0.3772 0.2608 0.2852
C30 C 0.2692(4) 0.2584(3) 0.3486(4)
H20 H 0.2341 0.2669 0.3038
C31 C 0.2319(4) 0.2497(2) 0.4262(3)
C32 C 0.3043(4) 0.2056(2) 0.6371(3)
C33 C 0.4835(4) 0.0720(2) 0.8674(3)
C34 C 0.4917(4) 0.0353(2) 0.9367(3)
C35 C 0.4654(4) -0.0148(2) 0.9239(4)
C36 C 0.5262(4) 0.0513(2) 1.0093(3)
C37 C 0.5549(5) 0.1024(2) 1.0240(4)
H21 H 0.5500 0.1271 0.9823
C38 C 0.5884(6) 0.1153(2) 1.0964(5)
H22 H 0.6073 0.1490 1.1047
C39 C 0.5961(7) 0.0795(3) 1.1609(5)
H23 H 0.6195 0.0899 1.2115
C40 C 0.4295(5) -0.0305(3) 0.8490(4)
H24 H 0.4234 -0.0070 0.8056
C41 C 0.2428(6) 0.0444(3) 0.8197(5)
H25 H 0.2549 0.0610 0.8696
C42 C 0.2005(6) -0.0013(3) 0.8239(5)
H26 H 0.1853 -0.0155 0.8750
C43 C 0.1807(4) -0.0260(2) 0.7513(4)
C44 C 0.2017(7) -0.0003(3) 0.6821(5)
H27 H 0.1864 -0.0140 0.6307
C45 C 0.2437(6) 0.0443(3) 0.6850(4)
H28 H 0.2569 0.0605 0.6350
C46 C 0.0851(10) -0.1496(3) 0.8164(5)
H29 H 0.0672 -0.1644 0.8661
C47 C 0.1177(11) -0.1004(3) 0.8181(5)
H30 H 0.1227 -0.0834 0.8688
C48 C 0.1413(4) -0.0775(2) 0.7519(4)
C49 C 0.1281(9) -0.1030(3) 0.6826(5)
H31 H 0.1420 -0.0878 0.6319
C50 C 0.0938(8) -0.1521(3) 0.6845(5)
H32 H 0.0816 -0.1683 0.6343
C51 C 0.4947(4) 0.0703(2) 0.6361(3)
C52 C 0.4970(4) 0.0341(2) 0.5652(3)
C53 C 0.5446(4) -0.0107(2) 0.5735(3)
C54 C 0.5851(5) -0.0236(3) 0.6467(4)
H33 H 0.5806 -0.0018 0.6924
C55 C 0.6314(5) -0.0677(3) 0.6528(5)
H34 H 0.6598 -0.0757 0.7021
C56 C 0.6367(5) -0.1014(2) 0.5845(4)
H35 H 0.6687 -0.1317 0.5895
C57 C 0.5975(4) -0.0912(2) 0.5136(4)
H36 H 0.6029 -0.1137 0.4688
C58 C 0.4533(4) 0.0456(2) 0.4939(4)
C59 C 0.2276(6) 0.3839(4) 1.3482(6)
H37 H 0.1834 0.3849 1.3874
C60 C 0.3801(7) 0.3828(6) 1.3144(9)
H38 H 0.3602 0.3669 1.2640
H39 H 0.3981 0.4176 1.3030
H40 H 0.4280 0.3635 1.3361
C61 C 0.3300(9) 0.3812(6) 1.4584(7)
H41 H 0.2775 0.3796 1.4901
H42 H 0.3641 0.3510 1.4694
H43 H 0.3620 0.4115 1.4739
Zn1B Zn 0.63896(4) -0.12509(2) 1.24924(4)
Zn1B_2 Zn 0.63896(4) -0.12509(2) 0.24924(4)
Zn1_2 Zn 0.36104(4) 0.12509(2) 1.75076(4)
Zn1C Zn -0.13896(4) 0.37491(2) 1.25076(4)
Zn1C_2 Zn 0.86104(4) 0.37491(2) 0.25076(4)
Zn1A Zn 0.13896(4) 0.62509(2) 0.74924(4)
Zn2_2 Zn 0.07725(4) 0.36058(2) 0.25357(4)
Zn2C Zn 0.57725(4) 0.13942(2) 0.75357(4)
Zn2A Zn 0.42275(4) -0.13942(2) 1.24643(4)
Zn2A_2 Zn 0.42275(4) -0.13942(2) 0.24643(4)
Zn3C Zn -0.04838(4) 0.25478(2) 1.24948(4)
Zn3C_2 Zn -0.04838(4) 0.25478(2) 0.24948(4)
Zn3A Zn 0.04838(4) -0.25478(2) 0.75052(4)
Zn3_2 Zn 0.45162(4) 0.24522(2) 1.74948(4)
Zn3C_3 Zn 0.95162(4) 0.25478(2) 0.24948(4)
O1C O 0.8799(3) 0.26616(15) 0.3552(2)
O1C_2 O -0.1201(3) 0.26616(15) 1.3552(2)
O2C O 0.7916(2) 0.33076(14) 0.3293(2)
O2B O 0.7084(2) -0.16924(14) 1.1707(2)
O3C O 0.6308(2) 0.19350(15) 0.6789(2)
O3_2 O 0.1308(2) 0.30650(15) 0.1789(2)
O4C O 0.5317(3) 0.25260(14) 0.6486(2)
O5_2 O 0.0882(3) 0.31839(16) 1.3593(2)
O6_2 O 0.0525(3) 0.23894(15) 1.3277(2)
O6C O 0.5525(3) 0.26106(15) 0.8277(2)
O7_2 O 0.3433(2) 0.23963(15) 1.6752(2)
O7C O -0.1567(2) 0.26037(15) 1.1752(2)
O8_2 O 0.3064(3) 0.15886(14) 1.6497(2)
O8B O 0.6936(3) -0.15886(14) 1.3503(2)
O9B O 0.5856(3) -0.09268(15) 1.1436(2)
O10B O 0.4487(3) -0.07853(15) 1.1736(2)
O10C O 0.0513(3) 0.42147(15) 1.3264(2)
O10C_2 O 0.0513(3) 0.42147(15) 0.3264(2)
O11B O 0.5726(3) -0.07267(15) 0.3247(2)
O11B_2 O 0.5726(3) -0.07267(15) 1.3247(2)
O12B O 0.4379(3) -0.09489(15) 0.3500(2)
O12C O 0.0621(3) 0.40511(15) 1.1500(2)
O12C_2 O 0.0621(3) 0.40511(15) 0.1500(2)
O13C O -0.03774(19) 0.33028(12) 1.23785(18)
O13B O 0.53774(19) -0.16972(12) 1.26215(18)
O13C_2 O -0.03774(19) 0.33028(12) 0.23785(18)
O14_2 O 0.2081(3) 0.3831(2) 0.2723(3)
N1A N 0.2326(3) 0.56653(19) 0.7474(3)
N1B N 0.7326(3) -0.06653(19) 1.2474(3)
N2A N 0.4218(3) 0.32412(18) 0.7499(3)
N2B N -0.0782(3) 0.17588(18) 1.2499(3)
N3_2 N 0.3105(5) 0.3834(4) 0.3750(5)
C1C C 0.8163(3) 0.2925(2) 0.3690(3)
C2C C 0.7609(4) 0.2765(2) 0.4384(3)
C3C C 0.7691(4) 0.3001(2) 0.5150(4)
C4C C 0.8305(4) 0.3395(2) 0.5286(4)
H5C H 0.8651 0.3513 0.4853
C5C C 0.8380(5) 0.3597(3) 0.6044(4)
H6C H 0.8797 0.3849 0.6138
C6C C 0.7862(5) 0.3442(3) 0.6692(4)
H7C H 0.7933 0.3591 0.7214
C7C C 0.7254(5) 0.3079(2) 0.6576(4)
H8C H 0.6903 0.2982 0.7018
C8C C 0.7143(4) 0.2847(2) 0.5804(3)
C9C C 0.6558(4) 0.2463(2) 0.5679(3)
C10C C 0.6488(3) 0.2218(2) 0.4918(3)
C11C C 0.5922(4) 0.1802(2) 0.4790(4)
H9C H 0.5585 0.1682 0.5227
C12C C 0.5867(4) 0.1581(3) 0.4052(4)
H10C H 0.5484 0.1308 0.3976
C13C C 0.6362(5) 0.1744(3) 0.3399(4)
H11C H 0.6297 0.1589 0.2882
C14C C 0.6936(4) 0.2126(2) 0.3495(4)
H12C H 0.7285 0.2224 0.3052
C15C C 0.7015(4) 0.2379(2) 0.4270(3)
C16C C 0.6006(4) 0.2299(2) 0.6373(3)
C17_2 C 0.0897(4) 0.2716(2) 1.3692(4)
C18_2 C 0.1442(4) 0.2541(2) 1.4387(3)
C19_2 C 0.1088(4) 0.2438(2) 1.5150(3)
C20_2 C 0.0192(4) 0.2500(2) 1.5307(4)
H13_2 H -0.0175 0.2595 1.4875
C21_2 C -0.0122(5) 0.2424(3) 1.6045(4)
H14_2 H -0.0709 0.2477 1.6134
C22_2 C 0.0390(5) 0.2268(4) 1.6706(5)
H15_2 H 0.0146 0.2214 1.7227
C23_2 C 0.1242(4) 0.2193(3) 1.6589(4)
H16_2 H 0.1584 0.2080 1.7028
C24_2 C 0.1622(4) 0.2287(2) 1.5801(4)
C25_2 C 0.2489(4) 0.2226(2) 1.5681(3)
C26_2 C 0.2863(4) 0.2346(2) 1.4925(4)
C27_2 C 0.3745(4) 0.2325(2) 1.4794(4)
H17_2 H 0.4110 0.2239 1.5232
C28_2 C 0.4083(4) 0.2428(3) 1.4033(4)
H18_2 H 0.4678 0.2417 1.3952
C29_2 C 0.3540(5) 0.2550(3) 1.3377(4)
H19_2 H 0.3772 0.2608 1.2852
C30_2 C 0.2692(4) 0.2584(3) 1.3486(4)
H20_2 H 0.2341 0.2669 1.3038
C31_2 C 0.2319(4) 0.2497(2) 1.4262(3)
C32_2 C 0.3043(4) 0.2056(2) 1.6371(3)
C33B C 0.5165(4) -0.0720(2) 1.1326(3)
C34B C 0.5083(4) -0.0353(2) 1.0633(3)
C35B C 0.5346(4) 0.0148(2) 1.0761(4)
C36B C 0.4738(4) -0.0513(2) 0.9907(3)
C37B C 0.4451(5) -0.1024(2) 0.9760(4)
H21B H 0.4500 -0.1271 1.0177
C38B C 0.4116(6) -0.1153(2) 0.9036(5)
H22B H 0.3927 -0.1490 0.8953
C39B C 0.4039(7) -0.0795(3) 0.8391(5)
H23B H 0.3805 -0.0899 0.7885
C40B C 0.5705(5) 0.0305(3) 1.1510(4)
H24B H 0.5766 0.0070 1.1944
C41A C 0.2572(6) 0.5444(3) 0.6803(5)
H25A H 0.2451 0.5610 0.6304
C42A C 0.2995(6) 0.4987(3) 0.6761(5)
H26A H 0.3147 0.4845 0.6250
C43A C 0.3193(4) 0.4740(2) 0.7487(4)
C44A C 0.2983(7) 0.4997(3) 0.8179(5)
H27A H 0.3136 0.4860 0.8693
C45A C 0.2563(6) 0.5443(3) 0.8150(4)
H28A H 0.2431 0.5605 0.8650
C46A C 0.4149(10) 0.3504(3) 0.6836(5)
H29A H 0.4328 0.3356 0.6339
C47A C 0.3823(11) 0.3996(3) 0.6819(5)
H30A H 0.3773 0.4166 0.6312
C48A C 0.3587(4) 0.4225(2) 0.7481(4)
C49A C 0.3719(9) 0.3970(3) 0.8174(5)
H31A H 0.3580 0.4122 0.8681
C50A C 0.4062(8) 0.3479(3) 0.8155(5)
H32A H 0.4184 0.3317 0.8657
C51B C 0.5053(4) -0.0703(2) 0.3639(3)
C52B C 0.5030(4) -0.0341(2) 0.4348(3)
C53B C 0.4554(4) 0.0107(2) 0.4265(3)
C54B C 0.4149(5) 0.0236(3) 0.3533(4)
H33B H 0.4194 0.0018 0.3076
C55B C 0.3686(5) 0.0677(3) 0.3472(5)
H34B H 0.3402 0.0757 0.2979
C56B C 0.3633(5) 0.1014(2) 0.4155(4)
H35B H 0.3313 0.1317 0.4105
C57B C 0.4025(4) 0.0912(2) 0.4864(4)
H36B H 0.3971 0.1137 0.5312
C58B C 0.5467(4) -0.0456(2) 0.5061(4)
C59_2 C 0.2276(6) 0.3839(4) 0.3482(6)
H37_2 H 0.1834 0.3849 0.3874
C60_2 C 0.3801(7) 0.3828(6) 0.3144(9)
H38_2 H 0.3602 0.3669 0.2640
H39_2 H 0.3981 0.4176 0.3030
H40_2 H 0.4280 0.3635 0.3361
C61_2 C 0.3300(9) 0.3812(6) 0.4584(7)
H41_2 H 0.2775 0.3796 0.4901
H42_2 H 0.3641 0.3510 0.4694
H43_2 H 0.3620 0.4115 0.4739
N4 N 0.7299(10) 0.0818(5) 0.5986(9)
H1 H 0.6766 0.0854 0.6203
H2 H 0.7596 0.0594 0.6306
C62 C 0.7699(8) 0.1276(4) 0.5979(7)
H44 H 0.8301 0.1227 0.6098
H45 H 0.7447 0.1497 0.6391
H46 H 0.7637 0.1431 0.5441
C63 C 0.7233(18) 0.0608(8) 0.5115(12)
H47 H 0.7003 0.0870 0.4755
H48 H 0.6858 0.0313 0.5111
H49 H 0.7796 0.0508 0.4924
N5 N 0.7391(10) 0.0048(6) 0.7924(9)
H3 H 0.7189 0.0363 0.8068
H4 H 0.6927 -0.0137 0.7765
C64 C 0.7869(7) 0.0126(4) 0.7209(6)
H50 H 0.8473 0.0118 0.7341
H51 H 0.7726 0.0456 0.6974
H52 H 0.7739 -0.0141 0.6815
C65 C 0.7666(9) -0.0175(5) 0.8656(8)
H53 H 0.8247 -0.0297 0.8591
H54 H 0.7295 -0.0460 0.8793
H55 H 0.7646 0.0076 0.9094
loop_
_geom_bond_atom_site_label_1
_geom_bond_atom_site_label_2
_geom_bond_site_symmetry_1
_geom_bond_site_symmetry_2
Zn1 O2 1_555 1_555
Zn2 O3 1_555 1_555
Zn3 O1 1_555 1_555
O1 C1 1_555 1_555
O2 C1 1_555 1_555
O3 C16 1_555 1_555
O4 C16 1_555 1_555
O5 C17 1_555 1_555
O6 C17 1_555 1_555
O7 Zn3 1_555 1_555
O8 Zn1 1_555 1_555
O9 Zn1 1_555 1_555
O10 C33 1_555 1_555
O11 Zn1 1_555 1_555
O12 C51 1_555 1_555
O13 Zn1 1_555 1_555
O14 Zn2 1_555 1_555
N1 Zn1 1_555 1_555
N2 C46 1_555 1_555
N3 C59 1_555 1_555
N4 H1 1_555 1_555
H2 N4 1_555 1_555
N5 H3 1_555 1_555
H4 N5 1_555 1_555
C1 C2 1_555 1_555
C2 C3 1_555 1_555
C3 C4 1_555 1_555
C4 H5 1_555 1_555
C5 C4 1_555 1_555
H6 C5 1_555 1_555
C6 C5 1_555 1_555
H7 C6 1_555 1_555
C7 C6 1_555 1_555
H8 C7 1_555 1_555
C8 C3 1_555 1_555
C9 C8 1_555 1_555
C10 C9 1_555 1_555
C11 C10 1_555 1_555
H9 C11 1_555 1_555
C12 C11 1_555 1_555
H10 C12 1_555 1_555
C13 C12 1_555 1_555
H11 C13 1_555 1_555
C14 C13 1_555 1_555
H12 C14 1_555 1_555
C15 C2 1_555 1_555
C16 C9 1_555 1_555
C17 C18 1_555 1_555
C18 C19 1_555 1_555
C19 C20 1_555 1_555
C20 H13 1_555 1_555
C21 C20 1_555 1_555
H14 C21 1_555 1_555
C22 C21 1_555 1_555
H15 C22 1_555 1_555
C23 C22 1_555 1_555
H16 C23 1_555 1_555
C24 C19 1_555 1_555
C25 C24 1_555 1_555
C26 C25 1_555 1_555
C27 C26 1_555 1_555
H17 C27 1_555 1_555
C28 C27 1_555 1_555
H18 C28 1_555 1_555
C29 C28 1_555 1_555
H19 C29 1_555 1_555
C30 C29 1_555 1_555
H20 C30 1_555 1_555
C31 C18 1_555 1_555
C32 O7 1_555 1_555
C33 O9 1_555 1_555
C34 C33 1_555 1_555
C35 C34 1_555 1_555
C36 C34 1_555 1_555
C37 C36 1_555 1_555
H21 C37 1_555 1_555
C38 C37 1_555 1_555
H22 C38 1_555 1_555
C39 C38 1_555 1_555
H23 C39 1_555 1_555
C40 C35 1_555 1_555
H24 C40 1_555 1_555
C41 N1 1_555 1_555
H25 C41 1_555 1_555
C42 C41 1_555 1_555
H26 C42 1_555 1_555
C43 C42 1_555 1_555
C44 C43 1_555 1_555
H27 C44 1_555 1_555
C45 N1 1_555 1_555
H28 C45 1_555 1_555
C46 H29 1_555 1_555
C47 C46 1_555 1_555
H30 C47 1_555 1_555
C48 C43 1_555 1_555
C49 C48 1_555 1_555
H31 C49 1_555 1_555
C50 N2 1_555 1_555
H32 C50 1_555 1_555
C51 O11 1_555 1_555
C52 C51 1_555 1_555
C53 C52 1_555 1_555
C54 C53 1_555 1_555
H33 C54 1_555 1_555
C55 C54 1_555 1_555
H34 C55 1_555 1_555
C56 C55 1_555 1_555
H35 C56 1_555 1_555
C57 C56 1_555 1_555
H36 C57 1_555 1_555
C58 C52 1_555 1_555
C59 O14 1_555 1_555
H37 C59 1_555 1_555
C60 N3 1_555 1_555
H38 C60 1_555 1_555
H39 C60 1_555 1_555
H40 C60 1_555 1_555
C61 N3 1_555 1_555
H41 C61 1_555 1_555
H42 C61 1_555 1_555
H43 C61 1_555 1_555
C62 N4 1_555 1_555
H44 C62 1_555 1_555
H45 C62 1_555 1_555
H46 C62 1_555 1_555
C63 N4 1_555 1_555
H47 C63 1_555 1_555
H48 C63 1_555 1_555
H49 C63 1_555 1_555
C64 N5 1_555 1_555
H50 C64 1_555 1_555
H51 C64 1_555 1_555
H52 C64 1_555 1_555
C65 N5 1_555 1_555
H53 C65 1_555 1_555
H54 C65 1_555 1_555
H55 C65 1_555 1_555
Zn1B O2B 1_555 1_555
Zn1B_2 O11B 1_555 1_555
Zn1_2 O8_2 1_555 1_555
Zn1C O13C 1_555 1_555
Zn1C_2 O2C 1_555 1_555
Zn1A N1A 1_555 1_555
Zn2_2 O5 1_555 1_555
Zn2C O10 1_555 1_555
Zn2A O10B 1_555 1_555
Zn2A_2 O12B 1_555 1_555
Zn3C O4 1_555 1_555
Zn3C_2 O6 1_555 1_555
Zn3A N2 1_555 1_555
Zn3_2 O7_2 1_555 1_555
Zn3C_3 O1C 1_555 1_555
O1C C1C 1_555 1_555
O1C_2 Zn3C 1_555 1_555
O2C C1C 1_555 1_555
O3C Zn2C 1_555 1_555
O3_2 Zn2_2 1_555 1_555
O4C Zn3 1_555 1_555
O5_2 Zn2 1_555 1_555
O6_2 Zn3C 1_555 1_555
O6C Zn3 1_555 1_555
O7_2 C32_2 1_555 1_555
O7C Zn3C 1_555 1_555
O8_2 C32_2 1_555 1_555
O8B Zn1B 1_555 1_555
O9B Zn1B 1_555 1_555
O10B C33B 1_555 1_555
O10C Zn2 1_555 1_555
O10C_2 Zn2_2 1_555 1_555
O11B C51B 1_555 1_555
O11B_2 Zn1B 1_555 1_555
O12B C51B 1_555 1_555
O12C Zn2 1_555 1_555
O12C_2 Zn2_2 1_555 1_555
O13C Zn2 1_555 1_555
O13B Zn1B 1_555 1_555
O13C_2 Zn2_2 1_555 1_555
O14_2 Zn2_2 1_555 1_555
N1A C41A 1_555 1_555
N1B Zn1B 1_555 1_555
N2A Zn3 1_555 1_555
N2B Zn3C 1_555 1_555
N3_2 C59_2 1_555 1_555
C1C C2C 1_555 1_555
C2C C3C 1_555 1_555
C3C C4C 1_555 1_555
C4C H5C 1_555 1_555
C5C C4C 1_555 1_555
H6C C5C 1_555 1_555
C6C C5C 1_555 1_555
H7C C6C 1_555 1_555
C7C C6C 1_555 1_555
H8C C7C 1_555 1_555
C8C C3C 1_555 1_555
C9C C8C 1_555 1_555
C10C C9C 1_555 1_555
C11C C10C 1_555 1_555
H9C C11C 1_555 1_555
C12C C11C 1_555 1_555
H10C C12C 1_555 1_555
C13C C12C 1_555 1_555
H11C C13C 1_555 1_555
C14C C13C 1_555 1_555
H12C C14C 1_555 1_555
C15C C2C 1_555 1_555
C16C O3C 1_555 1_555
C17_2 O5_2 1_555 1_555
C18_2 C17_2 1_555 1_555
C19_2 C18_2 1_555 1_555
C20_2 C19_2 1_555 1_555
H13_2 C20_2 1_555 1_555
C21_2 C20_2 1_555 1_555
H14_2 C21_2 1_555 1_555
C22_2 C21_2 1_555 1_555
H15_2 C22_2 1_555 1_555
C23_2 C22_2 1_555 1_555
H16_2 C23_2 1_555 1_555
C24_2 C19_2 1_555 1_555
C25_2 C24_2 1_555 1_555
C26_2 C25_2 1_555 1_555
C27_2 C26_2 1_555 1_555
H17_2 C27_2 1_555 1_555
C28_2 C27_2 1_555 1_555
H18_2 C28_2 1_555 1_555
C29_2 C28_2 1_555 1_555
H19_2 C29_2 1_555 1_555
C30_2 C29_2 1_555 1_555
H20_2 C30_2 1_555 1_555
C31_2 C18_2 1_555 1_555
C32_2 C25_2 1_555 1_555
C33B O9B 1_555 1_555
C34B C33B 1_555 1_555
C35B C36 1_555 1_555
C36B C35 1_555 1_555
C37B C36B 1_555 1_555
H21B C37B 1_555 1_555
C38B C37B 1_555 1_555
H22B C38B 1_555 1_555
C39B C40 1_555 1_555
H23B C39B 1_555 1_555
C40B C39 1_555 1_555
H24B C40B 1_555 1_555
C41A H25A 1_555 1_555
C42A C41A 1_555 1_555
H26A C42A 1_555 1_555
C43A C42A 1_555 1_555
C44A C43A 1_555 1_555
H27A C44A 1_555 1_555
C45A N1A 1_555 1_555
H28A C45A 1_555 1_555
C46A N2A 1_555 1_555
H29A C46A 1_555 1_555
C47A C46A 1_555 1_555
H30A C47A 1_555 1_555
C48A C43A 1_555 1_555
C49A C48A 1_555 1_555
H31A C49A 1_555 1_555
C50A N2A 1_555 1_555
H32A C50A 1_555 1_555
C51B C52B 1_555 1_555
C52B C53B 1_555 1_555
C53B C58 1_555 1_555
C54B C53B 1_555 1_555
H33B C54B 1_555 1_555
C55B C54B 1_555 1_555
H34B C55B 1_555 1_555
C56B C55B 1_555 1_555
H35B C56B 1_555 1_555
C57B C58 1_555 1_555
H36B C57B 1_555 1_555
C58B C53 1_555 1_555
C59_2 O14_2 1_555 1_555
H37_2 C59_2 1_555 1_555
C60_2 N3_2 1_555 1_555
H38_2 C60_2 1_555 1_555
H39_2 C60_2 1_555 1_555
H40_2 C60_2 1_555 1_555
C61_2 N3_2 1_555 1_555
H41_2 C61_2 1_555 1_555
H42_2 C61_2 1_555 1_555
H43_2 C61_2 1_555 1_555
Zn3 O13 1_555 1_555
O8 C32 1_555 1_555
O12 Zn2C 1_555 1_555
O13 Zn2C 1_555 1_555
C7 C8 1_555 1_555
C10 C15 1_555 1_555
C14 C15 1_555 1_555
C23 C24 1_555 1_555
C25 C32 1_555 1_555
C26 C31 1_555 1_555
C30 C31 1_555 1_555
C44 C45 1_555 1_555
C47 C48 1_555 1_555
C49 C50 1_555 1_555
C57 C58B 1_555 1_555
Zn2A O13B 1_555 1_555
Zn3C O13C 1_555 1_555
Zn3C_2 O13C_2 1_555 1_555
O4C C16C 1_555 1_555
O6_2 C17_2 1_555 1_555
C7C C8C 1_555 1_555
C9C C16C 1_555 1_555
C10C C15C 1_555 1_555
C14C C15C 1_555 1_555
C23_2 C24_2 1_555 1_555
C26_2 C31_2 1_555 1_555
C30_2 C31_2 1_555 1_555
C34B C35B 1_555 1_555
C34B C36B 1_555 1_555
C35B C40B 1_555 1_555
C38B C39B 1_555 1_555
C44A C45A 1_555 1_555
C47A C48A 1_555 1_555
C49A C50A 1_555 1_555
C52B C58B 1_555 1_555
C56B C57B 1_555 1_555

#END
