
#######################################################################
#
#                 Cambridge Crystallographic Data Centre
#                                CCDC 
#
#######################################################################
#
# If this CIF has been generated from an entry in the Cambridge 
# Structural Database, then it will include bibliographic, chemical, 
# crystal, experimental, refinement or atomic coordinate data resulting 
# from the CCDC's data processing and validation procedures.
#
#######################################################################

data_YARJIK
_symmetry_cell_setting           orthorhombic
_symmetry_space_group_name_H-M   'P n a 21'
_symmetry_Int_Tables_number      33
_space_group_name_Hall           'P 2c -2n'
loop_
_symmetry_equiv_pos_site_id
_symmetry_equiv_pos_as_xyz
1 x,y,z
2 1/2-x,1/2+y,1/2+z
3 1/2+x,1/2-y,z
4 -x,-y,1/2+z
_cell_length_a                   26.872(7)
_cell_length_b                   18.006(3)
_cell_length_c                   7.660(1)
_cell_angle_alpha                90
_cell_angle_beta                 90
_cell_angle_gamma                90
_cell_volume                     3706.35
loop_
_atom_site_label
_atom_site_type_symbol
_atom_site_fract_x
_atom_site_fract_y
_atom_site_fract_z
Ba1 Ba 0.0237 0.0383 0.0000
O1 O -0.0564(4) 0.0360(8) 0.2201(14)
C1 C -0.1029(6) 0.0499(11) 0.1683(19)
C2 C -0.1205(7) 0.1209(10) 0.1553(25)
C3 C -0.1694(6) 0.1360(9) 0.1001(25)
C4 C -0.2004(7) 0.0763(10) 0.0499(28)
C5 C -0.1840(6) 0.0060(11) 0.0674(33)
C6 C -0.1343(7) -0.0097(10) 0.1309(27)
O2 O 0.0265(6) -0.0970(6) 0.2018(17)
N1 N 0.1228(7) -0.0322(16) 0.0876(31)
C7 C 0.0712(12) -0.1359(14) 0.2158(46)
C8 C 0.1164(18) -0.0981(36) 0.1483(69)
O3 O 0.0905(6) 0.1513(9) 0.1162(26)
N2 N 0.0063(7) 0.1996(9) 0.1030(28)
C9 C 0.0937(8) 0.2118(14) -0.0206(54)
C10 C 0.0412(8) 0.2499(11) 0.0271(52)
C17 C -0.1872(8) 0.2183(12) 0.0860(30)
C18 C -0.2397(7) 0.2226(11) -0.0368(33)
C19 C -0.1519(6) 0.2652(9) -0.0324(29)
C20 C -0.1916(8) 0.2455(13) 0.2704(32)
C21 C -0.2177(7) -0.0609(10) 0.0340(34)
C22 C -0.2669(9) -0.0472(15) 0.0640(37)
C23 C -0.1943(12) -0.1258(18) 0.0827(47)
C24 C -0.2219(17) -0.0941(25) -0.1763(62)
O5 O 0.0535(5) 0.0618(6) 0.3562(17)
O1C O 0.0564(4) -0.0360(8) -0.2799(14)
O2C O -0.0265(6) 0.0970(6) -0.2982(17)
O5C O -0.0535(5) -0.0618(6) -0.1438(17)
Ba1C Ba -0.0237 -0.0383 0.5000
O4 O 0.0464(5) 0.1720(7) -0.4231(19)
C11 C 0.0475(7) 0.2464(9) -0.4587(29)
C12 C 0.0032(7) 0.2864(9) -0.4885(46)
C13 C 0.0038(6) 0.3616(9) -0.5050(57)
C14 C 0.0503(6) 0.4003(9) -0.4903(49)
C15 C 0.0942(6) 0.3579(10) -0.4934(53)
C16 C 0.0919(7) 0.2813(10) -0.4811(69)
C25 C -0.0475(7) 0.4047(10) -0.4655(35)
C26 C -0.0700(12) 0.3869(17) -0.2813(41)
C27 C -0.0799(11) 0.3780(15) -0.6219(38)
C28 C -0.0389(7) 0.4888(11) -0.5397(33)
C29 C 0.1461(7) 0.3987(10) -0.5261(37)
C30 C 0.1447(8) 0.4799(12) -0.5438(34)
C31 C 0.1833(11) 0.3648(17) -0.3822(42)
C32 C 0.1653(13) 0.3867(20) -0.7010(50)
loop_
_geom_bond_atom_site_label_1
_geom_bond_atom_site_label_2
_geom_bond_site_symmetry_1
_geom_bond_site_symmetry_2
Ba1 O1 1_555 1_555
O1 C1 1_555 1_555
C1 C2 1_555 1_555
C2 C3 1_555 1_555
C3 C4 1_555 1_555
C4 C5 1_555 1_555
C5 C6 1_555 1_555
C6 C1 1_555 1_555
O2 Ba1 1_555 1_555
N1 Ba1 1_555 1_555
C7 O2 1_555 1_555
C8 N1 1_555 1_555
O3 Ba1 1_555 1_555
N2 Ba1 1_555 1_555
C9 O3 1_555 1_555
C10 N2 1_555 1_555
O4 C11 1_555 1_555
C11 C12 1_555 1_555
C12 C13 1_555 1_555
C13 C14 1_555 1_555
C14 C15 1_555 1_555
C15 C16 1_555 1_555
C16 C11 1_555 1_555
C17 C3 1_555 1_555
C18 C17 1_555 1_555
C19 C17 1_555 1_555
C20 C17 1_555 1_555
C21 C5 1_555 1_555
C22 C21 1_555 1_555
C23 C21 1_555 1_555
C24 C21 1_555 1_555
O5 Ba1 1_555 1_555
C25 C13 1_555 1_555
C26 C25 1_555 1_555
C27 C25 1_555 1_555
C28 C25 1_555 1_555
C29 C15 1_555 1_555
C30 C29 1_555 1_555
C31 C29 1_555 1_555
C32 C29 1_555 1_555
O1C Ba1 1_555 1_555
O2C Ba1 1_555 1_555
O5C Ba1 1_555 1_555
Ba1C O1 1_555 1_555
O2 Ba1C 1_555 1_555
C7 C8 1_555 1_555
C9 C10 1_555 1_555
O5 Ba1C 1_555 1_555

#END
