
#######################################################################
#
#                 Cambridge Crystallographic Data Centre
#                                CCDC 
#
#######################################################################
#
# If this CIF has been generated from an entry in the Cambridge 
# Structural Database, then it will include bibliographic, chemical, 
# crystal, experimental, refinement or atomic coordinate data resulting 
# from the CCDC's data processing and validation procedures.
#
#######################################################################

data_YARJUY
_symmetry_cell_setting           monoclinic
_symmetry_space_group_name_H-M   'C 2/c'
_symmetry_Int_Tables_number      15
_space_group_name_Hall           '-C 2yn'
loop_
_symmetry_equiv_pos_site_id
_symmetry_equiv_pos_as_xyz
1 x,y,z
2 -x,y,1/2-z
3 1/2+x,1/2+y,z
4 1/2-x,1/2+y,1/2-z
5 -x,-y,-z
6 x,-y,1/2+z
7 1/2-x,1/2-y,-z
8 1/2+x,1/2-y,1/2+z
_cell_length_a                   18.883(3)
_cell_length_b                   14.4900(8)
_cell_length_c                   14.237(4)
_cell_angle_alpha                90
_cell_angle_beta                 125.30(3)
_cell_angle_gamma                90
_cell_volume                     3179.22
loop_
_atom_site_label
_atom_site_type_symbol
_atom_site_fract_x
_atom_site_fract_y
_atom_site_fract_z
Zn1 Zn -0.7500 0.2500 -1.0000
N1 N -0.68384(13) 0.33848(14) -0.84971(17)
O1 O -0.69377(14) 0.13669(13) -0.88919(16)
H1 H -0.7081 0.0872 -0.9282
H2 H -0.6853 0.1409 -0.8238
C1 C -0.72140(16) 0.40915(18) -0.8345(2)
H3 H -0.7795 0.4211 -0.8916
O2 O -0.64094(13) 0.25619(12) -1.00940(16)
H4 H -0.6071 0.2111 -0.9726
H5 H -0.6561 0.2602 -1.0783
C2 C -0.67870(16) 0.46586(18) -0.7384(2)
H6 H -0.7081 0.5143 -0.7321
C3 C -0.59197(15) 0.44996(16) -0.6518(2)
C4 C -0.55328(17) 0.37705(19) -0.6674(2)
H7 H -0.4952 0.3634 -0.6117
C5 C -0.60045(17) 0.32401(19) -0.7659(2)
H8 H -0.5724 0.2753 -0.7741
C6 C -0.54520(16) 0.51291(18) -0.5469(2)
H9 H -0.5445 0.5748 -0.5724
H10 H -0.5788 0.5151 -0.5151
Zn1B Zn -0.2500 0.7500 0.0000
N1D N -0.31616(13) 0.66152(14) -0.15029(17)
N1F N -0.81616(13) 0.16152(14) -1.15029(17)
O1F O -0.80623(14) 0.36331(13) -1.11081(16)
H1F H -0.7919 0.4128 -1.0718
H2F H -0.8147 0.3591 -1.1762
C1D C -0.27860(16) 0.59085(18) -0.1655(2)
H3D H -0.2205 0.5789 -0.1084
O2F O -0.85906(13) 0.24381(12) -0.99060(16)
H4F H -0.8929 0.2889 -1.0274
H5F H -0.8439 0.2398 -0.9217
C2D C -0.32130(16) 0.53414(18) -0.2616(2)
H6D H -0.2919 0.4857 -0.2679
C3D C -0.40803(15) 0.55004(16) -0.3482(2)
C4D C -0.44672(17) 0.62295(19) -0.3326(2)
H7D H -0.5048 0.6366 -0.3883
C5D C -0.39955(17) 0.67599(19) -0.2341(2)
H8D H -0.4276 0.7247 -0.2259
C6D C -0.45480(16) 0.48709(18) -0.4531(2)
H9D H -0.4555 0.4252 -0.4276
H10D H -0.4212 0.4849 -0.4849
O3 O -0.31751(17) 0.85091(16) -0.30632(18)
O4 O -0.20049(16) 0.76976(18) -0.24292(19)
H11 H -0.1860 0.7167 -0.2519
O5 O -0.15482(13) 0.63995(19) -0.29949(19)
O6 O -0.20575(15) 0.54433(16) -0.4428(2)
O7 O -0.5000 0.6106(2) -0.7500
C7 C -0.32707(18) 0.74141(17) -0.4359(2)
C8 C -0.30206(16) 0.66258(17) -0.4684(2)
C9 C -0.36144(17) 0.62340(19) -0.5758(2)
H12 H -0.3456 0.5715 -0.5980
C10 C -0.44285(17) 0.65991(19) -0.6495(2)
C11 C -0.4675(2) 0.7385(2) -0.6220(3)
H13 H -0.5219 0.7646 -0.6736
C12 C -0.40954(19) 0.7777(2) -0.5163(3)
H14 H -0.4259 0.8311 -0.4972
C13 C -0.2787(2) 0.7911(2) -0.3216(2)
C14 C -0.21577(17) 0.6119(2) -0.4002(2)
O3A O -0.68249(17) 0.85091(16) -1.19368(18)
O4A O -0.79951(16) 0.76976(18) -1.25708(19)
H11A H -0.8140 0.7167 -1.2481
O5A O -0.84518(13) 0.63995(19) -1.20051(19)
O6A O -0.79425(15) 0.54433(16) -1.0572(2)
C7A C -0.67293(18) 0.74141(17) -1.0641(2)
C8A C -0.69794(16) 0.66258(17) -1.0316(2)
C9A C -0.63856(17) 0.62340(19) -0.9242(2)
H12A H -0.6544 0.5715 -0.9020
C10A C -0.55715(17) 0.65991(19) -0.8505(2)
C11A C -0.5325(2) 0.7385(2) -0.8780(3)
H13A H -0.4781 0.7646 -0.8264
C12A C -0.59046(19) 0.7777(2) -0.9837(3)
H14A H -0.5741 0.8311 -1.0028
C13A C -0.7213(2) 0.7911(2) -1.1784(2)
C14A C -0.78423(17) 0.6119(2) -1.0998(2)
O8 O 0.0000 0.5154(3) -0.2500
H15 H -0.0417 0.5536 -0.2790
H15A H 0.0417 0.5536 -0.2210
O9 O -0.0174(2) 0.3757(3) -0.3995(3)
H16 H -0.0667 0.3996 -0.4484
H17 H 0.0324 0.3909 -0.3817
loop_
_geom_bond_atom_site_label_1
_geom_bond_atom_site_label_2
_geom_bond_site_symmetry_1
_geom_bond_site_symmetry_2
Zn1 N1 1_555 1_555
N1 C1 1_555 1_555
O1 Zn1 1_555 1_555
H1 O1 1_555 1_555
H2 O1 1_555 1_555
C1 H3 1_555 1_555
O2 Zn1 1_555 1_555
H4 O2 1_555 1_555
H5 O2 1_555 1_555
C2 C1 1_555 1_555
H6 C2 1_555 1_555
C3 C2 1_555 1_555
C4 C3 1_555 1_555
H7 C4 1_555 1_555
C5 N1 1_555 1_555
H8 C5 1_555 1_555
C6 C3 1_555 1_555
H9 C6 1_555 1_555
H10 C6 1_555 1_555
O3 C13 1_555 1_555
O4 H11 1_555 1_555
O5 C14 1_555 1_555
O6 C14 1_555 1_555
O7 C10 1_555 1_555
C7 C8 1_555 1_555
C8 C9 1_555 1_555
C9 H12 1_555 1_555
C10 C9 1_555 1_555
C11 C10 1_555 1_555
H13 C11 1_555 1_555
C12 C7 1_555 1_555
H14 C12 1_555 1_555
C13 O4 1_555 1_555
C14 C8 1_555 1_555
O8 H15 1_555 1_555
O9 H16 1_555 1_555
H17 O9 1_555 1_555
Zn1B N1D 1_555 1_555
N1D C1D 1_555 1_555
N1F Zn1 1_555 1_555
O1F Zn1 1_555 1_555
H1F O1F 1_555 1_555
H2F O1F 1_555 1_555
C1D H3D 1_555 1_555
O2F Zn1 1_555 1_555
H4F O2F 1_555 1_555
H5F O2F 1_555 1_555
C2D C1D 1_555 1_555
H6D C2D 1_555 1_555
C3D C2D 1_555 1_555
C4D C3D 1_555 1_555
H7D C4D 1_555 1_555
C5D N1D 1_555 1_555
H8D C5D 1_555 1_555
C6D C6 1_555 1_555
H9D C6D 1_555 1_555
H10D C6D 1_555 1_555
O3A C13A 1_555 1_555
O4A H11A 1_555 1_555
O5A C14A 1_555 1_555
O6A C14A 1_555 1_555
C7A C8A 1_555 1_555
C8A C9A 1_555 1_555
C9A H12A 1_555 1_555
C10A O7 1_555 1_555
C11A C10A 1_555 1_555
H13A C11A 1_555 1_555
C12A C7A 1_555 1_555
H14A C12A 1_555 1_555
C13A O4A 1_555 1_555
C14A C8A 1_555 1_555
H15A O8 1_555 1_555
C4 C5 1_555 1_555
C7 C13 1_555 1_555
C11 C12 1_555 1_555
C3D C6D 1_555 1_555
C4D C5D 1_555 1_555
C7A C13A 1_555 1_555
C9A C10A 1_555 1_555
C11A C12A 1_555 1_555

#END
