
#######################################################################
#
#                 Cambridge Crystallographic Data Centre
#                                CCDC 
#
#######################################################################
#
# If this CIF has been generated from an entry in the Cambridge 
# Structural Database, then it will include bibliographic, chemical, 
# crystal, experimental, refinement or atomic coordinate data resulting 
# from the CCDC's data processing and validation procedures.
#
#######################################################################

data_YARLIO
_symmetry_cell_setting           monoclinic
_symmetry_space_group_name_H-M   'P 21/n'
_symmetry_Int_Tables_number      14
_space_group_name_Hall           '-P 2yn'
loop_
_symmetry_equiv_pos_site_id
_symmetry_equiv_pos_as_xyz
1 x,y,z
2 1/2-x,1/2+y,1/2-z
3 -x,-y,-z
4 1/2+x,1/2-y,1/2+z
_cell_length_a                   8.2396(7)
_cell_length_b                   5.8279(3)
_cell_length_c                   17.5896(10)
_cell_angle_alpha                90
_cell_angle_beta                 96.827(3)
_cell_angle_gamma                90
_cell_volume                     838.656
loop_
_atom_site_label
_atom_site_type_symbol
_atom_site_fract_x
_atom_site_fract_y
_atom_site_fract_z
Ag1 Ag 0.46428(11) 0.45866(16) 0.75719(5)
O1 O 0.5687(9) 0.0482(13) 0.7895(5)
N1 N 0.7103(11) 0.6027(16) 0.8364(5)
H1 H 0.8000 0.5443 0.8165
H2 H 0.7130 0.7595 0.8305
N2 N 0.9404(11) 0.0880(17) 0.8546(6)
C1 C 0.7539(15) 0.463(2) 1.0728(6)
H3 H 0.7594 0.4294 1.1259
C2 C 0.8829(13) 0.2063(17) 0.8943(6)
C3 C 0.8079(13) 0.3578(19) 0.9463(6)
C4 C 0.6798(15) 0.665(2) 1.0433(7)
H4 H 0.6400 0.7734 1.0770
C5 C 0.6641(13) 0.709(2) 0.9656(6)
H5 H 0.6090 0.8434 0.9461
C6 C 0.8184(15) 0.313(2) 1.0242(6)
H6 H 0.8709 0.1771 1.0442
O2 O 0.3158(9) 0.1064(14) 0.7746(5)
N3 N 0.4279(12) -0.0361(17) 0.7877(5)
C7 C 0.7288(12) 0.5559(18) 0.9147(5)
Ag1A Ag 1.03572(11) -0.04134(16) 0.74281(5)
Ag1A_2 Ag 0.03572(11) -0.04134(16) 0.74281(5)
N2A N 0.5596(11) 0.5880(17) 0.6454(6)
O2A O 0.1842(9) 0.6064(14) 0.7254(5)
loop_
_geom_bond_atom_site_label_1
_geom_bond_atom_site_label_2
_geom_bond_site_symmetry_1
_geom_bond_site_symmetry_2
Ag1 O1 1_555 1_555
O1 N3 1_555 1_555
N1 Ag1 1_555 1_555
H1 N1 1_555 1_555
H2 N1 1_555 1_555
N2 C2 1_555 1_555
C1 H3 1_555 1_555
C2 C3 1_555 1_555
C3 C6 1_555 1_555
C4 C1 1_555 1_555
H4 C4 1_555 1_555
C5 C4 1_555 1_555
H5 C5 1_555 1_555
C6 C1 1_555 1_555
H6 C6 1_555 1_555
O2 Ag1 1_555 1_555
N3 O2 1_555 1_555
C7 N1 1_555 1_555
Ag1A N2 1_555 1_555
Ag1A_2 O2 1_555 1_555
N2A Ag1 1_555 1_555
O2A Ag1 1_555 1_555
C3 C7 1_555 1_555
C5 C7 1_555 1_555

#END
