
#######################################################################
#
#                 Cambridge Crystallographic Data Centre
#                                CCDC 
#
#######################################################################
#
# If this CIF has been generated from an entry in the Cambridge 
# Structural Database, then it will include bibliographic, chemical, 
# crystal, experimental, refinement or atomic coordinate data resulting 
# from the CCDC's data processing and validation procedures.
#
#######################################################################

data_YARSER
_symmetry_cell_setting           monoclinic
_symmetry_space_group_name_H-M   'P 21/c'
_symmetry_Int_Tables_number      14
_space_group_name_Hall           '-P 2ybc'
loop_
_symmetry_equiv_pos_site_id
_symmetry_equiv_pos_as_xyz
1 x,y,z
2 -x,1/2+y,1/2-z
3 -x,-y,-z
4 x,1/2-y,1/2+z
_cell_length_a                   10.556(2)
_cell_length_b                   11.849(2)
_cell_length_c                   17.512(6)
_cell_angle_alpha                90
_cell_angle_beta                 117.96(2)
_cell_angle_gamma                90
_cell_volume                     1934.7
loop_
_atom_site_label
_atom_site_type_symbol
_atom_site_fract_x
_atom_site_fract_y
_atom_site_fract_z
Zn1 Zn 0.87993(5) 0.54667(4) 0.73990(3)
O1 O 1.0736(3) 0.5116(2) 0.74850(19)
O2 O 1.0253(3) 0.6922(2) 0.7132(2)
O3 O 1.2296(3) 0.8517(2) 0.8525(2)
O4 O 1.2028(3) 0.9152(2) 0.7267(2)
N1 N 0.5844(4) 0.7784(3) 0.5648(2)
N2 N 0.7147(3) 0.6355(3) 0.6446(2)
N3 N 0.9264(4) 0.6343(3) 0.8510(2)
N4 N 0.9660(4) 0.7762(3) 0.9416(2)
C1 C 0.7122(4) 0.7451(3) 0.6291(3)
H1 H 0.7893 0.7934 0.6591
C2 C 0.5825(5) 0.5965(4) 0.5862(3)
H2 H 0.5522 0.5220 0.5815
C3 C 0.5017(5) 0.6834(4) 0.5359(3)
H3 H 0.4085 0.6789 0.4908
C4 C 0.3993(5) 0.9187(4) 0.4884(3)
H4 H 0.3303 0.8644 0.4799
C5 C 0.5411(4) 0.8913(3) 0.5310(3)
C6 C 0.6424(5) 0.9719(4) 0.5425(3)
H5 H 0.7393 0.9532 0.5709
C7 C 0.9574(4) 0.7426(3) 0.8654(3)
H6 H 0.9716 0.7901 0.8278
C8 C 0.9145(6) 0.5958(4) 0.9217(3)
H7 H 0.8928 0.5220 0.9296
C9 C 0.9392(7) 0.6821(4) 0.9778(3)
H8 H 0.9383 0.6784 1.0306
C10 C 1.0854(5) 0.9581(4) 0.9655(3)
H9 H 1.1420 0.9298 0.9422
C11 C 0.9858(5) 0.8900(3) 0.9730(3)
C12 C 0.9000(5) 0.9311(4) 1.0070(3)
H10 H 0.8329 0.8844 1.0114
C13 C 1.1110(5) 0.6114(4) 0.7374(3)
C14 C 1.2625(4) 0.6304(3) 0.7554(3)
C15 C 1.3502(5) 0.5419(4) 0.7558(3)
H11 H 1.3130 0.4691 0.7433
C16 C 1.4904(6) 0.5599(4) 0.7743(4)
H12 H 1.5472 0.4999 0.7743
C17 C 1.5462(6) 0.6679(5) 0.7929(5)
H13 H 1.6404 0.6807 0.8043
C18 C 1.4633(5) 0.7568(4) 0.7945(4)
H14 H 1.5025 0.8289 0.8080
C19 C 1.3210(4) 0.7394(3) 0.7759(3)
C20 C 1.2417(4) 0.8410(3) 0.7854(3)
Zn1A Zn 1.12007(5) 0.04667(4) 0.76010(3)
Zn1A_2 Zn 1.12007(5) 1.04667(4) 0.76010(3)
Zn1B Zn 0.12007(5) 1.45333(4) 0.26010(3)
Zn1B_2 Zn 1.12007(5) 1.45333(4) 1.26010(3)
O1A O 0.9264(3) 0.0116(2) 0.75150(19)
O2A O 0.9747(3) 0.1922(2) 0.7868(2)
O3A O 0.7704(3) 0.3517(2) 0.6475(2)
O4A O 0.7972(3) 0.4152(2) 0.7733(2)
O4_2 O 1.2028(3) -0.0848(2) 0.7267(2)
N1B N 0.4156(4) 1.2216(3) 0.4352(2)
N2B N 0.2853(3) 1.3645(3) 0.3554(2)
N2A N 1.2853(3) 0.1355(3) 0.8554(2)
N3B N 1.0736(4) 1.3657(3) 1.1490(2)
N3A N 1.0736(4) 0.1343(3) 0.6490(2)
N4B N 1.0340(4) 1.2238(3) 1.0584(2)
C1B C 0.2878(4) 1.2549(3) 0.3709(3)
H1B H 0.2107 1.2066 0.3409
C2B C 0.4175(5) 1.4035(4) 0.4138(3)
H2B H 0.4478 1.4780 0.4185
C3B C 0.4983(5) 1.3166(4) 0.4641(3)
H3B H 0.5915 1.3211 0.5092
C4B C 0.6007(5) 1.0813(4) 0.5116(3)
H4B H 0.6697 1.1356 0.5201
C5B C 0.4589(4) 1.1087(3) 0.4690(3)
C6B C 0.3576(5) 1.0281(4) 0.4575(3)
H5B H 0.2607 1.0468 0.4291
C7B C 1.0426(4) 1.2574(3) 1.1346(3)
H6B H 1.0284 1.2099 1.1722
C8B C 1.0855(6) 1.4042(4) 1.0783(3)
H7B H 1.1072 1.4780 1.0704
C9B C 1.0608(7) 1.3179(4) 1.0222(3)
H8B H 1.0617 1.3216 0.9694
C10B C 0.9146(5) 1.0419(4) 1.0345(3)
H9B H 0.8580 1.0702 1.0578
C11B C 1.0142(5) 1.1100(3) 1.0270(3)
C12B C 1.1000(5) 1.0689(4) 0.9930(3)
H10B H 1.1671 1.1156 0.9886
C13A C 0.8890(5) 0.1114(4) 0.7626(3)
C14A C 0.7375(4) 0.1304(3) 0.7446(3)
C15A C 0.6498(5) 0.0419(4) 0.7442(3)
H11A H 0.6870 -0.0309 0.7567
C16A C 0.5096(6) 0.0599(4) 0.7257(4)
H12A H 0.4528 -0.0001 0.7257
C17A C 0.4538(6) 0.1679(5) 0.7071(5)
H13A H 0.3596 0.1807 0.6957
C18A C 0.5367(5) 0.2568(4) 0.7055(4)
H14A H 0.4975 0.3289 0.6920
C19A C 0.6790(4) 0.2394(3) 0.7241(3)
C20A C 0.7583(4) 0.3410(3) 0.7146(3)
loop_
_geom_bond_atom_site_label_1
_geom_bond_atom_site_label_2
_geom_bond_site_symmetry_1
_geom_bond_site_symmetry_2
Zn1 O1 1_555 1_555
O1 C13 1_555 1_555
O2 C13 1_555 1_555
O3 C20 1_555 1_555
O4 C20 1_555 1_555
N1 C1 1_555 1_555
N2 Zn1 1_555 1_555
N3 Zn1 1_555 1_555
N4 C7 1_555 1_555
C1 N2 1_555 1_555
H1 C1 1_555 1_555
C2 N2 1_555 1_555
H2 C2 1_555 1_555
C3 N1 1_555 1_555
H3 C3 1_555 1_555
C4 H4 1_555 1_555
C5 N1 1_555 1_555
C6 C5 1_555 1_555
H5 C6 1_555 1_555
C7 N3 1_555 1_555
H6 C7 1_555 1_555
C8 N3 1_555 1_555
H7 C8 1_555 1_555
C9 N4 1_555 1_555
H8 C9 1_555 1_555
C10 H9 1_555 1_555
C11 N4 1_555 1_555
C12 C11 1_555 1_555
H10 C12 1_555 1_555
C13 C14 1_555 1_555
C14 C15 1_555 1_555
C15 H11 1_555 1_555
C16 C15 1_555 1_555
H12 C16 1_555 1_555
C17 C16 1_555 1_555
H13 C17 1_555 1_555
C18 C17 1_555 1_555
H14 C18 1_555 1_555
C19 C14 1_555 1_555
C20 C19 1_555 1_555
Zn1A O1A 1_555 1_555
Zn1A_2 O4 1_555 1_555
Zn1B N2B 1_555 1_555
Zn1B_2 N3B 1_555 1_555
O1A C13A 1_555 1_555
O2A C13A 1_555 1_555
O3A C20A 1_555 1_555
O4A Zn1 1_555 1_555
O4_2 Zn1A 1_555 1_555
N1B C1B 1_555 1_555
N2B C1B 1_555 1_555
N2A Zn1A 1_555 1_555
N3B C7B 1_555 1_555
N3A Zn1A 1_555 1_555
N4B C7B 1_555 1_555
C1B H1B 1_555 1_555
C2B N2B 1_555 1_555
H2B C2B 1_555 1_555
C3B N1B 1_555 1_555
H3B C3B 1_555 1_555
C4B C6 1_555 1_555
H4B C4B 1_555 1_555
C5B N1B 1_555 1_555
C6B C4 1_555 1_555
H5B C6B 1_555 1_555
C7B H6B 1_555 1_555
C8B N3B 1_555 1_555
H7B C8B 1_555 1_555
C9B N4B 1_555 1_555
H8B C9B 1_555 1_555
C10B C12 1_555 1_555
H9B C10B 1_555 1_555
C11B N4B 1_555 1_555
C12B C10 1_555 1_555
H10B C12B 1_555 1_555
C13A C14A 1_555 1_555
C14A C15A 1_555 1_555
C15A H11A 1_555 1_555
C16A C15A 1_555 1_555
H12A C16A 1_555 1_555
C17A C16A 1_555 1_555
H13A C17A 1_555 1_555
C18A C17A 1_555 1_555
H14A C18A 1_555 1_555
C19A C14A 1_555 1_555
C20A O4A 1_555 1_555
C2 C3 1_555 1_555
C4 C5 1_555 1_555
C8 C9 1_555 1_555
C10 C11 1_555 1_555
C18 C19 1_555 1_555
C2B C3B 1_555 1_555
C4B C5B 1_555 1_555
C5B C6B 1_555 1_555
C8B C9B 1_555 1_555
C10B C11B 1_555 1_555
C11B C12B 1_555 1_555
C18A C19A 1_555 1_555
C19A C20A 1_555 1_555

#END
