
#######################################################################
#
#                 Cambridge Crystallographic Data Centre
#                                CCDC 
#
#######################################################################
#
# If this CIF has been generated from an entry in the Cambridge 
# Structural Database, then it will include bibliographic, chemical, 
# crystal, experimental, refinement or atomic coordinate data resulting 
# from the CCDC's data processing and validation procedures.
#
#######################################################################

data_YARZAT
_symmetry_cell_setting           monoclinic
_symmetry_space_group_name_H-M   'C 2/c'
_symmetry_Int_Tables_number      15
_space_group_name_Hall           '-C 2yn'
loop_
_symmetry_equiv_pos_site_id
_symmetry_equiv_pos_as_xyz
1 x,y,z
2 1/2+x,1/2+y,z
3 -x,y,1/2-z
4 1/2-x,1/2+y,1/2-z
5 -x,-y,-z
6 1/2-x,1/2-y,-z
7 x,-y,1/2+z
8 1/2+x,1/2-y,1/2+z
_cell_length_a                   16.9182(7)
_cell_length_b                   29.3880(10)
_cell_length_c                   10.6777(4)
_cell_angle_alpha                90
_cell_angle_beta                 107.1740(10)
_cell_angle_gamma                90
_cell_volume                     5072.16
loop_
_atom_site_label
_atom_site_type_symbol
_atom_site_fract_x
_atom_site_fract_y
_atom_site_fract_z
Ni1 Ni 0.22429(3) 0.149900(17) 0.24158(4)
Na1 Na 0.0000 0.07747(10) -0.2500
Na2 Na 0.08442(10) 0.17461(6) -0.29740(16)
Na3 Na 0.22032(10) 0.28108(6) 0.29446(16)
Na4 Na 0.5000 0.22418(12) 0.7500
O1 O 0.10964(17) 0.16260(10) 0.1057(3)
O2 O -0.04479(17) 0.14049(11) -0.4014(3)
O3 O -0.17557(19) 0.12647(11) -0.8822(3)
O4 O -0.1056(3) 0.06857(17) -0.9304(4)
O5 O 0.27343(17) 0.20475(9) 0.3601(3)
O6 O 0.36509(19) 0.21785(10) 0.5555(3)
O7 O -0.27453(18) 0.17489(10) -0.6039(3)
O8 O -0.3953(2) 0.20240(13) -0.6016(3)
O9 O -0.1822(4) 0.36149(18) -0.7399(5)
O10 O -0.0931(4) 0.3882(2) -0.5686(8)
O11 O -0.2155(4) 0.4123(2) -0.6266(6)
O12 O 0.0239(5) 0.0100(2) -0.1061(11)
H1 H 0.0680 0.0050 -0.04890
H2 H 0.0000 -0.0144 -0.1270
O13 O 0.1275(2) 0.09535(13) -0.3082(4)
H3 H 0.1706 0.0883 -0.2523
H4 H 0.1273 0.0868 -0.3814
O14 O 0.0000 0.23382(15) -0.2500
H5 H 0.0236 0.2496 -0.1865
O15 O -0.15342(19) 0.19456(10) -0.0525(3)
H6 H -0.1301 0.2152 -0.0039
H7 H -0.1601 0.1728 -0.0088
O16 O -0.19866(18) 0.21267(11) -0.3594(3)
H8 H -0.2210 0.1969 -0.4233
H9 H -0.1858 0.2375 -0.3828
O17 O 0.0974(2) 0.25844(11) 0.1326(3)
H10 H 0.0890 0.2735 0.0652
H11 H 0.0977 0.2313 0.1152
O18 O 0.5000 0.1488(3) 0.7500
H12 H 0.5411 0.1395 0.7321
O19 O 0.5000 0.3051(2) 0.7500
H13 H 0.4733 0.3144 0.7976
N1 N -0.1962(2) 0.08521(11) -0.6648(3)
N2 N -0.34184(18) 0.12527(11) -0.8286(3)
N3 N -0.1607(4) 0.38634(17) -0.6447(5)
C1 C 0.0971(2) 0.13558(14) 0.0097(4)
C2 C -0.1529(3) 0.09402(14) -0.5258(4)
H14 H -0.1924 0.0987 -0.4796
H15 H -0.1205 0.0682 -0.4890
C3 C -0.1409(3) 0.08848(17) -0.8584(4)
C4 C -0.1406(3) 0.06487(16) -0.7327(4)
H16 H -0.0858 0.0652 -0.6749
H17 H -0.1560 0.0340 -0.7519
C5 C -0.2776(2) 0.06186(13) -0.6861(4)
H18 H -0.3021 0.0744 -0.6244
C6 C -0.2718(3) 0.01061(16) -0.6620(5)
H19 H -0.2431 -0.0031 -0.7163
H20 H -0.2415 0.0048 -0.5732
C7 C -0.3583(4) -0.01015(18) -0.6916(5)
H21 H -0.3864 0.0028 -0.6354
H22 H -0.3539 -0.0420 -0.6759
C8 C -0.4067(3) -0.00122(16) -0.8333(5)
H23 H -0.3786 -0.0143 -0.8894
H24 H -0.4597 -0.0151 -0.8520
C9 C -0.4168(3) 0.04950(15) -0.8592(5)
H25 H -0.4446 0.0543 -0.9495
H26 H -0.4504 0.0618 -0.8101
C10 C -0.3342(2) 0.07458(14) -0.8228(4)
H27 H -0.3065 0.0658 -0.8845
C11 C -0.3324(2) 0.19297(13) -0.9591(4)
C12 C -0.3648(3) 0.14455(14) -0.9621(4)
H28 H -0.3423 0.1263 -1.0165
H29 H -0.4233 0.1445 -0.9979
C13 C -0.3524(2) 0.17647(14) -0.6451(4)
C14 C -0.3955(2) 0.14410(14) -0.7542(4)
H30 H -0.4404 0.1596 -0.8135
H31 H -0.4178 0.1196 -0.7175
Ni1B Ni -0.22429(3) 0.149900(17) -0.74158(4)
Na2E Na 0.41558(10) 0.32539(6) 0.29740(16)
Na2B Na -0.08442(10) 0.17461(6) -0.20260(16)
Na3G Na 0.72032(10) 0.21892(6) 0.79446(16)
Na3E Na 0.27968(10) 0.21892(6) 0.70554(16)
Na3B Na -0.22032(10) 0.28108(6) -0.79446(16)
Na3G_2 Na -0.27968(10) 0.21892(6) -1.20554(16)
Na3G_3 Na -0.27968(10) 0.21892(6) -0.20554(16)
Na4_2 Na -0.5000 0.22418(12) -1.2500
Na4G Na 0.0000 0.27582(12) 0.2500
O1B O -0.10964(17) 0.16260(10) -0.6057(3)
O2B O 0.04479(17) 0.14049(11) -0.0986(3)
O3B O 0.17557(19) 0.12647(11) 0.3822(3)
O4B O 0.1056(3) 0.06857(17) 0.4304(4)
O5B O -0.27343(17) 0.20475(9) -0.8601(3)
O6B O 0.63491(19) 0.21785(10) 0.9445(3)
O6E O 0.13491(19) 0.28215(10) 0.4445(3)
O6G O -0.13491(19) 0.28215(10) -0.9445(3)
O6B_2 O -0.36509(19) 0.21785(10) -1.0555(3)
O7B O 0.27453(18) 0.17489(10) 0.1039(3)
O8B O 0.3953(2) 0.20240(13) 0.1016(3)
O9B O 0.1822(4) 0.36149(18) 0.2399(5)
O10B O 0.0931(4) 0.3882(2) 0.0686(8)
O11B O 0.2155(4) 0.4123(2) 0.1266(6)
O12B O -0.0239(5) 0.0100(2) -0.3939(11)
H1B H -0.0680 0.0050 -0.45110
H2B H 0.0000 -0.0144 -0.3730
O13B O -0.1275(2) 0.09535(13) -0.1918(4)
H3B H -0.1706 0.0883 -0.2477
H4B H -0.1273 0.0868 -0.1186
H5B H -0.0236 0.2496 -0.3135
O15E O -0.34658(19) 0.30544(10) -0.9475(3)
O15B O 0.15342(19) 0.19456(10) -0.4475(3)
O15G O 0.34658(19) 0.30544(10) 0.4475(3)
H6B H 0.1301 0.2152 -0.4961
H6E H -0.3699 0.2848 -0.9961
H6G H 0.3699 0.2848 0.4961
H7B H 0.1601 0.1728 -0.4912
H7E H -0.3399 0.3272 -0.9912
H7G H 0.3399 0.3272 0.4912
O16E O -0.30134(18) 0.28733(11) -0.6406(3)
O16B O 0.19866(18) 0.21267(11) -0.1406(3)
O16G O 0.30134(18) 0.28733(11) 0.1406(3)
H8B H 0.2210 0.1969 -0.0767
H8E H -0.2790 0.3031 -0.5767
H8G H 0.2790 0.3031 0.0767
H9B H 0.1858 0.2375 -0.1172
H9E H -0.3142 0.2625 -0.6172
H9G H 0.3142 0.2625 0.1172
O17B O -0.0974(2) 0.25844(11) -0.6326(3)
O17E O 0.4026(2) 0.24156(11) 0.8674(3)
O17G O 0.5974(2) 0.24156(11) 0.6326(3)
H10B H -0.0890 0.2735 -0.5652
H10E H 0.4110 0.2265 0.9348
H10G H 0.5890 0.2265 0.5652
H11B H -0.0977 0.2313 -0.6152
H11E H 0.4023 0.2687 0.8848
H11G H 0.5977 0.2687 0.6152
H12B H 0.4589 0.1395 0.7679
H13B H 0.5267 0.3144 0.7024
N1B N 0.1962(2) 0.08521(11) 0.1648(3)
N2B N 0.34184(18) 0.12527(11) 0.3286(3)
N3B N 0.1607(4) 0.38634(17) 0.1447(5)
C1B C -0.0971(2) 0.13558(14) -0.5097(4)
C2B C 0.1529(3) 0.09402(14) 0.0258(4)
H14B H 0.1924 0.0987 -0.0204
H15B H 0.1205 0.0682 -0.0110
C3B C 0.1409(3) 0.08848(17) 0.3584(4)
C4B C 0.1406(3) 0.06487(16) 0.2327(4)
H16B H 0.0858 0.0652 0.1749
H17B H 0.1560 0.0340 0.2519
C5B C 0.2776(2) 0.06186(13) 0.1861(4)
H18B H 0.3021 0.0744 0.1244
C6B C 0.2718(3) 0.01061(16) 0.1620(5)
H19B H 0.2431 -0.0031 0.2163
H20B H 0.2415 0.0048 0.0732
C7B C 0.3583(4) -0.01015(18) 0.1916(5)
H21B H 0.3864 0.0028 0.1354
H22B H 0.3539 -0.0420 0.1759
C8B C 0.4067(3) -0.00122(16) 0.3333(5)
H23B H 0.3786 -0.0143 0.3894
H24B H 0.4597 -0.0151 0.3520
C9B C 0.4168(3) 0.04950(15) 0.3592(5)
H25B H 0.4446 0.0543 0.4495
H26B H 0.4504 0.0618 0.3101
C10B C 0.3342(2) 0.07458(14) 0.3228(4)
H27B H 0.3065 0.0658 0.3845
C11B C 0.3324(2) 0.19297(13) 0.4591(4)
C12B C 0.3648(3) 0.14455(14) 0.4621(4)
H28B H 0.3423 0.1263 0.5165
H29B H 0.4233 0.1445 0.4979
C13B C 0.3524(2) 0.17647(14) 0.1451(4)
C14B C 0.3955(2) 0.14410(14) 0.2542(4)
H30B H 0.4404 0.1596 0.3135
H31B H 0.4178 0.1196 0.2175
loop_
_geom_bond_atom_site_label_1
_geom_bond_atom_site_label_2
_geom_bond_site_symmetry_1
_geom_bond_site_symmetry_2
Ni1 O1 1_555 1_555
Na1 O2 1_555 1_555
Na2 O2 1_555 1_555
Na3 O5 1_555 1_555
Na4 O6 1_555 1_555
O1 C1 1_555 1_555
O2 Na2B 1_555 1_555
O3 C3 1_555 1_555
O4 C3 1_555 1_555
O5 Ni1 1_555 1_555
O6 Na3E 1_555 1_555
O7 C13 1_555 1_555
O8 C13 1_555 1_555
O9 N3 1_555 1_555
O10 N3 1_555 1_555
O11 N3 1_555 1_555
O12 Na1 1_555 1_555
H1 O12 1_555 1_555
H2 O12 1_555 1_555
O13 Na1 1_555 1_555
H3 O13 1_555 1_555
H4 O13 1_555 1_555
O14 Na2 1_555 1_555
H5 O14 1_555 1_555
O15 H6 1_555 1_555
H7 O15 1_555 1_555
O16 H8 1_555 1_555
H9 O16 1_555 1_555
O17 Na3 1_555 1_555
H10 O17 1_555 1_555
H11 O17 1_555 1_555
O18 Na4 1_555 1_555
H12 O18 1_555 1_555
O19 Na4 1_555 1_555
H13 O19 1_555 1_555
N1 C2 1_555 1_555
N2 C10 1_555 1_555
C1 O2B 1_555 1_555
C2 H14 1_555 1_555
H15 C2 1_555 1_555
C3 C4 1_555 1_555
C4 N1 1_555 1_555
H16 C4 1_555 1_555
H17 C4 1_555 1_555
C5 N1 1_555 1_555
H18 C5 1_555 1_555
C6 C5 1_555 1_555
H19 C6 1_555 1_555
H20 C6 1_555 1_555
C7 C6 1_555 1_555
H21 C7 1_555 1_555
H22 C7 1_555 1_555
C8 C7 1_555 1_555
H23 C8 1_555 1_555
H24 C8 1_555 1_555
C9 C8 1_555 1_555
H25 C9 1_555 1_555
H26 C9 1_555 1_555
C10 C5 1_555 1_555
H27 C10 1_555 1_555
C11 C12 1_555 1_555
C12 N2 1_555 1_555
H28 C12 1_555 1_555
H29 C12 1_555 1_555
C13 C14 1_555 1_555
C14 N2 1_555 1_555
H30 C14 1_555 1_555
H31 C14 1_555 1_555
Ni1B O3 1_555 1_555
Na2E O15G 1_555 1_555
Na2B O14 1_555 1_555
Na3G O6B 1_555 1_555
Na3E O17E 1_555 1_555
Na3B O9 1_555 1_555
Na3G_2 O6B_2 1_555 1_555
Na3G_3 O15 1_555 1_555
Na4_2 O6B_2 1_555 1_555
Na4G O17 1_555 1_555
O1B Ni1B 1_555 1_555
O2B Na1 1_555 1_555
O3B Ni1 1_555 1_555
O4B C3B 1_555 1_555
O5B C11 1_555 1_555
O6B Na4 1_555 1_555
O6E Na3 1_555 1_555
O6G Na3B 1_555 1_555
O6B_2 C11 1_555 1_555
O7B Ni1 1_555 1_555
O8B C13B 1_555 1_555
O9B Na3 1_555 1_555
O10B N3B 1_555 1_555
O11B N3B 1_555 1_555
O12B Na1 1_555 1_555
H1B O12B 1_555 1_555
H2B O12B 1_555 1_555
O13B Na1 1_555 1_555
H3B O13B 1_555 1_555
H4B O13B 1_555 1_555
H5B O14 1_555 1_555
O15E Na3B 1_555 1_555
O15B Na2 1_555 1_555
O15G Na3 1_555 1_555
H6B O15B 1_555 1_555
H6E O15E 1_555 1_555
H6G O15G 1_555 1_555
H7B O15B 1_555 1_555
H7E O15E 1_555 1_555
H7G O15G 1_555 1_555
O16E Na3B 1_555 1_555
O16B Na2 1_555 1_555
O16G Na3 1_555 1_555
H8B O16B 1_555 1_555
H8E O16E 1_555 1_555
H8G O16G 1_555 1_555
H9B O16B 1_555 1_555
H9E O16E 1_555 1_555
H9G O16G 1_555 1_555
O17B Na3B 1_555 1_555
O17E Na4 1_555 1_555
O17G Na4 1_555 1_555
H10B O17B 1_555 1_555
H10E O17E 1_555 1_555
H10G O17G 1_555 1_555
H11B O17B 1_555 1_555
H11E O17E 1_555 1_555
H11G O17G 1_555 1_555
H12B O18 1_555 1_555
H13B O19 1_555 1_555
N1B Ni1 1_555 1_555
N2B Ni1 1_555 1_555
N3B O9B 1_555 1_555
C1B O2 1_555 1_555
C2B C1 1_555 1_555
H14B C2B 1_555 1_555
H15B C2B 1_555 1_555
C3B O3B 1_555 1_555
C4B N1B 1_555 1_555
H16B C4B 1_555 1_555
H17B C4B 1_555 1_555
C5B N1B 1_555 1_555
H18B C5B 1_555 1_555
C6B C5B 1_555 1_555
H19B C6B 1_555 1_555
H20B C6B 1_555 1_555
C7B C6B 1_555 1_555
H21B C7B 1_555 1_555
H22B C7B 1_555 1_555
C8B C7B 1_555 1_555
H23B C8B 1_555 1_555
H24B C8B 1_555 1_555
C9B C8B 1_555 1_555
H25B C9B 1_555 1_555
H26B C9B 1_555 1_555
C10B N2B 1_555 1_555
H27B C10B 1_555 1_555
C11B O5 1_555 1_555
C12B N2B 1_555 1_555
H28B C12B 1_555 1_555
H29B C12B 1_555 1_555
C13B O7B 1_555 1_555
C14B N2B 1_555 1_555
H30B C14B 1_555 1_555
H31B C14B 1_555 1_555
Na2 O13 1_555 1_555
Na2 O2B 1_555 1_555
O6 C11B 1_555 1_555
O7 Ni1B 1_555 1_555
O15 Na2B 1_555 1_555
O16 Na2B 1_555 1_555
O16 Na3G_3 1_555 1_555
N1 Ni1B 1_555 1_555
N2 Ni1B 1_555 1_555
C2 C1B 1_555 1_555
C9 C10 1_555 1_555
Ni1B O5B 1_555 1_555
Na2E O16G 1_555 1_555
Na2B O2B 1_555 1_555
Na2B O13B 1_555 1_555
Na3G O17G 1_555 1_555
Na3B O5B 1_555 1_555
Na4G O6E 1_555 1_555
O1B C1B 1_555 1_555
N1B C2B 1_555 1_555
C3B C4B 1_555 1_555
C5B C10B 1_555 1_555
C9B C10B 1_555 1_555
C11B C12B 1_555 1_555
C13B C14B 1_555 1_555

#END
