
#######################################################################
#
#                 Cambridge Crystallographic Data Centre
#                                CCDC 
#
#######################################################################
#
# If this CIF has been generated from an entry in the Cambridge 
# Structural Database, then it will include bibliographic, chemical, 
# crystal, experimental, refinement or atomic coordinate data resulting 
# from the CCDC's data processing and validation procedures.
#
#######################################################################

data_YASFAB02
_symmetry_cell_setting           monoclinic
_symmetry_space_group_name_H-M   'P 2/c'
_symmetry_Int_Tables_number      13
_space_group_name_Hall           '-P 2yc'
loop_
_symmetry_equiv_pos_site_id
_symmetry_equiv_pos_as_xyz
1 x,y,z
2 -x,y,1/2-z
3 -x,-y,-z
4 x,-y,1/2+z
_cell_length_a                   13.4751(15)
_cell_length_b                   9.3657(11)
_cell_length_c                   13.5363(15)
_cell_angle_alpha                90
_cell_angle_beta                 93.858(2)
_cell_angle_gamma                90
_cell_volume                     1704.46
loop_
_atom_site_label
_atom_site_type_symbol
_atom_site_fract_x
_atom_site_fract_y
_atom_site_fract_z
Cd1 Cd 0.113317(16) -0.30310(2) 0.198853(16)
Cd2 Cd 0.386248(16) -0.33523(2) 0.297848(17)
O1 O 0.35938(18) -0.0012(3) 0.1653(2)
O2 O 0.27293(16) -0.1917(2) 0.20973(17)
O3 O -0.15843(17) -0.0562(2) 0.09887(17)
O4 O -0.05760(16) -0.2365(2) 0.14799(16)
O5 O 0.13817(16) -0.6105(2) 0.36285(17)
O6 O 0.22760(16) -0.4569(2) 0.27859(16)
O7 O 0.65640(16) -0.5811(2) 0.41740(17)
O8 O 0.55839(16) -0.4087(2) 0.35133(16)
O9 O 0.0000 -0.4789(3) 0.2500
O10 O 0.16196(19) -0.4338(3) 0.06907(19)
O11 O 0.3234(2) -0.2231(3) 0.4276(2)
O12 O 0.5000 -0.1601(3) 0.2500
N1 N 0.10258(19) -0.0690(3) 0.14651(19)
N2 N 0.39654(19) -0.5657(3) 0.36272(19)
C1 C 0.2807(2) -0.0648(3) 0.1770(2)
C2 C 0.1840(2) 0.0114(3) 0.1509(2)
C3 C 0.1806(2) 0.1576(3) 0.1346(2)
H1 H 0.2399 0.2129 0.1383
C4 C 0.0887(3) 0.2215(3) 0.1127(2)
H2 H 0.0839 0.3216 0.1021
C5 C 0.0038(2) 0.1367(3) 0.1063(2)
H3 H -0.0598 0.1775 0.0901
C6 C 0.0137(2) -0.0087(3) 0.1242(2)
C7 C -0.0757(2) -0.1073(3) 0.1221(2)
C8 C 0.2181(2) -0.5636(3) 0.3338(2)
C9 C 0.3127(2) -0.6416(3) 0.3664(2)
C10 C 0.3123(2) -0.7845(3) 0.3946(3)
H4 H 0.2517 -0.8352 0.3985
C11 C 0.4034(3) -0.8509(3) 0.4169(3)
H5 H 0.4062 -0.9492 0.4343
C12 C 0.4897(3) -0.7724(3) 0.4135(3)
H6 H 0.5526 -0.8161 0.4281
C13 C 0.4837(2) -0.6284(3) 0.3884(2)
C14 C 0.5743(2) -0.5326(3) 0.3857(2)
H7 H -0.050(4) -0.548(5) 0.201(3)
H8 H 0.154(3) -0.410(5) 0.014(3)
H9 H 0.217(4) -0.475(5) 0.077(4)
H10 H 0.326(3) -0.268(5) 0.479(3)
H11 H 0.273(4) -0.192(5) 0.411(4)
H12 H 0.459(3) -0.094(4) 0.217(3)
H7A H 0.050(4) -0.548(5) 0.299(3)
H12A H 0.541(3) -0.094(4) 0.283(3)
Cd1A Cd -0.113317(16) -0.30310(2) 0.301147(16)
Cd2A Cd -0.386248(16) -0.33523(2) 0.202152(17)
O1A O -0.35938(18) -0.0012(3) 0.3347(2)
O2A O -0.27293(16) -0.1917(2) 0.29027(17)
O3A O 0.15843(17) -0.0562(2) 0.40113(17)
O4A O 0.05760(16) -0.2365(2) 0.35201(16)
O5A O -0.13817(16) -0.6105(2) 0.13715(17)
O6A O -0.22760(16) -0.4569(2) 0.22141(16)
O7A O -0.65640(16) -0.5811(2) 0.08260(17)
O8A O -0.55839(16) -0.4087(2) 0.14867(16)
O10A O -0.16196(19) -0.4338(3) 0.43093(19)
O11A O -0.3234(2) -0.2231(3) 0.0724(2)
N1A N -0.10258(19) -0.0690(3) 0.35349(19)
N2A N -0.39654(19) -0.5657(3) 0.13728(19)
C1A C -0.2807(2) -0.0648(3) 0.3230(2)
C2A C -0.1840(2) 0.0114(3) 0.3491(2)
C3A C -0.1806(2) 0.1576(3) 0.3654(2)
H1A H -0.2399 0.2129 0.3617
C4A C -0.0887(3) 0.2215(3) 0.3873(2)
H2A H -0.0839 0.3216 0.3979
C5A C -0.0038(2) 0.1367(3) 0.3937(2)
H3A H 0.0598 0.1775 0.4099
C6A C -0.0137(2) -0.0087(3) 0.3758(2)
C7A C 0.0757(2) -0.1073(3) 0.3779(2)
C8A C -0.2181(2) -0.5636(3) 0.1662(2)
C9A C -0.3127(2) -0.6416(3) 0.1336(2)
C10A C -0.3123(2) -0.7845(3) 0.1054(3)
H4A H -0.2517 -0.8352 0.1015
C11A C -0.4034(3) -0.8509(3) 0.0831(3)
H5A H -0.4062 -0.9492 0.0657
C12A C -0.4897(3) -0.7724(3) 0.0865(3)
H6A H -0.5526 -0.8161 0.0719
C13A C -0.4837(2) -0.6284(3) 0.1116(2)
C14A C -0.5743(2) -0.5326(3) 0.1143(2)
H8A H -0.154(3) -0.410(5) 0.486(3)
H9A H -0.217(4) -0.475(5) 0.423(4)
H10A H -0.326(3) -0.268(5) 0.021(3)
H11A H -0.273(4) -0.192(5) 0.089(4)
Cd2_2 Cd -0.613752(16) -0.33523(2) 0.297848(17)
Cd2A_2 Cd 0.613752(16) -0.33523(2) 0.202152(17)
O8_2 O -0.44161(16) -0.4087(2) 0.35133(16)
O8A_2 O 0.44161(16) -0.4087(2) 0.14867(16)
O12_2 O -0.5000 -0.1601(3) 0.2500
loop_
_geom_bond_atom_site_label_1
_geom_bond_atom_site_label_2
_geom_bond_site_symmetry_1
_geom_bond_site_symmetry_2
Cd1 O2 1_555 1_555
Cd2 O2 1_555 1_555
O1 C1 1_555 1_555
O2 C1 1_555 1_555
O3 C7 1_555 1_555
O4 Cd1 1_555 1_555
O5 C8 1_555 1_555
O6 Cd1 1_555 1_555
O7 C14 1_555 1_555
O8 Cd2 1_555 1_555
O9 Cd1 1_555 1_555
O10 Cd1 1_555 1_555
O11 Cd2 1_555 1_555
O12 Cd2 1_555 1_555
N1 Cd1 1_555 1_555
N2 Cd2 1_555 1_555
C1 C2 1_555 1_555
C2 N1 1_555 1_555
C3 C2 1_555 1_555
H1 C3 1_555 1_555
C4 C3 1_555 1_555
H2 C4 1_555 1_555
C5 C4 1_555 1_555
H3 C5 1_555 1_555
C6 N1 1_555 1_555
C7 O4 1_555 1_555
C8 O6 1_555 1_555
C9 N2 1_555 1_555
C10 C9 1_555 1_555
H4 C10 1_555 1_555
C11 C10 1_555 1_555
H5 C11 1_555 1_555
C12 C11 1_555 1_555
H6 C12 1_555 1_555
C13 N2 1_555 1_555
C14 O8 1_555 1_555
H7 O9 1_555 1_555
H8 O10 1_555 1_555
H9 O10 1_555 1_555
H10 O11 1_555 1_555
H11 O11 1_555 1_555
H12 O12 1_555 1_555
H7A O9 1_555 1_555
H12A O12 1_555 1_555
Cd1A O4 1_555 1_555
Cd2A O2A 1_555 1_555
O1A C1A 1_555 1_555
O2A Cd1A 1_555 1_555
O3A C7A 1_555 1_555
O4A Cd1 1_555 1_555
O5A C8A 1_555 1_555
O6A Cd1A 1_555 1_555
O7A C14A 1_555 1_555
O8A Cd2A 1_555 1_555
O10A Cd1A 1_555 1_555
O11A Cd2A 1_555 1_555
N1A Cd1A 1_555 1_555
N2A Cd2A 1_555 1_555
C1A O2A 1_555 1_555
C2A N1A 1_555 1_555
C3A C2A 1_555 1_555
H1A C3A 1_555 1_555
C4A C3A 1_555 1_555
H2A C4A 1_555 1_555
C5A C4A 1_555 1_555
H3A C5A 1_555 1_555
C6A N1A 1_555 1_555
C7A O4A 1_555 1_555
C8A O6A 1_555 1_555
C9A N2A 1_555 1_555
C10A C9A 1_555 1_555
H4A C10A 1_555 1_555
C11A C10A 1_555 1_555
H5A C11A 1_555 1_555
C12A C11A 1_555 1_555
H6A C12A 1_555 1_555
C13A N2A 1_555 1_555
C14A O8A 1_555 1_555
H8A O10A 1_555 1_555
H9A O10A 1_555 1_555
H10A O11A 1_555 1_555
H11A O11A 1_555 1_555
Cd2_2 O8A 1_555 1_555
Cd2A_2 O8 1_555 1_555
O8_2 Cd2A 1_555 1_555
O8A_2 Cd2 1_555 1_555
O12_2 Cd2A 1_555 1_555
Cd2 O6 1_555 1_555
O9 Cd1A 1_555 1_555
O12 Cd2A_2 1_555 1_555
C5 C6 1_555 1_555
C6 C7 1_555 1_555
C8 C9 1_555 1_555
C12 C13 1_555 1_555
C13 C14 1_555 1_555
Cd1A O4A 1_555 1_555
Cd2A O6A 1_555 1_555
C1A C2A 1_555 1_555
C5A C6A 1_555 1_555
C6A C7A 1_555 1_555
C8A C9A 1_555 1_555
C12A C13A 1_555 1_555
C13A C14A 1_555 1_555
Cd2_2 O8_2 1_555 1_555
Cd2_2 O12_2 1_555 1_555
Cd2A_2 O8A_2 1_555 1_555

#END
