
#######################################################################
#
#                 Cambridge Crystallographic Data Centre
#                                CCDC 
#
#######################################################################
#
# If this CIF has been generated from an entry in the Cambridge 
# Structural Database, then it will include bibliographic, chemical, 
# crystal, experimental, refinement or atomic coordinate data resulting 
# from the CCDC's data processing and validation procedures.
#
#######################################################################

data_YASJUZ
_symmetry_cell_setting           orthorhombic
_symmetry_space_group_name_H-M   'P 21 21 21'
_symmetry_Int_Tables_number      19
_space_group_name_Hall           'P 2ac 2ab'
loop_
_symmetry_equiv_pos_site_id
_symmetry_equiv_pos_as_xyz
1 x,y,z
2 1/2-x,-y,1/2+z
3 -x,1/2+y,1/2-z
4 1/2+x,1/2-y,-z
_cell_length_a                   6.4342(2)
_cell_length_b                   7.9231(3)
_cell_length_c                   21.6589(8)
_cell_angle_alpha                90
_cell_angle_beta                 90
_cell_angle_gamma                90
_cell_volume                     1104.14
loop_
_atom_site_label
_atom_site_type_symbol
_atom_site_fract_x
_atom_site_fract_y
_atom_site_fract_z
Ag1 Ag 0.48405(3) 0.31933(2) 0.403294(9)
S1 S -0.02495(10) 0.30426(7) 0.45400(2)
N1 N 0.1708(3) 0.3759(3) 0.34884(10)
N2 N -0.1957(3) 0.4042(3) 0.34914(10)
N3 N 0.0164(3) 0.0166(2) 0.50711(8)
N4 N 0.0283(3) 0.0067(2) 0.39681(9)
C1 C 0.1739(4) 0.4306(5) 0.29017(13)
H1 H 0.3004 0.4373 0.2695
C2 C -0.0039(5) 0.4769(4) 0.25989(11)
H2 H 0.0003 0.5165 0.2195
C3 C -0.1867(4) 0.4628(5) 0.29083(13)
H3 H -0.3091 0.4947 0.2712
C4 C -0.0154(4) 0.3643(2) 0.37454(10)
C5 C 0.0104(4) 0.0848(2) 0.45054(9)
C6 C 0.0589(5) -0.1610(3) 0.40076(14)
H4 H 0.0716 -0.2234 0.3646
C7 C 0.0719(5) -0.2422(3) 0.45593(15)
H5 H 0.0960 -0.3579 0.4576
C8 C 0.0488(4) -0.1506(3) 0.50893(13)
H6 H 0.0556 -0.2050 0.5469
N5 N 0.5327(4) -0.0326(3) 0.35763(10)
O1 O 0.5296(3) 0.0122(2) 0.41307(8)
O2 O 0.5189(4) 0.0765(3) 0.31640(8)
O3 O 0.5498(5) -0.1845(3) 0.34404(11)
Ag1_2 Ag -0.51595(3) 0.31933(2) 0.403294(9)
Ag1C Ag -0.01595(3) 0.18067(2) 0.596706(9)
N2_2 N 0.8043(3) 0.4042(3) 0.34914(10)
N3C N 0.5164(3) 0.4834(2) 0.49289(8)
loop_
_geom_bond_atom_site_label_1
_geom_bond_atom_site_label_2
_geom_bond_site_symmetry_1
_geom_bond_site_symmetry_2
Ag1 N1 1_555 1_555
S1 C4 1_555 1_555
N1 C1 1_555 1_555
N2 C3 1_555 1_555
N3 C5 1_555 1_555
N4 C5 1_555 1_555
C1 H1 1_555 1_555
C2 C1 1_555 1_555
H2 C2 1_555 1_555
C3 C2 1_555 1_555
H3 C3 1_555 1_555
C4 N1 1_555 1_555
C5 S1 1_555 1_555
C6 N4 1_555 1_555
H4 C6 1_555 1_555
C7 C6 1_555 1_555
H5 C7 1_555 1_555
C8 N3 1_555 1_555
H6 C8 1_555 1_555
N5 O1 1_555 1_555
O1 Ag1 1_555 1_555
O2 N5 1_555 1_555
O3 N5 1_555 1_555
Ag1_2 N2 1_555 1_555
Ag1C N3 1_555 1_555
N2_2 Ag1 1_555 1_555
N3C Ag1 1_555 1_555
N2 C4 1_555 1_555
C7 C8 1_555 1_555

#END
