
#######################################################################
#
#                 Cambridge Crystallographic Data Centre
#                                CCDC 
#
#######################################################################
#
# If this CIF has been generated from an entry in the Cambridge 
# Structural Database, then it will include bibliographic, chemical, 
# crystal, experimental, refinement or atomic coordinate data resulting 
# from the CCDC's data processing and validation procedures.
#
#######################################################################

data_YASJEJ
_symmetry_cell_setting           triclinic
_symmetry_space_group_name_H-M   'P -1'
_symmetry_Int_Tables_number      2
_space_group_name_Hall           '-P 1'
loop_
_symmetry_equiv_pos_site_id
_symmetry_equiv_pos_as_xyz
1 x,y,z
2 -x,-y,-z
_cell_length_a                   10.506(7)
_cell_length_b                   11.575(8)
_cell_length_c                   12.026(8)
_cell_angle_alpha                82.328(14)
_cell_angle_beta                 77.199(14)
_cell_angle_gamma                83.932(13)
_cell_volume                     1408.94
loop_
_atom_site_label
_atom_site_type_symbol
_atom_site_fract_x
_atom_site_fract_y
_atom_site_fract_z
Ag1 Ag 0.76780(3) 0.42765(2) 0.44482(2)
Ag2 Ag 1.35020(3) 0.18122(3) 0.34285(3)
S1 S 0.47548(9) 0.40436(7) 0.40345(7)
S2 S 1.10111(9) 0.36970(7) 0.45759(7)
N1 N 0.9129(3) 0.2403(2) 0.4359(3)
N2 N 1.1328(3) 0.1604(2) 0.3813(2)
N3 N 1.1388(3) 0.4106(2) 0.6559(2)
N4 N 1.0226(3) 0.2425(3) 0.6615(3)
N5 N 0.7105(3) 0.3560(3) 0.2724(3)
N6 N 0.5352(3) 0.2584(3) 0.2425(3)
N7 N 0.5049(4) 0.5534(3) 0.2086(3)
N8 N 0.3411(3) 0.6066(2) 0.3698(3)
C1 C 0.3101(4) 0.7059(3) 0.3073(4)
H1 H 0.2450 0.7589 0.3413
C2 C 0.3716(5) 0.7324(4) 0.1939(4)
H2 H 0.3480 0.8009 0.1506
C3 C 0.4689(5) 0.6529(5) 0.1483(4)
H3 H 0.5120 0.6686 0.0722
C4 C 0.4381(3) 0.5350(3) 0.3164(3)
C5 C 0.5861(3) 0.3325(3) 0.2935(3)
C6 C 0.7905(4) 0.3046(4) 0.1860(4)
H4 H 0.8788 0.3184 0.1677
C7 C 0.7454(5) 0.2319(4) 0.1239(4)
H5 H 0.8006 0.1995 0.0623
C8 C 0.6161(4) 0.2093(4) 0.1563(4)
H6 H 0.5839 0.1585 0.1174
C9 C 1.0170(5) 0.2224(4) 0.7753(4)
H7 H 0.9747 0.1584 0.8166
C10 C 1.0716(5) 0.2929(4) 0.8330(3)
H8 H 1.0677 0.2773 0.9115
C11 C 1.1322(4) 0.3876(4) 0.7693(3)
H9 H 1.1695 0.4369 0.8060
C12 C 1.0835(3) 0.3352(3) 0.6083(3)
C13 C 1.0416(3) 0.2424(3) 0.4231(3)
C14 C 1.0896(4) 0.0663(3) 0.3524(3)
H10 H 1.1501 0.0077 0.3225
C15 C 0.9572(4) 0.0537(3) 0.3659(3)
H11 H 0.9277 -0.0125 0.3469
C16 C 0.8710(3) 0.1433(3) 0.4087(3)
H12 H 0.7815 0.1369 0.4192
C17 C 1.4657(4) -0.0985(3) 0.4153(4)
C18 C 1.6028(4) -0.1170(4) 0.3402(4)
F1 F 1.6244(4) -0.2250(5) 0.3141(6)
F2 F 1.6962(4) -0.1121(6) 0.3933(5)
F3 F 1.6271(6) -0.0524(6) 0.2492(5)
O1 O 1.4537(4) -0.1475(4) 0.5138(3)
O2 O 1.3839(3) -0.0382(3) 0.3666(4)
Ag1A Ag 1.23220(3) 0.57235(2) 0.55518(2)
Ag1A_2 Ag 0.23220(3) 0.57235(2) 0.55518(2)
Ag2_2 Ag 0.35020(3) 0.18122(3) 0.34285(3)
N3A N 0.8612(3) 0.5894(2) 0.3441(2)
N6_2 N 1.5352(3) 0.2584(3) 0.2425(3)
N8A N 0.6589(3) 0.3934(2) 0.6302(3)
O3 O -0.3144(4) 0.7651(4) 0.9051(4)
O4 O -0.0984(4) 0.7575(4) 0.8878(4)
C19 C -0.1988(5) 0.5834(5) 0.8986(4)
C20 C -0.2044(4) 0.7159(4) 0.8968(4)
F4 F -0.3038(11) 0.5275(8) 0.9578(9)
F5 F -0.1816(12) 0.5364(10) 0.8039(9)
F6 F -0.1045(11) 0.5266(11) 0.9536(10)
O5 O -0.1054(8) 0.9932(6) 0.9410(6)
H13 H -0.1068 0.9149 0.9353
H14 H -0.0183 0.9960 0.9231
O6 O -0.3644(18) 0.9945(11) 0.9585(12)
F7? F -0.3066(15) 0.5569(9) 0.871(2)
F8? F -0.1016(13) 0.5582(9) 0.8046(8)
F9? F -0.1826(18) 0.5247(8) 0.9868(7)
O7? O -0.3946(12) 0.9969(9) 0.8942(13)
loop_
_geom_bond_atom_site_label_1
_geom_bond_atom_site_label_2
_geom_bond_site_symmetry_1
_geom_bond_site_symmetry_2
Ag1 N1 1_555 1_555
Ag2 N2 1_555 1_555
S1 C4 1_555 1_555
S2 C12 1_555 1_555
N1 C13 1_555 1_555
N2 C13 1_555 1_555
N3 C11 1_555 1_555
N4 C9 1_555 1_555
N5 Ag1 1_555 1_555
N6 C5 1_555 1_555
N7 C3 1_555 1_555
N8 C1 1_555 1_555
C1 H1 1_555 1_555
C2 C1 1_555 1_555
H2 C2 1_555 1_555
C3 C2 1_555 1_555
H3 C3 1_555 1_555
C4 N7 1_555 1_555
C5 S1 1_555 1_555
C6 N5 1_555 1_555
H4 C6 1_555 1_555
C7 C6 1_555 1_555
H5 C7 1_555 1_555
C8 N6 1_555 1_555
H6 C8 1_555 1_555
C9 H7 1_555 1_555
C10 C9 1_555 1_555
H8 C10 1_555 1_555
C11 C10 1_555 1_555
H9 C11 1_555 1_555
C12 N3 1_555 1_555
C13 S2 1_555 1_555
C14 N2 1_555 1_555
H10 C14 1_555 1_555
C15 C14 1_555 1_555
H11 C15 1_555 1_555
C16 N1 1_555 1_555
H12 C16 1_555 1_555
C17 C18 1_555 1_555
C18 F1 1_555 1_555
F2 C18 1_555 1_555
F3 C18 1_555 1_555
O1 C17 1_555 1_555
O2 Ag2 1_555 1_555
O3 C20 1_555 1_555
O4 C20 1_555 1_555
C19 C20 1_555 1_555
F4 C19 1_555 1_555
F5 C19 1_555 1_555
F6 C19 1_555 1_555
O5 H13 1_555 1_555
H14 O5 1_555 1_555
Ag1A N3 1_555 1_555
Ag1A_2 N8 1_555 1_555
Ag2_2 N6 1_555 1_555
N3A Ag1 1_555 1_555
N6_2 Ag2 1_555 1_555
N8A Ag1 1_555 1_555
N4 C12 1_555 1_555
N5 C5 1_555 1_555
N8 C4 1_555 1_555
C7 C8 1_555 1_555
C15 C16 1_555 1_555
C17 O2 1_555 1_555

#END
