
#######################################################################
#
#                 Cambridge Crystallographic Data Centre
#                                CCDC 
#
#######################################################################
#
# If this CIF has been generated from an entry in the Cambridge 
# Structural Database, then it will include bibliographic, chemical, 
# crystal, experimental, refinement or atomic coordinate data resulting 
# from the CCDC's data processing and validation procedures.
#
#######################################################################

data_YASMIQ
_symmetry_cell_setting           monoclinic
_symmetry_space_group_name_H-M   'P 21/n'
_symmetry_Int_Tables_number      14
_space_group_name_Hall           '-P 2yn'
loop_
_symmetry_equiv_pos_site_id
_symmetry_equiv_pos_as_xyz
1 x,y,z
2 1/2-x,1/2+y,1/2-z
3 -x,-y,-z
4 1/2+x,1/2-y,1/2+z
_cell_length_a                   11.186(2)
_cell_length_b                   11.898(2)
_cell_length_c                   16.009(3)
_cell_angle_alpha                90
_cell_angle_beta                 109.868(2)
_cell_angle_gamma                90
_cell_volume                     2003.83
loop_
_atom_site_label
_atom_site_type_symbol
_atom_site_fract_x
_atom_site_fract_y
_atom_site_fract_z
C1 C 1.0063(4) 0.1259(4) 0.9246(2)
C2 C 1.0330(5) 0.0086(4) 0.9016(3)
H1 H 0.9597 -0.0382 0.8958
H2 H 1.1044 -0.0214 0.9498
C3 C 1.0630(4) 0.0032(4) 0.8158(3)
H3 H 1.1385 0.0477 0.8229
H4 H 1.0822 -0.0741 0.8056
C4 C 0.9579(4) 0.0443(4) 0.7360(3)
H5 H 0.9502 0.1250 0.7411
H6 H 0.8789 0.0106 0.7357
C5 C 0.9755(5) 0.0187(5) 0.6471(3)
H7 H 1.0503 0.0579 0.6446
H8 H 0.9898 -0.0612 0.6434
C6 C 0.8617(5) 0.0537(5) 0.5686(3)
H9 H 0.8468 0.1333 0.5738
H10 H 0.8820 0.0432 0.5148
C7 C 0.7414(4) -0.0086(4) 0.5589(2)
C8 C 1.0935(4) 0.3705(4) 0.8044(3)
H11 H 1.1679 0.3674 0.8534
C9 C 1.1034(4) 0.3628(4) 0.7209(3)
H12 H 1.1829 0.3542 0.7152
C10 C 0.9953(4) 0.3679(3) 0.6451(2)
C11 C 0.8805(4) 0.3829(4) 0.6610(2)
H13 H 0.8047 0.3887 0.6134
C12 C 0.8795(4) 0.3890(4) 0.7464(3)
H14 H 0.8015 0.3987 0.7543
C13 C 0.9992(4) 0.3552(3) 0.5545(3)
C14 C 1.1099(4) 0.3666(3) 0.5336(3)
H15 H 1.1859 0.3827 0.5788
C15 C 1.1102(4) 0.3549(3) 0.4481(3)
H16 H 1.1862 0.3623 0.4370
C16 C 0.9983(4) 0.3321(3) 0.3777(3)
C17 C 0.8883(4) 0.3191(4) 0.3989(2)
H17 H 0.8125 0.3024 0.3537
C18 C 0.8878(4) 0.3300(3) 0.4842(3)
H18 H 0.8121 0.3205 0.4954
C19 C 0.8751(4) 0.3329(3) 0.1281(3)
H19 H 0.7969 0.3407 0.0830
C20 C 0.8785(4) 0.3382(3) 0.2146(3)
H20 H 0.8039 0.3510 0.2266
C21 C 0.9930(4) 0.3247(3) 0.2846(2)
C22 C 1.1005(4) 0.3061(4) 0.2608(2)
H21 H 1.1795 0.2951 0.3044
C23 C 1.0885(4) 0.3041(4) 0.1712(3)
H22 H 1.1614 0.2933 0.1567
Cd1 Cd 0.96733(2) 0.34459(2) 0.958736(15)
N1 N 0.9831(3) 0.3820(3) 0.8188(2)
N2 N 0.9779(3) 0.3170(3) 0.1052(2)
O1 O 0.8943(3) 0.1604(2) 0.9037(2)
O2 O 1.0984(3) 0.1885(3) 0.9655(2)
O3 O 0.7468(3) -0.1051(3) 0.5891(2)
O4 O 0.6358(3) 0.0340(3) 0.5174(2)
Cd1_2 Cd 0.96733(2) 0.34459(2) -0.041264(15)
Cd1A Cd 0.53267(2) -0.15541(2) 0.541264(15)
Cd1C Cd 0.46733(2) 0.15541(2) 0.458736(15)
N2_2 N 0.9779(3) 0.3170(3) 1.1052(2)
O3A O 0.7532(3) 0.3949(3) 0.9109(2)
O4A O 0.8642(3) 0.5340(3) 0.9826(2)
O4C O 1.1358(3) 0.4660(3) 1.0174(2)
loop_
_geom_bond_atom_site_label_1
_geom_bond_atom_site_label_2
_geom_bond_site_symmetry_1
_geom_bond_site_symmetry_2
C1 C2 1_555 1_555
C2 H1 1_555 1_555
H2 C2 1_555 1_555
C3 C2 1_555 1_555
H3 C3 1_555 1_555
H4 C3 1_555 1_555
C4 C3 1_555 1_555
H5 C4 1_555 1_555
H6 C4 1_555 1_555
C5 C4 1_555 1_555
H7 C5 1_555 1_555
H8 C5 1_555 1_555
C6 C5 1_555 1_555
H9 C6 1_555 1_555
H10 C6 1_555 1_555
C7 C6 1_555 1_555
C8 H11 1_555 1_555
C9 C8 1_555 1_555
H12 C9 1_555 1_555
C10 C9 1_555 1_555
C11 C10 1_555 1_555
H13 C11 1_555 1_555
C12 C11 1_555 1_555
H14 C12 1_555 1_555
C13 C10 1_555 1_555
C14 C13 1_555 1_555
H15 C14 1_555 1_555
C15 C14 1_555 1_555
H16 C15 1_555 1_555
C16 C15 1_555 1_555
C17 C16 1_555 1_555
H17 C17 1_555 1_555
C18 C13 1_555 1_555
H18 C18 1_555 1_555
C19 H19 1_555 1_555
C20 C19 1_555 1_555
H20 C20 1_555 1_555
C21 C16 1_555 1_555
C22 C21 1_555 1_555
H21 C22 1_555 1_555
C23 C22 1_555 1_555
H22 C23 1_555 1_555
Cd1 N1 1_555 1_555
N1 C8 1_555 1_555
N2 C19 1_555 1_555
O1 C1 1_555 1_555
O2 C1 1_555 1_555
O3 C7 1_555 1_555
O4 C7 1_555 1_555
Cd1_2 N2 1_555 1_555
Cd1A O3 1_555 1_555
Cd1C O4 1_555 1_555
N2_2 Cd1 1_555 1_555
O3A Cd1 1_555 1_555
O4A Cd1 1_555 1_555
O4C Cd1 1_555 1_555
C12 N1 1_555 1_555
C17 C18 1_555 1_555
C20 C21 1_555 1_555
C23 N2 1_555 1_555
Cd1 O1 1_555 1_555
Cd1 O2 1_555 1_555
O4 Cd1A 1_555 1_555

#END
