
#######################################################################
#
#                 Cambridge Crystallographic Data Centre
#                                CCDC 
#
#######################################################################
#
# If this CIF has been generated from an entry in the Cambridge 
# Structural Database, then it will include bibliographic, chemical, 
# crystal, experimental, refinement or atomic coordinate data resulting 
# from the CCDC's data processing and validation procedures.
#
#######################################################################

data_YASMOW
_symmetry_cell_setting           triclinic
_symmetry_space_group_name_H-M   'P -1'
_symmetry_Int_Tables_number      2
_space_group_name_Hall           '-P 1'
loop_
_symmetry_equiv_pos_site_id
_symmetry_equiv_pos_as_xyz
1 x,y,z
2 -x,-y,-z
_cell_length_a                   8.9897(18)
_cell_length_b                   12.395(3)
_cell_length_c                   12.752(3)
_cell_angle_alpha                100.836(3)
_cell_angle_beta                 95.330(3)
_cell_angle_gamma                111.089(3)
_cell_volume                     1281.98
loop_
_atom_site_label
_atom_site_type_symbol
_atom_site_fract_x
_atom_site_fract_y
_atom_site_fract_z
C1 C 0.2967(10) 0.2945(7) 0.7368(6)
H1 H 0.3712 0.2591 0.7440
C2 C 0.2960(9) 0.3821(6) 0.8223(6)
H2 H 0.3698 0.4029 0.8860
C3 C 0.1933(8) 0.4382(6) 0.8170(5)
C4 C 0.0836(10) 0.4038(7) 0.7199(6)
H3 H 0.0095 0.4390 0.7095
C5 C 0.0918(10) 0.3128(7) 0.6388(6)
H4 H 0.0173 0.2881 0.5749
C6 C 0.1958(9) 0.5324(6) 0.9092(6)
C7 C 0.2351(10) 0.5281(7) 1.0157(6)
H5 H 0.2594 0.4648 1.0296
C8 C 0.2389(10) 0.6163(7) 1.1013(6)
H6 H 0.2693 0.6130 1.1720
C9 C 0.1975(8) 0.7109(6) 1.0831(5)
C10 C 0.1561(11) 0.7128(7) 0.9769(6)
H7 H 0.1291 0.7750 0.9625
C11 C 0.1535(9) 0.6253(7) 0.8911(6)
H8 H 0.1232 0.6287 0.8204
C12 C 0.2024(8) 0.8062(6) 1.1755(6)
C13 C 0.3016(9) 0.8291(7) 1.2777(6)
H9 H 0.3645 0.7856 1.2890
C14 C 0.2995(10) 0.9193(7) 1.3593(6)
H10 H 0.3630 0.9343 1.4263
C15 C 0.1244(11) 0.9631(8) 1.2534(6)
H11 H 0.0643 1.0089 1.2436
C16 C 0.1167(9) 0.8740(7) 1.1673(6)
H12 H 0.0503 0.8607 1.1019
C17 C 0.2124(9) -0.0298(7) 0.6262(6)
C18 C 0.2203(15) -0.1086(8) 0.6989(7)
H13 H 0.2621 -0.1653 0.6635
H14 H 0.1111 -0.1533 0.7084
C19 C 0.3238(12) -0.0454(9) 0.8097(7)
H15 H 0.3321 -0.1048 0.8472
H16 H 0.4320 0.0017 0.8003
C20 C 0.2623(12) 0.0341(9) 0.8795(7)
H17 H 0.1533 -0.0134 0.8873
H18 H 0.2546 0.0931 0.8415
C21 C 0.3587(14) 0.0982(10) 0.9906(7)
H19 H 0.3515 0.0396 1.0329
H20 H 0.4713 0.1353 0.9839
C22 C 0.3106(15) 0.1915(10) 1.0530(7)
H21 H 0.1963 0.1560 1.0564
H22 H 0.3250 0.2534 1.0138
C23 C 0.4044(12) 0.2484(10) 1.1676(7)
H23 H 0.5193 0.2739 1.1656
H24 H 0.3773 0.1892 1.2103
C24 C 0.3702(13) 0.3549(9) 1.2233(7)
H25 H 0.2541 0.3328 1.2161
H26 H 0.4127 0.4192 1.1873
C25 C 0.4459(12) 0.3989(8) 1.3434(7)
H27 H 0.5613 0.4170 1.3513
H28 H 0.4311 0.4715 1.3738
C26 C 0.3694(10) 0.3061(7) 1.4046(6)
Cd1 Cd 0.20116(6) 0.12409(5) 0.49509(4)
N1 N 0.1910(7) 0.2604(5) 0.6436(5)
N2 N 0.2149(8) 0.9859(5) 1.3500(5)
O1 O 0.3347(7) 0.0577(5) 0.6216(4)
O2 O 0.0791(7) -0.0507(5) 0.5680(4)
O3 O 0.4553(7) 0.2734(5) 1.4644(5)
O4 O 0.2191(7) 0.2600(5) 1.3919(4)
Cd1_2 Cd 0.20116(6) 1.12409(5) 1.49509(4)
Cd1A Cd -0.20116(6) -0.12409(5) 0.50491(4)
Cd1_3 Cd 0.20116(6) 0.12409(5) 1.49509(4)
N2_2 N 0.2149(8) -0.0141(5) 0.3500(5)
O2A O -0.0791(7) 0.0507(5) 0.4320(4)
O3_2 O 0.4553(7) 0.2734(5) 0.4644(5)
O4_2 O 0.2191(7) 0.2600(5) 0.3919(4)
O5 O 0.7951(8) 0.3668(7) 0.5012(7)
H29 H 0.6958 0.3263 0.5004
H30 H 0.8373 0.3220 0.4681
O6 O 0.0422(9) 0.4037(6) 0.3736(5)
H31 H 0.0707 0.3524 0.3959
H32 H 0.1219 0.4526 0.3539
loop_
_geom_bond_atom_site_label_1
_geom_bond_atom_site_label_2
_geom_bond_site_symmetry_1
_geom_bond_site_symmetry_2
C1 H1 1_555 1_555
C2 C1 1_555 1_555
H2 C2 1_555 1_555
C3 C2 1_555 1_555
C4 C3 1_555 1_555
H3 C4 1_555 1_555
C5 C4 1_555 1_555
H4 C5 1_555 1_555
C6 C3 1_555 1_555
C7 C6 1_555 1_555
H5 C7 1_555 1_555
C8 C7 1_555 1_555
H6 C8 1_555 1_555
C9 C8 1_555 1_555
C10 C9 1_555 1_555
H7 C10 1_555 1_555
C11 C6 1_555 1_555
H8 C11 1_555 1_555
C12 C9 1_555 1_555
C13 C12 1_555 1_555
H9 C13 1_555 1_555
C14 C13 1_555 1_555
H10 C14 1_555 1_555
C15 H11 1_555 1_555
C16 C12 1_555 1_555
H12 C16 1_555 1_555
C17 C18 1_555 1_555
C18 H13 1_555 1_555
H14 C18 1_555 1_555
C19 C18 1_555 1_555
H15 C19 1_555 1_555
H16 C19 1_555 1_555
C20 C19 1_555 1_555
H17 C20 1_555 1_555
H18 C20 1_555 1_555
C21 C20 1_555 1_555
H19 C21 1_555 1_555
H20 C21 1_555 1_555
C22 C21 1_555 1_555
H21 C22 1_555 1_555
H22 C22 1_555 1_555
C23 C22 1_555 1_555
H23 C23 1_555 1_555
H24 C23 1_555 1_555
C24 C23 1_555 1_555
H25 C24 1_555 1_555
H26 C24 1_555 1_555
C25 C24 1_555 1_555
H27 C25 1_555 1_555
H28 C25 1_555 1_555
C26 C25 1_555 1_555
Cd1 N1 1_555 1_555
N1 C1 1_555 1_555
N2 C14 1_555 1_555
O1 C17 1_555 1_555
O2 C17 1_555 1_555
O3 C26 1_555 1_555
O4 C26 1_555 1_555
O5 H29 1_555 1_555
H30 O5 1_555 1_555
O6 H31 1_555 1_555
H32 O6 1_555 1_555
Cd1_2 N2 1_555 1_555
Cd1A O2 1_555 1_555
Cd1_3 O3 1_555 1_555
N2_2 Cd1 1_555 1_555
O2A Cd1 1_555 1_555
O3_2 Cd1 1_555 1_555
O4_2 Cd1 1_555 1_555
C5 N1 1_555 1_555
C10 C11 1_555 1_555
C15 C16 1_555 1_555
C15 N2 1_555 1_555
Cd1 O1 1_555 1_555
Cd1 O2 1_555 1_555
O4 Cd1_3 1_555 1_555
Cd1A O2A 1_555 1_555

#END
