
#######################################################################
#
#                 Cambridge Crystallographic Data Centre
#                                CCDC 
#
#######################################################################
#
# If this CIF has been generated from an entry in the Cambridge 
# Structural Database, then it will include bibliographic, chemical, 
# crystal, experimental, refinement or atomic coordinate data resulting 
# from the CCDC's data processing and validation procedures.
#
#######################################################################

data_YASMUB
_symmetry_cell_setting           monoclinic
_symmetry_space_group_name_H-M   'P 21/c'
_symmetry_Int_Tables_number      14
_space_group_name_Hall           '-P 2ybc'
loop_
_symmetry_equiv_pos_site_id
_symmetry_equiv_pos_as_xyz
1 x,y,z
2 -x,1/2+y,1/2-z
3 -x,-y,-z
4 x,1/2-y,1/2+z
_cell_length_a                   18.1668(12)
_cell_length_b                   13.6273(10)
_cell_length_c                   9.2692(7)
_cell_angle_alpha                90
_cell_angle_beta                 102.998(3)
_cell_angle_gamma                90
_cell_volume                     2235.93
loop_
_atom_site_label
_atom_site_type_symbol
_atom_site_fract_x
_atom_site_fract_y
_atom_site_fract_z
Cd1 Cd 0.246375(13) 0.88862(2) 0.22610(3)
O1 O 0.28542(18) 1.0281(2) 0.1002(4)
O2 O 0.27566(18) 0.8925(2) -0.0260(4)
O3 O 0.22066(18) 0.8988(2) 0.4661(3)
O4 O 0.19881(18) 1.0415(2) 0.3567(3)
O5 O 0.2493(3) 0.7174(3) 0.2193(4)
H1 H 0.257(3) 0.673(5) 0.293(6)
H2 H 0.241(3) 0.684(4) 0.159(6)
N1 N 0.6044(3) 0.8491(5) 0.4997(6)
H7 H 0.620(4) 0.865(5) 0.587(8)
H8 H 0.628(3) 0.817(4) 0.457(7)
N2 N 0.37255(19) 0.8706(3) 0.3327(4)
N3 N 0.12142(19) 0.8709(2) 0.1194(4)
N4 N -0.1115(2) 0.8605(4) -0.0467(6)
H9 H -0.128(3) 0.888(3) -0.126(7)
H10 H -0.137(3) 0.835(4) 0.025(6)
C1 C 0.4039(3) 0.8931(4) 0.4729(5)
H11 H 0.371(3) 0.919(4) 0.521(6)
C2 C 0.4798(3) 0.8870(4) 0.5325(6)
H12 H 0.496(4) 0.916(5) 0.629(8)
C3 C 0.5285(2) 0.8540(4) 0.4464(5)
C4 C 0.4954(2) 0.8293(3) 0.3006(4)
H13 H 0.527(2) 0.811(3) 0.237(5)
C5 C 0.4196(2) 0.8374(3) 0.2509(5)
H14 H 0.395(3) 0.814(4) 0.158(6)
C6 C 0.0899(3) 0.8946(3) -0.0212(5)
H15 H 0.124(3) 0.916(4) -0.077(7)
C7 C 0.0133(3) 0.8916(3) -0.0813(5)
H16 H -0.004(3) 0.924(4) -0.179(6)
C8 C -0.0360(2) 0.8630(3) 0.0060(5)
C9 C -0.0034(2) 0.8360(3) 0.1506(5)
H17 H -0.035(2) 0.816(3) 0.209(5)
C10 C 0.0734(2) 0.8418(3) 0.2014(4)
H18 H 0.096(2) 0.816(3) 0.290(4)
C11 C 0.29581(18) 0.9796(3) -0.0079(4)
C12 C 0.3380(2) 1.0270(3) -0.1144(4)
H19 H 0.327(3) 1.104(3) -0.118(6)
H20 H 0.321(2) 0.995(3) -0.221(5)
C13 C 0.42261(18) 1.0132(3) -0.0560(4)
C14 C 0.4643(2) 1.0835(3) 0.0360(5)
H21 H 0.438(2) 1.145(3) 0.062(4)
C15 C 0.4583(2) 0.9310(3) -0.0902(4)
H22 H 0.431(3) 0.884(3) -0.138(6)
C16 C 0.19790(18) 0.9855(3) 0.4623(4)
C17 C 0.1642(2) 1.0220(3) 0.5897(4)
H23 H 0.179(3) 1.095(3) 0.607(6)
H24 H 0.184(3) 0.981(4) 0.684(6)
C18 C 0.07845(18) 1.0109(3) 0.5448(3)
C19 C 0.0331(2) 1.0905(3) 0.4921(5)
H25 H 0.061(3) 1.149(4) 0.489(5)
C20 C 0.0449(2) 0.9202(3) 0.5525(4)
H26 H 0.083(2) 0.865(3) 0.590(4)
Cd1B Cd 0.753625(13) 1.11138(2) -0.22610(3)
Cd1B_2 Cd -0.246375(13) 1.11138(2) 0.77390(3)
O1B O 0.71458(18) 0.9719(2) -0.1002(4)
O2B O 0.72434(18) 1.1075(2) 0.0260(4)
O3B O -0.22066(18) 1.1012(2) 0.5339(3)
O3B_2 O 0.77934(18) 1.1012(2) -0.4661(3)
O4B O -0.19881(18) 0.9585(2) 0.6433(3)
O4B_2 O 0.80119(18) 0.9585(2) -0.3567(3)
O5B O 0.7507(3) 1.2826(3) -0.2193(4)
H1B H 0.743(3) 1.327(5) -0.293(6)
H2B H 0.759(3) 1.316(4) -0.159(6)
N1B N 0.3956(3) 1.1509(5) -0.4997(6)
H7B H 0.380(4) 1.135(5) -0.587(8)
H8B H 0.372(3) 1.183(4) -0.457(7)
N2B N 0.62745(19) 1.1294(3) -0.3327(4)
N3B N 0.87858(19) 1.1291(2) -0.1194(4)
N4B N 1.1115(2) 1.1395(4) 0.0467(6)
H9B H 1.128(3) 1.112(3) 0.126(7)
H10B H 1.137(3) 1.165(4) -0.025(6)
C1B C 0.5961(3) 1.1069(4) -0.4729(5)
H11B H 0.629(3) 1.081(4) -0.521(6)
C2B C 0.5202(3) 1.1130(4) -0.5325(6)
H12B H 0.504(4) 1.084(5) -0.629(8)
C3B C 0.4715(2) 1.1460(4) -0.4464(5)
C4B C 0.5046(2) 1.1707(3) -0.3006(4)
H13B H 0.473(2) 1.189(3) -0.237(5)
C5B C 0.5804(2) 1.1626(3) -0.2509(5)
H14B H 0.605(3) 1.186(4) -0.158(6)
C6B C 0.9101(3) 1.1054(3) 0.0212(5)
H15B H 0.876(3) 1.084(4) 0.077(7)
C7B C 0.9867(3) 1.1084(3) 0.0813(5)
H16B H 1.004(3) 1.076(4) 0.179(6)
C8B C 1.0360(2) 1.1370(3) -0.0060(5)
C9B C 1.0034(2) 1.1640(3) -0.1506(5)
H17B H 1.035(2) 1.184(3) -0.209(5)
C10B C 0.9266(2) 1.1582(3) -0.2014(4)
H18B H 0.904(2) 1.184(3) -0.290(4)
C11B C 0.70419(18) 1.0204(3) 0.0079(4)
C12B C 0.6620(2) 0.9730(3) 0.1144(4)
H19B H 0.673(3) 0.896(3) 0.118(6)
H20B H 0.679(2) 1.005(3) 0.221(5)
C13B C 0.57739(18) 0.9868(3) 0.0560(4)
C14B C 0.5357(2) 0.9165(3) -0.0360(5)
H21B H 0.562(2) 0.855(3) -0.062(4)
C15B C 0.5417(2) 1.0690(3) 0.0902(4)
H22B H 0.569(3) 1.116(3) 0.138(6)
C16B C -0.19790(18) 1.0145(3) 0.5377(4)
C17B C -0.1642(2) 0.9780(3) 0.4103(4)
H23B H -0.179(3) 0.905(3) 0.393(6)
H24B H -0.184(3) 1.019(4) 0.316(6)
C18B C -0.07845(18) 0.9891(3) 0.4552(3)
C19B C -0.0331(2) 0.9095(3) 0.5079(5)
H25B H -0.061(3) 0.851(4) 0.511(5)
C20B C -0.0449(2) 1.0798(3) 0.4475(4)
H26B H -0.083(2) 1.135(3) 0.410(4)
O6 O 0.3027(2) 1.2222(3) 0.1582(4)
H3 H 0.281(2) 1.237(4) 0.223(4)
H4 H 0.310(4) 1.1630(13) 0.156(9)
O7 O 0.2138(2) 1.2438(3) 0.3700(4)
H5 H 0.190(4) 1.182(4) 0.353(7)
H6 H 0.238(2) 1.253(4) 0.455(2)
loop_
_geom_bond_atom_site_label_1
_geom_bond_atom_site_label_2
_geom_bond_site_symmetry_1
_geom_bond_site_symmetry_2
Cd1 O1 1_555 1_555
O1 C11 1_555 1_555
O2 Cd1 1_555 1_555
O3 Cd1 1_555 1_555
O4 Cd1 1_555 1_555
O5 Cd1 1_555 1_555
H1 O5 1_555 1_555
H2 O5 1_555 1_555
O6 H3 1_555 1_555
H4 O6 1_555 1_555
O7 H5 1_555 1_555
H6 O7 1_555 1_555
N1 H7 1_555 1_555
H8 N1 1_555 1_555
N2 Cd1 1_555 1_555
N3 Cd1 1_555 1_555
N4 H9 1_555 1_555
H10 N4 1_555 1_555
C1 N2 1_555 1_555
H11 C1 1_555 1_555
C2 C1 1_555 1_555
H12 C2 1_555 1_555
C3 N1 1_555 1_555
C4 C3 1_555 1_555
H13 C4 1_555 1_555
C5 N2 1_555 1_555
H14 C5 1_555 1_555
C6 N3 1_555 1_555
H15 C6 1_555 1_555
C7 C6 1_555 1_555
H16 C7 1_555 1_555
C8 N4 1_555 1_555
C9 C8 1_555 1_555
H17 C9 1_555 1_555
C10 N3 1_555 1_555
H18 C10 1_555 1_555
C11 O2 1_555 1_555
C12 C11 1_555 1_555
H19 C12 1_555 1_555
H20 C12 1_555 1_555
C13 C12 1_555 1_555
C14 C13 1_555 1_555
H21 C14 1_555 1_555
C15 C13 1_555 1_555
H22 C15 1_555 1_555
C16 O3 1_555 1_555
C17 C16 1_555 1_555
H23 C17 1_555 1_555
H24 C17 1_555 1_555
C18 C17 1_555 1_555
C19 C18 1_555 1_555
H25 C19 1_555 1_555
C20 C18 1_555 1_555
H26 C20 1_555 1_555
Cd1B O1B 1_555 1_555
Cd1B_2 O3B 1_555 1_555
O1B C11B 1_555 1_555
O2B Cd1B 1_555 1_555
O3B C16B 1_555 1_555
O3B_2 Cd1B 1_555 1_555
O4B Cd1B_2 1_555 1_555
O4B_2 Cd1B 1_555 1_555
O5B Cd1B 1_555 1_555
H1B O5B 1_555 1_555
H2B O5B 1_555 1_555
N1B H7B 1_555 1_555
H8B N1B 1_555 1_555
N2B Cd1B 1_555 1_555
N3B Cd1B 1_555 1_555
N4B H9B 1_555 1_555
H10B N4B 1_555 1_555
C1B N2B 1_555 1_555
H11B C1B 1_555 1_555
C2B C1B 1_555 1_555
H12B C2B 1_555 1_555
C3B N1B 1_555 1_555
C4B C3B 1_555 1_555
H13B C4B 1_555 1_555
C5B N2B 1_555 1_555
H14B C5B 1_555 1_555
C6B N3B 1_555 1_555
H15B C6B 1_555 1_555
C7B C6B 1_555 1_555
H16B C7B 1_555 1_555
C8B N4B 1_555 1_555
C9B C8B 1_555 1_555
H17B C9B 1_555 1_555
C10B N3B 1_555 1_555
H18B C10B 1_555 1_555
C11B O2B 1_555 1_555
C12B C11B 1_555 1_555
H19B C12B 1_555 1_555
H20B C12B 1_555 1_555
C13B C12B 1_555 1_555
C14B C15 1_555 1_555
H21B C14B 1_555 1_555
C15B C14 1_555 1_555
H22B C15B 1_555 1_555
C16B O4B 1_555 1_555
C17B C16B 1_555 1_555
H23B C17B 1_555 1_555
H24B C17B 1_555 1_555
C18B C17B 1_555 1_555
C19B C20 1_555 1_555
H25B C19B 1_555 1_555
C20B C19 1_555 1_555
H26B C20B 1_555 1_555
O4 C16 1_555 1_555
C2 C3 1_555 1_555
C4 C5 1_555 1_555
C7 C8 1_555 1_555
C9 C10 1_555 1_555
C2B C3B 1_555 1_555
C4B C5B 1_555 1_555
C7B C8B 1_555 1_555
C9B C10B 1_555 1_555
C13B C14B 1_555 1_555
C13B C15B 1_555 1_555
C18B C19B 1_555 1_555
C18B C20B 1_555 1_555

#END
