
#######################################################################
#
#                 Cambridge Crystallographic Data Centre
#                                CCDC 
#
#######################################################################
#
# If this CIF has been generated from an entry in the Cambridge 
# Structural Database, then it will include bibliographic, chemical, 
# crystal, experimental, refinement or atomic coordinate data resulting 
# from the CCDC's data processing and validation procedures.
#
#######################################################################

data_YASNAI
_symmetry_cell_setting           orthorhombic
_symmetry_space_group_name_H-M   'P n a 21'
_symmetry_Int_Tables_number      33
_space_group_name_Hall           'P 2c -2n'
loop_
_symmetry_equiv_pos_site_id
_symmetry_equiv_pos_as_xyz
1 x,y,z
2 -x,-y,1/2+z
3 1/2+x,1/2-y,z
4 1/2-x,1/2+y,1/2+z
_cell_length_a                   11.930(2)
_cell_length_b                   11.931(3)
_cell_length_c                   11.225(2)
_cell_angle_alpha                90
_cell_angle_beta                 90
_cell_angle_gamma                90
_cell_volume                     1597.73
loop_
_atom_site_label
_atom_site_type_symbol
_atom_site_fract_x
_atom_site_fract_y
_atom_site_fract_z
Co1 Co 0.52548(4) 0.09636(4) 0.76504(7)
O1 O 0.6456(2) -0.0035(2) 0.7474(3)
O2 O 0.6198(2) 0.2029(2) 0.6893(3)
N1 N 0.4254(2) -0.0269(3) 0.8354(3)
N2 N 0.4087(2) 0.2180(3) 0.7820(3)
N3 N 0.4395(3) 0.0439(3) 0.5849(3)
N4 N 0.4335(2) -0.0369(3) 0.5261(3)
N5 N 0.4268(3) -0.1167(3) 0.4637(4)
C1 C 0.5503(3) -0.1773(3) 0.7702(5)
C2 C 0.6414(3) -0.1144(3) 0.7354(3)
C3 C 0.7350(4) -0.1693(4) 0.6863(4)
H1 H 0.7980 -0.1284 0.6641
C4 C 0.7329(5) -0.2834(4) 0.6712(5)
H2 H 0.7946 -0.3190 0.6375
C5 C 0.6429(6) -0.3458(4) 0.7043(5)
H3 H 0.6429 -0.4230 0.6927
C6 C 0.5538(4) -0.2952(3) 0.7541(7)
H4 H 0.4931 -0.3384 0.7785
C7 C 0.4519(3) -0.1301(4) 0.8273(4)
H5 H 0.4025 -0.1809 0.8619
C8 C 0.3263(3) -0.0020(4) 0.9090(4)
H6 H 0.3504 0.0113 0.9903
H7 H 0.2775 -0.0671 0.9094
C9 C 0.2604(3) 0.0982(3) 0.8663(4)
H8 H 0.2396 0.0863 0.7837
H9 H 0.1919 0.1036 0.9123
C10 C 0.3228(3) 0.2075(4) 0.8759(4)
H10 H 0.2701 0.2692 0.8692
H11 H 0.3584 0.2123 0.9534
C11 C 0.4034(3) 0.3036(3) 0.7148(4)
H12 H 0.3400 0.3484 0.7224
C12 C 0.4856(3) 0.3386(3) 0.6282(4)
C13 C 0.5919(3) 0.2884(3) 0.6227(3)
C14 C 0.6726(3) 0.3365(4) 0.5465(4)
H13 H 0.7443 0.3060 0.5429
C15 C 0.6466(4) 0.4281(4) 0.4773(4)
H14 H 0.7009 0.4585 0.4274
C16 C 0.5400(4) 0.4761(5) 0.4809(5)
H15 H 0.5224 0.5370 0.4327
C17 C 0.4611(4) 0.4316(4) 0.5574(5)
H16 H 0.3903 0.4642 0.5618
Co1A Co 0.47452(4) -0.09636(4) 0.26504(7)
N5A N 0.5732(3) 0.1167(3) 0.9637(4)
loop_
_geom_bond_atom_site_label_1
_geom_bond_atom_site_label_2
_geom_bond_site_symmetry_1
_geom_bond_site_symmetry_2
Co1 O1 1_555 1_555
O1 C2 1_555 1_555
O2 Co1 1_555 1_555
N1 Co1 1_555 1_555
N2 Co1 1_555 1_555
N3 Co1 1_555 1_555
N4 N3 1_555 1_555
N5 N4 1_555 1_555
C1 C2 1_555 1_555
C2 C3 1_555 1_555
C3 H1 1_555 1_555
C4 C3 1_555 1_555
H2 C4 1_555 1_555
C5 C4 1_555 1_555
H3 C5 1_555 1_555
C6 C1 1_555 1_555
H4 C6 1_555 1_555
C7 N1 1_555 1_555
H5 C7 1_555 1_555
C8 N1 1_555 1_555
H6 C8 1_555 1_555
H7 C8 1_555 1_555
C9 C8 1_555 1_555
H8 C9 1_555 1_555
H9 C9 1_555 1_555
C10 N2 1_555 1_555
H10 C10 1_555 1_555
H11 C10 1_555 1_555
C11 N2 1_555 1_555
H12 C11 1_555 1_555
C12 C11 1_555 1_555
C13 O2 1_555 1_555
C14 C13 1_555 1_555
H13 C14 1_555 1_555
C15 C14 1_555 1_555
H14 C15 1_555 1_555
C16 C15 1_555 1_555
H15 C16 1_555 1_555
C17 C12 1_555 1_555
H16 C17 1_555 1_555
Co1A N5 1_555 1_555
N5A Co1 1_555 1_555
C1 C7 1_555 1_555
C5 C6 1_555 1_555
C9 C10 1_555 1_555
C12 C13 1_555 1_555
C16 C17 1_555 1_555

#END
