
#######################################################################
#
#                 Cambridge Crystallographic Data Centre
#                                CCDC 
#
#######################################################################
#
# If this CIF has been generated from an entry in the Cambridge 
# Structural Database, then it will include bibliographic, chemical, 
# crystal, experimental, refinement or atomic coordinate data resulting 
# from the CCDC's data processing and validation procedures.
#
#######################################################################

data_YASNEM
_symmetry_cell_setting           orthorhombic
_symmetry_space_group_name_H-M   'P n a 21'
_symmetry_Int_Tables_number      33
_space_group_name_Hall           'P 2c -2n'
loop_
_symmetry_equiv_pos_site_id
_symmetry_equiv_pos_as_xyz
1 x,y,z
2 -x,-y,1/2+z
3 1/2+x,1/2-y,z
4 1/2-x,1/2+y,1/2+z
_cell_length_a                   12.566(7)
_cell_length_b                   11.679(7)
_cell_length_c                   11.515(7)
_cell_angle_alpha                90
_cell_angle_beta                 90
_cell_angle_gamma                90
_cell_volume                     1689.92
loop_
_atom_site_label
_atom_site_type_symbol
_atom_site_fract_x
_atom_site_fract_y
_atom_site_fract_z
Co1 Co 0.51572(4) 0.10776(6) 0.76500(10)
S1 S 0.57463(11) 0.17706(12) 0.98694(13)
O1 O 0.6314(2) 0.0049(3) 0.7616(4)
O2 O 0.6081(2) 0.2101(3) 0.6869(4)
N1 N 0.4235(3) -0.0102(3) 0.8517(4)
N2 N 0.4034(3) 0.2344(3) 0.7722(5)
N3 N 0.5596(3) -0.0342(4) 1.1029(4)
C1 C 0.5410(4) -0.1702(4) 0.7988(4)
C2 C 0.6265(3) -0.1087(4) 0.7589(6)
C3 C 0.7153(4) -0.1692(5) 0.7138(5)
H1 H 0.7751 -0.1301 0.6877
C4 C 0.7113(5) -0.2880(5) 0.7093(6)
H2 H 0.7692 -0.3279 0.6794
C5 C 0.6245(5) -0.3479(5) 0.7475(6)
H3 H 0.6226 -0.4273 0.7419
C6 C 0.5427(5) -0.2905(5) 0.7931(6)
H4 H 0.4849 -0.3314 0.8219
C7 C 0.4472(4) -0.1181(4) 0.8511(5)
H5 H 0.3996 -0.1673 0.8876
C8 C 0.3307(4) 0.0226(4) 0.9197(5)
H6 H 0.3542 0.0521 0.9941
H7 H 0.2877 -0.0448 0.9342
C9 C 0.2622(4) 0.1129(4) 0.8599(5)
H8 H 0.2475 0.0885 0.7810
H9 H 0.1949 0.1191 0.9005
C10 C 0.3154(4) 0.2290(4) 0.8572(5)
H10 H 0.2628 0.2867 0.8378
H11 H 0.3429 0.2464 0.9339
C11 C 0.4026(4) 0.3206(4) 0.7042(5)
H12 H 0.3413 0.3652 0.7047
C12 C 0.4860(4) 0.3567(5) 0.6266(5)
C13 C 0.5863(4) 0.3021(4) 0.6239(5)
C14 C 0.6673(4) 0.3492(5) 0.5553(5)
H13 H 0.7338 0.3144 0.5531
C15 C 0.6486(5) 0.4479(5) 0.4905(6)
H14 H 0.7033 0.4779 0.4454
C16 C 0.5507(5) 0.5025(5) 0.4916(6)
H15 H 0.5395 0.5683 0.4477
C17 C 0.4702(5) 0.4571(5) 0.5592(6)
H16 H 0.4041 0.4931 0.5605
C18 C 0.5657(4) 0.0520(5) 1.0548(5)
Co1A Co 0.48428(4) -0.10776(6) 1.26500(10)
N3A N 0.4404(3) 0.0342(4) 0.6029(4)
loop_
_geom_bond_atom_site_label_1
_geom_bond_atom_site_label_2
_geom_bond_site_symmetry_1
_geom_bond_site_symmetry_2
Co1 S1 1_555 1_555
S1 C18 1_555 1_555
O1 Co1 1_555 1_555
O2 Co1 1_555 1_555
N1 Co1 1_555 1_555
N2 Co1 1_555 1_555
N3 C18 1_555 1_555
C1 C2 1_555 1_555
C2 O1 1_555 1_555
C3 C2 1_555 1_555
H1 C3 1_555 1_555
C4 C3 1_555 1_555
H2 C4 1_555 1_555
C5 C4 1_555 1_555
H3 C5 1_555 1_555
C6 C1 1_555 1_555
H4 C6 1_555 1_555
C7 N1 1_555 1_555
H5 C7 1_555 1_555
C8 N1 1_555 1_555
H6 C8 1_555 1_555
H7 C8 1_555 1_555
C9 C8 1_555 1_555
H8 C9 1_555 1_555
H9 C9 1_555 1_555
C10 N2 1_555 1_555
H10 C10 1_555 1_555
H11 C10 1_555 1_555
C11 N2 1_555 1_555
H12 C11 1_555 1_555
C12 C11 1_555 1_555
C13 O2 1_555 1_555
C14 C13 1_555 1_555
H13 C14 1_555 1_555
C15 C14 1_555 1_555
H14 C15 1_555 1_555
C16 C15 1_555 1_555
H15 C16 1_555 1_555
C17 C12 1_555 1_555
H16 C17 1_555 1_555
Co1A N3 1_555 1_555
N3A Co1 1_555 1_555
C1 C7 1_555 1_555
C5 C6 1_555 1_555
C9 C10 1_555 1_555
C12 C13 1_555 1_555
C16 C17 1_555 1_555

#END
