
#######################################################################
#
#                 Cambridge Crystallographic Data Centre
#                                CCDC 
#
#######################################################################
#
# If this CIF has been generated from an entry in the Cambridge 
# Structural Database, then it will include bibliographic, chemical, 
# crystal, experimental, refinement or atomic coordinate data resulting 
# from the CCDC's data processing and validation procedures.
#
#######################################################################

data_YASNIR
_symmetry_cell_setting           monoclinic
_symmetry_space_group_name_H-M   'P 21/c'
_symmetry_Int_Tables_number      14
_space_group_name_Hall           '-P 2ybc'
loop_
_symmetry_equiv_pos_site_id
_symmetry_equiv_pos_as_xyz
1 x,y,z
2 -x,1/2+y,1/2-z
3 -x,-y,-z
4 x,1/2-y,1/2+z
_cell_length_a                   11.6560(10)
_cell_length_b                   15.5098(14)
_cell_length_c                   12.8107(11)
_cell_angle_alpha                90
_cell_angle_beta                 108.723(2)
_cell_angle_gamma                90
_cell_volume                     2193.39
loop_
_atom_site_label
_atom_site_type_symbol
_atom_site_fract_x
_atom_site_fract_y
_atom_site_fract_z
C1 C 0.3761(3) 0.4984(3) 0.5971(4)
H1 H 0.3489 0.5407 0.5434
C2 C 0.4982(3) 0.4934(3) 0.6523(4)
H2 H 0.5506 0.5318 0.6348
C3 C 0.5436(2) 0.4334(2) 0.7319(2)
C4 C 0.3379(3) 0.3900(2) 0.6958(3)
H3 H 0.2832 0.3538 0.7134
C5 C 0.6760(2) 0.42539(19) 0.7883(2)
C6 C 0.7549(3) 0.4867(2) 0.7728(3)
H4 H 0.7240 0.5347 0.7294
C7 C 0.8783(3) 0.4782(2) 0.8202(3)
H5 H 0.9290 0.5202 0.8073
C8 C 0.9286(2) 0.40850(18) 0.8867(2)
C9 C 0.8493(3) 0.3471(2) 0.9030(3)
H6 H 0.8802 0.2993 0.9468
C10 C 0.7255(3) 0.3556(2) 0.8558(3)
H7 H 0.6745 0.3141 0.8693
C11 C 1.0620(2) 0.39921(18) 0.9346(2)
C12 C 1.1400(3) 0.4497(3) 0.9004(4)
H8 H 1.1093 0.4888 0.8431
C13 C 1.2631(3) 0.4428(3) 0.9501(4)
H9 H 1.3137 0.4787 0.9265
C14 C 1.2390(3) 0.3366(3) 1.0603(3)
H10 H 1.2730 0.2961 1.1150
C15 C 1.1146(3) 0.3399(2) 1.0158(3)
H11 H 1.0666 0.3024 1.0405
C16 C -0.0158(2) 0.38329(16) 0.3445(2)
C17 C -0.0903(2) 0.32652(16) 0.2537(2)
C18 C -0.2138(2) 0.34289(17) 0.2103(2)
H12 H -0.2468 0.3906 0.2341
C19 C -0.2880(2) 0.28836(17) 0.1315(2)
C20 C -0.2384(2) 0.21617(17) 0.0991(2)
H13 H -0.2885 0.1775 0.0496
C21 C -0.1145(2) 0.20100(16) 0.1398(2)
C22 C -0.0401(2) 0.25647(16) 0.2171(2)
H14 H 0.0430 0.2468 0.2441
C23 C -0.4209(2) 0.3049(2) 0.0806(3)
C24 C -0.0654(2) 0.12373(16) 0.0979(2)
C25 C 0.4591(3) 0.3818(2) 0.7546(3)
H15 H 0.4839 0.3408 0.8103
Co1 Co 0.11645(3) 0.45609(2) 0.51834(3)
H16 H -0.544(5) 0.375(4) 0.080(5)
N1 N 0.2953(2) 0.44676(15) 0.6156(2)
N2 N 1.3122(2) 0.38781(19) 1.0293(2)
O1 O 0.09502(16) 0.36747(12) 0.39140(16)
O2 O -0.06677(18) 0.44495(12) 0.37484(16)
O3 O 0.04405(15) 0.12640(12) 0.10218(15)
O4 O -0.13856(16) 0.06385(12) 0.05900(16)
O5 O -0.4832(2) 0.25692(19) 0.0115(3)
O6 O -0.4592(2) 0.37308(18) 0.1150(2)
Co1B Co -0.11645(3) 0.54391(2) 0.48166(3)
Co1C Co 0.11645(3) 0.04391(2) 0.01834(3)
Co1A Co -0.11645(3) -0.04391(2) -0.01834(3)
O2B O 0.06677(18) 0.55505(12) 0.62516(16)
O3C O 0.04405(15) 0.37360(12) 0.60218(15)
O4A O 0.13856(16) 0.56385(12) 0.44100(16)
O7 O 0.3052(3) 0.2991(3) 0.3426(2)
H17 H 0.2317 0.3025 0.3018
H18 H 0.3290 0.2471 0.3449
loop_
_geom_bond_atom_site_label_1
_geom_bond_atom_site_label_2
_geom_bond_site_symmetry_1
_geom_bond_site_symmetry_2
C1 H1 1_555 1_555
C2 C1 1_555 1_555
H2 C2 1_555 1_555
C3 C2 1_555 1_555
C4 H3 1_555 1_555
C5 C3 1_555 1_555
C6 C5 1_555 1_555
H4 C6 1_555 1_555
C7 C6 1_555 1_555
H5 C7 1_555 1_555
C8 C7 1_555 1_555
C9 C8 1_555 1_555
H6 C9 1_555 1_555
C10 C5 1_555 1_555
H7 C10 1_555 1_555
C11 C8 1_555 1_555
C12 C11 1_555 1_555
H8 C12 1_555 1_555
C13 C12 1_555 1_555
H9 C13 1_555 1_555
C14 H10 1_555 1_555
C15 C11 1_555 1_555
H11 C15 1_555 1_555
C16 C17 1_555 1_555
C17 C18 1_555 1_555
C18 H12 1_555 1_555
C19 C18 1_555 1_555
C20 C19 1_555 1_555
H13 C20 1_555 1_555
C21 C20 1_555 1_555
C22 C17 1_555 1_555
H14 C22 1_555 1_555
C23 C19 1_555 1_555
C24 C21 1_555 1_555
C25 C3 1_555 1_555
H15 C25 1_555 1_555
Co1 N1 1_555 1_555
H16 O6 1_555 1_555
N1 C1 1_555 1_555
N2 C13 1_555 1_555
O1 C16 1_555 1_555
O2 C16 1_555 1_555
O3 C24 1_555 1_555
O4 C24 1_555 1_555
O5 C23 1_555 1_555
O6 C23 1_555 1_555
O7 H17 1_555 1_555
H18 O7 1_555 1_555
Co1B O2 1_555 1_555
Co1C O3 1_555 1_555
Co1A O4 1_555 1_555
O2B Co1 1_555 1_555
O3C Co1 1_555 1_555
O4A Co1 1_555 1_555
C4 C25 1_555 1_555
C4 N1 1_555 1_555
C9 C10 1_555 1_555
C14 C15 1_555 1_555
C14 N2 1_555 1_555
C21 C22 1_555 1_555
Co1 O1 1_555 1_555
Co1 O2 1_555 1_555
Co1B O2B 1_555 1_555

#END
