
#######################################################################
#
#                 Cambridge Crystallographic Data Centre
#                                CCDC 
#
#######################################################################
#
# If this CIF has been generated from an entry in the Cambridge 
# Structural Database, then it will include bibliographic, chemical, 
# crystal, experimental, refinement or atomic coordinate data resulting 
# from the CCDC's data processing and validation procedures.
#
#######################################################################

data_YASSEQ
_symmetry_cell_setting           orthorhombic
_symmetry_space_group_name_H-M   'P 21 21 21'
_symmetry_Int_Tables_number      19
_space_group_name_Hall           'P 2ac 2ab'
loop_
_symmetry_equiv_pos_site_id
_symmetry_equiv_pos_as_xyz
1 x,y,z
2 1/2-x,-y,1/2+z
3 1/2+x,1/2-y,-z
4 -x,1/2+y,1/2-z
_cell_length_a                   15.0829(8)
_cell_length_b                   15.399(1)
_cell_length_c                   9.0576(4)
_cell_angle_alpha                90
_cell_angle_beta                 90
_cell_angle_gamma                90
_cell_volume                     2103.73
loop_
_atom_site_label
_atom_site_type_symbol
_atom_site_fract_x
_atom_site_fract_y
_atom_site_fract_z
Co1 Co 0.89747(3) 0.24951(6) 1.00222(9)
O1 O 0.9522(2) 0.1518(2) 1.1248(3)
O2 O 0.9460(2) 0.2738(2) 1.2519(4)
O3 O 0.8492(2) 0.1819(2) 0.8331(3)
O4 O 0.8425(3) 0.2949(3) 0.6759(4)
N1 N 1.1961(2) 0.0926(3) 1.8334(4)
N2 N 1.2841(2) 0.1874(3) 1.9392(4)
N3 N 0.5691(2) 0.0702(3) 0.1869(4)
N4 N 0.4970(2) 0.1674(3) 0.0535(4)
C1 C 1.1625(3) 0.0324(3) 1.7191(5)
C2 C 1.2728(3) 0.1364(3) 1.8234(5)
C3 C 1.2078(3) 0.1754(4) 2.0274(6)
C4 C 1.1531(3) 0.1171(4) 1.9608(5)
C5 C 0.5953(3) 0.0209(3) 0.3213(5)
C6 C 0.5060(3) 0.1319(3) 0.1874(5)
C7 C 0.5597(3) 0.1261(4) -0.0336(5)
C8 C 0.6040(3) 0.0667(3) 0.0470(5)
C9 C 1.1125(3) 0.0776(4) 1.5966(5)
C10 C 1.0754(4) 0.1583(4) 1.6111(6)
C11 C 1.0292(3) 0.1954(3) 1.4951(7)
C12 C 1.0183(3) 0.1528(4) 1.3649(5)
C13 C 1.0540(3) 0.0723(4) 1.3500(5)
C14 C 1.1003(4) 0.0342(3) 1.4636(5)
C15 C 0.9688(3) 0.1965(4) 1.2415(6)
C16 C 0.6592(4) 0.0710(4) 0.4194(6)
C17 C 0.6624(4) 0.0486(4) 0.5671(5)
C18 C 0.7188(3) 0.0959(4) 0.6599(5)
C19 C 0.7698(3) 0.1633(4) 0.6083(5)
C20 C 0.7661(3) 0.1834(4) 0.4608(5)
C21 C 0.7127(3) 0.1374(4) 0.3656(6)
C22 C 0.8251(3) 0.2185(4) 0.7116(6)
H1 H 1.3136 0.1325 1.7404
H2 H 1.1966 0.2058 2.1214
H3 H 1.0950 0.0967 1.9947
H4 H 0.4715 0.1501 0.2762
H5 H 0.5735 0.1424 -0.1353
H6 H 0.6504 0.0274 0.0119
H7 H 1.2105 -0.0011 1.6772
H8 H 1.1232 -0.0107 1.7662
H9 H 0.5442 0.0016 0.3721
H10 H 0.6257 -0.0332 0.2858
H11 H 1.0800 0.1896 1.7043
H12 H 1.0056 0.2560 1.5134
H13 H 1.0480 0.0409 1.2561
H14 H 1.1294 -0.0238 1.4514
H15 H 0.6283 -0.0009 0.6048
H16 H 0.7210 0.0826 0.7664
H17 H 0.8025 0.2314 0.4227
H18 H 0.7109 0.1536 0.2601
N2B N 0.7841(2) 0.3126(3) 1.0608(4)
N4B N 0.9970(2) 0.3326(3) 0.9465(4)
Co1B Co 1.39747(3) 0.25049(6) 1.99778(9)
Co1B_2 Co 0.39747(3) 0.25049(6) -0.00222(9)
O5 O 0.9078(2) 0.4062(2) 0.4641(3)
loop_
_geom_bond_atom_site_label_1
_geom_bond_atom_site_label_2
_geom_bond_site_symmetry_1
_geom_bond_site_symmetry_2
Co1 O1 1_555 1_555
O1 C15 1_555 1_555
O2 C15 1_555 1_555
O3 Co1 1_555 1_555
O4 C22 1_555 1_555
N1 C1 1_555 1_555
N2 C2 1_555 1_555
N3 C5 1_555 1_555
N4 C6 1_555 1_555
C1 C9 1_555 1_555
C2 N1 1_555 1_555
C3 N2 1_555 1_555
C4 N1 1_555 1_555
C5 C16 1_555 1_555
C6 N3 1_555 1_555
C7 N4 1_555 1_555
C8 N3 1_555 1_555
C9 C10 1_555 1_555
C10 C11 1_555 1_555
C11 C12 1_555 1_555
C12 C13 1_555 1_555
C13 C14 1_555 1_555
C14 C9 1_555 1_555
C15 C12 1_555 1_555
C16 C17 1_555 1_555
C17 C18 1_555 1_555
C18 C19 1_555 1_555
C19 C20 1_555 1_555
C20 C21 1_555 1_555
C21 C16 1_555 1_555
C22 O3 1_555 1_555
H1 C2 1_555 1_555
H2 C3 1_555 1_555
H3 C4 1_555 1_555
H4 C6 1_555 1_555
H5 C7 1_555 1_555
H6 C8 1_555 1_555
H7 C1 1_555 1_555
H8 C1 1_555 1_555
H9 C5 1_555 1_555
H10 C5 1_555 1_555
H11 C10 1_555 1_555
H12 C11 1_555 1_555
H13 C13 1_555 1_555
H14 C14 1_555 1_555
H15 C17 1_555 1_555
H16 C18 1_555 1_555
H17 C20 1_555 1_555
H18 C21 1_555 1_555
N2B Co1 1_555 1_555
N4B Co1 1_555 1_555
Co1B N2 1_555 1_555
Co1B_2 N4 1_555 1_555
C3 C4 1_555 1_555
C7 C8 1_555 1_555
C19 C22 1_555 1_555

#END
