
#######################################################################
#
#                 Cambridge Crystallographic Data Centre
#                                CCDC 
#
#######################################################################
#
# If this CIF has been generated from an entry in the Cambridge 
# Structural Database, then it will include bibliographic, chemical, 
# crystal, experimental, refinement or atomic coordinate data resulting 
# from the CCDC's data processing and validation procedures.
#
#######################################################################

data_YASYAT
_symmetry_cell_setting           monoclinic
_symmetry_space_group_name_H-M   'P 21'
_symmetry_Int_Tables_number      4
_space_group_name_Hall           'P 2yb'
loop_
_symmetry_equiv_pos_site_id
_symmetry_equiv_pos_as_xyz
1 x,y,z
2 -x,1/2+y,-z
_cell_length_a                   11.473(1)
_cell_length_b                   8.968(1)
_cell_length_c                   11.524(1)
_cell_angle_alpha                90
_cell_angle_beta                 97.43(2)
_cell_angle_gamma                90
_cell_volume                     1175.75
loop_
_atom_site_label
_atom_site_type_symbol
_atom_site_fract_x
_atom_site_fract_y
_atom_site_fract_z
C1 C 0.5059(4) 0.9789(6) 0.2441(5)
C2 C 0.5469(5) 0.8211(7) 0.2119(5)
C3 C 0.7652(4) 1.2234(5) -0.0008(4)
C4 C 0.7516(4) 1.0625(6) -0.0466(4)
C5 C 0.7692(4) 1.2212(6) 0.4502(4)
C6 C 0.7545(4) 1.0582(6) 0.4944(4)
C7 C 1.0504(4) 0.9725(6) 0.2538(4)
C8 C 1.0024(4) 0.8116(6) 0.2479(5)
Cd1 Cd 0.77567(3) 1.01888(3) 0.22669(3)
K1 K 1.26594(12) 1.2706(3) 0.26966(11)
K2 K 0.77800(14) 1.5190(2) 0.21922(14)
O1 O 0.5746(3) 1.0836(4) 0.2384(4)
O2 O 0.4024(3) 0.9861(4) 0.2725(4)
O3 O 0.4681(3) 0.7202(4) 0.2047(4)
O4 O 0.6505(3) 0.8026(4) 0.1974(4)
O5 O 0.7594(4) 0.9556(5) 0.4246(3)
O6 O 0.7846(3) 1.2410(5) 0.3485(3)
O7 O 0.7600(4) 0.9597(5) 0.0262(3)
O8 O 0.7809(4) 1.2434(5) 0.1060(3)
O9 O 0.8952(3) 0.7939(5) 0.2407(4)
O10 O 0.9782(3) 1.0758(4) 0.2498(4)
O11 O 0.7379(4) 1.0462(4) 0.6008(3)
O12 O 0.7620(3) 1.3220(4) 0.5275(3)
O13 O 1.1613(3) 0.9853(4) 0.2651(4)
O14 O 1.0809(3) 0.7103(4) 0.2542(4)
O15 O 0.7602(4) 1.3235(5) -0.0790(3)
O16 O 0.7304(4) 1.0491(4) -0.1567(3)
O17 O 0.4655(3) 0.7425(7) 0.4392(4)
O19 O 1.0531(5) 1.3156(7) 0.1162(7)
O20 O 1.3836(6) 1.2294(7) 0.0681(5)
O21 O 1.5058(5) 1.3473(7) 0.3378(4)
O25 O 0.9034(5) 1.5570(6) 0.0256(5)
U1 U 0.287012(12) 0.76387(4) 0.282797(11)
H3 H 0.5325 0.7129 0.4030
H4 H 0.4498 0.6691 0.4958
H7 H 1.0026 1.2315 0.1191
H8 H 1.0142 1.4040 0.1394
H9 H 1.4515 1.2930 0.0743
H10 H 1.3313 1.2551 -0.0007
H11 H 1.5107 1.4388 0.3813
H12 H 1.5448 1.3599 0.2692
H17 H 0.9282 1.6597 0.0227
H18 H 0.8523 1.5343 -0.0451
K1A K 0.73406(12) 0.7706(3) -0.26966(11)
K2_2 K 0.77800(14) 0.5190(2) 0.21922(14)
O9_2 O 0.8952(3) 1.7939(5) 0.2407(4)
O11A O 0.2621(4) 0.5462(4) 0.3992(3)
O12A O 0.2380(3) 0.8220(4) 0.4725(3)
O13_2 O 0.1613(3) 0.9853(4) 0.2651(4)
O14_2 O 0.0809(3) 0.7103(4) 0.2542(4)
O15A O 0.2398(4) 0.8235(5) 0.0790(3)
O16A O 1.2696(4) 1.5491(4) 0.1567(3)
O16A_2 O 0.2696(4) 0.5491(4) 0.1567(3)
U1A U 0.712988(12) 1.26387(4) 0.717203(11)
U1_2 U 1.287012(12) 0.76387(4) 0.282797(11)
U1A_2 U 0.712988(12) 1.26387(4) -0.282797(11)
O18 O 0.0802(5) 0.2350(6) 0.4454(5)
H5 H 0.0032 0.2493 0.4052
H6 H 0.0960 0.3074 0.5070
O22 O 0.5532(5) 0.4768(7) 0.0837(6)
H13 H 0.5054 0.5620 0.0924
H14 H 0.5644 0.4657 0.0026
O23 O 0.9772(5) 0.5115(7) 0.4026(6)
H15 H 0.9811 0.6036 0.4441
H16 H 1.0477 0.4972 0.3671
O24 O 0.6876(5) 0.6165(7) 0.4368(5)
H1 H 0.7026 0.7216 0.4481
H2 H 0.7277 0.5624 0.5018
loop_
_geom_bond_atom_site_label_1
_geom_bond_atom_site_label_2
_geom_bond_site_symmetry_1
_geom_bond_site_symmetry_2
C1 C2 1_555 1_555
C2 O3 1_555 1_555
C3 C4 1_555 1_555
C4 O7 1_555 1_555
C5 C6 1_555 1_555
C6 O5 1_555 1_555
C7 C8 1_555 1_555
C8 O9 1_555 1_555
Cd1 O1 1_555 1_555
K1 O13 1_555 1_555
K2 O8 1_555 1_555
O1 C1 1_555 1_555
O2 C1 1_555 1_555
O3 U1 1_555 1_555
O4 C2 1_555 1_555
O5 Cd1 1_555 1_555
O6 C5 1_555 1_555
O7 Cd1 1_555 1_555
O8 C3 1_555 1_555
O9 Cd1 1_555 1_555
O10 C7 1_555 1_555
O11 C6 1_555 1_555
O12 C5 1_555 1_555
O13 C7 1_555 1_555
O14 C8 1_555 1_555
O15 C3 1_555 1_555
O16 C4 1_555 1_555
O17 U1 1_555 1_555
O18 H5 1_555 1_555
O19 K1 1_555 1_555
O20 K1 1_555 1_555
O21 K1 1_555 1_555
O22 H13 1_555 1_555
O23 H15 1_555 1_555
O24 H1 1_555 1_555
O25 K2 1_555 1_555
U1 O2 1_555 1_555
H2 O24 1_555 1_555
H3 O17 1_555 1_555
H4 O17 1_555 1_555
H6 O18 1_555 1_555
H7 O19 1_555 1_555
H8 O19 1_555 1_555
H9 O20 1_555 1_555
H10 O20 1_555 1_555
H11 O21 1_555 1_555
H12 O21 1_555 1_555
H14 O22 1_555 1_555
H16 O23 1_555 1_555
H17 O25 1_555 1_555
H18 O25 1_555 1_555
K1A O16 1_555 1_555
K2_2 O9 1_555 1_555
O9_2 K2 1_555 1_555
O11A U1 1_555 1_555
O12A U1 1_555 1_555
O13_2 U1 1_555 1_555
O14_2 U1 1_555 1_555
O15A U1 1_555 1_555
O16A K1 1_555 1_555
O16A_2 U1 1_555 1_555
U1A O11 1_555 1_555
U1_2 O13 1_555 1_555
U1A_2 O15 1_555 1_555
Cd1 O4 1_555 1_555
Cd1 O6 1_555 1_555
Cd1 O8 1_555 1_555
Cd1 O10 1_555 1_555
O12 U1A 1_555 1_555
O14 U1_2 1_555 1_555
O16 U1A_2 1_555 1_555

#END
