
#######################################################################
#
#                 Cambridge Crystallographic Data Centre
#                                CCDC 
#
#######################################################################
#
# If this CIF has been generated from an entry in the Cambridge 
# Structural Database, then it will include bibliographic, chemical, 
# crystal, experimental, refinement or atomic coordinate data resulting 
# from the CCDC's data processing and validation procedures.
#
#######################################################################

data_YATFOQ
_symmetry_cell_setting           monoclinic
_symmetry_space_group_name_H-M   'P 21/c'
_symmetry_Int_Tables_number      14
_space_group_name_Hall           '-P 2ybc'
loop_
_symmetry_equiv_pos_site_id
_symmetry_equiv_pos_as_xyz
1 x,y,z
2 -x,1/2+y,1/2-z
3 -x,-y,-z
4 x,1/2-y,1/2+z
_cell_length_a                   13.783(2)
_cell_length_b                   10.0120(15)
_cell_length_c                   12.1974(18)
_cell_angle_alpha                90
_cell_angle_beta                 105.217(2)
_cell_angle_gamma                90
_cell_volume                     1624.17
loop_
_atom_site_label
_atom_site_type_symbol
_atom_site_fract_x
_atom_site_fract_y
_atom_site_fract_z
Ho1 Ho 0.077079(13) 0.213536(16) 0.060173(13)
O1 O 0.2438(2) 0.2922(3) 0.0925(2)
O2 O 0.1918(2) 0.2506(3) 0.2448(2)
O3 O 0.6602(2) 0.3562(5) 0.4640(3)
O4 O 0.8769(3) -0.0024(3) 0.8878(3)
O5 O 0.9110(2) 0.2005(3) 0.9571(2)
O6 O 0.0565(2) 0.3922(3) -0.0772(2)
O7 O -0.0169(2) 0.5897(3) -0.1261(2)
O8 O 0.1073(3) 0.1222(3) -0.1050(2)
O9 O -0.0181(2) 0.1435(3) 0.1908(2)
C1 C 0.2623(3) 0.2803(4) 0.2001(3)
C2 C 0.3668(3) 0.3002(4) 0.2722(4)
C3 C 0.3921(4) 0.2653(5) 0.3865(4)
H1 H 0.3432 0.2316 0.4189
C4 C 0.4900(4) 0.2807(6) 0.4524(4)
H2 H 0.5073 0.2554 0.5285
C5 C 0.5617(3) 0.3341(5) 0.4040(4)
C6 C 0.5362(3) 0.3721(6) 0.2912(4)
H3 H 0.5845 0.4092 0.2594
C7 C 0.4395(3) 0.3552(6) 0.2262(4)
H4 H 0.4225 0.3809 0.1502
C8 C 0.6986(3) 0.2918(5) 0.5676(4)
C9 C 0.7237(3) 0.3703(5) 0.6641(4)
H5 H 0.7061 0.4603 0.6604
C10 C 0.7755(3) 0.3133(4) 0.7671(4)
H6 H 0.7931 0.3656 0.8324
C11 C 0.8010(3) 0.1786(4) 0.7728(3)
C12 C 0.7718(3) 0.1007(5) 0.6752(3)
H7 H 0.7864 0.0099 0.6789
C13 C 0.7209(4) 0.1578(6) 0.5723(4)
H8 H 0.7020 0.1056 0.5071
C14 C 0.8662(3) 0.1213(4) 0.8806(3)
C15 C 0.0121(3) 0.4950(4) -0.0584(3)
H9 H 0.086(3) 0.048(4) -0.135(4)
H10 H 0.142(3) 0.168(4) -0.144(4)
H11 H 0.012(3) 0.130(5) 0.258(3)
H12 H -0.068(3) 0.203(5) 0.180(5)
Ho1B Ho -0.077079(13) 0.786464(16) -0.060173(13)
Ho1_2 Ho -0.922921(13) 1.213536(16) -0.939827(13)
Ho1_3 Ho 1.077079(13) 0.213536(16) 1.060173(13)
Ho1B_2 Ho -1.077079(13) 0.786464(16) -1.060173(13)
Ho1B_3 Ho 0.922921(13) -0.213536(16) 0.939827(13)
O1B O -0.2438(2) 0.7078(3) -0.0925(2)
O2B O -0.1918(2) 0.7494(3) -0.2448(2)
O3B O -0.6602(2) 0.6438(5) -0.4640(3)
O4B O -0.8769(3) 1.0024(3) -0.8878(3)
O4_2 O -0.1231(3) 0.9976(3) -0.1122(3)
O4B_2 O 0.1231(3) 0.0024(3) 0.1122(3)
O5B O -0.9110(2) 0.7995(3) -0.9571(2)
O5_2 O -0.0890(2) 0.2005(3) -0.0429(2)
O5B_2 O 0.0890(2) 0.7995(3) 0.0429(2)
O6B O -0.0565(2) 0.6078(3) 0.0772(2)
O7B O 0.0169(2) 0.4103(3) 0.1261(2)
O8B O -0.1073(3) 0.8778(3) 0.1050(2)
O9B O 0.0181(2) 0.8565(3) -0.1908(2)
C1B C -0.2623(3) 0.7197(4) -0.2001(3)
C2B C -0.3668(3) 0.6998(4) -0.2722(4)
C3B C -0.3921(4) 0.7347(5) -0.3865(4)
H1B H -0.3432 0.7684 -0.4189
C4B C -0.4900(4) 0.7193(6) -0.4524(4)
H2B H -0.5073 0.7446 -0.5285
C5B C -0.5617(3) 0.6659(5) -0.4040(4)
C6B C -0.5362(3) 0.6279(6) -0.2912(4)
H3B H -0.5845 0.5908 -0.2594
C7B C -0.4395(3) 0.6448(6) -0.2262(4)
H4B H -0.4225 0.6191 -0.1502
C8B C -0.6986(3) 0.7082(5) -0.5676(4)
C9B C -0.7237(3) 0.6297(5) -0.6641(4)
H5B H -0.7061 0.5397 -0.6604
C10B C -0.7755(3) 0.6867(4) -0.7671(4)
H6B H -0.7931 0.6344 -0.8324
C11B C -0.8010(3) 0.8214(4) -0.7728(3)
C12B C -0.7718(3) 0.8993(5) -0.6752(3)
H7B H -0.7864 0.9901 -0.6789
C13B C -0.7209(4) 0.8422(6) -0.5723(4)
H8B H -0.7020 0.8944 -0.5071
C14B C -0.8662(3) 0.8787(4) -0.8806(3)
C15B C -0.0121(3) 0.5050(4) 0.0584(3)
H9B H -0.086(3) 0.952(4) 0.135(4)
H10B H -0.142(3) 0.832(4) 0.144(4)
H11B H -0.012(3) 0.870(5) -0.258(3)
H12B H 0.068(3) 0.797(5) -0.180(5)
loop_
_geom_bond_atom_site_label_1
_geom_bond_atom_site_label_2
_geom_bond_site_symmetry_1
_geom_bond_site_symmetry_2
Ho1 O1 1_555 1_555
O1 C1 1_555 1_555
O2 Ho1 1_555 1_555
O3 C5 1_555 1_555
O4 C14 1_555 1_555
O5 C14 1_555 1_555
O6 Ho1 1_555 1_555
O7 C15 1_555 1_555
O8 Ho1 1_555 1_555
O9 Ho1 1_555 1_555
C1 O2 1_555 1_555
C2 C1 1_555 1_555
C3 C2 1_555 1_555
H1 C3 1_555 1_555
C4 C3 1_555 1_555
H2 C4 1_555 1_555
C5 C4 1_555 1_555
C6 C5 1_555 1_555
H3 C6 1_555 1_555
C7 C2 1_555 1_555
H4 C7 1_555 1_555
C8 O3 1_555 1_555
C9 C8 1_555 1_555
H5 C9 1_555 1_555
C10 C9 1_555 1_555
H6 C10 1_555 1_555
C11 C10 1_555 1_555
C12 C11 1_555 1_555
H7 C12 1_555 1_555
C13 C8 1_555 1_555
H8 C13 1_555 1_555
C14 C11 1_555 1_555
C15 O6 1_555 1_555
H9 O8 1_555 1_555
H10 O8 1_555 1_555
H11 O9 1_555 1_555
H12 O9 1_555 1_555
Ho1B O7 1_555 1_555
Ho1_2 O4B 1_555 1_555
Ho1_3 O5 1_555 1_555
Ho1B_2 O5B 1_555 1_555
Ho1B_3 O4 1_555 1_555
O1B Ho1B 1_555 1_555
O2B Ho1B 1_555 1_555
O3B C5B 1_555 1_555
O4B C14B 1_555 1_555
O4_2 Ho1B 1_555 1_555
O4B_2 Ho1 1_555 1_555
O5B C14B 1_555 1_555
O5_2 Ho1 1_555 1_555
O5B_2 Ho1B 1_555 1_555
O6B Ho1B 1_555 1_555
O7B Ho1 1_555 1_555
O8B Ho1B 1_555 1_555
O9B Ho1B 1_555 1_555
C1B O1B 1_555 1_555
C2B C1B 1_555 1_555
C3B C2B 1_555 1_555
H1B C3B 1_555 1_555
C4B C3B 1_555 1_555
H2B C4B 1_555 1_555
C5B C4B 1_555 1_555
C6B C5B 1_555 1_555
H3B C6B 1_555 1_555
C7B C2B 1_555 1_555
H4B C7B 1_555 1_555
C8B O3B 1_555 1_555
C9B C8B 1_555 1_555
H5B C9B 1_555 1_555
C10B C9B 1_555 1_555
H6B C10B 1_555 1_555
C11B C10B 1_555 1_555
C12B C11B 1_555 1_555
H7B C12B 1_555 1_555
C13B C8B 1_555 1_555
H8B C13B 1_555 1_555
C14B C11B 1_555 1_555
C15B C15 1_555 1_555
H9B O8B 1_555 1_555
H10B O8B 1_555 1_555
H11B O9B 1_555 1_555
H12B O9B 1_555 1_555
C6 C7 1_555 1_555
C12 C13 1_555 1_555
O2B C1B 1_555 1_555
O6B C15B 1_555 1_555
O7B C15B 1_555 1_555
C6B C7B 1_555 1_555
C12B C13B 1_555 1_555

#END
