
#######################################################################
#
#                 Cambridge Crystallographic Data Centre
#                                CCDC 
#
#######################################################################
#
# If this CIF has been generated from an entry in the Cambridge 
# Structural Database, then it will include bibliographic, chemical, 
# crystal, experimental, refinement or atomic coordinate data resulting 
# from the CCDC's data processing and validation procedures.
#
#######################################################################

data_YATMUD
_symmetry_cell_setting           monoclinic
_symmetry_space_group_name_H-M   'P 2/c'
_symmetry_Int_Tables_number      13
_space_group_name_Hall           '-P 2yc'
loop_
_symmetry_equiv_pos_site_id
_symmetry_equiv_pos_as_xyz
1 x,y,z
2 -x,y,1/2-z
3 -x,-y,-z
4 x,-y,1/2+z
_cell_length_a                   7.2514(4)
_cell_length_b                   4.7113(3)
_cell_length_c                   21.8591(11)
_cell_angle_alpha                90
_cell_angle_beta                 103.394(2)
_cell_angle_gamma                90
_cell_volume                     726.471
loop_
_atom_site_label
_atom_site_type_symbol
_atom_site_fract_x
_atom_site_fract_y
_atom_site_fract_z
Hg1 Hg 0.5000 1.07616(3) 0.7500
Cl1 Cl 0.81805(12) 1.1749(2) 0.79628(5)
O1 O 0.7884(3) 0.1092(4) 0.98476(12)
N1 N 0.4508(3) 0.7488(5) 0.83334(12)
N2 N 0.9166(4) 0.5412(5) 0.97954(13)
H1 H 0.9048 0.7096 0.9639
C1 C 0.6042(4) 0.6598(6) 0.87486(15)
H2 H 0.7211 0.7361 0.8730
C2 C 0.2825(5) 0.6416(8) 0.83653(16)
H3 H 0.1741 0.7054 0.8082
C3 C 0.2644(5) 0.4401(7) 0.88032(18)
H4 H 0.1454 0.3698 0.8815
C4 C 0.4239(4) 0.3429(7) 0.92245(15)
H5 H 0.4146 0.2023 0.9514
C5 C 0.5987(4) 0.4593(6) 0.92072(15)
C6 C 0.7733(4) 0.3541(6) 0.96446(14)
Hg1B Hg 1.5000 -0.07616(3) 1.2500
Cl1A Cl 0.18195(12) 1.1749(2) 0.70372(5)
O1B O 1.2116(3) 0.8908(4) 1.01524(12)
N1B N 1.5492(3) 0.2512(5) 1.16666(12)
N1A N 0.5492(3) 0.7488(5) 0.66666(12)
N2B N 1.0834(4) 0.4588(5) 1.02046(13)
H1B H 1.0952 0.2904 1.0361
C1B C 1.3958(4) 0.3402(6) 1.12514(15)
H2B H 1.2789 0.2639 1.1270
C2B C 1.7175(5) 0.3584(8) 1.16347(16)
H3B H 1.8259 0.2946 1.1918
C3B C 1.7356(5) 0.5599(7) 1.11968(18)
H4B H 1.8546 0.6302 1.1185
C4B C 1.5761(4) 0.6571(7) 1.07755(15)
H5B H 1.5854 0.7977 1.0486
C5B C 1.4013(4) 0.5407(6) 1.07928(15)
C6B C 1.2267(4) 0.6459(6) 1.03554(14)
loop_
_geom_bond_atom_site_label_1
_geom_bond_atom_site_label_2
_geom_bond_site_symmetry_1
_geom_bond_site_symmetry_2
Hg1 Cl1 1_555 1_555
O1 C6 1_555 1_555
N1 Hg1 1_555 1_555
N2 H1 1_555 1_555
C1 N1 1_555 1_555
H2 C1 1_555 1_555
C2 N1 1_555 1_555
H3 C2 1_555 1_555
C3 C2 1_555 1_555
H4 C3 1_555 1_555
C4 C3 1_555 1_555
H5 C4 1_555 1_555
C5 C1 1_555 1_555
C6 N2 1_555 1_555
Hg1B N1B 1_555 1_555
Cl1A Hg1 1_555 1_555
O1B C6B 1_555 1_555
N1B C1B 1_555 1_555
N1A Hg1 1_555 1_555
N2B N2 1_555 1_555
H1B N2B 1_555 1_555
C1B H2B 1_555 1_555
C2B N1B 1_555 1_555
H3B C2B 1_555 1_555
C3B C2B 1_555 1_555
H4B C3B 1_555 1_555
C4B C3B 1_555 1_555
H5B C4B 1_555 1_555
C5B C1B 1_555 1_555
C6B N2B 1_555 1_555
C4 C5 1_555 1_555
C5 C6 1_555 1_555
C4B C5B 1_555 1_555
C5B C6B 1_555 1_555

#END
