
#######################################################################
#
#                 Cambridge Crystallographic Data Centre
#                                CCDC 
#
#######################################################################
#
# If this CIF has been generated from an entry in the Cambridge 
# Structural Database, then it will include bibliographic, chemical, 
# crystal, experimental, refinement or atomic coordinate data resulting 
# from the CCDC's data processing and validation procedures.
#
#######################################################################

data_YATMOX
_symmetry_cell_setting           monoclinic
_symmetry_space_group_name_H-M   'P 21/c'
_symmetry_Int_Tables_number      14
_space_group_name_Hall           '-P 2ybc'
loop_
_symmetry_equiv_pos_site_id
_symmetry_equiv_pos_as_xyz
1 x,y,z
2 -x,1/2+y,1/2-z
3 -x,-y,-z
4 x,1/2-y,1/2+z
_cell_length_a                   11.0746(6)
_cell_length_b                   24.9781(13)
_cell_length_c                   9.5563(5)
_cell_angle_alpha                90
_cell_angle_beta                 114.6580(10)
_cell_angle_gamma                90
_cell_volume                     2402.44
loop_
_atom_site_label
_atom_site_type_symbol
_atom_site_fract_x
_atom_site_fract_y
_atom_site_fract_z
Mn1 Mn 0.32207(3) 0.285186(10) 1.10714(3)
Br1 Br 0.39872(2) -0.002567(8) 1.29527(2)
Br2 Br 0.00337(3) 0.540295(9) 0.75613(3)
O1 O 0.19454(14) 0.31410(5) 0.92195(14)
O2 O 0.28189(14) 0.21775(5) 1.01810(15)
O3 O 0.65113(16) 0.47920(6) 1.64497(17)
O4 O 0.76182(19) 0.42584(7) 1.83364(18)
N1 N 0.37015(15) 0.35574(6) 1.20959(17)
N2 N 0.44814(15) 0.25853(6) 1.31031(17)
N3 N 0.68440(17) 0.43404(7) 1.69974(19)
C1 C 0.15509(18) 0.36422(7) 0.8920(2)
C2 C 0.0566(2) 0.37633(8) 0.7440(2)
H1 H 0.0211 0.3490 0.6722
C3 C 0.0124(2) 0.42798(8) 0.7046(2)
H2 H -0.0516 0.4355 0.6063
C4 C 0.0636(2) 0.46918(8) 0.8124(3)
C5 C 0.1582(2) 0.45925(8) 0.9576(2)
H3 H 0.1906 0.4870 1.0283
C6 C 0.20647(19) 0.40668(7) 0.9997(2)
C7 C 0.30926(19) 0.40035(7) 1.1515(2)
H4 H 0.3347 0.4306 1.2137
C8 C 0.47310(18) 0.35266(7) 1.36140(19)
C9 C 0.53061(18) 0.39672(7) 1.4535(2)
H5 H 0.5039 0.4313 1.4178
C10 C 0.62842(19) 0.38799(7) 1.5994(2)
C11 C 0.6734(2) 0.33696(8) 1.6552(2)
H6 H 0.7412 0.3324 1.7530
C12 C 0.6157(2) 0.29309(7) 1.5628(2)
H7 H 0.6452 0.2588 1.5986
C13 C 0.51269(18) 0.30003(7) 1.4150(2)
C14 C 0.44056(18) 0.20846(7) 1.3632(2)
C15 C 0.38604(18) 0.16400(7) 1.2496(2)
C16 C 0.41170(19) 0.11188(7) 1.3105(2)
H8 H 0.4619 0.1069 1.4155
C17 C 0.3626(2) 0.06804(7) 1.2151(2)
C18 C 0.2833(2) 0.07434(7) 1.0590(2)
H9 H 0.2489 0.0446 0.9964
C19 C 0.25639(19) 0.12505(7) 0.9983(2)
H10 H 0.2018 0.1294 0.8943
C20 C 0.30947(18) 0.17067(7) 1.0900(2)
O5 O 0.47681(14) 0.19817(5) 1.50376(15)
O6 O 0.15751(15) 0.28059(7) 1.18541(18)
H18 H 0.110(4) 0.2602(15) 1.142(4)
H19 H 0.180(3) 0.2712(12) 1.269(4)
Mn1C Mn 0.32207(3) 0.214814(10) 1.60714(3)
O5C O 0.47681(14) 0.30183(5) 1.00376(15)
O7 O 0.94801(16) 0.27762(6) 1.48344(18)
N4 N 0.84158(18) 0.32089(7) 1.2543(2)
C21 C 0.9247(2) 0.28447(8) 1.3460(3)
H11 H 0.9687 0.2625 1.3039
C22 C 0.7663(2) 0.35587(9) 1.3091(3)
H12 H 0.7843 0.3468 1.4135
H13 H 0.6731 0.3516 1.2455
H14 H 0.7915 0.3924 1.3044
C23 C 0.8221(2) 0.32762(9) 1.0947(2)
H15 H 0.8686 0.2998 1.0680
H16 H 0.8558 0.3619 1.0826
H17 H 0.7290 0.3255 1.0285
loop_
_geom_bond_atom_site_label_1
_geom_bond_atom_site_label_2
_geom_bond_site_symmetry_1
_geom_bond_site_symmetry_2
Mn1 O1 1_555 1_555
Br1 C17 1_555 1_555
Br2 C4 1_555 1_555
O1 C1 1_555 1_555
O2 Mn1 1_555 1_555
O3 N3 1_555 1_555
O4 N3 1_555 1_555
N1 Mn1 1_555 1_555
N2 Mn1 1_555 1_555
N3 C10 1_555 1_555
C1 C2 1_555 1_555
C2 H1 1_555 1_555
C3 C2 1_555 1_555
H2 C3 1_555 1_555
C4 C3 1_555 1_555
C5 C4 1_555 1_555
H3 C5 1_555 1_555
C6 C1 1_555 1_555
C7 N1 1_555 1_555
H4 C7 1_555 1_555
C8 N1 1_555 1_555
C9 C8 1_555 1_555
H5 C9 1_555 1_555
C10 C9 1_555 1_555
C11 C10 1_555 1_555
H6 C11 1_555 1_555
C12 C11 1_555 1_555
H7 C12 1_555 1_555
C13 N2 1_555 1_555
C14 N2 1_555 1_555
C15 C14 1_555 1_555
C16 C15 1_555 1_555
H8 C16 1_555 1_555
C17 C16 1_555 1_555
C18 C17 1_555 1_555
H9 C18 1_555 1_555
C19 C18 1_555 1_555
H10 C19 1_555 1_555
C20 O2 1_555 1_555
O5 C14 1_555 1_555
O6 Mn1 1_555 1_555
O7 C21 1_555 1_555
N4 C21 1_555 1_555
C21 H11 1_555 1_555
C22 N4 1_555 1_555
H12 C22 1_555 1_555
H13 C22 1_555 1_555
H14 C22 1_555 1_555
C23 N4 1_555 1_555
H15 C23 1_555 1_555
H16 C23 1_555 1_555
H17 C23 1_555 1_555
H18 O6 1_555 1_555
H19 O6 1_555 1_555
Mn1C O5 1_555 1_555
O5C Mn1 1_555 1_555
C5 C6 1_555 1_555
C6 C7 1_555 1_555
C8 C13 1_555 1_555
C12 C13 1_555 1_555
C15 C20 1_555 1_555
C19 C20 1_555 1_555

#END
