
#######################################################################
#
#                 Cambridge Crystallographic Data Centre
#                                CCDC 
#
#######################################################################
#
# If this CIF has been generated from an entry in the Cambridge 
# Structural Database, then it will include bibliographic, chemical, 
# crystal, experimental, refinement or atomic coordinate data resulting 
# from the CCDC's data processing and validation procedures.
#
#######################################################################

data_YATPAM
_symmetry_cell_setting           monoclinic
_symmetry_space_group_name_H-M   'C 2'
_symmetry_Int_Tables_number      5
_space_group_name_Hall           'C 2y'
loop_
_symmetry_equiv_pos_site_id
_symmetry_equiv_pos_as_xyz
1 x,y,z
2 -x,y,-z
3 1/2+x,1/2+y,z
4 1/2-x,1/2+y,-z
_cell_length_a                   12.159(2)
_cell_length_b                   4.5893(9)
_cell_length_c                   17.666(4)
_cell_angle_alpha                90
_cell_angle_beta                 104.98(3)
_cell_angle_gamma                90
_cell_volume                     952.285
loop_
_atom_site_label
_atom_site_type_symbol
_atom_site_fract_x
_atom_site_fract_y
_atom_site_fract_z
K1 K 0.62160(7) 0.3984(3) 0.43153(5)
O1 O 0.3919(3) 0.6125(7) 0.39356(19)
O2 O 0.2403(2) 0.3829(10) 0.41277(15)
N1 N 0.3763(3) 0.3467(9) 0.2538(2)
N2 N 0.4845(3) 0.2466(10) 0.2740(2)
N3 N 0.5400(3) 0.3627(15) 0.2268(2)
C1 C 0.3119(3) 0.4388(11) 0.3754(2)
C2 C 0.2979(4) 0.2654(12) 0.2991(3)
H1 H 0.3078 0.0599 0.3119
H2 H 0.2208 0.2920 0.2670
C3 C 0.4673(4) 0.5401(12) 0.1754(3)
C4 C 0.4849(5) 0.7071(14) 0.1142(3)
H3 H 0.5550 0.7097 0.1023
C5 C 0.3952(5) 0.8677(19) 0.0721(3)
H4 H 0.4048 0.9844 0.0313
C6 C 0.2893(5) 0.8601(15) 0.0894(3)
H5 H 0.2297 0.9691 0.0588
C7 C 0.2702(4) 0.6970(12) 0.1501(3)
H6 H 0.2001 0.6952 0.1620
C8 C 0.3618(4) 0.5360(11) 0.1923(3)
O3 O 0.5000 0.0180(11) 0.5000
H7 H 0.465(4) -0.090(18) 0.461(3)
K1A K 0.37840(7) 0.3984(3) 0.56847(5)
K1B K 0.12160(7) -0.1016(3) 0.43153(5)
K1B_2 K 0.12160(7) 0.8984(3) 0.43153(5)
K1C K 0.87840(7) -0.1016(3) 0.56847(5)
K1C_2 K 0.87840(7) 0.8984(3) 0.56847(5)
O1A O 0.6081(3) 0.6125(7) 0.60644(19)
O2A O 0.7597(2) 0.3829(10) 0.58723(15)
O2B O 0.7403(2) 0.8829(10) 0.41277(15)
O2B_2 O 0.7403(2) -0.1171(10) 0.41277(15)
O2C O 0.2597(2) 0.8829(10) 0.58723(15)
O2C_2 O 0.2597(2) -0.1171(10) 0.58723(15)
N1A N 0.6237(3) 0.3467(9) 0.7462(2)
N2A N 0.5155(3) 0.2466(10) 0.7260(2)
N3A N 0.4600(3) 0.3627(15) 0.7732(2)
C1A C 0.6881(3) 0.4388(11) 0.6246(2)
C2A C 0.7021(4) 0.2654(12) 0.7009(3)
H1A H 0.6922 0.0599 0.6881
H2A H 0.7792 0.2920 0.7330
C3A C 0.5327(4) 0.5401(12) 0.8246(3)
C4A C 0.5151(5) 0.7071(14) 0.8858(3)
H3A H 0.4450 0.7097 0.8977
C5A C 0.6048(5) 0.8677(19) 0.9279(3)
H4A H 0.5952 0.9844 0.9687
C6A C 0.7107(5) 0.8601(15) 0.9106(3)
H5A H 0.7703 0.9691 0.9412
C7A C 0.7298(4) 0.6970(12) 0.8499(3)
H6A H 0.7999 0.6952 0.8380
C8A C 0.6382(4) 0.5360(11) 0.8077(3)
H7A H 0.535(4) -0.090(18) 0.539(3)
loop_
_geom_bond_atom_site_label_1
_geom_bond_atom_site_label_2
_geom_bond_site_symmetry_1
_geom_bond_site_symmetry_2
K1 O1 1_555 1_555
O1 C1 1_555 1_555
O2 C1 1_555 1_555
N1 N2 1_555 1_555
N2 K1 1_555 1_555
N3 N2 1_555 1_555
C1 C2 1_555 1_555
C2 N1 1_555 1_555
H1 C2 1_555 1_555
H2 C2 1_555 1_555
C3 N3 1_555 1_555
C4 C3 1_555 1_555
H3 C4 1_555 1_555
C5 C4 1_555 1_555
H4 C5 1_555 1_555
C6 C5 1_555 1_555
H5 C6 1_555 1_555
C7 C6 1_555 1_555
H6 C7 1_555 1_555
C8 N1 1_555 1_555
O3 K1 1_555 1_555
H7 O3 1_555 1_555
K1A O1 1_555 1_555
K1B O2 1_555 1_555
K1B_2 O2 1_555 1_555
K1C O2A 1_555 1_555
K1C_2 O2A 1_555 1_555
O1A K1 1_555 1_555
O2A K1 1_555 1_555
O2B K1 1_555 1_555
O2B_2 K1 1_555 1_555
O2C K1A 1_555 1_555
O2C_2 K1A 1_555 1_555
N1A N2A 1_555 1_555
N2A K1A 1_555 1_555
N3A N2A 1_555 1_555
C1A O1A 1_555 1_555
C2A N1A 1_555 1_555
H1A C2A 1_555 1_555
H2A C2A 1_555 1_555
C3A N3A 1_555 1_555
C4A C3A 1_555 1_555
H3A C4A 1_555 1_555
C5A C4A 1_555 1_555
H4A C5A 1_555 1_555
C6A C5A 1_555 1_555
H5A C6A 1_555 1_555
C7A C6A 1_555 1_555
H6A C7A 1_555 1_555
C8A N1A 1_555 1_555
H7A O3 1_555 1_555
O2 K1A 1_555 1_555
C3 C8 1_555 1_555
C7 C8 1_555 1_555
O3 K1A 1_555 1_555
K1A O1A 1_555 1_555
K1B O2C_2 1_555 1_555
K1B_2 O2C 1_555 1_555
K1C O2B_2 1_555 1_555
K1C_2 O2B 1_555 1_555
O2A C1A 1_555 1_555
C1A C2A 1_555 1_555
C3A C8A 1_555 1_555
C7A C8A 1_555 1_555

#END
