
#######################################################################
#
#                 Cambridge Crystallographic Data Centre
#                                CCDC 
#
#######################################################################
#
# If this CIF has been generated from an entry in the Cambridge 
# Structural Database, then it will include bibliographic, chemical, 
# crystal, experimental, refinement or atomic coordinate data resulting 
# from the CCDC's data processing and validation procedures.
#
#######################################################################

data_YATYIC
_symmetry_cell_setting           triclinic
_symmetry_space_group_name_H-M   'P -1'
_symmetry_Int_Tables_number      2
_space_group_name_Hall           '-P 1'
loop_
_symmetry_equiv_pos_site_id
_symmetry_equiv_pos_as_xyz
1 x,y,z
2 -x,-y,-z
_cell_length_a                   7.7302(11)
_cell_length_b                   10.9154(15)
_cell_length_c                   12.9239(18)
_cell_angle_alpha                71.808(2)
_cell_angle_beta                 89.143(2)
_cell_angle_gamma                88.459(2)
_cell_volume                     1035.59
loop_
_atom_site_label
_atom_site_type_symbol
_atom_site_fract_x
_atom_site_fract_y
_atom_site_fract_z
Cu1 Cu 0.72835(4) 0.66040(3) 0.70014(2)
O1 O 0.6000(2) 0.82027(16) 0.67494(16)
O2 O 0.3737(2) 0.69735(16) 0.68550(16)
O3 O -0.0351(2) 0.76282(18) 0.70477(15)
O4 O 0.0513(2) 0.80038(18) 0.53279(15)
N1 N 0.7070(3) 0.63743(19) 0.55017(17)
N2 N 0.8107(3) 0.48328(19) 0.73123(17)
N3 N 0.7217(3) 0.5976(2) 0.86824(18)
C1 C 0.6287(4) 0.7189(3) 0.4632(2)
C2 C 0.6034(4) 0.6878(3) 0.3697(2)
C3 C 0.6597(4) 0.5696(3) 0.3648(2)
C4 C 0.7436(4) 0.4854(3) 0.4531(2)
C5 C 0.7654(3) 0.5217(2) 0.5444(2)
C6 C 0.8374(3) 0.4359(2) 0.6481(2)
C7 C 0.9167(4) 0.3168(3) 0.6653(2)
C8 C 0.9645(4) 0.2472(3) 0.7700(3)
C9 C 0.9311(4) 0.2948(3) 0.8557(3)
C10 C 0.8510(3) 0.4142(2) 0.8339(2)
C11 C 0.7945(3) 0.4802(3) 0.9132(2)
C12 C 0.8078(4) 0.4254(3) 1.0242(2)
C13 C 0.7427(5) 0.4938(4) 1.0911(3)
C14 C 0.6697(5) 0.6125(4) 1.0451(3)
C15 C 0.6609(4) 0.6634(3) 0.9331(3)
C16 C 0.4357(3) 0.8030(2) 0.6737(2)
C17 C 0.3265(3) 0.9217(2) 0.6551(2)
C18 C 0.1604(3) 0.9282(3) 0.6321(2)
C19 C 0.0534(3) 0.8202(2) 0.6219(2)
H1 H 0.586(3) 0.794(2) 0.472(2)
H2 H 0.547(3) 0.747(2) 0.3142(17)
H3 H 0.632(4) 0.540(3) 0.311(3)
H4 H 0.779(4) 0.405(3) 0.451(2)
H5 H 0.930(4) 0.289(3) 0.6058(18)
H6 H 1.016(4) 0.166(3) 0.782(2)
H7 H 0.958(3) 0.250(3) 0.925(2)
H8 H 0.854(4) 0.343(3) 1.058(3)
H9 H 0.758(4) 0.459(3) 1.164(3)
H10 H 0.621(4) 0.662(3) 1.084(3)
H11 H 0.607(4) 0.740(3) 0.900(2)
H12 H 0.380(4) 0.997(3) 0.664(2)
H13 H 0.099(3) 1.007(3) 0.620(2)
Cu1_2 Cu -0.27165(4) 0.66040(3) 0.70014(2)
O3_2 O 0.9649(2) 0.76282(18) 0.70477(15)
O5 O 0.6783(6) 0.0639(7) 1.0680(4)
H14 H 0.740(3) -0.010(2) 1.056(2)
H21 H 0.799(3) 0.065(7) 1.077(6)
O6 O 0.7184(3) 0.0693(2) 0.6403(2)
H15 H 0.686(5) -0.004(2) 0.635(3)
H16 H 0.796(4) 0.101(4) 0.590(3)
O7 O -0.0172(3) 0.8762(2) 0.8737(2)
H17 H -0.118(4) 0.913(4) 0.886(4)
H18 H -0.007(5) 0.848(4) 0.810(4)
O8 O 0.6470(4) 0.0293(4) 0.8571(3)
H19 H 0.574(3) 0.105(2) 0.8524(19)
H20 H 0.534(3) 0.001(3) 0.861(4)
loop_
_geom_bond_atom_site_label_1
_geom_bond_atom_site_label_2
_geom_bond_site_symmetry_1
_geom_bond_site_symmetry_2
Cu1 O1 1_555 1_555
O1 C16 1_555 1_555
O2 C16 1_555 1_555
O3 C19 1_555 1_555
O4 C19 1_555 1_555
O5 H14 1_555 1_555
O6 H15 1_555 1_555
O7 H17 1_555 1_555
O8 H19 1_555 1_555
N1 Cu1 1_555 1_555
N2 Cu1 1_555 1_555
N3 Cu1 1_555 1_555
C1 N1 1_555 1_555
C2 C1 1_555 1_555
C3 C2 1_555 1_555
C4 C3 1_555 1_555
C5 N1 1_555 1_555
C6 N2 1_555 1_555
C7 C6 1_555 1_555
C8 C7 1_555 1_555
C9 C8 1_555 1_555
C10 N2 1_555 1_555
C11 N3 1_555 1_555
C12 C11 1_555 1_555
C13 C12 1_555 1_555
C14 C13 1_555 1_555
C15 N3 1_555 1_555
C16 C17 1_555 1_555
C17 C18 1_555 1_555
C18 C19 1_555 1_555
H1 C1 1_555 1_555
H2 C2 1_555 1_555
H3 C3 1_555 1_555
H4 C4 1_555 1_555
H5 C7 1_555 1_555
H6 C8 1_555 1_555
H7 C9 1_555 1_555
H8 C12 1_555 1_555
H9 C13 1_555 1_555
H10 C14 1_555 1_555
H11 C15 1_555 1_555
H12 C17 1_555 1_555
H13 C18 1_555 1_555
H16 O6 1_555 1_555
H18 O7 1_555 1_555
H20 O8 1_555 1_555
H21 O5 1_555 1_555
Cu1_2 O3 1_555 1_555
O3_2 Cu1 1_555 1_555
C4 C5 1_555 1_555
C5 C6 1_555 1_555
C9 C10 1_555 1_555
C10 C11 1_555 1_555
C14 C15 1_555 1_555

#END
