
#######################################################################
#
#                 Cambridge Crystallographic Data Centre
#                                CCDC 
#
#######################################################################
#
# If this CIF has been generated from an entry in the Cambridge 
# Structural Database, then it will include bibliographic, chemical, 
# crystal, experimental, refinement or atomic coordinate data resulting 
# from the CCDC's data processing and validation procedures.
#
#######################################################################

data_YAVCEF
_symmetry_cell_setting           triclinic
_symmetry_space_group_name_H-M   'P -1'
_symmetry_Int_Tables_number      2
_space_group_name_Hall           '-P 1'
loop_
_symmetry_equiv_pos_site_id
_symmetry_equiv_pos_as_xyz
1 x,y,z
2 -x,-y,-z
_cell_length_a                   8.6754(13)
_cell_length_b                   15.1114(17)
_cell_length_c                   15.629(3)
_cell_angle_alpha                92.903(16)
_cell_angle_beta                 97.143(13)
_cell_angle_gamma                95.515(9)
_cell_volume                     2019.54
loop_
_atom_site_label
_atom_site_type_symbol
_atom_site_fract_x
_atom_site_fract_y
_atom_site_fract_z
Cd1 Cd 0.10447(3) 0.188967(14) 0.170325(14)
Cd2 Cd 0.47056(3) 0.185064(14) 0.355404(14)
C1 C 0.4157(4) 0.0769(2) 0.1864(2)
C2 C 0.4157(4) -0.0043(2) 0.1274(2)
C3 C 0.2868(4) -0.0312(2) 0.0662(2)
H1 H 0.2047 0.0041 0.0578
C4 C 0.2821(4) -0.1116(2) 0.0176(2)
C5 C 0.4080(4) -0.1622(2) 0.0279(2)
H2 H 0.4056 -0.2151 -0.0055
C6 C 0.5372(4) -0.1341(2) 0.0879(2)
C7 C 0.5410(4) -0.0553(2) 0.1379(2)
H3 H 0.6272 -0.0366 0.1785
C8 C 0.1421(4) -0.1441(2) -0.0463(2)
C9 C 0.1081(4) 0.0759(2) 0.3173(2)
C10 C 0.0805(4) -0.0039(2) 0.3672(2)
C11 C -0.0632(4) -0.0553(2) 0.3504(2)
H4 H -0.1422 -0.0371 0.3114
C12 C -0.0887(4) -0.1337(2) 0.3918(2)
C13 C 0.0304(4) -0.1612(2) 0.4484(2)
H5 H 0.0143 -0.2141 0.4755
C14 C 0.1743(4) -0.1098(2) 0.4649(2)
C15 C 0.1995(4) -0.0305(2) 0.4259(2)
H6 H 0.2944 0.0047 0.4386
C16 C 0.3017(4) -0.1412(2) 0.5267(2)
C17 C -0.0218(5) 0.3044(3) 0.3270(2)
H7 H -0.0325 0.2492 0.3506
C18 C -0.0821(6) 0.3758(3) 0.3664(3)
H8 H -0.1310 0.3686 0.4156
C19 C -0.0680(6) 0.4571(3) 0.3312(3)
H9 H -0.1064 0.5058 0.3568
C20 C 0.0046(5) 0.4664(2) 0.2565(3)
C21 C 0.0198(5) 0.5501(3) 0.2146(3)
C22 C -0.0273(9) 0.6946(3) 0.2073(5)
H10 H -0.0683 0.7450 0.2279
C23 C 0.0499(9) 0.6999(3) 0.1355(6)
H11 H 0.0581 0.7540 0.1098
C24 C 0.0961(6) 0.5557(3) 0.1413(3)
C25 C 0.1584(5) 0.4778(3) 0.1055(3)
C26 C 0.2386(7) 0.4795(4) 0.0330(3)
H12 H 0.2538 0.5320 0.0052
C27 C 0.2944(7) 0.4036(4) 0.0034(4)
H13 H 0.3496 0.4044 -0.0440
C28 C 0.2678(5) 0.3250(3) 0.0449(3)
H14 H 0.3031 0.2731 0.0235
C29 C 0.1410(4) 0.3973(2) 0.1447(2)
C30 C 0.0625(4) 0.3913(2) 0.2218(2)
C31 C 0.3204(5) 0.3164(3) 0.4855(3)
H15 H 0.3056 0.2645 0.5143
C32 C 0.2675(6) 0.3944(4) 0.5176(4)
H16 H 0.2197 0.3945 0.5677
C33 C 0.2864(6) 0.4703(4) 0.4750(4)
H17 H 0.2503 0.5223 0.4954
C34 C 0.3604(5) 0.4699(3) 0.4003(3)
C35 C 0.3880(6) 0.5474(3) 0.3515(4)
C36 C 0.3659(10) 0.6943(4) 0.3319(7)
H18 H 0.3323 0.7486 0.3482
C37 C 0.4468(10) 0.6902(4) 0.2608(6)
H19 H 0.4666 0.7415 0.2318
C38 C 0.4669(6) 0.5434(3) 0.2791(3)
C39 C 0.5212(5) 0.4600(2) 0.2509(3)
C40 C 0.6034(6) 0.4512(3) 0.1801(3)
H20 H 0.6253 0.5000 0.1481
C41 C 0.6517(6) 0.3701(3) 0.1580(3)
H21 H 0.7090 0.3641 0.1119
C42 C 0.6148(5) 0.2978(3) 0.2045(2)
H22 H 0.6449 0.2428 0.1879
C43 C 0.4924(4) 0.3842(2) 0.2967(2)
C44 C 0.4124(4) 0.3889(2) 0.3731(2)
N1 N 0.0498(3) 0.31172(18) 0.25765(18)
N2 N 0.1936(3) 0.32205(19) 0.11392(19)
N3 N -0.0450(6) 0.6199(3) 0.2481(3)
N4 N 0.1131(6) 0.6324(3) 0.1010(4)
N5 N 0.3913(3) 0.3145(2) 0.41515(18)
N6 N 0.5371(3) 0.30456(19) 0.27266(18)
N7 N 0.3338(6) 0.6247(3) 0.3780(4)
N8 N 0.4967(6) 0.6145(3) 0.2330(4)
O1 O 0.3399(3) 0.13916(16) 0.16202(18)
O2 O 0.4944(3) 0.07607(18) 0.26051(17)
O3 O 0.6581(3) -0.18602(19) 0.0963(2)
H23 H 0.7409 -0.1541 0.1070
O4 O 0.0151(3) -0.11105(18) -0.04066(16)
O5 O 0.1536(3) -0.2029(2) -0.10328(18)
O6 O 0.2090(3) 0.13873(17) 0.34703(19)
O7 O 0.0264(3) 0.07608(18) 0.24391(18)
O8 O -0.2273(3) -0.1863(2) 0.3755(2)
H24 H -0.2992 -0.1548 0.3689
O9 O 0.4413(3) -0.10890(18) 0.52495(17)
O10 O 0.2685(3) -0.1985(2) 0.57699(19)
Cd1A Cd -0.10447(3) -0.188967(14) -0.170325(14)
Cd2A Cd 0.52944(3) -0.185064(14) 0.644596(14)
O4A O -0.0151(3) 0.11105(18) 0.04066(16)
O5A O -0.1536(3) 0.2029(2) 0.10328(18)
O9A O 0.5587(3) 0.10890(18) 0.47505(17)
O10A O 0.7315(3) 0.1985(2) 0.42301(19)
O11 O 0.5320(3) 0.9117(2) 0.3532(2)
H25 H 0.4828 0.9197 0.3963
H26 H 0.5729 0.9562 0.3299
O12 O 0.9326(3) 0.91177(19) 0.1314(2)
H27 H 0.9958 0.8862 0.1036
H28 H 0.9335 0.9681 0.1328
loop_
_geom_bond_atom_site_label_1
_geom_bond_atom_site_label_2
_geom_bond_site_symmetry_1
_geom_bond_site_symmetry_2
Cd1 N1 1_555 1_555
Cd2 N5 1_555 1_555
C1 C2 1_555 1_555
C2 C3 1_555 1_555
C3 H1 1_555 1_555
C4 C3 1_555 1_555
C5 C4 1_555 1_555
H2 C5 1_555 1_555
C6 C5 1_555 1_555
C7 C2 1_555 1_555
H3 C7 1_555 1_555
C8 C4 1_555 1_555
C9 C10 1_555 1_555
C10 C11 1_555 1_555
C11 H4 1_555 1_555
C12 C11 1_555 1_555
C13 C12 1_555 1_555
H5 C13 1_555 1_555
C14 C13 1_555 1_555
C15 C10 1_555 1_555
H6 C15 1_555 1_555
C16 C14 1_555 1_555
C17 H7 1_555 1_555
C18 C17 1_555 1_555
H8 C18 1_555 1_555
C19 C18 1_555 1_555
H9 C19 1_555 1_555
C20 C19 1_555 1_555
C21 C20 1_555 1_555
C22 H10 1_555 1_555
C23 C22 1_555 1_555
H11 C23 1_555 1_555
C24 C21 1_555 1_555
C25 C24 1_555 1_555
C26 C25 1_555 1_555
H12 C26 1_555 1_555
C27 C26 1_555 1_555
H13 C27 1_555 1_555
C28 C27 1_555 1_555
H14 C28 1_555 1_555
C29 C25 1_555 1_555
C30 C20 1_555 1_555
C31 H15 1_555 1_555
C32 C31 1_555 1_555
H16 C32 1_555 1_555
C33 C32 1_555 1_555
H17 C33 1_555 1_555
C34 C33 1_555 1_555
C35 C34 1_555 1_555
C36 H18 1_555 1_555
C37 C36 1_555 1_555
H19 C37 1_555 1_555
C38 C35 1_555 1_555
C39 C38 1_555 1_555
C40 C39 1_555 1_555
H20 C40 1_555 1_555
C41 C40 1_555 1_555
H21 C41 1_555 1_555
C42 C41 1_555 1_555
H22 C42 1_555 1_555
C43 C39 1_555 1_555
C44 C34 1_555 1_555
N1 C17 1_555 1_555
N2 Cd1 1_555 1_555
N3 C21 1_555 1_555
N4 C23 1_555 1_555
N5 C31 1_555 1_555
N6 Cd2 1_555 1_555
N7 C35 1_555 1_555
N8 C37 1_555 1_555
O1 Cd1 1_555 1_555
O2 Cd2 1_555 1_555
O3 C6 1_555 1_555
H23 O3 1_555 1_555
O4 C8 1_555 1_555
O5 C8 1_555 1_555
O6 Cd2 1_555 1_555
O7 Cd1 1_555 1_555
O8 C12 1_555 1_555
H24 O8 1_555 1_555
O9 C16 1_555 1_555
O10 C16 1_555 1_555
O11 H25 1_555 1_555
H26 O11 1_555 1_555
O12 H27 1_555 1_555
H28 O12 1_555 1_555
Cd1A O4 1_555 1_555
Cd2A O9 1_555 1_555
O4A Cd1 1_555 1_555
O5A Cd1 1_555 1_555
O9A Cd2 1_555 1_555
O10A Cd2 1_555 1_555
C1 O1 1_555 1_555
C1 O2 1_555 1_555
C6 C7 1_555 1_555
C9 O6 1_555 1_555
C9 O7 1_555 1_555
C14 C15 1_555 1_555
C22 N3 1_555 1_555
C24 N4 1_555 1_555
C28 N2 1_555 1_555
C29 C30 1_555 1_555
C29 N2 1_555 1_555
C30 N1 1_555 1_555
C36 N7 1_555 1_555
C38 N8 1_555 1_555
C42 N6 1_555 1_555
C43 C44 1_555 1_555
C43 N6 1_555 1_555
C44 N5 1_555 1_555
O5 Cd1A 1_555 1_555
O10 Cd2A 1_555 1_555

#END
