
#######################################################################
#
#                 Cambridge Crystallographic Data Centre
#                                CCDC 
#
#######################################################################
#
# If this CIF has been generated from an entry in the Cambridge 
# Structural Database, then it will include bibliographic, chemical, 
# crystal, experimental, refinement or atomic coordinate data resulting 
# from the CCDC's data processing and validation procedures.
#
#######################################################################

data_YAVFUY
_symmetry_cell_setting           triclinic
_symmetry_space_group_name_H-M   'P -1'
_symmetry_Int_Tables_number      2
_space_group_name_Hall           '-P 1'
loop_
_symmetry_equiv_pos_site_id
_symmetry_equiv_pos_as_xyz
1 x,y,z
2 -x,-y,-z
_cell_length_a                   5.2150(10)
_cell_length_b                   7.3356(15)
_cell_length_c                   24.001(5)
_cell_angle_alpha                97.62(3)
_cell_angle_beta                 90.62(3)
_cell_angle_gamma                95.77(3)
_cell_volume                     905.172
loop_
_atom_site_label
_atom_site_type_symbol
_atom_site_fract_x
_atom_site_fract_y
_atom_site_fract_z
O1 O 0.5659(4) 0.6958(3) -0.10200(9)
O2 O 0.1688(4) 0.6942(3) 0.56969(10)
N1 N 0.7101(4) 0.8483(3) 0.00022(10)
O3 O 0.5736(4) 0.7887(3) 0.60076(9)
N2 N 0.7993(5) 0.8737(3) 0.44798(10)
O4 O 0.6818(5) 0.9204(3) 0.19576(9)
O5 O 0.1624(4) 0.6266(3) -0.07499(10)
N3 N 0.7115(5) 0.8489(3) 0.49847(10)
O6 O 0.9860(5) 1.0790(3) 0.15156(9)
C1 C 0.6641(5) 0.8841(4) 0.09640(12)
C2 C 0.4028(5) 0.7428(4) 0.56305(12)
N4 N 0.7999(5) 0.9209(3) 0.05164(10)
C3 C 0.7876(6) 0.9699(4) 0.15267(13)
C4 C 0.7881(6) 0.8250(4) 0.34710(12)
O7 O 0.9742(5) 0.9479(3) 0.34981(10)
C5 C 0.6660(6) 0.7916(4) 0.40213(12)
C6 C 0.3945(5) 0.6834(4) -0.06642(12)
C7 C 0.3368(6) 0.6633(4) 0.45630(12)
H1 H 0.1787 0.5962 0.4605
C8 C 0.4272(6) 0.7763(4) 0.09217(13)
H2 H 0.3370 0.7524 0.1241
C9 C 0.4807(5) 0.7464(4) -0.00552(12)
C10 C 0.3319(5) 0.7071(4) 0.03952(13)
H3 H 0.1732 0.6362 0.0342
C11 C 0.4859(5) 0.7499(4) 0.50274(12)
C12 C 0.4332(6) 0.6814(4) 0.40447(13)
H4 H 0.3468 0.6225 0.3719
Li1 Li 1.0824(10) 1.0999(8) 0.4223(2)
Li2 Li 1.0899(9) 1.1703(8) 0.0796(2)
Li3 Li 0.7103(10) 0.6895(7) 0.2248(2)
O8 O 0.4489(5) 0.4788(4) 0.20777(11)
H5 H 0.449(10) 0.404(7) 0.230(2)
H6 H 0.449(9) 0.426(7) 0.170(2)
O10 O 0.9871(5) 0.5947(4) 0.18013(13)
O11 O 0.6997(5) 0.7239(4) 0.30427(10)
H9 H 0.977(14) 0.524(8) 0.1501(17)
H10 H 1.112(9) 0.559(8) 0.195(3)
O1A O 1.4341(4) 1.3042(3) 0.10200(9)
O2A O 0.8312(4) 1.3058(3) 0.43031(10)
N1A N 1.2899(4) 1.1517(3) -0.00022(10)
O3A O 1.4264(4) 1.2113(3) 0.39924(9)
O5A O 0.8376(4) 1.3734(3) 0.07499(10)
N3A N 1.2885(5) 1.1511(3) 0.50153(10)
Li1A Li -0.0824(10) 0.9001(8) 0.5777(2)
Li1A_2 Li 0.9176(10) 0.9001(8) 0.5777(2)
Li2A Li 0.9101(9) 0.8297(8) -0.0796(2)
Li2A_2 Li -0.0899(9) 0.8297(8) -0.0796(2)
N5 N 0.4289(6) 0.1897(5) 0.27436(13)
N6 N 0.1607(6) 0.1293(5) 0.26487(13)
H11 H 0.451(11) 0.188(7) 0.3107(9)
H12 H 0.138(13) 0.029(6) 0.283(2)
H13 H 0.497(9) 0.104(5) 0.2505(18)
H14 H 0.066(12) 0.221(7) 0.280(3)
H15 H 0.124(12) 0.102(8) 0.2283(10)
O9 O 0.9495(6) 0.4090(4) 0.32720(12)
H7 H 0.912(10) 0.399(8) 0.3605(11)
H8 H 0.852(9) 0.474(7) 0.3144(19)
loop_
_geom_bond_atom_site_label_1
_geom_bond_atom_site_label_2
_geom_bond_site_symmetry_1
_geom_bond_site_symmetry_2
O1 C6 1_555 1_555
O2 C2 1_555 1_555
N1 N4 1_555 1_555
O3 C2 1_555 1_555
N2 N3 1_555 1_555
O4 C3 1_555 1_555
O5 C6 1_555 1_555
N3 C11 1_555 1_555
O6 C3 1_555 1_555
C1 N4 1_555 1_555
C2 C11 1_555 1_555
N4 Li2 1_555 1_555
C3 C1 1_555 1_555
C4 O7 1_555 1_555
O7 Li1 1_555 1_555
C5 N2 1_555 1_555
C6 C9 1_555 1_555
C7 H1 1_555 1_555
C8 C1 1_555 1_555
H2 C8 1_555 1_555
C9 N1 1_555 1_555
C10 C8 1_555 1_555
H3 C10 1_555 1_555
C11 C7 1_555 1_555
C12 C5 1_555 1_555
H4 C12 1_555 1_555
Li1 N2 1_555 1_555
Li2 O6 1_555 1_555
Li3 O4 1_555 1_555
N5 N6 1_555 1_555
N6 H12 1_555 1_555
O8 Li3 1_555 1_555
H5 O8 1_555 1_555
H6 O8 1_555 1_555
O9 H7 1_555 1_555
H8 O9 1_555 1_555
O10 Li3 1_555 1_555
O11 C4 1_555 1_555
H9 O10 1_555 1_555
H10 O10 1_555 1_555
H11 N5 1_555 1_555
H13 N5 1_555 1_555
H14 N6 1_555 1_555
H15 N6 1_555 1_555
O1A Li2 1_555 1_555
O2A Li1 1_555 1_555
N1A Li2 1_555 1_555
O3A Li1 1_555 1_555
O5A Li2 1_555 1_555
N3A Li1 1_555 1_555
Li1A O2 1_555 1_555
Li1A_2 O3 1_555 1_555
Li2A O1 1_555 1_555
Li2A_2 O5 1_555 1_555
N1 Li2A 1_555 1_555
N3 Li1A_2 1_555 1_555
C4 C5 1_555 1_555
C7 C12 1_555 1_555
C9 C10 1_555 1_555
Li3 O11 1_555 1_555

#END
