
#######################################################################
#
#                 Cambridge Crystallographic Data Centre
#                                CCDC 
#
#######################################################################
#
# If this CIF has been generated from an entry in the Cambridge 
# Structural Database, then it will include bibliographic, chemical, 
# crystal, experimental, refinement or atomic coordinate data resulting 
# from the CCDC's data processing and validation procedures.
#
#######################################################################

data_YAVPOB
_symmetry_cell_setting           orthorhombic
_symmetry_space_group_name_H-M   'P n a 21'
_symmetry_Int_Tables_number      33
_space_group_name_Hall           'P 2c -2n'
loop_
_symmetry_equiv_pos_site_id
_symmetry_equiv_pos_as_xyz
1 x,y,z
2 -x,-y,1/2+z
3 1/2+x,1/2-y,z
4 1/2-x,1/2+y,1/2+z
_cell_length_a                   7.2351(10)
_cell_length_b                   16.456(2)
_cell_length_c                   10.3183(14)
_cell_angle_alpha                90
_cell_angle_beta                 90
_cell_angle_gamma                90
_cell_volume                     1228.51
loop_
_atom_site_label
_atom_site_type_symbol
_atom_site_fract_x
_atom_site_fract_y
_atom_site_fract_z
Ho1 Ho 0.109640(14) 0.582105(6) 0.80415(6)
S1 S 0.09871(9) 0.13311(5) 1.03174(10)
O1 O 0.1677(4) 0.45293(16) 0.6843(3)
O2 O 0.0864(4) 0.44537(17) 0.8876(3)
O3 O 0.2506(3) 0.19557(13) 0.4304(2)
O4 O 0.2956(4) 0.08156(13) 0.5309(2)
O5 O 0.2646(3) 0.14013(16) 1.1117(3)
O6 O -0.0612(3) 0.17047(14) 1.0942(3)
O7 O 0.0652(3) 0.04940(14) 0.9936(2)
O8 O -0.1575(5) 0.58580(17) 0.9348(3)
H1 H -0.264(2) 0.582(2) 0.908(5)
H2 H -0.163(6) 0.570(3) 1.0102(14)
O9 O -0.1555(4) 0.5533(2) 0.6766(3)
H3 H -0.215(6) 0.5924(18) 0.650(5)
H4 H -0.161(5) 0.5154(18) 0.625(3)
O10 O 0.4361(3) 0.54945(14) 0.8120(4)
H5 H 0.4858 0.5641 0.7445
H6 H 0.447(5) 0.5132(19) 0.866(3)
O11 O -0.0517(3) 0.70448(15) 0.7584(2)
H7 H -0.115(4) 0.724(2) 0.817(3)
H8 H -0.022(5) 0.7442(15) 0.715(3)
C1 C 0.1518(4) 0.31914(18) 0.7799(3)
C2 C 0.1936(4) 0.27988(18) 0.6650(3)
H9 H 0.2138 0.3101 0.5902
C3 C 0.2057(4) 0.1955(2) 0.6604(3)
C4 C 0.1823(4) 0.15074(19) 0.7727(3)
H10 H 0.1956 0.0945 0.7710
C5 C 0.1389(4) 0.1899(2) 0.8877(3)
C6 C 0.1222(4) 0.2739(2) 0.8929(3)
H11 H 0.0918 0.2997 0.9702
C7 C 0.1337(4) 0.41074(18) 0.7837(5)
C8 C 0.2514(5) 0.1556(2) 0.5334(4)
Ho1C Ho 0.390360(14) 0.082105(6) 0.30415(6)
Ho1C_2 Ho 0.390360(14) 0.082105(6) 1.30415(6)
O3C O 0.2494(3) 0.69557(13) 0.9304(2)
O4C O 0.2044(4) 0.58156(13) 1.0309(2)
O5C O 0.2354(3) 0.64013(16) 0.6117(3)
loop_
_geom_bond_atom_site_label_1
_geom_bond_atom_site_label_2
_geom_bond_site_symmetry_1
_geom_bond_site_symmetry_2
Ho1 O1 1_555 1_555
S1 O5 1_555 1_555
O1 C7 1_555 1_555
O2 Ho1 1_555 1_555
O3 C8 1_555 1_555
O4 C8 1_555 1_555
O5 Ho1C_2 1_555 1_555
O6 S1 1_555 1_555
O7 S1 1_555 1_555
O8 Ho1 1_555 1_555
H1 O8 1_555 1_555
H2 O8 1_555 1_555
O9 Ho1 1_555 1_555
H3 O9 1_555 1_555
H4 O9 1_555 1_555
O10 Ho1 1_555 1_555
H5 O10 1_555 1_555
H6 O10 1_555 1_555
O11 Ho1 1_555 1_555
H7 O11 1_555 1_555
H8 O11 1_555 1_555
C1 C2 1_555 1_555
C2 H9 1_555 1_555
C3 C2 1_555 1_555
C4 C3 1_555 1_555
H10 C4 1_555 1_555
C5 S1 1_555 1_555
C6 C1 1_555 1_555
H11 C6 1_555 1_555
C7 O2 1_555 1_555
C8 C3 1_555 1_555
Ho1C O3 1_555 1_555
O3C Ho1 1_555 1_555
O4C Ho1 1_555 1_555
O5C Ho1 1_555 1_555
O4 Ho1C 1_555 1_555
C1 C7 1_555 1_555
C4 C5 1_555 1_555
C5 C6 1_555 1_555

#END
