
#######################################################################
#
#                 Cambridge Crystallographic Data Centre
#                                CCDC 
#
#######################################################################
#
# If this CIF has been generated from an entry in the Cambridge 
# Structural Database, then it will include bibliographic, chemical, 
# crystal, experimental, refinement or atomic coordinate data resulting 
# from the CCDC's data processing and validation procedures.
#
#######################################################################

data_YAVPIV01
_symmetry_cell_setting           orthorhombic
_symmetry_space_group_name_H-M   'P n a 21'
_symmetry_Int_Tables_number      33
_space_group_name_Hall           'P 2c -2n'
loop_
_symmetry_equiv_pos_site_id
_symmetry_equiv_pos_as_xyz
1 x,y,z
2 -x,-y,1/2+z
3 1/2+x,1/2-y,z
4 1/2-x,1/2+y,1/2+z
_cell_length_a                   7.24750(10)
_cell_length_b                   16.48280(10)
_cell_length_c                   10.33500(10)
_cell_angle_alpha                90
_cell_angle_beta                 90
_cell_angle_gamma                90
_cell_volume                     1234.61
loop_
_atom_site_label
_atom_site_type_symbol
_atom_site_fract_x
_atom_site_fract_y
_atom_site_fract_z
Dy1 Dy 0.109662(14) 0.917899(6) 0.58715(3)
S1 S 0.40103(9) 0.86679(4) 0.31427(7)
O1 O 0.2349(3) 0.86033(15) 0.3939(2)
O2 O 0.5603(3) 0.82961(14) 0.3770(2)
O3 O 0.4350(4) 0.94994(14) 0.2755(2)
O4 O 0.3333(4) 0.54744(15) -0.0320(2)
O5 O 0.4130(4) 0.55550(16) 0.1710(3)
O6 O 0.2058(4) 0.91843(11) -0.1853(2)
O7 O 0.2491(4) 0.80383(12) -0.2861(2)
O8 O 0.4371(3) 0.95018(15) 0.5965(4)
H1 H 0.459(5) 0.9862(17) 0.538(3)
H2 H 0.537(4) 0.928(3) 0.622(5)
O9 O -0.1578(4) 0.94744(18) 0.4599(3)
H3 H -0.210(6) 0.9047(15) 0.429(4)
H4 H -0.157(7) 0.9853(18) 0.403(3)
O10 O -0.1589(5) 0.91453(16) 0.7189(3)
H5 H -0.154(6) 0.927(2) 0.8003(14)
H6 H -0.269(3) 0.923(3) 0.690(4)
O11 O -0.0522(4) 0.79466(13) 0.5417(2)
H7 H 0.004(5) 0.7583(17) 0.498(3)
H8 H -0.119(4) 0.7721(18) 0.600(3)
C1 C 0.3609(4) 0.81042(18) 0.1707(3)
C2 C 0.3779(4) 0.72614(19) 0.1756(3)
H9 H 0.4083 0.7004 0.2527
C3 C 0.3488(4) 0.68097(17) 0.0631(3)
C4 C 0.3062(5) 0.72004(17) -0.0514(3)
H10 H 0.2854 0.6897 -0.1258
C5 C 0.2939(4) 0.80444(18) -0.0567(3)
C6 C 0.3183(4) 0.84944(18) 0.0560(3)
H11 H 0.3059 0.9056 0.0542
C7 C 0.3657(4) 0.58950(17) 0.0668(5)
C8 C 0.2479(5) 0.84394(17) -0.1840(3)
Dy1C Dy 0.390338(14) 0.417899(6) 0.08715(3)
Dy1_2 Dy 0.109662(14) 0.917899(6) -0.41285(3)
O4C O 0.1667(4) 1.04744(15) 0.4680(2)
O5C O 0.0870(4) 1.05550(16) 0.6710(3)
O6_2 O 0.2058(4) 0.91843(11) 0.8147(2)
O7_2 O 0.2491(4) 0.80383(12) 0.7139(2)
loop_
_geom_bond_atom_site_label_1
_geom_bond_atom_site_label_2
_geom_bond_site_symmetry_1
_geom_bond_site_symmetry_2
Dy1 O1 1_555 1_555
S1 O1 1_555 1_555
O2 S1 1_555 1_555
O3 S1 1_555 1_555
O4 C7 1_555 1_555
O5 C7 1_555 1_555
O6 C8 1_555 1_555
O7 C8 1_555 1_555
O8 Dy1 1_555 1_555
H1 O8 1_555 1_555
H2 O8 1_555 1_555
O9 Dy1 1_555 1_555
H3 O9 1_555 1_555
H4 O9 1_555 1_555
O10 Dy1 1_555 1_555
H5 O10 1_555 1_555
H6 O10 1_555 1_555
O11 Dy1 1_555 1_555
H7 O11 1_555 1_555
H8 O11 1_555 1_555
C1 S1 1_555 1_555
C2 C1 1_555 1_555
H9 C2 1_555 1_555
C3 C2 1_555 1_555
C4 C3 1_555 1_555
H10 C4 1_555 1_555
C5 C4 1_555 1_555
C6 C1 1_555 1_555
H11 C6 1_555 1_555
C7 C3 1_555 1_555
C8 C5 1_555 1_555
Dy1C O4 1_555 1_555
Dy1_2 O6 1_555 1_555
O4C Dy1 1_555 1_555
O5C Dy1 1_555 1_555
O6_2 Dy1 1_555 1_555
O7_2 Dy1 1_555 1_555
O5 Dy1C 1_555 1_555
O7 Dy1_2 1_555 1_555
C5 C6 1_555 1_555

#END
