
#######################################################################
#
#                 Cambridge Crystallographic Data Centre
#                                CCDC 
#
#######################################################################
#
# If this CIF has been generated from an entry in the Cambridge 
# Structural Database, then it will include bibliographic, chemical, 
# crystal, experimental, refinement or atomic coordinate data resulting 
# from the CCDC's data processing and validation procedures.
#
#######################################################################

data_YAVTEV
_symmetry_cell_setting           monoclinic
_symmetry_space_group_name_H-M   'P 21/n'
_symmetry_Int_Tables_number      14
_space_group_name_Hall           '-P 2yn'
loop_
_symmetry_equiv_pos_site_id
_symmetry_equiv_pos_as_xyz
1 x,y,z
2 1/2-x,1/2+y,1/2-z
3 -x,-y,-z
4 1/2+x,1/2-y,1/2+z
_cell_length_a                   9.000(2)
_cell_length_b                   9.140(2)
_cell_length_c                   12.421(2)
_cell_angle_alpha                90
_cell_angle_beta                 91.048(3)
_cell_angle_gamma                90
_cell_volume                     1021.58
loop_
_atom_site_label
_atom_site_type_symbol
_atom_site_fract_x
_atom_site_fract_y
_atom_site_fract_z
Cu1 Cu 0.0000 0.5000 0.5000
N1 N 0.0335(3) 0.2902(3) 0.5389(2)
N2 N 0.0498(3) 0.0956(3) 0.6404(2)
N3 N 0.2958(3) 0.0417(3) 0.9389(2)
N4 N 0.1075(3) 0.0345(3) 0.8243(2)
C1 C 0.1410(4) 0.1993(4) 0.4988(3)
H1 H 0.1973 0.2180 0.4383
C2 C -0.0188(4) 0.2244(4) 0.6238(3)
H2 H -0.0934 0.2616 0.6667
C3 C 0.1521(4) 0.0796(4) 0.5608(3)
H3 H 0.2164 0.0011 0.5516
C4 C 0.1929(4) 0.1443(5) 0.9677(3)
H4 H 0.2016 0.2066 1.0266
C5 C 0.2395(4) -0.0218(4) 0.8523(3)
H5 H 0.2860 -0.0968 0.8151
C6 C 0.0777(4) 0.1408(5) 0.8975(3)
H6 H -0.0064 0.1998 0.8988
C7 C 0.0204(4) -0.0038(4) 0.7282(3)
H7 H 0.0445 -0.1028 0.7065
H8 H -0.0845 -0.0007 0.7446
Cu1C Cu 0.5000 0.0000 1.0000
Cu1C_2 Cu -0.5000 1.0000 0.0000
N1B N -0.0335(3) 0.7098(3) 0.4611(2)
N2B N -0.0498(3) 0.9044(3) 0.3596(2)
N3B N -0.2958(3) 0.9583(3) 0.0611(2)
N3C N -0.2042(3) 0.4583(3) 0.4389(2)
N3A N 0.2042(3) 0.5417(3) 0.5611(2)
N4B N -0.1075(3) 0.9655(3) 0.1757(2)
C1B C -0.1410(4) 0.8007(4) 0.5012(3)
H1B H -0.1973 0.7820 0.5617
C2B C 0.0188(4) 0.7756(4) 0.3762(3)
H2B H 0.0934 0.7384 0.3333
C3B C -0.1521(4) 0.9204(4) 0.4392(3)
H3B H -0.2164 0.9989 0.4484
C4B C -0.1929(4) 0.8557(5) 0.0323(3)
H4B H -0.2016 0.7934 -0.0266
C5B C -0.2395(4) 1.0218(4) 0.1477(3)
H5B H -0.2860 1.0968 0.1849
C6B C -0.0777(4) 0.8592(5) 0.1025(3)
H6B H 0.0064 0.8002 0.1012
C7B C -0.0204(4) 1.0038(4) 0.2718(3)
H7B H -0.0445 1.1028 0.2935
H8B H 0.0845 1.0007 0.2554
B1 B 0.0827(6) 0.4222(6) 0.2160(4)
F1 F 0.1166(4) 0.4655(3) 0.3192(2)
F2 F -0.0401(5) 0.3418(5) 0.2107(4)
F3 F -0.0031(10) 0.5488(8) 0.1763(5)
F5 F 0.1886(9) 0.4084(19) 0.1484(8)
F4? F 0.1436(16) 0.5030(14) 0.1482(8)
F6? F 0.1717(8) 0.2863(7) 0.2220(7)
loop_
_geom_bond_atom_site_label_1
_geom_bond_atom_site_label_2
_geom_bond_site_symmetry_1
_geom_bond_site_symmetry_2
Cu1 N1 1_555 1_555
N1 C1 1_555 1_555
N2 C2 1_555 1_555
N3 C4 1_555 1_555
N4 C5 1_555 1_555
B1 F1 1_555 1_555
F2 B1 1_555 1_555
F3 B1 1_555 1_555
F5 B1 1_555 1_555
C1 H1 1_555 1_555
C2 N1 1_555 1_555
H2 C2 1_555 1_555
C3 N2 1_555 1_555
H3 C3 1_555 1_555
C4 H4 1_555 1_555
C5 N3 1_555 1_555
H5 C5 1_555 1_555
C6 N4 1_555 1_555
H6 C6 1_555 1_555
C7 N2 1_555 1_555
H7 C7 1_555 1_555
H8 C7 1_555 1_555
Cu1C N3 1_555 1_555
Cu1C_2 N3B 1_555 1_555
N1B Cu1 1_555 1_555
N2B C2B 1_555 1_555
N3B C4B 1_555 1_555
N3C Cu1 1_555 1_555
N3A Cu1 1_555 1_555
N4B C5B 1_555 1_555
C1B N1B 1_555 1_555
H1B C1B 1_555 1_555
C2B N1B 1_555 1_555
H2B C2B 1_555 1_555
C3B N2B 1_555 1_555
H3B C3B 1_555 1_555
C4B H4B 1_555 1_555
C5B N3B 1_555 1_555
H5B C5B 1_555 1_555
C6B N4B 1_555 1_555
H6B C6B 1_555 1_555
C7B N2B 1_555 1_555
H7B C7B 1_555 1_555
H8B C7B 1_555 1_555
N4 C7 1_555 1_555
C1 C3 1_555 1_555
C4 C6 1_555 1_555
N4B C7B 1_555 1_555
C1B C3B 1_555 1_555
C4B C6B 1_555 1_555

#END
