
#######################################################################
#
#                 Cambridge Crystallographic Data Centre
#                                CCDC 
#
#######################################################################
#
# If this CIF has been generated from an entry in the Cambridge 
# Structural Database, then it will include bibliographic, chemical, 
# crystal, experimental, refinement or atomic coordinate data resulting 
# from the CCDC's data processing and validation procedures.
#
#######################################################################

data_YAVVOH
_symmetry_cell_setting           monoclinic
_symmetry_space_group_name_H-M   'P 21/m'
_symmetry_Int_Tables_number      11
_space_group_name_Hall           '-P 2yb'
loop_
_symmetry_equiv_pos_site_id
_symmetry_equiv_pos_as_xyz
1 x,y,z
2 -x,1/2+y,-z
3 -x,-y,-z
4 x,1/2-y,z
_cell_length_a                   9.740(3)
_cell_length_b                   17.466(6)
_cell_length_c                   14.327(5)
_cell_angle_alpha                90
_cell_angle_beta                 109.790(6)
_cell_angle_gamma                90
_cell_volume                     2293.35
loop_
_atom_site_label
_atom_site_type_symbol
_atom_site_fract_x
_atom_site_fract_y
_atom_site_fract_z
Cd1 Cd 0.0000 0.5000 0.0000
S1 S -0.5061(3) 0.41049(12) 0.22183(19)
S2 S 0.5131(2) 0.59277(10) 0.44701(14)
N1 N -0.1706(5) 0.4666(3) 0.0753(3)
N2 N 0.1625(5) 0.5381(3) 0.1524(3)
C1 C -0.2770(7) 0.5146(4) 0.0767(5)
H1 H -0.2834 0.5618 0.0454
C2 C -0.3763(8) 0.4978(4) 0.1215(6)
H2 H -0.4477 0.5333 0.1212
C3 C -0.3703(7) 0.4288(4) 0.1668(5)
C4 C -0.2626(7) 0.3788(4) 0.1656(5)
H3 H -0.2544 0.3313 0.1964
C5 C -0.1682(7) 0.3992(4) 0.1188(5)
H4 H -0.0976 0.3639 0.1170
C6 C -0.4530(9) 0.3210(4) 0.2862(6)
H5 H -0.3477 0.3206 0.3170
H6 H -0.4944 0.3184 0.3389
C7 C -0.4984(12) 0.2500 0.2228(8)
H7 H -0.4531 0.2500 0.1720
H8 H -0.6034 0.2500 0.1901
C8 C 0.2604(7) 0.5930(3) 0.1591(4)
H9 H 0.2554 0.6188 0.1012
C9 C 0.3668(7) 0.6141(3) 0.2442(4)
H10 H 0.4311 0.6534 0.2437
C10 C 0.3789(6) 0.5768(3) 0.3318(4)
C11 C 0.2796(7) 0.5192(4) 0.3259(5)
H11 H 0.2846 0.4911 0.3821
C12 C 0.1736(6) 0.5034(4) 0.2370(4)
H12 H 0.1049 0.4661 0.2359
C13 C 0.6051(7) 0.6784(3) 0.4284(5)
H13 H 0.6998 0.6818 0.4801
H14 H 0.6208 0.6749 0.3652
C14 C 0.5196(10) 0.7500 0.4297(7)
H15 H 0.4308 0.7500 0.3725
H16 H 0.4922 0.7500 0.4888
O1 O 0.0980(5) 0.3727(2) 0.0289(4)
Cd1C Cd 0.0000 0.0000 0.0000
Cd1C_2 Cd 0.0000 1.0000 0.0000
S1C S -0.5061(3) 0.08951(12) 0.22183(19)
S2C S 0.5131(2) 0.90723(10) 0.44701(14)
N1C N -0.1706(5) 0.0334(3) 0.0753(3)
N1B N 0.1706(5) 0.5334(3) -0.0753(3)
N2C N 0.1625(5) 0.9619(3) 0.1524(3)
N2B N -0.1625(5) 0.4619(3) -0.1524(3)
C1C C -0.2770(7) -0.0146(4) 0.0767(5)
H1C H -0.2834 -0.0618 0.0454
C2C C -0.3763(8) 0.0022(4) 0.1215(6)
H2C H -0.4477 -0.0333 0.1212
C3C C -0.3703(7) 0.0712(4) 0.1668(5)
C4C C -0.2626(7) 0.1212(4) 0.1656(5)
H3C H -0.2544 0.1687 0.1964
C5C C -0.1682(7) 0.1008(4) 0.1188(5)
H4C H -0.0976 0.1361 0.1170
C6C C -0.4530(9) 0.1790(4) 0.2862(6)
H5C H -0.3477 0.1794 0.3170
H6C H -0.4944 0.1816 0.3389
C8C C 0.2604(7) 0.9070(3) 0.1591(4)
H9C H 0.2554 0.8812 0.1012
C9C C 0.3668(7) 0.8859(3) 0.2442(4)
H10C H 0.4311 0.8466 0.2437
C10C C 0.3789(6) 0.9232(3) 0.3318(4)
C11C C 0.2796(7) 0.9808(4) 0.3259(5)
H11C H 0.2846 1.0089 0.3821
C12C C 0.1736(6) 0.9966(4) 0.2370(4)
H12C H 0.1049 1.0339 0.2359
C13C C 0.6051(7) 0.8216(3) 0.4284(5)
H13C H 0.6998 0.8182 0.4801
H14C H 0.6208 0.8251 0.3652
O1B O -0.0980(5) 0.6273(2) -0.0289(4)
Cl1 Cl 0.5391(4) 0.7500 0.0854(2)
O2 O 0.5991(13) 0.7500 0.1892(8)
O3 O 0.3744(16) 0.7500 0.0539(12)
O4 O 0.568(2) 0.6903(7) 0.0466(8)
O4C O 0.568(2) 0.8097(7) 0.0466(8)
Cl2 Cl 0.1312(3) 0.2500 0.28341(19)
O5 O -0.0031(16) 0.2500 0.2894(14)
O6 O 0.1037(16) 0.2500 0.1819(7)
O7 O 0.2101(10) 0.3131(5) 0.3208(7)
O7C O 0.2101(10) 0.1869(5) 0.3208(7)
O8 O 0.0461(17) 0.2500 0.8864(13)
O9 O 0.0064(17) 0.4193(12) 0.4350(11)
O10 O 0.873(3) 0.5123(16) 0.4256(18)
loop_
_geom_bond_atom_site_label_1
_geom_bond_atom_site_label_2
_geom_bond_site_symmetry_1
_geom_bond_site_symmetry_2
Cd1 N1 1_555 1_555
S1 C3 1_555 1_555
S2 C10 1_555 1_555
N1 C1 1_555 1_555
N2 Cd1 1_555 1_555
C1 H1 1_555 1_555
C2 C1 1_555 1_555
H2 C2 1_555 1_555
C3 C2 1_555 1_555
C4 C3 1_555 1_555
H3 C4 1_555 1_555
C5 N1 1_555 1_555
H4 C5 1_555 1_555
C6 S1 1_555 1_555
H5 C6 1_555 1_555
H6 C6 1_555 1_555
C7 C6 1_555 1_555
H7 C7 1_555 1_555
H8 C7 1_555 1_555
C8 N2 1_555 1_555
H9 C8 1_555 1_555
C9 C8 1_555 1_555
H10 C9 1_555 1_555
C10 C9 1_555 1_555
C11 C10 1_555 1_555
H11 C11 1_555 1_555
C12 N2 1_555 1_555
H12 C12 1_555 1_555
C13 S2 1_555 1_555
H13 C13 1_555 1_555
H14 C13 1_555 1_555
C14 C13 1_555 1_555
H15 C14 1_555 1_555
H16 C14 1_555 1_555
Cl1 O2 1_555 1_555
O1 Cd1 1_555 1_555
O3 Cl1 1_555 1_555
Cl2 O5 1_555 1_555
O4 Cl1 1_555 1_555
O6 Cl2 1_555 1_555
O7 Cl2 1_555 1_555
Cd1C N1C 1_555 1_555
Cd1C_2 N2C 1_555 1_555
S1C C3C 1_555 1_555
S2C C10C 1_555 1_555
N1C C1C 1_555 1_555
N1B Cd1 1_555 1_555
N2C C8C 1_555 1_555
N2B Cd1 1_555 1_555
C1C H1C 1_555 1_555
C2C C1C 1_555 1_555
H2C C2C 1_555 1_555
C3C C2C 1_555 1_555
C4C C3C 1_555 1_555
H3C C4C 1_555 1_555
C5C N1C 1_555 1_555
H4C C5C 1_555 1_555
C6C C7 1_555 1_555
H5C C6C 1_555 1_555
H6C C6C 1_555 1_555
C8C H9C 1_555 1_555
C9C C8C 1_555 1_555
H10C C9C 1_555 1_555
C10C C9C 1_555 1_555
C11C C10C 1_555 1_555
H11C C11C 1_555 1_555
C12C N2C 1_555 1_555
H12C C12C 1_555 1_555
C13C C14 1_555 1_555
H13C C13C 1_555 1_555
H14C C13C 1_555 1_555
O1B Cd1 1_555 1_555
O4C Cl1 1_555 1_555
O7C Cl2 1_555 1_555
C4 C5 1_555 1_555
C11 C12 1_555 1_555
S1C C6C 1_555 1_555
S2C C13C 1_555 1_555
C4C C5C 1_555 1_555
C11C C12C 1_555 1_555

#END
