
#######################################################################
#
#                 Cambridge Crystallographic Data Centre
#                                CCDC 
#
#######################################################################
#
# If this CIF has been generated from an entry in the Cambridge 
# Structural Database, then it will include bibliographic, chemical, 
# crystal, experimental, refinement or atomic coordinate data resulting 
# from the CCDC's data processing and validation procedures.
#
#######################################################################

data_YAVXAU
_symmetry_cell_setting           monoclinic
_symmetry_space_group_name_H-M   'P 2/a'
_symmetry_Int_Tables_number      13
_space_group_name_Hall           '-P 2ya'
loop_
_symmetry_equiv_pos_site_id
_symmetry_equiv_pos_as_xyz
1 x,y,z
2 1/2-x,y,-z
3 -x,-y,-z
4 1/2+x,-y,z
_cell_length_a                   10.102(4)
_cell_length_b                   11.720(3)
_cell_length_c                   11.062(4)
_cell_angle_alpha                90
_cell_angle_beta                 107.11(3)
_cell_angle_gamma                90
_cell_volume                     1251.73
loop_
_atom_site_label
_atom_site_type_symbol
_atom_site_fract_x
_atom_site_fract_y
_atom_site_fract_z
Eu1 Eu 0.25000 0.57791(3) 0.50000
Se1 Se 0.02405(5) 0.38403(4) 0.42894(5)
O1 O 0.25000 0.7972(4) 0.50000
O2 O 0.1310(4) 0.6267(3) 0.2650(3)
C1 C 0.0398(5) 0.2643(4) 0.3173(4)
C2 C -0.0726(6) 0.1931(4) 0.2599(5)
C3 C -0.0571(6) 0.1046(5) 0.1816(5)
C4 C 0.0675(6) 0.0852(5) 0.1588(5)
C5 C 0.1783(6) 0.1550(5) 0.2148(5)
C6 C 0.1650(5) 0.2440(4) 0.2929(5)
C7 C -0.0155(6) 0.6463(6) 0.2158(5)
C8 C -0.0365(7) 0.6935(8) 0.0865(6)
C9 C 0.0921(6) 0.6575(8) 0.0497(5)
C10 C 0.1731(6) 0.5856(5) 0.1603(5)
C11 C 0.3687(5) 0.8699(4) 0.5604(5)
C12 C 0.3282(5) 0.9879(4) 0.5074(5)
H1 H -0.160 0.205 0.274
H2 H -0.134 0.057 0.143
H3 H 0.077 0.024 0.105
H4 H 0.265 0.142 0.200
H5 H 0.242 0.292 0.330
H6 H -0.065 0.577 0.212
H7 H -0.045 0.699 0.267
H8 H -0.118 0.663 0.029
H9 H -0.044 0.774 0.087
H10 H 0.144 0.722 0.039
H11 H 0.067 0.614 -0.026
H12 H 0.270 0.596 0.175
H13 H 0.150 0.507 0.145
H14 H 0.386 0.870 0.650
H15 H 0.449 0.844 0.540
H16 H 0.299 1.047 0.553
H17 H 0.361 1.021 0.444
Se1B Se -0.02405(5) 0.61597(4) 0.57106(5)
Se1A Se 0.47595(5) 0.38403(4) 0.57106(5)
Se1C Se 0.52405(5) 0.61597(4) 0.42894(5)
O2A O 0.3690(4) 0.6267(3) 0.7350(3)
Eu1B Eu -0.25000 0.42209(3) 0.50000
C11A C 0.1313(5) 0.8699(4) 0.4396(5)
C12A C 0.1718(5) 0.9879(4) 0.4926(5)
C1B C -0.0398(5) 0.7357(4) 0.6827(4)
Eu1B_2 Eu 0.75000 0.42209(3) 0.50000
C1A C 0.4602(5) 0.2643(4) 0.6827(4)
C1C C 0.5398(5) 0.7357(4) 0.3173(4)
C7A C 0.5155(6) 0.6463(6) 0.7842(5)
C10A C 0.3269(6) 0.5856(5) 0.8397(5)
Se1A_2 Se -0.52405(5) 0.38403(4) 0.57106(5)
Se1C_2 Se -0.47595(5) 0.61597(4) 0.42894(5)
O1B O -0.25000 0.2028(4) 0.50000
O2B O -0.1310(4) 0.3733(3) 0.7350(3)
O2C O -0.3690(4) 0.3733(3) 0.2650(3)
H14A H 0.114 0.870 0.350
H15A H 0.051 0.844 0.460
H16A H 0.201 1.047 0.447
H17A H 0.139 1.021 0.556
C2B C 0.0726(6) 0.8069(4) 0.7401(5)
C6B C -0.1650(5) 0.7560(4) 0.7071(5)
C2A C 0.5726(6) 0.1931(4) 0.7401(5)
C6A C 0.3350(5) 0.2440(4) 0.7071(5)
C2C C 0.4274(6) 0.8069(4) 0.2599(5)
C6C C 0.6650(5) 0.7560(4) 0.2929(5)
C8A C 0.5365(7) 0.6935(8) 0.9135(6)
H6A H 0.565 0.577 0.788
H7A H 0.545 0.699 0.733
C9A C 0.4079(6) 0.6575(8) 0.9503(5)
H12A H 0.230 0.596 0.825
H13A H 0.350 0.507 0.855
C11B C -0.3687(5) 0.1301(4) 0.4396(5)
C11C C -0.1313(5) 0.1301(4) 0.5604(5)
C7B C 0.0155(6) 0.3537(6) 0.7842(5)
C10B C -0.1731(6) 0.4144(5) 0.8397(5)
C7C C -0.5155(6) 0.3537(6) 0.2158(5)
C10C C -0.3269(6) 0.4144(5) 0.1603(5)
C3B C 0.0571(6) 0.8954(5) 0.8184(5)
H1B H 0.160 0.795 0.726
C5B C -0.1783(6) 0.8450(5) 0.7852(5)
H5B H -0.242 0.708 0.670
C3A C 0.5571(6) 0.1046(5) 0.8184(5)
H1A H 0.660 0.205 0.726
C5A C 0.3217(6) 0.1550(5) 0.7852(5)
H5A H 0.258 0.292 0.670
C3C C 0.4429(6) 0.8954(5) 0.1816(5)
H1C H 0.340 0.795 0.274
C5C C 0.6783(6) 0.8450(5) 0.2148(5)
H5C H 0.742 0.708 0.330
H8A H 0.618 0.663 0.971
H9A H 0.544 0.774 0.913
H10A H 0.356 0.722 0.961
H11A H 0.433 0.614 1.026
C12B C -0.3282(5) 0.0121(4) 0.4926(5)
H14B H -0.386 0.130 0.350
H15B H -0.449 0.156 0.460
C12C C -0.1718(5) 0.0121(4) 0.5074(5)
H14C H -0.114 0.130 0.650
H15C H -0.051 0.156 0.540
C8B C 0.0365(7) 0.3065(8) 0.9135(6)
H6B H 0.065 0.423 0.788
H7B H 0.045 0.301 0.733
C9B C -0.0921(6) 0.3425(8) 0.9503(5)
H12B H -0.270 0.404 0.825
H13B H -0.150 0.493 0.855
C8C C -0.5365(7) 0.3065(8) 0.0865(6)
H6C H -0.565 0.423 0.212
H7C H -0.545 0.301 0.267
C9C C -0.4079(6) 0.3425(8) 0.0497(5)
H12C H -0.230 0.404 0.175
H13C H -0.350 0.493 0.145
C4B C -0.0675(6) 0.9148(5) 0.8412(5)
H2B H 0.134 0.943 0.857
H4B H -0.265 0.858 0.800
C4A C 0.4325(6) 0.0852(5) 0.8412(5)
H2A H 0.634 0.057 0.857
H4A H 0.235 0.142 0.800
C4C C 0.5675(6) 0.9148(5) 0.1588(5)
H2C H 0.366 0.943 0.143
H4C H 0.765 0.858 0.200
H16B H -0.299 -0.047 0.447
H17B H -0.361 -0.021 0.556
H16C H -0.201 -0.047 0.553
H17C H -0.139 -0.021 0.444
H8B H 0.118 0.337 0.971
H9B H 0.044 0.226 0.913
H10B H -0.144 0.278 0.961
H11B H -0.067 0.386 1.026
H8C H -0.618 0.337 0.029
H9C H -0.544 0.226 0.087
H10C H -0.356 0.278 0.039
H11C H -0.433 0.386 -0.026
H3B H -0.077 0.976 0.895
H3A H 0.423 0.024 0.895
H3C H 0.577 0.976 0.105
loop_
_geom_bond_atom_site_label_1
_geom_bond_atom_site_label_2
_geom_bond_site_symmetry_1
_geom_bond_site_symmetry_2
Eu1 Se1 1_555 1_555
Se1 C1 1_555 1_555
O1 Eu1 1_555 1_555
O2 Eu1 1_555 1_555
C1 C2 1_555 1_555
C2 C3 1_555 1_555
C3 C4 1_555 1_555
C4 C5 1_555 1_555
C5 C6 1_555 1_555
C6 C1 1_555 1_555
C7 O2 1_555 1_555
C8 C7 1_555 1_555
C9 C8 1_555 1_555
C10 O2 1_555 1_555
C11 O1 1_555 1_555
C12 C11 1_555 1_555
H1 C2 1_555 1_555
H2 C3 1_555 1_555
H3 C4 1_555 1_555
H4 C5 1_555 1_555
H5 C6 1_555 1_555
H6 C7 1_555 1_555
H7 C7 1_555 1_555
H8 C8 1_555 1_555
H9 C8 1_555 1_555
H10 C9 1_555 1_555
H11 C9 1_555 1_555
H12 C10 1_555 1_555
H13 C10 1_555 1_555
H14 C11 1_555 1_555
H15 C11 1_555 1_555
H16 C12 1_555 1_555
H17 C12 1_555 1_555
Se1B Eu1 1_555 1_555
Se1A Eu1 1_555 1_555
Se1C Eu1 1_555 1_555
O2A Eu1 1_555 1_555
Eu1B Se1 1_555 1_555
C11A O1 1_555 1_555
C12A C12 1_555 1_555
C1B Se1B 1_555 1_555
Eu1B_2 Se1A 1_555 1_555
C1A Se1A 1_555 1_555
C1C Se1C 1_555 1_555
C7A O2A 1_555 1_555
C10A O2A 1_555 1_555
Se1A_2 Eu1B 1_555 1_555
Se1C_2 Eu1B 1_555 1_555
O1B Eu1B 1_555 1_555
O2B Eu1B 1_555 1_555
O2C Eu1B 1_555 1_555
H14A C11A 1_555 1_555
H15A C11A 1_555 1_555
H16A C12A 1_555 1_555
H17A C12A 1_555 1_555
C2B C1B 1_555 1_555
C6B C1B 1_555 1_555
C2A C1A 1_555 1_555
C6A C1A 1_555 1_555
C2C C1C 1_555 1_555
C6C C1C 1_555 1_555
C8A C7A 1_555 1_555
H6A C7A 1_555 1_555
H7A C7A 1_555 1_555
C9A C10A 1_555 1_555
H12A C10A 1_555 1_555
H13A C10A 1_555 1_555
C11B O1B 1_555 1_555
C11C O1B 1_555 1_555
C7B O2B 1_555 1_555
C10B O2B 1_555 1_555
C7C O2C 1_555 1_555
C10C O2C 1_555 1_555
C3B C2B 1_555 1_555
H1B C2B 1_555 1_555
C5B C6B 1_555 1_555
H5B C6B 1_555 1_555
C3A C2A 1_555 1_555
H1A C2A 1_555 1_555
C5A C6A 1_555 1_555
H5A C6A 1_555 1_555
C3C C2C 1_555 1_555
H1C C2C 1_555 1_555
C5C C6C 1_555 1_555
H5C C6C 1_555 1_555
H8A C8A 1_555 1_555
H9A C8A 1_555 1_555
H10A C9A 1_555 1_555
H11A C9A 1_555 1_555
C12B C11B 1_555 1_555
H14B C11B 1_555 1_555
H15B C11B 1_555 1_555
C12C C11C 1_555 1_555
H14C C11C 1_555 1_555
H15C C11C 1_555 1_555
C8B C7B 1_555 1_555
H6B C7B 1_555 1_555
H7B C7B 1_555 1_555
C9B C10B 1_555 1_555
H12B C10B 1_555 1_555
H13B C10B 1_555 1_555
C8C C7C 1_555 1_555
H6C C7C 1_555 1_555
H7C C7C 1_555 1_555
C9C C10C 1_555 1_555
H12C C10C 1_555 1_555
H13C C10C 1_555 1_555
C4B C3B 1_555 1_555
H2B C3B 1_555 1_555
H4B C5B 1_555 1_555
C4A C3A 1_555 1_555
H2A C3A 1_555 1_555
H4A C5A 1_555 1_555
C4C C3C 1_555 1_555
H2C C3C 1_555 1_555
H4C C5C 1_555 1_555
H16B C12B 1_555 1_555
H17B C12B 1_555 1_555
H16C C12C 1_555 1_555
H17C C12C 1_555 1_555
H8B C8B 1_555 1_555
H9B C8B 1_555 1_555
H10B C9B 1_555 1_555
H11B C9B 1_555 1_555
H8C C8C 1_555 1_555
H9C C8C 1_555 1_555
H10C C9C 1_555 1_555
H11C C9C 1_555 1_555
H3B C4B 1_555 1_555
H3A C4A 1_555 1_555
H3C C4C 1_555 1_555
C9 C10 1_555 1_555
Se1B Eu1B 1_555 1_555
Se1C Eu1B_2 1_555 1_555
C11A C12A 1_555 1_555
C8A C9A 1_555 1_555
C5B C4B 1_555 1_555
C5A C4A 1_555 1_555
C5C C4C 1_555 1_555
C12B C12C 1_555 1_555
C8B C9B 1_555 1_555
C8C C9C 1_555 1_555

#END
