
#######################################################################
#
#                 Cambridge Crystallographic Data Centre
#                                CCDC 
#
#######################################################################
#
# If this CIF has been generated from an entry in the Cambridge 
# Structural Database, then it will include bibliographic, chemical, 
# crystal, experimental, refinement or atomic coordinate data resulting 
# from the CCDC's data processing and validation procedures.
#
#######################################################################

data_YAWRIY
_symmetry_cell_setting           monoclinic
_symmetry_space_group_name_H-M   'C 2/c'
_symmetry_Int_Tables_number      15
_space_group_name_Hall           '-C 2yn'
loop_
_symmetry_equiv_pos_site_id
_symmetry_equiv_pos_as_xyz
1 x,y,z
2 1/2+x,1/2+y,z
3 -x,y,1/2-z
4 1/2-x,1/2+y,1/2-z
5 -x,-y,-z
6 1/2-x,1/2-y,-z
7 x,-y,1/2+z
8 1/2+x,1/2-y,1/2+z
_cell_length_a                   21.5706(7)
_cell_length_b                   7.0919(2)
_cell_length_c                   17.1177(6)
_cell_angle_alpha                90
_cell_angle_beta                 93.572(2)
_cell_angle_gamma                90
_cell_volume                     2613.52
loop_
_atom_site_label
_atom_site_type_symbol
_atom_site_fract_x
_atom_site_fract_y
_atom_site_fract_z
Cu1 Cu 0.500112(18) 0.24858(7) 0.16384(2)
Si1 Si 0.5000 -0.2491(2) 0.2500
F1 F 0.49832(10) -0.0833(3) 0.17870(11)
F2 F 0.49828(11) -0.4152(3) 0.17909(11)
F3 F 0.44236(8) 0.2496(3) 0.24534(9)
F4 F 0.42273(9) -0.2491(4) 0.24727(11)
N1 N 0.56658(12) 0.2790(4) 0.08995(14)
N2 N 0.43387(13) 0.2157(4) 0.07936(15)
N3 N 0.49966(12) 0.2613(5) -0.02443(14)
H1 H 0.4991 0.2733 -0.0756
C1 C 0.37635(17) 0.1750(6) 0.1015(2)
H3 H 0.3701 0.1673 0.1559
C2 C 0.66557(17) 0.3400(5) -0.0033(2)
H4 H 0.6994 0.3605 -0.0353
C3 C 0.44235(16) 0.2233(5) 0.00224(18)
C4 C 0.39301(17) 0.1929(5) -0.05407(19)
H5 H 0.3998 0.1996 -0.1083
C5 C 0.55780(16) 0.2845(5) 0.01183(18)
C6 C 0.60682(17) 0.3167(5) -0.0365(2)
H6 H 0.5993 0.3223 -0.0918
C7 C 0.62509(17) 0.3038(5) 0.1214(2)
H7 H 0.6318 0.3006 0.1768
C8 C 0.33570(18) 0.1539(6) -0.0302(2)
H8 H 0.3020 0.1333 -0.0676
C9 C 0.32653(18) 0.1442(6) 0.0494(2)
H9 H 0.2867 0.1169 0.0672
C10 C 0.67536(17) 0.3333(5) 0.0774(2)
H10 H 0.7158 0.3488 0.1017
Cu1B Cu 0.499888(18) 0.24858(7) 0.33616(2)
Cu1_2 Cu 0.500112(18) -0.75142(7) 0.16384(2)
Cu1B_2 Cu 0.499888(18) -0.75142(7) 0.33616(2)
F1B F 0.50168(10) -0.0833(3) 0.32130(11)
F2B F 0.50172(11) -0.4152(3) 0.32091(11)
F2_2 F 0.49828(11) 0.5848(3) 0.17909(11)
F2B_2 F 0.50172(11) 0.5848(3) 0.32091(11)
F3B F 0.55764(8) 0.2496(3) 0.25466(9)
F4B F 0.57727(9) -0.2491(4) 0.25273(11)
N1B N 0.43342(12) 0.2790(4) 0.41005(14)
N2B N 0.56613(13) 0.2157(4) 0.42064(15)
N3B N 0.50034(12) 0.2613(5) 0.52443(14)
H1B H 0.5009 0.2733 0.5756
C1B C 0.62365(17) 0.1750(6) 0.3985(2)
H3B H 0.6299 0.1673 0.3441
C2B C 0.33443(17) 0.3400(5) 0.5033(2)
H4B H 0.3006 0.3605 0.5353
C3B C 0.55765(16) 0.2233(5) 0.49776(18)
C4B C 0.60699(17) 0.1929(5) 0.55407(19)
H5B H 0.6002 0.1996 0.6083
C5B C 0.44220(16) 0.2845(5) 0.48817(18)
C6B C 0.39318(17) 0.3167(5) 0.5365(2)
H6B H 0.4007 0.3223 0.5918
C7B C 0.37491(17) 0.3038(5) 0.3786(2)
H7B H 0.3682 0.3006 0.3232
C8B C 0.66430(18) 0.1539(6) 0.5302(2)
H8B H 0.6980 0.1333 0.5676
C9B C 0.67347(18) 0.1442(6) 0.4506(2)
H9B H 0.7133 0.1169 0.4328
C10B C 0.32464(17) 0.3333(5) 0.4226(2)
H10B H 0.2842 0.3488 0.3983
O1 O 0.30285(14) -0.2219(6) 0.19319(18)
H2 H 0.3398 -0.2012 0.2093
C11 C 0.2802(2) -0.3800(8) 0.2321(3)
H11 H 0.3062 -0.4898 0.2222
H12 H 0.2373 -0.4052 0.2128
H13 H 0.2815 -0.3550 0.2885
loop_
_geom_bond_atom_site_label_1
_geom_bond_atom_site_label_2
_geom_bond_site_symmetry_1
_geom_bond_site_symmetry_2
Cu1 F1 1_555 1_555
Si1 F1 1_555 1_555
F2 Si1 1_555 1_555
F3 Cu1 1_555 1_555
F4 Si1 1_555 1_555
N1 Cu1 1_555 1_555
N2 Cu1 1_555 1_555
N3 H1 1_555 1_555
O1 H2 1_555 1_555
C1 N2 1_555 1_555
H3 C1 1_555 1_555
C2 H4 1_555 1_555
C3 N2 1_555 1_555
C4 C3 1_555 1_555
H5 C4 1_555 1_555
C5 N1 1_555 1_555
C6 C2 1_555 1_555
H6 C6 1_555 1_555
C7 N1 1_555 1_555
H7 C7 1_555 1_555
C8 C4 1_555 1_555
H8 C8 1_555 1_555
C9 C1 1_555 1_555
H9 C9 1_555 1_555
C10 C2 1_555 1_555
H10 C10 1_555 1_555
C11 O1 1_555 1_555
H11 C11 1_555 1_555
H12 C11 1_555 1_555
H13 C11 1_555 1_555
Cu1B F3 1_555 1_555
Cu1_2 F2 1_555 1_555
Cu1B_2 F2B 1_555 1_555
F1B Si1 1_555 1_555
F2B Si1 1_555 1_555
F2_2 Cu1 1_555 1_555
F2B_2 Cu1B 1_555 1_555
F3B Cu1 1_555 1_555
F4B Si1 1_555 1_555
N1B Cu1B 1_555 1_555
N2B Cu1B 1_555 1_555
N3B H1B 1_555 1_555
C1B N2B 1_555 1_555
H3B C1B 1_555 1_555
C2B H4B 1_555 1_555
C3B N2B 1_555 1_555
C4B C3B 1_555 1_555
H5B C4B 1_555 1_555
C5B N1B 1_555 1_555
C6B C2B 1_555 1_555
H6B C6B 1_555 1_555
C7B N1B 1_555 1_555
H7B C7B 1_555 1_555
C8B C4B 1_555 1_555
H8B C8B 1_555 1_555
C9B C1B 1_555 1_555
H9B C9B 1_555 1_555
C10B C2B 1_555 1_555
H10B C10B 1_555 1_555
N3 C3 1_555 1_555
N3 C5 1_555 1_555
C5 C6 1_555 1_555
C7 C10 1_555 1_555
C8 C9 1_555 1_555
Cu1B F1B 1_555 1_555
Cu1B F3B 1_555 1_555
N3B C3B 1_555 1_555
N3B C5B 1_555 1_555
C5B C6B 1_555 1_555
C7B C10B 1_555 1_555
C8B C9B 1_555 1_555

#END
