
#######################################################################
#
#                 Cambridge Crystallographic Data Centre
#                                CCDC 
#
#######################################################################
#
# If this CIF has been generated from an entry in the Cambridge 
# Structural Database, then it will include bibliographic, chemical, 
# crystal, experimental, refinement or atomic coordinate data resulting 
# from the CCDC's data processing and validation procedures.
#
#######################################################################

data_YAXBUV
_symmetry_cell_setting           orthorhombic
_symmetry_space_group_name_H-M   'P n 21 a'
_symmetry_Int_Tables_number      33
_space_group_name_Hall           'P -2ac -2n'
loop_
_symmetry_equiv_pos_site_id
_symmetry_equiv_pos_as_xyz
1 x,y,z
2 1/2+x,y,1/2-z
3 1/2-x,1/2+y,1/2+z
4 -x,1/2+y,-z
_cell_length_a                   19.4223(15)
_cell_length_b                   7.3022(5)
_cell_length_c                   8.8468(7)
_cell_angle_alpha                90
_cell_angle_beta                 90
_cell_angle_gamma                90
_cell_volume                     1254.7
loop_
_atom_site_label
_atom_site_type_symbol
_atom_site_fract_x
_atom_site_fract_y
_atom_site_fract_z
O1 O 0.58452(19) 0.5669(4) 0.6162(5)
O2 O 0.5821(2) 0.8721(4) 0.6243(5)
O3 O 0.9252(2) 0.5654(4) 0.8482(5)
O4 O 0.9266(2) 0.8707(4) 0.8454(5)
O5 O 0.50471(8) 0.2160(10) 0.6400(2)
Fe1 Fe 0.50014(5) 0.4693(6) 0.49985(12)
C1 C 0.61123(11) 0.7158(12) 0.6376(3)
C2 C 0.68609(6) 0.7233(8) 0.6872(2)
C3 C 0.72036(17) 0.8881(7) 0.7100(6)
H1 H 0.6974 0.9984 0.6949
C4 C 0.78887(17) 0.8880(8) 0.7554(6)
H2 H 0.8118 0.9983 0.7707
C5 C 0.82311(6) 0.7232(9) 0.7781(2)
C6 C 0.78884(17) 0.5583(8) 0.7553(7)
H3 H 0.8118 0.4480 0.7704
C7 C 0.72033(17) 0.5584(7) 0.7098(7)
H4 H 0.6974 0.4482 0.6946
C8 C 0.89790(12) 0.7144(11) 0.8291(3)
C9 C 0.47603(17) 0.2187(15) 0.7670(3)
H5 H 0.4282 0.2145 0.7681
C10 C 0.5812(2) 0.2279(16) 0.9021(5)
H6 H 0.5959 0.2243 1.0057
H7 H 0.5982 0.3374 0.8551
H8 H 0.5988 0.1228 0.8496
C11 C 0.4713(3) 0.2072(15) 1.0415(5)
H9 H 0.5047 0.2043 1.1213
H10 H 0.4452 0.0954 1.0422
H11 H 0.4408 0.3091 1.0564
N1 N 0.50646(13) 0.2267(15) 0.8958(3)
O2C O 0.4179(2) 0.3721(4) 0.3757(5)
O3A O 0.4252(2) 0.5654(4) 0.6518(5)
O4B O 0.5734(2) 0.3707(4) 0.3454(5)
O5C O 0.49529(8) 0.7160(10) 0.3600(2)
Fe1C Fe 0.49986(5) 0.9693(6) 0.50015(12)
Fe1A Fe 1.00014(5) 0.4693(6) 1.00015(12)
Fe1B Fe 0.99986(5) 0.9693(6) 0.99985(12)
Fe1C_2 Fe 0.49986(5) -0.0307(6) 0.50015(12)
loop_
_geom_bond_atom_site_label_1
_geom_bond_atom_site_label_2
_geom_bond_site_symmetry_1
_geom_bond_site_symmetry_2
O1 Fe1 1_555 1_555
O2 C1 1_555 1_555
O3 C8 1_555 1_555
O4 C8 1_555 1_555
O5 Fe1 1_555 1_555
Fe1 O2C 1_555 1_555
C1 O1 1_555 1_555
C2 C1 1_555 1_555
C3 C2 1_555 1_555
H1 C3 1_555 1_555
C4 C3 1_555 1_555
H2 C4 1_555 1_555
C5 C4 1_555 1_555
C6 C5 1_555 1_555
H3 C6 1_555 1_555
C7 C2 1_555 1_555
H4 C7 1_555 1_555
C8 C5 1_555 1_555
C9 O5 1_555 1_555
H5 C9 1_555 1_555
C10 H6 1_555 1_555
H7 C10 1_555 1_555
H8 C10 1_555 1_555
C11 H9 1_555 1_555
H10 C11 1_555 1_555
H11 C11 1_555 1_555
N1 C9 1_555 1_555
O3A Fe1 1_555 1_555
O4B Fe1 1_555 1_555
O5C Fe1 1_555 1_555
Fe1C O2 1_555 1_555
Fe1A O3 1_555 1_555
Fe1B O4 1_555 1_555
Fe1C_2 O5 1_555 1_555
C6 C7 1_555 1_555
C10 N1 1_555 1_555
C11 N1 1_555 1_555
O5C Fe1C 1_555 1_555

#END
