
#######################################################################
#
#                 Cambridge Crystallographic Data Centre
#                                CCDC 
#
#######################################################################
#
# If this CIF has been generated from an entry in the Cambridge 
# Structural Database, then it will include bibliographic, chemical, 
# crystal, experimental, refinement or atomic coordinate data resulting 
# from the CCDC's data processing and validation procedures.
#
#######################################################################

data_YAXSEW
_symmetry_cell_setting           hexagonal
_symmetry_space_group_name_H-M   'P 62'
_symmetry_Int_Tables_number      171
_space_group_name_Hall           'P 62'
loop_
_symmetry_equiv_pos_site_id
_symmetry_equiv_pos_as_xyz
1 x,y,z
2 -y,x-y,2/3+z
3 -x+y,-x,1/3+z
4 -x,-y,z
5 y,-x+y,2/3+z
6 x-y,x,1/3+z
_cell_length_a                   21.1806(15)
_cell_length_b                   21.1806(15)
_cell_length_c                   5.6912(6)
_cell_angle_alpha                90
_cell_angle_beta                 90
_cell_angle_gamma                120
_cell_volume                     2211.11
loop_
_atom_site_label
_atom_site_type_symbol
_atom_site_fract_x
_atom_site_fract_y
_atom_site_fract_z
Na1 Na 0.24881(9) 0.23738(9) 0.0567(7)
N1 N 0.35311(19) 0.34102(19) -0.1767(7)
O1 O 0.24860(17) 0.35076(16) 0.0982(6)
O2 O 0.29457(19) 0.19266(18) -0.2282(7)
O3 O 0.28818(19) 0.19889(19) -0.6185(7)
O4 O 0.1538(2) 0.2042(3) -0.2787(9)
O5 O 0.1319(2) 0.1837(2) 0.2410(10)
C1 C 0.2718(2) 0.3909(2) -0.1181(10)
H1 H 0.2412 0.3585 -0.2491
C2 C 0.3512(2) 0.4099(2) -0.1565(10)
C3 C 0.3338(2) 0.3092(2) -0.4089(10)
H2 H 0.3778 0.333 -0.5094
H3 H 0.2975 0.3203 -0.4766
C4 C 0.3026(2) 0.2263(2) -0.4190(10)
C5 C 0.2621(2) 0.4570(2) -0.1086(10)
C6 C 0.2885(2) 0.5052(2) 0.0821(10)
C7 C 0.2789(2) 0.5650(2) 0.0913(10)
H4 H 0.2967 0.5972 0.222
C8 C 0.2432(2) 0.5782(2) -0.0913(10)
C9 C 0.2168(2) 0.5314(2) -0.2792(10)
C10 C 0.2260(2) 0.4702(2) -0.2881(10)
C11 C 0.3872(3) 0.4626(3) -0.3566(12)
C12 C 0.4236(3) 0.3507(3) -0.1034(11)
H5 H 0.090(2) 0.142(2) 0.264(16)
H6 H 0.119(5) 0.213(4) 0.165(16)
H7 H 0.206(2) 0.440(2) -0.401(10)
H8 H 0.421(2) 0.305(2) -0.108(9)
H9 H 0.393(3) 0.508(3) -0.318(11)
H10 H 0.431(3) 0.364(3) 0.063(13)
H11 H 0.360(3) 0.447(3) -0.478(12)
H12 H 0.432(3) 0.468(3) -0.391(11)
H13 H 0.376(3) 0.433(3) -0.027(10)
H14 H 0.464(2) 0.389(2) -0.205(9)
H15 H 0.237(2) 0.621(3) -0.091(11)
H16 H 0.190(3) 0.540(3) -0.441(14)
H17 H 0.309(3) 0.494(3) 0.185(11)
H18 H 0.207(3) 0.337(2) 0.120(10)
H19 H 0.133(3) 0.232(3) -0.258(14)
H20 H 0.152(4) 0.200(5) -0.437(4)
Na1_2 Na 0.24881(9) 0.23738(9) -0.9433(7)
O3_2 O 0.28818(19) 0.19889(19) 0.3815(7)
O6 O 0.0713(6) 0.0664(6) -0.1044(19)
H21 H 0.055(6) 0.080(7) -0.237(15)
H22 H 0.029(3) 0.027(4) -0.034(19)
loop_
_geom_bond_atom_site_label_1
_geom_bond_atom_site_label_2
_geom_bond_site_symmetry_1
_geom_bond_site_symmetry_2
Na1 N1 1_555 1_555
N1 C2 1_555 1_555
O1 Na1 1_555 1_555
O2 Na1 1_555 1_555
O3 C4 1_555 1_555
O4 Na1 1_555 1_555
O5 Na1 1_555 1_555
C1 O1 1_555 1_555
H1 C1 1_555 1_555
C2 C1 1_555 1_555
C3 N1 1_555 1_555
H2 C3 1_555 1_555
H3 C3 1_555 1_555
C4 O2 1_555 1_555
C5 C1 1_555 1_555
C6 C5 1_555 1_555
C7 C6 1_555 1_555
H4 C7 1_555 1_555
C8 C7 1_555 1_555
C9 C8 1_555 1_555
C10 C5 1_555 1_555
C11 C2 1_555 1_555
C12 N1 1_555 1_555
O6 H21 1_555 1_555
H5 O5 1_555 1_555
H6 O5 1_555 1_555
H7 C10 1_555 1_555
H8 C12 1_555 1_555
H9 C11 1_555 1_555
H10 C12 1_555 1_555
H11 C11 1_555 1_555
H12 C11 1_555 1_555
H13 C2 1_555 1_555
H14 C12 1_555 1_555
H15 C8 1_555 1_555
H16 C9 1_555 1_555
H17 C6 1_555 1_555
H18 O1 1_555 1_555
H19 O4 1_555 1_555
H20 O4 1_555 1_555
H22 O6 1_555 1_555
Na1_2 O3 1_555 1_555
O3_2 Na1 1_555 1_555
C3 C4 1_555 1_555
C9 C10 1_555 1_555

#END
