
#######################################################################
#
#                 Cambridge Crystallographic Data Centre
#                                CCDC 
#
#######################################################################
#
# If this CIF has been generated from an entry in the Cambridge 
# Structural Database, then it will include bibliographic, chemical, 
# crystal, experimental, refinement or atomic coordinate data resulting 
# from the CCDC's data processing and validation procedures.
#
#######################################################################

data_YAYMIW
_symmetry_cell_setting           monoclinic
_symmetry_space_group_name_H-M   'C 2'
_symmetry_Int_Tables_number      5
_space_group_name_Hall           'C 2y'
loop_
_symmetry_equiv_pos_site_id
_symmetry_equiv_pos_as_xyz
1 x,y,z
2 -x,y,-z
3 1/2+x,1/2+y,z
4 1/2-x,1/2+y,-z
_cell_length_a                   27.967(12)
_cell_length_b                   5.779(2)
_cell_length_c                   22.193(9)
_cell_angle_alpha                90
_cell_angle_beta                 114.499(6)
_cell_angle_gamma                90
_cell_volume                     3263.93
loop_
_atom_site_label
_atom_site_type_symbol
_atom_site_fract_x
_atom_site_fract_y
_atom_site_fract_z
Cu1 Cu 0.5000 0.38630(8) 0.0000
Cu2 Cu 0.5000 0.61529(8) -0.5000
C1 C 0.46415(13) 0.4103(8) -0.40099(14)
H1 H 0.4484 0.2984 -0.4333
C2 C 0.46319(13) 0.3805(8) -0.33974(14)
H2 H 0.4470 0.2507 -0.3319
C3 C 0.48610(12) 0.5422(6) -0.29001(13)
C4 C 0.50716(14) 0.7332(6) -0.30681(14)
H3 H 0.5216 0.8508 -0.2759
C5 C 0.50735(14) 0.7539(7) -0.36853(14)
H4 H 0.5224 0.8850 -0.3779
C6 C 0.52324(14) 0.6078(9) -0.10643(14)
H5 H 0.5437 0.7067 -0.0725
C7 C 0.51926(14) 0.6488(8) -0.16985(14)
H6 H 0.5365 0.7753 -0.1776
C8 C 0.49019(12) 0.5055(6) -0.22156(13)
C9 C 0.46564(15) 0.3256(7) -0.20600(14)
H7 H 0.4453 0.2229 -0.2389
C10 C 0.47071(15) 0.2946(7) -0.14175(15)
H8 H 0.4534 0.1705 -0.1330
C11 C 0.39700(12) 0.5533(7) -0.07107(15)
C12 C 0.34035(12) 0.5023(6) -0.11985(15)
H9 H 0.3323 0.3383 -0.1176
C13 C 0.33172(14) 0.5664(8) -0.19092(16)
H10 H 0.3650 0.5807 -0.1944
H11 H 0.3106 0.4502 -0.2221
C14 C 0.30340(16) 0.7959(8) -0.20397(17)
H12 H 0.3276 0.9219 -0.1993
H13 H 0.2756 0.7998 -0.2483
C15 C 0.28115(14) 0.8158(7) -0.15333(16)
C16 C 0.28717(12) 0.6080(7) -0.05432(15)
H14 H 0.2918 0.4450 -0.0428
H15 H 0.2500 0.6423 -0.0699
C17 C 0.31654(12) 0.7466(6) 0.00769(15)
C18 C 0.34544(14) 0.9446(6) 0.00901(16)
H16 H 0.3492 0.9908 -0.0290
C19 C 0.36852(14) 1.0723(7) 0.06632(17)
H17 H 0.3874 1.2055 0.0669
C20 C 0.36344(13) 1.0006(7) 0.12348(16)
C21 C 0.33527(14) 0.8051(7) 0.12251(16)
H18 H 0.3318 0.7581 0.1606
C22 C 0.31204(13) 0.6785(7) 0.06494(16)
H19 H 0.2931 0.5457 0.0646
C23 C 0.38868(15) 1.1309(9) 0.18406(18)
C24 C 0.59853(13) 0.4269(7) -0.41228(19)
C25 C 0.65122(13) 0.4584(7) -0.35245(17)
H20 H 0.6659 0.3054 -0.3359
C26 C 0.64715(15) 0.5922(10) -0.29711(17)
H21 H 0.6106 0.6156 -0.3055
H22 H 0.6643 0.5092 -0.2556
C27 C 0.6731(2) 0.8157(8) -0.2938(2)
H23 H 0.6967 0.8517 -0.2484
H24 H 0.6473 0.9385 -0.3106
C28 C 0.70316(15) 0.7914(7) -0.33565(16)
C29 C 0.71285(15) 0.5003(8) -0.41021(17)
H25 H 0.7108 0.3327 -0.4109
H26 H 0.7498 0.5421 -0.3910
C30 C 0.68836(12) 0.5865(6) -0.48025(16)
C31 C 0.65725(13) 0.7811(6) -0.49787(16)
H27 H 0.6482 0.8551 -0.4668
C32 C 0.63940(14) 0.8672(8) -0.56169(16)
H28 H 0.6188 0.9999 -0.5734
C33 C 0.65222(14) 0.7560(7) -0.60784(17)
C34 C 0.68252(14) 0.5590(7) -0.59119(18)
H29 H 0.6909 0.4829 -0.6225
C35 C 0.70030(14) 0.4764(7) -0.52756(17)
H30 H 0.7208 0.3434 -0.5161
C36 C 0.63325(18) 0.8468(10) -0.6740(2)
N1 N 0.49886(9) 0.4321(5) -0.09233(10)
N2 N 0.48661(10) 0.5916(5) -0.41594(11)
N3 N 0.30227(9) 0.6462(5) -0.10808(12)
N4 N 0.40950(15) 1.2218(8) 0.23286(18)
N5 N 0.68919(10) 0.5877(5) -0.36756(12)
N6 N 0.61744(18) 0.9186(9) -0.72624(19)
O1 O 0.42335(8) 0.3780(5) -0.04100(10)
O2 O 0.41297(10) 0.7523(5) -0.06432(15)
O3 O 0.24989(12) 0.9575(6) -0.15091(14)
O4 O 0.57516(8) 0.6045(5) -0.44214(10)
O5 O 0.58216(14) 0.2305(6) -0.4251(2)
O6 O 0.73470(12) 0.9271(6) -0.34142(13)
O7 O 0.5000 0.9925(7) -0.5000
O8 O 0.5000 0.0079(7) 0.0000
Cu2_2 Cu 0.5000 0.61529(8) 0.5000
C1A C 0.53585(13) 0.4103(8) 0.40099(14)
H1A H 0.5516 0.2984 0.4333
C2A C 0.53681(13) 0.3805(8) 0.33974(14)
H2A H 0.5530 0.2507 0.3319
C3A C 0.51390(12) 0.5422(6) 0.29001(13)
C4A C 0.49284(14) 0.7332(6) 0.30681(14)
H3A H 0.4784 0.8508 0.2759
C5A C 0.49265(14) 0.7539(7) 0.36853(14)
H4A H 0.4776 0.8850 0.3779
C6A C 0.47676(14) 0.6078(9) 0.10643(14)
H5A H 0.4563 0.7067 0.0725
C7A C 0.48074(14) 0.6488(8) 0.16985(14)
H6A H 0.4635 0.7753 0.1776
C8A C 0.50981(12) 0.5055(6) 0.22156(13)
C9A C 0.53436(15) 0.3256(7) 0.20600(14)
H7A H 0.5547 0.2229 0.2389
C10A C 0.52929(15) 0.2946(7) 0.14175(15)
H8A H 0.5466 0.1705 0.1330
C11A C 0.60300(12) 0.5533(7) 0.07107(15)
C12A C 0.65965(12) 0.5023(6) 0.11985(15)
H9A H 0.6677 0.3383 0.1176
C13A C 0.66828(14) 0.5664(8) 0.19092(16)
H10A H 0.6350 0.5807 0.1944
H11A H 0.6894 0.4502 0.2221
C14A C 0.69660(16) 0.7959(8) 0.20397(17)
H12A H 0.6724 0.9219 0.1993
H13A H 0.7244 0.7998 0.2483
C15A C 0.71885(14) 0.8158(7) 0.15333(16)
C16A C 0.71283(12) 0.6080(7) 0.05432(15)
H14A H 0.7082 0.4450 0.0428
H15A H 0.7500 0.6423 0.0699
C17A C 0.68346(12) 0.7466(6) -0.00769(15)
C18A C 0.65456(14) 0.9446(6) -0.00901(16)
H16A H 0.6508 0.9908 0.0290
C19A C 0.63148(14) 1.0723(7) -0.06632(17)
H17A H 0.6126 1.2055 -0.0669
C20A C 0.63656(13) 1.0006(7) -0.12348(16)
C21A C 0.66473(14) 0.8051(7) -0.12251(16)
H18A H 0.6682 0.7581 -0.1606
C22A C 0.68796(13) 0.6785(7) -0.06494(16)
H19A H 0.7069 0.5457 -0.0646
C23A C 0.61132(15) 1.1309(9) -0.18406(18)
C24A C 0.40147(13) 0.4269(7) -0.58772(19)
C25A C 0.34878(13) 0.4584(7) -0.64755(17)
H20A H 0.3341 0.3054 -0.6641
C26A C 0.35285(15) 0.5922(10) -0.70289(17)
H21A H 0.3894 0.6156 -0.6945
H22A H 0.3357 0.5092 -0.7444
C27A C 0.3269(2) 0.8157(8) -0.7062(2)
H23A H 0.3033 0.8517 -0.7516
H24A H 0.3527 0.9385 -0.6894
C28A C 0.29684(15) 0.7914(7) -0.66435(16)
C29A C 0.28715(15) 0.5003(8) -0.58979(17)
H25A H 0.2892 0.3327 -0.5891
H26A H 0.2502 0.5421 -0.6090
C30A C 0.31164(12) 0.5865(6) -0.51975(16)
C31A C 0.34275(13) 0.7811(6) -0.50213(16)
H27A H 0.3518 0.8551 -0.5332
C32A C 0.36060(14) 0.8672(8) -0.43831(16)
H28A H 0.3812 0.9999 -0.4266
C33A C 0.34778(14) 0.7560(7) -0.39216(17)
C34A C 0.31748(14) 0.5590(7) -0.40881(18)
H29A H 0.3091 0.4829 -0.3775
C35A C 0.29970(14) 0.4764(7) -0.47244(17)
H30A H 0.2792 0.3434 -0.4839
C36A C 0.36675(18) 0.8468(10) -0.3260(2)
N1A N 0.50114(9) 0.4321(5) 0.09233(10)
N2A N 0.51339(10) 0.5916(5) 0.41594(11)
N2A_2 N 0.51339(10) 0.5916(5) -0.58406(11)
N3A N 0.69773(9) 0.6462(5) 0.10808(12)
N4A N 0.59050(15) 1.2218(8) -0.23286(18)
N5A N 0.31081(10) 0.5877(5) -0.63244(12)
N6A N 0.38256(18) 0.9186(9) -0.27376(19)
O1A O 0.57665(8) 0.3780(5) 0.04100(10)
O2A O 0.58703(10) 0.7523(5) 0.06432(15)
O3A O 0.75011(12) 0.9575(6) 0.15091(14)
O4A O 0.42484(8) 0.6045(5) -0.55786(10)
O5A O 0.41784(14) 0.2305(6) -0.5749(2)
O6A O 0.26530(12) 0.9271(6) -0.65858(13)
loop_
_geom_bond_atom_site_label_1
_geom_bond_atom_site_label_2
_geom_bond_site_symmetry_1
_geom_bond_site_symmetry_2
Cu1 N1 1_555 1_555
Cu2 N2 1_555 1_555
C1 H1 1_555 1_555
C2 C1 1_555 1_555
H2 C2 1_555 1_555
C3 C2 1_555 1_555
C4 C3 1_555 1_555
H3 C4 1_555 1_555
C5 C4 1_555 1_555
H4 C5 1_555 1_555
C6 H5 1_555 1_555
C7 C6 1_555 1_555
H6 C7 1_555 1_555
C8 C3 1_555 1_555
C9 C8 1_555 1_555
H7 C9 1_555 1_555
C10 C9 1_555 1_555
H8 C10 1_555 1_555
C11 C12 1_555 1_555
C12 H9 1_555 1_555
C13 C12 1_555 1_555
H10 C13 1_555 1_555
H11 C13 1_555 1_555
C14 C13 1_555 1_555
H12 C14 1_555 1_555
H13 C14 1_555 1_555
C15 C14 1_555 1_555
C16 H14 1_555 1_555
H15 C16 1_555 1_555
C17 C16 1_555 1_555
C18 C17 1_555 1_555
H16 C18 1_555 1_555
C19 C18 1_555 1_555
H17 C19 1_555 1_555
C20 C19 1_555 1_555
C21 C20 1_555 1_555
H18 C21 1_555 1_555
C22 C17 1_555 1_555
H19 C22 1_555 1_555
C23 C20 1_555 1_555
C24 C25 1_555 1_555
C25 H20 1_555 1_555
C26 C25 1_555 1_555
H21 C26 1_555 1_555
H22 C26 1_555 1_555
C27 C26 1_555 1_555
H23 C27 1_555 1_555
H24 C27 1_555 1_555
C28 C27 1_555 1_555
C29 H25 1_555 1_555
H26 C29 1_555 1_555
C30 C29 1_555 1_555
C31 C30 1_555 1_555
H27 C31 1_555 1_555
C32 C31 1_555 1_555
H28 C32 1_555 1_555
C33 C32 1_555 1_555
C34 C33 1_555 1_555
H29 C34 1_555 1_555
C35 C30 1_555 1_555
H30 C35 1_555 1_555
C36 C33 1_555 1_555
N1 C6 1_555 1_555
N2 C1 1_555 1_555
N3 C12 1_555 1_555
N4 C23 1_555 1_555
N5 C25 1_555 1_555
N6 C36 1_555 1_555
O1 Cu1 1_555 1_555
O2 C11 1_555 1_555
O3 C15 1_555 1_555
O4 Cu2 1_555 1_555
O5 C24 1_555 1_555
O6 C28 1_555 1_555
O7 Cu2 1_555 1_555
O8 Cu1 1_555 1_555
Cu2_2 N2A 1_555 1_555
C1A H1A 1_555 1_555
C2A C1A 1_555 1_555
H2A C2A 1_555 1_555
C3A C2A 1_555 1_555
C4A C3A 1_555 1_555
H3A C4A 1_555 1_555
C5A C4A 1_555 1_555
H4A C5A 1_555 1_555
C6A H5A 1_555 1_555
C7A C6A 1_555 1_555
H6A C7A 1_555 1_555
C8A C3A 1_555 1_555
C9A C8A 1_555 1_555
H7A C9A 1_555 1_555
C10A C9A 1_555 1_555
H8A C10A 1_555 1_555
C11A C12A 1_555 1_555
C12A H9A 1_555 1_555
C13A C12A 1_555 1_555
H10A C13A 1_555 1_555
H11A C13A 1_555 1_555
C14A C13A 1_555 1_555
H12A C14A 1_555 1_555
H13A C14A 1_555 1_555
C15A C14A 1_555 1_555
C16A H14A 1_555 1_555
H15A C16A 1_555 1_555
C17A C16A 1_555 1_555
C18A C17A 1_555 1_555
H16A C18A 1_555 1_555
C19A C18A 1_555 1_555
H17A C19A 1_555 1_555
C20A C19A 1_555 1_555
C21A C20A 1_555 1_555
H18A C21A 1_555 1_555
C22A C17A 1_555 1_555
H19A C22A 1_555 1_555
C23A C20A 1_555 1_555
C24A C25A 1_555 1_555
C25A H20A 1_555 1_555
C26A C25A 1_555 1_555
H21A C26A 1_555 1_555
H22A C26A 1_555 1_555
C27A C26A 1_555 1_555
H23A C27A 1_555 1_555
H24A C27A 1_555 1_555
C28A C27A 1_555 1_555
C29A H25A 1_555 1_555
H26A C29A 1_555 1_555
C30A C29A 1_555 1_555
C31A C30A 1_555 1_555
H27A C31A 1_555 1_555
C32A C31A 1_555 1_555
H28A C32A 1_555 1_555
C33A C32A 1_555 1_555
C34A C33A 1_555 1_555
H29A C34A 1_555 1_555
C35A C30A 1_555 1_555
H30A C35A 1_555 1_555
C36A C33A 1_555 1_555
N1A Cu1 1_555 1_555
N2A C1A 1_555 1_555
N2A_2 Cu2 1_555 1_555
N3A C12A 1_555 1_555
N4A C23A 1_555 1_555
N5A C25A 1_555 1_555
N6A C36A 1_555 1_555
O1A Cu1 1_555 1_555
O2A C11A 1_555 1_555
O3A C15A 1_555 1_555
O4A Cu2 1_555 1_555
O5A C24A 1_555 1_555
O6A C28A 1_555 1_555
C5 N2 1_555 1_555
C7 C8 1_555 1_555
C10 N1 1_555 1_555
C11 O1 1_555 1_555
C15 N3 1_555 1_555
C16 N3 1_555 1_555
C21 C22 1_555 1_555
C24 O4 1_555 1_555
C28 N5 1_555 1_555
C29 N5 1_555 1_555
C34 C35 1_555 1_555
C5A N2A 1_555 1_555
C6A N1A 1_555 1_555
C7A C8A 1_555 1_555
C10A N1A 1_555 1_555
C11A O1A 1_555 1_555
C15A N3A 1_555 1_555
C16A N3A 1_555 1_555
C21A C22A 1_555 1_555
C24A O4A 1_555 1_555
C28A N5A 1_555 1_555
C29A N5A 1_555 1_555
C34A C35A 1_555 1_555

#END
