
#######################################################################
#
#                 Cambridge Crystallographic Data Centre
#                                CCDC 
#
#######################################################################
#
# If this CIF has been generated from an entry in the Cambridge 
# Structural Database, then it will include bibliographic, chemical, 
# crystal, experimental, refinement or atomic coordinate data resulting 
# from the CCDC's data processing and validation procedures.
#
#######################################################################

data_YAYPIZ
_symmetry_cell_setting           triclinic
_symmetry_space_group_name_H-M   'P -1'
_symmetry_Int_Tables_number      2
_space_group_name_Hall           '-P 1'
loop_
_symmetry_equiv_pos_site_id
_symmetry_equiv_pos_as_xyz
1 x,y,z
2 -x,-y,-z
_cell_length_a                   5.2055(10)
_cell_length_b                   11.404(2)
_cell_length_c                   12.408(2)
_cell_angle_alpha                64.812(2)
_cell_angle_beta                 84.183(2)
_cell_angle_gamma                81.821(2)
_cell_volume                     659.081
loop_
_atom_site_label
_atom_site_type_symbol
_atom_site_fract_x
_atom_site_fract_y
_atom_site_fract_z
U1 U 0.73229(4) -0.21590(2) -0.31242(2)
P1 P 0.2358(3) -0.13448(14) -0.53656(13)
P2 P 0.1956(3) -0.21199(15) -0.10235(14)
P3 P 0.7060(3) -0.52388(14) -0.77307(13)
O1 O 0.2411(8) 0.0031(4) -0.6335(4)
O2 O 0.4043(7) -0.1586(4) -0.4337(4)
O3 O -0.0396(7) -0.1660(4) -0.4906(3)
O4 O 0.9528(7) -0.5986(4) -0.7152(4)
O5 O 0.7870(8) -0.4361(4) -0.9082(4)
O6 O 0.4922(7) -0.6011(4) -0.7716(4)
O7 O 0.0189(8) 0.2339(4) 0.1610(4)
O8 O 0.4381(8) -0.1714(4) -0.1771(4)
O9 O 0.2788(8) -0.3443(4) 0.0092(4)
C1 C 0.3678(10) -0.2428(5) -0.6047(5)
C2 C 0.5960(11) -0.2189(6) -0.6777(5)
H1 H 0.6805 -0.1447 -0.6922
C3 C 0.6982(11) -0.3038(6) -0.7286(5)
H2 H 0.8537 -0.2878 -0.7773
C4 C 0.5748(11) -0.4121(6) -0.7091(5)
C5 C 0.3487(11) -0.4342(6) -0.6375(5)
H3 H 0.2621 -0.5074 -0.6243
C6 C 0.2481(11) -0.3519(6) -0.5852(5)
H4 H 0.0947 -0.3697 -0.5352
C7 C 0.0803(11) -0.0945(6) -0.0425(5)
C8 C 0.2172(12) -0.0885(6) 0.0453(5)
H5 H 0.3656 -0.1491 0.0759
C9 C -0.1381(12) -0.0054(6) -0.0882(6)
H6 H -0.2315 -0.0094 -0.1483
U1A U 0.26771(4) 0.21590(2) -0.68758(2)
U1A_2 U 1.26771(4) 0.21590(2) -0.68758(2)
U1_2 U 1.73229(4) -0.21590(2) -0.31242(2)
U1A_3 U 0.26771(4) 0.21590(2) 0.31242(2)
U1_3 U -0.26771(4) -0.21590(2) -0.31242(2)
U1A_4 U 1.26771(4) -0.78410(2) -0.68758(2)
U1A_5 U 0.26771(4) -0.78410(2) -0.68758(2)
U1A_6 U -0.73229(4) 0.21590(2) 0.31242(2)
U1A_7 U 2.26771(4) -0.78410(2) -0.68758(2)
P1_2 P 1.2358(3) -0.13448(14) -0.53656(13)
P2A P -0.1956(3) 0.21199(15) 0.10235(14)
P3_2 P 1.7060(3) -0.52388(14) -0.77307(13)
O1A O 0.7589(8) -0.0031(4) -0.3665(4)
O1_2 O 1.2411(8) 0.0031(4) -0.6335(4)
O1A_2 O -0.2411(8) -0.0031(4) -0.3665(4)
O2_2 O 1.4043(7) -0.1586(4) -0.4337(4)
O2_3 O -0.5957(7) -0.1586(4) -0.4337(4)
O3_2 O 0.9604(7) -0.1660(4) -0.4906(3)
O4A O 1.0472(7) -0.4014(4) -0.2848(4)
O4A_2 O 0.0472(7) -0.4014(4) -0.2848(4)
O4_2 O 1.9528(7) -0.5986(4) -0.7152(4)
O5_2 O 1.7870(8) -0.4361(4) -0.9082(4)
O6A O 0.5078(7) -0.3989(4) -0.2284(4)
O6A_2 O -0.4922(7) -0.3989(4) -0.2284(4)
O6_2 O 1.4922(7) -0.6011(4) -0.7716(4)
O7A O 0.9811(8) -0.2339(4) -0.1610(4)
O7A_2 O -0.0189(8) -0.2339(4) -0.1610(4)
O8_2 O -0.5619(8) -0.1714(4) -0.1771(4)
O8A O -0.4381(8) 0.1714(4) 0.1771(4)
O9A O -0.2788(8) 0.3443(4) -0.0092(4)
C1_2 C 1.3678(10) -0.2428(5) -0.6047(5)
C2_2 C 1.5960(11) -0.2189(6) -0.6777(5)
H1_2 H 1.6805 -0.1447 -0.6922
C3_2 C 1.6982(11) -0.3038(6) -0.7286(5)
H2_2 H 1.8537 -0.2878 -0.7773
C4_2 C 1.5748(11) -0.4121(6) -0.7091(5)
C5_2 C 1.3487(11) -0.4342(6) -0.6375(5)
H3_2 H 1.2621 -0.5074 -0.6243
C6_2 C 1.2481(11) -0.3519(6) -0.5852(5)
H4_2 H 1.0947 -0.3697 -0.5352
C7A C -0.0803(11) 0.0945(6) 0.0425(5)
C8A C -0.2172(12) 0.0885(6) -0.0453(5)
H5A H -0.3656 0.1491 -0.0759
C9A C 0.1381(12) 0.0054(6) 0.0882(6)
H6A H 0.2315 0.0094 0.1483
loop_
_geom_bond_atom_site_label_1
_geom_bond_atom_site_label_2
_geom_bond_site_symmetry_1
_geom_bond_site_symmetry_2
U1 O2 1_555 1_555
P1 O1 1_555 1_555
P2 O8 1_555 1_555
P3 O4 1_555 1_555
O1 U1A 1_555 1_555
O2 P1 1_555 1_555
O3 P1 1_555 1_555
O4 U1A_4 1_555 1_555
O5 P3 1_555 1_555
O6 P3 1_555 1_555
O7 U1A_3 1_555 1_555
O8 U1 1_555 1_555
O9 P2 1_555 1_555
C1 P1 1_555 1_555
C2 C1 1_555 1_555
H1 C2 1_555 1_555
C3 C2 1_555 1_555
H2 C3 1_555 1_555
C4 P3 1_555 1_555
C5 C4 1_555 1_555
H3 C5 1_555 1_555
C6 C1 1_555 1_555
H4 C6 1_555 1_555
C7 P2 1_555 1_555
C8 C7 1_555 1_555
H5 C8 1_555 1_555
C9 C7 1_555 1_555
H6 C9 1_555 1_555
U1A_2 O1_2 1_555 1_555
U1_2 O2_2 1_555 1_555
U1_3 O3 1_555 1_555
U1A_4 O6_2 1_555 1_555
U1A_5 O6 1_555 1_555
U1A_6 O8A 1_555 1_555
U1A_7 O4_2 1_555 1_555
P1_2 O1_2 1_555 1_555
P2A O7 1_555 1_555
P3_2 O4_2 1_555 1_555
O1A U1 1_555 1_555
O1A_2 U1_3 1_555 1_555
O2_2 P1_2 1_555 1_555
O2_3 U1_3 1_555 1_555
O3_2 U1 1_555 1_555
O4A U1 1_555 1_555
O4A_2 U1_3 1_555 1_555
O5_2 P3_2 1_555 1_555
O6A U1 1_555 1_555
O6A_2 U1_3 1_555 1_555
O6_2 P3_2 1_555 1_555
O7A U1 1_555 1_555
O7A_2 P2 1_555 1_555
O8_2 U1_3 1_555 1_555
O8A P2A 1_555 1_555
O9A P2A 1_555 1_555
C1_2 P1_2 1_555 1_555
C2_2 C1_2 1_555 1_555
H1_2 C2_2 1_555 1_555
C3_2 C2_2 1_555 1_555
H2_2 C3_2 1_555 1_555
C4_2 P3_2 1_555 1_555
C5_2 C4_2 1_555 1_555
H3_2 C5_2 1_555 1_555
C6_2 C1_2 1_555 1_555
H4_2 C6_2 1_555 1_555
C7A P2A 1_555 1_555
C8A C9 1_555 1_555
H5A C8A 1_555 1_555
C9A C8 1_555 1_555
H6A C9A 1_555 1_555
C3 C4 1_555 1_555
C5 C6 1_555 1_555
U1_3 O7A_2 1_555 1_555
P1_2 O3_2 1_555 1_555
C3_2 C4_2 1_555 1_555
C5_2 C6_2 1_555 1_555
C7A C8A 1_555 1_555
C7A C9A 1_555 1_555

#END
