
#######################################################################
#
#                 Cambridge Crystallographic Data Centre
#                                CCDC 
#
#######################################################################
#
# If this CIF has been generated from an entry in the Cambridge 
# Structural Database, then it will include bibliographic, chemical, 
# crystal, experimental, refinement or atomic coordinate data resulting 
# from the CCDC's data processing and validation procedures.
#
#######################################################################

data_YAZBOQ
_symmetry_cell_setting           triclinic
_symmetry_space_group_name_H-M   'P -1'
_symmetry_Int_Tables_number      2
_space_group_name_Hall           '-P 1'
loop_
_symmetry_equiv_pos_site_id
_symmetry_equiv_pos_as_xyz
1 x,y,z
2 -x,-y,-z
_cell_length_a                   9.0921(4)
_cell_length_b                   9.9442(4)
_cell_length_c                   16.4920(6)
_cell_angle_alpha                99.235(2)
_cell_angle_beta                 97.684(2)
_cell_angle_gamma                104.208(2)
_cell_volume                     1403.21
loop_
_atom_site_label
_atom_site_type_symbol
_atom_site_fract_x
_atom_site_fract_y
_atom_site_fract_z
Ca1 Ca 0.0000 0.5000 0.5000
Ca2 Ca 0.0000 1.0000 0.5000
S1 S -0.22756(8) 0.66698(7) 0.38585(5)
S2 S -0.22424(8) 0.16710(8) 0.38280(5)
O1 O -0.2089(3) 0.8109(2) 0.43114(14)
O2 O -0.0863(3) 0.6231(2) 0.40527(14)
O3 O -0.3656(3) 0.5676(2) 0.39820(14)
O4 O -0.2536(3) 0.8221(3) -0.33179(15)
O5 O -0.2086(2) 0.3100(2) 0.43001(13)
O6 O -0.0824(3) 0.1247(2) 0.40343(14)
O7 O -0.3621(3) 0.0644(2) 0.39088(14)
O8 O -0.2716(3) 0.3699(3) -0.32255(15)
O9 O 0.1484(3) 0.4260(3) 0.40564(16)
O10 O 0.1688(3) 0.9505(3) 0.41092(16)
N1 N -0.3079(3) 0.7030(3) 0.02560(17)
N2 N -0.2004(3) 0.7877(3) 0.00422(17)
N3 N -0.2846(3) 0.1886(3) 0.02151(17)
N4 N -0.2075(3) 0.3008(3) 0.00566(17)
C1 C -0.2478(4) 0.6737(3) 0.27850(19)
C2 C -0.1189(4) 0.7385(3) 0.2474(2)
H1 H -0.021(4) 0.7747(15) 0.2829(15)
C3 C -0.1349(4) 0.7494(3) 0.1643(2)
H2 H -0.048(4) 0.7938(19) 0.1429(9)
C4 C -0.2784(4) 0.6955(3) 0.11186(19)
C5 C -0.4059(4) 0.6268(4) 0.1432(2)
H3 H -0.507(4) 0.5851(17) 0.1057(15)
C6 C -0.3910(4) 0.6173(3) 0.2267(2)
H4 H -0.475(4) 0.5738(19) 0.2477(9)
C7 C -0.2269(4) 0.7958(3) -0.08191(19)
C8 C -0.1001(4) 0.8698(3) -0.1113(2)
H5 H -0.005(4) 0.9156(19) -0.0734(16)
C9 C -0.1115(4) 0.8775(3) -0.1946(2)
H6 H -0.026(4) 0.926(2) -0.2143(9)
C10 C -0.2504(4) 0.8137(3) -0.2492(2)
C11 C -0.3795(4) 0.7430(3) -0.2203(2)
H7 H -0.4750 0.7016 -0.2576
C12 C -0.3673(4) 0.7337(3) -0.1370(2)
H8 H -0.455(4) 0.685(2) -0.1170(8)
C13 C -0.2429(3) 0.1780(3) 0.27661(18)
C14 C -0.1923(4) 0.3082(3) 0.2537(2)
H9 H -0.1505(17) 0.390(3) 0.2943(17)
C15 C -0.2050(4) 0.3145(3) 0.1700(2)
H10 H -0.1713(14) 0.401(4) 0.1541(7)
C16 C -0.2684(4) 0.1910(3) 0.1093(2)
C17 C -0.3222(4) 0.0615(3) 0.1322(2)
H11 H -0.3693(19) -0.023(3) 0.0895(17)
C18 C -0.3086(4) 0.0538(3) 0.2163(2)
H12 H -0.3444(14) -0.037(3) 0.2330(7)
C19 C -0.2211(4) 0.3058(3) -0.08030(19)
C20 C -0.1610(4) 0.4394(3) -0.0977(2)
H13 H -0.108(2) 0.517(3) -0.0532(18)
C21 C -0.1774(4) 0.4593(3) -0.1791(2)
H14 H -0.1388(16) 0.549(4) -0.1906(5)
C22 C -0.2522(4) 0.3442(3) -0.24369(19)
C23 C -0.3070(4) 0.2093(3) -0.2270(2)
H15 H -0.354(2) 0.133(3) -0.2707(18)
C24 C -0.2920(4) 0.1903(4) -0.1458(2)
H16 H -0.3289(16) 0.101(4) -0.1345(5)
H17 H -0.339(5) 0.775(4) -0.361(3)
H18 H -0.327(6) 0.293(6) -0.356(3)
H19 H 0.182(6) 0.481(5) 0.374(3)
H20 H 0.149(5) 0.351(5) 0.391(3)
H21 H 0.190(5) 1.011(5) 0.380(3)
H22 H 0.242(6) 0.926(5) 0.423(3)
S1A S 0.22756(8) 0.33302(7) 0.61415(5)
O1A O 0.2089(3) 0.1891(2) 0.56886(14)
O2A O 0.0863(3) 0.3769(2) 0.59473(14)
O3A O 0.3656(3) 0.4324(2) 0.60180(14)
O4A O 0.2536(3) 0.1779(3) 1.33179(15)
N1A N 0.3079(3) 0.2970(3) 0.97440(17)
N2A N 0.2004(3) 0.2123(3) 0.99578(17)
C1A C 0.2478(4) 0.3263(3) 0.72150(19)
C2A C 0.1189(4) 0.2615(3) 0.7526(2)
H1A H 0.021(4) 0.2253(15) 0.7171(15)
C3A C 0.1349(4) 0.2506(3) 0.8357(2)
H2A H 0.048(4) 0.2062(19) 0.8571(9)
C4A C 0.2784(4) 0.3045(3) 0.88814(19)
C5A C 0.4059(4) 0.3732(4) 0.8568(2)
H3A H 0.507(4) 0.4149(17) 0.8943(15)
C6A C 0.3910(4) 0.3827(3) 0.7733(2)
H4A H 0.475(4) 0.4262(19) 0.7523(9)
C7A C 0.2269(4) 0.2042(3) 1.08191(19)
C8A C 0.1001(4) 0.1302(3) 1.1113(2)
H5A H 0.005(4) 0.0844(19) 1.0734(16)
C9A C 0.1115(4) 0.1225(3) 1.1946(2)
H6A H 0.026(4) 0.074(2) 1.2143(9)
C10A C 0.2504(4) 0.1863(3) 1.2492(2)
C11A C 0.3795(4) 0.2570(3) 1.2203(2)
H7A H 0.4750 0.2984 1.2576
C12A C 0.3673(4) 0.2663(3) 1.1370(2)
H8A H 0.455(4) 0.315(2) 1.1170(8)
H17A H 0.339(5) 0.225(4) 1.361(3)
S2A S 0.22424(8) 0.83290(8) 0.61720(5)
O5A O 0.2086(2) 0.6900(2) 0.56999(13)
O6A O 0.0824(3) 0.8753(2) 0.59657(14)
O7A O 0.3621(3) 0.9356(2) 0.60912(14)
O8A O 0.2716(3) 0.6301(3) 1.32255(15)
N3A N 0.2846(3) 0.8114(3) 0.97849(17)
N4A N 0.2075(3) 0.6992(3) 0.99434(17)
C13A C 0.2429(3) 0.8220(3) 0.72339(18)
C14A C 0.1923(4) 0.6918(3) 0.7463(2)
H9A H 0.1505(17) 0.610(3) 0.7057(17)
C15A C 0.2050(4) 0.6855(3) 0.8300(2)
H10A H 0.1713(14) 0.599(4) 0.8459(7)
C16A C 0.2684(4) 0.8090(3) 0.8907(2)
C17A C 0.3222(4) 0.9385(3) 0.8678(2)
H11A H 0.3693(19) 1.023(3) 0.9105(17)
C18A C 0.3086(4) 0.9462(3) 0.7837(2)
H12A H 0.3444(14) 1.037(3) 0.7670(7)
C19A C 0.2211(4) 0.6942(3) 1.08030(19)
C20A C 0.1610(4) 0.5606(3) 1.0977(2)
H13A H 0.108(2) 0.483(3) 1.0532(18)
C21A C 0.1774(4) 0.5407(3) 1.1791(2)
H14A H 0.1388(16) 0.451(4) 1.1906(5)
C22A C 0.2522(4) 0.6558(3) 1.24369(19)
C23A C 0.3070(4) 0.7907(3) 1.2270(2)
H15A H 0.354(2) 0.867(3) 1.2707(18)
C24A C 0.2920(4) 0.8097(4) 1.1458(2)
H16A H 0.3289(16) 0.899(4) 1.1345(5)
H18A H 0.327(6) 0.707(6) 1.356(3)
O9A O -0.1484(3) 0.5740(3) 0.59436(16)
H19A H -0.182(6) 0.519(5) 0.626(3)
H20A H -0.149(5) 0.649(5) 0.609(3)
O10A O -0.1688(3) 1.0495(3) 0.58908(16)
H21A H -0.190(5) 0.989(5) 0.620(3)
H22A H -0.242(6) 1.074(5) 0.577(3)
O1A_2 O 0.2089(3) 1.1891(2) 0.56886(14)
O6_2 O -0.0824(3) 1.1247(2) 0.40343(14)
Ca2_2 Ca 0.0000 0.0000 0.5000
O11 O -0.4798(3) -0.3174(3) 0.54315(17)
H23 H -0.546(6) -0.370(5) 0.553(3)
H24 H -0.447(7) -0.365(7) 0.509(4)
O12 O -0.4307(3) 0.1467(3) 0.56486(16)
H25 H -0.505(5) 0.094(5) 0.572(3)
H26 H -0.462(5) 0.180(5) 0.528(3)
loop_
_geom_bond_atom_site_label_1
_geom_bond_atom_site_label_2
_geom_bond_site_symmetry_1
_geom_bond_site_symmetry_2
Ca1 O2 1_555 1_555
Ca2 O1 1_555 1_555
S1 O1 1_555 1_555
S2 O5 1_555 1_555
O2 S1 1_555 1_555
O3 S1 1_555 1_555
O4 C10 1_555 1_555
O5 Ca1 1_555 1_555
O6 S2 1_555 1_555
O7 S2 1_555 1_555
O8 C22 1_555 1_555
O9 Ca1 1_555 1_555
O10 Ca2 1_555 1_555
O11 H23 1_555 1_555
O12 H25 1_555 1_555
N1 N2 1_555 1_555
N2 C7 1_555 1_555
N3 N4 1_555 1_555
N4 C19 1_555 1_555
C1 S1 1_555 1_555
C2 C1 1_555 1_555
H1 C2 1_555 1_555
C3 C2 1_555 1_555
H2 C3 1_555 1_555
C4 N1 1_555 1_555
C5 C4 1_555 1_555
H3 C5 1_555 1_555
C6 C1 1_555 1_555
H4 C6 1_555 1_555
C7 C8 1_555 1_555
C8 H5 1_555 1_555
C9 C8 1_555 1_555
H6 C9 1_555 1_555
C10 C9 1_555 1_555
C11 C10 1_555 1_555
H7 C11 1_555 1_555
C12 C7 1_555 1_555
H8 C12 1_555 1_555
C13 S2 1_555 1_555
C14 C13 1_555 1_555
H9 C14 1_555 1_555
C15 C14 1_555 1_555
H10 C15 1_555 1_555
C16 N3 1_555 1_555
C17 C16 1_555 1_555
H11 C17 1_555 1_555
C18 C13 1_555 1_555
H12 C18 1_555 1_555
C19 C20 1_555 1_555
C20 H13 1_555 1_555
C21 C20 1_555 1_555
H14 C21 1_555 1_555
C22 C21 1_555 1_555
C23 C22 1_555 1_555
H15 C23 1_555 1_555
C24 C19 1_555 1_555
H16 C24 1_555 1_555
H17 O4 1_555 1_555
H18 O8 1_555 1_555
H19 O9 1_555 1_555
H20 O9 1_555 1_555
H21 O10 1_555 1_555
H22 O10 1_555 1_555
H24 O11 1_555 1_555
H26 O12 1_555 1_555
S1A O1A 1_555 1_555
O1A Ca2_2 1_555 1_555
O2A Ca1 1_555 1_555
O3A S1A 1_555 1_555
O4A C10A 1_555 1_555
N1A N2A 1_555 1_555
N2A C7A 1_555 1_555
C1A S1A 1_555 1_555
C2A C1A 1_555 1_555
H1A C2A 1_555 1_555
C3A C2A 1_555 1_555
H2A C3A 1_555 1_555
C4A N1A 1_555 1_555
C5A C4A 1_555 1_555
H3A C5A 1_555 1_555
C6A C1A 1_555 1_555
H4A C6A 1_555 1_555
C7A C8A 1_555 1_555
C8A H5A 1_555 1_555
C9A C8A 1_555 1_555
H6A C9A 1_555 1_555
C10A C9A 1_555 1_555
C11A C10A 1_555 1_555
H7A C11A 1_555 1_555
C12A C7A 1_555 1_555
H8A C12A 1_555 1_555
H17A O4A 1_555 1_555
S2A O5A 1_555 1_555
O5A Ca1 1_555 1_555
O6A Ca2 1_555 1_555
O7A S2A 1_555 1_555
O8A C22A 1_555 1_555
N3A N4A 1_555 1_555
N4A C19A 1_555 1_555
C13A S2A 1_555 1_555
C14A C13A 1_555 1_555
H9A C14A 1_555 1_555
C15A C14A 1_555 1_555
H10A C15A 1_555 1_555
C16A N3A 1_555 1_555
C17A C16A 1_555 1_555
H11A C17A 1_555 1_555
C18A C13A 1_555 1_555
H12A C18A 1_555 1_555
C19A C20A 1_555 1_555
C20A H13A 1_555 1_555
C21A C20A 1_555 1_555
H14A C21A 1_555 1_555
C22A C21A 1_555 1_555
C23A C22A 1_555 1_555
H15A C23A 1_555 1_555
C24A C19A 1_555 1_555
H16A C24A 1_555 1_555
H18A O8A 1_555 1_555
O9A Ca1 1_555 1_555
H19A O9A 1_555 1_555
H20A O9A 1_555 1_555
O10A Ca2 1_555 1_555
H21A O10A 1_555 1_555
H22A O10A 1_555 1_555
O1A_2 Ca2 1_555 1_555
O6_2 Ca2 1_555 1_555
Ca2_2 O6 1_555 1_555
C3 C4 1_555 1_555
C5 C6 1_555 1_555
C11 C12 1_555 1_555
C15 C16 1_555 1_555
C17 C18 1_555 1_555
C23 C24 1_555 1_555
S1A O2A 1_555 1_555
C3A C4A 1_555 1_555
C5A C6A 1_555 1_555
C11A C12A 1_555 1_555
S2A O6A 1_555 1_555
C15A C16A 1_555 1_555
C17A C18A 1_555 1_555
C23A C24A 1_555 1_555

#END
