
#######################################################################
#
#                 Cambridge Crystallographic Data Centre
#                                CCDC 
#
#######################################################################
#
# If this CIF has been generated from an entry in the Cambridge 
# Structural Database, then it will include bibliographic, chemical, 
# crystal, experimental, refinement or atomic coordinate data resulting 
# from the CCDC's data processing and validation procedures.
#
#######################################################################

data_YAZLEQ
_symmetry_cell_setting           monoclinic
_symmetry_space_group_name_H-M   'C 2/c'
_symmetry_Int_Tables_number      15
_space_group_name_Hall           '-C 2yn'
loop_
_symmetry_equiv_pos_site_id
_symmetry_equiv_pos_as_xyz
1 x,y,z
2 1/2+x,1/2+y,z
3 x,-y,1/2+z
4 1/2+x,1/2-y,1/2+z
5 -x,-y,-z
6 1/2-x,1/2-y,-z
7 -x,y,1/2-z
8 1/2-x,1/2+y,1/2-z
_cell_length_a                   35.036(9)
_cell_length_b                   5.4102(15)
_cell_length_c                   15.978(4)
_cell_angle_alpha                90
_cell_angle_beta                 98.050(7)
_cell_angle_gamma                90
_cell_volume                     2998.81
loop_
_atom_site_label
_atom_site_type_symbol
_atom_site_fract_x
_atom_site_fract_y
_atom_site_fract_z
S1 S 0.04929(2) 0.23126(16) 0.43584(5)
Na1 Na -0.01230(4) -0.2452(3) 0.37631(8)
O1 O 0.03044(7) 0.1080(5) 0.35931(14)
O2 O 0.04320(7) 0.1005(5) 0.51191(14)
O3 O 0.03916(7) 0.4928(5) 0.43632(15)
O4 O 0.38191(8) 0.1905(6) 0.31283(17)
H1 H 0.3947(16) 0.089(11) 0.334(4)
O5 O 0.27751(8) -0.1070(5) 0.44313(17)
H2 H 0.2546(15) -0.050(10) 0.442(3)
N1 N 0.21610(8) 0.1488(6) 0.41156(17)
N2 N 0.23135(8) 0.3110(6) 0.36814(17)
C1 C 0.09923(9) 0.2181(7) 0.4302(2)
C2 C 0.11608(10) 0.3972(7) 0.3846(2)
H3 H 0.1010 0.5292 0.3585
C3 C 0.15482(11) 0.3818(7) 0.3775(2)
H4 H 0.1666 0.5041 0.3469
C4 C 0.17644(10) 0.1867(7) 0.4152(2)
C5 C 0.15937(11) 0.0080(8) 0.4603(2)
H5 H 0.1743 -0.1254 0.4859
C6 C 0.12075(10) 0.0245(8) 0.4679(2)
H6 H 0.1090 -0.0970 0.4988
C7 C 0.26982(10) 0.2661(7) 0.3605(2)
C8 C 0.28689(11) 0.4395(8) 0.3118(2)
H7 H 0.2724 0.5786 0.2894
C9 C 0.32395(10) 0.4118(7) 0.2959(2)
H8 H 0.3350 0.5282 0.2618
C10 C 0.34539(10) 0.2104(7) 0.3306(2)
C11 C 0.32960(10) 0.0369(7) 0.3796(2)
H9 H 0.3446 -0.1000 0.4023
C12 C 0.29206(10) 0.0634(7) 0.3953(2)
O6 O 0.0000 -0.4711(8) 0.2500
H10 H 0.0168(17) -0.583(12) 0.270(4)
O7 O -0.06243(9) -0.5923(6) 0.38770(19)
H11 H -0.0615(14) -0.761(10) 0.360(3)
H12 H -0.0596(19) -0.637(13) 0.423(5)
O8 O -0.05851(8) -0.0035(5) 0.28978(16)
H13 H -0.0812(13) -0.090(8) 0.287(3)
H14 H -0.0546(17) 0.031(13) 0.239(5)
H10F H -0.0168(17) -0.583(12) 0.230(4)
S1D S -0.04929(2) -0.23126(16) 0.56416(5)
O1D O -0.03044(7) -0.1080(5) 0.64069(14)
O2D O -0.04320(7) -0.1005(5) 0.48809(14)
O3D O -0.03916(7) -0.4928(5) 0.56368(15)
O4D O -0.38191(8) -0.1905(6) 0.68717(17)
H1D H -0.3947(16) -0.089(11) 0.666(4)
O5D O -0.27751(8) 0.1070(5) 0.55687(17)
H2D H -0.2546(15) 0.050(10) 0.558(3)
N1D N -0.21610(8) -0.1488(6) 0.58844(17)
N2D N -0.23135(8) -0.3110(6) 0.63186(17)
C1D C -0.09923(9) -0.2181(7) 0.5698(2)
C2D C -0.11608(10) -0.3972(7) 0.6154(2)
H3D H -0.1010 -0.5292 0.6415
C3D C -0.15482(11) -0.3818(7) 0.6225(2)
H4D H -0.1666 -0.5041 0.6531
C4D C -0.17644(10) -0.1867(7) 0.5848(2)
C5D C -0.15937(11) -0.0080(8) 0.5397(2)
H5D H -0.1743 0.1254 0.5141
C6D C -0.12075(10) -0.0245(8) 0.5321(2)
H6D H -0.1090 0.0970 0.5012
C7D C -0.26982(10) -0.2661(7) 0.6395(2)
C8D C -0.28689(11) -0.4395(8) 0.6882(2)
H7D H -0.2724 -0.5786 0.7106
C9D C -0.32395(10) -0.4118(7) 0.7041(2)
H8D H -0.3350 -0.5282 0.7382
C10D C -0.34539(10) -0.2104(7) 0.6694(2)
C11D C -0.32960(10) -0.0369(7) 0.6204(2)
H9D H -0.3446 0.1000 0.5977
C12D C -0.29206(10) -0.0634(7) 0.6047(2)
Na1D Na 0.01230(4) 0.2452(3) 0.62369(8)
O7D O 0.06243(9) 0.5923(6) 0.61230(19)
H11D H 0.0615(14) 0.761(10) 0.640(3)
H12D H 0.0596(19) 0.637(13) 0.577(5)
O8D O 0.05851(8) 0.0035(5) 0.71022(16)
H13D H 0.0812(13) 0.090(8) 0.713(3)
H14D H 0.0546(17) -0.031(13) 0.761(5)
O3_2 O 0.03916(7) -0.5072(5) 0.43632(15)
Na1_2 Na -0.01230(4) 0.7548(3) 0.37631(8)
Na1F Na 0.01230(4) -0.2452(3) 0.12369(8)
Na1D_2 Na 0.01230(4) -0.7548(3) 0.62369(8)
O3D_2 O -0.03916(7) 0.5072(5) 0.56368(15)
O6B O 0.0000 0.4711(8) 0.7500
H10B H 0.0168(17) 0.583(12) 0.770(4)
H10D H -0.0168(17) 0.583(12) 0.730(4)
loop_
_geom_bond_atom_site_label_1
_geom_bond_atom_site_label_2
_geom_bond_site_symmetry_1
_geom_bond_site_symmetry_2
S1 O1 1_555 1_555
Na1 O1 1_555 1_555
O2 S1 1_555 1_555
O3 S1 1_555 1_555
O4 H1 1_555 1_555
O5 H2 1_555 1_555
N1 N2 1_555 1_555
N2 C7 1_555 1_555
C1 S1 1_555 1_555
C2 C1 1_555 1_555
H3 C2 1_555 1_555
C3 C2 1_555 1_555
H4 C3 1_555 1_555
C4 N1 1_555 1_555
C5 C4 1_555 1_555
H5 C5 1_555 1_555
C6 C1 1_555 1_555
H6 C6 1_555 1_555
C7 C8 1_555 1_555
C8 H7 1_555 1_555
C9 C8 1_555 1_555
H8 C9 1_555 1_555
C10 O4 1_555 1_555
C11 C10 1_555 1_555
H9 C11 1_555 1_555
C12 O5 1_555 1_555
O6 Na1 1_555 1_555
H10 O6 1_555 1_555
O7 Na1 1_555 1_555
H11 O7 1_555 1_555
H12 O7 1_555 1_555
O8 Na1 1_555 1_555
H13 O8 1_555 1_555
H14 O8 1_555 1_555
H10F O6 1_555 1_555
S1D O1D 1_555 1_555
O1D Na1D 1_555 1_555
O2D Na1 1_555 1_555
O3D S1D 1_555 1_555
O4D H1D 1_555 1_555
O5D H2D 1_555 1_555
N1D N2D 1_555 1_555
N2D C7D 1_555 1_555
C1D S1D 1_555 1_555
C2D C1D 1_555 1_555
H3D C2D 1_555 1_555
C3D C2D 1_555 1_555
H4D C3D 1_555 1_555
C4D N1D 1_555 1_555
C5D C4D 1_555 1_555
H5D C5D 1_555 1_555
C6D C1D 1_555 1_555
H6D C6D 1_555 1_555
C7D C8D 1_555 1_555
C8D H7D 1_555 1_555
C9D C8D 1_555 1_555
H8D C9D 1_555 1_555
C10D O4D 1_555 1_555
C11D C10D 1_555 1_555
H9D C11D 1_555 1_555
C12D O5D 1_555 1_555
Na1D O2 1_555 1_555
O7D Na1D 1_555 1_555
H11D O7D 1_555 1_555
H12D O7D 1_555 1_555
O8D Na1D 1_555 1_555
H13D O8D 1_555 1_555
H14D O8D 1_555 1_555
O3_2 Na1 1_555 1_555
Na1_2 O3 1_555 1_555
Na1F O6 1_555 1_555
Na1D_2 O3D 1_555 1_555
O3D_2 Na1D 1_555 1_555
O6B Na1D 1_555 1_555
H10B O6B 1_555 1_555
H10D O6B 1_555 1_555
C3 C4 1_555 1_555
C5 C6 1_555 1_555
C7 C12 1_555 1_555
C9 C10 1_555 1_555
C11 C12 1_555 1_555
S1D O2D 1_555 1_555
C3D C4D 1_555 1_555
C5D C6D 1_555 1_555
C7D C12D 1_555 1_555
C9D C10D 1_555 1_555
C11D C12D 1_555 1_555

#END
