
#######################################################################
#
#                 Cambridge Crystallographic Data Centre
#                                CCDC 
#
#######################################################################
#
# If this CIF has been generated from an entry in the Cambridge 
# Structural Database, then it will include bibliographic, chemical, 
# crystal, experimental, refinement or atomic coordinate data resulting 
# from the CCDC's data processing and validation procedures.
#
#######################################################################

data_YAZVUR
_symmetry_cell_setting           monoclinic
_symmetry_space_group_name_H-M   'P 21/c'
_symmetry_Int_Tables_number      14
_space_group_name_Hall           '-P 2ybc'
loop_
_symmetry_equiv_pos_site_id
_symmetry_equiv_pos_as_xyz
1 x,y,z
2 -x,1/2+y,1/2-z
3 -x,-y,-z
4 x,1/2-y,1/2+z
_cell_length_a                   14.4809(2)
_cell_length_b                   13.1428(2)
_cell_length_c                   16.7640(2)
_cell_angle_alpha                90
_cell_angle_beta                 99.90
_cell_angle_gamma                90
_cell_volume                     3143.01
loop_
_atom_site_label
_atom_site_type_symbol
_atom_site_fract_x
_atom_site_fract_y
_atom_site_fract_z
Sm1 Sm 0.048780(8) 0.347380(10) -0.150540(7)
Ni1 Ni 0.24428(2) -0.00875(2) -0.329460(18)
O1 O 0.13658(14) 0.21322(15) -0.20053(12)
O2 O 0.16284(12) 0.11223(13) -0.30111(10)
N1 N 0.29737(14) 0.01158(16) -0.20710(12)
C1 C 0.18104(17) 0.14439(19) -0.22819(15)
C2 C 0.25950(17) 0.0912(2) -0.17356(15)
C3 C 0.2882(2) 0.1212(3) -0.09403(17)
H1 H 0.2615 0.1775 -0.0732
C4 C 0.3581(2) 0.0649(3) -0.04615(19)
H2 H 0.3797 0.0831 0.0074
C5 C 0.3946(2) -0.0182(3) -0.07953(19)
H3 H 0.4398 -0.0582 -0.0481
C6 C 0.36380(18) -0.0420(2) -0.15979(17)
H4 H 0.3903 -0.0975 -0.1819
O3 O -0.09242(12) 0.23098(14) -0.17118(12)
O4 O -0.13703(12) 0.39134(14) -0.18521(10)
N2 N -0.30917(14) 0.35100(16) -0.15953(13)
C7 C -0.15479(17) 0.2978(2) -0.17597(15)
C8 C -0.25355(17) 0.2710(2) -0.16670(15)
C9 C -0.2847(2) 0.1715(2) -0.1653(2)
H5 H -0.2447 0.1175 -0.1707
C10 C -0.3767(2) 0.1539(2) -0.1556(2)
H6 H -0.3994 0.0879 -0.1540
C11 C -0.4332(2) 0.2357(2) -0.14852(18)
H7 H -0.4954 0.2260 -0.1428
C12 C -0.39753(18) 0.3321(2) -0.14998(17)
H8 H -0.4364 0.3869 -0.1441
O5 O 0.18652(13) 0.39908(16) -0.05964(11)
O6 O 0.17708(11) 0.48780(14) 0.05232(10)
N3 N 0.34564(14) 0.42847(16) 0.12325(12)
C13 C 0.21986(17) 0.43343(19) 0.00858(15)
C14 C 0.32052(17) 0.4078(2) 0.04367(15)
C15 C 0.3826(2) 0.3690(3) -0.00286(18)
H9 H 0.3636 0.3562 -0.0578
C16 C 0.4742(2) 0.3498(3) 0.0350(2)
H10 H 0.5178 0.3241 0.0055
C17 C 0.4998(2) 0.3691(3) 0.1166(2)
H11 H 0.5606 0.3562 0.1430
C18 C 0.43363(18) 0.4078(2) 0.15853(17)
H12 H 0.4510 0.4202 0.2137
O15 O 0.07590(15) 0.20672(15) -0.05259(11)
H13 H 0.085(2) 0.2178(18) -0.0014(3)
H14 H 0.0878(14) 0.1441(5) -0.0610(14)
O16 O 0.01802(12) 0.53007(15) -0.15266(14)
H15 H 0.0698(4) 0.5623(9) -0.1503(17)
H16 H -0.0318(5) 0.5667(8) -0.1629(19)
O17 O 0.15547(12) 0.43708(17) -0.22537(11)
H17 H 0.1375(17) 0.4690(9) -0.2700(5)
H18 H 0.2152(4) 0.443(2) -0.2144(18)
O18 O -0.01704(14) 0.38478(15) -0.02750(11)
H19 H -0.0338(9) 0.3336(3) -0.0014(6)
H20 H -0.0569(5) 0.4339(4) -0.0309(10)
O19 O -0.01184(12) 0.34865(17) -0.29567(11)
H21 H -0.0694(4) 0.340(2) -0.3170(12)
H22 H 0.0276(5) 0.3245(11) -0.3234(6)
Ni1A Ni -0.24428(2) 0.49125(2) -0.170540(18)
Ni1C Ni 0.24428(2) 0.50875(2) 0.170540(18)
O4A O 0.13703(12) -0.10866(14) -0.31479(10)
N2A N 0.30917(14) -0.14900(16) -0.34047(13)
O6C O 0.17708(11) 0.01220(14) -0.44768(10)
N3C N 0.34564(14) 0.07153(16) -0.37675(12)
Cl1 Cl -0.21795(5) 0.23155(7) -0.41767(5)
O7 O -0.2034(2) 0.3215(3) -0.3687(2)
O8 O -0.1848(4) 0.1513(4) -0.3710(4)
O9 O -0.1541(3) 0.2409(4) -0.4740(3)
O10 O -0.3065(2) 0.2251(4) -0.4590(2)
Cl2 Cl -0.36044(5) -0.37052(6) -0.70940(5)
O11 O -0.3420(2) -0.2722(2) -0.7348(2)
O12 O -0.3619(2) -0.4382(2) -0.77626(19)
O13 O -0.44681(17) -0.3770(3) -0.6822(2)
O14 O -0.28633(17) -0.4046(2) -0.64687(17)
O20 O 0.11791(14) 0.21374(14) -0.89107(11)
H23 H 0.128(2) 0.2718(5) -0.8677(8)
H24 H 0.1600(6) 0.1682(7) -0.8768(16)
O21 O -0.08333(15) 0.47246(15) -0.62290(15)
H25 H -0.086(2) 0.4088(4) -0.6350(13)
H26 H -0.0247(4) 0.4845(19) -0.6067(17)
O22 O -0.10795(19) 0.00558(18) -0.95669(15)
H27 H -0.1046(15) 0.0244(15) -1.0053(4)
H28 H -0.1320(8) 0.0602(6) -0.9407(10)
loop_
_geom_bond_atom_site_label_1
_geom_bond_atom_site_label_2
_geom_bond_site_symmetry_1
_geom_bond_site_symmetry_2
Sm1 O1 1_555 1_555
Ni1 O2 1_555 1_555
O1 C1 1_555 1_555
O2 C1 1_555 1_555
N1 Ni1 1_555 1_555
C1 C2 1_555 1_555
C2 N1 1_555 1_555
C3 C2 1_555 1_555
H1 C3 1_555 1_555
C4 C3 1_555 1_555
H2 C4 1_555 1_555
C5 C4 1_555 1_555
H3 C5 1_555 1_555
C6 N1 1_555 1_555
H4 C6 1_555 1_555
O3 Sm1 1_555 1_555
O4 Sm1 1_555 1_555
N2 C8 1_555 1_555
C7 O3 1_555 1_555
C8 C7 1_555 1_555
C9 C8 1_555 1_555
H5 C9 1_555 1_555
C10 C9 1_555 1_555
H6 C10 1_555 1_555
C11 C10 1_555 1_555
H7 C11 1_555 1_555
C12 N2 1_555 1_555
H8 C12 1_555 1_555
O5 Sm1 1_555 1_555
O6 C13 1_555 1_555
N3 C14 1_555 1_555
C13 O5 1_555 1_555
C14 C13 1_555 1_555
C15 C14 1_555 1_555
H9 C15 1_555 1_555
C16 C15 1_555 1_555
H10 C16 1_555 1_555
C17 C16 1_555 1_555
H11 C17 1_555 1_555
C18 N3 1_555 1_555
H12 C18 1_555 1_555
Cl1 O7 1_555 1_555
O8 Cl1 1_555 1_555
O9 Cl1 1_555 1_555
O10 Cl1 1_555 1_555
Cl2 O11 1_555 1_555
O12 Cl2 1_555 1_555
O13 Cl2 1_555 1_555
O14 Cl2 1_555 1_555
O15 Sm1 1_555 1_555
H13 O15 1_555 1_555
H14 O15 1_555 1_555
O16 Sm1 1_555 1_555
H15 O16 1_555 1_555
H16 O16 1_555 1_555
O17 Sm1 1_555 1_555
H17 O17 1_555 1_555
H18 O17 1_555 1_555
O18 Sm1 1_555 1_555
H19 O18 1_555 1_555
H20 O18 1_555 1_555
O19 Sm1 1_555 1_555
H21 O19 1_555 1_555
H22 O19 1_555 1_555
O20 H23 1_555 1_555
H24 O20 1_555 1_555
O21 H25 1_555 1_555
H26 O21 1_555 1_555
O22 H27 1_555 1_555
H28 O22 1_555 1_555
Ni1A O4 1_555 1_555
Ni1C O6 1_555 1_555
O4A Ni1 1_555 1_555
N2A Ni1 1_555 1_555
O6C Ni1 1_555 1_555
N3C Ni1 1_555 1_555
C5 C6 1_555 1_555
O4 C7 1_555 1_555
N2 Ni1A 1_555 1_555
C11 C12 1_555 1_555
N3 Ni1C 1_555 1_555
C17 C18 1_555 1_555

#END
