
#######################################################################
#
#                 Cambridge Crystallographic Data Centre
#                                CCDC 
#
#######################################################################
#
# If this CIF has been generated from an entry in the Cambridge 
# Structural Database, then it will include bibliographic, chemical, 
# crystal, experimental, refinement or atomic coordinate data resulting 
# from the CCDC's data processing and validation procedures.
#
#######################################################################

data_YAZYEF
_symmetry_cell_setting           monoclinic
_symmetry_space_group_name_H-M   'C 2/c'
_symmetry_Int_Tables_number      15
_space_group_name_Hall           '-C 2yn'
loop_
_symmetry_equiv_pos_site_id
_symmetry_equiv_pos_as_xyz
1 x,y,z
2 -x,y,1/2-z
3 1/2+x,1/2+y,z
4 1/2-x,1/2+y,1/2-z
5 -x,-y,-z
6 x,-y,1/2+z
7 1/2-x,1/2-y,-z
8 1/2+x,1/2-y,1/2+z
_cell_length_a                   29.989(7)
_cell_length_b                   13.190(3)
_cell_length_c                   6.8105(14)
_cell_angle_alpha                90
_cell_angle_beta                 101.518(5)
_cell_angle_gamma                90
_cell_volume                     2639.68
loop_
_atom_site_label
_atom_site_type_symbol
_atom_site_fract_x
_atom_site_fract_y
_atom_site_fract_z
La1 La 0.401199(6) 0.703229(14) 0.72791(3)
O1 O 0.38145(8) 0.54134(19) 0.8799(4)
O2 O 0.35630(8) 0.38685(18) 0.9267(4)
O3 O 0.13894(8) 0.50730(19) 0.4001(4)
O4 O 0.15362(8) 0.67121(19) 0.4617(4)
O5 O 0.31799(8) 0.68407(18) 0.8105(4)
H1 H 0.3043 0.7380 0.8093
O6 O 0.19775(8) 0.37129(18) 0.5525(4)
H2 H 0.1728 0.3922 0.4947
O7 O 0.47756(8) 0.72255(18) 0.9407(4)
O8 O 0.55187(8) 0.75053(18) 1.0279(4)
O9 O 0.42562(7) 0.88752(18) 0.8158(4)
H3 H 0.4066 0.9263 0.7533
O10 O 0.45174(9) 0.5514(2) 0.6547(5)
H4 H 0.4369 0.5228 0.5561
H5 H 0.4703 0.5772 0.5961
O11 O 0.39143(9) 0.7403(2) 1.0933(4)
H6 H 0.4119 0.7469 1.1919
H7 H 0.3743 0.6992 1.1301
C1 C 0.30232(11) 0.5065(3) 0.7667(5)
C2 C 0.28755(11) 0.6079(3) 0.7410(5)
C3 C 0.24326(11) 0.6295(3) 0.6512(5)
H8 H 0.2339 0.6968 0.6361
C4 C 0.21196(11) 0.5524(3) 0.5821(5)
C5 C 0.22629(11) 0.4519(3) 0.6101(5)
C6 C 0.27103(11) 0.4300(3) 0.7005(5)
H9 H 0.2802 0.3627 0.7171
C7 C 0.34998(11) 0.4767(3) 0.8641(5)
C8 C 0.16488(11) 0.5795(3) 0.4750(6)
C9 C 0.50370(11) 0.8933(3) 0.9968(5)
C10 C 0.46238(11) 0.9416(3) 0.9102(5)
C11 C 0.54027(11) 0.9532(3) 1.0846(5)
H10 H 0.5675 0.9220 1.1421
C12 C 0.51092(11) 0.7820(3) 0.9879(5)
La1A La 0.598801(6) 0.703229(14) 0.77209(3)
La1D La 0.598801(6) 0.296771(14) 0.27209(3)
La1D_2 La 0.598801(6) 1.296771(14) 1.27209(3)
La1E La 0.401199(6) 0.296771(14) 1.22791(3)
La1E_2 La 0.401199(6) 1.296771(14) 1.22791(3)
La1F La 0.098801(6) 0.796771(14) 0.27209(3)
La1G La 0.901199(6) 0.796771(14) 1.22791(3)
O1A O 0.61855(8) 0.54134(19) 0.6201(4)
O2A O 0.64370(8) 0.38685(18) 0.5733(4)
O2D O 0.64370(8) 0.61315(18) 1.0733(4)
O2E O 0.35630(8) 0.61315(18) 0.4267(4)
O3A O 0.86106(8) 0.50730(19) 1.0999(4)
O4A O 0.84638(8) 0.67121(19) 1.0383(4)
O4F O 0.34638(8) 0.82879(19) 0.5383(4)
O4G O 0.65362(8) 0.82879(19) 0.9617(4)
O5A O 0.68201(8) 0.68407(18) 0.6895(4)
H1A H 0.6957 0.7380 0.6907
O6A O 0.80225(8) 0.37129(18) 0.9475(4)
H2A H 0.8272 0.3922 1.0053
O7D O 0.52244(8) 1.27745(18) 1.0593(4)
O7A O 0.52244(8) 0.72255(18) 0.5593(4)
O8D O 0.44813(8) 1.24947(18) 0.9721(4)
O8A O 0.44813(8) 0.75053(18) 0.4721(4)
O9D O 0.57438(7) 1.11248(18) 1.1842(4)
O9A O 0.57438(7) 0.88752(18) 0.6842(4)
H3D H 0.5934 1.0737 1.2467
O10A O 0.54826(9) 0.5514(2) 0.8453(5)
H4A H 0.5631 0.5228 0.9439
H5A H 0.5297 0.5772 0.9039
O11A O 0.60857(9) 0.7403(2) 0.4067(4)
H6A H 0.5881 0.7469 0.3081
H7A H 0.6257 0.6992 0.3699
C1A C 0.69768(11) 0.5065(3) 0.7333(5)
C2A C 0.71245(11) 0.6079(3) 0.7590(5)
C3A C 0.75674(11) 0.6295(3) 0.8488(5)
H8A H 0.7661 0.6968 0.8639
C4A C 0.78804(11) 0.5524(3) 0.9179(5)
C5A C 0.77371(11) 0.4519(3) 0.8899(5)
C6A C 0.72897(11) 0.4300(3) 0.7995(5)
H9A H 0.7198 0.3627 0.7829
C7A C 0.65002(11) 0.4767(3) 0.6359(5)
C8A C 0.83512(11) 0.5795(3) 1.0250(6)
C9D C 0.49630(11) 1.1067(3) 1.0032(5)
C10D C 0.53762(11) 1.0584(3) 1.0898(5)
C11D C 0.45973(11) 1.0468(3) 0.9154(5)
H10D H 0.4325 1.0780 0.8579
C12D C 0.48908(11) 1.2180(3) 1.0121(5)
loop_
_geom_bond_atom_site_label_1
_geom_bond_atom_site_label_2
_geom_bond_site_symmetry_1
_geom_bond_site_symmetry_2
La1 O1 1_555 1_555
O1 C7 1_555 1_555
O2 C7 1_555 1_555
O3 C8 1_555 1_555
O4 C8 1_555 1_555
O5 La1 1_555 1_555
H1 O5 1_555 1_555
O6 H2 1_555 1_555
O7 La1 1_555 1_555
O8 C12 1_555 1_555
O9 La1 1_555 1_555
H3 O9 1_555 1_555
O10 La1 1_555 1_555
H4 O10 1_555 1_555
H5 O10 1_555 1_555
O11 La1 1_555 1_555
H6 O11 1_555 1_555
H7 O11 1_555 1_555
C1 C2 1_555 1_555
C2 O5 1_555 1_555
C3 C2 1_555 1_555
H8 C3 1_555 1_555
C4 C3 1_555 1_555
C5 O6 1_555 1_555
C6 C1 1_555 1_555
H9 C6 1_555 1_555
C7 C1 1_555 1_555
C8 C4 1_555 1_555
C9 C10 1_555 1_555
C10 O9 1_555 1_555
C11 C9 1_555 1_555
H10 C11 1_555 1_555
C12 O7 1_555 1_555
La1A O8 1_555 1_555
La1D O2A 1_555 1_555
La1D_2 O7D 1_555 1_555
La1E O2 1_555 1_555
La1E_2 O8D 1_555 1_555
La1F O4 1_555 1_555
La1G O4A 1_555 1_555
O1A La1A 1_555 1_555
O2A C7A 1_555 1_555
O2D La1A 1_555 1_555
O2E La1 1_555 1_555
O3A C8A 1_555 1_555
O4A C8A 1_555 1_555
O4F La1 1_555 1_555
O4G La1A 1_555 1_555
O5A La1A 1_555 1_555
H1A O5A 1_555 1_555
O6A H2A 1_555 1_555
O7D C12D 1_555 1_555
O7A La1A 1_555 1_555
O8D C12D 1_555 1_555
O8A La1 1_555 1_555
O9D La1D_2 1_555 1_555
O9A La1A 1_555 1_555
H3D O9D 1_555 1_555
O10A La1A 1_555 1_555
H4A O10A 1_555 1_555
H5A O10A 1_555 1_555
O11A La1A 1_555 1_555
H6A O11A 1_555 1_555
H7A O11A 1_555 1_555
C1A C2A 1_555 1_555
C2A O5A 1_555 1_555
C3A C2A 1_555 1_555
H8A C3A 1_555 1_555
C4A C3A 1_555 1_555
C5A O6A 1_555 1_555
C6A C1A 1_555 1_555
H9A C6A 1_555 1_555
C7A O1A 1_555 1_555
C8A C4A 1_555 1_555
C9D C10D 1_555 1_555
C10D C11 1_555 1_555
C11D C10 1_555 1_555
H10D C11D 1_555 1_555
C12D C9D 1_555 1_555
C4 C5 1_555 1_555
C5 C6 1_555 1_555
C9 C12 1_555 1_555
O9D C10D 1_555 1_555
C1A C7A 1_555 1_555
C4A C5A 1_555 1_555
C5A C6A 1_555 1_555
C9D C11D 1_555 1_555

#END
