
#######################################################################
#
#                 Cambridge Crystallographic Data Centre
#                                CCDC 
#
#######################################################################
#
# If this CIF has been generated from an entry in the Cambridge 
# Structural Database, then it will include bibliographic, chemical, 
# crystal, experimental, refinement or atomic coordinate data resulting 
# from the CCDC's data processing and validation procedures.
#
#######################################################################

data_YEBBEN
_symmetry_cell_setting           triclinic
_symmetry_space_group_name_H-M   'P -1'
_symmetry_Int_Tables_number      2
_space_group_name_Hall           '-P 1'
loop_
_symmetry_equiv_pos_site_id
_symmetry_equiv_pos_as_xyz
1 x,y,z
2 -x,-y,-z
_cell_length_a                   7.739(2)
_cell_length_b                   7.778(2)
_cell_length_c                   12.980(4)
_cell_angle_alpha                89.833(4)
_cell_angle_beta                 80.832(4)
_cell_angle_gamma                89.349(4)
_cell_volume                     771.286
loop_
_atom_site_label
_atom_site_type_symbol
_atom_site_fract_x
_atom_site_fract_y
_atom_site_fract_z
Zn1 Zn 0.30213(5) 0.06853(5) 0.32607(3)
N1 N 0.5408(3) 0.1136(3) 0.2318(2)
N2 N 0.2808(4) 0.2860(3) 0.4188(2)
O1 O 1.1596(3) 0.1400(4) 0.2046(2)
O2 O 1.0052(4) 0.0456(4) 0.3485(2)
O3 O 0.3198(4) 0.7750(3) 0.2891(2)
O4 O 0.3287(4) 0.8923(3) 0.4409(2)
C1 C 0.6914(4) 0.0954(4) 0.2702(3)
H1 H 0.6868 0.0644 0.3398
C2 C 0.8523(4) 0.1212(4) 0.2099(3)
C3 C 0.8579(5) 0.1662(5) 0.1068(3)
H2 H 0.9656 0.1836 0.0651
C4 C 0.7064(5) 0.1858(5) 0.0642(3)
C5 C 0.5503(4) 0.1577(4) 0.1308(3)
H3 H 0.4463 0.1700 0.1040
C6 C 1.0164(5) 0.1005(4) 0.2580(3)
C7 C 0.7062(6) 0.2408(6) -0.0464(3)
H4 H 0.5916 0.2203 -0.0649
H5 H 0.7908 0.1716 -0.0922
C8 C 0.7504(8) 0.4294(7) -0.0634(4)
H6 H 0.7491 0.4591 -0.1351
H7 H 0.8647 0.4500 -0.0464
H8 H 0.6655 0.4986 -0.0194
C9 C 0.3146(4) 0.4421(4) 0.3782(3)
H9 H 0.3588 0.4508 0.3074
C10 C 0.2871(4) 0.5915(4) 0.4362(3)
C11 C 0.2222(5) 0.5759(4) 0.5409(3)
H10 H 0.2049 0.6739 0.5823
C12 C 0.1825(5) 0.4161(4) 0.5854(3)
C13 C 0.2146(5) 0.2747(4) 0.5207(3)
H11 H 0.1890 0.1663 0.5491
C14 C 0.3168(5) 0.7629(4) 0.3841(3)
C15 C 0.1059(5) 0.3957(5) 0.6989(3)
H12 H 0.0379 0.2912 0.7075
H13 H 0.0270 0.4916 0.7198
C16 C 0.2435(7) 0.3879(6) 0.7698(4)
H14 H 0.1875 0.3751 0.8408
H15 H 0.3097 0.4921 0.7628
H16 H 0.3205 0.2917 0.7506
Zn1_2 Zn 1.30213(5) 0.06853(5) 0.32607(3)
Zn1_3 Zn 0.30213(5) 1.06853(5) 0.32607(3)
O1_2 O 0.1596(3) 0.1400(4) 0.2046(2)
O2_2 O 0.0052(4) 0.0456(4) 0.3485(2)
O3_2 O 0.3198(4) -0.2250(3) 0.2891(2)
O4_2 O 0.3287(4) -0.1077(3) 0.4409(2)
loop_
_geom_bond_atom_site_label_1
_geom_bond_atom_site_label_2
_geom_bond_site_symmetry_1
_geom_bond_site_symmetry_2
Zn1 N1 1_555 1_555
N1 C1 1_555 1_555
N2 Zn1 1_555 1_555
O1 C6 1_555 1_555
O2 C6 1_555 1_555
O3 C14 1_555 1_555
O4 C14 1_555 1_555
C1 H1 1_555 1_555
C2 C1 1_555 1_555
C3 C2 1_555 1_555
H2 C3 1_555 1_555
C4 C3 1_555 1_555
C5 N1 1_555 1_555
H3 C5 1_555 1_555
C6 C2 1_555 1_555
C7 C4 1_555 1_555
H4 C7 1_555 1_555
H5 C7 1_555 1_555
C8 C7 1_555 1_555
H6 C8 1_555 1_555
H7 C8 1_555 1_555
H8 C8 1_555 1_555
C9 N2 1_555 1_555
H9 C9 1_555 1_555
C10 C9 1_555 1_555
C11 C10 1_555 1_555
H10 C11 1_555 1_555
C12 C11 1_555 1_555
C13 N2 1_555 1_555
H11 C13 1_555 1_555
C14 C10 1_555 1_555
C15 C12 1_555 1_555
H12 C15 1_555 1_555
H13 C15 1_555 1_555
C16 C15 1_555 1_555
H14 C16 1_555 1_555
H15 C16 1_555 1_555
H16 C16 1_555 1_555
Zn1_2 O1 1_555 1_555
Zn1_3 O3 1_555 1_555
O1_2 Zn1 1_555 1_555
O2_2 Zn1 1_555 1_555
O3_2 Zn1 1_555 1_555
O4_2 Zn1 1_555 1_555
O2 Zn1_2 1_555 1_555
O4 Zn1_3 1_555 1_555
C4 C5 1_555 1_555
C12 C13 1_555 1_555

#END
