
#######################################################################
#
#                 Cambridge Crystallographic Data Centre
#                                CCDC 
#
#######################################################################
#
# If this CIF has been generated from an entry in the Cambridge 
# Structural Database, then it will include bibliographic, chemical, 
# crystal, experimental, refinement or atomic coordinate data resulting 
# from the CCDC's data processing and validation procedures.
#
#######################################################################

data_YEBFOB
_symmetry_cell_setting           triclinic
_symmetry_space_group_name_H-M   'P -1'
_symmetry_Int_Tables_number      2
_space_group_name_Hall           '-P 1'
loop_
_symmetry_equiv_pos_site_id
_symmetry_equiv_pos_as_xyz
1 x,y,z
2 -x,-y,-z
_cell_length_a                   8.3477(19)
_cell_length_b                   12.348(3)
_cell_length_c                   23.053(5)
_cell_angle_alpha                87.232(4)
_cell_angle_beta                 81.369(4)
_cell_angle_gamma                84.222(4)
_cell_volume                     2336.07
loop_
_atom_site_label
_atom_site_type_symbol
_atom_site_fract_x
_atom_site_fract_y
_atom_site_fract_z
C1 C 0.4535(9) -0.2307(6) 0.4165(3)
H1 H 0.4975 -0.2341 0.4514
C2 C 0.5041(10) -0.3095(6) 0.3773(3)
H2 H 0.5831 -0.3648 0.3849
C3 C 0.4386(10) -0.3069(6) 0.3268(3)
H3 H 0.4703 -0.3616 0.2999
C4 C 0.3264(9) -0.2240(6) 0.3158(3)
H4 H 0.2801 -0.2209 0.2815
C5 C 0.2823(8) -0.1442(5) 0.3569(3)
C6 C 0.1676(9) -0.0500(6) 0.3491(3)
C7 C 0.0752(9) -0.0129(6) 0.3055(3)
H5 H 0.0719 -0.0452 0.2702
C8 C -0.0079(10) 0.0795(6) 0.3256(3)
H6 H -0.0794 0.1233 0.3052
C9 C -0.2570(9) 0.4412(6) 0.4746(3)
H7 H -0.3077 0.4442 0.4412
C10 C -0.2903(9) 0.5266(6) 0.5118(3)
H8 H -0.3629 0.5858 0.5038
C11 C -0.2156(9) 0.5235(6) 0.5604(3)
H9 H -0.2344 0.5812 0.5858
C12 C -0.1114(9) 0.4333(6) 0.5717(3)
H10 H -0.0605 0.4286 0.6050
C13 C -0.0846(8) 0.3503(5) 0.5321(3)
C14 C 0.0285(8) 0.2542(5) 0.5393(3)
C15 C 0.1158(9) 0.2159(6) 0.5827(3)
H11 H 0.1206 0.2482 0.6179
C16 C 0.1944(9) 0.1197(6) 0.5627(3)
H12 H 0.2636 0.0740 0.5832
C17 C 0.4088(9) -0.1241(5) 0.5624(3)
C18 C 0.4005(8) -0.2181(5) 0.6069(3)
C19 C 0.5264(9) -0.2521(6) 0.6372(3)
H13 H 0.6228 -0.2188 0.6296
C20 C 0.5107(11) -0.3358(7) 0.6791(3)
H14 H 0.5974 -0.3619 0.6985
C21 C 0.3659(10) -0.3788(6) 0.6912(3)
H15 H 0.3521 -0.4337 0.7201
C22 C 0.2390(9) -0.3422(6) 0.6614(3)
C23 C 0.0708(12) -0.3824(7) 0.6736(4)
Cu1 Cu 0.25144(10) -0.02215(7) 0.46068(3)
Cu2 Cu -0.07060(10) 0.22383(7) 0.42953(3)
N1 N 0.3421(7) -0.1477(4) 0.4072(2)
N2 N 0.1355(6) 0.0207(4) 0.3936(2)
N3 N 0.0256(7) 0.1013(4) 0.3797(2)
N4 N -0.1554(7) 0.3544(4) 0.4841(2)
N5 N 0.0538(7) 0.1837(4) 0.4948(2)
N6 N 0.1588(7) 0.0998(4) 0.5098(2)
N7 N 0.2591(7) -0.2632(4) 0.6190(2)
O1 O 0.5129(6) -0.0606(4) 0.5650(2)
O2 O 0.3019(6) -0.1181(4) 0.52822(18)
O3 O -0.0282(7) -0.3466(4) 0.6406(2)
O4 O 0.0490(9) -0.4428(6) 0.7184(3)
Cu1A Cu 0.74856(10) 0.02215(7) 0.53932(3)
O1A O 0.4871(6) 0.0606(4) 0.4350(2)
O3A O 0.0282(7) 0.3466(4) 0.3594(2)
Cu2A Cu 0.07060(10) -0.22383(7) 0.57047(3)
N7A N -0.2591(7) 0.2632(4) 0.3810(2)
O2A O -0.3019(6) 0.1181(4) 0.47178(18)
C24 C 0.1383(9) -0.0747(6) -0.1267(3)
H16 H 0.0865 -0.0050 -0.1209
C25 C 0.1133(10) -0.1311(7) -0.1738(3)
H17 H 0.0439 -0.1002 -0.1994
C26 C 0.1911(11) -0.2333(7) -0.1829(3)
H18 H 0.1744 -0.2724 -0.2146
C27 C 0.2926(10) -0.2771(6) -0.1455(3)
H19 H 0.3485 -0.3455 -0.1519
C28 C 0.3119(9) -0.2183(6) -0.0976(3)
C29 C 0.4071(9) -0.2579(5) -0.0519(3)
C30 C 0.5031(10) -0.3535(6) -0.0428(4)
H20 H 0.5261 -0.4134 -0.0666
C31 C 0.5566(10) -0.3391(6) 0.0097(3)
H21 H 0.6227 -0.3907 0.0282
C32 C 0.6755(9) -0.1441(7) 0.2186(3)
H22 H 0.7399 -0.2094 0.2116
C33 C 0.6814(10) -0.0925(7) 0.2691(3)
H23 H 0.7501 -0.1214 0.2954
C34 C 0.5848(10) 0.0024(7) 0.2804(3)
H24 H 0.5850 0.0383 0.3149
C35 C 0.4884(10) 0.0436(6) 0.2405(3)
H25 H 0.4220 0.1081 0.2475
C36 C 0.4894(9) -0.0113(6) 0.1890(3)
C37 C 0.3959(9) 0.0270(6) 0.1429(3)
C38 C 0.3010(9) 0.1201(6) 0.1326(3)
H26 H 0.2753 0.1798 0.1565
C39 C 0.2510(9) 0.1072(6) 0.0792(3)
H27 H 0.1855 0.1585 0.0604
C40 C 0.0912(9) 0.1564(6) -0.0494(3)
C41 C 0.1065(8) 0.2659(5) -0.0807(3)
C42 C -0.0264(9) 0.3402(6) -0.0830(3)
H28 H -0.1275 0.3264 -0.0625
C43 C -0.0081(11) 0.4356(7) -0.1161(4)
H29 H -0.0970 0.4862 -0.1194
C44 C 0.1448(10) 0.4540(6) -0.1442(3)
H30 H 0.1594 0.5172 -0.1672
C45 C 0.2757(9) 0.3798(6) -0.1384(3)
C46 C 0.4458(10) 0.3944(6) -0.1674(3)
Cu3 Cu 0.27429(10) -0.05135(6) -0.01416(3)
Cu4 Cu 0.54861(10) -0.17548(7) 0.10193(3)
N8 N 0.2356(7) -0.1180(5) -0.0890(2)
N9 N 0.4073(7) -0.1916(4) -0.0074(2)
N10 N 0.5009(7) -0.2415(5) 0.0305(2)
N11 N 0.5816(7) -0.1052(4) 0.1788(2)
N12 N 0.3990(7) -0.0415(4) 0.0982(2)
N13 N 0.3106(7) 0.0101(4) 0.0586(2)
N14 N 0.2532(7) 0.2858(4) -0.1068(2)
O5 O 0.5515(6) 0.3187(4) -0.1605(2)
O6 O 0.4665(7) 0.4828(4) -0.1951(2)
O7 O 0.2236(5) 0.0963(3) -0.04815(19)
O8 O -0.0454(7) 0.1319(4) -0.0295(3)
O5A O 0.4485(6) -0.3187(4) 0.1605(2)
Cu4A Cu 0.45139(10) 0.17548(7) -0.10193(3)
N14A N 0.7468(7) -0.2858(4) 0.1068(2)
O7A O 0.7764(5) -0.0963(3) 0.04815(19)
Cu3A Cu -0.27429(10) 0.05135(6) 0.01416(3)
O8A O 0.0454(7) -0.1319(4) 0.0295(3)
O9 O 0.1409(9) -0.2015(7) 0.1866(3)
O10 O 0.7459(9) -0.3937(7) 0.7973(3)
O11 O 1.0645(12) -0.6738(7) 0.7209(4)
loop_
_geom_bond_atom_site_label_1
_geom_bond_atom_site_label_2
_geom_bond_site_symmetry_1
_geom_bond_site_symmetry_2
C1 H1 1_555 1_555
C2 C1 1_555 1_555
H2 C2 1_555 1_555
C3 C2 1_555 1_555
H3 C3 1_555 1_555
C4 C3 1_555 1_555
H4 C4 1_555 1_555
C5 C4 1_555 1_555
C6 C5 1_555 1_555
C7 C6 1_555 1_555
H5 C7 1_555 1_555
C8 C7 1_555 1_555
H6 C8 1_555 1_555
C9 H7 1_555 1_555
C10 C9 1_555 1_555
H8 C10 1_555 1_555
C11 C10 1_555 1_555
H9 C11 1_555 1_555
C12 C11 1_555 1_555
H10 C12 1_555 1_555
C13 C12 1_555 1_555
C14 C13 1_555 1_555
C15 C14 1_555 1_555
H11 C15 1_555 1_555
C16 C15 1_555 1_555
H12 C16 1_555 1_555
C17 C18 1_555 1_555
C18 C19 1_555 1_555
C19 H13 1_555 1_555
C20 C19 1_555 1_555
H14 C20 1_555 1_555
C21 C20 1_555 1_555
H15 C21 1_555 1_555
C22 C21 1_555 1_555
C23 C22 1_555 1_555
C24 H16 1_555 1_555
C25 C24 1_555 1_555
H17 C25 1_555 1_555
C26 C25 1_555 1_555
H18 C26 1_555 1_555
C27 C26 1_555 1_555
H19 C27 1_555 1_555
C28 C27 1_555 1_555
C29 C28 1_555 1_555
C30 C29 1_555 1_555
H20 C30 1_555 1_555
C31 C30 1_555 1_555
H21 C31 1_555 1_555
C32 H22 1_555 1_555
C33 C32 1_555 1_555
H23 C33 1_555 1_555
C34 C33 1_555 1_555
H24 C34 1_555 1_555
C35 C34 1_555 1_555
H25 C35 1_555 1_555
C36 C35 1_555 1_555
C37 C36 1_555 1_555
C38 C37 1_555 1_555
H26 C38 1_555 1_555
C39 C38 1_555 1_555
H27 C39 1_555 1_555
C40 C41 1_555 1_555
C41 C42 1_555 1_555
C42 H28 1_555 1_555
C43 C42 1_555 1_555
H29 C43 1_555 1_555
C44 C43 1_555 1_555
H30 C44 1_555 1_555
C45 C44 1_555 1_555
C46 C45 1_555 1_555
Cu1 N1 1_555 1_555
Cu2 N3 1_555 1_555
Cu3 N8 1_555 1_555
Cu4 N10 1_555 1_555
N1 C1 1_555 1_555
N2 C6 1_555 1_555
N3 C8 1_555 1_555
N4 C9 1_555 1_555
N5 C14 1_555 1_555
N6 C16 1_555 1_555
N7 C18 1_555 1_555
N8 C24 1_555 1_555
N9 C29 1_555 1_555
N10 C31 1_555 1_555
N11 C32 1_555 1_555
N12 C37 1_555 1_555
N13 C39 1_555 1_555
N14 C41 1_555 1_555
O1 C17 1_555 1_555
O2 C17 1_555 1_555
O3 C23 1_555 1_555
O4 C23 1_555 1_555
O5 C46 1_555 1_555
O6 C46 1_555 1_555
O7 C40 1_555 1_555
O8 C40 1_555 1_555
Cu1A O1 1_555 1_555
O1A Cu1 1_555 1_555
O3A Cu2 1_555 1_555
Cu2A N7 1_555 1_555
N7A Cu2 1_555 1_555
O2A Cu2 1_555 1_555
O5A Cu4 1_555 1_555
Cu4A N14 1_555 1_555
N14A Cu4 1_555 1_555
O7A Cu4 1_555 1_555
Cu3A O8 1_555 1_555
O8A Cu3 1_555 1_555
C5 N1 1_555 1_555
C13 N4 1_555 1_555
C22 N7 1_555 1_555
C28 N8 1_555 1_555
C36 N11 1_555 1_555
C45 N14 1_555 1_555
Cu1 N6 1_555 1_555
Cu1 N2 1_555 1_555
Cu1 O2 1_555 1_555
Cu2 N4 1_555 1_555
Cu2 N5 1_555 1_555
Cu3 N9 1_555 1_555
Cu3 N13 1_555 1_555
Cu3 O7 1_555 1_555
Cu4 N12 1_555 1_555
Cu4 N11 1_555 1_555
N2 N3 1_555 1_555
N5 N6 1_555 1_555
N9 N10 1_555 1_555
N12 N13 1_555 1_555
O2 Cu2A 1_555 1_555
O3 Cu2A 1_555 1_555
O5 Cu4A 1_555 1_555
O7 Cu4A 1_555 1_555

#END
