
#######################################################################
#
#                 Cambridge Crystallographic Data Centre
#                                CCDC 
#
#######################################################################
#
# If this CIF has been generated from an entry in the Cambridge 
# Structural Database, then it will include bibliographic, chemical, 
# crystal, experimental, refinement or atomic coordinate data resulting 
# from the CCDC's data processing and validation procedures.
#
#######################################################################

data_YEBGOD
_symmetry_cell_setting           monoclinic
_symmetry_space_group_name_H-M   'P 21/n'
_symmetry_Int_Tables_number      14
_space_group_name_Hall           '-P 2yn'
loop_
_symmetry_equiv_pos_site_id
_symmetry_equiv_pos_as_xyz
1 x,y,z
2 1/2-x,1/2+y,1/2-z
3 -x,-y,-z
4 1/2+x,1/2-y,1/2+z
_cell_length_a                   14.9496(4)
_cell_length_b                   14.5862(3)
_cell_length_c                   19.8520(6)
_cell_angle_alpha                90
_cell_angle_beta                 90.763(3)
_cell_angle_gamma                90
_cell_volume                     4328.5
loop_
_atom_site_label
_atom_site_type_symbol
_atom_site_fract_x
_atom_site_fract_y
_atom_site_fract_z
Dy1 Dy 0.661938(19) -0.081921(16) 0.158382(14)
Dy2 Dy 0.869382(19) 0.159992(16) 0.178484(14)
C1 C 0.4012(5) -0.1514(4) 0.0825(3)
C2 C 0.3664(4) -0.1031(4) 0.0283(3)
H1 H 0.4013 -0.0598 0.0066
C3 C 0.2792(5) -0.1192(4) 0.0060(3)
C4 C 0.2298(6) -0.1859(5) 0.0364(4)
H2 H 0.1727 -0.1993 0.0200
C5 C 0.2636(6) -0.2335(6) 0.0912(5)
H3 H 0.2288 -0.2774 0.1126
C6 C 0.3498(5) -0.2155(5) 0.1140(4)
H4 H 0.3729 -0.2472 0.1510
C7 C 0.4939(5) -0.1307(4) 0.1070(3)
C8 C 0.2409(4) -0.0639(4) -0.0511(3)
C9 C 0.9300(4) -0.1388(4) 0.2346(3)
C10 C 0.8795(4) -0.2103(4) 0.2599(3)
H5 H 0.8178 -0.2042 0.2630
C11 C 0.9203(4) -0.2905(4) 0.2807(3)
C12 C 1.0127(5) -0.2995(4) 0.2744(4)
H6 H 1.0404 -0.3539 0.2875
C13 C 1.0640(5) -0.2285(4) 0.2488(4)
H7 H 1.1255 -0.2353 0.2441
C14 C 1.0221(5) -0.1474(4) 0.2303(4)
H8 H 1.0560 -0.0985 0.2149
C15 C 0.8842(5) -0.0521(4) 0.2125(3)
C16 C 0.8657(5) -0.3673(4) 0.3077(3)
C17 C 0.8071(4) 0.4631(4) 0.1266(3)
C18 C 0.7734(4) 0.5405(3) 0.1577(3)
H9 H 0.7682 0.5413 0.2044
C19 C 0.7471(4) 0.6171(4) 0.1207(3)
C20 C 0.7563(6) 0.6161(4) 0.0516(3)
H10 H 0.7419 0.6681 0.0266
C21 C 0.7867(6) 0.5384(4) 0.0192(4)
H11 H 0.7893 0.5370 -0.0276
C22 C 0.8136(5) 0.4620(4) 0.0569(3)
H12 H 0.8358 0.4105 0.0352
C23 C 0.8344(4) 0.3812(4) 0.1680(3)
C24 C 0.7070(4) 0.6980(4) 0.1564(3)
C25 C 1.0388(6) 0.1404(6) 0.0628(5)
C26 C 1.0840(7) 0.0482(6) 0.0724(5)
H13 H 1.0682 0.0232 0.1154
H14 H 1.1477 0.0558 0.0706
H15 H 1.0648 0.0071 0.0373
C27 C 1.0115(7) 0.2752(6) -0.0005(5)
H16 H 0.9736 0.2877 0.0370
H17 H 0.9767 0.2769 -0.0415
H18 H 1.0580 0.3205 -0.0024
C28 C 1.1122(9) 0.1515(7) -0.0462(5)
H19 H 1.1337 0.0913 -0.0351
H20 H 1.1619 0.1927 -0.0499
H21 H 1.0800 0.1493 -0.0884
O1 O 0.5189(3) -0.1569(3) 0.1650(2)
O2 O 0.9952(3) 0.2095(3) 0.2403(2)
H40 H 1.0263 0.1692 0.2656
O3 O 0.5468(3) -0.0865(3) 0.0713(2)
O5 O 0.2810(3) 0.0078(3) -0.0676(2)
O7 O 0.1691(3) -0.0916(3) -0.0777(2)
O9 O 0.8027(3) -0.0544(3) 0.1980(2)
O10 O 0.9296(3) 0.0198(3) 0.2098(2)
O11 O 0.7859(3) -0.3521(3) 0.3219(3)
O12 O 0.9028(4) -0.4439(3) 0.3161(3)
O13 O 0.8435(3) 0.3061(3) 0.1375(2)
O14 O 0.8478(3) 0.3908(3) 0.2296(2)
O15 O 0.6760(3) 0.6856(3) 0.2132(2)
O16 O 0.7073(3) 0.7742(2) 0.1258(2)
O17 O 0.9908(4) 0.1726(3) 0.1083(3)
N1 N 1.0516(5) 0.1841(5) 0.0075(4)
Dy1B Dy 0.338062(19) 0.081921(16) -0.158382(14)
Dy1_2 Dy 0.661938(19) 0.918079(16) 0.158382(14)
Dy1A Dy 0.838062(19) -0.581921(16) 0.341618(14)
Dy1A_2 Dy 0.838062(19) 0.418079(16) 0.341618(14)
Dy1B_2 Dy 0.338062(19) -0.918079(16) -0.158382(14)
Dy1C Dy 0.161938(19) -0.418079(16) -0.341618(14)
Dy1C_2 Dy 0.161938(19) 0.581921(16) -0.341618(14)
Dy2B Dy 0.130618(19) -0.159992(16) -0.178484(14)
Dy2A Dy 0.630618(19) -0.340008(16) 0.321516(14)
Dy2A_2 Dy 0.630618(19) 0.659992(16) 0.321516(14)
Dy2C Dy 0.369382(19) -0.659992(16) -0.321516(14)
Dy2C_2 Dy 0.369382(19) 0.340008(16) -0.321516(14)
C1B C 0.5988(5) 0.1514(4) -0.0825(3)
C2B C 0.6336(4) 0.1031(4) -0.0283(3)
H1B H 0.5987 0.0598 -0.0066
C3B C 0.7208(5) 0.1192(4) -0.0060(3)
C4B C 0.7702(6) 0.1859(5) -0.0364(4)
H2B H 0.8273 0.1993 -0.0200
C5B C 0.7364(6) 0.2335(6) -0.0912(5)
H3B H 0.7712 0.2774 -0.1126
C6B C 0.6502(5) 0.2155(5) -0.1140(4)
H4B H 0.6271 0.2472 -0.1510
C7B C 0.5061(5) 0.1307(4) -0.1070(3)
C8B C 0.7591(4) 0.0639(4) 0.0511(3)
C9B C 0.0700(4) 0.1388(4) -0.2346(3)
C10B C 0.1205(4) 0.2103(4) -0.2599(3)
H5B H 0.1822 0.2042 -0.2630
C11B C 0.0797(4) 0.2905(4) -0.2807(3)
C12B C -0.0127(5) 0.2995(4) -0.2744(4)
H6B H -0.0404 0.3539 -0.2875
C13B C -0.0640(5) 0.2285(4) -0.2488(4)
H7B H -0.1255 0.2353 -0.2441
C14B C -0.0221(5) 0.1474(4) -0.2303(4)
H8B H -0.0560 0.0985 -0.2149
C15B C 0.1158(5) 0.0521(4) -0.2125(3)
C16B C 0.1343(5) 0.3673(4) -0.3077(3)
C17B C 0.1929(4) -0.4631(4) -0.1266(3)
C18B C 0.2266(4) -0.5405(3) -0.1577(3)
H9B H 0.2318 -0.5413 -0.2044
C19B C 0.2529(4) -0.6171(4) -0.1207(3)
C20B C 0.2437(6) -0.6161(4) -0.0516(3)
H10B H 0.2581 -0.6681 -0.0266
C21B C 0.2133(6) -0.5384(4) -0.0192(4)
H11B H 0.2107 -0.5370 0.0276
C22B C 0.1864(5) -0.4620(4) -0.0569(3)
H12B H 0.1642 -0.4105 -0.0352
C23B C 0.1656(4) -0.3812(4) -0.1680(3)
C24B C 0.2930(4) -0.6980(4) -0.1564(3)
C25B C -0.0388(6) -0.1404(6) -0.0628(5)
C26B C -0.0840(7) -0.0482(6) -0.0724(5)
H13B H -0.0682 -0.0232 -0.1154
H14B H -0.1477 -0.0558 -0.0706
H15B H -0.0648 -0.0071 -0.0373
C27B C -0.0115(7) -0.2752(6) 0.0005(5)
H16B H 0.0264 -0.2877 -0.0370
H17B H 0.0233 -0.2769 0.0415
H18B H -0.0580 -0.3205 0.0024
C28B C -0.1122(9) -0.1515(7) 0.0462(5)
H19B H -0.1337 -0.0913 0.0351
H20B H -0.1619 -0.1927 0.0499
H21B H -0.0800 -0.1493 0.0884
O1B O 0.4811(3) 0.1569(3) -0.1650(2)
O2B O 0.0048(3) -0.2095(3) -0.2403(2)
H40B H -0.0263 -0.1692 -0.2656
O3B O 0.4532(3) 0.0865(3) -0.0713(2)
O5B O 0.7190(3) -0.0078(3) 0.0676(2)
O7B O 0.8309(3) 0.0916(3) 0.0777(2)
O9B O 0.1973(3) 0.0544(3) -0.1980(2)
O10B O 0.0704(3) -0.0198(3) -0.2098(2)
O11B O 0.2141(3) 0.3521(3) -0.3219(3)
O11A O 0.7141(3) 0.1479(3) 0.1781(3)
O11C O 0.2859(3) -0.1479(3) -0.1781(3)
O12B O 0.0972(4) 0.4439(3) -0.3161(3)
O12A O 0.5972(4) 0.0561(3) 0.1839(3)
O12C O 0.4028(4) -0.0561(3) -0.1839(3)
O13B O 0.1565(3) -0.3061(3) -0.1375(2)
O14B O 0.1522(3) -0.3908(3) -0.2296(2)
O14A O 0.6522(3) -0.1092(3) 0.2704(2)
O14C O 0.3478(3) 0.1092(3) -0.2704(2)
O15B O 0.3240(3) -0.6856(3) -0.2132(2)
O15A O 0.8240(3) 0.1856(3) 0.2868(2)
O15C O 0.1760(3) -0.1856(3) -0.2868(2)
O16B O 0.2927(3) -0.7742(2) -0.1258(2)
O16_2 O 0.7073(3) -0.2258(2) 0.1258(2)
O16B_2 O 0.2927(3) 0.2258(2) -0.1258(2)
O17B O 0.0092(4) -0.1726(3) -0.1083(3)
N1B N -0.0516(5) -0.1841(5) -0.0075(4)
C29 C 0.6801(6) 0.9745(6) -0.2930(5)
C30 C 0.7251(8) 1.0393(7) -0.2431(6)
H22 H 0.7746 1.0087 -0.2215
H23 H 0.6828 1.0578 -0.2097
H24 H 0.7464 1.0925 -0.2665
C31 C 0.5649(7) 0.9420(7) -0.3731(6)
H25 H 0.5936 0.8831 -0.3720
H26 H 0.5657 0.9659 -0.4182
H27 H 0.5042 0.9359 -0.3588
C32 C 0.5775(9) 1.0980(8) -0.3248(7)
H28 H 0.6146 1.1328 -0.2944
H29 H 0.5173 1.0971 -0.3086
H30 H 0.5784 1.1256 -0.3687
O18 O 0.7080(4) 0.8953(4) -0.2986(4)
N2 N 0.6116(5) 1.0034(5) -0.3289(4)
C33 C 0.5788(12) 0.4666(12) -0.1335(9)
H31 H 0.5220 0.4358 -0.1334
H32 H 0.6218 0.4314 -0.1082
H33 H 0.5986 0.4731 -0.1791
C34 C 0.5693(14) 0.5594(13) -0.1023(9)
C35 C 0.5215(12) 0.6948(11) -0.0480(8)
H34 H 0.5818 0.7175 -0.0491
H35 H 0.5022 0.6915 -0.0021
H36 H 0.4829 0.7355 -0.0729
C36 C 0.4287(16) 0.5417(15) -0.0852(11)
H37 H 0.4470 0.4829 -0.1018
H38 H 0.3872 0.5690 -0.1165
H39 H 0.4005 0.5341 -0.0423
O19 O 0.6495(8) 0.6135(7) -0.1022(5)
N3 N 0.5182(14) 0.6094(14) -0.0762(9)
O4 O 0.8289(4) 0.8078(5) -0.2141(3)
H41 H 0.8037 0.8428 -0.1859
H42 H 0.8365 0.8205 -0.2580
O6 O 0.5945(15) 0.8901(8) -0.0719(6)
H43 H 0.6187 0.9044 -0.1118
H44 H 0.5890 0.9334 -0.0399
O8 O 0.7320(9) 0.7725(10) -0.1015(5)
H45 H 0.7183 0.8067 -0.0654
H46 H 0.7517 0.7146 -0.0960
loop_
_geom_bond_atom_site_label_1
_geom_bond_atom_site_label_2
_geom_bond_site_symmetry_1
_geom_bond_site_symmetry_2
Dy1 O1 1_555 1_555
Dy2 O2 1_555 1_555
C1 C2 1_555 1_555
C2 H1 1_555 1_555
C3 C2 1_555 1_555
C4 C3 1_555 1_555
H2 C4 1_555 1_555
C5 C4 1_555 1_555
H3 C5 1_555 1_555
C6 C1 1_555 1_555
H4 C6 1_555 1_555
C7 C1 1_555 1_555
C8 C3 1_555 1_555
C9 C10 1_555 1_555
C10 H5 1_555 1_555
C11 C10 1_555 1_555
C12 C11 1_555 1_555
H6 C12 1_555 1_555
C13 C12 1_555 1_555
H7 C13 1_555 1_555
C14 C9 1_555 1_555
H8 C14 1_555 1_555
C15 C9 1_555 1_555
C16 C11 1_555 1_555
C17 C18 1_555 1_555
C18 H9 1_555 1_555
C19 C18 1_555 1_555
C20 C19 1_555 1_555
H10 C20 1_555 1_555
C21 C20 1_555 1_555
H11 C21 1_555 1_555
C22 C17 1_555 1_555
H12 C22 1_555 1_555
C23 C17 1_555 1_555
C24 C19 1_555 1_555
C25 C26 1_555 1_555
C26 H13 1_555 1_555
H14 C26 1_555 1_555
H15 C26 1_555 1_555
C27 H16 1_555 1_555
H17 C27 1_555 1_555
H18 C27 1_555 1_555
C28 H19 1_555 1_555
H20 C28 1_555 1_555
H21 C28 1_555 1_555
C29 C30 1_555 1_555
C30 H22 1_555 1_555
H23 C30 1_555 1_555
H24 C30 1_555 1_555
C31 H25 1_555 1_555
H26 C31 1_555 1_555
H27 C31 1_555 1_555
C32 H28 1_555 1_555
H29 C32 1_555 1_555
H30 C32 1_555 1_555
C33 H31 1_555 1_555
H32 C33 1_555 1_555
H33 C33 1_555 1_555
C34 C33 1_555 1_555
C35 H34 1_555 1_555
H35 C35 1_555 1_555
H36 C35 1_555 1_555
C36 H37 1_555 1_555
H38 C36 1_555 1_555
H39 C36 1_555 1_555
O1 C7 1_555 1_555
O2 H40 1_555 1_555
O3 Dy1 1_555 1_555
O4 H41 1_555 1_555
H42 O4 1_555 1_555
O5 C8 1_555 1_555
O6 H43 1_555 1_555
H44 O6 1_555 1_555
O7 C8 1_555 1_555
O8 H45 1_555 1_555
H46 O8 1_555 1_555
O9 Dy1 1_555 1_555
O10 Dy2 1_555 1_555
O11 C16 1_555 1_555
O12 C16 1_555 1_555
O13 Dy2 1_555 1_555
O14 C23 1_555 1_555
O15 C24 1_555 1_555
O16 C24 1_555 1_555
O17 Dy2 1_555 1_555
O18 C29 1_555 1_555
O19 C34 1_555 1_555
N1 C25 1_555 1_555
N2 C29 1_555 1_555
N3 C34 1_555 1_555
Dy1B O5 1_555 1_555
Dy1_2 O16 1_555 1_555
Dy1A O12 1_555 1_555
Dy1A_2 O14 1_555 1_555
Dy1B_2 O16B 1_555 1_555
Dy1C O14B 1_555 1_555
Dy1C_2 O12B 1_555 1_555
Dy2B O7 1_555 1_555
Dy2A O11 1_555 1_555
Dy2A_2 O15 1_555 1_555
Dy2C O15B 1_555 1_555
Dy2C_2 O11B 1_555 1_555
C1B C2B 1_555 1_555
C2B H1B 1_555 1_555
C3B C2B 1_555 1_555
C4B C3B 1_555 1_555
H2B C4B 1_555 1_555
C5B C4B 1_555 1_555
H3B C5B 1_555 1_555
C6B C1B 1_555 1_555
H4B C6B 1_555 1_555
C7B C1B 1_555 1_555
C8B C3B 1_555 1_555
C9B C10B 1_555 1_555
C10B H5B 1_555 1_555
C11B C10B 1_555 1_555
C12B C11B 1_555 1_555
H6B C12B 1_555 1_555
C13B C12B 1_555 1_555
H7B C13B 1_555 1_555
C14B C9B 1_555 1_555
H8B C14B 1_555 1_555
C15B C9B 1_555 1_555
C16B C11B 1_555 1_555
C17B C18B 1_555 1_555
C18B H9B 1_555 1_555
C19B C18B 1_555 1_555
C20B C19B 1_555 1_555
H10B C20B 1_555 1_555
C21B C20B 1_555 1_555
H11B C21B 1_555 1_555
C22B C17B 1_555 1_555
H12B C22B 1_555 1_555
C23B C17B 1_555 1_555
C24B C19B 1_555 1_555
C25B C26B 1_555 1_555
C26B H13B 1_555 1_555
H14B C26B 1_555 1_555
H15B C26B 1_555 1_555
C27B H16B 1_555 1_555
H17B C27B 1_555 1_555
H18B C27B 1_555 1_555
C28B H19B 1_555 1_555
H20B C28B 1_555 1_555
H21B C28B 1_555 1_555
O1B Dy1B 1_555 1_555
O2B Dy2B 1_555 1_555
H40B O2B 1_555 1_555
O3B Dy1B 1_555 1_555
O5B Dy1 1_555 1_555
O7B Dy2 1_555 1_555
O9B Dy1B 1_555 1_555
O10B Dy2B 1_555 1_555
O11B C16B 1_555 1_555
O11A Dy2 1_555 1_555
O11C Dy2B 1_555 1_555
O12B C16B 1_555 1_555
O12A Dy1 1_555 1_555
O12C Dy1B 1_555 1_555
O13B Dy2B 1_555 1_555
O14B C23B 1_555 1_555
O14A Dy1 1_555 1_555
O14C Dy1B 1_555 1_555
O15B C24B 1_555 1_555
O15A Dy2 1_555 1_555
O15C Dy2B 1_555 1_555
O16B C24B 1_555 1_555
O16_2 Dy1 1_555 1_555
O16B_2 Dy1B 1_555 1_555
O17B Dy2B 1_555 1_555
N1B C25B 1_555 1_555
C5 C6 1_555 1_555
C7 O3 1_555 1_555
C13 C14 1_555 1_555
C15 O9 1_555 1_555
C15 O10 1_555 1_555
C21 C22 1_555 1_555
C23 O13 1_555 1_555
C25 O17 1_555 1_555
C27 N1 1_555 1_555
C28 N1 1_555 1_555
C31 N2 1_555 1_555
C32 N2 1_555 1_555
C35 N3 1_555 1_555
C36 N3 1_555 1_555
C5B C6B 1_555 1_555
C7B O1B 1_555 1_555
C7B O3B 1_555 1_555
C8B O5B 1_555 1_555
C8B O7B 1_555 1_555
C13B C14B 1_555 1_555
C15B O9B 1_555 1_555
C15B O10B 1_555 1_555
C21B C22B 1_555 1_555
C23B O13B 1_555 1_555
C25B O17B 1_555 1_555
C27B N1B 1_555 1_555
C28B N1B 1_555 1_555

#END
