
#######################################################################
#
#                 Cambridge Crystallographic Data Centre
#                                CCDC 
#
#######################################################################
#
# If this CIF has been generated from an entry in the Cambridge 
# Structural Database, then it will include bibliographic, chemical, 
# crystal, experimental, refinement or atomic coordinate data resulting 
# from the CCDC's data processing and validation procedures.
#
#######################################################################

data_YEBGIX
_symmetry_cell_setting           triclinic
_symmetry_space_group_name_H-M   'P -1'
_symmetry_Int_Tables_number      2
_space_group_name_Hall           '-P 1'
loop_
_symmetry_equiv_pos_site_id
_symmetry_equiv_pos_as_xyz
1 x,y,z
2 -x,-y,-z
_cell_length_a                   10.8193(4)
_cell_length_b                   14.1032(4)
_cell_length_c                   19.9874(9)
_cell_angle_alpha                86.543(3)
_cell_angle_beta                 83.594(3)
_cell_angle_gamma                78.831(3)
_cell_volume                     2971.03
loop_
_atom_site_label
_atom_site_type_symbol
_atom_site_fract_x
_atom_site_fract_y
_atom_site_fract_z
Dy1 Dy 0.22833(2) 0.306990(16) -0.309563(13)
Dy2 Dy 0.21036(2) -0.443526(17) -0.173448(13)
Dy3 Dy 0.58627(2) -0.233413(17) -0.197733(13)
Dy4 Dy 0.54488(2) 0.011971(18) -0.352854(14)
C1 C -0.0901(5) 0.3713(4) -0.1463(3)
C2 C -0.1008(5) 0.3956(4) -0.0794(3)
H1 H -0.0526 0.4378 -0.0663
C3 C -0.1823(6) 0.3576(4) -0.0323(3)
C4 C -0.2554(6) 0.2950(5) -0.0513(3)
H2 H -0.3103 0.2691 -0.0194
C5 C -0.2460(7) 0.2717(5) -0.1178(3)
H3 H -0.2964 0.2310 -0.1308
C6 C -0.1624(6) 0.3080(5) -0.1655(3)
H4 H -0.1548 0.2903 -0.2101
C7 C 0.0053(5) 0.4093(4) -0.1948(3)
C8 C -0.1925(5) 0.3838(4) 0.0393(3)
C9 C 0.3950(5) 0.2439(4) -0.1216(3)
C10 C 0.4384(5) 0.1641(4) -0.1613(3)
H5 H 0.4201 0.1676 -0.2058
C11 C 0.5078(5) 0.0799(4) -0.1357(3)
C12 C 0.5334(6) 0.0733(4) -0.0688(3)
C13 C 0.4921(6) 0.1529(4) -0.0296(3)
H6 H 0.5108 0.1493 0.0149
C14 C 0.4239(5) 0.2375(4) -0.0551(3)
H7 H 0.3970 0.2903 -0.0279
C15 C 0.3205(5) 0.3352(4) -0.1487(3)
C16 C 0.5493(5) -0.0064(4) -0.1790(3)
C17 C 0.1261(5) 0.0113(4) -0.2627(3)
C18 C 0.1577(5) -0.0885(4) -0.2514(3)
H8 H 0.2409 -0.1201 -0.2615
C19 C 0.0671(5) -0.1410(4) -0.2254(3)
C20 C -0.0583(6) -0.0946(4) -0.2137(4)
H9 H -0.1204 -0.1297 -0.1973
C21 C -0.0904(6) 0.0041(5) -0.2264(5)
H10 H -0.1746 0.0351 -0.2198
C22 C 0.0020(6) 0.0570(4) -0.2490(4)
H11 H -0.0196 0.1238 -0.2549
C23 C 0.2278(5) 0.0686(4) -0.2860(3)
C24 C 0.1055(5) -0.2466(4) -0.2077(3)
C25 C 0.6023(5) -0.5325(4) -0.2763(3)
C26 C 0.5506(5) -0.6120(4) -0.2840(3)
H12 H 0.4702 -0.6155 -0.2632
C27 C 0.6179(5) -0.6879(4) -0.3228(3)
C28 C 0.7396(6) -0.6820(5) -0.3523(4)
H13 H 0.7870 -0.7326 -0.3772
C29 C 0.7888(6) -0.6020(5) -0.3446(4)
H14 H 0.8701 -0.5991 -0.3641
C30 C 0.7208(5) -0.5250(4) -0.3085(4)
H15 H 0.7537 -0.4693 -0.3057
C31 C 0.5281(5) -0.4526(4) -0.2340(3)
C32 C 0.5585(6) -0.7729(4) -0.3323(3)
C33 C 0.8456(5) -0.2508(4) -0.3798(3)
C34 C 0.8197(5) -0.2375(4) -0.4459(3)
H16 H 0.7596 -0.1851 -0.4589
C35 C 0.8835(5) -0.3025(4) -0.4934(3)
C36 C 0.9771(6) -0.3777(4) -0.4739(3)
H17 H 1.0242 -0.4188 -0.5061
C37 C 1.0008(6) -0.3921(5) -0.4075(4)
H18 H 1.0614 -0.4442 -0.3947
C38 C 0.9355(6) -0.3300(4) -0.3604(3)
H19 H 0.9508 -0.3403 -0.3155
C39 C 0.7722(5) -0.1829(4) -0.3277(3)
C40 C 0.8502(5) -0.2940(4) -0.5637(3)
C41 C 0.4518(5) -0.2729(4) -0.3947(3)
C42 C 0.3852(5) -0.3333(4) -0.3557(3)
H20 H 0.3641 -0.3231 -0.3100
C43 C 0.3489(5) -0.4105(4) -0.3849(3)
C44 C 0.3784(6) -0.4242(4) -0.4529(3)
H21 H 0.3537 -0.4746 -0.4726
C45 C 0.4450(7) -0.3624(5) -0.4917(3)
H22 H 0.4647 -0.3713 -0.5376
C46 C 0.4821(6) -0.2881(4) -0.4624(3)
H23 H 0.5282 -0.2477 -0.4887
C47 C 0.4883(5) -0.1878(4) -0.3657(3)
C48 C 0.2849(5) -0.4802(4) -0.3420(3)
C49 C 0.7326(8) 0.0784(6) -0.4878(5)
H24 H 0.7217 0.1425 -0.4956
C50 C 0.8709(9) 0.1547(7) -0.5673(5)
H25 H 0.8323 0.2143 -0.5465
H26 H 0.8489 0.1569 -0.6127
H27 H 0.9612 0.1458 -0.5679
C51 C 0.8823(10) -0.0187(8) -0.5588(5)
H28 H 0.8493 -0.0681 -0.5313
H29 H 0.9728 -0.0302 -0.5592
H30 H 0.8603 -0.0198 -0.6039
O1 O 0.0409(4) 0.3665(3) -0.2493(2)
O2 O 0.4314(4) 0.0883(3) -0.4414(2)
H31 H 0.3835 0.1427 -0.4338
H32 H 0.4588 0.0801 -0.4826
O3 O 0.0447(3) 0.4815(3) -0.1781(2)
O4 O 0.7706(4) -0.2929(3) -0.1446(2)
H33 H 0.7926 -0.3204 -0.1076
H34 H 0.8343 -0.2914 -0.1734
O5 O -0.1066(4) 0.4210(3) 0.0597(2)
O6 O 0.3763(4) -0.1787(3) -0.1614(2)
H35 H 0.3239 -0.2122 -0.1711
H36 H 0.3377 -0.1395 -0.1319
O7 O -0.2872(4) 0.3729(3) 0.0796(2)
O8 O 0.5308(4) -0.3198(3) -0.0934(2)
H37 H 0.5644 -0.3696 -0.0711
H38 H 0.4596 -0.3374 -0.0920
O9 O 0.2893(4) 0.3377(3) -0.2078(2)
O10 O 0.2927(4) 0.4091(3) -0.1137(2)
O11 O 0.5451(5) 0.0069(3) -0.2404(2)
O12 O 0.5867(4) -0.0870(3) -0.1512(2)
O13 O 0.3311(4) 0.0260(3) -0.3125(2)
O14 O 0.1992(4) 0.1575(3) -0.2768(2)
O15 O 0.2235(4) -0.2795(3) -0.2073(2)
O16 O 0.0284(3) -0.3014(3) -0.1924(2)
O17 O 0.5760(4) -0.3775(3) -0.2321(2)
O18 O 0.4243(4) -0.4624(3) -0.2037(2)
O19 O 0.4417(4) -0.7666(3) -0.3246(2)
O20 O 0.6324(4) -0.8505(3) -0.3479(3)
O21 O 0.7315(4) -0.0967(3) -0.3457(2)
O22 O 0.7555(4) -0.2172(3) -0.2692(2)
O23 O 0.7506(4) -0.2383(3) -0.5804(2)
O24 O 0.9180(4) -0.3475(3) -0.6074(2)
O25 O 0.4963(4) -0.1867(3) -0.3031(2)
O26 O 0.5064(4) -0.1196(3) -0.4054(2)
O27 O 0.2266(4) -0.4557(3) -0.2866(2)
O28 O 0.2927(4) -0.5623(3) -0.3647(2)
O29 O 0.6861(4) 0.0169(3) -0.4574(2)
N1 N 0.8274(6) 0.0775(5) -0.5307(4)
Dy1A Dy -0.22833(2) -0.306990(16) 0.309563(13)
Dy1_2 Dy -0.77167(2) 0.306990(16) 0.690437(13)
Dy1_3 Dy 0.22833(2) -0.693010(16) -0.309563(13)
Dy1A_2 Dy -0.22833(2) 0.693010(16) 0.309563(13)
Dy1A_3 Dy 0.77167(2) -0.306990(16) -0.690437(13)
Dy2A Dy -0.21036(2) 0.443526(17) 0.173448(13)
Dy2_2 Dy 0.21036(2) 0.556474(17) -0.173448(13)
Dy2A_2 Dy -0.21036(2) -0.556474(17) 0.173448(13)
Dy3A Dy -0.58627(2) 0.233413(17) 0.197733(13)
Dy4A Dy -0.54488(2) -0.011971(18) 0.352854(14)
Dy4_2 Dy 0.54488(2) -0.988029(18) -0.352854(14)
Dy4A_2 Dy -0.54488(2) 0.988029(18) 0.352854(14)
C1A C 0.0901(5) -0.3713(4) 0.1463(3)
C2A C 0.1008(5) -0.3956(4) 0.0794(3)
H1A H 0.0526 -0.4378 0.0663
C3A C 0.1823(6) -0.3576(4) 0.0323(3)
C4A C 0.2554(6) -0.2950(5) 0.0513(3)
H2A H 0.3103 -0.2691 0.0194
C5A C 0.2460(7) -0.2717(5) 0.1178(3)
H3A H 0.2964 -0.2310 0.1308
C6A C 0.1624(6) -0.3080(5) 0.1655(3)
H4A H 0.1548 -0.2903 0.2101
C7A C -0.0053(5) -0.4093(4) 0.1948(3)
C8A C 0.1925(5) -0.3838(4) -0.0393(3)
C9A C -0.3950(5) -0.2439(4) 0.1216(3)
C10A C -0.4384(5) -0.1641(4) 0.1613(3)
H5A H -0.4201 -0.1676 0.2058
C11A C -0.5078(5) -0.0799(4) 0.1357(3)
C12A C -0.5334(6) -0.0733(4) 0.0688(3)
C13A C -0.4921(6) -0.1529(4) 0.0296(3)
H6A H -0.5108 -0.1493 -0.0149
C14A C -0.4239(5) -0.2375(4) 0.0551(3)
H7A H -0.3970 -0.2903 0.0279
C15A C -0.3205(5) -0.3352(4) 0.1487(3)
C16A C -0.5493(5) 0.0064(4) 0.1790(3)
C17A C -0.1261(5) -0.0113(4) 0.2627(3)
C18A C -0.1577(5) 0.0885(4) 0.2514(3)
H8A H -0.2409 0.1201 0.2615
C19A C -0.0671(5) 0.1410(4) 0.2254(3)
C20A C 0.0583(6) 0.0946(4) 0.2137(4)
H9A H 0.1204 0.1297 0.1973
C21A C 0.0904(6) -0.0041(5) 0.2264(5)
H10A H 0.1746 -0.0351 0.2198
C22A C -0.0020(6) -0.0570(4) 0.2490(4)
H11A H 0.0196 -0.1238 0.2549
C23A C -0.2278(5) -0.0686(4) 0.2860(3)
C24A C -0.1055(5) 0.2466(4) 0.2077(3)
C25A C -0.6023(5) 0.5325(4) 0.2763(3)
C26A C -0.5506(5) 0.6120(4) 0.2840(3)
H12A H -0.4702 0.6155 0.2632
C27A C -0.6179(5) 0.6879(4) 0.3228(3)
C28A C -0.7396(6) 0.6820(5) 0.3523(4)
H13A H -0.7870 0.7326 0.3772
C29A C -0.7888(6) 0.6020(5) 0.3446(4)
H14A H -0.8701 0.5991 0.3641
C30A C -0.7208(5) 0.5250(4) 0.3085(4)
H15A H -0.7537 0.4693 0.3057
C31A C -0.5281(5) 0.4526(4) 0.2340(3)
C32A C -0.5585(6) 0.7729(4) 0.3323(3)
C33A C -0.8456(5) 0.2508(4) 0.3798(3)
C34A C -0.8197(5) 0.2375(4) 0.4459(3)
H16A H -0.7596 0.1851 0.4589
C35A C -0.8835(5) 0.3025(4) 0.4934(3)
C36A C -0.9771(6) 0.3777(4) 0.4739(3)
H17A H -1.0242 0.4188 0.5061
C37A C -1.0008(6) 0.3921(5) 0.4075(4)
H18A H -1.0614 0.4442 0.3947
C38A C -0.9355(6) 0.3300(4) 0.3604(3)
H19A H -0.9508 0.3403 0.3155
C39A C -0.7722(5) 0.1829(4) 0.3277(3)
C40A C -0.8502(5) 0.2940(4) 0.5637(3)
C40_2 C -0.1498(5) -0.2940(4) 0.4363(3)
C40A_2 C 0.1498(5) 0.2940(4) -0.4363(3)
C41A C -0.4518(5) 0.2729(4) 0.3947(3)
C42A C -0.3852(5) 0.3333(4) 0.3557(3)
H20A H -0.3641 0.3231 0.3100
C43A C -0.3489(5) 0.4105(4) 0.3849(3)
C44A C -0.3784(6) 0.4242(4) 0.4529(3)
H21A H -0.3537 0.4746 0.4726
C45A C -0.4450(7) 0.3624(5) 0.4917(3)
H22A H -0.4647 0.3713 0.5376
C46A C -0.4821(6) 0.2881(4) 0.4624(3)
H23A H -0.5282 0.2477 0.4887
C47A C -0.4883(5) 0.1878(4) 0.3657(3)
C48A C -0.2849(5) 0.4802(4) 0.3420(3)
C49A C -0.7326(8) -0.0784(6) 0.4878(5)
H24A H -0.7217 -0.1425 0.4956
C50A C -0.8709(9) -0.1547(7) 0.5673(5)
H25A H -0.8323 -0.2143 0.5465
H26A H -0.8489 -0.1569 0.6127
H27A H -0.9612 -0.1458 0.5679
C51A C -0.8823(10) 0.0187(8) 0.5588(5)
H28A H -0.8493 0.0681 0.5313
H29A H -0.9728 0.0302 0.5592
H30A H -0.8603 0.0198 0.6039
O1A O -0.0409(4) -0.3665(3) 0.2493(2)
O2A O -0.4314(4) -0.0883(3) 0.4414(2)
H31A H -0.3835 -0.1427 0.4338
H32A H -0.4588 -0.0801 0.4826
O3A O -0.0447(3) -0.4815(3) 0.1781(2)
O3_2 O 0.0447(3) -0.5185(3) -0.1781(2)
O3A_2 O -0.0447(3) 0.5185(3) 0.1781(2)
O4A O -0.7706(4) 0.2929(3) 0.1446(2)
H33A H -0.7926 0.3204 0.1076
H34A H -0.8343 0.2914 0.1734
O5A O 0.1066(4) -0.4210(3) -0.0597(2)
O6A O -0.3763(4) 0.1787(3) 0.1614(2)
H35A H -0.3239 0.2122 0.1711
H36A H -0.3377 0.1395 0.1319
O7A O 0.2872(4) -0.3729(3) -0.0796(2)
O8A O -0.5308(4) 0.3198(3) 0.0934(2)
H37A H -0.5644 0.3696 0.0711
H38A H -0.4596 0.3374 0.0920
O9A O -0.2893(4) -0.3377(3) 0.2078(2)
O10A O -0.2927(4) -0.4091(3) 0.1137(2)
O10_2 O 0.2927(4) -0.5909(3) -0.1137(2)
O10A_2 O -0.2927(4) 0.5909(3) 0.1137(2)
O11A O -0.5451(5) -0.0069(3) 0.2404(2)
O12A O -0.5867(4) 0.0870(3) 0.1512(2)
O13A O -0.3311(4) -0.0260(3) 0.3125(2)
O14A O -0.1992(4) -0.1575(3) 0.2768(2)
O15A O -0.2235(4) 0.2795(3) 0.2073(2)
O16A O -0.0284(3) 0.3014(3) 0.1924(2)
O17A O -0.5760(4) 0.3775(3) 0.2321(2)
O18A O -0.4243(4) 0.4624(3) 0.2037(2)
O19A O -0.4417(4) 0.7666(3) 0.3246(2)
O19_2 O 0.4417(4) 0.2334(3) -0.3246(2)
O19A_2 O -0.4417(4) -0.2334(3) 0.3246(2)
O20A O -0.6324(4) 0.8505(3) 0.3479(3)
O20_2 O 0.6324(4) 0.1495(3) -0.3479(3)
O20A_2 O -0.6324(4) -0.1495(3) 0.3479(3)
O21A O -0.7315(4) 0.0967(3) 0.3457(2)
O22A O -0.7555(4) 0.2172(3) 0.2692(2)
O23A O -0.7506(4) 0.2383(3) 0.5804(2)
O23_2 O -0.2494(4) -0.2383(3) 0.4196(2)
O23A_2 O 0.2494(4) 0.2383(3) -0.4196(2)
O24A O -0.9180(4) 0.3475(3) 0.6074(2)
O24_2 O -0.0820(4) -0.3475(3) 0.3926(2)
O24A_2 O 0.0820(4) 0.3475(3) -0.3926(2)
O25A O -0.4963(4) 0.1867(3) 0.3031(2)
O26A O -0.5064(4) 0.1196(3) 0.4054(2)
O27A O -0.2266(4) 0.4557(3) 0.2866(2)
O28A O -0.2927(4) 0.5623(3) 0.3647(2)
O28_2 O 0.2927(4) 0.4377(3) -0.3647(2)
O28A_2 O -0.2927(4) -0.4377(3) 0.3647(2)
O29A O -0.6861(4) -0.0169(3) 0.4574(2)
N1A N -0.8274(6) -0.0775(5) 0.5307(4)
C52 C 0.2123(9) 0.0071(7) -0.0802(6)
H39 H 0.2212 0.0220 -0.1262
C53 C 0.0913(11) 0.1672(8) -0.0752(8)
H40 H 0.1101 0.1601 -0.1229
H41 H 0.1271 0.2195 -0.0619
H42 H 0.0011 0.1810 -0.0641
C54 C 0.1317(12) 0.0691(12) 0.0300(7)
H43 H 0.1722 0.0058 0.0448
H44 H 0.0432 0.0793 0.0458
H45 H 0.1698 0.1169 0.0478
O30 O 0.2596(7) -0.0707(5) -0.0615(4)
N2 N 0.1458(7) 0.0766(6) -0.0394(5)
O31 O 0.8419(4) -0.3663(4) -0.0237(2)
H46 H 0.9405 -0.3647 -0.0122
H47 H 0.9339 -0.4064 -0.0399
O32 O 0.5438(10) -0.5123(8) -0.0659(6)
H48 H 0.5974 -0.4866 -0.0490
H49 H 0.6031 -0.5591 -0.0574
loop_
_geom_bond_atom_site_label_1
_geom_bond_atom_site_label_2
_geom_bond_site_symmetry_1
_geom_bond_site_symmetry_2
Dy1 O1 1_555 1_555
Dy2 O15 1_555 1_555
Dy3 O4 1_555 1_555
Dy4 O2 1_555 1_555
C1 C2 1_555 1_555
C2 H1 1_555 1_555
C3 C2 1_555 1_555
C4 C3 1_555 1_555
H2 C4 1_555 1_555
C5 C4 1_555 1_555
H3 C5 1_555 1_555
C6 C1 1_555 1_555
H4 C6 1_555 1_555
C7 C1 1_555 1_555
C8 C3 1_555 1_555
C9 C10 1_555 1_555
C10 H5 1_555 1_555
C11 C10 1_555 1_555
C12 C11 1_555 1_555
C13 C12 1_555 1_555
H6 C13 1_555 1_555
C14 C9 1_555 1_555
H7 C14 1_555 1_555
C15 C9 1_555 1_555
C16 C11 1_555 1_555
C17 C18 1_555 1_555
C18 H8 1_555 1_555
C19 C18 1_555 1_555
C20 C19 1_555 1_555
H9 C20 1_555 1_555
C21 C20 1_555 1_555
H10 C21 1_555 1_555
C22 C17 1_555 1_555
H11 C22 1_555 1_555
C23 C17 1_555 1_555
C24 C19 1_555 1_555
C25 C26 1_555 1_555
C26 H12 1_555 1_555
C27 C26 1_555 1_555
C28 C27 1_555 1_555
H13 C28 1_555 1_555
C29 C28 1_555 1_555
H14 C29 1_555 1_555
C30 C25 1_555 1_555
H15 C30 1_555 1_555
C31 C25 1_555 1_555
C32 C27 1_555 1_555
C33 C34 1_555 1_555
C34 H16 1_555 1_555
C35 C34 1_555 1_555
C36 C35 1_555 1_555
H17 C36 1_555 1_555
C37 C36 1_555 1_555
H18 C37 1_555 1_555
C38 C33 1_555 1_555
H19 C38 1_555 1_555
C39 C33 1_555 1_555
C40 C35 1_555 1_555
C41 C42 1_555 1_555
C42 H20 1_555 1_555
C43 C42 1_555 1_555
C44 C43 1_555 1_555
H21 C44 1_555 1_555
C45 C44 1_555 1_555
H22 C45 1_555 1_555
C46 C41 1_555 1_555
H23 C46 1_555 1_555
C47 C41 1_555 1_555
C48 C43 1_555 1_555
C49 H24 1_555 1_555
C50 H25 1_555 1_555
H26 C50 1_555 1_555
H27 C50 1_555 1_555
C51 H28 1_555 1_555
H29 C51 1_555 1_555
H30 C51 1_555 1_555
O1 C7 1_555 1_555
O2 H31 1_555 1_555
H32 O2 1_555 1_555
O3 C7 1_555 1_555
O4 H33 1_555 1_555
H34 O4 1_555 1_555
O5 C8 1_555 1_555
O6 Dy3 1_555 1_555
H35 O6 1_555 1_555
H36 O6 1_555 1_555
O7 C8 1_555 1_555
O8 Dy3 1_555 1_555
H37 O8 1_555 1_555
H38 O8 1_555 1_555
O9 Dy1 1_555 1_555
O10 C15 1_555 1_555
O11 Dy4 1_555 1_555
O12 Dy3 1_555 1_555
O13 Dy4 1_555 1_555
O14 Dy1 1_555 1_555
O15 C24 1_555 1_555
O16 Dy2 1_555 1_555
O17 Dy3 1_555 1_555
O18 Dy2 1_555 1_555
O19 C32 1_555 1_555
O20 C32 1_555 1_555
O21 Dy4 1_555 1_555
O22 Dy3 1_555 1_555
O23 C40 1_555 1_555
O24 C40 1_555 1_555
O25 Dy3 1_555 1_555
O26 Dy4 1_555 1_555
O27 Dy2 1_555 1_555
O28 C48 1_555 1_555
O29 Dy4 1_555 1_555
N1 C49 1_555 1_555
C52 H39 1_555 1_555
C53 H40 1_555 1_555
H41 C53 1_555 1_555
H42 C53 1_555 1_555
C54 H43 1_555 1_555
H44 C54 1_555 1_555
H45 C54 1_555 1_555
O30 C52 1_555 1_555
N2 C52 1_555 1_555
O31 H46 1_555 1_555
H47 O31 1_555 1_555
O32 H48 1_555 1_555
H49 O32 1_555 1_555
Dy1A O1A 1_555 1_555
Dy1_2 O23A 1_555 1_555
Dy1_3 O19 1_555 1_555
Dy1A_2 O19A 1_555 1_555
Dy1A_3 O23 1_555 1_555
Dy2A O5 1_555 1_555
Dy2_2 O3 1_555 1_555
Dy2A_2 O3A 1_555 1_555
Dy3A O4A 1_555 1_555
Dy4A O2A 1_555 1_555
Dy4_2 O20 1_555 1_555
Dy4A_2 O20A 1_555 1_555
C1A C2A 1_555 1_555
C2A H1A 1_555 1_555
C3A C2A 1_555 1_555
C4A C3A 1_555 1_555
H2A C4A 1_555 1_555
C5A C4A 1_555 1_555
H3A C5A 1_555 1_555
C6A C1A 1_555 1_555
H4A C6A 1_555 1_555
C7A C1A 1_555 1_555
C8A C3A 1_555 1_555
C9A C10A 1_555 1_555
C10A H5A 1_555 1_555
C11A C10A 1_555 1_555
C12A C11A 1_555 1_555
C13A C12A 1_555 1_555
H6A C13A 1_555 1_555
C14A C9A 1_555 1_555
H7A C14A 1_555 1_555
C15A C9A 1_555 1_555
C16A C11A 1_555 1_555
C17A C18A 1_555 1_555
C18A H8A 1_555 1_555
C19A C18A 1_555 1_555
C20A C19A 1_555 1_555
H9A C20A 1_555 1_555
C21A C20A 1_555 1_555
H10A C21A 1_555 1_555
C22A C17A 1_555 1_555
H11A C22A 1_555 1_555
C23A C17A 1_555 1_555
C24A C19A 1_555 1_555
C25A C26A 1_555 1_555
C26A H12A 1_555 1_555
C27A C26A 1_555 1_555
C28A C27A 1_555 1_555
H13A C28A 1_555 1_555
C29A C28A 1_555 1_555
H14A C29A 1_555 1_555
C30A C25A 1_555 1_555
H15A C30A 1_555 1_555
C31A C25A 1_555 1_555
C32A C27A 1_555 1_555
C33A C34A 1_555 1_555
C34A H16A 1_555 1_555
C35A C34A 1_555 1_555
C36A C35A 1_555 1_555
H17A C36A 1_555 1_555
C37A C36A 1_555 1_555
H18A C37A 1_555 1_555
C38A C33A 1_555 1_555
H19A C38A 1_555 1_555
C39A C33A 1_555 1_555
C40A C35A 1_555 1_555
C40_2 O23_2 1_555 1_555
C40A_2 O23A_2 1_555 1_555
C41A C42A 1_555 1_555
C42A H20A 1_555 1_555
C43A C42A 1_555 1_555
C44A C43A 1_555 1_555
H21A C44A 1_555 1_555
C45A C44A 1_555 1_555
H22A C45A 1_555 1_555
C46A C41A 1_555 1_555
H23A C46A 1_555 1_555
C47A C41A 1_555 1_555
C48A C43A 1_555 1_555
C49A H24A 1_555 1_555
C50A H25A 1_555 1_555
H26A C50A 1_555 1_555
H27A C50A 1_555 1_555
C51A H28A 1_555 1_555
H29A C51A 1_555 1_555
H30A C51A 1_555 1_555
O1A C7A 1_555 1_555
O2A H31A 1_555 1_555
H32A O2A 1_555 1_555
O3A C7A 1_555 1_555
O3_2 Dy2 1_555 1_555
O3A_2 Dy2A 1_555 1_555
O4A H33A 1_555 1_555
H34A O4A 1_555 1_555
O5A Dy2 1_555 1_555
O6A Dy3A 1_555 1_555
H35A O6A 1_555 1_555
H36A O6A 1_555 1_555
O7A Dy2 1_555 1_555
O8A Dy3A 1_555 1_555
H37A O8A 1_555 1_555
H38A O8A 1_555 1_555
O9A Dy1A 1_555 1_555
O10A Dy2A_2 1_555 1_555
O10_2 Dy2 1_555 1_555
O10A_2 Dy2A 1_555 1_555
O11A Dy4A 1_555 1_555
O12A Dy3A 1_555 1_555
O13A Dy4A 1_555 1_555
O14A Dy1A 1_555 1_555
O15A Dy2A 1_555 1_555
O16A Dy2A 1_555 1_555
O17A Dy3A 1_555 1_555
O18A Dy2A 1_555 1_555
O19A C32A 1_555 1_555
O19_2 Dy1 1_555 1_555
O19A_2 Dy1A 1_555 1_555
O20A C32A 1_555 1_555
O20_2 Dy4 1_555 1_555
O20A_2 Dy4A 1_555 1_555
O21A Dy4A 1_555 1_555
O22A Dy3A 1_555 1_555
O23A C40A 1_555 1_555
O23_2 Dy1A 1_555 1_555
O23A_2 Dy1 1_555 1_555
O24A Dy1_2 1_555 1_555
O24_2 Dy1A 1_555 1_555
O24A_2 Dy1 1_555 1_555
O25A Dy3A 1_555 1_555
O26A Dy4A 1_555 1_555
O27A Dy2A 1_555 1_555
O28A Dy1A_2 1_555 1_555
O28_2 Dy1 1_555 1_555
O28A_2 Dy1A 1_555 1_555
O29A Dy4A 1_555 1_555
N1A C49A 1_555 1_555
C5 C6 1_555 1_555
C13 C14 1_555 1_555
C15 O9 1_555 1_555
C16 O11 1_555 1_555
C16 O12 1_555 1_555
C21 C22 1_555 1_555
C23 O13 1_555 1_555
C23 O14 1_555 1_555
C24 O16 1_555 1_555
C29 C30 1_555 1_555
C31 O17 1_555 1_555
C31 O18 1_555 1_555
C37 C38 1_555 1_555
C39 O21 1_555 1_555
C39 O22 1_555 1_555
C45 C46 1_555 1_555
C47 O25 1_555 1_555
C47 O26 1_555 1_555
C48 O27 1_555 1_555
C49 O29 1_555 1_555
C50 N1 1_555 1_555
C51 N1 1_555 1_555
O7 Dy2A 1_555 1_555
O10 Dy2_2 1_555 1_555
O24 Dy1A_3 1_555 1_555
O28 Dy1_3 1_555 1_555
C53 N2 1_555 1_555
C54 N2 1_555 1_555
C5A C6A 1_555 1_555
C8A O5A 1_555 1_555
C8A O7A 1_555 1_555
C13A C14A 1_555 1_555
C15A O9A 1_555 1_555
C15A O10A 1_555 1_555
C16A O11A 1_555 1_555
C16A O12A 1_555 1_555
C21A C22A 1_555 1_555
C23A O13A 1_555 1_555
C23A O14A 1_555 1_555
C24A O15A 1_555 1_555
C24A O16A 1_555 1_555
C29A C30A 1_555 1_555
C31A O17A 1_555 1_555
C31A O18A 1_555 1_555
C37A C38A 1_555 1_555
C39A O21A 1_555 1_555
C39A O22A 1_555 1_555
C40A O24A 1_555 1_555
C40_2 O24_2 1_555 1_555
C40A_2 O24A_2 1_555 1_555
C45A C46A 1_555 1_555
C47A O25A 1_555 1_555
C47A O26A 1_555 1_555
C48A O27A 1_555 1_555
C48A O28A 1_555 1_555
C49A O29A 1_555 1_555
C50A N1A 1_555 1_555
C51A N1A 1_555 1_555

#END
