
#######################################################################
#
#                 Cambridge Crystallographic Data Centre
#                                CCDC 
#
#######################################################################
#
# If this CIF has been generated from an entry in the Cambridge 
# Structural Database, then it will include bibliographic, chemical, 
# crystal, experimental, refinement or atomic coordinate data resulting 
# from the CCDC's data processing and validation procedures.
#
#######################################################################

data_YEBMIC
_symmetry_cell_setting           monoclinic
_symmetry_space_group_name_H-M   'P 21/c'
_symmetry_Int_Tables_number      14
_space_group_name_Hall           '-P 2ybc'
loop_
_symmetry_equiv_pos_site_id
_symmetry_equiv_pos_as_xyz
1 x,y,z
2 -x,1/2+y,1/2-z
3 -x,-y,-z
4 x,1/2-y,1/2+z
_cell_length_a                   7.2238(6)
_cell_length_b                   7.4940(7)
_cell_length_c                   15.4510(13)
_cell_angle_alpha                90
_cell_angle_beta                 92.296(4)
_cell_angle_gamma                90
_cell_volume                     835.771
loop_
_atom_site_label
_atom_site_type_symbol
_atom_site_fract_x
_atom_site_fract_y
_atom_site_fract_z
Re1 Re 0.47856(2) 0.84442(2) 0.619915(10)
Ag1 Ag 0.47852(4) 0.63526(5) 0.36809(2)
O1 O 0.2537(6) 0.9190(7) 0.6169(3)
O2 O 0.6247(7) 1.0228(6) 0.6139(3)
O3 O 0.5065(6) 0.7066(5) 0.5330(2)
O4 O 0.5263(6) 0.7251(6) 0.7134(2)
N1 N 0.7861(4) 0.6089(5) 0.3704(2)
N2 N 1.1701(4) 0.6082(5) 0.3686(2)
C1 C 0.8778(5) 0.5208(6) 0.3092(3)
C2 C 1.0688(5) 0.5224(6) 0.3085(3)
C3 C 1.0815(6) 0.6956(6) 0.4300(3)
C4 C 0.8896(6) 0.6947(6) 0.4305(3)
H1 H 0.809 0.455 0.265
H2 H 1.130 0.461 0.263
H3 H 1.151 0.760 0.474
H4 H 0.829 0.758 0.475
Ag1C Ag 0.47852(4) 0.86474(5) 0.86809(2)
Ag1_2 Ag 1.47852(4) 0.63526(5) 0.36809(2)
O4C O 0.5263(6) 0.7749(6) 0.2134(2)
N2_2 N 0.1701(4) 0.6082(5) 0.3686(2)
loop_
_geom_bond_atom_site_label_1
_geom_bond_atom_site_label_2
_geom_bond_site_symmetry_1
_geom_bond_site_symmetry_2
Re1 O1 1_555 1_555
Ag1 O3 1_555 1_555
O2 Re1 1_555 1_555
O3 Re1 1_555 1_555
O4 Re1 1_555 1_555
N1 Ag1 1_555 1_555
N2 C2 1_555 1_555
C1 N1 1_555 1_555
C2 C1 1_555 1_555
C3 N2 1_555 1_555
C4 N1 1_555 1_555
H1 C1 1_555 1_555
H2 C2 1_555 1_555
H3 C3 1_555 1_555
H4 C4 1_555 1_555
Ag1C O4 1_555 1_555
Ag1_2 N2 1_555 1_555
O4C Ag1 1_555 1_555
N2_2 Ag1 1_555 1_555
C3 C4 1_555 1_555

#END
