
#######################################################################
#
#                 Cambridge Crystallographic Data Centre
#                                CCDC 
#
#######################################################################
#
# If this CIF has been generated from an entry in the Cambridge 
# Structural Database, then it will include bibliographic, chemical, 
# crystal, experimental, refinement or atomic coordinate data resulting 
# from the CCDC's data processing and validation procedures.
#
#######################################################################

data_YEBMEY
_symmetry_cell_setting           monoclinic
_symmetry_space_group_name_H-M   'P 21/c'
_symmetry_Int_Tables_number      14
_space_group_name_Hall           '-P 2ybc'
loop_
_symmetry_equiv_pos_site_id
_symmetry_equiv_pos_as_xyz
1 x,y,z
2 -x,1/2+y,1/2-z
3 -x,-y,-z
4 x,1/2-y,1/2+z
_cell_length_a                   17.0562(12)
_cell_length_b                   7.4224(4)
_cell_length_c                   14.0180(10)
_cell_angle_alpha                90
_cell_angle_beta                 114.164(8)
_cell_angle_gamma                90
_cell_volume                     1619.15
loop_
_atom_site_label
_atom_site_type_symbol
_atom_site_fract_x
_atom_site_fract_y
_atom_site_fract_z
Ca1 Ca 1.0000 0.5000 0.5000
P1 P 0.88933(5) 0.14796(11) 0.31264(6)
P2 P 0.82324(5) -0.26815(11) 0.54633(6)
N1 N 0.77088(15) 0.0130(3) 0.3917(2)
H1 H 0.7327 0.0278 0.3241
O1 O 0.90400(13) 0.3294(3) 0.36203(16)
O2 O 0.96480(13) 0.0575(3) 0.30204(17)
O3 O 0.80942(14) 0.1615(3) 0.20525(16)
H2 H 0.8046 0.0684 0.1718
O4 O 0.86841(13) -0.1126(3) 0.62593(17)
H3 H 0.9207 -0.1108 0.6590
O5 O 0.88598(13) -0.3676(3) 0.51741(18)
O6 O 0.76903(13) -0.3772(3) 0.58774(18)
O7 O 0.39083(15) 0.3111(4) 0.4479(2)
H4 H 0.3341 0.3474 0.4281
O8 O 0.36862(14) 0.4516(4) 0.29782(19)
O9 O 1.01086(15) 0.7063(3) 0.37559(18)
H5 H 0.9951 0.8050 0.3482
H6 H 1.0194 0.6514 0.3300
C1 C 0.85832(19) -0.0129(4) 0.3896(3)
H9 H 0.8601 -0.1327 0.3630
H10 H 0.9013 -0.0087 0.4611
C2 C 0.74363(18) -0.1557(4) 0.4316(2)
H11 H 0.7234 -0.2424 0.3748
H12 H 0.6950 -0.1244 0.4473
C3 C 0.76630(19) 0.1837(4) 0.4501(3)
H13 H 0.7996 0.1666 0.5245
H14 H 0.7913 0.2834 0.4275
C4 C 0.6746(2) 0.2292(4) 0.4306(2)
C5 C 0.6422(2) 0.1822(5) 0.5038(3)
H15 H 0.6769 0.1224 0.5648
C6 C 0.5574(2) 0.2249(5) 0.4852(3)
H16 H 0.5357 0.1922 0.5338
C7 C 0.5053(2) 0.3156(4) 0.3950(3)
C8 C 0.5384(2) 0.3647(5) 0.3226(3)
H17 H 0.5041 0.4264 0.2621
C9 C 0.6221(2) 0.3217(5) 0.3406(3)
H18 H 0.6436 0.3549 0.2920
C10 C 0.4147(2) 0.3666(5) 0.3742(3)
Ca1_2 Ca 1.0000 -0.5000 0.5000
Ca1_3 Ca 1.0000 1.5000 0.5000
P1B P 1.11067(5) 0.85204(11) 0.68736(6)
P2B P 1.17676(5) 1.26815(11) 0.45367(6)
N1B N 1.22912(15) 0.9870(3) 0.6083(2)
H1B H 1.2673 0.9722 0.6759
O1B O 1.09600(13) 0.6706(3) 0.63797(16)
O2B O 1.03520(13) 0.9425(3) 0.69796(17)
O3B O 1.19058(14) 0.8385(3) 0.79475(16)
H2B H 1.1954 0.9316 0.8282
O4B O 1.13159(13) 1.1126(3) 0.37407(17)
H3B H 1.0793 1.1108 0.3410
O5B O 1.11402(13) 1.3676(3) 0.48259(18)
O5_2 O 0.88598(13) 0.6324(3) 0.51741(18)
O5B_2 O 1.11402(13) 0.3676(3) 0.48259(18)
O6B O 1.23097(13) 1.3772(3) 0.41226(18)
O7B O 1.60917(15) 0.6889(4) 0.5521(2)
H4B H 1.6659 0.6526 0.5719
O8B O 1.63138(14) 0.5484(4) 0.70218(19)
O9B O 0.98914(15) 0.2937(3) 0.62441(18)
H5B H 1.0049 0.1950 0.6518
H6B H 0.9806 0.3486 0.6700
C1B C 1.14168(19) 1.0129(4) 0.6104(3)
H9B H 1.1399 1.1327 0.6370
H10B H 1.0987 1.0087 0.5389
C2B C 1.25637(18) 1.1557(4) 0.5684(2)
H11B H 1.2766 1.2424 0.6252
H12B H 1.3050 1.1244 0.5527
C3B C 1.23370(19) 0.8163(4) 0.5499(3)
H13B H 1.2004 0.8334 0.4755
H14B H 1.2087 0.7166 0.5725
C4B C 1.3254(2) 0.7708(4) 0.5694(2)
C5B C 1.3578(2) 0.8178(5) 0.4962(3)
H15B H 1.3231 0.8776 0.4352
C6B C 1.4426(2) 0.7751(5) 0.5148(3)
H16B H 1.4643 0.8078 0.4662
C7B C 1.4947(2) 0.6844(4) 0.6050(3)
C8B C 1.4616(2) 0.6353(5) 0.6774(3)
H17B H 1.4959 0.5736 0.7379
C9B C 1.3779(2) 0.6783(5) 0.6594(3)
H18B H 1.3564 0.6451 0.7080
C10B C 1.5853(2) 0.6334(5) 0.6258(3)
O10 O 0.76153(19) 0.5822(4) 0.2567(2)
H7 H 0.8025 0.5128 0.2753
H8 H 0.7524 0.6477 0.2061
loop_
_geom_bond_atom_site_label_1
_geom_bond_atom_site_label_2
_geom_bond_site_symmetry_1
_geom_bond_site_symmetry_2
Ca1 O1 1_555 1_555
P1 O1 1_555 1_555
P2 O4 1_555 1_555
N1 H1 1_555 1_555
O2 P1 1_555 1_555
O3 P1 1_555 1_555
H2 O3 1_555 1_555
O4 H3 1_555 1_555
O5 P2 1_555 1_555
O6 P2 1_555 1_555
O7 H4 1_555 1_555
O8 C10 1_555 1_555
O9 Ca1 1_555 1_555
H5 O9 1_555 1_555
H6 O9 1_555 1_555
O10 H7 1_555 1_555
H8 O10 1_555 1_555
C1 P1 1_555 1_555
H9 C1 1_555 1_555
H10 C1 1_555 1_555
C2 P2 1_555 1_555
H11 C2 1_555 1_555
H12 C2 1_555 1_555
C3 N1 1_555 1_555
H13 C3 1_555 1_555
H14 C3 1_555 1_555
C4 C3 1_555 1_555
C5 C4 1_555 1_555
H15 C5 1_555 1_555
C6 C5 1_555 1_555
H16 C6 1_555 1_555
C7 C6 1_555 1_555
C8 C7 1_555 1_555
H17 C8 1_555 1_555
C9 C4 1_555 1_555
H18 C9 1_555 1_555
C10 O7 1_555 1_555
Ca1_2 O5 1_555 1_555
Ca1_3 O5B 1_555 1_555
P1B O1B 1_555 1_555
P2B O4B 1_555 1_555
N1B H1B 1_555 1_555
O1B Ca1 1_555 1_555
O2B P1B 1_555 1_555
O3B P1B 1_555 1_555
H2B O3B 1_555 1_555
O4B H3B 1_555 1_555
O5B P2B 1_555 1_555
O5_2 Ca1 1_555 1_555
O5B_2 Ca1 1_555 1_555
O6B P2B 1_555 1_555
O7B H4B 1_555 1_555
O8B C10B 1_555 1_555
O9B Ca1 1_555 1_555
H5B O9B 1_555 1_555
H6B O9B 1_555 1_555
C1B P1B 1_555 1_555
H9B C1B 1_555 1_555
H10B C1B 1_555 1_555
C2B P2B 1_555 1_555
H11B C2B 1_555 1_555
H12B C2B 1_555 1_555
C3B N1B 1_555 1_555
H13B C3B 1_555 1_555
H14B C3B 1_555 1_555
C4B C3B 1_555 1_555
C5B C4B 1_555 1_555
H15B C5B 1_555 1_555
C6B C5B 1_555 1_555
H16B C6B 1_555 1_555
C7B C6B 1_555 1_555
C8B C7B 1_555 1_555
H17B C8B 1_555 1_555
C9B C4B 1_555 1_555
H18B C9B 1_555 1_555
C10B O7B 1_555 1_555
N1 C1 1_555 1_555
N1 C2 1_555 1_555
C7 C10 1_555 1_555
C8 C9 1_555 1_555
N1B C1B 1_555 1_555
N1B C2B 1_555 1_555
C7B C10B 1_555 1_555
C8B C9B 1_555 1_555

#END
