
#######################################################################
#
#                 Cambridge Crystallographic Data Centre
#                                CCDC 
#
#######################################################################
#
# If this CIF has been generated from an entry in the Cambridge 
# Structural Database, then it will include bibliographic, chemical, 
# crystal, experimental, refinement or atomic coordinate data resulting 
# from the CCDC's data processing and validation procedures.
#
#######################################################################

data_YEBPIF
_symmetry_cell_setting           orthorhombic
_symmetry_space_group_name_H-M   'P n a 21'
_symmetry_Int_Tables_number      33
_space_group_name_Hall           'P 2c -2n'
loop_
_symmetry_equiv_pos_site_id
_symmetry_equiv_pos_as_xyz
1 x,y,z
2 -x,-y,1/2+z
3 1/2-x,1/2+y,1/2+z
4 1/2+x,1/2-y,z
_cell_length_a                   15.852(3)
_cell_length_b                   16.153(3)
_cell_length_c                   11.348(2)
_cell_angle_alpha                90
_cell_angle_beta                 90
_cell_angle_gamma                90
_cell_volume                     2905.74
loop_
_atom_site_label
_atom_site_type_symbol
_atom_site_fract_x
_atom_site_fract_y
_atom_site_fract_z
Cu1 Cu 0.87391(3) 0.12236(2) 0.36510(4)
Gd1 Gd 0.685111(8) 0.035203(8) 0.27961(2)
N1 N 0.9794(2) 0.0694(2) 0.4288(3)
N2 N 0.9087(2) 0.24018(18) 0.3830(3)
O1 O 0.77311(13) 0.15347(13) 0.2727(3)
O2 O 0.82681(16) 0.01104(17) 0.3313(2)
O3 O 0.74567(16) -0.10804(16) 0.2274(2)
O4 O 0.62477(16) 0.16498(16) 0.1747(3)
O5 O 0.43666(17) 0.03261(16) 0.6949(3)
O6 O 0.46389(16) -0.04869(16) 0.8468(2)
O7 O 0.72398(18) 0.02893(17) 1.0812(2)
O8 O 0.82390(16) 0.10484(19) 0.9947(3)
O9 O 0.68873(16) 0.09424(19) 0.4655(2)
O10 O 0.81132(17) 0.1283(2) 0.5504(3)
O11 O 0.6532(2) -0.0725(2) 0.4268(3)
C1 C 1.0395(3) 0.1194(2) 0.4984(4)
H1 H 1.0940 0.0896 0.5027
H2 H 1.0177 0.1252 0.5797
C2 C 1.0544(3) 0.2046(3) 0.4473(4)
H3 H 1.0677 0.1993 0.3624
H4 H 1.1038 0.2300 0.4867
C3 C 0.9785(3) 0.2612(2) 0.4619(4)
H5 H 0.9586 0.2580 0.5444
H6 H 0.9962 0.3190 0.4466
C4 C 0.8719(3) 0.3009(2) 0.3315(3)
H7 H 0.8973 0.3536 0.3429
C5 C 0.7973(2) 0.3002(2) 0.2585(3)
C6 C 0.7681(3) 0.3767(2) 0.2140(4)
H8 H 0.8001 0.4254 0.2280
C7 C 0.6950(3) 0.3819(2) 0.1513(4)
H9 H 0.6777 0.4336 0.1198
C8 C 0.6452(3) 0.3114(2) 0.1330(4)
H10 H 0.5940 0.3148 0.0898
C9 C 0.6723(2) 0.2370(2) 0.1794(3)
C10 C 0.7491(2) 0.2278(2) 0.2379(3)
C11 C 0.8682(2) -0.0591(2) 0.3180(3)
C12 C 0.8266(2) -0.1263(2) 0.2631(4)
C13 C 0.8653(2) -0.2023(2) 0.2514(3)
H11 H 0.8357 -0.2471 0.2162
C14 C 0.9479(2) -0.2135(2) 0.2910(5)
H12 H 0.9744 -0.2660 0.2834
C15 C 0.9908(2) -0.1485(2) 0.3410(4)
H13 H 1.0472 -0.1561 0.3671
C16 C 0.9519(2) -0.0705(2) 0.3541(3)
C17 C 1.0006(2) -0.0060(3) 0.4103(3)
H14 H 1.0553 -0.0214 0.4368
C18 C 0.7059(3) -0.1668(3) 0.1476(5)
H15 H 0.7415 -0.1742 0.0778
H16 H 0.6505 -0.1456 0.1235
H17 H 0.6988 -0.2201 0.1877
C19 C 0.5462(3) 0.1687(3) 0.1108(4)
H18 H 0.5096 0.2108 0.1463
H19 H 0.5183 0.1147 0.1142
H20 H 0.5574 0.1833 0.0284
C20 C 0.48635(19) 0.0060(2) 0.7731(5)
C21 C 0.57425(18) 0.03906(17) 0.7779(5)
C22 C 0.7549(2) 0.0670(2) 0.9944(3)
C23 C 0.7045(2) 0.0663(2) 0.8812(4)
C24 C 0.6213(3) 0.0373(2) 0.8814(4)
H21 H 0.5970 0.0165 0.9520
C25 C 0.7364(2) 0.1066(2) 0.5539(3)
C26 C 0.6950(2) 0.0902(2) 0.6716(4)
C27 C 0.74137(18) 0.09122(18) 0.7760(5)
H22 H 0.7985 0.1090 0.7752
C28 C 0.6106(2) 0.0666(2) 0.6740(3)
H23 H 0.5778 0.0693 0.6040
O12 O 0.9468(2) 0.1157(2) 0.1638(3)
H24 H 0.639(4) -0.061(4) 0.485(7)
H25 H 0.657(4) -0.131(4) 0.431(6)
H26 H 0.901(4) 0.108(4) 0.121(6)
H27 H 0.979(5) 0.091(5) 0.145(7)
Gd1A Gd 0.314889(8) -0.035203(8) 0.77961(2)
Gd1_2 Gd 0.685111(8) 0.035203(8) 1.27961(2)
O5A O 0.56334(17) -0.03261(16) 0.1949(3)
O6A O 0.53611(16) 0.04869(16) 0.3468(2)
O7_2 O 0.72398(18) 0.02893(17) 0.0812(2)
O13 O 0.6972(3) -0.2329(2) 0.4336(5)
H28 H 0.679(4) -0.285(4) 0.460(6)
H29 H 0.742(4) -0.225(4) 0.448(6)
loop_
_geom_bond_atom_site_label_1
_geom_bond_atom_site_label_2
_geom_bond_site_symmetry_1
_geom_bond_site_symmetry_2
Cu1 N1 1_555 1_555
Gd1 O1 1_555 1_555
N1 C1 1_555 1_555
N2 Cu1 1_555 1_555
O1 Cu1 1_555 1_555
O2 Cu1 1_555 1_555
O3 Gd1 1_555 1_555
O4 Gd1 1_555 1_555
O5 C20 1_555 1_555
O6 C20 1_555 1_555
O7 C22 1_555 1_555
O8 C22 1_555 1_555
O9 Gd1 1_555 1_555
O10 Cu1 1_555 1_555
O11 Gd1 1_555 1_555
C1 H1 1_555 1_555
H2 C1 1_555 1_555
C2 C1 1_555 1_555
H3 C2 1_555 1_555
H4 C2 1_555 1_555
C3 N2 1_555 1_555
H5 C3 1_555 1_555
H6 C3 1_555 1_555
C4 N2 1_555 1_555
H7 C4 1_555 1_555
C5 C4 1_555 1_555
C6 C5 1_555 1_555
H8 C6 1_555 1_555
C7 C6 1_555 1_555
H9 C7 1_555 1_555
C8 C7 1_555 1_555
H10 C8 1_555 1_555
C9 O4 1_555 1_555
C10 O1 1_555 1_555
C11 O2 1_555 1_555
C12 O3 1_555 1_555
C13 C12 1_555 1_555
H11 C13 1_555 1_555
C14 C13 1_555 1_555
H12 C14 1_555 1_555
C15 C14 1_555 1_555
H13 C15 1_555 1_555
C16 C11 1_555 1_555
C17 N1 1_555 1_555
H14 C17 1_555 1_555
C18 O3 1_555 1_555
H15 C18 1_555 1_555
H16 C18 1_555 1_555
H17 C18 1_555 1_555
C19 O4 1_555 1_555
H18 C19 1_555 1_555
H19 C19 1_555 1_555
H20 C19 1_555 1_555
C20 C21 1_555 1_555
C21 C24 1_555 1_555
C22 C23 1_555 1_555
C23 C24 1_555 1_555
C24 H21 1_555 1_555
C25 O9 1_555 1_555
C26 C25 1_555 1_555
C27 C23 1_555 1_555
H22 C27 1_555 1_555
C28 C21 1_555 1_555
H23 C28 1_555 1_555
O12 Cu1 1_555 1_555
O13 H28 1_555 1_555
H24 O11 1_555 1_555
H25 O11 1_555 1_555
H26 O12 1_555 1_555
H27 O12 1_555 1_555
H29 O13 1_555 1_555
Gd1A O5 1_555 1_555
Gd1_2 O7 1_555 1_555
O5A Gd1 1_555 1_555
O6A Gd1 1_555 1_555
O7_2 Gd1 1_555 1_555
Gd1 O2 1_555 1_555
O6 Gd1A 1_555 1_555
O10 C25 1_555 1_555
C2 C3 1_555 1_555
C5 C10 1_555 1_555
C8 C9 1_555 1_555
C9 C10 1_555 1_555
C11 C12 1_555 1_555
C15 C16 1_555 1_555
C16 C17 1_555 1_555
C26 C27 1_555 1_555
C26 C28 1_555 1_555

#END
