
#######################################################################
#
#                 Cambridge Crystallographic Data Centre
#                                CCDC 
#
#######################################################################
#
# If this CIF has been generated from an entry in the Cambridge 
# Structural Database, then it will include bibliographic, chemical, 
# crystal, experimental, refinement or atomic coordinate data resulting 
# from the CCDC's data processing and validation procedures.
#
#######################################################################

data_YEBQEB
_symmetry_cell_setting           monoclinic
_symmetry_space_group_name_H-M   'C 2/c'
_symmetry_Int_Tables_number      15
_space_group_name_Hall           '-C 2yn'
loop_
_symmetry_equiv_pos_site_id
_symmetry_equiv_pos_as_xyz
1 x,y,z
2 1/2+x,1/2+y,z
3 x,-y,1/2+z
4 1/2+x,1/2-y,1/2+z
5 -x,-y,-z
6 1/2-x,1/2-y,-z
7 -x,y,1/2-z
8 1/2-x,1/2+y,1/2-z
_cell_length_a                   12.785(8)
_cell_length_b                   12.556(8)
_cell_length_c                   6.947(5)
_cell_angle_alpha                90
_cell_angle_beta                 99.687(12)
_cell_angle_gamma                90
_cell_volume                     1099.29
loop_
_atom_site_label
_atom_site_type_symbol
_atom_site_fract_x
_atom_site_fract_y
_atom_site_fract_z
Cu1 Cu 0.2500 0.7500 0.0000
O1 O 0.36642(16) 0.85409(16) 0.0213(3)
O2 O 0.26799(16) 0.98862(19) -0.1236(4)
N1 N 0.25125(18) 0.77430(19) 0.2917(3)
H1 H 0.2669 0.8445 0.3126
C1 C 0.1507(2) 0.7566(2) 0.3687(4)
H2 H 0.1303 0.6824 0.3507
H3 H 0.0950 0.7995 0.2944
C2 C 0.4526(2) 1.0141(2) -0.0455(4)
H4 H 0.4460 1.0789 -0.1113
C3 C 0.3541(2) 0.9476(2) -0.0489(4)
C4 C 0.3392(2) 0.7150(2) 0.4149(4)
H5 H 0.4055 0.7313 0.3708
H6 H 0.3266 0.6391 0.3986
C2D C 0.5474(2) 0.9859(2) 0.0455(4)
H4D H 0.5540 0.9211 0.1113
C3D C 0.6459(2) 1.0524(2) 0.0489(4)
O1D O 0.63358(16) 1.14591(16) -0.0213(3)
O2D O 0.73201(16) 1.01138(19) 0.1236(4)
C4E C 0.1608(2) 0.7850(2) 0.5851(4)
N1E N 0.24875(18) 0.72570(19) 0.7083(3)
H1E H 0.2331 0.6555 0.6874
C1E C 0.3493(2) 0.7434(2) 0.6313(4)
H2E H 0.3697 0.8176 0.6493
H3E H 0.4050 0.7005 0.7056
H5E H 0.0945 0.7687 0.6292
H6E H 0.1734 0.8609 0.6014
O1E O 0.13358(16) 0.64591(16) -0.0213(3)
N1E_2 N 0.24875(18) 0.72570(19) -0.2917(3)
Cu1A Cu 0.7500 1.2500 0.0000
Cu1_2 Cu 0.2500 0.7500 1.0000
H1E_2 H 0.2331 0.6555 -0.3126
O3 O 0.4274(4) 0.5839(4) 0.0611(7)
H7 H 0.456(5) 0.532(5) 0.163(9)
H8 H 0.355(2) 0.562(6) 0.030(11)
loop_
_geom_bond_atom_site_label_1
_geom_bond_atom_site_label_2
_geom_bond_site_symmetry_1
_geom_bond_site_symmetry_2
Cu1 O1 1_555 1_555
O1 C3 1_555 1_555
O2 C3 1_555 1_555
N1 Cu1 1_555 1_555
H1 N1 1_555 1_555
C1 N1 1_555 1_555
H2 C1 1_555 1_555
H3 C1 1_555 1_555
C2 H4 1_555 1_555
C3 C2 1_555 1_555
C4 N1 1_555 1_555
H5 C4 1_555 1_555
H6 C4 1_555 1_555
O3 H7 1_555 1_555
H8 O3 1_555 1_555
C2D C2 1_555 1_555
H4D C2D 1_555 1_555
C3D C2D 1_555 1_555
O1D C3D 1_555 1_555
O2D C3D 1_555 1_555
C4E C1 1_555 1_555
N1E C4E 1_555 1_555
H1E N1E 1_555 1_555
C1E C4 1_555 1_555
H2E C1E 1_555 1_555
H3E C1E 1_555 1_555
H5E C4E 1_555 1_555
H6E C4E 1_555 1_555
O1E Cu1 1_555 1_555
N1E_2 Cu1 1_555 1_555
Cu1A O1D 1_555 1_555
Cu1_2 N1E 1_555 1_555
H1E_2 N1E_2 1_555 1_555
N1E C1E 1_555 1_555

#END
