
#######################################################################
#
#                 Cambridge Crystallographic Data Centre
#                                CCDC 
#
#######################################################################
#
# If this CIF has been generated from an entry in the Cambridge 
# Structural Database, then it will include bibliographic, chemical, 
# crystal, experimental, refinement or atomic coordinate data resulting 
# from the CCDC's data processing and validation procedures.
#
#######################################################################

data_YECNAX
_symmetry_cell_setting           orthorhombic
_symmetry_space_group_name_H-M   'P b c n'
_symmetry_Int_Tables_number      60
_space_group_name_Hall           '-P 2n 2ab'
loop_
_symmetry_equiv_pos_site_id
_symmetry_equiv_pos_as_xyz
1 x,y,z
2 1/2-x,1/2-y,1/2+z
3 -x,y,1/2-z
4 1/2+x,1/2-y,-z
5 -x,-y,-z
6 1/2+x,1/2+y,1/2-z
7 x,-y,1/2+z
8 1/2-x,1/2+y,z
_cell_length_a                   19.533(2)
_cell_length_b                   8.3503(9)
_cell_length_c                   19.621(2)
_cell_angle_alpha                90
_cell_angle_beta                 90
_cell_angle_gamma                90
_cell_volume                     3200.31
loop_
_atom_site_label
_atom_site_type_symbol
_atom_site_fract_x
_atom_site_fract_y
_atom_site_fract_z
Fe1 Fe 0.0000 0.0000 0.0000
C1 C -0.09304(16) 0.2645(4) -0.04846(18)
H1 H -0.1030 0.1996 -0.0857
C2 C -0.12582(18) 0.4111(5) -0.0428(2)
H2 H -0.1564 0.4446 -0.0762
C3 C -0.1125(2) 0.5068(4) 0.0130(2)
H3 H -0.1345 0.6048 0.0181
C4 C -0.06631(18) 0.4553(4) 0.06070(19)
H4 H -0.0564 0.5181 0.0986
C5 C -0.03455(15) 0.3088(4) 0.05189(16)
C6 C 0.01810(15) 0.2447(4) 0.09585(16)
C7 C 0.09890(16) 0.1991(4) 0.16248(17)
C8 C 0.15327(17) 0.2217(5) 0.21343(18)
C9 C 0.2186(2) 0.1689(6) 0.2006(2)
H5 H 0.2272 0.1092 0.1615
C10 C 0.2717(2) 0.2028(6) 0.2448(2)
H6 H 0.3156 0.1676 0.2342
C11 C 0.26106(17) 0.2875(4) 0.30410(17)
C12 C 0.19388(18) 0.3297(6) 0.3185(2)
H7 H 0.1842 0.3808 0.3595
C13 C 0.14143(18) 0.2986(6) 0.2743(2)
H8 H 0.0971 0.3299 0.2855
C14 C 0.31757(15) 0.3330(4) 0.35001(17)
C15 C 0.30615(15) 0.3892(4) 0.41578(17)
H9 H 0.2616 0.3970 0.4321
C16 C 0.35940(15) 0.4332(4) 0.45665(17)
H10 H 0.3494 0.4702 0.5002
C17 C 0.38619(17) 0.3241(5) 0.33052(18)
H11 H 0.3976 0.2859 0.2875
C18 C 0.43695(16) 0.3714(4) 0.37461(16)
H12 H 0.4821 0.3651 0.3597
N1 N -0.04766(12) 0.2127(3) -0.00245(12)
N2 N 0.04506(12) 0.1037(3) 0.07710(13)
N3 N 0.09812(13) 0.0741(3) 0.12006(13)
N4 N 0.04970(13) 0.3095(3) 0.15019(14)
N5 N 0.42531(12) 0.4262(3) 0.43774(12)
Fe1A Fe -0.5000 -0.5000 -0.5000
Fe1A_2 Fe 0.5000 0.5000 0.5000
C1D C 0.09304(16) -0.2645(4) 0.04846(18)
H1D H 0.1030 -0.1996 0.0857
C2D C 0.12582(18) -0.4111(5) 0.0428(2)
H2D H 0.1564 -0.4446 0.0762
C3D C 0.1125(2) -0.5068(4) -0.0130(2)
H3D H 0.1345 -0.6048 -0.0181
C4D C 0.06631(18) -0.4553(4) -0.06070(19)
H4D H 0.0564 -0.5181 -0.0986
C5D C 0.03455(15) -0.3088(4) -0.05189(16)
C6D C -0.01810(15) -0.2447(4) -0.09585(16)
C7D C -0.09890(16) -0.1991(4) -0.16248(17)
C8D C -0.15327(17) -0.2217(5) -0.21343(18)
C9D C -0.2186(2) -0.1689(6) -0.2006(2)
H5D H -0.2272 -0.1092 -0.1615
C10D C -0.2717(2) -0.2028(6) -0.2448(2)
H6D H -0.3156 -0.1676 -0.2342
C11D C -0.26106(17) -0.2875(4) -0.30410(17)
C12D C -0.19388(18) -0.3297(6) -0.3185(2)
H7D H -0.1842 -0.3808 -0.3595
C13D C -0.14143(18) -0.2986(6) -0.2743(2)
H8D H -0.0971 -0.3299 -0.2855
C14D C -0.31757(15) -0.3330(4) -0.35001(17)
C15D C -0.30615(15) -0.3892(4) -0.41578(17)
H9D H -0.2616 -0.3970 -0.4321
C16D C -0.35940(15) -0.4332(4) -0.45665(17)
H10D H -0.3494 -0.4702 -0.5002
C17D C -0.38619(17) -0.3241(5) -0.33052(18)
H11D H -0.3976 -0.2859 -0.2875
C18D C -0.43695(16) -0.3714(4) -0.37461(16)
H12D H -0.4821 -0.3651 -0.3597
N1D N 0.04766(12) -0.2127(3) 0.00245(12)
N2D N -0.04506(12) -0.1037(3) -0.07710(13)
N3D N -0.09812(13) -0.0741(3) -0.12006(13)
N4D N -0.04970(13) -0.3095(3) -0.15019(14)
N5D N -0.42531(12) -0.4262(3) -0.43774(12)
N5A N 0.07469(12) 0.0738(3) -0.06226(12)
N5E N -0.07469(12) -0.0738(3) 0.06226(12)
O1 O 0.0000 0.5659(7) 0.2500
H13 H 0.0156 0.5061 0.2186
H13B H -0.0156 0.5061 0.2814
loop_
_geom_bond_atom_site_label_1
_geom_bond_atom_site_label_2
_geom_bond_site_symmetry_1
_geom_bond_site_symmetry_2
Fe1 N1 1_555 1_555
C1 H1 1_555 1_555
C2 C1 1_555 1_555
H2 C2 1_555 1_555
C3 C2 1_555 1_555
H3 C3 1_555 1_555
C4 C3 1_555 1_555
H4 C4 1_555 1_555
C5 C4 1_555 1_555
C6 C5 1_555 1_555
C7 C8 1_555 1_555
C8 C9 1_555 1_555
C9 H5 1_555 1_555
C10 C9 1_555 1_555
H6 C10 1_555 1_555
C11 C10 1_555 1_555
C12 C11 1_555 1_555
H7 C12 1_555 1_555
C13 C8 1_555 1_555
H8 C13 1_555 1_555
C14 C11 1_555 1_555
C15 C14 1_555 1_555
H9 C15 1_555 1_555
C16 C15 1_555 1_555
H10 C16 1_555 1_555
C17 C14 1_555 1_555
H11 C17 1_555 1_555
C18 C17 1_555 1_555
H12 C18 1_555 1_555
N1 C1 1_555 1_555
N2 Fe1 1_555 1_555
N3 C7 1_555 1_555
N4 C6 1_555 1_555
N5 C16 1_555 1_555
O1 H13 1_555 1_555
Fe1A N5D 1_555 1_555
Fe1A_2 N5 1_555 1_555
C1D H1D 1_555 1_555
C2D C1D 1_555 1_555
H2D C2D 1_555 1_555
C3D C2D 1_555 1_555
H3D C3D 1_555 1_555
C4D C3D 1_555 1_555
H4D C4D 1_555 1_555
C5D C4D 1_555 1_555
C6D C5D 1_555 1_555
C7D C8D 1_555 1_555
C8D C9D 1_555 1_555
C9D H5D 1_555 1_555
C10D C9D 1_555 1_555
H6D C10D 1_555 1_555
C11D C10D 1_555 1_555
C12D C11D 1_555 1_555
H7D C12D 1_555 1_555
C13D C8D 1_555 1_555
H8D C13D 1_555 1_555
C14D C11D 1_555 1_555
C15D C14D 1_555 1_555
H9D C15D 1_555 1_555
C16D C15D 1_555 1_555
H10D C16D 1_555 1_555
C17D C14D 1_555 1_555
H11D C17D 1_555 1_555
C18D C17D 1_555 1_555
H12D C18D 1_555 1_555
N1D Fe1 1_555 1_555
N2D Fe1 1_555 1_555
N3D C7D 1_555 1_555
N4D C6D 1_555 1_555
N5D C16D 1_555 1_555
N5A Fe1 1_555 1_555
N5E Fe1 1_555 1_555
H13B O1 1_555 1_555
C5 N1 1_555 1_555
C6 N2 1_555 1_555
C7 N4 1_555 1_555
C12 C13 1_555 1_555
C18 N5 1_555 1_555
N2 N3 1_555 1_555
C1D N1D 1_555 1_555
C5D N1D 1_555 1_555
C6D N2D 1_555 1_555
C7D N4D 1_555 1_555
C12D C13D 1_555 1_555
C18D N5D 1_555 1_555
N2D N3D 1_555 1_555

#END
