
#######################################################################
#
#                 Cambridge Crystallographic Data Centre
#                                CCDC 
#
#######################################################################
#
# If this CIF has been generated from an entry in the Cambridge 
# Structural Database, then it will include bibliographic, chemical, 
# crystal, experimental, refinement or atomic coordinate data resulting 
# from the CCDC's data processing and validation procedures.
#
#######################################################################

data_YECQON
_symmetry_cell_setting           monoclinic
_symmetry_space_group_name_H-M   'C 2/c'
_symmetry_Int_Tables_number      15
_space_group_name_Hall           '-C 2yn'
loop_
_symmetry_equiv_pos_site_id
_symmetry_equiv_pos_as_xyz
1 x,y,z
2 1/2+x,1/2+y,z
3 -x,y,1/2-z
4 1/2-x,1/2+y,1/2-z
5 -x,-y,-z
6 1/2-x,1/2-y,-z
7 x,-y,1/2+z
8 1/2+x,1/2-y,1/2+z
_cell_length_a                   28.245(4)
_cell_length_b                   11.8501(16)
_cell_length_c                   17.263(3)
_cell_angle_alpha                90
_cell_angle_beta                 126.80(3)
_cell_angle_gamma                90
_cell_volume                     4626.65
loop_
_atom_site_label
_atom_site_type_symbol
_atom_site_fract_x
_atom_site_fract_y
_atom_site_fract_z
Co1 Co 0.71458(3) 0.86530(6) 0.43953(6)
Co2 Co 0.79862(3) 1.11441(6) 0.53897(6)
P1 P 0.65355(6) 0.62073(12) 0.33860(11)
H1 H 0.660(2) 0.631(4) 0.265(4)
P2 P 0.66834(7) 1.13537(14) 0.39467(13)
H2 H 0.655(3) 1.151(5) 0.465(4)
O1 O 0.63703(16) 0.8824(3) 0.2941(3)
H3 H 0.6208 0.8319 0.3027
H4 H 0.6298 0.9498 0.2795
O2 O 0.70619(15) 0.6854(3) 0.4235(3)
O3 O 0.71941(16) 1.0504(3) 0.4461(3)
O4 O 0.59497(17) 0.6751(4) 0.2989(3)
O5 O 0.6938(2) 1.2489(4) 0.3917(3)
O6 O 0.65533(19) 0.4974(4) 0.3624(3)
O9 O 0.6147(2) 1.0953(4) 0.3026(4)
N1 N 0.7661(2) 0.8776(4) 0.3886(3)
N2 N 0.8426(2) 0.8806(4) 0.3840(4)
N3 N 0.6698(2) 0.8838(4) 0.5036(4)
N4 N 0.6047(2) 0.9277(4) 0.5297(4)
N5 N 1.0768(2) 0.8326(4) 0.5084(4)
N6 N 1.1558(2) 0.8585(4) 0.5136(4)
C1 C 0.9136(2) 0.8647(5) 0.3483(4)
H7 H 0.8820 0.8707 0.2814
C2 C 0.6568(2) 0.9091(5) 0.6177(4)
H8 H 0.6638 0.9133 0.6787
C3 C 0.8240(2) 0.8675(5) 0.4396(4)
H9 H 0.8495 0.8529 0.5072
C4 C 0.9026(2) 0.8685(5) 0.4165(4)
C5 C 0.9718(3) 0.8519(5) 0.3790(4)
H10 H 0.9801 0.8482 0.3333
C6 C 0.7468(3) 0.8966(6) 0.2959(5)
H11 H 0.7066 0.9074 0.2422
C7 C 0.6972(3) 0.8833(5) 0.6015(4)
H12 H 0.7378 0.8674 0.6501
C8 C 0.5503(2) 0.9636(5) 0.5133(4)
C9 C 0.5392(3) 0.9294(5) 0.5766(5)
H13 H 0.5662 0.8811 0.6292
C10 C 0.5122(3) 1.0339(5) 0.4368(4)
H14 H 0.5208 1.0570 0.3937
C11 C 0.6135(3) 0.9109(5) 0.4615(5)
H15 H 0.5839 0.9175 0.3937
C12 C 0.7931(3) 0.8979(6) 0.2910(4)
H16 H 0.7915 0.9085 0.2349
C13 C 1.0165(2) 0.8447(5) 0.4761(4)
C14 C 1.0058(3) 0.8468(5) 0.5441(4)
H17 H 1.0374 0.8396 0.6110
C15 C 0.9479(2) 0.8598(5) 0.5132(4)
H18 H 0.9398 0.8626 0.5592
C16 C 1.0976(2) 0.8777(5) 0.4628(4)
H19 H 1.0744 0.9174 0.4032
C17 C 1.1222(3) 0.7812(6) 0.5909(5)
H20 H 1.1203 0.7425 0.6372
C18 C 1.1707(3) 0.7965(6) 0.5936(5)
H21 H 1.2092 0.7689 0.6427
Co1E Co 0.78542(3) 0.63470(6) 0.56047(6)
Co1D Co 0.28542(3) 1.13470(6) 0.56047(6)
Co1E_2 Co 0.78542(3) 1.63470(6) 0.56047(6)
Co1D_2 Co 1.28542(3) 1.13470(6) 0.56047(6)
Co2E Co 0.70138(3) 1.38559(6) 0.46103(6)
Co2E_2 Co 0.70138(3) 0.38559(6) 0.46103(6)
Co2D Co 1.20138(3) 0.88559(6) 0.46103(6)
P1E P 0.84645(6) 0.87927(12) 0.66140(11)
H1E H 0.840(2) 0.869(4) 0.735(4)
P2E P 0.83166(7) 1.36463(14) 0.60533(13)
H2E H 0.845(3) 1.349(5) 0.535(4)
O1E O 0.86297(16) 0.6176(3) 0.7059(3)
H3E H 0.8792 0.6681 0.6973
H4E H 0.8702 0.5502 0.7205
O2E O 0.79381(15) 0.8146(3) 0.5765(3)
O3E O 0.78059(16) 1.4496(3) 0.5539(3)
O3E_2 O 0.78059(16) 0.4496(3) 0.5539(3)
O4E O 0.90503(17) 0.8249(4) 0.7011(3)
O5E O 0.8062(2) 1.2511(4) 0.6083(3)
O6E O 0.84467(19) 1.0026(4) 0.6376(3)
O6_2 O 0.65533(19) 1.4974(4) 0.3624(3)
O9E O 0.8853(2) 1.4047(4) 0.6974(4)
N1D N 1.2339(2) 1.1224(4) 0.6114(3)
N1E N 0.7339(2) 0.6224(4) 0.6114(3)
N2D N 1.1574(2) 1.1194(4) 0.6160(4)
N3D N 0.3302(2) 1.1162(4) 0.4964(4)
N3E N 0.8302(2) 0.6162(4) 0.4964(4)
N4D N 0.3953(2) 1.0723(4) 0.4703(4)
N5D N 0.9232(2) 1.1674(4) 0.4916(4)
N6D N 0.8442(2) 1.1415(4) 0.4864(4)
N6A N 0.6558(2) 1.3585(4) 0.5136(4)
C1D C 1.0864(2) 1.1353(5) 0.6517(4)
H7D H 1.1180 1.1293 0.7186
C2D C 0.3432(2) 1.0909(5) 0.3823(4)
H8D H 0.3362 1.0867 0.3213
C3D C 1.1760(2) 1.1325(5) 0.5604(4)
H9D H 1.1505 1.1471 0.4928
C4D C 1.0974(2) 1.1315(5) 0.5835(4)
C5D C 1.0282(3) 1.1481(5) 0.6210(4)
H10D H 1.0199 1.1518 0.6667
C6D C 1.2532(3) 1.1034(6) 0.7041(5)
H11D H 1.2934 1.0926 0.7578
C7D C 0.3028(3) 1.1167(5) 0.3985(4)
H12D H 0.2622 1.1326 0.3499
C8D C 0.4497(2) 1.0364(5) 0.4867(4)
C9D C 0.4608(3) 1.0706(5) 0.4234(5)
H13D H 0.4338 1.1189 0.3708
C10D C 0.4878(3) 0.9661(5) 0.5632(4)
H14D H 0.4792 0.9430 0.6063
C11D C 0.3865(3) 1.0891(5) 0.5385(5)
H15D H 0.4161 1.0825 0.6063
C12D C 1.2069(3) 1.1021(6) 0.7090(4)
H16D H 1.2085 1.0915 0.7651
C13D C 0.9835(2) 1.1553(5) 0.5239(4)
C14D C 0.9942(3) 1.1532(5) 0.4559(4)
H17D H 0.9626 1.1604 0.3890
C15D C 1.0521(2) 1.1402(5) 0.4868(4)
H18D H 1.0602 1.1374 0.4408
C16D C 0.9024(2) 1.1223(5) 0.5372(4)
H19D H 0.9256 1.0826 0.5968
C17D C 0.8778(3) 1.2188(6) 0.4091(5)
H20D H 0.8797 1.2575 0.3628
C18D C 0.8293(3) 1.2035(6) 0.4064(5)
H21D H 0.7908 1.2311 0.3573
O7 O 0.5000 0.5202(5) 0.2500
H5 H 0.5290 0.5590 0.2675
H5B H 0.4710 0.5590 0.2325
O8 O 0.5000 0.8153(5) 0.2500
H6 H 0.5228 0.7616 0.2673
H6B H 0.4772 0.7616 0.2327
O10 O 0.5000 1.1924(7) 0.2500
loop_
_geom_bond_atom_site_label_1
_geom_bond_atom_site_label_2
_geom_bond_site_symmetry_1
_geom_bond_site_symmetry_2
Co1 O1 1_555 1_555
Co2 O3 1_555 1_555
P1 H1 1_555 1_555
P2 H2 1_555 1_555
O1 H3 1_555 1_555
H4 O1 1_555 1_555
O2 Co1 1_555 1_555
O3 Co1 1_555 1_555
O4 P1 1_555 1_555
O5 P2 1_555 1_555
O6 P1 1_555 1_555
O7 H5 1_555 1_555
O8 H6 1_555 1_555
O9 P2 1_555 1_555
N1 Co1 1_555 1_555
N2 C3 1_555 1_555
N3 Co1 1_555 1_555
N4 C2 1_555 1_555
N5 C13 1_555 1_555
N6 C16 1_555 1_555
C1 H7 1_555 1_555
C2 H8 1_555 1_555
C3 N1 1_555 1_555
H9 C3 1_555 1_555
C4 N2 1_555 1_555
C5 C1 1_555 1_555
H10 C5 1_555 1_555
C6 N1 1_555 1_555
H11 C6 1_555 1_555
C7 N3 1_555 1_555
H12 C7 1_555 1_555
C8 N4 1_555 1_555
C9 C8 1_555 1_555
H13 C9 1_555 1_555
C10 C8 1_555 1_555
H14 C10 1_555 1_555
C11 N3 1_555 1_555
H15 C11 1_555 1_555
C12 N2 1_555 1_555
H16 C12 1_555 1_555
C13 C5 1_555 1_555
C14 C13 1_555 1_555
H17 C14 1_555 1_555
C15 C4 1_555 1_555
H18 C15 1_555 1_555
C16 N5 1_555 1_555
H19 C16 1_555 1_555
C17 N5 1_555 1_555
H20 C17 1_555 1_555
C18 N6 1_555 1_555
H21 C18 1_555 1_555
Co1E O2 1_555 1_555
Co1D N3D 1_555 1_555
Co1E_2 O3E 1_555 1_555
Co1D_2 N1D 1_555 1_555
Co2E O5 1_555 1_555
Co2E_2 O6 1_555 1_555
Co2D N6 1_555 1_555
P1E H1E 1_555 1_555
P2E H2E 1_555 1_555
O1E Co1E 1_555 1_555
H3E O1E 1_555 1_555
H4E O1E 1_555 1_555
O2E Co1 1_555 1_555
O3E Co2E 1_555 1_555
O3E_2 Co1E 1_555 1_555
O4E P1E 1_555 1_555
O5E Co2 1_555 1_555
O6E Co2 1_555 1_555
O6_2 Co2E 1_555 1_555
H5B O7 1_555 1_555
H6B O8 1_555 1_555
O9E P2E 1_555 1_555
N1D C3D 1_555 1_555
N1E Co1E 1_555 1_555
N2D C3D 1_555 1_555
N3D C7D 1_555 1_555
N3E Co1E 1_555 1_555
N4D C2D 1_555 1_555
N5D C13D 1_555 1_555
N6D Co2 1_555 1_555
N6A Co2E 1_555 1_555
C1D H7D 1_555 1_555
C2D H8D 1_555 1_555
C3D H9D 1_555 1_555
C4D N2D 1_555 1_555
C5D C1D 1_555 1_555
H10D C5D 1_555 1_555
C6D N1D 1_555 1_555
H11D C6D 1_555 1_555
C7D C2D 1_555 1_555
H12D C7D 1_555 1_555
C8D N4D 1_555 1_555
C9D C10 1_555 1_555
H13D C9D 1_555 1_555
C10D C9 1_555 1_555
H14D C10D 1_555 1_555
C11D N3D 1_555 1_555
H15D C11D 1_555 1_555
C12D N2D 1_555 1_555
H16D C12D 1_555 1_555
C13D C5D 1_555 1_555
C14D C13D 1_555 1_555
H17D C14D 1_555 1_555
C15D C4D 1_555 1_555
H18D C15D 1_555 1_555
C16D N5D 1_555 1_555
H19D C16D 1_555 1_555
C17D N5D 1_555 1_555
H20D C17D 1_555 1_555
C18D N6D 1_555 1_555
H21D C18D 1_555 1_555
P1 O2 1_555 1_555
P2 O3 1_555 1_555
N4 C11 1_555 1_555
C1 C4 1_555 1_555
C2 C7 1_555 1_555
C6 C12 1_555 1_555
C14 C15 1_555 1_555
C17 C18 1_555 1_555
Co1E O2E 1_555 1_555
Co2E_2 O3E_2 1_555 1_555
P1E O2E 1_555 1_555
P1E O6E 1_555 1_555
P2E O3E 1_555 1_555
P2E O5E 1_555 1_555
N4D C11D 1_555 1_555
N6D C16D 1_555 1_555
C1D C4D 1_555 1_555
C6D C12D 1_555 1_555
C8D C9D 1_555 1_555
C8D C10D 1_555 1_555
C14D C15D 1_555 1_555
C17D C18D 1_555 1_555

#END
