
#######################################################################
#
#                 Cambridge Crystallographic Data Centre
#                                CCDC 
#
#######################################################################
#
# If this CIF has been generated from an entry in the Cambridge 
# Structural Database, then it will include bibliographic, chemical, 
# crystal, experimental, refinement or atomic coordinate data resulting 
# from the CCDC's data processing and validation procedures.
#
#######################################################################

data_YECSUV
_symmetry_cell_setting           triclinic
_symmetry_space_group_name_H-M   'P -1'
_symmetry_Int_Tables_number      2
_space_group_name_Hall           '-P 1'
loop_
_symmetry_equiv_pos_site_id
_symmetry_equiv_pos_as_xyz
1 x,y,z
2 -x,-y,-z
_cell_length_a                   10.1348(13)
_cell_length_b                   10.2404(13)
_cell_length_c                   12.9074(16)
_cell_angle_alpha                93.968(2)
_cell_angle_beta                 106.912(2)
_cell_angle_gamma                103.709(2)
_cell_volume                     1231.31
loop_
_atom_site_label
_atom_site_type_symbol
_atom_site_fract_x
_atom_site_fract_y
_atom_site_fract_z
Co1 Co 0.5000 1.0000 0.5000
Co2 Co 0.50562(6) 0.87017(5) 0.75567(4)
O1 O 0.3547(4) 1.0566(4) 0.5652(3)
C1 C 0.3053(5) 1.0253(5) 0.6388(4)
O2 O 0.3293(3) 0.9435(3) 0.7034(3)
C2 C 0.1990(7) 1.1010(7) 0.6547(5)
F1 F 0.1405(7) 1.1507(8) 0.5745(5)
F2 F 0.1109(8) 1.0411(8) 0.6953(8)
F3 F 0.2659(9) 1.2080(8) 0.7257(7)
O3 O 0.6671(4) 1.1324(3) 0.6243(2)
C3 C 0.6967(5) 1.1374(5) 0.7256(4)
O4 O 0.6442(4) 1.0603(3) 0.7804(3)
C4 C 0.8196(6) 1.2606(7) 0.7933(4)
F4 F 0.8092(6) 1.3734(4) 0.7546(4)
F5 F 0.9410(5) 1.2504(7) 0.7876(6)
F6 F 0.8276(6) 1.2811(5) 0.8939(3)
O5 O 0.6823(3) 0.7972(4) 0.8181(3)
C5 C 0.7772(5) 0.7995(5) 0.7749(4)
O6 O 0.7753(4) 0.8169(4) 0.6816(3)
C6 C 0.9140(7) 0.7753(8) 0.8487(6)
F7 F 0.8923(5) 0.6808(8) 0.9046(7)
F8 F 0.9925(7) 0.8748(7) 0.9136(7)
F9 F 0.9956(7) 0.7417(10) 0.8004(6)
O7 O 0.5046(3) 0.9034(3) 0.9193(2)
C7 C 0.3781(5) 0.8938(5) 0.9505(4)
H1 H 0.3792 0.8376 1.0081
H2 H 0.2941 0.8508 0.8882
C8 C 0.6301(5) 0.9701(5) 1.0104(4)
H3 H 0.7148 0.9789 0.9880
H4 H 0.6376 0.9157 1.0694
O8 O 0.3709(4) 0.6817(3) 0.7409(3)
O9 O 0.5187(3) 0.8355(3) 0.5924(2)
H17 H 0.472(5) 0.760(3) 0.552(3)
H18 H 0.6079(13) 0.842(6) 0.609(5)
H19 H 0.388(5) 0.633(4) 0.791(3)
H20 H 0.286(3) 0.653(7) 0.696(4)
Co2A Co 0.49438(6) 1.12983(5) 0.24433(4)
Co2A_2 Co 0.49438(6) 1.12983(5) 1.24433(4)
O1A O 0.6453(4) 0.9434(4) 0.4348(3)
C1A C 0.6947(5) 0.9747(5) 0.3612(4)
O2A O 0.6707(3) 1.0565(3) 0.2966(3)
C2A C 0.8010(7) 0.8990(7) 0.3453(5)
F1A F 0.8595(7) 0.8493(8) 0.4255(5)
F2A F 0.8891(8) 0.9589(8) 0.3047(8)
F3A F 0.7341(9) 0.7920(8) 0.2743(7)
O3A O 0.3329(4) 0.8676(3) 0.3757(2)
C3A C 0.3033(5) 0.8626(5) 0.2744(4)
O4A O 0.3558(4) 0.9397(3) 0.2196(3)
C4A C 0.1804(6) 0.7394(7) 0.2067(4)
F4A F 0.1908(6) 0.6266(4) 0.2454(4)
F5A F 0.0590(5) 0.7496(7) 0.2124(6)
F6A F 0.1724(6) 0.7189(5) 0.1061(3)
O5A O 0.3177(3) 1.2028(4) 0.1819(3)
C5A C 0.2228(5) 1.2005(5) 0.2251(4)
O6A O 0.2247(4) 1.1831(4) 0.3184(3)
C6A C 0.0860(7) 1.2247(8) 0.1513(6)
F7A F 0.1077(5) 1.3192(8) 0.0954(7)
F8A F 0.0075(7) 1.1252(7) 0.0864(7)
F9A F 0.0044(7) 1.2583(10) 0.1996(6)
O7A O 0.4954(3) 1.0966(3) 1.0807(2)
O7A_2 O 0.4954(3) 1.0966(3) 0.0807(2)
C7A C 0.6219(5) 1.1062(5) 1.0495(4)
H1A H 0.6208 1.1624 0.9919
H2A H 0.7059 1.1492 1.1118
C8A C 0.3699(5) 1.0299(5) 0.9896(4)
H3A H 0.2852 1.0211 1.0120
H4A H 0.3624 1.0843 0.9306
O8A O 0.6291(4) 1.3183(3) 0.2591(3)
O9A O 0.4813(3) 1.1645(3) 0.4076(2)
H17A H 0.528(5) 1.240(3) 0.448(3)
H18A H 0.3921(13) 1.158(6) 0.391(5)
H19A H 0.612(5) 1.367(4) 0.209(3)
H20A H 0.714(3) 1.347(7) 0.304(4)
C9 C 0.5597(10) 0.4889(11) 0.9186(7)
H5 H 0.6118 0.5312 0.8719
H6 H 0.5406 0.3912 0.9015
O10 O 0.4288(6) 0.5247(6) 0.8981(4)
C10 C 0.6468(8) 0.5338(9) 1.0337(7)
H7 H 0.6708 0.6320 1.0497
H8 H 0.7354 0.5071 1.0474
C9A C 0.4403(10) 0.5111(11) 1.0814(7)
H5A H 0.3882 0.4688 1.1281
H6A H 0.4594 0.6088 1.0985
O10A O 0.5712(6) 0.4753(6) 1.1019(4)
C10A C 0.3532(8) 0.4662(9) 0.9663(7)
H7A H 0.3292 0.3680 0.9503
H8A H 0.2646 0.4929 0.9526
O11 O 0.6002(4) 0.4232(3) 0.5148(3)
C11 C 0.5260(7) 0.4364(6) 0.5923(5)
H9 H 0.5822 0.5128 0.6491
H10 H 0.5137 0.3549 0.6265
C12 C 0.6168(6) 0.5424(5) 0.4631(5)
H11 H 0.6656 0.5327 0.4097
H12 H 0.6748 0.6208 0.5175
O11A O 0.3998(4) 0.5768(3) 0.4852(3)
C11A C 0.4740(7) 0.5636(6) 0.4077(5)
H9A H 0.4178 0.4872 0.3509
H10A H 0.4863 0.6451 0.3735
C12A C 0.3832(6) 0.4576(5) 0.5369(5)
H11A H 0.3344 0.4673 0.5903
H12A H 0.3252 0.3792 0.4825
O12 O 0.1179(4) 0.5738(4) 0.5862(3)
C13 C 0.0081(7) 0.4726(8) 0.6026(5)
H13 H -0.0620 0.5140 0.6183
H14 H 0.0482 0.4313 0.6656
C14 C 0.0629(7) 0.6326(7) 0.4926(6)
H15 H 0.1403 0.6983 0.4794
H16 H -0.0049 0.6798 0.5050
O12A O -0.1179(4) 0.4262(4) 0.4138(3)
C13A C -0.0081(7) 0.5274(8) 0.3974(5)
H13A H 0.0620 0.4860 0.3817
H14A H -0.0482 0.5687 0.3344
C14A C -0.0629(7) 0.3674(7) 0.5074(6)
H15A H -0.1403 0.3017 0.5206
H16A H 0.0049 0.3202 0.4950
loop_
_geom_bond_atom_site_label_1
_geom_bond_atom_site_label_2
_geom_bond_site_symmetry_1
_geom_bond_site_symmetry_2
Co1 O1 1_555 1_555
Co2 O2 1_555 1_555
O1 C1 1_555 1_555
C1 O2 1_555 1_555
C2 C1 1_555 1_555
F1 C2 1_555 1_555
F2 C2 1_555 1_555
F3 C2 1_555 1_555
O3 Co1 1_555 1_555
C3 O3 1_555 1_555
O4 Co2 1_555 1_555
C4 C3 1_555 1_555
F4 C4 1_555 1_555
F5 C4 1_555 1_555
F6 C4 1_555 1_555
O5 Co2 1_555 1_555
C5 O5 1_555 1_555
O6 C5 1_555 1_555
C6 C5 1_555 1_555
F7 C6 1_555 1_555
F8 C6 1_555 1_555
F9 C6 1_555 1_555
O7 Co2 1_555 1_555
C7 O7 1_555 1_555
H1 C7 1_555 1_555
H2 C7 1_555 1_555
C8 O7 1_555 1_555
H3 C8 1_555 1_555
H4 C8 1_555 1_555
O8 Co2 1_555 1_555
O9 Co1 1_555 1_555
C9 H5 1_555 1_555
H6 C9 1_555 1_555
O10 C9 1_555 1_555
O11 C11 1_555 1_555
C10 C9 1_555 1_555
H7 C10 1_555 1_555
H8 C10 1_555 1_555
C11 H9 1_555 1_555
H10 C11 1_555 1_555
C12 O11 1_555 1_555
H11 C12 1_555 1_555
H12 C12 1_555 1_555
O12 C13 1_555 1_555
C13 H13 1_555 1_555
H14 C13 1_555 1_555
C14 O12 1_555 1_555
H15 C14 1_555 1_555
H16 C14 1_555 1_555
H17 O9 1_555 1_555
H18 O9 1_555 1_555
H19 O8 1_555 1_555
H20 O8 1_555 1_555
Co2A O2A 1_555 1_555
Co2A_2 O7A 1_555 1_555
O1A Co1 1_555 1_555
C1A O1A 1_555 1_555
O2A C1A 1_555 1_555
C2A C1A 1_555 1_555
F1A C2A 1_555 1_555
F2A C2A 1_555 1_555
F3A C2A 1_555 1_555
O3A Co1 1_555 1_555
C3A O3A 1_555 1_555
O4A Co2A 1_555 1_555
C4A C3A 1_555 1_555
F4A C4A 1_555 1_555
F5A C4A 1_555 1_555
F6A C4A 1_555 1_555
O5A Co2A 1_555 1_555
C5A O5A 1_555 1_555
O6A C5A 1_555 1_555
C6A C5A 1_555 1_555
F7A C6A 1_555 1_555
F8A C6A 1_555 1_555
F9A C6A 1_555 1_555
O7A C7A 1_555 1_555
O7A_2 Co2A 1_555 1_555
C7A C8 1_555 1_555
H1A C7A 1_555 1_555
H2A C7A 1_555 1_555
C8A C7 1_555 1_555
H3A C8A 1_555 1_555
H4A C8A 1_555 1_555
O8A Co2A 1_555 1_555
O9A Co1 1_555 1_555
C9A H5A 1_555 1_555
H6A C9A 1_555 1_555
O10A C10 1_555 1_555
O11A C11A 1_555 1_555
C10A O10 1_555 1_555
H7A C10A 1_555 1_555
H8A C10A 1_555 1_555
C11A C12 1_555 1_555
H9A C11A 1_555 1_555
H10A C11A 1_555 1_555
C12A C11 1_555 1_555
H11A C12A 1_555 1_555
H12A C12A 1_555 1_555
O12A C13A 1_555 1_555
C13A C14 1_555 1_555
H13A C13A 1_555 1_555
H14A C13A 1_555 1_555
C14A C13 1_555 1_555
H15A C14A 1_555 1_555
H16A C14A 1_555 1_555
H17A O9A 1_555 1_555
H18A O9A 1_555 1_555
H19A O8A 1_555 1_555
H20A O8A 1_555 1_555
Co2 O9 1_555 1_555
C3 O4 1_555 1_555
Co2A O9A 1_555 1_555
C3A O4A 1_555 1_555
O7A C8A 1_555 1_555
C9A O10A 1_555 1_555
C9A C10A 1_555 1_555
O11A C12A 1_555 1_555
O12A C14A 1_555 1_555

#END
