
#######################################################################
#
#                 Cambridge Crystallographic Data Centre
#                                CCDC 
#
#######################################################################
#
# If this CIF has been generated from an entry in the Cambridge 
# Structural Database, then it will include bibliographic, chemical, 
# crystal, experimental, refinement or atomic coordinate data resulting 
# from the CCDC's data processing and validation procedures.
#
#######################################################################

data_YECTOQ
_symmetry_cell_setting           triclinic
_symmetry_space_group_name_H-M   'P -1'
_symmetry_Int_Tables_number      2
_space_group_name_Hall           '-P 1'
loop_
_symmetry_equiv_pos_site_id
_symmetry_equiv_pos_as_xyz
1 x,y,z
2 -x,-y,-z
_cell_length_a                   13.459(3)
_cell_length_b                   13.672(3)
_cell_length_c                   19.467(4)
_cell_angle_alpha                97.74(3)
_cell_angle_beta                 106.86(3)
_cell_angle_gamma                94.18(3)
_cell_volume                     3373.19
loop_
_atom_site_label
_atom_site_type_symbol
_atom_site_fract_x
_atom_site_fract_y
_atom_site_fract_z
Ag1 Ag 1.00293(4) -0.01346(4) 0.26027(3)
Ag2 Ag 0.99718(3) 0.47734(4) 0.24963(2)
N3 N 0.9468(4) 0.0360(3) 0.3512(3)
C1 C 0.8855(4) -0.0196(4) 0.3786(3)
H1 H 0.8528 -0.0826 0.3514
C2 C 0.8682(4) 0.0101(4) 0.4432(3)
H2 H 0.8237 -0.0313 0.4601
C3 C 0.9160(4) 0.1015(4) 0.4844(3)
H3 H 0.9067 0.1226 0.5305
C4 C 0.9777(4) 0.1614(4) 0.4565(3)
C5 C 0.9898(4) 0.1255(4) 0.3897(3)
H4 H 1.0309 0.1667 0.3702
C6 C 1.0354(4) 0.2612(4) 0.4910(3)
O7 O 1.0691(3) 0.3131(3) 0.45361(19)
N4 N 1.0511(3) 0.2914(3) 0.5624(2)
H5 H 1.0262 0.2544 0.5887
C7 C 1.1106(4) 0.3870(4) 0.5938(3)
C8 C 1.0554(4) 0.4699(4) 0.5965(3)
H6 H 0.9812 0.4613 0.5815
C9 C 1.1092(4) 0.5640(4) 0.6209(3)
H7 H 1.0718 0.6200 0.6236
C10 C 1.2195(4) 0.5776(4) 0.6419(3)
C11 C 1.2770(5) 0.6720(4) 0.6652(3)
H8 H 1.2409 0.7291 0.6662
C12 C 1.3827(5) 0.6839(5) 0.6863(4)
H9 H 1.4197 0.7488 0.7020
C13 C 1.4379(5) 0.6014(4) 0.6851(3)
H10 H 1.5121 0.6101 0.6999
C14 C 1.3849(4) 0.5082(4) 0.6627(3)
H11 H 1.4230 0.4525 0.6623
C15 C 1.2748(4) 0.4927(4) 0.6401(3)
C16 C 1.2169(4) 0.3959(4) 0.6144(3)
C17 C 1.2752(4) 0.3070(4) 0.6089(3)
C18 C 1.2973(4) 0.2493(4) 0.6662(3)
C19 C 1.2616(5) 0.2690(4) 0.7276(3)
H12 H 1.2211 0.3224 0.7312
C20 C 1.2842(5) 0.2128(5) 0.7819(3)
H13 H 1.2590 0.2273 0.8225
C21 C 1.3437(5) 0.1347(5) 0.7781(4)
H14 H 1.3606 0.0969 0.8166
C22 C 1.3777(5) 0.1125(5) 0.7195(4)
H15 H 1.4172 0.0581 0.7171
C23 C 1.3561(4) 0.1680(4) 0.6619(3)
C24 C 1.3924(4) 0.1474(5) 0.6006(4)
H16 H 1.4324 0.0935 0.5973
C25 C 1.3710(4) 0.2036(4) 0.5460(4)
H17 H 1.3962 0.1884 0.5054
C26 C 1.3117(4) 0.2838(4) 0.5500(3)
N5 N 1.2846(3) 0.3392(3) 0.4925(2)
H18 H 1.2194 0.3521 0.4778
C27 C 1.3502(4) 0.3739(4) 0.4581(3)
O8 O 1.4413(3) 0.3581(3) 0.4719(2)
C28 C 1.3044(4) 0.4377(4) 0.4027(3)
C29 C 1.3724(4) 0.5130(5) 0.3922(3)
H19 H 1.4453 0.5191 0.4164
C30 C 1.3321(5) 0.5772(5) 0.3468(3)
H20 H 1.3763 0.6298 0.3398
C31 C 1.2262(5) 0.5651(5) 0.3110(3)
H21 H 1.1987 0.6115 0.2804
C32 C 1.1999(4) 0.4274(5) 0.3632(3)
H22 H 1.1544 0.3743 0.3683
N6 N 1.1602(4) 0.4911(4) 0.3173(3)
N7 N 0.8345(3) -0.5333(4) 0.1814(2)
C33 C 0.7681(4) -0.6070(4) 0.1878(3)
H23 H 0.7953 -0.6563 0.2157
C34 C 0.6606(5) -0.6138(5) 0.1551(3)
H24 H 0.6151 -0.6650 0.1626
C35 C 0.6219(4) -0.5460(4) 0.1122(3)
H25 H 0.5488 -0.5496 0.0891
C36 C 0.6903(4) -0.4712(4) 0.1024(3)
C37 C 0.7944(4) -0.4677(4) 0.1379(3)
H26 H 0.8411 -0.4164 0.1318
C38 C 0.6436(4) -0.4019(4) 0.0514(3)
O9 O 0.5544(3) -0.3822(3) 0.0437(2)
N8 N 0.7063(4) -0.3666(4) 0.0148(3)
H27 H 0.7696 -0.3848 0.0244
C39 C 0.6787(4) -0.3027(4) -0.0377(3)
C40 C 0.6225(5) -0.2227(5) -0.0253(4)
H28 H 0.6017 -0.2128 0.0175
C41 C 0.5981(5) -0.1598(5) -0.0745(4)
H29 H 0.5610 -0.1054 -0.0653
C42 C 0.6270(4) -0.1738(4) -0.1390(3)
C43 C 0.6007(5) -0.1108(5) -0.1924(4)
H30 H 0.5642 -0.0556 -0.1845
C44 C 0.6271(5) -0.1285(5) -0.2542(4)
H31 H 0.6084 -0.0860 -0.2895
C45 C 0.6813(5) -0.2081(5) -0.2670(3)
H32 H 0.6978 -0.2199 -0.3115
C46 C 0.7111(4) -0.2691(4) -0.2172(3)
H33 H 0.7507 -0.3214 -0.2261
C47 C 0.6832(4) -0.2552(4) -0.1514(3)
C48 C 0.7106(4) -0.3198(4) -0.0991(3)
C49 C 0.7698(4) -0.4053(4) -0.1107(3)
C50 C 0.7162(4) -0.5023(4) -0.1416(3)
C51 C 0.6045(4) -0.5201(5) -0.1655(3)
H34 H 0.5646 -0.4662 -0.1619
C52 C 0.5549(5) -0.6135(5) -0.1933(3)
H35 H 0.4806 -0.6241 -0.2084
C53 C 0.6113(5) -0.6939(5) -0.2000(4)
H36 H 0.5756 -0.7587 -0.2196
C54 C 0.7178(5) -0.6794(5) -0.1785(3)
H37 H 0.7556 -0.7346 -0.1834
C55 C 0.7728(4) -0.5841(4) -0.1490(3)
C56 C 0.8830(4) -0.5677(4) -0.1275(3)
H38 H 0.9220 -0.6219 -0.1325
C57 C 0.9339(4) -0.4744(4) -0.0994(3)
H39 H 1.0081 -0.4639 -0.0860
C58 C 0.8775(4) -0.3939(4) -0.0901(3)
N9 N 0.9343(3) -0.2983(3) -0.0555(2)
H40 H 0.9563 -0.2575 -0.0808
O10 O 0.9202(3) -0.3282(3) 0.0522(2)
C59 C 0.9527(4) -0.2732(4) 0.0164(3)
C60 C 1.0095(4) -0.1733(4) 0.0525(3)
C61 C 1.0729(5) -0.1132(5) 0.0270(3)
H41 H 1.0829 -0.1331 -0.0189
C62 C 1.1217(5) -0.0230(5) 0.0697(4)
H42 H 1.1664 0.0192 0.0536
C63 C 1.1049(5) 0.0043(5) 0.1352(4)
H43 H 1.1389 0.0660 0.1639
C64 C 0.9960(4) -0.1404(4) 0.1189(3)
H44 H 0.9520 -0.1818 0.1363
N10 N 1.0419(4) -0.0526(4) 0.1607(3)
Ag2_2 Ag 0.99718(3) -0.52266(4) 0.24963(2)
N7_2 N 0.8345(3) 0.4667(4) 0.1814(2)
N1 N 1.0084(4) 0.2291(4) 0.2251(3)
O1 O 0.9868(4) 0.2220(6) 0.1606(3)
O2 O 1.0786(4) 0.1794(4) 0.2578(3)
O3 O 0.9655(4) 0.2773(4) 0.2638(3)
N2 N 1.0311(4) -0.2518(4) 0.2910(3)
O4 O 1.0914(5) -0.2388(4) 0.2558(3)
O5 O 0.9837(5) -0.3324(4) 0.2833(4)
O6 O 1.0226(4) -0.1818(3) 0.3374(3)
C65 C 0.2254(8) 1.9018(7) -0.1524(6)
H45 H 0.2021 1.8446 -0.1325
H46 H 0.1713 1.9049 -0.1988
Cl1 Cl 0.3368(2) 1.88002(16) -0.17079(19)
Cl2 Cl 0.23155(19) 2.00792(18) -0.09297(14)
C66 C 1.7422(8) 1.0661(11) 0.6134(7)
H47 H 1.7160 1.0666 0.5604
H48 H 1.8073 1.1127 0.6329
Cl3 Cl 1.6501(2) 1.1121(2) 0.6524(2)
Cl4 Cl 1.77196(17) 0.95440(18) 0.62535(15)
C67 C 0.6354(5) 1.2572(6) -0.0239(4)
H49 H 0.6015 1.2694 0.0147
H50 H 0.6064 1.2988 -0.0611
Cl5 Cl 0.6051(2) 1.13441(17) -0.06336(15)
Cl6 Cl 0.77088(14) 1.29410(16) 0.01418(11)
C68 C 1.3603(5) 1.7376(6) 0.5131(4)
H51 H 1.3897 1.6907 0.5460
H52 H 1.3922 1.7312 0.4731
Cl7 Cl 1.3934(2) 1.85878(16) 0.56132(13)
Cl8 Cl 1.22491(13) 1.70490(15) 0.47651(11)
loop_
_geom_bond_atom_site_label_1
_geom_bond_atom_site_label_2
_geom_bond_site_symmetry_1
_geom_bond_site_symmetry_2
Ag1 N3 1_555 1_555
Ag2 N6 1_555 1_555
N1 O1 1_555 1_555
O2 N1 1_555 1_555
O3 N1 1_555 1_555
N2 O4 1_555 1_555
O5 N2 1_555 1_555
O6 N2 1_555 1_555
N3 C1 1_555 1_555
C1 H1 1_555 1_555
C2 C1 1_555 1_555
H2 C2 1_555 1_555
C3 C2 1_555 1_555
H3 C3 1_555 1_555
C4 C3 1_555 1_555
C5 N3 1_555 1_555
H4 C5 1_555 1_555
C6 C4 1_555 1_555
O7 C6 1_555 1_555
N4 C6 1_555 1_555
H5 N4 1_555 1_555
C7 N4 1_555 1_555
C8 C7 1_555 1_555
H6 C8 1_555 1_555
C9 C8 1_555 1_555
H7 C9 1_555 1_555
C10 C9 1_555 1_555
C11 C10 1_555 1_555
H8 C11 1_555 1_555
C12 C11 1_555 1_555
H9 C12 1_555 1_555
C13 C12 1_555 1_555
H10 C13 1_555 1_555
C14 C13 1_555 1_555
H11 C14 1_555 1_555
C15 C10 1_555 1_555
C16 C7 1_555 1_555
C17 C16 1_555 1_555
C18 C17 1_555 1_555
C19 C18 1_555 1_555
H12 C19 1_555 1_555
C20 C19 1_555 1_555
H13 C20 1_555 1_555
C21 C20 1_555 1_555
H14 C21 1_555 1_555
C22 C21 1_555 1_555
H15 C22 1_555 1_555
C23 C18 1_555 1_555
C24 C23 1_555 1_555
H16 C24 1_555 1_555
C25 C24 1_555 1_555
H17 C25 1_555 1_555
C26 C17 1_555 1_555
N5 C26 1_555 1_555
H18 N5 1_555 1_555
C27 N5 1_555 1_555
O8 C27 1_555 1_555
C28 C27 1_555 1_555
C29 C28 1_555 1_555
H19 C29 1_555 1_555
C30 C29 1_555 1_555
H20 C30 1_555 1_555
C31 C30 1_555 1_555
H21 C31 1_555 1_555
C32 C28 1_555 1_555
H22 C32 1_555 1_555
N6 C31 1_555 1_555
N7 C33 1_555 1_555
C33 H23 1_555 1_555
C34 C33 1_555 1_555
H24 C34 1_555 1_555
C35 C34 1_555 1_555
H25 C35 1_555 1_555
C36 C35 1_555 1_555
C37 N7 1_555 1_555
H26 C37 1_555 1_555
C38 C36 1_555 1_555
O9 C38 1_555 1_555
N8 C38 1_555 1_555
H27 N8 1_555 1_555
C39 N8 1_555 1_555
C40 C39 1_555 1_555
H28 C40 1_555 1_555
C41 C40 1_555 1_555
H29 C41 1_555 1_555
C42 C41 1_555 1_555
C43 C42 1_555 1_555
H30 C43 1_555 1_555
C44 C43 1_555 1_555
H31 C44 1_555 1_555
C45 C44 1_555 1_555
H32 C45 1_555 1_555
C46 C45 1_555 1_555
H33 C46 1_555 1_555
C47 C42 1_555 1_555
C48 C39 1_555 1_555
C49 C48 1_555 1_555
C50 C49 1_555 1_555
C51 C50 1_555 1_555
H34 C51 1_555 1_555
C52 C51 1_555 1_555
H35 C52 1_555 1_555
C53 C52 1_555 1_555
H36 C53 1_555 1_555
C54 C53 1_555 1_555
H37 C54 1_555 1_555
C55 C50 1_555 1_555
C56 C55 1_555 1_555
H38 C56 1_555 1_555
C57 C56 1_555 1_555
H39 C57 1_555 1_555
C58 C49 1_555 1_555
N9 C58 1_555 1_555
H40 N9 1_555 1_555
O10 C59 1_555 1_555
C59 N9 1_555 1_555
C60 C59 1_555 1_555
C61 C60 1_555 1_555
H41 C61 1_555 1_555
C62 C61 1_555 1_555
H42 C62 1_555 1_555
C63 C62 1_555 1_555
H43 C63 1_555 1_555
C64 C60 1_555 1_555
H44 C64 1_555 1_555
N10 Ag1 1_555 1_555
C65 H45 1_555 1_555
H46 C65 1_555 1_555
Cl1 C65 1_555 1_555
Cl2 C65 1_555 1_555
C66 H47 1_555 1_555
H48 C66 1_555 1_555
Cl3 C66 1_555 1_555
Cl4 C66 1_555 1_555
C67 H49 1_555 1_555
H50 C67 1_555 1_555
Cl5 C67 1_555 1_555
Cl6 C67 1_555 1_555
C68 H51 1_555 1_555
H52 C68 1_555 1_555
Cl7 C68 1_555 1_555
Cl8 C68 1_555 1_555
Ag2_2 N7 1_555 1_555
N7_2 Ag2 1_555 1_555
C4 C5 1_555 1_555
C14 C15 1_555 1_555
C15 C16 1_555 1_555
C22 C23 1_555 1_555
C25 C26 1_555 1_555
C32 N6 1_555 1_555
C36 C37 1_555 1_555
C46 C47 1_555 1_555
C47 C48 1_555 1_555
C54 C55 1_555 1_555
C57 C58 1_555 1_555
C63 N10 1_555 1_555
C64 N10 1_555 1_555

#END
