
#######################################################################
#
#                 Cambridge Crystallographic Data Centre
#                                CCDC 
#
#######################################################################
#
# If this CIF has been generated from an entry in the Cambridge 
# Structural Database, then it will include bibliographic, chemical, 
# crystal, experimental, refinement or atomic coordinate data resulting 
# from the CCDC's data processing and validation procedures.
#
#######################################################################

data_YEDVUZ
_symmetry_cell_setting           orthorhombic
_symmetry_space_group_name_H-M   'P 21 21 21'
_symmetry_Int_Tables_number      19
_space_group_name_Hall           'P 2ac 2ab'
loop_
_symmetry_equiv_pos_site_id
_symmetry_equiv_pos_as_xyz
1 x,y,z
2 1/2-x,-y,1/2+z
3 -x,1/2+y,1/2-z
4 1/2+x,1/2-y,-z
_cell_length_a                   6.3241(9)
_cell_length_b                   7.415(4)
_cell_length_c                   19.243(6)
_cell_angle_alpha                90
_cell_angle_beta                 90
_cell_angle_gamma                90
_cell_volume                     902.366
loop_
_atom_site_label
_atom_site_type_symbol
_atom_site_fract_x
_atom_site_fract_y
_atom_site_fract_z
Cd1 Cd 0.99666(9) 0.06526(8) 0.74894(3)
Cl1 Cl 1.0676(3) 0.3105(3) 0.84108(10)
Cl2 Cl 0.8452(3) 0.3183(3) 0.67054(10)
O1 O 1.3344(9) 0.1281(7) 0.6998(3)
N1 N 1.3654(11) 0.0722(9) 0.6339(3)
C1 C 1.3268(18) 0.1936(15) 0.5832(5)
H1 H 1.2804 0.3094 0.5938
C2 C 1.4263(17) -0.0931(13) 0.6201(5)
H2 H 1.4533 -0.1719 0.6566
C3 C 1.359(2) 0.140(2) 0.5147(5)
H3 H 1.3377 0.2229 0.4789
C4 C 1.421(2) -0.0332(19) 0.4994(6)
H4 H 1.4412 -0.0683 0.4535
C5 C 1.4512(18) -0.1532(18) 0.5522(6)
H5 H 1.4880 -0.2723 0.5430
O2 O 0.6539(9) 0.0081(8) 0.7888(3)
H6 H 0.5465 0.0289 0.7639
H7 H 0.6512 -0.1040 0.7811
Cd1B Cd 1.00334(9) 0.56526(8) 0.75106(3)
Cl1B Cl 0.9324(3) -0.1895(3) 0.65892(10)
Cl2B Cl 1.1548(3) -0.1817(3) 0.82946(10)
loop_
_geom_bond_atom_site_label_1
_geom_bond_atom_site_label_2
_geom_bond_site_symmetry_1
_geom_bond_site_symmetry_2
Cd1 Cl1 1_555 1_555
Cl1 Cd1B 1_555 1_555
Cl2 Cd1 1_555 1_555
O1 Cd1 1_555 1_555
N1 O1 1_555 1_555
C1 N1 1_555 1_555
H1 C1 1_555 1_555
C2 N1 1_555 1_555
H2 C2 1_555 1_555
C3 C1 1_555 1_555
H3 C3 1_555 1_555
C4 C3 1_555 1_555
H4 C4 1_555 1_555
C5 C2 1_555 1_555
H5 C5 1_555 1_555
O2 Cd1 1_555 1_555
H6 O2 1_555 1_555
H7 O2 1_555 1_555
Cd1B Cl2 1_555 1_555
Cl1B Cd1 1_555 1_555
Cl2B Cd1 1_555 1_555
C4 C5 1_555 1_555

#END
