
#######################################################################
#
#                 Cambridge Crystallographic Data Centre
#                                CCDC 
#
#######################################################################
#
# If this CIF has been generated from an entry in the Cambridge 
# Structural Database, then it will include bibliographic, chemical, 
# crystal, experimental, refinement or atomic coordinate data resulting 
# from the CCDC's data processing and validation procedures.
#
#######################################################################

data_YEDZAK
_symmetry_cell_setting           monoclinic
_symmetry_space_group_name_H-M   'P 21/c'
_symmetry_Int_Tables_number      14
_space_group_name_Hall           '-P 2ybc'
loop_
_symmetry_equiv_pos_site_id
_symmetry_equiv_pos_as_xyz
1 x,y,z
2 -x,1/2+y,1/2-z
3 -x,-y,-z
4 x,1/2-y,1/2+z
_cell_length_a                   9.5304(10)
_cell_length_b                   15.3420(19)
_cell_length_c                   16.846(2)
_cell_angle_alpha                90
_cell_angle_beta                 99.527(6)
_cell_angle_gamma                90
_cell_volume                     2429.17
loop_
_atom_site_label
_atom_site_type_symbol
_atom_site_fract_x
_atom_site_fract_y
_atom_site_fract_z
Ag1 Ag 0.27589(2) 0.539129(15) 1.011529(12)
C1 C 0.3291(3) 0.51313(18) 0.55044(15)
C2 C 0.2246(3) 0.46774(18) 0.49870(15)
H1 H 0.2115 0.4086 0.5072
C3 C 0.1397(3) 0.50920(19) 0.43470(15)
C4 C 0.1606(3) 0.5974(2) 0.42197(16)
H2 H 0.1037 0.6261 0.3798
C5 C 0.2664(3) 0.64291(19) 0.47210(17)
H3 H 0.2812 0.7017 0.4627
C6 C 0.3499(3) 0.60109(19) 0.53598(16)
H4 H 0.4201 0.6320 0.5694
C7 C 0.4176(3) 0.46683(19) 0.62092(16)
H5 H 0.3778 0.4095 0.6269
H6 H 0.5137 0.4591 0.6101
N1 N 0.4223(2) 0.51555(15) 0.69584(13)
H7 H 0.3435 0.5303 0.7106
C8 C 0.5442(3) 0.53792(17) 0.74203(16)
O1 O 0.6622(2) 0.52142(15) 0.72500(13)
N2 N 0.0509(2) 0.45333(15) 0.29926(13)
H8 H 0.1327 0.4681 0.2883
C9 C 0.0231(3) 0.4595(2) 0.38144(16)
H9 H 0.0161 0.4013 0.4030
H10 H -0.0671 0.4887 0.3815
O2 O -0.17245(18) 0.40593(13) 0.25173(11)
C10 C -0.0504(3) 0.42488(17) 0.24098(15)
N3 N 0.4277(2) 0.58944(15) 0.93951(13)
C11 C 0.4377(3) 0.55299(17) 0.86795(15)
H11 H 0.3796 0.5057 0.8504
C12 C 0.5315(3) 0.58340(17) 0.81933(15)
C13 C 0.6177(3) 0.65422(18) 0.84557(17)
H12 H 0.6822 0.6756 0.8145
C14 C 0.6062(3) 0.69259(19) 0.91880(18)
H13 H 0.6617 0.7406 0.9371
C15 C 0.5111(3) 0.65845(18) 0.96401(17)
H14 H 0.5044 0.6841 1.0133
N4 N 0.1255(2) 0.45484(16) 0.05755(13)
C16 C 0.0848(3) 0.46818(18) 0.12946(15)
H15 H 0.1211 0.5161 0.1600
C17 C -0.0092(2) 0.41308(17) 0.15974(15)
C18 C -0.0657(3) 0.34285(18) 0.11270(16)
H16 H -0.1316 0.3061 0.1305
C19 C -0.0230(3) 0.32827(19) 0.03931(17)
H17 H -0.0580 0.2810 0.0076
C20 C 0.0726(3) 0.3852(2) 0.01407(16)
H18 H 0.1017 0.3751 -0.0351
N5 N 0.3149(3) 0.6566(2) 1.11131(17)
C21 C 0.3166(3) 0.6786(2) 1.17520(18)
C22 C 0.3210(4) 0.7071(2) 1.2571(2)
H19 H 0.2683 0.6671 1.2847
H20 H 0.2797 0.7642 1.2573
H21 H 0.4181 0.7091 1.2840
Ag1_2 Ag 0.27589(2) 0.539129(15) 0.011529(12)
N4_2 N 0.1255(2) 0.45484(16) 1.05755(13)
P1 P 0.81353(9) 0.81424(6) 0.69631(5)
F1 F 0.8640(2) 0.73770(16) 0.75521(16)
F2 F 0.7651(5) 0.8927(2) 0.6367(2)
F3 F 0.8275(5) 0.8776(3) 0.7760(2)
F4 F 0.9815(4) 0.8336(3) 0.6951(3)
F5 F 0.6560(3) 0.8053(4) 0.7032(3)
F6 F 0.8139(6) 0.7574(2) 0.6186(2)
F7? F 0.7300(12) 0.8544(7) 0.7539(6)
F8? F 0.9367(13) 0.8667(8) 0.7026(7)
F9? F 0.6681(12) 0.7393(8) 0.6760(7)
F10? F 0.8794(17) 0.7629(12) 0.6313(11)
loop_
_geom_bond_atom_site_label_1
_geom_bond_atom_site_label_2
_geom_bond_site_symmetry_1
_geom_bond_site_symmetry_2
Ag1 N3 1_555 1_555
C1 C2 1_555 1_555
C2 H1 1_555 1_555
C3 C2 1_555 1_555
C4 C3 1_555 1_555
H2 C4 1_555 1_555
C5 C4 1_555 1_555
H3 C5 1_555 1_555
C6 C1 1_555 1_555
H4 C6 1_555 1_555
C7 C1 1_555 1_555
H5 C7 1_555 1_555
H6 C7 1_555 1_555
N1 C7 1_555 1_555
H7 N1 1_555 1_555
C8 N1 1_555 1_555
O1 C8 1_555 1_555
N2 H8 1_555 1_555
C9 C3 1_555 1_555
H9 C9 1_555 1_555
H10 C9 1_555 1_555
O2 C10 1_555 1_555
C10 N2 1_555 1_555
N3 C11 1_555 1_555
C11 H11 1_555 1_555
C12 C8 1_555 1_555
C13 C12 1_555 1_555
H12 C13 1_555 1_555
C14 C13 1_555 1_555
H13 C14 1_555 1_555
C15 N3 1_555 1_555
H14 C15 1_555 1_555
N4 C16 1_555 1_555
C16 H15 1_555 1_555
C17 C10 1_555 1_555
C18 C17 1_555 1_555
H16 C18 1_555 1_555
C19 C18 1_555 1_555
H17 C19 1_555 1_555
C20 N4 1_555 1_555
H18 C20 1_555 1_555
N5 Ag1 1_555 1_555
C21 N5 1_555 1_555
C22 C21 1_555 1_555
H19 C22 1_555 1_555
H20 C22 1_555 1_555
H21 C22 1_555 1_555
P1 F1 1_555 1_555
F2 P1 1_555 1_555
F3 P1 1_555 1_555
F4 P1 1_555 1_555
F5 P1 1_555 1_555
F6 P1 1_555 1_555
Ag1_2 N4 1_555 1_555
N4_2 Ag1 1_555 1_555
C5 C6 1_555 1_555
N2 C9 1_555 1_555
C11 C12 1_555 1_555
C14 C15 1_555 1_555
C16 C17 1_555 1_555
C19 C20 1_555 1_555

#END
