
#######################################################################
#
#                 Cambridge Crystallographic Data Centre
#                                CCDC 
#
#######################################################################
#
# If this CIF has been generated from an entry in the Cambridge 
# Structural Database, then it will include bibliographic, chemical, 
# crystal, experimental, refinement or atomic coordinate data resulting 
# from the CCDC's data processing and validation procedures.
#
#######################################################################

data_YEDZEO
_symmetry_cell_setting           orthorhombic
_symmetry_space_group_name_H-M   'P 21 21 21'
_symmetry_Int_Tables_number      19
_space_group_name_Hall           'P 2ac 2ab'
loop_
_symmetry_equiv_pos_site_id
_symmetry_equiv_pos_as_xyz
1 x,y,z
2 1/2-x,-y,1/2+z
3 1/2+x,1/2-y,-z
4 -x,1/2+y,1/2-z
_cell_length_a                   8.0073(5)
_cell_length_b                   9.7288(5)
_cell_length_c                   25.8930(16)
_cell_angle_alpha                90
_cell_angle_beta                 90
_cell_angle_gamma                90
_cell_volume                     2017.1
loop_
_atom_site_label
_atom_site_type_symbol
_atom_site_fract_x
_atom_site_fract_y
_atom_site_fract_z
Ag1 Ag 0.35412(3) 0.72121(3) 0.774239(8)
C1 C 0.1446(4) 0.6162(2) 0.41716(9)
C2 C 0.2733(3) 0.5234(3) 0.42740(10)
H1 H 0.2916 0.4950 0.4612
C3 C 0.3746(3) 0.4726(2) 0.38828(10)
C4 C 0.3450(4) 0.5145(3) 0.33741(10)
H2 H 0.4107 0.4801 0.3107
C5 C 0.2176(4) 0.6076(3) 0.32658(11)
H3 H 0.1980 0.6349 0.2927
C6 C 0.1200(3) 0.6595(3) 0.36617(11)
H4 H 0.0373 0.7237 0.3588
N1 N 0.0927(3) 0.6758(2) 0.51043(9)
H5 H 0.1344 0.7534 0.5198
C7 C 0.0236(3) 0.6629(3) 0.45826(10)
H6 H -0.0215 0.7514 0.4481
H7 H -0.0685 0.5983 0.4594
O1 O 0.0509(3) 0.45394(19) 0.53238(8)
C8 C 0.0932(3) 0.5713(3) 0.54413(10)
N2 N 0.5373(3) 0.3338(2) 0.45185(9)
H8 H 0.5120 0.2513 0.4608
C9 C 0.5183(4) 0.3745(3) 0.39811(10)
H9 H 0.5017 0.2925 0.3774
H10 H 0.6211 0.4175 0.3867
O2 O 0.6385(3) 0.53950(18) 0.47612(7)
C10 C 0.5927(3) 0.4212(3) 0.48734(11)
N3 N 0.2602(3) 0.6597(3) 0.69834(9)
C11 C 0.1774(4) 0.7543(3) 0.67059(11)
H11 H 0.1566 0.8394 0.6857
C12 C 0.1217(4) 0.7320(3) 0.62085(10)
H12 H 0.0660 0.8009 0.6028
C13 C 0.1501(4) 0.6049(2) 0.59826(9)
C14 C 0.2297(4) 0.5048(3) 0.62731(11)
H13 H 0.2461 0.4173 0.6138
C15 C 0.2847(4) 0.5361(3) 0.67662(11)
H14 H 0.3408 0.4689 0.6954
N4 N 0.6084(3) 0.2985(2) 0.64679(9)
C16 C 0.6836(4) 0.4151(3) 0.62972(12)
H15 H 0.7408 0.4697 0.6533
C17 C 0.6784(3) 0.4554(3) 0.57875(11)
H16 H 0.7305 0.5363 0.5685
C18 C 0.5954(3) 0.3751(3) 0.54295(11)
C19 C 0.5145(4) 0.2562(3) 0.56054(11)
H17 H 0.4551 0.2007 0.5378
C20 C 0.5247(3) 0.2230(3) 0.61230(10)
H18 H 0.4705 0.1441 0.6237
Ag1C Ag 0.64588(3) 0.22121(3) 0.725761(8)
N4C N 0.3916(3) 0.7985(2) 0.85321(9)
N5 N 0.7221(3) 0.5875(3) 0.76116(10)
O3 O 0.6954(3) 0.6972(2) 0.78402(9)
O4 O 0.6075(3) 0.5052(3) 0.75354(11)
O5 O 0.8660(4) 0.5633(4) 0.74545(11)
O6 O 0.0330(4) 0.8195(4) 0.79498(13)
H19 H -0.0578 0.7594 0.7755
H20 H 0.0509 0.8905 0.7653
loop_
_geom_bond_atom_site_label_1
_geom_bond_atom_site_label_2
_geom_bond_site_symmetry_1
_geom_bond_site_symmetry_2
Ag1 N3 1_555 1_555
C1 C2 1_555 1_555
C2 H1 1_555 1_555
C3 C2 1_555 1_555
C4 C3 1_555 1_555
H2 C4 1_555 1_555
C5 C4 1_555 1_555
H3 C5 1_555 1_555
C6 C1 1_555 1_555
H4 C6 1_555 1_555
N1 H5 1_555 1_555
C7 C1 1_555 1_555
H6 C7 1_555 1_555
H7 C7 1_555 1_555
O1 C8 1_555 1_555
C8 N1 1_555 1_555
N2 H8 1_555 1_555
C9 C3 1_555 1_555
H9 C9 1_555 1_555
H10 C9 1_555 1_555
O2 C10 1_555 1_555
C10 N2 1_555 1_555
N3 C11 1_555 1_555
C11 H11 1_555 1_555
C12 C11 1_555 1_555
H12 C12 1_555 1_555
C13 C8 1_555 1_555
C14 C13 1_555 1_555
H13 C14 1_555 1_555
C15 N3 1_555 1_555
H14 C15 1_555 1_555
N4 C16 1_555 1_555
C16 H15 1_555 1_555
C17 C16 1_555 1_555
H16 C17 1_555 1_555
C18 C10 1_555 1_555
C19 C18 1_555 1_555
H17 C19 1_555 1_555
C20 N4 1_555 1_555
H18 C20 1_555 1_555
N5 O3 1_555 1_555
O4 N5 1_555 1_555
O5 N5 1_555 1_555
O6 H19 1_555 1_555
H20 O6 1_555 1_555
Ag1C N4 1_555 1_555
N4C Ag1 1_555 1_555
C5 C6 1_555 1_555
N1 C7 1_555 1_555
N2 C9 1_555 1_555
C12 C13 1_555 1_555
C14 C15 1_555 1_555
C17 C18 1_555 1_555
C19 C20 1_555 1_555

#END
