
#######################################################################
#
#                 Cambridge Crystallographic Data Centre
#                                CCDC 
#
#######################################################################
#
# If this CIF has been generated from an entry in the Cambridge 
# Structural Database, then it will include bibliographic, chemical, 
# crystal, experimental, refinement or atomic coordinate data resulting 
# from the CCDC's data processing and validation procedures.
#
#######################################################################

data_YEFLIF01
_symmetry_cell_setting           monoclinic
_symmetry_space_group_name_H-M   'C 2/c'
_symmetry_Int_Tables_number      15
_space_group_name_Hall           '-C 2yn'
loop_
_symmetry_equiv_pos_site_id
_symmetry_equiv_pos_as_xyz
1 x,y,z
2 1/2+x,1/2+y,z
3 -x,y,1/2-z
4 1/2-x,1/2+y,1/2-z
5 -x,-y,-z
6 1/2-x,1/2-y,-z
7 x,-y,1/2+z
8 1/2+x,1/2-y,1/2+z
_cell_length_a                   10.1847(12)
_cell_length_b                   17.719(2)
_cell_length_c                   7.0582(8)
_cell_angle_alpha                90
_cell_angle_beta                 132.988(2)
_cell_angle_gamma                90
_cell_volume                     931.738
loop_
_atom_site_label
_atom_site_type_symbol
_atom_site_fract_x
_atom_site_fract_y
_atom_site_fract_z
K1 K 1.0000 0.45458(4) 0.7500
C1 C 1.0000 0.63108(18) 0.7500
C2 C 1.0000 0.71718(16) 0.7500
C3 C 0.9371(2) 0.75666(13) 0.5325(4)
H1 H 0.8963 0.7309 0.3859
C4 C 0.9353(3) 0.83499(12) 0.5348(4)
C5 C 1.0000 0.87603(18) 0.7500
H2 H 1.0000 0.9285 0.7500
N1 N 0.8581(2) 0.87609(12) 0.2967(4)
O1 O 0.9725(3) 0.59943(9) 0.5685(3)
O2 O 0.8567(3) 0.94524(11) 0.3010(4)
O3 O 0.7951(2) 0.83969(11) 0.1036(3)
K1F K 1.0000 0.54542(4) 0.2500
K1F_2 K 1.0000 0.54542(4) 1.2500
K1A K 0.5000 0.95458(4) -0.2500
K1A_2 K 1.5000 0.95458(4) 1.7500
C3B C 1.0629(2) 0.75666(13) 0.9675(4)
H1B H 1.1037 0.7309 1.1141
C4B C 1.0647(3) 0.83499(12) 0.9652(4)
N1B N 1.1419(2) 0.87609(12) 1.2033(4)
O1B O 1.0275(3) 0.59943(9) 0.9315(3)
O1F O 0.9725(3) 0.40057(9) 1.0685(3)
O1D O 1.0275(3) 0.40057(9) 0.4315(3)
O2B O 1.1433(3) 0.94524(11) 1.1990(4)
O2A O 1.3567(3) 0.44524(11) 1.3010(4)
O2C O 0.6433(3) 0.44524(11) 0.1990(4)
O3B O 1.2049(2) 0.83969(11) 1.3964(3)
O3A O 1.2951(2) 0.33969(11) 1.1036(3)
O3C O 0.7049(2) 0.33969(11) 0.3964(3)
loop_
_geom_bond_atom_site_label_1
_geom_bond_atom_site_label_2
_geom_bond_site_symmetry_1
_geom_bond_site_symmetry_2
K1 O1 1_555 1_555
C1 C2 1_555 1_555
C2 C3 1_555 1_555
C3 H1 1_555 1_555
C4 C3 1_555 1_555
C5 C4 1_555 1_555
H2 C5 1_555 1_555
N1 C4 1_555 1_555
O1 C1 1_555 1_555
O2 N1 1_555 1_555
O3 N1 1_555 1_555
K1F O1 1_555 1_555
K1F_2 O1B 1_555 1_555
K1A O2 1_555 1_555
K1A_2 O2B 1_555 1_555
C3B C2 1_555 1_555
H1B C3B 1_555 1_555
C4B C5 1_555 1_555
N1B C4B 1_555 1_555
O1B K1 1_555 1_555
O1F K1 1_555 1_555
O1D K1 1_555 1_555
O2B N1B 1_555 1_555
O2A K1 1_555 1_555
O2C K1 1_555 1_555
O3B K1A_2 1_555 1_555
O3A K1 1_555 1_555
O3C K1 1_555 1_555
C1 O1B 1_555 1_555
O3 K1A 1_555 1_555
K1F O1D 1_555 1_555
K1F_2 O1F 1_555 1_555
C3B C4B 1_555 1_555
N1B O3B 1_555 1_555

#END
