
#######################################################################
#
#                 Cambridge Crystallographic Data Centre
#                                CCDC 
#
#######################################################################
#
# If this CIF has been generated from an entry in the Cambridge 
# Structural Database, then it will include bibliographic, chemical, 
# crystal, experimental, refinement or atomic coordinate data resulting 
# from the CCDC's data processing and validation procedures.
#
#######################################################################

data_YEGFIB
_symmetry_cell_setting           tetragonal
_symmetry_space_group_name_H-M   'P 41 21 2'
_symmetry_Int_Tables_number      92
_space_group_name_Hall           'P 4abw 2nw'
loop_
_symmetry_equiv_pos_site_id
_symmetry_equiv_pos_as_xyz
1 x,y,z
2 -x,-y,1/2+z
3 1/2-y,1/2+x,1/4+z
4 1/2+y,1/2-x,3/4+z
5 1/2-x,1/2+y,1/4-z
6 1/2+x,1/2-y,3/4-z
7 y,x,-z
8 -y,-x,1/2-z
_cell_length_a                   22.5663(14)
_cell_length_b                   22.5663(14)
_cell_length_c                   13.8877(18)
_cell_angle_alpha                90
_cell_angle_beta                 90
_cell_angle_gamma                90
_cell_volume                     7072.14
loop_
_atom_site_label
_atom_site_type_symbol
_atom_site_fract_x
_atom_site_fract_y
_atom_site_fract_z
O1 O 0.50467(14) 0.08394(15) 0.4105(2)
H1 H 0.4754 0.0617 0.4240
H2 H 0.4993 0.1206 0.4212
C1 C 0.74328(19) 1.00866(17) 0.2460(3)
C2 C 0.72255(19) 1.02752(17) 0.3444(3)
C3 C 0.7626(2) 1.03510(19) 0.4199(3)
H3 H 0.8037 1.0288 0.4092
C4 C 0.7428(2) 1.0519(2) 0.5109(3)
H4 H 0.7703 1.0570 0.5620
C5 C 0.6834(2) 1.06104(18) 0.5267(3)
C6 C 0.64325(19) 1.05387(18) 0.4524(3)
H5 H 0.6021 1.0600 0.4635
C7 C 0.66321(19) 1.03781(18) 0.3620(3)
H6 H 0.6355 1.0338 0.3108
C8 C 0.6053(2) 1.0753(2) 0.6399(3)
H7 H 0.5881 1.0366 0.6217
H8 H 0.5848 1.1067 0.6028
C9 C 0.5972(2) 1.0858(2) 0.7461(3)
H9 H 0.5576 1.0717 0.7667
H10 H 0.6276 1.0637 0.7829
C10 C 0.5886(2) 1.16720(18) 0.8542(3)
C11 C 0.58300(18) 1.2283(2) 0.8649(3)
H11 H 0.5896 1.2538 0.8115
C12 C 0.56793(19) 1.25178(18) 0.9534(3)
H12 H 0.5637 1.2935 0.9601
C13 C 0.55886(19) 1.21545(16) 1.0329(3)
C14 C 0.56542(19) 1.15523(19) 1.0206(3)
H13 H 0.5594 1.1298 1.0742
C15 C 0.58064(19) 1.13052(18) 0.9322(3)
H14 H 0.5855 1.0889 0.9258
C16 C 0.54268(18) 1.24144(16) 1.1286(3)
C17 C 0.7396(2) 1.1090(2) 0.0077(3)
H15 H 0.7119 1.0870 -0.0296
C18 C 0.81846(19) 1.17273(18) 0.1127(3)
H16 H 0.8472 1.1937 0.1492
C19 C 0.76915(17) 1.20150(17) 0.0788(3)
C20 C 0.7293(2) 1.16855(18) 0.0231(3)
H17 H 0.6954 1.1871 -0.0041
C21 C 0.82612(19) 1.11297(19) 0.0936(3)
H18 H 0.8607 1.0938 0.1171
C22 C 0.75660(18) 1.26442(17) 0.1030(3)
C23 C 0.80230(19) 1.30442(18) 0.1194(3)
H19 H 0.8425 1.2922 0.1145
C24 C 0.78832(19) 1.36194(18) 0.1427(3)
H20 H 0.8199 1.3889 0.1537
C25 C 0.68894(19) 1.34383(19) 0.1350(3)
H21 H 0.6492 1.3572 0.1400
C26 C 0.69954(18) 1.2851(2) 0.1113(3)
H22 H 0.6672 1.2590 0.1008
Cd1 Cd 0.784055(12) 0.979995(11) 0.062572(19)
N1 N 0.78667(16) 1.08123(14) 0.0432(2)
N2 N 0.73303(14) 1.38219(14) 0.1510(2)
O2 O 0.79804(13) 0.99979(14) 0.2317(2)
O3 O 0.70616(13) 1.00216(12) 0.1796(2)
O4 O 0.66747(14) 1.07612(15) 0.6190(2)
O5 O 0.60272(13) 1.14789(13) 0.7638(2)
O6 O 0.52785(12) 1.20673(12) 1.1961(2)
O7 O 0.54445(12) 1.29646(12) 1.14148(19)
O8 O 0.88622(13) 0.96933(14) 0.0633(2)
H27 H 0.9025 1.0024 0.0507
H28 H 0.9028 0.9523 0.1108
C16C C 0.74144(16) 0.95732(18) -0.1214(3)
Cd1D Cd 0.715945(12) 1.479995(11) 0.187428(19)
Cd1B Cd 0.520005(11) 1.284055(12) 1.312572(19)
N2D N 0.76697(14) 0.88219(14) 0.0990(2)
O6C O 0.70673(12) 0.97215(12) -0.0539(2)
O7C O 0.79646(12) 0.95555(12) -0.10852(19)
C27 C 0.7014(4) 0.6306(3) 0.5079(7)
H23 H 0.7112 0.5896 0.5094
C28 C 0.7470(3) 0.6743(3) 0.5142(5)
H24 H 0.7866 0.6630 0.5280
C29 C 0.7329(3) 0.7329(3) 0.5000
C30 C 0.7814(4) 0.7814(4) 0.5000
C31 C 0.7832(4) 0.8203(3) 0.4246(6)
H25 H 0.7552 0.8194 0.3735
C32 C 0.8307(5) 0.8623(5) 0.4286(9)
H26 H 0.8360 0.8885 0.3757
N3 N 0.6469(3) 0.6469(3) 0.5000
N4 N 0.8663(4) 0.8663(4) 0.5000
C27F C 0.6306(3) 0.7014(4) 0.4921(7)
H23F H 0.5896 0.7112 0.4906
C28F C 0.6743(3) 0.7470(3) 0.4858(5)
H24F H 0.6630 0.7866 0.4720
C31F C 0.8203(3) 0.7832(4) 0.5754(6)
H25F H 0.8194 0.7552 0.6265
C32F C 0.8623(5) 0.8307(5) 0.5714(9)
H26F H 0.8885 0.8360 0.6243
O9 O 0.58608(13) 0.98397(15) 0.9678(2)
H29 H 0.5803 0.9898 1.0275
H30 H 0.6230 0.9765 0.9660
O10 O 0.95351(19) 0.90801(16) 0.1913(3)
H31 H 0.9571 0.8724 0.1722
H32 H 0.9842 0.8978 0.2228
O11 O 0.0483(4) 0.9282(4) 0.3214(7)
H33 H 0.0725 0.8994 0.3234
H34 H 0.0349 0.9180 0.3761
O12 O 0.9422(4) 0.0390(4) 0.4888(7)
H35 H 0.9261 0.0057 0.4997
H36 H 0.9517 0.0468 0.5466
O13 O 0.9044(2) 0.0288(4) 0.3110(4)
H37 H 0.8986 0.0574 0.3498
H38 H 0.8726 0.0236 0.2793
H39? H 0.9323 -0.0782 0.4920
H40? H 0.9507 -0.0348 0.4294
O14? O 0.9321(4) -0.0410(5) 0.4816(6)
loop_
_geom_bond_atom_site_label_1
_geom_bond_atom_site_label_2
_geom_bond_site_symmetry_1
_geom_bond_site_symmetry_2
O1 H1 1_555 1_555
H2 O1 1_555 1_555
C1 C2 1_555 1_555
C2 C3 1_555 1_555
C3 H3 1_555 1_555
C4 C3 1_555 1_555
H4 C4 1_555 1_555
C5 C4 1_555 1_555
C6 C5 1_555 1_555
H5 C6 1_555 1_555
C7 C2 1_555 1_555
H6 C7 1_555 1_555
C8 H7 1_555 1_555
H8 C8 1_555 1_555
C9 C8 1_555 1_555
H9 C9 1_555 1_555
H10 C9 1_555 1_555
C10 C11 1_555 1_555
C11 H11 1_555 1_555
C12 C11 1_555 1_555
H12 C12 1_555 1_555
C13 C12 1_555 1_555
C14 C13 1_555 1_555
H13 C14 1_555 1_555
C15 C10 1_555 1_555
H14 C15 1_555 1_555
C16 C13 1_555 1_555
C17 H15 1_555 1_555
C18 H16 1_555 1_555
C19 C18 1_555 1_555
C20 C17 1_555 1_555
H17 C20 1_555 1_555
C21 C18 1_555 1_555
H18 C21 1_555 1_555
C22 C19 1_555 1_555
C23 C22 1_555 1_555
H19 C23 1_555 1_555
C24 C23 1_555 1_555
H20 C24 1_555 1_555
C25 H21 1_555 1_555
C26 C22 1_555 1_555
H22 C26 1_555 1_555
C27 H23 1_555 1_555
C28 C27 1_555 1_555
H24 C28 1_555 1_555
C29 C28 1_555 1_555
C30 C29 1_555 1_555
C31 C30 1_555 1_555
H25 C31 1_555 1_555
C32 C31 1_555 1_555
H26 C32 1_555 1_555
Cd1 N1 1_555 1_555
N1 C17 1_555 1_555
N2 C24 1_555 1_555
N3 C27 1_555 1_555
N4 C32 1_555 1_555
O2 C1 1_555 1_555
O3 C1 1_555 1_555
O4 C5 1_555 1_555
O5 C9 1_555 1_555
O6 C16 1_555 1_555
O7 C16 1_555 1_555
O8 Cd1 1_555 1_555
H27 O8 1_555 1_555
H28 O8 1_555 1_555
O9 H29 1_555 1_555
H30 O9 1_555 1_555
O10 H31 1_555 1_555
H32 O10 1_555 1_555
O11 H33 1_555 1_555
H34 O11 1_555 1_555
O12 H35 1_555 1_555
H36 O12 1_555 1_555
O13 H37 1_555 1_555
H38 O13 1_555 1_555
C16C O6C 1_555 1_555
C27F N3 1_555 1_555
H23F C27F 1_555 1_555
C28F C29 1_555 1_555
H24F C28F 1_555 1_555
C31F C30 1_555 1_555
H25F C31F 1_555 1_555
C32F N4 1_555 1_555
H26F C32F 1_555 1_555
Cd1D N2 1_555 1_555
Cd1B O6 1_555 1_555
N2D Cd1 1_555 1_555
O6C Cd1 1_555 1_555
O7C Cd1 1_555 1_555
C6 C7 1_555 1_555
C8 O4 1_555 1_555
C10 O5 1_555 1_555
C14 C15 1_555 1_555
C19 C20 1_555 1_555
C21 N1 1_555 1_555
C25 C26 1_555 1_555
C25 N2 1_555 1_555
Cd1 O2 1_555 1_555
Cd1 O3 1_555 1_555
O7 Cd1B 1_555 1_555
C16C O7C 1_555 1_555
C27F C28F 1_555 1_555
C31F C32F 1_555 1_555

#END
