
#######################################################################
#
#                 Cambridge Crystallographic Data Centre
#                                CCDC 
#
#######################################################################
#
# If this CIF has been generated from an entry in the Cambridge 
# Structural Database, then it will include bibliographic, chemical, 
# crystal, experimental, refinement or atomic coordinate data resulting 
# from the CCDC's data processing and validation procedures.
#
#######################################################################

data_YEGHOJ
_symmetry_cell_setting           monoclinic
_symmetry_space_group_name_H-M   'P 21/c'
_symmetry_Int_Tables_number      14
_space_group_name_Hall           '-P 2ybc'
loop_
_symmetry_equiv_pos_site_id
_symmetry_equiv_pos_as_xyz
1 x,y,z
2 -x,1/2+y,1/2-z
3 -x,-y,-z
4 x,1/2-y,1/2+z
_cell_length_a                   7.8212(2)
_cell_length_b                   11.6487(3)
_cell_length_c                   11.6871(3)
_cell_angle_alpha                90
_cell_angle_beta                 99.055(3)
_cell_angle_gamma                90
_cell_volume                     1051.5
loop_
_atom_site_label
_atom_site_type_symbol
_atom_site_fract_x
_atom_site_fract_y
_atom_site_fract_z
Mn1 Mn 1.00000 0.50000 0.50000
O1 O 0.7271(6) 0.4520(3) 0.4636(4)
N1 N 1.0106(6) 0.4366(5) 0.3376(2)
N2 N 1.0704(8) 0.1741(3) 0.0650(5)
N3 N 1.2027(6) 0.6677(3) 0.1568(7)
N4 N 1.3037(6) 0.4193(5) -0.0912(5)
C1 C 1.0849(5) 0.4868(2) 0.0405(3)
C2 C 1.06051(13) 0.38719(14) 0.1288(3)
C3 C 1.0328(3) 0.4148(2) 0.2445(2)
C4 C 1.0660(5) 0.2691(2) 0.0932(3)
C5 C 1.1502(3) 0.58700(15) 0.1051(4)
C6 C 1.2062(5) 0.4492(4) -0.0325(3)
C7 C 0.6064(6) 0.38433(19) 0.4458(4)
C8 C 0.4975(8) 0.3819(4) 0.3349(5)
C9 C 0.5736(4) 0.3074(4) 0.5357(5)
H1 H 0.480 0.3084 0.3121
H2 H 0.3955 0.415 0.3412
H3 H 0.5498 0.421 0.2834
H4 H 0.605 0.2359 0.518
H5 H 0.636 0.330 0.6033
H6 H 0.4600 0.309 0.541
Mn1_2 Mn 1.00000 0.50000 -0.50000
Mn1A Mn 1.00000 0.00000 0.00000
Mn1A_2 Mn 1.00000 1.00000 0.00000
O1B O 1.2729(6) 0.5480(3) 0.5364(4)
N1B N 0.9894(6) 0.5634(5) -0.3376(2)
N1B_2 N 0.9894(6) 0.5634(5) 0.6624(2)
N2B N 0.9296(8) 0.8259(3) -0.0650(5)
N2A N 0.9296(8) 0.6741(3) 0.4350(5)
N2C N 1.0704(8) 0.3259(3) 0.5650(5)
N3B N 0.7973(6) 0.3323(3) -0.1568(7)
N4B N 0.6963(6) 0.5807(5) 0.0912(5)
C1B C 0.9151(5) 0.5132(2) -0.0405(3)
C2B C 0.93949(13) 0.61281(14) -0.1288(3)
C3B C 0.9672(3) 0.5852(2) -0.2445(2)
C4B C 0.9340(5) 0.7309(2) -0.0932(3)
C5B C 0.8498(3) 0.41300(15) -0.1051(4)
C6B C 0.7938(5) 0.5508(4) 0.0325(3)
C7B C 1.3936(6) 0.61567(19) 0.5542(4)
C8B C 1.5025(8) 0.6181(4) 0.6651(5)
C9B C 1.4264(4) 0.6926(4) 0.4643(5)
H1B H 1.520 0.6916 0.6879
H2B H 1.6045 0.585 0.6588
H3B H 1.4502 0.579 0.7166
H4B H 1.395 0.7641 0.482
H5B H 1.364 0.670 0.3967
H6B H 1.5400 0.691 0.459
loop_
_geom_bond_atom_site_label_1
_geom_bond_atom_site_label_2
_geom_bond_site_symmetry_1
_geom_bond_site_symmetry_2
Mn1 O1 1_555 1_555
O1 C7 1_555 1_555
N1 Mn1 1_555 1_555
N2 C4 1_555 1_555
N3 C5 1_555 1_555
N4 C6 1_555 1_555
C1 C2 1_555 1_555
C2 C3 1_555 1_555
C3 N1 1_555 1_555
C4 C2 1_555 1_555
C5 C1 1_555 1_555
C6 C1 1_555 1_555
C7 C8 1_555 1_555
C8 H1 1_555 1_555
C9 C7 1_555 1_555
H2 C8 1_555 1_555
H3 C8 1_555 1_555
H4 C9 1_555 1_555
H5 C9 1_555 1_555
H6 C9 1_555 1_555
Mn1_2 N1B 1_555 1_555
Mn1A N2 1_555 1_555
Mn1A_2 N2B 1_555 1_555
O1B Mn1 1_555 1_555
N1B C3B 1_555 1_555
N1B_2 Mn1 1_555 1_555
N2B C4B 1_555 1_555
N2A Mn1 1_555 1_555
N2C Mn1 1_555 1_555
N3B C5B 1_555 1_555
N4B C6B 1_555 1_555
C1B C1 1_555 1_555
C2B C1B 1_555 1_555
C3B C2B 1_555 1_555
C4B C2B 1_555 1_555
C5B C1B 1_555 1_555
C6B C1B 1_555 1_555
C7B O1B 1_555 1_555
C8B C7B 1_555 1_555
C9B C7B 1_555 1_555
H1B C8B 1_555 1_555
H2B C8B 1_555 1_555
H3B C8B 1_555 1_555
H4B C9B 1_555 1_555
H5B C9B 1_555 1_555
H6B C9B 1_555 1_555

#END
