
#######################################################################
#
#                 Cambridge Crystallographic Data Centre
#                                CCDC 
#
#######################################################################
#
# If this CIF has been generated from an entry in the Cambridge 
# Structural Database, then it will include bibliographic, chemical, 
# crystal, experimental, refinement or atomic coordinate data resulting 
# from the CCDC's data processing and validation procedures.
#
#######################################################################

data_YEGPUX
_symmetry_cell_setting           monoclinic
_symmetry_space_group_name_H-M   'P 21/c'
_symmetry_Int_Tables_number      14
_space_group_name_Hall           '-P 2ybc'
loop_
_symmetry_equiv_pos_site_id
_symmetry_equiv_pos_as_xyz
1 x,y,z
2 -x,1/2+y,1/2-z
3 -x,-y,-z
4 x,1/2-y,1/2+z
_cell_length_a                   14.2980(4)
_cell_length_b                   13.8431(4)
_cell_length_c                   23.3941(8)
_cell_angle_alpha                90
_cell_angle_beta                 101.735(2)
_cell_angle_gamma                90
_cell_volume                     4533.58
loop_
_atom_site_label
_atom_site_type_symbol
_atom_site_fract_x
_atom_site_fract_y
_atom_site_fract_z
Pr1 Pr 0.23009(2) 0.03895(2) 0.11774(1)
Fe1 Fe 0.52662(6) 0.26342(6) 0.24848(4)
O1 O 0.3922(5) 0.4033(5) 0.2611(3)
O2 O 0.1924(3) 0.2110(3) 0.1368(2)
O3 O 0.1394(3) -0.1114(3) 0.0828(2)
O4 O 0.1165(3) 0.1018(4) 0.0135(2)
N1 N 0.4472(4) 0.3440(4) 0.2554(3)
N2 N 0.3847(4) 0.1174(4) 0.1794(2)
N3 N 0.3205(4) -0.1070(4) 0.1770(2)
N4 N 0.6801(4) 0.1152(5) 0.2322(3)
N5 N 0.5633(5) 0.3489(5) 0.1335(3)
N6 N 0.5162(5) 0.1510(5) 0.3608(3)
N7 N 0.2060(3) 0.0440(3) 0.2301(2)
N8 N 0.0505(3) 0.0469(3) 0.1393(2)
N9 N 0.3273(3) -0.0529(3) 0.0451(2)
N10 N 0.3313(3) 0.1446(3) 0.0526(2)
C1 C 0.4379(4) 0.1721(5) 0.2039(3)
C2 C 0.3728(4) -0.1577(4) 0.2052(3)
C3 C 0.6238(4) 0.1701(4) 0.2388(3)
C4 C 0.5501(4) 0.3176(4) 0.1763(3)
C5 C 0.5204(4) 0.1926(5) 0.3192(3)
C6 C 0.2797(4) 0.0402(4) 0.2747(3)
C7 C 0.2720(6) 0.0452(5) 0.3332(3)
C8 C 0.1822(6) 0.0499(5) 0.3450(3)
C9 C 0.1020(5) 0.0505(4) 0.3004(3)
C10 C 0.1169(4) 0.0489(4) 0.2426(3)
C11 C 0.0360(4) 0.0503(4) 0.1954(3)
C12 C -0.0570(5) 0.0546(4) 0.2076(3)
C13 C -0.1362(4) 0.0582(5) 0.1595(4)
C14 C -0.1198(5) 0.0548(5) 0.1055(4)
C15 C -0.0256(4) 0.0490(5) 0.0964(3)
C16 C 0.0072(6) 0.0544(5) 0.3108(4)
C17 C -0.0694(5) 0.0568(5) 0.2666(4)
C18 C 0.3331(4) -0.1469(4) 0.0426(3)
C19 C 0.3652(5) -0.1970(5) -0.0015(3)
C20 C 0.3899(4) -0.1466(6) -0.0460(3)
C21 C 0.3869(4) -0.0453(5) -0.0453(3)
C22 C 0.3553(4) -0.0010(4) 0.0012(2)
C23 C 0.3559(4) 0.1036(4) 0.0054(2)
C24 C 0.3845(4) 0.1583(5) -0.0389(3)
C25 C 0.3880(5) 0.2579(6) -0.0327(3)
C26 C 0.3647(5) 0.2993(5) 0.0145(3)
C27 C 0.3366(5) 0.2402(5) 0.0566(3)
C28 C 0.4143(5) 0.0134(6) -0.0900(3)
C29 C 0.4140(5) 0.1085(6) -0.0866(3)
C30 C 0.0374(5) 0.1637(6) -0.0341(3)
H1 H 0.3420 0.0348 0.2666
H2 H 0.3280 0.0447 0.3640
H3 H 0.1748 0.0529 0.3852
H4 H -0.1990 0.0619 0.1678
H5 H -0.1732 0.0546 0.0728
H6 H -0.0169 0.0478 0.0560
H7 H -0.0044 0.0558 0.3490
H8 H -0.1309 0.0603 0.2757
H9 H 0.3168 -0.1839 0.0742
H10 H 0.3701 -0.2665 -0.0005
H11 H 0.4084 -0.1788 -0.0779
H12 H 0.4065 0.2954 -0.0634
H13 H 0.3683 0.3669 0.0205
H14 H 0.3224 0.2693 0.0911
H15 H 0.4343 -0.0182 -0.1228
H16 H 0.4343 0.1478 -0.1160
H17 H 0.0586 0.2325 -0.0322
H18 H 0.0336 0.1422 -0.0716
H19 H -0.0226 0.1635 -0.0229
Fe1A Fe 0.47338(6) -0.23658(6) 0.25152(4)
C2A C 0.6272(4) 0.3423(4) 0.2948(3)
O5 O 0.1576(6) -0.3024(5) 0.0839(3)
N11 N 0.2034(7) -0.4585(5) 0.1025(3)
C31 C 0.2087(8) -0.3641(6) 0.1135(4)
C32 C 0.2633(10) -0.5261(8) 0.1374(6)
C33 C 0.147(2) -0.4983(10) 0.0534(6)
H20 H 0.2491 -0.3428 0.1477
H21 H 0.2580 -0.5212 0.1802
H22 H 0.2548 -0.5904 0.1277
H23 H 0.3318 -0.5100 0.1404
H24 H 0.0738 -0.4780 0.0541
H25 H 0.1533 -0.4677 0.0182
H26 H 0.1432 -0.5632 0.0512
O6 O 0.5142(9) 0.5079(9) 0.0582(5)
O7 O 0.360(2) 0.548(1) -0.0381(8)
C34 C 0.380(2) 0.557(1) 0.0290(7)
N12 N 0.1341(4) 0.2894(4) 0.2331(3)
N13 N 0.0134(4) 0.2924(4) 0.1225(3)
C35 C 0.1863(6) 0.2922(6) 0.2858(4)
C36 C 0.1519(7) 0.2984(6) 0.3373(4)
C37 C 0.0540(7) 0.3033(6) 0.3323(3)
C38 C -0.0048(5) 0.3027(4) 0.2781(3)
C39 C 0.0365(4) 0.2965(4) 0.2277(3)
C40 C -0.0251(4) 0.2987(4) 0.1712(3)
C41 C -0.1246(4) 0.3061(4) 0.1671(3)
C42 C -0.1822(5) 0.3123(5) 0.1112(3)
C43 C -0.1433(6) 0.3083(6) 0.0631(4)
C44 C -0.0462(6) 0.2983(6) 0.0699(3)
C45 C -0.1068(5) 0.3078(5) 0.2707(4)
C46 C -0.1632(5) 0.3093(5) 0.2184(3)
H27 H 0.2538 0.2903 0.2889
H28 H 0.1918 0.3050 0.3749
H29 H 0.0252 0.3053 0.3670
H30 H -0.2508 0.3200 0.1076
H31 H -0.1845 0.3097 0.0244
H32 H -0.0187 0.2989 0.0354
H33 H -0.1355 0.3121 0.3048
H34 H -0.2296 0.3134 0.2160
loop_
_geom_bond_atom_site_label_1
_geom_bond_atom_site_label_2
_geom_bond_site_symmetry_1
_geom_bond_site_symmetry_2
Pr1 O2 1_555 1_555
Fe1 N1 1_555 1_555
O1 N1 1_555 1_555
O3 Pr1 1_555 1_555
O4 Pr1 1_555 1_555
N2 Pr1 1_555 1_555
N3 Pr1 1_555 1_555
N4 C3 1_555 1_555
N5 C4 1_555 1_555
N6 C5 1_555 1_555
N7 Pr1 1_555 1_555
N8 Pr1 1_555 1_555
N9 Pr1 1_555 1_555
N10 Pr1 1_555 1_555
C1 Fe1 1_555 1_555
C2 N3 1_555 1_555
C3 Fe1 1_555 1_555
C4 Fe1 1_555 1_555
C5 Fe1 1_555 1_555
C6 N7 1_555 1_555
C7 C6 1_555 1_555
C8 C7 1_555 1_555
C9 C8 1_555 1_555
C10 N7 1_555 1_555
C11 N8 1_555 1_555
C12 C11 1_555 1_555
C13 C12 1_555 1_555
C14 C13 1_555 1_555
C15 N8 1_555 1_555
C16 C9 1_555 1_555
C17 C12 1_555 1_555
C18 N9 1_555 1_555
C19 C18 1_555 1_555
C20 C19 1_555 1_555
C21 C20 1_555 1_555
C22 N9 1_555 1_555
C23 N10 1_555 1_555
C24 C23 1_555 1_555
C25 C24 1_555 1_555
C26 C25 1_555 1_555
C27 N10 1_555 1_555
C28 C21 1_555 1_555
C29 C24 1_555 1_555
C30 O4 1_555 1_555
H1 C6 1_555 1_555
H2 C7 1_555 1_555
H3 C8 1_555 1_555
H4 C13 1_555 1_555
H5 C14 1_555 1_555
H6 C15 1_555 1_555
H7 C16 1_555 1_555
H8 C17 1_555 1_555
H9 C18 1_555 1_555
H10 C19 1_555 1_555
H11 C20 1_555 1_555
H12 C25 1_555 1_555
H13 C26 1_555 1_555
H14 C27 1_555 1_555
H15 C28 1_555 1_555
H16 C29 1_555 1_555
H17 C30 1_555 1_555
H18 C30 1_555 1_555
H19 C30 1_555 1_555
O5 C31 1_555 1_555
N11 C31 1_555 1_555
C31 H20 1_555 1_555
C32 N11 1_555 1_555
C33 N11 1_555 1_555
H21 C32 1_555 1_555
H22 C32 1_555 1_555
H23 C32 1_555 1_555
H24 C33 1_555 1_555
H25 C33 1_555 1_555
H26 C33 1_555 1_555
O7 C34 1_555 1_555
N12 C35 1_555 1_555
N13 C40 1_555 1_555
C35 C36 1_555 1_555
C36 C37 1_555 1_555
C37 C38 1_555 1_555
C38 C39 1_555 1_555
C39 N12 1_555 1_555
C40 C39 1_555 1_555
C41 C40 1_555 1_555
C42 C41 1_555 1_555
C43 C42 1_555 1_555
C44 N13 1_555 1_555
C45 C38 1_555 1_555
C46 C41 1_555 1_555
H27 C35 1_555 1_555
H28 C36 1_555 1_555
H29 C37 1_555 1_555
H30 C42 1_555 1_555
H31 C43 1_555 1_555
H32 C44 1_555 1_555
H33 C45 1_555 1_555
H34 C46 1_555 1_555
Fe1A C2 1_555 1_555
C2A Fe1 1_555 1_555
N2 C1 1_555 1_555
C9 C10 1_555 1_555
C10 C11 1_555 1_555
C14 C15 1_555 1_555
C16 C17 1_555 1_555
C21 C22 1_555 1_555
C22 C23 1_555 1_555
C26 C27 1_555 1_555
C28 C29 1_555 1_555
C43 C44 1_555 1_555
C45 C46 1_555 1_555

#END
