
#######################################################################
#
#                 Cambridge Crystallographic Data Centre
#                                CCDC 
#
#######################################################################
#
# If this CIF has been generated from an entry in the Cambridge 
# Structural Database, then it will include bibliographic, chemical, 
# crystal, experimental, refinement or atomic coordinate data resulting 
# from the CCDC's data processing and validation procedures.
#
#######################################################################

data_YEGQIM
_symmetry_cell_setting           orthorhombic
_symmetry_space_group_name_H-M   'P b c n'
_symmetry_Int_Tables_number      60
_space_group_name_Hall           '-P 2n 2ab'
loop_
_symmetry_equiv_pos_site_id
_symmetry_equiv_pos_as_xyz
1 x,y,z
2 1/2-x,1/2-y,1/2+z
3 -x,y,1/2-z
4 1/2+x,1/2-y,-z
5 -x,-y,-z
6 1/2+x,1/2+y,1/2-z
7 x,-y,1/2+z
8 1/2-x,1/2+y,z
_cell_length_a                   13.3017(2)
_cell_length_b                   13.9226(4)
_cell_length_c                   12.1243(3)
_cell_angle_alpha                90
_cell_angle_beta                 90
_cell_angle_gamma                90
_cell_volume                     2245.35
loop_
_atom_site_label
_atom_site_type_symbol
_atom_site_fract_x
_atom_site_fract_y
_atom_site_fract_z
Cu1 Cu 0.19664(2) 0.35083(2) 0.76617(3)
O1 O 0.23784(17) 0.18684(16) 0.77801(18)
H1 H 0.2114 0.1292 0.7666
O2 O -0.09384(13) 0.35353(15) 0.85196(14)
O3 O 0.30210(12) 0.37454(14) 0.65372(16)
O4 O 0.33177(16) 0.51099(15) 0.73975(16)
N1 N 0.29853(15) 0.34401(16) 0.88928(19)
H2 H 0.3335 0.4001 0.8863
N2 N 0.07912(15) 0.36075(16) 0.86405(17)
C1 C 0.3201(2) 0.1719(2) 0.8510(3)
H3 H 0.3662 0.1251 0.8203
H4 H 0.2962 0.1485 0.9216
C2 C 0.3719(2) 0.2676(2) 0.8649(3)
H5 H 0.4202 0.2634 0.9246
H6 H 0.4081 0.2835 0.7979
C3 C 0.2599(2) 0.3366(2) 1.0043(2)
H7 H 0.3146 0.3482 1.0554
H8 H 0.2354 0.2719 1.0168
C4 C 0.17638(19) 0.4069(2) 1.0271(2)
H9 H 0.1714 0.4175 1.1060
H10 H 0.1923 0.4679 0.9926
C5 C 0.07692(19) 0.3715(2) 0.9843(2)
H11 H 0.0613 0.3101 1.0180
H12 H 0.0245 0.4166 1.0046
C6 C -0.00536(18) 0.35532(19) 0.8125(2)
C7 C 0.34767(17) 0.4535(2) 0.6638(2)
C8 C 0.42675(17) 0.47713(17) 0.5783(2)
C9 C 0.48814(18) 0.5571(2) 0.5915(2)
H13 H 0.4803 0.5961 0.6531
C10 C 0.43955(18) 0.42090(19) 0.4857(2)
H14 H 0.3988 0.3674 0.4753
Cu1B Cu -0.19664(2) 0.35083(2) 0.73383(3)
Cu1D Cu 0.80336(2) 0.64917(2) 0.23383(3)
O1B O -0.23784(17) 0.18684(16) 0.72199(18)
H1B H -0.2114 0.1292 0.7334
O2B O 0.09384(13) 0.35353(15) 0.64804(14)
O3D O 0.69790(12) 0.62546(14) 0.34628(16)
O3B O -0.30210(12) 0.37454(14) 0.84628(16)
O4D O 0.66823(16) 0.48901(15) 0.26025(16)
N1B N -0.29853(15) 0.34401(16) 0.61072(19)
H2B H -0.3335 0.4001 0.6137
N2B N -0.07912(15) 0.36075(16) 0.63595(17)
C1B C -0.3201(2) 0.1719(2) 0.6490(3)
H3B H -0.3662 0.1251 0.6797
H4B H -0.2962 0.1485 0.5784
C2B C -0.3719(2) 0.2676(2) 0.6351(3)
H5B H -0.4202 0.2634 0.5754
H6B H -0.4081 0.2835 0.7021
C3B C -0.2599(2) 0.3366(2) 0.4957(2)
H7B H -0.3146 0.3482 0.4446
H8B H -0.2354 0.2719 0.4832
C4B C -0.17638(19) 0.4069(2) 0.4729(2)
H9B H -0.1714 0.4175 0.3940
H10B H -0.1923 0.4679 0.5074
C5B C -0.07692(19) 0.3715(2) 0.5157(2)
H11B H -0.0613 0.3101 0.4820
H12B H -0.0245 0.4166 0.4954
C6B C 0.00536(18) 0.35532(19) 0.6875(2)
C7D C 0.65233(17) 0.5465(2) 0.3362(2)
C8D C 0.57325(17) 0.52287(17) 0.4217(2)
C9D C 0.51186(18) 0.4429(2) 0.4085(2)
H13D H 0.5197 0.4039 0.3469
C10D C 0.56045(18) 0.57910(19) 0.5143(2)
H14D H 0.6012 0.6326 0.5247
loop_
_geom_bond_atom_site_label_1
_geom_bond_atom_site_label_2
_geom_bond_site_symmetry_1
_geom_bond_site_symmetry_2
Cu1 O1 1_555 1_555
O1 H1 1_555 1_555
O2 C6 1_555 1_555
O3 Cu1 1_555 1_555
O4 C7 1_555 1_555
N1 Cu1 1_555 1_555
H2 N1 1_555 1_555
N2 Cu1 1_555 1_555
C1 O1 1_555 1_555
H3 C1 1_555 1_555
H4 C1 1_555 1_555
C2 N1 1_555 1_555
H5 C2 1_555 1_555
H6 C2 1_555 1_555
C3 N1 1_555 1_555
H7 C3 1_555 1_555
H8 C3 1_555 1_555
C4 C3 1_555 1_555
H9 C4 1_555 1_555
H10 C4 1_555 1_555
C5 N2 1_555 1_555
H11 C5 1_555 1_555
H12 C5 1_555 1_555
C6 N2 1_555 1_555
C7 O3 1_555 1_555
C8 C7 1_555 1_555
C9 C8 1_555 1_555
H13 C9 1_555 1_555
C10 C8 1_555 1_555
H14 C10 1_555 1_555
Cu1B O2 1_555 1_555
Cu1D O3D 1_555 1_555
O1B Cu1B 1_555 1_555
H1B O1B 1_555 1_555
O2B Cu1 1_555 1_555
O3D C7D 1_555 1_555
O3B Cu1B 1_555 1_555
O4D C7D 1_555 1_555
N1B Cu1B 1_555 1_555
H2B N1B 1_555 1_555
N2B Cu1B 1_555 1_555
C1B O1B 1_555 1_555
H3B C1B 1_555 1_555
H4B C1B 1_555 1_555
C2B N1B 1_555 1_555
H5B C2B 1_555 1_555
H6B C2B 1_555 1_555
C3B N1B 1_555 1_555
H7B C3B 1_555 1_555
H8B C3B 1_555 1_555
C4B C3B 1_555 1_555
H9B C4B 1_555 1_555
H10B C4B 1_555 1_555
C5B N2B 1_555 1_555
H11B C5B 1_555 1_555
H12B C5B 1_555 1_555
C6B C6 1_555 1_555
C7D C8D 1_555 1_555
C8D C9D 1_555 1_555
C9D C10 1_555 1_555
H13D C9D 1_555 1_555
C10D C9 1_555 1_555
H14D C10D 1_555 1_555
C1 C2 1_555 1_555
C4 C5 1_555 1_555
O2B C6B 1_555 1_555
N2B C6B 1_555 1_555
C1B C2B 1_555 1_555
C4B C5B 1_555 1_555
C8D C10D 1_555 1_555

#END
