
#######################################################################
#
#                 Cambridge Crystallographic Data Centre
#                                CCDC 
#
#######################################################################
#
# If this CIF has been generated from an entry in the Cambridge 
# Structural Database, then it will include bibliographic, chemical, 
# crystal, experimental, refinement or atomic coordinate data resulting 
# from the CCDC's data processing and validation procedures.
#
#######################################################################

data_YEGROT
_symmetry_cell_setting           monoclinic
_symmetry_space_group_name_H-M   'P 21/c'
_symmetry_Int_Tables_number      14
_space_group_name_Hall           '-P 2ybc'
loop_
_symmetry_equiv_pos_site_id
_symmetry_equiv_pos_as_xyz
1 x,y,z
2 -x,1/2+y,1/2-z
3 -x,-y,-z
4 x,1/2-y,1/2+z
_cell_length_a                   15.511(3)
_cell_length_b                   10.279(2)
_cell_length_c                   15.780(3)
_cell_angle_alpha                90
_cell_angle_beta                 115.95(3)
_cell_angle_gamma                90
_cell_volume                     2262.26
loop_
_atom_site_label
_atom_site_type_symbol
_atom_site_fract_x
_atom_site_fract_y
_atom_site_fract_z
Zn1 Zn 0.25631(3) 0.59299(5) 0.23574(4)
N1 N 0.4695(2) 0.4645(3) 0.2880(3)
N2 N 0.5494(2) 0.5880(3) 0.4171(3)
N3 N 0.4052(2) 0.5478(3) 0.2975(3)
N4 N 0.3102(2) 0.7087(3) 0.3529(2)
N5 N 0.1323(2) 0.6874(3) 0.2301(2)
N6 N 0.0348(2) 0.6851(3) 0.1793(3)
N7 N 0.0721(2) 0.8196(3) 0.3034(3)
N8 N -0.2237(2) 0.9268(3) 0.2007(3)
N9 N 0.7296(2) 0.2512(3) 0.3460(3)
C1 C 0.2506(3) 0.7869(4) 0.3702(3)
C2 C 0.2865(3) 0.8722(4) 0.4460(3)
H1 H 0.2455 0.9270 0.4581
C3 C 0.3848(3) 0.8745(5) 0.5036(4)
H2 H 0.4099 0.9306 0.5550
C4 C 0.4452(3) 0.7933(5) 0.4844(3)
H3 H 0.5110 0.7943 0.5221
C5 C 0.4050(3) 0.7097(4) 0.4073(3)
C6 C 0.4557(3) 0.6167(4) 0.3750(3)
C7 C 0.5538(3) 0.4918(4) 0.3604(3)
C8 C 0.1506(3) 0.7678(4) 0.3015(3)
C9 C 0.0022(3) 0.7646(4) 0.2261(3)
C10 C 0.6439(3) 0.4217(4) 0.3810(3)
C11 C 0.7279(3) 0.4576(5) 0.4595(4)
H4 H 0.7276 0.5262 0.4978
C12 C 0.8112(3) 0.3895(5) 0.4793(4)
H5 H 0.8679 0.4115 0.5312
C13 C 0.6489(3) 0.3183(4) 0.3272(3)
H6 H 0.5932 0.2938 0.2751
C14 C 0.8093(3) 0.2879(5) 0.4207(3)
H7 H 0.8660 0.2434 0.4340
C15 C -0.2890(3) 0.8392(5) 0.1494(4)
H8 H -0.3531 0.8552 0.1339
C16 C -0.2647(4) 0.7255(6) 0.1182(5)
H9 H -0.3122 0.6670 0.0815
C17 C -0.1698(3) 0.6992(5) 0.1417(5)
H10 H -0.1525 0.6229 0.1214
C18 C -0.1011(3) 0.7875(4) 0.1955(3)
C19 C -0.1317(3) 0.8989(4) 0.2223(3)
H11 H -0.0854 0.9594 0.2579
O2 O 0.2074(2) 0.4800(3) 0.1166(2)
H15 H 0.2542 0.4372 0.1165
H16 H 0.1664 0.4765 0.0600
Zn1A Zn -0.25631(3) 1.09299(5) 0.26426(4)
Zn1A_2 Zn 0.74369(3) 0.09299(5) 0.26426(4)
N8A N 0.2237(2) 0.4268(3) 0.2993(3)
N9A N 0.2704(2) 0.7512(3) 0.1540(3)
N10 N 0.0419(11) 0.0050(13) 0.1348(11)
C20 C 0.1041(10) 0.1976(10) 0.0636(10)
H12 H 0.1720 0.2107 0.0973
H13 H 0.0713 0.2763 0.0648
H14 H 0.0881 0.1746 -0.0005
C21 C 0.0744(11) 0.0912(10) 0.1088(10)
O1 O 0.3597(3) 0.3430(4) 0.1153(3)
H19 H 0.353(5) 0.297(4) 0.158(3)
H20 H 0.370(4) 0.290(4) 0.079(3)
O3 O 0.0627(2) 0.5325(4) 0.9495(2)
H17 H 0.0326 0.4711 0.9328
H18 H 0.0699 0.5817 0.9142
loop_
_geom_bond_atom_site_label_1
_geom_bond_atom_site_label_2
_geom_bond_site_symmetry_1
_geom_bond_site_symmetry_2
Zn1 N3 1_555 1_555
N1 N3 1_555 1_555
N2 C6 1_555 1_555
N3 C6 1_555 1_555
N4 Zn1 1_555 1_555
N5 Zn1 1_555 1_555
N6 N5 1_555 1_555
N7 C8 1_555 1_555
N8 C15 1_555 1_555
N9 C13 1_555 1_555
N10 C21 1_555 1_555
C1 N4 1_555 1_555
C2 C1 1_555 1_555
H1 C2 1_555 1_555
C3 C2 1_555 1_555
H2 C3 1_555 1_555
C4 C3 1_555 1_555
H3 C4 1_555 1_555
C5 N4 1_555 1_555
C6 C5 1_555 1_555
C7 N1 1_555 1_555
C8 N5 1_555 1_555
C9 N6 1_555 1_555
C10 C7 1_555 1_555
C11 C10 1_555 1_555
H4 C11 1_555 1_555
C12 C11 1_555 1_555
H5 C12 1_555 1_555
C13 C10 1_555 1_555
H6 C13 1_555 1_555
C14 N9 1_555 1_555
H7 C14 1_555 1_555
C15 H8 1_555 1_555
C16 C15 1_555 1_555
H9 C16 1_555 1_555
C17 C16 1_555 1_555
H10 C17 1_555 1_555
C18 C9 1_555 1_555
C19 N8 1_555 1_555
H11 C19 1_555 1_555
C20 H12 1_555 1_555
H13 C20 1_555 1_555
H14 C20 1_555 1_555
C21 C20 1_555 1_555
O1 H19 1_555 1_555
O2 Zn1 1_555 1_555
H15 O2 1_555 1_555
H16 O2 1_555 1_555
O3 H17 1_555 1_555
H18 O3 1_555 1_555
H20 O1 1_555 1_555
Zn1A N8 1_555 1_555
Zn1A_2 N9 1_555 1_555
N8A Zn1 1_555 1_555
N9A Zn1 1_555 1_555
N2 C7 1_555 1_555
N7 C9 1_555 1_555
C1 C8 1_555 1_555
C4 C5 1_555 1_555
C12 C14 1_555 1_555
C17 C18 1_555 1_555
C18 C19 1_555 1_555

#END
