
#######################################################################
#
#                 Cambridge Crystallographic Data Centre
#                                CCDC 
#
#######################################################################
#
# If this CIF has been generated from an entry in the Cambridge 
# Structural Database, then it will include bibliographic, chemical, 
# crystal, experimental, refinement or atomic coordinate data resulting 
# from the CCDC's data processing and validation procedures.
#
#######################################################################

data_YEGREH
_symmetry_cell_setting           monoclinic
_symmetry_space_group_name_H-M   'C 2/m'
_symmetry_Int_Tables_number      12
_space_group_name_Hall           '-C 2y'
loop_
_symmetry_equiv_pos_site_id
_symmetry_equiv_pos_as_xyz
1 x,y,z
2 1/2+x,1/2+y,z
3 -x,y,-z
4 1/2-x,1/2+y,-z
5 -x,-y,-z
6 1/2-x,1/2-y,-z
7 x,-y,z
8 1/2+x,1/2-y,z
_cell_length_a                   11.940(7)
_cell_length_b                   19.401(11)
_cell_length_c                   7.618(7)
_cell_angle_alpha                90
_cell_angle_beta                 108.55(5)
_cell_angle_gamma                90
_cell_volume                     1673.01
loop_
_atom_site_label
_atom_site_type_symbol
_atom_site_fract_x
_atom_site_fract_y
_atom_site_fract_z
Cd1 Cd 0.00000 0.00000 0.00000
Ag2 Ag 0.31999(6) 0.00000 0.69521(9)
C2 C 0.4608(7) 0.00000 0.9346(11)
C3 C 0.1854(8) 0.00000 0.4484(12)
N2 N 0.1192(7) 0.00000 0.3065(9)
N3 N 0.1192(4) 0.0877(3) -0.0689(7)
C4 C 0.2324(6) 0.0977(4) 0.0362(10)
C5 C 0.3063(6) 0.1467(4) -0.0107(10)
C6 C 0.2608(6) 0.1879(4) -0.1697(10)
C7 C 0.1419(7) 0.1784(4) -0.2744(10)
C8 C 0.0761(6) 0.1279(4) -0.2186(9)
C9 C 0.3386(7) 0.2412(4) -0.2236(11)
H1 H 0.26773 0.06785 0.16251
H2 H 0.39735 0.15245 0.07413
H3 H 0.10229 0.20898 -0.39757
H4 H -0.01527 0.12141 -0.30059
H5 H 0.28779 0.26774 -0.34910
H6 H 0.41247 0.21504 -0.24623
H7 H 0.36995 0.27944 -0.11423
C2B C 0.5392(7) 0.00000 1.0654(11)
C3B C -0.1854(8) 0.00000 -0.4484(12)
N2B N -0.1192(7) 0.00000 -0.3065(9)
N3B N -0.1192(4) 0.0877(3) 0.0689(7)
C4B C -0.2324(6) 0.0977(4) -0.0362(10)
C5B C -0.3063(6) 0.1467(4) 0.0107(10)
C6B C -0.2608(6) 0.1879(4) 0.1697(10)
C7B C -0.1419(7) 0.1784(4) 0.2744(10)
C8B C -0.0761(6) 0.1279(4) 0.2186(9)
C9B C -0.3386(7) 0.2412(4) 0.2236(11)
H1B H -0.26773 0.06785 -0.16251
H2B H -0.39735 0.15245 -0.07413
H3B H -0.10229 0.20898 0.39757
H4B H 0.01527 0.12141 0.30059
H5B H -0.28779 0.26774 0.34910
H6B H -0.41247 0.21504 0.24623
H7B H -0.36995 0.27944 0.11423
N3D N -0.1192(4) -0.0877(3) 0.0689(7)
C4D C -0.2324(6) -0.0977(4) -0.0362(10)
C5D C -0.3063(6) -0.1467(4) 0.0107(10)
C6D C -0.2608(6) -0.1879(4) 0.1697(10)
C7D C -0.1419(7) -0.1784(4) 0.2744(10)
C8D C -0.0761(6) -0.1279(4) 0.2186(9)
C9D C -0.3386(7) -0.2412(4) 0.2236(11)
H1D H -0.26773 -0.06785 -0.16251
H2D H -0.39735 -0.15245 -0.07413
H3D H -0.10229 -0.20898 0.39757
H4D H 0.01527 -0.12141 0.30059
H5D H -0.28779 -0.26774 0.34910
H6D H -0.41247 -0.21504 0.24623
H7D H -0.36995 -0.27944 0.11423
N3F N 0.1192(4) -0.0877(3) -0.0689(7)
C4F C 0.2324(6) -0.0977(4) 0.0362(10)
C5F C 0.3063(6) -0.1467(4) -0.0107(10)
C6F C 0.2608(6) -0.1879(4) -0.1697(10)
C7F C 0.1419(7) -0.1784(4) -0.2744(10)
C8F C 0.0761(6) -0.1279(4) -0.2186(9)
C9F C 0.3386(7) -0.2412(4) -0.2236(11)
H1F H 0.26773 -0.06785 0.16251
H2F H 0.39735 -0.15245 0.07413
H3F H 0.10229 -0.20898 -0.39757
H4F H -0.01527 -0.12141 -0.30059
H5F H 0.28779 -0.26774 -0.34910
H6F H 0.41247 -0.21504 -0.24623
H7F H 0.36995 -0.27944 -0.11423
Ag2B Ag -0.31999(6) 0.00000 -0.69521(9)
Ag2B_2 Ag 0.68001(6) 0.00000 1.30479(9)
C2B_2 C -0.4608(7) 0.00000 -0.9346(11)
Ag1 Ag 0.50000 0.00000 0.50000
C1 C 0.50000 0.1076(6) 0.50000
N1 N 0.50000 0.1664(6) 0.50000
C1D C 0.50000 -0.1076(6) 0.50000
N1D N 0.50000 -0.1664(6) 0.50000
loop_
_geom_bond_atom_site_label_1
_geom_bond_atom_site_label_2
_geom_bond_site_symmetry_1
_geom_bond_site_symmetry_2
Ag1 C1 1_555 1_555
C1 N1 1_555 1_555
Cd1 N2 1_555 1_555
Ag2 C2 1_555 1_555
C2 C2B 1_555 1_555
C3 Ag2 1_555 1_555
N2 C3 1_555 1_555
N3 Cd1 1_555 1_555
C4 N3 1_555 1_555
C5 C4 1_555 1_555
C6 C5 1_555 1_555
C7 C6 1_555 1_555
C8 N3 1_555 1_555
C9 C6 1_555 1_555
H1 C4 1_555 1_555
H2 C5 1_555 1_555
H3 C7 1_555 1_555
H4 C8 1_555 1_555
H5 C9 1_555 1_555
H6 C9 1_555 1_555
H7 C9 1_555 1_555
C1D Ag1 1_555 1_555
N1D C1D 1_555 1_555
C2B Ag2B_2 1_555 1_555
C3B N2B 1_555 1_555
N2B Cd1 1_555 1_555
N3B Cd1 1_555 1_555
C4B N3B 1_555 1_555
C5B C4B 1_555 1_555
C6B C5B 1_555 1_555
C7B C6B 1_555 1_555
C8B N3B 1_555 1_555
C9B C6B 1_555 1_555
H1B C4B 1_555 1_555
H2B C5B 1_555 1_555
H3B C7B 1_555 1_555
H4B C8B 1_555 1_555
H5B C9B 1_555 1_555
H6B C9B 1_555 1_555
H7B C9B 1_555 1_555
N3D Cd1 1_555 1_555
C4D N3D 1_555 1_555
C5D C4D 1_555 1_555
C6D C5D 1_555 1_555
C7D C6D 1_555 1_555
C8D N3D 1_555 1_555
C9D C6D 1_555 1_555
H1D C4D 1_555 1_555
H2D C5D 1_555 1_555
H3D C7D 1_555 1_555
H4D C8D 1_555 1_555
H5D C9D 1_555 1_555
H6D C9D 1_555 1_555
H7D C9D 1_555 1_555
N3F Cd1 1_555 1_555
C4F N3F 1_555 1_555
C5F C4F 1_555 1_555
C6F C5F 1_555 1_555
C7F C6F 1_555 1_555
C8F N3F 1_555 1_555
C9F C6F 1_555 1_555
H1F C4F 1_555 1_555
H2F C5F 1_555 1_555
H3F C7F 1_555 1_555
H4F C8F 1_555 1_555
H5F C9F 1_555 1_555
H6F C9F 1_555 1_555
H7F C9F 1_555 1_555
Ag2B C3B 1_555 1_555
C2B_2 Ag2B 1_555 1_555
C7 C8 1_555 1_555
C7B C8B 1_555 1_555
C7D C8D 1_555 1_555
C7F C8F 1_555 1_555

#END
