
#######################################################################
#
#                 Cambridge Crystallographic Data Centre
#                                CCDC 
#
#######################################################################
#
# If this CIF has been generated from an entry in the Cambridge 
# Structural Database, then it will include bibliographic, chemical, 
# crystal, experimental, refinement or atomic coordinate data resulting 
# from the CCDC's data processing and validation procedures.
#
#######################################################################

data_YEGSAE02
_symmetry_cell_setting           monoclinic
_symmetry_space_group_name_H-M   'P 21/n'
_symmetry_Int_Tables_number      14
_space_group_name_Hall           '-P 2yn'
loop_
_symmetry_equiv_pos_site_id
_symmetry_equiv_pos_as_xyz
1 x,y,z
2 1/2-x,1/2+y,1/2-z
3 -x,-y,-z
4 1/2+x,1/2-y,1/2+z
_cell_length_a                   9.988(6)
_cell_length_b                   11.249(7)
_cell_length_c                   10.425(6)
_cell_angle_alpha                90
_cell_angle_beta                 100.234(10)
_cell_angle_gamma                90
_cell_volume                     1152.67
loop_
_atom_site_label
_atom_site_type_symbol
_atom_site_fract_x
_atom_site_fract_y
_atom_site_fract_z
Cu1 Cu -0.44793(4) -0.51721(3) 0.71347(3)
O1 O -0.3807(2) -0.43628(19) 0.9002(2)
H1 H -0.3577 -0.4898 0.9575
H2 H -0.4401 -0.3907 0.9231
O2 O -0.6457(2) -0.52519(18) 0.7096(2)
H3 H -0.6764 -0.5945 0.6894
H4 H -0.6600 -0.5043 0.7843
N1 N -0.4663(2) -0.3574(2) 0.6293(2)
N2 N -0.2705(3) -0.5099(2) 0.6453(2)
O3 O -0.2250(2) -0.27008(19) 0.3495(2)
O4 O -0.2346(2) -0.08145(19) 0.4078(2)
O5 O -0.0972(2) -0.17651(17) 0.7225(2)
O6 O 0.0398(2) -0.2101(2) 0.5802(2)
C1 C -0.3563(3) -0.3200(2) 0.5821(3)
C2 C -0.3636(3) -0.2212(2) 0.5010(3)
C3 C -0.4833(3) -0.1550(3) 0.4834(3)
H5 H -0.4901 -0.0863 0.4331
C4 C -0.5901(3) -0.1898(3) 0.5389(3)
H6 H -0.6685 -0.1437 0.5299
C5 C -0.5808(3) -0.2932(3) 0.6077(3)
H7 H -0.6561 -0.3200 0.6406
C6 C -0.2626(3) -0.1888(3) 0.4146(3)
C7 C -0.2367(3) -0.3972(2) 0.6195(3)
C8 C -0.1010(3) -0.3642(3) 0.6308(3)
C9 C -0.0040(3) -0.4544(3) 0.6462(3)
H8 H 0.0871 -0.4359 0.6483
C10 C -0.0423(3) -0.5707(3) 0.6582(3)
H9 H 0.0209 -0.6319 0.6631
C11 C -0.1751(3) -0.5941(3) 0.6627(3)
H10 H -0.2002 -0.6716 0.6784
C12 C -0.0490(3) -0.2381(3) 0.6412(3)
Cu1A Cu -0.05207(4) -0.01721(3) 0.78653(3)
O5A O -0.4028(2) -0.67651(17) 0.7775(2)
loop_
_geom_bond_atom_site_label_1
_geom_bond_atom_site_label_2
_geom_bond_site_symmetry_1
_geom_bond_site_symmetry_2
Cu1 O1 1_555 1_555
O1 H1 1_555 1_555
H2 O1 1_555 1_555
O2 Cu1 1_555 1_555
H3 O2 1_555 1_555
H4 O2 1_555 1_555
N1 Cu1 1_555 1_555
N2 Cu1 1_555 1_555
O3 C6 1_555 1_555
O4 C6 1_555 1_555
O5 C12 1_555 1_555
O6 C12 1_555 1_555
C1 N1 1_555 1_555
C2 C1 1_555 1_555
C3 C2 1_555 1_555
H5 C3 1_555 1_555
C4 C3 1_555 1_555
H6 C4 1_555 1_555
C5 N1 1_555 1_555
H7 C5 1_555 1_555
C6 C2 1_555 1_555
C7 N2 1_555 1_555
C8 C7 1_555 1_555
C9 C8 1_555 1_555
H8 C9 1_555 1_555
C10 C9 1_555 1_555
H9 C10 1_555 1_555
C11 N2 1_555 1_555
H10 C11 1_555 1_555
C12 C8 1_555 1_555
Cu1A O5 1_555 1_555
O5A Cu1 1_555 1_555
C1 C7 1_555 1_555
C4 C5 1_555 1_555
C10 C11 1_555 1_555

#END
