
#######################################################################
#
#                 Cambridge Crystallographic Data Centre
#                                CCDC 
#
#######################################################################
#
# If this CIF has been generated from an entry in the Cambridge 
# Structural Database, then it will include bibliographic, chemical, 
# crystal, experimental, refinement or atomic coordinate data resulting 
# from the CCDC's data processing and validation procedures.
#
#######################################################################

data_YEGTAH01
_symmetry_cell_setting           monoclinic
_symmetry_space_group_name_H-M   'P 21/c'
_symmetry_Int_Tables_number      14
_space_group_name_Hall           '-P 2ybc'
loop_
_symmetry_equiv_pos_site_id
_symmetry_equiv_pos_as_xyz
1 x,y,z
2 -x,1/2+y,1/2-z
3 -x,-y,-z
4 x,1/2-y,1/2+z
_cell_length_a                   15.714(6)
_cell_length_b                   8.741(3)
_cell_length_c                   24.502(7)
_cell_angle_alpha                90
_cell_angle_beta                 129.467(15)
_cell_angle_gamma                90
_cell_volume                     2598.13
loop_
_atom_site_label
_atom_site_type_symbol
_atom_site_fract_x
_atom_site_fract_y
_atom_site_fract_z
Pb1 Pb 0.38211(2) 0.51991(5) 0.319458(17)
O1 O 0.2565(4) 0.3750(6) 0.3221(3)
O2 O 0.4314(6) 0.2526(12) 0.3111(5)
O3 O 0.4073(7) 0.7133(15) 0.2436(4)
O4 O 0.2327(4) 0.4470(7) 0.2011(3)
O5 O 0.2250(4) 0.6916(6) 0.2651(3)
C1 C 0.2757(6) 0.3610(8) 0.3807(4)
C2 C 0.1777(5) 0.2921(8) 0.3722(3)
O6 O 0.3585(4) 0.4007(6) 0.4382(3)
C3 C 0.0875(6) 0.3997(8) 0.3441(3)
N1 N 0.1774(4) 0.1509(6) 0.3893(3)
C4 C 0.1070(7) 0.5550(8) 0.3409(4)
C5 C -0.0171(6) 0.3546(8) 0.3186(3)
Ni1 Ni 0.06968(6) 0.06154(10) 0.39045(4)
C6 C 0.2631(6) 0.0421(8) 0.4111(4)
H1 H 0.1764 0.5856 0.3573
C7 C 0.0261(7) 0.6614(9) 0.3143(4)
C8 C -0.0998(7) 0.4676(9) 0.2901(4)
N2 N -0.0377(4) 0.2040(6) 0.3271(3)
N3 N -0.0420(5) -0.0327(6) 0.3852(3)
N4 N 0.1760(4) -0.0830(6) 0.4523(3)
C9 C 0.2636(6) -0.0823(8) 0.4483(4)
C10 C 0.3307(6) 0.0423(9) 0.3942(4)
H2 H 0.0410 0.7638 0.3133
C11 C -0.0761(7) 0.6194(9) 0.2893(4)
H3 H -0.1706 0.4396 0.2718
C12 C -0.1373(5) 0.1448(8) 0.2910(3)
C13 C -0.0267(6) -0.1386(8) 0.4349(3)
C14 C -0.1411(6) 0.0038(8) 0.3258(4)
C15 C 0.1774(6) -0.1656(8) 0.4974(4)
C16 C 0.3369(6) -0.2029(8) 0.4678(4)
C17 C 0.4042(6) -0.0759(9) 0.4161(4)
H4 H 0.3273 0.1224 0.3679
H5 H -0.1306 0.6932 0.2715
C18 C -0.1133(6) -0.1823(9) 0.4334(4)
C19 C 0.0804(6) -0.1915(8) 0.4916(4)
C20 C 0.2872(8) -0.2379(11) 0.5631(5)
H6 H 0.3379 -0.2879 0.4910
C21 C 0.4065(6) -0.1961(10) 0.4528(4)
H7 H 0.4520 -0.0740 0.4058
H8 H -0.1834 -0.1441 0.3979
C22 C -0.0986(8) -0.2799(10) 0.4827(4)
C23 C 0.0924(7) -0.2897(9) 0.5420(4)
O7 O 0.3515(6) -0.1471(11) 0.6105(3)
O8 O 0.2972(7) -0.3786(8) 0.5634(4)
H9 H 0.4569 -0.2748 0.4679
H10 H -0.1588 -0.3096 0.4791
C24 C 0.0030(7) -0.3330(10) 0.5365(4)
H11 H 0.1621 -0.3257 0.5796
H12 H 0.0125 -0.3989 0.5698
O5A O -0.2250(4) 0.1916(6) 0.2349(3)
O4A O -0.2327(4) -0.0530(7) 0.2989(3)
Pb1A Pb -0.38211(2) 0.01991(5) 0.180542(17)
O9 O 0.3957(8) 0.3343(12) 0.1442(5)
H13 H 0.372(6) 0.273(3) 0.1105(15)
H14 H 0.417(4) 0.422(3) 0.142(3)
O10 O 0.3824(6) 0.1338(9) 0.0576(4)
H15 H 0.3272(12) 0.092(7) 0.0504(17)
H16 H 0.382(2) 0.136(13) 0.0229(10)
O11 O 0.3176(10) 0.0536(13) 0.2010(8)
H17 H 0.332(3) -0.0417(16) 0.207(5)
H18 H 0.355(3) 0.110(8) 0.195(4)
loop_
_geom_bond_atom_site_label_1
_geom_bond_atom_site_label_2
_geom_bond_site_symmetry_1
_geom_bond_site_symmetry_2
Pb1 O1 1_555 1_555
O1 C1 1_555 1_555
O2 Pb1 1_555 1_555
O3 Pb1 1_555 1_555
O4 Pb1 1_555 1_555
O5 Pb1 1_555 1_555
C1 C2 1_555 1_555
C2 C3 1_555 1_555
O6 C1 1_555 1_555
C3 C4 1_555 1_555
N1 C2 1_555 1_555
C4 H1 1_555 1_555
C5 C3 1_555 1_555
Ni1 N1 1_555 1_555
C6 N1 1_555 1_555
C7 C4 1_555 1_555
C8 C5 1_555 1_555
N2 C5 1_555 1_555
N3 Ni1 1_555 1_555
N4 Ni1 1_555 1_555
C9 C6 1_555 1_555
C10 C6 1_555 1_555
H2 C7 1_555 1_555
C11 C7 1_555 1_555
H3 C8 1_555 1_555
C12 N2 1_555 1_555
C13 N3 1_555 1_555
C14 N3 1_555 1_555
C15 N4 1_555 1_555
C16 C9 1_555 1_555
C17 C10 1_555 1_555
H4 C10 1_555 1_555
H5 C11 1_555 1_555
C18 C13 1_555 1_555
C19 C13 1_555 1_555
C20 C15 1_555 1_555
H6 C16 1_555 1_555
C21 C16 1_555 1_555
H7 C17 1_555 1_555
H8 C18 1_555 1_555
C22 C18 1_555 1_555
C23 C19 1_555 1_555
O7 C20 1_555 1_555
O8 C20 1_555 1_555
H9 C21 1_555 1_555
H10 C22 1_555 1_555
C24 C22 1_555 1_555
H11 C23 1_555 1_555
H12 C24 1_555 1_555
O9 H13 1_555 1_555
H14 O9 1_555 1_555
O10 H15 1_555 1_555
H16 O10 1_555 1_555
O11 H17 1_555 1_555
H18 O11 1_555 1_555
O5A C12 1_555 1_555
O4A C14 1_555 1_555
Pb1A O5A 1_555 1_555
Ni1 N2 1_555 1_555
C8 C11 1_555 1_555
N4 C9 1_555 1_555
C12 C14 1_555 1_555
C15 C19 1_555 1_555
C17 C21 1_555 1_555
C23 C24 1_555 1_555
O4A Pb1A 1_555 1_555

#END
