
#######################################################################
#
#                 Cambridge Crystallographic Data Centre
#                                CCDC 
#
#######################################################################
#
# If this CIF has been generated from an entry in the Cambridge 
# Structural Database, then it will include bibliographic, chemical, 
# crystal, experimental, refinement or atomic coordinate data resulting 
# from the CCDC's data processing and validation procedures.
#
#######################################################################

data_YEGTOV
_symmetry_cell_setting           monoclinic
_symmetry_space_group_name_H-M   'C 2/c'
_symmetry_Int_Tables_number      15
_space_group_name_Hall           '-C 2yn'
loop_
_symmetry_equiv_pos_site_id
_symmetry_equiv_pos_as_xyz
1 x,y,z
2 -x,y,1/2-z
3 1/2+x,1/2+y,z
4 1/2-x,1/2+y,1/2-z
5 -x,-y,-z
6 x,-y,1/2+z
7 1/2-x,1/2-y,-z
8 1/2+x,1/2-y,1/2+z
_cell_length_a                   24.811(6)
_cell_length_b                   9.403(2)
_cell_length_c                   18.272(5)
_cell_angle_alpha                90
_cell_angle_beta                 124.677(2)
_cell_angle_gamma                90
_cell_volume                     3505.62
loop_
_atom_site_label
_atom_site_type_symbol
_atom_site_fract_x
_atom_site_fract_y
_atom_site_fract_z
Zn1 Zn 0.150080(12) 0.76768(3) 0.193086(18)
O1 O 0.13082(8) 0.79957(17) 0.06496(11)
O2 O 0.17458(8) 0.91722(18) 0.00484(11)
O3 O 0.32169(8) 1.23935(17) 0.17019(12)
O4 O 0.25833(8) 1.10253(19) 0.05165(11)
N1 N 0.18676(8) 0.97798(19) 0.20802(12)
N2 N 0.26000(8) 1.15354(19) 0.24856(12)
N3 N 0.05385(9) 0.8133(2) 0.15826(13)
N4 N 0.09859(9) 0.5585(2) 0.14737(13)
C1 C 0.22530(10) 1.0758(2) 0.27038(14)
C2 C 0.19710(10) 0.9954(2) 0.14252(14)
C3 C 0.24206(10) 1.1027(2) 0.16749(14)
C4 C 0.16520(11) 0.8983(2) 0.06558(15)
C5 C 0.27592(11) 1.1531(2) 0.12780(16)
C6 C 0.22751(12) 1.0990(3) 0.35297(16)
H1 H 0.2721 1.1213 0.4017
H2 H 0.2150 1.0116 0.3679
C7 C 0.18244(15) 1.2183(3) 0.34327(19)
H3 H 0.1932 1.3042 0.3258
H4 H 0.1879 1.2332 0.3991
H5 H 0.1377 1.1930 0.2988
C8 C 0.03162(12) 0.9399(3) 0.16026(18)
H6 H 0.0587 1.0186 0.1748
C9 C -0.03098(13) 0.9605(3) 0.14137(19)
H7 H -0.0452 1.0513 0.1427
C10 C -0.07096(12) 0.8455(3) 0.12092(18)
H8 H -0.1122 0.8572 0.1098
C11 C -0.04944(12) 0.7104(3) 0.11681(17)
C12 C -0.08915(13) 0.5856(3) 0.09138(19)
H9 H -0.1303 0.5918 0.0811
C13 C -0.06827(13) 0.4597(3) 0.08201(19)
H10 H -0.0955 0.3807 0.0644
C14 C -0.00445(12) 0.4451(3) 0.09882(16)
C15 C 0.01873(13) 0.3179(3) 0.08572(17)
H11 H -0.0077 0.2373 0.0647
C16 C 0.08017(13) 0.3136(3) 0.10403(18)
H12 H 0.0961 0.2301 0.0955
C17 C 0.11894(12) 0.4359(3) 0.13572(17)
H13 H 0.1612 0.4310 0.1493
C18 C 0.03712(11) 0.5640(2) 0.12817(15)
C19 C 0.01401(11) 0.6996(3) 0.13600(15)
Zn1C Zn 0.349920(12) 1.26768(3) 0.306914(18)
O3C O 0.17831(8) 0.73935(17) 0.32981(12)
N2C N 0.24000(8) 0.65354(19) 0.25144(12)
loop_
_geom_bond_atom_site_label_1
_geom_bond_atom_site_label_2
_geom_bond_site_symmetry_1
_geom_bond_site_symmetry_2
Zn1 O1 1_555 1_555
O1 C4 1_555 1_555
O2 C4 1_555 1_555
O3 C5 1_555 1_555
O4 C5 1_555 1_555
N1 Zn1 1_555 1_555
N2 C1 1_555 1_555
N3 Zn1 1_555 1_555
N4 Zn1 1_555 1_555
C1 N1 1_555 1_555
C2 N1 1_555 1_555
C3 N2 1_555 1_555
C4 C2 1_555 1_555
C5 C3 1_555 1_555
C6 C1 1_555 1_555
H1 C6 1_555 1_555
H2 C6 1_555 1_555
C7 C6 1_555 1_555
H3 C7 1_555 1_555
H4 C7 1_555 1_555
H5 C7 1_555 1_555
C8 N3 1_555 1_555
H6 C8 1_555 1_555
C9 C8 1_555 1_555
H7 C9 1_555 1_555
C10 C9 1_555 1_555
H8 C10 1_555 1_555
C11 C10 1_555 1_555
C12 C11 1_555 1_555
H9 C12 1_555 1_555
C13 C12 1_555 1_555
H10 C13 1_555 1_555
C14 C13 1_555 1_555
C15 C14 1_555 1_555
H11 C15 1_555 1_555
C16 C15 1_555 1_555
H12 C16 1_555 1_555
C17 N4 1_555 1_555
H13 C17 1_555 1_555
C18 N4 1_555 1_555
C19 N3 1_555 1_555
Zn1C O3 1_555 1_555
O3C Zn1 1_555 1_555
N2C Zn1 1_555 1_555
N2 Zn1C 1_555 1_555
C2 C3 1_555 1_555
C11 C19 1_555 1_555
C14 C18 1_555 1_555
C16 C17 1_555 1_555
C18 C19 1_555 1_555

#END
