
#######################################################################
#
#                 Cambridge Crystallographic Data Centre
#                                CCDC 
#
#######################################################################
#
# If this CIF has been generated from an entry in the Cambridge 
# Structural Database, then it will include bibliographic, chemical, 
# crystal, experimental, refinement or atomic coordinate data resulting 
# from the CCDC's data processing and validation procedures.
#
#######################################################################

data_YEGVOX
_symmetry_cell_setting           monoclinic
_symmetry_space_group_name_H-M   'P 21/c'
_symmetry_Int_Tables_number      14
_space_group_name_Hall           '-P 2ybc'
loop_
_symmetry_equiv_pos_site_id
_symmetry_equiv_pos_as_xyz
1 x,y,z
2 -x,1/2+y,1/2-z
3 -x,-y,-z
4 x,1/2-y,1/2+z
_cell_length_a                   23.049(5)
_cell_length_b                   12.357(3)
_cell_length_c                   23.143(5)
_cell_angle_alpha                90
_cell_angle_beta                 116.60(3)
_cell_angle_gamma                90
_cell_volume                     5893.82
loop_
_atom_site_label
_atom_site_type_symbol
_atom_site_fract_x
_atom_site_fract_y
_atom_site_fract_z
C1 C 0.4679(2) 0.8268(4) 0.0426(2)
Zn1 Zn 0.33371(3) 0.95690(5) 0.40435(2)
Fe1 Fe 0.22938(4) 1.22068(7) 0.72711(4)
Fe2 Fe -0.05948(5) 0.57384(10) 0.11492(5)
Cl1 Cl 0.46886(7) 1.20830(13) 0.63968(7)
Cl2 Cl 0.20797(13) 0.59969(18) 0.40053(11)
O1 O 0.32007(17) 1.0492(3) 0.46406(17)
N1 N 0.55681(19) 1.0480(3) 0.18360(18)
O2 O 0.58099(19) 0.9483(3) 0.05284(18)
N2 N 0.38062(18) 1.0096(3) 0.35377(17)
O3 O 0.25628(17) 0.8904(3) 0.33661(17)
N3 N 0.39187(19) 0.6658(3) -0.03976(18)
C2 C 0.5842(2) 1.0435(4) 0.1434(2)
N4 N 0.50368(19) 0.9092(3) 0.08689(19)
N5 N 0.4928(2) 1.0677(3) 0.25632(19)
C3 C 0.5570(2) 0.9621(4) 0.0894(2)
O4 O 0.42575(19) 1.0748(4) 0.52159(19)
O5 O 0.5766(2) 1.1723(4) 0.32805(19)
C4 C 0.4379(2) 1.0597(4) 0.3832(2)
H1 H 0.4522 1.0800 0.4261
C5 C 0.5807(2) 1.1187(4) 0.2322(2)
O6 O 0.2284(2) 0.8388(4) 0.41299(19)
C6 C 0.5498(3) 1.1227(4) 0.2769(2)
C7 C 0.4868(2) 0.7762(4) 0.0002(2)
H2 H 0.5251 0.7956 -0.0013
C8 C 0.4568(2) 1.0521(4) 0.2903(2)
C9 C 0.3971(2) 1.0007(4) 0.2594(2)
H3 H 0.3817 0.9793 0.2165
C10 C 0.4769(2) 1.0831(4) 0.3544(2)
H4 H 0.5162 1.1190 0.3772
C11 C 0.4481(2) 0.6980(4) -0.0390(2)
H5 H 0.4611 0.6642 -0.0672
C12 C 0.3611(2) 0.9815(4) 0.2916(2)
H6 H 0.3212 0.9474 0.2696
C13 C 0.2230(3) 0.8343(5) 0.3580(3)
C14 C 0.3750(2) 0.7154(4) 0.0021(2)
H7 H 0.3365 0.6945 0.0028
C15 C 0.3574(2) 1.0916(4) 0.5734(2)
C16 C 0.3969(2) 1.1476(4) 0.6294(2)
C17 C 0.3810(2) 1.1601(4) 0.6801(2)
H8 H 0.4088 1.1981 0.7168
C18 C 0.6319(2) 1.1874(4) 0.2423(2)
H9 H 0.6477 1.2352 0.2770
C19 C 0.3237(3) 1.1162(4) 0.6768(2)
C20 C 0.3008(3) 1.0468(5) 0.5722(3)
H10 H 0.2731 1.0077 0.5359
C21 C 0.3062(3) 1.1330(4) 0.7298(3)
C22 C 0.2846(3) 1.0582(5) 0.6224(3)
H11 H 0.2468 1.0263 0.6195
C23 C 0.2619(3) 1.1124(6) 0.8011(3)
H12 H 0.2364 1.0844 0.8222
C24 C 0.3710(3) 1.0727(4) 0.5160(2)
C25 C 0.6593(3) 1.1835(4) 0.1995(3)
H13 H 0.6930 1.2296 0.2044
C26 C 0.1755(3) 0.7584(5) 0.3097(3)
C27 C 0.3006(3) 1.2061(6) 0.8200(3)
H14 H 0.3073 1.2535 0.8564
C28 C 0.3284(3) 1.2189(5) 0.7761(3)
H15 H 0.3572 1.2780 0.7770
C29 C 0.6350(2) 1.1091(4) 0.1496(3)
H16 H 0.6526 1.1036 0.1207
C30 C 0.2634(3) 1.0667(5) 0.7452(3)
H17 H 0.2404 1.0015 0.7221
C31 C 0.0185(4) 0.5462(9) 0.0998(4)
H18 H 0.0351 0.5940 0.0768
C32 C 0.1632(3) 0.6547(6) 0.3244(3)
C33 C 0.1746(3) 1.2749(6) 0.6359(3)
H19 H 0.1826 1.2594 0.5985
C34 C 0.0024(5) 0.4604(7) 0.1758(5)
H20 H 0.0052 0.4421 0.2182
C35 C -0.0287(5) 0.4629(10) 0.0715(5)
H21 H -0.0504 0.4453 0.0253
C36 C 0.1368(3) 1.2115(7) 0.6562(4)
H22 H 0.1129 1.1455 0.6355
C37 C 0.1411(3) 0.7908(7) 0.2466(3)
H23 H 0.1479 0.8599 0.2349
C38 C 0.0958(4) 0.7226(8) 0.1991(4)
H24 H 0.0732 0.7472 0.1568
C39 C 0.0366(4) 0.5473(7) 0.1648(4)
C40 C 0.0847(3) 0.6198(6) 0.2147(4)
C41 C 0.1206(4) 0.5870(6) 0.2777(4)
H25 H 0.1159 0.5165 0.2890
C42 C 0.1996(4) 1.3636(6) 0.6775(4)
H26 H 0.2280 1.4200 0.6744
C43 C 0.1377(4) 1.2631(8) 0.7105(5)
H27 H 0.1153 1.2379 0.7353
C44 C 0.1769(4) 1.3578(7) 0.7239(4)
H28 H 0.1863 1.4090 0.7593
C45 C -0.0404(5) 0.4129(8) 0.1186(6)
H29 H -0.0704 0.3530 0.1129
C49 C 0.4113(2) 0.7950(4) 0.0438(2)
H36 H 0.3980 0.8267 0.0723
C56 C -0.1556(5) 0.5950(12) 0.0910(8)
H49 H -0.1880 0.5377 0.0819
C57 C -0.0768(7) 0.7188(12) 0.1484(10)
H50 H -0.0469 0.7648 0.1838
C58 C -0.0912(6) 0.7184(10) 0.0783(9)
H51 H -0.0715 0.7659 0.0581
C59 C -0.1394(5) 0.6441(10) 0.0469(8)
H52 H -0.1588 0.6280 0.0006
C60 C -0.1162(7) 0.6368(13) 0.1496(9)
H53 H -0.1164 0.6112 0.1897
Zn1C Zn 0.33371(3) 0.54310(5) -0.09565(2)
N3C N 0.39187(19) 0.8342(3) 0.46024(18)
O7 O 0.39970(19) 0.0140(3) 0.11906(18)
N6 N 0.3192(2) 0.1078(4) 0.0395(2)
C46 C 0.3771(3) 0.0597(5) 0.0664(3)
C47 C 0.2963(3) 0.1590(6) -0.0232(3)
H30 H 0.3276 0.1488 -0.0395
H31 H 0.2902 0.2350 -0.0192
H32 H 0.2557 0.1271 -0.0526
C48 C 0.2794(4) 0.1179(7) 0.0731(4)
H33 H 0.3002 0.0817 0.1141
H34 H 0.2378 0.0855 0.0476
H35 H 0.2738 0.1930 0.0799
N7 N 0.9616(5) 0.4173(10) 0.5458(6)
O9 O 0.9653(5) 0.3256(9) 0.4643(6)
C53 C 0.9860(6) 0.3439(13) 0.5182(10)
C54 C 0.9043(6) 0.4821(11) 0.5072(8)
H43 H 0.8878 0.4623 0.4625
H44 H 0.9158 0.5574 0.5122
H45 H 0.8717 0.4694 0.5215
C55 C 0.9900(9) 0.4434(17) 0.6089(11)
H46 H 1.0270 0.3978 0.6316
H47 H 0.9595 0.4335 0.6263
H48 H 1.0036 0.5177 0.6139
O8 O 0.2528(3) 0.8772(6) 0.1654(3)
C50 C 0.2128(4) 0.8148(10) 0.1307(5)
N8 N 0.2159(3) 0.7617(5) 0.0834(3)
C51 C 0.2718(5) 0.7804(10) 0.0725(5)
H37 H 0.3023 0.8249 0.1066
H38 H 0.2587 0.8163 0.0318
H39 H 0.2917 0.7124 0.0720
C52 C 0.1715(5) 0.6939(9) 0.0364(7)
H40 H 0.1341 0.6850 0.0440
H41 H 0.1911 0.6247 0.0383
H42 H 0.1585 0.7253 -0.0055
loop_
_geom_bond_atom_site_label_1
_geom_bond_atom_site_label_2
_geom_bond_site_symmetry_1
_geom_bond_site_symmetry_2
C1 N4 1_555 1_555
Zn1 O1 1_555 1_555
Fe1 C21 1_555 1_555
Fe2 C31 1_555 1_555
Cl1 C16 1_555 1_555
Cl2 C32 1_555 1_555
O1 C24 1_555 1_555
N1 C2 1_555 1_555
O2 C3 1_555 1_555
N2 Zn1 1_555 1_555
O3 Zn1 1_555 1_555
N3 C11 1_555 1_555
C2 C3 1_555 1_555
N4 C3 1_555 1_555
N5 C6 1_555 1_555
O4 C24 1_555 1_555
O5 C6 1_555 1_555
C4 N2 1_555 1_555
H1 C4 1_555 1_555
C5 N1 1_555 1_555
O6 C13 1_555 1_555
C6 C5 1_555 1_555
C7 C1 1_555 1_555
H2 C7 1_555 1_555
C8 N5 1_555 1_555
C9 C8 1_555 1_555
H3 C9 1_555 1_555
C10 C4 1_555 1_555
H4 C10 1_555 1_555
C11 C7 1_555 1_555
H5 C11 1_555 1_555
C12 N2 1_555 1_555
H6 C12 1_555 1_555
C13 O3 1_555 1_555
C14 N3 1_555 1_555
H7 C14 1_555 1_555
C15 C16 1_555 1_555
C16 C17 1_555 1_555
C17 H8 1_555 1_555
C18 C5 1_555 1_555
H9 C18 1_555 1_555
C19 C17 1_555 1_555
C20 C15 1_555 1_555
H10 C20 1_555 1_555
C21 C19 1_555 1_555
C22 C19 1_555 1_555
H11 C22 1_555 1_555
C23 Fe1 1_555 1_555
H12 C23 1_555 1_555
C24 C15 1_555 1_555
C25 C18 1_555 1_555
H13 C25 1_555 1_555
C26 C13 1_555 1_555
C27 Fe1 1_555 1_555
H14 C27 1_555 1_555
C28 Fe1 1_555 1_555
H15 C28 1_555 1_555
C29 C2 1_555 1_555
H16 C29 1_555 1_555
C30 Fe1 1_555 1_555
H17 C30 1_555 1_555
C31 H18 1_555 1_555
C32 C26 1_555 1_555
C33 Fe1 1_555 1_555
H19 C33 1_555 1_555
C34 Fe2 1_555 1_555
H20 C34 1_555 1_555
C35 Fe2 1_555 1_555
H21 C35 1_555 1_555
C36 Fe1 1_555 1_555
H22 C36 1_555 1_555
C37 C26 1_555 1_555
H23 C37 1_555 1_555
C38 C37 1_555 1_555
H24 C38 1_555 1_555
C39 Fe2 1_555 1_555
C40 C38 1_555 1_555
C41 C32 1_555 1_555
H25 C41 1_555 1_555
C42 Fe1 1_555 1_555
H26 C42 1_555 1_555
C43 Fe1 1_555 1_555
H27 C43 1_555 1_555
C44 Fe1 1_555 1_555
H28 C44 1_555 1_555
C45 Fe2 1_555 1_555
H29 C45 1_555 1_555
O7 C46 1_555 1_555
N6 C46 1_555 1_555
C47 N6 1_555 1_555
H30 C47 1_555 1_555
H31 C47 1_555 1_555
H32 C47 1_555 1_555
C48 N6 1_555 1_555
H33 C48 1_555 1_555
H34 C48 1_555 1_555
H35 C48 1_555 1_555
C49 C1 1_555 1_555
H36 C49 1_555 1_555
N7 C53 1_555 1_555
O8 C50 1_555 1_555
C50 N8 1_555 1_555
N8 C51 1_555 1_555
O9 C53 1_555 1_555
C51 H37 1_555 1_555
H38 C51 1_555 1_555
H39 C51 1_555 1_555
C52 N8 1_555 1_555
H40 C52 1_555 1_555
H41 C52 1_555 1_555
H42 C52 1_555 1_555
C54 N7 1_555 1_555
H43 C54 1_555 1_555
H44 C54 1_555 1_555
H45 C54 1_555 1_555
C55 N7 1_555 1_555
H46 C55 1_555 1_555
H47 C55 1_555 1_555
H48 C55 1_555 1_555
C56 Fe2 1_555 1_555
H49 C56 1_555 1_555
C57 Fe2 1_555 1_555
H50 C57 1_555 1_555
C58 Fe2 1_555 1_555
H51 C58 1_555 1_555
C59 Fe2 1_555 1_555
H52 C59 1_555 1_555
C60 Fe2 1_555 1_555
H53 C60 1_555 1_555
Zn1C N3 1_555 1_555
N3C Zn1 1_555 1_555
C8 C10 1_555 1_555
C9 C12 1_555 1_555
C14 C49 1_555 1_555
C20 C22 1_555 1_555
C21 C28 1_555 1_555
C21 C30 1_555 1_555
C23 C27 1_555 1_555
C23 C30 1_555 1_555
C25 C29 1_555 1_555
C27 C28 1_555 1_555
C31 C35 1_555 1_555
C31 C39 1_555 1_555
C33 C36 1_555 1_555
C33 C42 1_555 1_555
C34 C39 1_555 1_555
C34 C45 1_555 1_555
C35 C45 1_555 1_555
C36 C43 1_555 1_555
C39 C40 1_555 1_555
C40 C41 1_555 1_555
C42 C44 1_555 1_555
C43 C44 1_555 1_555
C56 C59 1_555 1_555
C56 C60 1_555 1_555
C57 C58 1_555 1_555
C57 C60 1_555 1_555
C58 C59 1_555 1_555

#END
