
#######################################################################
#
#                 Cambridge Crystallographic Data Centre
#                                CCDC 
#
#######################################################################
#
# If this CIF has been generated from an entry in the Cambridge 
# Structural Database, then it will include bibliographic, chemical, 
# crystal, experimental, refinement or atomic coordinate data resulting 
# from the CCDC's data processing and validation procedures.
#
#######################################################################

data_YEGWUE
_symmetry_cell_setting           monoclinic
_symmetry_space_group_name_H-M   'C 2/c'
_symmetry_Int_Tables_number      15
_space_group_name_Hall           '-C 2yn'
loop_
_symmetry_equiv_pos_site_id
_symmetry_equiv_pos_as_xyz
1 x,y,z
2 -x,y,1/2-z
3 1/2+x,1/2+y,z
4 1/2-x,1/2+y,1/2-z
5 -x,-y,-z
6 x,-y,1/2+z
7 1/2-x,1/2-y,-z
8 1/2+x,1/2-y,1/2+z
_cell_length_a                   19.0900(18)
_cell_length_b                   9.4014(5)
_cell_length_c                   12.3839(11)
_cell_angle_alpha                90
_cell_angle_beta                 121.513(12)
_cell_angle_gamma                90
_cell_volume                     1894.79
loop_
_atom_site_label
_atom_site_type_symbol
_atom_site_fract_x
_atom_site_fract_y
_atom_site_fract_z
Co1 Co 0.2500 0.2500 0.5000
C1 C 0.31455(18) 0.5412(3) 0.5493(3)
C2 C 0.27501(18) 0.5776(3) 0.6177(3)
C3 C 0.30148(19) 0.6961(4) 0.6936(3)
H1 H 0.2775 0.7184 0.7402
C4 C 0.3636(2) 0.7848(4) 0.7031(3)
H2 H 0.3820 0.8628 0.7572
C5 C 0.39586(19) 0.7537(3) 0.6315(3)
H3 H 0.4351 0.8140 0.6334
C6 C 0.40920(19) 0.6097(3) 0.4792(3)
H4 H 0.4277 0.6995 0.4641
H5 H 0.3674 0.5718 0.3977
C7 C 0.4807(2) 0.5077(4) 0.5401(3)
H6 H 0.4619 0.4154 0.5499
H7 H 0.5216 0.5422 0.6236
C8 C 0.20166(19) 0.4972(3) 0.6006(3)
N1 N 0.37215(14) 0.6362(2) 0.5567(2)
O1 O 0.30058(14) 0.4333(2) 0.4809(2)
O2 O 0.18352(14) 0.3765(2) 0.5476(2)
O3 O 0.15881(14) 0.5561(2) 0.6366(2)
O6 O 0.15514(16) 0.2566(3) 0.3040(2)
H8 H 0.120(3) 0.284(5) 0.290(5)
Co1B Co 0.7500 0.7500 0.5000
C1D C 0.68545(18) 0.4588(3) 0.4507(3)
C2D C 0.72499(18) 0.4224(3) 0.3823(3)
C3D C 0.69852(19) 0.3039(4) 0.3064(3)
H1D H 0.7225 0.2816 0.2598
C4D C 0.6364(2) 0.2152(4) 0.2969(3)
H2D H 0.6180 0.1372 0.2428
C5D C 0.60414(19) 0.2463(3) 0.3685(3)
H3D H 0.5649 0.1860 0.3666
C6D C 0.59080(19) 0.3903(3) 0.5208(3)
H4D H 0.5723 0.3005 0.5359
H5D H 0.6326 0.4282 0.6023
C7D C 0.5193(2) 0.4923(4) 0.4599(3)
H6D H 0.5381 0.5846 0.4501
H7D H 0.4784 0.4578 0.3764
C8D C 0.79834(19) 0.5028(3) 0.3994(3)
N1D N 0.62785(14) 0.3638(2) 0.4433(2)
O1D O 0.69942(14) 0.5667(2) 0.5191(2)
O1F O 0.19942(14) 0.0667(2) 0.5191(2)
O2D O 0.81648(14) 0.6235(2) 0.4524(2)
O2F O 0.31648(14) 0.1235(2) 0.4524(2)
O3D O 0.84119(14) 0.4439(2) 0.3634(2)
O6F O 0.34486(16) 0.2434(3) 0.6960(2)
H8F H 0.380(3) 0.216(5) 0.710(5)
O4 O 0.0000 0.3232(14) 0.2500
O5 O 0.0059(3) 0.4511(10) 0.4061(8)
loop_
_geom_bond_atom_site_label_1
_geom_bond_atom_site_label_2
_geom_bond_site_symmetry_1
_geom_bond_site_symmetry_2
Co1 O1 1_555 1_555
C1 C2 1_555 1_555
C2 C3 1_555 1_555
C3 H1 1_555 1_555
C4 C3 1_555 1_555
H2 C4 1_555 1_555
C5 C4 1_555 1_555
H3 C5 1_555 1_555
C6 H4 1_555 1_555
H5 C6 1_555 1_555
C7 C6 1_555 1_555
H6 C7 1_555 1_555
H7 C7 1_555 1_555
C8 C2 1_555 1_555
N1 C1 1_555 1_555
O1 C1 1_555 1_555
O2 Co1 1_555 1_555
O3 C8 1_555 1_555
O6 Co1 1_555 1_555
H8 O6 1_555 1_555
Co1B O1D 1_555 1_555
C1D C2D 1_555 1_555
C2D C3D 1_555 1_555
C3D H1D 1_555 1_555
C4D C3D 1_555 1_555
H2D C4D 1_555 1_555
C5D C4D 1_555 1_555
H3D C5D 1_555 1_555
C6D H4D 1_555 1_555
H5D C6D 1_555 1_555
C7D C7 1_555 1_555
H6D C7D 1_555 1_555
H7D C7D 1_555 1_555
C8D C2D 1_555 1_555
N1D C1D 1_555 1_555
O1D C1D 1_555 1_555
O1F Co1 1_555 1_555
O2D Co1B 1_555 1_555
O2F Co1 1_555 1_555
O3D C8D 1_555 1_555
O6F Co1 1_555 1_555
H8F O6F 1_555 1_555
C5 N1 1_555 1_555
C6 N1 1_555 1_555
C8 O2 1_555 1_555
C5D N1D 1_555 1_555
C6D C7D 1_555 1_555
C6D N1D 1_555 1_555
C8D O2D 1_555 1_555

#END
