
#######################################################################
#
#                 Cambridge Crystallographic Data Centre
#                                CCDC 
#
#######################################################################
#
# If this CIF has been generated from an entry in the Cambridge 
# Structural Database, then it will include bibliographic, chemical, 
# crystal, experimental, refinement or atomic coordinate data resulting 
# from the CCDC's data processing and validation procedures.
#
#######################################################################

data_YEGWOY
_symmetry_cell_setting           triclinic
_symmetry_space_group_name_H-M   'P -1'
_symmetry_Int_Tables_number      2
_space_group_name_Hall           '-P 1'
loop_
_symmetry_equiv_pos_site_id
_symmetry_equiv_pos_as_xyz
1 x,y,z
2 -x,-y,-z
_cell_length_a                   4.8220(6)
_cell_length_b                   10.0700(14)
_cell_length_c                   11.0530(12)
_cell_angle_alpha                106.414(11)
_cell_angle_beta                 91.042(10)
_cell_angle_gamma                95.885(11)
_cell_volume                     511.494
loop_
_atom_site_label
_atom_site_type_symbol
_atom_site_fract_x
_atom_site_fract_y
_atom_site_fract_z
Zn1 Zn 0.0000 0.5000 0.0000
C1 C 0.2791(8) 0.5544(4) 0.2614(4)
C2 C 0.0974(7) 0.4328(4) 0.2822(3)
C3 C 0.1601(8) 0.3945(4) 0.3883(4)
H1 H 0.3101 0.4434 0.4420
C4 C 0.0041(9) 0.2835(4) 0.4177(4)
H2 H 0.0484 0.2585 0.4900
C5 C -0.2103(9) 0.2144(4) 0.3390(4)
H3 H -0.3166 0.1410 0.3577
N1 N -0.2772(6) 0.2483(3) 0.2329(3)
C6 C -0.5012(7) 0.1594(4) 0.1455(3)
H4 H -0.6007 0.2164 0.1059
H5 H -0.6330 0.1168 0.1926
C7 C -0.3843(7) 0.0466(4) 0.0445(3)
H6 H -0.2823 -0.0094 0.0841
H7 H -0.2549 0.0893 -0.0035
C8 C -0.1316(7) 0.3574(3) 0.1988(3)
O1 O -0.2151(5) 0.3791(3) 0.0981(2)
O2 O 0.2512(5) 0.5846(3) 0.1577(2)
O3 O 0.2545(7) 0.3318(3) -0.0658(3)
O4 O 0.4515(6) 0.6202(3) 0.3458(3)
H8 H 0.366(8) 0.342(4) -0.097(4)
Zn1_2 Zn -1.0000 -0.5000 0.0000
C1A C -1.2791(8) -0.5544(4) -0.2614(4)
C2A C -1.0974(7) -0.4328(4) -0.2822(3)
C3A C -1.1601(8) -0.3945(4) -0.3883(4)
H1A H -1.3101 -0.4434 -0.4420
C4A C -1.0041(9) -0.2835(4) -0.4177(4)
H2A H -1.0484 -0.2585 -0.4900
C5A C -0.7897(9) -0.2144(4) -0.3390(4)
H3A H -0.6834 -0.1410 -0.3577
N1A N -0.7228(6) -0.2483(3) -0.2329(3)
C6A C -0.4988(7) -0.1594(4) -0.1455(3)
H4A H -0.3993 -0.2164 -0.1059
H5A H -0.3670 -0.1168 -0.1926
C7A C -0.6157(7) -0.0466(4) -0.0445(3)
H6A H -0.7177 0.0094 -0.0841
H7A H -0.7451 -0.0893 0.0035
C8A C -0.8684(7) -0.3574(3) -0.1988(3)
O1A O -0.7849(5) -0.3791(3) -0.0981(2)
O1A_2 O 0.2151(5) 0.6209(3) -0.0981(2)
O2A O -1.2512(5) -0.5846(3) -0.1577(2)
O2A_2 O -0.2512(5) 0.4154(3) -0.1577(2)
O3A O -0.2545(7) 0.6682(3) 0.0658(3)
O4A O -1.4515(6) -0.6202(3) -0.3458(3)
H8A H -0.366(8) 0.658(4) 0.097(4)
O5 O 0.0501(7) -0.0990(3) 0.2488(3)
O6 O -0.4385(7) -0.1008(3) 0.3859(3)
loop_
_geom_bond_atom_site_label_1
_geom_bond_atom_site_label_2
_geom_bond_site_symmetry_1
_geom_bond_site_symmetry_2
Zn1 O1 1_555 1_555
C1 C2 1_555 1_555
C2 C3 1_555 1_555
C3 H1 1_555 1_555
C4 C3 1_555 1_555
H2 C4 1_555 1_555
C5 C4 1_555 1_555
H3 C5 1_555 1_555
N1 C5 1_555 1_555
C6 N1 1_555 1_555
H4 C6 1_555 1_555
H5 C6 1_555 1_555
C7 C6 1_555 1_555
H6 C7 1_555 1_555
H7 C7 1_555 1_555
C8 C2 1_555 1_555
O1 C8 1_555 1_555
O2 Zn1 1_555 1_555
O3 Zn1 1_555 1_555
O4 C1 1_555 1_555
H8 O3 1_555 1_555
Zn1_2 O1A 1_555 1_555
C1A C2A 1_555 1_555
C2A C3A 1_555 1_555
C3A H1A 1_555 1_555
C4A C3A 1_555 1_555
H2A C4A 1_555 1_555
C5A C4A 1_555 1_555
H3A C5A 1_555 1_555
N1A C5A 1_555 1_555
C6A N1A 1_555 1_555
H4A C6A 1_555 1_555
H5A C6A 1_555 1_555
C7A C7 1_555 1_555
H6A C7A 1_555 1_555
H7A C7A 1_555 1_555
C8A C2A 1_555 1_555
O1A C8A 1_555 1_555
O1A_2 Zn1 1_555 1_555
O2A Zn1_2 1_555 1_555
O2A_2 Zn1 1_555 1_555
O3A Zn1 1_555 1_555
O4A C1A 1_555 1_555
H8A O3A 1_555 1_555
C1 O2 1_555 1_555
N1 C8 1_555 1_555
C1A O2A 1_555 1_555
N1A C8A 1_555 1_555
C6A C7A 1_555 1_555

#END
