
#######################################################################
#
#                 Cambridge Crystallographic Data Centre
#                                CCDC 
#
#######################################################################
#
# If this CIF has been generated from an entry in the Cambridge 
# Structural Database, then it will include bibliographic, chemical, 
# crystal, experimental, refinement or atomic coordinate data resulting 
# from the CCDC's data processing and validation procedures.
#
#######################################################################

data_YEGXAL
_symmetry_cell_setting           monoclinic
_symmetry_space_group_name_H-M   'P 21/c'
_symmetry_Int_Tables_number      14
_space_group_name_Hall           '-P 2ybc'
loop_
_symmetry_equiv_pos_site_id
_symmetry_equiv_pos_as_xyz
1 x,y,z
2 -x,1/2+y,1/2-z
3 -x,-y,-z
4 x,1/2-y,1/2+z
_cell_length_a                   7.7480(3)
_cell_length_b                   21.5230(9)
_cell_length_c                   9.7620(4)
_cell_angle_alpha                90
_cell_angle_beta                 105.533(4)
_cell_angle_gamma                90
_cell_volume                     1568.46
loop_
_atom_site_label
_atom_site_type_symbol
_atom_site_fract_x
_atom_site_fract_y
_atom_site_fract_z
Co1 Co 0.07042(4) 0.063559(16) 0.07989(3)
C1 C 0.0522(4) -0.05629(13) 0.2474(3)
C2 C 0.1554(3) -0.02511(13) 0.3837(3)
C3 C 0.1949(4) -0.06046(14) 0.5051(3)
H1 H 0.1509 -0.1008 0.5007
C4 C 0.2992(4) -0.03778(15) 0.6353(3)
H2 H 0.3216 -0.0619 0.7172
C5 C 0.3663(4) 0.02006(15) 0.6385(3)
H3 H 0.4404 0.0352 0.7232
C6 C 0.2146(3) 0.03819(13) 0.3917(3)
C7 C 0.4015(4) 0.12006(13) 0.5322(3)
H4 H 0.4057 0.1342 0.4388
H5 H 0.5231 0.1196 0.5930
C8 C 0.2905(4) 0.16498(14) 0.5922(3)
H6 H 0.3143 0.1584 0.6939
H7 H 0.1643 0.1570 0.5494
C9 C 0.3328(4) 0.23210(14) 0.5641(3)
H8 H 0.3069 0.2583 0.6369
H9 H 0.4598 0.2356 0.5716
C10 C 0.2281(3) 0.25579(14) 0.4194(3)
H10 H 0.2733 0.2964 0.4036
H11 H 0.2473 0.2280 0.3466
C11 C -0.0794(4) 0.21690(14) 0.3286(3)
H12 H -0.0337 0.1836 0.2887
C12 C -0.2582(4) 0.22189(14) 0.3101(3)
H13 H -0.3360 0.1916 0.2606
C13 C -0.3230(4) 0.27348(14) 0.3669(3)
H14 H -0.4461 0.2778 0.3517
C14 C -0.2127(3) 0.31812(13) 0.4444(3)
C15 C -0.2952(4) 0.37346(13) 0.4974(3)
N1 N 0.3282(3) 0.05690(11) 0.5207(2)
N2 N 0.0348(3) 0.26039(10) 0.4056(2)
O1 O -0.0026(4) -0.10909(11) 0.2550(2)
O2 O 0.0314(2) -0.02733(8) 0.12931(18)
O3 O 0.3296(2) 0.03872(10) 0.0578(2)
O4 O 0.1737(3) 0.07862(9) 0.29544(19)
O5 O -0.1956(2) 0.41528(9) 0.5690(2)
O6 O -0.4615(3) 0.37545(11) 0.4663(3)
C16 C -0.0229(3) 0.31036(12) 0.4699(3)
O7 O 0.0972(2) 0.34445(9) 0.54661(19)
Co1B Co -0.07042(4) -0.063559(16) -0.07989(3)
Co1A Co -0.07042(4) -0.436441(16) -0.57989(3)
Co1C Co 0.07042(4) 0.436441(16) 0.57989(3)
C1B C -0.0522(4) 0.05629(13) -0.2474(3)
C2B C -0.1554(3) 0.02511(13) -0.3837(3)
C3B C -0.1949(4) 0.06046(14) -0.5051(3)
H1B H -0.1509 0.1008 -0.5007
C4B C -0.2992(4) 0.03778(15) -0.6353(3)
H2B H -0.3216 0.0619 -0.7172
C5B C -0.3663(4) -0.02006(15) -0.6385(3)
H3B H -0.4404 -0.0352 -0.7232
C6B C -0.2146(3) -0.03819(13) -0.3917(3)
C7B C -0.4015(4) -0.12006(13) -0.5322(3)
H4B H -0.4057 -0.1342 -0.4388
H5B H -0.5231 -0.1196 -0.5930
C8B C -0.2905(4) -0.16498(14) -0.5922(3)
H6B H -0.3143 -0.1584 -0.6939
H7B H -0.1643 -0.1570 -0.5494
C9B C -0.3328(4) -0.23210(14) -0.5641(3)
H8B H -0.3069 -0.2583 -0.6369
H9B H -0.4598 -0.2356 -0.5716
C10B C -0.2281(3) -0.25579(14) -0.4194(3)
H10B H -0.2733 -0.2964 -0.4036
H11B H -0.2473 -0.2280 -0.3466
C11B C 0.0794(4) -0.21690(14) -0.3286(3)
H12B H 0.0337 -0.1836 -0.2887
C12B C 0.2582(4) -0.22189(14) -0.3101(3)
H13B H 0.3360 -0.1916 -0.2606
C13B C 0.3230(4) -0.27348(14) -0.3669(3)
H14B H 0.4461 -0.2778 -0.3517
C14B C 0.2127(3) -0.31812(13) -0.4444(3)
C15B C 0.2952(4) -0.37346(13) -0.4974(3)
N1B N -0.3282(3) -0.05690(11) -0.5207(2)
N2B N -0.0348(3) -0.26039(10) -0.4056(2)
O1B O 0.0026(4) 0.10909(11) -0.2550(2)
O2B O -0.0314(2) 0.02733(8) -0.12931(18)
O3B O -0.3296(2) -0.03872(10) -0.0578(2)
O4B O -0.1737(3) -0.07862(9) -0.29544(19)
O5B O 0.1956(2) -0.41528(9) -0.5690(2)
O5A O 0.1956(2) -0.08472(9) -0.0690(2)
O5C O -0.1956(2) 0.08472(9) 0.0690(2)
O6B O 0.4615(3) -0.37545(11) -0.4663(3)
C16B C 0.0229(3) -0.31036(12) -0.4699(3)
O7B O -0.0972(2) -0.34445(9) -0.54661(19)
O7A O -0.0972(2) -0.15555(9) -0.04661(19)
O7C O 0.0972(2) 0.15555(9) 0.04661(19)
loop_
_geom_bond_atom_site_label_1
_geom_bond_atom_site_label_2
_geom_bond_site_symmetry_1
_geom_bond_site_symmetry_2
Co1 O2 1_555 1_555
C1 C2 1_555 1_555
C2 C3 1_555 1_555
C3 H1 1_555 1_555
C4 C3 1_555 1_555
H2 C4 1_555 1_555
C5 C4 1_555 1_555
H3 C5 1_555 1_555
C6 C2 1_555 1_555
C7 H4 1_555 1_555
H5 C7 1_555 1_555
C8 C7 1_555 1_555
H6 C8 1_555 1_555
H7 C8 1_555 1_555
C9 C8 1_555 1_555
H8 C9 1_555 1_555
H9 C9 1_555 1_555
C10 C9 1_555 1_555
H10 C10 1_555 1_555
H11 C10 1_555 1_555
C11 H12 1_555 1_555
C12 C11 1_555 1_555
H13 C12 1_555 1_555
C13 C12 1_555 1_555
H14 C13 1_555 1_555
C14 C13 1_555 1_555
C15 C14 1_555 1_555
N1 C5 1_555 1_555
N2 C10 1_555 1_555
O1 C1 1_555 1_555
O2 C1 1_555 1_555
O3 Co1 1_555 1_555
O4 Co1 1_555 1_555
O5 C15 1_555 1_555
O6 C15 1_555 1_555
C16 C14 1_555 1_555
O7 C16 1_555 1_555
Co1B O2 1_555 1_555
Co1A O5B 1_555 1_555
Co1C O5 1_555 1_555
C1B C2B 1_555 1_555
C2B C3B 1_555 1_555
C3B H1B 1_555 1_555
C4B C3B 1_555 1_555
H2B C4B 1_555 1_555
C5B C4B 1_555 1_555
H3B C5B 1_555 1_555
C6B C2B 1_555 1_555
C7B H4B 1_555 1_555
H5B C7B 1_555 1_555
C8B C7B 1_555 1_555
H6B C8B 1_555 1_555
H7B C8B 1_555 1_555
C9B C8B 1_555 1_555
H8B C9B 1_555 1_555
H9B C9B 1_555 1_555
C10B C9B 1_555 1_555
H10B C10B 1_555 1_555
H11B C10B 1_555 1_555
C11B H12B 1_555 1_555
C12B C11B 1_555 1_555
H13B C12B 1_555 1_555
C13B C12B 1_555 1_555
H14B C13B 1_555 1_555
C14B C13B 1_555 1_555
C15B C14B 1_555 1_555
N1B C5B 1_555 1_555
N2B C10B 1_555 1_555
O1B C1B 1_555 1_555
O2B Co1 1_555 1_555
O3B Co1B 1_555 1_555
O4B Co1B 1_555 1_555
O5B C15B 1_555 1_555
O5A Co1B 1_555 1_555
O5C Co1 1_555 1_555
O6B C15B 1_555 1_555
C16B C14B 1_555 1_555
O7B Co1A 1_555 1_555
O7A Co1B 1_555 1_555
O7C Co1 1_555 1_555
C6 N1 1_555 1_555
C6 O4 1_555 1_555
C7 N1 1_555 1_555
C11 N2 1_555 1_555
N2 C16 1_555 1_555
O7 Co1C 1_555 1_555
Co1B O2B 1_555 1_555
C1B O2B 1_555 1_555
C6B N1B 1_555 1_555
C6B O4B 1_555 1_555
C7B N1B 1_555 1_555
C11B N2B 1_555 1_555
N2B C16B 1_555 1_555
C16B O7B 1_555 1_555

#END
