
#######################################################################
#
#                 Cambridge Crystallographic Data Centre
#                                CCDC 
#
#######################################################################
#
# If this CIF has been generated from an entry in the Cambridge 
# Structural Database, then it will include bibliographic, chemical, 
# crystal, experimental, refinement or atomic coordinate data resulting 
# from the CCDC's data processing and validation procedures.
#
#######################################################################

data_YEGXEP
_symmetry_cell_setting           monoclinic
_symmetry_space_group_name_H-M   'P 21/c'
_symmetry_Int_Tables_number      14
_space_group_name_Hall           '-P 2ybc'
loop_
_symmetry_equiv_pos_site_id
_symmetry_equiv_pos_as_xyz
1 x,y,z
2 -x,1/2+y,1/2-z
3 -x,-y,-z
4 x,1/2-y,1/2+z
_cell_length_a                   7.7480(3)
_cell_length_b                   21.5010(8)
_cell_length_c                   9.7430(4)
_cell_angle_alpha                90
_cell_angle_beta                 105.657(4)
_cell_angle_gamma                90
_cell_volume                     1562.86
loop_
_atom_site_label
_atom_site_type_symbol
_atom_site_fract_x
_atom_site_fract_y
_atom_site_fract_z
Zn1 Zn 0.07172(3) 0.064487(11) 0.57891(3)
C1 C -0.0229(3) 0.18963(10) 0.4695(2)
C2 C -0.2126(3) 0.18220(10) 0.4429(2)
C3 C -0.3224(3) 0.22692(11) 0.3656(3)
H1 H -0.4456 0.2227 0.3504
C4 C -0.2573(3) 0.27862(11) 0.3088(3)
H2 H -0.3347 0.3091 0.2592
C5 C -0.0780(3) 0.28311(11) 0.3280(2)
H3 H -0.0318 0.3163 0.2879
C6 C -0.2958(3) 0.12655(11) 0.4953(2)
C7 C 0.2285(3) 0.24415(11) 0.4188(2)
H4 H 0.2476 0.2717 0.3454
H5 H 0.2734 0.2033 0.4035
C8 C 0.3333(3) 0.26816(11) 0.5632(2)
H6 H 0.4603 0.2647 0.5705
H7 H 0.3081 0.2420 0.6365
C9 C 0.2911(3) 0.33528(11) 0.5914(3)
H8 H 0.1651 0.3434 0.5477
H9 H 0.3141 0.3417 0.6933
C10 C 0.4025(3) 0.37989(11) 0.5328(3)
H10 H 0.5238 0.3803 0.5948
H11 H 0.4078 0.3657 0.4395
C11 C 0.2150(3) 0.46166(10) 0.3915(2)
C12 C 0.1543(3) 0.52495(10) 0.3831(2)
C13 C 0.1946(3) 0.56023(11) 0.5051(3)
H12 H 0.1507 0.6006 0.5006
C14 C 0.2985(3) 0.53782(12) 0.6349(3)
H13 H 0.3208 0.5621 0.7169
C15 C 0.3658(3) 0.48012(12) 0.6385(3)
H14 H 0.4391 0.4649 0.7237
C16 C 0.0502(3) 0.55558(10) 0.2466(2)
O1 O 0.09729(19) 0.15600(7) 0.54669(16)
O2 O -0.1975(2) 0.08551(8) 0.56842(18)
O3 O 0.3305(2) 0.03940(11) 0.5573(2)
O4 O -0.4623(2) 0.12452(9) 0.4610(2)
O5 O 0.1757(2) 0.42142(7) 0.29516(16)
O6 O 0.03046(19) 0.52624(7) 0.12912(15)
O7 O -0.0052(3) 0.60826(9) 0.2537(2)
N1 N 0.0354(2) 0.23978(8) 0.40511(19)
N2 N 0.3293(2) 0.44343(8) 0.5207(2)
H15 H 0.315(4) 0.0092(15) 0.509(3)
H16 H 0.391(5) 0.0638(18) 0.532(4)
Zn1A Zn -0.07172(3) 0.564487(11) -0.07891(3)
Zn1C Zn 0.07172(3) 0.435513(11) 0.07891(3)
O5C O 0.1757(2) 0.07858(7) 0.79516(16)
O6A O -0.03046(19) 0.02624(7) 0.37088(15)
O6C O 0.03046(19) -0.02624(7) 0.62912(15)
loop_
_geom_bond_atom_site_label_1
_geom_bond_atom_site_label_2
_geom_bond_site_symmetry_1
_geom_bond_site_symmetry_2
Zn1 O1 1_555 1_555
C1 C2 1_555 1_555
C2 C3 1_555 1_555
C3 H1 1_555 1_555
C4 C3 1_555 1_555
H2 C4 1_555 1_555
C5 C4 1_555 1_555
H3 C5 1_555 1_555
C6 C2 1_555 1_555
C7 H4 1_555 1_555
H5 C7 1_555 1_555
C8 C7 1_555 1_555
H6 C8 1_555 1_555
H7 C8 1_555 1_555
C9 C8 1_555 1_555
H8 C9 1_555 1_555
H9 C9 1_555 1_555
C10 C9 1_555 1_555
H10 C10 1_555 1_555
H11 C10 1_555 1_555
C11 C12 1_555 1_555
C12 C13 1_555 1_555
C13 H12 1_555 1_555
C14 C13 1_555 1_555
H13 C14 1_555 1_555
C15 C14 1_555 1_555
H14 C15 1_555 1_555
C16 C12 1_555 1_555
O1 C1 1_555 1_555
O2 Zn1 1_555 1_555
O3 Zn1 1_555 1_555
O4 C6 1_555 1_555
O5 C11 1_555 1_555
O6 C16 1_555 1_555
O7 C16 1_555 1_555
N1 C1 1_555 1_555
N2 C10 1_555 1_555
H15 O3 1_555 1_555
H16 O3 1_555 1_555
Zn1A O6 1_555 1_555
Zn1C O5 1_555 1_555
O5C Zn1 1_555 1_555
O6A Zn1 1_555 1_555
O6C Zn1 1_555 1_555
C5 N1 1_555 1_555
C6 O2 1_555 1_555
C7 N1 1_555 1_555
C11 N2 1_555 1_555
C15 N2 1_555 1_555
O6 Zn1C 1_555 1_555

#END
