
#######################################################################
#
#                 Cambridge Crystallographic Data Centre
#                                CCDC 
#
#######################################################################
#
# If this CIF has been generated from an entry in the Cambridge 
# Structural Database, then it will include bibliographic, chemical, 
# crystal, experimental, refinement or atomic coordinate data resulting 
# from the CCDC's data processing and validation procedures.
#
#######################################################################

data_YEGYOZ
_symmetry_cell_setting           orthorhombic
_symmetry_space_group_name_H-M   'P 21 21 21'
_symmetry_Int_Tables_number      19
_space_group_name_Hall           'P 2ac 2ab'
loop_
_symmetry_equiv_pos_site_id
_symmetry_equiv_pos_as_xyz
1 x,y,z
2 1/2-x,-y,1/2+z
3 -x,1/2+y,1/2-z
4 1/2+x,1/2-y,-z
_cell_length_a                   7.5615(9)
_cell_length_b                   10.4903(13)
_cell_length_c                   17.558(2)
_cell_angle_alpha                90
_cell_angle_beta                 90
_cell_angle_gamma                90
_cell_volume                     1392.74
loop_
_atom_site_label
_atom_site_type_symbol
_atom_site_fract_x
_atom_site_fract_y
_atom_site_fract_z
Ag1 Ag -0.20069(4) 0.49470(3) 0.320049(15)
C1 C -0.3068(5) 0.4360(4) 0.1879(2)
C2 C -0.2697(5) 0.3288(4) 0.2306(2)
H1 H -0.3767 0.2778 0.2445
C3 C -0.1043(6) 0.2489(4) 0.2184(2)
H2 H -0.1365 0.1575 0.2188
H3 H -0.0207 0.2641 0.2609
C4 C -0.0139(5) 0.2813(4) 0.1431(2)
H4 H -0.0936 0.2523 0.1011
C5 C 0.0041(6) 0.4285(4) 0.1367(2)
H5 H 0.0676 0.4620 0.1818
H6 H 0.0733 0.4505 0.0907
C6 C -0.1782(5) 0.4885(4) 0.1319(2)
H7 H -0.1670 0.5815 0.1403
H8 H -0.2255 0.4756 0.0799
C7 C -0.4913(5) 0.4935(4) 0.1869(3)
H9 H -0.5515 0.4693 0.1397
H10 H -0.4826 0.5866 0.1898
H11 H -0.5587 0.4617 0.2307
C8 C 0.1659(5) 0.2213(4) 0.1299(2)
C9 C 0.2857(5) 0.2081(4) 0.1858(2)
H12 H 0.4056 0.1859 0.1737
H13 H 0.2515 0.2208 0.2379
C10 C 0.2144(7) 0.2022(4) 0.0466(3)
H14 H 0.3340 0.1668 0.0430
H15 H 0.2100 0.2843 0.0200
H16 H 0.1302 0.1431 0.0230
O1 O -0.2094(6) 0.3693(5) 0.4278(3)
H17 H -0.2978 0.3432 0.4524
H18 H -0.1155 0.3248 0.4413
Ag1B Ag 0.20069(4) -0.00530(3) 0.179951(15)
C8B C -0.1659(5) 0.7213(4) 0.3701(2)
C9B C -0.2857(5) 0.7081(4) 0.3142(2)
H12B H -0.4056 0.6859 0.3263
H13B H -0.2515 0.7208 0.2621
P1 P 0.27864(16) 0.41150(12) 0.41655(7)
F1 F 0.1488(4) 0.4358(3) 0.34601(18)
F2 F 0.1656(4) 0.5015(4) 0.4694(2)
F3 F 0.3967(5) 0.5282(3) 0.3931(2)
F4 F 0.1574(4) 0.2945(3) 0.4422(2)
F5 F 0.3933(5) 0.3199(4) 0.3656(2)
F6 F 0.4119(5) 0.3815(4) 0.4850(2)
loop_
_geom_bond_atom_site_label_1
_geom_bond_atom_site_label_2
_geom_bond_site_symmetry_1
_geom_bond_site_symmetry_2
Ag1 C1 1_555 1_555
C1 C2 1_555 1_555
C2 Ag1 1_555 1_555
H1 C2 1_555 1_555
C3 C2 1_555 1_555
H2 C3 1_555 1_555
H3 C3 1_555 1_555
C4 C3 1_555 1_555
H4 C4 1_555 1_555
C5 C4 1_555 1_555
H5 C5 1_555 1_555
H6 C5 1_555 1_555
C6 C1 1_555 1_555
H7 C6 1_555 1_555
H8 C6 1_555 1_555
C7 C1 1_555 1_555
H9 C7 1_555 1_555
H10 C7 1_555 1_555
H11 C7 1_555 1_555
C8 C4 1_555 1_555
C9 C8 1_555 1_555
H12 C9 1_555 1_555
H13 C9 1_555 1_555
C10 C8 1_555 1_555
H14 C10 1_555 1_555
H15 C10 1_555 1_555
H16 C10 1_555 1_555
O1 Ag1 1_555 1_555
H17 O1 1_555 1_555
H18 O1 1_555 1_555
P1 F1 1_555 1_555
F2 P1 1_555 1_555
F3 P1 1_555 1_555
F4 P1 1_555 1_555
F5 P1 1_555 1_555
F6 P1 1_555 1_555
Ag1B C8 1_555 1_555
C8B Ag1 1_555 1_555
C9B Ag1 1_555 1_555
H12B C9B 1_555 1_555
H13B C9B 1_555 1_555
C5 C6 1_555 1_555
C9 Ag1B 1_555 1_555
C8B C9B 1_555 1_555

#END
