
#######################################################################
#
#                 Cambridge Crystallographic Data Centre
#                                CCDC 
#
#######################################################################
#
# If this CIF has been generated from an entry in the Cambridge 
# Structural Database, then it will include bibliographic, chemical, 
# crystal, experimental, refinement or atomic coordinate data resulting 
# from the CCDC's data processing and validation procedures.
#
#######################################################################

data_YEGZOB
_symmetry_cell_setting           monoclinic
_symmetry_space_group_name_H-M   'P 21/c'
_symmetry_Int_Tables_number      14
_space_group_name_Hall           '-P 2ybc'
loop_
_symmetry_equiv_pos_site_id
_symmetry_equiv_pos_as_xyz
1 x,y,z
2 -x,1/2+y,1/2-z
3 -x,-y,-z
4 x,1/2-y,1/2+z
_cell_length_a                   8.43830(16)
_cell_length_b                   15.9561(5)
_cell_length_c                   16.3975(3)
_cell_angle_alpha                90
_cell_angle_beta                 91.8688(17)
_cell_angle_gamma                90
_cell_volume                     2206.62
loop_
_atom_site_label
_atom_site_type_symbol
_atom_site_fract_x
_atom_site_fract_y
_atom_site_fract_z
Cu1 Cu 0.72339(7) 0.17298(5) 0.19821(4)
C1 C 0.4006(7) 0.2377(4) 0.1385(4)
H1 H 0.3916 0.2713 0.1845
C2 C 0.4923(7) 0.1506(4) 0.0566(3)
H2 H 0.5557 0.1114 0.0313
C3 C 0.2790(7) 0.1633(4) -0.0525(3)
H3 H 0.3531 0.1340 -0.0863
H4 H 0.2545 0.2165 -0.0786
C4 C 0.1283(7) 0.1123(4) -0.0491(3)
H5 H 0.0850 0.1045 -0.1041
H6 H 0.1532 0.0574 -0.0267
C5 C -0.0402(6) 0.1290(4) 0.0727(3)
H7 H -0.0055 0.0816 0.1010
C6 C -0.1551(7) 0.2397(4) 0.0376(3)
H8 H -0.2213 0.2863 0.0391
C7 C 0.9497(6) 0.1152(4) 0.3332(3)
H9 H 0.8772 0.0789 0.3560
C8 C 1.0624(6) 0.2030(4) 0.2592(3)
H10 H 1.0792 0.2405 0.2169
C9 C 1.1730(6) 0.0958(4) 0.4372(3)
H11 H 1.0982 0.0608 0.4653
H12 H 1.2008 0.1425 0.4728
C10 C 1.3212(7) 0.0451(5) 0.4219(4)
H13 H 1.3624 0.0224 0.4732
H14 H 1.2941 -0.0015 0.3862
C11 C 1.4901(7) 0.0933(4) 0.3092(4)
H15 H 1.4564 0.0546 0.2699
C12 C 1.6014(7) 0.1941(5) 0.3708(4)
H16 H 1.6645 0.2411 0.3807
N1 N 0.5251(5) 0.1858(3) 0.1281(3)
N2 N 0.2942(5) 0.2371(3) 0.0789(3)
N3 N 0.3554(5) 0.1796(3) 0.0262(3)
N4 N 0.0085(5) 0.1524(3) 0.0007(3)
N5 N -0.0639(6) 0.2245(4) -0.0237(3)
N6 N -0.1461(5) 0.1832(3) 0.0984(3)
N7 N 0.9215(5) 0.1609(3) 0.2673(3)
N8 N 1.0964(5) 0.1283(3) 0.3624(3)
N9 N 1.1691(6) 0.1863(3) 0.3147(3)
N10 N 1.4433(5) 0.0958(3) 0.3849(3)
N11 N 1.5142(6) 0.1611(4) 0.4261(3)
N12 N 1.5929(5) 0.1548(3) 0.2978(3)
O1 O 0.7107(5) 0.0181(3) 0.1732(3)
H17 H 0.7590 -0.0083 0.2116
H18 H 0.6147 0.0022 0.1671
O2 O 0.7397(6) 0.3251(3) 0.2094(3)
H19 H 0.6853 0.3550 0.2409
H20 H 0.8142 0.3513 0.1874
Cu1_2 Cu -0.27661(7) 0.17298(5) 0.19821(4)
Cu1_3 Cu 1.72339(7) 0.17298(5) 0.19821(4)
N6_2 N 0.8539(5) 0.1832(3) 0.0984(3)
N12_2 N 0.5929(5) 0.1548(3) 0.2978(3)
N13 N 0.1234(10) 0.0815(5) 0.6548(5)
O3 O -0.0047(8) 0.0927(4) 0.6173(4)
O4 O 0.2342(7) 0.0462(4) 0.6227(4)
O5 O 0.1396(8) 0.1058(4) 0.7271(4)
N14 N 0.3037(11) 0.9634(6) 0.1305(6)
O6 O 0.2895(9) 0.9652(5) 0.0587(5)
O7 O 0.4116(8) 0.9291(5) 0.1706(4)
O8 O 0.2039(9) 1.0023(5) 0.1700(4)
loop_
_geom_bond_atom_site_label_1
_geom_bond_atom_site_label_2
_geom_bond_site_symmetry_1
_geom_bond_site_symmetry_2
Cu1 N1 1_555 1_555
C1 H1 1_555 1_555
C2 H2 1_555 1_555
C3 H3 1_555 1_555
H4 C3 1_555 1_555
C4 C3 1_555 1_555
H5 C4 1_555 1_555
H6 C4 1_555 1_555
C5 H7 1_555 1_555
C6 H8 1_555 1_555
C7 H9 1_555 1_555
C8 H10 1_555 1_555
C9 H11 1_555 1_555
H12 C9 1_555 1_555
C10 C9 1_555 1_555
H13 C10 1_555 1_555
H14 C10 1_555 1_555
C11 H15 1_555 1_555
C12 H16 1_555 1_555
N1 C1 1_555 1_555
N2 C1 1_555 1_555
N3 C2 1_555 1_555
N4 C4 1_555 1_555
N5 C6 1_555 1_555
N6 C5 1_555 1_555
N7 Cu1 1_555 1_555
N8 C7 1_555 1_555
N9 C8 1_555 1_555
N10 C10 1_555 1_555
N11 C12 1_555 1_555
N12 C11 1_555 1_555
N13 O3 1_555 1_555
N14 O6 1_555 1_555
O1 Cu1 1_555 1_555
H17 O1 1_555 1_555
H18 O1 1_555 1_555
O2 Cu1 1_555 1_555
H19 O2 1_555 1_555
H20 O2 1_555 1_555
O4 N13 1_555 1_555
O5 N13 1_555 1_555
O7 N14 1_555 1_555
O8 N14 1_555 1_555
Cu1_2 N6 1_555 1_555
Cu1_3 N12 1_555 1_555
N6_2 Cu1 1_555 1_555
N12_2 Cu1 1_555 1_555
C2 N1 1_555 1_555
C3 N3 1_555 1_555
C5 N4 1_555 1_555
C6 N6 1_555 1_555
C7 N7 1_555 1_555
C8 N7 1_555 1_555
C9 N8 1_555 1_555
C11 N10 1_555 1_555
C12 N12 1_555 1_555
N2 N3 1_555 1_555
N4 N5 1_555 1_555
N8 N9 1_555 1_555
N10 N11 1_555 1_555

#END
