
#######################################################################
#
#                 Cambridge Crystallographic Data Centre
#                                CCDC 
#
#######################################################################
#
# If this CIF has been generated from an entry in the Cambridge 
# Structural Database, then it will include bibliographic, chemical, 
# crystal, experimental, refinement or atomic coordinate data resulting 
# from the CCDC's data processing and validation procedures.
#
#######################################################################

data_YEHCOE
_symmetry_cell_setting           triclinic
_symmetry_space_group_name_H-M   'P -1'
_symmetry_Int_Tables_number      2
_space_group_name_Hall           '-P 1'
loop_
_symmetry_equiv_pos_site_id
_symmetry_equiv_pos_as_xyz
1 x,y,z
2 -x,-y,-z
_cell_length_a                   11.5874(7)
_cell_length_b                   12.9425(8)
_cell_length_c                   16.1980(10)
_cell_angle_alpha                86.496(2)
_cell_angle_beta                 88.891(2)
_cell_angle_gamma                66.515(2)
_cell_volume                     2223.79
loop_
_atom_site_label
_atom_site_type_symbol
_atom_site_fract_x
_atom_site_fract_y
_atom_site_fract_z
Cl3 Cl 0.18703(11) 0.10060(10) 0.51852(7)
O18 O 0.1019(4) 0.0557(3) 0.4883(2)
O19 O 0.1188(4) 0.1950(4) 0.5644(3)
O20 O 0.2466(4) 0.1329(4) 0.4498(3)
O21 O 0.2795(4) 0.0140(4) 0.5699(2)
Cu1 Cu -0.10384(6) 0.73215(5) 0.82085(3)
Ba1 Ba -0.48395(2) 0.58207(2) 1.302600(16)
N1 N -0.0166(3) 0.8414(3) 0.7820(2)
C1 C 0.0434(4) 0.8662(4) 0.8424(3)
C2 C 0.1117(4) 0.9323(4) 0.8271(3)
H1 H 0.1523 0.9487 0.8702
C3 C 0.1189(4) 0.9733(4) 0.7476(3)
H2 H 0.1639 1.0181 0.7364
C4 C 0.0579(5) 0.9470(4) 0.6845(3)
H3 H 0.0627 0.9725 0.6301
C5 C -0.0101(4) 0.8819(4) 0.7041(3)
H4 H -0.0528 0.8656 0.6622
N2 N -0.0303(3) 0.7449(3) 0.9318(2)
C6 C -0.0262(4) 0.7028(4) 1.0087(2)
S1 S 0.05933(12) 0.74507(11) 1.07553(7)
C7 C 0.0886(5) 0.8248(4) 0.9968(3)
H5 H 0.1347 0.8687 1.0021
C8 C 0.0351(4) 0.8152(4) 0.9254(3)
N3 N -0.0592(3) 0.5900(3) 1.11911(19)
C9 C -0.1167(4) 0.5285(4) 1.1542(2)
C10 C -0.2088(4) 0.5059(4) 1.1132(3)
C11 C -0.2360(4) 0.5455(4) 1.0313(3)
H6 H -0.2946 0.5300 1.0017
C12 C -0.1747(4) 0.6085(4) 0.9944(2)
H7 H -0.1912 0.6354 0.9395
C13 C -0.0885(4) 0.6310(3) 1.0401(2)
N4 N 0.0261(3) 0.3965(3) 1.2575(2)
C14 C -0.0797(4) 0.4881(4) 1.2425(2)
C15 C -0.1521(4) 0.5493(4) 1.3054(3)
C16 C -0.1102(4) 0.5217(4) 1.3866(3)
H8 H -0.1555 0.5644 1.4295
C17 C 0.0005(4) 0.4291(4) 1.4018(3)
H9 H 0.0314 0.4082 1.4555
C18 C 0.0652(4) 0.3672(4) 1.3368(2)
H10 H 0.1383 0.3032 1.3480
O1 O -0.2654(3) 0.4475(3) 1.15805(17)
C19 C -0.3346(4) 0.4000(4) 1.1109(3)
H11 H -0.4042 0.4597 1.0820
H12 H -0.2802 0.3517 1.0703
C20 C -0.3835(4) 0.3321(4) 1.1705(3)
H13 H -0.3181 0.2891 1.2103
H14 H -0.4036 0.2791 1.1400
O2 O -0.4939(3) 0.4028(2) 1.21378(17)
C21 C -0.6066(4) 0.4333(4) 1.1652(3)
H15 H -0.6071 0.4854 1.1194
H16 H -0.6093 0.3665 1.1427
C22 C -0.7183(4) 0.4871(4) 1.2186(3)
H17 H -0.7144 0.4378 1.2669
H18 H -0.7950 0.5011 1.1882
O3 O -0.7175(3) 0.5909(3) 1.24297(19)
C23 C -0.8248(4) 0.6537(4) 1.2914(3)
H19 H -0.9012 0.6569 1.2658
H20 H -0.8178 0.6178 1.3465
C24 C -0.8287(4) 0.7699(4) 1.2962(3)
H21 H -0.8988 0.8138 1.3303
H22 H -0.8408 0.8070 1.2412
O4 O -0.7126(3) 0.7636(3) 1.33105(19)
C25 C -0.7133(5) 0.8743(4) 1.3366(3)
H23 H -0.7227 0.9113 1.2818
H24 H -0.7841 0.9193 1.3697
C26 C -0.5957(5) 0.8661(4) 1.3744(3)
H25 H -0.5857 0.8289 1.4292
H26 H -0.5973 0.9410 1.3794
O5 O -0.4933(3) 0.8024(3) 1.32268(19)
C27 C -0.3768(5) 0.8086(4) 1.3469(3)
H27 H -0.3876 0.8868 1.3478
H28 H -0.3521 0.7732 1.4019
C28 C -0.2789(5) 0.7496(4) 1.2865(3)
H29 H -0.1992 0.7508 1.3022
H30 H -0.3020 0.7872 1.2320
O6 O -0.2671(3) 0.6331(3) 1.28489(18)
Cl1 Cl -0.60638(11) 0.40734(11) 1.45658(6)
O7 O -0.6068(6) 0.5104(5) 1.4269(3)
O8 O -0.5014(5) 0.3212(7) 1.4234(4)
O9 O -0.5937(4) 0.3953(3) 1.5432(2)
O10 O -0.7194(4) 0.3981(4) 1.4334(2)
Cl2 Cl -0.56285(12) 0.74445(11) 1.08301(7)
O11 O -0.6824(4) 0.8251(4) 1.1091(3)
O12 O -0.4860(10) 0.6901(11) 1.1465(5)
O13 O -0.5880(11) 0.6564(8) 1.0411(6)
O14 O -0.5069(8) 0.7914(7) 1.0212(6)
N5 N -0.2835(4) 0.7939(3) 0.7886(2)
C29 C -0.3744(5) 0.8226(4) 0.7520(3)
C30 C -0.4902(6) 0.8580(5) 0.7039(4)
H31 H -0.4808 0.8937 0.6520
H32 H -0.5586 0.9102 0.7340
H33 H -0.5076 0.7932 0.6939
N6 N -0.2766(4) 0.3754(4) 1.3482(3)
C31 C -0.2420(4) 0.3123(4) 1.4035(3)
C32 C -0.1997(5) 0.2336(5) 1.4743(3)
H34 H -0.2182 0.1690 1.4661
H35 H -0.1106 0.2102 1.4813
H36 H -0.2422 0.2693 1.5229
Cu1A Cu 0.10384(6) 0.26785(5) 1.17915(3)
Ba1A Ba -0.51605(2) 0.41793(2) 1.697400(16)
N4A N -0.0261(3) 0.6035(3) 0.7425(2)
O9A O -0.4063(4) 0.6047(3) 1.4568(2)
O15? O 0.512(2) 0.3413(17) 0.8470(12)
O16? O 0.5600(16) 0.292(2) 0.9904(9)
O17? O 0.4793(10) 0.1913(10) 0.9114(10)
loop_
_geom_bond_atom_site_label_1
_geom_bond_atom_site_label_2
_geom_bond_site_symmetry_1
_geom_bond_site_symmetry_2
Cu1 N1 1_555 1_555
Ba1 O2 1_555 1_555
N1 C1 1_555 1_555
C1 C2 1_555 1_555
C2 H1 1_555 1_555
C3 C2 1_555 1_555
H2 C3 1_555 1_555
C4 C3 1_555 1_555
H3 C4 1_555 1_555
C5 N1 1_555 1_555
H4 C5 1_555 1_555
N2 Cu1 1_555 1_555
C6 N2 1_555 1_555
S1 C6 1_555 1_555
C7 S1 1_555 1_555
H5 C7 1_555 1_555
C8 C1 1_555 1_555
N3 C9 1_555 1_555
C9 C10 1_555 1_555
C10 C11 1_555 1_555
C11 H6 1_555 1_555
C12 C11 1_555 1_555
H7 C12 1_555 1_555
C13 C6 1_555 1_555
N4 C14 1_555 1_555
C14 C9 1_555 1_555
C15 C14 1_555 1_555
C16 C15 1_555 1_555
H8 C16 1_555 1_555
C17 C16 1_555 1_555
H9 C17 1_555 1_555
C18 N4 1_555 1_555
H10 C18 1_555 1_555
O1 C10 1_555 1_555
C19 O1 1_555 1_555
H11 C19 1_555 1_555
H12 C19 1_555 1_555
C20 C19 1_555 1_555
H13 C20 1_555 1_555
H14 C20 1_555 1_555
O2 C20 1_555 1_555
C21 O2 1_555 1_555
H15 C21 1_555 1_555
H16 C21 1_555 1_555
C22 C21 1_555 1_555
H17 C22 1_555 1_555
H18 C22 1_555 1_555
O3 Ba1 1_555 1_555
C23 O3 1_555 1_555
H19 C23 1_555 1_555
H20 C23 1_555 1_555
C24 C23 1_555 1_555
H21 C24 1_555 1_555
H22 C24 1_555 1_555
O4 Ba1 1_555 1_555
C25 O4 1_555 1_555
H23 C25 1_555 1_555
H24 C25 1_555 1_555
C26 C25 1_555 1_555
H25 C26 1_555 1_555
H26 C26 1_555 1_555
O5 Ba1 1_555 1_555
C27 O5 1_555 1_555
H27 C27 1_555 1_555
H28 C27 1_555 1_555
C28 C27 1_555 1_555
H29 C28 1_555 1_555
H30 C28 1_555 1_555
O6 Ba1 1_555 1_555
Cl1 O7 1_555 1_555
O7 Ba1 1_555 1_555
O8 Cl1 1_555 1_555
O9 Cl1 1_555 1_555
O10 Cl1 1_555 1_555
Cl2 O11 1_555 1_555
O12 Ba1 1_555 1_555
O13 Cl2 1_555 1_555
O14 Cl2 1_555 1_555
Cl3 O18 1_555 1_555
O19 Cl3 1_555 1_555
O20 Cl3 1_555 1_555
O21 Cl3 1_555 1_555
N5 Cu1 1_555 1_555
C29 N5 1_555 1_555
C30 C29 1_555 1_555
H31 C30 1_555 1_555
H32 C30 1_555 1_555
H33 C30 1_555 1_555
N6 Ba1 1_555 1_555
C31 N6 1_555 1_555
C32 C31 1_555 1_555
H34 C32 1_555 1_555
H35 C32 1_555 1_555
H36 C32 1_555 1_555
Cu1A N4 1_555 1_555
Ba1A O9 1_555 1_555
N4A Cu1 1_555 1_555
O9A Ba1 1_555 1_555
C4 C5 1_555 1_555
N2 C8 1_555 1_555
C7 C8 1_555 1_555
N3 C13 1_555 1_555
C12 C13 1_555 1_555
C15 O6 1_555 1_555
C17 C18 1_555 1_555
C22 O3 1_555 1_555
C24 O4 1_555 1_555
C26 O5 1_555 1_555
C28 O6 1_555 1_555
Cl2 O12 1_555 1_555

#END
