
#######################################################################
#
#                 Cambridge Crystallographic Data Centre
#                                CCDC 
#
#######################################################################
#
# If this CIF has been generated from an entry in the Cambridge 
# Structural Database, then it will include bibliographic, chemical, 
# crystal, experimental, refinement or atomic coordinate data resulting 
# from the CCDC's data processing and validation procedures.
#
#######################################################################

data_YEHMUU
_symmetry_cell_setting           orthorhombic
_symmetry_space_group_name_H-M   'P b c a'
_symmetry_Int_Tables_number      61
_space_group_name_Hall           '-P 2ac 2ab'
loop_
_symmetry_equiv_pos_site_id
_symmetry_equiv_pos_as_xyz
1 x,y,z
2 1/2-x,-y,1/2+z
3 -x,1/2+y,1/2-z
4 1/2+x,1/2-y,-z
5 -x,-y,-z
6 1/2+x,y,1/2-z
7 x,1/2-y,1/2+z
8 1/2-x,1/2+y,z
_cell_length_a                   15.331(2)
_cell_length_b                   10.7150(16)
_cell_length_c                   16.715(2)
_cell_angle_alpha                90
_cell_angle_beta                 90
_cell_angle_gamma                90
_cell_volume                     2745.8
loop_
_atom_site_label
_atom_site_type_symbol
_atom_site_fract_x
_atom_site_fract_y
_atom_site_fract_z
Mn1 Mn 0.06914(5) 0.79507(8) 0.21984(5)
P1 P 0.24081(9) 0.67077(12) 0.28387(8)
P2 P -0.00817(9) 0.53137(13) 0.16859(8)
O1 O 0.1666(2) 0.7583(3) 0.2988(2)
O2 O 0.2737(2) 0.5947(3) 0.3542(2)
O3 O 0.3175(2) 0.7507(3) 0.2469(2)
H1 H 0.3645 0.7215 0.2611
O4 O -0.0255(2) 0.6560(3) 0.20722(19)
O5 O 0.0069(2) 0.4263(3) 0.2268(2)
O6 O -0.0809(2) 0.4992(3) 0.1073(2)
H2 H -0.1268 0.5316 0.1214
N1 N 0.1527(2) 0.6339(4) 0.1452(2)
N2 N 0.1112(3) 0.8810(4) 0.1118(3)
N3 N 0.1847(3) 0.8866(4) -0.0032(3)
H3 H 0.2184 0.8629 -0.0414
C1 C 0.2035(3) 0.5650(5) 0.2048(3)
H4 H 0.2534 0.5262 0.1793
H5 H 0.1678 0.4995 0.2280
C2 C 0.0872(3) 0.5530(5) 0.1061(3)
H6 H 0.1131 0.4724 0.0946
H7 H 0.0697 0.5903 0.0557
C3 C 0.2055(3) 0.6966(5) 0.0856(3)
H8 H 0.2095 0.6450 0.0381
H9 H 0.2640 0.7090 0.1063
C4 C 0.1660(3) 0.8215(4) 0.0640(3)
C5 C 0.0943(3) 0.9937(5) 0.0734(3)
C6 C 0.0426(3) 1.0938(5) 0.0968(3)
H10 H 0.0106 1.0923 0.1441
C7 C 0.0412(3) 1.1964(5) 0.0455(3)
H11 H 0.0085 1.2661 0.0597
C8 C 0.0875(3) 1.1977(5) -0.0267(3)
H12 H 0.0840 1.2672 -0.0599
C9 C 0.1378(3) 1.0988(5) -0.0491(3)
H13 H 0.1696 1.1000 -0.0965
C10 C 0.1396(3) 0.9979(5) 0.0008(3)
Mn1B Mn -0.06914(5) 0.29507(8) 0.28016(5)
O5B O -0.0069(2) 0.9263(3) 0.2732(2)
loop_
_geom_bond_atom_site_label_1
_geom_bond_atom_site_label_2
_geom_bond_site_symmetry_1
_geom_bond_site_symmetry_2
Mn1 O1 1_555 1_555
P1 O1 1_555 1_555
P2 O4 1_555 1_555
O2 P1 1_555 1_555
O3 P1 1_555 1_555
H1 O3 1_555 1_555
O4 Mn1 1_555 1_555
O5 P2 1_555 1_555
O6 P2 1_555 1_555
H2 O6 1_555 1_555
N1 Mn1 1_555 1_555
N2 Mn1 1_555 1_555
N3 H3 1_555 1_555
C1 P1 1_555 1_555
H4 C1 1_555 1_555
H5 C1 1_555 1_555
C2 P2 1_555 1_555
H6 C2 1_555 1_555
H7 C2 1_555 1_555
C3 N1 1_555 1_555
H8 C3 1_555 1_555
H9 C3 1_555 1_555
C4 N2 1_555 1_555
C5 N2 1_555 1_555
C6 C5 1_555 1_555
H10 C6 1_555 1_555
C7 C6 1_555 1_555
H11 C7 1_555 1_555
C8 C7 1_555 1_555
H12 C8 1_555 1_555
C9 C8 1_555 1_555
H13 C9 1_555 1_555
C10 N3 1_555 1_555
Mn1B O5 1_555 1_555
O5B Mn1 1_555 1_555
N1 C1 1_555 1_555
N1 C2 1_555 1_555
N3 C4 1_555 1_555
C3 C4 1_555 1_555
C5 C10 1_555 1_555
C9 C10 1_555 1_555

#END
