
#######################################################################
#
#                 Cambridge Crystallographic Data Centre
#                                CCDC 
#
#######################################################################
#
# If this CIF has been generated from an entry in the Cambridge 
# Structural Database, then it will include bibliographic, chemical, 
# crystal, experimental, refinement or atomic coordinate data resulting 
# from the CCDC's data processing and validation procedures.
#
#######################################################################

data_YEHNOP
_symmetry_cell_setting           orthorhombic
_symmetry_space_group_name_H-M   'P b c a'
_symmetry_Int_Tables_number      61
_space_group_name_Hall           '-P 2ac 2ab'
loop_
_symmetry_equiv_pos_site_id
_symmetry_equiv_pos_as_xyz
1 x,y,z
2 1/2-x,-y,1/2+z
3 -x,1/2+y,1/2-z
4 1/2+x,1/2-y,-z
5 -x,-y,-z
6 1/2+x,y,1/2-z
7 x,1/2-y,1/2+z
8 1/2-x,1/2+y,z
_cell_length_a                   15.207(2)
_cell_length_b                   10.4626(16)
_cell_length_c                   16.794(3)
_cell_angle_alpha                90
_cell_angle_beta                 90
_cell_angle_gamma                90
_cell_volume                     2672.01
loop_
_atom_site_label
_atom_site_type_symbol
_atom_site_fract_x
_atom_site_fract_y
_atom_site_fract_z
Co1 Co 0.07167(4) 0.78813(6) 0.21411(4)
P1 P 0.24071(8) 0.67487(13) 0.28370(8)
P2 P -0.00969(8) 0.52500(11) 0.17185(8)
O1 O 0.1651(2) 0.7659(3) 0.2948(2)
O2 O 0.2704(2) 0.6052(3) 0.3566(2)
O3 O 0.3189(2) 0.7525(3) 0.2460(2)
H1 H 0.3658 0.7219 0.2609
O4 O -0.02438(19) 0.6574(3) 0.20735(19)
O5 O 0.00219(19) 0.4212(3) 0.23192(19)
O6 O -0.08368(19) 0.4932(3) 0.1104(2)
H2 H -0.1300 0.5261 0.1248
N1 N 0.1513(2) 0.6282(3) 0.1480(2)
N2 N 0.1095(2) 0.8764(3) 0.1125(2)
N3 N 0.1839(2) 0.8843(4) -0.0005(2)
H3 H 0.2182 0.8612 -0.0386
C1 C 0.2038(3) 0.5623(4) 0.2092(3)
H4 H 0.2542 0.5216 0.1845
H5 H 0.1685 0.4963 0.2342
C2 C 0.0867(3) 0.5412(4) 0.1098(3)
H6 H 0.1133 0.4579 0.1017
H7 H 0.0699 0.5750 0.0582
C3 C 0.2053(3) 0.6916(4) 0.0872(3)
H8 H 0.2095 0.6376 0.0404
H9 H 0.2642 0.7053 0.1076
C4 C 0.1651(3) 0.8169(4) 0.0650(3)
C5 C 0.0915(3) 0.9929(4) 0.0752(3)
C6 C 0.0389(3) 1.0942(4) 0.0980(3)
H10 H 0.0066 1.0916 0.1450
C7 C 0.0362(4) 1.1986(5) 0.0488(3)
H11 H 0.0016 1.2683 0.0631
C8 C 0.0837(3) 1.2032(5) -0.0217(4)
H12 H 0.0808 1.2764 -0.0530
C9 C 0.1350(3) 1.1026(5) -0.0467(3)
H13 H 0.1658 1.1045 -0.0945
C10 C 0.1377(3) 0.9979(5) 0.0044(3)
Co1B Co -0.07167(4) 0.28813(6) 0.28589(4)
O5B O -0.00219(19) 0.9212(3) 0.26808(19)
loop_
_geom_bond_atom_site_label_1
_geom_bond_atom_site_label_2
_geom_bond_site_symmetry_1
_geom_bond_site_symmetry_2
Co1 O1 1_555 1_555
P1 O1 1_555 1_555
P2 O4 1_555 1_555
O2 P1 1_555 1_555
O3 P1 1_555 1_555
H1 O3 1_555 1_555
O4 Co1 1_555 1_555
O5 P2 1_555 1_555
O6 P2 1_555 1_555
H2 O6 1_555 1_555
N1 Co1 1_555 1_555
N2 Co1 1_555 1_555
N3 H3 1_555 1_555
C1 P1 1_555 1_555
H4 C1 1_555 1_555
H5 C1 1_555 1_555
C2 P2 1_555 1_555
H6 C2 1_555 1_555
H7 C2 1_555 1_555
C3 N1 1_555 1_555
H8 C3 1_555 1_555
H9 C3 1_555 1_555
C4 N2 1_555 1_555
C5 N2 1_555 1_555
C6 C5 1_555 1_555
H10 C6 1_555 1_555
C7 C6 1_555 1_555
H11 C7 1_555 1_555
C8 C7 1_555 1_555
H12 C8 1_555 1_555
C9 C8 1_555 1_555
H13 C9 1_555 1_555
C10 N3 1_555 1_555
Co1B O5 1_555 1_555
O5B Co1 1_555 1_555
N1 C1 1_555 1_555
N1 C2 1_555 1_555
N3 C4 1_555 1_555
C3 C4 1_555 1_555
C5 C10 1_555 1_555
C9 C10 1_555 1_555

#END
