
#######################################################################
#
#                 Cambridge Crystallographic Data Centre
#                                CCDC 
#
#######################################################################
#
# If this CIF has been generated from an entry in the Cambridge 
# Structural Database, then it will include bibliographic, chemical, 
# crystal, experimental, refinement or atomic coordinate data resulting 
# from the CCDC's data processing and validation procedures.
#
#######################################################################

data_YEHNIJ
_symmetry_cell_setting           orthorhombic
_symmetry_space_group_name_H-M   'P b c a'
_symmetry_Int_Tables_number      61
_space_group_name_Hall           '-P 2ac 2ab'
loop_
_symmetry_equiv_pos_site_id
_symmetry_equiv_pos_as_xyz
1 x,y,z
2 1/2-x,-y,1/2+z
3 1/2+x,1/2-y,-z
4 -x,1/2+y,1/2-z
5 -x,-y,-z
6 1/2+x,y,1/2-z
7 1/2-x,1/2+y,z
8 x,1/2-y,1/2+z
_cell_length_a                   15.4679(19)
_cell_length_b                   10.8923(13)
_cell_length_c                   16.6175(19)
_cell_angle_alpha                90
_cell_angle_beta                 90
_cell_angle_gamma                90
_cell_volume                     2799.73
loop_
_atom_site_label
_atom_site_type_symbol
_atom_site_fract_x
_atom_site_fract_y
_atom_site_fract_z
Cd1 Cd 0.071023(19) 0.80095(3) 0.222991(17)
P1 P 0.24333(7) 0.66710(10) 0.28565(7)
P2 P -0.00362(7) 0.53313(9) 0.16728(6)
O1 O 0.17013(17) 0.7500(3) 0.30712(15)
O2 O 0.27992(19) 0.5892(3) 0.35132(18)
O3 O 0.3200(2) 0.7475(3) 0.24756(19)
H1 H 0.3667 0.7189 0.2614
O4 O -0.02509(19) 0.6538(2) 0.20922(16)
O5 O 0.0169(2) 0.4291(3) 0.2220(2)
O6 O -0.0768(2) 0.4986(3) 0.10560(18)
H2 H -0.1224 0.5307 0.1195
N1 N 0.1540(2) 0.6394(3) 0.14310(19)
N2 N 0.1136(2) 0.8869(3) 0.1090(2)
N3 N 0.1859(2) 0.8872(4) -0.0052(2)
H3 H 0.2185 0.8610 -0.0435
C1 C 0.2056(3) 0.5718(4) 0.2037(2)
H4 H 0.2552 0.5350 0.1772
H5 H 0.1706 0.5058 0.2255
C2 C 0.0892(3) 0.5646(4) 0.1047(2)
H6 H 0.1153 0.4873 0.0889
H7 H 0.0699 0.6058 0.0562
C3 C 0.2066(3) 0.7087(4) 0.0847(3)
H8 H 0.2133 0.6599 0.0363
H9 H 0.2637 0.7221 0.1072
C4 C 0.1680(3) 0.8291(4) 0.0630(2)
C5 C 0.0969(3) 0.9983(4) 0.0706(2)
C6 C 0.0464(3) 1.0966(4) 0.0935(3)
H10 H 0.0154 1.0958 0.1414
C7 C 0.0437(3) 1.1962(5) 0.0421(3)
H11 H 0.0108 1.2646 0.0555
C8 C 0.0900(3) 1.1951(5) -0.0297(3)
H12 H 0.0888 1.2645 -0.0622
C9 C 0.1375(3) 1.0949(4) -0.0545(3)
H13 H 0.1653 1.0929 -0.1041
C10 C 0.1411(3) 1.0008(4) -0.0028(3)
Cd1C Cd -0.071023(19) 0.30095(3) 0.277009(17)
O5C O -0.0169(2) 0.9291(3) 0.2780(2)
loop_
_geom_bond_atom_site_label_1
_geom_bond_atom_site_label_2
_geom_bond_site_symmetry_1
_geom_bond_site_symmetry_2
Cd1 O1 1_555 1_555
P1 O1 1_555 1_555
P2 O4 1_555 1_555
O2 P1 1_555 1_555
O3 P1 1_555 1_555
H1 O3 1_555 1_555
O4 Cd1 1_555 1_555
O5 P2 1_555 1_555
O6 P2 1_555 1_555
H2 O6 1_555 1_555
N1 Cd1 1_555 1_555
N2 Cd1 1_555 1_555
N3 H3 1_555 1_555
C1 P1 1_555 1_555
H4 C1 1_555 1_555
H5 C1 1_555 1_555
C2 P2 1_555 1_555
H6 C2 1_555 1_555
H7 C2 1_555 1_555
C3 N1 1_555 1_555
H8 C3 1_555 1_555
H9 C3 1_555 1_555
C4 N2 1_555 1_555
C5 N2 1_555 1_555
C6 C5 1_555 1_555
H10 C6 1_555 1_555
C7 C6 1_555 1_555
H11 C7 1_555 1_555
C8 C7 1_555 1_555
H12 C8 1_555 1_555
C9 C8 1_555 1_555
H13 C9 1_555 1_555
C10 N3 1_555 1_555
Cd1C O5 1_555 1_555
O5C Cd1 1_555 1_555
N1 C1 1_555 1_555
N1 C2 1_555 1_555
N3 C4 1_555 1_555
C3 C4 1_555 1_555
C5 C10 1_555 1_555
C9 C10 1_555 1_555

#END
