
#######################################################################
#
#                 Cambridge Crystallographic Data Centre
#                                CCDC 
#
#######################################################################
#
# If this CIF has been generated from an entry in the Cambridge 
# Structural Database, then it will include bibliographic, chemical, 
# crystal, experimental, refinement or atomic coordinate data resulting 
# from the CCDC's data processing and validation procedures.
#
#######################################################################

data_YEJBAQ
_symmetry_cell_setting           monoclinic
_symmetry_space_group_name_H-M   'C c'
_symmetry_Int_Tables_number      9
_space_group_name_Hall           'C -2yc'
loop_
_symmetry_equiv_pos_site_id
_symmetry_equiv_pos_as_xyz
1 x,y,z
2 x,-y,1/2+z
3 1/2+x,1/2+y,z
4 1/2+x,1/2-y,1/2+z
_cell_length_a                   7.0430(10)
_cell_length_b                   28.741(6)
_cell_length_c                   5.9400(10)
_cell_angle_alpha                90
_cell_angle_beta                 103.06(3)
_cell_angle_gamma                90
_cell_volume                     1171.29
loop_
_atom_site_label
_atom_site_type_symbol
_atom_site_fract_x
_atom_site_fract_y
_atom_site_fract_z
Cu1 Cu 0.78545(10) 0.04439(2) 0.16419(11)
O1 O 0.6529(4) 0.07120(12) 0.3798(7)
O2 O 0.9124(4) 0.02549(12) -0.0812(5)
O3 O 0.5508(4) 0.00809(12) 0.0488(6)
O4 O 1.1968(5) 0.03206(15) -0.1836(7)
N1 N 1.0062(5) 0.08349(13) 0.2684(7)
C1 C 0.8936(7) 0.12650(15) 0.5623(9)
C2 C 0.7151(6) 0.10279(14) 0.5372(8)
C3 C 0.5913(7) 0.11218(17) 0.6897(10)
C4 C 0.6414(8) 0.14404(19) 0.8592(10)
C5 C 0.8680(10) 0.20232(19) 1.0722(11)
C6 C 1.0379(12) 0.2264(2) 1.1062(12)
C7 C 1.1644(11) 0.2190(2) 0.9593(12)
C8 C 1.1204(9) 0.18765(19) 0.7809(11)
C9 C 0.9443(7) 0.16155(15) 0.7420(9)
C10 C 0.8171(8) 0.16992(16) 0.8902(9)
C11 C 1.0290(6) 0.11513(15) 0.4238(9)
C12 C 1.1575(6) 0.07450(17) 0.1417(9)
C13 C 1.0858(6) 0.04143(15) -0.0556(8)
H1 H 0.43784 0.02350 -0.04170
H2 H 0.59054 -0.01480 -0.04970
H3 H 0.47417 0.09617 0.67253
H4 H 0.55871 0.14921 0.95856
H5 H 0.78401 0.20727 1.17025
H6 H 1.06997 0.24767 1.22678
H7 H 1.28042 0.23566 0.98276
H8 H 1.20642 0.18341 0.68467
H9 H 1.14382 0.13228 0.44893
H10 H 1.27101 0.06133 0.24579
H11 H 1.19616 0.10358 0.08223
O2A O 0.9124(4) -0.02549(12) 0.4188(5)
Cu1A Cu 0.78545(10) -0.04439(2) -0.33581(11)
loop_
_geom_bond_atom_site_label_1
_geom_bond_atom_site_label_2
_geom_bond_site_symmetry_1
_geom_bond_site_symmetry_2
Cu1 O1 1_555 1_555
O1 C2 1_555 1_555
O2 Cu1 1_555 1_555
O3 Cu1 1_555 1_555
O4 C13 1_555 1_555
N1 Cu1 1_555 1_555
C1 C2 1_555 1_555
C2 C3 1_555 1_555
C3 C4 1_555 1_555
C4 C10 1_555 1_555
C5 C6 1_555 1_555
C6 C7 1_555 1_555
C7 C8 1_555 1_555
C8 C9 1_555 1_555
C9 C1 1_555 1_555
C10 C5 1_555 1_555
C11 N1 1_555 1_555
C12 N1 1_555 1_555
C13 O2 1_555 1_555
H1 O3 1_555 1_555
H2 O3 1_555 1_555
H3 C3 1_555 1_555
H4 C4 1_555 1_555
H5 C5 1_555 1_555
H6 C6 1_555 1_555
H7 C7 1_555 1_555
H8 C8 1_555 1_555
H9 C11 1_555 1_555
H10 C12 1_555 1_555
H11 C12 1_555 1_555
O2A Cu1 1_555 1_555
Cu1A O2 1_555 1_555
C1 C11 1_555 1_555
C9 C10 1_555 1_555
C12 C13 1_555 1_555

#END
