
#######################################################################
#
#                 Cambridge Crystallographic Data Centre
#                                CCDC 
#
#######################################################################
#
# If this CIF has been generated from an entry in the Cambridge 
# Structural Database, then it will include bibliographic, chemical, 
# crystal, experimental, refinement or atomic coordinate data resulting 
# from the CCDC's data processing and validation procedures.
#
#######################################################################

data_YEJPUZ
_symmetry_cell_setting           monoclinic
_symmetry_space_group_name_H-M   'C 2/m'
_symmetry_Int_Tables_number      12
_space_group_name_Hall           '-C 2y'
loop_
_symmetry_equiv_pos_site_id
_symmetry_equiv_pos_as_xyz
1 x,y,z
2 1/2+x,1/2+y,z
3 -x,y,-z
4 1/2-x,1/2+y,-z
5 -x,-y,-z
6 1/2-x,1/2-y,-z
7 x,-y,z
8 1/2+x,1/2-y,z
_cell_length_a                   19.122(2)
_cell_length_b                   18.499(2)
_cell_length_c                   7.2538(8)
_cell_angle_alpha                90
_cell_angle_beta                 91.424(2)
_cell_angle_gamma                90
_cell_volume                     2565.15
loop_
_atom_site_label
_atom_site_type_symbol
_atom_site_fract_x
_atom_site_fract_y
_atom_site_fract_z
O2 O 0.3121(6) 0.0892(7) 0.6713(19)
S1 S 0.2537(2) 0.05820(19) 0.5687(6)
C8 C 0.2912(7) 0.0000 0.4195(17)
C9 C 0.2076(5) 0.0000 0.7115(13)
O2F O 0.3121(6) -0.0892(7) 0.6713(19)
S1F S 0.2537(2) -0.05820(19) 0.5687(6)
O3 O 0.4939(12) 0.1629(16) 0.705(4)
C10 C 0.5353(16) 0.1221(19) 0.577(4)
O3B O 0.5061(12) 0.1629(16) 0.295(4)
C10B C 0.4647(16) 0.1221(19) 0.423(4)
O4 O 0.396(3) 0.0000 0.964(6)
Cu1 Cu 0.5000 0.42445(4) 0.5000
I1 I 0.421621(18) 0.5000 0.73180(4)
N1 N 0.42942(18) 0.3635(2) 0.3488(4)
O1 O 0.3140(2) 0.2274(3) -0.1708(5)
C1 C 0.3819(3) 0.3195(3) 0.4244(6)
H1 H 0.3813 0.3166 0.5524
C2 C 0.3344(3) 0.2786(3) 0.3258(6)
H2 H 0.3014 0.2515 0.3873
C3 C 0.3353(3) 0.2775(3) 0.1324(6)
C4 C 0.3821(3) 0.3247(4) 0.0546(6)
H3 H 0.3830 0.3294 -0.0730
C5 C 0.4278(3) 0.3656(3) 0.1654(6)
H4 H 0.4591 0.3961 0.1075
C6 C 0.2852(3) 0.2305(3) 0.0107(7)
C7 C 0.2777(3) 0.1569(3) 0.0987(9)
H5 H 0.2469 0.1276 0.0238
H6 H 0.2588 0.1622 0.2193
H7 H 0.3228 0.1341 0.1088
H8 H 0.306(3) 0.186(4) -0.204(9)
Cu1F Cu 0.5000 0.57555(4) 0.5000
Cu1G Cu 0.0000 0.07555(4) -0.5000
I1D I 0.578379(18) 0.5000 0.26820(4)
N1E N 0.07058(18) 0.1365(2) -0.3488(4)
N1B N 0.57058(18) 0.3635(2) 0.6512(4)
O1E O 0.1860(2) 0.2726(3) 0.1708(5)
C1E C 0.1181(3) 0.1805(3) -0.4244(6)
H1E H 0.1187 0.1834 -0.5524
C2E C 0.1656(3) 0.2214(3) -0.3258(6)
H2E H 0.1986 0.2485 -0.3873
C3E C 0.1647(3) 0.2225(3) -0.1324(6)
C4E C 0.1179(3) 0.1753(4) -0.0546(6)
H3E H 0.1170 0.1706 0.0730
C5E C 0.0722(3) 0.1344(3) -0.1654(6)
H4E H 0.0409 0.1039 -0.1075
C6E C 0.2148(3) 0.2695(3) -0.0107(7)
C7E C 0.2223(3) 0.3431(3) -0.0987(9)
H5E H 0.2531 0.3724 -0.0238
H6E H 0.2412 0.3378 -0.2193
H7E H 0.1772 0.3659 -0.1088
H8E H 0.194(3) 0.314(4) 0.204(9)
loop_
_geom_bond_atom_site_label_1
_geom_bond_atom_site_label_2
_geom_bond_site_symmetry_1
_geom_bond_site_symmetry_2
Cu1 I1 1_555 1_555
I1 Cu1F 1_555 1_555
N1 Cu1 1_555 1_555
O1 C6 1_555 1_555
O2 S1 1_555 1_555
O3 C10 1_555 1_555
S1 C8 1_555 1_555
C1 N1 1_555 1_555
H1 C1 1_555 1_555
C2 C1 1_555 1_555
H2 C2 1_555 1_555
C3 C2 1_555 1_555
C4 C3 1_555 1_555
H3 C4 1_555 1_555
C5 N1 1_555 1_555
H4 C5 1_555 1_555
C6 C3 1_555 1_555
C7 C6 1_555 1_555
H5 C7 1_555 1_555
H6 C7 1_555 1_555
H7 C7 1_555 1_555
C8 S1F 1_555 1_555
C9 S1 1_555 1_555
C10 C10B 1_555 1_555
H8 O1 1_555 1_555
Cu1F I1D 1_555 1_555
Cu1G N1E 1_555 1_555
I1D Cu1 1_555 1_555
N1E C1E 1_555 1_555
N1B Cu1 1_555 1_555
O1E C6E 1_555 1_555
O2F S1F 1_555 1_555
O3B C10B 1_555 1_555
S1F C9 1_555 1_555
C1E H1E 1_555 1_555
C2E C1E 1_555 1_555
H2E C2E 1_555 1_555
C3E C2E 1_555 1_555
C4E C3E 1_555 1_555
H3E C4E 1_555 1_555
C5E N1E 1_555 1_555
H4E C5E 1_555 1_555
C6E C6 1_555 1_555
C7E C6E 1_555 1_555
H5E C7E 1_555 1_555
H6E C7E 1_555 1_555
H7E C7E 1_555 1_555
H8E O1E 1_555 1_555
C4 C5 1_555 1_555
C3E C6E 1_555 1_555
C4E C5E 1_555 1_555

#END
