
#######################################################################
#
#                 Cambridge Crystallographic Data Centre
#                                CCDC 
#
#######################################################################
#
# If this CIF has been generated from an entry in the Cambridge 
# Structural Database, then it will include bibliographic, chemical, 
# crystal, experimental, refinement or atomic coordinate data resulting 
# from the CCDC's data processing and validation procedures.
#
#######################################################################

data_YEJXOC
_symmetry_cell_setting           monoclinic
_symmetry_space_group_name_H-M   'C c'
_symmetry_Int_Tables_number      9
_space_group_name_Hall           'C -2yc'
loop_
_symmetry_equiv_pos_site_id
_symmetry_equiv_pos_as_xyz
1 x,y,z
2 x,-y,1/2+z
3 1/2+x,1/2+y,z
4 1/2+x,1/2-y,1/2+z
_cell_length_a                   4.7995(10)
_cell_length_b                   29.342(6)
_cell_length_c                   5.6313(11)
_cell_angle_alpha                90
_cell_angle_beta                 91.59(3)
_cell_angle_gamma                90
_cell_volume                     792.733
loop_
_atom_site_label
_atom_site_type_symbol
_atom_site_fract_x
_atom_site_fract_y
_atom_site_fract_z
Zn1 Zn 0.46872(14) 0.24223(2) 0.49955(14)
P1 P 0.4130(2) 0.19363(4) 0.9944(3)
O4 O 0.2662(8) 0.21346(15) 0.7725(7)
O5 O 0.7707(10) 0.18934(15) 0.4921(8)
H1 H 0.8365 0.1898 0.3555
H2 H 0.8344 0.1839 0.6297
O6 O 0.2718(8) 0.21669(14) 1.2046(8)
O7 O 0.7258(9) 0.19988(15) 0.9979(8)
N2 N 0.3673(15) 0.05938(19) 0.8050(12)
H3 H 0.4059 0.0456 0.6689
H4 H 0.4823 0.0492 0.9197
H5 H 0.1921 0.0534 0.8422
C1 C 0.3381(13) 0.1335(2) 1.0082(11)
H6 H 0.1426 0.1293 1.0416
H7 H 0.4472 0.1200 1.1376
C2 C 0.4032(19) 0.1092(2) 0.7785(14)
H8 H 0.5935 0.1157 0.7360
H9 H 0.2800 0.1202 0.6517
Zn1C Zn -0.03128(14) 0.25777(2) 0.99955(14)
Zn1_2 Zn 0.46872(14) 0.24223(2) 1.49955(14)
Zn1C_2 Zn 0.96872(14) 0.25777(2) 0.99955(14)
O6C O 0.7718(8) 0.28331(14) 0.7046(8)
O6_2 O 0.2718(8) 0.21669(14) 0.2046(8)
O7C O 0.2258(9) 0.30012(15) 0.4979(8)
O1 O 0.3706(14) 0.4514(3) 0.5760(12)
O2 O 0.7107(17) 0.4641(3) 0.8210(19)
O3 O 0.358(2) 0.4335(4) 0.9493(18)
N1 N 0.4668(19) 0.4503(3) 0.7786(15)
loop_
_geom_bond_atom_site_label_1
_geom_bond_atom_site_label_2
_geom_bond_site_symmetry_1
_geom_bond_site_symmetry_2
Zn1 O4 1_555 1_555
P1 O4 1_555 1_555
O1 N1 1_555 1_555
O2 N1 1_555 1_555
O3 N1 1_555 1_555
O5 Zn1 1_555 1_555
H1 O5 1_555 1_555
H2 O5 1_555 1_555
O6 P1 1_555 1_555
O7 P1 1_555 1_555
N2 H3 1_555 1_555
H4 N2 1_555 1_555
H5 N2 1_555 1_555
C1 P1 1_555 1_555
H6 C1 1_555 1_555
H7 C1 1_555 1_555
C2 N2 1_555 1_555
H8 C2 1_555 1_555
H9 C2 1_555 1_555
Zn1C O6 1_555 1_555
Zn1_2 O6 1_555 1_555
Zn1C_2 O7 1_555 1_555
O6C Zn1 1_555 1_555
O6_2 Zn1 1_555 1_555
O7C Zn1 1_555 1_555
C1 C2 1_555 1_555
Zn1C_2 O6C 1_555 1_555

#END
