
#######################################################################
#
#                 Cambridge Crystallographic Data Centre
#                                CCDC 
#
#######################################################################
#
# If this CIF has been generated from an entry in the Cambridge 
# Structural Database, then it will include bibliographic, chemical, 
# crystal, experimental, refinement or atomic coordinate data resulting 
# from the CCDC's data processing and validation procedures.
#
#######################################################################

data_YEJZUJ
_symmetry_cell_setting           monoclinic
_symmetry_space_group_name_H-M   'P 21/n'
_symmetry_Int_Tables_number      14
_space_group_name_Hall           '-P 2yn'
loop_
_symmetry_equiv_pos_site_id
_symmetry_equiv_pos_as_xyz
1 x,y,z
2 1/2-x,1/2+y,1/2-z
3 -x,-y,-z
4 1/2+x,1/2-y,1/2+z
_cell_length_a                   10.8793(8)
_cell_length_b                   9.9739(7)
_cell_length_c                   21.7182(16)
_cell_angle_alpha                90
_cell_angle_beta                 101.5910(10)
_cell_angle_gamma                90
_cell_volume                     2308.56
loop_
_atom_site_label
_atom_site_type_symbol
_atom_site_fract_x
_atom_site_fract_y
_atom_site_fract_z
Sn1 Sn 0.307674(17) -0.02353(2) 0.778067(9)
O1 O 0.4447(2) 0.1389(2) 0.81262(10)
O2 O 0.3276(2) 0.2896(2) 0.75211(10)
N1 N 0.5683(2) 0.3372(3) 0.89063(12)
N2 N 0.5515(3) 0.4202(3) 0.93785(13)
N3 N 0.5892(2) 0.4090(3) 0.78807(12)
N4 N 0.6426(3) 0.3133(3) 0.75806(13)
C1 C 0.4179(3) 0.2572(3) 0.79461(13)
C2 C 0.5029(3) 0.3696(3) 0.82764(13)
H1 H 0.4491 0.4470 0.8308
C3 C 0.6573(3) 0.2434(4) 0.91037(16)
H2 H 0.6843 0.1774 0.8859
C4 C 0.6998(3) 0.2643(4) 0.97332(17)
H3 H 0.7609 0.2159 1.0004
C5 C 0.6312(3) 0.3747(4) 0.98803(17)
H4 H 0.6403 0.4116 1.0280
C6 C 0.7263(3) 0.3809(4) 0.73309(16)
H5 H 0.7781 0.3413 0.7090
C7 C 0.7278(3) 0.5173(4) 0.74701(17)
H6 H 0.7780 0.5835 0.7347
C8 C 0.6385(3) 0.5321(3) 0.78306(16)
H7 H 0.6163 0.6113 0.8006
C9 C 0.3135(3) 0.0006(3) 0.68035(15)
H8 H 0.2724 -0.0755 0.6570
H9 H 0.2670 0.0806 0.6645
C10 C 0.4470(3) 0.0119(4) 0.66885(16)
H10 H 0.4887 0.0868 0.6929
H11 H 0.4929 -0.0690 0.6838
C11 C 0.4504(4) 0.0321(4) 0.5997(2)
H12 H 0.4053 0.1136 0.5850
H13 H 0.4074 -0.0421 0.5757
C12 C 0.5834(5) 0.0415(5) 0.5873(3)
H14 H 0.6273 0.1136 0.6115
H15 H 0.5797 0.0581 0.5434
H16 H 0.6269 -0.0412 0.5990
C13 C 0.1725(3) 0.0660(3) 0.82449(15)
H17 H 0.2143 0.1346 0.8528
H18 H 0.1095 0.1102 0.7931
C14 C 0.1063(3) -0.0297(4) 0.86185(17)
H19 H 0.1688 -0.0760 0.8927
H20 H 0.0612 -0.0965 0.8336
C15 C 0.0144(4) 0.0415(4) 0.89548(19)
H21 H 0.0607 0.1005 0.9274
H22 H -0.0421 0.0964 0.8655
C16 C -0.0621(5) -0.0569(5) 0.9261(2)
H23 H -0.1127 -0.1112 0.8943
H24 H -0.1154 -0.0082 0.9485
H25 H -0.0065 -0.1133 0.9549
C17 C 0.4396(3) -0.1613(3) 0.83009(14)
H26 H 0.4002 -0.2488 0.8288
H27 H 0.5103 -0.1692 0.8093
C18 C 0.4895(3) -0.1235(3) 0.89908(15)
H28 H 0.5186 -0.0314 0.9011
H29 H 0.4213 -0.1288 0.9217
C19 C 0.5963(3) -0.2134(4) 0.93137(16)
H30 H 0.6641 -0.2092 0.9084
H31 H 0.5669 -0.3054 0.9300
C20 C 0.6467(4) -0.1737(4) 0.99970(18)
H32 H 0.6764 -0.0828 1.0013
H33 H 0.7145 -0.2322 1.0177
H34 H 0.5809 -0.1809 1.0230
Sn1A Sn 0.192326(17) 0.47647(2) 0.721933(9)
O2A O 0.1724(2) -0.2104(2) 0.74789(10)
loop_
_geom_bond_atom_site_label_1
_geom_bond_atom_site_label_2
_geom_bond_site_symmetry_1
_geom_bond_site_symmetry_2
Sn1 O1 1_555 1_555
O1 C1 1_555 1_555
O2 C1 1_555 1_555
N1 N2 1_555 1_555
N2 C5 1_555 1_555
N3 N4 1_555 1_555
N4 C6 1_555 1_555
C1 C2 1_555 1_555
C2 N1 1_555 1_555
H1 C2 1_555 1_555
C3 N1 1_555 1_555
H2 C3 1_555 1_555
C4 C3 1_555 1_555
H3 C4 1_555 1_555
C5 C4 1_555 1_555
H4 C5 1_555 1_555
C6 H5 1_555 1_555
C7 C6 1_555 1_555
H6 C7 1_555 1_555
C8 N3 1_555 1_555
H7 C8 1_555 1_555
C9 Sn1 1_555 1_555
H8 C9 1_555 1_555
H9 C9 1_555 1_555
C10 C9 1_555 1_555
H10 C10 1_555 1_555
H11 C10 1_555 1_555
C11 C10 1_555 1_555
H12 C11 1_555 1_555
H13 C11 1_555 1_555
C12 C11 1_555 1_555
H14 C12 1_555 1_555
H15 C12 1_555 1_555
H16 C12 1_555 1_555
C13 Sn1 1_555 1_555
H17 C13 1_555 1_555
H18 C13 1_555 1_555
C14 C13 1_555 1_555
H19 C14 1_555 1_555
H20 C14 1_555 1_555
C15 C14 1_555 1_555
H21 C15 1_555 1_555
H22 C15 1_555 1_555
C16 C15 1_555 1_555
H23 C16 1_555 1_555
H24 C16 1_555 1_555
H25 C16 1_555 1_555
C17 Sn1 1_555 1_555
H26 C17 1_555 1_555
H27 C17 1_555 1_555
C18 C17 1_555 1_555
H28 C18 1_555 1_555
H29 C18 1_555 1_555
C19 C18 1_555 1_555
H30 C19 1_555 1_555
H31 C19 1_555 1_555
C20 C19 1_555 1_555
H32 C20 1_555 1_555
H33 C20 1_555 1_555
H34 C20 1_555 1_555
Sn1A O2 1_555 1_555
O2A Sn1 1_555 1_555
N3 C2 1_555 1_555
C7 C8 1_555 1_555

#END
