
#######################################################################
#
#                 Cambridge Crystallographic Data Centre
#                                CCDC 
#
#######################################################################
#
# If this CIF has been generated from an entry in the Cambridge 
# Structural Database, then it will include bibliographic, chemical, 
# crystal, experimental, refinement or atomic coordinate data resulting 
# from the CCDC's data processing and validation procedures.
#
#######################################################################

data_YEKBAS
_symmetry_cell_setting           monoclinic
_symmetry_space_group_name_H-M   'P 21/c'
_symmetry_Int_Tables_number      14
_space_group_name_Hall           '-P 2ybc'
loop_
_symmetry_equiv_pos_site_id
_symmetry_equiv_pos_as_xyz
1 x,y,z
2 -x,1/2+y,1/2-z
3 -x,-y,-z
4 x,1/2-y,1/2+z
_cell_length_a                   12.5479(7)
_cell_length_b                   17.7820(10)
_cell_length_c                   13.9689(8)
_cell_angle_alpha                90
_cell_angle_beta                 93.0340(10)
_cell_angle_gamma                90
_cell_volume                     3112.47
loop_
_atom_site_label
_atom_site_type_symbol
_atom_site_fract_x
_atom_site_fract_y
_atom_site_fract_z
Sn1 Sn 0.230090(14) 0.169034(10) 0.661832(12)
O1 O 0.17937(15) 0.23659(11) 0.77650(14)
O2 O 0.34267(15) 0.28325(13) 0.81319(15)
N1 N 0.27299(17) 0.41267(13) 1.01667(15)
N2 N 0.26067(17) 0.39529(13) 0.92201(15)
N3 N 0.09232(18) 0.36370(14) 0.84292(16)
N4 N 0.0956(2) 0.40123(15) 0.75831(17)
C1 C 0.0661(2) 0.14805(16) 0.62603(19)
C2 C -0.0045(2) 0.20880(17) 0.6261(2)
H1 H 0.0219 0.2577 0.6410
C3 C -0.1129(2) 0.1985(2) 0.6047(2)
H2 H -0.1601 0.2404 0.6033
C4 C -0.1518(2) 0.1270(2) 0.5854(2)
H3 H -0.2261 0.1198 0.5720
C5 C -0.0835(2) 0.06611(18) 0.5856(2)
H4 H -0.1108 0.0171 0.5727
C6 C 0.0253(2) 0.07676(16) 0.6045(2)
H5 H 0.0724 0.0350 0.6028
C7 C 0.3233(2) 0.08784(17) 0.7385(2)
C8 C 0.4353(3) 0.0940(2) 0.7445(2)
H6 H 0.4682 0.1373 0.7192
C9 C 0.4973(4) 0.0385(3) 0.7862(3)
H7 H 0.5727 0.0437 0.7903
C10 C 0.4511(5) -0.0242(3) 0.8218(3)
H8 H 0.4948 -0.0633 0.8487
C11 C 0.3416(5) -0.0315(2) 0.8193(3)
H9 H 0.3101 -0.0748 0.8460
C12 C 0.2768(3) 0.02523(19) 0.7771(2)
H10 H 0.2013 0.0205 0.7753
C13 C 0.3055(2) 0.25722(16) 0.58795(19)
C14 C 0.4054(3) 0.2489(2) 0.5504(2)
H11 H 0.4411 0.2018 0.5549
C15 C 0.4531(3) 0.3094(2) 0.5062(2)
H12 H 0.5223 0.3040 0.4826
C16 C 0.4002(4) 0.3771(2) 0.4967(2)
H13 H 0.4326 0.4180 0.4654
C17 C 0.3019(3) 0.3859(2) 0.5319(3)
H14 H 0.2654 0.4325 0.5242
C18 C 0.2543(3) 0.32646(17) 0.5793(2)
H15 H 0.1868 0.3334 0.6056
C19 C 0.3394(2) 0.47174(16) 1.0197(2)
H16 H 0.3635 0.4967 1.0769
C20 C 0.3686(2) 0.49182(17) 0.9287(2)
H17 H 0.4148 0.5316 0.9122
C21 C 0.3169(2) 0.44230(17) 0.8678(2)
H18 H 0.3199 0.4411 0.8000
C22 C -0.0086(2) 0.34876(17) 0.8667(2)
H19 H -0.0295 0.3226 0.9220
C23 C -0.0749(2) 0.37866(19) 0.7954(2)
H20 H -0.1507 0.3779 0.7909
C24 C -0.0064(2) 0.41072(18) 0.7306(2)
H21 H -0.0301 0.4362 0.6736
C25 C 0.1903(2) 0.33518(15) 0.88841(19)
H22 H 0.1710 0.3053 0.9456
C26 C 0.2466(2) 0.28134(16) 0.81989(18)
Sn1C Sn 0.230090(14) 0.330966(10) 1.161832(12)
N1C N 0.27299(17) 0.08733(13) 0.51667(15)
C27 C 0.8973(5) 0.1206(5) 0.8549(4)
H23 H 0.8977 0.0835 0.8022
H24 H 0.8888 0.1712 0.8258
Cl1 Cl 1.01809(15) 0.11666(13) 0.91995(14)
Cl2 Cl 0.78861(18) 0.10253(14) 0.92445(19)
C28 C 0.5760(3) 0.2101(2) 0.3017(3)
H25 H 0.5245 0.2474 0.3244
H26 H 0.5350 0.1699 0.2671
Cl3 Cl 0.64779(11) 0.17123(7) 0.40002(10)
Cl4 Cl 0.66092(9) 0.25381(8) 0.22312(9)
loop_
_geom_bond_atom_site_label_1
_geom_bond_atom_site_label_2
_geom_bond_site_symmetry_1
_geom_bond_site_symmetry_2
Sn1 O1 1_555 1_555
O1 C26 1_555 1_555
O2 C26 1_555 1_555
N1 N2 1_555 1_555
N2 C21 1_555 1_555
N3 N4 1_555 1_555
N4 C24 1_555 1_555
C1 Sn1 1_555 1_555
C2 C1 1_555 1_555
H1 C2 1_555 1_555
C3 C2 1_555 1_555
H2 C3 1_555 1_555
C4 C3 1_555 1_555
H3 C4 1_555 1_555
C5 C4 1_555 1_555
H4 C5 1_555 1_555
C6 C1 1_555 1_555
H5 C6 1_555 1_555
C7 Sn1 1_555 1_555
C8 C7 1_555 1_555
H6 C8 1_555 1_555
C9 C8 1_555 1_555
H7 C9 1_555 1_555
C10 C9 1_555 1_555
H8 C10 1_555 1_555
C11 C10 1_555 1_555
H9 C11 1_555 1_555
C12 C7 1_555 1_555
H10 C12 1_555 1_555
C13 Sn1 1_555 1_555
C14 C13 1_555 1_555
H11 C14 1_555 1_555
C15 C14 1_555 1_555
H12 C15 1_555 1_555
C16 C15 1_555 1_555
H13 C16 1_555 1_555
C17 C16 1_555 1_555
H14 C17 1_555 1_555
C18 C13 1_555 1_555
H15 C18 1_555 1_555
C19 N1 1_555 1_555
H16 C19 1_555 1_555
C20 C19 1_555 1_555
H17 C20 1_555 1_555
C21 C20 1_555 1_555
H18 C21 1_555 1_555
C22 N3 1_555 1_555
H19 C22 1_555 1_555
C23 C22 1_555 1_555
H20 C23 1_555 1_555
C24 C23 1_555 1_555
H21 C24 1_555 1_555
C25 N2 1_555 1_555
H22 C25 1_555 1_555
C26 C25 1_555 1_555
C27 H23 1_555 1_555
H24 C27 1_555 1_555
Cl1 C27 1_555 1_555
Cl2 C27 1_555 1_555
C28 H25 1_555 1_555
H26 C28 1_555 1_555
Cl3 C28 1_555 1_555
Cl4 C28 1_555 1_555
Sn1C N1 1_555 1_555
N1C Sn1 1_555 1_555
N3 C25 1_555 1_555
C5 C6 1_555 1_555
C11 C12 1_555 1_555
C17 C18 1_555 1_555

#END
