
#######################################################################
#
#                 Cambridge Crystallographic Data Centre
#                                CCDC 
#
#######################################################################
#
# If this CIF has been generated from an entry in the Cambridge 
# Structural Database, then it will include bibliographic, chemical, 
# crystal, experimental, refinement or atomic coordinate data resulting 
# from the CCDC's data processing and validation procedures.
#
#######################################################################

data_YEKDOJ
_symmetry_cell_setting           triclinic
_symmetry_space_group_name_H-M   'P -1'
_symmetry_Int_Tables_number      2
_space_group_name_Hall           '-P 1'
loop_
_symmetry_equiv_pos_site_id
_symmetry_equiv_pos_as_xyz
1 x,y,z
2 -x,-y,-z
_cell_length_a                   7.9751(16)
_cell_length_b                   9.0805(18)
_cell_length_c                   15.985(3)
_cell_angle_alpha                81.83(3)
_cell_angle_beta                 89.24(3)
_cell_angle_gamma                75.51(3)
_cell_volume                     1109.1
loop_
_atom_site_label
_atom_site_type_symbol
_atom_site_fract_x
_atom_site_fract_y
_atom_site_fract_z
C1 C 1.1591(9) 0.3227(9) 0.7251(5)
C2 C 1.1446(10) 0.2384(9) 0.6605(5)
C3 C 1.2119(11) 0.0798(10) 0.6754(6)
H1 H 1.2029 0.0200 0.6339
C4 C 1.2927(12) 0.0114(10) 0.7530(6)
H2 H 1.3370 -0.0946 0.7641
C5 C 1.3060(11) 0.1025(10) 0.8129(6)
H3 H 1.3597 0.0567 0.8647
C6 C 1.0860(10) 0.4943(10) 0.7194(5)
C7 C 1.0570(10) 0.3129(9) 0.5747(5)
C8 C 1.2779(11) 0.4982(9) 1.0338(5)
C9 C 1.2514(10) 0.5829(10) 1.1007(5)
C10 C 1.1329(12) 0.7258(11) 1.0883(6)
H4 H 1.1122 0.7852 1.1320
C11 C 1.0461(12) 0.7802(11) 1.0121(6)
H5 H 0.9637 0.8741 1.0043
C12 C 1.0838(12) 0.6926(10) 0.9471(6)
H6 H 1.0299 0.7305 0.8945
C13 C 1.3818(10) 0.3294(10) 1.0394(6)
C14 C 1.3518(11) 0.5323(10) 1.1842(5)
C15 C 0.6512(10) 0.9839(9) 0.5979(6)
H7 H 0.6159 0.9831 0.5428
C16 C 0.6352(10) 1.1253(9) 0.6245(5)
C17 C 0.6914(12) 1.1252(11) 0.7094(6)
H8 H 0.6855 1.2171 0.7300
C18 C 0.7541(14) 0.9863(11) 0.7597(6)
H9 H 0.7916 0.9828 0.8150
C19 C 0.7606(11) 0.8524(9) 0.7268(6)
H10 H 0.7992 0.7595 0.7622
C20 C 0.5556(10) 1.2737(10) 0.5696(6)
Cu1 Cu 1.26060(13) 0.41145(12) 0.87340(7)
Gd1 Gd 0.70103(5) 0.58305(5) 0.60319(3)
N1 N 1.2436(9) 0.2563(8) 0.7988(4)
N2 N 1.1957(9) 0.5547(8) 0.9582(4)
N3 N 0.7141(8) 0.8481(8) 0.6461(5)
O1 O 1.1187(7) 0.5548(6) 0.7824(4)
O2 O 1.0011(7) 0.5673(6) 0.6547(3)
O3 O 0.8917(7) 0.3532(6) 0.5723(4)
O4 O 1.1510(7) 0.3180(7) 0.5139(4)
O5 O 1.3856(8) 0.2732(7) 0.9701(4)
O6 O 1.4468(10) 0.2630(8) 1.1053(4)
O7 O 1.5093(8) 0.5249(8) 1.1868(4)
O8 O 1.2608(7) 0.5108(7) 1.2478(4)
O9 O 0.5057(7) 1.2615(6) 0.4968(4)
O10 O 0.5429(7) 1.3988(6) 0.5968(4)
O11 O 0.4314(9) 0.6837(8) 0.6693(5)
H11 H 0.405(10) 0.647(9) 0.706(5)
H12 H 0.334(19) 0.715(16) 0.644(9)
Cu1A Cu 1.73940(13) 0.58855(12) 1.12660(7)
Gd1A Gd 1.29897(5) 0.41695(5) 0.39681(3)
Gd1A_2 Gd 1.29897(5) 0.41695(5) 1.39681(3)
Gd1A_3 Gd 0.29897(5) 1.41695(5) 0.39681(3)
Gd1_2 Gd 0.70103(5) 1.58305(5) 0.60319(3)
O4A O 0.8490(7) 0.6820(7) 0.4861(4)
O7A O 1.4907(8) 0.4751(8) 0.8132(4)
O8A O 0.7392(7) 0.4892(7) 0.7522(4)
O9A O 0.4943(7) 0.7385(6) 0.5032(4)
O10_2 O 0.5429(7) 0.3988(6) 0.5968(4)
O12 O 0.1271(12) 0.8163(11) 0.5754(6)
H13 H 0.059(14) 0.812(15) 0.584(8)
O13 O 0.6792(14) 0.0229(13) 0.9640(8)
loop_
_geom_bond_atom_site_label_1
_geom_bond_atom_site_label_2
_geom_bond_site_symmetry_1
_geom_bond_site_symmetry_2
C1 C2 1_555 1_555
C2 C3 1_555 1_555
C3 H1 1_555 1_555
C4 C3 1_555 1_555
H2 C4 1_555 1_555
C5 C4 1_555 1_555
H3 C5 1_555 1_555
C6 C1 1_555 1_555
C7 C2 1_555 1_555
C8 C9 1_555 1_555
C9 C10 1_555 1_555
C10 H4 1_555 1_555
C11 C10 1_555 1_555
H5 C11 1_555 1_555
C12 C11 1_555 1_555
H6 C12 1_555 1_555
C13 C8 1_555 1_555
C14 C9 1_555 1_555
C15 H7 1_555 1_555
C16 C15 1_555 1_555
C17 C16 1_555 1_555
H8 C17 1_555 1_555
C18 C17 1_555 1_555
H9 C18 1_555 1_555
C19 C18 1_555 1_555
H10 C19 1_555 1_555
C20 C16 1_555 1_555
Cu1 N1 1_555 1_555
Gd1 N3 1_555 1_555
N1 C1 1_555 1_555
N2 C8 1_555 1_555
N3 C15 1_555 1_555
O1 C6 1_555 1_555
O2 C6 1_555 1_555
O3 C7 1_555 1_555
O4 C7 1_555 1_555
O5 C13 1_555 1_555
O6 C13 1_555 1_555
O7 C14 1_555 1_555
O8 C14 1_555 1_555
O9 C20 1_555 1_555
O10 C20 1_555 1_555
O11 Gd1 1_555 1_555
H11 O11 1_555 1_555
H12 O11 1_555 1_555
O12 H13 1_555 1_555
Cu1A O7 1_555 1_555
Gd1A O4 1_555 1_555
Gd1A_2 O8 1_555 1_555
Gd1A_3 O9 1_555 1_555
Gd1_2 O10 1_555 1_555
O4A Gd1 1_555 1_555
O7A Cu1 1_555 1_555
O8A Gd1 1_555 1_555
O9A Gd1 1_555 1_555
O10_2 Gd1 1_555 1_555
C5 N1 1_555 1_555
C12 N2 1_555 1_555
C19 N3 1_555 1_555
Cu1 N2 1_555 1_555
Cu1 O1 1_555 1_555
Cu1 O5 1_555 1_555
Gd1 O2 1_555 1_555
Gd1 O3 1_555 1_555

#END
