
#######################################################################
#
#                 Cambridge Crystallographic Data Centre
#                                CCDC 
#
#######################################################################
#
# If this CIF has been generated from an entry in the Cambridge 
# Structural Database, then it will include bibliographic, chemical, 
# crystal, experimental, refinement or atomic coordinate data resulting 
# from the CCDC's data processing and validation procedures.
#
#######################################################################

data_YEKDEZ
_symmetry_cell_setting           triclinic
_symmetry_space_group_name_H-M   'P -1'
_symmetry_Int_Tables_number      2
_space_group_name_Hall           '-P 1'
loop_
_symmetry_equiv_pos_site_id
_symmetry_equiv_pos_as_xyz
1 x,y,z
2 -x,-y,-z
_cell_length_a                   10.653(2)
_cell_length_b                   11.033(2)
_cell_length_c                   11.599(2)
_cell_angle_alpha                100.99(3)
_cell_angle_beta                 112.64(3)
_cell_angle_gamma                100.08(3)
_cell_volume                     1187.82
loop_
_atom_site_label
_atom_site_type_symbol
_atom_site_fract_x
_atom_site_fract_y
_atom_site_fract_z
La1 La 0.69864(3) 0.15053(2) 0.13439(2)
Cu1 Cu 1.19739(6) 0.29397(5) 0.62114(5)
O1 O 0.9465(3) 0.1361(3) 0.2024(3)
O2 O 1.1191(3) 0.2387(3) 0.4003(3)
O3 O 0.7805(3) 0.0446(3) 0.3197(3)
O4 O 0.7244(3) -0.1510(3) 0.3395(3)
O5 O 0.8642(3) 0.5492(3) 0.3723(3)
O6 O 0.7899(3) 0.3380(3) 0.3356(3)
O7 O 0.5021(4) 0.1897(3) 0.4088(4)
O8 O 0.5214(3) 0.1634(3) 0.2225(3)
O9 O 0.5457(3) 0.2887(3) 0.0202(3)
O10 O 0.4145(3) 0.0878(3) -0.0464(3)
O11 O 0.8414(4) 0.3327(3) 0.0907(4)
O12 O 0.6899(4) 0.0668(4) -0.0899(3)
N1 N 0.9690(4) -0.1880(3) 0.3720(4)
N2 N 0.6241(4) 0.5881(3) 0.3498(4)
C1 C 0.0775(6) 0.2356(5) -0.0270(5)
H1 H -0.0004 0.1889 -0.0212
N3 N 0.1957(5) 0.4314(4) -0.0467(5)
C2 C 0.6296(4) 0.4647(4) 0.3413(4)
C3 C 0.4285(5) 0.2086(4) -0.0207(4)
C4 C 0.9491(4) -0.0763(4) 0.3469(4)
C5 C 0.5180(5) 0.3691(4) 0.3286(4)
C6 C 1.0368(5) 0.1393(4) 0.3127(4)
C7 C 1.1820(5) -0.0169(4) 0.3596(4)
H2 H 1.2547 0.0408 0.3564
C8 C 0.3027(5) 0.2575(4) -0.0296(4)
C9 C 0.3899(5) 0.5285(5) 0.3310(5)
H3 H 0.3082 0.5511 0.3261
C10 C 0.3973(5) 0.4050(4) 0.3258(5)
H4 H 0.3212 0.3442 0.3204
C11 C 0.3021(5) 0.3806(5) -0.0405(5)
H5 H 0.3801 0.4303 -0.0437
C12 C 1.2000(5) -0.1321(4) 0.3842(5)
H6 H 1.2842 -0.1530 0.3967
C13 C 0.0865(6) 0.3581(5) -0.0396(6)
H7 H 0.0115 0.3921 -0.0434
C14 C 0.7707(5) 0.4468(4) 0.3496(4)
C15 C 1.0912(5) -0.2157(4) 0.3901(5)
H8 H 1.1033 -0.2930 0.4070
C16 C 1.0537(4) 0.0125(4) 0.3395(4)
C17 C 0.8077(4) -0.0571(4) 0.3333(4)
C18 C 0.5178(5) 0.2303(4) 0.3230(5)
C19 C 0.1880(5) 0.1842(4) -0.0233(5)
H9 H 0.1849 0.1012 -0.0166
C20 C 0.5053(5) 0.6192(4) 0.3435(5)
H10 H 0.5009 0.7033 0.3477
H11 H 0.814(6) 0.394(5) 0.077(5)
H12 H 0.660(7) 0.110(7) -0.159(7)
H13 H 0.926(6) 0.365(5) 0.150(5)
H14 H 0.635(9) -0.011(8) -0.126(8)
La1A La 0.30136(3) -0.15053(2) -0.13439(2)
Cu1A Cu 0.80261(6) -0.29397(5) 0.37886(5)
Cu1A_2 Cu 0.80261(6) 0.70603(5) 0.37886(5)
O4A O 1.2756(3) 0.1510(3) 0.6605(3)
O5A O 1.1358(3) 0.4508(3) 0.6277(3)
O10A O 0.5855(3) -0.0878(3) 0.0464(3)
N1A N 1.0310(4) 0.1880(3) 0.6280(4)
N2A N 1.3759(4) 0.4119(3) 0.6502(4)
O13 O 0.0843(4) 0.4614(4) 0.3261(4)
H15 H 0.096(8) 0.409(7) 0.345(7)
H16 H 0.020(9) 0.476(7) 0.356(7)
O14 O 0.5236(4) 0.0793(4) 0.6616(4)
H17 H 0.463(7) 0.095(6) 0.668(6)
H18 H 0.500(7) -0.001(7) 0.631(7)
loop_
_geom_bond_atom_site_label_1
_geom_bond_atom_site_label_2
_geom_bond_site_symmetry_1
_geom_bond_site_symmetry_2
La1 O1 1_555 1_555
Cu1 O2 1_555 1_555
O1 C6 1_555 1_555
O2 C6 1_555 1_555
O3 La1 1_555 1_555
O4 C17 1_555 1_555
O5 C14 1_555 1_555
O6 La1 1_555 1_555
O7 C18 1_555 1_555
O8 La1 1_555 1_555
O9 La1 1_555 1_555
O10 La1 1_555 1_555
O11 La1 1_555 1_555
O12 La1 1_555 1_555
N1 C4 1_555 1_555
N2 C2 1_555 1_555
C1 H1 1_555 1_555
N3 C11 1_555 1_555
C2 C5 1_555 1_555
C3 O9 1_555 1_555
C4 C16 1_555 1_555
C5 C10 1_555 1_555
C6 C16 1_555 1_555
C7 H2 1_555 1_555
C8 C3 1_555 1_555
C9 H3 1_555 1_555
C10 C9 1_555 1_555
H4 C10 1_555 1_555
C11 C8 1_555 1_555
H5 C11 1_555 1_555
C12 C7 1_555 1_555
H6 C12 1_555 1_555
C13 C1 1_555 1_555
H7 C13 1_555 1_555
C14 O6 1_555 1_555
C15 N1 1_555 1_555
H8 C15 1_555 1_555
C16 C7 1_555 1_555
C17 O3 1_555 1_555
C18 O8 1_555 1_555
C19 C1 1_555 1_555
H9 C19 1_555 1_555
C20 N2 1_555 1_555
H10 C20 1_555 1_555
H11 O11 1_555 1_555
H12 O12 1_555 1_555
H13 O11 1_555 1_555
H14 O12 1_555 1_555
O13 H15 1_555 1_555
H16 O13 1_555 1_555
O14 H17 1_555 1_555
H18 O14 1_555 1_555
La1A O10 1_555 1_555
Cu1A O4 1_555 1_555
Cu1A_2 O5 1_555 1_555
O4A Cu1 1_555 1_555
O5A Cu1 1_555 1_555
O10A La1 1_555 1_555
N1A Cu1 1_555 1_555
N2A Cu1 1_555 1_555
O10 C3 1_555 1_555
N1 Cu1A 1_555 1_555
N2 Cu1A_2 1_555 1_555
N3 C13 1_555 1_555
C2 C14 1_555 1_555
C4 C17 1_555 1_555
C5 C18 1_555 1_555
C8 C19 1_555 1_555
C9 C20 1_555 1_555
C12 C15 1_555 1_555
La1A O10A 1_555 1_555

#END
