
#######################################################################
#
#                 Cambridge Crystallographic Data Centre
#                                CCDC 
#
#######################################################################
#
# If this CIF has been generated from an entry in the Cambridge 
# Structural Database, then it will include bibliographic, chemical, 
# crystal, experimental, refinement or atomic coordinate data resulting 
# from the CCDC's data processing and validation procedures.
#
#######################################################################

data_YEKJAA
_symmetry_cell_setting           monoclinic
_symmetry_space_group_name_H-M   'P 21/c'
_symmetry_Int_Tables_number      14
_space_group_name_Hall           '-P 2ybc'
loop_
_symmetry_equiv_pos_site_id
_symmetry_equiv_pos_as_xyz
1 x,y,z
2 -x,1/2+y,1/2-z
3 -x,-y,-z
4 x,1/2-y,1/2+z
_cell_length_a                   10.784(2)
_cell_length_b                   18.970(4)
_cell_length_c                   10.936(2)
_cell_angle_alpha                90
_cell_angle_beta                 105.79(3)
_cell_angle_gamma                90
_cell_volume                     2152.78
loop_
_atom_site_label
_atom_site_type_symbol
_atom_site_fract_x
_atom_site_fract_y
_atom_site_fract_z
Zn1 Zn 0.5000 0.0000 0.5000
Tb1 Tb 0.19807(3) -0.004501(16) 0.57603(3)
O1 O 0.0908(7) -0.0291(4) 0.7394(6)
O2 O 0.1660(5) 0.1202(3) 0.6198(6)
O3 O -0.0207(5) 0.0725(3) 0.5342(5)
O4 O 0.3775(4) 0.0417(3) 0.3422(5)
O5 O 0.1785(4) 0.0363(3) 0.3624(5)
O6 O 0.2866(5) -0.1210(3) 0.6623(5)
O7 O 0.3573(4) -0.0777(2) 0.5056(4)
O8 O 0.4117(4) 0.0536(3) 0.6227(4)
O9 O 0.3444(5) 0.0197(3) 0.7872(5)
C1 C 0.0475(7) 0.1220(4) 0.5955(7)
C2 C -0.0105(7) 0.1819(4) 0.6447(7)
C3 C 0.0503(12) 0.2384(5) 0.7036(10)
H1 H 0.1373 0.2494 0.7192
C4 C -0.047(2) 0.2785(6) 0.7377(15)
H2 H -0.0368 0.3224 0.7771
C5 C -0.1485(19) 0.2440(8) 0.7050(17)
H3 H -0.2248 0.2582 0.7218
O10 O -0.1374(7) 0.1810(4) 0.6398(8)
C6 C 0.2605(7) 0.0481(3) 0.3001(6)
C7 C 0.2142(6) 0.0699(4) 0.1654(6)
C8 C 0.2744(8) 0.0835(5) 0.0752(7)
H4 H 0.355(7) 0.081(4) 0.089(7)
C9 C 0.1830(8) 0.1013(5) -0.0392(8)
H5 H 0.1985 0.1141 -0.1158
C10 C 0.0711(9) 0.0958(6) -0.0142(8)
H6 H -0.0079 0.1037 -0.0732
O11 O 0.0855(5) 0.0766(4) 0.1119(5)
C11 C 0.3620(6) -0.1240(3) 0.5949(7)
C12 C 0.4610(7) -0.1788(4) 0.6173(8)
C13 C 0.4961(7) -0.2192(4) 0.7210(7)
H7 H 0.4590 -0.2205 0.7884
C14 C 0.5991(11) -0.2587(5) 0.7070(13)
H8 H 0.6464 -0.2907 0.7659
C15 C 0.6190(10) -0.2435(6) 0.5971(15)
H9 H 0.6817 -0.2646 0.5654
O12 O 0.5316(7) -0.1904(4) 0.5324(7)
C16 C 0.4274(6) 0.0494(4) 0.7450(7)
C17 C 0.5389(7) 0.0806(4) 0.8308(6)
C18 C 0.6384(8) 0.1148(5) 0.8096(9)
H10 H 0.652(7) 0.118(4) 0.750(8)
C19 C 0.7143(9) 0.1382(5) 0.9313(9)
H11 H 0.774(9) 0.170(5) 0.936(9)
C20 C 0.6569(8) 0.1168(5) 1.0172(8)
H12 H 0.6873 0.1247 1.1041
O13 O 0.5458(5) 0.0814(3) 0.9590(5)
H13 H 0.105(12) -0.028(7) 0.808(12)
H14 H 0.030(7) -0.037(4) 0.728(7)
Tb1B Tb 0.80193(3) 0.004501(16) 0.42397(3)
Tb1B_2 Tb -0.19807(3) 0.004501(16) 0.42397(3)
O1B O 0.9092(7) 0.0291(4) 0.2606(6)
O2B O -0.1660(5) -0.1202(3) 0.3802(6)
O2B_2 O 0.8340(5) -0.1202(3) 0.3802(6)
O3B O 0.0207(5) -0.0725(3) 0.4658(5)
O3_2 O 0.9793(5) 0.0725(3) 0.5342(5)
O3B_2 O 1.0207(5) -0.0725(3) 0.4658(5)
O4B O 0.6225(4) -0.0417(3) 0.6578(5)
O5B O 0.8215(4) -0.0363(3) 0.6376(5)
O6B O 0.7134(5) 0.1210(3) 0.3377(5)
O7B O 0.6427(4) 0.0777(2) 0.4944(4)
O8B O 0.5883(4) -0.0536(3) 0.3773(4)
O9B O 0.6556(5) -0.0197(3) 0.2128(5)
C1B C -0.0475(7) -0.1220(4) 0.4045(7)
C2B C 0.0105(7) -0.1819(4) 0.3553(7)
C3B C -0.0503(12) -0.2384(5) 0.2964(10)
H1B H -0.1373 -0.2494 0.2808
C4B C 0.047(2) -0.2785(6) 0.2623(15)
H2B H 0.0368 -0.3224 0.2229
C5B C 0.1485(19) -0.2440(8) 0.2950(17)
H3B H 0.2248 -0.2582 0.2782
O10B O 0.1374(7) -0.1810(4) 0.3602(8)
C6B C 0.7395(7) -0.0481(3) 0.6999(6)
C7B C 0.7858(6) -0.0699(4) 0.8346(6)
C8B C 0.7256(8) -0.0835(5) 0.9248(7)
H4B H 0.645(7) -0.081(4) 0.911(7)
C9B C 0.8170(8) -0.1013(5) 1.0392(8)
H5B H 0.8015 -0.1141 1.1158
C10B C 0.9289(9) -0.0958(6) 1.0142(8)
H6B H 1.0079 -0.1037 1.0732
O11B O 0.9145(5) -0.0766(4) 0.8881(5)
C11B C 0.6380(6) 0.1240(3) 0.4051(7)
C12B C 0.5390(7) 0.1788(4) 0.3827(8)
C13B C 0.5039(7) 0.2192(4) 0.2790(7)
H7B H 0.5410 0.2205 0.2116
C14B C 0.4009(11) 0.2587(5) 0.2930(13)
H8B H 0.3536 0.2907 0.2341
C15B C 0.3810(10) 0.2435(6) 0.4029(15)
H9B H 0.3183 0.2646 0.4346
O12B O 0.4684(7) 0.1904(4) 0.4676(7)
C16B C 0.5726(6) -0.0494(4) 0.2550(7)
C17B C 0.4611(7) -0.0806(4) 0.1692(6)
C18B C 0.3616(8) -0.1148(5) 0.1904(9)
H10B H 0.348(7) -0.118(4) 0.250(8)
C19B C 0.2857(9) -0.1382(5) 0.0687(9)
H11B H 0.226(9) -0.170(5) 0.064(9)
C20B C 0.3431(8) -0.1168(5) -0.0172(8)
H12B H 0.3127 -0.1247 -0.1041
O13B O 0.4542(5) -0.0814(3) 0.0410(5)
H13B H 0.895(12) 0.028(7) 0.192(12)
H14B H 0.970(7) 0.037(4) 0.272(7)
loop_
_geom_bond_atom_site_label_1
_geom_bond_atom_site_label_2
_geom_bond_site_symmetry_1
_geom_bond_site_symmetry_2
Zn1 O4 1_555 1_555
Tb1 O1 1_555 1_555
O1 H13 1_555 1_555
O2 Tb1 1_555 1_555
O3 Tb1 1_555 1_555
O4 C6 1_555 1_555
O5 Tb1 1_555 1_555
O6 Tb1 1_555 1_555
O7 Zn1 1_555 1_555
O8 Zn1 1_555 1_555
O9 Tb1 1_555 1_555
C1 O2 1_555 1_555
C2 C1 1_555 1_555
C3 C2 1_555 1_555
H1 C3 1_555 1_555
C4 C3 1_555 1_555
H2 C4 1_555 1_555
C5 C4 1_555 1_555
H3 C5 1_555 1_555
O10 C2 1_555 1_555
C6 O5 1_555 1_555
C7 C6 1_555 1_555
C8 C7 1_555 1_555
H4 C8 1_555 1_555
C9 C8 1_555 1_555
H5 C9 1_555 1_555
C10 C9 1_555 1_555
H6 C10 1_555 1_555
O11 C7 1_555 1_555
C11 O6 1_555 1_555
C12 C11 1_555 1_555
C13 C12 1_555 1_555
H7 C13 1_555 1_555
C14 C13 1_555 1_555
H8 C14 1_555 1_555
C15 C14 1_555 1_555
H9 C15 1_555 1_555
O12 C12 1_555 1_555
C16 O8 1_555 1_555
C17 C16 1_555 1_555
C18 C17 1_555 1_555
H10 C18 1_555 1_555
C19 C18 1_555 1_555
H11 C19 1_555 1_555
C20 C19 1_555 1_555
H12 C20 1_555 1_555
O13 C17 1_555 1_555
H14 O1 1_555 1_555
Tb1B O1B 1_555 1_555
Tb1B_2 O3 1_555 1_555
O1B H13B 1_555 1_555
O2B Tb1B_2 1_555 1_555
O2B_2 Tb1B 1_555 1_555
O3B Tb1 1_555 1_555
O3_2 Tb1B 1_555 1_555
O3B_2 Tb1B 1_555 1_555
O4B Zn1 1_555 1_555
O5B Tb1B 1_555 1_555
O6B Tb1B 1_555 1_555
O7B Zn1 1_555 1_555
O8B Zn1 1_555 1_555
O9B Tb1B 1_555 1_555
C1B O2B 1_555 1_555
C2B C1B 1_555 1_555
C3B C2B 1_555 1_555
H1B C3B 1_555 1_555
C4B C3B 1_555 1_555
H2B C4B 1_555 1_555
C5B C4B 1_555 1_555
H3B C5B 1_555 1_555
O10B C2B 1_555 1_555
C6B O4B 1_555 1_555
C7B C6B 1_555 1_555
C8B C7B 1_555 1_555
H4B C8B 1_555 1_555
C9B C8B 1_555 1_555
H5B C9B 1_555 1_555
C10B C9B 1_555 1_555
H6B C10B 1_555 1_555
O11B C7B 1_555 1_555
C11B O6B 1_555 1_555
C12B C11B 1_555 1_555
C13B C12B 1_555 1_555
H7B C13B 1_555 1_555
C14B C13B 1_555 1_555
H8B C14B 1_555 1_555
C15B C14B 1_555 1_555
H9B C15B 1_555 1_555
O12B C12B 1_555 1_555
C16B O8B 1_555 1_555
C17B C16B 1_555 1_555
C18B C17B 1_555 1_555
H10B C18B 1_555 1_555
C19B C18B 1_555 1_555
H11B C19B 1_555 1_555
C20B C19B 1_555 1_555
H12B C20B 1_555 1_555
O13B C17B 1_555 1_555
H14B O1B 1_555 1_555
Tb1 O7 1_555 1_555
Tb1 O8 1_555 1_555
O3 C1 1_555 1_555
O7 C11 1_555 1_555
O9 C16 1_555 1_555
C5 O10 1_555 1_555
C10 O11 1_555 1_555
C15 O12 1_555 1_555
C20 O13 1_555 1_555
Tb1B O7B 1_555 1_555
Tb1B O8B 1_555 1_555
Tb1B_2 O3B 1_555 1_555
O3B C1B 1_555 1_555
O5B C6B 1_555 1_555
O7B C11B 1_555 1_555
O9B C16B 1_555 1_555
C5B O10B 1_555 1_555
C10B O11B 1_555 1_555
C15B O12B 1_555 1_555
C20B O13B 1_555 1_555

#END
