
#######################################################################
#
#                 Cambridge Crystallographic Data Centre
#                                CCDC 
#
#######################################################################
#
# If this CIF has been generated from an entry in the Cambridge 
# Structural Database, then it will include bibliographic, chemical, 
# crystal, experimental, refinement or atomic coordinate data resulting 
# from the CCDC's data processing and validation procedures.
#
#######################################################################

data_YEKKAC
_symmetry_cell_setting           monoclinic
_symmetry_space_group_name_H-M   'P 21/c'
_symmetry_Int_Tables_number      14
_space_group_name_Hall           '-P 2ybc'
loop_
_symmetry_equiv_pos_site_id
_symmetry_equiv_pos_as_xyz
1 x,y,z
2 -x,1/2+y,1/2-z
3 -x,-y,-z
4 x,1/2-y,1/2+z
_cell_length_a                   10.2758(10)
_cell_length_b                   5.8867(6)
_cell_length_c                   16.3408(16)
_cell_angle_alpha                90
_cell_angle_beta                 96.773(3)
_cell_angle_gamma                90
_cell_volume                     981.566
loop_
_atom_site_label
_atom_site_type_symbol
_atom_site_fract_x
_atom_site_fract_y
_atom_site_fract_z
Ag1 Ag 0.62796(3) 0.18473(5) 0.053467(15)
O1 O 0.6651(2) 0.4164(5) 0.16934(14)
O2 O 0.5062(3) 0.6741(4) 0.16213(15)
O3 O 1.1680(2) 0.4146(4) 0.42485(13)
O4 O 1.3954(2) 0.3445(4) 0.51803(15)
O5 O 1.3432(2) -0.0105(4) 0.54509(13)
C1 C 0.8028(3) 0.6250(6) 0.31191(17)
C2 C 0.8133(3) 0.4221(6) 0.35482(18)
H1 H 0.7377 0.3340 0.3576
C3 C 0.9319(3) 0.3449(6) 0.39374(18)
H2 H 0.9366 0.2068 0.4229
C4 C 1.0440(3) 0.4742(5) 0.38922(16)
C5 C 1.0365(3) 0.6777(5) 0.34573(18)
H3 H 1.1125 0.7639 0.3418
C6 C 0.9154(3) 0.7527(6) 0.30803(18)
H4 H 0.9099 0.8918 0.2796
C7 C 0.6711(3) 0.7083(6) 0.27200(19)
H5 H 0.6083 0.6978 0.3126
H6 H 0.6794 0.8693 0.2582
C8 C 0.6155(3) 0.5838(6) 0.19559(18)
C9 C 1.1788(3) 0.2114(5) 0.47295(18)
H7 H 1.1547 0.0803 0.4374
H8 H 1.1182 0.2184 0.5149
C10 C 1.3178(3) 0.1828(5) 0.51427(18)
H9 H 0.454(5) 0.596(10) 0.121(3)
Ag1A Ag 1.37204(3) 0.68473(5) 0.446533(15)
Ag1C Ag 1.62796(3) 0.31527(5) 0.553467(15)
Ag1A_2 Ag 1.37204(3) -0.31527(5) 0.446533(15)
O4A O 0.6046(2) -0.1555(4) -0.01803(15)
O4C O 0.3954(2) 0.1555(4) 0.01803(15)
O5A O 0.6568(2) 0.4895(4) -0.04509(13)
loop_
_geom_bond_atom_site_label_1
_geom_bond_atom_site_label_2
_geom_bond_site_symmetry_1
_geom_bond_site_symmetry_2
Ag1 O1 1_555 1_555
O1 C8 1_555 1_555
O2 C8 1_555 1_555
O3 C4 1_555 1_555
O4 C10 1_555 1_555
O5 C10 1_555 1_555
C1 C2 1_555 1_555
C2 H1 1_555 1_555
C3 C2 1_555 1_555
H2 C3 1_555 1_555
C4 C3 1_555 1_555
C5 C4 1_555 1_555
H3 C5 1_555 1_555
C6 C1 1_555 1_555
H4 C6 1_555 1_555
C7 C1 1_555 1_555
H5 C7 1_555 1_555
H6 C7 1_555 1_555
C8 C7 1_555 1_555
C9 O3 1_555 1_555
H7 C9 1_555 1_555
H8 C9 1_555 1_555
C10 C9 1_555 1_555
H9 O2 1_555 1_555
Ag1A O4 1_555 1_555
Ag1C O4 1_555 1_555
Ag1A_2 O5 1_555 1_555
O4A Ag1 1_555 1_555
O4C Ag1 1_555 1_555
O5A Ag1 1_555 1_555
C5 C6 1_555 1_555

#END
