
#######################################################################
#
#                 Cambridge Crystallographic Data Centre
#                                CCDC 
#
#######################################################################
#
# If this CIF has been generated from an entry in the Cambridge 
# Structural Database, then it will include bibliographic, chemical, 
# crystal, experimental, refinement or atomic coordinate data resulting 
# from the CCDC's data processing and validation procedures.
#
#######################################################################

data_YEKYIW01
_symmetry_cell_setting           orthorhombic
_symmetry_space_group_name_H-M   'P 21 21 21'
_symmetry_Int_Tables_number      19
_space_group_name_Hall           'P 2ac 2ab'
loop_
_symmetry_equiv_pos_site_id
_symmetry_equiv_pos_as_xyz
1 x,y,z
2 1/2-x,-y,1/2+z
3 -x,1/2+y,1/2-z
4 1/2+x,1/2-y,-z
_cell_length_a                   7.6239(5)
_cell_length_b                   8.4774(5)
_cell_length_c                   20.5944(16)
_cell_angle_alpha                90
_cell_angle_beta                 90
_cell_angle_gamma                90
_cell_volume                     1331.03
loop_
_atom_site_label
_atom_site_type_symbol
_atom_site_fract_x
_atom_site_fract_y
_atom_site_fract_z
Li1 Li 0.9692(11) 1.1284(9) 0.0639(4)
Li2 Li 0.2595(13) 1.0119(10) 0.1569(5)
O1 O 0.8363(5) 0.9220(4) 0.05598(18)
O2 O 0.8648(5) 0.7063(5) 0.11750(19)
H1 H 0.962(3) 0.744(6) 0.124(3)
O3 O 0.5058(5) 0.8501(4) 0.02307(19)
H2 H 0.564(7) 0.927(4) 0.012(3)
O4 O 0.4892(5) 0.9020(4) 0.15894(16)
H3 H 0.560(6) 0.917(6) 0.1879(19)
O5 O 0.1816(5) 0.7860(4) 0.13846(17)
O6 O 0.2797(5) 0.5572(4) 0.09691(19)
C1 C 0.7784(7) 0.8024(6) 0.0800(3)
C2 C 0.5914(7) 0.7481(5) 0.0681(3)
H4 H 0.608(6) 0.638(2) 0.052(2)
C3 C 0.4916(8) 0.7475(6) 0.1321(3)
H5 H 0.551(7) 0.672(5) 0.162(2)
C4 C 0.3010(7) 0.6912(6) 0.1218(2)
O7 O 0.6461(5) 1.3360(5) 0.2027(2)
H6 H 0.553(4) 1.288(6) 0.202(3)
O8 O 0.7114(5) 1.2239(4) 0.10653(18)
O9 O 1.0244(5) 1.3441(4) 0.10482(18)
H7 H 1.093(6) 1.419(4) 0.103(3)
O10 O 1.0250(5) 1.0857(4) 0.18698(18)
H8 H 0.941(5) 1.039(6) 0.204(3)
O11 O 1.3356(5) 1.2116(4) 0.20272(19)
O12 O 1.2346(5) 1.4207(4) 0.25707(17)
C5 C 0.7498(7) 1.2976(6) 0.1548(3)
C6 C 0.9396(8) 1.3533(7) 0.1654(3)
H9 H 0.927(8) 1.466(2) 0.179(2)
C7 C 1.0247(8) 1.2405(6) 0.2141(3)
H10 H 0.957(6) 1.249(6) 0.2556(15)
C8 C 1.2139(7) 1.2939(6) 0.2254(2)
O13 O 1.2294(5) 1.0685(4) 0.0606(2)
H11 H 1.289(6) 1.001(5) 0.043(3)
H12 H 1.296(6) 1.143(4) 0.054(3)
O14 O 0.9350(5) 1.1791(4) -0.03007(19)
H13 H 0.891(7) 1.102(4) -0.048(2)
H14 H 1.017(5) 1.215(6) -0.051(2)
O10_2 O 0.0250(5) 1.0857(4) 0.18698(18)
O11_2 O 0.3356(5) 1.2116(4) 0.20272(19)
O13_2 O 0.2294(5) 1.0685(4) 0.0606(2)
Li2_2 Li 1.2595(13) 1.0119(10) 0.1569(5)
H8_2 H -0.059(5) 1.039(6) 0.204(3)
H11_2 H 0.289(6) 1.001(5) 0.043(3)
H12_2 H 0.296(6) 1.143(4) 0.054(3)
loop_
_geom_bond_atom_site_label_1
_geom_bond_atom_site_label_2
_geom_bond_site_symmetry_1
_geom_bond_site_symmetry_2
Li1 O1 1_555 1_555
Li2 O4 1_555 1_555
O1 C1 1_555 1_555
O2 H1 1_555 1_555
O3 H2 1_555 1_555
O4 H3 1_555 1_555
O5 Li2 1_555 1_555
O6 C4 1_555 1_555
C1 O2 1_555 1_555
C2 O3 1_555 1_555
H4 C2 1_555 1_555
C3 O4 1_555 1_555
H5 C3 1_555 1_555
C4 O5 1_555 1_555
O7 H6 1_555 1_555
O8 Li1 1_555 1_555
O9 Li1 1_555 1_555
H7 O9 1_555 1_555
O10 Li1 1_555 1_555
H8 O10 1_555 1_555
O11 C8 1_555 1_555
O12 C8 1_555 1_555
C5 O7 1_555 1_555
C6 O9 1_555 1_555
H9 C6 1_555 1_555
C7 O10 1_555 1_555
H10 C7 1_555 1_555
C8 C7 1_555 1_555
O13 Li1 1_555 1_555
H11 O13 1_555 1_555
H12 O13 1_555 1_555
O14 Li1 1_555 1_555
H13 O14 1_555 1_555
H14 O14 1_555 1_555
O10_2 Li2 1_555 1_555
O11_2 Li2 1_555 1_555
O13_2 Li2 1_555 1_555
Li2_2 O10 1_555 1_555
H8_2 O10_2 1_555 1_555
H11_2 O13_2 1_555 1_555
H12_2 O13_2 1_555 1_555
C1 C2 1_555 1_555
C2 C3 1_555 1_555
C3 C4 1_555 1_555
O8 C5 1_555 1_555
O11 Li2_2 1_555 1_555
C5 C6 1_555 1_555
C6 C7 1_555 1_555
O13 Li2_2 1_555 1_555

#END
