
#######################################################################
#
#                 Cambridge Crystallographic Data Centre
#                                CCDC 
#
#######################################################################
#
# If this CIF has been generated from an entry in the Cambridge 
# Structural Database, then it will include bibliographic, chemical, 
# crystal, experimental, refinement or atomic coordinate data resulting 
# from the CCDC's data processing and validation procedures.
#
#######################################################################

data_YELNIM
_symmetry_cell_setting           monoclinic
_symmetry_space_group_name_H-M   'P 21'
_symmetry_Int_Tables_number      4
_space_group_name_Hall           'P 2yb'
loop_
_symmetry_equiv_pos_site_id
_symmetry_equiv_pos_as_xyz
1 x,y,z
2 -x,1/2+y,-z
_cell_length_a                   5.251(2)
_cell_length_b                   7.782(2)
_cell_length_c                   7.594(3)
_cell_angle_alpha                90
_cell_angle_beta                 101.47(2)
_cell_angle_gamma                90
_cell_volume                     304.118
loop_
_atom_site_label
_atom_site_type_symbol
_atom_site_fract_x
_atom_site_fract_y
_atom_site_fract_z
Na1 Na 0.14048(9) 0.25000 -0.77017(6)
O1 O -0.1589(2) 0.4353(1) -0.2040(1)
O2 O -0.1560(2) 0.0496(1) -0.2010(1)
O3 O -0.4294(2) 0.2241(2) -0.6136(1)
O4 O -0.0229(2) 0.3073(2) -0.5045(1)
O5 O -0.2838(2) 0.1792(2) 0.0985(1)
O6 O -0.6876(2) 0.2376(2) -0.0422(1)
C1 C -0.2452(2) 0.2858(2) -0.4880(1)
C2 C -0.3364(2) 0.3264(2) -0.3144(2)
C3 C -0.3785(2) 0.1561(2) -0.2203(2)
C4 C -0.4595(2) 0.1940(2) -0.0418(1)
H1 H -0.482(4) 0.375(2) -0.339(2)
H2 H -0.533(3) 0.094(3) -0.276(2)
H3 H -0.345(4) 0.191(3) -0.726(3)
H4 H -0.028(4) 0.407(3) -0.190(3)
H5 H -0.027(6) 0.096(4) -0.168(3)
O3_2 O 0.5706(2) 0.2241(2) -0.6136(1)
Na1_2 Na -0.85952(9) 0.25000 -0.77017(6)
H3_2 H 0.655(4) 0.191(3) -0.726(3)
O1A O 0.1589(2) -0.0647(1) -0.7960(1)
Na1A Na -0.14048(9) 0.75000 -0.22983(6)
H4A H 0.028(4) -0.093(3) -0.810(3)
O2A O 0.1560(2) 0.5496(1) -0.7990(1)
Na1A_2 Na -0.14048(9) -0.25000 -0.22983(6)
H5A H 0.027(6) 0.596(4) -0.832(3)
O5_2 O -0.2838(2) 0.1792(2) -0.9015(1)
O6_2 O 0.3124(2) 0.2376(2) -1.0422(1)
Na1_3 Na 0.14048(9) 0.25000 0.22983(6)
Na1_4 Na -0.85952(9) 0.25000 0.22983(6)
loop_
_geom_bond_atom_site_label_1
_geom_bond_atom_site_label_2
_geom_bond_site_symmetry_1
_geom_bond_site_symmetry_2
Na1 O4 1_555 1_555
O1 C2 1_555 1_555
O2 C3 1_555 1_555
O3 C1 1_555 1_555
O4 C1 1_555 1_555
O5 C4 1_555 1_555
O6 C4 1_555 1_555
C1 C2 1_555 1_555
C2 C3 1_555 1_555
C3 C4 1_555 1_555
H1 C2 1_555 1_555
H2 C3 1_555 1_555
H3 O3 1_555 1_555
H4 O1 1_555 1_555
H5 O2 1_555 1_555
O3_2 Na1 1_555 1_555
Na1_2 O3 1_555 1_555
H3_2 O3_2 1_555 1_555
O1A Na1 1_555 1_555
Na1A O1 1_555 1_555
H4A O1A 1_555 1_555
O2A Na1 1_555 1_555
Na1A_2 O2 1_555 1_555
H5A O2A 1_555 1_555
O5_2 Na1 1_555 1_555
O6_2 Na1 1_555 1_555
Na1_3 O5 1_555 1_555
Na1_4 O6 1_555 1_555

#END
