
#######################################################################
#
#                 Cambridge Crystallographic Data Centre
#                                CCDC 
#
#######################################################################
#
# If this CIF has been generated from an entry in the Cambridge 
# Structural Database, then it will include bibliographic, chemical, 
# crystal, experimental, refinement or atomic coordinate data resulting 
# from the CCDC's data processing and validation procedures.
#
#######################################################################

data_YELWAO
_symmetry_cell_setting           trigonal
_symmetry_space_group_name_H-M   'P 31 2 1'
_symmetry_Int_Tables_number      152
_space_group_name_Hall           'P 31 2"'
loop_
_symmetry_equiv_pos_site_id
_symmetry_equiv_pos_as_xyz
1 x,y,z
2 -y,x-y,1/3+z
3 -x+y,-x,2/3+z
4 x-y,-y,2/3-z
5 -x,-x+y,1/3-z
6 y,x,-z
_cell_length_a                   11.9079(8)
_cell_length_b                   11.9079(8)
_cell_length_c                   21.104(2)
_cell_angle_alpha                90
_cell_angle_beta                 90
_cell_angle_gamma                120
_cell_volume                     2591.59
loop_
_atom_site_label
_atom_site_type_symbol
_atom_site_fract_x
_atom_site_fract_y
_atom_site_fract_z
Cd1 Cd 0.02211(5) 0.40190(4) 0.07520(2)
O1 O 0.0570(5) 0.4225(5) -0.0414(2)
N1 N 0.0143(6) 0.5966(5) 0.0747(3)
C1 C 0.1768(7) 0.4761(6) -0.0298(3)
O2 O 0.2210(5) 0.4895(5) 0.0250(2)
N2 N 0.0198(5) 1.1964(5) 0.0810(2)
C2 C 0.2753(7) 0.5269(7) -0.0838(3)
H1 H 0.3101 0.4672 -0.0882
H2 H 0.3484 0.6119 -0.0704
O3 O 0.3233(5) 0.8645(4) -0.1609(2)
C3 C 0.2325(7) 0.5450(7) -0.1504(3)
O4 O 0.2792(5) 0.7916(5) -0.0652(2)
C4 C 0.1340(10) 0.4187(7) -0.1823(4)
H3 H 0.0443 0.3958 -0.1710
H4 H 0.1482 0.3466 -0.1699
C5 C 0.3510(8) 0.6000(8) -0.1962(4)
H5 H 0.3852 0.6937 -0.2035
H6 H 0.4210 0.5885 -0.1777
C6 C 0.1590(12) 0.4479(9) -0.2537(4)
H7 H 0.1250 0.3670 -0.2787
H8 H 0.1187 0.4982 -0.2692
C7 C 0.3059(11) 0.5274(11) -0.2574(5)
H9 H 0.3430 0.4699 -0.2631
H10 H 0.3331 0.5885 -0.2936
C8 C 0.1755(7) 0.6366(6) -0.1483(3)
H11 H 0.1487 0.6444 -0.1917
H12 H 0.0965 0.5958 -0.1216
C9 C 0.2653(6) 0.7718(6) -0.1231(3)
C10 C 0.1200(7) 0.7070(7) 0.0578(3)
H13 H 0.1937 0.7036 0.0431
C11 C -0.0893(7) 0.6039(7) 0.0932(4)
H14 H -0.1650 0.5262 0.1055
C12 C 0.1262(7) 0.8265(7) 0.0608(3)
H15 H 0.2047 0.9030 0.0502
C13 C -0.0922(7) 0.7178(6) 0.0954(4)
H16 H -0.1693 0.7168 0.1080
C14 C 0.0181(6) 0.8352(7) 0.0792(3)
C15 C 0.1307(7) 1.1929(7) 0.0778(4)
H17 H 0.2104 1.2727 0.0761
C16 C -0.0879(7) 1.0834(7) 0.0859(4)
H18 H -0.1674 1.0833 0.0900
C17 C -0.0923(8) 0.9651(8) 0.0854(4)
H19 H -0.1731 0.8868 0.0881
C18 C 0.1341(7) 1.0786(7) 0.0769(4)
H20 H 0.2148 1.0812 0.0733
C19 C 0.0216(7) 0.9615(7) 0.0810(3)
Cd1_2 Cd 0.02211(5) 1.40190(4) 0.07520(2)
Cd1B Cd 0.37979(6) 0.97789(5) -0.25813(2)
Cd1E Cd 0.40190(4) 1.02211(5) -0.07520(2)
N2_2 N 0.0198(5) 0.1964(5) 0.0810(2)
O3A O 0.1355(4) 0.4588(6) 0.1724(2)
O3E O -0.1355(4) 0.3233(5) 0.1609(2)
O4E O -0.2084(5) 0.2792(5) 0.0652(2)
loop_
_geom_bond_atom_site_label_1
_geom_bond_atom_site_label_2
_geom_bond_site_symmetry_1
_geom_bond_site_symmetry_2
Cd1 O1 1_555 1_555
O1 C1 1_555 1_555
N1 Cd1 1_555 1_555
C1 O2 1_555 1_555
O2 Cd1 1_555 1_555
N2 C15 1_555 1_555
C2 C1 1_555 1_555
H1 C2 1_555 1_555
H2 C2 1_555 1_555
O3 C9 1_555 1_555
C3 C2 1_555 1_555
O4 C9 1_555 1_555
C4 C3 1_555 1_555
H3 C4 1_555 1_555
H4 C4 1_555 1_555
C5 C3 1_555 1_555
H5 C5 1_555 1_555
H6 C5 1_555 1_555
C6 C4 1_555 1_555
H7 C6 1_555 1_555
H8 C6 1_555 1_555
C7 C5 1_555 1_555
H9 C7 1_555 1_555
H10 C7 1_555 1_555
C8 C3 1_555 1_555
H11 C8 1_555 1_555
H12 C8 1_555 1_555
C9 C8 1_555 1_555
C10 N1 1_555 1_555
H13 C10 1_555 1_555
C11 N1 1_555 1_555
H14 C11 1_555 1_555
C12 C10 1_555 1_555
H15 C12 1_555 1_555
C13 C11 1_555 1_555
H16 C13 1_555 1_555
C14 C12 1_555 1_555
C15 H17 1_555 1_555
C16 N2 1_555 1_555
H18 C16 1_555 1_555
C17 C16 1_555 1_555
H19 C17 1_555 1_555
C18 C15 1_555 1_555
H20 C18 1_555 1_555
C19 C14 1_555 1_555
Cd1_2 N2 1_555 1_555
Cd1B O3 1_555 1_555
Cd1E O3 1_555 1_555
N2_2 Cd1 1_555 1_555
O3A Cd1 1_555 1_555
O3E Cd1 1_555 1_555
O4E Cd1 1_555 1_555
O4 Cd1E 1_555 1_555
C6 C7 1_555 1_555
C13 C14 1_555 1_555
C17 C19 1_555 1_555
C18 C19 1_555 1_555

#END
