
#######################################################################
#
#                 Cambridge Crystallographic Data Centre
#                                CCDC 
#
#######################################################################
#
# If this CIF has been generated from an entry in the Cambridge 
# Structural Database, then it will include bibliographic, chemical, 
# crystal, experimental, refinement or atomic coordinate data resulting 
# from the CCDC's data processing and validation procedures.
#
#######################################################################

data_YELZAR
_symmetry_cell_setting           monoclinic
_symmetry_space_group_name_H-M   'P 21/c'
_symmetry_Int_Tables_number      14
_space_group_name_Hall           '-P 2ybc'
loop_
_symmetry_equiv_pos_site_id
_symmetry_equiv_pos_as_xyz
1 x,y,z
2 -x,1/2+y,1/2-z
3 -x,-y,-z
4 x,1/2-y,1/2+z
_cell_length_a                   17.495(13)
_cell_length_b                   6.862(8)
_cell_length_c                   13.081(17)
_cell_angle_alpha                90.00
_cell_angle_beta                 97.37(12)
_cell_angle_gamma                90.00
_cell_volume                     1557.41
loop_
_atom_site_label
_atom_site_type_symbol
_atom_site_fract_x
_atom_site_fract_y
_atom_site_fract_z
Ag1 Ag 0.375406(18) -0.41555(6) 0.21290(3)
Ag2 Ag 0.30864(2) -0.15971(7) -0.10526(3)
Ag3 Ag 0.08792(2) -0.57263(6) 0.25434(3)
Ag4 Ag 0.736250(18) -0.49096(5) 0.26725(3)
Ag5 Ag 0.80156(2) -0.31256(7) -0.06379(3)
C1 C 0.1149(2) -0.1264(6) 0.0924(3)
C2 C 0.4632(2) -0.2548(6) 0.0168(3)
C3 C 0.5977(2) -0.3601(6) 0.1090(3)
C4 C 0.5575(2) -0.4565(6) 0.2488(3)
H1 H 0.5573 -0.5070 0.3147
C5 C 0.6524(2) -0.3329(7) 0.0329(3)
C6 C 0.0884(2) -0.0231(6) 0.2387(3)
H2 H 0.0940 0.0331 0.3040
C7 C -0.0241(2) -0.2488(6) 0.0253(3)
C8 C 0.5189(2) -0.3326(6) 0.1007(3)
C9 C 0.0378(2) -0.1636(6) 0.1002(3)
C10 C 0.1620(2) -0.1572(6) 0.0079(3)
N1 N 0.02225(19) -0.0977(5) 0.1940(3)
N2 N 0.62143(18) -0.4383(5) 0.2038(3)
N3 N 0.49410(18) -0.3955(5) 0.1903(2)
N4 N 0.14648(18) -0.0365(5) 0.1810(3)
O1 O 0.13066(19) -0.2434(6) -0.0732(3)
O2 O 0.62659(18) -0.2652(5) -0.0555(2)
O3 O 0.48775(17) -0.1991(5) -0.0659(2)
O4 O 0.39381(16) -0.2457(5) 0.0301(2)
O5 O -0.08987(16) -0.2591(5) 0.0496(2)
O6 O 0.22941(18) -0.0967(6) 0.0191(3)
O7 O -0.00570(18) -0.3051(5) -0.0616(2)
O8 O 0.72144(18) -0.3789(6) 0.0569(3)
N5 N 0.2022(2) -0.5241(6) 0.2214(3)
C11 C 0.2630(2) -0.4679(7) 0.2441(3)
Ag2C Ag 0.30864(2) -0.34029(7) 0.39474(3)
Ag3A Ag -0.08792(2) -0.07263(6) 0.24566(3)
Ag4A Ag 0.263750(18) 0.00904(5) 0.23275(3)
Ag5_2 Ag -0.19844(2) -0.31256(7) -0.06379(3)
Ag5B Ag 0.19844(2) -0.68744(7) 0.06379(3)
N1A N -0.02225(19) -0.5977(5) 0.3060(3)
N4A N 0.85352(18) -0.5365(5) 0.3190(3)
O5_2 O 0.91013(16) -0.2591(5) 0.0496(2)
N5B N 0.7978(2) -0.4759(6) -0.2214(3)
C11C C 0.2630(2) -0.0321(7) -0.2559(3)
loop_
_geom_bond_atom_site_label_1
_geom_bond_atom_site_label_2
_geom_bond_site_symmetry_1
_geom_bond_site_symmetry_2
Ag1 N3 1_555 1_555
Ag2 O4 1_555 1_555
Ag3 N5 1_555 1_555
Ag4 N2 1_555 1_555
Ag5 O8 1_555 1_555
C1 C9 1_555 1_555
C2 C8 1_555 1_555
C3 C5 1_555 1_555
C4 H1 1_555 1_555
C5 O2 1_555 1_555
C6 H2 1_555 1_555
C7 C9 1_555 1_555
C8 C3 1_555 1_555
C9 N1 1_555 1_555
C10 C1 1_555 1_555
N1 C6 1_555 1_555
N2 C3 1_555 1_555
N3 C4 1_555 1_555
N4 C1 1_555 1_555
O1 C10 1_555 1_555
O3 C2 1_555 1_555
O4 C2 1_555 1_555
O5 C7 1_555 1_555
O6 Ag2 1_555 1_555
O7 C7 1_555 1_555
O8 C5 1_555 1_555
N5 C11 1_555 1_555
C11 Ag1 1_555 1_555
Ag2C C11 1_555 1_555
Ag3A N1 1_555 1_555
Ag4A N4 1_555 1_555
Ag5_2 O5 1_555 1_555
Ag5B N5 1_555 1_555
N1A Ag3 1_555 1_555
N4A Ag4 1_555 1_555
O5_2 Ag5 1_555 1_555
N5B Ag5 1_555 1_555
C11C Ag2 1_555 1_555
C4 N2 1_555 1_555
C6 N4 1_555 1_555
C8 N3 1_555 1_555
C10 O6 1_555 1_555

#END
