
#######################################################################
#
#                 Cambridge Crystallographic Data Centre
#                                CCDC 
#
#######################################################################
#
# If this CIF has been generated from an entry in the Cambridge 
# Structural Database, then it will include bibliographic, chemical, 
# crystal, experimental, refinement or atomic coordinate data resulting 
# from the CCDC's data processing and validation procedures.
#
#######################################################################

data_YENSAL
_symmetry_cell_setting           triclinic
_symmetry_space_group_name_H-M   'P -1'
_symmetry_Int_Tables_number      2
_space_group_name_Hall           '-P 1'
loop_
_symmetry_equiv_pos_site_id
_symmetry_equiv_pos_as_xyz
1 x,y,z
2 -x,-y,-z
_cell_length_a                   9.825(3)
_cell_length_b                   12.440(3)
_cell_length_c                   11.937(3)
_cell_angle_alpha                101.56(3)
_cell_angle_beta                 104.18(3)
_cell_angle_gamma                101.24(3)
_cell_volume                     1339.32
loop_
_atom_site_label
_atom_site_type_symbol
_atom_site_fract_x
_atom_site_fract_y
_atom_site_fract_z
Y1 Y -0.24543(3) -0.47701(2) -0.00319(2)
O1 O -0.3702(2) -0.3548(2) -0.1018(2)
O2 O -0.0743(2) -0.3029(2) 0.0016(2)
O7 O -0.2918(2) -0.3563(2) 0.1457(2)
O8 O -0.5263(2) -0.4206(2) 0.1185(2)
O9 O -0.3284(2) -0.6084(2) 0.1078(2)
O10 O -0.2187(2) -0.6728(2) -0.0212(2)
O11 O -0.0328(2) -0.4557(2) 0.1348(2)
O12 O 0.1856(2) -0.4872(2) 0.1775(2)
N1 N -0.1565(3) 0.0151(3) 0.4660(3)
N2 N -0.6223(3) -0.1898(2) 0.4771(3)
N3 N -0.5275(3) -0.9468(3) 0.2499(3)
N4 N -0.2073(4) -1.0711(3) 0.0280(3)
N5 N 0.3125(3) -0.4707(3) 0.6181(2)
N6 N -0.0524(4) -0.2595(3) 0.5475(3)
C1 C -0.3947(3) -0.2635(2) 0.2848(2)
C2 C -0.2742(3) -0.1701(3) 0.3288(3)
C3 C -0.2707(3) -0.0819(3) 0.4242(3)
C4 C -0.3830(3) -0.0931(3) 0.4775(3)
C5 C -0.5017(3) -0.1872(3) 0.4324(3)
C6 C -0.5071(3) -0.2733(2) 0.3354(3)
C7 C -0.4052(3) -0.3530(2) 0.1754(2)
C8 C -0.3104(3) -0.7998(2) 0.0860(3)
C9 C -0.4014(3) -0.8203(3) 0.1562(3)
C10 C -0.4353(3) -0.9271(3) 0.1785(3)
C11 C -0.3717(4) -1.0093(3) 0.1344(3)
C12 C -0.2770(4) -0.9892(3) 0.0667(3)
C13 C -0.2475(3) -0.8839(3) 0.0417(3)
C14 C -0.2840(3) -0.6883(2) 0.0561(3)
C15 C 0.0958(3) -0.4275(2) 0.3391(2)
C16 C 0.1947(3) -0.4644(2) 0.4165(3)
C17 C 0.2087(3) -0.4350(3) 0.5385(3)
C18 C 0.1286(3) -0.3645(3) 0.5814(3)
C19 C 0.0312(3) -0.3263(3) 0.5036(3)
C20 C 0.0122(3) -0.3595(2) 0.3805(3)
C21 C 0.0811(3) -0.4590(2) 0.2077(2)
O8A O -0.4737(2) -0.5794(2) -0.1185(2)
O12A O -0.1856(2) -0.5128(2) -0.1775(2)
Y1A Y -0.75457(3) -0.52299(2) 0.00319(2)
Y1A_2 Y 0.24543(3) -0.52299(2) 0.00319(2)
O3 O -0.2201(4) -0.8405(3) -0.2388(3)
O4 O -0.0790(5) -0.0099(3) -0.1936(5)
O5 O -0.1431(6) -0.2346(4) -0.2114(4)
O6 O -0.4137(4) -0.3375(4) -0.3673(5)
loop_
_geom_bond_atom_site_label_1
_geom_bond_atom_site_label_2
_geom_bond_site_symmetry_1
_geom_bond_site_symmetry_2
Y1 O1 1_555 1_555
O2 Y1 1_555 1_555
O7 Y1 1_555 1_555
O8 C7 1_555 1_555
O9 Y1 1_555 1_555
O10 Y1 1_555 1_555
O11 Y1 1_555 1_555
O12 C21 1_555 1_555
N1 C3 1_555 1_555
N2 C5 1_555 1_555
N3 C10 1_555 1_555
N4 C12 1_555 1_555
N5 C17 1_555 1_555
N6 C19 1_555 1_555
C1 C2 1_555 1_555
C2 C3 1_555 1_555
C3 C4 1_555 1_555
C4 C5 1_555 1_555
C5 C6 1_555 1_555
C6 C1 1_555 1_555
C7 O7 1_555 1_555
C8 C9 1_555 1_555
C9 C10 1_555 1_555
C10 C11 1_555 1_555
C11 C12 1_555 1_555
C12 C13 1_555 1_555
C13 C8 1_555 1_555
C14 O9 1_555 1_555
C15 C16 1_555 1_555
C16 C17 1_555 1_555
C17 C18 1_555 1_555
C18 C19 1_555 1_555
C19 C20 1_555 1_555
C20 C15 1_555 1_555
C21 O11 1_555 1_555
O8A Y1 1_555 1_555
O12A Y1 1_555 1_555
Y1A O8 1_555 1_555
Y1A_2 O12 1_555 1_555
O10 C14 1_555 1_555
C1 C7 1_555 1_555
C8 C14 1_555 1_555
C15 C21 1_555 1_555

#END
