
#######################################################################
#
#                 Cambridge Crystallographic Data Centre
#                                CCDC 
#
#######################################################################
#
# If this CIF has been generated from an entry in the Cambridge 
# Structural Database, then it will include bibliographic, chemical, 
# crystal, experimental, refinement or atomic coordinate data resulting 
# from the CCDC's data processing and validation procedures.
#
#######################################################################

data_YEPFEF
_symmetry_cell_setting           monoclinic
_symmetry_space_group_name_H-M   'C 2'
_symmetry_Int_Tables_number      5
_space_group_name_Hall           'C 2y'
loop_
_symmetry_equiv_pos_site_id
_symmetry_equiv_pos_as_xyz
1 x,y,z
2 -x,y,-z
3 1/2+x,1/2+y,z
4 1/2-x,1/2+y,-z
_cell_length_a                   24.139(2)
_cell_length_b                   9.1383(8)
_cell_length_c                   8.2704(8)
_cell_angle_alpha                90
_cell_angle_beta                 107.591(3)
_cell_angle_gamma                90
_cell_volume                     1739.05
loop_
_atom_site_label
_atom_site_type_symbol
_atom_site_fract_x
_atom_site_fract_y
_atom_site_fract_z
Cd1 Cd 0.663338(14) 0.78585(6) 0.89243(5)
N1 N 0.6391(2) 0.9953(6) 0.7313(8)
C1 C 0.6634(3) 1.1279(7) 0.7762(9)
H1 H 0.6939 1.1352 0.8765
C2 C 0.6459(3) 1.2513(7) 0.6835(9)
H2 H 0.6643 1.3402 0.7189
C3 C 0.5991(3) 1.2420(7) 0.5321(9)
C4 C 0.5758(3) 1.1066(8) 0.4812(10)
H3 H 0.5459 1.0955 0.3800
C5 C 0.5972(3) 0.9880(8) 0.5819(9)
H4 H 0.5817 0.8965 0.5443
N2 N 0.5794(2) 1.3752(7) 0.4462(8)
H5 H 0.6025 1.4493 0.4699
C6 C 0.5271(3) 1.3939(7) 0.3300(7)
O1 O 0.49156(16) 1.2961(9) 0.2754(5)
C7 C 0.5127(3) 1.5475(7) 0.2731(7)
C8 C 0.4535(3) 1.5890(7) 0.2267(8)
H6 H 0.4260 1.5179 0.2274
N3 N 0.4353(2) 1.7244(6) 0.1822(7)
C9 C 0.4753(3) 1.8254(7) 0.1758(9)
H7 H 0.4627 1.9203 0.1445
C10 C 0.5344(2) 1.7955(12) 0.2131(8)
H8 H 0.5605 1.8678 0.2050
C11 C 0.5530(3) 1.6536(8) 0.2631(8)
H9 H 0.5922 1.6297 0.2896
O2 O 0.7334(2) 0.7276(5) 0.7672(6)
C12 C 0.7058(3) 0.6415(7) 0.6513(8)
O3 O 0.6520(2) 0.6202(5) 0.6164(6)
C13 C 0.7390(3) 0.5651(8) 0.5515(8)
H10 H 0.7302 0.5885 0.4370
C14 C 0.7806(3) 0.4652(8) 0.6137(10)
H11 H 0.7989 0.4249 0.5398
C15 C 0.7997(3) 0.4145(9) 0.7934(11)
O4 O 0.8505(3) 0.3702(17) 0.8523(12)
O5 O 0.7666(2) 0.4122(5) 0.8828(6)
O6 O 0.6878(2) 0.5595(6) 1.0074(8)
H12 H 0.7102 0.5204 0.9632
H13 H 0.678(5) 0.488(13) 1.058(12)
Cd1A Cd 0.336662(14) 1.78585(6) 0.10757(5)
Cd1C Cd 0.836662(14) 0.28585(6) 1.10757(5)
N3A N 0.5647(2) 0.7244(6) 0.8178(7)
O4C O 0.6495(3) 0.8702(17) 1.1477(12)
O5C O 0.7334(2) 0.9122(5) 1.1172(6)
O7 O 0.8395(3) 0.8610(8) 0.7936(8)
H14 H 0.807(5) 0.814(17) 0.792(15)
H15 H 0.867(4) 0.765(14) 0.858(12)
O8 O 0.4326(3) 0.1721(7) 0.9621(8)
loop_
_geom_bond_atom_site_label_1
_geom_bond_atom_site_label_2
_geom_bond_site_symmetry_1
_geom_bond_site_symmetry_2
Cd1 N1 1_555 1_555
N1 C1 1_555 1_555
C1 H1 1_555 1_555
C2 C1 1_555 1_555
H2 C2 1_555 1_555
C3 C2 1_555 1_555
C4 C3 1_555 1_555
H3 C4 1_555 1_555
C5 N1 1_555 1_555
H4 C5 1_555 1_555
N2 C3 1_555 1_555
H5 N2 1_555 1_555
C6 N2 1_555 1_555
O1 C6 1_555 1_555
C7 C6 1_555 1_555
C8 C7 1_555 1_555
H6 C8 1_555 1_555
N3 C8 1_555 1_555
C9 N3 1_555 1_555
H7 C9 1_555 1_555
C10 C9 1_555 1_555
H8 C10 1_555 1_555
C11 C7 1_555 1_555
H9 C11 1_555 1_555
O2 Cd1 1_555 1_555
C12 O2 1_555 1_555
O3 Cd1 1_555 1_555
C13 C12 1_555 1_555
H10 C13 1_555 1_555
C14 C13 1_555 1_555
H11 C14 1_555 1_555
C15 C14 1_555 1_555
O4 C15 1_555 1_555
O5 C15 1_555 1_555
O6 Cd1 1_555 1_555
H12 O6 1_555 1_555
O7 H14 1_555 1_555
H13 O6 1_555 1_555
H15 O7 1_555 1_555
Cd1A N3 1_555 1_555
Cd1C O4 1_555 1_555
N3A Cd1 1_555 1_555
O4C Cd1 1_555 1_555
O5C Cd1 1_555 1_555
C4 C5 1_555 1_555
C10 C11 1_555 1_555
C12 O3 1_555 1_555
O5 Cd1C 1_555 1_555

#END
