
#######################################################################
#
#                 Cambridge Crystallographic Data Centre
#                                CCDC 
#
#######################################################################
#
# If this CIF has been generated from an entry in the Cambridge 
# Structural Database, then it will include bibliographic, chemical, 
# crystal, experimental, refinement or atomic coordinate data resulting 
# from the CCDC's data processing and validation procedures.
#
#######################################################################

data_YEPGAC
_symmetry_cell_setting           monoclinic
_symmetry_space_group_name_H-M   'P 21/c'
_symmetry_Int_Tables_number      14
_space_group_name_Hall           '-P 2ybc'
loop_
_symmetry_equiv_pos_site_id
_symmetry_equiv_pos_as_xyz
1 x,y,z
2 -x,1/2+y,1/2-z
3 -x,-y,-z
4 x,1/2-y,1/2+z
_cell_length_a                   16.256(7)
_cell_length_b                   11.091(5)
_cell_length_c                   15.798(7)
_cell_angle_alpha                90
_cell_angle_beta                 113.061(7)
_cell_angle_gamma                90
_cell_volume                     2620.69
loop_
_atom_site_label
_atom_site_type_symbol
_atom_site_fract_x
_atom_site_fract_y
_atom_site_fract_z
Ag1 Ag 0.48343(4) 0.85580(6) 0.03458(4)
N1 N 0.4227(3) 0.9882(5) 0.0850(4)
N2 N 0.3211(3) 1.1068(5) 0.0971(3)
N3 N 0.0888(3) 1.2631(4) 0.1335(3)
N4 N 0.1224(3) 1.8036(4) 0.3345(3)
N5 N 0.3531(4) 2.0912(6) 0.5052(4)
N6 N 0.4598(4) 2.2073(6) 0.5049(4)
O1 O 0.0825(3) 1.3829(3) 0.0131(3)
O2 O 0.1002(3) 1.2004(4) 0.2775(3)
O3 O 0.0984(3) 1.8671(3) 0.1885(3)
O4 O 0.1373(3) 1.6835(4) 0.4588(3)
C1 C 0.4590(4) 1.0524(8) 0.1646(5)
H1 H 0.5179 1.0468 0.2068
C2 C 0.3971(4) 1.1243(6) 0.1729(5)
H2 H 0.4045 1.1765 0.2214
C3 C 0.3393(4) 1.0248(6) 0.0444(5)
H3 H 0.2990 0.9977 -0.0124
C4 C 0.2347(4) 1.1655(5) 0.0769(4)
H4 H 0.2040 1.1762 0.0110
H5 H 0.2444 1.2446 0.1054
C5 C 0.1773(4) 1.0916(5) 0.1123(5)
H6 H 0.2077 1.0834 0.1785
H7 H 0.1705 1.0114 0.0858
C6 C 0.0846(4) 1.1454(5) 0.0902(5)
H8 H 0.0540 1.1539 0.0240
H9 H 0.0501 1.0905 0.1111
C7 C 0.0879(3) 1.3721(4) 0.0897(4)
C8 C 0.0950(3) 1.4680(5) 0.1597(3)
C9 C 0.0957(3) 1.5924(5) 0.1498(3)
H10 H 0.0902 1.6297 0.0951
C10 C 0.1053(3) 1.6558(4) 0.2284(3)
C11 C 0.1081(3) 1.7885(5) 0.2426(4)
C12 C 0.1264(3) 1.6946(6) 0.3794(4)
C13 C 0.1131(3) 1.5997(5) 0.3093(3)
C14 C 0.1101(3) 1.4769(5) 0.3170(4)
H11 H 0.1137 1.4398 0.3711
C15 C 0.1014(3) 1.4121(5) 0.2404(4)
C16 C 0.0978(3) 1.2787(5) 0.2236(5)
C17 C 0.1377(4) 1.9199(6) 0.3798(4)
H12 H 0.1182 1.9175 0.4304
H13 H 0.1029 1.9809 0.3366
C18 C 0.2390(5) 1.9540(8) 0.4169(6)
H14 H 0.2745 1.8848 0.4480
H15 H 0.2549 1.9742 0.3654
C19 C 0.2595(5) 2.0510(8) 0.4775(5)
H16 H 0.2495 2.0279 0.5320
H17 H 0.2197 2.1176 0.4486
C20 C 0.4287(5) 2.0568(8) 0.5758(5)
H18 H 0.4344 1.9943 0.6169
C21 C 0.4932(5) 2.1292(7) 0.5750(5)
H19 H 0.5525 2.1263 0.6165
C22 C 0.3745(5) 2.1814(8) 0.4631(5)
H20 H 0.3348 2.2209 0.4112
Ag1A Ag 0.51657(4) 2.35580(6) 0.46542(4)
N6A N 0.5402(4) 0.7073(6) -0.0049(4)
N7 N 0.3157(3) 0.4272(7) 0.2737(5)
O5 O 0.3072(4) 0.4741(7) 0.2020(4)
O6 O 0.2977(5) 0.3183(7) 0.2730(5)
O7 O 0.3369(4) 0.4865(6) 0.3433(4)
C23 C 0.3092(4) 0.7603(6) -0.2104(5)
H21 H 0.3684 0.7678 -0.1636
H22 H 0.2767 0.7003 -0.1924
H23 H 0.2788 0.8363 -0.2184
O8 O 0.3145(7) 0.7268(13) -0.2917(10)
H24 H 0.3619 0.7508 -0.2927
loop_
_geom_bond_atom_site_label_1
_geom_bond_atom_site_label_2
_geom_bond_site_symmetry_1
_geom_bond_site_symmetry_2
Ag1 N1 1_555 1_555
N1 C1 1_555 1_555
N2 C2 1_555 1_555
N3 C6 1_555 1_555
N4 C11 1_555 1_555
N5 C19 1_555 1_555
N6 C21 1_555 1_555
N7 O5 1_555 1_555
O1 C7 1_555 1_555
O2 C16 1_555 1_555
O3 C11 1_555 1_555
O4 C12 1_555 1_555
O6 N7 1_555 1_555
O7 N7 1_555 1_555
C1 H1 1_555 1_555
C2 C1 1_555 1_555
H2 C2 1_555 1_555
C3 N1 1_555 1_555
H3 C3 1_555 1_555
C4 N2 1_555 1_555
H4 C4 1_555 1_555
H5 C4 1_555 1_555
C5 C4 1_555 1_555
H6 C5 1_555 1_555
H7 C5 1_555 1_555
C6 C5 1_555 1_555
H8 C6 1_555 1_555
H9 C6 1_555 1_555
C7 N3 1_555 1_555
C8 C7 1_555 1_555
C9 C8 1_555 1_555
H10 C9 1_555 1_555
C10 C9 1_555 1_555
C11 C10 1_555 1_555
C12 N4 1_555 1_555
C13 C10 1_555 1_555
C14 C13 1_555 1_555
H11 C14 1_555 1_555
C15 C8 1_555 1_555
C16 N3 1_555 1_555
C17 N4 1_555 1_555
H12 C17 1_555 1_555
H13 C17 1_555 1_555
C18 C17 1_555 1_555
H14 C18 1_555 1_555
H15 C18 1_555 1_555
C19 C18 1_555 1_555
H16 C19 1_555 1_555
H17 C19 1_555 1_555
C20 N5 1_555 1_555
H18 C20 1_555 1_555
C21 C20 1_555 1_555
H19 C21 1_555 1_555
C22 N5 1_555 1_555
H20 C22 1_555 1_555
C23 H21 1_555 1_555
H22 C23 1_555 1_555
H23 C23 1_555 1_555
O8 C23 1_555 1_555
H24 O8 1_555 1_555
Ag1A N6 1_555 1_555
N6A Ag1 1_555 1_555
N2 C3 1_555 1_555
N6 C22 1_555 1_555
C12 C13 1_555 1_555
C14 C15 1_555 1_555
C15 C16 1_555 1_555

#END
