
#######################################################################
#
#                 Cambridge Crystallographic Data Centre
#                                CCDC 
#
#######################################################################
#
# If this CIF has been generated from an entry in the Cambridge 
# Structural Database, then it will include bibliographic, chemical, 
# crystal, experimental, refinement or atomic coordinate data resulting 
# from the CCDC's data processing and validation procedures.
#
#######################################################################

data_YERRUJ
_symmetry_cell_setting           monoclinic
_symmetry_space_group_name_H-M   'P 21/n'
_symmetry_Int_Tables_number      14
_space_group_name_Hall           '-P 2yn'
loop_
_symmetry_equiv_pos_site_id
_symmetry_equiv_pos_as_xyz
1 x,y,z
2 1/2-x,1/2+y,1/2-z
3 -x,-y,-z
4 1/2+x,1/2-y,1/2+z
_cell_length_a                   13.285(3)
_cell_length_b                   9.3058(18)
_cell_length_c                   22.913(5)
_cell_angle_alpha                90
_cell_angle_beta                 105.296(4)
_cell_angle_gamma                90
_cell_volume                     2732.33
loop_
_atom_site_label
_atom_site_type_symbol
_atom_site_fract_x
_atom_site_fract_y
_atom_site_fract_z
C1 C 0.1428(2) -0.1352(3) 0.28659(16)
H1 H 0.1780 -0.1425 0.2566
C2 C -0.0327(3) 0.0087(4) 0.36193(17)
H2 H -0.0675 0.0897 0.3430
C3 C 0.0411(2) -0.0617(3) 0.33896(15)
C4 C -0.0521(3) -0.0458(4) 0.4134(2)
H3 H -0.1021 -0.0020 0.4292
C5 C 0.0924(2) -0.1848(3) 0.36762(15)
C6 C 0.0739(3) -0.2379(4) 0.42044(18)
H4 H 0.1088 -0.3185 0.4398
C7 C 0.0015(3) -0.1659(5) 0.44285(18)
H5 H -0.0120 -0.1980 0.4785
C8 C 0.1115(2) 0.4949(3) 0.19261(16)
H6 H 0.1648 0.4942 0.2283
C9 C -0.0175(2) 0.4308(3) 0.11958(15)
C10 C 0.0080(3) 0.5715(3) 0.10754(17)
C11 C -0.1517(3) 0.4349(5) 0.0285(2)
H7 H -0.2065 0.3903 0.0007
C12 C -0.0986(3) 0.3614(4) 0.07904(18)
H8 H -0.1165 0.2674 0.0859
C13 C -0.1246(4) 0.5767(5) 0.0181(2)
H9 H -0.1625 0.6243 -0.0164
C14 C -0.0445(3) 0.6464(4) 0.05708(19)
H10 H -0.0263 0.7399 0.0499
C15 C -0.1801(3) 0.2665(4) 0.21130(17)
H11 H -0.1562 0.3571 0.2257
C16 C -0.1854(2) 0.0455(4) 0.18489(15)
C17 C -0.2882(3) 0.0913(5) 0.17406(18)
C18 C -0.1632(3) -0.0930(4) 0.17079(16)
H12 H -0.0947 -0.1251 0.1777
C19 C -0.2473(3) -0.1831(4) 0.14579(18)
H13 H -0.2354 -0.2773 0.1357
C20 C -0.3721(3) 0.0016(6) 0.1501(2)
H14 H -0.4407 0.0323 0.1441
C21 C -0.3487(3) -0.1328(6) 0.1358(2)
H15 H -0.4034 -0.1948 0.1185
C22 C 0.2861(3) -0.0828(4) -0.00088(16)
H16 H 0.3179 -0.0992 -0.0319
C23 C 0.1935(3) -0.0074(4) -0.01175(16)
H17 H 0.1623 0.0264 -0.0505
C24 C 0.1470(2) 0.0183(3) 0.03417(15)
H18 H 0.0851 0.0702 0.0261
C25 C 0.1911(2) -0.0322(3) 0.09259(14)
C26 C 0.1390(2) 0.0127(3) 0.14123(14)
C27 C 0.3310(2) -0.1336(3) 0.05686(16)
H19 H 0.3932 -0.1849 0.0642
C28 C 0.2853(2) -0.1098(3) 0.10430(14)
C29 C 0.3346(2) -0.1757(3) 0.16508(13)
N1 N 0.04877(19) 0.3849(3) 0.17399(13)
N2 N 0.0911(2) 0.6079(3) 0.15514(14)
H20 H 0.1240 0.6885 0.1600
N3 N 0.07537(18) -0.0324(2) 0.28776(12)
N4 N 0.1557(2) -0.2280(3) 0.33228(13)
H21 H 0.1964 -0.3015 0.3385
N5 N -0.11842(19) 0.1593(3) 0.20780(12)
N6 N -0.2816(3) 0.2320(4) 0.19189(16)
H22 H -0.3333 0.2884 0.1908
O1 O 0.04688(17) -0.0152(3) 0.13522(11)
O2 O 0.19313(16) 0.0860(2) 0.18473(10)
O3 O 0.43230(15) -0.1861(2) 0.18201(10)
O4 O 0.27580(14) -0.2245(2) 0.19618(9)
Cd1 Cd 0.063063(16) 0.17301(2) 0.228832(11)
O3A O 0.06770(15) 0.3139(2) 0.31799(10)
O4A O 0.22420(14) 0.2755(2) 0.30382(9)
Cd1A Cd 0.436937(16) -0.32699(2) 0.271168(11)
loop_
_geom_bond_atom_site_label_1
_geom_bond_atom_site_label_2
_geom_bond_site_symmetry_1
_geom_bond_site_symmetry_2
C1 H1 1_555 1_555
C2 H2 1_555 1_555
C3 C2 1_555 1_555
C4 C2 1_555 1_555
H3 C4 1_555 1_555
C5 C3 1_555 1_555
C6 C5 1_555 1_555
H4 C6 1_555 1_555
C7 C4 1_555 1_555
H5 C7 1_555 1_555
C8 H6 1_555 1_555
C9 C10 1_555 1_555
C10 C14 1_555 1_555
C11 H7 1_555 1_555
C12 C9 1_555 1_555
H8 C12 1_555 1_555
C13 C11 1_555 1_555
H9 C13 1_555 1_555
C14 C13 1_555 1_555
H10 C14 1_555 1_555
C15 H11 1_555 1_555
C16 C17 1_555 1_555
C17 C20 1_555 1_555
C18 C16 1_555 1_555
H12 C18 1_555 1_555
C19 C18 1_555 1_555
H13 C19 1_555 1_555
C20 H14 1_555 1_555
C21 C19 1_555 1_555
H15 C21 1_555 1_555
C22 H16 1_555 1_555
C23 C22 1_555 1_555
H17 C23 1_555 1_555
C24 C23 1_555 1_555
H18 C24 1_555 1_555
C25 C24 1_555 1_555
C26 C25 1_555 1_555
C27 C22 1_555 1_555
H19 C27 1_555 1_555
C28 C25 1_555 1_555
C29 C28 1_555 1_555
N1 C8 1_555 1_555
N2 C8 1_555 1_555
H20 N2 1_555 1_555
N3 C1 1_555 1_555
N4 C1 1_555 1_555
H21 N4 1_555 1_555
N5 C15 1_555 1_555
N6 C15 1_555 1_555
H22 N6 1_555 1_555
O1 C26 1_555 1_555
O2 C26 1_555 1_555
O3 C29 1_555 1_555
O4 C29 1_555 1_555
Cd1 N1 1_555 1_555
O3A Cd1 1_555 1_555
O4A Cd1 1_555 1_555
Cd1A O3 1_555 1_555
C3 N3 1_555 1_555
C5 N4 1_555 1_555
C6 C7 1_555 1_555
C9 N1 1_555 1_555
C10 N2 1_555 1_555
C11 C12 1_555 1_555
C16 N5 1_555 1_555
C17 N6 1_555 1_555
C20 C21 1_555 1_555
C27 C28 1_555 1_555
N3 Cd1 1_555 1_555
N5 Cd1 1_555 1_555
O1 Cd1 1_555 1_555
O2 Cd1 1_555 1_555
O4 Cd1A 1_555 1_555

#END
