
#######################################################################
#
#                 Cambridge Crystallographic Data Centre
#                                CCDC 
#
#######################################################################
#
# If this CIF has been generated from an entry in the Cambridge 
# Structural Database, then it will include bibliographic, chemical, 
# crystal, experimental, refinement or atomic coordinate data resulting 
# from the CCDC's data processing and validation procedures.
#
#######################################################################

data_YERVEX
_symmetry_cell_setting           monoclinic
_symmetry_space_group_name_H-M   'C 2/c'
_symmetry_Int_Tables_number      15
_space_group_name_Hall           '-C 2yn'
loop_
_symmetry_equiv_pos_site_id
_symmetry_equiv_pos_as_xyz
1 x,y,z
2 1/2+x,1/2+y,z
3 -x,y,1/2-z
4 1/2-x,1/2+y,1/2-z
5 -x,-y,-z
6 1/2-x,1/2-y,-z
7 x,-y,1/2+z
8 1/2+x,1/2-y,1/2+z
_cell_length_a                   22.997(2)
_cell_length_b                   10.4104(9)
_cell_length_c                   16.2512(18)
_cell_angle_alpha                90
_cell_angle_beta                 133.949(3)
_cell_angle_gamma                90
_cell_volume                     2801.12
loop_
_atom_site_label
_atom_site_type_symbol
_atom_site_fract_x
_atom_site_fract_y
_atom_site_fract_z
Mn1 Mn -0.00748(3) 0.04700(4) 0.60835(4)
Cl1 Cl -0.07616(5) -0.10466(8) 0.43997(7)
O1 O -0.09226(13) -0.0113(2) 0.61716(18)
O2 O -0.08527(14) -0.0703(2) 0.75523(18)
N1 N 0.05009(15) 0.2404(3) 0.7097(2)
N2 N -0.09630(16) 0.2093(3) 0.4958(2)
C1 C 0.1214(2) 0.2564(4) 0.8147(3)
H1 H 0.1498 0.1838 0.8592
C2 C 0.1563(3) 0.3763(4) 0.8622(4)
H2 H 0.2065 0.3830 0.9368
C3 C 0.1163(3) 0.4825(4) 0.7986(5)
H3 H 0.1389 0.5632 0.8294
C4 C 0.0411(3) 0.4716(4) 0.6867(4)
C5 C -0.0056(4) 0.5794(4) 0.6128(6)
H4 H 0.0156 0.6618 0.6383
C6 C -0.0791(4) 0.5631(4) 0.5078(5)
H5 H -0.1082 0.6347 0.4621
C7 C -0.1138(3) 0.4390(4) 0.4646(4)
C8 C -0.1924(3) 0.4162(5) 0.3587(4)
H6 H -0.2249 0.4850 0.3116
C9 C -0.2213(3) 0.2947(5) 0.3242(3)
H7 H -0.2739 0.2797 0.2550
C10 C -0.1707(2) 0.1929(4) 0.3942(3)
H8 H -0.1900 0.1096 0.3687
C11 C -0.0684(2) 0.3299(3) 0.5321(3)
C12 C 0.0100(2) 0.3469(3) 0.6456(3)
C13 C -0.11480(18) -0.0756(3) 0.6553(3)
C14 C -0.18523(17) -0.1663(3) 0.5742(2)
C15 C -0.21157(18) -0.1977(3) 0.4700(3)
H9 H -0.1860 -0.1627 0.4492
C16 C -0.22407(18) -0.2188(3) 0.6034(3)
H10 H -0.2068 -0.1978 0.6732
Mn1D Mn 0.00748(3) -0.04700(4) 0.39165(4)
Mn1B Mn 0.00748(3) 0.04700(4) 0.89165(4)
Mn1E Mn -0.49252(3) -0.54700(4) 0.39165(4)
Mn1G Mn -0.50748(3) -0.54700(4) 0.10835(4)
Cl1D Cl 0.07616(5) 0.10466(8) 0.56003(7)
O1E O -0.40774(13) -0.4887(2) 0.38284(18)
O1D O 0.09226(13) 0.0113(2) 0.38284(18)
O2E O -0.41473(14) -0.4297(2) 0.24477(18)
O2B O 0.08527(14) -0.0703(2) 0.74477(18)
O2F O -0.08527(14) 0.0703(2) 0.25523(18)
N1D N -0.05009(15) -0.2404(3) 0.2903(2)
N2D N 0.09630(16) -0.2093(3) 0.5042(2)
C1D C -0.1214(2) -0.2564(4) 0.1853(3)
H1D H -0.1498 -0.1838 0.1408
C2D C -0.1563(3) -0.3763(4) 0.1378(4)
H2D H -0.2065 -0.3830 0.0632
C3D C -0.1163(3) -0.4825(4) 0.2014(5)
H3D H -0.1389 -0.5632 0.1706
C4D C -0.0411(3) -0.4716(4) 0.3133(4)
C5D C 0.0056(4) -0.5794(4) 0.3872(6)
H4D H -0.0156 -0.6618 0.3617
C6D C 0.0791(4) -0.5631(4) 0.4922(5)
H5D H 0.1082 -0.6347 0.5379
C7D C 0.1138(3) -0.4390(4) 0.5354(4)
C8D C 0.1924(3) -0.4162(5) 0.6413(4)
H6D H 0.2249 -0.4850 0.6884
C9D C 0.2213(3) -0.2947(5) 0.6758(3)
H7D H 0.2739 -0.2797 0.7450
C10D C 0.1707(2) -0.1929(4) 0.6058(3)
H8D H 0.1900 -0.1096 0.6313
C11D C 0.0684(2) -0.3299(3) 0.4679(3)
C12D C -0.0100(2) -0.3469(3) 0.3544(3)
C13E C -0.38520(18) -0.4244(3) 0.3447(3)
C14E C -0.31477(17) -0.3337(3) 0.4258(2)
C15E C -0.28843(18) -0.3023(3) 0.5300(3)
H9E H -0.3140 -0.3373 0.5508
C16E C -0.27593(18) -0.2812(3) 0.3966(3)
H10E H -0.2932 -0.3022 0.3268
loop_
_geom_bond_atom_site_label_1
_geom_bond_atom_site_label_2
_geom_bond_site_symmetry_1
_geom_bond_site_symmetry_2
Mn1 Cl1 1_555 1_555
Cl1 Mn1D 1_555 1_555
O1 Mn1 1_555 1_555
O2 C13 1_555 1_555
N1 Mn1 1_555 1_555
N2 Mn1 1_555 1_555
C1 N1 1_555 1_555
H1 C1 1_555 1_555
C2 C1 1_555 1_555
H2 C2 1_555 1_555
C3 C2 1_555 1_555
H3 C3 1_555 1_555
C4 C3 1_555 1_555
C5 C4 1_555 1_555
H4 C5 1_555 1_555
C6 C5 1_555 1_555
H5 C6 1_555 1_555
C7 C6 1_555 1_555
C8 C7 1_555 1_555
H6 C8 1_555 1_555
C9 C8 1_555 1_555
H7 C9 1_555 1_555
C10 N2 1_555 1_555
H8 C10 1_555 1_555
C11 N2 1_555 1_555
C12 N1 1_555 1_555
C13 O1 1_555 1_555
C14 C13 1_555 1_555
C15 C14 1_555 1_555
H9 C15 1_555 1_555
C16 C14 1_555 1_555
H10 C16 1_555 1_555
Mn1D Cl1D 1_555 1_555
Mn1B O2 1_555 1_555
Mn1E O1E 1_555 1_555
Mn1G O2E 1_555 1_555
Cl1D Mn1 1_555 1_555
O1E C13E 1_555 1_555
O1D Mn1D 1_555 1_555
O2E C13E 1_555 1_555
O2B Mn1 1_555 1_555
O2F Mn1D 1_555 1_555
N1D Mn1D 1_555 1_555
N2D Mn1D 1_555 1_555
C1D N1D 1_555 1_555
H1D C1D 1_555 1_555
C2D C1D 1_555 1_555
H2D C2D 1_555 1_555
C3D C2D 1_555 1_555
H3D C3D 1_555 1_555
C4D C3D 1_555 1_555
C5D C4D 1_555 1_555
H4D C5D 1_555 1_555
C6D C5D 1_555 1_555
H5D C6D 1_555 1_555
C7D C6D 1_555 1_555
C8D C7D 1_555 1_555
H6D C8D 1_555 1_555
C9D C8D 1_555 1_555
H7D C9D 1_555 1_555
C10D N2D 1_555 1_555
H8D C10D 1_555 1_555
C11D N2D 1_555 1_555
C12D N1D 1_555 1_555
C13E C14E 1_555 1_555
C14E C15E 1_555 1_555
C15E C16 1_555 1_555
H9E C15E 1_555 1_555
C16E C15 1_555 1_555
H10E C16E 1_555 1_555
C4 C12 1_555 1_555
C7 C11 1_555 1_555
C9 C10 1_555 1_555
C11 C12 1_555 1_555
C4D C12D 1_555 1_555
C7D C11D 1_555 1_555
C9D C10D 1_555 1_555
C11D C12D 1_555 1_555
C14E C16E 1_555 1_555

#END
