
#######################################################################
#
#                 Cambridge Crystallographic Data Centre
#                                CCDC 
#
#######################################################################
#
# If this CIF has been generated from an entry in the Cambridge 
# Structural Database, then it will include bibliographic, chemical, 
# crystal, experimental, refinement or atomic coordinate data resulting 
# from the CCDC's data processing and validation procedures.
#
#######################################################################

data_YESSOF
_symmetry_cell_setting           orthorhombic
_symmetry_space_group_name_H-M   'P b c n'
_symmetry_Int_Tables_number      60
_space_group_name_Hall           '-P 2n 2ab'
loop_
_symmetry_equiv_pos_site_id
_symmetry_equiv_pos_as_xyz
1 x,y,z
2 1/2+x,1/2-y,-z
3 -x,y,1/2-z
4 1/2-x,1/2-y,1/2+z
5 -x,-y,-z
6 1/2-x,1/2+y,z
7 x,-y,1/2+z
8 1/2+x,1/2+y,1/2-z
_cell_length_a                   8.534(3)
_cell_length_b                   21.189(5)
_cell_length_c                   17.251(8)
_cell_angle_alpha                90
_cell_angle_beta                 90
_cell_angle_gamma                90
_cell_volume                     3119.45
loop_
_atom_site_label
_atom_site_type_symbol
_atom_site_fract_x
_atom_site_fract_y
_atom_site_fract_z
C1 C -0.0993(11) 0.3166(4) 0.1571(5)
C2 C 0.0352(10) 0.3222(4) 0.1122(6)
H1 H 0.0513 0.3594 0.0826
C3 C 0.1442(11) 0.2752(5) 0.1096(5)
C4 C -0.2165(13) 0.3706(5) 0.1534(7)
C5 C 0.2752(14) 0.2819(6) 0.0515(6)
C6 C 0.0287(11) 0.0580(4) 0.1414(5)
C7 C -0.1327(11) 0.0526(5) 0.1218(5)
H2 H -0.1685 0.0169 0.0938
C8 C -0.2375(11) 0.0989(4) 0.1431(5)
C9 C -0.4062(13) 0.0891(5) 0.1178(6)
C10 C 0.1365(11) 0.0061(5) 0.1115(6)
Cs1 Cs -0.5000 0.22952(4) 0.2500
Er1 Er 0.0000 0.18500(2) 0.2500
F1 F -0.1824(15) 0.4148(5) 0.1985(7)
F2 F -0.2284(13) 0.3975(5) 0.0885(5)
F3 F -0.3519(10) 0.3549(5) 0.1729(9)
F4 F 0.2561(11) 0.2413(4) -0.0065(5)
F5 F 0.4144(8) 0.2671(4) 0.0800(4)
F6 F 0.2911(8) 0.3379(4) 0.0205(4)
F7 F 0.2326(7) 0.0300(3) 0.0586(4)
F8 F 0.2261(8) -0.0149(3) 0.1677(4)
F9 F 0.0647(8) -0.0415(3) 0.0781(5)
F10 F -0.4894(9) 0.0686(6) 0.1727(5)
F11 F -0.4720(8) 0.1426(4) 0.0948(6)
F12 F -0.4240(8) 0.0519(4) 0.0579(5)
O1 O -0.1377(7) 0.2724(3) 0.2013(4)
O2 O 0.1511(7) 0.2256(3) 0.1502(3)
O3 O -0.2160(7) 0.1480(3) 0.1821(3)
O4 O 0.0910(6) 0.1004(3) 0.1794(4)
C1B C -0.9007(11) 0.3166(4) 0.3429(5)
C2B C -1.0352(10) 0.3222(4) 0.3878(6)
H1B H -1.0513 0.3594 0.4174
C3B C -1.1442(11) 0.2752(5) 0.3904(5)
C4B C -0.7835(13) 0.3706(5) 0.3466(7)
C5B C -1.2752(14) 0.2819(6) 0.4485(6)
C6B C -1.0287(11) 0.0580(4) 0.3586(5)
C7B C -0.8673(11) 0.0526(5) 0.3782(5)
H2B H -0.8315 0.0169 0.4062
C8B C -0.7625(11) 0.0989(4) 0.3569(5)
C9B C -0.5938(13) 0.0891(5) 0.3822(6)
C10B C -1.1365(11) 0.0061(5) 0.3885(6)
Cs1_2 Cs 0.5000 0.22952(4) 0.2500
Cs1_3 Cs -1.5000 0.22952(4) 0.2500
Er1_2 Er -1.0000 0.18500(2) 0.2500
F1B F -0.8176(15) 0.4148(5) 0.3015(7)
F2B F -0.7716(13) 0.3975(5) 0.4115(5)
F3B F -0.6481(10) 0.3549(5) 0.3271(9)
F4B F -1.2561(11) 0.2413(4) 0.5065(5)
F5_2 F -0.5856(8) 0.2671(4) 0.0800(4)
F5B F -0.4144(8) 0.2671(4) 0.4200(4)
F5B_2 F -1.4144(8) 0.2671(4) 0.4200(4)
F6B F -1.2911(8) 0.3379(4) 0.4795(4)
F7B F -1.2326(7) 0.0300(3) 0.4414(4)
F8B F -1.2261(8) -0.0149(3) 0.3323(4)
F9B F -1.0647(8) -0.0415(3) 0.4219(5)
F10B F -0.5106(9) 0.0686(6) 0.3273(5)
F11B F -0.5280(8) 0.1426(4) 0.4052(6)
F12B F -0.5760(8) 0.0519(4) 0.4421(5)
O1B O 0.1377(7) 0.2724(3) 0.2987(4)
O1B_2 O -0.8623(7) 0.2724(3) 0.2987(4)
O2B O -0.1511(7) 0.2256(3) 0.3498(3)
O2B_2 O -1.1511(7) 0.2256(3) 0.3498(3)
O3B O 0.2160(7) 0.1480(3) 0.3179(3)
O3B_2 O -0.7840(7) 0.1480(3) 0.3179(3)
O4B O -0.0910(6) 0.1004(3) 0.3206(4)
O4B_2 O -1.0910(6) 0.1004(3) 0.3206(4)
loop_
_geom_bond_atom_site_label_1
_geom_bond_atom_site_label_2
_geom_bond_site_symmetry_1
_geom_bond_site_symmetry_2
C1 C2 1_555 1_555
C2 H1 1_555 1_555
C3 C2 1_555 1_555
C4 C1 1_555 1_555
C5 C3 1_555 1_555
C6 C7 1_555 1_555
C7 H2 1_555 1_555
C8 C7 1_555 1_555
C9 C8 1_555 1_555
C10 C6 1_555 1_555
Cs1 F3 1_555 1_555
Er1 O1 1_555 1_555
F1 C4 1_555 1_555
F2 C4 1_555 1_555
F3 C4 1_555 1_555
F4 C5 1_555 1_555
F5 C5 1_555 1_555
F6 C5 1_555 1_555
F7 C10 1_555 1_555
F8 C10 1_555 1_555
F9 C10 1_555 1_555
F10 C9 1_555 1_555
F11 C9 1_555 1_555
F12 C9 1_555 1_555
O1 C1 1_555 1_555
O2 C3 1_555 1_555
O3 C8 1_555 1_555
O4 C6 1_555 1_555
C1B C2B 1_555 1_555
C2B H1B 1_555 1_555
C3B C2B 1_555 1_555
C4B C1B 1_555 1_555
C5B C3B 1_555 1_555
C6B C7B 1_555 1_555
C7B H2B 1_555 1_555
C8B C7B 1_555 1_555
C9B C8B 1_555 1_555
C10B C6B 1_555 1_555
Cs1_2 F5 1_555 1_555
Cs1_3 F5B_2 1_555 1_555
Er1_2 O1B_2 1_555 1_555
F1B C4B 1_555 1_555
F2B C4B 1_555 1_555
F3B Cs1 1_555 1_555
F4B C5B 1_555 1_555
F5_2 Cs1 1_555 1_555
F5B Cs1 1_555 1_555
F5B_2 C5B 1_555 1_555
F6B C5B 1_555 1_555
F7B C10B 1_555 1_555
F8B C10B 1_555 1_555
F9B C10B 1_555 1_555
F10B C9B 1_555 1_555
F11B C9B 1_555 1_555
F12B C9B 1_555 1_555
O1B Er1 1_555 1_555
O1B_2 C1B 1_555 1_555
O2B Er1 1_555 1_555
O2B_2 C3B 1_555 1_555
O3B Er1 1_555 1_555
O3B_2 Cs1 1_555 1_555
O4B Er1 1_555 1_555
O4B_2 C6B 1_555 1_555
Cs1 O3 1_555 1_555
Er1 O2 1_555 1_555
Er1 O3 1_555 1_555
Er1 O4 1_555 1_555
C4B F3B 1_555 1_555
C8B O3B_2 1_555 1_555
Cs1_2 O3B 1_555 1_555
Er1_2 O2B_2 1_555 1_555
Er1_2 O3B_2 1_555 1_555
Er1_2 O4B_2 1_555 1_555

#END
