
#######################################################################
#
#                 Cambridge Crystallographic Data Centre
#                                CCDC 
#
#######################################################################
#
# If this CIF has been generated from an entry in the Cambridge 
# Structural Database, then it will include bibliographic, chemical, 
# crystal, experimental, refinement or atomic coordinate data resulting 
# from the CCDC's data processing and validation procedures.
#
#######################################################################

data_YETTIB
_symmetry_cell_setting           monoclinic
_symmetry_space_group_name_H-M   'P 21/c'
_symmetry_Int_Tables_number      14
_space_group_name_Hall           '-P 2ybc'
loop_
_symmetry_equiv_pos_site_id
_symmetry_equiv_pos_as_xyz
1 x,y,z
2 -x,1/2+y,1/2-z
3 -x,-y,-z
4 x,1/2-y,1/2+z
_cell_length_a                   8.995(7)
_cell_length_b                   10.410(9)
_cell_length_c                   30.97(3)
_cell_angle_alpha                90
_cell_angle_beta                 93.224(14)
_cell_angle_gamma                90
_cell_volume                     2895.38
loop_
_atom_site_label
_atom_site_type_symbol
_atom_site_fract_x
_atom_site_fract_y
_atom_site_fract_z
Ag1 Ag -0.24044(13) 0.77179(10) -0.37277(3)
N1 N -0.3085(10) 0.2240(9) -0.2257(3)
N2 N -0.2051(10) 0.3261(9) -0.2220(3)
N3 N -0.0867(11) 0.6181(9) -0.3520(3)
N4 N -0.3962(11) -0.0771(9) -0.3632(3)
C1 C -0.5152(13) 0.0038(10) -0.1963(4)
C2 C -0.6028(14) -0.0883(11) -0.1785(4)
H1 H -0.6529 -0.1495 -0.1956
C3 C -0.6136(15) -0.0866(12) -0.1341(4)
H2 H -0.6714 -0.1494 -0.1219
C4 C -0.5453(13) 0.0008(11) -0.1075(4)
H3 H -0.5576 -0.0024 -0.0779
C5 C -0.4577(13) 0.0944(12) -0.1243(4)
H4 H -0.4100 0.1549 -0.1063
C6 C -0.4409(13) 0.0970(10) -0.1700(3)
C7 C -0.3392(12) 0.1908(10) -0.1860(4)
C8 C -0.5616(14) 0.0775(12) -0.2667(4)
C9 C -0.5245(12) 0.0487(11) -0.3122(3)
C10 C -0.4289(12) -0.0458(11) -0.3220(4)
H5 H -0.3829 -0.0923 -0.2994
C11 C -0.5890(14) 0.1267(14) -0.3466(4)
H6 H -0.6527 0.1940 -0.3406
C12 C -0.5570(15) 0.1017(13) -0.3869(4)
H7 H -0.5974 0.1518 -0.4095
C13 C -0.4602(16) -0.0021(12) -0.3955(4)
H8 H -0.4398 -0.0198 -0.4240
C14 C -0.1834(12) 0.3466(10) -0.1815(4)
C15 C -0.0856(13) 0.4438(11) -0.1576(4)
C16 C -0.0728(13) 0.4428(12) -0.1113(4)
H9 H -0.1252 0.3826 -0.0960
C17 C 0.0132(17) 0.5272(13) -0.0905(4)
H10 H 0.0229 0.5234 -0.0604
C18 C 0.0891(16) 0.6209(14) -0.1113(5)
H11 H 0.1483 0.6801 -0.0958
C19 C 0.0755(14) 0.6247(12) -0.1555(4)
H12 H 0.1244 0.6887 -0.1701
C20 C -0.0087(12) 0.5363(11) -0.1786(4)
C21 C 0.0571(13) 0.4657(11) -0.2481(4)
C22 C 0.0242(12) 0.4935(9) -0.2943(4)
C23 C 0.1013(15) 0.4182(12) -0.3241(5)
H13 H 0.1654 0.3517 -0.3156
C24 C 0.0726(19) 0.4526(16) -0.3672(5)
H14 H 0.1204 0.4086 -0.3885
C25 C -0.0192(18) 0.5445(15) -0.3783(5)
H15 H -0.0381 0.5588 -0.4077
C26 C -0.0640(14) 0.5947(11) -0.3095(4)
H16 H -0.1086 0.6477 -0.2898
C27 C -0.223(3) 0.789(2) -0.4876(9)
H17 H -0.2488 0.8773 -0.4931
H18 H -0.2632 0.7368 -0.5110
H19 H -0.1169 0.7802 -0.4852
O1 O -0.2636(8) 0.2701(7) -0.1561(2)
O2 O 0.1312(10) 0.3853(9) -0.2331(3)
O3 O -0.0227(8) 0.5513(7) -0.2236(2)
O4 O -0.6451(9) 0.1619(9) -0.2560(3)
O5 O -0.4883(8) -0.0013(7) -0.2393(2)
O6 O -0.278(2) 0.7530(15) -0.4524(4)
H20 H -0.3604 0.7016 -0.4590
Ag1_2 Ag -0.24044(13) -0.22821(10) -0.37277(3)
N4_2 N -0.3962(11) 0.9229(9) -0.3632(3)
C28 C -0.2176(19) 1.128(2) -0.0034(5)
F1 F -0.1535(15) 1.0979(15) -0.0360(4)
F2 F -0.333(2) 1.0396(13) -0.0047(5)
F3 F -0.1403(17) 1.0997(14) 0.0321(4)
O7 O -0.3910(19) 1.2853(14) -0.0416(4)
O8 O -0.1668(19) 1.3605(16) -0.0043(5)
O9 O -0.3664(16) 1.2947(17) 0.0341(4)
S1 S -0.3029(6) 1.2814(5) -0.00460(14)
loop_
_geom_bond_atom_site_label_1
_geom_bond_atom_site_label_2
_geom_bond_site_symmetry_1
_geom_bond_site_symmetry_2
Ag1 N3 1_555 1_555
N1 N2 1_555 1_555
N2 C14 1_555 1_555
N3 C25 1_555 1_555
N4 C10 1_555 1_555
C1 C2 1_555 1_555
C2 H1 1_555 1_555
C3 C2 1_555 1_555
H2 C3 1_555 1_555
C4 C3 1_555 1_555
H3 C4 1_555 1_555
C5 C4 1_555 1_555
H4 C5 1_555 1_555
C6 C1 1_555 1_555
C7 N1 1_555 1_555
C8 C9 1_555 1_555
C9 C10 1_555 1_555
C10 H5 1_555 1_555
C11 C9 1_555 1_555
H6 C11 1_555 1_555
C12 C11 1_555 1_555
H7 C12 1_555 1_555
C13 N4 1_555 1_555
H8 C13 1_555 1_555
C14 C15 1_555 1_555
C15 C16 1_555 1_555
C16 H9 1_555 1_555
C17 C16 1_555 1_555
H10 C17 1_555 1_555
C18 C17 1_555 1_555
H11 C18 1_555 1_555
C19 C18 1_555 1_555
H12 C19 1_555 1_555
C20 C15 1_555 1_555
C21 C22 1_555 1_555
C22 C23 1_555 1_555
C23 H13 1_555 1_555
C24 C23 1_555 1_555
H14 C24 1_555 1_555
C25 C24 1_555 1_555
H15 C25 1_555 1_555
C26 N3 1_555 1_555
H16 C26 1_555 1_555
C27 H17 1_555 1_555
H18 C27 1_555 1_555
H19 C27 1_555 1_555
C28 F1 1_555 1_555
F2 C28 1_555 1_555
F3 C28 1_555 1_555
O1 C7 1_555 1_555
O2 C21 1_555 1_555
O3 C20 1_555 1_555
O4 C8 1_555 1_555
O5 C1 1_555 1_555
O6 Ag1 1_555 1_555
H20 O6 1_555 1_555
O7 S1 1_555 1_555
O8 S1 1_555 1_555
O9 S1 1_555 1_555
S1 C28 1_555 1_555
Ag1_2 N4 1_555 1_555
N4_2 Ag1 1_555 1_555
C5 C6 1_555 1_555
C6 C7 1_555 1_555
C8 O5 1_555 1_555
C12 C13 1_555 1_555
C14 O1 1_555 1_555
C19 C20 1_555 1_555
C21 O3 1_555 1_555
C22 C26 1_555 1_555
C27 O6 1_555 1_555

#END
