
#######################################################################
#
#                 Cambridge Crystallographic Data Centre
#                                CCDC 
#
#######################################################################
#
# If this CIF has been generated from an entry in the Cambridge 
# Structural Database, then it will include bibliographic, chemical, 
# crystal, experimental, refinement or atomic coordinate data resulting 
# from the CCDC's data processing and validation procedures.
#
#######################################################################

data_YETXUR
_symmetry_cell_setting           trigonal
_symmetry_space_group_name_H-M   'P 3 1 c'
_symmetry_Int_Tables_number      159
_space_group_name_Hall           "P 3 -2'c"
loop_
_symmetry_equiv_pos_site_id
_symmetry_equiv_pos_as_xyz
1 x,y,z
2 -y,x-y,z
3 -x+y,-x,z
4 y,x,1/2+z
5 x-y,-y,1/2+z
6 -x,-x+y,1/2+z
_cell_length_a                   13.6500(6)
_cell_length_b                   13.6500(6)
_cell_length_c                   13.6565(11)
_cell_angle_alpha                90
_cell_angle_beta                 90
_cell_angle_gamma                120
_cell_volume                     2203.61
loop_
_atom_site_label
_atom_site_type_symbol
_atom_site_fract_x
_atom_site_fract_y
_atom_site_fract_z
Na1 Na 0.0000 0.0000 -0.0068(3)
B1 B 0.0000 0.0000 0.2322(10)
H1 H 0.0000 0.0000 0.1590
C1 C 0.2141(6) 0.0957(6) 0.2116(6)
C2 C 0.2576(7) 0.1364(7) 0.3816(6)
H2 H 0.2897 0.1611 0.4448
N1 N 0.1498(5) 0.0806(5) 0.3667(5)
N2 N 0.1255(4) 0.0588(5) 0.2693(4)
S1 S 0.33761(15) 0.16198(17) 0.27922(16)
S2 S 0.21948(18) 0.0821(2) 0.08901(17)
Na1C Na 0.0000 0.0000 0.4932(3)
C1A C -0.0957(6) 0.1184(8) 0.2116(6)
C1B C -0.1184(8) -0.2141(6) 0.2116(6)
C2A C -0.1364(7) 0.1212(10) 0.3816(6)
C2B C -0.1212(10) -0.2576(7) 0.3816(6)
H2A H -0.1611 0.1286 0.4448
H2B H -0.1286 -0.2897 0.4448
N1A N -0.0806(5) 0.0692(7) 0.3667(5)
N1B N -0.0692(7) -0.1498(5) 0.3667(5)
N1C N 0.0806(5) 0.1498(5) -0.1333(5)
N1D N 0.0692(7) -0.0806(5) -0.1333(5)
N1E N -0.1498(5) -0.0692(7) -0.1333(5)
N2A N -0.0588(5) 0.0667(6) 0.2693(4)
N2B N -0.0667(6) -0.1255(4) 0.2693(4)
S1A S -0.16198(17) 0.17563(23) 0.27922(16)
S1B S -0.17563(23) -0.33761(15) 0.27922(16)
S2A S -0.0821(2) 0.13738(27) 0.08901(17)
S2B S -0.13738(27) -0.21948(18) 0.08901(17)
Na2 Na 0.3333 0.6667 -0.0039(5)
Na3 Na 0.3333 0.6667 0.4944(5)
B2 B 0.3333 0.6667 0.2400(9)
H3 H 0.3333 0.6667 0.1668
B3 B 0.3333 0.6667 -0.2545(10)
H4 H 0.3333 0.6667 -0.1813
C3 C 0.2294(7) 0.4540(7) 0.2152(6)
C4 C 0.2296(7) 0.4125(7) 0.3869(8)
H5 H 0.2228 0.3805 0.4501
C5 C 0.4394(6) 0.5569(6) -0.2245(6)
C6 C 0.4941(6) 0.5724(6) -0.3973(7)
H6 H 0.5245 0.5715 -0.4597
N3 N 0.2731(6) 0.5157(5) 0.3757(5)
N4 N 0.2777(5) 0.5423(5) 0.2759(5)
N5 N 0.4310(5) 0.6176(5) -0.3826(5)
N6 N 0.4013(5) 0.6108(5) -0.2858(5)
S3 S 0.18227(19) 0.32965(15) 0.28501(18)
S4 S 0.2182(2) 0.44847(18) 0.09454(16)
S5 S 0.51815(19) 0.51356(18) -0.29311(19)
S6 S 0.4195(2) 0.5328(2) -0.10455(17)
Na3_2 Na 0.3333 0.6667 -0.5056(5)
C3A C 0.5460(7) 0.7754(10) 0.2152(6)
C3B C 0.2246(10) 0.7706(7) 0.2152(6)
C4A C 0.5875(7) 0.8171(10) 0.3869(8)
C4B C 0.1829(10) 0.7704(7) 0.3869(8)
H5A H 0.6195 0.8423 0.4501
H5B H 0.1577 0.7772 0.4501
C5A C 0.4431(6) 0.8825(8) -0.2245(6)
C5B C 0.1175(8) 0.5606(6) -0.2245(6)
C6A C 0.4276(6) 0.9217(8) -0.3973(7)
C6B C 0.0783(8) 0.5059(6) -0.3973(7)
H6A H 0.4285 0.9530 -0.4597
H6B H 0.0470 0.4755 -0.4597
N3A N 0.4843(5) 0.7574(8) 0.3757(5)
N3B N 0.2426(8) 0.7269(6) 0.3757(5)
N4A N 0.4577(5) 0.7354(7) 0.2759(5)
N4B N 0.2646(7) 0.7223(5) 0.2759(5)
N5A N 0.3824(5) 0.8134(7) -0.3826(5)
N5B N 0.1866(7) 0.5690(5) -0.3826(5)
N5_2 N 0.4310(5) 0.6176(5) 0.6174(5)
N5A_2 N 0.3824(5) 0.8134(7) 0.6174(5)
N5B_2 N 0.1866(7) 0.5690(5) 0.6174(5)
N6A N 0.3892(5) 0.7905(7) -0.2858(5)
N6B N 0.2095(7) 0.5987(5) -0.2858(5)
S3A S 0.67035(15) 0.85262(24) 0.28501(18)
S3B S 0.14738(24) 0.81773(19) 0.28501(18)
S4A S 0.55153(18) 0.76973(27) 0.09454(16)
S4B S 0.23027(27) 0.7818(2) 0.09454(16)
S5A S 0.48644(18) 1.00459(26) -0.29311(19)
S5B S -0.00459(26) 0.48185(19) -0.29311(19)
S6A S 0.4672(2) 0.8867(3) -0.10455(17)
S6B S 0.1133(3) 0.5805(2) -0.10455(17)
loop_
_geom_bond_atom_site_label_1
_geom_bond_atom_site_label_2
_geom_bond_site_symmetry_1
_geom_bond_site_symmetry_2
Na1 H1 1_555 1_555
B1 H1 1_555 1_555
C1 N2 1_555 1_555
C2 H2 1_555 1_555
N1 C2 1_555 1_555
N2 B1 1_555 1_555
S1 C1 1_555 1_555
S2 Na1 1_555 1_555
Na2 H3 1_555 1_555
Na3 N3 1_555 1_555
B2 H3 1_555 1_555
B3 H4 1_555 1_555
H4 Na2 1_555 1_555
C3 N4 1_555 1_555
C4 H5 1_555 1_555
C5 N6 1_555 1_555
C6 H6 1_555 1_555
N3 C4 1_555 1_555
N4 B2 1_555 1_555
N5 C6 1_555 1_555
N6 B3 1_555 1_555
S3 C3 1_555 1_555
S4 Na2 1_555 1_555
S5 C5 1_555 1_555
S6 Na2 1_555 1_555
Na1C N1 1_555 1_555
C1A N2A 1_555 1_555
C1B N2B 1_555 1_555
C2A H2A 1_555 1_555
C2B H2B 1_555 1_555
N1A Na1C 1_555 1_555
N1B Na1C 1_555 1_555
N1C Na1 1_555 1_555
N1D Na1 1_555 1_555
N1E Na1 1_555 1_555
N2A B1 1_555 1_555
N2B B1 1_555 1_555
S1A C1A 1_555 1_555
S1B C1B 1_555 1_555
S2A Na1 1_555 1_555
S2B Na1 1_555 1_555
Na3_2 N5 1_555 1_555
C3A N4A 1_555 1_555
C3B N4B 1_555 1_555
C4A H5A 1_555 1_555
C4B H5B 1_555 1_555
C5A N6A 1_555 1_555
C5B N6B 1_555 1_555
C6A H6A 1_555 1_555
C6B H6B 1_555 1_555
N3A Na3 1_555 1_555
N3B Na3 1_555 1_555
N4A B2 1_555 1_555
N4B B2 1_555 1_555
N5A Na3_2 1_555 1_555
N5B Na3_2 1_555 1_555
N5_2 Na3 1_555 1_555
N5A_2 Na3 1_555 1_555
N5B_2 Na3 1_555 1_555
N6A B3 1_555 1_555
N6B B3 1_555 1_555
S3A C3A 1_555 1_555
S3B C3B 1_555 1_555
S4A Na2 1_555 1_555
S4B Na2 1_555 1_555
S5A C5A 1_555 1_555
S5B C5B 1_555 1_555
S6A Na2 1_555 1_555
S6B Na2 1_555 1_555
C1 S2 1_555 1_555
C2 S1 1_555 1_555
N1 N2 1_555 1_555
C3 S4 1_555 1_555
C4 S3 1_555 1_555
C5 S6 1_555 1_555
C6 S5 1_555 1_555
N3 N4 1_555 1_555
N5 N6 1_555 1_555
C1A S2A 1_555 1_555
C1B S2B 1_555 1_555
C2A N1A 1_555 1_555
C2A S1A 1_555 1_555
C2B N1B 1_555 1_555
C2B S1B 1_555 1_555
N1A N2A 1_555 1_555
N1B N2B 1_555 1_555
C3A S4A 1_555 1_555
C3B S4B 1_555 1_555
C4A N3A 1_555 1_555
C4A S3A 1_555 1_555
C4B N3B 1_555 1_555
C4B S3B 1_555 1_555
C5A S6A 1_555 1_555
C5B S6B 1_555 1_555
C6A N5A 1_555 1_555
C6A S5A 1_555 1_555
C6B N5B 1_555 1_555
C6B S5B 1_555 1_555
N3A N4A 1_555 1_555
N3B N4B 1_555 1_555
N5A N6A 1_555 1_555
N5B N6B 1_555 1_555

#END
