
#######################################################################
#
#                 Cambridge Crystallographic Data Centre
#                                CCDC 
#
#######################################################################
#
# If this CIF has been generated from an entry in the Cambridge 
# Structural Database, then it will include bibliographic, chemical, 
# crystal, experimental, refinement or atomic coordinate data resulting 
# from the CCDC's data processing and validation procedures.
#
#######################################################################

data_YEVFIP
_symmetry_cell_setting           monoclinic
_symmetry_space_group_name_H-M   'P 21/n'
_symmetry_Int_Tables_number      14
_space_group_name_Hall           '-P 2yn'
loop_
_symmetry_equiv_pos_site_id
_symmetry_equiv_pos_as_xyz
1 x,y,z
2 1/2-x,1/2+y,1/2-z
3 -x,-y,-z
4 1/2+x,1/2-y,1/2+z
_cell_length_a                   9.1472(11)
_cell_length_b                   8.6343(10)
_cell_length_c                   9.5513(11)
_cell_angle_alpha                90
_cell_angle_beta                 106.167(2)
_cell_angle_gamma                90
_cell_volume                     724.527
loop_
_atom_site_label
_atom_site_type_symbol
_atom_site_fract_x
_atom_site_fract_y
_atom_site_fract_z
Co1 Co 0.5000 0.0000 0.0000
O1 O 0.46870(11) 0.21936(11) 0.07745(10)
O2 O 0.29811(11) 0.32890(11) -0.11048(10)
O3 O 0.37170(11) 0.05452(12) -0.21484(11)
H1 H 0.311(2) -0.005(2) -0.273(2)
H2 H 0.324(2) 0.138(2) -0.2035(18)
N1 N 0.19995(12) 0.42435(13) 0.44176(11)
C1 C 0.30920(16) 0.34338(15) 0.53494(14)
H3 H 0.2968 0.3189 0.6258
C2 C 0.21977(15) 0.45817(15) 0.31032(14)
H4 H 0.1440 0.5141 0.2446
C3 C 0.44050(16) 0.29417(16) 0.50219(15)
H5 H 0.5140 0.2377 0.5698
C4 C 0.46037(15) 0.33037(15) 0.36742(14)
H6 H 0.5479 0.2994 0.3436
C5 C 0.34710(14) 0.41402(15) 0.26767(13)
C6 C 0.36096(16) 0.46043(15) 0.11935(15)
H7 H 0.2720 0.5206 0.0700
H8 H 0.4492 0.5270 0.1326
C7 C 0.37610(14) 0.32448(14) 0.02101(13)
Co1C Co 0.0000 0.5000 0.5000
Co1C_2 Co 1.0000 -0.5000 -0.5000
O1B O 0.53130(11) -0.21936(11) -0.07745(10)
O2B O 0.70189(11) -0.32890(11) 0.11048(10)
O3B O 0.62830(11) -0.05452(12) 0.21484(11)
H1B H 0.689(2) 0.005(2) 0.273(2)
H2B H 0.676(2) -0.138(2) 0.2035(18)
N1B N 0.80005(12) -0.42435(13) -0.44176(11)
N1C N 0.69995(12) 0.07565(13) -0.05824(11)
N1A N 0.30005(12) -0.07565(13) 0.05824(11)
C1B C 0.69080(16) -0.34338(15) -0.53494(14)
H3B H 0.7032 -0.3189 -0.6258
C2B C 0.78023(15) -0.45817(15) -0.31032(14)
H4B H 0.8560 -0.5141 -0.2446
C3B C 0.55950(16) -0.29417(16) -0.50219(15)
H5B H 0.4860 -0.2377 -0.5698
C4B C 0.53963(15) -0.33037(15) -0.36742(14)
H6B H 0.4521 -0.2994 -0.3436
C5B C 0.65290(14) -0.41402(15) -0.26767(13)
C6B C 0.63904(16) -0.46043(15) -0.11935(15)
H7B H 0.7280 -0.5206 -0.0700
H8B H 0.5508 -0.5270 -0.1326
C7B C 0.62390(14) -0.32448(14) -0.02101(13)
loop_
_geom_bond_atom_site_label_1
_geom_bond_atom_site_label_2
_geom_bond_site_symmetry_1
_geom_bond_site_symmetry_2
Co1 O1 1_555 1_555
O1 C7 1_555 1_555
O2 C7 1_555 1_555
O3 Co1 1_555 1_555
H1 O3 1_555 1_555
H2 O3 1_555 1_555
N1 C1 1_555 1_555
C1 H3 1_555 1_555
C2 N1 1_555 1_555
H4 C2 1_555 1_555
C3 C1 1_555 1_555
H5 C3 1_555 1_555
C4 C3 1_555 1_555
H6 C4 1_555 1_555
C5 C2 1_555 1_555
C6 C5 1_555 1_555
H7 C6 1_555 1_555
H8 C6 1_555 1_555
C7 C6 1_555 1_555
Co1C N1 1_555 1_555
Co1C_2 N1B 1_555 1_555
O1B Co1 1_555 1_555
O2B C7B 1_555 1_555
O3B Co1 1_555 1_555
H1B O3B 1_555 1_555
H2B O3B 1_555 1_555
N1B C1B 1_555 1_555
N1C Co1 1_555 1_555
N1A Co1 1_555 1_555
C1B H3B 1_555 1_555
C2B N1B 1_555 1_555
H4B C2B 1_555 1_555
C3B C1B 1_555 1_555
H5B C3B 1_555 1_555
C4B C3B 1_555 1_555
H6B C4B 1_555 1_555
C5B C2B 1_555 1_555
C6B C5B 1_555 1_555
H7B C6B 1_555 1_555
H8B C6B 1_555 1_555
C7B O1B 1_555 1_555
C4 C5 1_555 1_555
C4B C5B 1_555 1_555
C6B C7B 1_555 1_555

#END
