
#######################################################################
#
#                 Cambridge Crystallographic Data Centre
#                                CCDC 
#
#######################################################################
#
# If this CIF has been generated from an entry in the Cambridge 
# Structural Database, then it will include bibliographic, chemical, 
# crystal, experimental, refinement or atomic coordinate data resulting 
# from the CCDC's data processing and validation procedures.
#
#######################################################################

data_YEVGIP
_symmetry_cell_setting           triclinic
_symmetry_space_group_name_H-M   'P -1'
_symmetry_Int_Tables_number      2
_space_group_name_Hall           '-P 1'
loop_
_symmetry_equiv_pos_site_id
_symmetry_equiv_pos_as_xyz
1 x,y,z
2 -x,-y,-z
_cell_length_a                   9.516(2)
_cell_length_b                   11.613(3)
_cell_length_c                   11.615(3)
_cell_angle_alpha                70.92(2)
_cell_angle_beta                 80.16(2)
_cell_angle_gamma                76.64(2)
_cell_volume                     1173.86
loop_
_atom_site_label
_atom_site_type_symbol
_atom_site_fract_x
_atom_site_fract_y
_atom_site_fract_z
Mn1 Mn 0.0504(1) 0.1466(1) 0.3147(1)
O1 O -0.1502(2) 0.0254(2) 0.5692(2)
O2 O -0.1615(2) 0.1077(2) 0.3678(2)
C1 C -0.2146(3) 0.0541(3) 0.4741(3)
C2 C -0.3614(3) 0.0259(3) 0.4871(2)
C3 C -0.4590(4) 0.0359(3) 0.5897(3)
C4 C -0.4052(4) -0.0098(3) 0.3981(3)
N1 N -0.0395(3) 0.2947(2) 0.1445(2)
C5 C -0.1255(4) 0.4025(3) 0.1460(3)
C6 C -0.2025(4) 0.4790(3) 0.0493(3)
C7 C -0.1936(5) 0.4404(4) -0.0507(3)
C8 C -0.1042(5) 0.3298(3) -0.0545(3)
C9 C -0.0276(4) 0.2595(3) 0.0435(3)
C10 C 0.0740(4) 0.1402(3) 0.0448(3)
C11 C 0.1304(6) 0.1073(4) -0.0594(3)
C12 C 0.2244(7) -0.0044(5) -0.0511(4)
C13 C 0.2634(6) -0.0789(4) 0.0612(4)
C14 C 0.2052(4) -0.0412(3) 0.1619(3)
N2 N 0.1125(3) 0.0663(2) 0.1559(2)
N3 N 0.0350(3) 0.2696(2) 0.4359(2)
C15 C -0.0811(4) 0.2917(3) 0.5155(3)
C16 C -0.0749(5) 0.3396(3) 0.6080(3)
C17 C 0.0546(6) 0.3633(4) 0.6209(3)
C18 C 0.1737(5) 0.3420(3) 0.5407(3)
C19 C 0.1603(4) 0.2968(3) 0.4468(3)
C20 C 0.2817(4) 0.2825(3) 0.3498(3)
C21 C 0.4083(5) 0.3239(3) 0.3399(4)
C22 C 0.5107(5) 0.3170(4) 0.2418(4)
C23 C 0.4843(4) 0.2698(3) 0.1552(4)
C24 C 0.3572(4) 0.2272(3) 0.1726(3)
N4 N 0.2564(3) 0.2324(2) 0.2680(2)
H1 H -0.430 0.061 0.652
H2 H -0.339 -0.017 0.327
H3 H -0.133 0.428 0.218
H4 H -0.261 0.557 0.053
H5 H -0.249 0.490 -0.118
H6 H -0.096 0.301 -0.124
H7 H 0.102 0.161 -0.138
H8 H 0.265 -0.028 -0.123
H9 H 0.328 -0.157 0.069
H10 H 0.232 -0.093 0.241
H11 H -0.171 0.273 0.507
H12 H -0.160 0.356 0.662
H13 H 0.062 0.394 0.686
H14 H 0.266 0.358 0.549
H15 H 0.425 0.357 0.401
H16 H 0.600 0.344 0.234
H17 H 0.553 0.267 0.085
H18 H 0.339 0.192 0.114
O1A O 0.1502(2) -0.0254(2) 0.4308(2)
Mn1A Mn -0.0504(1) -0.1466(1) 0.6853(1)
C3A C -0.5410(4) -0.0359(3) 0.4103(3)
C4A C -0.5948(4) 0.0098(3) 0.6019(3)
C2A C -0.6386(3) -0.0259(3) 0.5129(2)
H1A H -0.570 -0.061 0.348
H2A H -0.661 0.017 0.673
C1A C -0.7854(3) -0.0541(3) 0.5259(3)
O1A_2 O -0.8498(2) -0.0254(2) 0.4308(2)
O2A O -0.8385(2) -0.1077(2) 0.6322(2)
Mn1_2 Mn -0.9496(1) 0.1466(1) 0.3147(1)
Mn1A_2 Mn -1.0504(1) -0.1466(1) 0.6853(1)
O1_2 O -1.1502(2) 0.0254(2) 0.5692(2)
N1A N -0.9605(3) -0.2947(2) 0.8555(2)
N2A N -1.1125(3) -0.0663(2) 0.8441(2)
N3A N -1.0350(3) -0.2696(2) 0.5641(2)
N4A N -1.2564(3) -0.2324(2) 0.7320(2)
C5A C -0.8745(4) -0.4025(3) 0.8540(3)
C9A C -0.9724(4) -0.2595(3) 0.9565(3)
C10A C -1.0740(4) -0.1402(3) 0.9552(3)
C14A C -1.2052(4) 0.0412(3) 0.8381(3)
C15A C -0.9189(4) -0.2917(3) 0.4845(3)
C19A C -1.1603(4) -0.2968(3) 0.5532(3)
C20A C -1.2817(4) -0.2825(3) 0.6502(3)
C24A C -1.3572(4) -0.2272(3) 0.8274(3)
C6A C -0.7975(4) -0.4790(3) 0.9507(3)
H3A H -0.867 -0.428 0.782
C8A C -0.8958(5) -0.3298(3) 1.0545(3)
C11A C -1.1304(6) -0.1073(4) 1.0594(3)
C13A C -1.2634(6) 0.0789(4) 0.9388(4)
H10A H -1.232 0.093 0.759
C16A C -0.9251(5) -0.3396(3) 0.3920(3)
H11A H -0.829 -0.273 0.493
C18A C -1.1737(5) -0.3420(3) 0.4593(3)
C21A C -1.4083(5) -0.3239(3) 0.6601(4)
C23A C -1.4843(4) -0.2698(3) 0.8448(4)
H18A H -1.339 -0.192 0.886
C7A C -0.8064(5) -0.4404(4) 1.0507(3)
H4A H -0.739 -0.557 0.947
H6A H -0.904 -0.301 1.124
C12A C -1.2244(7) 0.0044(5) 1.0511(4)
H7A H -1.102 -0.161 1.138
H9A H -1.328 0.157 0.931
C17A C -1.0546(6) -0.3633(4) 0.3791(3)
H12A H -0.840 -0.356 0.338
H14A H -1.266 -0.358 0.451
C22A C -1.5107(5) -0.3170(4) 0.7582(4)
H15A H -1.425 -0.357 0.599
H17A H -1.553 -0.267 0.915
H5A H -0.751 -0.490 1.118
H8A H -1.265 0.028 1.123
H13A H -1.062 -0.394 0.314
H16A H -1.600 -0.344 0.766
Cl1 Cl 0.4710(1) 0.3453(1) 0.7398(1)
O3 O 0.4019(8) 0.2555(6) 0.8130(7)
O4 O 0.5558(6) 0.2972(5) 0.6513(5)
O5 O 0.5612(5) 0.3735(4) 0.8060(4)
O6 O 0.3712(4) 0.4517(4) 0.6874(4)
loop_
_geom_bond_atom_site_label_1
_geom_bond_atom_site_label_2
_geom_bond_site_symmetry_1
_geom_bond_site_symmetry_2
Mn1 O2 1_555 1_555
O1 C1 1_555 1_555
O2 C1 1_555 1_555
C1 C2 1_555 1_555
C2 C3 1_555 1_555
C3 H1 1_555 1_555
C4 C2 1_555 1_555
N1 Mn1 1_555 1_555
C5 N1 1_555 1_555
C6 C5 1_555 1_555
C7 C6 1_555 1_555
C8 C7 1_555 1_555
C9 N1 1_555 1_555
C10 C9 1_555 1_555
C11 C10 1_555 1_555
C12 C11 1_555 1_555
C13 C12 1_555 1_555
C14 C13 1_555 1_555
N2 Mn1 1_555 1_555
N3 Mn1 1_555 1_555
C15 N3 1_555 1_555
C16 C15 1_555 1_555
C17 C16 1_555 1_555
C18 C17 1_555 1_555
C19 N3 1_555 1_555
C20 C19 1_555 1_555
C21 C20 1_555 1_555
C22 C21 1_555 1_555
C23 C22 1_555 1_555
C24 C23 1_555 1_555
N4 Mn1 1_555 1_555
Cl1 O3 1_555 1_555
O4 Cl1 1_555 1_555
O5 Cl1 1_555 1_555
O6 Cl1 1_555 1_555
H2 C4 1_555 1_555
H3 C5 1_555 1_555
H4 C6 1_555 1_555
H5 C7 1_555 1_555
H6 C8 1_555 1_555
H7 C11 1_555 1_555
H8 C12 1_555 1_555
H9 C13 1_555 1_555
H10 C14 1_555 1_555
H11 C15 1_555 1_555
H12 C16 1_555 1_555
H13 C17 1_555 1_555
H14 C18 1_555 1_555
H15 C21 1_555 1_555
H16 C22 1_555 1_555
H17 C23 1_555 1_555
H18 C24 1_555 1_555
O1A Mn1 1_555 1_555
Mn1A O1 1_555 1_555
C3A C4 1_555 1_555
C4A C3 1_555 1_555
C2A C3A 1_555 1_555
H1A C3A 1_555 1_555
H2A C4A 1_555 1_555
C1A C2A 1_555 1_555
O1A_2 C1A 1_555 1_555
O2A C1A 1_555 1_555
Mn1_2 O1A_2 1_555 1_555
Mn1A_2 O2A 1_555 1_555
O1_2 Mn1A_2 1_555 1_555
N1A Mn1A_2 1_555 1_555
N2A Mn1A_2 1_555 1_555
N3A Mn1A_2 1_555 1_555
N4A Mn1A_2 1_555 1_555
C5A N1A 1_555 1_555
C9A N1A 1_555 1_555
C10A N2A 1_555 1_555
C14A N2A 1_555 1_555
C15A N3A 1_555 1_555
C19A N3A 1_555 1_555
C20A N4A 1_555 1_555
C24A N4A 1_555 1_555
C6A C5A 1_555 1_555
H3A C5A 1_555 1_555
C8A C9A 1_555 1_555
C11A C10A 1_555 1_555
C13A C14A 1_555 1_555
H10A C14A 1_555 1_555
C16A C15A 1_555 1_555
H11A C15A 1_555 1_555
C18A C19A 1_555 1_555
C21A C20A 1_555 1_555
C23A C24A 1_555 1_555
H18A C24A 1_555 1_555
C7A C6A 1_555 1_555
H4A C6A 1_555 1_555
H6A C8A 1_555 1_555
C12A C11A 1_555 1_555
H7A C11A 1_555 1_555
H9A C13A 1_555 1_555
C17A C16A 1_555 1_555
H12A C16A 1_555 1_555
H14A C18A 1_555 1_555
C22A C21A 1_555 1_555
H15A C21A 1_555 1_555
H17A C23A 1_555 1_555
H5A C7A 1_555 1_555
H8A C12A 1_555 1_555
H13A C17A 1_555 1_555
H16A C22A 1_555 1_555
C8 C9 1_555 1_555
C10 N2 1_555 1_555
C14 N2 1_555 1_555
C18 C19 1_555 1_555
C20 N4 1_555 1_555
C24 N4 1_555 1_555
C4A C2A 1_555 1_555
C9A C10A 1_555 1_555
C19A C20A 1_555 1_555
C8A C7A 1_555 1_555
C13A C12A 1_555 1_555
C18A C17A 1_555 1_555
C23A C22A 1_555 1_555

#END
