
#######################################################################
#
#                 Cambridge Crystallographic Data Centre
#                                CCDC 
#
#######################################################################
#
# If this CIF has been generated from an entry in the Cambridge 
# Structural Database, then it will include bibliographic, chemical, 
# crystal, experimental, refinement or atomic coordinate data resulting 
# from the CCDC's data processing and validation procedures.
#
#######################################################################

data_YEVHAI12
_symmetry_cell_setting           monoclinic
_symmetry_space_group_name_H-M   'P 21/n'
_symmetry_Int_Tables_number      14
_space_group_name_Hall           '-P 2yn'
loop_
_symmetry_equiv_pos_site_id
_symmetry_equiv_pos_as_xyz
1 x,y,z
2 1/2-x,1/2+y,1/2-z
3 -x,-y,-z
4 1/2+x,1/2-y,1/2+z
_cell_length_a                   9.7136(4)
_cell_length_b                   7.6081(3)
_cell_length_c                   16.5419(6)
_cell_angle_alpha                90
_cell_angle_beta                 90.831(3)
_cell_angle_gamma                90
_cell_volume                     1222.35
loop_
_atom_site_label
_atom_site_type_symbol
_atom_site_fract_x
_atom_site_fract_y
_atom_site_fract_z
Mn1 Mn 0.10864(4) 0.17485(5) 0.49803(2)
N1 N 0.3210(2) 0.2490(3) 0.54088(12)
C1 C 0.3485(3) 0.3298(4) 0.61098(15)
C2 C 0.4784(3) 0.3874(4) 0.63307(18)
C3 C 0.5850(3) 0.3570(4) 0.58110(18)
C4 C 0.5601(3) 0.2724(4) 0.50920(18)
C5 C 0.4256(3) 0.2200(3) 0.48968(15)
C6 C 0.3887(3) 0.1288(3) 0.41284(15)
C7 C 0.4824(3) 0.0980(4) 0.35139(16)
C8 C 0.4408(3) 0.0083(4) 0.28353(16)
C9 C 0.3073(3) -0.0479(4) 0.27614(16)
C10 C 0.2179(3) -0.0120(4) 0.33824(15)
N2 N 0.2568(2) 0.0747(3) 0.40548(12)
N3 N 0.0154(2) 0.3202(3) 0.59700(13)
N4 N -0.0423(2) 0.4544(3) 0.58767(11)
N5 N -0.1028(2) 0.5866(3) 0.58160(13)
N6 N -0.0820(2) 0.0788(3) 0.43862(12)
N7 N -0.1304(2) 0.1378(3) 0.37819(13)
N8 N -0.1771(3) 0.1981(5) 0.32009(18)
H1 H 0.2754 0.3501 0.6449
H2 H 0.4932 0.4458 0.6817
H3 H 0.6729 0.3943 0.5954
H4 H 0.6309 0.2481 0.4736
H5 H 0.5708 0.1411 0.3575
H6 H 0.5038 -0.0156 0.2431
H7 H 0.2776 -0.1081 0.2310
H8 H 0.1262 -0.0495 0.3366
Mn1B Mn -0.10864(4) -0.17485(5) 0.50197(2)
Mn1B_2 Mn -0.10864(4) 0.82515(5) 0.50197(2)
N5B N 0.1028(2) 0.4134(3) 0.41840(13)
N6B N 0.0820(2) -0.0788(3) 0.56138(12)
loop_
_geom_bond_atom_site_label_1
_geom_bond_atom_site_label_2
_geom_bond_site_symmetry_1
_geom_bond_site_symmetry_2
Mn1 N1 1_555 1_555
N1 C1 1_555 1_555
C1 C2 1_555 1_555
C2 C3 1_555 1_555
C3 C4 1_555 1_555
C4 C5 1_555 1_555
C5 N1 1_555 1_555
C6 C5 1_555 1_555
C7 C6 1_555 1_555
C8 C7 1_555 1_555
C9 C8 1_555 1_555
C10 C9 1_555 1_555
N2 Mn1 1_555 1_555
N3 Mn1 1_555 1_555
N4 N3 1_555 1_555
N5 N4 1_555 1_555
N6 Mn1 1_555 1_555
N7 N6 1_555 1_555
N8 N7 1_555 1_555
H1 C1 1_555 1_555
H2 C2 1_555 1_555
H3 C3 1_555 1_555
H4 C4 1_555 1_555
H5 C7 1_555 1_555
H6 C8 1_555 1_555
H7 C9 1_555 1_555
H8 C10 1_555 1_555
Mn1B N6 1_555 1_555
Mn1B_2 N5 1_555 1_555
N5B Mn1 1_555 1_555
N6B Mn1 1_555 1_555
C6 N2 1_555 1_555
C10 N2 1_555 1_555
Mn1B N6B 1_555 1_555

#END
