
#######################################################################
#
#                 Cambridge Crystallographic Data Centre
#                                CCDC 
#
#######################################################################
#
# If this CIF has been generated from an entry in the Cambridge 
# Structural Database, then it will include bibliographic, chemical, 
# crystal, experimental, refinement or atomic coordinate data resulting 
# from the CCDC's data processing and validation procedures.
#
#######################################################################

data_YEVMUI
_symmetry_cell_setting           monoclinic
_symmetry_space_group_name_H-M   'P 21/c'
_symmetry_Int_Tables_number      14
_space_group_name_Hall           '-P 2ybc'
loop_
_symmetry_equiv_pos_site_id
_symmetry_equiv_pos_as_xyz
1 x,y,z
2 -x,1/2+y,1/2-z
3 -x,-y,-z
4 x,1/2-y,1/2+z
_cell_length_a                   9.3971(9)
_cell_length_b                   16.6555(17)
_cell_length_c                   10.3096(11)
_cell_angle_alpha                90
_cell_angle_beta                 102.763(2)
_cell_angle_gamma                90
_cell_volume                     1573.72
loop_
_atom_site_label
_atom_site_type_symbol
_atom_site_fract_x
_atom_site_fract_y
_atom_site_fract_z
Cu1 Cu 0.54376(10) 1.02959(5) 0.88475(10)
I1 I 0.68004(5) 1.07643(3) 1.12026(5)
S1 S 0.69813(19) 0.93818(10) 0.81650(19)
S2 S 0.5702(2) 0.61238(11) 0.7853(2)
O1 O 0.8205(5) 0.8395(3) 0.5889(5)
N1 N 0.6313(6) 0.7664(3) 0.6256(6)
C1 C 0.8810(8) 1.0521(5) 0.6013(9)
H1 H 0.8772 1.0028 0.5545
C2 C 0.8846(9) 1.1243(5) 0.5348(10)
H2 H 0.8825 1.1235 0.4423
C3 C 0.8909(8) 1.1959(5) 0.5985(11)
H3 H 0.8941 1.2447 0.5515
C4 C 0.8928(8) 1.1964(5) 0.7347(10)
H4 H 0.8976 1.2459 0.7814
C5 C 0.8875(8) 1.1250(4) 0.8003(9)
H5 H 0.8869 1.1261 0.8923
C6 C 0.8830(7) 1.0521(4) 0.7371(8)
C7 C 0.8785(7) 0.9744(4) 0.8129(8)
H6 H 0.9335 0.9822 0.9056
H7 H 0.9295 0.9323 0.7726
C8 C 0.6249(8) 0.9132(4) 0.6423(7)
H8 H 0.5180 0.9054 0.6258
H9 H 0.6454 0.9570 0.5841
C9 C 0.6987(8) 0.8364(4) 0.6139(7)
C10 C 0.4849(7) 0.7532(4) 0.6491(8)
H10 H 0.4276 0.7205 0.5757
H11 H 0.4352 0.8057 0.6488
C11 C 0.4885(8) 0.7110(4) 0.7807(8)
H12 H 0.3877 0.7058 0.7940
H13 H 0.5449 0.7439 0.8544
C12 C 0.7403(7) 0.6434(4) 0.7435(8)
H14 H 0.7965 0.6772 0.8161
H15 H 0.7996 0.5954 0.7350
C13 C 0.7113(7) 0.6907(4) 0.6131(8)
H16 H 0.8053 0.7036 0.5894
H17 H 0.6532 0.6575 0.5410
Cu1B Cu 0.45624(10) 0.97041(5) 1.11525(10)
Cu1A Cu 0.45624(10) 0.52959(5) 0.61525(10)
I1B I 0.31996(5) 0.92357(3) 0.87974(5)
S2A S 0.4298(2) 1.11238(11) 0.7147(2)
loop_
_geom_bond_atom_site_label_1
_geom_bond_atom_site_label_2
_geom_bond_site_symmetry_1
_geom_bond_site_symmetry_2
Cu1 I1 1_555 1_555
I1 Cu1B 1_555 1_555
S1 Cu1 1_555 1_555
S2 C11 1_555 1_555
O1 C9 1_555 1_555
N1 C9 1_555 1_555
C1 H1 1_555 1_555
C2 C1 1_555 1_555
H2 C2 1_555 1_555
C3 C2 1_555 1_555
H3 C3 1_555 1_555
C4 C3 1_555 1_555
H4 C4 1_555 1_555
C5 C4 1_555 1_555
H5 C5 1_555 1_555
C6 C1 1_555 1_555
C7 S1 1_555 1_555
H6 C7 1_555 1_555
H7 C7 1_555 1_555
C8 S1 1_555 1_555
H8 C8 1_555 1_555
H9 C8 1_555 1_555
C9 C8 1_555 1_555
C10 N1 1_555 1_555
H10 C10 1_555 1_555
H11 C10 1_555 1_555
C11 C10 1_555 1_555
H12 C11 1_555 1_555
H13 C11 1_555 1_555
C12 S2 1_555 1_555
H14 C12 1_555 1_555
H15 C12 1_555 1_555
C13 N1 1_555 1_555
H16 C13 1_555 1_555
H17 C13 1_555 1_555
Cu1B I1B 1_555 1_555
Cu1A S2 1_555 1_555
I1B Cu1 1_555 1_555
S2A Cu1 1_555 1_555
C5 C6 1_555 1_555
C6 C7 1_555 1_555
C12 C13 1_555 1_555

#END
