
#######################################################################
#
#                 Cambridge Crystallographic Data Centre
#                                CCDC 
#
#######################################################################
#
# If this CIF has been generated from an entry in the Cambridge 
# Structural Database, then it will include bibliographic, chemical, 
# crystal, experimental, refinement or atomic coordinate data resulting 
# from the CCDC's data processing and validation procedures.
#
#######################################################################

data_YEVNIX
_symmetry_cell_setting           monoclinic
_symmetry_space_group_name_H-M   'P 21'
_symmetry_Int_Tables_number      4
_space_group_name_Hall           'P 2yb'
loop_
_symmetry_equiv_pos_site_id
_symmetry_equiv_pos_as_xyz
1 x,y,z
2 -x,1/2+y,-z
_cell_length_a                   12.3119(3)
_cell_length_b                   6.15450(10)
_cell_length_c                   16.5077(4)
_cell_angle_alpha                90
_cell_angle_beta                 111.2540(10)
_cell_angle_gamma                90
_cell_volume                     1165.77
loop_
_atom_site_label
_atom_site_type_symbol
_atom_site_fract_x
_atom_site_fract_y
_atom_site_fract_z
Zn1 Zn 0.342253(17) 0.38167(3) 0.471758(12)
O1 O 0.39065(13) 0.1923(2) 0.57327(9)
O2 O 0.53734(13) 0.0681(2) 0.54128(10)
O3 O 0.07953(12) 0.3670(3) 0.77869(9)
O4 O 0.18853(15) 0.2302(3) 0.70623(10)
O5 O 0.28209(13) 0.2011(3) 0.37020(9)
O6 O 0.09616(13) 0.3089(2) 0.32637(11)
N1 N 0.24014(15) 0.5807(3) 0.51078(11)
N2 N 0.10508(16) 0.5701(3) 0.67668(11)
H1 H 0.0633 0.6621 0.6941
C1 C 0.47037(17) 0.0547(3) 0.58411(13)
C2 C 0.48373(15) -0.1192(5) 0.64870(11)
H2 H 0.5365 -0.2354 0.6534
C3 C 0.42206(15) -0.1139(5) 0.70038(11)
H3 H 0.3688 0.0034 0.6913
C4 C 0.42635(18) -0.2670(4) 0.76956(13)
C5 C 0.4852(2) -0.4658(4) 0.78246(17)
H4 H 0.5237 -0.5087 0.7445
C6 C 0.4878(2) -0.5999(6) 0.85002(16)
H5 H 0.5281 -0.7346 0.8583
C7 C 0.4320(2) -0.5397(5) 0.90588(17)
H6 H 0.4344 -0.6324 0.9525
C8 C 0.3732(2) -0.3459(5) 0.89362(17)
H7 H 0.3348 -0.3046 0.9318
C9 C 0.3695(2) -0.2098(4) 0.82559(15)
H8 H 0.3279 -0.0766 0.8172
C10 C 0.17708(18) 0.2068(3) 0.31543(13)
C11 C 0.15447(19) 0.0775(4) 0.23519(13)
H9 H 0.0882 0.1118 0.1853
C12 C 0.22347(18) -0.0852(4) 0.23028(13)
H10 H 0.2892 -0.1155 0.2812
C13 C 0.2080(2) -0.2219(4) 0.15414(15)
C14 C 0.1428(2) -0.1541(5) 0.06982(14)
H11 H 0.1057 -0.0161 0.0603
C15 C 0.1322(3) -0.2881(5) -0.00007(18)
H12 H 0.0871 -0.2420 -0.0574
C16 C 0.1868(3) -0.4887(5) 0.0129(2)
H13 H 0.1797 -0.5788 -0.0355
C17 C 0.2516(3) -0.5582(4) 0.09607(19)
H14 H 0.2885 -0.6963 0.1051
C18 C 0.2622(2) -0.4254(4) 0.16605(17)
H15 H 0.3071 -0.4731 0.2232
C19 C 0.20938(17) 0.5118(3) 0.57676(13)
H16 H 0.2362 0.3744 0.6024
C20 C 0.13911(18) 0.6369(3) 0.60841(13)
C21 C 0.10127(17) 0.8388(3) 0.57004(13)
H17 H 0.0534 0.9284 0.5901
C22 C 0.13425(17) 0.9069(4) 0.50253(13)
H18 H 0.1088 1.0434 0.4755
C23 C 0.20468(19) 0.7747(3) 0.47470(14)
H19 H 0.2283 0.8230 0.4290
C24 C 0.13066(15) 0.3755(5) 0.71870(11)
C25 C 0.0864(2) 0.1582(4) 0.81986(16)
H20 H 0.0537 0.0465 0.7753
H21 H 0.0421 0.1623 0.8586
H22 H 0.1681 0.1239 0.8537
Zn1A Zn 0.657747(17) -0.11833(3) 0.528242(12)
O2A O 0.46266(13) 0.5681(2) 0.45872(10)
loop_
_geom_bond_atom_site_label_1
_geom_bond_atom_site_label_2
_geom_bond_site_symmetry_1
_geom_bond_site_symmetry_2
Zn1 O1 1_555 1_555
O1 C1 1_555 1_555
O2 C1 1_555 1_555
O3 C24 1_555 1_555
O4 C24 1_555 1_555
O5 Zn1 1_555 1_555
O6 C10 1_555 1_555
N1 Zn1 1_555 1_555
N2 H1 1_555 1_555
C1 C2 1_555 1_555
C2 H2 1_555 1_555
C3 C2 1_555 1_555
H3 C3 1_555 1_555
C4 C3 1_555 1_555
C5 C4 1_555 1_555
H4 C5 1_555 1_555
C6 C5 1_555 1_555
H5 C6 1_555 1_555
C7 C6 1_555 1_555
H6 C7 1_555 1_555
C8 C7 1_555 1_555
H7 C8 1_555 1_555
C9 C4 1_555 1_555
H8 C9 1_555 1_555
C10 O5 1_555 1_555
C11 C10 1_555 1_555
H9 C11 1_555 1_555
C12 C11 1_555 1_555
H10 C12 1_555 1_555
C13 C12 1_555 1_555
C14 C13 1_555 1_555
H11 C14 1_555 1_555
C15 C14 1_555 1_555
H12 C15 1_555 1_555
C16 C15 1_555 1_555
H13 C16 1_555 1_555
C17 C16 1_555 1_555
H14 C17 1_555 1_555
C18 C13 1_555 1_555
H15 C18 1_555 1_555
C19 N1 1_555 1_555
H16 C19 1_555 1_555
C20 N2 1_555 1_555
C21 C20 1_555 1_555
H17 C21 1_555 1_555
C22 C21 1_555 1_555
H18 C22 1_555 1_555
C23 N1 1_555 1_555
H19 C23 1_555 1_555
C24 N2 1_555 1_555
C25 O3 1_555 1_555
H20 C25 1_555 1_555
H21 C25 1_555 1_555
H22 C25 1_555 1_555
Zn1A O2 1_555 1_555
O2A Zn1 1_555 1_555
C8 C9 1_555 1_555
C17 C18 1_555 1_555
C19 C20 1_555 1_555
C22 C23 1_555 1_555

#END
