
#######################################################################
#
#                 Cambridge Crystallographic Data Centre
#                                CCDC 
#
#######################################################################
#
# If this CIF has been generated from an entry in the Cambridge 
# Structural Database, then it will include bibliographic, chemical, 
# crystal, experimental, refinement or atomic coordinate data resulting 
# from the CCDC's data processing and validation procedures.
#
#######################################################################

data_YEVWIG
_symmetry_cell_setting           monoclinic
_symmetry_space_group_name_H-M   'P 21/c'
_symmetry_Int_Tables_number      14
_space_group_name_Hall           '-P 2ybc'
loop_
_symmetry_equiv_pos_site_id
_symmetry_equiv_pos_as_xyz
1 x,y,z
2 -x,1/2+y,1/2-z
3 -x,-y,-z
4 x,1/2-y,1/2+z
_cell_length_a                   11.1070(10)
_cell_length_b                   14.3017(12)
_cell_length_c                   7.6164(6)
_cell_angle_alpha                90
_cell_angle_beta                 105.593(2)
_cell_angle_gamma                90
_cell_volume                     1165.33
loop_
_atom_site_label
_atom_site_type_symbol
_atom_site_fract_x
_atom_site_fract_y
_atom_site_fract_z
Zn1 Zn 0.25779(5) 0.46222(4) 0.07829(8)
N1 N 0.3915(4) 0.3586(3) 0.1514(6)
N2 N 0.1419(4) 0.4307(3) 0.2408(6)
C1 C 0.0371(5) 0.3801(4) 0.1805(7)
H1 H 0.0077 0.3685 0.0562
C2 C 0.5123(5) 0.3808(3) 0.2074(8)
H2 H 0.5346 0.4435 0.2106
C3 C 0.1810(5) 0.4480(3) 0.4185(7)
H3 H 0.2521 0.4847 0.4612
C4 C 0.3631(5) 0.2685(3) 0.1460(9)
H4 H 0.2792 0.2518 0.1060
C5 C 0.4500(5) 0.1983(4) 0.1959(8)
H5 H 0.4253 0.1360 0.1895
C6 C 0.6052(5) 0.3153(4) 0.2607(8)
H6 H 0.6884 0.3340 0.3000
C7 C -0.0285(5) 0.3446(4) 0.2953(7)
H7 H -0.1010 0.3099 0.2490
C8 C 0.5749(4) 0.2221(3) 0.2558(7)
O1 O 0.6354(3) 0.0645(2) 0.3062(5)
O2 O 0.7834(4) 0.1714(3) 0.3747(7)
C9 C 0.6745(5) 0.1479(3) 0.3171(7)
O3 O 0.2613(5) 0.4877(3) 0.7958(6)
C10 C 0.1212(5) 0.4141(3) 0.5431(7)
C11 C 0.0145(5) 0.3610(3) 0.4787(8)
H8 H -0.0275 0.3367 0.5589
O4 O 0.1283(4) 0.3938(5) 0.8505(6)
C12 C 0.1746(6) 0.4343(4) 0.7438(8)
Zn1A Zn 0.74221(5) -0.03778(4) 0.42171(8)
Zn1_2 Zn 0.25779(5) 0.46222(4) 1.07829(8)
O1A O 0.3646(3) 0.5645(2) 0.1938(5)
O3_2 O 0.2613(5) 0.4877(3) -0.2042(6)
O4_2 O 0.1283(4) 0.3938(5) -0.1495(6)
loop_
_geom_bond_atom_site_label_1
_geom_bond_atom_site_label_2
_geom_bond_site_symmetry_1
_geom_bond_site_symmetry_2
Zn1 N1 1_555 1_555
N1 C2 1_555 1_555
N2 Zn1 1_555 1_555
C1 N2 1_555 1_555
H1 C1 1_555 1_555
C2 H2 1_555 1_555
C3 N2 1_555 1_555
H3 C3 1_555 1_555
C4 N1 1_555 1_555
H4 C4 1_555 1_555
C5 C4 1_555 1_555
H5 C5 1_555 1_555
C6 C2 1_555 1_555
H6 C6 1_555 1_555
C7 C1 1_555 1_555
H7 C7 1_555 1_555
C8 C5 1_555 1_555
O1 C9 1_555 1_555
O2 C9 1_555 1_555
C9 C8 1_555 1_555
O3 C12 1_555 1_555
C10 C3 1_555 1_555
C11 C7 1_555 1_555
H8 C11 1_555 1_555
O4 C12 1_555 1_555
C12 C10 1_555 1_555
Zn1A O1 1_555 1_555
Zn1_2 O3 1_555 1_555
O1A Zn1 1_555 1_555
O3_2 Zn1 1_555 1_555
O4_2 Zn1 1_555 1_555
C6 C8 1_555 1_555
C10 C11 1_555 1_555
O4 Zn1_2 1_555 1_555

#END
