
#######################################################################
#
#                 Cambridge Crystallographic Data Centre
#                                CCDC 
#
#######################################################################
#
# If this CIF has been generated from an entry in the Cambridge 
# Structural Database, then it will include bibliographic, chemical, 
# crystal, experimental, refinement or atomic coordinate data resulting 
# from the CCDC's data processing and validation procedures.
#
#######################################################################

data_YEVWOM
_symmetry_cell_setting           monoclinic
_symmetry_space_group_name_H-M   'P 21/c'
_symmetry_Int_Tables_number      14
_space_group_name_Hall           '-P 2ybc'
loop_
_symmetry_equiv_pos_site_id
_symmetry_equiv_pos_as_xyz
1 x,y,z
2 -x,1/2+y,1/2-z
3 -x,-y,-z
4 x,1/2-y,1/2+z
_cell_length_a                   10.2482(4)
_cell_length_b                   14.7475(5)
_cell_length_c                   7.9081(4)
_cell_angle_alpha                90
_cell_angle_beta                 94.0540(10)
_cell_angle_gamma                90
_cell_volume                     1192.2
loop_
_atom_site_label
_atom_site_type_symbol
_atom_site_fract_x
_atom_site_fract_y
_atom_site_fract_z
Cd1 Cd -0.26004(5) 0.01103(3) 0.11322(6)
C1 C -0.3546(7) 0.0572(5) 0.8016(8)
C2 C -0.5323(7) 0.1714(5) 0.4254(10)
H1 H -0.5977 0.2142 0.4013
C3 C -0.4970(7) 0.1479(4) 0.5903(10)
H2 H -0.5394 0.1736 0.6787
C4 C 0.0104(8) 0.1217(5) 0.1944(12)
H3 H 0.0399 0.0626 0.2113
C5 C -0.3371(7) 0.0484(4) 0.4887(9)
H4 H -0.2695 0.0071 0.5104
C6 C -0.3969(7) 0.0849(4) 0.6239(9)
N1 N -0.1131(6) 0.1343(4) 0.1355(8)
C7 C -0.4698(7) 0.1311(5) 0.2952(9)
H5 H -0.4953 0.1462 0.1836
C8 C 0.0978(8) 0.1924(5) 0.2319(11)
H6 H 0.1843 0.1805 0.2689
O1 O -0.2663(5) 0.0009(4) 0.8240(7)
N2 N -0.3726(6) 0.0701(4) 0.3264(7)
O2 O -0.4105(6) 0.0920(5) 0.9193(7)
C9 C 0.0539(7) 0.2793(5) 0.2134(10)
C10 C -0.0729(8) 0.2931(5) 0.1507(13)
H7 H -0.1045 0.3518 0.1341
C11 C 0.1413(8) 0.3582(5) 0.2640(11)
C12 C -0.1527(8) 0.2206(5) 0.1126(12)
H8 H -0.2379 0.2314 0.0691
O3 O 0.2492(5) 0.3476(4) 0.3404(8)
O4 O 0.0979(7) 0.4363(4) 0.2289(11)
Cd1A Cd 0.26004(5) 0.51103(3) 0.38678(6)
Cd1_2 Cd -0.26004(5) 0.01103(3) 1.11322(6)
O1_2 O -0.2663(5) 0.0009(4) -0.1760(7)
O2_2 O -0.4105(6) 0.0920(5) -0.0807(7)
O3A O -0.2492(5) -0.1524(4) 0.1596(8)
O4A O -0.0979(7) -0.0637(4) 0.2711(11)
loop_
_geom_bond_atom_site_label_1
_geom_bond_atom_site_label_2
_geom_bond_site_symmetry_1
_geom_bond_site_symmetry_2
Cd1 N1 1_555 1_555
C1 C6 1_555 1_555
C2 H1 1_555 1_555
C3 C2 1_555 1_555
H2 C3 1_555 1_555
C4 H3 1_555 1_555
C5 H4 1_555 1_555
C6 C3 1_555 1_555
N1 C4 1_555 1_555
C7 C2 1_555 1_555
H5 C7 1_555 1_555
C8 C4 1_555 1_555
H6 C8 1_555 1_555
O1 C1 1_555 1_555
N2 Cd1 1_555 1_555
O2 C1 1_555 1_555
C9 C8 1_555 1_555
C10 C9 1_555 1_555
H7 C10 1_555 1_555
C11 C9 1_555 1_555
C12 N1 1_555 1_555
H8 C12 1_555 1_555
O3 C11 1_555 1_555
O4 C11 1_555 1_555
Cd1A O3 1_555 1_555
Cd1_2 O1 1_555 1_555
O1_2 Cd1 1_555 1_555
O2_2 Cd1 1_555 1_555
O3A Cd1 1_555 1_555
O4A Cd1 1_555 1_555
C5 C6 1_555 1_555
C5 N2 1_555 1_555
C7 N2 1_555 1_555
O2 Cd1_2 1_555 1_555
C10 C12 1_555 1_555
O4 Cd1A 1_555 1_555

#END
