
#######################################################################
#
#                 Cambridge Crystallographic Data Centre
#                                CCDC 
#
#######################################################################
#
# If this CIF has been generated from an entry in the Cambridge 
# Structural Database, then it will include bibliographic, chemical, 
# crystal, experimental, refinement or atomic coordinate data resulting 
# from the CCDC's data processing and validation procedures.
#
#######################################################################

data_YEXDIO
_symmetry_cell_setting           orthorhombic
_symmetry_space_group_name_H-M   'P c a b'
_symmetry_Int_Tables_number      61
_space_group_name_Hall           '-P 2bc 2ac'
loop_
_symmetry_equiv_pos_site_id
_symmetry_equiv_pos_as_xyz
1 x,y,z
2 -x,1/2-y,1/2+z
3 1/2+x,-y,1/2-z
4 1/2-x,1/2+y,-z
5 -x,-y,-z
6 x,1/2+y,1/2-z
7 1/2-x,y,1/2+z
8 1/2+x,1/2-y,z
_cell_length_a                   19.153
_cell_length_b                   20.898
_cell_length_c                   22.673
_cell_angle_alpha                90
_cell_angle_beta                 90
_cell_angle_gamma                90
_cell_volume                     9075.08
loop_
_atom_site_label
_atom_site_type_symbol
_atom_site_fract_x
_atom_site_fract_y
_atom_site_fract_z
La1 La 0.24814(1) 0.00740(1) 0.43246(1)
O1 O 0.2368(1) -0.0236(1) 0.5264(1)
C1 C 0.2485(3) -0.0505(2) 0.5791(2)
C2 C 0.1977(2) -0.0466(2) 0.6241(2)
C3 C 0.2109(3) -0.0758(2) 0.6778(2)
C4 C 0.2728(2) -0.1078(2) 0.6881(2)
C5 C 0.3232(2) -0.1101(2) 0.6447(2)
C6 C 0.3133(2) -0.0817(2) 0.5896(2)
C7 C 0.1318(2) -0.0076(2) 0.6119(2)
C8 C 0.1483(3) 0.0641(2) 0.6133(2)
C9 C 0.0707(3) -0.0228(2) 0.6523(2)
C10 C 0.3689(2) -0.0804(2) 0.5424(2)
C11 C 0.4009(3) -0.0140(2) 0.5374(2)
C12 C 0.4270(3) -0.1301(3) 0.5501(2)
O2 O 0.1543(1) 0.0520(1) 0.3872(1)
C13 C 0.1236(2) 0.1030(2) 0.3623(2)
C14 C 0.0887(2) 0.1484(2) 0.3978(2)
C15 C 0.0615(2) 0.2025(2) 0.3702(2)
C16 C 0.0661(2) 0.2114(2) 0.3100(2)
C17 C 0.0961(2) 0.1648(2) 0.2753(2)
C18 C 0.1246(2) 0.1095(2) 0.2999(2)
C19 C 0.0786(2) 0.1344(2) 0.4631(2)
C20 C 0.0479(3) 0.1907(2) 0.4978(2)
C21 C 0.0308(2) 0.0759(2) 0.4713(2)
C22 C 0.1492(2) 0.0539(2) 0.2615(2)
C23 C 0.1687(2) 0.0718(2) 0.1986(2)
C24 C 0.0915(2) 0.0027(2) 0.2606(2)
O3 O 0.3170(2) 0.0949(1) 0.4288(1)
C25 C 0.3350(2) 0.1542(2) 0.4135(2)
C26 C 0.3746(2) 0.1648(2) 0.3618(2)
C27 C 0.3926(2) 0.2268(2) 0.3465(2)
C28 C 0.3720(2) 0.2783(2) 0.3805(2)
C29 C 0.3333(2) 0.2681(2) 0.4310(2)
C30 C 0.3142(2) 0.2069(2) 0.4483(2)
C31 C 0.3942(2) 0.1064(2) 0.3252(2)
C32 C 0.4559(3) 0.1176(2) 0.2836(2)
C33 C 0.3310(2) 0.0825(2) 0.2911(2)
C34 C 0.2735(2) 0.1942(2) 0.5045(2)
C35 C 0.2266(3) 0.2493(3) 0.5238(2)
C36 C 0.3227(3) 0.1742(2) 0.5541(2)
O4 O 0.2847(1) -0.0775(1) 0.3797(1)
C37 C 0.2836(2) -0.1358(2) 0.3562(2)
C38 C 0.3467(2) -0.1688(2) 0.3459(2)
C39 C 0.3441(3) -0.2293(2) 0.3211(2)
C40 C 0.2814(3) -0.2579(2) 0.3078(2)
C41 C 0.2194(3) -0.2264(2) 0.3184(2)
C42 C 0.2186(2) -0.1649(2) 0.3430(2)
C43 C 0.4146(2) -0.1362(2) 0.3639(2)
C44 C 0.4768(3) -0.1814(3) 0.3726(3)
C45 C 0.4348(2) -0.0843(2) 0.3196(2)
C46 C 0.1520(3) -0.1284(2) 0.3562(2)
C47 C 0.0878(3) -0.1537(3) 0.3240(3)
C48 C 0.1363(2) -0.1251(2) 0.4223(2)
K1 K 0.2261(1) 0.23905(5) 0.33281(5)
H1 H 0.182(2) -0.075(2) 0.706(2)
H2 H 0.279(3) -0.127(2) 0.725(2)
H3 H 0.361(2) -0.128(2) 0.650(2)
H4 H 0.117(2) -0.018(2) 0.577(2)
H5 H 0.164(2) 0.073(2) 0.651(2)
H6 H 0.189(2) 0.075(2) 0.585(2)
H7 H 0.109(2) 0.090(2) 0.604(2)
H8 H 0.078(2) -0.010(2) 0.697(2)
H9 H 0.030(2) 0.004(2) 0.641(2)
H10 H 0.058(2) -0.070(2) 0.651(2)
H11 H 0.348(2) -0.090(2) 0.508(2)
H12 H 0.430(3) -0.005(3) 0.574(3)
H13 H 0.429(2) -0.007(2) 0.501(2)
H14 H 0.367(2) 0.024(2) 0.533(2)
H15 H 0.410(3) -0.172(2) 0.556(2)
H16 H 0.458(3) -0.133(3) 0.515(3)
H17 H 0.454(2) -0.121(2) 0.582(2)
H18 H 0.038(2) 0.233(2) 0.392(2)
H19 H 0.048(2) 0.249(2) 0.295(2)
H20 H 0.098(2) 0.168(2) 0.236(2)
H21 H 0.122(2) 0.126(2) 0.480(2)
H22 H 0.076(3) 0.229(2) 0.495(2)
H23 H 0.002(3) 0.203(2) 0.483(2)
H24 H 0.047(2) 0.181(2) 0.536(2)
H25 H -0.018(2) 0.086(2) 0.457(2)
H26 H 0.051(2) 0.039(2) 0.451(2)
H27 H 0.029(2) 0.066(2) 0.513(2)
H28 H 0.189(2) 0.036(2) 0.283(2)
H29 H 0.188(3) 0.036(2) 0.179(2)
H30 H 0.127(2) 0.086(2) 0.174(2)
H31 H 0.202(2) 0.103(2) 0.202(2)
H32 H 0.053(3) 0.018(2) 0.243(2)
H33 H 0.104(2) -0.033(2) 0.237(2)
H34 H 0.081(2) -0.012(2) 0.302(2)
H35 H 0.417(2) 0.232(2) 0.312(2)
H36 H 0.382(2) 0.317(2) 0.371(2)
H37 H 0.321(2) 0.301(2) 0.455(2)
H38 H 0.411(2) 0.075(2) 0.354(2)
H39 H 0.465(2) 0.077(2) 0.265(2)
H40 H 0.447(2) 0.150(2) 0.254(2)
H41 H 0.501(3) 0.132(3) 0.309(2)
H42 H 0.289(2) 0.079(2) 0.313(2)
H43 H 0.312(2) 0.116(2) 0.256(2)
H44 H 0.338(2) 0.040(2) 0.275(2)
H45 H 0.243(2) 0.162(2) 0.495(2)
H46 H 0.256(2) 0.284(2) 0.535(2)
H47 H 0.196(3) 0.259(2) 0.493(2)
H48 H 0.198(2) 0.231(2) 0.559(2)
H49 H 0.298(2) 0.165(2) 0.587(2)
H50 H 0.355(2) 0.137(2) 0.542(2)
H51 H 0.354(3) 0.211(2) 0.564(2)
H52 H 0.386(3) -0.250(3) 0.313(2)
H53 H 0.283(3) -0.297(3) 0.293(2)
H54 H 0.177(2) -0.244(2) 0.312(2)
H55 H 0.407(2) -0.116(2) 0.402(2)
H56 H 0.463(3) -0.213(3) 0.396(2)
H57 H 0.484(3) -0.204(3) 0.334(3)
H58 H 0.520(4) -0.158(4) 0.386(3)
H59 H 0.476(3) -0.061(3) 0.333(3)
H60 H 0.444(3) -0.105(3) 0.280(3)
H61 H 0.398(3) -0.056(3) 0.311(3)
H62 H 0.158(2) -0.083(2) 0.343(2)
H63 H 0.047(3) -0.128(2) 0.333(2)
H64 H 0.093(3) -0.155(2) 0.283(2)
H65 H 0.077(2) -0.197(3) 0.337(2)
H66 H 0.176(2) -0.117(2) 0.446(2)
H67 H 0.098(3) -0.091(3) 0.429(2)
H68 H 0.116(2) -0.165(2) 0.437(2)
K1C K 0.2739(1) -0.26095(5) 0.66719(5)
K1E K 0.2261(1) -0.26095(5) 0.16719(5)
C4C C 0.2272(2) 0.3922(2) 0.3119(2)
C5C C 0.1768(2) 0.3899(2) 0.3553(2)
C40E C 0.2814(3) 0.2421(2) 0.1922(2)
C41E C 0.2194(3) 0.2736(2) 0.1816(2)
H2C H 0.221(3) 0.373(2) 0.275(2)
H3C H 0.139(2) 0.372(2) 0.350(2)
H53E H 0.283(3) 0.203(3) 0.207(2)
H54E H 0.177(2) 0.256(2) 0.188(2)
loop_
_geom_bond_atom_site_label_1
_geom_bond_atom_site_label_2
_geom_bond_site_symmetry_1
_geom_bond_site_symmetry_2
La1 O1 1_555 1_555
O1 C1 1_555 1_555
C1 C2 1_555 1_555
C2 C3 1_555 1_555
C3 C4 1_555 1_555
C4 C5 1_555 1_555
C5 C6 1_555 1_555
C6 C1 1_555 1_555
C7 C2 1_555 1_555
C8 C7 1_555 1_555
C9 C7 1_555 1_555
C10 C6 1_555 1_555
C11 C10 1_555 1_555
C12 C10 1_555 1_555
O2 La1 1_555 1_555
C13 O2 1_555 1_555
C14 C13 1_555 1_555
C15 C14 1_555 1_555
C16 C15 1_555 1_555
C17 C16 1_555 1_555
C18 C13 1_555 1_555
C19 C14 1_555 1_555
C20 C19 1_555 1_555
C21 C19 1_555 1_555
C22 C18 1_555 1_555
C23 C22 1_555 1_555
C24 C22 1_555 1_555
O3 La1 1_555 1_555
C25 O3 1_555 1_555
C26 C25 1_555 1_555
C27 C26 1_555 1_555
C28 C27 1_555 1_555
C29 C28 1_555 1_555
C30 C25 1_555 1_555
C31 C26 1_555 1_555
C32 C31 1_555 1_555
C33 C31 1_555 1_555
C34 C30 1_555 1_555
C35 C34 1_555 1_555
C36 C34 1_555 1_555
O4 La1 1_555 1_555
C37 O4 1_555 1_555
C38 C37 1_555 1_555
C39 C38 1_555 1_555
C40 C39 1_555 1_555
C41 C40 1_555 1_555
C42 C37 1_555 1_555
C43 C38 1_555 1_555
C44 C43 1_555 1_555
C45 C43 1_555 1_555
C46 C42 1_555 1_555
C47 C46 1_555 1_555
C48 C46 1_555 1_555
K1 C13 1_555 1_555
H1 C3 1_555 1_555
H2 C4 1_555 1_555
H3 C5 1_555 1_555
H4 C7 1_555 1_555
H5 C8 1_555 1_555
H6 C8 1_555 1_555
H7 C8 1_555 1_555
H8 C9 1_555 1_555
H9 C9 1_555 1_555
H10 C9 1_555 1_555
H11 C10 1_555 1_555
H12 C11 1_555 1_555
H13 C11 1_555 1_555
H14 C11 1_555 1_555
H15 C12 1_555 1_555
H16 C12 1_555 1_555
H17 C12 1_555 1_555
H18 C15 1_555 1_555
H19 C16 1_555 1_555
H20 C17 1_555 1_555
H21 C19 1_555 1_555
H22 C20 1_555 1_555
H23 C20 1_555 1_555
H24 C20 1_555 1_555
H25 C21 1_555 1_555
H26 C21 1_555 1_555
H27 C21 1_555 1_555
H28 C22 1_555 1_555
H29 C23 1_555 1_555
H30 C23 1_555 1_555
H31 C23 1_555 1_555
H32 C24 1_555 1_555
H33 C24 1_555 1_555
H34 C24 1_555 1_555
H35 C27 1_555 1_555
H36 C28 1_555 1_555
H37 C29 1_555 1_555
H38 C31 1_555 1_555
H39 C32 1_555 1_555
H40 C32 1_555 1_555
H41 C32 1_555 1_555
H42 C33 1_555 1_555
H43 C33 1_555 1_555
H44 C33 1_555 1_555
H45 C34 1_555 1_555
H46 C35 1_555 1_555
H47 C35 1_555 1_555
H48 C35 1_555 1_555
H49 C36 1_555 1_555
H50 C36 1_555 1_555
H51 C36 1_555 1_555
H52 C39 1_555 1_555
H53 C40 1_555 1_555
H54 C41 1_555 1_555
H55 C43 1_555 1_555
H56 C44 1_555 1_555
H57 C44 1_555 1_555
H58 C44 1_555 1_555
H59 C45 1_555 1_555
H60 C45 1_555 1_555
H61 C45 1_555 1_555
H62 C46 1_555 1_555
H63 C47 1_555 1_555
H64 C47 1_555 1_555
H65 C47 1_555 1_555
H66 C48 1_555 1_555
H67 C48 1_555 1_555
H68 C48 1_555 1_555
K1C C4 1_555 1_555
K1E C40 1_555 1_555
C4C K1 1_555 1_555
C5C K1 1_555 1_555
C40E K1 1_555 1_555
C41E K1 1_555 1_555
H2C C4C 1_555 1_555
H3C C5C 1_555 1_555
H53E C40E 1_555 1_555
H54E C41E 1_555 1_555
C5 K1C 1_555 1_555
C15 K1 1_555 1_555
C16 K1 1_555 1_555
C17 C18 1_555 1_555
C17 K1 1_555 1_555
C18 K1 1_555 1_555
C25 K1 1_555 1_555
C26 K1 1_555 1_555
C27 K1 1_555 1_555
C28 K1 1_555 1_555
C29 C30 1_555 1_555
C29 K1 1_555 1_555
C30 K1 1_555 1_555
C41 C42 1_555 1_555
C41 K1E 1_555 1_555
C4C C5C 1_555 1_555
C40E C41E 1_555 1_555

#END
