
#######################################################################
#
#                 Cambridge Crystallographic Data Centre
#                                CCDC 
#
#######################################################################
#
# If this CIF has been generated from an entry in the Cambridge 
# Structural Database, then it will include bibliographic, chemical, 
# crystal, experimental, refinement or atomic coordinate data resulting 
# from the CCDC's data processing and validation procedures.
#
#######################################################################

data_YEYCUC
_symmetry_cell_setting           cubic
_symmetry_space_group_name_H-M   'F m -3 m'
_symmetry_Int_Tables_number      225
_space_group_name_Hall           '-F 4 2 3'
loop_
_symmetry_equiv_pos_site_id
_symmetry_equiv_pos_as_xyz
1 x,y,z
2 -y,x,z
3 -x,-y,z
4 y,-x,z
5 x,-z,y
6 x,-y,-z
7 x,z,-y
8 z,y,-x
9 -x,y,-z
10 -z,y,x
11 z,x,y
12 y,z,x
13 -y,-z,x
14 z,-x,-y
15 -y,z,-x
16 -z,-x,y
17 -z,x,-y
18 y,-z,-x
19 y,x,-z
20 -y,-x,-z
21 -x,z,y
22 -x,-z,-y
23 z,-y,x
24 -z,-y,-x
25 x,1/2+y,1/2+z
26 -y,1/2+x,1/2+z
27 -x,1/2-y,1/2+z
28 y,1/2-x,1/2+z
29 x,1/2-z,1/2+y
30 x,1/2-y,1/2-z
31 x,1/2+z,1/2-y
32 z,1/2+y,1/2-x
33 -x,1/2+y,1/2-z
34 -z,1/2+y,1/2+x
35 z,1/2+x,1/2+y
36 y,1/2+z,1/2+x
37 -y,1/2-z,1/2+x
38 z,1/2-x,1/2-y
39 -y,1/2+z,1/2-x
40 -z,1/2-x,1/2+y
41 -z,1/2+x,1/2-y
42 y,1/2-z,1/2-x
43 y,1/2+x,1/2-z
44 -y,1/2-x,1/2-z
45 -x,1/2+z,1/2+y
46 -x,1/2-z,1/2-y
47 z,1/2-y,1/2+x
48 -z,1/2-y,1/2-x
49 1/2+x,y,1/2+z
50 1/2-y,x,1/2+z
51 1/2-x,-y,1/2+z
52 1/2+y,-x,1/2+z
53 1/2+x,-z,1/2+y
54 1/2+x,-y,1/2-z
55 1/2+x,z,1/2-y
56 1/2+z,y,1/2-x
57 1/2-x,y,1/2-z
58 1/2-z,y,1/2+x
59 1/2+z,x,1/2+y
60 1/2+y,z,1/2+x
61 1/2-y,-z,1/2+x
62 1/2+z,-x,1/2-y
63 1/2-y,z,1/2-x
64 1/2-z,-x,1/2+y
65 1/2-z,x,1/2-y
66 1/2+y,-z,1/2-x
67 1/2+y,x,1/2-z
68 1/2-y,-x,1/2-z
69 1/2-x,z,1/2+y
70 1/2-x,-z,1/2-y
71 1/2+z,-y,1/2+x
72 1/2-z,-y,1/2-x
73 1/2+x,1/2+y,z
74 1/2-y,1/2+x,z
75 1/2-x,1/2-y,z
76 1/2+y,1/2-x,z
77 1/2+x,1/2-z,y
78 1/2+x,1/2-y,-z
79 1/2+x,1/2+z,-y
80 1/2+z,1/2+y,-x
81 1/2-x,1/2+y,-z
82 1/2-z,1/2+y,x
83 1/2+z,1/2+x,y
84 1/2+y,1/2+z,x
85 1/2-y,1/2-z,x
86 1/2+z,1/2-x,-y
87 1/2-y,1/2+z,-x
88 1/2-z,1/2-x,y
89 1/2-z,1/2+x,-y
90 1/2+y,1/2-z,-x
91 1/2+y,1/2+x,-z
92 1/2-y,1/2-x,-z
93 1/2-x,1/2+z,y
94 1/2-x,1/2-z,-y
95 1/2+z,1/2-y,x
96 1/2-z,1/2-y,-x
97 -x,-y,-z
98 y,-x,-z
99 x,y,-z
100 -y,x,-z
101 -x,z,-y
102 -x,y,z
103 -x,-z,y
104 -z,-y,x
105 x,-y,z
106 z,-y,-x
107 -z,-x,-y
108 -y,-z,-x
109 y,z,-x
110 -z,x,y
111 y,-z,x
112 z,x,-y
113 z,-x,y
114 -y,z,x
115 -y,-x,z
116 y,x,z
117 x,-z,-y
118 x,z,y
119 -z,y,-x
120 z,y,x
121 -x,1/2-y,1/2-z
122 y,1/2-x,1/2-z
123 x,1/2+y,1/2-z
124 -y,1/2+x,1/2-z
125 -x,1/2+z,1/2-y
126 -x,1/2+y,1/2+z
127 -x,1/2-z,1/2+y
128 -z,1/2-y,1/2+x
129 x,1/2-y,1/2+z
130 z,1/2-y,1/2-x
131 -z,1/2-x,1/2-y
132 -y,1/2-z,1/2-x
133 y,1/2+z,1/2-x
134 -z,1/2+x,1/2+y
135 y,1/2-z,1/2+x
136 z,1/2+x,1/2-y
137 z,1/2-x,1/2+y
138 -y,1/2+z,1/2+x
139 -y,1/2-x,1/2+z
140 y,1/2+x,1/2+z
141 x,1/2-z,1/2-y
142 x,1/2+z,1/2+y
143 -z,1/2+y,1/2-x
144 z,1/2+y,1/2+x
145 1/2-x,-y,1/2-z
146 1/2+y,-x,1/2-z
147 1/2+x,y,1/2-z
148 1/2-y,x,1/2-z
149 1/2-x,z,1/2-y
150 1/2-x,y,1/2+z
151 1/2-x,-z,1/2+y
152 1/2-z,-y,1/2+x
153 1/2+x,-y,1/2+z
154 1/2+z,-y,1/2-x
155 1/2-z,-x,1/2-y
156 1/2-y,-z,1/2-x
157 1/2+y,z,1/2-x
158 1/2-z,x,1/2+y
159 1/2+y,-z,1/2+x
160 1/2+z,x,1/2-y
161 1/2+z,-x,1/2+y
162 1/2-y,z,1/2+x
163 1/2-y,-x,1/2+z
164 1/2+y,x,1/2+z
165 1/2+x,-z,1/2-y
166 1/2+x,z,1/2+y
167 1/2-z,y,1/2-x
168 1/2+z,y,1/2+x
169 1/2-x,1/2-y,-z
170 1/2+y,1/2-x,-z
171 1/2+x,1/2+y,-z
172 1/2-y,1/2+x,-z
173 1/2-x,1/2+z,-y
174 1/2-x,1/2+y,z
175 1/2-x,1/2-z,y
176 1/2-z,1/2-y,x
177 1/2+x,1/2-y,z
178 1/2+z,1/2-y,-x
179 1/2-z,1/2-x,-y
180 1/2-y,1/2-z,-x
181 1/2+y,1/2+z,-x
182 1/2-z,1/2+x,y
183 1/2+y,1/2-z,x
184 1/2+z,1/2+x,-y
185 1/2+z,1/2-x,y
186 1/2-y,1/2+z,x
187 1/2-y,1/2-x,z
188 1/2+y,1/2+x,z
189 1/2+x,1/2-z,-y
190 1/2+x,1/2+z,y
191 1/2-z,1/2+y,-x
192 1/2+z,1/2+y,x
_cell_length_a                   32.657(19)
_cell_length_b                   32.657(19)
_cell_length_c                   32.657(19)
_cell_angle_alpha                90
_cell_angle_beta                 90
_cell_angle_gamma                90
_cell_volume                     34828
loop_
_atom_site_label
_atom_site_type_symbol
_atom_site_fract_x
_atom_site_fract_y
_atom_site_fract_z
Zr1 Zr 0.07535(3) 0.5000 0.0000
O1 O 0.03707(17) 0.46293(17) -0.03707(17)
O2 O 0.10818(14) 0.44135(14) 0.0000
C1 C 0.09467(17) 0.40533(17) 0.0000
C2 C 0.12760(16) 0.37240(16) 0.0000
C3 C 0.16871(19) 0.3834(2) 0.0000
H1 H 0.1762 0.4115 0.0000
C4 C 0.1992(2) 0.3530(2) 0.0000
H2 H 0.2274 0.3604 0.0000
C5 C 0.1876(2) 0.3124(2) 0.0000
C6 C 0.22033(18) 0.27967(18) 0.0000
C7 C 0.23495(7) 0.26505(7) 0.03718(17)
C8 C 0.2184(3) 0.2816(3) 0.0777(4)
H3 H 0.1981 0.3019 0.0719
H4 H 0.2063 0.2604 0.0932
O2VB O 0.39182(14) 0.05865(14) 0.0000
C1R C 0.40533(17) 0.09467(17) 0.0000
C2R C 0.37240(16) 0.12760(16) 0.0000
C3VB C 0.33129(19) 0.1166(2) 0.0000
H1VB H 0.3238 0.0885 0.0000
C4VB C 0.3008(2) 0.1470(2) 0.0000
H2VB H 0.2726 0.1396 0.0000
C5R C 0.3124(2) 0.1876(2) 0.0000
C6R C 0.27967(18) 0.22033(18) 0.0000
C7VB C 0.26505(7) 0.23495(7) 0.03718(17)
C8VB C 0.2816(3) 0.2184(3) 0.0777(4)
H3VB H 0.3019 0.1981 0.0719
H4VB H 0.2937 0.2396 0.0932
O2MC O 0.05865(14) 0.39182(14) 0.0000
C3MC C 0.1166(2) 0.33129(19) 0.0000
H1MC H 0.0885 0.3238 0.0000
C4MC C 0.1470(2) 0.3008(2) 0.0000
H2MC H 0.1396 0.2726 0.0000
C7MC C 0.23495(7) 0.26505(7) -0.03718(17)
C8MC C 0.2184(3) 0.2816(3) -0.0777(4)
H3MC H 0.1981 0.3019 -0.0719
H4MC H 0.2396 0.2937 -0.0932
H4TC H 0.2063 0.2604 -0.0932
O2R O 0.44135(14) 0.10818(14) 0.0000
C3R C 0.3834(2) 0.16871(19) 0.0000
H1R H 0.4115 0.1762 0.0000
C4R C 0.3530(2) 0.1992(2) 0.0000
H2R H 0.3604 0.2274 0.0000
H4KD H 0.2604 0.2063 0.0932
C7R C 0.26505(7) 0.23495(7) -0.03718(17)
C8R C 0.2816(3) 0.2184(3) -0.0777(4)
H3R H 0.3019 0.1981 -0.0719
H4LF H 0.2937 0.2396 -0.0932
H4DG H 0.2396 0.2937 0.0932
H4R H 0.2604 0.2063 -0.0932
Zr1A Zr 0.5000 0.07535(3) 0.0000
O2A O 0.55865(14) 0.10818(14) 0.0000
C1A C 0.59467(17) 0.09467(17) 0.0000
C2A C 0.62760(16) 0.12760(16) 0.0000
C3A C 0.6166(2) 0.16871(19) 0.0000
H1A H 0.5885 0.1762 0.0000
C4A C 0.6470(2) 0.1992(2) 0.0000
H2A H 0.6396 0.2274 0.0000
C5A C 0.6876(2) 0.1876(2) 0.0000
C6A C 0.72033(18) 0.22033(18) 0.0000
C7A C 0.73495(7) 0.23495(7) 0.03718(17)
C8A C 0.7184(3) 0.2184(3) 0.0777(4)
H3A H 0.6981 0.1981 0.0719
H4A H 0.7396 0.2063 0.0932
O2WB O 0.94135(14) 0.39182(14) 0.0000
C1H C 0.90533(17) 0.40533(17) 0.0000
C2H C 0.87240(16) 0.37240(16) 0.0000
C3WB C 0.8834(2) 0.33129(19) 0.0000
H1WB H 0.9115 0.3238 0.0000
C4WB C 0.8530(2) 0.3008(2) 0.0000
H2WB H 0.8604 0.2726 0.0000
C5H C 0.8124(2) 0.3124(2) 0.0000
C6H C 0.77967(18) 0.27967(18) 0.0000
C7WB C 0.76505(7) 0.26505(7) 0.03718(17)
C8WB C 0.7816(3) 0.2816(3) 0.0777(4)
H3WB H 0.8019 0.3019 0.0719
H4WB H 0.7604 0.2937 0.0932
O2YB O 0.60818(14) 0.05865(14) 0.0000
C3YB C 0.66871(19) 0.1166(2) 0.0000
H1YB H 0.6762 0.0885 0.0000
C4YB C 0.6992(2) 0.1470(2) 0.0000
H2YB H 0.7274 0.1396 0.0000
C7YB C 0.73495(7) 0.23495(7) -0.03718(17)
C8YB C 0.7184(3) 0.2184(3) -0.0777(4)
H3YB H 0.6981 0.1981 -0.0719
H4YB H 0.7063 0.2396 -0.0932
H4UC H 0.7396 0.2063 -0.0932
O2H O 0.89182(14) 0.44135(14) 0.0000
C3H C 0.83129(19) 0.3834(2) 0.0000
H1H H 0.8238 0.4115 0.0000
C4H C 0.8008(2) 0.3530(2) 0.0000
H2H H 0.7726 0.3604 0.0000
H4WC H 0.7937 0.2604 0.0932
C7H C 0.76505(7) 0.26505(7) -0.03718(17)
C8H C 0.7816(3) 0.2816(3) -0.0777(4)
H3H H 0.8019 0.3019 -0.0719
H4MF H 0.7604 0.2937 -0.0932
H4TF H 0.7063 0.2396 0.0932
H4H H 0.7937 0.2604 -0.0932
Zr1C Zr 0.5000 0.92465(3) 0.0000
O2C O 0.44135(14) 0.89182(14) 0.0000
C1C C 0.40533(17) 0.90533(17) 0.0000
C2C C 0.37240(16) 0.87240(16) 0.0000
C3C C 0.3834(2) 0.83129(19) 0.0000
H1C H 0.4115 0.8238 0.0000
C4C C 0.3530(2) 0.8008(2) 0.0000
H2C H 0.3604 0.7726 0.0000
C5C C 0.3124(2) 0.8124(2) 0.0000
C6C C 0.27967(18) 0.77967(18) 0.0000
C7C C 0.26505(7) 0.76505(7) 0.03718(17)
C8C C 0.2816(3) 0.7816(3) 0.0777(4)
H3C H 0.3019 0.8019 0.0719
H4C H 0.2604 0.7937 0.0932
O2UB O 0.05865(14) 0.60818(14) 0.0000
C1E C 0.09467(17) 0.59467(17) 0.0000
C2E C 0.12760(16) 0.62760(16) 0.0000
C3UB C 0.1166(2) 0.66871(19) 0.0000
H1UB H 0.0885 0.6762 0.0000
C4UB C 0.1470(2) 0.6992(2) 0.0000
H2UB H 0.1396 0.7274 0.0000
C5E C 0.1876(2) 0.6876(2) 0.0000
C6E C 0.22033(18) 0.72033(18) 0.0000
C7UB C 0.23495(7) 0.73495(7) 0.03718(17)
C8UB C 0.2184(3) 0.7184(3) 0.0777(4)
H3UB H 0.1981 0.6981 0.0719
H4UB H 0.2396 0.7063 0.0932
O2BC O 0.39182(14) 0.94135(14) 0.0000
C3BC C 0.33129(19) 0.8834(2) 0.0000
H1BC H 0.3238 0.9115 0.0000
C4BC C 0.3008(2) 0.8530(2) 0.0000
H2BC H 0.2726 0.8604 0.0000
C7BC C 0.26505(7) 0.76505(7) -0.03718(17)
C8BC C 0.2816(3) 0.7816(3) -0.0777(4)
H3BC H 0.3019 0.8019 -0.0719
H4BC H 0.2937 0.7604 -0.0932
H4SC H 0.2604 0.7937 -0.0932
O2E O 0.10818(14) 0.55865(14) 0.0000
C3E C 0.16871(19) 0.6166(2) 0.0000
H1E H 0.1762 0.5885 0.0000
C4E C 0.1992(2) 0.6470(2) 0.0000
H2E H 0.2274 0.6396 0.0000
H4ZC H 0.2063 0.7396 0.0932
C7E C 0.23495(7) 0.73495(7) -0.03718(17)
C8E C 0.2184(3) 0.7184(3) -0.0777(4)
H3E H 0.1981 0.6981 -0.0719
H4OF H 0.2396 0.7063 -0.0932
H4QF H 0.2937 0.7604 0.0932
H4E H 0.2063 0.7396 -0.0932
O1E O 0.03707(17) 0.53707(17) 0.03707(17)
O1W O 0.03707(17) 0.53707(17) -0.03707(17)
O1I O 0.03707(17) 0.46293(17) 0.03707(17)
Zr1B Zr 0.92465(3) 0.5000 0.0000
Zr1G Zr 0.0000 0.5000 -0.07535(3)
Zr1I Zr 0.0000 0.5000 0.07535(3)
Zr1HA Zr 0.0000 0.57535(3) 0.0000
Zr1KA Zr 0.0000 0.42465(3) 0.0000
Zr1KA_2 Zr 1.0000 0.42465(3) 0.0000
Zr1ZA Zr 0.57535(3) 0.0000 0.0000
Zr1PB Zr 0.42465(3) 0.0000 0.0000
Zr1PB_2 Zr 0.42465(3) 1.0000 0.0000
O1A O 0.53707(17) 0.03707(17) -0.03707(17)
O1C O 0.46293(17) 0.96293(17) -0.03707(17)
O1K O 0.46293(17) 0.96293(17) 0.03707(17)
O1L O 0.53707(17) 0.03707(17) 0.03707(17)
O1N O 0.53707(17) 0.96293(17) -0.03707(17)
O1Q O 0.46293(17) 0.03707(17) -0.03707(17)
O1R O 0.46293(17) 0.03707(17) 0.03707(17)
O1S O 0.53707(17) 0.96293(17) 0.03707(17)
O2S O 0.55865(14) 0.89182(14) 0.0000
O2BA O 0.10818(14) 0.5000 -0.05865(14)
O2DA O 0.10818(14) 0.5000 0.05865(14)
O2FB O 0.5000 0.10818(14) -0.05865(14)
O2IB O 0.5000 0.89182(14) 0.05865(14)
O2KB O 0.5000 0.89182(14) -0.05865(14)
O2LB O 0.5000 0.10818(14) 0.05865(14)
loop_
_geom_bond_atom_site_label_1
_geom_bond_atom_site_label_2
_geom_bond_site_symmetry_1
_geom_bond_site_symmetry_2
Zr1 O1 1_555 1_555
O1 Zr1G 1_555 1_555
O2 Zr1 1_555 1_555
C1 O2 1_555 1_555
C2 C1 1_555 1_555
C3 C2 1_555 1_555
H1 C3 1_555 1_555
C4 C3 1_555 1_555
H2 C4 1_555 1_555
C5 C4 1_555 1_555
C6 C5 1_555 1_555
C7 C6 1_555 1_555
C8 C7 1_555 1_555
H3 C8 1_555 1_555
H4 C8 1_555 1_555
O2VB C1R 1_555 1_555
C1R C2R 1_555 1_555
C2R C3VB 1_555 1_555
C3VB H1VB 1_555 1_555
C4VB C3VB 1_555 1_555
H2VB C4VB 1_555 1_555
C5R C4VB 1_555 1_555
C6R C5R 1_555 1_555
C7VB C7 1_555 1_555
C8VB C7VB 1_555 1_555
H3VB C8VB 1_555 1_555
H4VB C8VB 1_555 1_555
O2MC C1 1_555 1_555
C3MC C2 1_555 1_555
H1MC C3MC 1_555 1_555
C4MC C5 1_555 1_555
H2MC C4MC 1_555 1_555
C7MC C6 1_555 1_555
C8MC C7MC 1_555 1_555
H3MC C8MC 1_555 1_555
H4MC C8MC 1_555 1_555
H4TC C8MC 1_555 1_555
O2R C1R 1_555 1_555
C3R C2R 1_555 1_555
H1R C3R 1_555 1_555
C4R C5R 1_555 1_555
H2R C4R 1_555 1_555
H4KD C8VB 1_555 1_555
C7R C6R 1_555 1_555
C8R C7R 1_555 1_555
H3R C8R 1_555 1_555
H4LF C8R 1_555 1_555
H4DG C8 1_555 1_555
H4R C8R 1_555 1_555
Zr1A O2R 1_555 1_555
O2A Zr1A 1_555 1_555
C1A O2A 1_555 1_555
C2A C1A 1_555 1_555
C3A C2A 1_555 1_555
H1A C3A 1_555 1_555
C4A C3A 1_555 1_555
H2A C4A 1_555 1_555
C5A C4A 1_555 1_555
C6A C5A 1_555 1_555
C7A C6A 1_555 1_555
C8A C7A 1_555 1_555
H3A C8A 1_555 1_555
H4A C8A 1_555 1_555
O2WB C1H 1_555 1_555
C1H C2H 1_555 1_555
C2H C3WB 1_555 1_555
C3WB H1WB 1_555 1_555
C4WB C3WB 1_555 1_555
H2WB C4WB 1_555 1_555
C5H C4WB 1_555 1_555
C6H C5H 1_555 1_555
C7WB C7A 1_555 1_555
C8WB C7WB 1_555 1_555
H3WB C8WB 1_555 1_555
H4WB C8WB 1_555 1_555
O2YB C1A 1_555 1_555
C3YB C2A 1_555 1_555
H1YB C3YB 1_555 1_555
C4YB C5A 1_555 1_555
H2YB C4YB 1_555 1_555
C7YB C6A 1_555 1_555
C8YB C7YB 1_555 1_555
H3YB C8YB 1_555 1_555
H4YB C8YB 1_555 1_555
H4UC C8YB 1_555 1_555
O2H C1H 1_555 1_555
C3H C2H 1_555 1_555
H1H C3H 1_555 1_555
C4H C5H 1_555 1_555
H2H C4H 1_555 1_555
H4WC C8WB 1_555 1_555
C7H C6H 1_555 1_555
C8H C7H 1_555 1_555
H3H C8H 1_555 1_555
H4MF C8H 1_555 1_555
H4TF C8A 1_555 1_555
H4H C8H 1_555 1_555
Zr1C O2C 1_555 1_555
O2C C1C 1_555 1_555
C1C C2C 1_555 1_555
C2C C3C 1_555 1_555
C3C H1C 1_555 1_555
C4C C3C 1_555 1_555
H2C C4C 1_555 1_555
C5C C4C 1_555 1_555
C6C C5C 1_555 1_555
C7C C6C 1_555 1_555
C8C C7C 1_555 1_555
H3C C8C 1_555 1_555
H4C C8C 1_555 1_555
O2UB C1E 1_555 1_555
C1E C2E 1_555 1_555
C2E C3UB 1_555 1_555
C3UB H1UB 1_555 1_555
C4UB C3UB 1_555 1_555
H2UB C4UB 1_555 1_555
C5E C4UB 1_555 1_555
C6E C5E 1_555 1_555
C7UB C7C 1_555 1_555
C8UB C7UB 1_555 1_555
H3UB C8UB 1_555 1_555
H4UB C8UB 1_555 1_555
O2BC C1C 1_555 1_555
C3BC C2C 1_555 1_555
H1BC C3BC 1_555 1_555
C4BC C5C 1_555 1_555
H2BC C4BC 1_555 1_555
C7BC C6C 1_555 1_555
C8BC C7BC 1_555 1_555
H3BC C8BC 1_555 1_555
H4BC C8BC 1_555 1_555
H4SC C8BC 1_555 1_555
O2E Zr1 1_555 1_555
C3E C2E 1_555 1_555
H1E C3E 1_555 1_555
C4E C5E 1_555 1_555
H2E C4E 1_555 1_555
H4ZC C8UB 1_555 1_555
C7E C6E 1_555 1_555
C8E C7E 1_555 1_555
H3E C8E 1_555 1_555
H4OF C8E 1_555 1_555
H4QF C8C 1_555 1_555
H4E C8E 1_555 1_555
O1E Zr1 1_555 1_555
O1W Zr1 1_555 1_555
O1I Zr1 1_555 1_555
Zr1B O2H 1_555 1_555
Zr1G O1W 1_555 1_555
Zr1I O1E 1_555 1_555
Zr1HA O2UB 1_555 1_555
Zr1KA O1 1_555 1_555
Zr1KA_2 O2WB 1_555 1_555
Zr1ZA O2YB 1_555 1_555
Zr1PB O2VB 1_555 1_555
Zr1PB_2 O2BC 1_555 1_555
O1A Zr1A 1_555 1_555
O1C Zr1C 1_555 1_555
O1K Zr1C 1_555 1_555
O1L Zr1A 1_555 1_555
O1N Zr1C 1_555 1_555
O1Q Zr1A 1_555 1_555
O1R Zr1A 1_555 1_555
O1S Zr1C 1_555 1_555
O2S Zr1C 1_555 1_555
O2BA Zr1 1_555 1_555
O2DA Zr1 1_555 1_555
O2FB Zr1A 1_555 1_555
O2IB Zr1C 1_555 1_555
O2KB Zr1C 1_555 1_555
O2LB Zr1A 1_555 1_555
C6R C7VB 1_555 1_555
O2MC Zr1KA 1_555 1_555
C3MC C4MC 1_555 1_555
C7MC C7R 1_555 1_555
C3R C4R 1_555 1_555
C6H C7WB 1_555 1_555
C3YB C4YB 1_555 1_555
C7YB C7H 1_555 1_555
C3H C4H 1_555 1_555
C1E O2E 1_555 1_555
C6E C7UB 1_555 1_555
C3BC C4BC 1_555 1_555
C7BC C7E 1_555 1_555
C3E C4E 1_555 1_555
O1E Zr1HA 1_555 1_555
O1W Zr1HA 1_555 1_555
O1I Zr1I 1_555 1_555
O1I Zr1KA 1_555 1_555
Zr1ZA O1A 1_555 1_555
Zr1ZA O1L 1_555 1_555
Zr1PB O1Q 1_555 1_555
Zr1PB O1R 1_555 1_555
Zr1PB_2 O1C 1_555 1_555
Zr1PB_2 O1K 1_555 1_555

#END
