
#######################################################################
#
#                 Cambridge Crystallographic Data Centre
#                                CCDC 
#
#######################################################################
#
# If this CIF has been generated from an entry in the Cambridge 
# Structural Database, then it will include bibliographic, chemical, 
# crystal, experimental, refinement or atomic coordinate data resulting 
# from the CCDC's data processing and validation procedures.
#
#######################################################################

data_YEYGEQ
_symmetry_cell_setting           orthorhombic
_symmetry_space_group_name_H-M   'I b a m'
_symmetry_Int_Tables_number      72
_space_group_name_Hall           '-I 2 2c'
loop_
_symmetry_equiv_pos_site_id
_symmetry_equiv_pos_as_xyz
1 x,y,z
2 -x,-y,z
3 1/2-x,1/2+y,-z
4 1/2+x,1/2-y,-z
5 1/2+x,1/2+y,1/2+z
6 1/2-x,1/2-y,1/2+z
7 -x,y,1/2-z
8 x,-y,1/2-z
9 -x,-y,-z
10 x,y,-z
11 1/2+x,1/2-y,z
12 1/2-x,1/2+y,z
13 1/2-x,1/2-y,1/2-z
14 1/2+x,1/2+y,1/2-z
15 x,-y,1/2+z
16 -x,y,1/2+z
_cell_length_a                   13.531(3)
_cell_length_b                   18.291(4)
_cell_length_c                   22.172(6)
_cell_angle_alpha                90
_cell_angle_beta                 90
_cell_angle_gamma                90
_cell_volume                     5487.47
loop_
_atom_site_label
_atom_site_type_symbol
_atom_site_fract_x
_atom_site_fract_y
_atom_site_fract_z
Zn1 Zn -0.00042(3) 0.08075(5) 0.0000
O1 O 0.1071(3) 0.0558(3) 0.0615(2)
C1 C 0.5000 0.0000 0.2201(4)
C2 C 0.2590(4) -0.0639(4) 0.1501(3)
D1 D 0.2188 -0.1051 0.1507
C3 C 0.4071(3) -0.0023(3) 0.1839(2)
C4 C 0.2327(3) -0.0045(3) 0.1152(3)
C5 C 0.1403(4) -0.0047(4) 0.0778(3)
C6 C 0.3452(4) -0.0625(4) 0.1846(3)
D2 D 0.3613 -0.1027 0.2083
C7 C 0.3810(4) 0.0549(4) 0.1478(3)
D3 D 0.4230 0.0950 0.1452
C8 C 0.2946(4) 0.0553(4) 0.1150(3)
D4 D 0.2778 0.0964 0.0925
O2 O 0.1058(3) -0.0670(3) 0.0635(2)
O3 O 0.0241(4) 0.1873(4) 0.0000
C9 C 0.1083(7) 0.2101(6) 0.0000
N1 N 0.1354(7) 0.2773(6) 0.0000
C10 C 0.2421(12) 0.3009(10) 0.0000
C11 C 0.039(2) 0.3946(17) 0.0000
C12 C 0.2991(16) 0.2577(14) 0.0381(18)
C13 C 0.0703(17) 0.3345(11) 0.0394(11)
O1A O 0.8929(3) -0.0558(3) 0.0615(2)
C2A C 0.7410(4) 0.0639(4) 0.1501(3)
D1A D 0.7812 0.1051 0.1507
C3A C 0.5929(3) 0.0023(3) 0.1839(2)
C4A C 0.7673(3) 0.0045(3) 0.1152(3)
C5A C 0.8597(4) 0.0047(4) 0.0778(3)
C6A C 0.6548(4) 0.0625(4) 0.1846(3)
D2A D 0.6387 0.1027 0.2083
C7A C 0.6190(4) -0.0549(4) 0.1478(3)
D3A D 0.5770 -0.0950 0.1452
C8A C 0.7054(4) -0.0553(4) 0.1150(3)
D4A D 0.7222 -0.0964 0.0925
O2A O 0.8942(3) 0.0670(3) 0.0635(2)
O1F O 0.8929(3) 0.0558(3) 0.4385(2)
C1F C 0.5000 0.0000 0.2799(4)
C2F C 0.7410(4) -0.0639(4) 0.3499(3)
D1F D 0.7812 -0.1051 0.3493
C3F C 0.5929(3) -0.0023(3) 0.3161(2)
C4F C 0.7673(3) -0.0045(3) 0.3848(3)
C5F C 0.8597(4) -0.0047(4) 0.4222(3)
C6F C 0.6548(4) -0.0625(4) 0.3154(3)
D2F D 0.6387 -0.1027 0.2917
C7F C 0.6190(4) 0.0549(4) 0.3522(3)
D3F D 0.5770 0.0950 0.3548
C8F C 0.7054(4) 0.0553(4) 0.3850(3)
D4F D 0.7222 0.0964 0.4075
O2F O 0.8942(3) -0.0670(3) 0.4365(2)
O1G O 0.1071(3) -0.0558(3) 0.4385(2)
C2G C 0.2590(4) 0.0639(4) 0.3499(3)
D1G D 0.2188 0.1051 0.3493
C3G C 0.4071(3) 0.0023(3) 0.3161(2)
C4G C 0.2327(3) 0.0045(3) 0.3848(3)
C5G C 0.1403(4) 0.0047(4) 0.4222(3)
C6G C 0.3452(4) 0.0625(4) 0.3154(3)
D2G D 0.3613 0.1027 0.2917
C7G C 0.3810(4) -0.0549(4) 0.3522(3)
D3G D 0.4230 -0.0950 0.3548
C8G C 0.2946(4) -0.0553(4) 0.3850(3)
D4G D 0.2778 -0.0964 0.4075
O2G O 0.1058(3) 0.0670(3) 0.4365(2)
C12I C 0.2991(16) 0.2577(14) -0.0381(18)
C13I C 0.0703(17) 0.3345(11) -0.0394(11)
Zn1A Zn 0.00042(3) -0.08075(5) 0.0000
O3A O -0.0241(4) -0.1873(4) 0.0000
C9A C -0.1083(7) -0.2101(6) 0.0000
N1A N -0.1354(7) -0.2773(6) 0.0000
C10A C -0.2421(12) -0.3009(10) 0.0000
C11A C -0.039(2) -0.3946(17) 0.0000
C12A C -0.2991(16) -0.2577(14) 0.0381(18)
C13A C -0.0703(17) -0.3345(11) 0.0394(11)
C12H C -0.2991(16) -0.2577(14) -0.0381(18)
C13H C -0.0703(17) -0.3345(11) -0.0394(11)
Zn1_2 Zn 0.99958(3) 0.08075(5) 0.0000
Zn1A_2 Zn 1.00042(3) -0.08075(5) 0.0000
Zn1F Zn 0.00042(3) 0.08075(5) 0.5000
Zn1F_2 Zn 1.00042(3) 0.08075(5) 0.5000
Zn1G Zn -0.00042(3) -0.08075(5) 0.5000
Zn1G_2 Zn 0.99958(3) -0.08075(5) 0.5000
O1A_2 O -0.1071(3) -0.0558(3) 0.0615(2)
O1H O -0.1071(3) -0.0558(3) -0.0615(2)
O1I O 0.1071(3) 0.0558(3) -0.0615(2)
O2A_2 O -0.1058(3) 0.0670(3) 0.0635(2)
O2H O -0.1058(3) 0.0670(3) -0.0635(2)
O2I O 0.1058(3) -0.0670(3) -0.0635(2)
loop_
_geom_bond_atom_site_label_1
_geom_bond_atom_site_label_2
_geom_bond_site_symmetry_1
_geom_bond_site_symmetry_2
Zn1 O1 1_555 1_555
O1 C5 1_555 1_555
C1 C3 1_555 1_555
C2 D1 1_555 1_555
C3 C6 1_555 1_555
C4 C2 1_555 1_555
C5 C4 1_555 1_555
C6 C2 1_555 1_555
D2 C6 1_555 1_555
C7 C3 1_555 1_555
D3 C7 1_555 1_555
C8 C4 1_555 1_555
D4 C8 1_555 1_555
O2 C5 1_555 1_555
O3 Zn1 1_555 1_555
C9 O3 1_555 1_555
N1 C9 1_555 1_555
C10 N1 1_555 1_555
C11 C13 1_555 1_555
C12 C10 1_555 1_555
C13 N1 1_555 1_555
O1A C5A 1_555 1_555
C2A D1A 1_555 1_555
C3A C1 1_555 1_555
C4A C2A 1_555 1_555
C5A C4A 1_555 1_555
C6A C2A 1_555 1_555
D2A C6A 1_555 1_555
C7A C3A 1_555 1_555
D3A C7A 1_555 1_555
C8A C4A 1_555 1_555
D4A C8A 1_555 1_555
O2A C5A 1_555 1_555
O1F C5F 1_555 1_555
C1F C1 1_555 1_555
C2F D1F 1_555 1_555
C3F C1F 1_555 1_555
C4F C2F 1_555 1_555
C5F C4F 1_555 1_555
C6F C2F 1_555 1_555
D2F C6F 1_555 1_555
C7F C3F 1_555 1_555
D3F C7F 1_555 1_555
C8F C4F 1_555 1_555
D4F C8F 1_555 1_555
O2F C5F 1_555 1_555
O1G C5G 1_555 1_555
C2G D1G 1_555 1_555
C3G C1F 1_555 1_555
C4G C2G 1_555 1_555
C5G C4G 1_555 1_555
C6G C2G 1_555 1_555
D2G C6G 1_555 1_555
C7G C3G 1_555 1_555
D3G C7G 1_555 1_555
C8G C4G 1_555 1_555
D4G C8G 1_555 1_555
O2G C5G 1_555 1_555
C12I C10 1_555 1_555
C13I N1 1_555 1_555
Zn1A O2 1_555 1_555
O3A Zn1A 1_555 1_555
C9A O3A 1_555 1_555
N1A C9A 1_555 1_555
C10A N1A 1_555 1_555
C11A C13A 1_555 1_555
C12A C10A 1_555 1_555
C13A N1A 1_555 1_555
C12H C10A 1_555 1_555
C13H N1A 1_555 1_555
Zn1_2 O2A 1_555 1_555
Zn1A_2 O1A 1_555 1_555
Zn1F O2G 1_555 1_555
Zn1F_2 O1F 1_555 1_555
Zn1G O1G 1_555 1_555
Zn1G_2 O2F 1_555 1_555
O1A_2 Zn1A 1_555 1_555
O1H Zn1A 1_555 1_555
O1I Zn1 1_555 1_555
O2A_2 Zn1 1_555 1_555
O2H Zn1 1_555 1_555
O2I Zn1A 1_555 1_555
C7 C8 1_555 1_555
C11 C13I 1_555 1_555
C12 C12I 1_555 1_555
C13 C13I 1_555 1_555
C3A C6A 1_555 1_555
C7A C8A 1_555 1_555
C3F C6F 1_555 1_555
C7F C8F 1_555 1_555
C3G C6G 1_555 1_555
C7G C8G 1_555 1_555
C11A C13H 1_555 1_555
C12A C12H 1_555 1_555
C13A C13H 1_555 1_555

#END
