
#######################################################################
#
#                 Cambridge Crystallographic Data Centre
#                                CCDC 
#
#######################################################################
#
# If this CIF has been generated from an entry in the Cambridge 
# Structural Database, then it will include bibliographic, chemical, 
# crystal, experimental, refinement or atomic coordinate data resulting 
# from the CCDC's data processing and validation procedures.
#
#######################################################################

data_YEYGAM
_symmetry_cell_setting           monoclinic
_symmetry_space_group_name_H-M   'C 2/c'
_symmetry_Int_Tables_number      15
_space_group_name_Hall           '-C 2yn'
loop_
_symmetry_equiv_pos_site_id
_symmetry_equiv_pos_as_xyz
1 x,y,z
2 -x,y,1/2-z
3 1/2+x,1/2+y,z
4 1/2-x,1/2+y,1/2-z
5 -x,-y,-z
6 x,-y,1/2+z
7 1/2-x,1/2-y,-z
8 1/2+x,1/2-y,1/2+z
_cell_length_a                   26.446(2)
_cell_length_b                   13.7337(11)
_cell_length_c                   17.5302(15)
_cell_angle_alpha                90
_cell_angle_beta                 126.487(2)
_cell_angle_gamma                90
_cell_volume                     5119.01
loop_
_atom_site_label
_atom_site_type_symbol
_atom_site_fract_x
_atom_site_fract_y
_atom_site_fract_z
Zn1 Zn 0.24504(2) 0.74959(3) 0.07909(3)
O1 O 0.30859(17) 0.8571(2) 0.1209(3)
O2 O 0.31642(19) 0.8590(2) 0.0010(3)
O3 O 0.32381(17) 1.6502(2) -0.0050(3)
O4 O 0.31078(19) 1.6468(3) 0.1087(3)
O5 O 0.25068(19) 0.7242(3) 0.1947(2)
C1 C 0.3677(2) 1.5197(3) 0.1038(3)
C2 C 0.4462(3) 1.4084(4) 0.1274(4)
D1 D 0.4782 1.3931 0.1203
C3 C 0.3534(3) 1.4547(4) 0.1470(5)
D2 D 0.3214 1.4697 0.1541
C4 C 0.3318(2) 1.6135(3) 0.0669(3)
C5 C 0.4328(2) 1.3442(3) 0.1737(3)
C6 C 0.4131(3) 1.4956(4) 0.0911(4)
D3 D 0.4216 1.5385 0.0575
C7 C 0.3852(3) 1.3667(4) 0.1807(5)
D4 D 0.3737 1.3214 0.2090
C8 C 0.3920(3) 1.0150(4) 0.2050(4)
D5 D 0.3875 0.9766 0.2457
C9 C 0.4266(3) 1.1012(4) 0.2384(4)
D6 D 0.4465 1.1200 0.3024
C10 C 0.3645(2) 0.9856(3) 0.1131(3)
C11 C 0.4022(3) 1.1318(4) 0.0867(4)
D7 D 0.4037 1.1727 0.0444
C12 C 0.4324(2) 1.1596(3) 0.1801(3)
C13 C 0.3274(2) 0.8927(3) 0.0756(3)
C14 C 0.4687(2) 1.2520(3) 0.2155(3)
C15 C 0.3697(3) 1.0445(4) 0.0544(4)
D8 D 0.3507 1.0249 -0.0093
C16 C 0.2496(3) 0.6362(4) 0.2142(4)
H1 H 0.2379 0.5889 0.1667
N1 N 0.2634(4) 0.6058(4) 0.2945(4)
C17 C 0.2983(4) 0.6687(7) 0.3802(5)
H2 H 0.3295 0.6295 0.4367
H3 H 0.3210 0.7205 0.3724
C18 C 0.2537(6) 0.7113(9) 0.3921(7)
H4 H 0.2759 0.7532 0.4484
H5 H 0.2317 0.6595 0.4001
H6 H 0.2232 0.7502 0.3360
C19 C 0.2606(5) 0.5001(6) 0.3108(6)
H7 H 0.2201 0.4729 0.2564
H8 H 0.2624 0.4917 0.3685
C20 C 0.3139(11) 0.4453(9) 0.3225(15)
H9 H 0.3108 0.3762 0.3331
H10 H 0.3540 0.4714 0.3771
H11 H 0.3118 0.4526 0.2651
O1A O 0.69141(17) 0.8571(2) 0.3791(3)
C8A C 0.6080(3) 1.0150(4) 0.2950(4)
D5A D 0.6125 0.9766 0.2543
C9A C 0.5734(3) 1.1012(4) 0.2616(4)
D6A D 0.5535 1.1200 0.1976
C10A C 0.6355(2) 0.9856(3) 0.3869(3)
C11A C 0.5978(3) 1.1318(4) 0.4133(4)
D7A D 0.5963 1.1727 0.4556
C12A C 0.5676(2) 1.1596(3) 0.3199(3)
C13A C 0.6726(2) 0.8927(3) 0.4244(3)
C14A C 0.5313(2) 1.2520(3) 0.2845(3)
C15A C 0.6303(3) 1.0445(4) 0.4456(4)
D8A D 0.6493 1.0249 0.5093
O3A O 0.67619(17) 1.6502(2) 0.5050(3)
C1A C 0.6323(2) 1.5197(3) 0.3962(3)
C2A C 0.5538(3) 1.4084(4) 0.3726(4)
D1A D 0.5218 1.3931 0.3797
C3A C 0.6466(3) 1.4547(4) 0.3530(5)
D2A D 0.6786 1.4697 0.3459
C4A C 0.6682(2) 1.6135(3) 0.4331(3)
C5A C 0.5672(2) 1.3442(3) 0.3263(3)
C6A C 0.5869(3) 1.4956(4) 0.4089(4)
D3A D 0.5784 1.5385 0.4425
C7A C 0.6148(3) 1.3667(4) 0.3193(5)
D4A D 0.6263 1.3214 0.2910
O2A O 0.68358(19) 0.8590(2) 0.4990(3)
O4A O 0.68922(19) 1.6468(3) 0.3913(3)
Zn1A Zn 0.75496(2) 0.74959(3) 0.42091(3)
O5A O 0.74932(19) 0.7242(3) 0.3053(2)
C16A C 0.7504(3) 0.6362(4) 0.2858(4)
H1A H 0.7621 0.5889 0.3333
N1A N 0.7366(4) 0.6058(4) 0.2055(4)
C17A C 0.7017(4) 0.6687(7) 0.1198(5)
H2A H 0.6705 0.6295 0.0633
H3A H 0.6790 0.7205 0.1276
C18A C 0.7463(6) 0.7113(9) 0.1079(7)
H4A H 0.7241 0.7532 0.0516
H5A H 0.7683 0.6595 0.0999
H6A H 0.7768 0.7502 0.1640
C19A C 0.7394(5) 0.5001(6) 0.1892(6)
H7A H 0.7799 0.4729 0.2436
H8A H 0.7376 0.4917 0.1315
C20A C 0.6861(11) 0.4453(9) 0.1775(15)
H9A H 0.6892 0.3762 0.1669
H10A H 0.6460 0.4714 0.1229
H11A H 0.6882 0.4526 0.2349
Zn1_2 Zn 0.24504(2) 1.74959(3) 0.07909(3)
Zn1A_2 Zn 0.75496(2) 1.74959(3) 0.42091(3)
Zn1F Zn 0.25496(2) 0.75041(3) -0.07909(3)
Zn1F_2 Zn 0.25496(2) 1.75041(3) -0.07909(3)
Zn1G Zn 0.74504(2) 0.75041(3) 0.57909(3)
Zn1G_2 Zn 0.74504(2) 1.75041(3) 0.57909(3)
O2F O 0.18358(19) 0.6410(2) -0.0010(3)
O2G O 0.81642(19) 0.6410(2) 0.5010(3)
O3F O 0.17619(17) 0.8498(2) 0.0050(3)
O3G O 0.82381(17) 0.8498(2) 0.4950(3)
O4_2 O 0.31078(19) 0.6468(3) 0.1087(3)
O4A_2 O 0.68922(19) 0.6468(3) 0.3913(3)
C21 C 0.4475(13) 0.6805(17) 0.3541(17)
O6 O 0.4441(13) 0.5998(19) 0.3990(19)
C22 C 0.4015(11) 0.9149(15) 0.3960(12)
N2 N 0.4599(11) 0.7644(15) 0.3933(15)
C23 C 0.4188(18) 0.808(2) 0.419(3)
C24 C 0.5277(11) 0.800(2) 0.4724(19)
C25 C 0.522(3) 0.912(2) 0.479(3)
C26? C 0.4064(15) 0.830(2) 0.356(2)
C27? C 0.5581(17) 0.743(2) 0.558(2)
loop_
_geom_bond_atom_site_label_1
_geom_bond_atom_site_label_2
_geom_bond_site_symmetry_1
_geom_bond_site_symmetry_2
Zn1 O1 1_555 1_555
O1 C13 1_555 1_555
O2 C13 1_555 1_555
O3 C4 1_555 1_555
O4 C4 1_555 1_555
O5 Zn1 1_555 1_555
C1 C3 1_555 1_555
C2 D1 1_555 1_555
C3 D2 1_555 1_555
C4 C1 1_555 1_555
C5 C2 1_555 1_555
C6 C1 1_555 1_555
D3 C6 1_555 1_555
C7 C3 1_555 1_555
D4 C7 1_555 1_555
C8 D5 1_555 1_555
C9 C8 1_555 1_555
D6 C9 1_555 1_555
C10 C8 1_555 1_555
C11 D7 1_555 1_555
C12 C9 1_555 1_555
C13 C10 1_555 1_555
C14 C5 1_555 1_555
C15 C10 1_555 1_555
D8 C15 1_555 1_555
C16 O5 1_555 1_555
H1 C16 1_555 1_555
N1 C16 1_555 1_555
C17 N1 1_555 1_555
H2 C17 1_555 1_555
H3 C17 1_555 1_555
C18 C17 1_555 1_555
H4 C18 1_555 1_555
H5 C18 1_555 1_555
H6 C18 1_555 1_555
C19 N1 1_555 1_555
H7 C19 1_555 1_555
H8 C19 1_555 1_555
C20 C19 1_555 1_555
H9 C20 1_555 1_555
H10 C20 1_555 1_555
H11 C20 1_555 1_555
C21 O6 1_555 1_555
C22 C23 1_555 1_555
N2 C21 1_555 1_555
C23 N2 1_555 1_555
C24 N2 1_555 1_555
C25 C24 1_555 1_555
O1A C13A 1_555 1_555
C8A D5A 1_555 1_555
C9A C8A 1_555 1_555
D6A C9A 1_555 1_555
C10A C8A 1_555 1_555
C11A D7A 1_555 1_555
C12A C9A 1_555 1_555
C13A C10A 1_555 1_555
C14A C14 1_555 1_555
C15A C10A 1_555 1_555
D8A C15A 1_555 1_555
O3A C4A 1_555 1_555
C1A C3A 1_555 1_555
C2A D1A 1_555 1_555
C3A D2A 1_555 1_555
C4A C1A 1_555 1_555
C5A C14A 1_555 1_555
C6A C1A 1_555 1_555
D3A C6A 1_555 1_555
C7A C3A 1_555 1_555
D4A C7A 1_555 1_555
O2A C13A 1_555 1_555
O4A C4A 1_555 1_555
Zn1A O1A 1_555 1_555
O5A Zn1A 1_555 1_555
C16A O5A 1_555 1_555
H1A C16A 1_555 1_555
N1A C16A 1_555 1_555
C17A N1A 1_555 1_555
H2A C17A 1_555 1_555
H3A C17A 1_555 1_555
C18A C17A 1_555 1_555
H4A C18A 1_555 1_555
H5A C18A 1_555 1_555
H6A C18A 1_555 1_555
C19A N1A 1_555 1_555
H7A C19A 1_555 1_555
H8A C19A 1_555 1_555
C20A C19A 1_555 1_555
H9A C20A 1_555 1_555
H10A C20A 1_555 1_555
H11A C20A 1_555 1_555
Zn1_2 O4 1_555 1_555
Zn1A_2 O4A 1_555 1_555
Zn1F O2 1_555 1_555
Zn1F_2 O3 1_555 1_555
Zn1G O2A 1_555 1_555
Zn1G_2 O3A 1_555 1_555
O2F Zn1 1_555 1_555
O2G Zn1A 1_555 1_555
O3F Zn1 1_555 1_555
O3G Zn1A 1_555 1_555
O4_2 Zn1 1_555 1_555
O4A_2 Zn1A 1_555 1_555
C2 C6 1_555 1_555
C5 C7 1_555 1_555
C11 C12 1_555 1_555
C11 C15 1_555 1_555
C12 C14 1_555 1_555
C11A C12A 1_555 1_555
C11A C15A 1_555 1_555
C12A C14A 1_555 1_555
C2A C5A 1_555 1_555
C2A C6A 1_555 1_555
C5A C7A 1_555 1_555

#END
