
#######################################################################
#
#                 Cambridge Crystallographic Data Centre
#                                CCDC 
#
#######################################################################
#
# If this CIF has been generated from an entry in the Cambridge 
# Structural Database, then it will include bibliographic, chemical, 
# crystal, experimental, refinement or atomic coordinate data resulting 
# from the CCDC's data processing and validation procedures.
#
#######################################################################

data_YEYKIX
_symmetry_cell_setting           orthorhombic
_symmetry_space_group_name_H-M   'C 2 2 21'
_symmetry_Int_Tables_number      20
_space_group_name_Hall           'C 2n 2'
loop_
_symmetry_equiv_pos_site_id
_symmetry_equiv_pos_as_xyz
1 x,y,z
2 -x,-y,1/2+z
3 x,-y,-z
4 -x,y,1/2-z
5 1/2+x,1/2+y,z
6 1/2-x,1/2-y,1/2+z
7 1/2+x,1/2-y,-z
8 1/2-x,1/2+y,1/2-z
_cell_length_a                   8.949(9)
_cell_length_b                   14.175(5)
_cell_length_c                   22.128(5)
_cell_angle_alpha                90
_cell_angle_beta                 90
_cell_angle_gamma                90
_cell_volume                     2806.98
loop_
_atom_site_label
_atom_site_type_symbol
_atom_site_fract_x
_atom_site_fract_y
_atom_site_fract_z
Zn1 Zn 0.30350(3) 0.28478(2) 0.647839(13)
O1 O 0.1010(2) 0.20955(14) 0.65160(9)
O2 O 0.5600(2) 0.04144(14) 0.65063(14)
O3 O 0.3524(2) 0.21229(15) 0.73428(8)
H1 H 0.2878 0.2070 0.7603
O4 O 0.1456(2) 0.37794(13) 0.69717(10)
H2 H 0.1276 0.4256 0.6775
O5 O 0.4306(2) 0.16785(14) 0.62348(9)
O6 O -0.1197(2) 0.18912(17) 0.69568(11)
N1 N 0.5915(4) 0.51620(19) 0.6452(2)
H3 H 0.6066 0.5761 0.6461
N2 N 0.4779(3) 0.37854(18) 0.65577(14)
N3 N 0.2554(3) 0.3262(2) 0.55915(12)
N4 N 0.1339(5) 0.3514(3) 0.47467(16)
H4 H 0.0613 0.3549 0.4493
C1 C 0.4793(3) 0.11075(18) 0.66274(12)
C2 C 0.4311(3) 0.12631(18) 0.72882(12)
H5 H 0.3647 0.0746 0.7408
C3 C -0.0044(3) 0.23603(19) 0.68570(13)
C4 C 0.0077(3) 0.33402(19) 0.71498(13)
H6 H -0.0739 0.3726 0.6988
C5 C 0.4649(4) 0.4715(2) 0.66228(18)
H7 H 0.3798 0.5017 0.6767
C6 C 0.6904(4) 0.4500(3) 0.6266(2)
H8 H 0.7865 0.4604 0.6122
C7 C 0.6205(4) 0.3647(3) 0.6334(2)
H9 H 0.6626 0.3063 0.6244
C8 C 0.1262(5) 0.3201(4) 0.53159(19)
H10 H 0.0396 0.2969 0.5495
C9 C 0.3494(6) 0.3597(6) 0.5169(2)
H11 H 0.4511 0.3703 0.5225
C10 C 0.2733(7) 0.3758(5) 0.4647(2)
H12 H 0.3125 0.3996 0.4289
Zn1C Zn -0.30350(3) 0.28478(2) 0.852161(13)
Zn1C_2 Zn 0.69650(3) 0.28478(2) 0.852161(13)
O1C O -0.1010(2) 0.20955(14) 0.84840(9)
O2C O 0.4400(2) 0.04144(14) 0.84937(14)
O3C O 0.6476(2) 0.21229(15) 0.76572(8)
O3C_2 O -0.3524(2) 0.21229(15) 0.76572(8)
H1C H 0.7122 0.2070 0.7397
H1C_2 H -0.2878 0.2070 0.7397
O4C O -0.1456(2) 0.37794(13) 0.80283(10)
H2C H -0.1276 0.4256 0.8225
O5C O 0.5694(2) 0.16785(14) 0.87652(9)
O5C_2 O -0.4306(2) 0.16785(14) 0.87652(9)
O6C O 0.1197(2) 0.18912(17) 0.80432(11)
N1C N -0.5915(4) 0.51620(19) 0.8548(2)
H3C H -0.6066 0.5761 0.8539
N2C N -0.4779(3) 0.37854(18) 0.84423(14)
N3C N -0.2554(3) 0.3262(2) 0.94085(12)
N4C N -0.1339(5) 0.3514(3) 1.02533(16)
H4C H -0.0613 0.3549 1.0507
C1C C 0.5207(3) 0.11075(18) 0.83726(12)
C2C C 0.5689(3) 0.12631(18) 0.77118(12)
H5C H 0.6353 0.0746 0.7592
C3C C 0.0044(3) 0.23603(19) 0.81430(13)
C4C C -0.0077(3) 0.33402(19) 0.78502(13)
H6C H 0.0739 0.3726 0.8012
C5C C -0.4649(4) 0.4715(2) 0.83772(18)
H7C H -0.3798 0.5017 0.8233
C6C C -0.6904(4) 0.4500(3) 0.8734(2)
H8C H -0.7865 0.4604 0.8878
C7C C -0.6205(4) 0.3647(3) 0.8666(2)
H9C H -0.6626 0.3063 0.8756
C8C C -0.1262(5) 0.3201(4) 0.96841(19)
H10C H -0.0396 0.2969 0.9505
C9C C -0.3494(6) 0.3597(6) 0.9831(2)
H11C H -0.4511 0.3703 0.9775
C10C C -0.2733(7) 0.3758(5) 1.0353(2)
H12C H -0.3125 0.3996 1.0711
loop_
_geom_bond_atom_site_label_1
_geom_bond_atom_site_label_2
_geom_bond_site_symmetry_1
_geom_bond_site_symmetry_2
Zn1 O1 1_555 1_555
O1 C3 1_555 1_555
O2 C1 1_555 1_555
O3 Zn1 1_555 1_555
H1 O3 1_555 1_555
O4 Zn1 1_555 1_555
H2 O4 1_555 1_555
O5 Zn1 1_555 1_555
O6 C3 1_555 1_555
N1 H3 1_555 1_555
N2 Zn1 1_555 1_555
N3 Zn1 1_555 1_555
N4 H4 1_555 1_555
C1 O5 1_555 1_555
C2 O3 1_555 1_555
H5 C2 1_555 1_555
C3 C4 1_555 1_555
C4 O4 1_555 1_555
H6 C4 1_555 1_555
C5 N1 1_555 1_555
H7 C5 1_555 1_555
C6 N1 1_555 1_555
H8 C6 1_555 1_555
C7 N2 1_555 1_555
H9 C7 1_555 1_555
C8 N3 1_555 1_555
H10 C8 1_555 1_555
C9 N3 1_555 1_555
H11 C9 1_555 1_555
C10 N4 1_555 1_555
H12 C10 1_555 1_555
Zn1C O1C 1_555 1_555
Zn1C_2 O3C 1_555 1_555
O1C C3C 1_555 1_555
O2C C1C 1_555 1_555
O3C H1C 1_555 1_555
O3C_2 Zn1C 1_555 1_555
H1C_2 O3C_2 1_555 1_555
O4C Zn1C 1_555 1_555
H2C O4C 1_555 1_555
O5C Zn1C_2 1_555 1_555
O5C_2 Zn1C 1_555 1_555
O6C C3C 1_555 1_555
N1C H3C 1_555 1_555
N2C Zn1C 1_555 1_555
N3C Zn1C 1_555 1_555
N4C H4C 1_555 1_555
C1C O5C 1_555 1_555
C2C C2 1_555 1_555
H5C C2C 1_555 1_555
C3C C4C 1_555 1_555
C4C C4 1_555 1_555
H6C C4C 1_555 1_555
C5C N1C 1_555 1_555
H7C C5C 1_555 1_555
C6C N1C 1_555 1_555
H8C C6C 1_555 1_555
C7C N2C 1_555 1_555
H9C C7C 1_555 1_555
C8C N3C 1_555 1_555
H10C C8C 1_555 1_555
C9C N3C 1_555 1_555
H11C C9C 1_555 1_555
C10C N4C 1_555 1_555
H12C C10C 1_555 1_555
N2 C5 1_555 1_555
N4 C8 1_555 1_555
C1 C2 1_555 1_555
C6 C7 1_555 1_555
C9 C10 1_555 1_555
O3C C2C 1_555 1_555
O4C C4C 1_555 1_555
N2C C5C 1_555 1_555
N4C C8C 1_555 1_555
C1C C2C 1_555 1_555
C6C C7C 1_555 1_555
C9C C10C 1_555 1_555

#END
