
#######################################################################
#
#                 Cambridge Crystallographic Data Centre
#                                CCDC 
#
#######################################################################
#
# If this CIF has been generated from an entry in the Cambridge 
# Structural Database, then it will include bibliographic, chemical, 
# crystal, experimental, refinement or atomic coordinate data resulting 
# from the CCDC's data processing and validation procedures.
#
#######################################################################

data_YEZFOZ
_symmetry_cell_setting           monoclinic
_symmetry_space_group_name_H-M   'C 2/c'
_symmetry_Int_Tables_number      15
_space_group_name_Hall           '-C 2yn'
loop_
_symmetry_equiv_pos_site_id
_symmetry_equiv_pos_as_xyz
1 x,y,z
2 1/2+x,1/2+y,z
3 -x,y,1/2-z
4 1/2-x,1/2+y,1/2-z
5 -x,-y,-z
6 1/2-x,1/2-y,-z
7 x,-y,1/2+z
8 1/2+x,1/2-y,1/2+z
_cell_length_a                   35.529(4)
_cell_length_b                   18.5537(18)
_cell_length_c                   16.2503(16)
_cell_angle_alpha                90
_cell_angle_beta                 103.7330(10)
_cell_angle_gamma                90
_cell_volume                     10405.9
loop_
_atom_site_label
_atom_site_type_symbol
_atom_site_fract_x
_atom_site_fract_y
_atom_site_fract_z
C1 C 0.46843(11) 1.0548(2) 1.1440(2)
C2 C 0.45443(11) 1.0945(2) 0.8843(2)
C3 C 0.37367(11) 1.0256(2) 0.9026(2)
C4 C 0.26405(11) 0.9711(2) 0.6927(3)
C5 C 0.23522(13) 0.9915(3) 0.9296(3)
C6 C 0.15747(11) 0.9848(2) 1.0257(2)
C7 C 0.02747(13) 0.8855(3) 0.8619(3)
C8 C 0.04871(11) 0.9455(2) 1.1226(2)
Cu1 Cu 0.5000 1.10808(5) 0.7500
Cu2 Cu 0.5000 1.05262(5) 1.2500
Cu3 Cu 0.423370(15) 1.05857(3) 0.95881(3)
Cu4 Cu 0.291030(15) 0.98472(3) 0.80697(3)
Cu5 Cu 0.208590(15) 1.00205(3) 1.01605(3)
Cu6 Cu 0.075720(15) 0.93806(3) 1.03673(3)
Cu7 Cu 0.0000 0.95372(5) 1.2500
Cu8 Cu 0.0000 0.88273(5) 0.7500
N1 N 0.47181(14) 1.1053(3) 0.8359(3)
N2 N 0.45039(12) 1.0571(2) 1.0756(3)
N3 N 0.34305(12) 1.0076(2) 0.8659(2)
N4 N 0.25516(12) 0.9851(2) 0.8831(2)
N5 N 0.24370(10) 0.97124(19) 0.6253(2)
N6 N 0.12651(12) 0.9690(2) 1.0319(2)
N7 N 0.04503(11) 0.8969(2) 0.9300(3)
N8 N 0.03084(12) 0.9500(2) 1.1733(3)
C1B C 0.53157(11) 1.0548(2) 0.3560(2)
C1B_2 C 0.53157(11) 1.0548(2) 1.3560(2)
C2B C 0.54557(11) 1.0945(2) 0.6157(2)
C3B C 0.62633(11) 1.0256(2) 0.5974(2)
C4B C 0.73595(11) 0.9711(2) 0.8073(3)
C5B C 0.76478(13) 0.9915(3) 0.5704(3)
C6B C 0.84253(11) 0.9848(2) 0.4743(2)
C7B C 0.97253(13) 0.8855(3) 0.6381(3)
C7B_2 C -0.02747(13) 0.8855(3) 0.6381(3)
C8B C 0.95129(11) 0.9455(2) 0.3774(2)
Cu2_2 Cu 0.5000 1.05262(5) 0.2500
Cu3B Cu 0.576630(15) 1.05857(3) 0.54119(3)
Cu4B Cu 0.708970(15) 0.98472(3) 0.69303(3)
Cu5B Cu 0.791410(15) 1.00205(3) 0.48395(3)
Cu5F Cu 0.208590(15) 0.99795(3) 0.51605(3)
Cu5D Cu 0.791410(15) 0.99795(3) 0.98395(3)
Cu6B Cu 0.924280(15) 0.93806(3) 0.46327(3)
Cu7_2 Cu 1.0000 0.95372(5) 0.2500
Cu8_2 Cu 1.0000 0.88273(5) 0.7500
N1B N 0.52819(14) 1.1053(3) 0.6641(3)
N2B N 0.54961(12) 1.0571(2) 0.4244(3)
N3B N 0.65695(12) 1.0076(2) 0.6341(2)
N4B N 0.74484(12) 0.9851(2) 0.6169(2)
N5B N 0.75630(10) 0.97124(19) 0.8747(2)
N5F N 0.24370(10) 1.02876(19) 1.1253(2)
N5D N 0.75630(10) 1.02876(19) 0.3747(2)
N6B N 0.87349(12) 0.9690(2) 0.4681(2)
N7B N 0.95497(11) 0.8969(2) 0.5700(3)
N8B N 0.96916(12) 0.9500(2) 0.3267(3)
N8B_2 N -0.03084(12) 0.9500(2) 1.3267(3)
C9 C 0.42588(14) 0.7462(2) 0.5671(3)
H1 H 0.4233 0.7972 0.5648
C10 C 0.44951(14) 0.7136(3) 0.5218(3)
H2 H 0.4624 0.7414 0.4876
C11 C 0.45399(13) 0.6407(3) 0.5270(3)
H3 H 0.4706 0.6170 0.4976
C12 C 0.43409(12) 0.6016(2) 0.5755(3)
H4 H 0.4369 0.5507 0.5796
C13 C 0.41011(10) 0.63679(19) 0.6178(2)
C14 C 0.38590(10) 0.59953(18) 0.6676(2)
C15 C 0.38634(10) 0.52605(18) 0.6815(2)
H5 H 0.4030 0.4959 0.6589
C16 C 0.36219(10) 0.49631(18) 0.7289(2)
C17 C 0.36291(10) 0.41859(19) 0.7483(2)
C18 C 0.39785(12) 0.3810(2) 0.7687(2)
H6 H 0.4214 0.4054 0.7690
C19 C 0.39848(13) 0.3083(2) 0.7885(3)
H7 H 0.4225 0.2835 0.8020
C20 C 0.36485(12) 0.2713(2) 0.7889(3)
C21 C 0.36512(15) 0.1925(2) 0.8107(3)
H8 H 0.3896 0.1709 0.8054
H9 H 0.3435 0.1683 0.7718
H10 H 0.3624 0.1870 0.8690
C22 C 0.33026(13) 0.3089(2) 0.7679(3)
H11 H 0.3067 0.2841 0.7664
C23 C 0.32904(12) 0.3815(2) 0.7490(2)
H12 H 0.3049 0.4063 0.7364
C24 C 0.33706(10) 0.54210(18) 0.7580(2)
H13 H 0.3193 0.5231 0.7879
C25 C 0.33811(10) 0.61560(18) 0.7431(2)
C26 C 0.31368(10) 0.66913(18) 0.7746(2)
C27 C 0.28631(11) 0.6503(2) 0.8181(2)
H14 H 0.2818 0.6011 0.8291
C28 C 0.26536(13) 0.7050(2) 0.8458(3)
H15 H 0.2462 0.6934 0.8756
C29 C 0.27252(13) 0.7756(2) 0.8299(3)
H16 H 0.2589 0.8135 0.8494
C30 C 0.29973(12) 0.7899(2) 0.7851(3)
H17 H 0.3045 0.8388 0.7731
C31 C 0.30396(13) 0.7002(2) 0.5110(3)
H18 H 0.3081 0.6522 0.5314
C32 C 0.27984(12) 0.7120(2) 0.4323(3)
H19 H 0.2678 0.6728 0.3985
C33 C 0.27364(12) 0.7815(2) 0.4039(3)
H20 H 0.2568 0.7910 0.3502
C34 C 0.29191(11) 0.8380(2) 0.4533(2)
H21 H 0.2878 0.8864 0.4342
C35 C 0.31628(10) 0.82228(19) 0.5312(2)
C36 C 0.33822(10) 0.87818(18) 0.5883(2)
C37 C 0.33622(10) 0.95102(18) 0.5714(2)
H22 H 0.3188 0.9689 0.5220
C38 C 0.36010(10) 0.99852(18) 0.6276(2)
C39 C 0.35940(11) 1.07608(19) 0.6075(2)
C40 C 0.32502(12) 1.11096(19) 0.5701(2)
H23 H 0.3013 1.0849 0.5581
C41 C 0.32508(13) 1.1832(2) 0.5504(3)
H24 H 0.3012 1.2061 0.5254
C42 C 0.35881(14) 1.2234(2) 0.5659(3)
C43 C 0.35822(16) 1.3017(3) 0.5421(3)
H25 H 0.3805 1.3262 0.5784
H26 H 0.3342 1.3238 0.5495
H27 H 0.3596 1.3061 0.4827
C44 C 0.39310(14) 1.1883(2) 0.6033(3)
H28 H 0.4167 1.2146 0.6151
C45 C 0.39362(12) 1.1157(2) 0.6238(3)
H29 H 0.4175 1.0929 0.6492
C46 C 0.38414(10) 0.97008(18) 0.7004(2)
H30 H 0.4004 1.0010 0.7402
C47 C 0.38437(10) 0.89663(18) 0.7146(2)
C48 C 0.40872(10) 0.85970(19) 0.7902(2)
C49 C 0.43358(11) 0.8951(2) 0.8565(2)
H31 H 0.4369 0.9459 0.8545
C50 C 0.45350(13) 0.8557(3) 0.9257(3)
H32 H 0.4707 0.8790 0.9718
C51 C 0.44795(13) 0.7825(3) 0.9263(3)
H33 H 0.4606 0.7544 0.9737
C52 C 0.42372(13) 0.7502(2) 0.8571(3)
H34 H 0.4208 0.6993 0.8568
Cu9 Cu 0.363336(13) 0.74823(2) 0.68016(3)
N9 N 0.40653(9) 0.70890(17) 0.6143(2)
N10 N 0.36239(8) 0.64343(15) 0.69974(18)
N11 N 0.32011(9) 0.73822(15) 0.75716(19)
N12 N 0.32181(9) 0.75418(15) 0.55983(19)
N13 N 0.36216(8) 0.85185(15) 0.65870(18)
N14 N 0.40430(9) 0.78767(17) 0.7909(2)
loop_
_geom_bond_atom_site_label_1
_geom_bond_atom_site_label_2
_geom_bond_site_symmetry_1
_geom_bond_site_symmetry_2
C1 Cu2 1_555 1_555
C2 Cu3 1_555 1_555
C3 Cu3 1_555 1_555
C4 Cu4 1_555 1_555
C5 Cu5 1_555 1_555
C6 Cu5 1_555 1_555
C7 Cu8 1_555 1_555
C8 Cu6 1_555 1_555
C9 H1 1_555 1_555
C10 C9 1_555 1_555
H2 C10 1_555 1_555
C11 C10 1_555 1_555
H3 C11 1_555 1_555
C12 C11 1_555 1_555
H4 C12 1_555 1_555
C13 C12 1_555 1_555
C14 C13 1_555 1_555
C15 C14 1_555 1_555
H5 C15 1_555 1_555
C16 C15 1_555 1_555
C17 C16 1_555 1_555
C18 C17 1_555 1_555
H6 C18 1_555 1_555
C19 C18 1_555 1_555
H7 C19 1_555 1_555
C20 C19 1_555 1_555
C21 C20 1_555 1_555
H8 C21 1_555 1_555
H9 C21 1_555 1_555
H10 C21 1_555 1_555
C22 C20 1_555 1_555
H11 C22 1_555 1_555
C23 C17 1_555 1_555
H12 C23 1_555 1_555
C24 C16 1_555 1_555
H13 C24 1_555 1_555
C25 C24 1_555 1_555
C26 C25 1_555 1_555
C27 C26 1_555 1_555
H14 C27 1_555 1_555
C28 C27 1_555 1_555
H15 C28 1_555 1_555
C29 C28 1_555 1_555
H16 C29 1_555 1_555
C30 C29 1_555 1_555
H17 C30 1_555 1_555
C31 H18 1_555 1_555
C32 C31 1_555 1_555
H19 C32 1_555 1_555
C33 C32 1_555 1_555
H20 C33 1_555 1_555
C34 C33 1_555 1_555
H21 C34 1_555 1_555
C35 C34 1_555 1_555
C36 C35 1_555 1_555
C37 C36 1_555 1_555
H22 C37 1_555 1_555
C38 C37 1_555 1_555
C39 C38 1_555 1_555
C40 C39 1_555 1_555
H23 C40 1_555 1_555
C41 C40 1_555 1_555
H24 C41 1_555 1_555
C42 C41 1_555 1_555
C43 C42 1_555 1_555
H25 C43 1_555 1_555
H26 C43 1_555 1_555
H27 C43 1_555 1_555
C44 C42 1_555 1_555
H28 C44 1_555 1_555
C45 C39 1_555 1_555
H29 C45 1_555 1_555
C46 C38 1_555 1_555
H30 C46 1_555 1_555
C47 C46 1_555 1_555
C48 C47 1_555 1_555
C49 C48 1_555 1_555
H31 C49 1_555 1_555
C50 C49 1_555 1_555
H32 C50 1_555 1_555
C51 C50 1_555 1_555
H33 C51 1_555 1_555
C52 C51 1_555 1_555
H34 C52 1_555 1_555
Cu1 N1 1_555 1_555
Cu2 C1B_2 1_555 1_555
Cu3 N2 1_555 1_555
Cu4 N3 1_555 1_555
Cu5 N5F 1_555 1_555
Cu6 N6 1_555 1_555
Cu7 N8 1_555 1_555
Cu8 C7B_2 1_555 1_555
Cu9 N9 1_555 1_555
N1 C2 1_555 1_555
N2 C1 1_555 1_555
N3 C3 1_555 1_555
N4 C5 1_555 1_555
N5 C4 1_555 1_555
N6 C6 1_555 1_555
N7 C7 1_555 1_555
N8 C8 1_555 1_555
N9 C9 1_555 1_555
N10 C14 1_555 1_555
N11 C26 1_555 1_555
N12 C31 1_555 1_555
N13 C36 1_555 1_555
N14 C48 1_555 1_555
C1B Cu2_2 1_555 1_555
C2B Cu3B 1_555 1_555
C3B Cu3B 1_555 1_555
C4B Cu4B 1_555 1_555
C5B Cu5B 1_555 1_555
C6B Cu5B 1_555 1_555
C7B Cu8_2 1_555 1_555
C8B Cu6B 1_555 1_555
Cu3B N2B 1_555 1_555
Cu4B N3B 1_555 1_555
Cu5B N5D 1_555 1_555
Cu5F N5 1_555 1_555
Cu5D N5B 1_555 1_555
Cu6B N6B 1_555 1_555
Cu7_2 N8B 1_555 1_555
N1B Cu1 1_555 1_555
N2B C1B 1_555 1_555
N3B C3B 1_555 1_555
N4B C5B 1_555 1_555
N5B C4B 1_555 1_555
N6B C6B 1_555 1_555
N7B C7B 1_555 1_555
N8B C8B 1_555 1_555
N8B_2 Cu7 1_555 1_555
C13 N9 1_555 1_555
C22 C23 1_555 1_555
C25 N10 1_555 1_555
C30 N11 1_555 1_555
C35 N12 1_555 1_555
C44 C45 1_555 1_555
C47 N13 1_555 1_555
C52 N14 1_555 1_555
Cu4 N4 1_555 1_555
Cu6 N7 1_555 1_555
Cu9 N10 1_555 1_555
Cu9 N11 1_555 1_555
Cu9 N12 1_555 1_555
Cu9 N13 1_555 1_555
Cu9 N14 1_555 1_555
C2B N1B 1_555 1_555
Cu4B N4B 1_555 1_555
Cu6B N7B 1_555 1_555

#END
