
#######################################################################
#
#                 Cambridge Crystallographic Data Centre
#                                CCDC 
#
#######################################################################
#
# If this CIF has been generated from an entry in the Cambridge 
# Structural Database, then it will include bibliographic, chemical, 
# crystal, experimental, refinement or atomic coordinate data resulting 
# from the CCDC's data processing and validation procedures.
#
#######################################################################

data_YEZHIV
_symmetry_cell_setting           triclinic
_symmetry_space_group_name_H-M   'P -1'
_symmetry_Int_Tables_number      2
_space_group_name_Hall           '-P 1'
loop_
_symmetry_equiv_pos_site_id
_symmetry_equiv_pos_as_xyz
1 x,y,z
2 -x,-y,-z
_cell_length_a                   9.676(3)
_cell_length_b                   10.038(3)
_cell_length_c                   10.710(3)
_cell_angle_alpha                77.022(4)
_cell_angle_beta                 76.498(4)
_cell_angle_gamma                84.421(4)
_cell_volume                     984.549
loop_
_atom_site_label
_atom_site_type_symbol
_atom_site_fract_x
_atom_site_fract_y
_atom_site_fract_z
Cu1 Cu 0.04862(3) 0.06089(3) 0.85004(3)
Cu2 Cu 0.48593(3) -0.07065(3) 0.64713(3)
N1 N 0.0576(2) 0.25535(19) 0.75011(18)
N2 N -0.0451(2) 0.4814(2) 0.6935(2)
N3 N -0.1843(2) 0.3063(2) 0.8131(3)
H1 H -0.255(2) 0.365(2) 0.812(3)
H2 H -0.193(3) 0.2225(13) 0.849(3)
N4 N 0.4643(2) -0.26505(19) 0.74497(19)
N5 N 0.5624(2) -0.4906(2) 0.8081(2)
N6 N 0.7049(3) -0.3179(2) 0.6883(3)
H3 H 0.7767(19) -0.375(2) 0.689(3)
H4 H 0.721(3) -0.2359(15) 0.649(3)
N7 N 0.0238(2) -0.1185(2) 0.97640(19)
N8 N -0.0097(2) -0.2218(2) 0.9515(2)
N9 N -0.0363(3) -0.3201(3) 0.9291(3)
N10 N 0.1889(2) -0.0129(2) 0.70746(19)
N11 N 0.1777(2) 0.01757(19) 0.5957(2)
N12 N 0.1745(3) 0.0461(3) 0.4863(2)
N13 N 0.5081(2) 0.1129(2) 0.5265(2)
N14 N 0.5316(2) 0.2191(2) 0.5524(2)
N15 N 0.5500(3) 0.3187(3) 0.5769(3)
N16 N 0.5139(3) -0.0038(2) 0.7945(2)
N17 N 0.4174(3) -0.0129(2) 0.8880(2)
N18 N 0.3270(3) -0.0206(4) 0.9792(3)
O1 O -0.1456(2) 0.0143(2) 0.7650(2)
H5 H -0.2271(18) 0.005(4) 0.812(3)
H6 H -0.144(4) 0.014(4) 0.6862(14)
C1 C -0.0554(2) 0.3474(2) 0.7516(2)
C2 C 0.0814(3) 0.5275(2) 0.6325(2)
C3 C 0.2026(3) 0.4392(3) 0.6260(3)
H7 H 0.2920 0.4706 0.5822
C4 C 0.1848(3) 0.3054(3) 0.6860(3)
H8 H 0.2646 0.2456 0.6826
C5 C 0.0884(3) 0.6767(3) 0.5728(3)
H9 H 0.0052 0.7076 0.5381
H10 H 0.1718 0.6922 0.5033
H11 H 0.0926 0.7263 0.6386
C6 C 0.5753(3) -0.3576(2) 0.7472(2)
C7 C 0.4345(3) -0.5332(2) 0.8699(2)
C8 C 0.3152(3) -0.4420(3) 0.8762(3)
H12 H 0.2254 -0.4707 0.9220
C9 C 0.3362(3) -0.3096(3) 0.8121(3)
H13 H 0.2583 -0.2474 0.8151
C10 C 0.4222(3) -0.6817(3) 0.9320(3)
H14 H 0.4960 -0.7112 0.9798
H15 H 0.3310 -0.6957 0.9910
H16 H 0.4316 -0.7336 0.8651
Cu1A Cu -0.04862(3) -0.06089(3) 1.14996(3)
Cu2A Cu 0.51407(3) 0.07065(3) 0.35287(3)
N7A N -0.0238(2) 0.1185(2) 1.02360(19)
N13A N 0.4919(2) -0.1129(2) 0.4735(2)
loop_
_geom_bond_atom_site_label_1
_geom_bond_atom_site_label_2
_geom_bond_site_symmetry_1
_geom_bond_site_symmetry_2
Cu1 N1 1_555 1_555
Cu2 N4 1_555 1_555
N1 C1 1_555 1_555
N2 C1 1_555 1_555
N3 H1 1_555 1_555
H2 N3 1_555 1_555
N4 C6 1_555 1_555
N5 C6 1_555 1_555
N6 H3 1_555 1_555
H4 N6 1_555 1_555
N7 Cu1 1_555 1_555
N8 N7 1_555 1_555
N9 N8 1_555 1_555
N10 Cu1 1_555 1_555
N11 N10 1_555 1_555
N12 N11 1_555 1_555
N13 Cu2 1_555 1_555
N14 N13 1_555 1_555
N15 N14 1_555 1_555
N16 Cu2 1_555 1_555
N17 N16 1_555 1_555
N18 N17 1_555 1_555
O1 Cu1 1_555 1_555
H5 O1 1_555 1_555
H6 O1 1_555 1_555
C1 N3 1_555 1_555
C2 N2 1_555 1_555
C3 C2 1_555 1_555
H7 C3 1_555 1_555
C4 N1 1_555 1_555
H8 C4 1_555 1_555
C5 C2 1_555 1_555
H9 C5 1_555 1_555
H10 C5 1_555 1_555
H11 C5 1_555 1_555
C6 N6 1_555 1_555
C7 N5 1_555 1_555
C8 C7 1_555 1_555
H12 C8 1_555 1_555
C9 N4 1_555 1_555
H13 C9 1_555 1_555
C10 C7 1_555 1_555
H14 C10 1_555 1_555
H15 C10 1_555 1_555
H16 C10 1_555 1_555
Cu1A N7 1_555 1_555
Cu2A N13 1_555 1_555
N7A Cu1 1_555 1_555
N13A Cu2 1_555 1_555
Cu2 N10 1_555 1_555
C3 C4 1_555 1_555
C8 C9 1_555 1_555
Cu1A N7A 1_555 1_555
Cu2A N13A 1_555 1_555

#END
