
#######################################################################
#
#                 Cambridge Crystallographic Data Centre
#                                CCDC 
#
#######################################################################
#
# If this CIF has been generated from an entry in the Cambridge 
# Structural Database, then it will include bibliographic, chemical, 
# crystal, experimental, refinement or atomic coordinate data resulting 
# from the CCDC's data processing and validation procedures.
#
#######################################################################

data_YIBKUQ
_symmetry_cell_setting           monoclinic
_symmetry_space_group_name_H-M   'P 21/c'
_symmetry_Int_Tables_number      14
_space_group_name_Hall           '-P 2ybc'
loop_
_symmetry_equiv_pos_site_id
_symmetry_equiv_pos_as_xyz
1 x,y,z
2 -x,1/2+y,1/2-z
3 -x,-y,-z
4 x,1/2-y,1/2+z
_cell_length_a                   16.8549(7)
_cell_length_b                   25.3171(11)
_cell_length_c                   17.1689(7)
_cell_angle_alpha                90
_cell_angle_beta                 107.9690(10)
_cell_angle_gamma                90
_cell_volume                     6968.92
loop_
_atom_site_label
_atom_site_type_symbol
_atom_site_fract_x
_atom_site_fract_y
_atom_site_fract_z
C1 C 0.4432(5) 0.6232(3) 0.1138(5)
C2 C 0.4255(5) 0.6247(4) 0.0292(4)
H1 H 0.3706 0.6285 -0.0043
C3 C 0.4897(6) 0.6206(4) -0.0054(4)
H2 H 0.4778 0.6216 -0.0620
C4 C 0.5716(5) 0.6149(4) 0.0445(5)
H3 H 0.6145 0.6121 0.0214
C5 C 0.5893(4) 0.6134(4) 0.1291(5)
H4 H 0.6441 0.6096 0.1625
C6 C 0.5251(5) 0.6175(3) 0.1637(4)
H5 H 0.5369 0.6165 0.2203
C7 C 0.4185(7) 0.3318(4) 0.2117(5)
C8 C 0.3746(6) 0.2905(4) 0.2324(7)
H6 H 0.3176 0.2871 0.2064
C9 C 0.4159(8) 0.2543(4) 0.2919(8)
H7 H 0.3865 0.2266 0.3058
C10 C 0.5010(8) 0.2594(4) 0.3307(7)
H8 H 0.5287 0.2351 0.3706
C11 C 0.5450(6) 0.3007(5) 0.3100(6)
H9 H 0.6020 0.3041 0.3360
C12 C 0.5037(7) 0.3369(4) 0.2505(6)
H10 H 0.5330 0.3646 0.2366
C13 C 0.0664(4) 0.4663(3) 0.4147(4)
C14 C 0.0024(4) 0.4377(3) 0.3608(4)
H11 H -0.0140 0.4452 0.3051
C15 C -0.0372(4) 0.3977(3) 0.3902(6)
H12 H -0.0801 0.3785 0.3542
C16 C -0.0127(6) 0.3864(3) 0.4735(6)
H13 H -0.0392 0.3596 0.4932
C17 C 0.0513(6) 0.4151(4) 0.5274(4)
H14 H 0.0677 0.4075 0.5831
C18 C 0.0909(5) 0.4550(3) 0.4980(4)
H15 H 0.1338 0.4742 0.5340
C19 C 0.1222(4) 0.4598(3) -0.0946(4)
C20 C 0.0892(4) 0.4730(3) -0.1769(4)
H16 H 0.0586 0.5040 -0.1920
C21 C 0.1019(5) 0.4399(4) -0.2366(3)
H17 H 0.0799 0.4488 -0.2916
C22 C 0.1476(5) 0.3936(3) -0.2140(4)
H18 H 0.1561 0.3715 -0.2539
C23 C 0.1806(4) 0.3804(2) -0.1317(5)
H19 H 0.2111 0.3494 -0.1166
C24 C 0.1678(4) 0.4135(3) -0.0720(3)
H20 H 0.1899 0.4046 -0.0170
C25 C 0.5867(7) 0.4924(4) 0.2828(7)
C26 C 0.5720(6) 0.4856(4) 0.1992(6)
H21 H 0.5176 0.4840 0.1641
C27 C 0.6387(9) 0.4812(5) 0.1680(8)
H22 H 0.6288 0.4766 0.1121
C28 C 0.7200(7) 0.4835(6) 0.2204(12)
H23 H 0.7646 0.4806 0.1996
C29 C 0.7347(6) 0.4903(8) 0.3040(11)
H24 H 0.7892 0.4919 0.3391
C30 C 0.6681(8) 0.4947(7) 0.3352(7)
H25 H 0.6779 0.4993 0.3912
C31 C 0.2716(4) 0.3392(2) 0.4259(4)
C32 C 0.1896(4) 0.3395(2) 0.4273(4)
H26 H 0.1571 0.3696 0.4115
C33 C 0.1562(4) 0.2948(3) 0.4523(5)
H27 H 0.1013 0.2950 0.4532
C34 C 0.2048(5) 0.2497(2) 0.4759(5)
H28 H 0.1825 0.2198 0.4926
C35 C 0.2869(5) 0.2494(2) 0.4745(5)
H29 H 0.3194 0.2192 0.4903
C36 C 0.3203(3) 0.2941(3) 0.4496(5)
H30 H 0.3751 0.2939 0.4486
C37 C 0.1023(4) 0.3493(2) 0.1497(4)
C38 C 0.0493(4) 0.3295(3) 0.0766(4)
H31 H 0.0206 0.3526 0.0354
C39 C 0.0393(4) 0.2753(3) 0.0652(4)
H32 H 0.0039 0.2620 0.0162
C40 C 0.0823(5) 0.2408(2) 0.1268(5)
H33 H 0.0756 0.2045 0.1191
C41 C 0.1352(4) 0.2606(3) 0.1999(4)
H34 H 0.1639 0.2376 0.2412
C42 C 0.1452(4) 0.3148(3) 0.2114(3)
H35 H 0.1807 0.3281 0.2603
C43 C 0.2647(5) 0.6618(3) 0.4165(5)
C44 C 0.1787(5) 0.6653(4) 0.3818(5)
H36 H 0.1502 0.6398 0.3448
C45 C 0.1354(5) 0.7069(4) 0.4026(7)
H37 H 0.0778 0.7093 0.3794
C46 C 0.1781(8) 0.7451(4) 0.4580(7)
H38 H 0.1491 0.7729 0.4719
C47 C 0.2641(8) 0.7415(4) 0.4927(6)
H39 H 0.2927 0.7670 0.5298
C48 C 0.3074(5) 0.6999(4) 0.4719(6)
H40 H 0.3650 0.6976 0.4951
C49 C 0.1081(5) 0.6523(3) 0.1639(5)
C50 C 0.1653(5) 0.6920(4) 0.1650(7)
H41 H 0.2165 0.6837 0.1581
C51 C 0.1460(6) 0.7443(3) 0.1763(8)
H42 H 0.1842 0.7709 0.1770
C52 C 0.0695(7) 0.7568(3) 0.1866(7)
H43 H 0.0566 0.7917 0.1941
C53 C 0.0124(5) 0.7170(4) 0.1855(7)
H44 H -0.0388 0.7253 0.1924
C54 C 0.0316(5) 0.6647(3) 0.1742(6)
H45 H -0.0066 0.6381 0.1735
C55 C 0.3751(7) 0.6309(5) 0.1547(7)
H46 H 0.3268 0.6454 0.1136
H47 H 0.3947 0.6579 0.1963
C56 C 0.3695(7) 0.3715(5) 0.1534(7)
H48 H 0.3221 0.3543 0.1149
H49 H 0.4039 0.3862 0.1226
C57 C 0.1050(6) 0.5119(4) 0.3834(7)
H50 H 0.1314 0.5342 0.4301
H51 H 0.0596 0.5322 0.3475
C58 C 0.1139(6) 0.4957(5) -0.0304(6)
H52 H 0.1258 0.5311 -0.0456
H53 H 0.1578 0.4868 0.0195
C59 C 0.3401(6) 0.5011(5) 0.0578(5)
H54 H 0.3537 0.5359 0.0438
H55 H 0.2841 0.4925 0.0257
H56 H 0.3780 0.4760 0.0469
C60 C -0.4697(16) 0.2747(12) -0.3760(17)
H57 H -0.4685 0.2454 -0.3401
H58 H -0.4952 0.2638 -0.4318
H59 H -0.4138 0.2864 -0.3690
C61 C -0.6525(19) 0.3516(16) -0.358(2)
H60 H -0.7035 0.3407 -0.3490
H61 H -0.6340 0.3245 -0.3876
H62 H -0.6107 0.3577 -0.3067
O1 O 0.0553(4) 0.5655(3) 0.0800(4)
O2 O 0.1322(4) 0.5545(3) 0.2325(4)
O3 O 0.2116(4) 0.5783(3) 0.1342(4)
O4 O 0.5314(4) 0.4986(4) 0.4148(4)
O5 O 0.4481(4) 0.4497(3) 0.2915(4)
O6 O 0.4546(4) 0.5499(3) 0.2912(4)
O7 O 0.2727(4) 0.5548(3) 0.3997(4)
O8 O 0.3158(4) 0.6142(3) 0.3027(4)
O9 O 0.4079(4) 0.6041(3) 0.4508(4)
O10 O 0.3077(4) 0.3871(3) 0.3044(4)
O11 O 0.2681(4) 0.4449(3) 0.4051(4)
O12 O 0.4049(4) 0.4016(3) 0.4466(4)
O13 O 0.0480(4) 0.4458(3) 0.1005(4)
O14 O 0.2027(4) 0.4281(3) 0.1382(4)
O15 O 0.1370(4) 0.4346(3) 0.2500(4)
O16 O 0.3466(4) 0.4995(3) 0.1425(3)
O17 O -0.5045(11) 0.3058(8) -0.3619(11)
H66 H -0.5305 0.2974 -0.3230
O18 O -0.6691(10) 0.4071(7) -0.4131(10)
H67 H -0.7116 0.4315 -0.4339
O20 O -0.3371(16) 0.4006(11) -0.6179(16)
O21 O 0.2902(3) 0.5019(3) 0.2663(3)
P1 P 0.12727(16) 0.58309(13) 0.15198(16)
P2 P 0.50126(14) 0.49818(16) 0.32304(15)
P3 P 0.31953(16) 0.60615(12) 0.39235(16)
P4 P 0.31674(16) 0.39629(13) 0.39472(17)
P5 P 0.12296(16) 0.41923(12) 0.16035(16)
Sn1 Sn 0.0000 0.5000 0.0000
Sn2 Sn 0.32537(4) 0.43506(3) 0.21321(4)
Sn3 Sn 0.33155(4) 0.56579(3) 0.21154(4)
Sn4 Sn 0.19422(3) 0.49977(4) 0.31952(3)
Na1 Na -0.6020(2) 0.4997(2) -0.5471(2)
Na2 Na -0.4724(2) 0.6077(2) -0.5885(3)
Na3 Na -0.5235(3) 0.6057(2) -0.4127(2)
C1B C -0.4432(5) 0.3768(3) -0.1138(5)
C2B C -0.4255(5) 0.3753(4) -0.0292(4)
H1B H -0.3706 0.3715 0.0043
C3B C -0.4897(6) 0.3794(4) 0.0054(4)
H2B H -0.4778 0.3784 0.0620
C4B C -0.5716(5) 0.3851(4) -0.0445(5)
H3B H -0.6145 0.3879 -0.0214
C5B C -0.5893(4) 0.3866(4) -0.1291(5)
H4B H -0.6441 0.3904 -0.1625
C6B C -0.5251(5) 0.3825(3) -0.1637(4)
H5B H -0.5369 0.3835 -0.2203
C7B C -0.4185(7) 0.6682(4) -0.2117(5)
C8B C -0.3746(6) 0.7095(4) -0.2324(7)
H6B H -0.3176 0.7129 -0.2064
C9B C -0.4159(8) 0.7457(4) -0.2919(8)
H7B H -0.3865 0.7734 -0.3058
C10B C -0.5010(8) 0.7406(4) -0.3307(7)
H8B H -0.5287 0.7649 -0.3706
C11B C -0.5450(6) 0.6993(5) -0.3100(6)
H9B H -0.6020 0.6959 -0.3360
C12B C -0.5037(7) 0.6631(4) -0.2505(6)
H10B H -0.5330 0.6354 -0.2366
C13B C -0.0664(4) 0.5337(3) -0.4147(4)
C14B C -0.0024(4) 0.5623(3) -0.3608(4)
H11B H 0.0140 0.5548 -0.3051
C15B C 0.0372(4) 0.6023(3) -0.3902(6)
H12B H 0.0801 0.6215 -0.3542
C16B C 0.0127(6) 0.6136(3) -0.4735(6)
H13B H 0.0392 0.6404 -0.4932
C17B C -0.0513(6) 0.5849(4) -0.5274(4)
H14B H -0.0677 0.5925 -0.5831
C18B C -0.0909(5) 0.5450(3) -0.4980(4)
H15B H -0.1338 0.5258 -0.5340
C19B C -0.1222(4) 0.5402(3) 0.0946(4)
C20B C -0.0892(4) 0.5270(3) 0.1769(4)
H16B H -0.0586 0.4960 0.1920
C21B C -0.1019(5) 0.5601(4) 0.2366(3)
H17B H -0.0799 0.5512 0.2916
C22B C -0.1476(5) 0.6064(3) 0.2140(4)
H18B H -0.1561 0.6285 0.2539
C23B C -0.1806(4) 0.6196(2) 0.1317(5)
H19B H -0.2111 0.6506 0.1166
C24B C -0.1678(4) 0.5865(3) 0.0720(3)
H20B H -0.1899 0.5954 0.0170
C25B C -0.5867(7) 0.5076(4) -0.2828(7)
C26B C -0.5720(6) 0.5144(4) -0.1992(6)
H21B H -0.5176 0.5160 -0.1641
C27B C -0.6387(9) 0.5188(5) -0.1680(8)
H22B H -0.6288 0.5234 -0.1121
C28B C -0.7200(7) 0.5165(6) -0.2204(12)
H23B H -0.7646 0.5194 -0.1996
C29B C -0.7347(6) 0.5097(8) -0.3040(11)
H24B H -0.7892 0.5081 -0.3391
C30B C -0.6681(8) 0.5053(7) -0.3352(7)
H25B H -0.6779 0.5007 -0.3912
C31B C -0.2716(4) 0.6608(2) -0.4259(4)
C32B C -0.1896(4) 0.6605(2) -0.4273(4)
H26B H -0.1571 0.6304 -0.4115
C33B C -0.1562(4) 0.7052(3) -0.4523(5)
H27B H -0.1013 0.7050 -0.4532
C34B C -0.2048(5) 0.7503(2) -0.4759(5)
H28B H -0.1825 0.7802 -0.4926
C35B C -0.2869(5) 0.7506(2) -0.4745(5)
H29B H -0.3194 0.7808 -0.4903
C36B C -0.3203(3) 0.7059(3) -0.4496(5)
H30B H -0.3751 0.7061 -0.4486
C37B C -0.1023(4) 0.6507(2) -0.1497(4)
C38B C -0.0493(4) 0.6705(3) -0.0766(4)
H31B H -0.0206 0.6474 -0.0354
C39B C -0.0393(4) 0.7247(3) -0.0652(4)
H32B H -0.0039 0.7380 -0.0162
C40B C -0.0823(5) 0.7592(2) -0.1268(5)
H33B H -0.0756 0.7955 -0.1191
C41B C -0.1352(4) 0.7394(3) -0.1999(4)
H34B H -0.1639 0.7624 -0.2412
C42B C -0.1452(4) 0.6852(3) -0.2114(3)
H35B H -0.1807 0.6719 -0.2603
C43B C -0.2647(5) 0.3382(3) -0.4165(5)
C44B C -0.1787(5) 0.3347(4) -0.3818(5)
H36B H -0.1502 0.3602 -0.3448
C45B C -0.1354(5) 0.2931(4) -0.4026(7)
H37B H -0.0778 0.2907 -0.3794
C46B C -0.1781(8) 0.2549(4) -0.4580(7)
H38B H -0.1491 0.2271 -0.4719
C47B C -0.2641(8) 0.2585(4) -0.4927(6)
H39B H -0.2927 0.2330 -0.5298
C48B C -0.3074(5) 0.3001(4) -0.4719(6)
H40B H -0.3650 0.3024 -0.4951
C49B C -0.1081(5) 0.3477(3) -0.1639(5)
C50B C -0.1653(5) 0.3080(4) -0.1650(7)
H41B H -0.2165 0.3163 -0.1581
C51B C -0.1460(6) 0.2557(3) -0.1763(8)
H42B H -0.1842 0.2291 -0.1770
C52B C -0.0695(7) 0.2432(3) -0.1866(7)
H43B H -0.0566 0.2083 -0.1941
C53B C -0.0124(5) 0.2830(4) -0.1855(7)
H44B H 0.0388 0.2747 -0.1924
C54B C -0.0316(5) 0.3353(3) -0.1742(6)
H45B H 0.0066 0.3619 -0.1735
C55B C -0.3751(7) 0.3691(5) -0.1547(7)
H46B H -0.3268 0.3546 -0.1136
H47B H -0.3947 0.3421 -0.1963
C56B C -0.3695(7) 0.6285(5) -0.1534(7)
H48B H -0.3221 0.6457 -0.1149
H49B H -0.4039 0.6138 -0.1226
C57B C -0.1050(6) 0.4881(4) -0.3834(7)
H50B H -0.1314 0.4658 -0.4301
H51B H -0.0596 0.4678 -0.3475
C58B C -0.1139(6) 0.5043(5) 0.0304(6)
H52B H -0.1258 0.4689 0.0456
H53B H -0.1578 0.5132 -0.0195
C59B C -0.3401(6) 0.4989(5) -0.0578(5)
H54B H -0.3537 0.4641 -0.0438
H55B H -0.2841 0.5075 -0.0257
H56B H -0.3780 0.5240 -0.0469
C60B C -0.5303(16) 0.7253(12) -0.6240(17)
H57B H -0.5315 0.7546 -0.6599
H58B H -0.5048 0.7362 -0.5682
H59B H -0.5862 0.7136 -0.6310
C61B C -0.3475(19) 0.6484(16) -0.642(2)
H60B H -0.2965 0.6593 -0.6510
H61B H -0.3660 0.6755 -0.6124
H62B H -0.3893 0.6423 -0.6933
O1B O -0.0553(4) 0.4345(3) -0.0800(4)
O2B O -0.1322(4) 0.4455(3) -0.2325(4)
O3B O -0.2116(4) 0.4217(3) -0.1342(4)
O4B O -0.5314(4) 0.5014(4) -0.4148(4)
O4_2 O -0.4686(4) 0.4986(4) -0.5852(4)
O4B_2 O 0.4686(4) 0.5014(4) 0.5852(4)
O5_2 O -0.5519(4) 0.4497(3) -0.7085(4)
O5B O -0.4481(4) 0.5503(3) -0.2915(4)
O6B O -0.4546(4) 0.4501(3) -0.2912(4)
O6_2 O -0.5454(4) 0.5499(3) -0.7088(4)
O7B O -0.2727(4) 0.4452(3) -0.3997(4)
O7_2 O -0.7273(4) 0.5548(3) -0.6003(4)
O8B O -0.3158(4) 0.3858(3) -0.3027(4)
O9B O -0.4079(4) 0.3959(3) -0.4508(4)
O9_2 O -0.5921(4) 0.6041(3) -0.5492(4)
O9B_2 O 0.5921(4) 0.3959(3) 0.5492(4)
O10B O -0.3077(4) 0.6129(3) -0.3044(4)
O11_2 O -0.7319(4) 0.4449(3) -0.5949(4)
O11B O -0.2681(4) 0.5551(3) -0.4051(4)
O12_2 O -0.5951(4) 0.4016(3) -0.5534(4)
O12B O -0.4049(4) 0.5984(3) -0.4466(4)
O12B_2 O 0.5951(4) 0.5984(3) 0.5534(4)
O13B O -0.0480(4) 0.5542(3) -0.1005(4)
O14B O -0.2027(4) 0.5719(3) -0.1382(4)
O15B O -0.1370(4) 0.5654(3) -0.2500(4)
O16B O -0.3466(4) 0.5005(3) -0.1425(3)
O17B O -0.4955(11) 0.6942(8) -0.6381(11)
H66B H -0.4695 0.7026 -0.6770
O18B O -0.3309(10) 0.5929(7) -0.5869(10)
H67B H -0.2884 0.5685 -0.5661
O20B O -0.6629(16) 0.5994(11) -0.3821(16)
O21B O -0.2902(3) 0.4981(3) -0.2663(3)
P1B P -0.12727(16) 0.41691(13) -0.15198(16)
P2B P -0.50126(14) 0.50182(16) -0.32304(15)
P3B P -0.31953(16) 0.39385(12) -0.39235(16)
P4B P -0.31674(16) 0.60371(13) -0.39472(17)
P5B P -0.12296(16) 0.58077(12) -0.16035(16)
Sn2B Sn -0.32537(4) 0.56494(3) -0.21321(4)
Sn3B Sn -0.33155(4) 0.43421(3) -0.21154(4)
Sn4B Sn -0.19422(3) 0.50023(4) -0.31952(3)
Na1B Na 0.6020(2) 0.5003(2) 0.5471(2)
Na1B_2 Na -0.3980(2) 0.5003(2) -0.4529(2)
Na1_2 Na 0.3980(2) 0.4997(2) 0.4529(2)
Na2_2 Na 0.5276(2) 0.6077(2) 0.4115(3)
Na2B Na -0.5276(2) 0.3923(2) -0.4115(3)
Na2B_2 Na 0.4724(2) 0.3923(2) 0.5885(3)
Na3B Na 0.5235(3) 0.3943(2) 0.4127(2)
Na3B_2 Na -0.4765(3) 0.3943(2) -0.5873(2)
Na3_2 Na 0.4765(3) 0.6057(2) 0.5873(2)
C62 C 0.150(2) 0.6269(15) -0.121(2)
H63 H 0.1655 0.6019 -0.1557
H64 H 0.1509 0.6619 -0.1420
H65 H 0.0954 0.6189 -0.1184
O19 O 0.2109(17) 0.6238(13) -0.0371(17)
H68 H 0.2445 0.6000 -0.0355
loop_
_geom_bond_atom_site_label_1
_geom_bond_atom_site_label_2
_geom_bond_site_symmetry_1
_geom_bond_site_symmetry_2
C1 C2 1_555 1_555
C2 H1 1_555 1_555
C3 C2 1_555 1_555
H2 C3 1_555 1_555
C4 C3 1_555 1_555
H3 C4 1_555 1_555
C5 C4 1_555 1_555
H4 C5 1_555 1_555
C6 C1 1_555 1_555
H5 C6 1_555 1_555
C7 C8 1_555 1_555
C8 H6 1_555 1_555
C9 C8 1_555 1_555
H7 C9 1_555 1_555
C10 C9 1_555 1_555
H8 C10 1_555 1_555
C11 C10 1_555 1_555
H9 C11 1_555 1_555
C12 C7 1_555 1_555
H10 C12 1_555 1_555
C13 C14 1_555 1_555
C14 H11 1_555 1_555
C15 C14 1_555 1_555
H12 C15 1_555 1_555
C16 C15 1_555 1_555
H13 C16 1_555 1_555
C17 C16 1_555 1_555
H14 C17 1_555 1_555
C18 C13 1_555 1_555
H15 C18 1_555 1_555
C19 C20 1_555 1_555
C20 H16 1_555 1_555
C21 C20 1_555 1_555
H17 C21 1_555 1_555
C22 C21 1_555 1_555
H18 C22 1_555 1_555
C23 C22 1_555 1_555
H19 C23 1_555 1_555
C24 C19 1_555 1_555
H20 C24 1_555 1_555
C25 C26 1_555 1_555
C26 H21 1_555 1_555
C27 C26 1_555 1_555
H22 C27 1_555 1_555
C28 C27 1_555 1_555
H23 C28 1_555 1_555
C29 C28 1_555 1_555
H24 C29 1_555 1_555
C30 C25 1_555 1_555
H25 C30 1_555 1_555
C31 C32 1_555 1_555
C32 H26 1_555 1_555
C33 C32 1_555 1_555
H27 C33 1_555 1_555
C34 C33 1_555 1_555
H28 C34 1_555 1_555
C35 C34 1_555 1_555
H29 C35 1_555 1_555
C36 C31 1_555 1_555
H30 C36 1_555 1_555
C37 C38 1_555 1_555
C38 H31 1_555 1_555
C39 C38 1_555 1_555
H32 C39 1_555 1_555
C40 C39 1_555 1_555
H33 C40 1_555 1_555
C41 C40 1_555 1_555
H34 C41 1_555 1_555
C42 C37 1_555 1_555
H35 C42 1_555 1_555
C43 C44 1_555 1_555
C44 H36 1_555 1_555
C45 C44 1_555 1_555
H37 C45 1_555 1_555
C46 C45 1_555 1_555
H38 C46 1_555 1_555
C47 C46 1_555 1_555
H39 C47 1_555 1_555
C48 C43 1_555 1_555
H40 C48 1_555 1_555
C49 C50 1_555 1_555
C50 H41 1_555 1_555
C51 C50 1_555 1_555
H42 C51 1_555 1_555
C52 C51 1_555 1_555
H43 C52 1_555 1_555
C53 C52 1_555 1_555
H44 C53 1_555 1_555
C54 C49 1_555 1_555
H45 C54 1_555 1_555
C55 C1 1_555 1_555
H46 C55 1_555 1_555
H47 C55 1_555 1_555
C56 C7 1_555 1_555
H48 C56 1_555 1_555
H49 C56 1_555 1_555
C57 C13 1_555 1_555
H50 C57 1_555 1_555
H51 C57 1_555 1_555
C58 C19 1_555 1_555
H52 C58 1_555 1_555
H53 C58 1_555 1_555
C59 H54 1_555 1_555
H55 C59 1_555 1_555
H56 C59 1_555 1_555
C60 H57 1_555 1_555
H58 C60 1_555 1_555
H59 C60 1_555 1_555
C61 H60 1_555 1_555
H61 C61 1_555 1_555
H62 C61 1_555 1_555
C62 H63 1_555 1_555
H64 C62 1_555 1_555
H65 C62 1_555 1_555
O1 P1 1_555 1_555
O2 P1 1_555 1_555
O3 P1 1_555 1_555
O4 P2 1_555 1_555
O5 P2 1_555 1_555
O6 P2 1_555 1_555
O7 P3 1_555 1_555
O8 P3 1_555 1_555
O9 P3 1_555 1_555
O10 P4 1_555 1_555
O11 P4 1_555 1_555
O12 P4 1_555 1_555
O13 P5 1_555 1_555
O14 P5 1_555 1_555
O15 P5 1_555 1_555
O16 C59 1_555 1_555
O17 C60 1_555 1_555
H66 O17 1_555 1_555
O18 C61 1_555 1_555
H67 O18 1_555 1_555
O19 C62 1_555 1_555
H68 O19 1_555 1_555
O20 Na3B_2 1_555 1_555
O21 Sn2 1_555 1_555
P1 C49 1_555 1_555
P2 C25 1_555 1_555
P3 C43 1_555 1_555
P4 C31 1_555 1_555
P5 C37 1_555 1_555
Sn1 C58 1_555 1_555
Sn2 C56 1_555 1_555
Sn3 C55 1_555 1_555
Sn4 C57 1_555 1_555
Na1 O4B 1_555 1_555
Na2 O4_2 1_555 1_555
Na3 O4B 1_555 1_555
C1B C2B 1_555 1_555
C2B H1B 1_555 1_555
C3B C2B 1_555 1_555
H2B C3B 1_555 1_555
C4B C3B 1_555 1_555
H3B C4B 1_555 1_555
C5B C4B 1_555 1_555
H4B C5B 1_555 1_555
C6B C1B 1_555 1_555
H5B C6B 1_555 1_555
C7B C8B 1_555 1_555
C8B H6B 1_555 1_555
C9B C8B 1_555 1_555
H7B C9B 1_555 1_555
C10B C9B 1_555 1_555
H8B C10B 1_555 1_555
C11B C10B 1_555 1_555
H9B C11B 1_555 1_555
C12B C7B 1_555 1_555
H10B C12B 1_555 1_555
C13B C14B 1_555 1_555
C14B H11B 1_555 1_555
C15B C14B 1_555 1_555
H12B C15B 1_555 1_555
C16B C15B 1_555 1_555
H13B C16B 1_555 1_555
C17B C16B 1_555 1_555
H14B C17B 1_555 1_555
C18B C13B 1_555 1_555
H15B C18B 1_555 1_555
C19B C20B 1_555 1_555
C20B H16B 1_555 1_555
C21B C20B 1_555 1_555
H17B C21B 1_555 1_555
C22B C21B 1_555 1_555
H18B C22B 1_555 1_555
C23B C22B 1_555 1_555
H19B C23B 1_555 1_555
C24B C19B 1_555 1_555
H20B C24B 1_555 1_555
C25B C26B 1_555 1_555
C26B H21B 1_555 1_555
C27B C26B 1_555 1_555
H22B C27B 1_555 1_555
C28B C27B 1_555 1_555
H23B C28B 1_555 1_555
C29B C28B 1_555 1_555
H24B C29B 1_555 1_555
C30B C25B 1_555 1_555
H25B C30B 1_555 1_555
C31B C32B 1_555 1_555
C32B H26B 1_555 1_555
C33B C32B 1_555 1_555
H27B C33B 1_555 1_555
C34B C33B 1_555 1_555
H28B C34B 1_555 1_555
C35B C34B 1_555 1_555
H29B C35B 1_555 1_555
C36B C31B 1_555 1_555
H30B C36B 1_555 1_555
C37B C38B 1_555 1_555
C38B H31B 1_555 1_555
C39B C38B 1_555 1_555
H32B C39B 1_555 1_555
C40B C39B 1_555 1_555
H33B C40B 1_555 1_555
C41B C40B 1_555 1_555
H34B C41B 1_555 1_555
C42B C37B 1_555 1_555
H35B C42B 1_555 1_555
C43B C44B 1_555 1_555
C44B H36B 1_555 1_555
C45B C44B 1_555 1_555
H37B C45B 1_555 1_555
C46B C45B 1_555 1_555
H38B C46B 1_555 1_555
C47B C46B 1_555 1_555
H39B C47B 1_555 1_555
C48B C43B 1_555 1_555
H40B C48B 1_555 1_555
C49B C50B 1_555 1_555
C50B H41B 1_555 1_555
C51B C50B 1_555 1_555
H42B C51B 1_555 1_555
C52B C51B 1_555 1_555
H43B C52B 1_555 1_555
C53B C52B 1_555 1_555
H44B C53B 1_555 1_555
C54B C49B 1_555 1_555
H45B C54B 1_555 1_555
C55B C1B 1_555 1_555
H46B C55B 1_555 1_555
H47B C55B 1_555 1_555
C56B C7B 1_555 1_555
H48B C56B 1_555 1_555
H49B C56B 1_555 1_555
C57B C13B 1_555 1_555
H50B C57B 1_555 1_555
H51B C57B 1_555 1_555
C58B Sn1 1_555 1_555
H52B C58B 1_555 1_555
H53B C58B 1_555 1_555
C59B H54B 1_555 1_555
H55B C59B 1_555 1_555
H56B C59B 1_555 1_555
C60B H57B 1_555 1_555
H58B C60B 1_555 1_555
H59B C60B 1_555 1_555
C61B H60B 1_555 1_555
H61B C61B 1_555 1_555
H62B C61B 1_555 1_555
O1B Sn1 1_555 1_555
O2B P1B 1_555 1_555
O3B P1B 1_555 1_555
O4B P2B 1_555 1_555
O4_2 Na1 1_555 1_555
O4B_2 Na1B 1_555 1_555
O5_2 Na3B_2 1_555 1_555
O5B Na3 1_555 1_555
O6B P2B 1_555 1_555
O6_2 Na2 1_555 1_555
O7B P3B 1_555 1_555
O7_2 Na1 1_555 1_555
O8B P3B 1_555 1_555
O9B P3B 1_555 1_555
O9_2 Na1 1_555 1_555
O9B_2 Na1B 1_555 1_555
O10B P4B 1_555 1_555
O11_2 Na1 1_555 1_555
O11B P4B 1_555 1_555
O12_2 Na1 1_555 1_555
O12B Na2 1_555 1_555
O12B_2 Na1B 1_555 1_555
O13B Sn1 1_555 1_555
O14B P5B 1_555 1_555
O15B P5B 1_555 1_555
O16B C59B 1_555 1_555
O17B Na2 1_555 1_555
H66B O17B 1_555 1_555
O18B Na2 1_555 1_555
H67B O18B 1_555 1_555
O20B Na3 1_555 1_555
O21B Sn2B 1_555 1_555
P1B C49B 1_555 1_555
P2B C25B 1_555 1_555
P3B C43B 1_555 1_555
P4B C31B 1_555 1_555
P5B C37B 1_555 1_555
Sn2B C56B 1_555 1_555
Sn3B C55B 1_555 1_555
Sn4B C57B 1_555 1_555
Na1B O4 1_555 1_555
Na1B_2 O4B 1_555 1_555
Na1_2 O4 1_555 1_555
Na2_2 O4 1_555 1_555
Na2B O17 1_555 1_555
Na2B_2 O12 1_555 1_555
Na3B O4 1_555 1_555
Na3B_2 O4_2 1_555 1_555
Na3_2 O9 1_555 1_555
C5 C6 1_555 1_555
C11 C12 1_555 1_555
C17 C18 1_555 1_555
C23 C24 1_555 1_555
C29 C30 1_555 1_555
C35 C36 1_555 1_555
C41 C42 1_555 1_555
C47 C48 1_555 1_555
C53 C54 1_555 1_555
O1 Sn1 1_555 1_555
O2 Sn4 1_555 1_555
O3 Sn3 1_555 1_555
O5 Sn2 1_555 1_555
O5 Na3B 1_555 1_555
O6 Sn3 1_555 1_555
O6 Na2_2 1_555 1_555
O7 Sn4 1_555 1_555
O7 Na1_2 1_555 1_555
O8 Sn3 1_555 1_555
O9 Na1_2 1_555 1_555
O9 Na2_2 1_555 1_555
O10 Sn2 1_555 1_555
O11 Sn4 1_555 1_555
O11 Na1_2 1_555 1_555
O12 Na1_2 1_555 1_555
O12 Na3B 1_555 1_555
O13 Sn1 1_555 1_555
O14 Sn2 1_555 1_555
O15 Sn4 1_555 1_555
O16 Sn2 1_555 1_555
O16 Sn3 1_555 1_555
O18 Na2B 1_555 1_555
O21 Sn3 1_555 1_555
O21 Sn4 1_555 1_555
Na2 O9_2 1_555 1_555
Na3 O9_2 1_555 1_555
Na3 O12B 1_555 1_555
C5B C6B 1_555 1_555
C11B C12B 1_555 1_555
C17B C18B 1_555 1_555
C19B C58B 1_555 1_555
C23B C24B 1_555 1_555
C29B C30B 1_555 1_555
C35B C36B 1_555 1_555
C41B C42B 1_555 1_555
C47B C48B 1_555 1_555
C53B C54B 1_555 1_555
C60B O17B 1_555 1_555
C61B O18B 1_555 1_555
O1B P1B 1_555 1_555
O2B Sn4B 1_555 1_555
O3B Sn3B 1_555 1_555
O4B Na2B 1_555 1_555
O4_2 Na1B_2 1_555 1_555
O4B_2 Na1_2 1_555 1_555
O4B_2 Na2B_2 1_555 1_555
O4B_2 Na3_2 1_555 1_555
O5B P2B 1_555 1_555
O5B Sn2B 1_555 1_555
O6B Sn3B 1_555 1_555
O6B Na2B 1_555 1_555
O7B Sn4B 1_555 1_555
O7B Na1B_2 1_555 1_555
O8B Sn3B 1_555 1_555
O9B Na1B_2 1_555 1_555
O9B Na2B 1_555 1_555
O9B Na3B_2 1_555 1_555
O9B_2 Na2B_2 1_555 1_555
O9B_2 Na3B 1_555 1_555
O10B Sn2B 1_555 1_555
O11B Sn4B 1_555 1_555
O11B Na1B_2 1_555 1_555
O12_2 Na2B 1_555 1_555
O12_2 Na3B_2 1_555 1_555
O12B P4B 1_555 1_555
O12B Na1B_2 1_555 1_555
O12B_2 Na2_2 1_555 1_555
O12B_2 Na3_2 1_555 1_555
O13B P5B 1_555 1_555
O14B Sn2B 1_555 1_555
O15B Sn4B 1_555 1_555
O16B Sn2B 1_555 1_555
O16B Sn3B 1_555 1_555
O21B Sn3B 1_555 1_555
O21B Sn4B 1_555 1_555

#END
