
#######################################################################
#
#                 Cambridge Crystallographic Data Centre
#                                CCDC 
#
#######################################################################
#
# If this CIF has been generated from an entry in the Cambridge 
# Structural Database, then it will include bibliographic, chemical, 
# crystal, experimental, refinement or atomic coordinate data resulting 
# from the CCDC's data processing and validation procedures.
#
#######################################################################

data_YIBQIL
_symmetry_cell_setting           orthorhombic
_symmetry_space_group_name_H-M   'P b c n'
_symmetry_Int_Tables_number      60
_space_group_name_Hall           '-P 2n 2ab'
loop_
_symmetry_equiv_pos_site_id
_symmetry_equiv_pos_as_xyz
1 x,y,z
2 1/2-x,1/2-y,1/2+z
3 1/2+x,1/2-y,-z
4 -x,y,1/2-z
5 -x,-y,-z
6 1/2+x,1/2+y,1/2-z
7 1/2-x,1/2+y,z
8 x,-y,1/2+z
_cell_length_a                   9.694(5)
_cell_length_b                   24.8060(10)
_cell_length_c                   15.8790(7)
_cell_angle_alpha                90
_cell_angle_beta                 90
_cell_angle_gamma                90
_cell_volume                     3818.41
loop_
_atom_site_label
_atom_site_type_symbol
_atom_site_fract_x
_atom_site_fract_y
_atom_site_fract_z
Co1 Co 0.33125(3) 0.303321(14) 0.50189(2)
Co2 Co 1.0000 0.68890(2) 0.7500
C1 C 0.2867(3) 0.35719(11) 0.63304(18)
C2 C 0.2393(3) 0.37691(12) 0.71764(17)
C3 C 0.1986(4) 0.33786(15) 0.7753(2)
H1 H 0.2083 0.3016 0.7619
C4 C 0.1439(4) 0.35239(17) 0.8520(2)
H2 H 0.1162 0.3261 0.8901
C5 C 0.1307(4) 0.40611(18) 0.8720(2)
H3 H 0.0922 0.4160 0.9233
C6 C 0.1741(4) 0.44552(15) 0.8164(2)
H4 H 0.1662 0.4816 0.8313
C7 C 0.2295(3) 0.43169(12) 0.73825(18)
C8 C 0.2859(3) 0.47474(12) 0.68266(18)
C9 C 0.2103(3) 0.52011(13) 0.6617(2)
H5 H 0.1202 0.5235 0.6810
C10 C 0.2668(3) 0.56064(12) 0.6122(2)
H6 H 0.2137 0.5906 0.5982
C11 C 0.4021(3) 0.55707(11) 0.58306(17)
C12 C 0.4774(3) 0.51139(11) 0.60439(18)
H7 H 0.5678 0.5080 0.5855
C13 C 0.4208(3) 0.47083(11) 0.65316(17)
H8 H 0.4734 0.4406 0.6664
C14 C 0.4686(3) 0.60057(11) 0.52994(18)
H9 H 0.5336 0.5837 0.4917
H10 H 0.3976 0.6175 0.4960
C15 C 0.4451(3) 0.68094(11) 0.61897(17)
H11 H 0.4887 0.6973 0.6677
H12 H 0.3645 0.6613 0.6381
C16 C 0.4014(3) 0.72478(10) 0.55725(17)
C17 C 0.6411(3) 0.62085(11) 0.63949(18)
H13 H 0.6826 0.5885 0.6165
H14 H 0.5926 0.6111 0.6907
C18 C 0.7524(3) 0.66148(12) 0.65955(17)
N1 N 0.5425(2) 0.64342(9) 0.57813(13)
O1 O 0.2245(2) 0.36994(9) 0.56642(12)
O2 O 0.3860(2) 0.32444(8) 0.62895(12)
O3 O 0.49169(19) 0.74238(8) 0.50829(12)
O4 O 0.27973(18) 0.74185(8) 0.56198(12)
O5 O 0.77224(19) 0.69995(8) 0.60892(12)
O6 O 0.8200(2) 0.65344(9) 0.72545(12)
O7 O 1.0000 0.76724(14) 0.7500
H15 H 0.960(4) 0.7869(17) 0.782(2)
O8 O 1.0587(2) 0.68391(9) 0.62235(13)
H16 H 1.002(4) 0.7013(15) 0.594(2)
H17 H 1.127(4) 0.7035(15) 0.612(2)
H15C H 1.040(4) 0.7869(17) 0.718(2)
Co1C Co 1.66875(3) 0.303321(14) 0.99811(2)
C1C C 1.7133(3) 0.35719(11) 0.86696(18)
C2C C 1.7607(3) 0.37691(12) 0.78236(17)
C3C C 1.8014(4) 0.33786(15) 0.7247(2)
H1C H 1.7917 0.3016 0.7381
C4C C 1.8561(4) 0.35239(17) 0.6480(2)
H2C H 1.8838 0.3261 0.6099
C5C C 1.8693(4) 0.40611(18) 0.6280(2)
H3C H 1.9078 0.4160 0.5767
C6C C 1.8259(4) 0.44552(15) 0.6836(2)
H4C H 1.8338 0.4816 0.6687
C7C C 1.7705(3) 0.43169(12) 0.76175(18)
C8C C 1.7141(3) 0.47474(12) 0.81734(18)
C9C C 1.7897(3) 0.52011(13) 0.8383(2)
H5C H 1.8798 0.5235 0.8190
C10C C 1.7332(3) 0.56064(12) 0.8878(2)
H6C H 1.7863 0.5906 0.9018
C11C C 1.5979(3) 0.55707(11) 0.91694(17)
C12C C 1.5226(3) 0.51139(11) 0.89561(18)
H7C H 1.4322 0.5080 0.9145
C13C C 1.5792(3) 0.47083(11) 0.84684(17)
H8C H 1.5266 0.4406 0.8336
C14C C 1.5314(3) 0.60057(11) 0.97006(18)
H9C H 1.4664 0.5837 1.0083
H10C H 1.6024 0.6175 1.0040
C15C C 1.5549(3) 0.68094(11) 0.88103(17)
H11C H 1.5113 0.6973 0.8323
H12C H 1.6355 0.6613 0.8619
C16C C 1.5986(3) 0.72478(10) 0.94275(17)
C17C C 1.3589(3) 0.62085(11) 0.86051(18)
H13C H 1.3174 0.5885 0.8835
H14C H 1.4074 0.6111 0.8093
C18C C 1.2476(3) 0.66148(12) 0.84045(17)
N1C N 1.4575(2) 0.64342(9) 0.92187(13)
O1C O 1.7755(2) 0.36994(9) 0.93358(12)
O2C O 1.6140(2) 0.32444(8) 0.87105(12)
O3C O 1.50831(19) 0.74238(8) 0.99171(12)
O4C O 1.72027(18) 0.74185(8) 0.93802(12)
O5C O 1.22776(19) 0.69995(8) 0.89108(12)
O6C O 1.1800(2) 0.65344(9) 0.77455(12)
O8C O 0.9413(2) 0.68391(9) 0.87765(13)
H16C H 0.998(4) 0.7013(15) 0.906(2)
H17C H 0.873(4) 0.7035(15) 0.888(2)
Co1D Co 0.66875(3) 0.696679(14) 0.49811(2)
Co1E Co 1.83125(3) 0.803321(14) 0.99811(2)
Co1F Co 0.16875(3) 0.803321(14) 0.50189(2)
Co1G Co 1.33125(3) 0.696679(14) 1.00189(2)
N1D N 0.4575(2) 0.35658(9) 0.42187(13)
N1G N 1.5425(2) 0.35658(9) 1.07813(13)
O3D O 0.50831(19) 0.25762(8) 0.49171(12)
O3G O 1.49169(19) 0.25762(8) 1.00829(12)
O4E O 1.77973(18) 0.24185(8) 0.93802(12)
O4F O 0.22027(18) 0.24185(8) 0.56198(12)
O5D O 0.22776(19) 0.30005(8) 0.39108(12)
O5G O 1.77224(19) 0.30005(8) 1.10892(12)
O9 O 0.8656(8) 0.5355(3) 0.5237(4)
O10? O 0.9083(11) 0.5535(4) 0.5393(7)
loop_
_geom_bond_atom_site_label_1
_geom_bond_atom_site_label_2
_geom_bond_site_symmetry_1
_geom_bond_site_symmetry_2
Co1 O1 1_555 1_555
Co2 O6 1_555 1_555
C1 C2 1_555 1_555
C2 C3 1_555 1_555
C3 H1 1_555 1_555
C4 C3 1_555 1_555
H2 C4 1_555 1_555
C5 C4 1_555 1_555
H3 C5 1_555 1_555
C6 C5 1_555 1_555
H4 C6 1_555 1_555
C7 C2 1_555 1_555
C8 C7 1_555 1_555
C9 C8 1_555 1_555
H5 C9 1_555 1_555
C10 C9 1_555 1_555
H6 C10 1_555 1_555
C11 C10 1_555 1_555
C12 C11 1_555 1_555
H7 C12 1_555 1_555
C13 C8 1_555 1_555
H8 C13 1_555 1_555
C14 C11 1_555 1_555
H9 C14 1_555 1_555
H10 C14 1_555 1_555
C15 H11 1_555 1_555
H12 C15 1_555 1_555
C16 C15 1_555 1_555
C17 H13 1_555 1_555
H14 C17 1_555 1_555
C18 C17 1_555 1_555
N1 C14 1_555 1_555
O1 C1 1_555 1_555
O2 Co1 1_555 1_555
O3 C16 1_555 1_555
O4 C16 1_555 1_555
O5 C18 1_555 1_555
O6 C18 1_555 1_555
O7 Co2 1_555 1_555
H15 O7 1_555 1_555
O8 Co2 1_555 1_555
H16 O8 1_555 1_555
H17 O8 1_555 1_555
H15C O7 1_555 1_555
Co1C O1C 1_555 1_555
C1C C2C 1_555 1_555
C2C C3C 1_555 1_555
C3C H1C 1_555 1_555
C4C C3C 1_555 1_555
H2C C4C 1_555 1_555
C5C C4C 1_555 1_555
H3C C5C 1_555 1_555
C6C C5C 1_555 1_555
H4C C6C 1_555 1_555
C7C C2C 1_555 1_555
C8C C7C 1_555 1_555
C9C C8C 1_555 1_555
H5C C9C 1_555 1_555
C10C C9C 1_555 1_555
H6C C10C 1_555 1_555
C11C C10C 1_555 1_555
C12C C11C 1_555 1_555
H7C C12C 1_555 1_555
C13C C8C 1_555 1_555
H8C C13C 1_555 1_555
C14C C11C 1_555 1_555
H9C C14C 1_555 1_555
H10C C14C 1_555 1_555
C15C H11C 1_555 1_555
H12C C15C 1_555 1_555
C16C C15C 1_555 1_555
C17C H13C 1_555 1_555
H14C C17C 1_555 1_555
C18C C17C 1_555 1_555
N1C C14C 1_555 1_555
O1C C1C 1_555 1_555
O2C Co1C 1_555 1_555
O3C C16C 1_555 1_555
O4C C16C 1_555 1_555
O5C C18C 1_555 1_555
O6C Co2 1_555 1_555
O8C Co2 1_555 1_555
H16C O8C 1_555 1_555
H17C O8C 1_555 1_555
Co1D N1 1_555 1_555
Co1E O4C 1_555 1_555
Co1F O4 1_555 1_555
Co1G N1C 1_555 1_555
N1D Co1 1_555 1_555
N1G Co1C 1_555 1_555
O3D Co1 1_555 1_555
O3G Co1C 1_555 1_555
O4E Co1C 1_555 1_555
O4F Co1 1_555 1_555
O5D Co1 1_555 1_555
O5G Co1C 1_555 1_555
C1 O2 1_555 1_555
C6 C7 1_555 1_555
C12 C13 1_555 1_555
C15 N1 1_555 1_555
C17 N1 1_555 1_555
O3 Co1D 1_555 1_555
O5 Co1D 1_555 1_555
C1C O2C 1_555 1_555
C6C C7C 1_555 1_555
C12C C13C 1_555 1_555
C15C N1C 1_555 1_555
C17C N1C 1_555 1_555
C18C O6C 1_555 1_555
O3C Co1G 1_555 1_555
O5C Co1G 1_555 1_555

#END
