
#######################################################################
#
#                 Cambridge Crystallographic Data Centre
#                                CCDC 
#
#######################################################################
#
# If this CIF has been generated from an entry in the Cambridge 
# Structural Database, then it will include bibliographic, chemical, 
# crystal, experimental, refinement or atomic coordinate data resulting 
# from the CCDC's data processing and validation procedures.
#
#######################################################################

data_YIBQOR
_symmetry_cell_setting           orthorhombic
_symmetry_space_group_name_H-M   'P b c n'
_symmetry_Int_Tables_number      60
_space_group_name_Hall           '-P 2n 2ab'
loop_
_symmetry_equiv_pos_site_id
_symmetry_equiv_pos_as_xyz
1 x,y,z
2 1/2-x,1/2-y,1/2+z
3 1/2+x,1/2-y,-z
4 -x,y,1/2-z
5 -x,-y,-z
6 1/2+x,1/2+y,1/2-z
7 1/2-x,1/2+y,z
8 x,-y,1/2+z
_cell_length_a                   9.6780(4)
_cell_length_b                   24.8730(12)
_cell_length_c                   15.8270(8)
_cell_angle_alpha                90
_cell_angle_beta                 90
_cell_angle_gamma                90
_cell_volume                     3809.89
loop_
_atom_site_label
_atom_site_type_symbol
_atom_site_fract_x
_atom_site_fract_y
_atom_site_fract_z
Zn1 Zn 0.83205(3) 0.196724(12) 0.003181(18)
Zn2 Zn 1.5000 -0.189928(17) 0.2500
C1 C 0.7823(3) 0.14125(11) 0.13336(18)
C2 C 0.7382(3) 0.12178(11) 0.21943(17)
C3 C 0.6981(4) 0.16035(13) 0.2778(2)
H1 H 0.7076 0.1966 0.2644
C4 C 0.6444(4) 0.14618(16) 0.3551(2)
H2 H 0.6164 0.1725 0.3932
C5 C 0.6326(4) 0.09247(16) 0.3752(2)
H3 H 0.5959 0.0824 0.4272
C6 C 0.6747(3) 0.05360(14) 0.3188(2)
H4 H 0.6671 0.0175 0.3337
C7 C 0.7282(3) 0.06717(11) 0.24039(18)
C8 C 0.7849(3) 0.02452(11) 0.18402(17)
C9 C 0.9193(3) 0.02841(11) 0.15333(17)
H5 H 0.9718 0.0587 0.1659
C10 C 0.9760(3) -0.01175(10) 0.10474(18)
H6 H 1.0664 -0.0083 0.0857
C11 C 0.9005(3) -0.05755(11) 0.08350(17)
C12 C 0.7657(3) -0.06121(11) 0.1135(2)
H7 H 0.7125 -0.0911 0.0998
C13 C 0.7094(3) -0.02105(12) 0.1635(2)
H8 H 0.6195 -0.0247 0.1835
C14 C 0.9664(3) -0.10060(11) 0.03020(18)
H9 H 0.8952 -0.1174 -0.0038
H10 H 1.0314 -0.0837 -0.0081
C15 C 0.9436(3) -0.18121(10) 0.11842(16)
H11 H 0.8628 -0.1617 0.1378
H12 H 0.9872 -0.1977 0.1671
C16 C 0.8996(3) -0.22483(10) 0.05606(16)
C17 C 1.1401(3) -0.12152(10) 0.13956(17)
H13 H 1.0921 -0.1124 0.1914
H14 H 1.1804 -0.0888 0.1170
C18 C 1.2536(3) -0.16140(11) 0.15868(16)
N1 N 1.0408(2) -0.14357(8) 0.07827(13)
O1 O 0.8822(2) 0.17378(8) 0.12861(12)
O2 O 0.7183(2) 0.12842(9) 0.06855(12)
O3 O 1.32111(19) -0.15324(8) 0.22471(12)
O4 O 1.2751(2) -0.19912(7) 0.10725(12)
O5 O 0.99042(19) -0.24297(7) 0.00742(12)
O6 O 0.77674(19) -0.24090(8) 0.05984(12)
O7 O 1.4409(2) -0.18384(9) 0.37687(13)
H15 H 1.371(4) -0.1998(14) 0.393(2)
H16 H 1.494(4) -0.1968(14) 0.404(2)
O8 O 1.5000 -0.26869(13) 0.2500
H17 H 1.530(5) -0.2858(17) 0.217(3)
H17C H 1.470(5) -0.2858(17) 0.283(3)
Zn1C Zn 2.16795(3) 0.196724(12) 0.496819(18)
C1C C 2.2177(3) 0.14125(11) 0.36664(18)
C2C C 2.2618(3) 0.12178(11) 0.28057(17)
C3C C 2.3019(4) 0.16035(13) 0.2222(2)
H1C H 2.2924 0.1966 0.2356
C4C C 2.3556(4) 0.14618(16) 0.1449(2)
H2C H 2.3836 0.1725 0.1068
C5C C 2.3674(4) 0.09247(16) 0.1248(2)
H3C H 2.4041 0.0824 0.0728
C6C C 2.3253(3) 0.05360(14) 0.1812(2)
H4C H 2.3329 0.0175 0.1663
C7C C 2.2718(3) 0.06717(11) 0.25961(18)
C8C C 2.2151(3) 0.02452(11) 0.31598(17)
C9C C 2.0807(3) 0.02841(11) 0.34667(17)
H5C H 2.0282 0.0587 0.3341
C10C C 2.0240(3) -0.01175(10) 0.39526(18)
H6C H 1.9336 -0.0083 0.4143
C11C C 2.0995(3) -0.05755(11) 0.41650(17)
C12C C 2.2343(3) -0.06121(11) 0.3865(2)
H7C H 2.2875 -0.0911 0.4002
C13C C 2.2906(3) -0.02105(12) 0.3365(2)
H8C H 2.3805 -0.0247 0.3165
C14C C 2.0336(3) -0.10060(11) 0.46980(18)
H9C H 2.1048 -0.1174 0.5038
H10C H 1.9686 -0.0837 0.5081
C15C C 2.0564(3) -0.18121(10) 0.38158(16)
H11C H 2.1372 -0.1617 0.3622
H12C H 2.0128 -0.1977 0.3329
C16C C 2.1004(3) -0.22483(10) 0.44394(16)
C17C C 1.8599(3) -0.12152(10) 0.36044(17)
H13C H 1.9079 -0.1124 0.3086
H14C H 1.8196 -0.0888 0.3830
C18C C 1.7464(3) -0.16140(11) 0.34132(16)
N1C N 1.9592(2) -0.14357(8) 0.42173(13)
O1C O 2.1178(2) 0.17378(8) 0.37139(12)
O2C O 2.2817(2) 0.12842(9) 0.43145(12)
O3C O 1.67889(19) -0.15324(8) 0.27529(12)
O4C O 1.7249(2) -0.19912(7) 0.39275(12)
O5C O 2.00958(19) -0.24297(7) 0.49258(12)
O6C O 2.22326(19) -0.24090(8) 0.44016(12)
O7C O 1.5591(2) -0.18384(9) 0.12313(13)
H15C H 1.629(4) -0.1998(14) 0.107(2)
H16C H 1.506(4) -0.1968(14) 0.096(2)
Zn1D Zn 1.16795(3) -0.196724(12) -0.003181(18)
Zn1E Zn 2.33205(3) -0.303276(12) 0.496819(18)
Zn1F Zn 0.66795(3) -0.303276(12) 0.003181(18)
Zn1G Zn 1.83205(3) -0.196724(12) 0.503181(18)
N1D N 0.9592(2) 0.14357(8) -0.07827(13)
N1G N 2.0408(2) 0.14357(8) 0.57827(13)
O4D O 0.7249(2) 0.19912(7) -0.10725(12)
O4G O 2.2751(2) 0.19912(7) 0.60725(12)
O5D O 1.00958(19) 0.24297(7) -0.00742(12)
O5G O 1.99042(19) 0.24297(7) 0.50742(12)
O6E O 2.27674(19) 0.25910(8) 0.44016(12)
O6F O 0.72326(19) 0.25910(8) 0.05984(12)
O9 O 0.6218(4) 0.04071(16) -0.0291(2)
loop_
_geom_bond_atom_site_label_1
_geom_bond_atom_site_label_2
_geom_bond_site_symmetry_1
_geom_bond_site_symmetry_2
Zn1 O1 1_555 1_555
Zn2 O3 1_555 1_555
C1 C2 1_555 1_555
C2 C3 1_555 1_555
C3 H1 1_555 1_555
C4 C3 1_555 1_555
H2 C4 1_555 1_555
C5 C4 1_555 1_555
H3 C5 1_555 1_555
C6 C5 1_555 1_555
H4 C6 1_555 1_555
C7 C2 1_555 1_555
C8 C7 1_555 1_555
C9 C8 1_555 1_555
H5 C9 1_555 1_555
C10 C9 1_555 1_555
H6 C10 1_555 1_555
C11 C10 1_555 1_555
C12 C11 1_555 1_555
H7 C12 1_555 1_555
C13 C8 1_555 1_555
H8 C13 1_555 1_555
C14 C11 1_555 1_555
H9 C14 1_555 1_555
H10 C14 1_555 1_555
C15 H11 1_555 1_555
H12 C15 1_555 1_555
C16 C15 1_555 1_555
C17 H13 1_555 1_555
H14 C17 1_555 1_555
C18 C17 1_555 1_555
N1 C14 1_555 1_555
O1 C1 1_555 1_555
O2 Zn1 1_555 1_555
O3 C18 1_555 1_555
O4 C18 1_555 1_555
O5 C16 1_555 1_555
O6 C16 1_555 1_555
O7 Zn2 1_555 1_555
H15 O7 1_555 1_555
H16 O7 1_555 1_555
O8 Zn2 1_555 1_555
H17 O8 1_555 1_555
H17C O8 1_555 1_555
Zn1C O1C 1_555 1_555
C1C C2C 1_555 1_555
C2C C3C 1_555 1_555
C3C H1C 1_555 1_555
C4C C3C 1_555 1_555
H2C C4C 1_555 1_555
C5C C4C 1_555 1_555
H3C C5C 1_555 1_555
C6C C5C 1_555 1_555
H4C C6C 1_555 1_555
C7C C2C 1_555 1_555
C8C C7C 1_555 1_555
C9C C8C 1_555 1_555
H5C C9C 1_555 1_555
C10C C9C 1_555 1_555
H6C C10C 1_555 1_555
C11C C10C 1_555 1_555
C12C C11C 1_555 1_555
H7C C12C 1_555 1_555
C13C C8C 1_555 1_555
H8C C13C 1_555 1_555
C14C C11C 1_555 1_555
H9C C14C 1_555 1_555
H10C C14C 1_555 1_555
C15C H11C 1_555 1_555
H12C C15C 1_555 1_555
C16C C15C 1_555 1_555
C17C H13C 1_555 1_555
H14C C17C 1_555 1_555
C18C C17C 1_555 1_555
N1C C14C 1_555 1_555
O1C C1C 1_555 1_555
O2C Zn1C 1_555 1_555
O3C Zn2 1_555 1_555
O4C C18C 1_555 1_555
O5C C16C 1_555 1_555
O6C C16C 1_555 1_555
O7C Zn2 1_555 1_555
H15C O7C 1_555 1_555
H16C O7C 1_555 1_555
Zn1D N1 1_555 1_555
Zn1E O6C 1_555 1_555
Zn1F O6 1_555 1_555
Zn1G N1C 1_555 1_555
N1D Zn1 1_555 1_555
N1G Zn1C 1_555 1_555
O4D Zn1 1_555 1_555
O4G Zn1C 1_555 1_555
O5D Zn1 1_555 1_555
O5G Zn1C 1_555 1_555
O6E Zn1C 1_555 1_555
O6F Zn1 1_555 1_555
C1 O2 1_555 1_555
C6 C7 1_555 1_555
C12 C13 1_555 1_555
C15 N1 1_555 1_555
C17 N1 1_555 1_555
O4 Zn1D 1_555 1_555
O5 Zn1D 1_555 1_555
C1C O2C 1_555 1_555
C6C C7C 1_555 1_555
C12C C13C 1_555 1_555
C15C N1C 1_555 1_555
C17C N1C 1_555 1_555
C18C O3C 1_555 1_555
O4C Zn1G 1_555 1_555
O5C Zn1G 1_555 1_555

#END
