
#######################################################################
#
#                 Cambridge Crystallographic Data Centre
#                                CCDC 
#
#######################################################################
#
# If this CIF has been generated from an entry in the Cambridge 
# Structural Database, then it will include bibliographic, chemical, 
# crystal, experimental, refinement or atomic coordinate data resulting 
# from the CCDC's data processing and validation procedures.
#
#######################################################################

data_YIBRUY
_symmetry_cell_setting           triclinic
_symmetry_space_group_name_H-M   'P -1'
_symmetry_Int_Tables_number      2
_space_group_name_Hall           '-P 1'
loop_
_symmetry_equiv_pos_site_id
_symmetry_equiv_pos_as_xyz
1 x,y,z
2 -x,-y,-z
_cell_length_a                   8.6280(4)
_cell_length_b                   11.7140(6)
_cell_length_c                   16.5560(8)
_cell_angle_alpha                78.743(4)
_cell_angle_beta                 80.461(4)
_cell_angle_gamma                84.379(4)
_cell_volume                     1614.68
loop_
_atom_site_label
_atom_site_type_symbol
_atom_site_fract_x
_atom_site_fract_y
_atom_site_fract_z
Co1 Co 0.5000 0.5000 0.0000
C1 C 0.2365(3) 0.6732(2) 0.06485(18)
H1 H 0.1923 0.6811 0.0164
C2 C 0.3866(3) 0.6183(3) 0.15834(17)
H2 H 0.4673 0.5805 0.1865
C3 C 0.2739(4) 0.6953(3) 0.18748(19)
H3 H 0.2629 0.7197 0.2384
C4 C 0.0333(4) 0.8052(3) 0.1362(2)
H4 H 0.0256 0.8366 0.1869
H5 H -0.0553 0.7576 0.1424
C5 C 0.0198(3) 0.9051(2) 0.0645(2)
C6 C 0.0874(4) 1.0094(3) 0.0609(2)
H6 H 0.1463 1.0164 0.1017
C7 C -0.0678(4) 0.8979(3) 0.0026(2)
H7 H -0.1141 0.8289 0.0042
N1 N 0.1797(3) 0.73007(19) 0.12748(15)
N2 N 0.3630(3) 0.60455(18) 0.08037(14)
O1 O 0.5404(3) 0.36906(18) 0.10483(13)
H8 H 0.585(4) 0.381(3) 0.138(2)
H9 H 0.468(4) 0.338(3) 0.132(2)
O2 O 0.7058(3) 0.5773(2) 0.00647(14)
H10 H 0.732(5) 0.626(3) -0.027(2)
H11 H 0.726(4) 0.590(3) 0.049(2)
C1A C -0.2365(3) 1.3268(2) -0.06485(18)
H1A H -0.1923 1.3189 -0.0164
C2A C -0.3866(3) 1.3817(3) -0.15834(17)
H2A H -0.4673 1.4195 -0.1865
C3A C -0.2739(4) 1.3047(3) -0.18748(19)
H3A H -0.2629 1.2803 -0.2384
C4A C -0.0333(4) 1.1948(3) -0.1362(2)
H4A H -0.0256 1.1634 -0.1869
H5A H 0.0553 1.2424 -0.1424
C5A C -0.0198(3) 1.0949(2) -0.0645(2)
C6A C -0.0874(4) 0.9906(3) -0.0609(2)
H6A H -0.1463 0.9836 -0.1017
C7A C 0.0678(4) 1.1021(3) -0.0026(2)
H7A H 0.1141 1.1711 -0.0042
N1A N -0.1797(3) 1.26993(19) -0.12748(15)
N2A N -0.3630(3) 1.39545(18) -0.08037(14)
O1A O 0.4596(3) 0.63094(18) -0.10483(13)
H8A H 0.415(4) 0.619(3) -0.138(2)
H9A H 0.532(4) 0.662(3) -0.132(2)
O2A O 0.2942(3) 0.4227(2) -0.00647(14)
H10A H 0.268(5) 0.374(3) 0.027(2)
H11A H 0.274(4) 0.410(3) -0.049(2)
Co1_2 Co -0.5000 1.5000 0.0000
N2A_2 N 0.6370(3) 0.39545(18) -0.08037(14)
Co2 Co -0.17922(4) 0.27211(3) 0.28662(2)
C8 C 0.5996(3) 0.7240(3) 0.35687(18)
H12 H 0.6120 0.6784 0.3158
C9 C 0.7156(3) 0.7976(3) 0.35739(19)
H13 H 0.8048 0.8007 0.3171
C10 C 0.6989(4) 0.8657(3) 0.41723(19)
H14 H 0.7768 0.9149 0.4180
C11 C 0.5656(3) 0.8606(2) 0.47637(18)
H15 H 0.5545 0.9071 0.5168
C12 C 0.4475(3) 0.7876(2) 0.47707(16)
C13 C 0.4647(3) 0.7168(2) 0.41651(16)
C14 C 0.3099(3) 0.7847(3) 0.54723(18)
C15 C 0.3467(3) 0.6338(2) 0.41321(15)
C16 C 0.1865(3) 0.6675(2) 0.41356(16)
H16 H 0.1497 0.7432 0.4194
C17 C 0.0821(3) 0.5896(2) 0.40530(16)
H17 H -0.0242 0.6133 0.4067
C18 C 0.1339(3) 0.4755(2) 0.39490(16)
C19 C 0.2911(4) 0.4420(3) 0.39713(19)
H18 H 0.3272 0.3656 0.3930
C20 C 0.3969(4) 0.5195(3) 0.40544(19)
H19 H 0.5026 0.4946 0.4058
C21 C 0.0222(4) 0.3904(3) 0.38283(18)
H20 H 0.0665 0.3119 0.4006
H21 H -0.0762 0.4007 0.4195
C22 C -0.0999(4) 0.5124(3) 0.2713(2)
H22 H -0.0251 0.5721 0.2521
H23 H -0.1702 0.5333 0.3191
C23 C -0.1950(3) 0.5093(3) 0.20257(18)
C24 C 0.1218(5) 0.3882(4) 0.2319(3)
C25 C 0.1303(3) 0.2745(2) 0.19809(17)
C26 C -0.2866(3) 0.0767(2) 0.21422(17)
H24 H -0.1871 0.0641 0.1844
C27 C -0.4782(3) 0.1446(3) 0.29350(18)
H25 H -0.5374 0.1894 0.3297
C28 C -0.5337(3) 0.0599(3) 0.26363(19)
H26 H -0.6358 0.0357 0.2754
C29 C -0.4154(4) -0.0751(2) 0.16585(18)
H27 H -0.4897 -0.1303 0.1975
H28 H -0.3122 -0.1164 0.1600
C30 C -0.4610(3) -0.0331(2) 0.08050(16)
C31 C -0.4850(3) 0.0833(2) 0.04609(17)
H29 H -0.4752 0.1402 0.0766
C32 C -0.4766(3) -0.1158(2) 0.03318(17)
H30 H -0.4609 -0.1946 0.0554
N3 N -0.0139(2) 0.39951(19) 0.29727(13)
N4 N -0.3221(2) 0.15484(19) 0.26254(13)
N5 N -0.4111(3) 0.01716(19) 0.21301(13)
O3 O 0.3152(2) 0.70002(19) 0.60706(12)
O4 O 0.2050(3) 0.8640(2) 0.54595(17)
O5 O 0.2421(2) 0.26100(19) 0.14325(13)
O6 O 0.0190(2) 0.20709(18) 0.22454(14)
O7 O -0.2222(3) 0.60094(19) 0.15475(14)
O8 O -0.2468(2) 0.41203(17) 0.20238(12)
C26A C -0.7134(3) -0.0767(2) -0.21422(17)
H24A H -0.8129 -0.0641 -0.1844
C27A C -0.5218(3) -0.1446(3) -0.29350(18)
H25A H -0.4626 -0.1894 -0.3297
C28A C -0.4663(3) -0.0599(3) -0.26363(19)
H26A H -0.3642 -0.0357 -0.2754
C29A C -0.5846(4) 0.0751(2) -0.16585(18)
H27A H -0.5103 0.1303 -0.1975
H28A H -0.6878 0.1164 -0.1600
C30A C -0.5390(3) 0.0331(2) -0.08050(16)
C31A C -0.5150(3) -0.0833(2) -0.04609(17)
H29A H -0.5248 -0.1402 -0.0766
C32A C -0.5234(3) 0.1158(2) -0.03318(17)
H30A H -0.5391 0.1946 -0.0554
N4A N -0.6779(2) -0.15484(19) -0.26254(13)
N5A N -0.5889(3) -0.01716(19) -0.21301(13)
Co2A Co -0.82078(4) -0.27211(3) -0.28662(2)
C8A C -1.5996(3) -0.7240(3) -0.35687(18)
H12A H -1.6120 -0.6784 -0.3158
C9A C -1.7156(3) -0.7976(3) -0.35739(19)
H13A H -1.8048 -0.8007 -0.3171
C10A C -1.6989(4) -0.8657(3) -0.41723(19)
H14A H -1.7768 -0.9149 -0.4180
C11A C -1.5656(3) -0.8606(2) -0.47637(18)
H15A H -1.5545 -0.9071 -0.5168
C12A C -1.4475(3) -0.7876(2) -0.47707(16)
C13A C -1.4647(3) -0.7168(2) -0.41651(16)
C14A C -1.3099(3) -0.7847(3) -0.54723(18)
C15A C -1.3467(3) -0.6338(2) -0.41321(15)
C16A C -1.1865(3) -0.6675(2) -0.41356(16)
H16A H -1.1497 -0.7432 -0.4194
C17A C -1.0821(3) -0.5896(2) -0.40530(16)
H17A H -0.9758 -0.6133 -0.4067
C18A C -1.1339(3) -0.4755(2) -0.39490(16)
C19A C -1.2911(4) -0.4420(3) -0.39713(19)
H18A H -1.3272 -0.3656 -0.3930
C20A C -1.3969(4) -0.5195(3) -0.40544(19)
H19A H -1.5026 -0.4946 -0.4058
C21A C -1.0222(4) -0.3904(3) -0.38283(18)
H20A H -1.0665 -0.3119 -0.4006
H21A H -0.9238 -0.4007 -0.4195
C22A C -0.9001(4) -0.5124(3) -0.2713(2)
H22A H -0.9749 -0.5721 -0.2521
H23A H -0.8298 -0.5333 -0.3191
C23A C -0.8050(3) -0.5093(3) -0.20257(18)
C24A C -1.1218(5) -0.3882(4) -0.2319(3)
C25A C -1.1303(3) -0.2745(2) -0.19809(17)
N3A N -0.9861(2) -0.39951(19) -0.29727(13)
O3A O -1.3152(2) -0.70002(19) -0.60706(12)
O4A O -1.2050(3) -0.8640(2) -0.54595(17)
O5A O -1.2421(2) -0.26100(19) -0.14325(13)
O6A O -1.0190(2) -0.20709(18) -0.22454(14)
O7A O -0.7778(3) -0.60094(19) -0.15475(14)
O8A O -0.7532(2) -0.41203(17) -0.20238(12)
Co2_2 Co -1.17922(4) -0.72789(3) -0.71338(2)
Co2A_2 Co 0.17922(4) 0.72789(3) 0.71338(2)
O3_2 O -0.6848(2) -0.29998(19) -0.39294(12)
O3A_2 O -0.3152(2) 0.29998(19) 0.39294(12)
O9 O 0.0904(4) 0.9573(3) 0.2759(2)
H31 H 0.112(7) 0.960(4) 0.3282(14)
H32 H 0.080(7) 1.0335(15) 0.252(3)
O10 O 0.1302(4) 1.0448(5) 0.4132(2)
H33 H 0.130(7) 0.974(3) 0.449(4)
H34 H 0.031(3) 1.078(5) 0.426(4)
C33? C 0.164(2) 0.3449(18) 0.2641(12)
loop_
_geom_bond_atom_site_label_1
_geom_bond_atom_site_label_2
_geom_bond_site_symmetry_1
_geom_bond_site_symmetry_2
Co1 N2 1_555 1_555
C1 H1 1_555 1_555
C2 H2 1_555 1_555
C3 C2 1_555 1_555
H3 C3 1_555 1_555
C4 H4 1_555 1_555
H5 C4 1_555 1_555
C5 C4 1_555 1_555
C6 C5 1_555 1_555
H6 C6 1_555 1_555
C7 C5 1_555 1_555
H7 C7 1_555 1_555
N1 C1 1_555 1_555
N2 C1 1_555 1_555
O1 Co1 1_555 1_555
H8 O1 1_555 1_555
H9 O1 1_555 1_555
O2 Co1 1_555 1_555
H10 O2 1_555 1_555
H11 O2 1_555 1_555
Co2 N3 1_555 1_555
C8 H12 1_555 1_555
C9 C8 1_555 1_555
H13 C9 1_555 1_555
C10 C9 1_555 1_555
H14 C10 1_555 1_555
C11 C10 1_555 1_555
H15 C11 1_555 1_555
C12 C11 1_555 1_555
C13 C8 1_555 1_555
C14 C12 1_555 1_555
C15 C13 1_555 1_555
C16 C15 1_555 1_555
H16 C16 1_555 1_555
C17 C16 1_555 1_555
H17 C17 1_555 1_555
C18 C17 1_555 1_555
C19 C18 1_555 1_555
H18 C19 1_555 1_555
C20 C15 1_555 1_555
H19 C20 1_555 1_555
C21 C18 1_555 1_555
H20 C21 1_555 1_555
H21 C21 1_555 1_555
C22 H22 1_555 1_555
H23 C22 1_555 1_555
C23 C22 1_555 1_555
C24 C25 1_555 1_555
C25 O5 1_555 1_555
C26 H24 1_555 1_555
C27 H25 1_555 1_555
C28 C27 1_555 1_555
H26 C28 1_555 1_555
C29 H27 1_555 1_555
H28 C29 1_555 1_555
C30 C29 1_555 1_555
C31 C30 1_555 1_555
H29 C31 1_555 1_555
C32 C30 1_555 1_555
H30 C32 1_555 1_555
N3 C21 1_555 1_555
N4 Co2 1_555 1_555
N5 C26 1_555 1_555
O3 C14 1_555 1_555
O4 C14 1_555 1_555
O6 Co2 1_555 1_555
O7 C23 1_555 1_555
O8 Co2 1_555 1_555
O9 H31 1_555 1_555
H32 O9 1_555 1_555
O10 H33 1_555 1_555
H34 O10 1_555 1_555
C1A H1A 1_555 1_555
C2A H2A 1_555 1_555
C3A C2A 1_555 1_555
H3A C3A 1_555 1_555
C4A H4A 1_555 1_555
H5A C4A 1_555 1_555
C5A C4A 1_555 1_555
C6A C7 1_555 1_555
H6A C6A 1_555 1_555
C7A C6 1_555 1_555
H7A C7A 1_555 1_555
N1A C1A 1_555 1_555
N2A C1A 1_555 1_555
O1A Co1 1_555 1_555
H8A O1A 1_555 1_555
H9A O1A 1_555 1_555
O2A Co1 1_555 1_555
H10A O2A 1_555 1_555
H11A O2A 1_555 1_555
Co1_2 N2A 1_555 1_555
N2A_2 Co1 1_555 1_555
C26A H24A 1_555 1_555
C27A H25A 1_555 1_555
C28A C27A 1_555 1_555
H26A C28A 1_555 1_555
C29A H27A 1_555 1_555
H28A C29A 1_555 1_555
C30A C29A 1_555 1_555
C31A C32 1_555 1_555
H29A C31A 1_555 1_555
C32A C31 1_555 1_555
H30A C32A 1_555 1_555
N4A C26A 1_555 1_555
N5A C26A 1_555 1_555
Co2A N4A 1_555 1_555
C8A H12A 1_555 1_555
C9A C8A 1_555 1_555
H13A C9A 1_555 1_555
C10A C9A 1_555 1_555
H14A C10A 1_555 1_555
C11A C10A 1_555 1_555
H15A C11A 1_555 1_555
C12A C11A 1_555 1_555
C13A C8A 1_555 1_555
C14A C12A 1_555 1_555
C15A C13A 1_555 1_555
C16A C15A 1_555 1_555
H16A C16A 1_555 1_555
C17A C16A 1_555 1_555
H17A C17A 1_555 1_555
C18A C17A 1_555 1_555
C19A C18A 1_555 1_555
H18A C19A 1_555 1_555
C20A C15A 1_555 1_555
H19A C20A 1_555 1_555
C21A C18A 1_555 1_555
H20A C21A 1_555 1_555
H21A C21A 1_555 1_555
C22A H22A 1_555 1_555
H23A C22A 1_555 1_555
C23A C22A 1_555 1_555
C24A C25A 1_555 1_555
C25A O5A 1_555 1_555
N3A Co2A 1_555 1_555
O3A C14A 1_555 1_555
O4A C14A 1_555 1_555
O6A Co2A 1_555 1_555
O7A C23A 1_555 1_555
O8A Co2A 1_555 1_555
Co2_2 O3A 1_555 1_555
Co2A_2 O3 1_555 1_555
O3_2 Co2A 1_555 1_555
O3A_2 Co2 1_555 1_555
C2 N2 1_555 1_555
C3 N1 1_555 1_555
C4 N1 1_555 1_555
C12 C13 1_555 1_555
C19 C20 1_555 1_555
C22 N3 1_555 1_555
C23 O8 1_555 1_555
C24 N3 1_555 1_555
C25 O6 1_555 1_555
C26 N4 1_555 1_555
C27 N4 1_555 1_555
C28 N5 1_555 1_555
C29 N5 1_555 1_555
C2A N2A 1_555 1_555
C3A N1A 1_555 1_555
C4A N1A 1_555 1_555
C5A C6A 1_555 1_555
C5A C7A 1_555 1_555
C27A N4A 1_555 1_555
C28A N5A 1_555 1_555
C29A N5A 1_555 1_555
C30A C31A 1_555 1_555
C30A C32A 1_555 1_555
C12A C13A 1_555 1_555
C19A C20A 1_555 1_555
C21A N3A 1_555 1_555
C22A N3A 1_555 1_555
C23A O8A 1_555 1_555
C24A N3A 1_555 1_555
C25A O6A 1_555 1_555

#END
