
#######################################################################
#
#                 Cambridge Crystallographic Data Centre
#                                CCDC 
#
#######################################################################
#
# If this CIF has been generated from an entry in the Cambridge 
# Structural Database, then it will include bibliographic, chemical, 
# crystal, experimental, refinement or atomic coordinate data resulting 
# from the CCDC's data processing and validation procedures.
#
#######################################################################

data_YIBVAI
_symmetry_cell_setting           orthorhombic
_symmetry_space_group_name_H-M   'P 21 21 21'
_symmetry_Int_Tables_number      19
_space_group_name_Hall           'P 2ac 2ab'
loop_
_symmetry_equiv_pos_site_id
_symmetry_equiv_pos_as_xyz
1 x,y,z
2 1/2-x,-y,1/2+z
3 -x,1/2+y,1/2-z
4 1/2+x,1/2-y,-z
_cell_length_a                   9.5958(19)
_cell_length_b                   10.990(2)
_cell_length_c                   12.258(3)
_cell_angle_alpha                90
_cell_angle_beta                 90
_cell_angle_gamma                90
_cell_volume                     1292.7
loop_
_atom_site_label
_atom_site_type_symbol
_atom_site_fract_x
_atom_site_fract_y
_atom_site_fract_z
C1 C 0.2577(2) 0.3355(2) 0.1847(2)
H1 H 0.1839 0.3378 0.1319
H2 H 0.2469 0.4019 0.2349
H3 H 0.2540 0.2599 0.2238
C2 C 0.4132(2) 0.4482(2) 0.0686(2)
C3 C 0.3163(3) 0.5395(2) 0.05258(19)
H4 H 0.2289 0.5339 0.0850
C4 C 0.3490(3) 0.6399(2) -0.01197(19)
H5 H 0.2837 0.7013 -0.0225
C5 C 0.4777(3) 0.6479(2) -0.0600(2)
H6 H 0.4992 0.7152 -0.1028
C6 C 0.5780(2) 0.5556(2) -0.04527(19)
C7 C 0.5470(2) 0.4538(2) 0.0205(2)
C8 C 0.7098(3) 0.5697(2) -0.10035(18)
H7 H 0.7172 0.6340 -0.1493
C9 C 0.9474(2) 0.5323(2) -0.1447(2)
H8 H 0.9976 0.5948 -0.1050
H9 H 0.9279 0.5622 -0.2176
C10 C 1.0343(3) 0.4159(2) -0.1506(2)
H10 H 0.9946 0.3594 -0.2029
H11 H 1.1293 0.4341 -0.1721
C11 C 0.9031(2) 0.1775(2) 0.1857(2)
C12 C 1.0422(3) 0.0636(2) 0.3013(2)
N1 N 0.8174(2) 0.50263(17) -0.08856(15)
N2 N 0.87111(19) 0.24900(17) 0.12304(17)
N3 N 0.9217(2) 0.0954(2) 0.25908(18)
N4 N 1.1397(2) 0.02875(19) 0.34532(17)
O1 O 0.38960(16) 0.34580(15) 0.13017(13)
O2 O 0.63391(14) 0.36124(13) 0.03682(12)
O3 O 1.03051(16) 0.36558(14) -0.04245(13)
H12 H 1.055(2) 0.2949(10) -0.0384(16)
Cu1 Cu 0.83362(3) 0.37728(3) 0.01982(2)
N4B N 0.8603(2) 0.52875(19) 0.15468(17)
Cu1B Cu 1.16638(3) -0.12272(3) 0.48018(2)
loop_
_geom_bond_atom_site_label_1
_geom_bond_atom_site_label_2
_geom_bond_site_symmetry_1
_geom_bond_site_symmetry_2
C1 H1 1_555 1_555
H2 C1 1_555 1_555
H3 C1 1_555 1_555
C2 C3 1_555 1_555
C3 H4 1_555 1_555
C4 C3 1_555 1_555
H5 C4 1_555 1_555
C5 C4 1_555 1_555
H6 C5 1_555 1_555
C6 C5 1_555 1_555
C7 C2 1_555 1_555
C8 C6 1_555 1_555
H7 C8 1_555 1_555
C9 H8 1_555 1_555
H9 C9 1_555 1_555
C10 C9 1_555 1_555
H10 C10 1_555 1_555
H11 C10 1_555 1_555
C11 N2 1_555 1_555
C12 N3 1_555 1_555
N1 C8 1_555 1_555
N2 Cu1 1_555 1_555
N3 C11 1_555 1_555
N4 C12 1_555 1_555
O1 C1 1_555 1_555
O2 C7 1_555 1_555
O3 C10 1_555 1_555
H12 O3 1_555 1_555
Cu1 N1 1_555 1_555
N4B Cu1 1_555 1_555
Cu1B N4 1_555 1_555
C2 O1 1_555 1_555
C6 C7 1_555 1_555
C9 N1 1_555 1_555
O2 Cu1 1_555 1_555
O3 Cu1 1_555 1_555

#END
