
#######################################################################
#
#                 Cambridge Crystallographic Data Centre
#                                CCDC 
#
#######################################################################
#
# If this CIF has been generated from an entry in the Cambridge 
# Structural Database, then it will include bibliographic, chemical, 
# crystal, experimental, refinement or atomic coordinate data resulting 
# from the CCDC's data processing and validation procedures.
#
#######################################################################

data_YIBWAH
_symmetry_cell_setting           monoclinic
_symmetry_space_group_name_H-M   'P 21/c'
_symmetry_Int_Tables_number      14
_space_group_name_Hall           '-P 2ybc'
loop_
_symmetry_equiv_pos_site_id
_symmetry_equiv_pos_as_xyz
1 x,y,z
2 -x,1/2+y,1/2-z
3 -x,-y,-z
4 x,1/2-y,1/2+z
_cell_length_a                   8.203(1)
_cell_length_b                   20.908(5)
_cell_length_c                   13.644(5)
_cell_angle_alpha                90
_cell_angle_beta                 98.35(2)
_cell_angle_gamma                90
_cell_volume                     2315.25
loop_
_atom_site_label
_atom_site_type_symbol
_atom_site_fract_x
_atom_site_fract_y
_atom_site_fract_z
Pd1 Pd 0.02038(3) 0.16417(1) 0.28336(2)
Na1 Na -0.5815(2) 0.17146(8) 0.3878(1)
Na2 Na -0.4042(2) 0.13811(9) 0.2051(1)
O2 O -0.3051(3) 0.1380(2) 0.3755(2)
O3 O -0.2056(3) 0.0676(2) 0.1674(2)
O4 O 0.3461(3) 0.0965(1) 0.2495(2)
O5 O 0.2449(3) 0.1061(2) 0.4539(2)
O6 O -0.5629(7) 0.3445(2) 0.5448(3)
O7 O -0.7206(5) 0.2680(3) 0.4784(3)
O8 O -0.4604(5) 0.2622(2) 0.4824(4)
O9 O -0.5632(5) 0.2323(2) 0.2431(3)
O10 O -0.3475(6) 0.2817(5) 0.2299(5)
O11 O -0.559(1) 0.3330(3) 0.2470(9)
N1 N -0.2104(4) 0.0868(2) 0.5246(2)
N2 N -0.0332(4) -0.0147(2) 0.1329(2)
N3 N 0.0775(4) 0.2119(2) 0.1637(2)
N4 N -0.0301(3) 0.1216(2) 0.4108(2)
N5 N 0.0689(3) 0.0793(2) 0.2200(2)
N6 N -0.0303(4) 0.2530(2) 0.3326(2)
N7 N -0.5831(5) 0.2928(2) 0.5027(3)
N8 N -0.4897(5) 0.2847(2) 0.2411(3)
C1 C -0.3785(5) 0.0819(3) 0.5516(4)
C2 C -0.1741(5) -0.0541(2) 0.0843(3)
C3 C -0.1885(4) 0.1169(2) 0.4332(3)
C4 C -0.0632(4) 0.0455(2) 0.1735(3)
C5 C 0.10476(4) 0.0991(2) 0.4735(3)
C6 C 0.2298(4) 0.0612(2) 0.2172(3)
C7 C 0.2552(4) 0.0019(2) 0.1753(3)
C8 C 0.0782(4) 0.0692(2) 0.5611(2)
C9 C 0.2224(5) 0.0469(2) 0.6301(3)
C10 C 0.4251(5) -0.0196(2) 0.1682(4)
C11 C 0.1240(5) -0.0344(2) 0.1356(3)
C12 C -0.0777(4) 0.0638(2) 0.5838(3)
C13 C 0.0329(6) 0.3015(2) 0.2676(3)
C14 C 0.0105(6) 0.2776(2) 0.1638(3)
O4_2 O -0.6539(3) 0.0965(1) 0.2495(2)
O5_2 O -0.7551(3) 0.1061(2) 0.4539(2)
O6C O -0.5629(7) 0.1555(2) 0.0448(3)
Na1_2 Na 0.4185(2) 0.17146(8) 0.3878(1)
Na2_2 Na 0.5958(2) 0.13811(9) 0.2051(1)
Na2C Na -0.4042(2) 0.36189(9) 0.7051(1)
O1 O 1.8231(5) 0.1620(2) 0.0024(3)
loop_
_geom_bond_atom_site_label_1
_geom_bond_atom_site_label_2
_geom_bond_site_symmetry_1
_geom_bond_site_symmetry_2
Pd1 N3 1_555 1_555
Na1 O2 1_555 1_555
Na2 O2 1_555 1_555
O2 C3 1_555 1_555
O3 Na2 1_555 1_555
O4 C6 1_555 1_555
O5 C5 1_555 1_555
O6 N7 1_555 1_555
O7 N7 1_555 1_555
O8 Na1 1_555 1_555
O9 Na1 1_555 1_555
O10 N8 1_555 1_555
O11 N8 1_555 1_555
N1 C1 1_555 1_555
N2 C2 1_555 1_555
N3 C14 1_555 1_555
N4 Pd1 1_555 1_555
N5 Pd1 1_555 1_555
N6 Pd1 1_555 1_555
N7 O8 1_555 1_555
N8 O9 1_555 1_555
C3 N1 1_555 1_555
C4 O3 1_555 1_555
C5 N4 1_555 1_555
C6 N5 1_555 1_555
C7 C6 1_555 1_555
C8 C5 1_555 1_555
C9 C8 1_555 1_555
C10 C7 1_555 1_555
C11 N2 1_555 1_555
C12 N1 1_555 1_555
C13 N6 1_555 1_555
C14 C13 1_555 1_555
O4_2 Na1 1_555 1_555
O5_2 Na1 1_555 1_555
O6C Na2 1_555 1_555
Na1_2 O4 1_555 1_555
Na2_2 O4 1_555 1_555
Na2C O6 1_555 1_555
Na2 O9 1_555 1_555
Na2 O4_2 1_555 1_555
O5 Na1_2 1_555 1_555
N2 C4 1_555 1_555
N4 C3 1_555 1_555
N5 C4 1_555 1_555
C7 C11 1_555 1_555
C8 C12 1_555 1_555

#END
