
#######################################################################
#
#                 Cambridge Crystallographic Data Centre
#                                CCDC 
#
#######################################################################
#
# If this CIF has been generated from an entry in the Cambridge 
# Structural Database, then it will include bibliographic, chemical, 
# crystal, experimental, refinement or atomic coordinate data resulting 
# from the CCDC's data processing and validation procedures.
#
#######################################################################

data_YIBWUD
_symmetry_cell_setting           monoclinic
_symmetry_space_group_name_H-M   'P 21/m'
_symmetry_Int_Tables_number      11
_space_group_name_Hall           '-P 2yb'
loop_
_symmetry_equiv_pos_site_id
_symmetry_equiv_pos_as_xyz
1 x,y,z
2 -x,1/2+y,-z
3 -x,-y,-z
4 x,1/2-y,z
_cell_length_a                   6.8297(9)
_cell_length_b                   16.024(3)
_cell_length_c                   8.1490(13)
_cell_angle_alpha                90
_cell_angle_beta                 113.076(9)
_cell_angle_gamma                90
_cell_volume                     820.461
loop_
_atom_site_label
_atom_site_type_symbol
_atom_site_fract_x
_atom_site_fract_y
_atom_site_fract_z
Nd1 Nd 0.33771(4) 0.2500 0.96102(4)
O1 O 0.0503(5) 0.15260(19) 0.8092(4)
O2 O 0.2034(5) -0.0189(2) 0.9355(4)
O3 O -0.3796(5) -0.0349(2) 0.3735(4)
O4 O 0.5724(5) 0.34851(19) 0.8739(4)
O5 O 0.6866(6) 0.2500 1.2129(6)
H1 H 0.6821 0.2195 1.2921
O6 O 0.2741(7) 0.2500 0.6226(6)
O7 O 0.3849(5) 0.3778(2) 1.1459(4)
H2 H 0.3198 0.4167 1.0824
O8 O -0.0486(6) -0.1341(2) 0.6488(5)
O9 O -0.3324(5) 0.1392(2) 0.4945(5)
O10 O 0.0738(8) 0.2500 1.0997(7)
H3 H 0.1022 0.2875 1.1739
C1 C -0.0797(7) -0.0572(3) 0.6539(6)
C2 C 0.0499(6) -0.0001(3) 0.7950(5)
C3 C -0.2462(6) -0.0087(3) 0.5150(6)
C4 C -0.0270(6) 0.0845(3) 0.7376(6)
C5 C -0.2199(6) 0.0788(3) 0.5730(6)
Na1 Na 0.7219(4) 0.2500 0.7175(4)
H1C H 0.6821 0.2805 1.2921
H3C H 0.1022 0.2125 1.1739
O1C O 0.0503(5) 0.34740(19) 0.8092(4)
O2C O 0.2034(5) 0.5189(2) 0.9355(4)
O3C O -0.3796(5) 0.5349(2) 0.3735(4)
O4C O 0.5724(5) 0.15149(19) 0.8739(4)
O7C O 0.3849(5) 0.1222(2) 1.1459(4)
H2C H 0.3198 0.0833 1.0824
O8C O -0.0486(6) 0.6341(2) 0.6488(5)
O9C O -0.3324(5) 0.3608(2) 0.4945(5)
C1C C -0.0797(7) 0.5572(3) 0.6539(6)
C2C C 0.0499(6) 0.5001(3) 0.7950(5)
C3C C -0.2462(6) 0.5087(3) 0.5150(6)
C4C C -0.0270(6) 0.4155(3) 0.7376(6)
C5C C -0.2199(6) 0.4212(3) 0.5730(6)
O1_2 O 1.0503(5) 0.15260(19) 0.8092(4)
O1C_2 O 1.0503(5) 0.34740(19) 0.8092(4)
O9_2 O 0.6676(5) 0.1392(2) 0.4945(5)
O9C_2 O 0.6676(5) 0.3608(2) 0.4945(5)
O10_2 O 1.0738(8) 0.2500 1.0997(7)
Na1_2 Na -0.2781(4) 0.2500 0.7175(4)
loop_
_geom_bond_atom_site_label_1
_geom_bond_atom_site_label_2
_geom_bond_site_symmetry_1
_geom_bond_site_symmetry_2
Nd1 O1 1_555 1_555
O1 C4 1_555 1_555
O2 C2 1_555 1_555
O3 C3 1_555 1_555
O4 Nd1 1_555 1_555
O5 Nd1 1_555 1_555
H1 O5 1_555 1_555
O6 Nd1 1_555 1_555
O7 Nd1 1_555 1_555
H2 O7 1_555 1_555
O8 C1 1_555 1_555
O9 C5 1_555 1_555
O10 Nd1 1_555 1_555
H3 O10 1_555 1_555
C1 C2 1_555 1_555
C2 C4 1_555 1_555
C3 C1 1_555 1_555
C4 C5 1_555 1_555
C5 C3 1_555 1_555
Na1 O4 1_555 1_555
H1C O5 1_555 1_555
H3C O10 1_555 1_555
O1C Nd1 1_555 1_555
O2C C2C 1_555 1_555
O3C C3C 1_555 1_555
O4C Nd1 1_555 1_555
O7C Nd1 1_555 1_555
H2C O7C 1_555 1_555
O8C C1C 1_555 1_555
O9C C5C 1_555 1_555
C1C C2C 1_555 1_555
C2C C4C 1_555 1_555
C3C C1C 1_555 1_555
C4C O1C 1_555 1_555
C5C C3C 1_555 1_555
O1_2 Na1 1_555 1_555
O1C_2 Na1 1_555 1_555
O9_2 Na1 1_555 1_555
O9C_2 Na1 1_555 1_555
O10_2 Na1 1_555 1_555
Na1_2 O1 1_555 1_555
O6 Na1 1_555 1_555
O9 Na1_2 1_555 1_555
O10 Na1_2 1_555 1_555
Na1 O4C 1_555 1_555
O1C Na1_2 1_555 1_555
O9C Na1_2 1_555 1_555
C4C C5C 1_555 1_555

#END
