
#######################################################################
#
#                 Cambridge Crystallographic Data Centre
#                                CCDC 
#
#######################################################################
#
# If this CIF has been generated from an entry in the Cambridge 
# Structural Database, then it will include bibliographic, chemical, 
# crystal, experimental, refinement or atomic coordinate data resulting 
# from the CCDC's data processing and validation procedures.
#
#######################################################################

data_YICGAU
_symmetry_cell_setting           orthorhombic
_symmetry_space_group_name_H-M   'P b c n'
_symmetry_Int_Tables_number      60
_space_group_name_Hall           '-P 2n 2ab'
loop_
_symmetry_equiv_pos_site_id
_symmetry_equiv_pos_as_xyz
1 x,y,z
2 1/2-x,1/2-y,1/2+z
3 -x,y,1/2-z
4 1/2+x,1/2-y,-z
5 -x,-y,-z
6 1/2+x,1/2+y,1/2-z
7 x,-y,1/2+z
8 1/2-x,1/2+y,z
_cell_length_a                   30.546(2)
_cell_length_b                   12.7113(8)
_cell_length_c                   17.9776(12)
_cell_angle_alpha                90
_cell_angle_beta                 90
_cell_angle_gamma                90
_cell_volume                     6980.33
loop_
_atom_site_label
_atom_site_type_symbol
_atom_site_fract_x
_atom_site_fract_y
_atom_site_fract_z
N1 N 0.95243(8) -0.19200(19) 0.43416(15)
C1 C 0.92063(12) -0.1989(3) 0.3824(2)
H1 H 0.9171 -0.2622 0.3572
C2 C 0.95763(10) -0.0992(2) 0.46493(17)
H2 H 0.9807 -0.0912 0.4982
C3 C 0.89334(11) -0.1172(3) 0.36524(19)
H3 H 0.8713 -0.1267 0.3302
C4 C 0.93166(10) -0.0129(3) 0.45191(18)
H4 H 0.9364 0.0494 0.4777
C5 C 0.89815(9) -0.0197(2) 0.39972(17)
C6 C 0.86939(9) 0.0710(2) 0.38379(16)
C7 C 0.86017(10) 0.1449(3) 0.43874(18)
H5 H 0.8733 0.1384 0.4852
C8 C 0.83203(10) 0.2273(3) 0.42587(18)
H6 H 0.8260 0.2750 0.4638
O1 O 0.49342(8) -0.13076(19) 0.05397(12)
O2 O 0.48100(11) -0.29471(19) 0.08804(16)
C9 C 0.47808(11) -0.1984(2) 0.09852(18)
C10 C 0.45487(10) -0.1576(2) 0.16586(18)
C11 C 0.44183(15) -0.2272(3) 0.2207(2)
H7 H 0.4468 -0.2988 0.2143
Zn1 Zn 0.493089(11) 0.18539(3) 0.042446(19)
O3 O 0.49052(8) 0.08747(19) 0.12765(13)
N2 N 0.78266(9) 0.3233(2) 0.34355(16)
N3 N 0.55585(7) 0.23303(19) 0.07747(13)
C12 C 0.56460(10) 0.3242(2) 0.11116(17)
H8 H 0.5436 0.3771 0.1094
C13 C 0.68885(11) 0.1987(2) 0.24641(17)
H9 H 0.6747 0.1340 0.2450
C14 C 0.75032(10) 0.4588(3) 0.42279(19)
H10 H 0.7230 0.4275 0.4177
C15 C 0.78598(10) 0.4172(2) 0.38613(18)
C16 C 0.63458(9) 0.2656(2) 0.15357(15)
O4 O 0.43212(9) 0.0472(2) 0.06334(16)
C17 C 0.73212(10) 0.3891(2) 0.24916(17)
H11 H 0.7467 0.4533 0.2499
C18 C 0.82244(11) 0.1688(2) 0.30050(18)
H12 H 0.8104 0.1772 0.2534
C19 C 0.44641(10) -0.0503(2) 0.17449(17)
C20 C 0.74627(10) 0.3078(2) 0.29506(17)
C21 C 0.67432(9) 0.2803(2) 0.20040(16)
C22 C 0.81239(9) 0.2400(2) 0.35640(17)
C23 C 0.45652(10) 0.0306(2) 0.11639(18)
C24 C 0.62629(10) 0.1730(2) 0.11583(18)
H13 H 0.6472 0.1197 0.1156
C25 C 0.58720(10) 0.1590(3) 0.07833(19)
H14 H 0.5825 0.0963 0.0529
C26 C 0.69660(10) 0.3756(2) 0.20257(17)
H15 H 0.6875 0.4309 0.1724
C27 C 0.85036(10) 0.0854(2) 0.31456(17)
H16 H 0.8565 0.0379 0.2766
C28 C 0.75514(11) 0.5474(3) 0.46731(19)
H17 H 0.7308 0.5742 0.4920
C29 C 0.80064(12) 0.6936(3) 0.52188(18)
C30 C 0.79539(10) 0.5971(2) 0.47601(17)
C31 C 0.60312(10) 0.3439(2) 0.14827(17)
H18 H 0.6080 0.4094 0.1697
C32 C 0.72373(10) 0.2129(2) 0.29372(18)
H19 H 0.7323 0.1585 0.3251
C33 C 0.83061(11) 0.5537(3) 0.4385(2)
H20 H 0.8581 0.5844 0.4436
C34 C 0.82626(11) 0.4665(3) 0.3938(2)
H21 H 0.8505 0.4403 0.3685
N4 N 0.81052(15) 0.8818(3) 0.60443(19)
C35 C 0.84119(15) 0.7409(3) 0.5322(2)
H22 H 0.8662 0.7105 0.5120
C36 C 0.42643(14) -0.0159(3) 0.2392(2)
H23 H 0.4212 0.0556 0.2459
C37 C 0.84439(18) 0.8336(4) 0.5729(3)
H24 H 0.8719 0.8638 0.5783
C38 C 0.41410(17) -0.0865(4) 0.2940(2)
H25 H 0.4007 -0.0624 0.3372
C39 C 0.76604(15) 0.7437(3) 0.5565(2)
H26 H 0.7380 0.7153 0.5534
C40 C 0.42175(19) -0.1924(3) 0.2843(3)
H27 H 0.4133 -0.2402 0.3208
C41 C 0.77273(17) 0.8351(4) 0.5954(2)
H28 H 0.7484 0.8665 0.6172
N1E N 0.45243(8) 0.30800(19) 0.06584(15)
O1D O 0.50658(8) 0.13076(19) -0.05397(12)
Zn1D Zn 0.506911(11) -0.18539(3) -0.042446(19)
Zn1E Zn 0.993089(11) -0.31461(3) 0.457554(19)
O5 O 0.5000 0.2133(4) 0.2500
H29 H 0.5210 0.2513 0.2344
H29B H 0.4790 0.2513 0.2656
O6 O 0.54234(18) 0.5636(3) 0.1627(2)
H30 H 0.5377 0.5759 0.1169
H31 H 0.5190 0.5408 0.1827
O7 O 0.5000 0.4240(6) 0.2500
H32 H 0.5127 0.4107 0.2090
H32B H 0.4873 0.4107 0.2910
H33? H 0.5100 0.1554 0.2663
H34? H 0.4870 0.3690 0.2654
loop_
_geom_bond_atom_site_label_1
_geom_bond_atom_site_label_2
_geom_bond_site_symmetry_1
_geom_bond_site_symmetry_2
N1 C1 1_555 1_555
C1 H1 1_555 1_555
C2 N1 1_555 1_555
H2 C2 1_555 1_555
C3 C1 1_555 1_555
H3 C3 1_555 1_555
C4 C2 1_555 1_555
H4 C4 1_555 1_555
C5 C3 1_555 1_555
C6 C5 1_555 1_555
C7 C6 1_555 1_555
H5 C7 1_555 1_555
C8 C7 1_555 1_555
H6 C8 1_555 1_555
O1 C9 1_555 1_555
O2 C9 1_555 1_555
C9 C10 1_555 1_555
C10 C11 1_555 1_555
C11 H7 1_555 1_555
Zn1 O3 1_555 1_555
O3 C23 1_555 1_555
N2 C15 1_555 1_555
N3 Zn1 1_555 1_555
C12 N3 1_555 1_555
H8 C12 1_555 1_555
C13 H9 1_555 1_555
C14 H10 1_555 1_555
C15 C14 1_555 1_555
C16 C21 1_555 1_555
O4 C23 1_555 1_555
C17 H11 1_555 1_555
C18 H12 1_555 1_555
C19 C10 1_555 1_555
C20 N2 1_555 1_555
C21 C13 1_555 1_555
C22 C8 1_555 1_555
C23 C19 1_555 1_555
C24 C16 1_555 1_555
H13 C24 1_555 1_555
C25 N3 1_555 1_555
H14 C25 1_555 1_555
C26 C17 1_555 1_555
H15 C26 1_555 1_555
C27 C6 1_555 1_555
H16 C27 1_555 1_555
C28 C14 1_555 1_555
H17 C28 1_555 1_555
C29 C30 1_555 1_555
C30 C28 1_555 1_555
C31 C12 1_555 1_555
H18 C31 1_555 1_555
C32 C13 1_555 1_555
H19 C32 1_555 1_555
C33 C30 1_555 1_555
H20 C33 1_555 1_555
C34 C15 1_555 1_555
H21 C34 1_555 1_555
N4 C37 1_555 1_555
C35 C29 1_555 1_555
H22 C35 1_555 1_555
C36 C19 1_555 1_555
H23 C36 1_555 1_555
C37 C35 1_555 1_555
H24 C37 1_555 1_555
C38 C36 1_555 1_555
H25 C38 1_555 1_555
C39 C29 1_555 1_555
H26 C39 1_555 1_555
C40 C11 1_555 1_555
H27 C40 1_555 1_555
C41 N4 1_555 1_555
H28 C41 1_555 1_555
O5 H29 1_555 1_555
O6 H30 1_555 1_555
H31 O6 1_555 1_555
O7 H32 1_555 1_555
N1E Zn1 1_555 1_555
O1D Zn1 1_555 1_555
Zn1D O1 1_555 1_555
Zn1E N1 1_555 1_555
H29B O5 1_555 1_555
H32B O7 1_555 1_555
C4 C5 1_555 1_555
N2 C22 1_555 1_555
C16 C31 1_555 1_555
C17 C20 1_555 1_555
C18 C22 1_555 1_555
C18 C27 1_555 1_555
C20 C32 1_555 1_555
C21 C26 1_555 1_555
C24 C25 1_555 1_555
C33 C34 1_555 1_555
C38 C40 1_555 1_555
C39 C41 1_555 1_555

#END
