
#######################################################################
#
#                 Cambridge Crystallographic Data Centre
#                                CCDC 
#
#######################################################################
#
# If this CIF has been generated from an entry in the Cambridge 
# Structural Database, then it will include bibliographic, chemical, 
# crystal, experimental, refinement or atomic coordinate data resulting 
# from the CCDC's data processing and validation procedures.
#
#######################################################################

data_YICGUO
_symmetry_cell_setting           triclinic
_symmetry_space_group_name_H-M   'P -1'
_symmetry_Int_Tables_number      2
_space_group_name_Hall           '-P 1'
loop_
_symmetry_equiv_pos_site_id
_symmetry_equiv_pos_as_xyz
1 x,y,z
2 -x,-y,-z
_cell_length_a                   11.4122(16)
_cell_length_b                   11.4772(16)
_cell_length_c                   13.3730(18)
_cell_angle_alpha                87.134(2)
_cell_angle_beta                 88.585(2)
_cell_angle_gamma                85.892(2)
_cell_volume                     1744.52
loop_
_atom_site_label
_atom_site_type_symbol
_atom_site_fract_x
_atom_site_fract_y
_atom_site_fract_z
Co1 Co 0.63149(6) 0.66061(7) 0.24624(5)
O1 O 0.7042(6) 0.4766(7) 0.1051(6)
O2 O 0.7691(5) 0.6403(6) 0.1527(3)
O3 O 0.5034(4) 0.7341(4) 0.3597(3)
O4 O 0.6651(4) 0.8193(4) 0.3185(3)
N1 N -0.5378(4) 0.2374(4) -0.1279(4)
N2 N 0.2675(4) -0.5636(4) 0.6352(4)
N3 N 0.5075(4) 0.5247(4) 0.2458(3)
N4 N 0.0133(5) 0.0041(5) 0.2584(5)
C1 C 0.5326(5) 0.4174(5) 0.2853(5)
H1 H 0.6071 0.4002 0.3112
C2 C 0.4555(5) 0.3297(6) 0.2903(5)
H2 H 0.4766 0.2569 0.3210
C3 C 0.3452(5) 0.3530(6) 0.2482(5)
C4 C 0.3204(6) 0.4618(6) 0.2057(5)
H3 H 0.2485 0.4799 0.1754
C5 C 0.4015(5) 0.5461(6) 0.2072(5)
H4 H 0.3808 0.6207 0.1800
C6 C 0.1620(5) -0.5074(6) 0.6511(5)
H5 H 0.1224 -0.5229 0.7114
C7 C 0.1094(5) -0.4276(6) 0.5824(5)
H6 H 0.0361 -0.3912 0.5974
C8 C 0.1637(5) -0.4014(5) 0.4923(5)
C9 C 0.2704(7) -0.4657(6) 0.4736(5)
H7 H 0.3104 -0.4553 0.4127
C10 C 0.3154(6) -0.5442(6) 0.5462(5)
H8 H 0.3853 -0.5871 0.5311
C11 C -0.5287(5) 0.2853(6) -0.0401(4)
H9 H -0.5762 0.3525 -0.0278
C12 C -0.4535(5) 0.2415(6) 0.0337(5)
H10 H -0.4497 0.2801 0.0929
C13 C -0.3830(5) 0.1393(5) 0.0194(4)
C14 C -0.3972(6) 0.0865(6) -0.0695(5)
H11 H -0.3542 0.0167 -0.0823
C15 C -0.4747(6) 0.1366(5) -0.1399(5)
H12 H -0.4832 0.0980 -0.1985
C16 C 0.2596(6) 0.2613(6) 0.2513(5)
C17 C 0.2395(7) 0.1942(7) 0.3371(6)
H13 H 0.2813 0.2055 0.3943
C18 C 0.1581(6) 0.1104(7) 0.3401(6)
H14 H 0.1454 0.0663 0.3992
C19 C 0.0950(6) 0.0913(6) 0.2554(6)
C20 C 0.1166(6) 0.1578(7) 0.1687(6)
H15 H 0.0768 0.1449 0.1108
C21 C 0.1957(6) 0.2423(7) 0.1668(6)
H16 H 0.2069 0.2876 0.1082
C22 C -0.2915(5) 0.0976(6) 0.0918(5)
C23 C -0.2428(6) 0.1777(6) 0.1516(5)
H17 H -0.2743 0.2547 0.1513
C24 C -0.1483(6) 0.1428(6) 0.2107(6)
H18 H -0.1200 0.1957 0.2531
C25 C -0.0947(5) 0.0317(6) 0.2088(5)
C26 C -0.1469(6) -0.0512(6) 0.1552(5)
H19 H -0.1174 -0.1289 0.1587
C27 C -0.2431(6) -0.0171(6) 0.0966(5)
H20 H -0.2761 -0.0725 0.0596
C28 C 0.1188(5) -0.3062(5) 0.4214(5)
C29 C 0.0009(5) -0.2647(6) 0.4208(5)
H21 H -0.0538 -0.3042 0.4596
C30 C -0.0363(5) -0.1653(6) 0.3634(5)
H22 H -0.1154 -0.1397 0.3636
C31 C 0.0427(6) -0.1048(6) 0.3063(5)
C32 C 0.1594(6) -0.1503(6) 0.3006(6)
H23 H 0.2127 -0.1140 0.2579
C33 C 0.1962(5) -0.2496(6) 0.3583(5)
H24 H 0.2744 -0.2785 0.3543
C34 C 0.7784(7) 0.5451(9) 0.1065(6)
C35 C 0.5701(6) 0.8147(6) 0.3679(4)
C36 C 0.9106(6) 0.4247(7) -0.0038(6)
H25 H 0.8512 0.3736 -0.0065
C37 C 0.8939(6) 0.5229(6) 0.0510(5)
C38 C 0.9836(6) 0.5984(7) 0.0553(5)
H26 H 0.9727 0.6645 0.0927
C39 C 0.5991(6) 1.0081(6) 0.4388(5)
H27 H 0.6655 1.0136 0.3976
C40 C 0.5335(5) 0.9113(5) 0.4369(4)
C41 C 0.4348(6) 0.9031(6) 0.4977(5)
H28 H 0.3909 0.8380 0.4961
O1A O 1.2958(6) 0.5234(7) -0.1051(6)
O2A O 1.2309(5) 0.3597(6) -0.1527(3)
C34A C 1.2216(7) 0.4549(9) -0.1065(6)
C36A C 1.0894(6) 0.5753(7) 0.0038(6)
H25A H 1.1488 0.6264 0.0065
C37A C 1.1061(6) 0.4771(6) -0.0510(5)
C38A C 1.0164(6) 0.4016(7) -0.0553(5)
H26A H 1.0273 0.3355 -0.0927
O3A O 0.4966(4) 1.2659(4) 0.6403(3)
O4A O 0.3349(4) 1.1807(4) 0.6815(3)
C35A C 0.4299(6) 1.1853(6) 0.6321(4)
C39A C 0.4009(6) 0.9919(6) 0.5612(5)
H27A H 0.3345 0.9864 0.6024
C40A C 0.4665(5) 1.0887(5) 0.5631(4)
C41A C 0.5652(6) 1.0969(6) 0.5023(5)
H28A H 0.6091 1.1620 0.5039
Co1A Co -0.63149(6) 0.33939(7) -0.24624(5)
N1A N 0.5378(4) 0.7626(4) 0.1279(4)
N2A N -0.2675(4) 1.5636(4) -0.6352(4)
N3A N -0.5075(4) 0.4753(4) -0.2458(3)
N4A N -0.0133(5) 0.9959(5) -0.2584(5)
C1A C -0.5326(5) 0.5826(5) -0.2853(5)
H1A H -0.6071 0.5998 -0.3112
C2A C -0.4555(5) 0.6703(6) -0.2903(5)
H2A H -0.4766 0.7431 -0.3210
C3A C -0.3452(5) 0.6470(6) -0.2482(5)
C4A C -0.3204(6) 0.5382(6) -0.2057(5)
H3A H -0.2485 0.5201 -0.1754
C5A C -0.4015(5) 0.4539(6) -0.2072(5)
H4A H -0.3808 0.3793 -0.1800
C6A C -0.1620(5) 1.5074(6) -0.6511(5)
H5A H -0.1224 1.5229 -0.7114
C7A C -0.1094(5) 1.4276(6) -0.5824(5)
H6A H -0.0361 1.3912 -0.5974
C8A C -0.1637(5) 1.4014(5) -0.4923(5)
C9A C -0.2704(7) 1.4657(6) -0.4736(5)
H7A H -0.3104 1.4553 -0.4127
C10A C -0.3154(6) 1.5442(6) -0.5462(5)
H8A H -0.3853 1.5871 -0.5311
C11A C 0.5287(5) 0.7147(6) 0.0401(4)
H9A H 0.5762 0.6475 0.0278
C12A C 0.4535(5) 0.7585(6) -0.0337(5)
H10A H 0.4497 0.7199 -0.0929
C13A C 0.3830(5) 0.8607(5) -0.0194(4)
C14A C 0.3972(6) 0.9135(6) 0.0695(5)
H11A H 0.3542 0.9833 0.0823
C15A C 0.4747(6) 0.8634(5) 0.1399(5)
H12A H 0.4832 0.9020 0.1985
C16A C -0.2596(6) 0.7387(6) -0.2513(5)
C17A C -0.2395(7) 0.8058(7) -0.3371(6)
H13A H -0.2813 0.7945 -0.3943
C18A C -0.1581(6) 0.8896(7) -0.3401(6)
H14A H -0.1454 0.9337 -0.3992
C19A C -0.0950(6) 0.9087(6) -0.2554(6)
C20A C -0.1166(6) 0.8422(7) -0.1687(6)
H15A H -0.0768 0.8551 -0.1108
C21A C -0.1957(6) 0.7577(7) -0.1668(6)
H16A H -0.2069 0.7124 -0.1082
C22A C 0.2915(5) 0.9024(6) -0.0918(5)
C23A C 0.2428(6) 0.8223(6) -0.1516(5)
H17A H 0.2743 0.7453 -0.1513
C24A C 0.1483(6) 0.8572(6) -0.2107(6)
H18A H 0.1200 0.8043 -0.2531
C25A C 0.0947(5) 0.9683(6) -0.2088(5)
C26A C 0.1469(6) 1.0512(6) -0.1552(5)
H19A H 0.1174 1.1289 -0.1587
C27A C 0.2431(6) 1.0171(6) -0.0966(5)
H20A H 0.2761 1.0725 -0.0596
C28A C -0.1188(5) 1.3062(5) -0.4214(5)
C29A C -0.0009(5) 1.2647(6) -0.4208(5)
H21A H 0.0538 1.3042 -0.4596
C30A C 0.0363(5) 1.1653(6) -0.3634(5)
H22A H 0.1154 1.1397 -0.3636
C31A C -0.0427(6) 1.1048(6) -0.3063(5)
C32A C -0.1594(6) 1.1503(6) -0.3006(6)
H23A H -0.2127 1.1140 -0.2579
C33A C -0.1962(5) 1.2496(6) -0.3583(5)
H24A H -0.2744 1.2785 -0.3543
Co1_2 Co -0.36851(6) 1.66061(7) -0.75376(5)
Co1A_2 Co 0.36851(6) -0.66061(7) 0.75376(5)
Co1A_3 Co 0.36851(6) 1.33939(7) 0.75376(5)
Co1A_4 Co 1.36851(6) 0.33939(7) -0.24624(5)
O2A_2 O -0.7691(5) 0.3597(6) -0.1527(3)
O3A_2 O -0.5034(4) 0.2659(4) -0.3597(3)
O4A_2 O -0.6651(4) 0.1807(4) -0.3185(3)
N2_2 N -0.7325(4) 0.4364(4) -0.3648(4)
N2A_2 N 0.7325(4) 0.5636(4) 0.3648(4)
loop_
_geom_bond_atom_site_label_1
_geom_bond_atom_site_label_2
_geom_bond_site_symmetry_1
_geom_bond_site_symmetry_2
Co1 O2 1_555 1_555
O1 C34 1_555 1_555
O2 C34 1_555 1_555
O3 Co1 1_555 1_555
O4 Co1 1_555 1_555
N1 C11 1_555 1_555
N2 C6 1_555 1_555
N3 Co1 1_555 1_555
N4 C19 1_555 1_555
C1 N3 1_555 1_555
H1 C1 1_555 1_555
C2 C1 1_555 1_555
H2 C2 1_555 1_555
C3 C2 1_555 1_555
C4 C3 1_555 1_555
H3 C4 1_555 1_555
C5 N3 1_555 1_555
H4 C5 1_555 1_555
C6 H5 1_555 1_555
C7 C6 1_555 1_555
H6 C7 1_555 1_555
C8 C7 1_555 1_555
C9 C8 1_555 1_555
H7 C9 1_555 1_555
C10 N2 1_555 1_555
H8 C10 1_555 1_555
C11 H9 1_555 1_555
C12 C11 1_555 1_555
H10 C12 1_555 1_555
C13 C12 1_555 1_555
C14 C13 1_555 1_555
H11 C14 1_555 1_555
C15 N1 1_555 1_555
H12 C15 1_555 1_555
C16 C3 1_555 1_555
C17 C16 1_555 1_555
H13 C17 1_555 1_555
C18 C17 1_555 1_555
H14 C18 1_555 1_555
C19 C18 1_555 1_555
C20 C19 1_555 1_555
H15 C20 1_555 1_555
C21 C16 1_555 1_555
H16 C21 1_555 1_555
C22 C13 1_555 1_555
C23 C22 1_555 1_555
H17 C23 1_555 1_555
C24 C23 1_555 1_555
H18 C24 1_555 1_555
C25 N4 1_555 1_555
C26 C25 1_555 1_555
H19 C26 1_555 1_555
C27 C22 1_555 1_555
H20 C27 1_555 1_555
C28 C8 1_555 1_555
C29 C28 1_555 1_555
H21 C29 1_555 1_555
C30 C29 1_555 1_555
H22 C30 1_555 1_555
C31 N4 1_555 1_555
C32 C31 1_555 1_555
H23 C32 1_555 1_555
C33 C28 1_555 1_555
H24 C33 1_555 1_555
C34 C37 1_555 1_555
C35 O3 1_555 1_555
C36 H25 1_555 1_555
C37 C36 1_555 1_555
C38 C37 1_555 1_555
H26 C38 1_555 1_555
C39 H27 1_555 1_555
C40 C35 1_555 1_555
C41 C40 1_555 1_555
H28 C41 1_555 1_555
O1A C34A 1_555 1_555
O2A C34A 1_555 1_555
C34A C37A 1_555 1_555
C36A C38 1_555 1_555
H25A C36A 1_555 1_555
C37A C36A 1_555 1_555
C38A C36 1_555 1_555
H26A C38A 1_555 1_555
O3A C35A 1_555 1_555
O4A C35A 1_555 1_555
C35A C40A 1_555 1_555
C39A C41 1_555 1_555
H27A C39A 1_555 1_555
C40A C39A 1_555 1_555
C41A C39 1_555 1_555
H28A C41A 1_555 1_555
Co1A N1 1_555 1_555
N1A Co1 1_555 1_555
N2A C6A 1_555 1_555
N3A Co1A 1_555 1_555
N4A C19A 1_555 1_555
C1A N3A 1_555 1_555
H1A C1A 1_555 1_555
C2A C1A 1_555 1_555
H2A C2A 1_555 1_555
C3A C2A 1_555 1_555
C4A C3A 1_555 1_555
H3A C4A 1_555 1_555
C5A N3A 1_555 1_555
H4A C5A 1_555 1_555
C6A H5A 1_555 1_555
C7A C6A 1_555 1_555
H6A C7A 1_555 1_555
C8A C7A 1_555 1_555
C9A C8A 1_555 1_555
H7A C9A 1_555 1_555
C10A N2A 1_555 1_555
H8A C10A 1_555 1_555
C11A N1A 1_555 1_555
H9A C11A 1_555 1_555
C12A C11A 1_555 1_555
H10A C12A 1_555 1_555
C13A C12A 1_555 1_555
C14A C13A 1_555 1_555
H11A C14A 1_555 1_555
C15A N1A 1_555 1_555
H12A C15A 1_555 1_555
C16A C3A 1_555 1_555
C17A C16A 1_555 1_555
H13A C17A 1_555 1_555
C18A C17A 1_555 1_555
H14A C18A 1_555 1_555
C19A C18A 1_555 1_555
C20A C19A 1_555 1_555
H15A C20A 1_555 1_555
C21A C16A 1_555 1_555
H16A C21A 1_555 1_555
C22A C13A 1_555 1_555
C23A C22A 1_555 1_555
H17A C23A 1_555 1_555
C24A C23A 1_555 1_555
H18A C24A 1_555 1_555
C25A N4A 1_555 1_555
C26A C25A 1_555 1_555
H19A C26A 1_555 1_555
C27A C22A 1_555 1_555
H20A C27A 1_555 1_555
C28A C8A 1_555 1_555
C29A C28A 1_555 1_555
H21A C29A 1_555 1_555
C30A C29A 1_555 1_555
H22A C30A 1_555 1_555
C31A N4A 1_555 1_555
C32A C31A 1_555 1_555
H23A C32A 1_555 1_555
C33A C28A 1_555 1_555
H24A C33A 1_555 1_555
Co1_2 N2A 1_555 1_555
Co1A_2 N2 1_555 1_555
Co1A_3 O3A 1_555 1_555
Co1A_4 O2A 1_555 1_555
O2A_2 Co1A 1_555 1_555
O3A_2 Co1A 1_555 1_555
O4A_2 Co1A 1_555 1_555
N2_2 Co1A 1_555 1_555
N2A_2 Co1 1_555 1_555
O4 C35 1_555 1_555
C4 C5 1_555 1_555
C9 C10 1_555 1_555
C14 C15 1_555 1_555
C20 C21 1_555 1_555
C24 C25 1_555 1_555
C26 C27 1_555 1_555
C30 C31 1_555 1_555
C32 C33 1_555 1_555
C39 C40 1_555 1_555
C37A C38A 1_555 1_555
O4A Co1A_3 1_555 1_555
C40A C41A 1_555 1_555
C4A C5A 1_555 1_555
C9A C10A 1_555 1_555
C14A C15A 1_555 1_555
C20A C21A 1_555 1_555
C24A C25A 1_555 1_555
C26A C27A 1_555 1_555
C30A C31A 1_555 1_555
C32A C33A 1_555 1_555

#END
