
#######################################################################
#
#                 Cambridge Crystallographic Data Centre
#                                CCDC 
#
#######################################################################
#
# If this CIF has been generated from an entry in the Cambridge 
# Structural Database, then it will include bibliographic, chemical, 
# crystal, experimental, refinement or atomic coordinate data resulting 
# from the CCDC's data processing and validation procedures.
#
#######################################################################

data_YICGIC
_symmetry_cell_setting           monoclinic
_symmetry_space_group_name_H-M   'P 21/n'
_symmetry_Int_Tables_number      14
_space_group_name_Hall           '-P 2yn'
loop_
_symmetry_equiv_pos_site_id
_symmetry_equiv_pos_as_xyz
1 x,y,z
2 1/2-x,1/2+y,1/2-z
3 -x,-y,-z
4 1/2+x,1/2-y,1/2+z
_cell_length_a                   10.5949(6)
_cell_length_b                   31.6554(18)
_cell_length_c                   10.9487(6)
_cell_angle_alpha                90
_cell_angle_beta                 106.8470(10)
_cell_angle_gamma                90
_cell_volume                     3514.44
loop_
_atom_site_label
_atom_site_type_symbol
_atom_site_fract_x
_atom_site_fract_y
_atom_site_fract_z
C1 C 1.85496(18) 0.01774(6) 0.19590(19)
C2 C 1.71011(17) 0.02452(6) 0.17317(18)
C3 C 1.6360(2) -0.00588(7) 0.2118(2)
H1 H 1.6768 -0.0296 0.2559
C4 C 1.5010(2) -0.00078(6) 0.1846(2)
H2 H 1.4512 -0.0215 0.2093
C5 C 1.43878(17) 0.03482(6) 0.12097(18)
C6 C 1.51439(19) 0.06542(7) 0.0858(2)
H3 H 1.4745 0.0898 0.0450
C7 C 1.64920(19) 0.06006(7) 0.1107(2)
H4 H 1.6989 0.0806 0.0851
C8 C 1.29111(17) 0.03900(6) 0.09084(18)
C9 C 1.1613(2) 0.46742(7) 1.0760(2)
H5 H 1.1197 0.4915 1.0939
C10 C 1.0854(2) 0.43724(7) 0.9970(2)
H6 H 0.9949 0.4411 0.9639
C11 C 1.1439(2) 0.40123(7) 0.9671(2)
C12 C 1.2784(3) 0.39836(11) 1.0204(4)
H7 H 1.3232 0.3748 1.0036
C13 C 1.3468(3) 0.42977(10) 1.0977(3)
H8 H 1.4377 0.4269 1.1309
C14 C 1.1440(2) 0.06637(7) 0.4586(2)
H9 H 1.1689 0.0429 0.5110
C15 C 1.1182(2) 0.10358(7) 0.5123(2)
H10 H 1.1295 0.1051 0.5996
C16 C 1.07515(19) 0.13881(6) 0.4361(2)
C17 C 1.0717(2) 0.13518(6) 0.3094(2)
H11 H 1.0475 0.1582 0.2549
C18 C 1.1043(2) 0.09741(6) 0.2638(2)
H12 H 1.1050 0.0962 0.1791
C19 C 0.0736(4) 0.30922(15) 0.3557(5)
H13 H 0.0064 0.2898 0.3504
C20 C 0.2019(3) 0.29524(12) 0.4045(5)
H14 H 0.2176 0.2674 0.4319
C21 C 0.3048(2) 0.32126(8) 0.4131(2)
C22 C 0.2689(3) 0.36084(11) 0.3672(5)
H15 H 0.3340 0.3805 0.3667
C23 C 0.1387(4) 0.37231(13) 0.3216(5)
H16 H 0.1201 0.3998 0.2920
C24 C 0.9243(2) 0.30590(7) 0.7186(2)
C25 C 1.0472(2) 0.31784(7) 0.7129(2)
H17 H 1.0825 0.3053 0.6532
C26 C 1.1187(2) 0.34814(7) 0.7945(2)
H18 H 1.2022 0.3555 0.7901
C27 C 1.0676(2) 0.36790(7) 0.8833(2)
C28 C 0.9441(2) 0.35558(7) 0.8891(2)
H19 H 0.9079 0.3684 0.9476
C29 C 0.8743(2) 0.32467(7) 0.8097(2)
H20 H 0.7927 0.3162 0.8169
C30 C 1.0254(2) 0.17687(6) 0.4862(2)
C31 C 1.0667(2) 0.18717(7) 0.6159(2)
H21 H 1.1343 0.1718 0.6711
C32 C 1.0084(2) 0.21994(7) 0.6633(2)
H22 H 1.0374 0.2265 0.7497
C33 C 0.9066(2) 0.24317(6) 0.5825(2)
C34 C 0.8656(2) 0.23349(7) 0.4538(2)
H23 H 0.7980 0.2489 0.3987
C35 C 0.9252(2) 0.20074(7) 0.4069(2)
H24 H 0.8972 0.1947 0.3201
C36 C 0.4452(2) 0.30854(7) 0.4668(2)
C37 C 0.4820(2) 0.26811(8) 0.5114(3)
H25 H 0.4170 0.2479 0.5063
C38 C 0.6128(3) 0.25699(7) 0.5633(3)
H26 H 0.6347 0.2295 0.5912
C39 C 0.7109(2) 0.28655(7) 0.5738(2)
C40 C 0.6759(2) 0.32677(7) 0.5276(2)
H27 H 0.7412 0.3469 0.5325
C41 C 0.5461(2) 0.33747(7) 0.4748(2)
H28 H 0.5250 0.3647 0.4436
Co1 Co 1.09491(2) 0.004127(7) 0.23117(2)
H29 H 0.952(3) -0.0536(8) 0.067(2)
H30 H 1.067(3) -0.0453(8) 0.045(3)
N1 N 1.29056(16) 0.46385(5) 1.12764(17)
N2 N 1.13493(16) 0.06252(5) 0.33472(16)
N3 N 0.0393(3) 0.34752(10) 0.3167(3)
N4 N 0.84597(19) 0.27616(6) 0.6327(2)
O1 O 1.91696(13) -0.00677(5) 0.28248(14)
O2 O 1.91319(13) 0.03662(5) 0.12654(13)
O3 O 1.23767(14) 0.01385(5) 0.15012(15)
O4 O 1.23151(13) 0.06563(5) 0.01140(15)
O5 O 1.03624(15) -0.04874(4) 0.10319(15)
Co1_2 Co 2.09491(2) 0.004127(7) 0.23117(2)
Co1A Co 1.40509(2) 0.504127(7) 1.26883(2)
N1A N 1.20944(16) -0.03615(5) 0.37236(17)
O1_2 O 0.91696(13) -0.00677(5) 0.28248(14)
O2_2 O 0.91319(13) 0.03662(5) 0.12654(13)
H31 H 0.354(6) 0.125(2) 0.810(6)
H32 H 0.270(4) 0.0991(14) 0.865(4)
O6 O 0.2775(3) 0.11672(9) 0.8081(2)
loop_
_geom_bond_atom_site_label_1
_geom_bond_atom_site_label_2
_geom_bond_site_symmetry_1
_geom_bond_site_symmetry_2
C1 C2 1_555 1_555
C2 C3 1_555 1_555
C3 H1 1_555 1_555
C4 C3 1_555 1_555
H2 C4 1_555 1_555
C5 C4 1_555 1_555
C6 C5 1_555 1_555
H3 C6 1_555 1_555
C7 C2 1_555 1_555
H4 C7 1_555 1_555
C8 C5 1_555 1_555
C9 H5 1_555 1_555
C10 C9 1_555 1_555
H6 C10 1_555 1_555
C11 C10 1_555 1_555
C12 C11 1_555 1_555
H7 C12 1_555 1_555
C13 C12 1_555 1_555
H8 C13 1_555 1_555
C14 H9 1_555 1_555
C15 C14 1_555 1_555
H10 C15 1_555 1_555
C16 C15 1_555 1_555
C17 C16 1_555 1_555
H11 C17 1_555 1_555
C18 C17 1_555 1_555
H12 C18 1_555 1_555
C19 H13 1_555 1_555
C20 C19 1_555 1_555
H14 C20 1_555 1_555
C21 C20 1_555 1_555
C22 C21 1_555 1_555
H15 C22 1_555 1_555
C23 C22 1_555 1_555
H16 C23 1_555 1_555
C24 C25 1_555 1_555
C25 H17 1_555 1_555
C26 C25 1_555 1_555
H18 C26 1_555 1_555
C27 C11 1_555 1_555
C28 C27 1_555 1_555
H19 C28 1_555 1_555
C29 C24 1_555 1_555
H20 C29 1_555 1_555
C30 C16 1_555 1_555
C31 C30 1_555 1_555
H21 C31 1_555 1_555
C32 C31 1_555 1_555
H22 C32 1_555 1_555
C33 C32 1_555 1_555
C34 C33 1_555 1_555
H23 C34 1_555 1_555
C35 C30 1_555 1_555
H24 C35 1_555 1_555
C36 C21 1_555 1_555
C37 C36 1_555 1_555
H25 C37 1_555 1_555
C38 C37 1_555 1_555
H26 C38 1_555 1_555
C39 C38 1_555 1_555
C40 C39 1_555 1_555
H27 C40 1_555 1_555
C41 C36 1_555 1_555
H28 C41 1_555 1_555
Co1 N2 1_555 1_555
H29 O5 1_555 1_555
H30 O5 1_555 1_555
N1 C9 1_555 1_555
N2 C14 1_555 1_555
N3 C19 1_555 1_555
N4 C24 1_555 1_555
O1 C1 1_555 1_555
O2 C1 1_555 1_555
O3 C8 1_555 1_555
O4 C8 1_555 1_555
O5 Co1 1_555 1_555
H31 O6 1_555 1_555
H32 O6 1_555 1_555
Co1_2 O1 1_555 1_555
Co1A N1 1_555 1_555
N1A Co1 1_555 1_555
O1_2 Co1 1_555 1_555
O2_2 Co1 1_555 1_555
C6 C7 1_555 1_555
C13 N1 1_555 1_555
C18 N2 1_555 1_555
C23 N3 1_555 1_555
C26 C27 1_555 1_555
C28 C29 1_555 1_555
C33 N4 1_555 1_555
C34 C35 1_555 1_555
C39 N4 1_555 1_555
C40 C41 1_555 1_555
Co1 O3 1_555 1_555
O2 Co1_2 1_555 1_555

#END
