
#######################################################################
#
#                 Cambridge Crystallographic Data Centre
#                                CCDC 
#
#######################################################################
#
# If this CIF has been generated from an entry in the Cambridge 
# Structural Database, then it will include bibliographic, chemical, 
# crystal, experimental, refinement or atomic coordinate data resulting 
# from the CCDC's data processing and validation procedures.
#
#######################################################################

data_YICRAE
_symmetry_cell_setting           orthorhombic
_symmetry_space_group_name_H-M   'P 21 21 21'
_symmetry_Int_Tables_number      19
_space_group_name_Hall           'P 2ac 2ab'
loop_
_symmetry_equiv_pos_site_id
_symmetry_equiv_pos_as_xyz
1 x,y,z
2 1/2-x,-y,1/2+z
3 1/2+x,1/2-y,-z
4 -x,1/2+y,1/2-z
_cell_length_a                   7.0499(14)
_cell_length_b                   14.581(3)
_cell_length_c                   15.023(3)
_cell_angle_alpha                90
_cell_angle_beta                 90
_cell_angle_gamma                90
_cell_volume                     1544.28
loop_
_atom_site_label
_atom_site_type_symbol
_atom_site_fract_x
_atom_site_fract_y
_atom_site_fract_z
C1 C 0.9263(9) 0.3787(5) 0.1357(5)
C2 C 0.9062(9) 0.4415(4) 0.2154(4)
C3 C 0.9063(9) 0.5341(4) 0.2001(4)
H1 H 0.9176 0.5554 0.1420
C4 C 0.8898(10) 0.5980(4) 0.2703(4)
H2 H 0.8801 0.6602 0.2575
C5 C 0.8881(9) 0.5694(4) 0.3556(4)
C6 C 0.8862(8) 0.4741(4) 0.3751(4)
C7 C 0.8911(9) 0.4089(3) 0.3053(4)
C8 C 0.8812(11) 0.3124(4) 0.3264(5)
H3 H 0.8807 0.2687 0.2814
C9 C 0.8725(12) 0.2864(5) 0.4145(6)
H4 H 0.8677 0.2243 0.4285
C10 C 0.8706(14) 0.3502(5) 0.4829(5)
H5 H 0.8646 0.3302 0.5416
C11 C 0.8774(10) 0.4421(4) 0.4653(4)
H6 H 0.8763 0.4840 0.5119
C12 C 0.8937(10) 0.6418(4) 0.4277(4)
C13 C 1.1123(17) 0.4959(10) -0.2128(13)
C14 C 1.1235(16) 0.5947(11) -0.1055(9)
H7 H 1.1253 0.6600 -0.0972
H8 H 1.2372 0.5685 -0.0812
H9 H 1.0151 0.5693 -0.0756
C15 C 1.1038(19) 0.4850(11) -0.3202(7)
H10 H 1.1014 0.4210 -0.3354
H11 H 1.2135 0.5132 -0.3462
H12 H 0.9913 0.5142 -0.3424
C16 C 1.1119(16) 0.6530(7) -0.2671(8)
H13 H 1.1142 0.7061 -0.2293
H14 H 0.9999 0.6543 -0.3034
H15 H 1.2222 0.6529 -0.3045
N1 N 1.1110(11) 0.5711(7) -0.2129(7)
O1 O 1.0252(8) 0.4102(4) 0.0720(4)
O2 O 0.8499(8) 0.3030(3) 0.1343(4)
O3 O 1.0242(6) 0.6422(3) 0.4841(3)
O4 O 0.7653(6) 0.7026(3) 0.4242(3)
O5 O 1.1168(11) 0.4362(5) -0.1572(5)
Pb1 Pb 1.11160(3) 0.308886(13) -0.045326(13)
O2B O 1.3499(8) 0.1970(3) -0.1343(4)
O3A O 1.4758(6) 0.3578(3) -0.0159(3)
O4A O 0.7347(6) 0.2974(3) -0.0758(3)
O4C O 1.2347(6) 0.2026(3) 0.0758(3)
Pb1B Pb 0.61160(3) 0.191114(13) 0.045326(13)
Pb1A Pb 1.38840(3) 0.691114(13) 0.454674(13)
Pb1A_2 Pb 0.38840(3) 0.691114(13) 0.454674(13)
Pb1C Pb 0.88840(3) 0.808886(13) 0.545326(13)
loop_
_geom_bond_atom_site_label_1
_geom_bond_atom_site_label_2
_geom_bond_site_symmetry_1
_geom_bond_site_symmetry_2
C1 C2 1_555 1_555
C2 C3 1_555 1_555
C3 H1 1_555 1_555
C4 C3 1_555 1_555
H2 C4 1_555 1_555
C5 C4 1_555 1_555
C6 C5 1_555 1_555
C7 C2 1_555 1_555
C8 C7 1_555 1_555
H3 C8 1_555 1_555
C9 C8 1_555 1_555
H4 C9 1_555 1_555
C10 C9 1_555 1_555
H5 C10 1_555 1_555
C11 C6 1_555 1_555
H6 C11 1_555 1_555
C12 C5 1_555 1_555
C13 C15 1_555 1_555
C14 H7 1_555 1_555
H8 C14 1_555 1_555
H9 C14 1_555 1_555
C15 H10 1_555 1_555
H11 C15 1_555 1_555
H12 C15 1_555 1_555
C16 H13 1_555 1_555
H14 C16 1_555 1_555
H15 C16 1_555 1_555
N1 C13 1_555 1_555
O1 C1 1_555 1_555
O2 C1 1_555 1_555
O3 C12 1_555 1_555
O4 C12 1_555 1_555
O5 C13 1_555 1_555
Pb1 O1 1_555 1_555
O2B Pb1 1_555 1_555
O3A Pb1 1_555 1_555
O4A Pb1 1_555 1_555
O4C Pb1 1_555 1_555
Pb1B O2 1_555 1_555
Pb1A O3 1_555 1_555
Pb1A_2 O4 1_555 1_555
Pb1C O4 1_555 1_555
C6 C7 1_555 1_555
C10 C11 1_555 1_555
C14 N1 1_555 1_555
C16 N1 1_555 1_555
O5 Pb1 1_555 1_555
O4A Pb1B 1_555 1_555

#END
