
#######################################################################
#
#                 Cambridge Crystallographic Data Centre
#                                CCDC 
#
#######################################################################
#
# If this CIF has been generated from an entry in the Cambridge 
# Structural Database, then it will include bibliographic, chemical, 
# crystal, experimental, refinement or atomic coordinate data resulting 
# from the CCDC's data processing and validation procedures.
#
#######################################################################

data_YICREI
_symmetry_cell_setting           monoclinic
_symmetry_space_group_name_H-M   'P 21/n'
_symmetry_Int_Tables_number      14
_space_group_name_Hall           '-P 2yn'
loop_
_symmetry_equiv_pos_site_id
_symmetry_equiv_pos_as_xyz
1 x,y,z
2 1/2-x,1/2+y,1/2-z
3 -x,-y,-z
4 1/2+x,1/2-y,1/2+z
_cell_length_a                   11.553(2)
_cell_length_b                   6.7992(14)
_cell_length_c                   17.058(3)
_cell_angle_alpha                90
_cell_angle_beta                 92.49(3)
_cell_angle_gamma                90
_cell_volume                     1338.66
loop_
_atom_site_label
_atom_site_type_symbol
_atom_site_fract_x
_atom_site_fract_y
_atom_site_fract_z
C1 C 0.8460(4) -0.0194(7) 0.8615(3)
C2 C 0.9270(4) -0.0106(7) 0.9330(3)
C3 C 0.9362(5) -0.1676(8) 0.9839(3)
H1 H 0.8929 -0.2807 0.9735
C4 C 0.9908(5) 0.1589(8) 0.9496(3)
H2 H 0.9845 0.2665 0.9161
C5 C 0.5823(4) 0.2662(8) 0.8726(3)
C6 C 0.5401(4) 0.3891(7) 0.9385(3)
C7 C 0.5619(5) 0.5900(7) 0.9417(3)
H3 H 0.6031 0.6501 0.9026
C8 C 0.4776(4) 0.2998(7) 0.9969(3)
H4 H 0.4626 0.1655 0.9945
C9 C 0.3559(8) 0.2267(19) 0.6556(7)
C10 C 0.2912(7) 0.1007(13) 0.5815(5)
H5 H 0.3314 -0.0212 0.5745
H6 H 0.2929 0.1769 0.5342
H7 H 0.2123 0.0741 0.5934
C11 C 0.3718(8) 0.4786(15) 0.7316(6)
H8 H 0.3322 0.6009 0.7391
H9 H 0.4507 0.5045 0.7193
H10 H 0.3705 0.4020 0.7788
C12 C 0.2075(8) 0.4519(15) 0.6189(8)
H11 H 0.1926 0.5759 0.6434
H12 H 0.1407 0.3688 0.6220
H13 H 0.2240 0.4729 0.5649
N1 N 0.3074(7) 0.357(2) 0.6594(8)
O1 O 0.8356(3) 0.1301(6) 0.8196(2)
O2 O 0.7905(3) -0.1779(5) 0.84819(19)
O3 O 0.6291(3) 0.3541(6) 0.8161(2)
O4 O 0.5698(4) 0.0843(5) 0.8738(2)
O5 O 0.4404(4) 0.1439(9) 0.6905(3)
Pb1 Pb 0.657150(14) 0.05058(2) 0.743071(9)
C1B C 1.1540(4) 0.0194(7) 1.1385(3)
C2B C 1.0730(4) 0.0106(7) 1.0670(3)
C3B C 1.0638(5) 0.1676(8) 1.0161(3)
H1B H 1.1071 0.2807 1.0265
C4B C 1.0092(5) -0.1589(8) 1.0504(3)
H2B H 1.0155 -0.2665 1.0839
C5B C 0.4177(4) 0.7338(8) 1.1274(3)
C6B C 0.4599(4) 0.6109(7) 1.0615(3)
C7B C 0.4381(5) 0.4100(7) 1.0583(3)
H3B H 0.3969 0.3499 1.0974
C8B C 0.5224(4) 0.7002(7) 1.0031(3)
H4B H 0.5374 0.8345 1.0055
C9B C 1.6441(8) -0.2267(19) 1.3444(7)
C10B C 1.7088(7) -0.1007(13) 1.4185(5)
H5B H 1.6686 0.0212 1.4255
H6B H 1.7071 -0.1769 1.4658
H7B H 1.7877 -0.0741 1.4066
C11B C 1.6282(8) -0.4786(15) 1.2684(6)
H8B H 1.6678 -0.6009 1.2609
H9B H 1.5493 -0.5045 1.2807
H10B H 1.6295 -0.4020 1.2212
C12B C 1.7925(8) -0.4519(15) 1.3811(8)
H11B H 1.8074 -0.5759 1.3566
H12B H 1.8593 -0.3688 1.3780
H13B H 1.7760 -0.4729 1.4351
N1B N 1.6926(7) -0.357(2) 1.3406(8)
O1B O 1.1644(3) -0.1301(6) 1.1804(2)
O2B O 1.2095(3) 0.1779(5) 1.15181(19)
O2A O 0.7095(3) 0.3221(5) 0.65181(19)
O2C O 1.2905(3) -0.3221(5) 1.34819(19)
O3B O 0.3709(3) 0.6459(6) 1.1839(2)
O3B_2 O 1.3709(3) -0.3541(6) 1.1839(2)
O4B O 0.4302(4) 0.9157(5) 1.1262(2)
O4B_2 O 1.4302(4) -0.0843(5) 1.1262(2)
O5B O 1.5596(4) -0.1439(9) 1.3095(3)
Pb1B Pb 1.342850(14) -0.05058(2) 1.256929(9)
Pb1A Pb 0.842850(14) -0.44942(2) 0.756929(9)
Pb1C Pb 1.157150(14) 0.44942(2) 1.243071(9)
Pb1B_2 Pb 0.342850(14) 0.94942(2) 1.256929(9)
loop_
_geom_bond_atom_site_label_1
_geom_bond_atom_site_label_2
_geom_bond_site_symmetry_1
_geom_bond_site_symmetry_2
C1 C2 1_555 1_555
C2 C3 1_555 1_555
C3 H1 1_555 1_555
C4 C2 1_555 1_555
H2 C4 1_555 1_555
C5 C6 1_555 1_555
C6 C7 1_555 1_555
C7 H3 1_555 1_555
C8 C6 1_555 1_555
H4 C8 1_555 1_555
C9 C10 1_555 1_555
C10 H5 1_555 1_555
H6 C10 1_555 1_555
H7 C10 1_555 1_555
C11 H8 1_555 1_555
H9 C11 1_555 1_555
H10 C11 1_555 1_555
C12 H11 1_555 1_555
H12 C12 1_555 1_555
H13 C12 1_555 1_555
N1 C9 1_555 1_555
O1 C1 1_555 1_555
O2 C1 1_555 1_555
O3 C5 1_555 1_555
O4 C5 1_555 1_555
O5 C9 1_555 1_555
Pb1 O1 1_555 1_555
C1B C2B 1_555 1_555
C2B C3B 1_555 1_555
C3B C4 1_555 1_555
H1B C3B 1_555 1_555
C4B C3 1_555 1_555
H2B C4B 1_555 1_555
C5B C6B 1_555 1_555
C6B C7B 1_555 1_555
C7B C8 1_555 1_555
H3B C7B 1_555 1_555
C8B C7 1_555 1_555
H4B C8B 1_555 1_555
C9B C10B 1_555 1_555
C10B H5B 1_555 1_555
H6B C10B 1_555 1_555
H7B C10B 1_555 1_555
C11B H8B 1_555 1_555
H9B C11B 1_555 1_555
H10B C11B 1_555 1_555
C12B H11B 1_555 1_555
H12B C12B 1_555 1_555
H13B C12B 1_555 1_555
N1B C9B 1_555 1_555
O1B C1B 1_555 1_555
O2B C1B 1_555 1_555
O2A Pb1 1_555 1_555
O2C Pb1B 1_555 1_555
O3B C5B 1_555 1_555
O3B_2 Pb1B 1_555 1_555
O4B C5B 1_555 1_555
O4B_2 Pb1B 1_555 1_555
O5B C9B 1_555 1_555
Pb1B O1B 1_555 1_555
Pb1A O2 1_555 1_555
Pb1C O2B 1_555 1_555
Pb1B_2 O3B 1_555 1_555
C11 N1 1_555 1_555
C12 N1 1_555 1_555
O3 Pb1 1_555 1_555
O4 Pb1 1_555 1_555
O5 Pb1 1_555 1_555
C2B C4B 1_555 1_555
C6B C8B 1_555 1_555
C11B N1B 1_555 1_555
C12B N1B 1_555 1_555
O4B Pb1B_2 1_555 1_555
O5B Pb1B 1_555 1_555

#END
