
#######################################################################
#
#                 Cambridge Crystallographic Data Centre
#                                CCDC 
#
#######################################################################
#
# If this CIF has been generated from an entry in the Cambridge 
# Structural Database, then it will include bibliographic, chemical, 
# crystal, experimental, refinement or atomic coordinate data resulting 
# from the CCDC's data processing and validation procedures.
#
#######################################################################

data_YIDJOL01
_symmetry_cell_setting           monoclinic
_symmetry_space_group_name_H-M   'C 2/c'
_symmetry_Int_Tables_number      15
_space_group_name_Hall           '-C 2yn'
loop_
_symmetry_equiv_pos_site_id
_symmetry_equiv_pos_as_xyz
1 x,y,z
2 1/2+x,1/2+y,z
3 -x,y,1/2-z
4 1/2-x,1/2+y,1/2-z
5 -x,-y,-z
6 1/2-x,1/2-y,-z
7 x,-y,1/2+z
8 1/2+x,1/2-y,1/2+z
_cell_length_a                   16.7674(6)
_cell_length_b                   10.7680(5)
_cell_length_c                   7.4073(3)
_cell_angle_alpha                90
_cell_angle_beta                 108.496(2)
_cell_angle_gamma                90
_cell_volume                     1268.32
loop_
_atom_site_label
_atom_site_type_symbol
_atom_site_fract_x
_atom_site_fract_y
_atom_site_fract_z
Cd1 Cd 0.0000 1.07497(6) -0.2500
N1 N 0.0747(4) 1.2531(5) -0.1036(8)
C1 C 0.1486(5) 1.2490(9) 0.0388(12)
C2 C 0.0393(5) 1.3625(6) -0.1761(10)
C3 C 0.1922(7) 1.3613(14) 0.1057(16)
C4 C 0.0799(8) 1.4772(8) -0.1054(16)
C5 C 0.0375(10) 1.5922(7) -0.185(2)
C6 C 0.1586(9) 1.4732(13) 0.0365(18)
Br1 Br 0.10204(5) 0.91769(6) -0.00034(9)
Cd1F Cd 0.0000 0.92503(6) 0.2500
Cd1F_2 Cd 0.0000 0.92503(6) -0.7500
N1B N -0.0747(4) 1.2531(5) -0.3964(8)
C1B C -0.1486(5) 1.2490(9) -0.5388(12)
C2B C -0.0393(5) 1.3625(6) -0.3239(10)
C3B C -0.1922(7) 1.3613(14) -0.6057(16)
C4B C -0.0799(8) 1.4772(8) -0.3946(16)
C5B C -0.0375(10) 1.5922(7) -0.315(2)
C6B C -0.1586(9) 1.4732(13) -0.5365(18)
Br1F Br 0.10204(5) 1.08231(6) -0.50034(9)
Br1D Br -0.10204(5) 1.08231(6) 0.00034(9)
Br1B Br -0.10204(5) 0.91769(6) -0.49966(9)
loop_
_geom_bond_atom_site_label_1
_geom_bond_atom_site_label_2
_geom_bond_site_symmetry_1
_geom_bond_site_symmetry_2
Cd1 N1 1_555 1_555
N1 C1 1_555 1_555
C1 C3 1_555 1_555
C2 N1 1_555 1_555
C3 C6 1_555 1_555
C4 C2 1_555 1_555
C5 C4 1_555 1_555
C6 C4 1_555 1_555
Br1 Cd1 1_555 1_555
Cd1F Br1 1_555 1_555
Cd1F_2 Br1F 1_555 1_555
N1B Cd1 1_555 1_555
C1B N1B 1_555 1_555
C2B C2 1_555 1_555
C3B C1B 1_555 1_555
C4B C2B 1_555 1_555
C5B C5 1_555 1_555
C6B C3B 1_555 1_555
Br1F Cd1 1_555 1_555
Br1D Cd1 1_555 1_555
Br1B Cd1 1_555 1_555
Cd1F Br1D 1_555 1_555
Cd1F_2 Br1B 1_555 1_555
N1B C2B 1_555 1_555
C4B C5B 1_555 1_555
C4B C6B 1_555 1_555

#END
