
#######################################################################
#
#                 Cambridge Crystallographic Data Centre
#                                CCDC 
#
#######################################################################
#
# If this CIF has been generated from an entry in the Cambridge 
# Structural Database, then it will include bibliographic, chemical, 
# crystal, experimental, refinement or atomic coordinate data resulting 
# from the CCDC's data processing and validation procedures.
#
#######################################################################

data_YIDMEF
_symmetry_cell_setting           monoclinic
_symmetry_space_group_name_H-M   'P 21/n'
_symmetry_Int_Tables_number      14
_space_group_name_Hall           '-P 2yn'
loop_
_symmetry_equiv_pos_site_id
_symmetry_equiv_pos_as_xyz
1 x,y,z
2 1/2-x,1/2+y,1/2-z
3 -x,-y,-z
4 1/2+x,1/2-y,1/2+z
_cell_length_a                   8.0890(16)
_cell_length_b                   23.430(5)
_cell_length_c                   11.432(2)
_cell_angle_alpha                90
_cell_angle_beta                 94.11(3)
_cell_angle_gamma                90
_cell_volume                     2161.08
loop_
_atom_site_label
_atom_site_type_symbol
_atom_site_fract_x
_atom_site_fract_y
_atom_site_fract_z
Ag1 Ag 0.09499(2) 0.026821(8) 0.880401(15)
N1 N -0.0116(2) 0.06725(8) 0.69773(17)
N2 N -0.0229(2) 0.16298(9) 0.74544(17)
N3 N -0.2667(2) 0.11485(9) 0.68629(18)
N4 N 0.0811(2) -0.04063(9) 0.72240(17)
N5 N 0.2934(2) -0.10825(9) 0.72992(18)
N6 N 0.0273(2) -0.13251(9) 0.78402(17)
N7 N -0.6598(3) 0.05852(11) 0.9497(2)
N8 N -0.1201(3) 0.06361(9) 0.97636(18)
N9 N -0.3935(3) 0.10934(10) 0.9786(2)
C1 C -0.0109(3) 0.03739(10) 0.5989(2)
C2 C 0.0483(3) -0.02355(10) 0.6136(2)
C3 C 0.0571(3) -0.05761(10) 0.5129(2)
H1 H 0.0952 -0.0949 0.5214
C4 C -0.1013(3) 0.11612(10) 0.7059(2)
C5 C -0.0991(3) 0.20704(11) 0.8159(2)
H2 H -0.1261 0.2398 0.7678
H3 H -0.0226 0.2180 0.8801
H4 H -0.1982 0.1921 0.8459
C6 C 0.1582(3) 0.16683(12) 0.7454(2)
H5 H 0.2074 0.1562 0.8211
H6 H 0.1891 0.2053 0.7280
H7 H 0.1964 0.1416 0.6870
C7 C -0.3558(3) 0.06056(11) 0.6829(2)
H8 H -0.3734 0.0479 0.6032
H9 H -0.4609 0.0655 0.7157
H10 H -0.2917 0.0326 0.7277
C8 C -0.3699(3) 0.16478(11) 0.6546(2)
H11 H -0.4291 0.1761 0.7207
H12 H -0.4475 0.1552 0.5901
H13 H -0.3007 0.1956 0.6324
C9 C 0.1351(3) -0.09597(10) 0.74369(19)
C10 C 0.4153(3) -0.06247(12) 0.7210(3)
H14 H 0.4343 -0.0563 0.6401
H15 H 0.5174 -0.0731 0.7633
H16 H 0.3739 -0.0280 0.7538
C11 C 0.3580(3) -0.16604(11) 0.7114(2)
H17 H 0.4141 -0.1796 0.7829
H18 H 0.4342 -0.1650 0.6508
H19 H 0.2677 -0.1912 0.6884
C12 C 0.0721(3) -0.18308(11) 0.8554(2)
H20 H 0.0619 -0.2166 0.8072
H21 H -0.0007 -0.1862 0.9178
H22 H 0.1844 -0.1795 0.8879
C13 C -0.1487(3) -0.11582(12) 0.7815(2)
H23 H -0.1629 -0.0875 0.8407
H24 H -0.2149 -0.1487 0.7963
H25 H -0.1829 -0.1003 0.7059
C14 C -0.5319(3) 0.08052(11) 0.9625(2)
C15 C -0.2526(3) 0.08238(11) 0.9755(2)
N1B N 0.0116(2) -0.06725(8) 0.30227(17)
N2B N 0.0229(2) -0.16298(9) 0.25456(17)
N3B N 0.2667(2) -0.11485(9) 0.31371(18)
N4B N -0.0811(2) 0.04063(9) 0.27760(17)
N5B N -0.2934(2) 0.10825(9) 0.27008(18)
N6B N -0.0273(2) 0.13251(9) 0.21598(17)
C1B C 0.0109(3) -0.03739(10) 0.4011(2)
C2B C -0.0483(3) 0.02355(10) 0.3864(2)
C3B C -0.0571(3) 0.05761(10) 0.4871(2)
H1B H -0.0952 0.0949 0.4786
C4B C 0.1013(3) -0.11612(10) 0.2941(2)
C5B C 0.0991(3) -0.20704(11) 0.1841(2)
H2B H 0.1261 -0.2398 0.2322
H3B H 0.0226 -0.2180 0.1199
H4B H 0.1982 -0.1921 0.1541
C6B C -0.1582(3) -0.16683(12) 0.2546(2)
H5B H -0.2074 -0.1562 0.1789
H6B H -0.1891 -0.2053 0.2720
H7B H -0.1964 -0.1416 0.3130
C7B C 0.3558(3) -0.06056(11) 0.3171(2)
H8B H 0.3734 -0.0479 0.3968
H9B H 0.4609 -0.0655 0.2843
H10B H 0.2917 -0.0326 0.2723
C8B C 0.3699(3) -0.16478(11) 0.3454(2)
H11B H 0.4291 -0.1761 0.2793
H12B H 0.4475 -0.1552 0.4099
H13B H 0.3007 -0.1956 0.3676
C9B C -0.1351(3) 0.09597(10) 0.25631(19)
C10B C -0.4153(3) 0.06247(12) 0.2790(3)
H14B H -0.4343 0.0563 0.3599
H15B H -0.5174 0.0731 0.2367
H16B H -0.3739 0.0280 0.2462
C11B C -0.3580(3) 0.16604(11) 0.2886(2)
H17B H -0.4141 0.1796 0.2171
H18B H -0.4342 0.1650 0.3492
H19B H -0.2677 0.1912 0.3116
C12B C -0.0721(3) 0.18308(11) 0.1446(2)
H20B H -0.0619 0.2166 0.1928
H21B H 0.0007 0.1862 0.0822
H22B H -0.1844 0.1795 0.1121
C13B C 0.1487(3) 0.11582(12) 0.2185(2)
H23B H 0.1629 0.0875 0.1593
H24B H 0.2149 0.1487 0.2037
H25B H 0.1829 0.1003 0.2941
Ag1B Ag -0.09499(2) -0.026821(8) 0.119599(15)
N7B N 0.6598(3) -0.05852(11) 0.0503(2)
N8B N 0.1201(3) -0.06361(9) 0.02364(18)
N9B N 0.3935(3) -0.10934(10) 0.0214(2)
C14B C 0.5319(3) -0.08052(11) 0.0375(2)
C15B C 0.2526(3) -0.08238(11) 0.0245(2)
Ag1_2 Ag -0.90501(2) 0.026821(8) 0.880401(15)
Ag1_3 Ag 0.09499(2) 0.026821(8) -0.119599(15)
Ag1B_2 Ag -0.09499(2) -0.026821(8) 1.119599(15)
Ag1B_3 Ag 0.90501(2) -0.026821(8) 0.119599(15)
N7_2 N 0.3402(3) 0.05852(11) 0.9497(2)
N7B_2 N -0.3402(3) -0.05852(11) 0.0503(2)
N8_2 N -0.1201(3) 0.06361(9) -0.02364(18)
N8B_2 N 0.1201(3) -0.06361(9) 1.02364(18)
N10 N 0.0139(3) 0.23310(15) 0.4181(2)
N11 N -0.1629(3) 0.28331(11) 0.5507(2)
N12 N 0.2801(3) 0.18504(12) 0.4686(2)
C16 C -0.0744(3) 0.25921(12) 0.4938(2)
C17 C 0.1540(4) 0.20795(13) 0.4514(2)
loop_
_geom_bond_atom_site_label_1
_geom_bond_atom_site_label_2
_geom_bond_site_symmetry_1
_geom_bond_site_symmetry_2
Ag1 N1 1_555 1_555
N1 C1 1_555 1_555
N2 C4 1_555 1_555
N3 C4 1_555 1_555
N4 Ag1 1_555 1_555
N5 C9 1_555 1_555
N6 C9 1_555 1_555
N7 C14 1_555 1_555
N8 Ag1 1_555 1_555
N9 C14 1_555 1_555
C1 C2 1_555 1_555
C2 N4 1_555 1_555
C3 C2 1_555 1_555
H1 C3 1_555 1_555
C4 N1 1_555 1_555
C5 N2 1_555 1_555
H2 C5 1_555 1_555
H3 C5 1_555 1_555
H4 C5 1_555 1_555
C6 N2 1_555 1_555
H5 C6 1_555 1_555
H6 C6 1_555 1_555
H7 C6 1_555 1_555
C7 N3 1_555 1_555
H8 C7 1_555 1_555
H9 C7 1_555 1_555
H10 C7 1_555 1_555
C8 N3 1_555 1_555
H11 C8 1_555 1_555
H12 C8 1_555 1_555
H13 C8 1_555 1_555
C9 N4 1_555 1_555
C10 N5 1_555 1_555
H14 C10 1_555 1_555
H15 C10 1_555 1_555
H16 C10 1_555 1_555
C11 N5 1_555 1_555
H17 C11 1_555 1_555
H18 C11 1_555 1_555
H19 C11 1_555 1_555
C12 N6 1_555 1_555
H20 C12 1_555 1_555
H21 C12 1_555 1_555
H22 C12 1_555 1_555
C13 N6 1_555 1_555
H23 C13 1_555 1_555
H24 C13 1_555 1_555
H25 C13 1_555 1_555
C15 N8 1_555 1_555
N10 C16 1_555 1_555
N11 C16 1_555 1_555
N12 C17 1_555 1_555
C17 N10 1_555 1_555
N1B C1B 1_555 1_555
N2B C4B 1_555 1_555
N3B C4B 1_555 1_555
N4B C2B 1_555 1_555
N5B C9B 1_555 1_555
N6B C9B 1_555 1_555
C1B C3 1_555 1_555
C2B C1B 1_555 1_555
C3B C1 1_555 1_555
H1B C3B 1_555 1_555
C4B N1B 1_555 1_555
C5B N2B 1_555 1_555
H2B C5B 1_555 1_555
H3B C5B 1_555 1_555
H4B C5B 1_555 1_555
C6B N2B 1_555 1_555
H5B C6B 1_555 1_555
H6B C6B 1_555 1_555
H7B C6B 1_555 1_555
C7B N3B 1_555 1_555
H8B C7B 1_555 1_555
H9B C7B 1_555 1_555
H10B C7B 1_555 1_555
C8B N3B 1_555 1_555
H11B C8B 1_555 1_555
H12B C8B 1_555 1_555
H13B C8B 1_555 1_555
C9B N4B 1_555 1_555
C10B N5B 1_555 1_555
H14B C10B 1_555 1_555
H15B C10B 1_555 1_555
H16B C10B 1_555 1_555
C11B N5B 1_555 1_555
H17B C11B 1_555 1_555
H18B C11B 1_555 1_555
H19B C11B 1_555 1_555
C12B N6B 1_555 1_555
H20B C12B 1_555 1_555
H21B C12B 1_555 1_555
H22B C12B 1_555 1_555
C13B N6B 1_555 1_555
H23B C13B 1_555 1_555
H24B C13B 1_555 1_555
H25B C13B 1_555 1_555
Ag1B N1B 1_555 1_555
N7B C14B 1_555 1_555
N8B Ag1B 1_555 1_555
N9B C14B 1_555 1_555
C15B N8B 1_555 1_555
Ag1_2 N7 1_555 1_555
Ag1_3 N8B 1_555 1_555
Ag1B_2 N8 1_555 1_555
Ag1B_3 N7B 1_555 1_555
N7_2 Ag1 1_555 1_555
N7B_2 Ag1B 1_555 1_555
N8_2 Ag1B 1_555 1_555
N8B_2 Ag1 1_555 1_555
N9 C15 1_555 1_555
N4B Ag1B 1_555 1_555
C2B C3B 1_555 1_555
N9B C15B 1_555 1_555
Ag1_3 N8_2 1_555 1_555
Ag1B_2 N8B_2 1_555 1_555

#END
