
#######################################################################
#
#                 Cambridge Crystallographic Data Centre
#                                CCDC 
#
#######################################################################
#
# If this CIF has been generated from an entry in the Cambridge 
# Structural Database, then it will include bibliographic, chemical, 
# crystal, experimental, refinement or atomic coordinate data resulting 
# from the CCDC's data processing and validation procedures.
#
#######################################################################

data_YIDNOP
_symmetry_cell_setting           monoclinic
_symmetry_space_group_name_H-M   'P 21/c'
_symmetry_Int_Tables_number      14
_space_group_name_Hall           '-P 2ybc'
loop_
_symmetry_equiv_pos_site_id
_symmetry_equiv_pos_as_xyz
1 x,y,z
2 -x,1/2+y,1/2-z
3 -x,-y,-z
4 x,1/2-y,1/2+z
_cell_length_a                   10.1801(2)
_cell_length_b                   35.4768(6)
_cell_length_c                   8.1456(2)
_cell_angle_alpha                90
_cell_angle_beta                 97.1440(10)
_cell_angle_gamma                90
_cell_volume                     2919.01
loop_
_atom_site_label
_atom_site_type_symbol
_atom_site_fract_x
_atom_site_fract_y
_atom_site_fract_z
C1 C 0.2331(3) 0.23189(10) 0.4591(5)
C2 C 0.1116(4) 0.22703(12) 0.3335(5)
H1 H 0.0752 0.2516 0.3022
H2 H 0.1370 0.2151 0.2350
C3 C 0.0273(4) 0.16667(11) 0.3963(5)
C4 C 0.1374(4) 0.14754(13) 0.3584(6)
H3 H 0.2118 0.1609 0.3359
C5 C 0.1378(5) 0.10843(14) 0.3535(8)
H4 H 0.2119 0.0957 0.3260
C6 C 0.0302(5) 0.08870(13) 0.3888(8)
C7 C -0.0803(4) 0.10688(13) 0.4312(7)
H5 H -0.1530 0.0932 0.4570
C8 C -0.0809(4) 0.14578(12) 0.4346(5)
C9 C 0.7044(3) 0.22777(10) 0.9310(5)
C10 C 0.8244(4) 0.22184(12) 1.0600(5)
H6 H 0.8602 0.2462 1.0970
H7 H 0.7969 0.2089 1.1550
C11 C 0.9044(4) 0.16244(11) 0.9735(5)
C12 C 0.7919(4) 0.14320(13) 1.0026(6)
H8 H 0.7219 0.1563 1.0389
C13 C 0.7817(5) 0.10486(15) 0.9785(7)
H9 H 0.7057 0.0923 1.0003
C14 C 0.8829(6) 0.08520(14) 0.9227(8)
C15 C 0.9975(5) 0.10342(14) 0.8931(7)
H10 H 1.0669 0.0900 0.8569
C16 C 1.0074(4) 0.14191(13) 0.9182(6)
C17 C 0.4793(3) 0.15799(11) 0.6587(5)
C18 C 0.5042(5) 0.11663(12) 0.6386(6)
H11 H 0.5941 0.1105 0.6851
H12 H 0.4440 0.1021 0.6972
C19 C 0.5380(4) 0.07433(12) 0.4211(6)
C20 C 0.6068(5) 0.04845(12) 0.5265(7)
H13 H 0.6182 0.0528 0.6399
C21 C 0.6589(5) 0.01595(14) 0.4636(9)
H14 H 0.7055 -0.0012 0.5348
C22 C 0.6413(6) 0.00947(13) 0.2979(9)
C23 C 0.5724(6) 0.03446(14) 0.1902(8)
H15 H 0.5605 0.0297 0.0770
C24 C 0.5212(5) 0.06667(13) 0.2532(7)
Cl1 Cl -0.21982(12) 0.16884(4) 0.4836(2)
Cl2 Cl 0.02712(19) 0.03967(4) 0.3748(3)
Cl3 Cl 1.15126(13) 0.16473(4) 0.8836(2)
Cl4 Cl 0.8703(2) 0.03676(4) 0.8933(3)
Cl5 Cl 0.43592(16) 0.09847(4) 0.11576(19)
Cl6 Cl 0.7043(2) -0.03135(4) 0.2194(3)
Nd1 Nd 0.469125(17) 0.237244(5) 0.69698(2)
O1 O 0.2348(2) 0.21996(8) 0.6017(3)
O2 O 0.3345(2) 0.24889(8) 0.4157(3)
O3 O 0.0130(2) 0.20488(7) 0.3960(4)
O4 O 0.6009(3) 0.24198(8) 0.9835(3)
O5 O 0.7074(2) 0.22086(8) 0.7852(3)
O6 O 0.9254(2) 0.20022(8) 0.9956(3)
O7 O 0.4680(3) 0.17038(8) 0.8010(4)
O8 O 0.4773(3) 0.17940(7) 0.5340(3)
O9 O 0.4849(3) 0.10728(8) 0.4683(4)
O10 O 0.4630(4) 0.30741(9) 0.7056(4)
H16 H 0.469(6) 0.3196(12) 0.790(3)
H17 H 0.459(6) 0.3203(12) 0.623(3)
Nd1C Nd 0.469125(17) 0.262756(5) 0.19698(2)
Nd1C_2 Nd 0.469125(17) 0.262756(5) 1.19698(2)
O2C O 0.3345(2) 0.25111(8) 0.9157(3)
O4C O 0.6009(3) 0.25802(8) 0.4835(3)
loop_
_geom_bond_atom_site_label_1
_geom_bond_atom_site_label_2
_geom_bond_site_symmetry_1
_geom_bond_site_symmetry_2
C1 C2 1_555 1_555
C2 H1 1_555 1_555
H2 C2 1_555 1_555
C3 C4 1_555 1_555
C4 H3 1_555 1_555
C5 C4 1_555 1_555
H4 C5 1_555 1_555
C6 C5 1_555 1_555
C7 C6 1_555 1_555
H5 C7 1_555 1_555
C8 C3 1_555 1_555
C9 C10 1_555 1_555
C10 H6 1_555 1_555
H7 C10 1_555 1_555
C11 C12 1_555 1_555
C12 H8 1_555 1_555
C13 C12 1_555 1_555
H9 C13 1_555 1_555
C14 C13 1_555 1_555
C15 C14 1_555 1_555
H10 C15 1_555 1_555
C16 C11 1_555 1_555
C17 C18 1_555 1_555
C18 H11 1_555 1_555
H12 C18 1_555 1_555
C19 C20 1_555 1_555
C20 H13 1_555 1_555
C21 C20 1_555 1_555
H14 C21 1_555 1_555
C22 C21 1_555 1_555
C23 C22 1_555 1_555
H15 C23 1_555 1_555
C24 C19 1_555 1_555
Cl1 C8 1_555 1_555
Cl2 C6 1_555 1_555
Cl3 C16 1_555 1_555
Cl4 C14 1_555 1_555
Cl5 C24 1_555 1_555
Cl6 C22 1_555 1_555
Nd1 O1 1_555 1_555
O1 C1 1_555 1_555
O2 C1 1_555 1_555
O3 C2 1_555 1_555
O4 C9 1_555 1_555
O5 C9 1_555 1_555
O6 C10 1_555 1_555
O7 C17 1_555 1_555
O8 C17 1_555 1_555
O9 C18 1_555 1_555
O10 Nd1 1_555 1_555
H16 O10 1_555 1_555
H17 O10 1_555 1_555
Nd1C O2 1_555 1_555
Nd1C_2 O4 1_555 1_555
O2C Nd1 1_555 1_555
O4C Nd1 1_555 1_555
C3 O3 1_555 1_555
C7 C8 1_555 1_555
C11 O6 1_555 1_555
C15 C16 1_555 1_555
C19 O9 1_555 1_555
C23 C24 1_555 1_555
Nd1 O2 1_555 1_555
Nd1 O4 1_555 1_555
Nd1 O5 1_555 1_555
Nd1 O7 1_555 1_555
Nd1 O8 1_555 1_555
Nd1C O4C 1_555 1_555
Nd1C_2 O2C 1_555 1_555

#END
