
#######################################################################
#
#                 Cambridge Crystallographic Data Centre
#                                CCDC 
#
#######################################################################
#
# If this CIF has been generated from an entry in the Cambridge 
# Structural Database, then it will include bibliographic, chemical, 
# crystal, experimental, refinement or atomic coordinate data resulting 
# from the CCDC's data processing and validation procedures.
#
#######################################################################

data_YIDSOU
_symmetry_cell_setting           orthorhombic
_symmetry_space_group_name_H-M   'P 21 21 21'
_symmetry_Int_Tables_number      19
_space_group_name_Hall           'P 2ac 2ab'
loop_
_symmetry_equiv_pos_site_id
_symmetry_equiv_pos_as_xyz
1 x,y,z
2 1/2-x,-y,1/2+z
3 1/2+x,1/2-y,-z
4 -x,1/2+y,1/2-z
_cell_length_a                   6.7041(4)
_cell_length_b                   10.4763(8)
_cell_length_c                   30.037(2)
_cell_angle_alpha                90
_cell_angle_beta                 90
_cell_angle_gamma                90
_cell_volume                     2109.62
loop_
_atom_site_label
_atom_site_type_symbol
_atom_site_fract_x
_atom_site_fract_y
_atom_site_fract_z
C1 C 0.7166(9) 0.8770(6) -0.1339(2)
C2 C 0.6376(9) 0.9818(7) -0.1569(2)
H1 H 0.6420 1.0634 -0.1448
C3 C 0.5543(10) 0.9606(8) -0.1977(2)
H2 H 0.4969 1.0285 -0.2130
C4 C 0.5533(10) 0.8435(8) -0.2162(2)
C5 C 0.6311(11) 0.7401(8) -0.1944(3)
H3 H 0.6280 0.6598 -0.2076
C6 C 0.7147(10) 0.7562(6) -0.1525(2)
H4 H 0.7684 0.6871 -0.1372
C7 C 0.7101(9) 1.0745(6) 0.1317(2)
C8 C 0.7049(11) 0.9539(7) 0.1490(2)
H5 H 0.7560 0.8866 0.1323
C9 C 0.6272(10) 0.9296(7) 0.1899(3)
H6 H 0.6270 0.8472 0.2015
C10 C 0.5489(10) 1.0293(8) 0.2138(2)
C11 C 0.5500(11) 1.1534(7) 0.1974(2)
H7 H 0.4983 1.2203 0.2141
C12 C 0.6303(9) 1.1753(6) 0.1551(2)
H8 H 0.6298 1.2569 0.1430
N1 N 0.9918(6) 1.0042(5) -0.08230(17)
N2 N 1.0112(7) 1.0165(5) 0.07515(16)
O1 O 0.6710(6) 0.9543(4) -0.05205(13)
O2 O 0.6801(6) 1.0468(4) 0.04620(14)
O3 O 0.8891(7) 0.7736(4) -0.06666(15)
O4 O 0.8701(7) 0.7723(4) 0.04198(15)
H9 H 0.839(10) 0.724(4) 0.0632(14)
H10 H 0.915(9) 0.842(3) 0.0521(18)
O5 O 0.2644(6) 0.9982(6) -0.00285(14)
H11 H 0.194(7) 1.013(7) 0.0200(10)
H12 H 0.181(6) 0.990(7) -0.0245(11)
O6 O 0.8547(7) 1.2292(4) -0.03900(16)
H13 H 0.876(10) 1.296(3) -0.0553(18)
H14 H 0.911(9) 1.168(4) -0.0535(18)
O7 O 0.8489(6) 1.2364(4) 0.07503(14)
S1 S 0.8222(2) 0.89822(14) -0.08011(5)
S2 S 0.8159(2) 1.10106(14) 0.07852(5)
Cl1 Cl 1.1828(3) 0.95484(18) -0.11769(6)
Cl2 Cl 1.1858(3) 1.06770(17) 0.11428(6)
Cl3 Cl 0.4568(3) 0.8212(3) -0.26962(6)
Cl4 Cl 0.4536(3) 1.0035(2) 0.26702(6)
Na1 Na 0.5463(4) 0.8486(2) 0.01367(8)
Na2 Na 0.5289(4) 1.1508(2) -0.01858(8)
O3B O 0.3891(7) 0.7264(4) 0.06666(15)
O4B O 0.3701(7) 0.7277(4) -0.04198(15)
H9B H 0.339(10) 0.776(4) -0.0632(14)
H10B H 0.415(9) 0.658(3) -0.0521(18)
O6B O 0.3547(7) 1.2708(4) 0.03900(16)
H13B H 0.376(10) 1.204(3) 0.0553(18)
H14B H 0.411(9) 1.332(4) 0.0535(18)
O7B O 0.3489(6) 1.2636(4) -0.07503(14)
Na1B Na 1.0463(4) 0.6514(2) -0.01367(8)
Na2B Na 1.0289(4) 1.3492(2) 0.01858(8)
loop_
_geom_bond_atom_site_label_1
_geom_bond_atom_site_label_2
_geom_bond_site_symmetry_1
_geom_bond_site_symmetry_2
C1 C2 1_555 1_555
C2 H1 1_555 1_555
C3 C2 1_555 1_555
H2 C3 1_555 1_555
C4 C3 1_555 1_555
C5 C4 1_555 1_555
H3 C5 1_555 1_555
C6 C1 1_555 1_555
H4 C6 1_555 1_555
C7 C8 1_555 1_555
C8 H5 1_555 1_555
C9 C8 1_555 1_555
H6 C9 1_555 1_555
C10 C9 1_555 1_555
C11 C10 1_555 1_555
H7 C11 1_555 1_555
C12 C7 1_555 1_555
H8 C12 1_555 1_555
N1 S1 1_555 1_555
N2 S2 1_555 1_555
O1 S1 1_555 1_555
O2 S2 1_555 1_555
O3 S1 1_555 1_555
O4 H9 1_555 1_555
H10 O4 1_555 1_555
O5 H11 1_555 1_555
H12 O5 1_555 1_555
O6 H13 1_555 1_555
H14 O6 1_555 1_555
O7 S2 1_555 1_555
S1 C1 1_555 1_555
S2 C7 1_555 1_555
Cl1 N1 1_555 1_555
Cl2 N2 1_555 1_555
Cl3 C4 1_555 1_555
Cl4 C10 1_555 1_555
Na1 O1 1_555 1_555
Na2 O1 1_555 1_555
O3B Na1 1_555 1_555
O4B Na1 1_555 1_555
H9B O4B 1_555 1_555
H10B O4B 1_555 1_555
O6B Na2 1_555 1_555
H13B O6B 1_555 1_555
H14B O6B 1_555 1_555
O7B Na2 1_555 1_555
Na1B O3 1_555 1_555
Na2B O6 1_555 1_555
C5 C6 1_555 1_555
C11 C12 1_555 1_555
O2 Na1 1_555 1_555
O2 Na2 1_555 1_555
O4 Na1 1_555 1_555
O4 Na1B 1_555 1_555
O5 Na1 1_555 1_555
O5 Na2 1_555 1_555
O6 Na2 1_555 1_555
O7 Na2B 1_555 1_555

#END
