
#######################################################################
#
#                 Cambridge Crystallographic Data Centre
#                                CCDC 
#
#######################################################################
#
# If this CIF has been generated from an entry in the Cambridge 
# Structural Database, then it will include bibliographic, chemical, 
# crystal, experimental, refinement or atomic coordinate data resulting 
# from the CCDC's data processing and validation procedures.
#
#######################################################################

data_YIDSAF
_symmetry_cell_setting           tetragonal
_symmetry_space_group_name_H-M   'I 41/a c d'
_symmetry_Int_Tables_number      142
_space_group_name_Hall           '-I 4bd 2c'
loop_
_symmetry_equiv_pos_site_id
_symmetry_equiv_pos_as_xyz
1 x,y,z
2 1/4-y,3/4+x,1/4+z
3 x,-y,1/2-z
4 1/2-x,-y,1/2+z
5 1/4+y,3/4+x,3/4-z
6 1/4+y,1/4-x,3/4+z
7 1/2-x,y,-z
8 1/4-y,1/4-x,1/4-z
9 1/2+x,1/2+y,1/2+z
10 3/4-y,1/4+x,3/4+z
11 1/2+x,1/2-y,-z
12 -x,1/2-y,z
13 3/4+y,1/4+x,1/4-z
14 3/4+y,3/4-x,1/4+z
15 -x,1/2+y,1/2-z
16 3/4-y,3/4-x,3/4-z
17 -x,-y,-z
18 3/4+y,1/4-x,3/4-z
19 -x,y,1/2+z
20 1/2+x,y,1/2-z
21 3/4-y,1/4-x,1/4+z
22 3/4-y,3/4+x,1/4-z
23 1/2+x,-y,z
24 3/4+y,3/4+x,3/4+z
25 1/2-x,1/2-y,1/2-z
26 1/4+y,3/4-x,1/4-z
27 1/2-x,1/2+y,z
28 x,1/2+y,-z
29 1/4-y,3/4-x,3/4+z
30 1/4-y,1/4+x,3/4-z
31 x,1/2-y,1/2+z
32 1/4+y,1/4+x,1/4+z
_cell_length_a                   14.246(4)
_cell_length_b                   14.246(4)
_cell_length_c                   38.596(12)
_cell_angle_alpha                90
_cell_angle_beta                 90
_cell_angle_gamma                90
_cell_volume                     7833
loop_
_atom_site_label
_atom_site_type_symbol
_atom_site_fract_x
_atom_site_fract_y
_atom_site_fract_z
Cu1 Cu 0.4327(2) 0.3198(2) 0.0174(1)
Cl1 Cl 0.3994(4) 0.1583(4) 0.0318(1)
N1 N 0.3755(10) 0.3942(11) 0.0549(3)
C1 C 0.3859(13) 0.3679(13) 0.0889(3)
C2 C 0.3467(12) 0.4141(12) 0.1163(3)
C3 C 0.2895(10) 0.4919(11) 0.1108(3)
C4 C 0.2740(13) 0.5211(12) 0.0757(3)
C5 C 0.3209(11) 0.4678(11) 0.0502(4)
N2 N 0.5905(11) 0.1626(10) -0.0330(2)
C6 C 0.5456(15) 0.0912(15) -0.0504(4)
C7 C 0.5471(15) 0.0879(13) -0.0866(4)
C8 C 0.5937(12) 0.1597(12) -0.1065(3)
C9 C 0.6400(16) 0.2265(14) -0.0878(5)
C10 C 0.6319(18) 0.2278(17) -0.0508(5)
H1 H 0.4276 0.3166 0.0938
H2 H 0.3552 0.3915 0.1395
H3 H 0.2326 0.5721 0.0703
H4 H 0.3136 0.4881 0.0266
H5 H 0.5148 0.0436 -0.0370
H6 H 0.5134 0.0390 -0.0983
H7 H 0.6765 0.2726 -0.0999
H8 H 0.6593 0.2792 -0.0383
Cu1K Cu 0.5673(2) 0.1802(2) 0.0174(1)
Cl1K Cl 0.6006(4) 0.3417(4) 0.0318(1)
C3L C 0.2419(11) 0.5395(10) 0.1392(3)
N1K N 0.6245(10) 0.1058(11) 0.0549(3)
N2K N 0.4095(11) 0.3374(10) -0.0330(2)
C2L C 0.1641(12) 0.5967(12) 0.1337(3)
C4L C 0.2711(12) 0.5240(13) 0.1743(3)
C1L C 0.1179(13) 0.6359(13) 0.1611(3)
H2L H 0.1415 0.6052 0.1105
C5L C 0.2178(11) 0.5709(11) 0.1998(4)
H3L H 0.3221 0.4826 0.1797
N1L N 0.1442(11) 0.6255(10) 0.1951(3)
H1L H 0.0666 0.6776 0.1562
H4L H 0.2381 0.5636 0.2234
Cu1L Cu 0.0698(2) 0.6827(2) 0.2326(1)
C8O C 0.5903(12) 0.1563(12) -0.1435(3)
Cu1D Cu 0.5698(2) 0.1827(2) -0.2674(1)
C7O C 0.6621(13) 0.2029(15) -0.1634(4)
C9O C 0.5235(14) 0.1100(16) -0.1622(5)
N2O N 0.5874(10) 0.1595(11) -0.2170(2)
C6O C 0.6588(15) 0.2044(15) -0.1996(4)
H6O H 0.7110 0.2366 -0.1517
C10O C 0.5222(17) 0.1181(18) -0.1992(5)
H7O H 0.4774 0.0735 -0.1501
H5O H 0.7064 0.2352 -0.2130
H8O H 0.4708 0.0907 -0.2117
loop_
_geom_bond_atom_site_label_1
_geom_bond_atom_site_label_2
_geom_bond_site_symmetry_1
_geom_bond_site_symmetry_2
Cu1 Cl1 1_555 1_555
Cl1 Cu1K 1_555 1_555
N1 Cu1 1_555 1_555
C1 N1 1_555 1_555
C2 C1 1_555 1_555
C3 C2 1_555 1_555
C4 C3 1_555 1_555
C5 N1 1_555 1_555
N2 C6 1_555 1_555
C6 C7 1_555 1_555
C7 C8 1_555 1_555
C8 C9 1_555 1_555
C9 C10 1_555 1_555
C10 N2 1_555 1_555
H1 C1 1_555 1_555
H2 C2 1_555 1_555
H3 C4 1_555 1_555
H4 C5 1_555 1_555
H5 C6 1_555 1_555
H6 C7 1_555 1_555
H7 C9 1_555 1_555
H8 C10 1_555 1_555
Cu1K Cu1 1_555 1_555
Cl1K Cu1 1_555 1_555
C3L C3 1_555 1_555
N1K Cu1K 1_555 1_555
N2K Cu1 1_555 1_555
C2L C3L 1_555 1_555
C4L C3L 1_555 1_555
C1L C2L 1_555 1_555
H2L C2L 1_555 1_555
C5L C4L 1_555 1_555
H3L C4L 1_555 1_555
N1L C1L 1_555 1_555
H1L C1L 1_555 1_555
H4L C5L 1_555 1_555
Cu1L N1L 1_555 1_555
C8O C8 1_555 1_555
Cu1D N2O 1_555 1_555
C7O C8O 1_555 1_555
C9O C8O 1_555 1_555
N2O C6O 1_555 1_555
C6O C7O 1_555 1_555
H6O C7O 1_555 1_555
C10O C9O 1_555 1_555
H7O C9O 1_555 1_555
H5O C6O 1_555 1_555
H8O C10O 1_555 1_555
C4 C5 1_555 1_555
N2 Cu1K 1_555 1_555
Cu1K Cl1K 1_555 1_555
C5L N1L 1_555 1_555
N2O C10O 1_555 1_555

#END
