
#######################################################################
#
#                 Cambridge Crystallographic Data Centre
#                                CCDC 
#
#######################################################################
#
# If this CIF has been generated from an entry in the Cambridge 
# Structural Database, then it will include bibliographic, chemical, 
# crystal, experimental, refinement or atomic coordinate data resulting 
# from the CCDC's data processing and validation procedures.
#
#######################################################################

data_YIDTIP
_symmetry_cell_setting           monoclinic
_symmetry_space_group_name_H-M   'C 2/c'
_symmetry_Int_Tables_number      15
_space_group_name_Hall           '-C 2yn'
loop_
_symmetry_equiv_pos_site_id
_symmetry_equiv_pos_as_xyz
1 x,y,z
2 1/2+x,1/2+y,z
3 -x,y,1/2-z
4 1/2-x,1/2+y,1/2-z
5 -x,-y,-z
6 1/2-x,1/2-y,-z
7 x,-y,1/2+z
8 1/2+x,1/2-y,1/2+z
_cell_length_a                   25.2969(6)
_cell_length_b                   5.7523(2)
_cell_length_c                   15.7938(4)
_cell_angle_alpha                90
_cell_angle_beta                 110.4840(10)
_cell_angle_gamma                90
_cell_volume                     2152.92
loop_
_atom_site_label
_atom_site_type_symbol
_atom_site_fract_x
_atom_site_fract_y
_atom_site_fract_z
Pb1 Pb 0.646310(10) 0.75580(3) 0.703930(10)
O1 O 0.6691(2) 0.2869(6) 0.7253(3)
O2 O 0.7463(2) 0.4286(7) 0.8195(3)
O3 O 0.7162(2) 0.0889(7) 0.8421(3)
O4 O 0.55880(10) 0.5188(6) 0.6531(2)
O5 O 0.56740(10) 0.9748(6) 0.7340(2)
N1 N 0.58920(10) 0.9584(6) 0.5529(2)
N2 N 0.5576(2) 1.1515(7) 0.5335(2)
N3 N 0.5363(2) 1.1800(7) 0.4459(2)
N4 N 0.55360(10) 1.0045(6) 0.4050(2)
N5 N 0.6433(2) 0.3878(7) 0.3736(2)
N6 N 0.64720(10) 0.5581(6) 0.5411(2)
N7 N 0.7111(2) 0.2686(6) 0.7966(3)
C1 C 0.5856(2) 0.8710(8) 0.4729(2)
C2 C 0.6164(2) 0.6626(9) 0.4636(3)
C3 C 0.6142(2) 0.5754(8) 0.3806(3)
C4 C 0.6739(2) 0.2854(8) 0.4513(4)
C5 C 0.6757(2) 0.3700(8) 0.5335(3)
H1 H 0.5608 0.4219 0.6163
H2 H 0.5315 0.6036 0.6296
H3 H 0.5407 0.9907 0.6865
H4 H 0.5572 0.9013 0.7700
H5 H 0.5916 0.6501 0.3282
H6 H 0.6946 0.1530 0.4495
H7 H 0.6977 0.2930 0.5858
Pb1_2 Pb 0.646310(10) -0.24420(3) 0.703930(10)
Pb1C Pb 0.853690(10) 0.25580(3) 0.796070(10)
Pb1F Pb 0.646310(10) 0.24420(3) 0.203930(10)
O1_2 O 0.6691(2) 1.2869(6) 0.7253(3)
O2C O 0.7537(2) 0.9286(7) 0.6805(3)
O3_2 O 0.7162(2) 1.0889(7) 0.8421(3)
N5F N 0.6433(2) 0.6122(7) 0.8736(2)
loop_
_geom_bond_atom_site_label_1
_geom_bond_atom_site_label_2
_geom_bond_site_symmetry_1
_geom_bond_site_symmetry_2
Pb1 O1 1_555 1_555
O1 N7 1_555 1_555
O2 Pb1 1_555 1_555
O3 N7 1_555 1_555
O4 Pb1 1_555 1_555
O5 Pb1 1_555 1_555
N1 Pb1 1_555 1_555
N2 N1 1_555 1_555
N3 N2 1_555 1_555
N4 N3 1_555 1_555
N5 C3 1_555 1_555
N6 Pb1 1_555 1_555
N7 O2 1_555 1_555
C1 N1 1_555 1_555
C2 N6 1_555 1_555
C3 C2 1_555 1_555
C4 N5 1_555 1_555
C5 N6 1_555 1_555
H1 O4 1_555 1_555
H2 O4 1_555 1_555
H3 O5 1_555 1_555
H4 O5 1_555 1_555
H5 C3 1_555 1_555
H6 C4 1_555 1_555
H7 C5 1_555 1_555
Pb1_2 O1 1_555 1_555
Pb1C O2 1_555 1_555
Pb1F N5 1_555 1_555
O1_2 Pb1 1_555 1_555
O2C Pb1 1_555 1_555
O3_2 Pb1 1_555 1_555
N5F Pb1 1_555 1_555
O3 Pb1_2 1_555 1_555
N4 C1 1_555 1_555
C1 C2 1_555 1_555
C4 C5 1_555 1_555

#END
