
#######################################################################
#
#                 Cambridge Crystallographic Data Centre
#                                CCDC 
#
#######################################################################
#
# If this CIF has been generated from an entry in the Cambridge 
# Structural Database, then it will include bibliographic, chemical, 
# crystal, experimental, refinement or atomic coordinate data resulting 
# from the CCDC's data processing and validation procedures.
#
#######################################################################

data_YIDYEQ
_symmetry_cell_setting           monoclinic
_symmetry_space_group_name_H-M   'P 2/c'
_symmetry_Int_Tables_number      13
_space_group_name_Hall           '-P 2yc'
loop_
_symmetry_equiv_pos_site_id
_symmetry_equiv_pos_as_xyz
1 x,y,z
2 -x,y,1/2-z
3 -x,-y,-z
4 x,-y,1/2+z
_cell_length_a                   14.829(3)
_cell_length_b                   7.2111(14)
_cell_length_c                   23.976(5)
_cell_angle_alpha                90
_cell_angle_beta                 95.00(3)
_cell_angle_gamma                90
_cell_volume                     2554.08
loop_
_atom_site_label
_atom_site_type_symbol
_atom_site_fract_x
_atom_site_fract_y
_atom_site_fract_z
C1 C 0.4129(3) 0.2052(8) 0.5417(2)
H1 H 0.4376 0.1590 0.5759
C2 C 0.4719(3) 0.2530(8) 0.5017(2)
H2 H 0.5342 0.2429 0.5097
C3 C 0.4370(3) 0.3140(7) 0.4510(2)
H3 H 0.4752 0.3432 0.4235
C4 C 0.3426(3) 0.3333(6) 0.43985(18)
C5 C 0.2887(3) 0.2852(6) 0.48253(17)
C6 C 0.1916(3) 0.2943(6) 0.47436(17)
C7 C 0.0563(3) 0.2370(7) 0.5113(2)
H4 H 0.0246 0.1983 0.5411
C8 C 0.0072(3) 0.2930(8) 0.4617(2)
H5 H -0.0558 0.2909 0.4587
C9 C 0.0525(3) 0.3505(7) 0.4178(2)
H6 H 0.0208 0.3879 0.3845
C10 C 0.1472(3) 0.3528(6) 0.42319(18)
C11 C 0.2981(3) 0.3891(6) 0.38611(18)
C12 C 0.2044(3) 0.4006(6) 0.37806(17)
C13 C 0.2132(4) 0.4844(7) 0.2878(2)
H7 H 0.1863 0.5186 0.2528
C14 C 0.3063(5) 0.4713(8) 0.2957(2)
H8 H 0.3395 0.4941 0.2652
C15 C 0.3677(3) 0.1853(8) 0.67698(17)
C16 C 0.4361(3) 0.0762(7) 0.71521(17)
C17 C 0.5000 0.1725(9) 0.7500
H9 H 0.5000 0.3015 0.7500
C18 C 0.4360(3) -0.1149(8) 0.7155(2)
H10 H 0.3931 -0.1798 0.6925
C19 C 0.5000 -0.2104(12) 0.7500
H11 H 0.5000 -0.3394 0.7500
C20 C 0.0931(3) 0.2029(7) 0.66650(17)
C21 C 0.0441(3) 0.0973(6) 0.70954(16)
C22 C 0.0000 0.1949(9) 0.7500
H12 H 0.0000 0.3239 0.7500
C23 C 0.0432(3) -0.0947(7) 0.71019(19)
H13 H 0.0721 -0.1597 0.6834
C24 C 0.0000 -0.1916(10) 0.7500
H14 H 0.0000 -0.3206 0.7500
N1 N 0.1455(2) 0.2367(5) 0.51787(14)
N2 N 0.3234(2) 0.2223(6) 0.53358(15)
N3 N 0.3510(3) 0.4285(6) 0.34392(18)
N4 N 0.1615(3) 0.4498(6) 0.32826(16)
O1 O 0.3691(3) 0.3545(6) 0.67766(17)
O2 O 0.3140(2) 0.0834(6) 0.64574(14)
O3 O 0.2181(3) -0.1484(5) 0.55112(14)
H24 H 0.241(4) -0.181(7) 0.5213(13)
H25 H 0.234(3) -0.239(5) 0.5731(15)
O4 O 0.1262(2) 0.1001(6) 0.63021(13)
O6 O 0.0964(3) 0.3738(5) 0.66852(15)
Cu1 Cu 0.22665(4) 0.15296(9) 0.58553(2)
C1A C 0.5871(3) 0.2052(8) 0.9583(2)
H1A H 0.5624 0.1590 0.9241
C2A C 0.5281(3) 0.2530(8) 0.9983(2)
H2A H 0.4658 0.2429 0.9903
C3A C 0.5630(3) 0.3140(7) 1.0490(2)
H3A H 0.5248 0.3432 1.0765
C4A C 0.6574(3) 0.3333(6) 1.06015(18)
C5A C 0.7113(3) 0.2852(6) 1.01747(17)
C6A C 0.8084(3) 0.2943(6) 1.02564(17)
C7A C 0.9437(3) 0.2370(7) 0.9887(2)
H4A H 0.9754 0.1983 0.9589
C8A C 0.9928(3) 0.2930(8) 1.0383(2)
H5A H 1.0558 0.2909 1.0413
C9A C 0.9475(3) 0.3505(7) 1.0822(2)
H6A H 0.9792 0.3879 1.1155
C10A C 0.8528(3) 0.3528(6) 1.07681(18)
C11A C 0.7019(3) 0.3891(6) 1.11389(18)
C12A C 0.7956(3) 0.4006(6) 1.12194(17)
C13A C 0.7868(4) 0.4844(7) 1.2122(2)
H7A H 0.8137 0.5186 1.2472
C14A C 0.6937(5) 0.4713(8) 1.2043(2)
H8A H 0.6605 0.4941 1.2348
C15A C 0.6323(3) 0.1853(8) 0.82302(17)
C16A C 0.5639(3) 0.0762(7) 0.78479(17)
C18A C 0.5640(3) -0.1149(8) 0.7845(2)
H10A H 0.6069 -0.1798 0.8075
C20A C -0.0931(3) 0.2029(7) 0.83350(17)
C21A C -0.0441(3) 0.0973(6) 0.79046(16)
C23A C -0.0432(3) -0.0947(7) 0.78981(19)
H13A H -0.0721 -0.1597 0.8166
N1A N 0.8545(2) 0.2367(5) 0.98213(14)
N2A N 0.6766(2) 0.2223(6) 0.96642(15)
N3A N 0.6490(3) 0.4285(6) 1.15608(18)
N4A N 0.8385(3) 0.4498(6) 1.17174(16)
O1A O 0.6309(3) 0.3545(6) 0.82234(17)
O2A O 0.6860(2) 0.0834(6) 0.85426(14)
O3A O 0.7819(3) -0.1484(5) 0.94888(14)
H24A H 0.759(4) -0.181(7) 0.9787(13)
H25A H 0.766(3) -0.239(5) 0.9269(15)
O4A O -0.1262(2) 0.1001(6) 0.86979(13)
O4A_2 O 0.8738(2) 0.1001(6) 0.86979(13)
O6A O -0.0964(3) 0.3738(5) 0.83148(15)
Cu1A Cu 0.77335(4) 0.15296(9) 0.91447(2)
Cu1A_2 Cu -0.22665(4) 0.15296(9) 0.91447(2)
C25 C 0.2265(4) -0.0370(9) 0.3096(2)
H15 H 0.2479 0.0777 0.2953
H16 H 0.1640 -0.0243 0.3165
H17 H 0.2326 -0.1338 0.2827
C26 C 0.3805(4) -0.0846(9) 0.3637(2)
H18 H 0.3996 -0.0077 0.3343
H19 H 0.4014 -0.2091 0.3589
H20 H 0.4055 -0.0376 0.3992
C27 C 0.2456(5) -0.1394(8) 0.4071(3)
C28 C 0.1422(3) -0.1422(8) 0.4065(3)
H21 H 0.1174 -0.2215 0.3768
H22 H 0.1191 -0.0188 0.4005
H23 H 0.1253 -0.1880 0.4417
N5 N 0.2799(3) -0.0837(7) 0.36185(19)
O7 O 0.2951(3) -0.1872(6) 0.45047(14)
O5 O 0.2320(3) 0.5306(7) 0.61437(18)
H26 H 0.186(3) 0.510(12) 0.632(3)
H27 H 0.276(3) 0.545(7) 0.640(3)
loop_
_geom_bond_atom_site_label_1
_geom_bond_atom_site_label_2
_geom_bond_site_symmetry_1
_geom_bond_site_symmetry_2
C1 H1 1_555 1_555
C2 C1 1_555 1_555
H2 C2 1_555 1_555
C3 C2 1_555 1_555
H3 C3 1_555 1_555
C4 C3 1_555 1_555
C5 C4 1_555 1_555
C6 C5 1_555 1_555
C7 H4 1_555 1_555
C8 C7 1_555 1_555
H5 C8 1_555 1_555
C9 C8 1_555 1_555
H6 C9 1_555 1_555
C10 C6 1_555 1_555
C11 C4 1_555 1_555
C12 C10 1_555 1_555
C13 H7 1_555 1_555
C14 C13 1_555 1_555
H8 C14 1_555 1_555
C15 C16 1_555 1_555
C16 C17 1_555 1_555
C17 H9 1_555 1_555
C18 C16 1_555 1_555
H10 C18 1_555 1_555
C19 C18 1_555 1_555
H11 C19 1_555 1_555
C20 C21 1_555 1_555
C21 C22 1_555 1_555
C22 H12 1_555 1_555
C23 C21 1_555 1_555
H13 C23 1_555 1_555
C24 C23 1_555 1_555
H14 C24 1_555 1_555
C25 H15 1_555 1_555
H16 C25 1_555 1_555
H17 C25 1_555 1_555
C26 H18 1_555 1_555
H19 C26 1_555 1_555
H20 C26 1_555 1_555
C27 C28 1_555 1_555
C28 H21 1_555 1_555
H22 C28 1_555 1_555
H23 C28 1_555 1_555
N1 C6 1_555 1_555
N2 C1 1_555 1_555
N3 C11 1_555 1_555
N4 C12 1_555 1_555
N5 C25 1_555 1_555
O1 C15 1_555 1_555
O2 C15 1_555 1_555
O3 H24 1_555 1_555
H25 O3 1_555 1_555
O4 C20 1_555 1_555
O5 H26 1_555 1_555
H27 O5 1_555 1_555
O6 C20 1_555 1_555
O7 C27 1_555 1_555
Cu1 N1 1_555 1_555
C1A H1A 1_555 1_555
C2A C1A 1_555 1_555
H2A C2A 1_555 1_555
C3A C2A 1_555 1_555
H3A C3A 1_555 1_555
C4A C3A 1_555 1_555
C5A C4A 1_555 1_555
C6A C5A 1_555 1_555
C7A H4A 1_555 1_555
C8A C7A 1_555 1_555
H5A C8A 1_555 1_555
C9A C8A 1_555 1_555
H6A C9A 1_555 1_555
C10A C6A 1_555 1_555
C11A C4A 1_555 1_555
C12A C10A 1_555 1_555
C13A H7A 1_555 1_555
C14A C13A 1_555 1_555
H8A C14A 1_555 1_555
C15A C16A 1_555 1_555
C16A C17 1_555 1_555
C18A C19 1_555 1_555
H10A C18A 1_555 1_555
C20A C21A 1_555 1_555
C21A C22 1_555 1_555
C23A C24 1_555 1_555
H13A C23A 1_555 1_555
N1A C6A 1_555 1_555
N2A C1A 1_555 1_555
N3A C11A 1_555 1_555
N4A C12A 1_555 1_555
O1A C15A 1_555 1_555
O2A C15A 1_555 1_555
O3A H24A 1_555 1_555
H25A O3A 1_555 1_555
O4A C20A 1_555 1_555
O4A_2 Cu1A 1_555 1_555
O6A C20A 1_555 1_555
Cu1A N1A 1_555 1_555
Cu1A_2 O4A 1_555 1_555
C5 N2 1_555 1_555
C7 N1 1_555 1_555
C9 C10 1_555 1_555
C11 C12 1_555 1_555
C13 N4 1_555 1_555
C14 N3 1_555 1_555
C26 N5 1_555 1_555
C27 N5 1_555 1_555
N2 Cu1 1_555 1_555
O2 Cu1 1_555 1_555
O3 Cu1 1_555 1_555
O4 Cu1 1_555 1_555
C5A N2A 1_555 1_555
C7A N1A 1_555 1_555
C9A C10A 1_555 1_555
C11A C12A 1_555 1_555
C13A N4A 1_555 1_555
C14A N3A 1_555 1_555
C16A C18A 1_555 1_555
C21A C23A 1_555 1_555
N2A Cu1A 1_555 1_555
O2A Cu1A 1_555 1_555
O3A Cu1A 1_555 1_555

#END
