
#######################################################################
#
#                 Cambridge Crystallographic Data Centre
#                                CCDC 
#
#######################################################################
#
# If this CIF has been generated from an entry in the Cambridge 
# Structural Database, then it will include bibliographic, chemical, 
# crystal, experimental, refinement or atomic coordinate data resulting 
# from the CCDC's data processing and validation procedures.
#
#######################################################################

data_YIFQUZ
_symmetry_cell_setting           triclinic
_symmetry_space_group_name_H-M   'P -1'
_symmetry_Int_Tables_number      2
_space_group_name_Hall           '-P 1'
loop_
_symmetry_equiv_pos_site_id
_symmetry_equiv_pos_as_xyz
1 x,y,z
2 -x,-y,-z
_cell_length_a                   7.947(1)
_cell_length_b                   12.327(4)
_cell_length_c                   13.150(3)
_cell_angle_alpha                113.91(2)
_cell_angle_beta                 99.85(2)
_cell_angle_gamma                90.02(2)
_cell_volume                     1156.82
loop_
_atom_site_label
_atom_site_type_symbol
_atom_site_fract_x
_atom_site_fract_y
_atom_site_fract_z
Cu1 Cu 0.00204(9) 0.39949(7) -0.28395(6)
O1 O -0.7560(5) 0.4720(4) -0.2604(3)
O2 O -0.6566(5) 0.3871(4) -0.1433(4)
O3 O -0.4039(6) 0.2506(5) -0.7648(4)
O4 O -0.5804(6) 0.1376(5) -0.7288(4)
H1 H -0.6310 0.1211 -0.7936
N1 N -0.1363(6) 0.6477(4) 0.0030(4)
H6 H -0.2019 0.6712 0.0523
N2 N -0.0349(5) 0.5382(4) -0.1465(4)
N3 N -0.1639(6) 0.2965(5) -0.2547(4)
N4 N -0.3731(6) 0.2420(5) -0.1942(4)
H7 H -0.4586 0.2462 -0.1609
N5 N 0.0912(6) 0.1473(5) -0.5884(4)
H8 H 0.0743 0.1134 -0.6611
N6 N 0.0575(6) 0.2632(4) -0.4166(4)
N7 N -0.1502(6) 0.4606(5) -0.3980(4)
N8 N -0.2556(6) 0.4756(5) -0.5557(4)
H9 H -0.2880 0.4577 -0.6268
C1 C -0.6365(7) 0.4480(6) -0.1956(5)
C2 C -0.4615(7) 0.5022(6) -0.1867(6)
H10 H -0.4609 0.5881 -0.1487
H11 H -0.4411 0.4831 -0.2626
C3 C -0.3138(7) 0.4605(5) -0.1229(5)
H12 H -0.3485 0.4642 -0.0536
C4 C -0.1590(7) 0.5449(5) -0.0880(5)
C5 C 0.0061(8) 0.7097(6) 0.0057(6)
H13 H 0.0518 0.7839 0.0606
C6 C 0.0688(7) 0.6415(5) -0.0877(5)
H14 H 0.1663 0.6615 -0.1086
C7 C -0.2799(7) 0.3353(6) -0.1889(5)
C8 C -0.1808(8) 0.1734(6) -0.2980(5)
H15 H -0.1138 0.1218 -0.3452
C9 C -0.3120(9) 0.1411(6) -0.2598(6)
H16 H -0.3519 0.0639 -0.2759
C10 C -0.4369(8) 0.1987(6) -0.7103(6)
C11 C -0.3111(8) 0.1946(6) -0.6119(6)
H17 H -0.2788 0.1137 -0.6316
H18 H -0.3668 0.2164 -0.5470
C12 C -0.1486(7) 0.2780(6) -0.5789(5)
H19 H -0.1214 0.2750 -0.6499
C13 C -0.0004(7) 0.2335(6) -0.5262(5)
C14 C 0.2155(8) 0.1232(6) -0.5160(5)
H20 H 0.2975 0.0684 -0.5359
C15 C 0.1957(8) 0.1937(6) -0.4110(5)
H21 H 0.2630 0.1963 -0.3447
C16 C -0.1795(7) 0.4042(6) -0.5114(5)
C17 C -0.2100(8) 0.5717(6) -0.3727(6)
H22 H -0.2068 0.6304 -0.3003
C18 C -0.2739(8) 0.5814(6) -0.4705(6)
H23 H -0.3211 0.6474 -0.4780
O1_2 O 0.2440(5) 0.4720(4) -0.2604(3)
Cu1_2 Cu -0.99796(9) 0.39949(7) -0.28395(6)
O5 O -0.9676(6) -0.0358(5) -1.1789(4)
O6 O -0.7317(6) 0.0890(6) -0.9299(4)
C19 C -0.9845(8) -0.0186(7) -1.0811(6)
C20 C -0.8789(8) 0.0405(7) -0.9694(6)
C19A C -1.0155(8) 0.0186(7) -0.9189(6)
O5A O -1.0324(6) 0.0358(5) -0.8211(4)
C20A C -1.1211(8) -0.0405(7) -1.0306(6)
O6A O -1.2683(6) -0.0890(6) -1.0701(4)
O7 O -0.7043(10) 0.1185(7) -1.1740(8)
H2 H -0.7858 0.0462 -1.1971
H3 H -0.6140 0.1227 -1.1083
O8 O -0.4325(12) 0.1549(9) -1.0104(7)
H4 H -0.5552 0.1864 -0.9996
H5 H -0.4295 0.1454 -0.9384
loop_
_geom_bond_atom_site_label_1
_geom_bond_atom_site_label_2
_geom_bond_site_symmetry_1
_geom_bond_site_symmetry_2
Cu1 N2 1_555 1_555
O1 C1 1_555 1_555
O2 C1 1_555 1_555
O3 C10 1_555 1_555
O4 H1 1_555 1_555
O5 C19 1_555 1_555
O6 C20 1_555 1_555
O7 H2 1_555 1_555
H3 O7 1_555 1_555
O8 H4 1_555 1_555
H5 O8 1_555 1_555
N1 H6 1_555 1_555
N2 C4 1_555 1_555
N3 Cu1 1_555 1_555
N4 H7 1_555 1_555
N5 H8 1_555 1_555
N6 Cu1 1_555 1_555
N7 Cu1 1_555 1_555
N8 H9 1_555 1_555
C1 C2 1_555 1_555
C2 H10 1_555 1_555
H11 C2 1_555 1_555
C3 C2 1_555 1_555
H12 C3 1_555 1_555
C4 N1 1_555 1_555
C5 N1 1_555 1_555
H13 C5 1_555 1_555
C6 N2 1_555 1_555
H14 C6 1_555 1_555
C7 N3 1_555 1_555
C8 N3 1_555 1_555
H15 C8 1_555 1_555
C9 N4 1_555 1_555
H16 C9 1_555 1_555
C10 O4 1_555 1_555
C11 C10 1_555 1_555
H17 C11 1_555 1_555
H18 C11 1_555 1_555
C12 C11 1_555 1_555
H19 C12 1_555 1_555
C13 N5 1_555 1_555
C14 N5 1_555 1_555
H20 C14 1_555 1_555
C15 N6 1_555 1_555
H21 C15 1_555 1_555
C16 N7 1_555 1_555
C17 N7 1_555 1_555
H22 C17 1_555 1_555
C18 N8 1_555 1_555
H23 C18 1_555 1_555
C19 C20 1_555 1_555
C20 C19A 1_555 1_555
C19A O5A 1_555 1_555
C20A C19 1_555 1_555
O6A C20A 1_555 1_555
O1_2 Cu1 1_555 1_555
Cu1_2 O1 1_555 1_555
N4 C7 1_555 1_555
N6 C13 1_555 1_555
N8 C16 1_555 1_555
C3 C4 1_555 1_555
C3 C7 1_555 1_555
C5 C6 1_555 1_555
C8 C9 1_555 1_555
C12 C13 1_555 1_555
C12 C16 1_555 1_555
C14 C15 1_555 1_555
C17 C18 1_555 1_555
C19A C20A 1_555 1_555

#END
