
#######################################################################
#
#                 Cambridge Crystallographic Data Centre
#                                CCDC 
#
#######################################################################
#
# If this CIF has been generated from an entry in the Cambridge 
# Structural Database, then it will include bibliographic, chemical, 
# crystal, experimental, refinement or atomic coordinate data resulting 
# from the CCDC's data processing and validation procedures.
#
#######################################################################

data_YIFSIP
_symmetry_cell_setting           triclinic
_symmetry_space_group_name_H-M   'P -1'
_symmetry_Int_Tables_number      2
_space_group_name_Hall           '-P 1'
loop_
_symmetry_equiv_pos_site_id
_symmetry_equiv_pos_as_xyz
1 x,y,z
2 -x,-y,-z
_cell_length_a                   8.010(1)
_cell_length_b                   13.073(1)
_cell_length_c                   14.561(1)
_cell_angle_alpha                72.13(1)
_cell_angle_beta                 80.14(1)
_cell_angle_gamma                84.02(1)
_cell_volume                     1427.59
loop_
_atom_site_label
_atom_site_type_symbol
_atom_site_fract_x
_atom_site_fract_y
_atom_site_fract_z
Cu1 Cu 0.04807(6) 0.05230(4) -0.29831(3)
Cu2 Cu -0.22242(6) -0.28989(4) 0.04298(3)
O5 O 0.2646(4) -0.0257(2) -0.2653(2)
O6 O 0.3590(4) 0.0741(3) -0.4142(2)
O7 O 0.1308(4) 0.1805(2) -0.2723(2)
H1 H 0.2169 0.2200 -0.3110
H2 H 0.1461 0.1631 -0.2046
O8 O -0.4595(3) -0.2747(2) 0.1009(2)
O9 O -0.4930(4) -0.4147(3) 0.0520(3)
O10 O -0.2836(4) -0.1892(2) -0.0829(2)
H3 H -0.3989 -0.1691 -0.0782
H4 H -0.2199 -0.1374 -0.1031
O11 O -0.0820(4) -0.0143(2) -0.1385(2)
O12 O -0.1432(4) -0.1491(2) 0.0897(2)
N1 N 0.6296(5) 0.2054(3) -0.4215(3)
H9 H 0.5409 0.2065 -0.4478
N2 N 0.8558(4) 0.1460(3) -0.3526(2)
N3 N 0.9920(4) -0.0617(3) -0.3495(2)
N4 N 0.8770(5) -0.1452(3) -0.4293(3)
H10 H 0.8068 -0.1604 -0.4611
N5 N -0.7614(4) -0.4132(3) -0.0585(3)
H11 H -0.6665 -0.4495 -0.0499
N6 N -1.0076(4) -0.3325(3) -0.0271(2)
N7 N -1.1613(4) -0.3847(3) 0.1682(2)
N8 N -1.0117(5) -0.4800(3) 0.2800(3)
H12 H -0.9262 -0.5126 0.3075
C1 C 0.3830(5) 0.0070(4) -0.3364(3)
C2 C 0.5587(5) -0.0451(4) -0.3199(3)
H13 H 0.5610 -0.1196 -0.3194
H14 H 0.5792 -0.0447 -0.2563
C3 C 0.7028(5) 0.0109(3) -0.3973(3)
H15 H 0.6682 0.0225 -0.4613
C4 C 0.7316(5) 0.1192(3) -0.3894(3)
C5 C 0.6887(6) 0.2916(4) -0.4057(4)
H16 H 0.6417 0.3618 -0.4209
C6 C 0.8276(6) 0.2551(4) -0.3640(3)
H17 H 0.8952 0.2967 -0.3453
C7 C 0.8589(5) -0.0622(3) -0.3927(3)
C8 C 1.0968(5) -0.1502(3) -0.3600(3)
H18 H 1.2006 -0.1703 -0.3373
C9 C 1.0245(6) -0.2017(3) -0.4079(3)
H19 H 1.0671 -0.2642 -0.4235
C10 C -0.5491(5) -0.3437(3) 0.0901(3)
C11 C -0.7377(5) -0.3324(4) 0.1291(3)
H20 H -0.7819 -0.2610 0.0962
H21 H -0.7499 -0.3390 0.1981
C12 C -0.8453(5) -0.4164(3) 0.1154(3)
H22 H -0.7812 -0.4861 0.1309
C13 C -0.8755(5) -0.3885(3) 0.0116(3)
C14 C -0.8207(6) -0.3713(4) -0.1454(3)
H23 H -0.7668 -0.3759 -0.2060
C15 C -0.9730(6) -0.3218(4) -0.1262(3)
H24 H -1.0437 -0.2863 -0.1720
C16 C -1.0076(5) -0.4269(3) 0.1851(3)
C17 C -1.2661(6) -0.4140(4) 0.2566(3)
H25 H -1.3816 -0.3954 0.2666
C18 C -1.1756(6) -0.4735(4) 0.3262(3)
H26 H -1.2156 -0.5039 0.3919
C19 C -0.0360(5) -0.0065(3) -0.0628(3)
C20 C -0.0652(5) -0.0671(3) 0.0404(3)
C19A C 0.0360(5) 0.0065(3) 0.0628(3)
O11A O 0.0820(4) 0.0143(2) 0.1385(2)
C20A C 0.0652(5) 0.0671(3) -0.0404(3)
O12A O 0.1432(4) 0.1491(2) -0.0897(2)
O5_2 O -0.7354(4) -0.0257(2) -0.2653(2)
O6_2 O -0.6410(4) 0.0741(3) -0.4142(2)
N1_2 N -0.3704(5) 0.2054(3) -0.4215(3)
H9_2 H -0.4591 0.2065 -0.4478
N2_2 N -0.1442(4) 0.1460(3) -0.3526(2)
N3_2 N -0.0080(4) -0.0617(3) -0.3495(2)
N4_2 N -0.1230(5) -0.1452(3) -0.4293(3)
H10_2 H -0.1932 -0.1604 -0.4611
C1_2 C -0.6170(5) 0.0070(4) -0.3364(3)
C2_2 C -0.4413(5) -0.0451(4) -0.3199(3)
H13_2 H -0.4390 -0.1196 -0.3194
H14_2 H -0.4208 -0.0447 -0.2563
C3_2 C -0.2972(5) 0.0109(3) -0.3973(3)
H15_2 H -0.3318 0.0225 -0.4613
C4_2 C -0.2684(5) 0.1192(3) -0.3894(3)
C5_2 C -0.3113(6) 0.2916(4) -0.4057(4)
H16_2 H -0.3583 0.3618 -0.4209
C6_2 C -0.1724(6) 0.2551(4) -0.3640(3)
H17_2 H -0.1048 0.2967 -0.3453
C7_2 C -0.1411(5) -0.0622(3) -0.3927(3)
C8_2 C 0.0968(5) -0.1502(3) -0.3600(3)
H18_2 H 0.2006 -0.1703 -0.3373
C9_2 C 0.0245(6) -0.2017(3) -0.4079(3)
H19_2 H 0.0671 -0.2642 -0.4235
Cu1_2 Cu -0.95193(6) 0.05230(4) -0.29831(3)
Cu2A Cu 0.22242(6) 0.28989(4) -0.04298(3)
O8_2 O 0.5405(3) -0.2747(2) 0.1009(2)
O9_2 O 0.5070(4) -0.4147(3) 0.0520(3)
N5_2 N 0.2386(4) -0.4132(3) -0.0585(3)
H11_2 H 0.3335 -0.4495 -0.0499
N6_2 N -0.0076(4) -0.3325(3) -0.0271(2)
N7_2 N -0.1613(4) -0.3847(3) 0.1682(2)
N8_2 N -0.0117(5) -0.4800(3) 0.2800(3)
H12_2 H 0.0738 -0.5126 0.3075
C10_2 C 0.4509(5) -0.3437(3) 0.0901(3)
C11_2 C 0.2623(5) -0.3324(4) 0.1291(3)
H20_2 H 0.2181 -0.2610 0.0962
H21_2 H 0.2501 -0.3390 0.1981
C12_2 C 0.1547(5) -0.4164(3) 0.1154(3)
H22_2 H 0.2188 -0.4861 0.1309
C13_2 C 0.1245(5) -0.3885(3) 0.0116(3)
C14_2 C 0.1793(6) -0.3713(4) -0.1454(3)
H23_2 H 0.2332 -0.3759 -0.2060
C15_2 C 0.0270(6) -0.3218(4) -0.1262(3)
H24_2 H -0.0437 -0.2863 -0.1720
C16_2 C -0.0076(5) -0.4269(3) 0.1851(3)
C17_2 C -0.2661(6) -0.4140(4) 0.2566(3)
H25_2 H -0.3816 -0.3954 0.2666
C18_2 C -0.1756(6) -0.4735(4) 0.3262(3)
H26_2 H -0.2156 -0.5039 0.3919
O10A O 0.2836(4) 0.1892(2) 0.0829(2)
H3A H 0.3989 0.1691 0.0782
H4A H 0.2199 0.1374 0.1031
Cu1_3 Cu 1.04807(6) 0.05230(4) -0.29831(3)
Cu2_2 Cu -1.22242(6) -0.28989(4) 0.04298(3)
Cu1A Cu -0.04807(6) -0.05230(4) 0.29831(3)
O7_2 O -0.8692(4) 0.1805(2) -0.2723(2)
O11_2 O -1.0820(4) -0.0143(2) -0.1385(2)
N2_3 N -1.1442(4) 0.1460(3) -0.3526(2)
N3_3 N -1.0080(4) -0.0617(3) -0.3495(2)
O8A O 0.4595(3) 0.2747(2) -0.1009(2)
N6A N 0.0076(4) 0.3325(3) 0.0271(2)
N7A N 0.1613(4) 0.3847(3) -0.1682(2)
Cu2_3 Cu 0.77758(6) -0.28989(4) 0.04298(3)
H1_2 H -0.7831 0.2200 -0.3110
H2_2 H -0.8539 0.1631 -0.2046
Cl1 Cl -0.6378(2) 0.38042(12) -0.59938(14)
O1 O -0.5558(8) 0.4441(5) -0.5609(6)
O2 O -0.5240(14) 0.2960(7) -0.6068(7)
O3 O -0.6714(13) 0.4274(10) -0.6860(6)
O4 O -0.7643(15) 0.3426(11) -0.5337(7)
O13 O -0.6190(5) -0.1121(4) -0.0779(3)
H5 H -0.6705 -0.0990 -0.1319
H6 H -0.5415 -0.0619 -0.0856
O14 O -0.4484(7) 0.0831(4) -0.1465(5)
H7 H -0.4746 0.1561 -0.1389
H8 H -0.3044 0.0931 -0.1603
loop_
_geom_bond_atom_site_label_1
_geom_bond_atom_site_label_2
_geom_bond_site_symmetry_1
_geom_bond_site_symmetry_2
Cu1 O5 1_555 1_555
Cu2 O8 1_555 1_555
Cl1 O1 1_555 1_555
O2 Cl1 1_555 1_555
O3 Cl1 1_555 1_555
O4 Cl1 1_555 1_555
O5 C1 1_555 1_555
O6 C1 1_555 1_555
O7 Cu1 1_555 1_555
H1 O7 1_555 1_555
H2 O7 1_555 1_555
O8 C10 1_555 1_555
O9 C10 1_555 1_555
O10 Cu2 1_555 1_555
H3 O10 1_555 1_555
H4 O10 1_555 1_555
O11 Cu1 1_555 1_555
O12 Cu2 1_555 1_555
O13 H5 1_555 1_555
H6 O13 1_555 1_555
O14 H7 1_555 1_555
H8 O14 1_555 1_555
N1 H9 1_555 1_555
N2 C4 1_555 1_555
N3 C7 1_555 1_555
N4 H10 1_555 1_555
N5 H11 1_555 1_555
N6 C13 1_555 1_555
N7 C16 1_555 1_555
N8 H12 1_555 1_555
C1 C2 1_555 1_555
C2 H13 1_555 1_555
H14 C2 1_555 1_555
C3 C2 1_555 1_555
H15 C3 1_555 1_555
C4 N1 1_555 1_555
C5 N1 1_555 1_555
H16 C5 1_555 1_555
C6 N2 1_555 1_555
H17 C6 1_555 1_555
C7 N4 1_555 1_555
C8 N3 1_555 1_555
H18 C8 1_555 1_555
C9 N4 1_555 1_555
H19 C9 1_555 1_555
C10 C11 1_555 1_555
C11 H20 1_555 1_555
H21 C11 1_555 1_555
C12 C11 1_555 1_555
H22 C12 1_555 1_555
C13 N5 1_555 1_555
C14 N5 1_555 1_555
H23 C14 1_555 1_555
C15 N6 1_555 1_555
H24 C15 1_555 1_555
C16 N8 1_555 1_555
C17 N7 1_555 1_555
H25 C17 1_555 1_555
C18 N8 1_555 1_555
H26 C18 1_555 1_555
C19 O11 1_555 1_555
C20 O12 1_555 1_555
C19A C20 1_555 1_555
O11A C19A 1_555 1_555
C20A C19 1_555 1_555
O12A C20A 1_555 1_555
O5_2 C1_2 1_555 1_555
O6_2 C1_2 1_555 1_555
N1_2 H9_2 1_555 1_555
N2_2 Cu1 1_555 1_555
N3_2 Cu1 1_555 1_555
N4_2 H10_2 1_555 1_555
C1_2 C2_2 1_555 1_555
C2_2 H13_2 1_555 1_555
H14_2 C2_2 1_555 1_555
C3_2 C2_2 1_555 1_555
H15_2 C3_2 1_555 1_555
C4_2 N1_2 1_555 1_555
C5_2 N1_2 1_555 1_555
H16_2 C5_2 1_555 1_555
C6_2 N2_2 1_555 1_555
H17_2 C6_2 1_555 1_555
C7_2 N3_2 1_555 1_555
C8_2 N3_2 1_555 1_555
H18_2 C8_2 1_555 1_555
C9_2 N4_2 1_555 1_555
H19_2 C9_2 1_555 1_555
Cu1_2 O5_2 1_555 1_555
Cu2A O12A 1_555 1_555
O8_2 C10_2 1_555 1_555
O9_2 C10_2 1_555 1_555
N5_2 H11_2 1_555 1_555
N6_2 Cu2 1_555 1_555
N7_2 Cu2 1_555 1_555
N8_2 H12_2 1_555 1_555
C10_2 C11_2 1_555 1_555
C11_2 H20_2 1_555 1_555
H21_2 C11_2 1_555 1_555
C12_2 C11_2 1_555 1_555
H22_2 C12_2 1_555 1_555
C13_2 N5_2 1_555 1_555
C14_2 N5_2 1_555 1_555
H23_2 C14_2 1_555 1_555
C15_2 N6_2 1_555 1_555
H24_2 C15_2 1_555 1_555
C16_2 N7_2 1_555 1_555
C17_2 N7_2 1_555 1_555
H25_2 C17_2 1_555 1_555
C18_2 N8_2 1_555 1_555
H26_2 C18_2 1_555 1_555
O10A Cu2A 1_555 1_555
H3A O10A 1_555 1_555
H4A O10A 1_555 1_555
Cu1_3 N2 1_555 1_555
Cu2_2 N6 1_555 1_555
Cu1A O11A 1_555 1_555
O7_2 Cu1_2 1_555 1_555
O11_2 Cu1_2 1_555 1_555
N2_3 Cu1_2 1_555 1_555
N3_3 Cu1_2 1_555 1_555
O8A Cu2A 1_555 1_555
N6A Cu2A 1_555 1_555
N7A Cu2A 1_555 1_555
Cu2_3 O8_2 1_555 1_555
H1_2 O7_2 1_555 1_555
H2_2 O7_2 1_555 1_555
N3 Cu1_3 1_555 1_555
N7 Cu2_2 1_555 1_555
C3 C4 1_555 1_555
C3 C7 1_555 1_555
C5 C6 1_555 1_555
C8 C9 1_555 1_555
C12 C13 1_555 1_555
C12 C16 1_555 1_555
C14 C15 1_555 1_555
C17 C18 1_555 1_555
C19 C20 1_555 1_555
C19A C20A 1_555 1_555
N2_2 C4_2 1_555 1_555
N4_2 C7_2 1_555 1_555
C3_2 C4_2 1_555 1_555
C3_2 C7_2 1_555 1_555
C5_2 C6_2 1_555 1_555
C8_2 C9_2 1_555 1_555
N6_2 C13_2 1_555 1_555
N8_2 C16_2 1_555 1_555
C12_2 C13_2 1_555 1_555
C12_2 C16_2 1_555 1_555
C14_2 C15_2 1_555 1_555
C17_2 C18_2 1_555 1_555

#END
