
#######################################################################
#
#                 Cambridge Crystallographic Data Centre
#                                CCDC 
#
#######################################################################
#
# If this CIF has been generated from an entry in the Cambridge 
# Structural Database, then it will include bibliographic, chemical, 
# crystal, experimental, refinement or atomic coordinate data resulting 
# from the CCDC's data processing and validation procedures.
#
#######################################################################

data_YIGGEB
_symmetry_cell_setting           tetragonal
_symmetry_space_group_name_H-M   'P 43 21 2'
_symmetry_Int_Tables_number      96
_space_group_name_Hall           'P 4nw 2abw'
loop_
_symmetry_equiv_pos_site_id
_symmetry_equiv_pos_as_xyz
1 x,y,z
2 -x,-y,1/2+z
3 1/2-y,1/2+x,3/4+z
4 1/2+y,1/2-x,1/4+z
5 1/2-x,1/2+y,3/4-z
6 1/2+x,1/2-y,1/4-z
7 y,x,-z
8 -y,-x,1/2-z
_cell_length_a                   11.6304(7)
_cell_length_b                   11.6304(7)
_cell_length_c                   8.7665(10)
_cell_angle_alpha                90
_cell_angle_beta                 90
_cell_angle_gamma                90
_cell_volume                     1185.81
loop_
_atom_site_label
_atom_site_type_symbol
_atom_site_fract_x
_atom_site_fract_y
_atom_site_fract_z
Co1 Co 0.27729(2) 0.27729(2) 0.0000
O1 O 0.39522(15) 0.18731(17) -0.13866(18)
O2 O 0.37226(15) 0.37088(16) -0.18249(19)
N1 N 0.64350(14) 0.24467(16) -0.59662(19)
C1 C 0.5913(2) 0.15229(19) -0.5376(2)
H1 H 0.6066 0.0806 -0.5799
C2 C 0.5157(2) 0.1592(2) -0.4165(3)
H2 H 0.4812 0.0932 -0.3779
C3 C 0.49211(18) 0.2652(2) -0.3537(2)
C4 C 0.5420(2) 0.36043(19) -0.4179(3)
H3 H 0.5257 0.4334 -0.3802
C5 C 0.61669(19) 0.34707(18) -0.5389(2)
H4 H 0.6497 0.4123 -0.5819
C6 C 0.41504(18) 0.2756(2) -0.2161(2)
Co1C Co 0.77729(2) 0.22271(2) -0.7500
Co1B Co 0.22271(2) 0.77729(2) 0.7500
O1F O 0.18731(17) 0.39522(15) 0.13866(18)
O2F O 0.37088(16) 0.37226(15) 0.18249(19)
N1F N 0.24467(16) 0.64350(14) 0.59662(19)
N1B N 0.25533(16) 0.14350(14) 0.15338(19)
N1E N 0.14350(14) 0.25533(16) -0.15338(19)
C1F C 0.15229(19) 0.5913(2) 0.5376(2)
H1F H 0.0806 0.6066 0.5799
C2F C 0.1592(2) 0.5157(2) 0.4165(3)
H2F H 0.0932 0.4812 0.3779
C3F C 0.2652(2) 0.49211(18) 0.3537(2)
C4F C 0.36043(19) 0.5420(2) 0.4179(3)
H3F H 0.4334 0.5257 0.3802
C5F C 0.34707(18) 0.61669(19) 0.5389(2)
H4F H 0.4123 0.6497 0.5819
C6F C 0.2756(2) 0.41504(18) 0.2161(2)
loop_
_geom_bond_atom_site_label_1
_geom_bond_atom_site_label_2
_geom_bond_site_symmetry_1
_geom_bond_site_symmetry_2
Co1 O1 1_555 1_555
O1 C6 1_555 1_555
O2 Co1 1_555 1_555
N1 C1 1_555 1_555
C1 H1 1_555 1_555
C2 C1 1_555 1_555
H2 C2 1_555 1_555
C3 C2 1_555 1_555
C4 C3 1_555 1_555
H3 C4 1_555 1_555
C5 N1 1_555 1_555
H4 C5 1_555 1_555
C6 O2 1_555 1_555
Co1C N1 1_555 1_555
Co1B N1F 1_555 1_555
O1F Co1 1_555 1_555
O2F Co1 1_555 1_555
N1F C1F 1_555 1_555
N1B Co1 1_555 1_555
N1E Co1 1_555 1_555
C1F H1F 1_555 1_555
C2F C1F 1_555 1_555
H2F C2F 1_555 1_555
C3F C2F 1_555 1_555
C4F C3F 1_555 1_555
H3F C4F 1_555 1_555
C5F N1F 1_555 1_555
H4F C5F 1_555 1_555
C6F O1F 1_555 1_555
C3 C6 1_555 1_555
C4 C5 1_555 1_555
O2F C6F 1_555 1_555
C3F C6F 1_555 1_555
C4F C5F 1_555 1_555

#END
