
#######################################################################
#
#                 Cambridge Crystallographic Data Centre
#                                CCDC 
#
#######################################################################
#
# If this CIF has been generated from an entry in the Cambridge 
# Structural Database, then it will include bibliographic, chemical, 
# crystal, experimental, refinement or atomic coordinate data resulting 
# from the CCDC's data processing and validation procedures.
#
#######################################################################

data_YIGQUA
_symmetry_cell_setting           monoclinic
_symmetry_space_group_name_H-M   'C 2/c'
_symmetry_Int_Tables_number      15
_space_group_name_Hall           '-C 2yn'
loop_
_symmetry_equiv_pos_site_id
_symmetry_equiv_pos_as_xyz
1 x,y,z
2 1/2+x,1/2+y,z
3 x,-y,1/2+z
4 1/2+x,1/2-y,1/2+z
5 -x,-y,-z
6 1/2-x,1/2-y,-z
7 -x,y,1/2-z
8 1/2-x,1/2+y,1/2-z
_cell_length_a                   31.476(8)
_cell_length_b                   10.0561(19)
_cell_length_c                   19.549(3)
_cell_angle_alpha                90
_cell_angle_beta                 90.210(17)
_cell_angle_gamma                90
_cell_volume                     6187.72
loop_
_atom_site_label
_atom_site_type_symbol
_atom_site_fract_x
_atom_site_fract_y
_atom_site_fract_z
Cu1 Cu 0.289715(18) -0.61559(5) 0.97515(3)
Cu2 Cu 0.5000 -0.16933(8) 0.7500
O1 O 0.29178(10) -0.3979(3) 0.96366(17)
O2 O 0.35324(11) -0.4752(3) 0.92833(19)
O3 O 0.44679(10) -0.1776(3) 0.80122(17)
O4 O 0.44498(11) 0.0418(3) 0.81721(18)
O5 O 0.32544(10) 0.2253(3) 0.95672(18)
O6 O 0.27228(11) 0.0869(3) 0.98320(19)
O7 O 0.5000 -0.3901(5) 0.7500
N1 N 0.31534(13) -0.5988(4) 1.0646(2)
N2 N 0.36836(15) -0.5715(5) 1.1390(2)
N3 N 0.26683(13) -0.6305(4) 0.8829(2)
N4 N 0.22420(15) -0.6107(5) 0.7938(2)
N5 N 0.46940(13) -0.1456(4) 0.6625(2)
N6 N 0.45231(15) -0.1582(5) 0.5537(2)
C1 C 0.29913(19) -0.5731(6) 1.1290(3)
H1 H 0.2698 -0.5681 1.1402
C2 C 0.3319(2) -0.5562(7) 1.1737(3)
H2 H 0.3294 -0.5369 1.2211
C3 C 0.41197(19) -0.5577(8) 1.1624(4)
H3 H 0.4171 -0.6188 1.2006
H4 H 0.4169 -0.4661 1.1776
H5 H 0.4314 -0.5790 1.1248
C4 C 0.35711(17) -0.5969(5) 1.0738(3)
H6 H 0.3770 -0.6118 1.0382
C5 C 0.28598(16) -0.6785(5) 0.8256(3)
H7 H 0.3137 -0.7159 0.8250
C6 C 0.26126(18) -0.6669(6) 0.7704(3)
H8 H 0.2678 -0.6920 0.7248
C7 C 0.1862(2) -0.5831(9) 0.7531(4)
H9 H 0.1694 -0.5139 0.7756
H10 H 0.1692 -0.6644 0.7490
H11 H 0.1945 -0.5527 0.7075
C8 C 0.22858(17) -0.5908(5) 0.8605(3)
H12 H 0.2073 -0.5531 0.8888
C9 C 0.32820(14) -0.3815(4) 0.9398(2)
C10 C 0.34284(14) -0.2417(4) 0.9236(2)
C11 C 0.37853(14) -0.2207(4) 0.8844(2)
H13 H 0.3939 -0.2948 0.8672
C12 C 0.39246(14) -0.0924(4) 0.8695(2)
C13 C 0.43077(14) -0.0735(5) 0.8262(2)
C14 C 0.36970(14) 0.0156(5) 0.8954(2)
H14 H 0.3791 0.1036 0.8861
C15 C 0.33406(14) -0.0039(4) 0.9340(2)
C16 C 0.30804(14) 0.1118(4) 0.9610(2)
C17 C 0.32028(14) -0.1326(4) 0.9486(2)
H15 H 0.2956 -0.1461 0.9756
C18 C 0.42863(17) -0.0955(5) 0.6519(3)
H16 H 0.4108 -0.0615 0.6869
C19 C 0.41816(19) -0.1018(6) 0.5861(3)
H17 H 0.3923 -0.0732 0.5656
C20 C 0.4567(2) -0.1851(8) 0.4806(3)
H18 H 0.4753 -0.2620 0.4740
H19 H 0.4689 -0.1072 0.4579
H20 H 0.4287 -0.2042 0.4609
C21 C 0.48101(16) -0.1819(6) 0.6021(3)
H21 H 0.5077 -0.2220 0.5930
H22 H 0.5069(16) -0.434(3) 0.7067(11)
H22F H 0.4931(16) -0.434(3) 0.7933(11)
O1F O 0.70822(10) -0.3979(3) 0.53634(17)
O2F O 0.64676(11) -0.4752(3) 0.57167(19)
O3F O 0.55321(10) -0.1776(3) 0.69878(17)
O4F O 0.55502(11) 0.0418(3) 0.68279(18)
O5F O 0.67456(10) 0.2253(3) 0.54328(18)
O6F O 0.72772(11) 0.0869(3) 0.51680(19)
C9F C 0.67180(14) -0.3815(4) 0.5602(2)
C10F C 0.65716(14) -0.2417(4) 0.5764(2)
C11F C 0.62147(14) -0.2207(4) 0.6156(2)
H13F H 0.6061 -0.2948 0.6328
C12F C 0.60754(14) -0.0924(4) 0.6305(2)
C13F C 0.56923(14) -0.0735(5) 0.6738(2)
C14F C 0.63030(14) 0.0156(5) 0.6046(2)
H14F H 0.6209 0.1036 0.6139
C15F C 0.66594(14) -0.0039(4) 0.5660(2)
C16F C 0.69196(14) 0.1118(4) 0.5390(2)
C17F C 0.67972(14) -0.1326(4) 0.5514(2)
H15F H 0.7044 -0.1461 0.5244
N5F N 0.53060(13) -0.1456(4) 0.8375(2)
N6F N 0.54769(15) -0.1582(5) 0.9463(2)
C18F C 0.57137(17) -0.0955(5) 0.8481(3)
H16F H 0.5892 -0.0615 0.8131
C19F C 0.58184(19) -0.1018(6) 0.9139(3)
H17F H 0.6077 -0.0732 0.9344
C20F C 0.5433(2) -0.1851(8) 1.0194(3)
H18F H 0.5247 -0.2620 1.0260
H19F H 0.5311 -0.1072 1.0421
H20F H 0.5713 -0.2042 1.0391
C21F C 0.51899(16) -0.1819(6) 0.8979(3)
H21F H 0.4923 -0.2220 0.9070
Cu1F Cu 0.710285(18) -0.61559(5) 0.52485(3)
N1F N 0.68466(13) -0.5988(4) 0.4354(2)
N2F N 0.63164(15) -0.5715(5) 0.3610(2)
C1F C 0.70087(19) -0.5731(6) 0.3710(3)
H1F H 0.7302 -0.5681 0.3598
C2F C 0.6681(2) -0.5562(7) 0.3263(3)
H2F H 0.6706 -0.5369 0.2789
C3F C 0.58803(19) -0.5577(8) 0.3376(4)
H3F H 0.5829 -0.6188 0.2994
H4F H 0.5831 -0.4661 0.3224
H5F H 0.5686 -0.5790 0.3752
C4F C 0.64289(17) -0.5969(5) 0.4262(3)
H6F H 0.6230 -0.6118 0.4618
N3F N 0.73317(13) -0.6305(4) 0.6171(2)
N4F N 0.77580(15) -0.6107(5) 0.7062(2)
C5F C 0.71402(16) -0.6785(5) 0.6744(3)
H7F H 0.6863 -0.7159 0.6750
C6F C 0.73874(18) -0.6669(6) 0.7296(3)
H8F H 0.7322 -0.6920 0.7752
C7F C 0.8138(2) -0.5831(9) 0.7469(4)
H9F H 0.8306 -0.5139 0.7244
H10F H 0.8308 -0.6644 0.7510
H11F H 0.8055 -0.5527 0.7925
C8F C 0.77142(17) -0.5908(5) 0.6395(3)
H12F H 0.7927 -0.5531 0.6112
O5_2 O 0.32544(10) -0.7747(3) 0.95672(18)
O6E O 0.22772(11) -0.5869(3) 1.01680(19)
Cu1_2 Cu 0.289715(18) 0.38441(5) 0.97515(3)
Cu1E Cu 0.210285(18) 0.11559(5) 1.02485(3)
Cu1F_2 Cu 0.710285(18) 0.38441(5) 0.52485(3)
Cu1C Cu 0.789715(18) 0.11559(5) 0.47515(3)
O5F_2 O 0.67456(10) -0.7747(3) 0.54328(18)
O6C O 0.77228(11) -0.5869(3) 0.48320(19)
O8 O 0.56203(15) -0.4619(5) 0.5241(2)
H25 H 0.5781(6) -0.439(3) 0.5657(8)
H26 H 0.5551(12) -0.3739(15) 0.5057(14)
O9 O 0.43435(16) -0.7834(6) 0.5386(3)
H27 H 0.4570(4) -0.782(7) 0.5737(10)
H28 H 0.4095(4) -0.804(6) 0.5674(13)
O10 O 0.35729(14) -0.8534(5) 0.6117(2)
H29 H 0.3667(6) -0.844(5) 0.6594(6)
H30 H 0.3310(5) -0.801(3) 0.6118(17)
O11 O 0.27512(12) -0.7450(4) 0.59882(19)
H31 H 0.2796(9) -0.699(2) 0.5553(8)
H32 H 0.2548(6) -0.8144(18) 0.5861(16)
O12 O 0.52499(15) -0.5471(4) 0.6438(2)
H33 H 0.5054(5) -0.6232(18) 0.6468(13)
H34 H 0.5329(10) -0.550(4) 0.5952(7)
O13 O 0.48402(12) -0.7906(4) 0.6591(2)
H35 H 0.4623(4) -0.786(4) 0.6948(10)
H36 H 0.5034(5) -0.858(2) 0.6780(17)
O14 O 0.40344(15) -0.7890(4) 0.7321(2)
H37 H 0.3820(5) -0.740(2) 0.7586(13)
H38 H 0.4172(7) -0.840(3) 0.7690(11)
O15 O 0.39112(15) -0.5724(5) 0.8118(2)
H23 H 0.3730(4) -0.559(7) 0.8519(9)
H24 H 0.4195(3) -0.559(7) 0.8313(15)
loop_
_geom_bond_atom_site_label_1
_geom_bond_atom_site_label_2
_geom_bond_site_symmetry_1
_geom_bond_site_symmetry_2
Cu1 O1 1_555 1_555
Cu2 O3 1_555 1_555
O1 C9 1_555 1_555
O2 C9 1_555 1_555
O3 C13 1_555 1_555
O4 C13 1_555 1_555
O5 C16 1_555 1_555
O6 C16 1_555 1_555
O7 Cu2 1_555 1_555
O8 H25 1_555 1_555
O9 H27 1_555 1_555
O10 H29 1_555 1_555
O11 H31 1_555 1_555
O12 H33 1_555 1_555
O13 H35 1_555 1_555
O14 H37 1_555 1_555
O15 H23 1_555 1_555
N1 Cu1 1_555 1_555
N2 C2 1_555 1_555
N3 Cu1 1_555 1_555
N4 C6 1_555 1_555
N5 Cu2 1_555 1_555
N6 C19 1_555 1_555
C1 N1 1_555 1_555
H1 C1 1_555 1_555
C2 C1 1_555 1_555
H2 C2 1_555 1_555
C3 N2 1_555 1_555
H3 C3 1_555 1_555
H4 C3 1_555 1_555
H5 C3 1_555 1_555
C4 N1 1_555 1_555
H6 C4 1_555 1_555
C5 N3 1_555 1_555
H7 C5 1_555 1_555
C6 C5 1_555 1_555
H8 C6 1_555 1_555
C7 N4 1_555 1_555
H9 C7 1_555 1_555
H10 C7 1_555 1_555
H11 C7 1_555 1_555
C8 N3 1_555 1_555
H12 C8 1_555 1_555
C9 C10 1_555 1_555
C10 C11 1_555 1_555
C11 H13 1_555 1_555
C12 C11 1_555 1_555
C13 C12 1_555 1_555
C14 C12 1_555 1_555
H14 C14 1_555 1_555
C15 C14 1_555 1_555
C16 C15 1_555 1_555
C17 C10 1_555 1_555
H15 C17 1_555 1_555
C18 N5 1_555 1_555
H16 C18 1_555 1_555
C19 C18 1_555 1_555
H17 C19 1_555 1_555
C20 N6 1_555 1_555
H18 C20 1_555 1_555
H19 C20 1_555 1_555
H20 C20 1_555 1_555
C21 N5 1_555 1_555
H21 C21 1_555 1_555
H22 O7 1_555 1_555
H24 O15 1_555 1_555
H26 O8 1_555 1_555
H28 O9 1_555 1_555
H30 O10 1_555 1_555
H32 O11 1_555 1_555
H34 O12 1_555 1_555
H36 O13 1_555 1_555
H38 O14 1_555 1_555
H22F O7 1_555 1_555
O1F C9F 1_555 1_555
O2F C9F 1_555 1_555
O3F Cu2 1_555 1_555
O4F C13F 1_555 1_555
O5F C16F 1_555 1_555
O6F C16F 1_555 1_555
C9F C10F 1_555 1_555
C10F C11F 1_555 1_555
C11F H13F 1_555 1_555
C12F C11F 1_555 1_555
C13F O3F 1_555 1_555
C14F C12F 1_555 1_555
H14F C14F 1_555 1_555
C15F C14F 1_555 1_555
C16F C15F 1_555 1_555
C17F C10F 1_555 1_555
H15F C17F 1_555 1_555
N5F Cu2 1_555 1_555
N6F C19F 1_555 1_555
C18F N5F 1_555 1_555
H16F C18F 1_555 1_555
C19F C18F 1_555 1_555
H17F C19F 1_555 1_555
C20F N6F 1_555 1_555
H18F C20F 1_555 1_555
H19F C20F 1_555 1_555
H20F C20F 1_555 1_555
C21F N5F 1_555 1_555
H21F C21F 1_555 1_555
Cu1F O1F 1_555 1_555
N1F Cu1F 1_555 1_555
N2F C2F 1_555 1_555
C1F N1F 1_555 1_555
H1F C1F 1_555 1_555
C2F C1F 1_555 1_555
H2F C2F 1_555 1_555
C3F N2F 1_555 1_555
H3F C3F 1_555 1_555
H4F C3F 1_555 1_555
H5F C3F 1_555 1_555
C4F N1F 1_555 1_555
H6F C4F 1_555 1_555
N3F Cu1F 1_555 1_555
N4F C6F 1_555 1_555
C5F N3F 1_555 1_555
H7F C5F 1_555 1_555
C6F C5F 1_555 1_555
H8F C6F 1_555 1_555
C7F N4F 1_555 1_555
H9F C7F 1_555 1_555
H10F C7F 1_555 1_555
H11F C7F 1_555 1_555
C8F N3F 1_555 1_555
H12F C8F 1_555 1_555
O5_2 Cu1 1_555 1_555
O6E Cu1 1_555 1_555
Cu1_2 O5 1_555 1_555
Cu1E O6 1_555 1_555
Cu1F_2 O5F 1_555 1_555
Cu1C O6F 1_555 1_555
O5F_2 Cu1F 1_555 1_555
O6C Cu1F 1_555 1_555
N2 C4 1_555 1_555
N4 C8 1_555 1_555
N6 C21 1_555 1_555
C15 C17 1_555 1_555
C12F C13F 1_555 1_555
C15F C17F 1_555 1_555
N6F C21F 1_555 1_555
N2F C4F 1_555 1_555
N4F C8F 1_555 1_555

#END
