
#######################################################################
#
#                 Cambridge Crystallographic Data Centre
#                                CCDC 
#
#######################################################################
#
# If this CIF has been generated from an entry in the Cambridge 
# Structural Database, then it will include bibliographic, chemical, 
# crystal, experimental, refinement or atomic coordinate data resulting 
# from the CCDC's data processing and validation procedures.
#
#######################################################################

data_YIGRIR
_symmetry_cell_setting           orthorhombic
_symmetry_space_group_name_H-M   'P n n 2'
_symmetry_Int_Tables_number      34
_space_group_name_Hall           'P 2 -2n'
loop_
_symmetry_equiv_pos_site_id
_symmetry_equiv_pos_as_xyz
1 x,y,z
2 -x,-y,z
3 1/2+x,1/2-y,1/2+z
4 1/2-x,1/2+y,1/2+z
_cell_length_a                   17.9821(13)
_cell_length_b                   9.7493(7)
_cell_length_c                   10.0256(7)
_cell_angle_alpha                90
_cell_angle_beta                 90
_cell_angle_gamma                90
_cell_volume                     1757.62
loop_
_atom_site_label
_atom_site_type_symbol
_atom_site_fract_x
_atom_site_fract_y
_atom_site_fract_z
Cu1 Cu 0.46670(5) 0.84784(8) 0.26075(9)
Cu2 Cu 0.42740(5) 1.04403(9) 0.07203(9)
I1 I 0.387659(19) 1.08528(3) 0.32790(5)
I2 I 0.45205(2) 0.78001(4) 0.00884(5)
C1 C 0.3917(4) 0.5048(7) 0.2921(7)
H1 H 0.3404 0.4778 0.2953
H2 H 0.4226 0.4246 0.2900
H3 H 0.4003 0.5586 0.2134
C2 C 0.4098(4) 0.5876(5) 0.4119(7)
C3 C 0.4439(4) 0.7561(7) 0.5421(7)
H4 H 0.4617 0.8407 0.5708
C4 C 0.4218(4) 0.6536(7) 0.6237(8)
H5 H 0.4209 0.6550 0.7164
C5 C 0.3719(4) 0.4109(6) 0.5878(8)
H6 H 0.3975 0.3858 0.6694
H7 H 0.3827 0.3412 0.5215
C6 C 0.2889(4) 0.4138(8) 0.6136(10)
H8 H 0.2634 0.4383 0.5317
H9 H 0.2781 0.4842 0.6792
C7 C 0.2589(4) 0.2767(7) 0.6635(8)
H10 H 0.2051 0.2826 0.6689
H11 H 0.2709 0.2064 0.5986
C8 C 0.2627(5) 0.3019(9) 0.9141(10)
H12 H 0.2270 0.3706 0.9217
C9 C 0.3018(4) 0.2450(9) 1.0122(11)
H13 H 0.2983 0.2698 1.1016
C10 C 0.3380(3) 0.1435(6) 0.8321(9)
C11 C 0.3744(7) 0.0480(12) 0.7398(10)
H14 H 0.4170 0.0917 0.7006
H15 H 0.3401 0.0223 0.6709
H16 H 0.3900 -0.0323 0.7876
N1 N 0.4363(3) 0.7179(5) 0.4105(6)
N2 N 0.4005(3) 0.5445(5) 0.5405(5)
N3 N 0.3489(3) 0.1427(6) 0.9629(6)
N4 N 0.2874(3) 0.2345(6) 0.7926(7)
Cu1A Cu 0.53330(5) 1.15216(8) 0.26075(9)
Cu2_2 Cu 0.42740(5) 0.04403(9) 1.07203(9)
Cu2A Cu 0.57260(5) 0.95597(9) 0.07203(9)
I1A I 0.612341(19) 0.91472(3) 0.32790(5)
I2A I 0.54795(2) 1.21999(4) 0.00884(5)
N3_2 N 0.3489(3) 1.1427(6) -0.0371(6)
loop_
_geom_bond_atom_site_label_1
_geom_bond_atom_site_label_2
_geom_bond_site_symmetry_1
_geom_bond_site_symmetry_2
Cu1 I1 1_555 1_555
Cu2 I1 1_555 1_555
I1 Cu1A 1_555 1_555
I2 Cu1 1_555 1_555
C1 H1 1_555 1_555
H2 C1 1_555 1_555
H3 C1 1_555 1_555
C2 C1 1_555 1_555
C3 H4 1_555 1_555
C4 C3 1_555 1_555
H5 C4 1_555 1_555
C5 H6 1_555 1_555
H7 C5 1_555 1_555
C6 C5 1_555 1_555
H8 C6 1_555 1_555
H9 C6 1_555 1_555
C7 C6 1_555 1_555
H10 C7 1_555 1_555
H11 C7 1_555 1_555
C8 H12 1_555 1_555
C9 C8 1_555 1_555
H13 C9 1_555 1_555
C10 C11 1_555 1_555
C11 H14 1_555 1_555
H15 C11 1_555 1_555
H16 C11 1_555 1_555
N1 Cu1 1_555 1_555
N2 C2 1_555 1_555
N3 C9 1_555 1_555
N4 C7 1_555 1_555
Cu1A I1A 1_555 1_555
Cu2_2 N3 1_555 1_555
Cu2A I2 1_555 1_555
I1A Cu1 1_555 1_555
I2A Cu2 1_555 1_555
N3_2 Cu2 1_555 1_555
Cu2 I2 1_555 1_555
C2 N1 1_555 1_555
C3 N1 1_555 1_555
C4 N2 1_555 1_555
C5 N2 1_555 1_555
C8 N4 1_555 1_555
C10 N3 1_555 1_555
C10 N4 1_555 1_555
Cu1A I2A 1_555 1_555
Cu2A I1A 1_555 1_555
Cu2A I2A 1_555 1_555

#END
