
#######################################################################
#
#                 Cambridge Crystallographic Data Centre
#                                CCDC 
#
#######################################################################
#
# If this CIF has been generated from an entry in the Cambridge 
# Structural Database, then it will include bibliographic, chemical, 
# crystal, experimental, refinement or atomic coordinate data resulting 
# from the CCDC's data processing and validation procedures.
#
#######################################################################

data_YIGRIR02
_symmetry_cell_setting           orthorhombic
_symmetry_space_group_name_H-M   'P n n 2'
_symmetry_Int_Tables_number      34
_space_group_name_Hall           'P 2 -2n'
loop_
_symmetry_equiv_pos_site_id
_symmetry_equiv_pos_as_xyz
1 x,y,z
2 -x,-y,z
3 1/2+x,1/2-y,1/2+z
4 1/2-x,1/2+y,1/2+z
_cell_length_a                   17.6850(10)
_cell_length_b                   9.6255(5)
_cell_length_c                   9.8942(6)
_cell_angle_alpha                90
_cell_angle_beta                 90
_cell_angle_gamma                90
_cell_volume                     1684.26
loop_
_atom_site_label
_atom_site_type_symbol
_atom_site_fract_x
_atom_site_fract_y
_atom_site_fract_z
Cu1 Cu 0.53275(4) 0.15096(7) 0.74001(7)
Cu2 Cu 0.57178(4) -0.04307(7) 0.92643(8)
I1 I 0.612863(17) -0.08494(3) 0.67081(4)
I2 I 0.54693(2) 0.22149(4) 0.99260(4)
C1 C 0.6086(3) 0.4968(6) 0.7093(6)
H1 H 0.6620 0.5242 0.7065
H2 H 0.5992 0.4410 0.7904
H3 H 0.5768 0.5801 0.7114
C2 C 0.5903(3) 0.4138(5) 0.5877(6)
C3 C 0.5560(4) 0.2434(6) 0.4580(6)
H4 H 0.5379 0.1556 0.4282
C4 C 0.5786(3) 0.3477(6) 0.3751(6)
H5 H 0.5799 0.3466 0.2791
C5 C 0.6280(3) 0.5908(5) 0.4127(7)
H6 H 0.6162 0.6624 0.4813
H7 H 0.6019 0.6168 0.3279
C6 C 0.7118(4) 0.5885(7) 0.3884(8)
H8 H 0.7236 0.5157 0.3210
H9 H 0.7378 0.5636 0.4737
C7 C 0.7424(4) 0.7270(6) 0.3382(7)
H10 H 0.7294 0.7999 0.4048
H11 H 0.7982 0.7213 0.3336
C8 C 0.7400(4) 0.7032(7) 0.0873(8)
H12 H 0.7780 0.6337 0.0804
C9 C 0.7006(4) 0.7589(7) -0.0132(9)
H13 H 0.7053 0.7334 -0.1055
C10 C 0.6618(3) 0.8577(6) 0.1683(8)
C11 C 0.6220(5) 0.9499(8) 0.2611(8)
H14 H 0.5872 0.8954 0.3171
H15 H 0.5933 1.0189 0.2094
H16 H 0.6587 0.9973 0.3193
N1 N 0.5630(3) 0.2820(4) 0.5901(5)
N2 N 0.5992(3) 0.4560(5) 0.4592(5)
N3 N 0.6515(3) 0.8599(5) 0.0355(6)
N4 N 0.7140(3) 0.7684(5) 0.2069(6)
Cu1A Cu 0.46725(4) -0.15096(7) 0.74001(7)
Cu2_2 Cu 0.57178(4) 0.95693(7) -0.07357(8)
Cu2A Cu 0.42822(4) 0.04307(7) 0.92643(8)
I1A I 0.387137(17) 0.08494(3) 0.67081(4)
I2A I 0.45307(2) -0.22149(4) 0.99260(4)
N3_2 N 0.6515(3) -0.1401(5) 1.0355(6)
loop_
_geom_bond_atom_site_label_1
_geom_bond_atom_site_label_2
_geom_bond_site_symmetry_1
_geom_bond_site_symmetry_2
Cu1 I1 1_555 1_555
Cu2 I1 1_555 1_555
I1 Cu1A 1_555 1_555
I2 Cu1 1_555 1_555
C1 H1 1_555 1_555
H2 C1 1_555 1_555
H3 C1 1_555 1_555
C2 C1 1_555 1_555
C3 H4 1_555 1_555
C4 C3 1_555 1_555
H5 C4 1_555 1_555
C5 H6 1_555 1_555
H7 C5 1_555 1_555
C6 C5 1_555 1_555
H8 C6 1_555 1_555
H9 C6 1_555 1_555
C7 C6 1_555 1_555
H10 C7 1_555 1_555
H11 C7 1_555 1_555
C8 H12 1_555 1_555
C9 C8 1_555 1_555
H13 C9 1_555 1_555
C10 C11 1_555 1_555
C11 H14 1_555 1_555
H15 C11 1_555 1_555
H16 C11 1_555 1_555
N1 Cu1 1_555 1_555
N2 C2 1_555 1_555
N3 C9 1_555 1_555
N4 C7 1_555 1_555
Cu1A I1A 1_555 1_555
Cu2_2 N3 1_555 1_555
Cu2A I2 1_555 1_555
I1A Cu1 1_555 1_555
I2A Cu2 1_555 1_555
N3_2 Cu2 1_555 1_555
Cu2 I2 1_555 1_555
C2 N1 1_555 1_555
C3 N1 1_555 1_555
C4 N2 1_555 1_555
C5 N2 1_555 1_555
C8 N4 1_555 1_555
C10 N3 1_555 1_555
C10 N4 1_555 1_555
Cu1A I2A 1_555 1_555
Cu2A I1A 1_555 1_555
Cu2A I2A 1_555 1_555

#END
