
#######################################################################
#
#                 Cambridge Crystallographic Data Centre
#                                CCDC 
#
#######################################################################
#
# If this CIF has been generated from an entry in the Cambridge 
# Structural Database, then it will include bibliographic, chemical, 
# crystal, experimental, refinement or atomic coordinate data resulting 
# from the CCDC's data processing and validation procedures.
#
#######################################################################

data_YIGVIU01
_symmetry_cell_setting           orthorhombic
_symmetry_space_group_name_H-M   'P b c a'
_symmetry_Int_Tables_number      61
_space_group_name_Hall           '-P 2ac 2ab'
loop_
_symmetry_equiv_pos_site_id
_symmetry_equiv_pos_as_xyz
1 x,y,z
2 1/2-x,-y,1/2+z
3 -x,1/2+y,1/2-z
4 1/2+x,1/2-y,-z
5 -x,-y,-z
6 1/2+x,y,1/2-z
7 x,1/2-y,1/2+z
8 1/2-x,1/2+y,z
_cell_length_a                   10.4557(5)
_cell_length_b                   9.8265(4)
_cell_length_c                   10.93230(10)
_cell_angle_alpha                90
_cell_angle_beta                 90
_cell_angle_gamma                90
_cell_volume                     1123.22
loop_
_atom_site_label
_atom_site_type_symbol
_atom_site_fract_x
_atom_site_fract_y
_atom_site_fract_z
Mn1 Mn 0.67568(6) 0.08406(6) 0.39594(6)
Na1 Na 0.87458(18) -0.08535(16) 0.57728(18)
P1 P 0.90080(9) 0.27424(11) 0.53966(10)
O1 O 0.8487(3) 0.1360(3) 0.5001(3)
O2 O 1.0449(3) 0.2805(3) 0.5218(3)
O3 O 0.8275(3) 0.3924(3) 0.4835(3)
O4 O 0.7373(3) 0.2749(3) 0.7336(3)
H1 H 0.723(8) 0.171(8) 0.736(7)
O5 O 1.0222(3) 0.4752(3) 0.7341(3)
O6 O 0.8148(3) 0.5159(3) 0.7696(3)
C1 C 0.8729(4) 0.2926(4) 0.7050(4)
H2 H 0.925(4) 0.234(5) 0.748(5)
C2 C 0.9068(4) 0.4389(5) 0.7381(4)
Mn1C Mn 1.17568(6) 0.41594(6) 0.60406(6)
Mn1G Mn 0.82432(6) 0.58406(6) 0.39594(6)
Mn1F Mn 0.67568(6) 0.41594(6) 0.89594(6)
Na1D Na 1.12542(18) 0.08535(16) 0.42272(18)
Na1G Na 0.62542(18) 0.41465(16) 0.57728(18)
Na1B Na 1.12542(18) 0.41465(16) 0.92272(18)
O2C O 0.5449(3) 0.2195(3) 0.4782(3)
O2D O 0.9551(3) -0.2805(3) 0.4782(3)
O3G O 0.6725(3) -0.1076(3) 0.4835(3)
O4F O 0.7373(3) 0.2251(3) 0.2336(3)
O4G O 0.7627(3) -0.2251(3) 0.7336(3)
H1F H 0.723(8) 0.329(8) 0.236(7)
H1G H 0.777(8) -0.329(8) 0.736(7)
O5C O 0.5222(3) 0.0248(3) 0.2659(3)
O5B O 0.9778(3) -0.0248(3) 0.7659(3)
O6F O 0.8148(3) -0.0159(3) 0.2696(3)
loop_
_geom_bond_atom_site_label_1
_geom_bond_atom_site_label_2
_geom_bond_site_symmetry_1
_geom_bond_site_symmetry_2
Mn1 O1 1_555 1_555
Na1 O1 1_555 1_555
P1 O1 1_555 1_555
O2 P1 1_555 1_555
O3 P1 1_555 1_555
O4 H1 1_555 1_555
O5 C2 1_555 1_555
O6 C2 1_555 1_555
C1 P1 1_555 1_555
H2 C1 1_555 1_555
C2 C1 1_555 1_555
Mn1C O2 1_555 1_555
Mn1G O3 1_555 1_555
Mn1F O4 1_555 1_555
Na1D O2 1_555 1_555
Na1G O3 1_555 1_555
Na1B O5 1_555 1_555
O2C Mn1 1_555 1_555
O2D Na1 1_555 1_555
O3G Mn1 1_555 1_555
O4F Mn1 1_555 1_555
O4G Na1 1_555 1_555
H1F O4F 1_555 1_555
H1G O4G 1_555 1_555
O5C Mn1 1_555 1_555
O5B Na1 1_555 1_555
O6F Mn1 1_555 1_555
Na1 O3G 1_555 1_555
O4 C1 1_555 1_555
O4 Na1G 1_555 1_555
O5 Mn1C 1_555 1_555
O6 Mn1F 1_555 1_555
Na1G O2C 1_555 1_555

#END
