
#######################################################################
#
#                 Cambridge Crystallographic Data Centre
#                                CCDC 
#
#######################################################################
#
# If this CIF has been generated from an entry in the Cambridge 
# Structural Database, then it will include bibliographic, chemical, 
# crystal, experimental, refinement or atomic coordinate data resulting 
# from the CCDC's data processing and validation procedures.
#
#######################################################################

data_YIGXES
_symmetry_cell_setting           tetragonal
_symmetry_space_group_name_H-M   'I 41/a'
_symmetry_Int_Tables_number      88
_space_group_name_Hall           '-I 4ad'
loop_
_symmetry_equiv_pos_site_id
_symmetry_equiv_pos_as_xyz
1 x,y,z
2 3/4-y,1/4+x,1/4+z
3 1/2+x,1/2+y,1/2+z
4 1/4-y,3/4+x,3/4+z
5 1/4+y,1/4-x,1/4+z
6 1/2-x,-y,1/2+z
7 3/4+y,3/4-x,3/4+z
8 -x,1/2-y,z
9 -x,-y,-z
10 1/4+y,3/4-x,3/4-z
11 1/2-x,1/2-y,1/2-z
12 3/4+y,1/4-x,1/4-z
13 3/4-y,3/4+x,3/4-z
14 1/2+x,y,1/2-z
15 1/4-y,1/4+x,1/4-z
16 x,1/2+y,-z
_cell_length_a                   6.7810(7)
_cell_length_b                   6.7810(7)
_cell_length_c                   28.622(6)
_cell_angle_alpha                90
_cell_angle_beta                 90
_cell_angle_gamma                90
_cell_volume                     1316.1
loop_
_atom_site_label
_atom_site_type_symbol
_atom_site_fract_x
_atom_site_fract_y
_atom_site_fract_z
Ag1 Ag 0.0000 0.2500 0.6250
Co1 Co 0.5000 0.7500 0.6250
O1 O 0.2533(2) 0.6171(2) 0.61777(5)
N1 N 0.5000 0.7500 0.56083(9)
O2 O 0.0551(2) 0.4962(2) 0.56285(5)
C1 C 0.5000 0.7500 0.46714(11)
H1 H 0.5000 0.7500 0.4346
C2 C 0.1995(3) 0.5914(3) 0.57466(7)
C3 C 0.3414(3) 0.6777(3) 0.53929(7)
C4 C 0.3351(3) 0.6790(3) 0.49103(7)
H2 H 0.2247 0.6340 0.4750
Ag1_2 Ag 1.0000 1.2500 0.6250
Ag1_3 Ag 1.0000 0.2500 0.6250
Ag1_4 Ag 0.0000 1.2500 0.6250
O1G O 0.7467(2) 0.8829(2) 0.61777(5)
O1N O 0.6329(2) 0.5033(2) 0.63223(5)
O1K O 0.3671(2) 0.9967(2) 0.63223(5)
N1N N 0.5000 0.7500 0.68917(9)
O2G O 0.9449(2) 1.0038(2) 0.56285(5)
O2N O -0.2462(2) 0.3051(2) 0.68715(5)
O2K O 0.2462(2) 0.1949(2) 0.68715(5)
O2G_2 O -0.0551(2) 0.0038(2) 0.56285(5)
O2N_2 O 0.7538(2) 0.3051(2) 0.68715(5)
O2K_2 O 0.2462(2) 1.1949(2) 0.68715(5)
C1N C 0.5000 0.7500 0.78286(11)
H1N H 0.5000 0.7500 0.8154
C2G C 0.8005(3) 0.9086(3) 0.57466(7)
C2N C 0.6586(3) 0.4495(3) 0.67534(7)
C2K C 0.3414(3) 1.0505(3) 0.67534(7)
C3G C 0.6586(3) 0.8223(3) 0.53929(7)
C3N C 0.5723(3) 0.5914(3) 0.71071(7)
C3K C 0.4277(3) 0.9086(3) 0.71071(7)
C4G C 0.6649(3) 0.8210(3) 0.49103(7)
C4N C 0.5710(3) 0.5851(3) 0.75897(7)
C4K C 0.4290(3) 0.9149(3) 0.75897(7)
H2G H 0.7753 0.8660 0.4750
H2N H 0.6160 0.4747 0.7750
H2K H 0.3840 1.0253 0.7750
loop_
_geom_bond_atom_site_label_1
_geom_bond_atom_site_label_2
_geom_bond_site_symmetry_1
_geom_bond_site_symmetry_2
Ag1 O2 1_555 1_555
Co1 O1 1_555 1_555
O1 C2 1_555 1_555
N1 Co1 1_555 1_555
O2 C2 1_555 1_555
C1 H1 1_555 1_555
C2 C3 1_555 1_555
C3 N1 1_555 1_555
C4 C1 1_555 1_555
H2 C4 1_555 1_555
Ag1_2 O2G 1_555 1_555
Ag1_3 O2N_2 1_555 1_555
Ag1_4 O2K_2 1_555 1_555
O1G Co1 1_555 1_555
O1N Co1 1_555 1_555
O1K Co1 1_555 1_555
N1N Co1 1_555 1_555
O2G C2G 1_555 1_555
O2N Ag1 1_555 1_555
O2K Ag1 1_555 1_555
O2G_2 Ag1 1_555 1_555
O2N_2 C2N 1_555 1_555
O2K_2 C2K 1_555 1_555
C1N H1N 1_555 1_555
C2G O1G 1_555 1_555
C2N O1N 1_555 1_555
C2K O1K 1_555 1_555
C3G N1 1_555 1_555
C3N N1N 1_555 1_555
C3K N1N 1_555 1_555
C4G C1 1_555 1_555
C4N C1N 1_555 1_555
C4K C1N 1_555 1_555
H2G C4G 1_555 1_555
H2N C4N 1_555 1_555
H2K C4K 1_555 1_555
C3 C4 1_555 1_555
C2G C3G 1_555 1_555
C2N C3N 1_555 1_555
C2K C3K 1_555 1_555
C3G C4G 1_555 1_555
C3N C4N 1_555 1_555
C3K C4K 1_555 1_555

#END
