
#######################################################################
#
#                 Cambridge Crystallographic Data Centre
#                                CCDC 
#
#######################################################################
#
# If this CIF has been generated from an entry in the Cambridge 
# Structural Database, then it will include bibliographic, chemical, 
# crystal, experimental, refinement or atomic coordinate data resulting 
# from the CCDC's data processing and validation procedures.
#
#######################################################################

data_YIGZOF
_symmetry_cell_setting           orthorhombic
_symmetry_space_group_name_H-M   'P n a 21'
_symmetry_Int_Tables_number      33
_space_group_name_Hall           'P 2c -2n'
loop_
_symmetry_equiv_pos_site_id
_symmetry_equiv_pos_as_xyz
1 x,y,z
2 -x,-y,1/2+z
3 1/2+x,1/2-y,z
4 1/2-x,1/2+y,1/2+z
_cell_length_a                   13.567(3)
_cell_length_b                   11.779(2)
_cell_length_c                   11.206(2)
_cell_angle_alpha                90
_cell_angle_beta                 90
_cell_angle_gamma                90
_cell_volume                     1790.78
loop_
_atom_site_label
_atom_site_type_symbol
_atom_site_fract_x
_atom_site_fract_y
_atom_site_fract_z
Cu1 Cu -0.03420(2) 0.36311(3) 1.00323(4)
F1 F -0.35343(16) 0.4889(2) 0.9580(2)
F2 F -0.50745(16) 0.5502(2) 0.8213(3)
F3 F -0.47949(16) 0.6042(2) 0.5890(2)
F4 F -0.29887(14) 0.59830(19) 0.4946(2)
N1 N 0.3900(2) 0.1471(2) 0.1585(2)
N2 N 0.0297(2) 0.3075(3) 0.8509(2)
O1 O -0.15864(17) 0.3728(2) 0.9141(2)
O2 O -0.09609(19) 0.5455(2) 0.9030(2)
O3 O -0.09556(16) 0.6305(2) 0.5778(2)
O4 O -0.07714(18) 0.4490(2) 0.6318(2)
C1 C -0.1583(3) 0.4746(3) 0.8759(3)
C2 C -0.2432(3) 0.5087(3) 0.7959(3)
C3 C -0.3374(3) 0.5136(3) 0.8417(3)
C4 C -0.4159(3) 0.5460(3) 0.7740(4)
C5 C -0.4021(3) 0.5735(3) 0.6574(4)
C6 C -0.3079(3) 0.5716(3) 0.6098(3)
C7 C -0.2280(2) 0.5399(3) 0.6772(3)
C8 C -0.1241(2) 0.5369(3) 0.6248(3)
C9 C -0.0184(3) 0.2397(3) 0.7757(3)
H1 H -0.0804 0.2134 0.7981
C10 C 0.0183(3) 0.2063(3) 0.6669(3)
H2 H -0.0183 0.1586 0.6177
C11 C 0.1099(3) 0.2443(3) 0.6315(3)
C12 C 0.1597(3) 0.3153(4) 0.7079(4)
H3 H 0.2215 0.3430 0.6869
C13 C 0.1176(3) 0.3462(4) 0.8172(4)
H4 H 0.1518 0.3949 0.8676
C14 C 0.1515(3) 0.2130(3) 0.5134(4)
H5 H 0.1076 0.1972 0.4518
C15 C 0.2446(2) 0.2063(3) 0.4907(3)
H6 H 0.2872 0.2189 0.5544
C16 C 0.4381(3) 0.1535(3) 0.2622(3)
H7 H 0.5064 0.1466 0.2615
C17 C 0.3921(3) 0.1696(3) 0.3695(3)
H8 H 0.4290 0.1729 0.4394
C18 C 0.2906(3) 0.1809(3) 0.3743(3)
C19 C 0.2412(3) 0.1732(3) 0.2676(3)
H9 H 0.1728 0.1793 0.2666
C20 C 0.2914(3) 0.1564(3) 0.1618(3)
H10 H 0.2560 0.1515 0.0910
Cu1A Cu 0.03420(2) 0.63689(3) 0.50323(4)
Cu1B Cu 0.46580(2) 0.13689(3) 0.00323(4)
N1B N -0.1100(2) 0.3529(2) 1.1585(2)
O3A O 0.09556(16) 0.3695(2) 1.0778(2)
loop_
_geom_bond_atom_site_label_1
_geom_bond_atom_site_label_2
_geom_bond_site_symmetry_1
_geom_bond_site_symmetry_2
Cu1 N2 1_555 1_555
F1 C3 1_555 1_555
F2 C4 1_555 1_555
F3 C5 1_555 1_555
F4 C6 1_555 1_555
N1 C16 1_555 1_555
N2 C9 1_555 1_555
O1 Cu1 1_555 1_555
O2 C1 1_555 1_555
O3 C8 1_555 1_555
O4 C8 1_555 1_555
C1 O1 1_555 1_555
C2 C1 1_555 1_555
C3 C2 1_555 1_555
C4 C3 1_555 1_555
C5 C4 1_555 1_555
C6 C5 1_555 1_555
C7 C2 1_555 1_555
C8 C7 1_555 1_555
C9 H1 1_555 1_555
C10 C9 1_555 1_555
H2 C10 1_555 1_555
C11 C10 1_555 1_555
C12 C11 1_555 1_555
H3 C12 1_555 1_555
C13 N2 1_555 1_555
H4 C13 1_555 1_555
C14 C11 1_555 1_555
H5 C14 1_555 1_555
C15 C14 1_555 1_555
H6 C15 1_555 1_555
C16 H7 1_555 1_555
C17 C16 1_555 1_555
H8 C17 1_555 1_555
C18 C15 1_555 1_555
C19 C18 1_555 1_555
H9 C19 1_555 1_555
C20 N1 1_555 1_555
H10 C20 1_555 1_555
Cu1A O3 1_555 1_555
Cu1B N1 1_555 1_555
N1B Cu1 1_555 1_555
O3A Cu1 1_555 1_555
C6 C7 1_555 1_555
C12 C13 1_555 1_555
C17 C18 1_555 1_555
C19 C20 1_555 1_555

#END
