
#######################################################################
#
#                 Cambridge Crystallographic Data Centre
#                                CCDC 
#
#######################################################################
#
# If this CIF has been generated from an entry in the Cambridge 
# Structural Database, then it will include bibliographic, chemical, 
# crystal, experimental, refinement or atomic coordinate data resulting 
# from the CCDC's data processing and validation procedures.
#
#######################################################################

data_YIHHED
_symmetry_cell_setting           triclinic
_symmetry_space_group_name_H-M   'P -1'
_symmetry_Int_Tables_number      2
_space_group_name_Hall           '-P 1'
loop_
_symmetry_equiv_pos_site_id
_symmetry_equiv_pos_as_xyz
1 x,y,z
2 -x,-y,-z
_cell_length_a                   7.0456(13)
_cell_length_b                   11.415(2)
_cell_length_c                   18.024(3)
_cell_angle_alpha                87.361(4)
_cell_angle_beta                 88.838(4)
_cell_angle_gamma                72.414(3)
_cell_volume                     1380.35
loop_
_atom_site_label
_atom_site_type_symbol
_atom_site_fract_x
_atom_site_fract_y
_atom_site_fract_z
Ag1 Ag 1.11877(3) 0.612999(19) 0.487154(14)
C7 C 1.4025(5) 0.3756(3) 0.42125(17)
C8 C 1.3928(5) 0.3640(3) 0.54754(17)
C9 C 1.8691(5) -0.1310(3) 0.42229(17)
C10 C 1.8759(4) -0.1366(2) 0.54853(16)
C11 C 1.7657(4) -0.0136(2) 0.55009(15)
C12 C 1.7593(4) -0.0084(2) 0.41929(15)
C13 C 1.7044(3) 0.0544(2) 0.48440(14)
C14 C 1.5265(4) 0.2556(3) 0.41850(15)
C15 C 1.5838(3) 0.1862(2) 0.48400(14)
C16 C 1.5159(4) 0.2447(3) 0.54919(16)
H1 H 1.553(5) 0.199(3) 0.5980(19)
H2 H 1.724(6) 0.044(3) 0.372(2)
H3 H 1.898(6) -0.165(4) 0.381(2)
H4 H 1.351(5) 0.400(3) 0.5861(19)
H13 H 1.721(5) 0.018(3) 0.5936(18)
H14 H 1.908(5) -0.184(3) 0.5959(18)
H19 H 1.560(5) 0.223(3) 0.3701(18)
H20 H 1.347(7) 0.435(4) 0.375(2)
H21 H 1.018(9) 0.548(6) 0.649(3)
H23 H 1.076(9) 0.638(5) 0.669(3)
N1 N 1.3318(3) 0.4298(2) 0.48394(14)
N2 N 1.9295(3) -0.1960(2) 0.48554(13)
O8 O 1.0648(6) 0.5898(3) 0.63273(17)
Ag1A Ag 0.88123(3) 0.387001(19) 0.512846(14)
Ag1_2 Ag 2.11877(3) -0.387001(19) 0.487154(14)
N2_2 N 0.9295(3) 0.8040(2) 0.48554(13)
Ag2 Ag 0.22741(4) 0.390559(18) 0.993491(14)
C17 C 0.2342(5) 1.0203(2) 0.92798(16)
C18 C 0.2698(4) 1.0077(2) 1.05790(15)
C19 C 0.2590(4) 0.9486(2) 0.99324(14)
C20 C 0.2701(4) 0.8165(2) 0.99460(14)
C21 C 0.2784(5) 0.7479(2) 1.06090(16)
C22 C 0.2689(5) 0.7559(2) 0.93036(16)
C23 C 0.2633(5) 0.6361(3) 0.93406(17)
C24 C 0.2741(5) 0.6278(2) 1.06023(17)
C25 C 0.2560(5) 1.1313(3) 1.05514(16)
C26 C 0.2210(4) 1.1438(2) 0.92962(16)
H5 H 0.271(5) 0.789(3) 0.8826(18)
H6 H 0.299(5) 0.958(3) 1.1052(18)
H7 H 0.293(6) 0.580(4) 1.108(2)
H8 H 0.202(6) 1.189(4) 0.884(2)
H9 H 0.260(5) 1.171(3) 1.0988(19)
H10 H 0.252(5) 0.596(4) 0.894(2)
H11 H 0.293(6) 0.778(4) 1.100(2)
H12 H 0.227(5) 0.988(3) 0.8852(19)
H17 H 0.185(7) 0.395(5) 0.821(3)
H18 H 0.027(6) 0.478(4) 0.852(2)
N3 N 0.2612(4) 0.5724(2) 0.99782(14)
N4 N 0.2328(3) 1.1991(2) 0.99202(13)
O9 O 0.1148(5) 0.4222(3) 0.85829(17)
Ag2A Ag -0.22741(4) 0.609441(18) 1.006509(14)
Ag2_2 Ag 0.22741(4) 1.390559(18) 0.993491(14)
N4_2 N 0.2328(3) 0.1991(2) 0.99202(13)
C1 C 0.5041(5) 0.7242(3) 0.25639(17)
C2 C 0.3930(4) 0.8583(3) 0.25466(15)
C3 C 0.4668(5) 0.9556(3) 0.25515(16)
C4 C 0.3197(5) 1.0690(3) 0.25356(16)
C5 C 0.1311(4) 1.0588(3) 0.25189(14)
C6 C -0.0667(5) 1.1562(3) 0.24935(15)
H15 H 0.613(6) 0.947(4) 0.255(2)
H16 H 0.341(5) 1.152(3) 0.2529(17)
O1 O 0.6881(4) 0.6970(3) 0.26014(17)
O2 O 0.4046(4) 0.6509(3) 0.25483(19)
O3 O -0.2184(3) 1.1219(2) 0.24982(14)
O4 O -0.0665(4) 1.2664(2) 0.24627(15)
S1 S 0.13660(10) 0.90730(6) 0.25255(4)
H22 H -0.050(8) 0.649(5) 0.298(3)
H27 H 0.144(8) 0.629(5) 0.302(3)
O7 O 0.0620(5) 0.6179(3) 0.32624(17)
H24 H 0.125(7) 0.338(5) 0.198(3)
H25 H 0.281(8) 0.380(5) 0.183(3)
O5 O 0.1951(5) 0.3665(3) 0.16406(17)
O6 O 0.5055(5) 0.4013(3) 0.2394(2)
H26? H 0.568(12) 0.399(8) 0.227(5)
loop_
_geom_bond_atom_site_label_1
_geom_bond_atom_site_label_2
_geom_bond_site_symmetry_1
_geom_bond_site_symmetry_2
Ag1 N1 1_555 1_555
Ag2 N3 1_555 1_555
C1 C2 1_555 1_555
C2 C3 1_555 1_555
C3 C4 1_555 1_555
C4 C5 1_555 1_555
C5 C6 1_555 1_555
C6 O3 1_555 1_555
C7 C14 1_555 1_555
C8 C16 1_555 1_555
C9 C12 1_555 1_555
C10 C11 1_555 1_555
C11 C13 1_555 1_555
C12 C13 1_555 1_555
C13 C15 1_555 1_555
C14 C15 1_555 1_555
C15 C16 1_555 1_555
C16 H1 1_555 1_555
C17 C19 1_555 1_555
C18 C19 1_555 1_555
C19 C20 1_555 1_555
C20 C21 1_555 1_555
C21 C24 1_555 1_555
C22 C20 1_555 1_555
C23 C22 1_555 1_555
C24 H7 1_555 1_555
C25 C18 1_555 1_555
C26 C17 1_555 1_555
H2 C12 1_555 1_555
H3 C9 1_555 1_555
H4 C8 1_555 1_555
H5 C22 1_555 1_555
H6 C18 1_555 1_555
H8 C26 1_555 1_555
H9 C25 1_555 1_555
H10 C23 1_555 1_555
H11 C21 1_555 1_555
H12 C17 1_555 1_555
H13 C11 1_555 1_555
H14 C10 1_555 1_555
H15 C3 1_555 1_555
H16 C4 1_555 1_555
H17 O9 1_555 1_555
H18 O9 1_555 1_555
H19 C14 1_555 1_555
H20 C7 1_555 1_555
H21 O8 1_555 1_555
H22 O7 1_555 1_555
H23 O8 1_555 1_555
H24 O5 1_555 1_555
H25 O5 1_555 1_555
H27 O7 1_555 1_555
N1 C7 1_555 1_555
N2 C9 1_555 1_555
N3 C23 1_555 1_555
N4 C25 1_555 1_555
O1 C1 1_555 1_555
O2 C1 1_555 1_555
O4 C6 1_555 1_555
O8 Ag1 1_555 1_555
O9 Ag2 1_555 1_555
S1 C2 1_555 1_555
Ag1A Ag1 1_555 1_555
Ag1_2 N2 1_555 1_555
Ag2A Ag2 1_555 1_555
Ag2_2 N4 1_555 1_555
N2_2 Ag1 1_555 1_555
N4_2 Ag2 1_555 1_555
C5 S1 1_555 1_555
C8 N1 1_555 1_555
C10 N2 1_555 1_555
C24 N3 1_555 1_555
C26 N4 1_555 1_555

#END
