
#######################################################################
#
#                 Cambridge Crystallographic Data Centre
#                                CCDC 
#
#######################################################################
#
# If this CIF has been generated from an entry in the Cambridge 
# Structural Database, then it will include bibliographic, chemical, 
# crystal, experimental, refinement or atomic coordinate data resulting 
# from the CCDC's data processing and validation procedures.
#
#######################################################################

data_YIHYUL
_symmetry_cell_setting           triclinic
_symmetry_space_group_name_H-M   'P -1'
_symmetry_Int_Tables_number      2
_space_group_name_Hall           '-P 1'
loop_
_symmetry_equiv_pos_site_id
_symmetry_equiv_pos_as_xyz
1 x,y,z
2 -x,-y,-z
_cell_length_a                   11.4627(4)
_cell_length_b                   12.6360(5)
_cell_length_c                   13.6132(5)
_cell_angle_alpha                114.877(2)
_cell_angle_beta                 93.1080(10)
_cell_angle_gamma                90.9710(10)
_cell_volume                     1784.47
loop_
_atom_site_label
_atom_site_type_symbol
_atom_site_fract_x
_atom_site_fract_y
_atom_site_fract_z
Ag1 Ag 0.52041(2) 0.90183(2) 0.54384(2)
Ag2 Ag -0.15305(3) -0.03103(2) -0.16426(3)
N1 N 0.4022(2) 0.7609(2) 0.4457(2)
N2 N -0.0256(3) 0.0948(2) -0.0592(2)
N3 N -0.2801(2) -0.1629(2) -0.2622(2)
O1 O 0.66174(19) 1.02393(18) 0.62364(19)
O2 O 0.5493(2) 1.0990(2) 0.7618(2)
C1 C 0.2926(3) 0.7504(3) 0.4704(3)
H1 H 0.2660 0.8086 0.5327
C2 C 0.2175(3) 0.6579(3) 0.4083(3)
H2 H 0.1422 0.6550 0.4294
C3 C 0.2520(2) 0.5690(2) 0.3149(2)
C4 C 0.3655(3) 0.5808(3) 0.2890(3)
H3 H 0.3940 0.5240 0.2268
C5 C 0.4358(3) 0.6764(3) 0.3553(3)
H4 H 0.5113 0.6822 0.3356
C6 C -0.0533(3) 0.1710(3) 0.0383(3)
H5 H -0.1267 0.1627 0.0608
C7 C 0.0214(3) 0.2617(3) 0.1079(3)
H6 H -0.0022 0.3127 0.1753
C8 C 0.1314(3) 0.2767(3) 0.0771(3)
C9 C 0.1599(3) 0.1946(3) -0.0231(3)
H7 H 0.2336 0.1991 -0.0469
C10 C 0.0814(3) 0.1070(3) -0.0878(3)
H8 H 0.1037 0.0534 -0.1547
C11 C 0.1688(3) 0.4682(3) 0.2473(3)
H9 H 0.0996 0.4989 0.2261
H10 H 0.1445 0.4302 0.2921
C12 C 0.2160(3) 0.3768(3) 0.1457(3)
H11 H 0.2413 0.4149 0.1013
H12 H 0.2844 0.3452 0.1669
C13 C -0.3903(3) -0.1671(3) -0.2362(3)
H13 H -0.4147 -0.1061 -0.1746
C14 C -0.4691(3) -0.2570(3) -0.2960(3)
H14 H -0.5449 -0.2554 -0.2745
C15 C -0.4367(3) -0.3503(2) -0.3881(2)
C16 C -0.3229(3) -0.3447(3) -0.4159(3)
H15 H -0.2966 -0.4043 -0.4775
C17 C -0.2489(3) -0.2508(3) -0.3524(3)
H16 H -0.1734 -0.2486 -0.3734
C18 C -0.5225(3) -0.4504(2) -0.4510(2)
H17 H -0.5899 -0.4202 -0.4753
H18 H -0.5491 -0.4822 -0.4021
C19 C 0.6423(3) 1.0967(3) 0.7194(3)
C20 C 0.7417(3) 1.1839(2) 0.7822(2)
C21 C 0.8475(3) 1.1836(3) 0.7397(2)
H19 H 0.8619 1.1254 0.6722
C22 C 0.9335(3) 1.2701(3) 0.7971(2)
H20 H 1.0051 1.2680 0.7674
C23 C 0.9149(2) 1.3596(2) 0.8979(2)
C24 C 0.8074(3) 1.3561(3) 0.9395(3)
H21 H 0.7928 1.4131 1.0076
C25 C 0.7225(3) 1.2714(3) 0.8832(3)
H22 H 0.6512 1.2725 0.9130
C26 C 1.0045(3) 1.4518(2) 0.9537(2)
H23 H 1.0756 1.4431 0.9219
N3A N -0.7199(2) -0.8371(2) -0.7378(2)
C13A C -0.6097(3) -0.8329(3) -0.7638(3)
H13A H -0.5853 -0.8939 -0.8254
C14A C -0.5309(3) -0.7430(3) -0.7040(3)
H14A H -0.4551 -0.7446 -0.7255
C15A C -0.5633(3) -0.6497(2) -0.6119(2)
C16A C -0.6771(3) -0.6553(3) -0.5841(3)
H15A H -0.7034 -0.5957 -0.5225
C17A C -0.7511(3) -0.7492(3) -0.6476(3)
H16A H -0.8266 -0.7514 -0.6266
C18A C -0.4775(3) -0.5496(2) -0.5490(2)
H17A H -0.4101 -0.5798 -0.5247
H18A H -0.4509 -0.5178 -0.5979
O1A O 1.33826(19) 1.97607(18) 1.37636(19)
O2A O 1.4507(2) 1.9010(2) 1.2382(2)
C19A C 1.3577(3) 1.9033(3) 1.2806(3)
C20A C 1.2583(3) 1.8161(2) 1.2178(2)
C21A C 1.1525(3) 1.8164(3) 1.2603(2)
H19A H 1.1381 1.8746 1.3278
C22A C 1.0665(3) 1.7299(3) 1.2029(2)
H20A H 0.9949 1.7320 1.2326
C23A C 1.0851(2) 1.6404(2) 1.1021(2)
C24A C 1.1926(3) 1.6439(3) 1.0605(3)
H21A H 1.2072 1.5869 0.9924
C25A C 1.2775(3) 1.7286(3) 1.1168(3)
H22A H 1.3488 1.7275 1.0870
C26A C 0.9955(3) 1.5482(2) 1.0463(2)
H23A H 0.9244 1.5569 1.0781
Ag1A Ag -1.52041(2) -1.90183(2) -1.54384(2)
Ag2A Ag -0.84695(3) -0.96897(2) -0.83574(3)
N1A N -1.4022(2) -1.7609(2) -1.4457(2)
N2A N -0.9744(3) -1.0948(2) -0.9408(2)
C1A C -1.2926(3) -1.7504(3) -1.4704(3)
H1A H -1.2660 -1.8086 -1.5327
C2A C -1.2175(3) -1.6579(3) -1.4083(3)
H2A H -1.1422 -1.6550 -1.4294
C3A C -1.2520(2) -1.5690(2) -1.3149(2)
C4A C -1.3655(3) -1.5808(3) -1.2890(3)
H3A H -1.3940 -1.5240 -1.2268
C5A C -1.4358(3) -1.6764(3) -1.3553(3)
H4A H -1.5113 -1.6822 -1.3356
C6A C -0.9467(3) -1.1710(3) -1.0383(3)
H5A H -0.8733 -1.1627 -1.0608
C7A C -1.0214(3) -1.2617(3) -1.1079(3)
H6A H -0.9978 -1.3127 -1.1753
C8A C -1.1314(3) -1.2767(3) -1.0771(3)
C9A C -1.1599(3) -1.1946(3) -0.9769(3)
H7A H -1.2336 -1.1991 -0.9531
C10A C -1.0814(3) -1.1070(3) -0.9122(3)
H8A H -1.1037 -1.0534 -0.8453
C11A C -1.1688(3) -1.4682(3) -1.2473(3)
H9A H -1.0996 -1.4989 -1.2261
H10A H -1.1445 -1.4302 -1.2921
C12A C -1.2160(3) -1.3768(3) -1.1457(3)
H11A H -1.2413 -1.4149 -1.1013
H12A H -1.2844 -1.3452 -1.1669
Ag1_2 Ag -1.47959(2) -2.09817(2) -1.45616(2)
Ag1A_2 Ag 0.47959(2) 1.09817(2) 0.45616(2)
Ag1A_3 Ag 1.47959(2) 2.09817(2) 1.45616(2)
O1A_2 O -1.66174(19) -2.02393(18) -1.62364(19)
O3 O 0.0886(2) 0.4118(2) 0.5717(2)
O4 O 0.0973(2) 0.2376(2) 0.5709(2)
C27 C 0.1276(3) 0.3436(3) 0.6082(3)
C28 C 0.2196(3) 0.3909(3) 0.7029(2)
C29 C 0.2588(3) 0.3216(3) 0.7539(3)
H24 H 0.2273 0.2459 0.7302
C30 C 0.3436(3) 0.3629(3) 0.8388(3)
H25 H 0.3683 0.3147 0.8712
C31 C 0.3927(2) 0.4765(3) 0.8768(2)
C32 C 0.3530(3) 0.5455(3) 0.8258(2)
H26 H 0.3846 0.6211 0.8491
C33 C 0.2670(3) 0.5040(3) 0.7409(3)
H27 H 0.2410 0.5525 0.7092
C34 C 0.4815(2) 0.5251(3) 0.9683(2)
H28 H 0.5149 0.5983 0.9832
O3A O 0.9114(2) 0.5882(2) 1.4283(2)
O4A O 0.9027(2) 0.7624(2) 1.4291(2)
C27A C 0.8724(3) 0.6564(3) 1.3918(3)
C28A C 0.7804(3) 0.6091(3) 1.2971(2)
C29A C 0.7412(3) 0.6784(3) 1.2461(3)
H24A H 0.7727 0.7541 1.2698
C30A C 0.6564(3) 0.6371(3) 1.1612(3)
H25A H 0.6317 0.6853 1.1288
C31A C 0.6073(2) 0.5235(3) 1.1232(2)
C32A C 0.6470(3) 0.4545(3) 1.1742(2)
H26A H 0.6154 0.3789 1.1509
C33A C 0.7330(3) 0.4960(3) 1.2591(3)
H27A H 0.7590 0.4475 1.2908
C34A C 0.5185(2) 0.4749(3) 1.0317(2)
H28A H 0.4851 0.4017 1.0168
O5 O 0.1935(3) 0.0382(2) 0.5535(2)
H29 H 0.1621 0.1013 0.5606
H30 H 0.2373 0.0180 0.5007
O6 O 0.4754(2) 0.1518(2) 0.9721(2)
H31 H 0.4981 0.1366 0.9094
H32 H 0.4356 0.0929 0.9689
O7 O 0.0528(3) 0.6434(3) 0.6245(2)
H33 H 0.0697 0.5751 0.6164
H34 H 0.0098 0.6373 0.5693
O8 O 0.3193(2) 0.0044(3) 0.7140(3)
H35 H 0.2844 0.0173 0.6638
H36 H 0.3884 0.0346 0.7256
O9 O 0.2337(3) 0.8135(3) 0.7529(3)
H37 H 0.1797 0.7689 0.7090
H38 H 0.2517 0.8665 0.7328
O10 O 0.6612(3) 0.0491(3) 0.0406(3)
H39 H 0.6058 0.0832 0.0234
H40 H 0.6901 0.0940 0.1037
O11 O 0.9776(3) 0.0904(3) 0.3701(3)
H41 H 1.0165 0.1368 0.4277
H42 H 0.9276 0.0519 0.3873
loop_
_geom_bond_atom_site_label_1
_geom_bond_atom_site_label_2
_geom_bond_site_symmetry_1
_geom_bond_site_symmetry_2
Ag1 N1 1_555 1_555
Ag2 N2 1_555 1_555
N1 C1 1_555 1_555
N2 C6 1_555 1_555
N3 Ag2 1_555 1_555
O1 Ag1 1_555 1_555
O2 C19 1_555 1_555
C1 H1 1_555 1_555
C2 C1 1_555 1_555
H2 C2 1_555 1_555
C3 C2 1_555 1_555
C4 C3 1_555 1_555
H3 C4 1_555 1_555
C5 N1 1_555 1_555
H4 C5 1_555 1_555
C6 H5 1_555 1_555
C7 C6 1_555 1_555
H6 C7 1_555 1_555
C8 C7 1_555 1_555
C9 C8 1_555 1_555
H7 C9 1_555 1_555
C10 N2 1_555 1_555
H8 C10 1_555 1_555
C11 C3 1_555 1_555
H9 C11 1_555 1_555
H10 C11 1_555 1_555
C12 C8 1_555 1_555
H11 C12 1_555 1_555
H12 C12 1_555 1_555
C13 N3 1_555 1_555
H13 C13 1_555 1_555
C14 C13 1_555 1_555
H14 C14 1_555 1_555
C15 C14 1_555 1_555
C16 C15 1_555 1_555
H15 C16 1_555 1_555
C17 N3 1_555 1_555
H16 C17 1_555 1_555
C18 C15 1_555 1_555
H17 C18 1_555 1_555
H18 C18 1_555 1_555
C19 O1 1_555 1_555
C20 C19 1_555 1_555
C21 C20 1_555 1_555
H19 C21 1_555 1_555
C22 C21 1_555 1_555
H20 C22 1_555 1_555
C23 C22 1_555 1_555
C24 C23 1_555 1_555
H21 C24 1_555 1_555
C25 C20 1_555 1_555
H22 C25 1_555 1_555
C26 C23 1_555 1_555
H23 C26 1_555 1_555
O3 C27 1_555 1_555
O4 C27 1_555 1_555
C27 C28 1_555 1_555
C28 C29 1_555 1_555
C29 H24 1_555 1_555
C30 C29 1_555 1_555
H25 C30 1_555 1_555
C31 C30 1_555 1_555
C32 C31 1_555 1_555
H26 C32 1_555 1_555
C33 C28 1_555 1_555
H27 C33 1_555 1_555
C34 C31 1_555 1_555
H28 C34 1_555 1_555
O5 H29 1_555 1_555
H30 O5 1_555 1_555
O6 H31 1_555 1_555
H32 O6 1_555 1_555
O7 H33 1_555 1_555
H34 O7 1_555 1_555
O8 H35 1_555 1_555
H36 O8 1_555 1_555
O9 H37 1_555 1_555
H38 O9 1_555 1_555
O10 H39 1_555 1_555
H40 O10 1_555 1_555
O11 H41 1_555 1_555
H42 O11 1_555 1_555
N3A C13A 1_555 1_555
C13A H13A 1_555 1_555
C14A C13A 1_555 1_555
H14A C14A 1_555 1_555
C15A C14A 1_555 1_555
C16A C15A 1_555 1_555
H15A C16A 1_555 1_555
C17A N3A 1_555 1_555
H16A C17A 1_555 1_555
C18A C18 1_555 1_555
H17A C18A 1_555 1_555
H18A C18A 1_555 1_555
O1A C19A 1_555 1_555
O2A C19A 1_555 1_555
C19A C20A 1_555 1_555
C20A C21A 1_555 1_555
C21A H19A 1_555 1_555
C22A C21A 1_555 1_555
H20A C22A 1_555 1_555
C23A C22A 1_555 1_555
C24A C23A 1_555 1_555
H21A C24A 1_555 1_555
C25A C20A 1_555 1_555
H22A C25A 1_555 1_555
C26A C26 1_555 1_555
H23A C26A 1_555 1_555
Ag1A N1A 1_555 1_555
Ag2A N3A 1_555 1_555
N1A C1A 1_555 1_555
N2A Ag2A 1_555 1_555
C1A H1A 1_555 1_555
C2A C1A 1_555 1_555
H2A C2A 1_555 1_555
C3A C2A 1_555 1_555
C4A C3A 1_555 1_555
H3A C4A 1_555 1_555
C5A N1A 1_555 1_555
H4A C5A 1_555 1_555
C6A N2A 1_555 1_555
H5A C6A 1_555 1_555
C7A C6A 1_555 1_555
H6A C7A 1_555 1_555
C8A C7A 1_555 1_555
C9A C8A 1_555 1_555
H7A C9A 1_555 1_555
C10A N2A 1_555 1_555
H8A C10A 1_555 1_555
C11A C3A 1_555 1_555
H9A C11A 1_555 1_555
H10A C11A 1_555 1_555
C12A C8A 1_555 1_555
H11A C12A 1_555 1_555
H12A C12A 1_555 1_555
Ag1_2 Ag1A 1_555 1_555
Ag1A_2 Ag1 1_555 1_555
Ag1A_3 O1A 1_555 1_555
O1A_2 Ag1A 1_555 1_555
O3A C27A 1_555 1_555
O4A C27A 1_555 1_555
C27A C28A 1_555 1_555
C28A C29A 1_555 1_555
C29A H24A 1_555 1_555
C30A C29A 1_555 1_555
H25A C30A 1_555 1_555
C31A C30A 1_555 1_555
C32A C31A 1_555 1_555
H26A C32A 1_555 1_555
C33A C28A 1_555 1_555
H27A C33A 1_555 1_555
C34A C34 1_555 1_555
H28A C34A 1_555 1_555
C4 C5 1_555 1_555
C9 C10 1_555 1_555
C11 C12 1_555 1_555
C16 C17 1_555 1_555
C24 C25 1_555 1_555
C32 C33 1_555 1_555
C15A C18A 1_555 1_555
C16A C17A 1_555 1_555
C23A C26A 1_555 1_555
C24A C25A 1_555 1_555
C4A C5A 1_555 1_555
C9A C10A 1_555 1_555
C11A C12A 1_555 1_555
C31A C34A 1_555 1_555
C32A C33A 1_555 1_555

#END
