
#######################################################################
#
#                 Cambridge Crystallographic Data Centre
#                                CCDC 
#
#######################################################################
#
# If this CIF has been generated from an entry in the Cambridge 
# Structural Database, then it will include bibliographic, chemical, 
# crystal, experimental, refinement or atomic coordinate data resulting 
# from the CCDC's data processing and validation procedures.
#
#######################################################################

data_YIHZIA02
_symmetry_cell_setting           monoclinic
_symmetry_space_group_name_H-M   'P 21/c'
_symmetry_Int_Tables_number      14
_space_group_name_Hall           '-P 2ybc'
loop_
_symmetry_equiv_pos_site_id
_symmetry_equiv_pos_as_xyz
1 x,y,z
2 -x,1/2+y,1/2-z
3 -x,-y,-z
4 x,1/2-y,1/2+z
_cell_length_a                   8.1869(3)
_cell_length_b                   12.6287(5)
_cell_length_c                   8.5265(3)
_cell_angle_alpha                90
_cell_angle_beta                 107.304(2)
_cell_angle_gamma                90
_cell_volume                     841.655
loop_
_atom_site_label
_atom_site_type_symbol
_atom_site_fract_x
_atom_site_fract_y
_atom_site_fract_z
Cd1 Cd 0.48047(4) 0.92793(3) 0.20096(4)
O1 O -0.3114(5) 0.5319(3) 0.5076(5)
O2 O -0.4160(5) 0.6855(3) 0.5520(5)
O3 O 0.3044(5) 0.7826(3) 0.2180(5)
O4 O 0.2641(5) 0.9281(3) 0.3405(5)
O5 O 0.5754(6) 1.0863(3) 0.3243(5)
H1 H 0.6291 1.0951 0.4254
H2 H 0.6020 1.1475 0.2985
N1 N -0.3043(5) 0.8662(3) 0.4533(6)
H3 H -0.2966 0.9337 0.4432
H4 H -0.3886 0.8398 0.4808
C1 C -0.1885(5) 0.6885(4) 0.4322(5)
C2 C -0.1784(6) 0.7990(4) 0.4246(5)
C3 C -0.0440(6) 0.8455(4) 0.3803(6)
H5 H -0.0352 0.9189 0.3785
C4 C 0.0767(5) 0.7833(4) 0.3388(5)
C5 C 0.0620(6) 0.6732(4) 0.3378(6)
H6 H 0.1394 0.6311 0.3052
C6 C -0.0692(6) 0.6272(4) 0.3858(6)
H7 H -0.0778 0.5538 0.3871
C7 C 0.2225(5) 0.8340(4) 0.2958(5)
C8 C -0.3146(6) 0.6320(4) 0.4991(6)
Cd1_2 Cd -0.51953(4) 0.92793(3) 0.20096(4)
Cd1A Cd -0.48047(4) 0.42793(3) 0.29904(4)
Cd1C Cd -0.51953(4) 0.57207(3) 0.70096(4)
O1A O 0.3114(5) 1.0319(3) -0.0076(5)
O1C O 0.6886(5) 0.9681(3) 0.0076(5)
O2C O 0.5840(5) 0.8145(3) 0.0520(5)
N1_2 N 0.6957(5) 0.8662(3) 0.4533(6)
loop_
_geom_bond_atom_site_label_1
_geom_bond_atom_site_label_2
_geom_bond_site_symmetry_1
_geom_bond_site_symmetry_2
Cd1 O3 1_555 1_555
O1 C8 1_555 1_555
O2 C8 1_555 1_555
O3 C7 1_555 1_555
O4 Cd1 1_555 1_555
O5 Cd1 1_555 1_555
H1 O5 1_555 1_555
H2 O5 1_555 1_555
N1 H3 1_555 1_555
H4 N1 1_555 1_555
C1 C2 1_555 1_555
C2 N1 1_555 1_555
C3 C2 1_555 1_555
H5 C3 1_555 1_555
C4 C3 1_555 1_555
C5 C4 1_555 1_555
H6 C5 1_555 1_555
C6 C1 1_555 1_555
H7 C6 1_555 1_555
C7 O4 1_555 1_555
C8 C1 1_555 1_555
Cd1_2 N1 1_555 1_555
Cd1A O1 1_555 1_555
Cd1C O1 1_555 1_555
O1A Cd1 1_555 1_555
O1C Cd1 1_555 1_555
O2C Cd1 1_555 1_555
N1_2 Cd1 1_555 1_555
O2 Cd1C 1_555 1_555
C4 C7 1_555 1_555
C5 C6 1_555 1_555

#END
