
#######################################################################
#
#                 Cambridge Crystallographic Data Centre
#                                CCDC 
#
#######################################################################
#
# If this CIF has been generated from an entry in the Cambridge 
# Structural Database, then it will include bibliographic, chemical, 
# crystal, experimental, refinement or atomic coordinate data resulting 
# from the CCDC's data processing and validation procedures.
#
#######################################################################

data_YIHZEW
_symmetry_cell_setting           monoclinic
_symmetry_space_group_name_H-M   'P 21/c'
_symmetry_Int_Tables_number      14
_space_group_name_Hall           '-P 2ybc'
loop_
_symmetry_equiv_pos_site_id
_symmetry_equiv_pos_as_xyz
1 x,y,z
2 -x,1/2+y,1/2-z
3 -x,-y,-z
4 x,1/2-y,1/2+z
_cell_length_a                   8.7935(18)
_cell_length_b                   18.878(4)
_cell_length_c                   8.3071(17)
_cell_angle_alpha                90
_cell_angle_beta                 94.25(3)
_cell_angle_gamma                90
_cell_volume                     1375.22
loop_
_atom_site_label
_atom_site_type_symbol
_atom_site_fract_x
_atom_site_fract_y
_atom_site_fract_z
Cd1 Cd 0.69200(7) 0.28681(3) 0.56205(7)
Br1 Br 0.13695(13) 0.55791(6) 0.17815(18)
O1 O 0.7490(8) 0.3887(3) 0.4139(8)
O2 O 0.5128(7) 0.3619(3) 0.4531(7)
O3 O 0.4169(7) 0.6745(3) -0.0640(7)
O4 O 0.3428(9) 0.7053(3) 0.1725(7)
C1 C 0.6107(11) 0.4021(5) 0.3971(10)
C2 C 0.5550(10) 0.4664(4) 0.3030(10)
C3 C 0.6566(12) 0.5110(5) 0.2376(12)
H1 H 0.7602 0.5004 0.2453
C4 C 0.6024(11) 0.5731(5) 0.1585(11)
H2 H 0.6709 0.6029 0.1120
C5 C 0.4014(11) 0.4809(4) 0.2876(10)
H3 H 0.3327 0.4494 0.3288
C6 C 0.3487(10) 0.5426(4) 0.2103(10)
C7 C 0.4004(10) 0.6612(4) 0.0806(10)
C8 C 0.4502(10) 0.5902(4) 0.1488(9)
C9 C 1.0548(13) 0.2975(6) 0.5867(16)
H4 H 1.0332 0.3439 0.5546
C10 C 1.2045(16) 0.2772(9) 0.610(2)
H5 H 1.2827 0.3085 0.5901
C11 C 1.2364(15) 0.2088(8) 0.6638(17)
H6 H 1.3361 0.1936 0.6876
C12 C 1.1166(15) 0.1653(8) 0.6802(17)
H7 H 1.1349 0.1184 0.7099
C13 C 0.9706(13) 0.1878(6) 0.6548(14)
H8 H 0.8912 0.1565 0.6702
N1 N 0.9389(8) 0.2540(4) 0.6079(8)
Cd1A Cd 0.30800(7) 0.78681(3) -0.06205(7)
Cd1B Cd 0.30800(7) 0.71319(3) 0.43795(7)
O3A O 0.5831(7) 0.1745(3) 0.5640(7)
O4A O 0.6572(9) 0.2053(3) 0.3275(7)
O4B O 0.6572(9) 0.2947(3) 0.8275(7)
loop_
_geom_bond_atom_site_label_1
_geom_bond_atom_site_label_2
_geom_bond_site_symmetry_1
_geom_bond_site_symmetry_2
Cd1 O1 1_555 1_555
Br1 C6 1_555 1_555
O1 C1 1_555 1_555
O2 Cd1 1_555 1_555
O3 C7 1_555 1_555
O4 C7 1_555 1_555
C1 O2 1_555 1_555
C2 C1 1_555 1_555
C3 C2 1_555 1_555
H1 C3 1_555 1_555
C4 C3 1_555 1_555
H2 C4 1_555 1_555
C5 C2 1_555 1_555
H3 C5 1_555 1_555
C6 C5 1_555 1_555
C7 C8 1_555 1_555
C8 C4 1_555 1_555
C9 H4 1_555 1_555
C10 C9 1_555 1_555
H5 C10 1_555 1_555
C11 C10 1_555 1_555
H6 C11 1_555 1_555
C12 C11 1_555 1_555
H7 C12 1_555 1_555
C13 C12 1_555 1_555
H8 C13 1_555 1_555
N1 Cd1 1_555 1_555
Cd1A O3 1_555 1_555
Cd1B O4 1_555 1_555
O3A Cd1 1_555 1_555
O4A Cd1 1_555 1_555
O4B Cd1 1_555 1_555
O4 Cd1A 1_555 1_555
C6 C8 1_555 1_555
C9 N1 1_555 1_555
C13 N1 1_555 1_555

#END
