
#######################################################################
#
#                 Cambridge Crystallographic Data Centre
#                                CCDC 
#
#######################################################################
#
# If this CIF has been generated from an entry in the Cambridge 
# Structural Database, then it will include bibliographic, chemical, 
# crystal, experimental, refinement or atomic coordinate data resulting 
# from the CCDC's data processing and validation procedures.
#
#######################################################################

data_YIJCEB
_symmetry_cell_setting           monoclinic
_symmetry_space_group_name_H-M   'P 21/m'
_symmetry_Int_Tables_number      11
_space_group_name_Hall           '-P 2yb'
loop_
_symmetry_equiv_pos_site_id
_symmetry_equiv_pos_as_xyz
1 x,y,z
2 -x,1/2+y,-z
3 -x,-y,-z
4 x,1/2-y,z
_cell_length_a                   13.5941(12)
_cell_length_b                   14.3621(12)
_cell_length_c                   14.2561(12)
_cell_angle_alpha                90
_cell_angle_beta                 96.141(2)
_cell_angle_gamma                90
_cell_volume                     2767.39
loop_
_atom_site_label
_atom_site_type_symbol
_atom_site_fract_x
_atom_site_fract_y
_atom_site_fract_z
N7 N 0.3483(4) 0.2500 0.4229(4)
C17 C 0.4232(4) 0.2500 0.4923(4)
H11 H 0.4893 0.2500 0.4762
C18 C 0.4074(4) 0.2500 0.5873(4)
H12 H 0.4621 0.2500 0.6348
C19 C 0.3110(3) 0.2500 0.6126(4)
C20 C 0.2333(4) 0.2500 0.5415(4)
H13 H 0.1664 0.2500 0.5553
C21 C 0.2572(4) 0.2500 0.4483(4)
H14 H 0.2040 0.2500 0.3994
C22 C 0.2883(4) 0.2500 0.7118(4)
H15 H 0.2205 0.2500 0.7222
N8 N 0.2951(4) 0.2500 1.0774(4)
C23 C 0.2209(4) 0.2500 1.0078(4)
H16 H 0.1548 0.2500 1.0238
C24 C 0.2368(4) 0.2500 0.9124(4)
H17 H 0.1820 0.2500 0.8650
C25 C 0.3323(4) 0.2500 0.8870(4)
C26 C 0.4098(5) 0.2500 0.9593(4)
H18 H 0.4766 0.2500 0.9453
C27 C 0.3876(4) 0.2500 1.0524(4)
H19 H 0.4410 0.2500 1.1012
C28 C 0.3544(4) 0.2500 0.7879(3)
H20 H 0.4222 0.2500 0.7773
O1 O 0.6992(3) 0.6373(3) 0.7495(3)
Ni1 Ni 0.0000 0.5000 0.5000
C1 C -0.00012(15) 0.65890(14) 0.34200(15)
N1 N -0.00502(13) 0.60263(12) 0.39871(12)
Ni2 Ni 0.0000 0.5000 0.0000
C2 C 0.01859(15) 0.34100(14) 0.15853(15)
N2 N 0.01852(13) 0.39794(12) 0.10138(12)
Ni3 Ni 0.00927(3) 0.7500 0.25105(3)
C3 C 0.01662(15) 0.65763(14) 0.16012(15)
N3 N 0.01886(13) 0.60055(12) 0.10370(13)
Ni4 Ni 0.01008(3) 0.2500 0.25005(3)
C4 C -0.00125(16) 0.34214(15) 0.33993(15)
N4 N -0.00890(13) 0.39978(13) 0.39551(13)
N5 N 0.15497(17) 0.49345(18) 0.50892(16)
C5 C 0.20997(18) 0.48883(15) 0.59274(19)
H1 H 0.1772 0.4852 0.6483
C6 C 0.31223(17) 0.48913(17) 0.6018(2)
H2 H 0.3481 0.4856 0.6626
C7 C 0.36267(17) 0.4947(3) 0.5222(2)
C8 C 0.30560(17) 0.4985(3) 0.4355(2)
H3 H 0.3365 0.5010 0.3788
C9 C 0.20370(17) 0.4987(3) 0.4320(2)
H4 H 0.1661 0.5028 0.3720
C10 C 0.47170(17) 0.4950(3) 0.5335(2)
H5 H 0.5035 0.4872 0.5956
N6 N 0.15307(10) 0.49950(15) -0.01238(10)
C11 C 0.18930(13) 0.50709(18) -0.09579(14)
H6 H 0.1442 0.5115 -0.1513
C12 C 0.28944(13) 0.50879(19) -0.10455(16)
H7 H 0.3118 0.5152 -0.1651
C13 C 0.35770(13) 0.5011(2) -0.02488(15)
C14 C 0.31954(13) 0.49218(18) 0.06171(16)
H8 H 0.3629 0.4867 0.1183
C15 C 0.21825(13) 0.49129(17) 0.06453(15)
H9 H 0.1936 0.4845 0.1240
C16 C 0.46443(13) 0.5041(2) -0.03501(19)
H10 H 0.4834 0.5124 -0.0967
N5B N 0.84503(17) 0.50655(18) 0.49108(16)
C5B C 0.79003(18) 0.51117(15) 0.40726(19)
H1B H 0.8228 0.5148 0.3517
C6B C 0.68777(17) 0.51087(17) 0.3982(2)
H2B H 0.6519 0.5144 0.3374
C7B C 0.63733(17) 0.5053(3) 0.4778(2)
C8B C 0.69440(17) 0.5015(3) 0.5645(2)
H3B H 0.6635 0.4990 0.6212
C9B C 0.79630(17) 0.5013(3) 0.5680(2)
H4B H 0.8339 0.4972 0.6280
C10B C 0.52830(17) 0.5050(3) 0.4665(2)
H5B H 0.4965 0.5128 0.4044
N6B N 0.84693(10) 0.50050(15) 0.01238(10)
C11B C 0.81070(13) 0.49291(18) 0.09579(14)
H6B H 0.8558 0.4885 0.1513
C12B C 0.71056(13) 0.49121(19) 0.10455(16)
H7B H 0.6882 0.4848 0.1651
C13B C 0.64230(13) 0.4989(2) 0.02488(15)
C14B C 0.68046(13) 0.50782(18) -0.06171(16)
H8B H 0.6371 0.5133 -0.1183
C15B C 0.78175(13) 0.50871(17) -0.06453(15)
H9B H 0.8064 0.5155 -0.1240
C16B C 0.53557(13) 0.4959(2) 0.03501(19)
H10B H 0.5166 0.4876 0.0967
C2B C -0.01859(15) 0.65900(14) -0.15853(15)
N2B N -0.01852(13) 0.60206(12) -0.10138(12)
C3B C -0.01662(15) 0.34237(14) -0.16012(15)
N3B N -0.01886(13) 0.39945(12) -0.10370(13)
C1B C 0.00012(15) 0.34110(14) 0.65800(15)
N1B N 0.00502(13) 0.39737(12) 0.60129(12)
C4B C 0.00125(16) 0.65786(15) 0.66007(15)
N4B N 0.00890(13) 0.60022(13) 0.60449(13)
Ni1_2 Ni 1.0000 0.5000 0.5000
C1C C -0.00012(15) 0.84110(14) 0.34200(15)
Ni2_2 Ni 1.0000 0.5000 0.0000
C2C C 0.01859(15) 0.15900(14) 0.15853(15)
Ni3A Ni -0.00927(3) 0.2500 -0.25105(3)
Ni3A_2 Ni -0.00927(3) 0.2500 0.74895(3)
C3C C 0.01662(15) 0.84237(14) 0.16012(15)
Ni4A Ni -0.01008(3) 0.7500 -0.25005(3)
Ni4A_2 Ni -0.01008(3) 0.7500 0.74995(3)
C4C C -0.00125(16) 0.15786(15) 0.33993(15)
N5B_2 N -0.15497(17) 0.50655(18) 0.49108(16)
N6B_2 N -0.15307(10) 0.50050(15) 0.01238(10)
N9? N 0.1540(5) 0.5036(7) 0.4885(4)
C29? C 0.1886(4) 0.5062(10) 0.4041(5)
H21? H 0.1428 0.5052 0.3489
C30? C 0.2889(4) 0.5103(8) 0.3946(5)
H22? H 0.3112 0.5211 0.3346
C31? C 0.3565(4) 0.4985(10) 0.4739(4)
C32? C 0.3211(4) 0.4906(8) 0.5611(5)
H23? H 0.3654 0.4841 0.6170
C33? C 0.2192(4) 0.4925(7) 0.5649(5)
H24? H 0.1948 0.4855 0.6245
C34? C 0.4640(4) 0.5020(8) 0.4648(6)
H25? H 0.4832 0.5075 0.4029
N10? N 0.3098(4) 0.2500 0.4260(4)
C35? C 0.2349(5) 0.2500 0.4798(4)
H26? H 0.1695 0.2500 0.4486
C36? C 0.2454(4) 0.2500 0.5776(4)
H27? H 0.1890 0.2500 0.6117
C37? C 0.3405(4) 0.2500 0.6245(4)
C38? C 0.4196(5) 0.2500 0.5696(4)
H28? H 0.4858 0.2500 0.5988
C39? C 0.4009(5) 0.2500 0.4716(5)
H29? H 0.4556 0.2500 0.4353
C40? C 0.3585(5) 0.2500 0.7290(4)
H30? H 0.4259 0.2500 0.7548
N11? N 0.3501(4) 0.2500 1.0910(4)
C41? C 0.4242(5) 0.2500 1.0363(5)
H31? H 0.4902 0.2500 1.0661
C42? C 0.4101(5) 0.2500 0.9381(5)
H32? H 0.4654 0.2500 0.9025
C43? C 0.3143(5) 0.2500 0.8927(4)
C44? C 0.2377(5) 0.2500 0.9496(4)
H33? H 0.1709 0.2500 0.9220
C45? C 0.2591(5) 0.2500 1.0478(5)
H34? H 0.2054 0.2500 1.0853
C46? C 0.2940(5) 0.2500 0.7890(4)
H35? H 0.2264 0.2500 0.7639
O2? O 0.4885(5) 0.4845(6) 0.7520(5)
O3? O 0.5529(6) 0.6136(6) 0.7481(5)
O4? O 0.4835(6) 0.6139(6) 0.7504(5)
O5? O 0.6208(8) 0.6390(6) 0.7435(6)
O6? O 0.5239(9) 0.5680(9) 0.7467(7)
O7? O 0.7725(3) 0.2500 0.4384(3)
S1? S 0.71205(11) 0.29477(10) 0.32601(14)
C47? C 0.6067(3) 0.2171(3) 0.3334(4)
H36? H 0.5468 0.2459 0.3016
H37? H 0.5977 0.2061 0.3998
H38? H 0.6189 0.1578 0.3028
C48? C 0.7472(4) 0.2061(4) 0.2511(4)
H39? H 0.7232 0.2212 0.1856
H40? H 0.7184 0.1468 0.2685
H41? H 0.8194 0.2008 0.2575
O8? O 0.2594(3) 0.7500 0.0788(3)
S2? S 0.29467(10) 0.70044(12) 0.19801(12)
C49? C 0.4044(2) 0.6824(3) 0.2052(3)
H42? H 0.4400 0.7419 0.2087
H43? H 0.4202 0.6478 0.1496
H44? H 0.4244 0.6459 0.2621
C50? C 0.2860(4) 0.8040(4) 0.2591(4)
H45? H 0.2505 0.7931 0.3144
H46? H 0.2501 0.8500 0.2179
H47? H 0.3526 0.8273 0.2796
loop_
_geom_bond_atom_site_label_1
_geom_bond_atom_site_label_2
_geom_bond_site_symmetry_1
_geom_bond_site_symmetry_2
Ni1 N1 1_555 1_555
C1 N1 1_555 1_555
Ni2 N2 1_555 1_555
C2 N2 1_555 1_555
Ni3 C1 1_555 1_555
C3 Ni3 1_555 1_555
N3 Ni2 1_555 1_555
Ni4 C2 1_555 1_555
C4 Ni4 1_555 1_555
N4 Ni1 1_555 1_555
N5 Ni1 1_555 1_555
C5 N5 1_555 1_555
H1 C5 1_555 1_555
C6 C5 1_555 1_555
H2 C6 1_555 1_555
C7 C6 1_555 1_555
C8 C7 1_555 1_555
H3 C8 1_555 1_555
C9 N5 1_555 1_555
H4 C9 1_555 1_555
C10 C7 1_555 1_555
H5 C10 1_555 1_555
N6 Ni2 1_555 1_555
C11 N6 1_555 1_555
H6 C11 1_555 1_555
C12 C11 1_555 1_555
H7 C12 1_555 1_555
C13 C12 1_555 1_555
C14 C13 1_555 1_555
H8 C14 1_555 1_555
C15 N6 1_555 1_555
H9 C15 1_555 1_555
C16 C13 1_555 1_555
H10 C16 1_555 1_555
N7 C17 1_555 1_555
C17 H11 1_555 1_555
C18 C17 1_555 1_555
H12 C18 1_555 1_555
C19 C18 1_555 1_555
C20 C19 1_555 1_555
H13 C20 1_555 1_555
C21 N7 1_555 1_555
H14 C21 1_555 1_555
C22 C19 1_555 1_555
H15 C22 1_555 1_555
N8 C23 1_555 1_555
C23 H16 1_555 1_555
C24 C23 1_555 1_555
H17 C24 1_555 1_555
C25 C24 1_555 1_555
C26 C25 1_555 1_555
H18 C26 1_555 1_555
C27 N8 1_555 1_555
H19 C27 1_555 1_555
C28 C22 1_555 1_555
H20 C28 1_555 1_555
N5B C5B 1_555 1_555
C5B H1B 1_555 1_555
C6B C5B 1_555 1_555
H2B C6B 1_555 1_555
C7B C6B 1_555 1_555
C8B C7B 1_555 1_555
H3B C8B 1_555 1_555
C9B N5B 1_555 1_555
H4B C9B 1_555 1_555
C10B C10 1_555 1_555
H5B C10B 1_555 1_555
N6B C11B 1_555 1_555
C11B H6B 1_555 1_555
C12B C11B 1_555 1_555
H7B C12B 1_555 1_555
C13B C12B 1_555 1_555
C14B C13B 1_555 1_555
H8B C14B 1_555 1_555
C15B N6B 1_555 1_555
H9B C15B 1_555 1_555
C16B C16 1_555 1_555
H10B C16B 1_555 1_555
C2B N2B 1_555 1_555
N2B Ni2 1_555 1_555
C3B N3B 1_555 1_555
N3B Ni2 1_555 1_555
C1B N1B 1_555 1_555
N1B Ni1 1_555 1_555
C4B N4B 1_555 1_555
N4B Ni1 1_555 1_555
Ni1_2 N5B 1_555 1_555
C1C Ni3 1_555 1_555
Ni2_2 N6B 1_555 1_555
C2C Ni4 1_555 1_555
Ni3A C3B 1_555 1_555
Ni3A_2 C1B 1_555 1_555
C3C Ni3 1_555 1_555
Ni4A C2B 1_555 1_555
Ni4A_2 C4B 1_555 1_555
C4C Ni4 1_555 1_555
N5B_2 Ni1 1_555 1_555
N6B_2 Ni2 1_555 1_555
C3 N3 1_555 1_555
C4 N4 1_555 1_555
C8 C9 1_555 1_555
C14 C15 1_555 1_555
C20 C21 1_555 1_555
C25 C28 1_555 1_555
C26 C27 1_555 1_555
C7B C10B 1_555 1_555
C8B C9B 1_555 1_555
C13B C16B 1_555 1_555
C14B C15B 1_555 1_555

#END
