
#######################################################################
#
#                 Cambridge Crystallographic Data Centre
#                                CCDC 
#
#######################################################################
#
# If this CIF has been generated from an entry in the Cambridge 
# Structural Database, then it will include bibliographic, chemical, 
# crystal, experimental, refinement or atomic coordinate data resulting 
# from the CCDC's data processing and validation procedures.
#
#######################################################################

data_YIJDAY
_symmetry_cell_setting           monoclinic
_symmetry_space_group_name_H-M   'P 21/n'
_symmetry_Int_Tables_number      14
_space_group_name_Hall           '-P 2yn'
loop_
_symmetry_equiv_pos_site_id
_symmetry_equiv_pos_as_xyz
1 x,y,z
2 1/2-x,1/2+y,1/2-z
3 -x,-y,-z
4 1/2+x,1/2-y,1/2+z
_cell_length_a                   8.0367(12)
_cell_length_b                   13.327(2)
_cell_length_c                   23.725(4)
_cell_angle_alpha                90
_cell_angle_beta                 97.394(3)
_cell_angle_gamma                90
_cell_volume                     2519.94
loop_
_atom_site_label
_atom_site_type_symbol
_atom_site_fract_x
_atom_site_fract_y
_atom_site_fract_z
C1 C -0.0998(5) -0.0882(3) 0.32902(18)
H1 H -0.1660 -0.0679 0.2959
C2 C 0.0311(5) -0.1777(3) 0.39513(19)
H2 H 0.0721 -0.2332 0.4163
C3 C -0.0228(5) -0.0271(3) 0.36737(15)
H3 H -0.0263 0.0426 0.3654
C4 C 0.1649(5) -0.0380(3) 0.46002(16)
C5 C 0.1976(5) 0.0638(3) 0.46519(18)
H4 H 0.1554 0.1070 0.4360
C6 C 0.2930(5) 0.1021(3) 0.51363(18)
H5 H 0.3121 0.1709 0.5168
C7 C 0.3604(5) 0.0378(3) 0.55756(17)
C8 C 0.3301(5) -0.0636(3) 0.55173(18)
H6 H 0.3763 -0.1074 0.5800
C9 C 0.2329(6) -0.1005(3) 0.50486(18)
H7 H 0.2112 -0.1691 0.5025
C10 C 0.5560(5) 0.0219(3) 0.64850(16)
H8 H 0.5568 -0.0479 0.6499
C11 C 0.5027(5) 0.1754(3) 0.62260(17)
H9 H 0.4601 0.2323 0.6030
C12 C 0.6391(5) 0.0828(3) 0.68607(17)
H10 H 0.7086 0.0614 0.7182
C13 C 0.8726(5) 0.4227(3) 0.65903(18)
C14 C 0.9307(5) 0.5179(3) 0.63611(17)
C15 C 0.8914(5) 0.5405(3) 0.57993(18)
H11 H 0.8301 0.4943 0.5563
C16 C 0.9394(6) 0.6297(3) 0.55680(19)
H12 H 0.9142 0.6424 0.5181
C17 C 1.0254(6) 0.6993(3) 0.59238(17)
H13 H 1.0560 0.7603 0.5776
C18 C 1.0668(5) 0.6795(3) 0.65005(16)
C19 C 1.1561(5) 0.7583(3) 0.68852(16)
C20 C 1.0221(5) 0.5890(3) 0.67170(16)
H14 H 1.0523 0.5746 0.7100
C21 C 1.2981(5) 0.4237(3) 0.63012(18)
C22 C 1.3817(5) 0.5172(3) 0.61125(17)
C23 C 1.3647(6) 0.5375(3) 0.55438(19)
H15 H 1.3072 0.4932 0.5285
C24 C 1.4336(7) 0.6246(3) 0.53545(19)
H16 H 1.4226 0.6389 0.4968
C25 C 1.5181(6) 0.6898(3) 0.57377(19)
H17 H 1.5656 0.7478 0.5609
C26 C 1.5330(5) 0.6697(3) 0.63089(17)
C27 C 1.6261(5) 0.7421(3) 0.67287(16)
C28 C 1.4646(5) 0.5825(3) 0.65024(17)
H18 H 1.4747 0.5683 0.6889
N1 N 0.0626(5) -0.0810(3) 0.41034(15)
N2 N -0.0699(4) -0.1820(2) 0.34418(14)
N3 N 0.4675(5) 0.0804(3) 0.60667(15)
N4 N 0.6115(5) 0.1758(2) 0.67241(15)
O1 O 0.7414(4) 0.3833(2) 0.63658(13)
O2 O 0.9551(4) 0.3852(2) 0.70422(13)
O3 O 1.1529(5) 0.8457(2) 0.67426(15)
O4 O 1.2304(4) 0.7250(2) 0.73535(13)
O5 O 1.2144(5) 0.3684(2) 0.59588(15)
O6 O 1.3186(4) 0.4061(2) 0.68381(13)
O7 O 1.6733(4) 0.8234(2) 0.65637(14)
O8 O 1.6480(4) 0.7113(2) 0.72429(13)
O9 O 0.6138(4) 0.3965(2) 0.74923(12)
H19 H 0.6318 0.3882 0.7898
H20 H 0.4961 0.3911 0.7360
Zn1 Zn 1.16432(6) 0.30075(3) 0.70116(2)
Zn2 Zn 0.73646(6) 0.28897(3) 0.71302(2)
N2B N 1.0699(4) 0.1820(2) 0.65582(14)
O4A O 1.2696(4) 0.2250(2) 0.76465(13)
O8A O 0.8520(4) 0.2113(2) 0.77571(13)
Zn1A Zn 1.33568(6) 0.80075(3) 0.79884(2)
Zn1B Zn -0.16432(6) -0.30075(3) 0.29884(2)
Zn2A Zn 1.76354(6) 0.78897(3) 0.78698(2)
loop_
_geom_bond_atom_site_label_1
_geom_bond_atom_site_label_2
_geom_bond_site_symmetry_1
_geom_bond_site_symmetry_2
C1 H1 1_555 1_555
C2 H2 1_555 1_555
C3 C1 1_555 1_555
H3 C3 1_555 1_555
C4 C5 1_555 1_555
C5 H4 1_555 1_555
C6 C5 1_555 1_555
H5 C6 1_555 1_555
C7 C6 1_555 1_555
C8 C7 1_555 1_555
H6 C8 1_555 1_555
C9 C4 1_555 1_555
H7 C9 1_555 1_555
C10 H8 1_555 1_555
C11 H9 1_555 1_555
C12 C10 1_555 1_555
H10 C12 1_555 1_555
C13 C14 1_555 1_555
C14 C15 1_555 1_555
C15 H11 1_555 1_555
C16 C15 1_555 1_555
H12 C16 1_555 1_555
C17 C16 1_555 1_555
H13 C17 1_555 1_555
C18 C17 1_555 1_555
C19 C18 1_555 1_555
C20 C14 1_555 1_555
H14 C20 1_555 1_555
C21 C22 1_555 1_555
C22 C23 1_555 1_555
C23 H15 1_555 1_555
C24 C23 1_555 1_555
H16 C24 1_555 1_555
C25 C24 1_555 1_555
H17 C25 1_555 1_555
C26 C25 1_555 1_555
C27 C26 1_555 1_555
C28 C22 1_555 1_555
H18 C28 1_555 1_555
N1 C2 1_555 1_555
N2 C1 1_555 1_555
N3 C7 1_555 1_555
N4 C11 1_555 1_555
O1 C13 1_555 1_555
O2 C13 1_555 1_555
O3 C19 1_555 1_555
O4 C19 1_555 1_555
O5 C21 1_555 1_555
O6 C21 1_555 1_555
O7 C27 1_555 1_555
O8 C27 1_555 1_555
O9 H19 1_555 1_555
H20 O9 1_555 1_555
Zn1 O2 1_555 1_555
Zn2 N4 1_555 1_555
N2B Zn1 1_555 1_555
O4A Zn1 1_555 1_555
O8A Zn2 1_555 1_555
Zn1A O4 1_555 1_555
Zn1B N2 1_555 1_555
Zn2A O8 1_555 1_555
C2 N2 1_555 1_555
C3 N1 1_555 1_555
C4 N1 1_555 1_555
C8 C9 1_555 1_555
C10 N3 1_555 1_555
C11 N3 1_555 1_555
C12 N4 1_555 1_555
C18 C20 1_555 1_555
C26 C28 1_555 1_555
O1 Zn2 1_555 1_555
O2 Zn2 1_555 1_555
O6 Zn1 1_555 1_555
O9 Zn2 1_555 1_555

#END
