
#######################################################################
#
#                 Cambridge Crystallographic Data Centre
#                                CCDC 
#
#######################################################################
#
# If this CIF has been generated from an entry in the Cambridge 
# Structural Database, then it will include bibliographic, chemical, 
# crystal, experimental, refinement or atomic coordinate data resulting 
# from the CCDC's data processing and validation procedures.
#
#######################################################################

data_YIJYUN
_symmetry_cell_setting           orthorhombic
_symmetry_space_group_name_H-M   'P 21 21 21'
_symmetry_Int_Tables_number      19
_space_group_name_Hall           'P 2ac 2ab'
loop_
_symmetry_equiv_pos_site_id
_symmetry_equiv_pos_as_xyz
1 x,y,z
2 1/2-x,-y,1/2+z
3 1/2+x,1/2-y,-z
4 -x,1/2+y,1/2-z
_cell_length_a                   8.7000(2)
_cell_length_b                   11.4517(3)
_cell_length_c                   23.0491(8)
_cell_angle_alpha                90
_cell_angle_beta                 90
_cell_angle_gamma                90
_cell_volume                     2296.38
loop_
_atom_site_label
_atom_site_type_symbol
_atom_site_fract_x
_atom_site_fract_y
_atom_site_fract_z
Zn1 Zn 0.15229(12) 0.82596(8) 0.72796(4)
Zn2 Zn 0.63304(13) 0.79067(9) 0.65885(4)
N1 N 0.1464(10) 0.9530(6) 0.6674(3)
N2 N 0.1284(10) 1.5557(7) 0.3911(4)
O1 O 0.5667(9) 0.6014(7) 0.6801(4)
O2 O 0.4783(8) 0.6960(6) 0.6063(3)
O3 O 0.1696(8) 0.6584(5) 0.7159(3)
O4 O 0.1044(9) 0.6651(7) 0.6237(3)
O5 O 0.6915(7) 0.3467(6) 0.7098(3)
O6 O 0.5371(7) 0.3509(5) 0.7850(3)
O7 O 0.1829(7) 0.3148(6) 0.7880(3)
O8 O 0.0231(7) 0.3787(6) 0.7230(3)
O9 O 0.8080(7) 0.7167(6) 0.6012(3)
H1 H 0.8063 0.7252 0.5645
H2 H 0.9011 0.7064 0.6112
C1 C 0.4528(11) 0.3875(9) 0.6269(4)
H3 H 0.5629 0.3951 0.6214
H4 H 0.4143 0.3293 0.6
C2 C 0.3743(12) 0.5030(7) 0.6169(4)
H5 H 0.3447 0.5121 0.5762
C3 C 0.2321(10) 0.4965(7) 0.6562(4)
H6 H 0.1548 0.4485 0.6366
C4 C 0.2856(10) 0.4301(8) 0.7108(4)
H7 H 0.3302 0.4877 0.7374
C5 C 0.4168(10) 0.3514(9) 0.6900(4)
H8 H 0.3778 0.2711 0.689
C6 C 0.4843(13) 0.6041(9) 0.6366(5)
C7 C 0.1648(11) 0.6161(8) 0.6652(5)
C8 C 0.1568(12) 0.3709(7) 0.7425(4)
C9 C 0.5574(11) 0.3530(8) 0.7298(5)
C10 C 0.1844(14) 0.9384(9) 0.6129(5)
H9 H 0.2207 0.8655 0.6016
C11 C 0.1739(15) 1.0261(11) 0.5703(5)
H10 H 0.2026 1.0114 0.5321
C12 C 0.1202(12) 1.1339(8) 0.5867(5)
C13 C 0.0796(13) 1.1518(9) 0.6433(5)
H11 H 0.0427 1.224 0.6554
C14 C 0.0944(12) 1.0600(9) 0.6826(5)
H12 H 0.0673 1.0729 0.7211
C15 C 0.0976(15) 1.2399(11) 0.5464(5)
H13 H 0.0397 1.3023 0.5602
C16 C 0.1514(14) 1.2469(10) 0.4975(5)
H14 H 0.2042 1.1832 0.4824
C17 C 0.1355(15) 1.3526(8) 0.4616(5)
C18 C 0.1958(15) 1.3513(9) 0.4060(6)
H15 H 0.2424 1.2844 0.3914
C19 C 0.1855(15) 1.4510(10) 0.3724(5)
H16 H 0.2201 1.4466 0.3343
C20 C 0.0723(14) 1.5538(12) 0.4469(5)
H17 H 0.0291 1.6224 0.461
C21 C 0.0747(14) 1.4575(12) 0.4840(5)
H18 H 0.0378 1.4622 0.5218
Zn1C Zn -0.15229(12) 0.32596(8) 0.77204(4)
Zn1C_2 Zn 0.84771(12) 0.32596(8) 0.77204(4)
Zn2B Zn 0.13304(13) 1.70933(9) 0.34115(4)
Zn2C Zn 0.36696(13) 0.29067(9) 0.84115(4)
N2B N 0.6284(10) 0.9443(7) 0.6089(4)
O5C O 0.3085(7) 0.8467(6) 0.7902(3)
O6C O 0.4629(7) 0.8509(5) 0.7150(3)
O7C O 0.8171(7) 0.8148(6) 0.7120(3)
O8C O -0.0231(7) 0.8787(6) 0.7770(3)
O10 O 0.8416(9) 0.4518(6) 0.6026(3)
H19 H 0.8643 0.4271 0.6363
H20 H 0.8046 0.5201 0.6062
O11 O 0.2854(14) 0.7261(9) 0.5136(4)
H21 H 0.3675 0.7199 0.5334
H22 H 0.2058 0.7223 0.5349
loop_
_geom_bond_atom_site_label_1
_geom_bond_atom_site_label_2
_geom_bond_site_symmetry_1
_geom_bond_site_symmetry_2
Zn1 N1 1_555 1_555
Zn2 O1 1_555 1_555
N1 C10 1_555 1_555
N2 C19 1_555 1_555
O1 C6 1_555 1_555
O2 Zn2 1_555 1_555
O3 Zn1 1_555 1_555
O4 C7 1_555 1_555
O5 C9 1_555 1_555
O6 C9 1_555 1_555
O7 C8 1_555 1_555
O8 C8 1_555 1_555
O9 Zn2 1_555 1_555
H1 O9 1_555 1_555
H2 O9 1_555 1_555
C1 H3 1_555 1_555
H4 C1 1_555 1_555
C2 C1 1_555 1_555
H5 C2 1_555 1_555
C3 C2 1_555 1_555
H6 C3 1_555 1_555
C4 C3 1_555 1_555
H7 C4 1_555 1_555
C5 C1 1_555 1_555
H8 C5 1_555 1_555
C6 O2 1_555 1_555
C7 O3 1_555 1_555
C8 C4 1_555 1_555
C9 C5 1_555 1_555
C10 H9 1_555 1_555
C11 C10 1_555 1_555
H10 C11 1_555 1_555
C12 C11 1_555 1_555
C13 C12 1_555 1_555
H11 C13 1_555 1_555
C14 N1 1_555 1_555
H12 C14 1_555 1_555
C15 C12 1_555 1_555
H13 C15 1_555 1_555
C16 C15 1_555 1_555
H14 C16 1_555 1_555
C17 C16 1_555 1_555
C18 C17 1_555 1_555
H15 C18 1_555 1_555
C19 C18 1_555 1_555
H16 C19 1_555 1_555
C20 N2 1_555 1_555
H17 C20 1_555 1_555
C21 C17 1_555 1_555
H18 C21 1_555 1_555
O10 H19 1_555 1_555
H20 O10 1_555 1_555
O11 H21 1_555 1_555
H22 O11 1_555 1_555
Zn1C O8 1_555 1_555
Zn1C_2 O5 1_555 1_555
Zn2B N2 1_555 1_555
Zn2C O6 1_555 1_555
N2B Zn2 1_555 1_555
O5C Zn1 1_555 1_555
O6C Zn2 1_555 1_555
O7C Zn2 1_555 1_555
O8C Zn1 1_555 1_555
O7 Zn2C 1_555 1_555
C2 C6 1_555 1_555
C3 C7 1_555 1_555
C4 C5 1_555 1_555
C13 C14 1_555 1_555
C20 C21 1_555 1_555

#END
