
#######################################################################
#
#                 Cambridge Crystallographic Data Centre
#                                CCDC 
#
#######################################################################
#
# If this CIF has been generated from an entry in the Cambridge 
# Structural Database, then it will include bibliographic, chemical, 
# crystal, experimental, refinement or atomic coordinate data resulting 
# from the CCDC's data processing and validation procedures.
#
#######################################################################

data_YIJYAT
_symmetry_cell_setting           triclinic
_symmetry_space_group_name_H-M   'P -1'
_symmetry_Int_Tables_number      2
_space_group_name_Hall           '-P 1'
loop_
_symmetry_equiv_pos_site_id
_symmetry_equiv_pos_as_xyz
1 x,y,z
2 -x,-y,-z
_cell_length_a                   6.2570(9)
_cell_length_b                   10.8661(16)
_cell_length_c                   13.699(2)
_cell_angle_alpha                80.526(2)
_cell_angle_beta                 81.450(2)
_cell_angle_gamma                75.545(2)
_cell_volume                     883.937
loop_
_atom_site_label
_atom_site_type_symbol
_atom_site_fract_x
_atom_site_fract_y
_atom_site_fract_z
Ni1 Ni 0.26238(5) 0.85933(3) 0.36493(2)
P1 P -0.18292(10) 0.77570(6) 0.37497(5)
C1 C 0.0144(4) 0.7116(3) 0.2731(2)
H1 H -0.0025 0.6264 0.2686
H2 H -0.0232 0.7651 0.2113
C2 C 0.3674(5) 0.5724(3) 0.3255(2)
H3 H 0.2823 0.5463 0.3872
H4 H 0.5117 0.5758 0.3413
C3 C 0.3995(6) 0.4718(3) 0.2561(3)
H5 H 0.2566 0.4546 0.2516
H6 H 0.4941 0.3927 0.2841
C4 C 0.5033(6) 0.5136(3) 0.1516(3)
H7 H 0.6579 0.5126 0.1539
H8 H 0.4984 0.4529 0.1078
C5 C 0.3826(5) 0.6477(3) 0.1093(2)
H9 H 0.4614 0.6755 0.0463
H10 H 0.2335 0.6472 0.0980
C6 C 0.3733(4) 0.7376(3) 0.1834(2)
H11 H 0.5275 0.7281 0.1954
C7 C 0.2855(4) 0.8777(3) 0.1539(2)
C8 C 0.2005(5) 1.0711(3) 0.0705(2)
C9 C 0.1637(6) 1.1803(4) -0.0003(3)
H12 H 0.1843 1.1752 -0.0682
C10 C 0.0950(6) 1.2962(4) 0.0366(4)
H13 H 0.0684 1.3713 -0.0080
C11 C 0.0643(6) 1.3047(3) 0.1371(3)
H14 H 0.0187 1.3853 0.1582
C12 C 0.0994(5) 1.1968(3) 0.2080(3)
H15 H 0.0770 1.2030 0.2758
C13 C 0.1694(4) 1.0791(3) 0.1725(2)
N1 N 0.2515(3) 0.7036(2) 0.28304(16)
N2 N 0.2241(3) 0.9545(2) 0.22292(16)
N3 N 0.2734(4) 0.9421(3) 0.06137(18)
H16 H 0.3051 0.9090 0.0066
O1 O -0.0740(3) 0.87202(17) 0.40703(14)
O2 O -0.3952(3) 0.83873(18) 0.32839(14)
O3 O -0.2151(3) 0.66747(18) 0.45761(14)
O4 O 0.2483(3) 1.02734(19) 0.41891(15)
H17 H 0.3285 1.0705 0.3789
H18 H 0.1146 1.0705 0.4241
O5 O 0.3388(3) 0.74707(18) 0.50049(14)
H19 H 0.2369 0.7075 0.5233
H20 H 0.4617 0.6931 0.4911
Ni1_2 Ni -0.73762(5) 0.85933(3) 0.36493(2)
O2_2 O 0.6048(3) 0.83873(18) 0.32839(14)
O6 O 0.0904(3) 0.5836(2) 0.59093(16)
H21 H 0.1940 0.5178 0.5808
H22 H -0.0134 0.5678 0.5649
O7 O 0.6310(4) 0.1147(2) 0.34544(16)
H23 H 0.6414 0.1650 0.3851
H24 H 0.7251 0.0436 0.3548
O9 O 0.3085(8) 0.9579(7) 0.8499(3)
H27 H 0.2534 0.9273 0.8088
H28 H 0.4412 0.9617 0.8276
O8? O 0.3621(10) 0.8390(9) 0.8734(4)
H25? H 0.2832 0.7847 0.8945
H26? H 0.4986 0.8020 0.8747
loop_
_geom_bond_atom_site_label_1
_geom_bond_atom_site_label_2
_geom_bond_site_symmetry_1
_geom_bond_site_symmetry_2
Ni1 N1 1_555 1_555
P1 C1 1_555 1_555
C1 H1 1_555 1_555
H2 C1 1_555 1_555
C2 H3 1_555 1_555
H4 C2 1_555 1_555
C3 C2 1_555 1_555
H5 C3 1_555 1_555
H6 C3 1_555 1_555
C4 C3 1_555 1_555
H7 C4 1_555 1_555
H8 C4 1_555 1_555
C5 C4 1_555 1_555
H9 C5 1_555 1_555
H10 C5 1_555 1_555
C6 C5 1_555 1_555
H11 C6 1_555 1_555
C7 C6 1_555 1_555
C8 C9 1_555 1_555
C9 H12 1_555 1_555
C10 C9 1_555 1_555
H13 C10 1_555 1_555
C11 C10 1_555 1_555
H14 C11 1_555 1_555
C12 C11 1_555 1_555
H15 C12 1_555 1_555
C13 C8 1_555 1_555
N1 C1 1_555 1_555
N2 Ni1 1_555 1_555
N3 C7 1_555 1_555
H16 N3 1_555 1_555
O1 Ni1 1_555 1_555
O2 P1 1_555 1_555
O3 P1 1_555 1_555
O4 Ni1 1_555 1_555
H17 O4 1_555 1_555
H18 O4 1_555 1_555
O5 Ni1 1_555 1_555
H19 O5 1_555 1_555
H20 O5 1_555 1_555
O6 H21 1_555 1_555
H22 O6 1_555 1_555
O7 H23 1_555 1_555
H24 O7 1_555 1_555
O9 H27 1_555 1_555
H28 O9 1_555 1_555
Ni1_2 O2 1_555 1_555
O2_2 Ni1 1_555 1_555
P1 O1 1_555 1_555
C2 N1 1_555 1_555
C6 N1 1_555 1_555
C7 N2 1_555 1_555
C8 N3 1_555 1_555
C12 C13 1_555 1_555
C13 N2 1_555 1_555

#END
