
#######################################################################
#
#                 Cambridge Crystallographic Data Centre
#                                CCDC 
#
#######################################################################
#
# If this CIF has been generated from an entry in the Cambridge 
# Structural Database, then it will include bibliographic, chemical, 
# crystal, experimental, refinement or atomic coordinate data resulting 
# from the CCDC's data processing and validation procedures.
#
#######################################################################

data_YIKJOT
_symmetry_cell_setting           cubic
_symmetry_space_group_name_H-M   'F d -3 c'
_symmetry_Int_Tables_number      228
_space_group_name_Hall           '-F 4ud 2vw 3'
loop_
_symmetry_equiv_pos_site_id
_symmetry_equiv_pos_as_xyz
1 x,y,z
2 -y,1/4+x,3/4+z
3 1/4-x,1/4-y,z
4 1/4+y,-x,3/4+z
5 1/4+x,-z,3/4+y
6 x,1/4-y,1/4-z
7 1/4+x,3/4+z,-y
8 1/4+z,3/4+y,-x
9 1/4-x,y,1/4-z
10 -z,1/4+y,3/4+x
11 z,x,y
12 y,z,x
13 1/4-y,1/4-z,x
14 z,1/4-x,1/4-y
15 1/4-y,z,1/4-x
16 1/4-z,1/4-x,y
17 1/4-z,x,1/4-y
18 y,1/4-z,1/4-x
19 1/4+y,3/4+x,-z
20 -y,-x,1/2-z
21 -x,1/4+z,3/4+y
22 -x,-z,1/2-y
23 1/4+z,-y,3/4+x
24 -z,-y,1/2-x
25 x,1/2+y,1/2+z
26 -y,3/4+x,1/4+z
27 1/4-x,3/4-y,1/2+z
28 1/4+y,1/2-x,1/4+z
29 1/4+x,1/2-z,1/4+y
30 x,3/4-y,3/4-z
31 1/4+x,1/4+z,1/2-y
32 1/4+z,1/4+y,1/2-x
33 1/4-x,1/2+y,3/4-z
34 -z,3/4+y,1/4+x
35 z,1/2+x,1/2+y
36 y,1/2+z,1/2+x
37 1/4-y,3/4-z,1/2+x
38 z,3/4-x,3/4-y
39 1/4-y,1/2+z,3/4-x
40 1/4-z,3/4-x,1/2+y
41 1/4-z,1/2+x,3/4-y
42 y,3/4-z,3/4-x
43 1/4+y,1/4+x,1/2-z
44 -y,1/2-x,-z
45 -x,3/4+z,1/4+y
46 -x,1/2-z,-y
47 1/4+z,1/2-y,1/4+x
48 -z,1/2-y,-x
49 1/2+x,y,1/2+z
50 1/2-y,1/4+x,1/4+z
51 3/4-x,1/4-y,1/2+z
52 3/4+y,-x,1/4+z
53 3/4+x,-z,1/4+y
54 1/2+x,1/4-y,3/4-z
55 3/4+x,3/4+z,1/2-y
56 3/4+z,3/4+y,1/2-x
57 3/4-x,y,3/4-z
58 1/2-z,1/4+y,1/4+x
59 1/2+z,x,1/2+y
60 1/2+y,z,1/2+x
61 3/4-y,1/4-z,1/2+x
62 1/2+z,1/4-x,3/4-y
63 3/4-y,z,3/4-x
64 3/4-z,1/4-x,1/2+y
65 3/4-z,x,3/4-y
66 1/2+y,1/4-z,3/4-x
67 3/4+y,3/4+x,1/2-z
68 1/2-y,-x,-z
69 1/2-x,1/4+z,1/4+y
70 1/2-x,-z,-y
71 3/4+z,-y,1/4+x
72 1/2-z,-y,-x
73 1/2+x,1/2+y,z
74 1/2-y,3/4+x,3/4+z
75 3/4-x,3/4-y,z
76 3/4+y,1/2-x,3/4+z
77 3/4+x,1/2-z,3/4+y
78 1/2+x,3/4-y,1/4-z
79 3/4+x,1/4+z,-y
80 3/4+z,1/4+y,-x
81 3/4-x,1/2+y,1/4-z
82 1/2-z,3/4+y,3/4+x
83 1/2+z,1/2+x,y
84 1/2+y,1/2+z,x
85 3/4-y,3/4-z,x
86 1/2+z,3/4-x,1/4-y
87 3/4-y,1/2+z,1/4-x
88 3/4-z,3/4-x,y
89 3/4-z,1/2+x,1/4-y
90 1/2+y,3/4-z,1/4-x
91 3/4+y,1/4+x,-z
92 1/2-y,1/2-x,1/2-z
93 1/2-x,3/4+z,3/4+y
94 1/2-x,1/2-z,1/2-y
95 3/4+z,1/2-y,3/4+x
96 1/2-z,1/2-y,1/2-x
97 -x,-y,-z
98 y,3/4-x,1/4-z
99 3/4+x,3/4+y,-z
100 3/4-y,x,1/4-z
101 3/4-x,z,1/4-y
102 -x,3/4+y,3/4+z
103 3/4-x,1/4-z,y
104 3/4-z,1/4-y,x
105 3/4+x,-y,3/4+z
106 z,3/4-y,1/4-x
107 -z,-x,-y
108 -y,-z,-x
109 3/4+y,3/4+z,-x
110 -z,3/4+x,3/4+y
111 3/4+y,-z,3/4+x
112 3/4+z,3/4+x,-y
113 3/4+z,-x,3/4+y
114 -y,3/4+z,3/4+x
115 3/4-y,1/4-x,z
116 y,x,1/2+z
117 x,3/4-z,1/4-y
118 x,z,1/2+y
119 3/4-z,y,1/4-x
120 z,y,1/2+x
121 -x,1/2-y,1/2-z
122 y,1/4-x,3/4-z
123 3/4+x,1/4+y,1/2-z
124 3/4-y,1/2+x,3/4-z
125 3/4-x,1/2+z,3/4-y
126 -x,1/4+y,1/4+z
127 3/4-x,3/4-z,1/2+y
128 3/4-z,3/4-y,1/2+x
129 3/4+x,1/2-y,1/4+z
130 z,1/4-y,3/4-x
131 -z,1/2-x,1/2-y
132 -y,1/2-z,1/2-x
133 3/4+y,1/4+z,1/2-x
134 -z,1/4+x,1/4+y
135 3/4+y,1/2-z,1/4+x
136 3/4+z,1/4+x,1/2-y
137 3/4+z,1/2-x,1/4+y
138 -y,1/4+z,1/4+x
139 3/4-y,3/4-x,1/2+z
140 y,1/2+x,z
141 x,1/4-z,3/4-y
142 x,1/2+z,y
143 3/4-z,1/2+y,3/4-x
144 z,1/2+y,x
145 1/2-x,-y,1/2-z
146 1/2+y,3/4-x,3/4-z
147 1/4+x,3/4+y,1/2-z
148 1/4-y,x,3/4-z
149 1/4-x,z,3/4-y
150 1/2-x,3/4+y,1/4+z
151 1/4-x,1/4-z,1/2+y
152 1/4-z,1/4-y,1/2+x
153 1/4+x,-y,1/4+z
154 1/2+z,3/4-y,3/4-x
155 1/2-z,-x,1/2-y
156 1/2-y,-z,1/2-x
157 1/4+y,3/4+z,1/2-x
158 1/2-z,3/4+x,1/4+y
159 1/4+y,-z,1/4+x
160 1/4+z,3/4+x,1/2-y
161 1/4+z,-x,1/4+y
162 1/2-y,3/4+z,1/4+x
163 1/4-y,1/4-x,1/2+z
164 1/2+y,x,z
165 1/2+x,3/4-z,3/4-y
166 1/2+x,z,y
167 1/4-z,y,3/4-x
168 1/2+z,y,x
169 1/2-x,1/2-y,-z
170 1/2+y,1/4-x,1/4-z
171 1/4+x,1/4+y,-z
172 1/4-y,1/2+x,1/4-z
173 1/4-x,1/2+z,1/4-y
174 1/2-x,1/4+y,3/4+z
175 1/4-x,3/4-z,y
176 1/4-z,3/4-y,x
177 1/4+x,1/2-y,3/4+z
178 1/2+z,1/4-y,1/4-x
179 1/2-z,1/2-x,-y
180 1/2-y,1/2-z,-x
181 1/4+y,1/4+z,-x
182 1/2-z,1/4+x,3/4+y
183 1/4+y,1/2-z,3/4+x
184 1/4+z,1/4+x,-y
185 1/4+z,1/2-x,3/4+y
186 1/2-y,1/4+z,3/4+x
187 1/4-y,3/4-x,z
188 1/2+y,1/2+x,1/2+z
189 1/2+x,1/4-z,1/4-y
190 1/2+x,1/2+z,1/2+y
191 1/4-z,1/2+y,1/4-x
192 1/2+z,1/2+y,1/2+x
_cell_length_a                   49.869(2)
_cell_length_b                   49.869(2)
_cell_length_c                   49.869(2)
_cell_angle_alpha                90
_cell_angle_beta                 90
_cell_angle_gamma                90
_cell_volume                     124020
loop_
_atom_site_label
_atom_site_type_symbol
_atom_site_fract_x
_atom_site_fract_y
_atom_site_fract_z
Cr1 Cr 0.51961(3) 0.32260(3) 0.10968(3)
O1 O 0.5047(3) 0.3054(3) 0.1307(4)
O2 O 0.5460(2) 0.3341(4) 0.1186(3)
O3 O 0.5243(3) 0.3010(2) 0.0865(2)
O4 O 0.5000 0.35107(18) 0.10107(18)
Cr1T Cr 0.48039(3) 0.35968(3) 0.07260(3)
O1T O 0.4953(3) 0.3807(4) 0.0554(3)
O2T O 0.4540(2) 0.3686(3) 0.0841(4)
O3T O 0.4757(3) 0.3365(2) 0.0510(2)
Ag1 Ag 0.599022(9) 0.307975(8) 0.023934(8)
Ag2 Ag 0.625951(9) 0.278389(10) 0.087350(9)
N1 N 0.64545(10) 0.31597(10) 0.07123(11)
N2 N 0.63754(12) 0.32688(11) 0.04684(12)
N3 N 0.61857(15) 0.25137(10) 0.04930(11)
N4 N 0.60837(14) 0.26339(10) 0.02607(10)
N5 N 0.63700(12) 0.16381(11) -0.01722(15)
N6 N 0.60922(10) 0.16168(9) -0.01672(11)
N7 N 0.70994(10) 0.40629(10) 0.07525(12)
N8 N 0.72860(10) 0.38901(12) 0.06370(13)
N9 N 0.61780(13) 0.22252(9) 0.01637(11)
N10 N 0.61955(12) 0.19883(9) 0.00268(11)
N11 N 0.67036(10) 0.34995(10) 0.06289(10)
N12 N 0.69020(10) 0.36901(10) 0.06577(11)
C1 C 0.60887(18) 0.24616(12) 0.00707(13)
H1 H 0.6037 0.2496 -0.0109
C2 C 0.62331(18) 0.22624(12) 0.04263(14)
H2 H 0.6297 0.2128 0.0545
C3 C 0.65288(14) 0.34729(13) 0.04286(14)
H3 H 0.6519 0.3588 0.0277
C4 C 0.66494(13) 0.33005(13) 0.08027(14)
H4 H 0.6741 0.3269 0.0967
C5 C 0.64196(16) 0.18663(14) -0.0059(2)
H5 H 0.6595 0.1939 -0.0039
C6 C 0.59993(14) 0.18297(11) -0.00504(14)
H6 H 0.5814 0.1866 -0.0024
C7 C 0.71551(14) 0.36653(16) 0.05866(19)
H7 H 0.7232 0.3509 0.0510
C8 C 0.68692(12) 0.39427(13) 0.07619(15)
H8 H 0.6707 0.4016 0.0829
Ag1HD Ag 0.773934(8) 0.400978(9) 0.057975(8)
Ag1WD Ag 0.726066(8) 0.442025(8) 0.099022(9)
Ag2GC Ag 0.587350(9) 0.124049(9) -0.028389(10)
Ag2JC Ag 0.662650(9) 0.125951(9) -0.028389(10)
N5MB N 0.66381(11) 0.26722(15) 0.11300(12)
N6HB N 0.58832(9) 0.26672(11) 0.10922(10)
N7WE N 0.57525(12) 0.34371(10) 0.04006(10)
N8GE N 0.61099(12) 0.31370(13) -0.02140(10)
loop_
_geom_bond_atom_site_label_1
_geom_bond_atom_site_label_2
_geom_bond_site_symmetry_1
_geom_bond_site_symmetry_2
Ag1 N2 1_555 1_555
Ag2 N1 1_555 1_555
N1 N2 1_555 1_555
N2 C3 1_555 1_555
N3 Ag2 1_555 1_555
N4 Ag1 1_555 1_555
N5 N6 1_555 1_555
N6 C6 1_555 1_555
N7 N8 1_555 1_555
N8 C7 1_555 1_555
N9 N10 1_555 1_555
N10 C5 1_555 1_555
N11 N12 1_555 1_555
N12 C7 1_555 1_555
C1 N4 1_555 1_555
H1 C1 1_555 1_555
C2 N3 1_555 1_555
H2 C2 1_555 1_555
C3 N11 1_555 1_555
H3 C3 1_555 1_555
C4 N1 1_555 1_555
H4 C4 1_555 1_555
C5 N5 1_555 1_555
H5 C5 1_555 1_555
C6 N10 1_555 1_555
H6 C6 1_555 1_555
C7 H7 1_555 1_555
C8 N7 1_555 1_555
H8 C8 1_555 1_555
Cr1 O1 1_555 1_555
O2 Cr1 1_555 1_555
O3 Cr1 1_555 1_555
O4 Cr1 1_555 1_555
Ag1HD N8 1_555 1_555
Ag1WD N7 1_555 1_555
Ag2GC N6 1_555 1_555
Ag2JC N5 1_555 1_555
N5MB Ag2 1_555 1_555
N6HB Ag2 1_555 1_555
N7WE Ag1 1_555 1_555
N8GE Ag1 1_555 1_555
Cr1T O4 1_555 1_555
O1T Cr1T 1_555 1_555
O2T Cr1T 1_555 1_555
O3T Cr1T 1_555 1_555
N3 N4 1_555 1_555
N9 C1 1_555 1_555
N9 C2 1_555 1_555
N11 C4 1_555 1_555
N12 C8 1_555 1_555

#END
