
#######################################################################
#
#                 Cambridge Crystallographic Data Centre
#                                CCDC 
#
#######################################################################
#
# If this CIF has been generated from an entry in the Cambridge 
# Structural Database, then it will include bibliographic, chemical, 
# crystal, experimental, refinement or atomic coordinate data resulting 
# from the CCDC's data processing and validation procedures.
#
#######################################################################

data_YIKMAG
_symmetry_cell_setting           monoclinic
_symmetry_space_group_name_H-M   'P 21/c'
_symmetry_Int_Tables_number      14
_space_group_name_Hall           '-P 2ybc'
loop_
_symmetry_equiv_pos_site_id
_symmetry_equiv_pos_as_xyz
1 x,y,z
2 -x,1/2+y,1/2-z
3 -x,-y,-z
4 x,1/2-y,1/2+z
_cell_length_a                   8.126(1)
_cell_length_b                   9.237(1)
_cell_length_c                   8.587(2)
_cell_angle_alpha                90
_cell_angle_beta                 106.26(3)
_cell_angle_gamma                90
_cell_volume                     618.758
loop_
_atom_site_label
_atom_site_type_symbol
_atom_site_fract_x
_atom_site_fract_y
_atom_site_fract_z
Zn1 Zn -0.42520(8) -0.12182(7) 0.11942(8)
Zn2 Zn 0.50000 0.00000 0.50000
P1 P 0.3657(2) -0.2896(1) 0.2596(2)
O1 O 0.4145(5) -0.4007(4) 0.3974(4)
O2 O 0.4792(5) -0.1526(4) 0.3022(4)
O3 O 0.3822(5) -0.3508(4) 0.1025(4)
O4 O -0.1975(5) -0.1869(4) 0.1472(6)
O5 O -0.2627(5) -0.4182(5) 0.1190(6)
C1 C 0.1509(6) -0.2352(6) 0.2338(6)
C2 C 0.0250(7) -0.3597(7) 0.1831(8)
C3 C -0.1611(7) -0.3201(6) 0.1463(7)
H1 H 0.153(9) -0.149(8) 0.161(9)
H2 H 0.155(9) -0.202(8) 0.339(9)
H3 H 0.047(9) -0.412(8) 0.095(9)
H4 H 0.036(9) -0.423(8) 0.26(1)
P1B P 0.6343(2) 0.2896(1) 0.7404(2)
O1B O 0.5855(5) 0.4007(4) 0.6026(4)
O2B O 0.5208(5) 0.1526(4) 0.6978(4)
O3B O 0.6178(5) 0.3508(4) 0.8975(4)
O4B O 1.1975(5) 0.1869(4) 0.8528(6)
O5B O 1.2627(5) 0.4182(5) 0.8810(6)
C1B C 0.8491(6) 0.2352(6) 0.7662(6)
C2B C 0.9750(7) 0.3597(7) 0.8169(8)
C3B C 1.1611(7) 0.3201(6) 0.8537(7)
H1B H 0.847(9) 0.149(8) 0.839(9)
H2B H 0.845(9) 0.202(8) 0.661(9)
H3B H 0.953(9) 0.412(8) 0.905(9)
H4B H 0.964(9) 0.423(8) 0.74(1)
Zn1C Zn 0.57480(8) 0.62182(7) 0.61942(8)
O3A O 0.6178(5) 0.1492(4) 0.3975(4)
O3C O 0.3822(5) -0.1492(4) 0.6025(4)
O5A O 0.2627(5) 0.0818(5) 0.3810(6)
O5C O 0.7373(5) -0.0818(5) 0.6190(6)
Zn1C_2 Zn 0.57480(8) -0.37818(7) 0.61942(8)
Zn1_2 Zn 0.57480(8) -0.12182(7) 0.11942(8)
Zn2A Zn 0.50000 -0.50000 0.00000
Zn1A Zn 0.42520(8) -0.62182(7) 0.38058(8)
Zn2A_2 Zn -0.50000 -0.50000 0.00000
Zn1A_2 Zn 0.42520(8) 0.37818(7) 0.38058(8)
Zn1B Zn 0.42520(8) 0.12182(7) 0.88058(8)
Zn2A_3 Zn 0.50000 0.50000 1.00000
Zn1B_2 Zn 1.42520(8) 0.12182(7) 0.88058(8)
Zn2A_4 Zn 1.50000 0.50000 1.00000
O1A O -0.4145(5) 0.0993(4) 0.1026(4)
O1C O -0.5855(5) -0.0993(4) -0.1026(4)
O2_2 O -0.5208(5) -0.1526(4) 0.3022(4)
O1A_2 O 1.5855(5) 0.0993(4) 1.1026(4)
O1C_2 O 1.4145(5) -0.0993(4) 0.8974(4)
O2B_2 O 1.5208(5) 0.1526(4) 0.6978(4)
loop_
_geom_bond_atom_site_label_1
_geom_bond_atom_site_label_2
_geom_bond_site_symmetry_1
_geom_bond_site_symmetry_2
Zn1 O4 1_555 1_555
Zn2 O2 1_555 1_555
P1 O1 1_555 1_555
O1 Zn1C_2 1_555 1_555
O2 P1 1_555 1_555
O3 P1 1_555 1_555
O4 C3 1_555 1_555
O5 C3 1_555 1_555
C1 P1 1_555 1_555
C2 C1 1_555 1_555
C3 C2 1_555 1_555
H1 C1 1_555 1_555
H2 C1 1_555 1_555
H3 C2 1_555 1_555
H4 C2 1_555 1_555
P1B O1B 1_555 1_555
O1B Zn1C 1_555 1_555
O2B Zn2 1_555 1_555
O3B P1B 1_555 1_555
O4B C3B 1_555 1_555
O5B C3B 1_555 1_555
C1B P1B 1_555 1_555
C2B C1B 1_555 1_555
C3B C2B 1_555 1_555
H1B C1B 1_555 1_555
H2B C1B 1_555 1_555
H3B C2B 1_555 1_555
H4B C2B 1_555 1_555
O3A Zn2 1_555 1_555
O3C Zn2 1_555 1_555
O5A Zn2 1_555 1_555
O5C Zn2 1_555 1_555
Zn1_2 O2 1_555 1_555
Zn2A O3 1_555 1_555
Zn1A O1 1_555 1_555
Zn2A_2 O5 1_555 1_555
Zn1A_2 O1B 1_555 1_555
Zn1B O2B 1_555 1_555
Zn2A_3 O3B 1_555 1_555
Zn1B_2 O4B 1_555 1_555
Zn2A_4 O5B 1_555 1_555
O1A Zn1 1_555 1_555
O1C Zn1 1_555 1_555
O2_2 Zn1 1_555 1_555
O1A_2 Zn1B_2 1_555 1_555
O1C_2 Zn1B_2 1_555 1_555
O2B_2 Zn1B_2 1_555 1_555
P1B O2B 1_555 1_555

#END
