
#######################################################################
#
#                 Cambridge Crystallographic Data Centre
#                                CCDC 
#
#######################################################################
#
# If this CIF has been generated from an entry in the Cambridge 
# Structural Database, then it will include bibliographic, chemical, 
# crystal, experimental, refinement or atomic coordinate data resulting 
# from the CCDC's data processing and validation procedures.
#
#######################################################################

data_YILNIQ
_symmetry_cell_setting           monoclinic
_symmetry_space_group_name_H-M   'C c'
_symmetry_Int_Tables_number      9
_space_group_name_Hall           'C -2yc'
loop_
_symmetry_equiv_pos_site_id
_symmetry_equiv_pos_as_xyz
1 x,y,z
2 x,-y,1/2+z
3 1/2+x,1/2+y,z
4 1/2+x,1/2-y,1/2+z
_cell_length_a                   36.35(2)
_cell_length_b                   6.473(3)
_cell_length_c                   12.711(7)
_cell_angle_alpha                90
_cell_angle_beta                 90.12(2)
_cell_angle_gamma                90
_cell_volume                     2990.81
loop_
_atom_site_label
_atom_site_type_symbol
_atom_site_fract_x
_atom_site_fract_y
_atom_site_fract_z
Ag1 Ag 0.730878(10) 0.55484(5) 0.87006(2)
Ag2 Ag 0.852360(9) 0.96665(5) 0.619040(19)
O1 O 0.85679(14) 0.6085(7) 0.6174(5)
O2 O 0.87997(17) 0.6350(9) 0.7772(5)
O3 O 0.92862(14) 0.3871(8) 0.8415(4)
H1 H 0.9132 0.5066 0.8273
N1 N 0.81475(10) 1.0328(5) 0.7671(3)
N2 N 0.81535(10) 1.0399(5) 0.9601(3)
N3 N 0.76593(9) 0.8559(5) 0.8670(3)
N4 N 0.76880(10) 1.2374(6) 0.8632(3)
N5 N 0.67562(15) 0.4011(9) 0.8446(5)
C1 C 0.92448(13) 0.2903(9) 0.7479(4)
C2 C 0.89983(13) 0.3565(7) 0.6721(4)
C3 C 0.89654(13) 0.2454(9) 0.5751(4)
H3 H 0.8806 0.2970 0.5209
C4 C 0.91591(14) 0.0678(8) 0.5588(4)
H4 H 0.9120 -0.0100 0.4954
C5 C 0.96321(19) -0.1853(10) 0.6209(5)
H5 H 0.9588 -0.2718 0.5609
C6 C 0.9899(2) -0.2382(13) 0.6934(7)
H6 H 1.0047 -0.3588 0.6821
C7 C 0.9962(2) -0.1187(13) 0.7814(6)
H7 H 1.0162 -0.1514 0.8279
C8 C 0.97396(18) 0.0484(10) 0.8029(5)
H8 H 0.9768 0.1227 0.8678
C9 C 0.94653(13) 0.1115(8) 0.7307(4)
C10 C 0.94162(13) -0.0049(8) 0.6362(4)
C11 C 0.87707(16) 0.5475(9) 0.6901(6)
C12 C 0.78979(12) 0.8534(6) 0.7714(3)
H9 H 0.8042 0.7291 0.7713
H10 H 0.7746 0.8524 0.7095
C13 C 0.79255(13) 1.2245(7) 0.7678(3)
H11 H 0.7774 1.2290 0.7060
H12 H 0.8087 1.3420 0.7661
C14 C 0.79053(12) 0.8599(7) 0.9610(3)
H13 H 0.7759 0.8626 1.0238
H14 H 0.8050 0.7360 0.9622
C15 C 0.79307(12) 1.2306(7) 0.9573(3)
H15 H 0.8091 1.3484 0.9566
H16 H 0.7783 1.2382 1.0196
C16 C 0.83841(12) 1.0330(7) 0.8636(3)
H17 H 0.8544 1.1510 0.8621
H18 H 0.8534 0.9111 0.8646
C17 C 0.74469(12) 1.0530(6) 0.8651(3)
H19 H 0.7293 1.0595 0.9262
H20 H 0.7290 1.0547 0.8042
C18 C 0.64736(16) 0.3401(9) 0.8237(5)
C19 C 0.61053(18) 0.2668(12) 0.7964(6)
H21 H 0.5928 0.2459 0.8525
H22 H 0.6001 0.3467 0.7396
H23 H 0.6136 0.1223 0.8101
O7 O 0.73299(14) 0.5349(7) 1.0765(4)
H30 H 0.7275 0.6407 1.1160
H31 H 0.7258 0.3996 1.1172
N4_2 N 0.76880(10) 0.2374(6) 0.8632(3)
N2A N 0.81535(10) 0.9601(5) 0.4601(3)
C3_2 C 0.89654(13) 1.2454(9) 0.5751(4)
C4_2 C 0.91591(14) 1.0678(8) 0.5588(4)
Ag2A Ag 0.852360(9) 1.03335(5) 1.119040(19)
Ag1_2 Ag 0.730878(10) 1.55484(5) 0.87006(2)
Ag2_2 Ag 0.852360(9) -0.03335(5) 0.619040(19)
H3_2 H 0.8806 1.2970 0.5209
H4_2 H 0.9120 0.9900 0.4954
O4 O 0.71622(11) 0.9420(7) 1.1103(3)
O5 O 0.69374(12) 1.2260(7) 1.1852(4)
O6 O 0.62659(13) 1.3092(8) 1.1726(4)
H2 H 0.6520 1.2675 1.1878
C20 C 0.62295(15) 1.1422(9) 1.1092(4)
C21 C 0.65261(14) 1.0161(8) 1.0862(4)
C22 C 0.64678(18) 0.8440(11) 1.0196(6)
H24 H 0.6672 0.7556 1.0032
C23 C 0.6130(2) 0.8004(13) 0.9782(7)
H25 H 0.6101 0.6850 0.9315
C24 C 0.54717(19) 0.8959(13) 0.9533(7)
H26 H 0.5436 0.7799 0.9073
C25 C 0.5188(2) 1.0250(14) 0.9728(7)
H27 H 0.4955 0.9999 0.9392
C26 C 0.52343(18) 1.1948(15) 1.0396(7)
H28 H 0.5029 1.2838 1.0532
C27 C 0.55674(19) 1.2325(14) 1.0851(6)
H29 H 0.5597 1.3494 1.1308
C28 C 0.58721(16) 1.1028(10) 1.0668(4)
C29 C 0.58231(18) 0.9290(10) 1.0003(6)
C30 C 0.69035(14) 1.0604(8) 1.1298(4)
loop_
_geom_bond_atom_site_label_1
_geom_bond_atom_site_label_2
_geom_bond_site_symmetry_1
_geom_bond_site_symmetry_2
Ag1 N3 1_555 1_555
Ag2 O1 1_555 1_555
O1 C11 1_555 1_555
O2 C11 1_555 1_555
O3 H1 1_555 1_555
O4 C30 1_555 1_555
O5 C30 1_555 1_555
O6 H2 1_555 1_555
N1 Ag2 1_555 1_555
N2 C14 1_555 1_555
N3 C12 1_555 1_555
N4 C13 1_555 1_555
N5 Ag1 1_555 1_555
C1 O3 1_555 1_555
C2 C1 1_555 1_555
C3 C2 1_555 1_555
H3 C3 1_555 1_555
C4 C3 1_555 1_555
H4 C4 1_555 1_555
C5 H5 1_555 1_555
C6 C5 1_555 1_555
H6 C6 1_555 1_555
C7 C6 1_555 1_555
H7 C7 1_555 1_555
C8 C7 1_555 1_555
H8 C8 1_555 1_555
C9 C1 1_555 1_555
C10 C4 1_555 1_555
C11 C2 1_555 1_555
C12 N1 1_555 1_555
H9 C12 1_555 1_555
H10 C12 1_555 1_555
C13 N1 1_555 1_555
H11 C13 1_555 1_555
H12 C13 1_555 1_555
C14 N3 1_555 1_555
H13 C14 1_555 1_555
H14 C14 1_555 1_555
C15 N2 1_555 1_555
H15 C15 1_555 1_555
H16 C15 1_555 1_555
C16 N1 1_555 1_555
H17 C16 1_555 1_555
H18 C16 1_555 1_555
C17 N3 1_555 1_555
H19 C17 1_555 1_555
H20 C17 1_555 1_555
C18 N5 1_555 1_555
C19 C18 1_555 1_555
H21 C19 1_555 1_555
H22 C19 1_555 1_555
H23 C19 1_555 1_555
C20 O6 1_555 1_555
C21 C20 1_555 1_555
C22 C21 1_555 1_555
H24 C22 1_555 1_555
C23 C22 1_555 1_555
H25 C23 1_555 1_555
C24 H26 1_555 1_555
C25 C24 1_555 1_555
H27 C25 1_555 1_555
C26 C25 1_555 1_555
H28 C26 1_555 1_555
C27 C26 1_555 1_555
H29 C27 1_555 1_555
C28 C20 1_555 1_555
C29 C23 1_555 1_555
C30 C21 1_555 1_555
O7 Ag1 1_555 1_555
H30 O7 1_555 1_555
H31 O7 1_555 1_555
N4_2 Ag1 1_555 1_555
N2A Ag2 1_555 1_555
C3_2 Ag2 1_555 1_555
C4_2 Ag2 1_555 1_555
Ag2A N2 1_555 1_555
Ag1_2 N4 1_555 1_555
Ag2_2 C3 1_555 1_555
H3_2 C3_2 1_555 1_555
H4_2 C4_2 1_555 1_555
N2 C16 1_555 1_555
N4 C15 1_555 1_555
N4 C17 1_555 1_555
C4 Ag2_2 1_555 1_555
C5 C10 1_555 1_555
C8 C9 1_555 1_555
C9 C10 1_555 1_555
C24 C29 1_555 1_555
C27 C28 1_555 1_555
C28 C29 1_555 1_555
C3_2 C4_2 1_555 1_555

#END
