
#######################################################################
#
#                 Cambridge Crystallographic Data Centre
#                                CCDC 
#
#######################################################################
#
# If this CIF has been generated from an entry in the Cambridge 
# Structural Database, then it will include bibliographic, chemical, 
# crystal, experimental, refinement or atomic coordinate data resulting 
# from the CCDC's data processing and validation procedures.
#
#######################################################################

data_YILVIZ
_symmetry_cell_setting           orthorhombic
_symmetry_space_group_name_H-M   'P b c a'
_symmetry_Int_Tables_number      61
_space_group_name_Hall           '-P 2ac 2ab'
loop_
_symmetry_equiv_pos_site_id
_symmetry_equiv_pos_as_xyz
1 x,y,z
2 1/2-x,-y,1/2+z
3 -x,1/2+y,1/2-z
4 1/2+x,1/2-y,-z
5 -x,-y,-z
6 1/2+x,y,1/2-z
7 x,1/2-y,1/2+z
8 1/2-x,1/2+y,z
_cell_length_a                   10.3325(18)
_cell_length_b                   13.384(2)
_cell_length_c                   23.639(4)
_cell_angle_alpha                90
_cell_angle_beta                 90
_cell_angle_gamma                90
_cell_volume                     3269.04
loop_
_atom_site_label
_atom_site_type_symbol
_atom_site_fract_x
_atom_site_fract_y
_atom_site_fract_z
Co1 Co 0.09094(6) 0.81649(4) 0.07643(3)
Cl1 Cl -0.11904(11) 0.87479(9) 0.04194(5)
N1 N -0.1351(3) 0.1821(3) 0.17904(15)
H1 H -0.1555 0.1214 0.1869
N2 N 0.0211(4) 0.6730(3) 0.10516(15)
O1 O 0.2207(3) 0.2911(2) 0.11080(13)
O2 O 0.0887(3) 0.3534(3) 0.04476(13)
O3 O -0.1937(3) 0.4665(2) 0.26562(13)
O4 O -0.3333(3) 0.4805(2) 0.19475(13)
O5 O 0.1775(3) 0.9461(2) 0.04479(14)
H2 H 0.1446 0.9787 0.0181
H3 H 0.2565 0.9372 0.0369
O6 O 0.0455(3) 0.8681(2) 0.15698(13)
H4 H 0.0910 0.8928 0.1828
H5 H -0.0273 0.8966 0.1580
O7 O 0.1318(3) 0.7438(3) -0.00061(14)
H6 H 0.1979 0.7089 -0.0070
H7 H 0.0682 0.7117 -0.0142
C1 C -0.0351(4) 0.1972(3) 0.14310(19)
C2 C -0.0020(4) 0.2945(3) 0.12999(18)
C3 C -0.0748(4) 0.3731(3) 0.15249(18)
C4 C -0.1744(4) 0.3537(3) 0.19048(18)
C5 C -0.2052(4) 0.2556(3) 0.20347(18)
C6 C 0.0967(5) 0.6188(3) 0.1386(2)
H8 H 0.1728 0.6479 0.1517
C7 C 0.0697(5) 0.5221(4) 0.1553(2)
H9 H 0.1263 0.4872 0.1786
C8 C -0.0425(4) 0.4790(3) 0.13654(18)
C9 C -0.1240(5) 0.5352(3) 0.1030(2)
H10 H -0.2022 0.5087 0.0905
C10 C -0.0888(5) 0.6304(3) 0.0881(2)
H11 H -0.1441 0.6669 0.0650
C11 C 0.0296(5) 0.1076(3) 0.1192(2)
H12 H -0.0098 0.0484 0.1344
H13 H 0.0207 0.1078 0.0788
H14 H 0.1198 0.1086 0.1290
C12 C 0.1121(4) 0.3144(3) 0.09129(18)
C13 C -0.2403(4) 0.4403(3) 0.22020(18)
C14 C -0.3131(5) 0.2261(4) 0.2417(2)
H15 H -0.3161 0.1546 0.2447
H16 H -0.2993 0.2545 0.2785
H17 H -0.3935 0.2501 0.2266
Co1G Co 0.40906(6) 0.31649(4) 0.07643(3)
O1G O 0.2793(3) 0.7911(2) 0.11080(13)
loop_
_geom_bond_atom_site_label_1
_geom_bond_atom_site_label_2
_geom_bond_site_symmetry_1
_geom_bond_site_symmetry_2
Co1 Cl1 1_555 1_555
N1 H1 1_555 1_555
N2 Co1 1_555 1_555
O1 C12 1_555 1_555
O2 C12 1_555 1_555
O3 C13 1_555 1_555
O4 C13 1_555 1_555
O5 Co1 1_555 1_555
H2 O5 1_555 1_555
H3 O5 1_555 1_555
O6 Co1 1_555 1_555
H4 O6 1_555 1_555
H5 O6 1_555 1_555
O7 Co1 1_555 1_555
H6 O7 1_555 1_555
H7 O7 1_555 1_555
C1 N1 1_555 1_555
C2 C1 1_555 1_555
C3 C2 1_555 1_555
C4 C3 1_555 1_555
C5 N1 1_555 1_555
C6 N2 1_555 1_555
H8 C6 1_555 1_555
C7 C6 1_555 1_555
H9 C7 1_555 1_555
C8 C3 1_555 1_555
C9 C8 1_555 1_555
H10 C9 1_555 1_555
C10 N2 1_555 1_555
H11 C10 1_555 1_555
C11 C1 1_555 1_555
H12 C11 1_555 1_555
H13 C11 1_555 1_555
H14 C11 1_555 1_555
C12 C2 1_555 1_555
C13 C4 1_555 1_555
C14 C5 1_555 1_555
H15 C14 1_555 1_555
H16 C14 1_555 1_555
H17 C14 1_555 1_555
Co1G O1 1_555 1_555
O1G Co1 1_555 1_555
C4 C5 1_555 1_555
C7 C8 1_555 1_555
C9 C10 1_555 1_555

#END
