
#######################################################################
#
#                 Cambridge Crystallographic Data Centre
#                                CCDC 
#
#######################################################################
#
# If this CIF has been generated from an entry in the Cambridge 
# Structural Database, then it will include bibliographic, chemical, 
# crystal, experimental, refinement or atomic coordinate data resulting 
# from the CCDC's data processing and validation procedures.
#
#######################################################################

data_YIMGUY
_symmetry_cell_setting           orthorhombic
_symmetry_space_group_name_H-M   'P 21 21 21'
_symmetry_Int_Tables_number      19
_space_group_name_Hall           'P 2ac 2ab'
loop_
_symmetry_equiv_pos_site_id
_symmetry_equiv_pos_as_xyz
1 x,y,z
2 1/2-x,-y,1/2+z
3 -x,1/2+y,1/2-z
4 1/2+x,1/2-y,-z
_cell_length_a                   5.4779(10)
_cell_length_b                   8.4289(16)
_cell_length_c                   19.910(4)
_cell_angle_alpha                90
_cell_angle_beta                 90
_cell_angle_gamma                90
_cell_volume                     919.298
loop_
_atom_site_label
_atom_site_type_symbol
_atom_site_fract_x
_atom_site_fract_y
_atom_site_fract_z
Np1 Np 0.02428(6) 0.26296(4) 0.373591(16)
O1 O -0.2412(14) 0.1512(9) 0.3873(4)
O2 O 0.2965(14) 0.3681(9) 0.3577(4)
O3 O 0.0672(15) 0.1289(9) 0.2669(3)
O4 O 0.1847(16) 0.1832(9) 0.4796(4)
O5 O 0.1837(15) -0.0745(9) 0.2022(4)
O6 O 0.4174(15) 0.0315(8) 0.5471(3)
N1 N 0.2539(15) 0.0030(9) 0.3751(5)
C1 C 0.283(2) -0.0807(12) 0.3188(5)
C2 C 0.410(2) -0.2217(12) 0.3176(5)
H1 H 0.4321 -0.2768 0.2765
C3 C 0.5045(11) -0.2822(7) 0.3758(4)
H2 H 0.5803 -0.3836 0.3765
C4 C 0.486(2) -0.1898(12) 0.4350(5)
H3 H 0.5634 -0.2232 0.4754
C5 C 0.355(2) -0.0503(12) 0.4329(5)
C6 C 0.169(2) -0.0032(12) 0.2584(5)
C7 C 0.316(2) 0.0617(13) 0.4909(5)
Np1B Np -0.02428(6) -0.23704(4) 0.126409(16)
Np1C Np 0.52428(6) 0.23704(4) 0.626409(16)
O5B O -0.1837(15) 0.4255(9) 0.2978(4)
O6C O -0.0826(15) 0.4685(8) 0.4529(3)
loop_
_geom_bond_atom_site_label_1
_geom_bond_atom_site_label_2
_geom_bond_site_symmetry_1
_geom_bond_site_symmetry_2
Np1 O1 1_555 1_555
O2 Np1 1_555 1_555
O3 Np1 1_555 1_555
O4 Np1 1_555 1_555
O5 C6 1_555 1_555
O6 C7 1_555 1_555
N1 Np1 1_555 1_555
C1 N1 1_555 1_555
C2 C1 1_555 1_555
H1 C2 1_555 1_555
C3 C2 1_555 1_555
H2 C3 1_555 1_555
C4 C3 1_555 1_555
H3 C4 1_555 1_555
C5 N1 1_555 1_555
C6 O3 1_555 1_555
C7 O4 1_555 1_555
Np1B O5 1_555 1_555
Np1C O6 1_555 1_555
O5B Np1 1_555 1_555
O6C Np1 1_555 1_555
C1 C6 1_555 1_555
C4 C5 1_555 1_555
C5 C7 1_555 1_555

#END
