
#######################################################################
#
#                 Cambridge Crystallographic Data Centre
#                                CCDC 
#
#######################################################################
#
# If this CIF has been generated from an entry in the Cambridge 
# Structural Database, then it will include bibliographic, chemical, 
# crystal, experimental, refinement or atomic coordinate data resulting 
# from the CCDC's data processing and validation procedures.
#
#######################################################################

data_YIMKEM
_symmetry_cell_setting           monoclinic
_symmetry_space_group_name_H-M   'P 21/n'
_symmetry_Int_Tables_number      14
_space_group_name_Hall           '-P 2yn'
loop_
_symmetry_equiv_pos_site_id
_symmetry_equiv_pos_as_xyz
1 x,y,z
2 1/2-x,1/2+y,1/2-z
3 -x,-y,-z
4 1/2+x,1/2-y,1/2+z
_cell_length_a                   9.7536(12)
_cell_length_b                   11.3569(17)
_cell_length_c                   15.934(3)
_cell_angle_alpha                90
_cell_angle_beta                 107.790(11)
_cell_angle_gamma                90
_cell_volume                     1680.62
loop_
_atom_site_label
_atom_site_type_symbol
_atom_site_fract_x
_atom_site_fract_y
_atom_site_fract_z
Zn1 Zn 0.82586(3) 0.06257(3) 0.08397(2)
O1 O 1.2308(2) 0.2862(2) 0.00115(18)
O2 O 0.6640(2) 0.1215(2) 0.12729(14)
O3 O 0.8578(2) 0.2059(2) 0.21506(16)
O4 O 0.4579(2) 0.55751(19) 0.39450(15)
O5 O 0.2523(2) 0.4710(2) 0.32530(13)
O6 O 0.7167(2) -0.0464(2) -0.01607(15)
N1 N 0.8154(2) 0.2056(2) -0.00401(15)
N2 N 1.0537(2) 0.4096(2) -0.07440(16)
H1 H 1.0381 0.4753 -0.1025
N3 N 0.6079(2) 0.4206(2) 0.32193(15)
C1 C 0.6882(3) 0.2354(3) -0.0620(2)
H2 H 0.6055 0.1965 -0.0596
C2 C 0.6759(3) 0.3209(3) -0.1244(2)
H3 H 0.5865 0.3399 -0.1636
C3 C 0.7980(3) 0.3782(3) -0.1281(2)
H4 H 0.7917 0.4364 -0.1702
C4 C 0.9314(3) 0.3490(2) -0.06884(18)
C5 C 0.9347(3) 0.2616(3) -0.00735(18)
H5 H 1.0227 0.2411 0.0329
C6 C 1.1931(3) 0.3769(3) -0.0409(2)
C7 C 1.3004(3) 0.4602(3) -0.0602(2)
H6 H 1.2636 0.5400 -0.0631
H7 H 1.3101 0.4412 -0.1175
C8 C 1.4478(3) 0.4550(3) 0.0084(2)
H8 H 1.4875 0.3767 0.0085
H9 H 1.4374 0.4690 0.0662
C9 C 0.7250(3) 0.1924(3) 0.18806(19)
C10 C 0.6300(3) 0.2646(3) 0.22640(18)
C11 C 0.4827(3) 0.2478(3) 0.20077(19)
H10 H 0.4403 0.1896 0.1600
C12 C 0.3987(3) 0.3183(3) 0.23620(19)
H11 H 0.2993 0.3085 0.2194
C13 C 0.4648(3) 0.4030(3) 0.29663(17)
C14 C 0.6879(3) 0.3524(3) 0.28718(19)
H12 H 0.7870 0.3644 0.3045
C15 C 0.3842(3) 0.4836(3) 0.34136(18)
H13 H 0.728(4) -0.029(3) -0.060(2)
H14 H 0.734(5) -0.124(4) -0.007(3)
O1B O 1.7692(2) 0.7138(2) -0.00115(18)
N1B N 2.1846(2) 0.7944(2) 0.00401(15)
N2B N 1.9463(2) 0.5904(2) 0.07440(16)
H1B H 1.9619 0.5247 0.1025
C1B C 2.3118(3) 0.7646(3) 0.0620(2)
H2B H 2.3945 0.8035 0.0596
C2B C 2.3241(3) 0.6791(3) 0.1244(2)
H3B H 2.4135 0.6601 0.1636
C3B C 2.2020(3) 0.6218(3) 0.1281(2)
H4B H 2.2083 0.5636 0.1702
C4B C 2.0686(3) 0.6510(2) 0.06884(18)
C5B C 2.0653(3) 0.7384(3) 0.00735(18)
H5B H 1.9773 0.7589 -0.0329
C6B C 1.8069(3) 0.6231(3) 0.0409(2)
C7B C 1.6996(3) 0.5398(3) 0.0602(2)
H6B H 1.7364 0.4600 0.0631
H7B H 1.6899 0.5588 0.1175
C8B C 1.5522(3) 0.5450(3) -0.0084(2)
H8B H 1.5125 0.6233 -0.0085
H9B H 1.5626 0.5310 -0.0662
Zn1B Zn 2.17414(3) 0.93743(3) -0.08397(2)
O2B O 2.3360(2) 0.8785(2) -0.12729(14)
O3B O 2.1422(2) 0.7941(2) -0.21506(16)
O4B O 2.5421(2) 0.44249(19) -0.39450(15)
O5B O 2.7477(2) 0.5290(2) -0.32530(13)
O6B O 2.2833(2) 1.0464(2) 0.01607(15)
N3B N 2.3921(2) 0.5794(2) -0.32193(15)
C9B C 2.2750(3) 0.8076(3) -0.18806(19)
C10B C 2.3700(3) 0.7354(3) -0.22640(18)
C11B C 2.5173(3) 0.7522(3) -0.20077(19)
H10B H 2.5597 0.8104 -0.1600
C12B C 2.6013(3) 0.6817(3) -0.23620(19)
H11B H 2.7007 0.6915 -0.2194
C13B C 2.5352(3) 0.5970(3) -0.29663(17)
C14B C 2.3121(3) 0.6476(3) -0.28718(19)
H12B H 2.2130 0.6356 -0.3045
C15B C 2.6158(3) 0.5164(3) -0.34136(18)
H13B H 2.272(4) 1.029(3) 0.060(2)
H14B H 2.266(5) 1.124(4) 0.007(3)
Zn1A Zn 0.67414(3) 0.56257(3) 0.41603(2)
Zn1C Zn 2.32586(3) 0.43743(3) -0.41603(2)
O4A O 1.0421(2) 0.05751(19) 0.10550(15)
O4C O 1.9579(2) 0.94249(19) -0.10550(15)
N3A N 0.8921(2) -0.0794(2) 0.17807(15)
N3C N 2.1079(2) 1.0794(2) -0.17807(15)
O7 O 1.0136(4) 0.3992(3) 0.1920(2)
H15 H 0.965(5) 0.339(4) 0.202(3)
H16 H 1.072(6) 0.417(4) 0.237(3)
loop_
_geom_bond_atom_site_label_1
_geom_bond_atom_site_label_2
_geom_bond_site_symmetry_1
_geom_bond_site_symmetry_2
Zn1 O2 1_555 1_555
O1 C6 1_555 1_555
O2 C9 1_555 1_555
O3 C9 1_555 1_555
O4 C15 1_555 1_555
O5 C15 1_555 1_555
O6 Zn1 1_555 1_555
N1 Zn1 1_555 1_555
N2 H1 1_555 1_555
N3 C13 1_555 1_555
C1 N1 1_555 1_555
H2 C1 1_555 1_555
C2 C1 1_555 1_555
H3 C2 1_555 1_555
C3 C2 1_555 1_555
H4 C3 1_555 1_555
C4 N2 1_555 1_555
C5 N1 1_555 1_555
H5 C5 1_555 1_555
C6 N2 1_555 1_555
C7 C6 1_555 1_555
H6 C7 1_555 1_555
H7 C7 1_555 1_555
C8 C7 1_555 1_555
H8 C8 1_555 1_555
H9 C8 1_555 1_555
C9 C10 1_555 1_555
C10 C11 1_555 1_555
C11 H10 1_555 1_555
C12 C11 1_555 1_555
H11 C12 1_555 1_555
C13 C12 1_555 1_555
C14 N3 1_555 1_555
H12 C14 1_555 1_555
C15 C13 1_555 1_555
H13 O6 1_555 1_555
H14 O6 1_555 1_555
O7 H15 1_555 1_555
H16 O7 1_555 1_555
O1B C6B 1_555 1_555
N1B C1B 1_555 1_555
N2B H1B 1_555 1_555
C1B H2B 1_555 1_555
C2B C1B 1_555 1_555
H3B C2B 1_555 1_555
C3B C2B 1_555 1_555
H4B C3B 1_555 1_555
C4B N2B 1_555 1_555
C5B N1B 1_555 1_555
H5B C5B 1_555 1_555
C6B N2B 1_555 1_555
C7B C6B 1_555 1_555
H6B C7B 1_555 1_555
H7B C7B 1_555 1_555
C8B C8 1_555 1_555
H8B C8B 1_555 1_555
H9B C8B 1_555 1_555
Zn1B N1B 1_555 1_555
O2B Zn1B 1_555 1_555
O3B C9B 1_555 1_555
O4B C15B 1_555 1_555
O5B C15B 1_555 1_555
O6B Zn1B 1_555 1_555
N3B C13B 1_555 1_555
C9B O2B 1_555 1_555
C10B C9B 1_555 1_555
C11B C10B 1_555 1_555
H10B C11B 1_555 1_555
C12B C11B 1_555 1_555
H11B C12B 1_555 1_555
C13B C12B 1_555 1_555
C14B N3B 1_555 1_555
H12B C14B 1_555 1_555
C15B C13B 1_555 1_555
H13B O6B 1_555 1_555
H14B O6B 1_555 1_555
Zn1A O4 1_555 1_555
Zn1C O4B 1_555 1_555
O4A Zn1 1_555 1_555
O4C Zn1B 1_555 1_555
N3A Zn1 1_555 1_555
N3C Zn1B 1_555 1_555
N3 Zn1A 1_555 1_555
C3 C4 1_555 1_555
C4 C5 1_555 1_555
C10 C14 1_555 1_555
C3B C4B 1_555 1_555
C4B C5B 1_555 1_555
C7B C8B 1_555 1_555
N3B Zn1C 1_555 1_555
C10B C14B 1_555 1_555

#END
