
#######################################################################
#
#                 Cambridge Crystallographic Data Centre
#                                CCDC 
#
#######################################################################
#
# If this CIF has been generated from an entry in the Cambridge 
# Structural Database, then it will include bibliographic, chemical, 
# crystal, experimental, refinement or atomic coordinate data resulting 
# from the CCDC's data processing and validation procedures.
#
#######################################################################

data_YIMSEU
_symmetry_cell_setting           orthorhombic
_symmetry_space_group_name_H-M   'P c c n'
_symmetry_Int_Tables_number      56
_space_group_name_Hall           '-P 2ab 2ac'
loop_
_symmetry_equiv_pos_site_id
_symmetry_equiv_pos_as_xyz
1 x,y,z
2 1/2-x,1/2-y,z
3 -x,1/2+y,1/2-z
4 1/2+x,-y,1/2-z
5 -x,-y,-z
6 1/2+x,1/2+y,-z
7 x,1/2-y,1/2+z
8 1/2-x,y,1/2+z
_cell_length_a                   8.2804(14)
_cell_length_b                   28.818(5)
_cell_length_c                   7.2304(12)
_cell_angle_alpha                90
_cell_angle_beta                 90
_cell_angle_gamma                90
_cell_volume                     1725.35
loop_
_atom_site_label
_atom_site_type_symbol
_atom_site_fract_x
_atom_site_fract_y
_atom_site_fract_z
K1 K 0.48146(6) 0.26225(2) 0.19978(7)
O1 O 0.5224(2) 0.17990(6) 0.0000(2)
N1 N 0.4660(2) 0.12636(7) 0.2234(3)
C1 C 0.5328(3) 0.13713(8) 0.0569(3)
C2 C 0.6118(3) 0.10226(9) -0.0478(3)
H1 H 0.6602 0.1097 -0.1632
C3 C 0.6179(3) 0.05770(9) 0.0183(4)
H2 H 0.6715 0.0342 -0.0507
C4 C 0.5458(3) 0.04688(9) 0.1863(4)
H3 H 0.5480 0.0160 0.2327
C5 C 0.4708(3) 0.08191(9) 0.2843(4)
C6 C 0.3889(4) 0.07304(11) 0.4673(4)
H4 H 0.4351 0.0935 0.5617
H5 H 0.4055 0.0406 0.5037
H6 H 0.2730 0.0792 0.4556
O2 O 0.6641(2) 0.29757(6) -0.0786(3)
H7 H 0.7600(17) 0.3057(10) -0.058(4)
H8 H 0.626(4) 0.3228(7) -0.115(5)
O3 O 0.2978(2) 0.30218(6) -0.0918(3)
H9 H 0.336(4) 0.3263(7) -0.140(4)
H10 H 0.208(2) 0.3110(10) -0.053(4)
K1F K 0.48146(6) 0.23775(2) -0.30022(7)
K1G K 0.01854(6) 0.26225(2) -0.30022(7)
O1F O 0.5224(2) 0.32010(6) 0.5000(2)
O2F O 0.6641(2) 0.20243(6) 0.4214(3)
O3F O 0.2978(2) 0.19782(6) 0.4082(3)
O3G O 0.2022(2) 0.30218(6) 0.4082(3)
loop_
_geom_bond_atom_site_label_1
_geom_bond_atom_site_label_2
_geom_bond_site_symmetry_1
_geom_bond_site_symmetry_2
K1 O1 1_555 1_555
O1 C1 1_555 1_555
N1 C1 1_555 1_555
C1 C2 1_555 1_555
C2 H1 1_555 1_555
C3 C2 1_555 1_555
H2 C3 1_555 1_555
C4 C3 1_555 1_555
H3 C4 1_555 1_555
C5 N1 1_555 1_555
C6 C5 1_555 1_555
H4 C6 1_555 1_555
H5 C6 1_555 1_555
H6 C6 1_555 1_555
O2 K1 1_555 1_555
H7 O2 1_555 1_555
H8 O2 1_555 1_555
O3 K1 1_555 1_555
H9 O3 1_555 1_555
H10 O3 1_555 1_555
K1F O1 1_555 1_555
K1G O3 1_555 1_555
O1F K1 1_555 1_555
O2F K1 1_555 1_555
O3F K1 1_555 1_555
O3G K1 1_555 1_555
C4 C5 1_555 1_555
O2 K1F 1_555 1_555
O3 K1F 1_555 1_555

#END
