
#######################################################################
#
#                 Cambridge Crystallographic Data Centre
#                                CCDC 
#
#######################################################################
#
# If this CIF has been generated from an entry in the Cambridge 
# Structural Database, then it will include bibliographic, chemical, 
# crystal, experimental, refinement or atomic coordinate data resulting 
# from the CCDC's data processing and validation procedures.
#
#######################################################################

data_YIMVUM
_symmetry_cell_setting           monoclinic
_symmetry_space_group_name_H-M   'P 21/n'
_symmetry_Int_Tables_number      14
_space_group_name_Hall           '-P 2yn'
loop_
_symmetry_equiv_pos_site_id
_symmetry_equiv_pos_as_xyz
1 x,y,z
2 1/2-x,1/2+y,1/2-z
3 -x,-y,-z
4 1/2+x,1/2-y,1/2+z
_cell_length_a                   11.127(2)
_cell_length_b                   12.274(2)
_cell_length_c                   12.334(2)
_cell_angle_alpha                90
_cell_angle_beta                 92.299(3)
_cell_angle_gamma                90
_cell_volume                     1683.13
loop_
_atom_site_label
_atom_site_type_symbol
_atom_site_fract_x
_atom_site_fract_y
_atom_site_fract_z
Cu1 Cu 1.04797(4) 0.27242(4) 0.90617(3)
Cu2 Cu 1.02866(4) -0.18927(4) 0.71167(3)
N1 N 0.9800(2) 0.1535(2) 0.7969(2)
N2 N 0.9743(3) -0.0248(2) 0.7215(2)
N3 N 1.0779(3) 0.0107(3) 0.8821(3)
H1 H 1.1023 0.0547 0.9326
H2 H 1.0979 -0.0569 0.8853
N4 N 0.9447(3) 0.3644(2) 0.7946(2)
N5 N 0.9044(3) -0.1746(2) 0.5817(2)
N6 N 1.2184(3) 0.2803(3) 0.8661(2)
N7 N 1.0143(3) 0.2464(2) 1.1474(3)
C1 C 1.0084(3) 0.0477(3) 0.7980(3)
C2 C 0.9034(3) 0.0115(3) 0.6390(2)
C3 C 0.8708(3) 0.1202(3) 0.6309(3)
H3 H 0.8228 0.1456 0.5728
C4 C 0.9126(3) 0.1897(3) 0.7124(3)
C5 C 0.8896(3) 0.3091(3) 0.7115(3)
C6 C 0.8191(4) 0.3604(3) 0.6335(3)
H4 H 0.7807 0.3203 0.5783
C7 C 0.8054(4) 0.4728(3) 0.6375(4)
H5 H 0.7583 0.5091 0.5850
C8 C 0.8626(4) 0.5291(3) 0.7204(3)
H6 H 0.8561 0.6045 0.7246
C9 C 0.9296(4) 0.4724(3) 0.7969(3)
H7 H 0.9667 0.5112 0.8537
C10 C 0.8658(3) -0.0730(3) 0.5585(2)
C11 C 0.7968(3) -0.0502(3) 0.4653(3)
H8 H 0.7689 0.0201 0.4518
C12 C 0.7701(4) -0.1327(3) 0.3931(3)
H9 H 0.7245 -0.1186 0.3298
C13 C 0.8108(4) -0.2353(3) 0.4148(3)
H10 H 0.7935 -0.2924 0.3671
C14 C 0.8783(4) -0.2524(3) 0.5090(3)
H11 H 0.9074 -0.3222 0.5228
C15 C 1.3154(4) 0.2874(3) 0.8380(3)
C16 C 1.0240(3) 0.2618(3) 1.0563(3)
Cu2B Cu 0.97134(4) 0.18927(4) 1.28833(3)
Cu2A Cu 1.47134(4) 0.31073(4) 0.78833(3)
N7B N 0.9857(3) -0.2464(2) 0.8526(3)
C15A C 1.1846(4) -0.2126(3) 0.6620(3)
loop_
_geom_bond_atom_site_label_1
_geom_bond_atom_site_label_2
_geom_bond_site_symmetry_1
_geom_bond_site_symmetry_2
Cu1 N1 1_555 1_555
Cu2 N2 1_555 1_555
N1 C1 1_555 1_555
N2 C1 1_555 1_555
N3 H1 1_555 1_555
H2 N3 1_555 1_555
N4 Cu1 1_555 1_555
N5 Cu2 1_555 1_555
N6 Cu1 1_555 1_555
N7 C16 1_555 1_555
C1 N3 1_555 1_555
C2 N2 1_555 1_555
C3 C2 1_555 1_555
H3 C3 1_555 1_555
C4 N1 1_555 1_555
C5 N4 1_555 1_555
C6 C5 1_555 1_555
H4 C6 1_555 1_555
C7 C6 1_555 1_555
H5 C7 1_555 1_555
C8 C7 1_555 1_555
H6 C8 1_555 1_555
C9 N4 1_555 1_555
H7 C9 1_555 1_555
C10 N5 1_555 1_555
C11 C10 1_555 1_555
H8 C11 1_555 1_555
C12 C11 1_555 1_555
H9 C12 1_555 1_555
C13 C12 1_555 1_555
H10 C13 1_555 1_555
C14 N5 1_555 1_555
H11 C14 1_555 1_555
C15 N6 1_555 1_555
C16 Cu1 1_555 1_555
Cu2B N7 1_555 1_555
Cu2A C15 1_555 1_555
N7B Cu2 1_555 1_555
C15A Cu2 1_555 1_555
C2 C10 1_555 1_555
C3 C4 1_555 1_555
C4 C5 1_555 1_555
C8 C9 1_555 1_555
C13 C14 1_555 1_555

#END
