
#######################################################################
#
#                 Cambridge Crystallographic Data Centre
#                                CCDC 
#
#######################################################################
#
# If this CIF has been generated from an entry in the Cambridge 
# Structural Database, then it will include bibliographic, chemical, 
# crystal, experimental, refinement or atomic coordinate data resulting 
# from the CCDC's data processing and validation procedures.
#
#######################################################################

data_YIMWIB
_symmetry_cell_setting           monoclinic
_symmetry_space_group_name_H-M   'P 21/c'
_symmetry_Int_Tables_number      14
_space_group_name_Hall           '-P 2ybc'
loop_
_symmetry_equiv_pos_site_id
_symmetry_equiv_pos_as_xyz
1 x,y,z
2 -x,1/2+y,1/2-z
3 -x,-y,-z
4 x,1/2-y,1/2+z
_cell_length_a                   11.743(3)
_cell_length_b                   15.539(4)
_cell_length_c                   8.085(2)
_cell_angle_alpha                90
_cell_angle_beta                 98.038(3)
_cell_angle_gamma                90
_cell_volume                     1460.81
loop_
_atom_site_label
_atom_site_type_symbol
_atom_site_fract_x
_atom_site_fract_y
_atom_site_fract_z
Cu1 Cu 1.04090(3) 0.15470(2) 0.16190(5)
N1 N 0.91178(19) 0.06317(15) 0.1675(3)
N2 N 0.7164(2) 0.01517(16) 0.1318(3)
N3 N 0.7671(2) 0.14575(16) 0.0277(4)
H1 H 0.6959 0.1550 -0.0093
H2 H 0.8182 0.1834 0.0121
N4 N 1.1340(2) 0.04713(16) 0.2627(3)
N5 N 0.4605(2) -0.16063(18) 0.1856(4)
N6 N 1.0430(2) 0.23006(17) 0.3619(3)
C1 C 0.7987(3) 0.07207(19) 0.1103(4)
C2 C 0.7506(2) -0.05657(19) 0.2160(4)
C3 C 0.8649(2) -0.07198(19) 0.2757(4)
H3 H 0.8875 -0.1222 0.3338
C4 C 0.9443(2) -0.01040(18) 0.2465(4)
C5 C 1.0697(2) -0.01932(18) 0.3008(4)
C6 C 1.1179(3) -0.0910(2) 0.3851(4)
H4 H 1.0716 -0.1367 0.4089
C7 C 1.2347(3) -0.0939(2) 0.4331(5)
H5 H 1.2685 -0.1414 0.4903
C8 C 1.3004(3) -0.0263(2) 0.3956(5)
H6 H 1.3797 -0.0269 0.4267
C9 C 1.2474(3) 0.0427(2) 0.3111(5)
H7 H 1.2927 0.0887 0.2863
C10 C 0.5462(3) -0.1061(2) 0.1723(4)
H8 H 0.5286 -0.0554 0.1131
C11 C 0.6594(2) -0.11935(19) 0.2401(4)
C12 C 0.6825(3) -0.1954(2) 0.3281(5)
H9 H 0.7573 -0.2084 0.3756
C13 C 0.5945(3) -0.2516(2) 0.3448(5)
H10 H 0.6089 -0.3024 0.4049
C14 C 0.4860(3) -0.2320(2) 0.2726(5)
H11 H 0.4270 -0.2704 0.2848
C15 C 1.0452(2) 0.27886(19) 0.4679(4)
Cu1C Cu 1.04090(3) 0.34530(2) 0.66190(5)
C15C C 1.0452(2) 0.22114(19) -0.0321(4)
loop_
_geom_bond_atom_site_label_1
_geom_bond_atom_site_label_2
_geom_bond_site_symmetry_1
_geom_bond_site_symmetry_2
Cu1 N1 1_555 1_555
N1 C1 1_555 1_555
N2 C1 1_555 1_555
N3 H1 1_555 1_555
H2 N3 1_555 1_555
N4 Cu1 1_555 1_555
N5 C10 1_555 1_555
N6 Cu1 1_555 1_555
C1 N3 1_555 1_555
C2 N2 1_555 1_555
C3 C2 1_555 1_555
H3 C3 1_555 1_555
C4 N1 1_555 1_555
C5 N4 1_555 1_555
C6 C5 1_555 1_555
H4 C6 1_555 1_555
C7 C6 1_555 1_555
H5 C7 1_555 1_555
C8 C7 1_555 1_555
H6 C8 1_555 1_555
C9 N4 1_555 1_555
H7 C9 1_555 1_555
C10 H8 1_555 1_555
C11 C2 1_555 1_555
C12 C11 1_555 1_555
H9 C12 1_555 1_555
C13 C12 1_555 1_555
H10 C13 1_555 1_555
C14 N5 1_555 1_555
H11 C14 1_555 1_555
C15 N6 1_555 1_555
Cu1C C15 1_555 1_555
C15C Cu1 1_555 1_555
C3 C4 1_555 1_555
C4 C5 1_555 1_555
C8 C9 1_555 1_555
C10 C11 1_555 1_555
C13 C14 1_555 1_555

#END
