
#######################################################################
#
#                 Cambridge Crystallographic Data Centre
#                                CCDC 
#
#######################################################################
#
# If this CIF has been generated from an entry in the Cambridge 
# Structural Database, then it will include bibliographic, chemical, 
# crystal, experimental, refinement or atomic coordinate data resulting 
# from the CCDC's data processing and validation procedures.
#
#######################################################################

data_YINDAB
_symmetry_cell_setting           monoclinic
_symmetry_space_group_name_H-M   'P 21/n'
_symmetry_Int_Tables_number      14
_space_group_name_Hall           '-P 2yn'
loop_
_symmetry_equiv_pos_site_id
_symmetry_equiv_pos_as_xyz
1 x,y,z
2 1/2-x,1/2+y,1/2-z
3 -x,-y,-z
4 1/2+x,1/2-y,1/2+z
_cell_length_a                   6.5886(3)
_cell_length_b                   6.3101(3)
_cell_length_c                   14.8922(7)
_cell_angle_alpha                90
_cell_angle_beta                 94.301(1)
_cell_angle_gamma                90
_cell_volume                     617.396
loop_
_atom_site_label
_atom_site_type_symbol
_atom_site_fract_x
_atom_site_fract_y
_atom_site_fract_z
Mn1 Mn 0.5000 0.5000 0.5000
N1 N 0.48657(18) 0.5736(2) 0.35311(7)
N2 N 0.5334(2) 0.5458(2) 0.20830(8)
N3 N 0.16570(18) 0.5686(3) 0.50079(9)
N4 N 0.0000 0.5000 0.5000
N5 N 0.43619(19) 0.15880(19) 0.46757(8)
N6 N 0.5000 0.0000 0.5000
C1 C 0.5626(2) 0.4562(3) 0.29026(11)
H1 H 0.6296 0.3246 0.3016
C2 C 0.4038(2) 0.7484(2) 0.30848(10)
H2 H 0.3379 0.8626 0.3360
C3 C 0.4308(2) 0.7327(2) 0.21865(9)
H3 H 0.3876 0.8308 0.1728
C4 C 0.5916(3) 0.4578(3) 0.12307(12)
H4 H 0.6808 0.3352 0.1351
H5 H 0.6637 0.5659 0.0905
H6 H 0.4692 0.4134 0.0865
Mn1_2 Mn -0.5000 0.5000 0.5000
Mn1_3 Mn 0.5000 -0.5000 0.5000
N1B N 0.51343(18) 0.4264(2) 0.64689(7)
N2B N 0.4666(2) 0.4542(2) 0.79170(8)
N3B N -0.16570(18) 0.4314(3) 0.49921(9)
N3B_2 N 0.83430(18) 0.4314(3) 0.49921(9)
N5B N 0.56381(19) -0.15880(19) 0.53243(8)
N5B_2 N 0.56381(19) 0.84120(19) 0.53243(8)
C1B C 0.4374(2) 0.5438(3) 0.70974(11)
H1B H 0.3704 0.6754 0.6984
C2B C 0.5962(2) 0.2516(2) 0.69152(10)
H2B H 0.6621 0.1374 0.6640
C3B C 0.5692(2) 0.2673(2) 0.78135(9)
H3B H 0.6124 0.1692 0.8272
C4B C 0.4084(3) 0.5422(3) 0.87693(12)
H4B H 0.3192 0.6648 0.8649
H5B H 0.3363 0.4341 0.9095
H6B H 0.5308 0.5866 0.9135
loop_
_geom_bond_atom_site_label_1
_geom_bond_atom_site_label_2
_geom_bond_site_symmetry_1
_geom_bond_site_symmetry_2
Mn1 N1 1_555 1_555
N1 C1 1_555 1_555
N2 C1 1_555 1_555
N3 Mn1 1_555 1_555
N4 N3 1_555 1_555
N5 Mn1 1_555 1_555
N6 N5 1_555 1_555
C1 H1 1_555 1_555
C2 N1 1_555 1_555
H2 C2 1_555 1_555
C3 N2 1_555 1_555
H3 C3 1_555 1_555
C4 N2 1_555 1_555
H4 C4 1_555 1_555
H5 C4 1_555 1_555
H6 C4 1_555 1_555
Mn1_2 N3B 1_555 1_555
Mn1_3 N5B 1_555 1_555
N1B Mn1 1_555 1_555
N2B C1B 1_555 1_555
N3B N4 1_555 1_555
N3B_2 Mn1 1_555 1_555
N5B N6 1_555 1_555
N5B_2 Mn1 1_555 1_555
C1B N1B 1_555 1_555
H1B C1B 1_555 1_555
C2B N1B 1_555 1_555
H2B C2B 1_555 1_555
C3B N2B 1_555 1_555
H3B C3B 1_555 1_555
C4B N2B 1_555 1_555
H4B C4B 1_555 1_555
H5B C4B 1_555 1_555
H6B C4B 1_555 1_555
C2 C3 1_555 1_555
C2B C3B 1_555 1_555

#END
