
#######################################################################
#
#                 Cambridge Crystallographic Data Centre
#                                CCDC 
#
#######################################################################
#
# If this CIF has been generated from an entry in the Cambridge 
# Structural Database, then it will include bibliographic, chemical, 
# crystal, experimental, refinement or atomic coordinate data resulting 
# from the CCDC's data processing and validation procedures.
#
#######################################################################

data_YINNOA
_symmetry_cell_setting           orthorhombic
_symmetry_space_group_name_H-M   'P n m a'
_symmetry_Int_Tables_number      62
_space_group_name_Hall           '-P 2ac 2n'
loop_
_symmetry_equiv_pos_site_id
_symmetry_equiv_pos_as_xyz
1 x,y,z
2 1/2-x,-y,1/2+z
3 1/2+x,1/2-y,1/2-z
4 -x,1/2+y,-z
5 -x,-y,-z
6 1/2+x,y,1/2-z
7 1/2-x,1/2+y,1/2+z
8 x,1/2-y,z
_cell_length_a                   7.7147(7)
_cell_length_b                   14.2718(14)
_cell_length_c                   12.3156(11)
_cell_angle_alpha                90
_cell_angle_beta                 90
_cell_angle_gamma                90
_cell_volume                     1355.98
loop_
_atom_site_label
_atom_site_type_symbol
_atom_site_fract_x
_atom_site_fract_y
_atom_site_fract_z
Cu1 Cu 0.80944(2) 0.250 -0.040352(13)
Ti1 Ti 0.30644(3) 0.250 -0.05859(2)
F1 F 0.09748(13) 0.250 -0.13393(7)
F2 F 0.52663(12) 0.250 0.00583(7)
F3 F 0.23729(10) 0.34424(6) 0.02760(6)
F4 F 0.39856(9) 0.15997(4) -0.16173(5)
C1 C 0.90278(15) 0.49240(7) 0.15337(8)
O1 O 0.74725(11) 0.15105(5) -0.14633(6)
C2 C 0.91876(13) 0.30164(6) 0.16942(7)
N1 N 0.86482(12) 0.34105(6) 0.07570(6)
C3 C 0.96660(16) 0.35551(7) 0.25805(7)
C4 C 0.95901(16) 0.45226(8) 0.24957(8)
C5 C 0.85585(14) 0.43434(7) 0.06812(8)
H1 H 1.006(3) 0.3232(14) 0.3219(15)
H2 H 0.896(2) 0.5589(12) 0.1475(14)
H3 H 0.822(2) 0.4591(12) 0.0051(15)
H4 H 0.993(2) 0.4947(12) 0.3109(13)
H5 H 0.808(3) 0.1511(17) -0.2085(19)
H6 H 0.649(3) 0.1508(16) -0.1538(17)
C1G C 0.90278(15) 0.00760(7) 0.15337(8)
C2G C 0.91876(13) 0.19836(6) 0.16942(7)
N1G N 0.86482(12) 0.15895(6) 0.07570(6)
C3G C 0.96660(16) 0.14449(7) 0.25805(7)
C4G C 0.95901(16) 0.04774(8) 0.24957(8)
C5G C 0.85585(14) 0.06566(7) 0.06812(8)
H1G H 1.006(3) 0.1768(14) 0.3219(15)
H2G H 0.896(2) -0.0589(12) 0.1475(14)
H3G H 0.822(2) 0.0409(12) 0.0051(15)
H4G H 0.993(2) 0.0053(12) 0.3109(13)
F3G F 0.23729(10) 0.15576(6) 0.02760(6)
F4G F 0.39856(9) 0.34003(4) -0.16173(5)
O1G O 0.74725(11) 0.34895(5) -0.14633(6)
H5G H 0.808(3) 0.3489(17) -0.2085(19)
H6G H 0.649(3) 0.3492(16) -0.1538(17)
Cu1_2 Cu -0.19056(2) 0.250 -0.040352(13)
F1_2 F 1.09748(13) 0.250 -0.13393(7)
loop_
_geom_bond_atom_site_label_1
_geom_bond_atom_site_label_2
_geom_bond_site_symmetry_1
_geom_bond_site_symmetry_2
Cu1 F2 1_555 1_555
Ti1 F1 1_555 1_555
F1 Cu1_2 1_555 1_555
F2 Ti1 1_555 1_555
F3 Ti1 1_555 1_555
F4 Ti1 1_555 1_555
C1 C4 1_555 1_555
O1 Cu1 1_555 1_555
C2 N1 1_555 1_555
N1 Cu1 1_555 1_555
C3 C2 1_555 1_555
C4 C3 1_555 1_555
C5 C1 1_555 1_555
H1 C3 1_555 1_555
H2 C1 1_555 1_555
H3 C5 1_555 1_555
H4 C4 1_555 1_555
H5 O1 1_555 1_555
H6 O1 1_555 1_555
C1G C4G 1_555 1_555
C2G C2 1_555 1_555
N1G Cu1 1_555 1_555
C3G C2G 1_555 1_555
C4G C3G 1_555 1_555
C5G C1G 1_555 1_555
H1G C3G 1_555 1_555
H2G C1G 1_555 1_555
H3G C5G 1_555 1_555
H4G C4G 1_555 1_555
F3G Ti1 1_555 1_555
F4G Ti1 1_555 1_555
O1G Cu1 1_555 1_555
H5G O1G 1_555 1_555
H6G O1G 1_555 1_555
F1_2 Cu1 1_555 1_555
N1 C5 1_555 1_555
C2G N1G 1_555 1_555
N1G C5G 1_555 1_555

#END
