
#######################################################################
#
#                 Cambridge Crystallographic Data Centre
#                                CCDC 
#
#######################################################################
#
# If this CIF has been generated from an entry in the Cambridge 
# Structural Database, then it will include bibliographic, chemical, 
# crystal, experimental, refinement or atomic coordinate data resulting 
# from the CCDC's data processing and validation procedures.
#
#######################################################################

data_YINPES
_symmetry_cell_setting           monoclinic
_symmetry_space_group_name_H-M   'C 2/c'
_symmetry_Int_Tables_number      15
_space_group_name_Hall           '-C 2yn'
loop_
_symmetry_equiv_pos_site_id
_symmetry_equiv_pos_as_xyz
1 x,y,z
2 -x,y,1/2-z
3 1/2+x,1/2+y,z
4 1/2-x,1/2+y,1/2-z
5 -x,-y,-z
6 x,-y,1/2+z
7 1/2-x,1/2-y,-z
8 1/2+x,1/2-y,1/2+z
_cell_length_a                   26.158(4)
_cell_length_b                   10.0274(14)
_cell_length_c                   15.632(2)
_cell_angle_alpha                90
_cell_angle_beta                 100.489(4)
_cell_angle_gamma                90
_cell_volume                     4031.71
loop_
_atom_site_label
_atom_site_type_symbol
_atom_site_fract_x
_atom_site_fract_y
_atom_site_fract_z
I1 I 0.58633(3) -0.14618(7) -0.15844(5)
I2 I 0.53912(3) -0.42800(7) -0.37606(5)
Cu1 Cu 0.54837(6) -0.38621(16) -0.20785(10)
Cu2 Cu 0.51240(6) -0.19467(15) -0.32960(13)
O1 O 0.6850(4) -0.4393(7) 0.0886(7)
N1 N 0.5966(4) -0.5306(10) -0.1470(6)
C1 C 0.6552(4) -0.6002(10) -0.0154(7)
C2 C 0.6230(4) -0.5088(11) -0.0676(7)
H1 H 0.6198 -0.4246 -0.0442
C3 C 0.6006(7) -0.6529(12) -0.1810(10)
H2 H 0.5834 -0.6708 -0.2372
C4 C 0.6295(7) -0.7505(12) -0.1348(10)
H3 H 0.6298 -0.8354 -0.1586
C5 C 0.6580(6) -0.7261(12) -0.0537(9)
H4 H 0.6791 -0.7924 -0.0242
C6 C 0.6819(4) -0.5582(10) 0.0713(8)
O2 O 0.7991(3) -0.4414(7) 0.3908(6)
N2 N 0.9554(4) -0.4603(9) 0.3826(6)
C7 C 0.8772(4) -0.5691(9) 0.3984(6)
C8 C 0.9037(4) -0.4576(10) 0.3839(7)
H5 H 0.8859 -0.3770 0.3745
C9 C 0.9805(5) -0.5756(10) 0.4007(8)
H6 H 1.0162 -0.5780 0.4016
C10 C 0.9563(5) -0.6892(11) 0.4179(8)
H7 H 0.9754 -0.7674 0.4301
C11 C 0.9025(4) -0.6893(11) 0.4175(8)
H8 H 0.8849 -0.7658 0.4294
C12 C 0.8195(4) -0.5541(10) 0.3950(7)
N3 N 0.7909(4) -0.6640(9) 0.3906(6)
H9 H 0.8065 -0.7398 0.3981
N4 N 0.7031(4) -0.6495(10) 0.1259(7)
H10 H 0.7013 -0.7314 0.1093
C13 C 0.7332(5) -0.6614(13) 0.3734(10)
H11 H 0.7212 -0.5721 0.3829
H12 H 0.7202 -0.7212 0.4133
C14 C 0.7118(5) -0.7042(14) 0.2796(9)
H13 H 0.7224 -0.7954 0.2718
H14 H 0.6742 -0.7025 0.2702
C15 C 0.7295(5) -0.6191(13) 0.2130(8)
H15 H 0.7235 -0.5263 0.2256
H16 H 0.7666 -0.6312 0.2163
I1A I 0.41367(3) -0.14618(7) -0.34156(5)
I2A I 0.46088(3) -0.42800(7) -0.12394(5)
Cu1A Cu 0.45163(6) -0.38621(16) -0.29215(10)
Cu2A Cu 0.48760(6) -0.19467(15) -0.17040(13)
Cu2F Cu 0.98760(6) -0.30533(15) 0.32960(13)
N2F N 0.5446(4) -0.0397(9) -0.3826(6)
loop_
_geom_bond_atom_site_label_1
_geom_bond_atom_site_label_2
_geom_bond_site_symmetry_1
_geom_bond_site_symmetry_2
I1 Cu1 1_555 1_555
I2 Cu1 1_555 1_555
Cu1 Cu2 1_555 1_555
Cu2 I1 1_555 1_555
O1 C6 1_555 1_555
N1 Cu1 1_555 1_555
C1 C2 1_555 1_555
C2 N1 1_555 1_555
H1 C2 1_555 1_555
C3 N1 1_555 1_555
H2 C3 1_555 1_555
C4 C3 1_555 1_555
H3 C4 1_555 1_555
C5 C1 1_555 1_555
H4 C5 1_555 1_555
C6 C1 1_555 1_555
O2 C12 1_555 1_555
N2 C8 1_555 1_555
C7 C8 1_555 1_555
C8 H5 1_555 1_555
C9 N2 1_555 1_555
H6 C9 1_555 1_555
C10 C9 1_555 1_555
H7 C10 1_555 1_555
C11 C7 1_555 1_555
H8 C11 1_555 1_555
C12 C7 1_555 1_555
N3 C12 1_555 1_555
H9 N3 1_555 1_555
N4 C6 1_555 1_555
H10 N4 1_555 1_555
C13 N3 1_555 1_555
H11 C13 1_555 1_555
H12 C13 1_555 1_555
C14 C13 1_555 1_555
H13 C14 1_555 1_555
H14 C14 1_555 1_555
C15 N4 1_555 1_555
H15 C15 1_555 1_555
H16 C15 1_555 1_555
I1A Cu2 1_555 1_555
I2A Cu1 1_555 1_555
Cu1A I2 1_555 1_555
Cu2A I1 1_555 1_555
Cu2F N2 1_555 1_555
N2F Cu2 1_555 1_555
I2 Cu2 1_555 1_555
Cu1 Cu1A 1_555 1_555
Cu1 Cu2A 1_555 1_555
Cu2 Cu1A 1_555 1_555
Cu2 Cu2A 1_555 1_555
C4 C5 1_555 1_555
C10 C11 1_555 1_555
C14 C15 1_555 1_555
I1A Cu1A 1_555 1_555
I1A Cu2A 1_555 1_555
I2A Cu1A 1_555 1_555
I2A Cu2A 1_555 1_555
Cu1A Cu2A 1_555 1_555

#END
