
#######################################################################
#
#                 Cambridge Crystallographic Data Centre
#                                CCDC 
#
#######################################################################
#
# If this CIF has been generated from an entry in the Cambridge 
# Structural Database, then it will include bibliographic, chemical, 
# crystal, experimental, refinement or atomic coordinate data resulting 
# from the CCDC's data processing and validation procedures.
#
#######################################################################

data_YINQOD
_symmetry_cell_setting           orthorhombic
_symmetry_space_group_name_H-M   'P c c n'
_symmetry_Int_Tables_number      56
_space_group_name_Hall           '-P 2ab 2ac'
loop_
_symmetry_equiv_pos_site_id
_symmetry_equiv_pos_as_xyz
1 x,y,z
2 1/2-x,1/2-y,z
3 -x,1/2+y,1/2-z
4 1/2+x,-y,1/2-z
5 -x,-y,-z
6 1/2+x,1/2+y,-z
7 x,1/2-y,1/2+z
8 1/2-x,y,1/2+z
_cell_length_a                   21.256(3)
_cell_length_b                   12.0891(17)
_cell_length_c                   17.086(2)
_cell_angle_alpha                90
_cell_angle_beta                 90
_cell_angle_gamma                90
_cell_volume                     4390.52
loop_
_atom_site_label
_atom_site_type_symbol
_atom_site_fract_x
_atom_site_fract_y
_atom_site_fract_z
Cu1 Cu 0.7500 0.7500 0.14463(4)
O1 O 0.64567(17) 0.4956(3) 0.48490(16)
C1 C 0.7400(2) 0.6045(4) 0.2821(2)
H1 H 0.7834 0.6010 0.2757
C2 C 0.7135(2) 0.5483(4) 0.3432(2)
H2 H 0.7385 0.5091 0.3782
C3 C 0.64867(18) 0.5508(3) 0.3519(2)
C4 C 0.61419(19) 0.6113(3) 0.2998(2)
H3 H 0.5707 0.6150 0.3046
C5 C 0.64410(18) 0.6667(3) 0.2405(2)
H4 H 0.6199 0.7075 0.2055
C6 C 0.6208(2) 0.4904(4) 0.4202(2)
O2 O 0.61490(15) 0.0307(3) 0.33026(16)
C7 C 0.69901(19) -0.0490(3) 0.5745(2)
H5 H 0.7185 -0.0171 0.6178
C8 C 0.63768(17) -0.0269(3) 0.4593(2)
C9 C 0.64343(18) -0.1394(3) 0.4473(2)
H6 H 0.6249 -0.1725 0.4039
C10 C 0.67678(18) -0.2020(3) 0.5000(2)
H7 H 0.6803 -0.2777 0.4914
C11 C 0.60442(19) 0.0436(3) 0.4002(2)
C12 C 0.66534(19) 0.0184(3) 0.5238(2)
H8 H 0.6617 0.0938 0.5337
N1 N 0.70443(14) -0.1583(3) 0.56348(17)
N2 N 0.70642(15) 0.6646(3) 0.23067(18)
N3 N 0.56934(18) 0.4315(3) 0.4053(2)
H9 H 0.5533 0.4346 0.3591
N4 N 0.56511(17) 0.1190(3) 0.4294(2)
H10 H 0.5615 0.1251 0.4793
C13 C 0.5391(3) 0.3622(4) 0.4636(3)
H11 H 0.5149 0.4082 0.4990
H12 H 0.5710 0.3240 0.4939
C14 C 0.4961(2) 0.2783(4) 0.4258(4)
H13 H 0.4716 0.2426 0.4665
H14 H 0.4669 0.3172 0.3919
C15 C 0.5282(2) 0.1911(4) 0.3790(3)
H15 H 0.4970 0.1476 0.3512
H16 H 0.5555 0.2255 0.3406
O3 O 0.66126(14) 0.8940(3) 0.13084(17)
O1A O 0.85433(17) 1.0044(3) 0.48490(16)
C1A C 0.7600(2) 0.8955(4) 0.2821(2)
H1A H 0.7166 0.8990 0.2757
C2A C 0.7865(2) 0.9517(4) 0.3432(2)
H2A H 0.7615 0.9909 0.3782
C3A C 0.85133(18) 0.9492(3) 0.3519(2)
C4A C 0.88581(19) 0.8887(3) 0.2998(2)
H3A H 0.9293 0.8850 0.3046
C5A C 0.85590(18) 0.8333(3) 0.2405(2)
H4A H 0.8801 0.7925 0.2055
C6A C 0.8792(2) 1.0096(4) 0.4202(2)
O2A O 0.88510(15) 1.4693(3) 0.33026(16)
C7A C 0.80099(19) 1.5490(3) 0.5745(2)
H5A H 0.7815 1.5171 0.6178
C8A C 0.86232(17) 1.5269(3) 0.4593(2)
C9A C 0.85657(18) 1.6394(3) 0.4473(2)
H6A H 0.8751 1.6725 0.4039
C10A C 0.82322(18) 1.7020(3) 0.5000(2)
H7A H 0.8197 1.7777 0.4914
C11A C 0.89558(19) 1.4564(3) 0.4002(2)
C12A C 0.83466(19) 1.4816(3) 0.5238(2)
H8A H 0.8383 1.4062 0.5337
N1A N 0.79557(14) 1.6583(3) 0.56348(17)
N2A N 0.79358(15) 0.8354(3) 0.23067(18)
N3A N 0.93066(18) 1.0685(3) 0.4053(2)
H9A H 0.9467 1.0654 0.3591
N4A N 0.93489(17) 1.3810(3) 0.4294(2)
H10A H 0.9385 1.3749 0.4793
C13A C 0.9609(3) 1.1378(4) 0.4636(3)
H11A H 0.9851 1.0918 0.4990
H12A H 0.9290 1.1760 0.4939
C14A C 1.0039(2) 1.2217(4) 0.4258(4)
H13A H 1.0284 1.2574 0.4665
H14A H 1.0331 1.1828 0.3919
C15A C 0.9718(2) 1.3089(4) 0.3790(3)
H15A H 1.0030 1.3524 0.3512
H16A H 0.9445 1.2745 0.3406
O3A O 0.83874(14) 0.6060(3) 0.13084(17)
Cu1F Cu 0.7500 -0.2500 0.64463(4)
Cu1F_2 Cu 0.7500 1.7500 0.64463(4)
N1F N 0.70443(14) 0.6583(3) 0.06348(17)
N1G N 0.79557(14) 0.8417(3) 0.06348(17)
N5 N 0.7500 0.2500 0.3989(6)
C16 C 0.7500 0.2500 0.3325(7)
C17 C 0.7500 0.2500 0.2489(4)
C18 C 0.7074(3) 0.1863(4) 0.2091(4)
H17 H 0.6784 0.1430 0.2360
C19 C 0.7082(3) 0.1875(5) 0.1297(4)
H18 H 0.6796 0.1446 0.1019
C20 C 0.7500 0.2500 0.0913(4)
H19 H 0.7500 0.2500 0.0368
C18A C 0.7926(3) 0.3137(4) 0.2091(4)
H17A H 0.8216 0.3570 0.2360
C19A C 0.7918(3) 0.3125(5) 0.1297(4)
H18A H 0.8204 0.3554 0.1019
O4 O 0.55510(17) 0.0182(4) 0.18383(18)
Cl1 Cl 0.53326(6) 0.34400(10) 0.16392(7)
O5 O 0.5198(3) 0.4125(5) 0.0996(3)
O6 O 0.4772(2) 0.3221(5) 0.2067(3)
O7 O 0.5756(3) 0.3890(6) 0.2140(4)
O8 O 0.5573(4) 0.2454(5) 0.1359(3)
loop_
_geom_bond_atom_site_label_1
_geom_bond_atom_site_label_2
_geom_bond_site_symmetry_1
_geom_bond_site_symmetry_2
Cu1 N2 1_555 1_555
O1 C6 1_555 1_555
C1 H1 1_555 1_555
C2 C1 1_555 1_555
H2 C2 1_555 1_555
C3 C2 1_555 1_555
C4 C3 1_555 1_555
H3 C4 1_555 1_555
C5 C4 1_555 1_555
H4 C5 1_555 1_555
C6 C3 1_555 1_555
O2 C11 1_555 1_555
C7 H5 1_555 1_555
C8 C9 1_555 1_555
C9 H6 1_555 1_555
C10 C9 1_555 1_555
H7 C10 1_555 1_555
C11 C8 1_555 1_555
C12 C7 1_555 1_555
H8 C12 1_555 1_555
N1 C7 1_555 1_555
N2 C1 1_555 1_555
N3 C6 1_555 1_555
H9 N3 1_555 1_555
N4 C11 1_555 1_555
H10 N4 1_555 1_555
C13 N3 1_555 1_555
H11 C13 1_555 1_555
H12 C13 1_555 1_555
C14 C13 1_555 1_555
H13 C14 1_555 1_555
H14 C14 1_555 1_555
C15 N4 1_555 1_555
H15 C15 1_555 1_555
H16 C15 1_555 1_555
O3 Cu1 1_555 1_555
N5 C16 1_555 1_555
C16 C17 1_555 1_555
C17 C18 1_555 1_555
C18 H17 1_555 1_555
C19 C18 1_555 1_555
H18 C19 1_555 1_555
C20 C19 1_555 1_555
H19 C20 1_555 1_555
Cl1 O5 1_555 1_555
O6 Cl1 1_555 1_555
O7 Cl1 1_555 1_555
O8 Cl1 1_555 1_555
O1A C6A 1_555 1_555
C1A H1A 1_555 1_555
C2A C1A 1_555 1_555
H2A C2A 1_555 1_555
C3A C2A 1_555 1_555
C4A C3A 1_555 1_555
H3A C4A 1_555 1_555
C5A C4A 1_555 1_555
H4A C5A 1_555 1_555
C6A C3A 1_555 1_555
O2A C11A 1_555 1_555
C7A H5A 1_555 1_555
C8A C9A 1_555 1_555
C9A H6A 1_555 1_555
C10A C9A 1_555 1_555
H7A C10A 1_555 1_555
C11A C8A 1_555 1_555
C12A C7A 1_555 1_555
H8A C12A 1_555 1_555
N1A C7A 1_555 1_555
N2A Cu1 1_555 1_555
N3A C6A 1_555 1_555
H9A N3A 1_555 1_555
N4A C11A 1_555 1_555
H10A N4A 1_555 1_555
C13A N3A 1_555 1_555
H11A C13A 1_555 1_555
H12A C13A 1_555 1_555
C14A C13A 1_555 1_555
H13A C14A 1_555 1_555
H14A C14A 1_555 1_555
C15A N4A 1_555 1_555
H15A C15A 1_555 1_555
H16A C15A 1_555 1_555
O3A Cu1 1_555 1_555
Cu1F N1 1_555 1_555
Cu1F_2 N1A 1_555 1_555
N1F Cu1 1_555 1_555
N1G Cu1 1_555 1_555
C18A C17 1_555 1_555
H17A C18A 1_555 1_555
C19A C20 1_555 1_555
H18A C19A 1_555 1_555
C5 N2 1_555 1_555
C8 C12 1_555 1_555
C10 N1 1_555 1_555
C14 C15 1_555 1_555
C1A N2A 1_555 1_555
C5A N2A 1_555 1_555
C8A C12A 1_555 1_555
C10A N1A 1_555 1_555
C14A C15A 1_555 1_555
C18A C19A 1_555 1_555

#END
