
#######################################################################
#
#                 Cambridge Crystallographic Data Centre
#                                CCDC 
#
#######################################################################
#
# If this CIF has been generated from an entry in the Cambridge 
# Structural Database, then it will include bibliographic, chemical, 
# crystal, experimental, refinement or atomic coordinate data resulting 
# from the CCDC's data processing and validation procedures.
#
#######################################################################

data_YINQET
_symmetry_cell_setting           monoclinic
_symmetry_space_group_name_H-M   'C 2/c'
_symmetry_Int_Tables_number      15
_space_group_name_Hall           '-C 2yn'
loop_
_symmetry_equiv_pos_site_id
_symmetry_equiv_pos_as_xyz
1 x,y,z
2 -x,y,1/2-z
3 1/2+x,1/2+y,z
4 1/2-x,1/2+y,1/2-z
5 -x,-y,-z
6 x,-y,1/2+z
7 1/2-x,1/2-y,-z
8 1/2+x,1/2-y,1/2+z
_cell_length_a                   28.6920(14)
_cell_length_b                   7.2297(4)
_cell_length_c                   19.8774(10)
_cell_angle_alpha                90
_cell_angle_beta                 120.7200(10)
_cell_angle_gamma                90
_cell_volume                     3544.66
loop_
_atom_site_label
_atom_site_type_symbol
_atom_site_fract_x
_atom_site_fract_y
_atom_site_fract_z
Cd1 Cd 0.5000 0.54599(3) 0.7500
O1 O 0.49830(7) 0.7863(3) 0.82785(10)
N1 N 0.59495(8) 0.5688(3) 0.81699(12)
O2 O 0.65836(9) 1.0440(3) 0.78300(16)
C1 C 0.69126(11) 0.9332(3) 0.82936(15)
C2 C 0.67277(9) 0.7518(3) 0.84492(14)
C3 C 0.61733(10) 0.7251(3) 0.81014(13)
H1 H 0.5944 0.8210 0.7804
C4 C 0.62875(11) 0.4315(4) 0.86090(16)
H2 H 0.6140 0.3215 0.8659
C5 C 0.68428(12) 0.4481(4) 0.8986(2)
H3 H 0.7065 0.3516 0.9291
C6 C 0.70652(10) 0.6091(5) 0.89060(17)
H4 H 0.7440 0.6223 0.9157
O3 O 0.93014(7) 1.1938(3) 0.87907(10)
N2 N 0.99756(8) 1.1439(3) 1.15278(11)
C7 C 0.92497(9) 1.1274(3) 0.93140(13)
C8 C 0.96597(9) 1.1685(3) 1.01610(13)
C9 C 0.96238(9) 1.1003(4) 1.07818(13)
H5 H 0.9341 1.0202 1.0676
C10 C 1.03823(10) 1.2596(3) 1.16760(14)
H6 H 1.0624 1.2927 1.2192
C11 C 1.04570(10) 1.3313(4) 1.10985(14)
H7 H 1.0746 1.4100 1.1221
C12 C 1.00932(10) 1.2839(3) 1.03328(15)
H8 H 1.0138 1.3292 0.9932
N3 N 0.74499(10) 0.9623(3) 0.86694(15)
H9 H 0.7662 0.8782 0.8981
N4 N 0.88373(9) 1.0158(3) 0.91687(13)
H10 H 0.8826 0.9699 0.9559
C13 C 0.76870(11) 1.1305(4) 0.85699(17)
H11 H 0.7964 1.1745 0.9081
H12 H 0.7408 1.2248 0.8339
C14 C 0.79368(11) 1.1062(4) 0.80611(15)
H13 H 0.8067 1.2254 0.8003
H14 H 0.7656 1.0660 0.7545
C15 C 0.84044(12) 0.9678(4) 0.83792(16)
H15 H 0.8268 0.8454 0.8386
H16 H 0.8550 0.9644 0.8034
O1A O 0.50170(7) 0.7863(3) 0.67215(10)
N1A N 0.40505(8) 0.5688(3) 0.68301(12)
O2A O 0.34164(9) 1.0440(3) 0.71700(16)
C1A C 0.30874(11) 0.9332(3) 0.67064(15)
C2A C 0.32723(9) 0.7518(3) 0.65508(14)
C3A C 0.38267(10) 0.7251(3) 0.68986(13)
H1A H 0.4056 0.8210 0.7196
C4A C 0.37125(11) 0.4315(4) 0.63910(16)
H2A H 0.3860 0.3215 0.6341
C5A C 0.31572(12) 0.4481(4) 0.6014(2)
H3A H 0.2935 0.3516 0.5709
C6A C 0.29348(10) 0.6091(5) 0.60940(17)
H4A H 0.2560 0.6223 0.5843
O3A O 0.06986(7) 1.1938(3) 0.62093(10)
N2A N 0.00244(8) 1.1439(3) 0.34722(11)
C7A C 0.07503(9) 1.1274(3) 0.56860(13)
C8A C 0.03403(9) 1.1685(3) 0.48390(13)
C9A C 0.03762(9) 1.1003(4) 0.42182(13)
H5A H 0.0659 1.0202 0.4324
C10A C -0.03823(10) 1.2596(3) 0.33240(14)
H6A H -0.0624 1.2927 0.2808
C11A C -0.04570(10) 1.3313(4) 0.39015(14)
H7A H -0.0746 1.4100 0.3779
C12A C -0.00932(10) 1.2839(3) 0.46672(15)
H8A H -0.0138 1.3292 0.5068
N3A N 0.25501(10) 0.9623(3) 0.63306(15)
H9A H 0.2338 0.8782 0.6019
N4A N 0.11627(9) 1.0158(3) 0.58313(13)
H10A H 0.1174 0.9699 0.5441
C13A C 0.23130(11) 1.1305(4) 0.64301(17)
H11A H 0.2036 1.1745 0.5919
H12A H 0.2592 1.2248 0.6661
C14A C 0.20632(11) 1.1062(4) 0.69389(15)
H13A H 0.1933 1.2254 0.6997
H14A H 0.2344 1.0660 0.7455
C15A C 0.15956(12) 0.9678(4) 0.66208(16)
H15A H 0.1732 0.8454 0.6614
H16A H 0.1450 0.9644 0.6966
Cd1F Cd 0.0000 0.95401(3) 0.2500
Cd1F_2 Cd 1.0000 0.95401(3) 1.2500
N2F N 0.50244(8) 0.3561(3) 0.84722(11)
N2G N 0.49756(8) 0.3561(3) 0.65278(11)
Cl1 Cl 1.13783(3) 1.44524(9) 0.99685(5)
O4 O 1.08426(13) 1.4830(6) 0.9361(3)
O5 O 1.1468(2) 1.4979(5) 1.0711(2)
O6 O 1.14899(10) 1.2512(3) 0.99723(14)
O7 O 1.17306(12) 1.5479(3) 0.98196(19)
loop_
_geom_bond_atom_site_label_1
_geom_bond_atom_site_label_2
_geom_bond_site_symmetry_1
_geom_bond_site_symmetry_2
Cd1 O1 1_555 1_555
N1 Cd1 1_555 1_555
O2 C1 1_555 1_555
C1 C2 1_555 1_555
C2 C3 1_555 1_555
C3 N1 1_555 1_555
H1 C3 1_555 1_555
C4 N1 1_555 1_555
H2 C4 1_555 1_555
C5 C4 1_555 1_555
H3 C5 1_555 1_555
C6 C2 1_555 1_555
H4 C6 1_555 1_555
O3 C7 1_555 1_555
N2 C9 1_555 1_555
C7 C8 1_555 1_555
C8 C9 1_555 1_555
C9 H5 1_555 1_555
C10 N2 1_555 1_555
H6 C10 1_555 1_555
C11 C10 1_555 1_555
H7 C11 1_555 1_555
C12 C8 1_555 1_555
H8 C12 1_555 1_555
N3 C1 1_555 1_555
H9 N3 1_555 1_555
N4 C7 1_555 1_555
H10 N4 1_555 1_555
C13 N3 1_555 1_555
H11 C13 1_555 1_555
H12 C13 1_555 1_555
C14 C13 1_555 1_555
H13 C14 1_555 1_555
H14 C14 1_555 1_555
C15 N4 1_555 1_555
H15 C15 1_555 1_555
H16 C15 1_555 1_555
Cl1 O4 1_555 1_555
O5 Cl1 1_555 1_555
O6 Cl1 1_555 1_555
O7 Cl1 1_555 1_555
O1A Cd1 1_555 1_555
N1A Cd1 1_555 1_555
O2A C1A 1_555 1_555
C1A C2A 1_555 1_555
C2A C3A 1_555 1_555
C3A N1A 1_555 1_555
H1A C3A 1_555 1_555
C4A N1A 1_555 1_555
H2A C4A 1_555 1_555
C5A C4A 1_555 1_555
H3A C5A 1_555 1_555
C6A C2A 1_555 1_555
H4A C6A 1_555 1_555
O3A C7A 1_555 1_555
N2A C9A 1_555 1_555
C7A C8A 1_555 1_555
C8A C9A 1_555 1_555
C9A H5A 1_555 1_555
C10A N2A 1_555 1_555
H6A C10A 1_555 1_555
C11A C10A 1_555 1_555
H7A C11A 1_555 1_555
C12A C8A 1_555 1_555
H8A C12A 1_555 1_555
N3A C1A 1_555 1_555
H9A N3A 1_555 1_555
N4A C7A 1_555 1_555
H10A N4A 1_555 1_555
C13A N3A 1_555 1_555
H11A C13A 1_555 1_555
H12A C13A 1_555 1_555
C14A C13A 1_555 1_555
H13A C14A 1_555 1_555
H14A C14A 1_555 1_555
C15A N4A 1_555 1_555
H15A C15A 1_555 1_555
H16A C15A 1_555 1_555
Cd1F N2A 1_555 1_555
Cd1F_2 N2 1_555 1_555
N2F Cd1 1_555 1_555
N2G Cd1 1_555 1_555
C5 C6 1_555 1_555
C11 C12 1_555 1_555
C14 C15 1_555 1_555
C5A C6A 1_555 1_555
C11A C12A 1_555 1_555
C14A C15A 1_555 1_555

#END
