
#######################################################################
#
#                 Cambridge Crystallographic Data Centre
#                                CCDC 
#
#######################################################################
#
# If this CIF has been generated from an entry in the Cambridge 
# Structural Database, then it will include bibliographic, chemical, 
# crystal, experimental, refinement or atomic coordinate data resulting 
# from the CCDC's data processing and validation procedures.
#
#######################################################################

data_YINXUQ
_symmetry_cell_setting           triclinic
_symmetry_space_group_name_H-M   'P -1'
_symmetry_Int_Tables_number      2
_space_group_name_Hall           '-P 1'
loop_
_symmetry_equiv_pos_site_id
_symmetry_equiv_pos_as_xyz
1 x,y,z
2 -x,-y,-z
_cell_length_a                   9.7460(5)
_cell_length_b                   15.2850(7)
_cell_length_c                   18.6560(9)
_cell_angle_alpha                107.339(4)
_cell_angle_beta                 99.509(4)
_cell_angle_gamma                92.536(4)
_cell_volume                     2603.47
loop_
_atom_site_label
_atom_site_type_symbol
_atom_site_fract_x
_atom_site_fract_y
_atom_site_fract_z
C39 C 1.0524(7) -0.1551(5) 0.7254(4)
C40 C 1.0335(7) -0.1728(4) 0.6458(4)
C41 C 0.9174(7) -0.1438(5) 0.6082(4)
H30 H 0.9051 -0.1563 0.5555
C42 C 0.8207(7) -0.0975(5) 0.6463(4)
C43 C 0.8429(7) -0.0763(5) 0.7257(4)
H31 H 0.7803 -0.0425 0.7526
C44 C 0.9555(7) -0.1042(5) 0.7648(4)
H32 H 0.9680 -0.0895 0.8177
C45 C 1.1635(8) -0.1889(5) 0.7734(5)
C46 C 1.1217(9) -0.2249(6) 0.5921(5)
C47 C 0.6892(8) -0.0804(5) 0.6001(5)
O10 O 1.1294(6) -0.2152(4) 0.8257(3)
O11 O 1.2835(6) -0.1909(5) 0.7571(4)
H33 H 1.3354 -0.2104 0.7869
O12 O 1.2509(6) -0.2340(5) 0.6190(4)
H34 H 1.2686 -0.2079 0.6653
O13 O 1.0753(7) -0.2592(5) 0.5254(4)
O14 O 0.6537(6) -0.1224(4) 0.5337(3)
O15 O 0.6154(5) -0.0201(4) 0.6403(3)
H35 H 0.5453 -0.0137 0.6121
O16 O 0.8335(12) 0.7298(7) 0.8269(6)
O17 O 0.5512(14) 0.7576(9) 0.8193(9)
O18 O 0.5050(18) 0.6021(11) 0.6987(10)
O19 O 0.628(2) 0.7370(13) 0.6676(10)
Ag1 Ag 0.9197(6) 0.3504(4) 0.7758(3)
Ag2 Ag 1.21777(6) 0.25773(4) 0.74888(3)
Ag3 Ag 0.5343(7) 0.1483(4) 0.7369(4)
C1 C 0.6388(6) 0.4796(4) 0.5084(3)
C2 C 0.5330(6) 0.4138(4) 0.5060(3)
C3 C 0.3930(6) 0.4336(4) 0.4964(3)
C4 C 0.7910(6) 0.4575(5) 0.5177(4)
H1 H 0.7967 0.3957 0.4850
H2 H 0.8467 0.5001 0.5020
C5 C 0.8808(6) 0.3989(5) 0.6280(4)
H3 H 0.8824 0.3374 0.6005
C6 C 0.8955(8) 0.5241(5) 0.7162(4)
H4 H 0.9120 0.5668 0.7649
C7 C 0.5666(7) 0.3204(4) 0.5129(4)
H5 H 0.5007 0.2731 0.4749
H6 H 0.6595 0.3095 0.5021
C8 C 0.5492(8) 0.2357(6) 0.6086(5)
H7 H 0.5395 0.1760 0.5751
C9 C 0.5696(7) 0.3515(6) 0.7069(5)
H8 H 0.5769 0.3868 0.7577
C10 C 0.2777(6) 0.3617(4) 0.4926(4)
H9 H 0.1927 0.3707 0.4614
H10 H 0.3038 0.3010 0.4683
C11 C 0.2369(7) 0.2987(5) 0.5979(4)
H11 H 0.2391 0.2367 0.5721
C12 C 0.2249(7) 0.4240(5) 0.6809(4)
H12 H 0.2174 0.4664 0.7273
C13 C 1.1062(6) 0.0660(4) 1.0031(3)
C14 C 0.9691(6) 0.0893(4) 1.0030(3)
C15 C 0.8615(6) 0.0236(4) 1.0004(3)
C16 C 1.2210(6) 0.1370(4) 1.0041(3)
H13 H 1.2024 0.1977 1.0336
H14 H 1.3100 0.1236 1.0283
C17 C 1.2250(6) 0.2061(4) 0.8970(4)
H15 H 1.2232 0.2675 0.9248
C18 C 1.2285(7) 0.0831(4) 0.8093(4)
H16 H 1.2297 0.0427 0.7611
C19 C 0.9367(6) 0.1865(4) 1.0062(3)
H17 H 0.8534 0.2002 1.0280
H18 H 1.0137 0.2302 1.0389
C20 C 0.9031(6) 0.2731(4) 0.9101(4)
H19 H 0.9093 0.3320 0.9446
C21 C 0.8801(6) 0.1621(4) 0.8108(4)
H20 H 0.8662 0.1288 0.7591
C22 C 0.7131(6) 0.0511(4) 1.0032(3)
H21 H 0.6621 0.0091 1.0218
H22 H 0.7175 0.1126 1.0389
C23 C 0.6064(6) 0.1181(5) 0.9000(4)
H23 H 0.6223 0.1803 0.9282
C24 C 0.5472(7) -0.0062(5) 0.8122(4)
H24 H 0.5100 -0.0478 0.7644
C25 C 1.3744(6) 0.4914(4) 0.8994(3)
C26 C 1.4315(6) 0.5775(4) 0.9034(3)
C27 C 1.5758(6) 0.5962(4) 0.9117(3)
H25 H 1.6127 0.6544 0.9143
C28 C 1.6650(5) 0.5284(4) 0.9164(3)
C29 C 1.6075(6) 0.4413(4) 0.9102(4)
H26 H 1.6654 0.3948 0.9113
C30 C 1.4649(6) 0.4230(4) 0.9024(3)
H27 H 1.4281 0.3644 0.8990
C31 C 1.2189(6) 0.4695(4) 0.8957(4)
C32 C 1.3454(6) 0.6562(5) 0.9003(4)
C33 C 1.8182(6) 0.5554(4) 0.9286(4)
C34 C 0.0401(9) 0.0650(5) 0.5702(5)
H28 H 0.0689 0.1093 0.6177
C35 C 0.1378(8) 0.0051(5) 0.5399(5)
C36 C 0.0962(8) -0.0608(5) 0.4675(5)
C37 C 0.2831(9) 0.0208(8) 0.5881(6)
C38 C 0.1586(14) -0.1311(10) 0.4253(9)
N1 N 0.9118(6) 0.4328(4) 0.7030(3)
N2 N 0.8471(5) 0.4645(4) 0.5972(3)
N3 N 0.8544(7) 0.5460(4) 0.6537(4)
N4 N 0.5539(7) 0.2582(5) 0.6836(4)
N5 N 0.5607(5) 0.3130(4) 0.5891(3)
N6 N 0.5734(6) 0.3877(4) 0.6519(3)
N7 N 0.2197(6) 0.3320(4) 0.6693(3)
N8 N 0.2507(5) 0.3666(4) 0.5683(3)
N9 N 0.2416(6) 0.4477(4) 0.6207(3)
N10 N 1.2247(5) 0.1749(3) 0.8227(3)
N11 N 1.2284(5) 0.1362(3) 0.9259(3)
N12 N 1.2301(5) 0.0557(3) 0.8695(3)
N13 N 0.8819(5) 0.2537(3) 0.8354(3)
N14 N 0.9145(5) 0.1964(3) 0.9291(3)
N15 N 0.8991(5) 0.1226(3) 0.8642(3)
N16 N 0.5498(5) 0.0859(4) 0.8268(3)
N17 N 0.6376(5) 0.0496(3) 0.9278(3)
N18 N 0.6012(6) -0.0319(4) 0.8708(3)
O1 O 1.1669(5) 0.3893(3) 0.8645(3)
O2 O 1.1537(4) 0.5352(3) 0.9264(3)
O3 O 1.2601(5) 0.6412(3) 0.8356(3)
H29 H 1.2161 0.6860 0.8371
O4 O 1.3616(6) 0.7268(4) 0.9522(3)
O5 O 1.8651(5) 0.6335(3) 0.9580(4)
O6 O 1.8960(4) 0.4883(3) 0.9084(3)
O7 O 0.3231(17) 0.0636(12) 0.6462(11)
O8 O 0.3680(8) -0.0348(5) 0.5660(6)
O9 O 0.2724(15) -0.1474(10) 0.4653(9)
C1A C 0.3612(6) 0.5204(4) 0.4916(3)
C2A C 0.4670(6) 0.5862(4) 0.4940(3)
C3A C 0.6070(6) 0.5664(4) 0.5036(3)
C4A C 0.2090(6) 0.5425(5) 0.4823(4)
H1A H 0.2033 0.6043 0.5150
H2A H 0.1533 0.4999 0.4980
C5A C 0.1192(6) 0.6011(5) 0.3720(4)
H3A H 0.1176 0.6626 0.3995
C6A C 0.1045(8) 0.4759(5) 0.2838(4)
H4A H 0.0880 0.4332 0.2351
C7A C 0.4334(7) 0.6796(4) 0.4871(4)
H5A H 0.4993 0.7269 0.5251
H6A H 0.3405 0.6905 0.4979
C8A C 0.4508(8) 0.7643(6) 0.3914(5)
H7A H 0.4605 0.8240 0.4249
C9A C 0.4304(7) 0.6485(6) 0.2931(5)
H8A H 0.4231 0.6132 0.2423
C10A C 0.7223(6) 0.6383(4) 0.5074(4)
H9A H 0.8073 0.6293 0.5386
H10A H 0.6962 0.6990 0.5317
C11A C 0.7631(7) 0.7013(5) 0.4021(4)
H11A H 0.7609 0.7633 0.4279
C12A C 0.7751(7) 0.5760(5) 0.3191(4)
H12A H 0.7826 0.5336 0.2727
N1A N 0.0882(6) 0.5672(4) 0.2970(3)
N2A N 0.1529(5) 0.5355(4) 0.4028(3)
N3A N 0.1456(7) 0.4540(4) 0.3463(4)
N4A N 0.4461(7) 0.7418(5) 0.3164(4)
N5A N 0.4393(5) 0.6870(4) 0.4109(3)
N6A N 0.4266(6) 0.6123(4) 0.3481(3)
N7A N 0.7803(6) 0.6680(4) 0.3307(3)
N8A N 0.7493(5) 0.6334(4) 0.4317(3)
N9A N 0.7584(6) 0.5523(4) 0.3793(3)
C13A C 0.8938(6) -0.0660(4) 0.9969(3)
C14A C 1.0309(6) -0.0893(4) 0.9970(3)
C15A C 1.1385(6) -0.0236(4) 0.9996(3)
C16A C 0.7790(6) -0.1370(4) 0.9959(3)
H13A H 0.7976 -0.1977 0.9664
H14A H 0.6900 -0.1236 0.9717
C17A C 0.7750(6) -0.2061(4) 1.1030(4)
H15A H 0.7768 -0.2675 1.0752
C18A C 0.7715(7) -0.0831(4) 1.1907(4)
H16A H 0.7703 -0.0427 1.2389
C19A C 1.0633(6) -0.1865(4) 0.9938(3)
H17A H 1.1466 -0.2002 0.9720
H18A H 0.9863 -0.2302 0.9611
C20A C 1.0969(6) -0.2731(4) 1.0899(4)
H19A H 1.0907 -0.3320 1.0554
C21A C 1.1199(6) -0.1621(4) 1.1892(4)
H20A H 1.1338 -0.1288 1.2409
C22A C 1.2869(6) -0.0511(4) 0.9968(3)
H21A H 1.3379 -0.0091 0.9782
H22A H 1.2825 -0.1126 0.9611
C23A C 1.3936(6) -0.1181(5) 1.1000(4)
H23A H 1.3777 -0.1803 1.0718
C24A C 1.4528(7) 0.0062(5) 1.1878(4)
H24A H 1.4900 0.0478 1.2356
N10A N 0.7753(5) -0.1749(3) 1.1773(3)
N11A N 0.7716(5) -0.1362(3) 1.0741(3)
N12A N 0.7699(5) -0.0557(3) 1.1305(3)
N13A N 1.1181(5) -0.2537(3) 1.1646(3)
N14A N 1.0855(5) -0.1964(3) 1.0709(3)
N15A N 1.1009(5) -0.1226(3) 1.1358(3)
N16A N 1.4502(5) -0.0859(4) 1.1732(3)
N17A N 1.3624(5) -0.0496(3) 1.0722(3)
N18A N 1.3988(6) 0.0319(4) 1.1292(3)
C34A C -0.0401(9) -0.0650(5) 0.4298(5)
H28A H -0.0689 -0.1093 0.3823
C35A C -0.1378(8) -0.0051(5) 0.4601(5)
C36A C -0.0962(8) 0.0608(5) 0.5325(5)
C37A C -0.2831(9) -0.0208(8) 0.4119(6)
C38A C -0.1586(14) 0.1311(10) 0.5747(9)
O7A O -0.3231(17) -0.0636(12) 0.3538(11)
O8A O -0.3680(8) 0.0348(5) 0.4340(6)
O9A O -0.2724(15) 0.1474(10) 0.5347(9)
Ag3A Ag -0.5343(7) -0.1483(4) 0.2631(4)
Ag1_2 Ag -0.0803(6) 0.3504(4) 0.7758(3)
Ag2_2 Ag 0.21777(6) 0.25773(4) 0.74888(3)
C25_2 C 0.3744(6) 0.4914(4) 0.8994(3)
C26_2 C 0.4315(6) 0.5775(4) 0.9034(3)
C27_2 C 0.5758(6) 0.5962(4) 0.9117(3)
H25_2 H 0.6127 0.6544 0.9143
C28_2 C 0.6650(5) 0.5284(4) 0.9164(3)
C29_2 C 0.6075(6) 0.4413(4) 0.9102(4)
H26_2 H 0.6654 0.3948 0.9113
C30_2 C 0.4649(6) 0.4230(4) 0.9024(3)
H27_2 H 0.4281 0.3644 0.8990
C31_2 C 0.2189(6) 0.4695(4) 0.8957(4)
C32_2 C 0.3454(6) 0.6562(5) 0.9003(4)
C33_2 C 0.8182(6) 0.5554(4) 0.9286(4)
O1_2 O 0.1669(5) 0.3893(3) 0.8645(3)
O2_2 O 0.1537(4) 0.5352(3) 0.9264(3)
O3_2 O 0.2601(5) 0.6412(3) 0.8356(3)
H29_2 H 0.2161 0.6860 0.8371
O4_2 O 0.3616(6) 0.7268(4) 0.9522(3)
O5_2 O 0.8651(5) 0.6335(3) 0.9580(4)
O6_2 O 0.8960(4) 0.4883(3) 0.9084(3)
Ag1A Ag 0.0803(6) 0.6496(4) 0.2242(3)
Ag1A_2 Ag 1.0803(6) -0.3504(4) 1.2242(3)
Ag2A Ag 0.78223(6) -0.25773(4) 1.25112(3)
Ag2A_2 Ag 0.78223(6) 0.74227(4) 0.25112(3)
Ag3A_2 Ag 0.4657(7) 0.8517(4) 0.2631(4)
Ag3A_3 Ag 1.4657(7) -0.1483(4) 1.2631(4)
N1_2 N -0.0882(6) 0.4328(4) 0.7030(3)
N4A_2 N -0.5539(7) -0.2582(5) 0.3164(4)
N7_2 N 1.2197(6) 0.3320(4) 0.6693(3)
N10_2 N 0.2247(5) 0.1749(3) 0.8227(3)
N13_2 N -0.1181(5) 0.2537(3) 0.8354(3)
N16A_2 N -0.5498(5) -0.0859(4) 0.1732(3)
Ag4? Ag 0.5163(8) 0.1719(4) 0.7512(4)
O20? O 0.3023(16) 0.1070(9) 0.6446(8)
Ag5? Ag 0.9157(4) 0.3531(3) 0.7793(3)
O21? O 0.1084(13) -0.1762(9) 0.3619(8)
loop_
_geom_bond_atom_site_label_1
_geom_bond_atom_site_label_2
_geom_bond_site_symmetry_1
_geom_bond_site_symmetry_2
Ag1 N1 1_555 1_555
Ag2 N10 1_555 1_555
Ag3 N4 1_555 1_555
C1 C2 1_555 1_555
C2 C3 1_555 1_555
C3 C10 1_555 1_555
C4 C1 1_555 1_555
H1 C4 1_555 1_555
H2 C4 1_555 1_555
C5 H3 1_555 1_555
C6 H4 1_555 1_555
C7 C2 1_555 1_555
H5 C7 1_555 1_555
H6 C7 1_555 1_555
C8 H7 1_555 1_555
C9 H8 1_555 1_555
C10 H9 1_555 1_555
H10 C10 1_555 1_555
C11 H11 1_555 1_555
C12 H12 1_555 1_555
C13 C14 1_555 1_555
C14 C15 1_555 1_555
C15 C22 1_555 1_555
C16 C13 1_555 1_555
H13 C16 1_555 1_555
H14 C16 1_555 1_555
C17 H15 1_555 1_555
C18 H16 1_555 1_555
C19 C14 1_555 1_555
H17 C19 1_555 1_555
H18 C19 1_555 1_555
C20 H19 1_555 1_555
C21 H20 1_555 1_555
C22 H21 1_555 1_555
H22 C22 1_555 1_555
C23 H23 1_555 1_555
C24 H24 1_555 1_555
C25 C26 1_555 1_555
C26 C27 1_555 1_555
C27 H25 1_555 1_555
C28 C27 1_555 1_555
C29 C28 1_555 1_555
H26 C29 1_555 1_555
C30 C25 1_555 1_555
H27 C30 1_555 1_555
C31 C25 1_555 1_555
C32 C26 1_555 1_555
C33 C28 1_555 1_555
C34 H28 1_555 1_555
C35 C34 1_555 1_555
C36 C35 1_555 1_555
C37 C35 1_555 1_555
C38 C36 1_555 1_555
N1 C5 1_555 1_555
N2 C4 1_555 1_555
N3 C6 1_555 1_555
N4 C8 1_555 1_555
N5 C7 1_555 1_555
N6 C9 1_555 1_555
N7 C11 1_555 1_555
N8 C10 1_555 1_555
N9 C12 1_555 1_555
N10 C17 1_555 1_555
N11 C16 1_555 1_555
N12 C18 1_555 1_555
N13 Ag1 1_555 1_555
N14 C19 1_555 1_555
N15 C21 1_555 1_555
N16 Ag3 1_555 1_555
N17 C22 1_555 1_555
N18 C24 1_555 1_555
O1 Ag1 1_555 1_555
O2 C31 1_555 1_555
O3 C32 1_555 1_555
H29 O3 1_555 1_555
O4 C32 1_555 1_555
O5 C33 1_555 1_555
O6 C33 1_555 1_555
O7 Ag3 1_555 1_555
O8 C37 1_555 1_555
O9 C38 1_555 1_555
C39 C40 1_555 1_555
C40 C41 1_555 1_555
C41 H30 1_555 1_555
C42 C41 1_555 1_555
C43 C42 1_555 1_555
H31 C43 1_555 1_555
C44 C39 1_555 1_555
H32 C44 1_555 1_555
C45 C39 1_555 1_555
C46 C40 1_555 1_555
C47 C42 1_555 1_555
O10 C45 1_555 1_555
O11 C45 1_555 1_555
H33 O11 1_555 1_555
O12 C46 1_555 1_555
H34 O12 1_555 1_555
O13 C46 1_555 1_555
O14 C47 1_555 1_555
O15 C47 1_555 1_555
H35 O15 1_555 1_555
C1A C3 1_555 1_555
C2A C1A 1_555 1_555
C3A C1 1_555 1_555
C4A C1A 1_555 1_555
H1A C4A 1_555 1_555
H2A C4A 1_555 1_555
C5A H3A 1_555 1_555
C6A H4A 1_555 1_555
C7A C2A 1_555 1_555
H5A C7A 1_555 1_555
H6A C7A 1_555 1_555
C8A H7A 1_555 1_555
C9A H8A 1_555 1_555
C10A C3A 1_555 1_555
H9A C10A 1_555 1_555
H10A C10A 1_555 1_555
C11A H11A 1_555 1_555
C12A H12A 1_555 1_555
N1A C5A 1_555 1_555
N2A C4A 1_555 1_555
N3A C6A 1_555 1_555
N4A C8A 1_555 1_555
N5A C7A 1_555 1_555
N6A C9A 1_555 1_555
N7A C11A 1_555 1_555
N8A C10A 1_555 1_555
N9A C12A 1_555 1_555
C13A C15 1_555 1_555
C14A C13A 1_555 1_555
C15A C13 1_555 1_555
C16A C13A 1_555 1_555
H13A C16A 1_555 1_555
H14A C16A 1_555 1_555
C17A H15A 1_555 1_555
C18A H16A 1_555 1_555
C19A C14A 1_555 1_555
H17A C19A 1_555 1_555
H18A C19A 1_555 1_555
C20A H19A 1_555 1_555
C21A H20A 1_555 1_555
C22A C15A 1_555 1_555
H21A C22A 1_555 1_555
H22A C22A 1_555 1_555
C23A H23A 1_555 1_555
C24A H24A 1_555 1_555
N10A C17A 1_555 1_555
N11A C16A 1_555 1_555
N12A C18A 1_555 1_555
N13A C20A 1_555 1_555
N14A C19A 1_555 1_555
N15A C21A 1_555 1_555
N16A C23A 1_555 1_555
N17A C22A 1_555 1_555
N18A C24A 1_555 1_555
C34A C36 1_555 1_555
H28A C34A 1_555 1_555
C35A C34A 1_555 1_555
C36A C34 1_555 1_555
C37A C35A 1_555 1_555
C38A C36A 1_555 1_555
O7A C37A 1_555 1_555
O8A C37A 1_555 1_555
O9A C38A 1_555 1_555
Ag3A O7A 1_555 1_555
Ag1_2 O1_2 1_555 1_555
Ag2_2 N7 1_555 1_555
C25_2 C26_2 1_555 1_555
C26_2 C27_2 1_555 1_555
C27_2 H25_2 1_555 1_555
C28_2 C27_2 1_555 1_555
C29_2 C28_2 1_555 1_555
H26_2 C29_2 1_555 1_555
C30_2 C25_2 1_555 1_555
H27_2 C30_2 1_555 1_555
C31_2 C25_2 1_555 1_555
C32_2 C26_2 1_555 1_555
C33_2 C28_2 1_555 1_555
O1_2 Ag2_2 1_555 1_555
O2_2 C31_2 1_555 1_555
O3_2 C32_2 1_555 1_555
H29_2 O3_2 1_555 1_555
O4_2 C32_2 1_555 1_555
O5_2 C33_2 1_555 1_555
O6_2 C33_2 1_555 1_555
Ag1A N1A 1_555 1_555
Ag1A_2 N13A 1_555 1_555
Ag2A N10A 1_555 1_555
Ag2A_2 N7A 1_555 1_555
Ag3A_2 N4A 1_555 1_555
Ag3A_3 N16A 1_555 1_555
N1_2 Ag1_2 1_555 1_555
N4A_2 Ag3A 1_555 1_555
N7_2 Ag2 1_555 1_555
N10_2 Ag2_2 1_555 1_555
N13_2 Ag1_2 1_555 1_555
N16A_2 Ag3A 1_555 1_555
Ag2 O1 1_555 1_555
C5 N2 1_555 1_555
C6 N1 1_555 1_555
C8 N5 1_555 1_555
C9 N4 1_555 1_555
C11 N8 1_555 1_555
C12 N7 1_555 1_555
C17 N11 1_555 1_555
C18 N10 1_555 1_555
C20 N13 1_555 1_555
C20 N14 1_555 1_555
C21 N13 1_555 1_555
C23 N16 1_555 1_555
C23 N17 1_555 1_555
C24 N16 1_555 1_555
C29 C30 1_555 1_555
C31 O1 1_555 1_555
C37 O7 1_555 1_555
N2 N3 1_555 1_555
N5 N6 1_555 1_555
N8 N9 1_555 1_555
N11 N12 1_555 1_555
N14 N15 1_555 1_555
N17 N18 1_555 1_555
C43 C44 1_555 1_555
C2A C3A 1_555 1_555
C5A N2A 1_555 1_555
C6A N1A 1_555 1_555
C8A N5A 1_555 1_555
C9A N4A 1_555 1_555
C11A N8A 1_555 1_555
C12A N7A 1_555 1_555
N2A N3A 1_555 1_555
N5A N6A 1_555 1_555
N8A N9A 1_555 1_555
C14A C15A 1_555 1_555
C17A N11A 1_555 1_555
C18A N10A 1_555 1_555
C20A N14A 1_555 1_555
C21A N13A 1_555 1_555
C23A N17A 1_555 1_555
C24A N16A 1_555 1_555
N11A N12A 1_555 1_555
N14A N15A 1_555 1_555
N17A N18A 1_555 1_555
C35A C36A 1_555 1_555
C29_2 C30_2 1_555 1_555
C31_2 O1_2 1_555 1_555

#END
