
#######################################################################
#
#                 Cambridge Crystallographic Data Centre
#                                CCDC 
#
#######################################################################
#
# If this CIF has been generated from an entry in the Cambridge 
# Structural Database, then it will include bibliographic, chemical, 
# crystal, experimental, refinement or atomic coordinate data resulting 
# from the CCDC's data processing and validation procedures.
#
#######################################################################

data_YIPBIK
_symmetry_cell_setting           monoclinic
_symmetry_space_group_name_H-M   'C 2/c'
_symmetry_Int_Tables_number      15
_space_group_name_Hall           '-C 2yn'
loop_
_symmetry_equiv_pos_site_id
_symmetry_equiv_pos_as_xyz
1 x,y,z
2 -x,y,1/2-z
3 1/2+x,1/2+y,z
4 1/2-x,1/2+y,1/2-z
5 -x,-y,-z
6 x,-y,1/2+z
7 1/2-x,1/2-y,-z
8 1/2+x,1/2-y,1/2+z
_cell_length_a                   33.001(2)
_cell_length_b                   11.5470(4)
_cell_length_c                   19.8795(13)
_cell_angle_alpha                90
_cell_angle_beta                 124.041(9)
_cell_angle_gamma                90
_cell_volume                     6277.2
loop_
_atom_site_label
_atom_site_type_symbol
_atom_site_fract_x
_atom_site_fract_y
_atom_site_fract_z
Ag1 Ag 0.396588(8) 0.55683(2) 0.396346(13)
N1 N 0.33192(9) 0.4833(2) 0.39448(15)
N2 N 0.33558(8) 0.3826(2) 0.43184(14)
N3 N 0.44072(9) 0.4440(2) 0.51471(16)
N4 N 0.42122(8) 0.3445(2) 0.52147(14)
N5 N 0.09226(9) 0.2534(2) 0.10118(15)
N6 N 0.10555(9) 0.3101(2) 0.17008(14)
N7 N 0.11379(9) 0.0644(2) 0.22971(15)
N8 N 0.12663(9) 0.1650(2) 0.27201(15)
C1 C 0.33561(10) 0.2356(3) 0.30721(17)
C2 C 0.37790(10) 0.2652(3) 0.38294(17)
C3 C 0.42323(10) 0.2549(3) 0.39423(18)
H1 H 0.4519 0.2729 0.4457
C4 C 0.42754(11) 0.2190(3) 0.3322(2)
H2 H 0.4589 0.2121 0.3414
C5 C 0.38619(12) 0.1934(3) 0.2571(2)
H3 H 0.3890 0.1706 0.2140
C6 C 0.34066(11) 0.2010(3) 0.24455(18)
H4 H 0.3123 0.1824 0.1927
C7 C 0.37437(9) 0.3010(3) 0.45342(16)
H5 H 0.3670 0.2292 0.4728
C8 C 0.29336(11) 0.5362(3) 0.3843(2)
H6 H 0.2818 0.6099 0.3595
C9 C 0.27158(12) 0.4686(3) 0.4152(2)
H7 H 0.2434 0.4868 0.4149
C10 C 0.29989(10) 0.3710(3) 0.44553(17)
H8 H 0.2954 0.3075 0.4712
C11 C 0.48500(11) 0.4511(3) 0.5847(2)
H9 H 0.5075 0.5125 0.5982
C12 C 0.49377(11) 0.3566(3) 0.63497(18)
H10 H 0.5223 0.3416 0.6874
C13 C 0.45213(10) 0.2900(3) 0.59207(18)
H11 H 0.4463 0.2188 0.6092
C14 C 0.28549(10) 0.2372(3) 0.28994(16)
C15 C 0.25223(10) 0.3219(3) 0.23823(17)
H12 H 0.2616 0.3772 0.2139
C16 C 0.20580(10) 0.3256(3) 0.22240(17)
H13 H 0.1834 0.3830 0.1868
C17 C 0.19143(10) 0.2459(3) 0.25816(16)
C18 C 0.22401(10) 0.1599(3) 0.30785(17)
H14 H 0.2144 0.1039 0.3313
C19 C 0.27070(10) 0.1553(3) 0.32350(16)
H15 H 0.2927 0.0959 0.3573
C20 C 0.14361(10) 0.2651(3) 0.24974(17)
H16 H 0.1500 0.3273 0.2895
C21 C 0.06468(12) 0.3285(3) 0.0425(2)
H17 H 0.0493 0.3123 -0.0136
C22 C 0.06085(15) 0.4338(3) 0.0725(2)
H18 H 0.0436 0.5010 0.0426
C23 C 0.08778(13) 0.4186(3) 0.1555(2)
H19 H 0.0928 0.4741 0.1947
C24 C 0.10544(11) -0.0082(3) 0.27216(19)
H20 H 0.0949 -0.0860 0.2567
C25 C 0.11406(14) 0.0439(3) 0.3426(2)
H21 H 0.1110 0.0096 0.3830
C26 C 0.12779(12) 0.1541(3) 0.34057(19)
H22 H 0.1366 0.2126 0.3801
Ag1C Ag 0.103412(8) 0.05683(2) 0.103654(13)
N5C N 0.40774(9) 0.7534(2) 0.39882(15)
N7C N 0.38621(9) 0.5644(2) 0.27029(15)
S1 S 0.34533(3) 0.03951(7) 0.56124(5)
F1 F 0.35222(8) -0.1828(2) 0.54191(16)
F2 F 0.29469(11) -0.0968(3) 0.43675(13)
F3 F 0.28794(10) -0.1362(2) 0.53480(17)
O1 O 0.37980(11) 0.0585(2) 0.53977(19)
O2 O 0.30373(10) 0.1162(3) 0.52166(16)
O3 O 0.36601(11) 0.0228(2) 0.64574(14)
C27 C 0.31839(12) -0.1009(3) 0.5155(2)
C28 C 0.5000 0.1005(5) 0.2500
C29 C 0.46536(13) 0.1617(3) 0.1808(2)
H23 H 0.4416 0.1212 0.1330
C30 C 0.46554(13) 0.2827(3) 0.1814(3)
H24 H 0.4417 0.3240 0.1341
C31 C 0.5000 0.3429(5) 0.2500
H25 H 0.5000 0.4251 0.2500
C32 C 0.5000 -0.0291(5) 0.2500
C29A C 0.53464(13) 0.1617(3) 0.3192(2)
H23A H 0.5584 0.1212 0.3670
C30A C 0.53446(13) 0.2827(3) 0.3186(3)
H24A H 0.5583 0.3240 0.3659
H26? H 0.5125 -0.0574 0.2185
H27? H 0.4666 -0.0574 0.2256
H28? H 0.5209 -0.0574 0.3059
loop_
_geom_bond_atom_site_label_1
_geom_bond_atom_site_label_2
_geom_bond_site_symmetry_1
_geom_bond_site_symmetry_2
Ag1 N1 1_555 1_555
N1 N2 1_555 1_555
N2 C7 1_555 1_555
N3 Ag1 1_555 1_555
N4 N3 1_555 1_555
N5 N6 1_555 1_555
N6 C20 1_555 1_555
N7 N8 1_555 1_555
N8 C20 1_555 1_555
C1 C2 1_555 1_555
C2 C3 1_555 1_555
C3 H1 1_555 1_555
C4 C3 1_555 1_555
H2 C4 1_555 1_555
C5 C4 1_555 1_555
H3 C5 1_555 1_555
C6 C1 1_555 1_555
H4 C6 1_555 1_555
C7 N4 1_555 1_555
H5 C7 1_555 1_555
C8 N1 1_555 1_555
H6 C8 1_555 1_555
C9 C8 1_555 1_555
H7 C9 1_555 1_555
C10 N2 1_555 1_555
H8 C10 1_555 1_555
C11 N3 1_555 1_555
H9 C11 1_555 1_555
C12 C11 1_555 1_555
H10 C12 1_555 1_555
C13 N4 1_555 1_555
H11 C13 1_555 1_555
C14 C1 1_555 1_555
C15 C14 1_555 1_555
H12 C15 1_555 1_555
C16 C15 1_555 1_555
H13 C16 1_555 1_555
C17 C16 1_555 1_555
C18 C17 1_555 1_555
H14 C18 1_555 1_555
C19 C14 1_555 1_555
H15 C19 1_555 1_555
C20 C17 1_555 1_555
H16 C20 1_555 1_555
C21 N5 1_555 1_555
H17 C21 1_555 1_555
C22 C21 1_555 1_555
H18 C22 1_555 1_555
C23 N6 1_555 1_555
H19 C23 1_555 1_555
C24 N7 1_555 1_555
H20 C24 1_555 1_555
C25 C24 1_555 1_555
H21 C25 1_555 1_555
C26 N8 1_555 1_555
H22 C26 1_555 1_555
S1 O1 1_555 1_555
F1 C27 1_555 1_555
F2 C27 1_555 1_555
F3 C27 1_555 1_555
O2 S1 1_555 1_555
O3 S1 1_555 1_555
C27 S1 1_555 1_555
C28 C29 1_555 1_555
C29 H23 1_555 1_555
C30 C29 1_555 1_555
H24 C30 1_555 1_555
C31 C30 1_555 1_555
H25 C31 1_555 1_555
C32 C28 1_555 1_555
Ag1C N5 1_555 1_555
N5C Ag1 1_555 1_555
N7C Ag1 1_555 1_555
C29A C28 1_555 1_555
H23A C29A 1_555 1_555
C30A C31 1_555 1_555
H24A C30A 1_555 1_555
N7 Ag1C 1_555 1_555
C2 C7 1_555 1_555
C5 C6 1_555 1_555
C9 C10 1_555 1_555
C12 C13 1_555 1_555
C18 C19 1_555 1_555
C22 C23 1_555 1_555
C25 C26 1_555 1_555
C29A C30A 1_555 1_555

#END
