
#######################################################################
#
#                 Cambridge Crystallographic Data Centre
#                                CCDC 
#
#######################################################################
#
# If this CIF has been generated from an entry in the Cambridge 
# Structural Database, then it will include bibliographic, chemical, 
# crystal, experimental, refinement or atomic coordinate data resulting 
# from the CCDC's data processing and validation procedures.
#
#######################################################################

data_YIQBEF
_symmetry_cell_setting           monoclinic
_symmetry_space_group_name_H-M   'I 2/m'
_symmetry_Int_Tables_number      12
_space_group_name_Hall           '-I 2y'
loop_
_symmetry_equiv_pos_site_id
_symmetry_equiv_pos_as_xyz
1 x,y,z
2 1/2+x,1/2+y,1/2+z
3 -x,y,-z
4 1/2-x,1/2+y,1/2-z
5 -x,-y,-z
6 1/2-x,1/2-y,1/2-z
7 x,-y,z
8 1/2+x,1/2-y,1/2+z
_cell_length_a                   7.647(3)
_cell_length_b                   12.300(4)
_cell_length_c                   8.734(3)
_cell_angle_alpha                90
_cell_angle_beta                 91.47(3)
_cell_angle_gamma                90
_cell_volume                     821.233
loop_
_atom_site_label
_atom_site_type_symbol
_atom_site_fract_x
_atom_site_fract_y
_atom_site_fract_z
Mn1 Mn 0.2500 0.2500 0.7500
N1 N 0.0799(4) 0.0958(3) 0.7558(4)
C1 C -0.0948(5) 0.0945(3) 0.7628(5)
H1 H -0.1549(5) 0.1602(3) 0.7655(5)
C2 C -0.1869(8) 0.0000 0.7662(9)
H2 H -0.3083(8) 0.0000 0.7706(9)
C3 C 0.1567(7) 0.0000 0.7521(7)
H3 H 0.2780(7) 0.0000 0.7461(7)
N2 N 0.1471(5) 0.3097(4) 0.9671(4)
N3 N 0.0000 0.3092(4) 1.0000
N4 N 0.0350(4) 0.3368(3) 0.6313(4)
N5 N 0.0000 0.3366(4) 0.5000
C1F C -0.0948(5) -0.0945(3) 0.7628(5)
N1F N 0.0799(4) -0.0958(3) 0.7558(4)
H1F H -0.1549(5) -0.1602(3) 0.7655(5)
N2B N -0.1471(5) 0.3097(4) 1.0329(4)
N4B N -0.0350(4) 0.3368(3) 0.3687(4)
N1E N 0.4201(4) 0.4042(3) 0.7442(4)
N2E N 0.3529(5) 0.1903(4) 0.5329(4)
N4E N 0.4650(4) 0.1632(3) 0.8687(4)
Mn1F Mn 0.2500 -0.2500 0.7500
Mn1G Mn -0.2500 0.2500 1.2500
Mn1G_2 Mn -0.2500 0.2500 0.2500
loop_
_geom_bond_atom_site_label_1
_geom_bond_atom_site_label_2
_geom_bond_site_symmetry_1
_geom_bond_site_symmetry_2
Mn1 N1 1_555 1_555
N1 C1 1_555 1_555
C1 H1 1_555 1_555
C2 C1 1_555 1_555
H2 C2 1_555 1_555
C3 N1 1_555 1_555
H3 C3 1_555 1_555
N2 Mn1 1_555 1_555
N3 N2 1_555 1_555
N4 Mn1 1_555 1_555
N5 N4 1_555 1_555
C1F C2 1_555 1_555
N1F C3 1_555 1_555
H1F C1F 1_555 1_555
N2B N3 1_555 1_555
N4B N5 1_555 1_555
N1E Mn1 1_555 1_555
N2E Mn1 1_555 1_555
N4E Mn1 1_555 1_555
Mn1F N1F 1_555 1_555
Mn1G N2B 1_555 1_555
Mn1G_2 N4B 1_555 1_555
C1F N1F 1_555 1_555

#END
