
#######################################################################
#
#                 Cambridge Crystallographic Data Centre
#                                CCDC 
#
#######################################################################
#
# If this CIF has been generated from an entry in the Cambridge 
# Structural Database, then it will include bibliographic, chemical, 
# crystal, experimental, refinement or atomic coordinate data resulting 
# from the CCDC's data processing and validation procedures.
#
#######################################################################

data_YIQBIJ
_symmetry_cell_setting           orthorhombic
_symmetry_space_group_name_H-M   'P n m a'
_symmetry_Int_Tables_number      62
_space_group_name_Hall           '-P 2ac 2n'
loop_
_symmetry_equiv_pos_site_id
_symmetry_equiv_pos_as_xyz
1 x,y,z
2 1/2-x,-y,1/2+z
3 -x,1/2+y,-z
4 1/2+x,1/2-y,1/2-z
5 -x,-y,-z
6 1/2+x,y,1/2-z
7 x,1/2-y,z
8 1/2-x,1/2+y,1/2+z
_cell_length_a                   14.4875(14)
_cell_length_b                   19.943(2)
_cell_length_c                   14.4911(15)
_cell_angle_alpha                90
_cell_angle_beta                 90
_cell_angle_gamma                90
_cell_volume                     4186.83
loop_
_atom_site_label
_atom_site_type_symbol
_atom_site_fract_x
_atom_site_fract_y
_atom_site_fract_z
Cu1 Cu 0.5000 0.5000 0.5000
C1 C 0.6781(7) 0.5501(4) 0.5030(7)
C2 C 0.7735(9) 0.5549(6) 0.5015(7)
H1 H 0.8017 0.5968 0.5017
C3 C 0.7857(8) 0.4415(7) 0.4988(9)
H2 H 0.8212 0.4027 0.4975
C4 C 0.6895(9) 0.4405(6) 0.4996(9)
H3 H 0.6622 0.3983 0.4991
C5 C 0.6141(8) 0.6097(5) 0.5063(8)
N1 N 0.6333(8) 0.4912(4) 0.5009(7)
N2 N 0.8223(8) 0.5022(5) 0.5000(8)
O1 O 0.5285(5) 0.5971(4) 0.5054(6)
O2 O 0.6478(6) 0.6669(4) 0.5116(7)
Cu2 Cu 1.0000 0.5000 0.5000
C6 C 0.5005(8) 0.4459(6) 0.8211(9)
C7 C 0.5004(8) 0.4427(6) 0.7271(8)
H4 H 0.5021 0.4006 0.6994
C8 C 0.4935(9) 0.5597(6) 0.7175(9)
H5 H 0.4888 0.5989 0.6830
C9 C 0.4956(8) 0.5653(5) 0.8097(9)
H6 H 0.4948 0.6074 0.8372
C10 C 0.4991(8) 0.3907(5) 0.8850(8)
N3 N 0.4989(6) 0.5097(5) 0.8621(7)
N4 N 0.4981(7) 0.4989(4) 0.6701(9)
O3 O 0.4972(5) 0.4034(4) 0.9704(6)
O4 O 0.4973(6) 0.3336(4) 0.8529(7)
Cd1 Cd 0.54529(10) 0.7500 0.52082(11)
Cd2 Cd 0.30356(16) 0.7500 0.76096(17)
Cd3 Cd 0.48612(10) 0.2500 0.95301(10)
Cd4 Cd 0.23410(15) 0.2500 0.81054(15)
I1 I 0.49449(11) 0.7500 0.70368(12)
I2 I 0.24094(9) 0.62334(5) 0.74211(8)
I3 I 0.64700(11) 0.2500 1.04250(11)
I4 I 0.30262(10) 0.2500 1.00133(9)
I5 I 0.25909(10) 0.37435(7) 0.74313(9)
I6 I 0.46119(11) 0.7500 0.35584(11)
C1D C 0.3219(7) 0.4499(4) 0.4970(7)
C2D C 0.2265(9) 0.4451(6) 0.4985(7)
H1D H 0.1983 0.4032 0.4983
C3D C 0.2143(8) 0.5585(7) 0.5012(9)
H2D H 0.1788 0.5973 0.5025
C4D C 0.3105(9) 0.5595(6) 0.5004(9)
H3D H 0.3378 0.6017 0.5009
C5D C 0.3859(8) 0.3903(5) 0.4937(8)
N1D N 0.3667(8) 0.5088(4) 0.4991(7)
N2D N 0.1777(8) 0.4978(5) 0.5000(8)
O1D O 0.4715(5) 0.4029(4) 0.4946(6)
O2D O 0.3522(6) 0.3331(4) 0.4884(7)
C6D C 0.4995(8) 0.5541(6) 0.1789(9)
C7D C 0.4996(8) 0.5573(6) 0.2729(8)
H4D H 0.4979 0.5994 0.3006
C8D C 0.5065(9) 0.4403(6) 0.2825(9)
H5D H 0.5112 0.4011 0.3170
C9D C 0.5044(8) 0.4347(5) 0.1903(9)
H6D H 0.5052 0.3926 0.1628
C10D C 0.5009(8) 0.6093(5) 0.1150(8)
N3D N 0.5011(6) 0.4903(5) 0.1379(7)
N4D N 0.5019(7) 0.5011(4) 0.3299(9)
O3D O 0.5028(5) 0.5966(4) 0.0296(6)
O4D O 0.5027(6) 0.6664(4) 0.1471(7)
I2F I 0.24094(9) 0.87666(5) 0.74211(8)
I5F I 0.25909(10) 0.12565(7) 0.74313(9)
N2D_2 N 1.1777(8) 0.4978(5) 0.5000(8)
N3E N 0.9989(6) 0.5097(5) 0.6379(7)
N3A N 1.0011(6) 0.4903(5) 0.3621(7)
O3E O 0.9972(5) 0.4034(4) 0.5296(6)
O3A O 1.0028(5) 0.5966(4) 0.4704(6)
Cu2E Cu 0.5000 0.5000 1.0000
O2F O 0.6478(6) 0.8331(4) 0.5116(7)
I3D I 0.35300(11) 0.7500 0.95750(11)
O4F O 0.4973(6) 0.1664(4) 0.8529(7)
I6G I 0.03881(11) 0.2500 0.85584(11)
Cd2D Cd 0.69644(16) 0.2500 1.23904(17)
Cd4G Cd 0.26590(15) 0.7500 0.31054(15)
Cu2_2 Cu 0.0000 0.5000 0.5000
Cd1D Cd 0.45471(10) 0.2500 0.47918(11)
Cu2E_2 Cu 0.5000 0.5000 0.0000
Cd3D Cd 0.51388(10) 0.7500 0.04699(10)
loop_
_geom_bond_atom_site_label_1
_geom_bond_atom_site_label_2
_geom_bond_site_symmetry_1
_geom_bond_site_symmetry_2
Cu1 N1 1_555 1_555
C1 C2 1_555 1_555
C2 H1 1_555 1_555
C3 H2 1_555 1_555
C4 C3 1_555 1_555
H3 C4 1_555 1_555
C5 C1 1_555 1_555
N1 C1 1_555 1_555
N2 C2 1_555 1_555
O1 Cu1 1_555 1_555
O2 C5 1_555 1_555
Cu2 N2 1_555 1_555
C6 C7 1_555 1_555
C7 H4 1_555 1_555
C8 H5 1_555 1_555
C9 C8 1_555 1_555
H6 C9 1_555 1_555
C10 C6 1_555 1_555
N3 C6 1_555 1_555
N4 Cu1 1_555 1_555
O3 C10 1_555 1_555
O4 C10 1_555 1_555
Cd1 O2 1_555 1_555
Cd2 I1 1_555 1_555
Cd3 O4 1_555 1_555
Cd4 I4 1_555 1_555
I1 Cd1 1_555 1_555
I2 Cd2 1_555 1_555
I3 Cd3 1_555 1_555
I4 Cd3 1_555 1_555
I5 Cd4 1_555 1_555
I6 Cd1 1_555 1_555
C1D C2D 1_555 1_555
C2D H1D 1_555 1_555
C3D H2D 1_555 1_555
C4D C3D 1_555 1_555
H3D C4D 1_555 1_555
C5D C1D 1_555 1_555
N1D Cu1 1_555 1_555
N2D C2D 1_555 1_555
O1D Cu1 1_555 1_555
O2D C5D 1_555 1_555
C6D C7D 1_555 1_555
C7D H4D 1_555 1_555
C8D H5D 1_555 1_555
C9D C8D 1_555 1_555
H6D C9D 1_555 1_555
C10D C6D 1_555 1_555
N3D C6D 1_555 1_555
N4D Cu1 1_555 1_555
O3D C10D 1_555 1_555
O4D C10D 1_555 1_555
I2F Cd2 1_555 1_555
I5F Cd4 1_555 1_555
N2D_2 Cu2 1_555 1_555
N3E Cu2 1_555 1_555
N3A Cu2 1_555 1_555
O3E Cu2 1_555 1_555
O3A Cu2 1_555 1_555
Cu2E N3 1_555 1_555
O2F Cd1 1_555 1_555
I3D Cd2 1_555 1_555
O4F Cd3 1_555 1_555
I6G Cd4 1_555 1_555
Cd2D I3 1_555 1_555
Cd4G I6 1_555 1_555
Cu2_2 N2D 1_555 1_555
Cd1D O2D 1_555 1_555
Cu2E_2 N3D 1_555 1_555
Cd3D O4D 1_555 1_555
C3 N2 1_555 1_555
C4 N1 1_555 1_555
C5 O1 1_555 1_555
C7 N4 1_555 1_555
C8 N4 1_555 1_555
C9 N3 1_555 1_555
O3 Cu2E 1_555 1_555
C1D N1D 1_555 1_555
C3D N2D 1_555 1_555
C4D N1D 1_555 1_555
C5D O1D 1_555 1_555
C7D N4D 1_555 1_555
C8D N4D 1_555 1_555
C9D N3D 1_555 1_555
O3D Cu2E_2 1_555 1_555

#END
