
#######################################################################
#
#                 Cambridge Crystallographic Data Centre
#                                CCDC 
#
#######################################################################
#
# If this CIF has been generated from an entry in the Cambridge 
# Structural Database, then it will include bibliographic, chemical, 
# crystal, experimental, refinement or atomic coordinate data resulting 
# from the CCDC's data processing and validation procedures.
#
#######################################################################

data_YIQBAB
_symmetry_cell_setting           orthorhombic
_symmetry_space_group_name_H-M   'P n a 21'
_symmetry_Int_Tables_number      33
_space_group_name_Hall           'P 2c -2n'
loop_
_symmetry_equiv_pos_site_id
_symmetry_equiv_pos_as_xyz
1 x,y,z
2 -x,-y,1/2+z
3 1/2-x,1/2+y,1/2+z
4 1/2+x,1/2-y,z
_cell_length_a                   14.620(4)
_cell_length_b                   8.551(2)
_cell_length_c                   13.214(3)
_cell_angle_alpha                90
_cell_angle_beta                 90
_cell_angle_gamma                90
_cell_volume                     1651.96
loop_
_atom_site_label
_atom_site_type_symbol
_atom_site_fract_x
_atom_site_fract_y
_atom_site_fract_z
Mn1 Mn 0.35449(5) 0.04355(9) 0.73628(7)
Mn2 Mn 0.24315(5) -0.31930(9) 0.80301(7)
N1 N 0.3347(4) -0.1368(6) 0.8518(4)
N2 N 0.3767(3) -0.1233(6) 0.9285(4)
N3 N 0.4162(5) -0.1083(8) 1.0023(4)
N4 N 0.3328(4) 0.4991(6) 0.8572(5)
N5 N 0.3284(3) 0.3613(6) 0.8508(4)
N6 N 0.3258(4) 0.2249(6) 0.8480(4)
N7 N 0.3568(4) 0.2074(6) 0.6111(4)
N8 N 0.3511(3) 0.1966(6) 0.5223(4)
N9 N 0.3488(4) 0.1885(7) 0.4342(4)
N10 N 0.5013(3) 0.0546(6) 0.7619(4)
N11 N 0.5758(3) 0.0201(5) 0.7469(5)
N12 N 0.6531(3) -0.0110(5) 0.7307(6)
N13 N 0.3683(3) -0.1671(6) 0.6261(4)
N14 N 0.3110(3) -0.2894(6) 0.6404(4)
C1 C 0.3004(4) -0.3957(7) 0.5696(5)
H1 H 0.2580(4) -0.4752(7) 0.5795(5)
C2 C 0.3513(5) -0.3930(8) 0.4789(5)
H2 H 0.3438(5) -0.4705(8) 0.4302(5)
C3 C 0.4116(5) -0.2742(7) 0.4649(5)
H3 H 0.4476(5) -0.2683(7) 0.4070(5)
C4 C 0.4174(4) -0.1611(7) 0.5410(5)
H4 H 0.4573(4) -0.0777(7) 0.5319(5)
N15 N 0.1541(3) -0.1159(5) 0.7454(5)
N16 N 0.1972(3) 0.0099(5) 0.7056(4)
C5 C 0.1493(4) 0.1209(7) 0.6625(5)
H5 H 0.1802(4) 0.2051(7) 0.6339(5)
C6 C 0.0530(4) 0.1185(7) 0.6574(5)
H6 H 0.0202(4) 0.1979(7) 0.6258(5)
C7 C 0.0102(4) -0.0066(7) 0.7014(5)
H7 H -0.0533(4) -0.0132(7) 0.7029(5)
C8 C 0.0637(4) -0.1226(6) 0.7436(6)
H8 H 0.0350(4) -0.2092(6) 0.7719(6)
N4_2 N 0.3328(4) -0.5009(6) 0.8572(5)
N9B N 0.1512(4) -0.3115(7) 0.9342(4)
N12C N 0.1531(3) -0.4890(5) 0.7307(6)
Mn2_2 Mn 0.24315(5) 0.68070(9) 0.80301(7)
Mn2B Mn 0.25685(5) 0.18070(9) 0.30301(7)
Mn2C Mn 0.74315(5) -0.18070(9) 0.80301(7)
loop_
_geom_bond_atom_site_label_1
_geom_bond_atom_site_label_2
_geom_bond_site_symmetry_1
_geom_bond_site_symmetry_2
Mn1 N1 1_555 1_555
Mn2 N1 1_555 1_555
N1 N2 1_555 1_555
N2 N3 1_555 1_555
N4 N5 1_555 1_555
N5 N6 1_555 1_555
N6 Mn1 1_555 1_555
N7 Mn1 1_555 1_555
N8 N7 1_555 1_555
N9 N8 1_555 1_555
N10 Mn1 1_555 1_555
N11 N10 1_555 1_555
N12 N11 1_555 1_555
N13 Mn1 1_555 1_555
N14 Mn2 1_555 1_555
C1 N14 1_555 1_555
H1 C1 1_555 1_555
C2 C1 1_555 1_555
H2 C2 1_555 1_555
C3 C2 1_555 1_555
H3 C3 1_555 1_555
C4 N13 1_555 1_555
H4 C4 1_555 1_555
N15 Mn2 1_555 1_555
N16 Mn1 1_555 1_555
C5 N16 1_555 1_555
H5 C5 1_555 1_555
C6 C5 1_555 1_555
H6 C6 1_555 1_555
C7 C6 1_555 1_555
H7 C7 1_555 1_555
C8 N15 1_555 1_555
H8 C8 1_555 1_555
N4_2 Mn2 1_555 1_555
N9B Mn2 1_555 1_555
N12C Mn2 1_555 1_555
Mn2_2 N4 1_555 1_555
Mn2B N9 1_555 1_555
Mn2C N12 1_555 1_555
N13 N14 1_555 1_555
C3 C4 1_555 1_555
N15 N16 1_555 1_555
C7 C8 1_555 1_555

#END
