
#######################################################################
#
#                 Cambridge Crystallographic Data Centre
#                                CCDC 
#
#######################################################################
#
# If this CIF has been generated from an entry in the Cambridge 
# Structural Database, then it will include bibliographic, chemical, 
# crystal, experimental, refinement or atomic coordinate data resulting 
# from the CCDC's data processing and validation procedures.
#
#######################################################################

data_YIQMOA
_symmetry_cell_setting           orthorhombic
_symmetry_space_group_name_H-M   'P n a 21'
_symmetry_Int_Tables_number      33
_space_group_name_Hall           'P 2c -2n'
loop_
_symmetry_equiv_pos_site_id
_symmetry_equiv_pos_as_xyz
1 x,y,z
2 -x,-y,1/2+z
3 1/2+x,1/2-y,z
4 1/2-x,1/2+y,1/2+z
_cell_length_a                   7.8183(6)
_cell_length_b                   11.2915(10)
_cell_length_c                   11.0574(8)
_cell_angle_alpha                90
_cell_angle_beta                 90
_cell_angle_gamma                90
_cell_volume                     976.151
loop_
_atom_site_label
_atom_site_type_symbol
_atom_site_fract_x
_atom_site_fract_y
_atom_site_fract_z
Na1 Na 0.51387(6) 0.72476(5) 0.80322(5)
N1 N 0.24932(15) 0.46538(10) 1.05923(10)
S1 S 0.26387(4) 0.59943(2) 1.01788(3)
S2 S 0.14089(3) 0.44659(2) 1.17889(3)
O1 O 0.43788(16) 0.62327(12) 0.98259(11)
O2 O 0.13848(17) 0.63138(10) 0.92809(11)
O3 O 0.22501(12) 0.36345(9) 1.25885(9)
O4 O -0.03503(12) 0.41436(9) 1.15608(9)
C1 C 0.21078(16) 0.67083(11) 1.15513(11)
C2 C 0.14881(15) 0.59134(12) 1.23903(12)
C3 C 0.09543(19) 0.62710(14) 1.35298(13)
H1 H 0.0528 0.5720 1.4105
C4 C 0.1071(2) 0.74738(15) 1.37917(14)
H2 H 0.0734 0.7750 1.4568
C5 C 0.1670(2) 0.82769(14) 1.29456(15)
H3 H 0.1717 0.9094 1.3146
C6 C 0.22048(19) 0.79054(12) 1.18020(14)
H4 H 0.2619 0.8454 1.1220
O5 O 0.39813(15) 0.60870(12) 0.65340(12)
H5 H 0.445(3) 0.568(2) 0.605(2)
H6 H 0.299(3) 0.597(2) 0.647(3)
O2B O 0.63848(17) 0.86862(10) 0.92809(11)
O3A O 0.77499(12) 0.63655(9) 0.75885(9)
O3C O 0.27499(12) 0.86345(9) 0.75885(9)
O4C O 0.53503(12) 0.91436(9) 0.65608(9)
Na1B Na 0.01387(6) 0.77524(5) 0.80322(5)
Na1A Na 0.48613(6) 0.27524(5) 1.30322(5)
Na1C Na -0.01387(6) 0.22476(5) 1.30322(5)
loop_
_geom_bond_atom_site_label_1
_geom_bond_atom_site_label_2
_geom_bond_site_symmetry_1
_geom_bond_site_symmetry_2
Na1 O1 1_555 1_555
N1 S1 1_555 1_555
S1 O1 1_555 1_555
S2 N1 1_555 1_555
O2 S1 1_555 1_555
O3 S2 1_555 1_555
O4 S2 1_555 1_555
C1 S1 1_555 1_555
C2 S2 1_555 1_555
C3 C2 1_555 1_555
H1 C3 1_555 1_555
C4 C3 1_555 1_555
H2 C4 1_555 1_555
C5 C4 1_555 1_555
H3 C5 1_555 1_555
C6 C1 1_555 1_555
H4 C6 1_555 1_555
O5 Na1 1_555 1_555
H5 O5 1_555 1_555
H6 O5 1_555 1_555
O2B Na1 1_555 1_555
O3A Na1 1_555 1_555
O3C Na1 1_555 1_555
O4C Na1 1_555 1_555
Na1B O2 1_555 1_555
Na1A O3 1_555 1_555
Na1C O3 1_555 1_555
O4 Na1C 1_555 1_555
C1 C2 1_555 1_555
C5 C6 1_555 1_555
O3C Na1B 1_555 1_555

#END
