
#######################################################################
#
#                 Cambridge Crystallographic Data Centre
#                                CCDC 
#
#######################################################################
#
# If this CIF has been generated from an entry in the Cambridge 
# Structural Database, then it will include bibliographic, chemical, 
# crystal, experimental, refinement or atomic coordinate data resulting 
# from the CCDC's data processing and validation procedures.
#
#######################################################################

data_YIQRIB
_symmetry_cell_setting           triclinic
_symmetry_space_group_name_H-M   'P -1'
_symmetry_Int_Tables_number      2
_space_group_name_Hall           '-P 1'
loop_
_symmetry_equiv_pos_site_id
_symmetry_equiv_pos_as_xyz
1 x,y,z
2 -x,-y,-z
_cell_length_a                   12.1354(4)
_cell_length_b                   14.6261(6)
_cell_length_c                   20.1880(9)
_cell_angle_alpha                84.883(2)
_cell_angle_beta                 81.411(2)
_cell_angle_gamma                66.600(2)
_cell_volume                     3249.89
loop_
_atom_site_label
_atom_site_type_symbol
_atom_site_fract_x
_atom_site_fract_y
_atom_site_fract_z
Mn1 Mn 0.07820(4) 0.07325(4) 0.97932(2)
Mn2 Mn 0.11896(4) -0.01009(4) 0.83376(2)
Mn3 Mn 0.34404(4) -0.08217(4) 0.92126(3)
Mn4 Mn 0.49430(4) 0.42386(4) 0.56331(2)
Mn5 Mn 0.66162(4) 0.21106(4) 0.49389(3)
Mn6 Mn 0.41643(4) 0.36133(4) 0.43223(2)
O1 O 0.17766(19) -0.01940(17) 0.91548(11)
O2 O -0.0260(2) 0.16048(19) 1.04446(12)
O3 O 0.3323(2) -0.01448(19) 1.00015(12)
O4 O 0.05460(19) -0.02111(19) 0.75917(12)
O5 O -0.06218(19) 0.06486(18) 0.95042(11)
O6 O 0.5064(2) -0.1551(2) 0.93199(13)
O7 O 0.2734(2) -0.09852(19) 0.79307(12)
O8 O 0.51974(18) 0.32950(17) 0.49949(11)
O9 O 0.49525(19) 0.52382(17) 0.61713(11)
O10 O 0.72014(19) 0.25113(18) 0.56527(12)
O11 O 0.7983(2) 0.09258(18) 0.48895(12)
O12 O 0.51714(19) 0.24722(18) 0.38268(12)
O13 O 0.30891(19) 0.39477(18) 0.36857(12)
O14 O 0.37010(18) 0.52663(17) 0.51524(11)
O15 O 0.0885(2) 0.19246(18) 0.91192(12)
O16 O 0.1252(2) 0.1314(2) 0.80937(13)
O17 O 0.3653(2) 0.39895(18) 0.63691(12)
O18 O 0.3497(2) 0.25362(18) 0.62778(12)
O19 O 0.3827(2) 0.0439(2) 0.86234(13)
O20 O 0.3016(2) 0.29218(19) 0.49645(14)
O21 O 0.5582(2) 0.13974(19) 0.56421(13)
O22 O 0.7502(2) 0.2943(2) 0.41901(16)
O23 O 0.2905(3) -0.2078(2) 0.96955(16)
N1 N 0.2212(2) 0.0534(2) 1.02543(14)
N2 N -0.0493(2) 0.0491(2) 0.88237(14)
N3 N 0.3659(2) -0.1410(2) 0.83268(14)
N4 N 0.6367(2) 0.3260(2) 0.60386(14)
N5 N 0.6118(2) 0.1753(2) 0.41238(14)
N6 N 0.3116(2) 0.4882(2) 0.47802(14)
N7 N 0.2115(3) 0.4940(3) 0.87324(16)
N8 N 0.1391(3) 0.5182(3) 0.92544(17)
N9 N 0.0771(4) 0.5520(3) 0.9723(2)
C1 C -0.0041(3) 0.1906(3) 1.09917(18)
C2 C -0.1024(3) 0.2533(3) 1.14167(19)
H1 H -0.1802 0.2734 1.1302
C3 C -0.0864(3) 0.2860(3) 1.2002(2)
H2 H -0.1532 0.3272 1.2277
C4 C 0.0293(4) 0.2575(3) 1.2183(2)
H3 H 0.0400 0.2793 1.2578
C5 C 0.1277(3) 0.1969(3) 1.17712(19)
H4 H 0.2049 0.1785 1.1891
C6 C 0.1139(3) 0.1622(3) 1.11758(18)
C7 C 0.2208(3) 0.0954(3) 1.07887(17)
H5 H 0.2950 0.0815 1.0936
C8 C -0.0577(3) 0.0151(3) 0.74345(17)
C9 C -0.0756(3) 0.0059(3) 0.67838(17)
H6 H -0.0090 -0.0253 0.6472
C10 C -0.1904(3) 0.0422(3) 0.65907(19)
H7 H -0.1999 0.0361 0.6150
C11 C -0.2920(3) 0.0877(3) 0.70525(18)
H8 H -0.3693 0.1110 0.6925
C12 C -0.2763(3) 0.0976(3) 0.76967(19)
H9 H -0.3439 0.1277 0.8006
C13 C -0.1595(3) 0.0632(3) 0.79026(17)
C14 C -0.1507(3) 0.0772(3) 0.85782(17)
H10 H -0.2220 0.1084 0.8859
C15 C 0.5854(3) -0.2356(3) 0.89994(18)
C16 C 0.6928(3) -0.2924(3) 0.92789(19)
H11 H 0.7048 -0.2748 0.9686
C17 C 0.7800(3) -0.3736(3) 0.8955(2)
H12 H 0.8505 -0.4104 0.9146
C18 C 0.7641(3) -0.4011(3) 0.8348(2)
H13 H 0.8238 -0.4558 0.8132
C19 C 0.6602(3) -0.3473(3) 0.8070(2)
H14 H 0.6499 -0.3662 0.7663
C20 C 0.5688(3) -0.2644(3) 0.83853(18)
C21 C 0.4609(3) -0.2115(3) 0.80559(19)
H15 H 0.4606 -0.2295 0.7626
C22 C 0.5021(3) 0.5042(3) 0.68344(17)
C23 C 0.4339(3) 0.5784(3) 0.72832(18)
H16 H 0.3837 0.6405 0.7125
C24 C 0.4398(3) 0.5607(3) 0.79653(18)
H17 H 0.3932 0.6109 0.8262
C25 C 0.5144(4) 0.4690(3) 0.82079(19)
H18 H 0.5172 0.4570 0.8667
C26 C 0.5841(3) 0.3961(3) 0.77669(19)
H19 H 0.6353 0.3348 0.7932
C27 C 0.5805(3) 0.4112(3) 0.70746(17)
C28 C 0.6579(3) 0.3307(3) 0.66360(18)
H20 H 0.7252 0.2808 0.6794
C29 C 0.8284(3) 0.0116(3) 0.45360(17)
C30 C 0.9280(3) -0.0740(3) 0.46870(18)
H21 H 0.9678 -0.0743 0.5047
C31 C 0.9681(3) -0.1577(3) 0.43105(19)
H22 H 1.0349 -0.2136 0.4417
C32 C 0.9093(3) -0.1593(3) 0.3770(2)
H23 H 0.9365 -0.2159 0.3517
C33 C 0.8108(3) -0.0764(3) 0.36182(19)
H24 H 0.7714 -0.0770 0.3258
C34 C 0.7687(3) 0.0095(3) 0.39985(17)
C35 C 0.6660(3) 0.0948(3) 0.37954(17)
H25 H 0.6374 0.0909 0.3401
C36 C 0.1898(3) 0.4446(3) 0.37990(17)
C37 C 0.1168(3) 0.4240(3) 0.34056(19)
H26 H 0.1520 0.3745 0.3091
C38 C -0.0073(3) 0.4770(3) 0.3483(2)
H27 H -0.0543 0.4634 0.3213
C39 C -0.0628(3) 0.5502(3) 0.3956(2)
H28 H -0.1464 0.5842 0.4011
C40 C 0.0078(3) 0.5718(3) 0.4343(2)
H29 H -0.0284 0.6222 0.4651
C41 C 0.1340(3) 0.5184(3) 0.42789(18)
C42 C 0.2013(3) 0.5439(3) 0.47056(17)
H30 H 0.1637 0.6028 0.4937
C43 C 0.1733(3) 0.2696(3) 0.82263(17)
C44 C 0.1644(3) 0.3455(3) 0.86275(18)
H31 H 0.1273 0.3493 0.9068
C45 C 0.2115(3) 0.4158(3) 0.83638(18)
C46 C 0.2674(3) 0.4102(3) 0.77096(18)
H32 H 0.2996 0.4567 0.7538
C47 C 0.2754(3) 0.3343(3) 0.73082(17)
C48 C 0.2276(3) 0.2647(3) 0.75698(17)
H33 H 0.2322 0.2145 0.7302
C49 C 0.1262(3) 0.1912(3) 0.85035(17)
C50 C 0.3351(3) 0.3277(3) 0.66000(17)
C51 C 0.4503(3) 0.0357(3) 0.79779(19)
H34 H 0.4542 0.0988 0.7835
H35 H 0.4117 0.0163 0.7666
H36 H 0.5307 -0.0137 0.7997
C52 C 0.2878(4) 0.2087(3) 0.4730(2)
H37 H 0.2366 0.1875 0.5062
H38 H 0.3656 0.1551 0.4650
H39 H 0.2517 0.2273 0.4321
C53 C 0.5659(3) 0.0405(3) 0.5719(2)
H40 H 0.5063 0.0360 0.6077
H41 H 0.6451 -0.0028 0.5822
H42 H 0.5513 0.0208 0.5310
C54 C 0.8621(5) 0.2646(4) 0.3850(4)
H43 H 0.8699 0.3190 0.3573
H44 H 0.8753 0.2101 0.3574
H45 H 0.9208 0.2434 0.4161
H46 H 0.721(4) 0.347(3) 0.430(2)
H47 H 0.318(4) 0.276(3) 0.529(2)
H48 H 0.495(5) 0.181(4) 0.582(3)
H49 H 0.411(5) 0.077(4) 0.882(3)
H50 H 0.219(4) -0.187(3) 0.973(2)
H51 H 0.330(4) -0.2792(17) 0.979(3)
Mn1A Mn -0.07820(4) -0.07325(4) 1.02068(2)
Mn4A Mn 0.50570(4) 0.57614(4) 0.43669(2)
Mn6A Mn 0.58357(4) 0.63867(4) 0.56777(2)
O5A O 0.06218(19) -0.06486(18) 1.04958(11)
O9A O 0.50475(19) 0.47618(17) 0.38287(11)
O14A O 0.62990(18) 0.47337(17) 0.48476(11)
O24 O 0.5305(5) 0.8500(3) 0.0760(2)
C55 C 0.5245(4) 0.7575(3) 0.0938(2)
O25 O 0.1209(4) -0.2728(4) 1.2185(3)
C56 C 0.1144(7) -0.3599(5) 1.2512(5)
C57 C 0.1533(14) -0.3466(12) 1.0993(8)
O26 O 0.2573(8) -0.3087(7) 1.0895(5)
O27 O 0.3649(13) -0.3839(12) 1.0311(7)
C58 C 0.4122(18) -0.4925(19) 1.0005(12)
loop_
_geom_bond_atom_site_label_1
_geom_bond_atom_site_label_2
_geom_bond_site_symmetry_1
_geom_bond_site_symmetry_2
Mn1 O1 1_555 1_555
Mn2 O1 1_555 1_555
Mn3 O1 1_555 1_555
Mn4 O8 1_555 1_555
Mn5 O8 1_555 1_555
Mn6 O8 1_555 1_555
O2 Mn1 1_555 1_555
O3 Mn3 1_555 1_555
O4 Mn2 1_555 1_555
O5 Mn1 1_555 1_555
O6 Mn3 1_555 1_555
O7 Mn2 1_555 1_555
O9 Mn4 1_555 1_555
O10 Mn5 1_555 1_555
O11 Mn5 1_555 1_555
O12 Mn6 1_555 1_555
O13 Mn6 1_555 1_555
O14 Mn4 1_555 1_555
O15 Mn1 1_555 1_555
O16 Mn2 1_555 1_555
O17 Mn4 1_555 1_555
O18 C50 1_555 1_555
O19 Mn3 1_555 1_555
O20 Mn6 1_555 1_555
O21 Mn5 1_555 1_555
O22 Mn5 1_555 1_555
O23 Mn3 1_555 1_555
N1 Mn1 1_555 1_555
N2 Mn2 1_555 1_555
N3 Mn3 1_555 1_555
N4 Mn4 1_555 1_555
N5 Mn5 1_555 1_555
N6 Mn6 1_555 1_555
N7 N8 1_555 1_555
N8 N9 1_555 1_555
C1 O2 1_555 1_555
C2 C1 1_555 1_555
H1 C2 1_555 1_555
C3 C2 1_555 1_555
H2 C3 1_555 1_555
C4 C3 1_555 1_555
H3 C4 1_555 1_555
C5 C4 1_555 1_555
H4 C5 1_555 1_555
C6 C1 1_555 1_555
C7 N1 1_555 1_555
H5 C7 1_555 1_555
C8 O4 1_555 1_555
C9 C8 1_555 1_555
H6 C9 1_555 1_555
C10 C9 1_555 1_555
H7 C10 1_555 1_555
C11 C10 1_555 1_555
H8 C11 1_555 1_555
C12 C11 1_555 1_555
H9 C12 1_555 1_555
C13 C8 1_555 1_555
C14 N2 1_555 1_555
H10 C14 1_555 1_555
C15 O6 1_555 1_555
C16 C15 1_555 1_555
H11 C16 1_555 1_555
C17 C16 1_555 1_555
H12 C17 1_555 1_555
C18 C17 1_555 1_555
H13 C18 1_555 1_555
C19 C18 1_555 1_555
H14 C19 1_555 1_555
C20 C15 1_555 1_555
C21 N3 1_555 1_555
H15 C21 1_555 1_555
C22 O9 1_555 1_555
C23 C22 1_555 1_555
H16 C23 1_555 1_555
C24 C23 1_555 1_555
H17 C24 1_555 1_555
C25 C24 1_555 1_555
H18 C25 1_555 1_555
C26 C25 1_555 1_555
H19 C26 1_555 1_555
C27 C22 1_555 1_555
C28 N4 1_555 1_555
H20 C28 1_555 1_555
C29 O11 1_555 1_555
C30 C29 1_555 1_555
H21 C30 1_555 1_555
C31 C30 1_555 1_555
H22 C31 1_555 1_555
C32 C31 1_555 1_555
H23 C32 1_555 1_555
C33 C32 1_555 1_555
H24 C33 1_555 1_555
C34 C29 1_555 1_555
C35 N5 1_555 1_555
H25 C35 1_555 1_555
C36 O13 1_555 1_555
C37 C36 1_555 1_555
H26 C37 1_555 1_555
C38 C37 1_555 1_555
H27 C38 1_555 1_555
C39 C38 1_555 1_555
H28 C39 1_555 1_555
C40 C39 1_555 1_555
H29 C40 1_555 1_555
C41 C36 1_555 1_555
C42 N6 1_555 1_555
H30 C42 1_555 1_555
C43 C44 1_555 1_555
C44 H31 1_555 1_555
C45 N7 1_555 1_555
C46 C45 1_555 1_555
H32 C46 1_555 1_555
C47 C46 1_555 1_555
C48 C43 1_555 1_555
H33 C48 1_555 1_555
C49 O15 1_555 1_555
C50 O17 1_555 1_555
C51 O19 1_555 1_555
H34 C51 1_555 1_555
H35 C51 1_555 1_555
H36 C51 1_555 1_555
C52 O20 1_555 1_555
H37 C52 1_555 1_555
H38 C52 1_555 1_555
H39 C52 1_555 1_555
C53 O21 1_555 1_555
H40 C53 1_555 1_555
H41 C53 1_555 1_555
H42 C53 1_555 1_555
C54 O22 1_555 1_555
H43 C54 1_555 1_555
H44 C54 1_555 1_555
H45 C54 1_555 1_555
H46 O22 1_555 1_555
H47 O20 1_555 1_555
H48 O21 1_555 1_555
H49 O19 1_555 1_555
H50 O23 1_555 1_555
H51 O23 1_555 1_555
O24 C55 1_555 1_555
O25 C56 1_555 1_555
C57 O26 1_555 1_555
O27 C58 1_555 1_555
Mn1A O5 1_555 1_555
Mn4A O14 1_555 1_555
Mn6A O9 1_555 1_555
O5A Mn1 1_555 1_555
O9A Mn6 1_555 1_555
O14A Mn4 1_555 1_555
O3 N1 1_555 1_555
O5 N2 1_555 1_555
O7 N3 1_555 1_555
O10 N4 1_555 1_555
O12 N5 1_555 1_555
O14 N6 1_555 1_555
O16 C49 1_555 1_555
C5 C6 1_555 1_555
C6 C7 1_555 1_555
C12 C13 1_555 1_555
C13 C14 1_555 1_555
C19 C20 1_555 1_555
C20 C21 1_555 1_555
C26 C27 1_555 1_555
C27 C28 1_555 1_555
C33 C34 1_555 1_555
C34 C35 1_555 1_555
C40 C41 1_555 1_555
C41 C42 1_555 1_555
C43 C49 1_555 1_555
C44 C45 1_555 1_555
C47 C48 1_555 1_555
C47 C50 1_555 1_555
Mn1A O5A 1_555 1_555
Mn4A O9A 1_555 1_555
Mn4A O14A 1_555 1_555

#END
