
#######################################################################
#
#                 Cambridge Crystallographic Data Centre
#                                CCDC 
#
#######################################################################
#
# If this CIF has been generated from an entry in the Cambridge 
# Structural Database, then it will include bibliographic, chemical, 
# crystal, experimental, refinement or atomic coordinate data resulting 
# from the CCDC's data processing and validation procedures.
#
#######################################################################

data_YIQROH
_symmetry_cell_setting           monoclinic
_symmetry_space_group_name_H-M   'P 21/n'
_symmetry_Int_Tables_number      14
_space_group_name_Hall           '-P 2yn'
loop_
_symmetry_equiv_pos_site_id
_symmetry_equiv_pos_as_xyz
1 x,y,z
2 1/2-x,1/2+y,1/2-z
3 -x,-y,-z
4 1/2+x,1/2-y,1/2+z
_cell_length_a                   15.569(3)
_cell_length_b                   16.582(3)
_cell_length_c                   15.963(3)
_cell_angle_alpha                90
_cell_angle_beta                 100.74(3)
_cell_angle_gamma                90
_cell_volume                     4048.9
loop_
_atom_site_label
_atom_site_type_symbol
_atom_site_fract_x
_atom_site_fract_y
_atom_site_fract_z
Na1 Na 0.2915(3) -0.1045(2) 0.6712(3)
Mn1 Mn 0.31097(11) 0.10862(9) 0.76466(13)
Mn2 Mn 0.13980(11) 0.21027(10) 0.76909(13)
Mn3 Mn 0.14889(11) 0.02518(9) 0.83574(13)
O1 O 0.2071(4) 0.1192(4) 0.8084(5)
O2 O 0.4151(5) 0.0999(4) 0.7200(5)
O3 O 0.2398(5) 0.2717(4) 0.7567(5)
O4 O 0.0805(6) 0.3087(4) 0.7461(5)
O5 O 0.0387(4) 0.0791(4) 0.8279(5)
O6 O 0.1007(5) -0.0681(4) 0.8770(5)
O7 O 0.3175(5) -0.0059(4) 0.7876(6)
O8 O 0.1096(5) 0.1683(5) 0.6410(6)
O9 O 0.2398(6) 0.1035(4) 0.6390(6)
O10 O -0.1159(5) 0.0230(5) 0.2946(6)
O11 O -0.1434(5) 0.1042(5) 0.3995(6)
O12 O 0.2862(7) -0.0345(5) 0.3872(7)
O13 O 0.1825(7) -0.0522(6) 0.2783(8)
O14 O 0.3930(5) 0.1282(4) 0.8987(5)
O15 O 0.1802(5) 0.2691(4) 0.9110(6)
O16 O 0.1745(6) 0.0604(5) 0.9752(6)
O17 O 0.3800(6) -0.0247(6) 0.6056(8)
N1 N 0.3155(7) 0.2291(5) 0.7545(6)
N2 N 0.0335(6) 0.1582(6) 0.7996(6)
N3 N 0.2628(6) -0.0332(6) 0.8402(8)
N4 N 0.2104(10) -0.0269(6) 0.3504(11)
C1 C 0.4772(9) 0.1557(7) 0.7184(8)
C2 C 0.5567(9) 0.1313(7) 0.7008(8)
H1 H 0.5654 0.0770 0.6904
C3 C 0.6227(8) 0.1846(7) 0.6981(8)
H2 H 0.6760 0.1661 0.6874
C4 C 0.6109(9) 0.2674(7) 0.7114(8)
H3 H 0.6559 0.3040 0.7100
C5 C 0.5308(8) 0.2930(7) 0.7264(8)
H4 H 0.5214 0.3478 0.7328
C6 C 0.4634(9) 0.2388(7) 0.7323(8)
C7 C 0.3816(8) 0.2719(7) 0.7429(8)
H5 H 0.3754 0.3277 0.7414
C8 C -0.0021(10) 0.3262(7) 0.7485(8)
C9 C -0.0287(9) 0.4054(8) 0.7264(9)
H6 H 0.0113 0.4421 0.7120
C10 C -0.1144(10) 0.4294(7) 0.7257(8)
H7 H -0.1310 0.4819 0.7099
C11 C -0.1758(8) 0.3769(8) 0.7481(9)
H8 H -0.2332 0.3931 0.7473
C12 C -0.1483(9) 0.2994(7) 0.7717(8)
H9 H -0.1879 0.2635 0.7882
C13 C -0.0623(9) 0.2731(7) 0.7716(8)
C14 C -0.0412(9) 0.1899(8) 0.7954(8)
H10 H -0.0857 0.1576 0.8084
C15 C 0.1430(11) -0.1252(8) 0.9283(9)
C16 C 0.0940(8) -0.1746(8) 0.9729(9)
H11 H 0.0346 -0.1652 0.9693
C17 C 0.1335(10) -0.2365(8) 1.0217(9)
H12 H 0.1008 -0.2688 1.0517
C18 C 0.2233(11) -0.2522(8) 1.0270(9)
H13 H 0.2495 -0.2948 1.0602
C19 C 0.2716(8) -0.2054(8) 0.9840(10)
H14 H 0.3309 -0.2160 0.9881
C20 C 0.2336(10) -0.1414(8) 0.9335(9)
C21 C 0.2856(8) -0.0978(9) 0.8816(8)
H15 H 0.3402 -0.1189 0.8783
C22 C -0.0947(8) 0.0637(9) 0.3611(11)
C23 C 0.1616(12) 0.1233(8) 0.6083(9)
C24 C 0.0048(8) 0.0608(6) 0.4009(8)
C25 C 0.0608(9) 0.0192(6) 0.3592(8)
H16 H 0.0397 -0.0064 0.3076
C26 C 0.1495(9) 0.0158(7) 0.3950(11)
C27 C 0.1800(8) 0.0482(7) 0.4753(10)
H17 H 0.2386 0.0416 0.4996
C28 C 0.1257(7) 0.0906(7) 0.5213(10)
C29 C 0.0368(8) 0.0951(6) 0.4802(7)
H18 H -0.0021 0.1224 0.5077
C30 C 0.4820(9) 0.1009(8) 0.9287(9)
H19 H 0.5009 0.1169 0.9870
H20 H 0.5198 0.1245 0.8943
H21 H 0.4843 0.0432 0.9246
C31 C 0.1246(9) 0.2691(8) 0.9740(9)
H22 H 0.1541 0.2954 1.0249
H23 H 0.1113 0.2145 0.9872
H24 H 0.0713 0.2972 0.9520
C32 C 0.2527(13) 0.0615(10) 1.0296(11)
H25 H 0.2444 0.0793 1.0848
H26 H 0.2917 0.0978 1.0084
H27 H 0.2772 0.0082 1.0341
C33 C 0.4388(14) -0.0254(11) 0.5569(14)
H28 H 0.4562 0.0289 0.5476
H29 H 0.4146 -0.0499 0.5032
H30 H 0.4888 -0.0557 0.5842
Na1A Na 0.2085(3) 0.3955(2) 0.8288(3)
Na1B Na -0.2915(3) 0.1045(2) 0.3288(3)
Mn3B Mn -0.14889(11) -0.02518(9) 0.16426(13)
O3A O 0.2602(5) -0.2283(4) 0.7433(5)
O4A O 0.4195(6) -0.1913(4) 0.7539(5)
O10B O 0.1159(5) -0.0230(5) 0.7054(6)
O11B O 0.1434(5) -0.1042(5) 0.6005(6)
O15A O 0.3198(5) -0.2309(4) 0.5890(6)
O18 O -0.1448(5) 0.2387(4) 0.4784(6)
C34 C -0.1202(8) 0.2353(7) 0.5704(9)
O19 O 0.0750(6) 0.0310(5) 1.0961(7)
loop_
_geom_bond_atom_site_label_1
_geom_bond_atom_site_label_2
_geom_bond_site_symmetry_1
_geom_bond_site_symmetry_2
Na1 O7 1_555 1_555
Mn1 O1 1_555 1_555
Mn2 O1 1_555 1_555
Mn3 O1 1_555 1_555
O2 Mn1 1_555 1_555
O3 Mn2 1_555 1_555
O4 Mn2 1_555 1_555
O5 Mn3 1_555 1_555
O6 Mn3 1_555 1_555
O7 Mn1 1_555 1_555
O8 Mn2 1_555 1_555
O9 Mn1 1_555 1_555
O10 C22 1_555 1_555
O11 C22 1_555 1_555
O12 N4 1_555 1_555
O13 N4 1_555 1_555
O14 Mn1 1_555 1_555
O15 Mn2 1_555 1_555
O16 Mn3 1_555 1_555
O17 Na1 1_555 1_555
N1 Mn1 1_555 1_555
N2 Mn2 1_555 1_555
N3 Mn3 1_555 1_555
N4 C26 1_555 1_555
C1 O2 1_555 1_555
C2 C1 1_555 1_555
H1 C2 1_555 1_555
C3 C2 1_555 1_555
H2 C3 1_555 1_555
C4 C3 1_555 1_555
H3 C4 1_555 1_555
C5 C4 1_555 1_555
H4 C5 1_555 1_555
C6 C1 1_555 1_555
C7 N1 1_555 1_555
H5 C7 1_555 1_555
C8 O4 1_555 1_555
C9 C8 1_555 1_555
H6 C9 1_555 1_555
C10 C9 1_555 1_555
H7 C10 1_555 1_555
C11 C10 1_555 1_555
H8 C11 1_555 1_555
C12 C11 1_555 1_555
H9 C12 1_555 1_555
C13 C8 1_555 1_555
C14 N2 1_555 1_555
H10 C14 1_555 1_555
C15 O6 1_555 1_555
C16 C15 1_555 1_555
H11 C16 1_555 1_555
C17 C16 1_555 1_555
H12 C17 1_555 1_555
C18 C17 1_555 1_555
H13 C18 1_555 1_555
C19 C18 1_555 1_555
H14 C19 1_555 1_555
C20 C15 1_555 1_555
C21 N3 1_555 1_555
H15 C21 1_555 1_555
C22 C24 1_555 1_555
C23 O8 1_555 1_555
C24 C25 1_555 1_555
C25 H16 1_555 1_555
C26 C25 1_555 1_555
C27 C26 1_555 1_555
H17 C27 1_555 1_555
C28 C23 1_555 1_555
C29 C24 1_555 1_555
H18 C29 1_555 1_555
C30 O14 1_555 1_555
H19 C30 1_555 1_555
H20 C30 1_555 1_555
H21 C30 1_555 1_555
C31 O15 1_555 1_555
H22 C31 1_555 1_555
H23 C31 1_555 1_555
H24 C31 1_555 1_555
C32 O16 1_555 1_555
H25 C32 1_555 1_555
H26 C32 1_555 1_555
H27 C32 1_555 1_555
C33 O17 1_555 1_555
H28 C33 1_555 1_555
H29 C33 1_555 1_555
H30 C33 1_555 1_555
O18 C34 1_555 1_555
Na1A O3 1_555 1_555
Na1B O11 1_555 1_555
Mn3B O10 1_555 1_555
O3A Na1 1_555 1_555
O4A Na1 1_555 1_555
O10B Mn3 1_555 1_555
O11B Na1 1_555 1_555
O15A Na1 1_555 1_555
O3 N1 1_555 1_555
O4 Na1A 1_555 1_555
O5 N2 1_555 1_555
O7 N3 1_555 1_555
O9 C23 1_555 1_555
O15 Na1A 1_555 1_555
C5 C6 1_555 1_555
C6 C7 1_555 1_555
C12 C13 1_555 1_555
C13 C14 1_555 1_555
C19 C20 1_555 1_555
C20 C21 1_555 1_555
C27 C28 1_555 1_555
C28 C29 1_555 1_555

#END
