
#######################################################################
#
#                 Cambridge Crystallographic Data Centre
#                                CCDC 
#
#######################################################################
#
# If this CIF has been generated from an entry in the Cambridge 
# Structural Database, then it will include bibliographic, chemical, 
# crystal, experimental, refinement or atomic coordinate data resulting 
# from the CCDC's data processing and validation procedures.
#
#######################################################################

data_YIQSOG
_symmetry_cell_setting           triclinic
_symmetry_space_group_name_H-M   'P -1'
_symmetry_Int_Tables_number      2
_space_group_name_Hall           '-P 1'
loop_
_symmetry_equiv_pos_site_id
_symmetry_equiv_pos_as_xyz
1 x,y,z
2 -x,-y,-z
_cell_length_a                   9.2014(5)
_cell_length_b                   9.3636(5)
_cell_length_c                   10.0409(5)
_cell_angle_alpha                77.6720(10)
_cell_angle_beta                 67.1220(10)
_cell_angle_gamma                69.3890(10)
_cell_volume                     743.082
loop_
_atom_site_label
_atom_site_type_symbol
_atom_site_fract_x
_atom_site_fract_y
_atom_site_fract_z
Cu1 Cu 0.16651(2) 0.39265(2) 0.06245(2)
O1 O -0.0572(3) 0.0666(2) 0.2994(2)
O2 O -0.2736(2) 0.4555(2) 0.37588(14)
N1 N 0.39098(15) 0.30731(13) -0.08786(13)
N2 N 0.24652(15) 0.57968(14) -0.00660(13)
N3 N 0.3556(2) 0.8334(2) -0.1230(2)
N4 N 0.7374(2) 0.6625(2) -0.29649(15)
N5 N 0.1170(2) 0.1988(2) 0.1202(2)
N6 N -0.0574(2) 0.5159(2) 0.17028(14)
C1 C 0.4499(2) 0.1624(2) -0.1228(2)
H1 H 0.3917(2) 0.0919(2) -0.0653(2)
C2 C 0.5922(2) 0.1113(2) -0.2394(2)
H2 H 0.6320(2) 0.0074(2) -0.2605(2)
C3 C 0.6750(2) 0.2151(2) -0.3243(2)
H3 H 0.7718(2) 0.1837(2) -0.4060(2)
C4 C 0.6150(2) 0.3661(2) -0.2889(2)
H4 H 0.6707(2) 0.4386(2) -0.3460(2)
C5 C 0.4726(2) 0.4096(2) -0.16897(15)
C6 C 0.3903(2) 0.5665(2) -0.11974(14)
C7 C 0.1594(2) 0.7144(2) 0.0478(2)
H5 H 0.0578(2) 0.7240(2) 0.1264(2)
C8 C 0.2167(2) 0.8406(2) -0.0100(2)
H6 H 0.1550(2) 0.9349(2) 0.0322(2)
C9 C 0.4432(2) 0.6978(2) -0.1793(2)
C10 C 0.5896(2) 0.7102(2) -0.3115(2)
C11 C 0.5618(2) 0.7845(2) -0.4385(2)
H7 H 0.4543(2) 0.8158(2) -0.4445(2)
C12 C 0.6938(3) 0.8121(3) -0.5563(2)
H8 H 0.6841(3) 0.8823(3) -0.6459(2)
C13 C 0.8475(2) 0.7638(2) -0.5432(2)
H9 H 0.9404(2) 0.7817(2) -0.6218(2)
C14 C 0.8639(2) 0.6889(2) -0.4135(2)
H10 H 0.9710(2) 0.6538(2) -0.4062(2)
C15 C 0.0288(2) 0.1369(2) 0.2106(2)
C16 C -0.1640(2) 0.4845(2) 0.2734(2)
N4A N 0.2626(2) 0.3375(2) 0.29649(15)
N6A N 0.0574(2) 0.4841(2) -0.17028(14)
Cu1A Cu 0.83349(2) 0.60735(2) -0.06245(2)
Cu1A_2 Cu -0.16651(2) 0.60735(2) -0.06245(2)
loop_
_geom_bond_atom_site_label_1
_geom_bond_atom_site_label_2
_geom_bond_site_symmetry_1
_geom_bond_site_symmetry_2
Cu1 N1 1_555 1_555
O1 C15 1_555 1_555
O2 C16 1_555 1_555
N1 C1 1_555 1_555
N2 Cu1 1_555 1_555
N3 C8 1_555 1_555
N4 C10 1_555 1_555
N5 Cu1 1_555 1_555
N6 Cu1 1_555 1_555
C1 H1 1_555 1_555
C2 C1 1_555 1_555
H2 C2 1_555 1_555
C3 C2 1_555 1_555
H3 C3 1_555 1_555
C4 C3 1_555 1_555
H4 C4 1_555 1_555
C5 N1 1_555 1_555
C6 N2 1_555 1_555
C7 N2 1_555 1_555
H5 C7 1_555 1_555
C8 C7 1_555 1_555
H6 C8 1_555 1_555
C9 N3 1_555 1_555
C10 C9 1_555 1_555
C11 C10 1_555 1_555
H7 C11 1_555 1_555
C12 C11 1_555 1_555
H8 C12 1_555 1_555
C13 C12 1_555 1_555
H9 C13 1_555 1_555
C14 N4 1_555 1_555
H10 C14 1_555 1_555
C15 N5 1_555 1_555
C16 N6 1_555 1_555
N4A Cu1 1_555 1_555
N6A Cu1 1_555 1_555
Cu1A N4 1_555 1_555
Cu1A_2 N6 1_555 1_555
C4 C5 1_555 1_555
C5 C6 1_555 1_555
C6 C9 1_555 1_555
C13 C14 1_555 1_555
N6A Cu1A_2 1_555 1_555

#END
