
#######################################################################
#
#                 Cambridge Crystallographic Data Centre
#                                CCDC 
#
#######################################################################
#
# If this CIF has been generated from an entry in the Cambridge 
# Structural Database, then it will include bibliographic, chemical, 
# crystal, experimental, refinement or atomic coordinate data resulting 
# from the CCDC's data processing and validation procedures.
#
#######################################################################

data_YIQSIA
_symmetry_cell_setting           triclinic
_symmetry_space_group_name_H-M   'P -1'
_symmetry_Int_Tables_number      2
_space_group_name_Hall           '-P 1'
loop_
_symmetry_equiv_pos_site_id
_symmetry_equiv_pos_as_xyz
1 x,y,z
2 -x,-y,-z
_cell_length_a                   9.1181(5)
_cell_length_b                   9.3196(5)
_cell_length_c                   10.0531(6)
_cell_angle_alpha                78.811(2)
_cell_angle_beta                 67.361(2)
_cell_angle_gamma                69.402(2)
_cell_volume                     736.353
loop_
_atom_site_label
_atom_site_type_symbol
_atom_site_fract_x
_atom_site_fract_y
_atom_site_fract_z
Cu1 Cu 0.16678(3) -0.61012(3) 0.06421(3)
N1 N 0.3943(2) -0.6959(2) -0.0890(2)
N2 N 0.2444(2) -0.4205(2) -0.0048(2)
N3 N 0.3510(2) -0.1654(2) -0.1216(2)
N4 N 0.7395(2) -0.3387(2) -0.2952(2)
N5 N 0.1257(2) -0.8090(2) 0.1081(2)
N6 N 0.0327(2) -0.8571(2) 0.2126(2)
N7 N -0.0522(3) -0.9136(3) 0.3092(3)
N8 N -0.0606(2) -0.4813(2) 0.1686(2)
N9 N -0.1645(2) -0.5245(2) 0.2694(2)
N10 N -0.2693(2) -0.5592(3) 0.3659(2)
C1 C 0.4568(3) -0.8423(2) -0.1261(2)
H1 H 0.3997(3) -0.9134(2) -0.0697(2)
C2 C 0.6006(3) -0.8938(2) -0.2428(2)
H2 H 0.6421(3) -0.9983(2) -0.2653(2)
C3 C 0.6822(3) -0.7892(2) -0.3260(2)
H3 H 0.7800(3) -0.8207(2) -0.4078(2)
C4 C 0.6197(3) -0.6379(2) -0.2885(2)
H4 H 0.6750(3) -0.5652(2) -0.3442(2)
C5 C 0.4751(2) -0.5931(2) -0.1687(2)
C6 C 0.3897(2) -0.4340(2) -0.1185(2)
C7 C 0.1549(3) -0.2841(2) 0.0490(2)
H5 H 0.0525(3) -0.2737(2) 0.1275(2)
C8 C 0.2104(3) -0.1571(3) -0.0088(3)
H6 H 0.1466(3) -0.0614(3) 0.0331(3)
C9 C 0.4410(3) -0.3023(2) -0.1775(2)
C10 C 0.5892(3) -0.2917(2) -0.3097(2)
C11 C 0.5610(3) -0.2216(3) -0.4366(3)
H7 H 0.4526(3) -0.1916(3) -0.4424(3)
C12 C 0.6934(3) -0.1964(3) -0.5539(3)
H8 H 0.6777(3) -0.1487(3) -0.6420(3)
C13 C 0.8488(3) -0.2415(3) -0.5415(2)
H9 H 0.9416(3) -0.2232(3) -0.6199(2)
C14 C 0.8666(3) -0.3137(3) -0.4126(2)
H10 H 0.9750(3) -0.3479(3) -0.4061(2)
N4A N 0.2605(2) -0.6613(2) 0.2952(2)
N8A N 0.0606(2) -0.5187(2) -0.1686(2)
Cu1A Cu 0.83322(3) -0.38988(3) -0.06421(3)
Cu1A_2 Cu -0.16678(3) -0.38988(3) -0.06421(3)
loop_
_geom_bond_atom_site_label_1
_geom_bond_atom_site_label_2
_geom_bond_site_symmetry_1
_geom_bond_site_symmetry_2
Cu1 N1 1_555 1_555
N1 C1 1_555 1_555
N2 Cu1 1_555 1_555
N3 C8 1_555 1_555
N4 C10 1_555 1_555
N5 Cu1 1_555 1_555
N6 N5 1_555 1_555
N7 N6 1_555 1_555
N8 Cu1 1_555 1_555
N9 N8 1_555 1_555
N10 N9 1_555 1_555
C1 H1 1_555 1_555
C2 C1 1_555 1_555
H2 C2 1_555 1_555
C3 C2 1_555 1_555
H3 C3 1_555 1_555
C4 C3 1_555 1_555
H4 C4 1_555 1_555
C5 N1 1_555 1_555
C6 N2 1_555 1_555
C7 N2 1_555 1_555
H5 C7 1_555 1_555
C8 C7 1_555 1_555
H6 C8 1_555 1_555
C9 N3 1_555 1_555
C10 C9 1_555 1_555
C11 C10 1_555 1_555
H7 C11 1_555 1_555
C12 C11 1_555 1_555
H8 C12 1_555 1_555
C13 C12 1_555 1_555
H9 C13 1_555 1_555
C14 N4 1_555 1_555
H10 C14 1_555 1_555
N4A Cu1 1_555 1_555
N8A Cu1 1_555 1_555
Cu1A N4 1_555 1_555
Cu1A_2 N8 1_555 1_555
C4 C5 1_555 1_555
C5 C6 1_555 1_555
C6 C9 1_555 1_555
C13 C14 1_555 1_555
N8A Cu1A_2 1_555 1_555

#END
