
#######################################################################
#
#                 Cambridge Crystallographic Data Centre
#                                CCDC 
#
#######################################################################
#
# If this CIF has been generated from an entry in the Cambridge 
# Structural Database, then it will include bibliographic, chemical, 
# crystal, experimental, refinement or atomic coordinate data resulting 
# from the CCDC's data processing and validation procedures.
#
#######################################################################

data_YIQWOM
_symmetry_cell_setting           monoclinic
_symmetry_space_group_name_H-M   'C 2/c'
_symmetry_Int_Tables_number      15
_space_group_name_Hall           '-C 2yn'
loop_
_symmetry_equiv_pos_site_id
_symmetry_equiv_pos_as_xyz
1 x,y,z
2 -x,y,1/2-z
3 1/2+x,1/2+y,z
4 1/2-x,1/2+y,1/2-z
5 -x,-y,-z
6 x,-y,1/2+z
7 1/2-x,1/2-y,-z
8 1/2+x,1/2-y,1/2+z
_cell_length_a                   28.0789(11)
_cell_length_b                   6.39570(10)
_cell_length_c                   21.3742(8)
_cell_angle_alpha                90
_cell_angle_beta                 98.857(3)
_cell_angle_gamma                90
_cell_volume                     3792.7
loop_
_atom_site_label
_atom_site_type_symbol
_atom_site_fract_x
_atom_site_fract_y
_atom_site_fract_z
Ag1 Ag 0.09137(8) 0.2395(5) 0.22097(13)
N1 N 0.21407(14) 0.1396(7) 0.30786(18)
O1 O 0.28112(15) -0.0598(7) 0.3378(2)
C1 C 0.18869(15) 0.3135(7) 0.3216(2)
N2 N 0.17075(13) 0.5999(6) 0.36883(18)
N3 N 0.27170(15) 0.2324(7) 0.3946(2)
H1 H 0.2982 0.2009 0.4186
N4 N 0.14503(13) 0.3790(6) 0.29062(18)
C2 C 0.20500(15) 0.4466(7) 0.3699(2)
O2 O 0.26879(16) 0.5307(8) 0.4523(2)
C3 C 0.1973(2) 0.0045(9) 0.2536(3)
H2 H 0.2198 -0.1075 0.2521
H3 H 0.1948 0.0848 0.2153
H4 H 0.1663 -0.0521 0.2578
C4 C 0.1721(2) 0.7750(8) 0.4132(3)
H5 H 0.2018 0.7714 0.4422
H6 H 0.1454 0.7642 0.4363
H7 H 0.1699 0.9044 0.3901
C5 C 0.13553(16) 0.5526(8) 0.3214(2)
H8 H 0.1076 0.6314 0.3110
C6 C 0.25710(17) 0.0947(8) 0.3461(2)
C7 C 0.24972(17) 0.4150(9) 0.4103(2)
Ag2 Ag 0.0000 0.61655(7) 0.2500
Mo1 Mo 0.026036(11) 0.08628(5) 0.355736(14)
Mo2 Mo 0.087421(11) 0.67128(5) -0.020852(14)
Mo3 Mo 0.067191(11) 0.77310(5) 0.123779(14)
Cr1 Cr 0.0000 1.0000 0.0000
O3 O 0.02522(12) 0.3152(5) 0.31480(15)
O4 O 0.05282(12) 0.5969(5) 0.17888(14)
O5 O 0.06878(9) 0.9561(4) 0.03371(12)
O6 O 0.04398(9) 1.0327(4) 0.15742(12)
O7 O 0.06361(10) 0.5736(4) 0.05468(13)
O8 O 0.14738(10) 0.6792(5) 0.00588(15)
O9 O 0.07812(10) 0.4436(4) -0.06293(14)
O10 O 0.04521(11) -0.0992(5) 0.30715(13)
O11 O 0.12721(11) 0.8098(5) 0.14336(14)
O12 O 0.08427(9) 0.1253(4) 0.41268(12)
O13 O 0.00720(10) 0.2452(4) 0.44677(12)
O14 O 0.01035(9) -0.1595(4) 0.42426(12)
H9 H -0.009(2) 0.315(10) 0.450(3)
H10 H 0.088(2) 1.044(9) 0.045(3)
H11 H 0.0315(18) -0.265(8) 0.433(2)
Ag1A Ag -0.09137(8) 0.2395(5) 0.27903(13)
N1A N -0.21407(14) 0.1396(7) 0.19214(18)
O1A O -0.28112(15) -0.0598(7) 0.1622(2)
C1A C -0.18869(15) 0.3135(7) 0.1784(2)
N2A N -0.17075(13) 0.5999(6) 0.13117(18)
N3A N -0.27170(15) 0.2324(7) 0.1054(2)
H1A H -0.2982 0.2009 0.0814
N4A N -0.14503(13) 0.3790(6) 0.20938(18)
C2A C -0.20500(15) 0.4466(7) 0.1301(2)
O2A O -0.26879(16) 0.5307(8) 0.0477(2)
C3A C -0.1973(2) 0.0045(9) 0.2464(3)
H2A H -0.2198 -0.1075 0.2479
H3A H -0.1948 0.0848 0.2847
H4A H -0.1663 -0.0521 0.2422
C4A C -0.1721(2) 0.7750(8) 0.0868(3)
H5A H -0.2018 0.7714 0.0578
H6A H -0.1454 0.7642 0.0637
H7A H -0.1699 0.9044 0.1099
C5A C -0.13553(16) 0.5526(8) 0.1786(2)
H8A H -0.1076 0.6314 0.1890
C6A C -0.25710(17) 0.0947(8) 0.1539(2)
C7A C -0.24972(17) 0.4150(9) 0.0897(2)
Mo1A Mo -0.026036(11) 0.08628(5) 0.144264(14)
Mo2A Mo -0.087421(11) 0.67128(5) 0.520852(14)
Mo3A Mo -0.067191(11) 0.77310(5) 0.376221(14)
O3A O -0.02522(12) 0.3152(5) 0.18520(15)
O4A O -0.05282(12) 0.5969(5) 0.32112(14)
O5A O -0.06878(9) 0.9561(4) 0.46629(12)
O6A O -0.04398(9) 1.0327(4) 0.34258(12)
O7A O -0.06361(10) 0.5736(4) 0.44532(13)
O8A O -0.14738(10) 0.6792(5) 0.49412(15)
O9A O -0.07812(10) 0.4436(4) 0.56293(14)
O10A O -0.04521(11) -0.0992(5) 0.19285(13)
O11A O -0.12721(11) 0.8098(5) 0.35664(14)
O12A O -0.08427(9) 0.1253(4) 0.08732(12)
O13A O -0.00720(10) 0.2452(4) 0.05323(12)
O14A O -0.01035(9) -0.1595(4) 0.07574(12)
H9A H 0.009(2) 0.315(10) 0.050(3)
H10A H -0.088(2) 1.044(9) 0.455(3)
H11A H -0.0315(18) -0.265(8) 0.067(2)
Ag1_2 Ag 0.09137(8) 1.2395(5) 0.22097(13)
Ag1A_2 Ag -0.09137(8) 1.2395(5) 0.27903(13)
Ag2_2 Ag 0.0000 -0.38345(7) 0.2500
Mo1_2 Mo 0.026036(11) 1.08628(5) 0.355736(14)
Mo1A_2 Mo -0.026036(11) 1.08628(5) 0.144264(14)
Mo2D Mo -0.087421(11) 0.32872(5) 0.020852(14)
Mo2E Mo 0.087421(11) 0.32872(5) 0.479148(14)
Mo3_2 Mo 0.067191(11) -0.22690(5) 0.123779(14)
Mo3A_2 Mo -0.067191(11) -0.22690(5) 0.376221(14)
Cr1_2 Cr 0.0000 0.0000 0.0000
Cr1A Cr 0.0000 0.0000 0.5000
Cr1A_2 Cr 0.0000 1.0000 0.5000
O5D O -0.06878(9) 1.0439(4) -0.03371(12)
O6_2 O 0.04398(9) 0.0327(4) 0.15742(12)
O6A_2 O -0.04398(9) 0.0327(4) 0.34258(12)
O10_2 O 0.04521(11) 0.9008(5) 0.30715(13)
O10A_2 O -0.04521(11) 0.9008(5) 0.19285(13)
O12D O -0.08427(9) 0.8747(4) 0.58732(12)
O12E O 0.08427(9) 0.8747(4) -0.08732(12)
O13A_2 O -0.00720(10) 1.2452(4) 0.05323(12)
O13D O -0.00720(10) 0.7548(4) 0.55323(12)
O13E O 0.00720(10) 0.7548(4) -0.05323(12)
O14_2 O 0.01035(9) 0.8405(4) 0.42426(12)
O14A_2 O -0.01035(9) 0.8405(4) 0.07574(12)
O14E O 0.01035(9) 1.1595(4) -0.07574(12)
O15 O -0.1398(2) 1.2212(8) 0.4269(4)
Ag3? Ag 0.0968(7) 0.2540(18) 0.2080(14)
loop_
_geom_bond_atom_site_label_1
_geom_bond_atom_site_label_2
_geom_bond_site_symmetry_1
_geom_bond_site_symmetry_2
Ag1 N4 1_555 1_555
N1 C1 1_555 1_555
O1 C6 1_555 1_555
C1 N4 1_555 1_555
N2 C2 1_555 1_555
N3 H1 1_555 1_555
N4 C5 1_555 1_555
C2 C1 1_555 1_555
O2 C7 1_555 1_555
C3 N1 1_555 1_555
H2 C3 1_555 1_555
H3 C3 1_555 1_555
H4 C3 1_555 1_555
C4 N2 1_555 1_555
H5 C4 1_555 1_555
H6 C4 1_555 1_555
H7 C4 1_555 1_555
C5 N2 1_555 1_555
H8 C5 1_555 1_555
C6 N1 1_555 1_555
C7 N3 1_555 1_555
Ag2 O3 1_555 1_555
Mo1 O3 1_555 1_555
Mo2 O5 1_555 1_555
Mo3 O4 1_555 1_555
Cr1 O5 1_555 1_555
O4 Ag1 1_555 1_555
O5 Mo3 1_555 1_555
O6 Mo3 1_555 1_555
O7 Mo2 1_555 1_555
O8 Mo2 1_555 1_555
O9 Mo2 1_555 1_555
O10 Mo1 1_555 1_555
O11 Mo3 1_555 1_555
O12 Mo1 1_555 1_555
O13 Mo1 1_555 1_555
O14 Mo1 1_555 1_555
H9 O13 1_555 1_555
H10 O5 1_555 1_555
H11 O14 1_555 1_555
Ag1A N4A 1_555 1_555
N1A C1A 1_555 1_555
O1A C6A 1_555 1_555
C1A N4A 1_555 1_555
N2A C2A 1_555 1_555
N3A H1A 1_555 1_555
N4A C5A 1_555 1_555
C2A C1A 1_555 1_555
O2A C7A 1_555 1_555
C3A N1A 1_555 1_555
H2A C3A 1_555 1_555
H3A C3A 1_555 1_555
H4A C3A 1_555 1_555
C4A N2A 1_555 1_555
H5A C4A 1_555 1_555
H6A C4A 1_555 1_555
H7A C4A 1_555 1_555
C5A N2A 1_555 1_555
H8A C5A 1_555 1_555
C6A N1A 1_555 1_555
C7A N3A 1_555 1_555
Mo1A O3A 1_555 1_555
Mo2A O5A 1_555 1_555
Mo3A O4A 1_555 1_555
O3A Ag2 1_555 1_555
O4A Ag2 1_555 1_555
O5A Mo3A 1_555 1_555
O6A Mo3A 1_555 1_555
O7A Mo2A 1_555 1_555
O8A Mo2A 1_555 1_555
O9A Mo2A 1_555 1_555
O10A Mo1A 1_555 1_555
O11A Mo3A 1_555 1_555
O12A Mo1A 1_555 1_555
O13A Mo1A 1_555 1_555
O14A Mo1A 1_555 1_555
H9A O13A 1_555 1_555
H10A O5A 1_555 1_555
H11A O14A 1_555 1_555
Ag1_2 O6 1_555 1_555
Ag1A_2 O6A 1_555 1_555
Ag2_2 O10 1_555 1_555
Mo1_2 O6A 1_555 1_555
Mo1A_2 O6 1_555 1_555
Mo2D O12A 1_555 1_555
Mo2E O12 1_555 1_555
Mo3_2 O14A 1_555 1_555
Mo3A_2 O14 1_555 1_555
Cr1_2 O13A 1_555 1_555
Cr1A O13 1_555 1_555
Cr1A_2 O5A 1_555 1_555
O5D Cr1 1_555 1_555
O6_2 Ag1 1_555 1_555
O6A_2 Mo1 1_555 1_555
O10_2 Ag2 1_555 1_555
O10A_2 Ag2 1_555 1_555
O12D Mo2A 1_555 1_555
O12E Mo2 1_555 1_555
O13A_2 Cr1 1_555 1_555
O13D Mo2A 1_555 1_555
O13E Mo2 1_555 1_555
O14_2 Mo3A 1_555 1_555
O14A_2 Mo3 1_555 1_555
O14E Cr1 1_555 1_555
N3 C6 1_555 1_555
C2 C7 1_555 1_555
Ag2 O4 1_555 1_555
Mo3 O7 1_555 1_555
Cr1 O13E 1_555 1_555
Cr1 O14A_2 1_555 1_555
O13 Mo2E 1_555 1_555
O14 Cr1A 1_555 1_555
Ag1A O4A 1_555 1_555
Ag1A O6A_2 1_555 1_555
N3A C6A 1_555 1_555
C2A C7A 1_555 1_555
Mo1A O6_2 1_555 1_555
Mo3A O7A 1_555 1_555
O10A Ag2_2 1_555 1_555
O13A Mo2D 1_555 1_555
O14A Cr1_2 1_555 1_555
Mo1_2 O10_2 1_555 1_555
Mo1_2 O14_2 1_555 1_555
Mo1A_2 O10A_2 1_555 1_555
Mo1A_2 O13A_2 1_555 1_555
Mo1A_2 O14A_2 1_555 1_555
Mo3_2 O6_2 1_555 1_555
Mo3A_2 O6A_2 1_555 1_555
Cr1A_2 O13D 1_555 1_555
Cr1A_2 O14_2 1_555 1_555

#END
