
#######################################################################
#
#                 Cambridge Crystallographic Data Centre
#                                CCDC 
#
#######################################################################
#
# If this CIF has been generated from an entry in the Cambridge 
# Structural Database, then it will include bibliographic, chemical, 
# crystal, experimental, refinement or atomic coordinate data resulting 
# from the CCDC's data processing and validation procedures.
#
#######################################################################

data_YIRQUN
_symmetry_cell_setting           triclinic
_symmetry_space_group_name_H-M   'P -1'
_symmetry_Int_Tables_number      2
_space_group_name_Hall           '-P 1'
loop_
_symmetry_equiv_pos_site_id
_symmetry_equiv_pos_as_xyz
1 x,y,z
2 -x,-y,-z
_cell_length_a                   9.2341(10)
_cell_length_b                   11.8530(12)
_cell_length_c                   21.174(2)
_cell_angle_alpha                80.5090(10)
_cell_angle_beta                 84.6050(10)
_cell_angle_gamma                87.389(2)
_cell_volume                     2274.62
loop_
_atom_site_label
_atom_site_type_symbol
_atom_site_fract_x
_atom_site_fract_y
_atom_site_fract_z
Cd1 Cd 1.51200(8) 0.35997(6) 0.95644(3)
N1 N 0.5707(5) 0.4385(5) 0.5909(3)
H1 H 0.5416 0.4657 0.5539
N2 N 0.6710(5) 0.6028(4) 0.4817(2)
N3 N 0.1309(6) -0.0554(5) 0.8171(3)
N4 N -0.2817(8) -0.1499(7) 0.7746(4)
N5 N 0.3698(8) -0.2516(6) 0.9590(3)
N6 N 1.2961(6) 0.6653(5) 0.6947(3)
N7 N 1.4333(7) 0.4731(6) 0.8647(3)
N8 N 1.5401(9) 0.9225(7) 0.5762(3)
O1 O 1.3612(9) 0.4800(7) 1.0298(4)
O2 O 1.2636(10) 0.3352(7) 1.0060(4)
O3 O 1.6799(9) 0.2860(7) 0.8837(4)
O4 O 1.4820(9) 0.1892(6) 0.9135(4)
C1 C 0.3783(7) 0.2996(6) 0.6281(3)
C2 C 0.5025(7) 0.3564(6) 0.6351(3)
C3 C 0.5838(8) 0.3397(7) 0.6910(3)
H2 H 0.5599 0.2909 0.7293
C4 C 0.7001(8) 0.4068(6) 0.6783(3)
H3 H 0.7720 0.4107 0.7058
C5 C 0.6938(7) 0.4710(6) 0.6149(3)
C6 C 0.7902(7) 0.5534(6) 0.5835(3)
C7 C 0.7727(6) 0.6192(5) 0.5224(3)
C8 C 0.8653(7) 0.7107(6) 0.4938(3)
H4 H 0.9439 0.7359 0.5116
C9 C 0.8166(7) 0.7539(6) 0.4358(3)
H5 H 0.8531 0.8161 0.4070
C10 C 0.6966(7) 0.6840(6) 0.4275(3)
C11 C 0.3201(7) 0.2113(6) 0.6828(3)
C12 C 0.1859(7) 0.2272(6) 0.7149(3)
H6 H 0.1347 0.2963 0.7050
C13 C 0.1258(8) 0.1426(6) 0.7615(3)
H7 H 0.0364 0.1553 0.7837
C14 C 0.2013(7) 0.0375(6) 0.7747(3)
C15 C 0.3385(8) 0.0220(6) 0.7442(3)
H8 H 0.3903 -0.0468 0.7540
C16 C 0.3979(7) 0.1090(6) 0.6990(3)
H9 H 0.4908 0.0990 0.6793
C17 C -0.1912(10) -0.0957(8) 0.7325(5)
H10 H -0.2217 -0.0738 0.6915
C18 C -0.0515(9) -0.0660(7) 0.7416(4)
H11 H 0.0103 -0.0324 0.7071
C19 C -0.0067(7) -0.0873(6) 0.8025(4)
C20 C -0.1080(8) -0.1398(7) 0.8506(4)
H12 H -0.0868 -0.1547 0.8933
C21 C -0.2388(9) -0.1688(8) 0.8333(5)
H13 H -0.3034 -0.2051 0.8658
C22 C 0.2719(9) -0.2968(7) 0.9297(4)
H14 H 0.2562 -0.3746 0.9416
C23 C 0.1923(8) -0.2378(6) 0.8833(4)
H15 H 0.1277 -0.2757 0.8636
C24 C 0.2083(7) -0.1202(6) 0.8657(3)
C25 C 0.3099(8) -0.0700(7) 0.8969(4)
H16 H 0.3257 0.0081 0.8870
C26 C 0.3857(9) -0.1380(7) 0.9423(4)
H17 H 0.4522 -0.1034 0.9628
C27 C 0.9204(7) 0.5766(5) 0.6165(3)
C28 C 1.0584(7) 0.5602(6) 0.5872(3)
H18 H 1.0684 0.5308 0.5489
C29 C 1.1820(7) 0.5865(6) 0.6136(3)
H19 H 1.2742 0.5726 0.5941
C30 C 1.1661(7) 0.6334(6) 0.6689(3)
C31 C 1.0308(7) 0.6479(6) 0.6995(3)
H20 H 1.0216 0.6760 0.7382
C32 C 0.9076(7) 0.6209(6) 0.6732(3)
H21 H 0.8160 0.6327 0.6938
C33 C 1.4963(9) 0.5721(7) 0.8366(4)
H22 H 1.5732 0.5965 0.8558
C34 C 1.4543(7) 0.6382(6) 0.7823(3)
H23 H 1.4987 0.7074 0.7667
C35 C 1.3444(7) 0.6021(6) 0.7497(3)
C36 C 1.2790(8) 0.4989(6) 0.7782(4)
H24 H 1.2039 0.4713 0.7593
C37 C 1.3258(9) 0.4395(7) 0.8336(4)
H25 H 1.2808 0.3714 0.8511
C38 C 1.3949(10) 0.9312(7) 0.5847(4)
H26 H 1.3481 0.9962 0.5641
C39 C 1.3099(9) 0.8468(6) 0.6231(4)
H27 H 1.2090 0.8549 0.6274
C40 C 1.3797(7) 0.7519(6) 0.6543(3)
C41 C 1.5290(8) 0.7406(7) 0.6429(4)
H28 H 1.5786 0.6748 0.6609
C42 C 1.6021(9) 0.8278(8) 0.6049(4)
H29 H 1.7029 0.8200 0.5989
C43 C 1.2550(12) 0.4201(9) 1.0323(5)
C44 C 1.1225(17) 0.4545(13) 1.0731(8)
H30 H 1.0362 0.4422 1.0535
H31 H 1.1267 0.5340 1.0767
H32 H 1.1205 0.4092 1.1152
C45 C 1.6027(14) 0.2021(10) 0.8818(6)
C46 C 1.6513(16) 0.1181(12) 0.8394(7)
H33 H 1.5748 0.1081 0.8133
H34 H 1.6749 0.0462 0.8651
H35 H 1.7359 0.1453 0.8122
N1A N 0.4293(5) 0.5615(5) 0.4091(3)
H1A H 0.4584 0.5343 0.4461
N2A N 0.3290(5) 0.3972(4) 0.5183(2)
N3A N 0.8691(6) 1.0554(5) 0.1829(3)
N4A N 1.2817(8) 1.1499(7) 0.2254(4)
N5A N 0.6302(8) 1.2516(6) 0.0410(3)
N6A N -0.2961(6) 0.3347(5) 0.3053(3)
N7A N -0.4333(7) 0.5269(6) 0.1353(3)
N8A N -0.5401(9) 0.0775(7) 0.4238(3)
C1A C 0.6217(7) 0.7004(6) 0.3719(3)
C2A C 0.4975(7) 0.6436(6) 0.3649(3)
C3A C 0.4162(8) 0.6603(7) 0.3090(3)
H2A H 0.4401 0.7091 0.2707
C4A C 0.2999(8) 0.5932(6) 0.3217(3)
H3A H 0.2280 0.5893 0.2942
C5A C 0.3062(7) 0.5290(6) 0.3851(3)
C6A C 0.2098(7) 0.4466(6) 0.4165(3)
C7A C 0.2273(6) 0.3808(5) 0.4776(3)
C8A C 0.1347(7) 0.2893(6) 0.5062(3)
H4A H 0.0561 0.2641 0.4884
C9A C 0.1834(7) 0.2461(6) 0.5642(3)
H5A H 0.1469 0.1839 0.5930
C10A C 0.3034(7) 0.3160(6) 0.5725(3)
C11A C 0.6799(7) 0.7887(6) 0.3172(3)
C12A C 0.8141(7) 0.7728(6) 0.2851(3)
H6A H 0.8653 0.7037 0.2950
C13A C 0.8742(8) 0.8574(6) 0.2385(3)
H7A H 0.9636 0.8447 0.2163
C14A C 0.7987(7) 0.9625(6) 0.2253(3)
C15A C 0.6615(8) 0.9780(6) 0.2558(3)
H8A H 0.6097 1.0468 0.2460
C16A C 0.6021(7) 0.8910(6) 0.3010(3)
H9A H 0.5092 0.9010 0.3207
C17A C 1.1912(10) 1.0957(8) 0.2675(5)
H10A H 1.2217 1.0738 0.3085
C18A C 1.0515(9) 1.0660(7) 0.2584(4)
H11A H 0.9897 1.0324 0.2929
C19A C 1.0067(7) 1.0873(6) 0.1975(4)
C20A C 1.1080(8) 1.1398(7) 0.1494(4)
H12A H 1.0868 1.1547 0.1067
C21A C 1.2388(9) 1.1688(8) 0.1667(5)
H13A H 1.3034 1.2051 0.1342
C22A C 0.7281(9) 1.2968(7) 0.0703(4)
H14A H 0.7438 1.3746 0.0584
C23A C 0.8077(8) 1.2378(6) 0.1167(4)
H15A H 0.8723 1.2757 0.1364
C24A C 0.7917(7) 1.1202(6) 0.1343(3)
C25A C 0.6901(8) 1.0700(7) 0.1031(4)
H16A H 0.6743 0.9919 0.1130
C26A C 0.6143(9) 1.1380(7) 0.0577(4)
H17A H 0.5478 1.1034 0.0372
C27A C 0.0796(7) 0.4234(5) 0.3835(3)
C28A C -0.0584(7) 0.4398(6) 0.4128(3)
H18A H -0.0684 0.4692 0.4511
C29A C -0.1820(7) 0.4135(6) 0.3864(3)
H19A H -0.2742 0.4274 0.4059
C30A C -0.1661(7) 0.3666(6) 0.3311(3)
C31A C -0.0308(7) 0.3521(6) 0.3005(3)
H20A H -0.0216 0.3240 0.2618
C32A C 0.0924(7) 0.3791(6) 0.3268(3)
H21A H 0.1840 0.3673 0.3062
C33A C -0.4963(9) 0.4279(7) 0.1634(4)
H22A H -0.5732 0.4035 0.1442
C34A C -0.4543(7) 0.3618(6) 0.2177(3)
H23A H -0.4987 0.2926 0.2333
C35A C -0.3444(7) 0.3979(6) 0.2503(3)
C36A C -0.2790(8) 0.5011(6) 0.2218(4)
H24A H -0.2039 0.5287 0.2407
C37A C -0.3258(9) 0.5605(7) 0.1664(4)
H25A H -0.2808 0.6286 0.1489
C38A C -0.3949(10) 0.0688(7) 0.4153(4)
H26A H -0.3481 0.0038 0.4359
C39A C -0.3099(9) 0.1532(6) 0.3769(4)
H27A H -0.2090 0.1451 0.3726
C40A C -0.3797(7) 0.2481(6) 0.3457(3)
C41A C -0.5290(8) 0.2594(7) 0.3571(4)
H28A H -0.5786 0.3252 0.3391
C42A C -0.6021(9) 0.1722(8) 0.3951(4)
H29A H -0.7029 0.1800 0.4011
Cd1A Cd -0.51200(8) 0.64003(6) 0.04356(3)
O1A O -0.3612(9) 0.5200(7) -0.0298(4)
O2A O -0.2636(10) 0.6648(7) -0.0060(4)
O3A O -0.6799(9) 0.7140(7) 0.1163(4)
O4A O -0.4820(9) 0.8108(6) 0.0865(4)
C43A C -0.2550(12) 0.5799(9) -0.0323(5)
C44A C -0.1225(17) 0.5455(13) -0.0731(8)
H30A H -0.0362 0.5578 -0.0535
H31A H -0.1267 0.4660 -0.0767
H32A H -0.1205 0.5908 -0.1152
C45A C -0.6027(14) 0.7979(10) 0.1182(6)
C46A C -0.6513(16) 0.8819(12) 0.1606(7)
H33A H -0.5748 0.8919 0.1867
H34A H -0.6749 0.9538 0.1349
H35A H -0.7359 0.8547 0.1878
Cd1_2 Cd -0.48800(8) 0.35997(6) -0.04356(3)
Cd1_3 Cd 0.51200(8) 1.35997(6) -0.04356(3)
Cd1A_2 Cd 0.48800(8) -0.35997(6) 1.04356(3)
Cd1A_3 Cd 1.48800(8) 0.64003(6) 1.04356(3)
N5_2 N -0.6302(8) 0.7484(6) -0.0410(3)
N5A_2 N 1.6302(8) 0.2516(6) 1.0410(3)
O1_2 O -0.6388(9) 0.4800(7) 0.0298(4)
O1A_2 O 1.6388(9) 0.5200(7) 0.9702(4)
N9 N 0.911(3) 0.040(2) 0.5417(12)
O5 O 0.731(2) 0.1715(19) 0.5395(10)
C47 C 0.803(3) 0.096(3) 0.5627(14)
H36 H 0.7747 0.0724 0.6060
C48 C 0.996(3) -0.041(3) 0.5810(12)
H37 H 1.0613 -0.0016 0.6017
H38 H 1.0504 -0.0920 0.5561
H39 H 0.9304 -0.0844 0.6129
C49 C 0.962(3) 0.040(2) 0.4743(13)
O6 O 0.143(3) 0.147(2) 0.9843(14)
H40 H 0.2036 0.1966 0.9818
O7 O 0.063(3) 0.269(2) 0.9108(13)
C50 C 0.054(4) 0.178(3) 0.9431(13)
C51 C -0.053(4) 0.099(3) 0.9401(16)
H41 H -0.1479 0.1339 0.9467
H42 H -0.0422 0.0335 0.9730
H43 H -0.0423 0.0749 0.8987
O8 O 0.9233(10) 0.3704(8) 0.8067(4)
H44 H 0.8386 0.3529 0.8238
H45 H 0.9841 0.3431 0.8334
N9A N 1.089(3) -0.040(2) 0.4583(12)
O5A O 1.269(2) -0.1715(19) 0.4605(10)
C47A C 1.197(3) -0.096(3) 0.4373(14)
H36A H 1.2253 -0.0724 0.3940
C48A C 1.004(3) 0.041(3) 0.4190(12)
H37A H 0.9387 0.0016 0.3983
H38A H 0.9496 0.0920 0.4439
H39A H 1.0696 0.0844 0.3871
C49A C 1.038(3) -0.040(2) 0.5257(13)
H46? H 0.8833 0.0350 0.4485
H47? H 1.0102 0.1106 0.4600
H48? H 0.9698 0.0230 0.5296
loop_
_geom_bond_atom_site_label_1
_geom_bond_atom_site_label_2
_geom_bond_site_symmetry_1
_geom_bond_site_symmetry_2
Cd1 N7 1_555 1_555
N1 H1 1_555 1_555
N2 C7 1_555 1_555
N3 C14 1_555 1_555
N4 C17 1_555 1_555
N5 C22 1_555 1_555
N6 C30 1_555 1_555
N7 C33 1_555 1_555
N8 C38 1_555 1_555
O1 Cd1 1_555 1_555
O2 Cd1 1_555 1_555
O3 Cd1 1_555 1_555
O4 Cd1 1_555 1_555
C1 C2 1_555 1_555
C2 N1 1_555 1_555
C3 C2 1_555 1_555
H2 C3 1_555 1_555
C4 C3 1_555 1_555
H3 C4 1_555 1_555
C5 N1 1_555 1_555
C6 C5 1_555 1_555
C7 C6 1_555 1_555
C8 C7 1_555 1_555
H4 C8 1_555 1_555
C9 C8 1_555 1_555
H5 C9 1_555 1_555
C10 N2 1_555 1_555
C11 C1 1_555 1_555
C12 C11 1_555 1_555
H6 C12 1_555 1_555
C13 C12 1_555 1_555
H7 C13 1_555 1_555
C14 C13 1_555 1_555
C15 C14 1_555 1_555
H8 C15 1_555 1_555
C16 C11 1_555 1_555
H9 C16 1_555 1_555
C17 H10 1_555 1_555
C18 C17 1_555 1_555
H11 C18 1_555 1_555
C19 N3 1_555 1_555
C20 C19 1_555 1_555
H12 C20 1_555 1_555
C21 N4 1_555 1_555
H13 C21 1_555 1_555
C22 H14 1_555 1_555
C23 C22 1_555 1_555
H15 C23 1_555 1_555
C24 N3 1_555 1_555
C25 C24 1_555 1_555
H16 C25 1_555 1_555
C26 N5 1_555 1_555
H17 C26 1_555 1_555
C27 C6 1_555 1_555
C28 C27 1_555 1_555
H18 C28 1_555 1_555
C29 C28 1_555 1_555
H19 C29 1_555 1_555
C30 C29 1_555 1_555
C31 C30 1_555 1_555
H20 C31 1_555 1_555
C32 C27 1_555 1_555
H21 C32 1_555 1_555
C33 H22 1_555 1_555
C34 C33 1_555 1_555
H23 C34 1_555 1_555
C35 N6 1_555 1_555
C36 C35 1_555 1_555
H24 C36 1_555 1_555
C37 N7 1_555 1_555
H25 C37 1_555 1_555
C38 H26 1_555 1_555
C39 C38 1_555 1_555
H27 C39 1_555 1_555
C40 N6 1_555 1_555
C41 C40 1_555 1_555
H28 C41 1_555 1_555
C42 N8 1_555 1_555
H29 C42 1_555 1_555
C43 O1 1_555 1_555
C44 C43 1_555 1_555
H30 C44 1_555 1_555
H31 C44 1_555 1_555
H32 C44 1_555 1_555
C45 O3 1_555 1_555
C46 C45 1_555 1_555
H33 C46 1_555 1_555
H34 C46 1_555 1_555
H35 C46 1_555 1_555
N9 C47 1_555 1_555
O5 C47 1_555 1_555
C47 H36 1_555 1_555
C48 N9 1_555 1_555
H37 C48 1_555 1_555
H38 C48 1_555 1_555
H39 C48 1_555 1_555
C49 N9 1_555 1_555
O6 H40 1_555 1_555
O7 C50 1_555 1_555
C50 O6 1_555 1_555
C51 C50 1_555 1_555
H41 C51 1_555 1_555
H42 C51 1_555 1_555
H43 C51 1_555 1_555
O8 H44 1_555 1_555
H45 O8 1_555 1_555
N1A H1A 1_555 1_555
N2A C7A 1_555 1_555
N3A C14A 1_555 1_555
N4A C17A 1_555 1_555
N5A C22A 1_555 1_555
N6A C30A 1_555 1_555
N7A C33A 1_555 1_555
N8A C38A 1_555 1_555
C1A C10 1_555 1_555
C2A N1A 1_555 1_555
C3A C2A 1_555 1_555
H2A C3A 1_555 1_555
C4A C3A 1_555 1_555
H3A C4A 1_555 1_555
C5A N1A 1_555 1_555
C6A C5A 1_555 1_555
C7A C6A 1_555 1_555
C8A C7A 1_555 1_555
H4A C8A 1_555 1_555
C9A C8A 1_555 1_555
H5A C9A 1_555 1_555
C10A C1 1_555 1_555
C11A C1A 1_555 1_555
C12A C11A 1_555 1_555
H6A C12A 1_555 1_555
C13A C12A 1_555 1_555
H7A C13A 1_555 1_555
C14A C13A 1_555 1_555
C15A C14A 1_555 1_555
H8A C15A 1_555 1_555
C16A C11A 1_555 1_555
H9A C16A 1_555 1_555
C17A H10A 1_555 1_555
C18A C17A 1_555 1_555
H11A C18A 1_555 1_555
C19A N3A 1_555 1_555
C20A C19A 1_555 1_555
H12A C20A 1_555 1_555
C21A N4A 1_555 1_555
H13A C21A 1_555 1_555
C22A H14A 1_555 1_555
C23A C22A 1_555 1_555
H15A C23A 1_555 1_555
C24A N3A 1_555 1_555
C25A C24A 1_555 1_555
H16A C25A 1_555 1_555
C26A N5A 1_555 1_555
H17A C26A 1_555 1_555
C27A C6A 1_555 1_555
C28A C27A 1_555 1_555
H18A C28A 1_555 1_555
C29A C28A 1_555 1_555
H19A C29A 1_555 1_555
C30A C29A 1_555 1_555
C31A C30A 1_555 1_555
H20A C31A 1_555 1_555
C32A C27A 1_555 1_555
H21A C32A 1_555 1_555
C33A H22A 1_555 1_555
C34A C33A 1_555 1_555
H23A C34A 1_555 1_555
C35A N6A 1_555 1_555
C36A C35A 1_555 1_555
H24A C36A 1_555 1_555
C37A N7A 1_555 1_555
H25A C37A 1_555 1_555
C38A H26A 1_555 1_555
C39A C38A 1_555 1_555
H27A C39A 1_555 1_555
C40A N6A 1_555 1_555
C41A C40A 1_555 1_555
H28A C41A 1_555 1_555
C42A N8A 1_555 1_555
H29A C42A 1_555 1_555
Cd1A N7A 1_555 1_555
O1A Cd1A 1_555 1_555
O2A Cd1A 1_555 1_555
O3A Cd1A 1_555 1_555
O4A Cd1A 1_555 1_555
C43A O1A 1_555 1_555
C44A C43A 1_555 1_555
H30A C44A 1_555 1_555
H31A C44A 1_555 1_555
H32A C44A 1_555 1_555
C45A O3A 1_555 1_555
C46A C45A 1_555 1_555
H33A C46A 1_555 1_555
H34A C46A 1_555 1_555
H35A C46A 1_555 1_555
Cd1_2 O1A 1_555 1_555
Cd1_3 N5A 1_555 1_555
Cd1A_2 N5 1_555 1_555
Cd1A_3 O1 1_555 1_555
N5_2 Cd1A 1_555 1_555
N5A_2 Cd1 1_555 1_555
O1_2 Cd1A 1_555 1_555
O1A_2 Cd1 1_555 1_555
N9A C47A 1_555 1_555
O5A C47A 1_555 1_555
C47A H36A 1_555 1_555
C48A N9A 1_555 1_555
H37A C48A 1_555 1_555
H38A C48A 1_555 1_555
H39A C48A 1_555 1_555
C49A N9A 1_555 1_555
O2 C43 1_555 1_555
O4 C45 1_555 1_555
C4 C5 1_555 1_555
C9 C10 1_555 1_555
C15 C16 1_555 1_555
C18 C19 1_555 1_555
C20 C21 1_555 1_555
C23 C24 1_555 1_555
C25 C26 1_555 1_555
C31 C32 1_555 1_555
C34 C35 1_555 1_555
C36 C37 1_555 1_555
C39 C40 1_555 1_555
C41 C42 1_555 1_555
N2A C10A 1_555 1_555
C1A C2A 1_555 1_555
C4A C5A 1_555 1_555
C9A C10A 1_555 1_555
C15A C16A 1_555 1_555
C18A C19A 1_555 1_555
C20A C21A 1_555 1_555
C23A C24A 1_555 1_555
C25A C26A 1_555 1_555
C31A C32A 1_555 1_555
C34A C35A 1_555 1_555
C36A C37A 1_555 1_555
C39A C40A 1_555 1_555
C41A C42A 1_555 1_555
O2A C43A 1_555 1_555
O4A C45A 1_555 1_555
Cd1_2 O1_2 1_555 1_555
Cd1A_3 O1A_2 1_555 1_555

#END
