
#######################################################################
#
#                 Cambridge Crystallographic Data Centre
#                                CCDC 
#
#######################################################################
#
# If this CIF has been generated from an entry in the Cambridge 
# Structural Database, then it will include bibliographic, chemical, 
# crystal, experimental, refinement or atomic coordinate data resulting 
# from the CCDC's data processing and validation procedures.
#
#######################################################################

data_YISKOB
_symmetry_cell_setting           monoclinic
_symmetry_space_group_name_H-M   'P 21/c'
_symmetry_Int_Tables_number      14
_space_group_name_Hall           '-P 2ybc'
loop_
_symmetry_equiv_pos_site_id
_symmetry_equiv_pos_as_xyz
1 x,y,z
2 -x,1/2+y,1/2-z
3 -x,-y,-z
4 x,1/2-y,1/2+z
_cell_length_a                   15.4174(5)
_cell_length_b                   8.6398(2)
_cell_length_c                   25.2466(8)
_cell_angle_alpha                90
_cell_angle_beta                 91.0720(10)
_cell_angle_gamma                90
_cell_volume                     3362.34
loop_
_atom_site_label
_atom_site_type_symbol
_atom_site_fract_x
_atom_site_fract_y
_atom_site_fract_z
Ag1 Ag 0.07613(4) 0.26279(6) -0.00762(2)
C9 C -0.0114(5) 0.4421(7) 0.0798(3)
H10 H -0.0596 0.3908 0.0658
C10 C -0.0221(4) 0.5389(7) 0.1228(2)
H11 H -0.0769 0.5532 0.1367
C11 C 0.0484(4) 0.6138(7) 0.1448(2)
C12 C 0.1292(5) 0.5906(7) 0.1216(3)
H12 H 0.1786 0.6390 0.1352
C13 C 0.1340(4) 0.4940(7) 0.0779(2)
H13 H 0.1875 0.4810 0.0621
C14 C 0.0407(5) 0.7101(7) 0.1944(3)
H14 H -0.0153 0.7613 0.1942
H15 H 0.0852 0.7893 0.1948
C15 C 0.0502(4) 0.6101(7) 0.2444(2)
H16 H 0.0048 0.5324 0.2441
H17 H 0.1055 0.5567 0.2438
C16 C 0.0450(5) 0.7047(7) 0.2956(3)
H18 H 0.0905 0.7823 0.2961
H19 H -0.0104 0.7579 0.2964
C17 C 0.1384(5) 0.4382(7) 0.4013(3)
H20 H 0.1914 0.3927 0.4102
C18 C 0.1343(5) 0.5370(7) 0.3581(3)
H21 H 0.1838 0.5583 0.3390
C19 C 0.0544(4) 0.6046(6) 0.3436(2)
C20 C -0.0160(4) 0.5714(7) 0.3748(3)
H22 H -0.0698 0.6152 0.3671
C21 C -0.0058(4) 0.4714(7) 0.4182(2)
H23 H -0.0537 0.4505 0.4389
N1 N 0.0659(4) 0.4193(6) 0.05741(19)
N2 N 0.0695(4) 0.4053(6) 0.43090(19)
Ag1C Ag 0.07613(4) 0.23721(6) 0.49238(2)
N2C N 0.0695(4) 0.0947(6) -0.06910(19)
Ag2 Ag -0.48590(6) 0.23433(6) 0.00532(2)
C22 C -0.5443(5) 0.0080(8) 0.0893(3)
H24 H -0.5978 0.0283 0.0731
C23 C -0.5406(4) -0.0880(7) 0.1329(3)
H25 H -0.5911 -0.1321 0.1456
C24 C -0.4612(4) -0.1186(7) 0.1577(2)
C25 C -0.3879(4) -0.0514(8) 0.1363(3)
H26 H -0.3334 -0.0696 0.1514
C26 C -0.3968(5) 0.0427(8) 0.0924(3)
H27 H -0.3471 0.0863 0.0783
C27 C -0.4593(5) -0.2138(7) 0.2072(2)
H28 H -0.4057 -0.2727 0.2091
H29 H -0.5073 -0.2864 0.2064
C28 C -0.4657(4) -0.1095(7) 0.2567(2)
H30 H -0.4156 -0.0419 0.2586
H31 H -0.5170 -0.0450 0.2533
C29 C -0.4705(5) -0.2032(7) 0.3079(3)
H32 H -0.5218 -0.2682 0.3067
H33 H -0.4201 -0.2702 0.3109
C30 C -0.4059(5) 0.0642(9) 0.4208(3)
H34 H -0.3553 0.1071 0.4350
C31 C -0.3999(5) -0.0351(8) 0.3781(3)
H35 H -0.3459 -0.0585 0.3644
C32 C -0.4737(4) -0.0993(6) 0.3560(2)
C33 C -0.5514(5) -0.0618(8) 0.3788(3)
H36 H -0.6029 -0.1040 0.3656
C34 C -0.5526(5) 0.0392(8) 0.4216(3)
H37 H -0.6056 0.0645 0.4362
N3 N -0.4717(4) 0.0738(6) 0.0694(2)
N4 N -0.4811(4) 0.1009(6) 0.4423(2)
Ag2C Ag -0.48590(6) 0.26567(6) 0.50532(2)
N4C N -0.4811(4) 0.3991(6) -0.0577(2)
O1 O 0.2375(4) 0.8972(6) 0.3424(2)
O3 O 0.2394(4) 1.1491(6) 0.3532(2)
O5 O 0.2971(4) 0.7095(6) 0.1897(2)
O6 O 0.2749(4) 0.7151(6) 0.2751(2)
H5 H 0.2601 0.7784 0.2973
C1 C 0.2398(4) 1.0633(7) 0.2642(3)
C2 C 0.2548(4) 0.9537(8) 0.2242(3)
C3 C 0.2516(5) 1.0050(8) 0.1719(3)
H6 H 0.2610 0.9338 0.1450
C4 C 0.2351(5) 1.1581(9) 0.1582(3)
H7 H 0.2330 1.1886 0.1229
C5 C 0.2218(5) 1.2639(9) 0.1982(3)
H8 H 0.2115 1.3674 0.1901
C6 C 0.2239(5) 1.2160(8) 0.2498(3)
H9 H 0.2143 1.2884 0.2762
C7 C 0.2407(4) 1.0345(8) 0.3241(3)
C8 C 0.2781(4) 0.7811(8) 0.2295(3)
O2 O 0.2243(4) 1.0655(6) 0.4596(2)
H1 H 0.230(6) 1.099(8) 0.4261(11)
H2 H 0.241(6) 0.966(3) 0.464(3)
O4 O -0.6720(4) 0.2857(8) 0.5112(3)
H3 H -0.714(4) 0.341(11) 0.526(4)
H4 H -0.694(5) 0.213(10) 0.489(4)
O7 O -0.2716(4) 0.2471(8) 0.5063(3)
O8 O -0.2167(5) 0.4544(8) 0.4692(3)
O9 O -0.1337(4) 0.2771(6) 0.5011(2)
N5 N -0.2067(5) 0.3258(8) 0.4930(2)
loop_
_geom_bond_atom_site_label_1
_geom_bond_atom_site_label_2
_geom_bond_site_symmetry_1
_geom_bond_site_symmetry_2
Ag1 N1 1_555 1_555
Ag2 N3 1_555 1_555
O1 C7 1_555 1_555
O2 H1 1_555 1_555
H2 O2 1_555 1_555
O3 C7 1_555 1_555
O4 H3 1_555 1_555
H4 O4 1_555 1_555
O5 C8 1_555 1_555
O6 H5 1_555 1_555
O7 N5 1_555 1_555
O8 N5 1_555 1_555
O9 N5 1_555 1_555
C1 C2 1_555 1_555
C2 C3 1_555 1_555
C3 H6 1_555 1_555
C4 C3 1_555 1_555
H7 C4 1_555 1_555
C5 C4 1_555 1_555
H8 C5 1_555 1_555
C6 C1 1_555 1_555
H9 C6 1_555 1_555
C7 C1 1_555 1_555
C8 O6 1_555 1_555
C9 H10 1_555 1_555
C10 C9 1_555 1_555
H11 C10 1_555 1_555
C11 C10 1_555 1_555
C12 C11 1_555 1_555
H12 C12 1_555 1_555
C13 C12 1_555 1_555
H13 C13 1_555 1_555
C14 C11 1_555 1_555
H14 C14 1_555 1_555
H15 C14 1_555 1_555
C15 C14 1_555 1_555
H16 C15 1_555 1_555
H17 C15 1_555 1_555
C16 C15 1_555 1_555
H18 C16 1_555 1_555
H19 C16 1_555 1_555
C17 H20 1_555 1_555
C18 C17 1_555 1_555
H21 C18 1_555 1_555
C19 C16 1_555 1_555
C20 C19 1_555 1_555
H22 C20 1_555 1_555
C21 C20 1_555 1_555
H23 C21 1_555 1_555
C22 H24 1_555 1_555
C23 C22 1_555 1_555
H25 C23 1_555 1_555
C24 C23 1_555 1_555
C25 C24 1_555 1_555
H26 C25 1_555 1_555
C26 C25 1_555 1_555
H27 C26 1_555 1_555
C27 C24 1_555 1_555
H28 C27 1_555 1_555
H29 C27 1_555 1_555
C28 C27 1_555 1_555
H30 C28 1_555 1_555
H31 C28 1_555 1_555
C29 C28 1_555 1_555
H32 C29 1_555 1_555
H33 C29 1_555 1_555
C30 H34 1_555 1_555
C31 C30 1_555 1_555
H35 C31 1_555 1_555
C32 C29 1_555 1_555
C33 C32 1_555 1_555
H36 C33 1_555 1_555
C34 C33 1_555 1_555
H37 C34 1_555 1_555
N1 C9 1_555 1_555
N2 C17 1_555 1_555
N3 C22 1_555 1_555
N4 C30 1_555 1_555
Ag1C N2 1_555 1_555
Ag2C N4 1_555 1_555
N2C Ag1 1_555 1_555
N4C Ag2 1_555 1_555
C2 C8 1_555 1_555
C5 C6 1_555 1_555
C13 N1 1_555 1_555
C18 C19 1_555 1_555
C21 N2 1_555 1_555
C26 N3 1_555 1_555
C31 C32 1_555 1_555
C34 N4 1_555 1_555

#END
