
#######################################################################
#
#                 Cambridge Crystallographic Data Centre
#                                CCDC 
#
#######################################################################
#
# If this CIF has been generated from an entry in the Cambridge 
# Structural Database, then it will include bibliographic, chemical, 
# crystal, experimental, refinement or atomic coordinate data resulting 
# from the CCDC's data processing and validation procedures.
#
#######################################################################

data_YISLES
_symmetry_cell_setting           monoclinic
_symmetry_space_group_name_H-M   'C 2/c'
_symmetry_Int_Tables_number      15
_space_group_name_Hall           '-C 2yn'
loop_
_symmetry_equiv_pos_site_id
_symmetry_equiv_pos_as_xyz
1 x,y,z
2 1/2+x,1/2+y,z
3 -x,y,1/2-z
4 1/2-x,1/2+y,1/2-z
5 -x,-y,-z
6 1/2-x,1/2-y,-z
7 x,-y,1/2+z
8 1/2+x,1/2-y,1/2+z
_cell_length_a                   14.8120(8)
_cell_length_b                   20.5146(8)
_cell_length_c                   38.791(2)
_cell_angle_alpha                90
_cell_angle_beta                 99.2840(10)
_cell_angle_gamma                90
_cell_volume                     11632.7
loop_
_atom_site_label
_atom_site_type_symbol
_atom_site_fract_x
_atom_site_fract_y
_atom_site_fract_z
K1 K 0.3364(3) 0.62127(18) 0.31722(8)
P1 P 0.30896(19) 0.53195(12) 0.14647(6)
W1 W 0.52901(3) 0.45777(2) 0.160070(10)
W2 W 0.09024(4) 0.60566(3) 0.128654(12)
W3 W 0.38556(3) 0.43100(2) 0.080289(10)
W4 W 0.35162(3) 0.40038(2) 0.207479(10)
W5 W 0.48206(3) 0.58017(2) 0.098632(10)
W6 W 0.41532(3) 0.682611(19) 0.170032(10)
W7 W 0.25697(4) 0.65939(2) 0.084393(11)
W8 W 0.20378(4) 0.37297(2) 0.128152(11)
W9 W 0.24980(3) 0.63020(2) 0.213892(11)
W10 W 0.15733(4) 0.50999(2) 0.064960(11)
W11 W 0.13698(4) 0.46953(2) 0.191044(11)
Cu1 Cu 0.42378(9) 0.38680(5) -0.01211(3)
La1 La 0.5000 0.56075(4) 0.2500
C1 C 0.4535(7) 0.5159(5) -0.0063(2)
C2 C 0.2263(9) 0.3846(6) -0.0371(3)
H1 H 0.2278 0.4290 -0.0323
C3 C 0.1423(9) 0.3564(7) -0.0511(3)
H2 H 0.0887 0.3807 -0.0559
C4 C 0.1438(10) 0.2907(7) -0.0575(3)
H3 H 0.0901 0.2698 -0.0673
C5 C 0.2223(10) 0.2554(6) -0.0497(3)
H4 H 0.2219 0.2107 -0.0535
C6 C 0.3013(8) 0.2865(5) -0.0362(2)
C7 C 0.3892(8) 0.2551(4) -0.0258(2)
C8 C 0.5407(9) 0.2711(5) -0.0026(3)
H5 H 0.5878 0.2997 0.0059
C9 C 0.5597(11) 0.2032(6) -0.0039(4)
H6 H 0.6176 0.1865 0.0041
C10 C 0.4892(10) 0.1643(6) -0.0174(3)
H7 H 0.4987 0.1197 -0.0195
C11 C 0.4051(11) 0.1896(6) -0.0278(3)
H8 H 0.3570 0.1619 -0.0364
N1 N 0.4579(6) 0.2945(4) -0.01320(19)
N2 N 0.3037(6) 0.3514(4) -0.03013(19)
O1 O 0.3168(5) 0.6892(3) 0.12622(16)
O2 O 0.3389(5) 0.5824(3) 0.17488(15)
O3 O 0.3908(5) 0.5111(3) 0.12943(14)
O4 O 0.4435(5) 0.4029(3) 0.17798(15)
O5 O 0.4879(5) 0.6539(3) 0.20746(15)
O6 O 0.2355(5) 0.5610(3) 0.11780(15)
O7 O 0.4514(5) 0.5066(3) 0.06844(14)
O8 O 0.3981(6) 0.3789(3) 0.04669(17)
O9 O 0.4788(5) 0.6364(3) 0.13698(15)
O10 O 0.5650(5) 0.5234(3) 0.12809(16)
O11 O 0.2691(5) 0.4712(3) 0.16174(14)
O12 O 0.1966(5) 0.5936(3) 0.05199(17)
O13 O 0.2756(5) 0.4790(3) 0.06255(16)
O14 O 0.3074(5) 0.3811(3) 0.10456(16)
O15 O 0.5315(5) 0.5157(3) 0.19396(15)
O16 O 0.2803(5) 0.3445(3) 0.16761(16)
O17 O 0.5574(6) 0.6179(3) 0.07634(17)
O18 O 0.4842(5) 0.4101(3) 0.11397(16)
O19 O 0.1603(5) 0.6388(4) 0.16772(18)
O20 O 0.1920(5) 0.5467(3) 0.21268(17)
O21 O 0.3697(5) 0.6172(3) 0.07892(15)
O22 O 0.1483(5) 0.4369(3) 0.09477(17)
O23 O 0.2558(6) 0.7246(3) 0.05742(18)
O24 O 0.3416(5) 0.6055(3) 0.24582(16)
O25 O 0.0825(5) 0.5258(3) 0.15402(18)
O26 O 0.1554(6) 0.3020(3) 0.11186(17)
O27 O 0.0682(6) 0.5517(4) 0.08619(18)
O28 O 0.6315(5) 0.4172(3) 0.17058(19)
O29 O 0.4564(6) 0.7608(3) 0.16666(17)
O30 O 0.3936(5) 0.4711(3) 0.23090(15)
O31 O 0.3142(5) 0.6992(3) 0.19487(17)
O32 O 0.0948(6) 0.4855(4) 0.02601(18)
O33 O 0.0457(6) 0.4575(4) 0.21235(19)
O34 O 0.1836(6) 0.6748(4) 0.23794(18)
O35 O -0.0151(6) 0.6377(4) 0.1295(2)
O36 O 0.1402(6) 0.6682(3) 0.09949(18)
O37 O 0.1180(5) 0.3993(3) 0.15723(16)
O38 O 0.3859(6) 0.3359(3) 0.23525(19)
O39 O 0.2279(5) 0.4150(3) 0.21699(16)
O40 O 0.3866(5) 0.4800(3) -0.01678(17)
O41 O 0.4519(5) 0.5779(3) -0.00565(16)
P1B P 0.69104(19) 0.53195(12) 0.35353(6)
W1B W 0.47099(3) 0.45777(2) 0.339930(10)
W2B W 0.90976(4) 0.60566(3) 0.371346(12)
W3B W 0.61444(3) 0.43100(2) 0.419711(10)
W4B W 0.64838(3) 0.40038(2) 0.292521(10)
W5B W 0.51794(3) 0.58017(2) 0.401368(10)
W6B W 0.58468(3) 0.682611(19) 0.329968(10)
W7B W 0.74303(4) 0.65939(2) 0.415607(11)
W8B W 0.79622(4) 0.37297(2) 0.371848(11)
W9B W 0.75020(3) 0.63020(2) 0.286108(11)
W10B W 0.84267(4) 0.50999(2) 0.435040(11)
W11B W 0.86302(4) 0.46953(2) 0.308956(11)
Cu1D Cu 0.57622(9) 0.61320(5) 0.01211(3)
Cu1B Cu 0.57622(9) 0.38680(5) 0.51211(3)
Cu1F Cu 0.42378(9) 0.61320(5) 0.48789(3)
C1D C 0.5465(7) 0.4841(5) 0.0063(2)
C2D C 0.7737(9) 0.6154(6) 0.0371(3)
H1D H 0.7722 0.5710 0.0323
C3D C 0.8577(9) 0.6436(7) 0.0511(3)
H2D H 0.9113 0.6193 0.0559
C4D C 0.8562(10) 0.7093(7) 0.0575(3)
H3D H 0.9099 0.7302 0.0673
C5D C 0.7777(10) 0.7446(6) 0.0497(3)
H4D H 0.7781 0.7893 0.0535
C6D C 0.6987(8) 0.7135(5) 0.0362(2)
C7D C 0.6108(8) 0.7449(4) 0.0258(2)
C8D C 0.4593(9) 0.7289(5) 0.0026(3)
H5D H 0.4122 0.7003 -0.0059
C9D C 0.4403(11) 0.7968(6) 0.0039(4)
H6D H 0.3824 0.8135 -0.0041
C10D C 0.5108(10) 0.8357(6) 0.0174(3)
H7D H 0.5013 0.8803 0.0195
C11D C 0.5949(11) 0.8104(6) 0.0278(3)
H8D H 0.6430 0.8381 0.0364
N1D N 0.5421(6) 0.7055(4) 0.01320(19)
N2D N 0.6963(6) 0.6486(4) 0.03013(19)
O1B O 0.6832(5) 0.6892(3) 0.37378(16)
O2B O 0.6611(5) 0.5824(3) 0.32512(15)
O3B O 0.6092(5) 0.5111(3) 0.37057(14)
O4B O 0.5565(5) 0.4029(3) 0.32202(15)
O5B O 0.5121(5) 0.6539(3) 0.29254(15)
O6B O 0.7645(5) 0.5610(3) 0.38220(15)
O7B O 0.5486(5) 0.5066(3) 0.43156(14)
O8B O 0.6019(6) 0.3789(3) 0.45331(17)
O8D O 0.6019(6) 0.6211(3) -0.04669(17)
O9B O 0.5212(5) 0.6364(3) 0.36302(15)
O10B O 0.4350(5) 0.5234(3) 0.37191(16)
O11B O 0.7309(5) 0.4712(3) 0.33826(14)
O12B O 0.8034(5) 0.5936(3) 0.44801(17)
O13B O 0.7244(5) 0.4790(3) 0.43745(16)
O14B O 0.6926(5) 0.3811(3) 0.39544(16)
O15B O 0.4685(5) 0.5157(3) 0.30604(15)
O16B O 0.7197(5) 0.3445(3) 0.33239(16)
O17D O 0.4426(6) 0.3821(3) -0.07634(17)
O17B O 0.4426(6) 0.6179(3) 0.42366(17)
O18B O 0.5158(5) 0.4101(3) 0.38603(16)
O19B O 0.8397(5) 0.6388(4) 0.33228(18)
O20B O 0.8080(5) 0.5467(3) 0.28732(17)
O21B O 0.6303(5) 0.6172(3) 0.42108(15)
O22B O 0.8517(5) 0.4369(3) 0.40523(17)
O23B O 0.7442(6) 0.7246(3) 0.44258(18)
O24B O 0.6584(5) 0.6055(3) 0.25418(16)
O25B O 0.9175(5) 0.5258(3) 0.34598(18)
O26B O 0.8446(6) 0.3020(3) 0.38814(17)
O27B O 0.9318(6) 0.5517(4) 0.41381(18)
O28B O 0.3685(5) 0.4172(3) 0.32942(19)
O29B O 0.5436(6) 0.7608(3) 0.33334(17)
O30B O 0.6064(5) 0.4711(3) 0.26910(15)
O31B O 0.6858(5) 0.6992(3) 0.30513(17)
O32B O 0.9052(6) 0.4855(4) 0.47399(18)
O33B O 0.9543(6) 0.4575(4) 0.28765(19)
O34B O 0.8164(6) 0.6748(4) 0.26206(18)
O35B O 1.0151(6) 0.6377(4) 0.3705(2)
O36B O 0.8598(6) 0.6682(3) 0.40051(18)
O37B O 0.8820(5) 0.3993(3) 0.34277(16)
O38B O 0.6141(6) 0.3359(3) 0.26475(19)
O39B O 0.7721(5) 0.4150(3) 0.28301(16)
O40D O 0.6134(5) 0.5200(3) 0.01678(17)
O41D O 0.5481(5) 0.4221(3) 0.00565(16)
loop_
_geom_bond_atom_site_label_1
_geom_bond_atom_site_label_2
_geom_bond_site_symmetry_1
_geom_bond_site_symmetry_2
P1 O2 1_555 1_555
W1 O3 1_555 1_555
W2 O6 1_555 1_555
W3 O3 1_555 1_555
W4 O4 1_555 1_555
W5 O3 1_555 1_555
W6 O1 1_555 1_555
W7 O1 1_555 1_555
W8 O11 1_555 1_555
W9 O2 1_555 1_555
W10 O6 1_555 1_555
W11 O11 1_555 1_555
Cu1 N1 1_555 1_555
La1 O5 1_555 1_555
C1 O40 1_555 1_555
C2 H1 1_555 1_555
C3 C2 1_555 1_555
H2 C3 1_555 1_555
C4 C3 1_555 1_555
H3 C4 1_555 1_555
C5 C4 1_555 1_555
H4 C5 1_555 1_555
C6 C5 1_555 1_555
C7 C6 1_555 1_555
C8 H5 1_555 1_555
C9 C8 1_555 1_555
H6 C9 1_555 1_555
C10 C9 1_555 1_555
H7 C10 1_555 1_555
C11 C7 1_555 1_555
H8 C11 1_555 1_555
N1 C7 1_555 1_555
N2 Cu1 1_555 1_555
O2 W6 1_555 1_555
O3 P1 1_555 1_555
O4 W1 1_555 1_555
O5 W6 1_555 1_555
O6 P1 1_555 1_555
O7 W3 1_555 1_555
O8 W3 1_555 1_555
O9 W5 1_555 1_555
O10 W1 1_555 1_555
O11 P1 1_555 1_555
O12 W7 1_555 1_555
O13 W3 1_555 1_555
O14 W3 1_555 1_555
O15 W1 1_555 1_555
O16 W4 1_555 1_555
O17 W5 1_555 1_555
O18 W1 1_555 1_555
O19 W2 1_555 1_555
O20 W9 1_555 1_555
O21 W5 1_555 1_555
O22 W8 1_555 1_555
O23 W7 1_555 1_555
O24 W9 1_555 1_555
O25 W2 1_555 1_555
O26 W8 1_555 1_555
O27 W2 1_555 1_555
O28 W1 1_555 1_555
O29 W6 1_555 1_555
O30 W4 1_555 1_555
O31 W6 1_555 1_555
O32 W10 1_555 1_555
O33 W11 1_555 1_555
O34 W9 1_555 1_555
O35 W2 1_555 1_555
O36 W2 1_555 1_555
O37 W8 1_555 1_555
O38 W4 1_555 1_555
O39 W4 1_555 1_555
O40 Cu1 1_555 1_555
O41 C1 1_555 1_555
P1B O2B 1_555 1_555
W1B O3B 1_555 1_555
W2B O6B 1_555 1_555
W3B O3B 1_555 1_555
W4B O4B 1_555 1_555
W5B O3B 1_555 1_555
W6B O1B 1_555 1_555
W7B O1B 1_555 1_555
W8B O11B 1_555 1_555
W9B O2B 1_555 1_555
W10B O6B 1_555 1_555
W11B O11B 1_555 1_555
Cu1D O17 1_555 1_555
Cu1B O8B 1_555 1_555
Cu1F O17B 1_555 1_555
C1D C1 1_555 1_555
C2D H1D 1_555 1_555
C3D C2D 1_555 1_555
H2D C3D 1_555 1_555
C4D C3D 1_555 1_555
H3D C4D 1_555 1_555
C5D C4D 1_555 1_555
H4D C5D 1_555 1_555
C6D C5D 1_555 1_555
C7D C6D 1_555 1_555
C8D H5D 1_555 1_555
C9D C8D 1_555 1_555
H6D C9D 1_555 1_555
C10D C9D 1_555 1_555
H7D C10D 1_555 1_555
C11D C7D 1_555 1_555
H8D C11D 1_555 1_555
N1D Cu1D 1_555 1_555
N2D Cu1D 1_555 1_555
O2B W6B 1_555 1_555
O3B P1B 1_555 1_555
O4B W1B 1_555 1_555
O5B La1 1_555 1_555
O6B P1B 1_555 1_555
O7B W3B 1_555 1_555
O8B W3B 1_555 1_555
O8D Cu1D 1_555 1_555
O9B W5B 1_555 1_555
O10B W1B 1_555 1_555
O11B P1B 1_555 1_555
O12B W7B 1_555 1_555
O13B W3B 1_555 1_555
O14B W3B 1_555 1_555
O15B La1 1_555 1_555
O16B W4B 1_555 1_555
O17D Cu1 1_555 1_555
O17B W5B 1_555 1_555
O18B W1B 1_555 1_555
O19B W2B 1_555 1_555
O20B W9B 1_555 1_555
O21B W5B 1_555 1_555
O22B W8B 1_555 1_555
O23B W7B 1_555 1_555
O24B La1 1_555 1_555
O25B W2B 1_555 1_555
O26B W8B 1_555 1_555
O27B W2B 1_555 1_555
O28B W1B 1_555 1_555
O29B W6B 1_555 1_555
O30B La1 1_555 1_555
O31B W6B 1_555 1_555
O32B W10B 1_555 1_555
O33B W11B 1_555 1_555
O34B W9B 1_555 1_555
O35B W2B 1_555 1_555
O36B W2B 1_555 1_555
O37B W8B 1_555 1_555
O38B W4B 1_555 1_555
O39B W4B 1_555 1_555
O40D Cu1D 1_555 1_555
O41D Cu1 1_555 1_555
W3 O18 1_555 1_555
W4 O11 1_555 1_555
W5 O7 1_555 1_555
W5 O10 1_555 1_555
W6 O9 1_555 1_555
W7 O6 1_555 1_555
W7 O21 1_555 1_555
W7 O36 1_555 1_555
W8 O14 1_555 1_555
W8 O16 1_555 1_555
W9 O19 1_555 1_555
W9 O31 1_555 1_555
W10 O12 1_555 1_555
W10 O13 1_555 1_555
W10 O22 1_555 1_555
W10 O27 1_555 1_555
W11 O20 1_555 1_555
W11 O25 1_555 1_555
W11 O37 1_555 1_555
W11 O39 1_555 1_555
Cu1 O8 1_555 1_555
La1 O15 1_555 1_555
La1 O24 1_555 1_555
La1 O30 1_555 1_555
C2 N2 1_555 1_555
C6 N2 1_555 1_555
C8 N1 1_555 1_555
C10 C11 1_555 1_555
O41 Cu1D 1_555 1_555
W1B O15B 1_555 1_555
W3B O18B 1_555 1_555
W4B O11B 1_555 1_555
W4B O30B 1_555 1_555
W5B O7B 1_555 1_555
W5B O10B 1_555 1_555
W6B O5B 1_555 1_555
W6B O9B 1_555 1_555
W7B O6B 1_555 1_555
W7B O21B 1_555 1_555
W7B O36B 1_555 1_555
W8B O14B 1_555 1_555
W8B O16B 1_555 1_555
W9B O19B 1_555 1_555
W9B O24B 1_555 1_555
W9B O31B 1_555 1_555
W10B O12B 1_555 1_555
W10B O13B 1_555 1_555
W10B O22B 1_555 1_555
W10B O27B 1_555 1_555
W11B O20B 1_555 1_555
W11B O25B 1_555 1_555
W11B O37B 1_555 1_555
W11B O39B 1_555 1_555
C1D O40D 1_555 1_555
C1D O41D 1_555 1_555
C2D N2D 1_555 1_555
C6D N2D 1_555 1_555
C7D N1D 1_555 1_555
C8D N1D 1_555 1_555
C10D C11D 1_555 1_555

#END
