
#######################################################################
#
#                 Cambridge Crystallographic Data Centre
#                                CCDC 
#
#######################################################################
#
# If this CIF has been generated from an entry in the Cambridge 
# Structural Database, then it will include bibliographic, chemical, 
# crystal, experimental, refinement or atomic coordinate data resulting 
# from the CCDC's data processing and validation procedures.
#
#######################################################################

data_YISMIW
_symmetry_cell_setting           monoclinic
_symmetry_space_group_name_H-M   'P 21/n'
_symmetry_Int_Tables_number      14
_space_group_name_Hall           '-P 2yn'
loop_
_symmetry_equiv_pos_site_id
_symmetry_equiv_pos_as_xyz
1 x,y,z
2 1/2-x,1/2+y,1/2-z
3 -x,-y,-z
4 1/2+x,1/2-y,1/2+z
_cell_length_a                   7.284(2)
_cell_length_b                   12.166(3)
_cell_length_c                   12.310(3)
_cell_angle_alpha                90
_cell_angle_beta                 90.36(2)
_cell_angle_gamma                90
_cell_volume                     1090.86
loop_
_atom_site_label
_atom_site_type_symbol
_atom_site_fract_x
_atom_site_fract_y
_atom_site_fract_z
Pb1 Pb 0.1492(1) -0.4074(1) -0.1914(1)
N1 N 0.1984(29) -0.1352(15) -0.0152(12)
N2 N 0.2299(40) -0.0443(15) 0.0395(14)
N3 N 0.2877(23) -0.0138(12) -0.1364(12)
N4 N 0.3208(28) 0.1410(14) -0.0084(12)
N5 N 0.4412(17) -0.4328(12) 0.0987(12)
N6 N 0.4990(17) -0.5164(13) 0.1645(12)
N7 N 0.1892(18) -0.5229(12) 0.1430(10)
N8 N 0.3399(21) -0.6609(11) 0.2568(10)
O1 O 0.2143(24) -0.1908(11) -0.1964(10)
O2 O 0.3355(54) 0.1647(20) 0.0843(14)
O3 O 0.3768(22) 0.1943(11) -0.0859(12)
O4 O 0.1677(21) -0.3669(11) 0.0224(12)
O5 O 0.4836(19) -0.6918(12) 0.2963(11)
O6 O 0.1897(17) -0.7046(11) 0.2720(10)
O7 O 0.1684(21) -0.5961(11) -0.1204(9)
C1 C 0.2367(30) -0.1194(15) -0.1262(15)
C2 C 0.2729(32) 0.0258(15) -0.0331(10)
C3 C 0.2507(18) -0.4363(12) 0.0832(10)
C4 C 0.3390(17) -0.5652(13) 0.1822(11)
N7B N -0.1892(18) -0.4771(12) -0.1430(10)
O6B O -0.1897(17) -0.2954(11) -0.2720(10)
N3A N 0.2123(23) -0.5138(12) -0.3636(12)
O3A O 0.1232(22) -0.3057(11) -0.4141(12)
N6B N 0.5010(17) -0.4836(13) -0.1645(12)
O5B O 0.5164(19) -0.3082(12) -0.2963(11)
Pb1A Pb 0.3508(1) 0.0926(1) -0.3086(1)
Pb1B Pb 0.8508(1) -0.5926(1) 0.1914(1)
Pb1B_2 Pb -0.1492(1) -0.5926(1) 0.1914(1)
loop_
_geom_bond_atom_site_label_1
_geom_bond_atom_site_label_2
_geom_bond_site_symmetry_1
_geom_bond_site_symmetry_2
Pb1 O1 1_555 1_555
N1 N2 1_555 1_555
N2 C2 1_555 1_555
N3 C1 1_555 1_555
N4 O2 1_555 1_555
N5 N6 1_555 1_555
N6 C4 1_555 1_555
N7 C3 1_555 1_555
N8 O5 1_555 1_555
O1 C1 1_555 1_555
O3 N4 1_555 1_555
O4 Pb1 1_555 1_555
O5 Pb1B 1_555 1_555
O6 N8 1_555 1_555
O7 Pb1 1_555 1_555
C1 N1 1_555 1_555
C2 N3 1_555 1_555
C3 N5 1_555 1_555
C4 N7 1_555 1_555
N7B Pb1 1_555 1_555
O6B Pb1 1_555 1_555
N3A Pb1 1_555 1_555
O3A Pb1 1_555 1_555
N6B Pb1 1_555 1_555
O5B Pb1 1_555 1_555
Pb1A N3 1_555 1_555
Pb1B N6 1_555 1_555
Pb1B_2 N7 1_555 1_555
N4 C2 1_555 1_555
N8 C4 1_555 1_555
O3 Pb1A 1_555 1_555
O4 C3 1_555 1_555
O6 Pb1B_2 1_555 1_555

#END
