
#######################################################################
#
#                 Cambridge Crystallographic Data Centre
#                                CCDC 
#
#######################################################################
#
# If this CIF has been generated from an entry in the Cambridge 
# Structural Database, then it will include bibliographic, chemical, 
# crystal, experimental, refinement or atomic coordinate data resulting 
# from the CCDC's data processing and validation procedures.
#
#######################################################################

data_YISMOD
_symmetry_cell_setting           monoclinic
_symmetry_space_group_name_H-M   'C 2/c'
_symmetry_Int_Tables_number      15
_space_group_name_Hall           '-C 2yn'
loop_
_symmetry_equiv_pos_site_id
_symmetry_equiv_pos_as_xyz
1 x,y,z
2 1/2+x,1/2+y,z
3 -x,y,1/2-z
4 1/2-x,1/2+y,1/2-z
5 -x,-y,-z
6 1/2-x,1/2-y,-z
7 x,-y,1/2+z
8 1/2+x,1/2-y,1/2+z
_cell_length_a                   30.299(7)
_cell_length_b                   9.513(2)
_cell_length_c                   8.3489(18)
_cell_angle_alpha                90
_cell_angle_beta                 95.395(4)
_cell_angle_gamma                90
_cell_volume                     2395.78
loop_
_atom_site_label
_atom_site_type_symbol
_atom_site_fract_x
_atom_site_fract_y
_atom_site_fract_z
Co1 Co 0.207899(15) 0.15458(4) 0.25740(6)
N1 N 0.15431(9) 0.2845(3) 0.0994(3)
O1 O 0.04377(9) 0.0214(3) 0.3972(4)
O2 O 0.00542(11) 0.1856(4) 0.5131(5)
O3 O 0.21007(7) 0.0820(2) 0.0267(3)
O4 O 0.17031(7) 0.0238(2) -0.2040(3)
O5 O 0.23531(7) 0.3536(2) 0.2599(3)
O6 O 0.22943(7) 0.5732(2) 0.1669(3)
O7 O 0.19258(9) 0.2116(3) 0.4884(3)
C1 C 0.03588(13) 0.1461(5) 0.4252(6)
C2 C 0.06070(12) 0.2611(4) 0.3523(5)
C3 C 0.04904(12) 0.4009(4) 0.3692(5)
H1 H 0.0256 0.4248 0.4284
C4 C 0.07198(12) 0.5027(4) 0.2987(5)
H2 H 0.0641 0.5964 0.3097
C5 C 0.10690(12) 0.4685(4) 0.2107(5)
H3 H 0.1225 0.5393 0.1641
C6 C 0.11870(11) 0.3295(3) 0.1917(4)
C7 C 0.09531(12) 0.2261(4) 0.2645(5)
H4 H 0.1031 0.1322 0.2539
C8 C 0.13962(11) 0.1888(3) -0.0350(4)
H5 H 0.1297 0.2440 -0.1293
H6 H 0.1147 0.1334 -0.0060
C9 C 0.17648(12) 0.0916(3) -0.0748(4)
C10 C 0.18211(11) 0.3983(3) 0.0412(4)
H7 H 0.1634 0.4779 0.0083
H8 H 0.1957 0.3654 -0.0526
C11 C 0.21817(11) 0.4463(3) 0.1680(4)
H9 H 0.2016(12) 0.286(3) 0.523(5)
H10 H 0.2031(14) 0.148(3) 0.542(5)
H11 H -0.0092(18) 0.117(4) 0.543(8)
Co1F Co 0.207899(15) -0.15458(4) -0.24260(6)
Co1C Co 0.292101(15) 0.65458(4) 0.24260(6)
O4F O 0.17031(7) -0.0238(2) 0.2960(3)
O6C O 0.27057(7) 0.0732(2) 0.3331(3)
loop_
_geom_bond_atom_site_label_1
_geom_bond_atom_site_label_2
_geom_bond_site_symmetry_1
_geom_bond_site_symmetry_2
Co1 N1 1_555 1_555
N1 C6 1_555 1_555
O1 C1 1_555 1_555
O2 C1 1_555 1_555
O3 Co1 1_555 1_555
O4 C9 1_555 1_555
O5 Co1 1_555 1_555
O6 C11 1_555 1_555
O7 Co1 1_555 1_555
C1 C2 1_555 1_555
C2 C3 1_555 1_555
C3 H1 1_555 1_555
C4 C3 1_555 1_555
H2 C4 1_555 1_555
C5 C4 1_555 1_555
H3 C5 1_555 1_555
C6 C5 1_555 1_555
C7 C2 1_555 1_555
H4 C7 1_555 1_555
C8 N1 1_555 1_555
H5 C8 1_555 1_555
H6 C8 1_555 1_555
C9 O3 1_555 1_555
C10 N1 1_555 1_555
H7 C10 1_555 1_555
H8 C10 1_555 1_555
C11 O5 1_555 1_555
H9 O7 1_555 1_555
H10 O7 1_555 1_555
H11 O2 1_555 1_555
Co1F O4 1_555 1_555
Co1C O6 1_555 1_555
O4F Co1 1_555 1_555
O6C Co1 1_555 1_555
C6 C7 1_555 1_555
C8 C9 1_555 1_555
C10 C11 1_555 1_555

#END
