
#######################################################################
#
#                 Cambridge Crystallographic Data Centre
#                                CCDC 
#
#######################################################################
#
# If this CIF has been generated from an entry in the Cambridge 
# Structural Database, then it will include bibliographic, chemical, 
# crystal, experimental, refinement or atomic coordinate data resulting 
# from the CCDC's data processing and validation procedures.
#
#######################################################################

data_YISVAZ
_symmetry_cell_setting           monoclinic
_symmetry_space_group_name_H-M   'C 2/c'
_symmetry_Int_Tables_number      15
_space_group_name_Hall           '-C 2yn'
loop_
_symmetry_equiv_pos_site_id
_symmetry_equiv_pos_as_xyz
1 x,y,z
2 -x,y,1/2-z
3 1/2+x,1/2+y,z
4 1/2-x,1/2+y,1/2-z
5 -x,-y,-z
6 x,-y,1/2+z
7 1/2-x,1/2-y,-z
8 1/2+x,1/2-y,1/2+z
_cell_length_a                   22.146(5)
_cell_length_b                   11.003(5)
_cell_length_c                   11.108(5)
_cell_angle_alpha                90
_cell_angle_beta                 98.617(5)
_cell_angle_gamma                90
_cell_volume                     2676.16
loop_
_atom_site_label
_atom_site_type_symbol
_atom_site_fract_x
_atom_site_fract_y
_atom_site_fract_z
Cd1 Cd 0.845358(14) 0.14058(3) 1.02390(3)
O1 O 0.60639(16) 0.4973(3) 0.3376(3)
O2 O 0.75037(15) 0.3615(3) 0.9060(3)
O3 O 0.58667(16) 0.3006(3) 0.3036(3)
N1 N 0.67588(17) 0.4460(3) 0.5525(3)
O4 O 0.79834(15) 0.2017(3) 0.8381(3)
C1 C 0.6685(2) 0.2335(4) 0.5129(4)
H1 H 0.6532 0.1701 0.4618
C2 C 0.72484(19) 0.3052(4) 0.6991(4)
N2 N 0.92283(16) 0.4204(3) 1.2896(3)
C3 C 0.6126(2) 0.3854(4) 0.3633(4)
C4 C 0.96247(19) 0.4610(4) 1.3971(4)
O5 O 0.93536(17) 0.1374(3) 0.9373(3)
H2 H 0.9545 0.0707 0.9554
H3 H 0.9266 0.1433 0.8598
C5 C 0.65450(18) 0.3517(4) 0.4810(3)
N3 N 0.87733(17) 0.3035(4) 1.1430(3)
C6 C 0.7060(2) 0.2095(4) 0.6224(4)
H4 H 0.7180 0.1304 0.6435
C7 C 0.7088(2) 0.4216(4) 0.6605(4)
H5 H 0.7215 0.4862 0.7123
C8 C 0.8813(2) 0.4924(5) 1.2166(4)
H6 H 0.8738 0.5746 1.2268
C9 C 0.9804(2) 0.5808(4) 1.4065(4)
H7 H 0.9672 0.6349 1.3436
C10 C 1.0183(2) 0.6212(4) 1.5108(4)
H8 H 1.0304 0.7021 1.5182
C11 C 0.7609(2) 0.2874(4) 0.8249(4)
C12 C 0.8541(2) 0.4191(5) 1.1273(4)
H9 H 0.8239 0.4433 1.0644
C13 C 0.9186(2) 0.3080(4) 1.2415(4)
H10 H 0.9419 0.2420 1.2736
N2D N 1.07717(16) 0.5796(3) 1.7104(3)
C4D C 1.03753(19) 0.5390(4) 1.6029(4)
N3D N 1.12267(17) 0.6965(4) 1.8570(3)
C8D C 1.1187(2) 0.5076(5) 1.7834(4)
H6D H 1.1262 0.4254 1.7732
C9D C 1.0196(2) 0.4192(4) 1.5935(4)
H7D H 1.0328 0.3651 1.6564
C10D C 0.9817(2) 0.3788(4) 1.4892(4)
H8D H 0.9696 0.2979 1.4818
C12D C 1.1459(2) 0.5809(5) 1.8727(4)
H9D H 1.1761 0.5567 1.9356
C13D C 1.0814(2) 0.6920(4) 1.7585(4)
H10D H 1.0581 0.7580 1.7264
Cd1D Cd 1.154642(14) 0.85942(3) 1.97610(3)
O1D O 1.39361(16) 0.5027(3) 2.6624(3)
O2D O 1.24963(15) 0.6385(3) 2.0940(3)
O3D O 1.41333(16) 0.6994(3) 2.6964(3)
N1D N 1.32412(17) 0.5540(3) 2.4475(3)
O4D O 1.20166(15) 0.7983(3) 2.1619(3)
C1D C 1.3315(2) 0.7665(4) 2.4871(4)
H1D H 1.3468 0.8299 2.5382
C2D C 1.27516(19) 0.6948(4) 2.3009(4)
C3D C 1.3874(2) 0.6146(4) 2.6367(4)
O5D O 1.06464(17) 0.8626(3) 2.0627(3)
H2D H 1.0455 0.9293 2.0446
H3D H 1.0734 0.8567 2.1402
C5D C 1.34550(18) 0.6483(4) 2.5190(3)
C6D C 1.2940(2) 0.7905(4) 2.3776(4)
H4D H 1.2820 0.8696 2.3565
C7D C 1.2912(2) 0.5784(4) 2.3395(4)
H5D H 1.2785 0.5138 2.2877
C11D C 1.2391(2) 0.7126(4) 2.1751(4)
Cd1B Cd 1.345358(14) 0.64058(3) 2.02390(3)
Cd1C Cd 0.654642(14) 0.64058(3) 0.47610(3)
Cd1F Cd 0.654642(14) 0.35942(3) 0.97610(3)
Cd1G Cd 1.345358(14) 0.35942(3) 2.52390(3)
O1C O 0.89361(16) -0.0027(3) 1.1624(3)
O1G O 1.10639(16) 1.0027(3) 1.8376(3)
O2B O 1.25037(15) 0.8615(3) 1.9060(3)
O2F O 0.74963(15) 0.1385(3) 1.0940(3)
N1C N 0.82412(17) -0.0540(3) 0.9475(3)
N1G N 1.17588(17) 1.0540(3) 2.0525(3)
O6 O 0.9867(5) -0.0669(10) 0.8400(8)
H11 H 1.0242 -0.0514 0.8381
H12 H 0.9585 -0.0449 0.7839
loop_
_geom_bond_atom_site_label_1
_geom_bond_atom_site_label_2
_geom_bond_site_symmetry_1
_geom_bond_site_symmetry_2
Cd1 O4 1_555 1_555
O1 C3 1_555 1_555
O2 C11 1_555 1_555
O3 C3 1_555 1_555
N1 C5 1_555 1_555
O4 C11 1_555 1_555
C1 H1 1_555 1_555
C2 C6 1_555 1_555
N2 C4 1_555 1_555
C3 C5 1_555 1_555
C4 C9 1_555 1_555
O5 Cd1 1_555 1_555
H2 O5 1_555 1_555
H3 O5 1_555 1_555
C5 C1 1_555 1_555
N3 Cd1 1_555 1_555
C6 C1 1_555 1_555
H4 C6 1_555 1_555
C7 N1 1_555 1_555
H5 C7 1_555 1_555
C8 N2 1_555 1_555
H6 C8 1_555 1_555
C9 H7 1_555 1_555
C10 C9 1_555 1_555
H8 C10 1_555 1_555
C11 C2 1_555 1_555
C12 N3 1_555 1_555
H9 C12 1_555 1_555
C13 N2 1_555 1_555
H10 C13 1_555 1_555
O6 H11 1_555 1_555
H12 O6 1_555 1_555
N2D C4D 1_555 1_555
C4D C10 1_555 1_555
N3D C12D 1_555 1_555
C8D N2D 1_555 1_555
H6D C8D 1_555 1_555
C9D C4D 1_555 1_555
H7D C9D 1_555 1_555
C10D C4 1_555 1_555
H8D C10D 1_555 1_555
C12D C8D 1_555 1_555
H9D C12D 1_555 1_555
C13D N2D 1_555 1_555
H10D C13D 1_555 1_555
Cd1D N3D 1_555 1_555
O1D C3D 1_555 1_555
O2D C11D 1_555 1_555
O3D C3D 1_555 1_555
N1D C5D 1_555 1_555
O4D Cd1D 1_555 1_555
C1D H1D 1_555 1_555
C2D C6D 1_555 1_555
C3D C5D 1_555 1_555
O5D Cd1D 1_555 1_555
H2D O5D 1_555 1_555
H3D O5D 1_555 1_555
C5D C1D 1_555 1_555
C6D C1D 1_555 1_555
H4D C6D 1_555 1_555
C7D N1D 1_555 1_555
H5D C7D 1_555 1_555
C11D O4D 1_555 1_555
Cd1B O2D 1_555 1_555
Cd1C O1 1_555 1_555
Cd1F O2 1_555 1_555
Cd1G O1D 1_555 1_555
O1C Cd1 1_555 1_555
O1G Cd1D 1_555 1_555
O2B Cd1D 1_555 1_555
O2F Cd1 1_555 1_555
N1C Cd1 1_555 1_555
N1G Cd1D 1_555 1_555
N1 Cd1C 1_555 1_555
C2 C7 1_555 1_555
N3 C13 1_555 1_555
C8 C12 1_555 1_555
N3D C13D 1_555 1_555
C9D C10D 1_555 1_555
N1D Cd1G 1_555 1_555
C2D C7D 1_555 1_555
C2D C11D 1_555 1_555

#END
