
#######################################################################
#
#                 Cambridge Crystallographic Data Centre
#                                CCDC 
#
#######################################################################
#
# If this CIF has been generated from an entry in the Cambridge 
# Structural Database, then it will include bibliographic, chemical, 
# crystal, experimental, refinement or atomic coordinate data resulting 
# from the CCDC's data processing and validation procedures.
#
#######################################################################

data_YITCAH
_symmetry_cell_setting           triclinic
_symmetry_space_group_name_H-M   'P -1'
_symmetry_Int_Tables_number      2
_space_group_name_Hall           '-P 1'
loop_
_symmetry_equiv_pos_site_id
_symmetry_equiv_pos_as_xyz
1 x,y,z
2 -x,-y,-z
_cell_length_a                   12.441(7)
_cell_length_b                   13.774(7)
_cell_length_c                   16.068(9)
_cell_angle_alpha                81.123(9)
_cell_angle_beta                 89.346(9)
_cell_angle_gamma                66.723(9)
_cell_volume                     2495.31
loop_
_atom_site_label
_atom_site_type_symbol
_atom_site_fract_x
_atom_site_fract_y
_atom_site_fract_z
Co1 Co 0.71771(5) 0.77502(4) 0.73097(3)
C1 C -0.1452(4) 0.7999(4) 0.5690(2)
H1 H -0.1078 0.7258 0.5740
C2 C -0.2576(4) 0.9573(4) 0.5890(3)
H2 H -0.3141 1.0128 0.6116
C3 C -0.1940(4) 0.9709(4) 0.5233(3)
H3 H -0.1983 1.0357 0.4930
C4 C -0.0426(4) 0.8423(4) 0.4431(2)
C5 C -0.0089(4) 0.7421(4) 0.4192(3)
H4 H -0.0324 0.6913 0.4495
C6 C 0.0592(4) 0.7173(4) 0.3508(3)
H5 H 0.0783 0.6511 0.3340
C7 C 0.0995(4) 0.7898(4) 0.3069(2)
C8 C 0.0690(4) 0.8880(4) 0.3341(3)
H6 H 0.0972 0.9369 0.3066
C9 C -0.0027(4) 0.9149(4) 0.4012(3)
H7 H -0.0234 0.9816 0.4175
C10 C 0.1729(4) 0.7632(3) 0.2322(2)
C11 C 0.1037(4) 0.7787(3) 0.1513(2)
C12 C -0.0020(4) 0.8641(4) 0.1320(3)
H8 H -0.0320 0.9101 0.1711
C13 C -0.0653(4) 0.8844(4) 0.0568(3)
H9 H -0.1352 0.9445 0.0446
C14 C -0.0235(4) 0.8142(4) -0.0003(2)
C15 C 0.0805(4) 0.7242(4) 0.0181(3)
H10 H 0.1080 0.6761 -0.0197
C16 C 0.1427(4) 0.7073(4) 0.0938(3)
H11 H 0.2122 0.6469 0.1065
C17 C -0.1288(5) 0.9386(4) -0.1310(3)
H12 H -0.1171 0.9990 -0.1220
C18 C -0.1898(5) 0.9299(4) -0.1966(3)
H13 H -0.2285 0.9849 -0.2408
C19 C -0.1261(4) 0.7764(4) -0.1171(3)
H14 H -0.1118 0.7057 -0.0948
C20 C 0.2902(4) 0.7310(4) 0.2390(2)
C21 C 0.3518(4) 0.7152(4) 0.3226(2)
C22 C 0.4178(4) 0.7736(4) 0.3332(3)
H15 H 0.4279 0.8178 0.2866
C23 C 0.4691(4) 0.7683(4) 0.4104(3)
H16 H 0.5114 0.8097 0.4160
C24 C 0.4565(4) 0.7008(4) 0.4790(2)
C25 C 0.3967(4) 0.6374(4) 0.4700(3)
H17 H 0.3918 0.5893 0.5158
C26 C 0.3438(4) 0.6454(4) 0.3923(3)
H18 H 0.3023 0.6033 0.3868
C27 C 0.5899(4) 0.7293(4) 0.5794(3)
H19 H 0.6331 0.7513 0.5388
C28 C 0.5260(6) 0.6878(7) 0.6960(3)
H20 H 0.5165 0.6758 0.7536
C29 C 0.4629(6) 0.6713(7) 0.6364(3)
H21 H 0.4035 0.6463 0.6448
C30 C 0.3690(4) 0.7144(4) 0.1666(2)
C31 C 0.3504(4) 0.7956(4) 0.0983(3)
H22 H 0.2881 0.8614 0.0975
C32 C 0.4231(4) 0.7797(4) 0.0316(3)
H23 H 0.4091 0.8344 -0.0140
C33 C 0.5168(4) 0.6824(4) 0.0329(2)
C34 C 0.5390(4) 0.6028(4) 0.1009(3)
H24 H 0.6032 0.5380 0.1025
C35 C 0.4652(4) 0.6194(4) 0.1675(3)
H25 H 0.4809 0.5651 0.2137
C36 C 0.6540(5) 0.5682(4) -0.0616(3)
H26 H 0.6608 0.5013 -0.0341
C37 C 0.7052(5) 0.5883(4) -0.1322(3)
H27 H 0.7542 0.5366 -0.1621
C38 C 0.6054(4) 0.7403(3) -0.0952(2)
H28 H 0.5718 0.8135 -0.0937
N1 N -0.1215(3) 0.8699(3) 0.5097(2)
N2 N -0.2272(3) 0.8496(3) 0.61826(19)
N3 N -0.0874(3) 0.8395(3) -0.0802(2)
N4 N -0.1864(3) 0.8279(3) -0.1884(2)
N5 N 0.5038(3) 0.6986(3) 0.5609(2)
N6 N 0.6065(3) 0.7251(3) 0.6603(2)
N7 N 0.5896(3) 0.6655(3) -0.0375(2)
N8 N 0.6744(3) 0.6967(3) -0.1539(2)
O1 O 0.5742(3) 0.9246(3) 0.7281(2)
O2 O 0.8576(3) 0.6311(3) 0.7240(2)
H29 H 0.516(5) 0.955(5) 0.689(4)
H30 H 0.922(5) 0.592(4) 0.768(3)
H31 H 0.858(5) 0.615(5) 0.682(4)
H32 H 0.545(4) 0.952(4) 0.763(3)
Co1_2 Co -0.28229(5) 0.77502(4) -0.26903(3)
Co1_3 Co -0.28229(5) 0.77502(4) 0.73097(3)
Co1_4 Co 0.71771(5) 0.77502(4) -0.26903(3)
N2_2 N 0.7728(3) 0.8496(3) 0.61826(19)
N4_2 N 0.8136(3) 0.8279(3) 0.8116(2)
N8_2 N 0.6744(3) 0.6967(3) 0.8461(2)
C39 C 0.2186(4) 0.3196(4) 0.6171(3)
C40 C 0.2258(4) 0.3013(4) 0.7126(2)
C41 C 0.1532(4) 0.3808(3) 0.7566(2)
H33 H 0.1008 0.4455 0.7268
C42 C 0.1586(4) 0.3640(3) 0.8452(2)
C43 C 0.0771(4) 0.4505(3) 0.8901(2)
C44 C 0.2381(4) 0.2679(3) 0.8890(2)
H34 H 0.2428 0.2562 0.9476
C45 C 0.3113(4) 0.1885(3) 0.8453(2)
C46 C 0.3995(4) 0.0846(4) 0.8917(2)
C47 C 0.3032(4) 0.2062(4) 0.7576(2)
H35 H 0.3510 0.1526 0.7287
O3 O 0.2703(3) 0.2415(3) 0.58101(17)
O4 O 0.1592(3) 0.4144(3) 0.58028(17)
O5 O 0.0160(4) 0.5389(3) 0.8501(2)
O6 O 0.0773(3) 0.4280(2) 0.96950(17)
O7 O 0.4126(3) 0.0792(3) 0.97025(18)
O8 O 0.4501(4) 0.0079(3) 0.8555(2)
C48 C 0.1385(15) 0.6510(14) 0.6952(11)
H36 H 0.0839 0.6689 0.7388
H37 H 0.2145 0.6035 0.7200
H38 H 0.1128 0.6163 0.6570
C49 C 0.1446(9) 0.7474(10) 0.6497(7)
N9 N 0.1569(8) 0.8130(6) 0.6100(6)
O9 O 0.2940(10) 0.7314(13) 0.8439(7)
O10 O 0.2584(13) 0.8819(13) 0.7924(10)
O11 O 0.0817(4) 0.4607(3) 0.4138(2)
H39 H 0.104(5) 0.448(5) 0.463(4)
H40 H -0.001(5) 0.509(5) 0.414(4)
O12 O 0.4155(5) 0.0296(4) 0.5924(3)
H41 H 0.349(7) 0.103(7) 0.593(5)
H42 H 0.360(12) 0.005(11) 0.577(9)
H43? H 0.5000 0.0000 1.0000
H44? H 0.0000 0.5000 1.0000
loop_
_geom_bond_atom_site_label_1
_geom_bond_atom_site_label_2
_geom_bond_site_symmetry_1
_geom_bond_site_symmetry_2
Co1 N6 1_555 1_555
C1 H1 1_555 1_555
C2 H2 1_555 1_555
C3 C2 1_555 1_555
H3 C3 1_555 1_555
C4 C5 1_555 1_555
C5 H4 1_555 1_555
C6 C5 1_555 1_555
H5 C6 1_555 1_555
C7 C6 1_555 1_555
C8 C7 1_555 1_555
H6 C8 1_555 1_555
C9 C4 1_555 1_555
H7 C9 1_555 1_555
C10 C7 1_555 1_555
C11 C10 1_555 1_555
C12 C11 1_555 1_555
H8 C12 1_555 1_555
C13 C12 1_555 1_555
H9 C13 1_555 1_555
C14 C13 1_555 1_555
C15 C14 1_555 1_555
H10 C15 1_555 1_555
C16 C11 1_555 1_555
H11 C16 1_555 1_555
C17 H12 1_555 1_555
C18 C17 1_555 1_555
H13 C18 1_555 1_555
C19 H14 1_555 1_555
C20 C10 1_555 1_555
C21 C20 1_555 1_555
C22 C21 1_555 1_555
H15 C22 1_555 1_555
C23 C22 1_555 1_555
H16 C23 1_555 1_555
C24 C23 1_555 1_555
C25 C24 1_555 1_555
H17 C25 1_555 1_555
C26 C21 1_555 1_555
H18 C26 1_555 1_555
C27 H19 1_555 1_555
C28 H20 1_555 1_555
C29 C28 1_555 1_555
H21 C29 1_555 1_555
C30 C20 1_555 1_555
C31 C30 1_555 1_555
H22 C31 1_555 1_555
C32 C31 1_555 1_555
H23 C32 1_555 1_555
C33 C32 1_555 1_555
C34 C33 1_555 1_555
H24 C34 1_555 1_555
C35 C30 1_555 1_555
H25 C35 1_555 1_555
C36 H26 1_555 1_555
C37 C36 1_555 1_555
H27 C37 1_555 1_555
C38 H28 1_555 1_555
N1 C1 1_555 1_555
N2 C1 1_555 1_555
N3 C14 1_555 1_555
N4 C18 1_555 1_555
N5 C24 1_555 1_555
N6 C27 1_555 1_555
N7 C33 1_555 1_555
N8 C37 1_555 1_555
O1 Co1 1_555 1_555
O2 Co1 1_555 1_555
H29 O1 1_555 1_555
H30 O2 1_555 1_555
H31 O2 1_555 1_555
H32 O1 1_555 1_555
C39 C40 1_555 1_555
C40 C41 1_555 1_555
C41 H33 1_555 1_555
C42 C41 1_555 1_555
C43 C42 1_555 1_555
C44 C42 1_555 1_555
H34 C44 1_555 1_555
C45 C44 1_555 1_555
C46 C45 1_555 1_555
C47 C40 1_555 1_555
H35 C47 1_555 1_555
O3 C39 1_555 1_555
O4 C39 1_555 1_555
O5 C43 1_555 1_555
O6 C43 1_555 1_555
O7 C46 1_555 1_555
O8 C46 1_555 1_555
C48 H36 1_555 1_555
H37 C48 1_555 1_555
H38 C48 1_555 1_555
C49 C48 1_555 1_555
N9 C49 1_555 1_555
O11 H39 1_555 1_555
H40 O11 1_555 1_555
O12 H41 1_555 1_555
H42 O12 1_555 1_555
Co1_2 N4 1_555 1_555
Co1_3 N2 1_555 1_555
Co1_4 N8 1_555 1_555
N2_2 Co1 1_555 1_555
N4_2 Co1 1_555 1_555
N8_2 Co1 1_555 1_555
C2 N2 1_555 1_555
C3 N1 1_555 1_555
C4 N1 1_555 1_555
C8 C9 1_555 1_555
C15 C16 1_555 1_555
C17 N3 1_555 1_555
C19 N3 1_555 1_555
C19 N4 1_555 1_555
C25 C26 1_555 1_555
C27 N5 1_555 1_555
C28 N6 1_555 1_555
C29 N5 1_555 1_555
C34 C35 1_555 1_555
C36 N7 1_555 1_555
C38 N7 1_555 1_555
C38 N8 1_555 1_555
C45 C47 1_555 1_555

#END
