
#######################################################################
#
#                 Cambridge Crystallographic Data Centre
#                                CCDC 
#
#######################################################################
#
# If this CIF has been generated from an entry in the Cambridge 
# Structural Database, then it will include bibliographic, chemical, 
# crystal, experimental, refinement or atomic coordinate data resulting 
# from the CCDC's data processing and validation procedures.
#
#######################################################################

data_YITHOA
_symmetry_cell_setting           orthorhombic
_symmetry_space_group_name_H-M   'P 21 21 2'
_symmetry_Int_Tables_number      18
_space_group_name_Hall           'P 2 2ab'
loop_
_symmetry_equiv_pos_site_id
_symmetry_equiv_pos_as_xyz
1 x,y,z
2 -x,-y,z
3 1/2-x,1/2+y,-z
4 1/2+x,1/2-y,-z
_cell_length_a                   7.6439(15)
_cell_length_b                   22.013(4)
_cell_length_c                   6.1556(12)
_cell_angle_alpha                90
_cell_angle_beta                 90
_cell_angle_gamma                90
_cell_volume                     1035.77
loop_
_atom_site_label
_atom_site_type_symbol
_atom_site_fract_x
_atom_site_fract_y
_atom_site_fract_z
Ce1 Ce 0.47932(4) 0.354231(11) 0.43918(4)
S1 S 0.5000 0.5000 0.4466(3)
O1 O 0.3847(6) 0.46168(18) 0.5812(7)
O2 O 0.6007(5) 0.45698(17) 0.3116(7)
O3 O 0.5274(4) 0.34561(18) 0.8336(6)
O4 O 0.6866(5) 0.33662(18) 1.1376(6)
O5 O 0.7876(4) 0.36198(16) 0.5846(6)
H1 H 0.8457 0.3905 0.5386
O6 O 0.8417(4) 0.23674(15) 0.7830(6)
H2 H 0.7634 0.2435 0.6953
O7 O 1.1932(5) 0.33570(17) 0.6330(6)
O8 O 1.0850(5) 0.25059(17) 0.4933(6)
C1 C 0.6699(6) 0.3431(2) 0.9364(9)
C2 C 0.8375(6) 0.3491(2) 0.8008(8)
H3 H 0.9078 0.3828 0.8572
C3 C 0.9455(6) 0.2901(2) 0.8105(9)
H4 H 1.0043 0.2880 0.9518
C4 C 1.0857(7) 0.2924(2) 0.6307(8)
O9 O 0.2712(6) 0.38611(18) 0.1336(6)
H5 H 0.2763 0.4206 0.0752
H6 H 0.3308 0.3639 0.0509
O1A O 0.6153(6) 0.53832(18) 0.5812(7)
O2A O 0.3993(5) 0.54302(17) 0.3116(7)
Ce1A Ce 0.52068(4) 0.645769(11) 0.43918(4)
O3A O 0.4726(4) 0.65439(18) 0.8336(6)
O4A O 0.3134(5) 0.66338(18) 1.1376(6)
O5A O 0.2124(4) 0.63802(16) 0.5846(6)
H1A H 0.1543 0.6095 0.5386
O6A O 0.1583(4) 0.76326(15) 0.7830(6)
H2A H 0.2366 0.7565 0.6953
O7A O -0.1932(5) 0.66430(17) 0.6330(6)
O8A O -0.0850(5) 0.74941(17) 0.4933(6)
C1A C 0.3301(6) 0.6569(2) 0.9364(9)
C2A C 0.1625(6) 0.6509(2) 0.8008(8)
H3A H 0.0922 0.6172 0.8572
C3A C 0.0545(6) 0.7099(2) 0.8105(9)
H4A H -0.0043 0.7120 0.9518
C4A C -0.0857(7) 0.7076(2) 0.6307(8)
O9A O 0.7288(6) 0.61389(18) 0.1336(6)
H5A H 0.7237 0.5794 0.0752
H6A H 0.6692 0.6361 0.0509
Ce1_2 Ce 0.47932(4) 0.354231(11) 1.43918(4)
Ce1_3 Ce 1.47932(4) 0.354231(11) 0.43918(4)
Ce1A_2 Ce -0.47932(4) 0.645769(11) 0.43918(4)
Ce1A_3 Ce 0.52068(4) 0.645769(11) 1.43918(4)
Ce1B Ce 0.02068(4) 0.854231(11) 0.56082(4)
Ce1C Ce 0.97932(4) 0.145769(11) 0.56082(4)
O4_2 O 0.6866(5) 0.33662(18) 0.1376(6)
O4A_2 O 0.3134(5) 0.66338(18) 0.1376(6)
O6B O 0.6583(4) 0.73674(15) 0.2170(6)
O6C O 0.3417(4) 0.26326(15) 0.2170(6)
O7_2 O 0.1932(5) 0.33570(17) 0.6330(6)
O7A_2 O 0.8068(5) 0.66430(17) 0.6330(6)
O8B O 0.4150(5) 0.75059(17) 0.5067(6)
O8C O 0.5850(5) 0.24941(17) 0.5067(6)
O10 O 0.9685(12) 0.4339(4) 0.3357(17)
H7 H 1.0432 0.4123 0.2752
H8 H 0.9395 0.4560 0.2330
O12 O 0.1868(11) 0.4959(3) 0.9547(7)
H9 H 0.2430 0.4925 0.8362
H10 H 0.2504 0.5204 1.0265
O11? O 1.0018(12) 0.4531(4) 0.5175(15)
loop_
_geom_bond_atom_site_label_1
_geom_bond_atom_site_label_2
_geom_bond_site_symmetry_1
_geom_bond_site_symmetry_2
Ce1 O1 1_555 1_555
S1 O1 1_555 1_555
O2 Ce1 1_555 1_555
O3 Ce1 1_555 1_555
O4 C1 1_555 1_555
O5 Ce1 1_555 1_555
H1 O5 1_555 1_555
O6 H2 1_555 1_555
O7 C4 1_555 1_555
O8 C4 1_555 1_555
C1 O3 1_555 1_555
C2 O5 1_555 1_555
H3 C2 1_555 1_555
C3 O6 1_555 1_555
H4 C3 1_555 1_555
C4 C3 1_555 1_555
O9 Ce1 1_555 1_555
H5 O9 1_555 1_555
H6 O9 1_555 1_555
O10 H7 1_555 1_555
H8 O10 1_555 1_555
O12 H9 1_555 1_555
H10 O12 1_555 1_555
O1A S1 1_555 1_555
O2A S1 1_555 1_555
Ce1A O1A 1_555 1_555
O3A Ce1A 1_555 1_555
O4A C1A 1_555 1_555
O5A Ce1A 1_555 1_555
H1A O5A 1_555 1_555
O6A H2A 1_555 1_555
O7A C4A 1_555 1_555
O8A C4A 1_555 1_555
C1A O3A 1_555 1_555
C2A O5A 1_555 1_555
H3A C2A 1_555 1_555
C3A O6A 1_555 1_555
H4A C3A 1_555 1_555
C4A C3A 1_555 1_555
O9A Ce1A 1_555 1_555
H5A O9A 1_555 1_555
H6A O9A 1_555 1_555
Ce1_2 O4 1_555 1_555
Ce1_3 O7 1_555 1_555
Ce1A_2 O7A 1_555 1_555
Ce1A_3 O4A 1_555 1_555
Ce1B O6A 1_555 1_555
Ce1C O6 1_555 1_555
O4_2 Ce1 1_555 1_555
O4A_2 Ce1A 1_555 1_555
O6B Ce1A 1_555 1_555
O6C Ce1 1_555 1_555
O7_2 Ce1 1_555 1_555
O7A_2 Ce1A 1_555 1_555
O8B Ce1A 1_555 1_555
O8C Ce1 1_555 1_555
S1 O2 1_555 1_555
O8 Ce1C 1_555 1_555
C1 C2 1_555 1_555
C2 C3 1_555 1_555
O2A Ce1A 1_555 1_555
O8A Ce1B 1_555 1_555
C1A C2A 1_555 1_555
C2A C3A 1_555 1_555

#END
