
#######################################################################
#
#                 Cambridge Crystallographic Data Centre
#                                CCDC 
#
#######################################################################
#
# If this CIF has been generated from an entry in the Cambridge 
# Structural Database, then it will include bibliographic, chemical, 
# crystal, experimental, refinement or atomic coordinate data resulting 
# from the CCDC's data processing and validation procedures.
#
#######################################################################

data_YITHOA01
_symmetry_cell_setting           monoclinic
_symmetry_space_group_name_H-M   'C 2'
_symmetry_Int_Tables_number      5
_space_group_name_Hall           'C 2y'
loop_
_symmetry_equiv_pos_site_id
_symmetry_equiv_pos_as_xyz
1 x,y,z
2 -x,y,-z
3 1/2+x,1/2+y,z
4 1/2-x,1/2+y,-z
_cell_length_a                   21.960(4)
_cell_length_b                   7.6550(15)
_cell_length_c                   6.1670(12)
_cell_angle_alpha                90
_cell_angle_beta                 91.47(3)
_cell_angle_gamma                90
_cell_volume                     1036.35
loop_
_atom_site_label
_atom_site_type_symbol
_atom_site_fract_x
_atom_site_fract_y
_atom_site_fract_z
Ce1 Ce 0.645337(8) 0.25424(5) 0.05018(3)
S1 S 0.5000 0.2547(5) 0.0000
O1 O 0.54406(19) 0.3622(6) -0.1144(7)
O2 O 0.53758(19) 0.1445(6) 0.1483(7)
O3 O 0.65551(19) 0.2037(4) -0.3465(5)
O4 O 0.65939(19) 0.0452(4) -0.6468(5)
O5 O 0.63765(17) -0.0554(5) -0.0945(5)
H1 H 0.6066 -0.1153 -0.0559
O6 O 0.76297(15) -0.1080(4) -0.2828(5)
H2 H 0.7598 -0.0197 -0.2000
O7 O 0.66438(18) -0.4602(4) -0.1377(7)
O8 O 0.74996(17) -0.3523(5) 0.0055(6)
C1 C 0.6557(2) 0.0612(7) -0.4451(6)
C2 C 0.6509(2) -0.1051(6) -0.3113(7)
H3 H 0.6173 -0.1763 -0.3702
C3 C 0.7100(2) -0.2133(5) -0.3126(6)
H4 H 0.7122 -0.2716 -0.4536
C4 C 0.7073(2) -0.3531(6) -0.1378(7)
O9 O 0.6124(2) 0.4530(5) 0.3549(6)
H5 H 0.5745 0.4750 0.3611
H6 H 0.6227 0.3805 0.4493
O1A O 0.45594(19) 0.3622(6) 0.1144(7)
O2A O 0.46242(19) 0.1445(6) -0.1483(7)
Ce1A Ce 0.354663(8) 0.25424(5) -0.05018(3)
O3A O 0.34449(19) 0.2037(4) 0.3465(5)
O4A O 0.34061(19) 0.0452(4) 0.6468(5)
O5A O 0.36235(17) -0.0554(5) 0.0945(5)
H1A H 0.3934 -0.1153 0.0559
O6A O 0.23703(15) -0.1080(4) 0.2828(5)
H2A H 0.2402 -0.0197 0.2000
O7A O 0.33562(18) -0.4602(4) 0.1377(7)
O8A O 0.25004(17) -0.3523(5) -0.0055(6)
C1A C 0.3443(2) 0.0612(7) 0.4451(6)
C2A C 0.3491(2) -0.1051(6) 0.3113(7)
H3A H 0.3827 -0.1763 0.3702
C3A C 0.2900(2) -0.2133(5) 0.3126(6)
H4A H 0.2878 -0.2716 0.4536
C4A C 0.2927(2) -0.3531(6) 0.1378(7)
O9A O 0.3876(2) 0.4530(5) -0.3549(6)
H5A H 0.4255 0.4750 -0.3611
H6A H 0.3773 0.3805 -0.4493
Ce1_2 Ce 0.645337(8) -0.74576(5) 0.05018(3)
Ce1_3 Ce 0.645337(8) 0.25424(5) -0.94982(3)
Ce1A_2 Ce 0.354663(8) -0.74576(5) -0.05018(3)
Ce1A_3 Ce 0.354663(8) 0.25424(5) 0.94982(3)
Ce1B Ce 0.145337(8) -0.24576(5) 0.05018(3)
Ce1C Ce 0.854663(8) -0.24576(5) -0.05018(3)
O4_2 O 0.65939(19) 0.0452(4) 0.3532(5)
O4A_2 O 0.34061(19) 0.0452(4) -0.3532(5)
O6B O 0.26297(15) 0.3920(4) -0.2828(5)
O6C O 0.73703(15) 0.3920(4) 0.2828(5)
O7_2 O 0.66438(18) 0.5398(4) -0.1377(7)
O7A_2 O 0.33562(18) 0.5398(4) 0.1377(7)
O8B O 0.24996(17) 0.1477(5) 0.0055(6)
O8C O 0.75004(17) 0.1477(5) -0.0055(6)
O10 O 0.5730(4) -0.237(2) 0.1578(16)
H7 H 0.5933 -0.3190 0.2131
H8 H 0.5626 -0.1811 0.2707
O12 O 0.5000 -0.0570(9) 0.5000
H9 H 0.5146 0.0058 0.4061
H9A H 0.4854 0.0058 0.5939
O13 O 0.5000 0.5784(13) 0.5000
H10 H 0.5120 0.6353 0.3955
H10A H 0.4880 0.6353 0.6045
O11? O 0.5455(5) -0.2729(13) -0.0022(16)
loop_
_geom_bond_atom_site_label_1
_geom_bond_atom_site_label_2
_geom_bond_site_symmetry_1
_geom_bond_site_symmetry_2
Ce1 O1 1_555 1_555
S1 O1 1_555 1_555
O2 Ce1 1_555 1_555
O3 Ce1 1_555 1_555
O4 C1 1_555 1_555
O5 Ce1 1_555 1_555
H1 O5 1_555 1_555
O6 H2 1_555 1_555
O7 C4 1_555 1_555
O8 C4 1_555 1_555
C1 O3 1_555 1_555
C2 O5 1_555 1_555
H3 C2 1_555 1_555
C3 O6 1_555 1_555
H4 C3 1_555 1_555
C4 C3 1_555 1_555
O9 Ce1 1_555 1_555
H5 O9 1_555 1_555
H6 O9 1_555 1_555
O10 H7 1_555 1_555
H8 O10 1_555 1_555
O12 H9 1_555 1_555
O13 H10 1_555 1_555
O1A S1 1_555 1_555
O2A S1 1_555 1_555
Ce1A O1A 1_555 1_555
O3A Ce1A 1_555 1_555
O4A C1A 1_555 1_555
O5A Ce1A 1_555 1_555
H1A O5A 1_555 1_555
O6A H2A 1_555 1_555
O7A C4A 1_555 1_555
O8A C4A 1_555 1_555
C1A O3A 1_555 1_555
C2A O5A 1_555 1_555
H3A C2A 1_555 1_555
C3A O6A 1_555 1_555
H4A C3A 1_555 1_555
C4A C3A 1_555 1_555
O9A Ce1A 1_555 1_555
H5A O9A 1_555 1_555
H6A O9A 1_555 1_555
Ce1_2 O7 1_555 1_555
Ce1_3 O4 1_555 1_555
Ce1A_2 O7A 1_555 1_555
Ce1A_3 O4A 1_555 1_555
Ce1B O6A 1_555 1_555
Ce1C O6 1_555 1_555
O4_2 Ce1 1_555 1_555
O4A_2 Ce1A 1_555 1_555
O6B Ce1A 1_555 1_555
O6C Ce1 1_555 1_555
O7_2 Ce1 1_555 1_555
O7A_2 Ce1A 1_555 1_555
O8B Ce1A 1_555 1_555
O8C Ce1 1_555 1_555
H9A O12 1_555 1_555
H10A O13 1_555 1_555
S1 O2 1_555 1_555
O8 Ce1C 1_555 1_555
C1 C2 1_555 1_555
C2 C3 1_555 1_555
O2A Ce1A 1_555 1_555
O8A Ce1B 1_555 1_555
C1A C2A 1_555 1_555
C2A C3A 1_555 1_555

#END
