
#######################################################################
#
#                 Cambridge Crystallographic Data Centre
#                                CCDC 
#
#######################################################################
#
# If this CIF has been generated from an entry in the Cambridge 
# Structural Database, then it will include bibliographic, chemical, 
# crystal, experimental, refinement or atomic coordinate data resulting 
# from the CCDC's data processing and validation procedures.
#
#######################################################################

data_YITWAB
_symmetry_cell_setting           tetragonal
_symmetry_space_group_name_H-M   'I -4 2 d'
_symmetry_Int_Tables_number      122
_space_group_name_Hall           'I -4 2bw'
loop_
_symmetry_equiv_pos_site_id
_symmetry_equiv_pos_as_xyz
1 x,y,z
2 -x,-y,z
3 y,-x,-z
4 -y,x,-z
5 1/2-x,y,3/4-z
6 1/2+x,-y,3/4-z
7 1/2-y,-x,3/4+z
8 1/2+y,x,3/4+z
9 1/2+x,1/2+y,1/2+z
10 1/2-x,1/2-y,1/2+z
11 1/2+y,1/2-x,1/2-z
12 1/2-y,1/2+x,1/2-z
13 -x,1/2+y,1/4-z
14 x,1/2-y,1/4-z
15 -y,1/2-x,1/4+z
16 y,1/2+x,1/4+z
_cell_length_a                   9.4730(11)
_cell_length_b                   9.4730(11)
_cell_length_c                   42.894(10)
_cell_angle_alpha                90
_cell_angle_beta                 90
_cell_angle_gamma                90
_cell_volume                     3849.21
loop_
_atom_site_label
_atom_site_type_symbol
_atom_site_fract_x
_atom_site_fract_y
_atom_site_fract_z
Cd1 Cd 0.0000 1.0000 0.678791(8)
S1 S 0.6134(2) 1.2500 0.6250
O1 O 0.1320(4) 1.0991(4) 0.63813(9)
O2 O 0.2266(4) 1.1366(4) 0.68420(9)
N1 N 0.0000 1.0000 0.73565(11)
N2 N -0.1253(4) 0.7741(4) 0.79995(9)
N3 N -0.2857(4) 0.6205(4) 0.81497(10)
C1 C 0.4899(8) 1.1853(6) 0.64938(12)
H1 H 0.5102 1.1368 0.6677
C2 C 0.3550(5) 1.2130(5) 0.63894(12)
C3 C 0.2294(5) 1.1473(5) 0.65488(12)
C4 C -0.0578(5) 0.8937(5) 0.75139(13)
H2 H -0.0976 0.8190 0.7404
C5 C -0.0605(5) 0.8911(5) 0.78370(11)
C6 C 0.0000 1.0000 0.80080(13)
H3 H 0.0000 1.0000 0.8225
C7 C -0.0654(6) 0.6924(6) 0.82281(12)
H4 H 0.0263 0.6992 0.8304
C8 C -0.1647(5) 0.6012(6) 0.83202(13)
H5 H -0.1533 0.5343 0.8477
C9 C -0.2597(6) 0.7263(5) 0.79578(13)
H6 H -0.3238 0.7629 0.7815
O1M O 0.1320(4) 1.4009(4) 0.61187(9)
O2M O 0.2266(4) 1.3634(4) 0.56580(9)
C1M C 0.4899(8) 1.3147(6) 0.60062(12)
H1M H 0.5102 1.3632 0.5823
C2M C 0.3550(5) 1.2870(5) 0.61106(12)
C3M C 0.2294(5) 1.3527(5) 0.59512(12)
N2A N 0.1253(4) 1.2259(4) 0.79995(9)
N3A N 0.2857(4) 1.3795(4) 0.81497(10)
C4A C 0.0578(5) 1.1063(5) 0.75139(13)
H2A H 0.0976 1.1810 0.7404
C5A C 0.0605(5) 1.1089(5) 0.78370(11)
C7A C 0.0654(6) 1.3076(6) 0.82281(12)
H4A H -0.0263 1.3008 0.8304
C8A C 0.1647(5) 1.3988(6) 0.83202(13)
H5A H 0.1533 1.4657 0.8477
C9A C 0.2597(6) 1.2737(5) 0.79578(13)
H6A H 0.3238 1.2371 0.7815
Cd1J Cd -0.5000 0.5000 0.821209(8)
Cd1J_2 Cd 0.5000 1.5000 0.821209(8)
Cd1L Cd 0.0000 1.5000 0.571209(8)
O1A O -0.1320(4) 0.9009(4) 0.63813(9)
O2A O -0.2266(4) 0.8634(4) 0.68420(9)
N3J N 0.1205(4) 0.7857(4) 0.68503(10)
N3K N -0.1205(4) 1.2143(4) 0.68503(10)
O3 O 0.4087(8) 0.1530(8) 0.73157(16)
H7 H 0.4818 0.1357 0.7424
H8 H 0.3523 0.1463 0.7162
loop_
_geom_bond_atom_site_label_1
_geom_bond_atom_site_label_2
_geom_bond_site_symmetry_1
_geom_bond_site_symmetry_2
Cd1 O1 1_555 1_555
S1 C1 1_555 1_555
O1 C3 1_555 1_555
O2 Cd1 1_555 1_555
N1 Cd1 1_555 1_555
N2 C5 1_555 1_555
N3 C8 1_555 1_555
C1 H1 1_555 1_555
C2 C1 1_555 1_555
C3 O2 1_555 1_555
C4 N1 1_555 1_555
H2 C4 1_555 1_555
C5 C4 1_555 1_555
C6 C5 1_555 1_555
H3 C6 1_555 1_555
C7 N2 1_555 1_555
H4 C7 1_555 1_555
C8 C7 1_555 1_555
H5 C8 1_555 1_555
C9 N2 1_555 1_555
H6 C9 1_555 1_555
O3 H7 1_555 1_555
H8 O3 1_555 1_555
O1M C3M 1_555 1_555
O2M C3M 1_555 1_555
C1M S1 1_555 1_555
H1M C1M 1_555 1_555
C2M C2 1_555 1_555
C3M C2M 1_555 1_555
N2A C5A 1_555 1_555
N3A C8A 1_555 1_555
C4A N1 1_555 1_555
H2A C4A 1_555 1_555
C5A C6 1_555 1_555
C7A N2A 1_555 1_555
H4A C7A 1_555 1_555
C8A C7A 1_555 1_555
H5A C8A 1_555 1_555
C9A N2A 1_555 1_555
H6A C9A 1_555 1_555
Cd1J N3 1_555 1_555
Cd1J_2 N3A 1_555 1_555
Cd1L O1M 1_555 1_555
O1A Cd1 1_555 1_555
O2A Cd1 1_555 1_555
N3J Cd1 1_555 1_555
N3K Cd1 1_555 1_555
N3 C9 1_555 1_555
C2 C3 1_555 1_555
O2M Cd1L 1_555 1_555
C1M C2M 1_555 1_555
N3A C9A 1_555 1_555
C4A C5A 1_555 1_555

#END
