
#######################################################################
#
#                 Cambridge Crystallographic Data Centre
#                                CCDC 
#
#######################################################################
#
# If this CIF has been generated from an entry in the Cambridge 
# Structural Database, then it will include bibliographic, chemical, 
# crystal, experimental, refinement or atomic coordinate data resulting 
# from the CCDC's data processing and validation procedures.
#
#######################################################################

data_YIVKOF
_symmetry_cell_setting           monoclinic
_symmetry_space_group_name_H-M   'P 21/c'
_symmetry_Int_Tables_number      14
_space_group_name_Hall           '-P 2ybc'
loop_
_symmetry_equiv_pos_site_id
_symmetry_equiv_pos_as_xyz
1 x,y,z
2 -x,1/2+y,1/2-z
3 -x,-y,-z
4 x,1/2-y,1/2+z
_cell_length_a                   17.394(2)
_cell_length_b                   17.023(3)
_cell_length_c                   13.053(4)
_cell_angle_alpha                90
_cell_angle_beta                 91.42(3)
_cell_angle_gamma                90
_cell_volume                     3863.78
loop_
_atom_site_label
_atom_site_type_symbol
_atom_site_fract_x
_atom_site_fract_y
_atom_site_fract_z
C1 C 0.2815(4) 0.3842(4) 0.5083(4)
C2 C 0.2477(4) 0.4245(3) 0.6951(5)
C3 C 0.2056(4) 0.5701(4) 0.6468(5)
C4 C 0.0911(4) 0.3917(4) 0.6009(5)
H1 H 0.1106 0.3781 0.6655
C5 C 0.0199(4) 0.3629(4) 0.5721(5)
H2 H -0.0069 0.3310 0.6167
C6 C -0.0113(4) 0.3808(4) 0.4785(6)
H3 H -0.0596 0.3620 0.4583
C7 C 0.0322(5) 0.4298(4) 0.4116(5)
C8 C 0.0076(5) 0.4527(5) 0.3120(6)
H4 H -0.0397 0.4359 0.2858
C9 C 0.0527(6) 0.4990(5) 0.2552(6)
H5 H 0.0361 0.5125 0.1892
C10 C 0.1241(5) 0.5274(5) 0.2925(5)
H6 H 0.1529 0.5607 0.2520
C11 C 0.1516(5) 0.5062(4) 0.3885(5)
C12 C 0.1047(4) 0.4560(4) 0.4488(5)
C13 C 0.2714(5) 0.5772(4) 0.3996(5)
C14 C 0.3429(5) 0.5795(4) 0.4667(5)
C15 C 0.4071(6) 0.6238(5) 0.4331(6)
H7 H 0.4039 0.6529 0.3729
C16 C 0.4730(6) 0.6224(4) 0.4912(7)
H8 H 0.5156 0.6511 0.4714
C17 C 0.4764(5) 0.5767(4) 0.5827(6)
C18 C 0.4094(5) 0.5358(4) 0.6099(5)
C19 C 0.4132(5) 0.4917(5) 0.7035(6)
H9 H 0.3705 0.4646 0.7263
C20 C 0.4805(5) 0.4905(5) 0.7577(6)
H10 H 0.4828 0.4625 0.8189
C21 C 0.5456(5) 0.5284(5) 0.7273(7)
H11 H 0.5908 0.5246 0.7665
C22 C 0.5440(5) 0.5706(5) 0.6421(7)
H12 H 0.5883 0.5964 0.6217
C23 C -0.1271(5) 0.3293(7) 0.9276(8)
H13 H -0.1450 0.3133 0.8606
H14 H -0.1461 0.3809 0.9422
H15 H -0.1453 0.2930 0.9778
C24 C -0.0396(5) 0.3303(7) 0.9311(8)
C25 C 0.0005(5) 0.3729(6) 1.0052(7)
H16 H -0.0273 0.4029 1.0509
C26 C 0.0798(4) 0.3731(5) 1.0147(6)
H17 H 0.1035 0.4044 1.0645
C27 C 0.1248(4) 0.3277(4) 0.9520(5)
C28 C 0.0851(4) 0.2836(4) 0.8741(5)
C29 C 0.0044(5) 0.2873(5) 0.8660(6)
H18 H -0.0203 0.2591 0.8138
C30 C 0.1255(5) 0.2329(4) 0.8051(5)
H19 H 0.0955 0.2038 0.7589
C31 C 0.2323(5) 0.1683(4) 0.7313(5)
H20 H 0.1954 0.1531 0.6779
H21 H 0.2485 0.1214 0.7681
C32 C 0.2991(5) 0.2072(4) 0.6859(5)
H22 H 0.2823 0.2462 0.6360
H23 H 0.3311 0.1690 0.6520
C33 C 0.4162(5) 0.2501(4) 0.7745(5)
H24 H 0.4417 0.2281 0.7197
C34 C 0.4624(4) 0.2851(4) 0.8522(6)
C35 C 0.4302(4) 0.3295(4) 0.9345(5)
C36 C 0.4813(4) 0.3621(5) 1.0057(6)
H25 H 0.4628 0.3918 1.0597
C37 C 0.5594(5) 0.3509(6) 0.9969(7)
H26 H 0.5920 0.3727 1.0468
C38 C 0.5918(5) 0.3092(6) 0.9183(9)
C39 C 0.5423(5) 0.2774(5) 0.8467(7)
H27 H 0.5624 0.2496 0.7922
C40 C 0.6789(5) 0.2962(7) 0.9108(9)
H28 H 0.7012 0.2897 0.9783
H29 H 0.7017 0.3408 0.8784
H30 H 0.6882 0.2499 0.8709
Fe1 Fe 0.24075(6) 0.48050(5) 0.56619(6)
Mn1 Mn 0.27400(6) 0.28833(5) 0.87863(6)
N1 N 0.3004(3) 0.3254(3) 0.4730(3)
N2 N 0.2470(3) 0.3874(3) 0.7671(4)
N3 N 0.1851(4) 0.6216(4) 0.6942(6)
N4 N 0.1341(3) 0.4377(3) 0.5430(4)
N5 N 0.2199(4) 0.5260(3) 0.4355(4)
N6 N 0.3427(4) 0.5362(3) 0.5507(4)
N7 N 0.1977(4) 0.2238(3) 0.8008(4)
N8 N 0.3430(4) 0.2454(3) 0.7721(4)
O1 O 0.2631(4) 0.6192(4) 0.3230(4)
O2 O 0.1992(2) 0.3248(3) 0.9688(3)
O3 O 0.3557(2) 0.3406(2) 0.9439(3)
Mn1C Mn 0.27400(6) 0.21167(5) 0.37863(6)
N1C N 0.3004(3) 0.1746(3) 0.9730(3)
O4 O 0.1415(7) 0.7507(7) 0.8233(8)
O5 O 0.7155(10) 0.5019(8) 0.926(3)
O6? O 0.746(3) 0.4712(19) 0.067(2)
loop_
_geom_bond_atom_site_label_1
_geom_bond_atom_site_label_2
_geom_bond_site_symmetry_1
_geom_bond_site_symmetry_2
C1 Fe1 1_555 1_555
C2 Fe1 1_555 1_555
C3 Fe1 1_555 1_555
C4 H1 1_555 1_555
C5 C4 1_555 1_555
H2 C5 1_555 1_555
C6 C5 1_555 1_555
H3 C6 1_555 1_555
C7 C6 1_555 1_555
C8 C7 1_555 1_555
H4 C8 1_555 1_555
C9 C8 1_555 1_555
H5 C9 1_555 1_555
C10 C9 1_555 1_555
H6 C10 1_555 1_555
C11 C10 1_555 1_555
C12 C7 1_555 1_555
C13 C14 1_555 1_555
C14 C15 1_555 1_555
C15 H7 1_555 1_555
C16 C15 1_555 1_555
H8 C16 1_555 1_555
C17 C16 1_555 1_555
C18 C17 1_555 1_555
C19 C18 1_555 1_555
H9 C19 1_555 1_555
C20 C19 1_555 1_555
H10 C20 1_555 1_555
C21 C20 1_555 1_555
H11 C21 1_555 1_555
C22 C17 1_555 1_555
H12 C22 1_555 1_555
C23 H13 1_555 1_555
H14 C23 1_555 1_555
H15 C23 1_555 1_555
C24 C23 1_555 1_555
C25 C24 1_555 1_555
H16 C25 1_555 1_555
C26 C25 1_555 1_555
H17 C26 1_555 1_555
C27 C26 1_555 1_555
C28 C27 1_555 1_555
C29 C24 1_555 1_555
H18 C29 1_555 1_555
C30 C28 1_555 1_555
H19 C30 1_555 1_555
C31 H20 1_555 1_555
H21 C31 1_555 1_555
C32 C31 1_555 1_555
H22 C32 1_555 1_555
H23 C32 1_555 1_555
C33 H24 1_555 1_555
C34 C33 1_555 1_555
C35 C34 1_555 1_555
C36 C35 1_555 1_555
H25 C36 1_555 1_555
C37 C36 1_555 1_555
H26 C37 1_555 1_555
C38 C37 1_555 1_555
C39 C34 1_555 1_555
H27 C39 1_555 1_555
C40 C38 1_555 1_555
H28 C40 1_555 1_555
H29 C40 1_555 1_555
H30 C40 1_555 1_555
Fe1 N4 1_555 1_555
Mn1 N2 1_555 1_555
N1 C1 1_555 1_555
N2 C2 1_555 1_555
N3 C3 1_555 1_555
N4 C4 1_555 1_555
N5 C11 1_555 1_555
N6 C14 1_555 1_555
N7 C30 1_555 1_555
N8 C32 1_555 1_555
O1 C13 1_555 1_555
O2 C27 1_555 1_555
O3 C35 1_555 1_555
Mn1C N1 1_555 1_555
N1C Mn1 1_555 1_555
C11 C12 1_555 1_555
C12 N4 1_555 1_555
C13 N5 1_555 1_555
C18 N6 1_555 1_555
C21 C22 1_555 1_555
C28 C29 1_555 1_555
C31 N7 1_555 1_555
C33 N8 1_555 1_555
C38 C39 1_555 1_555
Fe1 N5 1_555 1_555
Fe1 N6 1_555 1_555
Mn1 N7 1_555 1_555
Mn1 N8 1_555 1_555
Mn1 O2 1_555 1_555
Mn1 O3 1_555 1_555

#END
