
#######################################################################
#
#                 Cambridge Crystallographic Data Centre
#                                CCDC 
#
#######################################################################
#
# If this CIF has been generated from an entry in the Cambridge 
# Structural Database, then it will include bibliographic, chemical, 
# crystal, experimental, refinement or atomic coordinate data resulting 
# from the CCDC's data processing and validation procedures.
#
#######################################################################

data_YIVLIA
_symmetry_cell_setting           orthorhombic
_symmetry_space_group_name_H-M   'P 21 21 21'
_symmetry_Int_Tables_number      19
_space_group_name_Hall           'P 2ac 2ab'
loop_
_symmetry_equiv_pos_site_id
_symmetry_equiv_pos_as_xyz
1 x,y,z
2 1/2-x,-y,1/2+z
3 1/2+x,1/2-y,-z
4 -x,1/2+y,1/2-z
_cell_length_a                   7.44480(10)
_cell_length_b                   13.1466(2)
_cell_length_c                   16.0004(3)
_cell_angle_alpha                90
_cell_angle_beta                 90
_cell_angle_gamma                90
_cell_volume                     1566.02
loop_
_atom_site_label
_atom_site_type_symbol
_atom_site_fract_x
_atom_site_fract_y
_atom_site_fract_z
Cu1 Cu 0.23780(5) 0.77696(2) 0.23972(2)
Cl1 Cl 0.26637(11) 0.41093(4) 0.18101(4)
Cl2 Cl 0.52835(13) 0.66018(5) 0.49852(5)
N1 N 0.2105(3) 0.92357(14) 0.26858(13)
O1 O 0.2517(3) 0.63443(11) 0.21132(11)
C1 C 0.0766(3) 0.91835(17) 0.13397(16)
O2 O 0.3474(3) 0.73692(13) 0.34352(12)
C2 C 0.1434(3) 0.97638(17) 0.20255(16)
C3 C 0.4294(3) 0.42326(17) 0.33302(16)
C4 C -0.0022(3) 0.96659(19) 0.06441(16)
N2 N 0.0965(3) 0.81575(14) 0.13899(14)
C5 C 0.3790(3) 0.64085(17) 0.34662(17)
C6 C 0.1394(3) 1.08262(17) 0.19998(18)
C7 C 0.3393(3) 0.47720(18) 0.26901(17)
O3 O 0.4669(3) 0.33190(13) 0.33075(14)
C8 C 0.4900(3) 0.48411(19) 0.41209(17)
C9 C 0.0670(4) 1.13041(18) 0.12644(18)
H1 H 0.069 1.201 0.1225
C10 C 0.2657(4) 1.0805(2) 0.33712(19)
H2 H 0.3052 1.1146 0.3846
C11 C 0.3196(3) 0.58140(17) 0.27085(16)
C12 C -0.0706(4) 0.9037(2) 0.00133(17)
H3 H -0.13 0.9319 -0.0442
C13 C -0.0032(4) 1.0763(2) 0.06337(18)
H4 H -0.0535 1.1102 0.018
C14 C 0.4596(4) 0.59160(19) 0.41162(17)
C15 C -0.0497(4) 0.8006(2) 0.00708(18)
H5 H -0.092 0.7586 -0.0354
C16 C 0.0356(4) 0.75837(17) 0.07715(17)
H6 H 0.0499 0.6882 0.0802
C17 C 0.2670(4) 0.9734(2) 0.33492(17)
H7 H 0.3085 0.9373 0.381
C18 C 0.2069(4) 1.13411(19) 0.2698(2)
H8 H 0.2114 1.2048 0.2702
O4 O 0.5620(3) 0.43738(15) 0.46841(14)
Cu1C Cu 0.76220(5) 0.27696(2) 0.26028(2)
O3C O 0.5331(3) 0.83190(13) 0.16925(14)
loop_
_geom_bond_atom_site_label_1
_geom_bond_atom_site_label_2
_geom_bond_site_symmetry_1
_geom_bond_site_symmetry_2
Cu1 N1 1_555 1_555
Cl1 C7 1_555 1_555
Cl2 C14 1_555 1_555
N1 C2 1_555 1_555
O1 Cu1 1_555 1_555
C1 C2 1_555 1_555
O2 Cu1 1_555 1_555
C2 C6 1_555 1_555
C3 C7 1_555 1_555
C4 C1 1_555 1_555
N2 Cu1 1_555 1_555
C5 O2 1_555 1_555
C6 C9 1_555 1_555
C7 C11 1_555 1_555
O3 C3 1_555 1_555
C8 C3 1_555 1_555
C9 H1 1_555 1_555
C10 H2 1_555 1_555
C11 O1 1_555 1_555
C12 C4 1_555 1_555
H3 C12 1_555 1_555
C13 C4 1_555 1_555
H4 C13 1_555 1_555
C14 C5 1_555 1_555
C15 C12 1_555 1_555
H5 C15 1_555 1_555
C16 N2 1_555 1_555
H6 C16 1_555 1_555
C17 N1 1_555 1_555
H7 C17 1_555 1_555
C18 C6 1_555 1_555
H8 C18 1_555 1_555
O4 C8 1_555 1_555
Cu1C O3 1_555 1_555
O3C Cu1 1_555 1_555
C1 N2 1_555 1_555
C5 C11 1_555 1_555
C8 C14 1_555 1_555
C9 C13 1_555 1_555
C10 C17 1_555 1_555
C10 C18 1_555 1_555
C15 C16 1_555 1_555

#END
