
#######################################################################
#
#                 Cambridge Crystallographic Data Centre
#                                CCDC 
#
#######################################################################
#
# If this CIF has been generated from an entry in the Cambridge 
# Structural Database, then it will include bibliographic, chemical, 
# crystal, experimental, refinement or atomic coordinate data resulting 
# from the CCDC's data processing and validation procedures.
#
#######################################################################

data_YIVMOG
_symmetry_cell_setting           monoclinic
_symmetry_space_group_name_H-M   'P 21/c'
_symmetry_Int_Tables_number      14
_space_group_name_Hall           '-P 2ybc'
loop_
_symmetry_equiv_pos_site_id
_symmetry_equiv_pos_as_xyz
1 x,y,z
2 -x,1/2+y,1/2-z
3 -x,-y,-z
4 x,1/2-y,1/2+z
_cell_length_a                   12.965(3)
_cell_length_b                   10.363(2)
_cell_length_c                   12.644(2)
_cell_angle_alpha                90.00
_cell_angle_beta                 94.242(2)
_cell_angle_gamma                90.00
_cell_volume                     1694.15
loop_
_atom_site_label
_atom_site_type_symbol
_atom_site_fract_x
_atom_site_fract_y
_atom_site_fract_z
O1 O 0.2214(4) 0.9469(6) 0.8657(4)
O2 O 0.0864(3) 0.8851(5) 0.7638(4)
C1 C 0.1270(5) 0.9578(7) 0.8353(5)
C2 C 0.0638(5) 1.0591(7) 0.8832(5)
O3 O 0.2757(4) 0.5694(5) 0.6290(4)
O4 O 0.4085(3) 0.6352(6) 0.7336(4)
C3 C 0.3692(5) 0.5597(7) 0.6630(5)
C4 C 0.4344(5) 0.4569(7) 0.6205(5)
C5 C 0.5566(7) 0.2633(7) 0.5529(7)
H1 H 0.5988 0.1978 0.5303
U1 U 0.248329(15) 0.76152(3) 0.745284(17)
N1 N 0.5895(4) 0.3325(6) 0.6394(4)
N2 N -0.0880(4) 1.1884(6) 0.8713(4)
C6 C -0.0502(7) 1.2562(7) 0.9560(7)
H2 H -0.0893 1.3241 0.9798
C7 C 0.4285(6) 0.2002(10) 0.4031(6)
H3 H 0.4843 0.1416 0.3897
H4 H 0.4147 0.2532 0.3405
C8 C -0.0327(5) 1.0908(7) 0.8367(5)
H5 H -0.0599 1.0424 0.7793
C9 C 0.4012(5) 0.3842(7) 0.5312(5)
H6 H 0.3378 0.4023 0.4950
C10 C 0.1026(5) 1.1281(7) 0.9728(5)
H7 H 0.1661 1.1058 1.0069
C11 C 0.5304(5) 0.4281(7) 0.6705(5)
H8 H 0.5545 0.4778 0.7284
C12 C 0.4620(6) 0.2857(8) 0.4961(6)
C13 C 0.0844(6) 1.3144(10) 1.1016(7)
H9 H 0.0264 1.3324 1.1437
H10 H 0.1061 1.3960 1.0728
C14 C 0.0464(6) 1.2291(8) 1.0103(7)
C15 C 0.1709(7) 1.2639(10) 1.1738(7)
H11 H 0.1896 1.3270 1.2274
H12 H 0.2294 1.2463 1.1338
H13 H 0.1494 1.1859 1.2067
C16 C 0.3323(7) 0.1223(12) 0.4224(8)
H14 H 0.3141 0.0690 0.3618
H15 H 0.2762 0.1800 0.4338
H16 H 0.3458 0.0688 0.4839
O5 O 0.2849(4) 0.8673(5) 0.6455(4)
O6 O 0.2101(4) 0.6584(5) 0.8455(4)
U1A U 0.751671(15) 0.26152(3) 0.754716(17)
U1A_2 U -0.248329(15) 1.26152(3) 0.754716(17)
N1A N 0.4105(4) 0.8325(6) 0.8606(4)
N2A N 0.0880(4) 0.6884(6) 0.6287(4)
loop_
_geom_bond_atom_site_label_1
_geom_bond_atom_site_label_2
_geom_bond_site_symmetry_1
_geom_bond_site_symmetry_2
O1 C1 1_555 1_555
O2 C1 1_555 1_555
C1 C2 1_555 1_555
C2 C8 1_555 1_555
O3 C3 1_555 1_555
O4 C3 1_555 1_555
C3 C4 1_555 1_555
C4 C9 1_555 1_555
C5 H1 1_555 1_555
U1 O1 1_555 1_555
N1 C5 1_555 1_555
N2 C6 1_555 1_555
C6 H2 1_555 1_555
C7 H3 1_555 1_555
H4 C7 1_555 1_555
C8 N2 1_555 1_555
H5 C8 1_555 1_555
C9 H6 1_555 1_555
C10 C2 1_555 1_555
H7 C10 1_555 1_555
C11 C4 1_555 1_555
H8 C11 1_555 1_555
C12 C5 1_555 1_555
C13 H9 1_555 1_555
H10 C13 1_555 1_555
C14 C6 1_555 1_555
C15 C13 1_555 1_555
H11 C15 1_555 1_555
H12 C15 1_555 1_555
H13 C15 1_555 1_555
C16 C7 1_555 1_555
H14 C16 1_555 1_555
H15 C16 1_555 1_555
H16 C16 1_555 1_555
O5 U1 1_555 1_555
O6 U1 1_555 1_555
U1A N1 1_555 1_555
U1A_2 N2 1_555 1_555
N1A U1 1_555 1_555
N2A U1 1_555 1_555
O2 U1 1_555 1_555
O3 U1 1_555 1_555
O4 U1 1_555 1_555
N1 C11 1_555 1_555
C7 C12 1_555 1_555
C9 C12 1_555 1_555
C10 C14 1_555 1_555
C13 C14 1_555 1_555

#END
