
#######################################################################
#
#                 Cambridge Crystallographic Data Centre
#                                CCDC 
#
#######################################################################
#
# If this CIF has been generated from an entry in the Cambridge 
# Structural Database, then it will include bibliographic, chemical, 
# crystal, experimental, refinement or atomic coordinate data resulting 
# from the CCDC's data processing and validation procedures.
#
#######################################################################

data_YIVWIL
_symmetry_cell_setting           tetragonal
_symmetry_space_group_name_H-M   'P 4/m c c'
_symmetry_Int_Tables_number      124
_space_group_name_Hall           '-P 4 2c'
loop_
_symmetry_equiv_pos_site_id
_symmetry_equiv_pos_as_xyz
1 x,y,z
2 -x,-y,z
3 -y,x,z
4 y,-x,z
5 -x,y,1/2-z
6 x,-y,1/2-z
7 y,x,1/2-z
8 -y,-x,1/2-z
9 -x,-y,-z
10 x,y,-z
11 y,-x,-z
12 -y,x,-z
13 x,-y,1/2+z
14 -x,y,1/2+z
15 -y,-x,1/2+z
16 y,x,1/2+z
_cell_length_a                   15.507(5)
_cell_length_b                   15.507(5)
_cell_length_c                   9.930(5)
_cell_angle_alpha                90
_cell_angle_beta                 90
_cell_angle_gamma                90
_cell_volume                     2387.84
loop_
_atom_site_label
_atom_site_type_symbol
_atom_site_fract_x
_atom_site_fract_y
_atom_site_fract_z
Eu1 Eu -0.5000 -0.5000 0.2500
Zn1 Zn 0.0000 0.0000 -0.03047(10)
S1 S -0.32020(5) -0.52312(5) 0.0000
N1 N -0.12825(16) -0.03028(16) 0.0000
O1 O -0.37178(14) -0.52877(12) 0.1214(3)
O2 O -0.25087(16) -0.58538(16) 0.0000
O3 O 0.0000 0.0000 -0.2500
C1 C -0.2684(2) -0.4203(2) 0.0000
C2 C -0.24529(17) -0.38386(17) -0.1214(3)
H1 H -0.2630 -0.4086 -0.2021
C3 C -0.19486(16) -0.30925(16) -0.1212(3)
H2 H -0.1778 -0.2848 -0.2025
C4 C -0.1698(2) -0.2709(2) 0.0000
C5 C -0.1180(2) -0.1881(2) 0.0000
C6 C -0.1648(2) -0.1113(2) 0.0000
C7 C -0.2572(2) -0.1042(2) 0.0000
H3 H -0.2966 -0.1494 0.0000
C8 C -0.2758(2) -0.0195(2) 0.0000
H4 H -0.3308 0.0044 0.0000
C9 C -0.1966(2) 0.0274(2) 0.0000
S1B S 0.52312(5) -0.32020(5) 0.0000
N1B N 0.03028(16) -0.12825(16) 0.0000
O1B O 0.52877(12) -0.37178(14) 0.1214(3)
O2B O 0.58538(16) -0.25087(16) 0.0000
C1B C 0.4203(2) -0.2684(2) 0.0000
C2B C 0.38386(17) -0.24529(17) -0.1214(3)
H1B H 0.4086 -0.2630 -0.2021
C3B C 0.30925(16) -0.19486(16) -0.1212(3)
H2B H 0.2848 -0.1778 -0.2025
C4B C 0.2709(2) -0.1698(2) 0.0000
C5B C 0.1881(2) -0.1180(2) 0.0000
C6B C 0.1113(2) -0.1648(2) 0.0000
C7B C 0.1042(2) -0.2572(2) 0.0000
H3B H 0.1494 -0.2966 0.0000
C8B C 0.0195(2) -0.2758(2) 0.0000
H4B H -0.0044 -0.3308 0.0000
C9B C -0.0274(2) -0.1966(2) 0.0000
S1C S -0.52312(5) 0.32020(5) 0.0000
N1C N -0.03028(16) 0.12825(16) 0.0000
O1C O -0.52877(12) 0.37178(14) 0.1214(3)
O2C O -0.58538(16) 0.25087(16) 0.0000
C1C C -0.4203(2) 0.2684(2) 0.0000
C2C C -0.38386(17) 0.24529(17) -0.1214(3)
H1C H -0.4086 0.2630 -0.2021
C3C C -0.30925(16) 0.19486(16) -0.1212(3)
H2C H -0.2848 0.1778 -0.2025
C4C C -0.2709(2) 0.1698(2) 0.0000
C5C C -0.1881(2) 0.1180(2) 0.0000
C6C C -0.1113(2) 0.1648(2) 0.0000
C7C C -0.1042(2) 0.2572(2) 0.0000
H3C H -0.1494 0.2966 0.0000
C8C C -0.0195(2) 0.2758(2) 0.0000
H4C H 0.0044 0.3308 0.0000
C9C C 0.0274(2) 0.1966(2) 0.0000
O1I O -0.37178(14) -0.52877(12) -0.1214(3)
C2I C -0.24529(17) -0.38386(17) 0.1214(3)
H1I H -0.2630 -0.4086 0.2021
C3I C -0.19486(16) -0.30925(16) 0.1212(3)
H2I H -0.1778 -0.2848 0.2025
O1J O -0.52877(12) 0.37178(14) -0.1214(3)
C2J C -0.38386(17) 0.24529(17) 0.1214(3)
H1J H -0.4086 0.2630 0.2021
C3J C -0.30925(16) 0.19486(16) 0.1212(3)
H2J H -0.2848 0.1778 0.2025
O1K O 0.52877(12) -0.37178(14) -0.1214(3)
C2K C 0.38386(17) -0.24529(17) 0.1214(3)
H1K H 0.4086 -0.2630 0.2021
C3K C 0.30925(16) -0.19486(16) 0.1212(3)
H2K H 0.2848 -0.1778 0.2025
S1A S 0.32020(5) 0.52312(5) 0.0000
N1A N 0.12825(16) 0.03028(16) 0.0000
O1A O 0.37178(14) 0.52877(12) 0.1214(3)
O2A O 0.25087(16) 0.58538(16) 0.0000
C1A C 0.2684(2) 0.4203(2) 0.0000
C2A C 0.24529(17) 0.38386(17) -0.1214(3)
H1A H 0.2630 0.4086 -0.2021
C3A C 0.19486(16) 0.30925(16) -0.1212(3)
H2A H 0.1778 0.2848 -0.2025
C4A C 0.1698(2) 0.2709(2) 0.0000
C5A C 0.1180(2) 0.1881(2) 0.0000
C6A C 0.1648(2) 0.1113(2) 0.0000
C7A C 0.2572(2) 0.1042(2) 0.0000
H3A H 0.2966 0.1494 0.0000
C8A C 0.2758(2) 0.0195(2) 0.0000
H4A H 0.3308 -0.0044 0.0000
C9A C 0.1966(2) -0.0274(2) 0.0000
O1H O 0.37178(14) 0.52877(12) -0.1214(3)
C2H C 0.24529(17) 0.38386(17) 0.1214(3)
H1H H 0.2630 0.4086 0.2021
C3H C 0.19486(16) 0.30925(16) 0.1212(3)
H2H H 0.1778 0.2848 0.2025
Zn1H Zn 0.0000 0.0000 0.03047(10)
Eu1_2 Eu -0.5000 0.5000 0.2500
Eu1_3 Eu 0.5000 -0.5000 0.2500
Eu1_4 Eu 0.5000 0.5000 0.2500
Eu1H Eu -0.5000 -0.5000 -0.2500
Eu1H_2 Eu -0.5000 0.5000 -0.2500
Eu1H_3 Eu 0.5000 -0.5000 -0.2500
Eu1H_4 Eu 0.5000 0.5000 -0.2500
Zn1D Zn 0.0000 0.0000 -0.46953(10)
O1A_2 O -0.62822(14) -0.47123(12) 0.1214(3)
O1B_2 O -0.47123(12) -0.37178(14) 0.1214(3)
O1C_2 O -0.52877(12) -0.62822(14) 0.1214(3)
O1D O -0.62822(14) -0.52877(12) 0.3786(3)
O1E O -0.37178(14) -0.47123(12) 0.3786(3)
O1F O -0.52877(12) -0.37178(14) 0.3786(3)
O1G O -0.47123(12) -0.62822(14) 0.3786(3)
O3H O 0.0000 0.0000 0.2500
loop_
_geom_bond_atom_site_label_1
_geom_bond_atom_site_label_2
_geom_bond_site_symmetry_1
_geom_bond_site_symmetry_2
Eu1 O1 1_555 1_555
Zn1 N1 1_555 1_555
S1 O1 1_555 1_555
N1 C6 1_555 1_555
O2 S1 1_555 1_555
O3 Zn1 1_555 1_555
C1 S1 1_555 1_555
C2 C1 1_555 1_555
H1 C2 1_555 1_555
C3 C2 1_555 1_555
H2 C3 1_555 1_555
C4 C3 1_555 1_555
C5 C4 1_555 1_555
C6 C5 1_555 1_555
C7 C6 1_555 1_555
H3 C7 1_555 1_555
C8 C7 1_555 1_555
H4 C8 1_555 1_555
C9 N1 1_555 1_555
S1B O1B 1_555 1_555
N1B Zn1 1_555 1_555
O1B Eu1_3 1_555 1_555
O2B S1B 1_555 1_555
C1B S1B 1_555 1_555
C2B C1B 1_555 1_555
H1B C2B 1_555 1_555
C3B C2B 1_555 1_555
H2B C3B 1_555 1_555
C4B C3B 1_555 1_555
C5B C4B 1_555 1_555
C6B N1B 1_555 1_555
C7B C6B 1_555 1_555
H3B C7B 1_555 1_555
C8B C7B 1_555 1_555
H4B C8B 1_555 1_555
C9B C5 1_555 1_555
S1C O1C 1_555 1_555
N1C Zn1 1_555 1_555
O1C Eu1_2 1_555 1_555
O2C S1C 1_555 1_555
C1C S1C 1_555 1_555
C2C C1C 1_555 1_555
H1C C2C 1_555 1_555
C3C C2C 1_555 1_555
H2C C3C 1_555 1_555
C4C C3C 1_555 1_555
C5C C9 1_555 1_555
C6C N1C 1_555 1_555
C7C C6C 1_555 1_555
H3C C7C 1_555 1_555
C8C C7C 1_555 1_555
H4C C8C 1_555 1_555
C9C N1C 1_555 1_555
O1I S1 1_555 1_555
C2I C1 1_555 1_555
H1I C2I 1_555 1_555
C3I C4 1_555 1_555
H2I C3I 1_555 1_555
O1J S1C 1_555 1_555
C2J C1C 1_555 1_555
H1J C2J 1_555 1_555
C3J C4C 1_555 1_555
H2J C3J 1_555 1_555
O1K S1B 1_555 1_555
C2K C1B 1_555 1_555
H1K C2K 1_555 1_555
C3K C4B 1_555 1_555
H2K C3K 1_555 1_555
S1A O1A 1_555 1_555
N1A Zn1 1_555 1_555
O1A Eu1_4 1_555 1_555
O2A S1A 1_555 1_555
C1A S1A 1_555 1_555
C2A C1A 1_555 1_555
H1A C2A 1_555 1_555
C3A C2A 1_555 1_555
H2A C3A 1_555 1_555
C4A C3A 1_555 1_555
C5A C9C 1_555 1_555
C6A N1A 1_555 1_555
C7A C6A 1_555 1_555
H3A C7A 1_555 1_555
C8A C7A 1_555 1_555
H4A C8A 1_555 1_555
C9A C5B 1_555 1_555
O1H S1A 1_555 1_555
C2H C1A 1_555 1_555
H1H C2H 1_555 1_555
C3H C4A 1_555 1_555
H2H C3H 1_555 1_555
Zn1H Zn1 1_555 1_555
Eu1H O1I 1_555 1_555
Eu1H_2 O1J 1_555 1_555
Eu1H_3 O1K 1_555 1_555
Eu1H_4 O1H 1_555 1_555
Zn1D O3 1_555 1_555
O1A_2 Eu1 1_555 1_555
O1B_2 Eu1 1_555 1_555
O1C_2 Eu1 1_555 1_555
O1D Eu1 1_555 1_555
O1E Eu1 1_555 1_555
O1F Eu1 1_555 1_555
O1G Eu1 1_555 1_555
O3H Zn1H 1_555 1_555
N1 Zn1H 1_555 1_555
C8 C9 1_555 1_555
N1B C9B 1_555 1_555
N1B Zn1H 1_555 1_555
C5B C6B 1_555 1_555
C8B C9B 1_555 1_555
N1C Zn1H 1_555 1_555
C4C C5C 1_555 1_555
C5C C6C 1_555 1_555
C8C C9C 1_555 1_555
C2I C3I 1_555 1_555
C2J C3J 1_555 1_555
C2K C3K 1_555 1_555
N1A C9A 1_555 1_555
N1A Zn1H 1_555 1_555
C4A C5A 1_555 1_555
C5A C6A 1_555 1_555
C8A C9A 1_555 1_555
C2H C3H 1_555 1_555

#END
