
#######################################################################
#
#                 Cambridge Crystallographic Data Centre
#                                CCDC 
#
#######################################################################
#
# If this CIF has been generated from an entry in the Cambridge 
# Structural Database, then it will include bibliographic, chemical, 
# crystal, experimental, refinement or atomic coordinate data resulting 
# from the CCDC's data processing and validation procedures.
#
#######################################################################

data_YIWCUD
_symmetry_cell_setting           triclinic
_symmetry_space_group_name_H-M   'P -1'
_symmetry_Int_Tables_number      2
_space_group_name_Hall           '-P 1'
loop_
_symmetry_equiv_pos_site_id
_symmetry_equiv_pos_as_xyz
1 x,y,z
2 -x,-y,-z
_cell_length_a                   9.070(6)
_cell_length_b                   9.518(6)
_cell_length_c                   9.662(6)
_cell_angle_alpha                107.231(8)
_cell_angle_beta                 90.250(8)
_cell_angle_gamma                113.248(5)
_cell_volume                     724.958
loop_
_atom_site_label
_atom_site_type_symbol
_atom_site_fract_x
_atom_site_fract_y
_atom_site_fract_z
Ni1 Ni 0.5000 0.5000 0.5000
N1 N 0.2518(5) 0.4045(4) 0.4433(4)
N2 N -0.0723(6) 0.3135(6) 0.3518(6)
N3 N 0.5129(5) 0.3145(4) 0.3188(4)
O1 O 0.4906(4) 0.6274(4) 0.3657(4)
O2 O 0.3146(5) 0.6608(5) 0.2287(5)
C1 C 0.2086(6) 0.4704(6) 0.3550(5)
C2 C 0.0472(7) 0.4243(7) 0.3094(6)
H1 H 0.0200 0.4713 0.2473
C3 C -0.0284(6) 0.2475(6) 0.4382(6)
C4 C 0.1348(6) 0.2942(6) 0.4838(6)
H2 H 0.1623 0.2462 0.5446
C5 C 0.3487(6) 0.5968(6) 0.3109(6)
C6 C -0.1600(7) 0.1238(8) 0.4881(8)
H3 H -0.1963 0.1779 0.5722
H4 H -0.1182 0.0549 0.5133
H5 H -0.2493 0.0598 0.4107
C7 C 0.5689(7) 0.3446(6) 0.1970(6)
H6 H 0.6111 0.4510 0.1972
C8 C 0.5674(6) 0.2277(6) 0.0731(6)
H7 H 0.6083 0.2561 -0.0075
C9 C 0.5044(5) 0.0649(5) 0.0664(5)
C10 C 0.4542(6) 0.0358(6) 0.1958(5)
H8 H 0.4174 -0.0683 0.2009
C11 C 0.4590(6) 0.1602(6) 0.3153(5)
H9 H 0.4228 0.1361 0.3988
Ni1_2 Ni 0.5000 -0.5000 -0.5000
N1A N 0.7482(5) 0.5955(4) 0.5567(4)
N2A N 1.0723(6) 0.6865(6) 0.6482(6)
N3A N 0.4871(5) -0.3145(4) -0.3188(4)
N3A_2 N 0.4871(5) 0.6855(4) 0.6812(4)
O1A O 0.5094(4) 0.3726(4) 0.6343(4)
O2A O 0.6854(5) 0.3392(5) 0.7713(5)
C1A C 0.7914(6) 0.5296(6) 0.6450(5)
C2A C 0.9528(7) 0.5757(7) 0.6906(6)
H1A H 0.9800 0.5287 0.7527
C3A C 1.0284(6) 0.7525(6) 0.5618(6)
C4A C 0.8652(6) 0.7058(6) 0.5162(6)
H2A H 0.8377 0.7538 0.4554
C5A C 0.6513(6) 0.4032(6) 0.6891(6)
C6A C 1.1600(7) 0.8762(8) 0.5119(8)
H3A H 1.1963 0.8221 0.4278
H4A H 1.1182 0.9451 0.4867
H5A H 1.2493 0.9402 0.5893
C7A C 0.4311(7) -0.3446(6) -0.1970(6)
H6A H 0.3889 -0.4510 -0.1972
C8A C 0.4326(6) -0.2277(6) -0.0731(6)
H7A H 0.3917 -0.2561 0.0075
C9A C 0.4956(5) -0.0649(5) -0.0664(5)
C10A C 0.5458(6) -0.0358(6) -0.1958(5)
H8A H 0.5826 0.0683 -0.2009
C11A C 0.5410(6) -0.1602(6) -0.3153(5)
H9A H 0.5772 -0.1361 -0.3988
N4 N 0.1326(7) 0.3243(7) 0.8518(7)
C12 C 0.2142(10) 0.2335(10) 0.8481(10)
H10 H 0.3097 0.2584 0.8064
C13 C 0.1671(8) 0.1058(9) 0.9014(9)
H11 H 0.2278 0.0453 0.8923
C14 C 0.0288(6) 0.0678(6) 0.9688(7)
C15 C -0.0566(8) 0.1607(8) 0.9707(7)
H12 H -0.1519 0.1399 1.0126
C16 C -0.0012(9) 0.2838(8) 0.9111(8)
H13 H -0.0631 0.3422 0.9130
N4A N -0.1326(7) -0.3243(7) 1.1482(7)
C12A C -0.2142(10) -0.2335(10) 1.1519(10)
H10A H -0.3097 -0.2584 1.1936
C13A C -0.1671(8) -0.1058(9) 1.0986(9)
H11A H -0.2278 -0.0453 1.1077
C14A C -0.0288(6) -0.0678(6) 1.0312(7)
C15A C 0.0566(8) -0.1607(8) 1.0293(7)
H12A H 0.1519 -0.1399 0.9874
C16A C 0.0012(9) -0.2838(8) 1.0889(8)
H13A H 0.0631 -0.3422 1.0870
loop_
_geom_bond_atom_site_label_1
_geom_bond_atom_site_label_2
_geom_bond_site_symmetry_1
_geom_bond_site_symmetry_2
Ni1 N1 1_555 1_555
N1 C1 1_555 1_555
N2 C2 1_555 1_555
N3 Ni1 1_555 1_555
O1 Ni1 1_555 1_555
O2 C5 1_555 1_555
C1 C2 1_555 1_555
C2 H1 1_555 1_555
C3 N2 1_555 1_555
C4 N1 1_555 1_555
H2 C4 1_555 1_555
C5 O1 1_555 1_555
C6 C3 1_555 1_555
H3 C6 1_555 1_555
H4 C6 1_555 1_555
H5 C6 1_555 1_555
C7 N3 1_555 1_555
H6 C7 1_555 1_555
C8 C7 1_555 1_555
H7 C8 1_555 1_555
C9 C8 1_555 1_555
C10 C9 1_555 1_555
H8 C10 1_555 1_555
C11 N3 1_555 1_555
H9 C11 1_555 1_555
N4 C12 1_555 1_555
C12 H10 1_555 1_555
C13 C12 1_555 1_555
H11 C13 1_555 1_555
C14 C13 1_555 1_555
C15 C14 1_555 1_555
H12 C15 1_555 1_555
C16 N4 1_555 1_555
H13 C16 1_555 1_555
Ni1_2 N3A 1_555 1_555
N1A Ni1 1_555 1_555
N2A C2A 1_555 1_555
N3A C7A 1_555 1_555
N3A_2 Ni1 1_555 1_555
O1A Ni1 1_555 1_555
O2A C5A 1_555 1_555
C1A N1A 1_555 1_555
C2A C1A 1_555 1_555
H1A C2A 1_555 1_555
C3A N2A 1_555 1_555
C4A N1A 1_555 1_555
H2A C4A 1_555 1_555
C5A O1A 1_555 1_555
C6A C3A 1_555 1_555
H3A C6A 1_555 1_555
H4A C6A 1_555 1_555
H5A C6A 1_555 1_555
C7A H6A 1_555 1_555
C8A C7A 1_555 1_555
H7A C8A 1_555 1_555
C9A C9 1_555 1_555
C10A C9A 1_555 1_555
H8A C10A 1_555 1_555
C11A N3A 1_555 1_555
H9A C11A 1_555 1_555
N4A C12A 1_555 1_555
C12A H10A 1_555 1_555
C13A C12A 1_555 1_555
H11A C13A 1_555 1_555
C14A C14 1_555 1_555
C15A C14A 1_555 1_555
H12A C15A 1_555 1_555
C16A N4A 1_555 1_555
H13A C16A 1_555 1_555
C1 C5 1_555 1_555
C3 C4 1_555 1_555
C10 C11 1_555 1_555
C15 C16 1_555 1_555
C1A C5A 1_555 1_555
C3A C4A 1_555 1_555
C8A C9A 1_555 1_555
C10A C11A 1_555 1_555
C13A C14A 1_555 1_555
C15A C16A 1_555 1_555

#END
