
#######################################################################
#
#                 Cambridge Crystallographic Data Centre
#                                CCDC 
#
#######################################################################
#
# If this CIF has been generated from an entry in the Cambridge 
# Structural Database, then it will include bibliographic, chemical, 
# crystal, experimental, refinement or atomic coordinate data resulting 
# from the CCDC's data processing and validation procedures.
#
#######################################################################

data_YIWRON
_symmetry_cell_setting           triclinic
_symmetry_space_group_name_H-M   'P -1'
_symmetry_Int_Tables_number      2
_space_group_name_Hall           '-P 1'
loop_
_symmetry_equiv_pos_site_id
_symmetry_equiv_pos_as_xyz
1 x,y,z
2 -x,-y,-z
_cell_length_a                   10.033(3)
_cell_length_b                   14.215(4)
_cell_length_c                   17.265(5)
_cell_angle_alpha                96.327(5)
_cell_angle_beta                 102.194(5)
_cell_angle_gamma                102.115(5)
_cell_volume                     2322.19
loop_
_atom_site_label
_atom_site_type_symbol
_atom_site_fract_x
_atom_site_fract_y
_atom_site_fract_z
Cu1 Cu 0.94214(10) 0.49671(7) -0.43930(5)
Cu2 Cu 0.08107(10) 0.08167(7) -0.00739(6)
N1 N 0.8426(8) 0.5037(5) -0.3391(4)
N2 N 0.6162(7) 0.4242(5) -0.1130(4)
N3 N 0.6835(7) 0.4682(5) 0.0288(4)
N4 N 0.8290(7) 0.5419(5) -0.0515(4)
N5 N 0.2408(7) 0.2069(5) -0.0180(4)
N6 N 1.0784(8) 0.7142(5) 0.2280(4)
O1 O 0.9843(8) 0.3671(5) -0.4341(4)
O2 O 1.0785(9) 0.3740(5) -0.5395(4)
O3 O 0.7682(7) 0.4362(6) -0.5215(4)
O4 O 0.8665(7) 0.4460(6) -0.6257(4)
O5 O -0.0210(7) 0.0507(4) -0.1210(4)
O6 O -0.1572(7) -0.0881(5) -0.1081(4)
O7 O 0.1940(7) -0.0080(4) -0.0340(5)
O8 O 0.0607(7) -0.1483(4) -0.0207(4)
C1 C 1.0464(10) 0.3342(6) -0.4828(5)
C2 C 1.0836(11) 0.2352(6) -0.4760(5)
C3 C 0.9763(15) 0.1614(10) -0.5443(8)
H1 H 0.9948 0.0966 -0.5427
H2 H 0.9845 0.1812 -0.5960
H3 H 0.8812 0.1595 -0.5376
C4 C 1.2302(14) 0.2391(12) -0.4896(9)
H4 H 1.3004 0.2848 -0.4461
H5 H 1.2355 0.2610 -0.5410
H6 H 1.2487 0.1740 -0.4906
C5 C 1.0741(19) 0.2032(11) -0.3958(7)
H7 H 1.1444 0.2493 -0.3525
H8 H 1.0917 0.1380 -0.3957
H9 H 0.9800 0.2017 -0.3875
C6 C 0.7637(8) 0.4258(6) -0.5941(5)
C7 C 0.6194(8) 0.3852(8) -0.6531(5)
C8 C 0.4993(11) 0.3860(11) -0.6113(7)
H10 H 0.5009 0.4534 -0.5907
H11 H 0.5108 0.3491 -0.5666
H12 H 0.4094 0.3559 -0.6497
C9 C 0.6051(15) 0.4496(18) -0.7186(11)
H13 H 0.6073 0.5157 -0.6943
H14 H 0.5159 0.4225 -0.7585
H15 H 0.6831 0.4517 -0.7448
C10 C 0.619(2) 0.2802(12) -0.6860(17)
H16 H 0.5286 0.2495 -0.7241
H17 H 0.6320 0.2431 -0.6415
H18 H 0.6950 0.2809 -0.7133
C11 C -0.1100(9) -0.0271(6) -0.1489(5)
C12 C -0.1678(11) -0.0524(7) -0.2398(5)
C13 C -0.3165(13) -0.0375(13) -0.2567(8)
H19 H -0.3133 0.0313 -0.2403
H20 H -0.3717 -0.0777 -0.2265
H21 H -0.3603 -0.0565 -0.3143
C14 C -0.1688(19) -0.1583(9) -0.2654(7)
H22 H -0.0723 -0.1663 -0.2536
H23 H -0.2109 -0.1772 -0.3231
H24 H -0.2239 -0.1997 -0.2359
C15 C -0.0763(14) 0.0109(9) -0.2826(6)
H25 H -0.0756 0.0794 -0.2669
H26 H -0.1137 -0.0079 -0.3408
H27 H 0.0197 0.0022 -0.2680
C16 C 0.1662(9) -0.0986(6) -0.0372(5)
C17 C 0.2736(10) -0.1505(6) -0.0609(6)
C18 C 0.2114(11) -0.2594(6) -0.0875(7)
H28 H 0.1346 -0.2703 -0.1357
H29 H 0.1751 -0.2872 -0.0444
H30 H 0.2843 -0.2910 -0.0995
C19 C 0.3936(12) -0.1335(9) 0.0129(8)
H31 H 0.4335 -0.0633 0.0299
H32 H 0.4663 -0.1648 0.0003
H33 H 0.3586 -0.1613 0.0564
C20 C 0.3269(14) -0.1043(8) -0.1277(8)
H34 H 0.2491 -0.1152 -0.1754
H35 H 0.4007 -0.1339 -0.1410
H36 H 0.3651 -0.0341 -0.1097
C21 C 0.9035(10) 0.5726(6) -0.2759(5)
H37 H 0.9747 0.6257 -0.2810
C22 C 0.8683(10) 0.5707(6) -0.2031(5)
H38 H 0.9155 0.6210 -0.1589
C23 C 0.7647(9) 0.4955(6) -0.1951(5)
C24 C 0.6945(9) 0.4253(6) -0.2614(5)
H39 H 0.6198 0.3733 -0.2585
C25 C 0.7367(9) 0.4333(6) -0.3318(5)
H40 H 0.6877 0.3860 -0.3778
C26 C 0.7325(8) 0.4866(5) -0.1154(5)
C27 C 0.5967(9) 0.4176(5) -0.0385(5)
C28 C 0.7972(8) 0.5308(5) 0.0190(5)
C29 C 0.4701(8) 0.3466(5) -0.0324(5)
C30 C 0.3817(9) 0.2852(6) -0.1004(5)
H41 H 0.3983 0.2891 -0.1522
C31 C 0.2675(9) 0.2175(6) -0.0892(5)
H42 H 0.2049 0.1764 -0.1354
C32 C 0.3244(8) 0.2666(5) 0.0464(5)
H43 H 0.3040 0.2606 0.0971
C33 C 0.4410(9) 0.3379(6) 0.0428(5)
H44 H 0.4992 0.3794 0.0900
C34 C 0.8965(8) 0.5926(5) 0.0916(5)
C35 C 0.8852(9) 0.5780(6) 0.1688(5)
H45 H 0.8141 0.5265 0.1763
C36 C 0.9778(9) 0.6389(7) 0.2336(5)
H46 H 0.9700 0.6269 0.2857
C37 C 1.0875(9) 0.7284(6) 0.1532(5)
H47 H 1.1583 0.7814 0.1478
C38 C 1.0010(9) 0.6712(6) 0.0844(5)
H48 H 1.0118 0.6846 0.0331
Cu1A Cu 1.05786(10) 0.50329(7) -0.56070(5)
Cu2A Cu -0.08107(10) -0.08167(7) 0.00739(6)
O2A O 0.9215(9) 0.6260(5) -0.4605(4)
O4A O 1.1335(7) 0.5540(6) -0.3743(4)
O6A O 0.1572(7) 0.0881(5) 0.1081(4)
O8A O -0.0607(7) 0.1483(4) 0.0207(4)
O9 O 1.3321(9) 0.8115(7) 0.3404(5)
H49 H 1.2498 0.7940 0.3114
C39 C 1.328(2) 0.8428(17) 0.4206(10)
H50 H 1.2999 0.9054 0.4218
H51 H 1.2524 0.7949 0.4334
C40 C 1.444(4) 0.856(3) 0.4807(14)
H52 H 1.4219 0.8746 0.5320
H53 H 1.5190 0.9070 0.4724
H54 H 1.4745 0.7946 0.4815
O10 O 1.5614(14) 0.8052(8) 0.2811(8)
H55 H 1.4914 0.8099 0.2995
C41 C 1.621(2) 0.8963(13) 0.2607(10)
H56 H 1.5516 0.9114 0.2168
H57 H 1.7040 0.8901 0.2400
C42 C 1.6642(17) 0.9788(12) 0.3280(10)
H58 H 1.7050 1.0385 0.3094
H59 H 1.7342 0.9652 0.3715
H60 H 1.5821 0.9873 0.3477
loop_
_geom_bond_atom_site_label_1
_geom_bond_atom_site_label_2
_geom_bond_site_symmetry_1
_geom_bond_site_symmetry_2
Cu1 N1 1_555 1_555
Cu2 N5 1_555 1_555
N1 C21 1_555 1_555
N2 C26 1_555 1_555
N3 C27 1_555 1_555
N4 C26 1_555 1_555
N5 C31 1_555 1_555
N6 C36 1_555 1_555
O1 Cu1 1_555 1_555
O2 C1 1_555 1_555
O3 Cu1 1_555 1_555
O4 C6 1_555 1_555
O5 Cu2 1_555 1_555
O6 C11 1_555 1_555
O7 Cu2 1_555 1_555
O8 C16 1_555 1_555
C1 O1 1_555 1_555
C2 C1 1_555 1_555
C3 C2 1_555 1_555
H1 C3 1_555 1_555
H2 C3 1_555 1_555
H3 C3 1_555 1_555
C4 C2 1_555 1_555
H4 C4 1_555 1_555
H5 C4 1_555 1_555
H6 C4 1_555 1_555
C5 C2 1_555 1_555
H7 C5 1_555 1_555
H8 C5 1_555 1_555
H9 C5 1_555 1_555
C6 O3 1_555 1_555
C7 C6 1_555 1_555
C8 C7 1_555 1_555
H10 C8 1_555 1_555
H11 C8 1_555 1_555
H12 C8 1_555 1_555
C9 C7 1_555 1_555
H13 C9 1_555 1_555
H14 C9 1_555 1_555
H15 C9 1_555 1_555
C10 C7 1_555 1_555
H16 C10 1_555 1_555
H17 C10 1_555 1_555
H18 C10 1_555 1_555
C11 O5 1_555 1_555
C12 C11 1_555 1_555
C13 C12 1_555 1_555
H19 C13 1_555 1_555
H20 C13 1_555 1_555
H21 C13 1_555 1_555
C14 C12 1_555 1_555
H22 C14 1_555 1_555
H23 C14 1_555 1_555
H24 C14 1_555 1_555
C15 C12 1_555 1_555
H25 C15 1_555 1_555
H26 C15 1_555 1_555
H27 C15 1_555 1_555
C16 O7 1_555 1_555
C17 C16 1_555 1_555
C18 C17 1_555 1_555
H28 C18 1_555 1_555
H29 C18 1_555 1_555
H30 C18 1_555 1_555
C19 C17 1_555 1_555
H31 C19 1_555 1_555
H32 C19 1_555 1_555
H33 C19 1_555 1_555
C20 C17 1_555 1_555
H34 C20 1_555 1_555
H35 C20 1_555 1_555
H36 C20 1_555 1_555
C21 H37 1_555 1_555
C22 C21 1_555 1_555
H38 C22 1_555 1_555
C23 C22 1_555 1_555
C24 C23 1_555 1_555
H39 C24 1_555 1_555
C25 N1 1_555 1_555
H40 C25 1_555 1_555
C26 C23 1_555 1_555
C27 N2 1_555 1_555
C28 N3 1_555 1_555
C29 C27 1_555 1_555
C30 C29 1_555 1_555
H41 C30 1_555 1_555
C31 C30 1_555 1_555
H42 C31 1_555 1_555
C32 N5 1_555 1_555
H43 C32 1_555 1_555
C33 C29 1_555 1_555
H44 C33 1_555 1_555
C34 C28 1_555 1_555
C35 C34 1_555 1_555
H45 C35 1_555 1_555
C36 C35 1_555 1_555
H46 C36 1_555 1_555
C37 N6 1_555 1_555
H47 C37 1_555 1_555
C38 C34 1_555 1_555
H48 C38 1_555 1_555
O9 H49 1_555 1_555
C39 O9 1_555 1_555
H50 C39 1_555 1_555
H51 C39 1_555 1_555
C40 C39 1_555 1_555
H52 C40 1_555 1_555
H53 C40 1_555 1_555
H54 C40 1_555 1_555
O10 H55 1_555 1_555
C41 O10 1_555 1_555
H56 C41 1_555 1_555
H57 C41 1_555 1_555
C42 C41 1_555 1_555
H58 C42 1_555 1_555
H59 C42 1_555 1_555
H60 C42 1_555 1_555
Cu1A Cu1 1_555 1_555
Cu2A Cu2 1_555 1_555
O2A Cu1 1_555 1_555
O4A Cu1 1_555 1_555
O6A Cu2 1_555 1_555
O8A Cu2 1_555 1_555
N4 C28 1_555 1_555
O2 Cu1A 1_555 1_555
O4 Cu1A 1_555 1_555
O6 Cu2A 1_555 1_555
O8 Cu2A 1_555 1_555
C24 C25 1_555 1_555
C32 C33 1_555 1_555
C37 C38 1_555 1_555

#END
