
#######################################################################
#
#                 Cambridge Crystallographic Data Centre
#                                CCDC 
#
#######################################################################
#
# If this CIF has been generated from an entry in the Cambridge 
# Structural Database, then it will include bibliographic, chemical, 
# crystal, experimental, refinement or atomic coordinate data resulting 
# from the CCDC's data processing and validation procedures.
#
#######################################################################

data_YIWRIH
_symmetry_cell_setting           monoclinic
_symmetry_space_group_name_H-M   'C 2/c'
_symmetry_Int_Tables_number      15
_space_group_name_Hall           '-C 2yn'
loop_
_symmetry_equiv_pos_site_id
_symmetry_equiv_pos_as_xyz
1 x,y,z
2 1/2+x,1/2+y,z
3 -x,y,1/2-z
4 1/2-x,1/2+y,1/2-z
5 -x,-y,-z
6 1/2-x,1/2-y,-z
7 x,-y,1/2+z
8 1/2+x,1/2-y,1/2+z
_cell_length_a                   23.6267(9)
_cell_length_b                   19.6870(8)
_cell_length_c                   7.4198(3)
_cell_angle_alpha                90
_cell_angle_beta                 106.6430(10)
_cell_angle_gamma                90
_cell_volume                     3306.66
loop_
_atom_site_label
_atom_site_type_symbol
_atom_site_fract_x
_atom_site_fract_y
_atom_site_fract_z
Ni1 Ni 0.2500 0.2500 0.5000
O1 O 0.31071(6) 0.32247(7) 0.6186(2)
O2 O 0.34572(8) 0.28455(10) 0.9131(2)
O3 O 0.21972(7) 0.31160(8) 0.2634(2)
H1 H 0.1981 0.2861 0.1812
N1 N 0.31373(7) 0.20061(9) 0.3973(2)
N2 N 0.45259(7) 0.02444(9) 0.2756(2)
N3 N 0.5000 0.12901(12) 0.2500
N4 N 0.5000 -0.22476(15) 0.2500
C1 C 0.34405(9) 0.32657(11) 0.7852(3)
C2 C 0.38482(10) 0.38919(13) 0.8293(4)
C3 C 0.42959(17) 0.3830(2) 1.0224(5)
H2 H 0.4087 0.3791 1.1187
H3 H 0.4549 0.4234 1.0473
H4 H 0.4540 0.3425 1.0257
C4 C 0.34541(15) 0.45196(15) 0.8166(5)
H5 H 0.3242 0.4489 0.9119
H6 H 0.3169 0.4541 0.6913
H7 H 0.3700 0.4930 0.8384
C5 C 0.41742(12) 0.39535(15) 0.6792(5)
H8 H 0.4436 0.4350 0.7062
H9 H 0.3887 0.4007 0.5552
H10 H 0.4409 0.3543 0.6798
C6 C 0.24807(11) 0.36043(13) 0.1744(4)
H11 H 0.2521 0.3413 0.0553
H12 H 0.2882 0.3702 0.2575
C7 C 0.21324(11) 0.42502(13) 0.1342(4)
H13 H 0.2335 0.4576 0.0741
H14 H 0.2096 0.4442 0.2523
H15 H 0.1738 0.4155 0.0500
C8 C 0.31539(9) 0.13246(11) 0.3994(3)
H16 H 0.2845 0.1085 0.4298
C9 C 0.36004(8) 0.09565(11) 0.3592(3)
H17 H 0.3600 0.0474 0.3640
C10 C 0.40516(8) 0.13012(10) 0.3116(3)
C11 C 0.40258(9) 0.20065(11) 0.3034(3)
H18 H 0.4319 0.2259 0.2676
C12 C 0.35660(10) 0.23357(11) 0.3480(3)
H19 H 0.3554 0.2818 0.3434
C13 C 0.45529(8) 0.09244(10) 0.2763(3)
C14 C 0.5000 -0.00718(15) 0.2500
C15 C 0.5000 -0.08231(15) 0.2500
C16 C 0.45488(9) -0.11867(11) 0.2916(3)
H20 H 0.4230 -0.0957 0.3193
C17 C 0.45712(10) -0.18927(12) 0.2919(3)
H21 H 0.4266 -0.2136 0.3236
N1B N 0.68627(7) 0.20061(9) 0.1027(2)
N2B N 0.54741(7) 0.02444(9) 0.2244(2)
C8B C 0.68461(9) 0.13246(11) 0.1006(3)
H16B H 0.7155 0.1085 0.0702
C9B C 0.63996(8) 0.09565(11) 0.1408(3)
H17B H 0.6400 0.0474 0.1360
C10B C 0.59484(8) 0.13012(10) 0.1884(3)
C11B C 0.59742(9) 0.20065(11) 0.1966(3)
H18B H 0.5681 0.2259 0.2324
C12B C 0.64340(10) 0.23357(11) 0.1520(3)
H19B H 0.6446 0.2818 0.1566
C13B C 0.54471(8) 0.09244(10) 0.2237(3)
C16B C 0.54512(9) -0.11867(11) 0.2084(3)
H20B H 0.5770 -0.0957 0.1807
C17B C 0.54288(10) -0.18927(12) 0.2081(3)
H21B H 0.5734 -0.2136 0.1764
O1E O 0.18929(6) 0.17753(7) 0.3814(2)
O2E O 0.15428(8) 0.21545(10) 0.0869(2)
C1E C 0.15595(9) 0.17343(11) 0.2148(3)
C2E C 0.11518(10) 0.11081(13) 0.1707(4)
C3E C 0.07041(17) 0.1170(2) -0.0224(5)
H2E H 0.0913 0.1209 -0.1187
H3E H 0.0451 0.0766 -0.0473
H4E H 0.0460 0.1575 -0.0257
C4E C 0.15459(15) 0.04804(15) 0.1834(5)
H5E H 0.1758 0.0511 0.0881
H6E H 0.1831 0.0459 0.3087
H7E H 0.1300 0.0070 0.1616
C5E C 0.08258(12) 0.10465(15) 0.3208(5)
H8E H 0.0564 0.0650 0.2938
H9E H 0.1113 0.0993 0.4448
H10E H 0.0591 0.1457 0.3202
O3E O 0.28028(7) 0.18840(8) 0.7366(2)
H1E H 0.3019 0.2139 0.8188
C6E C 0.25193(11) 0.13957(13) 0.8256(4)
H11E H 0.2479 0.1587 0.9447
H12E H 0.2118 0.1298 0.7425
C7E C 0.28676(11) 0.07498(13) 0.8658(4)
H13E H 0.2665 0.0424 0.9259
H14E H 0.2904 0.0558 0.7477
H15E H 0.3262 0.0845 0.9500
Ni1G Ni 0.7500 0.2500 0.0000
N1E N 0.18627(7) 0.29939(9) 0.6027(2)
loop_
_geom_bond_atom_site_label_1
_geom_bond_atom_site_label_2
_geom_bond_site_symmetry_1
_geom_bond_site_symmetry_2
Ni1 O1 1_555 1_555
O1 C1 1_555 1_555
O2 C1 1_555 1_555
O3 Ni1 1_555 1_555
H1 O3 1_555 1_555
N1 Ni1 1_555 1_555
N2 C13 1_555 1_555
N3 C13 1_555 1_555
N4 C17 1_555 1_555
C1 C2 1_555 1_555
C2 C3 1_555 1_555
C3 H2 1_555 1_555
H3 C3 1_555 1_555
H4 C3 1_555 1_555
C4 C2 1_555 1_555
H5 C4 1_555 1_555
H6 C4 1_555 1_555
H7 C4 1_555 1_555
C5 C2 1_555 1_555
H8 C5 1_555 1_555
H9 C5 1_555 1_555
H10 C5 1_555 1_555
C6 O3 1_555 1_555
H11 C6 1_555 1_555
H12 C6 1_555 1_555
C7 C6 1_555 1_555
H13 C7 1_555 1_555
H14 C7 1_555 1_555
H15 C7 1_555 1_555
C8 N1 1_555 1_555
H16 C8 1_555 1_555
C9 C8 1_555 1_555
H17 C9 1_555 1_555
C10 C9 1_555 1_555
C11 C10 1_555 1_555
H18 C11 1_555 1_555
C12 N1 1_555 1_555
H19 C12 1_555 1_555
C13 C10 1_555 1_555
C14 N2 1_555 1_555
C15 C14 1_555 1_555
C16 C15 1_555 1_555
H20 C16 1_555 1_555
C17 C16 1_555 1_555
H21 C17 1_555 1_555
N1B C8B 1_555 1_555
N2B C14 1_555 1_555
C8B H16B 1_555 1_555
C9B C8B 1_555 1_555
H17B C9B 1_555 1_555
C10B C9B 1_555 1_555
C11B C10B 1_555 1_555
H18B C11B 1_555 1_555
C12B N1B 1_555 1_555
H19B C12B 1_555 1_555
C13B N3 1_555 1_555
C16B C15 1_555 1_555
H20B C16B 1_555 1_555
C17B N4 1_555 1_555
H21B C17B 1_555 1_555
O1E Ni1 1_555 1_555
O2E C1E 1_555 1_555
C1E O1E 1_555 1_555
C2E C1E 1_555 1_555
C3E C2E 1_555 1_555
H2E C3E 1_555 1_555
H3E C3E 1_555 1_555
H4E C3E 1_555 1_555
C4E C2E 1_555 1_555
H5E C4E 1_555 1_555
H6E C4E 1_555 1_555
H7E C4E 1_555 1_555
C5E C2E 1_555 1_555
H8E C5E 1_555 1_555
H9E C5E 1_555 1_555
H10E C5E 1_555 1_555
O3E Ni1 1_555 1_555
H1E O3E 1_555 1_555
C6E O3E 1_555 1_555
H11E C6E 1_555 1_555
H12E C6E 1_555 1_555
C7E C6E 1_555 1_555
H13E C7E 1_555 1_555
H14E C7E 1_555 1_555
H15E C7E 1_555 1_555
Ni1G N1B 1_555 1_555
N1E Ni1 1_555 1_555
C11 C12 1_555 1_555
N2B C13B 1_555 1_555
C10B C13B 1_555 1_555
C11B C12B 1_555 1_555
C16B C17B 1_555 1_555

#END
