
#######################################################################
#
#                 Cambridge Crystallographic Data Centre
#                                CCDC 
#
#######################################################################
#
# If this CIF has been generated from an entry in the Cambridge 
# Structural Database, then it will include bibliographic, chemical, 
# crystal, experimental, refinement or atomic coordinate data resulting 
# from the CCDC's data processing and validation procedures.
#
#######################################################################

data_YIXXOU
_symmetry_cell_setting           monoclinic
_symmetry_space_group_name_H-M   'P 21/c'
_symmetry_Int_Tables_number      14
_space_group_name_Hall           '-P 2ybc'
loop_
_symmetry_equiv_pos_site_id
_symmetry_equiv_pos_as_xyz
1 x,y,z
2 -x,1/2+y,1/2-z
3 -x,-y,-z
4 x,1/2-y,1/2+z
_cell_length_a                   8.5118(7)
_cell_length_b                   22.703(2)
_cell_length_c                   11.3906(8)
_cell_angle_alpha                90
_cell_angle_beta                 105.401(7)
_cell_angle_gamma                90
_cell_volume                     2122.12
loop_
_atom_site_label
_atom_site_type_symbol
_atom_site_fract_x
_atom_site_fract_y
_atom_site_fract_z
Co1 Co 0.54510(5) 0.10580(2) 0.44180(4)
O1 O 0.7502(3) 0.05491(11) 0.4872(2)
O2 O 0.7957(3) 0.12819(11) 0.6172(2)
O3 O 1.4107(2) 0.12287(11) 0.55859(19)
O4 O 1.2658(3) 0.16260(11) 0.3874(2)
N1 N 0.7435(3) 0.26165(12) 0.3472(2)
N2 N 0.6156(3) 0.17883(12) 0.3654(2)
N3 N 0.6265(3) 0.46528(12) 0.2934(2)
N4 N 0.5755(3) 0.54706(13) 0.1854(2)
C1 C 1.1237(3) 0.10093(16) 0.7187(3)
C2 C 0.7093(4) 0.39171(15) 0.4587(3)
C3 C 0.8425(4) 0.08380(17) 0.5733(3)
C4 C 1.2878(4) 0.15176(15) 0.4965(3)
C5 C 1.1821(4) 0.15502(16) 0.6895(3)
C6 C 0.6840(4) 0.42420(17) 0.5558(3)
H1 H 0.6041 0.4533 0.5413
C7 C 0.8277(4) 0.34796(15) 0.4810(3)
C8 C 0.6358(4) 0.25075(17) 0.2361(3)
H2 H 0.6190 0.2737 0.1662
C9 C 0.5176(4) 0.49539(15) 0.2071(3)
H3 H 0.4143 0.4815 0.1675
C10 C 0.9196(4) 0.33825(17) 0.6005(3)
H4 H 0.9996 0.3093 0.6162
C11 C 0.7261(4) 0.21748(15) 0.4203(3)
H5 H 0.7858 0.2144 0.5012
C12 C 0.5594(4) 0.20026(17) 0.2487(3)
H6 H 0.4797 0.1823 0.1872
C13 C 1.2616(4) 0.19230(17) 0.7847(3)
H7 H 1.2958 0.2293 0.7664
C14 C 0.7631(4) 0.49983(18) 0.3270(3)
H8 H 0.8597 0.4905 0.3845
C15 C 0.8936(4) 0.37086(19) 0.6955(3)
H9 H 0.9558 0.3638 0.7746
C16 C 1.1569(4) 0.08454(18) 0.8408(3)
H10 H 1.1217 0.0480 0.8608
C17 C 1.0196(4) 0.06203(17) 0.6212(3)
H11 H 1.0185 0.0226 0.6537
H12 H 1.0687 0.0598 0.5536
C18 C 0.7317(4) 0.54977(17) 0.2614(3)
H13 H 0.8036 0.5811 0.2664
C19 C 1.2902(4) 0.1755(2) 0.9040(3)
H14 H 1.3432 0.2010 0.9658
C20 C 0.8612(4) 0.31006(15) 0.3808(3)
H15 H 0.8560 0.3343 0.3098
H16 H 0.9704 0.2939 0.4080
C21 C 0.6049(4) 0.40478(15) 0.3316(3)
H17 H 0.6328 0.3775 0.2747
H18 H 0.4913 0.3986 0.3290
C22 C 1.1627(4) 0.17425(18) 0.5611(3)
H19 H 1.1650 0.2170 0.5599
H20 H 1.0554 0.1621 0.5134
C23 C 1.2405(4) 0.1212(2) 0.9323(3)
H21 H 1.2633 0.1091 1.0131
C24 C 0.7758(5) 0.41381(18) 0.6733(3)
H22 H 0.7580 0.4358 0.7374
Co1_2 Co 1.54510(5) 0.10580(2) 0.44180(4)
Co1A Co 0.45490(5) 0.60580(2) 0.05820(4)
O3_2 O 0.4107(2) 0.12287(11) 0.55859(19)
N4A N 0.4245(3) 0.04706(13) 0.3146(2)
loop_
_geom_bond_atom_site_label_1
_geom_bond_atom_site_label_2
_geom_bond_site_symmetry_1
_geom_bond_site_symmetry_2
Co1 O1 1_555 1_555
O1 C3 1_555 1_555
O2 C3 1_555 1_555
O3 C4 1_555 1_555
O4 C4 1_555 1_555
N1 C8 1_555 1_555
N2 Co1 1_555 1_555
N3 C9 1_555 1_555
N4 C9 1_555 1_555
C1 C5 1_555 1_555
C2 C6 1_555 1_555
C3 C17 1_555 1_555
C4 C22 1_555 1_555
C5 C13 1_555 1_555
C6 H1 1_555 1_555
C7 C2 1_555 1_555
C8 H2 1_555 1_555
C9 H3 1_555 1_555
C10 C7 1_555 1_555
H4 C10 1_555 1_555
C11 N1 1_555 1_555
H5 C11 1_555 1_555
C12 N2 1_555 1_555
H6 C12 1_555 1_555
C13 H7 1_555 1_555
C14 N3 1_555 1_555
H8 C14 1_555 1_555
C15 C10 1_555 1_555
H9 C15 1_555 1_555
C16 C1 1_555 1_555
H10 C16 1_555 1_555
C17 C1 1_555 1_555
H11 C17 1_555 1_555
H12 C17 1_555 1_555
C18 N4 1_555 1_555
H13 C18 1_555 1_555
C19 C13 1_555 1_555
H14 C19 1_555 1_555
C20 N1 1_555 1_555
H15 C20 1_555 1_555
H16 C20 1_555 1_555
C21 N3 1_555 1_555
H17 C21 1_555 1_555
H18 C21 1_555 1_555
C22 C5 1_555 1_555
H19 C22 1_555 1_555
H20 C22 1_555 1_555
C23 C16 1_555 1_555
H21 C23 1_555 1_555
C24 C6 1_555 1_555
H22 C24 1_555 1_555
Co1_2 O3 1_555 1_555
Co1A N4 1_555 1_555
O3_2 Co1 1_555 1_555
N4A Co1 1_555 1_555
N2 C11 1_555 1_555
C2 C21 1_555 1_555
C7 C20 1_555 1_555
C8 C12 1_555 1_555
C14 C18 1_555 1_555
C15 C24 1_555 1_555
C19 C23 1_555 1_555

#END
