
#######################################################################
#
#                 Cambridge Crystallographic Data Centre
#                                CCDC 
#
#######################################################################
#
# If this CIF has been generated from an entry in the Cambridge 
# Structural Database, then it will include bibliographic, chemical, 
# crystal, experimental, refinement or atomic coordinate data resulting 
# from the CCDC's data processing and validation procedures.
#
#######################################################################

data_YIXYUB
_symmetry_cell_setting           tetragonal
_symmetry_space_group_name_H-M   'P 42/n'
_symmetry_Int_Tables_number      86
_space_group_name_Hall           '-P 4bc'
loop_
_symmetry_equiv_pos_site_id
_symmetry_equiv_pos_as_xyz
1 x,y,z
2 -y,1/2+x,1/2+z
3 1/2+y,-x,1/2+z
4 1/2-x,1/2-y,z
5 -x,-y,-z
6 y,1/2-x,1/2-z
7 1/2-y,x,1/2-z
8 1/2+x,1/2+y,-z
_cell_length_a                   20.872(8)
_cell_length_b                   20.872(8)
_cell_length_c                   5.882(2)
_cell_angle_alpha                90
_cell_angle_beta                 90
_cell_angle_gamma                90
_cell_volume                     2562.44
loop_
_atom_site_label
_atom_site_type_symbol
_atom_site_fract_x
_atom_site_fract_y
_atom_site_fract_z
Cd1 Cd 0.32988(2) 0.76803(2) 0.04003(9)
O1 O 0.7011(2) 0.4044(2) 0.1544(8)
O2 O 0.6448(3) 0.4001(3) 0.4702(9)
O3 O 0.31242(19) 0.7666(2) -0.3346(8)
H1 H 0.345(3) 0.777(4) -0.411(14)
N1 N 0.4201(3) 0.7002(3) -0.0360(10)
N2 N 0.5057(3) 0.6593(3) -0.2176(12)
N3 N 0.4984(3) 0.6320(3) -0.0089(10)
C1 C 0.4472(3) 0.6567(3) 0.0951(13)
H2 H 0.4327 0.6449 0.2388
C2 C 0.4577(3) 0.7007(3) -0.2268(15)
H3 H 0.4503 0.7275 -0.3504
C3 C 0.5412(4) 0.5823(3) 0.0683(13)
C4 C 0.5364(5) 0.5594(5) 0.2789(16)
H4 H 0.5079 0.5773 0.3824
C5 C 0.5748(5) 0.5081(5) 0.3405(17)
H5 H 0.5710 0.4922 0.4876
C6 C 0.6170(3) 0.4801(3) 0.2009(12)
C7 C 0.6206(5) 0.5037(5) -0.0073(16)
H6 H 0.6491 0.4854 -0.1101
C8 C 0.5821(5) 0.5561(5) -0.0786(17)
H7 H 0.5855 0.5719 -0.2259
C9 C 0.6577(3) 0.4251(3) 0.2794(13)
Cd1A Cd 0.23197(2) 0.82988(2) -0.45997(9)
Cd1B Cd 0.26803(2) 0.67012(2) -0.45997(9)
Cd1F Cd 0.73197(2) 0.32988(2) 0.45997(9)
O1E O 0.4044(2) 0.7989(2) 0.3456(8)
O2E O 0.4001(3) 0.8552(3) 0.0298(9)
O3A O 0.2334(2) 0.81242(19) 0.1654(8)
O3B O 0.2666(2) 0.68758(19) 0.1654(8)
O4 O 0.610(2) 0.7584(16) 0.115(10)
H8 H 0.614(6) 0.761(4) 0.257(9)
H9 H 0.612(7) 0.793(4) 0.040(12)
loop_
_geom_bond_atom_site_label_1
_geom_bond_atom_site_label_2
_geom_bond_site_symmetry_1
_geom_bond_site_symmetry_2
Cd1 O3 1_555 1_555
O1 C9 1_555 1_555
O2 C9 1_555 1_555
O3 H1 1_555 1_555
N1 Cd1 1_555 1_555
N2 N3 1_555 1_555
N3 C1 1_555 1_555
C1 N1 1_555 1_555
H2 C1 1_555 1_555
C2 N1 1_555 1_555
H3 C2 1_555 1_555
C3 N3 1_555 1_555
C4 C3 1_555 1_555
H4 C4 1_555 1_555
C5 C4 1_555 1_555
H5 C5 1_555 1_555
C6 C5 1_555 1_555
C7 C6 1_555 1_555
H6 C7 1_555 1_555
C8 C3 1_555 1_555
H7 C8 1_555 1_555
C9 C6 1_555 1_555
O4 H8 1_555 1_555
H9 O4 1_555 1_555
Cd1A O3 1_555 1_555
Cd1B O3 1_555 1_555
Cd1F O1 1_555 1_555
O1E Cd1 1_555 1_555
O2E Cd1 1_555 1_555
O3A Cd1 1_555 1_555
O3B Cd1 1_555 1_555
O2 Cd1F 1_555 1_555
N2 C2 1_555 1_555
C7 C8 1_555 1_555

#END
