
#######################################################################
#
#                 Cambridge Crystallographic Data Centre
#                                CCDC 
#
#######################################################################
#
# If this CIF has been generated from an entry in the Cambridge 
# Structural Database, then it will include bibliographic, chemical, 
# crystal, experimental, refinement or atomic coordinate data resulting 
# from the CCDC's data processing and validation procedures.
#
#######################################################################

data_YIXYEL
_symmetry_cell_setting           monoclinic
_symmetry_space_group_name_H-M   'P 21/n'
_symmetry_Int_Tables_number      14
_space_group_name_Hall           '-P 2yn'
loop_
_symmetry_equiv_pos_site_id
_symmetry_equiv_pos_as_xyz
1 x,y,z
2 1/2-x,1/2+y,1/2-z
3 -x,-y,-z
4 1/2+x,1/2-y,1/2+z
_cell_length_a                   13.1976(9)
_cell_length_b                   10.4914(7)
_cell_length_c                   20.3760(15)
_cell_angle_alpha                90
_cell_angle_beta                 108.808(8)
_cell_angle_gamma                90
_cell_volume                     2670.64
loop_
_atom_site_label
_atom_site_type_symbol
_atom_site_fract_x
_atom_site_fract_y
_atom_site_fract_z
Co1 Co 0.58624(3) 0.25744(3) 0.445670(15)
O1 O 0.19902(13) 0.19066(17) 0.05250(8)
N1 N 0.30725(15) 0.33560(19) 0.49825(9)
O2 O 0.18035(14) 0.38063(16) 0.00720(9)
O3 O 0.54447(15) 0.42940(17) 0.38385(9)
O4 O 0.68835(14) 0.3260(2) 0.38919(9)
C1 C 0.58220(18) 0.4333(2) 0.23078(11)
N2 N 0.45902(16) 0.27466(19) 0.48453(10)
N3 N 0.06490(19) 0.4807(2) 0.20321(10)
C2 C 0.12236(19) 0.3938(2) 0.43116(13)
N4 N 0.00419(16) 0.6433(2) 0.13415(10)
C3 C 0.40714(18) 0.3717(2) 0.13887(11)
C4 C 0.46087(18) 0.4233(2) 0.21264(11)
H1 H 0.4319 0.5068 0.2166
H2 H 0.4442 0.3673 0.2456
C5 C 0.0509(2) 0.3686(2) 0.30675(14)
C6 C 0.39573(19) 0.3709(2) 0.48406(12)
H3 H 0.4104 0.4545 0.4749
C7 C 0.0201(2) 0.3842(2) 0.43426(16)
H4 H 0.0088 0.3878 0.4770
C8 C 0.6226(2) 0.4113(2) 0.36213(12)
C9 C 0.21908(19) 0.3080(3) 0.05850(13)
C10 C 0.6260(2) 0.3008(3) 0.22399(14)
H5 H 0.6100 0.2427 0.2563
H6 H 0.7032 0.3049 0.2351
C11 C 0.2161(2) 0.4166(2) 0.49516(13)
H7 H 0.2376 0.5052 0.4964
H8 H 0.1946 0.4007 0.5357
C12 C 0.6345(2) 0.4913(2) 0.30362(11)
H9 H 0.7101 0.5040 0.3109
H10 H 0.6029 0.5743 0.3051
C13 C 0.5541(3) 0.4733(3) 0.10472(14)
C14 C 0.1367(2) 0.3850(2) 0.36664(13)
H11 H 0.2054 0.3902 0.3637
C15 C 0.4544(2) 0.2417(2) 0.13311(14)
H12 H 0.4224 0.2088 0.0865
H13 H 0.4382 0.1828 0.1651
C16 C 0.4059(2) 0.1704(3) 0.49853(14)
H14 H 0.4311 0.0871 0.5020
C17 C -0.0185(2) 0.5299(3) 0.15287(13)
H15 H -0.0840 0.4890 0.1337
C18 C -0.0495(3) 0.3634(3) 0.31153(19)
H16 H -0.1078 0.3555 0.2713
C19 C 0.1447(2) 0.5682(3) 0.21782(13)
H17 H 0.2122 0.5612 0.2508
C20 C 0.1070(2) 0.6669(3) 0.17522(12)
H18 H 0.1451 0.7407 0.1738
C21 C 0.6055(2) 0.5228(3) 0.17815(13)
H19 H 0.5779 0.6071 0.1822
H20 H 0.6823 0.5297 0.1880
C22 C -0.0666(2) 0.3693(3) 0.3740(2)
H21 H -0.1357 0.3635 0.3763
C23 C 0.5752(2) 0.2517(3) 0.14973(17)
C24 C 0.2865(2) 0.3635(3) 0.12689(12)
H22 H 0.2757 0.3126 0.1638
H23 H 0.2605 0.4487 0.1308
C25 C 0.0684(3) 0.3568(3) 0.23709(15)
H24 H 0.1374 0.3173 0.2435
H25 H 0.0137 0.3018 0.2073
C26 C 0.4337(2) 0.4630(3) 0.08858(12)
H26 H 0.4013 0.4325 0.0415
H27 H 0.4044 0.5465 0.0921
C27 C 0.3132(2) 0.2056(3) 0.50650(14)
H28 H 0.2629 0.1527 0.5158
C28 C 0.6001(3) 0.3429(4) 0.09872(17)
H29 H 0.6770 0.3492 0.1088
H30 H 0.5691 0.3109 0.0518
H31 H 0.606(2) 0.169(3) 0.1478(13)
H32 H 0.570(2) 0.525(3) 0.0721(15)
Co1A Co -0.08624(3) 0.75744(3) 0.054330(15)
Co1C Co 0.08624(3) 0.24256(3) -0.054330(15)
O1C O 0.69902(13) 0.30934(17) 0.55250(8)
O2C O 0.68035(14) 0.11937(16) 0.50720(9)
N4A N 0.49581(16) 0.1433(2) 0.36585(10)
O5 O 0.3657(2) 0.5866(3) 0.33714(13)
H33 H 0.351(3) 0.619(3) 0.370(2)
H34 H 0.421(3) 0.553(3) 0.3534(18)
loop_
_geom_bond_atom_site_label_1
_geom_bond_atom_site_label_2
_geom_bond_site_symmetry_1
_geom_bond_site_symmetry_2
Co1 O3 1_555 1_555
O1 C9 1_555 1_555
N1 C6 1_555 1_555
O2 C9 1_555 1_555
O3 C8 1_555 1_555
O4 Co1 1_555 1_555
C1 C4 1_555 1_555
N2 Co1 1_555 1_555
N3 C17 1_555 1_555
C2 C7 1_555 1_555
N4 C17 1_555 1_555
C3 C4 1_555 1_555
C4 H1 1_555 1_555
H2 C4 1_555 1_555
C5 C14 1_555 1_555
C6 N2 1_555 1_555
H3 C6 1_555 1_555
C7 H4 1_555 1_555
C8 O4 1_555 1_555
C9 C24 1_555 1_555
C10 C1 1_555 1_555
H5 C10 1_555 1_555
H6 C10 1_555 1_555
C11 N1 1_555 1_555
H7 C11 1_555 1_555
H8 C11 1_555 1_555
C12 C1 1_555 1_555
H9 C12 1_555 1_555
H10 C12 1_555 1_555
C13 C21 1_555 1_555
C14 C2 1_555 1_555
H11 C14 1_555 1_555
C15 C3 1_555 1_555
H12 C15 1_555 1_555
H13 C15 1_555 1_555
C16 N2 1_555 1_555
H14 C16 1_555 1_555
C17 H15 1_555 1_555
C18 C5 1_555 1_555
H16 C18 1_555 1_555
C19 N3 1_555 1_555
H17 C19 1_555 1_555
C20 N4 1_555 1_555
H18 C20 1_555 1_555
C21 C1 1_555 1_555
H19 C21 1_555 1_555
H20 C21 1_555 1_555
C22 C7 1_555 1_555
H21 C22 1_555 1_555
C23 C10 1_555 1_555
C24 C3 1_555 1_555
H22 C24 1_555 1_555
H23 C24 1_555 1_555
C25 N3 1_555 1_555
H24 C25 1_555 1_555
H25 C25 1_555 1_555
C26 C3 1_555 1_555
H26 C26 1_555 1_555
H27 C26 1_555 1_555
C27 N1 1_555 1_555
H28 C27 1_555 1_555
C28 C13 1_555 1_555
H29 C28 1_555 1_555
H30 C28 1_555 1_555
H31 C23 1_555 1_555
H32 C13 1_555 1_555
O5 H33 1_555 1_555
H34 O5 1_555 1_555
Co1A N4 1_555 1_555
Co1C O1 1_555 1_555
O1C Co1 1_555 1_555
O2C Co1 1_555 1_555
N4A Co1 1_555 1_555
O2 Co1C 1_555 1_555
C2 C11 1_555 1_555
C5 C25 1_555 1_555
C8 C12 1_555 1_555
C13 C26 1_555 1_555
C15 C23 1_555 1_555
C16 C27 1_555 1_555
C18 C22 1_555 1_555
C19 C20 1_555 1_555
C23 C28 1_555 1_555

#END
