
#######################################################################
#
#                 Cambridge Crystallographic Data Centre
#                                CCDC 
#
#######################################################################
#
# If this CIF has been generated from an entry in the Cambridge 
# Structural Database, then it will include bibliographic, chemical, 
# crystal, experimental, refinement or atomic coordinate data resulting 
# from the CCDC's data processing and validation procedures.
#
#######################################################################

data_YIYGUI
_symmetry_cell_setting           orthorhombic
_symmetry_space_group_name_H-M   'P 21 21 21'
_symmetry_Int_Tables_number      19
_space_group_name_Hall           'P 2ac 2ab'
loop_
_symmetry_equiv_pos_site_id
_symmetry_equiv_pos_as_xyz
1 x,y,z
2 1/2-x,-y,1/2+z
3 1/2+x,1/2-y,-z
4 -x,1/2+y,1/2-z
_cell_length_a                   13.063(3)
_cell_length_b                   18.689(5)
_cell_length_c                   8.817(3)
_cell_angle_alpha                90
_cell_angle_beta                 90
_cell_angle_gamma                90
_cell_volume                     2152.53
loop_
_atom_site_label
_atom_site_type_symbol
_atom_site_fract_x
_atom_site_fract_y
_atom_site_fract_z
Ag1 Ag -0.48677(4) 0.62881(4) 0.23608(9)
O1 O -0.4992(4) 0.4107(3) 0.1423(8)
O2 O -0.5237(5) 0.3060(3) 0.2729(9)
N1 N -0.3214(4) 0.6318(3) 0.2402(7)
N2 N -0.3538(4) 0.1130(3) 0.3114(9)
C1 C -0.2748(6) 0.6884(4) 0.299(1)
C2 C -0.1704(7) 0.6908(5) 0.323(1)
C3 C -0.1134(6) 0.6338(5) 0.282(1)
C4 C -0.1609(6) 0.5743(4) 0.221(1)
C5 C -0.2650(5) 0.5740(4) 0.1986(8)
C6 C -0.3203(7) 0.5095(5) 0.140(1)
C7 C -0.3505(6) 0.4583(3) 0.267(1)
C8 C -0.4026(6) 0.3922(4) 0.211(1)
C9 C -0.5601(8) 0.3492(6) 0.158(2)
C10 C -0.4330(7) 0.3387(4) 0.331(1)
C11 C -0.3557(9) 0.2811(5) 0.372(1)
C12 C -0.3205(7) 0.2363(4) 0.238(1)
C13 C -0.2834(6) 0.1639(4) 0.295(1)
C14 C -0.1832(7) 0.1491(5) 0.336(2)
C15 C -0.1535(7) 0.0857(6) 0.389(2)
C16 C -0.2251(9) 0.0323(6) 0.400(2)
C17 C -0.3239(7) 0.0483(5) 0.361(1)
H1 H -0.328(6) 0.722(4) 0.378(8)
H2 H -0.140(8) 0.736(5) 0.37(1)
H3 H -0.053(8) 0.646(5) 0.28(1)
H4 H -0.128(5) 0.533(4) 0.203(9)
H5 H -0.279(5) 0.484(4) 0.100(8)
H6 H -0.372(7) 0.521(4) 0.09(1)
H7 H -0.395(5) 0.481(4) 0.346(8)
H8 H -0.284(7) 0.444(4) 0.34(1)
H9 H -0.371(4) 0.366(3) 0.120(7)
H10 H -0.589(7) 0.330(5) 0.07(1)
H11 H -0.6291 0.3714 0.2107
H12 H -0.450(6) 0.360(4) 0.393(9)
H13 H -0.388(8) 0.254(6) 0.46(1)
H14 H -0.30(1) 0.287(8) 0.42(2)
H15 H -0.263(7) 0.263(5) 0.20(1)
H16 H -0.374(5) 0.232(3) 0.164(8)
H17 H -0.111(6) 0.186(4) 0.332(9)
H18 H -0.0776 0.0771 0.4149
H19 H -0.200(7) -0.005(5) 0.43(1)
H20 H -0.369(5) 0.017(3) 0.369(8)
N2C N -0.6462(4) 0.6130(3) 0.1886(9)
Ag1C Ag -0.51323(4) 0.12881(4) 0.26392(9)
S1 S -0.4572(2) 0.6308(1) 0.6144(3)
F1 F -0.6245(7) 0.6341(4) 0.769(1)
F2 F -0.5150(9) 0.5604(4) 0.8506(9)
F3 F -0.491(1) 0.6793(5) 0.875(1)
O3 O -0.4800(8) 0.6964(4) 0.553(1)
O4 O -0.501(1) 0.5649(5) 0.5343(9)
O5 O -0.3542(6) 0.6208(4) 0.655(2)
C18 C -0.526(1) 0.6230(6) 0.786(1)
loop_
_geom_bond_atom_site_label_1
_geom_bond_atom_site_label_2
_geom_bond_site_symmetry_1
_geom_bond_site_symmetry_2
Ag1 N1 1_555 1_555
O1 C8 1_555 1_555
O2 C9 1_555 1_555
N1 C1 1_555 1_555
N2 C13 1_555 1_555
C1 C2 1_555 1_555
C2 C3 1_555 1_555
C3 C4 1_555 1_555
C4 C5 1_555 1_555
C5 N1 1_555 1_555
C6 C5 1_555 1_555
C7 C6 1_555 1_555
C8 C7 1_555 1_555
C9 O1 1_555 1_555
C10 O2 1_555 1_555
C11 C10 1_555 1_555
C12 C11 1_555 1_555
C13 C12 1_555 1_555
C14 C13 1_555 1_555
C15 C14 1_555 1_555
C16 C15 1_555 1_555
C17 N2 1_555 1_555
H1 C1 1_555 1_555
H2 C2 1_555 1_555
H3 C3 1_555 1_555
H4 C4 1_555 1_555
H5 C6 1_555 1_555
H6 C6 1_555 1_555
H7 C7 1_555 1_555
H8 C7 1_555 1_555
H9 C8 1_555 1_555
H10 C9 1_555 1_555
H11 C9 1_555 1_555
H12 C10 1_555 1_555
H13 C11 1_555 1_555
H14 C11 1_555 1_555
H15 C12 1_555 1_555
H16 C12 1_555 1_555
H17 C14 1_555 1_555
H18 C15 1_555 1_555
H19 C16 1_555 1_555
H20 C17 1_555 1_555
S1 O3 1_555 1_555
F1 C18 1_555 1_555
F2 C18 1_555 1_555
F3 C18 1_555 1_555
O4 S1 1_555 1_555
O5 S1 1_555 1_555
C18 S1 1_555 1_555
N2C Ag1 1_555 1_555
Ag1C N2 1_555 1_555
C8 C10 1_555 1_555
C16 C17 1_555 1_555

#END
