
#######################################################################
#
#                 Cambridge Crystallographic Data Centre
#                                CCDC 
#
#######################################################################
#
# If this CIF has been generated from an entry in the Cambridge 
# Structural Database, then it will include bibliographic, chemical, 
# crystal, experimental, refinement or atomic coordinate data resulting 
# from the CCDC's data processing and validation procedures.
#
#######################################################################

data_YIYJOF
_symmetry_cell_setting           triclinic
_symmetry_space_group_name_H-M   'P -1'
_symmetry_Int_Tables_number      2
_space_group_name_Hall           '-P 1'
loop_
_symmetry_equiv_pos_site_id
_symmetry_equiv_pos_as_xyz
1 x,y,z
2 -x,-y,-z
_cell_length_a                   8.2327(13)
_cell_length_b                   8.6177(14)
_cell_length_c                   9.736(2)
_cell_angle_alpha                79.621(13)
_cell_angle_beta                 70.594(12)
_cell_angle_gamma                82.595(13)
_cell_volume                     639.061
loop_
_atom_site_label
_atom_site_type_symbol
_atom_site_fract_x
_atom_site_fract_y
_atom_site_fract_z
Nd1 Nd 0.00024(2) 0.23604(1) 0.07544(1)
Cl1 Cl -0.06177(9) 0.47506(7) -0.14083(7)
Cl2 Cl -0.32070(9) 0.23917(9) 0.25203(8)
Cl3 Cl -0.11403(9) 0.08393(8) -0.10872(7)
O1 O 0.30526(26) 0.25320(25) -0.07575(23)
O2 O 0.06244(25) 0.18197(2) 0.31228(21)
C1 C 0.35628(44) 0.18637(45) -0.21206(38)
C2 C 0.45955(46) 0.31200(53) -0.32402(38)
C3 C 0.55997(39) 0.36949(41) -0.23945(34)
C4 C 0.44612(40) 0.34271(44) -0.08056(36)
C5 C -0.03499(43) 0.25562(36) 0.44211(31)
C6 C 0.10004(41) 0.29359(38) 0.50285(33)
C7 C 0.23459(41) 0.15539(41) 0.46764(33)
C8 C 0.23798(39) 0.13497(42) 0.31584(32)
H1 H 0.2555(63) 0.1603(58) -0.2314(52)
H2 H 0.4289(47) 0.0930(44) -0.1934(39)
H3 H 0.3979(72) 0.3990(69) -0.3546(60)
H4 H 0.5431(54) 0.2739(52) -0.4236(45)
H5 H 0.5731(58) 0.4785(60) -0.2615(51)
H6 H 0.6378(66) 0.3014(63) -0.2447(56)
H7 H 0.5047(56) 0.2879(53) -0.0113(51)
H8 H 0.3998(54) 0.4301(53) -0.0265(48)
H9 H -0.1180(44) 0.1758(41) 0.5182(38)
H10 H -0.0935(50) 0.3309(50) 0.4218(42)
H11 H 0.0468(56) 0.2826(53) 0.6086(49)
H12 H 0.1290(43) 0.3951(44) 0.4615(37)
H13 H 0.1914(46) 0.0595(45) 0.5346(40)
H14 H 0.3499(48) 0.1870(44) 0.4649(40)
H15 H 0.3069(44) 0.1985(41) 0.2509(38)
H16 H 0.2676(43) 0.0319(45) 0.3054(38)
Cl1A Cl 0.06177(9) 0.52494(7) 0.14083(7)
Cl3A Cl 0.11403(9) -0.08393(8) 0.10872(7)
Nd1A Nd -0.00024(2) 0.76396(1) -0.07544(1)
Nd1A_2 Nd -0.00024(2) -0.23604(1) -0.07544(1)
loop_
_geom_bond_atom_site_label_1
_geom_bond_atom_site_label_2
_geom_bond_site_symmetry_1
_geom_bond_site_symmetry_2
Nd1 Cl1 1_555 1_555
Cl1 Nd1A 1_555 1_555
Cl2 Nd1 1_555 1_555
Cl3 Nd1 1_555 1_555
O1 Nd1 1_555 1_555
O2 Nd1 1_555 1_555
C1 O1 1_555 1_555
C2 C1 1_555 1_555
C3 C2 1_555 1_555
C4 O1 1_555 1_555
C5 O2 1_555 1_555
C6 C5 1_555 1_555
C7 C6 1_555 1_555
C8 O2 1_555 1_555
H1 C1 1_555 1_555
H2 C1 1_555 1_555
H3 C2 1_555 1_555
H4 C2 1_555 1_555
H5 C3 1_555 1_555
H6 C3 1_555 1_555
H7 C4 1_555 1_555
H8 C4 1_555 1_555
H9 C5 1_555 1_555
H10 C5 1_555 1_555
H11 C6 1_555 1_555
H12 C6 1_555 1_555
H13 C7 1_555 1_555
H14 C7 1_555 1_555
H15 C8 1_555 1_555
H16 C8 1_555 1_555
Cl1A Nd1 1_555 1_555
Cl3A Nd1 1_555 1_555
Nd1A Cl1A 1_555 1_555
Nd1A_2 Cl3 1_555 1_555
C3 C4 1_555 1_555
C7 C8 1_555 1_555
Cl3A Nd1A_2 1_555 1_555

#END
