
#######################################################################
#
#                 Cambridge Crystallographic Data Centre
#                                CCDC 
#
#######################################################################
#
# If this CIF has been generated from an entry in the Cambridge 
# Structural Database, then it will include bibliographic, chemical, 
# crystal, experimental, refinement or atomic coordinate data resulting 
# from the CCDC's data processing and validation procedures.
#
#######################################################################

data_YIYJUL
_symmetry_cell_setting           triclinic
_symmetry_space_group_name_H-M   'P -1'
_symmetry_Int_Tables_number      2
_space_group_name_Hall           '-P 1'
loop_
_symmetry_equiv_pos_site_id
_symmetry_equiv_pos_as_xyz
1 x,y,z
2 -x,-y,-z
_cell_length_a                   8.2558(12)
_cell_length_b                   8.7154(10)
_cell_length_c                   9.7892(12)
_cell_angle_alpha                79.568(10)
_cell_angle_beta                 70.580(10)
_cell_angle_gamma                82.583(10)
_cell_volume                     651.5
loop_
_atom_site_label
_atom_site_type_symbol
_atom_site_fract_x
_atom_site_fract_y
_atom_site_fract_z
Ce1 Ce -0.00048(3) 0.23598(2) 0.07589(3)
Cl1 Cl -0.06262(15) 0.47549(12) -0.14175(12)
Cl2 Cl -0.32417(15) 0.23806(15) 0.25380(13)
Cl3 Cl -0.11370(15) 0.08418(12) -0.11076(12)
O1 O 0.30790(40) 0.25257(36) -0.07573(35)
O2 O 0.06185(37) 0.18197(34) 0.31469(32)
C1 C 0.35919(76) 0.18885(71) -0.21240(62)
C2 C 0.46163(77) 0.31242(81) -0.32397(64)
C3 C 0.56137(68) 0.36817(67) -0.23868(58)
C4 C 0.44950(66) 0.34130(71) -0.08159(59)
C5 C -0.03397(67) 0.25381(57) 0.44435(52)
C6 C 0.09978(68) 0.29144(59) 0.50412(58)
C7 C 0.23327(70) 0.15614(64) 0.46978(54)
C8 C 0.23791(63) 0.13511(65) 0.31907(57)
H1 H 0.2645(86) 0.1638(72) -0.2262(68)
H2 H 0.4277(82) 0.0805(77) -0.1947(67)
H3 H 0.3925(89) 0.3863(79) -0.3586(72)
H4 H 0.5341(86) 0.2593(76) -0.4093(75)
H5 H 0.5810(70) 0.4712(70) -0.2593(61)
H6 H 0.6625(86) 0.3098(73) -0.2630(69)
H7 H 0.5148(93) 0.2786(80) -0.0237(83)
H8 H 0.4016(83) 0.4516(78) -0.0356(73)
H9 H -0.1262(74) 0.1738(64) 0.5247(63)
H10 H -0.1062(64) 0.3327(59) 0.4175(52)
H11 H 0.0537(68) 0.2905(61) 0.6044(65)
H12 H 0.1558(59) 0.3849(57) 0.4472(51)
H13 H 0.1926(75) 0.0558(72) 0.5297(66)
H14 H 0.3416(72) 0.1647(57) 0.4716(55)
H15 H 0.3264(68) 0.2051(59) 0.2412(58)
H16 H 0.2649(71) 0.0234(70) 0.3129(62)
Ce1A Ce 0.00048(3) 0.76402(2) -0.07589(3)
Cl1A Cl 0.06262(15) 0.52451(12) 0.14175(12)
Ce1A_2 Ce 0.00048(3) -0.23598(2) -0.07589(3)
Cl3A Cl 0.11370(15) -0.08418(12) 0.11076(12)
loop_
_geom_bond_atom_site_label_1
_geom_bond_atom_site_label_2
_geom_bond_site_symmetry_1
_geom_bond_site_symmetry_2
Ce1 Cl1 1_555 1_555
Cl1 Ce1A 1_555 1_555
Cl2 Ce1 1_555 1_555
Cl3 Ce1 1_555 1_555
O1 Ce1 1_555 1_555
O2 Ce1 1_555 1_555
C1 O1 1_555 1_555
C2 C1 1_555 1_555
C3 C2 1_555 1_555
C4 O1 1_555 1_555
C5 O2 1_555 1_555
C6 C5 1_555 1_555
C7 C6 1_555 1_555
C8 O2 1_555 1_555
H1 C1 1_555 1_555
H2 C1 1_555 1_555
H3 C2 1_555 1_555
H4 C2 1_555 1_555
H5 C3 1_555 1_555
H6 C3 1_555 1_555
H7 C4 1_555 1_555
H8 C4 1_555 1_555
H9 C5 1_555 1_555
H10 C5 1_555 1_555
H11 C6 1_555 1_555
H12 C6 1_555 1_555
H13 C7 1_555 1_555
H14 C7 1_555 1_555
H15 C8 1_555 1_555
H16 C8 1_555 1_555
Ce1A Cl1A 1_555 1_555
Cl1A Ce1 1_555 1_555
Ce1A_2 Cl3 1_555 1_555
Cl3A Ce1 1_555 1_555
C3 C4 1_555 1_555
C7 C8 1_555 1_555
Ce1A_2 Cl3A 1_555 1_555

#END
