
#######################################################################
#
#                 Cambridge Crystallographic Data Centre
#                                CCDC 
#
#######################################################################
#
# If this CIF has been generated from an entry in the Cambridge 
# Structural Database, then it will include bibliographic, chemical, 
# crystal, experimental, refinement or atomic coordinate data resulting 
# from the CCDC's data processing and validation procedures.
#
#######################################################################

data_YIYPUS
_symmetry_cell_setting           monoclinic
_symmetry_space_group_name_H-M   'P 21/n'
_symmetry_Int_Tables_number      14
_space_group_name_Hall           '-P 2yn'
loop_
_symmetry_equiv_pos_site_id
_symmetry_equiv_pos_as_xyz
1 x,y,z
2 1/2-x,1/2+y,1/2-z
3 -x,-y,-z
4 1/2+x,1/2-y,1/2+z
_cell_length_a                   8.003(1)
_cell_length_b                   16.571(2)
_cell_length_c                   10.314(1)
_cell_angle_alpha                90
_cell_angle_beta                 99.321(3)
_cell_angle_gamma                90
_cell_volume                     1349.76
loop_
_atom_site_label
_atom_site_type_symbol
_atom_site_fract_x
_atom_site_fract_y
_atom_site_fract_z
Pb1 Pb 0.738243(15) 0.040415(7) 0.973565(12)
O1 O 1.0453(4) 0.1198(3) 0.9184(4)
O2 O 0.7840(4) 0.14051(18) 0.8162(3)
O3 O 0.4676(3) 0.03936(14) 0.8672(3)
N1 N 0.7146(4) -0.04490(16) 0.7706(3)
N2 N 1.1175(4) 0.33010(18) 0.5818(3)
C1 C 0.5537(5) -0.04546(19) 0.7022(3)
C2 C 0.2645(5) -0.0015(2) 0.6860(4)
H1 H 0.1800 0.0271 0.7181
C3 C 0.2235(6) -0.0454(2) 0.5698(5)
H2 H 0.1125 -0.0446 0.5260
C4 C 0.3421(6) -0.0895(2) 0.5183(4)
H3 H 0.3117 -0.1183 0.4407
C5 C 0.5104(5) -0.0907(2) 0.5845(4)
C6 C 0.6409(6) -0.1357(2) 0.5429(4)
H4 H 0.6178 -0.1666 0.4667
C7 C 0.8005(6) -0.1349(3) 0.6123(5)
H5 H 0.8865 -0.1648 0.5846
C8 C 0.4276(4) 0.0004(2) 0.7543(3)
C9 C 0.8919(5) 0.2574(2) 0.6529(4)
H6 H 0.7759 0.2484 0.6450
C10 C 0.8325(5) -0.0876(2) 0.7271(4)
H7 H 0.9419 -0.0865 0.7742
C11 C 1.0032(5) 0.2140(2) 0.7423(4)
C12 C 0.9401(5) 0.1528(2) 0.8338(4)
C13 C 1.1739(5) 0.2283(3) 0.7477(4)
H8 H 1.2537 0.1986 0.8038
C14 C 0.9538(5) 0.3147(2) 0.5748(4)
H9 H 0.8771 0.3435 0.5148
C15 C 1.2239(5) 0.2876(3) 0.6680(4)
H10 H 1.3390 0.2984 0.6750
Pb1B Pb 0.261757(15) -0.040415(7) 1.026435(12)
Pb1C Pb 1.238243(15) 0.459585(7) 0.473565(12)
O3B O 0.5324(3) -0.03936(14) 1.1328(3)
N2C N 0.6175(4) 0.16990(18) 1.0818(3)
loop_
_geom_bond_atom_site_label_1
_geom_bond_atom_site_label_2
_geom_bond_site_symmetry_1
_geom_bond_site_symmetry_2
Pb1 O1 1_555 1_555
O1 C12 1_555 1_555
O2 Pb1 1_555 1_555
O3 Pb1 1_555 1_555
N1 Pb1 1_555 1_555
N2 C14 1_555 1_555
C1 N1 1_555 1_555
C2 H1 1_555 1_555
C3 C2 1_555 1_555
H2 C3 1_555 1_555
C4 C3 1_555 1_555
H3 C4 1_555 1_555
C5 C1 1_555 1_555
C6 C5 1_555 1_555
H4 C6 1_555 1_555
C7 C6 1_555 1_555
H5 C7 1_555 1_555
C8 O3 1_555 1_555
C9 H6 1_555 1_555
C10 N1 1_555 1_555
H7 C10 1_555 1_555
C11 C9 1_555 1_555
C12 O2 1_555 1_555
C13 C11 1_555 1_555
H8 C13 1_555 1_555
C14 C9 1_555 1_555
H9 C14 1_555 1_555
C15 N2 1_555 1_555
H10 C15 1_555 1_555
Pb1B O3 1_555 1_555
Pb1C N2 1_555 1_555
O3B Pb1 1_555 1_555
N2C Pb1 1_555 1_555
C1 C8 1_555 1_555
C2 C8 1_555 1_555
C4 C5 1_555 1_555
C7 C10 1_555 1_555
C11 C12 1_555 1_555
C13 C15 1_555 1_555
Pb1B O3B 1_555 1_555

#END
