
#######################################################################
#
#                 Cambridge Crystallographic Data Centre
#                                CCDC 
#
#######################################################################
#
# If this CIF has been generated from an entry in the Cambridge 
# Structural Database, then it will include bibliographic, chemical, 
# crystal, experimental, refinement or atomic coordinate data resulting 
# from the CCDC's data processing and validation procedures.
#
#######################################################################

data_YIYQED
_symmetry_cell_setting           orthorhombic
_symmetry_space_group_name_H-M   'P b c a'
_symmetry_Int_Tables_number      61
_space_group_name_Hall           '-P 2ac 2ab'
loop_
_symmetry_equiv_pos_site_id
_symmetry_equiv_pos_as_xyz
1 x,y,z
2 1/2-x,-y,1/2+z
3 1/2+x,1/2-y,-z
4 -x,1/2+y,1/2-z
5 -x,-y,-z
6 1/2+x,y,1/2-z
7 1/2-x,1/2+y,z
8 x,1/2-y,1/2+z
_cell_length_a                   9.693(1)
_cell_length_b                   12.514(1)
_cell_length_c                   17.146(1)
_cell_angle_alpha                90
_cell_angle_beta                 90
_cell_angle_gamma                90
_cell_volume                     2079.78
loop_
_atom_site_label
_atom_site_type_symbol
_atom_site_fract_x
_atom_site_fract_y
_atom_site_fract_z
Pb1 Pb 0.172063(18) 0.087281(14) 0.496348(9)
S1 S -0.03104(18) 0.26561(13) 0.48316(11)
O1 O 0.0205(3) -0.0073(3) 0.4238(2)
N1 N 0.2048(4) 0.1277(3) 0.3558(2)
N2 N 0.1793(6) 0.4166(5) 0.4744(4)
C1 C 0.0293(5) -0.0058(4) 0.3461(3)
C2 C -0.0500(6) -0.0698(4) 0.2993(3)
H1 H -0.1099 -0.1186 0.3223
C3 C -0.0434(6) -0.0639(5) 0.2178(3)
H2 H -0.1004 -0.1075 0.1879
C4 C 0.0448(6) 0.0045(5) 0.1816(3)
H3 H 0.0485 0.0069 0.1274
C5 C 0.1307(6) 0.0719(4) 0.2264(3)
C6 C 0.1234(5) 0.0660(4) 0.3088(3)
C7 C 0.2243(6) 0.1460(4) 0.1943(3)
H4 H 0.2316 0.1533 0.1405
C8 C 0.3039(6) 0.2068(5) 0.2421(3)
H5 H 0.3658 0.2559 0.2213
C9 C 0.2918(6) 0.1950(4) 0.3223(3)
H6 H 0.3479 0.2365 0.3542
C10 C 0.0910(7) 0.3557(5) 0.4794(3)
Pb1D Pb -0.172063(18) -0.087281(14) 0.503652(9)
Pb1F Pb 0.327937(18) 0.587281(14) 0.496348(9)
O1D O -0.0205(3) 0.0073(3) 0.5762(2)
N2F N 0.3207(6) -0.0834(5) 0.4744(4)
loop_
_geom_bond_atom_site_label_1
_geom_bond_atom_site_label_2
_geom_bond_site_symmetry_1
_geom_bond_site_symmetry_2
Pb1 S1 1_555 1_555
S1 C10 1_555 1_555
O1 Pb1 1_555 1_555
N1 Pb1 1_555 1_555
N2 C10 1_555 1_555
C1 O1 1_555 1_555
C2 C1 1_555 1_555
H1 C2 1_555 1_555
C3 C2 1_555 1_555
H2 C3 1_555 1_555
C4 C3 1_555 1_555
H3 C4 1_555 1_555
C5 C4 1_555 1_555
C6 N1 1_555 1_555
C7 C5 1_555 1_555
H4 C7 1_555 1_555
C8 C7 1_555 1_555
H5 C8 1_555 1_555
C9 N1 1_555 1_555
H6 C9 1_555 1_555
Pb1D O1 1_555 1_555
Pb1F N2 1_555 1_555
O1D Pb1 1_555 1_555
N2F Pb1 1_555 1_555
C1 C6 1_555 1_555
C5 C6 1_555 1_555
C8 C9 1_555 1_555
Pb1D O1D 1_555 1_555

#END
