
#######################################################################
#
#                 Cambridge Crystallographic Data Centre
#                                CCDC 
#
#######################################################################
#
# If this CIF has been generated from an entry in the Cambridge 
# Structural Database, then it will include bibliographic, chemical, 
# crystal, experimental, refinement or atomic coordinate data resulting 
# from the CCDC's data processing and validation procedures.
#
#######################################################################

data_YIYRAA
_symmetry_cell_setting           orthorhombic
_symmetry_space_group_name_H-M   'P b c n'
_symmetry_Int_Tables_number      60
_space_group_name_Hall           '-P 2n 2ab'
loop_
_symmetry_equiv_pos_site_id
_symmetry_equiv_pos_as_xyz
1 x,y,z
2 1/2-x,1/2-y,1/2+z
3 -x,y,1/2-z
4 1/2+x,1/2-y,-z
5 -x,-y,-z
6 1/2+x,1/2+y,1/2-z
7 x,-y,1/2+z
8 1/2-x,1/2+y,z
_cell_length_a                   16.5652(14)
_cell_length_b                   13.3047(10)
_cell_length_c                   7.5755(6)
_cell_angle_alpha                90
_cell_angle_beta                 90
_cell_angle_gamma                90
_cell_volume                     1669.6
loop_
_atom_site_label
_atom_site_type_symbol
_atom_site_fract_x
_atom_site_fract_y
_atom_site_fract_z
Mn1 Mn 0.5000 0.5000 0.0000
C1 C 0.39601(9) 0.63748(10) 0.25953(17)
C2 C 0.38311(9) 0.81452(11) 0.1535(2)
H1 H 0.4277 0.8029 0.0818
C3 C 0.35485(9) 0.73881(10) 0.26287(16)
C4 C 0.28856(9) 0.75767(12) 0.3703(2)
H2 H 0.2695 0.7079 0.4457
C5 C 0.34540(11) 0.90739(11) 0.1502(2)
H3 H 0.3649 0.9579 0.0767
C6 C 0.25077(10) 0.85100(13) 0.3653(2)
H4 H 0.2061 0.8631 0.4366
C7 C 0.27900(12) 0.92523(12) 0.2558(2)
H5 H 0.2535 0.9874 0.2527
C8 C 0.43428(10) 0.26301(11) 0.1922(2)
H6 H 0.3894 0.2987 0.1534
C9 C 0.43390(12) 0.15966(12) 0.1906(2)
H7 H 0.3888 0.1253 0.1494
C10 C 0.5000 0.10705(17) 0.2500
H8 H 0.5000 0.0371 0.2500
O1 O 0.42786(7) 0.61387(7) 0.11468(13)
O2 O 0.39576(6) 0.58581(7) 0.39818(13)
O3 O 0.5000 0.41237(10) 0.2500
N1 N 0.5000 0.31177(12) 0.2500
Mn1F Mn 0.5000 0.5000 0.5000
Mn1F_2 Mn 0.5000 0.5000 -0.5000
C1D C 0.60399(9) 0.36252(10) -0.25953(17)
C2D C 0.61689(9) 0.18548(11) -0.1535(2)
H1D H 0.5723 0.1971 -0.0818
C3D C 0.64515(9) 0.26119(10) -0.26287(16)
C4D C 0.71144(9) 0.24233(12) -0.3703(2)
H2D H 0.7305 0.2921 -0.4457
C5D C 0.65460(11) 0.09261(11) -0.1502(2)
H3D H 0.6351 0.0421 -0.0767
C6D C 0.74923(10) 0.14900(13) -0.3653(2)
H4D H 0.7939 0.1369 -0.4366
C7D C 0.72100(12) 0.07477(12) -0.2558(2)
H5D H 0.7465 0.0126 -0.2527
C8B C 0.56572(10) 0.26301(11) 0.3078(2)
H6B H 0.6106 0.2987 0.3466
C9B C 0.56610(12) 0.15966(12) 0.3094(2)
H7B H 0.6112 0.1253 0.3506
O1D O 0.57214(7) 0.38613(7) -0.11468(13)
O2D O 0.60424(6) 0.41419(7) -0.39818(13)
O2F O 0.39576(6) 0.41419(7) -0.10182(13)
O2B O 0.60424(6) 0.58581(7) 0.10182(13)
O3F O 0.5000 0.58763(10) -0.2500
loop_
_geom_bond_atom_site_label_1
_geom_bond_atom_site_label_2
_geom_bond_site_symmetry_1
_geom_bond_site_symmetry_2
Mn1 O1 1_555 1_555
C1 C3 1_555 1_555
C2 H1 1_555 1_555
C3 C2 1_555 1_555
C4 C3 1_555 1_555
H2 C4 1_555 1_555
C5 C2 1_555 1_555
H3 C5 1_555 1_555
C6 C4 1_555 1_555
H4 C6 1_555 1_555
C7 C5 1_555 1_555
H5 C7 1_555 1_555
C8 H6 1_555 1_555
C9 C8 1_555 1_555
H7 C9 1_555 1_555
C10 C9 1_555 1_555
H8 C10 1_555 1_555
O1 C1 1_555 1_555
O2 C1 1_555 1_555
O3 Mn1 1_555 1_555
N1 C8 1_555 1_555
Mn1F O2 1_555 1_555
Mn1F_2 O2D 1_555 1_555
C1D C3D 1_555 1_555
C2D H1D 1_555 1_555
C3D C2D 1_555 1_555
C4D C3D 1_555 1_555
H2D C4D 1_555 1_555
C5D C2D 1_555 1_555
H3D C5D 1_555 1_555
C6D C4D 1_555 1_555
H4D C6D 1_555 1_555
C7D C5D 1_555 1_555
H5D C7D 1_555 1_555
C8B N1 1_555 1_555
H6B C8B 1_555 1_555
C9B C10 1_555 1_555
H7B C9B 1_555 1_555
O1D Mn1 1_555 1_555
O2D C1D 1_555 1_555
O2F Mn1 1_555 1_555
O2B Mn1 1_555 1_555
O3F Mn1 1_555 1_555
C6 C7 1_555 1_555
O3 N1 1_555 1_555
O3 Mn1F 1_555 1_555
Mn1F_2 O3F 1_555 1_555
C1D O1D 1_555 1_555
C6D C7D 1_555 1_555
C8B C9B 1_555 1_555

#END
