
#######################################################################
#
#                 Cambridge Crystallographic Data Centre
#                                CCDC 
#
#######################################################################
#
# If this CIF has been generated from an entry in the Cambridge 
# Structural Database, then it will include bibliographic, chemical, 
# crystal, experimental, refinement or atomic coordinate data resulting 
# from the CCDC's data processing and validation procedures.
#
#######################################################################

data_YIZTUY
_symmetry_cell_setting           monoclinic
_symmetry_space_group_name_H-M   'P 2'
_symmetry_Int_Tables_number      3
_space_group_name_Hall           'P 2y'
loop_
_symmetry_equiv_pos_site_id
_symmetry_equiv_pos_as_xyz
1 x,y,z
2 -x,y,-z
_cell_length_a                   9.1852(5)
_cell_length_b                   8.0965(4)
_cell_length_c                   9.1994(5)
_cell_angle_alpha                90
_cell_angle_beta                 105.5010(10)
_cell_angle_gamma                90
_cell_volume                     659.256
loop_
_atom_site_label
_atom_site_type_symbol
_atom_site_fract_x
_atom_site_fract_y
_atom_site_fract_z
Yb1 Yb 0.500 0.000 0.500
Ge1 Ge 0.18947(4) 0.50936(9) 0.73165(4)
O1 O 0.2841(4) 0.3238(4) 0.6654(3)
O2 O 0.3434(4) 0.2292(4) 0.4614(4)
O3 O -0.0693(3) 0.6794(4) 0.2108(4)
O4 O 0.1588(4) 0.7310(5) 0.1880(4)
O5 O 0.1855(3) 0.6040(4) 0.5479(3)
O6 O -0.0117(3) 0.3916(4) 0.3243(3)
O7 O 0.2338(4) 0.3997(4) 0.9237(4)
O8 O 0.3943(4) 0.4034(5) 1.1523(4)
O9 O 0.3579(3) 0.6367(4) 0.8190(3)
O10 O 0.2648(4) -0.0842(4) 0.5150(4)
H1 H 0.184 -0.0024 0.5145
H2 H 0.2371 -0.205 0.5244
O11 O 0.4458(5) 0.0868(5) 0.2498(4)
H3 H 0.4045 0.1865 0.2427
H4 H 0.5051 0.0663 0.1851
O12 O 0.5407(4) -0.2312(4) 0.6594(3)
H5 H 0.4814 -0.2644 0.7161
H6 H 0.6203 -0.2577 0.7149
C1 C 0.2926(4) 0.3363(5) 0.5284(5)
C2 C 0.2382(4) 0.4992(8) 0.4507(4)
H7 H 0.3246 0.5532 0.4271
C3 C 0.1154(4) 0.4715(6) 0.3007(4)
H8 H 0.1574 0.4047 0.2329
C4 C 0.0689(5) 0.6395(5) 0.2290(4)
C5 C 0.3459(5) 0.4599(5) 1.0252(4)
C6 C 0.4124(4) 0.6159(6) 0.9761(4)
H9 H 0.378 0.7103 1.0248
O7A O 0.7662(4) 0.3997(4) 1.0763(4)
O8A O 0.6057(4) 0.4034(5) 0.8477(4)
O9A O 0.6421(3) 0.6367(4) 1.1810(3)
C5A C 0.6541(5) 0.4599(5) 0.9748(4)
C6A C 0.5876(4) 0.6159(6) 1.0239(4)
H9A H 0.622 0.7103 0.9752
Ge1A Ge -0.18947(4) 0.50936(9) 0.26835(4)
O1A O -0.2841(4) 0.3238(4) 0.3346(3)
O2A O -0.3434(4) 0.2292(4) 0.5386(4)
O3A O 0.0693(3) 0.6794(4) 0.7892(4)
O4A O -0.1588(4) 0.7310(5) 0.8120(4)
O5A O -0.1855(3) 0.6040(4) 0.4521(3)
O6A O 0.0117(3) 0.3916(4) 0.6757(3)
C1A C -0.2926(4) 0.3363(5) 0.4716(5)
C2A C -0.2382(4) 0.4992(8) 0.5493(4)
H7A H -0.3246 0.5532 0.5729
C3A C -0.1154(4) 0.4715(6) 0.6993(4)
H8A H -0.1574 0.4047 0.7671
C4A C -0.0689(5) 0.6395(5) 0.7710(4)
O10A O 0.7352(4) -0.0842(4) 0.4850(4)
H1A H 0.816 -0.0024 0.4855
H2A H 0.7629 -0.205 0.4756
O11A O 0.5542(5) 0.0868(5) 0.7502(4)
H3A H 0.5955 0.1865 0.7573
H4A H 0.4949 0.0663 0.8149
O12A O 0.4593(4) -0.2312(4) 0.3406(3)
H5A H 0.5186 -0.2644 0.2839
H6A H 0.3797 -0.2577 0.2851
Yb1_2 Yb -0.500 0.000 0.500
Ge1A_2 Ge 0.81053(4) 0.50936(9) 1.26835(4)
O2A_2 O 0.6566(4) 0.2292(4) 0.5386(4)
O7A_2 O -0.2338(4) 0.3997(4) 0.0763(4)
O9A_2 O -0.3579(3) 0.6367(4) 0.1810(3)
O13 O 0.000 0.1010(7) 0.500
H10 H -0.0348 0.1778 0.556
H10A H 0.0348 0.1778 0.444
O14 O 0.000 0.9459(10) 0.000
H11 H 0.037 0.8859 0.1004
H11A H -0.037 0.8859 -0.1004
O15 O 0.3239(14) 0.003(2) 0.9093(11)
O16? O 0.222(2) 0.031(4) 0.867(2)
loop_
_geom_bond_atom_site_label_1
_geom_bond_atom_site_label_2
_geom_bond_site_symmetry_1
_geom_bond_site_symmetry_2
Yb1 O2 1_555 1_555
Ge1 O1 1_555 1_555
O1 C1 1_555 1_555
O2 C1 1_555 1_555
O3 C4 1_555 1_555
O4 C4 1_555 1_555
O5 Ge1 1_555 1_555
O6 C3 1_555 1_555
O7 Ge1 1_555 1_555
O8 C5 1_555 1_555
O9 Ge1 1_555 1_555
O10 Yb1 1_555 1_555
H1 O10 1_555 1_555
H2 O10 1_555 1_555
O11 Yb1 1_555 1_555
H3 O11 1_555 1_555
H4 O11 1_555 1_555
O12 Yb1 1_555 1_555
H5 O12 1_555 1_555
H6 O12 1_555 1_555
C1 C2 1_555 1_555
C2 O5 1_555 1_555
H7 C2 1_555 1_555
C3 C2 1_555 1_555
H8 C3 1_555 1_555
C4 C3 1_555 1_555
C5 O7 1_555 1_555
C6 O9 1_555 1_555
H9 C6 1_555 1_555
O13 H10 1_555 1_555
O14 H11 1_555 1_555
O7A C5A 1_555 1_555
O8A C5A 1_555 1_555
O9A C6A 1_555 1_555
C5A C6A 1_555 1_555
C6A C6 1_555 1_555
H9A C6A 1_555 1_555
Ge1A O3 1_555 1_555
O1A Ge1A 1_555 1_555
O2A C1A 1_555 1_555
O3A Ge1 1_555 1_555
O4A C4A 1_555 1_555
O5A Ge1A 1_555 1_555
O6A Ge1 1_555 1_555
C1A O1A 1_555 1_555
C2A O5A 1_555 1_555
H7A C2A 1_555 1_555
C3A O6A 1_555 1_555
H8A C3A 1_555 1_555
C4A O3A 1_555 1_555
O10A Yb1 1_555 1_555
H1A O10A 1_555 1_555
H2A O10A 1_555 1_555
O11A Yb1 1_555 1_555
H3A O11A 1_555 1_555
H4A O11A 1_555 1_555
O12A Yb1 1_555 1_555
H5A O12A 1_555 1_555
H6A O12A 1_555 1_555
Yb1_2 O2A 1_555 1_555
Ge1A_2 O7A 1_555 1_555
O2A_2 Yb1 1_555 1_555
O7A_2 Ge1A 1_555 1_555
O9A_2 Ge1A 1_555 1_555
H10A O13 1_555 1_555
H11A O14 1_555 1_555
O6 Ge1A 1_555 1_555
C5 C6 1_555 1_555
O9A Ge1A_2 1_555 1_555
C1A C2A 1_555 1_555
C2A C3A 1_555 1_555
C3A C4A 1_555 1_555

#END
