
#######################################################################
#
#                 Cambridge Crystallographic Data Centre
#                                CCDC 
#
#######################################################################
#
# If this CIF has been generated from an entry in the Cambridge 
# Structural Database, then it will include bibliographic, chemical, 
# crystal, experimental, refinement or atomic coordinate data resulting 
# from the CCDC's data processing and validation procedures.
#
#######################################################################

data_YIZYEN
_symmetry_cell_setting           monoclinic
_symmetry_space_group_name_H-M   'C 2/c'
_symmetry_Int_Tables_number      15
_space_group_name_Hall           '-C 2yn'
loop_
_symmetry_equiv_pos_site_id
_symmetry_equiv_pos_as_xyz
1 x,y,z
2 -x,y,1/2-z
3 1/2+x,1/2+y,z
4 1/2-x,1/2+y,1/2-z
5 -x,-y,-z
6 x,-y,1/2+z
7 1/2-x,1/2-y,-z
8 1/2+x,1/2-y,1/2+z
_cell_length_a                   15.792(6)
_cell_length_b                   19.232(7)
_cell_length_c                   14.198(5)
_cell_angle_alpha                90
_cell_angle_beta                 91.160(5)
_cell_angle_gamma                90
_cell_volume                     4311.22
loop_
_atom_site_label
_atom_site_type_symbol
_atom_site_fract_x
_atom_site_fract_y
_atom_site_fract_z
Pb1 Pb -0.14025(5) 0.83200(4) 0.81494(5)
S1 S -0.1741(4) 0.7124(3) 1.3263(4)
S2 S -0.0539(3) 0.8829(3) 1.6038(3)
C1 C -0.0918(18) 0.6585(14) 0.844(2)
H1 H -0.1037 0.6594 0.7795
C2 C -0.054(2) 0.5986(16) 0.884(2)
H2 H -0.0394 0.5609 0.8467
C3 C -0.039(2) 0.5973(14) 0.977(2)
H3 H -0.0224 0.5556 1.0049
C4 C -0.048(2) 0.6535(16) 1.033(2)
H4 H -0.0257 0.6549 1.0939
C5 C -0.0954(13) 0.7149(10) 0.9888(16)
C6 C -0.1203(12) 0.7777(10) 1.0402(13)
C7 C -0.1011(13) 0.7830(11) 1.1369(14)
H5 H -0.0695 0.7487 1.1677
C8 C -0.1313(12) 0.8426(10) 1.1873(13)
C9 C -0.1729(13) 0.8943(11) 1.1350(13)
H6 H -0.1923 0.9341 1.1648
C10 C -0.1855(13) 0.8859(10) 1.0360(13)
C11 C -0.2290(14) 0.9383(10) 0.9764(14)
C12 C -0.2589(15) 1.0037(12) 1.0126(16)
H7 H -0.2501 1.0150 1.0758
C13 C -0.3002(17) 1.0485(14) 0.9536(19)
H8 H -0.3183 1.0913 0.9757
C14 C -0.3156(17) 1.0295(14) 0.857(2)
H9 H -0.3480 1.0573 0.8165
C15 C -0.2793(17) 0.9667(13) 0.8265(18)
H10 H -0.2838 0.9547 0.7632
C16 C -0.1165(13) 0.8495(11) 1.2886(14)
C17 C -0.1301(12) 0.7968(10) 1.3567(14)
C18 C -0.1126(13) 0.8073(10) 1.4511(14)
H11 H -0.1223 0.7722 1.4946
C19 C -0.0799(13) 0.8719(12) 1.4808(14)
C20 C -0.0699(13) 0.9255(11) 1.4191(14)
H12 H -0.0514 0.9689 1.4400
C21 C -0.0879(13) 0.9139(11) 1.3249(14)
H13 H -0.0808 0.9505 1.2830
N1 N -0.1109(12) 0.7135(10) 0.8956(13)
N2 N -0.1626(12) 0.8279(9) 0.9917(11)
N3 N -0.2391(12) 0.9245(9) 0.8853(12)
O1 O -0.0936(11) 0.6694(7) 1.2997(12)
O2 O -0.2328(13) 0.7273(11) 1.2476(13)
O3 O -0.2157(14) 0.6884(11) 1.4117(14)
O4 O -0.1209(10) 0.9227(9) 1.6475(10)
O5 O -0.0425(10) 0.8157(8) 1.6443(11)
O6 O 0.0270(9) 0.9182(8) 1.6034(10)
Pb1_2 Pb -0.14025(5) 0.83200(4) 1.81494(5)
Pb1A Pb 0.14025(5) 0.83200(4) 1.68506(5)
Pb1F Pb -0.35975(5) 0.66800(4) 1.18506(5)
O2F O -0.2672(13) 0.7727(11) 0.7524(13)
O5_2 O -0.0425(10) 0.8157(8) 0.6443(11)
O6A O -0.0270(9) 0.9182(8) 0.8966(10)
O7 O 0.0000 0.5546(16) 1.2500
loop_
_geom_bond_atom_site_label_1
_geom_bond_atom_site_label_2
_geom_bond_site_symmetry_1
_geom_bond_site_symmetry_2
Pb1 N1 1_555 1_555
S1 C17 1_555 1_555
S2 C19 1_555 1_555
C1 H1 1_555 1_555
C2 C1 1_555 1_555
H2 C2 1_555 1_555
C3 C2 1_555 1_555
H3 C3 1_555 1_555
C4 C3 1_555 1_555
H4 C4 1_555 1_555
C5 C4 1_555 1_555
C6 C5 1_555 1_555
C7 C6 1_555 1_555
H5 C7 1_555 1_555
C8 C7 1_555 1_555
C9 C8 1_555 1_555
H6 C9 1_555 1_555
C10 C9 1_555 1_555
C11 C10 1_555 1_555
C12 C11 1_555 1_555
H7 C12 1_555 1_555
C13 C12 1_555 1_555
H8 C13 1_555 1_555
C14 C13 1_555 1_555
H9 C14 1_555 1_555
C15 C14 1_555 1_555
H10 C15 1_555 1_555
C16 C8 1_555 1_555
C17 C16 1_555 1_555
C18 C17 1_555 1_555
H11 C18 1_555 1_555
C19 C18 1_555 1_555
C20 C19 1_555 1_555
H12 C20 1_555 1_555
C21 C16 1_555 1_555
H13 C21 1_555 1_555
N1 C1 1_555 1_555
N2 Pb1 1_555 1_555
N3 Pb1 1_555 1_555
O1 S1 1_555 1_555
O2 S1 1_555 1_555
O3 S1 1_555 1_555
O4 S2 1_555 1_555
O5 S2 1_555 1_555
O6 S2 1_555 1_555
Pb1_2 O5 1_555 1_555
Pb1A O6 1_555 1_555
Pb1F O2 1_555 1_555
O2F Pb1 1_555 1_555
O5_2 Pb1 1_555 1_555
O6A Pb1 1_555 1_555
C5 N1 1_555 1_555
C6 N2 1_555 1_555
C10 N2 1_555 1_555
C11 N3 1_555 1_555
C15 N3 1_555 1_555
C20 C21 1_555 1_555

#END
