
#######################################################################
#
#                 Cambridge Crystallographic Data Centre
#                                CCDC 
#
#######################################################################
#
# If this CIF has been generated from an entry in the Cambridge 
# Structural Database, then it will include bibliographic, chemical, 
# crystal, experimental, refinement or atomic coordinate data resulting 
# from the CCDC's data processing and validation procedures.
#
#######################################################################

data_YOBGAZ
_symmetry_cell_setting           monoclinic
_symmetry_space_group_name_H-M   'C 2/c'
_symmetry_Int_Tables_number      15
_space_group_name_Hall           '-C 2yn'
loop_
_symmetry_equiv_pos_site_id
_symmetry_equiv_pos_as_xyz
1 x,y,z
2 -x,y,1/2-z
3 1/2+x,1/2+y,z
4 1/2-x,1/2+y,1/2-z
5 -x,-y,-z
6 x,-y,1/2+z
7 1/2-x,1/2-y,-z
8 1/2+x,1/2-y,1/2+z
_cell_length_a                   24.074(5)
_cell_length_b                   12.735(3)
_cell_length_c                   13.455(3)
_cell_angle_alpha                90
_cell_angle_beta                 118.63(3)
_cell_angle_gamma                90
_cell_volume                     3620.7
loop_
_atom_site_label
_atom_site_type_symbol
_atom_site_fract_x
_atom_site_fract_y
_atom_site_fract_z
Sr1 Sr 0.297148(12) 0.91439(2) 0.86415(2)
Sr2 Sr 0.176828(13) 0.66125(2) 0.81086(2)
O1 O 0.29090(9) 0.71252(14) 0.88389(16)
O2 O 0.36283(9) 0.77171(15) 1.05098(16)
O3 O 0.31825(9) 0.36543(14) 0.74072(16)
O4 O 0.41052(9) 0.28473(15) 0.83207(17)
O5 O 0.38149(9) 1.04251(15) 1.02937(17)
O6 O 0.31731(9) 1.11103(14) 0.86196(16)
O7 O 0.22205(9) 1.46378(14) 0.83291(16)
O8 O 0.23857(9) 1.54439(15) 0.99070(16)
O9 O 0.40346(10) 0.87583(16) 0.87465(18)
H1 H 0.4388 0.8664 0.9373
H2 H 0.4098 0.9230 0.8393
O10 O 0.08314(9) 0.53440(15) 0.76106(17)
H3 H 0.0899 0.5088 0.8216
H4 H 0.0494 0.5611 0.7223
C1 C 0.38099(13) 0.6053(2) 0.9897(2)
C2 C 0.36247(13) 0.5339(2) 0.9007(2)
H5 H 0.3270 0.5481 0.8317
C3 C 0.39640(14) 0.4415(2) 0.9139(2)
C4 C 0.45060(13) 0.4230(2) 1.0172(2)
H6 H 0.4739 0.3620 1.0270
C5 C 0.46978(14) 0.4940(2) 1.1045(2)
H7 H 0.5063 0.4812 1.1724
C6 C 0.43502(14) 0.5848(2) 1.0919(2)
H8 H 0.4478 0.6318 1.1518
C7 C 0.34241(13) 0.7019(2) 0.9741(2)
C8 C 0.37404(14) 0.3597(2) 0.8229(2)
C9 C 0.34525(13) 1.2182(2) 1.0230(2)
C10 C 0.38470(14) 1.2355(2) 1.1389(3)
H9 H 0.4149 1.1857 1.1823
C11 C 0.37873(14) 1.3272(2) 1.1889(3)
H10 H 0.4044 1.3382 1.2661
C12 C 0.33470(14) 1.4019(2) 1.1240(2)
H11 H 0.3315 1.4638 1.1576
C13 C 0.29509(13) 1.3858(2) 1.0091(2)
C14 C 0.30057(13) 1.2931(2) 0.9593(2)
H12 H 0.2740 1.2815 0.8826
C15 C 0.34992(14) 1.1183(2) 0.9697(3)
C16 C 0.24853(13) 1.4690(2) 0.9395(2)
Sr1C Sr 0.202852(12) 0.41439(2) 0.63585(2)
Sr1C_2 Sr 0.202852(12) 1.41439(2) 0.63585(2)
Sr1F Sr 0.202852(12) 1.58561(2) 1.13585(2)
Sr2_2 Sr 0.176828(13) 1.66125(2) 0.81086(2)
Sr2C Sr 0.323172(13) 0.16125(2) 0.68914(2)
Sr2C_2 Sr 0.323172(13) 1.16125(2) 0.68914(2)
Sr2F Sr 0.323172(13) 0.83875(2) 1.18914(2)
O2F O 0.13717(9) 0.72829(15) 0.94902(16)
O3C O 0.18175(9) 0.86543(14) 0.75928(16)
O4C O 0.08948(9) 0.78473(15) 0.66793(17)
O6C O 0.18269(9) 0.61103(14) 0.63804(16)
O7_2 O 0.22205(9) 0.46378(14) 0.83291(16)
O7C O 0.27795(9) 0.96378(14) 0.66709(16)
O8_2 O 0.23857(9) 0.54439(15) 0.99070(16)
O8F O 0.26143(9) 0.95561(15) 1.00930(16)
O11 O 0.98583(10) 0.65888(16) 0.60794(19)
H13 H 1.0111 0.7111 0.6103
H14 H 0.9732 0.6827 0.6544
loop_
_geom_bond_atom_site_label_1
_geom_bond_atom_site_label_2
_geom_bond_site_symmetry_1
_geom_bond_site_symmetry_2
Sr1 O1 1_555 1_555
Sr2 O1 1_555 1_555
O1 C7 1_555 1_555
O2 Sr1 1_555 1_555
O3 C8 1_555 1_555
O4 C8 1_555 1_555
O5 Sr1 1_555 1_555
O6 Sr1 1_555 1_555
O7 C16 1_555 1_555
O8 C16 1_555 1_555
O9 Sr1 1_555 1_555
H1 O9 1_555 1_555
H2 O9 1_555 1_555
O10 Sr2 1_555 1_555
H3 O10 1_555 1_555
H4 O10 1_555 1_555
C1 C2 1_555 1_555
C2 H5 1_555 1_555
C3 C2 1_555 1_555
C4 C3 1_555 1_555
H6 C4 1_555 1_555
C5 C4 1_555 1_555
H7 C5 1_555 1_555
C6 C1 1_555 1_555
H8 C6 1_555 1_555
C7 O2 1_555 1_555
C8 C3 1_555 1_555
C9 C10 1_555 1_555
C10 H9 1_555 1_555
C11 C10 1_555 1_555
H10 C11 1_555 1_555
C12 C11 1_555 1_555
H11 C12 1_555 1_555
C13 C12 1_555 1_555
C14 C9 1_555 1_555
H12 C14 1_555 1_555
C15 O5 1_555 1_555
C16 C13 1_555 1_555
O11 H13 1_555 1_555
H14 O11 1_555 1_555
Sr1C O3 1_555 1_555
Sr1C_2 O7 1_555 1_555
Sr1F O8 1_555 1_555
Sr2_2 O7 1_555 1_555
Sr2C O3 1_555 1_555
Sr2C_2 O6 1_555 1_555
Sr2F O2 1_555 1_555
O2F Sr2 1_555 1_555
O3C Sr1 1_555 1_555
O4C Sr2 1_555 1_555
O6C Sr2 1_555 1_555
O7_2 Sr2 1_555 1_555
O7C Sr1 1_555 1_555
O8_2 Sr2 1_555 1_555
O8F Sr1 1_555 1_555
Sr2 O3C 1_555 1_555
O4 Sr2C 1_555 1_555
O6 C15 1_555 1_555
O8 Sr2_2 1_555 1_555
C1 C7 1_555 1_555
C5 C6 1_555 1_555
C9 C15 1_555 1_555
C13 C14 1_555 1_555
Sr1C O6C 1_555 1_555
Sr1C O7_2 1_555 1_555
Sr2C_2 O7C 1_555 1_555
Sr2F O8F 1_555 1_555

#END
