
#######################################################################
#
#                 Cambridge Crystallographic Data Centre
#                                CCDC 
#
#######################################################################
#
# If this CIF has been generated from an entry in the Cambridge 
# Structural Database, then it will include bibliographic, chemical, 
# crystal, experimental, refinement or atomic coordinate data resulting 
# from the CCDC's data processing and validation procedures.
#
#######################################################################

data_YOBTAM
_symmetry_cell_setting           triclinic
_symmetry_space_group_name_H-M   'P -1'
_symmetry_Int_Tables_number      2
_space_group_name_Hall           '-P 1'
loop_
_symmetry_equiv_pos_site_id
_symmetry_equiv_pos_as_xyz
1 x,y,z
2 -x,-y,-z
_cell_length_a                   10.887(5)
_cell_length_b                   10.947(5)
_cell_length_c                   13.796(5)
_cell_angle_alpha                77.150(5)
_cell_angle_beta                 76.480(5)
_cell_angle_gamma                80.124(5)
_cell_volume                     1546.17
loop_
_atom_site_label
_atom_site_type_symbol
_atom_site_fract_x
_atom_site_fract_y
_atom_site_fract_z
Zn1 Zn 1.13146(5) 0.53760(4) 0.48432(3)
Zn2 Zn 0.51743(5) 1.13643(4) 0.97505(3)
O1 O 0.6070(4) 0.8626(3) 0.8913(2)
O2 O 0.8172(4) 0.6099(3) 0.5937(3)
O3 O 0.6196(4) 1.0717(3) 0.8487(3)
C1 C 0.7192(4) 0.9464(4) 0.7283(3)
O4 O 0.6338(3) 0.8103(3) 1.1000(3)
C2 C 0.7980(5) 0.8912(5) 1.1437(4)
C3 C 0.7640(5) 0.8267(4) 0.7054(3)
H1 H 0.7433 0.7550 0.7535
O5 O 1.0728(4) 0.6422(4) 1.3562(3)
C4 C 0.9334(5) 0.7701(5) 1.2573(3)
C5 C 0.6174(5) 1.3654(4) 1.0110(4)
C6 C 0.8275(5) 0.7826(4) 1.2140(3)
H2 H 0.7759 0.7183 1.2319
O6 O 0.8739(4) 0.5945(3) 1.3838(3)
N1 N 1.3026(4) 0.5951(3) 0.4683(3)
O7 O 1.0104(4) 0.6685(3) 0.5563(3)
C7 C 0.8393(4) 0.8143(4) 0.6112(3)
N2 N 0.6886(5) 1.4564(4) 0.9567(4)
O8 O 0.6467(4) 1.0162(4) 1.0560(3)
N3 N 0.6047(4) 1.2920(4) 0.9505(3)
C8 C 0.5671(7) 1.3477(6) 1.1212(4)
H3 H 0.6367 1.3267 1.1563
H4 H 0.5148 1.2806 1.1416
H5 H 0.5172 1.4244 1.1377
C9 C 0.7455(5) 1.0525(4) 0.6542(4)
H6 H 0.7146 1.1326 0.6684
N4 N 1.4656(5) 0.6721(4) 0.4866(5)
C10 C 0.9608(5) 0.6598(4) 1.3390(3)
C11 C 0.6431(5) 0.9607(4) 0.8305(3)
C12 C 0.8931(5) 0.6862(4) 0.5864(3)
C13 C 0.8178(6) 1.0396(5) 0.5589(4)
H7 H 0.8341 1.1109 0.5091
C14 C 0.8656(5) 0.9205(5) 0.5381(4)
H8 H 0.9155 0.9120 0.4747
C15 C 0.6839(5) 0.9057(5) 1.0966(3)
C16 C 1.3487(6) 0.6443(5) 0.5302(4)
C17 C 0.7312(6) 1.5538(5) 0.9951(6)
H9 H 0.6828 1.5583 1.0631
H10 H 0.7156 1.6354 0.9519
C18 C 0.8714(6) 1.5240(5) 0.9971(5)
C19 C 1.3959(6) 0.5919(5) 0.3826(5)
H11 H 1.3906 0.5614 0.3261
C20 C 0.6737(7) 1.3364(5) 0.8559(4)
H12 H 0.6829 1.3016 0.7986
C21 C 1.0103(7) 0.8660(6) 1.2287(6)
H13 H 1.0825 0.8574 1.2560
C22 C 0.8747(8) 0.9850(6) 1.1183(6)
H14 H 0.8551 1.0575 1.0719
C23 C 0.7252(7) 1.4364(6) 0.8589(5)
H15 H 0.7763 1.4839 0.8050
C24 C 1.5504(8) 0.7273(6) 0.5300(8)
H16 H 1.6382 0.7032 0.4989
H17 H 1.5393 0.6931 0.6023
C25 C 1.5238(7) 0.8693(5) 0.5139(7)
C26 C 1.2818(8) 0.6598(7) 0.6330(5)
H18 H 1.2667 0.7479 0.6364
H19 H 1.3331 0.6153 0.6809
H20 H 1.2020 0.6264 0.6488
C27 C 0.9811(9) 0.9743(7) 1.1603(7)
H21 H 1.0320 1.0391 1.1426
C28 C 1.4968(6) 0.6398(6) 0.3934(7)
H22 H 1.5728 0.6491 0.3464
C29 C 1.0665(8) 1.5953(7) 0.9882(9)
H23 H 1.1116 1.6628 0.9810
C30 C 1.5481(9) 0.9414(7) 0.4204(8)
H24 H 1.5799 0.9029 0.3643
C31 C 0.9401(8) 1.6199(6) 0.9836(8)
H25 H 0.9017 1.7030 0.9712
C32 C 1.5263(10) 1.0721(7) 0.4064(7)
H26 H 1.5464 1.1200 0.3415
C5A C 1.3826(5) 1.6346(4) 0.9890(4)
N2A N 1.3114(5) 1.5436(4) 1.0433(4)
N3A N 1.3953(4) 1.7080(4) 1.0495(3)
C8A C 1.4329(7) 1.6523(6) 0.8788(4)
H3A H 1.3633 1.6733 0.8437
H4A H 1.4852 1.7194 0.8584
H5A H 1.4828 1.5756 0.8623
C17A C 1.2688(6) 1.4462(5) 1.0049(6)
H9A H 1.3172 1.4417 0.9369
H10A H 1.2844 1.3646 1.0481
C18A C 1.1286(6) 1.4760(5) 1.0029(5)
C20A C 1.3263(7) 1.6636(5) 1.1441(4)
H12A H 1.3171 1.6984 1.2014
C23A C 1.2748(7) 1.5636(6) 1.1411(5)
H15A H 1.2237 1.5161 1.1950
C29A C 0.9335(8) 1.4047(7) 1.0118(9)
H23A H 0.8884 1.3372 1.0190
C31A C 1.0599(8) 1.3801(6) 1.0164(8)
H25A H 1.0983 1.2970 1.0288
N1A N 1.6974(4) 1.4049(3) 0.5317(3)
N4A N 1.5344(5) 1.3279(4) 0.5134(5)
C16A C 1.6513(6) 1.3557(5) 0.4698(4)
C19A C 1.6041(6) 1.4081(5) 0.6174(5)
H11A H 1.6094 1.4386 0.6739
C24A C 1.4496(8) 1.2727(6) 0.4700(8)
H16A H 1.3618 1.2968 0.5011
H17A H 1.4607 1.3069 0.3977
C25A C 1.4762(7) 1.1307(5) 0.4861(7)
C26A C 1.7182(8) 1.3402(7) 0.3670(5)
H18A H 1.7333 1.2521 0.3636
H19A H 1.6669 1.3847 0.3191
H20A H 1.7980 1.3736 0.3512
C28A C 1.5032(6) 1.3602(6) 0.6066(7)
H22A H 1.4272 1.3509 0.6536
C30A C 1.4519(9) 1.0586(7) 0.5796(8)
H24A H 1.4201 1.0971 0.6357
C32A C 1.4737(10) 0.9279(7) 0.5936(7)
H26A H 1.4536 0.8800 0.6585
Zn1A Zn -0.13146(5) 1.46240(4) 1.51568(3)
Zn2A Zn 0.48257(5) 0.86357(4) 1.02495(3)
O1A O 0.3930(4) 1.1374(3) 1.1087(2)
O2A O 0.1828(4) 1.3901(3) 1.4063(3)
O3A O 0.3804(4) 0.9283(3) 1.1513(3)
C1A C 0.2808(4) 1.0536(4) 1.2717(3)
O4A O 0.3662(3) 1.1897(3) 0.9000(3)
C2A C 0.2020(5) 1.1088(5) 0.8563(4)
C3A C 0.2360(5) 1.1733(4) 1.2946(3)
H1A H 0.2567 1.2450 1.2465
O5A O -0.0728(4) 1.3578(4) 0.6438(3)
C4A C 0.0666(5) 1.2299(5) 0.7427(3)
C6A C 0.1725(5) 1.2174(4) 0.7860(3)
H2A H 0.2241 1.2817 0.7681
O6A O 0.1261(4) 1.4055(3) 0.6162(3)
O7A O -0.0104(4) 1.3315(3) 1.4437(3)
C7A C 0.1607(4) 1.1857(4) 1.3888(3)
O8A O 0.3533(4) 0.9838(4) 0.9440(3)
C9A C 0.2545(5) 0.9475(4) 1.3458(4)
H6A H 0.2854 0.8674 1.3316
C10A C 0.0392(5) 1.3402(4) 0.6610(3)
C11A C 0.3569(5) 1.0393(4) 1.1695(3)
C12A C 0.1069(5) 1.3138(4) 1.4136(3)
C13A C 0.1822(6) 0.9604(5) 1.4411(4)
H7A H 0.1659 0.8891 1.4909
C14A C 0.1344(5) 1.0795(5) 1.4619(4)
H8A H 0.0845 1.0880 1.5253
C15A C 0.3161(5) 1.0943(5) 0.9034(3)
C21A C -0.0103(7) 1.1340(6) 0.7713(6)
H13A H -0.0825 1.1426 0.7440
C22A C 0.1253(8) 1.0150(6) 0.8817(6)
H14A H 0.1449 0.9425 0.9281
C27A C 0.0189(9) 1.0257(7) 0.8397(7)
H21A H -0.0320 0.9609 0.8574
Zn1_2 Zn 0.13146(5) 1.53760(4) 0.48432(3)
Zn1_3 Zn 0.13146(5) 1.53760(4) 1.48432(3)
Zn1_4 Zn 1.13146(5) 0.53760(4) 1.48432(3)
Zn1A_2 Zn -0.13146(5) 1.46240(4) 0.51568(3)
Zn1A_3 Zn 0.86854(5) 0.46240(4) 0.51568(3)
Zn1A_4 Zn 0.86854(5) 0.46240(4) 1.51568(3)
Zn1A_5 Zn 1.86854(5) 1.46240(4) 0.51568(3)
Zn2A_2 Zn 1.48257(5) 1.86357(4) 1.02495(3)
O2_2 O -0.1828(4) 1.6099(3) 1.5937(3)
O2A_2 O 1.1828(4) 0.3901(3) 0.4063(3)
O5_2 O 1.0728(4) 0.6422(4) 0.3562(3)
O5A_2 O -0.0728(4) 1.3578(4) 1.6438(3)
O6_2 O -0.1261(4) 1.5945(3) 1.3838(3)
O6A_2 O 1.1261(4) 0.4055(3) 0.6162(3)
N1A_2 N -0.3026(4) 1.4049(3) 1.5317(3)
N3A_2 N 0.3953(4) 0.7080(4) 1.0495(3)
loop_
_geom_bond_atom_site_label_1
_geom_bond_atom_site_label_2
_geom_bond_site_symmetry_1
_geom_bond_site_symmetry_2
Zn1 N1 1_555 1_555
Zn2 O3 1_555 1_555
O1 C11 1_555 1_555
O2 C12 1_555 1_555
O3 C11 1_555 1_555
C1 C3 1_555 1_555
O4 C15 1_555 1_555
C2 C6 1_555 1_555
C3 H1 1_555 1_555
O5 C10 1_555 1_555
C4 C6 1_555 1_555
C5 N2 1_555 1_555
C6 H2 1_555 1_555
O6 C10 1_555 1_555
N1 C16 1_555 1_555
O7 Zn1 1_555 1_555
C7 C3 1_555 1_555
N2 C17 1_555 1_555
O8 Zn2 1_555 1_555
N3 Zn2 1_555 1_555
C8 C5 1_555 1_555
H3 C8 1_555 1_555
H4 C8 1_555 1_555
H5 C8 1_555 1_555
C9 C1 1_555 1_555
H6 C9 1_555 1_555
N4 C16 1_555 1_555
C10 C4 1_555 1_555
C11 C1 1_555 1_555
C12 O7 1_555 1_555
C13 C9 1_555 1_555
H7 C13 1_555 1_555
C14 C7 1_555 1_555
H8 C14 1_555 1_555
C15 C2 1_555 1_555
C16 C26 1_555 1_555
C17 H9 1_555 1_555
H10 C17 1_555 1_555
C18 C17 1_555 1_555
C19 N1 1_555 1_555
H11 C19 1_555 1_555
C20 N3 1_555 1_555
H12 C20 1_555 1_555
C21 C4 1_555 1_555
H13 C21 1_555 1_555
C22 C2 1_555 1_555
H14 C22 1_555 1_555
C23 N2 1_555 1_555
H15 C23 1_555 1_555
C24 N4 1_555 1_555
H16 C24 1_555 1_555
H17 C24 1_555 1_555
C25 C24 1_555 1_555
C26 H18 1_555 1_555
H19 C26 1_555 1_555
H20 C26 1_555 1_555
C27 C21 1_555 1_555
H21 C27 1_555 1_555
C28 N4 1_555 1_555
H22 C28 1_555 1_555
C29 H23 1_555 1_555
C30 C25 1_555 1_555
H24 C30 1_555 1_555
C31 C18 1_555 1_555
H25 C31 1_555 1_555
C32 C30 1_555 1_555
H26 C32 1_555 1_555
C5A N2A 1_555 1_555
N2A C17A 1_555 1_555
N3A C5A 1_555 1_555
C8A C5A 1_555 1_555
H3A C8A 1_555 1_555
H4A C8A 1_555 1_555
H5A C8A 1_555 1_555
C17A H9A 1_555 1_555
H10A C17A 1_555 1_555
C18A C29 1_555 1_555
C20A N3A 1_555 1_555
H12A C20A 1_555 1_555
C23A N2A 1_555 1_555
H15A C23A 1_555 1_555
C29A C18 1_555 1_555
H23A C29A 1_555 1_555
C31A C18A 1_555 1_555
H25A C31A 1_555 1_555
N1A C16A 1_555 1_555
N4A C16A 1_555 1_555
C16A C26A 1_555 1_555
C19A N1A 1_555 1_555
H11A C19A 1_555 1_555
C24A N4A 1_555 1_555
H16A C24A 1_555 1_555
H17A C24A 1_555 1_555
C25A C32 1_555 1_555
C26A H18A 1_555 1_555
H19A C26A 1_555 1_555
H20A C26A 1_555 1_555
C28A N4A 1_555 1_555
H22A C28A 1_555 1_555
C30A C25A 1_555 1_555
H24A C30A 1_555 1_555
C32A C25 1_555 1_555
H26A C32A 1_555 1_555
Zn1A O7A 1_555 1_555
Zn2A O1 1_555 1_555
O1A Zn2 1_555 1_555
O2A C12A 1_555 1_555
O3A Zn2A 1_555 1_555
C1A C3A 1_555 1_555
O4A Zn2 1_555 1_555
C2A C6A 1_555 1_555
C3A H1A 1_555 1_555
O5A C10A 1_555 1_555
C4A C6A 1_555 1_555
C6A H2A 1_555 1_555
O6A C10A 1_555 1_555
O7A C12A 1_555 1_555
C7A C3A 1_555 1_555
O8A Zn2A 1_555 1_555
C9A C1A 1_555 1_555
H6A C9A 1_555 1_555
C10A C4A 1_555 1_555
C11A O1A 1_555 1_555
C12A C7A 1_555 1_555
C13A C9A 1_555 1_555
H7A C13A 1_555 1_555
C14A C7A 1_555 1_555
H8A C14A 1_555 1_555
C15A O4A 1_555 1_555
C21A C4A 1_555 1_555
H13A C21A 1_555 1_555
C22A C2A 1_555 1_555
H14A C22A 1_555 1_555
C27A C21A 1_555 1_555
H21A C27A 1_555 1_555
Zn1_2 O6A 1_555 1_555
Zn1_3 O2A 1_555 1_555
Zn1_4 O5 1_555 1_555
Zn1A_2 O5A 1_555 1_555
Zn1A_3 O2 1_555 1_555
Zn1A_4 O6 1_555 1_555
Zn1A_5 N1A 1_555 1_555
Zn2A_2 N3A 1_555 1_555
O2_2 Zn1A 1_555 1_555
O2A_2 Zn1 1_555 1_555
O5_2 Zn1 1_555 1_555
O5A_2 Zn1A 1_555 1_555
O6_2 Zn1A 1_555 1_555
O6A_2 Zn1 1_555 1_555
N1A_2 Zn1A 1_555 1_555
N3A_2 Zn2A 1_555 1_555
O4 Zn2A 1_555 1_555
C5 N3 1_555 1_555
C7 C12 1_555 1_555
O8 C15 1_555 1_555
C13 C14 1_555 1_555
C19 C28 1_555 1_555
C20 C23 1_555 1_555
C22 C27 1_555 1_555
C29 C31 1_555 1_555
C17A C18A 1_555 1_555
C20A C23A 1_555 1_555
C29A C31A 1_555 1_555
C19A C28A 1_555 1_555
C24A C25A 1_555 1_555
C30A C32A 1_555 1_555
O3A C11A 1_555 1_555
C1A C11A 1_555 1_555
C2A C15A 1_555 1_555
O8A C15A 1_555 1_555
C13A C14A 1_555 1_555
C22A C27A 1_555 1_555

#END
