
#######################################################################
#
#                 Cambridge Crystallographic Data Centre
#                                CCDC 
#
#######################################################################
#
# If this CIF has been generated from an entry in the Cambridge 
# Structural Database, then it will include bibliographic, chemical, 
# crystal, experimental, refinement or atomic coordinate data resulting 
# from the CCDC's data processing and validation procedures.
#
#######################################################################

data_YOBWOD
_symmetry_cell_setting           monoclinic
_symmetry_space_group_name_H-M   'C 2/c'
_symmetry_Int_Tables_number      15
_space_group_name_Hall           '-C 2yn'
loop_
_symmetry_equiv_pos_site_id
_symmetry_equiv_pos_as_xyz
1 x,y,z
2 -x,y,1/2-z
3 1/2+x,1/2+y,z
4 1/2-x,1/2+y,1/2-z
5 -x,-y,-z
6 x,-y,1/2+z
7 1/2-x,1/2-y,-z
8 1/2+x,1/2-y,1/2+z
_cell_length_a                   19.383(4)
_cell_length_b                   6.1635(12)
_cell_length_c                   15.767(3)
_cell_angle_alpha                90
_cell_angle_beta                 103.50(3)
_cell_angle_gamma                90
_cell_volume                     1831.59
loop_
_atom_site_label
_atom_site_type_symbol
_atom_site_fract_x
_atom_site_fract_y
_atom_site_fract_z
O1 O 0.6818(2) 0.2045(7) 0.3360(3)
O2 O 0.5399(2) 0.1188(8) 0.3260(3)
O3 O 0.4950(2) 0.2364(8) 0.4326(3)
C1 C 0.5456(3) 0.2334(10) 0.3946(4)
C2 C 0.6123(4) 0.3645(11) 0.4300(4)
H1 H 0.6400 0.2894 0.4807
H2 H 0.5983 0.5030 0.4499
O4 O 0.5936(3) 0.4418(8) 0.2183(3)
O5 O 0.6153(3) 0.7459(7) 0.2963(3)
C3 C 0.6204(3) 0.5436(11) 0.2876(4)
C4 C 0.6613(3) 0.4098(10) 0.3672(4)
Gd1 Gd 0.907532(16) 0.55965(5) 0.296696(19)
O6 O 0.7877(3) 0.4345(9) 0.3064(3)
O7 O 0.9490(3) 0.2682(8) 0.3923(3)
O8 O 0.8378(3) 0.6802(10) 0.4009(4)
C5 C 0.7879(4) 0.5550(12) 0.3721(4)
C6 C 0.7268(3) 0.5345(11) 0.4185(4)
H3 H 0.7120 0.6791 0.4309
H4 H 0.7445 0.4620 0.4739
H5 H 0.968(4) 0.263(12) 0.4468(12)
H6 H 0.945(4) 0.141(5) 0.371(4)
O1C O 0.8182(2) 0.7045(7) 0.1640(3)
O2B O 1.0399(2) 0.6188(8) 0.3260(3)
O2C O 0.9601(2) 0.6188(8) 0.1740(3)
O3B O 0.9950(2) 0.7364(8) 0.4326(3)
O4C O 0.9064(3) 0.9418(8) 0.2817(3)
O5C O 0.8847(3) 0.2459(7) 0.2037(3)
Gd1B Gd 0.407532(16) 0.05965(5) 0.296696(19)
Gd1C Gd 0.592468(16) 0.05965(5) 0.203304(19)
Gd1C_2 Gd 0.592468(16) 1.05965(5) 0.203304(19)
loop_
_geom_bond_atom_site_label_1
_geom_bond_atom_site_label_2
_geom_bond_site_symmetry_1
_geom_bond_site_symmetry_2
O1 C4 1_555 1_555
O2 C1 1_555 1_555
O3 C1 1_555 1_555
C1 C2 1_555 1_555
C2 H1 1_555 1_555
H2 C2 1_555 1_555
O4 C3 1_555 1_555
O5 C3 1_555 1_555
C3 C4 1_555 1_555
C4 C2 1_555 1_555
Gd1 O6 1_555 1_555
O6 C5 1_555 1_555
O7 Gd1 1_555 1_555
O8 Gd1 1_555 1_555
C5 O8 1_555 1_555
C6 C4 1_555 1_555
H3 C6 1_555 1_555
H4 C6 1_555 1_555
H5 O7 1_555 1_555
H6 O7 1_555 1_555
O1C Gd1 1_555 1_555
O2B Gd1 1_555 1_555
O2C Gd1 1_555 1_555
O3B Gd1 1_555 1_555
O4C Gd1 1_555 1_555
O5C Gd1 1_555 1_555
Gd1B O2 1_555 1_555
Gd1C O1 1_555 1_555
Gd1C_2 O5 1_555 1_555
O2 Gd1C 1_555 1_555
O3 Gd1B 1_555 1_555
O4 Gd1C 1_555 1_555
C5 C6 1_555 1_555

#END
