
#######################################################################
#
#                 Cambridge Crystallographic Data Centre
#                                CCDC 
#
#######################################################################
#
# If this CIF has been generated from an entry in the Cambridge 
# Structural Database, then it will include bibliographic, chemical, 
# crystal, experimental, refinement or atomic coordinate data resulting 
# from the CCDC's data processing and validation procedures.
#
#######################################################################

data_YOBXAQ
_symmetry_cell_setting           triclinic
_symmetry_space_group_name_H-M   'P -1'
_symmetry_Int_Tables_number      2
_space_group_name_Hall           '-P 1'
loop_
_symmetry_equiv_pos_site_id
_symmetry_equiv_pos_as_xyz
1 x,y,z
2 -x,-y,-z
_cell_length_a                   7.3570(15)
_cell_length_b                   12.951(3)
_cell_length_c                   17.871(4)
_cell_angle_alpha                71.87(3)
_cell_angle_beta                 80.24(3)
_cell_angle_gamma                82.91(3)
_cell_volume                     1590.25
loop_
_atom_site_label
_atom_site_type_symbol
_atom_site_fract_x
_atom_site_fract_y
_atom_site_fract_z
O1 O 0.5896(10) 1.1626(4) 0.5861(4)
N1 N 0.6844(11) 1.0993(5) 0.5559(4)
O2 O 0.7911(6) 0.6251(3) 0.5741(3)
Gd1 Gd 0.41836(4) 0.51096(2) 0.400899(16)
Gd2 Gd 0.89510(4) 0.60861(2) 0.409329(16)
O3 O 0.4515(5) 0.6974(3) 0.3098(3)
O4 O 0.7717(6) 0.4951(4) 0.3461(3)
O5 O 0.4190(6) 0.5074(3) 0.2664(3)
C1 C 0.2680(8) 0.5609(5) 0.2565(4)
O6 O 0.1550(5) 0.5760(3) 0.3146(2)
O7 O 0.8183(7) 0.7600(4) 0.4639(3)
C2 C 0.5949(8) 0.7496(5) 0.2816(4)
O8 O 0.7473(5) 0.7234(3) 0.3061(3)
O9 O 0.6180(6) 0.3485(3) 0.3996(3)
N2 N 0.9981(9) 0.0681(5) 0.2784(4)
C3 C 0.4269(8) 0.8804(5) 0.1761(4)
H1 H 0.3283 0.8364 0.1903
O10 O 1.0865(8) 0.0278(4) 0.2299(4)
C4 C 0.2272(8) 0.6164(5) 0.1736(4)
C5 C 1.0626(11) 0.2465(6) 0.1865(5)
H2 H 1.1312 0.2123 0.1509
O11 O 1.0836(6) 0.7681(4) 0.3444(3)
C6 C 0.8733(8) 0.2327(5) 0.3124(4)
H3 H 0.8143 0.1898 0.3602
C7 C 0.0632(9) 0.6762(5) 0.1582(4)
H4 H -0.0236 0.6867 0.2000
C8 C 0.7468(8) 0.3977(5) 0.3507(4)
C9 C 0.8592(9) 0.3443(5) 0.2948(4)
O12 O 0.1545(8) 0.9454(5) 0.0819(4)
C10 C 0.5826(8) 0.8505(5) 0.2140(4)
N3 N 0.2596(9) 1.0125(5) 0.0768(4)
C11 C 0.3598(10) 0.6050(6) 0.1109(4)
H5 H 0.4728 0.5657 0.1200
C12 C 0.5696(11) 1.0456(6) 0.0919(5)
H6 H 0.5623 1.1112 0.0516
C13 C 0.4238(9) 0.9787(5) 0.1162(4)
O13 O 0.9306(10) 0.0145(4) 0.3420(4)
C14 C 0.7791(8) 0.7243(5) 0.5379(4)
C15 C 0.1535(14) 0.7105(7) 0.0201(5)
H7 H 0.1290 0.7419 -0.0319
O14 O 0.8467(5) 0.4362(3) 0.5185(2)
C16 C 0.9427(12) 0.4048(6) 0.2237(5)
H8 H 0.9304 0.4803 0.2115
C17 C 0.7301(9) 0.9158(5) 0.1892(4)
H9 H 0.8359 0.8941 0.2139
C18 C 1.0452(13) 0.3580(7) 0.1686(5)
H10 H 1.1015 0.4013 0.1204
C19 C 0.3190(12) 0.6533(6) 0.0353(4)
O15 O 0.2359(9) 1.1086(5) 0.0390(4)
C20 C 0.0268(12) 0.7206(7) 0.0817(5)
H11 H -0.0870 0.7582 0.0722
O16 O 0.6124(14) 0.6032(9) -0.0174(5)
C21 C 0.9745(9) 0.1863(5) 0.2591(4)
O17 O 0.4178(15) 0.6796(8) -0.0984(4)
N4 N 0.4623(17) 0.6467(7) -0.0326(5)
C22 C 0.7148(8) 0.8027(5) 0.5842(4)
C23 C 0.6358(10) 0.7662(6) 0.6625(4)
H12 H 0.6306 0.6918 0.6873
C24 C 0.7228(11) 1.0126(6) 0.1285(5)
H13 H 0.8233 1.0552 0.1126
O18 O 0.5754(5) 0.5993(3) 0.4639(2)
O19 O 0.8073(10) 1.1265(4) 0.4997(4)
C25 C 0.6633(9) 0.9840(5) 0.5907(4)
C26 C 0.5754(10) 0.9491(6) 0.6681(4)
H14 H 0.5247 0.9992 0.6950
C27 C 0.5643(11) 0.8384(6) 0.7047(5)
H15 H 0.5093 0.8130 0.7573
C28 C 0.7311(9) 0.9139(5) 0.5479(4)
H16 H 0.7872 0.9396 0.4956
O2A O 0.2089(6) 0.3749(3) 0.4259(3)
Gd1A Gd 0.58164(4) 0.48904(2) 0.599101(16)
Gd2_2 Gd -0.10490(4) 0.60861(2) 0.409329(16)
Gd2A Gd 1.10490(4) 0.39139(2) 0.590671(16)
O6_2 O 1.1550(5) 0.5760(3) 0.3146(2)
O14A O 0.1533(5) 0.5638(3) 0.4815(2)
O14A_2 O 1.1533(5) 0.5638(3) 0.4815(2)
O18A O 0.4246(5) 0.4007(3) 0.5361(2)
loop_
_geom_bond_atom_site_label_1
_geom_bond_atom_site_label_2
_geom_bond_site_symmetry_1
_geom_bond_site_symmetry_2
O1 N1 1_555 1_555
N1 O19 1_555 1_555
O2 C14 1_555 1_555
Gd1 O3 1_555 1_555
Gd2 O4 1_555 1_555
O3 C2 1_555 1_555
O4 Gd1 1_555 1_555
O5 Gd1 1_555 1_555
C1 O5 1_555 1_555
O6 Gd1 1_555 1_555
O7 Gd2 1_555 1_555
C2 O8 1_555 1_555
O8 Gd2 1_555 1_555
O9 Gd1 1_555 1_555
N2 O10 1_555 1_555
C3 H1 1_555 1_555
C4 C1 1_555 1_555
C5 H2 1_555 1_555
O11 Gd2 1_555 1_555
C6 H3 1_555 1_555
C7 C4 1_555 1_555
H4 C7 1_555 1_555
C8 O4 1_555 1_555
C9 C6 1_555 1_555
O12 N3 1_555 1_555
C10 C2 1_555 1_555
N3 C13 1_555 1_555
C11 C4 1_555 1_555
H5 C11 1_555 1_555
C12 H6 1_555 1_555
C13 C3 1_555 1_555
O13 N2 1_555 1_555
C14 O7 1_555 1_555
C15 H7 1_555 1_555
O14 Gd2 1_555 1_555
C16 C9 1_555 1_555
H8 C16 1_555 1_555
C17 C10 1_555 1_555
H9 C17 1_555 1_555
C18 C5 1_555 1_555
H10 C18 1_555 1_555
C19 C11 1_555 1_555
O15 N3 1_555 1_555
C20 C7 1_555 1_555
H11 C20 1_555 1_555
O16 N4 1_555 1_555
C21 N2 1_555 1_555
O17 N4 1_555 1_555
N4 C19 1_555 1_555
C22 C14 1_555 1_555
C23 C22 1_555 1_555
H12 C23 1_555 1_555
C24 C12 1_555 1_555
H13 C24 1_555 1_555
O18 Gd1 1_555 1_555
C25 N1 1_555 1_555
C26 C25 1_555 1_555
H14 C26 1_555 1_555
C27 C23 1_555 1_555
H15 C27 1_555 1_555
C28 C22 1_555 1_555
H16 C28 1_555 1_555
O2A Gd1 1_555 1_555
Gd1A O2 1_555 1_555
Gd2_2 O6 1_555 1_555
Gd2A O14 1_555 1_555
O6_2 Gd2 1_555 1_555
O14A Gd1 1_555 1_555
O14A_2 Gd2 1_555 1_555
O18A Gd1 1_555 1_555
Gd2 O18 1_555 1_555
C1 O6 1_555 1_555
O9 C8 1_555 1_555
C3 C10 1_555 1_555
C5 C21 1_555 1_555
C6 C21 1_555 1_555
C8 C9 1_555 1_555
C12 C13 1_555 1_555
C15 C19 1_555 1_555
C15 C20 1_555 1_555
O14 Gd1A 1_555 1_555
C16 C18 1_555 1_555
C17 C24 1_555 1_555
O18 Gd1A 1_555 1_555
C25 C28 1_555 1_555
C26 C27 1_555 1_555
Gd1A O18A 1_555 1_555
Gd2_2 O14A 1_555 1_555
Gd2A O14A_2 1_555 1_555

#END
