
#######################################################################
#
#                 Cambridge Crystallographic Data Centre
#                                CCDC 
#
#######################################################################
#
# If this CIF has been generated from an entry in the Cambridge 
# Structural Database, then it will include bibliographic, chemical, 
# crystal, experimental, refinement or atomic coordinate data resulting 
# from the CCDC's data processing and validation procedures.
#
#######################################################################

data_YOCCIE
_symmetry_cell_setting           tetragonal
_symmetry_space_group_name_H-M   'P 4/n c c'
_symmetry_Int_Tables_number      130
_space_group_name_Hall           '-P 4a 2ac'
loop_
_symmetry_equiv_pos_site_id
_symmetry_equiv_pos_as_xyz
1 x,y,z
2 1/2-y,x,z
3 1/2-x,1/2-y,z
4 y,1/2-x,z
5 1/2+x,-y,1/2-z
6 -x,1/2+y,1/2-z
7 1/2+y,1/2+x,1/2-z
8 -y,-x,1/2-z
9 -x,-y,-z
10 1/2+y,-x,-z
11 1/2+x,1/2+y,-z
12 -y,1/2+x,-z
13 1/2-x,y,1/2+z
14 x,1/2-y,1/2+z
15 1/2-y,1/2-x,1/2+z
16 y,x,1/2+z
_cell_length_a                   16.2644(14)
_cell_length_b                   16.2644(14)
_cell_length_c                   30.563(3)
_cell_angle_alpha                90
_cell_angle_beta                 90
_cell_angle_gamma                90
_cell_volume                     8084.85
loop_
_atom_site_label
_atom_site_type_symbol
_atom_site_fract_x
_atom_site_fract_y
_atom_site_fract_z
Zn1 Zn 0.37579(7) 1.11217(8) 0.10042(3)
Zn2 Zn 0.36196(7) 1.09021(9) 0.20367(4)
C1 C 0.5921(6) 1.0066(6) 0.1536(3)
C2 C 0.6289(6) 0.9830(6) 0.1931(3)
H1 H 0.5988 0.9865 0.2189
C3 C 0.7074(6) 0.9552(6) 0.1944(3)
C4 C 0.7541(6) 0.9550(7) 0.1554(3)
H2 H 0.8091 0.9396 0.1564
C5 C 0.7194(6) 0.9775(6) 0.1156(3)
C6 C 0.6387(6) 1.0028(6) 0.1155(3)
H3 H 0.6145 1.0178 0.0891
C7 C 0.7697(6) 0.9824(7) 0.0747(3)
C8 C 0.7359(6) 0.9615(7) 0.0343(3)
H4 H 0.6821 0.9423 0.0331
C9 C 0.7802(6) 0.9684(6) -0.0038(3)
C10 C 0.8617(7) 0.9946(7) -0.0025(3)
H5 H 0.8928 0.9972 -0.0280
C11 C 0.8956(6) 1.0166(8) 0.0370(3)
H6 H 0.9489 1.0371 0.0380
C12 C 0.8506(6) 1.0084(7) 0.0757(3)
H7 H 0.8754 1.0205 0.1023
C13 C 0.5075(6) 1.0395(6) 0.1539(3)
C14 C 0.7484(6) 0.9336(6) 0.2364(3)
C15 C 0.7433(6) 0.9428(6) -0.0463(3)
C16 C 0.2511(8) 0.9363(8) 0.1684(5)
H8 H 0.2176 0.9800 0.1602
C17 C 0.2185(9) 0.8599(9) 0.1652(5)
H9 H 0.1653 0.8523 0.1548
C18 C 0.2663(7) 0.7933(7) 0.1778(4)
C19 C 0.3453(7) 0.8122(7) 0.1916(4)
H10 H 0.3814 0.7706 0.1998
C20 C 0.3689(7) 0.8908(8) 0.1929(4)
H11 H 0.4220 0.9012 0.2026
N1 N 0.3244(6) 0.9543(6) 0.1819(3)
O1 O 0.4732(4) 1.0498(5) 0.11697(19)
O2 O 0.4764(4) 1.0551(4) 0.19036(19)
O3 O 0.7082(5) 0.9108(5) 0.2689(2)
O4 O 0.8260(4) 0.9412(5) 0.23755(19)
O5 O 0.6659(4) 0.9387(5) -0.04752(19)
O6 O 0.7853(4) 0.9270(5) -0.0789(2)
O7 O 0.3229(4) 1.1479(4) 0.15292(16)
H12 H 0.2715 1.1400 0.1505
C16B C 0.2489(8) 0.5637(8) 0.1684(5)
H8B H 0.2824 0.5200 0.1602
C17B C 0.2815(9) 0.6401(9) 0.1652(5)
H9B H 0.3347 0.6477 0.1548
C18B C 0.2337(7) 0.7067(7) 0.1778(4)
C19B C 0.1547(7) 0.6878(7) 0.1916(4)
H10B H 0.1186 0.7294 0.1998
C20B C 0.1311(7) 0.6092(8) 0.1929(4)
H11B H 0.0780 0.5988 0.2026
N1B N 0.1756(6) 0.5457(6) 0.1819(3)
Zn1B Zn 0.12421(7) 0.38783(8) 0.10042(3)
Zn2B Zn 0.13804(7) 0.40979(9) 0.20367(4)
C1B C -0.0921(6) 0.4934(6) 0.1536(3)
C2B C -0.1289(6) 0.5170(6) 0.1931(3)
H1B H -0.0988 0.5135 0.2189
C3B C -0.2074(6) 0.5448(6) 0.1944(3)
C4B C -0.2541(6) 0.5450(7) 0.1554(3)
H2B H -0.3091 0.5604 0.1564
C5B C -0.2194(6) 0.5225(6) 0.1156(3)
C6B C -0.1387(6) 0.4972(6) 0.1155(3)
H3B H -0.1145 0.4822 0.0891
C7B C -0.2697(6) 0.5176(7) 0.0747(3)
C8B C -0.2359(6) 0.5385(7) 0.0343(3)
H4B H -0.1821 0.5577 0.0331
C9B C -0.2802(6) 0.5316(6) -0.0038(3)
C10B C -0.3617(7) 0.5054(7) -0.0025(3)
H5B H -0.3928 0.5028 -0.0280
C11B C -0.3956(6) 0.4834(8) 0.0370(3)
H6B H -0.4489 0.4629 0.0380
C12B C -0.3506(6) 0.4916(7) 0.0757(3)
H7B H -0.3754 0.4795 0.1023
C13B C -0.0075(6) 0.4605(6) 0.1539(3)
C14B C -0.2484(6) 0.5664(6) 0.2364(3)
C15B C -0.2433(6) 0.5572(6) -0.0463(3)
O1B O 0.0268(4) 0.4502(5) 0.11697(19)
O2B O 0.0236(4) 0.4449(4) 0.19036(19)
O3B O -0.2082(5) 0.5892(5) 0.2689(2)
O4B O -0.3260(4) 0.5588(5) 0.23755(19)
O5B O -0.1659(4) 0.5613(5) -0.04752(19)
O6B O -0.2853(4) 0.5730(5) -0.0789(2)
O7B O 0.1771(4) 0.3521(4) 0.15292(16)
H12B H 0.2285 0.3600 0.1505
Zn1H Zn 0.62421(7) 0.88783(8) -0.10042(3)
Zn1I Zn -0.38783(8) 0.62421(7) -0.10042(3)
Zn1J Zn -0.12421(7) 0.61217(8) -0.10042(3)
Zn1K Zn 0.88783(8) 0.87579(7) -0.10042(3)
Zn2D Zn 0.86196(7) 0.90979(9) 0.29633(4)
Zn2E Zn -0.36196(7) 0.59021(9) 0.29633(4)
Zn2F Zn 0.59021(9) 0.86196(7) 0.29633(4)
Zn2G Zn -0.09021(9) 0.63804(7) 0.29633(4)
O3F O 0.4108(5) 1.2082(5) 0.2311(2)
O3G O 0.0892(5) 0.2918(5) 0.2311(2)
O4D O 0.3260(4) 1.0588(5) 0.26245(19)
O4E O 0.1740(4) 0.4412(5) 0.26245(19)
O5H O 0.3341(4) 1.0613(5) 0.04752(19)
O5J O 0.1659(4) 0.4387(5) 0.04752(19)
O6I O 0.4270(5) 1.2147(4) 0.0789(2)
O6K O 0.0730(5) 0.2853(4) 0.0789(2)
loop_
_geom_bond_atom_site_label_1
_geom_bond_atom_site_label_2
_geom_bond_site_symmetry_1
_geom_bond_site_symmetry_2
Zn1 O1 1_555 1_555
Zn2 N1 1_555 1_555
C1 C2 1_555 1_555
C2 H1 1_555 1_555
C3 C2 1_555 1_555
C4 C3 1_555 1_555
H2 C4 1_555 1_555
C5 C4 1_555 1_555
C6 C1 1_555 1_555
H3 C6 1_555 1_555
C7 C5 1_555 1_555
C8 C7 1_555 1_555
H4 C8 1_555 1_555
C9 C8 1_555 1_555
C10 C9 1_555 1_555
H5 C10 1_555 1_555
C11 C10 1_555 1_555
H6 C11 1_555 1_555
C12 C7 1_555 1_555
H7 C12 1_555 1_555
C13 C1 1_555 1_555
C14 C3 1_555 1_555
C15 C9 1_555 1_555
C16 H8 1_555 1_555
C17 C16 1_555 1_555
H9 C17 1_555 1_555
C18 C17 1_555 1_555
C19 C18 1_555 1_555
H10 C19 1_555 1_555
C20 C19 1_555 1_555
H11 C20 1_555 1_555
N1 C16 1_555 1_555
O1 C13 1_555 1_555
O2 Zn2 1_555 1_555
O3 C14 1_555 1_555
O4 C14 1_555 1_555
O5 C15 1_555 1_555
O6 C15 1_555 1_555
O7 Zn1 1_555 1_555
H12 O7 1_555 1_555
C16B H8B 1_555 1_555
C17B C16B 1_555 1_555
H9B C17B 1_555 1_555
C18B C18 1_555 1_555
C19B C18B 1_555 1_555
H10B C19B 1_555 1_555
C20B C19B 1_555 1_555
H11B C20B 1_555 1_555
N1B C16B 1_555 1_555
Zn1B O1B 1_555 1_555
Zn2B N1B 1_555 1_555
C1B C2B 1_555 1_555
C2B H1B 1_555 1_555
C3B C2B 1_555 1_555
C4B C3B 1_555 1_555
H2B C4B 1_555 1_555
C5B C4B 1_555 1_555
C6B C1B 1_555 1_555
H3B C6B 1_555 1_555
C7B C5B 1_555 1_555
C8B C7B 1_555 1_555
H4B C8B 1_555 1_555
C9B C8B 1_555 1_555
C10B C9B 1_555 1_555
H5B C10B 1_555 1_555
C11B C10B 1_555 1_555
H6B C11B 1_555 1_555
C12B C7B 1_555 1_555
H7B C12B 1_555 1_555
C13B C1B 1_555 1_555
C14B C3B 1_555 1_555
C15B C9B 1_555 1_555
O1B C13B 1_555 1_555
O2B Zn2B 1_555 1_555
O3B C14B 1_555 1_555
O4B C14B 1_555 1_555
O5B C15B 1_555 1_555
O6B C15B 1_555 1_555
O7B Zn1B 1_555 1_555
H12B O7B 1_555 1_555
Zn1H O5 1_555 1_555
Zn1I O6B 1_555 1_555
Zn1J O5B 1_555 1_555
Zn1K O6 1_555 1_555
Zn2D O4 1_555 1_555
Zn2E O4B 1_555 1_555
Zn2F O3 1_555 1_555
Zn2G O3B 1_555 1_555
O3F Zn2 1_555 1_555
O3G Zn2B 1_555 1_555
O4D Zn2 1_555 1_555
O4E Zn2B 1_555 1_555
O5H Zn1 1_555 1_555
O5J Zn1B 1_555 1_555
O6I Zn1 1_555 1_555
O6K Zn1B 1_555 1_555
Zn2 O7 1_555 1_555
C5 C6 1_555 1_555
C11 C12 1_555 1_555
C13 O2 1_555 1_555
C20 N1 1_555 1_555
C17B C18B 1_555 1_555
C20B N1B 1_555 1_555
Zn2B O7B 1_555 1_555
C5B C6B 1_555 1_555
C11B C12B 1_555 1_555
C13B O2B 1_555 1_555

#END
