
#######################################################################
#
#                 Cambridge Crystallographic Data Centre
#                                CCDC 
#
#######################################################################
#
# If this CIF has been generated from an entry in the Cambridge 
# Structural Database, then it will include bibliographic, chemical, 
# crystal, experimental, refinement or atomic coordinate data resulting 
# from the CCDC's data processing and validation procedures.
#
#######################################################################

data_YOCFON
_symmetry_cell_setting           monoclinic
_symmetry_space_group_name_H-M   'P 21/c'
_symmetry_Int_Tables_number      14
_space_group_name_Hall           '-P 2ybc'
loop_
_symmetry_equiv_pos_site_id
_symmetry_equiv_pos_as_xyz
1 x,y,z
2 -x,1/2+y,1/2-z
3 -x,-y,-z
4 x,1/2-y,1/2+z
_cell_length_a                   11.5558(7)
_cell_length_b                   22.0004(12)
_cell_length_c                   7.8020(5)
_cell_angle_alpha                90
_cell_angle_beta                 104.3890(10)
_cell_angle_gamma                90
_cell_volume                     1921.3
loop_
_atom_site_label
_atom_site_type_symbol
_atom_site_fract_x
_atom_site_fract_y
_atom_site_fract_z
Ag1 Ag 0.21596(3) 0.447843(16) 1.06885(5)
Ag2 Ag 0.41844(3) 0.434645(16) 1.37974(5)
Ag3 Ag 0.59479(4) 0.451543(18) 1.17586(6)
S1 S 0.62769(9) 0.60632(5) 1.20620(14)
O1 O 0.2933(3) 0.54320(14) 1.0823(4)
O2 O 0.4127(3) 0.53472(16) 1.3556(4)
O3 O 0.5759(3) 0.55204(16) 1.1043(5)
O4 O 0.6824(3) 0.59047(19) 1.3876(5)
O5 O 0.7043(3) 0.63927(17) 1.1198(5)
O6 O 0.5460(3) 0.84171(15) 1.1867(5)
O7 O 0.3652(3) 0.85773(16) 1.2283(5)
N1 N 0.0603(3) 0.46268(18) 0.8067(5)
N2 N 0.0489(3) 0.56553(18) 0.8432(6)
H1 H 0.1199 0.5619 0.9102
N3 N -0.1182(3) 0.62827(18) 0.8273(6)
C1 C 0.3654(4) 0.56440(19) 1.2161(6)
C2 C 0.3931(4) 0.63094(19) 1.2140(6)
C3 C 0.5043(4) 0.65448(19) 1.2074(5)
C4 C 0.5210(4) 0.7166(2) 1.2021(6)
H2 H 0.5946 0.7318 1.1943
C5 C 0.4290(4) 0.7568(2) 1.2083(6)
C6 C 0.3190(4) 0.7331(2) 1.2139(7)
H3 H 0.2561 0.7593 1.2155
C7 C 0.3018(4) 0.6713(2) 1.2173(7)
H4 H 0.2273 0.6564 1.2219
C8 C 0.4481(4) 0.8243(2) 1.2062(6)
C9 C 0.0182(5) 0.4103(2) 0.7209(7)
H5 H 0.0622 0.3749 0.7529
C10 C -0.0846(4) 0.4069(2) 0.5911(6)
H6 H -0.1114 0.3701 0.5369
C11 C -0.1480(4) 0.4603(3) 0.5424(7)
H7 H -0.2185 0.4595 0.4534
C12 C -0.1080(4) 0.5139(2) 0.6238(6)
H8 H -0.1503 0.5498 0.5911
C13 C -0.0019(4) 0.5136(2) 0.7576(6)
C14 C -0.0016(4) 0.6229(2) 0.8334(6)
C15 C 0.0711(5) 0.6734(3) 0.8354(8)
H9 H 0.1519 0.6688 0.8411
C16 C 0.0214(6) 0.7300(3) 0.8289(10)
H10 H 0.0689 0.7644 0.8341
C17 C -0.1006(5) 0.7359(3) 0.8145(11)
H11 H -0.1370 0.7739 0.8037
C18 C -0.1650(5) 0.6840(2) 0.8166(8)
H12 H -0.2461 0.6877 0.8102
Ag1B Ag -0.21596(3) 0.552157(16) 0.93115(5)
Ag1B_2 Ag 0.78404(3) 0.552157(16) 0.93115(5)
Ag2A Ag 0.58156(3) 0.934645(16) 1.12026(5)
Ag2B Ag 0.58156(3) 0.565355(16) 1.62026(5)
Ag3A Ag 0.40521(4) 0.951543(18) 1.32414(6)
Ag3B Ag 0.40521(4) 0.548457(18) 0.82414(6)
O1B O 0.7067(3) 0.45680(14) 0.9177(4)
O2B O 0.5873(3) 0.46528(16) 1.6444(4)
O3B O 0.4241(3) 0.44796(16) 0.8957(5)
O4B O 0.3176(3) 0.40953(19) 1.6124(5)
O5B O 0.2957(3) 0.36073(17) 0.8802(5)
O6A O 0.4540(3) 0.34171(15) 1.3133(5)
O7A O 0.6348(3) 0.35773(16) 1.2717(5)
N3B N 0.1182(3) 0.37173(18) 1.1727(6)
loop_
_geom_bond_atom_site_label_1
_geom_bond_atom_site_label_2
_geom_bond_site_symmetry_1
_geom_bond_site_symmetry_2
Ag1 Ag2 1_555 1_555
Ag2 Ag3 1_555 1_555
Ag3 O3 1_555 1_555
S1 O3 1_555 1_555
O1 Ag1 1_555 1_555
O2 Ag2 1_555 1_555
O3 Ag3B 1_555 1_555
O4 S1 1_555 1_555
O5 S1 1_555 1_555
O6 C8 1_555 1_555
O7 C8 1_555 1_555
N1 Ag1 1_555 1_555
N2 H1 1_555 1_555
N3 C14 1_555 1_555
C1 O1 1_555 1_555
C2 C1 1_555 1_555
C3 S1 1_555 1_555
C4 C3 1_555 1_555
H2 C4 1_555 1_555
C5 C4 1_555 1_555
C6 C5 1_555 1_555
H3 C6 1_555 1_555
C7 C2 1_555 1_555
H4 C7 1_555 1_555
C8 C5 1_555 1_555
C9 N1 1_555 1_555
H5 C9 1_555 1_555
C10 C9 1_555 1_555
H6 C10 1_555 1_555
C11 C10 1_555 1_555
H7 C11 1_555 1_555
C12 C11 1_555 1_555
H8 C12 1_555 1_555
C13 N1 1_555 1_555
C14 N2 1_555 1_555
C15 C14 1_555 1_555
H9 C15 1_555 1_555
C16 C15 1_555 1_555
H10 C16 1_555 1_555
C17 C16 1_555 1_555
H11 C17 1_555 1_555
C18 N3 1_555 1_555
H12 C18 1_555 1_555
Ag1B N3 1_555 1_555
Ag1B_2 O5 1_555 1_555
Ag2A O6 1_555 1_555
Ag2B O2 1_555 1_555
Ag3A O7 1_555 1_555
Ag3B O1 1_555 1_555
O1B Ag3 1_555 1_555
O2B Ag2 1_555 1_555
O3B Ag3 1_555 1_555
O4B Ag2 1_555 1_555
O5B Ag1 1_555 1_555
O6A Ag2 1_555 1_555
O7A Ag3 1_555 1_555
N3B Ag1 1_555 1_555
O2 C1 1_555 1_555
O4 Ag2B 1_555 1_555
N2 C13 1_555 1_555
C2 C3 1_555 1_555
C6 C7 1_555 1_555
C12 C13 1_555 1_555
C17 C18 1_555 1_555
Ag1B_2 O1B 1_555 1_555
Ag2A Ag3A 1_555 1_555
Ag2B O2B 1_555 1_555
Ag3B O3B 1_555 1_555

#END
