
#######################################################################
#
#                 Cambridge Crystallographic Data Centre
#                                CCDC 
#
#######################################################################
#
# If this CIF has been generated from an entry in the Cambridge 
# Structural Database, then it will include bibliographic, chemical, 
# crystal, experimental, refinement or atomic coordinate data resulting 
# from the CCDC's data processing and validation procedures.
#
#######################################################################

data_YOCGEE
_symmetry_cell_setting           monoclinic
_symmetry_space_group_name_H-M   'P 21/c'
_symmetry_Int_Tables_number      14
_space_group_name_Hall           '-P 2ybc'
loop_
_symmetry_equiv_pos_site_id
_symmetry_equiv_pos_as_xyz
1 x,y,z
2 -x,1/2+y,1/2-z
3 -x,-y,-z
4 x,1/2-y,1/2+z
_cell_length_a                   11.3723(16)
_cell_length_b                   20.484(3)
_cell_length_c                   8.8985(13)
_cell_angle_alpha                90
_cell_angle_beta                 110.999(2)
_cell_angle_gamma                90
_cell_volume                     1935.24
loop_
_atom_site_label
_atom_site_type_symbol
_atom_site_fract_x
_atom_site_fract_y
_atom_site_fract_z
Ag1 Ag 0.56761(3) 0.430530(17) 0.58751(4)
C1 C 0.2366(4) 0.7234(2) 0.8526(5)
H1 H 0.2779 0.7551 0.8151
C2 C 0.1103(4) 0.7305(2) 0.8304(6)
H2 H 0.0666 0.7673 0.7785
C3 C 0.0499(4) 0.6838(3) 0.8844(5)
H3 H -0.0346 0.6891 0.8703
C4 C 0.1133(4) 0.6286(3) 0.9597(6)
H4 H 0.0709 0.5965 0.9943
C5 C 0.2400(4) 0.6206(2) 0.9841(5)
H5 H 0.2835 0.5836 1.0351
C6 C 0.2998(3) 0.6690(2) 0.9309(5)
C7 C 0.5288(3) 0.69837(19) 1.0478(4)
C8 C 0.6374(3) 0.67372(18) 1.0369(4)
C9 C 0.5952(3) 0.61964(18) 0.9317(4)
C10 C 0.7651(4) 0.7018(2) 1.1190(5)
C11 C 0.6674(4) 0.5717(2) 0.8704(6)
C12 C 0.8456(3) 0.4636(2) 0.6903(5)
H6 H 0.8232 0.4917 0.7578
C13 C 0.9693(3) 0.4628(2) 0.6998(5)
H7 H 1.0281 0.4897 0.7732
C14 C 1.0065(3) 0.42219(17) 0.6009(4)
C15 C 0.9133(3) 0.3841(2) 0.4950(5)
H8 H 0.9326 0.3565 0.4241
C16 C 0.7920(3) 0.3868(2) 0.4936(5)
H9 H 0.7317 0.3598 0.4225
C17 C 1.3497(3) 0.4625(2) 0.6969(5)
H10 H 1.4084 0.4920 0.7611
C18 C 1.2294(3) 0.46369(19) 0.6999(5)
H11 H 1.2088 0.4937 0.7650
C19 C 1.1388(3) 0.42055(17) 0.6064(4)
C20 C 1.1781(3) 0.3766(2) 0.5156(5)
H12 H 1.1222 0.3456 0.4529
C21 C 1.2996(4) 0.3787(2) 0.5181(6)
H13 H 1.3230 0.3491 0.4547
Cl1 Cl 0.50406(11) 0.76283(6) 1.15331(15)
N1 N 0.7566(3) 0.42607(16) 0.5886(4)
N2 N 1.3858(3) 0.42112(16) 0.6068(4)
N3 N 0.4314(3) 0.66145(15) 0.9564(4)
N4 N 0.4706(3) 0.61262(16) 0.8831(4)
O1 O 0.6065(3) 0.53288(17) 0.7654(4)
O2 O 0.7858(3) 0.57493(16) 0.9290(4)
O3 O 0.8602(2) 0.67198(16) 1.1008(4)
H14 H 0.8351 0.6396 1.0442
O4 O 0.7788(3) 0.75081(16) 1.1998(4)
Ag1_2 Ag 1.56761(3) 0.430530(17) 0.58751(4)
N2_2 N 0.3858(3) 0.42112(16) 0.6068(4)
loop_
_geom_bond_atom_site_label_1
_geom_bond_atom_site_label_2
_geom_bond_site_symmetry_1
_geom_bond_site_symmetry_2
Ag1 N1 1_555 1_555
C1 H1 1_555 1_555
C2 C1 1_555 1_555
H2 C2 1_555 1_555
C3 C2 1_555 1_555
H3 C3 1_555 1_555
C4 C3 1_555 1_555
H4 C4 1_555 1_555
C5 C4 1_555 1_555
H5 C5 1_555 1_555
C6 C1 1_555 1_555
C7 C8 1_555 1_555
C8 C9 1_555 1_555
C9 C11 1_555 1_555
C10 C8 1_555 1_555
C11 O1 1_555 1_555
C12 H6 1_555 1_555
C13 C12 1_555 1_555
H7 C13 1_555 1_555
C14 C13 1_555 1_555
C15 C14 1_555 1_555
H8 C15 1_555 1_555
C16 C15 1_555 1_555
H9 C16 1_555 1_555
C17 H10 1_555 1_555
C18 C17 1_555 1_555
H11 C18 1_555 1_555
C19 C14 1_555 1_555
C20 C19 1_555 1_555
H12 C20 1_555 1_555
C21 C20 1_555 1_555
H13 C21 1_555 1_555
Cl1 C7 1_555 1_555
N1 C12 1_555 1_555
N2 C17 1_555 1_555
N3 C6 1_555 1_555
N4 C9 1_555 1_555
O1 Ag1 1_555 1_555
O2 C11 1_555 1_555
O3 C10 1_555 1_555
H14 O3 1_555 1_555
O4 C10 1_555 1_555
Ag1_2 N2 1_555 1_555
N2_2 Ag1 1_555 1_555
C5 C6 1_555 1_555
C7 N3 1_555 1_555
C16 N1 1_555 1_555
C18 C19 1_555 1_555
C21 N2 1_555 1_555
N3 N4 1_555 1_555

#END
