
#######################################################################
#
#                 Cambridge Crystallographic Data Centre
#                                CCDC 
#
#######################################################################
#
# If this CIF has been generated from an entry in the Cambridge 
# Structural Database, then it will include bibliographic, chemical, 
# crystal, experimental, refinement or atomic coordinate data resulting 
# from the CCDC's data processing and validation procedures.
#
#######################################################################

data_YOCPEM
_symmetry_cell_setting           monoclinic
_symmetry_space_group_name_H-M   'C 2/c'
_symmetry_Int_Tables_number      15
_space_group_name_Hall           '-C 2yn'
loop_
_symmetry_equiv_pos_site_id
_symmetry_equiv_pos_as_xyz
1 x,y,z
2 1/2+x,1/2+y,z
3 -x,y,1/2-z
4 1/2-x,1/2+y,1/2-z
5 -x,-y,-z
6 1/2-x,1/2-y,-z
7 x,-y,1/2+z
8 1/2+x,1/2-y,1/2+z
_cell_length_a                   19.6621(6)
_cell_length_b                   16.0190(6)
_cell_length_c                   14.8755(5)
_cell_angle_alpha                90
_cell_angle_beta                 111.504(2)
_cell_angle_gamma                90
_cell_volume                     4359.16
loop_
_atom_site_label
_atom_site_type_symbol
_atom_site_fract_x
_atom_site_fract_y
_atom_site_fract_z
Br1 Br 1.104271(13) 1.027190(17) 0.93289(2)
Ni1 Ni 0.833627(16) 0.667412(18) 0.78863(2)
O1 O 0.92550(9) 0.75627(10) 0.83248(13)
N1 N 0.83251(11) 0.66980(12) 0.93619(15)
C1 C 0.87970(13) 0.81533(14) 0.80832(16)
O2 O 0.81214(9) 0.80030(10) 0.77426(13)
N2 N 0.90493(11) 0.56123(12) 0.82571(14)
C2 C 0.82483(13) 1.12204(14) 0.78305(16)
O3 O 0.75769(9) 1.09924(11) 0.75262(12)
N3 N 0.83124(11) 0.66766(12) 0.63935(15)
C3 C 0.87912(12) 1.05099(14) 0.81091(16)
O4 O 0.84705(11) 1.19426(11) 0.79268(15)
C4 C 0.95349(12) 1.06846(14) 0.85107(16)
H1 H 0.9698 1.1234 0.8609
C5 C 1.00279(12) 1.00317(15) 0.87614(16)
C6 C 0.98030(12) 0.92097(14) 0.86223(17)
H2 H 1.0143 0.8778 0.8796
C7 C 0.90594(12) 0.90378(13) 0.82181(16)
C8 C 0.85606(13) 0.96895(14) 0.79651(16)
H3 H 0.8063 0.9572 0.7694
C9 C 0.85644(15) 0.73386(16) 0.99719(19)
H4 H 0.8809 0.7770 0.9799
C10 C 0.79950(15) 0.60768(16) 0.9655(2)
H5 H 0.7834 0.5614 0.9256
C11 C 0.84689(16) 0.73964(17) 1.0846(2)
H6 H 0.8646 0.7855 1.1247
C12 C 0.78831(15) 0.60906(19) 1.0510(2)
H7 H 0.7655 0.5644 1.0684
C13 C 0.81117(16) 0.67711(18) 1.1112(2)
H8 H 0.8025 0.6803 1.1685
C14 C 0.97593(15) 0.57400(17) 0.8668(2)
H9 H 0.9924 0.6288 0.8794
C15 C 0.88262(15) 0.48241(16) 0.8088(2)
H10 H 0.8328 0.4721 0.7791
C16 C 1.02719(16) 0.5108(2) 0.8921(3)
H11 H 1.0768 0.5228 0.9200
C17 C 0.92961(17) 0.41524(17) 0.8331(2)
H12 H 0.9118 0.3609 0.8213
C18 C 1.00334(17) 0.43030(19) 0.8752(2)
H13 H 1.0365 0.3863 0.8918
C19 C 0.77634(15) 0.63156(16) 0.56745(19)
H14 H 0.7427 0.6000 0.5835
C20 C 0.87919(15) 0.71115(17) 0.6137(2)
H15 H 0.9185 0.7359 0.6621
C21 C 0.76665(16) 0.63834(18) 0.4714(2)
H16 H 0.7276 0.6118 0.4244
C22 C 0.87340(17) 0.72126(19) 0.5186(2)
H17 H 0.9080 0.7522 0.5040
C23 C 0.81539(16) 0.68473(18) 0.4458(2)
H18 H 0.8096 0.6914 0.3813
Ni1C Ni 0.666373(16) 1.167412(18) 0.71137(2)
O3C O 0.74231(9) 0.59924(11) 0.74738(12)
loop_
_geom_bond_atom_site_label_1
_geom_bond_atom_site_label_2
_geom_bond_site_symmetry_1
_geom_bond_site_symmetry_2
Br1 C5 1_555 1_555
Ni1 O1 1_555 1_555
O1 C1 1_555 1_555
N1 Ni1 1_555 1_555
C1 O2 1_555 1_555
O2 Ni1 1_555 1_555
N2 Ni1 1_555 1_555
C2 O3 1_555 1_555
O3 Ni1C 1_555 1_555
N3 Ni1 1_555 1_555
C3 C2 1_555 1_555
O4 C2 1_555 1_555
C4 C3 1_555 1_555
H1 C4 1_555 1_555
C5 C4 1_555 1_555
C6 C5 1_555 1_555
H2 C6 1_555 1_555
C7 C1 1_555 1_555
C8 C3 1_555 1_555
H3 C8 1_555 1_555
C9 N1 1_555 1_555
H4 C9 1_555 1_555
C10 N1 1_555 1_555
H5 C10 1_555 1_555
C11 C9 1_555 1_555
H6 C11 1_555 1_555
C12 C10 1_555 1_555
H7 C12 1_555 1_555
C13 C11 1_555 1_555
H8 C13 1_555 1_555
C14 N2 1_555 1_555
H9 C14 1_555 1_555
C15 N2 1_555 1_555
H10 C15 1_555 1_555
C16 C14 1_555 1_555
H11 C16 1_555 1_555
C17 C15 1_555 1_555
H12 C17 1_555 1_555
C18 C16 1_555 1_555
H13 C18 1_555 1_555
C19 N3 1_555 1_555
H14 C19 1_555 1_555
C20 N3 1_555 1_555
H15 C20 1_555 1_555
C21 C19 1_555 1_555
H16 C21 1_555 1_555
C22 C20 1_555 1_555
H17 C22 1_555 1_555
C23 C21 1_555 1_555
H18 C23 1_555 1_555
O3C Ni1 1_555 1_555
C6 C7 1_555 1_555
C7 C8 1_555 1_555
C12 C13 1_555 1_555
C17 C18 1_555 1_555
C22 C23 1_555 1_555

#END
