
#######################################################################
#
#                 Cambridge Crystallographic Data Centre
#                                CCDC 
#
#######################################################################
#
# If this CIF has been generated from an entry in the Cambridge 
# Structural Database, then it will include bibliographic, chemical, 
# crystal, experimental, refinement or atomic coordinate data resulting 
# from the CCDC's data processing and validation procedures.
#
#######################################################################

data_YOCZEX
_symmetry_cell_setting           triclinic
_symmetry_space_group_name_H-M   'P -1'
_symmetry_Int_Tables_number      2
_space_group_name_Hall           '-P 1'
loop_
_symmetry_equiv_pos_site_id
_symmetry_equiv_pos_as_xyz
1 x,y,z
2 -x,-y,-z
_cell_length_a                   11.5825(9)
_cell_length_b                   11.6170(7)
_cell_length_c                   16.3471(13)
_cell_angle_alpha                76.488(7)
_cell_angle_beta                 75.077(7)
_cell_angle_gamma                81.263(6)
_cell_volume                     2056.68
loop_
_atom_site_label
_atom_site_type_symbol
_atom_site_fract_x
_atom_site_fract_y
_atom_site_fract_z
Co1 Co 0.5000 0.5000 0.5000
Co2 Co 0.0000 1.0000 1.0000
Al1 Al -0.24427(15) 0.79516(18) 0.59757(14)
S1 S -0.3156(3) 1.2533(3) 0.8963(2)
O1 O -0.0945(3) 0.7374(4) 0.6227(3)
O2 O -0.2177(4) 0.6949(4) 0.5176(3)
O3 O -0.1739(3) 0.9120(4) 0.5052(3)
O4 O -0.2653(4) 0.9035(4) 0.6700(3)
N1 N 0.3589(4) 0.5990(5) 0.4405(4)
O5 O -0.3145(4) 0.6797(4) 0.6885(3)
O6 O -0.3987(4) 0.8438(5) 0.5801(3)
C1 C 0.2854(5) 0.6864(6) 0.4737(5)
H1 H 0.3016 0.7088 0.5204
C2 C -0.0941(5) 0.8987(6) 0.4373(5)
N2 N -0.0450(5) 0.8455(6) 0.9623(4)
C3 C 0.1602(5) 0.7125(6) 0.3744(4)
O7 O 0.5606(4) 0.6610(4) 0.5027(4)
H2 H 0.6351 0.6581 0.5005
H3 H 0.5214 0.7057 0.5371
C4 C -0.0592(5) 0.7867(6) 0.4117(4)
C5 C -0.4763(6) 0.9233(9) 0.6088(5)
C6 C -0.1280(5) 0.6943(6) 0.4522(4)
C7 C 0.0507(5) 0.7719(6) 0.3399(4)
H4 H 0.0684 0.8495 0.3044
H5 H 0.0339 0.7244 0.3036
C8 C -0.0743(6) 0.6776(6) 0.6928(5)
N3 N -0.1108(6) 1.1149(7) 0.9283(4)
N4 N -0.8491(5) 1.0281(6) 0.8902(4)
C9 C 0.2358(5) 0.6224(6) 0.3399(5)
H6 H 0.2200 0.5964 0.2945
C10 C -0.1592(7) 0.6265(6) 0.7643(5)
C11 C -0.2788(7) 0.6312(6) 0.7575(5)
C12 C -0.1023(6) 0.5778(6) 0.4180(5)
H7 H -0.1213 0.5119 0.4655
H8 H -0.0190 0.5674 0.3897
H9 H -0.1507 0.5816 0.3776
C13 C -0.3529(7) 0.9832(6) 0.6874(5)
C14 C 0.3335(5) 0.5716(6) 0.3724(5)
H10 H 0.3852 0.5148 0.3456
C15 C 0.0573(6) 0.6633(7) 0.6972(5)
H11 H 0.1073 0.6738 0.6397
H12 H 0.0768 0.5852 0.7289
H13 H 0.0707 0.7218 0.7257
C16 C 0.1873(5) 0.7450(6) 0.4429(5)
H14 H 0.1400 0.8056 0.4680
C17 C -0.0427(6) 1.0101(6) 0.3833(5)
H15 H -0.0900 1.0778 0.4032
H16 H -0.0434 1.0151 0.3240
H17 H 0.0384 1.0087 0.3882
C18 C -0.6537(7) 1.0750(8) 0.7501(5)
C19 C -0.4546(7) 1.0029(8) 0.6540(6)
C20 C 0.0255(7) 0.7425(8) 0.9579(5)
H18 H 0.0946 0.7318 0.9789
C21 C -0.0977(7) 0.6642(7) 0.8936(5)
C22 C -0.7480(7) 1.1610(8) 0.7645(5)
H19 H -0.7482 1.2356 0.7281
C23 C -0.8420(7) 1.1330(9) 0.8346(6)
H20 H -0.9054 1.1915 0.8440
C24 C -0.7569(7) 0.9482(8) 0.8746(5)
H21 H -0.7577 0.8744 0.9120
C25 C -0.5996(6) 0.9207(10) 0.5937(6)
H22 H -0.5912 0.8915 0.5419
H23 H -0.6401 0.9996 0.5876
H24 H -0.6454 0.8692 0.6419
C26 C -0.3374(8) 1.0506(8) 0.7523(6)
H25 H -0.2685 1.0146 0.7746
H26 H -0.4076 1.0479 0.7989
H27 H -0.3261 1.1319 0.7244
C27 C -0.1243(8) 0.5718(7) 0.8491(5)
H28 H -0.0537 0.5157 0.8386
H29 H -0.1889 0.5279 0.8877
C28 C 0.0027(7) 0.6518(8) 0.9247(6)
H30 H 0.0553 0.5830 0.9236
C29 C -0.3781(7) 0.5795(7) 0.8305(6)
H31 H -0.4086 0.6345 0.8685
H32 H -0.3473 0.5059 0.8621
H33 H -0.4416 0.5653 0.8073
C30 C -0.1735(8) 0.7667(9) 0.8990(7)
H34 H -0.2444 0.7771 0.8804
C31 C -0.6590(7) 0.9682(7) 0.8057(6)
H35 H -0.5966 0.9083 0.7975
C32 C -0.5490(8) 1.1068(8) 0.6736(7)
H36 H -0.5097 1.1679 0.6844
H37 H -0.5804 1.1405 0.6227
C33 C -0.1440(7) 0.8535(8) 0.9322(6)
H38 H -0.1962 0.9227 0.9339
C34 C -0.1934(7) 1.1747(8) 0.9128(5)
S2 S 0.2952(3) 0.4706(5) 0.7964(2)
N5 N 0.3865(5) 0.5015(7) 0.6206(5)
C35 C 0.3494(7) 0.4923(10) 0.6926(6)
Al1A Al -0.75573(15) 1.20484(18) 1.40243(14)
O1A O -0.9055(3) 1.2626(4) 1.3773(3)
O2A O -0.7823(4) 1.3051(4) 1.4824(3)
O3A O -0.8261(3) 1.0880(4) 1.4948(3)
O4A O -0.7347(4) 1.0965(4) 1.3300(3)
N1A N -1.3589(4) 1.4010(5) 1.5595(4)
O5A O -0.6855(4) 1.3203(4) 1.3115(3)
O6A O -0.6013(4) 1.1562(5) 1.4199(3)
C1A C -1.2854(5) 1.3136(6) 1.5263(5)
H1A H -1.3016 1.2912 1.4796
C2A C -0.9059(5) 1.1013(6) 1.5627(5)
N2A N -0.9550(5) 1.1545(6) 1.0377(4)
C3A C -1.1602(5) 1.2875(6) 1.6256(4)
C4A C -0.9408(5) 1.2133(6) 1.5883(4)
C5A C -0.5237(6) 1.0767(9) 1.3912(5)
C6A C -0.8720(5) 1.3057(6) 1.5478(4)
C7A C -1.0507(5) 1.2281(6) 1.6601(4)
H4A H -1.0684 1.1505 1.6956
H5A H -1.0339 1.2756 1.6964
C8A C -0.9257(6) 1.3224(6) 1.3072(5)
N4A N -0.1509(5) 0.9719(6) 1.1098(4)
C9A C -1.2358(5) 1.3776(6) 1.6601(5)
H6A H -1.2200 1.4036 1.7055
C10A C -0.8408(7) 1.3735(6) 1.2357(5)
C11A C -0.7212(7) 1.3688(6) 1.2425(5)
C12A C -0.8977(6) 1.4222(6) 1.5820(5)
H7A H -0.8787 1.4881 1.5345
H8A H -0.9810 1.4326 1.6103
H9A H -0.8493 1.4184 1.6224
C13A C -0.6471(7) 1.0168(6) 1.3126(5)
C14A C -1.3335(5) 1.4284(6) 1.6276(5)
H10A H -1.3852 1.4852 1.6544
C15A C -1.0573(6) 1.3367(7) 1.3028(5)
H11A H -1.1073 1.3262 1.3603
H12A H -1.0768 1.4148 1.2711
H13A H -1.0707 1.2782 1.2743
C16A C -1.1873(5) 1.2550(6) 1.5571(5)
H14A H -1.1400 1.1944 1.5320
C17A C -0.9573(6) 0.9899(6) 1.6167(5)
H15A H -0.9100 0.9222 1.5968
H16A H -0.9566 0.9849 1.6760
H17A H -1.0384 0.9913 1.6118
C18A C -0.3463(7) 0.9250(8) 1.2499(5)
C19A C -0.5454(7) 0.9971(8) 1.3460(6)
C20A C -1.0255(7) 1.2575(8) 1.0421(5)
H18A H -1.0946 1.2682 1.0211
C21A C -0.9023(7) 1.3358(7) 1.1064(5)
C22A C -0.2520(7) 0.8390(8) 1.2355(5)
H19A H -0.2518 0.7644 1.2719
C23A C -0.1580(7) 0.8670(9) 1.1654(6)
H20A H -0.0946 0.8085 1.1560
C24A C -0.2431(7) 1.0518(8) 1.1254(5)
H21A H -0.2423 1.1256 1.0880
C25A C -0.4004(6) 1.0793(10) 1.4063(6)
H22A H -0.4088 1.1085 1.4581
H23A H -0.3599 1.0004 1.4124
H24A H -0.3546 1.1308 1.3581
C26A C -0.6626(8) 0.9494(8) 1.2477(6)
H25A H -0.7315 0.9854 1.2254
H26A H -0.5924 0.9521 1.2011
H27A H -0.6739 0.8681 1.2756
C27A C -0.8757(8) 1.4282(7) 1.1509(5)
H28A H -0.9463 1.4843 1.1614
H29A H -0.8111 1.4721 1.1123
C28A C -1.0027(7) 1.3482(8) 1.0753(6)
H30A H -1.0553 1.4170 1.0764
C29A C -0.6219(7) 1.4205(7) 1.1695(6)
H31A H -0.5914 1.3655 1.1315
H32A H -0.6527 1.4941 1.1379
H33A H -0.5584 1.4347 1.1927
C30A C -0.8265(8) 1.2333(9) 1.1010(7)
H34A H -0.7556 1.2229 1.1196
C31A C -0.3410(7) 1.0318(7) 1.1943(6)
H35A H -0.4034 1.0917 1.2025
C32A C -0.4510(8) 0.8932(8) 1.3264(7)
H36A H -0.4903 0.8321 1.3156
H37A H -0.4196 0.8595 1.3773
C33A C -0.8560(7) 1.1465(8) 1.0678(6)
H38A H -0.8038 1.0773 1.0661
S1A S 0.3156(3) 0.7467(3) 1.1037(2)
N3A N 0.1108(6) 0.8851(7) 1.0717(4)
C34A C 0.1934(7) 0.8253(8) 1.0872(5)
O7A O 0.4394(4) 0.3390(4) 0.4973(4)
H2A H 0.3649 0.3419 0.4995
H3A H 0.4786 0.2943 0.4629
S2A S 0.7048(3) 0.5294(5) 0.2036(2)
N5A N 0.6135(5) 0.4985(7) 0.3794(5)
C35A C 0.6506(7) 0.5077(10) 0.3074(6)
Co1_2 Co -1.5000 1.5000 1.5000
Co2_2 Co -1.0000 1.0000 1.0000
N1A_2 N 0.6411(4) 0.4010(5) 0.5595(4)
N2A_2 N 0.0450(5) 1.1545(6) 1.0377(4)
N4_2 N 0.1509(5) 1.0281(6) 0.8902(4)
loop_
_geom_bond_atom_site_label_1
_geom_bond_atom_site_label_2
_geom_bond_site_symmetry_1
_geom_bond_site_symmetry_2
Co1 N1 1_555 1_555
Co2 N2 1_555 1_555
Al1 O1 1_555 1_555
S1 C34 1_555 1_555
O1 C8 1_555 1_555
O2 Al1 1_555 1_555
O3 Al1 1_555 1_555
O4 Al1 1_555 1_555
N1 C1 1_555 1_555
O5 Al1 1_555 1_555
O6 Al1 1_555 1_555
C1 H1 1_555 1_555
C2 O3 1_555 1_555
N2 C20 1_555 1_555
C3 C7 1_555 1_555
O7 Co1 1_555 1_555
H2 O7 1_555 1_555
H3 O7 1_555 1_555
C4 C2 1_555 1_555
C5 O6 1_555 1_555
C6 O2 1_555 1_555
C7 C4 1_555 1_555
H4 C7 1_555 1_555
H5 C7 1_555 1_555
C8 C10 1_555 1_555
N3 Co2 1_555 1_555
N4 C23 1_555 1_555
C9 C3 1_555 1_555
H6 C9 1_555 1_555
C10 C11 1_555 1_555
C11 O5 1_555 1_555
C12 C6 1_555 1_555
H7 C12 1_555 1_555
H8 C12 1_555 1_555
H9 C12 1_555 1_555
C13 O4 1_555 1_555
C14 N1 1_555 1_555
H10 C14 1_555 1_555
C15 C8 1_555 1_555
H11 C15 1_555 1_555
H12 C15 1_555 1_555
H13 C15 1_555 1_555
C16 C1 1_555 1_555
H14 C16 1_555 1_555
C17 C2 1_555 1_555
H15 C17 1_555 1_555
H16 C17 1_555 1_555
H17 C17 1_555 1_555
C18 C22 1_555 1_555
C19 C5 1_555 1_555
C20 H18 1_555 1_555
C21 C27 1_555 1_555
C22 H19 1_555 1_555
C23 C22 1_555 1_555
H20 C23 1_555 1_555
C24 N4 1_555 1_555
H21 C24 1_555 1_555
C25 C5 1_555 1_555
H22 C25 1_555 1_555
H23 C25 1_555 1_555
H24 C25 1_555 1_555
C26 C13 1_555 1_555
H25 C26 1_555 1_555
H26 C26 1_555 1_555
H27 C26 1_555 1_555
C27 C10 1_555 1_555
H28 C27 1_555 1_555
H29 C27 1_555 1_555
C28 C20 1_555 1_555
H30 C28 1_555 1_555
C29 C11 1_555 1_555
H31 C29 1_555 1_555
H32 C29 1_555 1_555
H33 C29 1_555 1_555
C30 C21 1_555 1_555
H34 C30 1_555 1_555
C31 C18 1_555 1_555
H35 C31 1_555 1_555
C32 C18 1_555 1_555
H36 C32 1_555 1_555
H37 C32 1_555 1_555
C33 N2 1_555 1_555
H38 C33 1_555 1_555
C34 N3 1_555 1_555
S2 C35 1_555 1_555
N5 Co1 1_555 1_555
C35 N5 1_555 1_555
Al1A O1A 1_555 1_555
O1A C8A 1_555 1_555
O2A Al1A 1_555 1_555
O3A Al1A 1_555 1_555
O4A Al1A 1_555 1_555
N1A C1A 1_555 1_555
O5A Al1A 1_555 1_555
O6A Al1A 1_555 1_555
C1A H1A 1_555 1_555
C2A O3A 1_555 1_555
N2A C20A 1_555 1_555
C3A C7A 1_555 1_555
C4A C2A 1_555 1_555
C5A O6A 1_555 1_555
C6A O2A 1_555 1_555
C7A C4A 1_555 1_555
H4A C7A 1_555 1_555
H5A C7A 1_555 1_555
C8A C10A 1_555 1_555
N4A Co2 1_555 1_555
C9A C3A 1_555 1_555
H6A C9A 1_555 1_555
C10A C11A 1_555 1_555
C11A O5A 1_555 1_555
C12A C6A 1_555 1_555
H7A C12A 1_555 1_555
H8A C12A 1_555 1_555
H9A C12A 1_555 1_555
C13A O4A 1_555 1_555
C14A N1A 1_555 1_555
H10A C14A 1_555 1_555
C15A C8A 1_555 1_555
H11A C15A 1_555 1_555
H12A C15A 1_555 1_555
H13A C15A 1_555 1_555
C16A C1A 1_555 1_555
H14A C16A 1_555 1_555
C17A C2A 1_555 1_555
H15A C17A 1_555 1_555
H16A C17A 1_555 1_555
H17A C17A 1_555 1_555
C18A C22A 1_555 1_555
C19A C5A 1_555 1_555
C20A H18A 1_555 1_555
C21A C27A 1_555 1_555
C22A H19A 1_555 1_555
C23A N4A 1_555 1_555
H20A C23A 1_555 1_555
C24A N4A 1_555 1_555
H21A C24A 1_555 1_555
C25A C5A 1_555 1_555
H22A C25A 1_555 1_555
H23A C25A 1_555 1_555
H24A C25A 1_555 1_555
C26A C13A 1_555 1_555
H25A C26A 1_555 1_555
H26A C26A 1_555 1_555
H27A C26A 1_555 1_555
C27A C10A 1_555 1_555
H28A C27A 1_555 1_555
H29A C27A 1_555 1_555
C28A C20A 1_555 1_555
H30A C28A 1_555 1_555
C29A C11A 1_555 1_555
H31A C29A 1_555 1_555
H32A C29A 1_555 1_555
H33A C29A 1_555 1_555
C30A C21A 1_555 1_555
H34A C30A 1_555 1_555
C31A C18A 1_555 1_555
H35A C31A 1_555 1_555
C32A C18A 1_555 1_555
H36A C32A 1_555 1_555
H37A C32A 1_555 1_555
C33A N2A 1_555 1_555
H38A C33A 1_555 1_555
S1A C34A 1_555 1_555
N3A Co2 1_555 1_555
C34A N3A 1_555 1_555
O7A Co1 1_555 1_555
H2A O7A 1_555 1_555
H3A O7A 1_555 1_555
S2A C35A 1_555 1_555
N5A Co1 1_555 1_555
C35A N5A 1_555 1_555
Co1_2 N1A 1_555 1_555
Co2_2 N4 1_555 1_555
N1A_2 Co1 1_555 1_555
N2A_2 Co2 1_555 1_555
N4_2 Co2 1_555 1_555
C3 C16 1_555 1_555
C4 C6 1_555 1_555
C9 C14 1_555 1_555
C13 C19 1_555 1_555
C19 C32 1_555 1_555
C21 C28 1_555 1_555
C24 C31 1_555 1_555
C30 C33 1_555 1_555
N2A Co2_2 1_555 1_555
C3A C16A 1_555 1_555
C4A C6A 1_555 1_555
C9A C14A 1_555 1_555
C13A C19A 1_555 1_555
C19A C32A 1_555 1_555
C21A C28A 1_555 1_555
C22A C23A 1_555 1_555
C24A C31A 1_555 1_555
C30A C33A 1_555 1_555

#END
