
#######################################################################
#
#                 Cambridge Crystallographic Data Centre
#                                CCDC 
#
#######################################################################
#
# If this CIF has been generated from an entry in the Cambridge 
# Structural Database, then it will include bibliographic, chemical, 
# crystal, experimental, refinement or atomic coordinate data resulting 
# from the CCDC's data processing and validation procedures.
#
#######################################################################

data_YODBOJ01
_symmetry_cell_setting           monoclinic
_symmetry_space_group_name_H-M   'P 21/c'
_symmetry_Int_Tables_number      14
_space_group_name_Hall           '-P 2ybc'
loop_
_symmetry_equiv_pos_site_id
_symmetry_equiv_pos_as_xyz
1 x,y,z
2 -x,1/2+y,1/2-z
3 -x,-y,-z
4 x,1/2-y,1/2+z
_cell_length_a                   10.869(5)
_cell_length_b                   12.130(5)
_cell_length_c                   13.783(4)
_cell_angle_alpha                90
_cell_angle_beta                 117.75(2)
_cell_angle_gamma                90
_cell_volume                     1608.17
loop_
_atom_site_label
_atom_site_type_symbol
_atom_site_fract_x
_atom_site_fract_y
_atom_site_fract_z
Mn1 Mn 0.72766(3) 0.00169(2) 0.16402(2)
O1 O 0.46108(18) -0.40996(16) 0.39350(15)
O2 O 0.66523(17) -0.38009(13) 0.53713(12)
O3 O 0.81789(17) 0.39737(12) -0.18909(12)
O4 O 0.98147(17) 0.27856(13) -0.17528(13)
O5 O 0.93086(16) -0.08289(13) 0.22948(14)
H1 H 0.9442 -0.1384 0.21
H2 H 1.0011 -0.0423 0.2522
N1 N 0.66678(18) -0.11601(14) 0.26131(13)
N2 N 0.79246(19) 0.11597(14) 0.06346(14)
C1 C 0.7582(2) -0.1429(2) 0.36397(18)
H3 H 0.8438 -0.1072 0.396
C2 C 0.7317(2) -0.22099(19) 0.42473(17)
H4 H 0.7982 -0.2371 0.496
C3 C 0.6055(2) -0.27488(16) 0.37852(15)
C4 C 0.5107(2) -0.24790(18) 0.27266(18)
H5 H 0.4247 -0.2828 0.2387
C5 C 0.5449(2) -0.16832(19) 0.21746(17)
H6 H 0.4797 -0.1504 0.1463
C6 C 0.5737(2) -0.36304(15) 0.44194(16)
C7 C 0.8437(3) 0.07151(19) 0.0011(2)
H7 H 0.8559 -0.0045 0.0034
C8 C 0.8794(3) 0.13213(19) -0.0664(2)
H8 H 0.9169 0.0973 -0.1068
C9 C 0.8594(2) 0.24447(17) -0.07391(16)
C10 C 0.8054(3) 0.29126(18) -0.01003(18)
H9 H 0.7894 0.3668 -0.0126
C11 C 0.7757(3) 0.22457(18) 0.05739(18)
H10 H 0.742 0.2576 0.1012
C12 C 0.8894(2) 0.31235(16) -0.15262(15)
Mn1A Mn 0.27234(3) -0.49831(2) 0.33598(2)
Mn1C Mn 0.72766(3) -0.50169(2) 0.66402(2)
Mn1C_2 Mn 0.72766(3) 0.49831(2) -0.33598(2)
O1A O 0.53892(18) 0.09004(16) 0.10650(15)
O2C O 0.66523(17) -0.11991(13) 0.03713(12)
O3C O 0.81789(17) 0.10263(12) 0.31091(12)
O6 O 1.1450(3) 0.0564(2) 0.3154(4)
H11 H 1.0969 0.1226 0.3215
C13 C 1.2634(5) 0.0889(4) 0.3212(5)
H12 H 1.3049 0.1418 0.3805
H13 H 1.2431 0.1277 0.2538
C14 C 1.3630(6) 0.0077(4) 0.3375(6)
H14 H 1.3743 0.0011 0.2727
H15 H 1.3328 -0.0616 0.3525
H16 H 1.4501 0.028 0.3984
loop_
_geom_bond_atom_site_label_1
_geom_bond_atom_site_label_2
_geom_bond_site_symmetry_1
_geom_bond_site_symmetry_2
Mn1 O5 1_555 1_555
O1 C6 1_555 1_555
O2 C6 1_555 1_555
O3 C12 1_555 1_555
O4 C12 1_555 1_555
O5 H1 1_555 1_555
H2 O5 1_555 1_555
N1 Mn1 1_555 1_555
N2 Mn1 1_555 1_555
C1 N1 1_555 1_555
H3 C1 1_555 1_555
C2 C1 1_555 1_555
H4 C2 1_555 1_555
C3 C2 1_555 1_555
C4 C3 1_555 1_555
H5 C4 1_555 1_555
C5 N1 1_555 1_555
H6 C5 1_555 1_555
C6 C3 1_555 1_555
C7 N2 1_555 1_555
H7 C7 1_555 1_555
C8 C7 1_555 1_555
H8 C8 1_555 1_555
C9 C8 1_555 1_555
C10 C9 1_555 1_555
H9 C10 1_555 1_555
C11 N2 1_555 1_555
H10 C11 1_555 1_555
C12 C9 1_555 1_555
O6 H11 1_555 1_555
C13 O6 1_555 1_555
H12 C13 1_555 1_555
H13 C13 1_555 1_555
C14 C13 1_555 1_555
H14 C14 1_555 1_555
H15 C14 1_555 1_555
H16 C14 1_555 1_555
Mn1A O1 1_555 1_555
Mn1C O2 1_555 1_555
Mn1C_2 O3 1_555 1_555
O1A Mn1 1_555 1_555
O2C Mn1 1_555 1_555
O3C Mn1 1_555 1_555
C4 C5 1_555 1_555
C10 C11 1_555 1_555

#END
