
#######################################################################
#
#                 Cambridge Crystallographic Data Centre
#                                CCDC 
#
#######################################################################
#
# If this CIF has been generated from an entry in the Cambridge 
# Structural Database, then it will include bibliographic, chemical, 
# crystal, experimental, refinement or atomic coordinate data resulting 
# from the CCDC's data processing and validation procedures.
#
#######################################################################

data_YODCOK
_symmetry_cell_setting           monoclinic
_symmetry_space_group_name_H-M   'C 2/c'
_symmetry_Int_Tables_number      15
_space_group_name_Hall           '-C 2yn'
loop_
_symmetry_equiv_pos_site_id
_symmetry_equiv_pos_as_xyz
1 x,y,z
2 1/2+x,1/2+y,z
3 -x,y,1/2-z
4 1/2-x,1/2+y,1/2-z
5 -x,-y,-z
6 1/2-x,1/2-y,-z
7 x,-y,1/2+z
8 1/2+x,1/2-y,1/2+z
_cell_length_a                   14.3605(9)
_cell_length_b                   12.4386(8)
_cell_length_c                   11.7582(7)
_cell_angle_alpha                90
_cell_angle_beta                 106.676(1)
_cell_angle_gamma                90
_cell_volume                     2011.97
loop_
_atom_site_label
_atom_site_type_symbol
_atom_site_fract_x
_atom_site_fract_y
_atom_site_fract_z
Cd1 Cd 0.0000 0.307814(10) 0.7500
N1 N 0.05844(9) 0.15137(10) 0.86539(10)
N2 N -0.11504(13) 0.31300(11) 0.85824(15)
N3 N -0.13259(16) 0.38101(13) 1.04474(15)
N4 N -0.08778(13) 0.55568(13) 1.13679(13)
O1 O 0.13134(9) 0.24924(10) 1.02404(9)
C1 C 0.11272(11) 0.15105(13) 0.97734(13)
C2 C 0.14741(12) 0.05560(14) 1.04063(15)
H1 H 0.1877 0.0582 1.1203
C3 C 0.12161(13) -0.03999(14) 0.98457(17)
H2 H 0.1445 -0.1051 1.0252
C4 C 0.06132(12) -0.04351(13) 0.86703(16)
C5 C 0.03113(10) 0.05547(11) 0.81033(13)
C6 C 0.02939(14) -0.14182(13) 0.80563(18)
H3 H 0.0502 -0.2083 0.8444
C7 C 0.19439(13) 0.26036(16) 1.14355(14)
H4 H 0.2605 0.2345 1.1481
H5 H 0.1691 0.2175 1.1992
C8 C 0.19725(16) 0.37679(18) 1.17551(16)
H6 H 0.2262 0.4179 1.1231
H7 H 0.2365 0.3863 1.2581
H8 H 0.1310 0.4025 1.1663
C9 C -0.12079(12) 0.35044(12) 0.94474(14)
C10 C -0.10564(12) 0.47537(13) 1.08950(14)
Cd1F Cd 0.0000 0.692186(10) 1.2500
Cd1F_2 Cd 0.0000 0.692186(10) 0.2500
N1B N -0.05844(9) 0.15137(10) 0.63461(10)
N2B N 0.11504(13) 0.31300(11) 0.64176(15)
N3B N 0.13259(16) 0.38101(13) 0.45526(15)
N4B N 0.08778(13) 0.55568(13) 0.36321(13)
N4F N -0.08778(13) 0.44432(13) 0.63679(13)
N4D N 0.08778(13) 0.44432(13) 0.86321(13)
O1B O -0.13134(9) 0.24924(10) 0.47596(9)
C1B C -0.11272(11) 0.15105(13) 0.52266(13)
C2B C -0.14741(12) 0.05560(14) 0.45937(15)
H1B H -0.1877 0.0582 0.3797
C3B C -0.12161(13) -0.03999(14) 0.51543(17)
H2B H -0.1445 -0.1051 0.4748
C4B C -0.06132(12) -0.04351(13) 0.63297(16)
C5B C -0.03113(10) 0.05547(11) 0.68967(13)
C6B C -0.02939(14) -0.14182(13) 0.69437(18)
H3B H -0.0502 -0.2083 0.6556
C7B C -0.19439(13) 0.26036(16) 0.35645(14)
H4B H -0.2605 0.2345 0.3519
H5B H -0.1691 0.2175 0.3008
C8B C -0.19725(16) 0.37679(18) 0.32449(16)
H6B H -0.2262 0.4179 0.3769
H7B H -0.2365 0.3863 0.2419
H8B H -0.1310 0.4025 0.3337
C9B C 0.12079(12) 0.35044(12) 0.55526(14)
C10B C 0.10564(12) 0.47537(13) 0.41050(14)
loop_
_geom_bond_atom_site_label_1
_geom_bond_atom_site_label_2
_geom_bond_site_symmetry_1
_geom_bond_site_symmetry_2
Cd1 N1 1_555 1_555
N1 C1 1_555 1_555
N2 Cd1 1_555 1_555
N3 C9 1_555 1_555
N4 C10 1_555 1_555
O1 C1 1_555 1_555
C1 C2 1_555 1_555
C2 H1 1_555 1_555
C3 C2 1_555 1_555
H2 C3 1_555 1_555
C4 C3 1_555 1_555
C5 N1 1_555 1_555
C6 C4 1_555 1_555
H3 C6 1_555 1_555
C7 O1 1_555 1_555
H4 C7 1_555 1_555
H5 C7 1_555 1_555
C8 C7 1_555 1_555
H6 C8 1_555 1_555
H7 C8 1_555 1_555
H8 C8 1_555 1_555
C9 N2 1_555 1_555
C10 N3 1_555 1_555
Cd1F N4 1_555 1_555
Cd1F_2 N4B 1_555 1_555
N1B Cd1 1_555 1_555
N2B Cd1 1_555 1_555
N3B C9B 1_555 1_555
N4B C10B 1_555 1_555
N4F Cd1 1_555 1_555
N4D Cd1 1_555 1_555
O1B C1B 1_555 1_555
C1B N1B 1_555 1_555
C2B C1B 1_555 1_555
H1B C2B 1_555 1_555
C3B C2B 1_555 1_555
H2B C3B 1_555 1_555
C4B C3B 1_555 1_555
C5B C5 1_555 1_555
C6B C6 1_555 1_555
H3B C6B 1_555 1_555
C7B O1B 1_555 1_555
H4B C7B 1_555 1_555
H5B C7B 1_555 1_555
C8B C7B 1_555 1_555
H6B C8B 1_555 1_555
H7B C8B 1_555 1_555
H8B C8B 1_555 1_555
C9B N2B 1_555 1_555
C10B N3B 1_555 1_555
C4 C5 1_555 1_555
N1B C5B 1_555 1_555
C4B C5B 1_555 1_555
C4B C6B 1_555 1_555

#END
