
#######################################################################
#
#                 Cambridge Crystallographic Data Centre
#                                CCDC 
#
#######################################################################
#
# If this CIF has been generated from an entry in the Cambridge 
# Structural Database, then it will include bibliographic, chemical, 
# crystal, experimental, refinement or atomic coordinate data resulting 
# from the CCDC's data processing and validation procedures.
#
#######################################################################

data_YODDOM
_symmetry_cell_setting           monoclinic
_symmetry_space_group_name_H-M   'P 21/n'
_symmetry_Int_Tables_number      14
_space_group_name_Hall           '-P 2yn'
loop_
_symmetry_equiv_pos_site_id
_symmetry_equiv_pos_as_xyz
1 x,y,z
2 1/2-x,1/2+y,1/2-z
3 -x,-y,-z
4 1/2+x,1/2-y,1/2+z
_cell_length_a                   7.9421(12)
_cell_length_b                   14.944(2)
_cell_length_c                   12.1190(19)
_cell_angle_alpha                90
_cell_angle_beta                 96.879(3)
_cell_angle_gamma                90
_cell_volume                     1428.01
loop_
_atom_site_label
_atom_site_type_symbol
_atom_site_fract_x
_atom_site_fract_y
_atom_site_fract_z
Cu1 Cu 0.85975(8) 0.45724(5) 0.53976(5)
N1 N 0.7427(6) 0.4578(3) 0.6759(4)
O1 O 1.2565(5) 0.4354(3) 0.5196(3)
O2 O 1.0415(5) 0.3779(3) 0.6035(3)
O3 O 1.2321(5) 0.1730(3) 0.9223(3)
O4 O 1.4203(5) 0.0711(3) 0.8912(3)
O5 O 1.6956(7) 0.1915(4) 0.5708(5)
H1 H 1.7146 0.2305 0.5240
C1 C 1.1929(7) 0.3781(4) 0.5796(4)
C2 C 1.3044(7) 0.3037(4) 0.6252(4)
C3 C 1.2688(7) 0.2575(4) 0.7184(4)
H2 H 1.1715 0.2727 0.7530
C4 C 1.3744(7) 0.1893(4) 0.7613(4)
C5 C 1.3393(7) 0.1434(4) 0.8655(5)
C6 C 1.5184(8) 0.1678(4) 0.7103(5)
H3 H 1.5922 0.1214 0.7399
C7 C 1.5529(8) 0.2139(5) 0.6171(6)
C8 C 1.4501(8) 0.2833(4) 0.5758(5)
H4 H 1.4779 0.3171 0.5142
C9 C 0.7975(11) 0.4090(6) 0.7645(6)
H5 H 0.8973 0.3742 0.7627
C10 C 0.7165(12) 0.4065(7) 0.8589(6)
H6 H 0.7599 0.3699 0.9199
C11 C 0.5741(9) 0.4563(5) 0.8649(5)
C12 C 0.5182(9) 0.5059(6) 0.7739(6)
H7 H 0.4197 0.5419 0.7742
C13 C 0.6030(8) 0.5045(5) 0.6814(5)
H8 H 0.5588 0.5387 0.6185
C14 C 0.4847(12) 0.4579(6) 0.9683(6)
H9 H 0.3613 0.4506 0.9467
H10 H 0.5246 0.4069 1.0164
N1B N 0.2573(6) 0.5422(3) 1.3241(4)
C9B C 0.2025(11) 0.5910(6) 1.2355(6)
H5B H 0.1027 0.6258 1.2373
C10B C 0.2835(12) 0.5935(7) 1.1411(6)
H6B H 0.2401 0.6301 1.0801
C11B C 0.4259(9) 0.5437(5) 1.1351(5)
C12B C 0.4818(9) 0.4941(6) 1.2261(6)
H7B H 0.5803 0.4581 1.2258
C13B C 0.3970(8) 0.4955(5) 1.3186(5)
H8B H 0.4412 0.4613 1.3815
C14B C 0.5153(12) 0.5421(6) 1.0317(6)
H9B H 0.6387 0.5494 1.0533
H10B H 0.4754 0.5931 0.9836
Cu1B Cu 0.14025(8) 0.54276(5) 1.46024(5)
O1B O -0.2565(5) 0.5646(3) 1.4804(3)
O2B O -0.0415(5) 0.6221(3) 1.3965(3)
O3B O -0.2321(5) 0.8270(3) 1.0777(3)
O4B O -0.4203(5) 0.9289(3) 1.1088(3)
O5B O -0.6956(7) 0.8085(4) 1.4292(5)
H1B H -0.7146 0.7695 1.4760
C1B C -0.1929(7) 0.6219(4) 1.4204(4)
C2B C -0.3044(7) 0.6963(4) 1.3748(4)
C3B C -0.2688(7) 0.7425(4) 1.2816(4)
H2B H -0.1715 0.7273 1.2470
C4B C -0.3744(7) 0.8107(4) 1.2387(4)
C5B C -0.3393(7) 0.8566(4) 1.1345(5)
C6B C -0.5184(8) 0.8322(4) 1.2897(5)
H3B H -0.5922 0.8786 1.2601
C7B C -0.5529(8) 0.7861(5) 1.3829(6)
C8B C -0.4501(8) 0.7167(4) 1.4242(5)
H4B H -0.4779 0.6829 1.4858
Cu1_2 Cu -0.14025(8) 0.45724(5) 1.53976(5)
Cu1A Cu -0.35975(8) 0.95724(5) 0.96024(5)
Cu1A_2 Cu 1.64025(8) -0.04276(5) 0.96024(5)
Cu1B_2 Cu 1.14025(8) 0.54276(5) 0.46024(5)
Cu1C Cu -0.64025(8) 1.04276(5) 1.03976(5)
Cu1C_2 Cu 1.35975(8) 0.04276(5) 1.03976(5)
O1_2 O 0.2565(5) 0.4354(3) 1.5196(3)
O1B_2 O 0.7435(5) 0.5646(3) 0.4804(3)
O3A O 0.2679(5) 0.6730(3) 1.5777(3)
O3C O 0.7321(5) 0.3270(3) 0.4223(3)
O4A O 0.0797(5) 0.5711(3) 1.6088(3)
O4A_2 O 1.0797(5) 0.5711(3) 0.6088(3)
O4C O -0.0797(5) 0.4289(3) 1.3912(3)
O4C_2 O 0.9203(5) 0.4289(3) 0.3912(3)
loop_
_geom_bond_atom_site_label_1
_geom_bond_atom_site_label_2
_geom_bond_site_symmetry_1
_geom_bond_site_symmetry_2
Cu1 N1 1_555 1_555
N1 C9 1_555 1_555
O1 C1 1_555 1_555
O2 Cu1 1_555 1_555
O3 C5 1_555 1_555
O4 C5 1_555 1_555
O5 H1 1_555 1_555
C1 O2 1_555 1_555
C2 C1 1_555 1_555
C3 C2 1_555 1_555
H2 C3 1_555 1_555
C4 C3 1_555 1_555
C5 C4 1_555 1_555
C6 C4 1_555 1_555
H3 C6 1_555 1_555
C7 O5 1_555 1_555
C8 C2 1_555 1_555
H4 C8 1_555 1_555
C9 H5 1_555 1_555
C10 C9 1_555 1_555
H6 C10 1_555 1_555
C11 C10 1_555 1_555
C12 C11 1_555 1_555
H7 C12 1_555 1_555
C13 N1 1_555 1_555
H8 C13 1_555 1_555
C14 C11 1_555 1_555
H9 C14 1_555 1_555
H10 C14 1_555 1_555
N1B C9B 1_555 1_555
C9B H5B 1_555 1_555
C10B C9B 1_555 1_555
H6B C10B 1_555 1_555
C11B C10B 1_555 1_555
C12B C11B 1_555 1_555
H7B C12B 1_555 1_555
C13B N1B 1_555 1_555
H8B C13B 1_555 1_555
C14B C14 1_555 1_555
H9B C14B 1_555 1_555
H10B C14B 1_555 1_555
Cu1B N1B 1_555 1_555
O1B C1B 1_555 1_555
O2B Cu1B 1_555 1_555
O3B C5B 1_555 1_555
O4B C5B 1_555 1_555
O5B H1B 1_555 1_555
C1B O2B 1_555 1_555
C2B C1B 1_555 1_555
C3B C2B 1_555 1_555
H2B C3B 1_555 1_555
C4B C3B 1_555 1_555
C5B C4B 1_555 1_555
C6B C4B 1_555 1_555
H3B C6B 1_555 1_555
C7B O5B 1_555 1_555
C8B C2B 1_555 1_555
H4B C8B 1_555 1_555
Cu1_2 O1B 1_555 1_555
Cu1A O3B 1_555 1_555
Cu1A_2 O4 1_555 1_555
Cu1B_2 O1 1_555 1_555
Cu1C O4B 1_555 1_555
Cu1C_2 O3 1_555 1_555
O1_2 Cu1B 1_555 1_555
O1B_2 Cu1 1_555 1_555
O3A Cu1B 1_555 1_555
O3C Cu1 1_555 1_555
O4A Cu1B 1_555 1_555
O4A_2 Cu1 1_555 1_555
O4C Cu1B 1_555 1_555
O4C_2 Cu1 1_555 1_555
O4 Cu1C_2 1_555 1_555
C6 C7 1_555 1_555
C7 C8 1_555 1_555
C12 C13 1_555 1_555
C11B C14B 1_555 1_555
C12B C13B 1_555 1_555
O4B Cu1A 1_555 1_555
C6B C7B 1_555 1_555
C7B C8B 1_555 1_555
Cu1_2 O4A 1_555 1_555
Cu1_2 O4C 1_555 1_555
Cu1B_2 O4A_2 1_555 1_555
Cu1B_2 O4C_2 1_555 1_555

#END
