
#######################################################################
#
#                 Cambridge Crystallographic Data Centre
#                                CCDC 
#
#######################################################################
#
# If this CIF has been generated from an entry in the Cambridge 
# Structural Database, then it will include bibliographic, chemical, 
# crystal, experimental, refinement or atomic coordinate data resulting 
# from the CCDC's data processing and validation procedures.
#
#######################################################################

data_YODFAA
_symmetry_cell_setting           monoclinic
_symmetry_space_group_name_H-M   'P 21/n'
_symmetry_Int_Tables_number      14
_space_group_name_Hall           '-P 2yn'
loop_
_symmetry_equiv_pos_site_id
_symmetry_equiv_pos_as_xyz
1 x,y,z
2 1/2-x,1/2+y,1/2-z
3 -x,-y,-z
4 1/2+x,1/2-y,1/2+z
_cell_length_a                   8.1749(10)
_cell_length_b                   14.4611(17)
_cell_length_c                   12.0857(14)
_cell_angle_alpha                90
_cell_angle_beta                 95.366(3)
_cell_angle_gamma                90
_cell_volume                     1422.49
loop_
_atom_site_label
_atom_site_type_symbol
_atom_site_fract_x
_atom_site_fract_y
_atom_site_fract_z
Co1 Co 0.63774(13) 0.44788(8) 0.46213(8)
N1 N 0.7708(8) 0.4410(5) 0.3260(5)
O1 O 0.4781(7) 0.5596(4) 0.3748(4)
O2 O 0.2739(7) 0.6490(4) 0.4157(4)
O3 O 0.0506(7) 0.8664(4) 0.0981(4)
O4 O 0.2561(6) 0.9401(4) 0.0265(4)
O5 O 0.6979(8) 0.6968(5) 0.0446(6)
H1 H 0.7194 0.7418 0.0072
C1 C 0.9047(11) 0.4902(7) 0.3195(7)
H2 H 0.9446 0.5240 0.3817
C2 C 0.9892(12) 0.4949(8) 0.2273(8)
H3 H 1.0837 0.5308 0.2282
C3 C 0.9349(12) 0.4470(8) 0.1343(8)
C4 C 0.7973(15) 0.3951(8) 0.1396(9)
H4 H 0.7565 0.3604 0.0784
C5 C 0.7178(14) 0.3935(8) 0.2355(8)
H5 H 0.6235 0.3577 0.2368
C6 C 1.0198(16) 0.4552(8) 0.0283(8)
H6 H 1.1377 0.4504 0.0459
H7 H 0.9850 0.4048 -0.0214
C7 C 0.3995(9) 0.6795(6) 0.2465(7)
C8 C 0.2873(10) 0.7457(6) 0.2092(6)
H8 H 0.1937 0.7549 0.2460
C9 C 0.3127(10) 0.7987(5) 0.1174(6)
C10 C 0.4525(10) 0.7828(6) 0.0609(7)
H9 H 0.4718 0.8185 -0.0006
C11 C 0.5597(11) 0.7147(6) 0.0970(7)
C12 C 0.5360(10) 0.6632(6) 0.1898(7)
H10 H 0.6113 0.6177 0.2142
C13 C 0.3808(10) 0.6260(6) 0.3510(6)
C14 C 0.1970(10) 0.8733(6) 0.0768(6)
N1B N 1.2292(8) 0.5590(5) -0.3260(5)
C1B C 1.0953(11) 0.5098(7) -0.3195(7)
H2B H 1.0554 0.4760 -0.3817
C2B C 1.0108(12) 0.5051(8) -0.2273(8)
H3B H 0.9163 0.4692 -0.2282
C3B C 1.0651(12) 0.5530(8) -0.1343(8)
C4B C 1.2027(15) 0.6049(8) -0.1396(9)
H4B H 1.2435 0.6396 -0.0784
C5B C 1.2822(14) 0.6065(8) -0.2355(8)
H5B H 1.3765 0.6423 -0.2368
C6B C 0.9802(16) 0.5448(8) -0.0283(8)
H6B H 0.8623 0.5496 -0.0459
H7B H 1.0150 0.5952 0.0214
Co1B Co 0.36226(13) 0.55212(8) 0.53787(8)
O1B O 0.5219(7) 0.4404(4) 0.6252(4)
O2B O 0.7261(7) 0.3510(4) 0.5843(4)
O3B O 0.9494(7) 0.1336(4) 0.9019(4)
O4B O 0.7439(6) 0.0599(4) 0.9735(4)
O5B O 0.3021(8) 0.3032(5) 0.9554(6)
H1B H 0.2806 0.2582 0.9928
C7B C 0.6005(9) 0.3205(6) 0.7535(7)
C8B C 0.7127(10) 0.2543(6) 0.7908(6)
H8B H 0.8063 0.2451 0.7540
C9B C 0.6873(10) 0.2013(5) 0.8826(6)
C10B C 0.5475(10) 0.2172(6) 0.9391(7)
H9B H 0.5282 0.1815 1.0006
C11B C 0.4403(11) 0.2853(6) 0.9030(7)
C12B C 0.4640(10) 0.3368(6) 0.8102(7)
H10B H 0.3887 0.3823 0.7858
C13B C 0.6192(10) 0.3740(6) 0.6490(6)
C14B C 0.8030(10) 0.1267(6) 0.9232(6)
Co1A Co -0.13774(13) 0.94788(8) 0.03787(8)
Co1A_2 Co 0.86226(13) -0.05212(8) 1.03787(8)
Co1B_2 Co 1.36226(13) 0.55212(8) -0.46213(8)
Co1C Co 0.13774(13) 1.05212(8) -0.03787(8)
Co1C_2 Co 1.13774(13) 0.05212(8) 0.96213(8)
N1B_2 N 0.2292(8) 0.5590(5) 0.6740(5)
O3A O 0.4494(7) 0.3664(4) 0.4019(4)
O3C O 0.5506(7) 0.6336(4) 0.5981(4)
O4A O 0.2439(6) 0.4401(4) 0.4735(4)
O4C O 0.7561(6) 0.5599(4) 0.5265(4)
loop_
_geom_bond_atom_site_label_1
_geom_bond_atom_site_label_2
_geom_bond_site_symmetry_1
_geom_bond_site_symmetry_2
Co1 N1 1_555 1_555
N1 C1 1_555 1_555
O1 Co1 1_555 1_555
O2 C13 1_555 1_555
O3 C14 1_555 1_555
O4 C14 1_555 1_555
O5 H1 1_555 1_555
C1 H2 1_555 1_555
C2 C1 1_555 1_555
H3 C2 1_555 1_555
C3 C2 1_555 1_555
C4 C3 1_555 1_555
H4 C4 1_555 1_555
C5 N1 1_555 1_555
H5 C5 1_555 1_555
C6 C3 1_555 1_555
H6 C6 1_555 1_555
H7 C6 1_555 1_555
C7 C8 1_555 1_555
C8 H8 1_555 1_555
C9 C8 1_555 1_555
C10 C9 1_555 1_555
H9 C10 1_555 1_555
C11 O5 1_555 1_555
C12 C7 1_555 1_555
H10 C12 1_555 1_555
C13 O1 1_555 1_555
C14 C9 1_555 1_555
N1B C1B 1_555 1_555
C1B H2B 1_555 1_555
C2B C1B 1_555 1_555
H3B C2B 1_555 1_555
C3B C2B 1_555 1_555
C4B C3B 1_555 1_555
H4B C4B 1_555 1_555
C5B N1B 1_555 1_555
H5B C5B 1_555 1_555
C6B C6 1_555 1_555
H6B C6B 1_555 1_555
H7B C6B 1_555 1_555
Co1B O1 1_555 1_555
O1B Co1 1_555 1_555
O2B Co1 1_555 1_555
O3B C14B 1_555 1_555
O4B C14B 1_555 1_555
O5B H1B 1_555 1_555
C7B C8B 1_555 1_555
C8B H8B 1_555 1_555
C9B C8B 1_555 1_555
C10B C9B 1_555 1_555
H9B C10B 1_555 1_555
C11B O5B 1_555 1_555
C12B C7B 1_555 1_555
H10B C12B 1_555 1_555
C13B O1B 1_555 1_555
C14B C9B 1_555 1_555
Co1A O3 1_555 1_555
Co1A_2 O4B 1_555 1_555
Co1B_2 N1B 1_555 1_555
Co1C O4 1_555 1_555
Co1C_2 O3B 1_555 1_555
N1B_2 Co1B 1_555 1_555
O3A Co1 1_555 1_555
O3C Co1B 1_555 1_555
O4A Co1B 1_555 1_555
O4C Co1 1_555 1_555
O2 Co1B 1_555 1_555
C4 C5 1_555 1_555
C7 C13 1_555 1_555
C10 C11 1_555 1_555
C11 C12 1_555 1_555
C3B C6B 1_555 1_555
C4B C5B 1_555 1_555
Co1B O1B 1_555 1_555
O2B C13B 1_555 1_555
C7B C13B 1_555 1_555
C10B C11B 1_555 1_555
C11B C12B 1_555 1_555

#END
