
#######################################################################
#
#                 Cambridge Crystallographic Data Centre
#                                CCDC 
#
#######################################################################
#
# If this CIF has been generated from an entry in the Cambridge 
# Structural Database, then it will include bibliographic, chemical, 
# crystal, experimental, refinement or atomic coordinate data resulting 
# from the CCDC's data processing and validation procedures.
#
#######################################################################

data_YODWEU
_symmetry_cell_setting           monoclinic
_symmetry_space_group_name_H-M   'P 21/c'
_symmetry_Int_Tables_number      14
_space_group_name_Hall           '-P 2ybc'
loop_
_symmetry_equiv_pos_site_id
_symmetry_equiv_pos_as_xyz
1 x,y,z
2 -x,1/2+y,1/2-z
3 -x,-y,-z
4 x,1/2-y,1/2+z
_cell_length_a                   10.002(3)
_cell_length_b                   8.949(2)
_cell_length_c                   20.270(5)
_cell_angle_alpha                90
_cell_angle_beta                 99.694(3)
_cell_angle_gamma                90
_cell_volume                     1788.42
loop_
_atom_site_label
_atom_site_type_symbol
_atom_site_fract_x
_atom_site_fract_y
_atom_site_fract_z
Cu1 Cu 0.20059(3) -0.06710(3) 0.109344(15)
N1 N 0.2889(2) -0.0936(2) 0.02720(10)
N2 N 0.3638(2) -0.1910(2) 0.15099(10)
O1 O 0.08997(17) 0.11388(19) 0.07375(9)
O2 O 0.28287(18) 0.1958(2) 0.13001(9)
O3 O 0.0729(2) 0.3534(3) 0.33755(9)
O4 O -0.13756(19) 0.4387(2) 0.30505(9)
O5 O 0.0352(2) -0.2268(2) 0.05670(10)
C1 C 0.1074(2) 0.3773(3) 0.09769(12)
H1 H 0.1168 0.4178 0.0538
C2 C -0.0437(2) 0.3815(3) 0.10261(12)
H2 H -0.0791 0.4806 0.0908
H3 H -0.0923 0.3112 0.0708
C3 C -0.0680(3) 0.3426(3) 0.17270(12)
H4 H -0.0397 0.2404 0.1831
H5 H -0.1642 0.3495 0.1742
C4 C 0.0103(3) 0.4477(3) 0.22540(12)
H6 H -0.0225 0.5495 0.2148
C5 C 0.1608(3) 0.4440(3) 0.22087(12)
H7 H 0.2087 0.5156 0.2522
H8 H 0.1967 0.3455 0.2335
C6 C 0.1861(3) 0.4805(3) 0.15077(12)
H9 H 0.2823 0.4716 0.1496
H10 H 0.1597 0.5832 0.1402
C7 C 0.1661(2) 0.2190(3) 0.10175(11)
C8 C -0.0174(3) 0.4093(3) 0.29540(13)
C9 C 0.2490(3) -0.0436(3) -0.03445(13)
H11 H 0.1712 0.0151 -0.0432
C10 C 0.3191(3) -0.0756(3) -0.08687(14)
H12 H 0.2895 -0.0364 -0.1293
C11 C 0.4303(3) -0.1641(4) -0.07550(14)
H13 H 0.4770 -0.1868 -0.1102
C12 C 0.4748(3) -0.2214(3) -0.01111(14)
C13 C 0.4004(2) -0.1818(3) 0.03870(12)
C14 C 0.4425(2) -0.2329(3) 0.10576(12)
C15 C 0.5598(3) -0.3191(3) 0.12278(15)
C16 C 0.5968(3) -0.3594(4) 0.19035(16)
H14 H 0.6751 -0.4149 0.2043
C17 C 0.5177(3) -0.3169(4) 0.23509(15)
H15 H 0.5415 -0.3435 0.2799
C18 C 0.4014(3) -0.2335(3) 0.21412(13)
H16 H 0.3477 -0.2064 0.2455
C19 C 0.5929(3) -0.3130(4) 0.00739(17)
H17 H 0.6427 -0.3416 -0.0253
C20 C 0.6335(3) -0.3585(4) 0.07077(18)
H18 H 0.7111 -0.4169 0.0810
H19 H -0.003(3) -0.194(3) 0.0169(10)
H20 H -0.033(3) -0.230(5) 0.0798(15)
Cu1A Cu -0.20059(3) 0.43290(3) 0.390656(15)
O4A O 0.13756(19) -0.0613(2) 0.19495(9)
loop_
_geom_bond_atom_site_label_1
_geom_bond_atom_site_label_2
_geom_bond_site_symmetry_1
_geom_bond_site_symmetry_2
Cu1 N1 1_555 1_555
N1 C9 1_555 1_555
N2 Cu1 1_555 1_555
O1 Cu1 1_555 1_555
O2 Cu1 1_555 1_555
O3 C8 1_555 1_555
O4 C8 1_555 1_555
O5 Cu1 1_555 1_555
C1 H1 1_555 1_555
C2 C1 1_555 1_555
H2 C2 1_555 1_555
H3 C2 1_555 1_555
C3 C2 1_555 1_555
H4 C3 1_555 1_555
H5 C3 1_555 1_555
C4 C3 1_555 1_555
H6 C4 1_555 1_555
C5 C4 1_555 1_555
H7 C5 1_555 1_555
H8 C5 1_555 1_555
C6 C1 1_555 1_555
H9 C6 1_555 1_555
H10 C6 1_555 1_555
C7 O1 1_555 1_555
C8 C4 1_555 1_555
C9 H11 1_555 1_555
C10 C9 1_555 1_555
H12 C10 1_555 1_555
C11 C10 1_555 1_555
H13 C11 1_555 1_555
C12 C11 1_555 1_555
C13 N1 1_555 1_555
C14 N2 1_555 1_555
C15 C14 1_555 1_555
C16 C15 1_555 1_555
H14 C16 1_555 1_555
C17 C16 1_555 1_555
H15 C17 1_555 1_555
C18 N2 1_555 1_555
H16 C18 1_555 1_555
C19 C12 1_555 1_555
H17 C19 1_555 1_555
C20 C15 1_555 1_555
H18 C20 1_555 1_555
H19 O5 1_555 1_555
H20 O5 1_555 1_555
Cu1A O4 1_555 1_555
O4A Cu1 1_555 1_555
O2 C7 1_555 1_555
C1 C7 1_555 1_555
C5 C6 1_555 1_555
C12 C13 1_555 1_555
C13 C14 1_555 1_555
C17 C18 1_555 1_555
C19 C20 1_555 1_555

#END
