
#######################################################################
#
#                 Cambridge Crystallographic Data Centre
#                                CCDC 
#
#######################################################################
#
# If this CIF has been generated from an entry in the Cambridge 
# Structural Database, then it will include bibliographic, chemical, 
# crystal, experimental, refinement or atomic coordinate data resulting 
# from the CCDC's data processing and validation procedures.
#
#######################################################################

data_YODZAT
_symmetry_cell_setting           monoclinic
_symmetry_space_group_name_H-M   'P 21/c'
_symmetry_Int_Tables_number      14
_space_group_name_Hall           '-P 2ybc'
loop_
_symmetry_equiv_pos_site_id
_symmetry_equiv_pos_as_xyz
1 x,y,z
2 -x,1/2+y,1/2-z
3 -x,-y,-z
4 x,1/2-y,1/2+z
_cell_length_a                   11.355(2)
_cell_length_b                   9.9917(17)
_cell_length_c                   37.908(7)
_cell_angle_alpha                90
_cell_angle_beta                 94.025(5)
_cell_angle_gamma                90
_cell_volume                     4290.27
loop_
_atom_site_label
_atom_site_type_symbol
_atom_site_fract_x
_atom_site_fract_y
_atom_site_fract_z
Br1 Br 0.29119(8) 0.03365(8) 0.06357(2)
Co1 Co 0.82748(8) 0.93142(9) 0.18894(2)
C1 C 0.7940(7) 0.5332(6) 0.15156(19)
C2 C 0.8052(6) 0.4036(6) 0.16550(18)
H1 H 0.8191 0.3909 0.1897
C3 C 0.7953(6) 0.2932(6) 0.14270(18)
C4 C 0.7720(6) 0.3126(6) 0.10637(17)
H2 H 0.7655 0.2393 0.0912
C5 C 0.7588(7) 0.4397(7) 0.09308(18)
C6 C 0.7734(6) 0.5506(6) 0.11566(18)
H3 H 0.7691 0.6366 0.1063
C7 C 0.8111(6) 0.6502(7) 0.1765(2)
C8 C 0.8094(6) 0.1565(7) 0.15799(18)
C9 C 0.7290(8) 0.4657(8) 0.0541(2)
C10 C 1.0646(7) 0.9160(6) 0.15724(18)
H4 H 1.0146 0.9022 0.1371
C11 C 1.1832(6) 0.9079(7) 0.15404(18)
H5 H 1.2117 0.8898 0.1321
C12 C 1.2619(6) 0.9268(6) 0.18352(18)
C13 C 1.2143(6) 0.9604(7) 0.21501(18)
H6 H 1.2635 0.9785 0.2351
C14 C 1.0936(7) 0.9669(6) 0.21632(18)
H7 H 1.0635 0.9889 0.2378
C15 C 1.5727(7) 0.9440(7) 0.15496(19)
H8 H 1.6111 0.9645 0.1348
C16 C 1.4515(6) 0.9471(6) 0.15291(18)
H9 H 1.4099 0.9706 0.1318
C17 C 1.3910(6) 0.9154(6) 0.18232(17)
C18 C 1.4594(6) 0.8742(7) 0.21264(19)
H10 H 1.4228 0.8473 0.2326
C19 C 1.5803(7) 0.8738(6) 0.21278(18)
H11 H 1.6237 0.8453 0.2331
C20 C 0.8871(6) 0.8247(7) 0.26470(19)
H12 H 0.9106 0.7500 0.2524
C21 C 0.9011(7) 0.8232(7) 0.30119(19)
H13 H 0.9311 0.7474 0.3129
C22 C 0.8705(6) 0.9341(7) 0.32033(18)
C23 C 0.8253(7) 1.0443(7) 0.30114(19)
H14 H 0.8049 1.1220 0.3128
C24 C 0.8113(7) 1.0368(7) 0.26475(19)
H15 H 0.7797 1.1103 0.2524
C25 C 0.9385(8) 1.0473(9) 0.4150(2)
H16 H 0.9633 1.1254 0.4266
C26 C 0.9227(7) 1.0503(8) 0.3782(2)
H17 H 0.9360 1.1291 0.3661
C27 C 0.8877(7) 0.9373(8) 0.3599(2)
C28 C 0.8673(7) 0.8250(8) 0.3794(2)
H18 H 0.8429 0.7461 0.3681
C29 C 0.8831(8) 0.8291(10) 0.4165(2)
H19 H 0.8672 0.7524 0.4292
N1 N 1.0153(5) 0.9429(5) 0.18789(14)
N2 N 1.6389(5) 0.9126(5) 0.18489(14)
N3 N 0.8411(5) 0.9288(5) 0.24626(14)
N4 N 0.9203(7) 0.9399(8) 0.43450(18)
O1 O 0.8353(4) 0.7616(5) 0.16189(13)
O2 O 0.7968(5) 0.6352(5) 0.20823(14)
O3 O 0.8144(4) 0.1434(4) 0.19140(12)
O4 O 0.8153(4) 0.0556(4) 0.13805(12)
O5 O 0.7094(4) 0.3561(5) 0.03568(13)
H20 H 0.6938 0.3756 0.0149
O6 O 0.7191(5) 0.5784(5) 0.04196(14)
Co1_2 Co 1.82748(8) 0.93142(9) 0.18894(2)
Co1_3 Co 0.82748(8) -0.06858(9) 0.18894(2)
N2_2 N 0.6389(5) 0.9126(5) 0.18489(14)
O3_2 O 0.8144(4) 1.1434(4) 0.19140(12)
O4_2 O 0.8153(4) 1.0556(4) 0.13805(12)
C30 C 1.0660(7) -0.2313(9) 0.0017(2)
H21 H 1.0320 -0.2823 -0.0179
H22 H 1.1133 -0.2890 0.0172
H23 H 1.1145 -0.1614 -0.0069
C31 C 0.8553(7) -0.1871(7) 0.0146(2)
H24 H 0.8208 -0.2361 -0.0042
C32 C 0.9871(8) -0.0935(8) 0.0515(2)
H25 H 1.0591 -0.0648 0.0621
C33 C 0.8783(8) -0.0672(8) 0.0626(2)
H26 H 0.8619 -0.0198 0.0828
C34 C 0.6669(7) -0.1175(8) 0.0397(3)
H27 H 0.6303 -0.1638 0.0192
H28 H 0.6445 -0.1638 0.0607
C35 C 0.6222(8) 0.0200(8) 0.0401(3)
H29 H 0.5379 0.0186 0.0407
H30 H 0.6432 0.0660 0.0192
H31 H 0.6564 0.0655 0.0607
N5 N 0.9698(6) -0.1712(6) 0.02142(17)
N6 N 0.7966(6) -0.1236(6) 0.03839(18)
C36 C 0.4666(9) -0.7162(8) 0.1800(2)
H32 H 0.4567 -0.8056 0.1860
C37 C 0.4392(8) -0.6792(8) 0.1452(2)
H33 H 0.4117 -0.7421 0.1285
C38 C 0.4536(7) -0.5462(7) 0.13563(19)
C39 C 0.4983(7) -0.4597(7) 0.16196(19)
H34 H 0.5129 -0.3705 0.1567
C40 C 0.5208(7) -0.5070(8) 0.1958(2)
H35 H 0.5482 -0.4463 0.2131
C41 C 0.3695(7) -0.3307(7) 0.05616(19)
H36 H 0.3522 -0.2412 0.0515
C42 C 0.3964(7) -0.3688(7) 0.0907(2)
H37 H 0.3939 -0.3058 0.1087
C43 C 0.4275(7) -0.5017(7) 0.09908(19)
C44 C 0.4254(7) -0.5893(7) 0.07018(19)
H38 H 0.4433 -0.6793 0.0738
C45 C 0.3968(8) -0.5430(7) 0.0363(2)
H39 H 0.3983 -0.6035 0.0177
N7 N 0.5062(7) -0.6325(7) 0.20557(17)
N8 N 0.3671(6) -0.4169(6) 0.02887(15)
loop_
_geom_bond_atom_site_label_1
_geom_bond_atom_site_label_2
_geom_bond_site_symmetry_1
_geom_bond_site_symmetry_2
Co1 N1 1_555 1_555
C1 C2 1_555 1_555
C2 H1 1_555 1_555
C3 C2 1_555 1_555
C4 C3 1_555 1_555
H2 C4 1_555 1_555
C5 C4 1_555 1_555
C6 C1 1_555 1_555
H3 C6 1_555 1_555
C7 C1 1_555 1_555
C8 C3 1_555 1_555
C9 C5 1_555 1_555
C10 H4 1_555 1_555
C11 C10 1_555 1_555
H5 C11 1_555 1_555
C12 C11 1_555 1_555
C13 C12 1_555 1_555
H6 C13 1_555 1_555
C14 C13 1_555 1_555
H7 C14 1_555 1_555
C15 H8 1_555 1_555
C16 C15 1_555 1_555
H9 C16 1_555 1_555
C17 C12 1_555 1_555
C18 C17 1_555 1_555
H10 C18 1_555 1_555
C19 C18 1_555 1_555
H11 C19 1_555 1_555
C20 H12 1_555 1_555
C21 C20 1_555 1_555
H13 C21 1_555 1_555
C22 C21 1_555 1_555
C23 C22 1_555 1_555
H14 C23 1_555 1_555
C24 C23 1_555 1_555
H15 C24 1_555 1_555
C25 H16 1_555 1_555
C26 C25 1_555 1_555
H17 C26 1_555 1_555
C27 C22 1_555 1_555
C28 C27 1_555 1_555
H18 C28 1_555 1_555
C29 C28 1_555 1_555
H19 C29 1_555 1_555
N1 C10 1_555 1_555
N2 C15 1_555 1_555
N3 Co1 1_555 1_555
N4 C25 1_555 1_555
O1 Co1 1_555 1_555
O2 C7 1_555 1_555
O3 C8 1_555 1_555
O4 C8 1_555 1_555
O5 C9 1_555 1_555
H20 O5 1_555 1_555
O6 C9 1_555 1_555
C30 H21 1_555 1_555
H22 C30 1_555 1_555
H23 C30 1_555 1_555
C31 H24 1_555 1_555
C32 H25 1_555 1_555
C33 C32 1_555 1_555
H26 C33 1_555 1_555
C34 H27 1_555 1_555
H28 C34 1_555 1_555
C35 C34 1_555 1_555
H29 C35 1_555 1_555
H30 C35 1_555 1_555
H31 C35 1_555 1_555
N5 C30 1_555 1_555
N6 C31 1_555 1_555
C36 H32 1_555 1_555
C37 C36 1_555 1_555
H33 C37 1_555 1_555
C38 C37 1_555 1_555
C39 C38 1_555 1_555
H34 C39 1_555 1_555
C40 C39 1_555 1_555
H35 C40 1_555 1_555
C41 H36 1_555 1_555
C42 C41 1_555 1_555
H37 C42 1_555 1_555
C43 C38 1_555 1_555
C44 C43 1_555 1_555
H38 C44 1_555 1_555
C45 C44 1_555 1_555
H39 C45 1_555 1_555
N7 C36 1_555 1_555
N8 C41 1_555 1_555
Co1_2 N2 1_555 1_555
Co1_3 O3 1_555 1_555
N2_2 Co1 1_555 1_555
O3_2 Co1 1_555 1_555
O4_2 Co1 1_555 1_555
C5 C6 1_555 1_555
C7 O1 1_555 1_555
C14 N1 1_555 1_555
C16 C17 1_555 1_555
C19 N2 1_555 1_555
C20 N3 1_555 1_555
C24 N3 1_555 1_555
C26 C27 1_555 1_555
C29 N4 1_555 1_555
O4 Co1_3 1_555 1_555
C31 N5 1_555 1_555
C32 N5 1_555 1_555
C33 N6 1_555 1_555
C34 N6 1_555 1_555
C40 N7 1_555 1_555
C42 C43 1_555 1_555
C45 N8 1_555 1_555

#END
