
#######################################################################
#
#                 Cambridge Crystallographic Data Centre
#                                CCDC 
#
#######################################################################
#
# If this CIF has been generated from an entry in the Cambridge 
# Structural Database, then it will include bibliographic, chemical, 
# crystal, experimental, refinement or atomic coordinate data resulting 
# from the CCDC's data processing and validation procedures.
#
#######################################################################

data_YOFCON
_symmetry_cell_setting           monoclinic
_symmetry_space_group_name_H-M   'P n'
_symmetry_Int_Tables_number      7
_space_group_name_Hall           'P -2yac'
loop_
_symmetry_equiv_pos_site_id
_symmetry_equiv_pos_as_xyz
1 x,y,z
2 1/2+x,-y,1/2+z
_cell_length_a                   8.7820(4)
_cell_length_b                   7.8500(4)
_cell_length_c                   13.4703(6)
_cell_angle_alpha                90
_cell_angle_beta                 92.143(5)
_cell_angle_gamma                90
_cell_volume                     927.976
loop_
_atom_site_label
_atom_site_type_symbol
_atom_site_fract_x
_atom_site_fract_y
_atom_site_fract_z
Hg1 Hg 0.52672(2) 0.83940(5) 0.485570(19)
Co1 Co 0.02911(19) 0.30597(19) 0.56179(11)
S1 S 0.5490(4) 0.5220(4) 0.5191(3)
S2 S 0.2869(4) -0.1290(4) 0.3726(2)
S3 S -0.4665(4) 0.0409(5) 0.6307(3)
S4 S 0.2547(4) 0.0986(6) 0.8799(2)
N1 N -0.1834(11) 0.1821(11) 0.5896(7)
N2 N 0.1149(11) 0.2088(12) 0.7005(8)
N3 N 0.2451(12) 0.4220(14) 0.5384(8)
N4 N -0.0472(13) 0.3912(15) 0.4196(8)
N5 N 0.1162(12) 0.0814(14) 0.4925(8)
N6 N -0.0367(12) 0.5332(12) 0.6332(8)
C1 C 0.3686(14) 0.4672(14) 0.5303(8)
C2 C -0.2993(14) 0.1246(13) 0.6058(8)
C3 C 0.1881(13) -0.0077(14) 0.4448(8)
C4 C 0.1731(13) 0.1627(13) 0.7751(9)
N7 N -0.1776(19) 0.431(2) 0.2817(10)
H1 H -0.2486 0.4236 0.2361
C5 C -0.0148(19) 0.6886(15) 0.6041(14)
H2 H 0.0271 0.7173 0.5440
C6 C -0.1777(19) 0.3567(19) 0.3700(11)
H3 H -0.2566 0.2909 0.3937
N8 N -0.059(2) 0.8010(17) 0.6696(15)
H4 H -0.0532 0.9101 0.6652
C7 C -0.104(2) 0.5504(18) 0.7210(12)
H5 H -0.1380 0.4606 0.7593
C8 C -0.050(2) 0.517(3) 0.2758(10)
H6 H -0.0209 0.5837 0.2228
C9 C -0.114(3) 0.711(2) 0.7446(17)
H7 H -0.1528 0.7551 0.8026
C10 C 0.029(2) 0.490(3) 0.3595(12)
H8 H 0.1248 0.5349 0.3743
Hg1_2 Hg -0.47328(2) -0.16060(5) 0.485570(19)
Hg1_3 Hg 0.52672(2) -0.16060(5) 0.485570(19)
Hg1A Hg 0.02672(2) 0.16060(5) 0.985570(19)
S2_2 S 0.2869(4) 0.8710(4) 0.3726(2)
S3_2 S 0.5335(4) 1.0409(5) 0.6307(3)
S4A S 0.7547(4) 0.9014(6) 0.3799(2)
loop_
_geom_bond_atom_site_label_1
_geom_bond_atom_site_label_2
_geom_bond_site_symmetry_1
_geom_bond_site_symmetry_2
Hg1 S1 1_555 1_555
Co1 N1 1_555 1_555
S1 C1 1_555 1_555
S2 C3 1_555 1_555
S3 C2 1_555 1_555
S4 C4 1_555 1_555
N1 C2 1_555 1_555
N2 Co1 1_555 1_555
N3 Co1 1_555 1_555
N4 Co1 1_555 1_555
N5 Co1 1_555 1_555
N6 Co1 1_555 1_555
C1 N3 1_555 1_555
C3 N5 1_555 1_555
C4 N2 1_555 1_555
N7 H1 1_555 1_555
C5 N6 1_555 1_555
H2 C5 1_555 1_555
C6 N4 1_555 1_555
H3 C6 1_555 1_555
N8 C5 1_555 1_555
H4 N8 1_555 1_555
C7 N6 1_555 1_555
H5 C7 1_555 1_555
C8 N7 1_555 1_555
H6 C8 1_555 1_555
C9 N8 1_555 1_555
H7 C9 1_555 1_555
C10 N4 1_555 1_555
H8 C10 1_555 1_555
Hg1_2 S3 1_555 1_555
Hg1_3 S2 1_555 1_555
Hg1A S4 1_555 1_555
S2_2 Hg1 1_555 1_555
S3_2 Hg1 1_555 1_555
S4A Hg1 1_555 1_555
N7 C6 1_555 1_555
C7 C9 1_555 1_555
C8 C10 1_555 1_555

#END
