
#######################################################################
#
#                 Cambridge Crystallographic Data Centre
#                                CCDC 
#
#######################################################################
#
# If this CIF has been generated from an entry in the Cambridge 
# Structural Database, then it will include bibliographic, chemical, 
# crystal, experimental, refinement or atomic coordinate data resulting 
# from the CCDC's data processing and validation procedures.
#
#######################################################################

data_YOFMUD
_symmetry_cell_setting           triclinic
_symmetry_space_group_name_H-M   'P -1'
_symmetry_Int_Tables_number      2
_space_group_name_Hall           '-P 1'
loop_
_symmetry_equiv_pos_site_id
_symmetry_equiv_pos_as_xyz
1 x,y,z
2 -x,-y,-z
_cell_length_a                   11.388(5)
_cell_length_b                   11.889(5)
_cell_length_c                   14.884(5)
_cell_angle_alpha                72.703(5)
_cell_angle_beta                 70.701(5)
_cell_angle_gamma                72.364(5)
_cell_volume                     1768.45
loop_
_atom_site_label
_atom_site_type_symbol
_atom_site_fract_x
_atom_site_fract_y
_atom_site_fract_z
Mn1 Mn 1.0000 1.0000 0.5000
Mn2 Mn 0.90764(5) 1.00721(4) 0.31568(3)
O1 O 1.91019(19) 0.0267(2) 0.64959(16)
O2 O 1.0893(2) 0.8175(2) 0.56188(18)
O3 O 0.8691(2) 0.9175(2) 0.48271(17)
N1 N 0.8665(2) 1.0236(2) 0.17584(19)
O4 O 1.3226(2) 0.2545(2) 0.6611(3)
O5 O 1.1477(2) 0.8056(2) 0.69379(19)
O6 O 1.8162(2) -0.0635(3) 0.79750(18)
C1 C 0.9036(3) 0.9208(3) 0.1416(2)
O7 O 0.7203(2) 0.9615(3) 0.40834(19)
C2 C 0.9691(3) 0.8121(3) 0.1979(2)
N2 N 0.9284(3) 0.7757(3) -0.0565(2)
O8 O 0.4538(3) 0.6718(2) 0.8238(2)
O9 O 0.5812(3) 0.0981(2) 0.9311(2)
C3 C 1.1872(3) 0.6253(3) 0.6399(2)
C4 C 1.4443(3) 0.1968(3) 0.6732(3)
C5 C 1.8108(3) 0.0046(3) 0.7177(2)
N3 N 0.9844(3) 0.8219(2) 0.2808(2)
C6 C 0.4680(3) 0.5488(3) 0.8526(3)
C7 C 1.1381(3) 0.7598(3) 0.6305(2)
C8 C 0.8800(3) 0.9192(3) 0.0543(2)
O10 O 0.3812(3) 0.1424(3) 1.0184(2)
C9 C 1.0139(3) 0.7023(3) 0.1663(3)
C10 C 0.9938(3) 0.7033(3) 0.0765(3)
C11 C 1.5748(3) 0.0247(3) 0.7524(3)
C12 C 0.8032(3) 1.1234(3) 0.1275(3)
C13 C 0.9286(3) 0.8062(3) 0.0247(3)
C14 C 0.7601(3) 0.9123(3) 0.4824(2)
C15 C 0.6832(3) 0.8411(3) 0.5709(2)
C16 C 1.6825(3) 0.0698(3) 0.6991(2)
C17 C 0.4772(3) 0.3040(3) 0.9222(2)
C18 C 0.7747(3) 1.1281(3) 0.0420(3)
N4 N 1.0340(3) 0.6097(3) 0.0280(3)
C19 C 1.2465(4) 0.5554(3) 0.7122(3)
C20 C 0.5603(3) 0.8403(3) 0.5754(3)
C21 C 0.7329(4) 0.7797(3) 0.6501(3)
C22 C 0.6587(4) 0.7195(4) 0.7338(3)
C23 C 1.4563(3) 0.0866(3) 0.7387(3)
C24 C 0.4845(3) 0.1721(3) 0.9576(3)
C25 C 1.2835(3) 0.3782(3) 0.6537(3)
C26 C 1.0422(4) 0.7252(3) 0.3343(3)
C27 C 0.3760(4) 0.3883(3) 0.9647(3)
C28 C 0.5719(4) 0.3442(3) 0.8434(3)
C29 C 0.9918(4) 0.6591(4) -0.0511(3)
C30 C 0.8147(3) 1.0259(3) 0.0046(3)
H1 H 0.7984 1.0280 -0.0531
C31 C 1.6689(3) 0.1783(3) 0.6315(3)
C32 C 1.0871(4) 0.6128(4) 0.3091(3)
C33 C 0.4862(4) 0.7799(4) 0.6590(3)
C34 C 1.5493(4) 0.2429(3) 0.6192(3)
C35 C 0.5358(4) 0.7214(3) 0.7370(3)
C36 C 1.2941(4) 0.4322(3) 0.7193(4)
C37 C 0.3717(4) 0.5099(4) 0.9312(3)
C38 C 0.5666(4) 0.4661(3) 0.8078(3)
C39 C 1.2246(4) 0.4459(4) 0.5814(3)
C40 C 1.0736(4) 0.6016(3) 0.2255(3)
C41 C 1.1768(4) 0.5682(4) 0.5758(3)
H2 H 1.736(4) 0.209(3) 0.595(3)
H3 H 1.386(4) 0.054(4) 0.776(3)
H4 H 1.582(4) -0.051(4) 0.803(3)
H5 H 1.551(5) 0.315(5) 0.571(4)
H6 H 1.327(4) 0.390(4) 0.768(3)
H7 H 1.147(5) 0.616(5) 0.533(4)
H8 H 1.250(4) 0.590(4) 0.755(3)
H9 H 1.219(5) 0.401(5) 0.543(4)
H10 H 0.314(4) 0.358(4) 1.018(3)
H11 H 0.308(4) 0.565(4) 0.954(3)
H12 H 0.644(4) 0.286(4) 0.816(3)
H13 H 0.626(5) 0.487(4) 0.757(4)
H14 H 0.412(4) 0.781(4) 0.662(3)
H15 H 0.815(4) 0.777(3) 0.650(3)
H16 H 0.532(4) 0.877(4) 0.519(3)
H17 H 0.692(5) 0.687(4) 0.789(4)
H18 H 1.101(4) 0.530(4) 0.206(3)
H19 H 1.054(4) 0.735(4) 0.391(3)
H20 H 1.118(4) 0.550(4) 0.348(3)
H21 H 0.997(4) 0.615(4) -0.098(3)
H22 H 0.900(4) 0.821(4) -0.100(3)
H23 H 0.782(3) 1.191(3) 0.157(3)
H24 H 0.728(4) 1.203(4) 0.012(3)
Mn2A Mn 1.09236(5) 0.99279(4) 0.68432(3)
O1A O 0.08981(19) 1.9733(2) 0.35041(16)
O2A O 0.9107(2) 1.1825(2) 0.43812(18)
O3A O 1.1309(2) 1.0825(2) 0.51729(17)
N1A N 1.1335(2) 0.9764(2) 0.82416(19)
O4A O 0.6774(2) 1.7455(2) 0.3389(3)
O5A O 0.8523(2) 1.1944(2) 0.30621(19)
O6A O 0.1838(2) 2.0635(3) 0.20250(18)
C1A C 1.0964(3) 1.0792(3) 0.8584(2)
O7A O 1.2797(2) 1.0385(3) 0.59166(19)
C2A C 1.0309(3) 1.1879(3) 0.8021(2)
N2A N 1.0716(3) 1.2243(3) 1.0565(2)
O8A O 1.5462(3) 1.3282(2) 0.1762(2)
O9A O 1.4188(3) 1.9019(2) 0.0689(2)
C3A C 0.8128(3) 1.3747(3) 0.3601(2)
C4A C 0.5557(3) 1.8032(3) 0.3268(3)
C5A C 0.1892(3) 1.9954(3) 0.2823(2)
N3A N 1.0156(3) 1.1781(2) 0.7192(2)
C6A C 1.5320(3) 1.4512(3) 0.1474(3)
C7A C 0.8619(3) 1.2402(3) 0.3695(2)
C8A C 1.1200(3) 1.0808(3) 0.9457(2)
O10A O 1.6188(3) 1.8576(3) -0.0184(2)
C9A C 0.9861(3) 1.2977(3) 0.8337(3)
C10A C 1.0062(3) 1.2967(3) 0.9235(3)
C11A C 0.4252(3) 1.9753(3) 0.2476(3)
C12A C 1.1968(3) 0.8766(3) 0.8725(3)
C13A C 1.0714(3) 1.1938(3) 0.9753(3)
C14A C 1.2399(3) 1.0877(3) 0.5176(2)
C15A C 1.3168(3) 1.1589(3) 0.4291(2)
C16A C 0.3175(3) 1.9302(3) 0.3009(2)
C17A C 1.5228(3) 1.6960(3) 0.0778(2)
C18A C 1.2253(3) 0.8719(3) 0.9580(3)
N4A N 0.9660(3) 1.3903(3) 0.9720(3)
C19A C 0.7535(4) 1.4446(3) 0.2878(3)
C20A C 1.4397(3) 1.1597(3) 0.4246(3)
C21A C 1.2671(4) 1.2203(3) 0.3499(3)
C22A C 1.3413(4) 1.2805(4) 0.2662(3)
C23A C 0.5437(3) 1.9134(3) 0.2613(3)
C24A C 1.5155(3) 1.8279(3) 0.0424(3)
C25A C 0.7165(3) 1.6218(3) 0.3463(3)
C26A C 0.9578(4) 1.2748(3) 0.6657(3)
C27A C 1.6240(4) 1.6117(3) 0.0353(3)
C28A C 1.4281(4) 1.6558(3) 0.1566(3)
C29A C 1.0082(4) 1.3409(4) 1.0511(3)
C30A C 1.1853(3) 0.9741(3) 0.9954(3)
H1A H 1.2016 0.9720 1.0531
C31A C 0.3311(3) 1.8217(3) 0.3685(3)
C32A C 0.9129(4) 1.3872(4) 0.6909(3)
C33A C 1.5138(4) 1.2201(4) 0.3410(3)
C34A C 0.4507(4) 1.7571(3) 0.3808(3)
C35A C 1.4642(4) 1.2786(3) 0.2630(3)
C36A C 0.7059(4) 1.5678(3) 0.2807(4)
C37A C 1.6283(4) 1.4901(4) 0.0688(3)
C38A C 1.4334(4) 1.5339(3) 0.1922(3)
C39A C 0.7754(4) 1.5541(4) 0.4186(3)
C40A C 0.9264(4) 1.3984(3) 0.7745(3)
C41A C 0.8232(4) 1.4318(4) 0.4242(3)
H2A H 0.264(4) 1.791(3) 0.405(3)
H3A H 0.614(4) 1.946(4) 0.224(3)
H4A H 0.418(4) 2.051(4) 0.197(3)
H5A H 0.449(5) 1.685(5) 0.429(4)
H6A H 0.673(4) 1.610(4) 0.232(3)
H7A H 0.853(5) 1.384(5) 0.467(4)
H8A H 0.750(4) 1.410(4) 0.245(3)
H9A H 0.781(5) 1.599(5) 0.457(4)
H10A H 1.686(4) 1.642(4) -0.018(3)
H11A H 1.692(4) 1.435(4) 0.046(3)
H12A H 1.356(4) 1.714(4) 0.184(3)
H13A H 1.374(5) 1.513(4) 0.243(4)
H14A H 1.588(4) 1.219(4) 0.338(3)
H15A H 1.185(4) 1.223(3) 0.350(3)
H16A H 1.468(4) 1.123(4) 0.481(3)
H17A H 1.308(5) 1.313(4) 0.211(4)
H18A H 0.899(4) 1.470(4) 0.794(3)
H19A H 0.946(4) 1.265(4) 0.609(3)
H20A H 0.882(4) 1.450(4) 0.652(3)
H21A H 1.003(4) 1.385(4) 1.098(3)
H22A H 1.100(4) 1.179(4) 1.100(3)
H23A H 1.218(3) 0.809(3) 0.843(3)
H24A H 1.272(4) 0.797(4) 0.988(3)
Mn1_2 Mn 0.0000 2.0000 0.5000
Mn1_3 Mn 2.0000 0.0000 0.5000
Mn2_2 Mn -0.09236(5) 2.00721(4) 0.31568(3)
Mn2A_2 Mn 2.09236(5) -0.00721(4) 0.68432(3)
O1_2 O 0.91019(19) 1.0267(2) 0.64959(16)
O1A_2 O 1.08981(19) 0.9733(2) 0.35041(16)
loop_
_geom_bond_atom_site_label_1
_geom_bond_atom_site_label_2
_geom_bond_site_symmetry_1
_geom_bond_site_symmetry_2
Mn1 O2 1_555 1_555
Mn2 O3 1_555 1_555
O1 C5 1_555 1_555
O2 C7 1_555 1_555
O3 Mn1 1_555 1_555
N1 Mn2 1_555 1_555
O4 C4 1_555 1_555
O5 C7 1_555 1_555
O6 C5 1_555 1_555
C1 N1 1_555 1_555
O7 Mn2 1_555 1_555
C2 C1 1_555 1_555
N2 C13 1_555 1_555
O8 C6 1_555 1_555
O9 C24 1_555 1_555
C3 C7 1_555 1_555
C4 C23 1_555 1_555
C5 C16 1_555 1_555
N3 Mn2 1_555 1_555
C6 C37 1_555 1_555
C8 C1 1_555 1_555
O10 C24 1_555 1_555
C9 C2 1_555 1_555
C10 C9 1_555 1_555
C11 C16 1_555 1_555
C12 N1 1_555 1_555
C13 C8 1_555 1_555
C14 O3 1_555 1_555
C15 C14 1_555 1_555
C16 C31 1_555 1_555
C17 C24 1_555 1_555
C18 C12 1_555 1_555
N4 C10 1_555 1_555
C19 C3 1_555 1_555
C20 C15 1_555 1_555
C21 C15 1_555 1_555
C22 C21 1_555 1_555
C23 C11 1_555 1_555
C25 O4 1_555 1_555
C26 N3 1_555 1_555
C27 C17 1_555 1_555
C28 C17 1_555 1_555
C29 N2 1_555 1_555
C30 C8 1_555 1_555
H1 C30 1_555 1_555
C31 C34 1_555 1_555
C32 C26 1_555 1_555
C33 C20 1_555 1_555
C34 C4 1_555 1_555
C35 O8 1_555 1_555
C36 C19 1_555 1_555
C37 C27 1_555 1_555
C38 C6 1_555 1_555
C39 C25 1_555 1_555
C40 C9 1_555 1_555
C41 C3 1_555 1_555
H2 C31 1_555 1_555
H3 C23 1_555 1_555
H4 C11 1_555 1_555
H5 C34 1_555 1_555
H6 C36 1_555 1_555
H7 C41 1_555 1_555
H8 C19 1_555 1_555
H9 C39 1_555 1_555
H10 C27 1_555 1_555
H11 C37 1_555 1_555
H12 C28 1_555 1_555
H13 C38 1_555 1_555
H14 C33 1_555 1_555
H15 C21 1_555 1_555
H16 C20 1_555 1_555
H17 C22 1_555 1_555
H18 C40 1_555 1_555
H19 C26 1_555 1_555
H20 C32 1_555 1_555
H21 C29 1_555 1_555
H22 N2 1_555 1_555
H23 C12 1_555 1_555
H24 C18 1_555 1_555
Mn2A O5 1_555 1_555
O1A C5A 1_555 1_555
O2A Mn1 1_555 1_555
O3A Mn1 1_555 1_555
N1A Mn2A 1_555 1_555
O4A C4A 1_555 1_555
O5A Mn2 1_555 1_555
O6A C5A 1_555 1_555
C1A N1A 1_555 1_555
O7A Mn2A 1_555 1_555
C2A C1A 1_555 1_555
N2A C13A 1_555 1_555
O8A C6A 1_555 1_555
O9A C24A 1_555 1_555
C3A C7A 1_555 1_555
C4A C23A 1_555 1_555
C5A C16A 1_555 1_555
N3A Mn2A 1_555 1_555
C6A C37A 1_555 1_555
C7A O2A 1_555 1_555
C8A C1A 1_555 1_555
O10A C24A 1_555 1_555
C9A C2A 1_555 1_555
C10A C9A 1_555 1_555
C11A C16A 1_555 1_555
C12A N1A 1_555 1_555
C13A C8A 1_555 1_555
C14A O3A 1_555 1_555
C15A C14A 1_555 1_555
C16A C31A 1_555 1_555
C17A C24A 1_555 1_555
C18A C12A 1_555 1_555
N4A C10A 1_555 1_555
C19A C3A 1_555 1_555
C20A C15A 1_555 1_555
C21A C15A 1_555 1_555
C22A C21A 1_555 1_555
C23A C11A 1_555 1_555
C25A O4A 1_555 1_555
C26A N3A 1_555 1_555
C27A C17A 1_555 1_555
C28A C17A 1_555 1_555
C29A N2A 1_555 1_555
C30A C8A 1_555 1_555
H1A C30A 1_555 1_555
C31A C34A 1_555 1_555
C32A C26A 1_555 1_555
C33A C20A 1_555 1_555
C34A C4A 1_555 1_555
C35A O8A 1_555 1_555
C36A C19A 1_555 1_555
C37A C27A 1_555 1_555
C38A C6A 1_555 1_555
C39A C25A 1_555 1_555
C40A C9A 1_555 1_555
C41A C3A 1_555 1_555
H2A C31A 1_555 1_555
H3A C23A 1_555 1_555
H4A C11A 1_555 1_555
H5A C34A 1_555 1_555
H6A C36A 1_555 1_555
H7A C41A 1_555 1_555
H8A C19A 1_555 1_555
H9A C39A 1_555 1_555
H10A C27A 1_555 1_555
H11A C37A 1_555 1_555
H12A C28A 1_555 1_555
H13A C38A 1_555 1_555
H14A C33A 1_555 1_555
H15A C21A 1_555 1_555
H16A C20A 1_555 1_555
H17A C22A 1_555 1_555
H18A C40A 1_555 1_555
H19A C26A 1_555 1_555
H20A C32A 1_555 1_555
H21A C29A 1_555 1_555
H22A N2A 1_555 1_555
H23A C12A 1_555 1_555
H24A C18A 1_555 1_555
Mn1_2 O1A 1_555 1_555
Mn1_3 O1 1_555 1_555
Mn2_2 O1A 1_555 1_555
Mn2A_2 O1 1_555 1_555
O1_2 Mn1 1_555 1_555
O1A_2 Mn1 1_555 1_555
Mn2 O1A_2 1_555 1_555
O7 C14 1_555 1_555
C2 N3 1_555 1_555
C10 C13 1_555 1_555
C18 C30 1_555 1_555
N4 C29 1_555 1_555
C22 C35 1_555 1_555
C25 C36 1_555 1_555
C28 C38 1_555 1_555
C32 C40 1_555 1_555
C33 C35 1_555 1_555
C39 C41 1_555 1_555
Mn2A O3A 1_555 1_555
Mn2A O1_2 1_555 1_555
O5A C7A 1_555 1_555
O7A C14A 1_555 1_555
C2A N3A 1_555 1_555
C10A C13A 1_555 1_555
C18A C30A 1_555 1_555
N4A C29A 1_555 1_555
C22A C35A 1_555 1_555
C25A C36A 1_555 1_555
C28A C38A 1_555 1_555
C32A C40A 1_555 1_555
C33A C35A 1_555 1_555
C39A C41A 1_555 1_555

#END
