
#######################################################################
#
#                 Cambridge Crystallographic Data Centre
#                                CCDC 
#
#######################################################################
#
# If this CIF has been generated from an entry in the Cambridge 
# Structural Database, then it will include bibliographic, chemical, 
# crystal, experimental, refinement or atomic coordinate data resulting 
# from the CCDC's data processing and validation procedures.
#
#######################################################################

data_YOFRER
_symmetry_cell_setting           monoclinic
_symmetry_space_group_name_H-M   'P 21/n'
_symmetry_Int_Tables_number      14
_space_group_name_Hall           '-P 2yn'
loop_
_symmetry_equiv_pos_site_id
_symmetry_equiv_pos_as_xyz
1 x,y,z
2 1/2-x,1/2+y,1/2-z
3 -x,-y,-z
4 1/2+x,1/2-y,1/2+z
_cell_length_a                   16.701(2)
_cell_length_b                   9.8114(12)
_cell_length_c                   19.172(2)
_cell_angle_alpha                90
_cell_angle_beta                 94.242(2)
_cell_angle_gamma                90
_cell_volume                     3132.92
loop_
_atom_site_label
_atom_site_type_symbol
_atom_site_fract_x
_atom_site_fract_y
_atom_site_fract_z
Cd1 Cd 0.681302(15) 0.27654(3) 0.072509(13)
Cd2 Cd 0.834516(15) 0.21252(3) -0.060127(13)
O1 O 0.73481(16) 0.0691(3) 0.08882(13)
O2 O 0.80489(17) 0.0198(3) -0.00282(15)
O3 O 0.74624(15) -0.6324(2) -0.01456(13)
O4 O 0.7746(2) -0.4803(3) -0.09414(15)
O5 O 0.58801(15) 0.4547(3) 0.09120(13)
O6 O 0.57303(16) 0.2647(3) 0.14991(13)
O7 O 0.41521(16) 0.2324(3) 0.34678(13)
O8 O 0.42427(16) 0.4426(3) 0.38537(14)
N1 N 0.73822(18) 0.1608(3) -0.14791(15)
N2 N 0.57756(19) 0.0407(3) -0.31352(16)
H1 H 0.578(2) -0.048(2) -0.317(2)
N3 N 0.42723(18) 0.2083(3) -0.47563(15)
N4 N 0.58699(17) 0.1869(3) -0.01355(15)
N5 N 0.4325(2) 0.0170(3) -0.17236(17)
H2 H 0.429(2) -0.072(2) -0.170(2)
N6 N 0.26884(18) 0.1576(3) -0.33262(15)
C1 C 0.7345(2) 0.0325(4) -0.17287(19)
H3 H 0.7689 -0.0342 -0.1507
C2 C 0.6838(2) -0.0066(4) -0.22841(18)
H4 H 0.6841 -0.0981 -0.2446
C3 C 0.6310(2) 0.0894(4) -0.26150(19)
C4 C 0.6348(2) 0.2223(4) -0.23563(19)
H5 H 0.6008 0.2910 -0.2564
C5 C 0.6884(2) 0.2529(4) -0.17942(19)
H6 H 0.6901 0.3438 -0.1623
C6 C 0.4808(2) 0.2879(4) -0.43955(19)
H7 H 0.4827 0.3816 -0.4518
C7 C 0.5337(2) 0.2420(4) -0.38557(19)
H8 H 0.5714 0.3024 -0.3626
C8 C 0.5305(2) 0.1053(4) -0.36541(19)
C9 C 0.4751(2) 0.0216(4) -0.4040(2)
H9 H 0.4710 -0.0723 -0.3928
C10 C 0.4269(2) 0.0766(4) -0.4579(2)
H10 H 0.3911 0.0175 -0.4842
C11 C 0.5927(2) 0.0579(4) -0.0356(2)
H11 H 0.6333 0.0019 -0.0132
C12 C 0.5435(2) 0.0015(4) -0.08853(19)
H12 H 0.5506 -0.0905 -0.1022
C13 C 0.4829(2) 0.0808(4) -0.12208(18)
C14 C 0.4754(2) 0.2143(4) -0.09855(18)
H13 H 0.4343 0.2719 -0.1189
C15 C 0.5281(2) 0.2620(4) -0.04548(19)
H14 H 0.5224 0.3536 -0.0306
C16 C 0.2640(2) 0.0331(4) -0.30396(19)
H15 H 0.2217 -0.0254 -0.3211
C17 C 0.3169(2) -0.0141(4) -0.25114(19)
H16 H 0.3115 -0.1039 -0.2336
C18 C 0.3785(2) 0.0703(4) -0.22332(18)
C19 C 0.3834(2) 0.2003(4) -0.25210(19)
H17 H 0.4238 0.2623 -0.2346
C20 C 0.3288(2) 0.2377(4) -0.30648(19)
H18 H 0.3341 0.3255 -0.3265
C21 C 0.7669(2) -0.0132(4) 0.04843(19)
C22 C 0.7566(3) -0.1626(4) 0.0626(2)
H19 H 0.7045 -0.1759 0.0832
H20 H 0.7994 -0.1913 0.0980
C23 C 0.7592(3) -0.2560(4) -0.0013(2)
H21 H 0.7224 -0.2202 -0.0399
H22 H 0.8142 -0.2566 -0.0173
C24 C 0.7350(3) -0.3993(4) 0.0158(2)
H23 H 0.7628 -0.4244 0.0614
H24 H 0.6767 -0.3996 0.0218
C25 C 0.7520(2) -0.5081(4) -0.0362(2)
C26 C 0.5485(2) 0.3804(4) 0.12930(19)
C27 C 0.4670(2) 0.4306(5) 0.1480(2)
H25 H 0.4282 0.4164 0.1071
H26 H 0.4707 0.5300 0.1566
C28 C 0.4333(2) 0.3637(4) 0.2117(2)
H27 H 0.3783 0.3982 0.2166
H28 H 0.4298 0.2640 0.2040
C29 C 0.4850(3) 0.3917(4) 0.2792(2)
H29 H 0.5353 0.3383 0.2795
H30 H 0.4993 0.4896 0.2817
C30 C 0.4399(2) 0.3533(4) 0.34204(19)
Cd1_2 Cd 0.681302(15) -0.72346(3) 0.072509(13)
Cd1C Cd 0.181302(15) 0.22346(3) -0.427491(13)
Cd2_2 Cd 0.834516(15) -0.78748(3) -0.060127(13)
Cd2C Cd 0.334516(15) 0.28748(3) 0.439873(13)
Cd2C_2 Cd 0.334516(15) 0.28748(3) -0.560127(13)
O3_2 O 0.74624(15) 0.3676(2) -0.01456(13)
O7C O 0.91521(16) 0.2676(3) -0.15322(13)
O8C O 0.92427(16) 0.0574(3) -0.11463(14)
N3C N 0.92723(18) 0.2917(3) 0.02437(15)
N6C N 0.76884(18) 0.3424(3) 0.16738(15)
loop_
_geom_bond_atom_site_label_1
_geom_bond_atom_site_label_2
_geom_bond_site_symmetry_1
_geom_bond_site_symmetry_2
Cd1 O1 1_555 1_555
Cd2 O2 1_555 1_555
O1 C21 1_555 1_555
O2 C21 1_555 1_555
O3 C25 1_555 1_555
O4 C25 1_555 1_555
O5 Cd1 1_555 1_555
O6 Cd1 1_555 1_555
O7 C30 1_555 1_555
O8 C30 1_555 1_555
N1 Cd2 1_555 1_555
N2 H1 1_555 1_555
N3 C6 1_555 1_555
N4 Cd1 1_555 1_555
N5 H2 1_555 1_555
N6 C16 1_555 1_555
C1 N1 1_555 1_555
H3 C1 1_555 1_555
C2 C1 1_555 1_555
H4 C2 1_555 1_555
C3 N2 1_555 1_555
C4 C3 1_555 1_555
H5 C4 1_555 1_555
C5 N1 1_555 1_555
H6 C5 1_555 1_555
C6 H7 1_555 1_555
C7 C6 1_555 1_555
H8 C7 1_555 1_555
C8 N2 1_555 1_555
C9 C8 1_555 1_555
H9 C9 1_555 1_555
C10 N3 1_555 1_555
H10 C10 1_555 1_555
C11 N4 1_555 1_555
H11 C11 1_555 1_555
C12 C11 1_555 1_555
H12 C12 1_555 1_555
C13 N5 1_555 1_555
C14 C13 1_555 1_555
H13 C14 1_555 1_555
C15 N4 1_555 1_555
H14 C15 1_555 1_555
C16 H15 1_555 1_555
C17 C16 1_555 1_555
H16 C17 1_555 1_555
C18 N5 1_555 1_555
C19 C18 1_555 1_555
H17 C19 1_555 1_555
C20 N6 1_555 1_555
H18 C20 1_555 1_555
C21 C22 1_555 1_555
C22 H19 1_555 1_555
H20 C22 1_555 1_555
C23 C22 1_555 1_555
H21 C23 1_555 1_555
H22 C23 1_555 1_555
C24 C23 1_555 1_555
H23 C24 1_555 1_555
H24 C24 1_555 1_555
C25 C24 1_555 1_555
C26 O5 1_555 1_555
C27 C26 1_555 1_555
H25 C27 1_555 1_555
H26 C27 1_555 1_555
C28 C27 1_555 1_555
H27 C28 1_555 1_555
H28 C28 1_555 1_555
C29 C28 1_555 1_555
H29 C29 1_555 1_555
H30 C29 1_555 1_555
C30 C29 1_555 1_555
Cd1_2 O3 1_555 1_555
Cd1C N6 1_555 1_555
Cd2_2 O3 1_555 1_555
Cd2C O7 1_555 1_555
Cd2C_2 N3 1_555 1_555
O3_2 Cd1 1_555 1_555
O7C Cd2 1_555 1_555
O8C Cd2 1_555 1_555
N3C Cd2 1_555 1_555
N6C Cd1 1_555 1_555
Cd2 O3_2 1_555 1_555
O6 C26 1_555 1_555
O8 Cd2C 1_555 1_555
C2 C3 1_555 1_555
C4 C5 1_555 1_555
C7 C8 1_555 1_555
C9 C10 1_555 1_555
C12 C13 1_555 1_555
C14 C15 1_555 1_555
C17 C18 1_555 1_555
C19 C20 1_555 1_555

#END
